20:0


 31 35  0  0  0  0  0  0  0  0999 V2000
   53.2331   30.8381   53.3928 C   0  0  0  0  0  0  0  0  0  0  0  0
   54.1288   29.9179   53.7828 C   0  0  0  0  0  0  0  0  0  0  0  0
   53.9683   29.0214   54.8285 C   0  0  0  0  0  0  0  0  0  0  0  0
   55.0850   28.2689   54.9486 N   0  0  0  0  0  0  0  0  0  0  0  0
   55.9588   28.6584   54.0267 N   0  0  0  0  0  0  0  0  0  0  0  0
   57.2397   28.2407   53.7659 C   0  0  0  0  0  0  0  0  0  0  0  0
   57.8381   27.2555   54.3768 N   0  0  0  0  0  0  0  0  0  0  0  0
   57.9272   28.8875   52.7855 N   0  0  0  0  0  0  0  0  0  0  0  0
   57.3691   29.9179   52.0824 C   0  0  0  0  0  0  0  0  0  0  0  0
   58.0355   30.5265   51.1476 N   0  0  0  0  0  0  0  0  0  0  0  0
   56.0978   30.3126   52.3559 N   0  0  0  0  0  0  0  0  0  0  0  0
   55.4077   29.6565   53.3173 C   0  0  0  0  0  0  0  0  0  0  0  0
   55.2269   27.5524   55.6087 H   0  0  0  0  0  0  0  0  0  0  0  0
   52.4706   30.7727   52.1363 C   0  0  0  0  0  0  0  0  0  0  0  0
   52.7234   29.8823   51.1611 N   0  0  0  0  0  0  0  0  0  0  0  0
   51.8706   30.2468   50.1781 C   0  0  0  0  0  0  0  0  0  0  0  0
   51.7958   29.6301   49.0835 O   0  0  0  0  0  0  0  0  0  0  0  0
   51.1114   31.3279   50.4572 N   0  0  0  0  0  0  0  0  0  0  0  0
   51.5132   31.6575   51.6940 C   0  0  0  0  0  0  0  0  0  0  0  0
   51.0431   32.7667   52.3874 O   0  0  0  0  0  0  0  0  0  0  0  0
   59.1189   27.2365   55.0717 C   0  0  0  0  0  0  0  0  0  0  0  0
   60.2023   26.5806   54.2336 C   0  0  0  0  0  0  0  0  0  0  0  0
   59.6165   25.8467   55.4286 C   0  0  0  0  0  0  0  0  0  0  0  0
   59.4712   30.3730   50.9099 C   0  0  0  0  0  0  0  0  0  0  0  0
   59.7223   29.3673   49.8179 C   0  0  0  0  0  0  0  0  0  0  0  0
   59.2200   29.5754   48.5224 C   0  0  0  0  0  0  0  0  0  0  0  0
   59.4833   28.6509   47.5072 C   0  0  0  0  0  0  0  0  0  0  0  0
   60.2503   27.5125   47.7775 C   0  0  0  0  0  0  0  0  0  0  0  0
   60.5812   26.3545   46.5017 Cl  0  0  0  0  0  0  0  0  0  0  0  0
   60.7551   27.2993   49.0651 C   0  0  0  0  0  0  0  0  0  0  0  0
   60.4938   28.2227   50.0811 C   0  0  0  0  0  0  0  0  0  0  0  0
  1 14  1  0
 14 15  1  0
 15 16  1  0
 16 17  2  0
 16 18  1  0
 18 19  1  0
 19 20  1  0
  1  2  2  0
  2  3  1  0
  3  4  2  0
  4  5  1  0
  5  6  1  0
  6  7  2  0
  7 21  1  0
 21 22  1  0
 22 23  1  0
  6  8  1  0
  8  9  1  0
  9 10  2  0
 10 24  1  0
 24 25  1  0
 25 26  2  0
 26 27  1  0
 27 28  2  0
 28 29  1  0
 28 30  1  0
 30 31  2  0
  9 11  1  0
 11 12  2  0
 19 14  2  0
 12  2  1  0
 12  5  1  0
 23 21  1  0
 31 25  1  0
  4 13  1  0
M  CHG 1   4   1
M  CHG 1   8  -1
M  CHG 1  15  -1
M  CHG 1  18  -1
M  CHG 1  20  -1
M  END
> <UniqueID>
18

> <SMILES>
O=c1[n-]c([O-])c(/C=c2/c[nH+]n3c(=NC4CC4)[n-]c(=NCc4ccc(Cl)cc4)nc23)[n-]1

> <Energy>
395.58864250472027

> <Genealogy>
O=c1[n-]c([O-])c(C=c2c[nH+]n3c(=NC4CC4)[n-]c(=NCc4ccc(Cl)cc4)nc23)[n-]1 (protonated)
O=c1[n-]c([O-])c(/C=c2/c[nH+]n3c(=NC4CC4)[n-]c(=NCc4ccc(Cl)cc4)nc23)[n-]1 (cis-trans isomerization)
O=c1[n-]c([O-])c(/C=c2/c[nH+]n3c(=NC4CC4)[n-]c(=NCc4ccc(Cl)cc4)nc23)[n-]1 (3D coordinates assigned)
O=c1[n-]c([O-])c(/C=c2/c[nH+]n3c(=NC4CC4)[n-]c(=NCc4ccc(Cl)cc4)nc23)[n-]1 (nonaromatic ring conformer: 395.58864250472027 kcal/mol)

> <smiles>
O=c1[nH]c(O)c(C=c2cnn3c(=NC4CC4)[nH]c(=NCc4ccc(Cl)cc4)nc23)[nH]1

> <score_type>
oracle

> <origin>
adg

> <m_score__min__energy>
-17.16

> <m_primary>
energy

> <minimizedAffinity>
-5.43937

> <minimizedRMSD>
1.07003

> <CNNscore>
0.0574965551

> <CNNaffinity>
4.8128457069

> <CNN_VS>
0.2767220438

> <CNNaffinity_variance>
0.5100409389

$$$$
39:0


 26 27  0  0  0  0  0  0  0  0999 V2000
   58.9188   31.4656   50.9717 C   0  0  0  0  0  0  0  0  0  0  0  0
   59.9115   32.4486   51.0842 C   0  0  0  0  0  0  0  0  0  0  0  0
   59.7444   33.5288   51.9555 C   0  0  0  0  0  0  0  0  0  0  0  0
   58.5808   33.6325   52.7201 C   0  0  0  0  0  0  0  0  0  0  0  0
   57.5774   32.6681   52.6032 C   0  0  0  0  0  0  0  0  0  0  0  0
   57.7376   31.5768   51.7302 C   0  0  0  0  0  0  0  0  0  0  0  0
   59.1721   30.1131   49.8061 S   0  0  0  0  0  0  0  0  0  0  0  0
   58.8120   30.6219   47.0347 C   0  0  0  0  0  0  0  0  0  0  0  0
   58.7435   31.5063   45.9401 C   0  0  0  0  0  0  0  0  0  0  0  0
   58.8979   32.8818   46.1234 C   0  0  0  0  0  0  0  0  0  0  0  0
   59.1429   33.3922   47.3985 C   0  0  0  0  0  0  0  0  0  0  0  0
   59.2220   32.5306   48.4921 C   0  0  0  0  0  0  0  0  0  0  0  0
   59.0339   31.1497   48.3334 C   0  0  0  0  0  0  0  0  0  0  0  0
   58.6272   29.1410   46.7706 C   0  0  0  0  0  0  0  0  0  0  0  0
   56.6590   29.0961   45.1806 N   0  0  0  0  0  0  0  0  0  0  0  0
   58.0504   28.8669   45.4089 C   0  0  0  0  0  0  0  0  0  0  0  0
   58.7553   28.3736   44.4870 O   0  0  0  0  0  0  0  0  0  0  0  0
   56.2702   28.9202   44.2934 H   0  0  0  0  0  0  0  0  0  0  0  0
   56.6901   30.6082   51.5680 N   0  0  0  0  0  0  0  0  0  0  0  0
   55.5116   30.5221   52.3795 C   0  0  0  0  0  0  0  0  0  0  0  0
   55.5949   30.1426   53.5769 O   0  0  0  0  0  0  0  0  0  0  0  0
   54.1816   30.7147   51.7835 C   0  0  0  0  0  0  0  0  0  0  0  0
   53.0080   30.4417   52.3764 C   0  0  0  0  0  0  0  0  0  0  0  0
   51.7510   31.2090   52.2291 C   0  0  0  0  0  0  0  0  0  0  0  0
   51.5856   32.0502   51.3040 O   0  0  0  0  0  0  0  0  0  0  0  0
   50.7528   31.0486   53.1862 O   0  0  0  0  0  0  0  0  0  0  0  0
 15 16  1  0
 16 17  2  0
 16 14  1  0
 14  8  1  0
  8  9  2  0
  9 10  1  0
 10 11  2  0
 11 12  1  0
 12 13  2  0
 13  7  1  0
  7  1  1  0
  1  2  2  0
  2  3  1  0
  3  4  2  0
  4  5  1  0
  5  6  2  0
  6 19  1  0
 19 20  1  0
 20 21  2  0
 20 22  1  0
 22 23  2  0
 23 24  1  0
 24 25  2  0
 24 26  1  0
 13  8  1  0
  6  1  1  0
 15 18  1  0
M  CHG 1  15  -1
M  CHG 1  19  -1
M  CHG 1  26  -1
M  END
> <UniqueID>
35

> <SMILES>
[NH-]C(=O)Cc1ccccc1Sc1ccccc1[N-]C(=O)C=CC(=O)[O-]

> <Energy>
44.291961605438566

> <Genealogy>
[NH-]C(=O)Cc1ccccc1Sc1ccccc1[N-]C(=O)C=CC(=O)[O-] (protonated)
[NH-]C(=O)Cc1ccccc1Sc1ccccc1[N-]C(=O)C=CC(=O)[O-] (3D coordinates assigned)
[NH-]C(=O)Cc1ccccc1Sc1ccccc1[N-]C(=O)C=CC(=O)[O-] (optimized conformer: 44.291961605438566 kcal/mol)

> <smiles>
NC(=O)Cc1ccccc1Sc1ccccc1NC(=O)C=CC(=O)O

> <score_type>
oracle

> <origin>
adg

> <m_score__min__energy>
-15.1

> <m_primary>
energy

> <minimizedAffinity>
-6.84281

> <minimizedRMSD>
1.12504

> <CNNscore>
0.7518681288

> <CNNaffinity>
6.4215054512

> <CNN_VS>
4.8281254768

> <CNNaffinity_variance>
0.0542212725

$$$$
25:0


 31 33  0  0  0  0  0  0  0  0999 V2000
   59.2797   32.0044   50.5449 C   0  0  0  0  0  0  0  0  0  0  0  0
   59.8747   33.2692   50.5028 C   0  0  0  0  0  0  0  0  0  0  0  0
   60.2844   33.8175   49.2859 C   0  0  0  0  0  0  0  0  0  0  0  0
   60.0815   33.1174   48.0915 C   0  0  0  0  0  0  0  0  0  0  0  0
   60.6432   33.8505   46.5937 Cl  0  0  0  0  0  0  0  0  0  0  0  0
   59.4442   31.8587   48.1150 C   0  0  0  0  0  0  0  0  0  0  0  0
   59.0463   31.3115   49.3444 C   0  0  0  0  0  0  0  0  0  0  0  0
   59.1600   30.9492   46.6217 S   0  0  0  0  0  0  0  0  0  0  0  0
   59.3716   31.8779   45.4542 O   0  0  0  0  0  0  0  0  0  0  0  0
   57.7388   30.4604   46.5827 O   0  0  0  0  0  0  0  0  0  0  0  0
   60.2806   29.6055   46.5224 N   0  0  0  0  0  0  0  0  0  0  0  0
   60.0728   28.6137   47.5963 C   0  0  0  0  0  0  0  0  0  0  0  0
   58.9376   27.6301   47.2687 C   0  0  0  0  0  0  0  0  0  0  0  0
   59.1586   27.0042   46.0215 O   0  0  0  0  0  0  0  0  0  0  0  0
   59.1480   27.9760   44.9961 C   0  0  0  0  0  0  0  0  0  0  0  0
   60.2934   28.9837   45.1829 C   0  0  0  0  0  0  0  0  0  0  0  0
   58.8811   31.4737   51.8171 N   0  0  0  0  0  0  0  0  0  0  0  0
   57.6612   30.7706   52.0948 C   0  0  0  0  0  0  0  0  0  0  0  0
   57.3378   29.7482   51.4284 O   0  0  0  0  0  0  0  0  0  0  0  0
   56.7941   31.2190   53.2290 C   0  0  0  0  0  0  0  0  0  0  0  0
   56.3244   30.0670   54.0118 N   0  0  0  0  0  0  0  0  0  0  0  0
   54.9060   29.8629   54.1806 C   0  0  0  0  0  0  0  0  0  0  0  0
   54.4748   29.3428   55.2450 O   0  0  0  0  0  0  0  0  0  0  0  0
   53.9402   30.2566   53.1389 C   0  0  0  0  0  0  0  0  0  0  0  0
   53.9582   29.8322   51.8217 C   0  0  0  0  0  0  0  0  0  0  0  0
   52.8530   30.3921   51.2231 C   0  0  0  0  0  0  0  0  0  0  0  0
   52.2220   31.1177   52.2074 C   0  0  0  0  0  0  0  0  0  0  0  0
   51.0497   31.8434   52.0284 O   0  0  0  0  0  0  0  0  0  0  0  0
   52.8692   31.0397   53.3854 N   0  0  0  0  0  0  0  0  0  0  0  0
   56.9469   27.6725   54.1432 C   0  0  0  0  0  0  0  0  0  0  0  0
   57.2906   29.1008   54.5683 C   0  0  0  0  0  0  0  0  0  0  0  0
 30 31  1  0
 31 21  1  0
 21 20  1  0
 20 18  1  0
 18 19  2  0
 18 17  1  0
 17  1  1  0
  1  2  2  0
  2  3  1  0
  3  4  2  0
  4  5  1  0
  4  6  1  0
  6  8  1  0
  8  9  2  0
  8 10  2  0
  8 11  1  0
 11 12  1  0
 12 13  1  0
 13 14  1  0
 14 15  1  0
 15 16  1  0
  6  7  2  0
 21 22  1  0
 22 23  2  0
 22 24  1  0
 24 25  2  0
 25 26  1  0
 26 27  2  0
 27 28  1  0
 27 29  1  0
  7  1  1  0
 29 24  1  0
 16 11  1  0
M  CHG 1  17  -1
M  CHG 1  28  -1
M  CHG 1  29  -1
M  END
> <UniqueID>
24

> <SMILES>
CCN(CC(=O)[N-]c1ccc(Cl)c(S(=O)(=O)N2CCOCC2)c1)C(=O)c1ccc([O-])[n-]1

> <Energy>
85.25257327672745

> <Genealogy>
CCN(CC(=O)[N-]c1ccc(Cl)c(S(=O)(=O)N2CCOCC2)c1)C(=O)c1ccc([O-])[n-]1 (protonated)
CCN(CC(=O)[N-]c1ccc(Cl)c(S(=O)(=O)N2CCOCC2)c1)C(=O)c1ccc([O-])[n-]1 (3D coordinates assigned)
CCN(CC(=O)[N-]c1ccc(Cl)c(S(=O)(=O)N2CCOCC2)c1)C(=O)c1ccc([O-])[n-]1 (nonaromatic ring conformer: 85.25257327672745 kcal/mol)

> <smiles>
CCN(CC(=O)Nc1ccc(Cl)c(S(=O)(=O)N2CCOCC2)c1)C(=O)c1ccc(O)[nH]1

> <score_type>
oracle

> <origin>
adg

> <m_score__min__energy>
-15.42

> <m_primary>
energy

> <minimizedAffinity>
-5.62492

> <minimizedRMSD>
1.52961

> <CNNscore>
0.6430124044

> <CNNaffinity>
6.7227172852

> <CNN_VS>
4.3227906227

> <CNNaffinity_variance>
0.0714074597

$$$$
63:0


 24 25  0  0  0  0  0  0  0  0999 V2000
   56.9513   29.5711   44.5217 S   0  0  0  0  0  0  0  0  0  0  0  0
   55.8613   30.5511   44.1855 O   0  0  0  0  0  0  0  0  0  0  0  0
   57.5649   29.0643   43.2482 O   0  0  0  0  0  0  0  0  0  0  0  0
   60.1856   31.5129   47.1026 C   0  0  0  0  0  0  0  0  0  0  0  0
   58.9765   32.1877   46.8606 C   0  0  0  0  0  0  0  0  0  0  0  0
   57.9895   31.6004   46.0637 C   0  0  0  0  0  0  0  0  0  0  0  0
   58.2045   30.3391   45.4914 C   0  0  0  0  0  0  0  0  0  0  0  0
   59.4233   29.6828   45.7014 C   0  0  0  0  0  0  0  0  0  0  0  0
   60.4118   30.2721   46.4955 C   0  0  0  0  0  0  0  0  0  0  0  0
   61.2256   32.0970   47.8984 N   0  0  0  0  0  0  0  0  0  0  0  0
   63.5413   33.1833   48.0981 C   0  0  0  0  0  0  0  0  0  0  0  0
   62.1889   33.0669   47.4661 C   0  0  0  0  0  0  0  0  0  0  0  0
   61.8997   33.8231   46.5020 O   0  0  0  0  0  0  0  0  0  0  0  0
   56.2645   28.2391   45.3935 N   0  0  0  0  0  0  0  0  0  0  0  0
   57.0118   27.2041   46.0508 C   0  0  0  0  0  0  0  0  0  0  0  0
   58.3489   27.3898   46.4494 C   0  0  0  0  0  0  0  0  0  0  0  0
   59.0633   26.3525   47.0776 C   0  0  0  0  0  0  0  0  0  0  0  0
   58.4182   25.1265   47.3116 C   0  0  0  0  0  0  0  0  0  0  0  0
   57.0889   24.9411   46.9240 C   0  0  0  0  0  0  0  0  0  0  0  0
   56.3875   25.9735   46.2971 C   0  0  0  0  0  0  0  0  0  0  0  0
   55.0667   25.7712   45.9149 O   0  0  0  0  0  0  0  0  0  0  0  0
   60.4344   26.5382   47.4740 N   0  0  0  0  0  0  0  0  0  0  0  0
   60.7165   26.9473   48.6204 O   0  0  0  0  0  0  0  0  0  0  0  0
   61.4595   26.2728   46.5949 O   0  0  0  0  0  0  0  0  0  0  0  0
 11 12  1  0
 12 13  2  0
 12 10  1  0
 10  4  1  0
  4  5  2  0
  5  6  1  0
  6  7  2  0
  7  1  1  0
  1  2  2  0
  1  3  2  0
  1 14  1  0
 14 15  1  0
 15 16  2  0
 16 17  1  0
 17 22  1  0
 22 23  2  0
 22 24  1  0
 17 18  2  0
 18 19  1  0
 19 20  2  0
 20 21  1  0
  7  8  1  0
  8  9  2  0
  9  4  1  0
 20 15  1  0
M  CHG 1  10  -1
M  CHG 1  14  -1
M  CHG 1  21  -1
M  CHG 1  22   1
M  CHG 1  24  -1
M  END
> <UniqueID>
58

> <SMILES>
CC(=O)[N-]c1ccc(S(=O)(=O)[N-]c2cc([N+](=O)[O-])ccc2[O-])cc1

> <Energy>
42.21804966118287

> <Genealogy>
CC(=O)[N-]c1ccc(S(=O)(=O)[N-]c2cc([N+](=O)[O-])ccc2[O-])cc1 (protonated)
CC(=O)[N-]c1ccc(S(=O)(=O)[N-]c2cc([N+](=O)[O-])ccc2[O-])cc1 (3D coordinates assigned)
CC(=O)[N-]c1ccc(S(=O)(=O)[N-]c2cc([N+](=O)[O-])ccc2[O-])cc1 (optimized conformer: 42.21804966118287 kcal/mol)

> <smiles>
CC(=O)Nc1ccc(S(=O)(=O)Nc2cc([N+](=O)[O-])ccc2O)cc1

> <score_type>
oracle

> <origin>
adg

> <m_score__min__energy>
-14.19

> <m_primary>
energy

> <minimizedAffinity>
-4.71787

> <minimizedRMSD>
0.82552

> <CNNscore>
0.6721715331

> <CNNaffinity>
6.6615948677

> <CNN_VS>
4.4777345657

> <CNNaffinity_variance>
0.5804637074

$$$$
42:0


 36 39  0  0  0  0  0  0  0  0999 V2000
   59.9998   34.2829   49.8446 N   0  0  0  0  0  0  0  0  0  0  0  0
   58.4898   29.9222   45.7399 C   0  0  0  0  0  0  0  0  0  0  0  0
   57.9840   31.2292   45.7582 C   0  0  0  0  0  0  0  0  0  0  0  0
   58.7170   32.2609   46.3540 C   0  0  0  0  0  0  0  0  0  0  0  0
   59.9522   31.9859   46.9681 C   0  0  0  0  0  0  0  0  0  0  0  0
   60.5086   30.7065   46.8318 C   0  0  0  0  0  0  0  0  0  0  0  0
   59.7704   29.6697   46.2535 C   0  0  0  0  0  0  0  0  0  0  0  0
   61.8066   30.4797   47.2838 O   0  0  0  0  0  0  0  0  0  0  0  0
   62.6948   31.5759   47.4784 C   0  0  0  0  0  0  0  0  0  0  0  0
   62.0072   32.6895   48.2755 C   0  0  0  0  0  0  0  0  0  0  0  0
   60.6394   32.9605   47.7938 N   0  0  0  0  0  0  0  0  0  0  0  0
   59.9370   34.0518   48.4256 C   0  0  0  0  0  0  0  0  0  0  0  0
   59.2510   34.8346   47.7176 O   0  0  0  0  0  0  0  0  0  0  0  0
   55.9171   29.2120   44.7667 N   0  0  0  0  0  0  0  0  0  0  0  0
   57.5135   28.6215   45.0698 S   0  0  0  0  0  0  0  0  0  0  0  0
   57.4353   27.4729   46.0364 O   0  0  0  0  0  0  0  0  0  0  0  0
   58.1294   28.1454   43.7841 O   0  0  0  0  0  0  0  0  0  0  0  0
   55.3454   28.4622   44.3778 H   0  0  0  0  0  0  0  0  0  0  0  0
   59.5911   33.3533   50.8592 C   0  0  0  0  0  0  0  0  0  0  0  0
   60.1357   33.3935   52.1508 C   0  0  0  0  0  0  0  0  0  0  0  0
   59.8702   32.3657   53.0600 C   0  0  0  0  0  0  0  0  0  0  0  0
   59.0414   31.2891   52.6942 C   0  0  0  0  0  0  0  0  0  0  0  0
   58.4310   31.3002   51.4260 C   0  0  0  0  0  0  0  0  0  0  0  0
   58.6944   32.3342   50.5225 C   0  0  0  0  0  0  0  0  0  0  0  0
   58.8630   30.1371   53.6066 C   0  0  0  0  0  0  0  0  0  0  0  0
   59.2602   28.9914   53.2624 O   0  0  0  0  0  0  0  0  0  0  0  0
   58.2723   30.3257   54.8969 N   0  0  0  0  0  0  0  0  0  0  0  0
   56.8559   30.6026   55.1015 C   0  0  0  0  0  0  0  0  0  0  0  0
   56.0192   29.3986   54.6673 C   0  0  0  0  0  0  0  0  0  0  0  0
   54.8299   29.8322   53.8551 C   0  0  0  0  0  0  0  0  0  0  0  0
   53.5572   29.8937   54.4465 C   0  0  0  0  0  0  0  0  0  0  0  0
   52.4481   30.2905   53.6923 C   0  0  0  0  0  0  0  0  0  0  0  0
   52.6027   30.6382   52.3456 C   0  0  0  0  0  0  0  0  0  0  0  0
   51.4973   31.0217   51.5954 O   0  0  0  0  0  0  0  0  0  0  0  0
   53.8696   30.5940   51.7541 C   0  0  0  0  0  0  0  0  0  0  0  0
   54.9820   30.1974   52.5065 C   0  0  0  0  0  0  0  0  0  0  0  0
 14 15  1  0
 15 16  2  0
 15 17  2  0
 15  2  1  0
  2  3  2  0
  3  4  1  0
  4  5  2  0
  5  6  1  0
  6  7  2  0
  6  8  1  0
  8  9  1  0
  9 10  1  0
 10 11  1  0
 11 12  1  0
 12 13  2  0
 12  1  1  0
  1 19  1  0
 19 20  2  0
 20 21  1  0
 21 22  2  0
 22 25  1  0
 25 26  2  0
 25 27  1  0
 27 28  1  0
 28 29  1  0
 29 30  1  0
 30 31  2  0
 31 32  1  0
 32 33  2  0
 33 34  1  0
 33 35  1  0
 35 36  2  0
 22 23  1  0
 23 24  2  0
  7  2  1  0
 24 19  1  0
 11  5  1  0
 36 30  1  0
 14 18  1  0
M  CHG 1   1  -1
M  CHG 1  14  -1
M  CHG 1  27  -1
M  CHG 1  34  -1
M  END
> <UniqueID>
39

> <SMILES>
[NH-]S(=O)(=O)c1ccc2c(c1)OCCN2C(=O)[N-]c1ccc(C(=O)[N-]CCc2ccc([O-])cc2)cc1

> <Energy>
65.48074859155344

> <Genealogy>
[NH-]S(=O)(=O)c1ccc2c(c1)OCCN2C(=O)[N-]c1ccc(C(=O)[N-]CCc2ccc([O-])cc2)cc1 (protonated)
[NH-]S(=O)(=O)c1ccc2c(c1)OCCN2C(=O)[N-]c1ccc(C(=O)[N-]CCc2ccc([O-])cc2)cc1 (3D coordinates assigned)
[NH-]S(=O)(=O)c1ccc2c(c1)OCCN2C(=O)[N-]c1ccc(C(=O)[N-]CCc2ccc([O-])cc2)cc1 (nonaromatic ring conformer: 65.48074859155344 kcal/mol)

> <smiles>
NS(=O)(=O)c1ccc2c(c1)OCCN2C(=O)Nc1ccc(C(=O)NCCc2ccc(O)cc2)cc1

> <score_type>
oracle

> <origin>
adg

> <m_score__min__energy>
-17.239999999999998

> <m_primary>
energy

> <minimizedAffinity>
-7.95942

> <minimizedRMSD>
1.40243

> <CNNscore>
0.3645721078

> <CNNaffinity>
6.5785217285

> <CNN_VS>
2.3983454704

> <CNNaffinity_variance>
0.4000472128

$$$$
2:0


 31 34  0  0  0  0  0  0  0  0999 V2000
   58.4128   28.0199   46.5268 C   0  0  0  0  0  0  0  0  0  0  0  0
   58.4829   29.0514   45.5768 C   0  0  0  0  0  0  0  0  0  0  0  0
   57.7617   28.9720   44.3911 O   0  0  0  0  0  0  0  0  0  0  0  0
   59.2383   30.1538   45.8208 N   0  0  0  0  0  0  0  0  0  0  0  0
   59.9482   30.3015   46.9684 C   0  0  0  0  0  0  0  0  0  0  0  0
   60.6763   31.4746   47.1894 C   0  0  0  0  0  0  0  0  0  0  0  0
   61.3882   31.6502   48.3808 C   0  0  0  0  0  0  0  0  0  0  0  0
   61.3869   30.6369   49.3476 C   0  0  0  0  0  0  0  0  0  0  0  0
   60.6704   29.4557   49.1330 C   0  0  0  0  0  0  0  0  0  0  0  0
   59.9362   29.2801   47.9458 C   0  0  0  0  0  0  0  0  0  0  0  0
   59.1675   28.1249   47.7094 C   0  0  0  0  0  0  0  0  0  0  0  0
   59.1486   27.1870   48.5534 O   0  0  0  0  0  0  0  0  0  0  0  0
   62.2260   33.1727   48.6678 S   0  0  0  0  0  0  0  0  0  0  0  0
   62.9901   33.5846   47.4396 O   0  0  0  0  0  0  0  0  0  0  0  0
   61.2079   34.2310   48.9849 O   0  0  0  0  0  0  0  0  0  0  0  0
   63.3247   32.9863   50.0135 N   0  0  0  0  0  0  0  0  0  0  0  0
   64.6981   32.7670   49.5125 C   0  0  0  0  0  0  0  0  0  0  0  0
   65.7651   32.9250   50.6172 C   0  0  0  0  0  0  0  0  0  0  0  0
   65.1429   32.8624   52.0143 C   0  0  0  0  0  0  0  0  0  0  0  0
   64.0520   33.9338   52.1798 C   0  0  0  0  0  0  0  0  0  0  0  0
   63.2618   34.1737   50.8792 C   0  0  0  0  0  0  0  0  0  0  0  0
   56.3283   27.0983   45.9125 O   0  0  0  0  0  0  0  0  0  0  0  0
   57.5039   26.8791   46.3013 C   0  0  0  0  0  0  0  0  0  0  0  0
   57.9071   25.5294   46.5749 N   0  0  0  0  0  0  0  0  0  0  0  0
   58.7710   24.7067   45.7263 C   0  0  0  0  0  0  0  0  0  0  0  0
   57.9647   23.7487   44.8877 C   0  0  0  0  0  0  0  0  0  0  0  0
   56.8595   24.2046   44.1463 C   0  0  0  0  0  0  0  0  0  0  0  0
   56.1414   23.3223   43.3359 C   0  0  0  0  0  0  0  0  0  0  0  0
   56.5083   21.9754   43.2704 C   0  0  0  0  0  0  0  0  0  0  0  0
   57.5921   21.5085   44.0193 C   0  0  0  0  0  0  0  0  0  0  0  0
   58.3180   22.3901   44.8269 C   0  0  0  0  0  0  0  0  0  0  0  0
 22 23  2  0
 23 24  1  0
 24 25  1  0
 25 26  1  0
 26 27  2  0
 27 28  1  0
 28 29  2  0
 29 30  1  0
 30 31  2  0
 23  1  1  0
  1  2  2  0
  2  3  1  0
  2  4  1  0
  4  5  1  0
  5  6  2  0
  6  7  1  0
  7 13  1  0
 13 14  2  0
 13 15  2  0
 13 16  1  0
 16 17  1  0
 17 18  1  0
 18 19  1  0
 19 20  1  0
 20 21  1  0
  7  8  2  0
  8  9  1  0
  9 10  2  0
 10 11  1  0
 11 12  2  0
 31 26  1  0
 11  1  1  0
 10  5  1  0
 21 16  1  0
M  CHG 1   3  -1
M  CHG 1   4  -1
M  CHG 1  24  -1
M  END
> <UniqueID>
3

> <SMILES>
O=C([N-]Cc1ccccc1)c1c([O-])[n-]c2cc(S(=O)(=O)N3CCCCC3)ccc2c1=O

> <Energy>
64.80579146282163

> <Genealogy>
O=C([N-]Cc1ccccc1)c1c([O-])[n-]c2cc(S(=O)(=O)N3CCCCC3)ccc2c1=O (protonated)
O=C([N-]Cc1ccccc1)c1c([O-])[n-]c2cc(S(=O)(=O)N3CCCCC3)ccc2c1=O (3D coordinates assigned)
O=C([N-]Cc1ccccc1)c1c([O-])[n-]c2cc(S(=O)(=O)N3CCCCC3)ccc2c1=O (nonaromatic ring conformer: 64.80579146282163 kcal/mol)

> <smiles>
O=C(NCc1ccccc1)c1c(O)[nH]c2cc(S(=O)(=O)N3CCCCC3)ccc2c1=O

> <score_type>
oracle

> <origin>
adg

> <m_score__min__energy>
-16.57

> <m_primary>
energy

> <minimizedAffinity>
-7.80770

> <minimizedRMSD>
1.74813

> <CNNscore>
0.3150570989

> <CNNaffinity>
6.6486096382

> <CNN_VS>
2.0946917534

> <CNNaffinity_variance>
0.1224739552

$$$$
76:0


 28 30  0  0  0  0  0  0  0  0999 V2000
   60.0688   28.4248   47.8231 C   0  0  0  0  0  0  0  0  0  0  0  0
   60.2852   28.9230   49.1163 C   0  0  0  0  0  0  0  0  0  0  0  0
   60.7779   30.2173   49.3044 C   0  0  0  0  0  0  0  0  0  0  0  0
   61.0498   31.0365   48.2003 C   0  0  0  0  0  0  0  0  0  0  0  0
   60.8059   30.5549   46.9074 C   0  0  0  0  0  0  0  0  0  0  0  0
   60.3149   29.2596   46.7179 C   0  0  0  0  0  0  0  0  0  0  0  0
   57.7046   27.6596   46.3164 O   0  0  0  0  0  0  0  0  0  0  0  0
   58.2633   26.8112   47.0602 C   0  0  0  0  0  0  0  0  0  0  0  0
   59.5383   27.0985   47.6575 N   0  0  0  0  0  0  0  0  0  0  0  0
   60.0821   26.3407   47.9728 H   0  0  0  0  0  0  0  0  0  0  0  0
   57.6561   25.5251   47.2191 N   0  0  0  0  0  0  0  0  0  0  0  0
   57.2631   24.6528   46.1490 C   0  0  0  0  0  0  0  0  0  0  0  0
   58.2240   23.7992   45.5913 C   0  0  0  0  0  0  0  0  0  0  0  0
   57.8834   22.9388   44.5440 C   0  0  0  0  0  0  0  0  0  0  0  0
   56.5839   22.9395   44.0331 C   0  0  0  0  0  0  0  0  0  0  0  0
   55.6264   23.8108   44.5597 C   0  0  0  0  0  0  0  0  0  0  0  0
   55.9624   24.6789   45.6039 C   0  0  0  0  0  0  0  0  0  0  0  0
   55.0094   25.5784   46.0694 O   0  0  0  0  0  0  0  0  0  0  0  0
   61.6502   32.6734   48.4374 S   0  0  0  0  0  0  0  0  0  0  0  0
   62.6724   32.9908   47.3831 O   0  0  0  0  0  0  0  0  0  0  0  0
   62.2900   32.7808   49.7943 O   0  0  0  0  0  0  0  0  0  0  0  0
   60.3205   33.7812   48.3230 N   0  0  0  0  0  0  0  0  0  0  0  0
   59.5052   33.8273   47.3144 C   0  0  0  0  0  0  0  0  0  0  0  0
   58.3929   33.0416   47.2731 N   0  0  0  0  0  0  0  0  0  0  0  0
   57.5405   33.0887   46.2177 C   0  0  0  0  0  0  0  0  0  0  0  0
   57.7972   33.9527   45.1553 C   0  0  0  0  0  0  0  0  0  0  0  0
   58.9391   34.7510   45.2103 C   0  0  0  0  0  0  0  0  0  0  0  0
   59.7677   34.6737   46.2830 N   0  0  0  0  0  0  0  0  0  0  0  0
  7  8  2  0
  8 11  1  0
 11 12  1  0
 12 13  2  0
 13 14  1  0
 14 15  2  0
 15 16  1  0
 16 17  2  0
 17 18  1  0
  8  9  1  0
  9  1  1  0
  1  2  2  0
  2  3  1  0
  3  4  2  0
  4 19  1  0
 19 20  2  0
 19 21  2  0
 19 22  1  0
 22 23  2  0
 23 24  1  0
 24 25  2  0
 25 26  1  0
 26 27  2  0
 27 28  1  0
  4  5  1  0
  5  6  2  0
 17 12  1  0
  6  1  1  0
 28 23  1  0
  9 10  1  0
M  CHG 1  11  -1
M  CHG 1  18  -1
M  CHG 1  28  -1
M  END
> <UniqueID>
67

> <SMILES>
O=C([N-]c1ccccc1[O-])Nc1ccc(S(=O)(=O)N=c2nccc[n-]2)cc1

> <Energy>
55.50877437480593

> <Genealogy>
O=C([N-]c1ccccc1[O-])Nc1ccc(S(=O)(=O)N=c2nccc[n-]2)cc1 (protonated)
O=C([N-]c1ccccc1[O-])Nc1ccc(S(=O)(=O)N=c2nccc[n-]2)cc1 (3D coordinates assigned)
O=C([N-]c1ccccc1[O-])Nc1ccc(S(=O)(=O)N=c2nccc[n-]2)cc1 (optimized conformer: 55.50877437480593 kcal/mol)

> <smiles>
O=C(Nc1ccc(S(=O)(=O)N=c2nccc[nH]2)cc1)Nc1ccccc1O

> <score_type>
oracle

> <origin>
adg

> <m_score__min__energy>
-14.77

> <m_primary>
energy

> <minimizedAffinity>
-8.52242

> <minimizedRMSD>
0.89513

> <CNNscore>
0.2483602613

> <CNNaffinity>
5.9769096375

> <CNN_VS>
1.4844268560

> <CNNaffinity_variance>
0.0332016274

$$$$
91:0


 32 35  0  0  0  0  0  0  0  0999 V2000
   57.9067   27.4762   43.5058 C   0  0  0  0  0  0  0  0  0  0  0  0
   58.0635   28.8091   44.1828 C   0  0  0  0  0  0  0  0  0  0  0  0
   57.3024   29.9074   43.7529 C   0  0  0  0  0  0  0  0  0  0  0  0
   57.4430   31.1514   44.3704 C   0  0  0  0  0  0  0  0  0  0  0  0
   58.3390   31.3132   45.4345 C   0  0  0  0  0  0  0  0  0  0  0  0
   59.0952   30.2201   45.8745 C   0  0  0  0  0  0  0  0  0  0  0  0
   58.9870   28.9720   45.2354 C   0  0  0  0  0  0  0  0  0  0  0  0
   58.5192   32.8883   46.2146 S   0  0  0  0  0  0  0  0  0  0  0  0
   57.1793   33.3474   46.7191 O   0  0  0  0  0  0  0  0  0  0  0  0
   59.0038   33.8913   45.2036 O   0  0  0  0  0  0  0  0  0  0  0  0
   59.6498   32.8186   47.5480 N   0  0  0  0  0  0  0  0  0  0  0  0
   60.8364   32.0257   47.1759 C   0  0  0  0  0  0  0  0  0  0  0  0
   61.5700   31.5263   48.4304 C   0  0  0  0  0  0  0  0  0  0  0  0
   60.7785   30.6934   49.2718 O   0  0  0  0  0  0  0  0  0  0  0  0
   59.3790   30.8887   49.1205 C   0  0  0  0  0  0  0  0  0  0  0  0
   59.0017   32.3453   48.7907 C   0  0  0  0  0  0  0  0  0  0  0  0
   59.7614   27.8445   45.6735 N   0  0  0  0  0  0  0  0  0  0  0  0
   59.5524   27.0866   46.8719 C   0  0  0  0  0  0  0  0  0  0  0  0
   60.5263   26.7521   47.6009 O   0  0  0  0  0  0  0  0  0  0  0  0
   58.1747   26.6208   47.2180 C   0  0  0  0  0  0  0  0  0  0  0  0
   57.7871   25.5116   46.3461 N   0  0  0  0  0  0  0  0  0  0  0  0
   56.5310   25.1983   45.9552 C   0  0  0  0  0  0  0  0  0  0  0  0
   55.4014   25.9454   46.2732 O   0  0  0  0  0  0  0  0  0  0  0  0
   56.5329   24.0340   45.2160 C   0  0  0  0  0  0  0  0  0  0  0  0
   57.8450   23.6278   45.1273 C   0  0  0  0  0  0  0  0  0  0  0  0
   58.5880   24.5352   45.8566 C   0  0  0  0  0  0  0  0  0  0  0  0
   59.9600   24.4426   46.0800 O   0  0  0  0  0  0  0  0  0  0  0  0
   58.2825   22.3462   44.4873 C   0  0  0  0  0  0  0  0  0  0  0  0
   57.1904   21.8273   43.5298 C   0  0  0  0  0  0  0  0  0  0  0  0
   55.7874   21.8936   44.1722 C   0  0  0  0  0  0  0  0  0  0  0  0
   55.3924   23.3392   44.5371 C   0  0  0  0  0  0  0  0  0  0  0  0
   60.4488   23.7357   45.7067 H   0  0  0  0  0  0  0  0  0  0  0  0
  1  2  1  0
  2  3  2  0
  3  4  1  0
  4  5  2  0
  5  8  1  0
  8  9  2  0
  8 10  2  0
  8 11  1  0
 11 12  1  0
 12 13  1  0
 13 14  1  0
 14 15  1  0
 15 16  1  0
  5  6  1  0
  6  7  2  0
  7 17  1  0
 17 18  1  0
 18 19  2  0
 18 20  1  0
 20 21  1  0
 21 22  1  0
 22 23  1  0
 22 24  2  0
 24 25  1  0
 25 26  2  0
 26 27  1  0
 25 28  1  0
 28 29  1  0
 29 30  1  0
 30 31  1  0
  7  2  1  0
 26 21  1  0
 16 11  1  0
 31 24  1  0
 27 32  1  0
M  CHG 1  17  -1
M  CHG 1  23  -1
M  END
> <UniqueID>
80

> <SMILES>
Cc1ccc(S(=O)(=O)N2CCOCC2)cc1[N-]C(=O)Cn1c([O-])c2c(c1O)CCCC2

> <Energy>
98.47711444646451

> <Genealogy>
Cc1ccc(S(=O)(=O)N2CCOCC2)cc1[N-]C(=O)Cn1c([O-])c2c(c1O)CCCC2 (protonated)
Cc1ccc(S(=O)(=O)N2CCOCC2)cc1[N-]C(=O)Cn1c([O-])c2c(c1O)CCCC2 (3D coordinates assigned)
Cc1ccc(S(=O)(=O)N2CCOCC2)cc1[N-]C(=O)Cn1c([O-])c2c(c1O)CCCC2 (nonaromatic ring conformer: 98.47711444646451 kcal/mol)

> <smiles>
Cc1ccc(S(=O)(=O)N2CCOCC2)cc1NC(=O)Cn1c(O)c2c(c1O)CCCC2

> <score_type>
oracle

> <origin>
adg

> <m_score__min__energy>
-14.6

> <m_primary>
energy

> <minimizedAffinity>
-7.91751

> <minimizedRMSD>
1.38685

> <CNNscore>
0.1522085369

> <CNNaffinity>
6.4260368347

> <CNN_VS>
0.9780976772

> <CNNaffinity_variance>
0.0302119758

$$$$
24:0


 30 34  0  0  0  0  0  0  0  0999 V2000
   58.3084   26.7971   44.8985 C   0  0  0  0  0  0  0  0  0  0  0  0
   57.9480   28.0845   44.9981 C   0  0  0  0  0  0  0  0  0  0  0  0
   56.8933   28.6951   44.3203 C   0  0  0  0  0  0  0  0  0  0  0  0
   56.8412   30.0127   44.6312 N   0  0  0  0  0  0  0  0  0  0  0  0
   57.8317   30.2442   45.4769 N   0  0  0  0  0  0  0  0  0  0  0  0
   58.1963   31.4297   46.0229 C   0  0  0  0  0  0  0  0  0  0  0  0
   57.5139   32.5090   45.7451 N   0  0  0  0  0  0  0  0  0  0  0  0
   59.2934   31.4423   46.8318 N   0  0  0  0  0  0  0  0  0  0  0  0
   60.0130   30.2981   47.0634 C   0  0  0  0  0  0  0  0  0  0  0  0
   61.0956   30.3189   47.7822 N   0  0  0  0  0  0  0  0  0  0  0  0
   59.6276   29.1258   46.4843 N   0  0  0  0  0  0  0  0  0  0  0  0
   58.5142   29.1216   45.7141 C   0  0  0  0  0  0  0  0  0  0  0  0
   55.4278   26.6361   45.9937 O   0  0  0  0  0  0  0  0  0  0  0  0
   56.3880   25.6372   46.1165 C   0  0  0  0  0  0  0  0  0  0  0  0
   56.1541   24.4403   46.6796 N   0  0  0  0  0  0  0  0  0  0  0  0
   57.3315   23.8019   46.5166 C   0  0  0  0  0  0  0  0  0  0  0  0
   57.5240   22.6232   46.9135 O   0  0  0  0  0  0  0  0  0  0  0  0
   58.2851   24.5212   45.8849 N   0  0  0  0  0  0  0  0  0  0  0  0
   57.6833   25.7008   45.6560 C   0  0  0  0  0  0  0  0  0  0  0  0
   54.5671   26.5036   46.3397 H   0  0  0  0  0  0  0  0  0  0  0  0
   61.7145   31.4938   48.3322 C   0  0  0  0  0  0  0  0  0  0  0  0
   62.7755   32.1336   47.6700 C   0  0  0  0  0  0  0  0  0  0  0  0
   63.3529   33.2847   48.2138 C   0  0  0  0  0  0  0  0  0  0  0  0
   62.8583   33.8178   49.4082 C   0  0  0  0  0  0  0  0  0  0  0  0
   61.7786   33.2074   50.0514 C   0  0  0  0  0  0  0  0  0  0  0  0
   61.1997   32.0537   49.5103 C   0  0  0  0  0  0  0  0  0  0  0  0
   60.1510   31.4695   50.1438 F   0  0  0  0  0  0  0  0  0  0  0  0
   57.8626   33.9431   45.7362 C   0  0  0  0  0  0  0  0  0  0  0  0
   59.1556   34.3672   45.0577 C   0  0  0  0  0  0  0  0  0  0  0  0
   59.0589   34.3388   46.5821 C   0  0  0  0  0  0  0  0  0  0  0  0
 13 14  1  0
 14 15  1  0
 15 16  1  0
 16 17  2  0
 16 18  1  0
 18 19  1  0
 19  1  1  0
  1  2  2  0
  2  3  1  0
  3  4  2  0
  4  5  1  0
  5  6  1  0
  6  7  2  0
  7 28  1  0
 28 29  1  0
 29 30  1  0
  6  8  1  0
  8  9  1  0
  9 10  2  0
 10 21  1  0
 21 22  2  0
 22 23  1  0
 23 24  2  0
 24 25  1  0
 25 26  2  0
 26 27  1  0
  9 11  1  0
 11 12  2  0
 19 14  2  0
 12  2  1  0
 12  5  1  0
 30 28  1  0
 26 21  1  0
 13 20  1  0
M  CHG 1   8  -1
M  CHG 1  15  -1
M  CHG 1  18  -1
M  END
> <UniqueID>
22

> <SMILES>
O=c1[n-]c(O)c(/C=c2/cnn3c(=NC4CC4)[n-]/c(=N\c4ccccc4F)nc23)[n-]1

> <Energy>
400.9307891783931

> <Genealogy>
O=c1[n-]c(O)c(C=c2cnn3c(=NC4CC4)[n-]c(=Nc4ccccc4F)nc23)[n-]1 (protonated)
O=c1[n-]c(O)c(/C=c2/cnn3c(=NC4CC4)[n-]/c(=N\c4ccccc4F)nc23)[n-]1 (cis-trans isomerization)
O=c1[n-]c(O)c(/C=c2/cnn3c(=NC4CC4)[n-]/c(=N\c4ccccc4F)nc23)[n-]1 (3D coordinates assigned)
O=c1[n-]c(O)c(/C=c2/cnn3c(=NC4CC4)[n-]/c(=N\c4ccccc4F)nc23)[n-]1 (nonaromatic ring conformer: 400.9307891783931 kcal/mol)

> <smiles>
O=c1[nH]c(O)c(C=c2cnn3c(=NC4CC4)[nH]c(=Nc4ccccc4F)nc23)[nH]1

> <score_type>
oracle

> <origin>
adg

> <m_score__min__energy>
-14.82

> <m_primary>
energy

> <minimizedAffinity>
-10.65030

> <minimizedRMSD>
0.59291

> <CNNscore>
0.7087834477

> <CNNaffinity>
7.0987372398

> <CNN_VS>
5.0314674377

> <CNNaffinity_variance>
0.0779023394

$$$$
50:0


 27 28  0  0  0  0  0  0  0  0999 V2000
   59.0229   32.6155   46.8367 S   0  0  0  0  0  0  0  0  0  0  0  0
   58.7462   33.8308   45.9993 O   0  0  0  0  0  0  0  0  0  0  0  0
   58.0272   32.5650   47.9607 O   0  0  0  0  0  0  0  0  0  0  0  0
   63.2602   32.5927   48.5579 C   0  0  0  0  0  0  0  0  0  0  0  0
   62.9778   33.3203   47.3892 C   0  0  0  0  0  0  0  0  0  0  0  0
   61.6797   33.3539   46.8720 C   0  0  0  0  0  0  0  0  0  0  0  0
   60.6444   32.6662   47.5214 C   0  0  0  0  0  0  0  0  0  0  0  0
   60.9134   31.9710   48.7063 C   0  0  0  0  0  0  0  0  0  0  0  0
   62.2077   31.9443   49.2310 C   0  0  0  0  0  0  0  0  0  0  0  0
   66.4374   33.0403   50.7644 C   0  0  0  0  0  0  0  0  0  0  0  0
   65.0157   33.1444   50.3142 C   0  0  0  0  0  0  0  0  0  0  0  0
   64.1780   33.7034   51.0702 O   0  0  0  0  0  0  0  0  0  0  0  0
   64.6082   32.5646   49.0610 N   0  0  0  0  0  0  0  0  0  0  0  0
   65.2954   32.1206   48.5134 H   0  0  0  0  0  0  0  0  0  0  0  0
   58.8612   31.1861   45.8676 N   0  0  0  0  0  0  0  0  0  0  0  0
   58.8981   29.8402   46.3701 C   0  0  0  0  0  0  0  0  0  0  0  0
   59.7397   29.4973   47.4406 C   0  0  0  0  0  0  0  0  0  0  0  0
   59.7381   28.2076   47.9594 C   0  0  0  0  0  0  0  0  0  0  0  0
   58.9094   27.2345   47.4091 C   0  0  0  0  0  0  0  0  0  0  0  0
   58.0713   27.5332   46.3224 C   0  0  0  0  0  0  0  0  0  0  0  0
   58.0509   28.8558   45.8036 C   0  0  0  0  0  0  0  0  0  0  0  0
   57.2721   26.4281   45.7385 C   0  0  0  0  0  0  0  0  0  0  0  0
   57.7127   25.7575   44.7678 O   0  0  0  0  0  0  0  0  0  0  0  0
   56.0390   26.0919   46.2883 O   0  0  0  0  0  0  0  0  0  0  0  0
   57.0876   29.2548   44.7528 C   0  0  0  0  0  0  0  0  0  0  0  0
   55.9430   29.6774   45.0672 O   0  0  0  0  0  0  0  0  0  0  0  0
   57.4483   29.2064   43.4114 O   0  0  0  0  0  0  0  0  0  0  0  0
 10 11  1  0
 11 12  2  0
 11 13  1  0
 13  4  1  0
  4  5  2  0
  5  6  1  0
  6  7  2  0
  7  1  1  0
  1  2  2  0
  1  3  2  0
  1 15  1  0
 15 16  1  0
 16 17  2  0
 17 18  1  0
 18 19  2  0
 19 20  1  0
 20 22  1  0
 22 23  2  0
 22 24  1  0
 20 21  2  0
 21 25  1  0
 25 26  2  0
 25 27  1  0
  7  8  1  0
  8  9  2  0
  9  4  1  0
 21 16  1  0
 13 14  1  0
M  CHG 1  15  -1
M  CHG 1  24  -1
M  CHG 1  27  -1
M  END
> <UniqueID>
45

> <SMILES>
CC(=O)Nc1ccc(S(=O)(=O)[N-]c2cccc(C(=O)[O-])c2C(=O)[O-])cc1

> <Energy>
54.48107538648537

> <Genealogy>
CC(=O)Nc1ccc(S(=O)(=O)[N-]c2cccc(C(=O)[O-])c2C(=O)[O-])cc1 (protonated)
CC(=O)Nc1ccc(S(=O)(=O)[N-]c2cccc(C(=O)[O-])c2C(=O)[O-])cc1 (3D coordinates assigned)
CC(=O)Nc1ccc(S(=O)(=O)[N-]c2cccc(C(=O)[O-])c2C(=O)[O-])cc1 (optimized conformer: 54.48107538648537 kcal/mol)

> <smiles>
CC(=O)Nc1ccc(S(=O)(=O)Nc2cccc(C(=O)O)c2C(=O)O)cc1

> <score_type>
oracle

> <origin>
adg

> <m_score__min__energy>
-14.199999999999999

> <m_primary>
energy

> <minimizedAffinity>
-7.70949

> <minimizedRMSD>
0.82014

> <CNNscore>
0.8764666915

> <CNNaffinity>
6.5430550575

> <CNN_VS>
5.7347698212

> <CNNaffinity_variance>
0.2293773741

$$$$
58:0


 28 29  0  0  0  0  0  0  0  0999 V2000
   58.8644   28.9250   46.9000 S   0  0  0  0  0  0  0  0  0  0  0  0
   58.7206   28.7851   48.3880 O   0  0  0  0  0  0  0  0  0  0  0  0
   60.2979   28.6920   46.5112 O   0  0  0  0  0  0  0  0  0  0  0  0
   57.8274   27.7563   46.1057 C   0  0  0  0  0  0  0  0  0  0  0  0
   57.2071   28.0856   45.0635 O   0  0  0  0  0  0  0  0  0  0  0  0
   57.6555   26.4625   46.6986 N   0  0  0  0  0  0  0  0  0  0  0  0
   56.8224   24.2959   45.8450 C   0  0  0  0  0  0  0  0  0  0  0  0
   57.0918   23.0284   45.2892 C   0  0  0  0  0  0  0  0  0  0  0  0
   58.4008   22.6393   44.9997 C   0  0  0  0  0  0  0  0  0  0  0  0
   59.4622   23.4944   45.2760 C   0  0  0  0  0  0  0  0  0  0  0  0
   59.2221   24.7501   45.8333 C   0  0  0  0  0  0  0  0  0  0  0  0
   57.9067   25.1782   46.1014 C   0  0  0  0  0  0  0  0  0  0  0  0
   54.9500   25.9986   45.8957 N   0  0  0  0  0  0  0  0  0  0  0  0
   55.4100   24.6686   46.1363 C   0  0  0  0  0  0  0  0  0  0  0  0
   54.6028   23.8266   46.6094 O   0  0  0  0  0  0  0  0  0  0  0  0
   54.0153   26.2390   46.0902 H   0  0  0  0  0  0  0  0  0  0  0  0
   58.3983   30.5236   46.4235 N   0  0  0  0  0  0  0  0  0  0  0  0
   58.7578   31.6806   47.1824 C   0  0  0  0  0  0  0  0  0  0  0  0
   58.7714   31.6352   48.4424 O   0  0  0  0  0  0  0  0  0  0  0  0
   59.1192   32.8864   46.5015 N   0  0  0  0  0  0  0  0  0  0  0  0
   59.0403   32.9284   45.5210 H   0  0  0  0  0  0  0  0  0  0  0  0
   59.6024   34.0559   47.2305 C   0  0  0  0  0  0  0  0  0  0  0  0
   61.0125   33.8366   47.7073 C   0  0  0  0  0  0  0  0  0  0  0  0
   61.3273   33.9585   49.0716 C   0  0  0  0  0  0  0  0  0  0  0  0
   62.6328   33.7305   49.5173 C   0  0  0  0  0  0  0  0  0  0  0  0
   63.6294   33.3675   48.6075 C   0  0  0  0  0  0  0  0  0  0  0  0
   63.3208   33.2247   47.2517 C   0  0  0  0  0  0  0  0  0  0  0  0
   62.0153   33.4520   46.8014 C   0  0  0  0  0  0  0  0  0  0  0  0
 13 14  1  0
 14 15  2  0
 14  7  1  0
  7  8  2  0
  8  9  1  0
  9 10  2  0
 10 11  1  0
 11 12  2  0
 12  6  1  0
  6  4  1  0
  4  5  2  0
  4  1  1  0
  1  2  2  0
  1  3  2  0
  1 17  1  0
 17 18  1  0
 18 19  2  0
 18 20  1  0
 20 22  1  0
 22 23  1  0
 23 24  2  0
 24 25  1  0
 25 26  2  0
 26 27  1  0
 27 28  2  0
 12  7  1  0
 28 23  1  0
 13 16  1  0
 20 21  1  0
M  CHG 1   6  -1
M  CHG 1  13  -1
M  CHG 1  17  -1
M  END
> <UniqueID>
52

> <SMILES>
[NH-]C(=O)c1ccccc1[N-]C(=O)S(=O)(=O)[N-]C(=O)NCc1ccccc1

> <Energy>
43.96112277631369

> <Genealogy>
[NH-]C(=O)c1ccccc1[N-]C(=O)S(=O)(=O)[N-]C(=O)NCc1ccccc1 (protonated)
[NH-]C(=O)c1ccccc1[N-]C(=O)S(=O)(=O)[N-]C(=O)NCc1ccccc1 (3D coordinates assigned)
[NH-]C(=O)c1ccccc1[N-]C(=O)S(=O)(=O)[N-]C(=O)NCc1ccccc1 (optimized conformer: 43.96112277631369 kcal/mol)

> <smiles>
NC(=O)c1ccccc1NC(=O)S(=O)(=O)NC(=O)NCc1ccccc1

> <score_type>
oracle

> <origin>
adg

> <m_score__min__energy>
-14.91

> <m_primary>
energy

> <minimizedAffinity>
-7.28025

> <minimizedRMSD>
2.75973

> <CNNscore>
0.5298520327

> <CNNaffinity>
6.4072227478

> <CNN_VS>
3.3948800564

> <CNNaffinity_variance>
0.7293251157

$$$$
69:0


 24 26  0  0  0  0  0  0  0  0999 V2000
   60.3616   26.5947   46.7745 C   0  0  0  0  0  0  0  0  0  0  0  0
   58.1660   29.9210   45.1176 C   0  0  0  0  0  0  0  0  0  0  0  0
   58.2048   28.6942   44.4405 C   0  0  0  0  0  0  0  0  0  0  0  0
   58.9239   27.6190   44.9718 C   0  0  0  0  0  0  0  0  0  0  0  0
   59.6163   27.7609   46.1841 C   0  0  0  0  0  0  0  0  0  0  0  0
   59.5580   28.9844   46.8719 C   0  0  0  0  0  0  0  0  0  0  0  0
   58.8388   30.0588   46.3394 C   0  0  0  0  0  0  0  0  0  0  0  0
   55.6327   30.7576   44.1175 N   0  0  0  0  0  0  0  0  0  0  0  0
   57.2466   31.2704   44.4586 S   0  0  0  0  0  0  0  0  0  0  0  0
   57.8941   31.7583   43.1919 O   0  0  0  0  0  0  0  0  0  0  0  0
   57.2166   32.3984   45.4498 O   0  0  0  0  0  0  0  0  0  0  0  0
   55.1008   31.5398   43.7359 H   0  0  0  0  0  0  0  0  0  0  0  0
   59.4258   25.7394   47.6372 C   0  0  0  0  0  0  0  0  0  0  0  0
   58.0449   25.8611   47.1764 N   0  0  0  0  0  0  0  0  0  0  0  0
   57.2405   24.8632   46.9641 C   0  0  0  0  0  0  0  0  0  0  0  0
   56.4724   24.8514   45.8261 N   0  0  0  0  0  0  0  0  0  0  0  0
   55.6106   23.8271   45.5585 C   0  0  0  0  0  0  0  0  0  0  0  0
   54.9136   23.8291   44.5107 O   0  0  0  0  0  0  0  0  0  0  0  0
   55.5321   22.7909   46.4783 C   0  0  0  0  0  0  0  0  0  0  0  0
   54.7777   21.6838   46.4544 N   0  0  0  0  0  0  0  0  0  0  0  0
   55.1360   21.0660   47.6133 C   0  0  0  0  0  0  0  0  0  0  0  0
   56.0692   21.7325   48.3467 N   0  0  0  0  0  0  0  0  0  0  0  0
   56.2905   22.8167   47.5930 C   0  0  0  0  0  0  0  0  0  0  0  0
   57.1473   23.8306   47.8641 N   0  0  0  0  0  0  0  0  0  0  0  0
  8  9  1  0
  9 10  2  0
  9 11  2  0
  9  2  1  0
  2  3  2  0
  3  4  1  0
  4  5  2  0
  5  1  1  0
  1 13  1  0
 13 14  1  0
 14 15  2  0
 15 16  1  0
 16 17  1  0
 17 18  2  0
 17 19  1  0
 19 20  1  0
 20 21  2  0
 21 22  1  0
 22 23  1  0
 23 24  1  0
  5  6  1  0
  6  7  2  0
  7  2  1  0
 24 15  1  0
 23 19  2  0
  8 12  1  0
M  CHG 1   8  -1
M  CHG 1  16  -1
M  CHG 1  22  -1
M  CHG 1  24  -1
M  END
> <UniqueID>
64

> <SMILES>
[NH-]S(=O)(=O)c1ccc(CC/N=c2/[n-]c(=O)c3nc[n-]c3[n-]2)cc1

> <Energy>
70.94954368873066

> <Genealogy>
[NH-]S(=O)(=O)c1ccc(CCN=c2[n-]c(=O)c3nc[n-]c3[n-]2)cc1 (protonated)
[NH-]S(=O)(=O)c1ccc(CC/N=c2/[n-]c(=O)c3nc[n-]c3[n-]2)cc1 (cis-trans isomerization)
[NH-]S(=O)(=O)c1ccc(CC/N=c2/[n-]c(=O)c3nc[n-]c3[n-]2)cc1 (3D coordinates assigned)
[NH-]S(=O)(=O)c1ccc(CC/N=c2/[n-]c(=O)c3nc[n-]c3[n-]2)cc1 (optimized conformer: 70.94954368873066 kcal/mol)

> <smiles>
NS(=O)(=O)c1ccc(CCN=c2[nH]c(=O)c3nc[nH]c3[nH]2)cc1

> <score_type>
oracle

> <origin>
adg

> <m_score__min__energy>
-15.42

> <m_primary>
energy

> <minimizedAffinity>
-5.68269

> <minimizedRMSD>
1.47355

> <CNNscore>
0.1317507625

> <CNNaffinity>
5.5774960518

> <CNN_VS>
0.7348393798

> <CNNaffinity_variance>
0.0382296480

$$$$
31:0


 31 34  0  0  0  0  0  0  0  0999 V2000
   60.3954   29.6920   51.9333 O   0  0  0  0  0  0  0  0  0  0  0  0
   59.0486   29.7282   52.3312 C   0  0  0  0  0  0  0  0  0  0  0  0
   58.5335   28.9013   53.3465 C   0  0  0  0  0  0  0  0  0  0  0  0
   57.1874   28.9904   53.7133 C   0  0  0  0  0  0  0  0  0  0  0  0
   56.3277   29.8965   53.0682 C   0  0  0  0  0  0  0  0  0  0  0  0
   56.8459   30.7121   52.0480 C   0  0  0  0  0  0  0  0  0  0  0  0
   58.1925   30.6269   51.6866 C   0  0  0  0  0  0  0  0  0  0  0  0
   54.8998   29.9918   53.4607 C   0  0  0  0  0  0  0  0  0  0  0  0
   54.5012   29.7720   54.8116 C   0  0  0  0  0  0  0  0  0  0  0  0
   53.1864   29.8561   55.1780 N   0  0  0  0  0  0  0  0  0  0  0  0
   52.2678   30.1504   54.2270 C   0  0  0  0  0  0  0  0  0  0  0  0
   50.9086   30.2915   54.3138 C   0  0  0  0  0  0  0  0  0  0  0  0
   50.4548   30.5876   53.0715 N   0  0  0  0  0  0  0  0  0  0  0  0
   51.4820   30.6367   52.2220 N   0  0  0  0  0  0  0  0  0  0  0  0
   52.5912   30.3710   52.9318 C   0  0  0  0  0  0  0  0  0  0  0  0
   53.9082   30.3019   52.4974 C   0  0  0  0  0  0  0  0  0  0  0  0
   61.0822   28.5353   51.4538 C   0  0  0  0  0  0  0  0  0  0  0  0
   60.7946   28.3165   50.0027 C   0  0  0  0  0  0  0  0  0  0  0  0
   60.7757   27.1440   49.5407 O   0  0  0  0  0  0  0  0  0  0  0  0
   60.6034   29.4456   49.1424 N   0  0  0  0  0  0  0  0  0  0  0  0
   58.1522   29.6480   45.6804 C   0  0  0  0  0  0  0  0  0  0  0  0
   58.1917   28.4663   46.4327 C   0  0  0  0  0  0  0  0  0  0  0  0
   58.9998   28.3827   47.5712 C   0  0  0  0  0  0  0  0  0  0  0  0
   59.7850   29.4816   47.9645 C   0  0  0  0  0  0  0  0  0  0  0  0
   59.7179   30.6693   47.2279 C   0  0  0  0  0  0  0  0  0  0  0  0
   58.9108   30.7527   46.0894 C   0  0  0  0  0  0  0  0  0  0  0  0
   55.4675   29.6498   44.7288 N   0  0  0  0  0  0  0  0  0  0  0  0
   57.1250   29.7601   44.2561 S   0  0  0  0  0  0  0  0  0  0  0  0
   57.4489   28.6446   43.3007 O   0  0  0  0  0  0  0  0  0  0  0  0
   57.3611   31.0718   43.5634 O   0  0  0  0  0  0  0  0  0  0  0  0
   54.8732   29.7149   43.9024 H   0  0  0  0  0  0  0  0  0  0  0  0
 27 28  1  0
 28 29  2  0
 28 30  2  0
 28 21  1  0
 21 22  2  0
 22 23  1  0
 23 24  2  0
 24 20  1  0
 20 18  1  0
 18 19  2  0
 18 17  1  0
 17  1  1  0
  1  2  1  0
  2  3  2  0
  3  4  1  0
  4  5  2  0
  5  8  1  0
  8  9  1  0
  9 10  2  0
 10 11  1  0
 11 12  2  0
 12 13  1  0
 13 14  1  0
 14 15  2  0
 15 16  1  0
  5  6  1  0
  6  7  2  0
 24 25  1  0
 25 26  2  0
 26 21  1  0
  7  2  1  0
 16  8  2  0
 15 11  1  0
 27 31  1  0
M  CHG 1  13  -1
M  CHG 1  20  -1
M  CHG 1  27  -1
M  END
> <UniqueID>
26

> <SMILES>
[NH-]S(=O)(=O)c1ccc([N-]C(=O)COc2ccc(-c3cnc4c[n-]nc4c3)cc2)cc1

> <Energy>
96.74375580737905

> <Genealogy>
[NH-]S(=O)(=O)c1ccc([N-]C(=O)COc2ccc(-c3cnc4c[n-]nc4c3)cc2)cc1 (protonated)
[NH-]S(=O)(=O)c1ccc([N-]C(=O)COc2ccc(-c3cnc4c[n-]nc4c3)cc2)cc1 (3D coordinates assigned)
[NH-]S(=O)(=O)c1ccc([N-]C(=O)COc2ccc(-c3cnc4c[n-]nc4c3)cc2)cc1 (optimized conformer: 96.74375580737905 kcal/mol)

> <smiles>
NS(=O)(=O)c1ccc(NC(=O)COc2ccc(-c3cnc4c[nH]nc4c3)cc2)cc1

> <score_type>
oracle

> <origin>
adg

> <m_score__min__energy>
-14.49

> <m_primary>
energy

> <minimizedAffinity>
-7.16158

> <minimizedRMSD>
1.07610

> <CNNscore>
0.3668857217

> <CNNaffinity>
5.5252723694

> <CNN_VS>
2.0271434784

> <CNNaffinity_variance>
1.0015859604

$$$$
57:0


 44 49  0  0  0  0  0  0  0  0999 V2000
   60.1788   28.7449   48.4860 C   0  0  0  0  0  0  0  0  0  0  0  0
   60.3905   27.4098   48.8105 C   0  0  0  0  0  0  0  0  0  0  0  0
   61.1669   26.9675   49.8790 O   0  0  0  0  0  0  0  0  0  0  0  0
   59.7260   26.5711   47.9834 N   0  0  0  0  0  0  0  0  0  0  0  0
   59.1121   27.3927   47.1101 C   0  0  0  0  0  0  0  0  0  0  0  0
   58.2839   27.0044   46.0623 C   0  0  0  0  0  0  0  0  0  0  0  0
   57.6914   28.0099   45.2799 C   0  0  0  0  0  0  0  0  0  0  0  0
   57.9647   29.3761   45.5238 C   0  0  0  0  0  0  0  0  0  0  0  0
   58.8322   29.7397   46.5773 C   0  0  0  0  0  0  0  0  0  0  0  0
   59.3608   28.7182   47.3725 C   0  0  0  0  0  0  0  0  0  0  0  0
   58.7847   32.9163   52.1243 C   0  0  0  0  0  0  0  0  0  0  0  0
   59.4062   31.8255   51.6742 C   0  0  0  0  0  0  0  0  0  0  0  0
   59.8274   31.6813   50.4016 N   0  0  0  0  0  0  0  0  0  0  0  0
   60.3690   30.4468   50.2971 C   0  0  0  0  0  0  0  0  0  0  0  0
   60.8088   29.8981   49.1529 C   0  0  0  0  0  0  0  0  0  0  0  0
   60.3123   29.7985   51.5274 C   0  0  0  0  0  0  0  0  0  0  0  0
   60.6032   28.3504   51.7877 C   0  0  0  0  0  0  0  0  0  0  0  0
   59.6904   30.6812   52.4023 C   0  0  0  0  0  0  0  0  0  0  0  0
   59.7544   32.3500   49.6828 H   0  0  0  0  0  0  0  0  0  0  0  0
   59.2495   30.3796   53.7767 C   0  0  0  0  0  0  0  0  0  0  0  0
   60.0196   30.6268   54.7437 O   0  0  0  0  0  0  0  0  0  0  0  0
   57.9449   29.8466   54.0213 N   0  0  0  0  0  0  0  0  0  0  0  0
   57.0265   30.5174   54.9337 C   0  0  0  0  0  0  0  0  0  0  0  0
   55.6175   30.4484   54.3337 C   0  0  0  0  0  0  0  0  0  0  0  0
   55.1474   29.1343   54.0521 O   0  0  0  0  0  0  0  0  0  0  0  0
   56.1663   28.1505   53.9087 C   0  0  0  0  0  0  0  0  0  0  0  0
   57.4713   28.6771   53.2795 C   0  0  0  0  0  0  0  0  0  0  0  0
   57.0881   30.6151   44.6268 S   0  0  0  0  0  0  0  0  0  0  0  0
   57.7697   30.7787   43.2961 O   0  0  0  0  0  0  0  0  0  0  0  0
   55.6698   30.1881   44.3672 O   0  0  0  0  0  0  0  0  0  0  0  0
   57.1261   32.1595   45.4459 N   0  0  0  0  0  0  0  0  0  0  0  0
   58.4148   32.7199   45.9012 C   0  0  0  0  0  0  0  0  0  0  0  0
   58.3154   32.9972   47.4167 C   0  0  0  0  0  0  0  0  0  0  0  0
   59.4060   33.9587   47.9205 C   0  0  0  0  0  0  0  0  0  0  0  0
   60.6058   33.8631   47.0716 N   0  0  0  0  0  0  0  0  0  0  0  0
   60.3257   34.4001   45.7217 C   0  0  0  0  0  0  0  0  0  0  0  0
   58.9411   33.9668   45.1627 C   0  0  0  0  0  0  0  0  0  0  0  0
   61.7508   34.5688   47.6828 C   0  0  0  0  0  0  0  0  0  0  0  0
   62.4205   33.7022   48.7209 C   0  0  0  0  0  0  0  0  0  0  0  0
   62.2956   34.0012   50.0907 C   0  0  0  0  0  0  0  0  0  0  0  0
   62.9033   33.1877   51.0521 C   0  0  0  0  0  0  0  0  0  0  0  0
   63.6408   32.0687   50.6605 C   0  0  0  0  0  0  0  0  0  0  0  0
   63.7679   31.7644   49.2995 C   0  0  0  0  0  0  0  0  0  0  0  0
   63.1588   32.5731   48.3317 C   0  0  0  0  0  0  0  0  0  0  0  0
 11 12  2  0
 12 13  1  0
 13 14  1  0
 14 15  2  0
 15  1  1  0
  1  2  2  0
  2  3  1  0
  2  4  1  0
  4  5  1  0
  5  6  2  0
  6  7  1  0
  7  8  2  0
  8 28  1  0
 28 29  2  0
 28 30  2  0
 28 31  1  0
 31 32  1  0
 32 33  1  0
 33 34  1  0
 34 35  1  0
 35 38  1  0
 38 39  1  0
 39 40  2  0
 40 41  1  0
 41 42  2  0
 42 43  1  0
 43 44  2  0
 35 36  1  0
 36 37  1  0
  8  9  1  0
  9 10  2  0
 14 16  1  0
 16 17  1  0
 16 18  2  0
 18 20  1  0
 20 21  2  0
 20 22  1  0
 22 23  1  0
 23 24  1  0
 24 25  1  0
 25 26  1  0
 26 27  1  0
 18 12  1  0
 27 22  1  0
 10  1  1  0
 10  5  1  0
 37 32  1  0
 44 39  1  0
 13 19  1  0
M  CHG 1   3  -1
M  CHG 1   4  -1
M  CHG 1  31  -1
M  END
> <UniqueID>
52

> <SMILES>
C=c1[nH]c(=Cc2c([O-])[n-]c3ccc(S(=O)(=O)[N-]C4CCN(Cc5ccccc5)CC4)cc23)c(C)c1C(=O)N1CCOCC1

> <Energy>
183.34180154431

> <Genealogy>
C=c1[nH]c(=Cc2c([O-])[n-]c3ccc(S(=O)(=O)[N-]C4CCN(Cc5ccccc5)CC4)cc23)c(C)c1C(=O)N1CCOCC1 (protonated)
C=c1[nH]c(=Cc2c([O-])[n-]c3ccc(S(=O)(=O)[N-]C4CCN(Cc5ccccc5)CC4)cc23)c(C)c1C(=O)N1CCOCC1 (3D coordinates assigned)
C=c1[nH]c(=Cc2c([O-])[n-]c3ccc(S(=O)(=O)[N-]C4CCN(Cc5ccccc5)CC4)cc23)c(C)c1C(=O)N1CCOCC1 (nonaromatic ring conformer: 183.34180154431 kcal/mol)

> <smiles>
C=c1[nH]c(=Cc2c(O)[nH]c3ccc(S(=O)(=O)NC4CCN(Cc5ccccc5)CC4)cc23)c(C)c1C(=O)N1CCOCC1

> <score_type>
oracle

> <origin>
adg

> <m_score__min__energy>
-17.870000000000001

> <m_primary>
energy

> <minimizedAffinity>
-7.88299

> <minimizedRMSD>
1.36059

> <CNNscore>
0.1350430548

> <CNNaffinity>
7.2537064552

> <CNN_VS>
0.9795626998

> <CNNaffinity_variance>
0.5170349479

$$$$
76:0


 29 31  0  0  0  0  0  0  0  0999 V2000
   59.2867   28.2319   46.7518 C   0  0  0  0  0  0  0  0  0  0  0  0
   59.0755   29.4389   46.1617 N   0  0  0  0  0  0  0  0  0  0  0  0
   57.9747   29.6705   45.4017 C   0  0  0  0  0  0  0  0  0  0  0  0
   57.0153   28.6611   45.2503 C   0  0  0  0  0  0  0  0  0  0  0  0
   55.8626   28.8720   44.4993 O   0  0  0  0  0  0  0  0  0  0  0  0
   57.2381   27.4324   45.8802 C   0  0  0  0  0  0  0  0  0  0  0  0
   56.4002   26.4994   45.7695 O   0  0  0  0  0  0  0  0  0  0  0  0
   58.3634   27.2432   46.6144 N   0  0  0  0  0  0  0  0  0  0  0  0
   57.8365   30.9663   44.7242 C   0  0  0  0  0  0  0  0  0  0  0  0
   58.3927   31.1363   43.6081 O   0  0  0  0  0  0  0  0  0  0  0  0
   57.0389   32.0224   45.2761 N   0  0  0  0  0  0  0  0  0  0  0  0
   57.4117   33.4366   45.2920 C   0  0  0  0  0  0  0  0  0  0  0  0
   58.4424   33.7075   46.3563 C   0  0  0  0  0  0  0  0  0  0  0  0
   58.2424   33.2430   47.6665 C   0  0  0  0  0  0  0  0  0  0  0  0
   59.2060   33.4782   48.6529 C   0  0  0  0  0  0  0  0  0  0  0  0
   60.3773   34.1746   48.3361 C   0  0  0  0  0  0  0  0  0  0  0  0
   61.3133   34.3979   49.2926 F   0  0  0  0  0  0  0  0  0  0  0  0
   60.5839   34.6394   47.0343 C   0  0  0  0  0  0  0  0  0  0  0  0
   59.6186   34.4133   46.0494 C   0  0  0  0  0  0  0  0  0  0  0  0
   60.5154   27.9995   47.5737 C   0  0  0  0  0  0  0  0  0  0  0  0
   60.2902   28.4592   48.9379 N   0  0  0  0  0  0  0  0  0  0  0  0
   59.1899   30.3322   49.7819 O   0  0  0  0  0  0  0  0  0  0  0  0
   60.2500   29.8423   49.3039 C   0  0  0  0  0  0  0  0  0  0  0  0
   61.4492   30.6908   49.1266 C   0  0  0  0  0  0  0  0  0  0  0  0
   61.8454   31.1129   47.8466 C   0  0  0  0  0  0  0  0  0  0  0  0
   62.9751   31.9223   47.7051 C   0  0  0  0  0  0  0  0  0  0  0  0
   63.6901   32.2964   48.7988 N   0  0  0  0  0  0  0  0  0  0  0  0
   63.3358   31.8995   50.0494 C   0  0  0  0  0  0  0  0  0  0  0  0
   62.2144   31.0885   50.2368 C   0  0  0  0  0  0  0  0  0  0  0  0
 22 23  2  0
 23 21  1  0
 21 20  1  0
 20  1  1  0
  1  2  2  0
  2  3  1  0
  3  9  1  0
  9 10  2  0
  9 11  1  0
 11 12  1  0
 12 13  1  0
 13 14  2  0
 14 15  1  0
 15 16  2  0
 16 17  1  0
 16 18  1  0
 18 19  2  0
  3  4  2  0
  4  5  1  0
  4  6  1  0
  6  7  2  0
  6  8  1  0
 23 24  1  0
 24 25  2  0
 25 26  1  0
 26 27  2  0
 27 28  1  0
 28 29  2  0
  8  1  1  0
 29 24  1  0
 19 13  1  0
M  CHG 1   5  -1
M  CHG 1   8  -1
M  CHG 1  11  -1
M  CHG 1  21  -1
M  END
> <UniqueID>
67

> <SMILES>
O=C([N-]Cc1nc(C(=O)[N-]Cc2ccc(F)cc2)c([O-])c(=O)[n-]1)c1ccncc1

> <Energy>
44.36350099267645

> <Genealogy>
O=C([N-]Cc1nc(C(=O)[N-]Cc2ccc(F)cc2)c([O-])c(=O)[n-]1)c1ccncc1 (protonated)
O=C([N-]Cc1nc(C(=O)[N-]Cc2ccc(F)cc2)c([O-])c(=O)[n-]1)c1ccncc1 (3D coordinates assigned)
O=C([N-]Cc1nc(C(=O)[N-]Cc2ccc(F)cc2)c([O-])c(=O)[n-]1)c1ccncc1 (optimized conformer: 44.36350099267645 kcal/mol)

> <smiles>
O=C(NCc1nc(C(=O)NCc2ccc(F)cc2)c(O)c(=O)[nH]1)c1ccncc1

> <score_type>
oracle

> <origin>
adg

> <m_score__min__energy>
-16

> <m_primary>
energy

> <minimizedAffinity>
-6.38423

> <minimizedRMSD>
0.94525

> <CNNscore>
0.6016985178

> <CNNaffinity>
6.7265133858

> <CNN_VS>
4.0473332405

> <CNNaffinity_variance>
0.1417292655

$$$$
53:0


 32 35  0  0  0  0  0  0  0  0999 V2000
   56.3300   29.6438   44.5285 N   0  0  0  0  0  0  0  0  0  0  0  0
   57.0040   28.7870   45.2354 C   0  0  0  0  0  0  0  0  0  0  0  0
   56.4324   27.6056   45.5740 N   0  0  0  0  0  0  0  0  0  0  0  0
   57.1034   26.7122   46.3447 C   0  0  0  0  0  0  0  0  0  0  0  0
   56.5175   25.6020   46.6865 N   0  0  0  0  0  0  0  0  0  0  0  0
   58.3632   27.0017   46.7663 N   0  0  0  0  0  0  0  0  0  0  0  0
   58.9498   28.1798   46.4180 C   0  0  0  0  0  0  0  0  0  0  0  0
   60.1418   28.4884   46.8349 N   0  0  0  0  0  0  0  0  0  0  0  0
   58.2674   29.0644   45.6505 N   0  0  0  0  0  0  0  0  0  0  0  0
   60.4720   29.0053   48.1670 C   0  0  0  0  0  0  0  0  0  0  0  0
   61.3376   30.2698   48.0091 C   0  0  0  0  0  0  0  0  0  0  0  0
   60.4538   31.5010   47.7713 C   0  0  0  0  0  0  0  0  0  0  0  0
   59.5514   31.7646   48.9181 N   0  0  0  0  0  0  0  0  0  0  0  0
   59.2459   30.5909   49.7717 C   0  0  0  0  0  0  0  0  0  0  0  0
   59.1705   29.2901   48.9616 C   0  0  0  0  0  0  0  0  0  0  0  0
   58.3783   32.6044   48.5716 C   0  0  0  0  0  0  0  0  0  0  0  0
   58.5836   33.4800   47.3507 C   0  0  0  0  0  0  0  0  0  0  0  0
   57.6732   33.4353   46.2813 C   0  0  0  0  0  0  0  0  0  0  0  0
   57.8450   34.2701   45.1730 C   0  0  0  0  0  0  0  0  0  0  0  0
   58.9321   35.1482   45.1156 C   0  0  0  0  0  0  0  0  0  0  0  0
   59.8616   35.1768   46.1572 C   0  0  0  0  0  0  0  0  0  0  0  0
   59.7000   34.3367   47.2631 C   0  0  0  0  0  0  0  0  0  0  0  0
   56.7593   30.2000   43.2472 C   0  0  0  0  0  0  0  0  0  0  0  0
   57.9761   32.2312   42.4804 C   0  0  0  0  0  0  0  0  0  0  0  0
   57.6392   31.3993   43.4708 C   0  0  0  0  0  0  0  0  0  0  0  0
   57.1753   24.2968   46.7829 C   0  0  0  0  0  0  0  0  0  0  0  0
   57.0331   23.4921   45.5096 C   0  0  0  0  0  0  0  0  0  0  0  0
   57.8408   22.3650   45.2536 C   0  0  0  0  0  0  0  0  0  0  0  0
   57.6874   21.6376   44.0692 C   0  0  0  0  0  0  0  0  0  0  0  0
   56.7086   22.0091   43.1433 C   0  0  0  0  0  0  0  0  0  0  0  0
   55.8710   23.0982   43.4070 C   0  0  0  0  0  0  0  0  0  0  0  0
   56.0270   23.8323   44.5891 C   0  0  0  0  0  0  0  0  0  0  0  0
 24 25  2  0
 25 23  1  0
 23  1  1  0
  1  2  2  0
  2  3  1  0
  3  4  1  0
  4  5  2  0
  5 26  1  0
 26 27  1  0
 27 28  2  0
 28 29  1  0
 29 30  2  0
 30 31  1  0
 31 32  2  0
  4  6  1  0
  6  7  1  0
  7  8  2  0
  8 10  1  0
 10 11  1  0
 11 12  1  0
 12 13  1  0
 13 16  1  0
 16 17  1  0
 17 18  2  0
 18 19  1  0
 19 20  2  0
 20 21  1  0
 21 22  2  0
 13 14  1  0
 14 15  1  0
  7  9  1  0
  9  2  1  0
 32 27  1  0
 15 10  1  0
 22 17  1  0
M  CHG 1   3  -1
M  CHG 1   6  -1
M  CHG 1   9  -1
M  END
> <UniqueID>
49

> <SMILES>
C=CC/N=c1/[n-]c(=NCc2ccccc2)[n-]c(=NC2CCN(Cc3ccccc3)CC2)[n-]1

> <Energy>
67.59438811755784

> <Genealogy>
C=CCN=c1[n-]c(=NCc2ccccc2)[n-]c(=NC2CCN(Cc3ccccc3)CC2)[n-]1 (protonated)
C=CC/N=c1/[n-]c(=NCc2ccccc2)[n-]c(=NC2CCN(Cc3ccccc3)CC2)[n-]1 (cis-trans isomerization)
C=CC/N=c1/[n-]c(=NCc2ccccc2)[n-]c(=NC2CCN(Cc3ccccc3)CC2)[n-]1 (3D coordinates assigned)
C=CC/N=c1/[n-]c(=NCc2ccccc2)[n-]c(=NC2CCN(Cc3ccccc3)CC2)[n-]1 (nonaromatic ring conformer: 67.59438811755784 kcal/mol)

> <smiles>
C=CCN=c1[nH]c(=NCc2ccccc2)[nH]c(=NC2CCN(Cc3ccccc3)CC2)[nH]1

> <score_type>
oracle

> <origin>
adg

> <m_score__min__energy>
-14.630000000000001

> <m_primary>
energy

> <minimizedAffinity>
-7.83293

> <minimizedRMSD>
0.61806

> <CNNscore>
0.3427686095

> <CNNaffinity>
6.8236870766

> <CNN_VS>
2.3389456272

> <CNNaffinity_variance>
0.0336763486

$$$$
1:0


 28 30  0  0  0  0  0  0  0  0999 V2000
   57.6722   30.8319   44.5226 C   0  0  0  0  0  0  0  0  0  0  0  0
   56.5042   30.5888   44.9240 O   0  0  0  0  0  0  0  0  0  0  0  0
   58.6468   29.7817   44.5544 N   0  0  0  0  0  0  0  0  0  0  0  0
   57.7092   26.5955   46.3109 C   0  0  0  0  0  0  0  0  0  0  0  0
   58.6779   26.5743   47.3262 C   0  0  0  0  0  0  0  0  0  0  0  0
   59.6136   27.6086   47.4277 C   0  0  0  0  0  0  0  0  0  0  0  0
   59.5997   28.6586   46.5046 C   0  0  0  0  0  0  0  0  0  0  0  0
   58.6608   28.6733   45.4629 C   0  0  0  0  0  0  0  0  0  0  0  0
   57.6994   27.6485   45.3835 C   0  0  0  0  0  0  0  0  0  0  0  0
   54.9533   25.9888   45.9221 N   0  0  0  0  0  0  0  0  0  0  0  0
   56.5120   25.3067   46.2144 S   0  0  0  0  0  0  0  0  0  0  0  0
   56.8692   24.3709   45.0949 O   0  0  0  0  0  0  0  0  0  0  0  0
   56.4823   24.5328   47.5039 O   0  0  0  0  0  0  0  0  0  0  0  0
   54.2605   25.2422   45.8663 H   0  0  0  0  0  0  0  0  0  0  0  0
   58.0466   32.2512   44.1763 C   0  0  0  0  0  0  0  0  0  0  0  0
   58.0767   33.0926   45.3929 N   0  0  0  0  0  0  0  0  0  0  0  0
   58.4394   32.3005   46.5990 C   0  0  0  0  0  0  0  0  0  0  0  0
   59.9370   32.3794   46.9252 C   0  0  0  0  0  0  0  0  0  0  0  0
   60.3868   33.8381   47.2055 C   0  0  0  0  0  0  0  0  0  0  0  0
   59.4534   34.8637   46.5143 C   0  0  0  0  0  0  0  0  0  0  0  0
   58.9186   34.3042   45.1914 C   0  0  0  0  0  0  0  0  0  0  0  0
   60.4909   34.1090   48.7227 C   0  0  0  0  0  0  0  0  0  0  0  0
   61.8200   33.6656   49.2841 C   0  0  0  0  0  0  0  0  0  0  0  0
   61.9565   33.4144   50.6622 C   0  0  0  0  0  0  0  0  0  0  0  0
   63.1770   32.9707   51.1787 C   0  0  0  0  0  0  0  0  0  0  0  0
   64.2680   32.7718   50.3267 C   0  0  0  0  0  0  0  0  0  0  0  0
   64.1391   33.0154   48.9547 C   0  0  0  0  0  0  0  0  0  0  0  0
   62.9198   33.4585   48.4330 C   0  0  0  0  0  0  0  0  0  0  0  0
 10 11  1  0
 11 12  2  0
 11 13  2  0
 11  4  1  0
  4  5  2  0
  5  6  1  0
  6  7  2  0
  7  8  1  0
  8  3  1  0
  3  1  1  0
  1  2  2  0
  1 15  1  0
 15 16  1  0
 16 17  1  0
 17 18  1  0
 18 19  1  0
 19 22  1  0
 22 23  1  0
 23 24  2  0
 24 25  1  0
 25 26  2  0
 26 27  1  0
 27 28  2  0
 19 20  1  0
 20 21  1  0
  8  9  2  0
  9  4  1  0
 21 16  1  0
 28 23  1  0
 10 14  1  0
M  CHG 1   3  -1
M  CHG 1  10  -1
M  END
> <UniqueID>
2

> <SMILES>
[NH-]S(=O)(=O)c1cccc([N-]C(=O)CN2CCC(Cc3ccccc3)CC2)c1

> <Energy>
63.58544599757763

> <Genealogy>
[NH-]S(=O)(=O)c1cccc([N-]C(=O)CN2CCC(Cc3ccccc3)CC2)c1 (protonated)
[NH-]S(=O)(=O)c1cccc([N-]C(=O)CN2CCC(Cc3ccccc3)CC2)c1 (3D coordinates assigned)
[NH-]S(=O)(=O)c1cccc([N-]C(=O)CN2CCC(Cc3ccccc3)CC2)c1 (nonaromatic ring conformer: 63.58544599757763 kcal/mol)

> <smiles>
NS(=O)(=O)c1cccc(NC(=O)CN2CCC(Cc3ccccc3)CC2)c1

> <score_type>
oracle

> <origin>
adg

> <m_score__min__energy>
-14.289999999999999

> <m_primary>
energy

> <minimizedAffinity>
-9.02048

> <minimizedRMSD>
0.69324

> <CNNscore>
0.9268260598

> <CNNaffinity>
7.3576769829

> <CNN_VS>
6.8192868233

> <CNNaffinity_variance>
0.0174090546

$$$$
85:0


 30 33  0  0  0  0  0  0  0  0999 V2000
   58.3198   28.3844   46.0530 C   0  0  0  0  0  0  0  0  0  0  0  0
   59.5107   28.6918   46.7470 C   0  0  0  0  0  0  0  0  0  0  0  0
   59.9470   30.0369   46.8740 C   0  0  0  0  0  0  0  0  0  0  0  0
   61.1269   30.3452   47.5667 C   0  0  0  0  0  0  0  0  0  0  0  0
   61.5558   31.6760   47.6967 C   0  0  0  0  0  0  0  0  0  0  0  0
   60.7951   32.7062   47.1070 C   0  0  0  0  0  0  0  0  0  0  0  0
   59.6184   32.4151   46.4119 C   0  0  0  0  0  0  0  0  0  0  0  0
   59.1881   31.0886   46.2932 C   0  0  0  0  0  0  0  0  0  0  0  0
   58.0231   30.7376   45.6104 C   0  0  0  0  0  0  0  0  0  0  0  0
   57.1430   31.5244   44.9719 N   0  0  0  0  0  0  0  0  0  0  0  0
   56.2183   30.7000   44.4833 N   0  0  0  0  0  0  0  0  0  0  0  0
   56.4748   29.4282   44.7837 N   0  0  0  0  0  0  0  0  0  0  0  0
   57.6114   29.4490   45.4957 C   0  0  0  0  0  0  0  0  0  0  0  0
   56.0540   26.6344   46.0740 N   0  0  0  0  0  0  0  0  0  0  0  0
   57.7694   26.7208   45.8766 S   0  0  0  0  0  0  0  0  0  0  0  0
   58.4319   25.8625   46.9157 O   0  0  0  0  0  0  0  0  0  0  0  0
   58.1219   26.2127   44.5066 O   0  0  0  0  0  0  0  0  0  0  0  0
   55.7481   25.6670   45.9696 H   0  0  0  0  0  0  0  0  0  0  0  0
   62.7665   31.9511   48.4252 N   0  0  0  0  0  0  0  0  0  0  0  0
   63.6047   32.0339   47.9155 H   0  0  0  0  0  0  0  0  0  0  0  0
   62.8371   32.1455   50.1485 S   0  0  0  0  0  0  0  0  0  0  0  0
   63.6514   31.0299   50.7403 O   0  0  0  0  0  0  0  0  0  0  0  0
   63.4994   33.4574   50.4687 O   0  0  0  0  0  0  0  0  0  0  0  0
   61.2153   32.0833   50.8296 C   0  0  0  0  0  0  0  0  0  0  0  0
   60.4891   33.2634   51.0469 C   0  0  0  0  0  0  0  0  0  0  0  0
   59.1955   33.2046   51.5755 C   0  0  0  0  0  0  0  0  0  0  0  0
   58.6213   31.9675   51.8919 C   0  0  0  0  0  0  0  0  0  0  0  0
   56.9993   31.8953   52.5522 Cl  0  0  0  0  0  0  0  0  0  0  0  0
   59.3457   30.7891   51.6795 C   0  0  0  0  0  0  0  0  0  0  0  0
   60.6391   30.8458   51.1518 C   0  0  0  0  0  0  0  0  0  0  0  0
 14 15  1  0
 15 16  2  0
 15 17  2  0
 15  1  1  0
  1  2  2  0
  2  3  1  0
  3  4  2  0
  4  5  1  0
  5 19  1  0
 19 21  1  0
 21 22  2  0
 21 23  2  0
 21 24  1  0
 24 25  2  0
 25 26  1  0
 26 27  2  0
 27 28  1  0
 27 29  1  0
 29 30  2  0
  5  6  2  0
  6  7  1  0
  7  8  2  0
  8  9  1  0
  9 10  1  0
 10 11  2  0
 11 12  1  0
 12 13  1  0
 13  1  1  0
  8  3  1  0
 13  9  2  0
 30 24  1  0
 14 18  1  0
 19 20  1  0
M  CHG 1  12  -1
M  CHG 1  14  -1
M  END
> <UniqueID>
80

> <SMILES>
[NH-]S(=O)(=O)c1cc2cc(NS(=O)(=O)c3ccc(Cl)cc3)ccc2c2nn[n-]c12

> <Energy>
90.95589022513182

> <Genealogy>
[NH-]S(=O)(=O)c1cc2cc(NS(=O)(=O)c3ccc(Cl)cc3)ccc2c2nn[n-]c12 (protonated)
[NH-]S(=O)(=O)c1cc2cc(NS(=O)(=O)c3ccc(Cl)cc3)ccc2c2nn[n-]c12 (3D coordinates assigned)
[NH-]S(=O)(=O)c1cc2cc(NS(=O)(=O)c3ccc(Cl)cc3)ccc2c2nn[n-]c12 (optimized conformer: 90.95589022513182 kcal/mol)

> <smiles>
NS(=O)(=O)c1cc2cc(NS(=O)(=O)c3ccc(Cl)cc3)ccc2c2nn[nH]c12

> <score_type>
oracle

> <origin>
adg

> <m_score__min__energy>
-14.4

> <m_primary>
energy

> <minimizedAffinity>
-9.01738

> <minimizedRMSD>
0.81182

> <CNNscore>
0.5961887836

> <CNNaffinity>
6.8829522133

> <CNN_VS>
4.1035389900

> <CNNaffinity_variance>
0.2543371022

$$$$
2:0


 29 31  0  0  0  0  0  0  0  0999 V2000
   58.1907   31.9229   44.7717 C   0  0  0  0  0  0  0  0  0  0  0  0
   58.1310   33.2984   44.4831 C   0  0  0  0  0  0  0  0  0  0  0  0
   58.7860   34.2169   45.3084 C   0  0  0  0  0  0  0  0  0  0  0  0
   59.4899   33.7753   46.4313 C   0  0  0  0  0  0  0  0  0  0  0  0
   59.5379   32.4092   46.7410 C   0  0  0  0  0  0  0  0  0  0  0  0
   58.8759   31.4904   45.9141 C   0  0  0  0  0  0  0  0  0  0  0  0
   60.4247   31.8523   48.1620 S   0  0  0  0  0  0  0  0  0  0  0  0
   61.4561   30.8453   47.7350 O   0  0  0  0  0  0  0  0  0  0  0  0
   61.1439   33.0178   48.7844 O   0  0  0  0  0  0  0  0  0  0  0  0
   59.3671   31.1256   49.3469 N   0  0  0  0  0  0  0  0  0  0  0  0
   60.0824   30.0924   50.1141 C   0  0  0  0  0  0  0  0  0  0  0  0
   59.2399   29.6266   51.3190 C   0  0  0  0  0  0  0  0  0  0  0  0
   57.9039   30.0776   51.2096 O   0  0  0  0  0  0  0  0  0  0  0  0
   57.8684   31.4936   51.2699 C   0  0  0  0  0  0  0  0  0  0  0  0
   58.8274   32.1492   50.2515 C   0  0  0  0  0  0  0  0  0  0  0  0
   57.5148   30.9468   43.9642 N   0  0  0  0  0  0  0  0  0  0  0  0
   55.9092   29.5880   44.9987 O   0  0  0  0  0  0  0  0  0  0  0  0
   57.0183   29.6781   44.4076 C   0  0  0  0  0  0  0  0  0  0  0  0
   57.8130   28.4409   44.1406 C   0  0  0  0  0  0  0  0  0  0  0  0
   58.6256   28.1043   45.3027 N   0  0  0  0  0  0  0  0  0  0  0  0
   58.2045   27.2007   46.3330 C   0  0  0  0  0  0  0  0  0  0  0  0
   58.1627   27.6032   47.5289 O   0  0  0  0  0  0  0  0  0  0  0  0
   57.8167   25.8007   46.0093 C   0  0  0  0  0  0  0  0  0  0  0  0
   58.8245   24.8452   45.7613 C   0  0  0  0  0  0  0  0  0  0  0  0
   58.4958   23.5228   45.4530 C   0  0  0  0  0  0  0  0  0  0  0  0
   57.1593   23.1307   45.3894 C   0  0  0  0  0  0  0  0  0  0  0  0
   56.1485   24.0603   45.6321 C   0  0  0  0  0  0  0  0  0  0  0  0
   56.4638   25.3879   45.9415 C   0  0  0  0  0  0  0  0  0  0  0  0
   55.4220   26.2784   46.1756 O   0  0  0  0  0  0  0  0  0  0  0  0
 17 18  2  0
 18 19  1  0
 19 20  1  0
 20 21  1  0
 21 22  2  0
 21 23  1  0
 23 24  2  0
 24 25  1  0
 25 26  2  0
 26 27  1  0
 27 28  2  0
 28 29  1  0
 18 16  1  0
 16  1  1  0
  1  2  2  0
  2  3  1  0
  3  4  2  0
  4  5  1  0
  5  7  1  0
  7  8  2  0
  7  9  2  0
  7 10  1  0
 10 11  1  0
 11 12  1  0
 12 13  1  0
 13 14  1  0
 14 15  1  0
  5  6  2  0
 28 23  1  0
  6  1  1  0
 15 10  1  0
M  CHG 1  16  -1
M  CHG 1  20  -1
M  CHG 1  29  -1
M  END
> <UniqueID>
2

> <SMILES>
O=C(C[N-]C(=O)c1ccccc1[O-])[N-]c1cccc(S(=O)(=O)N2CCOCC2)c1

> <Energy>
58.6134905027043

> <Genealogy>
O=C(C[N-]C(=O)c1ccccc1[O-])[N-]c1cccc(S(=O)(=O)N2CCOCC2)c1 (protonated)
O=C(C[N-]C(=O)c1ccccc1[O-])[N-]c1cccc(S(=O)(=O)N2CCOCC2)c1 (3D coordinates assigned)
O=C(C[N-]C(=O)c1ccccc1[O-])[N-]c1cccc(S(=O)(=O)N2CCOCC2)c1 (nonaromatic ring conformer: 58.6134905027043 kcal/mol)

> <smiles>
O=C(CNC(=O)c1ccccc1O)Nc1cccc(S(=O)(=O)N2CCOCC2)c1

> <score_type>
oracle

> <origin>
adg

> <m_score__min__energy>
-16.52

> <m_primary>
energy

> <minimizedAffinity>
-7.76014

> <minimizedRMSD>
0.78465

> <CNNscore>
0.7641554475

> <CNNaffinity>
6.7275733948

> <CNN_VS>
5.1409120560

> <CNNaffinity_variance>
0.0613341816

$$$$
4:0


 23 24  0  0  0  0  0  0  0  0999 V2000
   58.1592   28.7011   45.3186 C   0  0  0  0  0  0  0  0  0  0  0  0
   59.5052   29.4230   46.0326 S   0  0  0  0  0  0  0  0  0  0  0  0
   58.8079   30.9609   46.0503 C   0  0  0  0  0  0  0  0  0  0  0  0
   57.5534   30.9368   45.5447 N   0  0  0  0  0  0  0  0  0  0  0  0
   57.1923   29.6888   45.1488 C   0  0  0  0  0  0  0  0  0  0  0  0
   55.9355   29.4314   44.6129 O   0  0  0  0  0  0  0  0  0  0  0  0
   59.4373   32.1574   46.5518 N   0  0  0  0  0  0  0  0  0  0  0  0
   60.7129   32.0473   47.2713 C   0  0  0  0  0  0  0  0  0  0  0  0
   60.9315   33.2698   48.1676 C   0  0  0  0  0  0  0  0  0  0  0  0
   60.7508   34.4656   47.4369 O   0  0  0  0  0  0  0  0  0  0  0  0
   59.3967   34.5736   47.0417 C   0  0  0  0  0  0  0  0  0  0  0  0
   59.0323   33.4726   46.0422 C   0  0  0  0  0  0  0  0  0  0  0  0
   57.9855   27.2371   45.0326 C   0  0  0  0  0  0  0  0  0  0  0  0
   57.4520   26.4970   46.2298 C   0  0  0  0  0  0  0  0  0  0  0  0
   58.2000   26.3519   47.2308 O   0  0  0  0  0  0  0  0  0  0  0  0
   56.1359   25.9275   46.2698 N   0  0  0  0  0  0  0  0  0  0  0  0
   55.7235   24.6195   45.7683 C   0  0  0  0  0  0  0  0  0  0  0  0
   56.4527   23.4736   46.4786 C   0  0  0  0  0  0  0  0  0  0  0  0
   57.8778   21.0505   45.9344 N   0  0  0  0  0  0  0  0  0  0  0  0
   57.6769   22.6929   45.4345 S   0  0  0  0  0  0  0  0  0  0  0  0
   57.2212   22.7208   44.0019 O   0  0  0  0  0  0  0  0  0  0  0  0
   58.9892   23.4142   45.5571 O   0  0  0  0  0  0  0  0  0  0  0  0
   58.5750   20.5980   45.3432 H   0  0  0  0  0  0  0  0  0  0  0  0
 19 20  1  0
 20 21  2  0
 20 22  2  0
 20 18  1  0
 18 17  1  0
 17 16  1  0
 16 14  1  0
 14 15  2  0
 14 13  1  0
 13  1  1  0
  1  2  1  0
  2  3  1  0
  3  7  1  0
  7  8  1  0
  8  9  1  0
  9 10  1  0
 10 11  1  0
 11 12  1  0
  3  4  2  0
  4  5  1  0
  5  6  1  0
  5  1  2  0
 12  7  1  0
 19 23  1  0
M  CHG 1   6  -1
M  CHG 1  16  -1
M  CHG 1  19  -1
M  END
> <UniqueID>
4

> <SMILES>
[NH-]S(=O)(=O)CC[N-]C(=O)Cc1sc(N2CCOCC2)nc1[O-]

> <Energy>
58.43689640996309

> <Genealogy>
[NH-]S(=O)(=O)CC[N-]C(=O)Cc1sc(N2CCOCC2)nc1[O-] (protonated)
[NH-]S(=O)(=O)CC[N-]C(=O)Cc1sc(N2CCOCC2)nc1[O-] (3D coordinates assigned)
[NH-]S(=O)(=O)CC[N-]C(=O)Cc1sc(N2CCOCC2)nc1[O-] (nonaromatic ring conformer: 58.43689640996309 kcal/mol)

> <smiles>
NS(=O)(=O)CCNC(=O)Cc1sc(N2CCOCC2)nc1O

> <score_type>
oracle

> <origin>
adg

> <m_score__min__energy>
-15.279999999999999

> <m_primary>
energy

> <minimizedAffinity>
-6.56075

> <minimizedRMSD>
1.73314

> <CNNscore>
0.6744481921

> <CNNaffinity>
5.7410144806

> <CNN_VS>
3.8720169067

> <CNNaffinity_variance>
0.0443681739

$$$$
45:0


 28 30  0  0  0  0  0  0  0  0999 V2000
   57.8972   29.7577   45.3452 C   0  0  0  0  0  0  0  0  0  0  0  0
   58.5264   30.2102   44.3522 O   0  0  0  0  0  0  0  0  0  0  0  0
   58.2040   30.2715   46.6485 N   0  0  0  0  0  0  0  0  0  0  0  0
   61.6454   32.4684   47.8087 C   0  0  0  0  0  0  0  0  0  0  0  0
   61.6388   31.0733   47.9324 C   0  0  0  0  0  0  0  0  0  0  0  0
   60.5133   30.3388   47.5477 C   0  0  0  0  0  0  0  0  0  0  0  0
   59.3857   30.9927   47.0224 C   0  0  0  0  0  0  0  0  0  0  0  0
   59.3839   32.3900   46.9351 C   0  0  0  0  0  0  0  0  0  0  0  0
   60.5085   33.1247   47.3196 C   0  0  0  0  0  0  0  0  0  0  0  0
   64.1768   32.3465   49.1114 N   0  0  0  0  0  0  0  0  0  0  0  0
   63.0583   33.3914   48.3102 S   0  0  0  0  0  0  0  0  0  0  0  0
   63.7170   34.0069   47.1073 O   0  0  0  0  0  0  0  0  0  0  0  0
   62.6456   34.4917   49.2481 O   0  0  0  0  0  0  0  0  0  0  0  0
   64.9948   32.8823   49.4014 H   0  0  0  0  0  0  0  0  0  0  0  0
   56.8803   28.6678   45.1403 C   0  0  0  0  0  0  0  0  0  0  0  0
   57.4287   27.3447   45.5816 C   0  0  0  0  0  0  0  0  0  0  0  0
   58.7431   27.0426   45.5963 N   0  0  0  0  0  0  0  0  0  0  0  0
   58.7696   25.7496   45.9895 C   0  0  0  0  0  0  0  0  0  0  0  0
   59.8432   25.1105   46.1502 O   0  0  0  0  0  0  0  0  0  0  0  0
   57.5433   25.2218   46.2116 N   0  0  0  0  0  0  0  0  0  0  0  0
   56.6999   26.2348   45.9449 C   0  0  0  0  0  0  0  0  0  0  0  0
   55.3119   26.1493   45.9945 O   0  0  0  0  0  0  0  0  0  0  0  0
   57.2109   23.8842   46.6243 C   0  0  0  0  0  0  0  0  0  0  0  0
   57.3721   22.8025   45.7391 C   0  0  0  0  0  0  0  0  0  0  0  0
   57.0462   21.5032   46.1433 C   0  0  0  0  0  0  0  0  0  0  0  0
   56.5579   21.2719   47.4306 C   0  0  0  0  0  0  0  0  0  0  0  0
   56.3931   22.3383   48.3185 C   0  0  0  0  0  0  0  0  0  0  0  0
   56.7171   23.6391   47.9182 C   0  0  0  0  0  0  0  0  0  0  0  0
 10 11  1  0
 11 12  2  0
 11 13  2  0
 11  4  1  0
  4  5  2  0
  5  6  1  0
  6  7  2  0
  7  3  1  0
  3  1  1  0
  1  2  2  0
  1 15  1  0
 15 16  1  0
 16 17  1  0
 17 18  1  0
 18 19  2  0
 18 20  1  0
 20 23  1  0
 23 24  2  0
 24 25  1  0
 25 26  2  0
 26 27  1  0
 27 28  2  0
 20 21  1  0
 21 22  1  0
  7  8  1  0
  8  9  2  0
  9  4  1  0
 21 16  2  0
 28 23  1  0
 10 14  1  0
M  CHG 1   3  -1
M  CHG 1  10  -1
M  CHG 1  17  -1
M  CHG 1  22  -1
M  END
> <UniqueID>
41

> <SMILES>
[NH-]S(=O)(=O)c1ccc([N-]C(=O)Cc2[n-]c(=O)n(-c3ccccc3)c2[O-])cc1

> <Energy>
82.61125427148907

> <Genealogy>
[NH-]S(=O)(=O)c1ccc([N-]C(=O)Cc2[n-]c(=O)n(-c3ccccc3)c2[O-])cc1 (protonated)
[NH-]S(=O)(=O)c1ccc([N-]C(=O)Cc2[n-]c(=O)n(-c3ccccc3)c2[O-])cc1 (3D coordinates assigned)
[NH-]S(=O)(=O)c1ccc([N-]C(=O)Cc2[n-]c(=O)n(-c3ccccc3)c2[O-])cc1 (optimized conformer: 82.61125427148907 kcal/mol)

> <smiles>
NS(=O)(=O)c1ccc(NC(=O)Cc2[nH]c(=O)n(-c3ccccc3)c2O)cc1

> <score_type>
oracle

> <origin>
adg

> <m_score__min__energy>
-14.119999999999999

> <m_primary>
energy

> <minimizedAffinity>
-7.14435

> <minimizedRMSD>
0.88599

> <CNNscore>
0.3273880184

> <CNNaffinity>
6.3605251312

> <CNN_VS>
2.0823597908

> <CNNaffinity_variance>
0.3629477918

$$$$
35:0


 21 22  0  0  0  0  0  0  0  0999 V2000
   58.0892   24.4173   45.4896 S   0  0  0  0  0  0  0  0  0  0  0  0
   59.2510   23.4649   45.5503 O   0  0  0  0  0  0  0  0  0  0  0  0
   57.4931   24.3779   44.1114 O   0  0  0  0  0  0  0  0  0  0  0  0
   58.3374   28.4689   45.5540 C   0  0  0  0  0  0  0  0  0  0  0  0
   59.4475   28.6788   46.3927 C   0  0  0  0  0  0  0  0  0  0  0  0
   60.1340   27.5934   46.9419 C   0  0  0  0  0  0  0  0  0  0  0  0
   59.7217   26.2881   46.6637 C   0  0  0  0  0  0  0  0  0  0  0  0
   58.6174   26.0617   45.8344 C   0  0  0  0  0  0  0  0  0  0  0  0
   57.9326   27.1507   45.2771 C   0  0  0  0  0  0  0  0  0  0  0  0
   56.3462   29.6088   44.9178 O   0  0  0  0  0  0  0  0  0  0  0  0
   57.6056   29.6136   44.9700 C   0  0  0  0  0  0  0  0  0  0  0  0
   58.2965   30.7111   44.4704 O   0  0  0  0  0  0  0  0  0  0  0  0
   56.8910   23.9207   46.6409 N   0  0  0  0  0  0  0  0  0  0  0  0
   55.5660   23.4770   46.3127 C   0  0  0  0  0  0  0  0  0  0  0  0
   55.2004   22.1216   46.3190 C   0  0  0  0  0  0  0  0  0  0  0  0
   53.9296   21.7592   46.0077 N   0  0  0  0  0  0  0  0  0  0  0  0
   52.9955   22.6906   45.6847 C   0  0  0  0  0  0  0  0  0  0  0  0
   51.8234   22.3322   45.3996 O   0  0  0  0  0  0  0  0  0  0  0  0
   53.3248   24.0068   45.6697 N   0  0  0  0  0  0  0  0  0  0  0  0
   54.5837   24.4186   45.9757 C   0  0  0  0  0  0  0  0  0  0  0  0
   54.8585   25.6467   45.9546 O   0  0  0  0  0  0  0  0  0  0  0  0
 10 11  2  0
 11 12  1  0
 11  4  1  0
  4  5  2  0
  5  6  1  0
  6  7  2  0
  7  8  1  0
  8  1  1  0
  1  2  2  0
  1  3  2  0
  1 13  1  0
 13 14  1  0
 14 15  2  0
 15 16  1  0
 16 17  1  0
 17 18  2  0
 17 19  1  0
 19 20  1  0
 20 21  2  0
  8  9  2  0
  9  4  1  0
 20 14  1  0
M  CHG 1  12  -1
M  CHG 1  13  -1
M  CHG 1  16  -1
M  CHG 1  19  -1
M  END
> <UniqueID>
35

> <SMILES>
O=C([O-])c1cccc(S(=O)(=O)[N-]c2c[n-]c(=O)[n-]c2=O)c1

> <Energy>
32.30215210493703

> <Genealogy>
O=C([O-])c1cccc(S(=O)(=O)[N-]c2c[n-]c(=O)[n-]c2=O)c1 (protonated)
O=C([O-])c1cccc(S(=O)(=O)[N-]c2c[n-]c(=O)[n-]c2=O)c1 (3D coordinates assigned)
O=C([O-])c1cccc(S(=O)(=O)[N-]c2c[n-]c(=O)[n-]c2=O)c1 (optimized conformer: 32.30215210493703 kcal/mol)

> <smiles>
O=C(O)c1cccc(S(=O)(=O)Nc2c[nH]c(=O)[nH]c2=O)c1

> <score_type>
oracle

> <origin>
adg

> <m_score__min__energy>
-14.619999999999999

> <m_primary>
energy

> <minimizedAffinity>
-6.55112

> <minimizedRMSD>
0.89442

> <CNNscore>
0.1100858152

> <CNNaffinity>
4.2777061462

> <CNN_VS>
0.4709147811

> <CNNaffinity_variance>
0.1092029810

$$$$
30:0


 23 24  0  0  0  0  0  0  0  0999 V2000
   56.4407   29.8123   43.0972 O   0  0  0  0  0  0  0  0  0  0  0  0
   57.0928   29.8113   44.1757 C   0  0  0  0  0  0  0  0  0  0  0  0
   58.0072   30.9536   44.4897 C   0  0  0  0  0  0  0  0  0  0  0  0
   57.6611   31.5719   45.7723 N   0  0  0  0  0  0  0  0  0  0  0  0
   58.5783   33.0248   46.0493 S   0  0  0  0  0  0  0  0  0  0  0  0
   58.7634   33.7630   44.7524 O   0  0  0  0  0  0  0  0  0  0  0  0
   57.8133   33.9116   46.9905 O   0  0  0  0  0  0  0  0  0  0  0  0
   60.1481   32.6600   46.7634 C   0  0  0  0  0  0  0  0  0  0  0  0
   60.3698   31.4102   47.3593 C   0  0  0  0  0  0  0  0  0  0  0  0
   61.6188   31.1058   47.9118 C   0  0  0  0  0  0  0  0  0  0  0  0
   62.6512   32.0479   47.8676 C   0  0  0  0  0  0  0  0  0  0  0  0
   62.4370   33.2930   47.2692 C   0  0  0  0  0  0  0  0  0  0  0  0
   61.1888   33.5997   46.7168 C   0  0  0  0  0  0  0  0  0  0  0  0
   57.0250   28.6928   45.0709 N   0  0  0  0  0  0  0  0  0  0  0  0
   58.1382   27.9444   45.5858 C   0  0  0  0  0  0  0  0  0  0  0  0
   59.3935   28.5588   45.7554 C   0  0  0  0  0  0  0  0  0  0  0  0
   60.4858   27.8297   46.2265 C   0  0  0  0  0  0  0  0  0  0  0  0
   60.3459   26.4749   46.5178 C   0  0  0  0  0  0  0  0  0  0  0  0
   59.1169   25.8429   46.3326 C   0  0  0  0  0  0  0  0  0  0  0  0
   57.9992   26.5581   45.8600 C   0  0  0  0  0  0  0  0  0  0  0  0
   56.7121   25.8333   45.6778 C   0  0  0  0  0  0  0  0  0  0  0  0
   55.6633   26.2057   46.2648 O   0  0  0  0  0  0  0  0  0  0  0  0
   56.6490   24.7175   44.8503 O   0  0  0  0  0  0  0  0  0  0  0  0
  1  2  2  0
  2  3  1  0
  3  4  1  0
  4  5  1  0
  5  6  2  0
  5  7  2  0
  5  8  1  0
  8  9  2  0
  9 10  1  0
 10 11  2  0
 11 12  1  0
 12 13  2  0
  2 14  1  0
 14 15  1  0
 15 16  2  0
 16 17  1  0
 17 18  2  0
 18 19  1  0
 19 20  2  0
 20 21  1  0
 21 22  2  0
 21 23  1  0
 13  8  1  0
 20 15  1  0
M  CHG 1   4  -1
M  CHG 1  14  -1
M  CHG 1  23  -1
M  END
> <UniqueID>
28

> <SMILES>
O=C(C[N-]S(=O)(=O)c1ccccc1)[N-]c1ccccc1C(=O)[O-]

> <Energy>
39.17245769665974

> <Genealogy>
O=C(C[N-]S(=O)(=O)c1ccccc1)[N-]c1ccccc1C(=O)[O-] (protonated)
O=C(C[N-]S(=O)(=O)c1ccccc1)[N-]c1ccccc1C(=O)[O-] (3D coordinates assigned)
O=C(C[N-]S(=O)(=O)c1ccccc1)[N-]c1ccccc1C(=O)[O-] (optimized conformer: 39.17245769665974 kcal/mol)

> <smiles>
O=C(CNS(=O)(=O)c1ccccc1)Nc1ccccc1C(=O)O

> <score_type>
oracle

> <origin>
adg

> <m_score__min__energy>
-14.970000000000001

> <m_primary>
energy

> <minimizedAffinity>
-7.50653

> <minimizedRMSD>
1.54053

> <CNNscore>
0.8310074210

> <CNNaffinity>
6.0000572205

> <CNN_VS>
4.9860920906

> <CNNaffinity_variance>
0.0366297252

$$$$
77:0


 26 28  0  0  0  0  0  0  0  0999 V2000
   57.7063   27.4766   46.3995 N   0  0  0  0  0  0  0  0  0  0  0  0
   56.1649   24.1299   45.5882 C   0  0  0  0  0  0  0  0  0  0  0  0
   57.3344   23.3869   45.3535 C   0  0  0  0  0  0  0  0  0  0  0  0
   58.5900   23.9753   45.5020 C   0  0  0  0  0  0  0  0  0  0  0  0
   58.6956   25.3198   45.8596 C   0  0  0  0  0  0  0  0  0  0  0  0
   57.5468   26.0960   46.0451 C   0  0  0  0  0  0  0  0  0  0  0  0
   56.2743   25.4948   45.9321 C   0  0  0  0  0  0  0  0  0  0  0  0
   55.1281   26.2501   46.1651 O   0  0  0  0  0  0  0  0  0  0  0  0
   52.3662   23.5883   45.0192 C   0  0  0  0  0  0  0  0  0  0  0  0
   53.6474   24.2272   45.2915 N   0  0  0  0  0  0  0  0  0  0  0  0
   54.8506   23.4618   45.4570 C   0  0  0  0  0  0  0  0  0  0  0  0
   54.7869   22.2046   45.5284 O   0  0  0  0  0  0  0  0  0  0  0  0
   53.6888   25.2082   45.3637 H   0  0  0  0  0  0  0  0  0  0  0  0
   57.5269   28.5854   45.5100 C   0  0  0  0  0  0  0  0  0  0  0  0
   56.3704   28.9531   45.1682 O   0  0  0  0  0  0  0  0  0  0  0  0
   58.7235   29.2436   44.9047 C   0  0  0  0  0  0  0  0  0  0  0  0
   58.5587   30.7313   44.9328 C   0  0  0  0  0  0  0  0  0  0  0  0
   57.9436   31.5153   43.9611 C   0  0  0  0  0  0  0  0  0  0  0  0
   57.9033   32.8095   44.3544 N   0  0  0  0  0  0  0  0  0  0  0  0
   58.4773   32.8467   45.5701 C   0  0  0  0  0  0  0  0  0  0  0  0
   58.6501   33.9611   46.3891 C   0  0  0  0  0  0  0  0  0  0  0  0
   59.2605   33.7678   47.6419 C   0  0  0  0  0  0  0  0  0  0  0  0
   59.6751   32.4794   48.0451 C   0  0  0  0  0  0  0  0  0  0  0  0
   59.4862   31.3716   47.1981 C   0  0  0  0  0  0  0  0  0  0  0  0
   58.8842   31.5968   45.9595 C   0  0  0  0  0  0  0  0  0  0  0  0
   57.5295   33.5695   43.8524 H   0  0  0  0  0  0  0  0  0  0  0  0
  9 10  1  0
 10 11  1  0
 11 12  2  0
 11  2  1  0
  2  3  2  0
  3  4  1  0
  4  5  2  0
  5  6  1  0
  6  1  1  0
  1 14  1  0
 14 15  2  0
 14 16  1  0
 16 17  1  0
 17 18  2  0
 18 19  1  0
 19 20  1  0
 20 21  2  0
 21 22  1  0
 22 23  2  0
 23 24  1  0
 24 25  2  0
  6  7  2  0
  7  8  1  0
  7  2  1  0
 25 17  1  0
 25 20  1  0
 10 13  1  0
 19 26  1  0
M  CHG 1   1  -1
M  CHG 1   8  -1
M  END
> <UniqueID>
69

> <SMILES>
CNC(=O)c1cccc([N-]C(=O)Cc2c[nH]c3ccccc23)c1[O-]

> <Energy>
79.27903164728063

> <Genealogy>
CNC(=O)c1cccc([N-]C(=O)Cc2c[nH]c3ccccc23)c1[O-] (protonated)
CNC(=O)c1cccc([N-]C(=O)Cc2c[nH]c3ccccc23)c1[O-] (3D coordinates assigned)
CNC(=O)c1cccc([N-]C(=O)Cc2c[nH]c3ccccc23)c1[O-] (optimized conformer: 79.27903164728063 kcal/mol)

> <smiles>
CNC(=O)c1cccc(NC(=O)Cc2c[nH]c3ccccc23)c1O

> <score_type>
oracle

> <origin>
adg

> <m_score__min__energy>
-14.17

> <m_primary>
energy

> <minimizedAffinity>
-7.67888

> <minimizedRMSD>
1.03800

> <CNNscore>
0.4884661734

> <CNNaffinity>
6.2243752480

> <CNN_VS>
3.0403966904

> <CNNaffinity_variance>
0.0656457469

$$$$
5:0


 32 34  0  0  0  0  0  0  0  0999 V2000
   61.2030   30.7945   48.9748 N   0  0  0  0  0  0  0  0  0  0  0  0
   60.4375   30.4548   50.0612 C   0  0  0  0  0  0  0  0  0  0  0  0
   60.7060   31.0505   51.4164 C   0  0  0  0  0  0  0  0  0  0  0  0
   59.3419   29.5968   49.8979 C   0  0  0  0  0  0  0  0  0  0  0  0
   59.0659   29.0575   48.6466 C   0  0  0  0  0  0  0  0  0  0  0  0
   59.8826   29.3641   47.5525 C   0  0  0  0  0  0  0  0  0  0  0  0
   60.9603   30.2509   47.7408 C   0  0  0  0  0  0  0  0  0  0  0  0
   61.7028   30.5509   46.7660 O   0  0  0  0  0  0  0  0  0  0  0  0
   62.2527   31.7166   49.1152 N   0  0  0  0  0  0  0  0  0  0  0  0
   62.0373   33.3841   48.6981 S   0  0  0  0  0  0  0  0  0  0  0  0
   61.8546   34.2032   49.9447 O   0  0  0  0  0  0  0  0  0  0  0  0
   63.2670   33.8620   47.9781 O   0  0  0  0  0  0  0  0  0  0  0  0
   57.1759   33.8929   45.0924 C   0  0  0  0  0  0  0  0  0  0  0  0
   58.3782   33.8127   45.9862 C   0  0  0  0  0  0  0  0  0  0  0  0
   59.6589   34.1083   45.4946 C   0  0  0  0  0  0  0  0  0  0  0  0
   60.7774   33.9892   46.3238 C   0  0  0  0  0  0  0  0  0  0  0  0
   60.6294   33.5769   47.6555 C   0  0  0  0  0  0  0  0  0  0  0  0
   59.3466   33.3059   48.1539 C   0  0  0  0  0  0  0  0  0  0  0  0
   58.2294   33.4147   47.3217 C   0  0  0  0  0  0  0  0  0  0  0  0
   59.5866   28.7607   46.1993 C   0  0  0  0  0  0  0  0  0  0  0  0
   58.1428   28.9161   45.8229 C   0  0  0  0  0  0  0  0  0  0  0  0
   57.6234   30.0624   45.7518 O   0  0  0  0  0  0  0  0  0  0  0  0
   57.3472   27.7473   45.6099 N   0  0  0  0  0  0  0  0  0  0  0  0
   57.6084   26.4645   46.2542 C   0  0  0  0  0  0  0  0  0  0  0  0
   56.3998   25.5804   46.1953 C   0  0  0  0  0  0  0  0  0  0  0  0
   55.2574   26.1104   46.1210 O   0  0  0  0  0  0  0  0  0  0  0  0
   56.5524   24.1550   46.2772 N   0  0  0  0  0  0  0  0  0  0  0  0
   56.7732   23.3476   45.2829 C   0  0  0  0  0  0  0  0  0  0  0  0
   55.8493   23.0031   44.3582 N   0  0  0  0  0  0  0  0  0  0  0  0
   56.3659   22.1517   43.4339 C   0  0  0  0  0  0  0  0  0  0  0  0
   57.7024   21.8137   43.6233 C   0  0  0  0  0  0  0  0  0  0  0  0
   58.2548   22.6126   44.9987 S   0  0  0  0  0  0  0  0  0  0  0  0
 13 14  1  0
 14 15  2  0
 15 16  1  0
 16 17  2  0
 17 10  1  0
 10 11  2  0
 10 12  2  0
 10  9  1  0
  9  1  1  0
  1  2  1  0
  2  3  1  0
  2  4  2  0
  4  5  1  0
  5  6  2  0
  6 20  1  0
 20 21  1  0
 21 22  2  0
 21 23  1  0
 23 24  1  0
 24 25  1  0
 25 26  2  0
 25 27  1  0
 27 28  2  0
 28 29  1  0
 29 30  1  0
 30 31  2  0
 31 32  1  0
  6  7  1  0
  7  8  2  0
 17 18  1  0
 18 19  2  0
 19 14  1  0
  7  1  1  0
 32 28  1  0
M  CHG 1   9  -1
M  CHG 1  23  -1
M  CHG 1  29  -1
M  END
> <UniqueID>
5

> <SMILES>
Cc1ccc(S(=O)(=O)[N-]n2c(C)ccc(CC(=O)[N-]CC(=O)N=c3[n-]ccs3)c2=O)cc1

> <Energy>
84.32537662806081

> <Genealogy>
Cc1ccc(S(=O)(=O)[N-]n2c(C)ccc(CC(=O)[N-]CC(=O)N=c3[n-]ccs3)c2=O)cc1 (protonated)
Cc1ccc(S(=O)(=O)[N-]n2c(C)ccc(CC(=O)[N-]CC(=O)N=c3[n-]ccs3)c2=O)cc1 (3D coordinates assigned)
Cc1ccc(S(=O)(=O)[N-]n2c(C)ccc(CC(=O)[N-]CC(=O)N=c3[n-]ccs3)c2=O)cc1 (optimized conformer: 84.32537662806081 kcal/mol)

> <smiles>
Cc1ccc(S(=O)(=O)Nn2c(C)ccc(CC(=O)NCC(=O)N=c3[nH]ccs3)c2=O)cc1

> <score_type>
oracle

> <origin>
adg

> <m_score__min__energy>
-14.390000000000001

> <m_primary>
energy

> <minimizedAffinity>
-7.56378

> <minimizedRMSD>
0.68261

> <CNNscore>
0.7202702165

> <CNNaffinity>
7.4458642006

> <CNN_VS>
5.3630342484

> <CNNaffinity_variance>
0.3009431064

$$$$
35:0


 31 35  0  0  0  0  0  0  0  0999 V2000
   53.1048   29.9635   52.2278 C   0  0  0  0  0  0  0  0  0  0  0  0
   54.0201   29.3372   52.9797 C   0  0  0  0  0  0  0  0  0  0  0  0
   53.8384   28.4061   54.0035 C   0  0  0  0  0  0  0  0  0  0  0  0
   55.0415   27.9924   54.4658 N   0  0  0  0  0  0  0  0  0  0  0  0
   55.9693   28.6290   53.7668 N   0  0  0  0  0  0  0  0  0  0  0  0
   57.3272   28.5384   53.8579 C   0  0  0  0  0  0  0  0  0  0  0  0
   57.9364   27.7673   54.7126 N   0  0  0  0  0  0  0  0  0  0  0  0
   58.0720   29.2936   53.0028 N   0  0  0  0  0  0  0  0  0  0  0  0
   57.4750   30.1165   52.0836 C   0  0  0  0  0  0  0  0  0  0  0  0
   58.1898   30.8347   51.2718 N   0  0  0  0  0  0  0  0  0  0  0  0
   56.1162   30.1875   52.0135 N   0  0  0  0  0  0  0  0  0  0  0  0
   55.3890   29.4302   52.8702 C   0  0  0  0  0  0  0  0  0  0  0  0
   52.0926   30.8896   52.7640 C   0  0  0  0  0  0  0  0  0  0  0  0
   51.6338   30.8293   54.0266 N   0  0  0  0  0  0  0  0  0  0  0  0
   50.6838   31.7885   54.0622 C   0  0  0  0  0  0  0  0  0  0  0  0
   50.0235   32.0492   55.1012 O   0  0  0  0  0  0  0  0  0  0  0  0
   50.4913   32.4391   52.8953 N   0  0  0  0  0  0  0  0  0  0  0  0
   51.3820   31.8527   52.0787 C   0  0  0  0  0  0  0  0  0  0  0  0
   51.5005   32.1556   50.7290 O   0  0  0  0  0  0  0  0  0  0  0  0
   59.2910   27.2379   54.5951 C   0  0  0  0  0  0  0  0  0  0  0  0
   59.3269   25.8793   53.9215 C   0  0  0  0  0  0  0  0  0  0  0  0
   59.5405   25.9911   55.4230 C   0  0  0  0  0  0  0  0  0  0  0  0
   59.1318   30.2816   50.3029 C   0  0  0  0  0  0  0  0  0  0  0  0
   59.3297   31.2658   49.1861 C   0  0  0  0  0  0  0  0  0  0  0  0
   59.2877   30.8371   47.8503 C   0  0  0  0  0  0  0  0  0  0  0  0
   59.5060   31.7473   46.8120 C   0  0  0  0  0  0  0  0  0  0  0  0
   59.7816   33.0911   47.0885 C   0  0  0  0  0  0  0  0  0  0  0  0
   59.8391   33.5186   48.4299 C   0  0  0  0  0  0  0  0  0  0  0  0
   59.6205   32.6092   49.4686 C   0  0  0  0  0  0  0  0  0  0  0  0
   59.9934   33.9646   46.0115 O   0  0  0  0  0  0  0  0  0  0  0  0
   59.0044   34.3047   45.0461 C   0  0  0  0  0  0  0  0  0  0  0  0
  1 13  1  0
 13 14  1  0
 14 15  1  0
 15 16  2  0
 15 17  1  0
 17 18  1  0
 18 19  1  0
  1  2  2  0
  2  3  1  0
  3  4  2  0
  4  5  1  0
  5  6  1  0
  6  7  2  0
  7 20  1  0
 20 21  1  0
 21 22  1  0
  6  8  1  0
  8  9  1  0
  9 10  2  0
 10 23  1  0
 23 24  1  0
 24 25  2  0
 25 26  1  0
 26 27  2  0
 27 30  1  0
 30 31  1  0
 27 28  1  0
 28 29  2  0
  9 11  1  0
 11 12  2  0
 18 13  2  0
 12  2  1  0
 12  5  1  0
 22 20  1  0
 29 24  1  0
M  CHG 1   8  -1
M  CHG 1  14  -1
M  CHG 1  17  -1
M  CHG 1  19  -1
M  END
> <UniqueID>
32

> <SMILES>
COc1ccc(C/N=c2/nc3/c(=C/c4[n-]c(=O)[n-]c4[O-])cnn3c(=NC3CC3)[n-]2)cc1

> <Energy>
391.20855398245027

> <Genealogy>
COc1ccc(CN=c2nc3c(=Cc4[n-]c(=O)[n-]c4[O-])cnn3c(=NC3CC3)[n-]2)cc1 (protonated)
COc1ccc(C/N=c2/nc3/c(=C/c4[n-]c(=O)[n-]c4[O-])cnn3c(=NC3CC3)[n-]2)cc1 (cis-trans isomerization)
COc1ccc(C/N=c2/nc3/c(=C/c4[n-]c(=O)[n-]c4[O-])cnn3c(=NC3CC3)[n-]2)cc1 (3D coordinates assigned)
COc1ccc(C/N=c2/nc3/c(=C/c4[n-]c(=O)[n-]c4[O-])cnn3c(=NC3CC3)[n-]2)cc1 (nonaromatic ring conformer: 391.20855398245027 kcal/mol)

> <smiles>
COc1ccc(CN=c2nc3c(=Cc4[nH]c(=O)[nH]c4O)cnn3c(=NC3CC3)[nH]2)cc1

> <score_type>
oracle

> <origin>
adg

> <m_score__min__energy>
-17.780000000000001

> <m_primary>
energy

> <minimizedAffinity>
-7.06493

> <minimizedRMSD>
1.70481

> <CNNscore>
0.3491618633

> <CNNaffinity>
5.8980484009

> <CNN_VS>
2.0593736172

> <CNNaffinity_variance>
0.0223050863

$$$$
1:0


 29 31  0  0  0  0  0  0  0  0999 V2000
   57.8336   32.5136   45.2606 S   0  0  0  0  0  0  0  0  0  0  0  0
   58.3293   32.9198   43.9010 O   0  0  0  0  0  0  0  0  0  0  0  0
   56.7086   33.4391   45.6303 O   0  0  0  0  0  0  0  0  0  0  0  0
   59.1232   32.6571   46.4562 C   0  0  0  0  0  0  0  0  0  0  0  0
   59.2361   31.7215   47.4927 C   0  0  0  0  0  0  0  0  0  0  0  0
   60.2563   31.8362   48.4398 C   0  0  0  0  0  0  0  0  0  0  0  0
   61.1840   32.8868   48.3592 C   0  0  0  0  0  0  0  0  0  0  0  0
   61.0714   33.8224   47.3197 C   0  0  0  0  0  0  0  0  0  0  0  0
   60.0450   33.7104   46.3780 C   0  0  0  0  0  0  0  0  0  0  0  0
   62.2377   32.9991   49.3352 N   0  0  0  0  0  0  0  0  0  0  0  0
   61.9322   33.3505   50.6996 C   0  0  0  0  0  0  0  0  0  0  0  0
   60.7402   33.5668   51.0536 O   0  0  0  0  0  0  0  0  0  0  0  0
   63.0288   33.4973   51.7116 C   0  0  0  0  0  0  0  0  0  0  0  0
   64.1748   32.5363   51.3940 C   0  0  0  0  0  0  0  0  0  0  0  0
   64.7088   32.7669   49.9791 C   0  0  0  0  0  0  0  0  0  0  0  0
   63.6041   32.7212   48.9611 C   0  0  0  0  0  0  0  0  0  0  0  0
   63.9007   32.5088   47.7543 O   0  0  0  0  0  0  0  0  0  0  0  0
   57.2124   30.8910   45.2387 N   0  0  0  0  0  0  0  0  0  0  0  0
   57.9568   27.2560   45.6434 C   0  0  0  0  0  0  0  0  0  0  0  0
   59.3326   27.2138   45.3870 C   0  0  0  0  0  0  0  0  0  0  0  0
   60.0215   28.3893   45.0740 C   0  0  0  0  0  0  0  0  0  0  0  0
   59.3434   29.6095   45.0242 C   0  0  0  0  0  0  0  0  0  0  0  0
   57.9627   29.6664   45.2853 C   0  0  0  0  0  0  0  0  0  0  0  0
   57.2777   28.4824   45.5855 C   0  0  0  0  0  0  0  0  0  0  0  0
   55.3854   26.1174   46.0935 N   0  0  0  0  0  0  0  0  0  0  0  0
   57.0768   25.7766   46.0100 S   0  0  0  0  0  0  0  0  0  0  0  0
   57.5447   25.2218   47.3255 O   0  0  0  0  0  0  0  0  0  0  0  0
   57.3251   24.7557   44.9370 O   0  0  0  0  0  0  0  0  0  0  0  0
   54.8759   25.2597   46.3060 H   0  0  0  0  0  0  0  0  0  0  0  0
 25 26  1  0
 26 27  2  0
 26 28  2  0
 26 19  1  0
 19 20  2  0
 20 21  1  0
 21 22  2  0
 22 23  1  0
 23 18  1  0
 18  1  1  0
  1  2  2  0
  1  3  2  0
  1  4  1  0
  4  5  2  0
  5  6  1  0
  6  7  2  0
  7 10  1  0
 10 11  1  0
 11 12  2  0
 11 13  1  0
 13 14  1  0
 14 15  1  0
 15 16  1  0
 16 17  2  0
  7  8  1  0
  8  9  2  0
 23 24  2  0
 24 19  1  0
  9  4  1  0
 16 10  1  0
 25 29  1  0
M  CHG 1  18  -1
M  CHG 1  25  -1
M  END
> <UniqueID>
1

> <SMILES>
[NH-]S(=O)(=O)c1cccc([N-]S(=O)(=O)c2ccc(N3C(=O)CCCC3=O)cc2)c1

> <Energy>
53.88909786786279

> <Genealogy>
[NH-]S(=O)(=O)c1cccc([N-]S(=O)(=O)c2ccc(N3C(=O)CCCC3=O)cc2)c1 (protonated)
[NH-]S(=O)(=O)c1cccc([N-]S(=O)(=O)c2ccc(N3C(=O)CCCC3=O)cc2)c1 (3D coordinates assigned)
[NH-]S(=O)(=O)c1cccc([N-]S(=O)(=O)c2ccc(N3C(=O)CCCC3=O)cc2)c1 (nonaromatic ring conformer: 53.88909786786279 kcal/mol)

> <smiles>
NS(=O)(=O)c1cccc(NS(=O)(=O)c2ccc(N3C(=O)CCCC3=O)cc2)c1

> <score_type>
oracle

> <origin>
adg

> <m_score__min__energy>
-14.06

> <m_primary>
energy

> <minimizedAffinity>
-8.77309

> <minimizedRMSD>
0.68497

> <CNNscore>
0.7554252744

> <CNNaffinity>
7.1231493950

> <CNN_VS>
5.3810071945

> <CNNaffinity_variance>
0.1574590057

$$$$
68:0


 27 29  0  0  0  0  0  0  0  0999 V2000
   59.2407   29.4851   48.7593 C   0  0  0  0  0  0  0  0  0  0  0  0
   58.7041   29.5514   49.8959 O   0  0  0  0  0  0  0  0  0  0  0  0
   59.6424   30.7002   48.1116 N   0  0  0  0  0  0  0  0  0  0  0  0
   57.8183   31.0669   44.8470 C   0  0  0  0  0  0  0  0  0  0  0  0
   58.0013   32.4359   44.6080 C   0  0  0  0  0  0  0  0  0  0  0  0
   58.7347   33.2112   45.5091 C   0  0  0  0  0  0  0  0  0  0  0  0
   59.2735   32.6292   46.6596 C   0  0  0  0  0  0  0  0  0  0  0  0
   59.0663   31.2706   46.9289 C   0  0  0  0  0  0  0  0  0  0  0  0
   58.3573   30.4855   46.0015 C   0  0  0  0  0  0  0  0  0  0  0  0
   55.3487   29.7256   44.3936 N   0  0  0  0  0  0  0  0  0  0  0  0
   56.8995   30.0759   43.7181 S   0  0  0  0  0  0  0  0  0  0  0  0
   57.6358   28.7916   43.4607 O   0  0  0  0  0  0  0  0  0  0  0  0
   56.7220   30.8022   42.4139 O   0  0  0  0  0  0  0  0  0  0  0  0
   54.8152   29.1516   43.7407 H   0  0  0  0  0  0  0  0  0  0  0  0
   59.4169   28.1433   48.1112 C   0  0  0  0  0  0  0  0  0  0  0  0
   58.2796   27.8433   47.3103 O   0  0  0  0  0  0  0  0  0  0  0  0
   58.1033   26.6280   46.6706 N   0  0  0  0  0  0  0  0  0  0  0  0
   59.0988   25.7689   46.3816 C   0  0  0  0  0  0  0  0  0  0  0  0
   60.4353   25.9902   46.6881 O   0  0  0  0  0  0  0  0  0  0  0  0
   58.5957   24.6515   45.7446 C   0  0  0  0  0  0  0  0  0  0  0  0
   57.2381   24.8369   45.6420 C   0  0  0  0  0  0  0  0  0  0  0  0
   56.9594   26.0613   46.2187 C   0  0  0  0  0  0  0  0  0  0  0  0
   55.6945   26.6261   46.3181 O   0  0  0  0  0  0  0  0  0  0  0  0
   56.3032   23.8595   45.0079 C   0  0  0  0  0  0  0  0  0  0  0  0
   57.0346   22.6297   44.5020 C   0  0  0  0  0  0  0  0  0  0  0  0
   58.3701   22.4486   44.6012 C   0  0  0  0  0  0  0  0  0  0  0  0
   59.3189   23.4486   45.2340 C   0  0  0  0  0  0  0  0  0  0  0  0
 10 11  1  0
 11 12  2  0
 11 13  2  0
 11  4  1  0
  4  5  2  0
  5  6  1  0
  6  7  2  0
  7  8  1  0
  8  3  1  0
  3  1  1  0
  1  2  2  0
  1 15  1  0
 15 16  1  0
 16 17  1  0
 17 18  1  0
 18 19  1  0
 18 20  2  0
 20 21  1  0
 21 22  2  0
 22 23  1  0
 21 24  1  0
 24 25  1  0
 25 26  2  0
 26 27  1  0
  8  9  2  0
  9  4  1  0
 22 17  1  0
 27 20  1  0
 10 14  1  0
M  CHG 1   3  -1
M  CHG 1  10  -1
M  CHG 1  19  -1
M  CHG 1  23  -1
M  END
> <UniqueID>
63

> <SMILES>
[NH-]S(=O)(=O)c1cccc([N-]C(=O)COn2c([O-])c3c(c2[O-])CC=CC3)c1

> <Energy>
77.35747972568913

> <Genealogy>
[NH-]S(=O)(=O)c1cccc([N-]C(=O)COn2c([O-])c3c(c2[O-])CC=CC3)c1 (protonated)
[NH-]S(=O)(=O)c1cccc([N-]C(=O)COn2c([O-])c3c(c2[O-])CC=CC3)c1 (3D coordinates assigned)
[NH-]S(=O)(=O)c1cccc([N-]C(=O)COn2c([O-])c3c(c2[O-])CC=CC3)c1 (nonaromatic ring conformer: 77.35747972568913 kcal/mol)

> <smiles>
NS(=O)(=O)c1cccc(NC(=O)COn2c(O)c3c(c2O)CC=CC3)c1

> <score_type>
oracle

> <origin>
adg

> <m_score__min__energy>
-15.91

> <m_primary>
energy

> <minimizedAffinity>
-7.41704

> <minimizedRMSD>
0.65370

> <CNNscore>
0.6754620075

> <CNNaffinity>
6.6311106682

> <CNN_VS>
4.4790635109

> <CNNaffinity_variance>
0.2590210140

$$$$
43:0


 31 33  0  0  0  0  0  0  0  0999 V2000
   58.6158   32.5520   46.8918 N   0  0  0  0  0  0  0  0  0  0  0  0
   59.1384   33.6016   47.7151 C   0  0  0  0  0  0  0  0  0  0  0  0
   59.0252   34.7909   47.3125 O   0  0  0  0  0  0  0  0  0  0  0  0
   59.8589   33.3027   49.0179 C   0  0  0  0  0  0  0  0  0  0  0  0
   61.3648   33.1934   48.8335 C   0  0  0  0  0  0  0  0  0  0  0  0
   62.2510   33.4242   49.9053 C   0  0  0  0  0  0  0  0  0  0  0  0
   63.6324   33.3159   49.7188 C   0  0  0  0  0  0  0  0  0  0  0  0
   64.1457   32.9734   48.4664 C   0  0  0  0  0  0  0  0  0  0  0  0
   63.2796   32.7347   47.3975 C   0  0  0  0  0  0  0  0  0  0  0  0
   61.8968   32.8409   47.5782 C   0  0  0  0  0  0  0  0  0  0  0  0
   59.3097   32.0731   49.7229 C   0  0  0  0  0  0  0  0  0  0  0  0
   58.3847   32.2373   50.7698 C   0  0  0  0  0  0  0  0  0  0  0  0
   57.8839   31.1271   51.4569 C   0  0  0  0  0  0  0  0  0  0  0  0
   58.3084   29.8418   51.1137 C   0  0  0  0  0  0  0  0  0  0  0  0
   59.2372   29.6634   50.0864 C   0  0  0  0  0  0  0  0  0  0  0  0
   59.7415   30.7705   49.3973 C   0  0  0  0  0  0  0  0  0  0  0  0
   58.9795   32.3301   45.4977 C   0  0  0  0  0  0  0  0  0  0  0  0
   58.0872   31.2862   44.9137 C   0  0  0  0  0  0  0  0  0  0  0  0
   57.8317   31.3020   43.6798 O   0  0  0  0  0  0  0  0  0  0  0  0
   57.5605   30.2582   45.7620 N   0  0  0  0  0  0  0  0  0  0  0  0
   57.9012   26.5630   46.1764 C   0  0  0  0  0  0  0  0  0  0  0  0
   59.2602   26.4406   46.4978 C   0  0  0  0  0  0  0  0  0  0  0  0
   60.0702   27.5771   46.5619 C   0  0  0  0  0  0  0  0  0  0  0  0
   59.5271   28.8421   46.3215 C   0  0  0  0  0  0  0  0  0  0  0  0
   58.1576   28.9808   46.0290 C   0  0  0  0  0  0  0  0  0  0  0  0
   57.3574   27.8329   45.9419 C   0  0  0  0  0  0  0  0  0  0  0  0
   55.2142   25.6250   46.0737 N   0  0  0  0  0  0  0  0  0  0  0  0
   56.8726   25.1378   46.0957 S   0  0  0  0  0  0  0  0  0  0  0  0
   57.1169   24.2581   47.2906 O   0  0  0  0  0  0  0  0  0  0  0  0
   57.1848   24.3571   44.8496 O   0  0  0  0  0  0  0  0  0  0  0  0
   54.6177   24.7989   46.0270 H   0  0  0  0  0  0  0  0  0  0  0  0
 27 28  1  0
 28 29  2  0
 28 30  2  0
 28 21  1  0
 21 22  2  0
 22 23  1  0
 23 24  2  0
 24 25  1  0
 25 20  1  0
 20 18  1  0
 18 19  2  0
 18 17  1  0
 17  1  1  0
  1  2  1  0
  2  3  2  0
  2  4  1  0
  4  5  1  0
  5  6  2  0
  6  7  1  0
  7  8  2  0
  8  9  1  0
  9 10  2  0
  4 11  1  0
 11 12  2  0
 12 13  1  0
 13 14  2  0
 14 15  1  0
 15 16  2  0
 25 26  2  0
 26 21  1  0
 10  5  1  0
 16 11  1  0
 27 31  1  0
M  CHG 1   1  -1
M  CHG 1  20  -1
M  CHG 1  27  -1
M  END
> <UniqueID>
40

> <SMILES>
[NH-]S(=O)(=O)c1cccc([N-]C(=O)C[N-]C(=O)C(c2ccccc2)c2ccccc2)c1

> <Energy>
53.326647738065155

> <Genealogy>
[NH-]S(=O)(=O)c1cccc([N-]C(=O)C[N-]C(=O)C(c2ccccc2)c2ccccc2)c1 (protonated)
[NH-]S(=O)(=O)c1cccc([N-]C(=O)C[N-]C(=O)C(c2ccccc2)c2ccccc2)c1 (3D coordinates assigned)
[NH-]S(=O)(=O)c1cccc([N-]C(=O)C[N-]C(=O)C(c2ccccc2)c2ccccc2)c1 (optimized conformer: 53.326647738065155 kcal/mol)

> <smiles>
NS(=O)(=O)c1cccc(NC(=O)CNC(=O)C(c2ccccc2)c2ccccc2)c1

> <score_type>
oracle

> <origin>
adg

> <m_score__min__energy>
-14.41

> <m_primary>
energy

> <minimizedAffinity>
-7.80641

> <minimizedRMSD>
1.44962

> <CNNscore>
0.7699013948

> <CNNaffinity>
6.8630595207

> <CNN_VS>
5.2838792801

> <CNNaffinity_variance>
0.0123549076

$$$$
54:0


 29 31  0  0  0  0  0  0  0  0999 V2000
   57.9207   31.3486   44.6187 C   0  0  0  0  0  0  0  0  0  0  0  0
   56.9221   30.7100   43.8438 C   0  0  0  0  0  0  0  0  0  0  0  0
   56.5951   29.3591   44.0586 C   0  0  0  0  0  0  0  0  0  0  0  0
   57.2845   28.6728   45.0543 C   0  0  0  0  0  0  0  0  0  0  0  0
   57.1299   27.3896   45.4170 N   0  0  0  0  0  0  0  0  0  0  0  0
   58.0106   27.1854   46.4269 C   0  0  0  0  0  0  0  0  0  0  0  0
   58.7412   28.3440   46.6898 C   0  0  0  0  0  0  0  0  0  0  0  0
   58.2536   29.2816   45.8053 C   0  0  0  0  0  0  0  0  0  0  0  0
   58.6048   30.6160   45.6183 C   0  0  0  0  0  0  0  0  0  0  0  0
   56.5064   26.7333   45.0300 H   0  0  0  0  0  0  0  0  0  0  0  0
   58.1766   25.8867   47.1081 C   0  0  0  0  0  0  0  0  0  0  0  0
   59.1594   25.7177   47.8756 O   0  0  0  0  0  0  0  0  0  0  0  0
   57.2207   24.8265   46.9692 N   0  0  0  0  0  0  0  0  0  0  0  0
   57.1425   23.8914   45.8800 C   0  0  0  0  0  0  0  0  0  0  0  0
   58.2736   23.1310   45.5287 C   0  0  0  0  0  0  0  0  0  0  0  0
   58.2155   22.2093   44.4844 C   0  0  0  0  0  0  0  0  0  0  0  0
   57.0257   22.0214   43.7875 C   0  0  0  0  0  0  0  0  0  0  0  0
   56.9720   21.1236   42.7727 F   0  0  0  0  0  0  0  0  0  0  0  0
   55.8866   22.7477   44.1365 C   0  0  0  0  0  0  0  0  0  0  0  0
   55.9177   23.6858   45.1887 C   0  0  0  0  0  0  0  0  0  0  0  0
   54.6692   24.4321   45.5213 C   0  0  0  0  0  0  0  0  0  0  0  0
   54.6926   25.8216   45.8424 N   0  0  0  0  0  0  0  0  0  0  0  0
   53.5597   23.8326   45.5225 O   0  0  0  0  0  0  0  0  0  0  0  0
   55.5468   26.3112   45.8480 H   0  0  0  0  0  0  0  0  0  0  0  0
   58.2047   32.7304   44.3573 N   0  0  0  0  0  0  0  0  0  0  0  0
   59.4982   34.8139   45.8709 C   0  0  0  0  0  0  0  0  0  0  0  0
   57.9475   34.0415   45.4632 S   0  0  0  0  0  0  0  0  0  0  0  0
   57.0043   35.0448   44.8586 O   0  0  0  0  0  0  0  0  0  0  0  0
   57.3333   33.4976   46.7210 O   0  0  0  0  0  0  0  0  0  0  0  0
 26 27  1  0
 27 28  2  0
 27 29  2  0
 27 25  1  0
 25  1  1  0
  1  2  2  0
  2  3  1  0
  3  4  2  0
  4  5  1  0
  5  6  1  0
  6 11  1  0
 11 12  2  0
 11 13  1  0
 13 14  1  0
 14 15  2  0
 15 16  1  0
 16 17  2  0
 17 18  1  0
 17 19  1  0
 19 20  2  0
 20 21  1  0
 21 22  1  0
 21 23  2  0
  6  7  2  0
  7  8  1  0
  8  9  2  0
  9  1  1  0
  8  4  1  0
 20 14  1  0
  5 10  1  0
 22 24  1  0
M  CHG 1  13  -1
M  CHG 1  22  -1
M  CHG 1  25  -1
M  END
> <UniqueID>
53

> <SMILES>
CS(=O)(=O)[N-]c1ccc2[nH]c(C(=O)[N-]c3ccc(F)cc3C([NH-])=O)cc2c1

> <Energy>
81.11197547070087

> <Genealogy>
CS(=O)(=O)[N-]c1ccc2[nH]c(C(=O)[N-]c3ccc(F)cc3C([NH-])=O)cc2c1 (protonated)
CS(=O)(=O)[N-]c1ccc2[nH]c(C(=O)[N-]c3ccc(F)cc3C([NH-])=O)cc2c1 (3D coordinates assigned)
CS(=O)(=O)[N-]c1ccc2[nH]c(C(=O)[N-]c3ccc(F)cc3C([NH-])=O)cc2c1 (optimized conformer: 81.11197547070087 kcal/mol)

> <smiles>
CS(=O)(=O)Nc1ccc2[nH]c(C(=O)Nc3ccc(F)cc3C(N)=O)cc2c1

> <score_type>
oracle

> <origin>
adg

> <m_score__min__energy>
-14.289999999999999

> <m_primary>
energy

> <minimizedAffinity>
-7.65071

> <minimizedRMSD>
0.48024

> <CNNscore>
0.5518153906

> <CNNaffinity>
6.0693264008

> <CNN_VS>
3.3491477966

> <CNNaffinity_variance>
0.5313348174

$$$$
59:0


 32 36  0  0  0  0  0  0  0  0999 V2000
   57.2335   29.8221   45.3875 N   0  0  0  0  0  0  0  0  0  0  0  0
   57.8748   28.7573   45.7664 C   0  0  0  0  0  0  0  0  0  0  0  0
   57.5773   27.5301   45.2481 N   0  0  0  0  0  0  0  0  0  0  0  0
   58.2560   26.4547   45.7144 C   0  0  0  0  0  0  0  0  0  0  0  0
   58.0633   25.1164   45.4148 C   0  0  0  0  0  0  0  0  0  0  0  0
   57.1841   24.5220   44.5985 C   0  0  0  0  0  0  0  0  0  0  0  0
   58.9615   24.4640   46.2460 C   0  0  0  0  0  0  0  0  0  0  0  0
   59.6315   25.3664   46.9942 N   0  0  0  0  0  0  0  0  0  0  0  0
   59.1988   26.5724   46.6650 N   0  0  0  0  0  0  0  0  0  0  0  0
   59.5176   27.7942   47.1976 C   0  0  0  0  0  0  0  0  0  0  0  0
   60.4294   28.0228   48.1130 N   0  0  0  0  0  0  0  0  0  0  0  0
   58.8278   28.8723   46.7337 N   0  0  0  0  0  0  0  0  0  0  0  0
   55.7844   24.2567   44.9511 C   0  0  0  0  0  0  0  0  0  0  0  0
   55.0887   23.2047   44.4834 N   0  0  0  0  0  0  0  0  0  0  0  0
   53.8424   23.4225   44.9538 C   0  0  0  0  0  0  0  0  0  0  0  0
   52.8871   22.6321   44.7373 O   0  0  0  0  0  0  0  0  0  0  0  0
   53.6960   24.5604   45.6646 N   0  0  0  0  0  0  0  0  0  0  0  0
   54.9324   25.0840   45.6485 C   0  0  0  0  0  0  0  0  0  0  0  0
   55.2567   26.3063   46.2305 O   0  0  0  0  0  0  0  0  0  0  0  0
   54.6013   26.7967   46.6864 H   0  0  0  0  0  0  0  0  0  0  0  0
   58.9068   33.0812   46.1638 C   0  0  0  0  0  0  0  0  0  0  0  0
   58.4419   31.7653   46.3004 C   0  0  0  0  0  0  0  0  0  0  0  0
   57.8044   31.1257   45.2272 C   0  0  0  0  0  0  0  0  0  0  0  0
   57.6106   31.8184   44.0262 C   0  0  0  0  0  0  0  0  0  0  0  0
   58.0935   33.1231   43.8795 C   0  0  0  0  0  0  0  0  0  0  0  0
   58.7432   33.7552   44.9447 C   0  0  0  0  0  0  0  0  0  0  0  0
   59.1953   35.0263   44.7910 F   0  0  0  0  0  0  0  0  0  0  0  0
   60.0663   34.2845   48.2142 C   0  0  0  0  0  0  0  0  0  0  0  0
   59.5381   33.7377   47.2794 C   0  0  0  0  0  0  0  0  0  0  0  0
   60.8640   29.0259   49.1067 C   0  0  0  0  0  0  0  0  0  0  0  0
   61.0407   30.4495   48.6309 C   0  0  0  0  0  0  0  0  0  0  0  0
   59.8586   30.0692   49.5409 C   0  0  0  0  0  0  0  0  0  0  0  0
 28 29  3  0
 29 21  1  0
 21 22  2  0
 22 23  1  0
 23  1  1  0
  1  2  2  0
  2  3  1  0
  3  4  2  0
  4  5  1  0
  5  6  2  0
  6 13  1  0
 13 14  1  0
 14 15  1  0
 15 16  2  0
 15 17  1  0
 17 18  1  0
 18 19  1  0
  5  7  1  0
  7  8  2  0
  8  9  1  0
  9 10  1  0
 10 11  2  0
 11 30  1  0
 30 31  1  0
 31 32  1  0
 10 12  1  0
 23 24  2  0
 24 25  1  0
 25 26  2  0
 26 27  1  0
 26 21  1  0
 12  2  1  0
  9  4  1  0
 32 30  1  0
 18 13  2  0
 19 20  1  0
M  CHG 1  12  -1
M  CHG 1  14  -1
M  CHG 1  17  -1
M  END
> <UniqueID>
57

> <SMILES>
C#Cc1cc(N=c2nc3c(=Cc4[n-]c(=O)[n-]c4O)cnn3/c(=N\C3CC3)[n-]2)ccc1F

> <Energy>
417.4179179320141

> <Genealogy>
C#Cc1cc(N=c2nc3c(=Cc4[n-]c(=O)[n-]c4O)cnn3c(=NC3CC3)[n-]2)ccc1F (protonated)
C#Cc1cc(N=c2nc3c(=Cc4[n-]c(=O)[n-]c4O)cnn3/c(=N\C3CC3)[n-]2)ccc1F (cis-trans isomerization)
C#Cc1cc(N=c2nc3c(=Cc4[n-]c(=O)[n-]c4O)cnn3/c(=N\C3CC3)[n-]2)ccc1F (3D coordinates assigned)
C#Cc1cc(N=c2nc3c(=Cc4[n-]c(=O)[n-]c4O)cnn3/c(=N\C3CC3)[n-]2)ccc1F (nonaromatic ring conformer: 417.4179179320141 kcal/mol)

> <smiles>
C#Cc1cc(N=c2nc3c(=Cc4[nH]c(=O)[nH]c4O)cnn3c(=NC3CC3)[nH]2)ccc1F

> <score_type>
oracle

> <origin>
adg

> <m_score__min__energy>
-14.609999999999999

> <m_primary>
energy

> <minimizedAffinity>
-8.15188

> <minimizedRMSD>
0.50658

> <CNNscore>
0.1091504395

> <CNNaffinity>
6.6054081917

> <CNN_VS>
0.7209832072

> <CNNaffinity_variance>
0.0383116156

$$$$
25:0


 27 28  0  0  0  0  0  0  0  0999 V2000
   58.1055   29.2454   45.0986 C   0  0  0  0  0  0  0  0  0  0  0  0
   59.5056   29.2651   45.1155 C   0  0  0  0  0  0  0  0  0  0  0  0
   60.2164   28.1460   45.5532 C   0  0  0  0  0  0  0  0  0  0  0  0
   59.5355   26.9998   45.9709 C   0  0  0  0  0  0  0  0  0  0  0  0
   58.1292   26.9604   45.9545 C   0  0  0  0  0  0  0  0  0  0  0  0
   57.4209   28.0955   45.5148 C   0  0  0  0  0  0  0  0  0  0  0  0
   57.2101   30.6404   44.5011 S   0  0  0  0  0  0  0  0  0  0  0  0
   55.7968   30.2418   44.1815 O   0  0  0  0  0  0  0  0  0  0  0  0
   57.8619   31.1345   43.2408 O   0  0  0  0  0  0  0  0  0  0  0  0
   57.1899   31.9233   45.6662 N   0  0  0  0  0  0  0  0  0  0  0  0
   58.9756   31.3322   47.8605 C   0  0  0  0  0  0  0  0  0  0  0  0
   59.1889   32.5250   46.9695 C   0  0  0  0  0  0  0  0  0  0  0  0
   60.2855   33.3764   47.1831 C   0  0  0  0  0  0  0  0  0  0  0  0
   60.4961   34.4779   46.3517 C   0  0  0  0  0  0  0  0  0  0  0  0
   59.6112   34.7458   45.3052 C   0  0  0  0  0  0  0  0  0  0  0  0
   58.5203   33.9047   45.0807 C   0  0  0  0  0  0  0  0  0  0  0  0
   58.3124   32.7794   45.8943 C   0  0  0  0  0  0  0  0  0  0  0  0
   57.4032   25.7408   46.3774 C   0  0  0  0  0  0  0  0  0  0  0  0
   56.1655   25.7903   46.6095 O   0  0  0  0  0  0  0  0  0  0  0  0
   58.1057   24.4981   46.5166 N   0  0  0  0  0  0  0  0  0  0  0  0
   58.3649   23.5720   45.4187 C   0  0  0  0  0  0  0  0  0  0  0  0
   57.3560   23.7750   44.2848 C   0  0  0  0  0  0  0  0  0  0  0  0
   55.8791   22.7879   44.4907 S   0  0  0  0  0  0  0  0  0  0  0  0
   55.3699   22.8061   46.1420 N   0  0  0  0  0  0  0  0  0  0  0  0
   56.1738   21.3727   44.0816 O   0  0  0  0  0  0  0  0  0  0  0  0
   54.7778   23.3273   43.6215 O   0  0  0  0  0  0  0  0  0  0  0  0
   56.1170   22.4401   46.7322 H   0  0  0  0  0  0  0  0  0  0  0  0
 11 12  1  0
 12 13  2  0
 13 14  1  0
 14 15  2  0
 15 16  1  0
 16 17  2  0
 17 10  1  0
 10  7  1  0
  7  8  2  0
  7  9  2  0
  7  1  1  0
  1  2  2  0
  2  3  1  0
  3  4  2  0
  4  5  1  0
  5 18  1  0
 18 19  2  0
 18 20  1  0
 20 21  1  0
 21 22  1  0
 22 23  1  0
 23 24  1  0
 23 25  2  0
 23 26  2  0
  5  6  2  0
 17 12  1  0
  6  1  1  0
 24 27  1  0
M  CHG 1  10  -1
M  CHG 1  20  -1
M  CHG 1  24  -1
M  END
> <UniqueID>
23

> <SMILES>
Cc1ccccc1[N-]S(=O)(=O)c1cccc(C(=O)[N-]CCS([NH-])(=O)=O)c1

> <Energy>
44.247326882767524

> <Genealogy>
Cc1ccccc1[N-]S(=O)(=O)c1cccc(C(=O)[N-]CCS([NH-])(=O)=O)c1 (protonated)
Cc1ccccc1[N-]S(=O)(=O)c1cccc(C(=O)[N-]CCS([NH-])(=O)=O)c1 (3D coordinates assigned)
Cc1ccccc1[N-]S(=O)(=O)c1cccc(C(=O)[N-]CCS([NH-])(=O)=O)c1 (optimized conformer: 44.247326882767524 kcal/mol)

> <smiles>
Cc1ccccc1NS(=O)(=O)c1cccc(C(=O)NCCS(N)(=O)=O)c1

> <score_type>
oracle

> <origin>
adg

> <m_score__min__energy>
-14.99

> <m_primary>
energy

> <minimizedAffinity>
-7.59241

> <minimizedRMSD>
0.94938

> <CNNscore>
0.7208566070

> <CNNaffinity>
6.9075713158

> <CNN_VS>
4.9793682098

> <CNNaffinity_variance>
0.2449608892

$$$$
54:0


 30 31  0  0  0  0  0  0  0  0999 V2000
   58.0184   31.1738   45.8868 N   0  0  0  0  0  0  0  0  0  0  0  0
   58.9115   30.5241   46.8557 C   0  0  0  0  0  0  0  0  0  0  0  0
   58.2356   32.9099   45.9658 S   0  0  0  0  0  0  0  0  0  0  0  0
   58.6075   33.4395   44.6079 O   0  0  0  0  0  0  0  0  0  0  0  0
   56.9385   33.5516   46.3722 O   0  0  0  0  0  0  0  0  0  0  0  0
   61.4828   34.0348   48.9955 C   0  0  0  0  0  0  0  0  0  0  0  0
   60.1219   34.0721   49.3563 C   0  0  0  0  0  0  0  0  0  0  0  0
   59.1358   33.7346   48.4288 C   0  0  0  0  0  0  0  0  0  0  0  0
   59.4875   33.3578   47.1288 C   0  0  0  0  0  0  0  0  0  0  0  0
   60.8385   33.3284   46.7599 C   0  0  0  0  0  0  0  0  0  0  0  0
   61.8425   33.6587   47.6914 C   0  0  0  0  0  0  0  0  0  0  0  0
   62.9039   33.5440   50.9949 C   0  0  0  0  0  0  0  0  0  0  0  0
   62.5034   34.3629   49.9020 O   0  0  0  0  0  0  0  0  0  0  0  0
   63.2068   33.6253   47.3595 O   0  0  0  0  0  0  0  0  0  0  0  0
   64.0140   32.4520   47.3832 C   0  0  0  0  0  0  0  0  0  0  0  0
   58.2794   30.6733   44.5256 C   0  0  0  0  0  0  0  0  0  0  0  0
   57.2963   29.5935   44.1591 C   0  0  0  0  0  0  0  0  0  0  0  0
   56.3729   29.8570   43.3443 O   0  0  0  0  0  0  0  0  0  0  0  0
   57.3194   28.2956   44.7716 N   0  0  0  0  0  0  0  0  0  0  0  0
   58.3582   27.2827   44.6056 C   0  0  0  0  0  0  0  0  0  0  0  0
   58.8071   26.7312   45.9248 C   0  0  0  0  0  0  0  0  0  0  0  0
   59.6723   27.3622   46.5891 O   0  0  0  0  0  0  0  0  0  0  0  0
   58.3960   25.4178   46.3300 N   0  0  0  0  0  0  0  0  0  0  0  0
   57.5824   24.5857   45.7372 C   0  0  0  0  0  0  0  0  0  0  0  0
   58.1320   23.5079   45.1128 N   0  0  0  0  0  0  0  0  0  0  0  0
   57.3849   22.5734   44.4665 C   0  0  0  0  0  0  0  0  0  0  0  0
   55.9991   22.6991   44.4198 C   0  0  0  0  0  0  0  0  0  0  0  0
   55.3958   23.7996   45.0236 C   0  0  0  0  0  0  0  0  0  0  0  0
   56.1738   24.7636   45.6729 C   0  0  0  0  0  0  0  0  0  0  0  0
   55.5348   25.8864   46.1847 O   0  0  0  0  0  0  0  0  0  0  0  0
 12 13  1  0
 13  6  1  0
  6  7  2  0
  7  8  1  0
  8  9  2  0
  9  3  1  0
  3  4  2  0
  3  5  2  0
  3  1  1  0
  1  2  1  0
  1 16  1  0
 16 17  1  0
 17 18  2  0
 17 19  1  0
 19 20  1  0
 20 21  1  0
 21 22  2  0
 21 23  1  0
 23 24  2  0
 24 25  1  0
 25 26  1  0
 26 27  2  0
 27 28  1  0
 28 29  2  0
 29 30  1  0
  9 10  1  0
 10 11  2  0
 11 14  1  0
 14 15  1  0
 11  6  1  0
 29 24  1  0
M  CHG 1  19  -1
M  CHG 1  25  -1
M  CHG 1  30  -1
M  END
> <UniqueID>
45

> <SMILES>
COc1ccc(S(=O)(=O)N(C)CC(=O)[N-]CC(=O)N=c2[n-]cccc2[O-])cc1OC

> <Energy>
54.574042862578295

> <Genealogy>
COc1ccc(S(=O)(=O)N(C)CC(=O)[N-]CC(=O)N=c2[n-]cccc2[O-])cc1OC (protonated)
COc1ccc(S(=O)(=O)N(C)CC(=O)[N-]CC(=O)N=c2[n-]cccc2[O-])cc1OC (3D coordinates assigned)
COc1ccc(S(=O)(=O)N(C)CC(=O)[N-]CC(=O)N=c2[n-]cccc2[O-])cc1OC (optimized conformer: 54.574042862578295 kcal/mol)

> <smiles>
COc1ccc(S(=O)(=O)N(C)CC(=O)NCC(=O)N=c2[nH]cccc2O)cc1OC

> <score_type>
oracle

> <origin>
adg

> <m_score__min__energy>
-15.44

> <m_primary>
energy

> <minimizedAffinity>
-6.90366

> <minimizedRMSD>
1.16844

> <CNNscore>
0.3195790052

> <CNNaffinity>
6.2020206451

> <CNN_VS>
1.9820356369

> <CNNaffinity_variance>
0.0003771701

$$$$
27:0


 31 33  0  0  0  0  0  0  0  0999 V2000
   57.6631   26.9136   46.8103 C   0  0  0  0  0  0  0  0  0  0  0  0
   58.2264   27.9584   45.9570 N   0  0  0  0  0  0  0  0  0  0  0  0
   57.5609   28.9143   45.2883 C   0  0  0  0  0  0  0  0  0  0  0  0
   56.1768   29.0273   45.2335 O   0  0  0  0  0  0  0  0  0  0  0  0
   58.4704   29.7623   44.6938 C   0  0  0  0  0  0  0  0  0  0  0  0
   59.7238   29.3665   45.0085 N   0  0  0  0  0  0  0  0  0  0  0  0
   59.5277   28.2694   45.7741 C   0  0  0  0  0  0  0  0  0  0  0  0
   60.4754   27.6129   46.2793 O   0  0  0  0  0  0  0  0  0  0  0  0
   58.1536   31.0042   43.9215 C   0  0  0  0  0  0  0  0  0  0  0  0
   57.3194   31.9648   44.7712 C   0  0  0  0  0  0  0  0  0  0  0  0
   58.2116   32.8504   45.5988 C   0  0  0  0  0  0  0  0  0  0  0  0
   58.4517   32.5509   46.9503 C   0  0  0  0  0  0  0  0  0  0  0  0
   59.2561   33.3914   47.7264 C   0  0  0  0  0  0  0  0  0  0  0  0
   59.8190   34.5390   47.1611 C   0  0  0  0  0  0  0  0  0  0  0  0
   59.5752   34.8503   45.8211 C   0  0  0  0  0  0  0  0  0  0  0  0
   58.7699   34.0130   45.0413 C   0  0  0  0  0  0  0  0  0  0  0  0
   56.3933   23.4616   45.8193 C   0  0  0  0  0  0  0  0  0  0  0  0
   56.7004   23.4389   44.4525 C   0  0  0  0  0  0  0  0  0  0  0  0
   57.3033   24.5458   43.8519 C   0  0  0  0  0  0  0  0  0  0  0  0
   57.6024   25.6810   44.6111 C   0  0  0  0  0  0  0  0  0  0  0  0
   57.2910   25.7184   45.9784 C   0  0  0  0  0  0  0  0  0  0  0  0
   56.6920   24.5992   46.5802 C   0  0  0  0  0  0  0  0  0  0  0  0
   55.6471   22.0686   46.5954 S   0  0  0  0  0  0  0  0  0  0  0  0
   54.3627   22.4587   47.2736 O   0  0  0  0  0  0  0  0  0  0  0  0
   55.3520   21.0267   45.5534 O   0  0  0  0  0  0  0  0  0  0  0  0
   56.7301   21.4082   47.7741 N   0  0  0  0  0  0  0  0  0  0  0  0
   54.9087   21.2677   51.1275 C   0  0  0  0  0  0  0  0  0  0  0  0
   55.2087   21.1758   49.7048 N   0  0  0  0  0  0  0  0  0  0  0  0
   56.4936   21.5200   49.1789 C   0  0  0  0  0  0  0  0  0  0  0  0
   57.4096   21.9210   49.9480 O   0  0  0  0  0  0  0  0  0  0  0  0
   54.5065   20.8678   49.0873 H   0  0  0  0  0  0  0  0  0  0  0  0
 27 28  1  0
 28 29  1  0
 29 30  2  0
 29 26  1  0
 26 23  1  0
 23 24  2  0
 23 25  2  0
 23 17  1  0
 17 18  2  0
 18 19  1  0
 19 20  2  0
 20 21  1  0
 21  1  1  0
  1  2  1  0
  2  3  1  0
  3  4  1  0
  3  5  2  0
  5  9  1  0
  9 10  1  0
 10 11  1  0
 11 12  2  0
 12 13  1  0
 13 14  2  0
 14 15  1  0
 15 16  2  0
  5  6  1  0
  6  7  1  0
  7  8  2  0
 21 22  2  0
 22 17  1  0
  7  2  1  0
 16 11  1  0
 28 31  1  0
M  CHG 1   4  -1
M  CHG 1   6  -1
M  CHG 1  26  -1
M  END
> <UniqueID>
26

> <SMILES>
CNC(=O)[N-]S(=O)(=O)c1cccc(Cn2c([O-])c(CCc3ccccc3)[n-]c2=O)c1

> <Energy>
76.06561422109692

> <Genealogy>
CNC(=O)[N-]S(=O)(=O)c1cccc(Cn2c([O-])c(CCc3ccccc3)[n-]c2=O)c1 (protonated)
CNC(=O)[N-]S(=O)(=O)c1cccc(Cn2c([O-])c(CCc3ccccc3)[n-]c2=O)c1 (3D coordinates assigned)
CNC(=O)[N-]S(=O)(=O)c1cccc(Cn2c([O-])c(CCc3ccccc3)[n-]c2=O)c1 (optimized conformer: 76.06561422109692 kcal/mol)

> <smiles>
CNC(=O)NS(=O)(=O)c1cccc(Cn2c(O)c(CCc3ccccc3)[nH]c2=O)c1

> <score_type>
oracle

> <origin>
adg

> <m_score__min__energy>
-14.24

> <m_primary>
energy

> <minimizedAffinity>
-7.38645

> <minimizedRMSD>
1.25414

> <CNNscore>
0.2787225544

> <CNNaffinity>
6.0171699524

> <CNN_VS>
1.6771209240

> <CNNaffinity_variance>
0.1582931876

$$$$
76:0


 36 39  0  0  0  0  0  0  0  0999 V2000
   61.2443   32.9975   47.6027 C   0  0  0  0  0  0  0  0  0  0  0  0
   62.2332   33.9307   47.9524 C   0  0  0  0  0  0  0  0  0  0  0  0
   63.4158   33.5140   48.5624 C   0  0  0  0  0  0  0  0  0  0  0  0
   63.6187   32.1638   48.8380 C   0  0  0  0  0  0  0  0  0  0  0  0
   62.6430   31.2229   48.5019 C   0  0  0  0  0  0  0  0  0  0  0  0
   61.4506   31.6179   47.8670 C   0  0  0  0  0  0  0  0  0  0  0  0
   57.7481   33.4934   45.3327 C   0  0  0  0  0  0  0  0  0  0  0  0
   57.5883   33.0846   46.8234 C   0  0  0  0  0  0  0  0  0  0  0  0
   58.7835   33.4744   47.7169 C   0  0  0  0  0  0  0  0  0  0  0  0
   60.0439   33.4607   46.9629 N   0  0  0  0  0  0  0  0  0  0  0  0
   60.1583   34.2150   45.7060 C   0  0  0  0  0  0  0  0  0  0  0  0
   58.7800   34.6309   45.1734 C   0  0  0  0  0  0  0  0  0  0  0  0
   58.0910   32.2749   44.4480 C   0  0  0  0  0  0  0  0  0  0  0  0
   57.8653   31.0363   45.1965 N   0  0  0  0  0  0  0  0  0  0  0  0
   58.0987   28.4496   43.9249 C   0  0  0  0  0  0  0  0  0  0  0  0
   57.0516   29.8630   44.2038 S   0  0  0  0  0  0  0  0  0  0  0  0
   55.8036   29.4128   44.9099 O   0  0  0  0  0  0  0  0  0  0  0  0
   56.6687   30.4856   42.8904 O   0  0  0  0  0  0  0  0  0  0  0  0
   60.4342   30.6523   47.5221 N   0  0  0  0  0  0  0  0  0  0  0  0
   60.0203   30.7264   46.6320 H   0  0  0  0  0  0  0  0  0  0  0  0
   59.8851   29.3687   48.5585 S   0  0  0  0  0  0  0  0  0  0  0  0
   60.9504   28.9611   49.5367 O   0  0  0  0  0  0  0  0  0  0  0  0
   58.7129   29.8790   49.3495 O   0  0  0  0  0  0  0  0  0  0  0  0
   59.3717   27.9855   47.5933 C   0  0  0  0  0  0  0  0  0  0  0  0
   60.3133   27.0572   47.1276 C   0  0  0  0  0  0  0  0  0  0  0  0
   59.9021   25.9410   46.3957 C   0  0  0  0  0  0  0  0  0  0  0  0
   58.5367   25.7276   46.1253 C   0  0  0  0  0  0  0  0  0  0  0  0
   57.6012   26.6821   46.5644 C   0  0  0  0  0  0  0  0  0  0  0  0
   58.0161   27.7997   47.2931 C   0  0  0  0  0  0  0  0  0  0  0  0
   58.0778   24.5311   45.3768 C   0  0  0  0  0  0  0  0  0  0  0  0
   57.0375   24.6006   44.4372 C   0  0  0  0  0  0  0  0  0  0  0  0
   56.6538   23.4458   43.7554 C   0  0  0  0  0  0  0  0  0  0  0  0
   57.3152   22.2492   44.0187 C   0  0  0  0  0  0  0  0  0  0  0  0
   56.9879   21.1925   43.4179 O   0  0  0  0  0  0  0  0  0  0  0  0
   58.3246   22.2293   44.9271 N   0  0  0  0  0  0  0  0  0  0  0  0
   58.6942   23.3331   45.5811 N   0  0  0  0  0  0  0  0  0  0  0  0
 15 16  1  0
 16 17  2  0
 16 18  2  0
 16 14  1  0
 14 13  1  0
 13  7  1  0
  7  8  1  0
  8  9  1  0
  9 10  1  0
 10  1  1  0
  1  2  2  0
  2  3  1  0
  3  4  2  0
  4  5  1  0
  5  6  2  0
  6 19  1  0
 19 21  1  0
 21 22  2  0
 21 23  2  0
 21 24  1  0
 24 25  2  0
 25 26  1  0
 26 27  2  0
 27 30  1  0
 30 31  1  0
 31 32  2  0
 32 33  1  0
 33 34  2  0
 33 35  1  0
 35 36  1  0
 27 28  1  0
 28 29  2  0
 10 11  1  0
 11 12  1  0
 12  7  1  0
  6  1  1  0
 29 24  1  0
 36 30  2  0
 19 20  1  0
M  CHG 1  14  -1
M  CHG 1  35  -1
M  END
> <UniqueID>
71

> <SMILES>
CS(=O)(=O)[N-]CC1CCN(c2ccccc2NS(=O)(=O)c2ccc(-c3ccc(=O)[n-]n3)cc2)CC1

> <Energy>
71.65098056268849

> <Genealogy>
CS(=O)(=O)[N-]CC1CCN(c2ccccc2NS(=O)(=O)c2ccc(-c3ccc(=O)[n-]n3)cc2)CC1 (protonated)
CS(=O)(=O)[N-]CC1CCN(c2ccccc2NS(=O)(=O)c2ccc(-c3ccc(=O)[n-]n3)cc2)CC1 (3D coordinates assigned)
CS(=O)(=O)[N-]CC1CCN(c2ccccc2NS(=O)(=O)c2ccc(-c3ccc(=O)[n-]n3)cc2)CC1 (nonaromatic ring conformer: 71.65098056268849 kcal/mol)

> <smiles>
CS(=O)(=O)NCC1CCN(c2ccccc2NS(=O)(=O)c2ccc(-c3ccc(=O)[nH]n3)cc2)CC1

> <score_type>
oracle

> <origin>
adg

> <m_score__min__energy>
-14.449999999999999

> <m_primary>
energy

> <minimizedAffinity>
-8.79215

> <minimizedRMSD>
0.68370

> <CNNscore>
0.8164036274

> <CNNaffinity>
7.4045987129

> <CNN_VS>
6.0451412201

> <CNNaffinity_variance>
0.2921560705

$$$$
8:0


 30 32  0  0  0  0  0  0  0  0999 V2000
   58.8269   31.9046   45.5029 N   0  0  0  0  0  0  0  0  0  0  0  0
   58.4081   30.5366   45.5980 C   0  0  0  0  0  0  0  0  0  0  0  0
   58.9791   29.7298   46.5854 C   0  0  0  0  0  0  0  0  0  0  0  0
   58.5833   28.3963   46.7306 C   0  0  0  0  0  0  0  0  0  0  0  0
   57.6066   27.8443   45.8812 C   0  0  0  0  0  0  0  0  0  0  0  0
   57.0468   28.6560   44.8789 C   0  0  0  0  0  0  0  0  0  0  0  0
   57.4408   29.9884   44.7374 C   0  0  0  0  0  0  0  0  0  0  0  0
   57.1659   26.4368   46.0273 C   0  0  0  0  0  0  0  0  0  0  0  0
   57.9684   25.3097   46.0416 C   0  0  0  0  0  0  0  0  0  0  0  0
   57.0795   24.2706   46.2162 C   0  0  0  0  0  0  0  0  0  0  0  0
   55.8243   24.7507   46.2991 N   0  0  0  0  0  0  0  0  0  0  0  0
   55.8770   26.0681   46.1854 N   0  0  0  0  0  0  0  0  0  0  0  0
   57.4190   22.8445   46.3076 C   0  0  0  0  0  0  0  0  0  0  0  0
   56.8078   22.0230   47.3003 N   0  0  0  0  0  0  0  0  0  0  0  0
   58.2530   22.3421   45.5063 O   0  0  0  0  0  0  0  0  0  0  0  0
   56.1561   22.4116   47.9277 H   0  0  0  0  0  0  0  0  0  0  0  0
   59.0180   32.9854   46.8449 S   0  0  0  0  0  0  0  0  0  0  0  0
   57.9814   32.6676   47.8851 O   0  0  0  0  0  0  0  0  0  0  0  0
   58.8203   34.3969   46.3696 O   0  0  0  0  0  0  0  0  0  0  0  0
   63.2518   32.5515   48.5229 C   0  0  0  0  0  0  0  0  0  0  0  0
   62.1796   31.8742   49.1235 C   0  0  0  0  0  0  0  0  0  0  0  0
   60.8835   32.0070   48.6167 C   0  0  0  0  0  0  0  0  0  0  0  0
   60.6422   32.8300   47.5076 C   0  0  0  0  0  0  0  0  0  0  0  0
   61.7028   33.5308   46.9240 C   0  0  0  0  0  0  0  0  0  0  0  0
   62.9992   33.4012   47.4309 C   0  0  0  0  0  0  0  0  0  0  0  0
   66.3506   32.6605   50.8733 C   0  0  0  0  0  0  0  0  0  0  0  0
   64.9966   32.9812   50.3277 C   0  0  0  0  0  0  0  0  0  0  0  0
   64.2328   33.7426   50.9811 O   0  0  0  0  0  0  0  0  0  0  0  0
   64.5717   32.4092   49.0790 N   0  0  0  0  0  0  0  0  0  0  0  0
   65.2294   31.8836   48.5687 H   0  0  0  0  0  0  0  0  0  0  0  0
 26 27  1  0
 27 28  2  0
 27 29  1  0
 29 20  1  0
 20 21  2  0
 21 22  1  0
 22 23  2  0
 23 17  1  0
 17 18  2  0
 17 19  2  0
 17  1  1  0
  1  2  1  0
  2  3  2  0
  3  4  1  0
  4  5  2  0
  5  8  1  0
  8  9  1  0
  9 10  2  0
 10 13  1  0
 13 14  1  0
 13 15  2  0
 10 11  1  0
 11 12  1  0
  5  6  1  0
  6  7  2  0
 23 24  1  0
 24 25  2  0
 25 20  1  0
  7  2  1  0
 12  8  2  0
 29 30  1  0
 14 16  1  0
M  CHG 1   1  -1
M  CHG 1  11  -1
M  CHG 1  14  -1
M  END
> <UniqueID>
9

> <SMILES>
CC(=O)Nc1ccc(S(=O)(=O)[N-]c2ccc(-c3cc(C([NH-])=O)[n-]n3)cc2)cc1

> <Energy>
78.55277467757726

> <Genealogy>
CC(=O)Nc1ccc(S(=O)(=O)[N-]c2ccc(-c3cc(C([NH-])=O)[n-]n3)cc2)cc1 (protonated)
CC(=O)Nc1ccc(S(=O)(=O)[N-]c2ccc(-c3cc(C([NH-])=O)[n-]n3)cc2)cc1 (3D coordinates assigned)
CC(=O)Nc1ccc(S(=O)(=O)[N-]c2ccc(-c3cc(C([NH-])=O)[n-]n3)cc2)cc1 (optimized conformer: 78.55277467757726 kcal/mol)

> <smiles>
CC(=O)Nc1ccc(S(=O)(=O)Nc2ccc(-c3cc(C(N)=O)[nH]n3)cc2)cc1

> <score_type>
oracle

> <origin>
adg

> <m_score__min__energy>
-14.039999999999999

> <m_primary>
energy

> <minimizedAffinity>
-8.18137

> <minimizedRMSD>
0.96725

> <CNNscore>
0.4236794710

> <CNNaffinity>
6.7847962379

> <CNN_VS>
2.8745789528

> <CNNaffinity_variance>
0.0976076424

$$$$
17:0


 28 30  0  0  0  0  0  0  0  0999 V2000
   60.4384   29.0818   51.1669 C   0  0  0  0  0  0  0  0  0  0  0  0
   60.5711   27.9963   51.7952 O   0  0  0  0  0  0  0  0  0  0  0  0
   60.8469   29.1943   49.7971 N   0  0  0  0  0  0  0  0  0  0  0  0
   58.4116   30.1057   46.4395 C   0  0  0  0  0  0  0  0  0  0  0  0
   58.5888   28.7828   46.8621 C   0  0  0  0  0  0  0  0  0  0  0  0
   59.3934   28.5001   47.9704 C   0  0  0  0  0  0  0  0  0  0  0  0
   60.0182   29.5338   48.6769 C   0  0  0  0  0  0  0  0  0  0  0  0
   59.8617   30.8603   48.2341 C   0  0  0  0  0  0  0  0  0  0  0  0
   59.0571   31.1421   47.1259 C   0  0  0  0  0  0  0  0  0  0  0  0
   56.0493   29.3994   45.0111 N   0  0  0  0  0  0  0  0  0  0  0  0
   57.3972   30.4796   45.0499 S   0  0  0  0  0  0  0  0  0  0  0  0
   58.2006   30.3319   43.7880 O   0  0  0  0  0  0  0  0  0  0  0  0
   56.8917   31.8918   45.1401 O   0  0  0  0  0  0  0  0  0  0  0  0
   55.4624   29.6169   44.2057 H   0  0  0  0  0  0  0  0  0  0  0  0
   59.8992   30.2849   51.8731 C   0  0  0  0  0  0  0  0  0  0  0  0
   58.4586   30.0673   52.2461 C   0  0  0  0  0  0  0  0  0  0  0  0
   58.1045   29.0561   53.1533 C   0  0  0  0  0  0  0  0  0  0  0  0
   56.7687   28.8791   53.5269 C   0  0  0  0  0  0  0  0  0  0  0  0
   55.7743   29.7256   53.0239 C   0  0  0  0  0  0  0  0  0  0  0  0
   56.1231   30.7225   52.0957 C   0  0  0  0  0  0  0  0  0  0  0  0
   57.4581   30.9041   51.7253 C   0  0  0  0  0  0  0  0  0  0  0  0
   54.4040   29.4776   53.3746 N   0  0  0  0  0  0  0  0  0  0  0  0
   53.3563   30.1854   53.0544 C   0  0  0  0  0  0  0  0  0  0  0  0
   52.4137   30.4700   54.0510 C   0  0  0  0  0  0  0  0  0  0  0  0
   51.2805   31.2271   53.7413 C   0  0  0  0  0  0  0  0  0  0  0  0
   51.1011   31.6997   52.4824 N   0  0  0  0  0  0  0  0  0  0  0  0
   52.0044   31.4604   51.4969 C   0  0  0  0  0  0  0  0  0  0  0  0
   53.1512   30.7076   51.7615 C   0  0  0  0  0  0  0  0  0  0  0  0
 10 11  1  0
 11 12  2  0
 11 13  2  0
 11  4  1  0
  4  5  2  0
  5  6  1  0
  6  7  2  0
  7  3  1  0
  3  1  1  0
  1  2  2  0
  1 15  1  0
 15 16  1  0
 16 17  2  0
 17 18  1  0
 18 19  2  0
 19 22  1  0
 22 23  2  0
 23 24  1  0
 24 25  2  0
 25 26  1  0
 26 27  1  0
 27 28  2  0
 19 20  1  0
 20 21  2  0
  7  8  1  0
  8  9  2  0
  9  4  1  0
 21 16  1  0
 28 23  1  0
 10 14  1  0
M  CHG 1   3  -1
M  CHG 1  10  -1
M  CHG 1  26  -1
M  END
> <UniqueID>
16

> <SMILES>
[NH-]S(=O)(=O)c1ccc([N-]C(=O)Cc2ccc(N=c3cc[n-]cc3)cc2)cc1

> <Energy>
56.49776474608072

> <Genealogy>
[NH-]S(=O)(=O)c1ccc([N-]C(=O)Cc2ccc(N=c3cc[n-]cc3)cc2)cc1 (protonated)
[NH-]S(=O)(=O)c1ccc([N-]C(=O)Cc2ccc(N=c3cc[n-]cc3)cc2)cc1 (3D coordinates assigned)
[NH-]S(=O)(=O)c1ccc([N-]C(=O)Cc2ccc(N=c3cc[n-]cc3)cc2)cc1 (optimized conformer: 56.49776474608072 kcal/mol)

> <smiles>
NS(=O)(=O)c1ccc(NC(=O)Cc2ccc(N=c3cc[nH]cc3)cc2)cc1

> <score_type>
oracle

> <origin>
adg

> <m_score__min__energy>
-14.199999999999999

> <m_primary>
energy

> <minimizedAffinity>
-7.04451

> <minimizedRMSD>
0.96367

> <CNNscore>
0.5575972199

> <CNNaffinity>
5.5630421638

> <CNN_VS>
3.1019368172

> <CNNaffinity_variance>
0.7928574681

$$$$
93:0


 22 23  0  0  0  0  0  0  0  0999 V2000
   56.9419   30.6748   52.1508 C   0  0  0  0  0  0  0  0  0  0  0  0
   57.4914   29.5557   52.8020 C   0  0  0  0  0  0  0  0  0  0  0  0
   56.6834   28.7323   53.5897 C   0  0  0  0  0  0  0  0  0  0  0  0
   55.3229   29.0120   53.7335 C   0  0  0  0  0  0  0  0  0  0  0  0
   54.7566   30.1146   53.0775 C   0  0  0  0  0  0  0  0  0  0  0  0
   55.5762   30.9476   52.2978 C   0  0  0  0  0  0  0  0  0  0  0  0
   57.7324   31.5579   51.3442 N   0  0  0  0  0  0  0  0  0  0  0  0
   58.9406   31.0758   50.1982 S   0  0  0  0  0  0  0  0  0  0  0  0
   60.2875   31.1586   50.8583 O   0  0  0  0  0  0  0  0  0  0  0  0
   58.6990   29.6558   49.7677 O   0  0  0  0  0  0  0  0  0  0  0  0
   58.9146   32.1760   48.7894 C   0  0  0  0  0  0  0  0  0  0  0  0
   60.3243   32.6870   48.4739 C   0  0  0  0  0  0  0  0  0  0  0  0
   59.4786   34.5607   46.9639 C   0  0  0  0  0  0  0  0  0  0  0  0
   60.3497   34.1914   48.1636 C   0  0  0  0  0  0  0  0  0  0  0  0
   53.2992   30.4397   53.2593 C   0  0  0  0  0  0  0  0  0  0  0  0
   52.6246   30.5517   51.9284 C   0  0  0  0  0  0  0  0  0  0  0  0
   52.7942   29.6773   50.9203 N   0  0  0  0  0  0  0  0  0  0  0  0
   51.9621   30.1437   49.9632 C   0  0  0  0  0  0  0  0  0  0  0  0
   51.8407   29.5877   48.8409 O   0  0  0  0  0  0  0  0  0  0  0  0
   51.2653   31.2504   50.3045 N   0  0  0  0  0  0  0  0  0  0  0  0
   51.6945   31.4920   51.5544 C   0  0  0  0  0  0  0  0  0  0  0  0
   51.2403   32.5461   52.3365 O   0  0  0  0  0  0  0  0  0  0  0  0
 13 14  1  0
 14 12  1  0
 12 11  1  0
 11  8  1  0
  8  9  2  0
  8 10  2  0
  8  7  1  0
  7  1  1  0
  1  2  2  0
  2  3  1  0
  3  4  2  0
  4  5  1  0
  5 15  1  0
 15 16  1  0
 16 17  1  0
 17 18  1  0
 18 19  2  0
 18 20  1  0
 20 21  1  0
 21 22  1  0
  5  6  2  0
  6  1  1  0
 21 16  2  0
M  CHG 1   7  -1
M  CHG 1  17  -1
M  CHG 1  20  -1
M  CHG 1  22  -1
M  END
> <UniqueID>
86

> <SMILES>
CCCCS(=O)(=O)[N-]c1cccc(Cc2[n-]c(=O)[n-]c2[O-])c1

> <Energy>
57.68727432379089

> <Genealogy>
CCCCS(=O)(=O)[N-]c1cccc(Cc2[n-]c(=O)[n-]c2[O-])c1 (protonated)
CCCCS(=O)(=O)[N-]c1cccc(Cc2[n-]c(=O)[n-]c2[O-])c1 (3D coordinates assigned)
CCCCS(=O)(=O)[N-]c1cccc(Cc2[n-]c(=O)[n-]c2[O-])c1 (optimized conformer: 57.68727432379089 kcal/mol)

> <smiles>
CCCCS(=O)(=O)Nc1cccc(Cc2[nH]c(=O)[nH]c2O)c1

> <score_type>
oracle

> <origin>
adg

> <m_score__min__energy>
-16.550000000000001

> <m_primary>
energy

> <minimizedAffinity>
-5.10485

> <minimizedRMSD>
1.18418

> <CNNscore>
0.3915021718

> <CNNaffinity>
5.4650573730

> <CNN_VS>
2.1395819187

> <CNNaffinity_variance>
0.0882921889

$$$$
46:0


 33 35  0  0  0  0  0  0  0  0999 V2000
   58.8736   29.6504   45.7138 C   0  0  0  0  0  0  0  0  0  0  0  0
   58.0698   29.1920   44.6595 C   0  0  0  0  0  0  0  0  0  0  0  0
   57.3214   30.0957   43.9004 C   0  0  0  0  0  0  0  0  0  0  0  0
   57.3657   31.4605   44.1912 C   0  0  0  0  0  0  0  0  0  0  0  0
   58.1531   31.9296   45.2493 C   0  0  0  0  0  0  0  0  0  0  0  0
   58.8986   31.0220   46.0146 C   0  0  0  0  0  0  0  0  0  0  0  0
   58.2490   33.6604   45.5629 S   0  0  0  0  0  0  0  0  0  0  0  0
   56.9758   34.3400   45.1338 O   0  0  0  0  0  0  0  0  0  0  0  0
   59.3833   34.2327   44.7620 O   0  0  0  0  0  0  0  0  0  0  0  0
   58.5424   33.9563   47.2522 N   0  0  0  0  0  0  0  0  0  0  0  0
   59.8364   34.6117   47.4643 C   0  0  0  0  0  0  0  0  0  0  0  0
   60.9261   33.6003   47.7094 C   0  0  0  0  0  0  0  0  0  0  0  0
   60.7340   32.5534   48.6284 C   0  0  0  0  0  0  0  0  0  0  0  0
   61.7629   31.6389   48.8814 C   0  0  0  0  0  0  0  0  0  0  0  0
   62.9820   31.7521   48.2051 C   0  0  0  0  0  0  0  0  0  0  0  0
   63.1697   32.7698   47.2679 C   0  0  0  0  0  0  0  0  0  0  0  0
   62.1445   33.6876   47.0129 C   0  0  0  0  0  0  0  0  0  0  0  0
   59.6849   28.6808   46.5287 C   0  0  0  0  0  0  0  0  0  0  0  0
   59.2849   26.2966   45.7429 N   0  0  0  0  0  0  0  0  0  0  0  0
   58.9648   27.3716   46.6420 C   0  0  0  0  0  0  0  0  0  0  0  0
   58.1476   27.1963   47.5873 O   0  0  0  0  0  0  0  0  0  0  0  0
   60.0709   26.4013   45.1594 H   0  0  0  0  0  0  0  0  0  0  0  0
   56.4033   23.8839   45.5262 C   0  0  0  0  0  0  0  0  0  0  0  0
   57.0951   22.6784   45.3561 C   0  0  0  0  0  0  0  0  0  0  0  0
   58.4927   22.6684   45.3229 C   0  0  0  0  0  0  0  0  0  0  0  0
   59.2045   23.8631   45.4586 C   0  0  0  0  0  0  0  0  0  0  0  0
   58.5280   25.0778   45.6429 C   0  0  0  0  0  0  0  0  0  0  0  0
   57.1200   25.0827   45.6610 C   0  0  0  0  0  0  0  0  0  0  0  0
   54.0930   25.5402   45.6697 N   0  0  0  0  0  0  0  0  0  0  0  0
   54.6438   23.9105   45.5277 S   0  0  0  0  0  0  0  0  0  0  0  0
   54.1302   23.0986   46.6845 O   0  0  0  0  0  0  0  0  0  0  0  0
   54.1171   23.3180   44.2491 O   0  0  0  0  0  0  0  0  0  0  0  0
   53.0731   25.5556   45.6705 H   0  0  0  0  0  0  0  0  0  0  0  0
 29 30  1  0
 30 31  2  0
 30 32  2  0
 30 23  1  0
 23 24  2  0
 24 25  1  0
 25 26  2  0
 26 27  1  0
 27 19  1  0
 19 20  1  0
 20 21  2  0
 20 18  1  0
 18  1  1  0
  1  2  2  0
  2  3  1  0
  3  4  2  0
  4  5  1  0
  5  7  1  0
  7  8  2  0
  7  9  2  0
  7 10  1  0
 10 11  1  0
 11 12  1  0
 12 13  2  0
 13 14  1  0
 14 15  2  0
 15 16  1  0
 16 17  2  0
  5  6  2  0
 27 28  2  0
 28 23  1  0
  6  1  1  0
 17 12  1  0
 29 33  1  0
 19 22  1  0
M  CHG 1  10  -1
M  CHG 1  29  -1
M  END
> <UniqueID>
41

> <SMILES>
[NH-]S(=O)(=O)c1cccc(NC(=O)Cc2cccc(S(=O)(=O)[N-]Cc3ccccc3)c2)c1

> <Energy>
48.80203652009044

> <Genealogy>
[NH-]S(=O)(=O)c1cccc(NC(=O)Cc2cccc(S(=O)(=O)[N-]Cc3ccccc3)c2)c1 (protonated)
[NH-]S(=O)(=O)c1cccc(NC(=O)Cc2cccc(S(=O)(=O)[N-]Cc3ccccc3)c2)c1 (3D coordinates assigned)
[NH-]S(=O)(=O)c1cccc(NC(=O)Cc2cccc(S(=O)(=O)[N-]Cc3ccccc3)c2)c1 (optimized conformer: 48.80203652009044 kcal/mol)

> <smiles>
NS(=O)(=O)c1cccc(NC(=O)Cc2cccc(S(=O)(=O)NCc3ccccc3)c2)c1

> <score_type>
oracle

> <origin>
adg

> <m_score__min__energy>
-14.460000000000001

> <m_primary>
energy

> <minimizedAffinity>
-8.47913

> <minimizedRMSD>
0.43669

> <CNNscore>
0.5998955965

> <CNNaffinity>
6.9943203926

> <CNN_VS>
4.1958618164

> <CNNaffinity_variance>
0.0012670098

$$$$
14:0


 29 31  0  0  0  0  0  0  0  0999 V2000
   58.6937   32.4582   45.4655 C   0  0  0  0  0  0  0  0  0  0  0  0
   58.1843   32.5990   44.1684 C   0  0  0  0  0  0  0  0  0  0  0  0
   57.5690   31.5170   43.5364 C   0  0  0  0  0  0  0  0  0  0  0  0
   57.4608   30.2889   44.1941 C   0  0  0  0  0  0  0  0  0  0  0  0
   57.9781   30.1247   45.4916 C   0  0  0  0  0  0  0  0  0  0  0  0
   58.5988   31.2212   46.1182 C   0  0  0  0  0  0  0  0  0  0  0  0
   57.8370   28.8284   46.1962 C   0  0  0  0  0  0  0  0  0  0  0  0
   58.3320   28.6862   47.3476 O   0  0  0  0  0  0  0  0  0  0  0  0
   57.1133   27.7420   45.6010 N   0  0  0  0  0  0  0  0  0  0  0  0
   56.4312   27.9431   44.9202 H   0  0  0  0  0  0  0  0  0  0  0  0
   57.3428   26.3982   45.9549 N   0  0  0  0  0  0  0  0  0  0  0  0
   56.4099   25.4523   46.1220 C   0  0  0  0  0  0  0  0  0  0  0  0
   55.0401   25.6741   46.0785 O   0  0  0  0  0  0  0  0  0  0  0  0
   57.0307   24.2417   46.3347 C   0  0  0  0  0  0  0  0  0  0  0  0
   58.3702   24.4170   46.2738 N   0  0  0  0  0  0  0  0  0  0  0  0
   58.5170   25.7369   46.0290 C   0  0  0  0  0  0  0  0  0  0  0  0
   59.6417   26.2767   45.8440 O   0  0  0  0  0  0  0  0  0  0  0  0
   59.4343   33.8348   46.2782 S   0  0  0  0  0  0  0  0  0  0  0  0
   59.4816   34.9935   45.3233 O   0  0  0  0  0  0  0  0  0  0  0  0
   58.6323   34.2246   47.4880 O   0  0  0  0  0  0  0  0  0  0  0  0
   61.0508   33.4457   46.7721 N   0  0  0  0  0  0  0  0  0  0  0  0
   62.1224   32.0396   50.6406 C   0  0  0  0  0  0  0  0  0  0  0  0
   61.8833   31.1497   49.5876 C   0  0  0  0  0  0  0  0  0  0  0  0
   61.5396   31.6267   48.3193 C   0  0  0  0  0  0  0  0  0  0  0  0
   61.4284   33.0019   48.0831 C   0  0  0  0  0  0  0  0  0  0  0  0
   61.6767   33.9007   49.1349 C   0  0  0  0  0  0  0  0  0  0  0  0
   62.0196   33.4237   50.4043 C   0  0  0  0  0  0  0  0  0  0  0  0
   61.6397   30.6159   52.6372 C   0  0  0  0  0  0  0  0  0  0  0  0
   62.4597   31.5131   51.8957 O   0  0  0  0  0  0  0  0  0  0  0  0
 28 29  1  0
 29 22  1  0
 22 23  2  0
 23 24  1  0
 24 25  2  0
 25 21  1  0
 21 18  1  0
 18 19  2  0
 18 20  2  0
 18  1  1  0
  1  2  2  0
  2  3  1  0
  3  4  2  0
  4  5  1  0
  5  7  1  0
  7  8  2  0
  7  9  1  0
  9 11  1  0
 11 12  1  0
 12 13  1  0
 12 14  2  0
 14 15  1  0
 15 16  1  0
 16 17  2  0
  5  6  2  0
 25 26  1  0
 26 27  2  0
 27 22  1  0
  6  1  1  0
 16 11  1  0
  9 10  1  0
M  CHG 1  13  -1
M  CHG 1  15  -1
M  CHG 1  21  -1
M  END
> <UniqueID>
14

> <SMILES>
COc1ccc([N-]S(=O)(=O)c2cccc(C(=O)Nn3c([O-])c[n-]c3=O)c2)cc1

> <Energy>
84.45972858964478

> <Genealogy>
COc1ccc([N-]S(=O)(=O)c2cccc(C(=O)Nn3c([O-])c[n-]c3=O)c2)cc1 (protonated)
COc1ccc([N-]S(=O)(=O)c2cccc(C(=O)Nn3c([O-])c[n-]c3=O)c2)cc1 (3D coordinates assigned)
COc1ccc([N-]S(=O)(=O)c2cccc(C(=O)Nn3c([O-])c[n-]c3=O)c2)cc1 (optimized conformer: 84.45972858964478 kcal/mol)

> <smiles>
COc1ccc(NS(=O)(=O)c2cccc(C(=O)Nn3c(O)c[nH]c3=O)c2)cc1

> <score_type>
oracle

> <origin>
adg

> <m_score__min__energy>
-14.76

> <m_primary>
energy

> <minimizedAffinity>
-8.16969

> <minimizedRMSD>
1.76203

> <CNNscore>
0.6367722750

> <CNNaffinity>
6.7255606651

> <CNN_VS>
4.2826504707

> <CNNaffinity_variance>
0.3472305536

$$$$
65:0


 29 31  0  0  0  0  0  0  0  0999 V2000
   58.7631   29.5709   44.5843 N   0  0  0  0  0  0  0  0  0  0  0  0
   57.5538   30.3185   44.3762 C   0  0  0  0  0  0  0  0  0  0  0  0
   56.5096   30.0438   45.0282 O   0  0  0  0  0  0  0  0  0  0  0  0
   59.5999   29.9368   44.2168 H   0  0  0  0  0  0  0  0  0  0  0  0
   57.8279   26.2252   46.0293 C   0  0  0  0  0  0  0  0  0  0  0  0
   59.0394   25.8601   46.6308 C   0  0  0  0  0  0  0  0  0  0  0  0
   60.1459   26.7087   46.5486 C   0  0  0  0  0  0  0  0  0  0  0  0
   60.0449   27.9301   45.8778 C   0  0  0  0  0  0  0  0  0  0  0  0
   58.8296   28.3234   45.2944 C   0  0  0  0  0  0  0  0  0  0  0  0
   57.7250   27.4543   45.3613 C   0  0  0  0  0  0  0  0  0  0  0  0
   54.9759   26.0449   45.9347 N   0  0  0  0  0  0  0  0  0  0  0  0
   56.4411   25.1438   46.1112 S   0  0  0  0  0  0  0  0  0  0  0  0
   56.5194   24.1305   45.0033 O   0  0  0  0  0  0  0  0  0  0  0  0
   56.4344   24.4385   47.4371 O   0  0  0  0  0  0  0  0  0  0  0  0
   54.1787   25.4106   45.9834 H   0  0  0  0  0  0  0  0  0  0  0  0
   57.5393   31.4781   43.4285 C   0  0  0  0  0  0  0  0  0  0  0  0
   58.0968   32.6640   44.0675 N   0  0  0  0  0  0  0  0  0  0  0  0
   57.9982   32.9366   45.4711 C   0  0  0  0  0  0  0  0  0  0  0  0
   56.9488   33.4616   45.9353 O   0  0  0  0  0  0  0  0  0  0  0  0
   59.1233   32.6027   46.3761 C   0  0  0  0  0  0  0  0  0  0  0  0
   58.9887   31.5791   47.3331 C   0  0  0  0  0  0  0  0  0  0  0  0
   60.0447   31.2623   48.1920 C   0  0  0  0  0  0  0  0  0  0  0  0
   61.2550   31.9651   48.1118 C   0  0  0  0  0  0  0  0  0  0  0  0
   62.3205   31.6542   48.9702 C   0  0  0  0  0  0  0  0  0  0  0  0
   63.5233   32.3612   48.8810 C   0  0  0  0  0  0  0  0  0  0  0  0
   63.6693   33.3832   47.9384 C   0  0  0  0  0  0  0  0  0  0  0  0
   62.6154   33.7008   47.0769 C   0  0  0  0  0  0  0  0  0  0  0  0
   61.4027   32.9985   47.1569 C   0  0  0  0  0  0  0  0  0  0  0  0
   60.3389   33.3086   46.2958 C   0  0  0  0  0  0  0  0  0  0  0  0
 11 12  1  0
 12 13  2  0
 12 14  2  0
 12  5  1  0
  5  6  2  0
  6  7  1  0
  7  8  2  0
  8  9  1  0
  9  1  1  0
  1  2  1  0
  2  3  2  0
  2 16  1  0
 16 17  1  0
 17 18  1  0
 18 19  2  0
 18 20  1  0
 20 21  2  0
 21 22  1  0
 22 23  2  0
 23 24  1  0
 24 25  2  0
 25 26  1  0
 26 27  2  0
 27 28  1  0
 28 29  2  0
  9 10  2  0
 10  5  1  0
 29 20  1  0
 28 23  1  0
 11 15  1  0
  1  4  1  0
M  CHG 1  11  -1
M  CHG 1  17  -1
M  END
> <UniqueID>
60

> <SMILES>
[NH-]S(=O)(=O)c1cccc(NC(=O)C[N-]C(=O)c2ccc3ccccc3c2)c1

> <Energy>
48.50812382693167

> <Genealogy>
[NH-]S(=O)(=O)c1cccc(NC(=O)C[N-]C(=O)c2ccc3ccccc3c2)c1 (protonated)
[NH-]S(=O)(=O)c1cccc(NC(=O)C[N-]C(=O)c2ccc3ccccc3c2)c1 (3D coordinates assigned)
[NH-]S(=O)(=O)c1cccc(NC(=O)C[N-]C(=O)c2ccc3ccccc3c2)c1 (optimized conformer: 48.50812382693167 kcal/mol)

> <smiles>
NS(=O)(=O)c1cccc(NC(=O)CNC(=O)c2ccc3ccccc3c2)c1

> <score_type>
oracle

> <origin>
adg

> <m_score__min__energy>
-14.359999999999999

> <m_primary>
energy

> <minimizedAffinity>
-10.00624

> <minimizedRMSD>
1.12980

> <CNNscore>
0.8656268120

> <CNNaffinity>
7.0153336525

> <CNN_VS>
6.0726609230

> <CNNaffinity_variance>
0.0731382743

$$$$
83:0


 38 42  0  0  0  0  0  0  0  0999 V2000
   55.7201   25.9001   46.0270 N   0  0  0  0  0  0  0  0  0  0  0  0
   56.5598   26.8834   45.9088 C   0  0  0  0  0  0  0  0  0  0  0  0
   56.1826   28.0647   45.3506 N   0  0  0  0  0  0  0  0  0  0  0  0
   57.0700   29.0854   45.2368 C   0  0  0  0  0  0  0  0  0  0  0  0
   56.6871   30.2078   44.7081 N   0  0  0  0  0  0  0  0  0  0  0  0
   58.3466   28.9170   45.6800 N   0  0  0  0  0  0  0  0  0  0  0  0
   58.7328   27.7410   46.2334 C   0  0  0  0  0  0  0  0  0  0  0  0
   59.9574   27.5991   46.6400 N   0  0  0  0  0  0  0  0  0  0  0  0
   57.8333   26.7271   46.3494 N   0  0  0  0  0  0  0  0  0  0  0  0
   60.5808   28.3980   47.7001 C   0  0  0  0  0  0  0  0  0  0  0  0
   59.5631   28.6835   48.8263 C   0  0  0  0  0  0  0  0  0  0  0  0
   59.6590   30.1458   49.0328 C   0  0  0  0  0  0  0  0  0  0  0  0
   58.9969   30.8981   50.0061 C   0  0  0  0  0  0  0  0  0  0  0  0
   59.1915   32.2877   50.0327 C   0  0  0  0  0  0  0  0  0  0  0  0
   60.0375   32.9019   49.0909 C   0  0  0  0  0  0  0  0  0  0  0  0
   60.6897   32.1259   48.1193 C   0  0  0  0  0  0  0  0  0  0  0  0
   60.4837   30.7438   48.1146 C   0  0  0  0  0  0  0  0  0  0  0  0
   61.0616   29.7682   47.1637 C   0  0  0  0  0  0  0  0  0  0  0  0
   55.7889   24.6662   45.2523 C   0  0  0  0  0  0  0  0  0  0  0  0
   55.0682   22.6960   46.7337 C   0  0  0  0  0  0  0  0  0  0  0  0
   54.0484   21.8380   47.1808 C   0  0  0  0  0  0  0  0  0  0  0  0
   52.7446   21.9677   46.6995 C   0  0  0  0  0  0  0  0  0  0  0  0
   52.4379   22.9579   45.7690 C   0  0  0  0  0  0  0  0  0  0  0  0
   53.4356   23.8176   45.3097 C   0  0  0  0  0  0  0  0  0  0  0  0
   54.7600   23.6908   45.7672 C   0  0  0  0  0  0  0  0  0  0  0  0
   57.3122   23.9894   47.9985 N   0  0  0  0  0  0  0  0  0  0  0  0
   56.7049   22.4897   47.3853 S   0  0  0  0  0  0  0  0  0  0  0  0
   57.6287   22.0154   46.3001 O   0  0  0  0  0  0  0  0  0  0  0  0
   56.6799   21.4844   48.5008 O   0  0  0  0  0  0  0  0  0  0  0  0
   58.2526   23.8499   48.3679 H   0  0  0  0  0  0  0  0  0  0  0  0
   56.7008   24.3250   48.7428 H   0  0  0  0  0  0  0  0  0  0  0  0
   57.5355   31.0869   43.9041 C   0  0  0  0  0  0  0  0  0  0  0  0
   57.9511   32.2941   44.7023 C   0  0  0  0  0  0  0  0  0  0  0  0
   57.5163   32.4616   46.0265 C   0  0  0  0  0  0  0  0  0  0  0  0
   57.8949   33.5952   46.7553 C   0  0  0  0  0  0  0  0  0  0  0  0
   58.7060   34.5676   46.1672 C   0  0  0  0  0  0  0  0  0  0  0  0
   59.1375   34.4116   44.8466 C   0  0  0  0  0  0  0  0  0  0  0  0
   58.7578   33.2832   44.1121 C   0  0  0  0  0  0  0  0  0  0  0  0
 26 27  1  0
 27 28  2  0
 27 29  2  0
 27 20  1  0
 20 21  2  0
 21 22  1  0
 22 23  2  0
 23 24  1  0
 24 25  2  0
 25 19  1  0
 19  1  1  0
  1  2  2  0
  2  3  1  0
  3  4  1  0
  4  5  2  0
  5 32  1  0
 32 33  1  0
 33 34  2  0
 34 35  1  0
 35 36  2  0
 36 37  1  0
 37 38  2  0
  4  6  1  0
  6  7  1  0
  7  8  2  0
  8 10  1  0
 10 11  1  0
 11 12  1  0
 12 13  2  0
 13 14  1  0
 14 15  2  0
 15 16  1  0
 16 17  2  0
 17 18  1  0
  7  9  1  0
 25 20  1  0
  9  2  1  0
 38 33  1  0
 18 10  1  0
 17 12  1  0
 26 30  1  0
 26 31  1  0
M  CHG 1   3  -1
M  CHG 1   6  -1
M  CHG 1   9  -1
M  END
> <UniqueID>
76

> <SMILES>
NS(=O)(=O)c1ccccc1CN=c1[n-]c(=NCc2ccccc2)[n-]c(=NC2Cc3ccccc3C2)[n-]1

> <Energy>
73.14455869434805

> <Genealogy>
NS(=O)(=O)c1ccccc1CN=c1[n-]c(=NCc2ccccc2)[n-]c(=NC2Cc3ccccc3C2)[n-]1 (protonated)
NS(=O)(=O)c1ccccc1CN=c1[n-]c(=NCc2ccccc2)[n-]c(=NC2Cc3ccccc3C2)[n-]1 (3D coordinates assigned)
NS(=O)(=O)c1ccccc1CN=c1[n-]c(=NCc2ccccc2)[n-]c(=NC2Cc3ccccc3C2)[n-]1 (nonaromatic ring conformer: 73.14455869434805 kcal/mol)

> <smiles>
NS(=O)(=O)c1ccccc1CN=c1[nH]c(=NCc2ccccc2)[nH]c(=NC2Cc3ccccc3C2)[nH]1

> <score_type>
oracle

> <origin>
adg

> <m_score__min__energy>
-15.550000000000001

> <m_primary>
energy

> <minimizedAffinity>
-6.99959

> <minimizedRMSD>
0.57080

> <CNNscore>
0.1771580428

> <CNNaffinity>
6.6346626282

> <CNN_VS>
1.1753838062

> <CNNaffinity_variance>
0.1309660822

$$$$
19:0


 32 36  0  0  0  0  0  0  0  0999 V2000
   57.2245   24.5897   44.6217 C   0  0  0  0  0  0  0  0  0  0  0  0
   58.1461   25.2172   45.3725 C   0  0  0  0  0  0  0  0  0  0  0  0
   59.2450   24.7109   46.0628 C   0  0  0  0  0  0  0  0  0  0  0  0
   59.8940   25.7202   46.6872 N   0  0  0  0  0  0  0  0  0  0  0  0
   59.2551   26.8461   46.4219 N   0  0  0  0  0  0  0  0  0  0  0  0
   59.5187   28.1322   46.8179 C   0  0  0  0  0  0  0  0  0  0  0  0
   60.5126   28.5144   47.5855 N   0  0  0  0  0  0  0  0  0  0  0  0
   58.6711   29.1019   46.3792 N   0  0  0  0  0  0  0  0  0  0  0  0
   57.5983   28.8176   45.5813 C   0  0  0  0  0  0  0  0  0  0  0  0
   56.7954   29.7574   45.1817 N   0  0  0  0  0  0  0  0  0  0  0  0
   57.3600   27.5350   45.2019 N   0  0  0  0  0  0  0  0  0  0  0  0
   58.2035   26.5692   45.6356 C   0  0  0  0  0  0  0  0  0  0  0  0
   55.1509   26.3506   46.1014 O   0  0  0  0  0  0  0  0  0  0  0  0
   54.9660   25.0201   45.7355 C   0  0  0  0  0  0  0  0  0  0  0  0
   53.8337   24.3421   45.9912 N   0  0  0  0  0  0  0  0  0  0  0  0
   54.0894   23.1232   45.4746 C   0  0  0  0  0  0  0  0  0  0  0  0
   53.2566   22.1822   45.5155 O   0  0  0  0  0  0  0  0  0  0  0  0
   55.3073   22.9937   44.9112 N   0  0  0  0  0  0  0  0  0  0  0  0
   55.8684   24.2057   45.0765 C   0  0  0  0  0  0  0  0  0  0  0  0
   54.4690   26.8127   46.5481 H   0  0  0  0  0  0  0  0  0  0  0  0
   60.8092   29.0886   48.9123 C   0  0  0  0  0  0  0  0  0  0  0  0
   61.0295   30.5812   48.9972 C   0  0  0  0  0  0  0  0  0  0  0  0
   59.7454   29.9466   49.5585 C   0  0  0  0  0  0  0  0  0  0  0  0
   57.1270   30.7705   44.1786 C   0  0  0  0  0  0  0  0  0  0  0  0
   57.8094   31.9491   44.8217 C   0  0  0  0  0  0  0  0  0  0  0  0
   58.2412   33.0247   44.0318 C   0  0  0  0  0  0  0  0  0  0  0  0
   58.8544   34.1325   44.6251 C   0  0  0  0  0  0  0  0  0  0  0  0
   59.0301   34.1801   46.0114 C   0  0  0  0  0  0  0  0  0  0  0  0
   59.6330   35.2622   46.5668 F   0  0  0  0  0  0  0  0  0  0  0  0
   58.5842   33.1197   46.8161 C   0  0  0  0  0  0  0  0  0  0  0  0
   58.7881   33.1598   48.3040 C   0  0  0  0  0  0  0  0  0  0  0  0
   57.9869   32.0000   46.2149 C   0  0  0  0  0  0  0  0  0  0  0  0
 13 14  1  0
 14 15  1  0
 15 16  1  0
 16 17  2  0
 16 18  1  0
 18 19  1  0
 19  1  1  0
  1  2  2  0
  2  3  1  0
  3  4  2  0
  4  5  1  0
  5  6  1  0
  6  7  2  0
  7 21  1  0
 21 22  1  0
 22 23  1  0
  6  8  1  0
  8  9  1  0
  9 10  2  0
 10 24  1  0
 24 25  1  0
 25 26  2  0
 26 27  1  0
 27 28  2  0
 28 29  1  0
 28 30  1  0
 30 31  1  0
 30 32  2  0
  9 11  1  0
 11 12  2  0
 19 14  2  0
 12  2  1  0
 12  5  1  0
 23 21  1  0
 32 25  1  0
 13 20  1  0
M  CHG 1   8  -1
M  CHG 1  15  -1
M  CHG 1  18  -1
M  END
> <UniqueID>
18

> <SMILES>
Cc1cc(CN=c2nc3/c(=C/c4[n-]c(=O)[n-]c4O)cnn3c(=NC3CC3)[n-]2)ccc1F

> <Energy>
411.6444127276279

> <Genealogy>
Cc1cc(CN=c2nc3c(=Cc4[n-]c(=O)[n-]c4O)cnn3c(=NC3CC3)[n-]2)ccc1F (protonated)
Cc1cc(CN=c2nc3/c(=C/c4[n-]c(=O)[n-]c4O)cnn3c(=NC3CC3)[n-]2)ccc1F (cis-trans isomerization)
Cc1cc(CN=c2nc3/c(=C/c4[n-]c(=O)[n-]c4O)cnn3c(=NC3CC3)[n-]2)ccc1F (3D coordinates assigned)
Cc1cc(CN=c2nc3/c(=C/c4[n-]c(=O)[n-]c4O)cnn3c(=NC3CC3)[n-]2)ccc1F (nonaromatic ring conformer: 411.6444127276279 kcal/mol)

> <smiles>
Cc1cc(CN=c2nc3c(=Cc4[nH]c(=O)[nH]c4O)cnn3c(=NC3CC3)[nH]2)ccc1F

> <score_type>
oracle

> <origin>
adg

> <m_score__min__energy>
-14.619999999999999

> <m_primary>
energy

> <minimizedAffinity>
-8.86766

> <minimizedRMSD>
0.36349

> <CNNscore>
0.3411653638

> <CNNaffinity>
6.8313827515

> <CNN_VS>
2.3306312561

> <CNNaffinity_variance>
0.0629381612

$$$$
22:0


 28 30  0  0  0  0  0  0  0  0999 V2000
   56.8156   24.2299   46.2588 C   0  0  0  0  0  0  0  0  0  0  0  0
   57.1401   23.8000   44.9610 C   0  0  0  0  0  0  0  0  0  0  0  0
   57.6336   24.7050   44.0203 C   0  0  0  0  0  0  0  0  0  0  0  0
   57.8216   26.0446   44.3668 C   0  0  0  0  0  0  0  0  0  0  0  0
   57.5228   26.4904   45.6592 C   0  0  0  0  0  0  0  0  0  0  0  0
   57.0187   25.5786   46.6036 C   0  0  0  0  0  0  0  0  0  0  0  0
   57.0673   22.4056   47.7501 O   0  0  0  0  0  0  0  0  0  0  0  0
   56.2962   23.2776   47.2672 C   0  0  0  0  0  0  0  0  0  0  0  0
   54.9237   23.2872   47.6858 N   0  0  0  0  0  0  0  0  0  0  0  0
   53.8587   22.7362   46.9425 N   0  0  0  0  0  0  0  0  0  0  0  0
   53.3152   23.4701   45.9274 C   0  0  0  0  0  0  0  0  0  0  0  0
   53.7432   24.6286   45.6738 O   0  0  0  0  0  0  0  0  0  0  0  0
   52.2675   22.9407   45.1757 C   0  0  0  0  0  0  0  0  0  0  0  0
   51.8218   21.6936   45.4594 N   0  0  0  0  0  0  0  0  0  0  0  0
   52.3782   20.9717   46.4312 N   0  0  0  0  0  0  0  0  0  0  0  0
   53.4011   21.4667   47.1745 C   0  0  0  0  0  0  0  0  0  0  0  0
   53.9305   20.7374   48.0542 O   0  0  0  0  0  0  0  0  0  0  0  0
   57.7488   27.8709   45.9751 N   0  0  0  0  0  0  0  0  0  0  0  0
   57.3318   29.2100   44.9550 S   0  0  0  0  0  0  0  0  0  0  0  0
   55.8385   29.3791   44.9526 O   0  0  0  0  0  0  0  0  0  0  0  0
   57.7950   28.9245   43.5548 O   0  0  0  0  0  0  0  0  0  0  0  0
   58.1250   30.6738   45.5291 C   0  0  0  0  0  0  0  0  0  0  0  0
   57.7944   31.9142   44.9666 C   0  0  0  0  0  0  0  0  0  0  0  0
   58.4344   33.0782   45.4040 C   0  0  0  0  0  0  0  0  0  0  0  0
   59.4056   33.0077   46.4102 C   0  0  0  0  0  0  0  0  0  0  0  0
   60.2079   34.4669   46.9590 Cl  0  0  0  0  0  0  0  0  0  0  0  0
   59.7342   31.7714   46.9775 C   0  0  0  0  0  0  0  0  0  0  0  0
   59.0958   30.6078   46.5385 C   0  0  0  0  0  0  0  0  0  0  0  0
  7  8  2  0
  8  9  1  0
  9 10  1  0
 10 11  1  0
 11 12  2  0
 11 13  1  0
 13 14  2  0
 14 15  1  0
 15 16  1  0
 16 17  2  0
  8  1  1  0
  1  2  2  0
  2  3  1  0
  3  4  2  0
  4  5  1  0
  5 18  1  0
 18 19  1  0
 19 20  2  0
 19 21  2  0
 19 22  1  0
 22 23  2  0
 23 24  1  0
 24 25  2  0
 25 26  1  0
 25 27  1  0
 27 28  2  0
  5  6  2  0
 16 10  1  0
  6  1  1  0
 28 22  1  0
M  CHG 1   9  -1
M  CHG 1  15  -1
M  CHG 1  18  -1
M  END
> <UniqueID>
21

> <SMILES>
O=C([N-]n1c(=O)cn[n-]c1=O)c1cccc([N-]S(=O)(=O)c2ccc(Cl)cc2)c1

> <Energy>
54.86732018565452

> <Genealogy>
O=C([N-]n1c(=O)cn[n-]c1=O)c1cccc([N-]S(=O)(=O)c2ccc(Cl)cc2)c1 (protonated)
O=C([N-]n1c(=O)cn[n-]c1=O)c1cccc([N-]S(=O)(=O)c2ccc(Cl)cc2)c1 (3D coordinates assigned)
O=C([N-]n1c(=O)cn[n-]c1=O)c1cccc([N-]S(=O)(=O)c2ccc(Cl)cc2)c1 (optimized conformer: 54.86732018565452 kcal/mol)

> <smiles>
O=C(Nn1c(=O)cn[nH]c1=O)c1cccc(NS(=O)(=O)c2ccc(Cl)cc2)c1

> <score_type>
oracle

> <origin>
adg

> <m_score__min__energy>
-14.16

> <m_primary>
energy

> <minimizedAffinity>
-7.04296

> <minimizedRMSD>
1.13527

> <CNNscore>
0.1555852443

> <CNNaffinity>
5.8828372955

> <CNN_VS>
0.9152826667

> <CNNaffinity_variance>
0.0281390045

$$$$
75:0


 38 42  0  0  0  0  0  0  0  0999 V2000
   57.1400   33.6217   46.4834 O   0  0  0  0  0  0  0  0  0  0  0  0
   58.1467   33.2168   45.8409 C   0  0  0  0  0  0  0  0  0  0  0  0
   58.0477   32.0376   45.0198 N   0  0  0  0  0  0  0  0  0  0  0  0
   57.5365   32.0356   43.6456 C   0  0  0  0  0  0  0  0  0  0  0  0
   57.3164   30.5523   43.2676 C   0  0  0  0  0  0  0  0  0  0  0  0
   57.7963   29.8182   44.4673 C   0  0  0  0  0  0  0  0  0  0  0  0
   57.8588   28.4385   44.6533 C   0  0  0  0  0  0  0  0  0  0  0  0
   58.3607   27.9417   45.8706 C   0  0  0  0  0  0  0  0  0  0  0  0
   58.8028   28.8406   46.8660 C   0  0  0  0  0  0  0  0  0  0  0  0
   58.7302   30.2260   46.6526 C   0  0  0  0  0  0  0  0  0  0  0  0
   58.1992   30.6902   45.4415 C   0  0  0  0  0  0  0  0  0  0  0  0
   58.3903   26.2036   46.1503 S   0  0  0  0  0  0  0  0  0  0  0  0
   57.7710   25.8611   47.4768 O   0  0  0  0  0  0  0  0  0  0  0  0
   59.8196   25.7389   46.1443 O   0  0  0  0  0  0  0  0  0  0  0  0
   57.5162   25.3991   44.8829 N   0  0  0  0  0  0  0  0  0  0  0  0
   57.3600   25.8831   44.0399 H   0  0  0  0  0  0  0  0  0  0  0  0
   57.0097   24.0578   45.0083 C   0  0  0  0  0  0  0  0  0  0  0  0
   57.7860   22.9464   44.6227 C   0  0  0  0  0  0  0  0  0  0  0  0
   57.2853   21.6497   44.7622 C   0  0  0  0  0  0  0  0  0  0  0  0
   56.0039   21.4445   45.2769 C   0  0  0  0  0  0  0  0  0  0  0  0
   55.2187   22.5380   45.6513 C   0  0  0  0  0  0  0  0  0  0  0  0
   53.9750   22.3314   46.1491 F   0  0  0  0  0  0  0  0  0  0  0  0
   55.7146   23.8415   45.5162 C   0  0  0  0  0  0  0  0  0  0  0  0
   54.9191   24.9166   45.9003 O   0  0  0  0  0  0  0  0  0  0  0  0
   59.4117   34.0337   45.8595 C   0  0  0  0  0  0  0  0  0  0  0  0
   60.3809   33.4981   46.8691 C   0  0  0  0  0  0  0  0  0  0  0  0
   61.7171   33.6649   46.6849 N   0  0  0  0  0  0  0  0  0  0  0  0
   62.6077   33.2222   47.6077 C   0  0  0  0  0  0  0  0  0  0  0  0
   63.8411   33.3869   47.4152 O   0  0  0  0  0  0  0  0  0  0  0  0
   62.1559   32.5928   48.7685 C   0  0  0  0  0  0  0  0  0  0  0  0
   60.7705   32.4253   48.9557 C   0  0  0  0  0  0  0  0  0  0  0  0
   59.9234   32.8913   47.9964 N   0  0  0  0  0  0  0  0  0  0  0  0
   60.2275   31.7971   50.1460 N   0  0  0  0  0  0  0  0  0  0  0  0
   61.0747   31.5792   51.3286 C   0  0  0  0  0  0  0  0  0  0  0  0
   60.4358   30.6122   52.3315 C   0  0  0  0  0  0  0  0  0  0  0  0
   59.0768   30.9238   52.5404 O   0  0  0  0  0  0  0  0  0  0  0  0
   58.3625   30.6765   51.3508 C   0  0  0  0  0  0  0  0  0  0  0  0
   58.7631   31.6722   50.2641 C   0  0  0  0  0  0  0  0  0  0  0  0
  1  2  2  0
  2 25  1  0
 25 26  1  0
 26 27  2  0
 27 28  1  0
 28 29  2  0
 28 30  1  0
 30 31  2  0
 31 33  1  0
 33 34  1  0
 34 35  1  0
 35 36  1  0
 36 37  1  0
 37 38  1  0
 31 32  1  0
  2  3  1  0
  3  4  1  0
  4  5  1  0
  5  6  1  0
  6  7  2  0
  7  8  1  0
  8 12  1  0
 12 13  2  0
 12 14  2  0
 12 15  1  0
 15 17  1  0
 17 18  2  0
 18 19  1  0
 19 20  2  0
 20 21  1  0
 21 22  1  0
 21 23  2  0
 23 24  1  0
  8  9  2  0
  9 10  1  0
 10 11  2  0
 32 26  1  0
 11  3  1  0
 38 33  1  0
 11  6  1  0
 23 17  1  0
 15 16  1  0
M  CHG 1  24  -1
M  CHG 1  32  -1
M  END
> <UniqueID>
70

> <SMILES>
O=C(Cc1nc(=O)cc(N2CCOCC2)[n-]1)N1CCc2cc(S(=O)(=O)Nc3cccc(F)c3[O-])ccc21

> <Energy>
88.1332472847087

> <Genealogy>
O=C(Cc1nc(=O)cc(N2CCOCC2)[n-]1)N1CCc2cc(S(=O)(=O)Nc3cccc(F)c3[O-])ccc21 (protonated)
O=C(Cc1nc(=O)cc(N2CCOCC2)[n-]1)N1CCc2cc(S(=O)(=O)Nc3cccc(F)c3[O-])ccc21 (3D coordinates assigned)
O=C(Cc1nc(=O)cc(N2CCOCC2)[n-]1)N1CCc2cc(S(=O)(=O)Nc3cccc(F)c3[O-])ccc21 (nonaromatic ring conformer: 88.1332472847087 kcal/mol)

> <smiles>
O=C(Cc1nc(=O)cc(N2CCOCC2)[nH]1)N1CCc2cc(S(=O)(=O)Nc3cccc(F)c3O)ccc21

> <score_type>
oracle

> <origin>
adg

> <m_score__min__energy>
-14.869999999999999

> <m_primary>
energy

> <minimizedAffinity>
-9.70965

> <minimizedRMSD>
1.06893

> <CNNscore>
0.2943060100

> <CNNaffinity>
7.2906069756

> <CNN_VS>
2.1456694603

> <CNNaffinity_variance>
0.1809290498

$$$$
78:0


 34 37  0  0  0  0  0  0  0  0999 V2000
   60.6440   31.5530   51.0603 C   0  0  0  0  0  0  0  0  0  0  0  0
   60.5474   32.4921   50.0225 C   0  0  0  0  0  0  0  0  0  0  0  0
   60.5887   32.0838   48.7270 N   0  0  0  0  0  0  0  0  0  0  0  0
   60.7259   30.7766   48.3781 C   0  0  0  0  0  0  0  0  0  0  0  0
   60.7499   30.4702   47.1106 N   0  0  0  0  0  0  0  0  0  0  0  0
   60.8714   29.8100   49.3955 C   0  0  0  0  0  0  0  0  0  0  0  0
   60.8315   30.2087   50.7324 C   0  0  0  0  0  0  0  0  0  0  0  0
   59.6330   30.1207   46.2775 C   0  0  0  0  0  0  0  0  0  0  0  0
   59.0320   31.0398   45.6624 O   0  0  0  0  0  0  0  0  0  0  0  0
   59.1162   28.7285   46.2121 C   0  0  0  0  0  0  0  0  0  0  0  0
   59.9369   27.6578   46.6070 C   0  0  0  0  0  0  0  0  0  0  0  0
   59.4701   26.3440   46.5497 C   0  0  0  0  0  0  0  0  0  0  0  0
   58.1673   26.0698   46.1058 C   0  0  0  0  0  0  0  0  0  0  0  0
   57.3440   27.1351   45.7066 C   0  0  0  0  0  0  0  0  0  0  0  0
   57.8095   28.4532   45.7600 C   0  0  0  0  0  0  0  0  0  0  0  0
   56.9659   29.4807   45.3462 O   0  0  0  0  0  0  0  0  0  0  0  0
   57.6908   24.7113   46.0288 N   0  0  0  0  0  0  0  0  0  0  0  0
   57.8578   23.9158   44.8097 C   0  0  0  0  0  0  0  0  0  0  0  0
   56.4921   23.3947   44.3214 C   0  0  0  0  0  0  0  0  0  0  0  0
   55.5221   23.1285   45.4153 N   0  0  0  0  0  0  0  0  0  0  0  0
   54.4850   24.1718   45.4943 C   0  0  0  0  0  0  0  0  0  0  0  0
   56.1658   22.8956   46.7272 C   0  0  0  0  0  0  0  0  0  0  0  0
   57.0068   24.1019   47.1745 C   0  0  0  0  0  0  0  0  0  0  0  0
   60.6154   31.9421   52.4416 N   0  0  0  0  0  0  0  0  0  0  0  0
   59.4415   32.0934   53.2494 C   0  0  0  0  0  0  0  0  0  0  0  0
   59.4656   32.9206   54.1991 O   0  0  0  0  0  0  0  0  0  0  0  0
   54.7512   28.9831   52.4135 O   0  0  0  0  0  0  0  0  0  0  0  0
   55.9043   29.7359   52.6259 C   0  0  0  0  0  0  0  0  0  0  0  0
   55.9440   31.0698   52.2114 C   0  0  0  0  0  0  0  0  0  0  0  0
   57.0941   31.8379   52.4163 C   0  0  0  0  0  0  0  0  0  0  0  0
   58.2252   31.2735   53.0311 C   0  0  0  0  0  0  0  0  0  0  0  0
   58.1726   29.9349   53.4605 C   0  0  0  0  0  0  0  0  0  0  0  0
   57.0212   29.1705   53.2544 C   0  0  0  0  0  0  0  0  0  0  0  0
   54.0096   29.3709   51.9921 H   0  0  0  0  0  0  0  0  0  0  0  0
 27 28  1  0
 28 29  2  0
 29 30  1  0
 30 31  2  0
 31 25  1  0
 25 26  2  0
 25 24  1  0
 24  1  1  0
  1  2  2  0
  2  3  1  0
  3  4  1  0
  4  5  2  0
  5  8  1  0
  8  9  2  0
  8 10  1  0
 10 11  2  0
 11 12  1  0
 12 13  2  0
 13 17  1  0
 17 18  1  0
 18 19  1  0
 19 20  1  0
 20 21  1  0
 20 22  1  0
 22 23  1  0
 13 14  1  0
 14 15  2  0
 15 16  1  0
  4  6  1  0
  6  7  2  0
 31 32  1  0
 32 33  2  0
 33 28  1  0
  7  1  1  0
 15 10  1  0
 23 17  1  0
 27 34  1  0
M  CHG 1   3  -1
M  CHG 1  16  -1
M  CHG 1  24  -1
M  END
> <UniqueID>
70

> <SMILES>
CN1CCN(c2ccc(C(=O)/N=c3\ccc([N-]C(=O)c4ccc(O)cc4)c[n-]3)c([O-])c2)CC1

> <Energy>
88.99784494113342

> <Genealogy>
CN1CCN(c2ccc(C(=O)N=c3ccc([N-]C(=O)c4ccc(O)cc4)c[n-]3)c([O-])c2)CC1 (protonated)
CN1CCN(c2ccc(C(=O)/N=c3\ccc([N-]C(=O)c4ccc(O)cc4)c[n-]3)c([O-])c2)CC1 (cis-trans isomerization)
CN1CCN(c2ccc(C(=O)/N=c3\ccc([N-]C(=O)c4ccc(O)cc4)c[n-]3)c([O-])c2)CC1 (3D coordinates assigned)
CN1CCN(c2ccc(C(=O)/N=c3\ccc([N-]C(=O)c4ccc(O)cc4)c[n-]3)c([O-])c2)CC1 (nonaromatic ring conformer: 88.99784494113342 kcal/mol)

> <smiles>
CN1CCN(c2ccc(C(=O)N=c3ccc(NC(=O)c4ccc(O)cc4)c[nH]3)c(O)c2)CC1

> <score_type>
oracle

> <origin>
adg

> <m_score__min__energy>
-14.15

> <m_primary>
energy

> <minimizedAffinity>
-8.07952

> <minimizedRMSD>
2.32789

> <CNNscore>
0.1345957816

> <CNNaffinity>
5.8583087921

> <CNN_VS>
0.7885036469

> <CNNaffinity_variance>
0.1009877101

$$$$
5:0


 30 34  0  0  0  0  0  0  0  0999 V2000
   58.5304   26.4360   45.2692 C   0  0  0  0  0  0  0  0  0  0  0  0
   58.3348   27.7659   45.2643 C   0  0  0  0  0  0  0  0  0  0  0  0
   57.8473   28.5040   44.1852 C   0  0  0  0  0  0  0  0  0  0  0  0
   57.7937   29.8185   44.5030 N   0  0  0  0  0  0  0  0  0  0  0  0
   58.2410   29.9292   45.7431 N   0  0  0  0  0  0  0  0  0  0  0  0
   58.3904   31.0625   46.4705 C   0  0  0  0  0  0  0  0  0  0  0  0
   58.0321   32.2120   45.9628 N   0  0  0  0  0  0  0  0  0  0  0  0
   58.9192   30.9457   47.7217 N   0  0  0  0  0  0  0  0  0  0  0  0
   59.2905   29.7233   48.2165 C   0  0  0  0  0  0  0  0  0  0  0  0
   59.8188   29.6121   49.3995 N   0  0  0  0  0  0  0  0  0  0  0  0
   59.1197   28.6026   47.4593 N   0  0  0  0  0  0  0  0  0  0  0  0
   58.5750   28.7313   46.2281 C   0  0  0  0  0  0  0  0  0  0  0  0
   55.5675   26.6826   45.9202 O   0  0  0  0  0  0  0  0  0  0  0  0
   56.3643   25.6018   46.2839 C   0  0  0  0  0  0  0  0  0  0  0  0
   55.9260   24.5564   47.0052 N   0  0  0  0  0  0  0  0  0  0  0  0
   57.0331   23.7938   47.1205 C   0  0  0  0  0  0  0  0  0  0  0  0
   57.0420   22.7011   47.7436 O   0  0  0  0  0  0  0  0  0  0  0  0
   58.1324   24.2984   46.5200 N   0  0  0  0  0  0  0  0  0  0  0  0
   57.6933   25.4448   45.9696 C   0  0  0  0  0  0  0  0  0  0  0  0
   54.6670   26.7086   46.1782 H   0  0  0  0  0  0  0  0  0  0  0  0
   58.7471   33.4885   45.7751 C   0  0  0  0  0  0  0  0  0  0  0  0
   59.0333   34.2697   47.0449 C   0  0  0  0  0  0  0  0  0  0  0  0
   60.1761   33.6026   46.2782 C   0  0  0  0  0  0  0  0  0  0  0  0
   60.1904   30.7304   50.2662 C   0  0  0  0  0  0  0  0  0  0  0  0
   61.6287   31.1393   50.0689 C   0  0  0  0  0  0  0  0  0  0  0  0
   62.5689   30.9072   51.0869 C   0  0  0  0  0  0  0  0  0  0  0  0
   63.8987   31.3089   50.9257 C   0  0  0  0  0  0  0  0  0  0  0  0
   64.2947   31.9660   49.7581 C   0  0  0  0  0  0  0  0  0  0  0  0
   63.3596   32.2279   48.7523 C   0  0  0  0  0  0  0  0  0  0  0  0
   62.0302   31.8271   48.9089 C   0  0  0  0  0  0  0  0  0  0  0  0
 13 14  1  0
 14 15  1  0
 15 16  1  0
 16 17  2  0
 16 18  1  0
 18 19  1  0
 19  1  1  0
  1  2  2  0
  2  3  1  0
  3  4  2  0
  4  5  1  0
  5  6  1  0
  6  7  2  0
  7 21  1  0
 21 22  1  0
 22 23  1  0
  6  8  1  0
  8  9  1  0
  9 10  2  0
 10 24  1  0
 24 25  1  0
 25 26  2  0
 26 27  1  0
 27 28  2  0
 28 29  1  0
 29 30  2  0
  9 11  1  0
 11 12  2  0
 19 14  2  0
 12  2  1  0
 12  5  1  0
 23 21  1  0
 30 25  1  0
 13 20  1  0
M  CHG 1   8  -1
M  CHG 1  15  -1
M  CHG 1  18  -1
M  END
> <UniqueID>
6

> <SMILES>
O=c1[n-]c(O)c(C=c2cnn3/c(=N/C4CC4)[n-]/c(=N\Cc4ccccc4)nc23)[n-]1

> <Energy>
393.788848526954

> <Genealogy>
O=c1[n-]c(O)c(C=c2cnn3c(=NC4CC4)[n-]c(=NCc4ccccc4)nc23)[n-]1 (protonated)
O=c1[n-]c(O)c(C=c2cnn3/c(=N/C4CC4)[n-]/c(=N\Cc4ccccc4)nc23)[n-]1 (cis-trans isomerization)
O=c1[n-]c(O)c(C=c2cnn3/c(=N/C4CC4)[n-]/c(=N\Cc4ccccc4)nc23)[n-]1 (3D coordinates assigned)
O=c1[n-]c(O)c(C=c2cnn3/c(=N/C4CC4)[n-]/c(=N\Cc4ccccc4)nc23)[n-]1 (nonaromatic ring conformer: 393.788848526954 kcal/mol)

> <smiles>
O=c1[nH]c(O)c(C=c2cnn3c(=NC4CC4)[nH]c(=NCc4ccccc4)nc23)[nH]1

> <score_type>
oracle

> <origin>
adg

> <m_score__min__energy>
-14.59

> <m_primary>
energy

> <minimizedAffinity>
-9.34031

> <minimizedRMSD>
1.41905

> <CNNscore>
0.6767875552

> <CNNaffinity>
7.0264091492

> <CNN_VS>
4.7553863525

> <CNNaffinity_variance>
0.1629038155

$$$$
74:0


 25 26  0  0  0  0  0  0  0  0999 V2000
   59.4113   30.2371   49.9853 C   0  0  0  0  0  0  0  0  0  0  0  0
   60.5007   30.7717   50.3264 O   0  0  0  0  0  0  0  0  0  0  0  0
   58.3077   30.2188   50.9080 N   0  0  0  0  0  0  0  0  0  0  0  0
   57.4824   29.7474   50.6515 H   0  0  0  0  0  0  0  0  0  0  0  0
   58.4506   29.6400   46.3517 C   0  0  0  0  0  0  0  0  0  0  0  0
   59.1086   28.4291   46.1006 C   0  0  0  0  0  0  0  0  0  0  0  0
   59.8697   27.8243   47.1032 C   0  0  0  0  0  0  0  0  0  0  0  0
   59.9693   28.4182   48.3633 C   0  0  0  0  0  0  0  0  0  0  0  0
   59.2979   29.6220   48.6403 C   0  0  0  0  0  0  0  0  0  0  0  0
   58.5435   30.2309   47.6203 C   0  0  0  0  0  0  0  0  0  0  0  0
   56.0163   29.5343   44.8821 N   0  0  0  0  0  0  0  0  0  0  0  0
   57.4934   30.4063   45.0887 S   0  0  0  0  0  0  0  0  0  0  0  0
   57.1893   31.8273   45.4755 O   0  0  0  0  0  0  0  0  0  0  0  0
   58.2587   30.4107   43.7960 O   0  0  0  0  0  0  0  0  0  0  0  0
   55.4599   29.9766   44.1506 H   0  0  0  0  0  0  0  0  0  0  0  0
   58.3679   30.8753   52.2132 C   0  0  0  0  0  0  0  0  0  0  0  0
   56.9871   30.9235   52.8651 C   0  0  0  0  0  0  0  0  0  0  0  0
   56.0138   30.2320   52.0210 N   0  0  0  0  0  0  0  0  0  0  0  0
   54.7390   30.1075   52.2603 C   0  0  0  0  0  0  0  0  0  0  0  0
   54.2211   29.1124   53.1160 C   0  0  0  0  0  0  0  0  0  0  0  0
   52.8413   29.0364   53.3254 C   0  0  0  0  0  0  0  0  0  0  0  0
   52.0071   29.9141   52.7101 N   0  0  0  0  0  0  0  0  0  0  0  0
   52.4769   30.8839   51.8812 C   0  0  0  0  0  0  0  0  0  0  0  0
   51.5894   31.7612   51.2707 O   0  0  0  0  0  0  0  0  0  0  0  0
   53.8494   30.9965   51.6424 C   0  0  0  0  0  0  0  0  0  0  0  0
 11 12  1  0
 12 13  2  0
 12 14  2  0
 12  5  1  0
  5  6  2  0
  6  7  1  0
  7  8  2  0
  8  9  1  0
  9  1  1  0
  1  2  2  0
  1  3  1  0
  3 16  1  0
 16 17  1  0
 17 18  1  0
 18 19  2  0
 19 20  1  0
 20 21  2  0
 21 22  1  0
 22 23  1  0
 23 24  1  0
 23 25  2  0
  9 10  2  0
 10  5  1  0
 25 19  1  0
 11 15  1  0
  3  4  1  0
M  CHG 1  11  -1
M  CHG 1  22  -1
M  CHG 1  24  -1
M  END
> <UniqueID>
69

> <SMILES>
[NH-]S(=O)(=O)c1cccc(C(=O)NCC/N=c2\cc[n-]c([O-])c2)c1

> <Energy>
36.93889704201148

> <Genealogy>
[NH-]S(=O)(=O)c1cccc(C(=O)NCCN=c2cc[n-]c([O-])c2)c1 (protonated)
[NH-]S(=O)(=O)c1cccc(C(=O)NCC/N=c2\cc[n-]c([O-])c2)c1 (cis-trans isomerization)
[NH-]S(=O)(=O)c1cccc(C(=O)NCC/N=c2\cc[n-]c([O-])c2)c1 (3D coordinates assigned)
[NH-]S(=O)(=O)c1cccc(C(=O)NCC/N=c2\cc[n-]c([O-])c2)c1 (optimized conformer: 36.93889704201148 kcal/mol)

> <smiles>
NS(=O)(=O)c1cccc(C(=O)NCCN=c2cc[nH]c(O)c2)c1

> <score_type>
oracle

> <origin>
adg

> <m_score__min__energy>
-15.84

> <m_primary>
energy

> <minimizedAffinity>
-6.55520

> <minimizedRMSD>
0.98532

> <CNNscore>
0.4871142507

> <CNNaffinity>
5.2787609100

> <CNN_VS>
2.5713596344

> <CNNaffinity_variance>
0.2404648066

$$$$
6:0


 28 30  0  0  0  0  0  0  0  0999 V2000
   58.9023   27.6020   45.7221 N   0  0  0  0  0  0  0  0  0  0  0  0
   59.6054   26.6101   46.3494 C   0  0  0  0  0  0  0  0  0  0  0  0
   58.9470   25.5360   46.9491 C   0  0  0  0  0  0  0  0  0  0  0  0
   57.5547   25.4743   46.9233 C   0  0  0  0  0  0  0  0  0  0  0  0
   56.8386   26.4676   46.2335 C   0  0  0  0  0  0  0  0  0  0  0  0
   55.4550   26.3876   46.1015 O   0  0  0  0  0  0  0  0  0  0  0  0
   57.5322   27.5323   45.6392 C   0  0  0  0  0  0  0  0  0  0  0  0
   56.8807   28.4160   45.0180 O   0  0  0  0  0  0  0  0  0  0  0  0
   59.6492   28.6968   45.0827 C   0  0  0  0  0  0  0  0  0  0  0  0
   60.9077   29.9259   46.6971 O   0  0  0  0  0  0  0  0  0  0  0  0
   59.8324   29.8253   46.0476 C   0  0  0  0  0  0  0  0  0  0  0  0
   58.7954   30.8019   46.2021 N   0  0  0  0  0  0  0  0  0  0  0  0
   59.0077   32.2354   46.0472 C   0  0  0  0  0  0  0  0  0  0  0  0
   59.7899   32.7774   47.2132 C   0  0  0  0  0  0  0  0  0  0  0  0
   59.2510   32.7485   48.5117 C   0  0  0  0  0  0  0  0  0  0  0  0
   59.9753   33.2758   49.5847 C   0  0  0  0  0  0  0  0  0  0  0  0
   61.2387   33.8388   49.3712 C   0  0  0  0  0  0  0  0  0  0  0  0
   61.7773   33.8765   48.0802 C   0  0  0  0  0  0  0  0  0  0  0  0
   61.0565   33.3516   47.0043 C   0  0  0  0  0  0  0  0  0  0  0  0
   56.9029   24.3555   47.5421 N   0  0  0  0  0  0  0  0  0  0  0  0
   56.9287   23.0084   47.0544 C   0  0  0  0  0  0  0  0  0  0  0  0
   57.1332   22.0509   47.8513 O   0  0  0  0  0  0  0  0  0  0  0  0
   56.7629   22.7561   45.6118 C   0  0  0  0  0  0  0  0  0  0  0  0
   55.7631   23.4032   44.8650 C   0  0  0  0  0  0  0  0  0  0  0  0
   55.6406   23.1349   43.4999 C   0  0  0  0  0  0  0  0  0  0  0  0
   56.5107   22.2299   42.8894 C   0  0  0  0  0  0  0  0  0  0  0  0
   57.4939   21.6044   43.6591 C   0  0  0  0  0  0  0  0  0  0  0  0
   57.5977   21.8774   44.9873 N   0  0  0  0  0  0  0  0  0  0  0  0
 10 11  2  0
 11  9  1  0
  9  1  1  0
  1  2  1  0
  2  3  2  0
  3  4  1  0
  4 20  1  0
 20 21  1  0
 21 22  2  0
 21 23  1  0
 23 24  2  0
 24 25  1  0
 25 26  2  0
 26 27  1  0
 27 28  2  0
  4  5  2  0
  5  6  1  0
  5  7  1  0
  7  8  2  0
 11 12  1  0
 12 13  1  0
 13 14  1  0
 14 15  2  0
 15 16  1  0
 16 17  2  0
 17 18  1  0
 18 19  2  0
  7  1  1  0
 19 14  1  0
 28 23  1  0
M  CHG 1   6  -1
M  CHG 1  12  -1
M  CHG 1  20  -1
M  END
> <UniqueID>
7

> <SMILES>
O=C(Cn1ccc([N-]C(=O)c2ccccn2)c([O-])c1=O)[N-]Cc1ccccc1

> <Energy>
51.14197403024005

> <Genealogy>
O=C(Cn1ccc([N-]C(=O)c2ccccn2)c([O-])c1=O)[N-]Cc1ccccc1 (protonated)
O=C(Cn1ccc([N-]C(=O)c2ccccn2)c([O-])c1=O)[N-]Cc1ccccc1 (3D coordinates assigned)
O=C(Cn1ccc([N-]C(=O)c2ccccn2)c([O-])c1=O)[N-]Cc1ccccc1 (optimized conformer: 51.14197403024005 kcal/mol)

> <smiles>
O=C(Cn1ccc(NC(=O)c2ccccn2)c(O)c1=O)NCc1ccccc1

> <score_type>
oracle

> <origin>
adg

> <m_score__min__energy>
-15.609999999999999

> <m_primary>
energy

> <minimizedAffinity>
-6.78452

> <minimizedRMSD>
1.63102

> <CNNscore>
0.3473729193

> <CNNaffinity>
6.1525807381

> <CNN_VS>
2.1372399330

> <CNNaffinity_variance>
0.0745369866

$$$$
73:0


 31 35  0  0  0  0  0  0  0  0999 V2000
   58.5514   26.6809   45.1260 C   0  0  0  0  0  0  0  0  0  0  0  0
   58.2882   27.9985   45.1498 C   0  0  0  0  0  0  0  0  0  0  0  0
   57.7540   28.7286   44.0968 C   0  0  0  0  0  0  0  0  0  0  0  0
   57.6420   30.0289   44.4482 N   0  0  0  0  0  0  0  0  0  0  0  0
   58.0900   30.1580   45.6843 N   0  0  0  0  0  0  0  0  0  0  0  0
   58.2209   31.2798   46.4625 C   0  0  0  0  0  0  0  0  0  0  0  0
   57.8385   32.4933   46.1374 N   0  0  0  0  0  0  0  0  0  0  0  0
   58.7933   31.1232   47.6889 N   0  0  0  0  0  0  0  0  0  0  0  0
   59.2236   29.9027   48.1293 C   0  0  0  0  0  0  0  0  0  0  0  0
   59.7716   29.7716   49.2990 N   0  0  0  0  0  0  0  0  0  0  0  0
   59.0775   28.8095   47.3391 N   0  0  0  0  0  0  0  0  0  0  0  0
   58.4928   28.9564   46.1287 C   0  0  0  0  0  0  0  0  0  0  0  0
   55.6172   26.8127   45.9233 O   0  0  0  0  0  0  0  0  0  0  0  0
   56.4572   25.7387   46.1967 C   0  0  0  0  0  0  0  0  0  0  0  0
   56.0814   24.6495   46.8866 N   0  0  0  0  0  0  0  0  0  0  0  0
   57.2126   23.9133   46.9135 C   0  0  0  0  0  0  0  0  0  0  0  0
   57.2800   22.7930   47.4816 O   0  0  0  0  0  0  0  0  0  0  0  0
   58.2681   24.4762   46.2876 N   0  0  0  0  0  0  0  0  0  0  0  0
   57.7733   25.6341   45.8141 C   0  0  0  0  0  0  0  0  0  0  0  0
   54.7296   26.8016   46.2233 H   0  0  0  0  0  0  0  0  0  0  0  0
   58.3580   33.8478   45.8628 C   0  0  0  0  0  0  0  0  0  0  0  0
   59.8498   34.0026   45.6701 C   0  0  0  0  0  0  0  0  0  0  0  0
   59.1665   34.5213   46.9476 C   0  0  0  0  0  0  0  0  0  0  0  0
   61.2083   29.8601   49.5467 C   0  0  0  0  0  0  0  0  0  0  0  0
   61.6955   31.2376   49.1721 C   0  0  0  0  0  0  0  0  0  0  0  0
   62.4037   31.4013   47.9688 C   0  0  0  0  0  0  0  0  0  0  0  0
   62.8898   32.6556   47.5960 C   0  0  0  0  0  0  0  0  0  0  0  0
   62.6846   33.7591   48.4236 C   0  0  0  0  0  0  0  0  0  0  0  0
   61.9996   33.6127   49.6314 C   0  0  0  0  0  0  0  0  0  0  0  0
   61.5099   32.3543   50.0264 C   0  0  0  0  0  0  0  0  0  0  0  0
   60.7748   32.2326   51.3356 C   0  0  0  0  0  0  0  0  0  0  0  0
 13 14  1  0
 14 15  1  0
 15 16  1  0
 16 17  2  0
 16 18  1  0
 18 19  1  0
 19  1  1  0
  1  2  2  0
  2  3  1  0
  3  4  2  0
  4  5  1  0
  5  6  1  0
  6  7  2  0
  7 21  1  0
 21 22  1  0
 22 23  1  0
  6  8  1  0
  8  9  1  0
  9 10  2  0
 10 24  1  0
 24 25  1  0
 25 26  2  0
 26 27  1  0
 27 28  2  0
 28 29  1  0
 29 30  2  0
 30 31  1  0
  9 11  1  0
 11 12  2  0
 19 14  2  0
 12  2  1  0
 12  5  1  0
 23 21  1  0
 30 25  1  0
 13 20  1  0
M  CHG 1   8  -1
M  CHG 1  15  -1
M  CHG 1  18  -1
M  END
> <UniqueID>
70

> <SMILES>
Cc1ccccc1CN=c1nc2/c(=C\c3[n-]c(=O)[n-]c3O)cnn2/c(=N\C2CC2)[n-]1

> <Energy>
414.5297179950032

> <Genealogy>
Cc1ccccc1CN=c1nc2c(=Cc3[n-]c(=O)[n-]c3O)cnn2c(=NC2CC2)[n-]1 (protonated)
Cc1ccccc1CN=c1nc2/c(=C\c3[n-]c(=O)[n-]c3O)cnn2/c(=N\C2CC2)[n-]1 (cis-trans isomerization)
Cc1ccccc1CN=c1nc2/c(=C\c3[n-]c(=O)[n-]c3O)cnn2/c(=N\C2CC2)[n-]1 (3D coordinates assigned)
Cc1ccccc1CN=c1nc2/c(=C\c3[n-]c(=O)[n-]c3O)cnn2/c(=N\C2CC2)[n-]1 (nonaromatic ring conformer: 414.5297179950032 kcal/mol)

> <smiles>
Cc1ccccc1CN=c1nc2c(=Cc3[nH]c(=O)[nH]c3O)cnn2c(=NC2CC2)[nH]1

> <score_type>
oracle

> <origin>
adg

> <m_score__min__energy>
-14.9

> <m_primary>
energy

> <minimizedAffinity>
-9.51718

> <minimizedRMSD>
0.68670

> <CNNscore>
0.7106858492

> <CNNaffinity>
7.2159314156

> <CNN_VS>
5.1282601357

> <CNNaffinity_variance>
0.0649382398

$$$$
34:0


 26 28  0  0  0  0  0  0  0  0999 V2000
   56.4715   29.9051   52.9092 C   0  0  0  0  0  0  0  0  0  0  0  0
   55.7208   30.8721   52.2319 C   0  0  0  0  0  0  0  0  0  0  0  0
   54.3354   30.7359   52.1097 C   0  0  0  0  0  0  0  0  0  0  0  0
   53.6782   29.6365   52.6840 C   0  0  0  0  0  0  0  0  0  0  0  0
   54.4273   28.6733   53.3769 C   0  0  0  0  0  0  0  0  0  0  0  0
   55.8136   28.8114   53.4986 C   0  0  0  0  0  0  0  0  0  0  0  0
   57.8599   30.0805   53.0145 O   0  0  0  0  0  0  0  0  0  0  0  0
   59.6784   29.9369   49.7579 C   0  0  0  0  0  0  0  0  0  0  0  0
   60.7270   29.0743   50.1034 C   0  0  0  0  0  0  0  0  0  0  0  0
   60.8194   28.5639   51.4002 C   0  0  0  0  0  0  0  0  0  0  0  0
   59.8607   28.9045   52.3583 C   0  0  0  0  0  0  0  0  0  0  0  0
   58.7969   29.7526   52.0237 C   0  0  0  0  0  0  0  0  0  0  0  0
   58.7238   30.2861   50.7231 C   0  0  0  0  0  0  0  0  0  0  0  0
   58.8834   32.1806   48.1922 N   0  0  0  0  0  0  0  0  0  0  0  0
   59.5790   30.6001   48.1312 S   0  0  0  0  0  0  0  0  0  0  0  0
   58.7297   29.7116   47.2650 O   0  0  0  0  0  0  0  0  0  0  0  0
   60.9553   30.6823   47.5325 O   0  0  0  0  0  0  0  0  0  0  0  0
   58.8264   32.5637   47.2486 H   0  0  0  0  0  0  0  0  0  0  0  0
   52.1934   29.4681   52.5153 C   0  0  0  0  0  0  0  0  0  0  0  0
   51.4801   30.6949   52.9908 C   0  0  0  0  0  0  0  0  0  0  0  0
   51.0116   30.9892   54.5826 S   0  0  0  0  0  0  0  0  0  0  0  0
   50.4296   32.5234   54.2137 C   0  0  0  0  0  0  0  0  0  0  0  0
   49.9073   33.3037   55.0505 O   0  0  0  0  0  0  0  0  0  0  0  0
   50.5874   32.8415   52.9107 N   0  0  0  0  0  0  0  0  0  0  0  0
   51.1800   31.8239   52.2301 C   0  0  0  0  0  0  0  0  0  0  0  0
   51.4616   31.9216   50.8736 O   0  0  0  0  0  0  0  0  0  0  0  0
 14 15  1  0
 15 16  2  0
 15 17  2  0
 15  8  1  0
  8  9  2  0
  9 10  1  0
 10 11  2  0
 11 12  1  0
 12  7  1  0
  7  1  1  0
  1  2  2  0
  2  3  1  0
  3  4  2  0
  4 19  1  0
 19 20  1  0
 20 21  1  0
 21 22  1  0
 22 23  2  0
 22 24  1  0
 24 25  1  0
 25 26  1  0
  4  5  1  0
  5  6  2  0
 12 13  2  0
 13  8  1  0
  6  1  1  0
 25 20  2  0
 14 18  1  0
M  CHG 1  14  -1
M  CHG 1  24  -1
M  CHG 1  26  -1
M  END
> <UniqueID>
28

> <SMILES>
[NH-]S(=O)(=O)c1cccc(Oc2ccc(Cc3sc(=O)[n-]c3[O-])cc2)c1

> <Energy>
73.69934885318558

> <Genealogy>
[NH-]S(=O)(=O)c1cccc(Oc2ccc(Cc3sc(=O)[n-]c3[O-])cc2)c1 (protonated)
[NH-]S(=O)(=O)c1cccc(Oc2ccc(Cc3sc(=O)[n-]c3[O-])cc2)c1 (3D coordinates assigned)
[NH-]S(=O)(=O)c1cccc(Oc2ccc(Cc3sc(=O)[n-]c3[O-])cc2)c1 (optimized conformer: 73.69934885318558 kcal/mol)

> <smiles>
NS(=O)(=O)c1cccc(Oc2ccc(Cc3sc(=O)[nH]c3O)cc2)c1

> <score_type>
oracle

> <origin>
adg

> <m_score__min__energy>
-14.880000000000001

> <m_primary>
energy

> <minimizedAffinity>
-6.38537

> <minimizedRMSD>
1.26278

> <CNNscore>
0.3151581287

> <CNNaffinity>
4.7976202965

> <CNN_VS>
1.5120090246

> <CNNaffinity_variance>
0.2470721751

$$$$
21:0


 23 24  0  0  0  0  0  0  0  0999 V2000
   60.6175   27.9817   46.6284 S   0  0  0  0  0  0  0  0  0  0  0  0
   61.7397   28.6413   45.8774 O   0  0  0  0  0  0  0  0  0  0  0  0
   60.7440   26.4903   46.4864 O   0  0  0  0  0  0  0  0  0  0  0  0
   59.0839   28.5409   45.9680 C   0  0  0  0  0  0  0  0  0  0  0  0
   57.9911   27.6713   45.9115 C   0  0  0  0  0  0  0  0  0  0  0  0
   56.7748   28.1037   45.3797 C   0  0  0  0  0  0  0  0  0  0  0  0
   55.6983   27.2258   45.3242 O   0  0  0  0  0  0  0  0  0  0  0  0
   56.6382   29.4134   44.9028 C   0  0  0  0  0  0  0  0  0  0  0  0
   55.4153   29.8067   44.3709 O   0  0  0  0  0  0  0  0  0  0  0  0
   57.7309   30.3091   44.9612 C   0  0  0  0  0  0  0  0  0  0  0  0
   58.9512   29.8526   45.4983 C   0  0  0  0  0  0  0  0  0  0  0  0
   57.6190   31.6673   44.4838 N   0  0  0  0  0  0  0  0  0  0  0  0
   57.9411   31.9527   43.3120 O   0  0  0  0  0  0  0  0  0  0  0  0
   57.1812   32.6789   45.3068 O   0  0  0  0  0  0  0  0  0  0  0  0
   60.7333   28.4020   48.3065 N   0  0  0  0  0  0  0  0  0  0  0  0
   58.6946   30.7310   50.3928 C   0  0  0  0  0  0  0  0  0  0  0  0
   59.2798   31.9711   50.0768 C   0  0  0  0  0  0  0  0  0  0  0  0
   60.3431   32.0363   49.1721 C   0  0  0  0  0  0  0  0  0  0  0  0
   60.8332   30.8714   48.5769 C   0  0  0  0  0  0  0  0  0  0  0  0
   60.2591   29.6252   48.8859 C   0  0  0  0  0  0  0  0  0  0  0  0
   59.1929   29.5675   49.7919 C   0  0  0  0  0  0  0  0  0  0  0  0
   57.2370   31.6197   52.2188 C   0  0  0  0  0  0  0  0  0  0  0  0
   57.6253   30.6114   51.2919 O   0  0  0  0  0  0  0  0  0  0  0  0
 22 23  1  0
 23 16  1  0
 16 17  2  0
 17 18  1  0
 18 19  2  0
 19 20  1  0
 20 15  1  0
 15  1  1  0
  1  2  2  0
  1  3  2  0
  1  4  1  0
  4  5  2  0
  5  6  1  0
  6  7  1  0
  6  8  2  0
  8  9  1  0
  8 10  1  0
 10 12  1  0
 12 13  2  0
 12 14  1  0
 10 11  2  0
 20 21  2  0
 21 16  1  0
 11  4  1  0
M  CHG 1   7  -1
M  CHG 1   9  -1
M  CHG 1  12   1
M  CHG 1  14  -1
M  CHG 1  15  -1
M  END
> <UniqueID>
20

> <SMILES>
COc1cccc([N-]S(=O)(=O)c2cc([O-])c([O-])c([N+](=O)[O-])c2)c1

> <Energy>
38.49084702745762

> <Genealogy>
COc1cccc([N-]S(=O)(=O)c2cc([O-])c([O-])c([N+](=O)[O-])c2)c1 (protonated)
COc1cccc([N-]S(=O)(=O)c2cc([O-])c([O-])c([N+](=O)[O-])c2)c1 (3D coordinates assigned)
COc1cccc([N-]S(=O)(=O)c2cc([O-])c([O-])c([N+](=O)[O-])c2)c1 (optimized conformer: 38.49084702745762 kcal/mol)

> <smiles>
COc1cccc(NS(=O)(=O)c2cc(O)c(O)c([N+](=O)[O-])c2)c1

> <score_type>
oracle

> <origin>
adg

> <m_score__min__energy>
-16.399999999999999

> <m_primary>
energy

> <minimizedAffinity>
-2.83047

> <minimizedRMSD>
0.88569

> <CNNscore>
0.6493317485

> <CNNaffinity>
6.4690513611

> <CNN_VS>
4.2005605698

> <CNNaffinity_variance>
1.2367024422

$$$$
5:0


 30 33  0  0  0  0  0  0  0  0999 V2000
   58.5960   31.9140   49.5815 C   0  0  0  0  0  0  0  0  0  0  0  0
   59.7499   32.7785   49.3478 N   0  0  0  0  0  0  0  0  0  0  0  0
   61.0465   32.6304   49.9828 C   0  0  0  0  0  0  0  0  0  0  0  0
   61.9373   33.6320   49.2299 C   0  0  0  0  0  0  0  0  0  0  0  0
   61.0881   34.1913   48.1838 N   0  0  0  0  0  0  0  0  0  0  0  0
   59.9009   33.6994   48.2832 C   0  0  0  0  0  0  0  0  0  0  0  0
   58.8243   34.0347   47.3922 N   0  0  0  0  0  0  0  0  0  0  0  0
   58.4469   33.3584   46.3476 C   0  0  0  0  0  0  0  0  0  0  0  0
   57.7276   32.2127   46.4647 N   0  0  0  0  0  0  0  0  0  0  0  0
   57.5598   31.8483   45.1841 C   0  0  0  0  0  0  0  0  0  0  0  0
   56.8858   30.7307   44.6978 C   0  0  0  0  0  0  0  0  0  0  0  0
   56.8401   30.5530   43.3015 C   0  0  0  0  0  0  0  0  0  0  0  0
   57.4617   31.4852   42.4411 C   0  0  0  0  0  0  0  0  0  0  0  0
   58.1345   32.6044   42.9700 C   0  0  0  0  0  0  0  0  0  0  0  0
   58.1583   32.7476   44.3548 C   0  0  0  0  0  0  0  0  0  0  0  0
   58.7350   33.7250   45.0686 N   0  0  0  0  0  0  0  0  0  0  0  0
   59.0241   30.4722   49.6524 C   0  0  0  0  0  0  0  0  0  0  0  0
   58.4928   29.7146   50.5074 O   0  0  0  0  0  0  0  0  0  0  0  0
   59.9918   29.9229   48.7495 N   0  0  0  0  0  0  0  0  0  0  0  0
   58.6272   27.4970   46.2611 C   0  0  0  0  0  0  0  0  0  0  0  0
   59.2009   27.9683   45.0714 C   0  0  0  0  0  0  0  0  0  0  0  0
   60.0505   29.0762   45.0948 C   0  0  0  0  0  0  0  0  0  0  0  0
   60.3196   29.7313   46.2989 C   0  0  0  0  0  0  0  0  0  0  0  0
   59.7198   29.2899   47.4918 C   0  0  0  0  0  0  0  0  0  0  0  0
   58.8917   28.1593   47.4671 C   0  0  0  0  0  0  0  0  0  0  0  0
   55.9277   26.6234   46.0107 N   0  0  0  0  0  0  0  0  0  0  0  0
   57.5582   26.0988   46.2377 S   0  0  0  0  0  0  0  0  0  0  0  0
   57.9469   25.1736   45.1188 O   0  0  0  0  0  0  0  0  0  0  0  0
   57.6683   25.3555   47.5394 O   0  0  0  0  0  0  0  0  0  0  0  0
   55.3085   25.8129   45.9972 H   0  0  0  0  0  0  0  0  0  0  0  0
 26 27  1  0
 27 28  2  0
 27 29  2  0
 27 20  1  0
 20 21  2  0
 21 22  1  0
 22 23  2  0
 23 24  1  0
 24 19  1  0
 19 17  1  0
 17 18  2  0
 17  1  1  0
  1  2  1  0
  2  3  1  0
  3  4  1  0
  4  5  1  0
  5  6  2  0
  6  7  1  0
  7  8  2  0
  8  9  1  0
  9 10  1  0
 10 11  2  0
 11 12  1  0
 12 13  2  0
 13 14  1  0
 14 15  2  0
 15 16  1  0
 24 25  2  0
 25 20  1  0
  6  2  1  0
 16  8  1  0
 15 10  1  0
 26 30  1  0
M  CHG 1   9  -1
M  CHG 1  16  -1
M  CHG 1  19  -1
M  CHG 1  26  -1
M  END
> <UniqueID>
6

> <SMILES>
[NH-]S(=O)(=O)c1cccc([N-]C(=O)CN2CCN=C2N=c2[n-]c3ccccc3[n-]2)c1

> <Energy>
99.77094916985382

> <Genealogy>
[NH-]S(=O)(=O)c1cccc([N-]C(=O)CN2CCN=C2N=c2[n-]c3ccccc3[n-]2)c1 (protonated)
[NH-]S(=O)(=O)c1cccc([N-]C(=O)CN2CCN=C2N=c2[n-]c3ccccc3[n-]2)c1 (3D coordinates assigned)
[NH-]S(=O)(=O)c1cccc([N-]C(=O)CN2CCN=C2N=c2[n-]c3ccccc3[n-]2)c1 (nonaromatic ring conformer: 99.77094916985382 kcal/mol)

> <smiles>
NS(=O)(=O)c1cccc(NC(=O)CN2CCN=C2N=c2[nH]c3ccccc3[nH]2)c1

> <score_type>
oracle

> <origin>
adg

> <m_score__min__energy>
-15.529999999999999

> <m_primary>
energy

> <minimizedAffinity>
-8.17048

> <minimizedRMSD>
1.45391

> <CNNscore>
0.7911317945

> <CNNaffinity>
7.0227141380

> <CNN_VS>
5.5558924675

> <CNNaffinity_variance>
0.0985271856

$$$$
13:0


 23 24  0  0  0  0  0  0  0  0999 V2000
   58.3522   26.4117   46.5420 C   0  0  0  0  0  0  0  0  0  0  0  0
   59.7479   26.4887   46.6181 C   0  0  0  0  0  0  0  0  0  0  0  0
   60.4321   27.5489   46.0230 C   0  0  0  0  0  0  0  0  0  0  0  0
   59.7282   28.5388   45.3376 C   0  0  0  0  0  0  0  0  0  0  0  0
   58.3321   28.4547   45.2034 C   0  0  0  0  0  0  0  0  0  0  0  0
   57.6457   27.3741   45.7924 C   0  0  0  0  0  0  0  0  0  0  0  0
   56.2724   27.2517   45.6119 O   0  0  0  0  0  0  0  0  0  0  0  0
   57.6938   25.3409   47.2310 N   0  0  0  0  0  0  0  0  0  0  0  0
   57.3673   23.9205   44.7356 C   0  0  0  0  0  0  0  0  0  0  0  0
   56.9054   24.0046   46.4558 S   0  0  0  0  0  0  0  0  0  0  0  0
   57.2580   22.7208   47.1517 O   0  0  0  0  0  0  0  0  0  0  0  0
   55.4196   24.2123   46.5329 O   0  0  0  0  0  0  0  0  0  0  0  0
   57.5827   29.5737   44.5295 C   0  0  0  0  0  0  0  0  0  0  0  0
   57.4912   30.7054   45.4447 N   0  0  0  0  0  0  0  0  0  0  0  0
   58.0492   31.9964   45.1750 C   0  0  0  0  0  0  0  0  0  0  0  0
   57.9985   32.4804   44.0128 O   0  0  0  0  0  0  0  0  0  0  0  0
   58.7211   32.7237   46.2060 N   0  0  0  0  0  0  0  0  0  0  0  0
   59.4111   32.1373   47.3171 C   0  0  0  0  0  0  0  0  0  0  0  0
   60.6433   31.5079   47.0939 C   0  0  0  0  0  0  0  0  0  0  0  0
   61.3567   30.9513   48.1606 C   0  0  0  0  0  0  0  0  0  0  0  0
   60.8505   31.0370   49.4606 C   0  0  0  0  0  0  0  0  0  0  0  0
   59.6354   31.6861   49.6972 C   0  0  0  0  0  0  0  0  0  0  0  0
   58.9190   32.2410   48.6321 C   0  0  0  0  0  0  0  0  0  0  0  0
  9 10  1  0
 10 11  2  0
 10 12  2  0
 10  8  1  0
  8  1  1  0
  1  2  2  0
  2  3  1  0
  3  4  2  0
  4  5  1  0
  5 13  1  0
 13 14  1  0
 14 15  1  0
 15 16  2  0
 15 17  1  0
 17 18  1  0
 18 19  2  0
 19 20  1  0
 20 21  2  0
 21 22  1  0
 22 23  2  0
  5  6  2  0
  6  7  1  0
  6  1  1  0
 23 18  1  0
M  CHG 1   7  -1
M  CHG 1   8  -1
M  CHG 1  14  -1
M  CHG 1  17  -1
M  END
> <UniqueID>
12

> <SMILES>
CS(=O)(=O)[N-]c1cccc(C[N-]C(=O)[N-]c2ccccc2)c1[O-]

> <Energy>
41.28669170534845

> <Genealogy>
CS(=O)(=O)[N-]c1cccc(C[N-]C(=O)[N-]c2ccccc2)c1[O-] (protonated)
CS(=O)(=O)[N-]c1cccc(C[N-]C(=O)[N-]c2ccccc2)c1[O-] (3D coordinates assigned)
CS(=O)(=O)[N-]c1cccc(C[N-]C(=O)[N-]c2ccccc2)c1[O-] (optimized conformer: 41.28669170534845 kcal/mol)

> <smiles>
CS(=O)(=O)Nc1cccc(CNC(=O)Nc2ccccc2)c1O

> <score_type>
oracle

> <origin>
adg

> <m_score__min__energy>
-16.030000000000001

> <m_primary>
energy

> <minimizedAffinity>
-6.48809

> <minimizedRMSD>
2.56613

> <CNNscore>
0.6868168712

> <CNNaffinity>
6.4011778831

> <CNN_VS>
4.3964371681

> <CNNaffinity_variance>
0.4441639483

$$$$
18:0


 33 36  0  0  0  0  0  0  0  0999 V2000
   58.7601   31.3010   46.3750 N   0  0  0  0  0  0  0  0  0  0  0  0
   58.2291   31.7728   45.2263 C   0  0  0  0  0  0  0  0  0  0  0  0
   58.3156   33.1949   44.7622 C   0  0  0  0  0  0  0  0  0  0  0  0
   57.5970   30.7583   44.5385 C   0  0  0  0  0  0  0  0  0  0  0  0
   57.7221   29.6120   45.3071 C   0  0  0  0  0  0  0  0  0  0  0  0
   57.1549   28.4403   44.9620 C   0  0  0  0  0  0  0  0  0  0  0  0
   58.4900   29.9727   46.4274 C   0  0  0  0  0  0  0  0  0  0  0  0
   58.9916   29.1547   47.3680 C   0  0  0  0  0  0  0  0  0  0  0  0
   61.7787   34.2927   50.0897 O   0  0  0  0  0  0  0  0  0  0  0  0
   61.0652   33.5943   49.1125 C   0  0  0  0  0  0  0  0  0  0  0  0
   59.6985   33.3868   49.3299 C   0  0  0  0  0  0  0  0  0  0  0  0
   58.9417   32.6332   48.4324 C   0  0  0  0  0  0  0  0  0  0  0  0
   59.5437   32.0707   47.3036 C   0  0  0  0  0  0  0  0  0  0  0  0
   60.9067   32.2954   47.0603 C   0  0  0  0  0  0  0  0  0  0  0  0
   61.6782   33.0701   47.9458 C   0  0  0  0  0  0  0  0  0  0  0  0
   61.3360   34.6232   50.8465 H   0  0  0  0  0  0  0  0  0  0  0  0
   63.0933   33.3299   47.5981 C   0  0  0  0  0  0  0  0  0  0  0  0
   63.4237   33.6410   46.4242 O   0  0  0  0  0  0  0  0  0  0  0  0
   64.0862   33.1650   48.5557 O   0  0  0  0  0  0  0  0  0  0  0  0
   57.5871   27.1160   45.4321 C   0  0  0  0  0  0  0  0  0  0  0  0
   58.8660   26.6830   45.4263 N   0  0  0  0  0  0  0  0  0  0  0  0
   58.7983   25.4804   46.0381 C   0  0  0  0  0  0  0  0  0  0  0  0
   59.8153   24.7701   46.2497 O   0  0  0  0  0  0  0  0  0  0  0  0
   57.5502   25.1370   46.4288 N   0  0  0  0  0  0  0  0  0  0  0  0
   56.7975   26.1942   46.0792 C   0  0  0  0  0  0  0  0  0  0  0  0
   55.4386   26.3239   46.3439 O   0  0  0  0  0  0  0  0  0  0  0  0
   57.1163   23.9328   47.1470 C   0  0  0  0  0  0  0  0  0  0  0  0
   56.7478   22.8322   46.2316 N   0  0  0  0  0  0  0  0  0  0  0  0
   57.7656   22.4758   45.2147 C   0  0  0  0  0  0  0  0  0  0  0  0
   57.1975   22.3585   43.7933 C   0  0  0  0  0  0  0  0  0  0  0  0
   56.2641   23.5275   43.5053 C   0  0  0  0  0  0  0  0  0  0  0  0
   55.0745   23.5506   44.4768 C   0  0  0  0  0  0  0  0  0  0  0  0
   55.3342   22.7981   45.7996 C   0  0  0  0  0  0  0  0  0  0  0  0
  9 10  1  0
 10 11  2  0
 11 12  1  0
 12 13  2  0
 13  1  1  0
  1  2  1  0
  2  3  1  0
  2  4  2  0
  4  5  1  0
  5  6  2  0
  6 20  1  0
 20 21  1  0
 21 22  1  0
 22 23  2  0
 22 24  1  0
 24 27  1  0
 27 28  1  0
 28 29  1  0
 29 30  1  0
 30 31  1  0
 31 32  1  0
 32 33  1  0
 24 25  1  0
 25 26  1  0
  5  7  1  0
  7  8  2  0
 13 14  1  0
 14 15  2  0
 15 17  1  0
 17 18  2  0
 17 19  1  0
 15 10  1  0
  7  1  1  0
 25 20  2  0
 33 28  1  0
  9 16  1  0
M  CHG 1  19  -1
M  CHG 1  21  -1
M  CHG 1  26  -1
M  END
> <UniqueID>
16

> <SMILES>
C=c1/c(=C\c2[n-]c(=O)n(CN3CCCCC3)c2[O-])cc(C)n1-c1ccc(O)c(C(=O)[O-])c1

> <Energy>
151.82741114390376

> <Genealogy>
C=c1c(=Cc2[n-]c(=O)n(CN3CCCCC3)c2[O-])cc(C)n1-c1ccc(O)c(C(=O)[O-])c1 (protonated)
C=c1/c(=C\c2[n-]c(=O)n(CN3CCCCC3)c2[O-])cc(C)n1-c1ccc(O)c(C(=O)[O-])c1 (cis-trans isomerization)
C=c1/c(=C\c2[n-]c(=O)n(CN3CCCCC3)c2[O-])cc(C)n1-c1ccc(O)c(C(=O)[O-])c1 (3D coordinates assigned)
C=c1/c(=C\c2[n-]c(=O)n(CN3CCCCC3)c2[O-])cc(C)n1-c1ccc(O)c(C(=O)[O-])c1 (nonaromatic ring conformer: 151.82741114390376 kcal/mol)

> <smiles>
C=c1c(=Cc2[nH]c(=O)n(CN3CCCCC3)c2O)cc(C)n1-c1ccc(O)c(C(=O)O)c1

> <score_type>
oracle

> <origin>
adg

> <m_score__min__energy>
-14.67

> <m_primary>
energy

> <minimizedAffinity>
-9.41377

> <minimizedRMSD>
0.68751

> <CNNscore>
0.3494387865

> <CNNaffinity>
6.7356052399

> <CNN_VS>
2.3536818027

> <CNNaffinity_variance>
0.0238774940

$$$$
80:0


 27 29  0  0  0  0  0  0  0  0999 V2000
   58.8590   30.7283   50.8525 C   0  0  0  0  0  0  0  0  0  0  0  0
   58.9892   32.1062   50.6181 C   0  0  0  0  0  0  0  0  0  0  0  0
   59.3154   32.5745   49.3425 C   0  0  0  0  0  0  0  0  0  0  0  0
   59.4857   31.6753   48.2869 C   0  0  0  0  0  0  0  0  0  0  0  0
   59.3057   30.2963   48.4966 C   0  0  0  0  0  0  0  0  0  0  0  0
   59.0024   29.8329   49.7843 C   0  0  0  0  0  0  0  0  0  0  0  0
   58.5062   30.2142   52.1446 N   0  0  0  0  0  0  0  0  0  0  0  0
   57.5333   30.8390   54.1533 O   0  0  0  0  0  0  0  0  0  0  0  0
   57.3678   30.5926   52.9305 C   0  0  0  0  0  0  0  0  0  0  0  0
   56.0000   30.7371   52.3246 C   0  0  0  0  0  0  0  0  0  0  0  0
   54.7292   29.9630   53.3877 S   0  0  0  0  0  0  0  0  0  0  0  0
   53.3348   30.4680   52.3780 C   0  0  0  0  0  0  0  0  0  0  0  0
   53.1054   29.8637   51.1402 C   0  0  0  0  0  0  0  0  0  0  0  0
   52.0145   30.2935   50.3832 C   0  0  0  0  0  0  0  0  0  0  0  0
   51.7741   29.7693   49.2643 O   0  0  0  0  0  0  0  0  0  0  0  0
   51.2089   31.2808   50.8554 N   0  0  0  0  0  0  0  0  0  0  0  0
   51.4524   31.8613   52.0608 C   0  0  0  0  0  0  0  0  0  0  0  0
   50.6964   32.7750   52.4802 O   0  0  0  0  0  0  0  0  0  0  0  0
   52.5081   31.4558   52.8110 N   0  0  0  0  0  0  0  0  0  0  0  0
   59.4793   29.3361   47.4456 N   0  0  0  0  0  0  0  0  0  0  0  0
   58.4477   28.7577   46.6333 C   0  0  0  0  0  0  0  0  0  0  0  0
   58.0798   27.5667   46.8112 O   0  0  0  0  0  0  0  0  0  0  0  0
   57.8498   29.5424   45.5481 C   0  0  0  0  0  0  0  0  0  0  0  0
   58.4520   30.5837   44.8702 C   0  0  0  0  0  0  0  0  0  0  0  0
   57.5216   31.0124   43.9471 C   0  0  0  0  0  0  0  0  0  0  0  0
   56.4135   30.2086   44.1196 C   0  0  0  0  0  0  0  0  0  0  0  0
   56.6397   29.3416   45.0796 O   0  0  0  0  0  0  0  0  0  0  0  0
  8  9  2  0
  9 10  1  0
 10 11  1  0
 11 12  1  0
 12 13  2  0
 13 14  1  0
 14 15  2  0
 14 16  1  0
 16 17  1  0
 17 18  2  0
 17 19  1  0
  9  7  1  0
  7  1  1  0
  1  2  2  0
  2  3  1  0
  3  4  2  0
  4  5  1  0
  5 20  1  0
 20 21  1  0
 21 22  2  0
 21 23  1  0
 23 24  2  0
 24 25  1  0
 25 26  2  0
 26 27  1  0
  5  6  2  0
 19 12  1  0
  6  1  1  0
 27 23  1  0
M  CHG 1   7  -1
M  CHG 1  16  -1
M  CHG 1  19  -1
M  CHG 1  20  -1
M  END
> <UniqueID>
72

> <SMILES>
O=C(CSc1cc(=O)[n-]c(=O)[n-]1)[N-]c1cccc([N-]C(=O)c2ccco2)c1

> <Energy>
70.94417723955355

> <Genealogy>
O=C(CSc1cc(=O)[n-]c(=O)[n-]1)[N-]c1cccc([N-]C(=O)c2ccco2)c1 (protonated)
O=C(CSc1cc(=O)[n-]c(=O)[n-]1)[N-]c1cccc([N-]C(=O)c2ccco2)c1 (3D coordinates assigned)
O=C(CSc1cc(=O)[n-]c(=O)[n-]1)[N-]c1cccc([N-]C(=O)c2ccco2)c1 (optimized conformer: 70.94417723955355 kcal/mol)

> <smiles>
O=C(CSc1cc(=O)[nH]c(=O)[nH]1)Nc1cccc(NC(=O)c2ccco2)c1

> <score_type>
oracle

> <origin>
adg

> <m_score__min__energy>
-15.48

> <m_primary>
energy

> <minimizedAffinity>
-5.91951

> <minimizedRMSD>
0.95237

> <CNNscore>
0.1618304849

> <CNNaffinity>
5.0551323891

> <CNN_VS>
0.8180745244

> <CNNaffinity_variance>
0.2216790915

$$$$
53:0


 33 35  0  0  0  0  0  0  0  0999 V2000
   59.0008   31.3251   45.1780 N   0  0  0  0  0  0  0  0  0  0  0  0
   58.6000   32.2530   46.1983 C   0  0  0  0  0  0  0  0  0  0  0  0
   58.0879   31.8383   47.2731 O   0  0  0  0  0  0  0  0  0  0  0  0
   59.3123   31.6758   44.3124 H   0  0  0  0  0  0  0  0  0  0  0  0
   60.0433   26.3010   46.5903 C   0  0  0  0  0  0  0  0  0  0  0  0
   59.4417   27.5673   46.0669 C   0  0  0  0  0  0  0  0  0  0  0  0
   60.2229   29.0516   46.0778 S   0  0  0  0  0  0  0  0  0  0  0  0
   58.9629   29.9073   45.3766 C   0  0  0  0  0  0  0  0  0  0  0  0
   57.8988   29.0428   45.0762 C   0  0  0  0  0  0  0  0  0  0  0  0
   58.1720   27.7141   45.4993 C   0  0  0  0  0  0  0  0  0  0  0  0
   56.7293   29.4546   44.2558 C   0  0  0  0  0  0  0  0  0  0  0  0
   55.4129   29.4729   44.7969 N   0  0  0  0  0  0  0  0  0  0  0  0
   56.8875   29.7678   43.0451 O   0  0  0  0  0  0  0  0  0  0  0  0
   55.2650   29.2321   45.7400 H   0  0  0  0  0  0  0  0  0  0  0  0
   57.2493   26.5718   45.3739 C   0  0  0  0  0  0  0  0  0  0  0  0
   56.0279   26.5543   46.1073 N   0  0  0  0  0  0  0  0  0  0  0  0
   57.5712   25.5768   44.6728 O   0  0  0  0  0  0  0  0  0  0  0  0
   55.7724   27.3302   46.6567 H   0  0  0  0  0  0  0  0  0  0  0  0
   58.8107   33.7294   46.0009 C   0  0  0  0  0  0  0  0  0  0  0  0
   60.0230   34.2439   46.6722 N   0  0  0  0  0  0  0  0  0  0  0  0
   61.2076   33.3664   46.5793 C   0  0  0  0  0  0  0  0  0  0  0  0
   61.2789   32.3071   47.7044 C   0  0  0  0  0  0  0  0  0  0  0  0
   60.3693   32.6093   48.8300 N   0  0  0  0  0  0  0  0  0  0  0  0
   60.4264   34.0442   49.1508 C   0  0  0  0  0  0  0  0  0  0  0  0
   59.7966   34.8514   48.0053 C   0  0  0  0  0  0  0  0  0  0  0  0
   60.7096   31.7790   50.0030 C   0  0  0  0  0  0  0  0  0  0  0  0
   59.4736   31.4780   50.8105 C   0  0  0  0  0  0  0  0  0  0  0  0
   58.7935   32.5036   51.4913 C   0  0  0  0  0  0  0  0  0  0  0  0
   57.6353   32.2164   52.2195 C   0  0  0  0  0  0  0  0  0  0  0  0
   57.1473   30.9068   52.2735 C   0  0  0  0  0  0  0  0  0  0  0  0
   55.6931   30.5481   53.1898 Cl  0  0  0  0  0  0  0  0  0  0  0  0
   57.8174   29.8825   51.5974 C   0  0  0  0  0  0  0  0  0  0  0  0
   58.9743   30.1679   50.8681 C   0  0  0  0  0  0  0  0  0  0  0  0
  5  6  1  0
  6  7  1  0
  7  8  1  0
  8  1  1  0
  1  2  1  0
  2  3  2  0
  2 19  1  0
 19 20  1  0
 20 21  1  0
 21 22  1  0
 22 23  1  0
 23 26  1  0
 26 27  1  0
 27 28  2  0
 28 29  1  0
 29 30  2  0
 30 31  1  0
 30 32  1  0
 32 33  2  0
 23 24  1  0
 24 25  1  0
  8  9  2  0
  9 11  1  0
 11 12  1  0
 11 13  2  0
  9 10  1  0
 10 15  1  0
 15 16  1  0
 15 17  2  0
 10  6  2  0
 25 20  1  0
 33 27  1  0
  1  4  1  0
 12 14  1  0
 16 18  1  0
M  CHG 1  12  -1
M  CHG 1  16  -1
M  END
> <UniqueID>
48

> <SMILES>
Cc1sc(NC(=O)CN2CCN(Cc3ccc(Cl)cc3)CC2)c(C([NH-])=O)c1C([NH-])=O

> <Energy>
101.01282384371582

> <Genealogy>
Cc1sc(NC(=O)CN2CCN(Cc3ccc(Cl)cc3)CC2)c(C([NH-])=O)c1C([NH-])=O (protonated)
Cc1sc(NC(=O)CN2CCN(Cc3ccc(Cl)cc3)CC2)c(C([NH-])=O)c1C([NH-])=O (3D coordinates assigned)
Cc1sc(NC(=O)CN2CCN(Cc3ccc(Cl)cc3)CC2)c(C([NH-])=O)c1C([NH-])=O (nonaromatic ring conformer: 101.01282384371582 kcal/mol)

> <smiles>
Cc1sc(NC(=O)CN2CCN(Cc3ccc(Cl)cc3)CC2)c(C(N)=O)c1C(N)=O

> <score_type>
oracle

> <origin>
adg

> <m_score__min__energy>
-14.6

> <m_primary>
energy

> <minimizedAffinity>
-7.80982

> <minimizedRMSD>
0.75134

> <CNNscore>
0.5900157094

> <CNNaffinity>
7.1756806374

> <CNN_VS>
4.2337641716

> <CNNaffinity_variance>
0.1572017074

$$$$
44:0


 28 30  0  0  0  0  0  0  0  0999 V2000
   58.6548   32.5487   47.2949 N   0  0  0  0  0  0  0  0  0  0  0  0
   57.9696   32.6772   47.9901 H   0  0  0  0  0  0  0  0  0  0  0  0
   58.6995   31.2835   46.6108 C   0  0  0  0  0  0  0  0  0  0  0  0
   58.1308   31.1092   45.3356 C   0  0  0  0  0  0  0  0  0  0  0  0
   58.1978   29.8695   44.6931 C   0  0  0  0  0  0  0  0  0  0  0  0
   58.8410   28.7862   45.3080 C   0  0  0  0  0  0  0  0  0  0  0  0
   59.3899   28.9515   46.5889 C   0  0  0  0  0  0  0  0  0  0  0  0
   59.3196   30.1892   47.2330 C   0  0  0  0  0  0  0  0  0  0  0  0
   58.8855   27.4449   44.6300 C   0  0  0  0  0  0  0  0  0  0  0  0
   58.1749   26.4230   45.4609 C   0  0  0  0  0  0  0  0  0  0  0  0
   58.8361   24.9592   45.9710 S   0  0  0  0  0  0  0  0  0  0  0  0
   57.3996   24.4701   46.6965 C   0  0  0  0  0  0  0  0  0  0  0  0
   57.2478   23.3755   47.2986 O   0  0  0  0  0  0  0  0  0  0  0  0
   56.4103   25.3777   46.5582 N   0  0  0  0  0  0  0  0  0  0  0  0
   56.8399   26.4634   45.8634 C   0  0  0  0  0  0  0  0  0  0  0  0
   55.9933   27.5283   45.5793 O   0  0  0  0  0  0  0  0  0  0  0  0
   59.7414   33.8609   46.9627 S   0  0  0  0  0  0  0  0  0  0  0  0
   59.9091   34.0033   45.4754 O   0  0  0  0  0  0  0  0  0  0  0  0
   59.1632   35.1356   47.5088 O   0  0  0  0  0  0  0  0  0  0  0  0
   64.9831   32.8138   49.6891 N   0  0  0  0  0  0  0  0  0  0  0  0
   63.7373   33.0663   49.0320 C   0  0  0  0  0  0  0  0  0  0  0  0
   62.6836   33.6740   49.7295 C   0  0  0  0  0  0  0  0  0  0  0  0
   61.4658   33.9200   49.0888 C   0  0  0  0  0  0  0  0  0  0  0  0
   61.2890   33.5598   47.7459 C   0  0  0  0  0  0  0  0  0  0  0  0
   62.3429   32.9558   47.0468 C   0  0  0  0  0  0  0  0  0  0  0  0
   63.5605   32.7068   47.6885 C   0  0  0  0  0  0  0  0  0  0  0  0
   65.1023   33.0680   50.6327 H   0  0  0  0  0  0  0  0  0  0  0  0
   65.7210   32.3858   49.1976 H   0  0  0  0  0  0  0  0  0  0  0  0
 20 21  1  0
 21 22  2  0
 22 23  1  0
 23 24  2  0
 24 17  1  0
 17 18  2  0
 17 19  2  0
 17  1  1  0
  1  3  1  0
  3  4  2  0
  4  5  1  0
  5  6  2  0
  6  9  1  0
  9 10  1  0
 10 11  1  0
 11 12  1  0
 12 13  2  0
 12 14  1  0
 14 15  1  0
 15 16  1  0
  6  7  1  0
  7  8  2  0
 24 25  1  0
 25 26  2  0
 26 21  1  0
  8  3  1  0
 15 10  2  0
 20 27  1  0
 20 28  1  0
  1  2  1  0
M  CHG 1  14  -1
M  CHG 1  16  -1
M  END
> <UniqueID>
43

> <SMILES>
Nc1ccc(S(=O)(=O)Nc2ccc(Cc3sc(=O)[n-]c3[O-])cc2)cc1

> <Energy>
71.39102161733955

> <Genealogy>
Nc1ccc(S(=O)(=O)Nc2ccc(Cc3sc(=O)[n-]c3[O-])cc2)cc1 (protonated)
Nc1ccc(S(=O)(=O)Nc2ccc(Cc3sc(=O)[n-]c3[O-])cc2)cc1 (3D coordinates assigned)
Nc1ccc(S(=O)(=O)Nc2ccc(Cc3sc(=O)[n-]c3[O-])cc2)cc1 (optimized conformer: 71.39102161733955 kcal/mol)

> <smiles>
Nc1ccc(S(=O)(=O)Nc2ccc(Cc3sc(=O)[nH]c3O)cc2)cc1

> <score_type>
oracle

> <origin>
adg

> <m_score__min__energy>
-14.82

> <m_primary>
energy

> <minimizedAffinity>
-7.06072

> <minimizedRMSD>
1.16461

> <CNNscore>
0.3410109580

> <CNNaffinity>
6.4715914726

> <CNN_VS>
2.2068836689

> <CNNaffinity_variance>
0.1153274775

$$$$
69:0


 23 25  0  0  0  0  0  0  0  0999 V2000
   57.9599   24.0877   45.8234 C   0  0  0  0  0  0  0  0  0  0  0  0
   56.5526   24.2093   45.8851 C   0  0  0  0  0  0  0  0  0  0  0  0
   55.9332   25.4704   45.8360 C   0  0  0  0  0  0  0  0  0  0  0  0
   56.7455   26.5946   45.7187 C   0  0  0  0  0  0  0  0  0  0  0  0
   56.3374   27.8784   45.6801 N   0  0  0  0  0  0  0  0  0  0  0  0
   57.4895   28.5850   45.5847 C   0  0  0  0  0  0  0  0  0  0  0  0
   57.5217   29.9723   45.5365 O   0  0  0  0  0  0  0  0  0  0  0  0
   58.6097   27.7655   45.5524 C   0  0  0  0  0  0  0  0  0  0  0  0
   58.1115   26.4860   45.6515 C   0  0  0  0  0  0  0  0  0  0  0  0
   58.7579   25.2519   45.7022 C   0  0  0  0  0  0  0  0  0  0  0  0
   57.8482   21.6156   45.4746 C   0  0  0  0  0  0  0  0  0  0  0  0
   58.5184   22.8021   45.8853 O   0  0  0  0  0  0  0  0  0  0  0  0
   60.0483   28.1907   45.5311 C   0  0  0  0  0  0  0  0  0  0  0  0
   60.3825   28.9373   46.7892 C   0  0  0  0  0  0  0  0  0  0  0  0
   60.6753   30.3028   46.7529 C   0  0  0  0  0  0  0  0  0  0  0  0
   60.9404   30.9796   47.9443 C   0  0  0  0  0  0  0  0  0  0  0  0
   60.9060   30.2977   49.1744 C   0  0  0  0  0  0  0  0  0  0  0  0
   60.5948   28.9189   49.1616 C   0  0  0  0  0  0  0  0  0  0  0  0
   60.5427   28.2546   50.2302 O   0  0  0  0  0  0  0  0  0  0  0  0
   60.3416   28.2901   47.9836 N   0  0  0  0  0  0  0  0  0  0  0  0
   61.1912   31.0310   50.4350 C   0  0  0  0  0  0  0  0  0  0  0  0
   60.2706   31.6455   51.0366 O   0  0  0  0  0  0  0  0  0  0  0  0
   62.4712   31.0551   50.9756 O   0  0  0  0  0  0  0  0  0  0  0  0
 11 12  1  0
 12  1  1  0
  1  2  2  0
  2  3  1  0
  3  4  2  0
  4  5  1  0
  5  6  1  0
  6  7  1  0
  6  8  2  0
  8 13  1  0
 13 14  1  0
 14 15  2  0
 15 16  1  0
 16 17  2  0
 17 21  1  0
 21 22  2  0
 21 23  1  0
 17 18  1  0
 18 19  2  0
 18 20  1  0
  8  9  1  0
  9 10  2  0
 10  1  1  0
  9  4  1  0
 20 14  1  0
M  CHG 1   5  -1
M  CHG 1   7  -1
M  CHG 1  20  -1
M  CHG 1  23  -1
M  END
> <UniqueID>
66

> <SMILES>
COc1ccc2[n-]c([O-])c(Cc3ccc(C(=O)[O-])c(=O)[n-]3)c2c1

> <Energy>
68.38805152371434

> <Genealogy>
COc1ccc2[n-]c([O-])c(Cc3ccc(C(=O)[O-])c(=O)[n-]3)c2c1 (protonated)
COc1ccc2[n-]c([O-])c(Cc3ccc(C(=O)[O-])c(=O)[n-]3)c2c1 (3D coordinates assigned)
COc1ccc2[n-]c([O-])c(Cc3ccc(C(=O)[O-])c(=O)[n-]3)c2c1 (optimized conformer: 68.38805152371434 kcal/mol)

> <smiles>
COc1ccc2[nH]c(O)c(Cc3ccc(C(=O)O)c(=O)[nH]3)c2c1

> <score_type>
oracle

> <origin>
adg

> <m_score__min__energy>
-15.5

> <m_primary>
energy

> <minimizedAffinity>
-5.43875

> <minimizedRMSD>
2.14921

> <CNNscore>
0.3692170084

> <CNNaffinity>
5.7894191742

> <CNN_VS>
2.1375520229

> <CNNaffinity_variance>
0.5753415227

$$$$
50:0


 26 27  0  0  0  0  0  0  0  0999 V2000
   57.6248   30.9896   44.8335 C   0  0  0  0  0  0  0  0  0  0  0  0
   56.4051   30.7176   44.6858 O   0  0  0  0  0  0  0  0  0  0  0  0
   58.5948   29.9644   44.5757 N   0  0  0  0  0  0  0  0  0  0  0  0
   58.0665   26.5954   46.1539 C   0  0  0  0  0  0  0  0  0  0  0  0
   59.2847   26.4402   46.8283 C   0  0  0  0  0  0  0  0  0  0  0  0
   60.2444   27.4550   46.7826 C   0  0  0  0  0  0  0  0  0  0  0  0
   60.0048   28.6143   46.0406 C   0  0  0  0  0  0  0  0  0  0  0  0
   58.8079   28.7623   45.3290 C   0  0  0  0  0  0  0  0  0  0  0  0
   57.8212   27.7664   45.4249 C   0  0  0  0  0  0  0  0  0  0  0  0
   55.2754   26.0270   46.0730 N   0  0  0  0  0  0  0  0  0  0  0  0
   56.8495   25.3232   46.1917 S   0  0  0  0  0  0  0  0  0  0  0  0
   57.0525   24.3751   45.0436 O   0  0  0  0  0  0  0  0  0  0  0  0
   56.9656   24.5571   47.4792 O   0  0  0  0  0  0  0  0  0  0  0  0
   54.5708   25.2898   46.0949 H   0  0  0  0  0  0  0  0  0  0  0  0
   57.9996   32.3406   45.3841 C   0  0  0  0  0  0  0  0  0  0  0  0
   59.0402   32.2177   46.4071 N   0  0  0  0  0  0  0  0  0  0  0  0
   59.7699   33.7582   46.7671 S   0  0  0  0  0  0  0  0  0  0  0  0
   60.1151   34.4471   45.4788 O   0  0  0  0  0  0  0  0  0  0  0  0
   58.7832   34.6050   47.5203 O   0  0  0  0  0  0  0  0  0  0  0  0
   61.2469   33.5668   47.7149 C   0  0  0  0  0  0  0  0  0  0  0  0
   61.2600   33.8754   49.0826 C   0  0  0  0  0  0  0  0  0  0  0  0
   62.4181   33.6751   49.8376 C   0  0  0  0  0  0  0  0  0  0  0  0
   63.5717   33.1708   49.2310 C   0  0  0  0  0  0  0  0  0  0  0  0
   65.1410   32.8620   50.2726 Br  0  0  0  0  0  0  0  0  0  0  0  0
   63.5726   32.8861   47.8617 C   0  0  0  0  0  0  0  0  0  0  0  0
   62.4147   33.0881   47.1035 C   0  0  0  0  0  0  0  0  0  0  0  0
 10 11  1  0
 11 12  2  0
 11 13  2  0
 11  4  1  0
  4  5  2  0
  5  6  1  0
  6  7  2  0
  7  8  1  0
  8  3  1  0
  3  1  1  0
  1  2  2  0
  1 15  1  0
 15 16  1  0
 16 17  1  0
 17 18  2  0
 17 19  2  0
 17 20  1  0
 20 21  2  0
 21 22  1  0
 22 23  2  0
 23 24  1  0
 23 25  1  0
 25 26  2  0
  8  9  2  0
  9  4  1  0
 26 20  1  0
 10 14  1  0
M  CHG 1   3  -1
M  CHG 1  10  -1
M  CHG 1  16  -1
M  END
> <UniqueID>
43

> <SMILES>
[NH-]S(=O)(=O)c1cccc([N-]C(=O)C[N-]S(=O)(=O)c2ccc(Br)cc2)c1

> <Energy>
34.765730729493846

> <Genealogy>
[NH-]S(=O)(=O)c1cccc([N-]C(=O)C[N-]S(=O)(=O)c2ccc(Br)cc2)c1 (protonated)
[NH-]S(=O)(=O)c1cccc([N-]C(=O)C[N-]S(=O)(=O)c2ccc(Br)cc2)c1 (3D coordinates assigned)
[NH-]S(=O)(=O)c1cccc([N-]C(=O)C[N-]S(=O)(=O)c2ccc(Br)cc2)c1 (optimized conformer: 34.765730729493846 kcal/mol)

> <smiles>
NS(=O)(=O)c1cccc(NC(=O)CNS(=O)(=O)c2ccc(Br)cc2)c1

> <score_type>
oracle

> <origin>
adg

> <m_score__min__energy>
-14.01

> <m_primary>
energy

> <minimizedAffinity>
-8.28526

> <minimizedRMSD>
0.70410

> <CNNscore>
0.9205569029

> <CNNaffinity>
7.1180481911

> <CNN_VS>
6.5525684357

> <CNNaffinity_variance>
0.2342717201

$$$$
14:0


 32 36  0  0  0  0  0  0  0  0999 V2000
   58.5508   26.4402   45.2464 C   0  0  0  0  0  0  0  0  0  0  0  0
   58.3498   27.7658   45.2851 C   0  0  0  0  0  0  0  0  0  0  0  0
   57.7588   28.5341   44.2871 C   0  0  0  0  0  0  0  0  0  0  0  0
   57.6978   29.8294   44.6761 N   0  0  0  0  0  0  0  0  0  0  0  0
   58.2254   29.8978   45.8890 N   0  0  0  0  0  0  0  0  0  0  0  0
   58.3591   30.9824   46.7061 C   0  0  0  0  0  0  0  0  0  0  0  0
   57.9949   32.1862   46.3625 N   0  0  0  0  0  0  0  0  0  0  0  0
   58.8964   30.7852   47.9411 N   0  0  0  0  0  0  0  0  0  0  0  0
   59.2882   29.5374   48.3490 C   0  0  0  0  0  0  0  0  0  0  0  0
   59.8020   29.3537   49.5278 N   0  0  0  0  0  0  0  0  0  0  0  0
   59.1393   28.4711   47.5149 N   0  0  0  0  0  0  0  0  0  0  0  0
   58.6177   28.6823   46.2828 C   0  0  0  0  0  0  0  0  0  0  0  0
   55.5252   26.6590   45.9389 O   0  0  0  0  0  0  0  0  0  0  0  0
   56.3545   25.5809   46.2395 C   0  0  0  0  0  0  0  0  0  0  0  0
   55.9403   24.5037   46.9257 N   0  0  0  0  0  0  0  0  0  0  0  0
   57.0665   23.7660   47.0309 C   0  0  0  0  0  0  0  0  0  0  0  0
   57.0960   22.6573   47.6257 O   0  0  0  0  0  0  0  0  0  0  0  0
   58.1591   24.3118   46.4567 N   0  0  0  0  0  0  0  0  0  0  0  0
   57.6947   25.4597   45.9319 C   0  0  0  0  0  0  0  0  0  0  0  0
   54.6238   26.6421   46.1940 H   0  0  0  0  0  0  0  0  0  0  0  0
   58.4923   32.9531   45.2258 C   0  0  0  0  0  0  0  0  0  0  0  0
   57.9431   34.3666   45.1481 C   0  0  0  0  0  0  0  0  0  0  0  0
   59.3580   34.1244   45.6534 C   0  0  0  0  0  0  0  0  0  0  0  0
   60.3906   30.4056   50.3575 C   0  0  0  0  0  0  0  0  0  0  0  0
   61.2595   31.3092   49.5259 C   0  0  0  0  0  0  0  0  0  0  0  0
   61.8738   30.8339   48.3551 C   0  0  0  0  0  0  0  0  0  0  0  0
   62.6986   31.6737   47.6007 C   0  0  0  0  0  0  0  0  0  0  0  0
   62.9187   32.9932   48.0091 C   0  0  0  0  0  0  0  0  0  0  0  0
   63.7200   33.8033   47.2758 F   0  0  0  0  0  0  0  0  0  0  0  0
   62.3125   33.4724   49.1753 C   0  0  0  0  0  0  0  0  0  0  0  0
   62.5275   34.7510   49.5746 F   0  0  0  0  0  0  0  0  0  0  0  0
   61.4870   32.6348   49.9325 C   0  0  0  0  0  0  0  0  0  0  0  0
 13 14  1  0
 14 15  1  0
 15 16  1  0
 16 17  2  0
 16 18  1  0
 18 19  1  0
 19  1  1  0
  1  2  2  0
  2  3  1  0
  3  4  2  0
  4  5  1  0
  5  6  1  0
  6  7  2  0
  7 21  1  0
 21 22  1  0
 22 23  1  0
  6  8  1  0
  8  9  1  0
  9 10  2  0
 10 24  1  0
 24 25  1  0
 25 26  2  0
 26 27  1  0
 27 28  2  0
 28 29  1  0
 28 30  1  0
 30 31  1  0
 30 32  2  0
  9 11  1  0
 11 12  2  0
 19 14  2  0
 12  2  1  0
 12  5  1  0
 23 21  1  0
 32 25  1  0
 13 20  1  0
M  CHG 1   8  -1
M  CHG 1  15  -1
M  CHG 1  18  -1
M  END
> <UniqueID>
15

> <SMILES>
O=c1[n-]c(O)c(/C=c2/cnn3c(=NC4CC4)[n-]/c(=N\Cc4ccc(F)c(F)c4)nc23)[n-]1

> <Energy>
389.8786334752045

> <Genealogy>
O=c1[n-]c(O)c(C=c2cnn3c(=NC4CC4)[n-]c(=NCc4ccc(F)c(F)c4)nc23)[n-]1 (protonated)
O=c1[n-]c(O)c(/C=c2/cnn3c(=NC4CC4)[n-]/c(=N\Cc4ccc(F)c(F)c4)nc23)[n-]1 (cis-trans isomerization)
O=c1[n-]c(O)c(/C=c2/cnn3c(=NC4CC4)[n-]/c(=N\Cc4ccc(F)c(F)c4)nc23)[n-]1 (3D coordinates assigned)
O=c1[n-]c(O)c(/C=c2/cnn3c(=NC4CC4)[n-]/c(=N\Cc4ccc(F)c(F)c4)nc23)[n-]1 (nonaromatic ring conformer: 389.8786334752045 kcal/mol)

> <smiles>
O=c1[nH]c(O)c(C=c2cnn3c(=NC4CC4)[nH]c(=NCc4ccc(F)c(F)c4)nc23)[nH]1

> <score_type>
oracle

> <origin>
adg

> <m_score__min__energy>
-14.390000000000001

> <m_primary>
energy

> <minimizedAffinity>
-9.92920

> <minimizedRMSD>
1.22975

> <CNNscore>
0.8131124377

> <CNNaffinity>
7.4171280861

> <CNN_VS>
6.0309591293

> <CNNaffinity_variance>
0.0439207964

$$$$
33:0


 28 30  0  0  0  0  0  0  0  0999 V2000
   59.3675   29.7206   46.4839 C   0  0  0  0  0  0  0  0  0  0  0  0
   59.5367   29.4187   45.1204 C   0  0  0  0  0  0  0  0  0  0  0  0
   59.0825   28.2045   44.5995 C   0  0  0  0  0  0  0  0  0  0  0  0
   58.4363   27.2734   45.4303 C   0  0  0  0  0  0  0  0  0  0  0  0
   58.2916   27.5591   46.7916 C   0  0  0  0  0  0  0  0  0  0  0  0
   58.7454   28.7729   47.3157 C   0  0  0  0  0  0  0  0  0  0  0  0
   61.6842   32.5205   47.6244 C   0  0  0  0  0  0  0  0  0  0  0  0
   60.7476   33.4561   48.0971 C   0  0  0  0  0  0  0  0  0  0  0  0
   59.3799   33.1774   48.0413 C   0  0  0  0  0  0  0  0  0  0  0  0
   58.9303   31.9665   47.5177 C   0  0  0  0  0  0  0  0  0  0  0  0
   59.8451   31.0139   47.0372 C   0  0  0  0  0  0  0  0  0  0  0  0
   61.2220   31.3000   47.0953 C   0  0  0  0  0  0  0  0  0  0  0  0
   63.9291   32.3096   48.7660 N   0  0  0  0  0  0  0  0  0  0  0  0
   63.1356   32.8136   47.6917 C   0  0  0  0  0  0  0  0  0  0  0  0
   63.6861   33.5138   46.8004 O   0  0  0  0  0  0  0  0  0  0  0  0
   64.8924   32.5095   48.8023 H   0  0  0  0  0  0  0  0  0  0  0  0
   57.9649   26.0089   44.9388 N   0  0  0  0  0  0  0  0  0  0  0  0
   58.0728   24.7372   45.5942 C   0  0  0  0  0  0  0  0  0  0  0  0
   59.1854   24.3558   46.0482 O   0  0  0  0  0  0  0  0  0  0  0  0
   56.8886   23.8431   45.6722 C   0  0  0  0  0  0  0  0  0  0  0  0
   57.0259   22.4836   45.3350 C   0  0  0  0  0  0  0  0  0  0  0  0
   55.9254   21.6293   45.4240 C   0  0  0  0  0  0  0  0  0  0  0  0
   56.0485   20.4107   45.1279 O   0  0  0  0  0  0  0  0  0  0  0  0
   54.6935   22.1315   45.8429 C   0  0  0  0  0  0  0  0  0  0  0  0
   53.5852   21.2982   45.9403 O   0  0  0  0  0  0  0  0  0  0  0  0
   54.5813   23.4845   46.1635 C   0  0  0  0  0  0  0  0  0  0  0  0
   55.6599   24.3114   46.0753 N   0  0  0  0  0  0  0  0  0  0  0  0
   55.4782   25.6417   46.3822 O   0  0  0  0  0  0  0  0  0  0  0  0
 13 14  1  0
 14 15  2  0
 14  7  1  0
  7  8  2  0
  8  9  1  0
  9 10  2  0
 10 11  1  0
 11  1  1  0
  1  2  2  0
  2  3  1  0
  3  4  2  0
  4 17  1  0
 17 18  1  0
 18 19  2  0
 18 20  1  0
 20 21  2  0
 21 22  1  0
 22 23  2  0
 22 24  1  0
 24 25  1  0
 24 26  2  0
 26 27  1  0
 27 28  1  0
  4  5  1  0
  5  6  2  0
 11 12  2  0
 12  7  1  0
  6  1  1  0
 27 20  1  0
 13 16  1  0
M  CHG 1  13  -1
M  CHG 1  17  -1
M  CHG 1  25  -1
M  CHG 1  28  -1
M  END
> <UniqueID>
28

> <SMILES>
[NH-]C(=O)c1cccc(-c2ccc([N-]C(=O)c3cc(=O)c([O-])cn3[O-])cc2)c1

> <Energy>
54.24663481590607

> <Genealogy>
[NH-]C(=O)c1cccc(-c2ccc([N-]C(=O)c3cc(=O)c([O-])cn3[O-])cc2)c1 (protonated)
[NH-]C(=O)c1cccc(-c2ccc([N-]C(=O)c3cc(=O)c([O-])cn3[O-])cc2)c1 (3D coordinates assigned)
[NH-]C(=O)c1cccc(-c2ccc([N-]C(=O)c3cc(=O)c([O-])cn3[O-])cc2)c1 (optimized conformer: 54.24663481590607 kcal/mol)

> <smiles>
NC(=O)c1cccc(-c2ccc(NC(=O)c3cc(=O)c(O)cn3O)cc2)c1

> <score_type>
oracle

> <origin>
adg

> <m_score__min__energy>
-15.6

> <m_primary>
energy

> <minimizedAffinity>
-8.39063

> <minimizedRMSD>
1.27520

> <CNNscore>
0.3213790953

> <CNNaffinity>
6.1619143486

> <CNN_VS>
1.9803104401

> <CNNaffinity_variance>
0.0911383256

$$$$
38:0


 34 38  0  0  0  0  0  0  0  0999 V2000
   57.4130   24.6783   44.6969 C   0  0  0  0  0  0  0  0  0  0  0  0
   58.2764   25.3361   45.4835 C   0  0  0  0  0  0  0  0  0  0  0  0
   59.3822   24.8453   46.1803 C   0  0  0  0  0  0  0  0  0  0  0  0
   60.0110   25.8667   46.8113 N   0  0  0  0  0  0  0  0  0  0  0  0
   59.3402   26.9754   46.5282 N   0  0  0  0  0  0  0  0  0  0  0  0
   59.5859   28.2599   46.9266 C   0  0  0  0  0  0  0  0  0  0  0  0
   60.5842   28.5880   47.6950 N   0  0  0  0  0  0  0  0  0  0  0  0
   58.7457   29.2354   46.4855 N   0  0  0  0  0  0  0  0  0  0  0  0
   57.7006   28.9423   45.6539 C   0  0  0  0  0  0  0  0  0  0  0  0
   56.9594   29.9098   45.2079 N   0  0  0  0  0  0  0  0  0  0  0  0
   57.4722   27.6500   45.2722 N   0  0  0  0  0  0  0  0  0  0  0  0
   58.3039   26.6882   45.7377 C   0  0  0  0  0  0  0  0  0  0  0  0
   55.3159   26.4710   46.1070 O   0  0  0  0  0  0  0  0  0  0  0  0
   55.1123   25.1514   45.7206 C   0  0  0  0  0  0  0  0  0  0  0  0
   53.9440   24.4992   45.8669 N   0  0  0  0  0  0  0  0  0  0  0  0
   54.2047   23.3003   45.2975 C   0  0  0  0  0  0  0  0  0  0  0  0
   53.3419   22.3878   45.2245 O   0  0  0  0  0  0  0  0  0  0  0  0
   55.4544   23.1644   44.8025 N   0  0  0  0  0  0  0  0  0  0  0  0
   56.0347   24.3407   45.0963 C   0  0  0  0  0  0  0  0  0  0  0  0
   54.6275   26.9474   46.5280 H   0  0  0  0  0  0  0  0  0  0  0  0
   60.6065   28.5577   49.1544 C   0  0  0  0  0  0  0  0  0  0  0  0
   61.0546   29.8639   49.7903 C   0  0  0  0  0  0  0  0  0  0  0  0
   59.5742   29.5012   49.7486 C   0  0  0  0  0  0  0  0  0  0  0  0
   57.3768   30.8667   44.1880 C   0  0  0  0  0  0  0  0  0  0  0  0
   57.9943   32.0650   44.8471 C   0  0  0  0  0  0  0  0  0  0  0  0
   58.1668   33.2663   44.1395 C   0  0  0  0  0  0  0  0  0  0  0  0
   58.7573   34.3707   44.7597 C   0  0  0  0  0  0  0  0  0  0  0  0
   59.1707   34.2886   46.0925 C   0  0  0  0  0  0  0  0  0  0  0  0
   58.9861   33.1027   46.8264 C   0  0  0  0  0  0  0  0  0  0  0  0
   58.4277   31.9847   46.1815 C   0  0  0  0  0  0  0  0  0  0  0  0
   59.4630   33.0046   48.2510 C   0  0  0  0  0  0  0  0  0  0  0  0
   58.5086   32.3457   49.0079 F   0  0  0  0  0  0  0  0  0  0  0  0
   59.6662   34.2655   48.7851 F   0  0  0  0  0  0  0  0  0  0  0  0
   60.6588   32.3110   48.3211 F   0  0  0  0  0  0  0  0  0  0  0  0
 13 14  1  0
 14 15  1  0
 15 16  1  0
 16 17  2  0
 16 18  1  0
 18 19  1  0
 19  1  1  0
  1  2  2  0
  2  3  1  0
  3  4  2  0
  4  5  1  0
  5  6  1  0
  6  7  2  0
  7 21  1  0
 21 22  1  0
 22 23  1  0
  6  8  1  0
  8  9  1  0
  9 10  2  0
 10 24  1  0
 24 25  1  0
 25 26  2  0
 26 27  1  0
 27 28  2  0
 28 29  1  0
 29 31  1  0
 31 32  1  0
 31 33  1  0
 31 34  1  0
 29 30  2  0
  9 11  1  0
 11 12  2  0
 19 14  2  0
 12  2  1  0
 12  5  1  0
 23 21  1  0
 30 25  1  0
 13 20  1  0
M  CHG 1   8  -1
M  CHG 1  15  -1
M  CHG 1  18  -1
M  END
> <UniqueID>
34

> <SMILES>
O=c1[n-]c(O)c(C=c2cnn3c(=NC4CC4)[n-]/c(=N/Cc4cccc(C(F)(F)F)c4)nc23)[n-]1

> <Energy>
392.99286027642154

> <Genealogy>
O=c1[n-]c(O)c(C=c2cnn3c(=NC4CC4)[n-]c(=NCc4cccc(C(F)(F)F)c4)nc23)[n-]1 (protonated)
O=c1[n-]c(O)c(C=c2cnn3c(=NC4CC4)[n-]/c(=N/Cc4cccc(C(F)(F)F)c4)nc23)[n-]1 (cis-trans isomerization)
O=c1[n-]c(O)c(C=c2cnn3c(=NC4CC4)[n-]/c(=N/Cc4cccc(C(F)(F)F)c4)nc23)[n-]1 (3D coordinates assigned)
O=c1[n-]c(O)c(C=c2cnn3c(=NC4CC4)[n-]/c(=N/Cc4cccc(C(F)(F)F)c4)nc23)[n-]1 (nonaromatic ring conformer: 392.99286027642154 kcal/mol)

> <smiles>
O=c1[nH]c(O)c(C=c2cnn3c(=NC4CC4)[nH]c(=NCc4cccc(C(F)(F)F)c4)nc23)[nH]1

> <score_type>
oracle

> <origin>
adg

> <m_score__min__energy>
-14.539999999999999

> <m_primary>
energy

> <minimizedAffinity>
-9.23766

> <minimizedRMSD>
0.34721

> <CNNscore>
0.3666211963

> <CNNaffinity>
6.7716488838

> <CNN_VS>
2.4826300144

> <CNNaffinity_variance>
0.1150786653

$$$$
64:0


 28 30  0  0  0  0  0  0  0  0999 V2000
   57.7955   28.7637   45.4478 N   0  0  0  0  0  0  0  0  0  0  0  0
   60.2921   31.8343   47.0024 C   0  0  0  0  0  0  0  0  0  0  0  0
   60.5911   30.4736   47.2142 C   0  0  0  0  0  0  0  0  0  0  0  0
   59.7620   29.4779   46.6950 C   0  0  0  0  0  0  0  0  0  0  0  0
   58.6322   29.8156   45.9432 C   0  0  0  0  0  0  0  0  0  0  0  0
   58.3115   31.1700   45.7523 C   0  0  0  0  0  0  0  0  0  0  0  0
   59.1380   32.1795   46.2713 C   0  0  0  0  0  0  0  0  0  0  0  0
   58.7302   33.8771   46.0086 S   0  0  0  0  0  0  0  0  0  0  0  0
   59.0945   34.7773   47.4386 N   0  0  0  0  0  0  0  0  0  0  0  0
   57.2645   33.9956   45.6922 O   0  0  0  0  0  0  0  0  0  0  0  0
   59.5253   34.4391   44.8615 O   0  0  0  0  0  0  0  0  0  0  0  0
   58.5592   34.4025   48.2219 H   0  0  0  0  0  0  0  0  0  0  0  0
   62.4382   33.1249   47.0659 C   0  0  0  0  0  0  0  0  0  0  0  0
   61.1083   32.8595   47.5058 O   0  0  0  0  0  0  0  0  0  0  0  0
   58.2277   27.4488   45.0750 C   0  0  0  0  0  0  0  0  0  0  0  0
   58.3229   27.1202   43.8621 O   0  0  0  0  0  0  0  0  0  0  0  0
   58.6058   26.4676   46.1381 C   0  0  0  0  0  0  0  0  0  0  0  0
   57.8819   25.2125   45.9418 N   0  0  0  0  0  0  0  0  0  0  0  0
   56.5455   25.0247   46.0275 C   0  0  0  0  0  0  0  0  0  0  0  0
   55.6254   26.0403   46.2603 O   0  0  0  0  0  0  0  0  0  0  0  0
   56.2360   23.6896   45.8544 C   0  0  0  0  0  0  0  0  0  0  0  0
   57.4281   23.0380   45.6274 C   0  0  0  0  0  0  0  0  0  0  0  0
   58.4210   23.9936   45.7176 C   0  0  0  0  0  0  0  0  0  0  0  0
   59.7874   23.7491   45.6095 O   0  0  0  0  0  0  0  0  0  0  0  0
   57.5513   21.5552   45.4467 C   0  0  0  0  0  0  0  0  0  0  0  0
   56.1892   20.9493   45.0543 C   0  0  0  0  0  0  0  0  0  0  0  0
   55.0432   21.4964   45.9372 C   0  0  0  0  0  0  0  0  0  0  0  0
   54.8917   23.0261   45.7981 C   0  0  0  0  0  0  0  0  0  0  0  0
 13 14  1  0
 14  2  1  0
  2  3  2  0
  3  4  1  0
  4  5  2  0
  5  1  1  0
  1 15  1  0
 15 16  2  0
 15 17  1  0
 17 18  1  0
 18 19  1  0
 19 20  1  0
 19 21  2  0
 21 22  1  0
 22 23  2  0
 23 24  1  0
 22 25  1  0
 25 26  1  0
 26 27  1  0
 27 28  1  0
  5  6  1  0
  6  7  2  0
  7  8  1  0
  8  9  1  0
  8 10  2  0
  8 11  2  0
  7  2  1  0
 23 18  1  0
 28 21  1  0
  9 12  1  0
M  CHG 1   1  -1
M  CHG 1   9  -1
M  CHG 1  20  -1
M  CHG 1  24  -1
M  END
> <UniqueID>
57

> <SMILES>
COc1ccc([N-]C(=O)Cn2c([O-])c3c(c2[O-])CCCC3)cc1S([NH-])(=O)=O

> <Energy>
75.37176598839972

> <Genealogy>
COc1ccc([N-]C(=O)Cn2c([O-])c3c(c2[O-])CCCC3)cc1S([NH-])(=O)=O (protonated)
COc1ccc([N-]C(=O)Cn2c([O-])c3c(c2[O-])CCCC3)cc1S([NH-])(=O)=O (3D coordinates assigned)
COc1ccc([N-]C(=O)Cn2c([O-])c3c(c2[O-])CCCC3)cc1S([NH-])(=O)=O (nonaromatic ring conformer: 75.37176598839972 kcal/mol)

> <smiles>
COc1ccc(NC(=O)Cn2c(O)c3c(c2O)CCCC3)cc1S(N)(=O)=O

> <score_type>
oracle

> <origin>
adg

> <m_score__min__energy>
-15.74

> <m_primary>
energy

> <minimizedAffinity>
-7.60536

> <minimizedRMSD>
0.92302

> <CNNscore>
0.1549770385

> <CNNaffinity>
5.9520077705

> <CNN_VS>
0.9224245548

> <CNNaffinity_variance>
0.0011916932

$$$$
12:0


 33 36  0  0  0  0  0  0  0  0999 V2000
   57.7168   30.6749   44.8684 C   0  0  0  0  0  0  0  0  0  0  0  0
   57.5799   32.0176   45.3125 C   0  0  0  0  0  0  0  0  0  0  0  0
   58.4588   32.5611   46.2034 N   0  0  0  0  0  0  0  0  0  0  0  0
   59.4714   31.7950   46.6818 C   0  0  0  0  0  0  0  0  0  0  0  0
   59.6674   30.5097   46.2693 C   0  0  0  0  0  0  0  0  0  0  0  0
   60.7984   30.0452   46.9187 C   0  0  0  0  0  0  0  0  0  0  0  0
   61.2274   31.1005   47.7202 C   0  0  0  0  0  0  0  0  0  0  0  0
   60.4115   32.1665   47.5677 N   0  0  0  0  0  0  0  0  0  0  0  0
   58.8451   29.9096   45.3138 C   0  0  0  0  0  0  0  0  0  0  0  0
   59.1771   28.7236   44.8741 N   0  0  0  0  0  0  0  0  0  0  0  0
   58.3597   33.4961   46.4950 H   0  0  0  0  0  0  0  0  0  0  0  0
   58.8550   27.4328   45.4089 C   0  0  0  0  0  0  0  0  0  0  0  0
   59.8499   26.6937   46.0590 C   0  0  0  0  0  0  0  0  0  0  0  0
   59.5732   25.4137   46.5407 C   0  0  0  0  0  0  0  0  0  0  0  0
   58.3074   24.8504   46.3537 C   0  0  0  0  0  0  0  0  0  0  0  0
   57.3077   25.5595   45.6649 C   0  0  0  0  0  0  0  0  0  0  0  0
   57.5968   26.8489   45.1795 C   0  0  0  0  0  0  0  0  0  0  0  0
   55.9747   24.9559   45.4513 C   0  0  0  0  0  0  0  0  0  0  0  0
   55.8477   23.9076   44.7632 O   0  0  0  0  0  0  0  0  0  0  0  0
   54.8411   25.5386   46.0051 O   0  0  0  0  0  0  0  0  0  0  0  0
   55.4646   29.5502   44.8085 N   0  0  0  0  0  0  0  0  0  0  0  0
   56.5823   30.1026   44.1154 C   0  0  0  0  0  0  0  0  0  0  0  0
   56.5672   30.1627   42.8576 O   0  0  0  0  0  0  0  0  0  0  0  0
   54.7106   29.1699   44.3024 H   0  0  0  0  0  0  0  0  0  0  0  0
   60.5567   33.6942   48.3749 S   0  0  0  0  0  0  0  0  0  0  0  0
   59.4078   34.5727   47.9621 O   0  0  0  0  0  0  0  0  0  0  0  0
   61.8479   34.3567   47.9849 O   0  0  0  0  0  0  0  0  0  0  0  0
   60.5444   33.4453   50.1178 C   0  0  0  0  0  0  0  0  0  0  0  0
   61.7459   33.2812   50.8202 C   0  0  0  0  0  0  0  0  0  0  0  0
   61.7294   33.0914   52.2055 C   0  0  0  0  0  0  0  0  0  0  0  0
   60.5128   33.0624   52.8931 C   0  0  0  0  0  0  0  0  0  0  0  0
   59.3116   33.2223   52.1964 C   0  0  0  0  0  0  0  0  0  0  0  0
   59.3268   33.4112   50.8102 C   0  0  0  0  0  0  0  0  0  0  0  0
 21 22  1  0
 22 23  2  0
 22  1  1  0
  1  2  2  0
  2  3  1  0
  3  4  1  0
  4  5  2  0
  5  6  1  0
  6  7  2  0
  7  8  1  0
  8 25  1  0
 25 26  2  0
 25 27  2  0
 25 28  1  0
 28 29  2  0
 29 30  1  0
 30 31  2  0
 31 32  1  0
 32 33  2  0
  5  9  1  0
  9 10  2  0
 10 12  1  0
 12 13  2  0
 13 14  1  0
 14 15  2  0
 15 16  1  0
 16 18  1  0
 18 19  2  0
 18 20  1  0
 16 17  2  0
  9  1  1  0
 17 12  1  0
  8  4  1  0
 33 28  1  0
 21 24  1  0
  3 11  1  0
M  CHG 1  20  -1
M  CHG 1  21  -1
M  END
> <UniqueID>
11

> <SMILES>
[NH-]C(=O)c1c[nH]c2c(ccn2S(=O)(=O)c2ccccc2)/c1=N/c1cccc(C(=O)[O-])c1

> <Energy>
106.21327537321054

> <Genealogy>
[NH-]C(=O)c1c[nH]c2c(ccn2S(=O)(=O)c2ccccc2)c1=Nc1cccc(C(=O)[O-])c1 (protonated)
[NH-]C(=O)c1c[nH]c2c(ccn2S(=O)(=O)c2ccccc2)/c1=N/c1cccc(C(=O)[O-])c1 (cis-trans isomerization)
[NH-]C(=O)c1c[nH]c2c(ccn2S(=O)(=O)c2ccccc2)/c1=N/c1cccc(C(=O)[O-])c1 (3D coordinates assigned)
[NH-]C(=O)c1c[nH]c2c(ccn2S(=O)(=O)c2ccccc2)/c1=N/c1cccc(C(=O)[O-])c1 (optimized conformer: 106.21327537321054 kcal/mol)

> <smiles>
NC(=O)c1c[nH]c2c(ccn2S(=O)(=O)c2ccccc2)c1=Nc1cccc(C(=O)O)c1

> <score_type>
oracle

> <origin>
adg

> <m_score__min__energy>
-15.109999999999999

> <m_primary>
energy

> <minimizedAffinity>
-9.67476

> <minimizedRMSD>
0.55390

> <CNNscore>
0.6324816942

> <CNNaffinity>
6.8377346992

> <CNN_VS>
4.3247418404

> <CNNaffinity_variance>
0.0194328949

$$$$
23:0


 31 35  0  0  0  0  0  0  0  0999 V2000
   52.9451   29.8798   52.0996 C   0  0  0  0  0  0  0  0  0  0  0  0
   53.9742   29.3441   52.7728 C   0  0  0  0  0  0  0  0  0  0  0  0
   53.9638   28.3618   53.7578 C   0  0  0  0  0  0  0  0  0  0  0  0
   55.2260   28.1645   54.2016 N   0  0  0  0  0  0  0  0  0  0  0  0
   56.0393   28.9817   53.5403 N   0  0  0  0  0  0  0  0  0  0  0  0
   57.3942   29.1792   53.6336 C   0  0  0  0  0  0  0  0  0  0  0  0
   58.1888   28.5101   54.4216 N   0  0  0  0  0  0  0  0  0  0  0  0
   57.9487   30.1372   52.8384 N   0  0  0  0  0  0  0  0  0  0  0  0
   57.1904   30.8737   51.9720 C   0  0  0  0  0  0  0  0  0  0  0  0
   57.7330   31.7827   51.2196 N   0  0  0  0  0  0  0  0  0  0  0  0
   55.8502   30.6566   51.8917 N   0  0  0  0  0  0  0  0  0  0  0  0
   55.3025   29.7057   52.6845 C   0  0  0  0  0  0  0  0  0  0  0  0
   55.4970   27.5232   54.8978 H   0  0  0  0  0  0  0  0  0  0  0  0
   51.9863   30.8338   52.6828 C   0  0  0  0  0  0  0  0  0  0  0  0
   51.6972   30.8781   53.9950 N   0  0  0  0  0  0  0  0  0  0  0  0
   50.8527   31.9263   54.0957 C   0  0  0  0  0  0  0  0  0  0  0  0
   50.3437   32.2849   55.1886 O   0  0  0  0  0  0  0  0  0  0  0  0
   50.6053   32.5691   52.9341 N   0  0  0  0  0  0  0  0  0  0  0  0
   51.3399   31.8733   52.0507 C   0  0  0  0  0  0  0  0  0  0  0  0
   51.4532   32.2160   50.7093 O   0  0  0  0  0  0  0  0  0  0  0  0
   58.8104   28.9199   55.6739 C   0  0  0  0  0  0  0  0  0  0  0  0
   58.9656   30.4226   55.8332 C   0  0  0  0  0  0  0  0  0  0  0  0
   60.1626   29.5720   55.4430 C   0  0  0  0  0  0  0  0  0  0  0  0
   59.1671   32.0378   51.1510 C   0  0  0  0  0  0  0  0  0  0  0  0
   59.5928   32.8109   52.3664 C   0  0  0  0  0  0  0  0  0  0  0  0
   60.7318   32.4206   53.0902 C   0  0  0  0  0  0  0  0  0  0  0  0
   61.1077   33.1202   54.2415 C   0  0  0  0  0  0  0  0  0  0  0  0
   60.3436   34.2052   54.6834 C   0  0  0  0  0  0  0  0  0  0  0  0
   60.7085   34.8805   55.8016 F   0  0  0  0  0  0  0  0  0  0  0  0
   59.2004   34.5890   53.9762 C   0  0  0  0  0  0  0  0  0  0  0  0
   58.8216   33.8915   52.8248 C   0  0  0  0  0  0  0  0  0  0  0  0
  1 14  1  0
 14 15  1  0
 15 16  1  0
 16 17  2  0
 16 18  1  0
 18 19  1  0
 19 20  1  0
  1  2  2  0
  2  3  1  0
  3  4  2  0
  4  5  1  0
  5  6  1  0
  6  7  2  0
  7 21  1  0
 21 22  1  0
 22 23  1  0
  6  8  1  0
  8  9  1  0
  9 10  2  0
 10 24  1  0
 24 25  1  0
 25 26  2  0
 26 27  1  0
 27 28  2  0
 28 29  1  0
 28 30  1  0
 30 31  2  0
  9 11  1  0
 11 12  2  0
 19 14  2  0
 12  2  1  0
 12  5  1  0
 23 21  1  0
 31 25  1  0
  4 13  1  0
M  CHG 1   4   1
M  CHG 1   8  -1
M  CHG 1  15  -1
M  CHG 1  18  -1
M  CHG 1  20  -1
M  END
> <UniqueID>
23

> <SMILES>
O=c1[n-]c([O-])c(C=c2c[nH+]n3/c(=N\C4CC4)[n-]c(=NCc4ccc(F)cc4)nc23)[n-]1

> <Energy>
394.3719793315851

> <Genealogy>
O=c1[n-]c([O-])c(C=c2c[nH+]n3c(=NC4CC4)[n-]c(=NCc4ccc(F)cc4)nc23)[n-]1 (protonated)
O=c1[n-]c([O-])c(C=c2c[nH+]n3/c(=N\C4CC4)[n-]c(=NCc4ccc(F)cc4)nc23)[n-]1 (cis-trans isomerization)
O=c1[n-]c([O-])c(C=c2c[nH+]n3/c(=N\C4CC4)[n-]c(=NCc4ccc(F)cc4)nc23)[n-]1 (3D coordinates assigned)
O=c1[n-]c([O-])c(C=c2c[nH+]n3/c(=N\C4CC4)[n-]c(=NCc4ccc(F)cc4)nc23)[n-]1 (nonaromatic ring conformer: 394.3719793315851 kcal/mol)

> <smiles>
O=c1[nH]c(O)c(C=c2cnn3c(=NC4CC4)[nH]c(=NCc4ccc(F)cc4)nc23)[nH]1

> <score_type>
oracle

> <origin>
adg

> <m_score__min__energy>
-17.030000000000001

> <m_primary>
energy

> <minimizedAffinity>
-5.96584

> <minimizedRMSD>
0.70220

> <CNNscore>
0.1666022688

> <CNNaffinity>
5.1350579262

> <CNN_VS>
0.8555123210

> <CNNaffinity_variance>
0.0814438984

$$$$
82:0


 22 23  0  0  0  0  0  0  0  0999 V2000
   58.5066   30.1132   45.2587 C   0  0  0  0  0  0  0  0  0  0  0  0
   59.8396   29.8468   45.5936 C   0  0  0  0  0  0  0  0  0  0  0  0
   60.2299   28.5767   46.0183 C   0  0  0  0  0  0  0  0  0  0  0  0
   59.2913   27.5513   46.1118 C   0  0  0  0  0  0  0  0  0  0  0  0
   57.9501   27.7881   45.7681 C   0  0  0  0  0  0  0  0  0  0  0  0
   57.5515   29.0732   45.3648 C   0  0  0  0  0  0  0  0  0  0  0  0
   56.2090   29.2910   45.0805 O   0  0  0  0  0  0  0  0  0  0  0  0
   58.1893   31.4506   44.8353 N   0  0  0  0  0  0  0  0  0  0  0  0
   58.5666   32.5097   47.4573 C   0  0  0  0  0  0  0  0  0  0  0  0
   58.3345   32.9213   45.7435 S   0  0  0  0  0  0  0  0  0  0  0  0
   59.5249   33.7062   45.2690 O   0  0  0  0  0  0  0  0  0  0  0  0
   57.0826   33.7406   45.6035 O   0  0  0  0  0  0  0  0  0  0  0  0
   56.9610   26.7527   45.8786 N   0  0  0  0  0  0  0  0  0  0  0  0
   57.1881   25.4084   46.3242 C   0  0  0  0  0  0  0  0  0  0  0  0
   57.4605   25.2137   47.5388 O   0  0  0  0  0  0  0  0  0  0  0  0
   57.0597   24.2457   45.4149 C   0  0  0  0  0  0  0  0  0  0  0  0
   58.1126   23.3312   45.2491 C   0  0  0  0  0  0  0  0  0  0  0  0
   57.9700   22.2455   44.3817 C   0  0  0  0  0  0  0  0  0  0  0  0
   56.7759   22.0879   43.6736 C   0  0  0  0  0  0  0  0  0  0  0  0
   56.6314   21.1159   42.8875 O   0  0  0  0  0  0  0  0  0  0  0  0
   55.7706   22.9881   43.8298 N   0  0  0  0  0  0  0  0  0  0  0  0
   55.8843   24.0526   44.6693 C   0  0  0  0  0  0  0  0  0  0  0  0
  9 10  1  0
 10 11  2  0
 10 12  2  0
 10  8  1  0
  8  1  1  0
  1  2  2  0
  2  3  1  0
  3  4  2  0
  4  5  1  0
  5 13  1  0
 13 14  1  0
 14 15  2  0
 14 16  1  0
 16 17  1  0
 17 18  2  0
 18 19  1  0
 19 20  2  0
 19 21  1  0
 21 22  1  0
  5  6  2  0
  6  7  1  0
  6  1  1  0
 22 16  2  0
M  CHG 1   7  -1
M  CHG 1   8  -1
M  CHG 1  13  -1
M  CHG 1  21  -1
M  END
> <UniqueID>
78

> <SMILES>
CS(=O)(=O)[N-]c1cccc([N-]C(=O)c2ccc(=O)[n-]c2)c1[O-]

> <Energy>
42.435872063603746

> <Genealogy>
CS(=O)(=O)[N-]c1cccc([N-]C(=O)c2ccc(=O)[n-]c2)c1[O-] (protonated)
CS(=O)(=O)[N-]c1cccc([N-]C(=O)c2ccc(=O)[n-]c2)c1[O-] (3D coordinates assigned)
CS(=O)(=O)[N-]c1cccc([N-]C(=O)c2ccc(=O)[n-]c2)c1[O-] (optimized conformer: 42.435872063603746 kcal/mol)

> <smiles>
CS(=O)(=O)Nc1cccc(NC(=O)c2ccc(=O)[nH]c2)c1O

> <score_type>
oracle

> <origin>
adg

> <m_score__min__energy>
-16.100000000000001

> <m_primary>
energy

> <minimizedAffinity>
-7.14024

> <minimizedRMSD>
1.09890

> <CNNscore>
0.3195226192

> <CNNaffinity>
5.7137808800

> <CNN_VS>
1.8256822824

> <CNNaffinity_variance>
0.2621643841

$$$$
53:0


 28 32  0  0  0  0  0  0  0  0999 V2000
   59.0654   27.1377   45.1933 C   0  0  0  0  0  0  0  0  0  0  0  0
   58.6631   28.4156   45.2704 C   0  0  0  0  0  0  0  0  0  0  0  0
   57.7875   29.1144   44.4456 C   0  0  0  0  0  0  0  0  0  0  0  0
   57.6349   30.3698   44.9221 N   0  0  0  0  0  0  0  0  0  0  0  0
   58.3702   30.4966   46.0221 N   0  0  0  0  0  0  0  0  0  0  0  0
   58.5565   31.5598   46.8708 C   0  0  0  0  0  0  0  0  0  0  0  0
   58.0018   32.7318   46.7221 N   0  0  0  0  0  0  0  0  0  0  0  0
   59.3830   31.3798   47.9378 N   0  0  0  0  0  0  0  0  0  0  0  0
   60.0025   30.1854   48.1704 C   0  0  0  0  0  0  0  0  0  0  0  0
   60.7967   30.0768   49.1941 N   0  0  0  0  0  0  0  0  0  0  0  0
   59.8132   29.1486   47.3082 N   0  0  0  0  0  0  0  0  0  0  0  0
   58.9915   29.3301   46.2486 C   0  0  0  0  0  0  0  0  0  0  0  0
   57.0734   31.0725   44.5217 H   0  0  0  0  0  0  0  0  0  0  0  0
   58.2760   25.9950   45.6845 C   0  0  0  0  0  0  0  0  0  0  0  0
   58.7615   24.7448   45.7618 N   0  0  0  0  0  0  0  0  0  0  0  0
   57.6993   24.0199   46.1757 C   0  0  0  0  0  0  0  0  0  0  0  0
   57.7634   22.7802   46.3818 O   0  0  0  0  0  0  0  0  0  0  0  0
   56.5622   24.7281   46.3442 N   0  0  0  0  0  0  0  0  0  0  0  0
   56.9388   25.9744   46.0177 C   0  0  0  0  0  0  0  0  0  0  0  0
   56.0637   27.0528   45.9752 O   0  0  0  0  0  0  0  0  0  0  0  0
   61.9217   30.9092   49.5249 C   0  0  0  0  0  0  0  0  0  0  0  0
   62.5323   31.8164   48.6574 C   0  0  0  0  0  0  0  0  0  0  0  0
   63.8432   32.4917   49.4625 S   0  0  0  0  0  0  0  0  0  0  0  0
   63.6590   31.6431   50.9004 C   0  0  0  0  0  0  0  0  0  0  0  0
   62.5626   30.8035   50.7663 C   0  0  0  0  0  0  0  0  0  0  0  0
   58.6274   34.0383   46.5687 C   0  0  0  0  0  0  0  0  0  0  0  0
   59.0104   34.3860   45.1398 C   0  0  0  0  0  0  0  0  0  0  0  0
   60.0734   33.9210   46.1208 C   0  0  0  0  0  0  0  0  0  0  0  0
  1 14  1  0
 14 15  1  0
 15 16  1  0
 16 17  2  0
 16 18  1  0
 18 19  1  0
 19 20  1  0
  1  2  2  0
  2  3  1  0
  3  4  2  0
  4  5  1  0
  5  6  1  0
  6  7  2  0
  7 26  1  0
 26 27  1  0
 27 28  1  0
  6  8  1  0
  8  9  1  0
  9 10  2  0
 10 21  1  0
 21 22  2  0
 22 23  1  0
 23 24  1  0
 24 25  2  0
  9 11  1  0
 11 12  2  0
 19 14  2  0
 12  2  1  0
 12  5  1  0
 28 26  1  0
 25 21  1  0
  4 13  1  0
M  CHG 1   4   1
M  CHG 1   8  -1
M  CHG 1  15  -1
M  CHG 1  18  -1
M  CHG 1  20  -1
M  END
> <UniqueID>
46

> <SMILES>
O=c1[n-]c([O-])c(/C=c2\c[nH+]n3c(=NC4CC4)[n-]c(=Nc4ccsc4)nc23)[n-]1

> <Energy>
420.2131956695921

> <Genealogy>
O=c1[n-]c([O-])c(C=c2c[nH+]n3c(=NC4CC4)[n-]c(=Nc4ccsc4)nc23)[n-]1 (protonated)
O=c1[n-]c([O-])c(/C=c2\c[nH+]n3c(=NC4CC4)[n-]c(=Nc4ccsc4)nc23)[n-]1 (cis-trans isomerization)
O=c1[n-]c([O-])c(/C=c2\c[nH+]n3c(=NC4CC4)[n-]c(=Nc4ccsc4)nc23)[n-]1 (3D coordinates assigned)
O=c1[n-]c([O-])c(/C=c2\c[nH+]n3c(=NC4CC4)[n-]c(=Nc4ccsc4)nc23)[n-]1 (nonaromatic ring conformer: 420.2131956695921 kcal/mol)

> <smiles>
O=c1[nH]c(O)c(C=c2cnn3c(=NC4CC4)[nH]c(=Nc4ccsc4)nc23)[nH]1

> <score_type>
oracle

> <origin>
adg

> <m_score__min__energy>
-15.52

> <m_primary>
energy

> <minimizedAffinity>
-8.25222

> <minimizedRMSD>
1.37974

> <CNNscore>
0.2247885466

> <CNNaffinity>
6.3422188759

> <CNN_VS>
1.4256581068

> <CNNaffinity_variance>
0.0251618326

$$$$
31:0


 25 26  0  0  0  0  0  0  0  0999 V2000
   57.1342   30.7403   44.7714 C   0  0  0  0  0  0  0  0  0  0  0  0
   56.0694   30.0910   44.5919 O   0  0  0  0  0  0  0  0  0  0  0  0
   59.1772   29.3099   44.9788 C   0  0  0  0  0  0  0  0  0  0  0  0
   58.4083   30.1696   44.2919 C   0  0  0  0  0  0  0  0  0  0  0  0
   57.8028   25.7343   46.9244 C   0  0  0  0  0  0  0  0  0  0  0  0
   59.1517   26.1302   47.0138 C   0  0  0  0  0  0  0  0  0  0  0  0
   59.5904   27.2934   46.3735 C   0  0  0  0  0  0  0  0  0  0  0  0
   58.6898   28.0868   45.6519 C   0  0  0  0  0  0  0  0  0  0  0  0
   57.3531   27.6727   45.5300 C   0  0  0  0  0  0  0  0  0  0  0  0
   56.9115   26.5124   46.1737 C   0  0  0  0  0  0  0  0  0  0  0  0
   55.5784   26.1332   46.0655 O   0  0  0  0  0  0  0  0  0  0  0  0
   57.0324   23.3553   46.8961 C   0  0  0  0  0  0  0  0  0  0  0  0
   57.3175   24.5814   47.5611 O   0  0  0  0  0  0  0  0  0  0  0  0
   57.0911   32.0584   45.3328 N   0  0  0  0  0  0  0  0  0  0  0  0
   58.1736   32.7678   45.9501 C   0  0  0  0  0  0  0  0  0  0  0  0
   58.6623   33.9832   45.4367 C   0  0  0  0  0  0  0  0  0  0  0  0
   59.6906   34.6606   46.0967 C   0  0  0  0  0  0  0  0  0  0  0  0
   60.2281   34.1439   47.2776 C   0  0  0  0  0  0  0  0  0  0  0  0
   59.7273   32.9510   47.8156 C   0  0  0  0  0  0  0  0  0  0  0  0
   58.7019   32.2676   47.1477 C   0  0  0  0  0  0  0  0  0  0  0  0
   60.3833   32.2954   49.3114 S   0  0  0  0  0  0  0  0  0  0  0  0
   61.2109   33.5458   50.1688 N   0  0  0  0  0  0  0  0  0  0  0  0
   61.3389   31.1804   48.9931 O   0  0  0  0  0  0  0  0  0  0  0  0
   59.2750   31.7536   50.1706 O   0  0  0  0  0  0  0  0  0  0  0  0
   61.9636   33.9154   49.5881 H   0  0  0  0  0  0  0  0  0  0  0  0
 12 13  1  0
 13  5  1  0
  5  6  2  0
  6  7  1  0
  7  8  2  0
  8  3  1  0
  3  4  2  0
  4  1  1  0
  1  2  2  0
  1 14  1  0
 14 15  1  0
 15 16  2  0
 16 17  1  0
 17 18  2  0
 18 19  1  0
 19 21  1  0
 21 22  1  0
 21 23  2  0
 21 24  2  0
 19 20  2  0
  8  9  1  0
  9 10  2  0
 10 11  1  0
 10  5  1  0
 20 15  1  0
 22 25  1  0
M  CHG 1  11  -1
M  CHG 1  14  -1
M  CHG 1  22  -1
M  END
> <UniqueID>
27

> <SMILES>
COc1ccc(C=CC(=O)[N-]c2cccc(S([NH-])(=O)=O)c2)cc1[O-]

> <Energy>
46.695777585239796

> <Genealogy>
COc1ccc(C=CC(=O)[N-]c2cccc(S([NH-])(=O)=O)c2)cc1[O-] (protonated)
COc1ccc(C=CC(=O)[N-]c2cccc(S([NH-])(=O)=O)c2)cc1[O-] (3D coordinates assigned)
COc1ccc(C=CC(=O)[N-]c2cccc(S([NH-])(=O)=O)c2)cc1[O-] (optimized conformer: 46.695777585239796 kcal/mol)

> <smiles>
COc1ccc(C=CC(=O)Nc2cccc(S(N)(=O)=O)c2)cc1O

> <score_type>
oracle

> <origin>
adg

> <m_score__min__energy>
-14.56

> <m_primary>
energy

> <minimizedAffinity>
-7.64992

> <minimizedRMSD>
0.88765

> <CNNscore>
0.7670418024

> <CNNaffinity>
6.6506991386

> <CNN_VS>
5.1013641357

> <CNNaffinity_variance>
0.1677216738

$$$$
63:0


 32 36  0  0  0  0  0  0  0  0999 V2000
   58.3188   26.7825   44.8264 C   0  0  0  0  0  0  0  0  0  0  0  0
   58.0162   28.0728   45.0219 C   0  0  0  0  0  0  0  0  0  0  0  0
   57.1154   28.8849   44.3260 C   0  0  0  0  0  0  0  0  0  0  0  0
   57.1571   30.1471   44.8219 N   0  0  0  0  0  0  0  0  0  0  0  0
   58.0505   30.1442   45.7984 N   0  0  0  0  0  0  0  0  0  0  0  0
   58.4401   31.1841   46.5742 C   0  0  0  0  0  0  0  0  0  0  0  0
   57.9003   32.3612   46.4060 N   0  0  0  0  0  0  0  0  0  0  0  0
   59.4008   30.9460   47.5128 N   0  0  0  0  0  0  0  0  0  0  0  0
   59.9501   29.7023   47.6606 C   0  0  0  0  0  0  0  0  0  0  0  0
   60.8716   29.5175   48.5580 N   0  0  0  0  0  0  0  0  0  0  0  0
   59.5327   28.6738   46.8641 N   0  0  0  0  0  0  0  0  0  0  0  0
   58.5796   28.9284   45.9383 C   0  0  0  0  0  0  0  0  0  0  0  0
   55.4244   26.6757   45.9903 O   0  0  0  0  0  0  0  0  0  0  0  0
   56.3622   25.6459   46.0318 C   0  0  0  0  0  0  0  0  0  0  0  0
   56.1333   24.4682   46.6356 N   0  0  0  0  0  0  0  0  0  0  0  0
   57.3124   23.8267   46.4967 C   0  0  0  0  0  0  0  0  0  0  0  0
   57.5105   22.6676   46.9472 O   0  0  0  0  0  0  0  0  0  0  0  0
   58.2653   24.5255   45.8458 N   0  0  0  0  0  0  0  0  0  0  0  0
   57.6486   25.6772   45.5306 C   0  0  0  0  0  0  0  0  0  0  0  0
   54.5737   26.5500   46.3624 H   0  0  0  0  0  0  0  0  0  0  0  0
   58.4752   33.6969   46.1554 C   0  0  0  0  0  0  0  0  0  0  0  0
   59.9898   33.7896   46.0452 C   0  0  0  0  0  0  0  0  0  0  0  0
   59.2739   34.3308   47.2848 C   0  0  0  0  0  0  0  0  0  0  0  0
   61.1571   30.4350   49.6618 C   0  0  0  0  0  0  0  0  0  0  0  0
   61.9023   31.6522   49.1690 C   0  0  0  0  0  0  0  0  0  0  0  0
   62.6699   31.5723   47.9935 C   0  0  0  0  0  0  0  0  0  0  0  0
   63.3395   32.6960   47.5091 C   0  0  0  0  0  0  0  0  0  0  0  0
   63.2539   33.9090   48.1916 C   0  0  0  0  0  0  0  0  0  0  0  0
   62.4969   34.0039   49.3614 C   0  0  0  0  0  0  0  0  0  0  0  0
   61.8114   32.8770   49.8607 C   0  0  0  0  0  0  0  0  0  0  0  0
   61.0353   32.9398   51.0301 O   0  0  0  0  0  0  0  0  0  0  0  0
   59.7039   33.4386   51.0899 C   0  0  0  0  0  0  0  0  0  0  0  0
 13 14  1  0
 14 15  1  0
 15 16  1  0
 16 17  2  0
 16 18  1  0
 18 19  1  0
 19  1  1  0
  1  2  2  0
  2  3  1  0
  3  4  2  0
  4  5  1  0
  5  6  1  0
  6  7  2  0
  7 21  1  0
 21 22  1  0
 22 23  1  0
  6  8  1  0
  8  9  1  0
  9 10  2  0
 10 24  1  0
 24 25  1  0
 25 26  2  0
 26 27  1  0
 27 28  2  0
 28 29  1  0
 29 30  2  0
 30 31  1  0
 31 32  1  0
  9 11  1  0
 11 12  2  0
 19 14  2  0
 12  2  1  0
 12  5  1  0
 23 21  1  0
 30 25  1  0
 13 20  1  0
M  CHG 1   8  -1
M  CHG 1  15  -1
M  CHG 1  18  -1
M  END
> <UniqueID>
53

> <SMILES>
COc1ccccc1C/N=c1\nc2c(=Cc3[n-]c(=O)[n-]c3O)cnn2/c(=N/C2CC2)[n-]1

> <Energy>
399.56424775721155

> <Genealogy>
COc1ccccc1CN=c1nc2c(=Cc3[n-]c(=O)[n-]c3O)cnn2c(=NC2CC2)[n-]1 (protonated)
COc1ccccc1C/N=c1\nc2c(=Cc3[n-]c(=O)[n-]c3O)cnn2/c(=N/C2CC2)[n-]1 (cis-trans isomerization)
COc1ccccc1C/N=c1\nc2c(=Cc3[n-]c(=O)[n-]c3O)cnn2/c(=N/C2CC2)[n-]1 (3D coordinates assigned)
COc1ccccc1C/N=c1\nc2c(=Cc3[n-]c(=O)[n-]c3O)cnn2/c(=N/C2CC2)[n-]1 (nonaromatic ring conformer: 399.56424775721155 kcal/mol)

> <smiles>
COc1ccccc1CN=c1nc2c(=Cc3[nH]c(=O)[nH]c3O)cnn2c(=NC2CC2)[nH]1

> <score_type>
oracle

> <origin>
adg

> <m_score__min__energy>
-14.49

> <m_primary>
energy

> <minimizedAffinity>
-9.75845

> <minimizedRMSD>
0.50539

> <CNNscore>
0.6392034888

> <CNNaffinity>
7.0604071617

> <CNN_VS>
4.5130367279

> <CNNaffinity_variance>
0.0570466407

$$$$
69:0


 35 37  0  0  0  0  0  0  0  0999 V2000
   57.9722   33.0056   45.6710 N   0  0  0  0  0  0  0  0  0  0  0  0
   58.6295   33.8167   44.7882 C   0  0  0  0  0  0  0  0  0  0  0  0
   59.5737   34.7396   45.2347 C   0  0  0  0  0  0  0  0  0  0  0  0
   59.8275   34.8550   46.5962 C   0  0  0  0  0  0  0  0  0  0  0  0
   59.1435   34.0529   47.5049 C   0  0  0  0  0  0  0  0  0  0  0  0
   58.2403   33.0861   47.0152 C   0  0  0  0  0  0  0  0  0  0  0  0
   57.6991   32.2768   47.8146 O   0  0  0  0  0  0  0  0  0  0  0  0
   57.0159   32.0146   45.1525 C   0  0  0  0  0  0  0  0  0  0  0  0
   57.6987   31.0301   44.2396 C   0  0  0  0  0  0  0  0  0  0  0  0
   57.1495   30.7178   43.1496 O   0  0  0  0  0  0  0  0  0  0  0  0
   58.8671   30.3075   44.6498 N   0  0  0  0  0  0  0  0  0  0  0  0
   58.0417   27.1888   46.5383 C   0  0  0  0  0  0  0  0  0  0  0  0
   59.0653   27.1959   47.5053 C   0  0  0  0  0  0  0  0  0  0  0  0
   60.0126   28.2202   47.5314 C   0  0  0  0  0  0  0  0  0  0  0  0
   59.9528   29.2497   46.5944 C   0  0  0  0  0  0  0  0  0  0  0  0
   58.9233   29.2805   45.6452 C   0  0  0  0  0  0  0  0  0  0  0  0
   57.9840   28.2376   45.6065 C   0  0  0  0  0  0  0  0  0  0  0  0
   55.7259   26.3336   46.0179 N   0  0  0  0  0  0  0  0  0  0  0  0
   57.0464   26.0933   46.5021 C   0  0  0  0  0  0  0  0  0  0  0  0
   57.3592   24.9358   46.8951 O   0  0  0  0  0  0  0  0  0  0  0  0
   55.0686   25.6011   45.9963 H   0  0  0  0  0  0  0  0  0  0  0  0
   59.3812   34.2450   48.9055 N   0  0  0  0  0  0  0  0  0  0  0  0
   60.2022   33.0972   49.9121 S   0  0  0  0  0  0  0  0  0  0  0  0
   59.5113   31.7675   49.8149 O   0  0  0  0  0  0  0  0  0  0  0  0
   60.1682   33.5606   51.3464 O   0  0  0  0  0  0  0  0  0  0  0  0
   61.8641   32.9092   49.3489 C   0  0  0  0  0  0  0  0  0  0  0  0
   62.1100   32.7405   47.9823 C   0  0  0  0  0  0  0  0  0  0  0  0
   63.4175   32.6369   47.5084 C   0  0  0  0  0  0  0  0  0  0  0  0
   64.4921   32.7205   48.3957 C   0  0  0  0  0  0  0  0  0  0  0  0
   64.2649   32.9183   49.7690 C   0  0  0  0  0  0  0  0  0  0  0  0
   62.9427   32.9813   50.2424 C   0  0  0  0  0  0  0  0  0  0  0  0
   65.4170   32.9831   50.7393 C   0  0  0  0  0  0  0  0  0  0  0  0
   65.3921   34.1976   51.3970 F   0  0  0  0  0  0  0  0  0  0  0  0
   65.3416   31.9617   51.6730 F   0  0  0  0  0  0  0  0  0  0  0  0
   66.6153   32.8633   50.0635 F   0  0  0  0  0  0  0  0  0  0  0  0
 18 19  1  0
 19 20  2  0
 19 12  1  0
 12 13  2  0
 13 14  1  0
 14 15  2  0
 15 16  1  0
 16 11  1  0
 11  9  1  0
  9 10  2  0
  9  8  1  0
  8  1  1  0
  1  2  1  0
  2  3  2  0
  3  4  1  0
  4  5  2  0
  5 22  1  0
 22 23  1  0
 23 24  2  0
 23 25  2  0
 23 26  1  0
 26 27  2  0
 27 28  1  0
 28 29  2  0
 29 30  1  0
 30 32  1  0
 32 33  1  0
 32 34  1  0
 32 35  1  0
 30 31  2  0
  5  6  1  0
  6  7  2  0
 16 17  2  0
 17 12  1  0
  6  1  1  0
 31 26  1  0
 18 21  1  0
M  CHG 1  11  -1
M  CHG 1  18  -1
M  CHG 1  22  -1
M  END
> <UniqueID>
59

> <SMILES>
[NH-]C(=O)c1cccc([N-]C(=O)Cn2cccc([N-]S(=O)(=O)c3cccc(C(F)(F)F)c3)c2=O)c1

> <Energy>
65.40429847670136

> <Genealogy>
[NH-]C(=O)c1cccc([N-]C(=O)Cn2cccc([N-]S(=O)(=O)c3cccc(C(F)(F)F)c3)c2=O)c1 (protonated)
[NH-]C(=O)c1cccc([N-]C(=O)Cn2cccc([N-]S(=O)(=O)c3cccc(C(F)(F)F)c3)c2=O)c1 (3D coordinates assigned)
[NH-]C(=O)c1cccc([N-]C(=O)Cn2cccc([N-]S(=O)(=O)c3cccc(C(F)(F)F)c3)c2=O)c1 (optimized conformer: 65.40429847670136 kcal/mol)

> <smiles>
NC(=O)c1cccc(NC(=O)Cn2cccc(NS(=O)(=O)c3cccc(C(F)(F)F)c3)c2=O)c1

> <score_type>
oracle

> <origin>
adg

> <m_score__min__energy>
-14.33

> <m_primary>
energy

> <minimizedAffinity>
-8.04597

> <minimizedRMSD>
0.80841

> <CNNscore>
0.5185019374

> <CNNaffinity>
7.3986148834

> <CNN_VS>
3.8361961842

> <CNNaffinity_variance>
0.1161256805

$$$$
74:0


 22 23  0  0  0  0  0  0  0  0999 V2000
   58.2119   29.2640   45.1134 C   0  0  0  0  0  0  0  0  0  0  0  0
   59.5259   29.4549   44.6666 C   0  0  0  0  0  0  0  0  0  0  0  0
   60.5520   28.6324   45.1387 C   0  0  0  0  0  0  0  0  0  0  0  0
   60.2724   27.6222   46.0629 C   0  0  0  0  0  0  0  0  0  0  0  0
   58.9669   27.4307   46.5308 C   0  0  0  0  0  0  0  0  0  0  0  0
   57.9311   28.2445   46.0349 C   0  0  0  0  0  0  0  0  0  0  0  0
   55.3923   29.4899   44.7673 N   0  0  0  0  0  0  0  0  0  0  0  0
   56.9081   30.2713   44.4887 S   0  0  0  0  0  0  0  0  0  0  0  0
   56.9213   31.6058   45.1795 O   0  0  0  0  0  0  0  0  0  0  0  0
   57.0927   30.4892   43.0132 O   0  0  0  0  0  0  0  0  0  0  0  0
   54.6376   30.0730   44.4057 H   0  0  0  0  0  0  0  0  0  0  0  0
   58.7193   26.3667   47.4613 N   0  0  0  0  0  0  0  0  0  0  0  0
   57.9373   25.1898   47.2240 C   0  0  0  0  0  0  0  0  0  0  0  0
   57.6033   24.4322   48.1750 O   0  0  0  0  0  0  0  0  0  0  0  0
   57.6068   24.8002   45.8204 C   0  0  0  0  0  0  0  0  0  0  0  0
   56.3241   24.0305   45.7921 C   0  0  0  0  0  0  0  0  0  0  0  0
   56.2007   22.3501   45.7636 S   0  0  0  0  0  0  0  0  0  0  0  0
   54.5220   22.3914   45.8411 C   0  0  0  0  0  0  0  0  0  0  0  0
   53.7868   21.3689   45.8482 O   0  0  0  0  0  0  0  0  0  0  0  0
   54.0334   23.6478   45.9028 N   0  0  0  0  0  0  0  0  0  0  0  0
   55.0393   24.5607   45.8819 C   0  0  0  0  0  0  0  0  0  0  0  0
   54.7871   25.9258   45.9517 O   0  0  0  0  0  0  0  0  0  0  0  0
  7  8  1  0
  8  9  2  0
  8 10  2  0
  8  1  1  0
  1  2  2  0
  2  3  1  0
  3  4  2  0
  4  5  1  0
  5 12  1  0
 12 13  1  0
 13 14  2  0
 13 15  1  0
 15 16  1  0
 16 17  1  0
 17 18  1  0
 18 19  2  0
 18 20  1  0
 20 21  1  0
 21 22  1  0
  5  6  2  0
  6  1  1  0
 21 16  2  0
  7 11  1  0
M  CHG 1   7  -1
M  CHG 1  12  -1
M  CHG 1  20  -1
M  CHG 1  22  -1
M  END
> <UniqueID>
63

> <SMILES>
[NH-]S(=O)(=O)c1cccc([N-]C(=O)Cc2sc(=O)[n-]c2[O-])c1

> <Energy>
60.10244790681988

> <Genealogy>
[NH-]S(=O)(=O)c1cccc([N-]C(=O)Cc2sc(=O)[n-]c2[O-])c1 (protonated)
[NH-]S(=O)(=O)c1cccc([N-]C(=O)Cc2sc(=O)[n-]c2[O-])c1 (3D coordinates assigned)
[NH-]S(=O)(=O)c1cccc([N-]C(=O)Cc2sc(=O)[n-]c2[O-])c1 (optimized conformer: 60.10244790681988 kcal/mol)

> <smiles>
NS(=O)(=O)c1cccc(NC(=O)Cc2sc(=O)[nH]c2O)c1

> <score_type>
oracle

> <origin>
adg

> <m_score__min__energy>
-17.719999999999999

> <m_primary>
energy

> <minimizedAffinity>
-6.35573

> <minimizedRMSD>
0.85296

> <CNNscore>
0.3563567400

> <CNNaffinity>
5.4463005066

> <CNN_VS>
1.9408259392

> <CNNaffinity_variance>
0.0565913916

$$$$
20:0


 30 33  0  0  0  0  0  0  0  0999 V2000
   58.4085   31.6775   45.3779 C   0  0  0  0  0  0  0  0  0  0  0  0
   58.1594   32.7810   44.5405 C   0  0  0  0  0  0  0  0  0  0  0  0
   58.2164   34.0799   45.0525 C   0  0  0  0  0  0  0  0  0  0  0  0
   58.5313   34.2895   46.3954 C   0  0  0  0  0  0  0  0  0  0  0  0
   58.8020   33.2026   47.2289 C   0  0  0  0  0  0  0  0  0  0  0  0
   58.7533   31.8882   46.7240 C   0  0  0  0  0  0  0  0  0  0  0  0
   58.3877   30.3321   44.8749 N   0  0  0  0  0  0  0  0  0  0  0  0
   56.1290   29.7393   44.7089 O   0  0  0  0  0  0  0  0  0  0  0  0
   57.3093   29.3922   44.9849 C   0  0  0  0  0  0  0  0  0  0  0  0
   57.5664   28.0230   45.4711 C   0  0  0  0  0  0  0  0  0  0  0  0
   58.8723   27.5512   45.6657 C   0  0  0  0  0  0  0  0  0  0  0  0
   59.0481   26.2443   46.1257 C   0  0  0  0  0  0  0  0  0  0  0  0
   60.2071   25.7882   46.3099 O   0  0  0  0  0  0  0  0  0  0  0  0
   57.9678   25.4604   46.3736 N   0  0  0  0  0  0  0  0  0  0  0  0
   56.7080   25.9306   46.1806 C   0  0  0  0  0  0  0  0  0  0  0  0
   55.7185   25.1897   46.4136 O   0  0  0  0  0  0  0  0  0  0  0  0
   56.5156   27.1989   45.7348 N   0  0  0  0  0  0  0  0  0  0  0  0
   59.0311   30.7660   47.5242 O   0  0  0  0  0  0  0  0  0  0  0  0
   60.2485   30.0213   47.5118 C   0  0  0  0  0  0  0  0  0  0  0  0
   61.3764   30.8376   48.0696 C   0  0  0  0  0  0  0  0  0  0  0  0
   62.0808   31.7250   47.2559 C   0  0  0  0  0  0  0  0  0  0  0  0
   63.1199   32.4741   47.8108 C   0  0  0  0  0  0  0  0  0  0  0  0
   63.7526   33.2772   47.0693 O   0  0  0  0  0  0  0  0  0  0  0  0
   63.4410   32.3332   49.1389 N   0  0  0  0  0  0  0  0  0  0  0  0
   64.4590   33.0650   49.6968 C   0  0  0  0  0  0  0  0  0  0  0  0
   64.7862   32.9211   51.0471 C   0  0  0  0  0  0  0  0  0  0  0  0
   64.0709   32.0240   51.8352 C   0  0  0  0  0  0  0  0  0  0  0  0
   63.0372   31.2820   51.2714 C   0  0  0  0  0  0  0  0  0  0  0  0
   62.7293   31.4440   49.9165 C   0  0  0  0  0  0  0  0  0  0  0  0
   61.7192   30.7155   49.3751 N   0  0  0  0  0  0  0  0  0  0  0  0
  8  9  2  0
  9  7  1  0
  7  1  1  0
  1  2  2  0
  2  3  1  0
  3  4  2  0
  4  5  1  0
  5  6  2  0
  6 18  1  0
 18 19  1  0
 19 20  1  0
 20 21  2  0
 21 22  1  0
 22 23  2  0
 22 24  1  0
 24 25  1  0
 25 26  2  0
 26 27  1  0
 27 28  2  0
 28 29  1  0
 29 30  2  0
  9 10  1  0
 10 11  2  0
 11 12  1  0
 12 13  2  0
 12 14  1  0
 14 15  1  0
 15 16  2  0
 15 17  1  0
  6  1  1  0
 30 20  1  0
 17 10  1  0
 29 24  1  0
M  CHG 1   7  -1
M  CHG 1  14  -1
M  CHG 1  17  -1
M  END
> <UniqueID>
17

> <SMILES>
O=C([N-]c1ccccc1OCc1cc(=O)n2ccccc2n1)c1cc(=O)[n-]c(=O)[n-]1

> <Energy>
56.70750440613383

> <Genealogy>
O=C([N-]c1ccccc1OCc1cc(=O)n2ccccc2n1)c1cc(=O)[n-]c(=O)[n-]1 (protonated)
O=C([N-]c1ccccc1OCc1cc(=O)n2ccccc2n1)c1cc(=O)[n-]c(=O)[n-]1 (3D coordinates assigned)
O=C([N-]c1ccccc1OCc1cc(=O)n2ccccc2n1)c1cc(=O)[n-]c(=O)[n-]1 (optimized conformer: 56.70750440613383 kcal/mol)

> <smiles>
O=C(Nc1ccccc1OCc1cc(=O)n2ccccc2n1)c1cc(=O)[nH]c(=O)[nH]1

> <score_type>
oracle

> <origin>
adg

> <m_score__min__energy>
-15.84

> <m_primary>
energy

> <minimizedAffinity>
-8.61067

> <minimizedRMSD>
0.78141

> <CNNscore>
0.7464027405

> <CNNaffinity>
7.1572914124

> <CNN_VS>
5.3422217369

> <CNNaffinity_variance>
0.1410476565

$$$$
31:0


 25 27  0  0  0  0  0  0  0  0999 V2000
   58.0311   29.1823   44.7613 C   0  0  0  0  0  0  0  0  0  0  0  0
   59.2871   30.1964   45.2370 S   0  0  0  0  0  0  0  0  0  0  0  0
   58.3089   31.5750   45.2147 C   0  0  0  0  0  0  0  0  0  0  0  0
   58.6720   32.7801   45.5423 N   0  0  0  0  0  0  0  0  0  0  0  0
   57.0339   31.2782   44.8838 N   0  0  0  0  0  0  0  0  0  0  0  0
   56.8784   29.9521   44.6333 C   0  0  0  0  0  0  0  0  0  0  0  0
   55.6456   29.4151   44.2874 O   0  0  0  0  0  0  0  0  0  0  0  0
   59.4468   33.1571   46.6915 C   0  0  0  0  0  0  0  0  0  0  0  0
   60.7381   33.6597   46.5020 C   0  0  0  0  0  0  0  0  0  0  0  0
   61.5338   34.0007   47.5990 C   0  0  0  0  0  0  0  0  0  0  0  0
   61.0608   33.8199   48.9045 C   0  0  0  0  0  0  0  0  0  0  0  0
   59.7744   33.2823   49.0980 C   0  0  0  0  0  0  0  0  0  0  0  0
   58.9792   32.9433   48.0000 C   0  0  0  0  0  0  0  0  0  0  0  0
   61.8973   34.1794   49.9715 O   0  0  0  0  0  0  0  0  0  0  0  0
   63.1405   33.5493   50.2658 C   0  0  0  0  0  0  0  0  0  0  0  0
   58.1270   27.6952   44.6295 C   0  0  0  0  0  0  0  0  0  0  0  0
   57.5152   27.0423   45.8268 C   0  0  0  0  0  0  0  0  0  0  0  0
   56.2794   26.7957   45.8377 O   0  0  0  0  0  0  0  0  0  0  0  0
   59.1125   29.4610   48.9677 C   0  0  0  0  0  0  0  0  0  0  0  0
   58.4862   28.6041   48.1175 N   0  0  0  0  0  0  0  0  0  0  0  0
   59.0406   27.4205   47.7360 C   0  0  0  0  0  0  0  0  0  0  0  0
   58.3608   26.6585   46.9243 N   0  0  0  0  0  0  0  0  0  0  0  0
   60.2996   27.0570   48.2616 C   0  0  0  0  0  0  0  0  0  0  0  0
   60.9569   27.9263   49.1353 C   0  0  0  0  0  0  0  0  0  0  0  0
   60.3644   29.1382   49.4887 C   0  0  0  0  0  0  0  0  0  0  0  0
 19 20  1  0
 20 21  1  0
 21 22  2  0
 22 17  1  0
 17 18  2  0
 17 16  1  0
 16  1  1  0
  1  2  1  0
  2  3  1  0
  3  4  2  0
  4  8  1  0
  8  9  2  0
  9 10  1  0
 10 11  2  0
 11 14  1  0
 14 15  1  0
 11 12  1  0
 12 13  2  0
  3  5  1  0
  5  6  1  0
  6  7  1  0
 21 23  1  0
 23 24  2  0
 24 25  1  0
 25 19  2  0
  6  1  2  0
 13  8  1  0
M  CHG 1   5  -1
M  CHG 1   7  -1
M  CHG 1  20  -1
M  END
> <UniqueID>
27

> <SMILES>
COc1ccc(/N=c2/[n-]c([O-])c(CC(=O)/N=c3\cccc[n-]3)s2)cc1

> <Energy>
83.29667800151088

> <Genealogy>
COc1ccc(N=c2[n-]c([O-])c(CC(=O)N=c3cccc[n-]3)s2)cc1 (protonated)
COc1ccc(/N=c2/[n-]c([O-])c(CC(=O)/N=c3\cccc[n-]3)s2)cc1 (cis-trans isomerization)
COc1ccc(/N=c2/[n-]c([O-])c(CC(=O)/N=c3\cccc[n-]3)s2)cc1 (3D coordinates assigned)
COc1ccc(/N=c2/[n-]c([O-])c(CC(=O)/N=c3\cccc[n-]3)s2)cc1 (optimized conformer: 83.29667800151088 kcal/mol)

> <smiles>
COc1ccc(N=c2[nH]c(O)c(CC(=O)N=c3cccc[nH]3)s2)cc1

> <score_type>
oracle

> <origin>
adg

> <m_score__min__energy>
-14.5

> <m_primary>
energy

> <minimizedAffinity>
-6.64793

> <minimizedRMSD>
0.89437

> <CNNscore>
0.5422516465

> <CNNaffinity>
6.6004676819

> <CNN_VS>
3.5791144371

> <CNNaffinity_variance>
0.1504341513

$$$$
16:0


 28 29  0  0  0  0  0  0  0  0999 V2000
   57.1281   30.5445   44.7852 C   0  0  0  0  0  0  0  0  0  0  0  0
   56.0149   29.9710   44.6496 O   0  0  0  0  0  0  0  0  0  0  0  0
   57.1605   31.8672   45.3335 N   0  0  0  0  0  0  0  0  0  0  0  0
   60.3969   32.6065   47.0780 C   0  0  0  0  0  0  0  0  0  0  0  0
   60.6181   33.9251   46.6566 C   0  0  0  0  0  0  0  0  0  0  0  0
   59.6997   34.5567   45.8119 C   0  0  0  0  0  0  0  0  0  0  0  0
   58.5601   33.8732   45.3789 C   0  0  0  0  0  0  0  0  0  0  0  0
   58.3426   32.5464   45.7722 C   0  0  0  0  0  0  0  0  0  0  0  0
   59.2506   31.9245   46.6451 C   0  0  0  0  0  0  0  0  0  0  0  0
   63.1416   31.9039   47.5053 N   0  0  0  0  0  0  0  0  0  0  0  0
   61.5446   31.8256   48.1615 S   0  0  0  0  0  0  0  0  0  0  0  0
   61.5337   32.5230   49.4920 O   0  0  0  0  0  0  0  0  0  0  0  0
   61.1562   30.3847   48.3456 O   0  0  0  0  0  0  0  0  0  0  0  0
   63.7941   31.4480   48.1433 H   0  0  0  0  0  0  0  0  0  0  0  0
   58.3629   29.9085   44.2064 C   0  0  0  0  0  0  0  0  0  0  0  0
   58.4101   28.5126   44.4993 O   0  0  0  0  0  0  0  0  0  0  0  0
   58.8572   27.9914   45.7195 C   0  0  0  0  0  0  0  0  0  0  0  0
   60.0657   28.1021   46.0600 O   0  0  0  0  0  0  0  0  0  0  0  0
   57.8725   27.3587   46.6156 C   0  0  0  0  0  0  0  0  0  0  0  0
   57.8665   26.0652   46.9741 C   0  0  0  0  0  0  0  0  0  0  0  0
   57.4170   24.9410   46.1206 C   0  0  0  0  0  0  0  0  0  0  0  0
   58.3398   24.0019   45.6207 C   0  0  0  0  0  0  0  0  0  0  0  0
   57.9176   22.9822   44.7617 C   0  0  0  0  0  0  0  0  0  0  0  0
   59.0755   21.8227   44.1369 Cl  0  0  0  0  0  0  0  0  0  0  0  0
   56.5740   22.8982   44.3857 C   0  0  0  0  0  0  0  0  0  0  0  0
   55.6549   23.8410   44.8566 C   0  0  0  0  0  0  0  0  0  0  0  0
   56.0718   24.8654   45.7116 C   0  0  0  0  0  0  0  0  0  0  0  0
   55.1458   25.8023   46.1565 O   0  0  0  0  0  0  0  0  0  0  0  0
 10 11  1  0
 11 12  2  0
 11 13  2  0
 11  4  1  0
  4  5  2  0
  5  6  1  0
  6  7  2  0
  7  8  1  0
  8  3  1  0
  3  1  1  0
  1  2  2  0
  1 15  1  0
 15 16  1  0
 16 17  1  0
 17 18  2  0
 17 19  1  0
 19 20  2  0
 20 21  1  0
 21 22  2  0
 22 23  1  0
 23 24  1  0
 23 25  2  0
 25 26  1  0
 26 27  2  0
 27 28  1  0
  8  9  2  0
  9  4  1  0
 27 21  1  0
 10 14  1  0
M  CHG 1   3  -1
M  CHG 1  10  -1
M  CHG 1  28  -1
M  END
> <UniqueID>
14

> <SMILES>
[NH-]S(=O)(=O)c1cccc([N-]C(=O)COC(=O)C=Cc2cc(Cl)ccc2[O-])c1

> <Energy>
49.73718558532559

> <Genealogy>
[NH-]S(=O)(=O)c1cccc([N-]C(=O)COC(=O)C=Cc2cc(Cl)ccc2[O-])c1 (protonated)
[NH-]S(=O)(=O)c1cccc([N-]C(=O)COC(=O)C=Cc2cc(Cl)ccc2[O-])c1 (3D coordinates assigned)
[NH-]S(=O)(=O)c1cccc([N-]C(=O)COC(=O)C=Cc2cc(Cl)ccc2[O-])c1 (optimized conformer: 49.73718558532559 kcal/mol)

> <smiles>
NS(=O)(=O)c1cccc(NC(=O)COC(=O)C=Cc2cc(Cl)ccc2O)c1

> <score_type>
oracle

> <origin>
adg

> <m_score__min__energy>
-15

> <m_primary>
energy

> <minimizedAffinity>
-7.98623

> <minimizedRMSD>
1.60857

> <CNNscore>
0.4706764221

> <CNNaffinity>
6.1856803894

> <CNN_VS>
2.9114539623

> <CNNaffinity_variance>
0.0566365905

$$$$
62:0


 31 32  0  0  0  0  0  0  0  0999 V2000
   59.9752   32.9851   49.7400 C   0  0  0  0  0  0  0  0  0  0  0  0
   60.8443   33.8725   49.9471 O   0  0  0  0  0  0  0  0  0  0  0  0
   58.6538   31.2478   46.6438 C   0  0  0  0  0  0  0  0  0  0  0  0
   58.6053   32.3198   45.7359 C   0  0  0  0  0  0  0  0  0  0  0  0
   58.9989   33.5994   46.1405 C   0  0  0  0  0  0  0  0  0  0  0  0
   59.4405   33.8208   47.4477 C   0  0  0  0  0  0  0  0  0  0  0  0
   59.4878   32.7612   48.3650 C   0  0  0  0  0  0  0  0  0  0  0  0
   59.1218   31.4729   47.9458 C   0  0  0  0  0  0  0  0  0  0  0  0
   59.2452   28.8713   45.9830 C   0  0  0  0  0  0  0  0  0  0  0  0
   60.4773   29.1458   45.9565 O   0  0  0  0  0  0  0  0  0  0  0  0
   58.2902   29.9143   46.2505 N   0  0  0  0  0  0  0  0  0  0  0  0
   57.3332   29.7021   46.1589 H   0  0  0  0  0  0  0  0  0  0  0  0
   58.5357   27.3303   44.1372 C   0  0  0  0  0  0  0  0  0  0  0  0
   58.7731   27.4594   45.6544 C   0  0  0  0  0  0  0  0  0  0  0  0
   57.4528   27.1347   46.3871 C   0  0  0  0  0  0  0  0  0  0  0  0
   59.8459   26.4476   46.1003 C   0  0  0  0  0  0  0  0  0  0  0  0
   59.4948   32.2159   50.8478 N   0  0  0  0  0  0  0  0  0  0  0  0
   58.1816   32.3934   51.4596 C   0  0  0  0  0  0  0  0  0  0  0  0
   57.5908   31.0530   51.7850 C   0  0  0  0  0  0  0  0  0  0  0  0
   57.8955   30.0627   51.0701 O   0  0  0  0  0  0  0  0  0  0  0  0
   56.7672   30.8465   52.9408 N   0  0  0  0  0  0  0  0  0  0  0  0
   55.4321   30.3231   52.9516 C   0  0  0  0  0  0  0  0  0  0  0  0
   55.1011   29.3342   53.8846 C   0  0  0  0  0  0  0  0  0  0  0  0
   53.8154   28.7902   53.9074 C   0  0  0  0  0  0  0  0  0  0  0  0
   52.8551   29.2170   52.9869 C   0  0  0  0  0  0  0  0  0  0  0  0
   53.1747   30.1926   52.0251 C   0  0  0  0  0  0  0  0  0  0  0  0
   54.4764   30.7284   52.0050 C   0  0  0  0  0  0  0  0  0  0  0  0
   52.1572   30.6471   51.0472 C   0  0  0  0  0  0  0  0  0  0  0  0
   51.5986   31.9566   51.1391 N   0  0  0  0  0  0  0  0  0  0  0  0
   51.7796   29.8818   50.1196 O   0  0  0  0  0  0  0  0  0  0  0  0
   51.8848   32.5645   51.8587 H   0  0  0  0  0  0  0  0  0  0  0  0
 13 14  1  0
 14 15  1  0
 14 16  1  0
 14  9  1  0
  9 10  2  0
  9 11  1  0
 11  3  1  0
  3  4  2  0
  4  5  1  0
  5  6  2  0
  6  7  1  0
  7  1  1  0
  1  2  2  0
  1 17  1  0
 17 18  1  0
 18 19  1  0
 19 20  2  0
 19 21  1  0
 21 22  1  0
 22 23  2  0
 23 24  1  0
 24 25  2  0
 25 26  1  0
 26 28  1  0
 28 29  1  0
 28 30  2  0
 26 27  2  0
  7  8  2  0
  8  3  1  0
 27 22  1  0
 11 12  1  0
 29 31  1  0
M  CHG 1  17  -1
M  CHG 1  21  -1
M  CHG 1  29  -1
M  END
> <UniqueID>
54

> <SMILES>
CC(C)(C)C(=O)Nc1cccc(C(=O)[N-]CC(=O)[N-]c2cccc(C([NH-])=O)c2)c1

> <Energy>
54.10579957376236

> <Genealogy>
CC(C)(C)C(=O)Nc1cccc(C(=O)[N-]CC(=O)[N-]c2cccc(C([NH-])=O)c2)c1 (protonated)
CC(C)(C)C(=O)Nc1cccc(C(=O)[N-]CC(=O)[N-]c2cccc(C([NH-])=O)c2)c1 (3D coordinates assigned)
CC(C)(C)C(=O)Nc1cccc(C(=O)[N-]CC(=O)[N-]c2cccc(C([NH-])=O)c2)c1 (optimized conformer: 54.10579957376236 kcal/mol)

> <smiles>
CC(C)(C)C(=O)Nc1cccc(C(=O)NCC(=O)Nc2cccc(C(N)=O)c2)c1

> <score_type>
oracle

> <origin>
adg

> <m_score__min__energy>
-14.34

> <m_primary>
energy

> <minimizedAffinity>
-7.26314

> <minimizedRMSD>
1.23039

> <CNNscore>
0.7578896880

> <CNNaffinity>
6.8196206093

> <CNN_VS>
5.1685199738

> <CNNaffinity_variance>
0.1101110354

$$$$
36:0


 30 34  0  0  0  0  0  0  0  0999 V2000
   58.3607   26.7898   44.7549 C   0  0  0  0  0  0  0  0  0  0  0  0
   58.0193   28.0826   44.8503 C   0  0  0  0  0  0  0  0  0  0  0  0
   56.9499   28.6997   44.2018 C   0  0  0  0  0  0  0  0  0  0  0  0
   56.8890   30.0095   44.5478 N   0  0  0  0  0  0  0  0  0  0  0  0
   57.8789   30.2246   45.3992 N   0  0  0  0  0  0  0  0  0  0  0  0
   58.1909   31.3799   46.0356 C   0  0  0  0  0  0  0  0  0  0  0  0
   57.4991   32.4619   45.7975 N   0  0  0  0  0  0  0  0  0  0  0  0
   59.2321   31.3547   46.9153 N   0  0  0  0  0  0  0  0  0  0  0  0
   59.9229   30.2009   47.1584 C   0  0  0  0  0  0  0  0  0  0  0  0
   60.9182   30.2227   47.9938 N   0  0  0  0  0  0  0  0  0  0  0  0
   59.5855   29.0540   46.4949 N   0  0  0  0  0  0  0  0  0  0  0  0
   58.5670   29.1014   45.6071 C   0  0  0  0  0  0  0  0  0  0  0  0
   55.5430   26.8014   46.0179 O   0  0  0  0  0  0  0  0  0  0  0  0
   56.4302   25.7309   46.0507 C   0  0  0  0  0  0  0  0  0  0  0  0
   56.1913   24.5817   46.7031 N   0  0  0  0  0  0  0  0  0  0  0  0
   57.3330   23.8876   46.5076 C   0  0  0  0  0  0  0  0  0  0  0  0
   57.5135   22.7334   46.9770 O   0  0  0  0  0  0  0  0  0  0  0  0
   58.2708   24.5312   45.7803 N   0  0  0  0  0  0  0  0  0  0  0  0
   57.6776   25.6974   45.4680 C   0  0  0  0  0  0  0  0  0  0  0  0
   54.7116   26.7341   46.4447 H   0  0  0  0  0  0  0  0  0  0  0  0
   61.4998   31.3928   48.5954 C   0  0  0  0  0  0  0  0  0  0  0  0
   62.6240   32.0319   48.0385 C   0  0  0  0  0  0  0  0  0  0  0  0
   63.1838   33.1455   48.6721 C   0  0  0  0  0  0  0  0  0  0  0  0
   62.6385   33.6228   49.8669 C   0  0  0  0  0  0  0  0  0  0  0  0
   63.1810   34.7049   50.4775 F   0  0  0  0  0  0  0  0  0  0  0  0
   61.5400   32.9733   50.4393 C   0  0  0  0  0  0  0  0  0  0  0  0
   60.9822   31.8555   49.8117 C   0  0  0  0  0  0  0  0  0  0  0  0
   57.8397   33.8962   45.8471 C   0  0  0  0  0  0  0  0  0  0  0  0
   59.0908   34.3385   45.1045 C   0  0  0  0  0  0  0  0  0  0  0  0
   59.0816   34.2872   46.6349 C   0  0  0  0  0  0  0  0  0  0  0  0
 13 14  1  0
 14 15  1  0
 15 16  1  0
 16 17  2  0
 16 18  1  0
 18 19  1  0
 19  1  1  0
  1  2  2  0
  2  3  1  0
  3  4  2  0
  4  5  1  0
  5  6  1  0
  6  7  2  0
  7 28  1  0
 28 29  1  0
 29 30  1  0
  6  8  1  0
  8  9  1  0
  9 10  2  0
 10 21  1  0
 21 22  2  0
 22 23  1  0
 23 24  2  0
 24 25  1  0
 24 26  1  0
 26 27  2  0
  9 11  1  0
 11 12  2  0
 19 14  2  0
 12  2  1  0
 12  5  1  0
 30 28  1  0
 27 21  1  0
 13 20  1  0
M  CHG 1   8  -1
M  CHG 1  15  -1
M  CHG 1  18  -1
M  END
> <UniqueID>
34

> <SMILES>
O=c1[n-]c(O)c(/C=c2/cnn3/c(=N/C4CC4)[n-]c(=Nc4ccc(F)cc4)nc23)[n-]1

> <Energy>
398.8267637718529

> <Genealogy>
O=c1[n-]c(O)c(C=c2cnn3c(=NC4CC4)[n-]c(=Nc4ccc(F)cc4)nc23)[n-]1 (protonated)
O=c1[n-]c(O)c(/C=c2/cnn3/c(=N/C4CC4)[n-]c(=Nc4ccc(F)cc4)nc23)[n-]1 (cis-trans isomerization)
O=c1[n-]c(O)c(/C=c2/cnn3/c(=N/C4CC4)[n-]c(=Nc4ccc(F)cc4)nc23)[n-]1 (3D coordinates assigned)
O=c1[n-]c(O)c(/C=c2/cnn3/c(=N/C4CC4)[n-]c(=Nc4ccc(F)cc4)nc23)[n-]1 (nonaromatic ring conformer: 398.8267637718529 kcal/mol)

> <smiles>
O=c1[nH]c(O)c(C=c2cnn3c(=NC4CC4)[nH]c(=Nc4ccc(F)cc4)nc23)[nH]1

> <score_type>
oracle

> <origin>
adg

> <m_score__min__energy>
-14.32

> <m_primary>
energy

> <minimizedAffinity>
-10.21381

> <minimizedRMSD>
0.59340

> <CNNscore>
0.7014228106

> <CNNaffinity>
7.0366806984

> <CNN_VS>
4.9356884956

> <CNNaffinity_variance>
0.1156813502

$$$$
82:0


 27 28  0  0  0  0  0  0  0  0999 V2000
   59.1411   26.8344   45.6044 N   0  0  0  0  0  0  0  0  0  0  0  0
   58.2785   25.6738   45.6647 C   0  0  0  0  0  0  0  0  0  0  0  0
   58.0501   25.0100   44.6157 O   0  0  0  0  0  0  0  0  0  0  0  0
   60.1462   27.0950   46.6458 C   0  0  0  0  0  0  0  0  0  0  0  0
   60.3266   28.3989   48.7381 C   0  0  0  0  0  0  0  0  0  0  0  0
   59.5664   27.9602   47.7307 C   0  0  0  0  0  0  0  0  0  0  0  0
   58.9284   27.8398   44.5544 C   0  0  0  0  0  0  0  0  0  0  0  0
   57.7168   28.6539   44.8791 C   0  0  0  0  0  0  0  0  0  0  0  0
   56.8303   28.1828   45.6424 O   0  0  0  0  0  0  0  0  0  0  0  0
   57.5948   29.9742   44.3322 N   0  0  0  0  0  0  0  0  0  0  0  0
   58.0543   31.1974   44.9238 C   0  0  0  0  0  0  0  0  0  0  0  0
   57.8760   32.4450   44.2978 C   0  0  0  0  0  0  0  0  0  0  0  0
   58.3947   33.6052   44.8776 C   0  0  0  0  0  0  0  0  0  0  0  0
   59.1141   33.5397   46.0818 C   0  0  0  0  0  0  0  0  0  0  0  0
   59.7051   34.7942   46.6639 C   0  0  0  0  0  0  0  0  0  0  0  0
   59.3290   32.2843   46.6886 C   0  0  0  0  0  0  0  0  0  0  0  0
   60.2794   32.1203   48.1596 Cl  0  0  0  0  0  0  0  0  0  0  0  0
   58.7973   31.1260   46.1061 C   0  0  0  0  0  0  0  0  0  0  0  0
   57.5677   25.2743   46.9275 C   0  0  0  0  0  0  0  0  0  0  0  0
   56.4149   24.3734   46.6030 C   0  0  0  0  0  0  0  0  0  0  0  0
   56.4287   23.0383   46.7538 N   0  0  0  0  0  0  0  0  0  0  0  0
   55.1808   22.6697   46.3846 C   0  0  0  0  0  0  0  0  0  0  0  0
   54.7993   21.4685   46.3832 O   0  0  0  0  0  0  0  0  0  0  0  0
   54.3751   23.6884   46.0179 N   0  0  0  0  0  0  0  0  0  0  0  0
   55.1692   24.7609   46.1683 C   0  0  0  0  0  0  0  0  0  0  0  0
   54.7669   26.0675   45.9160 O   0  0  0  0  0  0  0  0  0  0  0  0
   53.8945   26.2404   45.6210 H   0  0  0  0  0  0  0  0  0  0  0  0
  5  6  2  0
  6  4  1  0
  4  1  1  0
  1  7  1  0
  7  8  1  0
  8  9  2  0
  8 10  1  0
 10 11  1  0
 11 12  2  0
 12 13  1  0
 13 14  2  0
 14 15  1  0
 14 16  1  0
 16 17  1  0
 16 18  2  0
  1  2  1  0
  2  3  2  0
  2 19  1  0
 19 20  1  0
 20 21  1  0
 21 22  1  0
 22 23  2  0
 22 24  1  0
 24 25  1  0
 25 26  1  0
 18 11  1  0
 25 20  2  0
 26 27  1  0
M  CHG 1  10  -1
M  CHG 1  21  -1
M  CHG 1  24  -1
M  END
> <UniqueID>
76

> <SMILES>
C=CCN(CC(=O)[N-]c1ccc(C)c(Cl)c1)C(=O)Cc1[n-]c(=O)[n-]c1O

> <Energy>
64.19881141370675

> <Genealogy>
C=CCN(CC(=O)[N-]c1ccc(C)c(Cl)c1)C(=O)Cc1[n-]c(=O)[n-]c1O (protonated)
C=CCN(CC(=O)[N-]c1ccc(C)c(Cl)c1)C(=O)Cc1[n-]c(=O)[n-]c1O (3D coordinates assigned)
C=CCN(CC(=O)[N-]c1ccc(C)c(Cl)c1)C(=O)Cc1[n-]c(=O)[n-]c1O (optimized conformer: 64.19881141370675 kcal/mol)

> <smiles>
C=CCN(CC(=O)Nc1ccc(C)c(Cl)c1)C(=O)Cc1[nH]c(=O)[nH]c1O

> <score_type>
oracle

> <origin>
adg

> <m_score__min__energy>
-14.09

> <m_primary>
energy

> <minimizedAffinity>
-7.56596

> <minimizedRMSD>
1.95618

> <CNNscore>
0.3084491491

> <CNNaffinity>
6.5619177818

> <CNN_VS>
2.0240180492

> <CNNaffinity_variance>
0.0159762651

$$$$
17:0


 22 23  0  0  0  0  0  0  0  0999 V2000
   59.3676   28.7698   46.5589 C   0  0  0  0  0  0  0  0  0  0  0  0
   58.9724   28.7656   45.2104 C   0  0  0  0  0  0  0  0  0  0  0  0
   58.4695   29.9275   44.6215 C   0  0  0  0  0  0  0  0  0  0  0  0
   58.3777   31.1093   45.3624 C   0  0  0  0  0  0  0  0  0  0  0  0
   57.8723   32.2560   44.7616 O   0  0  0  0  0  0  0  0  0  0  0  0
   58.7943   31.1389   46.7007 C   0  0  0  0  0  0  0  0  0  0  0  0
   59.2999   29.9649   47.2907 C   0  0  0  0  0  0  0  0  0  0  0  0
   59.9556   26.3347   46.6560 C   0  0  0  0  0  0  0  0  0  0  0  0
   59.9269   27.5599   47.2023 C   0  0  0  0  0  0  0  0  0  0  0  0
   58.7719   25.5710   46.2029 C   0  0  0  0  0  0  0  0  0  0  0  0
   58.9014   24.3447   45.5267 C   0  0  0  0  0  0  0  0  0  0  0  0
   57.7656   23.6571   45.0887 C   0  0  0  0  0  0  0  0  0  0  0  0
   57.9001   22.4381   44.4332 O   0  0  0  0  0  0  0  0  0  0  0  0
   56.4942   24.1962   45.3049 C   0  0  0  0  0  0  0  0  0  0  0  0
   56.3573   25.4290   45.9493 C   0  0  0  0  0  0  0  0  0  0  0  0
   55.0950   25.9715   46.1522 O   0  0  0  0  0  0  0  0  0  0  0  0
   57.4932   26.1193   46.3879 C   0  0  0  0  0  0  0  0  0  0  0  0
   58.6932   32.3717   47.4293 N   0  0  0  0  0  0  0  0  0  0  0  0
   59.9264   33.5863   47.5157 S   0  0  0  0  0  0  0  0  0  0  0  0
   59.9873   34.1538   48.9068 O   0  0  0  0  0  0  0  0  0  0  0  0
   61.2552   32.9933   47.1441 O   0  0  0  0  0  0  0  0  0  0  0  0
   59.5315   34.8911   46.3748 C   0  0  0  0  0  0  0  0  0  0  0  0
  8  9  2  0
  9  1  1  0
  1  2  2  0
  2  3  1  0
  3  4  2  0
  4  5  1  0
  4  6  1  0
  6 18  1  0
 18 19  1  0
 19 20  2  0
 19 21  2  0
 19 22  1  0
  6  7  2  0
  8 10  1  0
 10 11  2  0
 11 12  1  0
 12 13  1  0
 12 14  2  0
 14 15  1  0
 15 16  1  0
 15 17  2  0
  7  1  1  0
 17 10  1  0
M  CHG 1   5  -1
M  CHG 1  13  -1
M  CHG 1  16  -1
M  CHG 1  18  -1
M  END
> <UniqueID>
18

> <SMILES>
CS(=O)(=O)[N-]c1cc(/C=C\c2cc([O-])cc([O-])c2)ccc1[O-]

> <Energy>
42.46254495575379

> <Genealogy>
CS(=O)(=O)[N-]c1cc(C=Cc2cc([O-])cc([O-])c2)ccc1[O-] (protonated)
CS(=O)(=O)[N-]c1cc(/C=C\c2cc([O-])cc([O-])c2)ccc1[O-] (cis-trans isomerization)
CS(=O)(=O)[N-]c1cc(/C=C\c2cc([O-])cc([O-])c2)ccc1[O-] (3D coordinates assigned)
CS(=O)(=O)[N-]c1cc(/C=C\c2cc([O-])cc([O-])c2)ccc1[O-] (optimized conformer: 42.46254495575379 kcal/mol)

> <smiles>
CS(=O)(=O)Nc1cc(C=Cc2cc(O)cc(O)c2)ccc1O

> <score_type>
oracle

> <origin>
adg

> <m_score__min__energy>
-15.050000000000001

> <m_primary>
energy

> <minimizedAffinity>
-7.79706

> <minimizedRMSD>
1.44962

> <CNNscore>
0.3201218843

> <CNNaffinity>
5.8255620003

> <CNN_VS>
1.8648898602

> <CNNaffinity_variance>
0.0661048666

$$$$
23:0


 30 34  0  0  0  0  0  0  0  0999 V2000
   58.1890   27.7695   45.2959 C   0  0  0  0  0  0  0  0  0  0  0  0
   59.2712   28.3702   45.8087 C   0  0  0  0  0  0  0  0  0  0  0  0
   60.5783   27.8941   45.7460 C   0  0  0  0  0  0  0  0  0  0  0  0
   61.4209   28.7750   46.3356 N   0  0  0  0  0  0  0  0  0  0  0  0
   60.6887   29.7931   46.7592 N   0  0  0  0  0  0  0  0  0  0  0  0
   61.0922   30.9410   47.3756 C   0  0  0  0  0  0  0  0  0  0  0  0
   62.3325   31.1847   47.6920 N   0  0  0  0  0  0  0  0  0  0  0  0
   60.1452   31.8752   47.6599 N   0  0  0  0  0  0  0  0  0  0  0  0
   58.8312   31.6733   47.3291 C   0  0  0  0  0  0  0  0  0  0  0  0
   57.9324   32.5762   47.5875 N   0  0  0  0  0  0  0  0  0  0  0  0
   58.4560   30.5187   46.7132 N   0  0  0  0  0  0  0  0  0  0  0  0
   59.4013   29.5855   46.4563 C   0  0  0  0  0  0  0  0  0  0  0  0
   57.8146   26.3708   45.5592 C   0  0  0  0  0  0  0  0  0  0  0  0
   58.6959   25.3555   45.5641 N   0  0  0  0  0  0  0  0  0  0  0  0
   57.9483   24.2958   45.9399 C   0  0  0  0  0  0  0  0  0  0  0  0
   58.4237   23.1351   46.0478 O   0  0  0  0  0  0  0  0  0  0  0  0
   56.6541   24.5773   46.2017 N   0  0  0  0  0  0  0  0  0  0  0  0
   56.5884   25.8976   45.9690 C   0  0  0  0  0  0  0  0  0  0  0  0
   55.4431   26.6589   46.1677 O   0  0  0  0  0  0  0  0  0  0  0  0
   63.0971   32.3798   47.3515 C   0  0  0  0  0  0  0  0  0  0  0  0
   62.6405   33.6322   48.0777 C   0  0  0  0  0  0  0  0  0  0  0  0
   63.9005   32.9068   48.5261 C   0  0  0  0  0  0  0  0  0  0  0  0
   57.2450   33.3824   46.5784 C   0  0  0  0  0  0  0  0  0  0  0  0
   57.4454   32.7952   45.2056 C   0  0  0  0  0  0  0  0  0  0  0  0
   58.2980   33.4166   44.2805 C   0  0  0  0  0  0  0  0  0  0  0  0
   58.4913   32.8564   43.0147 C   0  0  0  0  0  0  0  0  0  0  0  0
   57.8404   31.6693   42.6660 C   0  0  0  0  0  0  0  0  0  0  0  0
   57.0029   31.0261   43.5884 C   0  0  0  0  0  0  0  0  0  0  0  0
   56.2774   29.7709   43.2027 C   0  0  0  0  0  0  0  0  0  0  0  0
   56.7963   31.6004   44.8531 C   0  0  0  0  0  0  0  0  0  0  0  0
  1 13  1  0
 13 14  1  0
 14 15  1  0
 15 16  2  0
 15 17  1  0
 17 18  1  0
 18 19  1  0
  1  2  2  0
  2  3  1  0
  3  4  2  0
  4  5  1  0
  5  6  1  0
  6  7  2  0
  7 20  1  0
 20 21  1  0
 21 22  1  0
  6  8  1  0
  8  9  1  0
  9 10  2  0
 10 23  1  0
 23 24  1  0
 24 25  2  0
 25 26  1  0
 26 27  2  0
 27 28  1  0
 28 29  1  0
 28 30  2  0
  9 11  1  0
 11 12  2  0
 18 13  2  0
 12  2  1  0
 12  5  1  0
 22 20  1  0
 30 24  1  0
M  CHG 1   8  -1
M  CHG 1  14  -1
M  CHG 1  17  -1
M  CHG 1  19  -1
M  END
> <UniqueID>
24

> <SMILES>
Cc1cccc(C/N=c2/nc3/c(=C\c4[n-]c(=O)[n-]c4[O-])cnn3c(=NC3CC3)[n-]2)c1

> <Energy>
391.3228320831756

> <Genealogy>
Cc1cccc(CN=c2nc3c(=Cc4[n-]c(=O)[n-]c4[O-])cnn3c(=NC3CC3)[n-]2)c1 (protonated)
Cc1cccc(C/N=c2/nc3/c(=C\c4[n-]c(=O)[n-]c4[O-])cnn3c(=NC3CC3)[n-]2)c1 (cis-trans isomerization)
Cc1cccc(C/N=c2/nc3/c(=C\c4[n-]c(=O)[n-]c4[O-])cnn3c(=NC3CC3)[n-]2)c1 (3D coordinates assigned)
Cc1cccc(C/N=c2/nc3/c(=C\c4[n-]c(=O)[n-]c4[O-])cnn3c(=NC3CC3)[n-]2)c1 (nonaromatic ring conformer: 391.3228320831756 kcal/mol)

> <smiles>
Cc1cccc(CN=c2nc3c(=Cc4[nH]c(=O)[nH]c4O)cnn3c(=NC3CC3)[nH]2)c1

> <score_type>
oracle

> <origin>
adg

> <m_score__min__energy>
-18.539999999999999

> <m_primary>
energy

> <minimizedAffinity>
-5.26059

> <minimizedRMSD>
0.70407

> <CNNscore>
0.1718396246

> <CNNaffinity>
6.4515938759

> <CNN_VS>
1.1086394787

> <CNNaffinity_variance>
0.0402999818

$$$$
34:0


 27 29  0  0  0  0  0  0  0  0999 V2000
   58.9391   31.7440   45.8273 C   0  0  0  0  0  0  0  0  0  0  0  0
   59.7119   30.7032   46.3621 C   0  0  0  0  0  0  0  0  0  0  0  0
   59.2226   29.3943   46.3606 C   0  0  0  0  0  0  0  0  0  0  0  0
   57.9360   29.1337   45.8452 C   0  0  0  0  0  0  0  0  0  0  0  0
   57.4151   27.9383   45.7983 N   0  0  0  0  0  0  0  0  0  0  0  0
   57.2103   30.1680   45.3409 N   0  0  0  0  0  0  0  0  0  0  0  0
   57.6700   31.4471   45.3304 C   0  0  0  0  0  0  0  0  0  0  0  0
   57.7732   26.8234   44.9614 C   0  0  0  0  0  0  0  0  0  0  0  0
   58.4128   27.0166   43.8914 O   0  0  0  0  0  0  0  0  0  0  0  0
   57.4674   25.4382   45.4089 C   0  0  0  0  0  0  0  0  0  0  0  0
   58.4459   24.4318   45.2824 C   0  0  0  0  0  0  0  0  0  0  0  0
   58.1832   23.1236   45.6951 C   0  0  0  0  0  0  0  0  0  0  0  0
   56.9425   22.7978   46.2427 C   0  0  0  0  0  0  0  0  0  0  0  0
   55.9606   23.7802   46.3787 C   0  0  0  0  0  0  0  0  0  0  0  0
   56.2126   25.0943   45.9690 C   0  0  0  0  0  0  0  0  0  0  0  0
   55.2085   26.0436   46.1271 O   0  0  0  0  0  0  0  0  0  0  0  0
   59.3963   33.1051   45.8200 N   0  0  0  0  0  0  0  0  0  0  0  0
   59.7807   33.8740   46.9665 C   0  0  0  0  0  0  0  0  0  0  0  0
   59.0037   34.7811   47.3710 O   0  0  0  0  0  0  0  0  0  0  0  0
   63.5067   33.3241   48.9802 C   0  0  0  0  0  0  0  0  0  0  0  0
   63.4551   33.1765   47.5929 C   0  0  0  0  0  0  0  0  0  0  0  0
   62.2405   33.3580   46.9274 C   0  0  0  0  0  0  0  0  0  0  0  0
   61.0793   33.6742   47.6511 C   0  0  0  0  0  0  0  0  0  0  0  0
   61.1807   33.8276   49.0428 C   0  0  0  0  0  0  0  0  0  0  0  0
   62.3755   33.6469   49.6670 N   0  0  0  0  0  0  0  0  0  0  0  0
   64.9433   32.0822   50.5695 C   0  0  0  0  0  0  0  0  0  0  0  0
   64.7226   33.1417   49.6449 O   0  0  0  0  0  0  0  0  0  0  0  0
 26 27  1  0
 27 20  1  0
 20 21  2  0
 21 22  1  0
 22 23  2  0
 23 18  1  0
 18 19  2  0
 18 17  1  0
 17  1  1  0
  1  2  1  0
  2  3  2  0
  3  4  1  0
  4  5  2  0
  5  8  1  0
  8  9  2  0
  8 10  1  0
 10 11  2  0
 11 12  1  0
 12 13  2  0
 13 14  1  0
 14 15  2  0
 15 16  1  0
  4  6  1  0
  6  7  1  0
 23 24  1  0
 24 25  2  0
 25 20  1  0
  7  1  2  0
 15 10  1  0
M  CHG 1   6  -1
M  CHG 1  16  -1
M  CHG 1  17  -1
M  END
> <UniqueID>
35

> <SMILES>
COc1ccc(C(=O)[N-]c2ccc(=NC(=O)c3ccccc3[O-])[n-]c2)cn1

> <Energy>
59.4469417255727

> <Genealogy>
COc1ccc(C(=O)[N-]c2ccc(=NC(=O)c3ccccc3[O-])[n-]c2)cn1 (protonated)
COc1ccc(C(=O)[N-]c2ccc(=NC(=O)c3ccccc3[O-])[n-]c2)cn1 (3D coordinates assigned)
COc1ccc(C(=O)[N-]c2ccc(=NC(=O)c3ccccc3[O-])[n-]c2)cn1 (optimized conformer: 59.4469417255727 kcal/mol)

> <smiles>
COc1ccc(C(=O)Nc2ccc(=NC(=O)c3ccccc3O)[nH]c2)cn1

> <score_type>
oracle

> <origin>
adg

> <m_score__min__energy>
-14.380000000000001

> <m_primary>
energy

> <minimizedAffinity>
-8.04444

> <minimizedRMSD>
0.71684

> <CNNscore>
0.3374122381

> <CNNaffinity>
6.6023974419

> <CNN_VS>
2.2277297974

> <CNNaffinity_variance>
0.2198242992

$$$$
36:0


 28 30  0  0  0  0  0  0  0  0999 V2000
   58.8840   33.4631   45.6086 C   0  0  0  0  0  0  0  0  0  0  0  0
   58.8516   34.4991   44.8949 O   0  0  0  0  0  0  0  0  0  0  0  0
   60.0044   33.2710   46.4860 N   0  0  0  0  0  0  0  0  0  0  0  0
   59.5180   31.5591   49.7932 C   0  0  0  0  0  0  0  0  0  0  0  0
   59.8380   32.6068   50.6697 C   0  0  0  0  0  0  0  0  0  0  0  0
   60.1913   33.8597   50.1632 C   0  0  0  0  0  0  0  0  0  0  0  0
   60.2437   34.0697   48.7818 C   0  0  0  0  0  0  0  0  0  0  0  0
   59.9604   33.0212   47.8969 C   0  0  0  0  0  0  0  0  0  0  0  0
   59.5686   31.7742   48.4100 C   0  0  0  0  0  0  0  0  0  0  0  0
   60.3335   29.3445   51.3886 N   0  0  0  0  0  0  0  0  0  0  0  0
   59.0561   29.9755   50.4091 S   0  0  0  0  0  0  0  0  0  0  0  0
   58.7969   29.0476   49.2561 O   0  0  0  0  0  0  0  0  0  0  0  0
   57.8080   30.0816   51.2394 O   0  0  0  0  0  0  0  0  0  0  0  0
   60.0666   28.4271   51.7458 H   0  0  0  0  0  0  0  0  0  0  0  0
   57.8303   32.4028   45.4094 C   0  0  0  0  0  0  0  0  0  0  0  0
   58.2478   31.3415   44.3805 C   0  0  0  0  0  0  0  0  0  0  0  0
   58.2552   29.9995   44.9673 N   0  0  0  0  0  0  0  0  0  0  0  0
   57.1983   29.1618   45.0759 C   0  0  0  0  0  0  0  0  0  0  0  0
   55.9112   29.4654   44.6482 O   0  0  0  0  0  0  0  0  0  0  0  0
   57.5843   27.9737   45.6610 C   0  0  0  0  0  0  0  0  0  0  0  0
   58.9257   28.0820   45.9225 C   0  0  0  0  0  0  0  0  0  0  0  0
   59.3143   29.3343   45.4886 C   0  0  0  0  0  0  0  0  0  0  0  0
   60.6107   29.8385   45.5788 O   0  0  0  0  0  0  0  0  0  0  0  0
   59.7480   27.0048   46.5508 C   0  0  0  0  0  0  0  0  0  0  0  0
   58.9091   25.7907   46.9030 C   0  0  0  0  0  0  0  0  0  0  0  0
   57.5872   25.6833   46.6435 C   0  0  0  0  0  0  0  0  0  0  0  0
   56.7646   26.7614   45.9649 C   0  0  0  0  0  0  0  0  0  0  0  0
   61.2918   29.3154   45.9537 H   0  0  0  0  0  0  0  0  0  0  0  0
 10 11  1  0
 11 12  2  0
 11 13  2  0
 11  4  1  0
  4  5  2  0
  5  6  1  0
  6  7  2  0
  7  8  1  0
  8  3  1  0
  3  1  1  0
  1  2  2  0
  1 15  1  0
 15 16  1  0
 16 17  1  0
 17 18  1  0
 18 19  1  0
 18 20  2  0
 20 21  1  0
 21 22  2  0
 22 23  1  0
 21 24  1  0
 24 25  1  0
 25 26  2  0
 26 27  1  0
  8  9  2  0
  9  4  1  0
 22 17  1  0
 27 20  1  0
 10 14  1  0
 23 28  1  0
M  CHG 1   3  -1
M  CHG 1  10  -1
M  CHG 1  19  -1
M  END
> <UniqueID>
36

> <SMILES>
[NH-]S(=O)(=O)c1cccc([N-]C(=O)CCn2c([O-])c3c(c2O)CC=CC3)c1

> <Energy>
77.66521584715554

> <Genealogy>
[NH-]S(=O)(=O)c1cccc([N-]C(=O)CCn2c([O-])c3c(c2O)CC=CC3)c1 (protonated)
[NH-]S(=O)(=O)c1cccc([N-]C(=O)CCn2c([O-])c3c(c2O)CC=CC3)c1 (3D coordinates assigned)
[NH-]S(=O)(=O)c1cccc([N-]C(=O)CCn2c([O-])c3c(c2O)CC=CC3)c1 (nonaromatic ring conformer: 77.66521584715554 kcal/mol)

> <smiles>
NS(=O)(=O)c1cccc(NC(=O)CCn2c(O)c3c(c2O)CC=CC3)c1

> <score_type>
oracle

> <origin>
adg

> <m_score__min__energy>
-14.19

> <m_primary>
energy

> <minimizedAffinity>
-6.92370

> <minimizedRMSD>
0.70892

> <CNNscore>
0.3376875222

> <CNNaffinity>
6.3297457695

> <CNN_VS>
2.1374762058

> <CNNaffinity_variance>
0.0577120520

$$$$
63:0


 33 36  0  0  0  0  0  0  0  0999 V2000
   60.2685   29.3446   46.8526 C   0  0  0  0  0  0  0  0  0  0  0  0
   60.0511   28.3027   47.7590 C   0  0  0  0  0  0  0  0  0  0  0  0
   60.3252   28.4798   49.1120 C   0  0  0  0  0  0  0  0  0  0  0  0
   60.8134   29.7119   49.5868 C   0  0  0  0  0  0  0  0  0  0  0  0
   61.1313   29.8922   50.9381 C   0  0  0  0  0  0  0  0  0  0  0  0
   60.9750   28.9509   51.7655 O   0  0  0  0  0  0  0  0  0  0  0  0
   61.6230   31.0835   51.3641 N   0  0  0  0  0  0  0  0  0  0  0  0
   61.9554   31.2390   52.6930 O   0  0  0  0  0  0  0  0  0  0  0  0
   61.7913   32.1280   50.5066 C   0  0  0  0  0  0  0  0  0  0  0  0
   62.2661   33.2094   50.9526 O   0  0  0  0  0  0  0  0  0  0  0  0
   61.4514   32.0110   49.1791 N   0  0  0  0  0  0  0  0  0  0  0  0
   61.0012   30.7961   48.6948 C   0  0  0  0  0  0  0  0  0  0  0  0
   60.7298   30.5834   47.3198 C   0  0  0  0  0  0  0  0  0  0  0  0
   60.0264   29.1281   45.3783 C   0  0  0  0  0  0  0  0  0  0  0  0
   58.6296   28.7535   45.1047 N   0  0  0  0  0  0  0  0  0  0  0  0
   58.0987   28.8343   45.9719 H   0  0  0  0  0  0  0  0  0  0  0  0
   58.4747   27.3798   44.5900 C   0  0  0  0  0  0  0  0  0  0  0  0
   56.7052   26.7635   46.0829 O   0  0  0  0  0  0  0  0  0  0  0  0
   57.8148   26.4515   45.5711 C   0  0  0  0  0  0  0  0  0  0  0  0
   58.5025   25.2529   45.9640 N   0  0  0  0  0  0  0  0  0  0  0  0
   58.0371   24.0397   45.8998 C   0  0  0  0  0  0  0  0  0  0  0  0
   56.9289   23.6234   46.5519 N   0  0  0  0  0  0  0  0  0  0  0  0
   56.8270   22.3289   46.2011 C   0  0  0  0  0  0  0  0  0  0  0  0
   57.8640   22.0026   45.3595 C   0  0  0  0  0  0  0  0  0  0  0  0
   58.6369   23.0847   45.1632 N   0  0  0  0  0  0  0  0  0  0  0  0
   61.5922   33.1957   48.2992 C   0  0  0  0  0  0  0  0  0  0  0  0
   60.3655   34.1079   48.4183 C   0  0  0  0  0  0  0  0  0  0  0  0
   59.4817   33.9742   47.2076 C   0  0  0  0  0  0  0  0  0  0  0  0
   58.2834   33.2464   47.2871 C   0  0  0  0  0  0  0  0  0  0  0  0
   57.4553   33.1251   46.1668 C   0  0  0  0  0  0  0  0  0  0  0  0
   57.8170   33.7336   44.9624 C   0  0  0  0  0  0  0  0  0  0  0  0
   59.0011   34.4702   44.8779 C   0  0  0  0  0  0  0  0  0  0  0  0
   59.8318   34.5951   45.9966 C   0  0  0  0  0  0  0  0  0  0  0  0
 18 19  2  0
 19 17  1  0
 17 15  1  0
 15 14  1  0
 14  1  1  0
  1  2  2  0
  2  3  1  0
  3  4  2  0
  4  5  1  0
  5  6  2  0
  5  7  1  0
  7  8  1  0
  7  9  1  0
  9 10  2  0
  9 11  1  0
 11 26  1  0
 26 27  1  0
 27 28  1  0
 28 29  2  0
 29 30  1  0
 30 31  2  0
 31 32  1  0
 32 33  2  0
 11 12  1  0
 12 13  2  0
 19 20  1  0
 20 21  2  0
 21 22  1  0
 22 23  1  0
 23 24  2  0
 24 25  1  0
 13  1  1  0
 25 21  1  0
 12  4  1  0
 33 28  1  0
 15 16  1  0
M  CHG 1   8  -1
M  CHG 1  22  -1
M  CHG 1  25  -1
M  END
> <UniqueID>
57

> <SMILES>
O=C(CNCc1ccc2c(=O)n([O-])c(=O)n(CCc3ccccc3)c2c1)N=c1[n-]cc[n-]1

> <Energy>
90.40240224842518

> <Genealogy>
O=C(CNCc1ccc2c(=O)n([O-])c(=O)n(CCc3ccccc3)c2c1)N=c1[n-]cc[n-]1 (protonated)
O=C(CNCc1ccc2c(=O)n([O-])c(=O)n(CCc3ccccc3)c2c1)N=c1[n-]cc[n-]1 (3D coordinates assigned)
O=C(CNCc1ccc2c(=O)n([O-])c(=O)n(CCc3ccccc3)c2c1)N=c1[n-]cc[n-]1 (optimized conformer: 90.40240224842518 kcal/mol)

> <smiles>
O=C(CNCc1ccc2c(=O)n(O)c(=O)n(CCc3ccccc3)c2c1)N=c1[nH]cc[nH]1

> <score_type>
oracle

> <origin>
adg

> <m_score__min__energy>
-14.65

> <m_primary>
energy

> <minimizedAffinity>
-8.38056

> <minimizedRMSD>
2.13330

> <CNNscore>
0.4614112973

> <CNNaffinity>
6.9432349205

> <CNN_VS>
3.2036869526

> <CNNaffinity_variance>
0.0055848048

$$$$
0:0


 27 29  0  0  0  0  0  0  0  0999 V2000
   58.1764   28.9054   45.1293 C   0  0  0  0  0  0  0  0  0  0  0  0
   58.9364   29.4205   46.1950 C   0  0  0  0  0  0  0  0  0  0  0  0
   59.0072   30.7997   46.4128 C   0  0  0  0  0  0  0  0  0  0  0  0
   58.3335   31.6827   45.5614 C   0  0  0  0  0  0  0  0  0  0  0  0
   57.5833   31.1773   44.4925 C   0  0  0  0  0  0  0  0  0  0  0  0
   57.5099   29.7982   44.2737 C   0  0  0  0  0  0  0  0  0  0  0  0
   58.4358   33.4191   45.8342 S   0  0  0  0  0  0  0  0  0  0  0  0
   59.3151   34.0665   44.7999 O   0  0  0  0  0  0  0  0  0  0  0  0
   57.0574   34.0078   45.7449 O   0  0  0  0  0  0  0  0  0  0  0  0
   59.0880   33.7376   47.4090 N   0  0  0  0  0  0  0  0  0  0  0  0
   60.4795   33.6932   47.7533 C   0  0  0  0  0  0  0  0  0  0  0  0
   61.4790   33.4394   46.7941 C   0  0  0  0  0  0  0  0  0  0  0  0
   62.8240   33.3962   47.1758 C   0  0  0  0  0  0  0  0  0  0  0  0
   63.1837   33.6096   48.5077 C   0  0  0  0  0  0  0  0  0  0  0  0
   62.1977   33.8665   49.4639 C   0  0  0  0  0  0  0  0  0  0  0  0
   60.8513   33.9090   49.0894 C   0  0  0  0  0  0  0  0  0  0  0  0
   59.9034   34.1557   50.0284 F   0  0  0  0  0  0  0  0  0  0  0  0
   58.2848   27.0079   43.7167 O   0  0  0  0  0  0  0  0  0  0  0  0
   58.1055   27.4457   44.8848 C   0  0  0  0  0  0  0  0  0  0  0  0
   57.8969   26.4990   45.9454 N   0  0  0  0  0  0  0  0  0  0  0  0
   57.5044   25.2646   45.8047 C   0  0  0  0  0  0  0  0  0  0  0  0
   58.4039   24.2596   45.5947 N   0  0  0  0  0  0  0  0  0  0  0  0
   58.0187   22.9636   45.4597 C   0  0  0  0  0  0  0  0  0  0  0  0
   56.6668   22.6243   45.5438 C   0  0  0  0  0  0  0  0  0  0  0  0
   55.7246   23.6280   45.7699 C   0  0  0  0  0  0  0  0  0  0  0  0
   56.1390   24.9566   45.9051 C   0  0  0  0  0  0  0  0  0  0  0  0
   55.1993   25.9560   46.1346 O   0  0  0  0  0  0  0  0  0  0  0  0
 18 19  2  0
 19 20  1  0
 20 21  2  0
 21 22  1  0
 22 23  1  0
 23 24  2  0
 24 25  1  0
 25 26  2  0
 26 27  1  0
 19  1  1  0
  1  2  2  0
  2  3  1  0
  3  4  2  0
  4  7  1  0
  7  8  2  0
  7  9  2  0
  7 10  1  0
 10 11  1  0
 11 12  2  0
 12 13  1  0
 13 14  2  0
 14 15  1  0
 15 16  2  0
 16 17  1  0
  4  5  1  0
  5  6  2  0
 26 21  1  0
  6  1  1  0
 16 11  1  0
M  CHG 1  10  -1
M  CHG 1  22  -1
M  CHG 1  27  -1
M  END
> <UniqueID>
1

> <SMILES>
O=C(N=c1[n-]cccc1[O-])c1ccc(S(=O)(=O)[N-]c2ccccc2F)cc1

> <Energy>
53.33954943830814

> <Genealogy>
O=C(N=c1[n-]cccc1[O-])c1ccc(S(=O)(=O)[N-]c2ccccc2F)cc1 (protonated)
O=C(N=c1[n-]cccc1[O-])c1ccc(S(=O)(=O)[N-]c2ccccc2F)cc1 (3D coordinates assigned)
O=C(N=c1[n-]cccc1[O-])c1ccc(S(=O)(=O)[N-]c2ccccc2F)cc1 (optimized conformer: 53.33954943830814 kcal/mol)

> <smiles>
O=C(N=c1[nH]cccc1O)c1ccc(S(=O)(=O)Nc2ccccc2F)cc1

> <score_type>
oracle

> <origin>
adg

> <m_score__min__energy>
-15.42

> <m_primary>
energy

> <minimizedAffinity>
-8.93145

> <minimizedRMSD>
0.75830

> <CNNscore>
0.5364807248

> <CNNaffinity>
6.6934013367

> <CNN_VS>
3.5908808708

> <CNNaffinity_variance>
0.1265110821

$$$$
11:0


 31 33  0  0  0  0  0  0  0  0999 V2000
   56.7298   31.8291   44.9695 N   0  0  0  0  0  0  0  0  0  0  0  0
   57.7625   32.6828   45.4784 C   0  0  0  0  0  0  0  0  0  0  0  0
   58.2180   33.7427   44.6849 C   0  0  0  0  0  0  0  0  0  0  0  0
   59.2301   34.5856   45.1489 C   0  0  0  0  0  0  0  0  0  0  0  0
   59.7773   34.3898   46.4200 C   0  0  0  0  0  0  0  0  0  0  0  0
   59.3029   33.3582   47.2422 C   0  0  0  0  0  0  0  0  0  0  0  0
   58.2934   32.5083   46.7702 C   0  0  0  0  0  0  0  0  0  0  0  0
   59.9320   33.1654   48.8832 S   0  0  0  0  0  0  0  0  0  0  0  0
   59.3949   31.8882   49.4629 O   0  0  0  0  0  0  0  0  0  0  0  0
   59.4391   34.2989   49.7391 O   0  0  0  0  0  0  0  0  0  0  0  0
   61.6794   33.1469   48.9301 N   0  0  0  0  0  0  0  0  0  0  0  0
   62.1696   32.0773   49.8140 C   0  0  0  0  0  0  0  0  0  0  0  0
   63.7144   32.0684   49.8225 C   0  0  0  0  0  0  0  0  0  0  0  0
   64.2534   33.0430   48.9467 O   0  0  0  0  0  0  0  0  0  0  0  0
   63.7642   32.8284   47.6363 C   0  0  0  0  0  0  0  0  0  0  0  0
   62.2284   32.9724   47.5757 C   0  0  0  0  0  0  0  0  0  0  0  0
   56.8864   30.4445   44.6235 C   0  0  0  0  0  0  0  0  0  0  0  0
   55.9569   29.6189   44.8397 O   0  0  0  0  0  0  0  0  0  0  0  0
   58.1862   29.9593   44.0627 C   0  0  0  0  0  0  0  0  0  0  0  0
   58.3625   28.1395   44.1882 S   0  0  0  0  0  0  0  0  0  0  0  0
   58.5715   27.1970   46.8435 C   0  0  0  0  0  0  0  0  0  0  0  0
   59.0887   27.2773   48.1466 C   0  0  0  0  0  0  0  0  0  0  0  0
   60.0153   28.2651   48.4832 C   0  0  0  0  0  0  0  0  0  0  0  0
   60.4541   29.1693   47.5184 C   0  0  0  0  0  0  0  0  0  0  0  0
   59.9635   29.0944   46.2170 C   0  0  0  0  0  0  0  0  0  0  0  0
   59.0023   28.1344   45.8723 C   0  0  0  0  0  0  0  0  0  0  0  0
   55.9216   26.4933   46.0630 N   0  0  0  0  0  0  0  0  0  0  0  0
   57.4779   25.8554   46.4598 S   0  0  0  0  0  0  0  0  0  0  0  0
   57.3530   24.8924   47.6091 O   0  0  0  0  0  0  0  0  0  0  0  0
   58.0099   25.1004   45.2721 O   0  0  0  0  0  0  0  0  0  0  0  0
   55.2865   25.7266   45.8408 H   0  0  0  0  0  0  0  0  0  0  0  0
 27 28  1  0
 28 29  2  0
 28 30  2  0
 28 21  1  0
 21 22  2  0
 22 23  1  0
 23 24  2  0
 24 25  1  0
 25 26  2  0
 26 20  1  0
 20 19  1  0
 19 17  1  0
 17 18  2  0
 17  1  1  0
  1  2  1  0
  2  3  2  0
  3  4  1  0
  4  5  2  0
  5  6  1  0
  6  8  1  0
  8  9  2  0
  8 10  2  0
  8 11  1  0
 11 12  1  0
 12 13  1  0
 13 14  1  0
 14 15  1  0
 15 16  1  0
  6  7  2  0
 26 21  1  0
  7  2  1  0
 16 11  1  0
 27 31  1  0
M  CHG 1   1  -1
M  CHG 1  27  -1
M  END
> <UniqueID>
11

> <SMILES>
[NH-]S(=O)(=O)c1ccccc1SCC(=O)[N-]c1cccc(S(=O)(=O)N2CCOCC2)c1

> <Energy>
57.62717279667207

> <Genealogy>
[NH-]S(=O)(=O)c1ccccc1SCC(=O)[N-]c1cccc(S(=O)(=O)N2CCOCC2)c1 (protonated)
[NH-]S(=O)(=O)c1ccccc1SCC(=O)[N-]c1cccc(S(=O)(=O)N2CCOCC2)c1 (3D coordinates assigned)
[NH-]S(=O)(=O)c1ccccc1SCC(=O)[N-]c1cccc(S(=O)(=O)N2CCOCC2)c1 (nonaromatic ring conformer: 57.62717279667207 kcal/mol)

> <smiles>
NS(=O)(=O)c1ccccc1SCC(=O)Nc1cccc(S(=O)(=O)N2CCOCC2)c1

> <score_type>
oracle

> <origin>
adg

> <m_score__min__energy>
-15.27

> <m_primary>
energy

> <minimizedAffinity>
-7.77490

> <minimizedRMSD>
1.03942

> <CNNscore>
0.9078956842

> <CNNaffinity>
7.3367676735

> <CNN_VS>
6.6610198021

> <CNNaffinity_variance>
0.2040032297

$$$$
78:0


 29 32  0  0  0  0  0  0  0  0999 V2000
   58.1904   31.3404   45.8544 C   0  0  0  0  0  0  0  0  0  0  0  0
   57.8727   31.7141   44.5433 C   0  0  0  0  0  0  0  0  0  0  0  0
   58.1628   33.0001   44.0832 C   0  0  0  0  0  0  0  0  0  0  0  0
   58.7858   33.9228   44.9254 C   0  0  0  0  0  0  0  0  0  0  0  0
   59.1283   33.5628   46.2395 C   0  0  0  0  0  0  0  0  0  0  0  0
   58.8373   32.2647   46.6940 C   0  0  0  0  0  0  0  0  0  0  0  0
   57.9093   29.9970   46.2735 N   0  0  0  0  0  0  0  0  0  0  0  0
   57.0314   29.0370   44.3336 O   0  0  0  0  0  0  0  0  0  0  0  0
   57.6387   28.8728   45.4260 C   0  0  0  0  0  0  0  0  0  0  0  0
   58.1128   27.5177   45.7867 C   0  0  0  0  0  0  0  0  0  0  0  0
   59.4582   27.2943   45.8385 N   0  0  0  0  0  0  0  0  0  0  0  0
   59.9839   26.0822   46.1551 C   0  0  0  0  0  0  0  0  0  0  0  0
   59.1419   25.0088   46.4384 C   0  0  0  0  0  0  0  0  0  0  0  0
   57.7608   25.1971   46.3983 C   0  0  0  0  0  0  0  0  0  0  0  0
   57.2326   26.4514   46.0740 C   0  0  0  0  0  0  0  0  0  0  0  0
   55.8508   26.6125   46.0424 O   0  0  0  0  0  0  0  0  0  0  0  0
   59.8407   34.5442   47.1357 C   0  0  0  0  0  0  0  0  0  0  0  0
   60.9993   33.8762   47.8309 C   0  0  0  0  0  0  0  0  0  0  0  0
   62.1314   33.6723   47.1049 N   0  0  0  0  0  0  0  0  0  0  0  0
   63.2113   33.0879   47.6236 N   0  0  0  0  0  0  0  0  0  0  0  0
   63.2393   32.6551   48.9075 C   0  0  0  0  0  0  0  0  0  0  0  0
   64.2897   32.1239   49.3561 O   0  0  0  0  0  0  0  0  0  0  0  0
   62.1028   32.8066   49.7166 C   0  0  0  0  0  0  0  0  0  0  0  0
   60.9627   33.4411   49.1778 C   0  0  0  0  0  0  0  0  0  0  0  0
   59.7935   33.6028   50.0056 N   0  0  0  0  0  0  0  0  0  0  0  0
   59.8570   33.3812   51.4459 C   0  0  0  0  0  0  0  0  0  0  0  0
   60.7261   32.1607   51.7420 C   0  0  0  0  0  0  0  0  0  0  0  0
   62.1310   32.3643   51.1646 C   0  0  0  0  0  0  0  0  0  0  0  0
   58.9396   33.8666   49.5927 H   0  0  0  0  0  0  0  0  0  0  0  0
  8  9  2  0
  9  7  1  0
  7  1  1  0
  1  2  2  0
  2  3  1  0
  3  4  2  0
  4  5  1  0
  5 17  1  0
 17 18  1  0
 18 19  2  0
 19 20  1  0
 20 21  1  0
 21 22  2  0
 21 23  1  0
 23 24  2  0
 24 25  1  0
 25 26  1  0
 26 27  1  0
 27 28  1  0
  5  6  2  0
  9 10  1  0
 10 11  2  0
 11 12  1  0
 12 13  2  0
 13 14  1  0
 14 15  2  0
 15 16  1  0
  6  1  1  0
 15 10  1  0
 24 18  1  0
 28 23  1  0
 25 29  1  0
M  CHG 1   7  -1
M  CHG 1  16  -1
M  CHG 1  20  -1
M  END
> <UniqueID>
71

> <SMILES>
O=C([N-]c1cccc(Cc2n[n-]c(=O)c3c2NCCC3)c1)c1ncccc1[O-]

> <Energy>
56.27721291769332

> <Genealogy>
O=C([N-]c1cccc(Cc2n[n-]c(=O)c3c2NCCC3)c1)c1ncccc1[O-] (protonated)
O=C([N-]c1cccc(Cc2n[n-]c(=O)c3c2NCCC3)c1)c1ncccc1[O-] (3D coordinates assigned)
O=C([N-]c1cccc(Cc2n[n-]c(=O)c3c2NCCC3)c1)c1ncccc1[O-] (nonaromatic ring conformer: 56.27721291769332 kcal/mol)

> <smiles>
O=C(Nc1cccc(Cc2n[nH]c(=O)c3c2NCCC3)c1)c1ncccc1O

> <score_type>
oracle

> <origin>
adg

> <m_score__min__energy>
-15.08

> <m_primary>
energy

> <minimizedAffinity>
-8.01476

> <minimizedRMSD>
1.14979

> <CNNscore>
0.2162212878

> <CNNaffinity>
6.4099845886

> <CNN_VS>
1.3859751225

> <CNNaffinity_variance>
0.0017067004

$$$$
14:0


 23 24  0  0  0  0  0  0  0  0999 V2000
   57.5670   25.0242   45.9484 C   0  0  0  0  0  0  0  0  0  0  0  0
   58.9611   24.8565   46.0382 C   0  0  0  0  0  0  0  0  0  0  0  0
   59.7934   25.9639   46.2052 C   0  0  0  0  0  0  0  0  0  0  0  0
   59.2504   27.2477   46.2689 C   0  0  0  0  0  0  0  0  0  0  0  0
   57.8711   27.4396   46.1480 C   0  0  0  0  0  0  0  0  0  0  0  0
   57.0236   26.3181   46.0204 C   0  0  0  0  0  0  0  0  0  0  0  0
   55.6410   26.4746   45.9996 O   0  0  0  0  0  0  0  0  0  0  0  0
   56.6741   23.9094   45.8026 N   0  0  0  0  0  0  0  0  0  0  0  0
   55.0198   21.7460   46.7440 C   0  0  0  0  0  0  0  0  0  0  0  0
   56.6280   22.5028   46.8164 S   0  0  0  0  0  0  0  0  0  0  0  0
   57.6879   21.5258   46.3885 O   0  0  0  0  0  0  0  0  0  0  0  0
   56.9019   22.9218   48.2330 O   0  0  0  0  0  0  0  0  0  0  0  0
   57.3585   28.7758   46.2371 N   0  0  0  0  0  0  0  0  0  0  0  0
   57.0306   29.6251   45.1292 C   0  0  0  0  0  0  0  0  0  0  0  0
   55.8568   29.6383   44.6718 O   0  0  0  0  0  0  0  0  0  0  0  0
   58.0777   30.3952   44.4339 C   0  0  0  0  0  0  0  0  0  0  0  0
   59.1913   30.8801   45.0044 C   0  0  0  0  0  0  0  0  0  0  0  0
   59.2234   31.8860   46.0867 C   0  0  0  0  0  0  0  0  0  0  0  0
   58.9796   33.2469   45.8240 C   0  0  0  0  0  0  0  0  0  0  0  0
   59.0387   34.1851   46.8600 C   0  0  0  0  0  0  0  0  0  0  0  0
   59.3657   33.7774   48.1552 C   0  0  0  0  0  0  0  0  0  0  0  0
   59.6430   32.4329   48.4160 C   0  0  0  0  0  0  0  0  0  0  0  0
   59.5823   31.4907   47.3838 C   0  0  0  0  0  0  0  0  0  0  0  0
  9 10  1  0
 10 11  2  0
 10 12  2  0
 10  8  1  0
  8  1  1  0
  1  2  2  0
  2  3  1  0
  3  4  2  0
  4  5  1  0
  5 13  1  0
 13 14  1  0
 14 15  2  0
 14 16  1  0
 16 17  2  0
 17 18  1  0
 18 19  2  0
 19 20  1  0
 20 21  2  0
 21 22  1  0
 22 23  2  0
  5  6  2  0
  6  7  1  0
  6  1  1  0
 23 18  1  0
M  CHG 1   7  -1
M  CHG 1   8  -1
M  CHG 1  13  -1
M  END
> <UniqueID>
14

> <SMILES>
CS(=O)(=O)[N-]c1cccc([N-]C(=O)C=Cc2ccccc2)c1[O-]

> <Energy>
47.959657591592986

> <Genealogy>
CS(=O)(=O)[N-]c1cccc([N-]C(=O)C=Cc2ccccc2)c1[O-] (protonated)
CS(=O)(=O)[N-]c1cccc([N-]C(=O)C=Cc2ccccc2)c1[O-] (3D coordinates assigned)
CS(=O)(=O)[N-]c1cccc([N-]C(=O)C=Cc2ccccc2)c1[O-] (optimized conformer: 47.959657591592986 kcal/mol)

> <smiles>
CS(=O)(=O)Nc1cccc(NC(=O)C=Cc2ccccc2)c1O

> <score_type>
oracle

> <origin>
adg

> <m_score__min__energy>
-16.25

> <m_primary>
energy

> <minimizedAffinity>
-5.86367

> <minimizedRMSD>
1.50260

> <CNNscore>
0.6647068858

> <CNNaffinity>
6.4181103706

> <CNN_VS>
4.2661623955

> <CNNaffinity_variance>
0.5658993721

$$$$
57:0


 28 32  0  0  0  0  0  0  0  0999 V2000
   52.4088   30.7186   53.8993 C   0  0  0  0  0  0  0  0  0  0  0  0
   53.2918   29.8085   54.3328 C   0  0  0  0  0  0  0  0  0  0  0  0
   53.1329   28.9895   55.4481 C   0  0  0  0  0  0  0  0  0  0  0  0
   54.2410   28.2311   55.6275 N   0  0  0  0  0  0  0  0  0  0  0  0
   55.0867   28.5571   54.6624 N   0  0  0  0  0  0  0  0  0  0  0  0
   56.5699   29.6401   52.6887 C   0  0  0  0  0  0  0  0  0  0  0  0
   57.3401   30.1881   51.7953 N   0  0  0  0  0  0  0  0  0  0  0  0
   57.0921   28.6681   53.4959 N   0  0  0  0  0  0  0  0  0  0  0  0
   56.3544   28.1111   54.4942 C   0  0  0  0  0  0  0  0  0  0  0  0
   56.8324   27.1925   55.2912 N   0  0  0  0  0  0  0  0  0  0  0  0
   55.2830   30.0671   52.8769 N   0  0  0  0  0  0  0  0  0  0  0  0
   54.5564   29.4929   53.8693 C   0  0  0  0  0  0  0  0  0  0  0  0
   51.9240   30.7906   52.5160 C   0  0  0  0  0  0  0  0  0  0  0  0
   52.2022   29.8708   51.5767 N   0  0  0  0  0  0  0  0  0  0  0  0
   51.6841   30.4088   50.4499 C   0  0  0  0  0  0  0  0  0  0  0  0
   51.7434   29.6532   49.0024 S   0  0  0  0  0  0  0  0  0  0  0  0
   51.1292   31.6286   50.6137 N   0  0  0  0  0  0  0  0  0  0  0  0
   51.2966   31.8577   51.9241 C   0  0  0  0  0  0  0  0  0  0  0  0
   50.9169   33.0347   52.5583 O   0  0  0  0  0  0  0  0  0  0  0  0
   57.9735   31.4704   51.8943 C   0  0  0  0  0  0  0  0  0  0  0  0
   58.0464   32.3288   52.9993 C   0  0  0  0  0  0  0  0  0  0  0  0
   58.8511   33.4701   52.9316 C   0  0  0  0  0  0  0  0  0  0  0  0
   59.5475   33.7469   51.7971 N   0  0  0  0  0  0  0  0  0  0  0  0
   59.4780   32.9407   50.7047 C   0  0  0  0  0  0  0  0  0  0  0  0
   58.6762   31.7968   50.7288 C   0  0  0  0  0  0  0  0  0  0  0  0
   56.4849   25.7744   55.5044 C   0  0  0  0  0  0  0  0  0  0  0  0
   55.6172   25.0499   54.4879 C   0  0  0  0  0  0  0  0  0  0  0  0
   57.1295   24.8216   54.5110 C   0  0  0  0  0  0  0  0  0  0  0  0
  1 13  1  0
 13 14  1  0
 14 15  1  0
 15 16  2  0
 15 17  1  0
 17 18  1  0
 18 19  1  0
  1  2  2  0
  2  3  1  0
  3  4  2  0
  4  5  1  0
  5  6  1  0
  6  7  2  0
  7 26  1  0
 26 27  1  0
 27 28  1  0
  6  8  1  0
  8  9  1  0
  9 10  2  0
 10 20  1  0
 20 21  2  0
 21 22  1  0
 22 23  2  0
 23 24  1  0
 24 25  2  0
  9 11  1  0
 11 12  2  0
 18 13  2  0
 12  2  1  0
 12  5  1  0
 28 26  1  0
 25 20  1  0
M  CHG 1   8  -1
M  CHG 1  14  -1
M  CHG 1  17  -1
M  CHG 1  19  -1
M  END
> <UniqueID>
54

> <SMILES>
[O-]c1[n-]c(=S)[n-]c1C=c1cnn2/c(=N/C3CC3)[n-]/c(=N/c3ccncc3)nc12

> <Energy>
400.1399035972654

> <Genealogy>
[O-]c1[n-]c(=S)[n-]c1C=c1cnn2c(=NC3CC3)[n-]c(=Nc3ccncc3)nc12 (protonated)
[O-]c1[n-]c(=S)[n-]c1C=c1cnn2/c(=N/C3CC3)[n-]/c(=N/c3ccncc3)nc12 (cis-trans isomerization)
[O-]c1[n-]c(=S)[n-]c1C=c1cnn2/c(=N/C3CC3)[n-]/c(=N/c3ccncc3)nc12 (3D coordinates assigned)
[O-]c1[n-]c(=S)[n-]c1C=c1cnn2/c(=N/C3CC3)[n-]/c(=N/c3ccncc3)nc12 (nonaromatic ring conformer: 400.1399035972654 kcal/mol)

> <smiles>
Oc1[nH]c(=S)[nH]c1C=c1cnn2c(=NC3CC3)[nH]c(=Nc3ccncc3)nc12

> <score_type>
oracle

> <origin>
adg

> <m_score__min__energy>
-16.449999999999999

> <m_primary>
energy

> <minimizedAffinity>
-5.21709

> <minimizedRMSD>
0.72240

> <CNNscore>
0.1025359109

> <CNNaffinity>
4.6683654785

> <CNN_VS>
0.4786750972

> <CNNaffinity_variance>
0.4320169985

$$$$
20:0


 28 32  0  0  0  0  0  0  0  0999 V2000
   58.6069   26.6074   45.3654 C   0  0  0  0  0  0  0  0  0  0  0  0
   58.2465   27.9000   45.3876 C   0  0  0  0  0  0  0  0  0  0  0  0
   57.1953   28.4654   44.6640 C   0  0  0  0  0  0  0  0  0  0  0  0
   57.1033   29.7909   44.9318 N   0  0  0  0  0  0  0  0  0  0  0  0
   58.0547   30.0689   45.8078 N   0  0  0  0  0  0  0  0  0  0  0  0
   58.3183   31.2615   46.3941 C   0  0  0  0  0  0  0  0  0  0  0  0
   57.6244   32.3181   46.0616 N   0  0  0  0  0  0  0  0  0  0  0  0
   59.3105   31.3011   47.3287 N   0  0  0  0  0  0  0  0  0  0  0  0
   59.9991   30.1717   47.6743 C   0  0  0  0  0  0  0  0  0  0  0  0
   60.9351   30.2521   48.5737 N   0  0  0  0  0  0  0  0  0  0  0  0
   59.7176   28.9884   47.0533 N   0  0  0  0  0  0  0  0  0  0  0  0
   58.7498   28.9684   46.1076 C   0  0  0  0  0  0  0  0  0  0  0  0
   57.8225   25.5015   45.9466 C   0  0  0  0  0  0  0  0  0  0  0  0
   58.2734   24.2481   46.1360 N   0  0  0  0  0  0  0  0  0  0  0  0
   57.1785   23.5817   46.5569 C   0  0  0  0  0  0  0  0  0  0  0  0
   57.2004   22.3567   46.8496 O   0  0  0  0  0  0  0  0  0  0  0  0
   56.0537   24.3251   46.6298 N   0  0  0  0  0  0  0  0  0  0  0  0
   56.4780   25.5349   46.2297 C   0  0  0  0  0  0  0  0  0  0  0  0
   55.6512   26.6449   46.1169 O   0  0  0  0  0  0  0  0  0  0  0  0
   61.9613   31.2548   48.6462 C   0  0  0  0  0  0  0  0  0  0  0  0
   62.3154   31.9482   47.4800 C   0  0  0  0  0  0  0  0  0  0  0  0
   63.2816   32.9565   47.5230 C   0  0  0  0  0  0  0  0  0  0  0  0
   63.8868   33.2968   48.7354 C   0  0  0  0  0  0  0  0  0  0  0  0
   63.5177   32.6350   49.9099 C   0  0  0  0  0  0  0  0  0  0  0  0
   62.5534   31.6225   49.8707 C   0  0  0  0  0  0  0  0  0  0  0  0
   57.9422   33.7593   46.0562 C   0  0  0  0  0  0  0  0  0  0  0  0
   59.3187   34.1674   46.5541 C   0  0  0  0  0  0  0  0  0  0  0  0
   58.9884   34.2367   45.0620 C   0  0  0  0  0  0  0  0  0  0  0  0
  1 13  1  0
 13 14  1  0
 14 15  1  0
 15 16  2  0
 15 17  1  0
 17 18  1  0
 18 19  1  0
  1  2  2  0
  2  3  1  0
  3  4  2  0
  4  5  1  0
  5  6  1  0
  6  7  2  0
  7 26  1  0
 26 27  1  0
 27 28  1  0
  6  8  1  0
  8  9  1  0
  9 10  2  0
 10 20  1  0
 20 21  2  0
 21 22  1  0
 22 23  2  0
 23 24  1  0
 24 25  2  0
  9 11  1  0
 11 12  2  0
 18 13  2  0
 12  2  1  0
 12  5  1  0
 28 26  1  0
 25 20  1  0
M  CHG 1   8  -1
M  CHG 1  14  -1
M  CHG 1  17  -1
M  CHG 1  19  -1
M  END
> <UniqueID>
20

> <SMILES>
O=c1[n-]c([O-])c(/C=c2/cnn3c(=NC4CC4)[n-]c(=Nc4ccccc4)nc23)[n-]1

> <Energy>
397.3499168683582

> <Genealogy>
O=c1[n-]c([O-])c(C=c2cnn3c(=NC4CC4)[n-]c(=Nc4ccccc4)nc23)[n-]1 (protonated)
O=c1[n-]c([O-])c(/C=c2/cnn3c(=NC4CC4)[n-]c(=Nc4ccccc4)nc23)[n-]1 (cis-trans isomerization)
O=c1[n-]c([O-])c(/C=c2/cnn3c(=NC4CC4)[n-]c(=Nc4ccccc4)nc23)[n-]1 (3D coordinates assigned)
O=c1[n-]c([O-])c(/C=c2/cnn3c(=NC4CC4)[n-]c(=Nc4ccccc4)nc23)[n-]1 (nonaromatic ring conformer: 397.3499168683582 kcal/mol)

> <smiles>
O=c1[nH]c(O)c(C=c2cnn3c(=NC4CC4)[nH]c(=Nc4ccccc4)nc23)[nH]1

> <score_type>
oracle

> <origin>
adg

> <m_score__min__energy>
-17.59

> <m_primary>
energy

> <minimizedAffinity>
-9.80118

> <minimizedRMSD>
0.86375

> <CNNscore>
0.6479933858

> <CNNaffinity>
7.0128989220

> <CNN_VS>
4.5443120003

> <CNNaffinity_variance>
0.1100698933

$$$$
46:0


 29 33  0  0  0  0  0  0  0  0999 V2000
   58.7065   25.7789   46.0814 C   0  0  0  0  0  0  0  0  0  0  0  0
   58.5376   26.9459   45.4430 C   0  0  0  0  0  0  0  0  0  0  0  0
   58.1639   27.1824   44.1159 C   0  0  0  0  0  0  0  0  0  0  0  0
   58.0717   28.5184   43.9149 N   0  0  0  0  0  0  0  0  0  0  0  0
   58.3622   29.1228   45.0549 N   0  0  0  0  0  0  0  0  0  0  0  0
   58.3857   30.4523   45.3269 C   0  0  0  0  0  0  0  0  0  0  0  0
   58.1065   31.3179   44.3890 N   0  0  0  0  0  0  0  0  0  0  0  0
   58.7058   30.8288   46.5968 N   0  0  0  0  0  0  0  0  0  0  0  0
   58.9927   29.8957   47.5598 C   0  0  0  0  0  0  0  0  0  0  0  0
   59.2971   30.2629   48.7671 N   0  0  0  0  0  0  0  0  0  0  0  0
   58.9588   28.5665   47.2551 N   0  0  0  0  0  0  0  0  0  0  0  0
   58.6394   28.2110   45.9873 C   0  0  0  0  0  0  0  0  0  0  0  0
   57.8310   28.9616   43.0693 H   0  0  0  0  0  0  0  0  0  0  0  0
   57.7098   24.6952   46.0903 C   0  0  0  0  0  0  0  0  0  0  0  0
   58.0290   23.3995   45.9180 N   0  0  0  0  0  0  0  0  0  0  0  0
   56.8287   22.7776   45.9166 C   0  0  0  0  0  0  0  0  0  0  0  0
   56.7119   21.5316   45.7901 O   0  0  0  0  0  0  0  0  0  0  0  0
   55.7658   23.5974   46.0520 N   0  0  0  0  0  0  0  0  0  0  0  0
   56.3374   24.8092   46.1483 C   0  0  0  0  0  0  0  0  0  0  0  0
   55.6153   25.9924   46.2344 O   0  0  0  0  0  0  0  0  0  0  0  0
   57.6107   32.7063   44.4312 C   0  0  0  0  0  0  0  0  0  0  0  0
   57.5171   33.3697   45.7966 C   0  0  0  0  0  0  0  0  0  0  0  0
   58.6100   33.7897   44.8106 C   0  0  0  0  0  0  0  0  0  0  0  0
   59.6703   31.6261   49.1334 C   0  0  0  0  0  0  0  0  0  0  0  0
   61.1083   31.8522   48.8006 C   0  0  0  0  0  0  0  0  0  0  0  0
   62.3988   31.5855   49.8448 S   0  0  0  0  0  0  0  0  0  0  0  0
   63.5925   32.1525   48.8042 C   0  0  0  0  0  0  0  0  0  0  0  0
   62.9836   32.5734   47.6278 C   0  0  0  0  0  0  0  0  0  0  0  0
   61.5932   32.4148   47.6278 C   0  0  0  0  0  0  0  0  0  0  0  0
  1 14  1  0
 14 15  1  0
 15 16  1  0
 16 17  2  0
 16 18  1  0
 18 19  1  0
 19 20  1  0
  1  2  2  0
  2  3  1  0
  3  4  2  0
  4  5  1  0
  5  6  1  0
  6  7  2  0
  7 21  1  0
 21 22  1  0
 22 23  1  0
  6  8  1  0
  8  9  1  0
  9 10  2  0
 10 24  1  0
 24 25  1  0
 25 26  1  0
 26 27  1  0
 27 28  2  0
 28 29  1  0
  9 11  1  0
 11 12  2  0
 19 14  2  0
 12  2  1  0
 12  5  1  0
 23 21  1  0
 29 25  2  0
  4 13  1  0
M  CHG 1   4   1
M  CHG 1   8  -1
M  CHG 1  15  -1
M  CHG 1  18  -1
M  CHG 1  20  -1
M  END
> <UniqueID>
45

> <SMILES>
O=c1[n-]c([O-])c(C=c2c[nH+]n3/c(=N/C4CC4)[n-]c(=NCc4cccs4)nc23)[n-]1

> <Energy>
418.6755464528692

> <Genealogy>
O=c1[n-]c([O-])c(C=c2c[nH+]n3c(=NC4CC4)[n-]c(=NCc4cccs4)nc23)[n-]1 (protonated)
O=c1[n-]c([O-])c(C=c2c[nH+]n3/c(=N/C4CC4)[n-]c(=NCc4cccs4)nc23)[n-]1 (cis-trans isomerization)
O=c1[n-]c([O-])c(C=c2c[nH+]n3/c(=N/C4CC4)[n-]c(=NCc4cccs4)nc23)[n-]1 (3D coordinates assigned)
O=c1[n-]c([O-])c(C=c2c[nH+]n3/c(=N/C4CC4)[n-]c(=NCc4cccs4)nc23)[n-]1 (nonaromatic ring conformer: 418.6755464528692 kcal/mol)

> <smiles>
O=c1[nH]c(O)c(C=c2cnn3c(=NC4CC4)[nH]c(=NCc4cccs4)nc23)[nH]1

> <score_type>
oracle

> <origin>
adg

> <m_score__min__energy>
-15.9

> <m_primary>
energy

> <minimizedAffinity>
-9.30407

> <minimizedRMSD>
1.13020

> <CNNscore>
0.3593896627

> <CNNaffinity>
6.7012057304

> <CNN_VS>
2.4083440304

> <CNNaffinity_variance>
0.0544587672

$$$$
50:0


 26 28  0  0  0  0  0  0  0  0999 V2000
   58.1571   24.8899   46.0644 C   0  0  0  0  0  0  0  0  0  0  0  0
   57.9976   23.9956   45.1909 O   0  0  0  0  0  0  0  0  0  0  0  0
   59.2357   25.8197   45.9028 N   0  0  0  0  0  0  0  0  0  0  0  0
   58.1646   29.3839   45.6023 C   0  0  0  0  0  0  0  0  0  0  0  0
   58.9400   29.9875   46.6011 C   0  0  0  0  0  0  0  0  0  0  0  0
   59.8158   29.2180   47.3708 C   0  0  0  0  0  0  0  0  0  0  0  0
   59.9274   27.8439   47.1423 C   0  0  0  0  0  0  0  0  0  0  0  0
   59.1724   27.2339   46.1277 C   0  0  0  0  0  0  0  0  0  0  0  0
   58.2716   28.0029   45.3813 C   0  0  0  0  0  0  0  0  0  0  0  0
   55.4749   29.6051   44.6874 N   0  0  0  0  0  0  0  0  0  0  0  0
   57.0352   30.3473   44.6559 S   0  0  0  0  0  0  0  0  0  0  0  0
   57.5134   30.4434   43.2342 O   0  0  0  0  0  0  0  0  0  0  0  0
   56.9436   31.7343   45.2288 O   0  0  0  0  0  0  0  0  0  0  0  0
   54.8215   30.1640   44.1388 H   0  0  0  0  0  0  0  0  0  0  0  0
   57.3421   24.8390   47.3302 C   0  0  0  0  0  0  0  0  0  0  0  0
   56.2073   23.9254   47.1870 N   0  0  0  0  0  0  0  0  0  0  0  0
   56.1389   22.6463   47.6203 C   0  0  0  0  0  0  0  0  0  0  0  0
   57.1442   22.0096   48.3385 O   0  0  0  0  0  0  0  0  0  0  0  0
   54.9412   22.0745   47.2427 C   0  0  0  0  0  0  0  0  0  0  0  0
   54.2337   23.0493   46.5780 C   0  0  0  0  0  0  0  0  0  0  0  0
   55.0479   24.1628   46.5337 C   0  0  0  0  0  0  0  0  0  0  0  0
   54.7319   25.3642   45.9096 O   0  0  0  0  0  0  0  0  0  0  0  0
   52.9005   22.8238   45.9313 C   0  0  0  0  0  0  0  0  0  0  0  0
   52.2248   21.5709   46.5242 C   0  0  0  0  0  0  0  0  0  0  0  0
   53.2089   20.3852   46.6338 C   0  0  0  0  0  0  0  0  0  0  0  0
   54.4004   20.7128   47.5552 C   0  0  0  0  0  0  0  0  0  0  0  0
 10 11  1  0
 11 12  2  0
 11 13  2  0
 11  4  1  0
  4  5  2  0
  5  6  1  0
  6  7  2  0
  7  8  1  0
  8  3  1  0
  3  1  1  0
  1  2  2  0
  1 15  1  0
 15 16  1  0
 16 17  1  0
 17 18  1  0
 17 19  2  0
 19 20  1  0
 20 21  2  0
 21 22  1  0
 20 23  1  0
 23 24  1  0
 24 25  1  0
 25 26  1  0
  8  9  2  0
  9  4  1  0
 21 16  1  0
 26 19  1  0
 10 14  1  0
M  CHG 1   3  -1
M  CHG 1  10  -1
M  CHG 1  18  -1
M  CHG 1  22  -1
M  END
> <UniqueID>
49

> <SMILES>
[NH-]S(=O)(=O)c1cccc([N-]C(=O)Cn2c([O-])c3c(c2[O-])CCCC3)c1

> <Energy>
74.8621981890104

> <Genealogy>
[NH-]S(=O)(=O)c1cccc([N-]C(=O)Cn2c([O-])c3c(c2[O-])CCCC3)c1 (protonated)
[NH-]S(=O)(=O)c1cccc([N-]C(=O)Cn2c([O-])c3c(c2[O-])CCCC3)c1 (3D coordinates assigned)
[NH-]S(=O)(=O)c1cccc([N-]C(=O)Cn2c([O-])c3c(c2[O-])CCCC3)c1 (nonaromatic ring conformer: 74.8621981890104 kcal/mol)

> <smiles>
NS(=O)(=O)c1cccc(NC(=O)Cn2c(O)c3c(c2O)CCCC3)c1

> <score_type>
oracle

> <origin>
adg

> <m_score__min__energy>
-15.880000000000001

> <m_primary>
energy

> <minimizedAffinity>
-7.04536

> <minimizedRMSD>
0.97832

> <CNNscore>
0.3242729306

> <CNNaffinity>
5.4559268951

> <CNN_VS>
1.7692093849

> <CNNaffinity_variance>
0.2993037701

$$$$
53:0


 24 25  0  0  0  0  0  0  0  0999 V2000
   59.4180   30.3107   46.1341 N   0  0  0  0  0  0  0  0  0  0  0  0
   59.0680   31.6408   46.5847 C   0  0  0  0  0  0  0  0  0  0  0  0
   57.9693   32.1495   46.2347 O   0  0  0  0  0  0  0  0  0  0  0  0
   59.9510   32.4164   47.4778 C   0  0  0  0  0  0  0  0  0  0  0  0
   59.5763   32.6591   48.8062 C   0  0  0  0  0  0  0  0  0  0  0  0
   60.4151   33.3919   49.6480 C   0  0  0  0  0  0  0  0  0  0  0  0
   61.6189   33.8925   49.1448 C   0  0  0  0  0  0  0  0  0  0  0  0
   62.3885   34.5551   49.8887 O   0  0  0  0  0  0  0  0  0  0  0  0
   61.9596   33.6693   47.8478 N   0  0  0  0  0  0  0  0  0  0  0  0
   61.1607   32.9532   47.0108 C   0  0  0  0  0  0  0  0  0  0  0  0
   60.1185   29.0138   48.1042 C   0  0  0  0  0  0  0  0  0  0  0  0
   60.5462   29.6137   46.7684 C   0  0  0  0  0  0  0  0  0  0  0  0
   58.7418   29.7007   44.9739 C   0  0  0  0  0  0  0  0  0  0  0  0
   57.4484   29.0654   45.3808 C   0  0  0  0  0  0  0  0  0  0  0  0
   56.3646   29.5003   44.9074 O   0  0  0  0  0  0  0  0  0  0  0  0
   57.4498   28.0182   46.3604 N   0  0  0  0  0  0  0  0  0  0  0  0
   57.6991   26.6280   46.1083 C   0  0  0  0  0  0  0  0  0  0  0  0
   59.0074   26.1151   46.0223 C   0  0  0  0  0  0  0  0  0  0  0  0
   59.2156   24.7497   45.8095 C   0  0  0  0  0  0  0  0  0  0  0  0
   58.1276   23.8839   45.6934 C   0  0  0  0  0  0  0  0  0  0  0  0
   56.8228   24.3785   45.7994 C   0  0  0  0  0  0  0  0  0  0  0  0
   55.4656   23.2709   45.6673 Cl  0  0  0  0  0  0  0  0  0  0  0  0
   56.6083   25.7492   46.0139 C   0  0  0  0  0  0  0  0  0  0  0  0
   55.3121   26.2386   46.1275 O   0  0  0  0  0  0  0  0  0  0  0  0
 11 12  1  0
 12  1  1  0
  1 13  1  0
 13 14  1  0
 14 15  2  0
 14 16  1  0
 16 17  1  0
 17 18  2  0
 18 19  1  0
 19 20  2  0
 20 21  1  0
 21 22  1  0
 21 23  2  0
 23 24  1  0
  1  2  1  0
  2  3  2  0
  2  4  1  0
  4  5  1  0
  5  6  2  0
  6  7  1  0
  7  8  2  0
  7  9  1  0
  9 10  1  0
 23 17  1  0
 10  4  2  0
M  CHG 1   9  -1
M  CHG 1  16  -1
M  CHG 1  24  -1
M  END
> <UniqueID>
52

> <SMILES>
CCN(CC(=O)[N-]c1cccc(Cl)c1[O-])C(=O)c1ccc(=O)[n-]c1

> <Energy>
41.881993388467784

> <Genealogy>
CCN(CC(=O)[N-]c1cccc(Cl)c1[O-])C(=O)c1ccc(=O)[n-]c1 (protonated)
CCN(CC(=O)[N-]c1cccc(Cl)c1[O-])C(=O)c1ccc(=O)[n-]c1 (3D coordinates assigned)
CCN(CC(=O)[N-]c1cccc(Cl)c1[O-])C(=O)c1ccc(=O)[n-]c1 (optimized conformer: 41.881993388467784 kcal/mol)

> <smiles>
CCN(CC(=O)Nc1cccc(Cl)c1O)C(=O)c1ccc(=O)[nH]c1

> <score_type>
oracle

> <origin>
adg

> <m_score__min__energy>
-14.59

> <m_primary>
energy

> <minimizedAffinity>
-6.80899

> <minimizedRMSD>
1.52329

> <CNNscore>
0.4251078963

> <CNNaffinity>
6.6368064880

> <CNN_VS>
2.8213589191

> <CNNaffinity_variance>
0.4078791440

$$$$
7:0


 33 35  0  0  0  0  0  0  0  0999 V2000
   58.5984   31.5435   52.2441 C   0  0  0  0  0  0  0  0  0  0  0  0
   58.7481   32.8936   51.8749 C   0  0  0  0  0  0  0  0  0  0  0  0
   59.6748   33.2595   50.8944 C   0  0  0  0  0  0  0  0  0  0  0  0
   60.4601   32.2847   50.2636 C   0  0  0  0  0  0  0  0  0  0  0  0
   60.2833   30.9343   50.5984 C   0  0  0  0  0  0  0  0  0  0  0  0
   59.3590   30.5659   51.5802 C   0  0  0  0  0  0  0  0  0  0  0  0
   59.2171   29.2548   51.8991 F   0  0  0  0  0  0  0  0  0  0  0  0
   61.4363   32.6769   49.2259 C   0  0  0  0  0  0  0  0  0  0  0  0
   62.7815   32.8370   49.6013 C   0  0  0  0  0  0  0  0  0  0  0  0
   63.7357   33.2363   48.6645 C   0  0  0  0  0  0  0  0  0  0  0  0
   63.3598   33.4790   47.3442 C   0  0  0  0  0  0  0  0  0  0  0  0
   62.0312   33.3099   46.9523 C   0  0  0  0  0  0  0  0  0  0  0  0
   61.0591   32.8965   47.8775 C   0  0  0  0  0  0  0  0  0  0  0  0
   59.4006   32.6345   47.3087 S   0  0  0  0  0  0  0  0  0  0  0  0
   58.9637   30.9713   47.4953 N   0  0  0  0  0  0  0  0  0  0  0  0
   58.4416   33.4671   48.1141 O   0  0  0  0  0  0  0  0  0  0  0  0
   59.2999   33.0091   45.8571 O   0  0  0  0  0  0  0  0  0  0  0  0
   59.0301   30.7107   48.4792 H   0  0  0  0  0  0  0  0  0  0  0  0
   56.4913   30.3312   52.9753 C   0  0  0  0  0  0  0  0  0  0  0  0
   56.1570   30.0568   51.7907 O   0  0  0  0  0  0  0  0  0  0  0  0
   57.6447   31.1458   53.2422 N   0  0  0  0  0  0  0  0  0  0  0  0
   57.7903   31.4505   54.1669 H   0  0  0  0  0  0  0  0  0  0  0  0
   55.6156   29.8813   54.1043 C   0  0  0  0  0  0  0  0  0  0  0  0
   52.2064   30.5206   52.5013 C   0  0  0  0  0  0  0  0  0  0  0  0
   51.5603   29.2982   52.7646 C   0  0  0  0  0  0  0  0  0  0  0  0
   52.2274   28.2785   53.4496 C   0  0  0  0  0  0  0  0  0  0  0  0
   53.5432   28.4625   53.8760 C   0  0  0  0  0  0  0  0  0  0  0  0
   54.2099   29.6683   53.6124 C   0  0  0  0  0  0  0  0  0  0  0  0
   53.5349   30.6968   52.9336 C   0  0  0  0  0  0  0  0  0  0  0  0
   51.4306   31.6140   50.3585 N   0  0  0  0  0  0  0  0  0  0  0  0
   51.4952   31.6048   51.7848 C   0  0  0  0  0  0  0  0  0  0  0  0
   50.9396   32.5343   52.4297 O   0  0  0  0  0  0  0  0  0  0  0  0
   50.9554   32.3391   49.8919 H   0  0  0  0  0  0  0  0  0  0  0  0
 30 31  1  0
 31 32  2  0
 31 24  1  0
 24 25  2  0
 25 26  1  0
 26 27  2  0
 27 28  1  0
 28 23  1  0
 23 19  1  0
 19 20  2  0
 19 21  1  0
 21  1  1  0
  1  2  2  0
  2  3  1  0
  3  4  2  0
  4  8  1  0
  8  9  2  0
  9 10  1  0
 10 11  2  0
 11 12  1  0
 12 13  2  0
 13 14  1  0
 14 15  1  0
 14 16  2  0
 14 17  2  0
  4  5  1  0
  5  6  2  0
  6  7  1  0
 28 29  2  0
 29 24  1  0
  6  1  1  0
 13  8  1  0
 30 33  1  0
 21 22  1  0
 15 18  1  0
M  CHG 1  15  -1
M  CHG 1  30  -1
M  END
> <UniqueID>
8

> <SMILES>
[NH-]C(=O)c1cccc(CC(=O)Nc2ccc(-c3ccccc3S([NH-])(=O)=O)cc2F)c1

> <Energy>
58.79362948960392

> <Genealogy>
[NH-]C(=O)c1cccc(CC(=O)Nc2ccc(-c3ccccc3S([NH-])(=O)=O)cc2F)c1 (protonated)
[NH-]C(=O)c1cccc(CC(=O)Nc2ccc(-c3ccccc3S([NH-])(=O)=O)cc2F)c1 (3D coordinates assigned)
[NH-]C(=O)c1cccc(CC(=O)Nc2ccc(-c3ccccc3S([NH-])(=O)=O)cc2F)c1 (optimized conformer: 58.79362948960392 kcal/mol)

> <smiles>
NC(=O)c1cccc(CC(=O)Nc2ccc(-c3ccccc3S(N)(=O)=O)cc2F)c1

> <score_type>
oracle

> <origin>
adg

> <m_score__min__energy>
-14.01

> <m_primary>
energy

> <minimizedAffinity>
-7.79840

> <minimizedRMSD>
0.86680

> <CNNscore>
0.6633912921

> <CNNaffinity>
6.1616382599

> <CNN_VS>
4.0875773430

> <CNNaffinity_variance>
0.0349119902

$$$$
17:0


 31 35  0  0  0  0  0  0  0  0999 V2000
   57.8113   24.7804   44.8972 C   0  0  0  0  0  0  0  0  0  0  0  0
   57.8499   26.0766   44.5551 C   0  0  0  0  0  0  0  0  0  0  0  0
   57.7072   26.5876   43.2725 C   0  0  0  0  0  0  0  0  0  0  0  0
   57.8415   27.9311   43.3083 N   0  0  0  0  0  0  0  0  0  0  0  0
   58.0762   28.3012   44.5619 N   0  0  0  0  0  0  0  0  0  0  0  0
   58.3223   29.5368   45.1087 C   0  0  0  0  0  0  0  0  0  0  0  0
   58.2994   30.6596   44.4440 N   0  0  0  0  0  0  0  0  0  0  0  0
   58.5962   29.5952   46.4421 N   0  0  0  0  0  0  0  0  0  0  0  0
   58.6318   28.4710   47.2114 C   0  0  0  0  0  0  0  0  0  0  0  0
   58.9034   28.5716   48.4779 N   0  0  0  0  0  0  0  0  0  0  0  0
   58.3838   27.2555   46.6479 N   0  0  0  0  0  0  0  0  0  0  0  0
   58.0913   27.1995   45.3296 C   0  0  0  0  0  0  0  0  0  0  0  0
   57.7761   28.5355   42.5339 H   0  0  0  0  0  0  0  0  0  0  0  0
   57.1364   24.2639   46.0997 C   0  0  0  0  0  0  0  0  0  0  0  0
   57.6162   23.2524   46.8433 N   0  0  0  0  0  0  0  0  0  0  0  0
   56.6547   23.0647   47.7732 C   0  0  0  0  0  0  0  0  0  0  0  0
   56.7462   22.1956   48.6771 O   0  0  0  0  0  0  0  0  0  0  0  0
   55.5804   23.8740   47.6490 N   0  0  0  0  0  0  0  0  0  0  0  0
   55.8949   24.6183   46.5771 C   0  0  0  0  0  0  0  0  0  0  0  0
   55.0505   25.5765   46.0286 O   0  0  0  0  0  0  0  0  0  0  0  0
   57.4830   31.8458   44.6587 C   0  0  0  0  0  0  0  0  0  0  0  0
   57.9836   32.7593   45.7642 C   0  0  0  0  0  0  0  0  0  0  0  0
   58.2351   33.1177   44.3092 C   0  0  0  0  0  0  0  0  0  0  0  0
   60.1899   29.0219   49.0014 C   0  0  0  0  0  0  0  0  0  0  0  0
   60.3459   30.4934   48.7475 C   0  0  0  0  0  0  0  0  0  0  0  0
   61.3383   30.9538   47.8656 C   0  0  0  0  0  0  0  0  0  0  0  0
   61.5096   32.3248   47.6485 C   0  0  0  0  0  0  0  0  0  0  0  0
   60.6993   33.2451   48.3179 C   0  0  0  0  0  0  0  0  0  0  0  0
   59.7193   32.7979   49.2081 C   0  0  0  0  0  0  0  0  0  0  0  0
   59.5431   31.4265   49.4293 C   0  0  0  0  0  0  0  0  0  0  0  0
   58.5974   31.0121   50.3096 F   0  0  0  0  0  0  0  0  0  0  0  0
  1 14  1  0
 14 15  1  0
 15 16  1  0
 16 17  2  0
 16 18  1  0
 18 19  1  0
 19 20  1  0
  1  2  2  0
  2  3  1  0
  3  4  2  0
  4  5  1  0
  5  6  1  0
  6  7  2  0
  7 21  1  0
 21 22  1  0
 22 23  1  0
  6  8  1  0
  8  9  1  0
  9 10  2  0
 10 24  1  0
 24 25  1  0
 25 26  2  0
 26 27  1  0
 27 28  2  0
 28 29  1  0
 29 30  2  0
 30 31  1  0
  9 11  1  0
 11 12  2  0
 19 14  2  0
 12  2  1  0
 12  5  1  0
 23 21  1  0
 30 25  1  0
  4 13  1  0
M  CHG 1   4   1
M  CHG 1   8  -1
M  CHG 1  15  -1
M  CHG 1  18  -1
M  CHG 1  20  -1
M  END
> <UniqueID>
17

> <SMILES>
O=c1[n-]c([O-])c(C=c2c[nH+]n3c(=NC4CC4)[n-]/c(=N/Cc4ccccc4F)nc23)[n-]1

> <Energy>
395.06964680781306

> <Genealogy>
O=c1[n-]c([O-])c(C=c2c[nH+]n3c(=NC4CC4)[n-]c(=NCc4ccccc4F)nc23)[n-]1 (protonated)
O=c1[n-]c([O-])c(C=c2c[nH+]n3c(=NC4CC4)[n-]/c(=N/Cc4ccccc4F)nc23)[n-]1 (cis-trans isomerization)
O=c1[n-]c([O-])c(C=c2c[nH+]n3c(=NC4CC4)[n-]/c(=N/Cc4ccccc4F)nc23)[n-]1 (3D coordinates assigned)
O=c1[n-]c([O-])c(C=c2c[nH+]n3c(=NC4CC4)[n-]/c(=N/Cc4ccccc4F)nc23)[n-]1 (nonaromatic ring conformer: 395.06964680781306 kcal/mol)

> <smiles>
O=c1[nH]c(O)c(C=c2cnn3c(=NC4CC4)[nH]c(=NCc4ccccc4F)nc23)[nH]1

> <score_type>
oracle

> <origin>
adg

> <m_score__min__energy>
-16.809999999999999

> <m_primary>
energy

> <minimizedAffinity>
-9.12959

> <minimizedRMSD>
1.23392

> <CNNscore>
0.1523666084

> <CNNaffinity>
6.5352878571

> <CNN_VS>
0.9957596660

> <CNNaffinity_variance>
0.0143420259

$$$$
59:0


 27 31  0  0  0  0  0  0  0  0999 V2000
   53.2550   30.5433   53.1399 C   0  0  0  0  0  0  0  0  0  0  0  0
   54.1436   29.5884   53.4480 C   0  0  0  0  0  0  0  0  0  0  0  0
   53.9305   28.3366   54.0188 C   0  0  0  0  0  0  0  0  0  0  0  0
   55.1207   27.7194   54.1920 N   0  0  0  0  0  0  0  0  0  0  0  0
   56.0840   28.5283   53.7642 N   0  0  0  0  0  0  0  0  0  0  0  0
   57.4479   28.3733   53.7290 C   0  0  0  0  0  0  0  0  0  0  0  0
   58.0838   27.3100   54.1356 N   0  0  0  0  0  0  0  0  0  0  0  0
   58.1876   29.4010   53.2268 N   0  0  0  0  0  0  0  0  0  0  0  0
   57.6014   30.5504   52.7765 C   0  0  0  0  0  0  0  0  0  0  0  0
   56.2470   30.6821   52.8205 N   0  0  0  0  0  0  0  0  0  0  0  0
   55.5151   29.6591   53.3180 C   0  0  0  0  0  0  0  0  0  0  0  0
   55.2517   26.8206   54.5717 H   0  0  0  0  0  0  0  0  0  0  0  0
   52.5809   30.6490   51.8346 C   0  0  0  0  0  0  0  0  0  0  0  0
   52.7414   29.7479   50.8492 N   0  0  0  0  0  0  0  0  0  0  0  0
   51.8971   30.1798   49.8872 C   0  0  0  0  0  0  0  0  0  0  0  0
   51.7712   29.5926   48.7812 O   0  0  0  0  0  0  0  0  0  0  0  0
   51.1905   31.2846   50.2084 N   0  0  0  0  0  0  0  0  0  0  0  0
   51.6246   31.5617   51.4487 C   0  0  0  0  0  0  0  0  0  0  0  0
   51.1178   32.5986   52.2245 O   0  0  0  0  0  0  0  0  0  0  0  0
   58.4111   31.6143   52.2544 N   0  0  0  0  0  0  0  0  0  0  0  0
   58.5609   32.9017   52.9099 C   0  0  0  0  0  0  0  0  0  0  0  0
   59.6169   33.6483   52.1039 C   0  0  0  0  0  0  0  0  0  0  0  0
   59.7340   32.9056   50.7738 C   0  0  0  0  0  0  0  0  0  0  0  0
   59.1639   31.5139   51.0181 C   0  0  0  0  0  0  0  0  0  0  0  0
   59.4130   27.1926   54.7192 C   0  0  0  0  0  0  0  0  0  0  0  0
   59.8823   25.7620   54.9255 C   0  0  0  0  0  0  0  0  0  0  0  0
   60.4009   26.5709   53.7483 C   0  0  0  0  0  0  0  0  0  0  0  0
  1 13  1  0
 13 14  1  0
 14 15  1  0
 15 16  2  0
 15 17  1  0
 17 18  1  0
 18 19  1  0
  1  2  2  0
  2  3  1  0
  3  4  2  0
  4  5  1  0
  5  6  1  0
  6  7  2  0
  7 25  1  0
 25 26  1  0
 26 27  1  0
  6  8  1  0
  8  9  2  0
  9 20  1  0
 20 21  1  0
 21 22  1  0
 22 23  1  0
 23 24  1  0
  9 10  1  0
 10 11  2  0
 18 13  2  0
 11  2  1  0
 11  5  1  0
 27 25  1  0
 24 20  1  0
  4 12  1  0
M  CHG 1   4   1
M  CHG 1  14  -1
M  CHG 1  17  -1
M  CHG 1  19  -1
M  END
> <UniqueID>
55

> <SMILES>
O=c1[n-]c([O-])c(C=c2c[nH+]n3/c(=N\C4CC4)nc(N4CCCC4)nc23)[n-]1

> <Energy>
390.79895420270304

> <Genealogy>
O=c1[n-]c([O-])c(C=c2c[nH+]n3c(=NC4CC4)nc(N4CCCC4)nc23)[n-]1 (protonated)
O=c1[n-]c([O-])c(C=c2c[nH+]n3/c(=N\C4CC4)nc(N4CCCC4)nc23)[n-]1 (cis-trans isomerization)
O=c1[n-]c([O-])c(C=c2c[nH+]n3/c(=N\C4CC4)nc(N4CCCC4)nc23)[n-]1 (3D coordinates assigned)
O=c1[n-]c([O-])c(C=c2c[nH+]n3/c(=N\C4CC4)nc(N4CCCC4)nc23)[n-]1 (nonaromatic ring conformer: 390.79895420270304 kcal/mol)

> <smiles>
O=c1[nH]c(O)c(C=c2cnn3c(=NC4CC4)nc(N4CCCC4)nc23)[nH]1

> <score_type>
oracle

> <origin>
adg

> <m_score__min__energy>
-14.859999999999999

> <m_primary>
energy

> <minimizedAffinity>
-4.69674

> <minimizedRMSD>
0.96693

> <CNNscore>
0.1007516086

> <CNNaffinity>
4.4723992348

> <CNN_VS>
0.4506014287

> <CNNaffinity_variance>
0.1921885014

$$$$
0:0


 26 28  0  0  0  0  0  0  0  0999 V2000
   59.6837   30.8071   50.1305 N   0  0  0  0  0  0  0  0  0  0  0  0
   58.8967   30.9314   51.1604 C   0  0  0  0  0  0  0  0  0  0  0  0
   59.1732   31.8697   52.1015 N   0  0  0  0  0  0  0  0  0  0  0  0
   58.3773   31.9931   53.1942 C   0  0  0  0  0  0  0  0  0  0  0  0
   57.3061   31.1740   53.3527 N   0  0  0  0  0  0  0  0  0  0  0  0
   57.0320   30.2220   52.4248 C   0  0  0  0  0  0  0  0  0  0  0  0
   55.9831   29.4665   52.5730 N   0  0  0  0  0  0  0  0  0  0  0  0
   57.8303   30.1080   51.3334 N   0  0  0  0  0  0  0  0  0  0  0  0
   54.6236   29.9162   52.7191 C   0  0  0  0  0  0  0  0  0  0  0  0
   53.9873   30.5100   51.6207 C   0  0  0  0  0  0  0  0  0  0  0  0
   52.6684   30.9625   51.7243 C   0  0  0  0  0  0  0  0  0  0  0  0
   51.9819   30.8449   52.9362 C   0  0  0  0  0  0  0  0  0  0  0  0
   50.6691   31.2906   53.0368 O   0  0  0  0  0  0  0  0  0  0  0  0
   52.6166   30.2851   54.0474 C   0  0  0  0  0  0  0  0  0  0  0  0
   53.9359   29.8314   53.9465 C   0  0  0  0  0  0  0  0  0  0  0  0
   58.5927   29.5485   46.7463 C   0  0  0  0  0  0  0  0  0  0  0  0
   59.1112   28.2470   46.7890 C   0  0  0  0  0  0  0  0  0  0  0  0
   59.8208   27.8115   47.9106 C   0  0  0  0  0  0  0  0  0  0  0  0
   60.0043   28.6656   49.0010 C   0  0  0  0  0  0  0  0  0  0  0  0
   59.4697   29.9601   48.9858 C   0  0  0  0  0  0  0  0  0  0  0  0
   58.7919   30.4096   47.8342 C   0  0  0  0  0  0  0  0  0  0  0  0
   56.3094   29.1158   45.0880 N   0  0  0  0  0  0  0  0  0  0  0  0
   57.7161   30.0934   45.3175 S   0  0  0  0  0  0  0  0  0  0  0  0
   58.6089   29.9892   44.1139 O   0  0  0  0  0  0  0  0  0  0  0  0
   57.2847   31.5235   45.4875 O   0  0  0  0  0  0  0  0  0  0  0  0
   55.8052   29.4344   44.2605 H   0  0  0  0  0  0  0  0  0  0  0  0
 22 23  1  0
 23 24  2  0
 23 25  2  0
 23 16  1  0
 16 17  2  0
 17 18  1  0
 18 19  2  0
 19 20  1  0
 20  1  1  0
  1  2  2  0
  2  3  1  0
  3  4  1  0
  4  5  2  0
  5  6  1  0
  6  7  2  0
  7  9  1  0
  9 10  2  0
 10 11  1  0
 11 12  2  0
 12 13  1  0
 12 14  1  0
 14 15  2  0
  6  8  1  0
 20 21  2  0
 21 16  1  0
  8  2  1  0
 15  9  1  0
 22 26  1  0
M  CHG 1   3  -1
M  CHG 1   8  -1
M  CHG 1  13  -1
M  CHG 1  22  -1
M  END
> <UniqueID>
1

> <SMILES>
[NH-]S(=O)(=O)c1cccc(/N=c2/[n-]cnc(=Nc3ccc([O-])cc3)[n-]2)c1

> <Energy>
48.00112194896571

> <Genealogy>
[NH-]S(=O)(=O)c1cccc(N=c2[n-]cnc(=Nc3ccc([O-])cc3)[n-]2)c1 (protonated)
[NH-]S(=O)(=O)c1cccc(/N=c2/[n-]cnc(=Nc3ccc([O-])cc3)[n-]2)c1 (cis-trans isomerization)
[NH-]S(=O)(=O)c1cccc(/N=c2/[n-]cnc(=Nc3ccc([O-])cc3)[n-]2)c1 (3D coordinates assigned)
[NH-]S(=O)(=O)c1cccc(/N=c2/[n-]cnc(=Nc3ccc([O-])cc3)[n-]2)c1 (optimized conformer: 48.00112194896571 kcal/mol)

> <smiles>
NS(=O)(=O)c1cccc(N=c2[nH]cnc(=Nc3ccc(O)cc3)[nH]2)c1

> <score_type>
oracle

> <origin>
adg

> <m_score__min__energy>
-15.68

> <m_primary>
energy

> <minimizedAffinity>
-7.62357

> <minimizedRMSD>
1.05158

> <CNNscore>
0.5475645065

> <CNNaffinity>
5.7002449036

> <CNN_VS>
3.1212518215

> <CNNaffinity_variance>
0.1310719252

$$$$
34:0


 25 27  0  0  0  0  0  0  0  0999 V2000
   60.9862   30.0889   46.6942 N   0  0  0  0  0  0  0  0  0  0  0  0
   60.3724   30.3612   47.9629 C   0  0  0  0  0  0  0  0  0  0  0  0
   60.6400   29.4784   49.0181 C   0  0  0  0  0  0  0  0  0  0  0  0
   60.0531   29.6663   50.2692 C   0  0  0  0  0  0  0  0  0  0  0  0
   59.2066   30.7534   50.4867 C   0  0  0  0  0  0  0  0  0  0  0  0
   58.9577   31.6626   49.4573 C   0  0  0  0  0  0  0  0  0  0  0  0
   59.5409   31.4890   48.1891 C   0  0  0  0  0  0  0  0  0  0  0  0
   59.3347   32.4977   47.1818 N   0  0  0  0  0  0  0  0  0  0  0  0
   60.2562   33.6482   47.1434 C   0  0  0  0  0  0  0  0  0  0  0  0
   59.8465   34.7212   46.1181 C   0  0  0  0  0  0  0  0  0  0  0  0
   58.4833   34.6269   45.7647 O   0  0  0  0  0  0  0  0  0  0  0  0
   58.2646   33.3916   45.1227 C   0  0  0  0  0  0  0  0  0  0  0  0
   58.3245   32.2537   46.1402 C   0  0  0  0  0  0  0  0  0  0  0  0
   61.4386   28.7217   44.8819 O   0  0  0  0  0  0  0  0  0  0  0  0
   60.5999   29.0796   45.7505 C   0  0  0  0  0  0  0  0  0  0  0  0
   59.2758   28.4177   45.7928 C   0  0  0  0  0  0  0  0  0  0  0  0
   58.1269   29.0570   45.2947 C   0  0  0  0  0  0  0  0  0  0  0  0
   56.8844   28.4166   45.3349 C   0  0  0  0  0  0  0  0  0  0  0  0
   55.7655   29.0650   44.8263 O   0  0  0  0  0  0  0  0  0  0  0  0
   56.7715   27.1305   45.8886 C   0  0  0  0  0  0  0  0  0  0  0  0
   55.5436   26.4718   45.9314 O   0  0  0  0  0  0  0  0  0  0  0  0
   57.9089   26.4996   46.4072 C   0  0  0  0  0  0  0  0  0  0  0  0
   57.8082   25.2274   46.9603 O   0  0  0  0  0  0  0  0  0  0  0  0
   59.1493   27.1420   46.3689 C   0  0  0  0  0  0  0  0  0  0  0  0
   54.7773   26.8864   45.5867 H   0  0  0  0  0  0  0  0  0  0  0  0
 14 15  2  0
 15  1  1  0
  1  2  1  0
  2  3  2  0
  3  4  1  0
  4  5  2  0
  5  6  1  0
  6  7  2  0
  7  8  1  0
  8  9  1  0
  9 10  1  0
 10 11  1  0
 11 12  1  0
 12 13  1  0
 15 16  1  0
 16 17  2  0
 17 18  1  0
 18 19  1  0
 18 20  2  0
 20 21  1  0
 20 22  1  0
 22 23  1  0
 22 24  2  0
  7  2  1  0
 13  8  1  0
 24 16  1  0
 21 25  1  0
M  CHG 1   1  -1
M  CHG 1  19  -1
M  CHG 1  23  -1
M  END
> <UniqueID>
30

> <SMILES>
O=C([N-]c1ccccc1N1CCOCC1)c1cc([O-])c(O)c([O-])c1

> <Energy>
57.995436312190215

> <Genealogy>
O=C([N-]c1ccccc1N1CCOCC1)c1cc([O-])c(O)c([O-])c1 (protonated)
O=C([N-]c1ccccc1N1CCOCC1)c1cc([O-])c(O)c([O-])c1 (3D coordinates assigned)
O=C([N-]c1ccccc1N1CCOCC1)c1cc([O-])c(O)c([O-])c1 (nonaromatic ring conformer: 57.995436312190215 kcal/mol)

> <smiles>
O=C(Nc1ccccc1N1CCOCC1)c1cc(O)c(O)c(O)c1

> <score_type>
oracle

> <origin>
adg

> <m_score__min__energy>
-14.27

> <m_primary>
energy

> <minimizedAffinity>
-6.21511

> <minimizedRMSD>
0.69176

> <CNNscore>
0.6764290929

> <CNNaffinity>
6.1248526573

> <CNN_VS>
4.1430287361

> <CNNaffinity_variance>
0.0862595513

$$$$
34:0


 23 24  0  0  0  0  0  0  0  0999 V2000
   59.2010   28.9684   45.2225 N   0  0  0  0  0  0  0  0  0  0  0  0
   58.5374   32.6877   46.2125 C   0  0  0  0  0  0  0  0  0  0  0  0
   57.4979   32.2514   45.3985 C   0  0  0  0  0  0  0  0  0  0  0  0
   57.6445   30.9201   44.9701 C   0  0  0  0  0  0  0  0  0  0  0  0
   58.8279   30.3379   45.4282 C   0  0  0  0  0  0  0  0  0  0  0  0
   59.6579   31.4467   46.3886 S   0  0  0  0  0  0  0  0  0  0  0  0
   56.6487   30.2389   44.1183 C   0  0  0  0  0  0  0  0  0  0  0  0
   55.5815   29.5013   44.7132 N   0  0  0  0  0  0  0  0  0  0  0  0
   56.7295   30.3004   42.8624 O   0  0  0  0  0  0  0  0  0  0  0  0
   55.5079   29.4460   45.6934 H   0  0  0  0  0  0  0  0  0  0  0  0
   60.0379   34.2257   47.4595 C   0  0  0  0  0  0  0  0  0  0  0  0
   58.6880   34.0676   46.7722 C   0  0  0  0  0  0  0  0  0  0  0  0
   58.4784   27.8149   45.6705 C   0  0  0  0  0  0  0  0  0  0  0  0
   58.1629   27.7368   46.8882 O   0  0  0  0  0  0  0  0  0  0  0  0
   58.0813   26.7107   44.7285 C   0  0  0  0  0  0  0  0  0  0  0  0
   57.5130   25.5394   45.4730 C   0  0  0  0  0  0  0  0  0  0  0  0
   58.3338   24.0971   45.7679 S   0  0  0  0  0  0  0  0  0  0  0  0
   57.0527   23.4483   46.6372 C   0  0  0  0  0  0  0  0  0  0  0  0
   57.0560   22.3020   47.1556 O   0  0  0  0  0  0  0  0  0  0  0  0
   56.0037   24.2928   46.7287 N   0  0  0  0  0  0  0  0  0  0  0  0
   56.2593   25.4614   46.0846 C   0  0  0  0  0  0  0  0  0  0  0  0
   55.3199   26.4902   46.0605 O   0  0  0  0  0  0  0  0  0  0  0  0
   54.4940   26.3806   46.4892 H   0  0  0  0  0  0  0  0  0  0  0  0
 11 12  1  0
 12  2  1  0
  2  3  2  0
  3  4  1  0
  4  7  1  0
  7  8  1  0
  7  9  2  0
  4  5  2  0
  5  1  1  0
  1 13  1  0
 13 14  2  0
 13 15  1  0
 15 16  1  0
 16 17  1  0
 17 18  1  0
 18 19  2  0
 18 20  1  0
 20 21  1  0
 21 22  1  0
  5  6  1  0
  6  2  1  0
 21 16  2  0
  8 10  1  0
 22 23  1  0
M  CHG 1   1  -1
M  CHG 1   8  -1
M  CHG 1  20  -1
M  END
> <UniqueID>
33

> <SMILES>
CCc1cc(C([NH-])=O)c([N-]C(=O)Cc2sc(=O)[n-]c2O)s1

> <Energy>
86.11004032873812

> <Genealogy>
CCc1cc(C([NH-])=O)c([N-]C(=O)Cc2sc(=O)[n-]c2O)s1 (protonated)
CCc1cc(C([NH-])=O)c([N-]C(=O)Cc2sc(=O)[n-]c2O)s1 (3D coordinates assigned)
CCc1cc(C([NH-])=O)c([N-]C(=O)Cc2sc(=O)[n-]c2O)s1 (optimized conformer: 86.11004032873812 kcal/mol)

> <smiles>
CCc1cc(C(N)=O)c(NC(=O)Cc2sc(=O)[nH]c2O)s1

> <score_type>
oracle

> <origin>
adg

> <m_score__min__energy>
-15.050000000000001

> <m_primary>
energy

> <minimizedAffinity>
-7.86310

> <minimizedRMSD>
0.74071

> <CNNscore>
0.9031599164

> <CNNaffinity>
7.1243090630

> <CNN_VS>
6.4343905449

> <CNNaffinity_variance>
0.6034827828

$$$$
58:0


 31 35  0  0  0  0  0  0  0  0999 V2000
   53.8519   30.8207   52.8544 C   0  0  0  0  0  0  0  0  0  0  0  0
   54.9939   30.1220   52.9237 C   0  0  0  0  0  0  0  0  0  0  0  0
   55.1250   28.8479   53.4590 C   0  0  0  0  0  0  0  0  0  0  0  0
   56.4242   28.4810   53.4236 N   0  0  0  0  0  0  0  0  0  0  0  0
   57.1306   29.4724   52.8922 N   0  0  0  0  0  0  0  0  0  0  0  0
   58.4859   29.6211   52.7463 C   0  0  0  0  0  0  0  0  0  0  0  0
   59.3597   28.6735   52.9443 N   0  0  0  0  0  0  0  0  0  0  0  0
   58.9473   30.8358   52.3447 N   0  0  0  0  0  0  0  0  0  0  0  0
   58.1006   31.8685   52.0691 C   0  0  0  0  0  0  0  0  0  0  0  0
   58.6057   33.0236   51.7530 N   0  0  0  0  0  0  0  0  0  0  0  0
   56.7518   31.6925   52.1925 N   0  0  0  0  0  0  0  0  0  0  0  0
   56.2921   30.4798   52.5890 C   0  0  0  0  0  0  0  0  0  0  0  0
   56.7872   27.6220   53.7391 H   0  0  0  0  0  0  0  0  0  0  0  0
   59.7651   33.2461   50.9389 C   0  0  0  0  0  0  0  0  0  0  0  0
   61.0543   33.2206   51.4909 C   0  0  0  0  0  0  0  0  0  0  0  0
   62.1658   33.5146   50.6926 C   0  0  0  0  0  0  0  0  0  0  0  0
   61.9953   33.8365   49.3440 C   0  0  0  0  0  0  0  0  0  0  0  0
   63.0756   34.1150   48.5726 F   0  0  0  0  0  0  0  0  0  0  0  0
   60.7091   33.8876   48.7962 C   0  0  0  0  0  0  0  0  0  0  0  0
   60.5378   34.2169   47.4912 F   0  0  0  0  0  0  0  0  0  0  0  0
   59.5961   33.6067   49.5954 C   0  0  0  0  0  0  0  0  0  0  0  0
   52.8676   30.6877   51.7756 C   0  0  0  0  0  0  0  0  0  0  0  0
   53.0078   29.8442   50.7375 N   0  0  0  0  0  0  0  0  0  0  0  0
   51.9757   30.1724   49.9302 C   0  0  0  0  0  0  0  0  0  0  0  0
   51.7510   29.5802   48.8426 O   0  0  0  0  0  0  0  0  0  0  0  0
   51.2124   31.1936   50.3716 N   0  0  0  0  0  0  0  0  0  0  0  0
   51.7958   31.5151   51.5376 C   0  0  0  0  0  0  0  0  0  0  0  0
   51.3850   32.5682   52.3445 O   0  0  0  0  0  0  0  0  0  0  0  0
   60.8123   28.7233   52.8409 C   0  0  0  0  0  0  0  0  0  0  0  0
   61.3972   27.3660   52.4957 C   0  0  0  0  0  0  0  0  0  0  0  0
   61.3475   28.4607   51.4440 C   0  0  0  0  0  0  0  0  0  0  0  0
  1 22  1  0
 22 23  1  0
 23 24  1  0
 24 25  2  0
 24 26  1  0
 26 27  1  0
 27 28  1  0
  1  2  2  0
  2  3  1  0
  3  4  2  0
  4  5  1  0
  5  6  1  0
  6  7  2  0
  7 29  1  0
 29 30  1  0
 30 31  1  0
  6  8  1  0
  8  9  1  0
  9 10  2  0
 10 14  1  0
 14 15  2  0
 15 16  1  0
 16 17  2  0
 17 18  1  0
 17 19  1  0
 19 20  1  0
 19 21  2  0
  9 11  1  0
 11 12  2  0
 27 22  2  0
 12  2  1  0
 12  5  1  0
 31 29  1  0
 21 14  1  0
  4 13  1  0
M  CHG 1   4   1
M  CHG 1   8  -1
M  CHG 1  23  -1
M  CHG 1  26  -1
M  CHG 1  28  -1
M  END
> <UniqueID>
57

> <SMILES>
O=c1[n-]c([O-])c(C=c2c[nH+]n3/c(=N\C4CC4)[n-]c(=Nc4ccc(F)c(F)c4)nc23)[n-]1

> <Energy>
400.08541594375356

> <Genealogy>
O=c1[n-]c([O-])c(C=c2c[nH+]n3c(=NC4CC4)[n-]c(=Nc4ccc(F)c(F)c4)nc23)[n-]1 (protonated)
O=c1[n-]c([O-])c(C=c2c[nH+]n3/c(=N\C4CC4)[n-]c(=Nc4ccc(F)c(F)c4)nc23)[n-]1 (cis-trans isomerization)
O=c1[n-]c([O-])c(C=c2c[nH+]n3/c(=N\C4CC4)[n-]c(=Nc4ccc(F)c(F)c4)nc23)[n-]1 (3D coordinates assigned)
O=c1[n-]c([O-])c(C=c2c[nH+]n3/c(=N\C4CC4)[n-]c(=Nc4ccc(F)c(F)c4)nc23)[n-]1 (nonaromatic ring conformer: 400.08541594375356 kcal/mol)

> <smiles>
O=c1[nH]c(O)c(C=c2cnn3c(=NC4CC4)[nH]c(=Nc4ccc(F)c(F)c4)nc23)[nH]1

> <score_type>
oracle

> <origin>
adg

> <m_score__min__energy>
-15.890000000000001

> <m_primary>
energy

> <minimizedAffinity>
-6.58619

> <minimizedRMSD>
0.81762

> <CNNscore>
0.0924194306

> <CNNaffinity>
5.4200572968

> <CNN_VS>
0.5009186268

> <CNNaffinity_variance>
0.0991792008

$$$$
3:0


 24 25  0  0  0  0  0  0  0  0999 V2000
   60.5763   26.4899   46.7731 O   0  0  0  0  0  0  0  0  0  0  0  0
   59.6943   27.2790   47.2055 C   0  0  0  0  0  0  0  0  0  0  0  0
   60.1276   28.5878   47.7392 C   0  0  0  0  0  0  0  0  0  0  0  0
   60.5092   29.6393   47.0007 C   0  0  0  0  0  0  0  0  0  0  0  0
   59.6403   30.7749   46.6315 C   0  0  0  0  0  0  0  0  0  0  0  0
   59.9537   32.0892   47.0189 C   0  0  0  0  0  0  0  0  0  0  0  0
   59.1355   33.1525   46.6293 C   0  0  0  0  0  0  0  0  0  0  0  0
   58.0079   32.9175   45.8287 C   0  0  0  0  0  0  0  0  0  0  0  0
   57.1868   33.9736   45.4386 O   0  0  0  0  0  0  0  0  0  0  0  0
   57.7096   31.6140   45.4162 C   0  0  0  0  0  0  0  0  0  0  0  0
   56.5993   31.3719   44.6153 O   0  0  0  0  0  0  0  0  0  0  0  0
   58.5281   30.5484   45.8067 C   0  0  0  0  0  0  0  0  0  0  0  0
   57.3847   34.8472   45.7136 H   0  0  0  0  0  0  0  0  0  0  0  0
   58.2427   26.8853   47.0881 C   0  0  0  0  0  0  0  0  0  0  0  0
   57.9253   26.3149   45.7298 C   0  0  0  0  0  0  0  0  0  0  0  0
   58.1305   27.0383   44.7166 O   0  0  0  0  0  0  0  0  0  0  0  0
   57.3327   24.9646   45.5416 C   0  0  0  0  0  0  0  0  0  0  0  0
   58.1859   23.8913   45.2193 C   0  0  0  0  0  0  0  0  0  0  0  0
   57.6753   22.6063   45.0222 C   0  0  0  0  0  0  0  0  0  0  0  0
   56.3061   22.3698   45.1495 C   0  0  0  0  0  0  0  0  0  0  0  0
   55.7992   21.0916   44.9513 O   0  0  0  0  0  0  0  0  0  0  0  0
   55.4465   23.4183   45.4829 C   0  0  0  0  0  0  0  0  0  0  0  0
   55.9494   24.7083   45.6881 C   0  0  0  0  0  0  0  0  0  0  0  0
   55.0642   25.7116   46.0615 O   0  0  0  0  0  0  0  0  0  0  0  0
  1  2  2  0
  2  3  1  0
  3  4  2  0
  4  5  1  0
  5  6  2  0
  6  7  1  0
  7  8  2  0
  8  9  1  0
  8 10  1  0
 10 11  1  0
 10 12  2  0
  2 14  1  0
 14 15  1  0
 15 16  2  0
 15 17  1  0
 17 18  2  0
 18 19  1  0
 19 20  2  0
 20 21  1  0
 20 22  1  0
 22 23  2  0
 23 24  1  0
 12  5  1  0
 23 17  1  0
  9 13  1  0
M  CHG 1  11  -1
M  CHG 1  21  -1
M  CHG 1  24  -1
M  END
> <UniqueID>
4

> <SMILES>
O=C(C=Cc1ccc(O)c([O-])c1)CC(=O)c1ccc([O-])cc1[O-]

> <Energy>
48.76067333091448

> <Genealogy>
O=C(C=Cc1ccc(O)c([O-])c1)CC(=O)c1ccc([O-])cc1[O-] (protonated)
O=C(C=Cc1ccc(O)c([O-])c1)CC(=O)c1ccc([O-])cc1[O-] (3D coordinates assigned)
O=C(C=Cc1ccc(O)c([O-])c1)CC(=O)c1ccc([O-])cc1[O-] (optimized conformer: 48.76067333091448 kcal/mol)

> <smiles>
O=C(C=Cc1ccc(O)c(O)c1)CC(=O)c1ccc(O)cc1O

> <score_type>
oracle

> <origin>
adg

> <m_score__min__energy>
-15.1

> <m_primary>
energy

> <minimizedAffinity>
-7.78253

> <minimizedRMSD>
2.42306

> <CNNscore>
0.1425825506

> <CNNaffinity>
5.6541309357

> <CNN_VS>
0.8061804175

> <CNNaffinity_variance>
0.0766062737

$$$$
32:0


 30 34  0  0  0  0  0  0  0  0999 V2000
   53.8281   30.9744   52.7702 C   0  0  0  0  0  0  0  0  0  0  0  0
   54.7784   30.0975   53.1337 C   0  0  0  0  0  0  0  0  0  0  0  0
   54.6190   29.0798   54.0705 C   0  0  0  0  0  0  0  0  0  0  0  0
   55.7791   28.3995   54.2235 N   0  0  0  0  0  0  0  0  0  0  0  0
   56.6683   28.9604   53.4193 N   0  0  0  0  0  0  0  0  0  0  0  0
   57.9863   28.6463   53.2500 C   0  0  0  0  0  0  0  0  0  0  0  0
   58.5708   27.6581   53.8657 N   0  0  0  0  0  0  0  0  0  0  0  0
   58.7160   29.4101   52.3911 N   0  0  0  0  0  0  0  0  0  0  0  0
   58.1485   30.4604   51.7263 C   0  0  0  0  0  0  0  0  0  0  0  0
   58.8758   31.1694   50.9190 N   0  0  0  0  0  0  0  0  0  0  0  0
   56.8284   30.7538   51.9164 N   0  0  0  0  0  0  0  0  0  0  0  0
   56.1056   29.9771   52.7559 C   0  0  0  0  0  0  0  0  0  0  0  0
   52.9301   30.8394   51.6075 C   0  0  0  0  0  0  0  0  0  0  0  0
   53.0255   29.8989   50.6497 N   0  0  0  0  0  0  0  0  0  0  0  0
   51.9440   30.1263   49.8744 C   0  0  0  0  0  0  0  0  0  0  0  0
   51.6892   29.4423   48.8496 O   0  0  0  0  0  0  0  0  0  0  0  0
   51.1526   31.1381   50.2902 N   0  0  0  0  0  0  0  0  0  0  0  0
   51.7859   31.5709   51.3930 C   0  0  0  0  0  0  0  0  0  0  0  0
   51.3264   32.6121   52.1887 O   0  0  0  0  0  0  0  0  0  0  0  0
   59.1508   27.6886   55.2049 C   0  0  0  0  0  0  0  0  0  0  0  0
   58.1729   27.2263   56.2692 C   0  0  0  0  0  0  0  0  0  0  0  0
   58.5081   28.7038   56.1326 C   0  0  0  0  0  0  0  0  0  0  0  0
   59.0534   30.8654   49.5006 C   0  0  0  0  0  0  0  0  0  0  0  0
   59.2501   32.1422   48.7389 C   0  0  0  0  0  0  0  0  0  0  0  0
   60.1950   33.0880   49.1729 C   0  0  0  0  0  0  0  0  0  0  0  0
   60.4004   34.2625   48.4429 C   0  0  0  0  0  0  0  0  0  0  0  0
   59.6736   34.4971   47.2732 C   0  0  0  0  0  0  0  0  0  0  0  0
   58.7435   33.5537   46.8241 C   0  0  0  0  0  0  0  0  0  0  0  0
   57.8400   33.8438   45.3485 Cl  0  0  0  0  0  0  0  0  0  0  0  0
   58.5345   32.3764   47.5529 C   0  0  0  0  0  0  0  0  0  0  0  0
  1 13  1  0
 13 14  1  0
 14 15  1  0
 15 16  2  0
 15 17  1  0
 17 18  1  0
 18 19  1  0
  1  2  2  0
  2  3  1  0
  3  4  2  0
  4  5  1  0
  5  6  1  0
  6  7  2  0
  7 20  1  0
 20 21  1  0
 21 22  1  0
  6  8  1  0
  8  9  1  0
  9 10  2  0
 10 23  1  0
 23 24  1  0
 24 25  2  0
 25 26  1  0
 26 27  2  0
 27 28  1  0
 28 29  1  0
 28 30  2  0
  9 11  1  0
 11 12  2  0
 18 13  2  0
 12  2  1  0
 12  5  1  0
 22 20  1  0
 30 24  1  0
M  CHG 1   8  -1
M  CHG 1  14  -1
M  CHG 1  17  -1
M  CHG 1  19  -1
M  END
> <UniqueID>
32

> <SMILES>
O=c1[n-]c([O-])c(C=c2cnn3c(=NC4CC4)[n-]/c(=N/Cc4cccc(Cl)c4)nc23)[n-]1

> <Energy>
386.1592794559911

> <Genealogy>
O=c1[n-]c([O-])c(C=c2cnn3c(=NC4CC4)[n-]c(=NCc4cccc(Cl)c4)nc23)[n-]1 (protonated)
O=c1[n-]c([O-])c(C=c2cnn3c(=NC4CC4)[n-]/c(=N/Cc4cccc(Cl)c4)nc23)[n-]1 (cis-trans isomerization)
O=c1[n-]c([O-])c(C=c2cnn3c(=NC4CC4)[n-]/c(=N/Cc4cccc(Cl)c4)nc23)[n-]1 (3D coordinates assigned)
O=c1[n-]c([O-])c(C=c2cnn3c(=NC4CC4)[n-]/c(=N/Cc4cccc(Cl)c4)nc23)[n-]1 (nonaromatic ring conformer: 386.1592794559911 kcal/mol)

> <smiles>
O=c1[nH]c(O)c(C=c2cnn3c(=NC4CC4)[nH]c(=NCc4cccc(Cl)c4)nc23)[nH]1

> <score_type>
oracle

> <origin>
adg

> <m_score__min__energy>
-18.68

> <m_primary>
energy

> <minimizedAffinity>
-6.04144

> <minimizedRMSD>
0.90528

> <CNNscore>
0.2049711645

> <CNNaffinity>
6.0083527565

> <CNN_VS>
1.2315390110

> <CNNaffinity_variance>
0.0825205073

$$$$
41:0


 23 24  0  0  0  0  0  0  0  0999 V2000
   57.2239   31.1971   45.0024 N   0  0  0  0  0  0  0  0  0  0  0  0
   58.1066   27.6012   45.6788 C   0  0  0  0  0  0  0  0  0  0  0  0
   59.5040   27.6835   45.6648 C   0  0  0  0  0  0  0  0  0  0  0  0
   60.1316   28.9088   45.4347 C   0  0  0  0  0  0  0  0  0  0  0  0
   59.3680   30.0607   45.2254 C   0  0  0  0  0  0  0  0  0  0  0  0
   57.9697   30.0000   45.2666 C   0  0  0  0  0  0  0  0  0  0  0  0
   57.3406   28.7606   45.4838 C   0  0  0  0  0  0  0  0  0  0  0  0
   55.6046   26.2926   46.0347 N   0  0  0  0  0  0  0  0  0  0  0  0
   57.3125   26.0532   45.9436 S   0  0  0  0  0  0  0  0  0  0  0  0
   57.6307   25.1175   44.8117 O   0  0  0  0  0  0  0  0  0  0  0  0
   57.8043   25.4425   47.2270 O   0  0  0  0  0  0  0  0  0  0  0  0
   55.1433   25.3960   46.1882 H   0  0  0  0  0  0  0  0  0  0  0  0
   57.7245   32.5393   45.0207 C   0  0  0  0  0  0  0  0  0  0  0  0
   58.2898   33.0335   44.0083 O   0  0  0  0  0  0  0  0  0  0  0  0
   57.5628   33.3634   46.2576 C   0  0  0  0  0  0  0  0  0  0  0  0
   59.1186   34.2261   46.6820 S   0  0  0  0  0  0  0  0  0  0  0  0
   59.8770   32.8135   47.4927 C   0  0  0  0  0  0  0  0  0  0  0  0
   61.2270   32.5177   47.2618 C   0  0  0  0  0  0  0  0  0  0  0  0
   61.8139   31.4017   47.8649 C   0  0  0  0  0  0  0  0  0  0  0  0
   61.0581   30.5862   48.7137 C   0  0  0  0  0  0  0  0  0  0  0  0
   59.7146   30.8896   48.9621 C   0  0  0  0  0  0  0  0  0  0  0  0
   58.9662   30.0810   49.8075 O   0  0  0  0  0  0  0  0  0  0  0  0
   59.1256   32.0047   48.3554 C   0  0  0  0  0  0  0  0  0  0  0  0
  8  9  1  0
  9 10  2  0
  9 11  2  0
  9  2  1  0
  2  3  2  0
  3  4  1  0
  4  5  2  0
  5  6  1  0
  6  1  1  0
  1 13  1  0
 13 14  2  0
 13 15  1  0
 15 16  1  0
 16 17  1  0
 17 18  2  0
 18 19  1  0
 19 20  2  0
 20 21  1  0
 21 22  1  0
 21 23  2  0
  6  7  2  0
  7  2  1  0
 23 17  1  0
  8 12  1  0
M  CHG 1   1  -1
M  CHG 1   8  -1
M  CHG 1  22  -1
M  END
> <UniqueID>
41

> <SMILES>
[NH-]S(=O)(=O)c1cccc([N-]C(=O)CSc2cccc([O-])c2)c1

> <Energy>
30.02124277569691

> <Genealogy>
[NH-]S(=O)(=O)c1cccc([N-]C(=O)CSc2cccc([O-])c2)c1 (protonated)
[NH-]S(=O)(=O)c1cccc([N-]C(=O)CSc2cccc([O-])c2)c1 (3D coordinates assigned)
[NH-]S(=O)(=O)c1cccc([N-]C(=O)CSc2cccc([O-])c2)c1 (optimized conformer: 30.02124277569691 kcal/mol)

> <smiles>
NS(=O)(=O)c1cccc(NC(=O)CSc2cccc(O)c2)c1

> <score_type>
oracle

> <origin>
adg

> <m_score__min__energy>
-14.66

> <m_primary>
energy

> <minimizedAffinity>
-7.71197

> <minimizedRMSD>
1.45255

> <CNNscore>
0.9109647870

> <CNNaffinity>
7.2006421089

> <CNN_VS>
6.5595312119

> <CNNaffinity_variance>
0.5297860503

$$$$
39:0


 23 24  0  0  0  0  0  0  0  0999 V2000
   58.5039   30.1074   46.5950 C   0  0  0  0  0  0  0  0  0  0  0  0
   58.1241   29.0879   45.7022 C   0  0  0  0  0  0  0  0  0  0  0  0
   58.6799   27.8011   45.8032 C   0  0  0  0  0  0  0  0  0  0  0  0
   59.6358   27.5408   46.7973 C   0  0  0  0  0  0  0  0  0  0  0  0
   60.2056   26.3142   46.9044 F   0  0  0  0  0  0  0  0  0  0  0  0
   60.0119   28.5465   47.6893 C   0  0  0  0  0  0  0  0  0  0  0  0
   59.4531   29.8282   47.5980 C   0  0  0  0  0  0  0  0  0  0  0  0
   59.8627   30.8414   48.5264 N   0  0  0  0  0  0  0  0  0  0  0  0
   60.5269   30.6320   49.2222 H   0  0  0  0  0  0  0  0  0  0  0  0
   59.4796   31.7464   48.4679 H   0  0  0  0  0  0  0  0  0  0  0  0
   57.9456   31.4272   46.5029 N   0  0  0  0  0  0  0  0  0  0  0  0
   58.3975   33.7563   44.9108 C   0  0  0  0  0  0  0  0  0  0  0  0
   58.8547   32.8995   46.4001 S   0  0  0  0  0  0  0  0  0  0  0  0
   60.3246   32.5899   46.3568 O   0  0  0  0  0  0  0  0  0  0  0  0
   58.5481   33.7743   47.5830 O   0  0  0  0  0  0  0  0  0  0  0  0
   58.2923   26.7374   44.8108 C   0  0  0  0  0  0  0  0  0  0  0  0
   57.6928   25.5627   45.5194 C   0  0  0  0  0  0  0  0  0  0  0  0
   58.3983   24.0367   45.6374 S   0  0  0  0  0  0  0  0  0  0  0  0
   57.0725   23.3966   46.4486 C   0  0  0  0  0  0  0  0  0  0  0  0
   56.9924   22.2060   46.8442 O   0  0  0  0  0  0  0  0  0  0  0  0
   56.0873   24.3005   46.6316 N   0  0  0  0  0  0  0  0  0  0  0  0
   56.4299   25.5065   46.1082 C   0  0  0  0  0  0  0  0  0  0  0  0
   55.5695   26.5956   46.1615 O   0  0  0  0  0  0  0  0  0  0  0  0
 12 13  1  0
 13 14  2  0
 13 15  2  0
 13 11  1  0
 11  1  1  0
  1  2  2  0
  2  3  1  0
  3 16  1  0
 16 17  1  0
 17 18  1  0
 18 19  1  0
 19 20  2  0
 19 21  1  0
 21 22  1  0
 22 23  1  0
  3  4  2  0
  4  5  1  0
  4  6  1  0
  6  7  2  0
  7  8  1  0
  7  1  1  0
 22 17  2  0
  8  9  1  0
  8 10  1  0
M  CHG 1  11  -1
M  CHG 1  21  -1
M  CHG 1  23  -1
M  END
> <UniqueID>
38

> <SMILES>
CS(=O)(=O)[N-]c1cc(Cc2sc(=O)[n-]c2[O-])c(F)cc1N

> <Energy>
58.55224720546859

> <Genealogy>
CS(=O)(=O)[N-]c1cc(Cc2sc(=O)[n-]c2[O-])c(F)cc1N (protonated)
CS(=O)(=O)[N-]c1cc(Cc2sc(=O)[n-]c2[O-])c(F)cc1N (3D coordinates assigned)
CS(=O)(=O)[N-]c1cc(Cc2sc(=O)[n-]c2[O-])c(F)cc1N (optimized conformer: 58.55224720546859 kcal/mol)

> <smiles>
CS(=O)(=O)Nc1cc(Cc2sc(=O)[nH]c2O)c(F)cc1N

> <score_type>
oracle

> <origin>
adg

> <m_score__min__energy>
-14.06

> <m_primary>
energy

> <minimizedAffinity>
-6.13185

> <minimizedRMSD>
1.08575

> <CNNscore>
0.5591785908

> <CNNaffinity>
6.3758368492

> <CNN_VS>
3.5652315617

> <CNNaffinity_variance>
0.3651556969

$$$$
84:0


 23 24  0  0  0  0  0  0  0  0999 V2000
   57.3646   28.6298   45.2720 C   0  0  0  0  0  0  0  0  0  0  0  0
   58.2206   26.3351   46.1317 C   0  0  0  0  0  0  0  0  0  0  0  0
   59.1000   25.9135   47.0576 N   0  0  0  0  0  0  0  0  0  0  0  0
   59.6735   27.0547   47.4893 C   0  0  0  0  0  0  0  0  0  0  0  0
   60.5696   27.0729   48.3718 O   0  0  0  0  0  0  0  0  0  0  0  0
   59.1997   28.1753   46.9114 N   0  0  0  0  0  0  0  0  0  0  0  0
   58.2786   27.7180   46.0425 C   0  0  0  0  0  0  0  0  0  0  0  0
   56.1143   23.7844   46.9063 C   0  0  0  0  0  0  0  0  0  0  0  0
   56.0996   24.9422   46.0154 N   0  0  0  0  0  0  0  0  0  0  0  0
   55.0357   25.7764   46.0781 O   0  0  0  0  0  0  0  0  0  0  0  0
   57.3105   25.4222   45.4169 C   0  0  0  0  0  0  0  0  0  0  0  0
   57.6060   25.0638   44.2457 O   0  0  0  0  0  0  0  0  0  0  0  0
   58.1399   29.5901   44.3538 C   0  0  0  0  0  0  0  0  0  0  0  0
   57.3853   30.8922   44.0598 C   0  0  0  0  0  0  0  0  0  0  0  0
   57.1751   31.6443   45.2907 N   0  0  0  0  0  0  0  0  0  0  0  0
   57.9103   32.8288   45.6140 C   0  0  0  0  0  0  0  0  0  0  0  0
   57.4256   33.9612   45.3377 O   0  0  0  0  0  0  0  0  0  0  0  0
   59.2338   32.7272   46.2710 C   0  0  0  0  0  0  0  0  0  0  0  0
   60.1248   33.8179   46.2620 C   0  0  0  0  0  0  0  0  0  0  0  0
   61.3746   33.7172   46.8807 C   0  0  0  0  0  0  0  0  0  0  0  0
   61.7493   32.5306   47.5167 C   0  0  0  0  0  0  0  0  0  0  0  0
   60.8757   31.4425   47.5336 C   0  0  0  0  0  0  0  0  0  0  0  0
   59.6250   31.5366   46.9142 C   0  0  0  0  0  0  0  0  0  0  0  0
  8  9  1  0
  9 10  1  0
  9 11  1  0
 11 12  2  0
 11  2  1  0
  2  3  1  0
  3  4  1  0
  4  5  2  0
  4  6  1  0
  6  7  1  0
  7  1  1  0
  1 13  1  0
 13 14  1  0
 14 15  1  0
 15 16  1  0
 16 17  2  0
 16 18  1  0
 18 19  2  0
 19 20  1  0
 20 21  2  0
 21 22  1  0
 22 23  2  0
  7  2  2  0
 23 18  1  0
M  CHG 1   3  -1
M  CHG 1   6  -1
M  CHG 1  10  -1
M  CHG 1  15  -1
M  END
> <UniqueID>
82

> <SMILES>
CN([O-])C(=O)c1[n-]c(=O)[n-]c1CCC[N-]C(=O)c1ccccc1

> <Energy>
63.871244342930325

> <Genealogy>
CN([O-])C(=O)c1[n-]c(=O)[n-]c1CCC[N-]C(=O)c1ccccc1 (protonated)
CN([O-])C(=O)c1[n-]c(=O)[n-]c1CCC[N-]C(=O)c1ccccc1 (3D coordinates assigned)
CN([O-])C(=O)c1[n-]c(=O)[n-]c1CCC[N-]C(=O)c1ccccc1 (optimized conformer: 63.871244342930325 kcal/mol)

> <smiles>
CN(O)C(=O)c1[nH]c(=O)[nH]c1CCCNC(=O)c1ccccc1

> <score_type>
oracle

> <origin>
adg

> <m_score__min__energy>
-14.859999999999999

> <m_primary>
energy

> <minimizedAffinity>
-7.10292

> <minimizedRMSD>
1.14872

> <CNNscore>
0.4005476832

> <CNNaffinity>
6.1535162926

> <CNN_VS>
2.4647767544

> <CNNaffinity_variance>
0.2863532007

$$$$
67:0


 35 38  0  0  0  0  0  0  0  0999 V2000
   59.0718   31.2735   51.9875 C   0  0  0  0  0  0  0  0  0  0  0  0
   59.6570   30.7567   50.8230 C   0  0  0  0  0  0  0  0  0  0  0  0
   60.2458   31.6118   49.8780 C   0  0  0  0  0  0  0  0  0  0  0  0
   60.2090   32.9995   50.0866 C   0  0  0  0  0  0  0  0  0  0  0  0
   59.6040   33.5213   51.2330 C   0  0  0  0  0  0  0  0  0  0  0  0
   59.0322   32.6665   52.1792 C   0  0  0  0  0  0  0  0  0  0  0  0
   58.3938   33.2031   53.2503 F   0  0  0  0  0  0  0  0  0  0  0  0
   57.1786   29.7714   52.7272 C   0  0  0  0  0  0  0  0  0  0  0  0
   56.4207   30.1752   51.8025 O   0  0  0  0  0  0  0  0  0  0  0  0
   58.4667   30.3727   52.9274 N   0  0  0  0  0  0  0  0  0  0  0  0
   58.9603   30.1564   53.7513 H   0  0  0  0  0  0  0  0  0  0  0  0
   56.7337   28.6447   53.6050 C   0  0  0  0  0  0  0  0  0  0  0  0
   53.0751   29.3733   52.8177 C   0  0  0  0  0  0  0  0  0  0  0  0
   52.4366   28.3328   53.5061 C   0  0  0  0  0  0  0  0  0  0  0  0
   53.1898   27.4063   54.2338 C   0  0  0  0  0  0  0  0  0  0  0  0
   54.5813   27.5143   54.2798 C   0  0  0  0  0  0  0  0  0  0  0  0
   55.2320   28.5567   53.5998 C   0  0  0  0  0  0  0  0  0  0  0  0
   54.4719   29.4771   52.8590 C   0  0  0  0  0  0  0  0  0  0  0  0
   50.7168   30.9784   52.7576 N   0  0  0  0  0  0  0  0  0  0  0  0
   52.1378   30.5319   51.8814 S   0  0  0  0  0  0  0  0  0  0  0  0
   51.7245   29.9225   50.5709 O   0  0  0  0  0  0  0  0  0  0  0  0
   52.9706   31.7545   51.6209 O   0  0  0  0  0  0  0  0  0  0  0  0
   50.1772   31.6496   52.2110 H   0  0  0  0  0  0  0  0  0  0  0  0
   60.8544   31.0452   48.6197 C   0  0  0  0  0  0  0  0  0  0  0  0
   59.8205   30.7245   47.5634 C   0  0  0  0  0  0  0  0  0  0  0  0
   59.2905   29.4712   47.4977 N   0  0  0  0  0  0  0  0  0  0  0  0
   58.3894   29.1289   46.5771 N   0  0  0  0  0  0  0  0  0  0  0  0
   57.9495   30.0136   45.6497 C   0  0  0  0  0  0  0  0  0  0  0  0
   57.1156   29.6379   44.7823 O   0  0  0  0  0  0  0  0  0  0  0  0
   58.4297   31.3300   45.6691 C   0  0  0  0  0  0  0  0  0  0  0  0
   59.3699   31.6997   46.6437 C   0  0  0  0  0  0  0  0  0  0  0  0
   59.8894   33.1199   46.6154 C   0  0  0  0  0  0  0  0  0  0  0  0
   58.7380   34.1164   46.4006 C   0  0  0  0  0  0  0  0  0  0  0  0
   57.7433   33.7168   45.2799 C   0  0  0  0  0  0  0  0  0  0  0  0
   58.0247   32.3507   44.6325 C   0  0  0  0  0  0  0  0  0  0  0  0
 19 20  1  0
 20 21  2  0
 20 22  2  0
 20 13  1  0
 13 14  2  0
 14 15  1  0
 15 16  2  0
 16 17  1  0
 17 12  1  0
 12  8  1  0
  8  9  2  0
  8 10  1  0
 10  1  1  0
  1  2  2  0
  2  3  1  0
  3 24  1  0
 24 25  1  0
 25 26  2  0
 26 27  1  0
 27 28  1  0
 28 29  2  0
 28 30  1  0
 30 31  2  0
 31 32  1  0
 32 33  1  0
 33 34  1  0
 34 35  1  0
  3  4  2  0
  4  5  1  0
  5  6  2  0
  6  7  1  0
 17 18  2  0
 18 13  1  0
  6  1  1  0
 31 25  1  0
 35 30  1  0
 19 23  1  0
 10 11  1  0
M  CHG 1  19  -1
M  CHG 1  27  -1
M  END
> <UniqueID>
58

> <SMILES>
[NH-]S(=O)(=O)c1cccc(CC(=O)Nc2cc(Cc3n[n-]c(=O)c4c3CCCC4)ccc2F)c1

> <Energy>
68.21090655667706

> <Genealogy>
[NH-]S(=O)(=O)c1cccc(CC(=O)Nc2cc(Cc3n[n-]c(=O)c4c3CCCC4)ccc2F)c1 (protonated)
[NH-]S(=O)(=O)c1cccc(CC(=O)Nc2cc(Cc3n[n-]c(=O)c4c3CCCC4)ccc2F)c1 (3D coordinates assigned)
[NH-]S(=O)(=O)c1cccc(CC(=O)Nc2cc(Cc3n[n-]c(=O)c4c3CCCC4)ccc2F)c1 (nonaromatic ring conformer: 68.21090655667706 kcal/mol)

> <smiles>
NS(=O)(=O)c1cccc(CC(=O)Nc2cc(Cc3n[nH]c(=O)c4c3CCCC4)ccc2F)c1

> <score_type>
oracle

> <origin>
adg

> <m_score__min__energy>
-14.27

> <m_primary>
energy

> <minimizedAffinity>
-8.67087

> <minimizedRMSD>
1.43459

> <CNNscore>
0.3454841077

> <CNNaffinity>
6.7312693596

> <CNN_VS>
2.3255465031

> <CNNaffinity_variance>
0.0652650073

$$$$
75:0


 30 32  0  0  0  0  0  0  0  0999 V2000
   60.2463   32.0742   49.9988 C   0  0  0  0  0  0  0  0  0  0  0  0
   59.9991   30.6981   50.1144 C   0  0  0  0  0  0  0  0  0  0  0  0
   59.5450   30.1604   51.3225 C   0  0  0  0  0  0  0  0  0  0  0  0
   59.3070   30.9994   52.4253 C   0  0  0  0  0  0  0  0  0  0  0  0
   59.5592   32.3711   52.3084 C   0  0  0  0  0  0  0  0  0  0  0  0
   60.0127   32.9100   51.1007 C   0  0  0  0  0  0  0  0  0  0  0  0
   59.9665   32.9671   47.6547 N   0  0  0  0  0  0  0  0  0  0  0  0
   60.7432   33.4646   46.7049 N   0  0  0  0  0  0  0  0  0  0  0  0
   62.0122   33.4556   47.1571 C   0  0  0  0  0  0  0  0  0  0  0  0
   62.0448   32.9431   48.4381 C   0  0  0  0  0  0  0  0  0  0  0  0
   60.7297   32.6303   48.7209 C   0  0  0  0  0  0  0  0  0  0  0  0
   58.5081   32.9118   47.5390 C   0  0  0  0  0  0  0  0  0  0  0  0
   58.0950   32.2234   46.2655 C   0  0  0  0  0  0  0  0  0  0  0  0
   57.1964   32.7413   45.5511 O   0  0  0  0  0  0  0  0  0  0  0  0
   58.6063   29.7318   46.5274 C   0  0  0  0  0  0  0  0  0  0  0  0
   58.7049   31.0042   45.8282 N   0  0  0  0  0  0  0  0  0  0  0  0
   58.8753   30.4905   53.6937 N   0  0  0  0  0  0  0  0  0  0  0  0
   57.7824   29.5977   53.9487 C   0  0  0  0  0  0  0  0  0  0  0  0
   57.8706   28.3828   53.6291 O   0  0  0  0  0  0  0  0  0  0  0  0
   56.5140   30.0834   54.5357 C   0  0  0  0  0  0  0  0  0  0  0  0
   55.3058   29.5208   54.3723 C   0  0  0  0  0  0  0  0  0  0  0  0
   54.2403   30.0768   53.5257 C   0  0  0  0  0  0  0  0  0  0  0  0
   54.5135   30.4391   52.2005 C   0  0  0  0  0  0  0  0  0  0  0  0
   53.4923   30.9319   51.3841 C   0  0  0  0  0  0  0  0  0  0  0  0
   52.1941   31.0699   51.8876 C   0  0  0  0  0  0  0  0  0  0  0  0
   51.1857   31.5523   51.0601 O   0  0  0  0  0  0  0  0  0  0  0  0
   51.9165   30.7179   53.2202 C   0  0  0  0  0  0  0  0  0  0  0  0
   50.6315   30.8463   53.7472 O   0  0  0  0  0  0  0  0  0  0  0  0
   52.9436   30.2299   54.0372 C   0  0  0  0  0  0  0  0  0  0  0  0
   49.9355   31.1715   53.2108 H   0  0  0  0  0  0  0  0  0  0  0  0
 15 16  1  0
 16 13  1  0
 13 14  2  0
 13 12  1  0
 12  7  1  0
  7  8  1  0
  8  9  2  0
  9 10  1  0
 10 11  2  0
 11  1  1  0
  1  2  2  0
  2  3  1  0
  3  4  2  0
  4 17  1  0
 17 18  1  0
 18 19  2  0
 18 20  1  0
 20 21  2  0
 21 22  1  0
 22 23  2  0
 23 24  1  0
 24 25  2  0
 25 26  1  0
 25 27  1  0
 27 28  1  0
 27 29  2  0
  4  5  1  0
  5  6  2  0
 11  7  1  0
  6  1  1  0
 29 22  1  0
 28 30  1  0
M  CHG 1  16  -1
M  CHG 1  17  -1
M  CHG 1  26  -1
M  END
> <UniqueID>
65

> <SMILES>
C[N-]C(=O)Cn1nccc1-c1ccc([N-]C(=O)C=Cc2ccc([O-])c(O)c2)cc1

> <Energy>
91.20643885169439

> <Genealogy>
C[N-]C(=O)Cn1nccc1-c1ccc([N-]C(=O)C=Cc2ccc([O-])c(O)c2)cc1 (protonated)
C[N-]C(=O)Cn1nccc1-c1ccc([N-]C(=O)C=Cc2ccc([O-])c(O)c2)cc1 (3D coordinates assigned)
C[N-]C(=O)Cn1nccc1-c1ccc([N-]C(=O)C=Cc2ccc([O-])c(O)c2)cc1 (optimized conformer: 91.20643885169439 kcal/mol)

> <smiles>
CNC(=O)Cn1nccc1-c1ccc(NC(=O)C=Cc2ccc(O)c(O)c2)cc1

> <score_type>
oracle

> <origin>
adg

> <m_score__min__energy>
-14.65

> <m_primary>
energy

> <minimizedAffinity>
-6.20703

> <minimizedRMSD>
1.59893

> <CNNscore>
0.1511262506

> <CNNaffinity>
5.8085684776

> <CNN_VS>
0.8778271675

> <CNNaffinity_variance>
0.0346390978

$$$$
7:0


 34 37  0  0  0  0  0  0  0  0999 V2000
   60.8968   33.3795   49.2117 C   0  0  0  0  0  0  0  0  0  0  0  0
   59.5682   32.9357   49.2696 C   0  0  0  0  0  0  0  0  0  0  0  0
   58.7666   32.9710   48.1239 C   0  0  0  0  0  0  0  0  0  0  0  0
   59.2786   33.4557   46.9081 C   0  0  0  0  0  0  0  0  0  0  0  0
   60.6169   33.8848   46.8565 C   0  0  0  0  0  0  0  0  0  0  0  0
   61.4139   33.8598   48.0036 C   0  0  0  0  0  0  0  0  0  0  0  0
   61.9168   33.3352   50.6458 S   0  0  0  0  0  0  0  0  0  0  0  0
   62.8861   34.4808   50.5589 O   0  0  0  0  0  0  0  0  0  0  0  0
   61.0891   33.4915   51.8899 O   0  0  0  0  0  0  0  0  0  0  0  0
   66.4063   32.7579   50.4846 C   0  0  0  0  0  0  0  0  0  0  0  0
   67.0112   31.6438   51.0646 C   0  0  0  0  0  0  0  0  0  0  0  0
   66.2271   30.5793   51.5151 C   0  0  0  0  0  0  0  0  0  0  0  0
   64.8278   30.6284   51.4054 C   0  0  0  0  0  0  0  0  0  0  0  0
   64.2087   31.7565   50.8172 C   0  0  0  0  0  0  0  0  0  0  0  0
   65.0175   32.8155   50.3530 C   0  0  0  0  0  0  0  0  0  0  0  0
   62.7664   31.8112   50.7197 N   0  0  0  0  0  0  0  0  0  0  0  0
   62.0077   30.5615   50.8486 C   0  0  0  0  0  0  0  0  0  0  0  0
   62.5340   29.7685   52.0424 C   0  0  0  0  0  0  0  0  0  0  0  0
   64.0165   29.4318   51.8442 C   0  0  0  0  0  0  0  0  0  0  0  0
   58.4266   33.4725   45.6935 C   0  0  0  0  0  0  0  0  0  0  0  0
   57.4947   34.3174   45.6029 O   0  0  0  0  0  0  0  0  0  0  0  0
   58.5984   32.5272   44.6281 N   0  0  0  0  0  0  0  0  0  0  0  0
   58.1956   31.2915   44.6532 C   0  0  0  0  0  0  0  0  0  0  0  0
   56.9055   30.9107   44.5079 N   0  0  0  0  0  0  0  0  0  0  0  0
   56.7768   29.5625   44.6056 C   0  0  0  0  0  0  0  0  0  0  0  0
   55.5444   28.9334   44.4807 O   0  0  0  0  0  0  0  0  0  0  0  0
   57.9632   28.8677   44.8347 C   0  0  0  0  0  0  0  0  0  0  0  0
   59.2223   29.9870   44.9194 S   0  0  0  0  0  0  0  0  0  0  0  0
   58.1133   27.3853   44.9738 C   0  0  0  0  0  0  0  0  0  0  0  0
   57.4133   26.9006   46.2074 C   0  0  0  0  0  0  0  0  0  0  0  0
   57.9420   27.0795   47.3371 O   0  0  0  0  0  0  0  0  0  0  0  0
   56.1417   26.2599   46.1150 N   0  0  0  0  0  0  0  0  0  0  0  0
   55.7248   26.1180   45.2345 H   0  0  0  0  0  0  0  0  0  0  0  0
   55.6813   25.9598   46.9318 H   0  0  0  0  0  0  0  0  0  0  0  0
 10 11  2  0
 11 12  1  0
 12 13  2  0
 13 14  1  0
 14 15  2  0
 14 16  1  0
 16  7  1  0
  7  8  2  0
  7  9  2  0
  7  1  1  0
  1  2  2  0
  2  3  1  0
  3  4  2  0
  4 20  1  0
 20 21  2  0
 20 22  1  0
 22 23  2  0
 23 24  1  0
 24 25  1  0
 25 26  1  0
 25 27  2  0
 27 29  1  0
 29 30  1  0
 30 31  2  0
 30 32  1  0
 27 28  1  0
  4  5  1  0
  5  6  2  0
 16 17  1  0
 17 18  1  0
 18 19  1  0
 15 10  1  0
  6  1  1  0
 19 13  1  0
 28 23  1  0
 32 33  1  0
 32 34  1  0
M  CHG 1  24  -1
M  CHG 1  26  -1
M  END
> <UniqueID>
7

> <SMILES>
NC(=O)Cc1s/c(=N/C(=O)c2ccc(S(=O)(=O)N3CCCc4ccccc43)cc2)[n-]c1[O-]

> <Energy>
90.60205501203048

> <Genealogy>
NC(=O)Cc1sc(=NC(=O)c2ccc(S(=O)(=O)N3CCCc4ccccc43)cc2)[n-]c1[O-] (protonated)
NC(=O)Cc1s/c(=N/C(=O)c2ccc(S(=O)(=O)N3CCCc4ccccc43)cc2)[n-]c1[O-] (cis-trans isomerization)
NC(=O)Cc1s/c(=N/C(=O)c2ccc(S(=O)(=O)N3CCCc4ccccc43)cc2)[n-]c1[O-] (3D coordinates assigned)
NC(=O)Cc1s/c(=N/C(=O)c2ccc(S(=O)(=O)N3CCCc4ccccc43)cc2)[n-]c1[O-] (nonaromatic ring conformer: 90.60205501203048 kcal/mol)

> <smiles>
NC(=O)Cc1sc(=NC(=O)c2ccc(S(=O)(=O)N3CCCc4ccccc43)cc2)[nH]c1O

> <score_type>
oracle

> <origin>
adg

> <m_score__min__energy>
-15.279999999999999

> <m_primary>
energy

> <minimizedAffinity>
-7.93718

> <minimizedRMSD>
0.77244

> <CNNscore>
0.3887799680

> <CNNaffinity>
6.7024917603

> <CNN_VS>
2.6057944298

> <CNNaffinity_variance>
0.1627264470

$$$$
28:0


 24 25  0  0  0  0  0  0  0  0999 V2000
   61.4378   32.8214   47.7054 C   0  0  0  0  0  0  0  0  0  0  0  0
   60.8840   31.5986   48.1001 C   0  0  0  0  0  0  0  0  0  0  0  0
   59.6573   31.1780   47.5775 C   0  0  0  0  0  0  0  0  0  0  0  0
   58.9567   31.9881   46.6651 C   0  0  0  0  0  0  0  0  0  0  0  0
   59.5291   33.2040   46.2518 C   0  0  0  0  0  0  0  0  0  0  0  0
   58.7251   34.2243   45.0696 Cl  0  0  0  0  0  0  0  0  0  0  0  0
   60.7567   33.6198   46.7797 C   0  0  0  0  0  0  0  0  0  0  0  0
   63.7932   32.0273   49.1129 N   0  0  0  0  0  0  0  0  0  0  0  0
   62.9781   33.3572   48.3679 S   0  0  0  0  0  0  0  0  0  0  0  0
   62.7487   34.4234   49.4043 O   0  0  0  0  0  0  0  0  0  0  0  0
   63.8316   33.9113   47.2626 O   0  0  0  0  0  0  0  0  0  0  0  0
   64.6842   32.3451   49.4942 H   0  0  0  0  0  0  0  0  0  0  0  0
   57.7012   31.5769   46.0952 N   0  0  0  0  0  0  0  0  0  0  0  0
   57.4982   30.6123   45.0520 C   0  0  0  0  0  0  0  0  0  0  0  0
   56.3499   30.1479   44.8215 O   0  0  0  0  0  0  0  0  0  0  0  0
   58.6334   30.1241   44.2492 C   0  0  0  0  0  0  0  0  0  0  0  0
   59.3624   29.0337   44.5254 C   0  0  0  0  0  0  0  0  0  0  0  0
   58.9885   27.9782   45.4900 C   0  0  0  0  0  0  0  0  0  0  0  0
   59.8510   27.6875   46.5583 C   0  0  0  0  0  0  0  0  0  0  0  0
   59.4866   26.7393   47.5200 C   0  0  0  0  0  0  0  0  0  0  0  0
   58.2506   26.0935   47.4360 C   0  0  0  0  0  0  0  0  0  0  0  0
   57.3719   26.3983   46.3911 C   0  0  0  0  0  0  0  0  0  0  0  0
   56.1378   25.7655   46.3141 O   0  0  0  0  0  0  0  0  0  0  0  0
   57.7366   27.3412   45.4219 C   0  0  0  0  0  0  0  0  0  0  0  0
  8  9  1  0
  9 10  2  0
  9 11  2  0
  9  1  1  0
  1  2  2  0
  2  3  1  0
  3  4  2  0
  4 13  1  0
 13 14  1  0
 14 15  2  0
 14 16  1  0
 16 17  2  0
 17 18  1  0
 18 19  2  0
 19 20  1  0
 20 21  2  0
 21 22  1  0
 22 23  1  0
 22 24  2  0
  4  5  1  0
  5  6  1  0
  5  7  2  0
  7  1  1  0
 24 18  1  0
  8 12  1  0
M  CHG 1   8  -1
M  CHG 1  13  -1
M  CHG 1  23  -1
M  END
> <UniqueID>
26

> <SMILES>
[NH-]S(=O)(=O)c1ccc([N-]C(=O)C=Cc2cccc([O-])c2)c(Cl)c1

> <Energy>
44.11574582373333

> <Genealogy>
[NH-]S(=O)(=O)c1ccc([N-]C(=O)C=Cc2cccc([O-])c2)c(Cl)c1 (protonated)
[NH-]S(=O)(=O)c1ccc([N-]C(=O)C=Cc2cccc([O-])c2)c(Cl)c1 (3D coordinates assigned)
[NH-]S(=O)(=O)c1ccc([N-]C(=O)C=Cc2cccc([O-])c2)c(Cl)c1 (optimized conformer: 44.11574582373333 kcal/mol)

> <smiles>
NS(=O)(=O)c1ccc(NC(=O)C=Cc2cccc(O)c2)c(Cl)c1

> <score_type>
oracle

> <origin>
adg

> <m_score__min__energy>
-14.380000000000001

> <m_primary>
energy

> <minimizedAffinity>
-7.39835

> <minimizedRMSD>
0.80694

> <CNNscore>
0.7609457374

> <CNNaffinity>
6.7634334564

> <CNN_VS>
5.1466059685

> <CNNaffinity_variance>
0.2726244330

$$$$
6:0


 29 31  0  0  0  0  0  0  0  0999 V2000
   58.3891   32.4801   45.5687 C   0  0  0  0  0  0  0  0  0  0  0  0
   58.5647   33.5179   44.6286 C   0  0  0  0  0  0  0  0  0  0  0  0
   59.0750   34.7560   45.0157 C   0  0  0  0  0  0  0  0  0  0  0  0
   59.4203   34.9847   46.3448 C   0  0  0  0  0  0  0  0  0  0  0  0
   59.2543   33.9770   47.2948 C   0  0  0  0  0  0  0  0  0  0  0  0
   58.7388   32.7192   46.9251 C   0  0  0  0  0  0  0  0  0  0  0  0
   57.8483   31.1714   45.1043 C   0  0  0  0  0  0  0  0  0  0  0  0
   56.6087   31.0107   44.9423 O   0  0  0  0  0  0  0  0  0  0  0  0
   58.7481   30.0964   44.7981 N   0  0  0  0  0  0  0  0  0  0  0  0
   58.1276   26.6762   46.2416 C   0  0  0  0  0  0  0  0  0  0  0  0
   59.2587   26.5424   47.0575 C   0  0  0  0  0  0  0  0  0  0  0  0
   60.2005   27.5721   47.1231 C   0  0  0  0  0  0  0  0  0  0  0  0
   60.0220   28.7357   46.3710 C   0  0  0  0  0  0  0  0  0  0  0  0
   58.9055   28.8756   45.5363 C   0  0  0  0  0  0  0  0  0  0  0  0
   57.9445   27.8485   45.4945 C   0  0  0  0  0  0  0  0  0  0  0  0
   55.3459   26.0936   46.0850 N   0  0  0  0  0  0  0  0  0  0  0  0
   56.9226   25.3940   46.1907 S   0  0  0  0  0  0  0  0  0  0  0  0
   57.1630   24.5133   44.9960 O   0  0  0  0  0  0  0  0  0  0  0  0
   57.0194   24.5557   47.4354 O   0  0  0  0  0  0  0  0  0  0  0  0
   54.6462   25.3520   46.0554 H   0  0  0  0  0  0  0  0  0  0  0  0
   58.5556   31.6866   47.9067 N   0  0  0  0  0  0  0  0  0  0  0  0
   59.4788   31.4885   49.3597 S   0  0  0  0  0  0  0  0  0  0  0  0
   59.5984   30.0253   49.6818 O   0  0  0  0  0  0  0  0  0  0  0  0
   58.8166   32.2129   50.4990 O   0  0  0  0  0  0  0  0  0  0  0  0
   61.0780   32.1570   49.1054 C   0  0  0  0  0  0  0  0  0  0  0  0
   61.6448   33.1906   49.8336 C   0  0  0  0  0  0  0  0  0  0  0  0
   62.9398   33.5097   49.4083 C   0  0  0  0  0  0  0  0  0  0  0  0
   63.3869   32.7307   48.3488 C   0  0  0  0  0  0  0  0  0  0  0  0
   62.1720   31.6394   47.9411 S   0  0  0  0  0  0  0  0  0  0  0  0
 16 17  1  0
 17 18  2  0
 17 19  2  0
 17 10  1  0
 10 11  2  0
 11 12  1  0
 12 13  2  0
 13 14  1  0
 14  9  1  0
  9  7  1  0
  7  8  2  0
  7  1  1  0
  1  2  2  0
  2  3  1  0
  3  4  2  0
  4  5  1  0
  5  6  2  0
  6 21  1  0
 21 22  1  0
 22 23  2  0
 22 24  2  0
 22 25  1  0
 25 26  2  0
 26 27  1  0
 27 28  2  0
 28 29  1  0
 14 15  2  0
 15 10  1  0
  6  1  1  0
 29 25  1  0
 16 20  1  0
M  CHG 1   9  -1
M  CHG 1  16  -1
M  CHG 1  21  -1
M  END
> <UniqueID>
6

> <SMILES>
[NH-]S(=O)(=O)c1cccc([N-]C(=O)c2ccccc2[N-]S(=O)(=O)c2cccs2)c1

> <Energy>
79.28327661483671

> <Genealogy>
[NH-]S(=O)(=O)c1cccc([N-]C(=O)c2ccccc2[N-]S(=O)(=O)c2cccs2)c1 (protonated)
[NH-]S(=O)(=O)c1cccc([N-]C(=O)c2ccccc2[N-]S(=O)(=O)c2cccs2)c1 (3D coordinates assigned)
[NH-]S(=O)(=O)c1cccc([N-]C(=O)c2ccccc2[N-]S(=O)(=O)c2cccs2)c1 (optimized conformer: 79.28327661483671 kcal/mol)

> <smiles>
NS(=O)(=O)c1cccc(NC(=O)c2ccccc2NS(=O)(=O)c2cccs2)c1

> <score_type>
oracle

> <origin>
adg

> <m_score__min__energy>
-14.35

> <m_primary>
energy

> <minimizedAffinity>
-8.87435

> <minimizedRMSD>
0.56135

> <CNNscore>
0.9762377143

> <CNNaffinity>
7.5419692993

> <CNN_VS>
7.3627548218

> <CNNaffinity_variance>
0.0535288118

$$$$
86:0


 34 37  0  0  0  0  0  0  0  0999 V2000
   57.8527   30.7309   45.8123 N   0  0  0  0  0  0  0  0  0  0  0  0
   58.3206   29.6382   46.3427 C   0  0  0  0  0  0  0  0  0  0  0  0
   57.8210   28.4426   45.9436 N   0  0  0  0  0  0  0  0  0  0  0  0
   58.2530   27.2869   46.5172 C   0  0  0  0  0  0  0  0  0  0  0  0
   57.7798   26.1360   46.1418 N   0  0  0  0  0  0  0  0  0  0  0  0
   59.1839   27.3360   47.5032 N   0  0  0  0  0  0  0  0  0  0  0  0
   59.6929   28.5252   47.9104 C   0  0  0  0  0  0  0  0  0  0  0  0
   60.5501   28.5473   48.8888 N   0  0  0  0  0  0  0  0  0  0  0  0
   59.2545   29.6752   47.3316 N   0  0  0  0  0  0  0  0  0  0  0  0
   59.8067   34.4952   45.8196 C   0  0  0  0  0  0  0  0  0  0  0  0
   58.7505   34.2685   44.9333 C   0  0  0  0  0  0  0  0  0  0  0  0
   58.0981   33.0321   44.9240 C   0  0  0  0  0  0  0  0  0  0  0  0
   58.5158   32.0048   45.7877 C   0  0  0  0  0  0  0  0  0  0  0  0
   59.5541   32.2492   46.6966 C   0  0  0  0  0  0  0  0  0  0  0  0
   60.2039   33.4882   46.7058 C   0  0  0  0  0  0  0  0  0  0  0  0
   60.4574   29.3672   50.0648 C   0  0  0  0  0  0  0  0  0  0  0  0
   61.6050   29.8959   50.6792 C   0  0  0  0  0  0  0  0  0  0  0  0
   61.4892   30.6851   51.8257 C   0  0  0  0  0  0  0  0  0  0  0  0
   60.2317   30.9309   52.3811 C   0  0  0  0  0  0  0  0  0  0  0  0
   59.0843   30.3718   51.8027 C   0  0  0  0  0  0  0  0  0  0  0  0
   59.2026   29.5864   50.6478 C   0  0  0  0  0  0  0  0  0  0  0  0
   57.4999   30.6835   52.5051 S   0  0  0  0  0  0  0  0  0  0  0  0
   56.4830   29.7538   51.9049 O   0  0  0  0  0  0  0  0  0  0  0  0
   57.5490   30.4493   53.9888 O   0  0  0  0  0  0  0  0  0  0  0  0
   57.0465   32.3221   52.1938 N   0  0  0  0  0  0  0  0  0  0  0  0
   57.0134   32.4802   51.1866 H   0  0  0  0  0  0  0  0  0  0  0  0
   57.7314   32.9502   52.6142 H   0  0  0  0  0  0  0  0  0  0  0  0
   58.5672   24.9114   46.0124 C   0  0  0  0  0  0  0  0  0  0  0  0
   57.8872   23.9384   45.0866 C   0  0  0  0  0  0  0  0  0  0  0  0
   58.3538   22.6170   44.9892 C   0  0  0  0  0  0  0  0  0  0  0  0
   57.7105   21.7036   44.1497 C   0  0  0  0  0  0  0  0  0  0  0  0
   56.5975   22.0996   43.4025 C   0  0  0  0  0  0  0  0  0  0  0  0
   56.1262   23.4122   43.4958 C   0  0  0  0  0  0  0  0  0  0  0  0
   56.7665   24.3296   44.3346 C   0  0  0  0  0  0  0  0  0  0  0  0
 10 11  2  0
 11 12  1  0
 12 13  2  0
 13  1  1  0
  1  2  2  0
  2  3  1  0
  3  4  1  0
  4  5  2  0
  5 28  1  0
 28 29  1  0
 29 30  2  0
 30 31  1  0
 31 32  2  0
 32 33  1  0
 33 34  2  0
  4  6  1  0
  6  7  1  0
  7  8  2  0
  8 16  1  0
 16 17  2  0
 17 18  1  0
 18 19  2  0
 19 20  1  0
 20 22  1  0
 22 23  2  0
 22 24  2  0
 22 25  1  0
 20 21  2  0
  7  9  1  0
 13 14  1  0
 14 15  2  0
 15 10  1  0
  9  2  1  0
 34 29  1  0
 21 16  1  0
 25 26  1  0
 25 27  1  0
M  CHG 1   3  -1
M  CHG 1   6  -1
M  CHG 1   9  -1
M  END
> <UniqueID>
76

> <SMILES>
NS(=O)(=O)c1cccc(/N=c2/[n-]c(=NCc3ccccc3)[n-]c(=Nc3ccccc3)[n-]2)c1

> <Energy>
64.64021683507713

> <Genealogy>
NS(=O)(=O)c1cccc(N=c2[n-]c(=NCc3ccccc3)[n-]c(=Nc3ccccc3)[n-]2)c1 (protonated)
NS(=O)(=O)c1cccc(/N=c2/[n-]c(=NCc3ccccc3)[n-]c(=Nc3ccccc3)[n-]2)c1 (cis-trans isomerization)
NS(=O)(=O)c1cccc(/N=c2/[n-]c(=NCc3ccccc3)[n-]c(=Nc3ccccc3)[n-]2)c1 (3D coordinates assigned)
NS(=O)(=O)c1cccc(/N=c2/[n-]c(=NCc3ccccc3)[n-]c(=Nc3ccccc3)[n-]2)c1 (optimized conformer: 64.64021683507713 kcal/mol)

> <smiles>
NS(=O)(=O)c1cccc(N=c2[nH]c(=NCc3ccccc3)[nH]c(=Nc3ccccc3)[nH]2)c1

> <score_type>
oracle

> <origin>
adg

> <m_score__min__energy>
-14.73

> <m_primary>
energy

> <minimizedAffinity>
-9.98804

> <minimizedRMSD>
2.28559

> <CNNscore>
0.3806204498

> <CNNaffinity>
6.5564360619

> <CNN_VS>
2.4955136776

> <CNNaffinity_variance>
0.0503779985

$$$$
4:0


 28 30  0  0  0  0  0  0  0  0999 V2000
   59.9835   30.9828   49.2302 N   0  0  0  0  0  0  0  0  0  0  0  0
   60.6605   30.1639   48.2746 C   0  0  0  0  0  0  0  0  0  0  0  0
   61.6386   30.6235   47.6244 O   0  0  0  0  0  0  0  0  0  0  0  0
   60.2642   28.8027   48.0730 N   0  0  0  0  0  0  0  0  0  0  0  0
   57.7654   28.6795   45.2516 C   0  0  0  0  0  0  0  0  0  0  0  0
   57.8288   27.3093   44.9372 C   0  0  0  0  0  0  0  0  0  0  0  0
   58.6977   26.4647   45.6301 C   0  0  0  0  0  0  0  0  0  0  0  0
   59.5001   26.9688   46.6553 C   0  0  0  0  0  0  0  0  0  0  0  0
   59.4317   28.3218   47.0071 C   0  0  0  0  0  0  0  0  0  0  0  0
   58.5857   29.1799   46.2800 C   0  0  0  0  0  0  0  0  0  0  0  0
   55.4360   29.4604   44.6591 N   0  0  0  0  0  0  0  0  0  0  0  0
   56.8503   29.5822   44.5137 C   0  0  0  0  0  0  0  0  0  0  0  0
   57.3134   30.4595   43.7338 O   0  0  0  0  0  0  0  0  0  0  0  0
   54.8364   30.0647   44.1646 H   0  0  0  0  0  0  0  0  0  0  0  0
   58.7140   31.6441   48.9727 C   0  0  0  0  0  0  0  0  0  0  0  0
   58.9079   32.6671   47.8810 C   0  0  0  0  0  0  0  0  0  0  0  0
   58.3556   32.4110   46.6133 C   0  0  0  0  0  0  0  0  0  0  0  0
   58.5565   33.3005   45.5562 C   0  0  0  0  0  0  0  0  0  0  0  0
   59.3210   34.4503   45.7458 C   0  0  0  0  0  0  0  0  0  0  0  0
   59.8922   34.7134   46.9914 C   0  0  0  0  0  0  0  0  0  0  0  0
   59.7064   33.8286   48.0685 C   0  0  0  0  0  0  0  0  0  0  0  0
   60.3352   34.1665   49.4051 C   0  0  0  0  0  0  0  0  0  0  0  0
   61.8060   34.2752   49.2895 N   0  0  0  0  0  0  0  0  0  0  0  0
   62.4869   33.8274   50.5278 C   0  0  0  0  0  0  0  0  0  0  0  0
   63.1120   32.4279   50.3700 C   0  0  0  0  0  0  0  0  0  0  0  0
   64.0670   32.3466   49.3201 O   0  0  0  0  0  0  0  0  0  0  0  0
   63.7963   33.2215   48.2328 C   0  0  0  0  0  0  0  0  0  0  0  0
   62.3091   33.5804   48.0803 C   0  0  0  0  0  0  0  0  0  0  0  0
 11 12  1  0
 12 13  2  0
 12  5  1  0
  5  6  2  0
  6  7  1  0
  7  8  2  0
  8  9  1  0
  9  4  1  0
  4  2  1  0
  2  3  2  0
  2  1  1  0
  1 15  1  0
 15 16  1  0
 16 17  2  0
 17 18  1  0
 18 19  2  0
 19 20  1  0
 20 21  2  0
 21 22  1  0
 22 23  1  0
 23 24  1  0
 24 25  1  0
 25 26  1  0
 26 27  1  0
 27 28  1  0
  9 10  2  0
 10  5  1  0
 21 16  1  0
 28 23  1  0
 11 14  1  0
M  CHG 1   1  -1
M  CHG 1   4  -1
M  CHG 1  11  -1
M  END
> <UniqueID>
4

> <SMILES>
[NH-]C(=O)c1cccc([N-]C(=O)[N-]Cc2ccccc2CN2CCOCC2)c1

> <Energy>
64.00678985130806

> <Genealogy>
[NH-]C(=O)c1cccc([N-]C(=O)[N-]Cc2ccccc2CN2CCOCC2)c1 (protonated)
[NH-]C(=O)c1cccc([N-]C(=O)[N-]Cc2ccccc2CN2CCOCC2)c1 (3D coordinates assigned)
[NH-]C(=O)c1cccc([N-]C(=O)[N-]Cc2ccccc2CN2CCOCC2)c1 (nonaromatic ring conformer: 64.00678985130806 kcal/mol)

> <smiles>
NC(=O)c1cccc(NC(=O)NCc2ccccc2CN2CCOCC2)c1

> <score_type>
oracle

> <origin>
adg

> <m_score__min__energy>
-14.06

> <m_primary>
energy

> <minimizedAffinity>
-7.90294

> <minimizedRMSD>
0.61595

> <CNNscore>
0.8657659292

> <CNNaffinity>
6.6122760773

> <CNN_VS>
5.7246832848

> <CNNaffinity_variance>
0.1966840476

$$$$
46:0


 31 35  0  0  0  0  0  0  0  0999 V2000
   58.1268   26.8480   45.1225 C   0  0  0  0  0  0  0  0  0  0  0  0
   57.8700   28.1616   45.1977 C   0  0  0  0  0  0  0  0  0  0  0  0
   56.8655   28.8412   44.5143 C   0  0  0  0  0  0  0  0  0  0  0  0
   56.8824   30.1528   44.8528 N   0  0  0  0  0  0  0  0  0  0  0  0
   57.8589   30.3156   45.7322 N   0  0  0  0  0  0  0  0  0  0  0  0
   58.2515   31.4523   46.3774 C   0  0  0  0  0  0  0  0  0  0  0  0
   57.7012   32.6165   46.1734 N   0  0  0  0  0  0  0  0  0  0  0  0
   59.2719   31.3548   47.2717 N   0  0  0  0  0  0  0  0  0  0  0  0
   59.8748   30.1513   47.5295 C   0  0  0  0  0  0  0  0  0  0  0  0
   60.8605   30.0587   48.3727 N   0  0  0  0  0  0  0  0  0  0  0  0
   59.4674   29.0350   46.8650 N   0  0  0  0  0  0  0  0  0  0  0  0
   58.4640   29.1470   45.9631 C   0  0  0  0  0  0  0  0  0  0  0  0
   55.1093   26.6108   45.8378 O   0  0  0  0  0  0  0  0  0  0  0  0
   56.1184   25.7503   46.2638 C   0  0  0  0  0  0  0  0  0  0  0  0
   55.9028   24.7178   47.0960 N   0  0  0  0  0  0  0  0  0  0  0  0
   57.1433   24.2167   47.2783 C   0  0  0  0  0  0  0  0  0  0  0  0
   57.3715   23.2226   48.0153 O   0  0  0  0  0  0  0  0  0  0  0  0
   58.1211   24.8688   46.6138 N   0  0  0  0  0  0  0  0  0  0  0  0
   57.4593   25.8312   45.9488 C   0  0  0  0  0  0  0  0  0  0  0  0
   54.2246   26.4668   46.1109 H   0  0  0  0  0  0  0  0  0  0  0  0
   61.8473   31.0655   48.6605 C   0  0  0  0  0  0  0  0  0  0  0  0
   62.4492   31.7386   47.5919 C   0  0  0  0  0  0  0  0  0  0  0  0
   63.4308   32.7042   47.8265 C   0  0  0  0  0  0  0  0  0  0  0  0
   63.8320   32.9911   49.1325 C   0  0  0  0  0  0  0  0  0  0  0  0
   63.2690   32.3070   50.2150 C   0  0  0  0  0  0  0  0  0  0  0  0
   62.2806   31.3308   49.9735 C   0  0  0  0  0  0  0  0  0  0  0  0
   63.7185   32.6188   51.5071 O   0  0  0  0  0  0  0  0  0  0  0  0
   63.3265   31.9227   52.6863 C   0  0  0  0  0  0  0  0  0  0  0  0
   58.3517   33.8013   45.6229 C   0  0  0  0  0  0  0  0  0  0  0  0
   59.8667   33.7733   45.7180 C   0  0  0  0  0  0  0  0  0  0  0  0
   59.0558   34.6218   46.6877 C   0  0  0  0  0  0  0  0  0  0  0  0
 13 14  1  0
 14 15  1  0
 15 16  1  0
 16 17  2  0
 16 18  1  0
 18 19  1  0
 19  1  1  0
  1  2  2  0
  2  3  1  0
  3  4  2  0
  4  5  1  0
  5  6  1  0
  6  7  2  0
  7 29  1  0
 29 30  1  0
 30 31  1  0
  6  8  1  0
  8  9  1  0
  9 10  2  0
 10 21  1  0
 21 22  2  0
 22 23  1  0
 23 24  2  0
 24 25  1  0
 25 27  1  0
 27 28  1  0
 25 26  2  0
  9 11  1  0
 11 12  2  0
 19 14  2  0
 12  2  1  0
 12  5  1  0
 31 29  1  0
 26 21  1  0
 13 20  1  0
M  CHG 1   8  -1
M  CHG 1  15  -1
M  CHG 1  18  -1
M  END
> <UniqueID>
43

> <SMILES>
COc1cccc(N=c2nc3c(=Cc4[n-]c(=O)[n-]c4O)cnn3/c(=N\C3CC3)[n-]2)c1

> <Energy>
397.27291700520254

> <Genealogy>
COc1cccc(N=c2nc3c(=Cc4[n-]c(=O)[n-]c4O)cnn3c(=NC3CC3)[n-]2)c1 (protonated)
COc1cccc(N=c2nc3c(=Cc4[n-]c(=O)[n-]c4O)cnn3/c(=N\C3CC3)[n-]2)c1 (cis-trans isomerization)
COc1cccc(N=c2nc3c(=Cc4[n-]c(=O)[n-]c4O)cnn3/c(=N\C3CC3)[n-]2)c1 (3D coordinates assigned)
COc1cccc(N=c2nc3c(=Cc4[n-]c(=O)[n-]c4O)cnn3/c(=N\C3CC3)[n-]2)c1 (nonaromatic ring conformer: 397.27291700520254 kcal/mol)

> <smiles>
COc1cccc(N=c2nc3c(=Cc4[nH]c(=O)[nH]c4O)cnn3c(=NC3CC3)[nH]2)c1

> <score_type>
oracle

> <origin>
adg

> <m_score__min__energy>
-14.73

> <m_primary>
energy

> <minimizedAffinity>
-9.10829

> <minimizedRMSD>
0.55066

> <CNNscore>
0.7102622986

> <CNNaffinity>
6.8835411072

> <CNN_VS>
4.8891196251

> <CNNaffinity_variance>
0.3154102266

$$$$
65:0


 33 36  0  0  0  0  0  0  0  0999 V2000
   61.2914   31.8667   52.2664 O   0  0  0  0  0  0  0  0  0  0  0  0
   61.8649   31.1501   51.4006 C   0  0  0  0  0  0  0  0  0  0  0  0
   61.1018   30.5777   50.3252 N   0  0  0  0  0  0  0  0  0  0  0  0
   61.6876   30.4660   48.9844 C   0  0  0  0  0  0  0  0  0  0  0  0
   60.5914   30.3011   47.9211 C   0  0  0  0  0  0  0  0  0  0  0  0
   59.6330   29.2045   48.2309 N   0  0  0  0  0  0  0  0  0  0  0  0
   59.3690   28.9915   49.6812 C   0  0  0  0  0  0  0  0  0  0  0  0
   59.6953   30.2235   50.5281 C   0  0  0  0  0  0  0  0  0  0  0  0
   59.7221   28.2435   48.4250 H   0  0  0  0  0  0  0  0  0  0  0  0
   63.3182   30.9203   51.5045 C   0  0  0  0  0  0  0  0  0  0  0  0
   63.7664   29.6413   51.8709 C   0  0  0  0  0  0  0  0  0  0  0  0
   65.1323   29.3832   52.0095 C   0  0  0  0  0  0  0  0  0  0  0  0
   66.0621   30.3959   51.7781 C   0  0  0  0  0  0  0  0  0  0  0  0
   65.6321   31.6677   51.3951 C   0  0  0  0  0  0  0  0  0  0  0  0
   64.2626   31.9444   51.2323 C   0  0  0  0  0  0  0  0  0  0  0  0
   63.8498   33.3240   50.7609 C   0  0  0  0  0  0  0  0  0  0  0  0
   63.7066   33.3721   49.3406 O   0  0  0  0  0  0  0  0  0  0  0  0
   62.5053   33.6057   48.6545 C   0  0  0  0  0  0  0  0  0  0  0  0
   62.5017   33.4620   47.2605 C   0  0  0  0  0  0  0  0  0  0  0  0
   61.3364   33.6933   46.5267 C   0  0  0  0  0  0  0  0  0  0  0  0
   60.1591   34.0682   47.1806 C   0  0  0  0  0  0  0  0  0  0  0  0
   60.1492   34.2088   48.5705 C   0  0  0  0  0  0  0  0  0  0  0  0
   61.3131   33.9781   49.3083 C   0  0  0  0  0  0  0  0  0  0  0  0
   60.0611   27.9652   47.6082 C   0  0  0  0  0  0  0  0  0  0  0  0
   60.4536   27.0348   48.3032 O   0  0  0  0  0  0  0  0  0  0  0  0
   60.0422   27.8324   46.1024 C   0  0  0  0  0  0  0  0  0  0  0  0
   58.9014   28.5755   45.4714 C   0  0  0  0  0  0  0  0  0  0  0  0
   59.0046   29.8029   44.9316 N   0  0  0  0  0  0  0  0  0  0  0  0
   57.7376   30.0830   44.5569 C   0  0  0  0  0  0  0  0  0  0  0  0
   57.4209   31.1641   43.9963 O   0  0  0  0  0  0  0  0  0  0  0  0
   56.8341   29.1175   44.8363 N   0  0  0  0  0  0  0  0  0  0  0  0
   57.5888   28.1730   45.4212 C   0  0  0  0  0  0  0  0  0  0  0  0
   57.0865   26.9700   45.9008 O   0  0  0  0  0  0  0  0  0  0  0  0
  1  2  2  0
  2 10  1  0
 10 11  2  0
 11 12  1  0
 12 13  2  0
 13 14  1  0
 14 15  2  0
 15 16  1  0
 16 17  1  0
 17 18  1  0
 18 19  2  0
 19 20  1  0
 20 21  2  0
 21 22  1  0
 22 23  2  0
  2  3  1  0
  3  4  1  0
  4  5  1  0
  5  6  1  0
  6 24  1  0
 24 25  2  0
 24 26  1  0
 26 27  1  0
 27 28  1  0
 28 29  1  0
 29 30  2  0
 29 31  1  0
 31 32  1  0
 32 33  1  0
  6  7  1  0
  7  8  1  0
 15 10  1  0
 23 18  1  0
  8  3  1  0
 32 27  2  0
  6  9  1  0
M  CHG 1   6   1
M  CHG 1  28  -1
M  CHG 1  31  -1
M  CHG 1  33  -1
M  END
> <UniqueID>
61

> <SMILES>
O=C(c1ccccc1COc1ccccc1)N1CC[NH+](C(=O)Cc2[n-]c(=O)[n-]c2[O-])CC1

> <Energy>
100.67576296351041

> <Genealogy>
O=C(c1ccccc1COc1ccccc1)N1CC[NH+](C(=O)Cc2[n-]c(=O)[n-]c2[O-])CC1 (protonated)
O=C(c1ccccc1COc1ccccc1)N1CC[NH+](C(=O)Cc2[n-]c(=O)[n-]c2[O-])CC1 (3D coordinates assigned)
O=C(c1ccccc1COc1ccccc1)N1CC[NH+](C(=O)Cc2[n-]c(=O)[n-]c2[O-])CC1 (nonaromatic ring conformer: 100.67576296351041 kcal/mol)

> <smiles>
O=C(Cc1[nH]c(=O)[nH]c1O)N1CCN(C(=O)c2ccccc2COc2ccccc2)CC1

> <score_type>
oracle

> <origin>
adg

> <m_score__min__energy>
-16.629999999999999

> <m_primary>
energy

> <minimizedAffinity>
-7.43817

> <minimizedRMSD>
0.99014

> <CNNscore>
0.3649462163

> <CNNaffinity>
6.3551344872

> <CNN_VS>
2.3192822933

> <CNNaffinity_variance>
0.0261411723

$$$$
90:0


 28 30  0  0  0  0  0  0  0  0999 V2000
   57.6532   27.5648   44.9420 N   0  0  0  0  0  0  0  0  0  0  0  0
   57.0679   26.8932   46.0635 C   0  0  0  0  0  0  0  0  0  0  0  0
   55.8291   26.6706   46.0972 O   0  0  0  0  0  0  0  0  0  0  0  0
   57.8851   26.4656   47.1542 N   0  0  0  0  0  0  0  0  0  0  0  0
   58.4691   25.1294   47.2280 C   0  0  0  0  0  0  0  0  0  0  0  0
   57.4306   24.0471   46.9578 C   0  0  0  0  0  0  0  0  0  0  0  0
   58.1725   23.6619   45.6751 C   0  0  0  0  0  0  0  0  0  0  0  0
   59.2103   24.7489   45.9491 C   0  0  0  0  0  0  0  0  0  0  0  0
   57.3672   23.9020   44.3860 C   0  0  0  0  0  0  0  0  0  0  0  0
   56.5012   22.6865   44.0384 C   0  0  0  0  0  0  0  0  0  0  0  0
   55.2775   22.6515   44.9009 C   0  0  0  0  0  0  0  0  0  0  0  0
   54.2342   23.5498   44.9082 C   0  0  0  0  0  0  0  0  0  0  0  0
   53.2953   23.1177   45.7707 N   0  0  0  0  0  0  0  0  0  0  0  0
   53.7027   21.9735   46.3014 N   0  0  0  0  0  0  0  0  0  0  0  0
   54.9049   21.6628   45.7830 C   0  0  0  0  0  0  0  0  0  0  0  0
   56.9272   28.4987   44.0895 C   0  0  0  0  0  0  0  0  0  0  0  0
   58.3786   32.5218   44.7149 C   0  0  0  0  0  0  0  0  0  0  0  0
   58.3472   31.6047   45.7821 C   0  0  0  0  0  0  0  0  0  0  0  0
   57.8709   30.3057   45.5821 C   0  0  0  0  0  0  0  0  0  0  0  0
   57.4173   29.9034   44.3175 C   0  0  0  0  0  0  0  0  0  0  0  0
   57.4559   30.8138   43.2523 C   0  0  0  0  0  0  0  0  0  0  0  0
   57.9317   32.1127   43.4501 C   0  0  0  0  0  0  0  0  0  0  0  0
   57.9602   32.9802   42.4059 F   0  0  0  0  0  0  0  0  0  0  0  0
   58.8602   33.8634   44.8744 N   0  0  0  0  0  0  0  0  0  0  0  0
   61.1054   33.6591   46.6684 C   0  0  0  0  0  0  0  0  0  0  0  0
   59.5907   34.5190   46.3036 S   0  0  0  0  0  0  0  0  0  0  0  0
   59.8511   35.9868   46.1209 O   0  0  0  0  0  0  0  0  0  0  0  0
   58.6438   34.3372   47.4562 O   0  0  0  0  0  0  0  0  0  0  0  0
 25 26  1  0
 26 27  2  0
 26 28  2  0
 26 24  1  0
 24 17  1  0
 17 18  2  0
 18 19  1  0
 19 20  2  0
 20 16  1  0
 16  1  1  0
  1  2  1  0
  2  3  2  0
  2  4  1  0
  5  4  1  0
  5  6  1  0
  6  7  1  0
  7  9  1  0
  9 10  1  0
 10 11  1  0
 11 12  1  0
 12 13  2  0
 13 14  1  0
 14 15  1  0
  7  8  1  0
 20 21  1  0
 21 22  2  0
 22 23  1  0
 22 17  1  0
  8  5  1  0
 15 11  2  0
M  CHG 1   1  -1
M  CHG 1   4  -1
M  CHG 1  14  -1
M  CHG 1  24  -1
M  END
> <UniqueID>
82

> <SMILES>
CS(=O)(=O)[N-]c1ccc(C[N-]C(=O)[N-]C2CC(CCc3cn[n-]c3)C2)cc1F

> <Energy>
128.38094800186124

> <Genealogy>
CS(=O)(=O)[N-]c1ccc(C[N-]C(=O)[N-]C2CC(CCc3cn[n-]c3)C2)cc1F (protonated)
CS(=O)(=O)[N-]c1ccc(C[N-]C(=O)[N-]C2CC(CCc3cn[n-]c3)C2)cc1F (3D coordinates assigned)
CS(=O)(=O)[N-]c1ccc(C[N-]C(=O)[N-]C2CC(CCc3cn[n-]c3)C2)cc1F (nonaromatic ring conformer: 128.38094800186124 kcal/mol)

> <smiles>
CS(=O)(=O)Nc1ccc(CNC(=O)NC2CC(CCc3cn[nH]c3)C2)cc1F

> <score_type>
oracle

> <origin>
adg

> <m_score__min__energy>
-14.35

> <m_primary>
energy

> <minimizedAffinity>
-4.44143

> <minimizedRMSD>
0.68471

> <CNNscore>
0.1713643968

> <CNNaffinity>
6.0530924797

> <CNN_VS>
1.0372844934

> <CNNaffinity_variance>
0.0884366930

$$$$
42:0


 33 36  0  0  0  0  0  0  0  0999 V2000
   59.1263   28.7575   45.5132 C   0  0  0  0  0  0  0  0  0  0  0  0
   58.2601   29.7175   44.9677 C   0  0  0  0  0  0  0  0  0  0  0  0
   56.8985   29.4477   44.8651 C   0  0  0  0  0  0  0  0  0  0  0  0
   56.1191   30.3046   44.3744 O   0  0  0  0  0  0  0  0  0  0  0  0
   56.4085   28.2573   45.2877 N   0  0  0  0  0  0  0  0  0  0  0  0
   57.1961   27.2862   45.8238 C   0  0  0  0  0  0  0  0  0  0  0  0
   56.6457   26.0520   46.2723 C   0  0  0  0  0  0  0  0  0  0  0  0
   55.3935   25.7100   46.1170 N   0  0  0  0  0  0  0  0  0  0  0  0
   57.4551   25.1731   46.9197 N   0  0  0  0  0  0  0  0  0  0  0  0
   58.7747   25.4035   47.1276 C   0  0  0  0  0  0  0  0  0  0  0  0
   59.3641   26.5763   46.6663 C   0  0  0  0  0  0  0  0  0  0  0  0
   58.5859   27.5317   45.9882 C   0  0  0  0  0  0  0  0  0  0  0  0
   60.5751   29.0722   45.5401 C   0  0  0  0  0  0  0  0  0  0  0  0
   61.3691   28.4980   44.7486 O   0  0  0  0  0  0  0  0  0  0  0  0
   61.0574   30.0867   46.4249 N   0  0  0  0  0  0  0  0  0  0  0  0
   60.6618   30.1790   47.8250 C   0  0  0  0  0  0  0  0  0  0  0  0
   60.6999   31.6354   48.2864 C   0  0  0  0  0  0  0  0  0  0  0  0
   57.2945   34.8097   44.9800 O   0  0  0  0  0  0  0  0  0  0  0  0
   58.1306   34.0471   45.7906 C   0  0  0  0  0  0  0  0  0  0  0  0
   57.5808   33.0697   46.6266 C   0  0  0  0  0  0  0  0  0  0  0  0
   58.4089   32.2975   47.4452 C   0  0  0  0  0  0  0  0  0  0  0  0
   59.7998   32.5005   47.4407 C   0  0  0  0  0  0  0  0  0  0  0  0
   60.3492   33.4753   46.5922 C   0  0  0  0  0  0  0  0  0  0  0  0
   59.5179   34.2475   45.7752 C   0  0  0  0  0  0  0  0  0  0  0  0
   56.3685   34.6682   44.9975 H   0  0  0  0  0  0  0  0  0  0  0  0
   54.8513   24.4751   45.6266 C   0  0  0  0  0  0  0  0  0  0  0  0
   53.6288   24.2382   45.8091 O   0  0  0  0  0  0  0  0  0  0  0  0
   55.7161   23.4470   44.9907 C   0  0  0  0  0  0  0  0  0  0  0  0
   56.2015   22.3640   45.7456 C   0  0  0  0  0  0  0  0  0  0  0  0
   56.9983   21.3836   45.1469 C   0  0  0  0  0  0  0  0  0  0  0  0
   57.3233   21.4761   43.7912 C   0  0  0  0  0  0  0  0  0  0  0  0
   56.8536   22.5510   43.0332 C   0  0  0  0  0  0  0  0  0  0  0  0
   56.0565   23.5334   43.6270 C   0  0  0  0  0  0  0  0  0  0  0  0
 18 19  1  0
 19 20  2  0
 20 21  1  0
 21 22  2  0
 22 17  1  0
 17 16  1  0
 16 15  1  0
 15 13  1  0
 13 14  2  0
 13  1  1  0
  1  2  2  0
  2  3  1  0
  3  4  2  0
  3  5  1  0
  5  6  1  0
  6  7  1  0
  7  8  2  0
  8 26  1  0
 26 27  2  0
 26 28  1  0
 28 29  2  0
 29 30  1  0
 30 31  2  0
 31 32  1  0
 32 33  2  0
  7  9  1  0
  9 10  1  0
 10 11  2  0
 11 12  1  0
 22 23  1  0
 23 24  2  0
 24 19  1  0
 12  1  1  0
 12  6  2  0
 33 28  1  0
 18 25  1  0
M  CHG 1   5  -1
M  CHG 1   9  -1
M  CHG 1  15  -1
M  END
> <UniqueID>
39

> <SMILES>
O=C(/N=c1/[n-]ccc2c(C(=O)[N-]CCc3ccc(O)cc3)cc(=O)[n-]c12)c1ccccc1

> <Energy>
73.25227551075295

> <Genealogy>
O=C(N=c1[n-]ccc2c(C(=O)[N-]CCc3ccc(O)cc3)cc(=O)[n-]c12)c1ccccc1 (protonated)
O=C(/N=c1/[n-]ccc2c(C(=O)[N-]CCc3ccc(O)cc3)cc(=O)[n-]c12)c1ccccc1 (cis-trans isomerization)
O=C(/N=c1/[n-]ccc2c(C(=O)[N-]CCc3ccc(O)cc3)cc(=O)[n-]c12)c1ccccc1 (3D coordinates assigned)
O=C(/N=c1/[n-]ccc2c(C(=O)[N-]CCc3ccc(O)cc3)cc(=O)[n-]c12)c1ccccc1 (optimized conformer: 73.25227551075295 kcal/mol)

> <smiles>
O=C(N=c1[nH]ccc2c(C(=O)NCCc3ccc(O)cc3)cc(=O)[nH]c12)c1ccccc1

> <score_type>
oracle

> <origin>
adg

> <m_score__min__energy>
-14.18

> <m_primary>
energy

> <minimizedAffinity>
-7.79566

> <minimizedRMSD>
0.60603

> <CNNscore>
0.1951192319

> <CNNaffinity>
6.5333838463

> <CNN_VS>
1.2747888565

> <CNNaffinity_variance>
0.1263536215

$$$$
0:0


 31 35  0  0  0  0  0  0  0  0999 V2000
   58.2098   27.6664   44.6255 C   0  0  0  0  0  0  0  0  0  0  0  0
   57.8776   28.9515   44.8089 C   0  0  0  0  0  0  0  0  0  0  0  0
   56.8943   29.7104   44.1647 C   0  0  0  0  0  0  0  0  0  0  0  0
   56.8665   30.9634   44.6827 N   0  0  0  0  0  0  0  0  0  0  0  0
   57.7924   31.0045   45.6279 N   0  0  0  0  0  0  0  0  0  0  0  0
   58.1300   32.0463   46.4212 C   0  0  0  0  0  0  0  0  0  0  0  0
   57.5235   33.1907   46.3095 N   0  0  0  0  0  0  0  0  0  0  0  0
   59.1228   31.8592   47.3371 N   0  0  0  0  0  0  0  0  0  0  0  0
   59.7506   30.6463   47.4548 C   0  0  0  0  0  0  0  0  0  0  0  0
   60.7149   30.4689   48.3092 N   0  0  0  0  0  0  0  0  0  0  0  0
   59.3933   29.6150   46.6347 N   0  0  0  0  0  0  0  0  0  0  0  0
   58.4068   29.8249   45.7313 C   0  0  0  0  0  0  0  0  0  0  0  0
   60.0033   26.4312   46.8619 O   0  0  0  0  0  0  0  0  0  0  0  0
   58.6939   26.0616   46.5653 C   0  0  0  0  0  0  0  0  0  0  0  0
   58.0177   25.1319   47.2601 N   0  0  0  0  0  0  0  0  0  0  0  0
   56.7968   25.1556   46.6852 C   0  0  0  0  0  0  0  0  0  0  0  0
   55.8534   24.4153   47.0678 O   0  0  0  0  0  0  0  0  0  0  0  0
   56.6630   26.0418   45.6747 N   0  0  0  0  0  0  0  0  0  0  0  0
   57.8817   26.6005   45.5862 C   0  0  0  0  0  0  0  0  0  0  0  0
   60.4677   25.9982   47.5509 H   0  0  0  0  0  0  0  0  0  0  0  0
   61.8187   31.3567   48.5603 C   0  0  0  0  0  0  0  0  0  0  0  0
   62.5612   31.3083   49.7559 C   0  0  0  0  0  0  0  0  0  0  0  0
   63.6427   32.1752   49.9481 C   0  0  0  0  0  0  0  0  0  0  0  0
   64.3504   32.1290   51.1051 F   0  0  0  0  0  0  0  0  0  0  0  0
   64.0053   33.0769   48.9449 C   0  0  0  0  0  0  0  0  0  0  0  0
   63.2935   33.1074   47.7426 C   0  0  0  0  0  0  0  0  0  0  0  0
   63.6547   33.9724   46.7625 F   0  0  0  0  0  0  0  0  0  0  0  0
   62.2112   32.2433   47.5481 C   0  0  0  0  0  0  0  0  0  0  0  0
   58.1208   34.3514   45.6563 C   0  0  0  0  0  0  0  0  0  0  0  0
   59.4183   34.8096   46.2971 C   0  0  0  0  0  0  0  0  0  0  0  0
   59.4445   34.0363   44.9852 C   0  0  0  0  0  0  0  0  0  0  0  0
 13 14  1  0
 14 15  1  0
 15 16  1  0
 16 17  2  0
 16 18  1  0
 18 19  1  0
 19  1  1  0
  1  2  2  0
  2  3  1  0
  3  4  2  0
  4  5  1  0
  5  6  1  0
  6  7  2  0
  7 29  1  0
 29 30  1  0
 30 31  1  0
  6  8  1  0
  8  9  1  0
  9 10  2  0
 10 21  1  0
 21 22  2  0
 22 23  1  0
 23 24  1  0
 23 25  2  0
 25 26  1  0
 26 27  1  0
 26 28  2  0
  9 11  1  0
 11 12  2  0
 19 14  2  0
 12  2  1  0
 12  5  1  0
 31 29  1  0
 28 21  1  0
 13 20  1  0
M  CHG 1   8  -1
M  CHG 1  15  -1
M  CHG 1  18  -1
M  END
> <UniqueID>
1

> <SMILES>
O=c1[n-]c(O)c(/C=c2\cnn3c(=NC4CC4)[n-]/c(=N\c4cc(F)cc(F)c4)nc23)[n-]1

> <Energy>
390.34710855484997

> <Genealogy>
O=c1[n-]c(O)c(C=c2cnn3c(=NC4CC4)[n-]c(=Nc4cc(F)cc(F)c4)nc23)[n-]1 (protonated)
O=c1[n-]c(O)c(/C=c2\cnn3c(=NC4CC4)[n-]/c(=N\c4cc(F)cc(F)c4)nc23)[n-]1 (cis-trans isomerization)
O=c1[n-]c(O)c(/C=c2\cnn3c(=NC4CC4)[n-]/c(=N\c4cc(F)cc(F)c4)nc23)[n-]1 (3D coordinates assigned)
O=c1[n-]c(O)c(/C=c2\cnn3c(=NC4CC4)[n-]/c(=N\c4cc(F)cc(F)c4)nc23)[n-]1 (nonaromatic ring conformer: 390.34710855484997 kcal/mol)

> <smiles>
O=c1[nH]c(O)c(C=c2cnn3c(=NC4CC4)[nH]c(=Nc4cc(F)cc(F)c4)nc23)[nH]1

> <score_type>
oracle

> <origin>
adg

> <m_score__min__energy>
-14.779999999999999

> <m_primary>
energy

> <minimizedAffinity>
-10.09827

> <minimizedRMSD>
0.54629

> <CNNscore>
0.5041097403

> <CNNaffinity>
6.9427771568

> <CNN_VS>
3.4999215603

> <CNNaffinity_variance>
0.1733729839

$$$$
10:0


 34 38  0  0  0  0  0  0  0  0999 V2000
   52.9838   30.6230   53.5480 C   0  0  0  0  0  0  0  0  0  0  0  0
   53.9222   29.7386   53.9107 C   0  0  0  0  0  0  0  0  0  0  0  0
   53.8150   28.6307   54.7604 C   0  0  0  0  0  0  0  0  0  0  0  0
   55.0076   27.9912   54.8035 N   0  0  0  0  0  0  0  0  0  0  0  0
   55.8481   28.6430   54.0175 N   0  0  0  0  0  0  0  0  0  0  0  0
   57.1438   28.3614   53.7394 C   0  0  0  0  0  0  0  0  0  0  0  0
   57.7309   27.3368   54.2808 N   0  0  0  0  0  0  0  0  0  0  0  0
   57.8067   29.1852   52.8768 N   0  0  0  0  0  0  0  0  0  0  0  0
   57.1786   30.2651   52.3158 C   0  0  0  0  0  0  0  0  0  0  0  0
   57.8368   31.0131   51.4799 N   0  0  0  0  0  0  0  0  0  0  0  0
   55.8653   30.5143   52.6065 N   0  0  0  0  0  0  0  0  0  0  0  0
   55.2279   29.6873   53.4654 C   0  0  0  0  0  0  0  0  0  0  0  0
   55.2129   27.1834   55.3276 H   0  0  0  0  0  0  0  0  0  0  0  0
   52.3489   30.6524   52.2190 C   0  0  0  0  0  0  0  0  0  0  0  0
   52.6244   29.7599   51.2513 N   0  0  0  0  0  0  0  0  0  0  0  0
   51.8960   30.1998   50.2027 C   0  0  0  0  0  0  0  0  0  0  0  0
   51.8813   29.6063   49.0924 O   0  0  0  0  0  0  0  0  0  0  0  0
   51.1944   31.3300   50.4328 N   0  0  0  0  0  0  0  0  0  0  0  0
   51.5009   31.6103   51.7092 C   0  0  0  0  0  0  0  0  0  0  0  0
   51.0534   32.7474   52.3716 O   0  0  0  0  0  0  0  0  0  0  0  0
   58.9591   31.8615   51.7848 C   0  0  0  0  0  0  0  0  0  0  0  0
   59.1565   32.3856   53.0761 C   0  0  0  0  0  0  0  0  0  0  0  0
   60.2711   33.1814   53.3526 C   0  0  0  0  0  0  0  0  0  0  0  0
   60.4491   33.6873   54.5990 F   0  0  0  0  0  0  0  0  0  0  0  0
   61.2066   33.4428   52.3534 C   0  0  0  0  0  0  0  0  0  0  0  0
   61.0401   32.9013   51.0760 C   0  0  0  0  0  0  0  0  0  0  0  0
   59.9184   32.0997   50.7841 C   0  0  0  0  0  0  0  0  0  0  0  0
   59.7189   31.5289   49.5161 O   0  0  0  0  0  0  0  0  0  0  0  0
   59.3107   32.2450   48.3539 C   0  0  0  0  0  0  0  0  0  0  0  0
   58.7325   31.3784   47.4446 F   0  0  0  0  0  0  0  0  0  0  0  0
   60.4185   32.8318   47.7743 F   0  0  0  0  0  0  0  0  0  0  0  0
   58.6357   27.4396   55.4222 C   0  0  0  0  0  0  0  0  0  0  0  0
   58.2416   28.5154   56.4168 C   0  0  0  0  0  0  0  0  0  0  0  0
   57.9778   27.0497   56.7309 C   0  0  0  0  0  0  0  0  0  0  0  0
  1 14  1  0
 14 15  1  0
 15 16  1  0
 16 17  2  0
 16 18  1  0
 18 19  1  0
 19 20  1  0
  1  2  2  0
  2  3  1  0
  3  4  2  0
  4  5  1  0
  5  6  1  0
  6  7  2  0
  7 32  1  0
 32 33  1  0
 33 34  1  0
  6  8  1  0
  8  9  1  0
  9 10  2  0
 10 21  1  0
 21 22  2  0
 22 23  1  0
 23 24  1  0
 23 25  2  0
 25 26  1  0
 26 27  2  0
 27 28  1  0
 28 29  1  0
 29 30  1  0
 29 31  1  0
  9 11  1  0
 11 12  2  0
 19 14  2  0
 12  2  1  0
 12  5  1  0
 34 32  1  0
 27 21  1  0
  4 13  1  0
M  CHG 1   4   1
M  CHG 1   8  -1
M  CHG 1  15  -1
M  CHG 1  18  -1
M  CHG 1  20  -1
M  END
> <UniqueID>
11

> <SMILES>
O=c1[n-]c([O-])c(/C=c2\c[nH+]n3c(=NC4CC4)[n-]/c(=N/c4cc(F)ccc4OC(F)F)nc23)[n-]1

> <Energy>
395.55933215675816

> <Genealogy>
O=c1[n-]c([O-])c(C=c2c[nH+]n3c(=NC4CC4)[n-]c(=Nc4cc(F)ccc4OC(F)F)nc23)[n-]1 (protonated)
O=c1[n-]c([O-])c(/C=c2\c[nH+]n3c(=NC4CC4)[n-]/c(=N/c4cc(F)ccc4OC(F)F)nc23)[n-]1 (cis-trans isomerization)
O=c1[n-]c([O-])c(/C=c2\c[nH+]n3c(=NC4CC4)[n-]/c(=N/c4cc(F)ccc4OC(F)F)nc23)[n-]1 (3D coordinates assigned)
O=c1[n-]c([O-])c(/C=c2\c[nH+]n3c(=NC4CC4)[n-]/c(=N/c4cc(F)ccc4OC(F)F)nc23)[n-]1 (nonaromatic ring conformer: 395.55933215675816 kcal/mol)

> <smiles>
O=c1[nH]c(O)c(C=c2cnn3c(=NC4CC4)[nH]c(=Nc4cc(F)ccc4OC(F)F)nc23)[nH]1

> <score_type>
oracle

> <origin>
adg

> <m_score__min__energy>
-15.57

> <m_primary>
energy

> <minimizedAffinity>
-5.39534

> <minimizedRMSD>
1.21378

> <CNNscore>
0.1738368273

> <CNNaffinity>
5.7196917534

> <CNN_VS>
0.9942930937

> <CNNaffinity_variance>
0.0784018412

$$$$
11:0


 31 35  0  0  0  0  0  0  0  0999 V2000
   53.3366   30.5849   53.2511 C   0  0  0  0  0  0  0  0  0  0  0  0
   54.4329   29.8456   53.4766 C   0  0  0  0  0  0  0  0  0  0  0  0
   54.5420   28.7950   54.3890 C   0  0  0  0  0  0  0  0  0  0  0  0
   55.8059   28.3124   54.3645 N   0  0  0  0  0  0  0  0  0  0  0  0
   56.4960   29.0222   53.4870 N   0  0  0  0  0  0  0  0  0  0  0  0
   57.8079   28.9261   53.1629 C   0  0  0  0  0  0  0  0  0  0  0  0
   58.5602   28.0163   53.7083 N   0  0  0  0  0  0  0  0  0  0  0  0
   58.3121   29.8154   52.2589 N   0  0  0  0  0  0  0  0  0  0  0  0
   57.5118   30.7784   51.7080 C   0  0  0  0  0  0  0  0  0  0  0  0
   58.0190   31.6129   50.8516 N   0  0  0  0  0  0  0  0  0  0  0  0
   56.1932   30.8544   52.0592 N   0  0  0  0  0  0  0  0  0  0  0  0
   55.7070   29.9497   52.9396 C   0  0  0  0  0  0  0  0  0  0  0  0
   56.1511   27.5651   54.9045 H   0  0  0  0  0  0  0  0  0  0  0  0
   52.5944   30.5899   51.9801 C   0  0  0  0  0  0  0  0  0  0  0  0
   52.8374   29.7325   50.9743 N   0  0  0  0  0  0  0  0  0  0  0  0
   51.9963   30.1465   50.0023 C   0  0  0  0  0  0  0  0  0  0  0  0
   51.9171   29.5733   48.8845 O   0  0  0  0  0  0  0  0  0  0  0  0
   51.2526   31.2295   50.3157 N   0  0  0  0  0  0  0  0  0  0  0  0
   51.6526   31.5069   51.5681 C   0  0  0  0  0  0  0  0  0  0  0  0
   51.1944   32.5949   52.3003 O   0  0  0  0  0  0  0  0  0  0  0  0
   59.9879   28.1960   53.9504 C   0  0  0  0  0  0  0  0  0  0  0  0
   60.8507   27.3689   53.0173 C   0  0  0  0  0  0  0  0  0  0  0  0
   60.6805   26.9503   54.4706 C   0  0  0  0  0  0  0  0  0  0  0  0
   59.2442   31.3596   50.0981 C   0  0  0  0  0  0  0  0  0  0  0  0
   59.3894   32.3958   49.0160 C   0  0  0  0  0  0  0  0  0  0  0  0
   58.4347   32.4596   47.9861 C   0  0  0  0  0  0  0  0  0  0  0  0
   58.5371   33.4264   46.9832 C   0  0  0  0  0  0  0  0  0  0  0  0
   59.5875   34.3470   47.0030 C   0  0  0  0  0  0  0  0  0  0  0  0
   60.5343   34.3046   48.0290 C   0  0  0  0  0  0  0  0  0  0  0  0
   60.4417   33.3393   49.0384 C   0  0  0  0  0  0  0  0  0  0  0  0
   61.7651   33.3538   50.4291 Br  0  0  0  0  0  0  0  0  0  0  0  0
  1 14  1  0
 14 15  1  0
 15 16  1  0
 16 17  2  0
 16 18  1  0
 18 19  1  0
 19 20  1  0
  1  2  2  0
  2  3  1  0
  3  4  2  0
  4  5  1  0
  5  6  1  0
  6  7  2  0
  7 21  1  0
 21 22  1  0
 22 23  1  0
  6  8  1  0
  8  9  1  0
  9 10  2  0
 10 24  1  0
 24 25  1  0
 25 26  2  0
 26 27  1  0
 27 28  2  0
 28 29  1  0
 29 30  2  0
 30 31  1  0
  9 11  1  0
 11 12  2  0
 19 14  2  0
 12  2  1  0
 12  5  1  0
 23 21  1  0
 30 25  1  0
  4 13  1  0
M  CHG 1   4   1
M  CHG 1   8  -1
M  CHG 1  15  -1
M  CHG 1  18  -1
M  CHG 1  20  -1
M  END
> <UniqueID>
12

> <SMILES>
O=c1[n-]c([O-])c(/C=c2/c[nH+]n3/c(=N/C4CC4)[n-]c(=NCc4ccccc4Br)nc23)[n-]1

> <Energy>
388.3769265524715

> <Genealogy>
O=c1[n-]c([O-])c(C=c2c[nH+]n3c(=NC4CC4)[n-]c(=NCc4ccccc4Br)nc23)[n-]1 (protonated)
O=c1[n-]c([O-])c(/C=c2/c[nH+]n3/c(=N/C4CC4)[n-]c(=NCc4ccccc4Br)nc23)[n-]1 (cis-trans isomerization)
O=c1[n-]c([O-])c(/C=c2/c[nH+]n3/c(=N/C4CC4)[n-]c(=NCc4ccccc4Br)nc23)[n-]1 (3D coordinates assigned)
O=c1[n-]c([O-])c(/C=c2/c[nH+]n3/c(=N/C4CC4)[n-]c(=NCc4ccccc4Br)nc23)[n-]1 (nonaromatic ring conformer: 388.3769265524715 kcal/mol)

> <smiles>
O=c1[nH]c(O)c(C=c2cnn3c(=NC4CC4)[nH]c(=NCc4ccccc4Br)nc23)[nH]1

> <score_type>
oracle

> <origin>
adg

> <m_score__min__energy>
-17.32

> <m_primary>
energy

> <minimizedAffinity>
-6.28220

> <minimizedRMSD>
0.93166

> <CNNscore>
0.1659495980

> <CNNaffinity>
5.8017945290

> <CNN_VS>
0.9628054500

> <CNNaffinity_variance>
0.0062268949

$$$$
25:0


 28 30  0  0  0  0  0  0  0  0999 V2000
   57.8979   30.4898   45.2210 C   0  0  0  0  0  0  0  0  0  0  0  0
   57.5571   31.8010   44.8443 C   0  0  0  0  0  0  0  0  0  0  0  0
   58.2262   32.8940   45.4023 C   0  0  0  0  0  0  0  0  0  0  0  0
   59.2534   32.6913   46.3339 C   0  0  0  0  0  0  0  0  0  0  0  0
   59.5925   31.3884   46.7159 C   0  0  0  0  0  0  0  0  0  0  0  0
   58.9257   30.2935   46.1582 C   0  0  0  0  0  0  0  0  0  0  0  0
   60.1706   34.0507   46.9758 S   0  0  0  0  0  0  0  0  0  0  0  0
   59.6868   35.3106   46.3167 O   0  0  0  0  0  0  0  0  0  0  0  0
   61.6360   33.8856   46.6766 O   0  0  0  0  0  0  0  0  0  0  0  0
   59.9320   34.1816   48.6957 N   0  0  0  0  0  0  0  0  0  0  0  0
   60.3112   32.9465   49.3881 C   0  0  0  0  0  0  0  0  0  0  0  0
   61.7863   32.9236   49.6892 C   0  0  0  0  0  0  0  0  0  0  0  0
   62.3653   33.9457   50.4612 C   0  0  0  0  0  0  0  0  0  0  0  0
   63.7247   33.8999   50.7813 C   0  0  0  0  0  0  0  0  0  0  0  0
   64.5186   32.8436   50.3274 C   0  0  0  0  0  0  0  0  0  0  0  0
   65.8348   32.7954   50.6501 F   0  0  0  0  0  0  0  0  0  0  0  0
   63.9549   31.8331   49.5431 C   0  0  0  0  0  0  0  0  0  0  0  0
   62.5940   31.8745   49.2189 C   0  0  0  0  0  0  0  0  0  0  0  0
   57.0364   29.3112   43.3578 O   0  0  0  0  0  0  0  0  0  0  0  0
   57.2214   29.3240   44.6036 C   0  0  0  0  0  0  0  0  0  0  0  0
   56.7097   28.2331   45.3842 N   0  0  0  0  0  0  0  0  0  0  0  0
   57.3634   27.1572   45.7182 C   0  0  0  0  0  0  0  0  0  0  0  0
   58.7255   27.1124   45.6538 N   0  0  0  0  0  0  0  0  0  0  0  0
   59.4280   25.9965   45.9839 C   0  0  0  0  0  0  0  0  0  0  0  0
   58.7549   24.8450   46.3965 C   0  0  0  0  0  0  0  0  0  0  0  0
   57.3608   24.8552   46.4619 C   0  0  0  0  0  0  0  0  0  0  0  0
   56.6565   26.0122   46.1194 C   0  0  0  0  0  0  0  0  0  0  0  0
   55.2672   26.0203   46.1807 O   0  0  0  0  0  0  0  0  0  0  0  0
 19 20  2  0
 20 21  1  0
 21 22  2  0
 22 23  1  0
 23 24  1  0
 24 25  2  0
 25 26  1  0
 26 27  2  0
 27 28  1  0
 20  1  1  0
  1  2  2  0
  2  3  1  0
  3  4  2  0
  4  7  1  0
  7  8  2  0
  7  9  2  0
  7 10  1  0
 10 11  1  0
 11 12  1  0
 12 13  2  0
 13 14  1  0
 14 15  2  0
 15 16  1  0
 15 17  1  0
 17 18  2  0
  4  5  1  0
  5  6  2  0
 27 22  1  0
  6  1  1  0
 18 12  1  0
M  CHG 1  10  -1
M  CHG 1  23  -1
M  CHG 1  28  -1
M  END
> <UniqueID>
24

> <SMILES>
O=C(N=c1[n-]cccc1[O-])c1ccc(S(=O)(=O)[N-]Cc2ccc(F)cc2)cc1

> <Energy>
48.48492186520194

> <Genealogy>
O=C(N=c1[n-]cccc1[O-])c1ccc(S(=O)(=O)[N-]Cc2ccc(F)cc2)cc1 (protonated)
O=C(N=c1[n-]cccc1[O-])c1ccc(S(=O)(=O)[N-]Cc2ccc(F)cc2)cc1 (3D coordinates assigned)
O=C(N=c1[n-]cccc1[O-])c1ccc(S(=O)(=O)[N-]Cc2ccc(F)cc2)cc1 (optimized conformer: 48.48492186520194 kcal/mol)

> <smiles>
O=C(N=c1[nH]cccc1O)c1ccc(S(=O)(=O)NCc2ccc(F)cc2)cc1

> <score_type>
oracle

> <origin>
adg

> <m_score__min__energy>
-15.210000000000001

> <m_primary>
energy

> <minimizedAffinity>
-7.51981

> <minimizedRMSD>
1.04011

> <CNNscore>
0.5526154041

> <CNNaffinity>
6.4997177124

> <CNN_VS>
3.5918440819

> <CNNaffinity_variance>
0.1235555112

$$$$
62:0


 31 33  0  0  0  0  0  0  0  0999 V2000
   59.4228   27.0921   47.9855 N   0  0  0  0  0  0  0  0  0  0  0  0
   59.9721   26.4607   46.8129 C   0  0  0  0  0  0  0  0  0  0  0  0
   61.1661   26.0543   46.8049 O   0  0  0  0  0  0  0  0  0  0  0  0
   58.4485   27.2217   48.0432 H   0  0  0  0  0  0  0  0  0  0  0  0
   60.2594   27.5455   49.0895 C   0  0  0  0  0  0  0  0  0  0  0  0
   61.5405   31.6115   48.4220 C   0  0  0  0  0  0  0  0  0  0  0  0
   61.7052   31.0137   49.6791 C   0  0  0  0  0  0  0  0  0  0  0  0
   61.2788   29.7014   49.8965 C   0  0  0  0  0  0  0  0  0  0  0  0
   60.6991   28.9620   48.8523 C   0  0  0  0  0  0  0  0  0  0  0  0
   60.5083   29.5717   47.6026 C   0  0  0  0  0  0  0  0  0  0  0  0
   60.9320   30.8867   47.3872 C   0  0  0  0  0  0  0  0  0  0  0  0
   63.8268   33.2962   48.5098 N   0  0  0  0  0  0  0  0  0  0  0  0
   62.1476   33.2348   48.1160 S   0  0  0  0  0  0  0  0  0  0  0  0
   61.4058   34.2312   48.9616 O   0  0  0  0  0  0  0  0  0  0  0  0
   61.9566   33.5847   46.6676 O   0  0  0  0  0  0  0  0  0  0  0  0
   64.1831   34.2357   48.3339 H   0  0  0  0  0  0  0  0  0  0  0  0
   59.1413   26.3140   45.5754 C   0  0  0  0  0  0  0  0  0  0  0  0
   58.3067   27.5431   45.3823 C   0  0  0  0  0  0  0  0  0  0  0  0
   58.8622   29.0047   44.7546 S   0  0  0  0  0  0  0  0  0  0  0  0
   57.3218   29.7040   44.7740 C   0  0  0  0  0  0  0  0  0  0  0  0
   57.0228   30.9212   44.4273 N   0  0  0  0  0  0  0  0  0  0  0  0
   56.3908   28.8544   45.2592 N   0  0  0  0  0  0  0  0  0  0  0  0
   56.9316   27.6523   45.5854 C   0  0  0  0  0  0  0  0  0  0  0  0
   56.1523   26.6155   46.0847 O   0  0  0  0  0  0  0  0  0  0  0  0
   57.6140   32.1348   44.9178 C   0  0  0  0  0  0  0  0  0  0  0  0
   57.7013   32.4198   46.2956 C   0  0  0  0  0  0  0  0  0  0  0  0
   58.3195   33.5944   46.7319 C   0  0  0  0  0  0  0  0  0  0  0  0
   58.8847   34.4743   45.8043 C   0  0  0  0  0  0  0  0  0  0  0  0
   59.6677   35.9419   46.3577 Cl  0  0  0  0  0  0  0  0  0  0  0  0
   58.8391   34.1741   44.4363 C   0  0  0  0  0  0  0  0  0  0  0  0
   58.2131   33.0059   43.9988 C   0  0  0  0  0  0  0  0  0  0  0  0
 12 13  1  0
 13 14  2  0
 13 15  2  0
 13  6  1  0
  6  7  2  0
  7  8  1  0
  8  9  2  0
  9  5  1  0
  5  1  1  0
  1  2  1  0
  2  3  2  0
  2 17  1  0
 17 18  1  0
 18 19  1  0
 19 20  1  0
 20 21  2  0
 21 25  1  0
 25 26  2  0
 26 27  1  0
 27 28  2  0
 28 29  1  0
 28 30  1  0
 30 31  2  0
 20 22  1  0
 22 23  1  0
 23 24  1  0
  9 10  1  0
 10 11  2  0
 11  6  1  0
 23 18  2  0
 31 25  1  0
 12 16  1  0
  1  4  1  0
M  CHG 1  12  -1
M  CHG 1  22  -1
M  CHG 1  24  -1
M  END
> <UniqueID>
62

> <SMILES>
[NH-]S(=O)(=O)c1ccc(CNC(=O)Cc2sc(=Nc3ccc(Cl)cc3)[n-]c2[O-])cc1

> <Energy>
75.54677022748274

> <Genealogy>
[NH-]S(=O)(=O)c1ccc(CNC(=O)Cc2sc(=Nc3ccc(Cl)cc3)[n-]c2[O-])cc1 (protonated)
[NH-]S(=O)(=O)c1ccc(CNC(=O)Cc2sc(=Nc3ccc(Cl)cc3)[n-]c2[O-])cc1 (3D coordinates assigned)
[NH-]S(=O)(=O)c1ccc(CNC(=O)Cc2sc(=Nc3ccc(Cl)cc3)[n-]c2[O-])cc1 (optimized conformer: 75.54677022748274 kcal/mol)

> <smiles>
NS(=O)(=O)c1ccc(CNC(=O)Cc2sc(=Nc3ccc(Cl)cc3)[nH]c2O)cc1

> <score_type>
oracle

> <origin>
adg

> <m_score__min__energy>
-14.119999999999999

> <m_primary>
energy

> <minimizedAffinity>
-5.66118

> <minimizedRMSD>
0.68215

> <CNNscore>
0.4197400510

> <CNNaffinity>
6.6696562767

> <CNN_VS>
2.7995219231

> <CNNaffinity_variance>
0.0642017648

$$$$
9:0


 26 27  0  0  0  0  0  0  0  0999 V2000
   59.6894   26.1863   46.4991 C   0  0  0  0  0  0  0  0  0  0  0  0
   59.9845   25.0838   45.9694 O   0  0  0  0  0  0  0  0  0  0  0  0
   60.4606   27.3463   46.1515 N   0  0  0  0  0  0  0  0  0  0  0  0
   58.4876   30.4417   45.4766 C   0  0  0  0  0  0  0  0  0  0  0  0
   59.1014   31.3545   46.3446 C   0  0  0  0  0  0  0  0  0  0  0  0
   60.1916   30.9580   47.1234 C   0  0  0  0  0  0  0  0  0  0  0  0
   60.6576   29.6410   47.0576 C   0  0  0  0  0  0  0  0  0  0  0  0
   60.0251   28.7098   46.2198 C   0  0  0  0  0  0  0  0  0  0  0  0
   58.9631   29.1257   45.4072 C   0  0  0  0  0  0  0  0  0  0  0  0
   55.8282   29.7738   44.7040 N   0  0  0  0  0  0  0  0  0  0  0  0
   57.0962   30.9342   44.5168 S   0  0  0  0  0  0  0  0  0  0  0  0
   57.4821   31.0275   43.0675 O   0  0  0  0  0  0  0  0  0  0  0  0
   56.6153   32.2829   44.9772 O   0  0  0  0  0  0  0  0  0  0  0  0
   55.0218   30.0586   44.1482 H   0  0  0  0  0  0  0  0  0  0  0  0
   58.5244   26.2461   47.4488 C   0  0  0  0  0  0  0  0  0  0  0  0
   57.4957   25.2980   47.0443 N   0  0  0  0  0  0  0  0  0  0  0  0
   56.2956   25.6863   46.3697 C   0  0  0  0  0  0  0  0  0  0  0  0
   56.2771   26.7192   45.6498 O   0  0  0  0  0  0  0  0  0  0  0  0
   55.1052   24.9048   46.5052 N   0  0  0  0  0  0  0  0  0  0  0  0
   54.4717   24.2070   45.3915 C   0  0  0  0  0  0  0  0  0  0  0  0
   55.4131   23.1887   44.8057 C   0  0  0  0  0  0  0  0  0  0  0  0
   55.8330   22.0826   45.5622 C   0  0  0  0  0  0  0  0  0  0  0  0
   56.6879   21.1297   45.0027 C   0  0  0  0  0  0  0  0  0  0  0  0
   57.1280   21.2725   43.6824 C   0  0  0  0  0  0  0  0  0  0  0  0
   56.7162   22.3712   42.9238 C   0  0  0  0  0  0  0  0  0  0  0  0
   55.8608   23.3264   43.4815 C   0  0  0  0  0  0  0  0  0  0  0  0
 10 11  1  0
 11 12  2  0
 11 13  2  0
 11  4  1  0
  4  5  2  0
  5  6  1  0
  6  7  2  0
  7  8  1  0
  8  3  1  0
  3  1  1  0
  1  2  2  0
  1 15  1  0
 15 16  1  0
 16 17  1  0
 17 18  2  0
 17 19  1  0
 19 20  1  0
 20 21  1  0
 21 22  2  0
 22 23  1  0
 23 24  2  0
 24 25  1  0
 25 26  2  0
  8  9  2  0
  9  4  1  0
 26 21  1  0
 10 14  1  0
M  CHG 1   3  -1
M  CHG 1  10  -1
M  CHG 1  16  -1
M  CHG 1  19  -1
M  END
> <UniqueID>
8

> <SMILES>
[NH-]S(=O)(=O)c1cccc([N-]C(=O)C[N-]C(=O)[N-]Cc2ccccc2)c1

> <Energy>
34.876617155685295

> <Genealogy>
[NH-]S(=O)(=O)c1cccc([N-]C(=O)C[N-]C(=O)[N-]Cc2ccccc2)c1 (protonated)
[NH-]S(=O)(=O)c1cccc([N-]C(=O)C[N-]C(=O)[N-]Cc2ccccc2)c1 (3D coordinates assigned)
[NH-]S(=O)(=O)c1cccc([N-]C(=O)C[N-]C(=O)[N-]Cc2ccccc2)c1 (optimized conformer: 34.876617155685295 kcal/mol)

> <smiles>
NS(=O)(=O)c1cccc(NC(=O)CNC(=O)NCc2ccccc2)c1

> <score_type>
oracle

> <origin>
adg

> <m_score__min__energy>
-15.06

> <m_primary>
energy

> <minimizedAffinity>
-5.96826

> <minimizedRMSD>
1.20571

> <CNNscore>
0.2944562435

> <CNNaffinity>
5.6220507622

> <CNN_VS>
1.6554479599

> <CNNaffinity_variance>
0.0999808908

$$$$
42:0


 25 26  0  0  0  0  0  0  0  0999 V2000
   57.5841   28.4573   45.2153 C   0  0  0  0  0  0  0  0  0  0  0  0
   56.3348   28.3721   45.0831 O   0  0  0  0  0  0  0  0  0  0  0  0
   58.1225   29.5368   45.9905 N   0  0  0  0  0  0  0  0  0  0  0  0
   59.1441   33.1513   45.8867 C   0  0  0  0  0  0  0  0  0  0  0  0
   58.5517   33.5448   44.6793 C   0  0  0  0  0  0  0  0  0  0  0  0
   57.8443   32.6170   43.9101 C   0  0  0  0  0  0  0  0  0  0  0  0
   57.7107   31.2980   44.3508 C   0  0  0  0  0  0  0  0  0  0  0  0
   58.2623   30.9020   45.5748 C   0  0  0  0  0  0  0  0  0  0  0  0
   59.0014   31.8282   46.3302 C   0  0  0  0  0  0  0  0  0  0  0  0
   59.4256   34.3215   48.4685 N   0  0  0  0  0  0  0  0  0  0  0  0
   60.0449   34.3127   46.8558 S   0  0  0  0  0  0  0  0  0  0  0  0
   61.4981   33.9315   46.8806 O   0  0  0  0  0  0  0  0  0  0  0  0
   59.9166   35.6865   46.2608 O   0  0  0  0  0  0  0  0  0  0  0  0
   59.9479   34.9945   49.0296 H   0  0  0  0  0  0  0  0  0  0  0  0
   58.4556   27.3794   44.6288 C   0  0  0  0  0  0  0  0  0  0  0  0
   58.7998   26.3866   45.6405 N   0  0  0  0  0  0  0  0  0  0  0  0
   57.8364   25.6400   46.3889 C   0  0  0  0  0  0  0  0  0  0  0  0
   57.9626   25.5603   47.6392 O   0  0  0  0  0  0  0  0  0  0  0  0
   56.7695   24.9575   45.7162 N   0  0  0  0  0  0  0  0  0  0  0  0
   56.8799   23.7802   44.9033 C   0  0  0  0  0  0  0  0  0  0  0  0
   56.0356   23.6515   43.7927 C   0  0  0  0  0  0  0  0  0  0  0  0
   56.0977   22.5122   42.9839 C   0  0  0  0  0  0  0  0  0  0  0  0
   56.9943   21.4850   43.2899 C   0  0  0  0  0  0  0  0  0  0  0  0
   57.8228   21.5940   44.4089 C   0  0  0  0  0  0  0  0  0  0  0  0
   57.7656   22.7327   45.2188 C   0  0  0  0  0  0  0  0  0  0  0  0
 10 11  1  0
 11 12  2  0
 11 13  2  0
 11  4  1  0
  4  5  2  0
  5  6  1  0
  6  7  2  0
  7  8  1  0
  8  3  1  0
  3  1  1  0
  1  2  2  0
  1 15  1  0
 15 16  1  0
 16 17  1  0
 17 18  2  0
 17 19  1  0
 19 20  1  0
 20 21  2  0
 21 22  1  0
 22 23  2  0
 23 24  1  0
 24 25  2  0
  8  9  2  0
  9  4  1  0
 25 20  1  0
 10 14  1  0
M  CHG 1   3  -1
M  CHG 1  10  -1
M  CHG 1  16  -1
M  CHG 1  19  -1
M  END
> <UniqueID>
35

> <SMILES>
[NH-]S(=O)(=O)c1cccc([N-]C(=O)C[N-]C(=O)[N-]c2ccccc2)c1

> <Energy>
41.845621770514214

> <Genealogy>
[NH-]S(=O)(=O)c1cccc([N-]C(=O)C[N-]C(=O)[N-]c2ccccc2)c1 (protonated)
[NH-]S(=O)(=O)c1cccc([N-]C(=O)C[N-]C(=O)[N-]c2ccccc2)c1 (3D coordinates assigned)
[NH-]S(=O)(=O)c1cccc([N-]C(=O)C[N-]C(=O)[N-]c2ccccc2)c1 (optimized conformer: 41.845621770514214 kcal/mol)

> <smiles>
NS(=O)(=O)c1cccc(NC(=O)CNC(=O)Nc2ccccc2)c1

> <score_type>
oracle

> <origin>
adg

> <m_score__min__energy>
-14.67

> <m_primary>
energy

> <minimizedAffinity>
-6.37984

> <minimizedRMSD>
1.28790

> <CNNscore>
0.3804890215

> <CNNaffinity>
5.8696198463

> <CNN_VS>
2.2333259583

> <CNNaffinity_variance>
0.0021962870

$$$$
79:0


 32 34  0  0  0  0  0  0  0  0999 V2000
   58.8893   34.0094   45.0917 N   0  0  0  0  0  0  0  0  0  0  0  0
   59.6457   34.6706   46.1174 C   0  0  0  0  0  0  0  0  0  0  0  0
   59.7713   35.9229   46.0628 O   0  0  0  0  0  0  0  0  0  0  0  0
   60.3171   33.9306   47.2045 C   0  0  0  0  0  0  0  0  0  0  0  0
   59.8664   34.0661   48.5243 C   0  0  0  0  0  0  0  0  0  0  0  0
   60.5154   33.3929   49.5638 C   0  0  0  0  0  0  0  0  0  0  0  0
   61.6029   32.5543   49.3007 C   0  0  0  0  0  0  0  0  0  0  0  0
   62.0289   32.3862   47.9687 C   0  0  0  0  0  0  0  0  0  0  0  0
   61.3856   33.0662   46.9300 C   0  0  0  0  0  0  0  0  0  0  0  0
   62.2156   31.8994   50.3814 O   0  0  0  0  0  0  0  0  0  0  0  0
   61.5380   31.1591   51.3990 C   0  0  0  0  0  0  0  0  0  0  0  0
   61.2835   29.7466   50.9476 C   0  0  0  0  0  0  0  0  0  0  0  0
   61.6639   28.6543   51.7473 C   0  0  0  0  0  0  0  0  0  0  0  0
   61.4280   27.3464   51.3127 C   0  0  0  0  0  0  0  0  0  0  0  0
   60.8253   27.1191   50.0723 C   0  0  0  0  0  0  0  0  0  0  0  0
   60.4558   28.1998   49.2653 C   0  0  0  0  0  0  0  0  0  0  0  0
   60.6784   29.5069   49.7026 C   0  0  0  0  0  0  0  0  0  0  0  0
   57.6462   33.2626   45.2836 C   0  0  0  0  0  0  0  0  0  0  0  0
   57.6038   32.0725   44.3794 C   0  0  0  0  0  0  0  0  0  0  0  0
   58.0306   32.1698   43.1963 O   0  0  0  0  0  0  0  0  0  0  0  0
   57.0664   30.8373   44.8622 N   0  0  0  0  0  0  0  0  0  0  0  0
   57.9892   27.3072   45.7785 C   0  0  0  0  0  0  0  0  0  0  0  0
   59.3845   27.4213   45.8232 C   0  0  0  0  0  0  0  0  0  0  0  0
   59.9965   28.6554   45.5886 C   0  0  0  0  0  0  0  0  0  0  0  0
   59.2192   29.7771   45.2922 C   0  0  0  0  0  0  0  0  0  0  0  0
   57.8242   29.6815   45.2482 C   0  0  0  0  0  0  0  0  0  0  0  0
   57.2112   28.4374   45.4880 C   0  0  0  0  0  0  0  0  0  0  0  0
   55.5022   25.9428   46.0562 N   0  0  0  0  0  0  0  0  0  0  0  0
   57.2179   25.7450   46.0322 S   0  0  0  0  0  0  0  0  0  0  0  0
   57.6745   25.1582   47.3385 O   0  0  0  0  0  0  0  0  0  0  0  0
   57.5965   24.8038   44.9227 O   0  0  0  0  0  0  0  0  0  0  0  0
   55.0575   25.0367   46.2033 H   0  0  0  0  0  0  0  0  0  0  0  0
 28 29  1  0
 29 30  2  0
 29 31  2  0
 29 22  1  0
 22 23  2  0
 23 24  1  0
 24 25  2  0
 25 26  1  0
 26 21  1  0
 21 19  1  0
 19 20  2  0
 19 18  1  0
 18  1  1  0
  1  2  1  0
  2  3  2  0
  2  4  1  0
  4  5  2  0
  5  6  1  0
  6  7  2  0
  7 10  1  0
 10 11  1  0
 11 12  1  0
 12 13  2  0
 13 14  1  0
 14 15  2  0
 15 16  1  0
 16 17  2  0
  7  8  1  0
  8  9  2  0
 26 27  2  0
 27 22  1  0
  9  4  1  0
 17 12  1  0
 28 32  1  0
M  CHG 1   1  -1
M  CHG 1  21  -1
M  CHG 1  28  -1
M  END
> <UniqueID>
70

> <SMILES>
[NH-]S(=O)(=O)c1cccc([N-]C(=O)C[N-]C(=O)c2ccc(OCc3ccccc3)cc2)c1

> <Energy>
50.85590593364167

> <Genealogy>
[NH-]S(=O)(=O)c1cccc([N-]C(=O)C[N-]C(=O)c2ccc(OCc3ccccc3)cc2)c1 (protonated)
[NH-]S(=O)(=O)c1cccc([N-]C(=O)C[N-]C(=O)c2ccc(OCc3ccccc3)cc2)c1 (3D coordinates assigned)
[NH-]S(=O)(=O)c1cccc([N-]C(=O)C[N-]C(=O)c2ccc(OCc3ccccc3)cc2)c1 (optimized conformer: 50.85590593364167 kcal/mol)

> <smiles>
NS(=O)(=O)c1cccc(NC(=O)CNC(=O)c2ccc(OCc3ccccc3)cc2)c1

> <score_type>
oracle

> <origin>
adg

> <m_score__min__energy>
-14.67

> <m_primary>
energy

> <minimizedAffinity>
-8.08741

> <minimizedRMSD>
1.15848

> <CNNscore>
0.7081316113

> <CNNaffinity>
7.2127375603

> <CNN_VS>
5.1075673103

> <CNNaffinity_variance>
0.0882133245

$$$$
6:0


 24 26  0  0  0  0  0  0  0  0999 V2000
   60.0467   27.7695   45.8440 C   0  0  0  0  0  0  0  0  0  0  0  0
   59.2351   28.9934   45.6519 N   0  0  0  0  0  0  0  0  0  0  0  0
   58.1619   28.9552   44.7909 C   0  0  0  0  0  0  0  0  0  0  0  0
   57.8895   27.9025   44.1459 O   0  0  0  0  0  0  0  0  0  0  0  0
   57.3533   30.0899   44.6130 C   0  0  0  0  0  0  0  0  0  0  0  0
   56.1810   30.0783   43.6783 C   0  0  0  0  0  0  0  0  0  0  0  0
   57.6606   31.2336   45.2682 N   0  0  0  0  0  0  0  0  0  0  0  0
   58.7273   31.3129   46.0976 C   0  0  0  0  0  0  0  0  0  0  0  0
   59.0102   32.5234   46.7414 C   0  0  0  0  0  0  0  0  0  0  0  0
   60.1168   32.6273   47.5835 C   0  0  0  0  0  0  0  0  0  0  0  0
   60.9508   31.5269   47.7798 C   0  0  0  0  0  0  0  0  0  0  0  0
   60.6770   30.3114   47.1454 C   0  0  0  0  0  0  0  0  0  0  0  0
   59.5510   30.1770   46.2961 C   0  0  0  0  0  0  0  0  0  0  0  0
   59.5576   26.9916   47.0375 C   0  0  0  0  0  0  0  0  0  0  0  0
   60.2844   26.9256   48.0640 O   0  0  0  0  0  0  0  0  0  0  0  0
   58.2703   26.3609   47.0601 N   0  0  0  0  0  0  0  0  0  0  0  0
   56.7499   21.8638   43.8239 C   0  0  0  0  0  0  0  0  0  0  0  0
   57.1427   23.0631   44.6348 C   0  0  0  0  0  0  0  0  0  0  0  0
   58.4748   23.2414   45.0337 C   0  0  0  0  0  0  0  0  0  0  0  0
   58.8338   24.3365   45.8210 C   0  0  0  0  0  0  0  0  0  0  0  0
   57.8641   25.2507   46.2492 C   0  0  0  0  0  0  0  0  0  0  0  0
   56.5291   25.0874   45.8341 C   0  0  0  0  0  0  0  0  0  0  0  0
   55.5588   26.0226   46.1769 O   0  0  0  0  0  0  0  0  0  0  0  0
   56.1697   23.9872   45.0476 C   0  0  0  0  0  0  0  0  0  0  0  0
 17 18  1  0
 18 19  2  0
 19 20  1  0
 20 21  2  0
 21 16  1  0
 16 14  1  0
 14 15  2  0
 14  1  1  0
  1  2  1  0
  2  3  1  0
  3  4  2  0
  3  5  1  0
  5  6  1  0
  5  7  2  0
  7  8  1  0
  8  9  2  0
  9 10  1  0
 10 11  2  0
 11 12  1  0
 12 13  2  0
 21 22  1  0
 22 23  1  0
 22 24  2  0
 24 18  1  0
 13  2  1  0
 13  8  1  0
M  CHG 1  16  -1
M  CHG 1  23  -1
M  END
> <UniqueID>
7

> <SMILES>
Cc1ccc([N-]C(=O)Cn2c(=O)c(C)nc3ccccc32)c([O-])c1

> <Energy>
56.038331221102204

> <Genealogy>
Cc1ccc([N-]C(=O)Cn2c(=O)c(C)nc3ccccc32)c([O-])c1 (protonated)
Cc1ccc([N-]C(=O)Cn2c(=O)c(C)nc3ccccc32)c([O-])c1 (3D coordinates assigned)
Cc1ccc([N-]C(=O)Cn2c(=O)c(C)nc3ccccc32)c([O-])c1 (optimized conformer: 56.038331221102204 kcal/mol)

> <smiles>
Cc1ccc(NC(=O)Cn2c(=O)c(C)nc3ccccc32)c(O)c1

> <score_type>
oracle

> <origin>
adg

> <m_score__min__energy>
-14.039999999999999

> <m_primary>
energy

> <minimizedAffinity>
-8.19923

> <minimizedRMSD>
1.37695

> <CNNscore>
0.3449790180

> <CNNaffinity>
6.1592087746

> <CNN_VS>
2.1247978210

> <CNNaffinity_variance>
0.1829637140

$$$$
88:0


 28 30  0  0  0  0  0  0  0  0999 V2000
   59.5008   32.3053   48.3264 C   0  0  0  0  0  0  0  0  0  0  0  0
   59.3313   30.9547   47.9889 C   0  0  0  0  0  0  0  0  0  0  0  0
   58.6700   30.6016   46.8097 C   0  0  0  0  0  0  0  0  0  0  0  0
   58.1953   31.5977   45.9384 C   0  0  0  0  0  0  0  0  0  0  0  0
   58.3557   32.9447   46.2835 C   0  0  0  0  0  0  0  0  0  0  0  0
   59.0170   33.2987   47.4637 C   0  0  0  0  0  0  0  0  0  0  0  0
   61.6028   32.9234   49.5998 C   0  0  0  0  0  0  0  0  0  0  0  0
   62.2024   33.3134   50.8083 C   0  0  0  0  0  0  0  0  0  0  0  0
   61.4405   33.4429   51.9716 C   0  0  0  0  0  0  0  0  0  0  0  0
   60.0709   33.1837   51.9436 C   0  0  0  0  0  0  0  0  0  0  0  0
   59.4561   32.8055   50.7490 C   0  0  0  0  0  0  0  0  0  0  0  0
   60.2055   32.6827   49.5673 C   0  0  0  0  0  0  0  0  0  0  0  0
   64.2920   32.9072   48.5748 N   0  0  0  0  0  0  0  0  0  0  0  0
   62.6231   32.7142   48.1651 S   0  0  0  0  0  0  0  0  0  0  0  0
   62.2511   33.7332   47.1255 O   0  0  0  0  0  0  0  0  0  0  0  0
   62.4379   31.3328   47.6042 O   0  0  0  0  0  0  0  0  0  0  0  0
   64.8637   32.7838   47.7392 H   0  0  0  0  0  0  0  0  0  0  0  0
   57.4861   31.2674   44.7362 N   0  0  0  0  0  0  0  0  0  0  0  0
   56.8398   30.0215   44.4450 C   0  0  0  0  0  0  0  0  0  0  0  0
   55.6021   29.9186   44.6495 O   0  0  0  0  0  0  0  0  0  0  0  0
   57.5897   28.8580   43.8557 C   0  0  0  0  0  0  0  0  0  0  0  0
   58.2823   28.0793   44.9318 C   0  0  0  0  0  0  0  0  0  0  0  0
   59.9437   28.0960   45.2208 S   0  0  0  0  0  0  0  0  0  0  0  0
   59.8218   26.9525   46.4478 C   0  0  0  0  0  0  0  0  0  0  0  0
   60.7991   26.5197   47.1125 O   0  0  0  0  0  0  0  0  0  0  0  0
   58.5540   26.5371   46.6508 N   0  0  0  0  0  0  0  0  0  0  0  0
   57.6972   27.1608   45.7997 C   0  0  0  0  0  0  0  0  0  0  0  0
   56.3345   26.8852   45.8061 O   0  0  0  0  0  0  0  0  0  0  0  0
 13 14  1  0
 14 15  2  0
 14 16  2  0
 14  7  1  0
  7  8  2  0
  8  9  1  0
  9 10  2  0
 10 11  1  0
 11 12  2  0
 12  1  1  0
  1  2  2  0
  2  3  1  0
  3  4  2  0
  4 18  1  0
 18 19  1  0
 19 20  2  0
 19 21  1  0
 21 22  1  0
 22 23  1  0
 23 24  1  0
 24 25  2  0
 24 26  1  0
 26 27  1  0
 27 28  1  0
  4  5  1  0
  5  6  2  0
 12  7  1  0
  6  1  1  0
 27 22  2  0
 13 17  1  0
M  CHG 1  13  -1
M  CHG 1  18  -1
M  CHG 1  26  -1
M  CHG 1  28  -1
M  END
> <UniqueID>
78

> <SMILES>
[NH-]S(=O)(=O)c1ccccc1-c1ccc([N-]C(=O)Cc2sc(=O)[n-]c2[O-])cc1

> <Energy>
83.70952467096944

> <Genealogy>
[NH-]S(=O)(=O)c1ccccc1-c1ccc([N-]C(=O)Cc2sc(=O)[n-]c2[O-])cc1 (protonated)
[NH-]S(=O)(=O)c1ccccc1-c1ccc([N-]C(=O)Cc2sc(=O)[n-]c2[O-])cc1 (3D coordinates assigned)
[NH-]S(=O)(=O)c1ccccc1-c1ccc([N-]C(=O)Cc2sc(=O)[n-]c2[O-])cc1 (optimized conformer: 83.70952467096944 kcal/mol)

> <smiles>
NS(=O)(=O)c1ccccc1-c1ccc(NC(=O)Cc2sc(=O)[nH]c2O)cc1

> <score_type>
oracle

> <origin>
adg

> <m_score__min__energy>
-17.48

> <m_primary>
energy

> <minimizedAffinity>
-6.89704

> <minimizedRMSD>
0.99097

> <CNNscore>
0.8297743201

> <CNNaffinity>
6.6435642242

> <CNN_VS>
5.5126590729

> <CNNaffinity_variance>
0.1020695493

$$$$
93:0


 30 32  0  0  0  0  0  0  0  0999 V2000
   58.8773   28.0185   45.2861 C   0  0  0  0  0  0  0  0  0  0  0  0
   57.8833   26.9867   44.9902 N   0  0  0  0  0  0  0  0  0  0  0  0
   57.7966   25.7626   45.7304 C   0  0  0  0  0  0  0  0  0  0  0  0
   58.6221   25.5138   46.6504 O   0  0  0  0  0  0  0  0  0  0  0  0
   57.2486   27.1393   44.2532 H   0  0  0  0  0  0  0  0  0  0  0  0
   56.7238   24.7901   45.4311 C   0  0  0  0  0  0  0  0  0  0  0  0
   55.3922   25.1304   45.7391 C   0  0  0  0  0  0  0  0  0  0  0  0
   55.0926   26.3619   46.3096 O   0  0  0  0  0  0  0  0  0  0  0  0
   54.3497   24.2440   45.4636 C   0  0  0  0  0  0  0  0  0  0  0  0
   54.6143   23.0058   44.8814 C   0  0  0  0  0  0  0  0  0  0  0  0
   55.9293   22.6331   44.5765 C   0  0  0  0  0  0  0  0  0  0  0  0
   56.1893   21.3745   44.0140 C   0  0  0  0  0  0  0  0  0  0  0  0
   57.4999   20.9858   43.7325 C   0  0  0  0  0  0  0  0  0  0  0  0
   58.5592   21.8469   44.0093 C   0  0  0  0  0  0  0  0  0  0  0  0
   58.3204   23.1061   44.5636 C   0  0  0  0  0  0  0  0  0  0  0  0
   57.0021   23.5246   44.8509 C   0  0  0  0  0  0  0  0  0  0  0  0
   58.5912   28.7008   46.6290 C   0  0  0  0  0  0  0  0  0  0  0  0
   60.9201   32.3046   47.1873 C   0  0  0  0  0  0  0  0  0  0  0  0
   61.4542   31.0474   47.5235 C   0  0  0  0  0  0  0  0  0  0  0  0
   60.7044   29.8851   47.3317 C   0  0  0  0  0  0  0  0  0  0  0  0
   59.4102   29.9560   46.7974 C   0  0  0  0  0  0  0  0  0  0  0  0
   58.8774   31.2061   46.4515 C   0  0  0  0  0  0  0  0  0  0  0  0
   59.6247   32.3786   46.6392 C   0  0  0  0  0  0  0  0  0  0  0  0
   58.9321   33.9457   46.2146 S   0  0  0  0  0  0  0  0  0  0  0  0
   59.3193   35.0975   47.4423 N   0  0  0  0  0  0  0  0  0  0  0  0
   57.4346   33.8456   46.0895 O   0  0  0  0  0  0  0  0  0  0  0  0
   59.4978   34.4019   44.8986 O   0  0  0  0  0  0  0  0  0  0  0  0
   58.9347   34.7862   48.3341 H   0  0  0  0  0  0  0  0  0  0  0  0
   63.0457   33.6286   47.1847 C   0  0  0  0  0  0  0  0  0  0  0  0
   61.6417   33.4919   47.3869 O   0  0  0  0  0  0  0  0  0  0  0  0
 29 30  1  0
 30 18  1  0
 18 19  2  0
 19 20  1  0
 20 21  2  0
 21 17  1  0
 17  1  1  0
  1  2  1  0
  2  3  1  0
  3  4  2  0
  3  6  1  0
  6  7  2  0
  7  8  1  0
  7  9  1  0
  9 10  2  0
 10 11  1  0
 11 12  2  0
 12 13  1  0
 13 14  2  0
 14 15  1  0
 15 16  2  0
 21 22  1  0
 22 23  2  0
 23 24  1  0
 24 25  1  0
 24 26  2  0
 24 27  2  0
 23 18  1  0
 16  6  1  0
 16 11  1  0
  2  5  1  0
 25 28  1  0
M  CHG 1   8  -1
M  CHG 1  25  -1
M  END
> <UniqueID>
83

> <SMILES>
COc1ccc(CCNC(=O)c2c([O-])ccc3ccccc23)cc1S([NH-])(=O)=O

> <Energy>
53.85161205297324

> <Genealogy>
COc1ccc(CCNC(=O)c2c([O-])ccc3ccccc23)cc1S([NH-])(=O)=O (protonated)
COc1ccc(CCNC(=O)c2c([O-])ccc3ccccc23)cc1S([NH-])(=O)=O (3D coordinates assigned)
COc1ccc(CCNC(=O)c2c([O-])ccc3ccccc23)cc1S([NH-])(=O)=O (optimized conformer: 53.85161205297324 kcal/mol)

> <smiles>
COc1ccc(CCNC(=O)c2c(O)ccc3ccccc23)cc1S(N)(=O)=O

> <score_type>
oracle

> <origin>
adg

> <m_score__min__energy>
-14.630000000000001

> <m_primary>
energy

> <minimizedAffinity>
-6.44021

> <minimizedRMSD>
0.65666

> <CNNscore>
0.2583347559

> <CNNaffinity>
5.8169655800

> <CNN_VS>
1.5027244091

> <CNNaffinity_variance>
0.5601190329

$$$$
23:0


 35 38  0  0  0  0  0  0  0  0999 V2000
   57.3505   22.3272   44.0628 C   0  0  0  0  0  0  0  0  0  0  0  0
   58.4447   22.3895   44.9298 C   0  0  0  0  0  0  0  0  0  0  0  0
   58.8782   23.6278   45.3950 C   0  0  0  0  0  0  0  0  0  0  0  0
   58.2193   24.7914   44.9714 C   0  0  0  0  0  0  0  0  0  0  0  0
   57.1825   24.6727   44.0988 N   0  0  0  0  0  0  0  0  0  0  0  0
   56.7650   23.4849   43.6577 N   0  0  0  0  0  0  0  0  0  0  0  0
   58.6331   26.0981   45.4195 N   0  0  0  0  0  0  0  0  0  0  0  0
   57.8248   27.2901   45.1062 C   0  0  0  0  0  0  0  0  0  0  0  0
   58.7276   28.5109   44.9088 C   0  0  0  0  0  0  0  0  0  0  0  0
   59.6650   28.6055   46.0320 N   0  0  0  0  0  0  0  0  0  0  0  0
   59.5072   29.6044   47.0620 C   0  0  0  0  0  0  0  0  0  0  0  0
   60.2686   29.5991   48.0670 O   0  0  0  0  0  0  0  0  0  0  0  0
   60.5373   27.4439   46.2281 C   0  0  0  0  0  0  0  0  0  0  0  0
   59.6722   26.2036   46.4595 C   0  0  0  0  0  0  0  0  0  0  0  0
   58.5206   30.6357   46.9225 N   0  0  0  0  0  0  0  0  0  0  0  0
   58.7215   31.9421   46.3610 C   0  0  0  0  0  0  0  0  0  0  0  0
   57.9243   32.4328   45.3103 C   0  0  0  0  0  0  0  0  0  0  0  0
   58.1720   33.7013   44.7735 C   0  0  0  0  0  0  0  0  0  0  0  0
   59.2215   34.4795   45.2702 C   0  0  0  0  0  0  0  0  0  0  0  0
   60.0300   33.9875   46.2974 C   0  0  0  0  0  0  0  0  0  0  0  0
   59.7866   32.7199   46.8353 C   0  0  0  0  0  0  0  0  0  0  0  0
   57.4062   20.5738   42.4958 O   0  0  0  0  0  0  0  0  0  0  0  0
   56.8612   21.0455   43.5276 C   0  0  0  0  0  0  0  0  0  0  0  0
   55.7636   20.3311   44.1131 N   0  0  0  0  0  0  0  0  0  0  0  0
   55.8382   19.3888   45.2299 C   0  0  0  0  0  0  0  0  0  0  0  0
   55.0585   19.8917   46.4513 C   0  0  0  0  0  0  0  0  0  0  0  0
   55.3761   21.3317   46.7611 C   0  0  0  0  0  0  0  0  0  0  0  0
   56.3782   21.6489   47.6930 C   0  0  0  0  0  0  0  0  0  0  0  0
   56.6586   22.9840   47.9998 C   0  0  0  0  0  0  0  0  0  0  0  0
   55.9337   24.0146   47.3858 C   0  0  0  0  0  0  0  0  0  0  0  0
   56.2066   25.3469   47.6896 O   0  0  0  0  0  0  0  0  0  0  0  0
   54.9292   23.7028   46.4625 C   0  0  0  0  0  0  0  0  0  0  0  0
   54.2026   24.7178   45.8515 O   0  0  0  0  0  0  0  0  0  0  0  0
   54.6500   22.3676   46.1527 C   0  0  0  0  0  0  0  0  0  0  0  0
   56.8786   25.5585   48.3074 H   0  0  0  0  0  0  0  0  0  0  0  0
 22 23  2  0
 23 24  1  0
 24 25  1  0
 25 26  1  0
 26 27  1  0
 27 28  2  0
 28 29  1  0
 29 30  2  0
 30 31  1  0
 30 32  1  0
 32 33  1  0
 32 34  2  0
 23  1  1  0
  1  2  2  0
  2  3  1  0
  3  4  2  0
  4  7  1  0
  7  8  1  0
  8  9  1  0
  9 10  1  0
 10 11  1  0
 11 12  2  0
 11 15  1  0
 15 16  1  0
 16 17  2  0
 17 18  1  0
 18 19  2  0
 19 20  1  0
 20 21  2  0
 10 13  1  0
 13 14  1  0
  4  5  1  0
  5  6  2  0
 34 27  1  0
  6  1  1  0
 14  7  1  0
 21 16  1  0
 31 35  1  0
M  CHG 1  15  -1
M  CHG 1  24  -1
M  CHG 1  33  -1
M  END
> <UniqueID>
23

> <SMILES>
O=C([N-]CCc1ccc(O)c([O-])c1)c1ccc(N2CCN(C(=O)[N-]c3ccccc3)CC2)nn1

> <Energy>
69.59169776424164

> <Genealogy>
O=C([N-]CCc1ccc(O)c([O-])c1)c1ccc(N2CCN(C(=O)[N-]c3ccccc3)CC2)nn1 (protonated)
O=C([N-]CCc1ccc(O)c([O-])c1)c1ccc(N2CCN(C(=O)[N-]c3ccccc3)CC2)nn1 (3D coordinates assigned)
O=C([N-]CCc1ccc(O)c([O-])c1)c1ccc(N2CCN(C(=O)[N-]c3ccccc3)CC2)nn1 (nonaromatic ring conformer: 69.59169776424164 kcal/mol)

> <smiles>
O=C(NCCc1ccc(O)c(O)c1)c1ccc(N2CCN(C(=O)Nc3ccccc3)CC2)nn1

> <score_type>
oracle

> <origin>
adg

> <m_score__min__energy>
-15.98

> <m_primary>
energy

> <minimizedAffinity>
-6.19054

> <minimizedRMSD>
0.94659

> <CNNscore>
0.1087857038

> <CNNaffinity>
6.2618451118

> <CNN_VS>
0.6811992526

> <CNNaffinity_variance>
0.0565576218

$$$$
43:0


 31 33  0  0  0  0  0  0  0  0999 V2000
   57.7656   29.9237   45.7523 N   0  0  0  0  0  0  0  0  0  0  0  0
   58.4056   28.6563   45.9595 C   0  0  0  0  0  0  0  0  0  0  0  0
   59.7822   28.5493   46.2251 C   0  0  0  0  0  0  0  0  0  0  0  0
   60.3601   27.2968   46.4501 C   0  0  0  0  0  0  0  0  0  0  0  0
   59.5697   26.1449   46.4306 C   0  0  0  0  0  0  0  0  0  0  0  0
   58.1924   26.2423   46.1948 C   0  0  0  0  0  0  0  0  0  0  0  0
   57.6161   27.4986   45.9648 C   0  0  0  0  0  0  0  0  0  0  0  0
   57.1758   24.8047   46.1694 S   0  0  0  0  0  0  0  0  0  0  0  0
   55.7421   25.2391   46.0404 O   0  0  0  0  0  0  0  0  0  0  0  0
   57.3357   24.0412   47.4556 O   0  0  0  0  0  0  0  0  0  0  0  0
   57.6336   23.8090   44.8047 N   0  0  0  0  0  0  0  0  0  0  0  0
   57.8214   22.3934   45.1928 C   0  0  0  0  0  0  0  0  0  0  0  0
   56.6009   21.5162   44.8568 C   0  0  0  0  0  0  0  0  0  0  0  0
   55.4132   22.2693   44.9665 O   0  0  0  0  0  0  0  0  0  0  0  0
   55.3501   23.2385   43.9349 C   0  0  0  0  0  0  0  0  0  0  0  0
   56.6937   23.9613   43.6794 C   0  0  0  0  0  0  0  0  0  0  0  0
   55.6937   29.7131   44.6743 O   0  0  0  0  0  0  0  0  0  0  0  0
   56.8344   30.2480   44.7134 C   0  0  0  0  0  0  0  0  0  0  0  0
   57.2240   31.2400   43.6622 C   0  0  0  0  0  0  0  0  0  0  0  0
   58.3382   32.0638   44.1265 N   0  0  0  0  0  0  0  0  0  0  0  0
   58.1473   33.1065   45.0928 C   0  0  0  0  0  0  0  0  0  0  0  0
   57.0004   33.3320   45.5673 O   0  0  0  0  0  0  0  0  0  0  0  0
   59.2403   31.8993   43.7681 H   0  0  0  0  0  0  0  0  0  0  0  0
   59.2981   33.9715   45.5018 C   0  0  0  0  0  0  0  0  0  0  0  0
   59.8745   33.4801   46.8005 C   0  0  0  0  0  0  0  0  0  0  0  0
   59.8691   34.3041   47.9376 C   0  0  0  0  0  0  0  0  0  0  0  0
   60.3766   33.8333   49.1535 C   0  0  0  0  0  0  0  0  0  0  0  0
   60.8858   32.5336   49.2429 C   0  0  0  0  0  0  0  0  0  0  0  0
   61.3934   32.0675   50.4507 O   0  0  0  0  0  0  0  0  0  0  0  0
   60.8819   31.7019   48.1188 C   0  0  0  0  0  0  0  0  0  0  0  0
   60.3734   32.1705   46.9030 C   0  0  0  0  0  0  0  0  0  0  0  0
 17 18  2  0
 18 19  1  0
 19 20  1  0
 20 21  1  0
 21 22  2  0
 21 24  1  0
 24 25  1  0
 25 26  2  0
 26 27  1  0
 27 28  2  0
 28 29  1  0
 28 30  1  0
 30 31  2  0
 18  1  1  0
  1  2  1  0
  2  3  2  0
  3  4  1  0
  4  5  2  0
  5  6  1  0
  6  8  1  0
  8  9  2  0
  8 10  2  0
  8 11  1  0
 11 12  1  0
 12 13  1  0
 13 14  1  0
 14 15  1  0
 15 16  1  0
  6  7  2  0
 31 25  1  0
  7  2  1  0
 16 11  1  0
 20 23  1  0
M  CHG 1   1  -1
M  CHG 1  29  -1
M  END
> <UniqueID>
41

> <SMILES>
O=C(CNC(=O)Cc1ccc([O-])cc1)[N-]c1cccc(S(=O)(=O)N2CCOCC2)c1

> <Energy>
61.331139786102774

> <Genealogy>
O=C(CNC(=O)Cc1ccc([O-])cc1)[N-]c1cccc(S(=O)(=O)N2CCOCC2)c1 (protonated)
O=C(CNC(=O)Cc1ccc([O-])cc1)[N-]c1cccc(S(=O)(=O)N2CCOCC2)c1 (3D coordinates assigned)
O=C(CNC(=O)Cc1ccc([O-])cc1)[N-]c1cccc(S(=O)(=O)N2CCOCC2)c1 (nonaromatic ring conformer: 61.331139786102774 kcal/mol)

> <smiles>
O=C(Cc1ccc(O)cc1)NCC(=O)Nc1cccc(S(=O)(=O)N2CCOCC2)c1

> <score_type>
oracle

> <origin>
adg

> <m_score__min__energy>
-14.42

> <m_primary>
energy

> <minimizedAffinity>
-8.94897

> <minimizedRMSD>
1.35087

> <CNNscore>
0.5725897551

> <CNNaffinity>
6.6010875702

> <CNN_VS>
3.7797150612

> <CNNaffinity_variance>
0.0204876643

$$$$
74:0


 30 32  0  0  0  0  0  0  0  0999 V2000
   57.5511   30.6338   44.9023 C   0  0  0  0  0  0  0  0  0  0  0  0
   58.8074   30.1561   45.2969 C   0  0  0  0  0  0  0  0  0  0  0  0
   59.0362   28.7817   45.4402 C   0  0  0  0  0  0  0  0  0  0  0  0
   57.9888   27.8779   45.2097 C   0  0  0  0  0  0  0  0  0  0  0  0
   56.7235   28.3480   44.8519 C   0  0  0  0  0  0  0  0  0  0  0  0
   56.4931   29.7211   44.7134 C   0  0  0  0  0  0  0  0  0  0  0  0
   55.2064   30.1624   44.4297 O   0  0  0  0  0  0  0  0  0  0  0  0
   60.6200   28.2056   45.9527 S   0  0  0  0  0  0  0  0  0  0  0  0
   61.6458   28.7115   44.9748 O   0  0  0  0  0  0  0  0  0  0  0  0
   60.6456   26.7024   45.9295 O   0  0  0  0  0  0  0  0  0  0  0  0
   60.9820   28.8192   47.5540 N   0  0  0  0  0  0  0  0  0  0  0  0
   60.5494   30.2194   47.7363 C   0  0  0  0  0  0  0  0  0  0  0  0
   59.0561   30.3284   48.0839 C   0  0  0  0  0  0  0  0  0  0  0  0
   58.7469   29.5429   49.2168 O   0  0  0  0  0  0  0  0  0  0  0  0
   58.9869   28.1812   48.9250 C   0  0  0  0  0  0  0  0  0  0  0  0
   60.4759   27.9364   48.6234 C   0  0  0  0  0  0  0  0  0  0  0  0
   57.3669   32.0512   44.7760 N   0  0  0  0  0  0  0  0  0  0  0  0
   58.1995   33.0562   45.3633 C   0  0  0  0  0  0  0  0  0  0  0  0
   58.8934   33.8193   44.6370 O   0  0  0  0  0  0  0  0  0  0  0  0
   58.2405   33.1978   46.8506 C   0  0  0  0  0  0  0  0  0  0  0  0
   59.2232   34.1614   47.2227 O   0  0  0  0  0  0  0  0  0  0  0  0
   60.7847   33.7234   49.0088 C   0  0  0  0  0  0  0  0  0  0  0  0
   62.0868   33.4096   49.4475 C   0  0  0  0  0  0  0  0  0  0  0  0
   63.1172   33.2285   48.5215 C   0  0  0  0  0  0  0  0  0  0  0  0
   62.8638   33.3591   47.1561 C   0  0  0  0  0  0  0  0  0  0  0  0
   61.5782   33.6685   46.7080 C   0  0  0  0  0  0  0  0  0  0  0  0
   60.5299   33.8527   47.6329 C   0  0  0  0  0  0  0  0  0  0  0  0
   59.7153   33.9211   49.9008 O   0  0  0  0  0  0  0  0  0  0  0  0
   58.6002   32.3065   51.3360 C   0  0  0  0  0  0  0  0  0  0  0  0
   59.6393   33.4180   51.2358 C   0  0  0  0  0  0  0  0  0  0  0  0
 29 30  1  0
 30 28  1  0
 28 22  1  0
 22 23  2  0
 23 24  1  0
 24 25  2  0
 25 26  1  0
 26 27  2  0
 27 21  1  0
 21 20  1  0
 20 18  1  0
 18 19  2  0
 18 17  1  0
 17  1  1  0
  1  2  2  0
  2  3  1  0
  3  8  1  0
  8  9  2  0
  8 10  2  0
  8 11  1  0
 11 12  1  0
 12 13  1  0
 13 14  1  0
 14 15  1  0
 15 16  1  0
  3  4  2  0
  4  5  1  0
  5  6  2  0
  6  7  1  0
 27 22  1  0
  6  1  1  0
 16 11  1  0
M  CHG 1   7  -1
M  CHG 1  17  -1
M  END
> <UniqueID>
69

> <SMILES>
CCOc1ccccc1OCC(=O)[N-]c1cc(S(=O)(=O)N2CCOCC2)ccc1[O-]

> <Energy>
60.511085358249204

> <Genealogy>
CCOc1ccccc1OCC(=O)[N-]c1cc(S(=O)(=O)N2CCOCC2)ccc1[O-] (protonated)
CCOc1ccccc1OCC(=O)[N-]c1cc(S(=O)(=O)N2CCOCC2)ccc1[O-] (3D coordinates assigned)
CCOc1ccccc1OCC(=O)[N-]c1cc(S(=O)(=O)N2CCOCC2)ccc1[O-] (nonaromatic ring conformer: 60.511085358249204 kcal/mol)

> <smiles>
CCOc1ccccc1OCC(=O)Nc1cc(S(=O)(=O)N2CCOCC2)ccc1O

> <score_type>
oracle

> <origin>
adg

> <m_score__min__energy>
-14.050000000000001

> <m_primary>
energy

> <minimizedAffinity>
-4.96372

> <minimizedRMSD>
0.76652

> <CNNscore>
0.6667787433

> <CNNaffinity>
5.5735225677

> <CNN_VS>
3.7163064480

> <CNNaffinity_variance>
0.3849880695

$$$$
75:0


 29 33  0  0  0  0  0  0  0  0999 V2000
   58.4614   27.1816   44.7536 C   0  0  0  0  0  0  0  0  0  0  0  0
   58.1323   28.4603   45.0015 C   0  0  0  0  0  0  0  0  0  0  0  0
   57.0241   29.1203   44.4765 C   0  0  0  0  0  0  0  0  0  0  0  0
   56.9690   30.3878   44.9477 N   0  0  0  0  0  0  0  0  0  0  0  0
   58.0040   30.5477   45.7586 N   0  0  0  0  0  0  0  0  0  0  0  0
   58.3473   31.6388   46.5024 C   0  0  0  0  0  0  0  0  0  0  0  0
   57.6832   32.7599   46.4740 N   0  0  0  0  0  0  0  0  0  0  0  0
   59.4315   31.5364   47.3162 N   0  0  0  0  0  0  0  0  0  0  0  0
   60.1579   30.3773   47.3851 C   0  0  0  0  0  0  0  0  0  0  0  0
   61.1777   30.2676   48.1859 N   0  0  0  0  0  0  0  0  0  0  0  0
   59.7844   29.3011   46.6391 N   0  0  0  0  0  0  0  0  0  0  0  0
   58.7166   29.4152   45.8182 C   0  0  0  0  0  0  0  0  0  0  0  0
   57.9232   26.0001   45.4563 C   0  0  0  0  0  0  0  0  0  0  0  0
   58.5369   24.8073   45.5650 N   0  0  0  0  0  0  0  0  0  0  0  0
   57.6229   24.0379   46.1928 C   0  0  0  0  0  0  0  0  0  0  0  0
   57.8380   22.8341   46.4868 O   0  0  0  0  0  0  0  0  0  0  0  0
   56.4564   24.6583   46.4717 N   0  0  0  0  0  0  0  0  0  0  0  0
   56.6608   25.8950   45.9904 C   0  0  0  0  0  0  0  0  0  0  0  0
   55.7105   26.9064   46.0336 O   0  0  0  0  0  0  0  0  0  0  0  0
   62.1050   31.3038   48.5516 C   0  0  0  0  0  0  0  0  0  0  0  0
   62.6759   32.1680   47.5970 C   0  0  0  0  0  0  0  0  0  0  0  0
   63.6016   33.1392   47.9911 C   0  0  0  0  0  0  0  0  0  0  0  0
   63.9796   33.2433   49.3325 C   0  0  0  0  0  0  0  0  0  0  0  0
   63.4416   32.3691   50.2800 C   0  0  0  0  0  0  0  0  0  0  0  0
   63.8201   32.4601   51.5791 F   0  0  0  0  0  0  0  0  0  0  0  0
   62.5157   31.3955   49.8888 C   0  0  0  0  0  0  0  0  0  0  0  0
   58.2057   34.0714   46.1102 C   0  0  0  0  0  0  0  0  0  0  0  0
   59.7216   34.1429   46.0722 C   0  0  0  0  0  0  0  0  0  0  0  0
   58.9305   34.0556   44.7761 C   0  0  0  0  0  0  0  0  0  0  0  0
  1 13  1  0
 13 14  1  0
 14 15  1  0
 15 16  2  0
 15 17  1  0
 17 18  1  0
 18 19  1  0
  1  2  2  0
  2  3  1  0
  3  4  2  0
  4  5  1  0
  5  6  1  0
  6  7  2  0
  7 27  1  0
 27 28  1  0
 28 29  1  0
  6  8  1  0
  8  9  1  0
  9 10  2  0
 10 20  1  0
 20 21  2  0
 21 22  1  0
 22 23  2  0
 23 24  1  0
 24 25  1  0
 24 26  2  0
  9 11  1  0
 11 12  2  0
 18 13  2  0
 12  2  1  0
 12  5  1  0
 29 27  1  0
 26 20  1  0
M  CHG 1   8  -1
M  CHG 1  14  -1
M  CHG 1  17  -1
M  CHG 1  19  -1
M  END
> <UniqueID>
70

> <SMILES>
O=c1[n-]c([O-])c(C=c2cnn3c(=NC4CC4)[n-]/c(=N\c4cccc(F)c4)nc23)[n-]1

> <Energy>
392.0809484045386

> <Genealogy>
O=c1[n-]c([O-])c(C=c2cnn3c(=NC4CC4)[n-]c(=Nc4cccc(F)c4)nc23)[n-]1 (protonated)
O=c1[n-]c([O-])c(C=c2cnn3c(=NC4CC4)[n-]/c(=N\c4cccc(F)c4)nc23)[n-]1 (cis-trans isomerization)
O=c1[n-]c([O-])c(C=c2cnn3c(=NC4CC4)[n-]/c(=N\c4cccc(F)c4)nc23)[n-]1 (3D coordinates assigned)
O=c1[n-]c([O-])c(C=c2cnn3c(=NC4CC4)[n-]/c(=N\c4cccc(F)c4)nc23)[n-]1 (nonaromatic ring conformer: 392.0809484045386 kcal/mol)

> <smiles>
O=c1[nH]c(O)c(C=c2cnn3c(=NC4CC4)[nH]c(=Nc4cccc(F)c4)nc23)[nH]1

> <score_type>
oracle

> <origin>
adg

> <m_score__min__energy>
-17.609999999999999

> <m_primary>
energy

> <minimizedAffinity>
-9.37809

> <minimizedRMSD>
1.12966

> <CNNscore>
0.3475641608

> <CNNaffinity>
6.7177162170

> <CNN_VS>
2.3348374367

> <CNNaffinity_variance>
0.0367009640

$$$$
24:0


 29 31  0  0  0  0  0  0  0  0999 V2000
   58.8742   27.2683   46.3572 C   0  0  0  0  0  0  0  0  0  0  0  0
   60.2138   27.5416   46.0321 C   0  0  0  0  0  0  0  0  0  0  0  0
   60.5277   28.5404   45.1061 C   0  0  0  0  0  0  0  0  0  0  0  0
   59.5109   29.2880   44.5094 C   0  0  0  0  0  0  0  0  0  0  0  0
   58.1712   29.0447   44.8419 C   0  0  0  0  0  0  0  0  0  0  0  0
   57.8567   28.0299   45.7537 C   0  0  0  0  0  0  0  0  0  0  0  0
   56.8822   30.0250   44.1494 S   0  0  0  0  0  0  0  0  0  0  0  0
   55.6314   29.8065   44.9530 O   0  0  0  0  0  0  0  0  0  0  0  0
   56.6216   29.6129   42.7264 O   0  0  0  0  0  0  0  0  0  0  0  0
   57.3017   31.7159   44.2048 N   0  0  0  0  0  0  0  0  0  0  0  0
   57.2477   32.2412   45.5719 C   0  0  0  0  0  0  0  0  0  0  0  0
   58.6063   32.7266   46.0163 C   0  0  0  0  0  0  0  0  0  0  0  0
   59.1056   33.9284   45.4866 C   0  0  0  0  0  0  0  0  0  0  0  0
   60.3358   34.4336   45.9122 C   0  0  0  0  0  0  0  0  0  0  0  0
   61.0830   33.7411   46.8647 C   0  0  0  0  0  0  0  0  0  0  0  0
   60.6047   32.5407   47.3943 C   0  0  0  0  0  0  0  0  0  0  0  0
   59.3634   32.0184   46.9776 C   0  0  0  0  0  0  0  0  0  0  0  0
   58.8543   30.8200   47.5038 O   0  0  0  0  0  0  0  0  0  0  0  0
   59.3959   30.1353   48.6278 C   0  0  0  0  0  0  0  0  0  0  0  0
   58.5487   26.2328   47.3691 C   0  0  0  0  0  0  0  0  0  0  0  0
   59.2228   26.1780   48.4313 O   0  0  0  0  0  0  0  0  0  0  0  0
   57.9720   22.7996   44.7524 C   0  0  0  0  0  0  0  0  0  0  0  0
   58.1736   23.6381   45.8024 N   0  0  0  0  0  0  0  0  0  0  0  0
   57.2323   24.5438   46.1971 C   0  0  0  0  0  0  0  0  0  0  0  0
   57.4423   25.3313   47.2136 N   0  0  0  0  0  0  0  0  0  0  0  0
   56.0070   24.6056   45.5149 C   0  0  0  0  0  0  0  0  0  0  0  0
   55.0225   25.5075   45.9006 O   0  0  0  0  0  0  0  0  0  0  0  0
   55.7816   23.7499   44.4312 C   0  0  0  0  0  0  0  0  0  0  0  0
   56.7697   22.8428   44.0449 C   0  0  0  0  0  0  0  0  0  0  0  0
 22 23  1  0
 23 24  1  0
 24 25  2  0
 25 20  1  0
 20 21  2  0
 20  1  1  0
  1  2  2  0
  2  3  1  0
  3  4  2  0
  4  5  1  0
  5  7  1  0
  7  8  2  0
  7  9  2  0
  7 10  1  0
 10 11  1  0
 11 12  1  0
 12 13  2  0
 13 14  1  0
 14 15  2  0
 15 16  1  0
 16 17  2  0
 17 18  1  0
 18 19  1  0
  5  6  2  0
 24 26  1  0
 26 27  1  0
 26 28  2  0
 28 29  1  0
 29 22  2  0
  6  1  1  0
 17 12  1  0
M  CHG 1  10  -1
M  CHG 1  23  -1
M  CHG 1  27  -1
M  END
> <UniqueID>
23

> <SMILES>
COc1ccccc1C[N-]S(=O)(=O)c1cccc(C(=O)/N=c2\[n-]cccc2[O-])c1

> <Energy>
50.51544596183341

> <Genealogy>
COc1ccccc1C[N-]S(=O)(=O)c1cccc(C(=O)N=c2[n-]cccc2[O-])c1 (protonated)
COc1ccccc1C[N-]S(=O)(=O)c1cccc(C(=O)/N=c2\[n-]cccc2[O-])c1 (cis-trans isomerization)
COc1ccccc1C[N-]S(=O)(=O)c1cccc(C(=O)/N=c2\[n-]cccc2[O-])c1 (3D coordinates assigned)
COc1ccccc1C[N-]S(=O)(=O)c1cccc(C(=O)/N=c2\[n-]cccc2[O-])c1 (optimized conformer: 50.51544596183341 kcal/mol)

> <smiles>
COc1ccccc1CNS(=O)(=O)c1cccc(C(=O)N=c2[nH]cccc2O)c1

> <score_type>
oracle

> <origin>
adg

> <m_score__min__energy>
-15.99

> <m_primary>
energy

> <minimizedAffinity>
-7.40843

> <minimizedRMSD>
0.83811

> <CNNscore>
0.5537966490

> <CNNaffinity>
6.6054301262

> <CNN_VS>
3.6580650806

> <CNNaffinity_variance>
0.0307612736

$$$$
32:0


 30 33  0  0  0  0  0  0  0  0999 V2000
   57.7369   25.6020   46.4530 N   0  0  0  0  0  0  0  0  0  0  0  0
   57.6370   24.2227   46.0633 C   0  0  0  0  0  0  0  0  0  0  0  0
   58.6151   23.6564   45.5054 O   0  0  0  0  0  0  0  0  0  0  0  0
   56.9544   26.0366   46.8629 H   0  0  0  0  0  0  0  0  0  0  0  0
   56.3881   23.4573   46.2917 C   0  0  0  0  0  0  0  0  0  0  0  0
   55.1275   24.0729   46.1779 C   0  0  0  0  0  0  0  0  0  0  0  0
   55.0203   25.4285   45.8886 O   0  0  0  0  0  0  0  0  0  0  0  0
   53.9947   23.3507   46.3770 N   0  0  0  0  0  0  0  0  0  0  0  0
   54.0224   22.0357   46.7093 C   0  0  0  0  0  0  0  0  0  0  0  0
   55.2501   21.3756   46.8787 C   0  0  0  0  0  0  0  0  0  0  0  0
   56.4394   22.0911   46.6434 C   0  0  0  0  0  0  0  0  0  0  0  0
   57.5516   21.5046   46.7336 O   0  0  0  0  0  0  0  0  0  0  0  0
   55.2697   19.8912   47.1919 C   0  0  0  0  0  0  0  0  0  0  0  0
   54.0359   19.3760   47.9837 C   0  0  0  0  0  0  0  0  0  0  0  0
   52.8887   20.3938   48.1501 C   0  0  0  0  0  0  0  0  0  0  0  0
   52.7443   21.2881   46.9211 C   0  0  0  0  0  0  0  0  0  0  0  0
   58.9569   26.3838   46.2636 C   0  0  0  0  0  0  0  0  0  0  0  0
   58.8114   27.3187   45.0649 C   0  0  0  0  0  0  0  0  0  0  0  0
   57.3354   31.3696   44.8386 C   0  0  0  0  0  0  0  0  0  0  0  0
   57.8065   32.2774   45.7248 N   0  0  0  0  0  0  0  0  0  0  0  0
   58.9105   32.0398   46.4788 C   0  0  0  0  0  0  0  0  0  0  0  0
   59.3461   33.0451   47.3520 C   0  0  0  0  0  0  0  0  0  0  0  0
   60.5024   32.8672   48.1075 C   0  0  0  0  0  0  0  0  0  0  0  0
   61.0550   34.1384   49.1826 Cl  0  0  0  0  0  0  0  0  0  0  0  0
   61.2368   31.6902   47.9848 C   0  0  0  0  0  0  0  0  0  0  0  0
   60.8111   30.6743   47.1219 C   0  0  0  0  0  0  0  0  0  0  0  0
   59.6166   30.8025   46.3692 C   0  0  0  0  0  0  0  0  0  0  0  0
   59.0821   29.8046   45.4786 C   0  0  0  0  0  0  0  0  0  0  0  0
   59.5013   28.5710   45.3484 N   0  0  0  0  0  0  0  0  0  0  0  0
   57.9613   30.1363   44.7032 C   0  0  0  0  0  0  0  0  0  0  0  0
 19 20  1  0
 20 21  1  0
 21 22  2  0
 22 23  1  0
 23 24  1  0
 23 25  2  0
 25 26  1  0
 26 27  2  0
 27 28  1  0
 28 29  2  0
 29 18  1  0
 18 17  1  0
 17  1  1  0
  1  2  1  0
  2  3  2  0
  2  5  1  0
  5  6  2  0
  6  7  1  0
  6  8  1  0
  8  9  1  0
  9 10  2  0
 10 11  1  0
 11 12  2  0
 10 13  1  0
 13 14  1  0
 14 15  1  0
 15 16  1  0
 28 30  1  0
 30 19  2  0
 27 21  1  0
 11  5  1  0
 16  9  1  0
  1  4  1  0
M  CHG 1   7  -1
M  CHG 1   8  -1
M  CHG 1  20  -1
M  END
> <UniqueID>
31

> <SMILES>
O=C(NCC/N=c1/cc[n-]c2cc(Cl)ccc12)c1c([O-])[n-]c2c(c1=O)CCCC2

> <Energy>
76.18947350962283

> <Genealogy>
O=C(NCCN=c1cc[n-]c2cc(Cl)ccc12)c1c([O-])[n-]c2c(c1=O)CCCC2 (protonated)
O=C(NCC/N=c1/cc[n-]c2cc(Cl)ccc12)c1c([O-])[n-]c2c(c1=O)CCCC2 (cis-trans isomerization)
O=C(NCC/N=c1/cc[n-]c2cc(Cl)ccc12)c1c([O-])[n-]c2c(c1=O)CCCC2 (3D coordinates assigned)
O=C(NCC/N=c1/cc[n-]c2cc(Cl)ccc12)c1c([O-])[n-]c2c(c1=O)CCCC2 (nonaromatic ring conformer: 76.18947350962283 kcal/mol)

> <smiles>
O=C(NCCN=c1cc[nH]c2cc(Cl)ccc12)c1c(O)[nH]c2c(c1=O)CCCC2

> <score_type>
oracle

> <origin>
adg

> <m_score__min__energy>
-14.66

> <m_primary>
energy

> <minimizedAffinity>
-8.21504

> <minimizedRMSD>
2.16477

> <CNNscore>
0.0875200927

> <CNNaffinity>
6.3982372284

> <CNN_VS>
0.5599743128

> <CNNaffinity_variance>
0.0546223335

$$$$
61:0


 34 36  0  0  0  0  0  0  0  0999 V2000
   59.3922   28.1280   47.1426 C   0  0  0  0  0  0  0  0  0  0  0  0
   59.7285   28.6076   45.8709 C   0  0  0  0  0  0  0  0  0  0  0  0
   59.7226   29.9787   45.6051 C   0  0  0  0  0  0  0  0  0  0  0  0
   59.3902   30.8930   46.6162 C   0  0  0  0  0  0  0  0  0  0  0  0
   59.1014   30.4179   47.9041 C   0  0  0  0  0  0  0  0  0  0  0  0
   59.1024   29.0454   48.1705 C   0  0  0  0  0  0  0  0  0  0  0  0
   58.8788   28.6216   49.4399 F   0  0  0  0  0  0  0  0  0  0  0  0
   59.4100   32.3454   46.3421 C   0  0  0  0  0  0  0  0  0  0  0  0
   58.3938   32.8834   45.5340 C   0  0  0  0  0  0  0  0  0  0  0  0
   58.3923   34.2390   45.2023 C   0  0  0  0  0  0  0  0  0  0  0  0
   59.4040   35.0732   45.6742 C   0  0  0  0  0  0  0  0  0  0  0  0
   60.4122   34.5585   46.4922 C   0  0  0  0  0  0  0  0  0  0  0  0
   60.4243   33.2002   46.8459 C   0  0  0  0  0  0  0  0  0  0  0  0
   61.6908   32.6210   47.9428 S   0  0  0  0  0  0  0  0  0  0  0  0
   62.9868   33.7627   48.0293 N   0  0  0  0  0  0  0  0  0  0  0  0
   62.2457   31.3180   47.4382 O   0  0  0  0  0  0  0  0  0  0  0  0
   61.1135   32.4075   49.3133 O   0  0  0  0  0  0  0  0  0  0  0  0
   63.3767   33.9056   47.0977 H   0  0  0  0  0  0  0  0  0  0  0  0
   59.4252   26.7142   47.3788 N   0  0  0  0  0  0  0  0  0  0  0  0
   58.4083   25.7907   46.9748 C   0  0  0  0  0  0  0  0  0  0  0  0
   58.0337   24.8698   47.7479 O   0  0  0  0  0  0  0  0  0  0  0  0
   57.7677   25.9367   45.6296 C   0  0  0  0  0  0  0  0  0  0  0  0
   54.9979   23.3232   45.1833 C   0  0  0  0  0  0  0  0  0  0  0  0
   55.7373   22.2679   44.6202 C   0  0  0  0  0  0  0  0  0  0  0  0
   57.1101   22.3983   44.4087 C   0  0  0  0  0  0  0  0  0  0  0  0
   57.7619   23.5859   44.7395 C   0  0  0  0  0  0  0  0  0  0  0  0
   57.0391   24.6688   45.2650 C   0  0  0  0  0  0  0  0  0  0  0  0
   55.6531   24.5354   45.4923 C   0  0  0  0  0  0  0  0  0  0  0  0
   54.9298   25.6146   45.9936 O   0  0  0  0  0  0  0  0  0  0  0  0
   51.1557   23.7898   44.9130 C   0  0  0  0  0  0  0  0  0  0  0  0
   52.5891   24.0351   44.8203 N   0  0  0  0  0  0  0  0  0  0  0  0
   53.5448   23.1428   45.4106 C   0  0  0  0  0  0  0  0  0  0  0  0
   53.1481   22.2086   46.1606 O   0  0  0  0  0  0  0  0  0  0  0  0
   52.9096   24.8329   44.3407 H   0  0  0  0  0  0  0  0  0  0  0  0
 30 31  1  0
 31 32  1  0
 32 33  2  0
 32 23  1  0
 23 24  2  0
 24 25  1  0
 25 26  2  0
 26 27  1  0
 27 22  1  0
 22 20  1  0
 20 21  2  0
 20 19  1  0
 19  1  1  0
  1  2  2  0
  2  3  1  0
  3  4  2  0
  4  8  1  0
  8  9  2  0
  9 10  1  0
 10 11  2  0
 11 12  1  0
 12 13  2  0
 13 14  1  0
 14 15  1  0
 14 16  2  0
 14 17  2  0
  4  5  1  0
  5  6  2  0
  6  7  1  0
 27 28  2  0
 28 29  1  0
 28 23  1  0
  6  1  1  0
 13  8  1  0
 31 34  1  0
 15 18  1  0
M  CHG 1  15  -1
M  CHG 1  19  -1
M  CHG 1  29  -1
M  END
> <UniqueID>
58

> <SMILES>
CNC(=O)c1cccc(CC(=O)[N-]c2ccc(-c3ccccc3S([NH-])(=O)=O)cc2F)c1[O-]

> <Energy>
65.13424525231106

> <Genealogy>
CNC(=O)c1cccc(CC(=O)[N-]c2ccc(-c3ccccc3S([NH-])(=O)=O)cc2F)c1[O-] (protonated)
CNC(=O)c1cccc(CC(=O)[N-]c2ccc(-c3ccccc3S([NH-])(=O)=O)cc2F)c1[O-] (3D coordinates assigned)
CNC(=O)c1cccc(CC(=O)[N-]c2ccc(-c3ccccc3S([NH-])(=O)=O)cc2F)c1[O-] (optimized conformer: 65.13424525231106 kcal/mol)

> <smiles>
CNC(=O)c1cccc(CC(=O)Nc2ccc(-c3ccccc3S(N)(=O)=O)cc2F)c1O

> <score_type>
oracle

> <origin>
adg

> <m_score__min__energy>
-14.609999999999999

> <m_primary>
energy

> <minimizedAffinity>
-8.17130

> <minimizedRMSD>
0.65762

> <CNNscore>
0.3924713135

> <CNNaffinity>
6.8635096550

> <CNN_VS>
2.6937305927

> <CNNaffinity_variance>
0.0675593987

$$$$
38:0


 28 30  0  0  0  0  0  0  0  0999 V2000
   59.2773   31.4001   46.2823 C   0  0  0  0  0  0  0  0  0  0  0  0
   58.4625   31.5490   45.1468 C   0  0  0  0  0  0  0  0  0  0  0  0
   57.8243   32.7620   44.8814 C   0  0  0  0  0  0  0  0  0  0  0  0
   57.9933   33.8433   45.7433 C   0  0  0  0  0  0  0  0  0  0  0  0
   58.7924   33.7132   46.8800 C   0  0  0  0  0  0  0  0  0  0  0  0
   59.4224   32.4915   47.1761 C   0  0  0  0  0  0  0  0  0  0  0  0
   60.2538   32.3898   48.3457 N   0  0  0  0  0  0  0  0  0  0  0  0
   61.1441   32.8088   48.3151 H   0  0  0  0  0  0  0  0  0  0  0  0
   59.8685   31.7146   49.5591 C   0  0  0  0  0  0  0  0  0  0  0  0
   58.6433   31.9777   50.1985 C   0  0  0  0  0  0  0  0  0  0  0  0
   58.2855   31.2844   51.3584 C   0  0  0  0  0  0  0  0  0  0  0  0
   59.1364   30.3038   51.8968 C   0  0  0  0  0  0  0  0  0  0  0  0
   60.3543   30.0348   51.2506 C   0  0  0  0  0  0  0  0  0  0  0  0
   60.7144   30.7314   50.0938 C   0  0  0  0  0  0  0  0  0  0  0  0
   58.7655   29.5808   53.0838 N   0  0  0  0  0  0  0  0  0  0  0  0
   57.6261   29.0811   53.1968 O   0  0  0  0  0  0  0  0  0  0  0  0
   59.6614   29.4259   54.1172 O   0  0  0  0  0  0  0  0  0  0  0  0
   59.9293   30.0558   46.5304 C   0  0  0  0  0  0  0  0  0  0  0  0
   59.7002   29.0771   45.3712 C   0  0  0  0  0  0  0  0  0  0  0  0
   56.7985   24.6447   46.9773 O   0  0  0  0  0  0  0  0  0  0  0  0
   57.4617   25.6474   46.6052 C   0  0  0  0  0  0  0  0  0  0  0  0
   56.8302   26.7024   46.0307 N   0  0  0  0  0  0  0  0  0  0  0  0
   57.5217   27.7983   45.6243 C   0  0  0  0  0  0  0  0  0  0  0  0
   56.8350   28.8578   45.0454 O   0  0  0  0  0  0  0  0  0  0  0  0
   58.9165   27.8535   45.7947 C   0  0  0  0  0  0  0  0  0  0  0  0
   59.5484   26.7371   46.3757 C   0  0  0  0  0  0  0  0  0  0  0  0
   60.7974   26.7128   46.5362 O   0  0  0  0  0  0  0  0  0  0  0  0
   58.8083   25.6695   46.7713 N   0  0  0  0  0  0  0  0  0  0  0  0
 20 21  2  0
 21 22  1  0
 22 23  1  0
 23 24  1  0
 23 25  2  0
 25 19  1  0
 19 18  1  0
 18  1  1  0
  1  2  2  0
  2  3  1  0
  3  4  2  0
  4  5  1  0
  5  6  2  0
  6  7  1  0
  7  9  1  0
  9 10  2  0
 10 11  1  0
 11 12  2  0
 12 15  1  0
 15 16  2  0
 15 17  1  0
 12 13  1  0
 13 14  2  0
 25 26  1  0
 26 27  2  0
 26 28  1  0
 28 21  1  0
  6  1  1  0
 14  9  1  0
  7  8  1  0
M  CHG 1  15   1
M  CHG 1  17  -1
M  CHG 1  22  -1
M  CHG 1  24  -1
M  CHG 1  28  -1
M  END
> <UniqueID>
36

> <SMILES>
O=c1[n-]c([O-])c(CCc2ccccc2Nc2ccc([N+](=O)[O-])cc2)c(=O)[n-]1

> <Energy>
47.658924752591254

> <Genealogy>
O=c1[n-]c([O-])c(CCc2ccccc2Nc2ccc([N+](=O)[O-])cc2)c(=O)[n-]1 (protonated)
O=c1[n-]c([O-])c(CCc2ccccc2Nc2ccc([N+](=O)[O-])cc2)c(=O)[n-]1 (3D coordinates assigned)
O=c1[n-]c([O-])c(CCc2ccccc2Nc2ccc([N+](=O)[O-])cc2)c(=O)[n-]1 (optimized conformer: 47.658924752591254 kcal/mol)

> <smiles>
O=c1[nH]c(O)c(CCc2ccccc2Nc2ccc([N+](=O)[O-])cc2)c(=O)[nH]1

> <score_type>
oracle

> <origin>
adg

> <m_score__min__energy>
-15.44

> <m_primary>
energy

> <minimizedAffinity>
-6.83853

> <minimizedRMSD>
1.30957

> <CNNscore>
0.4809154272

> <CNNaffinity>
6.8161201477

> <CNN_VS>
3.2779772282

> <CNNaffinity_variance>
0.2290538549

$$$$
57:0


 29 31  0  0  0  0  0  0  0  0999 V2000
   56.8821   27.6212   45.5792 C   0  0  0  0  0  0  0  0  0  0  0  0
   58.2399   27.9652   45.6203 C   0  0  0  0  0  0  0  0  0  0  0  0
   59.1697   27.1223   46.2425 C   0  0  0  0  0  0  0  0  0  0  0  0
   58.7388   25.9231   46.8220 C   0  0  0  0  0  0  0  0  0  0  0  0
   57.3931   25.5570   46.7558 C   0  0  0  0  0  0  0  0  0  0  0  0
   56.4642   26.3896   46.1239 C   0  0  0  0  0  0  0  0  0  0  0  0
   55.1432   25.9708   46.0168 O   0  0  0  0  0  0  0  0  0  0  0  0
   60.8640   27.6014   46.3256 S   0  0  0  0  0  0  0  0  0  0  0  0
   61.7361   26.3834   46.4652 O   0  0  0  0  0  0  0  0  0  0  0  0
   61.2288   28.3079   45.0496 O   0  0  0  0  0  0  0  0  0  0  0  0
   61.1127   28.6727   47.6832 N   0  0  0  0  0  0  0  0  0  0  0  0
   60.8979   30.0705   47.2666 C   0  0  0  0  0  0  0  0  0  0  0  0
   60.5973   30.9594   48.4839 C   0  0  0  0  0  0  0  0  0  0  0  0
   59.4396   30.5730   49.2163 O   0  0  0  0  0  0  0  0  0  0  0  0
   59.0669   29.2168   49.0235 C   0  0  0  0  0  0  0  0  0  0  0  0
   60.2708   28.2764   48.8357 C   0  0  0  0  0  0  0  0  0  0  0  0
   55.9699   28.5103   44.9210 N   0  0  0  0  0  0  0  0  0  0  0  0
   55.4233   30.7004   44.3062 O   0  0  0  0  0  0  0  0  0  0  0  0
   56.3054   29.8050   44.4053 C   0  0  0  0  0  0  0  0  0  0  0  0
   57.7240   30.1147   44.0465 C   0  0  0  0  0  0  0  0  0  0  0  0
   57.9013   31.5908   43.8038 C   0  0  0  0  0  0  0  0  0  0  0  0
   57.7126   32.0248   42.6342 O   0  0  0  0  0  0  0  0  0  0  0  0
   58.2550   32.5461   44.8918 C   0  0  0  0  0  0  0  0  0  0  0  0
   57.9970   32.2056   46.2349 C   0  0  0  0  0  0  0  0  0  0  0  0
   58.3326   33.0844   47.2700 C   0  0  0  0  0  0  0  0  0  0  0  0
   58.9288   34.3122   46.9807 C   0  0  0  0  0  0  0  0  0  0  0  0
   59.1903   34.6660   45.6555 C   0  0  0  0  0  0  0  0  0  0  0  0
   59.7838   35.8898   45.3698 O   0  0  0  0  0  0  0  0  0  0  0  0
   58.8550   33.7922   44.6150 C   0  0  0  0  0  0  0  0  0  0  0  0
 18 19  2  0
 19 20  1  0
 20 21  1  0
 21 22  2  0
 21 23  1  0
 23 24  2  0
 24 25  1  0
 25 26  2  0
 26 27  1  0
 27 28  1  0
 27 29  2  0
 19 17  1  0
 17  1  1  0
  1  2  2  0
  2  3  1  0
  3  8  1  0
  8  9  2  0
  8 10  2  0
  8 11  1  0
 11 12  1  0
 12 13  1  0
 13 14  1  0
 14 15  1  0
 15 16  1  0
  3  4  2  0
  4  5  1  0
  5  6  2  0
  6  7  1  0
 29 23  1  0
  6  1  1  0
 16 11  1  0
M  CHG 1   7  -1
M  CHG 1  17  -1
M  CHG 1  28  -1
M  END
> <UniqueID>
54

> <SMILES>
O=C(CC(=O)c1cccc([O-])c1)[N-]c1cc(S(=O)(=O)N2CCOCC2)ccc1[O-]

> <Energy>
64.74759168732706

> <Genealogy>
O=C(CC(=O)c1cccc([O-])c1)[N-]c1cc(S(=O)(=O)N2CCOCC2)ccc1[O-] (protonated)
O=C(CC(=O)c1cccc([O-])c1)[N-]c1cc(S(=O)(=O)N2CCOCC2)ccc1[O-] (3D coordinates assigned)
O=C(CC(=O)c1cccc([O-])c1)[N-]c1cc(S(=O)(=O)N2CCOCC2)ccc1[O-] (nonaromatic ring conformer: 64.74759168732706 kcal/mol)

> <smiles>
O=C(CC(=O)c1cccc(O)c1)Nc1cc(S(=O)(=O)N2CCOCC2)ccc1O

> <score_type>
oracle

> <origin>
adg

> <m_score__min__energy>
-16.02

> <m_primary>
energy

> <minimizedAffinity>
-3.30335

> <minimizedRMSD>
0.68517

> <CNNscore>
0.5574527979

> <CNNaffinity>
6.1833510399

> <CNN_VS>
3.4469263554

> <CNNaffinity_variance>
0.0147218155

$$$$
67:0


 22 23  0  0  0  0  0  0  0  0999 V2000
   59.3056   24.7436   45.9278 C   0  0  0  0  0  0  0  0  0  0  0  0
   58.0057   28.4708   45.5956 C   0  0  0  0  0  0  0  0  0  0  0  0
   58.4522   28.2805   46.8955 C   0  0  0  0  0  0  0  0  0  0  0  0
   58.9206   26.9825   47.1267 C   0  0  0  0  0  0  0  0  0  0  0  0
   58.8260   26.1588   46.0090 C   0  0  0  0  0  0  0  0  0  0  0  0
   58.1854   27.0420   44.7276 S   0  0  0  0  0  0  0  0  0  0  0  0
   55.6608   29.7938   44.6777 N   0  0  0  0  0  0  0  0  0  0  0  0
   57.3569   29.9672   44.9544 S   0  0  0  0  0  0  0  0  0  0  0  0
   57.6021   31.0822   45.9328 O   0  0  0  0  0  0  0  0  0  0  0  0
   58.0391   30.2969   43.6555 O   0  0  0  0  0  0  0  0  0  0  0  0
   55.2863   30.6661   44.3046 H   0  0  0  0  0  0  0  0  0  0  0  0
   58.1771   23.8313   45.7721 N   0  0  0  0  0  0  0  0  0  0  0  0
   57.2298   23.7239   46.6533 C   0  0  0  0  0  0  0  0  0  0  0  0
   55.8105   23.5490   46.2534 C   0  0  0  0  0  0  0  0  0  0  0  0
   55.0051   24.6802   46.0257 C   0  0  0  0  0  0  0  0  0  0  0  0
   55.5209   25.9632   46.1709 O   0  0  0  0  0  0  0  0  0  0  0  0
   53.7070   24.5310   45.6567 N   0  0  0  0  0  0  0  0  0  0  0  0
   53.1586   23.3003   45.5015 C   0  0  0  0  0  0  0  0  0  0  0  0
   51.5940   23.1558   45.0590 S   0  0  0  0  0  0  0  0  0  0  0  0
   53.9081   22.1915   45.7141 N   0  0  0  0  0  0  0  0  0  0  0  0
   55.2115   22.2803   46.0832 C   0  0  0  0  0  0  0  0  0  0  0  0
   55.8662   21.2197   46.2661 O   0  0  0  0  0  0  0  0  0  0  0  0
  7  8  1  0
  8  9  2  0
  8 10  2  0
  8  2  1  0
  2  3  2  0
  3  4  1  0
  4  5  2  0
  5  1  1  0
  1 12  1  0
 12 13  2  0
 13 14  1  0
 14 15  2  0
 15 16  1  0
 15 17  1  0
 17 18  1  0
 18 19  2  0
 18 20  1  0
 20 21  1  0
 21 22  2  0
  5  6  1  0
  6  2  1  0
 21 14  1  0
  7 11  1  0
M  CHG 1   7  -1
M  CHG 1  16  -1
M  CHG 1  17  -1
M  CHG 1  20  -1
M  END
> <UniqueID>
64

> <SMILES>
[NH-]S(=O)(=O)c1ccc(CN=Cc2c([O-])[n-]c(=S)[n-]c2=O)s1

> <Energy>
53.96953112672682

> <Genealogy>
[NH-]S(=O)(=O)c1ccc(CN=Cc2c([O-])[n-]c(=S)[n-]c2=O)s1 (protonated)
[NH-]S(=O)(=O)c1ccc(CN=Cc2c([O-])[n-]c(=S)[n-]c2=O)s1 (3D coordinates assigned)
[NH-]S(=O)(=O)c1ccc(CN=Cc2c([O-])[n-]c(=S)[n-]c2=O)s1 (optimized conformer: 53.96953112672682 kcal/mol)

> <smiles>
NS(=O)(=O)c1ccc(CN=Cc2c(O)[nH]c(=S)[nH]c2=O)s1

> <score_type>
oracle

> <origin>
adg

> <m_score__min__energy>
-16.190000000000001

> <m_primary>
energy

> <minimizedAffinity>
-6.36667

> <minimizedRMSD>
0.79903

> <CNNscore>
0.2341572046

> <CNNaffinity>
5.4106554985

> <CNN_VS>
1.2669439316

> <CNNaffinity_variance>
0.0577246845

$$$$
86:0


 33 35  0  0  0  0  0  0  0  0999 V2000
   57.2544   31.2257   44.9002 C   0  0  0  0  0  0  0  0  0  0  0  0
   56.2144   30.6207   44.5273 O   0  0  0  0  0  0  0  0  0  0  0  0
   58.5937   30.7043   44.4677 C   0  0  0  0  0  0  0  0  0  0  0  0
   58.5366   29.2763   44.1452 N   0  0  0  0  0  0  0  0  0  0  0  0
   58.5103   29.0238   43.1940 H   0  0  0  0  0  0  0  0  0  0  0  0
   57.4960   26.2262   46.1102 C   0  0  0  0  0  0  0  0  0  0  0  0
   57.4691   27.2720   45.1764 C   0  0  0  0  0  0  0  0  0  0  0  0
   58.5161   28.2133   45.1201 C   0  0  0  0  0  0  0  0  0  0  0  0
   59.5766   28.1023   46.0318 C   0  0  0  0  0  0  0  0  0  0  0  0
   59.5954   27.0759   46.9783 C   0  0  0  0  0  0  0  0  0  0  0  0
   58.5611   26.1391   47.0214 C   0  0  0  0  0  0  0  0  0  0  0  0
   58.5970   25.1534   47.9533 F   0  0  0  0  0  0  0  0  0  0  0  0
   54.6747   25.8068   45.8260 N   0  0  0  0  0  0  0  0  0  0  0  0
   56.1918   25.0395   46.1441 S   0  0  0  0  0  0  0  0  0  0  0  0
   56.1439   24.3894   47.4970 O   0  0  0  0  0  0  0  0  0  0  0  0
   56.4258   23.9923   45.0912 O   0  0  0  0  0  0  0  0  0  0  0  0
   53.9300   25.1101   45.8485 H   0  0  0  0  0  0  0  0  0  0  0  0
   57.1595   32.4581   45.6282 N   0  0  0  0  0  0  0  0  0  0  0  0
   58.1769   33.0622   46.4382 C   0  0  0  0  0  0  0  0  0  0  0  0
   58.7707   34.2489   45.9911 C   0  0  0  0  0  0  0  0  0  0  0  0
   59.7692   34.8686   46.7466 C   0  0  0  0  0  0  0  0  0  0  0  0
   60.1945   34.2966   47.9482 C   0  0  0  0  0  0  0  0  0  0  0  0
   59.6297   33.0953   48.3954 C   0  0  0  0  0  0  0  0  0  0  0  0
   58.6290   32.4738   47.6335 C   0  0  0  0  0  0  0  0  0  0  0  0
   60.1734   32.3644   49.9076 S   0  0  0  0  0  0  0  0  0  0  0  0
   60.5589   33.4499   50.8733 O   0  0  0  0  0  0  0  0  0  0  0  0
   61.3928   31.5267   49.6381 O   0  0  0  0  0  0  0  0  0  0  0  0
   58.9346   31.3653   50.6263 N   0  0  0  0  0  0  0  0  0  0  0  0
   58.0611   32.1677   51.4948 C   0  0  0  0  0  0  0  0  0  0  0  0
   56.9542   31.2739   52.0946 C   0  0  0  0  0  0  0  0  0  0  0  0
   57.1699   29.8983   51.8284 O   0  0  0  0  0  0  0  0  0  0  0  0
   58.4748   29.5287   52.2301 C   0  0  0  0  0  0  0  0  0  0  0  0
   59.5419   30.2641   51.3942 C   0  0  0  0  0  0  0  0  0  0  0  0
 13 14  1  0
 14 15  2  0
 14 16  2  0
 14  6  1  0
  6  7  2  0
  7  8  1  0
  8  4  1  0
  4  3  1  0
  3  1  1  0
  1  2  2  0
  1 18  1  0
 18 19  1  0
 19 20  2  0
 20 21  1  0
 21 22  2  0
 22 23  1  0
 23 25  1  0
 25 26  2  0
 25 27  2  0
 25 28  1  0
 28 29  1  0
 29 30  1  0
 30 31  1  0
 31 32  1  0
 32 33  1  0
 23 24  2  0
  8  9  2  0
  9 10  1  0
 10 11  2  0
 11 12  1  0
 11  6  1  0
 24 19  1  0
 33 28  1  0
 13 17  1  0
  4  5  1  0
M  CHG 1  13  -1
M  CHG 1  18  -1
M  END
> <UniqueID>
81

> <SMILES>
[NH-]S(=O)(=O)c1cc(NCC(=O)[N-]c2cccc(S(=O)(=O)N3CCOCC3)c2)ccc1F

> <Energy>
60.49429794473405

> <Genealogy>
[NH-]S(=O)(=O)c1cc(NCC(=O)[N-]c2cccc(S(=O)(=O)N3CCOCC3)c2)ccc1F (protonated)
[NH-]S(=O)(=O)c1cc(NCC(=O)[N-]c2cccc(S(=O)(=O)N3CCOCC3)c2)ccc1F (3D coordinates assigned)
[NH-]S(=O)(=O)c1cc(NCC(=O)[N-]c2cccc(S(=O)(=O)N3CCOCC3)c2)ccc1F (nonaromatic ring conformer: 60.49429794473405 kcal/mol)

> <smiles>
NS(=O)(=O)c1cc(NCC(=O)Nc2cccc(S(=O)(=O)N3CCOCC3)c2)ccc1F

> <score_type>
oracle

> <origin>
adg

> <m_score__min__energy>
-14.609999999999999

> <m_primary>
energy

> <minimizedAffinity>
-8.23759

> <minimizedRMSD>
0.67200

> <CNNscore>
0.8082790971

> <CNNaffinity>
7.3580412865

> <CNN_VS>
5.9473509789

> <CNNaffinity_variance>
0.1091735065

$$$$
49:0


 29 30  0  0  0  0  0  0  0  0999 V2000
   61.8573   32.9064   49.7615 S   0  0  0  0  0  0  0  0  0  0  0  0
   62.1651   34.3734   49.8767 O   0  0  0  0  0  0  0  0  0  0  0  0
   62.9605   32.1352   50.4285 O   0  0  0  0  0  0  0  0  0  0  0  0
   57.9204   31.9509   51.8869 C   0  0  0  0  0  0  0  0  0  0  0  0
   58.4485   31.0605   50.9449 C   0  0  0  0  0  0  0  0  0  0  0  0
   59.6440   31.3545   50.2829 C   0  0  0  0  0  0  0  0  0  0  0  0
   60.3331   32.5407   50.5674 C   0  0  0  0  0  0  0  0  0  0  0  0
   59.8269   33.4185   51.5336 C   0  0  0  0  0  0  0  0  0  0  0  0
   58.6308   33.1259   52.1948 C   0  0  0  0  0  0  0  0  0  0  0  0
   56.7044   31.6019   52.5623 N   0  0  0  0  0  0  0  0  0  0  0  0
   55.9336   30.4141   52.3514 C   0  0  0  0  0  0  0  0  0  0  0  0
   56.4272   29.2988   52.6684 O   0  0  0  0  0  0  0  0  0  0  0  0
   54.6459   30.4788   51.7269 N   0  0  0  0  0  0  0  0  0  0  0  0
   52.3022   31.1968   51.7133 C   0  0  0  0  0  0  0  0  0  0  0  0
   53.3861   30.4316   52.4612 C   0  0  0  0  0  0  0  0  0  0  0  0
   61.7770   32.4550   48.0859 N   0  0  0  0  0  0  0  0  0  0  0  0
   61.5899   33.6456   47.2613 C   0  0  0  0  0  0  0  0  0  0  0  0
   60.1045   33.9952   47.2024 C   0  0  0  0  0  0  0  0  0  0  0  0
   59.3493   32.9664   46.4052 C   0  0  0  0  0  0  0  0  0  0  0  0
   58.6359   33.3452   45.2555 C   0  0  0  0  0  0  0  0  0  0  0  0
   57.9051   32.3966   44.5359 C   0  0  0  0  0  0  0  0  0  0  0  0
   57.8665   31.0625   44.9623 C   0  0  0  0  0  0  0  0  0  0  0  0
   58.5716   30.6824   46.1119 C   0  0  0  0  0  0  0  0  0  0  0  0
   59.3028   31.6315   46.8337 C   0  0  0  0  0  0  0  0  0  0  0  0
   56.9532   29.8678   44.0453 S   0  0  0  0  0  0  0  0  0  0  0  0
   55.4530   29.5540   44.8409 N   0  0  0  0  0  0  0  0  0  0  0  0
   56.6851   30.3839   42.6602 O   0  0  0  0  0  0  0  0  0  0  0  0
   57.7447   28.5936   43.9411 O   0  0  0  0  0  0  0  0  0  0  0  0
   54.9176   30.4194   44.9107 H   0  0  0  0  0  0  0  0  0  0  0  0
 14 15  1  0
 15 13  1  0
 13 11  1  0
 11 12  2  0
 11 10  1  0
 10  4  1  0
  4  5  2  0
  5  6  1  0
  6  7  2  0
  7  1  1  0
  1  2  2  0
  1  3  2  0
  1 16  1  0
 16 17  1  0
 17 18  1  0
 18 19  1  0
 19 20  2  0
 20 21  1  0
 21 22  2  0
 22 25  1  0
 25 26  1  0
 25 27  2  0
 25 28  2  0
 22 23  1  0
 23 24  2  0
  7  8  1  0
  8  9  2  0
  9  4  1  0
 24 19  1  0
 26 29  1  0
M  CHG 1  10  -1
M  CHG 1  13  -1
M  CHG 1  16  -1
M  CHG 1  26  -1
M  END
> <UniqueID>
47

> <SMILES>
CC[N-]C(=O)[N-]c1ccc(S(=O)(=O)[N-]CCc2ccc(S([NH-])(=O)=O)cc2)cc1

> <Energy>
39.50248145205739

> <Genealogy>
CC[N-]C(=O)[N-]c1ccc(S(=O)(=O)[N-]CCc2ccc(S([NH-])(=O)=O)cc2)cc1 (protonated)
CC[N-]C(=O)[N-]c1ccc(S(=O)(=O)[N-]CCc2ccc(S([NH-])(=O)=O)cc2)cc1 (3D coordinates assigned)
CC[N-]C(=O)[N-]c1ccc(S(=O)(=O)[N-]CCc2ccc(S([NH-])(=O)=O)cc2)cc1 (optimized conformer: 39.50248145205739 kcal/mol)

> <smiles>
CCNC(=O)Nc1ccc(S(=O)(=O)NCCc2ccc(S(N)(=O)=O)cc2)cc1

> <score_type>
oracle

> <origin>
adg

> <m_score__min__energy>
-14.880000000000001

> <m_primary>
energy

> <minimizedAffinity>
-7.52667

> <minimizedRMSD>
1.19854

> <CNNscore>
0.9617697597

> <CNNaffinity>
7.2713913918

> <CNN_VS>
6.9934043884

> <CNNaffinity_variance>
0.1730197519

$$$$
63:0


 28 30  0  0  0  0  0  0  0  0999 V2000
   58.1300   28.9192   45.4765 C   0  0  0  0  0  0  0  0  0  0  0  0
   59.2372   29.6013   46.0225 C   0  0  0  0  0  0  0  0  0  0  0  0
   60.2157   28.9159   46.7458 C   0  0  0  0  0  0  0  0  0  0  0  0
   60.1075   27.5424   46.9424 C   0  0  0  0  0  0  0  0  0  0  0  0
   59.0239   26.8459   46.4083 C   0  0  0  0  0  0  0  0  0  0  0  0
   58.0385   27.5132   45.6626 C   0  0  0  0  0  0  0  0  0  0  0  0
   55.9030   29.6469   45.0382 O   0  0  0  0  0  0  0  0  0  0  0  0
   57.1188   29.6979   44.7050 C   0  0  0  0  0  0  0  0  0  0  0  0
   57.5043   30.5151   43.5917 N   0  0  0  0  0  0  0  0  0  0  0  0
   57.9540   31.8962   43.7148 C   0  0  0  0  0  0  0  0  0  0  0  0
   57.2360   32.5973   44.8733 C   0  0  0  0  0  0  0  0  0  0  0  0
   58.2350   33.1959   45.8269 C   0  0  0  0  0  0  0  0  0  0  0  0
   58.3354   32.7150   47.1427 C   0  0  0  0  0  0  0  0  0  0  0  0
   59.2388   33.2965   48.0382 C   0  0  0  0  0  0  0  0  0  0  0  0
   60.0379   34.3675   47.6293 C   0  0  0  0  0  0  0  0  0  0  0  0
   59.9321   34.8618   46.3266 C   0  0  0  0  0  0  0  0  0  0  0  0
   59.0330   34.2805   45.4274 C   0  0  0  0  0  0  0  0  0  0  0  0
   56.9231   26.7761   45.1527 N   0  0  0  0  0  0  0  0  0  0  0  0
   56.2555   25.3850   45.9435 S   0  0  0  0  0  0  0  0  0  0  0  0
   56.7600   25.3519   47.3576 O   0  0  0  0  0  0  0  0  0  0  0  0
   54.7582   25.5120   45.9857 O   0  0  0  0  0  0  0  0  0  0  0  0
   56.7409   23.8865   45.1363 C   0  0  0  0  0  0  0  0  0  0  0  0
   58.0312   23.3838   45.3473 C   0  0  0  0  0  0  0  0  0  0  0  0
   58.4382   22.2092   44.7098 C   0  0  0  0  0  0  0  0  0  0  0  0
   57.5525   21.5540   43.8541 C   0  0  0  0  0  0  0  0  0  0  0  0
   56.3048   22.0537   43.6548 N   0  0  0  0  0  0  0  0  0  0  0  0
   55.8767   23.1909   44.2684 C   0  0  0  0  0  0  0  0  0  0  0  0
   54.7095   23.6099   44.0468 O   0  0  0  0  0  0  0  0  0  0  0  0
  7  8  2  0
  8  9  1  0
  9 10  1  0
 10 11  1  0
 11 12  1  0
 12 13  2  0
 13 14  1  0
 14 15  2  0
 15 16  1  0
 16 17  2  0
  8  1  1  0
  1  2  2  0
  2  3  1  0
  3  4  2  0
  4  5  1  0
  5  6  2  0
  6 18  1  0
 18 19  1  0
 19 20  2  0
 19 21  2  0
 19 22  1  0
 22 23  2  0
 23 24  1  0
 24 25  2  0
 25 26  1  0
 26 27  1  0
 27 28  2  0
 17 12  1  0
  6  1  1  0
 27 22  1  0
M  CHG 1   9  -1
M  CHG 1  18  -1
M  CHG 1  26  -1
M  END
> <UniqueID>
60

> <SMILES>
O=C([N-]CCc1ccccc1)c1ccccc1[N-]S(=O)(=O)c1ccc[n-]c1=O

> <Energy>
56.15894154800589

> <Genealogy>
O=C([N-]CCc1ccccc1)c1ccccc1[N-]S(=O)(=O)c1ccc[n-]c1=O (protonated)
O=C([N-]CCc1ccccc1)c1ccccc1[N-]S(=O)(=O)c1ccc[n-]c1=O (3D coordinates assigned)
O=C([N-]CCc1ccccc1)c1ccccc1[N-]S(=O)(=O)c1ccc[n-]c1=O (optimized conformer: 56.15894154800589 kcal/mol)

> <smiles>
O=C(NCCc1ccccc1)c1ccccc1NS(=O)(=O)c1ccc[nH]c1=O

> <score_type>
oracle

> <origin>
adg

> <m_score__min__energy>
-15.19

> <m_primary>
energy

> <minimizedAffinity>
-8.11780

> <minimizedRMSD>
0.97328

> <CNNscore>
0.8788869977

> <CNNaffinity>
7.0715298653

> <CNN_VS>
6.2150754929

> <CNNaffinity_variance>
0.0338835679

$$$$
25:0


 34 37  0  0  0  0  0  0  0  0999 V2000
   55.8898   23.3319   44.1824 N   0  0  0  0  0  0  0  0  0  0  0  0
   56.2865   24.3012   44.9510 C   0  0  0  0  0  0  0  0  0  0  0  0
   55.5426   24.9139   45.8413 O   0  0  0  0  0  0  0  0  0  0  0  0
   56.2222   25.8517   46.4353 N   0  0  0  0  0  0  0  0  0  0  0  0
   57.4628   25.8393   45.9031 C   0  0  0  0  0  0  0  0  0  0  0  0
   57.5424   24.8579   44.9296 C   0  0  0  0  0  0  0  0  0  0  0  0
   56.1607   21.9398   44.3972 C   0  0  0  0  0  0  0  0  0  0  0  0
   56.3287   21.1986   43.3946 O   0  0  0  0  0  0  0  0  0  0  0  0
   54.2673   22.1908   46.8669 O   0  0  0  0  0  0  0  0  0  0  0  0
   55.4536   21.4600   46.8270 C   0  0  0  0  0  0  0  0  0  0  0  0
   56.3319   21.3728   45.7525 C   0  0  0  0  0  0  0  0  0  0  0  0
   57.3858   20.5763   46.1745 C   0  0  0  0  0  0  0  0  0  0  0  0
   57.0997   20.2308   47.4793 C   0  0  0  0  0  0  0  0  0  0  0  0
   57.9161   19.4522   48.2915 O   0  0  0  0  0  0  0  0  0  0  0  0
   55.9211   20.7493   47.8715 N   0  0  0  0  0  0  0  0  0  0  0  0
   55.3315   20.6680   49.2047 C   0  0  0  0  0  0  0  0  0  0  0  0
   53.9859   22.6690   46.1118 H   0  0  0  0  0  0  0  0  0  0  0  0
   58.5233   26.7886   46.2928 C   0  0  0  0  0  0  0  0  0  0  0  0
   59.5398   26.3452   46.8909 O   0  0  0  0  0  0  0  0  0  0  0  0
   58.4304   28.2403   46.0009 C   0  0  0  0  0  0  0  0  0  0  0  0
   58.1925   28.6807   44.6925 C   0  0  0  0  0  0  0  0  0  0  0  0
   58.1358   30.0415   44.4134 C   0  0  0  0  0  0  0  0  0  0  0  0
   58.3220   30.9628   45.4400 C   0  0  0  0  0  0  0  0  0  0  0  0
   58.5596   30.5441   46.7217 N   0  0  0  0  0  0  0  0  0  0  0  0
   58.6256   29.2036   47.0139 C   0  0  0  0  0  0  0  0  0  0  0  0
   58.8479   28.8238   48.1977 O   0  0  0  0  0  0  0  0  0  0  0  0
   58.7882   31.5567   47.7661 C   0  0  0  0  0  0  0  0  0  0  0  0
   60.1923   32.0938   47.6743 C   0  0  0  0  0  0  0  0  0  0  0  0
   61.2671   31.3765   48.2253 C   0  0  0  0  0  0  0  0  0  0  0  0
   62.5731   31.8647   48.1082 C   0  0  0  0  0  0  0  0  0  0  0  0
   62.8147   33.0662   47.4365 C   0  0  0  0  0  0  0  0  0  0  0  0
   64.0813   33.5369   47.3237 F   0  0  0  0  0  0  0  0  0  0  0  0
   61.7504   33.7818   46.8802 C   0  0  0  0  0  0  0  0  0  0  0  0
   60.4440   33.2977   46.9957 C   0  0  0  0  0  0  0  0  0  0  0  0
  9 10  1  0
 10 11  2  0
 11  7  1  0
  7  8  2  0
  7  1  1  0
  1  2  2  0
  2  3  1  0
  3  4  1  0
  4  5  1  0
  5 18  1  0
 18 19  2  0
 18 20  1  0
 20 21  2  0
 21 22  1  0
 22 23  2  0
 23 24  1  0
 24 27  1  0
 27 28  1  0
 28 29  2  0
 29 30  1  0
 30 31  2  0
 31 32  1  0
 31 33  1  0
 33 34  2  0
 24 25  1  0
 25 26  2  0
  5  6  2  0
 11 12  1  0
 12 13  2  0
 13 14  1  0
 13 15  1  0
 15 16  1  0
 15 10  1  0
  6  2  1  0
 25 20  1  0
 34 28  1  0
  9 17  1  0
M  CHG 1   4  -1
M  CHG 1  14  -1
M  END
> <UniqueID>
26

> <SMILES>
Cn1c([O-])cc(C(=O)/N=c2/cc(C(=O)c3cccn(Cc4ccc(F)cc4)c3=O)[n-]o2)c1O

> <Energy>
124.40476284855302

> <Genealogy>
Cn1c([O-])cc(C(=O)N=c2cc(C(=O)c3cccn(Cc4ccc(F)cc4)c3=O)[n-]o2)c1O (protonated)
Cn1c([O-])cc(C(=O)/N=c2/cc(C(=O)c3cccn(Cc4ccc(F)cc4)c3=O)[n-]o2)c1O (cis-trans isomerization)
Cn1c([O-])cc(C(=O)/N=c2/cc(C(=O)c3cccn(Cc4ccc(F)cc4)c3=O)[n-]o2)c1O (3D coordinates assigned)
Cn1c([O-])cc(C(=O)/N=c2/cc(C(=O)c3cccn(Cc4ccc(F)cc4)c3=O)[n-]o2)c1O (optimized conformer: 124.40476284855302 kcal/mol)

> <smiles>
Cn1c(O)cc(C(=O)N=c2cc(C(=O)c3cccn(Cc4ccc(F)cc4)c3=O)[nH]o2)c1O

> <score_type>
oracle

> <origin>
adg

> <m_score__min__energy>
-15.07

> <m_primary>
energy

> <minimizedAffinity>
-8.55954

> <minimizedRMSD>
1.02588

> <CNNscore>
0.2475235909

> <CNNaffinity>
6.3120951653

> <CNN_VS>
1.5623924732

> <CNNaffinity_variance>
0.0322666205

$$$$
30:0


 28 30  0  0  0  0  0  0  0  0999 V2000
   57.2734   30.0976   43.9280 N   0  0  0  0  0  0  0  0  0  0  0  0
   57.2200   28.8688   44.3505 C   0  0  0  0  0  0  0  0  0  0  0  0
   56.1961   28.3532   45.0689 N   0  0  0  0  0  0  0  0  0  0  0  0
   56.4383   27.0614   45.4149 C   0  0  0  0  0  0  0  0  0  0  0  0
   55.5322   26.3265   46.1686 O   0  0  0  0  0  0  0  0  0  0  0  0
   57.6530   26.5449   44.9679 C   0  0  0  0  0  0  0  0  0  0  0  0
   58.4672   27.7625   44.1364 S   0  0  0  0  0  0  0  0  0  0  0  0
   59.1569   33.3183   45.9651 C   0  0  0  0  0  0  0  0  0  0  0  0
   59.1361   32.0304   46.5165 C   0  0  0  0  0  0  0  0  0  0  0  0
   58.5082   30.9835   45.8374 C   0  0  0  0  0  0  0  0  0  0  0  0
   57.8771   31.2112   44.6075 C   0  0  0  0  0  0  0  0  0  0  0  0
   57.9268   32.4980   44.0391 C   0  0  0  0  0  0  0  0  0  0  0  0
   58.5581   33.5440   44.7174 C   0  0  0  0  0  0  0  0  0  0  0  0
   59.7208   36.1110   45.9701 N   0  0  0  0  0  0  0  0  0  0  0  0
   59.9665   34.6268   46.8199 S   0  0  0  0  0  0  0  0  0  0  0  0
   61.4375   34.3344   46.9116 O   0  0  0  0  0  0  0  0  0  0  0  0
   59.4110   34.7537   48.2112 O   0  0  0  0  0  0  0  0  0  0  0  0
   60.1903   36.8685   46.4662 H   0  0  0  0  0  0  0  0  0  0  0  0
   58.2077   25.1900   45.2742 C   0  0  0  0  0  0  0  0  0  0  0  0
   58.7469   25.1662   46.6673 C   0  0  0  0  0  0  0  0  0  0  0  0
   58.1846   24.4547   47.5419 O   0  0  0  0  0  0  0  0  0  0  0  0
   59.8996   25.9553   46.9881 N   0  0  0  0  0  0  0  0  0  0  0  0
   59.9627   27.0228   47.9448 C   0  0  0  0  0  0  0  0  0  0  0  0
   59.1439   28.1449   47.7528 C   0  0  0  0  0  0  0  0  0  0  0  0
   59.1558   29.1948   48.6767 C   0  0  0  0  0  0  0  0  0  0  0  0
   59.9759   29.1248   49.8053 C   0  0  0  0  0  0  0  0  0  0  0  0
   60.7796   28.0015   50.0169 C   0  0  0  0  0  0  0  0  0  0  0  0
   60.7702   26.9483   49.0949 C   0  0  0  0  0  0  0  0  0  0  0  0
 14 15  1  0
 15 16  2  0
 15 17  2  0
 15  8  1  0
  8  9  2  0
  9 10  1  0
 10 11  2  0
 11  1  1  0
  1  2  2  0
  2  3  1  0
  3  4  1  0
  4  5  1  0
  4  6  2  0
  6 19  1  0
 19 20  1  0
 20 21  2  0
 20 22  1  0
 22 23  1  0
 23 24  2  0
 24 25  1  0
 25 26  2  0
 26 27  1  0
 27 28  2  0
  6  7  1  0
 11 12  1  0
 12 13  2  0
 13  8  1  0
  7  2  1  0
 28 23  1  0
 14 18  1  0
M  CHG 1   3  -1
M  CHG 1   5  -1
M  CHG 1  14  -1
M  CHG 1  22  -1
M  END
> <UniqueID>
31

> <SMILES>
[NH-]S(=O)(=O)c1ccc(N=c2[n-]c([O-])c(CC(=O)[N-]c3ccccc3)s2)cc1

> <Energy>
78.5930886214667

> <Genealogy>
[NH-]S(=O)(=O)c1ccc(N=c2[n-]c([O-])c(CC(=O)[N-]c3ccccc3)s2)cc1 (protonated)
[NH-]S(=O)(=O)c1ccc(N=c2[n-]c([O-])c(CC(=O)[N-]c3ccccc3)s2)cc1 (3D coordinates assigned)
[NH-]S(=O)(=O)c1ccc(N=c2[n-]c([O-])c(CC(=O)[N-]c3ccccc3)s2)cc1 (optimized conformer: 78.5930886214667 kcal/mol)

> <smiles>
NS(=O)(=O)c1ccc(N=c2[nH]c(O)c(CC(=O)Nc3ccccc3)s2)cc1

> <score_type>
oracle

> <origin>
adg

> <m_score__min__energy>
-15.51

> <m_primary>
energy

> <minimizedAffinity>
-4.03583

> <minimizedRMSD>
0.51949

> <CNNscore>
0.3301612735

> <CNNaffinity>
6.3280053139

> <CNN_VS>
2.0892622471

> <CNNaffinity_variance>
0.1406701803

$$$$
47:0


 25 26  0  0  0  0  0  0  0  0999 V2000
   58.0636   29.3252   45.0021 C   0  0  0  0  0  0  0  0  0  0  0  0
   59.4596   29.4156   44.9551 C   0  0  0  0  0  0  0  0  0  0  0  0
   60.2464   28.3771   45.4591 C   0  0  0  0  0  0  0  0  0  0  0  0
   59.6442   27.2429   46.0079 C   0  0  0  0  0  0  0  0  0  0  0  0
   58.2425   27.1311   46.0549 C   0  0  0  0  0  0  0  0  0  0  0  0
   57.4587   28.1821   45.5432 C   0  0  0  0  0  0  0  0  0  0  0  0
   57.0771   30.6320   44.3559 S   0  0  0  0  0  0  0  0  0  0  0  0
   55.6669   30.1505   44.1529 O   0  0  0  0  0  0  0  0  0  0  0  0
   57.6652   31.0727   43.0444 O   0  0  0  0  0  0  0  0  0  0  0  0
   57.0751   31.9507   45.4844 N   0  0  0  0  0  0  0  0  0  0  0  0
   59.0146   32.4541   47.0015 C   0  0  0  0  0  0  0  0  0  0  0  0
   60.0829   33.3199   47.3218 C   0  0  0  0  0  0  0  0  0  0  0  0
   60.3490   34.4428   46.5352 C   0  0  0  0  0  0  0  0  0  0  0  0
   59.5595   34.7173   45.4211 C   0  0  0  0  0  0  0  0  0  0  0  0
   58.4946   33.8766   45.0950 C   0  0  0  0  0  0  0  0  0  0  0  0
   58.1973   32.7556   45.8838 C   0  0  0  0  0  0  0  0  0  0  0  0
   59.7611   30.5702   48.4749 C   0  0  0  0  0  0  0  0  0  0  0  0
   58.7717   31.2958   47.7534 O   0  0  0  0  0  0  0  0  0  0  0  0
   57.6006   25.9282   46.6351 C   0  0  0  0  0  0  0  0  0  0  0  0
   58.0954   25.3768   47.6559 O   0  0  0  0  0  0  0  0  0  0  0  0
   56.4138   25.3868   46.0406 N   0  0  0  0  0  0  0  0  0  0  0  0
   56.3887   24.1517   45.2655 C   0  0  0  0  0  0  0  0  0  0  0  0
   54.9924   23.8455   44.8294 C   0  0  0  0  0  0  0  0  0  0  0  0
   54.7833   23.2654   43.7303 O   0  0  0  0  0  0  0  0  0  0  0  0
   53.9170   24.2290   45.6197 O   0  0  0  0  0  0  0  0  0  0  0  0
 17 18  1  0
 18 11  1  0
 11 12  2  0
 12 13  1  0
 13 14  2  0
 14 15  1  0
 15 16  2  0
 16 10  1  0
 10  7  1  0
  7  8  2  0
  7  9  2  0
  7  1  1  0
  1  2  2  0
  2  3  1  0
  3  4  2  0
  4  5  1  0
  5 19  1  0
 19 20  2  0
 19 21  1  0
 21 22  1  0
 22 23  1  0
 23 24  2  0
 23 25  1  0
  5  6  2  0
 16 11  1  0
  6  1  1  0
M  CHG 1  10  -1
M  CHG 1  21  -1
M  CHG 1  25  -1
M  END
> <UniqueID>
46

> <SMILES>
COc1ccccc1[N-]S(=O)(=O)c1cccc(C(=O)[N-]CC(=O)[O-])c1

> <Energy>
43.385822467467776

> <Genealogy>
COc1ccccc1[N-]S(=O)(=O)c1cccc(C(=O)[N-]CC(=O)[O-])c1 (protonated)
COc1ccccc1[N-]S(=O)(=O)c1cccc(C(=O)[N-]CC(=O)[O-])c1 (3D coordinates assigned)
COc1ccccc1[N-]S(=O)(=O)c1cccc(C(=O)[N-]CC(=O)[O-])c1 (optimized conformer: 43.385822467467776 kcal/mol)

> <smiles>
COc1ccccc1NS(=O)(=O)c1cccc(C(=O)NCC(=O)O)c1

> <score_type>
oracle

> <origin>
adg

> <m_score__min__energy>
-14.16

> <m_primary>
energy

> <minimizedAffinity>
-7.38755

> <minimizedRMSD>
1.24667

> <CNNscore>
0.8635220528

> <CNNaffinity>
6.8278231621

> <CNN_VS>
5.8959760666

> <CNNaffinity_variance>
0.2070689946

$$$$
30:0


 30 32  0  0  0  0  0  0  0  0999 V2000
   59.4277   29.4611   46.2061 N   0  0  0  0  0  0  0  0  0  0  0  0
   59.7937   30.1758   47.3929 C   0  0  0  0  0  0  0  0  0  0  0  0
   60.7495   29.7706   48.1066 O   0  0  0  0  0  0  0  0  0  0  0  0
   58.7108   29.8249   45.6378 H   0  0  0  0  0  0  0  0  0  0  0  0
   60.0752   28.2147   45.8056 C   0  0  0  0  0  0  0  0  0  0  0  0
   57.3671   24.8646   46.2336 C   0  0  0  0  0  0  0  0  0  0  0  0
   58.7551   24.6685   46.1912 C   0  0  0  0  0  0  0  0  0  0  0  0
   59.6285   25.7511   46.0625 C   0  0  0  0  0  0  0  0  0  0  0  0
   59.1278   27.0552   45.9661 C   0  0  0  0  0  0  0  0  0  0  0  0
   57.7415   27.2618   45.9965 C   0  0  0  0  0  0  0  0  0  0  0  0
   56.8605   26.1807   46.1246 C   0  0  0  0  0  0  0  0  0  0  0  0
   55.4991   26.4456   46.1257 O   0  0  0  0  0  0  0  0  0  0  0  0
   56.5441   23.6923   46.3677 N   0  0  0  0  0  0  0  0  0  0  0  0
   56.7766   21.2916   44.7783 C   0  0  0  0  0  0  0  0  0  0  0  0
   55.7962   22.7385   45.1248 S   0  0  0  0  0  0  0  0  0  0  0  0
   54.3965   22.3572   45.5263 O   0  0  0  0  0  0  0  0  0  0  0  0
   55.7233   23.5667   43.8737 O   0  0  0  0  0  0  0  0  0  0  0  0
   59.0910   31.3776   47.7274 N   0  0  0  0  0  0  0  0  0  0  0  0
   58.9447   32.5446   46.9038 C   0  0  0  0  0  0  0  0  0  0  0  0
   57.8734   32.6771   45.9980 C   0  0  0  0  0  0  0  0  0  0  0  0
   57.7863   33.7949   45.1666 C   0  0  0  0  0  0  0  0  0  0  0  0
   58.7717   34.7830   45.2150 C   0  0  0  0  0  0  0  0  0  0  0  0
   59.8499   34.6523   46.0918 C   0  0  0  0  0  0  0  0  0  0  0  0
   59.9455   33.5371   46.9378 C   0  0  0  0  0  0  0  0  0  0  0  0
   61.0569   33.4137   47.8393 N   0  0  0  0  0  0  0  0  0  0  0  0
   62.3127   32.8305   47.3622 C   0  0  0  0  0  0  0  0  0  0  0  0
   63.4759   33.3766   48.1958 C   0  0  0  0  0  0  0  0  0  0  0  0
   63.2331   33.1934   49.5794 O   0  0  0  0  0  0  0  0  0  0  0  0
   62.1131   33.9659   49.9753 C   0  0  0  0  0  0  0  0  0  0  0  0
   60.8374   33.4713   49.2848 C   0  0  0  0  0  0  0  0  0  0  0  0
 14 15  1  0
 15 16  2  0
 15 17  2  0
 15 13  1  0
 13  6  1  0
  6  7  2  0
  7  8  1  0
  8  9  2  0
  9  5  1  0
  5  1  1  0
  1  2  1  0
  2  3  2  0
  2 18  1  0
 18 19  1  0
 19 20  2  0
 20 21  1  0
 21 22  2  0
 22 23  1  0
 23 24  2  0
 24 25  1  0
 25 26  1  0
 26 27  1  0
 27 28  1  0
 28 29  1  0
 29 30  1  0
  9 10  1  0
 10 11  2  0
 11 12  1  0
 11  6  1  0
 24 19  1  0
 30 25  1  0
  1  4  1  0
M  CHG 1  12  -1
M  CHG 1  13  -1
M  CHG 1  18  -1
M  END
> <UniqueID>
28

> <SMILES>
CS(=O)(=O)[N-]c1ccc(CNC(=O)[N-]c2ccccc2N2CCOCC2)cc1[O-]

> <Energy>
60.71284790342345

> <Genealogy>
CS(=O)(=O)[N-]c1ccc(CNC(=O)[N-]c2ccccc2N2CCOCC2)cc1[O-] (protonated)
CS(=O)(=O)[N-]c1ccc(CNC(=O)[N-]c2ccccc2N2CCOCC2)cc1[O-] (3D coordinates assigned)
CS(=O)(=O)[N-]c1ccc(CNC(=O)[N-]c2ccccc2N2CCOCC2)cc1[O-] (nonaromatic ring conformer: 60.71284790342345 kcal/mol)

> <smiles>
CS(=O)(=O)Nc1ccc(CNC(=O)Nc2ccccc2N2CCOCC2)cc1O

> <score_type>
oracle

> <origin>
adg

> <m_score__min__energy>
-15.65

> <m_primary>
energy

> <minimizedAffinity>
-7.87978

> <minimizedRMSD>
1.66684

> <CNNscore>
0.5650395155

> <CNNaffinity>
6.5152268410

> <CNN_VS>
3.6813607216

> <CNNaffinity_variance>
0.0026967153

$$$$
8:0


 25 26  0  0  0  0  0  0  0  0999 V2000
   59.3538   29.2785   47.2388 C   0  0  0  0  0  0  0  0  0  0  0  0
   60.4319   29.6965   47.7358 O   0  0  0  0  0  0  0  0  0  0  0  0
   59.2450   27.8561   46.8398 C   0  0  0  0  0  0  0  0  0  0  0  0
   60.4066   27.1046   46.5954 C   0  0  0  0  0  0  0  0  0  0  0  0
   60.3154   25.7559   46.2434 C   0  0  0  0  0  0  0  0  0  0  0  0
   59.0640   25.1452   46.1265 C   0  0  0  0  0  0  0  0  0  0  0  0
   57.8963   25.8833   46.3541 C   0  0  0  0  0  0  0  0  0  0  0  0
   57.9892   27.2401   46.6906 C   0  0  0  0  0  0  0  0  0  0  0  0
   56.3136   25.1281   46.2047 S   0  0  0  0  0  0  0  0  0  0  0  0
   55.1073   26.3490   46.0064 N   0  0  0  0  0  0  0  0  0  0  0  0
   56.2914   24.2083   45.0178 O   0  0  0  0  0  0  0  0  0  0  0  0
   56.0204   24.3258   47.4428 O   0  0  0  0  0  0  0  0  0  0  0  0
   55.3079   26.8919   45.1665 H   0  0  0  0  0  0  0  0  0  0  0  0
   58.2669   30.2016   47.0771 N   0  0  0  0  0  0  0  0  0  0  0  0
   59.2012   32.8176   47.7894 C   0  0  0  0  0  0  0  0  0  0  0  0
   58.6723   32.5254   46.4109 C   0  0  0  0  0  0  0  0  0  0  0  0
   58.7485   33.5119   45.4174 C   0  0  0  0  0  0  0  0  0  0  0  0
   58.3229   33.2405   44.1193 C   0  0  0  0  0  0  0  0  0  0  0  0
   57.7962   31.9897   43.8009 C   0  0  0  0  0  0  0  0  0  0  0  0
   57.6975   30.9842   44.7766 C   0  0  0  0  0  0  0  0  0  0  0  0
   58.1893   31.2390   46.0851 C   0  0  0  0  0  0  0  0  0  0  0  0
   57.0360   29.7092   44.4132 C   0  0  0  0  0  0  0  0  0  0  0  0
   55.7067   29.4308   44.8469 N   0  0  0  0  0  0  0  0  0  0  0  0
   57.6337   28.8762   43.6789 O   0  0  0  0  0  0  0  0  0  0  0  0
   55.2311   30.0743   45.4204 H   0  0  0  0  0  0  0  0  0  0  0  0
 15 16  1  0
 16 17  2  0
 17 18  1  0
 18 19  2  0
 19 20  1  0
 20 22  1  0
 22 23  1  0
 22 24  2  0
 20 21  2  0
 21 14  1  0
 14  1  1  0
  1  2  2  0
  1  3  1  0
  3  4  2  0
  4  5  1  0
  5  6  2  0
  6  7  1  0
  7  9  1  0
  9 10  1  0
  9 11  2  0
  9 12  2  0
  7  8  2  0
 21 16  1  0
  8  3  1  0
 23 25  1  0
 10 13  1  0
M  CHG 1  10  -1
M  CHG 1  14  -1
M  CHG 1  23  -1
M  END
> <UniqueID>
8

> <SMILES>
Cc1cccc(C([NH-])=O)c1[N-]C(=O)c1cccc(S([NH-])(=O)=O)c1

> <Energy>
46.99000324727504

> <Genealogy>
Cc1cccc(C([NH-])=O)c1[N-]C(=O)c1cccc(S([NH-])(=O)=O)c1 (protonated)
Cc1cccc(C([NH-])=O)c1[N-]C(=O)c1cccc(S([NH-])(=O)=O)c1 (3D coordinates assigned)
Cc1cccc(C([NH-])=O)c1[N-]C(=O)c1cccc(S([NH-])(=O)=O)c1 (optimized conformer: 46.99000324727504 kcal/mol)

> <smiles>
Cc1cccc(C(N)=O)c1NC(=O)c1cccc(S(N)(=O)=O)c1

> <score_type>
oracle

> <origin>
adg

> <m_score__min__energy>
-15.32

> <m_primary>
energy

> <minimizedAffinity>
-8.09475

> <minimizedRMSD>
0.77919

> <CNNscore>
0.9338583350

> <CNNaffinity>
6.7206363678

> <CNN_VS>
6.2761220932

> <CNNaffinity_variance>
0.0657979846

$$$$
68:0


 31 35  0  0  0  0  0  0  0  0999 V2000
   58.9801   27.0612   46.8797 C   0  0  0  0  0  0  0  0  0  0  0  0
   58.7463   28.3774   46.7706 C   0  0  0  0  0  0  0  0  0  0  0  0
   58.3182   29.0468   45.6245 C   0  0  0  0  0  0  0  0  0  0  0  0
   58.1497   30.3660   45.8908 N   0  0  0  0  0  0  0  0  0  0  0  0
   58.4530   30.5362   47.1676 N   0  0  0  0  0  0  0  0  0  0  0  0
   58.3960   31.6796   47.8921 C   0  0  0  0  0  0  0  0  0  0  0  0
   58.0456   32.7992   47.3334 N   0  0  0  0  0  0  0  0  0  0  0  0
   58.7055   31.6149   49.2205 N   0  0  0  0  0  0  0  0  0  0  0  0
   59.0549   30.4256   49.7973 C   0  0  0  0  0  0  0  0  0  0  0  0
   59.3392   30.3907   51.0635 N   0  0  0  0  0  0  0  0  0  0  0  0
   59.0987   29.2870   49.0413 N   0  0  0  0  0  0  0  0  0  0  0  0
   58.8082   29.3767   47.7234 C   0  0  0  0  0  0  0  0  0  0  0  0
   57.9263   26.0359   46.8546 C   0  0  0  0  0  0  0  0  0  0  0  0
   57.9885   24.8878   47.5526 N   0  0  0  0  0  0  0  0  0  0  0  0
   56.8011   24.2963   47.2951 C   0  0  0  0  0  0  0  0  0  0  0  0
   56.3868   22.8422   47.9109 S   0  0  0  0  0  0  0  0  0  0  0  0
   55.9782   25.0119   46.4974 N   0  0  0  0  0  0  0  0  0  0  0  0
   56.6993   26.1136   46.2382 C   0  0  0  0  0  0  0  0  0  0  0  0
   56.2293   27.1819   45.4828 O   0  0  0  0  0  0  0  0  0  0  0  0
   58.9897   33.8602   46.9991 C   0  0  0  0  0  0  0  0  0  0  0  0
   60.0693   33.4060   46.0369 C   0  0  0  0  0  0  0  0  0  0  0  0
   58.9330   34.2915   45.5453 C   0  0  0  0  0  0  0  0  0  0  0  0
   60.5037   31.0452   51.6543 C   0  0  0  0  0  0  0  0  0  0  0  0
   61.2705   31.7609   50.5804 C   0  0  0  0  0  0  0  0  0  0  0  0
   61.1452   33.1516   50.4294 C   0  0  0  0  0  0  0  0  0  0  0  0
   61.8327   33.8134   49.4087 C   0  0  0  0  0  0  0  0  0  0  0  0
   62.6415   33.0921   48.5220 C   0  0  0  0  0  0  0  0  0  0  0  0
   62.7567   31.7028   48.6585 C   0  0  0  0  0  0  0  0  0  0  0  0
   62.0701   31.0390   49.6801 C   0  0  0  0  0  0  0  0  0  0  0  0
   63.3486   33.7736   47.4702 C   0  0  0  0  0  0  0  0  0  0  0  0
   63.9178   34.3225   46.6254 N   0  0  0  0  0  0  0  0  0  0  0  0
  1 13  1  0
 13 14  1  0
 14 15  1  0
 15 16  2  0
 15 17  1  0
 17 18  1  0
 18 19  1  0
  1  2  2  0
  2  3  1  0
  3  4  2  0
  4  5  1  0
  5  6  1  0
  6  7  2  0
  7 20  1  0
 20 21  1  0
 21 22  1  0
  6  8  1  0
  8  9  1  0
  9 10  2  0
 10 23  1  0
 23 24  1  0
 24 25  2  0
 25 26  1  0
 26 27  2  0
 27 30  1  0
 30 31  3  0
 27 28  1  0
 28 29  2  0
  9 11  1  0
 11 12  2  0
 18 13  2  0
 12  2  1  0
 12  5  1  0
 22 20  1  0
 29 24  1  0
M  CHG 1   8  -1
M  CHG 1  14  -1
M  CHG 1  17  -1
M  CHG 1  19  -1
M  END
> <UniqueID>
65

> <SMILES>
N#Cc1ccc(CN=c2nc3/c(=C\c4[n-]c(=S)[n-]c4[O-])cnn3/c(=N/C3CC3)[n-]2)cc1

> <Energy>
385.0659760137175

> <Genealogy>
N#Cc1ccc(CN=c2nc3c(=Cc4[n-]c(=S)[n-]c4[O-])cnn3c(=NC3CC3)[n-]2)cc1 (protonated)
N#Cc1ccc(CN=c2nc3/c(=C\c4[n-]c(=S)[n-]c4[O-])cnn3/c(=N/C3CC3)[n-]2)cc1 (cis-trans isomerization)
N#Cc1ccc(CN=c2nc3/c(=C\c4[n-]c(=S)[n-]c4[O-])cnn3/c(=N/C3CC3)[n-]2)cc1 (3D coordinates assigned)
N#Cc1ccc(CN=c2nc3/c(=C\c4[n-]c(=S)[n-]c4[O-])cnn3/c(=N/C3CC3)[n-]2)cc1 (nonaromatic ring conformer: 385.0659760137175 kcal/mol)

> <smiles>
N#Cc1ccc(CN=c2nc3c(=Cc4[nH]c(=S)[nH]c4O)cnn3c(=NC3CC3)[nH]2)cc1

> <score_type>
oracle

> <origin>
adg

> <m_score__min__energy>
-17.91

> <m_primary>
energy

> <minimizedAffinity>
-6.77059

> <minimizedRMSD>
0.76985

> <CNNscore>
0.3565901220

> <CNNaffinity>
6.8788619041

> <CNN_VS>
2.4529342651

> <CNNaffinity_variance>
0.1100800261

$$$$
98:0


 34 37  0  0  0  0  0  0  0  0999 V2000
   58.8836   27.6289   55.1605 C   0  0  0  0  0  0  0  0  0  0  0  0
   57.8387   28.1514   54.5150 C   0  0  0  0  0  0  0  0  0  0  0  0
   56.5656   27.9673   54.9361 N   0  0  0  0  0  0  0  0  0  0  0  0
   55.8128   28.6870   54.0767 C   0  0  0  0  0  0  0  0  0  0  0  0
   54.4767   28.7673   54.1858 C   0  0  0  0  0  0  0  0  0  0  0  0
   56.6518   29.3075   53.1666 C   0  0  0  0  0  0  0  0  0  0  0  0
   56.3158   30.1072   52.2534 O   0  0  0  0  0  0  0  0  0  0  0  0
   57.9235   28.9551   53.4240 N   0  0  0  0  0  0  0  0  0  0  0  0
   59.0912   29.4107   52.7201 C   0  0  0  0  0  0  0  0  0  0  0  0
   60.2320   29.1511   53.1908 O   0  0  0  0  0  0  0  0  0  0  0  0
   53.6126   29.6048   53.3304 C   0  0  0  0  0  0  0  0  0  0  0  0
   53.8935   29.7117   51.9616 C   0  0  0  0  0  0  0  0  0  0  0  0
   53.1130   30.5350   51.1445 C   0  0  0  0  0  0  0  0  0  0  0  0
   52.0607   31.2744   51.6918 C   0  0  0  0  0  0  0  0  0  0  0  0
   51.2911   32.0883   50.8678 O   0  0  0  0  0  0  0  0  0  0  0  0
   51.7911   31.1969   53.0646 C   0  0  0  0  0  0  0  0  0  0  0  0
   50.3711   32.2167   53.8410 Br  0  0  0  0  0  0  0  0  0  0  0  0
   52.5735   30.3739   53.8838 C   0  0  0  0  0  0  0  0  0  0  0  0
   58.9794   30.2125   51.4782 C   0  0  0  0  0  0  0  0  0  0  0  0
   58.7313   31.5932   51.5451 C   0  0  0  0  0  0  0  0  0  0  0  0
   58.6191   32.3544   50.3770 C   0  0  0  0  0  0  0  0  0  0  0  0
   58.7443   31.7419   49.1179 C   0  0  0  0  0  0  0  0  0  0  0  0
   58.9828   30.3643   49.0487 C   0  0  0  0  0  0  0  0  0  0  0  0
   59.0961   29.6040   50.2165 C   0  0  0  0  0  0  0  0  0  0  0  0
   58.6294   32.4793   47.8942 N   0  0  0  0  0  0  0  0  0  0  0  0
   59.8015   33.6094   47.2955 S   0  0  0  0  0  0  0  0  0  0  0  0
   59.9268   33.4442   45.8068 O   0  0  0  0  0  0  0  0  0  0  0  0
   59.3384   35.0053   47.5974 O   0  0  0  0  0  0  0  0  0  0  0  0
   61.3551   33.3415   48.0821 C   0  0  0  0  0  0  0  0  0  0  0  0
   61.6732   34.0339   49.2591 C   0  0  0  0  0  0  0  0  0  0  0  0
   62.9020   33.8145   49.8910 C   0  0  0  0  0  0  0  0  0  0  0  0
   63.8169   32.9087   49.3483 C   0  0  0  0  0  0  0  0  0  0  0  0
   63.5057   32.2215   48.1722 C   0  0  0  0  0  0  0  0  0  0  0  0
   62.2779   32.4377   47.5379 C   0  0  0  0  0  0  0  0  0  0  0  0
  1  2  2  0
  2  3  1  0
  3  4  1  0
  4  5  2  0
  5 11  1  0
 11 12  2  0
 12 13  1  0
 13 14  2  0
 14 15  1  0
 14 16  1  0
 16 17  1  0
 16 18  2  0
  4  6  1  0
  6  7  2  0
  6  8  1  0
  8  9  1  0
  9 10  2  0
  9 19  1  0
 19 20  2  0
 20 21  1  0
 21 22  2  0
 22 25  1  0
 25 26  1  0
 26 27  2  0
 26 28  2  0
 26 29  1  0
 29 30  2  0
 30 31  1  0
 31 32  2  0
 32 33  1  0
 33 34  2  0
 22 23  1  0
 23 24  2  0
  8  2  1  0
 24 19  1  0
 18 11  1  0
 34 29  1  0
M  CHG 1   3  -1
M  CHG 1  15  -1
M  CHG 1  25  -1
M  END
> <UniqueID>
93

> <SMILES>
C=c1[n-]/c(=C/c2ccc([O-])c(Br)c2)c(=O)n1C(=O)c1ccc([N-]S(=O)(=O)c2ccccc2)cc1

> <Energy>
104.96972650177929

> <Genealogy>
C=c1[n-]c(=Cc2ccc([O-])c(Br)c2)c(=O)n1C(=O)c1ccc([N-]S(=O)(=O)c2ccccc2)cc1 (protonated)
C=c1[n-]/c(=C/c2ccc([O-])c(Br)c2)c(=O)n1C(=O)c1ccc([N-]S(=O)(=O)c2ccccc2)cc1 (cis-trans isomerization)
C=c1[n-]/c(=C/c2ccc([O-])c(Br)c2)c(=O)n1C(=O)c1ccc([N-]S(=O)(=O)c2ccccc2)cc1 (3D coordinates assigned)
C=c1[n-]/c(=C/c2ccc([O-])c(Br)c2)c(=O)n1C(=O)c1ccc([N-]S(=O)(=O)c2ccccc2)cc1 (optimized conformer: 104.96972650177929 kcal/mol)

> <smiles>
C=c1[nH]c(=Cc2ccc(O)c(Br)c2)c(=O)n1C(=O)c1ccc(NS(=O)(=O)c2ccccc2)cc1

> <score_type>
oracle

> <origin>
adg

> <m_score__min__energy>
-15.609999999999999

> <m_primary>
energy

> <minimizedAffinity>
-7.92961

> <minimizedRMSD>
1.06486

> <CNNscore>
0.2999974787

> <CNNaffinity>
5.8011441231

> <CNN_VS>
1.7403286695

> <CNNaffinity_variance>
0.3409689963

$$$$
4:0


 26 27  0  0  0  0  0  0  0  0999 V2000
   57.4075   28.9437   45.1054 S   0  0  0  0  0  0  0  0  0  0  0  0
   58.0253   28.4043   43.8486 O   0  0  0  0  0  0  0  0  0  0  0  0
   55.9692   29.2934   44.8390 O   0  0  0  0  0  0  0  0  0  0  0  0
   59.6767   32.6628   46.5592 C   0  0  0  0  0  0  0  0  0  0  0  0
   60.0530   31.3647   46.9729 C   0  0  0  0  0  0  0  0  0  0  0  0
   59.3794   30.2355   46.5049 C   0  0  0  0  0  0  0  0  0  0  0  0
   58.3085   30.3681   45.6180 C   0  0  0  0  0  0  0  0  0  0  0  0
   57.9302   31.6418   45.1819 C   0  0  0  0  0  0  0  0  0  0  0  0
   58.6016   32.7766   45.6448 C   0  0  0  0  0  0  0  0  0  0  0  0
   60.1149   34.0368   48.6288 C   0  0  0  0  0  0  0  0  0  0  0  0
   60.4262   33.8879   47.1227 C   0  0  0  0  0  0  0  0  0  0  0  0
   61.9626   33.7833   46.9719 C   0  0  0  0  0  0  0  0  0  0  0  0
   59.9655   35.1576   46.3752 C   0  0  0  0  0  0  0  0  0  0  0  0
   57.4714   27.7283   46.3417 N   0  0  0  0  0  0  0  0  0  0  0  0
   57.6323   26.3215   46.1055 C   0  0  0  0  0  0  0  0  0  0  0  0
   58.9277   25.8034   45.9962 C   0  0  0  0  0  0  0  0  0  0  0  0
   59.1277   24.4338   45.8130 C   0  0  0  0  0  0  0  0  0  0  0  0
   58.0349   23.5661   45.7382 C   0  0  0  0  0  0  0  0  0  0  0  0
   58.2587   22.2017   45.5821 O   0  0  0  0  0  0  0  0  0  0  0  0
   56.7269   24.0735   45.8253 C   0  0  0  0  0  0  0  0  0  0  0  0
   56.5322   25.4515   46.0026 C   0  0  0  0  0  0  0  0  0  0  0  0
   55.3325   22.9923   45.7654 S   0  0  0  0  0  0  0  0  0  0  0  0
   53.8811   23.9285   45.6999 N   0  0  0  0  0  0  0  0  0  0  0  0
   55.4108   22.1190   44.5446 O   0  0  0  0  0  0  0  0  0  0  0  0
   55.3142   22.1122   46.9832 O   0  0  0  0  0  0  0  0  0  0  0  0
   53.8979   24.5242   44.8721 H   0  0  0  0  0  0  0  0  0  0  0  0
 10 11  1  0
 11 12  1  0
 11 13  1  0
 11  4  1  0
  4  5  2  0
  5  6  1  0
  6  7  2  0
  7  1  1  0
  1  2  2  0
  1  3  2  0
  1 14  1  0
 14 15  1  0
 15 16  2  0
 16 17  1  0
 17 18  2  0
 18 19  1  0
 18 20  1  0
 20 22  1  0
 22 23  1  0
 22 24  2  0
 22 25  2  0
 20 21  2  0
  7  8  1  0
  8  9  2  0
  9  4  1  0
 21 15  1  0
 23 26  1  0
M  CHG 1  14  -1
M  CHG 1  19  -1
M  CHG 1  23  -1
M  END
> <UniqueID>
4

> <SMILES>
CC(C)(C)c1ccc(S(=O)(=O)[N-]c2ccc([O-])c(S([NH-])(=O)=O)c2)cc1

> <Energy>
46.17781647693794

> <Genealogy>
CC(C)(C)c1ccc(S(=O)(=O)[N-]c2ccc([O-])c(S([NH-])(=O)=O)c2)cc1 (protonated)
CC(C)(C)c1ccc(S(=O)(=O)[N-]c2ccc([O-])c(S([NH-])(=O)=O)c2)cc1 (3D coordinates assigned)
CC(C)(C)c1ccc(S(=O)(=O)[N-]c2ccc([O-])c(S([NH-])(=O)=O)c2)cc1 (optimized conformer: 46.17781647693794 kcal/mol)

> <smiles>
CC(C)(C)c1ccc(S(=O)(=O)Nc2ccc(O)c(S(N)(=O)=O)c2)cc1

> <score_type>
oracle

> <origin>
adg

> <m_score__min__energy>
-14.66

> <m_primary>
energy

> <minimizedAffinity>
-7.70100

> <minimizedRMSD>
1.29691

> <CNNscore>
0.5237109661

> <CNNaffinity>
6.8943028450

> <CNN_VS>
3.6106219292

> <CNNaffinity_variance>
0.4147549570

$$$$
22:0


 23 24  0  0  0  0  0  0  0  0999 V2000
   60.7021   28.7175   47.5280 N   0  0  0  0  0  0  0  0  0  0  0  0
   57.4263   27.9395   45.8586 C   0  0  0  0  0  0  0  0  0  0  0  0
   58.5784   28.6326   46.2535 C   0  0  0  0  0  0  0  0  0  0  0  0
   59.5578   28.0042   47.0415 C   0  0  0  0  0  0  0  0  0  0  0  0
   59.3705   26.6758   47.4390 C   0  0  0  0  0  0  0  0  0  0  0  0
   58.2440   25.9653   47.0153 C   0  0  0  0  0  0  0  0  0  0  0  0
   57.2795   26.5846   46.2143 C   0  0  0  0  0  0  0  0  0  0  0  0
   56.1992   25.8379   45.7594 O   0  0  0  0  0  0  0  0  0  0  0  0
   56.4525   28.6274   45.0615 N   0  0  0  0  0  0  0  0  0  0  0  0
   56.6676   30.0132   42.9606 C   0  0  0  0  0  0  0  0  0  0  0  0
   56.6396   29.9071   44.4469 C   0  0  0  0  0  0  0  0  0  0  0  0
   56.8735   30.9267   45.1495 O   0  0  0  0  0  0  0  0  0  0  0  0
   60.7268   30.1079   47.8643 C   0  0  0  0  0  0  0  0  0  0  0  0
   60.9818   30.9740   46.9836 O   0  0  0  0  0  0  0  0  0  0  0  0
   60.4894   30.5312   49.2809 C   0  0  0  0  0  0  0  0  0  0  0  0
   59.3987   31.4985   49.3535 N   0  0  0  0  0  0  0  0  0  0  0  0
   59.5073   32.9224   49.1942 C   0  0  0  0  0  0  0  0  0  0  0  0
   59.7907   33.6184   50.2046 O   0  0  0  0  0  0  0  0  0  0  0  0
   59.3162   33.5959   47.8940 C   0  0  0  0  0  0  0  0  0  0  0  0
   58.2997   33.3303   46.9959 C   0  0  0  0  0  0  0  0  0  0  0  0
   58.5020   34.1881   45.9368 C   0  0  0  0  0  0  0  0  0  0  0  0
   59.6312   34.9171   46.2454 C   0  0  0  0  0  0  0  0  0  0  0  0
   60.0940   34.5386   47.4146 O   0  0  0  0  0  0  0  0  0  0  0  0
 10 11  1  0
 11 12  2  0
 11  9  1  0
  9  2  1  0
  2  3  2  0
  3  4  1  0
  4  1  1  0
  1 13  1  0
 13 14  2  0
 13 15  1  0
 15 16  1  0
 16 17  1  0
 17 18  2  0
 17 19  1  0
 19 20  2  0
 20 21  1  0
 21 22  2  0
 22 23  1  0
  4  5  2  0
  5  6  1  0
  6  7  2  0
  7  8  1  0
  7  2  1  0
 23 19  1  0
M  CHG 1   1  -1
M  CHG 1   8  -1
M  CHG 1   9  -1
M  CHG 1  16  -1
M  END
> <UniqueID>
21

> <SMILES>
CC(=O)[N-]c1cc([N-]C(=O)C[N-]C(=O)c2ccco2)ccc1[O-]

> <Energy>
64.16242175324089

> <Genealogy>
CC(=O)[N-]c1cc([N-]C(=O)C[N-]C(=O)c2ccco2)ccc1[O-] (protonated)
CC(=O)[N-]c1cc([N-]C(=O)C[N-]C(=O)c2ccco2)ccc1[O-] (3D coordinates assigned)
CC(=O)[N-]c1cc([N-]C(=O)C[N-]C(=O)c2ccco2)ccc1[O-] (optimized conformer: 64.16242175324089 kcal/mol)

> <smiles>
CC(=O)Nc1cc(NC(=O)CNC(=O)c2ccco2)ccc1O

> <score_type>
oracle

> <origin>
adg

> <m_score__min__energy>
-14.289999999999999

> <m_primary>
energy

> <minimizedAffinity>
-5.56485

> <minimizedRMSD>
1.84114

> <CNNscore>
0.8566619754

> <CNNaffinity>
6.6317176819

> <CNN_VS>
5.6811404228

> <CNNaffinity_variance>
0.2775573432

$$$$
66:0


 34 37  0  0  0  0  0  0  0  0999 V2000
   60.1286   28.7924   50.6573 N   0  0  0  0  0  0  0  0  0  0  0  0
   59.3439   29.8248   50.7481 C   0  0  0  0  0  0  0  0  0  0  0  0
   59.6887   30.9752   50.1181 N   0  0  0  0  0  0  0  0  0  0  0  0
   58.8812   32.0674   50.1837 C   0  0  0  0  0  0  0  0  0  0  0  0
   59.2035   33.1834   49.5981 N   0  0  0  0  0  0  0  0  0  0  0  0
   57.7365   32.0085   50.9112 N   0  0  0  0  0  0  0  0  0  0  0  0
   57.3888   30.8665   51.5573 C   0  0  0  0  0  0  0  0  0  0  0  0
   56.2985   30.8451   52.2670 N   0  0  0  0  0  0  0  0  0  0  0  0
   58.1914   29.7718   51.4673 N   0  0  0  0  0  0  0  0  0  0  0  0
   59.1924   33.4534   48.1859 C   0  0  0  0  0  0  0  0  0  0  0  0
   60.3441   33.9914   47.5955 C   0  0  0  0  0  0  0  0  0  0  0  0
   60.3630   34.2972   46.2310 C   0  0  0  0  0  0  0  0  0  0  0  0
   59.2242   34.0865   45.4497 C   0  0  0  0  0  0  0  0  0  0  0  0
   58.0605   33.5799   46.0349 C   0  0  0  0  0  0  0  0  0  0  0  0
   58.0371   33.2720   47.3996 C   0  0  0  0  0  0  0  0  0  0  0  0
   60.8912   28.4168   49.4687 C   0  0  0  0  0  0  0  0  0  0  0  0
   58.4894   29.1873   45.9655 C   0  0  0  0  0  0  0  0  0  0  0  0
   58.2204   28.0736   46.7697 C   0  0  0  0  0  0  0  0  0  0  0  0
   59.0039   27.8148   47.8980 C   0  0  0  0  0  0  0  0  0  0  0  0
   60.0682   28.6644   48.2338 C   0  0  0  0  0  0  0  0  0  0  0  0
   60.3248   29.7904   47.4350 C   0  0  0  0  0  0  0  0  0  0  0  0
   59.5414   30.0502   46.3065 C   0  0  0  0  0  0  0  0  0  0  0  0
   55.8247   29.5333   45.0191 N   0  0  0  0  0  0  0  0  0  0  0  0
   57.4889   29.5234   44.5562 S   0  0  0  0  0  0  0  0  0  0  0  0
   57.8545   30.8606   43.9779 O   0  0  0  0  0  0  0  0  0  0  0  0
   57.7139   28.4672   43.5097 O   0  0  0  0  0  0  0  0  0  0  0  0
   55.2457   29.7280   44.2023 H   0  0  0  0  0  0  0  0  0  0  0  0
   55.3125   29.7659   52.2564 C   0  0  0  0  0  0  0  0  0  0  0  0
   53.9238   30.3132   52.4667 C   0  0  0  0  0  0  0  0  0  0  0  0
   53.2387   30.9527   51.4202 C   0  0  0  0  0  0  0  0  0  0  0  0
   51.9474   31.4483   51.6215 C   0  0  0  0  0  0  0  0  0  0  0  0
   51.3323   31.3162   52.8692 C   0  0  0  0  0  0  0  0  0  0  0  0
   52.0108   30.6920   53.9191 C   0  0  0  0  0  0  0  0  0  0  0  0
   53.3027   30.1938   53.7215 C   0  0  0  0  0  0  0  0  0  0  0  0
 23 24  1  0
 24 25  2  0
 24 26  2  0
 24 17  1  0
 17 18  2  0
 18 19  1  0
 19 20  2  0
 20 16  1  0
 16  1  1  0
  1  2  2  0
  2  3  1  0
  3  4  1  0
  4  5  2  0
  5 10  1  0
 10 11  2  0
 11 12  1  0
 12 13  2  0
 13 14  1  0
 14 15  2  0
  4  6  1  0
  6  7  1  0
  7  8  2  0
  8 28  1  0
 28 29  1  0
 29 30  2  0
 30 31  1  0
 31 32  2  0
 32 33  1  0
 33 34  2  0
  7  9  1  0
 20 21  1  0
 21 22  2  0
 22 17  1  0
  9  2  1  0
 15 10  1  0
 34 29  1  0
 23 27  1  0
M  CHG 1   3  -1
M  CHG 1   6  -1
M  CHG 1   9  -1
M  CHG 1  23  -1
M  END
> <UniqueID>
63

> <SMILES>
[NH-]S(=O)(=O)c1ccc(C/N=c2\[n-]c(=NCc3ccccc3)[n-]c(=Nc3ccccc3)[n-]2)cc1

> <Energy>
60.4325364176435

> <Genealogy>
[NH-]S(=O)(=O)c1ccc(CN=c2[n-]c(=NCc3ccccc3)[n-]c(=Nc3ccccc3)[n-]2)cc1 (protonated)
[NH-]S(=O)(=O)c1ccc(C/N=c2\[n-]c(=NCc3ccccc3)[n-]c(=Nc3ccccc3)[n-]2)cc1 (cis-trans isomerization)
[NH-]S(=O)(=O)c1ccc(C/N=c2\[n-]c(=NCc3ccccc3)[n-]c(=Nc3ccccc3)[n-]2)cc1 (3D coordinates assigned)
[NH-]S(=O)(=O)c1ccc(C/N=c2\[n-]c(=NCc3ccccc3)[n-]c(=Nc3ccccc3)[n-]2)cc1 (optimized conformer: 60.4325364176435 kcal/mol)

> <smiles>
NS(=O)(=O)c1ccc(CN=c2[nH]c(=NCc3ccccc3)[nH]c(=Nc3ccccc3)[nH]2)cc1

> <score_type>
oracle

> <origin>
adg

> <m_score__min__energy>
-15.06

> <m_primary>
energy

> <minimizedAffinity>
-9.02099

> <minimizedRMSD>
0.72209

> <CNNscore>
0.7532662153

> <CNNaffinity>
7.0928626060

> <CNN_VS>
5.3428139687

> <CNNaffinity_variance>
0.1433314532

$$$$
69:0


 23 24  0  0  0  0  0  0  0  0999 V2000
   55.4976   26.5378   46.1246 N   0  0  0  0  0  0  0  0  0  0  0  0
   56.7691   27.1406   45.8429 C   0  0  0  0  0  0  0  0  0  0  0  0
   57.9776   26.5553   46.2667 C   0  0  0  0  0  0  0  0  0  0  0  0
   59.2036   27.1588   45.9580 C   0  0  0  0  0  0  0  0  0  0  0  0
   59.2275   28.3370   45.2016 C   0  0  0  0  0  0  0  0  0  0  0  0
   58.0332   28.9077   44.7565 C   0  0  0  0  0  0  0  0  0  0  0  0
   56.8082   28.3097   45.0697 C   0  0  0  0  0  0  0  0  0  0  0  0
   55.6282   28.8872   44.6131 O   0  0  0  0  0  0  0  0  0  0  0  0
   60.7117   26.4254   46.4866 S   0  0  0  0  0  0  0  0  0  0  0  0
   61.8628   27.0565   45.7558 O   0  0  0  0  0  0  0  0  0  0  0  0
   60.8812   26.6243   47.9659 O   0  0  0  0  0  0  0  0  0  0  0  0
   60.6890   24.7803   46.1686 F   0  0  0  0  0  0  0  0  0  0  0  0
   53.8621   25.0024   45.4882 O   0  0  0  0  0  0  0  0  0  0  0  0
   55.0760   25.2170   45.7573 C   0  0  0  0  0  0  0  0  0  0  0  0
   56.0648   24.1111   45.6270 C   0  0  0  0  0  0  0  0  0  0  0  0
   56.8268   24.0037   44.4468 C   0  0  0  0  0  0  0  0  0  0  0  0
   57.7648   22.9821   44.2928 C   0  0  0  0  0  0  0  0  0  0  0  0
   57.9587   22.0492   45.3099 C   0  0  0  0  0  0  0  0  0  0  0  0
   57.2137   22.1295   46.4887 C   0  0  0  0  0  0  0  0  0  0  0  0
   57.4296   21.1785   47.4864 O   0  0  0  0  0  0  0  0  0  0  0  0
   56.2635   23.1542   46.6528 C   0  0  0  0  0  0  0  0  0  0  0  0
   55.5255   23.2060   47.8312 O   0  0  0  0  0  0  0  0  0  0  0  0
   58.0665   20.5030   47.3599 H   0  0  0  0  0  0  0  0  0  0  0  0
 13 14  2  0
 14  1  1  0
  1  2  1  0
  2  3  2  0
  3  4  1  0
  4  9  1  0
  9 10  2  0
  9 11  2  0
  9 12  1  0
  4  5  2  0
  5  6  1  0
  6  7  2  0
  7  8  1  0
 14 15  1  0
 15 16  2  0
 16 17  1  0
 17 18  2  0
 18 19  1  0
 19 20  1  0
 19 21  2  0
 21 22  1  0
  7  2  1  0
 21 15  1  0
 20 23  1  0
M  CHG 1   1  -1
M  CHG 1   8  -1
M  CHG 1  22  -1
M  END
> <UniqueID>
66

> <SMILES>
O=C([N-]c1cc(S(=O)(=O)F)ccc1[O-])c1cccc(O)c1[O-]

> <Energy>
37.75662008653046

> <Genealogy>
O=C([N-]c1cc(S(=O)(=O)F)ccc1[O-])c1cccc(O)c1[O-] (protonated)
O=C([N-]c1cc(S(=O)(=O)F)ccc1[O-])c1cccc(O)c1[O-] (3D coordinates assigned)
O=C([N-]c1cc(S(=O)(=O)F)ccc1[O-])c1cccc(O)c1[O-] (optimized conformer: 37.75662008653046 kcal/mol)

> <smiles>
O=C(Nc1cc(S(=O)(=O)F)ccc1O)c1cccc(O)c1O

> <score_type>
oracle

> <origin>
adg

> <m_score__min__energy>
-14.16

> <m_primary>
energy

> <minimizedAffinity>
-1.72152

> <minimizedRMSD>
0.59844

> <CNNscore>
0.3942533731

> <CNNaffinity>
5.0725207329

> <CNN_VS>
1.9998583794

> <CNNaffinity_variance>
0.0192681644

$$$$
25:0


 26 28  0  0  0  0  0  0  0  0999 V2000
   58.4951   28.4192   44.8368 C   0  0  0  0  0  0  0  0  0  0  0  0
   59.8603   29.3468   45.1869 S   0  0  0  0  0  0  0  0  0  0  0  0
   58.9459   30.6899   45.6515 C   0  0  0  0  0  0  0  0  0  0  0  0
   59.4134   31.8230   46.0871 N   0  0  0  0  0  0  0  0  0  0  0  0
   57.6207   30.4368   45.6001 N   0  0  0  0  0  0  0  0  0  0  0  0
   57.3712   29.1744   45.1599 C   0  0  0  0  0  0  0  0  0  0  0  0
   56.0760   28.6849   45.0507 O   0  0  0  0  0  0  0  0  0  0  0  0
   58.8103   27.0182   47.3849 C   0  0  0  0  0  0  0  0  0  0  0  0
   58.1947   26.0267   46.7183 C   0  0  0  0  0  0  0  0  0  0  0  0
   57.7221   25.0024   47.4714 N   0  0  0  0  0  0  0  0  0  0  0  0
   57.1358   23.9097   46.9381 C   0  0  0  0  0  0  0  0  0  0  0  0
   56.7205   23.0033   47.7113 O   0  0  0  0  0  0  0  0  0  0  0  0
   56.9932   23.7965   45.5856 N   0  0  0  0  0  0  0  0  0  0  0  0
   56.3177   22.6174   45.0135 C   0  0  0  0  0  0  0  0  0  0  0  0
   57.3851   24.8254   44.7664 C   0  0  0  0  0  0  0  0  0  0  0  0
   57.0837   24.7757   43.5418 O   0  0  0  0  0  0  0  0  0  0  0  0
   58.0568   25.9679   45.2967 C   0  0  0  0  0  0  0  0  0  0  0  0
   58.4906   26.9822   44.4941 C   0  0  0  0  0  0  0  0  0  0  0  0
   60.2007   32.0204   47.2745 C   0  0  0  0  0  0  0  0  0  0  0  0
   61.2418   32.9662   47.3124 C   0  0  0  0  0  0  0  0  0  0  0  0
   61.9655   33.1702   48.4914 C   0  0  0  0  0  0  0  0  0  0  0  0
   61.6431   32.4516   49.6443 C   0  0  0  0  0  0  0  0  0  0  0  0
   60.5885   31.5347   49.6236 C   0  0  0  0  0  0  0  0  0  0  0  0
   59.8587   31.3250   48.4446 C   0  0  0  0  0  0  0  0  0  0  0  0
   58.7991   30.4181   48.4286 O   0  0  0  0  0  0  0  0  0  0  0  0
   58.5689   29.9527   49.2086 H   0  0  0  0  0  0  0  0  0  0  0  0
  8  9  2  0
  9 10  1  0
 10 11  1  0
 11 12  2  0
 11 13  1  0
 13 14  1  0
 13 15  1  0
 15 16  2  0
 15 17  1  0
 17 18  2  0
 18  1  1  0
  1  2  1  0
  2  3  1  0
  3  4  2  0
  4 19  1  0
 19 20  2  0
 20 21  1  0
 21 22  2  0
 22 23  1  0
 23 24  2  0
 24 25  1  0
  3  5  1  0
  5  6  1  0
  6  7  1  0
 17  9  1  0
  6  1  2  0
 24 19  1  0
 25 26  1  0
M  CHG 1   5  -1
M  CHG 1   7  -1
M  CHG 1  10  -1
M  END
> <UniqueID>
25

> <SMILES>
C=c1[n-]c(=O)n(C)c(=O)c1=Cc1sc(=Nc2ccccc2O)[n-]c1[O-]

> <Energy>
100.95629307774924

> <Genealogy>
C=c1[n-]c(=O)n(C)c(=O)c1=Cc1sc(=Nc2ccccc2O)[n-]c1[O-] (protonated)
C=c1[n-]c(=O)n(C)c(=O)c1=Cc1sc(=Nc2ccccc2O)[n-]c1[O-] (3D coordinates assigned)
C=c1[n-]c(=O)n(C)c(=O)c1=Cc1sc(=Nc2ccccc2O)[n-]c1[O-] (optimized conformer: 100.95629307774924 kcal/mol)

> <smiles>
C=c1[nH]c(=O)n(C)c(=O)c1=Cc1sc(=Nc2ccccc2O)[nH]c1O

> <score_type>
oracle

> <origin>
adg

> <m_score__min__energy>
-14.18

> <m_primary>
energy

> <minimizedAffinity>
-7.23031

> <minimizedRMSD>
2.09717

> <CNNscore>
0.1278821826

> <CNNaffinity>
6.2111907005

> <CNN_VS>
0.7943006158

> <CNNaffinity_variance>
0.3232074678

$$$$
29:0


 28 30  0  0  0  0  0  0  0  0999 V2000
   57.0285   30.3276   43.9345 S   0  0  0  0  0  0  0  0  0  0  0  0
   56.6433   30.0218   42.5142 O   0  0  0  0  0  0  0  0  0  0  0  0
   55.7887   30.5812   44.7430 O   0  0  0  0  0  0  0  0  0  0  0  0
   57.8791   26.7534   45.6509 C   0  0  0  0  0  0  0  0  0  0  0  0
   59.2542   26.8593   45.9012 C   0  0  0  0  0  0  0  0  0  0  0  0
   59.9494   28.0097   45.5167 C   0  0  0  0  0  0  0  0  0  0  0  0
   59.2738   29.0640   44.8965 C   0  0  0  0  0  0  0  0  0  0  0  0
   57.8997   28.9664   44.6395 C   0  0  0  0  0  0  0  0  0  0  0  0
   57.2132   27.7945   44.9928 C   0  0  0  0  0  0  0  0  0  0  0  0
   55.2907   25.6591   46.1235 N   0  0  0  0  0  0  0  0  0  0  0  0
   56.9851   25.3275   46.1666 S   0  0  0  0  0  0  0  0  0  0  0  0
   57.3879   24.9581   47.5669 O   0  0  0  0  0  0  0  0  0  0  0  0
   57.2936   24.1711   45.2567 O   0  0  0  0  0  0  0  0  0  0  0  0
   54.7746   24.8318   46.4226 H   0  0  0  0  0  0  0  0  0  0  0  0
   58.0224   31.7508   43.9547 N   0  0  0  0  0  0  0  0  0  0  0  0
   58.3977   32.4549   45.1451 C   0  0  0  0  0  0  0  0  0  0  0  0
   58.4921   31.7428   46.3474 C   0  0  0  0  0  0  0  0  0  0  0  0
   58.9881   32.3619   47.4980 C   0  0  0  0  0  0  0  0  0  0  0  0
   59.3733   33.7117   47.4660 C   0  0  0  0  0  0  0  0  0  0  0  0
   59.2333   34.4381   46.2737 C   0  0  0  0  0  0  0  0  0  0  0  0
   58.7406   33.8176   45.1228 C   0  0  0  0  0  0  0  0  0  0  0  0
   60.0339   34.3409   48.6606 C   0  0  0  0  0  0  0  0  0  0  0  0
   61.4459   33.8349   48.7825 C   0  0  0  0  0  0  0  0  0  0  0  0
   62.0610   33.7421   50.0408 C   0  0  0  0  0  0  0  0  0  0  0  0
   63.3917   33.3301   50.1288 C   0  0  0  0  0  0  0  0  0  0  0  0
   64.0891   33.0305   49.0008 N   0  0  0  0  0  0  0  0  0  0  0  0
   63.5229   33.1191   47.7686 C   0  0  0  0  0  0  0  0  0  0  0  0
   62.1934   33.5287   47.6349 C   0  0  0  0  0  0  0  0  0  0  0  0
 10 11  1  0
 11 12  2  0
 11 13  2  0
 11  4  1  0
  4  5  2  0
  5  6  1  0
  6  7  2  0
  7  8  1  0
  8  1  1  0
  1  2  2  0
  1  3  2  0
  1 15  1  0
 15 16  1  0
 16 17  2  0
 17 18  1  0
 18 19  2  0
 19 22  1  0
 22 23  1  0
 23 24  2  0
 24 25  1  0
 25 26  2  0
 26 27  1  0
 27 28  2  0
 19 20  1  0
 20 21  2  0
  8  9  2  0
  9  4  1  0
 21 16  1  0
 28 23  1  0
 10 14  1  0
M  CHG 1  10  -1
M  CHG 1  15  -1
M  END
> <UniqueID>
29

> <SMILES>
[NH-]S(=O)(=O)c1cccc(S(=O)(=O)[N-]c2ccc(Cc3ccncc3)cc2)c1

> <Energy>
45.48383989565499

> <Genealogy>
[NH-]S(=O)(=O)c1cccc(S(=O)(=O)[N-]c2ccc(Cc3ccncc3)cc2)c1 (protonated)
[NH-]S(=O)(=O)c1cccc(S(=O)(=O)[N-]c2ccc(Cc3ccncc3)cc2)c1 (3D coordinates assigned)
[NH-]S(=O)(=O)c1cccc(S(=O)(=O)[N-]c2ccc(Cc3ccncc3)cc2)c1 (optimized conformer: 45.48383989565499 kcal/mol)

> <smiles>
NS(=O)(=O)c1cccc(S(=O)(=O)Nc2ccc(Cc3ccncc3)cc2)c1

> <score_type>
oracle

> <origin>
adg

> <m_score__min__energy>
-14.08

> <m_primary>
energy

> <minimizedAffinity>
-8.82922

> <minimizedRMSD>
0.50191

> <CNNscore>
0.9533738494

> <CNNaffinity>
7.6311783791

> <CNN_VS>
7.2753658295

> <CNNaffinity_variance>
0.0906388983

$$$$
45:0


 33 36  0  0  0  0  0  0  0  0999 V2000
   59.7765   34.2078   47.2681 S   0  0  0  0  0  0  0  0  0  0  0  0
   59.3667   35.5124   46.6446 O   0  0  0  0  0  0  0  0  0  0  0  0
   61.2769   34.1133   47.2270 O   0  0  0  0  0  0  0  0  0  0  0  0
   59.2278   34.1657   48.9120 N   0  0  0  0  0  0  0  0  0  0  0  0
   59.3564   33.1348   49.6927 C   0  0  0  0  0  0  0  0  0  0  0  0
   60.6258   32.5893   49.9125 C   0  0  0  0  0  0  0  0  0  0  0  0
   60.7683   31.4634   50.7390 C   0  0  0  0  0  0  0  0  0  0  0  0
   59.6291   30.9319   51.3615 C   0  0  0  0  0  0  0  0  0  0  0  0
   58.3802   31.5066   51.1237 C   0  0  0  0  0  0  0  0  0  0  0  0
   58.2697   32.5800   50.2998 N   0  0  0  0  0  0  0  0  0  0  0  0
   62.1305   30.8428   50.9848 C   0  0  0  0  0  0  0  0  0  0  0  0
   63.1302   31.1459   49.9347 N   0  0  0  0  0  0  0  0  0  0  0  0
   64.1905   32.0919   50.3455 C   0  0  0  0  0  0  0  0  0  0  0  0
   64.0723   33.4335   49.6006 C   0  0  0  0  0  0  0  0  0  0  0  0
   64.1405   33.2990   48.1857 O   0  0  0  0  0  0  0  0  0  0  0  0
   63.5955   32.0821   47.6906 C   0  0  0  0  0  0  0  0  0  0  0  0
   62.5407   31.4503   48.6134 C   0  0  0  0  0  0  0  0  0  0  0  0
   57.8274   30.7740   44.9516 C   0  0  0  0  0  0  0  0  0  0  0  0
   57.7543   32.0942   44.4730 C   0  0  0  0  0  0  0  0  0  0  0  0
   58.3627   33.1382   45.1760 C   0  0  0  0  0  0  0  0  0  0  0  0
   59.0471   32.8800   46.3689 C   0  0  0  0  0  0  0  0  0  0  0  0
   59.1079   31.5705   46.8622 C   0  0  0  0  0  0  0  0  0  0  0  0
   58.4988   30.5254   46.1611 C   0  0  0  0  0  0  0  0  0  0  0  0
   56.0961   29.8638   43.6125 O   0  0  0  0  0  0  0  0  0  0  0  0
   57.1795   29.6578   44.2196 C   0  0  0  0  0  0  0  0  0  0  0  0
   57.7717   28.3551   44.1370 N   0  0  0  0  0  0  0  0  0  0  0  0
   58.3475   27.6127   45.2235 C   0  0  0  0  0  0  0  0  0  0  0  0
   59.7366   27.6659   45.4088 C   0  0  0  0  0  0  0  0  0  0  0  0
   60.3380   26.9609   46.4561 C   0  0  0  0  0  0  0  0  0  0  0  0
   59.5582   26.1851   47.3158 C   0  0  0  0  0  0  0  0  0  0  0  0
   58.1766   26.0998   47.1213 C   0  0  0  0  0  0  0  0  0  0  0  0
   57.5679   26.7973   46.0711 C   0  0  0  0  0  0  0  0  0  0  0  0
   56.2010   26.6499   45.8662 O   0  0  0  0  0  0  0  0  0  0  0  0
 24 25  2  0
 25 26  1  0
 26 27  1  0
 27 28  2  0
 28 29  1  0
 29 30  2  0
 30 31  1  0
 31 32  2  0
 32 33  1  0
 25 18  1  0
 18 19  2  0
 19 20  1  0
 20 21  2  0
 21  1  1  0
  1  2  2  0
  1  3  2  0
  1  4  1  0
  4  5  2  0
  5  6  1  0
  6  7  2  0
  7 11  1  0
 11 12  1  0
 12 13  1  0
 13 14  1  0
 14 15  1  0
 15 16  1  0
 16 17  1  0
  7  8  1  0
  8  9  2  0
  9 10  1  0
 21 22  1  0
 22 23  2  0
 32 27  1  0
 23 18  1  0
 10  5  1  0
 17 12  1  0
M  CHG 1  10  -1
M  CHG 1  26  -1
M  CHG 1  33  -1
M  END
> <UniqueID>
43

> <SMILES>
O=C([N-]c1ccccc1[O-])c1ccc(S(=O)(=O)N=c2cc(CN3CCOCC3)cc[n-]2)cc1

> <Energy>
87.0420671104345

> <Genealogy>
O=C([N-]c1ccccc1[O-])c1ccc(S(=O)(=O)N=c2cc(CN3CCOCC3)cc[n-]2)cc1 (protonated)
O=C([N-]c1ccccc1[O-])c1ccc(S(=O)(=O)N=c2cc(CN3CCOCC3)cc[n-]2)cc1 (3D coordinates assigned)
O=C([N-]c1ccccc1[O-])c1ccc(S(=O)(=O)N=c2cc(CN3CCOCC3)cc[n-]2)cc1 (nonaromatic ring conformer: 87.0420671104345 kcal/mol)

> <smiles>
O=C(Nc1ccccc1O)c1ccc(S(=O)(=O)N=c2cc(CN3CCOCC3)cc[nH]2)cc1

> <score_type>
oracle

> <origin>
adg

> <m_score__min__energy>
-16.75

> <m_primary>
energy

> <minimizedAffinity>
-7.09845

> <minimizedRMSD>
1.08897

> <CNNscore>
0.4853236675

> <CNNaffinity>
6.4618134499

> <CNN_VS>
3.1360709667

> <CNNaffinity_variance>
0.1220057085

$$$$
57:0


 22 24  0  0  0  0  0  0  0  0999 V2000
   58.0297   30.0942   44.3613 C   0  0  0  0  0  0  0  0  0  0  0  0
   55.6610   29.8843   44.5500 O   0  0  0  0  0  0  0  0  0  0  0  0
   56.7897   29.3806   44.7940 C   0  0  0  0  0  0  0  0  0  0  0  0
   56.9005   28.1723   45.5560 N   0  0  0  0  0  0  0  0  0  0  0  0
   58.0888   27.7106   46.2107 C   0  0  0  0  0  0  0  0  0  0  0  0
   58.6687   28.5203   47.1960 C   0  0  0  0  0  0  0  0  0  0  0  0
   59.8309   28.1115   47.8566 C   0  0  0  0  0  0  0  0  0  0  0  0
   60.4332   26.8955   47.5239 C   0  0  0  0  0  0  0  0  0  0  0  0
   59.8827   26.0947   46.5201 C   0  0  0  0  0  0  0  0  0  0  0  0
   58.7221   26.5013   45.8506 C   0  0  0  0  0  0  0  0  0  0  0  0
   58.2321   25.7173   44.8121 O   0  0  0  0  0  0  0  0  0  0  0  0
   57.6359   31.7876   43.8025 S   0  0  0  0  0  0  0  0  0  0  0  0
   58.3495   32.5859   45.2391 C   0  0  0  0  0  0  0  0  0  0  0  0
   58.8282   33.8691   45.1374 N   0  0  0  0  0  0  0  0  0  0  0  0
   59.3732   34.5064   46.2140 C   0  0  0  0  0  0  0  0  0  0  0  0
   59.8066   35.6847   46.1129 O   0  0  0  0  0  0  0  0  0  0  0  0
   59.4314   33.8140   47.4137 C   0  0  0  0  0  0  0  0  0  0  0  0
   59.8912   34.1071   48.6749 C   0  0  0  0  0  0  0  0  0  0  0  0
   59.6803   33.0181   49.4556 N   0  0  0  0  0  0  0  0  0  0  0  0
   59.1073   32.0569   48.7329 N   0  0  0  0  0  0  0  0  0  0  0  0
   58.9583   32.5474   47.4924 C   0  0  0  0  0  0  0  0  0  0  0  0
   58.4180   31.9113   46.4263 N   0  0  0  0  0  0  0  0  0  0  0  0
  2  3  2  0
  3  1  1  0
  1 12  1  0
 12 13  1  0
 13 14  2  0
 14 15  1  0
 15 16  2  0
 15 17  1  0
 17 18  2  0
 18 19  1  0
 19 20  1  0
 20 21  2  0
 21 22  1  0
  3  4  1  0
  4  5  1  0
  5  6  2  0
  6  7  1  0
  7  8  2  0
  8  9  1  0
  9 10  2  0
 10 11  1  0
 22 13  1  0
 10  5  1  0
 21 17  1  0
M  CHG 1   4  -1
M  CHG 1  11  -1
M  CHG 1  19  -1
M  CHG 1  22  -1
M  END
> <UniqueID>
55

> <SMILES>
O=C(CSc1nc(=O)c2c[n-]nc2[n-]1)[N-]c1ccccc1[O-]

> <Energy>
74.16528079142402

> <Genealogy>
O=C(CSc1nc(=O)c2c[n-]nc2[n-]1)[N-]c1ccccc1[O-] (protonated)
O=C(CSc1nc(=O)c2c[n-]nc2[n-]1)[N-]c1ccccc1[O-] (3D coordinates assigned)
O=C(CSc1nc(=O)c2c[n-]nc2[n-]1)[N-]c1ccccc1[O-] (optimized conformer: 74.16528079142402 kcal/mol)

> <smiles>
O=C(CSc1nc(=O)c2c[nH]nc2[nH]1)Nc1ccccc1O

> <score_type>
oracle

> <origin>
adg

> <m_score__min__energy>
-16.09

> <m_primary>
energy

> <minimizedAffinity>
-6.83927

> <minimizedRMSD>
1.76130

> <CNNscore>
0.8134055734

> <CNNaffinity>
6.1467900276

> <CNN_VS>
4.9998331070

> <CNNaffinity_variance>
0.1016649082

$$$$
56:0


 29 31  0  0  0  0  0  0  0  0999 V2000
   60.1576   29.2673   47.1112 C   0  0  0  0  0  0  0  0  0  0  0  0
   59.4775   28.7739   48.2368 C   0  0  0  0  0  0  0  0  0  0  0  0
   59.7249   29.3112   49.5014 C   0  0  0  0  0  0  0  0  0  0  0  0
   60.6608   30.3353   49.6598 C   0  0  0  0  0  0  0  0  0  0  0  0
   61.3738   30.8247   48.5487 C   0  0  0  0  0  0  0  0  0  0  0  0
   61.1158   30.2817   47.2797 C   0  0  0  0  0  0  0  0  0  0  0  0
   62.3594   31.8667   48.6764 N   0  0  0  0  0  0  0  0  0  0  0  0
   63.2314   31.6326   49.0690 H   0  0  0  0  0  0  0  0  0  0  0  0
   62.1040   33.5088   48.1806 S   0  0  0  0  0  0  0  0  0  0  0  0
   63.2336   33.9318   47.2835 O   0  0  0  0  0  0  0  0  0  0  0  0
   62.0848   34.3965   49.3928 O   0  0  0  0  0  0  0  0  0  0  0  0
   60.5592   33.6537   47.3485 C   0  0  0  0  0  0  0  0  0  0  0  0
   59.3699   33.3280   48.0165 C   0  0  0  0  0  0  0  0  0  0  0  0
   58.1422   33.4259   47.3566 C   0  0  0  0  0  0  0  0  0  0  0  0
   58.0961   33.8536   46.0267 C   0  0  0  0  0  0  0  0  0  0  0  0
   59.2777   34.1865   45.3575 C   0  0  0  0  0  0  0  0  0  0  0  0
   60.5066   34.0875   46.0155 C   0  0  0  0  0  0  0  0  0  0  0  0
   59.9033   28.6729   45.7477 C   0  0  0  0  0  0  0  0  0  0  0  0
   57.4078   28.0346   45.5521 C   0  0  0  0  0  0  0  0  0  0  0  0
   56.4333   27.0973   45.7040 N   0  0  0  0  0  0  0  0  0  0  0  0
   56.7158   25.8158   46.0426 C   0  0  0  0  0  0  0  0  0  0  0  0
   55.7860   24.9790   46.1651 O   0  0  0  0  0  0  0  0  0  0  0  0
   57.9996   25.4379   46.2489 N   0  0  0  0  0  0  0  0  0  0  0  0
   59.0208   26.3235   46.1310 C   0  0  0  0  0  0  0  0  0  0  0  0
   60.1960   25.9254   46.3510 O   0  0  0  0  0  0  0  0  0  0  0  0
   58.7624   27.6669   45.7763 C   0  0  0  0  0  0  0  0  0  0  0  0
   55.8929   29.5487   44.5449 O   0  0  0  0  0  0  0  0  0  0  0  0
   56.9734   29.3964   45.1710 C   0  0  0  0  0  0  0  0  0  0  0  0
   57.7628   30.5103   45.4215 O   0  0  0  0  0  0  0  0  0  0  0  0
 27 28  2  0
 28 29  1  0
 28 19  1  0
 19 20  1  0
 20 21  1  0
 21 22  2  0
 21 23  1  0
 23 24  1  0
 24 25  2  0
 24 26  1  0
 26 18  1  0
 18  1  1  0
  1  2  2  0
  2  3  1  0
  3  4  2  0
  4  5  1  0
  5  7  1  0
  7  9  1  0
  9 10  2  0
  9 11  2  0
  9 12  1  0
 12 13  2  0
 13 14  1  0
 14 15  2  0
 15 16  1  0
 16 17  2  0
  5  6  2  0
 26 19  2  0
  6  1  1  0
 17 12  1  0
  7  8  1  0
M  CHG 1  20  -1
M  CHG 1  23  -1
M  CHG 1  29  -1
M  END
> <UniqueID>
54

> <SMILES>
O=C([O-])c1[n-]c(=O)[n-]c(=O)c1Cc1cccc(NS(=O)(=O)c2ccccc2)c1

> <Energy>
52.87447669773741

> <Genealogy>
O=C([O-])c1[n-]c(=O)[n-]c(=O)c1Cc1cccc(NS(=O)(=O)c2ccccc2)c1 (protonated)
O=C([O-])c1[n-]c(=O)[n-]c(=O)c1Cc1cccc(NS(=O)(=O)c2ccccc2)c1 (3D coordinates assigned)
O=C([O-])c1[n-]c(=O)[n-]c(=O)c1Cc1cccc(NS(=O)(=O)c2ccccc2)c1 (optimized conformer: 52.87447669773741 kcal/mol)

> <smiles>
O=C(O)c1[nH]c(=O)[nH]c(=O)c1Cc1cccc(NS(=O)(=O)c2ccccc2)c1

> <score_type>
oracle

> <origin>
adg

> <m_score__min__energy>
-15.800000000000001

> <m_primary>
energy

> <minimizedAffinity>
-8.15640

> <minimizedRMSD>
0.77591

> <CNNscore>
0.7854193449

> <CNNaffinity>
6.8605957031

> <CNN_VS>
5.3884444237

> <CNNaffinity_variance>
0.0690926388

$$$$
45:0


 37 40  0  0  0  0  0  0  0  0999 V2000
   61.1653   30.0921   51.3497 N   0  0  0  0  0  0  0  0  0  0  0  0
   60.9718   29.6857   50.1263 C   0  0  0  0  0  0  0  0  0  0  0  0
   60.5506   28.4243   49.8596 N   0  0  0  0  0  0  0  0  0  0  0  0
   60.3724   28.0058   48.5848 C   0  0  0  0  0  0  0  0  0  0  0  0
   60.0119   26.8165   48.3824 O   0  0  0  0  0  0  0  0  0  0  0  0
   60.5971   28.8635   47.5405 N   0  0  0  0  0  0  0  0  0  0  0  0
   60.9732   30.1524   47.8171 C   0  0  0  0  0  0  0  0  0  0  0  0
   61.1533   30.9847   46.8875 O   0  0  0  0  0  0  0  0  0  0  0  0
   61.1632   30.5489   49.1018 N   0  0  0  0  0  0  0  0  0  0  0  0
   64.5383   32.2333   52.7964 C   0  0  0  0  0  0  0  0  0  0  0  0
   63.2558   32.7407   53.0110 C   0  0  0  0  0  0  0  0  0  0  0  0
   62.1367   32.0401   52.5631 C   0  0  0  0  0  0  0  0  0  0  0  0
   62.2908   30.8400   51.8471 C   0  0  0  0  0  0  0  0  0  0  0  0
   63.5794   30.3116   51.6705 C   0  0  0  0  0  0  0  0  0  0  0  0
   64.7129   31.0091   52.1375 C   0  0  0  0  0  0  0  0  0  0  0  0
   66.7680   33.6958   53.6733 C   0  0  0  0  0  0  0  0  0  0  0  0
   65.6412   32.9580   53.2281 O   0  0  0  0  0  0  0  0  0  0  0  0
   66.0177   30.5222   51.9686 O   0  0  0  0  0  0  0  0  0  0  0  0
   66.3782   29.1464   52.0305 C   0  0  0  0  0  0  0  0  0  0  0  0
   60.4344   28.4132   46.1436 C   0  0  0  0  0  0  0  0  0  0  0  0
   59.1238   28.8923   45.5714 C   0  0  0  0  0  0  0  0  0  0  0  0
   57.9655   28.1099   45.7023 C   0  0  0  0  0  0  0  0  0  0  0  0
   56.7599   28.5289   45.1339 C   0  0  0  0  0  0  0  0  0  0  0  0
   56.6948   29.7347   44.4286 C   0  0  0  0  0  0  0  0  0  0  0  0
   55.5046   30.1042   43.8100 O   0  0  0  0  0  0  0  0  0  0  0  0
   57.8373   30.5495   44.3290 C   0  0  0  0  0  0  0  0  0  0  0  0
   59.0497   30.1127   44.8845 C   0  0  0  0  0  0  0  0  0  0  0  0
   57.8009   31.8223   43.5884 C   0  0  0  0  0  0  0  0  0  0  0  0
   57.6984   31.7952   42.3341 O   0  0  0  0  0  0  0  0  0  0  0  0
   57.9171   33.0900   44.2422 N   0  0  0  0  0  0  0  0  0  0  0  0
   57.3973   33.4131   45.5681 C   0  0  0  0  0  0  0  0  0  0  0  0
   58.5276   33.6238   46.5396 C   0  0  0  0  0  0  0  0  0  0  0  0
   58.3948   33.1923   47.8697 C   0  0  0  0  0  0  0  0  0  0  0  0
   59.4377   33.3805   48.7806 C   0  0  0  0  0  0  0  0  0  0  0  0
   60.6158   34.0135   48.3722 C   0  0  0  0  0  0  0  0  0  0  0  0
   60.7513   34.4585   47.0499 C   0  0  0  0  0  0  0  0  0  0  0  0
   59.7113   34.2670   46.1372 C   0  0  0  0  0  0  0  0  0  0  0  0
 16 17  1  0
 17 10  1  0
 10 11  2  0
 11 12  1  0
 12 13  2  0
 13  1  1  0
  1  2  2  0
  2  3  1  0
  3  4  1  0
  4  5  2  0
  4  6  1  0
  6 20  1  0
 20 21  1  0
 21 22  2  0
 22 23  1  0
 23 24  2  0
 24 25  1  0
 24 26  1  0
 26 28  1  0
 28 29  2  0
 28 30  1  0
 30 31  1  0
 31 32  1  0
 32 33  2  0
 33 34  1  0
 34 35  2  0
 35 36  1  0
 36 37  2  0
 26 27  2  0
  6  7  1  0
  7  8  2  0
  7  9  1  0
 13 14  1  0
 14 15  2  0
 15 18  1  0
 18 19  1  0
 15 10  1  0
  9  2  1  0
 27 21  1  0
 37 32  1  0
M  CHG 1   3  -1
M  CHG 1   9  -1
M  CHG 1  25  -1
M  CHG 1  30  -1
M  END
> <UniqueID>
43

> <SMILES>
COc1ccc(N=c2[n-]c(=O)n(Cc3ccc([O-])c(C(=O)[N-]Cc4ccccc4)c3)c(=O)[n-]2)cc1OC

> <Energy>
128.71224409464023

> <Genealogy>
COc1ccc(N=c2[n-]c(=O)n(Cc3ccc([O-])c(C(=O)[N-]Cc4ccccc4)c3)c(=O)[n-]2)cc1OC (protonated)
COc1ccc(N=c2[n-]c(=O)n(Cc3ccc([O-])c(C(=O)[N-]Cc4ccccc4)c3)c(=O)[n-]2)cc1OC (3D coordinates assigned)
COc1ccc(N=c2[n-]c(=O)n(Cc3ccc([O-])c(C(=O)[N-]Cc4ccccc4)c3)c(=O)[n-]2)cc1OC (optimized conformer: 128.71224409464023 kcal/mol)

> <smiles>
COc1ccc(N=c2[nH]c(=O)n(Cc3ccc(O)c(C(=O)NCc4ccccc4)c3)c(=O)[nH]2)cc1OC

> <score_type>
oracle

> <origin>
adg

> <m_score__min__energy>
-15.06

> <m_primary>
energy

> <minimizedAffinity>
-6.67914

> <minimizedRMSD>
1.26874

> <CNNscore>
0.5027495027

> <CNNaffinity>
6.9545683861

> <CNN_VS>
3.4964058399

> <CNNaffinity_variance>
0.1054721177

$$$$
85:0


 29 33  0  0  0  0  0  0  0  0999 V2000
   57.9698   28.1756   44.6392 C   0  0  0  0  0  0  0  0  0  0  0  0
   57.7696   29.4533   44.7690 N   0  0  0  0  0  0  0  0  0  0  0  0
   58.1291   29.8124   46.0773 N   0  0  0  0  0  0  0  0  0  0  0  0
   58.7966   30.9151   46.5036 C   0  0  0  0  0  0  0  0  0  0  0  0
   58.5879   32.1588   46.1550 N   0  0  0  0  0  0  0  0  0  0  0  0
   59.7262   30.5948   47.4377 N   0  0  0  0  0  0  0  0  0  0  0  0
   59.5971   29.2498   47.5276 C   0  0  0  0  0  0  0  0  0  0  0  0
   60.3867   28.4834   48.2194 N   0  0  0  0  0  0  0  0  0  0  0  0
   58.6133   28.7905   46.7351 N   0  0  0  0  0  0  0  0  0  0  0  0
   58.5417   27.6542   45.8885 C   0  0  0  0  0  0  0  0  0  0  0  0
   59.0174   26.4336   46.1665 C   0  0  0  0  0  0  0  0  0  0  0  0
   58.2847   25.1894   45.8849 C   0  0  0  0  0  0  0  0  0  0  0  0
   58.8930   24.0286   45.5835 N   0  0  0  0  0  0  0  0  0  0  0  0
   57.8697   23.1543   45.4791 C   0  0  0  0  0  0  0  0  0  0  0  0
   58.0409   21.9415   45.1906 O   0  0  0  0  0  0  0  0  0  0  0  0
   56.6495   23.6784   45.7211 N   0  0  0  0  0  0  0  0  0  0  0  0
   56.9286   24.9641   45.9869 C   0  0  0  0  0  0  0  0  0  0  0  0
   55.9691   25.8947   46.3673 O   0  0  0  0  0  0  0  0  0  0  0  0
   58.4592   33.4589   46.8375 C   0  0  0  0  0  0  0  0  0  0  0  0
   59.5844   33.8184   47.7851 C   0  0  0  0  0  0  0  0  0  0  0  0
   59.4126   34.5787   46.4658 C   0  0  0  0  0  0  0  0  0  0  0  0
   60.3836   28.4053   49.6781 C   0  0  0  0  0  0  0  0  0  0  0  0
   60.0838   29.7529   50.2773 C   0  0  0  0  0  0  0  0  0  0  0  0
   61.0998   30.7126   50.4246 C   0  0  0  0  0  0  0  0  0  0  0  0
   60.8086   31.9713   50.9583 C   0  0  0  0  0  0  0  0  0  0  0  0
   59.5007   32.2822   51.3493 C   0  0  0  0  0  0  0  0  0  0  0  0
   59.1376   33.8623   52.0196 Cl  0  0  0  0  0  0  0  0  0  0  0  0
   58.4842   31.3325   51.2029 C   0  0  0  0  0  0  0  0  0  0  0  0
   58.7731   30.0750   50.6672 C   0  0  0  0  0  0  0  0  0  0  0  0
  1  2  2  0
  2  3  1  0
  3  4  1  0
  4  5  2  0
  5 19  1  0
 19 20  1  0
 20 21  1  0
  4  6  1  0
  6  7  1  0
  7  8  2  0
  8 22  1  0
 22 23  1  0
 23 24  2  0
 24 25  1  0
 25 26  2  0
 26 27  1  0
 26 28  1  0
 28 29  2  0
  7  9  1  0
  9 10  1  0
 10 11  2  0
 11 12  1  0
 12 13  1  0
 13 14  1  0
 14 15  2  0
 14 16  1  0
 16 17  1  0
 17 18  1  0
 10  1  1  0
 17 12  2  0
  9  3  1  0
 21 19  1  0
 29 23  1  0
M  CHG 1   6  -1
M  CHG 1  13  -1
M  CHG 1  16  -1
M  CHG 1  18  -1
M  END
> <UniqueID>
81

> <SMILES>
O=c1[n-]c([O-])c(/C=C2\C=Nn3/c(=N\C4CC4)[n-]c(=NCc4ccc(Cl)cc4)n32)[n-]1

> <Energy>
456.83464151699707

> <Genealogy>
O=c1[n-]c([O-])c(C=C2C=Nn3c(=NC4CC4)[n-]c(=NCc4ccc(Cl)cc4)n32)[n-]1 (protonated)
O=c1[n-]c([O-])c(/C=C2\C=Nn3/c(=N\C4CC4)[n-]c(=NCc4ccc(Cl)cc4)n32)[n-]1 (cis-trans isomerization)
O=c1[n-]c([O-])c(/C=C2\C=Nn3/c(=N\C4CC4)[n-]c(=NCc4ccc(Cl)cc4)n32)[n-]1 (3D coordinates assigned)
O=c1[n-]c([O-])c(/C=C2\C=Nn3/c(=N\C4CC4)[n-]c(=NCc4ccc(Cl)cc4)n32)[n-]1 (nonaromatic ring conformer: 456.83464151699707 kcal/mol)

> <smiles>
O=c1[nH]c(O)c(C=C2C=Nn3c(=NC4CC4)[nH]c(=NCc4ccc(Cl)cc4)n32)[nH]1

> <score_type>
oracle

> <origin>
adg

> <m_score__min__energy>
-17.140000000000001

> <m_primary>
energy

> <minimizedAffinity>
-8.54068

> <minimizedRMSD>
1.73120

> <CNNscore>
0.5251321793

> <CNNaffinity>
7.1087036133

> <CNN_VS>
3.7330091000

> <CNNaffinity_variance>
0.2585265338

$$$$
14:0


 25 27  0  0  0  0  0  0  0  0999 V2000
   59.1410   28.5029   49.0006 C   0  0  0  0  0  0  0  0  0  0  0  0
   59.3003   28.4040   47.5091 C   0  0  0  0  0  0  0  0  0  0  0  0
   58.5130   27.4987   46.7772 C   0  0  0  0  0  0  0  0  0  0  0  0
   58.6522   27.3938   45.3868 C   0  0  0  0  0  0  0  0  0  0  0  0
   59.5703   28.2189   44.7232 C   0  0  0  0  0  0  0  0  0  0  0  0
   60.3557   29.1227   45.4420 C   0  0  0  0  0  0  0  0  0  0  0  0
   60.2314   29.2227   46.8410 C   0  0  0  0  0  0  0  0  0  0  0  0
   57.7797   26.4504   44.6042 C   0  0  0  0  0  0  0  0  0  0  0  0
   57.3590   25.3015   45.4662 C   0  0  0  0  0  0  0  0  0  0  0  0
   58.2388   23.8817   45.6868 S   0  0  0  0  0  0  0  0  0  0  0  0
   57.0413   23.1916   46.6434 C   0  0  0  0  0  0  0  0  0  0  0  0
   57.1182   22.0467   47.1603 O   0  0  0  0  0  0  0  0  0  0  0  0
   55.9706   23.9977   46.8001 N   0  0  0  0  0  0  0  0  0  0  0  0
   56.1453   25.1716   46.1374 C   0  0  0  0  0  0  0  0  0  0  0  0
   55.1692   26.1595   46.1369 O   0  0  0  0  0  0  0  0  0  0  0  0
   61.0014   30.1220   47.6010 O   0  0  0  0  0  0  0  0  0  0  0  0
   60.8841   31.5458   47.5769 C   0  0  0  0  0  0  0  0  0  0  0  0
   59.4233   31.9704   47.7309 C   0  0  0  0  0  0  0  0  0  0  0  0
   58.9760   32.6802   46.5334 N   0  0  0  0  0  0  0  0  0  0  0  0
   58.1139   32.2308   45.6007 C   0  0  0  0  0  0  0  0  0  0  0  0
   57.5487   30.9613   45.6107 O   0  0  0  0  0  0  0  0  0  0  0  0
   57.8672   33.2004   44.6491 C   0  0  0  0  0  0  0  0  0  0  0  0
   58.6068   34.3079   45.0277 C   0  0  0  0  0  0  0  0  0  0  0  0
   59.2628   33.9505   46.1893 C   0  0  0  0  0  0  0  0  0  0  0  0
   60.1023   34.7847   46.9162 O   0  0  0  0  0  0  0  0  0  0  0  0
  1  2  1  0
  2  3  2  0
  3  4  1  0
  4  8  1  0
  8  9  1  0
  9 10  1  0
 10 11  1  0
 11 12  2  0
 11 13  1  0
 13 14  1  0
 14 15  1  0
  4  5  2  0
  5  6  1  0
  6  7  2  0
  7 16  1  0
 16 17  1  0
 17 18  1  0
 18 19  1  0
 19 20  1  0
 20 21  1  0
 20 22  2  0
 22 23  1  0
 23 24  2  0
 24 25  1  0
  7  2  1  0
 24 19  1  0
 14  9  2  0
M  CHG 1  13  -1
M  CHG 1  15  -1
M  CHG 1  21  -1
M  CHG 1  25  -1
M  END
> <UniqueID>
12

> <SMILES>
Cc1cc(Cc2sc(=O)[n-]c2[O-])ccc1OCCn1c([O-])ccc1[O-]

> <Energy>
95.68188698615556

> <Genealogy>
Cc1cc(Cc2sc(=O)[n-]c2[O-])ccc1OCCn1c([O-])ccc1[O-] (protonated)
Cc1cc(Cc2sc(=O)[n-]c2[O-])ccc1OCCn1c([O-])ccc1[O-] (3D coordinates assigned)
Cc1cc(Cc2sc(=O)[n-]c2[O-])ccc1OCCn1c([O-])ccc1[O-] (optimized conformer: 95.68188698615556 kcal/mol)

> <smiles>
Cc1cc(Cc2sc(=O)[nH]c2O)ccc1OCCn1c(O)ccc1O

> <score_type>
oracle

> <origin>
adg

> <m_score__min__energy>
-15.43

> <m_primary>
energy

> <minimizedAffinity>
-7.32606

> <minimizedRMSD>
0.72264

> <CNNscore>
0.6084923744

> <CNNaffinity>
7.1026630402

> <CNN_VS>
4.3219161034

> <CNNaffinity_variance>
0.4857006073

$$$$
41:0


 32 35  0  0  0  0  0  0  0  0999 V2000
   57.2453   28.4579   45.4949 N   0  0  0  0  0  0  0  0  0  0  0  0
   57.9391   29.5202   45.7869 C   0  0  0  0  0  0  0  0  0  0  0  0
   57.7370   30.7356   45.2436 N   0  0  0  0  0  0  0  0  0  0  0  0
   58.6217   31.4860   45.9356 C   0  0  0  0  0  0  0  0  0  0  0  0
   58.7762   32.7649   45.7642 N   0  0  0  0  0  0  0  0  0  0  0  0
   59.3176   30.7819   46.8497 N   0  0  0  0  0  0  0  0  0  0  0  0
   58.8808   29.5398   46.7444 N   0  0  0  0  0  0  0  0  0  0  0  0
   59.1895   28.7682   47.2721 H   0  0  0  0  0  0  0  0  0  0  0  0
   57.1555   24.7214   46.0017 C   0  0  0  0  0  0  0  0  0  0  0  0
   58.5240   24.4591   46.1273 C   0  0  0  0  0  0  0  0  0  0  0  0
   59.4516   25.4970   46.0150 C   0  0  0  0  0  0  0  0  0  0  0  0
   59.0150   26.8061   45.7954 C   0  0  0  0  0  0  0  0  0  0  0  0
   57.6459   27.0915   45.7010 C   0  0  0  0  0  0  0  0  0  0  0  0
   56.7174   26.0341   45.7729 C   0  0  0  0  0  0  0  0  0  0  0  0
   56.7805   22.0212   46.8314 N   0  0  0  0  0  0  0  0  0  0  0  0
   56.0046   23.3924   46.1168 S   0  0  0  0  0  0  0  0  0  0  0  0
   54.8405   23.8126   46.9686 O   0  0  0  0  0  0  0  0  0  0  0  0
   55.5011   23.0122   44.7510 O   0  0  0  0  0  0  0  0  0  0  0  0
   56.1153   21.2509   46.8987 H   0  0  0  0  0  0  0  0  0  0  0  0
   58.7355   33.7550   46.8421 C   0  0  0  0  0  0  0  0  0  0  0  0
   59.9975   33.7256   47.6679 C   0  0  0  0  0  0  0  0  0  0  0  0
   61.2453   33.5826   47.0464 C   0  0  0  0  0  0  0  0  0  0  0  0
   62.4121   33.5081   47.8127 C   0  0  0  0  0  0  0  0  0  0  0  0
   62.3495   33.5730   49.2177 C   0  0  0  0  0  0  0  0  0  0  0  0
   61.0956   33.7204   49.8359 C   0  0  0  0  0  0  0  0  0  0  0  0
   59.9317   33.7992   49.0680 C   0  0  0  0  0  0  0  0  0  0  0  0
   63.5885   33.4827   50.0344 C   0  0  0  0  0  0  0  0  0  0  0  0
   64.6761   32.7004   49.6018 C   0  0  0  0  0  0  0  0  0  0  0  0
   65.8399   32.6175   50.3734 C   0  0  0  0  0  0  0  0  0  0  0  0
   65.9317   33.3122   51.5822 C   0  0  0  0  0  0  0  0  0  0  0  0
   64.8588   34.0902   52.0213 C   0  0  0  0  0  0  0  0  0  0  0  0
   63.6923   34.1770   51.2553 C   0  0  0  0  0  0  0  0  0  0  0  0
 15 16  1  0
 16 17  2  0
 16 18  2  0
 16  9  1  0
  9 10  2  0
 10 11  1  0
 11 12  2  0
 12 13  1  0
 13  1  1  0
  1  2  2  0
  2  3  1  0
  3  4  1  0
  4  5  2  0
  5 20  1  0
 20 21  1  0
 21 22  2  0
 22 23  1  0
 23 24  2  0
 24 27  1  0
 27 28  2  0
 28 29  1  0
 29 30  2  0
 30 31  1  0
 31 32  2  0
 24 25  1  0
 25 26  2  0
  4  6  1  0
  6  7  1  0
 13 14  2  0
 14  9  1  0
  7  2  1  0
 26 21  1  0
 32 27  1  0
 15 19  1  0
  7  8  1  0
M  CHG 1   3  -1
M  CHG 1   6  -1
M  CHG 1  15  -1
M  END
> <UniqueID>
38

> <SMILES>
[NH-]S(=O)(=O)c1cccc(/N=c2\[n-]c(=NCc3ccc(-c4ccccc4)cc3)[n-][nH]2)c1

> <Energy>
92.5740118419834

> <Genealogy>
[NH-]S(=O)(=O)c1cccc(N=c2[n-]c(=NCc3ccc(-c4ccccc4)cc3)[n-][nH]2)c1 (protonated)
[NH-]S(=O)(=O)c1cccc(/N=c2\[n-]c(=NCc3ccc(-c4ccccc4)cc3)[n-][nH]2)c1 (cis-trans isomerization)
[NH-]S(=O)(=O)c1cccc(/N=c2\[n-]c(=NCc3ccc(-c4ccccc4)cc3)[n-][nH]2)c1 (3D coordinates assigned)
[NH-]S(=O)(=O)c1cccc(/N=c2\[n-]c(=NCc3ccc(-c4ccccc4)cc3)[n-][nH]2)c1 (optimized conformer: 92.5740118419834 kcal/mol)

> <smiles>
NS(=O)(=O)c1cccc(N=c2[nH][nH]c(=NCc3ccc(-c4ccccc4)cc3)[nH]2)c1

> <score_type>
oracle

> <origin>
adg

> <m_score__min__energy>
-14.949999999999999

> <m_primary>
energy

> <minimizedAffinity>
-8.88221

> <minimizedRMSD>
1.73645

> <CNNscore>
0.5117366910

> <CNNaffinity>
6.9392108917

> <CNN_VS>
3.5510487556

> <CNNaffinity_variance>
0.7505969405

$$$$
47:0


 30 34  0  0  0  0  0  0  0  0999 V2000
   58.8183   26.9632   45.1784 C   0  0  0  0  0  0  0  0  0  0  0  0
   58.2562   28.1792   45.0997 C   0  0  0  0  0  0  0  0  0  0  0  0
   57.2885   28.6451   44.2130 C   0  0  0  0  0  0  0  0  0  0  0  0
   57.0461   29.9498   44.4697 N   0  0  0  0  0  0  0  0  0  0  0  0
   57.8201   30.3356   45.4776 N   0  0  0  0  0  0  0  0  0  0  0  0
   57.9511   31.5494   46.1059 C   0  0  0  0  0  0  0  0  0  0  0  0
   57.2694   32.6191   45.8013 N   0  0  0  0  0  0  0  0  0  0  0  0
   58.8490   31.6381   47.1255 N   0  0  0  0  0  0  0  0  0  0  0  0
   59.6061   30.5657   47.5072 C   0  0  0  0  0  0  0  0  0  0  0  0
   59.4558   29.3718   46.8766 N   0  0  0  0  0  0  0  0  0  0  0  0
   58.5600   29.2845   45.8644 C   0  0  0  0  0  0  0  0  0  0  0  0
   56.4027   30.5195   43.9893 H   0  0  0  0  0  0  0  0  0  0  0  0
   58.0862   25.7401   45.5508 C   0  0  0  0  0  0  0  0  0  0  0  0
   58.6578   24.5248   45.5938 N   0  0  0  0  0  0  0  0  0  0  0  0
   57.6684   23.7273   46.0506 C   0  0  0  0  0  0  0  0  0  0  0  0
   57.8172   22.4889   46.2161 O   0  0  0  0  0  0  0  0  0  0  0  0
   56.5098   24.3630   46.3255 N   0  0  0  0  0  0  0  0  0  0  0  0
   56.7935   25.6390   46.0165 C   0  0  0  0  0  0  0  0  0  0  0  0
   55.9030   26.6896   46.2062 O   0  0  0  0  0  0  0  0  0  0  0  0
   57.7444   33.9258   45.3690 C   0  0  0  0  0  0  0  0  0  0  0  0
   58.9753   34.4211   46.1084 C   0  0  0  0  0  0  0  0  0  0  0  0
   59.1114   33.8381   44.7119 C   0  0  0  0  0  0  0  0  0  0  0  0
   60.5132   30.6643   48.5704 O   0  0  0  0  0  0  0  0  0  0  0  0
   61.6597   31.4724   48.5832 C   0  0  0  0  0  0  0  0  0  0  0  0
   62.0349   32.2607   47.4786 C   0  0  0  0  0  0  0  0  0  0  0  0
   63.1932   33.0409   47.5331 C   0  0  0  0  0  0  0  0  0  0  0  0
   63.9913   33.0341   48.6799 C   0  0  0  0  0  0  0  0  0  0  0  0
   63.6361   32.2372   49.7737 C   0  0  0  0  0  0  0  0  0  0  0  0
   64.6447   32.2172   51.2097 Cl  0  0  0  0  0  0  0  0  0  0  0  0
   62.4777   31.4541   49.7206 C   0  0  0  0  0  0  0  0  0  0  0  0
  1 13  1  0
 13 14  1  0
 14 15  1  0
 15 16  2  0
 15 17  1  0
 17 18  1  0
 18 19  1  0
  1  2  2  0
  2  3  1  0
  3  4  2  0
  4  5  1  0
  5  6  1  0
  6  7  2  0
  7 20  1  0
 20 21  1  0
 21 22  1  0
  6  8  1  0
  8  9  2  0
  9 23  1  0
 23 24  1  0
 24 25  2  0
 25 26  1  0
 26 27  2  0
 27 28  1  0
 28 29  1  0
 28 30  2  0
  9 10  1  0
 10 11  2  0
 18 13  2  0
 11  2  1  0
 11  5  1  0
 22 20  1  0
 30 24  1  0
  4 12  1  0
M  CHG 1   4   1
M  CHG 1  14  -1
M  CHG 1  17  -1
M  CHG 1  19  -1
M  END
> <UniqueID>
44

> <SMILES>
O=c1[n-]c([O-])c(/C=c2\c[nH+]n3c(=NC4CC4)nc(Oc4cccc(Cl)c4)nc23)[n-]1

> <Energy>
397.6960785368666

> <Genealogy>
O=c1[n-]c([O-])c(C=c2c[nH+]n3c(=NC4CC4)nc(Oc4cccc(Cl)c4)nc23)[n-]1 (protonated)
O=c1[n-]c([O-])c(/C=c2\c[nH+]n3c(=NC4CC4)nc(Oc4cccc(Cl)c4)nc23)[n-]1 (cis-trans isomerization)
O=c1[n-]c([O-])c(/C=c2\c[nH+]n3c(=NC4CC4)nc(Oc4cccc(Cl)c4)nc23)[n-]1 (3D coordinates assigned)
O=c1[n-]c([O-])c(/C=c2\c[nH+]n3c(=NC4CC4)nc(Oc4cccc(Cl)c4)nc23)[n-]1 (nonaromatic ring conformer: 397.6960785368666 kcal/mol)

> <smiles>
O=c1[nH]c(O)c(C=c2cnn3c(=NC4CC4)nc(Oc4cccc(Cl)c4)nc23)[nH]1

> <score_type>
oracle

> <origin>
adg

> <m_score__min__energy>
-15.699999999999999

> <m_primary>
energy

> <minimizedAffinity>
-8.85660

> <minimizedRMSD>
0.81242

> <CNNscore>
0.4452556074

> <CNNaffinity>
6.8269467354

> <CNN_VS>
3.0397362709

> <CNNaffinity_variance>
0.0166054610

$$$$
84:0


 29 33  0  0  0  0  0  0  0  0999 V2000
   53.9196   30.9798   52.6635 C   0  0  0  0  0  0  0  0  0  0  0  0
   54.7505   30.0334   53.1303 C   0  0  0  0  0  0  0  0  0  0  0  0
   54.3742   28.9146   53.8601 C   0  0  0  0  0  0  0  0  0  0  0  0
   55.4651   28.1702   54.1504 N   0  0  0  0  0  0  0  0  0  0  0  0
   56.5205   28.7687   53.6266 N   0  0  0  0  0  0  0  0  0  0  0  0
   57.8376   28.3822   53.6058 C   0  0  0  0  0  0  0  0  0  0  0  0
   58.3441   27.3391   54.2213 N   0  0  0  0  0  0  0  0  0  0  0  0
   58.7005   29.1544   52.8890 N   0  0  0  0  0  0  0  0  0  0  0  0
   58.2831   30.2598   52.2084 C   0  0  0  0  0  0  0  0  0  0  0  0
   59.1503   30.9583   51.5364 N   0  0  0  0  0  0  0  0  0  0  0  0
   56.9748   30.6320   52.2666 N   0  0  0  0  0  0  0  0  0  0  0  0
   56.1190   29.8840   52.9970 C   0  0  0  0  0  0  0  0  0  0  0  0
   52.9071   30.7706   51.6119 C   0  0  0  0  0  0  0  0  0  0  0  0
   53.0081   29.8836   50.6057 N   0  0  0  0  0  0  0  0  0  0  0  0
   51.9250   30.1499   49.8434 C   0  0  0  0  0  0  0  0  0  0  0  0
   51.6628   29.5082   48.7928 O   0  0  0  0  0  0  0  0  0  0  0  0
   51.1523   31.1614   50.2896 N   0  0  0  0  0  0  0  0  0  0  0  0
   51.7949   31.5507   51.4020 C   0  0  0  0  0  0  0  0  0  0  0  0
   51.3772   32.6021   52.2077 O   0  0  0  0  0  0  0  0  0  0  0  0
   59.1762   31.1385   50.1108 C   0  0  0  0  0  0  0  0  0  0  0  0
   59.1977   30.0417   49.2272 C   0  0  0  0  0  0  0  0  0  0  0  0
   59.2657   30.2520   47.8463 C   0  0  0  0  0  0  0  0  0  0  0  0
   59.3250   31.5522   47.3375 C   0  0  0  0  0  0  0  0  0  0  0  0
   59.3331   32.6451   48.2098 C   0  0  0  0  0  0  0  0  0  0  0  0
   59.4257   34.2764   47.5724 Cl  0  0  0  0  0  0  0  0  0  0  0  0
   59.2706   32.4367   49.5927 C   0  0  0  0  0  0  0  0  0  0  0  0
   57.9617   26.1406   54.9934 C   0  0  0  0  0  0  0  0  0  0  0  0
   57.2876   25.0097   54.2513 C   0  0  0  0  0  0  0  0  0  0  0  0
   58.7406   24.8692   54.7412 C   0  0  0  0  0  0  0  0  0  0  0  0
  1 13  1  0
 13 14  1  0
 14 15  1  0
 15 16  2  0
 15 17  1  0
 17 18  1  0
 18 19  1  0
  1  2  2  0
  2  3  1  0
  3  4  2  0
  4  5  1  0
  5  6  1  0
  6  7  2  0
  7 27  1  0
 27 28  1  0
 28 29  1  0
  6  8  1  0
  8  9  1  0
  9 10  2  0
 10 20  1  0
 20 21  2  0
 21 22  1  0
 22 23  2  0
 23 24  1  0
 24 25  1  0
 24 26  2  0
  9 11  1  0
 11 12  2  0
 18 13  2  0
 12  2  1  0
 12  5  1  0
 29 27  1  0
 26 20  1  0
M  CHG 1   8  -1
M  CHG 1  14  -1
M  CHG 1  17  -1
M  CHG 1  19  -1
M  END
> <UniqueID>
77

> <SMILES>
O=c1[n-]c([O-])c(C=c2cnn3c(=NC4CC4)[n-]/c(=N/c4cccc(Cl)c4)nc23)[n-]1

> <Energy>
413.3415548881533

> <Genealogy>
O=c1[n-]c([O-])c(C=c2cnn3c(=NC4CC4)[n-]c(=Nc4cccc(Cl)c4)nc23)[n-]1 (protonated)
O=c1[n-]c([O-])c(C=c2cnn3c(=NC4CC4)[n-]/c(=N/c4cccc(Cl)c4)nc23)[n-]1 (cis-trans isomerization)
O=c1[n-]c([O-])c(C=c2cnn3c(=NC4CC4)[n-]/c(=N/c4cccc(Cl)c4)nc23)[n-]1 (3D coordinates assigned)
O=c1[n-]c([O-])c(C=c2cnn3c(=NC4CC4)[n-]/c(=N/c4cccc(Cl)c4)nc23)[n-]1 (nonaromatic ring conformer: 413.3415548881533 kcal/mol)

> <smiles>
O=c1[nH]c(O)c(C=c2cnn3c(=NC4CC4)[nH]c(=Nc4cccc(Cl)c4)nc23)[nH]1

> <score_type>
oracle

> <origin>
adg

> <m_score__min__energy>
-17.93

> <m_primary>
energy

> <minimizedAffinity>
-5.63821

> <minimizedRMSD>
1.07721

> <CNNscore>
0.2943671346

> <CNNaffinity>
6.0654969215

> <CNN_VS>
1.7854830027

> <CNNaffinity_variance>
0.3179820478

$$$$
93:0


 31 33  0  0  0  0  0  0  0  0999 V2000
   60.4628   32.6010   47.1607 C   0  0  0  0  0  0  0  0  0  0  0  0
   60.4908   33.9994   47.2949 C   0  0  0  0  0  0  0  0  0  0  0  0
   59.5941   34.7939   46.5819 C   0  0  0  0  0  0  0  0  0  0  0  0
   58.6785   34.1889   45.7240 C   0  0  0  0  0  0  0  0  0  0  0  0
   58.6682   32.8380   45.5836 N   0  0  0  0  0  0  0  0  0  0  0  0
   59.5279   32.0331   46.2689 C   0  0  0  0  0  0  0  0  0  0  0  0
   61.4057   31.7482   47.9297 C   0  0  0  0  0  0  0  0  0  0  0  0
   62.5994   31.6441   47.5421 O   0  0  0  0  0  0  0  0  0  0  0  0
   61.0249   31.0813   49.1422 N   0  0  0  0  0  0  0  0  0  0  0  0
   58.0320   31.1787   51.3614 C   0  0  0  0  0  0  0  0  0  0  0  0
   58.2501   32.3655   52.0793 C   0  0  0  0  0  0  0  0  0  0  0  0
   59.3726   33.1522   51.8159 C   0  0  0  0  0  0  0  0  0  0  0  0
   60.3069   32.7654   50.8352 C   0  0  0  0  0  0  0  0  0  0  0  0
   60.1077   31.5508   50.1430 C   0  0  0  0  0  0  0  0  0  0  0  0
   58.9609   30.7871   50.3929 C   0  0  0  0  0  0  0  0  0  0  0  0
   55.7972   30.7247   52.3869 C   0  0  0  0  0  0  0  0  0  0  0  0
   56.9123   30.3626   51.5785 O   0  0  0  0  0  0  0  0  0  0  0  0
   61.4136   33.5685   50.5180 O   0  0  0  0  0  0  0  0  0  0  0  0
   62.6705   33.5079   51.1823 C   0  0  0  0  0  0  0  0  0  0  0  0
   59.4817   30.6438   46.0956 O   0  0  0  0  0  0  0  0  0  0  0  0
   58.4438   29.8100   46.6041 C   0  0  0  0  0  0  0  0  0  0  0  0
   57.4763   29.4325   45.5145 C   0  0  0  0  0  0  0  0  0  0  0  0
   56.7788   30.3438   44.9954 O   0  0  0  0  0  0  0  0  0  0  0  0
   57.3064   28.0870   45.0305 N   0  0  0  0  0  0  0  0  0  0  0  0
   57.6806   26.9571   45.5636 C   0  0  0  0  0  0  0  0  0  0  0  0
   58.9940   26.5977   45.6288 N   0  0  0  0  0  0  0  0  0  0  0  0
   59.3996   25.4364   46.2060 C   0  0  0  0  0  0  0  0  0  0  0  0
   58.4590   24.5655   46.7564 C   0  0  0  0  0  0  0  0  0  0  0  0
   57.1061   24.9019   46.7048 C   0  0  0  0  0  0  0  0  0  0  0  0
   56.7090   26.1028   46.1082 C   0  0  0  0  0  0  0  0  0  0  0  0
   55.3602   26.4391   46.0635 O   0  0  0  0  0  0  0  0  0  0  0  0
 16 17  1  0
 17 10  1  0
 10 11  2  0
 11 12  1  0
 12 13  2  0
 13 18  1  0
 18 19  1  0
 13 14  1  0
 14  9  1  0
  9  7  1  0
  7  8  2  0
  7  1  1  0
  1  2  2  0
  2  3  1  0
  3  4  2  0
  4  5  1  0
  5  6  2  0
  6 20  1  0
 20 21  1  0
 21 22  1  0
 22 23  2  0
 22 24  1  0
 24 25  2  0
 25 26  1  0
 26 27  1  0
 27 28  2  0
 28 29  1  0
 29 30  2  0
 30 31  1  0
 14 15  2  0
 15 10  1  0
  6  1  1  0
 30 25  1  0
M  CHG 1   9  -1
M  CHG 1  26  -1
M  CHG 1  31  -1
M  END
> <UniqueID>
86

> <SMILES>
COc1ccc(OC)c([N-]C(=O)c2cccnc2OCC(=O)N=c2[n-]cccc2[O-])c1

> <Energy>
60.19789699094771

> <Genealogy>
COc1ccc(OC)c([N-]C(=O)c2cccnc2OCC(=O)N=c2[n-]cccc2[O-])c1 (protonated)
COc1ccc(OC)c([N-]C(=O)c2cccnc2OCC(=O)N=c2[n-]cccc2[O-])c1 (3D coordinates assigned)
COc1ccc(OC)c([N-]C(=O)c2cccnc2OCC(=O)N=c2[n-]cccc2[O-])c1 (optimized conformer: 60.19789699094771 kcal/mol)

> <smiles>
COc1ccc(OC)c(NC(=O)c2cccnc2OCC(=O)N=c2[nH]cccc2O)c1

> <score_type>
oracle

> <origin>
adg

> <m_score__min__energy>
-14.640000000000001

> <m_primary>
energy

> <minimizedAffinity>
-6.92130

> <minimizedRMSD>
0.64381

> <CNNscore>
0.5248707533

> <CNNaffinity>
6.4954810143

> <CNN_VS>
3.4092879295

> <CNNaffinity_variance>
0.0715772137

$$$$
44:0


 29 31  0  0  0  0  0  0  0  0999 V2000
   58.9176   32.6333   47.0276 C   0  0  0  0  0  0  0  0  0  0  0  0
   58.3546   33.7456   46.3820 C   0  0  0  0  0  0  0  0  0  0  0  0
   57.7265   33.5588   45.1521 C   0  0  0  0  0  0  0  0  0  0  0  0
   57.6707   32.3206   44.5988 N   0  0  0  0  0  0  0  0  0  0  0  0
   58.2156   31.2450   45.2306 C   0  0  0  0  0  0  0  0  0  0  0  0
   58.1893   30.0599   44.6920 N   0  0  0  0  0  0  0  0  0  0  0  0
   58.8402   31.4147   46.4254 N   0  0  0  0  0  0  0  0  0  0  0  0
   59.9371   32.0641   50.6569 C   0  0  0  0  0  0  0  0  0  0  0  0
   60.9701   33.0088   50.7872 C   0  0  0  0  0  0  0  0  0  0  0  0
   61.3280   33.8098   49.7033 C   0  0  0  0  0  0  0  0  0  0  0  0
   60.6591   33.6861   48.4836 C   0  0  0  0  0  0  0  0  0  0  0  0
   59.6138   32.7568   48.3352 C   0  0  0  0  0  0  0  0  0  0  0  0
   59.2685   31.9435   49.4313 C   0  0  0  0  0  0  0  0  0  0  0  0
   59.5448   31.2104   51.7401 N   0  0  0  0  0  0  0  0  0  0  0  0
   58.0788   30.6411   54.1249 C   0  0  0  0  0  0  0  0  0  0  0  0
   57.9530   31.1237   52.4182 S   0  0  0  0  0  0  0  0  0  0  0  0
   57.2886   32.4691   52.3358 O   0  0  0  0  0  0  0  0  0  0  0  0
   57.1367   30.1017   51.6782 O   0  0  0  0  0  0  0  0  0  0  0  0
   58.5316   28.8158   45.3249 C   0  0  0  0  0  0  0  0  0  0  0  0
   59.8415   28.5339   45.7568 C   0  0  0  0  0  0  0  0  0  0  0  0
   60.1379   27.2986   46.3397 C   0  0  0  0  0  0  0  0  0  0  0  0
   59.1415   26.3290   46.4769 C   0  0  0  0  0  0  0  0  0  0  0  0
   57.8439   26.5836   46.0144 C   0  0  0  0  0  0  0  0  0  0  0  0
   57.5459   27.8251   45.4354 C   0  0  0  0  0  0  0  0  0  0  0  0
   56.5859   25.3629   46.1802 S   0  0  0  0  0  0  0  0  0  0  0  0
   55.0372   26.0987   45.9642 N   0  0  0  0  0  0  0  0  0  0  0  0
   56.6548   24.7394   47.5467 O   0  0  0  0  0  0  0  0  0  0  0  0
   56.7815   24.2869   45.1500 O   0  0  0  0  0  0  0  0  0  0  0  0
   54.9069   26.8286   46.6646 H   0  0  0  0  0  0  0  0  0  0  0  0
 15 16  1  0
 16 17  2  0
 16 18  2  0
 16 14  1  0
 14  8  1  0
  8  9  2  0
  9 10  1  0
 10 11  2  0
 11 12  1  0
 12  1  1  0
  1  2  1  0
  2  3  2  0
  3  4  1  0
  4  5  1  0
  5  6  2  0
  6 19  1  0
 19 20  2  0
 20 21  1  0
 21 22  2  0
 22 23  1  0
 23 25  1  0
 25 26  1  0
 25 27  2  0
 25 28  2  0
 23 24  2  0
  5  7  1  0
 12 13  2  0
 13  8  1  0
  7  1  2  0
 24 19  1  0
 26 29  1  0
M  CHG 1   4  -1
M  CHG 1  14  -1
M  CHG 1  26  -1
M  END
> <UniqueID>
39

> <SMILES>
CS(=O)(=O)[N-]c1cccc(-c2cc[n-]c(=Nc3cccc(S([NH-])(=O)=O)c3)n2)c1

> <Energy>
54.56630200943595

> <Genealogy>
CS(=O)(=O)[N-]c1cccc(-c2cc[n-]c(=Nc3cccc(S([NH-])(=O)=O)c3)n2)c1 (protonated)
CS(=O)(=O)[N-]c1cccc(-c2cc[n-]c(=Nc3cccc(S([NH-])(=O)=O)c3)n2)c1 (3D coordinates assigned)
CS(=O)(=O)[N-]c1cccc(-c2cc[n-]c(=Nc3cccc(S([NH-])(=O)=O)c3)n2)c1 (optimized conformer: 54.56630200943595 kcal/mol)

> <smiles>
CS(=O)(=O)Nc1cccc(-c2cc[nH]c(=Nc3cccc(S(N)(=O)=O)c3)n2)c1

> <score_type>
oracle

> <origin>
adg

> <m_score__min__energy>
-14.619999999999999

> <m_primary>
energy

> <minimizedAffinity>
-9.05785

> <minimizedRMSD>
0.55015

> <CNNscore>
0.8992303014

> <CNNaffinity>
7.7551116943

> <CNN_VS>
6.9736313820

> <CNNaffinity_variance>
0.5471038222

$$$$
0:0


 32 36  0  0  0  0  0  0  0  0999 V2000
   58.3812   26.2253   45.0249 C   0  0  0  0  0  0  0  0  0  0  0  0
   58.1006   27.5251   44.8539 C   0  0  0  0  0  0  0  0  0  0  0  0
   57.4892   28.1631   43.7734 C   0  0  0  0  0  0  0  0  0  0  0  0
   57.3606   29.4863   44.0376 N   0  0  0  0  0  0  0  0  0  0  0  0
   57.8666   29.6960   45.2425 N   0  0  0  0  0  0  0  0  0  0  0  0
   57.9627   30.8626   45.9442 C   0  0  0  0  0  0  0  0  0  0  0  0
   57.5491   32.0093   45.4834 N   0  0  0  0  0  0  0  0  0  0  0  0
   58.5246   30.8129   47.1831 N   0  0  0  0  0  0  0  0  0  0  0  0
   58.9767   29.6298   47.7084 C   0  0  0  0  0  0  0  0  0  0  0  0
   59.5104   29.5898   48.8906 N   0  0  0  0  0  0  0  0  0  0  0  0
   58.8676   28.4798   46.9869 N   0  0  0  0  0  0  0  0  0  0  0  0
   58.3085   28.5439   45.7550 C   0  0  0  0  0  0  0  0  0  0  0  0
   55.4472   26.5319   45.9767 O   0  0  0  0  0  0  0  0  0  0  0  0
   56.2856   25.4667   46.2853 C   0  0  0  0  0  0  0  0  0  0  0  0
   55.8981   24.3921   46.9940 N   0  0  0  0  0  0  0  0  0  0  0  0
   56.9987   23.6105   46.9762 C   0  0  0  0  0  0  0  0  0  0  0  0
   57.0394   22.4861   47.5391 O   0  0  0  0  0  0  0  0  0  0  0  0
   58.0485   24.1256   46.2992 N   0  0  0  0  0  0  0  0  0  0  0  0
   57.5956   25.3211   45.8804 C   0  0  0  0  0  0  0  0  0  0  0  0
   54.5673   26.5440   46.2986 H   0  0  0  0  0  0  0  0  0  0  0  0
   58.3494   32.9958   44.7654 C   0  0  0  0  0  0  0  0  0  0  0  0
   59.2958   33.7868   45.6521 C   0  0  0  0  0  0  0  0  0  0  0  0
   58.0031   34.4203   45.1598 C   0  0  0  0  0  0  0  0  0  0  0  0
   59.7426   30.7634   49.7256 C   0  0  0  0  0  0  0  0  0  0  0  0
   60.7729   31.6434   49.0739 C   0  0  0  0  0  0  0  0  0  0  0  0
   61.8749   31.0693   48.4183 C   0  0  0  0  0  0  0  0  0  0  0  0
   62.8538   31.8832   47.8394 C   0  0  0  0  0  0  0  0  0  0  0  0
   62.7459   33.2745   47.9193 C   0  0  0  0  0  0  0  0  0  0  0  0
   63.6962   34.0612   47.3592 F   0  0  0  0  0  0  0  0  0  0  0  0
   61.6605   33.8531   48.5844 C   0  0  0  0  0  0  0  0  0  0  0  0
   60.6782   33.0438   49.1660 C   0  0  0  0  0  0  0  0  0  0  0  0
   59.6415   33.6262   49.8207 F   0  0  0  0  0  0  0  0  0  0  0  0
 13 14  1  0
 14 15  1  0
 15 16  1  0
 16 17  2  0
 16 18  1  0
 18 19  1  0
 19  1  1  0
  1  2  2  0
  2  3  1  0
  3  4  2  0
  4  5  1  0
  5  6  1  0
  6  7  2  0
  7 21  1  0
 21 22  1  0
 22 23  1  0
  6  8  1  0
  8  9  1  0
  9 10  2  0
 10 24  1  0
 24 25  1  0
 25 26  2  0
 26 27  1  0
 27 28  2  0
 28 29  1  0
 28 30  1  0
 30 31  2  0
 31 32  1  0
  9 11  1  0
 11 12  2  0
 19 14  2  0
 12  2  1  0
 12  5  1  0
 23 21  1  0
 31 25  1  0
 13 20  1  0
M  CHG 1   8  -1
M  CHG 1  15  -1
M  CHG 1  18  -1
M  END
> <UniqueID>
1

> <SMILES>
O=c1[n-]c(O)c(/C=c2\cnn3c(=NC4CC4)[n-]c(=NCc4ccc(F)cc4F)nc23)[n-]1

> <Energy>
388.53844729503373

> <Genealogy>
O=c1[n-]c(O)c(C=c2cnn3c(=NC4CC4)[n-]c(=NCc4ccc(F)cc4F)nc23)[n-]1 (protonated)
O=c1[n-]c(O)c(/C=c2\cnn3c(=NC4CC4)[n-]c(=NCc4ccc(F)cc4F)nc23)[n-]1 (cis-trans isomerization)
O=c1[n-]c(O)c(/C=c2\cnn3c(=NC4CC4)[n-]c(=NCc4ccc(F)cc4F)nc23)[n-]1 (3D coordinates assigned)
O=c1[n-]c(O)c(/C=c2\cnn3c(=NC4CC4)[n-]c(=NCc4ccc(F)cc4F)nc23)[n-]1 (nonaromatic ring conformer: 388.53844729503373 kcal/mol)

> <smiles>
O=c1[nH]c(O)c(C=c2cnn3c(=NC4CC4)[nH]c(=NCc4ccc(F)cc4F)nc23)[nH]1

> <score_type>
oracle

> <origin>
adg

> <m_score__min__energy>
-14.35

> <m_primary>
energy

> <minimizedAffinity>
-9.91677

> <minimizedRMSD>
0.94177

> <CNNscore>
0.8034424782

> <CNNaffinity>
7.4981007576

> <CNN_VS>
6.0242924690

> <CNNaffinity_variance>
0.0403412692

$$$$
9:0


 24 26  0  0  0  0  0  0  0  0999 V2000
   60.0352   32.4432   46.7786 C   0  0  0  0  0  0  0  0  0  0  0  0
   60.2707   33.7577   46.3423 C   0  0  0  0  0  0  0  0  0  0  0  0
   59.3843   34.3807   45.4611 C   0  0  0  0  0  0  0  0  0  0  0  0
   58.2536   33.7015   45.0111 C   0  0  0  0  0  0  0  0  0  0  0  0
   58.0086   32.3924   45.4321 C   0  0  0  0  0  0  0  0  0  0  0  0
   58.8984   31.7441   46.3077 C   0  0  0  0  0  0  0  0  0  0  0  0
   58.6463   30.3859   46.7148 N   0  0  0  0  0  0  0  0  0  0  0  0
   58.9462   29.2532   45.8823 C   0  0  0  0  0  0  0  0  0  0  0  0
   59.6839   29.3926   44.8686 O   0  0  0  0  0  0  0  0  0  0  0  0
   58.2512   30.2262   47.6023 H   0  0  0  0  0  0  0  0  0  0  0  0
   58.4348   27.9102   46.2098 C   0  0  0  0  0  0  0  0  0  0  0  0
   57.1965   27.4965   45.8697 N   0  0  0  0  0  0  0  0  0  0  0  0
   57.1059   26.2425   46.3490 C   0  0  0  0  0  0  0  0  0  0  0  0
   55.9725   25.4525   46.2063 O   0  0  0  0  0  0  0  0  0  0  0  0
   58.2582   25.8479   46.9894 C   0  0  0  0  0  0  0  0  0  0  0  0
   59.1164   26.9219   46.9034 C   0  0  0  0  0  0  0  0  0  0  0  0
   61.0075   31.8211   47.7021 C   0  0  0  0  0  0  0  0  0  0  0  0
   62.2389   31.9608   47.4791 O   0  0  0  0  0  0  0  0  0  0  0  0
   58.0914   31.1946   51.2123 C   0  0  0  0  0  0  0  0  0  0  0  0
   58.7598   30.5798   50.1998 N   0  0  0  0  0  0  0  0  0  0  0  0
   59.8031   31.3244   49.7728 C   0  0  0  0  0  0  0  0  0  0  0  0
   60.5966   30.9888   48.7982 N   0  0  0  0  0  0  0  0  0  0  0  0
   59.9310   32.7699   50.6149 S   0  0  0  0  0  0  0  0  0  0  0  0
   58.5993   32.4342   51.5874 C   0  0  0  0  0  0  0  0  0  0  0  0
 19 20  1  0
 20 21  1  0
 21 22  2  0
 22 17  1  0
 17 18  2  0
 17  1  1  0
  1  2  2  0
  2  3  1  0
  3  4  2  0
  4  5  1  0
  5  6  2  0
  6  7  1  0
  7  8  1  0
  8  9  2  0
  8 11  1  0
 11 12  1  0
 12 13  1  0
 13 14  1  0
 13 15  2  0
 15 16  1  0
 21 23  1  0
 23 24  1  0
 24 19  2  0
  6  1  1  0
 16 11  2  0
  7 10  1  0
M  CHG 1  12  -1
M  CHG 1  14  -1
M  CHG 1  20  -1
M  END
> <UniqueID>
9

> <SMILES>
O=C(Nc1ccccc1C(=O)/N=c1\[n-]ccs1)c1ccc([O-])[n-]1

> <Energy>
103.54591978522983

> <Genealogy>
O=C(Nc1ccccc1C(=O)N=c1[n-]ccs1)c1ccc([O-])[n-]1 (protonated)
O=C(Nc1ccccc1C(=O)/N=c1\[n-]ccs1)c1ccc([O-])[n-]1 (cis-trans isomerization)
O=C(Nc1ccccc1C(=O)/N=c1\[n-]ccs1)c1ccc([O-])[n-]1 (3D coordinates assigned)
O=C(Nc1ccccc1C(=O)/N=c1\[n-]ccs1)c1ccc([O-])[n-]1 (optimized conformer: 103.54591978522983 kcal/mol)

> <smiles>
O=C(Nc1ccccc1C(=O)N=c1[nH]ccs1)c1ccc(O)[nH]1

> <score_type>
oracle

> <origin>
adg

> <m_score__min__energy>
-14.029999999999999

> <m_primary>
energy

> <minimizedAffinity>
-7.67693

> <minimizedRMSD>
1.49739

> <CNNscore>
0.7224317193

> <CNNaffinity>
6.2679877281

> <CNN_VS>
4.5281929970

> <CNNaffinity_variance>
0.0543631464

$$$$
14:0


 23 24  0  0  0  0  0  0  0  0999 V2000
   57.7700   27.7661   45.7123 C   0  0  0  0  0  0  0  0  0  0  0  0
   59.1513   27.9923   45.7886 C   0  0  0  0  0  0  0  0  0  0  0  0
   60.0238   26.9571   46.1289 C   0  0  0  0  0  0  0  0  0  0  0  0
   59.5251   25.6852   46.4112 C   0  0  0  0  0  0  0  0  0  0  0  0
   58.1407   25.4397   46.3681 C   0  0  0  0  0  0  0  0  0  0  0  0
   57.2662   26.4859   46.0277 C   0  0  0  0  0  0  0  0  0  0  0  0
   55.8967   26.2477   46.0373 O   0  0  0  0  0  0  0  0  0  0  0  0
   56.9063   28.8606   45.3577 N   0  0  0  0  0  0  0  0  0  0  0  0
   56.1152   29.0300   45.9186 H   0  0  0  0  0  0  0  0  0  0  0  0
   57.1399   29.7363   44.2077 C   0  0  0  0  0  0  0  0  0  0  0  0
   58.7149   32.5635   47.9246 C   0  0  0  0  0  0  0  0  0  0  0  0
   58.4214   32.4246   46.4655 C   0  0  0  0  0  0  0  0  0  0  0  0
   58.6860   33.4712   45.5800 C   0  0  0  0  0  0  0  0  0  0  0  0
   58.4207   33.3080   44.2589 N   0  0  0  0  0  0  0  0  0  0  0  0
   57.9052   32.1498   43.7656 C   0  0  0  0  0  0  0  0  0  0  0  0
   57.6647   32.0533   42.2872 C   0  0  0  0  0  0  0  0  0  0  0  0
   57.6686   31.0746   44.6553 C   0  0  0  0  0  0  0  0  0  0  0  0
   57.9336   31.2538   45.9783 N   0  0  0  0  0  0  0  0  0  0  0  0
   57.5884   24.1503   46.6719 N   0  0  0  0  0  0  0  0  0  0  0  0
   57.4934   22.8016   45.5862 S   0  0  0  0  0  0  0  0  0  0  0  0
   56.7316   23.3008   44.0565 C   0  0  0  0  0  0  0  0  0  0  0  0
   58.8853   22.3189   45.2955 O   0  0  0  0  0  0  0  0  0  0  0  0
   56.7153   21.6837   46.2186 O   0  0  0  0  0  0  0  0  0  0  0  0
 11 12  1  0
 12 13  2  0
 13 14  1  0
 14 15  2  0
 15 16  1  0
 15 17  1  0
 17 10  1  0
 10  8  1  0
  8  1  1  0
  1  2  2  0
  2  3  1  0
  3  4  2  0
  4  5  1  0
  5 19  1  0
 19 20  1  0
 20 21  1  0
 20 22  2  0
 20 23  2  0
  5  6  2  0
  6  7  1  0
 17 18  2  0
 18 12  1  0
  6  1  1  0
  8  9  1  0
M  CHG 1   7  -1
M  CHG 1  19  -1
M  END
> <UniqueID>
15

> <SMILES>
Cc1cnc(C)c(CNc2cccc([N-]S(C)(=O)=O)c2[O-])n1

> <Energy>
41.77188126707131

> <Genealogy>
Cc1cnc(C)c(CNc2cccc([N-]S(C)(=O)=O)c2[O-])n1 (protonated)
Cc1cnc(C)c(CNc2cccc([N-]S(C)(=O)=O)c2[O-])n1 (3D coordinates assigned)
Cc1cnc(C)c(CNc2cccc([N-]S(C)(=O)=O)c2[O-])n1 (optimized conformer: 41.77188126707131 kcal/mol)

> <smiles>
Cc1cnc(C)c(CNc2cccc(NS(C)(=O)=O)c2O)n1

> <score_type>
oracle

> <origin>
adg

> <m_score__min__energy>
-14.029999999999999

> <m_primary>
energy

> <minimizedAffinity>
-7.19497

> <minimizedRMSD>
1.17982

> <CNNscore>
0.6646907926

> <CNNaffinity>
6.6098232269

> <CNN_VS>
4.3934884071

> <CNNaffinity_variance>
0.0861544907

$$$$
46:0


 33 35  0  0  0  0  0  0  0  0999 V2000
   59.4987   29.1081   48.3707 C   0  0  0  0  0  0  0  0  0  0  0  0
   60.6973   29.4889   48.3264 O   0  0  0  0  0  0  0  0  0  0  0  0
   59.0141   28.1536   47.3538 C   0  0  0  0  0  0  0  0  0  0  0  0
   58.7422   26.8268   47.7211 C   0  0  0  0  0  0  0  0  0  0  0  0
   58.3074   25.9061   46.7682 C   0  0  0  0  0  0  0  0  0  0  0  0
   58.1464   26.2996   45.4385 C   0  0  0  0  0  0  0  0  0  0  0  0
   58.4353   27.6124   45.0544 C   0  0  0  0  0  0  0  0  0  0  0  0
   58.8950   28.5451   46.0037 C   0  0  0  0  0  0  0  0  0  0  0  0
   59.1821   29.9042   45.6350 N   0  0  0  0  0  0  0  0  0  0  0  0
   58.2536   30.9964   45.6066 C   0  0  0  0  0  0  0  0  0  0  0  0
   57.0542   30.7979   45.2711 O   0  0  0  0  0  0  0  0  0  0  0  0
   58.7180   32.3691   45.9137 C   0  0  0  0  0  0  0  0  0  0  0  0
   59.3532   32.6502   47.1383 C   0  0  0  0  0  0  0  0  0  0  0  0
   59.8007   33.9440   47.4230 C   0  0  0  0  0  0  0  0  0  0  0  0
   59.6194   34.9690   46.4949 C   0  0  0  0  0  0  0  0  0  0  0  0
   58.9912   34.7026   45.2774 C   0  0  0  0  0  0  0  0  0  0  0  0
   58.5409   33.4142   44.9841 C   0  0  0  0  0  0  0  0  0  0  0  0
   58.6373   29.6408   49.3860 N   0  0  0  0  0  0  0  0  0  0  0  0
   59.0210   30.6392   50.3806 C   0  0  0  0  0  0  0  0  0  0  0  0
   57.9017   30.8958   51.3401 C   0  0  0  0  0  0  0  0  0  0  0  0
   57.6180   32.0814   51.6584 O   0  0  0  0  0  0  0  0  0  0  0  0
   57.1575   29.7943   51.8776 N   0  0  0  0  0  0  0  0  0  0  0  0
   53.5219   30.1769   52.7523 C   0  0  0  0  0  0  0  0  0  0  0  0
   53.5956   30.1267   54.1483 C   0  0  0  0  0  0  0  0  0  0  0  0
   54.8317   29.9670   54.7815 C   0  0  0  0  0  0  0  0  0  0  0  0
   55.9988   29.8550   54.0206 C   0  0  0  0  0  0  0  0  0  0  0  0
   55.9376   29.8843   52.6222 C   0  0  0  0  0  0  0  0  0  0  0  0
   54.6940   30.0646   51.9905 C   0  0  0  0  0  0  0  0  0  0  0  0
   51.5941   32.1270   51.9771 N   0  0  0  0  0  0  0  0  0  0  0  0
   51.9694   30.4379   51.9626 S   0  0  0  0  0  0  0  0  0  0  0  0
   50.8972   29.6756   52.6890 O   0  0  0  0  0  0  0  0  0  0  0  0
   52.0261   29.9531   50.5413 O   0  0  0  0  0  0  0  0  0  0  0  0
   50.6951   32.2795   51.5199 H   0  0  0  0  0  0  0  0  0  0  0  0
 29 30  1  0
 30 31  2  0
 30 32  2  0
 30 23  1  0
 23 24  2  0
 24 25  1  0
 25 26  2  0
 26 27  1  0
 27 22  1  0
 22 20  1  0
 20 21  2  0
 20 19  1  0
 19 18  1  0
 18  1  1  0
  1  2  2  0
  1  3  1  0
  3  4  2  0
  4  5  1  0
  5  6  2  0
  6  7  1  0
  7  8  2  0
  8  9  1  0
  9 10  1  0
 10 11  2  0
 10 12  1  0
 12 13  2  0
 13 14  1  0
 14 15  2  0
 15 16  1  0
 16 17  2  0
 27 28  2  0
 28 23  1  0
  8  3  1  0
 17 12  1  0
 29 33  1  0
M  CHG 1   9  -1
M  CHG 1  18  -1
M  CHG 1  22  -1
M  CHG 1  29  -1
M  END
> <UniqueID>
43

> <SMILES>
[NH-]S(=O)(=O)c1cccc([N-]C(=O)C[N-]C(=O)c2ccccc2[N-]C(=O)c2ccccc2)c1

> <Energy>
63.08206032640138

> <Genealogy>
[NH-]S(=O)(=O)c1cccc([N-]C(=O)C[N-]C(=O)c2ccccc2[N-]C(=O)c2ccccc2)c1 (protonated)
[NH-]S(=O)(=O)c1cccc([N-]C(=O)C[N-]C(=O)c2ccccc2[N-]C(=O)c2ccccc2)c1 (3D coordinates assigned)
[NH-]S(=O)(=O)c1cccc([N-]C(=O)C[N-]C(=O)c2ccccc2[N-]C(=O)c2ccccc2)c1 (optimized conformer: 63.08206032640138 kcal/mol)

> <smiles>
NS(=O)(=O)c1cccc(NC(=O)CNC(=O)c2ccccc2NC(=O)c2ccccc2)c1

> <score_type>
oracle

> <origin>
adg

> <m_score__min__energy>
-15.4

> <m_primary>
energy

> <minimizedAffinity>
-8.10868

> <minimizedRMSD>
0.76525

> <CNNscore>
0.4401711822

> <CNNaffinity>
6.5794987679

> <CNN_VS>
2.8961057663

> <CNNaffinity_variance>
0.1194111705

$$$$
57:0


 22 23  0  0  0  0  0  0  0  0999 V2000
   61.0597   33.2353   47.8266 C   0  0  0  0  0  0  0  0  0  0  0  0
   60.9550   34.0242   46.6749 C   0  0  0  0  0  0  0  0  0  0  0  0
   59.7657   34.0445   45.9414 C   0  0  0  0  0  0  0  0  0  0  0  0
   58.6679   33.2692   46.3499 C   0  0  0  0  0  0  0  0  0  0  0  0
   58.7754   32.4813   47.5084 C   0  0  0  0  0  0  0  0  0  0  0  0
   59.9660   32.4643   48.2418 C   0  0  0  0  0  0  0  0  0  0  0  0
   62.5444   34.3247   49.9979 N   0  0  0  0  0  0  0  0  0  0  0  0
   62.5781   33.1694   48.7152 S   0  0  0  0  0  0  0  0  0  0  0  0
   63.7236   33.4794   47.7924 O   0  0  0  0  0  0  0  0  0  0  0  0
   62.7761   31.7920   49.2827 O   0  0  0  0  0  0  0  0  0  0  0  0
   63.4240   34.2867   50.5128 H   0  0  0  0  0  0  0  0  0  0  0  0
   57.4223   33.2069   45.5060 C   0  0  0  0  0  0  0  0  0  0  0  0
   57.5581   32.2047   44.3518 C   0  0  0  0  0  0  0  0  0  0  0  0
   56.9483   30.9152   44.6914 N   0  0  0  0  0  0  0  0  0  0  0  0
   57.6015   29.8178   44.9404 C   0  0  0  0  0  0  0  0  0  0  0  0
   56.9530   28.6884   45.3427 N   0  0  0  0  0  0  0  0  0  0  0  0
   57.6348   27.5514   45.6297 C   0  0  0  0  0  0  0  0  0  0  0  0
   56.9480   26.4183   46.0458 O   0  0  0  0  0  0  0  0  0  0  0  0
   59.0237   27.5241   45.5060 C   0  0  0  0  0  0  0  0  0  0  0  0
   59.6741   28.6835   45.0817 C   0  0  0  0  0  0  0  0  0  0  0  0
   60.9253   28.6977   44.9544 O   0  0  0  0  0  0  0  0  0  0  0  0
   58.9541   29.8034   44.8081 N   0  0  0  0  0  0  0  0  0  0  0  0
  7  8  1  0
  8  9  2  0
  8 10  2  0
  8  1  1  0
  1  2  2  0
  2  3  1  0
  3  4  2  0
  4 12  1  0
 12 13  1  0
 13 14  1  0
 14 15  2  0
 15 16  1  0
 16 17  1  0
 17 18  1  0
 17 19  2  0
 19 20  1  0
 20 21  2  0
 20 22  1  0
  4  5  1  0
  5  6  2  0
  6  1  1  0
 22 15  1  0
  7 11  1  0
M  CHG 1   7  -1
M  CHG 1  16  -1
M  CHG 1  18  -1
M  CHG 1  22  -1
M  END
> <UniqueID>
54

> <SMILES>
[NH-]S(=O)(=O)c1ccc(CC/N=c2\[n-]c([O-])cc(=O)[n-]2)cc1

> <Energy>
28.366151383472655

> <Genealogy>
[NH-]S(=O)(=O)c1ccc(CCN=c2[n-]c([O-])cc(=O)[n-]2)cc1 (protonated)
[NH-]S(=O)(=O)c1ccc(CC/N=c2\[n-]c([O-])cc(=O)[n-]2)cc1 (cis-trans isomerization)
[NH-]S(=O)(=O)c1ccc(CC/N=c2\[n-]c([O-])cc(=O)[n-]2)cc1 (3D coordinates assigned)
[NH-]S(=O)(=O)c1ccc(CC/N=c2\[n-]c([O-])cc(=O)[n-]2)cc1 (optimized conformer: 28.366151383472655 kcal/mol)

> <smiles>
NS(=O)(=O)c1ccc(CCN=c2[nH]c(O)cc(=O)[nH]2)cc1

> <score_type>
oracle

> <origin>
adg

> <m_score__min__energy>
-16.149999999999999

> <m_primary>
energy

> <minimizedAffinity>
-7.39642

> <minimizedRMSD>
1.10069

> <CNNscore>
0.6912150383

> <CNNaffinity>
6.2766585350

> <CNN_VS>
4.3385210037

> <CNNaffinity_variance>
0.2444021553

$$$$
7:0


 23 24  0  0  0  0  0  0  0  0999 V2000
   60.3727   32.8461   47.5919 C   0  0  0  0  0  0  0  0  0  0  0  0
   60.2750   34.2420   47.6513 C   0  0  0  0  0  0  0  0  0  0  0  0
   59.4335   34.9221   46.7695 C   0  0  0  0  0  0  0  0  0  0  0  0
   58.6931   34.2167   45.8162 C   0  0  0  0  0  0  0  0  0  0  0  0
   58.8028   32.8145   45.7299 C   0  0  0  0  0  0  0  0  0  0  0  0
   59.6378   32.1388   46.6308 C   0  0  0  0  0  0  0  0  0  0  0  0
   61.1658   30.2834   48.5638 N   0  0  0  0  0  0  0  0  0  0  0  0
   61.4399   31.9848   48.6977 S   0  0  0  0  0  0  0  0  0  0  0  0
   61.1728   32.4269   50.1088 O   0  0  0  0  0  0  0  0  0  0  0  0
   62.8740   32.2885   48.3636 O   0  0  0  0  0  0  0  0  0  0  0  0
   61.7851   29.7878   49.2051 H   0  0  0  0  0  0  0  0  0  0  0  0
   61.3553   29.9827   47.6077 H   0  0  0  0  0  0  0  0  0  0  0  0
   58.0634   32.0309   44.7762 N   0  0  0  0  0  0  0  0  0  0  0  0
   58.4389   30.9094   44.2368 C   0  0  0  0  0  0  0  0  0  0  0  0
   58.2490   29.6135   44.9400 C   0  0  0  0  0  0  0  0  0  0  0  0
   56.9827   29.0058   45.0880 C   0  0  0  0  0  0  0  0  0  0  0  0
   55.8327   29.5955   44.5759 O   0  0  0  0  0  0  0  0  0  0  0  0
   56.8720   27.8193   45.7402 N   0  0  0  0  0  0  0  0  0  0  0  0
   57.9580   27.1965   46.2593 C   0  0  0  0  0  0  0  0  0  0  0  0
   57.7866   25.7721   47.0365 S   0  0  0  0  0  0  0  0  0  0  0  0
   59.1861   27.7559   46.1319 N   0  0  0  0  0  0  0  0  0  0  0  0
   59.3575   28.9391   45.4901 C   0  0  0  0  0  0  0  0  0  0  0  0
   60.5185   29.4222   45.3958 O   0  0  0  0  0  0  0  0  0  0  0  0
  7  8  1  0
  8  9  2  0
  8 10  2  0
  8  1  1  0
  1  2  2  0
  2  3  1  0
  3  4  2  0
  4  5  1  0
  5 13  1  0
 13 14  2  0
 14 15  1  0
 15 16  2  0
 16 17  1  0
 16 18  1  0
 18 19  1  0
 19 20  2  0
 19 21  1  0
 21 22  1  0
 22 23  2  0
  5  6  2  0
  6  1  1  0
 22 15  1  0
  7 11  1  0
  7 12  1  0
M  CHG 1  17  -1
M  CHG 1  18  -1
M  CHG 1  21  -1
M  END
> <UniqueID>
8

> <SMILES>
NS(=O)(=O)c1cccc(N=Cc2c([O-])[n-]c(=S)[n-]c2=O)c1

> <Energy>
33.90955622705208

> <Genealogy>
NS(=O)(=O)c1cccc(N=Cc2c([O-])[n-]c(=S)[n-]c2=O)c1 (protonated)
NS(=O)(=O)c1cccc(N=Cc2c([O-])[n-]c(=S)[n-]c2=O)c1 (3D coordinates assigned)
NS(=O)(=O)c1cccc(N=Cc2c([O-])[n-]c(=S)[n-]c2=O)c1 (optimized conformer: 33.90955622705208 kcal/mol)

> <smiles>
NS(=O)(=O)c1cccc(N=Cc2c(O)[nH]c(=S)[nH]c2=O)c1

> <score_type>
oracle

> <origin>
adg

> <m_score__min__energy>
-15.140000000000001

> <m_primary>
energy

> <minimizedAffinity>
-6.44427

> <minimizedRMSD>
0.91114

> <CNNscore>
0.5067182183

> <CNNaffinity>
5.9588737488

> <CNN_VS>
3.0194699764

> <CNNaffinity_variance>
0.1616238207

$$$$
29:0


 31 33  0  0  0  0  0  0  0  0999 V2000
   58.0557   29.0676   45.9279 C   0  0  0  0  0  0  0  0  0  0  0  0
   57.0356   29.0465   45.1918 O   0  0  0  0  0  0  0  0  0  0  0  0
   58.9273   27.8581   46.0330 C   0  0  0  0  0  0  0  0  0  0  0  0
   58.5408   26.8865   45.0149 N   0  0  0  0  0  0  0  0  0  0  0  0
   58.0234   25.5671   45.2353 C   0  0  0  0  0  0  0  0  0  0  0  0
   58.3837   24.9509   46.2720 O   0  0  0  0  0  0  0  0  0  0  0  0
   57.1005   24.8750   44.2639 C   0  0  0  0  0  0  0  0  0  0  0  0
   53.3290   21.4353   46.9619 C   0  0  0  0  0  0  0  0  0  0  0  0
   54.3139   22.3245   46.2811 C   0  0  0  0  0  0  0  0  0  0  0  0
   54.1756   23.6729   46.3424 N   0  0  0  0  0  0  0  0  0  0  0  0
   55.0485   24.5014   45.7137 C   0  0  0  0  0  0  0  0  0  0  0  0
   54.8886   25.8798   45.8310 O   0  0  0  0  0  0  0  0  0  0  0  0
   56.1130   23.9664   44.9638 C   0  0  0  0  0  0  0  0  0  0  0  0
   56.2526   22.5646   44.9451 C   0  0  0  0  0  0  0  0  0  0  0  0
   57.2108   22.0174   44.3371 O   0  0  0  0  0  0  0  0  0  0  0  0
   55.3493   21.7833   45.5906 N   0  0  0  0  0  0  0  0  0  0  0  0
   54.1774   26.2280   46.3320 H   0  0  0  0  0  0  0  0  0  0  0  0
   58.3959   30.2457   46.6653 N   0  0  0  0  0  0  0  0  0  0  0  0
   58.4709   31.5672   46.1131 C   0  0  0  0  0  0  0  0  0  0  0  0
   58.0277   31.7702   44.7998 C   0  0  0  0  0  0  0  0  0  0  0  0
   58.0839   33.0395   44.2216 C   0  0  0  0  0  0  0  0  0  0  0  0
   58.6084   34.1124   44.9423 C   0  0  0  0  0  0  0  0  0  0  0  0
   59.0845   33.9180   46.2403 C   0  0  0  0  0  0  0  0  0  0  0  0
   59.0220   32.6452   46.8404 C   0  0  0  0  0  0  0  0  0  0  0  0
   59.5717   32.4151   48.1106 O   0  0  0  0  0  0  0  0  0  0  0  0
   60.9422   32.3716   48.4060 C   0  0  0  0  0  0  0  0  0  0  0  0
   61.8504   32.8655   47.4613 C   0  0  0  0  0  0  0  0  0  0  0  0
   63.2235   32.8379   47.7199 C   0  0  0  0  0  0  0  0  0  0  0  0
   63.6992   32.2998   48.9190 C   0  0  0  0  0  0  0  0  0  0  0  0
   62.8016   31.7827   49.8582 C   0  0  0  0  0  0  0  0  0  0  0  0
   61.4273   31.8098   49.6001 C   0  0  0  0  0  0  0  0  0  0  0  0
  8  9  1  0
  9 10  2  0
 10 11  1  0
 11 12  1  0
 11 13  2  0
 13  7  1  0
  7  5  1  0
  5  6  2  0
  5  4  1  0
  4  3  1  0
  3  1  1  0
  1  2  2  0
  1 18  1  0
 18 19  1  0
 19 20  2  0
 20 21  1  0
 21 22  2  0
 22 23  1  0
 23 24  2  0
 24 25  1  0
 25 26  1  0
 26 27  2  0
 27 28  1  0
 28 29  2  0
 29 30  1  0
 30 31  2  0
 13 14  1  0
 14 15  2  0
 14 16  1  0
 16  9  1  0
 24 19  1  0
 31 26  1  0
 12 17  1  0
M  CHG 1   4  -1
M  CHG 1  16  -1
M  CHG 1  18  -1
M  END
> <UniqueID>
28

> <SMILES>
Cc1nc(O)c(CC(=O)[N-]CC(=O)[N-]c2ccccc2Oc2ccccc2)c(=O)[n-]1

> <Energy>
54.782254616881566

> <Genealogy>
Cc1nc(O)c(CC(=O)[N-]CC(=O)[N-]c2ccccc2Oc2ccccc2)c(=O)[n-]1 (protonated)
Cc1nc(O)c(CC(=O)[N-]CC(=O)[N-]c2ccccc2Oc2ccccc2)c(=O)[n-]1 (3D coordinates assigned)
Cc1nc(O)c(CC(=O)[N-]CC(=O)[N-]c2ccccc2Oc2ccccc2)c(=O)[n-]1 (optimized conformer: 54.782254616881566 kcal/mol)

> <smiles>
Cc1nc(O)c(CC(=O)NCC(=O)Nc2ccccc2Oc2ccccc2)c(=O)[nH]1

> <score_type>
oracle

> <origin>
adg

> <m_score__min__energy>
-14.1

> <m_primary>
energy

> <minimizedAffinity>
-8.53717

> <minimizedRMSD>
2.16310

> <CNNscore>
0.4697686434

> <CNNaffinity>
6.8038401604

> <CNN_VS>
3.1962306499

> <CNNaffinity_variance>
0.0811666697

$$$$
56:0


 27 29  0  0  0  0  0  0  0  0999 V2000
   57.0830   30.5968   44.2425 C   0  0  0  0  0  0  0  0  0  0  0  0
   56.6553   30.6477   43.0589 O   0  0  0  0  0  0  0  0  0  0  0  0
   57.7793   29.3942   44.7401 C   0  0  0  0  0  0  0  0  0  0  0  0
   59.1793   29.3408   44.8067 C   0  0  0  0  0  0  0  0  0  0  0  0
   59.8061   28.2111   45.3423 C   0  0  0  0  0  0  0  0  0  0  0  0
   61.0639   28.1749   45.4070 O   0  0  0  0  0  0  0  0  0  0  0  0
   59.0271   27.1339   45.8053 C   0  0  0  0  0  0  0  0  0  0  0  0
   59.6076   25.9787   46.3594 C   0  0  0  0  0  0  0  0  0  0  0  0
   58.7975   24.9305   46.8062 C   0  0  0  0  0  0  0  0  0  0  0  0
   57.4070   25.0214   46.7027 C   0  0  0  0  0  0  0  0  0  0  0  0
   56.8153   26.1628   46.1541 C   0  0  0  0  0  0  0  0  0  0  0  0
   55.4311   26.2383   46.0534 O   0  0  0  0  0  0  0  0  0  0  0  0
   57.6187   27.2220   45.7073 C   0  0  0  0  0  0  0  0  0  0  0  0
   57.0450   28.3393   45.1856 N   0  0  0  0  0  0  0  0  0  0  0  0
   56.9161   31.7291   45.0979 N   0  0  0  0  0  0  0  0  0  0  0  0
   57.6398   32.9761   44.8677 C   0  0  0  0  0  0  0  0  0  0  0  0
   60.9745   33.2705   47.5861 C   0  0  0  0  0  0  0  0  0  0  0  0
   60.7520   34.2730   46.6334 C   0  0  0  0  0  0  0  0  0  0  0  0
   59.6454   34.2026   45.7818 C   0  0  0  0  0  0  0  0  0  0  0  0
   58.7509   33.1238   45.8718 C   0  0  0  0  0  0  0  0  0  0  0  0
   58.9770   32.1198   46.8260 C   0  0  0  0  0  0  0  0  0  0  0  0
   60.0802   32.1954   47.6815 C   0  0  0  0  0  0  0  0  0  0  0  0
   62.6173   31.8136   49.3994 N   0  0  0  0  0  0  0  0  0  0  0  0
   62.4008   33.3371   48.6151 S   0  0  0  0  0  0  0  0  0  0  0  0
   63.6114   33.6519   47.7819 O   0  0  0  0  0  0  0  0  0  0  0  0
   62.2358   34.4130   49.6529 O   0  0  0  0  0  0  0  0  0  0  0  0
   63.4440   31.8526   49.9956 H   0  0  0  0  0  0  0  0  0  0  0  0
 23 24  1  0
 24 25  2  0
 24 26  2  0
 24 17  1  0
 17 18  2  0
 18 19  1  0
 19 20  2  0
 20 16  1  0
 16 15  1  0
 15  1  1  0
  1  2  2  0
  1  3  1  0
  3  4  2  0
  4  5  1  0
  5  6  2  0
  5  7  1  0
  7  8  2  0
  8  9  1  0
  9 10  2  0
 10 11  1  0
 11 12  1  0
 11 13  2  0
 13 14  1  0
 20 21  1  0
 21 22  2  0
 22 17  1  0
 14  3  1  0
 13  7  1  0
 23 27  1  0
M  CHG 1  12  -1
M  CHG 1  14  -1
M  CHG 1  15  -1
M  CHG 1  23  -1
M  END
> <UniqueID>
53

> <SMILES>
[NH-]S(=O)(=O)c1ccc(C[N-]C(=O)c2cc(=O)c3cccc([O-])c3[n-]2)cc1

> <Energy>
45.79597867102413

> <Genealogy>
[NH-]S(=O)(=O)c1ccc(C[N-]C(=O)c2cc(=O)c3cccc([O-])c3[n-]2)cc1 (protonated)
[NH-]S(=O)(=O)c1ccc(C[N-]C(=O)c2cc(=O)c3cccc([O-])c3[n-]2)cc1 (3D coordinates assigned)
[NH-]S(=O)(=O)c1ccc(C[N-]C(=O)c2cc(=O)c3cccc([O-])c3[n-]2)cc1 (optimized conformer: 45.79597867102413 kcal/mol)

> <smiles>
NS(=O)(=O)c1ccc(CNC(=O)c2cc(=O)c3cccc(O)c3[nH]2)cc1

> <score_type>
oracle

> <origin>
adg

> <m_score__min__energy>
-16.82

> <m_primary>
energy

> <minimizedAffinity>
-8.03118

> <minimizedRMSD>
0.79008

> <CNNscore>
0.6220407486

> <CNNaffinity>
6.4828643799

> <CNN_VS>
4.0326056480

> <CNNaffinity_variance>
0.1564513892

$$$$
69:0


 35 39  0  0  0  0  0  0  0  0999 V2000
   53.4588   30.5977   53.0603 C   0  0  0  0  0  0  0  0  0  0  0  0
   54.5596   29.8677   53.3049 C   0  0  0  0  0  0  0  0  0  0  0  0
   54.6114   28.7519   54.1227 C   0  0  0  0  0  0  0  0  0  0  0  0
   55.8837   28.3055   54.1906 N   0  0  0  0  0  0  0  0  0  0  0  0
   56.6563   29.0716   53.4287 N   0  0  0  0  0  0  0  0  0  0  0  0
   58.0243   29.1020   53.2423 C   0  0  0  0  0  0  0  0  0  0  0  0
   58.8771   28.1356   53.4878 N   0  0  0  0  0  0  0  0  0  0  0  0
   58.5405   30.2030   52.6281 N   0  0  0  0  0  0  0  0  0  0  0  0
   57.7527   31.2157   52.1695 C   0  0  0  0  0  0  0  0  0  0  0  0
   58.2704   32.2538   51.5836 N   0  0  0  0  0  0  0  0  0  0  0  0
   56.4082   31.1369   52.3151 N   0  0  0  0  0  0  0  0  0  0  0  0
   55.8784   30.0502   52.9193 C   0  0  0  0  0  0  0  0  0  0  0  0
   56.1902   27.5345   54.7206 H   0  0  0  0  0  0  0  0  0  0  0  0
   52.7297   30.6413   51.7785 C   0  0  0  0  0  0  0  0  0  0  0  0
   52.8615   29.7543   50.7759 N   0  0  0  0  0  0  0  0  0  0  0  0
   51.9334   30.1516   49.8800 C   0  0  0  0  0  0  0  0  0  0  0  0
   51.7580   29.5632   48.7802 O   0  0  0  0  0  0  0  0  0  0  0  0
   51.2037   31.2227   50.2567 N   0  0  0  0  0  0  0  0  0  0  0  0
   51.7141   31.5120   51.4643 C   0  0  0  0  0  0  0  0  0  0  0  0
   51.2571   32.5511   52.2673 O   0  0  0  0  0  0  0  0  0  0  0  0
   60.2867   27.7060   53.4427 C   0  0  0  0  0  0  0  0  0  0  0  0
   60.8875   27.5543   52.0678 C   0  0  0  0  0  0  0  0  0  0  0  0
   61.3298   28.7012   53.0004 C   0  0  0  0  0  0  0  0  0  0  0  0
   58.7264   32.2876   50.1945 C   0  0  0  0  0  0  0  0  0  0  0  0
   60.2306   32.2757   50.1328 C   0  0  0  0  0  0  0  0  0  0  0  0
   60.8933   31.7846   48.9991 C   0  0  0  0  0  0  0  0  0  0  0  0
   62.2860   31.8045   48.9350 C   0  0  0  0  0  0  0  0  0  0  0  0
   63.0381   32.3136   49.9984 C   0  0  0  0  0  0  0  0  0  0  0  0
   64.7933   32.3103   49.8443 Cl  0  0  0  0  0  0  0  0  0  0  0  0
   62.3897   32.8146   51.1494 C   0  0  0  0  0  0  0  0  0  0  0  0
   60.9810   32.7897   51.2016 C   0  0  0  0  0  0  0  0  0  0  0  0
   63.1910   33.3761   52.3054 C   0  0  0  0  0  0  0  0  0  0  0  0
   63.8896   34.4930   51.8864 F   0  0  0  0  0  0  0  0  0  0  0  0
   62.3350   33.7308   53.3324 F   0  0  0  0  0  0  0  0  0  0  0  0
   64.1006   32.4543   52.7973 F   0  0  0  0  0  0  0  0  0  0  0  0
  1 14  1  0
 14 15  1  0
 15 16  1  0
 16 17  2  0
 16 18  1  0
 18 19  1  0
 19 20  1  0
  1  2  2  0
  2  3  1  0
  3  4  2  0
  4  5  1  0
  5  6  1  0
  6  7  2  0
  7 21  1  0
 21 22  1  0
 22 23  1  0
  6  8  1  0
  8  9  1  0
  9 10  2  0
 10 24  1  0
 24 25  1  0
 25 26  2  0
 26 27  1  0
 27 28  2  0
 28 29  1  0
 28 30  1  0
 30 32  1  0
 32 33  1  0
 32 34  1  0
 32 35  1  0
 30 31  2  0
  9 11  1  0
 11 12  2  0
 19 14  2  0
 12  2  1  0
 12  5  1  0
 23 21  1  0
 31 25  1  0
  4 13  1  0
M  CHG 1   4   1
M  CHG 1   8  -1
M  CHG 1  15  -1
M  CHG 1  18  -1
M  CHG 1  20  -1
M  END
> <UniqueID>
65

> <SMILES>
O=c1[n-]c([O-])c(C=c2c[nH+]n3/c(=N\C4CC4)[n-]c(=NCc4ccc(Cl)c(C(F)(F)F)c4)nc23)[n-]1

> <Energy>
430.65642149873673

> <Genealogy>
O=c1[n-]c([O-])c(C=c2c[nH+]n3c(=NC4CC4)[n-]c(=NCc4ccc(Cl)c(C(F)(F)F)c4)nc23)[n-]1 (protonated)
O=c1[n-]c([O-])c(C=c2c[nH+]n3/c(=N\C4CC4)[n-]c(=NCc4ccc(Cl)c(C(F)(F)F)c4)nc23)[n-]1 (cis-trans isomerization)
O=c1[n-]c([O-])c(C=c2c[nH+]n3/c(=N\C4CC4)[n-]c(=NCc4ccc(Cl)c(C(F)(F)F)c4)nc23)[n-]1 (3D coordinates assigned)
O=c1[n-]c([O-])c(C=c2c[nH+]n3/c(=N\C4CC4)[n-]c(=NCc4ccc(Cl)c(C(F)(F)F)c4)nc23)[n-]1 (nonaromatic ring conformer: 430.65642149873673 kcal/mol)

> <smiles>
O=c1[nH]c(O)c(C=c2cnn3c(=NC4CC4)[nH]c(=NCc4ccc(Cl)c(C(F)(F)F)c4)nc23)[nH]1

> <score_type>
oracle

> <origin>
adg

> <m_score__min__energy>
-17.620000000000001

> <m_primary>
energy

> <minimizedAffinity>
-6.10926

> <minimizedRMSD>
0.97533

> <CNNscore>
0.0402920134

> <CNNaffinity>
5.3907012939

> <CNN_VS>
0.2172022164

> <CNNaffinity_variance>
0.3153530657

$$$$
70:0


 22 23  0  0  0  0  0  0  0  0999 V2000
   58.6944   28.0931   45.0421 C   0  0  0  0  0  0  0  0  0  0  0  0
   59.9795   28.2723   45.5866 C   0  0  0  0  0  0  0  0  0  0  0  0
   60.4744   27.3774   46.5386 C   0  0  0  0  0  0  0  0  0  0  0  0
   59.6984   26.2943   46.9556 C   0  0  0  0  0  0  0  0  0  0  0  0
   58.4209   26.0899   46.4154 C   0  0  0  0  0  0  0  0  0  0  0  0
   57.9257   26.9939   45.4608 C   0  0  0  0  0  0  0  0  0  0  0  0
   58.1484   28.9924   44.0584 N   0  0  0  0  0  0  0  0  0  0  0  0
   58.2483   28.7493   43.1097 H   0  0  0  0  0  0  0  0  0  0  0  0
   57.7604   31.7321   43.2468 C   0  0  0  0  0  0  0  0  0  0  0  0
   57.3266   30.4749   44.4301 S   0  0  0  0  0  0  0  0  0  0  0  0
   57.7543   30.9365   45.7945 O   0  0  0  0  0  0  0  0  0  0  0  0
   55.8394   30.2529   44.4415 O   0  0  0  0  0  0  0  0  0  0  0  0
   57.5693   24.9405   46.8871 C   0  0  0  0  0  0  0  0  0  0  0  0
   57.2099   24.0357   45.7305 C   0  0  0  0  0  0  0  0  0  0  0  0
   55.9061   24.0144   45.2042 C   0  0  0  0  0  0  0  0  0  0  0  0
   54.9182   24.8520   45.7102 O   0  0  0  0  0  0  0  0  0  0  0  0
   55.5972   23.1694   44.1866 N   0  0  0  0  0  0  0  0  0  0  0  0
   56.5273   22.3329   43.6624 C   0  0  0  0  0  0  0  0  0  0  0  0
   56.2163   21.5584   42.7192 O   0  0  0  0  0  0  0  0  0  0  0  0
   57.7909   22.3284   44.1540 N   0  0  0  0  0  0  0  0  0  0  0  0
   58.1542   23.1530   45.1696 C   0  0  0  0  0  0  0  0  0  0  0  0
   59.3368   23.1166   45.5997 O   0  0  0  0  0  0  0  0  0  0  0  0
  9 10  1  0
 10 11  2  0
 10 12  2  0
 10  7  1  0
  7  1  1  0
  1  2  2  0
  2  3  1  0
  3  4  2  0
  4  5  1  0
  5 13  1  0
 13 14  1  0
 14 15  2  0
 15 16  1  0
 15 17  1  0
 17 18  1  0
 18 19  2  0
 18 20  1  0
 20 21  1  0
 21 22  2  0
  5  6  2  0
  6  1  1  0
 21 14  1  0
  7  8  1  0
M  CHG 1  16  -1
M  CHG 1  17  -1
M  CHG 1  20  -1
M  END
> <UniqueID>
66

> <SMILES>
CS(=O)(=O)Nc1cccc(Cc2c([O-])[n-]c(=O)[n-]c2=O)c1

> <Energy>
32.03994221492681

> <Genealogy>
CS(=O)(=O)Nc1cccc(Cc2c([O-])[n-]c(=O)[n-]c2=O)c1 (protonated)
CS(=O)(=O)Nc1cccc(Cc2c([O-])[n-]c(=O)[n-]c2=O)c1 (3D coordinates assigned)
CS(=O)(=O)Nc1cccc(Cc2c([O-])[n-]c(=O)[n-]c2=O)c1 (optimized conformer: 32.03994221492681 kcal/mol)

> <smiles>
CS(=O)(=O)Nc1cccc(Cc2c(O)[nH]c(=O)[nH]c2=O)c1

> <score_type>
oracle

> <origin>
adg

> <m_score__min__energy>
-14.51

> <m_primary>
energy

> <minimizedAffinity>
-8.07461

> <minimizedRMSD>
1.82998

> <CNNscore>
0.4957737029

> <CNNaffinity>
6.3146271706

> <CNN_VS>
3.1306262016

> <CNNaffinity_variance>
0.5218374133

$$$$
34:0


 26 28  0  0  0  0  0  0  0  0999 V2000
   57.3858   27.5450   46.1307 N   0  0  0  0  0  0  0  0  0  0  0  0
   58.0622   28.6428   46.3100 C   0  0  0  0  0  0  0  0  0  0  0  0
   59.0281   28.7043   47.2707 N   0  0  0  0  0  0  0  0  0  0  0  0
   59.7515   29.8307   47.4850 C   0  0  0  0  0  0  0  0  0  0  0  0
   60.7436   29.8654   48.4727 C   0  0  0  0  0  0  0  0  0  0  0  0
   61.4790   31.0369   48.6782 C   0  0  0  0  0  0  0  0  0  0  0  0
   61.2260   32.1731   47.8993 C   0  0  0  0  0  0  0  0  0  0  0  0
   60.2355   32.1415   46.9101 C   0  0  0  0  0  0  0  0  0  0  0  0
   59.4983   30.9703   46.7024 C   0  0  0  0  0  0  0  0  0  0  0  0
   58.5331   30.9191   45.7488 N   0  0  0  0  0  0  0  0  0  0  0  0
   57.8003   29.7928   45.5236 C   0  0  0  0  0  0  0  0  0  0  0  0
   57.1767   25.0622   45.8993 C   0  0  0  0  0  0  0  0  0  0  0  0
   57.8202   23.8280   45.6890 C   0  0  0  0  0  0  0  0  0  0  0  0
   59.2142   23.7525   45.6179 C   0  0  0  0  0  0  0  0  0  0  0  0
   59.8331   22.5252   45.4175 O   0  0  0  0  0  0  0  0  0  0  0  0
   59.9836   24.9072   45.7563 C   0  0  0  0  0  0  0  0  0  0  0  0
   59.3646   26.1421   45.9481 C   0  0  0  0  0  0  0  0  0  0  0  0
   57.9671   26.2387   45.9955 C   0  0  0  0  0  0  0  0  0  0  0  0
   54.9862   26.3155   45.9723 N   0  0  0  0  0  0  0  0  0  0  0  0
   55.7021   25.0836   46.0613 C   0  0  0  0  0  0  0  0  0  0  0  0
   55.0613   24.0150   46.2525 O   0  0  0  0  0  0  0  0  0  0  0  0
   54.0077   26.3250   46.0804 H   0  0  0  0  0  0  0  0  0  0  0  0
   56.7692   29.8320   44.4589 C   0  0  0  0  0  0  0  0  0  0  0  0
   57.0382   30.2571   43.3034 O   0  0  0  0  0  0  0  0  0  0  0  0
   55.4467   29.3833   44.7436 N   0  0  0  0  0  0  0  0  0  0  0  0
   55.2232   29.0488   45.6422 H   0  0  0  0  0  0  0  0  0  0  0  0
 19 20  1  0
 20 21  2  0
 20 12  1  0
 12 13  2  0
 13 14  1  0
 14 15  1  0
 14 16  2  0
 16 17  1  0
 17 18  2  0
 18  1  1  0
  1  2  2  0
  2  3  1  0
  3  4  1  0
  4  5  2  0
  5  6  1  0
  6  7  2  0
  7  8  1  0
  8  9  2  0
  9 10  1  0
 10 11  2  0
 11 23  1  0
 23 24  2  0
 23 25  1  0
 18 12  1  0
 11  2  1  0
  9  4  1  0
 19 22  1  0
 25 26  1  0
M  CHG 1   3  -1
M  CHG 1  15  -1
M  CHG 1  19  -1
M  CHG 1  25  -1
M  END
> <UniqueID>
32

> <SMILES>
[NH-]C(=O)c1cc([O-])ccc1/N=c1\[n-]c2ccccc2nc1C([NH-])=O

> <Energy>
52.01338699790154

> <Genealogy>
[NH-]C(=O)c1cc([O-])ccc1N=c1[n-]c2ccccc2nc1C([NH-])=O (protonated)
[NH-]C(=O)c1cc([O-])ccc1/N=c1\[n-]c2ccccc2nc1C([NH-])=O (cis-trans isomerization)
[NH-]C(=O)c1cc([O-])ccc1/N=c1\[n-]c2ccccc2nc1C([NH-])=O (3D coordinates assigned)
[NH-]C(=O)c1cc([O-])ccc1/N=c1\[n-]c2ccccc2nc1C([NH-])=O (optimized conformer: 52.01338699790154 kcal/mol)

> <smiles>
NC(=O)c1cc(O)ccc1N=c1[nH]c2ccccc2nc1C(N)=O

> <score_type>
oracle

> <origin>
adg

> <m_score__min__energy>
-16.719999999999999

> <m_primary>
energy

> <minimizedAffinity>
-8.24859

> <minimizedRMSD>
0.79080

> <CNNscore>
0.5591868758

> <CNNaffinity>
6.3886628151

> <CNN_VS>
3.5724563599

> <CNNaffinity_variance>
0.0956218839

$$$$
20:0


 26 28  0  0  0  0  0  0  0  0999 V2000
   59.2291   31.9573   50.9927 C   0  0  0  0  0  0  0  0  0  0  0  0
   58.9316   33.0614   51.8118 C   0  0  0  0  0  0  0  0  0  0  0  0
   57.8604   33.0097   52.7046 C   0  0  0  0  0  0  0  0  0  0  0  0
   57.0855   31.8525   52.8057 C   0  0  0  0  0  0  0  0  0  0  0  0
   57.3933   30.7279   52.0244 C   0  0  0  0  0  0  0  0  0  0  0  0
   58.4522   30.7922   51.1107 C   0  0  0  0  0  0  0  0  0  0  0  0
   59.4834   35.2804   46.1552 C   0  0  0  0  0  0  0  0  0  0  0  0
   59.6995   33.8245   46.1979 N   0  0  0  0  0  0  0  0  0  0  0  0
   61.0842   33.4959   46.6134 C   0  0  0  0  0  0  0  0  0  0  0  0
   61.2382   33.3792   48.1396 C   0  0  0  0  0  0  0  0  0  0  0  0
   60.2142   32.4955   48.7083 N   0  0  0  0  0  0  0  0  0  0  0  0
   60.3695   32.0024   50.0496 C   0  0  0  0  0  0  0  0  0  0  0  0
   61.5061   31.6172   50.4396 O   0  0  0  0  0  0  0  0  0  0  0  0
   59.1430   31.9959   47.8431 C   0  0  0  0  0  0  0  0  0  0  0  0
   58.6261   33.1460   46.9708 C   0  0  0  0  0  0  0  0  0  0  0  0
   56.6291   29.5175   52.1175 N   0  0  0  0  0  0  0  0  0  0  0  0
   55.7068   29.1859   53.1654 C   0  0  0  0  0  0  0  0  0  0  0  0
   56.1262   29.1224   54.3493 O   0  0  0  0  0  0  0  0  0  0  0  0
   54.3220   28.9237   52.9032 N   0  0  0  0  0  0  0  0  0  0  0  0
   53.2807   29.9080   52.8182 C   0  0  0  0  0  0  0  0  0  0  0  0
   52.4715   30.1376   53.9379 C   0  0  0  0  0  0  0  0  0  0  0  0
   51.4430   31.0832   53.8833 C   0  0  0  0  0  0  0  0  0  0  0  0
   51.2277   31.8175   52.7136 C   0  0  0  0  0  0  0  0  0  0  0  0
   50.2027   32.7543   52.6580 O   0  0  0  0  0  0  0  0  0  0  0  0
   52.0470   31.6121   51.5998 C   0  0  0  0  0  0  0  0  0  0  0  0
   53.0774   30.6677   51.6524 C   0  0  0  0  0  0  0  0  0  0  0  0
  7  8  1  0
  8  9  1  0
  9 10  1  0
 10 11  1  0
 11 12  1  0
 12 13  2  0
 12  1  1  0
  1  2  2  0
  2  3  1  0
  3  4  2  0
  4  5  1  0
  5 16  1  0
 16 17  1  0
 17 18  2  0
 17 19  1  0
 19 20  1  0
 20 21  2  0
 21 22  1  0
 22 23  2  0
 23 24  1  0
 23 25  1  0
 25 26  2  0
  5  6  2  0
 11 14  1  0
 14 15  1  0
 15  8  1  0
  6  1  1  0
 26 20  1  0
M  CHG 1  16  -1
M  CHG 1  19  -1
M  CHG 1  24  -1
M  END
> <UniqueID>
19

> <SMILES>
CN1CCN(C(=O)c2cccc([N-]C(=O)[N-]c3ccc([O-])cc3)c2)CC1

> <Energy>
65.57200194532254

> <Genealogy>
CN1CCN(C(=O)c2cccc([N-]C(=O)[N-]c3ccc([O-])cc3)c2)CC1 (protonated)
CN1CCN(C(=O)c2cccc([N-]C(=O)[N-]c3ccc([O-])cc3)c2)CC1 (3D coordinates assigned)
CN1CCN(C(=O)c2cccc([N-]C(=O)[N-]c3ccc([O-])cc3)c2)CC1 (nonaromatic ring conformer: 65.57200194532254 kcal/mol)

> <smiles>
CN1CCN(C(=O)c2cccc(NC(=O)Nc3ccc(O)cc3)c2)CC1

> <score_type>
oracle

> <origin>
adg

> <m_score__min__energy>
-14.609999999999999

> <m_primary>
energy

> <minimizedAffinity>
-6.62278

> <minimizedRMSD>
1.07882

> <CNNscore>
0.1265489310

> <CNNaffinity>
4.4161643982

> <CNN_VS>
0.5588608980

> <CNNaffinity_variance>
0.6861518025

$$$$
79:0


 26 28  0  0  0  0  0  0  0  0999 V2000
   58.1773   27.2157   46.0436 C   0  0  0  0  0  0  0  0  0  0  0  0
   59.5674   27.3131   46.1732 C   0  0  0  0  0  0  0  0  0  0  0  0
   60.2451   28.4311   45.6806 C   0  0  0  0  0  0  0  0  0  0  0  0
   59.5374   29.4668   45.0684 C   0  0  0  0  0  0  0  0  0  0  0  0
   58.1434   29.3894   44.9471 C   0  0  0  0  0  0  0  0  0  0  0  0
   57.4643   28.2677   45.4410 C   0  0  0  0  0  0  0  0  0  0  0  0
   57.2369   30.6983   44.1973 S   0  0  0  0  0  0  0  0  0  0  0  0
   58.0004   31.2005   43.0053 O   0  0  0  0  0  0  0  0  0  0  0  0
   55.8852   30.2189   43.7416 O   0  0  0  0  0  0  0  0  0  0  0  0
   57.0232   31.9984   45.3234 N   0  0  0  0  0  0  0  0  0  0  0  0
   58.0704   32.8426   45.8184 C   0  0  0  0  0  0  0  0  0  0  0  0
   58.5451   33.9520   45.0920 C   0  0  0  0  0  0  0  0  0  0  0  0
   59.5772   34.7417   45.6107 C   0  0  0  0  0  0  0  0  0  0  0  0
   60.1459   34.4287   46.8476 C   0  0  0  0  0  0  0  0  0  0  0  0
   59.6812   33.3278   47.5710 C   0  0  0  0  0  0  0  0  0  0  0  0
   58.6425   32.5425   47.0612 C   0  0  0  0  0  0  0  0  0  0  0  0
   57.5094   26.0690   46.5880 N   0  0  0  0  0  0  0  0  0  0  0  0
   55.2479   25.7164   46.2315 O   0  0  0  0  0  0  0  0  0  0  0  0
   56.4273   25.3529   45.9778 C   0  0  0  0  0  0  0  0  0  0  0  0
   56.6538   24.1675   45.1147 C   0  0  0  0  0  0  0  0  0  0  0  0
   57.8033   23.3721   45.2567 C   0  0  0  0  0  0  0  0  0  0  0  0
   57.9684   22.2312   44.4681 C   0  0  0  0  0  0  0  0  0  0  0  0
   56.9770   21.8874   43.5464 C   0  0  0  0  0  0  0  0  0  0  0  0
   57.1011   20.8555   42.8376 O   0  0  0  0  0  0  0  0  0  0  0  0
   55.8710   22.6659   43.4175 N   0  0  0  0  0  0  0  0  0  0  0  0
   55.6874   23.7815   44.1712 C   0  0  0  0  0  0  0  0  0  0  0  0
 18 19  2  0
 19 17  1  0
 17  1  1  0
  1  2  2  0
  2  3  1  0
  3  4  2  0
  4  5  1  0
  5  7  1  0
  7  8  2  0
  7  9  2  0
  7 10  1  0
 10 11  1  0
 11 12  2  0
 12 13  1  0
 13 14  2  0
 14 15  1  0
 15 16  2  0
  5  6  2  0
 19 20  1  0
 20 21  1  0
 21 22  2  0
 22 23  1  0
 23 24  2  0
 23 25  1  0
 25 26  1  0
  6  1  1  0
 26 20  2  0
 16 11  1  0
M  CHG 1  10  -1
M  CHG 1  17  -1
M  CHG 1  25  -1
M  END
> <UniqueID>
73

> <SMILES>
O=C([N-]c1cccc(S(=O)(=O)[N-]c2ccccc2)c1)c1ccc(=O)[n-]c1

> <Energy>
48.15786515077588

> <Genealogy>
O=C([N-]c1cccc(S(=O)(=O)[N-]c2ccccc2)c1)c1ccc(=O)[n-]c1 (protonated)
O=C([N-]c1cccc(S(=O)(=O)[N-]c2ccccc2)c1)c1ccc(=O)[n-]c1 (3D coordinates assigned)
O=C([N-]c1cccc(S(=O)(=O)[N-]c2ccccc2)c1)c1ccc(=O)[n-]c1 (optimized conformer: 48.15786515077588 kcal/mol)

> <smiles>
O=C(Nc1cccc(S(=O)(=O)Nc2ccccc2)c1)c1ccc(=O)[nH]c1

> <score_type>
oracle

> <origin>
adg

> <m_score__min__energy>
-14.109999999999999

> <m_primary>
energy

> <minimizedAffinity>
-8.92844

> <minimizedRMSD>
0.55527

> <CNNscore>
0.6844562292

> <CNNaffinity>
6.9237098694

> <CNN_VS>
4.7389764786

> <CNNaffinity_variance>
0.1637940556

$$$$
63:0


 35 38  0  0  0  0  0  0  0  0999 V2000
   58.6014   31.6408   51.9552 C   0  0  0  0  0  0  0  0  0  0  0  0
   58.3144   32.8346   52.2407 O   0  0  0  0  0  0  0  0  0  0  0  0
   55.8356   29.3703   53.2284 N   0  0  0  0  0  0  0  0  0  0  0  0
   56.5606   28.3918   53.8472 C   0  0  0  0  0  0  0  0  0  0  0  0
   57.9505   28.4411   53.8641 C   0  0  0  0  0  0  0  0  0  0  0  0
   58.6071   29.4980   53.2434 C   0  0  0  0  0  0  0  0  0  0  0  0
   57.8778   30.5145   52.6076 C   0  0  0  0  0  0  0  0  0  0  0  0
   56.4630   30.4301   52.6191 C   0  0  0  0  0  0  0  0  0  0  0  0
   55.7737   31.3399   52.0800 O   0  0  0  0  0  0  0  0  0  0  0  0
   52.2010   30.2531   52.8161 C   0  0  0  0  0  0  0  0  0  0  0  0
   51.5992   29.0448   53.2072 C   0  0  0  0  0  0  0  0  0  0  0  0
   52.3847   27.9581   53.5988 C   0  0  0  0  0  0  0  0  0  0  0  0
   53.7764   28.0639   53.6070 C   0  0  0  0  0  0  0  0  0  0  0  0
   54.3977   29.2640   53.2261 C   0  0  0  0  0  0  0  0  0  0  0  0
   53.6046   30.3528   52.8271 C   0  0  0  0  0  0  0  0  0  0  0  0
   50.4756   31.8589   53.1541 O   0  0  0  0  0  0  0  0  0  0  0  0
   51.3747   31.4068   52.3959 C   0  0  0  0  0  0  0  0  0  0  0  0
   51.5790   32.0083   51.1594 O   0  0  0  0  0  0  0  0  0  0  0  0
   59.5963   31.3685   50.9567 N   0  0  0  0  0  0  0  0  0  0  0  0
   59.3569   30.9650   49.6007 C   0  0  0  0  0  0  0  0  0  0  0  0
   59.2231   31.8996   48.5563 C   0  0  0  0  0  0  0  0  0  0  0  0
   59.0100   31.4635   47.2458 C   0  0  0  0  0  0  0  0  0  0  0  0
   58.9414   30.0937   46.9592 C   0  0  0  0  0  0  0  0  0  0  0  0
   59.1021   29.1630   47.9935 C   0  0  0  0  0  0  0  0  0  0  0  0
   59.3162   29.5980   49.3043 C   0  0  0  0  0  0  0  0  0  0  0  0
   58.6522   29.5306   45.3165 S   0  0  0  0  0  0  0  0  0  0  0  0
   58.2956   30.6773   44.4122 O   0  0  0  0  0  0  0  0  0  0  0  0
   59.9006   28.8729   44.7992 O   0  0  0  0  0  0  0  0  0  0  0  0
   57.3545   28.3784   45.3129 N   0  0  0  0  0  0  0  0  0  0  0  0
   57.4901   27.1389   45.6760 C   0  0  0  0  0  0  0  0  0  0  0  0
   58.7582   26.5462   45.6427 C   0  0  0  0  0  0  0  0  0  0  0  0
   58.9012   25.2138   46.0401 C   0  0  0  0  0  0  0  0  0  0  0  0
   57.7852   24.4903   46.4615 C   0  0  0  0  0  0  0  0  0  0  0  0
   56.5350   25.1119   46.4803 C   0  0  0  0  0  0  0  0  0  0  0  0
   56.4149   26.4099   46.0910 N   0  0  0  0  0  0  0  0  0  0  0  0
 16 17  2  0
 17 18  1  0
 17 10  1  0
 10 11  2  0
 11 12  1  0
 12 13  2  0
 13 14  1  0
 14  3  1  0
  3  4  1  0
  4  5  2  0
  5  6  1  0
  6  7  2  0
  7  1  1  0
  1  2  2  0
  1 19  1  0
 19 20  1  0
 20 21  2  0
 21 22  1  0
 22 23  2  0
 23 26  1  0
 26 27  2  0
 26 28  2  0
 26 29  1  0
 29 30  2  0
 30 31  1  0
 31 32  2  0
 32 33  1  0
 33 34  2  0
 34 35  1  0
 23 24  1  0
 24 25  2  0
  7  8  1  0
  8  9  2  0
 14 15  2  0
 15 10  1  0
  8  3  1  0
 25 20  1  0
 35 30  1  0
M  CHG 1  18  -1
M  CHG 1  19  -1
M  CHG 1  35  -1
M  END
> <UniqueID>
60

> <SMILES>
O=C([O-])c1cccc(-n2cccc(C(=O)[N-]c3ccc(S(=O)(=O)N=c4cccc[n-]4)cc3)c2=O)c1

> <Energy>
74.85965628512373

> <Genealogy>
O=C([O-])c1cccc(-n2cccc(C(=O)[N-]c3ccc(S(=O)(=O)N=c4cccc[n-]4)cc3)c2=O)c1 (protonated)
O=C([O-])c1cccc(-n2cccc(C(=O)[N-]c3ccc(S(=O)(=O)N=c4cccc[n-]4)cc3)c2=O)c1 (3D coordinates assigned)
O=C([O-])c1cccc(-n2cccc(C(=O)[N-]c3ccc(S(=O)(=O)N=c4cccc[n-]4)cc3)c2=O)c1 (optimized conformer: 74.85965628512373 kcal/mol)

> <smiles>
O=C(O)c1cccc(-n2cccc(C(=O)Nc3ccc(S(=O)(=O)N=c4cccc[nH]4)cc3)c2=O)c1

> <score_type>
oracle

> <origin>
adg

> <m_score__min__energy>
-15.66

> <m_primary>
energy

> <minimizedAffinity>
-8.13944

> <minimizedRMSD>
1.17617

> <CNNscore>
0.1499584466

> <CNNaffinity>
5.7446999550

> <CNN_VS>
0.8614662886

> <CNNaffinity_variance>
0.3194192946

$$$$
64:0


 29 31  0  0  0  0  0  0  0  0999 V2000
   57.1770   25.2497   46.3978 N   0  0  0  0  0  0  0  0  0  0  0  0
   57.6613   26.4005   46.0375 C   0  0  0  0  0  0  0  0  0  0  0  0
   59.0018   26.6011   46.0824 N   0  0  0  0  0  0  0  0  0  0  0  0
   59.5464   27.7955   45.7357 C   0  0  0  0  0  0  0  0  0  0  0  0
   58.7252   28.8551   45.3270 C   0  0  0  0  0  0  0  0  0  0  0  0
   57.3392   28.6302   45.2953 C   0  0  0  0  0  0  0  0  0  0  0  0
   56.4601   29.6320   44.8982 O   0  0  0  0  0  0  0  0  0  0  0  0
   56.8416   27.4179   45.6507 N   0  0  0  0  0  0  0  0  0  0  0  0
   56.1511   23.3093   45.2849 C   0  0  0  0  0  0  0  0  0  0  0  0
   56.2771   22.1013   44.5814 C   0  0  0  0  0  0  0  0  0  0  0  0
   57.5411   21.5951   44.2702 C   0  0  0  0  0  0  0  0  0  0  0  0
   58.6881   22.2822   44.6670 C   0  0  0  0  0  0  0  0  0  0  0  0
   58.5789   23.4850   45.3716 C   0  0  0  0  0  0  0  0  0  0  0  0
   59.7354   24.1252   45.8022 O   0  0  0  0  0  0  0  0  0  0  0  0
   57.3083   24.0234   45.6618 C   0  0  0  0  0  0  0  0  0  0  0  0
   54.6120   25.6629   45.7555 N   0  0  0  0  0  0  0  0  0  0  0  0
   54.5454   23.9386   45.6667 S   0  0  0  0  0  0  0  0  0  0  0  0
   54.0693   23.4011   46.9869 O   0  0  0  0  0  0  0  0  0  0  0  0
   53.5780   23.5225   44.5938 O   0  0  0  0  0  0  0  0  0  0  0  0
   53.6855   26.0280   45.9759 H   0  0  0  0  0  0  0  0  0  0  0  0
   59.3289   30.1912   44.9703 C   0  0  0  0  0  0  0  0  0  0  0  0
   59.2650   31.1381   46.1457 C   0  0  0  0  0  0  0  0  0  0  0  0
   60.1649   30.9992   47.2217 C   0  0  0  0  0  0  0  0  0  0  0  0
   61.0774   29.9960   47.2382 F   0  0  0  0  0  0  0  0  0  0  0  0
   60.1249   31.8965   48.2925 C   0  0  0  0  0  0  0  0  0  0  0  0
   59.1950   32.9376   48.3035 C   0  0  0  0  0  0  0  0  0  0  0  0
   58.3004   33.0861   47.2409 C   0  0  0  0  0  0  0  0  0  0  0  0
   58.3326   32.1943   46.1642 C   0  0  0  0  0  0  0  0  0  0  0  0
   57.4509   32.3618   45.1462 F   0  0  0  0  0  0  0  0  0  0  0  0
 16 17  1  0
 17 18  2  0
 17 19  2  0
 17  9  1  0
  9 10  2  0
 10 11  1  0
 11 12  2  0
 12 13  1  0
 13 14  1  0
 13 15  2  0
 15  1  1  0
  1  2  2  0
  2  3  1  0
  3  4  2  0
  4  5  1  0
  5 21  1  0
 21 22  1  0
 22 23  2  0
 23 24  1  0
 23 25  1  0
 25 26  2  0
 26 27  1  0
 27 28  2  0
 28 29  1  0
  5  6  2  0
  6  7  1  0
  6  8  1  0
 15  9  1  0
  8  2  1  0
 28 22  1  0
 16 20  1  0
M  CHG 1   7  -1
M  CHG 1   8  -1
M  CHG 1  14  -1
M  CHG 1  16  -1
M  END
> <UniqueID>
61

> <SMILES>
[NH-]S(=O)(=O)c1cccc([O-])c1N=c1ncc(Cc2c(F)cccc2F)c([O-])[n-]1

> <Energy>
51.48042874490198

> <Genealogy>
[NH-]S(=O)(=O)c1cccc([O-])c1N=c1ncc(Cc2c(F)cccc2F)c([O-])[n-]1 (protonated)
[NH-]S(=O)(=O)c1cccc([O-])c1N=c1ncc(Cc2c(F)cccc2F)c([O-])[n-]1 (3D coordinates assigned)
[NH-]S(=O)(=O)c1cccc([O-])c1N=c1ncc(Cc2c(F)cccc2F)c([O-])[n-]1 (optimized conformer: 51.48042874490198 kcal/mol)

> <smiles>
NS(=O)(=O)c1cccc(O)c1N=c1ncc(Cc2c(F)cccc2F)c(O)[nH]1

> <score_type>
oracle

> <origin>
adg

> <m_score__min__energy>
-16.449999999999999

> <m_primary>
energy

> <minimizedAffinity>
-8.62163

> <minimizedRMSD>
0.89604

> <CNNscore>
0.6979234219

> <CNNaffinity>
6.9992585182

> <CNN_VS>
4.8849463463

> <CNNaffinity_variance>
0.1018157825

$$$$
41:0


 27 29  0  0  0  0  0  0  0  0999 V2000
   58.0324   30.9097   44.5452 C   0  0  0  0  0  0  0  0  0  0  0  0
   59.0432   30.4766   45.4212 C   0  0  0  0  0  0  0  0  0  0  0  0
   58.9320   29.2507   46.0828 C   0  0  0  0  0  0  0  0  0  0  0  0
   57.8245   28.4265   45.8662 C   0  0  0  0  0  0  0  0  0  0  0  0
   56.8012   28.8611   45.0070 C   0  0  0  0  0  0  0  0  0  0  0  0
   56.9094   30.0866   44.3433 C   0  0  0  0  0  0  0  0  0  0  0  0
   57.9561   32.2874   42.6065 O   0  0  0  0  0  0  0  0  0  0  0  0
   58.1530   32.2161   43.8495 C   0  0  0  0  0  0  0  0  0  0  0  0
   58.4141   33.4269   44.5744 N   0  0  0  0  0  0  0  0  0  0  0  0
   59.0326   33.5648   45.7148 C   0  0  0  0  0  0  0  0  0  0  0  0
   60.3862   33.7099   45.6854 N   0  0  0  0  0  0  0  0  0  0  0  0
   61.1311   33.8737   46.8106 C   0  0  0  0  0  0  0  0  0  0  0  0
   60.5136   33.8967   48.0577 C   0  0  0  0  0  0  0  0  0  0  0  0
   59.1327   33.7321   48.1373 C   0  0  0  0  0  0  0  0  0  0  0  0
   58.3736   33.5513   46.9739 C   0  0  0  0  0  0  0  0  0  0  0  0
   56.9999   33.3328   47.0847 O   0  0  0  0  0  0  0  0  0  0  0  0
   56.5927   33.3294   47.9285 H   0  0  0  0  0  0  0  0  0  0  0  0
   57.7401   27.1787   46.5705 N   0  0  0  0  0  0  0  0  0  0  0  0
   58.3774   25.9479   46.1990 C   0  0  0  0  0  0  0  0  0  0  0  0
   59.6320   25.8731   46.2676 O   0  0  0  0  0  0  0  0  0  0  0  0
   57.6090   24.7806   45.7056 C   0  0  0  0  0  0  0  0  0  0  0  0
   58.2995   23.6719   45.1865 C   0  0  0  0  0  0  0  0  0  0  0  0
   57.5988   22.5519   44.7303 C   0  0  0  0  0  0  0  0  0  0  0  0
   56.2045   22.5315   44.7785 C   0  0  0  0  0  0  0  0  0  0  0  0
   55.5052   23.6347   45.2718 C   0  0  0  0  0  0  0  0  0  0  0  0
   56.1976   24.7636   45.7253 C   0  0  0  0  0  0  0  0  0  0  0  0
   55.4762   25.8656   46.1706 O   0  0  0  0  0  0  0  0  0  0  0  0
  7  8  2  0
  8  9  1  0
  9 10  2  0
 10 11  1  0
 11 12  1  0
 12 13  2  0
 13 14  1  0
 14 15  2  0
 15 16  1  0
  8  1  1  0
  1  2  2  0
  2  3  1  0
  3  4  2  0
  4 18  1  0
 18 19  1  0
 19 20  2  0
 19 21  1  0
 21 22  2  0
 22 23  1  0
 23 24  2  0
 24 25  1  0
 25 26  2  0
 26 27  1  0
  4  5  1  0
  5  6  2  0
 15 10  1  0
  6  1  1  0
 26 21  1  0
 16 17  1  0
M  CHG 1  11  -1
M  CHG 1  18  -1
M  CHG 1  27  -1
M  END
> <UniqueID>
39

> <SMILES>
O=C(N=c1[n-]cccc1O)c1ccc([N-]C(=O)c2ccccc2[O-])cc1

> <Energy>
63.754042662873374

> <Genealogy>
O=C(N=c1[n-]cccc1O)c1ccc([N-]C(=O)c2ccccc2[O-])cc1 (protonated)
O=C(N=c1[n-]cccc1O)c1ccc([N-]C(=O)c2ccccc2[O-])cc1 (3D coordinates assigned)
O=C(N=c1[n-]cccc1O)c1ccc([N-]C(=O)c2ccccc2[O-])cc1 (optimized conformer: 63.754042662873374 kcal/mol)

> <smiles>
O=C(N=c1[nH]cccc1O)c1ccc(NC(=O)c2ccccc2O)cc1

> <score_type>
oracle

> <origin>
adg

> <m_score__min__energy>
-14.210000000000001

> <m_primary>
energy

> <minimizedAffinity>
-7.96832

> <minimizedRMSD>
0.93162

> <CNNscore>
0.2215084732

> <CNNaffinity>
6.2306671143

> <CNN_VS>
1.3801455498

> <CNNaffinity_variance>
0.0630462393

$$$$
67:0


 28 30  0  0  0  0  0  0  0  0999 V2000
   58.5344   31.4787   45.2148 C   0  0  0  0  0  0  0  0  0  0  0  0
   59.4638   30.4470   45.3893 C   0  0  0  0  0  0  0  0  0  0  0  0
   59.0693   29.1114   45.2729 C   0  0  0  0  0  0  0  0  0  0  0  0
   57.7358   28.7849   44.9953 C   0  0  0  0  0  0  0  0  0  0  0  0
   56.8043   29.8214   44.7872 C   0  0  0  0  0  0  0  0  0  0  0  0
   55.4907   29.5341   44.4322 O   0  0  0  0  0  0  0  0  0  0  0  0
   57.2003   31.1569   44.9092 C   0  0  0  0  0  0  0  0  0  0  0  0
   57.3619   27.4046   44.8772 N   0  0  0  0  0  0  0  0  0  0  0  0
   57.2319   26.5255   46.0055 C   0  0  0  0  0  0  0  0  0  0  0  0
   57.6133   26.8977   47.1482 O   0  0  0  0  0  0  0  0  0  0  0  0
   57.1859   27.0425   43.9788 H   0  0  0  0  0  0  0  0  0  0  0  0
   56.6831   25.1707   45.8318 C   0  0  0  0  0  0  0  0  0  0  0  0
   57.3259   24.1030   45.2416 C   0  0  0  0  0  0  0  0  0  0  0  0
   56.4140   23.0749   45.3252 C   0  0  0  0  0  0  0  0  0  0  0  0
   55.2965   23.5138   45.9340 N   0  0  0  0  0  0  0  0  0  0  0  0
   55.4590   24.7908   46.2430 N   0  0  0  0  0  0  0  0  0  0  0  0
   58.9792   32.8344   45.3590 N   0  0  0  0  0  0  0  0  0  0  0  0
   59.4182   33.5923   46.8564 S   0  0  0  0  0  0  0  0  0  0  0  0
   59.4498   35.0800   46.6534 O   0  0  0  0  0  0  0  0  0  0  0  0
   58.3746   33.2595   47.8869 O   0  0  0  0  0  0  0  0  0  0  0  0
   61.1791   31.9314   48.2360 C   0  0  0  0  0  0  0  0  0  0  0  0
   62.4651   31.5362   48.6325 C   0  0  0  0  0  0  0  0  0  0  0  0
   63.5860   32.2514   48.2077 C   0  0  0  0  0  0  0  0  0  0  0  0
   63.4317   33.3697   47.3879 C   0  0  0  0  0  0  0  0  0  0  0  0
   62.1561   33.7732   46.9860 C   0  0  0  0  0  0  0  0  0  0  0  0
   61.0199   33.0544   47.3926 C   0  0  0  0  0  0  0  0  0  0  0  0
   59.1384   30.5764   49.1052 N   0  0  0  0  0  0  0  0  0  0  0  0
   60.0462   31.1794   48.7174 C   0  0  0  0  0  0  0  0  0  0  0  0
 27 28  3  0
 28 21  1  0
 21 22  2  0
 22 23  1  0
 23 24  2  0
 24 25  1  0
 25 26  2  0
 26 18  1  0
 18 19  2  0
 18 20  2  0
 18 17  1  0
 17  1  1  0
  1  2  2  0
  2  3  1  0
  3  4  2  0
  4  8  1  0
  8  9  1  0
  9 10  2  0
  9 12  1  0
 12 13  1  0
 13 14  2  0
 14 15  1  0
 15 16  1  0
  4  5  1  0
  5  6  1  0
  5  7  2  0
 26 21  1  0
  7  1  1  0
 16 12  2  0
  8 11  1  0
M  CHG 1   6  -1
M  CHG 1  15  -1
M  CHG 1  17  -1
M  END
> <UniqueID>
60

> <SMILES>
N#Cc1ccccc1S(=O)(=O)[N-]c1ccc(NC(=O)c2cc[n-]n2)c([O-])c1

> <Energy>
77.53847169660573

> <Genealogy>
N#Cc1ccccc1S(=O)(=O)[N-]c1ccc(NC(=O)c2cc[n-]n2)c([O-])c1 (protonated)
N#Cc1ccccc1S(=O)(=O)[N-]c1ccc(NC(=O)c2cc[n-]n2)c([O-])c1 (3D coordinates assigned)
N#Cc1ccccc1S(=O)(=O)[N-]c1ccc(NC(=O)c2cc[n-]n2)c([O-])c1 (optimized conformer: 77.53847169660573 kcal/mol)

> <smiles>
N#Cc1ccccc1S(=O)(=O)Nc1ccc(NC(=O)c2cc[nH]n2)c(O)c1

> <score_type>
oracle

> <origin>
adg

> <m_score__min__energy>
-14.1

> <m_primary>
energy

> <minimizedAffinity>
-7.70617

> <minimizedRMSD>
0.73661

> <CNNscore>
0.3411522210

> <CNNaffinity>
6.6922626495

> <CNN_VS>
2.2830803394

> <CNNaffinity_variance>
0.1397402734

$$$$
87:0


 25 27  0  0  0  0  0  0  0  0999 V2000
   59.2596   29.1223   45.7803 C   0  0  0  0  0  0  0  0  0  0  0  0
   58.7466   30.2620   45.1415 C   0  0  0  0  0  0  0  0  0  0  0  0
   58.5288   31.4371   45.8659 C   0  0  0  0  0  0  0  0  0  0  0  0
   58.8107   31.4923   47.2357 C   0  0  0  0  0  0  0  0  0  0  0  0
   59.3079   30.3451   47.8813 C   0  0  0  0  0  0  0  0  0  0  0  0
   59.5276   29.1690   47.1572 C   0  0  0  0  0  0  0  0  0  0  0  0
   59.4584   27.8470   45.0092 C   0  0  0  0  0  0  0  0  0  0  0  0
   57.8066   23.7241   46.6362 O   0  0  0  0  0  0  0  0  0  0  0  0
   57.8308   24.9182   46.2403 C   0  0  0  0  0  0  0  0  0  0  0  0
   56.7141   25.6694   46.1283 N   0  0  0  0  0  0  0  0  0  0  0  0
   57.1939   26.8422   45.6802 C   0  0  0  0  0  0  0  0  0  0  0  0
   56.4003   27.9493   45.3948 O   0  0  0  0  0  0  0  0  0  0  0  0
   58.5593   26.7763   45.5450 C   0  0  0  0  0  0  0  0  0  0  0  0
   58.9753   25.5446   45.8894 N   0  0  0  0  0  0  0  0  0  0  0  0
   55.4724   27.9047   45.5171 H   0  0  0  0  0  0  0  0  0  0  0  0
   58.5761   32.7205   47.9364 N   0  0  0  0  0  0  0  0  0  0  0  0
   59.7356   33.9933   48.1395 S   0  0  0  0  0  0  0  0  0  0  0  0
   59.4014   34.7778   49.3768 O   0  0  0  0  0  0  0  0  0  0  0  0
   59.6772   34.9090   46.9485 O   0  0  0  0  0  0  0  0  0  0  0  0
   61.3527   33.3216   48.2622 C   0  0  0  0  0  0  0  0  0  0  0  0
   62.2320   33.3897   47.1756 C   0  0  0  0  0  0  0  0  0  0  0  0
   63.5085   32.8357   47.2940 C   0  0  0  0  0  0  0  0  0  0  0  0
   63.8922   32.2249   48.4891 C   0  0  0  0  0  0  0  0  0  0  0  0
   62.9873   32.1776   49.5535 C   0  0  0  0  0  0  0  0  0  0  0  0
   61.7480   32.7215   49.4185 N   0  0  0  0  0  0  0  0  0  0  0  0
  8  9  2  0
  9 10  1  0
 10 11  1  0
 11 12  1  0
 11 13  2  0
 13  7  1  0
  7  1  1  0
  1  2  2  0
  2  3  1  0
  3  4  2  0
  4 16  1  0
 16 17  1  0
 17 18  2  0
 17 19  2  0
 17 20  1  0
 20 21  2  0
 21 22  1  0
 22 23  2  0
 23 24  1  0
 24 25  2  0
  4  5  1  0
  5  6  2  0
 13 14  1  0
 14  9  1  0
  6  1  1  0
 25 20  1  0
 12 15  1  0
M  CHG 1  10  -1
M  CHG 1  14  -1
M  CHG 1  16  -1
M  END
> <UniqueID>
82

> <SMILES>
O=c1[n-]c(O)c(Cc2ccc([N-]S(=O)(=O)c3ccccn3)cc2)[n-]1

> <Energy>
67.89802912182735

> <Genealogy>
O=c1[n-]c(O)c(Cc2ccc([N-]S(=O)(=O)c3ccccn3)cc2)[n-]1 (protonated)
O=c1[n-]c(O)c(Cc2ccc([N-]S(=O)(=O)c3ccccn3)cc2)[n-]1 (3D coordinates assigned)
O=c1[n-]c(O)c(Cc2ccc([N-]S(=O)(=O)c3ccccn3)cc2)[n-]1 (optimized conformer: 67.89802912182735 kcal/mol)

> <smiles>
O=c1[nH]c(O)c(Cc2ccc(NS(=O)(=O)c3ccccn3)cc2)[nH]1

> <score_type>
oracle

> <origin>
adg

> <m_score__min__energy>
-14.09

> <m_primary>
energy

> <minimizedAffinity>
-7.22599

> <minimizedRMSD>
1.01758

> <CNNscore>
0.4954393208

> <CNNaffinity>
6.6591687202

> <CNN_VS>
3.2992141247

> <CNNaffinity_variance>
0.7286007404

$$$$
17:0


 27 29  0  0  0  0  0  0  0  0999 V2000
   60.6426   31.5117   48.4153 C   0  0  0  0  0  0  0  0  0  0  0  0
   61.9558   31.3545   48.7403 N   0  0  0  0  0  0  0  0  0  0  0  0
   62.9318   32.1085   48.1776 C   0  0  0  0  0  0  0  0  0  0  0  0
   62.5882   33.0853   47.2465 C   0  0  0  0  0  0  0  0  0  0  0  0
   63.4744   33.8075   46.7199 O   0  0  0  0  0  0  0  0  0  0  0  0
   61.2846   33.2558   46.9111 N   0  0  0  0  0  0  0  0  0  0  0  0
   60.2940   32.4909   47.4521 C   0  0  0  0  0  0  0  0  0  0  0  0
   59.0602   31.1444   50.1355 O   0  0  0  0  0  0  0  0  0  0  0  0
   59.6305   30.6851   49.1114 C   0  0  0  0  0  0  0  0  0  0  0  0
   59.2693   29.3710   48.6604 N   0  0  0  0  0  0  0  0  0  0  0  0
   59.9940   28.5688   47.6822 C   0  0  0  0  0  0  0  0  0  0  0  0
   59.9145   27.0857   48.0515 C   0  0  0  0  0  0  0  0  0  0  0  0
   59.0229   26.3479   47.0893 C   0  0  0  0  0  0  0  0  0  0  0  0
   59.5554   25.3585   46.2456 C   0  0  0  0  0  0  0  0  0  0  0  0
   58.7188   24.6503   45.3770 C   0  0  0  0  0  0  0  0  0  0  0  0
   57.3476   24.9172   45.3508 C   0  0  0  0  0  0  0  0  0  0  0  0
   56.8071   25.8901   46.1981 C   0  0  0  0  0  0  0  0  0  0  0  0
   55.4433   26.1496   46.1763 O   0  0  0  0  0  0  0  0  0  0  0  0
   57.6415   26.6012   47.0675 C   0  0  0  0  0  0  0  0  0  0  0  0
   58.8579   32.7259   47.0347 C   0  0  0  0  0  0  0  0  0  0  0  0
   58.6698   32.7266   45.5108 C   0  0  0  0  0  0  0  0  0  0  0  0
   58.1379   31.3979   45.0438 C   0  0  0  0  0  0  0  0  0  0  0  0
   58.9658   30.2624   45.0483 C   0  0  0  0  0  0  0  0  0  0  0  0
   58.4815   29.0351   44.5817 C   0  0  0  0  0  0  0  0  0  0  0  0
   57.1728   28.9381   44.0991 C   0  0  0  0  0  0  0  0  0  0  0  0
   56.3480   30.0659   44.0788 C   0  0  0  0  0  0  0  0  0  0  0  0
   56.8292   31.2928   44.5442 C   0  0  0  0  0  0  0  0  0  0  0  0
  8  9  2  0
  9 10  1  0
 10 11  1  0
 11 12  1  0
 12 13  1  0
 13 14  2  0
 14 15  1  0
 15 16  2  0
 16 17  1  0
 17 18  1  0
 17 19  2  0
  9  1  1  0
  1  2  1  0
  2  3  2  0
  3  4  1  0
  4  5  2  0
  4  6  1  0
  6  7  1  0
  7 20  1  0
 20 21  1  0
 21 22  1  0
 22 23  2  0
 23 24  1  0
 24 25  2  0
 25 26  1  0
 26 27  2  0
 19 13  1  0
  7  1  2  0
 27 22  1  0
M  CHG 1   6  -1
M  CHG 1  10  -1
M  CHG 1  18  -1
M  END
> <UniqueID>
16

> <SMILES>
O=C([N-]CCc1cccc([O-])c1)c1ncc(=O)[n-]c1CCc1ccccc1

> <Energy>
50.11366267365772

> <Genealogy>
O=C([N-]CCc1cccc([O-])c1)c1ncc(=O)[n-]c1CCc1ccccc1 (protonated)
O=C([N-]CCc1cccc([O-])c1)c1ncc(=O)[n-]c1CCc1ccccc1 (3D coordinates assigned)
O=C([N-]CCc1cccc([O-])c1)c1ncc(=O)[n-]c1CCc1ccccc1 (optimized conformer: 50.11366267365772 kcal/mol)

> <smiles>
O=C(NCCc1cccc(O)c1)c1ncc(=O)[nH]c1CCc1ccccc1

> <score_type>
oracle

> <origin>
adg

> <m_score__min__energy>
-14.48

> <m_primary>
energy

> <minimizedAffinity>
-6.89194

> <minimizedRMSD>
0.71687

> <CNNscore>
0.1656614542

> <CNNaffinity>
6.1110653877

> <CNN_VS>
1.0123679638

> <CNNaffinity_variance>
0.1343268305

$$$$
39:0


 22 24  0  0  0  0  0  0  0  0999 V2000
   59.1597   29.1787   45.7755 C   0  0  0  0  0  0  0  0  0  0  0  0
   59.7258   29.8211   46.8967 C   0  0  0  0  0  0  0  0  0  0  0  0
   60.0966   29.0551   48.0023 C   0  0  0  0  0  0  0  0  0  0  0  0
   59.9161   27.6993   48.0209 C   0  0  0  0  0  0  0  0  0  0  0  0
   59.3533   27.0340   46.9337 C   0  0  0  0  0  0  0  0  0  0  0  0
   58.9785   27.7748   45.8002 C   0  0  0  0  0  0  0  0  0  0  0  0
   60.3884   27.0894   49.2839 C   0  0  0  0  0  0  0  0  0  0  0  0
   60.8559   28.2911   50.1273 C   0  0  0  0  0  0  0  0  0  0  0  0
   60.7054   29.5534   49.2578 C   0  0  0  0  0  0  0  0  0  0  0  0
   58.7508   29.9108   44.6111 N   0  0  0  0  0  0  0  0  0  0  0  0
   57.6135   32.0408   43.0398 C   0  0  0  0  0  0  0  0  0  0  0  0
   57.4878   31.0968   44.5419 S   0  0  0  0  0  0  0  0  0  0  0  0
   57.5632   31.9942   45.7445 O   0  0  0  0  0  0  0  0  0  0  0  0
   56.1641   30.3850   44.5517 O   0  0  0  0  0  0  0  0  0  0  0  0
   58.2639   26.9182   44.3935 S   0  0  0  0  0  0  0  0  0  0  0  0
   57.6118   25.5941   45.4070 C   0  0  0  0  0  0  0  0  0  0  0  0
   58.3774   24.1159   45.6689 S   0  0  0  0  0  0  0  0  0  0  0  0
   57.1389   23.5654   46.6646 C   0  0  0  0  0  0  0  0  0  0  0  0
   57.1266   22.4348   47.2197 O   0  0  0  0  0  0  0  0  0  0  0  0
   56.1472   24.4707   46.8135 N   0  0  0  0  0  0  0  0  0  0  0  0
   56.4126   25.6036   46.1121 C   0  0  0  0  0  0  0  0  0  0  0  0
   55.5436   26.6858   46.1130 O   0  0  0  0  0  0  0  0  0  0  0  0
 11 12  1  0
 12 13  2  0
 12 14  2  0
 12 10  1  0
 10  1  1  0
  1  2  2  0
  2  3  1  0
  3  4  2  0
  4  5  1  0
  5  6  2  0
  6 15  1  0
 15 16  1  0
 16 17  1  0
 17 18  1  0
 18 19  2  0
 18 20  1  0
 20 21  1  0
 21 22  1  0
  4  7  1  0
  7  8  1  0
  8  9  1  0
  6  1  1  0
 21 16  2  0
  9  3  1  0
M  CHG 1  10  -1
M  CHG 1  20  -1
M  CHG 1  22  -1
M  END
> <UniqueID>
36

> <SMILES>
CS(=O)(=O)[N-]c1cc2c(cc1Sc1sc(=O)[n-]c1[O-])CCC2

> <Energy>
67.69022592975958

> <Genealogy>
CS(=O)(=O)[N-]c1cc2c(cc1Sc1sc(=O)[n-]c1[O-])CCC2 (protonated)
CS(=O)(=O)[N-]c1cc2c(cc1Sc1sc(=O)[n-]c1[O-])CCC2 (3D coordinates assigned)
CS(=O)(=O)[N-]c1cc2c(cc1Sc1sc(=O)[n-]c1[O-])CCC2 (nonaromatic ring conformer: 67.69022592975958 kcal/mol)

> <smiles>
CS(=O)(=O)Nc1cc2c(cc1Sc1sc(=O)[nH]c1O)CCC2

> <score_type>
oracle

> <origin>
adg

> <m_score__min__energy>
-15.09

> <m_primary>
energy

> <minimizedAffinity>
-6.65134

> <minimizedRMSD>
0.83117

> <CNNscore>
0.5666133761

> <CNNaffinity>
6.0800547600

> <CNN_VS>
3.4450404644

> <CNNaffinity_variance>
0.0396757424

$$$$
76:0


 33 35  0  0  0  0  0  0  0  0999 V2000
   60.7384   29.5395   48.1305 C   0  0  0  0  0  0  0  0  0  0  0  0
   60.6784   29.1430   46.7909 C   0  0  0  0  0  0  0  0  0  0  0  0
   60.0240   27.9597   46.4336 C   0  0  0  0  0  0  0  0  0  0  0  0
   59.4200   27.1550   47.4117 C   0  0  0  0  0  0  0  0  0  0  0  0
   59.5272   27.5337   48.7601 C   0  0  0  0  0  0  0  0  0  0  0  0
   60.1705   28.7208   49.1164 C   0  0  0  0  0  0  0  0  0  0  0  0
   58.7061   25.9161   47.0142 C   0  0  0  0  0  0  0  0  0  0  0  0
   57.6390   25.6039   47.6068 O   0  0  0  0  0  0  0  0  0  0  0  0
   59.1854   25.0621   45.9658 N   0  0  0  0  0  0  0  0  0  0  0  0
   58.3856   24.1739   45.1726 C   0  0  0  0  0  0  0  0  0  0  0  0
   58.4764   22.7992   45.4266 C   0  0  0  0  0  0  0  0  0  0  0  0
   57.6486   21.8974   44.7520 C   0  0  0  0  0  0  0  0  0  0  0  0
   56.7343   22.3589   43.8091 C   0  0  0  0  0  0  0  0  0  0  0  0
   56.6665   23.7237   43.5106 C   0  0  0  0  0  0  0  0  0  0  0  0
   57.5030   24.6408   44.1690 C   0  0  0  0  0  0  0  0  0  0  0  0
   57.4689   26.0195   43.7783 N   0  0  0  0  0  0  0  0  0  0  0  0
   56.8450   26.3171   43.0773 H   0  0  0  0  0  0  0  0  0  0  0  0
   58.0692   26.6687   44.2110 H   0  0  0  0  0  0  0  0  0  0  0  0
   61.4551   30.7967   48.5242 C   0  0  0  0  0  0  0  0  0  0  0  0
   61.1234   31.8688   47.5891 N   0  0  0  0  0  0  0  0  0  0  0  0
   59.8513   32.5136   47.4817 C   0  0  0  0  0  0  0  0  0  0  0  0
   59.4314   33.1653   48.4630 O   0  0  0  0  0  0  0  0  0  0  0  0
   57.6760   31.0436   44.7510 C   0  0  0  0  0  0  0  0  0  0  0  0
   57.5421   32.1463   43.8902 C   0  0  0  0  0  0  0  0  0  0  0  0
   58.1395   33.3551   44.2063 C   0  0  0  0  0  0  0  0  0  0  0  0
   58.8855   33.4858   45.3818 C   0  0  0  0  0  0  0  0  0  0  0  0
   59.0095   32.4046   46.2688 C   0  0  0  0  0  0  0  0  0  0  0  0
   58.4114   31.1773   45.9378 C   0  0  0  0  0  0  0  0  0  0  0  0
   55.2629   29.8001   43.9320 N   0  0  0  0  0  0  0  0  0  0  0  0
   56.9054   29.5199   44.3570 S   0  0  0  0  0  0  0  0  0  0  0  0
   57.6220   28.8914   43.2001 O   0  0  0  0  0  0  0  0  0  0  0  0
   56.9676   28.5921   45.5334 O   0  0  0  0  0  0  0  0  0  0  0  0
   54.8149   28.9130   43.7028 H   0  0  0  0  0  0  0  0  0  0  0  0
 29 30  1  0
 30 31  2  0
 30 32  2  0
 30 23  1  0
 23 24  2  0
 24 25  1  0
 25 26  2  0
 26 27  1  0
 27 21  1  0
 21 22  2  0
 21 20  1  0
 20 19  1  0
 19  1  1  0
  1  2  2  0
  2  3  1  0
  3  4  2  0
  4  7  1  0
  7  8  2  0
  7  9  1  0
  9 10  1  0
 10 11  2  0
 11 12  1  0
 12 13  2  0
 13 14  1  0
 14 15  2  0
 15 16  1  0
  4  5  1  0
  5  6  2  0
 27 28  2  0
 28 23  1  0
  6  1  1  0
 15 10  1  0
 29 33  1  0
 16 17  1  0
 16 18  1  0
M  CHG 1   9  -1
M  CHG 1  20  -1
M  CHG 1  29  -1
M  END
> <UniqueID>
69

> <SMILES>
[NH-]S(=O)(=O)c1cccc(C(=O)[N-]Cc2ccc(C(=O)[N-]c3ccccc3N)cc2)c1

> <Energy>
63.103892164559575

> <Genealogy>
[NH-]S(=O)(=O)c1cccc(C(=O)[N-]Cc2ccc(C(=O)[N-]c3ccccc3N)cc2)c1 (protonated)
[NH-]S(=O)(=O)c1cccc(C(=O)[N-]Cc2ccc(C(=O)[N-]c3ccccc3N)cc2)c1 (3D coordinates assigned)
[NH-]S(=O)(=O)c1cccc(C(=O)[N-]Cc2ccc(C(=O)[N-]c3ccccc3N)cc2)c1 (optimized conformer: 63.103892164559575 kcal/mol)

> <smiles>
Nc1ccccc1NC(=O)c1ccc(CNC(=O)c2cccc(S(N)(=O)=O)c2)cc1

> <score_type>
oracle

> <origin>
adg

> <m_score__min__energy>
-14.68

> <m_primary>
energy

> <minimizedAffinity>
-6.95884

> <minimizedRMSD>
0.54451

> <CNNscore>
0.7757295966

> <CNNaffinity>
7.2167220116

> <CNN_VS>
5.5982246399

> <CNNaffinity_variance>
0.0040671504

$$$$
84:0


 25 26  0  0  0  0  0  0  0  0999 V2000
   57.3188   29.4988   45.5974 N   0  0  0  0  0  0  0  0  0  0  0  0
   58.6229   28.7014   46.4246 S   0  0  0  0  0  0  0  0  0  0  0  0
   58.5369   29.0285   47.8880 O   0  0  0  0  0  0  0  0  0  0  0  0
   59.9351   29.2249   45.9134 O   0  0  0  0  0  0  0  0  0  0  0  0
   58.4637   26.9391   46.2292 C   0  0  0  0  0  0  0  0  0  0  0  0
   59.5513   26.0362   46.3384 C   0  0  0  0  0  0  0  0  0  0  0  0
   60.9533   26.4810   46.6416 C   0  0  0  0  0  0  0  0  0  0  0  0
   59.3344   24.7048   46.1587 N   0  0  0  0  0  0  0  0  0  0  0  0
   58.1025   24.2184   45.8619 C   0  0  0  0  0  0  0  0  0  0  0  0
   57.9375   22.9812   45.6970 O   0  0  0  0  0  0  0  0  0  0  0  0
   57.0513   25.0633   45.7351 N   0  0  0  0  0  0  0  0  0  0  0  0
   57.2024   26.4025   45.9060 C   0  0  0  0  0  0  0  0  0  0  0  0
   56.1986   27.1537   45.7678 O   0  0  0  0  0  0  0  0  0  0  0  0
   57.7780   29.9742   44.2941 C   0  0  0  0  0  0  0  0  0  0  0  0
   57.7471   31.4749   44.2629 C   0  0  0  0  0  0  0  0  0  0  0  0
   57.9368   32.0744   43.1698 O   0  0  0  0  0  0  0  0  0  0  0  0
   57.4839   32.2486   45.4410 N   0  0  0  0  0  0  0  0  0  0  0  0
   60.3147   33.8711   48.1630 C   0  0  0  0  0  0  0  0  0  0  0  0
   60.2428   34.3620   46.8533 C   0  0  0  0  0  0  0  0  0  0  0  0
   59.3193   33.8331   45.9471 C   0  0  0  0  0  0  0  0  0  0  0  0
   58.4626   32.7908   46.3364 C   0  0  0  0  0  0  0  0  0  0  0  0
   58.5249   32.3078   47.6496 C   0  0  0  0  0  0  0  0  0  0  0  0
   59.4468   32.8335   48.5585 C   0  0  0  0  0  0  0  0  0  0  0  0
   62.5212   33.8677   49.3377 C   0  0  0  0  0  0  0  0  0  0  0  0
   61.2532   34.4378   49.0359 O   0  0  0  0  0  0  0  0  0  0  0  0
 24 25  1  0
 25 18  1  0
 18 19  2  0
 19 20  1  0
 20 21  2  0
 21 17  1  0
 17 15  1  0
 15 16  2  0
 15 14  1  0
 14  1  1  0
  1  2  1  0
  2  3  2  0
  2  4  2  0
  2  5  1  0
  5  6  2  0
  6  7  1  0
  6  8  1  0
  8  9  1  0
  9 10  2  0
  9 11  1  0
 11 12  1  0
 12 13  2  0
 21 22  1  0
 22 23  2  0
 23 18  1  0
 12  5  1  0
M  CHG 1   1  -1
M  CHG 1   8  -1
M  CHG 1  11  -1
M  CHG 1  17  -1
M  END
> <UniqueID>
77

> <SMILES>
COc1ccc([N-]C(=O)C[N-]S(=O)(=O)c2c(C)[n-]c(=O)[n-]c2=O)cc1

> <Energy>
42.994198661231835

> <Genealogy>
COc1ccc([N-]C(=O)C[N-]S(=O)(=O)c2c(C)[n-]c(=O)[n-]c2=O)cc1 (protonated)
COc1ccc([N-]C(=O)C[N-]S(=O)(=O)c2c(C)[n-]c(=O)[n-]c2=O)cc1 (3D coordinates assigned)
COc1ccc([N-]C(=O)C[N-]S(=O)(=O)c2c(C)[n-]c(=O)[n-]c2=O)cc1 (optimized conformer: 42.994198661231835 kcal/mol)

> <smiles>
COc1ccc(NC(=O)CNS(=O)(=O)c2c(C)[nH]c(=O)[nH]c2=O)cc1

> <score_type>
oracle

> <origin>
adg

> <m_score__min__energy>
-14.52

> <m_primary>
energy

> <minimizedAffinity>
-6.79538

> <minimizedRMSD>
1.60417

> <CNNscore>
0.6347779632

> <CNNaffinity>
6.4209036827

> <CNN_VS>
4.0758481026

> <CNNaffinity_variance>
0.1746314615

$$$$
91:0


 33 36  0  0  0  0  0  0  0  0999 V2000
   59.2195   33.7871   45.4030 N   0  0  0  0  0  0  0  0  0  0  0  0
   59.8080   33.8349   46.7109 C   0  0  0  0  0  0  0  0  0  0  0  0
   59.2166   34.5646   47.7579 C   0  0  0  0  0  0  0  0  0  0  0  0
   59.7934   34.5572   49.0312 C   0  0  0  0  0  0  0  0  0  0  0  0
   60.9483   33.8094   49.2732 C   0  0  0  0  0  0  0  0  0  0  0  0
   61.5276   33.0562   48.2448 C   0  0  0  0  0  0  0  0  0  0  0  0
   60.9504   33.0672   46.9659 C   0  0  0  0  0  0  0  0  0  0  0  0
   62.9624   32.0883   48.5720 S   0  0  0  0  0  0  0  0  0  0  0  0
   63.6417   31.6892   47.2923 O   0  0  0  0  0  0  0  0  0  0  0  0
   63.9180   32.8994   49.4006 O   0  0  0  0  0  0  0  0  0  0  0  0
   62.5196   30.6580   49.4487 N   0  0  0  0  0  0  0  0  0  0  0  0
   61.2977   30.3236   49.7364 C   0  0  0  0  0  0  0  0  0  0  0  0
   60.6005   29.4236   49.0204 N   0  0  0  0  0  0  0  0  0  0  0  0
   59.4287   29.3365   49.5801 O   0  0  0  0  0  0  0  0  0  0  0  0
   59.3405   30.1330   50.6225 C   0  0  0  0  0  0  0  0  0  0  0  0
   58.1201   30.2926   51.4654 C   0  0  0  0  0  0  0  0  0  0  0  0
   60.5297   30.8129   50.7771 C   0  0  0  0  0  0  0  0  0  0  0  0
   57.8640   33.4390   45.0912 C   0  0  0  0  0  0  0  0  0  0  0  0
   57.0406   34.3623   44.8530 O   0  0  0  0  0  0  0  0  0  0  0  0
   57.3920   32.0082   45.0849 C   0  0  0  0  0  0  0  0  0  0  0  0
   58.4027   31.0933   44.3860 C   0  0  0  0  0  0  0  0  0  0  0  0
   60.5841   29.6312   45.8440 O   0  0  0  0  0  0  0  0  0  0  0  0
   59.3124   29.1059   45.6293 C   0  0  0  0  0  0  0  0  0  0  0  0
   58.8569   27.8769   46.0761 C   0  0  0  0  0  0  0  0  0  0  0  0
   57.5503   27.7728   45.6702 C   0  0  0  0  0  0  0  0  0  0  0  0
   57.2553   28.9384   44.9907 C   0  0  0  0  0  0  0  0  0  0  0  0
   56.0213   29.2519   44.4314 O   0  0  0  0  0  0  0  0  0  0  0  0
   58.3363   29.7470   44.9517 N   0  0  0  0  0  0  0  0  0  0  0  0
   56.6682   26.6057   45.9705 C   0  0  0  0  0  0  0  0  0  0  0  0
   57.4019   25.5330   46.7497 C   0  0  0  0  0  0  0  0  0  0  0  0
   58.6891   25.6351   47.1506 C   0  0  0  0  0  0  0  0  0  0  0  0
   59.5709   26.8357   46.8769 C   0  0  0  0  0  0  0  0  0  0  0  0
   61.2203   29.1374   46.3229 H   0  0  0  0  0  0  0  0  0  0  0  0
 22 23  1  0
 23 24  2  0
 24 25  1  0
 25 26  2  0
 26 27  1  0
 26 28  1  0
 28 21  1  0
 21 20  1  0
 20 18  1  0
 18 19  2  0
 18  1  1  0
  1  2  1  0
  2  3  2  0
  3  4  1  0
  4  5  2  0
  5  6  1  0
  6  8  1  0
  8  9  2  0
  8 10  2  0
  8 11  1  0
 11 12  2  0
 12 13  1  0
 13 14  1  0
 14 15  1  0
 15 16  1  0
 15 17  2  0
  6  7  2  0
 25 29  1  0
 29 30  1  0
 30 31  2  0
 31 32  1  0
 28 23  1  0
  7  2  1  0
 32 24  1  0
 17 12  1  0
 22 33  1  0
M  CHG 1   1  -1
M  CHG 1  13  -1
M  CHG 1  27  -1
M  END
> <UniqueID>
84

> <SMILES>
Cc1c/c(=N\S(=O)(=O)c2cccc([N-]C(=O)CCn3c([O-])c4c(c3O)CC=CC4)c2)[n-]o1

> <Energy>
120.67360763274786

> <Genealogy>
Cc1cc(=NS(=O)(=O)c2cccc([N-]C(=O)CCn3c([O-])c4c(c3O)CC=CC4)c2)[n-]o1 (protonated)
Cc1c/c(=N\S(=O)(=O)c2cccc([N-]C(=O)CCn3c([O-])c4c(c3O)CC=CC4)c2)[n-]o1 (cis-trans isomerization)
Cc1c/c(=N\S(=O)(=O)c2cccc([N-]C(=O)CCn3c([O-])c4c(c3O)CC=CC4)c2)[n-]o1 (3D coordinates assigned)
Cc1c/c(=N\S(=O)(=O)c2cccc([N-]C(=O)CCn3c([O-])c4c(c3O)CC=CC4)c2)[n-]o1 (nonaromatic ring conformer: 120.67360763274786 kcal/mol)

> <smiles>
Cc1cc(=NS(=O)(=O)c2cccc(NC(=O)CCn3c(O)c4c(c3O)CC=CC4)c2)[nH]o1

> <score_type>
oracle

> <origin>
adg

> <m_score__min__energy>
-15.06

> <m_primary>
energy

> <minimizedAffinity>
-6.58445

> <minimizedRMSD>
1.68609

> <CNNscore>
0.1417827904

> <CNNaffinity>
6.1313495636

> <CNN_VS>
0.8693198562

> <CNNaffinity_variance>
0.2569010854

$$$$
93:0


 28 30  0  0  0  0  0  0  0  0999 V2000
   60.4915   30.3360   46.8899 C   0  0  0  0  0  0  0  0  0  0  0  0
   59.2781   30.8189   46.5175 N   0  0  0  0  0  0  0  0  0  0  0  0
   58.4905   30.1899   45.6006 C   0  0  0  0  0  0  0  0  0  0  0  0
   58.9386   28.9863   45.0122 C   0  0  0  0  0  0  0  0  0  0  0  0
   60.2063   28.4937   45.3697 C   0  0  0  0  0  0  0  0  0  0  0  0
   60.9789   29.1647   46.3163 C   0  0  0  0  0  0  0  0  0  0  0  0
   57.1910   30.8069   45.2408 C   0  0  0  0  0  0  0  0  0  0  0  0
   56.2628   30.0882   44.7844 O   0  0  0  0  0  0  0  0  0  0  0  0
   56.9846   32.2278   45.3011 N   0  0  0  0  0  0  0  0  0  0  0  0
   57.8723   33.1226   45.6298 C   0  0  0  0  0  0  0  0  0  0  0  0
   58.6302   33.7495   44.6845 N   0  0  0  0  0  0  0  0  0  0  0  0
   59.5706   34.6754   45.0116 C   0  0  0  0  0  0  0  0  0  0  0  0
   59.7876   35.0046   46.3510 C   0  0  0  0  0  0  0  0  0  0  0  0
   59.0366   34.3693   47.3402 C   0  0  0  0  0  0  0  0  0  0  0  0
   58.0739   33.4216   46.9827 C   0  0  0  0  0  0  0  0  0  0  0  0
   58.1263   28.3143   44.0363 N   0  0  0  0  0  0  0  0  0  0  0  0
   58.0947   26.9065   43.7724 C   0  0  0  0  0  0  0  0  0  0  0  0
   57.9116   26.4716   42.6043 O   0  0  0  0  0  0  0  0  0  0  0  0
   58.2976   25.9430   44.8972 C   0  0  0  0  0  0  0  0  0  0  0  0
   57.1094   25.0231   45.0115 C   0  0  0  0  0  0  0  0  0  0  0  0
   57.1201   23.7818   44.3523 C   0  0  0  0  0  0  0  0  0  0  0  0
   56.0089   22.9200   44.4276 C   0  0  0  0  0  0  0  0  0  0  0  0
   54.8839   23.3189   45.1584 C   0  0  0  0  0  0  0  0  0  0  0  0
   54.8595   24.5557   45.8051 C   0  0  0  0  0  0  0  0  0  0  0  0
   55.9636   25.4112   45.7333 C   0  0  0  0  0  0  0  0  0  0  0  0
   55.9147   26.6426   46.3793 O   0  0  0  0  0  0  0  0  0  0  0  0
   55.9816   21.6681   43.7953 O   0  0  0  0  0  0  0  0  0  0  0  0
   57.1032   21.0644   43.1577 C   0  0  0  0  0  0  0  0  0  0  0  0
  1  2  2  0
  2  3  1  0
  3  7  1  0
  7  8  2  0
  7  9  1  0
  9 10  2  0
 10 11  1  0
 11 12  1  0
 12 13  2  0
 13 14  1  0
 14 15  2  0
  3  4  2  0
  4 16  1  0
 16 17  1  0
 17 18  2  0
 17 19  1  0
 19 20  1  0
 20 21  2  0
 21 22  1  0
 22 27  1  0
 27 28  1  0
 22 23  2  0
 23 24  1  0
 24 25  2  0
 25 26  1  0
  4  5  1  0
  5  6  2  0
  6  1  1  0
 15 10  1  0
 25 20  1  0
M  CHG 1  11  -1
M  CHG 1  16  -1
M  CHG 1  26  -1
M  END
> <UniqueID>
88

> <SMILES>
COc1ccc([O-])c(CC(=O)[N-]c2cccnc2C(=O)/N=c2/cccc[n-]2)c1

> <Energy>
57.177849717367565

> <Genealogy>
COc1ccc([O-])c(CC(=O)[N-]c2cccnc2C(=O)N=c2cccc[n-]2)c1 (protonated)
COc1ccc([O-])c(CC(=O)[N-]c2cccnc2C(=O)/N=c2/cccc[n-]2)c1 (cis-trans isomerization)
COc1ccc([O-])c(CC(=O)[N-]c2cccnc2C(=O)/N=c2/cccc[n-]2)c1 (3D coordinates assigned)
COc1ccc([O-])c(CC(=O)[N-]c2cccnc2C(=O)/N=c2/cccc[n-]2)c1 (optimized conformer: 57.177849717367565 kcal/mol)

> <smiles>
COc1ccc(O)c(CC(=O)Nc2cccnc2C(=O)N=c2cccc[nH]2)c1

> <score_type>
oracle

> <origin>
adg

> <m_score__min__energy>
-14.19

> <m_primary>
energy

> <minimizedAffinity>
-6.64772

> <minimizedRMSD>
0.56245

> <CNNscore>
0.3325108290

> <CNNaffinity>
6.5142731667

> <CNN_VS>
2.1660664082

> <CNNaffinity_variance>
0.0015855674

$$$$
2:0


 28 29  0  0  0  0  0  0  0  0999 V2000
   57.9922   33.4599   47.0958 C   0  0  0  0  0  0  0  0  0  0  0  0
   57.9520   32.9447   44.7311 C   0  0  0  0  0  0  0  0  0  0  0  0
   58.1646   32.3983   46.0822 N   0  0  0  0  0  0  0  0  0  0  0  0
   59.4893   31.7449   46.1866 C   0  0  0  0  0  0  0  0  0  0  0  0
   59.3126   30.2518   46.2461 C   0  0  0  0  0  0  0  0  0  0  0  0
   60.2360   29.4639   46.9441 C   0  0  0  0  0  0  0  0  0  0  0  0
   60.0434   28.0865   47.0670 C   0  0  0  0  0  0  0  0  0  0  0  0
   58.9192   27.4657   46.4959 C   0  0  0  0  0  0  0  0  0  0  0  0
   57.9932   28.2599   45.7822 C   0  0  0  0  0  0  0  0  0  0  0  0
   56.8676   27.6964   45.1887 O   0  0  0  0  0  0  0  0  0  0  0  0
   58.1958   29.6388   45.6606 C   0  0  0  0  0  0  0  0  0  0  0  0
   58.7342   26.0009   46.6633 C   0  0  0  0  0  0  0  0  0  0  0  0
   59.5154   25.1815   46.1132 O   0  0  0  0  0  0  0  0  0  0  0  0
   57.6870   25.5109   47.4336 O   0  0  0  0  0  0  0  0  0  0  0  0
   59.2737   34.2287   47.2949 C   0  0  0  0  0  0  0  0  0  0  0  0
   59.7012   34.9461   46.3525 O   0  0  0  0  0  0  0  0  0  0  0  0
   60.0403   34.1590   48.5082 N   0  0  0  0  0  0  0  0  0  0  0  0
   60.2878   32.9884   49.2984 C   0  0  0  0  0  0  0  0  0  0  0  0
   61.4504   32.2201   49.1321 C   0  0  0  0  0  0  0  0  0  0  0  0
   61.6817   31.1108   49.9483 C   0  0  0  0  0  0  0  0  0  0  0  0
   60.7485   30.7522   50.9248 C   0  0  0  0  0  0  0  0  0  0  0  0
   59.5643   31.4860   51.0711 C   0  0  0  0  0  0  0  0  0  0  0  0
   59.3301   32.5906   50.2397 C   0  0  0  0  0  0  0  0  0  0  0  0
   58.3991   31.0275   52.3101 S   0  0  0  0  0  0  0  0  0  0  0  0
   56.8663   31.7465   51.9599 N   0  0  0  0  0  0  0  0  0  0  0  0
   58.2650   29.5317   52.3379 O   0  0  0  0  0  0  0  0  0  0  0  0
   58.8595   31.5038   53.6593 O   0  0  0  0  0  0  0  0  0  0  0  0
   56.5434   31.4302   51.0455 H   0  0  0  0  0  0  0  0  0  0  0  0
  2  3  1  0
  3  1  1  0
  1 15  1  0
 15 16  2  0
 15 17  1  0
 17 18  1  0
 18 19  2  0
 19 20  1  0
 20 21  2  0
 21 22  1  0
 22 24  1  0
 24 25  1  0
 24 26  2  0
 24 27  2  0
 22 23  2  0
  3  4  1  0
  4  5  1  0
  5  6  2  0
  6  7  1  0
  7  8  2  0
  8 12  1  0
 12 13  2  0
 12 14  1  0
  8  9  1  0
  9 10  1  0
  9 11  2  0
 23 18  1  0
 11  5  1  0
 25 28  1  0
M  CHG 1  10  -1
M  CHG 1  14  -1
M  CHG 1  17  -1
M  CHG 1  25  -1
M  END
> <UniqueID>
3

> <SMILES>
CN(CC(=O)[N-]c1cccc(S([NH-])(=O)=O)c1)Cc1ccc(C(=O)[O-])c([O-])c1

> <Energy>
46.228089595818155

> <Genealogy>
CN(CC(=O)[N-]c1cccc(S([NH-])(=O)=O)c1)Cc1ccc(C(=O)[O-])c([O-])c1 (protonated)
CN(CC(=O)[N-]c1cccc(S([NH-])(=O)=O)c1)Cc1ccc(C(=O)[O-])c([O-])c1 (3D coordinates assigned)
CN(CC(=O)[N-]c1cccc(S([NH-])(=O)=O)c1)Cc1ccc(C(=O)[O-])c([O-])c1 (optimized conformer: 46.228089595818155 kcal/mol)

> <smiles>
CN(CC(=O)Nc1cccc(S(N)(=O)=O)c1)Cc1ccc(C(=O)O)c(O)c1

> <score_type>
oracle

> <origin>
adg

> <m_score__min__energy>
-17.010000000000002

> <m_primary>
energy

> <minimizedAffinity>
-6.33969

> <minimizedRMSD>
1.50190

> <CNNscore>
0.3863053620

> <CNNaffinity>
6.3644652367

> <CNN_VS>
2.4586269855

> <CNNaffinity_variance>
0.0891417265

$$$$
4:0


 25 27  0  0  0  0  0  0  0  0999 V2000
   59.1608   27.4959   46.3616 C   0  0  0  0  0  0  0  0  0  0  0  0
   60.4128   27.3513   46.3633 O   0  0  0  0  0  0  0  0  0  0  0  0
   58.5833   28.4568   45.4679 N   0  0  0  0  0  0  0  0  0  0  0  0
   57.6252   30.6887   44.9733 C   0  0  0  0  0  0  0  0  0  0  0  0
   57.6907   32.0885   45.1340 C   0  0  0  0  0  0  0  0  0  0  0  0
   58.6786   32.6721   45.9291 C   0  0  0  0  0  0  0  0  0  0  0  0
   59.6247   31.8731   46.5675 C   0  0  0  0  0  0  0  0  0  0  0  0
   59.5812   30.4876   46.4215 C   0  0  0  0  0  0  0  0  0  0  0  0
   58.5747   29.8805   45.6491 C   0  0  0  0  0  0  0  0  0  0  0  0
   55.5062   29.3338   44.7008 N   0  0  0  0  0  0  0  0  0  0  0  0
   56.5538   30.1084   44.1189 C   0  0  0  0  0  0  0  0  0  0  0  0
   56.5559   30.2838   42.8706 O   0  0  0  0  0  0  0  0  0  0  0  0
   54.8004   28.9527   44.1300 H   0  0  0  0  0  0  0  0  0  0  0  0
   58.3045   26.5395   47.1515 C   0  0  0  0  0  0  0  0  0  0  0  0
   57.8138   25.4533   46.3005 N   0  0  0  0  0  0  0  0  0  0  0  0
   56.5663   25.3223   45.7977 C   0  0  0  0  0  0  0  0  0  0  0  0
   55.5164   26.1944   46.0677 O   0  0  0  0  0  0  0  0  0  0  0  0
   56.4888   24.2100   44.9843 C   0  0  0  0  0  0  0  0  0  0  0  0
   57.7331   23.6195   45.0120 C   0  0  0  0  0  0  0  0  0  0  0  0
   58.5297   24.4205   45.8048 C   0  0  0  0  0  0  0  0  0  0  0  0
   59.8791   24.2069   46.0626 O   0  0  0  0  0  0  0  0  0  0  0  0
   58.1084   22.4176   44.1992 C   0  0  0  0  0  0  0  0  0  0  0  0
   56.8423   21.6593   43.7510 C   0  0  0  0  0  0  0  0  0  0  0  0
   55.7614   22.6197   43.2051 C   0  0  0  0  0  0  0  0  0  0  0  0
   55.3042   23.6340   44.2715 C   0  0  0  0  0  0  0  0  0  0  0  0
 10 11  1  0
 11 12  2  0
 11  4  1  0
  4  5  2  0
  5  6  1  0
  6  7  2  0
  7  8  1  0
  8  9  2  0
  9  3  1  0
  3  1  1  0
  1  2  2  0
  1 14  1  0
 14 15  1  0
 15 16  1  0
 16 17  1  0
 16 18  2  0
 18 19  1  0
 19 20  2  0
 20 21  1  0
 19 22  1  0
 22 23  1  0
 23 24  1  0
 24 25  1  0
  9  4  1  0
 20 15  1  0
 25 18  1  0
 10 13  1  0
M  CHG 1   3  -1
M  CHG 1  10  -1
M  CHG 1  17  -1
M  CHG 1  21  -1
M  END
> <UniqueID>
5

> <SMILES>
[NH-]C(=O)c1ccccc1[N-]C(=O)Cn1c([O-])c2c(c1[O-])CCCC2

> <Energy>
76.8803937079817

> <Genealogy>
[NH-]C(=O)c1ccccc1[N-]C(=O)Cn1c([O-])c2c(c1[O-])CCCC2 (protonated)
[NH-]C(=O)c1ccccc1[N-]C(=O)Cn1c([O-])c2c(c1[O-])CCCC2 (3D coordinates assigned)
[NH-]C(=O)c1ccccc1[N-]C(=O)Cn1c([O-])c2c(c1[O-])CCCC2 (nonaromatic ring conformer: 76.8803937079817 kcal/mol)

> <smiles>
NC(=O)c1ccccc1NC(=O)Cn1c(O)c2c(c1O)CCCC2

> <score_type>
oracle

> <origin>
adg

> <m_score__min__energy>
-16.48

> <m_primary>
energy

> <minimizedAffinity>
-7.98567

> <minimizedRMSD>
0.70077

> <CNNscore>
0.5131559968

> <CNNaffinity>
6.2180161476

> <CNN_VS>
3.1908123493

> <CNNaffinity_variance>
0.0181186274

$$$$
33:0


 34 37  0  0  0  0  0  0  0  0999 V2000
   56.2621   25.1825   45.8585 N   0  0  0  0  0  0  0  0  0  0  0  0
   57.0044   26.2214   46.1045 C   0  0  0  0  0  0  0  0  0  0  0  0
   56.6764   27.4150   45.5475 N   0  0  0  0  0  0  0  0  0  0  0  0
   57.4142   28.5233   45.8102 C   0  0  0  0  0  0  0  0  0  0  0  0
   57.0800   29.6557   45.2670 N   0  0  0  0  0  0  0  0  0  0  0  0
   58.4879   28.4320   46.6402 N   0  0  0  0  0  0  0  0  0  0  0  0
   58.8271   27.2431   47.2023 C   0  0  0  0  0  0  0  0  0  0  0  0
   59.8350   27.1407   48.0198 N   0  0  0  0  0  0  0  0  0  0  0  0
   58.0736   26.1442   46.9414 N   0  0  0  0  0  0  0  0  0  0  0  0
   57.0257   21.1286   46.8807 C   0  0  0  0  0  0  0  0  0  0  0  0
   57.4817   21.6302   45.6561 C   0  0  0  0  0  0  0  0  0  0  0  0
   57.2445   22.9640   45.3089 C   0  0  0  0  0  0  0  0  0  0  0  0
   56.5557   23.8160   46.1931 C   0  0  0  0  0  0  0  0  0  0  0  0
   56.0653   23.2957   47.3967 C   0  0  0  0  0  0  0  0  0  0  0  0
   56.3060   21.9640   47.7450 C   0  0  0  0  0  0  0  0  0  0  0  0
   56.3758   19.0380   48.7137 N   0  0  0  0  0  0  0  0  0  0  0  0
   57.3169   19.4501   47.3219 S   0  0  0  0  0  0  0  0  0  0  0  0
   58.7713   19.2469   47.6458 O   0  0  0  0  0  0  0  0  0  0  0  0
   56.9327   18.5567   46.1757 O   0  0  0  0  0  0  0  0  0  0  0  0
   56.5484   18.0646   48.9648 H   0  0  0  0  0  0  0  0  0  0  0  0
   60.4011   28.1810   48.8348 C   0  0  0  0  0  0  0  0  0  0  0  0
   60.7466   27.9740   50.1851 C   0  0  0  0  0  0  0  0  0  0  0  0
   61.2719   29.0236   50.9449 C   0  0  0  0  0  0  0  0  0  0  0  0
   61.4338   30.2881   50.3758 C   0  0  0  0  0  0  0  0  0  0  0  0
   61.0612   30.5091   49.0477 C   0  0  0  0  0  0  0  0  0  0  0  0
   60.5381   29.4615   48.2832 C   0  0  0  0  0  0  0  0  0  0  0  0
   57.9925   30.5650   44.5704 C   0  0  0  0  0  0  0  0  0  0  0  0
   59.2015   30.9119   45.4472 C   0  0  0  0  0  0  0  0  0  0  0  0
   59.2886   32.3860   45.7365 C   0  0  0  0  0  0  0  0  0  0  0  0
   60.0974   32.8546   46.7854 C   0  0  0  0  0  0  0  0  0  0  0  0
   60.1647   34.2219   47.0667 C   0  0  0  0  0  0  0  0  0  0  0  0
   59.4067   35.1291   46.3225 C   0  0  0  0  0  0  0  0  0  0  0  0
   58.5911   34.6714   45.2839 C   0  0  0  0  0  0  0  0  0  0  0  0
   58.5359   33.3059   44.9871 C   0  0  0  0  0  0  0  0  0  0  0  0
 16 17  1  0
 17 18  2  0
 17 19  2  0
 17 10  1  0
 10 11  2  0
 11 12  1  0
 12 13  2  0
 13  1  1  0
  1  2  2  0
  2  3  1  0
  3  4  1  0
  4  5  2  0
  5 27  1  0
 27 28  1  0
 28 29  1  0
 29 30  2  0
 30 31  1  0
 31 32  2  0
 32 33  1  0
 33 34  2  0
  4  6  1  0
  6  7  1  0
  7  8  2  0
  8 21  1  0
 21 22  2  0
 22 23  1  0
 23 24  2  0
 24 25  1  0
 25 26  2  0
  7  9  1  0
 13 14  1  0
 14 15  2  0
 15 10  1  0
  9  2  1  0
 34 29  1  0
 26 21  1  0
 16 20  1  0
M  CHG 1   3  -1
M  CHG 1   6  -1
M  CHG 1   9  -1
M  CHG 1  16  -1
M  END
> <UniqueID>
32

> <SMILES>
[NH-]S(=O)(=O)c1ccc(N=c2[n-]c(=NCCc3ccccc3)[n-]/c(=N\c3ccccc3)[n-]2)cc1

> <Energy>
62.32777503903389

> <Genealogy>
[NH-]S(=O)(=O)c1ccc(N=c2[n-]c(=NCCc3ccccc3)[n-]c(=Nc3ccccc3)[n-]2)cc1 (protonated)
[NH-]S(=O)(=O)c1ccc(N=c2[n-]c(=NCCc3ccccc3)[n-]/c(=N\c3ccccc3)[n-]2)cc1 (cis-trans isomerization)
[NH-]S(=O)(=O)c1ccc(N=c2[n-]c(=NCCc3ccccc3)[n-]/c(=N\c3ccccc3)[n-]2)cc1 (3D coordinates assigned)
[NH-]S(=O)(=O)c1ccc(N=c2[n-]c(=NCCc3ccccc3)[n-]/c(=N\c3ccccc3)[n-]2)cc1 (optimized conformer: 62.32777503903389 kcal/mol)

> <smiles>
NS(=O)(=O)c1ccc(N=c2[nH]c(=NCCc3ccccc3)[nH]c(=Nc3ccccc3)[nH]2)cc1

> <score_type>
oracle

> <origin>
adg

> <m_score__min__energy>
-14.470000000000001

> <m_primary>
energy

> <minimizedAffinity>
-7.92366

> <minimizedRMSD>
1.66766

> <CNNscore>
0.0902250633

> <CNNaffinity>
6.2243323326

> <CNN_VS>
0.5615907907

> <CNNaffinity_variance>
0.0335948579

$$$$
91:0


 29 33  0  0  0  0  0  0  0  0999 V2000
   58.8818   27.1507   47.7806 C   0  0  0  0  0  0  0  0  0  0  0  0
   59.8767   27.8542   48.2223 N   0  0  0  0  0  0  0  0  0  0  0  0
   60.2631   28.7373   47.2067 N   0  0  0  0  0  0  0  0  0  0  0  0
   60.6198   30.0337   47.3487 C   0  0  0  0  0  0  0  0  0  0  0  0
   61.4684   30.5387   48.2071 N   0  0  0  0  0  0  0  0  0  0  0  0
   60.0213   30.8076   46.4198 N   0  0  0  0  0  0  0  0  0  0  0  0
   59.2825   29.9191   45.7205 C   0  0  0  0  0  0  0  0  0  0  0  0
   58.4393   30.3171   44.8093 N   0  0  0  0  0  0  0  0  0  0  0  0
   59.4777   28.6446   46.1562 N   0  0  0  0  0  0  0  0  0  0  0  0
   58.5721   27.5689   46.4057 C   0  0  0  0  0  0  0  0  0  0  0  0
   58.0712   26.7552   45.4671 C   0  0  0  0  0  0  0  0  0  0  0  0
   57.5696   25.3983   45.7430 C   0  0  0  0  0  0  0  0  0  0  0  0
   58.3384   24.2936   45.6441 N   0  0  0  0  0  0  0  0  0  0  0  0
   57.4767   23.2828   45.9013 C   0  0  0  0  0  0  0  0  0  0  0  0
   57.8254   22.0740   45.9091 O   0  0  0  0  0  0  0  0  0  0  0  0
   56.2143   23.6854   46.1370 N   0  0  0  0  0  0  0  0  0  0  0  0
   56.2708   25.0196   46.0215 C   0  0  0  0  0  0  0  0  0  0  0  0
   55.1645   25.8550   46.1167 O   0  0  0  0  0  0  0  0  0  0  0  0
   55.4300   23.1283   46.3460 H   0  0  0  0  0  0  0  0  0  0  0  0
   62.5104   31.5824   48.1994 C   0  0  0  0  0  0  0  0  0  0  0  0
   62.2677   32.8721   48.9594 C   0  0  0  0  0  0  0  0  0  0  0  0
   62.1699   32.8424   47.4301 C   0  0  0  0  0  0  0  0  0  0  0  0
   57.4399   31.3702   44.8976 C   0  0  0  0  0  0  0  0  0  0  0  0
   58.0965   32.6246   45.3950 C   0  0  0  0  0  0  0  0  0  0  0  0
   58.6770   33.5284   44.4897 C   0  0  0  0  0  0  0  0  0  0  0  0
   59.2578   34.7139   44.9505 C   0  0  0  0  0  0  0  0  0  0  0  0
   59.2544   35.0112   46.3161 C   0  0  0  0  0  0  0  0  0  0  0  0
   58.6639   34.1255   47.2219 C   0  0  0  0  0  0  0  0  0  0  0  0
   58.0812   32.9392   46.7652 C   0  0  0  0  0  0  0  0  0  0  0  0
  1  2  2  0
  2  3  1  0
  3  4  1  0
  4  5  2  0
  5 20  1  0
 20 21  1  0
 21 22  1  0
  4  6  1  0
  6  7  1  0
  7  8  2  0
  8 23  1  0
 23 24  1  0
 24 25  2  0
 25 26  1  0
 26 27  2  0
 27 28  1  0
 28 29  2  0
  7  9  1  0
  9 10  1  0
 10 11  2  0
 11 12  1  0
 12 13  1  0
 13 14  1  0
 14 15  2  0
 14 16  1  0
 16 17  1  0
 17 18  1  0
 10  1  1  0
 17 12  2  0
  9  3  1  0
 22 20  1  0
 29 24  1  0
 16 19  1  0
M  CHG 1   6  -1
M  CHG 1  13  -1
M  CHG 1  18  -1
M  END
> <UniqueID>
88

> <SMILES>
O=c1[n-]c(/C=C2\C=Nn3/c(=N\C4CC4)[n-]c(=NCc4ccccc4)n32)c([O-])[nH]1

> <Energy>
468.0536903676076

> <Genealogy>
O=c1[n-]c(C=C2C=Nn3c(=NC4CC4)[n-]c(=NCc4ccccc4)n32)c([O-])[nH]1 (protonated)
O=c1[n-]c(/C=C2\C=Nn3/c(=N\C4CC4)[n-]c(=NCc4ccccc4)n32)c([O-])[nH]1 (cis-trans isomerization)
O=c1[n-]c(/C=C2\C=Nn3/c(=N\C4CC4)[n-]c(=NCc4ccccc4)n32)c([O-])[nH]1 (3D coordinates assigned)
O=c1[n-]c(/C=C2\C=Nn3/c(=N\C4CC4)[n-]c(=NCc4ccccc4)n32)c([O-])[nH]1 (nonaromatic ring conformer: 468.0536903676076 kcal/mol)

> <smiles>
O=c1[nH]c(O)c(C=C2C=Nn3c(=NC4CC4)[nH]c(=NCc4ccccc4)n32)[nH]1

> <score_type>
oracle

> <origin>
adg

> <m_score__min__energy>
-14.74

> <m_primary>
energy

> <minimizedAffinity>
-8.54761

> <minimizedRMSD>
0.96963

> <CNNscore>
0.2097450048

> <CNNaffinity>
6.3557925224

> <CNN_VS>
1.3330957890

> <CNNaffinity_variance>
0.0574321859

$$$$
94:0


 26 27  0  0  0  0  0  0  0  0999 V2000
   56.9667   29.5795   44.2591 S   0  0  0  0  0  0  0  0  0  0  0  0
   55.8521   30.0758   43.3807 O   0  0  0  0  0  0  0  0  0  0  0  0
   57.9468   28.8167   43.4115 O   0  0  0  0  0  0  0  0  0  0  0  0
   59.3259   31.7642   46.7365 C   0  0  0  0  0  0  0  0  0  0  0  0
   59.2182   33.0496   46.1858 C   0  0  0  0  0  0  0  0  0  0  0  0
   58.4068   33.2677   45.0696 C   0  0  0  0  0  0  0  0  0  0  0  0
   57.7049   32.2060   44.4929 C   0  0  0  0  0  0  0  0  0  0  0  0
   57.8085   30.9190   45.0337 C   0  0  0  0  0  0  0  0  0  0  0  0
   58.6160   30.7021   46.1602 C   0  0  0  0  0  0  0  0  0  0  0  0
   62.0654   31.7434   47.6428 C   0  0  0  0  0  0  0  0  0  0  0  0
   60.3742   31.4617   48.1170 S   0  0  0  0  0  0  0  0  0  0  0  0
   60.0208   32.3817   49.2520 O   0  0  0  0  0  0  0  0  0  0  0  0
   60.2043   30.0389   48.5739 O   0  0  0  0  0  0  0  0  0  0  0  0
   56.3178   28.5246   45.4717 N   0  0  0  0  0  0  0  0  0  0  0  0
   57.0261   27.4422   46.0927 C   0  0  0  0  0  0  0  0  0  0  0  0
   58.3562   27.5798   46.5340 C   0  0  0  0  0  0  0  0  0  0  0  0
   59.0386   26.4927   47.1102 C   0  0  0  0  0  0  0  0  0  0  0  0
   58.3619   25.2718   47.2711 C   0  0  0  0  0  0  0  0  0  0  0  0
   57.0376   25.1373   46.8490 C   0  0  0  0  0  0  0  0  0  0  0  0
   56.3713   26.2147   46.2617 C   0  0  0  0  0  0  0  0  0  0  0  0
   55.0549   26.0610   45.8419 O   0  0  0  0  0  0  0  0  0  0  0  0
   60.4440   26.6561   47.5595 C   0  0  0  0  0  0  0  0  0  0  0  0
   60.7575   27.0809   48.8885 N   0  0  0  0  0  0  0  0  0  0  0  0
   61.3874   26.4033   46.7627 O   0  0  0  0  0  0  0  0  0  0  0  0
   60.0336   27.2827   49.5245 H   0  0  0  0  0  0  0  0  0  0  0  0
   61.6973   27.1716   49.1674 H   0  0  0  0  0  0  0  0  0  0  0  0
 10 11  1  0
 11 12  2  0
 11 13  2  0
 11  4  1  0
  4  5  2  0
  5  6  1  0
  6  7  2  0
  7  8  1  0
  8  1  1  0
  1  2  2  0
  1  3  2  0
  1 14  1  0
 14 15  1  0
 15 16  2  0
 16 17  1  0
 17 22  1  0
 22 23  1  0
 22 24  2  0
 17 18  2  0
 18 19  1  0
 19 20  2  0
 20 21  1  0
  8  9  2  0
  9  4  1  0
 20 15  1  0
 23 25  1  0
 23 26  1  0
M  CHG 1  14  -1
M  CHG 1  21  -1
M  END
> <UniqueID>
88

> <SMILES>
CS(=O)(=O)c1cccc(S(=O)(=O)[N-]c2cc(C(N)=O)ccc2[O-])c1

> <Energy>
37.64601591119037

> <Genealogy>
CS(=O)(=O)c1cccc(S(=O)(=O)[N-]c2cc(C(N)=O)ccc2[O-])c1 (protonated)
CS(=O)(=O)c1cccc(S(=O)(=O)[N-]c2cc(C(N)=O)ccc2[O-])c1 (3D coordinates assigned)
CS(=O)(=O)c1cccc(S(=O)(=O)[N-]c2cc(C(N)=O)ccc2[O-])c1 (optimized conformer: 37.64601591119037 kcal/mol)

> <smiles>
CS(=O)(=O)c1cccc(S(=O)(=O)Nc2cc(C(N)=O)ccc2O)c1

> <score_type>
oracle

> <origin>
adg

> <m_score__min__energy>
-14.369999999999999

> <m_primary>
energy

> <minimizedAffinity>
-4.66611

> <minimizedRMSD>
0.64521

> <CNNscore>
0.6958288550

> <CNNaffinity>
6.4677777290

> <CNN_VS>
4.5004663467

> <CNNaffinity_variance>
0.2521457374

$$$$
1:0


 23 24  0  0  0  0  0  0  0  0999 V2000
   58.9016   30.8399   50.6324 C   0  0  0  0  0  0  0  0  0  0  0  0
   58.0377   29.8961   51.0691 N   0  0  0  0  0  0  0  0  0  0  0  0
   57.1300   30.4041   51.9463 C   0  0  0  0  0  0  0  0  0  0  0  0
   57.2513   31.7746   52.1954 C   0  0  0  0  0  0  0  0  0  0  0  0
   58.5656   32.3415   51.3108 S   0  0  0  0  0  0  0  0  0  0  0  0
   56.0825   29.5743   52.4691 N   0  0  0  0  0  0  0  0  0  0  0  0
   54.8252   29.8842   52.6064 C   0  0  0  0  0  0  0  0  0  0  0  0
   54.0624   30.2518   51.5542 N   0  0  0  0  0  0  0  0  0  0  0  0
   52.7747   30.4769   51.9273 C   0  0  0  0  0  0  0  0  0  0  0  0
   51.8076   30.8691   51.0122 O   0  0  0  0  0  0  0  0  0  0  0  0
   52.4935   30.2838   53.2764 C   0  0  0  0  0  0  0  0  0  0  0  0
   53.9193   29.8074   54.0311 S   0  0  0  0  0  0  0  0  0  0  0  0
   60.0360   30.5557   49.7024 C   0  0  0  0  0  0  0  0  0  0  0  0
   59.6199   29.5487   48.6673 C   0  0  0  0  0  0  0  0  0  0  0  0
   59.9943   28.3518   48.7947 O   0  0  0  0  0  0  0  0  0  0  0  0
   58.7795   29.8964   47.5603 N   0  0  0  0  0  0  0  0  0  0  0  0
   59.2550   30.4589   46.3027 C   0  0  0  0  0  0  0  0  0  0  0  0
   58.5854   29.7398   45.1341 C   0  0  0  0  0  0  0  0  0  0  0  0
   55.7336   29.6951   44.7272 N   0  0  0  0  0  0  0  0  0  0  0  0
   57.1649   30.6517   44.5513 S   0  0  0  0  0  0  0  0  0  0  0  0
   57.3568   30.9838   43.0982 O   0  0  0  0  0  0  0  0  0  0  0  0
   57.0185   31.9256   45.3345 O   0  0  0  0  0  0  0  0  0  0  0  0
   54.9281   30.2236   44.3921 H   0  0  0  0  0  0  0  0  0  0  0  0
 19 20  1  0
 20 21  2  0
 20 22  2  0
 20 18  1  0
 18 17  1  0
 17 16  1  0
 16 14  1  0
 14 15  2  0
 14 13  1  0
 13  1  1  0
  1  2  2  0
  2  3  1  0
  3  6  1  0
  6  7  2  0
  7  8  1  0
  8  9  1  0
  9 10  1  0
  9 11  2  0
 11 12  1  0
  3  4  2  0
  4  5  1  0
  5  1  1  0
 12  7  1  0
 19 23  1  0
M  CHG 1   8  -1
M  CHG 1  10  -1
M  CHG 1  16  -1
M  CHG 1  19  -1
M  END
> <UniqueID>
2

> <SMILES>
[NH-]S(=O)(=O)CC[N-]C(=O)Cc1nc(/N=c2/[n-]c([O-])cs2)cs1

> <Energy>
85.40235951928557

> <Genealogy>
[NH-]S(=O)(=O)CC[N-]C(=O)Cc1nc(N=c2[n-]c([O-])cs2)cs1 (protonated)
[NH-]S(=O)(=O)CC[N-]C(=O)Cc1nc(/N=c2/[n-]c([O-])cs2)cs1 (cis-trans isomerization)
[NH-]S(=O)(=O)CC[N-]C(=O)Cc1nc(/N=c2/[n-]c([O-])cs2)cs1 (3D coordinates assigned)
[NH-]S(=O)(=O)CC[N-]C(=O)Cc1nc(/N=c2/[n-]c([O-])cs2)cs1 (optimized conformer: 85.40235951928557 kcal/mol)

> <smiles>
NS(=O)(=O)CCNC(=O)Cc1nc(N=c2[nH]c(O)cs2)cs1

> <score_type>
oracle

> <origin>
adg

> <m_score__min__energy>
-16.030000000000001

> <m_primary>
energy

> <minimizedAffinity>
-6.44877

> <minimizedRMSD>
1.25701

> <CNNscore>
0.5681202412

> <CNNaffinity>
5.6369628906

> <CNN_VS>
3.2024726868

> <CNNaffinity_variance>
0.1170800254

$$$$
61:0


 30 34  0  0  0  0  0  0  0  0999 V2000
   57.6972   28.1880   44.0760 C   0  0  0  0  0  0  0  0  0  0  0  0
   57.4230   29.4564   43.9677 N   0  0  0  0  0  0  0  0  0  0  0  0
   57.6611   30.0356   45.2216 N   0  0  0  0  0  0  0  0  0  0  0  0
   58.2220   31.2281   45.5054 C   0  0  0  0  0  0  0  0  0  0  0  0
   58.0762   32.3115   44.8031 N   0  0  0  0  0  0  0  0  0  0  0  0
   59.0377   31.1549   46.5856 N   0  0  0  0  0  0  0  0  0  0  0  0
   58.9607   29.8351   46.9050 C   0  0  0  0  0  0  0  0  0  0  0  0
   59.7223   29.2439   47.7787 N   0  0  0  0  0  0  0  0  0  0  0  0
   58.1163   29.1756   46.0907 N   0  0  0  0  0  0  0  0  0  0  0  0
   58.1828   27.9147   45.4421 C   0  0  0  0  0  0  0  0  0  0  0  0
   58.7064   26.7939   45.9549 C   0  0  0  0  0  0  0  0  0  0  0  0
   58.0216   25.4920   45.9345 C   0  0  0  0  0  0  0  0  0  0  0  0
   58.6745   24.3170   45.8888 N   0  0  0  0  0  0  0  0  0  0  0  0
   57.6822   23.4029   45.9627 C   0  0  0  0  0  0  0  0  0  0  0  0
   57.8997   22.1637   45.9369 O   0  0  0  0  0  0  0  0  0  0  0  0
   56.4421   23.9213   46.0774 N   0  0  0  0  0  0  0  0  0  0  0  0
   56.6731   25.2436   46.0697 C   0  0  0  0  0  0  0  0  0  0  0  0
   55.6763   26.1967   46.2373 O   0  0  0  0  0  0  0  0  0  0  0  0
   60.6374   29.8761   48.6885 C   0  0  0  0  0  0  0  0  0  0  0  0
   60.7922   29.4409   50.0165 C   0  0  0  0  0  0  0  0  0  0  0  0
   61.7145   30.0650   50.8569 C   0  0  0  0  0  0  0  0  0  0  0  0
   62.5045   31.1137   50.3805 C   0  0  0  0  0  0  0  0  0  0  0  0
   62.3883   31.5466   49.0439 C   0  0  0  0  0  0  0  0  0  0  0  0
   61.4535   30.9079   48.2065 C   0  0  0  0  0  0  0  0  0  0  0  0
   63.2316   32.6514   48.5136 C   0  0  0  0  0  0  0  0  0  0  0  0
   64.2162   33.0643   49.1849 O   0  0  0  0  0  0  0  0  0  0  0  0
   62.9494   33.3006   47.1907 C   0  0  0  0  0  0  0  0  0  0  0  0
   57.7853   33.6236   45.3715 C   0  0  0  0  0  0  0  0  0  0  0  0
   58.9131   34.6153   45.1584 C   0  0  0  0  0  0  0  0  0  0  0  0
   58.6842   34.0042   46.5340 C   0  0  0  0  0  0  0  0  0  0  0  0
  1  2  2  0
  2  3  1  0
  3  4  1  0
  4  5  2  0
  5 28  1  0
 28 29  1  0
 29 30  1  0
  4  6  1  0
  6  7  1  0
  7  8  2  0
  8 19  1  0
 19 20  2  0
 20 21  1  0
 21 22  2  0
 22 23  1  0
 23 25  1  0
 25 26  2  0
 25 27  1  0
 23 24  2  0
  7  9  1  0
  9 10  1  0
 10 11  2  0
 11 12  1  0
 12 13  1  0
 13 14  1  0
 14 15  2  0
 14 16  1  0
 16 17  1  0
 17 18  1  0
 10  1  1  0
 17 12  2  0
  9  3  1  0
 30 28  1  0
 24 19  1  0
M  CHG 1   6  -1
M  CHG 1  13  -1
M  CHG 1  16  -1
M  CHG 1  18  -1
M  END
> <UniqueID>
55

> <SMILES>
CC(=O)c1cccc(/N=c2\[n-]c(=NC3CC3)n3n2/C(=C/c2[n-]c(=O)[n-]c2[O-])C=N3)c1

> <Energy>
448.52763086363234

> <Genealogy>
CC(=O)c1cccc(N=c2[n-]c(=NC3CC3)n3n2C(=Cc2[n-]c(=O)[n-]c2[O-])C=N3)c1 (protonated)
CC(=O)c1cccc(/N=c2\[n-]c(=NC3CC3)n3n2/C(=C/c2[n-]c(=O)[n-]c2[O-])C=N3)c1 (cis-trans isomerization)
CC(=O)c1cccc(/N=c2\[n-]c(=NC3CC3)n3n2/C(=C/c2[n-]c(=O)[n-]c2[O-])C=N3)c1 (3D coordinates assigned)
CC(=O)c1cccc(/N=c2\[n-]c(=NC3CC3)n3n2/C(=C/c2[n-]c(=O)[n-]c2[O-])C=N3)c1 (nonaromatic ring conformer: 448.52763086363234 kcal/mol)

> <smiles>
CC(=O)c1cccc(N=c2[nH]c(=NC3CC3)n3n2C(=Cc2[nH]c(=O)[nH]c2O)C=N3)c1

> <score_type>
oracle

> <origin>
adg

> <m_score__min__energy>
-17.100000000000001

> <m_primary>
energy

> <minimizedAffinity>
-9.88483

> <minimizedRMSD>
0.98586

> <CNNscore>
0.6679053307

> <CNNaffinity>
7.1715717316

> <CNN_VS>
4.7899308205

> <CNNaffinity_variance>
0.1094686389

$$$$
74:0


 27 29  0  0  0  0  0  0  0  0999 V2000
   58.1394   25.8049   46.6022 C   0  0  0  0  0  0  0  0  0  0  0  0
   59.4232   25.9962   47.1365 C   0  0  0  0  0  0  0  0  0  0  0  0
   60.2681   26.9734   46.6076 C   0  0  0  0  0  0  0  0  0  0  0  0
   59.8378   27.7772   45.5491 C   0  0  0  0  0  0  0  0  0  0  0  0
   58.5496   27.6106   45.0084 C   0  0  0  0  0  0  0  0  0  0  0  0
   57.7114   26.6159   45.5382 C   0  0  0  0  0  0  0  0  0  0  0  0
   58.0697   28.4285   43.9277 N   0  0  0  0  0  0  0  0  0  0  0  0
   58.3540   28.2027   43.0126 H   0  0  0  0  0  0  0  0  0  0  0  0
   57.0172   29.7918   44.1456 S   0  0  0  0  0  0  0  0  0  0  0  0
   55.8845   29.4046   45.0542 O   0  0  0  0  0  0  0  0  0  0  0  0
   56.4569   30.1983   42.8117 O   0  0  0  0  0  0  0  0  0  0  0  0
   57.9024   31.1226   44.8829 C   0  0  0  0  0  0  0  0  0  0  0  0
   58.6022   30.9340   46.0855 C   0  0  0  0  0  0  0  0  0  0  0  0
   59.2917   32.0013   46.6699 C   0  0  0  0  0  0  0  0  0  0  0  0
   59.2884   33.2580   46.0575 C   0  0  0  0  0  0  0  0  0  0  0  0
   58.5961   33.4495   44.8577 C   0  0  0  0  0  0  0  0  0  0  0  0
   57.9064   32.3842   44.2715 C   0  0  0  0  0  0  0  0  0  0  0  0
   57.2117   24.7798   47.1962 C   0  0  0  0  0  0  0  0  0  0  0  0
   56.9183   22.8663   45.5372 N   0  0  0  0  0  0  0  0  0  0  0  0
   56.5040   24.0174   46.1081 C   0  0  0  0  0  0  0  0  0  0  0  0
   55.2929   24.3525   45.5380 C   0  0  0  0  0  0  0  0  0  0  0  0
   54.5277   25.4670   45.8560 O   0  0  0  0  0  0  0  0  0  0  0  0
   54.9384   23.4484   44.6041 N   0  0  0  0  0  0  0  0  0  0  0  0
   55.9597   22.5671   44.6329 C   0  0  0  0  0  0  0  0  0  0  0  0
   56.0114   21.5617   43.8751 O   0  0  0  0  0  0  0  0  0  0  0  0
   59.2641   22.7216   44.8329 C   0  0  0  0  0  0  0  0  0  0  0  0
   58.1810   22.1509   45.7405 C   0  0  0  0  0  0  0  0  0  0  0  0
 26 27  1  0
 27 19  1  0
 19 20  1  0
 20 18  1  0
 18  1  1  0
  1  2  2  0
  2  3  1  0
  3  4  2  0
  4  5  1  0
  5  7  1  0
  7  9  1  0
  9 10  2  0
  9 11  2  0
  9 12  1  0
 12 13  2  0
 13 14  1  0
 14 15  2  0
 15 16  1  0
 16 17  2  0
  5  6  2  0
 20 21  2  0
 21 22  1  0
 21 23  1  0
 23 24  1  0
 24 25  2  0
 24 19  1  0
  6  1  1  0
 17 12  1  0
  7  8  1  0
M  CHG 1  22  -1
M  CHG 1  23  -1
M  END
> <UniqueID>
67

> <SMILES>
CCn1c(Cc2cccc(NS(=O)(=O)c3ccccc3)c2)c([O-])[n-]c1=O

> <Energy>
75.14369737510806

> <Genealogy>
CCn1c(Cc2cccc(NS(=O)(=O)c3ccccc3)c2)c([O-])[n-]c1=O (protonated)
CCn1c(Cc2cccc(NS(=O)(=O)c3ccccc3)c2)c([O-])[n-]c1=O (3D coordinates assigned)
CCn1c(Cc2cccc(NS(=O)(=O)c3ccccc3)c2)c([O-])[n-]c1=O (optimized conformer: 75.14369737510806 kcal/mol)

> <smiles>
CCn1c(Cc2cccc(NS(=O)(=O)c3ccccc3)c2)c(O)[nH]c1=O

> <score_type>
oracle

> <origin>
adg

> <m_score__min__energy>
-15.369999999999999

> <m_primary>
energy

> <minimizedAffinity>
-8.45473

> <minimizedRMSD>
0.85138

> <CNNscore>
0.3598771989

> <CNNaffinity>
6.3695349693

> <CNN_VS>
2.2922503948

> <CNNaffinity_variance>
0.0034253120

$$$$
3:0


 33 36  0  0  0  0  0  0  0  0999 V2000
   56.5259   25.7233   46.0924 N   0  0  0  0  0  0  0  0  0  0  0  0
   57.1845   26.8442   46.1454 C   0  0  0  0  0  0  0  0  0  0  0  0
   56.7426   27.9551   45.4976 N   0  0  0  0  0  0  0  0  0  0  0  0
   57.4308   29.1230   45.5837 C   0  0  0  0  0  0  0  0  0  0  0  0
   57.0284   30.1848   44.9560 N   0  0  0  0  0  0  0  0  0  0  0  0
   58.5593   29.1802   46.3325 N   0  0  0  0  0  0  0  0  0  0  0  0
   59.0069   28.0780   46.9905 C   0  0  0  0  0  0  0  0  0  0  0  0
   60.0914   28.1190   47.7017 N   0  0  0  0  0  0  0  0  0  0  0  0
   58.3123   26.9142   46.8970 N   0  0  0  0  0  0  0  0  0  0  0  0
   57.7823   21.0683   43.1613 O   0  0  0  0  0  0  0  0  0  0  0  0
   57.4734   22.2172   43.8861 C   0  0  0  0  0  0  0  0  0  0  0  0
   58.3380   22.6488   44.8970 C   0  0  0  0  0  0  0  0  0  0  0  0
   58.0425   23.8024   45.6312 C   0  0  0  0  0  0  0  0  0  0  0  0
   56.8834   24.5491   45.3424 C   0  0  0  0  0  0  0  0  0  0  0  0
   56.0077   24.0929   44.3486 C   0  0  0  0  0  0  0  0  0  0  0  0
   56.3048   22.9400   43.6161 C   0  0  0  0  0  0  0  0  0  0  0  0
   58.5669   20.5921   43.3501 H   0  0  0  0  0  0  0  0  0  0  0  0
   60.2301   28.9953   49.1939 S   0  0  0  0  0  0  0  0  0  0  0  0
   60.8322   28.0997   50.2397 O   0  0  0  0  0  0  0  0  0  0  0  0
   58.8627   29.4192   49.6546 O   0  0  0  0  0  0  0  0  0  0  0  0
   61.2742   30.3971   48.9692 C   0  0  0  0  0  0  0  0  0  0  0  0
   61.9516   30.9666   50.0594 C   0  0  0  0  0  0  0  0  0  0  0  0
   62.7519   32.0972   49.8746 C   0  0  0  0  0  0  0  0  0  0  0  0
   62.8805   32.6640   48.6037 C   0  0  0  0  0  0  0  0  0  0  0  0
   62.2065   32.1030   47.5168 C   0  0  0  0  0  0  0  0  0  0  0  0
   61.4022   30.9731   47.6981 C   0  0  0  0  0  0  0  0  0  0  0  0
   57.9078   31.0668   44.1955 C   0  0  0  0  0  0  0  0  0  0  0  0
   58.3054   32.2321   45.0535 C   0  0  0  0  0  0  0  0  0  0  0  0
   58.6585   33.4581   44.4670 C   0  0  0  0  0  0  0  0  0  0  0  0
   58.9902   34.5526   45.2711 C   0  0  0  0  0  0  0  0  0  0  0  0
   58.9613   34.4354   46.6633 C   0  0  0  0  0  0  0  0  0  0  0  0
   58.5952   33.2224   47.2537 C   0  0  0  0  0  0  0  0  0  0  0  0
   58.2624   32.1245   46.4536 C   0  0  0  0  0  0  0  0  0  0  0  0
 10 11  1  0
 11 12  2  0
 12 13  1  0
 13 14  2  0
 14  1  1  0
  1  2  2  0
  2  3  1  0
  3  4  1  0
  4  5  2  0
  5 27  1  0
 27 28  1  0
 28 29  2  0
 29 30  1  0
 30 31  2  0
 31 32  1  0
 32 33  2  0
  4  6  1  0
  6  7  1  0
  7  8  2  0
  8 18  1  0
 18 19  2  0
 18 20  2  0
 18 21  1  0
 21 22  2  0
 22 23  1  0
 23 24  2  0
 24 25  1  0
 25 26  2  0
  7  9  1  0
 14 15  1  0
 15 16  2  0
 16 11  1  0
  9  2  1  0
 33 28  1  0
 26 21  1  0
 10 17  1  0
M  CHG 1   3  -1
M  CHG 1   6  -1
M  CHG 1   9  -1
M  END
> <UniqueID>
4

> <SMILES>
O=S(=O)(/N=c1\[n-]c(=NCc2ccccc2)[n-]c(=Nc2ccc(O)cc2)[n-]1)c1ccccc1

> <Energy>
60.88119484591963

> <Genealogy>
O=S(=O)(N=c1[n-]c(=NCc2ccccc2)[n-]c(=Nc2ccc(O)cc2)[n-]1)c1ccccc1 (protonated)
O=S(=O)(/N=c1\[n-]c(=NCc2ccccc2)[n-]c(=Nc2ccc(O)cc2)[n-]1)c1ccccc1 (cis-trans isomerization)
O=S(=O)(/N=c1\[n-]c(=NCc2ccccc2)[n-]c(=Nc2ccc(O)cc2)[n-]1)c1ccccc1 (3D coordinates assigned)
O=S(=O)(/N=c1\[n-]c(=NCc2ccccc2)[n-]c(=Nc2ccc(O)cc2)[n-]1)c1ccccc1 (optimized conformer: 60.88119484591963 kcal/mol)

> <smiles>
O=S(=O)(N=c1[nH]c(=NCc2ccccc2)[nH]c(=Nc2ccc(O)cc2)[nH]1)c1ccccc1

> <score_type>
oracle

> <origin>
adg

> <m_score__min__energy>
-14.789999999999999

> <m_primary>
energy

> <minimizedAffinity>
-10.09906

> <minimizedRMSD>
1.04122

> <CNNscore>
0.5401329398

> <CNNaffinity>
6.7382826805

> <CNN_VS>
3.6395683289

> <CNNaffinity_variance>
0.0567381047

$$$$
25:0


 28 32  0  0  0  0  0  0  0  0999 V2000
   60.0138   27.4029   47.9342 C   0  0  0  0  0  0  0  0  0  0  0  0
   60.7929   28.3074   48.4413 N   0  0  0  0  0  0  0  0  0  0  0  0
   60.1697   29.5443   48.2340 N   0  0  0  0  0  0  0  0  0  0  0  0
   60.7371   30.7076   47.8615 C   0  0  0  0  0  0  0  0  0  0  0  0
   61.9361   31.0950   48.1798 N   0  0  0  0  0  0  0  0  0  0  0  0
   59.9284   31.4188   47.0434 N   0  0  0  0  0  0  0  0  0  0  0  0
   58.8580   30.5960   46.9149 C   0  0  0  0  0  0  0  0  0  0  0  0
   57.7706   30.9723   46.3035 N   0  0  0  0  0  0  0  0  0  0  0  0
   59.0219   29.4465   47.6153 N   0  0  0  0  0  0  0  0  0  0  0  0
   58.8586   28.0611   47.2940 C   0  0  0  0  0  0  0  0  0  0  0  0
   58.1060   27.5487   46.3096 C   0  0  0  0  0  0  0  0  0  0  0  0
   57.4546   30.8340   44.9093 C   0  0  0  0  0  0  0  0  0  0  0  0
   56.5868   29.8283   44.4441 C   0  0  0  0  0  0  0  0  0  0  0  0
   56.2795   29.7391   43.0854 C   0  0  0  0  0  0  0  0  0  0  0  0
   56.8177   30.6592   42.1814 C   0  0  0  0  0  0  0  0  0  0  0  0
   57.6702   31.6768   42.6345 C   0  0  0  0  0  0  0  0  0  0  0  0
   58.2075   32.6966   41.6734 C   0  0  0  0  0  0  0  0  0  0  0  0
   57.9635   31.7738   44.0040 C   0  0  0  0  0  0  0  0  0  0  0  0
   57.7673   26.1202   46.2032 C   0  0  0  0  0  0  0  0  0  0  0  0
   58.6860   25.1565   46.0161 N   0  0  0  0  0  0  0  0  0  0  0  0
   57.9457   24.0342   45.8967 C   0  0  0  0  0  0  0  0  0  0  0  0
   58.4593   22.8993   45.7191 O   0  0  0  0  0  0  0  0  0  0  0  0
   56.6117   24.2251   45.9726 N   0  0  0  0  0  0  0  0  0  0  0  0
   56.5133   25.5515   46.1548 C   0  0  0  0  0  0  0  0  0  0  0  0
   55.3015   26.2271   46.2265 O   0  0  0  0  0  0  0  0  0  0  0  0
   62.2565   32.4113   48.7200 C   0  0  0  0  0  0  0  0  0  0  0  0
   63.1189   33.2340   47.7807 C   0  0  0  0  0  0  0  0  0  0  0  0
   63.7303   32.6069   49.0251 C   0  0  0  0  0  0  0  0  0  0  0  0
  1  2  2  0
  2  3  1  0
  3  4  1  0
  4  5  2  0
  5 26  1  0
 26 27  1  0
 27 28  1  0
  4  6  1  0
  6  7  1  0
  7  8  2  0
  8 12  1  0
 12 13  2  0
 13 14  1  0
 14 15  2  0
 15 16  1  0
 16 17  1  0
 16 18  2  0
  7  9  1  0
  9 10  1  0
 10 11  2  0
 11 19  1  0
 19 20  1  0
 20 21  1  0
 21 22  2  0
 21 23  1  0
 23 24  1  0
 24 25  1  0
 10  1  1  0
 24 19  2  0
  9  3  1  0
 28 26  1  0
 18 12  1  0
M  CHG 1   6  -1
M  CHG 1  20  -1
M  CHG 1  23  -1
M  CHG 1  25  -1
M  END
> <UniqueID>
24

> <SMILES>
Cc1cccc(N=c2[n-]/c(=N/C3CC3)n3n2/C(=C/c2[n-]c(=O)[n-]c2[O-])C=N3)c1

> <Energy>
451.2111300041799

> <Genealogy>
Cc1cccc(N=c2[n-]c(=NC3CC3)n3n2C(=Cc2[n-]c(=O)[n-]c2[O-])C=N3)c1 (protonated)
Cc1cccc(N=c2[n-]/c(=N/C3CC3)n3n2/C(=C/c2[n-]c(=O)[n-]c2[O-])C=N3)c1 (cis-trans isomerization)
Cc1cccc(N=c2[n-]/c(=N/C3CC3)n3n2/C(=C/c2[n-]c(=O)[n-]c2[O-])C=N3)c1 (3D coordinates assigned)
Cc1cccc(N=c2[n-]/c(=N/C3CC3)n3n2/C(=C/c2[n-]c(=O)[n-]c2[O-])C=N3)c1 (nonaromatic ring conformer: 451.2111300041799 kcal/mol)

> <smiles>
Cc1cccc(N=c2[nH]c(=NC3CC3)n3n2C(=Cc2[nH]c(=O)[nH]c2O)C=N3)c1

> <score_type>
oracle

> <origin>
adg

> <m_score__min__energy>
-16.809999999999999

> <m_primary>
energy

> <minimizedAffinity>
-7.04941

> <minimizedRMSD>
0.75740

> <CNNscore>
0.2596937418

> <CNNaffinity>
6.4386963844

> <CNN_VS>
1.6720890999

> <CNNaffinity_variance>
0.0538789518

$$$$
26:0


 30 32  0  0  0  0  0  0  0  0999 V2000
   59.0574   30.0990   50.6734 C   0  0  0  0  0  0  0  0  0  0  0  0
   60.1328   29.3086   50.2252 C   0  0  0  0  0  0  0  0  0  0  0  0
   61.0507   29.8200   49.3063 C   0  0  0  0  0  0  0  0  0  0  0  0
   60.9114   31.1215   48.8259 C   0  0  0  0  0  0  0  0  0  0  0  0
   59.8523   31.9314   49.2666 C   0  0  0  0  0  0  0  0  0  0  0  0
   58.9168   31.4119   50.1856 C   0  0  0  0  0  0  0  0  0  0  0  0
   57.8528   32.2116   50.6091 O   0  0  0  0  0  0  0  0  0  0  0  0
   57.7637   33.0849   50.2815 H   0  0  0  0  0  0  0  0  0  0  0  0
   58.1131   29.6151   51.5953 O   0  0  0  0  0  0  0  0  0  0  0  0
   58.3183   29.4924   53.0029 C   0  0  0  0  0  0  0  0  0  0  0  0
   57.5337   31.6788   53.5387 O   0  0  0  0  0  0  0  0  0  0  0  0
   57.4279   30.4436   53.7571 C   0  0  0  0  0  0  0  0  0  0  0  0
   56.4301   29.9936   54.6839 N   0  0  0  0  0  0  0  0  0  0  0  0
   55.4355   28.9496   54.4463 C   0  0  0  0  0  0  0  0  0  0  0  0
   54.0343   29.3991   54.8796 C   0  0  0  0  0  0  0  0  0  0  0  0
   53.2987   30.0795   53.7552 C   0  0  0  0  0  0  0  0  0  0  0  0
   53.8782   30.1695   52.4782 C   0  0  0  0  0  0  0  0  0  0  0  0
   53.2073   30.8322   51.4443 C   0  0  0  0  0  0  0  0  0  0  0  0
   51.9572   31.4148   51.6795 C   0  0  0  0  0  0  0  0  0  0  0  0
   51.2939   32.0725   50.6532 O   0  0  0  0  0  0  0  0  0  0  0  0
   51.3795   31.3369   52.9513 C   0  0  0  0  0  0  0  0  0  0  0  0
   52.0485   30.6764   53.9863 C   0  0  0  0  0  0  0  0  0  0  0  0
   59.7025   33.3208   48.7015 C   0  0  0  0  0  0  0  0  0  0  0  0
   59.0543   33.2609   47.3517 C   0  0  0  0  0  0  0  0  0  0  0  0
   58.2617   32.3084   46.9863 N   0  0  0  0  0  0  0  0  0  0  0  0
   57.8199   32.6683   45.6763 C   0  0  0  0  0  0  0  0  0  0  0  0
   57.0321   31.9533   45.0044 O   0  0  0  0  0  0  0  0  0  0  0  0
   58.3413   33.9043   45.1959 N   0  0  0  0  0  0  0  0  0  0  0  0
   59.1399   34.2724   46.3093 C   0  0  0  0  0  0  0  0  0  0  0  0
   59.8214   35.3295   46.3616 O   0  0  0  0  0  0  0  0  0  0  0  0
 11 12  2  0
 12 10  1  0
 10  9  1  0
  9  1  1  0
  1  2  2  0
  2  3  1  0
  3  4  2  0
  4  5  1  0
  5 23  1  0
 23 24  1  0
 24 25  2  0
 25 26  1  0
 26 27  2  0
 26 28  1  0
 28 29  1  0
 29 30  2  0
  5  6  2  0
  6  7  1  0
 12 13  1  0
 13 14  1  0
 14 15  1  0
 15 16  1  0
 16 17  2  0
 17 18  1  0
 18 19  2  0
 19 20  1  0
 19 21  1  0
 21 22  2  0
  6  1  1  0
 22 16  1  0
 29 24  1  0
  7  8  1  0
M  CHG 1  13  -1
M  CHG 1  20  -1
M  CHG 1  28  -1
M  END
> <UniqueID>
25

> <SMILES>
O=C(COc1cccc(CC2=NC(=O)[N-]C2=O)c1O)[N-]CCc1ccc([O-])cc1

> <Energy>
68.70974446416317

> <Genealogy>
O=C(COc1cccc(CC2=NC(=O)[N-]C2=O)c1O)[N-]CCc1ccc([O-])cc1 (protonated)
O=C(COc1cccc(CC2=NC(=O)[N-]C2=O)c1O)[N-]CCc1ccc([O-])cc1 (3D coordinates assigned)
O=C(COc1cccc(CC2=NC(=O)[N-]C2=O)c1O)[N-]CCc1ccc([O-])cc1 (nonaromatic ring conformer: 68.70974446416317 kcal/mol)

> <smiles>
O=C(COc1cccc(CC2=NC(=O)NC2=O)c1O)NCCc1ccc(O)cc1

> <score_type>
oracle

> <origin>
adg

> <m_score__min__energy>
-14.15

> <m_primary>
energy

> <minimizedAffinity>
-6.59471

> <minimizedRMSD>
1.08427

> <CNNscore>
0.1367293149

> <CNNaffinity>
4.9035983086

> <CNN_VS>
0.6704656482

> <CNNaffinity_variance>
0.1460357308

$$$$
44:0


 35 38  0  0  0  0  0  0  0  0999 V2000
   61.0529   30.2164   48.8937 N   0  0  0  0  0  0  0  0  0  0  0  0
   61.9579   31.2367   49.2737 C   0  0  0  0  0  0  0  0  0  0  0  0
   63.2035   31.0706   49.3623 O   0  0  0  0  0  0  0  0  0  0  0  0
   61.3199   32.4820   49.5188 N   0  0  0  0  0  0  0  0  0  0  0  0
   59.8839   32.3288   49.2642 C   0  0  0  0  0  0  0  0  0  0  0  0
   59.7926   30.8758   48.8507 C   0  0  0  0  0  0  0  0  0  0  0  0
   58.7335   30.3085   48.4644 O   0  0  0  0  0  0  0  0  0  0  0  0
   61.7669   33.3092   49.8107 H   0  0  0  0  0  0  0  0  0  0  0  0
   59.4231   33.1957   48.0919 C   0  0  0  0  0  0  0  0  0  0  0  0
   60.2554   34.1913   47.5349 C   0  0  0  0  0  0  0  0  0  0  0  0
   59.8320   34.9382   46.4327 C   0  0  0  0  0  0  0  0  0  0  0  0
   58.5844   34.6937   45.8563 C   0  0  0  0  0  0  0  0  0  0  0  0
   57.7597   33.6947   46.3755 C   0  0  0  0  0  0  0  0  0  0  0  0
   58.1785   32.9424   47.4768 C   0  0  0  0  0  0  0  0  0  0  0  0
   59.1321   32.6583   50.5564 C   0  0  0  0  0  0  0  0  0  0  0  0
   58.0439   31.8857   51.0218 C   0  0  0  0  0  0  0  0  0  0  0  0
   57.4095   32.2034   52.2258 C   0  0  0  0  0  0  0  0  0  0  0  0
   57.8552   33.2825   52.9915 C   0  0  0  0  0  0  0  0  0  0  0  0
   58.9449   34.0396   52.5605 C   0  0  0  0  0  0  0  0  0  0  0  0
   59.5852   33.7258   51.3591 C   0  0  0  0  0  0  0  0  0  0  0  0
   61.3890   28.9645   48.2198 C   0  0  0  0  0  0  0  0  0  0  0  0
   60.6860   27.8083   48.8795 C   0  0  0  0  0  0  0  0  0  0  0  0
   60.5778   27.7873   50.1348 O   0  0  0  0  0  0  0  0  0  0  0  0
   60.1766   26.7005   48.1246 N   0  0  0  0  0  0  0  0  0  0  0  0
   57.5488   27.8414   45.6946 C   0  0  0  0  0  0  0  0  0  0  0  0
   56.7334   26.7029   45.6529 C   0  0  0  0  0  0  0  0  0  0  0  0
   57.0555   25.5812   46.4230 C   0  0  0  0  0  0  0  0  0  0  0  0
   58.1967   25.5892   47.2306 C   0  0  0  0  0  0  0  0  0  0  0  0
   59.0312   26.7119   47.2634 C   0  0  0  0  0  0  0  0  0  0  0  0
   58.6866   27.8510   46.5122 C   0  0  0  0  0  0  0  0  0  0  0  0
   55.4102   29.4762   44.7692 N   0  0  0  0  0  0  0  0  0  0  0  0
   57.1256   29.2668   44.7517 S   0  0  0  0  0  0  0  0  0  0  0  0
   57.5992   29.1006   43.3356 O   0  0  0  0  0  0  0  0  0  0  0  0
   57.7866   30.4816   45.3436 O   0  0  0  0  0  0  0  0  0  0  0  0
   55.1629   30.3016   44.2233 H   0  0  0  0  0  0  0  0  0  0  0  0
 31 32  1  0
 32 33  2  0
 32 34  2  0
 32 25  1  0
 25 26  2  0
 26 27  1  0
 27 28  2  0
 28 29  1  0
 29 24  1  0
 24 22  1  0
 22 23  2  0
 22 21  1  0
 21  1  1  0
  1  2  1  0
  2  3  2  0
  2  4  1  0
  4  5  1  0
  5  9  1  0
  9 10  2  0
 10 11  1  0
 11 12  2  0
 12 13  1  0
 13 14  2  0
  5 15  1  0
 15 16  2  0
 16 17  1  0
 17 18  2  0
 18 19  1  0
 19 20  2  0
  5  6  1  0
  6  7  2  0
 29 30  2  0
 30 25  1  0
  6  1  1  0
 14  9  1  0
 20 15  1  0
 31 35  1  0
  4  8  1  0
M  CHG 1  24  -1
M  CHG 1  31  -1
M  END
> <UniqueID>
43

> <SMILES>
[NH-]S(=O)(=O)c1cccc([N-]C(=O)CN2C(=O)NC(c3ccccc3)(c3ccccc3)C2=O)c1

> <Energy>
83.20598600362128

> <Genealogy>
[NH-]S(=O)(=O)c1cccc([N-]C(=O)CN2C(=O)NC(c3ccccc3)(c3ccccc3)C2=O)c1 (protonated)
[NH-]S(=O)(=O)c1cccc([N-]C(=O)CN2C(=O)NC(c3ccccc3)(c3ccccc3)C2=O)c1 (3D coordinates assigned)
[NH-]S(=O)(=O)c1cccc([N-]C(=O)CN2C(=O)NC(c3ccccc3)(c3ccccc3)C2=O)c1 (nonaromatic ring conformer: 83.20598600362128 kcal/mol)

> <smiles>
NS(=O)(=O)c1cccc(NC(=O)CN2C(=O)NC(c3ccccc3)(c3ccccc3)C2=O)c1

> <score_type>
oracle

> <origin>
adg

> <m_score__min__energy>
-14.470000000000001

> <m_primary>
energy

> <minimizedAffinity>
-5.93219

> <minimizedRMSD>
0.39533

> <CNNscore>
0.6025897861

> <CNNaffinity>
6.9514231682

> <CNN_VS>
4.1888566017

> <CNNaffinity_variance>
0.4468437433

$$$$
25:0


 28 30  0  0  0  0  0  0  0  0999 V2000
   58.6097   31.7612   46.4604 C   0  0  0  0  0  0  0  0  0  0  0  0
   58.6482   33.1055   46.0644 C   0  0  0  0  0  0  0  0  0  0  0  0
   58.3434   33.4622   44.7498 C   0  0  0  0  0  0  0  0  0  0  0  0
   57.9979   32.4789   43.8213 C   0  0  0  0  0  0  0  0  0  0  0  0
   57.9701   31.1353   44.2022 C   0  0  0  0  0  0  0  0  0  0  0  0
   58.2945   30.7612   45.5195 C   0  0  0  0  0  0  0  0  0  0  0  0
   59.3071   30.2477   48.1286 O   0  0  0  0  0  0  0  0  0  0  0  0
   58.9232   31.4151   47.8557 C   0  0  0  0  0  0  0  0  0  0  0  0
   58.8256   32.3832   48.9030 N   0  0  0  0  0  0  0  0  0  0  0  0
   59.9565   32.8160   49.7132 C   0  0  0  0  0  0  0  0  0  0  0  0
   61.1964   32.8463   48.8626 C   0  0  0  0  0  0  0  0  0  0  0  0
   61.3232   33.8113   47.8501 C   0  0  0  0  0  0  0  0  0  0  0  0
   62.4745   33.8632   47.0604 C   0  0  0  0  0  0  0  0  0  0  0  0
   63.5143   32.9594   47.2821 C   0  0  0  0  0  0  0  0  0  0  0  0
   63.4079   32.0050   48.2933 C   0  0  0  0  0  0  0  0  0  0  0  0
   62.2561   31.9398   49.0843 C   0  0  0  0  0  0  0  0  0  0  0  0
   62.1765   30.7170   50.3466 Cl  0  0  0  0  0  0  0  0  0  0  0  0
   58.2623   29.3854   45.9339 N   0  0  0  0  0  0  0  0  0  0  0  0
   57.2447   28.4276   45.6107 C   0  0  0  0  0  0  0  0  0  0  0  0
   56.1402   28.8215   45.1487 O   0  0  0  0  0  0  0  0  0  0  0  0
   57.5011   26.9728   45.7686 C   0  0  0  0  0  0  0  0  0  0  0  0
   58.8127   26.4741   45.6711 C   0  0  0  0  0  0  0  0  0  0  0  0
   59.0533   25.1439   45.8006 N   0  0  0  0  0  0  0  0  0  0  0  0
   58.0405   24.2706   46.0201 C   0  0  0  0  0  0  0  0  0  0  0  0
   58.2835   23.0422   46.1292 O   0  0  0  0  0  0  0  0  0  0  0  0
   56.7641   24.7207   46.1189 N   0  0  0  0  0  0  0  0  0  0  0  0
   56.4693   26.0410   46.0020 C   0  0  0  0  0  0  0  0  0  0  0  0
   55.2676   26.4069   46.0957 O   0  0  0  0  0  0  0  0  0  0  0  0
  7  8  2  0
  8  9  1  0
  9 10  1  0
 10 11  1  0
 11 12  2  0
 12 13  1  0
 13 14  2  0
 14 15  1  0
 15 16  2  0
 16 17  1  0
  8  1  1  0
  1  2  2  0
  2  3  1  0
  3  4  2  0
  4  5  1  0
  5  6  2  0
  6 18  1  0
 18 19  1  0
 19 20  2  0
 19 21  1  0
 21 22  2  0
 22 23  1  0
 23 24  1  0
 24 25  2  0
 24 26  1  0
 26 27  1  0
 27 28  2  0
 16 11  1  0
  6  1  1  0
 27 21  1  0
M  CHG 1   9  -1
M  CHG 1  18  -1
M  CHG 1  23  -1
M  CHG 1  26  -1
M  END
> <UniqueID>
22

> <SMILES>
O=C([N-]Cc1ccccc1Cl)c1ccccc1[N-]C(=O)c1c[n-]c(=O)[n-]c1=O

> <Energy>
55.03414565262188

> <Genealogy>
O=C([N-]Cc1ccccc1Cl)c1ccccc1[N-]C(=O)c1c[n-]c(=O)[n-]c1=O (protonated)
O=C([N-]Cc1ccccc1Cl)c1ccccc1[N-]C(=O)c1c[n-]c(=O)[n-]c1=O (3D coordinates assigned)
O=C([N-]Cc1ccccc1Cl)c1ccccc1[N-]C(=O)c1c[n-]c(=O)[n-]c1=O (optimized conformer: 55.03414565262188 kcal/mol)

> <smiles>
O=C(NCc1ccccc1Cl)c1ccccc1NC(=O)c1c[nH]c(=O)[nH]c1=O

> <score_type>
oracle

> <origin>
adg

> <m_score__min__energy>
-15.470000000000001

> <m_primary>
energy

> <minimizedAffinity>
-7.45751

> <minimizedRMSD>
0.83679

> <CNNscore>
0.6341109872

> <CNNaffinity>
6.8202834129

> <CNN_VS>
4.3248167038

> <CNNaffinity_variance>
0.1542575955

$$$$
44:0


 28 30  0  0  0  0  0  0  0  0999 V2000
   59.3770   32.5123   49.2988 C   0  0  0  0  0  0  0  0  0  0  0  0
   60.5184   33.3073   49.4417 C   0  0  0  0  0  0  0  0  0  0  0  0
   60.9090   34.1666   48.4133 C   0  0  0  0  0  0  0  0  0  0  0  0
   60.1661   34.2326   47.2321 C   0  0  0  0  0  0  0  0  0  0  0  0
   59.0132   33.4425   47.0707 C   0  0  0  0  0  0  0  0  0  0  0  0
   58.6187   32.5919   48.1209 C   0  0  0  0  0  0  0  0  0  0  0  0
   58.9487   31.3708   50.5706 S   0  0  0  0  0  0  0  0  0  0  0  0
   60.0166   31.4068   51.6271 O   0  0  0  0  0  0  0  0  0  0  0  0
   57.6390   31.7566   51.2038 O   0  0  0  0  0  0  0  0  0  0  0  0
   58.8454   29.7591   49.9156 N   0  0  0  0  0  0  0  0  0  0  0  0
   58.4263   29.1442   50.6132 H   0  0  0  0  0  0  0  0  0  0  0  0
   60.1691   29.2389   49.5552 C   0  0  0  0  0  0  0  0  0  0  0  0
   60.1581   27.7382   45.5116 C   0  0  0  0  0  0  0  0  0  0  0  0
   60.0232   26.8523   46.5837 C   0  0  0  0  0  0  0  0  0  0  0  0
   60.0416   27.3339   47.8964 C   0  0  0  0  0  0  0  0  0  0  0  0
   60.1843   28.7097   48.1453 C   0  0  0  0  0  0  0  0  0  0  0  0
   60.3418   29.5907   47.0616 C   0  0  0  0  0  0  0  0  0  0  0  0
   60.3219   29.1062   45.7497 C   0  0  0  0  0  0  0  0  0  0  0  0
   58.2466   33.4763   45.8031 C   0  0  0  0  0  0  0  0  0  0  0  0
   57.3455   34.3460   45.6400 O   0  0  0  0  0  0  0  0  0  0  0  0
   58.5287   32.5167   44.7707 N   0  0  0  0  0  0  0  0  0  0  0  0
   57.7831   31.5013   44.4373 C   0  0  0  0  0  0  0  0  0  0  0  0
   57.3724   30.5474   45.3039 N   0  0  0  0  0  0  0  0  0  0  0  0
   56.6732   29.7044   44.5170 C   0  0  0  0  0  0  0  0  0  0  0  0
   56.0563   28.5511   44.9810 O   0  0  0  0  0  0  0  0  0  0  0  0
   56.6666   30.1402   43.2119 C   0  0  0  0  0  0  0  0  0  0  0  0
   57.3609   31.2882   43.1720 N   0  0  0  0  0  0  0  0  0  0  0  0
   57.6832   32.0700   41.9827 C   0  0  0  0  0  0  0  0  0  0  0  0
 13 14  2  0
 14 15  1  0
 15 16  2  0
 16 12  1  0
 12 10  1  0
 10  7  1  0
  7  8  2  0
  7  9  2  0
  7  1  1  0
  1  2  2  0
  2  3  1  0
  3  4  2  0
  4  5  1  0
  5 19  1  0
 19 20  2  0
 19 21  1  0
 21 22  2  0
 22 23  1  0
 23 24  1  0
 24 25  1  0
 24 26  2  0
 26 27  1  0
 27 28  1  0
  5  6  2  0
 16 17  1  0
 17 18  2  0
 18 13  1  0
  6  1  1  0
 27 22  1  0
 10 11  1  0
M  CHG 1  23  -1
M  CHG 1  25  -1
M  END
> <UniqueID>
41

> <SMILES>
Cn1cc([O-])[n-]/c1=N\C(=O)c1cccc(S(=O)(=O)NCc2ccccc2)c1

> <Energy>
73.09982729134956

> <Genealogy>
Cn1cc([O-])[n-]c1=NC(=O)c1cccc(S(=O)(=O)NCc2ccccc2)c1 (protonated)
Cn1cc([O-])[n-]/c1=N\C(=O)c1cccc(S(=O)(=O)NCc2ccccc2)c1 (cis-trans isomerization)
Cn1cc([O-])[n-]/c1=N\C(=O)c1cccc(S(=O)(=O)NCc2ccccc2)c1 (3D coordinates assigned)
Cn1cc([O-])[n-]/c1=N\C(=O)c1cccc(S(=O)(=O)NCc2ccccc2)c1 (optimized conformer: 73.09982729134956 kcal/mol)

> <smiles>
Cn1cc(O)[nH]c1=NC(=O)c1cccc(S(=O)(=O)NCc2ccccc2)c1

> <score_type>
oracle

> <origin>
adg

> <m_score__min__energy>
-15.029999999999999

> <m_primary>
energy

> <minimizedAffinity>
-7.45792

> <minimizedRMSD>
0.86523

> <CNNscore>
0.3691652119

> <CNNaffinity>
6.1533064842

> <CNN_VS>
2.2715866566

> <CNNaffinity_variance>
0.0538223945

$$$$
48:0


 24 26  0  0  0  0  0  0  0  0999 V2000
   60.2287   30.3285   47.3158 C   0  0  0  0  0  0  0  0  0  0  0  0
   59.8707   31.4432   46.6592 C   0  0  0  0  0  0  0  0  0  0  0  0
   59.0467   31.5369   45.5234 C   0  0  0  0  0  0  0  0  0  0  0  0
   58.5465   30.5840   44.7097 C   0  0  0  0  0  0  0  0  0  0  0  0
   58.8024   32.8862   45.3303 C   0  0  0  0  0  0  0  0  0  0  0  0
   59.5163   33.5647   46.2950 C   0  0  0  0  0  0  0  0  0  0  0  0
   59.5455   35.0559   46.4390 C   0  0  0  0  0  0  0  0  0  0  0  0
   60.1629   32.6937   47.1011 N   0  0  0  0  0  0  0  0  0  0  0  0
   58.4031   29.1547   45.0471 C   0  0  0  0  0  0  0  0  0  0  0  0
   57.1319   28.6047   45.2636 C   0  0  0  0  0  0  0  0  0  0  0  0
   55.9956   29.4052   45.2148 O   0  0  0  0  0  0  0  0  0  0  0  0
   57.0038   27.2790   45.5346 N   0  0  0  0  0  0  0  0  0  0  0  0
   58.0903   26.4661   45.5841 C   0  0  0  0  0  0  0  0  0  0  0  0
   57.9037   24.8780   45.9140 S   0  0  0  0  0  0  0  0  0  0  0  0
   59.3282   26.9684   45.3499 N   0  0  0  0  0  0  0  0  0  0  0  0
   59.5094   28.2871   45.0740 C   0  0  0  0  0  0  0  0  0  0  0  0
   60.6711   28.7154   44.8389 O   0  0  0  0  0  0  0  0  0  0  0  0
   60.9883   33.0460   48.2265 C   0  0  0  0  0  0  0  0  0  0  0  0
   60.4238   33.1932   49.5034 C   0  0  0  0  0  0  0  0  0  0  0  0
   61.2271   33.5445   50.5926 C   0  0  0  0  0  0  0  0  0  0  0  0
   62.5993   33.7498   50.4132 C   0  0  0  0  0  0  0  0  0  0  0  0
   63.3956   34.0974   51.4970 O   0  0  0  0  0  0  0  0  0  0  0  0
   63.1681   33.6049   49.1447 C   0  0  0  0  0  0  0  0  0  0  0  0
   62.3665   33.2545   48.0534 C   0  0  0  0  0  0  0  0  0  0  0  0
  1  2  2  0
  2  3  1  0
  3  4  2  0
  4  9  1  0
  9 10  2  0
 10 11  1  0
 10 12  1  0
 12 13  1  0
 13 14  2  0
 13 15  1  0
 15 16  1  0
 16 17  2  0
  3  5  1  0
  5  6  2  0
  6  7  1  0
  6  8  1  0
  8 18  1  0
 18 19  2  0
 19 20  1  0
 20 21  2  0
 21 22  1  0
 21 23  1  0
 23 24  2  0
  8  2  1  0
 24 18  1  0
 16  9  1  0
M  CHG 1  11  -1
M  CHG 1  12  -1
M  CHG 1  15  -1
M  CHG 1  22  -1
M  END
> <UniqueID>
44

> <SMILES>
C=c1c(=Cc2c([O-])[n-]c(=S)[n-]c2=O)cc(C)n1-c1ccc([O-])cc1

> <Energy>
86.55286140229263

> <Genealogy>
C=c1c(=Cc2c([O-])[n-]c(=S)[n-]c2=O)cc(C)n1-c1ccc([O-])cc1 (protonated)
C=c1c(=Cc2c([O-])[n-]c(=S)[n-]c2=O)cc(C)n1-c1ccc([O-])cc1 (3D coordinates assigned)
C=c1c(=Cc2c([O-])[n-]c(=S)[n-]c2=O)cc(C)n1-c1ccc([O-])cc1 (optimized conformer: 86.55286140229263 kcal/mol)

> <smiles>
C=c1c(=Cc2c(O)[nH]c(=S)[nH]c2=O)cc(C)n1-c1ccc(O)cc1

> <score_type>
oracle

> <origin>
adg

> <m_score__min__energy>
-15.49

> <m_primary>
energy

> <minimizedAffinity>
-7.70226

> <minimizedRMSD>
1.34767

> <CNNscore>
0.3868529797

> <CNNaffinity>
6.5432801247

> <CNN_VS>
2.5312874317

> <CNNaffinity_variance>
0.2714098990

$$$$
53:0


 35 38  0  0  0  0  0  0  0  0999 V2000
   58.4822   32.8171   45.3587 C   0  0  0  0  0  0  0  0  0  0  0  0
   58.7487   34.1108   44.8607 C   0  0  0  0  0  0  0  0  0  0  0  0
   59.3785   35.0641   45.6636 C   0  0  0  0  0  0  0  0  0  0  0  0
   59.7418   34.7489   46.9747 C   0  0  0  0  0  0  0  0  0  0  0  0
   59.4766   33.4783   47.4949 C   0  0  0  0  0  0  0  0  0  0  0  0
   58.8641   32.5167   46.6801 C   0  0  0  0  0  0  0  0  0  0  0  0
   59.8788   33.0948   49.1766 S   0  0  0  0  0  0  0  0  0  0  0  0
   59.0974   34.0007   50.0862 O   0  0  0  0  0  0  0  0  0  0  0  0
   59.4668   31.6761   49.4615 O   0  0  0  0  0  0  0  0  0  0  0  0
   61.5810   33.3166   49.5292 N   0  0  0  0  0  0  0  0  0  0  0  0
   61.8649   33.3714   50.9862 C   0  0  0  0  0  0  0  0  0  0  0  0
   63.0053   32.4419   51.4429 C   0  0  0  0  0  0  0  0  0  0  0  0
   64.1415   32.5029   50.5133 N   0  0  0  0  0  0  0  0  0  0  0  0
   63.8794   32.5860   49.0671 C   0  0  0  0  0  0  0  0  0  0  0  0
   62.3982   32.3461   48.7782 C   0  0  0  0  0  0  0  0  0  0  0  0
   65.4892   32.2800   50.9838 C   0  0  0  0  0  0  0  0  0  0  0  0
   66.4824   33.2565   50.7865 C   0  0  0  0  0  0  0  0  0  0  0  0
   67.7969   33.0301   51.2130 C   0  0  0  0  0  0  0  0  0  0  0  0
   68.1362   31.8297   51.8381 C   0  0  0  0  0  0  0  0  0  0  0  0
   67.1622   30.8560   52.0407 C   0  0  0  0  0  0  0  0  0  0  0  0
   65.8456   31.0746   51.6177 C   0  0  0  0  0  0  0  0  0  0  0  0
   57.8627   31.7869   44.4743 C   0  0  0  0  0  0  0  0  0  0  0  0
   57.9224   31.9222   43.2202 O   0  0  0  0  0  0  0  0  0  0  0  0
   57.2449   30.6040   44.9989 N   0  0  0  0  0  0  0  0  0  0  0  0
   57.8711   26.9852   45.8035 C   0  0  0  0  0  0  0  0  0  0  0  0
   59.2732   26.9707   45.8108 C   0  0  0  0  0  0  0  0  0  0  0  0
   59.9909   28.1410   45.5418 C   0  0  0  0  0  0  0  0  0  0  0  0
   59.3126   29.3305   45.2643 C   0  0  0  0  0  0  0  0  0  0  0  0
   57.9123   29.3615   45.2660 C   0  0  0  0  0  0  0  0  0  0  0  0
   57.1916   28.1809   45.5246 C   0  0  0  0  0  0  0  0  0  0  0  0
   55.2805   25.8483   46.0791 N   0  0  0  0  0  0  0  0  0  0  0  0
   56.9751   25.4984   46.0894 S   0  0  0  0  0  0  0  0  0  0  0  0
   57.3558   24.9075   47.4200 O   0  0  0  0  0  0  0  0  0  0  0  0
   57.2920   24.5021   45.0094 O   0  0  0  0  0  0  0  0  0  0  0  0
   54.7551   24.9898   46.2444 H   0  0  0  0  0  0  0  0  0  0  0  0
 31 32  1  0
 32 33  2  0
 32 34  2  0
 32 25  1  0
 25 26  2  0
 26 27  1  0
 27 28  2  0
 28 29  1  0
 29 24  1  0
 24 22  1  0
 22 23  2  0
 22  1  1  0
  1  2  2  0
  2  3  1  0
  3  4  2  0
  4  5  1  0
  5  7  1  0
  7  8  2  0
  7  9  2  0
  7 10  1  0
 10 11  1  0
 11 12  1  0
 12 13  1  0
 13 16  1  0
 16 17  2  0
 17 18  1  0
 18 19  2  0
 19 20  1  0
 20 21  2  0
 13 14  1  0
 14 15  1  0
  5  6  2  0
 29 30  2  0
 30 25  1  0
  6  1  1  0
 15 10  1  0
 21 16  1  0
 31 35  1  0
M  CHG 1  24  -1
M  CHG 1  31  -1
M  END
> <UniqueID>
45

> <SMILES>
[NH-]S(=O)(=O)c1cccc([N-]C(=O)c2cccc(S(=O)(=O)N3CCN(c4ccccc4)CC3)c2)c1

> <Energy>
74.64128718943518

> <Genealogy>
[NH-]S(=O)(=O)c1cccc([N-]C(=O)c2cccc(S(=O)(=O)N3CCN(c4ccccc4)CC3)c2)c1 (protonated)
[NH-]S(=O)(=O)c1cccc([N-]C(=O)c2cccc(S(=O)(=O)N3CCN(c4ccccc4)CC3)c2)c1 (3D coordinates assigned)
[NH-]S(=O)(=O)c1cccc([N-]C(=O)c2cccc(S(=O)(=O)N3CCN(c4ccccc4)CC3)c2)c1 (nonaromatic ring conformer: 74.64128718943518 kcal/mol)

> <smiles>
NS(=O)(=O)c1cccc(NC(=O)c2cccc(S(=O)(=O)N3CCN(c4ccccc4)CC3)c2)c1

> <score_type>
oracle

> <origin>
adg

> <m_score__min__energy>
-14.539999999999999

> <m_primary>
energy

> <minimizedAffinity>
-9.44265

> <minimizedRMSD>
0.56547

> <CNNscore>
0.8954201937

> <CNNaffinity>
7.5307197571

> <CNN_VS>
6.7431583405

> <CNNaffinity_variance>
0.0282538533

$$$$
12:0


 30 33  0  0  0  0  0  0  0  0999 V2000
   60.3433   30.8157   48.6473 C   0  0  0  0  0  0  0  0  0  0  0  0
   59.3904   29.9518   49.2065 C   0  0  0  0  0  0  0  0  0  0  0  0
   59.1055   28.7269   48.6036 C   0  0  0  0  0  0  0  0  0  0  0  0
   59.7647   28.3436   47.4211 C   0  0  0  0  0  0  0  0  0  0  0  0
   60.6920   29.2277   46.8418 C   0  0  0  0  0  0  0  0  0  0  0  0
   60.9814   30.4514   47.4520 C   0  0  0  0  0  0  0  0  0  0  0  0
   59.5061   27.0187   46.8074 C   0  0  0  0  0  0  0  0  0  0  0  0
   60.3714   26.4889   46.0596 O   0  0  0  0  0  0  0  0  0  0  0  0
   58.2494   26.3493   46.9895 N   0  0  0  0  0  0  0  0  0  0  0  0
   57.7700   25.3445   46.3077 C   0  0  0  0  0  0  0  0  0  0  0  0
   58.6183   24.3224   46.0068 N   0  0  0  0  0  0  0  0  0  0  0  0
   58.2295   23.2354   45.2901 C   0  0  0  0  0  0  0  0  0  0  0  0
   56.9171   23.1293   44.8388 C   0  0  0  0  0  0  0  0  0  0  0  0
   56.0095   24.1425   45.1418 C   0  0  0  0  0  0  0  0  0  0  0  0
   56.4189   25.2559   45.8806 C   0  0  0  0  0  0  0  0  0  0  0  0
   55.4706   26.2236   46.1961 O   0  0  0  0  0  0  0  0  0  0  0  0
   60.7218   32.0935   49.3499 C   0  0  0  0  0  0  0  0  0  0  0  0
   58.5087   32.7023   45.6685 C   0  0  0  0  0  0  0  0  0  0  0  0
   58.9296   32.4613   46.9407 N   0  0  0  0  0  0  0  0  0  0  0  0
   59.4870   33.4379   47.7094 C   0  0  0  0  0  0  0  0  0  0  0  0
   59.8539   33.1973   48.9347 N   0  0  0  0  0  0  0  0  0  0  0  0
   59.6470   34.6850   47.2001 N   0  0  0  0  0  0  0  0  0  0  0  0
   59.2625   34.9752   45.9306 C   0  0  0  0  0  0  0  0  0  0  0  0
   58.6835   33.9883   45.1314 C   0  0  0  0  0  0  0  0  0  0  0  0
   56.7422   29.5640   43.3607 C   0  0  0  0  0  0  0  0  0  0  0  0
   57.0049   30.7780   42.8123 N   0  0  0  0  0  0  0  0  0  0  0  0
   57.5607   31.7864   43.5343 C   0  0  0  0  0  0  0  0  0  0  0  0
   57.8828   31.5993   44.8903 C   0  0  0  0  0  0  0  0  0  0  0  0
   57.6244   30.3410   45.4642 C   0  0  0  0  0  0  0  0  0  0  0  0
   57.0464   29.3244   44.6999 C   0  0  0  0  0  0  0  0  0  0  0  0
 25 26  2  0
 26 27  1  0
 27 28  2  0
 28 18  1  0
 18 19  2  0
 19 20  1  0
 20 21  2  0
 21 17  1  0
 17  1  1  0
  1  2  2  0
  2  3  1  0
  3  4  2  0
  4  7  1  0
  7  8  2  0
  7  9  1  0
  9 10  2  0
 10 11  1  0
 11 12  1  0
 12 13  2  0
 13 14  1  0
 14 15  2  0
 15 16  1  0
  4  5  1  0
  5  6  2  0
 20 22  1  0
 22 23  1  0
 23 24  2  0
 28 29  1  0
 29 30  2  0
 30 25  1  0
 24 18  1  0
  6  1  1  0
 15 10  1  0
M  CHG 1  11  -1
M  CHG 1  16  -1
M  CHG 1  22  -1
M  END
> <UniqueID>
10

> <SMILES>
O=C(/N=c1/[n-]cccc1[O-])c1ccc(CN=c2nc(-c3cccnc3)cc[n-]2)cc1

> <Energy>
65.47074489956361

> <Genealogy>
O=C(N=c1[n-]cccc1[O-])c1ccc(CN=c2nc(-c3cccnc3)cc[n-]2)cc1 (protonated)
O=C(/N=c1/[n-]cccc1[O-])c1ccc(CN=c2nc(-c3cccnc3)cc[n-]2)cc1 (cis-trans isomerization)
O=C(/N=c1/[n-]cccc1[O-])c1ccc(CN=c2nc(-c3cccnc3)cc[n-]2)cc1 (3D coordinates assigned)
O=C(/N=c1/[n-]cccc1[O-])c1ccc(CN=c2nc(-c3cccnc3)cc[n-]2)cc1 (optimized conformer: 65.47074489956361 kcal/mol)

> <smiles>
O=C(N=c1[nH]cccc1O)c1ccc(CN=c2nc(-c3cccnc3)cc[nH]2)cc1

> <score_type>
oracle

> <origin>
adg

> <m_score__min__energy>
-15.56

> <m_primary>
energy

> <minimizedAffinity>
-8.45846

> <minimizedRMSD>
0.74535

> <CNNscore>
0.4555005133

> <CNNaffinity>
6.8434462547

> <CNN_VS>
3.1171932220

> <CNNaffinity_variance>
0.1497271955

$$$$
23:0


 27 31  0  0  0  0  0  0  0  0999 V2000
   57.3708   29.5051   44.1159 C   0  0  0  0  0  0  0  0  0  0  0  0
   57.0991   30.6322   44.7055 N   0  0  0  0  0  0  0  0  0  0  0  0
   57.6222   30.5537   46.0051 N   0  0  0  0  0  0  0  0  0  0  0  0
   58.2745   31.5180   46.6833 C   0  0  0  0  0  0  0  0  0  0  0  0
   57.9839   32.7848   46.6523 N   0  0  0  0  0  0  0  0  0  0  0  0
   59.3400   31.0273   47.3576 N   0  0  0  0  0  0  0  0  0  0  0  0
   59.3150   29.7182   46.9977 C   0  0  0  0  0  0  0  0  0  0  0  0
   60.2384   28.8537   47.3001 N   0  0  0  0  0  0  0  0  0  0  0  0
   58.2446   29.4248   46.2283 N   0  0  0  0  0  0  0  0  0  0  0  0
   58.1163   28.6463   45.0445 C   0  0  0  0  0  0  0  0  0  0  0  0
   58.5334   27.3955   44.8191 C   0  0  0  0  0  0  0  0  0  0  0  0
   57.9902   26.2062   45.4947 C   0  0  0  0  0  0  0  0  0  0  0  0
   58.6396   25.0307   45.5621 N   0  0  0  0  0  0  0  0  0  0  0  0
   57.7592   24.2204   46.1846 C   0  0  0  0  0  0  0  0  0  0  0  0
   58.0145   23.0160   46.4470 O   0  0  0  0  0  0  0  0  0  0  0  0
   56.5784   24.7972   46.4962 N   0  0  0  0  0  0  0  0  0  0  0  0
   56.7356   26.0505   46.0432 C   0  0  0  0  0  0  0  0  0  0  0  0
   55.7409   27.0190   46.1035 O   0  0  0  0  0  0  0  0  0  0  0  0
   60.5187   28.3046   48.5983 C   0  0  0  0  0  0  0  0  0  0  0  0
   60.5019   26.9183   48.8480 C   0  0  0  0  0  0  0  0  0  0  0  0
   60.7441   26.4333   50.1375 C   0  0  0  0  0  0  0  0  0  0  0  0
   60.9860   27.3235   51.1879 C   0  0  0  0  0  0  0  0  0  0  0  0
   60.9721   28.7001   50.9534 C   0  0  0  0  0  0  0  0  0  0  0  0
   60.7297   29.1890   49.6651 C   0  0  0  0  0  0  0  0  0  0  0  0
   57.5194   33.4898   45.4621 C   0  0  0  0  0  0  0  0  0  0  0  0
   58.5816   33.5790   44.3837 C   0  0  0  0  0  0  0  0  0  0  0  0
   58.2285   34.8070   45.2096 C   0  0  0  0  0  0  0  0  0  0  0  0
  1  2  2  0
  2  3  1  0
  3  4  1  0
  4  5  2  0
  5 25  1  0
 25 26  1  0
 26 27  1  0
  4  6  1  0
  6  7  1  0
  7  8  2  0
  8 19  1  0
 19 20  2  0
 20 21  1  0
 21 22  2  0
 22 23  1  0
 23 24  2  0
  7  9  1  0
  9 10  1  0
 10 11  2  0
 11 12  1  0
 12 13  1  0
 13 14  1  0
 14 15  2  0
 14 16  1  0
 16 17  1  0
 17 18  1  0
 10  1  1  0
 17 12  2  0
  9  3  1  0
 27 25  1  0
 24 19  1  0
M  CHG 1   6  -1
M  CHG 1  13  -1
M  CHG 1  16  -1
M  CHG 1  18  -1
M  END
> <UniqueID>
20

> <SMILES>
O=c1[n-]c([O-])c(C=C2C=Nn3/c(=N\C4CC4)[n-]c(=Nc4ccccc4)n32)[n-]1

> <Energy>
443.4303901749784

> <Genealogy>
O=c1[n-]c([O-])c(C=C2C=Nn3c(=NC4CC4)[n-]c(=Nc4ccccc4)n32)[n-]1 (protonated)
O=c1[n-]c([O-])c(C=C2C=Nn3/c(=N\C4CC4)[n-]c(=Nc4ccccc4)n32)[n-]1 (cis-trans isomerization)
O=c1[n-]c([O-])c(C=C2C=Nn3/c(=N\C4CC4)[n-]c(=Nc4ccccc4)n32)[n-]1 (3D coordinates assigned)
O=c1[n-]c([O-])c(C=C2C=Nn3/c(=N\C4CC4)[n-]c(=Nc4ccccc4)n32)[n-]1 (nonaromatic ring conformer: 443.4303901749784 kcal/mol)

> <smiles>
O=c1[nH]c(O)c(C=C2C=Nn3c(=NC4CC4)[nH]c(=Nc4ccccc4)n32)[nH]1

> <score_type>
oracle

> <origin>
adg

> <m_score__min__energy>
-16.68

> <m_primary>
energy

> <minimizedAffinity>
-6.23584

> <minimizedRMSD>
0.65405

> <CNNscore>
0.2420471013

> <CNNaffinity>
5.9580779076

> <CNN_VS>
1.4421354532

> <CNNaffinity_variance>
0.0004251332

$$$$
41:0


 30 32  0  0  0  0  0  0  0  0999 V2000
   57.0344   29.1706   44.5721 C   0  0  0  0  0  0  0  0  0  0  0  0
   57.7309   28.0301   45.1747 N   0  0  0  0  0  0  0  0  0  0  0  0
   57.2029   27.0167   45.8799 C   0  0  0  0  0  0  0  0  0  0  0  0
   55.8466   26.8480   46.1364 O   0  0  0  0  0  0  0  0  0  0  0  0
   58.2193   26.1965   46.3185 C   0  0  0  0  0  0  0  0  0  0  0  0
   59.4073   26.7084   45.9296 N   0  0  0  0  0  0  0  0  0  0  0  0
   59.0648   27.8206   45.2421 C   0  0  0  0  0  0  0  0  0  0  0  0
   59.9174   28.5876   44.7211 O   0  0  0  0  0  0  0  0  0  0  0  0
   58.0764   24.9879   47.1930 C   0  0  0  0  0  0  0  0  0  0  0  0
   56.7643   24.2410   46.9162 C   0  0  0  0  0  0  0  0  0  0  0  0
   56.8117   23.4977   45.6060 C   0  0  0  0  0  0  0  0  0  0  0  0
   55.8696   23.7700   44.5993 C   0  0  0  0  0  0  0  0  0  0  0  0
   55.8902   23.0490   43.4014 C   0  0  0  0  0  0  0  0  0  0  0  0
   56.8459   22.0499   43.2014 C   0  0  0  0  0  0  0  0  0  0  0  0
   57.7810   21.7662   44.2017 C   0  0  0  0  0  0  0  0  0  0  0  0
   57.7630   22.4844   45.4023 C   0  0  0  0  0  0  0  0  0  0  0  0
   57.7606   30.4654   44.8283 C   0  0  0  0  0  0  0  0  0  0  0  0
   58.0556   31.2085   43.8546 O   0  0  0  0  0  0  0  0  0  0  0  0
   58.0458   30.9184   46.1571 N   0  0  0  0  0  0  0  0  0  0  0  0
   60.8753   33.1738   47.1262 C   0  0  0  0  0  0  0  0  0  0  0  0
   60.2410   34.4222   47.0640 C   0  0  0  0  0  0  0  0  0  0  0  0
   58.8990   34.5100   46.6804 C   0  0  0  0  0  0  0  0  0  0  0  0
   58.1790   33.3506   46.3769 C   0  0  0  0  0  0  0  0  0  0  0  0
   58.7930   32.0967   46.4741 C   0  0  0  0  0  0  0  0  0  0  0  0
   60.1507   32.0148   46.8152 C   0  0  0  0  0  0  0  0  0  0  0  0
   62.7759   33.8676   49.1294 N   0  0  0  0  0  0  0  0  0  0  0  0
   62.5621   33.0672   47.6127 S   0  0  0  0  0  0  0  0  0  0  0  0
   63.4401   33.7284   46.5872 O   0  0  0  0  0  0  0  0  0  0  0  0
   62.9535   31.6224   47.7433 O   0  0  0  0  0  0  0  0  0  0  0  0
   63.7542   33.8058   49.4115 H   0  0  0  0  0  0  0  0  0  0  0  0
 26 27  1  0
 27 28  2  0
 27 29  2  0
 27 20  1  0
 20 21  2  0
 21 22  1  0
 22 23  2  0
 23 24  1  0
 24 19  1  0
 19 17  1  0
 17 18  2  0
 17  1  1  0
  1  2  1  0
  2  3  1  0
  3  4  1  0
  3  5  2  0
  5  9  1  0
  9 10  1  0
 10 11  1  0
 11 12  2  0
 12 13  1  0
 13 14  2  0
 14 15  1  0
 15 16  2  0
  5  6  1  0
  6  7  1  0
  7  8  2  0
 24 25  2  0
 25 20  1  0
  7  2  1  0
 16 11  1  0
 26 30  1  0
M  CHG 1   4  -1
M  CHG 1   6  -1
M  CHG 1  19  -1
M  CHG 1  26  -1
M  END
> <UniqueID>
37

> <SMILES>
[NH-]S(=O)(=O)c1cccc([N-]C(=O)Cn2c([O-])c(CCc3ccccc3)[n-]c2=O)c1

> <Energy>
78.67900681067901

> <Genealogy>
[NH-]S(=O)(=O)c1cccc([N-]C(=O)Cn2c([O-])c(CCc3ccccc3)[n-]c2=O)c1 (protonated)
[NH-]S(=O)(=O)c1cccc([N-]C(=O)Cn2c([O-])c(CCc3ccccc3)[n-]c2=O)c1 (3D coordinates assigned)
[NH-]S(=O)(=O)c1cccc([N-]C(=O)Cn2c([O-])c(CCc3ccccc3)[n-]c2=O)c1 (optimized conformer: 78.67900681067901 kcal/mol)

> <smiles>
NS(=O)(=O)c1cccc(NC(=O)Cn2c(O)c(CCc3ccccc3)[nH]c2=O)c1

> <score_type>
oracle

> <origin>
adg

> <m_score__min__energy>
-16.260000000000002

> <m_primary>
energy

> <minimizedAffinity>
-8.07001

> <minimizedRMSD>
1.06402

> <CNNscore>
0.3421139717

> <CNNaffinity>
6.3923716545

> <CNN_VS>
2.1869196892

> <CNNaffinity_variance>
0.0198451448

$$$$
70:0


 36 39  0  0  0  0  0  0  0  0999 V2000
   58.6902   24.5229   45.8997 C   0  0  0  0  0  0  0  0  0  0  0  0
   57.5548   25.2174   46.3345 C   0  0  0  0  0  0  0  0  0  0  0  0
   57.6744   26.5170   46.8416 C   0  0  0  0  0  0  0  0  0  0  0  0
   58.9335   27.1339   46.9247 C   0  0  0  0  0  0  0  0  0  0  0  0
   60.0678   26.4324   46.4808 C   0  0  0  0  0  0  0  0  0  0  0  0
   59.9469   25.1367   45.9758 C   0  0  0  0  0  0  0  0  0  0  0  0
   58.5460   22.8633   45.3244 S   0  0  0  0  0  0  0  0  0  0  0  0
   59.9053   22.2614   45.0897 O   0  0  0  0  0  0  0  0  0  0  0  0
   57.7810   22.8682   44.0286 O   0  0  0  0  0  0  0  0  0  0  0  0
   57.6773   21.9019   46.4785 N   0  0  0  0  0  0  0  0  0  0  0  0
   53.9883   22.4517   45.9710 C   0  0  0  0  0  0  0  0  0  0  0  0
   53.4845   21.2651   46.5190 C   0  0  0  0  0  0  0  0  0  0  0  0
   54.3578   20.3128   47.0511 C   0  0  0  0  0  0  0  0  0  0  0  0
   55.7379   20.5407   47.0471 C   0  0  0  0  0  0  0  0  0  0  0  0
   56.2556   21.7185   46.4935 C   0  0  0  0  0  0  0  0  0  0  0  0
   55.3738   22.6681   45.9457 C   0  0  0  0  0  0  0  0  0  0  0  0
   53.5900   25.2533   45.5761 N   0  0  0  0  0  0  0  0  0  0  0  0
   52.9017   23.6852   45.3338 S   0  0  0  0  0  0  0  0  0  0  0  0
   52.6762   23.4704   43.8660 O   0  0  0  0  0  0  0  0  0  0  0  0
   51.5818   23.5993   46.0524 O   0  0  0  0  0  0  0  0  0  0  0  0
   52.9578   25.9631   45.2059 H   0  0  0  0  0  0  0  0  0  0  0  0
   59.0801   28.4938   47.4884 C   0  0  0  0  0  0  0  0  0  0  0  0
   60.0164   28.7346   48.2989 O   0  0  0  0  0  0  0  0  0  0  0  0
   58.1334   29.5212   47.1570 N   0  0  0  0  0  0  0  0  0  0  0  0
   57.9201   30.0813   45.8507 C   0  0  0  0  0  0  0  0  0  0  0  0
   57.1854   29.3826   44.8745 C   0  0  0  0  0  0  0  0  0  0  0  0
   56.9548   29.9527   43.6213 C   0  0  0  0  0  0  0  0  0  0  0  0
   57.4398   31.2271   43.3311 C   0  0  0  0  0  0  0  0  0  0  0  0
   58.1428   31.9434   44.2995 C   0  0  0  0  0  0  0  0  0  0  0  0
   58.3798   31.3869   45.5666 C   0  0  0  0  0  0  0  0  0  0  0  0
   59.0939   32.1577   46.5495 N   0  0  0  0  0  0  0  0  0  0  0  0
   58.4142   33.2180   47.2993 C   0  0  0  0  0  0  0  0  0  0  0  0
   59.3691   34.4031   47.4696 C   0  0  0  0  0  0  0  0  0  0  0  0
   60.5945   33.9781   48.0415 O   0  0  0  0  0  0  0  0  0  0  0  0
   61.2649   33.1021   47.1528 C   0  0  0  0  0  0  0  0  0  0  0  0
   60.4620   31.8164   46.9399 C   0  0  0  0  0  0  0  0  0  0  0  0
 17 18  1  0
 18 19  2  0
 18 20  2  0
 18 11  1  0
 11 12  2  0
 12 13  1  0
 13 14  2  0
 14 15  1  0
 15 10  1  0
 10  7  1  0
  7  8  2  0
  7  9  2  0
  7  1  1  0
  1  2  2  0
  2  3  1  0
  3  4  2  0
  4 22  1  0
 22 23  2  0
 22 24  1  0
 24 25  1  0
 25 26  2  0
 26 27  1  0
 27 28  2  0
 28 29  1  0
 29 30  2  0
 30 31  1  0
 31 32  1  0
 32 33  1  0
 33 34  1  0
 34 35  1  0
 35 36  1  0
  4  5  1  0
  5  6  2  0
 15 16  2  0
 16 11  1  0
  6  1  1  0
 30 25  1  0
 36 31  1  0
 17 21  1  0
M  CHG 1  10  -1
M  CHG 1  17  -1
M  CHG 1  24  -1
M  END
> <UniqueID>
61

> <SMILES>
[NH-]S(=O)(=O)c1cccc([N-]S(=O)(=O)c2ccc(C(=O)[N-]c3ccccc3N3CCOCC3)cc2)c1

> <Energy>
73.59090718858049

> <Genealogy>
[NH-]S(=O)(=O)c1cccc([N-]S(=O)(=O)c2ccc(C(=O)[N-]c3ccccc3N3CCOCC3)cc2)c1 (protonated)
[NH-]S(=O)(=O)c1cccc([N-]S(=O)(=O)c2ccc(C(=O)[N-]c3ccccc3N3CCOCC3)cc2)c1 (3D coordinates assigned)
[NH-]S(=O)(=O)c1cccc([N-]S(=O)(=O)c2ccc(C(=O)[N-]c3ccccc3N3CCOCC3)cc2)c1 (nonaromatic ring conformer: 73.59090718858049 kcal/mol)

> <smiles>
NS(=O)(=O)c1cccc(NS(=O)(=O)c2ccc(C(=O)Nc3ccccc3N3CCOCC3)cc2)c1

> <score_type>
oracle

> <origin>
adg

> <m_score__min__energy>
-15.550000000000001

> <m_primary>
energy

> <minimizedAffinity>
-7.15806

> <minimizedRMSD>
0.87858

> <CNNscore>
0.2236128449

> <CNNaffinity>
6.1603736877

> <CNN_VS>
1.3775386810

> <CNNaffinity_variance>
0.4290107787

$$$$
72:0


 30 32  0  0  0  0  0  0  0  0999 V2000
   58.1638   31.9713   45.1317 C   0  0  0  0  0  0  0  0  0  0  0  0
   57.8662   32.3090   43.8036 C   0  0  0  0  0  0  0  0  0  0  0  0
   57.3112   31.3570   42.9468 C   0  0  0  0  0  0  0  0  0  0  0  0
   57.0369   30.0685   43.4123 C   0  0  0  0  0  0  0  0  0  0  0  0
   57.2960   29.7269   44.7473 C   0  0  0  0  0  0  0  0  0  0  0  0
   57.8787   30.6819   45.6001 C   0  0  0  0  0  0  0  0  0  0  0  0
   57.0047   28.4000   45.2074 N   0  0  0  0  0  0  0  0  0  0  0  0
   58.0004   27.3687   45.3259 C   0  0  0  0  0  0  0  0  0  0  0  0
   59.2261   27.6665   45.2549 O   0  0  0  0  0  0  0  0  0  0  0  0
   56.0765   28.1843   45.4547 H   0  0  0  0  0  0  0  0  0  0  0  0
   57.5986   25.9671   45.5688 C   0  0  0  0  0  0  0  0  0  0  0  0
   58.5098   24.9124   45.4016 C   0  0  0  0  0  0  0  0  0  0  0  0
   58.0719   23.6082   45.6432 C   0  0  0  0  0  0  0  0  0  0  0  0
   58.8641   22.6387   45.5048 O   0  0  0  0  0  0  0  0  0  0  0  0
   56.7890   23.3815   46.0247 N   0  0  0  0  0  0  0  0  0  0  0  0
   55.9167   24.4115   46.1809 C   0  0  0  0  0  0  0  0  0  0  0  0
   54.7308   24.1821   46.5354 O   0  0  0  0  0  0  0  0  0  0  0  0
   56.3240   25.6873   45.9535 N   0  0  0  0  0  0  0  0  0  0  0  0
   58.9120   33.1424   46.2134 S   0  0  0  0  0  0  0  0  0  0  0  0
   57.8662   33.6723   47.1537 O   0  0  0  0  0  0  0  0  0  0  0  0
   59.4926   34.2947   45.4424 O   0  0  0  0  0  0  0  0  0  0  0  0
   60.1667   32.3782   47.1334 N   0  0  0  0  0  0  0  0  0  0  0  0
   58.9891   30.1342   49.8739 C   0  0  0  0  0  0  0  0  0  0  0  0
   59.6455   28.9312   49.5493 C   0  0  0  0  0  0  0  0  0  0  0  0
   60.4859   28.8704   48.4336 C   0  0  0  0  0  0  0  0  0  0  0  0
   60.6715   29.9965   47.6304 C   0  0  0  0  0  0  0  0  0  0  0  0
   60.0072   31.1989   47.9325 C   0  0  0  0  0  0  0  0  0  0  0  0
   59.1747   31.2563   49.0571 C   0  0  0  0  0  0  0  0  0  0  0  0
   57.7411   31.5010   51.5525 C   0  0  0  0  0  0  0  0  0  0  0  0
   58.1627   30.2590   50.9994 O   0  0  0  0  0  0  0  0  0  0  0  0
 29 30  1  0
 30 23  1  0
 23 24  2  0
 24 25  1  0
 25 26  2  0
 26 27  1  0
 27 22  1  0
 22 19  1  0
 19 20  2  0
 19 21  2  0
 19  1  1  0
  1  2  2  0
  2  3  1  0
  3  4  2  0
  4  5  1  0
  5  7  1  0
  7  8  1  0
  8  9  2  0
  8 11  1  0
 11 12  2  0
 12 13  1  0
 13 14  2  0
 13 15  1  0
 15 16  1  0
 16 17  2  0
 16 18  1  0
  5  6  2  0
 27 28  2  0
 28 23  1  0
  6  1  1  0
 18 11  1  0
  7 10  1  0
M  CHG 1  15  -1
M  CHG 1  18  -1
M  CHG 1  22  -1
M  END
> <UniqueID>
63

> <SMILES>
COc1cccc([N-]S(=O)(=O)c2cccc(NC(=O)c3cc(=O)[n-]c(=O)[n-]3)c2)c1

> <Energy>
52.47065014713843

> <Genealogy>
COc1cccc([N-]S(=O)(=O)c2cccc(NC(=O)c3cc(=O)[n-]c(=O)[n-]3)c2)c1 (protonated)
COc1cccc([N-]S(=O)(=O)c2cccc(NC(=O)c3cc(=O)[n-]c(=O)[n-]3)c2)c1 (3D coordinates assigned)
COc1cccc([N-]S(=O)(=O)c2cccc(NC(=O)c3cc(=O)[n-]c(=O)[n-]3)c2)c1 (optimized conformer: 52.47065014713843 kcal/mol)

> <smiles>
COc1cccc(NS(=O)(=O)c2cccc(NC(=O)c3cc(=O)[nH]c(=O)[nH]3)c2)c1

> <score_type>
oracle

> <origin>
adg

> <m_score__min__energy>
-14.210000000000001

> <m_primary>
energy

> <minimizedAffinity>
-8.09199

> <minimizedRMSD>
1.36660

> <CNNscore>
0.5565212965

> <CNNaffinity>
6.6794586182

> <CNN_VS>
3.7172610760

> <CNNaffinity_variance>
0.0242891386

$$$$
11:0


 23 24  0  0  0  0  0  0  0  0999 V2000
   57.7885   27.4284   45.8898 N   0  0  0  0  0  0  0  0  0  0  0  0
   58.2046   26.2369   45.5769 C   0  0  0  0  0  0  0  0  0  0  0  0
   57.3283   25.0558   45.7722 C   0  0  0  0  0  0  0  0  0  0  0  0
   55.9430   25.2019   46.0267 C   0  0  0  0  0  0  0  0  0  0  0  0
   55.3082   26.4458   46.0360 O   0  0  0  0  0  0  0  0  0  0  0  0
   55.1825   24.1001   46.2503 N   0  0  0  0  0  0  0  0  0  0  0  0
   55.7130   22.8530   46.2246 C   0  0  0  0  0  0  0  0  0  0  0  0
   54.7588   21.5555   46.4938 S   0  0  0  0  0  0  0  0  0  0  0  0
   57.0314   22.6822   45.9720 N   0  0  0  0  0  0  0  0  0  0  0  0
   57.8488   23.7435   45.7493 C   0  0  0  0  0  0  0  0  0  0  0  0
   59.0733   23.5338   45.5409 O   0  0  0  0  0  0  0  0  0  0  0  0
   55.8044   27.2262   45.8851 H   0  0  0  0  0  0  0  0  0  0  0  0
   58.4093   29.7963   46.1117 C   0  0  0  0  0  0  0  0  0  0  0  0
   59.1516   30.8120   46.7336 C   0  0  0  0  0  0  0  0  0  0  0  0
   60.0505   30.5057   47.7570 C   0  0  0  0  0  0  0  0  0  0  0  0
   60.2197   29.1838   48.1658 C   0  0  0  0  0  0  0  0  0  0  0  0
   59.4835   28.1627   47.5601 C   0  0  0  0  0  0  0  0  0  0  0  0
   58.5575   28.4586   46.5375 C   0  0  0  0  0  0  0  0  0  0  0  0
   55.8349   29.2718   44.9830 N   0  0  0  0  0  0  0  0  0  0  0  0
   57.2755   30.2147   44.8214 S   0  0  0  0  0  0  0  0  0  0  0  0
   57.9080   29.9490   43.4848 O   0  0  0  0  0  0  0  0  0  0  0  0
   56.9138   31.6724   44.8990 O   0  0  0  0  0  0  0  0  0  0  0  0
   55.1834   29.5158   44.2371 H   0  0  0  0  0  0  0  0  0  0  0  0
 19 20  1  0
 20 21  2  0
 20 22  2  0
 20 13  1  0
 13 14  2  0
 14 15  1  0
 15 16  2  0
 16 17  1  0
 17 18  2  0
 18  1  1  0
  1  2  2  0
  2  3  1  0
  3  4  2  0
  4  5  1  0
  4  6  1  0
  6  7  1  0
  7  8  2  0
  7  9  1  0
  9 10  1  0
 10 11  2  0
 18 13  1  0
 10  3  1  0
 19 23  1  0
  5 12  1  0
M  CHG 1   6  -1
M  CHG 1   9  -1
M  CHG 1  19  -1
M  END
> <UniqueID>
10

> <SMILES>
[NH-]S(=O)(=O)c1ccccc1N=Cc1c(O)[n-]c(=S)[n-]c1=O

> <Energy>
38.065609749298176

> <Genealogy>
[NH-]S(=O)(=O)c1ccccc1N=Cc1c(O)[n-]c(=S)[n-]c1=O (protonated)
[NH-]S(=O)(=O)c1ccccc1N=Cc1c(O)[n-]c(=S)[n-]c1=O (3D coordinates assigned)
[NH-]S(=O)(=O)c1ccccc1N=Cc1c(O)[n-]c(=S)[n-]c1=O (optimized conformer: 38.065609749298176 kcal/mol)

> <smiles>
NS(=O)(=O)c1ccccc1N=Cc1c(O)[nH]c(=S)[nH]c1=O

> <score_type>
oracle

> <origin>
adg

> <m_score__min__energy>
-14.09

> <m_primary>
energy

> <minimizedAffinity>
-8.12131

> <minimizedRMSD>
0.94383

> <CNNscore>
0.5994997621

> <CNNaffinity>
5.7702236176

> <CNN_VS>
3.4592475891

> <CNNaffinity_variance>
0.0228884611

$$$$
13:0


 31 33  0  0  0  0  0  0  0  0999 V2000
   58.0167   31.7189   44.6305 C   0  0  0  0  0  0  0  0  0  0  0  0
   59.1812   31.0280   44.7201 N   0  0  0  0  0  0  0  0  0  0  0  0
   59.1859   29.6755   44.8517 C   0  0  0  0  0  0  0  0  0  0  0  0
   60.2836   29.0743   44.9825 O   0  0  0  0  0  0  0  0  0  0  0  0
   57.9659   28.9710   44.8753 C   0  0  0  0  0  0  0  0  0  0  0  0
   56.7806   29.7125   44.8205 C   0  0  0  0  0  0  0  0  0  0  0  0
   55.5495   29.0670   44.8847 O   0  0  0  0  0  0  0  0  0  0  0  0
   56.8292   31.0644   44.6930 N   0  0  0  0  0  0  0  0  0  0  0  0
   55.5133   28.1349   44.9726 H   0  0  0  0  0  0  0  0  0  0  0  0
   58.0453   33.5008   44.4555 S   0  0  0  0  0  0  0  0  0  0  0  0
   57.7921   33.8306   46.2355 C   0  0  0  0  0  0  0  0  0  0  0  0
   59.0979   34.0728   46.9458 C   0  0  0  0  0  0  0  0  0  0  0  0
   59.7360   35.1303   46.6998 O   0  0  0  0  0  0  0  0  0  0  0  0
   59.6035   33.1803   47.9484 N   0  0  0  0  0  0  0  0  0  0  0  0
   63.6323   32.8236   49.2441 C   0  0  0  0  0  0  0  0  0  0  0  0
   63.1493   32.0515   48.1694 C   0  0  0  0  0  0  0  0  0  0  0  0
   61.8214   32.1769   47.7536 C   0  0  0  0  0  0  0  0  0  0  0  0
   60.9645   33.0856   48.3856 C   0  0  0  0  0  0  0  0  0  0  0  0
   61.4352   33.8327   49.4748 C   0  0  0  0  0  0  0  0  0  0  0  0
   62.7630   33.7076   49.8925 C   0  0  0  0  0  0  0  0  0  0  0  0
   65.4029   33.1934   50.9706 C   0  0  0  0  0  0  0  0  0  0  0  0
   64.9564   32.7360   49.6981 O   0  0  0  0  0  0  0  0  0  0  0  0
   57.8982   27.5456   45.0288 N   0  0  0  0  0  0  0  0  0  0  0  0
   58.0297   26.8269   46.2634 C   0  0  0  0  0  0  0  0  0  0  0  0
   57.3828   25.7592   46.4395 O   0  0  0  0  0  0  0  0  0  0  0  0
   58.8834   27.3658   47.3486 C   0  0  0  0  0  0  0  0  0  0  0  0
   58.6208   28.6340   47.9016 C   0  0  0  0  0  0  0  0  0  0  0  0
   59.4254   29.1399   48.9268 C   0  0  0  0  0  0  0  0  0  0  0  0
   60.4980   28.3871   49.4124 C   0  0  0  0  0  0  0  0  0  0  0  0
   60.7680   27.1286   48.8730 C   0  0  0  0  0  0  0  0  0  0  0  0
   59.9670   26.6179   47.8474 C   0  0  0  0  0  0  0  0  0  0  0  0
 21 22  1  0
 22 15  1  0
 15 16  2  0
 16 17  1  0
 17 18  2  0
 18 14  1  0
 14 12  1  0
 12 13  2  0
 12 11  1  0
 11 10  1  0
 10  1  1  0
  1  2  2  0
  2  3  1  0
  3  4  2  0
  3  5  1  0
  5 23  1  0
 23 24  1  0
 24 25  2  0
 24 26  1  0
 26 27  2  0
 27 28  1  0
 28 29  2  0
 29 30  1  0
 30 31  2  0
  5  6  2  0
  6  7  1  0
  6  8  1  0
 18 19  1  0
 19 20  2  0
 20 15  1  0
  8  1  1  0
 31 26  1  0
  7  9  1  0
M  CHG 1   8  -1
M  CHG 1  14  -1
M  CHG 1  23  -1
M  END
> <UniqueID>
12

> <SMILES>
COc1ccc([N-]C(=O)CSc2nc(=O)c([N-]C(=O)c3ccccc3)c(O)[n-]2)cc1

> <Energy>
55.12636864765485

> <Genealogy>
COc1ccc([N-]C(=O)CSc2nc(=O)c([N-]C(=O)c3ccccc3)c(O)[n-]2)cc1 (protonated)
COc1ccc([N-]C(=O)CSc2nc(=O)c([N-]C(=O)c3ccccc3)c(O)[n-]2)cc1 (3D coordinates assigned)
COc1ccc([N-]C(=O)CSc2nc(=O)c([N-]C(=O)c3ccccc3)c(O)[n-]2)cc1 (optimized conformer: 55.12636864765485 kcal/mol)

> <smiles>
COc1ccc(NC(=O)CSc2nc(=O)c(NC(=O)c3ccccc3)c(O)[nH]2)cc1

> <score_type>
oracle

> <origin>
adg

> <m_score__min__energy>
-14.65

> <m_primary>
energy

> <minimizedAffinity>
-7.63738

> <minimizedRMSD>
0.47612

> <CNNscore>
0.6885048747

> <CNNaffinity>
6.5289816856

> <CNN_VS>
4.4952359200

> <CNNaffinity_variance>
0.1036792919

$$$$
27:0


 21 22  0  0  0  0  0  0  0  0999 V2000
   58.3930   25.0113   46.3786 C   0  0  0  0  0  0  0  0  0  0  0  0
   58.8793   25.9735   45.6472 N   0  0  0  0  0  0  0  0  0  0  0  0
   57.0880   24.3564   46.1234 C   0  0  0  0  0  0  0  0  0  0  0  0
   55.8806   25.0768   46.1241 C   0  0  0  0  0  0  0  0  0  0  0  0
   55.8679   26.4504   46.3360 O   0  0  0  0  0  0  0  0  0  0  0  0
   54.7088   24.4357   45.8804 N   0  0  0  0  0  0  0  0  0  0  0  0
   54.6789   23.1068   45.6094 C   0  0  0  0  0  0  0  0  0  0  0  0
   53.5793   22.5336   45.3927 O   0  0  0  0  0  0  0  0  0  0  0  0
   55.8337   22.3972   45.5618 N   0  0  0  0  0  0  0  0  0  0  0  0
   57.0321   22.9891   45.8003 C   0  0  0  0  0  0  0  0  0  0  0  0
   58.0851   22.2992   45.7430 O   0  0  0  0  0  0  0  0  0  0  0  0
   58.7929   27.3792   45.9263 C   0  0  0  0  0  0  0  0  0  0  0  0
   58.0689   28.1964   45.0468 C   0  0  0  0  0  0  0  0  0  0  0  0
   57.9546   29.5774   45.2777 C   0  0  0  0  0  0  0  0  0  0  0  0
   58.6025   30.1392   46.3909 C   0  0  0  0  0  0  0  0  0  0  0  0
   59.3627   29.3371   47.2448 C   0  0  0  0  0  0  0  0  0  0  0  0
   59.4739   27.9624   47.0145 C   0  0  0  0  0  0  0  0  0  0  0  0
   60.5411   27.0217   48.0486 Cl  0  0  0  0  0  0  0  0  0  0  0  0
   57.1629   30.4254   44.3590 C   0  0  0  0  0  0  0  0  0  0  0  0
   57.7228   31.3241   43.6750 O   0  0  0  0  0  0  0  0  0  0  0  0
   55.7910   30.2417   44.2362 O   0  0  0  0  0  0  0  0  0  0  0  0
  1  2  2  0
  2 12  1  0
 12 13  2  0
 13 14  1  0
 14 19  1  0
 19 20  2  0
 19 21  1  0
 14 15  2  0
 15 16  1  0
 16 17  2  0
 17 18  1  0
  1  3  1  0
  3  4  2  0
  4  5  1  0
  4  6  1  0
  6  7  1  0
  7  8  2  0
  7  9  1  0
  9 10  1  0
 10 11  2  0
 17 12  1  0
 10  3  1  0
M  CHG 1   5  -1
M  CHG 1   6  -1
M  CHG 1   9  -1
M  CHG 1  21  -1
M  END
> <UniqueID>
25

> <SMILES>
O=C([O-])c1ccc(Cl)c(/N=C\c2c([O-])[n-]c(=O)[n-]c2=O)c1

> <Energy>
43.99653120241122

> <Genealogy>
O=C([O-])c1ccc(Cl)c(N=Cc2c([O-])[n-]c(=O)[n-]c2=O)c1 (protonated)
O=C([O-])c1ccc(Cl)c(/N=C\c2c([O-])[n-]c(=O)[n-]c2=O)c1 (cis-trans isomerization)
O=C([O-])c1ccc(Cl)c(/N=C\c2c([O-])[n-]c(=O)[n-]c2=O)c1 (3D coordinates assigned)
O=C([O-])c1ccc(Cl)c(/N=C\c2c([O-])[n-]c(=O)[n-]c2=O)c1 (optimized conformer: 43.99653120241122 kcal/mol)

> <smiles>
O=C(O)c1ccc(Cl)c(N=Cc2c(O)[nH]c(=O)[nH]c2=O)c1

> <score_type>
oracle

> <origin>
adg

> <m_score__min__energy>
-16.210000000000001

> <m_primary>
energy

> <minimizedAffinity>
-7.18473

> <minimizedRMSD>
1.29014

> <CNNscore>
0.2477849424

> <CNNaffinity>
5.3102607727

> <CNN_VS>
1.3158026934

> <CNNaffinity_variance>
0.0377499871

$$$$
90:0


 24 25  0  0  0  0  0  0  0  0999 V2000
   59.2073   31.8374   51.1024 C   0  0  0  0  0  0  0  0  0  0  0  0
   58.9582   30.4585   51.0119 C   0  0  0  0  0  0  0  0  0  0  0  0
   57.8360   29.9036   51.6318 C   0  0  0  0  0  0  0  0  0  0  0  0
   56.9403   30.7199   52.3385 C   0  0  0  0  0  0  0  0  0  0  0  0
   57.1930   32.0962   52.4357 C   0  0  0  0  0  0  0  0  0  0  0  0
   58.3129   32.6525   51.8123 C   0  0  0  0  0  0  0  0  0  0  0  0
   55.7540   30.1445   52.9992 C   0  0  0  0  0  0  0  0  0  0  0  0
   55.6831   30.1660   54.2558 O   0  0  0  0  0  0  0  0  0  0  0  0
   54.6599   29.5943   52.2534 N   0  0  0  0  0  0  0  0  0  0  0  0
   53.6792   30.3626   51.4884 C   0  0  0  0  0  0  0  0  0  0  0  0
   52.4343   30.6027   52.3013 C   0  0  0  0  0  0  0  0  0  0  0  0
   51.9157   29.5816   53.1153 C   0  0  0  0  0  0  0  0  0  0  0  0
   50.7702   29.8068   53.8837 C   0  0  0  0  0  0  0  0  0  0  0  0
   50.1274   31.0469   53.8406 C   0  0  0  0  0  0  0  0  0  0  0  0
   48.9893   31.2634   54.6072 O   0  0  0  0  0  0  0  0  0  0  0  0
   50.6313   32.0666   53.0233 C   0  0  0  0  0  0  0  0  0  0  0  0
   49.9901   33.2981   52.9690 O   0  0  0  0  0  0  0  0  0  0  0  0
   51.7801   31.8459   52.2566 C   0  0  0  0  0  0  0  0  0  0  0  0
   60.4026   32.4396   50.4170 C   0  0  0  0  0  0  0  0  0  0  0  0
   61.1004   32.0557   47.6503 N   0  0  0  0  0  0  0  0  0  0  0  0
   60.0146   32.8610   48.7272 S   0  0  0  0  0  0  0  0  0  0  0  0
   58.6021   32.4579   48.4115 O   0  0  0  0  0  0  0  0  0  0  0  0
   60.1559   34.3465   48.5475 O   0  0  0  0  0  0  0  0  0  0  0  0
   60.8704   32.3030   46.6878 H   0  0  0  0  0  0  0  0  0  0  0  0
 20 21  1  0
 21 22  2  0
 21 23  2  0
 21 19  1  0
 19  1  1  0
  1  2  2  0
  2  3  1  0
  3  4  2  0
  4  7  1  0
  7  8  2  0
  7  9  1  0
  9 10  1  0
 10 11  1  0
 11 12  2  0
 12 13  1  0
 13 14  2  0
 14 15  1  0
 14 16  1  0
 16 17  1  0
 16 18  2  0
  4  5  1  0
  5  6  2  0
  6  1  1  0
 18 11  1  0
 20 24  1  0
M  CHG 1   9  -1
M  CHG 1  15  -1
M  CHG 1  17  -1
M  CHG 1  20  -1
M  END
> <UniqueID>
84

> <SMILES>
[NH-]S(=O)(=O)Cc1ccc(C(=O)[N-]Cc2ccc([O-])c([O-])c2)cc1

> <Energy>
30.874742122897317

> <Genealogy>
[NH-]S(=O)(=O)Cc1ccc(C(=O)[N-]Cc2ccc([O-])c([O-])c2)cc1 (protonated)
[NH-]S(=O)(=O)Cc1ccc(C(=O)[N-]Cc2ccc([O-])c([O-])c2)cc1 (3D coordinates assigned)
[NH-]S(=O)(=O)Cc1ccc(C(=O)[N-]Cc2ccc([O-])c([O-])c2)cc1 (optimized conformer: 30.874742122897317 kcal/mol)

> <smiles>
NS(=O)(=O)Cc1ccc(C(=O)NCc2ccc(O)c(O)c2)cc1

> <score_type>
oracle

> <origin>
adg

> <m_score__min__energy>
-16.969999999999999

> <m_primary>
energy

> <minimizedAffinity>
-5.91945

> <minimizedRMSD>
1.51054

> <CNNscore>
0.5234014392

> <CNNaffinity>
4.6773109436

> <CNN_VS>
2.4481112957

> <CNNaffinity_variance>
0.2391364574

$$$$
52:0


 27 29  0  0  0  0  0  0  0  0999 V2000
   59.3661   30.2114   49.6394 C   0  0  0  0  0  0  0  0  0  0  0  0
   58.4518   29.7393   50.3683 O   0  0  0  0  0  0  0  0  0  0  0  0
   60.0763   29.3206   48.7702 N   0  0  0  0  0  0  0  0  0  0  0  0
   58.3206   27.1870   46.2290 C   0  0  0  0  0  0  0  0  0  0  0  0
   58.7635   27.6860   47.4638 C   0  0  0  0  0  0  0  0  0  0  0  0
   59.5941   28.8159   47.5191 C   0  0  0  0  0  0  0  0  0  0  0  0
   60.0332   29.4072   46.3287 C   0  0  0  0  0  0  0  0  0  0  0  0
   59.6015   28.9120   45.0966 C   0  0  0  0  0  0  0  0  0  0  0  0
   58.7445   27.8072   45.0415 C   0  0  0  0  0  0  0  0  0  0  0  0
   58.3237   27.3307   43.8043 O   0  0  0  0  0  0  0  0  0  0  0  0
   55.6231   26.3025   45.9873 N   0  0  0  0  0  0  0  0  0  0  0  0
   57.2594   25.7792   46.1700 S   0  0  0  0  0  0  0  0  0  0  0  0
   57.6247   24.8956   45.0104 O   0  0  0  0  0  0  0  0  0  0  0  0
   57.4025   24.9936   47.4434 O   0  0  0  0  0  0  0  0  0  0  0  0
   55.0080   25.4896   45.9530 H   0  0  0  0  0  0  0  0  0  0  0  0
   59.8043   31.6434   49.8204 C   0  0  0  0  0  0  0  0  0  0  0  0
   60.3961   32.1789   48.5925 N   0  0  0  0  0  0  0  0  0  0  0  0
   61.7768   32.4944   48.3947 C   0  0  0  0  0  0  0  0  0  0  0  0
   62.7069   32.1292   49.1613 O   0  0  0  0  0  0  0  0  0  0  0  0
   61.9349   33.3179   47.2051 C   0  0  0  0  0  0  0  0  0  0  0  0
   63.0085   33.7745   46.7328 O   0  0  0  0  0  0  0  0  0  0  0  0
   60.5919   33.5194   46.6896 C   0  0  0  0  0  0  0  0  0  0  0  0
   60.1470   34.2448   45.5864 C   0  0  0  0  0  0  0  0  0  0  0  0
   58.7658   34.2814   45.3318 C   0  0  0  0  0  0  0  0  0  0  0  0
   57.8657   33.6001   46.1765 C   0  0  0  0  0  0  0  0  0  0  0  0
   58.3370   32.8759   47.2855 C   0  0  0  0  0  0  0  0  0  0  0  0
   59.7132   32.8495   47.5267 C   0  0  0  0  0  0  0  0  0  0  0  0
 11 12  1  0
 12 13  2  0
 12 14  2  0
 12  4  1  0
  4  5  2  0
  5  6  1  0
  6  3  1  0
  3  1  1  0
  1  2  2  0
  1 16  1  0
 16 17  1  0
 17 18  1  0
 18 19  2  0
 18 20  1  0
 20 21  2  0
 20 22  1  0
 22 23  2  0
 23 24  1  0
 24 25  2  0
 25 26  1  0
 26 27  2  0
  6  7  2  0
  7  8  1  0
  8  9  2  0
  9 10  1  0
  9  4  1  0
 27 17  1  0
 27 22  1  0
 11 15  1  0
M  CHG 1   3  -1
M  CHG 1  10  -1
M  CHG 1  11  -1
M  END
> <UniqueID>
50

> <SMILES>
[NH-]S(=O)(=O)c1cc([N-]C(=O)CN2C(=O)C(=O)c3ccccc32)ccc1[O-]

> <Energy>
75.85878841787203

> <Genealogy>
[NH-]S(=O)(=O)c1cc([N-]C(=O)CN2C(=O)C(=O)c3ccccc32)ccc1[O-] (protonated)
[NH-]S(=O)(=O)c1cc([N-]C(=O)CN2C(=O)C(=O)c3ccccc32)ccc1[O-] (3D coordinates assigned)
[NH-]S(=O)(=O)c1cc([N-]C(=O)CN2C(=O)C(=O)c3ccccc32)ccc1[O-] (nonaromatic ring conformer: 75.85878841787203 kcal/mol)

> <smiles>
NS(=O)(=O)c1cc(NC(=O)CN2C(=O)C(=O)c3ccccc32)ccc1O

> <score_type>
oracle

> <origin>
adg

> <m_score__min__energy>
-15.220000000000001

> <m_primary>
energy

> <minimizedAffinity>
-8.86321

> <minimizedRMSD>
1.49266

> <CNNscore>
0.8777749538

> <CNNaffinity>
6.7781448364

> <CNN_VS>
5.9496855736

> <CNNaffinity_variance>
0.0531912036

$$$$
8:0


 24 26  0  0  0  0  0  0  0  0999 V2000
   57.7718   31.9355   42.5777 O   0  0  0  0  0  0  0  0  0  0  0  0
   57.9782   31.8436   43.8164 C   0  0  0  0  0  0  0  0  0  0  0  0
   57.9780   30.5071   44.4489 C   0  0  0  0  0  0  0  0  0  0  0  0
   59.1771   29.9199   44.8694 C   0  0  0  0  0  0  0  0  0  0  0  0
   59.1536   28.6726   45.4963 C   0  0  0  0  0  0  0  0  0  0  0  0
   60.3286   28.0608   45.9558 C   0  0  0  0  0  0  0  0  0  0  0  0
   60.2670   26.8129   46.5820 C   0  0  0  0  0  0  0  0  0  0  0  0
   59.0352   26.1701   46.7509 C   0  0  0  0  0  0  0  0  0  0  0  0
   57.8591   26.7731   46.2931 C   0  0  0  0  0  0  0  0  0  0  0  0
   56.6396   26.1252   46.4641 O   0  0  0  0  0  0  0  0  0  0  0  0
   57.9110   28.0239   45.6650 C   0  0  0  0  0  0  0  0  0  0  0  0
   56.7931   28.5997   45.2276 O   0  0  0  0  0  0  0  0  0  0  0  0
   56.7802   29.7893   44.6350 C   0  0  0  0  0  0  0  0  0  0  0  0
   55.6802   30.2737   44.2568 O   0  0  0  0  0  0  0  0  0  0  0  0
   58.1804   33.0450   44.5751 N   0  0  0  0  0  0  0  0  0  0  0  0
   57.6435   33.3095   45.9079 C   0  0  0  0  0  0  0  0  0  0  0  0
   58.7545   33.7541   46.8659 C   0  0  0  0  0  0  0  0  0  0  0  0
   59.4881   32.5594   47.4112 C   0  0  0  0  0  0  0  0  0  0  0  0
   60.8691   32.4195   47.1885 C   0  0  0  0  0  0  0  0  0  0  0  0
   61.5615   31.3297   47.7233 C   0  0  0  0  0  0  0  0  0  0  0  0
   60.8842   30.3776   48.4916 C   0  0  0  0  0  0  0  0  0  0  0  0
   59.5130   30.5165   48.7293 C   0  0  0  0  0  0  0  0  0  0  0  0
   58.8435   29.5743   49.4992 O   0  0  0  0  0  0  0  0  0  0  0  0
   58.8170   31.6073   48.1950 C   0  0  0  0  0  0  0  0  0  0  0  0
  1  2  2  0
  2 15  1  0
 15 16  1  0
 16 17  1  0
 17 18  1  0
 18 19  2  0
 19 20  1  0
 20 21  2  0
 21 22  1  0
 22 23  1  0
 22 24  2  0
  2  3  1  0
  3  4  2  0
  4  5  1  0
  5  6  2  0
  6  7  1  0
  7  8  2  0
  8  9  1  0
  9 10  1  0
  9 11  2  0
 11 12  1  0
 12 13  1  0
 13 14  2  0
 24 18  1  0
 13  3  1  0
 11  5  1  0
M  CHG 1  10  -1
M  CHG 1  15  -1
M  CHG 1  23  -1
M  END
> <UniqueID>
7

> <SMILES>
O=C([N-]CCc1cccc([O-])c1)c1cc2cccc([O-])c2oc1=O

> <Energy>
44.565857185302136

> <Genealogy>
O=C([N-]CCc1cccc([O-])c1)c1cc2cccc([O-])c2oc1=O (protonated)
O=C([N-]CCc1cccc([O-])c1)c1cc2cccc([O-])c2oc1=O (3D coordinates assigned)
O=C([N-]CCc1cccc([O-])c1)c1cc2cccc([O-])c2oc1=O (optimized conformer: 44.565857185302136 kcal/mol)

> <smiles>
O=C(NCCc1cccc(O)c1)c1cc2cccc(O)c2oc1=O

> <score_type>
oracle

> <origin>
adg

> <m_score__min__energy>
-14.31

> <m_primary>
energy

> <minimizedAffinity>
-8.31144

> <minimizedRMSD>
1.35272

> <CNNscore>
0.8230094910

> <CNNaffinity>
6.5254244804

> <CNN_VS>
5.3704862595

> <CNNaffinity_variance>
0.1821746826

$$$$
53:0


 30 33  0  0  0  0  0  0  0  0999 V2000
   59.0704   29.2199   46.1751 N   0  0  0  0  0  0  0  0  0  0  0  0
   58.8679   30.5884   45.7932 C   0  0  0  0  0  0  0  0  0  0  0  0
   58.1917   30.9428   44.6126 C   0  0  0  0  0  0  0  0  0  0  0  0
   58.0068   32.2896   44.2876 C   0  0  0  0  0  0  0  0  0  0  0  0
   58.4815   33.2902   45.1393 C   0  0  0  0  0  0  0  0  0  0  0  0
   59.1320   32.9482   46.3310 C   0  0  0  0  0  0  0  0  0  0  0  0
   59.3188   31.5964   46.6564 C   0  0  0  0  0  0  0  0  0  0  0  0
   59.7479   34.2143   47.3903 S   0  0  0  0  0  0  0  0  0  0  0  0
   58.8448   34.3649   48.5827 O   0  0  0  0  0  0  0  0  0  0  0  0
   59.7623   35.5142   46.6344 O   0  0  0  0  0  0  0  0  0  0  0  0
   61.3687   33.8154   47.9037 N   0  0  0  0  0  0  0  0  0  0  0  0
   62.1998   33.4636   46.7369 C   0  0  0  0  0  0  0  0  0  0  0  0
   63.5017   32.7635   47.1754 C   0  0  0  0  0  0  0  0  0  0  0  0
   63.7595   33.0009   48.5459 O   0  0  0  0  0  0  0  0  0  0  0  0
   62.7638   32.3759   49.3396 C   0  0  0  0  0  0  0  0  0  0  0  0
   61.3317   32.6999   48.8603 C   0  0  0  0  0  0  0  0  0  0  0  0
   58.0949   27.8684   44.5256 O   0  0  0  0  0  0  0  0  0  0  0  0
   58.2978   28.0902   45.7499 C   0  0  0  0  0  0  0  0  0  0  0  0
   57.7837   27.1285   46.7750 C   0  0  0  0  0  0  0  0  0  0  0  0
   57.5601   25.8203   46.1617 N   0  0  0  0  0  0  0  0  0  0  0  0
   58.5036   24.9024   45.8527 C   0  0  0  0  0  0  0  0  0  0  0  0
   59.8694   25.0947   46.0257 O   0  0  0  0  0  0  0  0  0  0  0  0
   57.9142   23.7495   45.3723 C   0  0  0  0  0  0  0  0  0  0  0  0
   56.5538   23.9531   45.4352 C   0  0  0  0  0  0  0  0  0  0  0  0
   56.3685   25.2345   45.9098 C   0  0  0  0  0  0  0  0  0  0  0  0
   55.1379   25.8445   46.1193 O   0  0  0  0  0  0  0  0  0  0  0  0
   55.5341   22.9517   44.9858 C   0  0  0  0  0  0  0  0  0  0  0  0
   56.1560   21.5397   44.9459 C   0  0  0  0  0  0  0  0  0  0  0  0
   57.5439   21.5414   44.2679 C   0  0  0  0  0  0  0  0  0  0  0  0
   58.5500   22.4391   45.0184 C   0  0  0  0  0  0  0  0  0  0  0  0
 17 18  2  0
 18 19  1  0
 19 20  1  0
 20 21  1  0
 21 22  1  0
 21 23  2  0
 23 24  1  0
 24 25  2  0
 25 26  1  0
 24 27  1  0
 27 28  1  0
 28 29  1  0
 29 30  1  0
 18  1  1  0
  1  2  1  0
  2  3  2  0
  3  4  1  0
  4  5  2  0
  5  6  1  0
  6  8  1  0
  8  9  2  0
  8 10  2  0
  8 11  1  0
 11 12  1  0
 12 13  1  0
 13 14  1  0
 14 15  1  0
 15 16  1  0
  6  7  2  0
 25 20  1  0
  7  2  1  0
 30 23  1  0
 16 11  1  0
M  CHG 1   1  -1
M  CHG 1  22  -1
M  CHG 1  26  -1
M  END
> <UniqueID>
54

> <SMILES>
O=C(Cn1c([O-])c2c(c1[O-])CCCC2)[N-]c1cccc(S(=O)(=O)N2CCOCC2)c1

> <Energy>
91.510360744565

> <Genealogy>
O=C(Cn1c([O-])c2c(c1[O-])CCCC2)[N-]c1cccc(S(=O)(=O)N2CCOCC2)c1 (protonated)
O=C(Cn1c([O-])c2c(c1[O-])CCCC2)[N-]c1cccc(S(=O)(=O)N2CCOCC2)c1 (3D coordinates assigned)
O=C(Cn1c([O-])c2c(c1[O-])CCCC2)[N-]c1cccc(S(=O)(=O)N2CCOCC2)c1 (nonaromatic ring conformer: 91.510360744565 kcal/mol)

> <smiles>
O=C(Cn1c(O)c2c(c1O)CCCC2)Nc1cccc(S(=O)(=O)N2CCOCC2)c1

> <score_type>
oracle

> <origin>
adg

> <m_score__min__energy>
-15.640000000000001

> <m_primary>
energy

> <minimizedAffinity>
-7.81074

> <minimizedRMSD>
0.80024

> <CNNscore>
0.2359598130

> <CNNaffinity>
6.4399476051

> <CNN_VS>
1.5195688009

> <CNNaffinity_variance>
0.0617688335

$$$$
60:0


 24 25  0  0  0  0  0  0  0  0999 V2000
   58.3885   27.4132   46.3475 C   0  0  0  0  0  0  0  0  0  0  0  0
   59.0716   27.6269   47.5552 C   0  0  0  0  0  0  0  0  0  0  0  0
   59.8856   28.7578   47.7234 C   0  0  0  0  0  0  0  0  0  0  0  0
   60.0552   29.6486   46.6596 C   0  0  0  0  0  0  0  0  0  0  0  0
   59.3710   29.4510   45.4590 C   0  0  0  0  0  0  0  0  0  0  0  0
   58.5313   28.3445   45.2994 C   0  0  0  0  0  0  0  0  0  0  0  0
   57.8507   28.1844   44.0990 O   0  0  0  0  0  0  0  0  0  0  0  0
   55.7254   26.4609   45.9937 N   0  0  0  0  0  0  0  0  0  0  0  0
   57.3723   25.9763   46.1887 S   0  0  0  0  0  0  0  0  0  0  0  0
   57.8113   25.1900   44.9867 O   0  0  0  0  0  0  0  0  0  0  0  0
   57.4684   25.1048   47.4090 O   0  0  0  0  0  0  0  0  0  0  0  0
   55.1362   25.6334   45.9018 H   0  0  0  0  0  0  0  0  0  0  0  0
   60.6149   28.9766   48.9361 N   0  0  0  0  0  0  0  0  0  0  0  0
   60.6652   30.1975   49.6868 C   0  0  0  0  0  0  0  0  0  0  0  0
   61.7851   30.7419   49.8734 O   0  0  0  0  0  0  0  0  0  0  0  0
   59.4127   30.9318   50.0867 C   0  0  0  0  0  0  0  0  0  0  0  0
   59.7088   32.7250   50.2858 S   0  0  0  0  0  0  0  0  0  0  0  0
   59.6129   33.0985   48.5288 C   0  0  0  0  0  0  0  0  0  0  0  0
   58.4234   32.8439   47.8368 C   0  0  0  0  0  0  0  0  0  0  0  0
   58.3372   33.1578   46.4808 C   0  0  0  0  0  0  0  0  0  0  0  0
   59.4308   33.7302   45.8331 C   0  0  0  0  0  0  0  0  0  0  0  0
   60.6020   33.9722   46.5527 C   0  0  0  0  0  0  0  0  0  0  0  0
   60.6770   33.6549   47.8752 N   0  0  0  0  0  0  0  0  0  0  0  0
   61.8459   33.9074   48.5570 O   0  0  0  0  0  0  0  0  0  0  0  0
  8  9  1  0
  9 10  2  0
  9 11  2  0
  9  1  1  0
  1  2  2  0
  2  3  1  0
  3 13  1  0
 13 14  1  0
 14 15  2  0
 14 16  1  0
 16 17  1  0
 17 18  1  0
 18 19  2  0
 19 20  1  0
 20 21  2  0
 21 22  1  0
 22 23  2  0
 23 24  1  0
  3  4  2  0
  4  5  1  0
  5  6  2  0
  6  7  1  0
  6  1  1  0
 23 18  1  0
  8 12  1  0
M  CHG 1   7  -1
M  CHG 1   8  -1
M  CHG 1  13  -1
M  CHG 1  23   1
M  CHG 1  24  -1
M  END
> <UniqueID>
61

> <SMILES>
[NH-]S(=O)(=O)c1cc([N-]C(=O)CSc2cccc[n+]2[O-])ccc1[O-]

> <Energy>
34.72663959829608

> <Genealogy>
[NH-]S(=O)(=O)c1cc([N-]C(=O)CSc2cccc[n+]2[O-])ccc1[O-] (protonated)
[NH-]S(=O)(=O)c1cc([N-]C(=O)CSc2cccc[n+]2[O-])ccc1[O-] (3D coordinates assigned)
[NH-]S(=O)(=O)c1cc([N-]C(=O)CSc2cccc[n+]2[O-])ccc1[O-] (optimized conformer: 34.72663959829608 kcal/mol)

> <smiles>
NS(=O)(=O)c1cc(NC(=O)CSc2cccc[n+]2[O-])ccc1O

> <score_type>
oracle

> <origin>
adg

> <m_score__min__energy>
-14.460000000000001

> <m_primary>
energy

> <minimizedAffinity>
-6.90217

> <minimizedRMSD>
2.04999

> <CNNscore>
0.8534273505

> <CNNaffinity>
7.0439543724

> <CNN_VS>
6.0115032196

> <CNNaffinity_variance>
0.5888867378

$$$$
31:0


 24 25  0  0  0  0  0  0  0  0999 V2000
   58.6342   29.9509   46.9406 C   0  0  0  0  0  0  0  0  0  0  0  0
   59.6747   29.1851   46.9668 N   0  0  0  0  0  0  0  0  0  0  0  0
   57.9191   31.3497   44.9217 C   0  0  0  0  0  0  0  0  0  0  0  0
   57.9265   32.5997   44.2790 C   0  0  0  0  0  0  0  0  0  0  0  0
   58.6295   33.6770   44.8193 C   0  0  0  0  0  0  0  0  0  0  0  0
   59.3425   33.5210   46.0057 C   0  0  0  0  0  0  0  0  0  0  0  0
   59.3400   32.2910   46.6654 C   0  0  0  0  0  0  0  0  0  0  0  0
   58.6152   31.2015   46.1542 C   0  0  0  0  0  0  0  0  0  0  0  0
   55.6513   29.5750   44.9582 N   0  0  0  0  0  0  0  0  0  0  0  0
   57.1021   29.9968   44.1162 S   0  0  0  0  0  0  0  0  0  0  0  0
   56.7270   30.3873   42.7149 O   0  0  0  0  0  0  0  0  0  0  0  0
   58.0135   28.8025   44.0828 O   0  0  0  0  0  0  0  0  0  0  0  0
   55.1956   28.7968   44.4816 H   0  0  0  0  0  0  0  0  0  0  0  0
   59.5908   27.9160   47.4990 O   0  0  0  0  0  0  0  0  0  0  0  0
   58.8828   26.8909   46.8637 C   0  0  0  0  0  0  0  0  0  0  0  0
   59.5971   25.8363   46.2899 C   0  0  0  0  0  0  0  0  0  0  0  0
   58.9272   24.7948   45.6438 C   0  0  0  0  0  0  0  0  0  0  0  0
   57.5219   24.7857   45.5640 C   0  0  0  0  0  0  0  0  0  0  0  0
   56.8014   25.8502   46.1513 C   0  0  0  0  0  0  0  0  0  0  0  0
   55.4120   25.8903   46.1071 O   0  0  0  0  0  0  0  0  0  0  0  0
   57.4815   26.8895   46.7949 C   0  0  0  0  0  0  0  0  0  0  0  0
   56.8411   23.6629   44.8697 C   0  0  0  0  0  0  0  0  0  0  0  0
   56.5873   22.5865   45.4718 O   0  0  0  0  0  0  0  0  0  0  0  0
   56.4700   23.7849   43.5362 O   0  0  0  0  0  0  0  0  0  0  0  0
  9 10  1  0
 10 11  2  0
 10 12  2  0
 10  3  1  0
  3  4  2  0
  4  5  1  0
  5  6  2  0
  6  7  1  0
  7  8  2  0
  8  1  1  0
  1  2  2  0
  2 14  1  0
 14 15  1  0
 15 16  2  0
 16 17  1  0
 17 18  2  0
 18 22  1  0
 22 23  2  0
 22 24  1  0
 18 19  1  0
 19 20  1  0
 19 21  2  0
  8  3  1  0
 21 15  1  0
  9 13  1  0
M  CHG 1   9  -1
M  CHG 1  20  -1
M  CHG 1  24  -1
M  END
> <UniqueID>
29

> <SMILES>
[NH-]S(=O)(=O)c1ccccc1C=NOc1ccc(C(=O)[O-])c([O-])c1

> <Energy>
39.497457577482244

> <Genealogy>
[NH-]S(=O)(=O)c1ccccc1C=NOc1ccc(C(=O)[O-])c([O-])c1 (protonated)
[NH-]S(=O)(=O)c1ccccc1C=NOc1ccc(C(=O)[O-])c([O-])c1 (3D coordinates assigned)
[NH-]S(=O)(=O)c1ccccc1C=NOc1ccc(C(=O)[O-])c([O-])c1 (optimized conformer: 39.497457577482244 kcal/mol)

> <smiles>
NS(=O)(=O)c1ccccc1C=NOc1ccc(C(=O)O)c(O)c1

> <score_type>
oracle

> <origin>
adg

> <m_score__min__energy>
-15.890000000000001

> <m_primary>
energy

> <minimizedAffinity>
-8.34589

> <minimizedRMSD>
1.13154

> <CNNscore>
0.8381566405

> <CNNaffinity>
6.4353866577

> <CNN_VS>
5.3938622475

> <CNNaffinity_variance>
0.1331817955

$$$$
38:0


 25 27  0  0  0  0  0  0  0  0999 V2000
   58.8392   26.9955   46.7688 C   0  0  0  0  0  0  0  0  0  0  0  0
   60.1153   26.6284   46.3189 C   0  0  0  0  0  0  0  0  0  0  0  0
   60.9433   27.5717   45.7070 C   0  0  0  0  0  0  0  0  0  0  0  0
   60.4990   28.8836   45.5234 C   0  0  0  0  0  0  0  0  0  0  0  0
   59.2085   29.2594   45.9366 C   0  0  0  0  0  0  0  0  0  0  0  0
   58.3908   28.3124   46.5729 C   0  0  0  0  0  0  0  0  0  0  0  0
   58.7294   30.6037   45.7707 N   0  0  0  0  0  0  0  0  0  0  0  0
   57.5434   30.9511   45.0386 C   0  0  0  0  0  0  0  0  0  0  0  0
   56.7397   30.0584   44.6557 O   0  0  0  0  0  0  0  0  0  0  0  0
   59.2462   31.3322   46.1847 H   0  0  0  0  0  0  0  0  0  0  0  0
   57.2027   32.3901   44.8073 C   0  0  0  0  0  0  0  0  0  0  0  0
   58.1008   33.2652   45.6228 C   0  0  0  0  0  0  0  0  0  0  0  0
   59.0301   34.1683   45.1235 C   0  0  0  0  0  0  0  0  0  0  0  0
   59.7827   34.7929   46.1253 C   0  0  0  0  0  0  0  0  0  0  0  0
   59.4562   34.3752   47.4096 C   0  0  0  0  0  0  0  0  0  0  0  0
   58.2341   33.2256   47.2986 S   0  0  0  0  0  0  0  0  0  0  0  0
   57.9333   25.9756   47.4024 C   0  0  0  0  0  0  0  0  0  0  0  0
   55.0653   23.4337   44.1400 C   0  0  0  0  0  0  0  0  0  0  0  0
   56.1697   23.8458   44.9999 N   0  0  0  0  0  0  0  0  0  0  0  0
   56.2137   24.9023   45.8254 C   0  0  0  0  0  0  0  0  0  0  0  0
   55.1482   25.7592   46.0715 O   0  0  0  0  0  0  0  0  0  0  0  0
   57.4750   24.9889   46.3746 C   0  0  0  0  0  0  0  0  0  0  0  0
   58.2411   23.9832   45.8981 N   0  0  0  0  0  0  0  0  0  0  0  0
   57.4134   23.3245   45.0556 C   0  0  0  0  0  0  0  0  0  0  0  0
   57.7775   22.3215   44.3869 O   0  0  0  0  0  0  0  0  0  0  0  0
 18 19  1  0
 19 20  1  0
 20 21  1  0
 20 22  2  0
 22 17  1  0
 17  1  1  0
  1  2  2  0
  2  3  1  0
  3  4  2  0
  4  5  1  0
  5  7  1  0
  7  8  1  0
  8  9  2  0
  8 11  1  0
 11 12  1  0
 12 13  2  0
 13 14  1  0
 14 15  2  0
 15 16  1  0
  5  6  2  0
 22 23  1  0
 23 24  1  0
 24 25  2  0
 24 19  1  0
  6  1  1  0
 16 12  1  0
  7 10  1  0
M  CHG 1  21  -1
M  CHG 1  23  -1
M  END
> <UniqueID>
36

> <SMILES>
Cn1c([O-])c(Cc2cccc(NC(=O)Cc3cccs3)c2)[n-]c1=O

> <Energy>
97.18046278536052

> <Genealogy>
Cn1c([O-])c(Cc2cccc(NC(=O)Cc3cccs3)c2)[n-]c1=O (protonated)
Cn1c([O-])c(Cc2cccc(NC(=O)Cc3cccs3)c2)[n-]c1=O (3D coordinates assigned)
Cn1c([O-])c(Cc2cccc(NC(=O)Cc3cccs3)c2)[n-]c1=O (optimized conformer: 97.18046278536052 kcal/mol)

> <smiles>
Cn1c(O)c(Cc2cccc(NC(=O)Cc3cccs3)c2)[nH]c1=O

> <score_type>
oracle

> <origin>
adg

> <m_score__min__energy>
-14.69

> <m_primary>
energy

> <minimizedAffinity>
-7.53280

> <minimizedRMSD>
0.80976

> <CNNscore>
0.4787137806

> <CNNaffinity>
6.4776825905

> <CNN_VS>
3.1009559631

> <CNNaffinity_variance>
0.0203029346

$$$$
66:0


 28 32  0  0  0  0  0  0  0  0999 V2000
   57.8732   28.6320   44.0796 C   0  0  0  0  0  0  0  0  0  0  0  0
   57.6782   29.9162   44.0435 N   0  0  0  0  0  0  0  0  0  0  0  0
   58.3990   30.4946   45.1004 N   0  0  0  0  0  0  0  0  0  0  0  0
   57.9954   31.4804   45.9391 C   0  0  0  0  0  0  0  0  0  0  0  0
   57.4476   32.6234   45.6172 N   0  0  0  0  0  0  0  0  0  0  0  0
   58.2826   31.1799   47.2287 N   0  0  0  0  0  0  0  0  0  0  0  0
   58.8617   29.9615   47.1176 C   0  0  0  0  0  0  0  0  0  0  0  0
   59.1396   29.1963   48.1304 N   0  0  0  0  0  0  0  0  0  0  0  0
   58.9840   29.5750   45.8329 N   0  0  0  0  0  0  0  0  0  0  0  0
   58.7370   28.3191   45.2181 C   0  0  0  0  0  0  0  0  0  0  0  0
   59.2210   27.1173   45.5542 C   0  0  0  0  0  0  0  0  0  0  0  0
   58.3937   25.9112   45.7321 C   0  0  0  0  0  0  0  0  0  0  0  0
   58.8998   24.6648   45.7412 N   0  0  0  0  0  0  0  0  0  0  0  0
   57.8219   23.8919   45.9927 C   0  0  0  0  0  0  0  0  0  0  0  0
   57.8906   22.6370   46.0659 O   0  0  0  0  0  0  0  0  0  0  0  0
   56.6659   24.5678   46.1676 N   0  0  0  0  0  0  0  0  0  0  0  0
   57.0463   25.8451   46.0111 C   0  0  0  0  0  0  0  0  0  0  0  0
   56.1820   26.9245   46.1532 O   0  0  0  0  0  0  0  0  0  0  0  0
   57.9034   34.0118   45.4156 C   0  0  0  0  0  0  0  0  0  0  0  0
   58.9334   34.5929   46.3637 C   0  0  0  0  0  0  0  0  0  0  0  0
   59.3359   34.1678   44.9480 C   0  0  0  0  0  0  0  0  0  0  0  0
   60.1351   29.5082   49.1515 C   0  0  0  0  0  0  0  0  0  0  0  0
   60.8018   30.8084   48.8356 C   0  0  0  0  0  0  0  0  0  0  0  0
   61.8463   31.0670   47.5414 S   0  0  0  0  0  0  0  0  0  0  0  0
   62.0531   32.7101   47.8271 C   0  0  0  0  0  0  0  0  0  0  0  0
   63.0504   33.7793   46.8643 Cl  0  0  0  0  0  0  0  0  0  0  0  0
   61.2985   33.0816   48.9302 C   0  0  0  0  0  0  0  0  0  0  0  0
   60.5887   32.0151   49.4939 C   0  0  0  0  0  0  0  0  0  0  0  0
  1  2  2  0
  2  3  1  0
  3  4  1  0
  4  5  2  0
  5 19  1  0
 19 20  1  0
 20 21  1  0
  4  6  1  0
  6  7  1  0
  7  8  2  0
  8 22  1  0
 22 23  1  0
 23 24  1  0
 24 25  1  0
 25 26  1  0
 25 27  2  0
 27 28  1  0
  7  9  1  0
  9 10  1  0
 10 11  2  0
 11 12  1  0
 12 13  1  0
 13 14  1  0
 14 15  2  0
 14 16  1  0
 16 17  1  0
 17 18  1  0
 10  1  1  0
 17 12  2  0
  9  3  1  0
 21 19  1  0
 28 23  2  0
M  CHG 1   6  -1
M  CHG 1  13  -1
M  CHG 1  16  -1
M  CHG 1  18  -1
M  END
> <UniqueID>
60

> <SMILES>
O=c1[n-]c([O-])c(C=C2C=Nn3/c(=N\C4CC4)[n-]c(=NCc4ccc(Cl)s4)n32)[n-]1

> <Energy>
478.7567759408413

> <Genealogy>
O=c1[n-]c([O-])c(C=C2C=Nn3c(=NC4CC4)[n-]c(=NCc4ccc(Cl)s4)n32)[n-]1 (protonated)
O=c1[n-]c([O-])c(C=C2C=Nn3/c(=N\C4CC4)[n-]c(=NCc4ccc(Cl)s4)n32)[n-]1 (cis-trans isomerization)
O=c1[n-]c([O-])c(C=C2C=Nn3/c(=N\C4CC4)[n-]c(=NCc4ccc(Cl)s4)n32)[n-]1 (3D coordinates assigned)
O=c1[n-]c([O-])c(C=C2C=Nn3/c(=N\C4CC4)[n-]c(=NCc4ccc(Cl)s4)n32)[n-]1 (nonaromatic ring conformer: 478.7567759408413 kcal/mol)

> <smiles>
O=c1[nH]c(O)c(C=C2C=Nn3c(=NC4CC4)[nH]c(=NCc4ccc(Cl)s4)n32)[nH]1

> <score_type>
oracle

> <origin>
adg

> <m_score__min__energy>
-16.760000000000002

> <m_primary>
energy

> <minimizedAffinity>
-7.70936

> <minimizedRMSD>
0.97074

> <CNNscore>
0.6793195605

> <CNNaffinity>
7.3320789337

> <CNN_VS>
4.9808244705

> <CNNaffinity_variance>
0.0505159013

$$$$
31:0


 27 28  0  0  0  0  0  0  0  0999 V2000
   58.1562   30.5600   44.0289 N   0  0  0  0  0  0  0  0  0  0  0  0
   57.6591   29.8014   45.1394 C   0  0  0  0  0  0  0  0  0  0  0  0
   56.4368   29.5016   45.1726 O   0  0  0  0  0  0  0  0  0  0  0  0
   58.7353   28.0067   46.5612 C   0  0  0  0  0  0  0  0  0  0  0  0
   59.5488   27.6640   47.6530 C   0  0  0  0  0  0  0  0  0  0  0  0
   60.1636   28.6553   48.4209 C   0  0  0  0  0  0  0  0  0  0  0  0
   59.9664   30.0003   48.1138 C   0  0  0  0  0  0  0  0  0  0  0  0
   59.1514   30.3590   47.0392 C   0  0  0  0  0  0  0  0  0  0  0  0
   58.5355   29.3745   46.2498 C   0  0  0  0  0  0  0  0  0  0  0  0
   56.2839   26.6825   45.8529 N   0  0  0  0  0  0  0  0  0  0  0  0
   57.9950   26.7110   45.6072 S   0  0  0  0  0  0  0  0  0  0  0  0
   58.2762   26.9415   44.1496 O   0  0  0  0  0  0  0  0  0  0  0  0
   58.5546   25.3784   46.0215 O   0  0  0  0  0  0  0  0  0  0  0  0
   55.8731   25.9320   45.2975 H   0  0  0  0  0  0  0  0  0  0  0  0
   57.9949   32.0002   43.8395 C   0  0  0  0  0  0  0  0  0  0  0  0
   57.0930   32.5937   44.9301 C   0  0  0  0  0  0  0  0  0  0  0  0
   57.5557   33.9872   45.3569 C   0  0  0  0  0  0  0  0  0  0  0  0
   58.3167   33.9104   46.5974 N   0  0  0  0  0  0  0  0  0  0  0  0
   59.5930   34.5349   46.7673 C   0  0  0  0  0  0  0  0  0  0  0  0
   59.8252   35.6417   46.2091 O   0  0  0  0  0  0  0  0  0  0  0  0
   60.6364   33.8854   47.5941 C   0  0  0  0  0  0  0  0  0  0  0  0
   60.5643   33.9221   48.9999 C   0  0  0  0  0  0  0  0  0  0  0  0
   61.5507   33.3060   49.7760 C   0  0  0  0  0  0  0  0  0  0  0  0
   62.6199   32.6475   49.1613 C   0  0  0  0  0  0  0  0  0  0  0  0
   63.8554   31.8767   50.1392 Cl  0  0  0  0  0  0  0  0  0  0  0  0
   62.7013   32.6047   47.7678 C   0  0  0  0  0  0  0  0  0  0  0  0
   61.7169   33.2188   46.9856 C   0  0  0  0  0  0  0  0  0  0  0  0
 10 11  1  0
 11 12  2  0
 11 13  2  0
 11  4  1  0
  4  5  2  0
  5  6  1  0
  6  7  2  0
  7  8  1  0
  8  9  2  0
  9  2  1  0
  2  3  2  0
  2  1  1  0
  1 15  1  0
 15 16  1  0
 16 17  1  0
 17 18  1  0
 18 19  1  0
 19 20  2  0
 19 21  1  0
 21 22  2  0
 22 23  1  0
 23 24  2  0
 24 25  1  0
 24 26  1  0
 26 27  2  0
  9  4  1  0
 27 21  1  0
 10 14  1  0
M  CHG 1   1  -1
M  CHG 1  10  -1
M  CHG 1  18  -1
M  END
> <UniqueID>
31

> <SMILES>
[NH-]S(=O)(=O)c1ccccc1C(=O)[N-]CCC[N-]C(=O)c1ccc(Cl)cc1

> <Energy>
41.44724845213878

> <Genealogy>
[NH-]S(=O)(=O)c1ccccc1C(=O)[N-]CCC[N-]C(=O)c1ccc(Cl)cc1 (protonated)
[NH-]S(=O)(=O)c1ccccc1C(=O)[N-]CCC[N-]C(=O)c1ccc(Cl)cc1 (3D coordinates assigned)
[NH-]S(=O)(=O)c1ccccc1C(=O)[N-]CCC[N-]C(=O)c1ccc(Cl)cc1 (optimized conformer: 41.44724845213878 kcal/mol)

> <smiles>
NS(=O)(=O)c1ccccc1C(=O)NCCCNC(=O)c1ccc(Cl)cc1

> <score_type>
oracle

> <origin>
adg

> <m_score__min__energy>
-14.289999999999999

> <m_primary>
energy

> <minimizedAffinity>
-7.44648

> <minimizedRMSD>
0.87037

> <CNNscore>
0.8413259387

> <CNNaffinity>
7.2080116272

> <CNN_VS>
6.0642871857

> <CNNaffinity_variance>
0.2155108005

$$$$
29:0


 31 34  0  0  0  0  0  0  0  0999 V2000
   57.8718   31.7102   45.1348 C   0  0  0  0  0  0  0  0  0  0  0  0
   58.0544   32.9372   44.4738 C   0  0  0  0  0  0  0  0  0  0  0  0
   58.5782   34.0388   45.1569 C   0  0  0  0  0  0  0  0  0  0  0  0
   58.9346   33.9273   46.5046 C   0  0  0  0  0  0  0  0  0  0  0  0
   58.7633   32.7111   47.1765 C   0  0  0  0  0  0  0  0  0  0  0  0
   58.2231   31.6163   46.4936 C   0  0  0  0  0  0  0  0  0  0  0  0
   59.2641   32.5266   48.8563 S   0  0  0  0  0  0  0  0  0  0  0  0
   58.6044   31.3159   49.4564 O   0  0  0  0  0  0  0  0  0  0  0  0
   58.8454   33.7323   49.6505 O   0  0  0  0  0  0  0  0  0  0  0  0
   61.0026   32.3909   48.9281 N   0  0  0  0  0  0  0  0  0  0  0  0
   61.6858   31.7279   47.8429 C   0  0  0  0  0  0  0  0  0  0  0  0
   61.0336   31.0574   46.9979 O   0  0  0  0  0  0  0  0  0  0  0  0
   63.1805   31.7910   47.7231 C   0  0  0  0  0  0  0  0  0  0  0  0
   63.7385   33.4654   48.1487 S   0  0  0  0  0  0  0  0  0  0  0  0
   63.0971   33.3451   49.8194 C   0  0  0  0  0  0  0  0  0  0  0  0
   63.9250   33.6695   50.8998 C   0  0  0  0  0  0  0  0  0  0  0  0
   63.4298   33.6115   52.2044 C   0  0  0  0  0  0  0  0  0  0  0  0
   62.1081   33.2260   52.4302 C   0  0  0  0  0  0  0  0  0  0  0  0
   61.2833   32.8758   51.3584 C   0  0  0  0  0  0  0  0  0  0  0  0
   61.7718   32.9178   50.0372 C   0  0  0  0  0  0  0  0  0  0  0  0
   56.9816   30.6359   43.2042 O   0  0  0  0  0  0  0  0  0  0  0  0
   57.3079   30.5340   44.4159 C   0  0  0  0  0  0  0  0  0  0  0  0
   57.0290   29.3054   45.1031 N   0  0  0  0  0  0  0  0  0  0  0  0
   57.8768   28.4072   45.5320 C   0  0  0  0  0  0  0  0  0  0  0  0
   59.2039   28.7315   45.5448 N   0  0  0  0  0  0  0  0  0  0  0  0
   60.1653   27.8362   45.8998 C   0  0  0  0  0  0  0  0  0  0  0  0
   59.8125   26.5482   46.2952 C   0  0  0  0  0  0  0  0  0  0  0  0
   58.4657   26.1947   46.3392 C   0  0  0  0  0  0  0  0  0  0  0  0
   57.4849   27.1147   45.9662 C   0  0  0  0  0  0  0  0  0  0  0  0
   56.1508   26.7370   46.0649 O   0  0  0  0  0  0  0  0  0  0  0  0
   59.4736   29.6431   45.2889 H   0  0  0  0  0  0  0  0  0  0  0  0
 21 22  2  0
 22 23  1  0
 23 24  2  0
 24 25  1  0
 25 26  1  0
 26 27  2  0
 27 28  1  0
 28 29  2  0
 29 30  1  0
 22  1  1  0
  1  2  2  0
  2  3  1  0
  3  4  2  0
  4  5  1  0
  5  7  1  0
  7  8  2  0
  7  9  2  0
  7 10  1  0
 10 11  1  0
 11 12  2  0
 11 13  1  0
 13 14  1  0
 14 15  1  0
 15 16  2  0
 16 17  1  0
 17 18  2  0
 18 19  1  0
 19 20  2  0
  5  6  2  0
 29 24  1  0
  6  1  1  0
 20 10  1  0
 20 15  1  0
 25 31  1  0
M  CHG 1  30  -1
M  END
> <UniqueID>
30

> <SMILES>
O=C(N=c1[nH]cccc1[O-])c1cccc(S(=O)(=O)N2C(=O)CSc3ccccc32)c1

> <Energy>
68.30058641796667

> <Genealogy>
O=C(N=c1[nH]cccc1[O-])c1cccc(S(=O)(=O)N2C(=O)CSc3ccccc32)c1 (protonated)
O=C(N=c1[nH]cccc1[O-])c1cccc(S(=O)(=O)N2C(=O)CSc3ccccc32)c1 (3D coordinates assigned)
O=C(N=c1[nH]cccc1[O-])c1cccc(S(=O)(=O)N2C(=O)CSc3ccccc32)c1 (nonaromatic ring conformer: 68.30058641796667 kcal/mol)

> <smiles>
O=C(N=c1[nH]cccc1O)c1cccc(S(=O)(=O)N2C(=O)CSc3ccccc32)c1

> <score_type>
oracle

> <origin>
adg

> <m_score__min__energy>
-14.449999999999999

> <m_primary>
energy

> <minimizedAffinity>
-8.21911

> <minimizedRMSD>
0.82893

> <CNNscore>
0.7052969337

> <CNNaffinity>
6.9275074005

> <CNN_VS>
4.8859496117

> <CNNaffinity_variance>
0.0001687275

$$$$
44:0


 30 34  0  0  0  0  0  0  0  0999 V2000
   58.3400   27.0409   45.4679 C   0  0  0  0  0  0  0  0  0  0  0  0
   57.9639   28.3192   45.3515 C   0  0  0  0  0  0  0  0  0  0  0  0
   56.8757   28.8426   44.5171 C   0  0  0  0  0  0  0  0  0  0  0  0
   56.9102   30.1421   44.5419 N   0  0  0  0  0  0  0  0  0  0  0  0
   57.9906   30.5113   45.3572 N   0  0  0  0  0  0  0  0  0  0  0  0
   58.0152   31.4956   46.2791 C   0  0  0  0  0  0  0  0  0  0  0  0
   57.4483   32.6582   46.1485 N   0  0  0  0  0  0  0  0  0  0  0  0
   58.6337   31.1061   47.4163 N   0  0  0  0  0  0  0  0  0  0  0  0
   58.9455   29.8161   47.1310 C   0  0  0  0  0  0  0  0  0  0  0  0
   59.3677   28.9628   48.0175 N   0  0  0  0  0  0  0  0  0  0  0  0
   58.6065   29.4780   45.8695 N   0  0  0  0  0  0  0  0  0  0  0  0
   55.3124   26.7421   45.6863 O   0  0  0  0  0  0  0  0  0  0  0  0
   56.2350   25.9036   46.3039 C   0  0  0  0  0  0  0  0  0  0  0  0
   55.8990   24.8313   47.0409 N   0  0  0  0  0  0  0  0  0  0  0  0
   57.1017   24.3355   47.4062 C   0  0  0  0  0  0  0  0  0  0  0  0
   57.2230   23.3032   48.1139 O   0  0  0  0  0  0  0  0  0  0  0  0
   58.1633   25.0283   46.9411 N   0  0  0  0  0  0  0  0  0  0  0  0
   57.6009   26.0390   46.2546 C   0  0  0  0  0  0  0  0  0  0  0  0
   54.3947   26.5739   45.7734 H   0  0  0  0  0  0  0  0  0  0  0  0
   58.1539   33.8766   45.7689 C   0  0  0  0  0  0  0  0  0  0  0  0
   59.0420   34.4073   46.8786 C   0  0  0  0  0  0  0  0  0  0  0  0
   59.6604   33.7128   45.6731 C   0  0  0  0  0  0  0  0  0  0  0  0
   60.6030   29.1098   48.7825 C   0  0  0  0  0  0  0  0  0  0  0  0
   60.9153   30.5674   48.9910 C   0  0  0  0  0  0  0  0  0  0  0  0
   60.3850   31.2447   50.0995 C   0  0  0  0  0  0  0  0  0  0  0  0
   60.7029   32.5880   50.3230 C   0  0  0  0  0  0  0  0  0  0  0  0
   61.5563   33.2607   49.4424 C   0  0  0  0  0  0  0  0  0  0  0  0
   62.0938   32.5901   48.3393 C   0  0  0  0  0  0  0  0  0  0  0  0
   63.2681   33.5075   47.1444 Br  0  0  0  0  0  0  0  0  0  0  0  0
   61.7768   31.2459   48.1146 C   0  0  0  0  0  0  0  0  0  0  0  0
 12 13  1  0
 13 14  1  0
 14 15  1  0
 15 16  2  0
 15 17  1  0
 17 18  1  0
 18  1  1  0
  1  2  2  0
  2  3  1  0
  3  4  2  0
  4  5  1  0
  5  6  1  0
  6  7  2  0
  7 20  1  0
 20 21  1  0
 21 22  1  0
  6  8  1  0
  8  9  1  0
  9 10  2  0
 10 23  1  0
 23 24  1  0
 24 25  2  0
 25 26  1  0
 26 27  2  0
 27 28  1  0
 28 29  1  0
 28 30  2  0
  9 11  1  0
 18 13  2  0
 11  2  1  0
 11  5  1  0
 22 20  1  0
 30 24  1  0
 12 19  1  0
M  CHG 1   8  -1
M  CHG 1  14  -1
M  CHG 1  17  -1
M  END
> <UniqueID>
43

> <SMILES>
O=c1[n-]c(O)c(C=C2C=Nn3/c(=N\C4CC4)[n-]c(=NCc4cccc(Br)c4)n32)[n-]1

> <Energy>
437.11659706310417

> <Genealogy>
O=c1[n-]c(O)c(C=C2C=Nn3c(=NC4CC4)[n-]c(=NCc4cccc(Br)c4)n32)[n-]1 (protonated)
O=c1[n-]c(O)c(C=C2C=Nn3/c(=N\C4CC4)[n-]c(=NCc4cccc(Br)c4)n32)[n-]1 (cis-trans isomerization)
O=c1[n-]c(O)c(C=C2C=Nn3/c(=N\C4CC4)[n-]c(=NCc4cccc(Br)c4)n32)[n-]1 (3D coordinates assigned)
O=c1[n-]c(O)c(C=C2C=Nn3/c(=N\C4CC4)[n-]c(=NCc4cccc(Br)c4)n32)[n-]1 (nonaromatic ring conformer: 437.11659706310417 kcal/mol)

> <smiles>
O=c1[nH]c(O)c(C=C2C=Nn3c(=NC4CC4)[nH]c(=NCc4cccc(Br)c4)n32)[nH]1

> <score_type>
oracle

> <origin>
adg

> <m_score__min__energy>
-14.67

> <m_primary>
energy

> <minimizedAffinity>
-8.47201

> <minimizedRMSD>
0.37791

> <CNNscore>
0.8524394631

> <CNNaffinity>
7.4335556030

> <CNN_VS>
6.3366560936

> <CNNaffinity_variance>
0.1111268774

$$$$
48:0


 31 33  0  0  0  0  0  0  0  0999 V2000
   56.9964   30.4177   45.0252 N   0  0  0  0  0  0  0  0  0  0  0  0
   57.6100   31.5526   45.1954 C   0  0  0  0  0  0  0  0  0  0  0  0
   58.1443   31.9588   46.3669 N   0  0  0  0  0  0  0  0  0  0  0  0
   58.6484   33.1777   46.0806 C   0  0  0  0  0  0  0  0  0  0  0  0
   58.3947   33.4910   44.7620 C   0  0  0  0  0  0  0  0  0  0  0  0
   57.7388   32.4578   44.2077 N   0  0  0  0  0  0  0  0  0  0  0  0
   57.4208   32.3796   43.2792 H   0  0  0  0  0  0  0  0  0  0  0  0
   59.3300   34.0644   47.0878 C   0  0  0  0  0  0  0  0  0  0  0  0
   60.7682   34.4161   46.6355 C   0  0  0  0  0  0  0  0  0  0  0  0
   61.7994   33.4938   47.2967 C   0  0  0  0  0  0  0  0  0  0  0  0
   61.7951   33.6323   48.7744 N   0  0  0  0  0  0  0  0  0  0  0  0
   60.4546   33.9137   49.3569 C   0  0  0  0  0  0  0  0  0  0  0  0
   59.3055   33.3959   48.4815 C   0  0  0  0  0  0  0  0  0  0  0  0
   62.4399   32.4608   49.4029 C   0  0  0  0  0  0  0  0  0  0  0  0
   61.6732   31.2034   49.0826 C   0  0  0  0  0  0  0  0  0  0  0  0
   61.2558   30.3527   50.1193 C   0  0  0  0  0  0  0  0  0  0  0  0
   60.5392   29.1876   49.8285 C   0  0  0  0  0  0  0  0  0  0  0  0
   60.2330   28.8648   48.5015 C   0  0  0  0  0  0  0  0  0  0  0  0
   59.5375   27.7360   48.2220 F   0  0  0  0  0  0  0  0  0  0  0  0
   60.6454   29.7079   47.4656 C   0  0  0  0  0  0  0  0  0  0  0  0
   61.3641   30.8731   47.7523 C   0  0  0  0  0  0  0  0  0  0  0  0
   56.3670   29.8491   42.8700 O   0  0  0  0  0  0  0  0  0  0  0  0
   57.0574   29.5475   43.8804 C   0  0  0  0  0  0  0  0  0  0  0  0
   57.9053   28.2940   43.8612 C   0  0  0  0  0  0  0  0  0  0  0  0
   58.1091   27.6765   45.2510 C   0  0  0  0  0  0  0  0  0  0  0  0
   56.8192   27.3224   45.8499 N   0  0  0  0  0  0  0  0  0  0  0  0
   56.0641   27.6268   45.2354 H   0  0  0  0  0  0  0  0  0  0  0  0
   56.7327   25.6013   46.0641 S   0  0  0  0  0  0  0  0  0  0  0  0
   57.4758   25.1988   47.3073 O   0  0  0  0  0  0  0  0  0  0  0  0
   57.3550   24.9236   44.8768 O   0  0  0  0  0  0  0  0  0  0  0  0
   55.1281   25.1220   46.1924 O   0  0  0  0  0  0  0  0  0  0  0  0
 22 23  2  0
 23 24  1  0
 24 25  1  0
 25 26  1  0
 26 28  1  0
 28 29  2  0
 28 30  2  0
 28 31  1  0
 23  1  1  0
  1  2  2  0
  2  3  1  0
  3  4  1  0
  4  8  1  0
  8  9  1  0
  9 10  1  0
 10 11  1  0
 11 14  1  0
 14 15  1  0
 15 16  2  0
 16 17  1  0
 17 18  2  0
 18 19  1  0
 18 20  1  0
 20 21  2  0
 11 12  1  0
 12 13  1  0
  4  5  2  0
  5  6  1  0
  6  2  1  0
 13  8  1  0
 21 15  1  0
 26 27  1  0
  6  7  1  0
M  CHG 1   3  -1
M  CHG 1  31  -1
M  END
> <UniqueID>
47

> <SMILES>
O=C(CCNS(=O)(=O)[O-])N=c1[n-]c(C2CCN(Cc3ccc(F)cc3)CC2)c[nH]1

> <Energy>
86.1719693372794

> <Genealogy>
O=C(CCNS(=O)(=O)[O-])N=c1[n-]c(C2CCN(Cc3ccc(F)cc3)CC2)c[nH]1 (protonated)
O=C(CCNS(=O)(=O)[O-])N=c1[n-]c(C2CCN(Cc3ccc(F)cc3)CC2)c[nH]1 (3D coordinates assigned)
O=C(CCNS(=O)(=O)[O-])N=c1[n-]c(C2CCN(Cc3ccc(F)cc3)CC2)c[nH]1 (nonaromatic ring conformer: 86.1719693372794 kcal/mol)

> <smiles>
O=C(CCNS(=O)(=O)[O-])N=c1[nH]cc(C2CCN(Cc3ccc(F)cc3)CC2)[nH]1

> <score_type>
oracle

> <origin>
adg

> <m_score__min__energy>
-14.1

> <m_primary>
energy

> <minimizedAffinity>
-8.09994

> <minimizedRMSD>
0.68012

> <CNNscore>
0.7945698500

> <CNNaffinity>
7.5358047485

> <CNN_VS>
5.9877233505

> <CNNaffinity_variance>
0.1248744503

$$$$
69:0


 22 23  0  0  0  0  0  0  0  0999 V2000
   59.3020   31.8109   48.1351 C   0  0  0  0  0  0  0  0  0  0  0  0
   58.9684   31.0501   47.0035 C   0  0  0  0  0  0  0  0  0  0  0  0
   58.8396   31.6567   45.7433 C   0  0  0  0  0  0  0  0  0  0  0  0
   59.0546   33.0378   45.6214 C   0  0  0  0  0  0  0  0  0  0  0  0
   59.3831   33.8015   46.7424 C   0  0  0  0  0  0  0  0  0  0  0  0
   59.5080   33.1998   47.9997 C   0  0  0  0  0  0  0  0  0  0  0  0
   59.9250   34.2188   49.3726 Cl  0  0  0  0  0  0  0  0  0  0  0  0
   58.3233   31.7074   50.8178 N   0  0  0  0  0  0  0  0  0  0  0  0
   59.4528   31.0152   49.7068 S   0  0  0  0  0  0  0  0  0  0  0  0
   59.1704   29.5446   49.5800 O   0  0  0  0  0  0  0  0  0  0  0  0
   60.8500   31.1962   50.2288 O   0  0  0  0  0  0  0  0  0  0  0  0
   58.4118   31.2471   51.7237 H   0  0  0  0  0  0  0  0  0  0  0  0
   58.5199   30.8264   44.5285 C   0  0  0  0  0  0  0  0  0  0  0  0
   58.3681   29.3699   44.9064 C   0  0  0  0  0  0  0  0  0  0  0  0
   57.0981   28.8053   45.1269 C   0  0  0  0  0  0  0  0  0  0  0  0
   55.9438   29.5617   44.9675 O   0  0  0  0  0  0  0  0  0  0  0  0
   56.9893   27.5041   45.4983 N   0  0  0  0  0  0  0  0  0  0  0  0
   58.0876   26.7272   45.6663 C   0  0  0  0  0  0  0  0  0  0  0  0
   57.9602   25.5235   46.0111 O   0  0  0  0  0  0  0  0  0  0  0  0
   59.3243   27.2472   45.4658 N   0  0  0  0  0  0  0  0  0  0  0  0
   59.4905   28.5423   45.0939 C   0  0  0  0  0  0  0  0  0  0  0  0
   60.6562   28.9878   44.9201 O   0  0  0  0  0  0  0  0  0  0  0  0
  8  9  1  0
  9 10  2  0
  9 11  2  0
  9  1  1  0
  1  2  2  0
  2  3  1  0
  3 13  1  0
 13 14  1  0
 14 15  2  0
 15 16  1  0
 15 17  1  0
 17 18  1  0
 18 19  2  0
 18 20  1  0
 20 21  1  0
 21 22  2  0
  3  4  2  0
  4  5  1  0
  5  6  2  0
  6  7  1  0
  6  1  1  0
 21 14  1  0
  8 12  1  0
M  CHG 1   8  -1
M  CHG 1  16  -1
M  CHG 1  17  -1
M  CHG 1  20  -1
M  END
> <UniqueID>
67

> <SMILES>
[NH-]S(=O)(=O)c1cc(Cc2c([O-])[n-]c(=O)[n-]c2=O)ccc1Cl

> <Energy>
30.766059781550577

> <Genealogy>
[NH-]S(=O)(=O)c1cc(Cc2c([O-])[n-]c(=O)[n-]c2=O)ccc1Cl (protonated)
[NH-]S(=O)(=O)c1cc(Cc2c([O-])[n-]c(=O)[n-]c2=O)ccc1Cl (3D coordinates assigned)
[NH-]S(=O)(=O)c1cc(Cc2c([O-])[n-]c(=O)[n-]c2=O)ccc1Cl (optimized conformer: 30.766059781550577 kcal/mol)

> <smiles>
NS(=O)(=O)c1cc(Cc2c(O)[nH]c(=O)[nH]c2=O)ccc1Cl

> <score_type>
oracle

> <origin>
adg

> <m_score__min__energy>
-15.98

> <m_primary>
energy

> <minimizedAffinity>
-6.47113

> <minimizedRMSD>
1.32910

> <CNNscore>
0.6641626358

> <CNNaffinity>
6.7015933990

> <CNN_VS>
4.4509477615

> <CNNaffinity_variance>
0.8329824805

$$$$
14:0


 30 32  0  0  0  0  0  0  0  0999 V2000
   59.1186   34.6135   45.0373 O   0  0  0  0  0  0  0  0  0  0  0  0
   59.3278   33.8102   45.9847 C   0  0  0  0  0  0  0  0  0  0  0  0
   58.7314   32.4266   45.9260 C   0  0  0  0  0  0  0  0  0  0  0  0
   57.9168   32.2068   44.6511 C   0  0  0  0  0  0  0  0  0  0  0  0
   56.8061   31.2952   44.9014 N   0  0  0  0  0  0  0  0  0  0  0  0
   56.6839   30.0344   44.2396 C   0  0  0  0  0  0  0  0  0  0  0  0
   56.4852   30.0066   42.9959 O   0  0  0  0  0  0  0  0  0  0  0  0
   56.7503   28.8168   44.9939 N   0  0  0  0  0  0  0  0  0  0  0  0
   57.9427   28.1579   45.4481 C   0  0  0  0  0  0  0  0  0  0  0  0
   59.2090   28.7598   45.3310 C   0  0  0  0  0  0  0  0  0  0  0  0
   60.3438   28.1141   45.8347 C   0  0  0  0  0  0  0  0  0  0  0  0
   60.2234   26.8745   46.4671 C   0  0  0  0  0  0  0  0  0  0  0  0
   58.9677   26.2772   46.5973 C   0  0  0  0  0  0  0  0  0  0  0  0
   57.8288   26.9171   46.0949 C   0  0  0  0  0  0  0  0  0  0  0  0
   56.5848   26.3084   46.2305 O   0  0  0  0  0  0  0  0  0  0  0  0
   60.0807   34.2618   47.1169 N   0  0  0  0  0  0  0  0  0  0  0  0
   61.2953   33.6893   47.6267 C   0  0  0  0  0  0  0  0  0  0  0  0
   62.4514   33.6230   46.8284 C   0  0  0  0  0  0  0  0  0  0  0  0
   63.6233   33.0460   47.3222 C   0  0  0  0  0  0  0  0  0  0  0  0
   63.6591   32.5401   48.6218 C   0  0  0  0  0  0  0  0  0  0  0  0
   62.5300   32.6313   49.4395 C   0  0  0  0  0  0  0  0  0  0  0  0
   61.3499   33.2277   48.9632 C   0  0  0  0  0  0  0  0  0  0  0  0
   60.1807   33.3340   49.8676 C   0  0  0  0  0  0  0  0  0  0  0  0
   59.7938   34.4780   50.2371 O   0  0  0  0  0  0  0  0  0  0  0  0
   59.4707   32.1630   50.3169 N   0  0  0  0  0  0  0  0  0  0  0  0
   59.1022   31.1166   49.3551 C   0  0  0  0  0  0  0  0  0  0  0  0
   58.9196   29.7859   50.0892 C   0  0  0  0  0  0  0  0  0  0  0  0
   58.0070   29.9284   51.1610 O   0  0  0  0  0  0  0  0  0  0  0  0
   58.5534   30.7945   52.1408 C   0  0  0  0  0  0  0  0  0  0  0  0
   58.7294   32.2116   51.5808 C   0  0  0  0  0  0  0  0  0  0  0  0
  1  2  2  0
  2  3  1  0
  3  4  1  0
  4  5  1  0
  5  6  1  0
  6  7  2  0
  6  8  1  0
  8  9  1  0
  9 10  2  0
 10 11  1  0
 11 12  2  0
 12 13  1  0
 13 14  2  0
 14 15  1  0
  2 16  1  0
 16 17  1  0
 17 18  2  0
 18 19  1  0
 19 20  2  0
 20 21  1  0
 21 22  2  0
 22 23  1  0
 23 24  2  0
 23 25  1  0
 25 26  1  0
 26 27  1  0
 27 28  1  0
 28 29  1  0
 29 30  1  0
 14  9  1  0
 22 17  1  0
 30 25  1  0
M  CHG 1   5  -1
M  CHG 1   8  -1
M  CHG 1  15  -1
M  CHG 1  16  -1
M  END
> <UniqueID>
14

> <SMILES>
O=C(CC[N-]C(=O)[N-]c1ccccc1[O-])[N-]c1ccccc1C(=O)N1CCOCC1

> <Energy>
62.620776697694595

> <Genealogy>
O=C(CC[N-]C(=O)[N-]c1ccccc1[O-])[N-]c1ccccc1C(=O)N1CCOCC1 (protonated)
O=C(CC[N-]C(=O)[N-]c1ccccc1[O-])[N-]c1ccccc1C(=O)N1CCOCC1 (3D coordinates assigned)
O=C(CC[N-]C(=O)[N-]c1ccccc1[O-])[N-]c1ccccc1C(=O)N1CCOCC1 (nonaromatic ring conformer: 62.620776697694595 kcal/mol)

> <smiles>
O=C(CCNC(=O)Nc1ccccc1O)Nc1ccccc1C(=O)N1CCOCC1

> <score_type>
oracle

> <origin>
adg

> <m_score__min__energy>
-17.390000000000001

> <m_primary>
energy

> <minimizedAffinity>
-7.94876

> <minimizedRMSD>
1.14796

> <CNNscore>
0.4626825452

> <CNNaffinity>
6.6195893288

> <CNN_VS>
3.0627684593

> <CNNaffinity_variance>
0.0042282208

$$$$
23:0


 28 30  0  0  0  0  0  0  0  0999 V2000
   58.4302   30.6717   45.3464 C   0  0  0  0  0  0  0  0  0  0  0  0
   59.6429   30.3594   45.9738 C   0  0  0  0  0  0  0  0  0  0  0  0
   59.9208   29.0431   46.3526 C   0  0  0  0  0  0  0  0  0  0  0  0
   58.9834   28.0219   46.1225 C   0  0  0  0  0  0  0  0  0  0  0  0
   57.7710   28.3403   45.4862 C   0  0  0  0  0  0  0  0  0  0  0  0
   57.4966   29.6565   45.1056 C   0  0  0  0  0  0  0  0  0  0  0  0
   58.0829   32.3204   44.8376 S   0  0  0  0  0  0  0  0  0  0  0  0
   56.7456   32.7696   45.3551 O   0  0  0  0  0  0  0  0  0  0  0  0
   58.0686   32.3744   43.3349 O   0  0  0  0  0  0  0  0  0  0  0  0
   59.3096   33.3920   45.4337 N   0  0  0  0  0  0  0  0  0  0  0  0
   57.6927   33.3941   47.7645 O   0  0  0  0  0  0  0  0  0  0  0  0
   59.0817   33.3244   47.8764 C   0  0  0  0  0  0  0  0  0  0  0  0
   59.6519   33.2533   49.1533 C   0  0  0  0  0  0  0  0  0  0  0  0
   61.0381   33.1865   49.3061 C   0  0  0  0  0  0  0  0  0  0  0  0
   61.8638   33.1839   48.1808 C   0  0  0  0  0  0  0  0  0  0  0  0
   61.3070   33.2517   46.9013 C   0  0  0  0  0  0  0  0  0  0  0  0
   59.9101   33.3265   46.7346 C   0  0  0  0  0  0  0  0  0  0  0  0
   57.1599   33.3915   48.5352 H   0  0  0  0  0  0  0  0  0  0  0  0
   59.2803   26.6193   46.5071 C   0  0  0  0  0  0  0  0  0  0  0  0
   60.4784   26.2294   46.5502 O   0  0  0  0  0  0  0  0  0  0  0  0
   58.2470   25.7021   46.9008 N   0  0  0  0  0  0  0  0  0  0  0  0
   57.7207   24.7820   46.1452 C   0  0  0  0  0  0  0  0  0  0  0  0
   58.4473   23.6961   45.7517 N   0  0  0  0  0  0  0  0  0  0  0  0
   57.9195   22.7180   44.9694 C   0  0  0  0  0  0  0  0  0  0  0  0
   56.5927   22.8040   44.5463 C   0  0  0  0  0  0  0  0  0  0  0  0
   55.8210   23.8994   44.9391 C   0  0  0  0  0  0  0  0  0  0  0  0
   56.3804   24.8932   45.7462 C   0  0  0  0  0  0  0  0  0  0  0  0
   55.6119   25.9831   46.1368 O   0  0  0  0  0  0  0  0  0  0  0  0
 11 12  1  0
 12 13  2  0
 13 14  1  0
 14 15  2  0
 15 16  1  0
 16 17  2  0
 17 10  1  0
 10  7  1  0
  7  8  2  0
  7  9  2  0
  7  1  1  0
  1  2  2  0
  2  3  1  0
  3  4  2  0
  4 19  1  0
 19 20  2  0
 19 21  1  0
 21 22  2  0
 22 23  1  0
 23 24  1  0
 24 25  2  0
 25 26  1  0
 26 27  2  0
 27 28  1  0
  4  5  1  0
  5  6  2  0
 17 12  1  0
  6  1  1  0
 27 22  1  0
 11 18  1  0
M  CHG 1  10  -1
M  CHG 1  23  -1
M  CHG 1  28  -1
M  END
> <UniqueID>
23

> <SMILES>
O=C(/N=c1\[n-]cccc1[O-])c1ccc(S(=O)(=O)[N-]c2ccccc2O)cc1

> <Energy>
54.670857399570814

> <Genealogy>
O=C(N=c1[n-]cccc1[O-])c1ccc(S(=O)(=O)[N-]c2ccccc2O)cc1 (protonated)
O=C(/N=c1\[n-]cccc1[O-])c1ccc(S(=O)(=O)[N-]c2ccccc2O)cc1 (cis-trans isomerization)
O=C(/N=c1\[n-]cccc1[O-])c1ccc(S(=O)(=O)[N-]c2ccccc2O)cc1 (3D coordinates assigned)
O=C(/N=c1\[n-]cccc1[O-])c1ccc(S(=O)(=O)[N-]c2ccccc2O)cc1 (optimized conformer: 54.670857399570814 kcal/mol)

> <smiles>
O=C(N=c1[nH]cccc1O)c1ccc(S(=O)(=O)Nc2ccccc2O)cc1

> <score_type>
oracle

> <origin>
adg

> <m_score__min__energy>
-14.75

> <m_primary>
energy

> <minimizedAffinity>
-8.38875

> <minimizedRMSD>
0.94451

> <CNNscore>
0.3059212267

> <CNNaffinity>
6.3633117676

> <CNN_VS>
1.9466722012

> <CNNaffinity_variance>
0.1771755069

$$$$
24:0


 28 30  0  0  0  0  0  0  0  0999 V2000
   58.6995   32.3458   46.0531 C   0  0  0  0  0  0  0  0  0  0  0  0
   58.7913   33.6083   45.4405 C   0  0  0  0  0  0  0  0  0  0  0  0
   59.3901   34.6780   46.1116 C   0  0  0  0  0  0  0  0  0  0  0  0
   59.9113   34.4999   47.3936 C   0  0  0  0  0  0  0  0  0  0  0  0
   59.8527   33.2416   48.0110 C   0  0  0  0  0  0  0  0  0  0  0  0
   59.2439   32.1711   47.3383 C   0  0  0  0  0  0  0  0  0  0  0  0
   57.4199   31.4470   44.2731 O   0  0  0  0  0  0  0  0  0  0  0  0
   58.0527   31.2186   45.3406 C   0  0  0  0  0  0  0  0  0  0  0  0
   58.1244   29.8808   45.8651 N   0  0  0  0  0  0  0  0  0  0  0  0
   57.7360   28.7091   45.1257 C   0  0  0  0  0  0  0  0  0  0  0  0
   57.1173   28.8222   44.0330 O   0  0  0  0  0  0  0  0  0  0  0  0
   58.4585   29.7601   46.7832 H   0  0  0  0  0  0  0  0  0  0  0  0
   58.0210   27.3546   45.6547 C   0  0  0  0  0  0  0  0  0  0  0  0
   59.3564   26.9415   45.8080 C   0  0  0  0  0  0  0  0  0  0  0  0
   59.6536   25.6651   46.2951 C   0  0  0  0  0  0  0  0  0  0  0  0
   58.6227   24.7909   46.6417 C   0  0  0  0  0  0  0  0  0  0  0  0
   57.2916   25.1940   46.5113 C   0  0  0  0  0  0  0  0  0  0  0  0
   56.9845   26.4713   46.0304 C   0  0  0  0  0  0  0  0  0  0  0  0
   55.6512   26.8592   45.9600 O   0  0  0  0  0  0  0  0  0  0  0  0
   60.3953   33.0488   49.4026 C   0  0  0  0  0  0  0  0  0  0  0  0
   59.5509   32.0553   50.1612 C   0  0  0  0  0  0  0  0  0  0  0  0
   58.3691   32.4677   50.7919 C   0  0  0  0  0  0  0  0  0  0  0  0
   57.6284   31.5800   51.5031 N   0  0  0  0  0  0  0  0  0  0  0  0
   58.0178   30.2850   51.6234 C   0  0  0  0  0  0  0  0  0  0  0  0
   57.3167   29.4772   52.2852 O   0  0  0  0  0  0  0  0  0  0  0  0
   59.1640   29.8606   51.0326 N   0  0  0  0  0  0  0  0  0  0  0  0
   59.9385   30.7129   50.3107 C   0  0  0  0  0  0  0  0  0  0  0  0
   61.0000   30.2844   49.7831 O   0  0  0  0  0  0  0  0  0  0  0  0
  7  8  2  0
  8  9  1  0
  9 10  1  0
 10 11  2  0
 10 13  1  0
 13 14  2  0
 14 15  1  0
 15 16  2  0
 16 17  1  0
 17 18  2  0
 18 19  1  0
  8  1  1  0
  1  2  2  0
  2  3  1  0
  3  4  2  0
  4  5  1  0
  5 20  1  0
 20 21  1  0
 21 22  2  0
 22 23  1  0
 23 24  1  0
 24 25  2  0
 24 26  1  0
 26 27  1  0
 27 28  2  0
  5  6  2  0
 18 13  1  0
  6  1  1  0
 27 21  1  0
  9 12  1  0
M  CHG 1  19  -1
M  CHG 1  23  -1
M  CHG 1  26  -1
M  END
> <UniqueID>
24

> <SMILES>
O=C(NC(=O)c1ccccc1[O-])c1cccc(Cc2c[n-]c(=O)[n-]c2=O)c1

> <Energy>
50.095428758219605

> <Genealogy>
O=C(NC(=O)c1ccccc1[O-])c1cccc(Cc2c[n-]c(=O)[n-]c2=O)c1 (protonated)
O=C(NC(=O)c1ccccc1[O-])c1cccc(Cc2c[n-]c(=O)[n-]c2=O)c1 (3D coordinates assigned)
O=C(NC(=O)c1ccccc1[O-])c1cccc(Cc2c[n-]c(=O)[n-]c2=O)c1 (optimized conformer: 50.095428758219605 kcal/mol)

> <smiles>
O=C(NC(=O)c1ccccc1O)c1cccc(Cc2c[nH]c(=O)[nH]c2=O)c1

> <score_type>
oracle

> <origin>
adg

> <m_score__min__energy>
-14.58

> <m_primary>
energy

> <minimizedAffinity>
-7.32033

> <minimizedRMSD>
0.82077

> <CNNscore>
0.5415984988

> <CNNaffinity>
6.5254693031

> <CNN_VS>
3.5341844559

> <CNNaffinity_variance>
0.2466382533

$$$$
45:0


 27 29  0  0  0  0  0  0  0  0999 V2000
   58.8761   34.6656   47.4264 O   0  0  0  0  0  0  0  0  0  0  0  0
   58.8981   33.6618   46.6661 C   0  0  0  0  0  0  0  0  0  0  0  0
   58.0772   33.6837   45.4025 C   0  0  0  0  0  0  0  0  0  0  0  0
   58.0813   32.3267   44.6817 C   0  0  0  0  0  0  0  0  0  0  0  0
   57.0372   31.4371   45.1897 N   0  0  0  0  0  0  0  0  0  0  0  0
   56.9321   30.0303   44.9326 C   0  0  0  0  0  0  0  0  0  0  0  0
   55.8571   29.5810   44.4551 O   0  0  0  0  0  0  0  0  0  0  0  0
   58.0354   29.0929   45.2216 C   0  0  0  0  0  0  0  0  0  0  0  0
   59.3675   29.4916   45.0233 C   0  0  0  0  0  0  0  0  0  0  0  0
   60.4153   28.6055   45.2867 C   0  0  0  0  0  0  0  0  0  0  0  0
   60.1422   27.3128   45.7420 C   0  0  0  0  0  0  0  0  0  0  0  0
   58.8198   26.9025   45.9267 C   0  0  0  0  0  0  0  0  0  0  0  0
   57.7655   27.7856   45.6663 C   0  0  0  0  0  0  0  0  0  0  0  0
   56.4556   27.3594   45.8629 O   0  0  0  0  0  0  0  0  0  0  0  0
   59.7704   32.5723   46.9890 N   0  0  0  0  0  0  0  0  0  0  0  0
   61.1492   32.6917   47.3579 C   0  0  0  0  0  0  0  0  0  0  0  0
   62.0007   33.5671   46.6664 C   0  0  0  0  0  0  0  0  0  0  0  0
   63.3442   33.6811   47.0380 C   0  0  0  0  0  0  0  0  0  0  0  0
   63.8446   32.9181   48.0943 C   0  0  0  0  0  0  0  0  0  0  0  0
   63.0078   32.0326   48.7774 C   0  0  0  0  0  0  0  0  0  0  0  0
   61.6605   31.9020   48.4059 C   0  0  0  0  0  0  0  0  0  0  0  0
   60.7980   31.0167   49.1338 N   0  0  0  0  0  0  0  0  0  0  0  0
   60.6008   29.6392   48.6691 C   0  0  0  0  0  0  0  0  0  0  0  0
   59.1749   29.1292   48.9917 C   0  0  0  0  0  0  0  0  0  0  0  0
   58.4051   30.0385   49.7594 O   0  0  0  0  0  0  0  0  0  0  0  0
   59.1498   30.4788   50.8753 C   0  0  0  0  0  0  0  0  0  0  0  0
   60.2256   31.4582   50.4104 C   0  0  0  0  0  0  0  0  0  0  0  0
  1  2  2  0
  2  3  1  0
  3  4  1  0
  4  5  1  0
  5  6  1  0
  6  7  2  0
  6  8  1  0
  8  9  2  0
  9 10  1  0
 10 11  2  0
 11 12  1  0
 12 13  2  0
 13 14  1  0
  2 15  1  0
 15 16  1  0
 16 17  2  0
 17 18  1  0
 18 19  2  0
 19 20  1  0
 20 21  2  0
 21 22  1  0
 22 23  1  0
 23 24  1  0
 24 25  1  0
 25 26  1  0
 26 27  1  0
 13  8  1  0
 21 16  1  0
 27 22  1  0
M  CHG 1   5  -1
M  CHG 1  14  -1
M  CHG 1  15  -1
M  END
> <UniqueID>
43

> <SMILES>
O=C(CC[N-]C(=O)c1ccccc1[O-])[N-]c1ccccc1N1CCOCC1

> <Energy>
66.3692191583264

> <Genealogy>
O=C(CC[N-]C(=O)c1ccccc1[O-])[N-]c1ccccc1N1CCOCC1 (protonated)
O=C(CC[N-]C(=O)c1ccccc1[O-])[N-]c1ccccc1N1CCOCC1 (3D coordinates assigned)
O=C(CC[N-]C(=O)c1ccccc1[O-])[N-]c1ccccc1N1CCOCC1 (nonaromatic ring conformer: 66.3692191583264 kcal/mol)

> <smiles>
O=C(CCNC(=O)c1ccccc1O)Nc1ccccc1N1CCOCC1

> <score_type>
oracle

> <origin>
adg

> <m_score__min__energy>
-14.66

> <m_primary>
energy

> <minimizedAffinity>
-7.37089

> <minimizedRMSD>
1.10506

> <CNNscore>
0.7662097216

> <CNNaffinity>
6.4649319649

> <CNN_VS>
4.9534935951

> <CNNaffinity_variance>
0.2982018292

$$$$
46:0


 32 34  0  0  0  0  0  0  0  0999 V2000
   60.4803   33.5007   48.1495 S   0  0  0  0  0  0  0  0  0  0  0  0
   61.9234   33.9014   48.2560 O   0  0  0  0  0  0  0  0  0  0  0  0
   59.6442   34.5204   48.8730 O   0  0  0  0  0  0  0  0  0  0  0  0
   60.2859   31.9133   48.8858 C   0  0  0  0  0  0  0  0  0  0  0  0
   61.2420   30.9081   48.6865 C   0  0  0  0  0  0  0  0  0  0  0  0
   61.0905   29.6642   49.3047 C   0  0  0  0  0  0  0  0  0  0  0  0
   59.9798   29.4149   50.1162 C   0  0  0  0  0  0  0  0  0  0  0  0
   59.0031   30.4078   50.3031 C   0  0  0  0  0  0  0  0  0  0  0  0
   59.1717   31.6593   49.6966 C   0  0  0  0  0  0  0  0  0  0  0  0
   57.8657   30.1953   51.1497 N   0  0  0  0  0  0  0  0  0  0  0  0
   57.3024   31.1488   52.0613 C   0  0  0  0  0  0  0  0  0  0  0  0
   56.0561   31.1550   52.2380 O   0  0  0  0  0  0  0  0  0  0  0  0
   58.1473   32.0764   52.8384 C   0  0  0  0  0  0  0  0  0  0  0  0
   58.2934   33.4270   52.5787 C   0  0  0  0  0  0  0  0  0  0  0  0
   59.1342   33.9200   53.5573 C   0  0  0  0  0  0  0  0  0  0  0  0
   59.4547   32.8548   54.3754 C   0  0  0  0  0  0  0  0  0  0  0  0
   58.8490   31.7367   53.9369 N   0  0  0  0  0  0  0  0  0  0  0  0
   58.9074   30.8411   54.3415 H   0  0  0  0  0  0  0  0  0  0  0  0
   60.0331   33.4400   46.4662 N   0  0  0  0  0  0  0  0  0  0  0  0
   58.5814   33.3702   46.2823 C   0  0  0  0  0  0  0  0  0  0  0  0
   58.2244   32.6793   44.9609 C   0  0  0  0  0  0  0  0  0  0  0  0
   57.6439   28.4513   45.6078 C   0  0  0  0  0  0  0  0  0  0  0  0
   58.5747   29.1616   46.3779 C   0  0  0  0  0  0  0  0  0  0  0  0
   58.7693   30.5288   46.1621 C   0  0  0  0  0  0  0  0  0  0  0  0
   58.0389   31.2004   45.1696 C   0  0  0  0  0  0  0  0  0  0  0  0
   57.0918   30.4915   44.4132 C   0  0  0  0  0  0  0  0  0  0  0  0
   56.8979   29.1234   44.6303 C   0  0  0  0  0  0  0  0  0  0  0  0
   55.6873   26.4223   46.0256 N   0  0  0  0  0  0  0  0  0  0  0  0
   57.3817   26.7329   45.8865 S   0  0  0  0  0  0  0  0  0  0  0  0
   57.9466   25.9413   44.7411 O   0  0  0  0  0  0  0  0  0  0  0  0
   58.0708   26.3076   47.1531 O   0  0  0  0  0  0  0  0  0  0  0  0
   55.5363   25.4266   46.1870 H   0  0  0  0  0  0  0  0  0  0  0  0
 28 29  1  0
 29 30  2  0
 29 31  2  0
 29 22  1  0
 22 23  2  0
 23 24  1  0
 24 25  2  0
 25 21  1  0
 21 20  1  0
 20 19  1  0
 19  1  1  0
  1  2  2  0
  1  3  2  0
  1  4  1  0
  4  5  2  0
  5  6  1  0
  6  7  2  0
  7  8  1  0
  8 10  1  0
 10 11  1  0
 11 12  2  0
 11 13  1  0
 13 14  2  0
 14 15  1  0
 15 16  2  0
 16 17  1  0
  8  9  2  0
 25 26  1  0
 26 27  2  0
 27 22  1  0
  9  4  1  0
 17 13  1  0
 28 32  1  0
 17 18  1  0
M  CHG 1  10  -1
M  CHG 1  19  -1
M  CHG 1  28  -1
M  END
> <UniqueID>
44

> <SMILES>
[NH-]S(=O)(=O)c1ccc(CC[N-]S(=O)(=O)c2cccc([N-]C(=O)c3ccc[nH]3)c2)cc1

> <Energy>
76.24246067122517

> <Genealogy>
[NH-]S(=O)(=O)c1ccc(CC[N-]S(=O)(=O)c2cccc([N-]C(=O)c3ccc[nH]3)c2)cc1 (protonated)
[NH-]S(=O)(=O)c1ccc(CC[N-]S(=O)(=O)c2cccc([N-]C(=O)c3ccc[nH]3)c2)cc1 (3D coordinates assigned)
[NH-]S(=O)(=O)c1ccc(CC[N-]S(=O)(=O)c2cccc([N-]C(=O)c3ccc[nH]3)c2)cc1 (optimized conformer: 76.24246067122517 kcal/mol)

> <smiles>
NS(=O)(=O)c1ccc(CCNS(=O)(=O)c2cccc(NC(=O)c3ccc[nH]3)c2)cc1

> <score_type>
oracle

> <origin>
adg

> <m_score__min__energy>
-14.02

> <m_primary>
energy

> <minimizedAffinity>
-7.68782

> <minimizedRMSD>
1.29892

> <CNNscore>
0.7061634660

> <CNNaffinity>
7.1460852623

> <CNN_VS>
5.0463042259

> <CNNaffinity_variance>
0.0499423295

$$$$
48:0


 34 37  0  0  0  0  0  0  0  0999 V2000
   58.3690   26.6762   44.1344 C   0  0  0  0  0  0  0  0  0  0  0  0
   58.4468   27.2232   45.3575 C   0  0  0  0  0  0  0  0  0  0  0  0
   58.6465   26.5772   46.5820 C   0  0  0  0  0  0  0  0  0  0  0  0
   58.6737   25.2725   46.9127 C   0  0  0  0  0  0  0  0  0  0  0  0
   58.7867   27.6068   47.4977 C   0  0  0  0  0  0  0  0  0  0  0  0
   58.6297   28.7904   46.8788 N   0  0  0  0  0  0  0  0  0  0  0  0
   58.4240   28.5586   45.5921 N   0  0  0  0  0  0  0  0  0  0  0  0
   57.9321   24.2036   46.2168 C   0  0  0  0  0  0  0  0  0  0  0  0
   58.5981   23.2719   45.4113 C   0  0  0  0  0  0  0  0  0  0  0  0
   59.9816   23.3101   45.2719 O   0  0  0  0  0  0  0  0  0  0  0  0
   57.8915   22.3217   44.7549 N   0  0  0  0  0  0  0  0  0  0  0  0
   56.5386   22.2556   44.8426 C   0  0  0  0  0  0  0  0  0  0  0  0
   55.9277   21.3564   44.2033 O   0  0  0  0  0  0  0  0  0  0  0  0
   55.8499   23.1657   45.6024 N   0  0  0  0  0  0  0  0  0  0  0  0
   56.5315   24.1431   46.2833 C   0  0  0  0  0  0  0  0  0  0  0  0
   55.9067   24.9821   46.9905 O   0  0  0  0  0  0  0  0  0  0  0  0
   54.4117   23.0962   45.6854 C   0  0  0  0  0  0  0  0  0  0  0  0
   53.7956   22.2598   46.6310 C   0  0  0  0  0  0  0  0  0  0  0  0
   52.4012   22.1932   46.7114 C   0  0  0  0  0  0  0  0  0  0  0  0
   51.6135   22.9589   45.8475 C   0  0  0  0  0  0  0  0  0  0  0  0
   50.2272   22.8926   45.9279 O   0  0  0  0  0  0  0  0  0  0  0  0
   52.2188   23.7943   44.9033 C   0  0  0  0  0  0  0  0  0  0  0  0
   53.6127   23.8644   44.8219 C   0  0  0  0  0  0  0  0  0  0  0  0
   58.1725   29.6343   44.6285 C   0  0  0  0  0  0  0  0  0  0  0  0
   56.7909   30.1864   44.8040 C   0  0  0  0  0  0  0  0  0  0  0  0
   55.8061   29.3991   44.8182 O   0  0  0  0  0  0  0  0  0  0  0  0
   56.5938   31.6040   44.8649 N   0  0  0  0  0  0  0  0  0  0  0  0
   57.5515   32.5875   45.2885 C   0  0  0  0  0  0  0  0  0  0  0  0
   57.7363   32.8896   46.6512 C   0  0  0  0  0  0  0  0  0  0  0  0
   58.6957   33.8243   47.0446 C   0  0  0  0  0  0  0  0  0  0  0  0
   59.4903   34.4574   46.0881 C   0  0  0  0  0  0  0  0  0  0  0  0
   59.3355   34.1493   44.7354 C   0  0  0  0  0  0  0  0  0  0  0  0
   58.3742   33.2090   44.3260 C   0  0  0  0  0  0  0  0  0  0  0  0
   58.2271   32.8727   42.8667 C   0  0  0  0  0  0  0  0  0  0  0  0
  1  2  2  0
  2  3  1  0
  3  4  2  0
  4  8  1  0
  8  9  2  0
  9 10  1  0
  9 11  1  0
 11 12  1  0
 12 13  2  0
 12 14  1  0
 14 17  1  0
 17 18  2  0
 18 19  1  0
 19 20  2  0
 20 21  1  0
 20 22  1  0
 22 23  2  0
 14 15  1  0
 15 16  2  0
  3  5  1  0
  5  6  2  0
  6  7  1  0
  7 24  1  0
 24 25  1  0
 25 26  2  0
 25 27  1  0
 27 28  1  0
 28 29  2  0
 29 30  1  0
 30 31  2  0
 31 32  1  0
 32 33  2  0
 33 34  1  0
  7  2  1  0
 33 28  1  0
 15  8  1  0
 23 17  1  0
M  CHG 1  10  -1
M  CHG 1  11  -1
M  CHG 1  21  -1
M  CHG 1  27  -1
M  END
> <UniqueID>
46

> <SMILES>
C=c1/c(=C\c2c([O-])[n-]c(=O)n(-c3ccc([O-])cc3)c2=O)cnn1CC(=O)[N-]c1ccccc1C

> <Energy>
113.40769814090437

> <Genealogy>
C=c1c(=Cc2c([O-])[n-]c(=O)n(-c3ccc([O-])cc3)c2=O)cnn1CC(=O)[N-]c1ccccc1C (protonated)
C=c1/c(=C\c2c([O-])[n-]c(=O)n(-c3ccc([O-])cc3)c2=O)cnn1CC(=O)[N-]c1ccccc1C (cis-trans isomerization)
C=c1/c(=C\c2c([O-])[n-]c(=O)n(-c3ccc([O-])cc3)c2=O)cnn1CC(=O)[N-]c1ccccc1C (3D coordinates assigned)
C=c1/c(=C\c2c([O-])[n-]c(=O)n(-c3ccc([O-])cc3)c2=O)cnn1CC(=O)[N-]c1ccccc1C (optimized conformer: 113.40769814090437 kcal/mol)

> <smiles>
C=c1c(=Cc2c(O)[nH]c(=O)n(-c3ccc(O)cc3)c2=O)cnn1CC(=O)Nc1ccccc1C

> <score_type>
oracle

> <origin>
adg

> <m_score__min__energy>
-15.51

> <m_primary>
energy

> <minimizedAffinity>
-7.89130

> <minimizedRMSD>
0.45119

> <CNNscore>
0.1571165770

> <CNNaffinity>
6.3791217804

> <CNN_VS>
1.0022658110

> <CNNaffinity_variance>
0.2644775212

$$$$
57:0


 31 35  0  0  0  0  0  0  0  0999 V2000
   55.6947   30.9183   52.2525 C   0  0  0  0  0  0  0  0  0  0  0  0
   56.8369   30.3375   52.4899 N   0  0  0  0  0  0  0  0  0  0  0  0
   56.5450   29.0656   53.0009 N   0  0  0  0  0  0  0  0  0  0  0  0
   57.1792   28.4021   53.9858 C   0  0  0  0  0  0  0  0  0  0  0  0
   58.4589   28.5445   54.2096 N   0  0  0  0  0  0  0  0  0  0  0  0
   56.2838   27.7024   54.7389 N   0  0  0  0  0  0  0  0  0  0  0  0
   55.0887   28.0594   54.1943 C   0  0  0  0  0  0  0  0  0  0  0  0
   53.9264   27.7831   54.7052 N   0  0  0  0  0  0  0  0  0  0  0  0
   55.2631   28.8519   53.1225 N   0  0  0  0  0  0  0  0  0  0  0  0
   54.5973   30.0178   52.6610 C   0  0  0  0  0  0  0  0  0  0  0  0
   53.2826   30.2538   52.7372 C   0  0  0  0  0  0  0  0  0  0  0  0
   56.4584   27.0907   55.4902 H   0  0  0  0  0  0  0  0  0  0  0  0
   52.4258   30.4809   51.5621 C   0  0  0  0  0  0  0  0  0  0  0  0
   52.4363   29.6853   50.4777 N   0  0  0  0  0  0  0  0  0  0  0  0
   51.5744   30.2927   49.6341 C   0  0  0  0  0  0  0  0  0  0  0  0
   51.3027   29.8322   48.4948 O   0  0  0  0  0  0  0  0  0  0  0  0
   51.0330   31.4373   50.1029 N   0  0  0  0  0  0  0  0  0  0  0  0
   51.5908   31.5497   51.3204 C   0  0  0  0  0  0  0  0  0  0  0  0
   51.3786   32.6331   52.1621 O   0  0  0  0  0  0  0  0  0  0  0  0
   59.4981   27.7316   54.8669 C   0  0  0  0  0  0  0  0  0  0  0  0
   60.6862   27.3092   54.0261 C   0  0  0  0  0  0  0  0  0  0  0  0
   59.6201   26.2844   54.4290 C   0  0  0  0  0  0  0  0  0  0  0  0
   52.7872   27.2923   53.9394 C   0  0  0  0  0  0  0  0  0  0  0  0
   52.9554   25.8208   53.6981 C   0  0  0  0  0  0  0  0  0  0  0  0
   52.2389   25.1817   52.6752 C   0  0  0  0  0  0  0  0  0  0  0  0
   52.3662   23.8040   52.4791 C   0  0  0  0  0  0  0  0  0  0  0  0
   53.1980   23.0415   53.3064 C   0  0  0  0  0  0  0  0  0  0  0  0
   53.9061   23.6788   54.3436 C   0  0  0  0  0  0  0  0  0  0  0  0
   53.7800   25.0573   54.5388 C   0  0  0  0  0  0  0  0  0  0  0  0
   53.2915   21.6611   53.0683 O   0  0  0  0  0  0  0  0  0  0  0  0
   54.5086   20.9727   52.8013 C   0  0  0  0  0  0  0  0  0  0  0  0
  1  2  2  0
  2  3  1  0
  3  4  1  0
  4  5  2  0
  5 20  1  0
 20 21  1  0
 21 22  1  0
  4  6  1  0
  6  7  1  0
  7  8  2  0
  8 23  1  0
 23 24  1  0
 24 25  2  0
 25 26  1  0
 26 27  2  0
 27 30  1  0
 30 31  1  0
 27 28  1  0
 28 29  2  0
  7  9  1  0
  9 10  1  0
 10 11  2  0
 11 13  1  0
 13 14  1  0
 14 15  1  0
 15 16  2  0
 15 17  1  0
 17 18  1  0
 18 19  1  0
 10  1  1  0
 18 13  2  0
  9  3  1  0
 22 20  1  0
 29 24  1  0
  6 12  1  0
M  CHG 1  14  -1
M  CHG 1  17  -1
M  CHG 1  19  -1
M  END
> <UniqueID>
51

> <SMILES>
COc1ccc(CN=c2[nH]/c(=N\C3CC3)n3n2/C(=C/c2[n-]c(=O)[n-]c2[O-])C=N3)cc1

> <Energy>
457.8716539074579

> <Genealogy>
COc1ccc(CN=c2[nH]c(=NC3CC3)n3n2C(=Cc2[n-]c(=O)[n-]c2[O-])C=N3)cc1 (protonated)
COc1ccc(CN=c2[nH]/c(=N\C3CC3)n3n2/C(=C/c2[n-]c(=O)[n-]c2[O-])C=N3)cc1 (cis-trans isomerization)
COc1ccc(CN=c2[nH]/c(=N\C3CC3)n3n2/C(=C/c2[n-]c(=O)[n-]c2[O-])C=N3)cc1 (3D coordinates assigned)
COc1ccc(CN=c2[nH]/c(=N\C3CC3)n3n2/C(=C/c2[n-]c(=O)[n-]c2[O-])C=N3)cc1 (nonaromatic ring conformer: 457.8716539074579 kcal/mol)

> <smiles>
COc1ccc(CN=c2[nH]c(=NC3CC3)n3n2C(=Cc2[nH]c(=O)[nH]c2O)C=N3)cc1

> <score_type>
oracle

> <origin>
adg

> <m_score__min__energy>
-15.630000000000001

> <m_primary>
energy

> <minimizedAffinity>
-3.77287

> <minimizedRMSD>
1.31617

> <CNNscore>
0.0601968952

> <CNNaffinity>
4.1250262260

> <CNN_VS>
0.2483137697

> <CNNaffinity_variance>
0.7209089398

$$$$
38:0


 31 35  0  0  0  0  0  0  0  0999 V2000
   53.5578   30.8426   53.1431 C   0  0  0  0  0  0  0  0  0  0  0  0
   54.2888   29.7960   53.5508 C   0  0  0  0  0  0  0  0  0  0  0  0
   53.8023   28.6620   54.1870 C   0  0  0  0  0  0  0  0  0  0  0  0
   54.8218   27.8055   54.4205 N   0  0  0  0  0  0  0  0  0  0  0  0
   55.9410   28.3425   53.9471 N   0  0  0  0  0  0  0  0  0  0  0  0
   57.2249   27.8576   53.9024 C   0  0  0  0  0  0  0  0  0  0  0  0
   57.6101   26.7292   54.4310 N   0  0  0  0  0  0  0  0  0  0  0  0
   58.1652   28.6184   53.2794 N   0  0  0  0  0  0  0  0  0  0  0  0
   57.8521   29.8239   52.7179 C   0  0  0  0  0  0  0  0  0  0  0  0
   58.7610   30.5422   52.1279 N   0  0  0  0  0  0  0  0  0  0  0  0
   56.5755   30.2862   52.7761 N   0  0  0  0  0  0  0  0  0  0  0  0
   55.6431   29.5377   53.4118 C   0  0  0  0  0  0  0  0  0  0  0  0
   54.7475   26.9309   54.8665 H   0  0  0  0  0  0  0  0  0  0  0  0
   52.7597   30.8664   51.9065 C   0  0  0  0  0  0  0  0  0  0  0  0
   52.9136   29.9801   50.9072 N   0  0  0  0  0  0  0  0  0  0  0  0
   51.9307   30.3082   50.0393 C   0  0  0  0  0  0  0  0  0  0  0  0
   51.6966   29.5163   48.6305 S   0  0  0  0  0  0  0  0  0  0  0  0
   51.1437   31.3289   50.4425 N   0  0  0  0  0  0  0  0  0  0  0  0
   51.6727   31.6628   51.6310 C   0  0  0  0  0  0  0  0  0  0  0  0
   51.1477   32.6463   52.4596 O   0  0  0  0  0  0  0  0  0  0  0  0
   58.1838   26.4676   55.7436 C   0  0  0  0  0  0  0  0  0  0  0  0
   59.3443   27.3978   56.0445 C   0  0  0  0  0  0  0  0  0  0  0  0
   58.0095   27.5997   56.7410 C   0  0  0  0  0  0  0  0  0  0  0  0
   58.7478   32.0016   52.0429 C   0  0  0  0  0  0  0  0  0  0  0  0
   59.1946   32.4563   50.6792 C   0  0  0  0  0  0  0  0  0  0  0  0
   58.7067   31.8145   49.5289 C   0  0  0  0  0  0  0  0  0  0  0  0
   59.0973   32.2505   48.2587 C   0  0  0  0  0  0  0  0  0  0  0  0
   59.9725   33.3321   48.1276 C   0  0  0  0  0  0  0  0  0  0  0  0
   60.4577   33.8801   46.5324 Cl  0  0  0  0  0  0  0  0  0  0  0  0
   60.4597   33.9801   49.2675 C   0  0  0  0  0  0  0  0  0  0  0  0
   60.0730   33.5448   50.5387 C   0  0  0  0  0  0  0  0  0  0  0  0
  1 14  1  0
 14 15  1  0
 15 16  1  0
 16 17  2  0
 16 18  1  0
 18 19  1  0
 19 20  1  0
  1  2  2  0
  2  3  1  0
  3  4  2  0
  4  5  1  0
  5  6  1  0
  6  7  2  0
  7 21  1  0
 21 22  1  0
 22 23  1  0
  6  8  1  0
  8  9  1  0
  9 10  2  0
 10 24  1  0
 24 25  1  0
 25 26  2  0
 26 27  1  0
 27 28  2  0
 28 29  1  0
 28 30  1  0
 30 31  2  0
  9 11  1  0
 11 12  2  0
 19 14  2  0
 12  2  1  0
 12  5  1  0
 23 21  1  0
 31 25  1  0
  4 13  1  0
M  CHG 1   4   1
M  CHG 1   8  -1
M  CHG 1  15  -1
M  CHG 1  18  -1
M  CHG 1  20  -1
M  END
> <UniqueID>
37

> <SMILES>
[O-]c1[n-]c(=S)[n-]c1C=c1c[nH+]n2c(=NC3CC3)[n-]/c(=N\Cc3ccc(Cl)cc3)nc12

> <Energy>
395.03216010231966

> <Genealogy>
[O-]c1[n-]c(=S)[n-]c1C=c1c[nH+]n2c(=NC3CC3)[n-]c(=NCc3ccc(Cl)cc3)nc12 (protonated)
[O-]c1[n-]c(=S)[n-]c1C=c1c[nH+]n2c(=NC3CC3)[n-]/c(=N\Cc3ccc(Cl)cc3)nc12 (cis-trans isomerization)
[O-]c1[n-]c(=S)[n-]c1C=c1c[nH+]n2c(=NC3CC3)[n-]/c(=N\Cc3ccc(Cl)cc3)nc12 (3D coordinates assigned)
[O-]c1[n-]c(=S)[n-]c1C=c1c[nH+]n2c(=NC3CC3)[n-]/c(=N\Cc3ccc(Cl)cc3)nc12 (nonaromatic ring conformer: 395.03216010231966 kcal/mol)

> <smiles>
Oc1[nH]c(=S)[nH]c1C=c1cnn2c(=NC3CC3)[nH]c(=NCc3ccc(Cl)cc3)nc12

> <score_type>
oracle

> <origin>
adg

> <m_score__min__energy>
-17.210000000000001

> <m_primary>
energy

> <minimizedAffinity>
-4.44971

> <minimizedRMSD>
0.88990

> <CNNscore>
0.2120473832

> <CNNaffinity>
5.8542041779

> <CNN_VS>
1.2413686514

> <CNNaffinity_variance>
0.2032145858

$$$$
38:0


 32 34  0  0  0  0  0  0  0  0999 V2000
   58.1373   32.7987   45.5415 C   0  0  0  0  0  0  0  0  0  0  0  0
   58.1600   34.0178   45.2224 O   0  0  0  0  0  0  0  0  0  0  0  0
   60.7070   32.2557   48.1040 N   0  0  0  0  0  0  0  0  0  0  0  0
   60.1122   33.0247   47.1708 C   0  0  0  0  0  0  0  0  0  0  0  0
   59.0820   32.3170   46.5692 C   0  0  0  0  0  0  0  0  0  0  0  0
   59.0408   31.0699   47.1732 C   0  0  0  0  0  0  0  0  0  0  0  0
   60.0628   31.0699   48.0963 C   0  0  0  0  0  0  0  0  0  0  0  0
   60.4082   29.9864   48.8955 O   0  0  0  0  0  0  0  0  0  0  0  0
   61.6334   33.3250   50.1368 C   0  0  0  0  0  0  0  0  0  0  0  0
   62.7566   33.6816   50.9114 C   0  0  0  0  0  0  0  0  0  0  0  0
   64.0465   33.3711   50.4731 C   0  0  0  0  0  0  0  0  0  0  0  0
   64.2324   32.7088   49.2609 C   0  0  0  0  0  0  0  0  0  0  0  0
   63.1285   32.3463   48.4845 C   0  0  0  0  0  0  0  0  0  0  0  0
   61.8274   32.6380   48.9204 C   0  0  0  0  0  0  0  0  0  0  0  0
   60.3280   33.6559   50.5294 O   0  0  0  0  0  0  0  0  0  0  0  0
   58.5759   32.1888   51.2760 C   0  0  0  0  0  0  0  0  0  0  0  0
   59.6761   33.1509   51.6925 C   0  0  0  0  0  0  0  0  0  0  0  0
   57.1633   31.9491   44.9221 N   0  0  0  0  0  0  0  0  0  0  0  0
   57.4350   30.9599   43.8867 C   0  0  0  0  0  0  0  0  0  0  0  0
   56.9167   29.6221   44.3233 C   0  0  0  0  0  0  0  0  0  0  0  0
   55.7841   29.5554   44.8701 O   0  0  0  0  0  0  0  0  0  0  0  0
   57.6443   28.4085   44.0868 N   0  0  0  0  0  0  0  0  0  0  0  0
   58.6119   27.8070   44.9626 C   0  0  0  0  0  0  0  0  0  0  0  0
   59.8530   28.4350   45.1744 C   0  0  0  0  0  0  0  0  0  0  0  0
   60.7801   27.8982   46.0657 C   0  0  0  0  0  0  0  0  0  0  0  0
   60.4714   26.7440   46.7805 C   0  0  0  0  0  0  0  0  0  0  0  0
   59.2335   26.1247   46.6076 C   0  0  0  0  0  0  0  0  0  0  0  0
   58.2860   26.6416   45.7031 C   0  0  0  0  0  0  0  0  0  0  0  0
   56.9847   25.9346   45.5476 C   0  0  0  0  0  0  0  0  0  0  0  0
   55.7636   26.5271   45.9883 N   0  0  0  0  0  0  0  0  0  0  0  0
   56.9460   24.8011   44.9995 O   0  0  0  0  0  0  0  0  0  0  0  0
   55.7733   27.4124   46.4189 H   0  0  0  0  0  0  0  0  0  0  0  0
 16 17  1  0
 17 15  1  0
 15  9  1  0
  9 10  2  0
 10 11  1  0
 11 12  2  0
 12 13  1  0
 13 14  2  0
 14  3  1  0
  3  4  1  0
  4  5  2  0
  5  1  1  0
  1  2  2  0
  1 18  1  0
 18 19  1  0
 19 20  1  0
 20 21  2  0
 20 22  1  0
 22 23  1  0
 23 24  2  0
 24 25  1  0
 25 26  2  0
 26 27  1  0
 27 28  2  0
 28 29  1  0
 29 30  1  0
 29 31  2  0
  5  6  1  0
  6  7  2  0
  7  8  1  0
 14  9  1  0
  7  3  1  0
 28 23  1  0
 30 32  1  0
M  CHG 1   8  -1
M  CHG 1  18  -1
M  CHG 1  22  -1
M  CHG 1  30  -1
M  END
> <UniqueID>
37

> <SMILES>
CCOc1ccccc1-n1cc(C(=O)[N-]CC(=O)[N-]c2ccccc2C([NH-])=O)cc1[O-]

> <Energy>
89.19572712153335

> <Genealogy>
CCOc1ccccc1-n1cc(C(=O)[N-]CC(=O)[N-]c2ccccc2C([NH-])=O)cc1[O-] (protonated)
CCOc1ccccc1-n1cc(C(=O)[N-]CC(=O)[N-]c2ccccc2C([NH-])=O)cc1[O-] (3D coordinates assigned)
CCOc1ccccc1-n1cc(C(=O)[N-]CC(=O)[N-]c2ccccc2C([NH-])=O)cc1[O-] (optimized conformer: 89.19572712153335 kcal/mol)

> <smiles>
CCOc1ccccc1-n1cc(C(=O)NCC(=O)Nc2ccccc2C(N)=O)cc1O

> <score_type>
oracle

> <origin>
adg

> <m_score__min__energy>
-15.91

> <m_primary>
energy

> <minimizedAffinity>
-7.98775

> <minimizedRMSD>
1.02739

> <CNNscore>
0.6831757426

> <CNNaffinity>
7.1131739616

> <CNN_VS>
4.8595480919

> <CNNaffinity_variance>
0.2462093383

$$$$
69:0


 26 27  0  0  0  0  0  0  0  0999 V2000
   57.4653   31.1761   44.5996 C   0  0  0  0  0  0  0  0  0  0  0  0
   58.6984   30.8606   44.8853 N   0  0  0  0  0  0  0  0  0  0  0  0
   55.4903   29.6195   44.8144 N   0  0  0  0  0  0  0  0  0  0  0  0
   56.5079   30.2117   44.0115 C   0  0  0  0  0  0  0  0  0  0  0  0
   56.5466   29.9588   42.7780 O   0  0  0  0  0  0  0  0  0  0  0  0
   54.8581   28.9793   44.4148 H   0  0  0  0  0  0  0  0  0  0  0  0
   59.1511   29.8562   45.8011 C   0  0  0  0  0  0  0  0  0  0  0  0
   59.0390   30.0731   47.0375 O   0  0  0  0  0  0  0  0  0  0  0  0
   59.9759   28.6892   45.3106 C   0  0  0  0  0  0  0  0  0  0  0  0
   59.1773   27.6651   44.4853 C   0  0  0  0  0  0  0  0  0  0  0  0
   58.4199   26.6994   45.3602 C   0  0  0  0  0  0  0  0  0  0  0  0
   59.0991   25.8745   46.2691 C   0  0  0  0  0  0  0  0  0  0  0  0
   58.3890   24.9924   47.0879 C   0  0  0  0  0  0  0  0  0  0  0  0
   56.9913   24.9253   47.0080 C   0  0  0  0  0  0  0  0  0  0  0  0
   56.2775   24.0483   47.8227 O   0  0  0  0  0  0  0  0  0  0  0  0
   56.3076   25.7483   46.1037 C   0  0  0  0  0  0  0  0  0  0  0  0
   54.9213   25.6918   46.0190 O   0  0  0  0  0  0  0  0  0  0  0  0
   57.0180   26.6328   45.2851 C   0  0  0  0  0  0  0  0  0  0  0  0
   56.7321   23.4967   48.4286 H   0  0  0  0  0  0  0  0  0  0  0  0
   56.9598   32.5213   45.0392 C   0  0  0  0  0  0  0  0  0  0  0  0
   58.0460   33.2744   45.7579 C   0  0  0  0  0  0  0  0  0  0  0  0
   58.9309   34.0975   45.0404 C   0  0  0  0  0  0  0  0  0  0  0  0
   59.9620   34.7697   45.7031 C   0  0  0  0  0  0  0  0  0  0  0  0
   60.1241   34.6163   47.0843 C   0  0  0  0  0  0  0  0  0  0  0  0
   59.2570   33.7897   47.8016 C   0  0  0  0  0  0  0  0  0  0  0  0
   58.2239   33.1174   47.1428 C   0  0  0  0  0  0  0  0  0  0  0  0
  3  4  1  0
  4  5  2  0
  4  1  1  0
  1 20  1  0
 20 21  1  0
 21 22  2  0
 22 23  1  0
 23 24  2  0
 24 25  1  0
 25 26  2  0
  1  2  2  0
  2  7  1  0
  7  8  2  0
  7  9  1  0
  9 10  1  0
 10 11  1  0
 11 12  2  0
 12 13  1  0
 13 14  2  0
 14 15  1  0
 14 16  1  0
 16 17  1  0
 16 18  2  0
 26 21  1  0
 18 11  1  0
  3  6  1  0
 15 19  1  0
M  CHG 1   3  -1
M  CHG 1  17  -1
M  END
> <UniqueID>
66

> <SMILES>
[NH-]C(=O)C(Cc1ccccc1)=NC(=O)CCc1ccc(O)c([O-])c1

> <Energy>
45.632764504000725

> <Genealogy>
[NH-]C(=O)C(Cc1ccccc1)=NC(=O)CCc1ccc(O)c([O-])c1 (protonated)
[NH-]C(=O)C(Cc1ccccc1)=NC(=O)CCc1ccc(O)c([O-])c1 (3D coordinates assigned)
[NH-]C(=O)C(Cc1ccccc1)=NC(=O)CCc1ccc(O)c([O-])c1 (optimized conformer: 45.632764504000725 kcal/mol)

> <smiles>
NC(=O)C(Cc1ccccc1)=NC(=O)CCc1ccc(O)c(O)c1

> <score_type>
oracle

> <origin>
adg

> <m_score__min__energy>
-15.33

> <m_primary>
energy

> <minimizedAffinity>
-7.72597

> <minimizedRMSD>
0.58893

> <CNNscore>
0.9112728834

> <CNNaffinity>
6.7991900444

> <CNN_VS>
6.1959176064

> <CNNaffinity_variance>
0.1288837343

$$$$
73:0


 32 34  0  0  0  0  0  0  0  0999 V2000
   58.2948   32.9082   45.3872 S   0  0  0  0  0  0  0  0  0  0  0  0
   58.0731   33.3330   43.9623 O   0  0  0  0  0  0  0  0  0  0  0  0
   57.2355   33.5391   46.2460 O   0  0  0  0  0  0  0  0  0  0  0  0
   58.1695   31.1568   45.5303 C   0  0  0  0  0  0  0  0  0  0  0  0
   57.3897   30.4401   44.6138 C   0  0  0  0  0  0  0  0  0  0  0  0
   57.2231   29.0595   44.7572 C   0  0  0  0  0  0  0  0  0  0  0  0
   57.8575   28.3763   45.8102 C   0  0  0  0  0  0  0  0  0  0  0  0
   58.6306   29.0980   46.7265 C   0  0  0  0  0  0  0  0  0  0  0  0
   58.7916   30.4778   46.5861 C   0  0  0  0  0  0  0  0  0  0  0  0
   57.6727   26.9702   46.0275 N   0  0  0  0  0  0  0  0  0  0  0  0
   58.6332   26.0543   46.5693 C   0  0  0  0  0  0  0  0  0  0  0  0
   59.0650   26.2052   47.7423 O   0  0  0  0  0  0  0  0  0  0  0  0
   59.0361   24.9002   45.8254 N   0  0  0  0  0  0  0  0  0  0  0  0
   58.1745   24.0208   45.0868 C   0  0  0  0  0  0  0  0  0  0  0  0
   58.4229   22.6418   45.1318 C   0  0  0  0  0  0  0  0  0  0  0  0
   57.6220   21.7535   44.4075 C   0  0  0  0  0  0  0  0  0  0  0  0
   56.5766   22.2384   43.6191 C   0  0  0  0  0  0  0  0  0  0  0  0
   56.3353   23.6124   43.5476 C   0  0  0  0  0  0  0  0  0  0  0  0
   57.1330   24.5032   44.2719 C   0  0  0  0  0  0  0  0  0  0  0  0
   59.8581   33.4580   45.9173 N   0  0  0  0  0  0  0  0  0  0  0  0
   59.7789   34.0985   47.2330 C   0  0  0  0  0  0  0  0  0  0  0  0
   62.8763   32.6163   49.8545 C   0  0  0  0  0  0  0  0  0  0  0  0
   62.9113   32.3190   48.4852 C   0  0  0  0  0  0  0  0  0  0  0  0
   61.9179   32.8082   47.6329 C   0  0  0  0  0  0  0  0  0  0  0  0
   60.8640   33.5843   48.1425 C   0  0  0  0  0  0  0  0  0  0  0  0
   60.8362   33.8874   49.5135 C   0  0  0  0  0  0  0  0  0  0  0  0
   61.8324   33.4000   50.3634 C   0  0  0  0  0  0  0  0  0  0  0  0
   63.7568   30.3748   51.3779 N   0  0  0  0  0  0  0  0  0  0  0  0
   64.1208   32.0067   50.9392 S   0  0  0  0  0  0  0  0  0  0  0  0
   65.4645   32.0567   50.2677 O   0  0  0  0  0  0  0  0  0  0  0  0
   64.1678   32.8573   52.1765 O   0  0  0  0  0  0  0  0  0  0  0  0
   64.4788   30.0227   52.0065 H   0  0  0  0  0  0  0  0  0  0  0  0
 28 29  1  0
 29 30  2  0
 29 31  2  0
 29 22  1  0
 22 23  2  0
 23 24  1  0
 24 25  2  0
 25 21  1  0
 21 20  1  0
 20  1  1  0
  1  2  2  0
  1  3  2  0
  1  4  1  0
  4  5  2  0
  5  6  1  0
  6  7  2  0
  7 10  1  0
 10 11  1  0
 11 12  2  0
 11 13  1  0
 13 14  1  0
 14 15  2  0
 15 16  1  0
 16 17  2  0
 17 18  1  0
 18 19  2  0
  7  8  1  0
  8  9  2  0
 25 26  1  0
 26 27  2  0
 27 22  1  0
  9  4  1  0
 19 14  1  0
 28 32  1  0
M  CHG 1  10  -1
M  CHG 1  13  -1
M  CHG 1  20  -1
M  CHG 1  28  -1
M  END
> <UniqueID>
70

> <SMILES>
[NH-]S(=O)(=O)c1ccc(C[N-]S(=O)(=O)c2ccc([N-]C(=O)[N-]c3ccccc3)cc2)cc1

> <Energy>
48.73407713805522

> <Genealogy>
[NH-]S(=O)(=O)c1ccc(C[N-]S(=O)(=O)c2ccc([N-]C(=O)[N-]c3ccccc3)cc2)cc1 (protonated)
[NH-]S(=O)(=O)c1ccc(C[N-]S(=O)(=O)c2ccc([N-]C(=O)[N-]c3ccccc3)cc2)cc1 (3D coordinates assigned)
[NH-]S(=O)(=O)c1ccc(C[N-]S(=O)(=O)c2ccc([N-]C(=O)[N-]c3ccccc3)cc2)cc1 (optimized conformer: 48.73407713805522 kcal/mol)

> <smiles>
NS(=O)(=O)c1ccc(CNS(=O)(=O)c2ccc(NC(=O)Nc3ccccc3)cc2)cc1

> <score_type>
oracle

> <origin>
adg

> <m_score__min__energy>
-14.119999999999999

> <m_primary>
energy

> <minimizedAffinity>
-7.95608

> <minimizedRMSD>
1.37251

> <CNNscore>
0.2984552383

> <CNNaffinity>
6.4422926903

> <CNN_VS>
1.9227360487

> <CNNaffinity_variance>
0.0504674055

$$$$
75:0


 34 37  0  0  0  0  0  0  0  0999 V2000
   58.2174   31.6047   45.4215 N   0  0  0  0  0  0  0  0  0  0  0  0
   58.6684   32.8286   45.7546 C   0  0  0  0  0  0  0  0  0  0  0  0
   59.2149   32.7574   47.0168 C   0  0  0  0  0  0  0  0  0  0  0  0
   59.0493   31.4326   47.4018 C   0  0  0  0  0  0  0  0  0  0  0  0
   58.4342   30.7535   46.4119 N   0  0  0  0  0  0  0  0  0  0  0  0
   59.4401   30.8088   48.6742 C   0  0  0  0  0  0  0  0  0  0  0  0
   60.4998   29.8916   48.7245 C   0  0  0  0  0  0  0  0  0  0  0  0
   60.8790   29.3219   49.9436 C   0  0  0  0  0  0  0  0  0  0  0  0
   60.2143   29.6796   51.1201 C   0  0  0  0  0  0  0  0  0  0  0  0
   59.1740   30.6132   51.0804 C   0  0  0  0  0  0  0  0  0  0  0  0
   58.7942   31.1855   49.8625 C   0  0  0  0  0  0  0  0  0  0  0  0
   60.0076   34.0874   47.8693 S   0  0  0  0  0  0  0  0  0  0  0  0
   59.8738   35.3280   47.0330 O   0  0  0  0  0  0  0  0  0  0  0  0
   59.3258   34.3405   49.1836 O   0  0  0  0  0  0  0  0  0  0  0  0
   61.7025   33.7812   48.1604 N   0  0  0  0  0  0  0  0  0  0  0  0
   62.2538   32.8067   47.2197 C   0  0  0  0  0  0  0  0  0  0  0  0
   63.4208   32.1310   47.9256 C   0  0  0  0  0  0  0  0  0  0  0  0
   63.2519   32.4661   49.4011 C   0  0  0  0  0  0  0  0  0  0  0  0
   61.9372   33.2200   49.4872 C   0  0  0  0  0  0  0  0  0  0  0  0
   57.4308   31.2827   44.2359 C   0  0  0  0  0  0  0  0  0  0  0  0
   56.9527   29.8727   44.3443 C   0  0  0  0  0  0  0  0  0  0  0  0
   55.7299   29.6378   44.5441 O   0  0  0  0  0  0  0  0  0  0  0  0
   57.8594   28.7974   44.0937 N   0  0  0  0  0  0  0  0  0  0  0  0
   57.2393   25.6272   46.0044 C   0  0  0  0  0  0  0  0  0  0  0  0
   58.4868   25.4518   46.6180 C   0  0  0  0  0  0  0  0  0  0  0  0
   59.5103   26.3799   46.4028 C   0  0  0  0  0  0  0  0  0  0  0  0
   59.2924   27.4864   45.5764 C   0  0  0  0  0  0  0  0  0  0  0  0
   58.0415   27.6871   44.9810 C   0  0  0  0  0  0  0  0  0  0  0  0
   57.0163   26.7481   45.1945 C   0  0  0  0  0  0  0  0  0  0  0  0
   54.4427   25.1565   45.7720 N   0  0  0  0  0  0  0  0  0  0  0  0
   55.9530   24.4460   46.2223 S   0  0  0  0  0  0  0  0  0  0  0  0
   56.2003   23.2414   45.3560 O   0  0  0  0  0  0  0  0  0  0  0  0
   55.9046   24.0186   47.6627 O   0  0  0  0  0  0  0  0  0  0  0  0
   53.6951   24.4741   45.8973 H   0  0  0  0  0  0  0  0  0  0  0  0
 30 31  1  0
 31 32  2  0
 31 33  2  0
 31 24  1  0
 24 25  2  0
 25 26  1  0
 26 27  2  0
 27 28  1  0
 28 23  1  0
 23 21  1  0
 21 22  2  0
 21 20  1  0
 20  1  1  0
  1  2  1  0
  2  3  2  0
  3 12  1  0
 12 13  2  0
 12 14  2  0
 12 15  1  0
 15 16  1  0
 16 17  1  0
 17 18  1  0
 18 19  1  0
  3  4  1  0
  4  6  1  0
  6  7  2  0
  7  8  1  0
  8  9  2  0
  9 10  1  0
 10 11  2  0
  4  5  2  0
 28 29  2  0
 29 24  1  0
  5  1  1  0
 19 15  1  0
 11  6  1  0
 30 34  1  0
M  CHG 1  23  -1
M  CHG 1  30  -1
M  END
> <UniqueID>
72

> <SMILES>
[NH-]S(=O)(=O)c1cccc([N-]C(=O)Cn2cc(S(=O)(=O)N3CCCC3)c(-c3ccccc3)n2)c1

> <Energy>
95.62359827352948

> <Genealogy>
[NH-]S(=O)(=O)c1cccc([N-]C(=O)Cn2cc(S(=O)(=O)N3CCCC3)c(-c3ccccc3)n2)c1 (protonated)
[NH-]S(=O)(=O)c1cccc([N-]C(=O)Cn2cc(S(=O)(=O)N3CCCC3)c(-c3ccccc3)n2)c1 (3D coordinates assigned)
[NH-]S(=O)(=O)c1cccc([N-]C(=O)Cn2cc(S(=O)(=O)N3CCCC3)c(-c3ccccc3)n2)c1 (nonaromatic ring conformer: 95.62359827352948 kcal/mol)

> <smiles>
NS(=O)(=O)c1cccc(NC(=O)Cn2cc(S(=O)(=O)N3CCCC3)c(-c3ccccc3)n2)c1

> <score_type>
oracle

> <origin>
adg

> <m_score__min__energy>
-14.220000000000001

> <m_primary>
energy

> <minimizedAffinity>
-8.26383

> <minimizedRMSD>
1.16025

> <CNNscore>
0.9048415422

> <CNNaffinity>
7.6492857933

> <CNN_VS>
6.9213914871

> <CNNaffinity_variance>
0.0374531634

$$$$
10:0


 26 28  0  0  0  0  0  0  0  0999 V2000
   59.0874   30.7955   45.4677 C   0  0  0  0  0  0  0  0  0  0  0  0
   58.3926   31.2194   44.5051 O   0  0  0  0  0  0  0  0  0  0  0  0
   59.3664   31.6672   46.5768 N   0  0  0  0  0  0  0  0  0  0  0  0
   60.7551   31.9127   46.9928 C   0  0  0  0  0  0  0  0  0  0  0  0
   60.8471   31.9882   48.5244 C   0  0  0  0  0  0  0  0  0  0  0  0
   59.7178   32.7361   49.0997 N   0  0  0  0  0  0  0  0  0  0  0  0
   58.7845   33.4390   48.2112 C   0  0  0  0  0  0  0  0  0  0  0  0
   58.2742   32.4780   47.1342 C   0  0  0  0  0  0  0  0  0  0  0  0
   59.5007   32.7091   50.5240 C   0  0  0  0  0  0  0  0  0  0  0  0
   60.4575   33.2520   51.4007 C   0  0  0  0  0  0  0  0  0  0  0  0
   60.2389   33.2382   52.7824 C   0  0  0  0  0  0  0  0  0  0  0  0
   59.0641   32.6880   53.3006 C   0  0  0  0  0  0  0  0  0  0  0  0
   58.8491   32.6743   54.6730 O   0  0  0  0  0  0  0  0  0  0  0  0
   58.1045   32.1509   52.4362 C   0  0  0  0  0  0  0  0  0  0  0  0
   58.3188   32.1645   51.0548 C   0  0  0  0  0  0  0  0  0  0  0  0
   59.5900   29.4096   45.4188 C   0  0  0  0  0  0  0  0  0  0  0  0
   59.3557   28.5281   46.3987 C   0  0  0  0  0  0  0  0  0  0  0  0
   58.8199   27.1693   46.1467 C   0  0  0  0  0  0  0  0  0  0  0  0
   57.4916   26.9408   45.7370 C   0  0  0  0  0  0  0  0  0  0  0  0
   56.5987   27.9945   45.5748 O   0  0  0  0  0  0  0  0  0  0  0  0
   57.0548   25.6720   45.5264 N   0  0  0  0  0  0  0  0  0  0  0  0
   57.8724   24.6066   45.7183 C   0  0  0  0  0  0  0  0  0  0  0  0
   57.4445   23.4422   45.5122 O   0  0  0  0  0  0  0  0  0  0  0  0
   59.1487   24.7972   46.1382 N   0  0  0  0  0  0  0  0  0  0  0  0
   59.6357   26.0438   46.3626 C   0  0  0  0  0  0  0  0  0  0  0  0
   60.8272   26.1781   46.7529 O   0  0  0  0  0  0  0  0  0  0  0  0
 16  1  1  0
  1  2  2  0
  1  3  1  0
  3  4  1  0
  4  5  1  0
  5  6  1  0
  6  9  1  0
  9 10  2  0
 10 11  1  0
 11 12  2  0
 12 13  1  0
 12 14  1  0
 14 15  2  0
  6  7  1  0
  7  8  1  0
 16 17  2  0
 17 18  1  0
 18 19  2  0
 19 20  1  0
 19 21  1  0
 21 22  1  0
 22 23  2  0
 22 24  1  0
 24 25  1  0
 25 26  2  0
  8  3  1  0
 25 18  1  0
 15  9  1  0
M  CHG 1  13  -1
M  CHG 1  20  -1
M  CHG 1  21  -1
M  CHG 1  24  -1
M  END
> <UniqueID>
10

> <SMILES>
O=C(/C=C/c1c([O-])[n-]c(=O)[n-]c1=O)N1CCN(c2ccc([O-])cc2)CC1

> <Energy>
56.39558523092596

> <Genealogy>
O=C(C=Cc1c([O-])[n-]c(=O)[n-]c1=O)N1CCN(c2ccc([O-])cc2)CC1 (protonated)
O=C(/C=C/c1c([O-])[n-]c(=O)[n-]c1=O)N1CCN(c2ccc([O-])cc2)CC1 (cis-trans isomerization)
O=C(/C=C/c1c([O-])[n-]c(=O)[n-]c1=O)N1CCN(c2ccc([O-])cc2)CC1 (3D coordinates assigned)
O=C(/C=C/c1c([O-])[n-]c(=O)[n-]c1=O)N1CCN(c2ccc([O-])cc2)CC1 (nonaromatic ring conformer: 56.39558523092596 kcal/mol)

> <smiles>
O=C(C=Cc1c(O)[nH]c(=O)[nH]c1=O)N1CCN(c2ccc(O)cc2)CC1

> <score_type>
oracle

> <origin>
adg

> <m_score__min__energy>
-15.279999999999999

> <m_primary>
energy

> <minimizedAffinity>
-5.94662

> <minimizedRMSD>
1.52642

> <CNNscore>
0.2254795730

> <CNNaffinity>
6.0851192474

> <CNN_VS>
1.3720700741

> <CNNaffinity_variance>
0.4714991748

$$$$
73:0


 23 24  0  0  0  0  0  0  0  0999 V2000
   57.0877   30.3696   51.9747 N   0  0  0  0  0  0  0  0  0  0  0  0
   59.2182   31.3958   51.3097 C   0  0  0  0  0  0  0  0  0  0  0  0
   60.0735   32.5080   51.2579 C   0  0  0  0  0  0  0  0  0  0  0  0
   59.6898   33.7214   51.8338 C   0  0  0  0  0  0  0  0  0  0  0  0
   58.4489   33.8366   52.4597 C   0  0  0  0  0  0  0  0  0  0  0  0
   57.5868   32.7399   52.5114 C   0  0  0  0  0  0  0  0  0  0  0  0
   57.9603   31.5094   51.9371 C   0  0  0  0  0  0  0  0  0  0  0  0
   61.2634   30.0295   49.8117 N   0  0  0  0  0  0  0  0  0  0  0  0
   59.7247   29.8666   50.5830 S   0  0  0  0  0  0  0  0  0  0  0  0
   59.8297   28.8136   51.6506 O   0  0  0  0  0  0  0  0  0  0  0  0
   58.7090   29.4438   49.5589 O   0  0  0  0  0  0  0  0  0  0  0  0
   61.5339   29.1361   49.4006 H   0  0  0  0  0  0  0  0  0  0  0  0
   56.3519   29.7122   53.4001 S   0  0  0  0  0  0  0  0  0  0  0  0
   56.7005   28.2536   53.5056 O   0  0  0  0  0  0  0  0  0  0  0  0
   56.8846   30.4329   54.6050 O   0  0  0  0  0  0  0  0  0  0  0  0
   54.6060   29.9306   53.3325 C   0  0  0  0  0  0  0  0  0  0  0  0
   53.8447   29.9242   54.5088 C   0  0  0  0  0  0  0  0  0  0  0  0
   52.4583   30.0893   54.4491 C   0  0  0  0  0  0  0  0  0  0  0  0
   51.8244   30.2636   53.2147 C   0  0  0  0  0  0  0  0  0  0  0  0
   50.4446   30.4248   53.1615 O   0  0  0  0  0  0  0  0  0  0  0  0
   52.5813   30.2745   52.0368 C   0  0  0  0  0  0  0  0  0  0  0  0
   51.9586   30.4489   50.8065 O   0  0  0  0  0  0  0  0  0  0  0  0
   53.9700   30.1115   52.0963 C   0  0  0  0  0  0  0  0  0  0  0  0
  8  9  1  0
  9 10  2  0
  9 11  2  0
  9  2  1  0
  2  3  2  0
  3  4  1  0
  4  5  2  0
  5  6  1  0
  6  7  2  0
  7  1  1  0
  1 13  1  0
 13 14  2  0
 13 15  2  0
 13 16  1  0
 16 17  2  0
 17 18  1  0
 18 19  2  0
 19 20  1  0
 19 21  1  0
 21 22  1  0
 21 23  2  0
  7  2  1  0
 23 16  1  0
  8 12  1  0
M  CHG 1   1  -1
M  CHG 1   8  -1
M  CHG 1  20  -1
M  CHG 1  22  -1
M  END
> <UniqueID>
71

> <SMILES>
[NH-]S(=O)(=O)c1ccccc1[N-]S(=O)(=O)c1ccc([O-])c([O-])c1

> <Energy>
34.89720583445583

> <Genealogy>
[NH-]S(=O)(=O)c1ccccc1[N-]S(=O)(=O)c1ccc([O-])c([O-])c1 (protonated)
[NH-]S(=O)(=O)c1ccccc1[N-]S(=O)(=O)c1ccc([O-])c([O-])c1 (3D coordinates assigned)
[NH-]S(=O)(=O)c1ccccc1[N-]S(=O)(=O)c1ccc([O-])c([O-])c1 (optimized conformer: 34.89720583445583 kcal/mol)

> <smiles>
NS(=O)(=O)c1ccccc1NS(=O)(=O)c1ccc(O)c(O)c1

> <score_type>
oracle

> <origin>
adg

> <m_score__min__energy>
-16.640000000000001

> <m_primary>
energy

> <minimizedAffinity>
-5.18958

> <minimizedRMSD>
1.78632

> <CNNscore>
0.6459286213

> <CNNaffinity>
4.6663494110

> <CNN_VS>
3.0141286850

> <CNNaffinity_variance>
0.1405631751

$$$$
81:0


 25 26  0  0  0  0  0  0  0  0999 V2000
   55.4911   23.4809   45.5011 C   0  0  0  0  0  0  0  0  0  0  0  0
   56.4142   22.4645   45.1874 C   0  0  0  0  0  0  0  0  0  0  0  0
   56.0023   21.1871   44.9797 F   0  0  0  0  0  0  0  0  0  0  0  0
   57.7794   22.7485   45.1237 C   0  0  0  0  0  0  0  0  0  0  0  0
   58.2436   24.0354   45.3873 C   0  0  0  0  0  0  0  0  0  0  0  0
   57.3439   25.0551   45.7372 C   0  0  0  0  0  0  0  0  0  0  0  0
   55.9684   24.7812   45.7745 C   0  0  0  0  0  0  0  0  0  0  0  0
   55.0793   25.8073   46.0824 O   0  0  0  0  0  0  0  0  0  0  0  0
   51.6680   23.7160   44.8869 C   0  0  0  0  0  0  0  0  0  0  0  0
   53.0854   24.0492   44.9387 N   0  0  0  0  0  0  0  0  0  0  0  0
   54.0413   23.1836   45.5670 C   0  0  0  0  0  0  0  0  0  0  0  0
   53.6432   22.1645   46.1962 O   0  0  0  0  0  0  0  0  0  0  0  0
   53.3952   24.8905   44.5318 H   0  0  0  0  0  0  0  0  0  0  0  0
   57.8009   26.3854   46.0266 N   0  0  0  0  0  0  0  0  0  0  0  0
   58.5636   27.2182   45.1438 C   0  0  0  0  0  0  0  0  0  0  0  0
   58.2881   27.2199   43.9159 O   0  0  0  0  0  0  0  0  0  0  0  0
   59.6303   28.0519   45.6165 N   0  0  0  0  0  0  0  0  0  0  0  0
   59.5247   29.4446   45.9457 C   0  0  0  0  0  0  0  0  0  0  0  0
   58.4826   30.2439   45.4425 C   0  0  0  0  0  0  0  0  0  0  0  0
   58.3986   31.5942   45.7934 C   0  0  0  0  0  0  0  0  0  0  0  0
   59.3657   32.1625   46.6332 C   0  0  0  0  0  0  0  0  0  0  0  0
   60.4216   31.3776   47.1102 C   0  0  0  0  0  0  0  0  0  0  0  0
   60.5027   30.0255   46.7604 C   0  0  0  0  0  0  0  0  0  0  0  0
   59.2769   33.5535   46.9963 C   0  0  0  0  0  0  0  0  0  0  0  0
   59.2069   34.6704   47.2889 N   0  0  0  0  0  0  0  0  0  0  0  0
  9 10  1  0
 10 11  1  0
 11 12  2  0
 11  1  1  0
  1  2  2  0
  2  3  1  0
  2  4  1  0
  4  5  2  0
  5  6  1  0
  6 14  1  0
 14 15  1  0
 15 16  2  0
 15 17  1  0
 17 18  1  0
 18 19  2  0
 19 20  1  0
 20 21  2  0
 21 24  1  0
 24 25  3  0
 21 22  1  0
 22 23  2  0
  6  7  2  0
  7  8  1  0
  7  1  1  0
 23 18  1  0
 10 13  1  0
M  CHG 1   8  -1
M  CHG 1  14  -1
M  CHG 1  17  -1
M  END
> <UniqueID>
79

> <SMILES>
CNC(=O)c1c(F)ccc([N-]C(=O)[N-]c2ccc(C#N)cc2)c1[O-]

> <Energy>
43.43027203762561

> <Genealogy>
CNC(=O)c1c(F)ccc([N-]C(=O)[N-]c2ccc(C#N)cc2)c1[O-] (protonated)
CNC(=O)c1c(F)ccc([N-]C(=O)[N-]c2ccc(C#N)cc2)c1[O-] (3D coordinates assigned)
CNC(=O)c1c(F)ccc([N-]C(=O)[N-]c2ccc(C#N)cc2)c1[O-] (optimized conformer: 43.43027203762561 kcal/mol)

> <smiles>
CNC(=O)c1c(F)ccc(NC(=O)Nc2ccc(C#N)cc2)c1O

> <score_type>
oracle

> <origin>
adg

> <m_score__min__energy>
-14.710000000000001

> <m_primary>
energy

> <minimizedAffinity>
-7.62753

> <minimizedRMSD>
2.75535

> <CNNscore>
0.1245632619

> <CNNaffinity>
5.3879504204

> <CNN_VS>
0.6711406708

> <CNNaffinity_variance>
0.0039305137

$$$$
19:0


 25 27  0  0  0  0  0  0  0  0999 V2000
   58.5107   29.3747   45.7293 C   0  0  0  0  0  0  0  0  0  0  0  0
   57.3108   29.8576   45.2025 C   0  0  0  0  0  0  0  0  0  0  0  0
   56.3496   28.9827   44.7080 O   0  0  0  0  0  0  0  0  0  0  0  0
   57.0802   31.1904   45.1579 N   0  0  0  0  0  0  0  0  0  0  0  0
   57.9863   32.0849   45.6238 C   0  0  0  0  0  0  0  0  0  0  0  0
   57.7181   33.3147   45.5464 O   0  0  0  0  0  0  0  0  0  0  0  0
   59.1696   31.6543   46.1712 N   0  0  0  0  0  0  0  0  0  0  0  0
   59.4290   30.3080   46.2471 C   0  0  0  0  0  0  0  0  0  0  0  0
   60.4879   29.8960   46.7993 O   0  0  0  0  0  0  0  0  0  0  0  0
   58.0357   27.0393   46.5018 C   0  0  0  0  0  0  0  0  0  0  0  0
   58.7543   27.9135   45.7806 C   0  0  0  0  0  0  0  0  0  0  0  0
   57.6837   25.6656   46.0702 C   0  0  0  0  0  0  0  0  0  0  0  0
   58.6800   24.7281   45.7408 C   0  0  0  0  0  0  0  0  0  0  0  0
   58.3294   23.4423   45.3200 C   0  0  0  0  0  0  0  0  0  0  0  0
   56.9861   23.0853   45.2055 C   0  0  0  0  0  0  0  0  0  0  0  0
   55.9870   24.0155   45.5024 C   0  0  0  0  0  0  0  0  0  0  0  0
   56.3293   25.3054   45.9278 C   0  0  0  0  0  0  0  0  0  0  0  0
   55.3196   26.2158   46.2175 O   0  0  0  0  0  0  0  0  0  0  0  0
   60.1426   32.6265   46.7128 C   0  0  0  0  0  0  0  0  0  0  0  0
   60.0384   32.6958   48.2154 C   0  0  0  0  0  0  0  0  0  0  0  0
   58.9178   32.1676   48.8774 C   0  0  0  0  0  0  0  0  0  0  0  0
   58.8110   32.2590   50.2689 C   0  0  0  0  0  0  0  0  0  0  0  0
   59.8220   32.8810   51.0092 C   0  0  0  0  0  0  0  0  0  0  0  0
   60.9386   33.4112   50.3578 C   0  0  0  0  0  0  0  0  0  0  0  0
   61.0478   33.3218   48.9672 C   0  0  0  0  0  0  0  0  0  0  0  0
 10 11  2  0
 11  1  1  0
  1  2  2  0
  2  3  1  0
  2  4  1  0
  4  5  1  0
  5  6  2  0
  5  7  1  0
  7 19  1  0
 19 20  1  0
 20 21  2  0
 21 22  1  0
 22 23  2  0
 23 24  1  0
 24 25  2  0
  7  8  1  0
  8  9  2  0
 10 12  1  0
 12 13  2  0
 13 14  1  0
 14 15  2  0
 15 16  1  0
 16 17  2  0
 17 18  1  0
  8  1  1  0
 17 12  1  0
 25 20  1  0
M  CHG 1   3  -1
M  CHG 1   4  -1
M  CHG 1  18  -1
M  END
> <UniqueID>
20

> <SMILES>
O=c1[n-]c([O-])c(/C=C\c2ccccc2[O-])c(=O)n1Cc1ccccc1

> <Energy>
57.05531664375971

> <Genealogy>
O=c1[n-]c([O-])c(C=Cc2ccccc2[O-])c(=O)n1Cc1ccccc1 (protonated)
O=c1[n-]c([O-])c(/C=C\c2ccccc2[O-])c(=O)n1Cc1ccccc1 (cis-trans isomerization)
O=c1[n-]c([O-])c(/C=C\c2ccccc2[O-])c(=O)n1Cc1ccccc1 (3D coordinates assigned)
O=c1[n-]c([O-])c(/C=C\c2ccccc2[O-])c(=O)n1Cc1ccccc1 (optimized conformer: 57.05531664375971 kcal/mol)

> <smiles>
O=c1[nH]c(O)c(C=Cc2ccccc2O)c(=O)n1Cc1ccccc1

> <score_type>
oracle

> <origin>
adg

> <m_score__min__energy>
-16.649999999999999

> <m_primary>
energy

> <minimizedAffinity>
-7.81157

> <minimizedRMSD>
1.27924

> <CNNscore>
0.6276089549

> <CNNaffinity>
6.6327857971

> <CNN_VS>
4.1627955437

> <CNNaffinity_variance>
0.5346162319

$$$$
85:0


 27 29  0  0  0  0  0  0  0  0999 V2000
   58.2576   31.8075   45.5183 C   0  0  0  0  0  0  0  0  0  0  0  0
   58.0911   32.8070   44.5530 C   0  0  0  0  0  0  0  0  0  0  0  0
   58.5850   34.0947   44.7781 C   0  0  0  0  0  0  0  0  0  0  0  0
   59.2539   34.3934   45.9713 C   0  0  0  0  0  0  0  0  0  0  0  0
   59.7379   35.6829   46.1777 O   0  0  0  0  0  0  0  0  0  0  0  0
   59.4198   33.3979   46.9524 C   0  0  0  0  0  0  0  0  0  0  0  0
   58.9059   32.1097   46.7263 C   0  0  0  0  0  0  0  0  0  0  0  0
   60.1142   33.7008   48.2179 C   0  0  0  0  0  0  0  0  0  0  0  0
   59.4603   34.1945   49.1705 O   0  0  0  0  0  0  0  0  0  0  0  0
   61.5140   33.4188   48.3793 N   0  0  0  0  0  0  0  0  0  0  0  0
   62.3203   33.9780   49.4466 C   0  0  0  0  0  0  0  0  0  0  0  0
   63.6090   33.1610   49.4574 C   0  0  0  0  0  0  0  0  0  0  0  0
   63.6690   32.4635   48.1045 C   0  0  0  0  0  0  0  0  0  0  0  0
   62.2298   32.4167   47.6012 C   0  0  0  0  0  0  0  0  0  0  0  0
   57.7163   30.1678   45.1703 S   0  0  0  0  0  0  0  0  0  0  0  0
   58.3678   29.6825   43.9072 O   0  0  0  0  0  0  0  0  0  0  0  0
   56.2274   30.1561   44.9822 O   0  0  0  0  0  0  0  0  0  0  0  0
   58.1429   29.0870   46.4566 N   0  0  0  0  0  0  0  0  0  0  0  0
   57.2441   25.4485   46.0218 C   0  0  0  0  0  0  0  0  0  0  0  0
   58.5201   24.8668   46.1357 C   0  0  0  0  0  0  0  0  0  0  0  0
   59.6482   25.6695   46.3196 C   0  0  0  0  0  0  0  0  0  0  0  0
   59.5038   27.0641   46.4049 C   0  0  0  0  0  0  0  0  0  0  0  0
   58.2429   27.6596   46.3236 C   0  0  0  0  0  0  0  0  0  0  0  0
   57.1137   26.8457   46.1337 C   0  0  0  0  0  0  0  0  0  0  0  0
   56.1893   23.4164   45.3350 O   0  0  0  0  0  0  0  0  0  0  0  0
   56.0563   24.6011   45.7556 C   0  0  0  0  0  0  0  0  0  0  0  0
   54.7788   25.0874   45.9911 O   0  0  0  0  0  0  0  0  0  0  0  0
 25 26  2  0
 26 27  1  0
 26 19  1  0
 19 20  2  0
 20 21  1  0
 21 22  2  0
 22 23  1  0
 23 18  1  0
 18 15  1  0
 15 16  2  0
 15 17  2  0
 15  1  1  0
  1  2  2  0
  2  3  1  0
  3  4  2  0
  4  5  1  0
  4  6  1  0
  6  8  1  0
  8  9  2  0
  8 10  1  0
 10 11  1  0
 11 12  1  0
 12 13  1  0
 13 14  1  0
  6  7  2  0
 23 24  2  0
 24 19  1  0
  7  1  1  0
 14 10  1  0
M  CHG 1   5  -1
M  CHG 1  18  -1
M  CHG 1  27  -1
M  END
> <UniqueID>
82

> <SMILES>
O=C([O-])c1cccc([N-]S(=O)(=O)c2ccc([O-])c(C(=O)N3CCCC3)c2)c1

> <Energy>
53.042107236204146

> <Genealogy>
O=C([O-])c1cccc([N-]S(=O)(=O)c2ccc([O-])c(C(=O)N3CCCC3)c2)c1 (protonated)
O=C([O-])c1cccc([N-]S(=O)(=O)c2ccc([O-])c(C(=O)N3CCCC3)c2)c1 (3D coordinates assigned)
O=C([O-])c1cccc([N-]S(=O)(=O)c2ccc([O-])c(C(=O)N3CCCC3)c2)c1 (nonaromatic ring conformer: 53.042107236204146 kcal/mol)

> <smiles>
O=C(O)c1cccc(NS(=O)(=O)c2ccc(O)c(C(=O)N3CCCC3)c2)c1

> <score_type>
oracle

> <origin>
adg

> <m_score__min__energy>
-14.49

> <m_primary>
energy

> <minimizedAffinity>
-8.61263

> <minimizedRMSD>
0.64726

> <CNNscore>
0.7969505787

> <CNNaffinity>
6.8250908852

> <CNN_VS>
5.4392600060

> <CNNaffinity_variance>
0.0769678131

$$$$
6:0


 31 33  0  0  0  0  0  0  0  0999 V2000
   60.3741   32.3667   49.0063 C   0  0  0  0  0  0  0  0  0  0  0  0
   59.9870   33.4075   48.1492 C   0  0  0  0  0  0  0  0  0  0  0  0
   59.4224   33.1215   46.9032 C   0  0  0  0  0  0  0  0  0  0  0  0
   59.2491   31.7904   46.4931 C   0  0  0  0  0  0  0  0  0  0  0  0
   59.6392   30.7485   47.3498 C   0  0  0  0  0  0  0  0  0  0  0  0
   60.2099   31.0353   48.5937 C   0  0  0  0  0  0  0  0  0  0  0  0
   62.3495   33.0148   50.4597 C   0  0  0  0  0  0  0  0  0  0  0  0
   62.8461   33.3434   51.7322 C   0  0  0  0  0  0  0  0  0  0  0  0
   62.0128   33.3118   52.8519 C   0  0  0  0  0  0  0  0  0  0  0  0
   60.6730   32.9496   52.7160 C   0  0  0  0  0  0  0  0  0  0  0  0
   60.1588   32.6300   51.4583 C   0  0  0  0  0  0  0  0  0  0  0  0
   60.9801   32.6727   50.3189 C   0  0  0  0  0  0  0  0  0  0  0  0
   63.2617   31.5917   48.1378 N   0  0  0  0  0  0  0  0  0  0  0  0
   63.4723   33.0214   49.0884 S   0  0  0  0  0  0  0  0  0  0  0  0
   63.2166   34.2133   48.2072 O   0  0  0  0  0  0  0  0  0  0  0  0
   64.8856   33.0664   49.5977 O   0  0  0  0  0  0  0  0  0  0  0  0
   63.9125   31.6066   47.3524 H   0  0  0  0  0  0  0  0  0  0  0  0
   58.6098   31.4898   45.1688 C   0  0  0  0  0  0  0  0  0  0  0  0
   57.3002   30.8916   45.3915 N   0  0  0  0  0  0  0  0  0  0  0  0
   56.9423   29.5502   45.0384 C   0  0  0  0  0  0  0  0  0  0  0  0
   55.8990   29.3594   44.3598 O   0  0  0  0  0  0  0  0  0  0  0  0
   57.7474   28.3622   45.4905 C   0  0  0  0  0  0  0  0  0  0  0  0
   57.5733   27.1631   44.5470 C   0  0  0  0  0  0  0  0  0  0  0  0
   57.4155   25.9069   45.2990 N   0  0  0  0  0  0  0  0  0  0  0  0
   58.4221   24.9811   45.2748 C   0  0  0  0  0  0  0  0  0  0  0  0
   58.3103   23.7931   45.9928 C   0  0  0  0  0  0  0  0  0  0  0  0
   57.1520   23.5674   46.7303 C   0  0  0  0  0  0  0  0  0  0  0  0
   57.0135   22.5028   47.3861 O   0  0  0  0  0  0  0  0  0  0  0  0
   56.1703   24.5024   46.7425 N   0  0  0  0  0  0  0  0  0  0  0  0
   56.2885   25.6615   46.0428 C   0  0  0  0  0  0  0  0  0  0  0  0
   55.3504   26.5020   46.0880 O   0  0  0  0  0  0  0  0  0  0  0  0
 13 14  1  0
 14 15  2  0
 14 16  2  0
 14  7  1  0
  7  8  2  0
  8  9  1  0
  9 10  2  0
 10 11  1  0
 11 12  2  0
 12  1  1  0
  1  2  2  0
  2  3  1  0
  3  4  2  0
  4 18  1  0
 18 19  1  0
 19 20  1  0
 20 21  2  0
 20 22  1  0
 22 23  1  0
 23 24  1  0
 24 25  1  0
 25 26  2  0
 26 27  1  0
 27 28  2  0
 27 29  1  0
 29 30  1  0
 30 31  2  0
  4  5  1  0
  5  6  2  0
 12  7  1  0
  6  1  1  0
 30 24  1  0
 13 17  1  0
M  CHG 1  13  -1
M  CHG 1  19  -1
M  CHG 1  29  -1
M  END
> <UniqueID>
4

> <SMILES>
[NH-]S(=O)(=O)c1ccccc1-c1ccc(C[N-]C(=O)CCn2ccc(=O)[n-]c2=O)cc1

> <Energy>
54.96621838812076

> <Genealogy>
[NH-]S(=O)(=O)c1ccccc1-c1ccc(C[N-]C(=O)CCn2ccc(=O)[n-]c2=O)cc1 (protonated)
[NH-]S(=O)(=O)c1ccccc1-c1ccc(C[N-]C(=O)CCn2ccc(=O)[n-]c2=O)cc1 (3D coordinates assigned)
[NH-]S(=O)(=O)c1ccccc1-c1ccc(C[N-]C(=O)CCn2ccc(=O)[n-]c2=O)cc1 (optimized conformer: 54.96621838812076 kcal/mol)

> <smiles>
NS(=O)(=O)c1ccccc1-c1ccc(CNC(=O)CCn2ccc(=O)[nH]c2=O)cc1

> <score_type>
oracle

> <origin>
adg

> <m_score__min__energy>
-14.18

> <m_primary>
energy

> <minimizedAffinity>
-5.96700

> <minimizedRMSD>
1.27766

> <CNNscore>
0.3870521188

> <CNNaffinity>
6.6693420410

> <CNN_VS>
2.5813829899

> <CNNaffinity_variance>
0.3347550929

$$$$
11:0


 33 35  0  0  0  0  0  0  0  0999 V2000
   61.3050   32.2299   49.9049 C   0  0  0  0  0  0  0  0  0  0  0  0
   61.5694   31.8604   51.2340 C   0  0  0  0  0  0  0  0  0  0  0  0
   61.5436   30.5153   51.6113 C   0  0  0  0  0  0  0  0  0  0  0  0
   61.2583   29.5262   50.6678 C   0  0  0  0  0  0  0  0  0  0  0  0
   60.9944   29.8750   49.3323 C   0  0  0  0  0  0  0  0  0  0  0  0
   61.0496   31.2256   48.9551 C   0  0  0  0  0  0  0  0  0  0  0  0
   60.7227   28.8739   48.3355 N   0  0  0  0  0  0  0  0  0  0  0  0
   59.4024   28.4223   47.9943 C   0  0  0  0  0  0  0  0  0  0  0  0
   58.4028   29.1365   48.2828 O   0  0  0  0  0  0  0  0  0  0  0  0
   61.4864   28.4750   47.8592 H   0  0  0  0  0  0  0  0  0  0  0  0
   59.1984   27.1523   47.2568 C   0  0  0  0  0  0  0  0  0  0  0  0
   60.3007   26.4608   46.7216 C   0  0  0  0  0  0  0  0  0  0  0  0
   60.1171   25.2601   46.0308 C   0  0  0  0  0  0  0  0  0  0  0  0
   58.8339   24.7396   45.8562 C   0  0  0  0  0  0  0  0  0  0  0  0
   57.7235   25.4243   46.3647 C   0  0  0  0  0  0  0  0  0  0  0  0
   57.9066   26.6247   47.0646 C   0  0  0  0  0  0  0  0  0  0  0  0
   56.1031   24.7688   46.1493 S   0  0  0  0  0  0  0  0  0  0  0  0
   54.9788   26.0665   45.9456 N   0  0  0  0  0  0  0  0  0  0  0  0
   56.0708   23.8842   44.9352 O   0  0  0  0  0  0  0  0  0  0  0  0
   55.7141   23.9541   47.3509 O   0  0  0  0  0  0  0  0  0  0  0  0
   55.2423   26.6198   45.1303 H   0  0  0  0  0  0  0  0  0  0  0  0
   61.3344   33.6874   49.4888 C   0  0  0  0  0  0  0  0  0  0  0  0
   59.0813   32.7513   45.9990 C   0  0  0  0  0  0  0  0  0  0  0  0
   58.8825   32.2469   47.4514 C   0  0  0  0  0  0  0  0  0  0  0  0
   59.0731   33.3740   48.4792 C   0  0  0  0  0  0  0  0  0  0  0  0
   60.4096   34.0121   48.3795 N   0  0  0  0  0  0  0  0  0  0  0  0
   61.0436   33.9563   47.0420 C   0  0  0  0  0  0  0  0  0  0  0  0
   59.9928   33.9997   45.9290 C   0  0  0  0  0  0  0  0  0  0  0  0
   57.7493   33.0366   45.3346 C   0  0  0  0  0  0  0  0  0  0  0  0
   57.3856   34.2337   45.1842 O   0  0  0  0  0  0  0  0  0  0  0  0
   56.8862   31.9980   44.8479 N   0  0  0  0  0  0  0  0  0  0  0  0
   57.3485   29.5874   44.9375 C   0  0  0  0  0  0  0  0  0  0  0  0
   57.2790   30.8330   44.0599 C   0  0  0  0  0  0  0  0  0  0  0  0
 32 33  1  0
 33 31  1  0
 31 29  1  0
 29 30  2  0
 29 23  1  0
 23 24  1  0
 24 25  1  0
 25 26  1  0
 26 22  1  0
 22  1  1  0
  1  2  2  0
  2  3  1  0
  3  4  2  0
  4  5  1  0
  5  7  1  0
  7  8  1  0
  8  9  2  0
  8 11  1  0
 11 12  2  0
 12 13  1  0
 13 14  2  0
 14 15  1  0
 15 17  1  0
 17 18  1  0
 17 19  2  0
 17 20  2  0
 15 16  2  0
  5  6  2  0
 26 27  1  0
 27 28  1  0
 28 23  1  0
  6  1  1  0
 16 11  1  0
  7 10  1  0
 18 21  1  0
M  CHG 1  18  -1
M  CHG 1  31  -1
M  END
> <UniqueID>
7

> <SMILES>
CC[N-]C(=O)C1CCN(Cc2cccc(NC(=O)c3cccc(S([NH-])(=O)=O)c3)c2)CC1

> <Energy>
70.49090174862707

> <Genealogy>
CC[N-]C(=O)C1CCN(Cc2cccc(NC(=O)c3cccc(S([NH-])(=O)=O)c3)c2)CC1 (protonated)
CC[N-]C(=O)C1CCN(Cc2cccc(NC(=O)c3cccc(S([NH-])(=O)=O)c3)c2)CC1 (3D coordinates assigned)
CC[N-]C(=O)C1CCN(Cc2cccc(NC(=O)c3cccc(S([NH-])(=O)=O)c3)c2)CC1 (nonaromatic ring conformer: 70.49090174862707 kcal/mol)

> <smiles>
CCNC(=O)C1CCN(Cc2cccc(NC(=O)c3cccc(S(N)(=O)=O)c3)c2)CC1

> <score_type>
oracle

> <origin>
adg

> <m_score__min__energy>
-14.140000000000001

> <m_primary>
energy

> <minimizedAffinity>
-7.75338

> <minimizedRMSD>
0.81147

> <CNNscore>
0.2485698164

> <CNNaffinity>
6.5598983765

> <CNN_VS>
1.6305927038

> <CNNaffinity_variance>
0.1716409773

$$$$
26:0


 25 26  0  0  0  0  0  0  0  0999 V2000
   57.3464   24.7029   46.0512 C   0  0  0  0  0  0  0  0  0  0  0  0
   58.7173   24.3837   46.0121 C   0  0  0  0  0  0  0  0  0  0  0  0
   59.6820   25.3936   46.0442 C   0  0  0  0  0  0  0  0  0  0  0  0
   59.2996   26.7308   46.1252 C   0  0  0  0  0  0  0  0  0  0  0  0
   57.9351   27.0731   46.1748 C   0  0  0  0  0  0  0  0  0  0  0  0
   56.9665   26.0592   46.1228 C   0  0  0  0  0  0  0  0  0  0  0  0
   55.6204   26.4056   46.1444 O   0  0  0  0  0  0  0  0  0  0  0  0
   56.3308   23.6753   46.0279 N   0  0  0  0  0  0  0  0  0  0  0  0
   55.5218   23.8371   45.4906 H   0  0  0  0  0  0  0  0  0  0  0  0
   56.4308   22.4118   46.7523 C   0  0  0  0  0  0  0  0  0  0  0  0
   57.0602   21.4053   45.9038 N   0  0  0  0  0  0  0  0  0  0  0  0
   56.9412   21.5428   43.3550 C   0  0  0  0  0  0  0  0  0  0  0  0
   56.5083   20.9525   44.6631 C   0  0  0  0  0  0  0  0  0  0  0  0
   55.6153   20.0638   44.6769 O   0  0  0  0  0  0  0  0  0  0  0  0
   57.5041   28.4379   46.2788 N   0  0  0  0  0  0  0  0  0  0  0  0
   57.2613   29.5235   44.9456 S   0  0  0  0  0  0  0  0  0  0  0  0
   55.7898   29.6398   44.6558 O   0  0  0  0  0  0  0  0  0  0  0  0
   57.9413   28.9627   43.7278 O   0  0  0  0  0  0  0  0  0  0  0  0
   57.9655   31.0943   45.3167 C   0  0  0  0  0  0  0  0  0  0  0  0
   57.7583   32.1951   44.4739 C   0  0  0  0  0  0  0  0  0  0  0  0
   58.3384   33.4296   44.7784 C   0  0  0  0  0  0  0  0  0  0  0  0
   59.1281   33.5719   45.9238 C   0  0  0  0  0  0  0  0  0  0  0  0
   59.8579   35.1186   46.3050 Cl  0  0  0  0  0  0  0  0  0  0  0  0
   59.3347   32.4780   46.7685 C   0  0  0  0  0  0  0  0  0  0  0  0
   58.7553   31.2416   46.4659 C   0  0  0  0  0  0  0  0  0  0  0  0
 12 13  1  0
 13 14  2  0
 13 11  1  0
 11 10  1  0
 10  8  1  0
  8  1  1  0
  1  2  2  0
  2  3  1  0
  3  4  2  0
  4  5  1  0
  5 15  1  0
 15 16  1  0
 16 17  2  0
 16 18  2  0
 16 19  1  0
 19 20  2  0
 20 21  1  0
 21 22  2  0
 22 23  1  0
 22 24  1  0
 24 25  2  0
  5  6  2  0
  6  7  1  0
  6  1  1  0
 25 19  1  0
  8  9  1  0
M  CHG 1   7  -1
M  CHG 1  11  -1
M  CHG 1  15  -1
M  END
> <UniqueID>
22

> <SMILES>
CC(=O)[N-]CNc1cccc([N-]S(=O)(=O)c2ccc(Cl)cc2)c1[O-]

> <Energy>
38.40453226943674

> <Genealogy>
CC(=O)[N-]CNc1cccc([N-]S(=O)(=O)c2ccc(Cl)cc2)c1[O-] (protonated)
CC(=O)[N-]CNc1cccc([N-]S(=O)(=O)c2ccc(Cl)cc2)c1[O-] (3D coordinates assigned)
CC(=O)[N-]CNc1cccc([N-]S(=O)(=O)c2ccc(Cl)cc2)c1[O-] (optimized conformer: 38.40453226943674 kcal/mol)

> <smiles>
CC(=O)NCNc1cccc(NS(=O)(=O)c2ccc(Cl)cc2)c1O

> <score_type>
oracle

> <origin>
adg

> <m_score__min__energy>
-15.57

> <m_primary>
energy

> <minimizedAffinity>
-6.51913

> <minimizedRMSD>
1.41252

> <CNNscore>
0.5363271832

> <CNNaffinity>
6.2295780182

> <CNN_VS>
3.3410921097

> <CNNaffinity_variance>
0.0593982153

$$$$
10:0


 24 25  0  0  0  0  0  0  0  0999 V2000
   58.2560   29.6001   45.8414 C   0  0  0  0  0  0  0  0  0  0  0  0
   59.0828   30.3232   46.7150 C   0  0  0  0  0  0  0  0  0  0  0  0
   59.2395   31.7104   46.5699 C   0  0  0  0  0  0  0  0  0  0  0  0
   58.5897   32.3671   45.5107 C   0  0  0  0  0  0  0  0  0  0  0  0
   57.7665   31.6510   44.6377 C   0  0  0  0  0  0  0  0  0  0  0  0
   57.5943   30.2734   44.8011 C   0  0  0  0  0  0  0  0  0  0  0  0
   56.7687   29.5815   43.9211 O   0  0  0  0  0  0  0  0  0  0  0  0
   56.4323   27.4210   45.6313 N   0  0  0  0  0  0  0  0  0  0  0  0
   58.0521   27.8603   46.0460 S   0  0  0  0  0  0  0  0  0  0  0  0
   59.0041   27.1131   45.1537 O   0  0  0  0  0  0  0  0  0  0  0  0
   58.3288   27.4889   47.4753 O   0  0  0  0  0  0  0  0  0  0  0  0
   56.3122   26.4149   45.7489 H   0  0  0  0  0  0  0  0  0  0  0  0
   60.1128   32.4158   47.4666 N   0  0  0  0  0  0  0  0  0  0  0  0
   59.8959   33.7704   47.9033 C   0  0  0  0  0  0  0  0  0  0  0  0
   58.9309   34.4404   47.4543 O   0  0  0  0  0  0  0  0  0  0  0  0
   60.9085   31.9438   47.8031 H   0  0  0  0  0  0  0  0  0  0  0  0
   60.7915   34.3920   48.8328 N   0  0  0  0  0  0  0  0  0  0  0  0
   61.9012   33.7585   49.4839 C   0  0  0  0  0  0  0  0  0  0  0  0
   63.1369   33.6043   48.8286 C   0  0  0  0  0  0  0  0  0  0  0  0
   64.1981   32.9547   49.4659 C   0  0  0  0  0  0  0  0  0  0  0  0
   64.0301   32.4379   50.7536 C   0  0  0  0  0  0  0  0  0  0  0  0
   62.7991   32.5620   51.4016 C   0  0  0  0  0  0  0  0  0  0  0  0
   61.7319   33.2124   50.7686 C   0  0  0  0  0  0  0  0  0  0  0  0
   60.1932   33.3464   51.6070 Cl  0  0  0  0  0  0  0  0  0  0  0  0
  8  9  1  0
  9 10  2  0
  9 11  2  0
  9  1  1  0
  1  2  2  0
  2  3  1  0
  3 13  1  0
 13 14  1  0
 14 15  2  0
 14 17  1  0
 17 18  1  0
 18 19  2  0
 19 20  1  0
 20 21  2  0
 21 22  1  0
 22 23  2  0
 23 24  1  0
  3  4  2  0
  4  5  1  0
  5  6  2  0
  6  7  1  0
  6  1  1  0
 23 18  1  0
  8 12  1  0
 13 16  1  0
M  CHG 1   7  -1
M  CHG 1   8  -1
M  CHG 1  17  -1
M  END
> <UniqueID>
11

> <SMILES>
[NH-]S(=O)(=O)c1cc(NC(=O)[N-]c2ccccc2Cl)ccc1[O-]

> <Energy>
41.250700768601284

> <Genealogy>
[NH-]S(=O)(=O)c1cc(NC(=O)[N-]c2ccccc2Cl)ccc1[O-] (protonated)
[NH-]S(=O)(=O)c1cc(NC(=O)[N-]c2ccccc2Cl)ccc1[O-] (3D coordinates assigned)
[NH-]S(=O)(=O)c1cc(NC(=O)[N-]c2ccccc2Cl)ccc1[O-] (optimized conformer: 41.250700768601284 kcal/mol)

> <smiles>
NS(=O)(=O)c1cc(NC(=O)Nc2ccccc2Cl)ccc1O

> <score_type>
oracle

> <origin>
adg

> <m_score__min__energy>
-14.35

> <m_primary>
energy

> <minimizedAffinity>
-7.62990

> <minimizedRMSD>
1.77587

> <CNNscore>
0.6479602456

> <CNNaffinity>
6.7722201347

> <CNN_VS>
4.3881292343

> <CNNaffinity_variance>
0.4490682781

$$$$
20:0


 35 38  0  0  0  0  0  0  0  0999 V2000
   59.3534   28.7557   46.8587 N   0  0  0  0  0  0  0  0  0  0  0  0
   58.4526   29.3480   46.1164 C   0  0  0  0  0  0  0  0  0  0  0  0
   57.4429   28.5609   45.4866 C   0  0  0  0  0  0  0  0  0  0  0  0
   56.5232   29.1946   44.6183 C   0  0  0  0  0  0  0  0  0  0  0  0
   56.5867   30.5330   44.4044 N   0  0  0  0  0  0  0  0  0  0  0  0
   57.5113   31.2566   45.0262 N   0  0  0  0  0  0  0  0  0  0  0  0
   57.6595   32.5878   44.9604 C   0  0  0  0  0  0  0  0  0  0  0  0
   58.6998   32.9504   45.7963 C   0  0  0  0  0  0  0  0  0  0  0  0
   59.1642   31.7898   46.4093 C   0  0  0  0  0  0  0  0  0  0  0  0
   58.4211   30.7439   45.8726 C   0  0  0  0  0  0  0  0  0  0  0  0
   59.0827   29.8774   50.4329 C   0  0  0  0  0  0  0  0  0  0  0  0
   60.0822   29.0759   51.0147 C   0  0  0  0  0  0  0  0  0  0  0  0
   60.8436   28.2063   50.2275 C   0  0  0  0  0  0  0  0  0  0  0  0
   60.5959   28.1007   48.8580 C   0  0  0  0  0  0  0  0  0  0  0  0
   59.5647   28.8431   48.2721 C   0  0  0  0  0  0  0  0  0  0  0  0
   58.8303   29.7539   49.0520 C   0  0  0  0  0  0  0  0  0  0  0  0
   58.0373   33.0219   52.4650 C   0  0  0  0  0  0  0  0  0  0  0  0
   58.8448   32.0522   51.7393 N   0  0  0  0  0  0  0  0  0  0  0  0
   58.2954   30.8073   51.2852 C   0  0  0  0  0  0  0  0  0  0  0  0
   57.1235   30.4876   51.6273 O   0  0  0  0  0  0  0  0  0  0  0  0
   59.7905   32.2556   51.5558 H   0  0  0  0  0  0  0  0  0  0  0  0
   57.3330   27.0874   45.6900 C   0  0  0  0  0  0  0  0  0  0  0  0
   56.1094   26.5116   46.1465 N   0  0  0  0  0  0  0  0  0  0  0  0
   58.3118   26.3265   45.4681 O   0  0  0  0  0  0  0  0  0  0  0  0
   55.3313   27.0874   46.3264 H   0  0  0  0  0  0  0  0  0  0  0  0
   59.1782   34.3282   46.0204 C   0  0  0  0  0  0  0  0  0  0  0  0
   59.3914   35.0657   45.0223 O   0  0  0  0  0  0  0  0  0  0  0  0
   59.4719   34.8394   47.3282 N   0  0  0  0  0  0  0  0  0  0  0  0
   59.7288   34.0211   48.5081 C   0  0  0  0  0  0  0  0  0  0  0  0
   61.0884   33.3988   48.4023 C   0  0  0  0  0  0  0  0  0  0  0  0
   61.4485   32.3380   49.2530 C   0  0  0  0  0  0  0  0  0  0  0  0
   62.7177   31.7588   49.1545 C   0  0  0  0  0  0  0  0  0  0  0  0
   63.6351   32.2387   48.2145 C   0  0  0  0  0  0  0  0  0  0  0  0
   63.2735   33.2748   47.3484 C   0  0  0  0  0  0  0  0  0  0  0  0
   62.0026   33.8500   47.4356 C   0  0  0  0  0  0  0  0  0  0  0  0
 17 18  1  0
 18 19  1  0
 19 20  2  0
 19 11  1  0
 11 12  2  0
 12 13  1  0
 13 14  2  0
 14 15  1  0
 15  1  1  0
  1  2  2  0
  2  3  1  0
  3 22  1  0
 22 23  1  0
 22 24  2  0
  3  4  2  0
  4  5  1  0
  5  6  1  0
  6  7  1  0
  7  8  2  0
  8 26  1  0
 26 27  2  0
 26 28  1  0
 28 29  1  0
 29 30  1  0
 30 31  2  0
 31 32  1  0
 32 33  2  0
 33 34  1  0
 34 35  2  0
  8  9  1  0
  9 10  2  0
 15 16  2  0
 16 11  1  0
 10  2  1  0
 10  6  1  0
 35 30  1  0
 18 21  1  0
 23 25  1  0
M  CHG 1   5  -1
M  CHG 1  23  -1
M  CHG 1  28  -1
M  END
> <UniqueID>
21

> <SMILES>
CNC(=O)c1cccc(N=c2c(C([NH-])=O)c[n-]n3cc(C(=O)[N-]Cc4ccccc4)cc23)c1

> <Energy>
102.91918894562093

> <Genealogy>
CNC(=O)c1cccc(N=c2c(C([NH-])=O)c[n-]n3cc(C(=O)[N-]Cc4ccccc4)cc23)c1 (protonated)
CNC(=O)c1cccc(N=c2c(C([NH-])=O)c[n-]n3cc(C(=O)[N-]Cc4ccccc4)cc23)c1 (3D coordinates assigned)
CNC(=O)c1cccc(N=c2c(C([NH-])=O)c[n-]n3cc(C(=O)[N-]Cc4ccccc4)cc23)c1 (optimized conformer: 102.91918894562093 kcal/mol)

> <smiles>
CNC(=O)c1cccc(N=c2c(C(N)=O)c[nH]n3cc(C(=O)NCc4ccccc4)cc23)c1

> <score_type>
oracle

> <origin>
adg

> <m_score__min__energy>
-14.699999999999999

> <m_primary>
energy

> <minimizedAffinity>
-9.11374

> <minimizedRMSD>
0.52514

> <CNNscore>
0.5292203426

> <CNNaffinity>
6.8284668922

> <CNN_VS>
3.6137635708

> <CNNaffinity_variance>
0.3836115897

$$$$
28:0


 25 26  0  0  0  0  0  0  0  0999 V2000
   57.7580   22.3493   45.3685 C   0  0  0  0  0  0  0  0  0  0  0  0
   57.7563   22.0388   44.1473 O   0  0  0  0  0  0  0  0  0  0  0  0
   58.5858   23.4379   45.7988 N   0  0  0  0  0  0  0  0  0  0  0  0
   57.7372   27.5693   45.3410 C   0  0  0  0  0  0  0  0  0  0  0  0
   57.9675   27.0454   46.6213 C   0  0  0  0  0  0  0  0  0  0  0  0
   58.2358   25.6834   46.7859 C   0  0  0  0  0  0  0  0  0  0  0  0
   58.3064   24.8368   45.6674 C   0  0  0  0  0  0  0  0  0  0  0  0
   58.0160   25.3511   44.3988 C   0  0  0  0  0  0  0  0  0  0  0  0
   57.7396   26.7114   44.2349 C   0  0  0  0  0  0  0  0  0  0  0  0
   55.7329   29.5382   44.8939 N   0  0  0  0  0  0  0  0  0  0  0  0
   57.4256   29.2874   45.1291 S   0  0  0  0  0  0  0  0  0  0  0  0
   58.1812   29.7968   43.9350 O   0  0  0  0  0  0  0  0  0  0  0  0
   57.8820   30.0415   46.3468 O   0  0  0  0  0  0  0  0  0  0  0  0
   55.5507   30.5342   44.7708 H   0  0  0  0  0  0  0  0  0  0  0  0
   57.0048   21.4760   46.3338 C   0  0  0  0  0  0  0  0  0  0  0  0
   56.6124   22.2508   47.5064 N   0  0  0  0  0  0  0  0  0  0  0  0
   55.3746   22.1171   48.2192 C   0  0  0  0  0  0  0  0  0  0  0  0
   55.4140   21.8138   49.4411 O   0  0  0  0  0  0  0  0  0  0  0  0
   54.0603   22.3024   47.5688 C   0  0  0  0  0  0  0  0  0  0  0  0
   52.8997   21.7902   48.1745 C   0  0  0  0  0  0  0  0  0  0  0  0
   51.6576   21.9201   47.5464 C   0  0  0  0  0  0  0  0  0  0  0  0
   51.5635   22.5557   46.3063 C   0  0  0  0  0  0  0  0  0  0  0  0
   52.7134   23.0523   45.6862 C   0  0  0  0  0  0  0  0  0  0  0  0
   52.6182   23.6802   44.4500 O   0  0  0  0  0  0  0  0  0  0  0  0
   53.9593   22.9142   46.3075 C   0  0  0  0  0  0  0  0  0  0  0  0
 10 11  1  0
 11 12  2  0
 11 13  2  0
 11  4  1  0
  4  5  2  0
  5  6  1  0
  6  7  2  0
  7  3  1  0
  3  1  1  0
  1  2  2  0
  1 15  1  0
 15 16  1  0
 16 17  1  0
 17 18  2  0
 17 19  1  0
 19 20  2  0
 20 21  1  0
 21 22  2  0
 22 23  1  0
 23 24  1  0
 23 25  2  0
  7  8  1  0
  8  9  2  0
  9  4  1  0
 25 19  1  0
 10 14  1  0
M  CHG 1   3  -1
M  CHG 1  10  -1
M  CHG 1  16  -1
M  CHG 1  24  -1
M  END
> <UniqueID>
29

> <SMILES>
[NH-]S(=O)(=O)c1ccc([N-]C(=O)C[N-]C(=O)c2cccc([O-])c2)cc1

> <Energy>
39.95898579264706

> <Genealogy>
[NH-]S(=O)(=O)c1ccc([N-]C(=O)C[N-]C(=O)c2cccc([O-])c2)cc1 (protonated)
[NH-]S(=O)(=O)c1ccc([N-]C(=O)C[N-]C(=O)c2cccc([O-])c2)cc1 (3D coordinates assigned)
[NH-]S(=O)(=O)c1ccc([N-]C(=O)C[N-]C(=O)c2cccc([O-])c2)cc1 (optimized conformer: 39.95898579264706 kcal/mol)

> <smiles>
NS(=O)(=O)c1ccc(NC(=O)CNC(=O)c2cccc(O)c2)cc1

> <score_type>
oracle

> <origin>
adg

> <m_score__min__energy>
-15.1

> <m_primary>
energy

> <minimizedAffinity>
-5.81727

> <minimizedRMSD>
1.58866

> <CNNscore>
0.3987452388

> <CNNaffinity>
5.2070584297

> <CNN_VS>
2.0762896538

> <CNNaffinity_variance>
0.0640669540

$$$$
61:0


 29 31  0  0  0  0  0  0  0  0999 V2000
   58.6935   27.2177   46.2795 C   0  0  0  0  0  0  0  0  0  0  0  0
   60.0418   27.3545   45.9043 C   0  0  0  0  0  0  0  0  0  0  0  0
   60.4503   28.4340   45.1174 C   0  0  0  0  0  0  0  0  0  0  0  0
   59.5184   29.3818   44.6891 C   0  0  0  0  0  0  0  0  0  0  0  0
   58.1684   29.2490   45.0361 C   0  0  0  0  0  0  0  0  0  0  0  0
   57.7592   28.1643   45.8245 C   0  0  0  0  0  0  0  0  0  0  0  0
   56.9962   30.4387   44.4822 S   0  0  0  0  0  0  0  0  0  0  0  0
   55.6269   29.8216   44.5130 O   0  0  0  0  0  0  0  0  0  0  0  0
   57.3049   30.8776   43.0781 O   0  0  0  0  0  0  0  0  0  0  0  0
   57.0179   31.8238   45.5257 N   0  0  0  0  0  0  0  0  0  0  0  0
   58.1428   32.6906   45.7298 C   0  0  0  0  0  0  0  0  0  0  0  0
   58.3573   33.8288   44.9283 C   0  0  0  0  0  0  0  0  0  0  0  0
   59.4676   34.6478   45.1489 C   0  0  0  0  0  0  0  0  0  0  0  0
   60.3700   34.3455   46.1701 C   0  0  0  0  0  0  0  0  0  0  0  0
   60.1651   33.2219   46.9737 C   0  0  0  0  0  0  0  0  0  0  0  0
   59.0555   32.3947   46.7580 C   0  0  0  0  0  0  0  0  0  0  0  0
   58.8299   30.9855   47.7836 Cl  0  0  0  0  0  0  0  0  0  0  0  0
   59.0179   25.6962   48.0677 O   0  0  0  0  0  0  0  0  0  0  0  0
   58.2723   26.0771   47.1263 C   0  0  0  0  0  0  0  0  0  0  0  0
   57.0491   25.3644   46.8905 N   0  0  0  0  0  0  0  0  0  0  0  0
   56.8350   24.4849   45.8083 N   0  0  0  0  0  0  0  0  0  0  0  0
   55.5897   24.3239   45.2597 C   0  0  0  0  0  0  0  0  0  0  0  0
   54.4890   24.9961   45.7791 O   0  0  0  0  0  0  0  0  0  0  0  0
   55.4071   23.4586   44.1819 C   0  0  0  0  0  0  0  0  0  0  0  0
   56.5026   22.7444   43.7062 C   0  0  0  0  0  0  0  0  0  0  0  0
   56.3716   21.9522   42.7358 O   0  0  0  0  0  0  0  0  0  0  0  0
   57.7131   22.8947   44.2975 N   0  0  0  0  0  0  0  0  0  0  0  0
   57.8853   23.7456   45.3415 C   0  0  0  0  0  0  0  0  0  0  0  0
   59.0272   23.8589   45.8650 O   0  0  0  0  0  0  0  0  0  0  0  0
 18 19  2  0
 19 20  1  0
 20 21  1  0
 21 22  1  0
 22 23  1  0
 22 24  2  0
 24 25  1  0
 25 26  2  0
 25 27  1  0
 27 28  1  0
 28 29  2  0
 19  1  1  0
  1  2  2  0
  2  3  1  0
  3  4  2  0
  4  5  1  0
  5  7  1  0
  7  8  2  0
  7  9  2  0
  7 10  1  0
 10 11  1  0
 11 12  2  0
 12 13  1  0
 13 14  2  0
 14 15  1  0
 15 16  2  0
 16 17  1  0
  5  6  2  0
 28 21  1  0
  6  1  1  0
 16 11  1  0
M  CHG 1  10  -1
M  CHG 1  20  -1
M  CHG 1  23  -1
M  CHG 1  27  -1
M  END
> <UniqueID>
60

> <SMILES>
O=C([N-]n1c([O-])cc(=O)[n-]c1=O)c1cccc(S(=O)(=O)[N-]c2ccccc2Cl)c1

> <Energy>
54.85278618710668

> <Genealogy>
O=C([N-]n1c([O-])cc(=O)[n-]c1=O)c1cccc(S(=O)(=O)[N-]c2ccccc2Cl)c1 (protonated)
O=C([N-]n1c([O-])cc(=O)[n-]c1=O)c1cccc(S(=O)(=O)[N-]c2ccccc2Cl)c1 (3D coordinates assigned)
O=C([N-]n1c([O-])cc(=O)[n-]c1=O)c1cccc(S(=O)(=O)[N-]c2ccccc2Cl)c1 (optimized conformer: 54.85278618710668 kcal/mol)

> <smiles>
O=C(Nn1c(O)cc(=O)[nH]c1=O)c1cccc(S(=O)(=O)Nc2ccccc2Cl)c1

> <score_type>
oracle

> <origin>
adg

> <m_score__min__energy>
-17.699999999999999

> <m_primary>
energy

> <minimizedAffinity>
-8.52341

> <minimizedRMSD>
0.78666

> <CNNscore>
0.7136282921

> <CNNaffinity>
7.1171936989

> <CNN_VS>
5.0790309906

> <CNNaffinity_variance>
0.0845604241

$$$$
69:0


 32 36  0  0  0  0  0  0  0  0999 V2000
   53.9038   31.0057   52.7528 C   0  0  0  0  0  0  0  0  0  0  0  0
   55.0249   30.2796   52.8767 C   0  0  0  0  0  0  0  0  0  0  0  0
   55.1019   28.9580   53.3125 C   0  0  0  0  0  0  0  0  0  0  0  0
   56.3940   28.5527   53.3482 N   0  0  0  0  0  0  0  0  0  0  0  0
   57.1245   29.5837   52.9564 N   0  0  0  0  0  0  0  0  0  0  0  0
   58.4737   29.6621   52.8699 C   0  0  0  0  0  0  0  0  0  0  0  0
   59.2194   28.6305   53.1377 N   0  0  0  0  0  0  0  0  0  0  0  0
   59.0204   30.8521   52.4927 N   0  0  0  0  0  0  0  0  0  0  0  0
   58.2310   31.9331   52.2106 C   0  0  0  0  0  0  0  0  0  0  0  0
   58.7547   33.0786   51.8886 N   0  0  0  0  0  0  0  0  0  0  0  0
   56.8739   31.8271   52.3139 N   0  0  0  0  0  0  0  0  0  0  0  0
   56.3464   30.6301   52.6712 C   0  0  0  0  0  0  0  0  0  0  0  0
   52.9034   30.8104   51.6912 C   0  0  0  0  0  0  0  0  0  0  0  0
   53.0479   29.9262   50.6903 N   0  0  0  0  0  0  0  0  0  0  0  0
   51.9652   30.1530   49.9147 C   0  0  0  0  0  0  0  0  0  0  0  0
   51.7339   29.4973   48.8654 O   0  0  0  0  0  0  0  0  0  0  0  0
   51.1576   31.1460   50.3452 N   0  0  0  0  0  0  0  0  0  0  0  0
   51.7722   31.5609   51.4646 C   0  0  0  0  0  0  0  0  0  0  0  0
   51.3291   32.6283   52.2345 O   0  0  0  0  0  0  0  0  0  0  0  0
   60.6759   28.5949   52.9691 C   0  0  0  0  0  0  0  0  0  0  0  0
   61.3573   29.1400   54.2419 C   0  0  0  0  0  0  0  0  0  0  0  0
   62.6549   29.9225   53.9485 C   0  0  0  0  0  0  0  0  0  0  0  0
   63.4067   29.3772   52.7988 N   0  0  0  0  0  0  0  0  0  0  0  0
   64.0417   28.0864   53.1163 C   0  0  0  0  0  0  0  0  0  0  0  0
   62.6238   29.3320   51.5366 C   0  0  0  0  0  0  0  0  0  0  0  0
   61.0979   29.4073   51.7375 C   0  0  0  0  0  0  0  0  0  0  0  0
   59.9754   33.2878   51.1562 C   0  0  0  0  0  0  0  0  0  0  0  0
   61.1936   33.2102   51.8447 C   0  0  0  0  0  0  0  0  0  0  0  0
   62.4031   33.4105   51.1726 C   0  0  0  0  0  0  0  0  0  0  0  0
   62.4033   33.7110   49.8076 C   0  0  0  0  0  0  0  0  0  0  0  0
   61.1928   33.8246   49.1172 C   0  0  0  0  0  0  0  0  0  0  0  0
   59.9830   33.6271   49.7880 C   0  0  0  0  0  0  0  0  0  0  0  0
  1 13  1  0
 13 14  1  0
 14 15  1  0
 15 16  2  0
 15 17  1  0
 17 18  1  0
 18 19  1  0
  1  2  2  0
  2  3  1  0
  3  4  2  0
  4  5  1  0
  5  6  1  0
  6  7  2  0
  7 20  1  0
 20 21  1  0
 21 22  1  0
 22 23  1  0
 23 24  1  0
 23 25  1  0
 25 26  1  0
  6  8  1  0
  8  9  1  0
  9 10  2  0
 10 27  1  0
 27 28  2  0
 28 29  1  0
 29 30  2  0
 30 31  1  0
 31 32  2  0
  9 11  1  0
 11 12  2  0
 18 13  2  0
 12  2  1  0
 12  5  1  0
 26 20  1  0
 32 27  1  0
M  CHG 1   8  -1
M  CHG 1  14  -1
M  CHG 1  17  -1
M  CHG 1  19  -1
M  END
> <UniqueID>
66

> <SMILES>
CN1CCC(/N=c2\[n-]/c(=N\c3ccccc3)nc3c(=Cc4[n-]c(=O)[n-]c4[O-])cnn23)CC1

> <Energy>
144.5334076684371

> <Genealogy>
CN1CCC(N=c2[n-]c(=Nc3ccccc3)nc3c(=Cc4[n-]c(=O)[n-]c4[O-])cnn23)CC1 (protonated)
CN1CCC(/N=c2\[n-]/c(=N\c3ccccc3)nc3c(=Cc4[n-]c(=O)[n-]c4[O-])cnn23)CC1 (cis-trans isomerization)
CN1CCC(/N=c2\[n-]/c(=N\c3ccccc3)nc3c(=Cc4[n-]c(=O)[n-]c4[O-])cnn23)CC1 (3D coordinates assigned)
CN1CCC(/N=c2\[n-]/c(=N\c3ccccc3)nc3c(=Cc4[n-]c(=O)[n-]c4[O-])cnn23)CC1 (nonaromatic ring conformer: 144.5334076684371 kcal/mol)

> <smiles>
CN1CCC(N=c2[nH]c(=Nc3ccccc3)nc3c(=Cc4[nH]c(=O)[nH]c4O)cnn23)CC1

> <score_type>
oracle

> <origin>
adg

> <m_score__min__energy>
-17.719999999999999

> <m_primary>
energy

> <minimizedAffinity>
-5.95562

> <minimizedRMSD>
0.89196

> <CNNscore>
0.0937987044

> <CNNaffinity>
5.2512574196

> <CNN_VS>
0.4925611317

> <CNNaffinity_variance>
0.1095627621

$$$$
84:0


 30 34  0  0  0  0  0  0  0  0999 V2000
   57.7519   28.0207   44.4759 C   0  0  0  0  0  0  0  0  0  0  0  0
   57.6628   29.2953   44.2233 N   0  0  0  0  0  0  0  0  0  0  0  0
   57.7850   29.9657   45.4487 N   0  0  0  0  0  0  0  0  0  0  0  0
   58.4526   31.1063   45.7191 C   0  0  0  0  0  0  0  0  0  0  0  0
   58.5626   32.1187   44.9118 N   0  0  0  0  0  0  0  0  0  0  0  0
   59.0856   31.0470   46.9158 N   0  0  0  0  0  0  0  0  0  0  0  0
   58.7929   29.7816   47.3192 C   0  0  0  0  0  0  0  0  0  0  0  0
   59.3078   29.2105   48.3661 N   0  0  0  0  0  0  0  0  0  0  0  0
   57.9889   29.1486   46.4448 N   0  0  0  0  0  0  0  0  0  0  0  0
   57.9893   27.8307   45.9206 C   0  0  0  0  0  0  0  0  0  0  0  0
   58.2875   26.7145   46.5972 C   0  0  0  0  0  0  0  0  0  0  0  0
   57.9741   25.3610   46.1154 C   0  0  0  0  0  0  0  0  0  0  0  0
   58.9134   24.4267   45.8822 N   0  0  0  0  0  0  0  0  0  0  0  0
   58.1938   23.3376   45.5359 C   0  0  0  0  0  0  0  0  0  0  0  0
   58.7305   22.2429   45.2263 O   0  0  0  0  0  0  0  0  0  0  0  0
   56.8562   23.5110   45.5583 N   0  0  0  0  0  0  0  0  0  0  0  0
   56.7302   24.7931   45.9380 C   0  0  0  0  0  0  0  0  0  0  0  0
   55.5060   25.4077   46.1677 O   0  0  0  0  0  0  0  0  0  0  0  0
   58.0628   33.4563   45.2095 C   0  0  0  0  0  0  0  0  0  0  0  0
   59.1177   34.5420   45.0984 C   0  0  0  0  0  0  0  0  0  0  0  0
   58.6777   34.0423   46.4673 C   0  0  0  0  0  0  0  0  0  0  0  0
   60.6836   29.4201   48.8032 C   0  0  0  0  0  0  0  0  0  0  0  0
   60.6983   30.4165   49.9249 C   0  0  0  0  0  0  0  0  0  0  0  0
   60.0650   30.1191   51.1421 C   0  0  0  0  0  0  0  0  0  0  0  0
   60.0417   31.0618   52.1739 C   0  0  0  0  0  0  0  0  0  0  0  0
   60.6386   32.3153   51.9937 C   0  0  0  0  0  0  0  0  0  0  0  0
   60.6021   33.4921   53.2954 Cl  0  0  0  0  0  0  0  0  0  0  0  0
   61.2580   32.6239   50.7760 C   0  0  0  0  0  0  0  0  0  0  0  0
   61.8318   33.8388   50.5884 F   0  0  0  0  0  0  0  0  0  0  0  0
   61.2826   31.6812   49.7430 C   0  0  0  0  0  0  0  0  0  0  0  0
  1  2  2  0
  2  3  1  0
  3  4  1  0
  4  5  2  0
  5 19  1  0
 19 20  1  0
 20 21  1  0
  4  6  1  0
  6  7  1  0
  7  8  2  0
  8 22  1  0
 22 23  1  0
 23 24  2  0
 24 25  1  0
 25 26  2  0
 26 27  1  0
 26 28  1  0
 28 29  1  0
 28 30  2  0
  7  9  1  0
  9 10  1  0
 10 11  2  0
 11 12  1  0
 12 13  1  0
 13 14  1  0
 14 15  2  0
 14 16  1  0
 16 17  1  0
 17 18  1  0
 10  1  1  0
 17 12  2  0
  9  3  1  0
 21 19  1  0
 30 23  1  0
M  CHG 1   6  -1
M  CHG 1  13  -1
M  CHG 1  16  -1
M  CHG 1  18  -1
M  END
> <UniqueID>
80

> <SMILES>
O=c1[n-]c([O-])c(C=C2C=Nn3/c(=N\C4CC4)[n-]c(=NCc4ccc(Cl)c(F)c4)n32)[n-]1

> <Energy>
438.8243157712241

> <Genealogy>
O=c1[n-]c([O-])c(C=C2C=Nn3c(=NC4CC4)[n-]c(=NCc4ccc(Cl)c(F)c4)n32)[n-]1 (protonated)
O=c1[n-]c([O-])c(C=C2C=Nn3/c(=N\C4CC4)[n-]c(=NCc4ccc(Cl)c(F)c4)n32)[n-]1 (cis-trans isomerization)
O=c1[n-]c([O-])c(C=C2C=Nn3/c(=N\C4CC4)[n-]c(=NCc4ccc(Cl)c(F)c4)n32)[n-]1 (3D coordinates assigned)
O=c1[n-]c([O-])c(C=C2C=Nn3/c(=N\C4CC4)[n-]c(=NCc4ccc(Cl)c(F)c4)n32)[n-]1 (nonaromatic ring conformer: 438.8243157712241 kcal/mol)

> <smiles>
O=c1[nH]c(O)c(C=C2C=Nn3c(=NC4CC4)[nH]c(=NCc4ccc(Cl)c(F)c4)n32)[nH]1

> <score_type>
oracle

> <origin>
adg

> <m_score__min__energy>
-17.280000000000001

> <m_primary>
energy

> <minimizedAffinity>
-8.45099

> <minimizedRMSD>
1.91033

> <CNNscore>
0.4568684697

> <CNNaffinity>
7.1789641380

> <CNN_VS>
3.2798423767

> <CNNaffinity_variance>
0.1175657883

$$$$
19:0


 26 28  0  0  0  0  0  0  0  0999 V2000
   59.5407   30.5037   49.6507 N   0  0  0  0  0  0  0  0  0  0  0  0
   59.0521   30.6114   50.8525 C   0  0  0  0  0  0  0  0  0  0  0  0
   59.6565   31.4336   51.7467 N   0  0  0  0  0  0  0  0  0  0  0  0
   59.1777   31.5335   53.0133 C   0  0  0  0  0  0  0  0  0  0  0  0
   58.0982   30.8038   53.3926 N   0  0  0  0  0  0  0  0  0  0  0  0
   57.4959   29.9673   52.5085 C   0  0  0  0  0  0  0  0  0  0  0  0
   56.4437   29.2979   52.8794 N   0  0  0  0  0  0  0  0  0  0  0  0
   57.9767   29.8800   51.2412 N   0  0  0  0  0  0  0  0  0  0  0  0
   55.0808   29.7616   52.8557 C   0  0  0  0  0  0  0  0  0  0  0  0
   54.6117   30.4125   51.7068 C   0  0  0  0  0  0  0  0  0  0  0  0
   53.2966   30.8833   51.6450 C   0  0  0  0  0  0  0  0  0  0  0  0
   52.4436   30.7253   52.7410 C   0  0  0  0  0  0  0  0  0  0  0  0
   51.1355   31.1893   52.6774 O   0  0  0  0  0  0  0  0  0  0  0  0
   52.9108   30.1055   53.9048 C   0  0  0  0  0  0  0  0  0  0  0  0
   54.2257   29.6372   53.9700 C   0  0  0  0  0  0  0  0  0  0  0  0
   58.2817   31.0442   46.1739 C   0  0  0  0  0  0  0  0  0  0  0  0
   58.1740   32.4410   46.1276 C   0  0  0  0  0  0  0  0  0  0  0  0
   58.5406   33.2095   47.2340 C   0  0  0  0  0  0  0  0  0  0  0  0
   59.0017   32.5895   48.3988 C   0  0  0  0  0  0  0  0  0  0  0  0
   59.0740   31.1843   48.4724 C   0  0  0  0  0  0  0  0  0  0  0  0
   58.7352   30.4221   47.3460 C   0  0  0  0  0  0  0  0  0  0  0  0
   56.2594   29.3831   45.0480 N   0  0  0  0  0  0  0  0  0  0  0  0
   57.8203   30.0755   44.7787 S   0  0  0  0  0  0  0  0  0  0  0  0
   57.7818   30.9384   43.5492 O   0  0  0  0  0  0  0  0  0  0  0  0
   58.8236   28.9774   44.5659 O   0  0  0  0  0  0  0  0  0  0  0  0
   55.9924   28.8217   44.2394 H   0  0  0  0  0  0  0  0  0  0  0  0
 22 23  1  0
 23 24  2  0
 23 25  2  0
 23 16  1  0
 16 17  2  0
 17 18  1  0
 18 19  2  0
 19 20  1  0
 20  1  1  0
  1  2  2  0
  2  3  1  0
  3  4  2  0
  4  5  1  0
  5  6  1  0
  6  7  2  0
  7  9  1  0
  9 10  2  0
 10 11  1  0
 11 12  2  0
 12 13  1  0
 12 14  1  0
 14 15  2  0
  6  8  1  0
 20 21  2  0
 21 16  1  0
  8  2  1  0
 15  9  1  0
 22 26  1  0
M  CHG 1   5  -1
M  CHG 1   8  -1
M  CHG 1  13  -1
M  CHG 1  22  -1
M  END
> <UniqueID>
17

> <SMILES>
[NH-]S(=O)(=O)c1cccc(/N=c2/nc[n-]c(=Nc3ccc([O-])cc3)[n-]2)c1

> <Energy>
49.646586097255565

> <Genealogy>
[NH-]S(=O)(=O)c1cccc(N=c2nc[n-]c(=Nc3ccc([O-])cc3)[n-]2)c1 (protonated)
[NH-]S(=O)(=O)c1cccc(/N=c2/nc[n-]c(=Nc3ccc([O-])cc3)[n-]2)c1 (cis-trans isomerization)
[NH-]S(=O)(=O)c1cccc(/N=c2/nc[n-]c(=Nc3ccc([O-])cc3)[n-]2)c1 (3D coordinates assigned)
[NH-]S(=O)(=O)c1cccc(/N=c2/nc[n-]c(=Nc3ccc([O-])cc3)[n-]2)c1 (optimized conformer: 49.646586097255565 kcal/mol)

> <smiles>
NS(=O)(=O)c1cccc(N=c2nc[nH]c(=Nc3ccc(O)cc3)[nH]2)c1

> <score_type>
oracle

> <origin>
adg

> <m_score__min__energy>
-15.77

> <m_primary>
energy

> <minimizedAffinity>
-6.89359

> <minimizedRMSD>
1.10737

> <CNNscore>
0.4672165513

> <CNNaffinity>
5.7219734192

> <CNN_VS>
2.6734006405

> <CNNaffinity_variance>
0.0430577584

$$$$
34:0


 28 30  0  0  0  0  0  0  0  0999 V2000
   58.0186   28.7838   45.6541 C   0  0  0  0  0  0  0  0  0  0  0  0
   59.2671   28.9543   46.2681 C   0  0  0  0  0  0  0  0  0  0  0  0
   59.8389   30.2326   46.4086 C   0  0  0  0  0  0  0  0  0  0  0  0
   59.1515   31.3434   45.9116 C   0  0  0  0  0  0  0  0  0  0  0  0
   57.9125   31.1879   45.2910 C   0  0  0  0  0  0  0  0  0  0  0  0
   57.3378   29.9196   45.1569 C   0  0  0  0  0  0  0  0  0  0  0  0
   56.1054   29.8201   44.5262 O   0  0  0  0  0  0  0  0  0  0  0  0
   57.5061   27.4438   45.5679 N   0  0  0  0  0  0  0  0  0  0  0  0
   58.2220   25.9807   46.1652 S   0  0  0  0  0  0  0  0  0  0  0  0
   59.7149   26.0482   46.0062 O   0  0  0  0  0  0  0  0  0  0  0  0
   57.8557   25.7740   47.6075 O   0  0  0  0  0  0  0  0  0  0  0  0
   56.6911   21.1885   44.6640 C   0  0  0  0  0  0  0  0  0  0  0  0
   57.0317   22.6053   44.6420 N   0  0  0  0  0  0  0  0  0  0  0  0
   56.7897   23.4794   43.6445 C   0  0  0  0  0  0  0  0  0  0  0  0
   57.1459   24.7416   43.9668 N   0  0  0  0  0  0  0  0  0  0  0  0
   57.6168   24.6317   45.2250 C   0  0  0  0  0  0  0  0  0  0  0  0
   57.5421   23.3260   45.6531 C   0  0  0  0  0  0  0  0  0  0  0  0
   61.0797   30.4461   47.0325 O   0  0  0  0  0  0  0  0  0  0  0  0
   61.3134   31.3383   48.1222 C   0  0  0  0  0  0  0  0  0  0  0  0
   60.2849   31.1455   49.2062 C   0  0  0  0  0  0  0  0  0  0  0  0
   59.3968   32.1807   49.5371 C   0  0  0  0  0  0  0  0  0  0  0  0
   58.4370   31.9947   50.5372 C   0  0  0  0  0  0  0  0  0  0  0  0
   58.3429   30.7659   51.2161 C   0  0  0  0  0  0  0  0  0  0  0  0
   59.2249   29.7284   50.8709 C   0  0  0  0  0  0  0  0  0  0  0  0
   60.1845   29.9154   49.8710 C   0  0  0  0  0  0  0  0  0  0  0  0
   57.3278   30.5639   52.2737 C   0  0  0  0  0  0  0  0  0  0  0  0
   56.3991   29.7291   52.1178 O   0  0  0  0  0  0  0  0  0  0  0  0
   57.3859   31.2953   53.4553 O   0  0  0  0  0  0  0  0  0  0  0  0
 12 13  1  0
 13 14  1  0
 14 15  2  0
 15 16  1  0
 16  9  1  0
  9 10  2  0
  9 11  2  0
  9  8  1  0
  8  1  1  0
  1  2  2  0
  2  3  1  0
  3 18  1  0
 18 19  1  0
 19 20  1  0
 20 21  2  0
 21 22  1  0
 22 23  2  0
 23 26  1  0
 26 27  2  0
 26 28  1  0
 23 24  1  0
 24 25  2  0
  3  4  2  0
  4  5  1  0
  5  6  2  0
  6  7  1  0
 16 17  2  0
 17 13  1  0
  6  1  1  0
 25 20  1  0
M  CHG 1   7  -1
M  CHG 1   8  -1
M  CHG 1  28  -1
M  END
> <UniqueID>
29

> <SMILES>
Cn1cnc(S(=O)(=O)[N-]c2cc(OCc3ccc(C(=O)[O-])cc3)ccc2[O-])c1

> <Energy>
80.50044006736485

> <Genealogy>
Cn1cnc(S(=O)(=O)[N-]c2cc(OCc3ccc(C(=O)[O-])cc3)ccc2[O-])c1 (protonated)
Cn1cnc(S(=O)(=O)[N-]c2cc(OCc3ccc(C(=O)[O-])cc3)ccc2[O-])c1 (3D coordinates assigned)
Cn1cnc(S(=O)(=O)[N-]c2cc(OCc3ccc(C(=O)[O-])cc3)ccc2[O-])c1 (optimized conformer: 80.50044006736485 kcal/mol)

> <smiles>
Cn1cnc(S(=O)(=O)Nc2cc(OCc3ccc(C(=O)O)cc3)ccc2O)c1

> <score_type>
oracle

> <origin>
adg

> <m_score__min__energy>
-14.029999999999999

> <m_primary>
energy

> <minimizedAffinity>
-6.86405

> <minimizedRMSD>
1.30957

> <CNNscore>
0.2795385718

> <CNNaffinity>
6.0699763298

> <CNN_VS>
1.6967924833

> <CNNaffinity_variance>
0.0949655548

$$$$
49:0


 32 34  0  0  0  0  0  0  0  0999 V2000
   59.0219   32.0513   46.9629 N   0  0  0  0  0  0  0  0  0  0  0  0
   59.7796   33.6385   46.9287 S   0  0  0  0  0  0  0  0  0  0  0  0
   58.8524   34.6704   47.5082 O   0  0  0  0  0  0  0  0  0  0  0  0
   60.1218   34.0400   45.5233 O   0  0  0  0  0  0  0  0  0  0  0  0
   61.2780   33.5831   47.8519 C   0  0  0  0  0  0  0  0  0  0  0  0
   61.2526   33.8669   49.2245 C   0  0  0  0  0  0  0  0  0  0  0  0
   62.4344   33.8340   49.9693 C   0  0  0  0  0  0  0  0  0  0  0  0
   63.6442   33.5099   49.3495 C   0  0  0  0  0  0  0  0  0  0  0  0
   63.6733   33.2222   47.9827 C   0  0  0  0  0  0  0  0  0  0  0  0
   62.4938   33.2588   47.2336 C   0  0  0  0  0  0  0  0  0  0  0  0
   58.2470   31.8112   45.7302 C   0  0  0  0  0  0  0  0  0  0  0  0
   58.2991   30.3714   45.3263 C   0  0  0  0  0  0  0  0  0  0  0  0
   58.8287   30.0561   44.2275 O   0  0  0  0  0  0  0  0  0  0  0  0
   57.8246   29.3713   46.2375 N   0  0  0  0  0  0  0  0  0  0  0  0
   57.3130   25.6792   46.1368 C   0  0  0  0  0  0  0  0  0  0  0  0
   58.6267   25.2041   46.2410 C   0  0  0  0  0  0  0  0  0  0  0  0
   59.6893   26.1024   46.3465 C   0  0  0  0  0  0  0  0  0  0  0  0
   59.4501   27.4786   46.3530 C   0  0  0  0  0  0  0  0  0  0  0  0
   58.1329   27.9682   46.2714 C   0  0  0  0  0  0  0  0  0  0  0  0
   57.0743   27.0591   46.1516 C   0  0  0  0  0  0  0  0  0  0  0  0
   54.5063   25.4433   45.7256 N   0  0  0  0  0  0  0  0  0  0  0  0
   55.9629   24.5587   46.0055 S   0  0  0  0  0  0  0  0  0  0  0  0
   55.8232   23.7651   47.2738 O   0  0  0  0  0  0  0  0  0  0  0  0
   56.2037   23.6110   44.8660 O   0  0  0  0  0  0  0  0  0  0  0  0
   53.7235   24.7938   45.6494 H   0  0  0  0  0  0  0  0  0  0  0  0
   60.0408   30.9981   47.1434 C   0  0  0  0  0  0  0  0  0  0  0  0
   60.1122   30.5685   48.5874 C   0  0  0  0  0  0  0  0  0  0  0  0
   58.9465   30.5160   49.3716 C   0  0  0  0  0  0  0  0  0  0  0  0
   59.0096   30.0906   50.7025 C   0  0  0  0  0  0  0  0  0  0  0  0
   60.2340   29.7053   51.2575 C   0  0  0  0  0  0  0  0  0  0  0  0
   61.3966   29.7423   50.4815 C   0  0  0  0  0  0  0  0  0  0  0  0
   61.3378   30.1664   49.1495 C   0  0  0  0  0  0  0  0  0  0  0  0
 21 22  1  0
 22 23  2  0
 22 24  2  0
 22 15  1  0
 15 16  2  0
 16 17  1  0
 17 18  2  0
 18 19  1  0
 19 14  1  0
 14 12  1  0
 12 13  2  0
 12 11  1  0
 11  1  1  0
  1 26  1  0
 26 27  1  0
 27 28  2  0
 28 29  1  0
 29 30  2  0
 30 31  1  0
 31 32  2  0
  1  2  1  0
  2  3  2  0
  2  4  2  0
  2  5  1  0
  5  6  2  0
  6  7  1  0
  7  8  2  0
  8  9  1  0
  9 10  2  0
 19 20  2  0
 20 15  1  0
 32 27  1  0
 10  5  1  0
 21 25  1  0
M  CHG 1  14  -1
M  CHG 1  21  -1
M  END
> <UniqueID>
43

> <SMILES>
[NH-]S(=O)(=O)c1cccc([N-]C(=O)CN(Cc2ccccc2)S(=O)(=O)c2ccccc2)c1

> <Energy>
51.42383587098442

> <Genealogy>
[NH-]S(=O)(=O)c1cccc([N-]C(=O)CN(Cc2ccccc2)S(=O)(=O)c2ccccc2)c1 (protonated)
[NH-]S(=O)(=O)c1cccc([N-]C(=O)CN(Cc2ccccc2)S(=O)(=O)c2ccccc2)c1 (3D coordinates assigned)
[NH-]S(=O)(=O)c1cccc([N-]C(=O)CN(Cc2ccccc2)S(=O)(=O)c2ccccc2)c1 (optimized conformer: 51.42383587098442 kcal/mol)

> <smiles>
NS(=O)(=O)c1cccc(NC(=O)CN(Cc2ccccc2)S(=O)(=O)c2ccccc2)c1

> <score_type>
oracle

> <origin>
adg

> <m_score__min__energy>
-14.210000000000001

> <m_primary>
energy

> <minimizedAffinity>
-8.03865

> <minimizedRMSD>
1.59810

> <CNNscore>
0.9106410146

> <CNNaffinity>
7.0479969978

> <CNN_VS>
6.4181952477

> <CNNaffinity_variance>
0.0398633964

$$$$
18:0


 27 30  0  0  0  0  0  0  0  0999 V2000
   59.4705   26.2875   47.3967 O   0  0  0  0  0  0  0  0  0  0  0  0
   58.7271   26.8876   46.5835 C   0  0  0  0  0  0  0  0  0  0  0  0
   58.3518   26.2123   45.2949 C   0  0  0  0  0  0  0  0  0  0  0  0
   57.5696   25.0116   45.5808 N   0  0  0  0  0  0  0  0  0  0  0  0
   58.0443   23.7431   45.6517 C   0  0  0  0  0  0  0  0  0  0  0  0
   59.3622   23.3811   45.3750 O   0  0  0  0  0  0  0  0  0  0  0  0
   57.0489   22.8801   46.0615 C   0  0  0  0  0  0  0  0  0  0  0  0
   55.9340   23.6591   46.3053 C   0  0  0  0  0  0  0  0  0  0  0  0
   56.2789   24.9557   45.9802 C   0  0  0  0  0  0  0  0  0  0  0  0
   55.4326   26.0596   46.0672 O   0  0  0  0  0  0  0  0  0  0  0  0
   54.6213   23.1181   46.7874 C   0  0  0  0  0  0  0  0  0  0  0  0
   54.8112   21.7050   47.3994 C   0  0  0  0  0  0  0  0  0  0  0  0
   55.7287   20.8123   46.5217 C   0  0  0  0  0  0  0  0  0  0  0  0
   57.1397   21.4137   46.3834 C   0  0  0  0  0  0  0  0  0  0  0  0
   58.1527   28.1469   46.9611 N   0  0  0  0  0  0  0  0  0  0  0  0
   57.9718   29.2599   46.0769 C   0  0  0  0  0  0  0  0  0  0  0  0
   57.1007   29.0800   44.9831 C   0  0  0  0  0  0  0  0  0  0  0  0
   56.9041   30.0920   44.0495 C   0  0  0  0  0  0  0  0  0  0  0  0
   57.5870   31.2930   44.1795 C   0  0  0  0  0  0  0  0  0  0  0  0
   58.4619   31.4934   45.2472 C   0  0  0  0  0  0  0  0  0  0  0  0
   58.6869   30.4897   46.2336 C   0  0  0  0  0  0  0  0  0  0  0  0
   59.5607   30.7820   47.3848 N   0  0  0  0  0  0  0  0  0  0  0  0
   58.9407   30.9091   48.7256 C   0  0  0  0  0  0  0  0  0  0  0  0
   59.9255   31.2225   49.8553 C   0  0  0  0  0  0  0  0  0  0  0  0
   61.1666   30.5880   49.6461 O   0  0  0  0  0  0  0  0  0  0  0  0
   61.7763   31.1774   48.5187 C   0  0  0  0  0  0  0  0  0  0  0  0
   61.0361   30.7912   47.2426 C   0  0  0  0  0  0  0  0  0  0  0  0
  1  2  2  0
  2  3  1  0
  3  4  1  0
  4  5  1  0
  5  6  1  0
  5  7  2  0
  7  8  1  0
  8  9  2  0
  9 10  1  0
  8 11  1  0
 11 12  1  0
 12 13  1  0
 13 14  1  0
  2 15  1  0
 15 16  1  0
 16 17  2  0
 17 18  1  0
 18 19  2  0
 19 20  1  0
 20 21  2  0
 21 22  1  0
 22 23  1  0
 23 24  1  0
 24 25  1  0
 25 26  1  0
 26 27  1  0
  9  4  1  0
 21 16  1  0
 27 22  1  0
 14  7  1  0
M  CHG 1   6  -1
M  CHG 1  10  -1
M  CHG 1  15  -1
M  END
> <UniqueID>
16

> <SMILES>
O=C(Cn1c([O-])c2c(c1[O-])CCCC2)[N-]c1ccccc1N1CCOCC1

> <Energy>
96.24029196348133

> <Genealogy>
O=C(Cn1c([O-])c2c(c1[O-])CCCC2)[N-]c1ccccc1N1CCOCC1 (protonated)
O=C(Cn1c([O-])c2c(c1[O-])CCCC2)[N-]c1ccccc1N1CCOCC1 (3D coordinates assigned)
O=C(Cn1c([O-])c2c(c1[O-])CCCC2)[N-]c1ccccc1N1CCOCC1 (nonaromatic ring conformer: 96.24029196348133 kcal/mol)

> <smiles>
O=C(Cn1c(O)c2c(c1O)CCCC2)Nc1ccccc1N1CCOCC1

> <score_type>
oracle

> <origin>
adg

> <m_score__min__energy>
-14.710000000000001

> <m_primary>
energy

> <minimizedAffinity>
-7.01572

> <minimizedRMSD>
1.88452

> <CNNscore>
0.1209646314

> <CNNaffinity>
5.2598795891

> <CNN_VS>
0.6362593770

> <CNNaffinity_variance>
0.1472403407

$$$$
25:0


 27 30  0  0  0  0  0  0  0  0999 V2000
   58.3540   26.3695   45.6467 C   0  0  0  0  0  0  0  0  0  0  0  0
   59.1666   25.7723   46.5459 N   0  0  0  0  0  0  0  0  0  0  0  0
   59.4799   26.7561   47.4071 C   0  0  0  0  0  0  0  0  0  0  0  0
   60.2360   26.5767   48.3996 O   0  0  0  0  0  0  0  0  0  0  0  0
   58.9117   27.9421   47.1079 N   0  0  0  0  0  0  0  0  0  0  0  0
   59.0538   29.1915   47.8541 C   0  0  0  0  0  0  0  0  0  0  0  0
   58.1885   27.7112   45.9876 C   0  0  0  0  0  0  0  0  0  0  0  0
   57.3671   28.7231   45.2730 C   0  0  0  0  0  0  0  0  0  0  0  0
   56.1104   28.6833   45.3588 O   0  0  0  0  0  0  0  0  0  0  0  0
   58.0079   29.7399   44.4858 N   0  0  0  0  0  0  0  0  0  0  0  0
   58.3396   30.9313   44.8858 C   0  0  0  0  0  0  0  0  0  0  0  0
   59.1171   31.1821   45.9691 N   0  0  0  0  0  0  0  0  0  0  0  0
   59.2867   32.5196   46.1346 C   0  0  0  0  0  0  0  0  0  0  0  0
   60.0333   33.0991   47.1619 C   0  0  0  0  0  0  0  0  0  0  0  0
   60.1272   34.5000   47.2200 C   0  0  0  0  0  0  0  0  0  0  0  0
   59.4775   35.3000   46.2577 C   0  0  0  0  0  0  0  0  0  0  0  0
   58.7290   34.7063   45.2297 C   0  0  0  0  0  0  0  0  0  0  0  0
   58.6497   33.3156   45.1938 C   0  0  0  0  0  0  0  0  0  0  0  0
   57.8357   32.3393   44.0975 S   0  0  0  0  0  0  0  0  0  0  0  0
   57.7385   25.6523   44.4740 C   0  0  0  0  0  0  0  0  0  0  0  0
   55.9561   21.8673   45.5421 C   0  0  0  0  0  0  0  0  0  0  0  0
   57.1265   21.9036   44.7812 C   0  0  0  0  0  0  0  0  0  0  0  0
   57.7070   23.1300   44.4425 C   0  0  0  0  0  0  0  0  0  0  0  0
   57.1227   24.3348   44.8742 C   0  0  0  0  0  0  0  0  0  0  0  0
   55.9332   24.2904   45.6292 C   0  0  0  0  0  0  0  0  0  0  0  0
   55.3136   25.4649   46.0450 O   0  0  0  0  0  0  0  0  0  0  0  0
   55.3597   23.0589   45.9639 C   0  0  0  0  0  0  0  0  0  0  0  0
 21 22  2  0
 22 23  1  0
 23 24  2  0
 24 20  1  0
 20  1  1  0
  1  2  1  0
  2  3  1  0
  3  4  2  0
  3  5  1  0
  5  6  1  0
  5  7  1  0
  7  8  1  0
  8  9  2  0
  8 10  1  0
 10 11  2  0
 11 12  1  0
 12 13  1  0
 13 14  2  0
 14 15  1  0
 15 16  2  0
 16 17  1  0
 17 18  2  0
 18 19  1  0
 24 25  1  0
 25 26  1  0
 25 27  2  0
 27 21  1  0
  7  1  2  0
 19 11  1  0
 18 13  1  0
M  CHG 1   2  -1
M  CHG 1  12  -1
M  CHG 1  26  -1
M  END
> <UniqueID>
20

> <SMILES>
Cn1c(C(=O)/N=c2\[n-]c3ccccc3s2)c(Cc2ccccc2[O-])[n-]c1=O

> <Energy>
114.12240510423128

> <Genealogy>
Cn1c(C(=O)N=c2[n-]c3ccccc3s2)c(Cc2ccccc2[O-])[n-]c1=O (protonated)
Cn1c(C(=O)/N=c2\[n-]c3ccccc3s2)c(Cc2ccccc2[O-])[n-]c1=O (cis-trans isomerization)
Cn1c(C(=O)/N=c2\[n-]c3ccccc3s2)c(Cc2ccccc2[O-])[n-]c1=O (3D coordinates assigned)
Cn1c(C(=O)/N=c2\[n-]c3ccccc3s2)c(Cc2ccccc2[O-])[n-]c1=O (optimized conformer: 114.12240510423128 kcal/mol)

> <smiles>
Cn1c(C(=O)N=c2[nH]c3ccccc3s2)c(Cc2ccccc2O)[nH]c1=O

> <score_type>
oracle

> <origin>
adg

> <m_score__min__energy>
-14.630000000000001

> <m_primary>
energy

> <minimizedAffinity>
-7.63979

> <minimizedRMSD>
0.74024

> <CNNscore>
0.3997470140

> <CNNaffinity>
6.3282065392

> <CNN_VS>
2.5296816826

> <CNNaffinity_variance>
0.0061090346

$$$$
37:0


 31 33  0  0  0  0  0  0  0  0999 V2000
   57.6749   31.2925   44.8560 C   0  0  0  0  0  0  0  0  0  0  0  0
   58.1040   31.1131   46.1770 C   0  0  0  0  0  0  0  0  0  0  0  0
   58.6830   32.1747   46.8793 C   0  0  0  0  0  0  0  0  0  0  0  0
   58.8387   33.4342   46.2688 C   0  0  0  0  0  0  0  0  0  0  0  0
   58.3988   33.6061   44.9447 C   0  0  0  0  0  0  0  0  0  0  0  0
   57.8220   32.5416   44.2443 C   0  0  0  0  0  0  0  0  0  0  0  0
   56.9833   29.9523   43.9478 S   0  0  0  0  0  0  0  0  0  0  0  0
   56.6341   30.4308   42.5667 O   0  0  0  0  0  0  0  0  0  0  0  0
   55.7366   29.4383   44.6149 O   0  0  0  0  0  0  0  0  0  0  0  0
   58.1372   28.6624   43.8302 N   0  0  0  0  0  0  0  0  0  0  0  0
   57.7841   25.6908   46.1116 C   0  0  0  0  0  0  0  0  0  0  0  0
   58.9353   25.8429   46.8957 C   0  0  0  0  0  0  0  0  0  0  0  0
   59.8078   26.9077   46.6599 C   0  0  0  0  0  0  0  0  0  0  0  0
   59.5357   27.8261   45.6428 C   0  0  0  0  0  0  0  0  0  0  0  0
   58.3897   27.6869   44.8508 C   0  0  0  0  0  0  0  0  0  0  0  0
   57.5216   26.6032   45.0811 C   0  0  0  0  0  0  0  0  0  0  0  0
   55.0967   24.7723   45.8725 N   0  0  0  0  0  0  0  0  0  0  0  0
   56.6850   24.3482   46.4076 S   0  0  0  0  0  0  0  0  0  0  0  0
   57.1562   23.1320   45.6596 O   0  0  0  0  0  0  0  0  0  0  0  0
   56.6507   24.0277   47.8756 O   0  0  0  0  0  0  0  0  0  0  0  0
   54.4607   23.9936   46.0445 H   0  0  0  0  0  0  0  0  0  0  0  0
   59.4577   34.5559   47.0120 C   0  0  0  0  0  0  0  0  0  0  0  0
   60.0543   35.4764   46.3872 O   0  0  0  0  0  0  0  0  0  0  0  0
   59.3807   34.6034   48.4422 N   0  0  0  0  0  0  0  0  0  0  0  0
   60.0284   33.6350   49.3207 C   0  0  0  0  0  0  0  0  0  0  0  0
   61.3305   33.1734   48.7264 C   0  0  0  0  0  0  0  0  0  0  0  0
   62.4237   34.0476   48.6468 C   0  0  0  0  0  0  0  0  0  0  0  0
   63.6289   33.6109   48.0962 C   0  0  0  0  0  0  0  0  0  0  0  0
   63.7324   32.2995   47.6303 C   0  0  0  0  0  0  0  0  0  0  0  0
   62.6662   31.4602   47.7167 N   0  0  0  0  0  0  0  0  0  0  0  0
   61.4816   31.8616   48.2492 C   0  0  0  0  0  0  0  0  0  0  0  0
 17 18  1  0
 18 19  2  0
 18 20  2  0
 18 11  1  0
 11 12  2  0
 12 13  1  0
 13 14  2  0
 14 15  1  0
 15 10  1  0
 10  7  1  0
  7  8  2  0
  7  9  2  0
  7  1  1  0
  1  2  2  0
  2  3  1  0
  3  4  2  0
  4 22  1  0
 22 23  2  0
 22 24  1  0
 24 25  1  0
 25 26  1  0
 26 27  2  0
 27 28  1  0
 28 29  2  0
 29 30  1  0
 30 31  2  0
  4  5  1  0
  5  6  2  0
 15 16  2  0
 16 11  1  0
  6  1  1  0
 31 26  1  0
 17 21  1  0
M  CHG 1  10  -1
M  CHG 1  17  -1
M  CHG 1  24  -1
M  END
> <UniqueID>
30

> <SMILES>
[NH-]S(=O)(=O)c1cccc([N-]S(=O)(=O)c2ccc(C(=O)[N-]Cc3cccnc3)cc2)c1

> <Energy>
49.252127941337164

> <Genealogy>
[NH-]S(=O)(=O)c1cccc([N-]S(=O)(=O)c2ccc(C(=O)[N-]Cc3cccnc3)cc2)c1 (protonated)
[NH-]S(=O)(=O)c1cccc([N-]S(=O)(=O)c2ccc(C(=O)[N-]Cc3cccnc3)cc2)c1 (3D coordinates assigned)
[NH-]S(=O)(=O)c1cccc([N-]S(=O)(=O)c2ccc(C(=O)[N-]Cc3cccnc3)cc2)c1 (optimized conformer: 49.252127941337164 kcal/mol)

> <smiles>
NS(=O)(=O)c1cccc(NS(=O)(=O)c2ccc(C(=O)NCc3cccnc3)cc2)c1

> <score_type>
oracle

> <origin>
adg

> <m_score__min__energy>
-14.460000000000001

> <m_primary>
energy

> <minimizedAffinity>
-7.52269

> <minimizedRMSD>
0.62788

> <CNNscore>
0.7871154547

> <CNNaffinity>
7.2904496193

> <CNN_VS>
5.7384257317

> <CNNaffinity_variance>
0.0331519879

$$$$
48:0


 28 30  0  0  0  0  0  0  0  0999 V2000
   58.8221   26.8797   45.9672 C   0  0  0  0  0  0  0  0  0  0  0  0
   60.1419   27.3583   45.9016 C   0  0  0  0  0  0  0  0  0  0  0  0
   60.4065   28.6112   45.3435 C   0  0  0  0  0  0  0  0  0  0  0  0
   59.3605   29.3993   44.8571 C   0  0  0  0  0  0  0  0  0  0  0  0
   58.0397   28.9383   44.9340 C   0  0  0  0  0  0  0  0  0  0  0  0
   57.7752   27.6838   45.5009 C   0  0  0  0  0  0  0  0  0  0  0  0
   56.7222   29.9430   44.3398 S   0  0  0  0  0  0  0  0  0  0  0  0
   55.4122   29.3058   44.7093 O   0  0  0  0  0  0  0  0  0  0  0  0
   56.8163   30.0683   42.8440 O   0  0  0  0  0  0  0  0  0  0  0  0
   56.8417   31.5221   45.0525 N   0  0  0  0  0  0  0  0  0  0  0  0
   57.9559   32.2523   44.4544 C   0  0  0  0  0  0  0  0  0  0  0  0
   58.6840   33.0057   45.5293 C   0  0  0  0  0  0  0  0  0  0  0  0
   59.0441   32.3641   46.7262 C   0  0  0  0  0  0  0  0  0  0  0  0
   59.7538   33.0581   47.7107 C   0  0  0  0  0  0  0  0  0  0  0  0
   60.1194   34.3921   47.5039 C   0  0  0  0  0  0  0  0  0  0  0  0
   59.7798   35.0313   46.3084 C   0  0  0  0  0  0  0  0  0  0  0  0
   59.0689   34.3418   45.3203 C   0  0  0  0  0  0  0  0  0  0  0  0
   58.5096   25.6047   46.5501 N   0  0  0  0  0  0  0  0  0  0  0  0
   59.0192   23.5887   45.5264 O   0  0  0  0  0  0  0  0  0  0  0  0
   58.1258   24.4207   45.8384 C   0  0  0  0  0  0  0  0  0  0  0  0
   56.7146   24.1288   45.4918 C   0  0  0  0  0  0  0  0  0  0  0  0
   56.3652   23.8425   44.1632 C   0  0  0  0  0  0  0  0  0  0  0  0
   55.0731   23.5839   43.8376 N   0  0  0  0  0  0  0  0  0  0  0  0
   54.1003   23.5843   44.7826 C   0  0  0  0  0  0  0  0  0  0  0  0
   52.9083   23.3463   44.4585 O   0  0  0  0  0  0  0  0  0  0  0  0
   54.4116   23.8351   46.0795 N   0  0  0  0  0  0  0  0  0  0  0  0
   55.6905   24.0993   46.4566 C   0  0  0  0  0  0  0  0  0  0  0  0
   55.9435   24.2923   47.6756 O   0  0  0  0  0  0  0  0  0  0  0  0
 19 20  2  0
 20 18  1  0
 18  1  1  0
  1  2  2  0
  2  3  1  0
  3  4  2  0
  4  5  1  0
  5  7  1  0
  7  8  2  0
  7  9  2  0
  7 10  1  0
 10 11  1  0
 11 12  1  0
 12 13  2  0
 13 14  1  0
 14 15  2  0
 15 16  1  0
 16 17  2  0
  5  6  2  0
 20 21  1  0
 21 22  2  0
 22 23  1  0
 23 24  1  0
 24 25  2  0
 24 26  1  0
 26 27  1  0
 27 28  2  0
  6  1  1  0
 27 21  1  0
 17 12  1  0
M  CHG 1  10  -1
M  CHG 1  18  -1
M  CHG 1  23  -1
M  CHG 1  26  -1
M  END
> <UniqueID>
39

> <SMILES>
O=C([N-]c1cccc(S(=O)(=O)[N-]Cc2ccccc2)c1)c1c[n-]c(=O)[n-]c1=O

> <Energy>
51.1056463513927

> <Genealogy>
O=C([N-]c1cccc(S(=O)(=O)[N-]Cc2ccccc2)c1)c1c[n-]c(=O)[n-]c1=O (protonated)
O=C([N-]c1cccc(S(=O)(=O)[N-]Cc2ccccc2)c1)c1c[n-]c(=O)[n-]c1=O (3D coordinates assigned)
O=C([N-]c1cccc(S(=O)(=O)[N-]Cc2ccccc2)c1)c1c[n-]c(=O)[n-]c1=O (optimized conformer: 51.1056463513927 kcal/mol)

> <smiles>
O=C(Nc1cccc(S(=O)(=O)NCc2ccccc2)c1)c1c[nH]c(=O)[nH]c1=O

> <score_type>
oracle

> <origin>
adg

> <m_score__min__energy>
-16.289999999999999

> <m_primary>
energy

> <minimizedAffinity>
-8.74838

> <minimizedRMSD>
0.95453

> <CNNscore>
0.4624866545

> <CNNaffinity>
6.6997771263

> <CNN_VS>
3.0985574722

> <CNNaffinity_variance>
0.0151998373

$$$$
80:0


 31 33  0  0  0  0  0  0  0  0999 V2000
   62.7222   31.0646   51.3438 C   0  0  0  0  0  0  0  0  0  0  0  0
   63.0993   30.4811   52.5659 C   0  0  0  0  0  0  0  0  0  0  0  0
   62.7140   29.1720   52.8648 C   0  0  0  0  0  0  0  0  0  0  0  0
   61.9226   28.4481   51.9679 C   0  0  0  0  0  0  0  0  0  0  0  0
   61.5096   29.0331   50.7614 C   0  0  0  0  0  0  0  0  0  0  0  0
   61.9514   30.3275   50.4409 C   0  0  0  0  0  0  0  0  0  0  0  0
   60.5749   28.3233   49.8625 C   0  0  0  0  0  0  0  0  0  0  0  0
   60.6321   27.0685   49.7683 O   0  0  0  0  0  0  0  0  0  0  0  0
   59.6163   29.0393   49.0705 N   0  0  0  0  0  0  0  0  0  0  0  0
   59.5133   28.9497   47.6411 C   0  0  0  0  0  0  0  0  0  0  0  0
   60.3004   28.0441   46.9086 C   0  0  0  0  0  0  0  0  0  0  0  0
   60.1564   27.9488   45.5221 C   0  0  0  0  0  0  0  0  0  0  0  0
   59.2316   28.7556   44.8569 C   0  0  0  0  0  0  0  0  0  0  0  0
   58.4579   29.6784   45.5734 C   0  0  0  0  0  0  0  0  0  0  0  0
   58.6100   29.7793   46.9654 C   0  0  0  0  0  0  0  0  0  0  0  0
   57.2672   30.6600   44.7282 S   0  0  0  0  0  0  0  0  0  0  0  0
   55.7606   29.8165   44.6759 N   0  0  0  0  0  0  0  0  0  0  0  0
   57.0788   31.9702   45.4382 O   0  0  0  0  0  0  0  0  0  0  0  0
   57.7411   30.9320   43.3276 O   0  0  0  0  0  0  0  0  0  0  0  0
   55.4407   29.6328   45.6268 H   0  0  0  0  0  0  0  0  0  0  0  0
   63.0641   32.4126   51.0070 N   0  0  0  0  0  0  0  0  0  0  0  0
   62.6386   33.1881   49.5157 S   0  0  0  0  0  0  0  0  0  0  0  0
   62.2780   34.6211   49.7872 O   0  0  0  0  0  0  0  0  0  0  0  0
   63.8306   33.1536   48.6022 O   0  0  0  0  0  0  0  0  0  0  0  0
   59.3551   35.0218   45.9048 C   0  0  0  0  0  0  0  0  0  0  0  0
   60.1389   34.3804   47.0564 C   0  0  0  0  0  0  0  0  0  0  0  0
   61.2936   33.4980   46.5223 C   0  0  0  0  0  0  0  0  0  0  0  0
   61.4704   32.1911   47.3149 C   0  0  0  0  0  0  0  0  0  0  0  0
   61.2828   32.3665   48.7699 N   0  0  0  0  0  0  0  0  0  0  0  0
   59.9837   32.9740   49.1524 C   0  0  0  0  0  0  0  0  0  0  0  0
   59.2023   33.5842   47.9737 C   0  0  0  0  0  0  0  0  0  0  0  0
 25 26  1  0
 26 27  1  0
 27 28  1  0
 28 29  1  0
 29 22  1  0
 22 23  2  0
 22 24  2  0
 22 21  1  0
 21  1  1  0
  1  2  2  0
  2  3  1  0
  3  4  2  0
  4  5  1  0
  5  7  1  0
  7  8  2  0
  7  9  1  0
  9 10  1  0
 10 11  2  0
 11 12  1  0
 12 13  2  0
 13 14  1  0
 14 16  1  0
 16 17  1  0
 16 18  2  0
 16 19  2  0
 14 15  2  0
  5  6  2  0
 29 30  1  0
 30 31  1  0
 31 26  1  0
  6  1  1  0
 15 10  1  0
 17 20  1  0
M  CHG 1   9  -1
M  CHG 1  17  -1
M  CHG 1  21  -1
M  END
> <UniqueID>
67

> <SMILES>
CC1CCN(S(=O)(=O)[N-]c2cccc(C(=O)[N-]c3cccc(S([NH-])(=O)=O)c3)c2)CC1

> <Energy>
64.54013635181617

> <Genealogy>
CC1CCN(S(=O)(=O)[N-]c2cccc(C(=O)[N-]c3cccc(S([NH-])(=O)=O)c3)c2)CC1 (protonated)
CC1CCN(S(=O)(=O)[N-]c2cccc(C(=O)[N-]c3cccc(S([NH-])(=O)=O)c3)c2)CC1 (3D coordinates assigned)
CC1CCN(S(=O)(=O)[N-]c2cccc(C(=O)[N-]c3cccc(S([NH-])(=O)=O)c3)c2)CC1 (nonaromatic ring conformer: 64.54013635181617 kcal/mol)

> <smiles>
CC1CCN(S(=O)(=O)Nc2cccc(C(=O)Nc3cccc(S(N)(=O)=O)c3)c2)CC1

> <score_type>
oracle

> <origin>
adg

> <m_score__min__energy>
-15.35

> <m_primary>
energy

> <minimizedAffinity>
-7.98035

> <minimizedRMSD>
2.07610

> <CNNscore>
0.9414556623

> <CNNaffinity>
7.2333359718

> <CNN_VS>
6.8098649979

> <CNNaffinity_variance>
0.0092890924

$$$$
15:0


 28 30  0  0  0  0  0  0  0  0999 V2000
   58.6289   26.1421   46.9138 C   0  0  0  0  0  0  0  0  0  0  0  0
   57.6103   25.5554   47.6803 C   0  0  0  0  0  0  0  0  0  0  0  0
   57.1711   24.2598   47.3922 C   0  0  0  0  0  0  0  0  0  0  0  0
   57.7602   23.5254   46.3565 C   0  0  0  0  0  0  0  0  0  0  0  0
   58.7718   24.1172   45.5806 C   0  0  0  0  0  0  0  0  0  0  0  0
   59.2115   25.4116   45.8680 C   0  0  0  0  0  0  0  0  0  0  0  0
   58.6777   28.6390   46.4826 C   0  0  0  0  0  0  0  0  0  0  0  0
   59.1976   29.9029   46.8057 C   0  0  0  0  0  0  0  0  0  0  0  0
   60.0971   30.0516   47.8640 C   0  0  0  0  0  0  0  0  0  0  0  0
   60.4897   28.9416   48.6103 C   0  0  0  0  0  0  0  0  0  0  0  0
   59.9923   27.6763   48.2958 C   0  0  0  0  0  0  0  0  0  0  0  0
   59.0972   27.5066   47.2261 C   0  0  0  0  0  0  0  0  0  0  0  0
   56.2760   27.3574   45.5763 N   0  0  0  0  0  0  0  0  0  0  0  0
   57.4918   28.5179   45.1708 S   0  0  0  0  0  0  0  0  0  0  0  0
   58.1663   28.0715   43.9043 O   0  0  0  0  0  0  0  0  0  0  0  0
   56.8427   29.8558   44.9535 O   0  0  0  0  0  0  0  0  0  0  0  0
   55.5987   27.2948   44.8161 H   0  0  0  0  0  0  0  0  0  0  0  0
   57.2640   22.2102   46.0695 N   0  0  0  0  0  0  0  0  0  0  0  0
   55.9049   21.8584   45.7778 C   0  0  0  0  0  0  0  0  0  0  0  0
   55.6230   21.4311   44.6264 O   0  0  0  0  0  0  0  0  0  0  0  0
   54.8030   22.0263   46.7889 C   0  0  0  0  0  0  0  0  0  0  0  0
   53.6065   22.5696   46.1490 N   0  0  0  0  0  0  0  0  0  0  0  0
   52.4536   21.9209   45.8919 C   0  0  0  0  0  0  0  0  0  0  0  0
   52.2043   20.6022   46.2549 O   0  0  0  0  0  0  0  0  0  0  0  0
   51.5661   22.7363   45.2199 C   0  0  0  0  0  0  0  0  0  0  0  0
   52.2142   23.9470   45.0448 C   0  0  0  0  0  0  0  0  0  0  0  0
   53.4608   23.8008   45.6202 C   0  0  0  0  0  0  0  0  0  0  0  0
   54.4439   24.7821   45.6502 O   0  0  0  0  0  0  0  0  0  0  0  0
 13 14  1  0
 14 15  2  0
 14 16  2  0
 14  7  1  0
  7  8  2  0
  8  9  1  0
  9 10  2  0
 10 11  1  0
 11 12  2  0
 12  1  1  0
  1  2  2  0
  2  3  1  0
  3  4  2  0
  4 18  1  0
 18 19  1  0
 19 20  2  0
 19 21  1  0
 21 22  1  0
 22 23  1  0
 23 24  1  0
 23 25  2  0
 25 26  1  0
 26 27  2  0
 27 28  1  0
  4  5  1  0
  5  6  2  0
 12  7  1  0
  6  1  1  0
 27 22  1  0
 13 17  1  0
M  CHG 1  13  -1
M  CHG 1  18  -1
M  CHG 1  24  -1
M  CHG 1  28  -1
M  END
> <UniqueID>
15

> <SMILES>
[NH-]S(=O)(=O)c1ccccc1-c1ccc([N-]C(=O)Cn2c([O-])ccc2[O-])cc1

> <Energy>
82.6402753083654

> <Genealogy>
[NH-]S(=O)(=O)c1ccccc1-c1ccc([N-]C(=O)Cn2c([O-])ccc2[O-])cc1 (protonated)
[NH-]S(=O)(=O)c1ccccc1-c1ccc([N-]C(=O)Cn2c([O-])ccc2[O-])cc1 (3D coordinates assigned)
[NH-]S(=O)(=O)c1ccccc1-c1ccc([N-]C(=O)Cn2c([O-])ccc2[O-])cc1 (optimized conformer: 82.6402753083654 kcal/mol)

> <smiles>
NS(=O)(=O)c1ccccc1-c1ccc(NC(=O)Cn2c(O)ccc2O)cc1

> <score_type>
oracle

> <origin>
adg

> <m_score__min__energy>
-16.699999999999999

> <m_primary>
energy

> <minimizedAffinity>
-6.42360

> <minimizedRMSD>
1.65135

> <CNNscore>
0.3564925492

> <CNNaffinity>
5.6159291267

> <CNN_VS>
2.0020368099

> <CNNaffinity_variance>
0.0583215617

$$$$
29:0


 26 28  0  0  0  0  0  0  0  0999 V2000
   57.1451   28.4951   45.8835 N   0  0  0  0  0  0  0  0  0  0  0  0
   57.3980   29.6459   45.0647 C   0  0  0  0  0  0  0  0  0  0  0  0
   56.8768   29.7469   43.7614 C   0  0  0  0  0  0  0  0  0  0  0  0
   57.1129   30.8913   42.9927 C   0  0  0  0  0  0  0  0  0  0  0  0
   57.8558   31.9480   43.5199 C   0  0  0  0  0  0  0  0  0  0  0  0
   58.3584   31.8676   44.8207 C   0  0  0  0  0  0  0  0  0  0  0  0
   58.1241   30.7276   45.5995 C   0  0  0  0  0  0  0  0  0  0  0  0
   58.7856   30.6639   47.2708 S   0  0  0  0  0  0  0  0  0  0  0  0
   59.7070   29.1567   46.9564 C   0  0  0  0  0  0  0  0  0  0  0  0
   60.3712   28.9829   45.7359 C   0  0  0  0  0  0  0  0  0  0  0  0
   61.0833   27.8055   45.4849 C   0  0  0  0  0  0  0  0  0  0  0  0
   61.1388   26.8033   46.4585 C   0  0  0  0  0  0  0  0  0  0  0  0
   60.4841   26.9777   47.6828 C   0  0  0  0  0  0  0  0  0  0  0  0
   59.7710   28.1541   47.9329 C   0  0  0  0  0  0  0  0  0  0  0  0
   57.9104   26.8326   44.4202 O   0  0  0  0  0  0  0  0  0  0  0  0
   57.4377   27.1333   45.5492 C   0  0  0  0  0  0  0  0  0  0  0  0
   57.1882   26.0568   46.5578 C   0  0  0  0  0  0  0  0  0  0  0  0
   56.8775   24.7885   45.8758 N   0  0  0  0  0  0  0  0  0  0  0  0
   55.5776   24.4740   45.5681 C   0  0  0  0  0  0  0  0  0  0  0  0
   54.5390   25.3479   45.8717 O   0  0  0  0  0  0  0  0  0  0  0  0
   55.2740   23.2628   44.9457 C   0  0  0  0  0  0  0  0  0  0  0  0
   56.3105   22.3810   44.6575 C   0  0  0  0  0  0  0  0  0  0  0  0
   56.0698   21.2810   44.0959 O   0  0  0  0  0  0  0  0  0  0  0  0
   57.5832   22.7072   44.9881 N   0  0  0  0  0  0  0  0  0  0  0  0
   57.8753   23.8879   45.5923 C   0  0  0  0  0  0  0  0  0  0  0  0
   59.0745   24.1387   45.8911 O   0  0  0  0  0  0  0  0  0  0  0  0
 15 16  2  0
 16 17  1  0
 17 18  1  0
 18 19  1  0
 19 20  1  0
 19 21  2  0
 21 22  1  0
 22 23  2  0
 22 24  1  0
 24 25  1  0
 25 26  2  0
 16  1  1  0
  1  2  1  0
  2  3  2  0
  3  4  1  0
  4  5  2  0
  5  6  1  0
  6  7  2  0
  7  8  1  0
  8  9  1  0
  9 10  2  0
 10 11  1  0
 11 12  2  0
 12 13  1  0
 13 14  2  0
 25 18  1  0
  7  2  1  0
 14  9  1  0
M  CHG 1   1  -1
M  CHG 1  20  -1
M  CHG 1  24  -1
M  END
> <UniqueID>
28

> <SMILES>
O=C(Cn1c([O-])cc(=O)[n-]c1=O)[N-]c1ccccc1Sc1ccccc1

> <Energy>
41.914600665604375

> <Genealogy>
O=C(Cn1c([O-])cc(=O)[n-]c1=O)[N-]c1ccccc1Sc1ccccc1 (protonated)
O=C(Cn1c([O-])cc(=O)[n-]c1=O)[N-]c1ccccc1Sc1ccccc1 (3D coordinates assigned)
O=C(Cn1c([O-])cc(=O)[n-]c1=O)[N-]c1ccccc1Sc1ccccc1 (optimized conformer: 41.914600665604375 kcal/mol)

> <smiles>
O=C(Cn1c(O)cc(=O)[nH]c1=O)Nc1ccccc1Sc1ccccc1

> <score_type>
oracle

> <origin>
adg

> <m_score__min__energy>
-15

> <m_primary>
energy

> <minimizedAffinity>
-5.98621

> <minimizedRMSD>
1.06985

> <CNNscore>
0.2972695827

> <CNNaffinity>
5.8160176277

> <CNN_VS>
1.7289251089

> <CNNaffinity_variance>
0.0175461322

$$$$
62:0


 29 33  0  0  0  0  0  0  0  0999 V2000
   58.3772   26.8662   44.9899 C   0  0  0  0  0  0  0  0  0  0  0  0
   58.1749   28.1759   45.1915 C   0  0  0  0  0  0  0  0  0  0  0  0
   57.4202   29.0209   44.3793 C   0  0  0  0  0  0  0  0  0  0  0  0
   57.4387   30.2827   44.8725 N   0  0  0  0  0  0  0  0  0  0  0  0
   58.1914   30.2529   45.9594 N   0  0  0  0  0  0  0  0  0  0  0  0
   58.5207   31.2861   46.7700 C   0  0  0  0  0  0  0  0  0  0  0  0
   58.0518   32.4773   46.5468 N   0  0  0  0  0  0  0  0  0  0  0  0
   59.3585   31.0374   47.8203 N   0  0  0  0  0  0  0  0  0  0  0  0
   59.8567   29.7818   48.0311 C   0  0  0  0  0  0  0  0  0  0  0  0
   60.6611   29.5812   49.0334 N   0  0  0  0  0  0  0  0  0  0  0  0
   59.5065   28.7577   47.1952 N   0  0  0  0  0  0  0  0  0  0  0  0
   58.6531   29.0188   46.1774 C   0  0  0  0  0  0  0  0  0  0  0  0
   57.7281   25.7939   45.7622 C   0  0  0  0  0  0  0  0  0  0  0  0
   58.2970   24.5986   45.9924 N   0  0  0  0  0  0  0  0  0  0  0  0
   57.3288   23.9065   46.6301 C   0  0  0  0  0  0  0  0  0  0  0  0
   57.4910   22.7268   47.0332 O   0  0  0  0  0  0  0  0  0  0  0  0
   56.1676   24.5773   46.7950 N   0  0  0  0  0  0  0  0  0  0  0  0
   56.4326   25.7648   46.2273 C   0  0  0  0  0  0  0  0  0  0  0  0
   55.4933   26.7805   46.0964 O   0  0  0  0  0  0  0  0  0  0  0  0
   58.8088   33.6983   46.8014 C   0  0  0  0  0  0  0  0  0  0  0  0
   60.2072   33.6573   46.2143 C   0  0  0  0  0  0  0  0  0  0  0  0
   59.1227   34.4934   45.5469 C   0  0  0  0  0  0  0  0  0  0  0  0
   60.7544   30.4353   50.2162 C   0  0  0  0  0  0  0  0  0  0  0  0
   59.7064   30.0491   51.2129 C   0  0  0  0  0  0  0  0  0  0  0  0
   59.9158   28.9233   52.4452 S   0  0  0  0  0  0  0  0  0  0  0  0
   58.3335   28.9958   53.0046 C   0  0  0  0  0  0  0  0  0  0  0  0
   57.6959   28.0690   54.3460 Cl  0  0  0  0  0  0  0  0  0  0  0  0
   57.6151   29.8906   52.2249 C   0  0  0  0  0  0  0  0  0  0  0  0
   58.3836   30.4765   51.2132 C   0  0  0  0  0  0  0  0  0  0  0  0
  1 13  1  0
 13 14  1  0
 14 15  1  0
 15 16  2  0
 15 17  1  0
 17 18  1  0
 18 19  1  0
  1  2  2  0
  2  3  1  0
  3  4  2  0
  4  5  1  0
  5  6  1  0
  6  7  2  0
  7 20  1  0
 20 21  1  0
 21 22  1  0
  6  8  1  0
  8  9  1  0
  9 10  2  0
 10 23  1  0
 23 24  1  0
 24 25  1  0
 25 26  1  0
 26 27  1  0
 26 28  2  0
 28 29  1  0
  9 11  1  0
 11 12  2  0
 18 13  2  0
 12  2  1  0
 12  5  1  0
 22 20  1  0
 29 24  2  0
M  CHG 1   8  -1
M  CHG 1  14  -1
M  CHG 1  17  -1
M  CHG 1  19  -1
M  END
> <UniqueID>
55

> <SMILES>
O=c1[n-]c([O-])c(C=c2cnn3/c(=N/C4CC4)[n-]/c(=N/Cc4ccc(Cl)s4)nc23)[n-]1

> <Energy>
407.63898688582736

> <Genealogy>
O=c1[n-]c([O-])c(C=c2cnn3c(=NC4CC4)[n-]c(=NCc4ccc(Cl)s4)nc23)[n-]1 (protonated)
O=c1[n-]c([O-])c(C=c2cnn3/c(=N/C4CC4)[n-]/c(=N/Cc4ccc(Cl)s4)nc23)[n-]1 (cis-trans isomerization)
O=c1[n-]c([O-])c(C=c2cnn3/c(=N/C4CC4)[n-]/c(=N/Cc4ccc(Cl)s4)nc23)[n-]1 (3D coordinates assigned)
O=c1[n-]c([O-])c(C=c2cnn3/c(=N/C4CC4)[n-]/c(=N/Cc4ccc(Cl)s4)nc23)[n-]1 (nonaromatic ring conformer: 407.63898688582736 kcal/mol)

> <smiles>
O=c1[nH]c(O)c(C=c2cnn3c(=NC4CC4)[nH]c(=NCc4ccc(Cl)s4)nc23)[nH]1

> <score_type>
oracle

> <origin>
adg

> <m_score__min__energy>
-18.09

> <m_primary>
energy

> <minimizedAffinity>
-7.89453

> <minimizedRMSD>
1.36757

> <CNNscore>
0.1648961008

> <CNNaffinity>
6.4846172333

> <CNN_VS>
1.0692881346

> <CNNaffinity_variance>
0.0146602811

$$$$
82:0


 26 28  0  0  0  0  0  0  0  0999 V2000
   60.7524   31.3307   52.4342 C   0  0  0  0  0  0  0  0  0  0  0  0
   60.3588   32.3855   51.6743 N   0  0  0  0  0  0  0  0  0  0  0  0
   60.0903   32.2640   50.3450 C   0  0  0  0  0  0  0  0  0  0  0  0
   59.6966   33.3216   49.6917 N   0  0  0  0  0  0  0  0  0  0  0  0
   60.2341   31.0043   49.7306 C   0  0  0  0  0  0  0  0  0  0  0  0
   60.5891   29.8906   50.5037 C   0  0  0  0  0  0  0  0  0  0  0  0
   60.8750   30.0636   51.8630 C   0  0  0  0  0  0  0  0  0  0  0  0
   60.6876   28.5504   49.8930 C   0  0  0  0  0  0  0  0  0  0  0  0
   60.9449   27.5598   50.6249 O   0  0  0  0  0  0  0  0  0  0  0  0
   60.4663   28.3367   48.4921 N   0  0  0  0  0  0  0  0  0  0  0  0
   60.5113   27.0339   47.8355 C   0  0  0  0  0  0  0  0  0  0  0  0
   59.1551   26.7010   47.2892 C   0  0  0  0  0  0  0  0  0  0  0  0
   58.5543   25.4713   47.6027 C   0  0  0  0  0  0  0  0  0  0  0  0
   57.2851   25.1609   47.1057 C   0  0  0  0  0  0  0  0  0  0  0  0
   56.6017   26.0777   46.3018 C   0  0  0  0  0  0  0  0  0  0  0  0
   55.3407   25.7613   45.8103 O   0  0  0  0  0  0  0  0  0  0  0  0
   57.1884   27.3122   45.9969 C   0  0  0  0  0  0  0  0  0  0  0  0
   56.5103   28.2303   45.2022 O   0  0  0  0  0  0  0  0  0  0  0  0
   58.4587   27.6257   46.4930 C   0  0  0  0  0  0  0  0  0  0  0  0
   60.3897   33.9894   48.5851 C   0  0  0  0  0  0  0  0  0  0  0  0
   59.6580   33.8082   47.2757 C   0  0  0  0  0  0  0  0  0  0  0  0
   58.9264   32.6311   47.0370 C   0  0  0  0  0  0  0  0  0  0  0  0
   58.2545   32.4518   45.8228 C   0  0  0  0  0  0  0  0  0  0  0  0
   58.3121   33.4410   44.8384 C   0  0  0  0  0  0  0  0  0  0  0  0
   59.0564   34.6037   45.0578 C   0  0  0  0  0  0  0  0  0  0  0  0
   59.7363   34.7824   46.2666 C   0  0  0  0  0  0  0  0  0  0  0  0
  1  2  1  0
  2  3  1  0
  3  4  2  0
  4 20  1  0
 20 21  1  0
 21 22  2  0
 22 23  1  0
 23 24  2  0
 24 25  1  0
 25 26  2  0
  3  5  1  0
  5  6  2  0
  6  8  1  0
  8  9  2  0
  8 10  1  0
 10 11  1  0
 11 12  1  0
 12 13  2  0
 13 14  1  0
 14 15  2  0
 15 16  1  0
 15 17  1  0
 17 18  1  0
 17 19  2  0
  6  7  1  0
  7  1  2  0
 26 21  1  0
 19 12  1  0
M  CHG 1   2  -1
M  CHG 1  10  -1
M  CHG 1  16  -1
M  CHG 1  18  -1
M  END
> <UniqueID>
73

> <SMILES>
O=C([N-]Cc1ccc([O-])c([O-])c1)c1cc[n-]/c(=N/Cc2ccccc2)c1

> <Energy>
46.950640207102346

> <Genealogy>
O=C([N-]Cc1ccc([O-])c([O-])c1)c1cc[n-]c(=NCc2ccccc2)c1 (protonated)
O=C([N-]Cc1ccc([O-])c([O-])c1)c1cc[n-]/c(=N/Cc2ccccc2)c1 (cis-trans isomerization)
O=C([N-]Cc1ccc([O-])c([O-])c1)c1cc[n-]/c(=N/Cc2ccccc2)c1 (3D coordinates assigned)
O=C([N-]Cc1ccc([O-])c([O-])c1)c1cc[n-]/c(=N/Cc2ccccc2)c1 (optimized conformer: 46.950640207102346 kcal/mol)

> <smiles>
O=C(NCc1ccc(O)c(O)c1)c1cc[nH]c(=NCc2ccccc2)c1

> <score_type>
oracle

> <origin>
adg

> <m_score__min__energy>
-18.899999999999999

> <m_primary>
energy

> <minimizedAffinity>
-6.44543

> <minimizedRMSD>
2.48253

> <CNNscore>
0.4636586607

> <CNNaffinity>
5.9219379425

> <CNN_VS>
2.7457578182

> <CNNaffinity_variance>
0.0164515022

$$$$
10:0


 27 29  0  0  0  0  0  0  0  0999 V2000
   57.2367   29.6184   45.1679 C   0  0  0  0  0  0  0  0  0  0  0  0
   56.0172   29.4855   44.8795 O   0  0  0  0  0  0  0  0  0  0  0  0
   57.7635   30.9393   45.3514 N   0  0  0  0  0  0  0  0  0  0  0  0
   60.9198   32.1232   47.9321 C   0  0  0  0  0  0  0  0  0  0  0  0
   60.5709   30.7688   47.8377 C   0  0  0  0  0  0  0  0  0  0  0  0
   59.5372   30.3656   46.9882 C   0  0  0  0  0  0  0  0  0  0  0  0
   58.8486   31.3147   46.2125 C   0  0  0  0  0  0  0  0  0  0  0  0
   59.1740   32.6696   46.3382 C   0  0  0  0  0  0  0  0  0  0  0  0
   60.2086   33.0736   47.1881 C   0  0  0  0  0  0  0  0  0  0  0  0
   61.9333   31.9788   50.5915 N   0  0  0  0  0  0  0  0  0  0  0  0
   62.2114   32.6299   49.0160 S   0  0  0  0  0  0  0  0  0  0  0  0
   63.5335   32.1385   48.4954 O   0  0  0  0  0  0  0  0  0  0  0  0
   62.2523   34.1296   49.0944 O   0  0  0  0  0  0  0  0  0  0  0  0
   62.6822   32.2733   51.2181 H   0  0  0  0  0  0  0  0  0  0  0  0
   58.0985   28.3946   45.2761 C   0  0  0  0  0  0  0  0  0  0  0  0
   57.5504   27.5072   46.2439 O   0  0  0  0  0  0  0  0  0  0  0  0
   57.4238   26.1436   46.0352 N   0  0  0  0  0  0  0  0  0  0  0  0
   58.3943   25.2099   45.8913 C   0  0  0  0  0  0  0  0  0  0  0  0
   59.7601   25.4653   45.9295 O   0  0  0  0  0  0  0  0  0  0  0  0
   57.8244   23.9656   45.6999 C   0  0  0  0  0  0  0  0  0  0  0  0
   56.4636   24.1459   45.7282 C   0  0  0  0  0  0  0  0  0  0  0  0
   56.2481   25.4934   45.9355 C   0  0  0  0  0  0  0  0  0  0  0  0
   55.0074   26.1108   46.0302 O   0  0  0  0  0  0  0  0  0  0  0  0
   55.4678   23.0449   45.5599 C   0  0  0  0  0  0  0  0  0  0  0  0
   56.1434   21.7040   45.3537 C   0  0  0  0  0  0  0  0  0  0  0  0
   57.4842   21.5258   45.3255 C   0  0  0  0  0  0  0  0  0  0  0  0
   58.4921   22.6447   45.4958 C   0  0  0  0  0  0  0  0  0  0  0  0
 10 11  1  0
 11 12  2  0
 11 13  2  0
 11  4  1  0
  4  5  2  0
  5  6  1  0
  6  7  2  0
  7  3  1  0
  3  1  1  0
  1  2  2  0
  1 15  1  0
 15 16  1  0
 16 17  1  0
 17 18  1  0
 18 19  1  0
 18 20  2  0
 20 21  1  0
 21 22  2  0
 22 23  1  0
 21 24  1  0
 24 25  1  0
 25 26  2  0
 26 27  1  0
  7  8  1  0
  8  9  2  0
  9  4  1  0
 22 17  1  0
 27 20  1  0
 10 14  1  0
M  CHG 1   3  -1
M  CHG 1  10  -1
M  CHG 1  19  -1
M  CHG 1  23  -1
M  END
> <UniqueID>
11

> <SMILES>
[NH-]S(=O)(=O)c1ccc([N-]C(=O)COn2c([O-])c3c(c2[O-])CC=CC3)cc1

> <Energy>
77.68024461009631

> <Genealogy>
[NH-]S(=O)(=O)c1ccc([N-]C(=O)COn2c([O-])c3c(c2[O-])CC=CC3)cc1 (protonated)
[NH-]S(=O)(=O)c1ccc([N-]C(=O)COn2c([O-])c3c(c2[O-])CC=CC3)cc1 (3D coordinates assigned)
[NH-]S(=O)(=O)c1ccc([N-]C(=O)COn2c([O-])c3c(c2[O-])CC=CC3)cc1 (nonaromatic ring conformer: 77.68024461009631 kcal/mol)

> <smiles>
NS(=O)(=O)c1ccc(NC(=O)COn2c(O)c3c(c2O)CC=CC3)cc1

> <score_type>
oracle

> <origin>
adg

> <m_score__min__energy>
-15.029999999999999

> <m_primary>
energy

> <minimizedAffinity>
-7.33969

> <minimizedRMSD>
2.01185

> <CNNscore>
0.2605650425

> <CNNaffinity>
6.1748766899

> <CNN_VS>
1.6089570522

> <CNNaffinity_variance>
0.3071541786

$$$$
21:0


 25 27  0  0  0  0  0  0  0  0999 V2000
   58.9409   28.9329   45.2626 C   0  0  0  0  0  0  0  0  0  0  0  0
   57.7754   28.7258   44.5101 C   0  0  0  0  0  0  0  0  0  0  0  0
   56.9429   29.8009   44.1921 C   0  0  0  0  0  0  0  0  0  0  0  0
   57.2671   31.0903   44.6228 C   0  0  0  0  0  0  0  0  0  0  0  0
   58.4317   31.3162   45.3747 C   0  0  0  0  0  0  0  0  0  0  0  0
   59.2559   30.2275   45.7087 C   0  0  0  0  0  0  0  0  0  0  0  0
   58.7752   32.6803   45.8421 C   0  0  0  0  0  0  0  0  0  0  0  0
   58.6078   33.6574   45.0620 O   0  0  0  0  0  0  0  0  0  0  0  0
   59.3207   32.9085   47.1542 N   0  0  0  0  0  0  0  0  0  0  0  0
   60.3542   33.9396   47.3220 C   0  0  0  0  0  0  0  0  0  0  0  0
   60.8246   34.0399   48.7790 C   0  0  0  0  0  0  0  0  0  0  0  0
   61.0470   32.6416   49.3635 C   0  0  0  0  0  0  0  0  0  0  0  0
   59.7792   31.7625   49.3048 C   0  0  0  0  0  0  0  0  0  0  0  0
   58.7056   32.2880   48.3379 C   0  0  0  0  0  0  0  0  0  0  0  0
   59.8058   27.7659   45.6516 C   0  0  0  0  0  0  0  0  0  0  0  0
   60.0268   27.2696   47.9767 O   0  0  0  0  0  0  0  0  0  0  0  0
   59.3176   27.1859   46.9392 C   0  0  0  0  0  0  0  0  0  0  0  0
   58.0597   26.5013   46.9746 N   0  0  0  0  0  0  0  0  0  0  0  0
   57.7138   25.4097   46.3481 C   0  0  0  0  0  0  0  0  0  0  0  0
   58.7017   24.5352   46.0129 N   0  0  0  0  0  0  0  0  0  0  0  0
   58.4584   23.3670   45.3613 C   0  0  0  0  0  0  0  0  0  0  0  0
   57.1572   23.0303   44.9977 C   0  0  0  0  0  0  0  0  0  0  0  0
   56.1169   23.9063   45.3023 C   0  0  0  0  0  0  0  0  0  0  0  0
   56.3793   25.1105   45.9638 C   0  0  0  0  0  0  0  0  0  0  0  0
   55.3240   25.9887   46.1826 O   0  0  0  0  0  0  0  0  0  0  0  0
 16 17  2  0
 17 15  1  0
 15  1  1  0
  1  2  2  0
  2  3  1  0
  3  4  2  0
  4  5  1  0
  5  7  1  0
  7  8  2  0
  7  9  1  0
  9 10  1  0
 10 11  1  0
 11 12  1  0
 12 13  1  0
 13 14  1  0
  5  6  2  0
 17 18  1  0
 18 19  2  0
 19 20  1  0
 20 21  1  0
 21 22  2  0
 22 23  1  0
 23 24  2  0
 24 25  1  0
  6  1  1  0
 24 19  1  0
 14  9  1  0
M  CHG 1  20  -1
M  CHG 1  25  -1
M  END
> <UniqueID>
22

> <SMILES>
O=C(Cc1cccc(C(=O)N2CCCCC2)c1)N=c1[n-]cccc1[O-]

> <Energy>
60.947541292710916

> <Genealogy>
O=C(Cc1cccc(C(=O)N2CCCCC2)c1)N=c1[n-]cccc1[O-] (protonated)
O=C(Cc1cccc(C(=O)N2CCCCC2)c1)N=c1[n-]cccc1[O-] (3D coordinates assigned)
O=C(Cc1cccc(C(=O)N2CCCCC2)c1)N=c1[n-]cccc1[O-] (nonaromatic ring conformer: 60.947541292710916 kcal/mol)

> <smiles>
O=C(Cc1cccc(C(=O)N2CCCCC2)c1)N=c1[nH]cccc1O

> <score_type>
oracle

> <origin>
adg

> <m_score__min__energy>
-14.720000000000001

> <m_primary>
energy

> <minimizedAffinity>
-8.07792

> <minimizedRMSD>
1.59568

> <CNNscore>
0.2815847993

> <CNNaffinity>
6.3256072998

> <CNN_VS>
1.7811948061

> <CNNaffinity_variance>
0.4488836229

$$$$
2:0


 32 35  0  0  0  0  0  0  0  0999 V2000
   57.9716   31.9037   43.8299 C   0  0  0  0  0  0  0  0  0  0  0  0
   58.3385   31.6463   45.0903 C   0  0  0  0  0  0  0  0  0  0  0  0
   58.3901   32.6127   46.0342 N   0  0  0  0  0  0  0  0  0  0  0  0
   58.7944   32.0135   47.1646 C   0  0  0  0  0  0  0  0  0  0  0  0
   58.9733   32.6220   48.4056 C   0  0  0  0  0  0  0  0  0  0  0  0
   59.3637   31.8177   49.4938 C   0  0  0  0  0  0  0  0  0  0  0  0
   59.5432   30.4266   49.3097 C   0  0  0  0  0  0  0  0  0  0  0  0
   59.3526   29.8394   48.0474 C   0  0  0  0  0  0  0  0  0  0  0  0
   59.0061   30.6672   46.9718 C   0  0  0  0  0  0  0  0  0  0  0  0
   58.7361   30.4057   45.6230 C   0  0  0  0  0  0  0  0  0  0  0  0
   58.8259   29.2394   44.9493 C   0  0  0  0  0  0  0  0  0  0  0  0
   58.1742   33.5659   45.9157 H   0  0  0  0  0  0  0  0  0  0  0  0
   58.5269   27.9151   45.5236 C   0  0  0  0  0  0  0  0  0  0  0  0
   57.2057   27.4544   45.5940 C   0  0  0  0  0  0  0  0  0  0  0  0
   56.1527   28.2556   45.1696 O   0  0  0  0  0  0  0  0  0  0  0  0
   56.9447   26.2152   46.0872 N   0  0  0  0  0  0  0  0  0  0  0  0
   57.9485   25.4016   46.5063 C   0  0  0  0  0  0  0  0  0  0  0  0
   57.6830   24.2612   46.9645 O   0  0  0  0  0  0  0  0  0  0  0  0
   59.2393   25.8151   46.4241 N   0  0  0  0  0  0  0  0  0  0  0  0
   59.5519   27.0443   45.9368 C   0  0  0  0  0  0  0  0  0  0  0  0
   60.7610   27.3902   45.8607 O   0  0  0  0  0  0  0  0  0  0  0  0
   59.6460   32.4453   50.8287 C   0  0  0  0  0  0  0  0  0  0  0  0
   61.3435   33.0004   50.9261 S   0  0  0  0  0  0  0  0  0  0  0  0
   61.6134   33.3951   52.3527 O   0  0  0  0  0  0  0  0  0  0  0  0
   61.5167   34.2138   50.0527 O   0  0  0  0  0  0  0  0  0  0  0  0
   62.4328   31.7134   50.4285 N   0  0  0  0  0  0  0  0  0  0  0  0
   63.3742   31.3476   51.5045 C   0  0  0  0  0  0  0  0  0  0  0  0
   64.4311   32.4513   51.7450 C   0  0  0  0  0  0  0  0  0  0  0  0
   64.5311   33.3744   50.6750 O   0  0  0  0  0  0  0  0  0  0  0  0
   64.5313   32.6911   49.4415 C   0  0  0  0  0  0  0  0  0  0  0  0
   63.1548   32.0500   49.1767 C   0  0  0  0  0  0  0  0  0  0  0  0
   61.8530   30.8968   50.2350 H   0  0  0  0  0  0  0  0  0  0  0  0
  1  2  2  0
  2  3  1  0
  3  4  1  0
  4  5  2  0
  5  6  1  0
  6 22  1  0
 22 23  1  0
 23 24  2  0
 23 25  2  0
 23 26  1  0
 26 27  1  0
 27 28  1  0
 28 29  1  0
 29 30  1  0
 30 31  1  0
  6  7  2  0
  7  8  1  0
  8  9  2  0
  9 10  1  0
 10 11  2  0
 11 13  1  0
 13 14  2  0
 14 15  1  0
 14 16  1  0
 16 17  1  0
 17 18  2  0
 17 19  1  0
 19 20  1  0
 20 21  2  0
 10  2  1  0
 20 13  1  0
  9  4  1  0
 31 26  1  0
  3 12  1  0
 26 32  1  0
M  CHG 1  15  -1
M  CHG 1  16  -1
M  CHG 1  19  -1
M  CHG 1  26   1
M  END
> <UniqueID>
2

> <SMILES>
C=c1[nH]c2cc(CS(=O)(=O)[NH+]3CCOCC3)ccc2c1=Cc1c([O-])[n-]c(=O)[n-]c1=O

> <Energy>
104.24281570588563

> <Genealogy>
C=c1[nH]c2cc(CS(=O)(=O)[NH+]3CCOCC3)ccc2c1=Cc1c([O-])[n-]c(=O)[n-]c1=O (protonated)
C=c1[nH]c2cc(CS(=O)(=O)[NH+]3CCOCC3)ccc2c1=Cc1c([O-])[n-]c(=O)[n-]c1=O (3D coordinates assigned)
C=c1[nH]c2cc(CS(=O)(=O)[NH+]3CCOCC3)ccc2c1=Cc1c([O-])[n-]c(=O)[n-]c1=O (nonaromatic ring conformer: 104.24281570588563 kcal/mol)

> <smiles>
C=c1[nH]c2cc(CS(=O)(=O)N3CCOCC3)ccc2c1=Cc1c(O)[nH]c(=O)[nH]c1=O

> <score_type>
oracle

> <origin>
adg

> <m_score__min__energy>
-14.98

> <m_primary>
energy

> <minimizedAffinity>
-7.09912

> <minimizedRMSD>
1.55922

> <CNNscore>
0.1334293634

> <CNNaffinity>
6.2254147530

> <CNN_VS>
0.8306531310

> <CNNaffinity_variance>
0.0551372580

$$$$
45:0


 28 30  0  0  0  0  0  0  0  0999 V2000
   59.5004   32.6219   47.1533 C   0  0  0  0  0  0  0  0  0  0  0  0
   58.7372   33.7896   46.9767 C   0  0  0  0  0  0  0  0  0  0  0  0
   57.7908   33.8611   45.9514 C   0  0  0  0  0  0  0  0  0  0  0  0
   57.6027   32.7772   45.0907 C   0  0  0  0  0  0  0  0  0  0  0  0
   58.3664   31.6105   45.2473 C   0  0  0  0  0  0  0  0  0  0  0  0
   59.3273   31.5494   46.2697 C   0  0  0  0  0  0  0  0  0  0  0  0
   60.5034   32.5117   48.1748 N   0  0  0  0  0  0  0  0  0  0  0  0
   60.4485   31.6900   49.3500 C   0  0  0  0  0  0  0  0  0  0  0  0
   61.2039   30.6849   49.4449 O   0  0  0  0  0  0  0  0  0  0  0  0
   58.3671   29.9028   50.3826 O   0  0  0  0  0  0  0  0  0  0  0  0
   58.5496   31.1587   50.9599 C   0  0  0  0  0  0  0  0  0  0  0  0
   57.7240   31.5454   52.0280 C   0  0  0  0  0  0  0  0  0  0  0  0
   57.8776   32.7959   52.6280 C   0  0  0  0  0  0  0  0  0  0  0  0
   58.8598   33.6724   52.1676 C   0  0  0  0  0  0  0  0  0  0  0  0
   59.6884   33.3024   51.1056 C   0  0  0  0  0  0  0  0  0  0  0  0
   59.5489   32.0449   50.4831 C   0  0  0  0  0  0  0  0  0  0  0  0
   57.7023   29.3291   50.7094 H   0  0  0  0  0  0  0  0  0  0  0  0
   58.2151   30.4698   44.2798 C   0  0  0  0  0  0  0  0  0  0  0  0
   56.9157   29.7732   44.5272 C   0  0  0  0  0  0  0  0  0  0  0  0
   55.9217   30.0128   43.7896 O   0  0  0  0  0  0  0  0  0  0  0  0
   56.8210   28.8061   45.5805 N   0  0  0  0  0  0  0  0  0  0  0  0
   57.6125   27.7985   45.8290 C   0  0  0  0  0  0  0  0  0  0  0  0
   58.9526   28.0406   45.8599 N   0  0  0  0  0  0  0  0  0  0  0  0
   59.8678   27.0685   46.1103 C   0  0  0  0  0  0  0  0  0  0  0  0
   59.4492   25.7629   46.3558 C   0  0  0  0  0  0  0  0  0  0  0  0
   58.0857   25.4742   46.3544 C   0  0  0  0  0  0  0  0  0  0  0  0
   57.1519   26.4836   46.1051 C   0  0  0  0  0  0  0  0  0  0  0  0
   55.8011   26.1666   46.1785 O   0  0  0  0  0  0  0  0  0  0  0  0
 10 11  1  0
 11 12  2  0
 12 13  1  0
 13 14  2  0
 14 15  1  0
 15 16  2  0
 16  8  1  0
  8  9  2  0
  8  7  1  0
  7  1  1  0
  1  2  2  0
  2  3  1  0
  3  4  2  0
  4  5  1  0
  5 18  1  0
 18 19  1  0
 19 20  2  0
 19 21  1  0
 21 22  2  0
 22 23  1  0
 23 24  1  0
 24 25  2  0
 25 26  1  0
 26 27  2  0
 27 28  1  0
  5  6  2  0
 16 11  1  0
  6  1  1  0
 27 22  1  0
 10 17  1  0
M  CHG 1   7  -1
M  CHG 1  23  -1
M  CHG 1  28  -1
M  END
> <UniqueID>
39

> <SMILES>
O=C(Cc1cccc([N-]C(=O)c2ccccc2O)c1)/N=c1/[n-]cccc1[O-]

> <Energy>
60.15138439067102

> <Genealogy>
O=C(Cc1cccc([N-]C(=O)c2ccccc2O)c1)N=c1[n-]cccc1[O-] (protonated)
O=C(Cc1cccc([N-]C(=O)c2ccccc2O)c1)/N=c1/[n-]cccc1[O-] (cis-trans isomerization)
O=C(Cc1cccc([N-]C(=O)c2ccccc2O)c1)/N=c1/[n-]cccc1[O-] (3D coordinates assigned)
O=C(Cc1cccc([N-]C(=O)c2ccccc2O)c1)/N=c1/[n-]cccc1[O-] (optimized conformer: 60.15138439067102 kcal/mol)

> <smiles>
O=C(Cc1cccc(NC(=O)c2ccccc2O)c1)N=c1[nH]cccc1O

> <score_type>
oracle

> <origin>
adg

> <m_score__min__energy>
-14.75

> <m_primary>
energy

> <minimizedAffinity>
-7.81543

> <minimizedRMSD>
1.03456

> <CNNscore>
0.7943429351

> <CNNaffinity>
6.7350172997

> <CNN_VS>
5.3499135971

> <CNNaffinity_variance>
0.1167469844

$$$$
62:0


 30 32  0  0  0  0  0  0  0  0999 V2000
   58.9107   31.7857   48.9310 C   0  0  0  0  0  0  0  0  0  0  0  0
   59.1580   32.0463   50.2837 C   0  0  0  0  0  0  0  0  0  0  0  0
   60.0593   31.2574   51.0000 C   0  0  0  0  0  0  0  0  0  0  0  0
   60.7257   30.2054   50.3672 C   0  0  0  0  0  0  0  0  0  0  0  0
   60.5105   29.9593   49.0079 C   0  0  0  0  0  0  0  0  0  0  0  0
   59.6306   30.7662   48.2744 C   0  0  0  0  0  0  0  0  0  0  0  0
   57.9374   32.5748   48.2411 N   0  0  0  0  0  0  0  0  0  0  0  0
   57.4139   33.1209   46.0487 O   0  0  0  0  0  0  0  0  0  0  0  0
   58.1826   33.3008   47.0294 C   0  0  0  0  0  0  0  0  0  0  0  0
   59.3285   34.2698   46.8915 C   0  0  0  0  0  0  0  0  0  0  0  0
   60.0487   34.4049   48.1157 O   0  0  0  0  0  0  0  0  0  0  0  0
   61.3447   33.9211   48.3553 C   0  0  0  0  0  0  0  0  0  0  0  0
   61.9786   34.0361   49.6086 C   0  0  0  0  0  0  0  0  0  0  0  0
   63.2749   33.5432   49.7874 C   0  0  0  0  0  0  0  0  0  0  0  0
   63.9469   32.9334   48.7246 C   0  0  0  0  0  0  0  0  0  0  0  0
   63.3223   32.8159   47.4800 C   0  0  0  0  0  0  0  0  0  0  0  0
   62.0250   33.3052   47.2990 C   0  0  0  0  0  0  0  0  0  0  0  0
   59.4680   30.5048   46.4978 S   0  0  0  0  0  0  0  0  0  0  0  0
   60.0645   28.7766   46.5129 C   0  0  0  0  0  0  0  0  0  0  0  0
   59.3735   27.9451   45.4636 C   0  0  0  0  0  0  0  0  0  0  0  0
   59.7624   28.0533   44.2701 O   0  0  0  0  0  0  0  0  0  0  0  0
   58.3228   26.9442   45.7930 C   0  0  0  0  0  0  0  0  0  0  0  0
   56.9458   27.2442   45.7337 C   0  0  0  0  0  0  0  0  0  0  0  0
   56.4923   28.4726   45.2712 O   0  0  0  0  0  0  0  0  0  0  0  0
   56.0311   26.3091   46.0986 N   0  0  0  0  0  0  0  0  0  0  0  0
   56.4089   25.0707   46.4970 C   0  0  0  0  0  0  0  0  0  0  0  0
   55.5413   24.2260   46.8364 O   0  0  0  0  0  0  0  0  0  0  0  0
   57.7238   24.7369   46.5204 N   0  0  0  0  0  0  0  0  0  0  0  0
   58.6819   25.6344   46.1720 C   0  0  0  0  0  0  0  0  0  0  0  0
   59.8913   25.2821   46.2144 O   0  0  0  0  0  0  0  0  0  0  0  0
  8  9  2  0
  9 10  1  0
 10 11  1  0
 11 12  1  0
 12 13  2  0
 13 14  1  0
 14 15  2  0
 15 16  1  0
 16 17  2  0
  9  7  1  0
  7  1  1  0
  1  2  2  0
  2  3  1  0
  3  4  2  0
  4  5  1  0
  5  6  2  0
  6 18  1  0
 18 19  1  0
 19 20  1  0
 20 21  2  0
 20 22  1  0
 22 23  2  0
 23 24  1  0
 23 25  1  0
 25 26  1  0
 26 27  2  0
 26 28  1  0
 28 29  1  0
 29 30  2  0
 17 12  1  0
  6  1  1  0
 29 22  1  0
M  CHG 1   7  -1
M  CHG 1  24  -1
M  CHG 1  25  -1
M  CHG 1  28  -1
M  END
> <UniqueID>
55

> <SMILES>
O=C(COc1ccccc1)[N-]c1ccccc1SCC(=O)c1c([O-])[n-]c(=O)[n-]c1=O

> <Energy>
53.66970201426328

> <Genealogy>
O=C(COc1ccccc1)[N-]c1ccccc1SCC(=O)c1c([O-])[n-]c(=O)[n-]c1=O (protonated)
O=C(COc1ccccc1)[N-]c1ccccc1SCC(=O)c1c([O-])[n-]c(=O)[n-]c1=O (3D coordinates assigned)
O=C(COc1ccccc1)[N-]c1ccccc1SCC(=O)c1c([O-])[n-]c(=O)[n-]c1=O (optimized conformer: 53.66970201426328 kcal/mol)

> <smiles>
O=C(COc1ccccc1)Nc1ccccc1SCC(=O)c1c(O)[nH]c(=O)[nH]c1=O

> <score_type>
oracle

> <origin>
adg

> <m_score__min__energy>
-17.420000000000002

> <m_primary>
energy

> <minimizedAffinity>
-6.72488

> <minimizedRMSD>
1.07077

> <CNNscore>
0.5191900730

> <CNNaffinity>
6.1701188087

> <CNN_VS>
3.2034645081

> <CNNaffinity_variance>
0.0874161124

$$$$
93:0


 31 33  0  0  0  0  0  0  0  0999 V2000
   60.7126   29.1549   47.9494 C   0  0  0  0  0  0  0  0  0  0  0  0
   60.6797   29.3915   49.3365 C   0  0  0  0  0  0  0  0  0  0  0  0
   61.1344   30.6067   49.8582 C   0  0  0  0  0  0  0  0  0  0  0  0
   61.6195   31.6050   49.0057 C   0  0  0  0  0  0  0  0  0  0  0  0
   61.6557   31.3748   47.6255 C   0  0  0  0  0  0  0  0  0  0  0  0
   61.2093   30.1583   47.1002 C   0  0  0  0  0  0  0  0  0  0  0  0
   62.1390   33.1607   49.6482 S   0  0  0  0  0  0  0  0  0  0  0  0
   63.5646   33.4349   49.2546 O   0  0  0  0  0  0  0  0  0  0  0  0
   62.0513   33.1122   51.1479 O   0  0  0  0  0  0  0  0  0  0  0  0
   61.0983   34.4301   49.0637 N   0  0  0  0  0  0  0  0  0  0  0  0
   59.7023   33.9947   48.9875 C   0  0  0  0  0  0  0  0  0  0  0  0
   59.2157   33.9827   47.5641 C   0  0  0  0  0  0  0  0  0  0  0  0
   58.0086   33.3449   47.2273 C   0  0  0  0  0  0  0  0  0  0  0  0
   57.5484   33.3626   45.9095 C   0  0  0  0  0  0  0  0  0  0  0  0
   58.2866   34.0143   44.9173 C   0  0  0  0  0  0  0  0  0  0  0  0
   59.4833   34.6555   45.2445 C   0  0  0  0  0  0  0  0  0  0  0  0
   59.9487   34.6394   46.5624 C   0  0  0  0  0  0  0  0  0  0  0  0
   60.1603   27.9017   47.3762 C   0  0  0  0  0  0  0  0  0  0  0  0
   60.0961   26.8684   48.0943 O   0  0  0  0  0  0  0  0  0  0  0  0
   59.7626   27.8041   46.0038 N   0  0  0  0  0  0  0  0  0  0  0  0
   57.4009   28.0531   45.3510 C   0  0  0  0  0  0  0  0  0  0  0  0
   56.3719   28.8207   44.7851 C   0  0  0  0  0  0  0  0  0  0  0  0
   56.6417   30.0853   44.2570 C   0  0  0  0  0  0  0  0  0  0  0  0
   57.9395   30.5953   44.2932 C   0  0  0  0  0  0  0  0  0  0  0  0
   58.9743   29.8401   44.8504 C   0  0  0  0  0  0  0  0  0  0  0  0
   58.7155   28.5627   45.3779 C   0  0  0  0  0  0  0  0  0  0  0  0
   55.3484   26.1226   45.9397 N   0  0  0  0  0  0  0  0  0  0  0  0
   57.0437   26.4572   46.0178 S   0  0  0  0  0  0  0  0  0  0  0  0
   57.4847   26.4081   47.4527 O   0  0  0  0  0  0  0  0  0  0  0  0
   57.7792   25.4074   45.2315 O   0  0  0  0  0  0  0  0  0  0  0  0
   55.1661   25.1978   46.3294 H   0  0  0  0  0  0  0  0  0  0  0  0
 27 28  1  0
 28 29  2  0
 28 30  2  0
 28 21  1  0
 21 22  2  0
 22 23  1  0
 23 24  2  0
 24 25  1  0
 25 26  2  0
 26 20  1  0
 20 18  1  0
 18 19  2  0
 18  1  1  0
  1  2  2  0
  2  3  1  0
  3  4  2  0
  4  7  1  0
  7  8  2  0
  7  9  2  0
  7 10  1  0
 10 11  1  0
 11 12  1  0
 12 13  2  0
 13 14  1  0
 14 15  2  0
 15 16  1  0
 16 17  2  0
  4  5  1  0
  5  6  2  0
 26 21  1  0
  6  1  1  0
 17 12  1  0
 27 31  1  0
M  CHG 1  10  -1
M  CHG 1  20  -1
M  CHG 1  27  -1
M  END
> <UniqueID>
83

> <SMILES>
[NH-]S(=O)(=O)c1ccccc1[N-]C(=O)c1ccc(S(=O)(=O)[N-]Cc2ccccc2)cc1

> <Energy>
51.04099447633708

> <Genealogy>
[NH-]S(=O)(=O)c1ccccc1[N-]C(=O)c1ccc(S(=O)(=O)[N-]Cc2ccccc2)cc1 (protonated)
[NH-]S(=O)(=O)c1ccccc1[N-]C(=O)c1ccc(S(=O)(=O)[N-]Cc2ccccc2)cc1 (3D coordinates assigned)
[NH-]S(=O)(=O)c1ccccc1[N-]C(=O)c1ccc(S(=O)(=O)[N-]Cc2ccccc2)cc1 (optimized conformer: 51.04099447633708 kcal/mol)

> <smiles>
NS(=O)(=O)c1ccccc1NC(=O)c1ccc(S(=O)(=O)NCc2ccccc2)cc1

> <score_type>
oracle

> <origin>
adg

> <m_score__min__energy>
-15.25

> <m_primary>
energy

> <minimizedAffinity>
-7.87347

> <minimizedRMSD>
0.51301

> <CNNscore>
0.8101099133

> <CNNaffinity>
6.8654704094

> <CNN_VS>
5.5617856979

> <CNNaffinity_variance>
0.0983370170

$$$$
70:0


 29 31  0  0  0  0  0  0  0  0999 V2000
   58.5294   32.7691   45.4078 C   0  0  0  0  0  0  0  0  0  0  0  0
   58.7784   34.0438   44.8639 C   0  0  0  0  0  0  0  0  0  0  0  0
   59.3194   35.0584   45.6582 C   0  0  0  0  0  0  0  0  0  0  0  0
   59.6210   34.8141   46.9992 C   0  0  0  0  0  0  0  0  0  0  0  0
   59.3898   33.5513   47.5533 C   0  0  0  0  0  0  0  0  0  0  0  0
   58.8431   32.5332   46.7589 C   0  0  0  0  0  0  0  0  0  0  0  0
   59.7501   33.2603   49.2556 S   0  0  0  0  0  0  0  0  0  0  0  0
   58.9806   32.0477   49.7011 O   0  0  0  0  0  0  0  0  0  0  0  0
   59.2922   34.4354   50.0757 O   0  0  0  0  0  0  0  0  0  0  0  0
   61.4628   32.9713   49.4860 N   0  0  0  0  0  0  0  0  0  0  0  0
   61.7205   31.6997   50.1840 C   0  0  0  0  0  0  0  0  0  0  0  0
   61.4807   30.4710   49.2755 C   0  0  0  0  0  0  0  0  0  0  0  0
   61.4667   30.7811   47.8923 O   0  0  0  0  0  0  0  0  0  0  0  0
   62.5010   31.6897   47.5866 C   0  0  0  0  0  0  0  0  0  0  0  0
   62.2077   33.0665   48.2110 C   0  0  0  0  0  0  0  0  0  0  0  0
   57.9452   31.6952   44.5702 C   0  0  0  0  0  0  0  0  0  0  0  0
   57.8873   31.8368   43.3177 O   0  0  0  0  0  0  0  0  0  0  0  0
   57.3972   30.5221   45.1875 N   0  0  0  0  0  0  0  0  0  0  0  0
   57.9218   26.8903   45.8640 C   0  0  0  0  0  0  0  0  0  0  0  0
   59.3187   26.8165   45.9406 C   0  0  0  0  0  0  0  0  0  0  0  0
   60.0902   27.9689   45.7677 C   0  0  0  0  0  0  0  0  0  0  0  0
   59.4750   29.1962   45.5136 C   0  0  0  0  0  0  0  0  0  0  0  0
   58.0733   29.2780   45.4180 C   0  0  0  0  0  0  0  0  0  0  0  0
   57.3044   28.1232   45.6170 C   0  0  0  0  0  0  0  0  0  0  0  0
   55.2687   25.8738   46.0733 N   0  0  0  0  0  0  0  0  0  0  0  0
   56.9418   25.4473   46.1096 S   0  0  0  0  0  0  0  0  0  0  0  0
   57.2700   24.8261   47.4379 O   0  0  0  0  0  0  0  0  0  0  0  0
   57.2307   24.4463   45.0254 O   0  0  0  0  0  0  0  0  0  0  0  0
   54.7016   25.0380   46.2156 H   0  0  0  0  0  0  0  0  0  0  0  0
 25 26  1  0
 26 27  2  0
 26 28  2  0
 26 19  1  0
 19 20  2  0
 20 21  1  0
 21 22  2  0
 22 23  1  0
 23 18  1  0
 18 16  1  0
 16 17  2  0
 16  1  1  0
  1  2  2  0
  2  3  1  0
  3  4  2  0
  4  5  1  0
  5  7  1  0
  7  8  2  0
  7  9  2  0
  7 10  1  0
 10 11  1  0
 11 12  1  0
 12 13  1  0
 13 14  1  0
 14 15  1  0
  5  6  2  0
 23 24  2  0
 24 19  1  0
  6  1  1  0
 15 10  1  0
 25 29  1  0
M  CHG 1  18  -1
M  CHG 1  25  -1
M  END
> <UniqueID>
61

> <SMILES>
[NH-]S(=O)(=O)c1cccc([N-]C(=O)c2cccc(S(=O)(=O)N3CCOCC3)c2)c1

> <Energy>
61.11610298987246

> <Genealogy>
[NH-]S(=O)(=O)c1cccc([N-]C(=O)c2cccc(S(=O)(=O)N3CCOCC3)c2)c1 (protonated)
[NH-]S(=O)(=O)c1cccc([N-]C(=O)c2cccc(S(=O)(=O)N3CCOCC3)c2)c1 (3D coordinates assigned)
[NH-]S(=O)(=O)c1cccc([N-]C(=O)c2cccc(S(=O)(=O)N3CCOCC3)c2)c1 (nonaromatic ring conformer: 61.11610298987246 kcal/mol)

> <smiles>
NS(=O)(=O)c1cccc(NC(=O)c2cccc(S(=O)(=O)N3CCOCC3)c2)c1

> <score_type>
oracle

> <origin>
adg

> <m_score__min__energy>
-14.039999999999999

> <m_primary>
energy

> <minimizedAffinity>
-8.76614

> <minimizedRMSD>
0.82312

> <CNNscore>
0.9142090678

> <CNNaffinity>
7.1003098488

> <CNN_VS>
6.4911675453

> <CNNaffinity_variance>
0.0482775867

$$$$
12:0


 29 31  0  0  0  0  0  0  0  0999 V2000
   59.7391   29.4733   48.6730 C   0  0  0  0  0  0  0  0  0  0  0  0
   60.4767   28.5264   49.3959 C   0  0  0  0  0  0  0  0  0  0  0  0
   60.6123   27.2234   48.9171 C   0  0  0  0  0  0  0  0  0  0  0  0
   60.0167   26.8511   47.7083 C   0  0  0  0  0  0  0  0  0  0  0  0
   59.2807   27.7868   46.9617 C   0  0  0  0  0  0  0  0  0  0  0  0
   59.1634   29.1013   47.4467 C   0  0  0  0  0  0  0  0  0  0  0  0
   59.6020   30.8072   49.1863 N   0  0  0  0  0  0  0  0  0  0  0  0
   58.9959   30.9624   49.9465 H   0  0  0  0  0  0  0  0  0  0  0  0
   60.4653   32.1574   48.5166 S   0  0  0  0  0  0  0  0  0  0  0  0
   60.5566   33.2366   49.5590 O   0  0  0  0  0  0  0  0  0  0  0  0
   61.8539   31.7215   48.1446 O   0  0  0  0  0  0  0  0  0  0  0  0
   57.9101   32.5368   45.3958 C   0  0  0  0  0  0  0  0  0  0  0  0
   58.3022   33.7711   44.8405 C   0  0  0  0  0  0  0  0  0  0  0  0
   59.3648   34.4857   45.3966 C   0  0  0  0  0  0  0  0  0  0  0  0
   60.0412   33.9853   46.5112 C   0  0  0  0  0  0  0  0  0  0  0  0
   59.6533   32.7647   47.0790 C   0  0  0  0  0  0  0  0  0  0  0  0
   58.5933   32.0423   46.5141 C   0  0  0  0  0  0  0  0  0  0  0  0
   56.9986   30.4897   44.2865 C   0  0  0  0  0  0  0  0  0  0  0  0
   56.8520   31.7792   44.8722 O   0  0  0  0  0  0  0  0  0  0  0  0
   58.6870   27.4000   45.6538 C   0  0  0  0  0  0  0  0  0  0  0  0
   59.2535   27.7600   44.5877 O   0  0  0  0  0  0  0  0  0  0  0  0
   57.4394   26.6928   45.5594 N   0  0  0  0  0  0  0  0  0  0  0  0
   57.2910   25.3981   45.5936 C   0  0  0  0  0  0  0  0  0  0  0  0
   58.3495   24.5641   45.3798 N   0  0  0  0  0  0  0  0  0  0  0  0
   58.2167   23.2105   45.4080 C   0  0  0  0  0  0  0  0  0  0  0  0
   56.9692   22.6359   45.6528 C   0  0  0  0  0  0  0  0  0  0  0  0
   55.8641   23.4645   45.8615 C   0  0  0  0  0  0  0  0  0  0  0  0
   56.0204   24.8529   45.8316 C   0  0  0  0  0  0  0  0  0  0  0  0
   54.9214   25.6781   46.0484 O   0  0  0  0  0  0  0  0  0  0  0  0
 18 19  1  0
 19 12  1  0
 12 13  2  0
 13 14  1  0
 14 15  2  0
 15 16  1  0
 16  9  1  0
  9 10  2  0
  9 11  2  0
  9  7  1  0
  7  1  1  0
  1  2  2  0
  2  3  1  0
  3  4  2  0
  4  5  1  0
  5 20  1  0
 20 21  2  0
 20 22  1  0
 22 23  2  0
 23 24  1  0
 24 25  1  0
 25 26  2  0
 26 27  1  0
 27 28  2  0
 28 29  1  0
  5  6  2  0
 16 17  2  0
 17 12  1  0
  6  1  1  0
 28 23  1  0
  7  8  1  0
M  CHG 1  24  -1
M  CHG 1  29  -1
M  END
> <UniqueID>
13

> <SMILES>
COc1cccc(S(=O)(=O)Nc2cccc(C(=O)N=c3[n-]cccc3[O-])c2)c1

> <Energy>
54.28115149065287

> <Genealogy>
COc1cccc(S(=O)(=O)Nc2cccc(C(=O)N=c3[n-]cccc3[O-])c2)c1 (protonated)
COc1cccc(S(=O)(=O)Nc2cccc(C(=O)N=c3[n-]cccc3[O-])c2)c1 (3D coordinates assigned)
COc1cccc(S(=O)(=O)Nc2cccc(C(=O)N=c3[n-]cccc3[O-])c2)c1 (optimized conformer: 54.28115149065287 kcal/mol)

> <smiles>
COc1cccc(S(=O)(=O)Nc2cccc(C(=O)N=c3[nH]cccc3O)c2)c1

> <score_type>
oracle

> <origin>
adg

> <m_score__min__energy>
-14.550000000000001

> <m_primary>
energy

> <minimizedAffinity>
-8.73425

> <minimizedRMSD>
0.93735

> <CNNscore>
0.5040184855

> <CNNaffinity>
6.5466113091

> <CNN_VS>
3.2996129990

> <CNNaffinity_variance>
0.0081832297

$$$$
66:0


 30 33  0  0  0  0  0  0  0  0999 V2000
   58.4558   30.8424   45.5678 C   0  0  0  0  0  0  0  0  0  0  0  0
   58.0826   31.1720   44.2526 C   0  0  0  0  0  0  0  0  0  0  0  0
   57.8461   32.5014   43.8993 C   0  0  0  0  0  0  0  0  0  0  0  0
   57.9956   33.5144   44.8436 C   0  0  0  0  0  0  0  0  0  0  0  0
   58.3946   33.2022   46.1463 C   0  0  0  0  0  0  0  0  0  0  0  0
   58.6378   31.8654   46.5154 C   0  0  0  0  0  0  0  0  0  0  0  0
   58.7382   29.4891   45.9495 N   0  0  0  0  0  0  0  0  0  0  0  0
   60.7487   28.6496   45.0881 O   0  0  0  0  0  0  0  0  0  0  0  0
   59.4970   28.5386   45.1915 C   0  0  0  0  0  0  0  0  0  0  0  0
   58.7855   27.4739   44.4198 C   0  0  0  0  0  0  0  0  0  0  0  0
   58.1164   26.5179   45.3586 C   0  0  0  0  0  0  0  0  0  0  0  0
   58.7792   25.0717   45.9083 S   0  0  0  0  0  0  0  0  0  0  0  0
   57.3926   24.6728   46.7738 C   0  0  0  0  0  0  0  0  0  0  0  0
   57.2601   23.6254   47.4573 O   0  0  0  0  0  0  0  0  0  0  0  0
   56.4203   25.5991   46.6543 N   0  0  0  0  0  0  0  0  0  0  0  0
   56.8206   26.6244   45.8585 C   0  0  0  0  0  0  0  0  0  0  0  0
   55.9804   27.6930   45.5652 O   0  0  0  0  0  0  0  0  0  0  0  0
   59.0411   31.5117   47.8134 O   0  0  0  0  0  0  0  0  0  0  0  0
   59.3242   32.4354   48.8650 C   0  0  0  0  0  0  0  0  0  0  0  0
   60.8085   32.5556   49.0540 C   0  0  0  0  0  0  0  0  0  0  0  0
   61.6128   33.1751   48.0951 C   0  0  0  0  0  0  0  0  0  0  0  0
   62.9964   33.1934   48.2807 C   0  0  0  0  0  0  0  0  0  0  0  0
   63.7198   33.7522   47.4082 O   0  0  0  0  0  0  0  0  0  0  0  0
   63.5535   32.6103   49.3930 N   0  0  0  0  0  0  0  0  0  0  0  0
   64.9137   32.6102   49.5773 C   0  0  0  0  0  0  0  0  0  0  0  0
   65.4781   32.0188   50.7102 C   0  0  0  0  0  0  0  0  0  0  0  0
   64.6493   31.4388   51.6679 C   0  0  0  0  0  0  0  0  0  0  0  0
   63.2705   31.4372   51.4799 C   0  0  0  0  0  0  0  0  0  0  0  0
   62.7303   32.0204   50.3305 C   0  0  0  0  0  0  0  0  0  0  0  0
   61.3860   31.9954   50.1460 N   0  0  0  0  0  0  0  0  0  0  0  0
  8  9  2  0
  9 10  1  0
 10 11  1  0
 11 12  1  0
 12 13  1  0
 13 14  2  0
 13 15  1  0
 15 16  1  0
 16 17  1  0
  9  7  1  0
  7  1  1  0
  1  2  2  0
  2  3  1  0
  3  4  2  0
  4  5  1  0
  5  6  2  0
  6 18  1  0
 18 19  1  0
 19 20  1  0
 20 21  2  0
 21 22  1  0
 22 23  2  0
 22 24  1  0
 24 25  1  0
 25 26  2  0
 26 27  1  0
 27 28  2  0
 28 29  1  0
 29 30  2  0
 16 11  2  0
  6  1  1  0
 30 20  1  0
 29 24  1  0
M  CHG 1   7  -1
M  CHG 1  15  -1
M  CHG 1  17  -1
M  END
> <UniqueID>
61

> <SMILES>
O=C(Cc1sc(=O)[n-]c1[O-])[N-]c1ccccc1OCc1cc(=O)n2ccccc2n1

> <Energy>
85.68168270089676

> <Genealogy>
O=C(Cc1sc(=O)[n-]c1[O-])[N-]c1ccccc1OCc1cc(=O)n2ccccc2n1 (protonated)
O=C(Cc1sc(=O)[n-]c1[O-])[N-]c1ccccc1OCc1cc(=O)n2ccccc2n1 (3D coordinates assigned)
O=C(Cc1sc(=O)[n-]c1[O-])[N-]c1ccccc1OCc1cc(=O)n2ccccc2n1 (optimized conformer: 85.68168270089676 kcal/mol)

> <smiles>
O=C(Cc1sc(=O)[nH]c1O)Nc1ccccc1OCc1cc(=O)n2ccccc2n1

> <score_type>
oracle

> <origin>
adg

> <m_score__min__energy>
-17.09

> <m_primary>
energy

> <minimizedAffinity>
-6.96478

> <minimizedRMSD>
0.90181

> <CNNscore>
0.3874534369

> <CNNaffinity>
6.5880751610

> <CNN_VS>
2.5525722504

> <CNNaffinity_variance>
0.0028506108

$$$$
12:0


 32 35  0  0  0  0  0  0  0  0999 V2000
   57.0185   25.1858   46.7493 N   0  0  0  0  0  0  0  0  0  0  0  0
   57.4798   26.4000   46.6907 C   0  0  0  0  0  0  0  0  0  0  0  0
   56.9035   27.3382   45.8899 N   0  0  0  0  0  0  0  0  0  0  0  0
   57.3867   28.6045   45.8558 C   0  0  0  0  0  0  0  0  0  0  0  0
   56.8045   29.4911   45.1013 N   0  0  0  0  0  0  0  0  0  0  0  0
   58.4393   28.9366   46.6465 N   0  0  0  0  0  0  0  0  0  0  0  0
   59.0138   28.0147   47.4629 C   0  0  0  0  0  0  0  0  0  0  0  0
   60.0426   28.3151   48.1985 N   0  0  0  0  0  0  0  0  0  0  0  0
   58.5313   26.7471   47.4770 N   0  0  0  0  0  0  0  0  0  0  0  0
   56.2987   23.3668   45.2541 C   0  0  0  0  0  0  0  0  0  0  0  0
   56.6065   22.2836   44.4162 C   0  0  0  0  0  0  0  0  0  0  0  0
   57.9358   21.9151   44.1967 C   0  0  0  0  0  0  0  0  0  0  0  0
   58.9675   22.6179   44.8195 C   0  0  0  0  0  0  0  0  0  0  0  0
   58.6749   23.6983   45.6549 C   0  0  0  0  0  0  0  0  0  0  0  0
   57.3403   24.0986   45.8620 C   0  0  0  0  0  0  0  0  0  0  0  0
   54.4982   25.5361   45.6900 N   0  0  0  0  0  0  0  0  0  0  0  0
   54.6123   23.8179   45.5218 S   0  0  0  0  0  0  0  0  0  0  0  0
   53.7621   23.3854   44.3596 O   0  0  0  0  0  0  0  0  0  0  0  0
   54.1083   23.1523   46.7696 O   0  0  0  0  0  0  0  0  0  0  0  0
   53.5248   25.7987   45.8448 H   0  0  0  0  0  0  0  0  0  0  0  0
   57.3612   30.7405   44.6565 C   0  0  0  0  0  0  0  0  0  0  0  0
   57.7751   31.6724   45.6189 C   0  0  0  0  0  0  0  0  0  0  0  0
   58.3136   32.9016   45.2281 C   0  0  0  0  0  0  0  0  0  0  0  0
   58.4282   33.2178   43.8716 C   0  0  0  0  0  0  0  0  0  0  0  0
   57.9898   32.3103   42.9046 C   0  0  0  0  0  0  0  0  0  0  0  0
   57.4467   31.0820   43.2909 C   0  0  0  0  0  0  0  0  0  0  0  0
   60.6647   29.6079   48.3212 C   0  0  0  0  0  0  0  0  0  0  0  0
   61.1020   30.1155   49.5610 C   0  0  0  0  0  0  0  0  0  0  0  0
   61.7072   31.3742   49.6319 C   0  0  0  0  0  0  0  0  0  0  0  0
   61.9038   32.1243   48.4691 C   0  0  0  0  0  0  0  0  0  0  0  0
   61.5050   31.6115   47.2316 C   0  0  0  0  0  0  0  0  0  0  0  0
   60.8971   30.3528   47.1571 C   0  0  0  0  0  0  0  0  0  0  0  0
 16 17  1  0
 17 18  2  0
 17 19  2  0
 17 10  1  0
 10 11  2  0
 11 12  1  0
 12 13  2  0
 13 14  1  0
 14 15  2  0
 15  1  1  0
  1  2  2  0
  2  3  1  0
  3  4  1  0
  4  5  2  0
  5 21  1  0
 21 22  2  0
 22 23  1  0
 23 24  2  0
 24 25  1  0
 25 26  2  0
  4  6  1  0
  6  7  1  0
  7  8  2  0
  8 27  1  0
 27 28  2  0
 28 29  1  0
 29 30  2  0
 30 31  1  0
 31 32  2  0
  7  9  1  0
 15 10  1  0
  9  2  1  0
 26 21  1  0
 32 27  1  0
 16 20  1  0
M  CHG 1   3  -1
M  CHG 1   6  -1
M  CHG 1   9  -1
M  CHG 1  16  -1
M  END
> <UniqueID>
13

> <SMILES>
[NH-]S(=O)(=O)c1ccccc1/N=c1\[n-]c(=Nc2ccccc2)[n-]/c(=N\c2ccccc2)[n-]1

> <Energy>
69.57733997812637

> <Genealogy>
[NH-]S(=O)(=O)c1ccccc1N=c1[n-]c(=Nc2ccccc2)[n-]c(=Nc2ccccc2)[n-]1 (protonated)
[NH-]S(=O)(=O)c1ccccc1/N=c1\[n-]c(=Nc2ccccc2)[n-]/c(=N\c2ccccc2)[n-]1 (cis-trans isomerization)
[NH-]S(=O)(=O)c1ccccc1/N=c1\[n-]c(=Nc2ccccc2)[n-]/c(=N\c2ccccc2)[n-]1 (3D coordinates assigned)
[NH-]S(=O)(=O)c1ccccc1/N=c1\[n-]c(=Nc2ccccc2)[n-]/c(=N\c2ccccc2)[n-]1 (optimized conformer: 69.57733997812637 kcal/mol)

> <smiles>
NS(=O)(=O)c1ccccc1N=c1[nH]c(=Nc2ccccc2)[nH]c(=Nc2ccccc2)[nH]1

> <score_type>
oracle

> <origin>
adg

> <m_score__min__energy>
-15.779999999999999

> <m_primary>
energy

> <minimizedAffinity>
-9.33081

> <minimizedRMSD>
0.61225

> <CNNscore>
0.5113813877

> <CNNaffinity>
6.6907997131

> <CNN_VS>
3.4215505123

> <CNNaffinity_variance>
0.1653177291

$$$$
16:0


 26 30  0  0  0  0  0  0  0  0999 V2000
   53.5990   30.2297   51.9697 C   0  0  0  0  0  0  0  0  0  0  0  0
   57.9283   29.0274   53.5002 C   0  0  0  0  0  0  0  0  0  0  0  0
   54.4762   28.4754   53.4768 C   0  0  0  0  0  0  0  0  0  0  0  0
   55.7094   28.1363   53.9216 N   0  0  0  0  0  0  0  0  0  0  0  0
   56.5717   28.9689   53.3599 N   0  0  0  0  0  0  0  0  0  0  0  0
   54.5724   29.5585   52.6024 C   0  0  0  0  0  0  0  0  0  0  0  0
   58.6047   28.2064   54.2527 N   0  0  0  0  0  0  0  0  0  0  0  0
   58.5964   29.9946   52.8133 N   0  0  0  0  0  0  0  0  0  0  0  0
   57.9259   30.8758   52.0112 C   0  0  0  0  0  0  0  0  0  0  0  0
   56.5718   30.7995   51.8860 N   0  0  0  0  0  0  0  0  0  0  0  0
   55.9209   29.8315   52.5746 C   0  0  0  0  0  0  0  0  0  0  0  0
   52.4199   30.7997   52.6428 C   0  0  0  0  0  0  0  0  0  0  0  0
   52.1637   30.6236   53.9521 N   0  0  0  0  0  0  0  0  0  0  0  0
   51.0551   31.3677   54.1565 C   0  0  0  0  0  0  0  0  0  0  0  0
   50.4915   31.4487   55.2792 O   0  0  0  0  0  0  0  0  0  0  0  0
   50.6039   32.0241   53.0672 N   0  0  0  0  0  0  0  0  0  0  0  0
   51.4840   31.6650   52.1199 C   0  0  0  0  0  0  0  0  0  0  0  0
   51.4591   32.1603   50.8226 O   0  0  0  0  0  0  0  0  0  0  0  0
   58.6471   31.8796   51.3025 N   0  0  0  0  0  0  0  0  0  0  0  0
   59.1288   32.1096   49.9291 C   0  0  0  0  0  0  0  0  0  0  0  0
   59.7611   33.4332   50.2054 C   0  0  0  0  0  0  0  0  0  0  0  0
   61.1427   33.3892   50.1219 F   0  0  0  0  0  0  0  0  0  0  0  0
   59.2645   33.1851   51.5921 C   0  0  0  0  0  0  0  0  0  0  0  0
   59.5960   27.2335   53.8021 C   0  0  0  0  0  0  0  0  0  0  0  0
   60.2854   26.5323   54.9585 C   0  0  0  0  0  0  0  0  0  0  0  0
   61.0252   27.5968   54.1609 C   0  0  0  0  0  0  0  0  0  0  0  0
  1 12  1  0
 12 13  1  0
 13 14  1  0
 14 15  2  0
 14 16  1  0
 16 17  1  0
 17 18  1  0
  1  2  2  0
  2  3  1  0
  3  4  2  0
  4  5  1  0
  5  6  1  0
  6  7  2  0
  7 24  1  0
 24 25  1  0
 25 26  1  0
  6  8  1  0
  8  9  2  0
  9 19  1  0
 19 20  1  0
 20 21  1  0
 21 22  1  0
 21 23  1  0
  9 10  1  0
 10 11  2  0
 17 12  2  0
 11  2  1  0
 11  5  1  0
 26 24  1  0
 23 19  1  0
M  CHG 1  13  -1
M  CHG 1  16  -1
M  CHG 1  18  -1
M  END
> <UniqueID>
17

> <SMILES>
O=c1[n-]c([O-])c(/C=c2\cnn3/c(=N\C4CC4)nc(N4CC(F)C4)nc23)[n-]1

> <Energy>
426.6780701519655

> <Genealogy>
O=c1[n-]c([O-])c(C=c2cnn3c(=NC4CC4)nc(N4CC(F)C4)nc23)[n-]1 (protonated)
O=c1[n-]c([O-])c(/C=c2\cnn3/c(=N\C4CC4)nc(N4CC(F)C4)nc23)[n-]1 (cis-trans isomerization)
O=c1[n-]c([O-])c(/C=c2\cnn3/c(=N\C4CC4)nc(N4CC(F)C4)nc23)[n-]1 (3D coordinates assigned)
O=c1[n-]c([O-])c(/C=c2\cnn3/c(=N\C4CC4)nc(N4CC(F)C4)nc23)[n-]1 (nonaromatic ring conformer: 426.6780701519655 kcal/mol)

> <smiles>
O=c1[nH]c(O)c(C=c2cnn3c(=NC4CC4)nc(N4CC(F)C4)nc23)[nH]1

> <score_type>
oracle

> <origin>
adg

> <m_score__min__energy>
-15.49

> <m_primary>
energy

> <minimizedAffinity>
-5.79154

> <minimizedRMSD>
1.00493

> <CNNscore>
0.2349645644

> <CNNaffinity>
4.6904673576

> <CNN_VS>
1.1020935774

> <CNNaffinity_variance>
0.0923769102

$$$$
28:0


 23 25  0  0  0  0  0  0  0  0999 V2000
   57.4127   28.8271   44.1423 C   0  0  0  0  0  0  0  0  0  0  0  0
   58.5332   27.5654   44.1688 S   0  0  0  0  0  0  0  0  0  0  0  0
   57.7217   26.7327   45.3927 C   0  0  0  0  0  0  0  0  0  0  0  0
   58.0480   25.5704   45.8802 N   0  0  0  0  0  0  0  0  0  0  0  0
   56.6176   27.3941   45.7986 N   0  0  0  0  0  0  0  0  0  0  0  0
   56.4572   28.5624   45.1213 C   0  0  0  0  0  0  0  0  0  0  0  0
   55.4030   29.4233   45.3978 O   0  0  0  0  0  0  0  0  0  0  0  0
   58.2710   32.6099   41.8949 C   0  0  0  0  0  0  0  0  0  0  0  0
   58.1110   32.4506   43.2132 C   0  0  0  0  0  0  0  0  0  0  0  0
   58.2908   33.4518   44.1507 C   0  0  0  0  0  0  0  0  0  0  0  0
   58.0253   32.8772   45.3758 C   0  0  0  0  0  0  0  0  0  0  0  0
   58.1865   33.5556   46.6975 C   0  0  0  0  0  0  0  0  0  0  0  0
   57.7108   31.5752   45.2349 N   0  0  0  0  0  0  0  0  0  0  0  0
   57.7423   31.2986   43.9123 C   0  0  0  0  0  0  0  0  0  0  0  0
   57.5101   30.0840   43.3740 C   0  0  0  0  0  0  0  0  0  0  0  0
   57.4980   30.9434   45.9594 H   0  0  0  0  0  0  0  0  0  0  0  0
   57.9514   24.3059   45.2083 C   0  0  0  0  0  0  0  0  0  0  0  0
   58.8844   23.2763   45.4335 C   0  0  0  0  0  0  0  0  0  0  0  0
   58.7378   22.0422   44.7957 C   0  0  0  0  0  0  0  0  0  0  0  0
   57.6504   21.8166   43.9464 C   0  0  0  0  0  0  0  0  0  0  0  0
   56.7002   22.8231   43.7460 C   0  0  0  0  0  0  0  0  0  0  0  0
   55.6106   22.5938   42.9145 O   0  0  0  0  0  0  0  0  0  0  0  0
   56.8451   24.0604   44.3835 C   0  0  0  0  0  0  0  0  0  0  0  0
  8  9  2  0
  9 10  1  0
 10 11  2  0
 11 12  1  0
 11 13  1  0
 13 14  1  0
 14 15  2  0
 15  1  1  0
  1  2  1  0
  2  3  1  0
  3  4  2  0
  4 17  1  0
 17 18  2  0
 18 19  1  0
 19 20  2  0
 20 21  1  0
 21 22  1  0
 21 23  2  0
  3  5  1  0
  5  6  1  0
  6  7  1  0
 14  9  1  0
  6  1  2  0
 23 17  1  0
 13 16  1  0
M  CHG 1   5  -1
M  CHG 1   7  -1
M  CHG 1  22  -1
M  END
> <UniqueID>
28

> <SMILES>
C=c1cc(C)[nH]c1=Cc1s/c(=N\c2cccc([O-])c2)[n-]c1[O-]

> <Energy>
105.96700872113291

> <Genealogy>
C=c1cc(C)[nH]c1=Cc1sc(=Nc2cccc([O-])c2)[n-]c1[O-] (protonated)
C=c1cc(C)[nH]c1=Cc1s/c(=N\c2cccc([O-])c2)[n-]c1[O-] (cis-trans isomerization)
C=c1cc(C)[nH]c1=Cc1s/c(=N\c2cccc([O-])c2)[n-]c1[O-] (3D coordinates assigned)
C=c1cc(C)[nH]c1=Cc1s/c(=N\c2cccc([O-])c2)[n-]c1[O-] (optimized conformer: 105.96700872113291 kcal/mol)

> <smiles>
C=c1cc(C)[nH]c1=Cc1sc(=Nc2cccc(O)c2)[nH]c1O

> <score_type>
oracle

> <origin>
adg

> <m_score__min__energy>
-14.460000000000001

> <m_primary>
energy

> <minimizedAffinity>
-3.97432

> <minimizedRMSD>
0.33467

> <CNNscore>
0.0936781764

> <CNNaffinity>
5.4844260216

> <CNN_VS>
0.5137710571

> <CNNaffinity_variance>
0.1337538809

$$$$
64:0


 24 26  0  0  0  0  0  0  0  0999 V2000
   64.2205   33.8667   50.8715 C   0  0  0  0  0  0  0  0  0  0  0  0
   63.3163   33.3429   50.0369 C   0  0  0  0  0  0  0  0  0  0  0  0
   61.9706   33.7345   50.1098 C   0  0  0  0  0  0  0  0  0  0  0  0
   61.0237   33.1873   49.2386 C   0  0  0  0  0  0  0  0  0  0  0  0
   61.3999   32.2314   48.2681 C   0  0  0  0  0  0  0  0  0  0  0  0
   60.5054   31.6840   47.4116 C   0  0  0  0  0  0  0  0  0  0  0  0
   59.3274   32.2437   47.0393 N   0  0  0  0  0  0  0  0  0  0  0  0
   58.7946   31.3522   46.1878 C   0  0  0  0  0  0  0  0  0  0  0  0
   57.7011   31.5264   45.5882 O   0  0  0  0  0  0  0  0  0  0  0  0
   59.6469   30.2705   46.0650 C   0  0  0  0  0  0  0  0  0  0  0  0
   59.5177   29.1633   45.3208 C   0  0  0  0  0  0  0  0  0  0  0  0
   60.6897   30.5121   46.8259 O   0  0  0  0  0  0  0  0  0  0  0  0
   62.7556   31.8454   48.2050 C   0  0  0  0  0  0  0  0  0  0  0  0
   63.7006   32.3935   49.0774 C   0  0  0  0  0  0  0  0  0  0  0  0
   58.9494   33.1059   47.3273 H   0  0  0  0  0  0  0  0  0  0  0  0
   58.8303   27.9352   45.7733 C   0  0  0  0  0  0  0  0  0  0  0  0
   57.4540   27.7802   45.5608 C   0  0  0  0  0  0  0  0  0  0  0  0
   56.7109   28.7901   44.9615 O   0  0  0  0  0  0  0  0  0  0  0  0
   56.8333   26.6359   45.9493 N   0  0  0  0  0  0  0  0  0  0  0  0
   57.5255   25.6257   46.5326 C   0  0  0  0  0  0  0  0  0  0  0  0
   56.7518   24.2643   46.9910 S   0  0  0  0  0  0  0  0  0  0  0  0
   58.8649   25.7408   46.7229 N   0  0  0  0  0  0  0  0  0  0  0  0
   59.5331   26.8628   46.3500 C   0  0  0  0  0  0  0  0  0  0  0  0
   60.7803   26.9240   46.5161 O   0  0  0  0  0  0  0  0  0  0  0  0
  1  2  2  0
  2  3  1  0
  3  4  2  0
  4  5  1  0
  5  6  2  0
  6  7  1  0
  7  8  1  0
  8  9  2  0
  8 10  1  0
 10 11  2  0
 11 16  1  0
 16 17  2  0
 17 18  1  0
 17 19  1  0
 19 20  1  0
 20 21  2  0
 20 22  1  0
 22 23  1  0
 23 24  2  0
 10 12  1  0
  5 13  1  0
 13 14  2  0
 14  2  1  0
 12  6  1  0
 23 16  1  0
  7 15  1  0
M  CHG 1  18  -1
M  CHG 1  19  -1
M  CHG 1  22  -1
M  END
> <UniqueID>
58

> <SMILES>
C=c1ccc(=c2[nH]c(=O)c(=Cc3c([O-])[n-]c(=S)[n-]c3=O)o2)cc1

> <Energy>
83.12978226837747

> <Genealogy>
C=c1ccc(=c2[nH]c(=O)c(=Cc3c([O-])[n-]c(=S)[n-]c3=O)o2)cc1 (protonated)
C=c1ccc(=c2[nH]c(=O)c(=Cc3c([O-])[n-]c(=S)[n-]c3=O)o2)cc1 (3D coordinates assigned)
C=c1ccc(=c2[nH]c(=O)c(=Cc3c([O-])[n-]c(=S)[n-]c3=O)o2)cc1 (optimized conformer: 83.12978226837747 kcal/mol)

> <smiles>
C=c1ccc(=c2[nH]c(=O)c(=Cc3c(O)[nH]c(=S)[nH]c3=O)o2)cc1

> <score_type>
oracle

> <origin>
adg

> <m_score__min__energy>
-14.890000000000001

> <m_primary>
energy

> <minimizedAffinity>
-8.20634

> <minimizedRMSD>
1.65808

> <CNNscore>
0.2093477696

> <CNNaffinity>
6.4169259071

> <CNN_VS>
1.3433691263

> <CNNaffinity_variance>
0.7485262752

$$$$
82:0


 24 26  0  0  0  0  0  0  0  0999 V2000
   60.0965   26.6281   46.8693 C   0  0  0  0  0  0  0  0  0  0  0  0
   59.1341   27.4306   46.3905 C   0  0  0  0  0  0  0  0  0  0  0  0
   58.1305   27.1093   45.4679 C   0  0  0  0  0  0  0  0  0  0  0  0
   57.7286   25.9309   44.9553 C   0  0  0  0  0  0  0  0  0  0  0  0
   57.5624   28.3261   45.1353 C   0  0  0  0  0  0  0  0  0  0  0  0
   58.1474   29.3098   45.8433 N   0  0  0  0  0  0  0  0  0  0  0  0
   59.0812   28.7701   46.6099 N   0  0  0  0  0  0  0  0  0  0  0  0
   57.2161   24.7878   45.7365 C   0  0  0  0  0  0  0  0  0  0  0  0
   55.9103   24.7880   46.2574 C   0  0  0  0  0  0  0  0  0  0  0  0
   55.0742   25.8833   46.0791 O   0  0  0  0  0  0  0  0  0  0  0  0
   55.4536   23.7043   46.9373 N   0  0  0  0  0  0  0  0  0  0  0  0
   56.2317   22.6055   47.1103 C   0  0  0  0  0  0  0  0  0  0  0  0
   55.7880   21.6155   47.7459 O   0  0  0  0  0  0  0  0  0  0  0  0
   57.4869   22.5727   46.5914 N   0  0  0  0  0  0  0  0  0  0  0  0
   57.9898   23.6304   45.9053 C   0  0  0  0  0  0  0  0  0  0  0  0
   59.1553   23.5622   45.4304 O   0  0  0  0  0  0  0  0  0  0  0  0
   59.8865   29.5581   47.5031 C   0  0  0  0  0  0  0  0  0  0  0  0
   60.8297   30.4597   46.9932 C   0  0  0  0  0  0  0  0  0  0  0  0
   61.5860   31.2477   47.8633 C   0  0  0  0  0  0  0  0  0  0  0  0
   61.3824   31.1415   49.2408 C   0  0  0  0  0  0  0  0  0  0  0  0
   60.4436   30.2761   49.7197 N   0  0  0  0  0  0  0  0  0  0  0  0
   59.6981   29.4967   48.8924 C   0  0  0  0  0  0  0  0  0  0  0  0
   62.1407   31.9285   50.1107 O   0  0  0  0  0  0  0  0  0  0  0  0
   63.5460   31.7694   50.2672 C   0  0  0  0  0  0  0  0  0  0  0  0
  1  2  2  0
  2  3  1  0
  3  4  2  0
  4  8  1  0
  8  9  2  0
  9 10  1  0
  9 11  1  0
 11 12  1  0
 12 13  2  0
 12 14  1  0
 14 15  1  0
 15 16  2  0
  3  5  1  0
  5  6  2  0
  6  7  1  0
  7 17  1  0
 17 18  2  0
 18 19  1  0
 19 20  2  0
 20 23  1  0
 23 24  1  0
 20 21  1  0
 21 22  2  0
  7  2  1  0
 22 17  1  0
 15  8  1  0
M  CHG 1  10  -1
M  CHG 1  11  -1
M  CHG 1  14  -1
M  END
> <UniqueID>
75

> <SMILES>
C=c1c(=Cc2c([O-])[n-]c(=O)[n-]c2=O)cnn1-c1ccc(OC)nc1

> <Energy>
88.09547173767312

> <Genealogy>
C=c1c(=Cc2c([O-])[n-]c(=O)[n-]c2=O)cnn1-c1ccc(OC)nc1 (protonated)
C=c1c(=Cc2c([O-])[n-]c(=O)[n-]c2=O)cnn1-c1ccc(OC)nc1 (3D coordinates assigned)
C=c1c(=Cc2c([O-])[n-]c(=O)[n-]c2=O)cnn1-c1ccc(OC)nc1 (optimized conformer: 88.09547173767312 kcal/mol)

> <smiles>
C=c1c(=Cc2c(O)[nH]c(=O)[nH]c2=O)cnn1-c1ccc(OC)nc1

> <score_type>
oracle

> <origin>
adg

> <m_score__min__energy>
-14.210000000000001

> <m_primary>
energy

> <minimizedAffinity>
-7.61230

> <minimizedRMSD>
2.24681

> <CNNscore>
0.1180076897

> <CNNaffinity>
5.5999584198

> <CNN_VS>
0.6608381271

> <CNNaffinity_variance>
0.5639269352

$$$$
7:0


 28 30  0  0  0  0  0  0  0  0999 V2000
   59.2724   26.6698   46.0173 C   0  0  0  0  0  0  0  0  0  0  0  0
   58.9891   27.9246   45.6170 C   0  0  0  0  0  0  0  0  0  0  0  0
   58.9958   28.3060   44.2909 C   0  0  0  0  0  0  0  0  0  0  0  0
   58.5707   29.5745   44.2057 N   0  0  0  0  0  0  0  0  0  0  0  0
   58.3402   29.9731   45.4771 C   0  0  0  0  0  0  0  0  0  0  0  0
   57.9071   31.2061   45.8046 C   0  0  0  0  0  0  0  0  0  0  0  0
   58.6169   28.9919   46.3813 N   0  0  0  0  0  0  0  0  0  0  0  0
   58.4509   30.1065   43.3860 H   0  0  0  0  0  0  0  0  0  0  0  0
   58.3248   25.5454   46.0195 C   0  0  0  0  0  0  0  0  0  0  0  0
   58.6734   24.2481   46.1043 N   0  0  0  0  0  0  0  0  0  0  0  0
   57.4849   23.6112   46.1961 C   0  0  0  0  0  0  0  0  0  0  0  0
   57.3913   22.3592   46.2803 O   0  0  0  0  0  0  0  0  0  0  0  0
   56.4054   24.4238   46.1996 N   0  0  0  0  0  0  0  0  0  0  0  0
   56.9577   25.6439   46.0996 C   0  0  0  0  0  0  0  0  0  0  0  0
   56.2249   26.8241   46.0878 O   0  0  0  0  0  0  0  0  0  0  0  0
   57.6895   32.3106   44.8044 C   0  0  0  0  0  0  0  0  0  0  0  0
   58.6542   33.4860   45.0189 C   0  0  0  0  0  0  0  0  0  0  0  0
   58.6499   33.9801   46.4658 C   0  0  0  0  0  0  0  0  0  0  0  0
   58.8587   29.2106   47.8231 C   0  0  0  0  0  0  0  0  0  0  0  0
   59.8317   30.3439   48.0356 C   0  0  0  0  0  0  0  0  0  0  0  0
   59.5868   31.3253   49.0082 C   0  0  0  0  0  0  0  0  0  0  0  0
   60.4942   32.3720   49.2011 C   0  0  0  0  0  0  0  0  0  0  0  0
   61.6673   32.4487   48.4323 C   0  0  0  0  0  0  0  0  0  0  0  0
   61.9183   31.4561   47.4687 C   0  0  0  0  0  0  0  0  0  0  0  0
   61.0103   30.4114   47.2752 C   0  0  0  0  0  0  0  0  0  0  0  0
   62.6245   33.5588   48.6378 C   0  0  0  0  0  0  0  0  0  0  0  0
   63.6177   33.6978   47.8754 O   0  0  0  0  0  0  0  0  0  0  0  0
   62.4382   34.4654   49.6745 O   0  0  0  0  0  0  0  0  0  0  0  0
  1  9  1  0
  9 10  1  0
 10 11  1  0
 11 12  2  0
 11 13  1  0
 13 14  1  0
 14 15  1  0
  1  2  2  0
  2  3  1  0
  3  4  2  0
  4  5  1  0
  5  6  2  0
  6 16  1  0
 16 17  1  0
 17 18  1  0
  5  7  1  0
  7 19  1  0
 19 20  1  0
 20 21  2  0
 21 22  1  0
 22 23  2  0
 23 26  1  0
 26 27  2  0
 26 28  1  0
 23 24  1  0
 24 25  2  0
 14  9  2  0
  7  2  1  0
 25 20  1  0
  4  8  1  0
M  CHG 1   4   1
M  CHG 1  10  -1
M  CHG 1  13  -1
M  CHG 1  15  -1
M  CHG 1  28  -1
M  END
> <UniqueID>
6

> <SMILES>
CCC/C=c1\[nH+]cc(=Cc2[n-]c(=O)[n-]c2[O-])n1Cc1ccc(C(=O)[O-])cc1

> <Energy>
116.15991170948125

> <Genealogy>
CCCC=c1[nH+]cc(=Cc2[n-]c(=O)[n-]c2[O-])n1Cc1ccc(C(=O)[O-])cc1 (protonated)
CCC/C=c1\[nH+]cc(=Cc2[n-]c(=O)[n-]c2[O-])n1Cc1ccc(C(=O)[O-])cc1 (cis-trans isomerization)
CCC/C=c1\[nH+]cc(=Cc2[n-]c(=O)[n-]c2[O-])n1Cc1ccc(C(=O)[O-])cc1 (3D coordinates assigned)
CCC/C=c1\[nH+]cc(=Cc2[n-]c(=O)[n-]c2[O-])n1Cc1ccc(C(=O)[O-])cc1 (optimized conformer: 116.15991170948125 kcal/mol)

> <smiles>
CCCC=c1ncc(=Cc2[nH]c(=O)[nH]c2O)n1Cc1ccc(C(=O)O)cc1

> <score_type>
oracle

> <origin>
adg

> <m_score__min__energy>
-14.44

> <m_primary>
energy

> <minimizedAffinity>
-7.80052

> <minimizedRMSD>
1.46845

> <CNNscore>
0.1803651750

> <CNNaffinity>
6.3348484039

> <CNN_VS>
1.1425859928

> <CNNaffinity_variance>
0.1257935315

$$$$
45:0


 30 32  0  0  0  0  0  0  0  0999 V2000
   57.1493   29.6979   44.8282 C   0  0  0  0  0  0  0  0  0  0  0  0
   57.9841   30.7650   45.1373 C   0  0  0  0  0  0  0  0  0  0  0  0
   57.7402   31.3075   43.8947 C   0  0  0  0  0  0  0  0  0  0  0  0
   58.1061   32.3514   43.2946 O   0  0  0  0  0  0  0  0  0  0  0  0
   56.9682   30.2140   43.5622 C   0  0  0  0  0  0  0  0  0  0  0  0
   56.3381   29.8471   42.5366 O   0  0  0  0  0  0  0  0  0  0  0  0
   56.6643   28.5254   45.4911 N   0  0  0  0  0  0  0  0  0  0  0  0
   55.7099   28.4970   45.7309 H   0  0  0  0  0  0  0  0  0  0  0  0
   57.7486   25.0338   46.4455 C   0  0  0  0  0  0  0  0  0  0  0  0
   59.1423   25.2063   46.4177 C   0  0  0  0  0  0  0  0  0  0  0  0
   59.6948   26.4428   46.0901 C   0  0  0  0  0  0  0  0  0  0  0  0
   58.8683   27.5237   45.7940 C   0  0  0  0  0  0  0  0  0  0  0  0
   57.4731   27.3863   45.8311 C   0  0  0  0  0  0  0  0  0  0  0  0
   56.9098   26.1208   46.1172 C   0  0  0  0  0  0  0  0  0  0  0  0
   55.5320   25.9386   46.0697 O   0  0  0  0  0  0  0  0  0  0  0  0
   55.6059   21.9764   45.9489 C   0  0  0  0  0  0  0  0  0  0  0  0
   56.8332   22.7554   45.7909 N   0  0  0  0  0  0  0  0  0  0  0  0
   57.7611   22.4839   44.6870 C   0  0  0  0  0  0  0  0  0  0  0  0
   57.1903   23.7108   46.8070 C   0  0  0  0  0  0  0  0  0  0  0  0
   57.0091   23.4190   48.0187 O   0  0  0  0  0  0  0  0  0  0  0  0
   58.8098   31.1639   46.2322 N   0  0  0  0  0  0  0  0  0  0  0  0
   58.8360   32.7730   46.8780 S   0  0  0  0  0  0  0  0  0  0  0  0
   59.7148   33.6293   46.0087 O   0  0  0  0  0  0  0  0  0  0  0  0
   57.4447   33.3402   46.8755 O   0  0  0  0  0  0  0  0  0  0  0  0
   59.5092   32.7778   48.5068 C   0  0  0  0  0  0  0  0  0  0  0  0
   58.9380   31.9741   49.5018 C   0  0  0  0  0  0  0  0  0  0  0  0
   59.4578   31.9853   50.7980 C   0  0  0  0  0  0  0  0  0  0  0  0
   60.5502   32.7957   51.1078 C   0  0  0  0  0  0  0  0  0  0  0  0
   61.1352   33.5882   50.1145 C   0  0  0  0  0  0  0  0  0  0  0  0
   60.6241   33.5706   48.8148 C   0  0  0  0  0  0  0  0  0  0  0  0
 16 17  1  0
 17 18  1  0
 17 19  1  0
 19 20  2  0
 19  9  1  0
  9 10  2  0
 10 11  1  0
 11 12  2  0
 12 13  1  0
 13  7  1  0
  7  1  1  0
  1  2  2  0
  2 21  1  0
 21 22  1  0
 22 23  2  0
 22 24  2  0
 22 25  1  0
 25 26  2  0
 26 27  1  0
 27 28  2  0
 28 29  1  0
 29 30  2  0
  2  3  1  0
  3  4  2  0
  3  5  1  0
  5  6  2  0
 13 14  2  0
 14 15  1  0
 14  9  1  0
  5  1  1  0
 30 25  1  0
  7  8  1  0
M  CHG 1  15  -1
M  CHG 1  21  -1
M  END
> <UniqueID>
39

> <SMILES>
CN(C)C(=O)c1cccc(Nc2c([N-]S(=O)(=O)c3ccccc3)c(=O)c2=O)c1[O-]

> <Energy>
49.44822502667927

> <Genealogy>
CN(C)C(=O)c1cccc(Nc2c([N-]S(=O)(=O)c3ccccc3)c(=O)c2=O)c1[O-] (protonated)
CN(C)C(=O)c1cccc(Nc2c([N-]S(=O)(=O)c3ccccc3)c(=O)c2=O)c1[O-] (3D coordinates assigned)
CN(C)C(=O)c1cccc(Nc2c([N-]S(=O)(=O)c3ccccc3)c(=O)c2=O)c1[O-] (optimized conformer: 49.44822502667927 kcal/mol)

> <smiles>
CN(C)C(=O)c1cccc(Nc2c(NS(=O)(=O)c3ccccc3)c(=O)c2=O)c1O

> <score_type>
oracle

> <origin>
adg

> <m_score__min__energy>
-14.859999999999999

> <m_primary>
energy

> <minimizedAffinity>
-8.56429

> <minimizedRMSD>
1.29542

> <CNNscore>
0.6957091689

> <CNNaffinity>
6.2462697029

> <CNN_VS>
4.3455872536

> <CNNaffinity_variance>
0.1028610095

$$$$
67:0


 30 33  0  0  0  0  0  0  0  0999 V2000
   57.2665   30.1323   54.1440 C   0  0  0  0  0  0  0  0  0  0  0  0
   57.8778   29.2307   53.2570 C   0  0  0  0  0  0  0  0  0  0  0  0
   58.8789   29.6651   52.3836 C   0  0  0  0  0  0  0  0  0  0  0  0
   59.3009   31.0040   52.3923 C   0  0  0  0  0  0  0  0  0  0  0  0
   58.6968   31.9034   53.2865 C   0  0  0  0  0  0  0  0  0  0  0  0
   57.6946   31.4706   54.1590 C   0  0  0  0  0  0  0  0  0  0  0  0
   60.3198   31.4564   51.4797 N   0  0  0  0  0  0  0  0  0  0  0  0
   60.6773   32.8771   51.3845 C   0  0  0  0  0  0  0  0  0  0  0  0
   60.6611   33.3454   49.9148 C   0  0  0  0  0  0  0  0  0  0  0  0
   60.8125   32.2291   48.9445 N   0  0  0  0  0  0  0  0  0  0  0  0
   61.7190   31.1868   49.4615 C   0  0  0  0  0  0  0  0  0  0  0  0
   61.0535   30.4884   50.6533 C   0  0  0  0  0  0  0  0  0  0  0  0
   61.2768   32.7184   47.6312 C   0  0  0  0  0  0  0  0  0  0  0  0
   60.1112   32.9376   46.7016 C   0  0  0  0  0  0  0  0  0  0  0  0
   59.1992   31.9005   46.4407 C   0  0  0  0  0  0  0  0  0  0  0  0
   58.1367   32.1046   45.5552 C   0  0  0  0  0  0  0  0  0  0  0  0
   57.9795   33.3401   44.9211 C   0  0  0  0  0  0  0  0  0  0  0  0
   58.8881   34.3732   45.1697 C   0  0  0  0  0  0  0  0  0  0  0  0
   59.9517   34.1734   46.0551 C   0  0  0  0  0  0  0  0  0  0  0  0
   56.3432   29.8212   56.3043 O   0  0  0  0  0  0  0  0  0  0  0  0
   56.2026   29.6618   55.0626 C   0  0  0  0  0  0  0  0  0  0  0  0
   54.9881   29.0707   54.5802 N   0  0  0  0  0  0  0  0  0  0  0  0
   54.0556   29.6664   53.6659 C   0  0  0  0  0  0  0  0  0  0  0  0
   54.3740   29.7219   52.3079 C   0  0  0  0  0  0  0  0  0  0  0  0
   53.5070   30.2815   51.4249 N   0  0  0  0  0  0  0  0  0  0  0  0
   52.3293   30.8114   51.8427 C   0  0  0  0  0  0  0  0  0  0  0  0
   51.5374   31.3198   51.0091 O   0  0  0  0  0  0  0  0  0  0  0  0
   52.0085   30.7985   53.1619 N   0  0  0  0  0  0  0  0  0  0  0  0
   52.8441   30.2513   54.0838 C   0  0  0  0  0  0  0  0  0  0  0  0
   52.5318   30.2970   55.3023 O   0  0  0  0  0  0  0  0  0  0  0  0
 20 21  2  0
 21 22  1  0
 22 23  1  0
 23 24  2  0
 24 25  1  0
 25 26  1  0
 26 27  2  0
 26 28  1  0
 28 29  1  0
 29 30  2  0
 21  1  1  0
  1  2  2  0
  2  3  1  0
  3  4  2  0
  4  7  1  0
  7  8  1  0
  8  9  1  0
  9 10  1  0
 10 13  1  0
 13 14  1  0
 14 15  2  0
 15 16  1  0
 16 17  2  0
 17 18  1  0
 18 19  2  0
 10 11  1  0
 11 12  1  0
  4  5  1  0
  5  6  2  0
 29 23  1  0
  6  1  1  0
 12  7  1  0
 19 14  1  0
M  CHG 1  22  -1
M  CHG 1  25  -1
M  CHG 1  28  -1
M  END
> <UniqueID>
61

> <SMILES>
O=C([N-]c1c[n-]c(=O)[n-]c1=O)c1ccc(N2CCN(Cc3ccccc3)CC2)cc1

> <Energy>
73.54094133304051

> <Genealogy>
O=C([N-]c1c[n-]c(=O)[n-]c1=O)c1ccc(N2CCN(Cc3ccccc3)CC2)cc1 (protonated)
O=C([N-]c1c[n-]c(=O)[n-]c1=O)c1ccc(N2CCN(Cc3ccccc3)CC2)cc1 (3D coordinates assigned)
O=C([N-]c1c[n-]c(=O)[n-]c1=O)c1ccc(N2CCN(Cc3ccccc3)CC2)cc1 (nonaromatic ring conformer: 73.54094133304051 kcal/mol)

> <smiles>
O=C(Nc1c[nH]c(=O)[nH]c1=O)c1ccc(N2CCN(Cc3ccccc3)CC2)cc1

> <score_type>
oracle

> <origin>
adg

> <m_score__min__energy>
-15.210000000000001

> <m_primary>
energy

> <minimizedAffinity>
-7.33933

> <minimizedRMSD>
2.40186

> <CNNscore>
0.1482406706

> <CNNaffinity>
5.3337321281

> <CNN_VS>
0.7906759977

> <CNNaffinity_variance>
0.3241984546

$$$$
17:0


 25 27  0  0  0  0  0  0  0  0999 V2000
   57.8303   26.6610   46.5134 C   0  0  0  0  0  0  0  0  0  0  0  0
   59.1382   26.3161   46.8730 C   0  0  0  0  0  0  0  0  0  0  0  0
   60.2153   27.0986   46.4504 C   0  0  0  0  0  0  0  0  0  0  0  0
   59.9918   28.2448   45.6836 C   0  0  0  0  0  0  0  0  0  0  0  0
   58.6877   28.6283   45.3499 C   0  0  0  0  0  0  0  0  0  0  0  0
   57.6077   27.8265   45.7585 C   0  0  0  0  0  0  0  0  0  0  0  0
   56.7466   25.8389   46.9731 N   0  0  0  0  0  0  0  0  0  0  0  0
   54.7254   25.4161   45.9202 O   0  0  0  0  0  0  0  0  0  0  0  0
   55.8943   25.0183   46.1623 C   0  0  0  0  0  0  0  0  0  0  0  0
   56.3285   23.7064   45.6378 C   0  0  0  0  0  0  0  0  0  0  0  0
   56.9088   22.7377   46.4696 C   0  0  0  0  0  0  0  0  0  0  0  0
   57.2970   21.5188   45.9077 C   0  0  0  0  0  0  0  0  0  0  0  0
   57.8298   20.6329   46.6251 O   0  0  0  0  0  0  0  0  0  0  0  0
   57.0955   21.2887   44.5848 N   0  0  0  0  0  0  0  0  0  0  0  0
   56.5167   22.2288   43.7936 C   0  0  0  0  0  0  0  0  0  0  0  0
   56.3326   21.9944   42.5708 O   0  0  0  0  0  0  0  0  0  0  0  0
   56.1355   23.4212   44.3215 N   0  0  0  0  0  0  0  0  0  0  0  0
   58.4955   29.8014   44.5470 N   0  0  0  0  0  0  0  0  0  0  0  0
   57.7611   30.9744   44.9215 C   0  0  0  0  0  0  0  0  0  0  0  0
   56.5057   30.9633   44.8168 O   0  0  0  0  0  0  0  0  0  0  0  0
   58.4315   32.2069   45.3737 C   0  0  0  0  0  0  0  0  0  0  0  0
   58.3635   33.4600   44.7702 C   0  0  0  0  0  0  0  0  0  0  0  0
   59.0945   34.4407   45.4514 C   0  0  0  0  0  0  0  0  0  0  0  0
   59.7294   33.9724   46.5935 C   0  0  0  0  0  0  0  0  0  0  0  0
   59.3796   32.3372   46.7572 S   0  0  0  0  0  0  0  0  0  0  0  0
  8  9  2  0
  9  7  1  0
  7  1  1  0
  1  2  2  0
  2  3  1  0
  3  4  2  0
  4  5  1  0
  5 18  1  0
 18 19  1  0
 19 20  2  0
 19 21  1  0
 21 22  2  0
 22 23  1  0
 23 24  2  0
 24 25  1  0
  5  6  2  0
  9 10  1  0
 10 11  2  0
 11 12  1  0
 12 13  2  0
 12 14  1  0
 14 15  1  0
 15 16  2  0
 15 17  1  0
  6  1  1  0
 17 10  1  0
 25 21  1  0
M  CHG 1   7  -1
M  CHG 1  14  -1
M  CHG 1  17  -1
M  CHG 1  18  -1
M  END
> <UniqueID>
17

> <SMILES>
O=C([N-]c1cccc([N-]C(=O)c2cccs2)c1)c1cc(=O)[n-]c(=O)[n-]1

> <Energy>
73.69004425395418

> <Genealogy>
O=C([N-]c1cccc([N-]C(=O)c2cccs2)c1)c1cc(=O)[n-]c(=O)[n-]1 (protonated)
O=C([N-]c1cccc([N-]C(=O)c2cccs2)c1)c1cc(=O)[n-]c(=O)[n-]1 (3D coordinates assigned)
O=C([N-]c1cccc([N-]C(=O)c2cccs2)c1)c1cc(=O)[n-]c(=O)[n-]1 (optimized conformer: 73.69004425395418 kcal/mol)

> <smiles>
O=C(Nc1cccc(NC(=O)c2cccs2)c1)c1cc(=O)[nH]c(=O)[nH]1

> <score_type>
oracle

> <origin>
adg

> <m_score__min__energy>
-14.75

> <m_primary>
energy

> <minimizedAffinity>
-8.28242

> <minimizedRMSD>
1.12658

> <CNNscore>
0.4615733325

> <CNNaffinity>
6.5795149803

> <CNN_VS>
3.0369286537

> <CNNaffinity_variance>
0.2923018634

$$$$
55:0


 30 33  0  0  0  0  0  0  0  0999 V2000
   57.7026   25.4981   44.7403 C   0  0  0  0  0  0  0  0  0  0  0  0
   58.1275   26.7402   45.0413 C   0  0  0  0  0  0  0  0  0  0  0  0
   57.9804   27.8136   44.1780 C   0  0  0  0  0  0  0  0  0  0  0  0
   58.4372   28.9307   44.8458 C   0  0  0  0  0  0  0  0  0  0  0  0
   58.4398   30.3181   44.2774 C   0  0  0  0  0  0  0  0  0  0  0  0
   58.9064   28.5899   46.0676 N   0  0  0  0  0  0  0  0  0  0  0  0
   58.7542   27.2459   46.1932 C   0  0  0  0  0  0  0  0  0  0  0  0
   59.2951   26.5368   47.1947 C   0  0  0  0  0  0  0  0  0  0  0  0
   57.1167   24.5388   45.6906 C   0  0  0  0  0  0  0  0  0  0  0  0
   57.7718   23.4908   46.2246 N   0  0  0  0  0  0  0  0  0  0  0  0
   56.8901   22.9992   47.1230 C   0  0  0  0  0  0  0  0  0  0  0  0
   57.1367   21.9855   47.8270 O   0  0  0  0  0  0  0  0  0  0  0  0
   55.7316   23.6850   47.2140 N   0  0  0  0  0  0  0  0  0  0  0  0
   55.8989   24.6640   46.3102 C   0  0  0  0  0  0  0  0  0  0  0  0
   54.9574   25.6559   46.0630 O   0  0  0  0  0  0  0  0  0  0  0  0
   59.4944   29.4907   47.0238 C   0  0  0  0  0  0  0  0  0  0  0  0
   58.8565   29.7417   48.2466 C   0  0  0  0  0  0  0  0  0  0  0  0
   59.4284   30.6179   49.1739 C   0  0  0  0  0  0  0  0  0  0  0  0
   60.6516   31.2485   48.8907 C   0  0  0  0  0  0  0  0  0  0  0  0
   61.2837   31.0038   47.6612 C   0  0  0  0  0  0  0  0  0  0  0  0
   60.7104   30.1268   46.7357 C   0  0  0  0  0  0  0  0  0  0  0  0
   61.2508   32.2244   49.8696 C   0  0  0  0  0  0  0  0  0  0  0  0
   60.4144   33.5018   49.9650 C   0  0  0  0  0  0  0  0  0  0  0  0
   60.5353   34.2751   48.7295 N   0  0  0  0  0  0  0  0  0  0  0  0
   59.7848   34.1575   47.6725 C   0  0  0  0  0  0  0  0  0  0  0  0
   58.5803   33.5373   47.7967 N   0  0  0  0  0  0  0  0  0  0  0  0
   57.7363   33.3712   46.7430 C   0  0  0  0  0  0  0  0  0  0  0  0
   58.0942   33.8436   45.4797 C   0  0  0  0  0  0  0  0  0  0  0  0
   59.3218   34.4848   45.3153 C   0  0  0  0  0  0  0  0  0  0  0  0
   60.1751   34.6479   46.4081 C   0  0  0  0  0  0  0  0  0  0  0  0
  1  9  1  0
  9 10  1  0
 10 11  1  0
 11 12  2  0
 11 13  1  0
 13 14  1  0
 14 15  1  0
  1  2  2  0
  2  3  1  0
  3  4  2  0
  4  5  1  0
  4  6  1  0
  6 16  1  0
 16 17  2  0
 17 18  1  0
 18 19  2  0
 19 22  1  0
 22 23  1  0
 23 24  1  0
 24 25  2  0
 25 26  1  0
 26 27  1  0
 27 28  2  0
 28 29  1  0
 29 30  2  0
 19 20  1  0
 20 21  2  0
  6  7  1  0
  7  8  2  0
 14  9  2  0
  7  2  1  0
 21 16  1  0
 30 25  1  0
M  CHG 1  10  -1
M  CHG 1  13  -1
M  CHG 1  15  -1
M  CHG 1  26  -1
M  END
> <UniqueID>
53

> <SMILES>
C=c1c(=Cc2[n-]c(=O)[n-]c2[O-])cc(C)n1-c1ccc(CC/N=c2\cccc[n-]2)cc1

> <Energy>
126.98611677730635

> <Genealogy>
C=c1c(=Cc2[n-]c(=O)[n-]c2[O-])cc(C)n1-c1ccc(CCN=c2cccc[n-]2)cc1 (protonated)
C=c1c(=Cc2[n-]c(=O)[n-]c2[O-])cc(C)n1-c1ccc(CC/N=c2\cccc[n-]2)cc1 (cis-trans isomerization)
C=c1c(=Cc2[n-]c(=O)[n-]c2[O-])cc(C)n1-c1ccc(CC/N=c2\cccc[n-]2)cc1 (3D coordinates assigned)
C=c1c(=Cc2[n-]c(=O)[n-]c2[O-])cc(C)n1-c1ccc(CC/N=c2\cccc[n-]2)cc1 (optimized conformer: 126.98611677730635 kcal/mol)

> <smiles>
C=c1c(=Cc2[nH]c(=O)[nH]c2O)cc(C)n1-c1ccc(CCN=c2cccc[nH]2)cc1

> <score_type>
oracle

> <origin>
adg

> <m_score__min__energy>
-16.719999999999999

> <m_primary>
energy

> <minimizedAffinity>
-9.50758

> <minimizedRMSD>
0.70353

> <CNNscore>
0.3465439975

> <CNNaffinity>
6.9931912422

> <CNN_VS>
2.4234485626

> <CNNaffinity_variance>
0.0851104483

$$$$
72:0


 27 28  0  0  0  0  0  0  0  0999 V2000
   59.1997   31.1035   48.7529 O   0  0  0  0  0  0  0  0  0  0  0  0
   59.2773   29.7214   48.9672 C   0  0  0  0  0  0  0  0  0  0  0  0
   58.9196   29.2282   50.0722 O   0  0  0  0  0  0  0  0  0  0  0  0
   59.7225   28.8621   47.8517 C   0  0  0  0  0  0  0  0  0  0  0  0
   59.7825   27.5211   47.8658 C   0  0  0  0  0  0  0  0  0  0  0  0
   58.9724   26.6261   47.0203 C   0  0  0  0  0  0  0  0  0  0  0  0
   59.5883   25.5544   46.3609 C   0  0  0  0  0  0  0  0  0  0  0  0
   58.8271   24.6730   45.5877 C   0  0  0  0  0  0  0  0  0  0  0  0
   57.4414   24.8365   45.4880 C   0  0  0  0  0  0  0  0  0  0  0  0
   56.7063   23.9440   44.7080 O   0  0  0  0  0  0  0  0  0  0  0  0
   56.8148   25.8878   46.1756 C   0  0  0  0  0  0  0  0  0  0  0  0
   55.4358   26.0483   46.1109 O   0  0  0  0  0  0  0  0  0  0  0  0
   57.5780   26.7778   46.9390 C   0  0  0  0  0  0  0  0  0  0  0  0
   57.1417   23.2482   44.2561 H   0  0  0  0  0  0  0  0  0  0  0  0
   60.3414   31.9541   48.6408 C   0  0  0  0  0  0  0  0  0  0  0  0
   60.6820   32.2251   47.1732 C   0  0  0  0  0  0  0  0  0  0  0  0
   57.7198   31.4585   44.8944 C   0  0  0  0  0  0  0  0  0  0  0  0
   57.1360   32.7266   44.7702 C   0  0  0  0  0  0  0  0  0  0  0  0
   57.6947   33.8236   45.4297 C   0  0  0  0  0  0  0  0  0  0  0  0
   58.8391   33.6633   46.2122 C   0  0  0  0  0  0  0  0  0  0  0  0
   59.4470   32.4034   46.3275 C   0  0  0  0  0  0  0  0  0  0  0  0
   58.8781   31.3020   45.6667 C   0  0  0  0  0  0  0  0  0  0  0  0
   55.5206   29.6522   44.9015 N   0  0  0  0  0  0  0  0  0  0  0  0
   57.0039   30.0534   44.1118 S   0  0  0  0  0  0  0  0  0  0  0  0
   57.9531   28.8934   44.2027 O   0  0  0  0  0  0  0  0  0  0  0  0
   56.7257   30.3450   42.6632 O   0  0  0  0  0  0  0  0  0  0  0  0
   55.1042   28.8382   44.4495 H   0  0  0  0  0  0  0  0  0  0  0  0
 23 24  1  0
 24 25  2  0
 24 26  2  0
 24 17  1  0
 17 18  2  0
 18 19  1  0
 19 20  2  0
 20 21  1  0
 21 16  1  0
 16 15  1  0
 15  1  1  0
  1  2  1  0
  2  3  2  0
  2  4  1  0
  4  5  2  0
  5  6  1  0
  6  7  2  0
  7  8  1  0
  8  9  2  0
  9 10  1  0
  9 11  1  0
 11 12  1  0
 11 13  2  0
 21 22  2  0
 22 17  1  0
 13  6  1  0
 23 27  1  0
 10 14  1  0
M  CHG 1  12  -1
M  CHG 1  23  -1
M  END
> <UniqueID>
68

> <SMILES>
[NH-]S(=O)(=O)c1cccc(CCOC(=O)C=Cc2ccc(O)c([O-])c2)c1

> <Energy>
41.195042996531086

> <Genealogy>
[NH-]S(=O)(=O)c1cccc(CCOC(=O)C=Cc2ccc(O)c([O-])c2)c1 (protonated)
[NH-]S(=O)(=O)c1cccc(CCOC(=O)C=Cc2ccc(O)c([O-])c2)c1 (3D coordinates assigned)
[NH-]S(=O)(=O)c1cccc(CCOC(=O)C=Cc2ccc(O)c([O-])c2)c1 (optimized conformer: 41.195042996531086 kcal/mol)

> <smiles>
NS(=O)(=O)c1cccc(CCOC(=O)C=Cc2ccc(O)c(O)c2)c1

> <score_type>
oracle

> <origin>
adg

> <m_score__min__energy>
-14.390000000000001

> <m_primary>
energy

> <minimizedAffinity>
-7.80810

> <minimizedRMSD>
0.60085

> <CNNscore>
0.8868829608

> <CNNaffinity>
6.7968201637

> <CNN_VS>
6.0279841423

> <CNNaffinity_variance>
0.0410706513

$$$$
26:0


 25 27  0  0  0  0  0  0  0  0999 V2000
   54.6916   29.0398   54.4781 C   0  0  0  0  0  0  0  0  0  0  0  0
   55.3272   27.7831   54.4584 C   0  0  0  0  0  0  0  0  0  0  0  0
   54.5820   26.5998   54.5867 C   0  0  0  0  0  0  0  0  0  0  0  0
   55.1770   25.3260   54.5657 C   0  0  0  0  0  0  0  0  0  0  0  0
   56.4241   25.1948   54.4300 O   0  0  0  0  0  0  0  0  0  0  0  0
   54.4022   24.2171   54.6939 N   0  0  0  0  0  0  0  0  0  0  0  0
   53.0555   24.3121   54.8413 C   0  0  0  0  0  0  0  0  0  0  0  0
   52.4571   25.5303   54.8670 N   0  0  0  0  0  0  0  0  0  0  0  0
   53.1845   26.6715   54.7439 C   0  0  0  0  0  0  0  0  0  0  0  0
   52.5487   27.9130   54.7765 C   0  0  0  0  0  0  0  0  0  0  0  0
   53.2901   29.0958   54.6593 C   0  0  0  0  0  0  0  0  0  0  0  0
   55.4597   30.2526   54.3355 N   0  0  0  0  0  0  0  0  0  0  0  0
   55.2519   31.0074   54.9325 H   0  0  0  0  0  0  0  0  0  0  0  0
   58.2602   29.8028   53.8050 C   0  0  0  0  0  0  0  0  0  0  0  0
   56.7297   30.4548   53.1699 S   0  0  0  0  0  0  0  0  0  0  0  0
   56.3713   29.6959   51.9243 O   0  0  0  0  0  0  0  0  0  0  0  0
   56.8824   31.9100   52.8251 O   0  0  0  0  0  0  0  0  0  0  0  0
   52.4022   30.6587   54.7094 S   0  0  0  0  0  0  0  0  0  0  0  0
   52.1079   30.6554   52.9419 C   0  0  0  0  0  0  0  0  0  0  0  0
   52.6329   29.4644   51.8742 S   0  0  0  0  0  0  0  0  0  0  0  0
   51.9455   30.2454   50.5504 C   0  0  0  0  0  0  0  0  0  0  0  0
   52.0023   29.8169   49.3691 O   0  0  0  0  0  0  0  0  0  0  0  0
   51.3192   31.3925   50.8885 N   0  0  0  0  0  0  0  0  0  0  0  0
   51.4095   31.6200   52.2252 C   0  0  0  0  0  0  0  0  0  0  0  0
   50.8378   32.7389   52.8175 O   0  0  0  0  0  0  0  0  0  0  0  0
 14 15  1  0
 15 16  2  0
 15 17  2  0
 15 12  1  0
 12  1  1  0
  1  2  2  0
  2  3  1  0
  3  4  1  0
  4  5  2  0
  4  6  1  0
  6  7  2  0
  7  8  1  0
  8  9  1  0
  9 10  1  0
 10 11  2  0
 11 18  1  0
 18 19  1  0
 19 20  1  0
 20 21  1  0
 21 22  2  0
 21 23  1  0
 23 24  1  0
 24 25  1  0
 11  1  1  0
 24 19  2  0
  9  3  2  0
 12 13  1  0
M  CHG 1   8  -1
M  CHG 1  23  -1
M  CHG 1  25  -1
M  END
> <UniqueID>
24

> <SMILES>
CS(=O)(=O)Nc1cc2c(=O)nc[n-]c2cc1Sc1sc(=O)[n-]c1[O-]

> <Energy>
65.98458214961138

> <Genealogy>
CS(=O)(=O)Nc1cc2c(=O)nc[n-]c2cc1Sc1sc(=O)[n-]c1[O-] (protonated)
CS(=O)(=O)Nc1cc2c(=O)nc[n-]c2cc1Sc1sc(=O)[n-]c1[O-] (3D coordinates assigned)
CS(=O)(=O)Nc1cc2c(=O)nc[n-]c2cc1Sc1sc(=O)[n-]c1[O-] (optimized conformer: 65.98458214961138 kcal/mol)

> <smiles>
CS(=O)(=O)Nc1cc2c(=O)nc[nH]c2cc1Sc1sc(=O)[nH]c1O

> <score_type>
oracle

> <origin>
adg

> <m_score__min__energy>
-15

> <m_primary>
energy

> <minimizedAffinity>
-3.59490

> <minimizedRMSD>
1.10479

> <CNNscore>
0.1850994080

> <CNNaffinity>
5.0251693726

> <CNN_VS>
0.9301558733

> <CNNaffinity_variance>
0.0864168480

$$$$
42:0


 30 34  0  0  0  0  0  0  0  0999 V2000
   58.1962   26.7910   44.7784 C   0  0  0  0  0  0  0  0  0  0  0  0
   57.8962   28.0816   44.9745 C   0  0  0  0  0  0  0  0  0  0  0  0
   56.9006   28.8601   44.3819 C   0  0  0  0  0  0  0  0  0  0  0  0
   56.9231   30.1092   44.9069 N   0  0  0  0  0  0  0  0  0  0  0  0
   57.8933   30.1380   45.8074 N   0  0  0  0  0  0  0  0  0  0  0  0
   58.2998   31.1715   46.6010 C   0  0  0  0  0  0  0  0  0  0  0  0
   57.7550   32.3538   46.5687 N   0  0  0  0  0  0  0  0  0  0  0  0
   59.3299   30.9428   47.4622 N   0  0  0  0  0  0  0  0  0  0  0  0
   59.9346   29.7186   47.5299 C   0  0  0  0  0  0  0  0  0  0  0  0
   60.9138   29.5407   48.3648 N   0  0  0  0  0  0  0  0  0  0  0  0
   59.5090   28.7007   46.7250 N   0  0  0  0  0  0  0  0  0  0  0  0
   58.4847   28.9423   45.8729 C   0  0  0  0  0  0  0  0  0  0  0  0
   57.6198   25.6839   45.5627 C   0  0  0  0  0  0  0  0  0  0  0  0
   58.2330   24.4989   45.7237 N   0  0  0  0  0  0  0  0  0  0  0  0
   57.3349   23.7736   46.4261 C   0  0  0  0  0  0  0  0  0  0  0  0
   57.5566   22.5889   46.7884 O   0  0  0  0  0  0  0  0  0  0  0  0
   56.1799   24.4146   46.7004 N   0  0  0  0  0  0  0  0  0  0  0  0
   56.3699   25.6190   46.1378 C   0  0  0  0  0  0  0  0  0  0  0  0
   55.3976   26.6123   46.1068 O   0  0  0  0  0  0  0  0  0  0  0  0
   57.4622   33.1437   45.3765 C   0  0  0  0  0  0  0  0  0  0  0  0
   58.5896   33.1685   44.3597 C   0  0  0  0  0  0  0  0  0  0  0  0
   58.3486   34.3696   45.2616 C   0  0  0  0  0  0  0  0  0  0  0  0
   61.1454   30.3730   49.5413 C   0  0  0  0  0  0  0  0  0  0  0  0
   62.0066   31.5421   49.1619 C   0  0  0  0  0  0  0  0  0  0  0  0
   62.6180   31.5893   47.8969 C   0  0  0  0  0  0  0  0  0  0  0  0
   63.3919   32.6952   47.5318 C   0  0  0  0  0  0  0  0  0  0  0  0
   63.5515   33.7635   48.4187 C   0  0  0  0  0  0  0  0  0  0  0  0
   62.9323   33.7311   49.6714 C   0  0  0  0  0  0  0  0  0  0  0  0
   63.0810   34.7711   50.5279 F   0  0  0  0  0  0  0  0  0  0  0  0
   62.1575   32.6266   50.0418 C   0  0  0  0  0  0  0  0  0  0  0  0
  1 13  1  0
 13 14  1  0
 14 15  1  0
 15 16  2  0
 15 17  1  0
 17 18  1  0
 18 19  1  0
  1  2  2  0
  2  3  1  0
  3  4  2  0
  4  5  1  0
  5  6  1  0
  6  7  2  0
  7 20  1  0
 20 21  1  0
 21 22  1  0
  6  8  1  0
  8  9  1  0
  9 10  2  0
 10 23  1  0
 23 24  1  0
 24 25  2  0
 25 26  1  0
 26 27  2  0
 27 28  1  0
 28 29  1  0
 28 30  2  0
  9 11  1  0
 11 12  2  0
 18 13  2  0
 12  2  1  0
 12  5  1  0
 22 20  1  0
 30 24  1  0
M  CHG 1   8  -1
M  CHG 1  14  -1
M  CHG 1  17  -1
M  CHG 1  19  -1
M  END
> <UniqueID>
39

> <SMILES>
O=c1[n-]c([O-])c(C=c2cnn3/c(=N\C4CC4)[n-]c(=NCc4cccc(F)c4)nc23)[n-]1

> <Energy>
388.0192515057896

> <Genealogy>
O=c1[n-]c([O-])c(C=c2cnn3c(=NC4CC4)[n-]c(=NCc4cccc(F)c4)nc23)[n-]1 (protonated)
O=c1[n-]c([O-])c(C=c2cnn3/c(=N\C4CC4)[n-]c(=NCc4cccc(F)c4)nc23)[n-]1 (cis-trans isomerization)
O=c1[n-]c([O-])c(C=c2cnn3/c(=N\C4CC4)[n-]c(=NCc4cccc(F)c4)nc23)[n-]1 (3D coordinates assigned)
O=c1[n-]c([O-])c(C=c2cnn3/c(=N\C4CC4)[n-]c(=NCc4cccc(F)c4)nc23)[n-]1 (nonaromatic ring conformer: 388.0192515057896 kcal/mol)

> <smiles>
O=c1[nH]c(O)c(C=c2cnn3c(=NC4CC4)[nH]c(=NCc4cccc(F)c4)nc23)[nH]1

> <score_type>
oracle

> <origin>
adg

> <m_score__min__energy>
-17.719999999999999

> <m_primary>
energy

> <minimizedAffinity>
-8.80707

> <minimizedRMSD>
0.51674

> <CNNscore>
0.4270524085

> <CNNaffinity>
6.8619151115

> <CNN_VS>
2.9303972721

> <CNNaffinity_variance>
0.1272898167

$$$$
45:0


 28 31  0  0  0  0  0  0  0  0999 V2000
   59.2309   27.3928   46.8495 C   0  0  0  0  0  0  0  0  0  0  0  0
   59.2853   28.7152   46.3845 C   0  0  0  0  0  0  0  0  0  0  0  0
   58.2016   29.2744   45.6947 C   0  0  0  0  0  0  0  0  0  0  0  0
   57.0182   28.5345   45.5448 C   0  0  0  0  0  0  0  0  0  0  0  0
   55.9149   29.1070   44.9167 O   0  0  0  0  0  0  0  0  0  0  0  0
   56.9459   27.2161   46.0241 C   0  0  0  0  0  0  0  0  0  0  0  0
   55.7836   26.4595   45.8687 O   0  0  0  0  0  0  0  0  0  0  0  0
   58.0504   26.6470   46.6731 C   0  0  0  0  0  0  0  0  0  0  0  0
   57.9646   25.3428   47.1499 O   0  0  0  0  0  0  0  0  0  0  0  0
   55.0386   26.8287   45.4367 H   0  0  0  0  0  0  0  0  0  0  0  0
   58.2661   30.6751   45.2532 C   0  0  0  0  0  0  0  0  0  0  0  0
   58.3223   30.9069   44.0176 O   0  0  0  0  0  0  0  0  0  0  0  0
   58.2904   31.7900   46.1602 N   0  0  0  0  0  0  0  0  0  0  0  0
   59.3688   32.3248   47.0024 C   0  0  0  0  0  0  0  0  0  0  0  0
   60.6053   31.4094   46.8048 C   0  0  0  0  0  0  0  0  0  0  0  0
   61.7911   31.9102   47.6550 C   0  0  0  0  0  0  0  0  0  0  0  0
   61.3909   31.8990   49.1456 C   0  0  0  0  0  0  0  0  0  0  0  0
   60.1709   32.8202   49.3577 C   0  0  0  0  0  0  0  0  0  0  0  0
   60.5329   34.2592   48.9264 C   0  0  0  0  0  0  0  0  0  0  0  0
   60.9370   34.2706   47.4346 C   0  0  0  0  0  0  0  0  0  0  0  0
   62.1552   33.3470   47.2260 C   0  0  0  0  0  0  0  0  0  0  0  0
   59.7525   33.7673   46.5768 C   0  0  0  0  0  0  0  0  0  0  0  0
   58.9837   32.3135   48.5063 C   0  0  0  0  0  0  0  0  0  0  0  0
   60.4107   26.8137   47.5844 C   0  0  0  0  0  0  0  0  0  0  0  0
   60.4880   27.3875   48.9633 C   0  0  0  0  0  0  0  0  0  0  0  0
   60.8895   26.6706   49.9197 O   0  0  0  0  0  0  0  0  0  0  0  0
   59.8233   29.2193   50.4864 C   0  0  0  0  0  0  0  0  0  0  0  0
   60.0682   28.7019   49.1833 O   0  0  0  0  0  0  0  0  0  0  0  0
 27 28  1  0
 28 25  1  0
 25 26  2  0
 25 24  1  0
 24  1  1  0
  1  2  2  0
  2  3  1  0
  3 11  1  0
 11 12  2  0
 11 13  1  0
 14 13  1  0
 14 15  1  0
 16 15  1  0
 16 17  1  0
 18 17  1  0
 18 19  1  0
 20 19  1  0
 20 21  1  0
 20 22  1  0
 18 23  1  0
  3  4  2  0
  4  5  1  0
  4  6  1  0
  6  7  1  0
  6  8  2  0
  8  9  1  0
  8  1  1  0
 22 14  1  0
 23 14  1  0
 21 16  1  0
  7 10  1  0
M  CHG 1   5  -1
M  CHG 1   9  -1
M  CHG 1  13  -1
M  END
> <UniqueID>
42

> <SMILES>
COC(=O)Cc1cc(C(=O)[N-]C23CC4CC(CC(C4)C2)C3)c([O-])c(O)c1[O-]

> <Energy>
54.83900275425474

> <Genealogy>
COC(=O)Cc1cc(C(=O)[N-]C23CC4CC(CC(C4)C2)C3)c([O-])c(O)c1[O-] (protonated)
COC(=O)Cc1cc(C(=O)[N-]C23CC4CC(CC(C4)C2)C3)c([O-])c(O)c1[O-] (3D coordinates assigned)
COC(=O)Cc1cc(C(=O)[N-]C23CC4CC(CC(C4)C2)C3)c([O-])c(O)c1[O-] (nonaromatic ring conformer: 54.83900275425474 kcal/mol)

> <smiles>
COC(=O)Cc1cc(C(=O)NC23CC4CC(CC(C4)C2)C3)c(O)c(O)c1O

> <score_type>
oracle

> <origin>
adg

> <m_score__min__energy>
-15.56

> <m_primary>
energy

> <minimizedAffinity>
-7.23309

> <minimizedRMSD>
1.30893

> <CNNscore>
0.9193492532

> <CNNaffinity>
7.0989308357

> <CNN_VS>
6.5263967514

> <CNNaffinity_variance>
0.3937152326

$$$$
57:0


 31 33  0  0  0  0  0  0  0  0999 V2000
   57.9307   31.3469   45.1388 C   0  0  0  0  0  0  0  0  0  0  0  0
   57.9754   32.4342   44.2464 C   0  0  0  0  0  0  0  0  0  0  0  0
   58.6024   33.6271   44.6161 C   0  0  0  0  0  0  0  0  0  0  0  0
   59.1909   33.7482   45.8764 C   0  0  0  0  0  0  0  0  0  0  0  0
   59.1585   32.6741   46.7753 C   0  0  0  0  0  0  0  0  0  0  0  0
   58.5279   31.4764   46.4051 C   0  0  0  0  0  0  0  0  0  0  0  0
   59.9156   32.8046   48.3614 S   0  0  0  0  0  0  0  0  0  0  0  0
   58.9034   32.4409   49.4108 O   0  0  0  0  0  0  0  0  0  0  0  0
   60.3938   34.2081   48.6161 O   0  0  0  0  0  0  0  0  0  0  0  0
   61.2592   31.7106   48.4636 N   0  0  0  0  0  0  0  0  0  0  0  0
   61.3913   30.6475   49.4186 C   0  0  0  0  0  0  0  0  0  0  0  0
   60.6263   29.4680   49.3353 C   0  0  0  0  0  0  0  0  0  0  0  0
   60.7671   28.4680   50.3045 C   0  0  0  0  0  0  0  0  0  0  0  0
   61.6790   28.6270   51.3490 C   0  0  0  0  0  0  0  0  0  0  0  0
   62.4528   29.7884   51.4300 C   0  0  0  0  0  0  0  0  0  0  0  0
   62.3049   30.7978   50.4724 C   0  0  0  0  0  0  0  0  0  0  0  0
   63.0432   31.9330   50.5801 F   0  0  0  0  0  0  0  0  0  0  0  0
   57.2667   30.0832   44.7527 C   0  0  0  0  0  0  0  0  0  0  0  0
   56.0087   29.9922   44.7860 O   0  0  0  0  0  0  0  0  0  0  0  0
   58.0357   28.9730   44.3784 O   0  0  0  0  0  0  0  0  0  0  0  0
   57.4256   25.2031   47.3917 N   0  0  0  0  0  0  0  0  0  0  0  0
   58.2589   26.1931   46.7800 C   0  0  0  0  0  0  0  0  0  0  0  0
   59.6178   26.2584   47.1048 C   0  0  0  0  0  0  0  0  0  0  0  0
   60.4308   27.2148   46.5032 C   0  0  0  0  0  0  0  0  0  0  0  0
   59.8760   28.1150   45.5885 C   0  0  0  0  0  0  0  0  0  0  0  0
   60.6142   28.9774   45.0421 O   0  0  0  0  0  0  0  0  0  0  0  0
   58.5417   28.0676   45.2955 N   0  0  0  0  0  0  0  0  0  0  0  0
   57.7374   27.1049   45.8470 C   0  0  0  0  0  0  0  0  0  0  0  0
   56.4006   27.0120   45.4671 O   0  0  0  0  0  0  0  0  0  0  0  0
   57.8080   24.5722   48.0435 H   0  0  0  0  0  0  0  0  0  0  0  0
   56.4699   25.1532   47.1606 H   0  0  0  0  0  0  0  0  0  0  0  0
 21 22  1  0
 22 23  1  0
 23 24  2  0
 24 25  1  0
 25 26  2  0
 25 27  1  0
 27 20  1  0
 20 18  1  0
 18 19  2  0
 18  1  1  0
  1  2  2  0
  2  3  1  0
  3  4  2  0
  4  5  1  0
  5  7  1  0
  7  8  2  0
  7  9  2  0
  7 10  1  0
 10 11  1  0
 11 12  2  0
 12 13  1  0
 13 14  2  0
 14 15  1  0
 15 16  2  0
 16 17  1  0
  5  6  2  0
 27 28  1  0
 28 29  1  0
 28 22  2  0
  6  1  1  0
 16 11  1  0
 21 30  1  0
 21 31  1  0
M  CHG 1  10  -1
M  CHG 1  29  -1
M  END
> <UniqueID>
53

> <SMILES>
Nc1ccc(=O)n(OC(=O)c2cccc(S(=O)(=O)[N-]c3ccccc3F)c2)c1[O-]

> <Energy>
55.18947606121316

> <Genealogy>
Nc1ccc(=O)n(OC(=O)c2cccc(S(=O)(=O)[N-]c3ccccc3F)c2)c1[O-] (protonated)
Nc1ccc(=O)n(OC(=O)c2cccc(S(=O)(=O)[N-]c3ccccc3F)c2)c1[O-] (3D coordinates assigned)
Nc1ccc(=O)n(OC(=O)c2cccc(S(=O)(=O)[N-]c3ccccc3F)c2)c1[O-] (optimized conformer: 55.18947606121316 kcal/mol)

> <smiles>
Nc1ccc(=O)n(OC(=O)c2cccc(S(=O)(=O)Nc3ccccc3F)c2)c1O

> <score_type>
oracle

> <origin>
adg

> <m_score__min__energy>
-14.119999999999999

> <m_primary>
energy

> <minimizedAffinity>
-8.36842

> <minimizedRMSD>
2.48489

> <CNNscore>
0.4255829751

> <CNNaffinity>
6.5004477501

> <CNN_VS>
2.7664799690

> <CNNaffinity_variance>
0.1598427296

$$$$
16:0


 31 33  0  0  0  0  0  0  0  0999 V2000
   58.1417   27.9780   45.9071 C   0  0  0  0  0  0  0  0  0  0  0  0
   57.3969   26.8219   46.0354 C   0  0  0  0  0  0  0  0  0  0  0  0
   56.2001   26.5392   45.3853 O   0  0  0  0  0  0  0  0  0  0  0  0
   58.0575   25.9996   46.9268 C   0  0  0  0  0  0  0  0  0  0  0  0
   59.1854   26.6912   47.3252 C   0  0  0  0  0  0  0  0  0  0  0  0
   59.2400   27.8878   46.6980 N   0  0  0  0  0  0  0  0  0  0  0  0
   60.1818   28.9281   47.0054 C   0  0  0  0  0  0  0  0  0  0  0  0
   60.8853   29.5365   45.9524 C   0  0  0  0  0  0  0  0  0  0  0  0
   61.7703   30.5848   46.1994 C   0  0  0  0  0  0  0  0  0  0  0  0
   61.9535   31.0485   47.5011 C   0  0  0  0  0  0  0  0  0  0  0  0
   61.2630   30.4576   48.5606 C   0  0  0  0  0  0  0  0  0  0  0  0
   60.3796   29.3853   48.3356 C   0  0  0  0  0  0  0  0  0  0  0  0
   59.7248   28.7455   49.5031 C   0  0  0  0  0  0  0  0  0  0  0  0
   60.3022   27.8316   50.1501 O   0  0  0  0  0  0  0  0  0  0  0  0
   58.4737   29.1787   49.9264 O   0  0  0  0  0  0  0  0  0  0  0  0
   57.6421   24.6679   47.3924 C   0  0  0  0  0  0  0  0  0  0  0  0
   57.2137   23.8113   46.5735 O   0  0  0  0  0  0  0  0  0  0  0  0
   57.7226   24.3455   48.7399 O   0  0  0  0  0  0  0  0  0  0  0  0
   57.7790   29.1392   45.0669 C   0  0  0  0  0  0  0  0  0  0  0  0
   57.6652   28.9834   43.8210 O   0  0  0  0  0  0  0  0  0  0  0  0
   57.8698   30.6624   46.8683 O   0  0  0  0  0  0  0  0  0  0  0  0
   57.5945   30.4816   45.6541 C   0  0  0  0  0  0  0  0  0  0  0  0
   57.1021   31.5885   44.8887 N   0  0  0  0  0  0  0  0  0  0  0  0
   57.9331   32.6446   44.3210 C   0  0  0  0  0  0  0  0  0  0  0  0
   57.7981   33.9249   45.1459 C   0  0  0  0  0  0  0  0  0  0  0  0
   58.8229   33.9812   46.2489 C   0  0  0  0  0  0  0  0  0  0  0  0
   60.1515   34.3414   45.9612 C   0  0  0  0  0  0  0  0  0  0  0  0
   61.1106   34.3647   46.9789 C   0  0  0  0  0  0  0  0  0  0  0  0
   60.7538   34.0216   48.2865 C   0  0  0  0  0  0  0  0  0  0  0  0
   59.4377   33.6511   48.5779 C   0  0  0  0  0  0  0  0  0  0  0  0
   58.4756   33.6258   47.5632 C   0  0  0  0  0  0  0  0  0  0  0  0
 21 22  2  0
 22 23  1  0
 23 24  1  0
 24 25  1  0
 25 26  1  0
 26 27  2  0
 27 28  1  0
 28 29  2  0
 29 30  1  0
 30 31  2  0
 22 19  1  0
 19 20  2  0
 19  1  1  0
  1  2  2  0
  2  3  1  0
  2  4  1  0
  4 16  1  0
 16 17  2  0
 16 18  1  0
  4  5  2  0
  5  6  1  0
  6  7  1  0
  7  8  2  0
  8  9  1  0
  9 10  2  0
 10 11  1  0
 11 12  2  0
 12 13  1  0
 13 14  2  0
 13 15  1  0
 31 26  1  0
  6  1  1  0
 12  7  1  0
M  CHG 1   3  -1
M  CHG 1  15  -1
M  CHG 1  18  -1
M  CHG 1  23  -1
M  END
> <UniqueID>
17

> <SMILES>
O=C([N-]CCc1ccccc1)C(=O)c1c([O-])c(C(=O)[O-])cn1-c1ccccc1C(=O)[O-]

> <Energy>
85.22911798158015

> <Genealogy>
O=C([N-]CCc1ccccc1)C(=O)c1c([O-])c(C(=O)[O-])cn1-c1ccccc1C(=O)[O-] (protonated)
O=C([N-]CCc1ccccc1)C(=O)c1c([O-])c(C(=O)[O-])cn1-c1ccccc1C(=O)[O-] (3D coordinates assigned)
O=C([N-]CCc1ccccc1)C(=O)c1c([O-])c(C(=O)[O-])cn1-c1ccccc1C(=O)[O-] (optimized conformer: 85.22911798158015 kcal/mol)

> <smiles>
O=C(NCCc1ccccc1)C(=O)c1c(O)c(C(=O)O)cn1-c1ccccc1C(=O)O

> <score_type>
oracle

> <origin>
adg

> <m_score__min__energy>
-14.52

> <m_primary>
energy

> <minimizedAffinity>
-3.53486

> <minimizedRMSD>
1.52128

> <CNNscore>
0.7524592876

> <CNNaffinity>
6.3864655495

> <CNN_VS>
4.8055553436

> <CNNaffinity_variance>
0.0920757651

$$$$
18:0


 31 33  0  0  0  0  0  0  0  0999 V2000
   60.2191   28.7828   48.2103 N   0  0  0  0  0  0  0  0  0  0  0  0
   60.1339   29.6935   47.1753 C   0  0  0  0  0  0  0  0  0  0  0  0
   60.5243   29.3138   45.7566 C   0  0  0  0  0  0  0  0  0  0  0  0
   59.6266   30.9896   47.4268 C   0  0  0  0  0  0  0  0  0  0  0  0
   59.3383   31.3504   48.7475 C   0  0  0  0  0  0  0  0  0  0  0  0
   58.8597   32.4938   48.9906 O   0  0  0  0  0  0  0  0  0  0  0  0
   59.5487   30.4668   49.7672 N   0  0  0  0  0  0  0  0  0  0  0  0
   59.2814   30.8747   51.1582 C   0  0  0  0  0  0  0  0  0  0  0  0
   59.9042   29.1732   49.4915 C   0  0  0  0  0  0  0  0  0  0  0  0
   59.9273   28.3275   50.4300 O   0  0  0  0  0  0  0  0  0  0  0  0
   59.2979   31.9271   46.3184 C   0  0  0  0  0  0  0  0  0  0  0  0
   59.8123   33.0789   46.3456 O   0  0  0  0  0  0  0  0  0  0  0  0
   58.3930   31.5582   45.1959 C   0  0  0  0  0  0  0  0  0  0  0  0
   58.4529   32.2237   43.9568 C   0  0  0  0  0  0  0  0  0  0  0  0
   57.6092   31.8521   42.9060 C   0  0  0  0  0  0  0  0  0  0  0  0
   56.6975   30.8101   43.0759 C   0  0  0  0  0  0  0  0  0  0  0  0
   56.6257   30.1360   44.2983 C   0  0  0  0  0  0  0  0  0  0  0  0
   55.7177   29.0984   44.4644 O   0  0  0  0  0  0  0  0  0  0  0  0
   57.4682   30.5057   45.3520 C   0  0  0  0  0  0  0  0  0  0  0  0
   60.5607   27.3562   47.9712 C   0  0  0  0  0  0  0  0  0  0  0  0
   59.7188   26.7014   46.8547 C   0  0  0  0  0  0  0  0  0  0  0  0
   58.1956   26.7197   47.0835 C   0  0  0  0  0  0  0  0  0  0  0  0
   57.4274   23.5462   45.0740 C   0  0  0  0  0  0  0  0  0  0  0  0
   58.1197   24.5475   45.7684 C   0  0  0  0  0  0  0  0  0  0  0  0
   57.4429   25.6399   46.3385 C   0  0  0  0  0  0  0  0  0  0  0  0
   56.0434   25.6753   46.2808 C   0  0  0  0  0  0  0  0  0  0  0  0
   55.3371   24.6656   45.6269 C   0  0  0  0  0  0  0  0  0  0  0  0
   56.0149   23.6069   45.0157 C   0  0  0  0  0  0  0  0  0  0  0  0
   55.2684   22.6326   44.3667 O   0  0  0  0  0  0  0  0  0  0  0  0
   59.5155   22.1555   44.8505 C   0  0  0  0  0  0  0  0  0  0  0  0
   58.1966   22.5356   44.4741 O   0  0  0  0  0  0  0  0  0  0  0  0
 30 31  1  0
 31 23  1  0
 23 24  2  0
 24 25  1  0
 25 22  1  0
 22 21  1  0
 21 20  1  0
 20  1  1  0
  1  2  1  0
  2  3  1  0
  2  4  2  0
  4 11  1  0
 11 12  2  0
 11 13  1  0
 13 14  2  0
 14 15  1  0
 15 16  2  0
 16 17  1  0
 17 18  1  0
 17 19  2  0
  4  5  1  0
  5  6  2  0
  5  7  1  0
  7  8  1  0
  7  9  1  0
  9 10  2  0
 25 26  2  0
 26 27  1  0
 27 28  2  0
 28 29  1  0
 28 23  1  0
  9  1  1  0
 19 13  1  0
M  CHG 1  18  -1
M  CHG 1  29  -1
M  END
> <UniqueID>
19

> <SMILES>
COc1cc(CCCn2c(C)c(C(=O)c3cccc([O-])c3)c(=O)n(C)c2=O)ccc1[O-]

> <Energy>
72.17425911926036

> <Genealogy>
COc1cc(CCCn2c(C)c(C(=O)c3cccc([O-])c3)c(=O)n(C)c2=O)ccc1[O-] (protonated)
COc1cc(CCCn2c(C)c(C(=O)c3cccc([O-])c3)c(=O)n(C)c2=O)ccc1[O-] (3D coordinates assigned)
COc1cc(CCCn2c(C)c(C(=O)c3cccc([O-])c3)c(=O)n(C)c2=O)ccc1[O-] (optimized conformer: 72.17425911926036 kcal/mol)

> <smiles>
COc1cc(CCCn2c(C)c(C(=O)c3cccc(O)c3)c(=O)n(C)c2=O)ccc1O

> <score_type>
oracle

> <origin>
adg

> <m_score__min__energy>
-14.81

> <m_primary>
energy

> <minimizedAffinity>
-6.48402

> <minimizedRMSD>
1.52280

> <CNNscore>
0.1472644210

> <CNNaffinity>
5.9334006310

> <CNN_VS>
0.8737788200

> <CNNaffinity_variance>
0.2260760665

$$$$
40:0


 33 36  0  0  0  0  0  0  0  0999 V2000
   58.9565   31.9621   50.4012 C   0  0  0  0  0  0  0  0  0  0  0  0
   59.7881   32.8078   51.1545 C   0  0  0  0  0  0  0  0  0  0  0  0
   60.7430   33.6079   50.5222 C   0  0  0  0  0  0  0  0  0  0  0  0
   60.8776   33.5759   49.1343 C   0  0  0  0  0  0  0  0  0  0  0  0
   60.0550   32.7423   48.3608 C   0  0  0  0  0  0  0  0  0  0  0  0
   59.0817   31.9539   48.9998 C   0  0  0  0  0  0  0  0  0  0  0  0
   56.9144   31.6966   51.8937 N   0  0  0  0  0  0  0  0  0  0  0  0
   57.9551   31.1132   51.0871 C   0  0  0  0  0  0  0  0  0  0  0  0
   58.0263   29.8605   50.9564 O   0  0  0  0  0  0  0  0  0  0  0  0
   56.9241   32.6720   52.0269 H   0  0  0  0  0  0  0  0  0  0  0  0
   53.5319   30.2328   52.5362 C   0  0  0  0  0  0  0  0  0  0  0  0
   53.7889   29.4197   53.6478 C   0  0  0  0  0  0  0  0  0  0  0  0
   55.0764   29.3573   54.1859 C   0  0  0  0  0  0  0  0  0  0  0  0
   56.1124   30.1080   53.6217 C   0  0  0  0  0  0  0  0  0  0  0  0
   55.8623   30.9401   52.5161 C   0  0  0  0  0  0  0  0  0  0  0  0
   54.5726   30.9778   51.9654 C   0  0  0  0  0  0  0  0  0  0  0  0
   51.2881   31.8951   51.9688 N   0  0  0  0  0  0  0  0  0  0  0  0
   51.9175   30.2919   51.8352 S   0  0  0  0  0  0  0  0  0  0  0  0
   51.9730   29.8962   50.3865 O   0  0  0  0  0  0  0  0  0  0  0  0
   51.0135   29.3352   52.5608 O   0  0  0  0  0  0  0  0  0  0  0  0
   50.3531   31.9283   51.5625 H   0  0  0  0  0  0  0  0  0  0  0  0
   60.2024   32.7139   46.8590 C   0  0  0  0  0  0  0  0  0  0  0  0
   59.0661   31.9564   46.2180 C   0  0  0  0  0  0  0  0  0  0  0  0
   57.9846   32.6652   45.7973 N   0  0  0  0  0  0  0  0  0  0  0  0
   56.9427   32.0856   45.2017 N   0  0  0  0  0  0  0  0  0  0  0  0
   56.9080   30.7495   44.9722 C   0  0  0  0  0  0  0  0  0  0  0  0
   55.8974   30.2430   44.4174 O   0  0  0  0  0  0  0  0  0  0  0  0
   57.9969   29.9547   45.3581 C   0  0  0  0  0  0  0  0  0  0  0  0
   59.0929   30.5600   45.9938 C   0  0  0  0  0  0  0  0  0  0  0  0
   60.2158   29.6549   46.4491 C   0  0  0  0  0  0  0  0  0  0  0  0
   60.5926   28.6624   45.3389 C   0  0  0  0  0  0  0  0  0  0  0  0
   59.3793   27.9763   44.6596 C   0  0  0  0  0  0  0  0  0  0  0  0
   58.0090   28.4575   45.1655 C   0  0  0  0  0  0  0  0  0  0  0  0
 17 18  1  0
 18 19  2  0
 18 20  2  0
 18 11  1  0
 11 12  2  0
 12 13  1  0
 13 14  2  0
 14 15  1  0
 15  7  1  0
  7  8  1  0
  8  9  2  0
  8  1  1  0
  1  2  2  0
  2  3  1  0
  3  4  2  0
  4  5  1  0
  5 22  1  0
 22 23  1  0
 23 24  2  0
 24 25  1  0
 25 26  1  0
 26 27  2  0
 26 28  1  0
 28 29  2  0
 29 30  1  0
 30 31  1  0
 31 32  1  0
 32 33  1  0
  5  6  2  0
 15 16  2  0
 16 11  1  0
  6  1  1  0
 29 23  1  0
 33 28  1  0
 17 21  1  0
  7 10  1  0
M  CHG 1  17  -1
M  CHG 1  25  -1
M  END
> <UniqueID>
38

> <SMILES>
[NH-]S(=O)(=O)c1cccc(NC(=O)c2cccc(Cc3n[n-]c(=O)c4c3CCCC4)c2)c1

> <Energy>
68.47045715428011

> <Genealogy>
[NH-]S(=O)(=O)c1cccc(NC(=O)c2cccc(Cc3n[n-]c(=O)c4c3CCCC4)c2)c1 (protonated)
[NH-]S(=O)(=O)c1cccc(NC(=O)c2cccc(Cc3n[n-]c(=O)c4c3CCCC4)c2)c1 (3D coordinates assigned)
[NH-]S(=O)(=O)c1cccc(NC(=O)c2cccc(Cc3n[n-]c(=O)c4c3CCCC4)c2)c1 (nonaromatic ring conformer: 68.47045715428011 kcal/mol)

> <smiles>
NS(=O)(=O)c1cccc(NC(=O)c2cccc(Cc3n[nH]c(=O)c4c3CCCC4)c2)c1

> <score_type>
oracle

> <origin>
adg

> <m_score__min__energy>
-15.32

> <m_primary>
energy

> <minimizedAffinity>
-9.71998

> <minimizedRMSD>
1.28198

> <CNNscore>
0.4791893661

> <CNNaffinity>
7.1314520836

> <CNN_VS>
3.4173159599

> <CNNaffinity_variance>
0.1584080309

$$$$
10:0


 30 32  0  0  0  0  0  0  0  0999 V2000
   59.6310   28.2732   48.1382 C   0  0  0  0  0  0  0  0  0  0  0  0
   60.3729   27.9862   49.2958 C   0  0  0  0  0  0  0  0  0  0  0  0
   60.7543   29.0095   50.1655 C   0  0  0  0  0  0  0  0  0  0  0  0
   60.3919   30.3291   49.8956 C   0  0  0  0  0  0  0  0  0  0  0  0
   59.6410   30.6281   48.7581 C   0  0  0  0  0  0  0  0  0  0  0  0
   59.2533   29.6088   47.8682 C   0  0  0  0  0  0  0  0  0  0  0  0
   59.2111   26.9547   47.0357 S   0  0  0  0  0  0  0  0  0  0  0  0
   60.2258   26.8974   45.9297 O   0  0  0  0  0  0  0  0  0  0  0  0
   59.2044   25.6413   47.7691 O   0  0  0  0  0  0  0  0  0  0  0  0
   55.6872   23.0457   44.8069 C   0  0  0  0  0  0  0  0  0  0  0  0
   55.9352   24.3856   45.4182 C   0  0  0  0  0  0  0  0  0  0  0  0
   54.9814   25.1275   46.0233 N   0  0  0  0  0  0  0  0  0  0  0  0
   55.5503   26.2305   46.4197 O   0  0  0  0  0  0  0  0  0  0  0  0
   56.8244   26.2346   46.1028 C   0  0  0  0  0  0  0  0  0  0  0  0
   57.6437   27.2100   46.3446 N   0  0  0  0  0  0  0  0  0  0  0  0
   57.1428   25.0568   45.4674 C   0  0  0  0  0  0  0  0  0  0  0  0
   58.4466   24.6645   44.8456 C   0  0  0  0  0  0  0  0  0  0  0  0
   58.4332   29.9298   46.7299 N   0  0  0  0  0  0  0  0  0  0  0  0
   57.8270   29.2369   46.3809 H   0  0  0  0  0  0  0  0  0  0  0  0
   58.4535   31.2108   46.0760 C   0  0  0  0  0  0  0  0  0  0  0  0
   59.0938   32.3009   46.6931 C   0  0  0  0  0  0  0  0  0  0  0  0
   59.1533   33.5424   46.0590 C   0  0  0  0  0  0  0  0  0  0  0  0
   58.5814   33.7110   44.7993 C   0  0  0  0  0  0  0  0  0  0  0  0
   57.9478   32.6384   44.1687 C   0  0  0  0  0  0  0  0  0  0  0  0
   57.8761   31.3828   44.7938 C   0  0  0  0  0  0  0  0  0  0  0  0
   57.0345   30.0557   43.9809 S   0  0  0  0  0  0  0  0  0  0  0  0
   55.6390   29.5694   44.8800 N   0  0  0  0  0  0  0  0  0  0  0  0
   56.6051   30.4980   42.6101 O   0  0  0  0  0  0  0  0  0  0  0  0
   57.9576   28.8761   43.8630 O   0  0  0  0  0  0  0  0  0  0  0  0
   55.0002   30.3594   44.9698 H   0  0  0  0  0  0  0  0  0  0  0  0
 10 11  1  0
 11 12  1  0
 12 13  1  0
 13 14  1  0
 14 15  2  0
 15  7  1  0
  7  8  2  0
  7  9  2  0
  7  1  1  0
  1  2  2  0
  2  3  1  0
  3  4  2  0
  4  5  1  0
  5  6  2  0
  6 18  1  0
 18 20  1  0
 20 21  2  0
 21 22  1  0
 22 23  2  0
 23 24  1  0
 24 25  2  0
 25 26  1  0
 26 27  1  0
 26 28  2  0
 26 29  2  0
 14 16  1  0
 16 17  1  0
 16 11  2  0
  6  1  1  0
 25 20  1  0
 18 19  1  0
 27 30  1  0
M  CHG 1  12  -1
M  CHG 1  27  -1
M  END
> <UniqueID>
11

> <SMILES>
Cc1[n-]oc(=NS(=O)(=O)c2ccccc2Nc2ccccc2S([NH-])(=O)=O)c1C

> <Energy>
87.00390690177554

> <Genealogy>
Cc1[n-]oc(=NS(=O)(=O)c2ccccc2Nc2ccccc2S([NH-])(=O)=O)c1C (protonated)
Cc1[n-]oc(=NS(=O)(=O)c2ccccc2Nc2ccccc2S([NH-])(=O)=O)c1C (3D coordinates assigned)
Cc1[n-]oc(=NS(=O)(=O)c2ccccc2Nc2ccccc2S([NH-])(=O)=O)c1C (optimized conformer: 87.00390690177554 kcal/mol)

> <smiles>
Cc1[nH]oc(=NS(=O)(=O)c2ccccc2Nc2ccccc2S(N)(=O)=O)c1C

> <score_type>
oracle

> <origin>
adg

> <m_score__min__energy>
-14.66

> <m_primary>
energy

> <minimizedAffinity>
-8.36118

> <minimizedRMSD>
0.61715

> <CNNscore>
0.8093538880

> <CNNaffinity>
7.1012463570

> <CNN_VS>
5.7474212646

> <CNNaffinity_variance>
0.1103949770

$$$$
26:0


 31 34  0  0  0  0  0  0  0  0999 V2000
   59.7731   32.9103   47.8205 O   0  0  0  0  0  0  0  0  0  0  0  0
   60.0361   31.7559   47.3847 C   0  0  0  0  0  0  0  0  0  0  0  0
   61.1112   31.0006   47.9711 N   0  0  0  0  0  0  0  0  0  0  0  0
   61.1021   30.0217   47.8670 H   0  0  0  0  0  0  0  0  0  0  0  0
   62.1971   31.5950   48.7001 C   0  0  0  0  0  0  0  0  0  0  0  0
   62.3865   31.2615   50.0455 C   0  0  0  0  0  0  0  0  0  0  0  0
   63.4467   31.8081   50.7738 C   0  0  0  0  0  0  0  0  0  0  0  0
   64.3624   32.7030   50.1718 C   0  0  0  0  0  0  0  0  0  0  0  0
   64.1745   33.0067   48.8031 C   0  0  0  0  0  0  0  0  0  0  0  0
   63.1114   32.4577   48.0797 C   0  0  0  0  0  0  0  0  0  0  0  0
   65.4704   33.2806   50.9329 N   0  0  0  0  0  0  0  0  0  0  0  0
   65.1840   34.2943   51.9696 C   0  0  0  0  0  0  0  0  0  0  0  0
   66.4262   34.7464   52.7430 C   0  0  0  0  0  0  0  0  0  0  0  0
   67.5408   34.8536   51.8892 O   0  0  0  0  0  0  0  0  0  0  0  0
   67.9129   33.5578   51.4822 C   0  0  0  0  0  0  0  0  0  0  0  0
   66.8598   32.9515   50.5504 C   0  0  0  0  0  0  0  0  0  0  0  0
   59.1992   31.1751   46.3064 C   0  0  0  0  0  0  0  0  0  0  0  0
   58.1463   31.9132   45.7331 C   0  0  0  0  0  0  0  0  0  0  0  0
   57.3643   31.3587   44.7169 C   0  0  0  0  0  0  0  0  0  0  0  0
   57.6162   30.0610   44.2650 C   0  0  0  0  0  0  0  0  0  0  0  0
   58.6447   29.3010   44.8396 C   0  0  0  0  0  0  0  0  0  0  0  0
   59.4372   29.8640   45.8533 C   0  0  0  0  0  0  0  0  0  0  0  0
   58.9366   27.9157   44.3288 C   0  0  0  0  0  0  0  0  0  0  0  0
   58.3129   26.8918   45.2310 C   0  0  0  0  0  0  0  0  0  0  0  0
   56.9285   26.6846   45.2361 C   0  0  0  0  0  0  0  0  0  0  0  0
   56.3840   25.7511   46.1152 C   0  0  0  0  0  0  0  0  0  0  0  0
   55.0116   25.5265   46.1329 O   0  0  0  0  0  0  0  0  0  0  0  0
   57.2325   25.0502   46.9730 C   0  0  0  0  0  0  0  0  0  0  0  0
   56.7712   24.1989   47.7784 O   0  0  0  0  0  0  0  0  0  0  0  0
   58.5692   25.2933   46.9382 N   0  0  0  0  0  0  0  0  0  0  0  0
   59.0917   26.1884   46.0974 N   0  0  0  0  0  0  0  0  0  0  0  0
  1  2  2  0
  2  3  1  0
  3  5  1  0
  5  6  2  0
  6  7  1  0
  7  8  2  0
  8 11  1  0
 11 12  1  0
 12 13  1  0
 13 14  1  0
 14 15  1  0
 15 16  1  0
  8  9  1  0
  9 10  2  0
  2 17  1  0
 17 18  2  0
 18 19  1  0
 19 20  2  0
 20 21  1  0
 21 23  1  0
 23 24  1  0
 24 25  1  0
 25 26  2  0
 26 27  1  0
 26 28  1  0
 28 29  2  0
 28 30  1  0
 30 31  1  0
 21 22  2  0
 10  5  1  0
 22 17  1  0
 16 11  1  0
 31 24  2  0
  3  4  1  0
M  CHG 1  27  -1
M  CHG 1  30  -1
M  END
> <UniqueID>
27

> <SMILES>
O=C(Nc1ccc(N2CCOCC2)cc1)c1cccc(Cc2cc([O-])c(=O)[n-]n2)c1

> <Energy>
67.24855788143493

> <Genealogy>
O=C(Nc1ccc(N2CCOCC2)cc1)c1cccc(Cc2cc([O-])c(=O)[n-]n2)c1 (protonated)
O=C(Nc1ccc(N2CCOCC2)cc1)c1cccc(Cc2cc([O-])c(=O)[n-]n2)c1 (3D coordinates assigned)
O=C(Nc1ccc(N2CCOCC2)cc1)c1cccc(Cc2cc([O-])c(=O)[n-]n2)c1 (nonaromatic ring conformer: 67.24855788143493 kcal/mol)

> <smiles>
O=C(Nc1ccc(N2CCOCC2)cc1)c1cccc(Cc2cc(O)c(=O)[nH]n2)c1

> <score_type>
oracle

> <origin>
adg

> <m_score__min__energy>
-14.75

> <m_primary>
energy

> <minimizedAffinity>
-7.96144

> <minimizedRMSD>
1.28054

> <CNNscore>
0.2275099605

> <CNNaffinity>
6.4151072502

> <CNN_VS>
1.4595007896

> <CNNaffinity_variance>
0.2627844810

$$$$
43:0


 24 26  0  0  0  0  0  0  0  0999 V2000
   58.8638   27.0683   45.7614 C   0  0  0  0  0  0  0  0  0  0  0  0
   59.9585   27.9181   45.5170 C   0  0  0  0  0  0  0  0  0  0  0  0
   59.7460   29.2476   45.1393 C   0  0  0  0  0  0  0  0  0  0  0  0
   58.4394   29.7392   44.9751 C   0  0  0  0  0  0  0  0  0  0  0  0
   57.3547   28.8903   45.2175 C   0  0  0  0  0  0  0  0  0  0  0  0
   57.5655   27.5606   45.5938 C   0  0  0  0  0  0  0  0  0  0  0  0
   59.0352   25.6919   46.1296 N   0  0  0  0  0  0  0  0  0  0  0  0
   58.2184   24.0146   44.7093 O   0  0  0  0  0  0  0  0  0  0  0  0
   58.1506   24.6072   45.8194 C   0  0  0  0  0  0  0  0  0  0  0  0
   57.2141   24.1029   46.8692 C   0  0  0  0  0  0  0  0  0  0  0  0
   55.9623   23.6683   46.2507 N   0  0  0  0  0  0  0  0  0  0  0  0
   54.9175   24.4297   45.8921 C   0  0  0  0  0  0  0  0  0  0  0  0
   54.8743   25.8156   45.9971 O   0  0  0  0  0  0  0  0  0  0  0  0
   53.9045   23.6252   45.4226 C   0  0  0  0  0  0  0  0  0  0  0  0
   54.3013   22.3356   45.4956 N   0  0  0  0  0  0  0  0  0  0  0  0
   55.5491   22.4073   46.0079 C   0  0  0  0  0  0  0  0  0  0  0  0
   56.2523   21.3887   46.2425 O   0  0  0  0  0  0  0  0  0  0  0  0
   58.1875   31.0715   44.6153 O   0  0  0  0  0  0  0  0  0  0  0  0
   58.5068   32.1968   45.3871 C   0  0  0  0  0  0  0  0  0  0  0  0
   58.7125   32.1125   46.7778 C   0  0  0  0  0  0  0  0  0  0  0  0
   59.0476   33.2566   47.5094 C   0  0  0  0  0  0  0  0  0  0  0  0
   59.1905   34.4869   46.8603 C   0  0  0  0  0  0  0  0  0  0  0  0
   59.0068   34.5726   45.4782 C   0  0  0  0  0  0  0  0  0  0  0  0
   58.6729   33.4302   44.7435 C   0  0  0  0  0  0  0  0  0  0  0  0
  8  9  2  0
  9 10  1  0
 10 11  1  0
 11 12  1  0
 12 13  1  0
 12 14  2  0
 14 15  1  0
 15 16  1  0
 16 17  2  0
  9  7  1  0
  7  1  1  0
  1  2  2  0
  2  3  1  0
  3  4  2  0
  4 18  1  0
 18 19  1  0
 19 20  2  0
 20 21  1  0
 21 22  2  0
 22 23  1  0
 23 24  2  0
  4  5  1  0
  5  6  2  0
 16 11  1  0
  6  1  1  0
 24 19  1  0
M  CHG 1   7  -1
M  CHG 1  13  -1
M  CHG 1  15  -1
M  END
> <UniqueID>
42

> <SMILES>
O=C(Cn1c([O-])c[n-]c1=O)[N-]c1ccc(Oc2ccccc2)cc1

> <Energy>
78.74440827808193

> <Genealogy>
O=C(Cn1c([O-])c[n-]c1=O)[N-]c1ccc(Oc2ccccc2)cc1 (protonated)
O=C(Cn1c([O-])c[n-]c1=O)[N-]c1ccc(Oc2ccccc2)cc1 (3D coordinates assigned)
O=C(Cn1c([O-])c[n-]c1=O)[N-]c1ccc(Oc2ccccc2)cc1 (optimized conformer: 78.74440827808193 kcal/mol)

> <smiles>
O=C(Cn1c(O)c[nH]c1=O)Nc1ccc(Oc2ccccc2)cc1

> <score_type>
oracle

> <origin>
adg

> <m_score__min__energy>
-14.470000000000001

> <m_primary>
energy

> <minimizedAffinity>
-7.44108

> <minimizedRMSD>
1.19890

> <CNNscore>
0.3281271458

> <CNNaffinity>
6.0784649849

> <CNN_VS>
1.9945093393

> <CNNaffinity_variance>
0.0861662701

$$$$
86:0


 27 29  0  0  0  0  0  0  0  0999 V2000
   57.7319   30.6103   45.1340 C   0  0  0  0  0  0  0  0  0  0  0  0
   57.6498   31.8913   44.5632 C   0  0  0  0  0  0  0  0  0  0  0  0
   58.3248   32.9671   45.1447 C   0  0  0  0  0  0  0  0  0  0  0  0
   59.0774   32.7815   46.3116 C   0  0  0  0  0  0  0  0  0  0  0  0
   59.1324   31.5125   46.9040 C   0  0  0  0  0  0  0  0  0  0  0  0
   58.4637   30.4347   46.3214 C   0  0  0  0  0  0  0  0  0  0  0  0
   59.9834   34.1313   46.9866 S   0  0  0  0  0  0  0  0  0  0  0  0
   59.7583   35.3442   46.1302 O   0  0  0  0  0  0  0  0  0  0  0  0
   59.5350   34.4356   48.3883 O   0  0  0  0  0  0  0  0  0  0  0  0
   61.6738   33.7430   46.9955 N   0  0  0  0  0  0  0  0  0  0  0  0
   62.3638   33.0917   48.0709 C   0  0  0  0  0  0  0  0  0  0  0  0
   63.6239   33.5746   48.4490 C   0  0  0  0  0  0  0  0  0  0  0  0
   64.3368   32.9597   49.4838 C   0  0  0  0  0  0  0  0  0  0  0  0
   63.7924   31.8595   50.1527 C   0  0  0  0  0  0  0  0  0  0  0  0
   64.5013   31.2489   51.1782 O   0  0  0  0  0  0  0  0  0  0  0  0
   62.5331   31.3753   49.7878 C   0  0  0  0  0  0  0  0  0  0  0  0
   61.8173   31.9882   48.7531 C   0  0  0  0  0  0  0  0  0  0  0  0
   57.0483   29.4640   44.4927 C   0  0  0  0  0  0  0  0  0  0  0  0
   56.7859   29.5135   43.2616 O   0  0  0  0  0  0  0  0  0  0  0  0
   59.5674   26.4087   45.9440 C   0  0  0  0  0  0  0  0  0  0  0  0
   58.7515   27.4255   45.5582 N   0  0  0  0  0  0  0  0  0  0  0  0
   57.3919   27.3290   45.6276 C   0  0  0  0  0  0  0  0  0  0  0  0
   56.6275   28.3114   45.2405 N   0  0  0  0  0  0  0  0  0  0  0  0
   56.8103   26.1397   46.0915 C   0  0  0  0  0  0  0  0  0  0  0  0
   55.4272   26.0030   46.1597 O   0  0  0  0  0  0  0  0  0  0  0  0
   57.6338   25.0832   46.4920 C   0  0  0  0  0  0  0  0  0  0  0  0
   59.0209   25.2171   46.4207 C   0  0  0  0  0  0  0  0  0  0  0  0
 20 21  1  0
 21 22  1  0
 22 23  2  0
 23 18  1  0
 18 19  2  0
 18  1  1  0
  1  2  2  0
  2  3  1  0
  3  4  2  0
  4  7  1  0
  7  8  2  0
  7  9  2  0
  7 10  1  0
 10 11  1  0
 11 12  2  0
 12 13  1  0
 13 14  2  0
 14 15  1  0
 14 16  1  0
 16 17  2  0
  4  5  1  0
  5  6  2  0
 22 24  1  0
 24 25  1  0
 24 26  2  0
 26 27  1  0
 27 20  2  0
  6  1  1  0
 17 11  1  0
M  CHG 1  10  -1
M  CHG 1  15  -1
M  CHG 1  21  -1
M  CHG 1  25  -1
M  END
> <UniqueID>
78

> <SMILES>
O=C(/N=c1\[n-]cccc1[O-])c1ccc(S(=O)(=O)[N-]c2ccc([O-])cc2)cc1

> <Energy>
52.63539227452878

> <Genealogy>
O=C(N=c1[n-]cccc1[O-])c1ccc(S(=O)(=O)[N-]c2ccc([O-])cc2)cc1 (protonated)
O=C(/N=c1\[n-]cccc1[O-])c1ccc(S(=O)(=O)[N-]c2ccc([O-])cc2)cc1 (cis-trans isomerization)
O=C(/N=c1\[n-]cccc1[O-])c1ccc(S(=O)(=O)[N-]c2ccc([O-])cc2)cc1 (3D coordinates assigned)
O=C(/N=c1\[n-]cccc1[O-])c1ccc(S(=O)(=O)[N-]c2ccc([O-])cc2)cc1 (optimized conformer: 52.63539227452878 kcal/mol)

> <smiles>
O=C(N=c1[nH]cccc1O)c1ccc(S(=O)(=O)Nc2ccc(O)cc2)cc1

> <score_type>
oracle

> <origin>
adg

> <m_score__min__energy>
-15.699999999999999

> <m_primary>
energy

> <minimizedAffinity>
-8.06531

> <minimizedRMSD>
0.90351

> <CNNscore>
0.6386595368

> <CNNaffinity>
6.5882048607

> <CNN_VS>
4.2076196671

> <CNNaffinity_variance>
0.2202641964

$$$$
29:0


 31 33  0  0  0  0  0  0  0  0999 V2000
   59.2830   27.3775   46.7340 C   0  0  0  0  0  0  0  0  0  0  0  0
   58.7020   28.0501   47.7521 N   0  0  0  0  0  0  0  0  0  0  0  0
   59.0954   29.3202   47.8332 N   0  0  0  0  0  0  0  0  0  0  0  0
   59.9911   29.6612   46.8824 C   0  0  0  0  0  0  0  0  0  0  0  0
   60.4590   30.8694   46.7756 N   0  0  0  0  0  0  0  0  0  0  0  0
   60.3273   28.3605   45.8530 S   0  0  0  0  0  0  0  0  0  0  0  0
   60.0430   32.0071   47.5422 C   0  0  0  0  0  0  0  0  0  0  0  0
   60.6719   32.2912   48.5955 O   0  0  0  0  0  0  0  0  0  0  0  0
   58.9727   32.9136   47.0737 C   0  0  0  0  0  0  0  0  0  0  0  0
   58.1860   33.4245   47.9138 O   0  0  0  0  0  0  0  0  0  0  0  0
   58.7437   33.1538   45.6791 N   0  0  0  0  0  0  0  0  0  0  0  0
   58.0460   32.2882   44.7726 C   0  0  0  0  0  0  0  0  0  0  0  0
   58.1748   32.5053   43.3941 C   0  0  0  0  0  0  0  0  0  0  0  0
   57.5304   31.6618   42.4848 C   0  0  0  0  0  0  0  0  0  0  0  0
   56.7665   30.5853   42.9445 C   0  0  0  0  0  0  0  0  0  0  0  0
   56.6543   30.3445   44.3167 C   0  0  0  0  0  0  0  0  0  0  0  0
   55.9081   29.2659   44.7730 O   0  0  0  0  0  0  0  0  0  0  0  0
   57.2972   31.1875   45.2300 C   0  0  0  0  0  0  0  0  0  0  0  0
   58.9384   25.6624   46.3528 S   0  0  0  0  0  0  0  0  0  0  0  0
   57.6123   26.0212   45.1464 C   0  0  0  0  0  0  0  0  0  0  0  0
   56.2540   25.7715   45.7435 C   0  0  0  0  0  0  0  0  0  0  0  0
   55.8444   26.5271   46.6630 O   0  0  0  0  0  0  0  0  0  0  0  0
   55.4547   24.6387   45.3749 N   0  0  0  0  0  0  0  0  0  0  0  0
   55.9822   22.2739   45.7280 C   0  0  0  0  0  0  0  0  0  0  0  0
   56.4135   21.0295   45.2278 C   0  0  0  0  0  0  0  0  0  0  0  0
   56.7645   20.8941   43.8823 C   0  0  0  0  0  0  0  0  0  0  0  0
   56.6787   21.9893   43.0231 C   0  0  0  0  0  0  0  0  0  0  0  0
   56.2520   23.2276   43.5089 C   0  0  0  0  0  0  0  0  0  0  0  0
   55.9256   23.3835   44.8659 C   0  0  0  0  0  0  0  0  0  0  0  0
   56.5250   22.7050   48.1324 C   0  0  0  0  0  0  0  0  0  0  0  0
   55.6116   22.4494   47.0705 O   0  0  0  0  0  0  0  0  0  0  0  0
 30 31  1  0
 31 24  1  0
 24 25  2  0
 25 26  1  0
 26 27  2  0
 27 28  1  0
 28 29  2  0
 29 23  1  0
 23 21  1  0
 21 22  2  0
 21 20  1  0
 20 19  1  0
 19  1  1  0
  1  2  2  0
  2  3  1  0
  3  4  1  0
  4  5  2  0
  5  7  1  0
  7  8  2  0
  7  9  1  0
  9 10  2  0
  9 11  1  0
 11 12  1  0
 12 13  2  0
 13 14  1  0
 14 15  2  0
 15 16  1  0
 16 17  1  0
 16 18  2  0
  4  6  1  0
 29 24  1  0
  6  1  1  0
 18 12  1  0
M  CHG 1   3  -1
M  CHG 1  11  -1
M  CHG 1  17  -1
M  CHG 1  23  -1
M  END
> <UniqueID>
29

> <SMILES>
COc1ccccc1[N-]C(=O)CSc1n[n-]c(=NC(=O)C(=O)[N-]c2cccc([O-])c2)s1

> <Energy>
93.87908868646781

> <Genealogy>
COc1ccccc1[N-]C(=O)CSc1n[n-]c(=NC(=O)C(=O)[N-]c2cccc([O-])c2)s1 (protonated)
COc1ccccc1[N-]C(=O)CSc1n[n-]c(=NC(=O)C(=O)[N-]c2cccc([O-])c2)s1 (3D coordinates assigned)
COc1ccccc1[N-]C(=O)CSc1n[n-]c(=NC(=O)C(=O)[N-]c2cccc([O-])c2)s1 (optimized conformer: 93.87908868646781 kcal/mol)

> <smiles>
COc1ccccc1NC(=O)CSc1n[nH]c(=NC(=O)C(=O)Nc2cccc(O)c2)s1

> <score_type>
oracle

> <origin>
adg

> <m_score__min__energy>
-14.82

> <m_primary>
energy

> <minimizedAffinity>
-5.67467

> <minimizedRMSD>
0.98737

> <CNNscore>
0.2824633121

> <CNNaffinity>
6.4342236519

> <CNN_VS>
1.8174321651

> <CNNaffinity_variance>
0.3518445492

$$$$
95:0


 26 28  0  0  0  0  0  0  0  0999 V2000
   58.5266   26.6432   45.0867 O   0  0  0  0  0  0  0  0  0  0  0  0
   58.3932   27.8878   44.9469 C   0  0  0  0  0  0  0  0  0  0  0  0
   57.5051   28.3680   44.0374 N   0  0  0  0  0  0  0  0  0  0  0  0
   57.3134   29.6993   43.8467 C   0  0  0  0  0  0  0  0  0  0  0  0
   56.3764   30.1215   42.9106 O   0  0  0  0  0  0  0  0  0  0  0  0
   58.0568   30.6306   44.5924 C   0  0  0  0  0  0  0  0  0  0  0  0
   58.9751   30.1533   45.5374 C   0  0  0  0  0  0  0  0  0  0  0  0
   59.1469   28.7734   45.7292 C   0  0  0  0  0  0  0  0  0  0  0  0
   57.8517   32.1154   44.4328 C   0  0  0  0  0  0  0  0  0  0  0  0
   58.4480   32.8535   45.6018 C   0  0  0  0  0  0  0  0  0  0  0  0
   58.2222   32.4024   46.9136 C   0  0  0  0  0  0  0  0  0  0  0  0
   58.8025   33.0682   47.9970 C   0  0  0  0  0  0  0  0  0  0  0  0
   59.6141   34.1855   47.7801 C   0  0  0  0  0  0  0  0  0  0  0  0
   60.1908   34.8441   48.8584 O   0  0  0  0  0  0  0  0  0  0  0  0
   59.8484   34.6361   46.4782 C   0  0  0  0  0  0  0  0  0  0  0  0
   59.2772   33.9676   45.3909 C   0  0  0  0  0  0  0  0  0  0  0  0
   60.0551   28.2492   46.7099 N   0  0  0  0  0  0  0  0  0  0  0  0
   60.1016   28.7271   48.3770 S   0  0  0  0  0  0  0  0  0  0  0  0
   60.6284   27.5843   49.2005 O   0  0  0  0  0  0  0  0  0  0  0  0
   58.7084   29.0602   48.8326 O   0  0  0  0  0  0  0  0  0  0  0  0
   61.1190   30.1519   48.5669 C   0  0  0  0  0  0  0  0  0  0  0  0
   61.5830   30.8378   47.4348 C   0  0  0  0  0  0  0  0  0  0  0  0
   62.3980   31.9649   47.5804 C   0  0  0  0  0  0  0  0  0  0  0  0
   62.7461   32.4155   48.8562 C   0  0  0  0  0  0  0  0  0  0  0  0
   62.2859   31.7355   49.9883 C   0  0  0  0  0  0  0  0  0  0  0  0
   61.4732   30.6063   49.8447 C   0  0  0  0  0  0  0  0  0  0  0  0
  1  2  2  0
  2  3  1  0
  3  4  1  0
  4  5  1  0
  4  6  2  0
  6  9  1  0
  9 10  1  0
 10 11  2  0
 11 12  1  0
 12 13  2  0
 13 14  1  0
 13 15  1  0
 15 16  2  0
  6  7  1  0
  7  8  2  0
  8 17  1  0
 17 18  1  0
 18 19  2  0
 18 20  2  0
 18 21  1  0
 21 22  2  0
 22 23  1  0
 23 24  2  0
 24 25  1  0
 25 26  2  0
  8  2  1  0
 26 21  1  0
 16 10  1  0
M  CHG 1   3  -1
M  CHG 1   5  -1
M  CHG 1  14  -1
M  CHG 1  17  -1
M  END
> <UniqueID>
87

> <SMILES>
O=c1[n-]c([O-])c(Cc2ccc([O-])cc2)cc1[N-]S(=O)(=O)c1ccccc1

> <Energy>
41.661688404147

> <Genealogy>
O=c1[n-]c([O-])c(Cc2ccc([O-])cc2)cc1[N-]S(=O)(=O)c1ccccc1 (protonated)
O=c1[n-]c([O-])c(Cc2ccc([O-])cc2)cc1[N-]S(=O)(=O)c1ccccc1 (3D coordinates assigned)
O=c1[n-]c([O-])c(Cc2ccc([O-])cc2)cc1[N-]S(=O)(=O)c1ccccc1 (optimized conformer: 41.661688404147 kcal/mol)

> <smiles>
O=c1[nH]c(O)c(Cc2ccc(O)cc2)cc1NS(=O)(=O)c1ccccc1

> <score_type>
oracle

> <origin>
adg

> <m_score__min__energy>
-16.98

> <m_primary>
energy

> <minimizedAffinity>
-7.76563

> <minimizedRMSD>
2.13199

> <CNNscore>
0.8799585104

> <CNNaffinity>
7.0058522224

> <CNN_VS>
6.1648592949

> <CNNaffinity_variance>
0.1523954719

$$$$
0:0


 30 32  0  0  0  0  0  0  0  0999 V2000
   59.5140   29.7947   50.7420 C   0  0  0  0  0  0  0  0  0  0  0  0
   59.9495   33.0158   48.7662 C   0  0  0  0  0  0  0  0  0  0  0  0
   60.6808   33.7994   49.6769 C   0  0  0  0  0  0  0  0  0  0  0  0
   61.0670   33.2660   50.9084 C   0  0  0  0  0  0  0  0  0  0  0  0
   60.7189   31.9567   51.2489 C   0  0  0  0  0  0  0  0  0  0  0  0
   59.9991   31.1609   50.3444 C   0  0  0  0  0  0  0  0  0  0  0  0
   59.6370   31.6915   49.0949 C   0  0  0  0  0  0  0  0  0  0  0  0
   59.5076   33.5206   47.5354 O   0  0  0  0  0  0  0  0  0  0  0  0
   58.2183   33.2632   46.9739 C   0  0  0  0  0  0  0  0  0  0  0  0
   58.3458   32.4218   45.7050 C   0  0  0  0  0  0  0  0  0  0  0  0
   57.0196   32.0636   45.2057 N   0  0  0  0  0  0  0  0  0  0  0  0
   58.5533   29.6389   44.8445 C   0  0  0  0  0  0  0  0  0  0  0  0
   57.0723   30.5225   44.4040 S   0  0  0  0  0  0  0  0  0  0  0  0
   55.8698   29.7051   44.7824 O   0  0  0  0  0  0  0  0  0  0  0  0
   57.0643   30.7477   42.9182 O   0  0  0  0  0  0  0  0  0  0  0  0
   58.1037   29.8673   51.1092 N   0  0  0  0  0  0  0  0  0  0  0  0
   57.6391   29.8221   52.4629 C   0  0  0  0  0  0  0  0  0  0  0  0
   58.4682   29.9317   53.4070 O   0  0  0  0  0  0  0  0  0  0  0  0
   56.1867   29.6758   52.7486 C   0  0  0  0  0  0  0  0  0  0  0  0
   55.2767   30.6212   52.2397 C   0  0  0  0  0  0  0  0  0  0  0  0
   53.9137   30.5296   52.5394 C   0  0  0  0  0  0  0  0  0  0  0  0
   52.9952   31.4745   52.0554 C   0  0  0  0  0  0  0  0  0  0  0  0
   51.6393   31.3622   52.3824 C   0  0  0  0  0  0  0  0  0  0  0  0
   50.7305   32.2982   51.9041 O   0  0  0  0  0  0  0  0  0  0  0  0
   51.1962   30.3089   53.1901 C   0  0  0  0  0  0  0  0  0  0  0  0
   52.1057   29.3642   53.6759 C   0  0  0  0  0  0  0  0  0  0  0  0
   53.4634   29.4718   53.3542 C   0  0  0  0  0  0  0  0  0  0  0  0
   54.3505   28.5600   53.8308 N   0  0  0  0  0  0  0  0  0  0  0  0
   55.6797   28.6293   53.5556 C   0  0  0  0  0  0  0  0  0  0  0  0
   56.4451   27.7512   54.0339 O   0  0  0  0  0  0  0  0  0  0  0  0
 12 13  1  0
 13 14  2  0
 13 15  2  0
 13 11  1  0
 11 10  1  0
 10  9  1  0
  9  8  1  0
  8  2  1  0
  2  3  2  0
  3  4  1  0
  4  5  2  0
  5  6  1  0
  6  1  1  0
  1 16  1  0
 16 17  1  0
 17 18  2  0
 17 19  1  0
 19 20  2  0
 20 21  1  0
 21 22  2  0
 22 23  1  0
 23 24  1  0
 23 25  2  0
 25 26  1  0
 26 27  2  0
 27 28  1  0
 28 29  1  0
 29 30  2  0
  6  7  2  0
  7  2  1  0
 29 19  1  0
 27 21  1  0
M  CHG 1  11  -1
M  CHG 1  16  -1
M  CHG 1  24  -1
M  CHG 1  28  -1
M  END
> <UniqueID>
1

> <SMILES>
CS(=O)(=O)[N-]CCOc1cccc(C[N-]C(=O)c2cc3cc([O-])ccc3[n-]c2=O)c1

> <Energy>
45.12676291558353

> <Genealogy>
CS(=O)(=O)[N-]CCOc1cccc(C[N-]C(=O)c2cc3cc([O-])ccc3[n-]c2=O)c1 (protonated)
CS(=O)(=O)[N-]CCOc1cccc(C[N-]C(=O)c2cc3cc([O-])ccc3[n-]c2=O)c1 (3D coordinates assigned)
CS(=O)(=O)[N-]CCOc1cccc(C[N-]C(=O)c2cc3cc([O-])ccc3[n-]c2=O)c1 (optimized conformer: 45.12676291558353 kcal/mol)

> <smiles>
CS(=O)(=O)NCCOc1cccc(CNC(=O)c2cc3cc(O)ccc3[nH]c2=O)c1

> <score_type>
oracle

> <origin>
adg

> <m_score__min__energy>
-16.359999999999999

> <m_primary>
energy

> <minimizedAffinity>
-6.58423

> <minimizedRMSD>
0.79210

> <CNNscore>
0.3541543484

> <CNNaffinity>
5.5823292732

> <CNN_VS>
1.9770061970

> <CNNaffinity_variance>
0.0419420265

$$$$
3:0


 23 24  0  0  0  0  0  0  0  0999 V2000
   58.6940   28.2966   45.8719 C   0  0  0  0  0  0  0  0  0  0  0  0
   60.0395   28.0116   46.1551 C   0  0  0  0  0  0  0  0  0  0  0  0
   60.4195   26.7408   46.5835 C   0  0  0  0  0  0  0  0  0  0  0  0
   59.4620   25.7417   46.7454 C   0  0  0  0  0  0  0  0  0  0  0  0
   58.1110   25.9972   46.4832 C   0  0  0  0  0  0  0  0  0  0  0  0
   57.7295   27.2713   46.0019 C   0  0  0  0  0  0  0  0  0  0  0  0
   56.4221   27.5012   45.5933 O   0  0  0  0  0  0  0  0  0  0  0  0
   57.9648   29.9703   44.0997 C   0  0  0  0  0  0  0  0  0  0  0  0
   57.5968   31.6108   44.0293 S   0  0  0  0  0  0  0  0  0  0  0  0
   57.9130   31.8524   45.6587 C   0  0  0  0  0  0  0  0  0  0  0  0
   57.7951   33.0043   46.2493 N   0  0  0  0  0  0  0  0  0  0  0  0
   58.2930   30.7124   46.2755 N   0  0  0  0  0  0  0  0  0  0  0  0
   58.3333   29.6594   45.4114 C   0  0  0  0  0  0  0  0  0  0  0  0
   58.6271   33.4976   47.3110 C   0  0  0  0  0  0  0  0  0  0  0  0
   59.0701   34.6785   47.2975 O   0  0  0  0  0  0  0  0  0  0  0  0
   58.9569   32.6376   48.3993 N   0  0  0  0  0  0  0  0  0  0  0  0
   58.6155   31.7144   48.4180 H   0  0  0  0  0  0  0  0  0  0  0  0
   59.5260   32.9669   49.1320 H   0  0  0  0  0  0  0  0  0  0  0  0
   57.1809   24.9203   46.6720 N   0  0  0  0  0  0  0  0  0  0  0  0
   56.9594   23.5454   45.6360 S   0  0  0  0  0  0  0  0  0  0  0  0
   55.6869   22.8268   45.9861 O   0  0  0  0  0  0  0  0  0  0  0  0
   58.1101   22.6007   45.8409 O   0  0  0  0  0  0  0  0  0  0  0  0
   56.9304   24.0572   43.9308 C   0  0  0  0  0  0  0  0  0  0  0  0
  8  9  1  0
  9 10  1  0
 10 11  2  0
 11 14  1  0
 14 15  2  0
 14 16  1  0
 10 12  1  0
 12 13  1  0
 13  1  1  0
  1  2  2  0
  2  3  1  0
  3  4  2  0
  4  5  1  0
  5 19  1  0
 19 20  1  0
 20 21  2  0
 20 22  2  0
 20 23  1  0
  5  6  2  0
  6  7  1  0
 13  8  2  0
  6  1  1  0
 16 17  1  0
 16 18  1  0
M  CHG 1   7  -1
M  CHG 1  12  -1
M  CHG 1  19  -1
M  END
> <UniqueID>
4

> <SMILES>
CS(=O)(=O)[N-]c1cccc(-c2cs/c(=N/C(N)=O)[n-]2)c1[O-]

> <Energy>
68.5849139248485

> <Genealogy>
CS(=O)(=O)[N-]c1cccc(-c2csc(=NC(N)=O)[n-]2)c1[O-] (protonated)
CS(=O)(=O)[N-]c1cccc(-c2cs/c(=N/C(N)=O)[n-]2)c1[O-] (cis-trans isomerization)
CS(=O)(=O)[N-]c1cccc(-c2cs/c(=N/C(N)=O)[n-]2)c1[O-] (3D coordinates assigned)
CS(=O)(=O)[N-]c1cccc(-c2cs/c(=N/C(N)=O)[n-]2)c1[O-] (optimized conformer: 68.5849139248485 kcal/mol)

> <smiles>
CS(=O)(=O)Nc1cccc(-c2csc(=NC(N)=O)[nH]2)c1O

> <score_type>
oracle

> <origin>
adg

> <m_score__min__energy>
-14.33

> <m_primary>
energy

> <minimizedAffinity>
-6.45500

> <minimizedRMSD>
1.82033

> <CNNscore>
0.2933158576

> <CNNaffinity>
5.6077151299

> <CNN_VS>
1.6448317766

> <CNNaffinity_variance>
0.0224661306

$$$$
38:0


 27 29  0  0  0  0  0  0  0  0999 V2000
   56.6075   29.8543   54.3807 S   0  0  0  0  0  0  0  0  0  0  0  0
   56.6152   28.3509   54.3836 O   0  0  0  0  0  0  0  0  0  0  0  0
   57.0704   30.3522   55.7202 O   0  0  0  0  0  0  0  0  0  0  0  0
   57.6839   30.4743   53.1328 C   0  0  0  0  0  0  0  0  0  0  0  0
   58.6590   29.6476   52.5625 C   0  0  0  0  0  0  0  0  0  0  0  0
   59.5116   30.1446   51.5718 C   0  0  0  0  0  0  0  0  0  0  0  0
   59.4003   31.4783   51.1377 C   0  0  0  0  0  0  0  0  0  0  0  0
   58.4212   32.3034   51.7193 C   0  0  0  0  0  0  0  0  0  0  0  0
   57.5711   31.8043   52.7118 C   0  0  0  0  0  0  0  0  0  0  0  0
   60.3031   32.0073   50.0842 C   0  0  0  0  0  0  0  0  0  0  0  0
   60.3792   33.3910   49.8341 C   0  0  0  0  0  0  0  0  0  0  0  0
   61.2298   33.8860   48.8403 C   0  0  0  0  0  0  0  0  0  0  0  0
   62.0113   33.0096   48.0849 C   0  0  0  0  0  0  0  0  0  0  0  0
   63.0779   33.6343   46.8401 Cl  0  0  0  0  0  0  0  0  0  0  0  0
   61.9446   31.6340   48.3220 C   0  0  0  0  0  0  0  0  0  0  0  0
   61.0961   31.1334   49.3151 C   0  0  0  0  0  0  0  0  0  0  0  0
   54.9913   30.4058   54.0937 N   0  0  0  0  0  0  0  0  0  0  0  0
   54.8073   29.6106   51.9055 O   0  0  0  0  0  0  0  0  0  0  0  0
   54.2287   29.9857   52.9610 C   0  0  0  0  0  0  0  0  0  0  0  0
   52.7375   29.9481   53.0448 C   0  0  0  0  0  0  0  0  0  0  0  0
   52.1423   30.2994   51.7186 C   0  0  0  0  0  0  0  0  0  0  0  0
   52.1566   29.4875   50.6466 N   0  0  0  0  0  0  0  0  0  0  0  0
   51.5777   30.2363   49.6832 C   0  0  0  0  0  0  0  0  0  0  0  0
   51.4008   29.8141   48.5114 O   0  0  0  0  0  0  0  0  0  0  0  0
   51.2073   31.4749   50.0730 N   0  0  0  0  0  0  0  0  0  0  0  0
   51.5782   31.5001   51.3631 C   0  0  0  0  0  0  0  0  0  0  0  0
   51.4098   32.5993   52.1949 O   0  0  0  0  0  0  0  0  0  0  0  0
 18 19  2  0
 19 20  1  0
 20 21  1  0
 21 22  1  0
 22 23  1  0
 23 24  2  0
 23 25  1  0
 25 26  1  0
 26 27  1  0
 19 17  1  0
 17  1  1  0
  1  2  2  0
  1  3  2  0
  1  4  1  0
  4  5  2  0
  5  6  1  0
  6  7  2  0
  7 10  1  0
 10 11  2  0
 11 12  1  0
 12 13  2  0
 13 14  1  0
 13 15  1  0
 15 16  2  0
  7  8  1  0
  8  9  2  0
 26 21  2  0
  9  4  1  0
 16 10  1  0
M  CHG 1  17  -1
M  CHG 1  22  -1
M  CHG 1  25  -1
M  CHG 1  27  -1
M  END
> <UniqueID>
35

> <SMILES>
O=C(Cc1[n-]c(=O)[n-]c1[O-])[N-]S(=O)(=O)c1ccc(-c2ccc(Cl)cc2)cc1

> <Energy>
73.79261584792027

> <Genealogy>
O=C(Cc1[n-]c(=O)[n-]c1[O-])[N-]S(=O)(=O)c1ccc(-c2ccc(Cl)cc2)cc1 (protonated)
O=C(Cc1[n-]c(=O)[n-]c1[O-])[N-]S(=O)(=O)c1ccc(-c2ccc(Cl)cc2)cc1 (3D coordinates assigned)
O=C(Cc1[n-]c(=O)[n-]c1[O-])[N-]S(=O)(=O)c1ccc(-c2ccc(Cl)cc2)cc1 (optimized conformer: 73.79261584792027 kcal/mol)

> <smiles>
O=C(Cc1[nH]c(=O)[nH]c1O)NS(=O)(=O)c1ccc(-c2ccc(Cl)cc2)cc1

> <score_type>
oracle

> <origin>
adg

> <m_score__min__energy>
-18.170000000000002

> <m_primary>
energy

> <minimizedAffinity>
-5.62844

> <minimizedRMSD>
0.98408

> <CNNscore>
0.4720686376

> <CNNaffinity>
5.7044062614

> <CNN_VS>
2.6928713322

> <CNNaffinity_variance>
0.0444490425

$$$$
81:0


 28 30  0  0  0  0  0  0  0  0999 V2000
   58.3694   31.4996   51.7709 C   0  0  0  0  0  0  0  0  0  0  0  0
   58.1049   32.6087   52.5955 C   0  0  0  0  0  0  0  0  0  0  0  0
   58.9285   33.7336   52.5711 C   0  0  0  0  0  0  0  0  0  0  0  0
   60.0317   33.7712   51.7237 C   0  0  0  0  0  0  0  0  0  0  0  0
   60.3172   32.6835   50.8983 C   0  0  0  0  0  0  0  0  0  0  0  0
   59.4993   31.5378   50.9016 C   0  0  0  0  0  0  0  0  0  0  0  0
   57.4264   30.3191   51.8797 C   0  0  0  0  0  0  0  0  0  0  0  0
   55.2521   28.7203   52.8128 O   0  0  0  0  0  0  0  0  0  0  0  0
   54.9958   29.9182   52.5097 C   0  0  0  0  0  0  0  0  0  0  0  0
   56.0503   30.7812   52.0538 N   0  0  0  0  0  0  0  0  0  0  0  0
   55.8378   31.7208   51.8506 H   0  0  0  0  0  0  0  0  0  0  0  0
   53.6099   30.4218   52.6245 C   0  0  0  0  0  0  0  0  0  0  0  0
   52.8652   30.2313   53.7989 C   0  0  0  0  0  0  0  0  0  0  0  0
   51.5604   30.7264   53.8509 C   0  0  0  0  0  0  0  0  0  0  0  0
   50.8656   30.5736   54.8899 O   0  0  0  0  0  0  0  0  0  0  0  0
   51.0362   31.3736   52.7778 N   0  0  0  0  0  0  0  0  0  0  0  0
   51.7674   31.5506   51.6481 C   0  0  0  0  0  0  0  0  0  0  0  0
   51.2663   32.1530   50.6639 O   0  0  0  0  0  0  0  0  0  0  0  0
   53.0384   31.0762   51.5772 N   0  0  0  0  0  0  0  0  0  0  0  0
   59.9118   30.3839   50.0114 C   0  0  0  0  0  0  0  0  0  0  0  0
   59.5239   30.6011   48.5425 C   0  0  0  0  0  0  0  0  0  0  0  0
   58.7302   31.8202   48.3672 N   0  0  0  0  0  0  0  0  0  0  0  0
   58.7357   32.6517   47.3616 C   0  0  0  0  0  0  0  0  0  0  0  0
   59.5993   33.7648   47.2913 C   0  0  0  0  0  0  0  0  0  0  0  0
   59.5646   34.5922   46.1675 C   0  0  0  0  0  0  0  0  0  0  0  0
   58.6715   34.3214   45.1311 C   0  0  0  0  0  0  0  0  0  0  0  0
   57.8196   33.2228   45.2350 C   0  0  0  0  0  0  0  0  0  0  0  0
   57.8714   32.4234   46.3342 N   0  0  0  0  0  0  0  0  0  0  0  0
  8  9  2  0
  9 10  1  0
 10  7  1  0
  7  1  1  0
  1  2  2  0
  2  3  1  0
  3  4  2  0
  4  5  1  0
  5  6  2  0
  6 20  1  0
 20 21  1  0
 21 22  1  0
 22 23  2  0
 23 24  1  0
 24 25  2  0
 25 26  1  0
 26 27  2  0
 27 28  1  0
  9 12  1  0
 12 13  2  0
 13 14  1  0
 14 15  2  0
 14 16  1  0
 16 17  1  0
 17 18  2  0
 17 19  1  0
  6  1  1  0
 28 23  1  0
 19 12  1  0
 10 11  1  0
M  CHG 1  16  -1
M  CHG 1  19  -1
M  CHG 1  28  -1
M  END
> <UniqueID>
74

> <SMILES>
O=C(NCc1ccccc1CCN=c1cccc[n-]1)c1cc(=O)[n-]c(=O)[n-]1

> <Energy>
48.386513026179614

> <Genealogy>
O=C(NCc1ccccc1CCN=c1cccc[n-]1)c1cc(=O)[n-]c(=O)[n-]1 (protonated)
O=C(NCc1ccccc1CCN=c1cccc[n-]1)c1cc(=O)[n-]c(=O)[n-]1 (3D coordinates assigned)
O=C(NCc1ccccc1CCN=c1cccc[n-]1)c1cc(=O)[n-]c(=O)[n-]1 (optimized conformer: 48.386513026179614 kcal/mol)

> <smiles>
O=C(NCc1ccccc1CCN=c1cccc[nH]1)c1cc(=O)[nH]c(=O)[nH]1

> <score_type>
oracle

> <origin>
adg

> <m_score__min__energy>
-14.539999999999999

> <m_primary>
energy

> <minimizedAffinity>
-7.38488

> <minimizedRMSD>
0.91008

> <CNNscore>
0.4283117056

> <CNNaffinity>
5.6823554039

> <CNN_VS>
2.4338192940

> <CNNaffinity_variance>
0.0907089934

$$$$
34:0


 28 30  0  0  0  0  0  0  0  0999 V2000
   57.8515   31.4061   45.0182 C   0  0  0  0  0  0  0  0  0  0  0  0
   57.9170   32.5980   44.2775 C   0  0  0  0  0  0  0  0  0  0  0  0
   58.5572   33.7232   44.8038 C   0  0  0  0  0  0  0  0  0  0  0  0
   59.1481   33.6673   46.0676 C   0  0  0  0  0  0  0  0  0  0  0  0
   59.1117   32.4800   46.8090 C   0  0  0  0  0  0  0  0  0  0  0  0
   58.4694   31.3508   46.2817 C   0  0  0  0  0  0  0  0  0  0  0  0
   59.8640   32.4135   48.4011 S   0  0  0  0  0  0  0  0  0  0  0  0
   58.7861   32.4040   49.4481 O   0  0  0  0  0  0  0  0  0  0  0  0
   60.6892   31.1624   48.5305 O   0  0  0  0  0  0  0  0  0  0  0  0
   60.8802   33.8032   48.6361 N   0  0  0  0  0  0  0  0  0  0  0  0
   60.9254   34.0250   49.6307 H   0  0  0  0  0  0  0  0  0  0  0  0
   62.2294   33.5234   48.1389 C   0  0  0  0  0  0  0  0  0  0  0  0
   63.1859   33.4644   49.2962 C   0  0  0  0  0  0  0  0  0  0  0  0
   64.3703   32.7129   49.2039 C   0  0  0  0  0  0  0  0  0  0  0  0
   65.2398   32.6324   50.2955 C   0  0  0  0  0  0  0  0  0  0  0  0
   64.9287   33.2909   51.4890 C   0  0  0  0  0  0  0  0  0  0  0  0
   63.7445   34.0262   51.5936 C   0  0  0  0  0  0  0  0  0  0  0  0
   62.8730   34.1103   50.5037 C   0  0  0  0  0  0  0  0  0  0  0  0
   56.8463   30.2126   43.2372 O   0  0  0  0  0  0  0  0  0  0  0  0
   57.1720   30.2153   44.4543 C   0  0  0  0  0  0  0  0  0  0  0  0
   56.9211   29.0342   45.2335 N   0  0  0  0  0  0  0  0  0  0  0  0
   57.8056   28.1456   45.5851 C   0  0  0  0  0  0  0  0  0  0  0  0
   59.1417   28.4125   45.5066 N   0  0  0  0  0  0  0  0  0  0  0  0
   60.0823   27.5056   45.8776 C   0  0  0  0  0  0  0  0  0  0  0  0
   59.6937   26.2575   46.3672 C   0  0  0  0  0  0  0  0  0  0  0  0
   58.3340   25.9590   46.4712 C   0  0  0  0  0  0  0  0  0  0  0  0
   57.3808   26.9047   46.0837 C   0  0  0  0  0  0  0  0  0  0  0  0
   56.0273   26.6069   46.1912 O   0  0  0  0  0  0  0  0  0  0  0  0
 19 20  2  0
 20 21  1  0
 21 22  2  0
 22 23  1  0
 23 24  1  0
 24 25  2  0
 25 26  1  0
 26 27  2  0
 27 28  1  0
 20  1  1  0
  1  2  2  0
  2  3  1  0
  3  4  2  0
  4  5  1  0
  5  7  1  0
  7  8  2  0
  7  9  2  0
  7 10  1  0
 10 12  1  0
 12 13  1  0
 13 14  2  0
 14 15  1  0
 15 16  2  0
 16 17  1  0
 17 18  2  0
  5  6  2  0
 27 22  1  0
  6  1  1  0
 18 13  1  0
 10 11  1  0
M  CHG 1  23  -1
M  CHG 1  28  -1
M  END
> <UniqueID>
30

> <SMILES>
O=C(N=c1[n-]cccc1[O-])c1cccc(S(=O)(=O)NCc2ccccc2)c1

> <Energy>
50.43517191038875

> <Genealogy>
O=C(N=c1[n-]cccc1[O-])c1cccc(S(=O)(=O)NCc2ccccc2)c1 (protonated)
O=C(N=c1[n-]cccc1[O-])c1cccc(S(=O)(=O)NCc2ccccc2)c1 (3D coordinates assigned)
O=C(N=c1[n-]cccc1[O-])c1cccc(S(=O)(=O)NCc2ccccc2)c1 (optimized conformer: 50.43517191038875 kcal/mol)

> <smiles>
O=C(N=c1[nH]cccc1O)c1cccc(S(=O)(=O)NCc2ccccc2)c1

> <score_type>
oracle

> <origin>
adg

> <m_score__min__energy>
-14.99

> <m_primary>
energy

> <minimizedAffinity>
-8.11820

> <minimizedRMSD>
1.54438

> <CNNscore>
0.5868949294

> <CNNaffinity>
6.4437756538

> <CNN_VS>
3.7818193436

> <CNNaffinity_variance>
0.0084426785

$$$$
38:0


 29 30  0  0  0  0  0  0  0  0999 V2000
   59.9844   29.5919   47.3604 S   0  0  0  0  0  0  0  0  0  0  0  0
   60.3587   28.8854   48.6335 O   0  0  0  0  0  0  0  0  0  0  0  0
   61.2511   30.0099   46.6678 O   0  0  0  0  0  0  0  0  0  0  0  0
   59.0655   28.5368   46.2895 C   0  0  0  0  0  0  0  0  0  0  0  0
   59.3258   28.5139   44.9160 C   0  0  0  0  0  0  0  0  0  0  0  0
   58.6450   27.6164   44.0872 C   0  0  0  0  0  0  0  0  0  0  0  0
   57.7098   26.7335   44.6284 C   0  0  0  0  0  0  0  0  0  0  0  0
   57.4383   26.7410   46.0009 C   0  0  0  0  0  0  0  0  0  0  0  0
   58.1032   27.6689   46.8256 C   0  0  0  0  0  0  0  0  0  0  0  0
   56.4410   25.8390   46.5047 N   0  0  0  0  0  0  0  0  0  0  0  0
   56.6065   24.4661   46.8820 C   0  0  0  0  0  0  0  0  0  0  0  0
   55.6544   23.8763   47.4528 O   0  0  0  0  0  0  0  0  0  0  0  0
   57.8063   23.7507   46.5702 N   0  0  0  0  0  0  0  0  0  0  0  0
   58.0068   23.0794   45.2913 C   0  0  0  0  0  0  0  0  0  0  0  0
   57.7247   21.5797   45.4149 C   0  0  0  0  0  0  0  0  0  0  0  0
   56.5374   21.1492   44.5501 C   0  0  0  0  0  0  0  0  0  0  0  0
   56.5396   22.0512   43.0138 Cl  0  0  0  0  0  0  0  0  0  0  0  0
   59.0427   31.0088   47.7065 N   0  0  0  0  0  0  0  0  0  0  0  0
   59.7658   33.3470   47.4554 C   0  0  0  0  0  0  0  0  0  0  0  0
   59.7886   34.5452   46.7246 C   0  0  0  0  0  0  0  0  0  0  0  0
   59.1011   34.6450   45.5143 C   0  0  0  0  0  0  0  0  0  0  0  0
   58.3883   33.5505   45.0200 C   0  0  0  0  0  0  0  0  0  0  0  0
   58.3654   32.3506   45.7334 C   0  0  0  0  0  0  0  0  0  0  0  0
   59.0574   32.2316   46.9534 C   0  0  0  0  0  0  0  0  0  0  0  0
   61.5887   31.8066   49.0102 N   0  0  0  0  0  0  0  0  0  0  0  0
   60.6251   33.2407   48.9912 S   0  0  0  0  0  0  0  0  0  0  0  0
   59.6526   33.1902   50.1368 O   0  0  0  0  0  0  0  0  0  0  0  0
   61.5065   34.4465   49.1562 O   0  0  0  0  0  0  0  0  0  0  0  0
   62.0867   31.7434   49.8981 H   0  0  0  0  0  0  0  0  0  0  0  0
 25 26  1  0
 26 27  2  0
 26 28  2  0
 26 19  1  0
 19 20  2  0
 20 21  1  0
 21 22  2  0
 22 23  1  0
 23 24  2  0
 24 18  1  0
 18  1  1  0
  1  2  2  0
  1  3  2  0
  1  4  1  0
  4  5  2  0
  5  6  1  0
  6  7  2  0
  7  8  1  0
  8 10  1  0
 10 11  1  0
 11 12  2  0
 11 13  1  0
 13 14  1  0
 14 15  1  0
 15 16  1  0
 16 17  1  0
  8  9  2  0
 24 19  1  0
  9  4  1  0
 25 29  1  0
M  CHG 1  10  -1
M  CHG 1  13  -1
M  CHG 1  18  -1
M  CHG 1  25  -1
M  END
> <UniqueID>
33

> <SMILES>
[NH-]S(=O)(=O)c1ccccc1[N-]S(=O)(=O)c1cccc([N-]C(=O)[N-]CCCCl)c1

> <Energy>
42.37902846744339

> <Genealogy>
[NH-]S(=O)(=O)c1ccccc1[N-]S(=O)(=O)c1cccc([N-]C(=O)[N-]CCCCl)c1 (protonated)
[NH-]S(=O)(=O)c1ccccc1[N-]S(=O)(=O)c1cccc([N-]C(=O)[N-]CCCCl)c1 (3D coordinates assigned)
[NH-]S(=O)(=O)c1ccccc1[N-]S(=O)(=O)c1cccc([N-]C(=O)[N-]CCCCl)c1 (optimized conformer: 42.37902846744339 kcal/mol)

> <smiles>
NS(=O)(=O)c1ccccc1NS(=O)(=O)c1cccc(NC(=O)NCCCCl)c1

> <score_type>
oracle

> <origin>
adg

> <m_score__min__energy>
-14.26

> <m_primary>
energy

> <minimizedAffinity>
-7.11310

> <minimizedRMSD>
1.47098

> <CNNscore>
0.6223134398

> <CNNaffinity>
6.5816860199

> <CNN_VS>
4.0958714485

> <CNNaffinity_variance>
0.0114655532

$$$$
2:0


 25 27  0  0  0  0  0  0  0  0999 V2000
   59.1963   29.3504   45.0351 C   0  0  0  0  0  0  0  0  0  0  0  0
   59.0994   30.6338   45.4512 C   0  0  0  0  0  0  0  0  0  0  0  0
   58.3423   31.6800   44.7133 C   0  0  0  0  0  0  0  0  0  0  0  0
   57.5922   31.3910   43.7447 O   0  0  0  0  0  0  0  0  0  0  0  0
   58.4120   33.0379   45.1392 N   0  0  0  0  0  0  0  0  0  0  0  0
   59.1038   33.4200   46.3263 C   0  0  0  0  0  0  0  0  0  0  0  0
   59.1192   34.6334   46.6625 O   0  0  0  0  0  0  0  0  0  0  0  0
   59.7427   32.4224   47.1448 N   0  0  0  0  0  0  0  0  0  0  0  0
   59.7444   31.0418   46.7277 C   0  0  0  0  0  0  0  0  0  0  0  0
   60.3319   30.1784   47.4393 O   0  0  0  0  0  0  0  0  0  0  0  0
   58.9344   27.1338   46.1720 N   0  0  0  0  0  0  0  0  0  0  0  0
   58.4135   28.2212   45.5725 C   0  0  0  0  0  0  0  0  0  0  0  0
   57.0527   28.0223   45.4525 C   0  0  0  0  0  0  0  0  0  0  0  0
   56.1582   28.8880   44.8382 O   0  0  0  0  0  0  0  0  0  0  0  0
   56.6956   26.8452   46.0035 N   0  0  0  0  0  0  0  0  0  0  0  0
   57.8718   26.3424   46.4385 C   0  0  0  0  0  0  0  0  0  0  0  0
   57.9603   25.2376   47.0362 O   0  0  0  0  0  0  0  0  0  0  0  0
   60.4695   27.0122   48.0818 C   0  0  0  0  0  0  0  0  0  0  0  0
   60.3276   26.9102   46.5666 C   0  0  0  0  0  0  0  0  0  0  0  0
   60.3841   32.8064   48.3758 C   0  0  0  0  0  0  0  0  0  0  0  0
   59.6827   32.7427   49.5898 C   0  0  0  0  0  0  0  0  0  0  0  0
   60.3067   33.1147   50.7852 C   0  0  0  0  0  0  0  0  0  0  0  0
   61.6329   33.5509   50.7757 C   0  0  0  0  0  0  0  0  0  0  0  0
   62.3393   33.6164   49.5703 C   0  0  0  0  0  0  0  0  0  0  0  0
   61.7184   33.2459   48.3734 C   0  0  0  0  0  0  0  0  0  0  0  0
 18 19  1  0
 19 11  1  0
 11 12  1  0
 12  1  1  0
  1  2  2  0
  2  3  1  0
  3  4  2  0
  3  5  1  0
  5  6  1  0
  6  7  2  0
  6  8  1  0
  8 20  1  0
 20 21  2  0
 21 22  1  0
 22 23  2  0
 23 24  1  0
 24 25  2  0
  8  9  1  0
  9 10  2  0
 12 13  2  0
 13 14  1  0
 13 15  1  0
 15 16  1  0
 16 17  2  0
 16 11  1  0
  9  2  1  0
 25 20  1  0
M  CHG 1   5  -1
M  CHG 1  14  -1
M  CHG 1  15  -1
M  END
> <UniqueID>
3

> <SMILES>
CCn1c(C=C2C(=O)[N-]C(=O)N(c3ccccc3)C2=O)c([O-])[n-]c1=O

> <Energy>
83.04711274521156

> <Genealogy>
CCn1c(C=C2C(=O)[N-]C(=O)N(c3ccccc3)C2=O)c([O-])[n-]c1=O (protonated)
CCn1c(C=C2C(=O)[N-]C(=O)N(c3ccccc3)C2=O)c([O-])[n-]c1=O (3D coordinates assigned)
CCn1c(C=C2C(=O)[N-]C(=O)N(c3ccccc3)C2=O)c([O-])[n-]c1=O (nonaromatic ring conformer: 83.04711274521156 kcal/mol)

> <smiles>
CCn1c(C=C2C(=O)NC(=O)N(c3ccccc3)C2=O)c(O)[nH]c1=O

> <score_type>
oracle

> <origin>
adg

> <m_score__min__energy>
-15.050000000000001

> <m_primary>
energy

> <minimizedAffinity>
-7.20792

> <minimizedRMSD>
2.20261

> <CNNscore>
0.6127111912

> <CNNaffinity>
6.3656234741

> <CNN_VS>
3.9002888203

> <CNNaffinity_variance>
0.3694239557

$$$$
10:0


 24 26  0  0  0  0  0  0  0  0999 V2000
   60.5882   29.7852   47.6115 C   0  0  0  0  0  0  0  0  0  0  0  0
   59.9673   30.7240   46.8787 C   0  0  0  0  0  0  0  0  0  0  0  0
   59.2256   30.5398   45.6984 C   0  0  0  0  0  0  0  0  0  0  0  0
   59.0283   29.4477   44.9338 C   0  0  0  0  0  0  0  0  0  0  0  0
   58.6829   31.7769   45.3870 C   0  0  0  0  0  0  0  0  0  0  0  0
   59.1273   32.6645   46.3429 C   0  0  0  0  0  0  0  0  0  0  0  0
   58.8001   34.1258   46.3697 C   0  0  0  0  0  0  0  0  0  0  0  0
   59.9162   32.0315   47.2379 N   0  0  0  0  0  0  0  0  0  0  0  0
   58.5496   28.1373   45.4140 C   0  0  0  0  0  0  0  0  0  0  0  0
   57.1781   27.8772   45.5715 C   0  0  0  0  0  0  0  0  0  0  0  0
   56.2292   28.8371   45.2377 O   0  0  0  0  0  0  0  0  0  0  0  0
   56.7673   26.6765   46.0571 N   0  0  0  0  0  0  0  0  0  0  0  0
   57.6649   25.7220   46.4134 C   0  0  0  0  0  0  0  0  0  0  0  0
   57.2625   24.6166   46.8578 O   0  0  0  0  0  0  0  0  0  0  0  0
   58.9961   25.9604   46.2961 N   0  0  0  0  0  0  0  0  0  0  0  0
   59.4576   27.1452   45.8148 C   0  0  0  0  0  0  0  0  0  0  0  0
   60.6989   27.3361   45.7258 O   0  0  0  0  0  0  0  0  0  0  0  0
   60.5202   32.6436   48.3906 C   0  0  0  0  0  0  0  0  0  0  0  0
   61.8079   33.1866   48.3110 C   0  0  0  0  0  0  0  0  0  0  0  0
   62.3890   33.7667   49.4391 C   0  0  0  0  0  0  0  0  0  0  0  0
   61.6751   33.7955   50.6384 C   0  0  0  0  0  0  0  0  0  0  0  0
   60.4243   33.2625   50.7007 N   0  0  0  0  0  0  0  0  0  0  0  0
   59.8369   32.6906   49.6143 C   0  0  0  0  0  0  0  0  0  0  0  0
   58.5837   32.1848   49.7214 F   0  0  0  0  0  0  0  0  0  0  0  0
  1  2  2  0
  2  3  1  0
  3  4  2  0
  4  9  1  0
  9 10  2  0
 10 11  1  0
 10 12  1  0
 12 13  1  0
 13 14  2  0
 13 15  1  0
 15 16  1  0
 16 17  2  0
  3  5  1  0
  5  6  2  0
  6  7  1  0
  6  8  1  0
  8 18  1  0
 18 19  2  0
 19 20  1  0
 20 21  2  0
 21 22  1  0
 22 23  2  0
 23 24  1  0
  8  2  1  0
 23 18  1  0
 16  9  1  0
M  CHG 1  11  -1
M  CHG 1  12  -1
M  CHG 1  15  -1
M  END
> <UniqueID>
11

> <SMILES>
C=c1c(=Cc2c([O-])[n-]c(=O)[n-]c2=O)cc(C)n1-c1cccnc1F

> <Energy>
87.4332693448512

> <Genealogy>
C=c1c(=Cc2c([O-])[n-]c(=O)[n-]c2=O)cc(C)n1-c1cccnc1F (protonated)
C=c1c(=Cc2c([O-])[n-]c(=O)[n-]c2=O)cc(C)n1-c1cccnc1F (3D coordinates assigned)
C=c1c(=Cc2c([O-])[n-]c(=O)[n-]c2=O)cc(C)n1-c1cccnc1F (optimized conformer: 87.4332693448512 kcal/mol)

> <smiles>
C=c1c(=Cc2c(O)[nH]c(=O)[nH]c2=O)cc(C)n1-c1cccnc1F

> <score_type>
oracle

> <origin>
adg

> <m_score__min__energy>
-15.08

> <m_primary>
energy

> <minimizedAffinity>
-6.96421

> <minimizedRMSD>
1.42737

> <CNNscore>
0.4760134816

> <CNNaffinity>
7.0572819710

> <CNN_VS>
3.3593614101

> <CNNaffinity_variance>
0.9438574910

$$$$
28:0


 31 35  0  0  0  0  0  0  0  0999 V2000
   58.4894   26.6248   45.3183 C   0  0  0  0  0  0  0  0  0  0  0  0
   58.1184   27.9126   45.3305 C   0  0  0  0  0  0  0  0  0  0  0  0
   57.0793   28.4712   44.6009 C   0  0  0  0  0  0  0  0  0  0  0  0
   57.0092   29.7987   44.8496 N   0  0  0  0  0  0  0  0  0  0  0  0
   57.9690   30.1068   45.7060 N   0  0  0  0  0  0  0  0  0  0  0  0
   58.3234   31.3174   46.2429 C   0  0  0  0  0  0  0  0  0  0  0  0
   57.7091   32.4604   46.0399 N   0  0  0  0  0  0  0  0  0  0  0  0
   59.4088   31.3382   47.0677 N   0  0  0  0  0  0  0  0  0  0  0  0
   60.1247   30.2117   47.3423 C   0  0  0  0  0  0  0  0  0  0  0  0
   61.1441   30.2854   48.1468 N   0  0  0  0  0  0  0  0  0  0  0  0
   59.7420   29.0197   46.8054 N   0  0  0  0  0  0  0  0  0  0  0  0
   58.6559   28.9932   46.0024 C   0  0  0  0  0  0  0  0  0  0  0  0
   55.4512   26.5623   45.9899 O   0  0  0  0  0  0  0  0  0  0  0  0
   56.3511   25.5203   46.1922 C   0  0  0  0  0  0  0  0  0  0  0  0
   55.9874   24.3139   46.6559 N   0  0  0  0  0  0  0  0  0  0  0  0
   57.1448   23.6195   46.6274 C   0  0  0  0  0  0  0  0  0  0  0  0
   57.2234   22.4170   46.9876 O   0  0  0  0  0  0  0  0  0  0  0  0
   58.2106   24.3130   46.1708 N   0  0  0  0  0  0  0  0  0  0  0  0
   57.7050   25.5323   45.9166 C   0  0  0  0  0  0  0  0  0  0  0  0
   54.5477   26.4507   46.2118 H   0  0  0  0  0  0  0  0  0  0  0  0
   61.6541   31.4941   48.7319 C   0  0  0  0  0  0  0  0  0  0  0  0
   62.7566   32.1222   48.1387 C   0  0  0  0  0  0  0  0  0  0  0  0
   63.2890   33.2893   48.6964 C   0  0  0  0  0  0  0  0  0  0  0  0
   62.7368   33.8235   49.8633 C   0  0  0  0  0  0  0  0  0  0  0  0
   63.2547   34.9532   50.4034 F   0  0  0  0  0  0  0  0  0  0  0  0
   61.6578   33.1828   50.4803 C   0  0  0  0  0  0  0  0  0  0  0  0
   61.1175   32.0207   49.9236 C   0  0  0  0  0  0  0  0  0  0  0  0
   60.1026   31.3889   50.5676 F   0  0  0  0  0  0  0  0  0  0  0  0
   57.9525   33.9098   45.9117 C   0  0  0  0  0  0  0  0  0  0  0  0
   59.1454   34.3534   45.0963 C   0  0  0  0  0  0  0  0  0  0  0  0
   59.1522   34.4857   46.6299 C   0  0  0  0  0  0  0  0  0  0  0  0
 13 14  1  0
 14 15  1  0
 15 16  1  0
 16 17  2  0
 16 18  1  0
 18 19  1  0
 19  1  1  0
  1  2  2  0
  2  3  1  0
  3  4  2  0
  4  5  1  0
  5  6  1  0
  6  7  2  0
  7 29  1  0
 29 30  1  0
 30 31  1  0
  6  8  1  0
  8  9  1  0
  9 10  2  0
 10 21  1  0
 21 22  2  0
 22 23  1  0
 23 24  2  0
 24 25  1  0
 24 26  1  0
 26 27  2  0
 27 28  1  0
  9 11  1  0
 11 12  2  0
 19 14  2  0
 12  2  1  0
 12  5  1  0
 31 29  1  0
 27 21  1  0
 13 20  1  0
M  CHG 1   8  -1
M  CHG 1  15  -1
M  CHG 1  18  -1
M  END
> <UniqueID>
28

> <SMILES>
O=c1[n-]c(O)c(C=c2cnn3/c(=N\C4CC4)[n-]c(=Nc4ccc(F)cc4F)nc23)[n-]1

> <Energy>
416.48066299895396

> <Genealogy>
O=c1[n-]c(O)c(C=c2cnn3c(=NC4CC4)[n-]c(=Nc4ccc(F)cc4F)nc23)[n-]1 (protonated)
O=c1[n-]c(O)c(C=c2cnn3/c(=N\C4CC4)[n-]c(=Nc4ccc(F)cc4F)nc23)[n-]1 (cis-trans isomerization)
O=c1[n-]c(O)c(C=c2cnn3/c(=N\C4CC4)[n-]c(=Nc4ccc(F)cc4F)nc23)[n-]1 (3D coordinates assigned)
O=c1[n-]c(O)c(C=c2cnn3/c(=N\C4CC4)[n-]c(=Nc4ccc(F)cc4F)nc23)[n-]1 (nonaromatic ring conformer: 416.48066299895396 kcal/mol)

> <smiles>
O=c1[nH]c(O)c(C=c2cnn3c(=NC4CC4)[nH]c(=Nc4ccc(F)cc4F)nc23)[nH]1

> <score_type>
oracle

> <origin>
adg

> <m_score__min__energy>
-14.529999999999999

> <m_primary>
energy

> <minimizedAffinity>
-10.68538

> <minimizedRMSD>
0.52025

> <CNNscore>
0.5860762000

> <CNNaffinity>
7.1067771912

> <CNN_VS>
4.1651129723

> <CNNaffinity_variance>
0.0909625068

$$$$
45:0


 27 30  0  0  0  0  0  0  0  0999 V2000
   58.8613   29.9494   46.6532 C   0  0  0  0  0  0  0  0  0  0  0  0
   58.7004   29.4818   45.3414 C   0  0  0  0  0  0  0  0  0  0  0  0
   58.4065   28.1377   45.0962 C   0  0  0  0  0  0  0  0  0  0  0  0
   58.2863   27.2285   46.1624 C   0  0  0  0  0  0  0  0  0  0  0  0
   58.4538   27.6978   47.4762 C   0  0  0  0  0  0  0  0  0  0  0  0
   58.7489   29.0411   47.7213 C   0  0  0  0  0  0  0  0  0  0  0  0
   58.9676   29.4445   49.0002 F   0  0  0  0  0  0  0  0  0  0  0  0
   58.2449   32.2249   46.7728 O   0  0  0  0  0  0  0  0  0  0  0  0
   59.1700   31.3753   46.8914 C   0  0  0  0  0  0  0  0  0  0  0  0
   60.4920   31.8138   47.2591 N   0  0  0  0  0  0  0  0  0  0  0  0
   61.3710   30.9675   48.0796 C   0  0  0  0  0  0  0  0  0  0  0  0
   62.0111   31.7669   49.2285 C   0  0  0  0  0  0  0  0  0  0  0  0
   62.2873   33.2668   48.9084 C   0  0  0  0  0  0  0  0  0  0  0  0
   62.3290   33.4844   47.3788 C   0  0  0  0  0  0  0  0  0  0  0  0
   60.9764   33.1082   46.7611 C   0  0  0  0  0  0  0  0  0  0  0  0
   63.5510   33.7156   49.5563 N   0  0  0  0  0  0  0  0  0  0  0  0
   63.3918   34.0039   50.9888 C   0  0  0  0  0  0  0  0  0  0  0  0
   64.7430   33.7780   51.6495 C   0  0  0  0  0  0  0  0  0  0  0  0
   65.5461   32.9574   50.6599 C   0  0  0  0  0  0  0  0  0  0  0  0
   64.6005   32.6886   49.5024 C   0  0  0  0  0  0  0  0  0  0  0  0
   57.9672   25.7979   45.9316 C   0  0  0  0  0  0  0  0  0  0  0  0
   58.9006   24.8610   45.6819 N   0  0  0  0  0  0  0  0  0  0  0  0
   58.1851   23.7275   45.5255 C   0  0  0  0  0  0  0  0  0  0  0  0
   58.7205   22.6151   45.2799 O   0  0  0  0  0  0  0  0  0  0  0  0
   56.8511   23.8809   45.6497 N   0  0  0  0  0  0  0  0  0  0  0  0
   56.7249   25.1945   45.9024 C   0  0  0  0  0  0  0  0  0  0  0  0
   55.4969   25.8214   46.0651 O   0  0  0  0  0  0  0  0  0  0  0  0
  8  9  2  0
  9  1  1  0
  1  2  2  0
  2  3  1  0
  3  4  2  0
  4 21  1  0
 21 22  1  0
 22 23  1  0
 23 24  2  0
 23 25  1  0
 25 26  1  0
 26 27  1  0
  4  5  1  0
  5  6  2  0
  6  7  1  0
  9 10  1  0
 10 11  1  0
 11 12  1  0
 12 13  1  0
 13 16  1  0
 16 17  1  0
 17 18  1  0
 18 19  1  0
 19 20  1  0
 13 14  1  0
 14 15  1  0
  6  1  1  0
 15 10  1  0
 26 21  2  0
 20 16  1  0
M  CHG 1  22  -1
M  CHG 1  25  -1
M  CHG 1  27  -1
M  END
> <UniqueID>
45

> <SMILES>
O=C(c1ccc(-c2[n-]c(=O)[n-]c2[O-])cc1F)N1CCC(N2CCCC2)CC1

> <Energy>
95.2135911274587

> <Genealogy>
O=C(c1ccc(-c2[n-]c(=O)[n-]c2[O-])cc1F)N1CCC(N2CCCC2)CC1 (protonated)
O=C(c1ccc(-c2[n-]c(=O)[n-]c2[O-])cc1F)N1CCC(N2CCCC2)CC1 (3D coordinates assigned)
O=C(c1ccc(-c2[n-]c(=O)[n-]c2[O-])cc1F)N1CCC(N2CCCC2)CC1 (nonaromatic ring conformer: 95.2135911274587 kcal/mol)

> <smiles>
O=C(c1ccc(-c2[nH]c(=O)[nH]c2O)cc1F)N1CCC(N2CCCC2)CC1

> <score_type>
oracle

> <origin>
adg

> <m_score__min__energy>
-14.9

> <m_primary>
energy

> <minimizedAffinity>
-8.43064

> <minimizedRMSD>
0.89108

> <CNNscore>
0.1251600981

> <CNNaffinity>
6.1182560921

> <CNN_VS>
0.7657615542

> <CNNaffinity_variance>
0.1345653981

$$$$
76:0


 30 32  0  0  0  0  0  0  0  0999 V2000
   59.4915   33.7682   45.4520 C   0  0  0  0  0  0  0  0  0  0  0  0
   59.5757   33.4127   46.9158 C   0  0  0  0  0  0  0  0  0  0  0  0
   60.0676   34.3440   47.8420 C   0  0  0  0  0  0  0  0  0  0  0  0
   60.1340   34.0217   49.2004 C   0  0  0  0  0  0  0  0  0  0  0  0
   59.7004   32.7706   49.6554 C   0  0  0  0  0  0  0  0  0  0  0  0
   59.2411   31.8234   48.7235 C   0  0  0  0  0  0  0  0  0  0  0  0
   59.1769   32.1439   47.3658 C   0  0  0  0  0  0  0  0  0  0  0  0
   59.7997   32.4763   51.0555 N   0  0  0  0  0  0  0  0  0  0  0  0
   58.8367   32.8001   52.0675 C   0  0  0  0  0  0  0  0  0  0  0  0
   58.7949   33.9661   52.5492 O   0  0  0  0  0  0  0  0  0  0  0  0
   57.9272   31.7527   52.5875 C   0  0  0  0  0  0  0  0  0  0  0  0
   57.1100   31.0084   51.7180 C   0  0  0  0  0  0  0  0  0  0  0  0
   56.2787   30.0507   52.2092 N   0  0  0  0  0  0  0  0  0  0  0  0
   56.2055   29.7794   53.5392 C   0  0  0  0  0  0  0  0  0  0  0  0
   56.9953   30.4908   54.4420 C   0  0  0  0  0  0  0  0  0  0  0  0
   57.8568   31.4797   53.9652 C   0  0  0  0  0  0  0  0  0  0  0  0
   58.1311   33.4960   44.8558 C   0  0  0  0  0  0  0  0  0  0  0  0
   57.1667   34.2305   45.1946 O   0  0  0  0  0  0  0  0  0  0  0  0
   58.0911   31.1231   44.2171 C   0  0  0  0  0  0  0  0  0  0  0  0
   57.8793   32.3859   43.9795 N   0  0  0  0  0  0  0  0  0  0  0  0
   57.0633   30.0701   44.1314 C   0  0  0  0  0  0  0  0  0  0  0  0
   56.3569   30.0024   43.0889 O   0  0  0  0  0  0  0  0  0  0  0  0
   56.9236   29.0970   45.1790 N   0  0  0  0  0  0  0  0  0  0  0  0
   57.8444   28.2932   45.6286 C   0  0  0  0  0  0  0  0  0  0  0  0
   59.1585   28.6619   45.6485 N   0  0  0  0  0  0  0  0  0  0  0  0
   60.1342   27.8322   46.1023 C   0  0  0  0  0  0  0  0  0  0  0  0
   59.8066   26.5562   46.5660 C   0  0  0  0  0  0  0  0  0  0  0  0
   58.4720   26.1494   46.5560 C   0  0  0  0  0  0  0  0  0  0  0  0
   57.4827   27.0162   46.0845 C   0  0  0  0  0  0  0  0  0  0  0  0
   56.1528   26.6071   46.0709 O   0  0  0  0  0  0  0  0  0  0  0  0
 19 20  2  0
 20 17  1  0
 17 18  2  0
 17  1  1  0
  1  2  1  0
  2  3  2  0
  3  4  1  0
  4  5  2  0
  5  8  1  0
  8  9  1  0
  9 10  2  0
  9 11  1  0
 11 12  2  0
 12 13  1  0
 13 14  2  0
 14 15  1  0
 15 16  2  0
  5  6  1  0
  6  7  2  0
 19 21  1  0
 21 22  2  0
 21 23  1  0
 23 24  2  0
 24 25  1  0
 25 26  1  0
 26 27  2  0
 27 28  1  0
 28 29  2  0
 29 30  1  0
  7  2  1  0
 29 24  1  0
 16 11  1  0
M  CHG 1   8  -1
M  CHG 1  25  -1
M  CHG 1  30  -1
M  END
> <UniqueID>
73

> <SMILES>
O=C(Cc1ccc([N-]C(=O)c2cccnc2)cc1)N=CC(=O)/N=c1\[n-]cccc1[O-]

> <Energy>
63.69321818365782

> <Genealogy>
O=C(C=NC(=O)Cc1ccc([N-]C(=O)c2cccnc2)cc1)N=c1[n-]cccc1[O-] (protonated)
O=C(Cc1ccc([N-]C(=O)c2cccnc2)cc1)N=CC(=O)/N=c1\[n-]cccc1[O-] (cis-trans isomerization)
O=C(Cc1ccc([N-]C(=O)c2cccnc2)cc1)N=CC(=O)/N=c1\[n-]cccc1[O-] (3D coordinates assigned)
O=C(Cc1ccc([N-]C(=O)c2cccnc2)cc1)N=CC(=O)/N=c1\[n-]cccc1[O-] (optimized conformer: 63.69321818365782 kcal/mol)

> <smiles>
O=C(C=NC(=O)Cc1ccc(NC(=O)c2cccnc2)cc1)N=c1[nH]cccc1O

> <score_type>
oracle

> <origin>
adg

> <m_score__min__energy>
-15.27

> <m_primary>
energy

> <minimizedAffinity>
-8.01028

> <minimizedRMSD>
0.88518

> <CNNscore>
0.3304047585

> <CNNaffinity>
6.5139451027

> <CNN_VS>
2.1522383690

> <CNNaffinity_variance>
0.0042427951

$$$$
52:0


 32 35  0  0  0  0  0  0  0  0999 V2000
   58.7168   30.4057   47.2089 C   0  0  0  0  0  0  0  0  0  0  0  0
   58.9986   29.5635   48.2908 C   0  0  0  0  0  0  0  0  0  0  0  0
   59.9298   29.9394   49.2764 C   0  0  0  0  0  0  0  0  0  0  0  0
   60.5535   31.1972   49.1744 C   0  0  0  0  0  0  0  0  0  0  0  0
   60.2622   32.0541   48.1050 C   0  0  0  0  0  0  0  0  0  0  0  0
   59.3370   31.6613   47.1326 C   0  0  0  0  0  0  0  0  0  0  0  0
   60.2316   29.0136   50.3987 C   0  0  0  0  0  0  0  0  0  0  0  0
   59.9133   29.2659   51.7393 C   0  0  0  0  0  0  0  0  0  0  0  0
   60.4471   27.9677   52.6672 S   0  0  0  0  0  0  0  0  0  0  0  0
   61.0556   27.1495   51.3388 C   0  0  0  0  0  0  0  0  0  0  0  0
   61.6257   26.0292   51.3917 O   0  0  0  0  0  0  0  0  0  0  0  0
   60.8733   27.8288   50.1897 N   0  0  0  0  0  0  0  0  0  0  0  0
   61.0629   33.6215   47.9777 S   0  0  0  0  0  0  0  0  0  0  0  0
   60.7790   34.2020   46.6212 O   0  0  0  0  0  0  0  0  0  0  0  0
   60.4870   34.5575   49.0048 O   0  0  0  0  0  0  0  0  0  0  0  0
   62.7968   33.5075   48.2029 N   0  0  0  0  0  0  0  0  0  0  0  0
   63.2917   34.4248   49.2471 C   0  0  0  0  0  0  0  0  0  0  0  0
   63.1275   33.8609   50.6788 C   0  0  0  0  0  0  0  0  0  0  0  0
   62.7360   32.5023   50.7044 O   0  0  0  0  0  0  0  0  0  0  0  0
   63.5560   31.7555   49.8389 C   0  0  0  0  0  0  0  0  0  0  0  0
   63.2607   32.1145   48.3736 C   0  0  0  0  0  0  0  0  0  0  0  0
   57.7572   29.9771   46.2329 N   0  0  0  0  0  0  0  0  0  0  0  0
   57.9359   28.9219   45.2779 C   0  0  0  0  0  0  0  0  0  0  0  0
   57.7440   29.1501   44.0523 O   0  0  0  0  0  0  0  0  0  0  0  0
   57.0543   24.1506   46.7287 C   0  0  0  0  0  0  0  0  0  0  0  0
   58.0041   25.2760   46.4291 C   0  0  0  0  0  0  0  0  0  0  0  0
   59.3876   25.0657   46.5168 C   0  0  0  0  0  0  0  0  0  0  0  0
   60.2752   26.0947   46.2092 C   0  0  0  0  0  0  0  0  0  0  0  0
   59.7947   27.3425   45.8102 C   0  0  0  0  0  0  0  0  0  0  0  0
   58.4124   27.5821   45.7104 C   0  0  0  0  0  0  0  0  0  0  0  0
   57.5145   26.5288   46.0105 C   0  0  0  0  0  0  0  0  0  0  0  0
   56.1402   26.7093   45.8811 O   0  0  0  0  0  0  0  0  0  0  0  0
 25 26  1  0
 26 27  2  0
 27 28  1  0
 28 29  2  0
 29 30  1  0
 30 23  1  0
 23 24  2  0
 23 22  1  0
 22  1  1  0
  1  2  2  0
  2  3  1  0
  3  7  1  0
  7  8  2  0
  8  9  1  0
  9 10  1  0
 10 11  2  0
 10 12  1  0
  3  4  2  0
  4  5  1  0
  5 13  1  0
 13 14  2  0
 13 15  2  0
 13 16  1  0
 16 17  1  0
 17 18  1  0
 18 19  1  0
 19 20  1  0
 20 21  1  0
  5  6  2  0
 30 31  2  0
 31 32  1  0
 31 26  1  0
  6  1  1  0
 12  7  1  0
 21 16  1  0
M  CHG 1  12  -1
M  CHG 1  22  -1
M  CHG 1  32  -1
M  END
> <UniqueID>
50

> <SMILES>
Cc1cccc(C(=O)[N-]c2cc(-c3csc(=O)[n-]3)cc(S(=O)(=O)N3CCOCC3)c2)c1[O-]

> <Energy>
102.54793869425218

> <Genealogy>
Cc1cccc(C(=O)[N-]c2cc(-c3csc(=O)[n-]3)cc(S(=O)(=O)N3CCOCC3)c2)c1[O-] (protonated)
Cc1cccc(C(=O)[N-]c2cc(-c3csc(=O)[n-]3)cc(S(=O)(=O)N3CCOCC3)c2)c1[O-] (3D coordinates assigned)
Cc1cccc(C(=O)[N-]c2cc(-c3csc(=O)[n-]3)cc(S(=O)(=O)N3CCOCC3)c2)c1[O-] (nonaromatic ring conformer: 102.54793869425218 kcal/mol)

> <smiles>
Cc1cccc(C(=O)Nc2cc(-c3csc(=O)[nH]3)cc(S(=O)(=O)N3CCOCC3)c2)c1O

> <score_type>
oracle

> <origin>
adg

> <m_score__min__energy>
-15.199999999999999

> <m_primary>
energy

> <minimizedAffinity>
-6.15160

> <minimizedRMSD>
1.07450

> <CNNscore>
0.2571848035

> <CNNaffinity>
6.4474253654

> <CNN_VS>
1.6581798792

> <CNNaffinity_variance>
0.0195460822

$$$$
54:0


 26 29  0  0  0  0  0  0  0  0999 V2000
   54.8050   28.3005   54.7607 C   0  0  0  0  0  0  0  0  0  0  0  0
   55.2028   29.3590   53.7773 C   0  0  0  0  0  0  0  0  0  0  0  0
   54.3579   30.2010   53.0478 C   0  0  0  0  0  0  0  0  0  0  0  0
   55.0700   30.9371   52.1629 N   0  0  0  0  0  0  0  0  0  0  0  0
   56.3530   30.5682   52.3226 C   0  0  0  0  0  0  0  0  0  0  0  0
   57.4551   31.0279   51.6070 C   0  0  0  0  0  0  0  0  0  0  0  0
   58.7121   30.4772   51.9065 C   0  0  0  0  0  0  0  0  0  0  0  0
   58.8505   29.4805   52.9080 C   0  0  0  0  0  0  0  0  0  0  0  0
   57.7048   29.0283   53.6023 C   0  0  0  0  0  0  0  0  0  0  0  0
   56.4725   29.6031   53.2894 C   0  0  0  0  0  0  0  0  0  0  0  0
   54.7199   31.6061   51.5312 H   0  0  0  0  0  0  0  0  0  0  0  0
   60.1415   28.9067   53.1892 N   0  0  0  0  0  0  0  0  0  0  0  0
   60.2429   27.6416   53.9234 C   0  0  0  0  0  0  0  0  0  0  0  0
   61.6138   26.9824   53.6885 C   0  0  0  0  0  0  0  0  0  0  0  0
   62.0775   27.1618   52.2954 N   0  0  0  0  0  0  0  0  0  0  0  0
   61.2437   26.4116   51.3400 C   0  0  0  0  0  0  0  0  0  0  0  0
   62.2218   28.5886   51.9013 C   0  0  0  0  0  0  0  0  0  0  0  0
   61.3769   29.5591   52.7475 C   0  0  0  0  0  0  0  0  0  0  0  0
   52.8599   30.2269   53.1158 C   0  0  0  0  0  0  0  0  0  0  0  0
   52.2877   30.4784   51.7551 C   0  0  0  0  0  0  0  0  0  0  0  0
   52.3862   29.6164   50.7264 N   0  0  0  0  0  0  0  0  0  0  0  0
   51.7001   30.2328   49.7399 C   0  0  0  0  0  0  0  0  0  0  0  0
   51.5640   29.7302   48.5939 O   0  0  0  0  0  0  0  0  0  0  0  0
   51.1682   31.4262   50.0782 N   0  0  0  0  0  0  0  0  0  0  0  0
   51.5472   31.5645   51.3581 C   0  0  0  0  0  0  0  0  0  0  0  0
   51.2238   32.6631   52.1447 O   0  0  0  0  0  0  0  0  0  0  0  0
  1  2  1  0
  2  3  2  0
  3 19  1  0
 19 20  1  0
 20 21  1  0
 21 22  1  0
 22 23  2  0
 22 24  1  0
 24 25  1  0
 25 26  1  0
  3  4  1  0
  4  5  1  0
  5  6  2  0
  6  7  1  0
  7  8  2  0
  8 12  1  0
 12 13  1  0
 13 14  1  0
 14 15  1  0
 15 16  1  0
 15 17  1  0
 17 18  1  0
  8  9  1  0
  9 10  2  0
 10  2  1  0
 25 20  2  0
 10  5  1  0
 18 12  1  0
  4 11  1  0
M  CHG 1  21  -1
M  CHG 1  24  -1
M  CHG 1  26  -1
M  END
> <UniqueID>
52

> <SMILES>
Cc1c(Cc2[n-]c(=O)[n-]c2[O-])[nH]c2ccc(N3CCN(C)CC3)cc12

> <Energy>
118.23410409812392

> <Genealogy>
Cc1c(Cc2[n-]c(=O)[n-]c2[O-])[nH]c2ccc(N3CCN(C)CC3)cc12 (protonated)
Cc1c(Cc2[n-]c(=O)[n-]c2[O-])[nH]c2ccc(N3CCN(C)CC3)cc12 (3D coordinates assigned)
Cc1c(Cc2[n-]c(=O)[n-]c2[O-])[nH]c2ccc(N3CCN(C)CC3)cc12 (nonaromatic ring conformer: 118.23410409812392 kcal/mol)

> <smiles>
Cc1c(Cc2[nH]c(=O)[nH]c2O)[nH]c2ccc(N3CCN(C)CC3)cc12

> <score_type>
oracle

> <origin>
adg

> <m_score__min__energy>
-16.32

> <m_primary>
energy

> <minimizedAffinity>
-4.83883

> <minimizedRMSD>
1.19518

> <CNNscore>
0.1600411236

> <CNNaffinity>
4.6932444572

> <CNN_VS>
0.7511121035

> <CNNaffinity_variance>
0.4892537594

$$$$
16:0


 30 32  0  0  0  0  0  0  0  0999 V2000
   59.2373   30.8617   47.0863 C   0  0  0  0  0  0  0  0  0  0  0  0
   58.7001   31.6264   48.1341 C   0  0  0  0  0  0  0  0  0  0  0  0
   59.2615   31.5642   49.4118 C   0  0  0  0  0  0  0  0  0  0  0  0
   60.3702   30.7409   49.6567 C   0  0  0  0  0  0  0  0  0  0  0  0
   60.9128   29.9844   48.6103 C   0  0  0  0  0  0  0  0  0  0  0  0
   60.3525   30.0449   47.3317 C   0  0  0  0  0  0  0  0  0  0  0  0
   61.1164   30.6858   51.2507 S   0  0  0  0  0  0  0  0  0  0  0  0
   60.1605   30.1078   52.2569 O   0  0  0  0  0  0  0  0  0  0  0  0
   62.3347   29.8082   51.1886 O   0  0  0  0  0  0  0  0  0  0  0  0
   61.5852   32.2863   51.7341 N   0  0  0  0  0  0  0  0  0  0  0  0
   61.6529   32.3266   52.7511 H   0  0  0  0  0  0  0  0  0  0  0  0
   62.8842   32.6214   51.1467 C   0  0  0  0  0  0  0  0  0  0  0  0
   62.7071   32.9600   49.6931 C   0  0  0  0  0  0  0  0  0  0  0  0
   61.7029   33.8554   49.2946 C   0  0  0  0  0  0  0  0  0  0  0  0
   61.5153   34.1457   47.9383 C   0  0  0  0  0  0  0  0  0  0  0  0
   62.3212   33.5351   46.9743 C   0  0  0  0  0  0  0  0  0  0  0  0
   63.3134   32.6303   47.3633 C   0  0  0  0  0  0  0  0  0  0  0  0
   63.5042   32.3377   48.7173 C   0  0  0  0  0  0  0  0  0  0  0  0
   58.6606   30.9592   45.6962 C   0  0  0  0  0  0  0  0  0  0  0  0
   58.6723   29.6051   44.9766 C   0  0  0  0  0  0  0  0  0  0  0  0
   56.3748   28.9794   45.2133 O   0  0  0  0  0  0  0  0  0  0  0  0
   57.5764   28.7039   45.4713 C   0  0  0  0  0  0  0  0  0  0  0  0
   57.8760   27.6156   46.3517 N   0  0  0  0  0  0  0  0  0  0  0  0
   57.7867   26.3393   46.0979 C   0  0  0  0  0  0  0  0  0  0  0  0
   58.9451   25.6280   46.0151 N   0  0  0  0  0  0  0  0  0  0  0  0
   58.9698   24.2959   45.7482 C   0  0  0  0  0  0  0  0  0  0  0  0
   57.7769   23.6023   45.5501 C   0  0  0  0  0  0  0  0  0  0  0  0
   56.5665   24.2871   45.6448 C   0  0  0  0  0  0  0  0  0  0  0  0
   56.5534   25.6557   45.9300 C   0  0  0  0  0  0  0  0  0  0  0  0
   55.3249   26.2930   46.0706 O   0  0  0  0  0  0  0  0  0  0  0  0
 21 22  2  0
 22 20  1  0
 20 19  1  0
 19  1  1  0
  1  2  2  0
  2  3  1  0
  3  4  2  0
  4  7  1  0
  7  8  2  0
  7  9  2  0
  7 10  1  0
 10 12  1  0
 12 13  1  0
 13 14  2  0
 14 15  1  0
 15 16  2  0
 16 17  1  0
 17 18  2  0
  4  5  1  0
  5  6  2  0
 22 23  1  0
 23 24  2  0
 24 25  1  0
 25 26  1  0
 26 27  2  0
 27 28  1  0
 28 29  2  0
 29 30  1  0
  6  1  1  0
 29 24  1  0
 18 13  1  0
 10 11  1  0
M  CHG 1  25  -1
M  CHG 1  30  -1
M  END
> <UniqueID>
16

> <SMILES>
O=C(CCc1ccc(S(=O)(=O)NCc2ccccc2)cc1)N=c1[n-]cccc1[O-]

> <Energy>
57.89965745571056

> <Genealogy>
O=C(CCc1ccc(S(=O)(=O)NCc2ccccc2)cc1)N=c1[n-]cccc1[O-] (protonated)
O=C(CCc1ccc(S(=O)(=O)NCc2ccccc2)cc1)N=c1[n-]cccc1[O-] (3D coordinates assigned)
O=C(CCc1ccc(S(=O)(=O)NCc2ccccc2)cc1)N=c1[n-]cccc1[O-] (optimized conformer: 57.89965745571056 kcal/mol)

> <smiles>
O=C(CCc1ccc(S(=O)(=O)NCc2ccccc2)cc1)N=c1[nH]cccc1O

> <score_type>
oracle

> <origin>
adg

> <m_score__min__energy>
-14.83

> <m_primary>
energy

> <minimizedAffinity>
-6.62349

> <minimizedRMSD>
2.19446

> <CNNscore>
0.3440878391

> <CNNaffinity>
6.6369671822

> <CNN_VS>
2.2836997509

> <CNNaffinity_variance>
0.2330887914

$$$$
64:0


 27 29  0  0  0  0  0  0  0  0999 V2000
   58.3527   29.2242   45.6353 C   0  0  0  0  0  0  0  0  0  0  0  0
   57.1961   29.7253   45.0820 C   0  0  0  0  0  0  0  0  0  0  0  0
   56.1046   28.9733   44.6696 O   0  0  0  0  0  0  0  0  0  0  0  0
   57.2549   31.0684   44.9891 N   0  0  0  0  0  0  0  0  0  0  0  0
   58.4654   31.3551   45.5146 C   0  0  0  0  0  0  0  0  0  0  0  0
   58.8872   32.5364   45.6394 O   0  0  0  0  0  0  0  0  0  0  0  0
   59.1657   30.2680   45.9146 N   0  0  0  0  0  0  0  0  0  0  0  0
   57.8329   27.1213   46.7874 C   0  0  0  0  0  0  0  0  0  0  0  0
   58.6041   27.8064   45.9394 C   0  0  0  0  0  0  0  0  0  0  0  0
   58.0898   25.6728   47.0747 C   0  0  0  0  0  0  0  0  0  0  0  0
   55.8257   22.5988   43.1838 O   0  0  0  0  0  0  0  0  0  0  0  0
   56.3401   23.3052   44.0889 C   0  0  0  0  0  0  0  0  0  0  0  0
   57.6835   23.1619   44.4197 C   0  0  0  0  0  0  0  0  0  0  0  0
   58.2013   23.9425   45.4010 N   0  0  0  0  0  0  0  0  0  0  0  0
   57.4517   24.8354   46.0552 N   0  0  0  0  0  0  0  0  0  0  0  0
   56.1309   24.9889   45.7255 C   0  0  0  0  0  0  0  0  0  0  0  0
   55.4111   25.8405   46.3144 O   0  0  0  0  0  0  0  0  0  0  0  0
   55.5876   24.2196   44.7486 N   0  0  0  0  0  0  0  0  0  0  0  0
   60.3951   30.2794   46.7143 C   0  0  0  0  0  0  0  0  0  0  0  0
   60.1092   30.8022   48.0971 C   0  0  0  0  0  0  0  0  0  0  0  0
   60.6716   32.0159   48.5247 C   0  0  0  0  0  0  0  0  0  0  0  0
   60.3752   32.5193   49.7946 C   0  0  0  0  0  0  0  0  0  0  0  0
   59.5098   31.8219   50.6415 C   0  0  0  0  0  0  0  0  0  0  0  0
   58.9335   30.6167   50.2199 C   0  0  0  0  0  0  0  0  0  0  0  0
   58.0639   29.9155   51.0514 O   0  0  0  0  0  0  0  0  0  0  0  0
   59.2324   30.1121   48.9496 C   0  0  0  0  0  0  0  0  0  0  0  0
   57.8598   30.2482   51.9033 H   0  0  0  0  0  0  0  0  0  0  0  0
 11 12  2  0
 12 13  1  0
 13 14  2  0
 14 15  1  0
 15 10  1  0
 10  8  1  0
  8  9  2  0
  9  1  1  0
  1  2  2  0
  2  3  1  0
  2  4  1  0
  4  5  1  0
  5  6  2  0
  5  7  1  0
  7 19  1  0
 19 20  1  0
 20 21  2  0
 21 22  1  0
 22 23  2  0
 23 24  1  0
 24 25  1  0
 24 26  2  0
 15 16  1  0
 16 17  2  0
 16 18  1  0
 18 12  1  0
  7  1  1  0
 26 20  1  0
 25 27  1  0
M  CHG 1   3  -1
M  CHG 1   4  -1
M  CHG 1  18  -1
M  END
> <UniqueID>
60

> <SMILES>
O=c1cnn(CC=Cc2c([O-])[n-]c(=O)n2Cc2cccc(O)c2)c(=O)[n-]1

> <Energy>
73.28486989872145

> <Genealogy>
O=c1cnn(CC=Cc2c([O-])[n-]c(=O)n2Cc2cccc(O)c2)c(=O)[n-]1 (protonated)
O=c1cnn(CC=Cc2c([O-])[n-]c(=O)n2Cc2cccc(O)c2)c(=O)[n-]1 (3D coordinates assigned)
O=c1cnn(CC=Cc2c([O-])[n-]c(=O)n2Cc2cccc(O)c2)c(=O)[n-]1 (optimized conformer: 73.28486989872145 kcal/mol)

> <smiles>
O=c1cnn(CC=Cc2c(O)[nH]c(=O)n2Cc2cccc(O)c2)c(=O)[nH]1

> <score_type>
oracle

> <origin>
adg

> <m_score__min__energy>
-14.220000000000001

> <m_primary>
energy

> <minimizedAffinity>
-7.54790

> <minimizedRMSD>
1.26652

> <CNNscore>
0.1814843267

> <CNNaffinity>
6.3269615173

> <CNN_VS>
1.1482443810

> <CNNaffinity_variance>
0.3302244246

$$$$
73:0


 32 34  0  0  0  0  0  0  0  0999 V2000
   58.2866   31.4074   44.8443 C   0  0  0  0  0  0  0  0  0  0  0  0
   59.3036   30.8068   45.5149 N   0  0  0  0  0  0  0  0  0  0  0  0
   59.1677   29.5514   46.0146 C   0  0  0  0  0  0  0  0  0  0  0  0
   60.1248   29.0267   46.6461 O   0  0  0  0  0  0  0  0  0  0  0  0
   57.9732   28.8476   45.8231 C   0  0  0  0  0  0  0  0  0  0  0  0
   56.9274   29.4932   45.1400 C   0  0  0  0  0  0  0  0  0  0  0  0
   55.6924   28.8711   44.9738 O   0  0  0  0  0  0  0  0  0  0  0  0
   57.1111   30.7527   44.6614 N   0  0  0  0  0  0  0  0  0  0  0  0
   55.5572   28.0034   45.3005 H   0  0  0  0  0  0  0  0  0  0  0  0
   58.4811   33.0829   44.2361 S   0  0  0  0  0  0  0  0  0  0  0  0
   57.5136   33.8473   45.5827 C   0  0  0  0  0  0  0  0  0  0  0  0
   58.2326   33.7128   46.8857 C   0  0  0  0  0  0  0  0  0  0  0  0
   57.8044   32.9050   47.7518 O   0  0  0  0  0  0  0  0  0  0  0  0
   59.4102   34.4953   47.1247 N   0  0  0  0  0  0  0  0  0  0  0  0
   63.1449   33.2172   48.7090 C   0  0  0  0  0  0  0  0  0  0  0  0
   62.1340   33.6467   49.5754 C   0  0  0  0  0  0  0  0  0  0  0  0
   60.9013   34.0720   49.0752 C   0  0  0  0  0  0  0  0  0  0  0  0
   60.6515   34.0457   47.6892 C   0  0  0  0  0  0  0  0  0  0  0  0
   61.6690   33.6339   46.8215 C   0  0  0  0  0  0  0  0  0  0  0  0
   62.9049   33.2165   47.3226 C   0  0  0  0  0  0  0  0  0  0  0  0
   64.4848   32.0379   50.4546 C   0  0  0  0  0  0  0  0  0  0  0  0
   64.3650   32.8028   49.2628 O   0  0  0  0  0  0  0  0  0  0  0  0
   57.8162   27.5376   46.3874 N   0  0  0  0  0  0  0  0  0  0  0  0
   57.2013   26.4170   45.7360 C   0  0  0  0  0  0  0  0  0  0  0  0
   56.1719   25.9030   46.2504 O   0  0  0  0  0  0  0  0  0  0  0  0
   57.8143   25.7733   44.5220 C   0  0  0  0  0  0  0  0  0  0  0  0
   57.5046   24.3009   44.5089 C   0  0  0  0  0  0  0  0  0  0  0  0
   56.5773   23.7837   43.5879 C   0  0  0  0  0  0  0  0  0  0  0  0
   56.3213   22.4084   43.5437 C   0  0  0  0  0  0  0  0  0  0  0  0
   56.9883   21.5443   44.4175 C   0  0  0  0  0  0  0  0  0  0  0  0
   57.9173   22.0514   45.3308 C   0  0  0  0  0  0  0  0  0  0  0  0
   58.1802   23.4238   45.3768 C   0  0  0  0  0  0  0  0  0  0  0  0
 21 22  1  0
 22 15  1  0
 15 16  2  0
 16 17  1  0
 17 18  2  0
 18 14  1  0
 14 12  1  0
 12 13  2  0
 12 11  1  0
 11 10  1  0
 10  1  1  0
  1  2  2  0
  2  3  1  0
  3  4  2  0
  3  5  1  0
  5 23  1  0
 23 24  1  0
 24 25  2  0
 24 26  1  0
 26 27  1  0
 27 28  2  0
 28 29  1  0
 29 30  2  0
 30 31  1  0
 31 32  2  0
  5  6  2  0
  6  7  1  0
  6  8  1  0
 18 19  1  0
 19 20  2  0
 20 15  1  0
  8  1  1  0
 32 27  1  0
  7  9  1  0
M  CHG 1   8  -1
M  CHG 1  14  -1
M  CHG 1  23  -1
M  END
> <UniqueID>
69

> <SMILES>
COc1ccc([N-]C(=O)CSc2nc(=O)c([N-]C(=O)Cc3ccccc3)c(O)[n-]2)cc1

> <Energy>
53.54033418948296

> <Genealogy>
COc1ccc([N-]C(=O)CSc2nc(=O)c([N-]C(=O)Cc3ccccc3)c(O)[n-]2)cc1 (protonated)
COc1ccc([N-]C(=O)CSc2nc(=O)c([N-]C(=O)Cc3ccccc3)c(O)[n-]2)cc1 (3D coordinates assigned)
COc1ccc([N-]C(=O)CSc2nc(=O)c([N-]C(=O)Cc3ccccc3)c(O)[n-]2)cc1 (optimized conformer: 53.54033418948296 kcal/mol)

> <smiles>
COc1ccc(NC(=O)CSc2nc(=O)c(NC(=O)Cc3ccccc3)c(O)[nH]2)cc1

> <score_type>
oracle

> <origin>
adg

> <m_score__min__energy>
-14.34

> <m_primary>
energy

> <minimizedAffinity>
-8.43680

> <minimizedRMSD>
0.54797

> <CNNscore>
0.8861086965

> <CNNaffinity>
7.1349811554

> <CNN_VS>
6.3223686218

> <CNNaffinity_variance>
0.0453665107

$$$$
9:0


 29 31  0  0  0  0  0  0  0  0999 V2000
   59.4876   31.9713   50.7577 N   0  0  0  0  0  0  0  0  0  0  0  0
   59.6051   33.1468   51.4513 C   0  0  0  0  0  0  0  0  0  0  0  0
   58.6502   33.5147   52.3993 C   0  0  0  0  0  0  0  0  0  0  0  0
   57.5689   32.6748   52.6453 C   0  0  0  0  0  0  0  0  0  0  0  0
   57.4508   31.4681   51.9514 C   0  0  0  0  0  0  0  0  0  0  0  0
   58.4169   31.1389   50.9802 C   0  0  0  0  0  0  0  0  0  0  0  0
   58.2830   30.0807   50.3035 O   0  0  0  0  0  0  0  0  0  0  0  0
   56.2979   30.5873   52.2203 C   0  0  0  0  0  0  0  0  0  0  0  0
   56.5050   29.3960   52.5745 O   0  0  0  0  0  0  0  0  0  0  0  0
   54.9490   31.0387   52.0597 N   0  0  0  0  0  0  0  0  0  0  0  0
   53.7997   30.1511   51.9183 C   0  0  0  0  0  0  0  0  0  0  0  0
   52.6963   30.6182   52.8268 C   0  0  0  0  0  0  0  0  0  0  0  0
   52.7255   30.2871   54.1924 C   0  0  0  0  0  0  0  0  0  0  0  0
   51.7191   30.7400   55.0501 C   0  0  0  0  0  0  0  0  0  0  0  0
   50.6824   31.5360   54.5551 C   0  0  0  0  0  0  0  0  0  0  0  0
   50.6524   31.8842   53.2026 C   0  0  0  0  0  0  0  0  0  0  0  0
   51.6570   31.4335   52.3377 C   0  0  0  0  0  0  0  0  0  0  0  0
   51.6165   31.8034   50.9970 O   0  0  0  0  0  0  0  0  0  0  0  0
   60.4963   31.6472   49.7359 C   0  0  0  0  0  0  0  0  0  0  0  0
   58.9503   32.2137   46.2813 C   0  0  0  0  0  0  0  0  0  0  0  0
   59.3228   31.6099   47.4974 C   0  0  0  0  0  0  0  0  0  0  0  0
   60.1351   32.2876   48.4216 C   0  0  0  0  0  0  0  0  0  0  0  0
   60.5676   33.5874   48.1321 C   0  0  0  0  0  0  0  0  0  0  0  0
   60.2069   34.1982   46.9303 C   0  0  0  0  0  0  0  0  0  0  0  0
   59.4037   33.5241   46.0056 C   0  0  0  0  0  0  0  0  0  0  0  0
   59.0663   34.1693   44.8201 O   0  0  0  0  0  0  0  0  0  0  0  0
   56.8916   31.8075   45.1477 O   0  0  0  0  0  0  0  0  0  0  0  0
   58.0925   31.4681   45.3248 C   0  0  0  0  0  0  0  0  0  0  0  0
   58.5898   30.3869   44.6070 O   0  0  0  0  0  0  0  0  0  0  0  0
 27 28  2  0
 28 29  1  0
 28 20  1  0
 20 21  2  0
 21 22  1  0
 22 19  1  0
 19  1  1  0
  1  2  1  0
  2  3  2  0
  3  4  1  0
  4  5  2  0
  5  8  1  0
  8  9  2  0
  8 10  1  0
 10 11  1  0
 11 12  1  0
 12 13  2  0
 13 14  1  0
 14 15  2  0
 15 16  1  0
 16 17  2  0
 17 18  1  0
  5  6  1  0
  6  7  2  0
 22 23  2  0
 23 24  1  0
 24 25  2  0
 25 26  1  0
 25 20  1  0
  6  1  1  0
 17 12  1  0
M  CHG 1  10  -1
M  CHG 1  18  -1
M  CHG 1  26  -1
M  CHG 1  29  -1
M  END
> <UniqueID>
9

> <SMILES>
O=C([O-])c1cc(Cn2cccc(C(=O)[N-]Cc3ccccc3[O-])c2=O)ccc1[O-]

> <Energy>
55.29197531057999

> <Genealogy>
O=C([O-])c1cc(Cn2cccc(C(=O)[N-]Cc3ccccc3[O-])c2=O)ccc1[O-] (protonated)
O=C([O-])c1cc(Cn2cccc(C(=O)[N-]Cc3ccccc3[O-])c2=O)ccc1[O-] (3D coordinates assigned)
O=C([O-])c1cc(Cn2cccc(C(=O)[N-]Cc3ccccc3[O-])c2=O)ccc1[O-] (optimized conformer: 55.29197531057999 kcal/mol)

> <smiles>
O=C(O)c1cc(Cn2cccc(C(=O)NCc3ccccc3O)c2=O)ccc1O

> <score_type>
oracle

> <origin>
adg

> <m_score__min__energy>
-17.850000000000001

> <m_primary>
energy

> <minimizedAffinity>
-8.03111

> <minimizedRMSD>
1.42124

> <CNNscore>
0.8334870934

> <CNNaffinity>
5.9793725014

> <CNN_VS>
4.9837298393

> <CNNaffinity_variance>
0.0289427694

$$$$
11:0


 32 34  0  0  0  0  0  0  0  0999 V2000
   58.7737   31.7668   46.2677 N   0  0  0  0  0  0  0  0  0  0  0  0
   58.1961   31.5986   44.9654 C   0  0  0  0  0  0  0  0  0  0  0  0
   58.5376   32.4800   43.9285 C   0  0  0  0  0  0  0  0  0  0  0  0
   57.9889   32.3145   42.6542 C   0  0  0  0  0  0  0  0  0  0  0  0
   57.0882   31.2756   42.4107 C   0  0  0  0  0  0  0  0  0  0  0  0
   56.7224   30.4078   43.4470 C   0  0  0  0  0  0  0  0  0  0  0  0
   57.2748   30.5668   44.7222 C   0  0  0  0  0  0  0  0  0  0  0  0
   56.8911   29.7122   45.7491 O   0  0  0  0  0  0  0  0  0  0  0  0
   59.2934   33.3427   46.7822 S   0  0  0  0  0  0  0  0  0  0  0  0
   59.3266   34.2775   45.6050 O   0  0  0  0  0  0  0  0  0  0  0  0
   58.3197   33.8858   47.7914 O   0  0  0  0  0  0  0  0  0  0  0  0
   60.9011   33.2348   47.4945 C   0  0  0  0  0  0  0  0  0  0  0  0
   61.0520   32.8621   48.8386 C   0  0  0  0  0  0  0  0  0  0  0  0
   62.3291   32.7431   49.3963 C   0  0  0  0  0  0  0  0  0  0  0  0
   63.4612   32.9997   48.6166 C   0  0  0  0  0  0  0  0  0  0  0  0
   63.3157   33.3768   47.2779 C   0  0  0  0  0  0  0  0  0  0  0  0
   62.0403   33.4934   46.7178 C   0  0  0  0  0  0  0  0  0  0  0  0
   58.8129   30.6439   47.2055 C   0  0  0  0  0  0  0  0  0  0  0  0
   59.9826   29.7510   46.8888 C   0  0  0  0  0  0  0  0  0  0  0  0
   61.0664   30.2748   46.5149 O   0  0  0  0  0  0  0  0  0  0  0  0
   59.8632   28.3207   46.8571 N   0  0  0  0  0  0  0  0  0  0  0  0
   57.4063   25.8745   45.4750 C   0  0  0  0  0  0  0  0  0  0  0  0
   57.5623   26.0761   44.0948 C   0  0  0  0  0  0  0  0  0  0  0  0
   58.4735   27.0264   43.6234 C   0  0  0  0  0  0  0  0  0  0  0  0
   59.2362   27.7741   44.5247 C   0  0  0  0  0  0  0  0  0  0  0  0
   59.1263   27.5416   45.9078 C   0  0  0  0  0  0  0  0  0  0  0  0
   58.1994   26.5997   46.3758 C   0  0  0  0  0  0  0  0  0  0  0  0
   54.6138   25.3520   45.8109 N   0  0  0  0  0  0  0  0  0  0  0  0
   56.2042   24.7351   46.0800 S   0  0  0  0  0  0  0  0  0  0  0  0
   56.4064   24.5120   47.5520 O   0  0  0  0  0  0  0  0  0  0  0  0
   56.3591   23.4182   45.3713 O   0  0  0  0  0  0  0  0  0  0  0  0
   53.9265   24.6861   46.1640 H   0  0  0  0  0  0  0  0  0  0  0  0
 28 29  1  0
 29 30  2  0
 29 31  2  0
 29 22  1  0
 22 23  2  0
 23 24  1  0
 24 25  2  0
 25 26  1  0
 26 21  1  0
 21 19  1  0
 19 20  2  0
 19 18  1  0
 18  1  1  0
  1  2  1  0
  2  3  2  0
  3  4  1  0
  4  5  2  0
  5  6  1  0
  6  7  2  0
  7  8  1  0
  1  9  1  0
  9 10  2  0
  9 11  2  0
  9 12  1  0
 12 13  2  0
 13 14  1  0
 14 15  2  0
 15 16  1  0
 16 17  2  0
 26 27  2  0
 27 22  1  0
  7  2  1  0
 17 12  1  0
 28 32  1  0
M  CHG 1   8  -1
M  CHG 1  21  -1
M  CHG 1  28  -1
M  END
> <UniqueID>
11

> <SMILES>
[NH-]S(=O)(=O)c1cccc([N-]C(=O)CN(c2ccccc2[O-])S(=O)(=O)c2ccccc2)c1

> <Energy>
56.14654330460542

> <Genealogy>
[NH-]S(=O)(=O)c1cccc([N-]C(=O)CN(c2ccccc2[O-])S(=O)(=O)c2ccccc2)c1 (protonated)
[NH-]S(=O)(=O)c1cccc([N-]C(=O)CN(c2ccccc2[O-])S(=O)(=O)c2ccccc2)c1 (3D coordinates assigned)
[NH-]S(=O)(=O)c1cccc([N-]C(=O)CN(c2ccccc2[O-])S(=O)(=O)c2ccccc2)c1 (optimized conformer: 56.14654330460542 kcal/mol)

> <smiles>
NS(=O)(=O)c1cccc(NC(=O)CN(c2ccccc2O)S(=O)(=O)c2ccccc2)c1

> <score_type>
oracle

> <origin>
adg

> <m_score__min__energy>
-15.300000000000001

> <m_primary>
energy

> <minimizedAffinity>
-6.89520

> <minimizedRMSD>
0.86367

> <CNNscore>
0.6712375283

> <CNNaffinity>
7.0595207214

> <CNN_VS>
4.7386150360

> <CNNaffinity_variance>
0.0130989952

$$$$
27:0


 25 26  0  0  0  0  0  0  0  0999 V2000
   57.1010   29.9301   44.4822 C   0  0  0  0  0  0  0  0  0  0  0  0
   55.8589   30.0231   44.6874 O   0  0  0  0  0  0  0  0  0  0  0  0
   57.8735   31.0763   44.1019 N   0  0  0  0  0  0  0  0  0  0  0  0
   59.3531   32.7746   47.0784 C   0  0  0  0  0  0  0  0  0  0  0  0
   59.2962   34.1206   46.6913 C   0  0  0  0  0  0  0  0  0  0  0  0
   58.7803   34.4697   45.4398 C   0  0  0  0  0  0  0  0  0  0  0  0
   58.3085   33.4802   44.5731 C   0  0  0  0  0  0  0  0  0  0  0  0
   58.3285   32.1278   44.9660 C   0  0  0  0  0  0  0  0  0  0  0  0
   58.8685   31.7835   46.2125 C   0  0  0  0  0  0  0  0  0  0  0  0
   60.5862   33.7503   49.4562 N   0  0  0  0  0  0  0  0  0  0  0  0
   60.0082   32.3328   48.6529 S   0  0  0  0  0  0  0  0  0  0  0  0
   58.9382   31.6837   49.4853 O   0  0  0  0  0  0  0  0  0  0  0  0
   61.1401   31.3600   48.4796 O   0  0  0  0  0  0  0  0  0  0  0  0
   60.9653   33.4938   50.3677 H   0  0  0  0  0  0  0  0  0  0  0  0
   57.7839   28.6126   44.6509 C   0  0  0  0  0  0  0  0  0  0  0  0
   57.8027   28.2514   46.0252 O   0  0  0  0  0  0  0  0  0  0  0  0
   58.4643   27.1182   46.4464 N   0  0  0  0  0  0  0  0  0  0  0  0
   57.8407   26.0876   46.9298 C   0  0  0  0  0  0  0  0  0  0  0  0
   57.3788   24.9670   46.0868 C   0  0  0  0  0  0  0  0  0  0  0  0
   58.3226   24.0490   45.6017 C   0  0  0  0  0  0  0  0  0  0  0  0
   57.9222   22.9865   44.7831 C   0  0  0  0  0  0  0  0  0  0  0  0
   56.5789   22.8483   44.4263 C   0  0  0  0  0  0  0  0  0  0  0  0
   55.6351   23.7735   44.8781 C   0  0  0  0  0  0  0  0  0  0  0  0
   56.0282   24.8384   45.6979 C   0  0  0  0  0  0  0  0  0  0  0  0
   55.0788   25.7749   46.0915 O   0  0  0  0  0  0  0  0  0  0  0  0
 10 11  1  0
 11 12  2  0
 11 13  2  0
 11  4  1  0
  4  5  2  0
  5  6  1  0
  6  7  2  0
  7  8  1  0
  8  3  1  0
  3  1  1  0
  1  2  2  0
  1 15  1  0
 15 16  1  0
 16 17  1  0
 17 18  2  0
 18 19  1  0
 19 20  2  0
 20 21  1  0
 21 22  2  0
 22 23  1  0
 23 24  2  0
 24 25  1  0
  8  9  2  0
  9  4  1  0
 24 19  1  0
 10 14  1  0
M  CHG 1   3  -1
M  CHG 1  10  -1
M  CHG 1  25  -1
M  END
> <UniqueID>
26

> <SMILES>
[NH-]S(=O)(=O)c1cccc([N-]C(=O)CO/N=C\c2ccccc2[O-])c1

> <Energy>
41.59341461711137

> <Genealogy>
[NH-]S(=O)(=O)c1cccc([N-]C(=O)CON=Cc2ccccc2[O-])c1 (protonated)
[NH-]S(=O)(=O)c1cccc([N-]C(=O)CO/N=C\c2ccccc2[O-])c1 (cis-trans isomerization)
[NH-]S(=O)(=O)c1cccc([N-]C(=O)CO/N=C\c2ccccc2[O-])c1 (3D coordinates assigned)
[NH-]S(=O)(=O)c1cccc([N-]C(=O)CO/N=C\c2ccccc2[O-])c1 (optimized conformer: 41.59341461711137 kcal/mol)

> <smiles>
NS(=O)(=O)c1cccc(NC(=O)CON=Cc2ccccc2O)c1

> <score_type>
oracle

> <origin>
adg

> <m_score__min__energy>
-14.32

> <m_primary>
energy

> <minimizedAffinity>
-7.75929

> <minimizedRMSD>
1.01543

> <CNNscore>
0.6195707321

> <CNNaffinity>
6.1344475746

> <CNN_VS>
3.8007242680

> <CNNaffinity_variance>
0.0500958972

$$$$
35:0


 30 32  0  0  0  0  0  0  0  0999 V2000
   60.5852   28.7989   48.9343 N   0  0  0  0  0  0  0  0  0  0  0  0
   60.5115   27.3867   48.6872 C   0  0  0  0  0  0  0  0  0  0  0  0
   60.7188   26.5606   49.6168 O   0  0  0  0  0  0  0  0  0  0  0  0
   60.7331   29.3942   48.1643 H   0  0  0  0  0  0  0  0  0  0  0  0
   59.0180   30.2894   51.9890 C   0  0  0  0  0  0  0  0  0  0  0  0
   60.1393   30.4910   52.8041 C   0  0  0  0  0  0  0  0  0  0  0  0
   61.4101   30.1406   52.3455 C   0  0  0  0  0  0  0  0  0  0  0  0
   61.5711   29.5932   51.0697 C   0  0  0  0  0  0  0  0  0  0  0  0
   60.4568   29.4001   50.2347 C   0  0  0  0  0  0  0  0  0  0  0  0
   59.1790   29.7337   50.7121 C   0  0  0  0  0  0  0  0  0  0  0  0
   57.0430   32.3345   52.1716 N   0  0  0  0  0  0  0  0  0  0  0  0
   57.4082   30.6944   52.5739 S   0  0  0  0  0  0  0  0  0  0  0  0
   56.3893   29.7879   51.9432 O   0  0  0  0  0  0  0  0  0  0  0  0
   57.3522   30.5172   54.0663 O   0  0  0  0  0  0  0  0  0  0  0  0
   56.1100   32.5682   52.5110 H   0  0  0  0  0  0  0  0  0  0  0  0
   60.1746   26.8878   47.3178 C   0  0  0  0  0  0  0  0  0  0  0  0
   59.4142   27.9405   46.5748 C   0  0  0  0  0  0  0  0  0  0  0  0
   60.0309   29.4398   46.1238 S   0  0  0  0  0  0  0  0  0  0  0  0
   58.5448   29.9782   45.5274 C   0  0  0  0  0  0  0  0  0  0  0  0
   58.3140   31.1299   44.9669 N   0  0  0  0  0  0  0  0  0  0  0  0
   57.5821   29.0395   45.6573 N   0  0  0  0  0  0  0  0  0  0  0  0
   58.0601   27.9149   46.2527 C   0  0  0  0  0  0  0  0  0  0  0  0
   57.2391   26.8260   46.5169 O   0  0  0  0  0  0  0  0  0  0  0  0
   58.7130   32.4125   45.4726 C   0  0  0  0  0  0  0  0  0  0  0  0
   58.5584   33.5413   44.6583 C   0  0  0  0  0  0  0  0  0  0  0  0
   58.9130   34.8071   45.1316 C   0  0  0  0  0  0  0  0  0  0  0  0
   59.3945   34.9579   46.4343 C   0  0  0  0  0  0  0  0  0  0  0  0
   59.5008   33.8455   47.2816 C   0  0  0  0  0  0  0  0  0  0  0  0
   60.0261   34.0045   48.6774 C   0  0  0  0  0  0  0  0  0  0  0  0
   59.1647   32.5730   46.7948 C   0  0  0  0  0  0  0  0  0  0  0  0
 11 12  1  0
 12 13  2  0
 12 14  2  0
 12  5  1  0
  5  6  2  0
  6  7  1  0
  7  8  2  0
  8  9  1  0
  9  1  1  0
  1  2  1  0
  2  3  2  0
  2 16  1  0
 16 17  1  0
 17 18  1  0
 18 19  1  0
 19 20  2  0
 20 24  1  0
 24 25  2  0
 25 26  1  0
 26 27  2  0
 27 28  1  0
 28 29  1  0
 28 30  2  0
 19 21  1  0
 21 22  1  0
 22 23  1  0
  9 10  2  0
 10  5  1  0
 22 17  2  0
 30 24  1  0
 11 15  1  0
  1  4  1  0
M  CHG 1  11  -1
M  CHG 1  21  -1
M  CHG 1  23  -1
M  END
> <UniqueID>
34

> <SMILES>
Cc1cccc(/N=c2/[n-]c([O-])c(CC(=O)Nc3cccc(S([NH-])(=O)=O)c3)s2)c1

> <Energy>
82.5273841720722

> <Genealogy>
Cc1cccc(N=c2[n-]c([O-])c(CC(=O)Nc3cccc(S([NH-])(=O)=O)c3)s2)c1 (protonated)
Cc1cccc(/N=c2/[n-]c([O-])c(CC(=O)Nc3cccc(S([NH-])(=O)=O)c3)s2)c1 (cis-trans isomerization)
Cc1cccc(/N=c2/[n-]c([O-])c(CC(=O)Nc3cccc(S([NH-])(=O)=O)c3)s2)c1 (3D coordinates assigned)
Cc1cccc(/N=c2/[n-]c([O-])c(CC(=O)Nc3cccc(S([NH-])(=O)=O)c3)s2)c1 (optimized conformer: 82.5273841720722 kcal/mol)

> <smiles>
Cc1cccc(N=c2[nH]c(O)c(CC(=O)Nc3cccc(S(N)(=O)=O)c3)s2)c1

> <score_type>
oracle

> <origin>
adg

> <m_score__min__energy>
-14.99

> <m_primary>
energy

> <minimizedAffinity>
-7.74330

> <minimizedRMSD>
1.75585

> <CNNscore>
0.6522062421

> <CNNaffinity>
6.7108035088

> <CNN_VS>
4.3768277168

> <CNNaffinity_variance>
0.0067131985

$$$$
42:0


 31 34  0  0  0  0  0  0  0  0999 V2000
   61.5190   34.5086   48.9354 O   0  0  0  0  0  0  0  0  0  0  0  0
   60.9424   33.5422   48.3668 C   0  0  0  0  0  0  0  0  0  0  0  0
   59.9934   33.8018   47.4320 N   0  0  0  0  0  0  0  0  0  0  0  0
   59.3524   32.8034   46.7782 C   0  0  0  0  0  0  0  0  0  0  0  0
   58.3772   33.1065   45.8225 C   0  0  0  0  0  0  0  0  0  0  0  0
   57.7108   32.0780   45.1510 C   0  0  0  0  0  0  0  0  0  0  0  0
   58.0126   30.7392   45.4313 C   0  0  0  0  0  0  0  0  0  0  0  0
   58.9974   30.4317   46.3813 C   0  0  0  0  0  0  0  0  0  0  0  0
   59.6692   31.4629   47.0646 C   0  0  0  0  0  0  0  0  0  0  0  0
   60.6512   31.2048   48.0368 C   0  0  0  0  0  0  0  0  0  0  0  0
   60.9459   30.0118   48.3309 O   0  0  0  0  0  0  0  0  0  0  0  0
   61.2766   32.2470   48.6746 N   0  0  0  0  0  0  0  0  0  0  0  0
   62.2864   31.9819   49.6708 C   0  0  0  0  0  0  0  0  0  0  0  0
   61.9153   31.6096   50.9735 C   0  0  0  0  0  0  0  0  0  0  0  0
   62.8947   31.3510   51.9373 C   0  0  0  0  0  0  0  0  0  0  0  0
   64.2486   31.4631   51.6092 C   0  0  0  0  0  0  0  0  0  0  0  0
   65.1973   31.2128   52.5443 F   0  0  0  0  0  0  0  0  0  0  0  0
   64.6250   31.8338   50.3141 C   0  0  0  0  0  0  0  0  0  0  0  0
   63.6483   32.0925   49.3482 C   0  0  0  0  0  0  0  0  0  0  0  0
   57.1576   29.4406   44.6038 S   0  0  0  0  0  0  0  0  0  0  0  0
   58.0814   28.8220   43.5935 O   0  0  0  0  0  0  0  0  0  0  0  0
   55.9408   29.9719   43.8976 O   0  0  0  0  0  0  0  0  0  0  0  0
   56.6640   28.2302   45.7464 N   0  0  0  0  0  0  0  0  0  0  0  0
   55.8950   28.4273   46.3286 H   0  0  0  0  0  0  0  0  0  0  0  0
   57.3159   26.9542   45.8906 C   0  0  0  0  0  0  0  0  0  0  0  0
   58.7210   26.8434   45.8812 C   0  0  0  0  0  0  0  0  0  0  0  0
   59.3355   25.5957   46.0144 C   0  0  0  0  0  0  0  0  0  0  0  0
   58.5595   24.4450   46.1664 C   0  0  0  0  0  0  0  0  0  0  0  0
   57.1664   24.5414   46.1874 C   0  0  0  0  0  0  0  0  0  0  0  0
   56.5447   25.7866   46.0523 C   0  0  0  0  0  0  0  0  0  0  0  0
   55.1549   25.8543   46.0711 O   0  0  0  0  0  0  0  0  0  0  0  0
  1  2  2  0
  2  3  1  0
  3  4  1  0
  4  5  2  0
  5  6  1  0
  6  7  2  0
  7 20  1  0
 20 21  2  0
 20 22  2  0
 20 23  1  0
 23 25  1  0
 25 26  2  0
 26 27  1  0
 27 28  2  0
 28 29  1  0
 29 30  2  0
 30 31  1  0
  7  8  1  0
  8  9  2  0
  9 10  1  0
 10 11  2  0
 10 12  1  0
 12 13  1  0
 13 14  2  0
 14 15  1  0
 15 16  2  0
 16 17  1  0
 16 18  1  0
 18 19  2  0
 12  2  1  0
 19 13  1  0
  9  4  1  0
 30 25  1  0
 23 24  1  0
M  CHG 1   3  -1
M  CHG 1  31  -1
M  END
> <UniqueID>
41

> <SMILES>
O=c1[n-]c2ccc(S(=O)(=O)Nc3ccccc3[O-])cc2c(=O)n1-c1ccc(F)cc1

> <Energy>
65.03251125237009

> <Genealogy>
O=c1[n-]c2ccc(S(=O)(=O)Nc3ccccc3[O-])cc2c(=O)n1-c1ccc(F)cc1 (protonated)
O=c1[n-]c2ccc(S(=O)(=O)Nc3ccccc3[O-])cc2c(=O)n1-c1ccc(F)cc1 (3D coordinates assigned)
O=c1[n-]c2ccc(S(=O)(=O)Nc3ccccc3[O-])cc2c(=O)n1-c1ccc(F)cc1 (optimized conformer: 65.03251125237009 kcal/mol)

> <smiles>
O=c1[nH]c2ccc(S(=O)(=O)Nc3ccccc3O)cc2c(=O)n1-c1ccc(F)cc1

> <score_type>
oracle

> <origin>
adg

> <m_score__min__energy>
-14.24

> <m_primary>
energy

> <minimizedAffinity>
-8.41442

> <minimizedRMSD>
1.07763

> <CNNscore>
0.6087262034

> <CNNaffinity>
7.1882801056

> <CNN_VS>
4.3756942749

> <CNNaffinity_variance>
0.2297665626

$$$$
58:0


 32 36  0  0  0  0  0  0  0  0999 V2000
   58.4032   26.4879   45.0734 C   0  0  0  0  0  0  0  0  0  0  0  0
   58.1021   27.7973   45.0755 C   0  0  0  0  0  0  0  0  0  0  0  0
   57.1944   28.4162   44.2158 C   0  0  0  0  0  0  0  0  0  0  0  0
   57.1415   29.7465   44.4674 N   0  0  0  0  0  0  0  0  0  0  0  0
   57.9943   29.9790   45.4511 N   0  0  0  0  0  0  0  0  0  0  0  0
   58.3028   31.1706   46.0161 C   0  0  0  0  0  0  0  0  0  0  0  0
   57.7102   32.2607   45.6282 N   0  0  0  0  0  0  0  0  0  0  0  0
   59.2531   31.1900   46.9932 N   0  0  0  0  0  0  0  0  0  0  0  0
   59.8877   30.0373   47.3745 C   0  0  0  0  0  0  0  0  0  0  0  0
   60.7857   30.0427   48.3162 N   0  0  0  0  0  0  0  0  0  0  0  0
   59.5499   28.8517   46.7906 N   0  0  0  0  0  0  0  0  0  0  0  0
   58.5878   28.8468   45.8377 C   0  0  0  0  0  0  0  0  0  0  0  0
   55.4955   26.6075   45.9679 O   0  0  0  0  0  0  0  0  0  0  0  0
   56.3425   25.5282   46.1942 C   0  0  0  0  0  0  0  0  0  0  0  0
   55.9869   24.4254   46.8740 N   0  0  0  0  0  0  0  0  0  0  0  0
   57.1154   23.6878   46.8494 C   0  0  0  0  0  0  0  0  0  0  0  0
   57.1995   22.5561   47.3941 O   0  0  0  0  0  0  0  0  0  0  0  0
   58.1536   24.2602   46.2022 N   0  0  0  0  0  0  0  0  0  0  0  0
   57.6454   25.4283   45.7689 C   0  0  0  0  0  0  0  0  0  0  0  0
   54.6179   26.5911   46.2958 H   0  0  0  0  0  0  0  0  0  0  0  0
   61.6754   31.1220   48.6507 C   0  0  0  0  0  0  0  0  0  0  0  0
   62.5567   31.6735   47.7004 C   0  0  0  0  0  0  0  0  0  0  0  0
   63.4313   32.7004   48.0616 C   0  0  0  0  0  0  0  0  0  0  0  0
   63.4517   33.1728   49.3738 C   0  0  0  0  0  0  0  0  0  0  0  0
   62.6068   32.6123   50.3328 C   0  0  0  0  0  0  0  0  0  0  0  0
   61.7177   31.5755   49.9815 C   0  0  0  0  0  0  0  0  0  0  0  0
   60.8604   30.9805   50.9207 O   0  0  0  0  0  0  0  0  0  0  0  0
   59.6500   31.5632   51.3907 C   0  0  0  0  0  0  0  0  0  0  0  0
   58.3010   33.2218   44.6962 C   0  0  0  0  0  0  0  0  0  0  0  0
   58.8850   34.4642   45.3969 C   0  0  0  0  0  0  0  0  0  0  0  0
   60.2483   34.3168   46.0596 C   0  0  0  0  0  0  0  0  0  0  0  0
   58.9920   34.4198   46.9148 C   0  0  0  0  0  0  0  0  0  0  0  0
 13 14  1  0
 14 15  1  0
 15 16  1  0
 16 17  2  0
 16 18  1  0
 18 19  1  0
 19  1  1  0
  1  2  2  0
  2  3  1  0
  3  4  2  0
  4  5  1  0
  5  6  1  0
  6  7  2  0
  7 29  1  0
 29 30  1  0
 30 31  1  0
 31 32  1  0
  6  8  1  0
  8  9  1  0
  9 10  2  0
 10 21  1  0
 21 22  2  0
 22 23  1  0
 23 24  2  0
 24 25  1  0
 25 26  2  0
 26 27  1  0
 27 28  1  0
  9 11  1  0
 11 12  2  0
 19 14  2  0
 12  2  1  0
 12  5  1  0
 32 30  1  0
 26 21  1  0
 13 20  1  0
M  CHG 1   8  -1
M  CHG 1  15  -1
M  CHG 1  18  -1
M  END
> <UniqueID>
55

> <SMILES>
COc1ccccc1N=c1nc2/c(=C\c3[n-]c(=O)[n-]c3O)cnn2/c(=N/CC2CC2)[n-]1

> <Energy>
395.6530581684829

> <Genealogy>
COc1ccccc1N=c1nc2c(=Cc3[n-]c(=O)[n-]c3O)cnn2c(=NCC2CC2)[n-]1 (protonated)
COc1ccccc1N=c1nc2/c(=C\c3[n-]c(=O)[n-]c3O)cnn2/c(=N/CC2CC2)[n-]1 (cis-trans isomerization)
COc1ccccc1N=c1nc2/c(=C\c3[n-]c(=O)[n-]c3O)cnn2/c(=N/CC2CC2)[n-]1 (3D coordinates assigned)
COc1ccccc1N=c1nc2/c(=C\c3[n-]c(=O)[n-]c3O)cnn2/c(=N/CC2CC2)[n-]1 (nonaromatic ring conformer: 395.6530581684829 kcal/mol)

> <smiles>
COc1ccccc1N=c1nc2c(=Cc3[nH]c(=O)[nH]c3O)cnn2c(=NCC2CC2)[nH]1

> <score_type>
oracle

> <origin>
adg

> <m_score__min__energy>
-14.800000000000001

> <m_primary>
energy

> <minimizedAffinity>
-9.85522

> <minimizedRMSD>
0.76631

> <CNNscore>
0.7189953923

> <CNNaffinity>
7.1444277763

> <CNN_VS>
5.1368107796

> <CNNaffinity_variance>
0.1025383845

$$$$
61:0


 21 22  0  0  0  0  0  0  0  0999 V2000
   57.3822   28.4357   54.0176 C   0  0  0  0  0  0  0  0  0  0  0  0
   56.3222   29.3642   53.9831 C   0  0  0  0  0  0  0  0  0  0  0  0
   56.6067   30.7155   53.7997 O   0  0  0  0  0  0  0  0  0  0  0  0
   55.0182   28.9499   54.1338 N   0  0  0  0  0  0  0  0  0  0  0  0
   54.7573   27.6157   54.3611 C   0  0  0  0  0  0  0  0  0  0  0  0
   53.2359   27.0428   54.6097 S   0  0  0  0  0  0  0  0  0  0  0  0
   55.7734   26.7208   54.4039 N   0  0  0  0  0  0  0  0  0  0  0  0
   57.0633   27.0887   54.2340 C   0  0  0  0  0  0  0  0  0  0  0  0
   57.9631   26.2091   54.2777 O   0  0  0  0  0  0  0  0  0  0  0  0
   59.3099   28.9754   52.6941 O   0  0  0  0  0  0  0  0  0  0  0  0
   58.7987   28.8415   53.8367 C   0  0  0  0  0  0  0  0  0  0  0  0
   53.9234   29.9436   54.0356 C   0  0  0  0  0  0  0  0  0  0  0  0
   53.5142   30.2047   52.5720 C   0  0  0  0  0  0  0  0  0  0  0  0
   52.0702   29.7943   52.2445 C   0  0  0  0  0  0  0  0  0  0  0  0
   51.0593   30.3797   53.1933 C   0  0  0  0  0  0  0  0  0  0  0  0
   50.2171   29.5346   54.3859 S   0  0  0  0  0  0  0  0  0  0  0  0
   49.2798   30.8656   54.8000 C   0  0  0  0  0  0  0  0  0  0  0  0
   48.1383   30.8629   55.9656 S   0  0  0  0  0  0  0  0  0  0  0  0
   49.5601   31.9446   54.0386 N   0  0  0  0  0  0  0  0  0  0  0  0
   50.5403   31.6713   53.1381 C   0  0  0  0  0  0  0  0  0  0  0  0
   50.9771   32.6249   52.2266 O   0  0  0  0  0  0  0  0  0  0  0  0
 10 11  2  0
 11  1  1  0
  1  2  2  0
  2  3  1  0
  2  4  1  0
  4 12  1  0
 12 13  1  0
 13 14  1  0
 14 15  1  0
 15 16  1  0
 16 17  1  0
 17 18  2  0
 17 19  1  0
 19 20  1  0
 20 21  1  0
  4  5  1  0
  5  6  2  0
  5  7  1  0
  7  8  1  0
  8  9  2  0
  8  1  1  0
 20 15  2  0
M  CHG 1   3  -1
M  CHG 1   7  -1
M  CHG 1  19  -1
M  CHG 1  21  -1
M  END
> <UniqueID>
58

> <SMILES>
O=Cc1c([O-])n(CCCc2sc(=S)[n-]c2[O-])c(=S)[n-]c1=O

> <Energy>
64.20177338773843

> <Genealogy>
O=Cc1c([O-])n(CCCc2sc(=S)[n-]c2[O-])c(=S)[n-]c1=O (protonated)
O=Cc1c([O-])n(CCCc2sc(=S)[n-]c2[O-])c(=S)[n-]c1=O (3D coordinates assigned)
O=Cc1c([O-])n(CCCc2sc(=S)[n-]c2[O-])c(=S)[n-]c1=O (optimized conformer: 64.20177338773843 kcal/mol)

> <smiles>
O=Cc1c(O)n(CCCc2sc(=S)[nH]c2O)c(=S)[nH]c1=O

> <score_type>
oracle

> <origin>
adg

> <m_score__min__energy>
-18.170000000000002

> <m_primary>
energy

> <minimizedAffinity>
-4.00728

> <minimizedRMSD>
1.79978

> <CNNscore>
0.2244263887

> <CNNaffinity>
4.5618510246

> <CNN_VS>
1.0237997770

> <CNNaffinity_variance>
0.0101885935

$$$$
74:0


 27 28  0  0  0  0  0  0  0  0999 V2000
   57.8791   31.8603   45.3107 N   0  0  0  0  0  0  0  0  0  0  0  0
   58.7117   33.0001   45.5585 C   0  0  0  0  0  0  0  0  0  0  0  0
   58.8270   33.8758   44.6614 O   0  0  0  0  0  0  0  0  0  0  0  0
   61.1983   32.5195   48.2524 N   0  0  0  0  0  0  0  0  0  0  0  0
   60.5199   32.4151   47.1054 N   0  0  0  0  0  0  0  0  0  0  0  0
   59.4263   33.1745   46.8338 C   0  0  0  0  0  0  0  0  0  0  0  0
   58.9822   34.0927   47.7862 C   0  0  0  0  0  0  0  0  0  0  0  0
   59.6944   34.2327   48.9742 C   0  0  0  0  0  0  0  0  0  0  0  0
   60.8156   33.4357   49.1995 C   0  0  0  0  0  0  0  0  0  0  0  0
   61.4631   33.5676   50.2740 O   0  0  0  0  0  0  0  0  0  0  0  0
   62.3598   31.6448   48.4486 C   0  0  0  0  0  0  0  0  0  0  0  0
   63.6093   32.2433   47.8034 C   0  0  0  0  0  0  0  0  0  0  0  0
   64.6400   32.4813   49.8459 C   0  0  0  0  0  0  0  0  0  0  0  0
   64.2070   33.1632   48.6916 O   0  0  0  0  0  0  0  0  0  0  0  0
   58.1065   30.8785   44.2532 C   0  0  0  0  0  0  0  0  0  0  0  0
   58.4177   29.5314   44.8603 C   0  0  0  0  0  0  0  0  0  0  0  0
   59.7577   29.1968   45.1065 C   0  0  0  0  0  0  0  0  0  0  0  0
   60.0811   28.0001   45.7446 C   0  0  0  0  0  0  0  0  0  0  0  0
   59.0721   27.1224   46.1382 C   0  0  0  0  0  0  0  0  0  0  0  0
   57.7276   27.4171   45.8802 C   0  0  0  0  0  0  0  0  0  0  0  0
   57.3963   28.6390   45.2518 C   0  0  0  0  0  0  0  0  0  0  0  0
   56.0682   28.9870   45.0419 O   0  0  0  0  0  0  0  0  0  0  0  0
   56.7453   26.4669   46.3234 N   0  0  0  0  0  0  0  0  0  0  0  0
   56.6549   24.7876   45.9011 S   0  0  0  0  0  0  0  0  0  0  0  0
   57.1789   24.5494   44.2165 C   0  0  0  0  0  0  0  0  0  0  0  0
   57.5893   24.0213   46.7931 O   0  0  0  0  0  0  0  0  0  0  0  0
   55.2587   24.2710   46.1076 O   0  0  0  0  0  0  0  0  0  0  0  0
 13 14  1  0
 14 12  1  0
 12 11  1  0
 11  4  1  0
  4  5  1  0
  5  6  2  0
  6  2  1  0
  2  3  2  0
  2  1  1  0
  1 15  1  0
 15 16  1  0
 16 17  2  0
 17 18  1  0
 18 19  2  0
 19 20  1  0
 20 23  1  0
 23 24  1  0
 24 25  1  0
 24 26  2  0
 24 27  2  0
 20 21  2  0
 21 22  1  0
  6  7  1  0
  7  8  2  0
  8  9  1  0
  9 10  2  0
  9  4  1  0
 21 16  1  0
M  CHG 1   1  -1
M  CHG 1  22  -1
M  CHG 1  23  -1
M  END
> <UniqueID>
71

> <SMILES>
COCCn1nc(C(=O)[N-]Cc2cccc([N-]S(C)(=O)=O)c2[O-])ccc1=O

> <Energy>
46.679101428872805

> <Genealogy>
COCCn1nc(C(=O)[N-]Cc2cccc([N-]S(C)(=O)=O)c2[O-])ccc1=O (protonated)
COCCn1nc(C(=O)[N-]Cc2cccc([N-]S(C)(=O)=O)c2[O-])ccc1=O (3D coordinates assigned)
COCCn1nc(C(=O)[N-]Cc2cccc([N-]S(C)(=O)=O)c2[O-])ccc1=O (optimized conformer: 46.679101428872805 kcal/mol)

> <smiles>
COCCn1nc(C(=O)NCc2cccc(NS(C)(=O)=O)c2O)ccc1=O

> <score_type>
oracle

> <origin>
adg

> <m_score__min__energy>
-16.02

> <m_primary>
energy

> <minimizedAffinity>
-6.48371

> <minimizedRMSD>
1.04328

> <CNNscore>
0.4351335764

> <CNNaffinity>
6.5082869530

> <CNN_VS>
2.8319742680

> <CNNaffinity_variance>
0.1750951260

$$$$
8:0


 29 33  0  0  0  0  0  0  0  0999 V2000
   53.4333   29.9667   52.0525 C   0  0  0  0  0  0  0  0  0  0  0  0
   54.4190   29.3512   52.7241 C   0  0  0  0  0  0  0  0  0  0  0  0
   54.2771   28.2482   53.5644 C   0  0  0  0  0  0  0  0  0  0  0  0
   55.4886   27.8684   54.0425 N   0  0  0  0  0  0  0  0  0  0  0  0
   56.3781   28.6973   53.5193 N   0  0  0  0  0  0  0  0  0  0  0  0
   57.7220   28.6856   53.6812 C   0  0  0  0  0  0  0  0  0  0  0  0
   58.2889   27.8130   54.4601 N   0  0  0  0  0  0  0  0  0  0  0  0
   58.4589   29.6129   53.0014 N   0  0  0  0  0  0  0  0  0  0  0  0
   57.8509   30.5207   52.1749 C   0  0  0  0  0  0  0  0  0  0  0  0
   56.4922   30.5017   52.0312 N   0  0  0  0  0  0  0  0  0  0  0  0
   55.7793   29.5878   52.7274 C   0  0  0  0  0  0  0  0  0  0  0  0
   58.6412   31.4968   51.4653 N   0  0  0  0  0  0  0  0  0  0  0  0
   58.3981   31.7631   50.0391 C   0  0  0  0  0  0  0  0  0  0  0  0
   59.7221   32.0543   49.3271 C   0  0  0  0  0  0  0  0  0  0  0  0
   60.5164   33.2096   49.9805 C   0  0  0  0  0  0  0  0  0  0  0  0
   61.8596   32.8714   50.0088 F   0  0  0  0  0  0  0  0  0  0  0  0
   60.3798   34.3500   49.2062 F   0  0  0  0  0  0  0  0  0  0  0  0
   60.0540   33.5357   51.4137 C   0  0  0  0  0  0  0  0  0  0  0  0
   59.6546   32.2777   52.1924 C   0  0  0  0  0  0  0  0  0  0  0  0
   52.3376   30.7096   52.6965 C   0  0  0  0  0  0  0  0  0  0  0  0
   52.0795   30.6573   54.0149 N   0  0  0  0  0  0  0  0  0  0  0  0
   51.0641   31.5346   54.1683 C   0  0  0  0  0  0  0  0  0  0  0  0
   50.5251   31.7577   55.2833 O   0  0  0  0  0  0  0  0  0  0  0  0
   50.6777   32.1603   53.0367 N   0  0  0  0  0  0  0  0  0  0  0  0
   51.5030   31.6368   52.1155 C   0  0  0  0  0  0  0  0  0  0  0  0
   51.5157   32.0264   50.7821 O   0  0  0  0  0  0  0  0  0  0  0  0
   59.3131   26.8794   54.0051 C   0  0  0  0  0  0  0  0  0  0  0  0
   60.6763   27.1159   54.6294 C   0  0  0  0  0  0  0  0  0  0  0  0
   59.8077   25.9617   55.1074 C   0  0  0  0  0  0  0  0  0  0  0  0
  1 20  1  0
 20 21  1  0
 21 22  1  0
 22 23  2  0
 22 24  1  0
 24 25  1  0
 25 26  1  0
  1  2  2  0
  2  3  1  0
  3  4  2  0
  4  5  1  0
  5  6  1  0
  6  7  2  0
  7 27  1  0
 27 28  1  0
 28 29  1  0
  6  8  1  0
  8  9  2  0
  9 12  1  0
 12 13  1  0
 13 14  1  0
 14 15  1  0
 15 16  1  0
 15 17  1  0
 15 18  1  0
 18 19  1  0
  9 10  1  0
 10 11  2  0
 25 20  2  0
 11  2  1  0
 11  5  1  0
 29 27  1  0
 19 12  1  0
M  CHG 1  21  -1
M  CHG 1  24  -1
M  CHG 1  26  -1
M  END
> <UniqueID>
8

> <SMILES>
O=c1[n-]c([O-])c(/C=c2/cnn3c(=NC4CC4)nc(N4CCC(F)(F)CC4)nc23)[n-]1

> <Energy>
388.0674821185937

> <Genealogy>
O=c1[n-]c([O-])c(C=c2cnn3c(=NC4CC4)nc(N4CCC(F)(F)CC4)nc23)[n-]1 (protonated)
O=c1[n-]c([O-])c(/C=c2/cnn3c(=NC4CC4)nc(N4CCC(F)(F)CC4)nc23)[n-]1 (cis-trans isomerization)
O=c1[n-]c([O-])c(/C=c2/cnn3c(=NC4CC4)nc(N4CCC(F)(F)CC4)nc23)[n-]1 (3D coordinates assigned)
O=c1[n-]c([O-])c(/C=c2/cnn3c(=NC4CC4)nc(N4CCC(F)(F)CC4)nc23)[n-]1 (nonaromatic ring conformer: 388.0674821185937 kcal/mol)

> <smiles>
O=c1[nH]c(O)c(C=c2cnn3c(=NC4CC4)nc(N4CCC(F)(F)CC4)nc23)[nH]1

> <score_type>
oracle

> <origin>
adg

> <m_score__min__energy>
-16

> <m_primary>
energy

> <minimizedAffinity>
-6.32184

> <minimizedRMSD>
0.95527

> <CNNscore>
0.2905693352

> <CNNaffinity>
5.2605261803

> <CNN_VS>
1.5285476446

> <CNNaffinity_variance>
0.0115537075

$$$$
19:0


 24 26  0  0  0  0  0  0  0  0999 V2000
   56.2964   29.0249   53.9464 N   0  0  0  0  0  0  0  0  0  0  0  0
   55.5658   29.5165   55.1177 C   0  0  0  0  0  0  0  0  0  0  0  0
   54.0755   29.7702   54.7973 C   0  0  0  0  0  0  0  0  0  0  0  0
   53.7878   29.8634   53.3428 N   0  0  0  0  0  0  0  0  0  0  0  0
   54.8807   30.5477   52.6292 C   0  0  0  0  0  0  0  0  0  0  0  0
   56.1089   29.6394   52.6290 C   0  0  0  0  0  0  0  0  0  0  0  0
   58.6747   28.3260   54.0542 C   0  0  0  0  0  0  0  0  0  0  0  0
   59.6139   27.2870   54.2299 C   0  0  0  0  0  0  0  0  0  0  0  0
   59.1902   25.9733   54.4476 C   0  0  0  0  0  0  0  0  0  0  0  0
   57.8290   25.6747   54.4935 C   0  0  0  0  0  0  0  0  0  0  0  0
   56.8858   26.6889   54.3248 C   0  0  0  0  0  0  0  0  0  0  0  0
   57.2957   28.0100   54.1057 C   0  0  0  0  0  0  0  0  0  0  0  0
   59.3767   30.6372   54.8916 C   0  0  0  0  0  0  0  0  0  0  0  0
   59.1041   29.6836   53.8215 N   0  0  0  0  0  0  0  0  0  0  0  0
   59.2193   29.9826   52.8906 H   0  0  0  0  0  0  0  0  0  0  0  0
   52.4978   30.5382   53.0919 C   0  0  0  0  0  0  0  0  0  0  0  0
   52.1325   30.4623   51.6281 C   0  0  0  0  0  0  0  0  0  0  0  0
   52.3107   29.2511   50.9398 C   0  0  0  0  0  0  0  0  0  0  0  0
   51.9569   29.1440   49.5925 C   0  0  0  0  0  0  0  0  0  0  0  0
   51.4173   30.2426   48.9208 C   0  0  0  0  0  0  0  0  0  0  0  0
   51.2256   31.4517   49.5967 C   0  0  0  0  0  0  0  0  0  0  0  0
   50.6827   32.5388   48.9214 O   0  0  0  0  0  0  0  0  0  0  0  0
   51.5786   31.5665   50.9478 C   0  0  0  0  0  0  0  0  0  0  0  0
   51.3739   32.7758   51.6059 O   0  0  0  0  0  0  0  0  0  0  0  0
 13 14  1  0
 14  7  1  0
  7  8  2  0
  8  9  1  0
  9 10  2  0
 10 11  1  0
 11 12  2  0
 12  1  1  0
  1  2  1  0
  2  3  1  0
  3  4  1  0
  4 16  1  0
 16 17  1  0
 17 18  2  0
 18 19  1  0
 19 20  2  0
 20 21  1  0
 21 22  1  0
 21 23  2  0
 23 24  1  0
  4  5  1  0
  5  6  1  0
 12  7  1  0
  6  1  1  0
 23 17  1  0
 14 15  1  0
M  CHG 1  22  -1
M  CHG 1  24  -1
M  END
> <UniqueID>
19

> <SMILES>
CNc1ccccc1N1CCN(Cc2cccc([O-])c2[O-])CC1

> <Energy>
57.00639860716989

> <Genealogy>
CNc1ccccc1N1CCN(Cc2cccc([O-])c2[O-])CC1 (protonated)
CNc1ccccc1N1CCN(Cc2cccc([O-])c2[O-])CC1 (3D coordinates assigned)
CNc1ccccc1N1CCN(Cc2cccc([O-])c2[O-])CC1 (nonaromatic ring conformer: 57.00639860716989 kcal/mol)

> <smiles>
CNc1ccccc1N1CCN(Cc2cccc(O)c2O)CC1

> <score_type>
oracle

> <origin>
adg

> <m_score__min__energy>
-14.92

> <m_primary>
energy

> <minimizedAffinity>
-0.74863

> <minimizedRMSD>
1.56294

> <CNNscore>
0.3195629716

> <CNNaffinity>
4.2252173424

> <CNN_VS>
1.3502230644

> <CNNaffinity_variance>
0.2643723190

$$$$
37:0


 30 32  0  0  0  0  0  0  0  0999 V2000
   57.6063   25.5917   46.1559 N   0  0  0  0  0  0  0  0  0  0  0  0
   56.3306   25.3117   45.8487 C   0  0  0  0  0  0  0  0  0  0  0  0
   55.2470   26.1261   46.1563 O   0  0  0  0  0  0  0  0  0  0  0  0
   56.2756   24.0798   45.2358 C   0  0  0  0  0  0  0  0  0  0  0  0
   57.5180   23.5521   45.1808 N   0  0  0  0  0  0  0  0  0  0  0  0
   58.2939   24.5037   45.7468 C   0  0  0  0  0  0  0  0  0  0  0  0
   59.5357   24.3661   45.9077 O   0  0  0  0  0  0  0  0  0  0  0  0
   58.0932   26.6984   46.9783 C   0  0  0  0  0  0  0  0  0  0  0  0
   58.8027   27.6204   44.8918 O   0  0  0  0  0  0  0  0  0  0  0  0
   58.5040   27.8366   46.0972 C   0  0  0  0  0  0  0  0  0  0  0  0
   58.5138   29.1673   46.6285 N   0  0  0  0  0  0  0  0  0  0  0  0
   58.3627   30.3869   45.8869 C   0  0  0  0  0  0  0  0  0  0  0  0
   57.8786   30.3974   44.5643 C   0  0  0  0  0  0  0  0  0  0  0  0
   57.7576   31.6050   43.8712 C   0  0  0  0  0  0  0  0  0  0  0  0
   58.1274   32.8055   44.4820 C   0  0  0  0  0  0  0  0  0  0  0  0
   58.6370   32.7982   45.7828 C   0  0  0  0  0  0  0  0  0  0  0  0
   58.7652   31.5924   46.4790 C   0  0  0  0  0  0  0  0  0  0  0  0
   59.2716   31.5974   47.7383 F   0  0  0  0  0  0  0  0  0  0  0  0
   55.0324   23.3184   44.9001 C   0  0  0  0  0  0  0  0  0  0  0  0
   54.5665   22.5786   46.1137 C   0  0  0  0  0  0  0  0  0  0  0  0
   53.8647   21.5395   45.9776 O   0  0  0  0  0  0  0  0  0  0  0  0
   54.9371   23.0401   47.4223 N   0  0  0  0  0  0  0  0  0  0  0  0
   55.2040   23.9824   47.5226 H   0  0  0  0  0  0  0  0  0  0  0  0
   54.9413   22.2081   48.5942 C   0  0  0  0  0  0  0  0  0  0  0  0
   53.8193   22.1281   49.4398 C   0  0  0  0  0  0  0  0  0  0  0  0
   53.8434   21.3024   50.5674 C   0  0  0  0  0  0  0  0  0  0  0  0
   54.9790   20.5399   50.8543 C   0  0  0  0  0  0  0  0  0  0  0  0
   54.9985   19.7346   51.9447 F   0  0  0  0  0  0  0  0  0  0  0  0
   56.0859   20.5904   50.0019 C   0  0  0  0  0  0  0  0  0  0  0  0
   56.0653   21.4136   48.8727 C   0  0  0  0  0  0  0  0  0  0  0  0
  9 10  2  0
 10  8  1  0
  8  1  1  0
  1  2  1  0
  2  3  1  0
  2  4  2  0
  4 19  1  0
 19 20  1  0
 20 21  2  0
 20 22  1  0
 22 24  1  0
 24 25  2  0
 25 26  1  0
 26 27  2  0
 27 28  1  0
 27 29  1  0
 29 30  2  0
  4  5  1  0
  5  6  1  0
  6  7  2  0
 10 11  1  0
 11 12  1  0
 12 13  2  0
 13 14  1  0
 14 15  2  0
 15 16  1  0
 16 17  2  0
 17 18  1  0
  6  1  1  0
 17 12  1  0
 30 24  1  0
 22 23  1  0
M  CHG 1   3  -1
M  CHG 1   5  -1
M  CHG 1  11  -1
M  END
> <UniqueID>
36

> <SMILES>
O=C(Cn1c([O-])c(CC(=O)Nc2ccc(F)cc2)[n-]c1=O)[N-]c1ccccc1F

> <Energy>
74.45553729207296

> <Genealogy>
O=C(Cn1c([O-])c(CC(=O)Nc2ccc(F)cc2)[n-]c1=O)[N-]c1ccccc1F (protonated)
O=C(Cn1c([O-])c(CC(=O)Nc2ccc(F)cc2)[n-]c1=O)[N-]c1ccccc1F (3D coordinates assigned)
O=C(Cn1c([O-])c(CC(=O)Nc2ccc(F)cc2)[n-]c1=O)[N-]c1ccccc1F (optimized conformer: 74.45553729207296 kcal/mol)

> <smiles>
O=C(Cc1[nH]c(=O)n(CC(=O)Nc2ccccc2F)c1O)Nc1ccc(F)cc1

> <score_type>
oracle

> <origin>
adg

> <m_score__min__energy>
-14.25

> <m_primary>
energy

> <minimizedAffinity>
-6.73751

> <minimizedRMSD>
1.03486

> <CNNscore>
0.0885658041

> <CNNaffinity>
5.4975571632

> <CNN_VS>
0.4868955612

> <CNNaffinity_variance>
0.0118409051

$$$$
72:0


 32 35  0  0  0  0  0  0  0  0999 V2000
   60.3601   28.7565   44.7449 O   0  0  0  0  0  0  0  0  0  0  0  0
   59.6683   28.5032   45.7678 C   0  0  0  0  0  0  0  0  0  0  0  0
   58.2130   28.1806   45.6178 C   0  0  0  0  0  0  0  0  0  0  0  0
   57.7192   27.2780   46.7572 C   0  0  0  0  0  0  0  0  0  0  0  0
   57.5507   25.8953   46.3024 N   0  0  0  0  0  0  0  0  0  0  0  0
   56.3843   25.3062   45.9524 C   0  0  0  0  0  0  0  0  0  0  0  0
   55.1362   25.9047   46.0813 O   0  0  0  0  0  0  0  0  0  0  0  0
   56.6137   24.0532   45.4276 C   0  0  0  0  0  0  0  0  0  0  0  0
   57.9703   23.8662   45.4442 C   0  0  0  0  0  0  0  0  0  0  0  0
   58.5252   25.0104   45.9804 C   0  0  0  0  0  0  0  0  0  0  0  0
   59.8911   25.2305   46.1457 O   0  0  0  0  0  0  0  0  0  0  0  0
   58.6547   22.6308   44.9495 C   0  0  0  0  0  0  0  0  0  0  0  0
   57.6604   21.6073   44.4349 C   0  0  0  0  0  0  0  0  0  0  0  0
   56.3234   21.8081   44.3864 C   0  0  0  0  0  0  0  0  0  0  0  0
   55.6385   23.0767   44.8552 C   0  0  0  0  0  0  0  0  0  0  0  0
   60.5057   24.5678   45.8985 H   0  0  0  0  0  0  0  0  0  0  0  0
   60.2746   28.3849   47.0620 N   0  0  0  0  0  0  0  0  0  0  0  0
   60.4421   29.4273   48.0285 C   0  0  0  0  0  0  0  0  0  0  0  0
   60.4014   29.0898   49.3871 C   0  0  0  0  0  0  0  0  0  0  0  0
   60.5627   30.0749   50.3632 C   0  0  0  0  0  0  0  0  0  0  0  0
   60.7493   31.4069   49.9901 C   0  0  0  0  0  0  0  0  0  0  0  0
   60.7742   31.7615   48.6346 C   0  0  0  0  0  0  0  0  0  0  0  0
   60.6071   30.7715   47.6554 C   0  0  0  0  0  0  0  0  0  0  0  0
   60.9754   33.4512   48.1780 S   0  0  0  0  0  0  0  0  0  0  0  0
   62.0999   33.5529   47.1848 O   0  0  0  0  0  0  0  0  0  0  0  0
   61.3217   34.2766   49.3905 O   0  0  0  0  0  0  0  0  0  0  0  0
   59.4970   34.0535   47.4675 N   0  0  0  0  0  0  0  0  0  0  0  0
   59.7751   34.8191   46.2278 C   0  0  0  0  0  0  0  0  0  0  0  0
   59.0384   34.2521   45.0027 C   0  0  0  0  0  0  0  0  0  0  0  0
   57.6492   34.1296   45.2504 O   0  0  0  0  0  0  0  0  0  0  0  0
   57.3550   33.3734   46.4232 C   0  0  0  0  0  0  0  0  0  0  0  0
   58.5713   32.9278   47.2557 C   0  0  0  0  0  0  0  0  0  0  0  0
  1  2  2  0
  2  3  1  0
  3  4  1  0
  4  5  1  0
  5  6  1  0
  6  7  1  0
  6  8  2  0
  8  9  1  0
  9 10  2  0
 10 11  1  0
  9 12  1  0
 12 13  1  0
 13 14  2  0
 14 15  1  0
  2 17  1  0
 17 18  1  0
 18 19  2  0
 19 20  1  0
 20 21  2  0
 21 22  1  0
 22 24  1  0
 24 25  2  0
 24 26  2  0
 24 27  1  0
 27 28  1  0
 28 29  1  0
 29 30  1  0
 30 31  1  0
 31 32  1  0
 22 23  2  0
 10  5  1  0
 23 18  1  0
 15  8  1  0
 32 27  1  0
 11 16  1  0
M  CHG 1   7  -1
M  CHG 1  17  -1
M  END
> <UniqueID>
70

> <SMILES>
O=C(CCn1c([O-])c2c(c1O)CC=CC2)[N-]c1cccc(S(=O)(=O)N2CCOCC2)c1

> <Energy>
98.04263342902141

> <Genealogy>
O=C(CCn1c([O-])c2c(c1O)CC=CC2)[N-]c1cccc(S(=O)(=O)N2CCOCC2)c1 (protonated)
O=C(CCn1c([O-])c2c(c1O)CC=CC2)[N-]c1cccc(S(=O)(=O)N2CCOCC2)c1 (3D coordinates assigned)
O=C(CCn1c([O-])c2c(c1O)CC=CC2)[N-]c1cccc(S(=O)(=O)N2CCOCC2)c1 (nonaromatic ring conformer: 98.04263342902141 kcal/mol)

> <smiles>
O=C(CCn1c(O)c2c(c1O)CC=CC2)Nc1cccc(S(=O)(=O)N2CCOCC2)c1

> <score_type>
oracle

> <origin>
adg

> <m_score__min__energy>
-14.869999999999999

> <m_primary>
energy

> <minimizedAffinity>
-8.26326

> <minimizedRMSD>
0.76154

> <CNNscore>
0.2270184010

> <CNNaffinity>
6.0510163307

> <CNN_VS>
1.3736920357

> <CNNaffinity_variance>
0.1169665083

$$$$
3:0


 25 27  0  0  0  0  0  0  0  0999 V2000
   59.2117   31.7593   47.5506 C   0  0  0  0  0  0  0  0  0  0  0  0
   58.2870   31.2565   46.6916 N   0  0  0  0  0  0  0  0  0  0  0  0
   57.9395   31.8986   45.5408 C   0  0  0  0  0  0  0  0  0  0  0  0
   57.0394   31.4075   44.7389 N   0  0  0  0  0  0  0  0  0  0  0  0
   58.5290   33.1302   45.2388 C   0  0  0  0  0  0  0  0  0  0  0  0
   59.4803   33.6701   46.1051 C   0  0  0  0  0  0  0  0  0  0  0  0
   59.8452   32.9826   47.2751 C   0  0  0  0  0  0  0  0  0  0  0  0
   60.8528   33.5548   48.2009 C   0  0  0  0  0  0  0  0  0  0  0  0
   60.5136   34.4763   48.9932 O   0  0  0  0  0  0  0  0  0  0  0  0
   62.2183   33.1069   48.1723 N   0  0  0  0  0  0  0  0  0  0  0  0
   62.5397   32.6499   47.3618 H   0  0  0  0  0  0  0  0  0  0  0  0
   63.1417   33.2881   49.2595 C   0  0  0  0  0  0  0  0  0  0  0  0
   62.7907   34.0269   50.4055 C   0  0  0  0  0  0  0  0  0  0  0  0
   63.6984   34.1692   51.4600 C   0  0  0  0  0  0  0  0  0  0  0  0
   64.9580   33.5682   51.3856 C   0  0  0  0  0  0  0  0  0  0  0  0
   65.3073   32.8167   50.2597 C   0  0  0  0  0  0  0  0  0  0  0  0
   64.4018   32.6715   49.2055 C   0  0  0  0  0  0  0  0  0  0  0  0
   57.0535   30.0964   44.1555 C   0  0  0  0  0  0  0  0  0  0  0  0
   56.5283   29.9329   43.0222 O   0  0  0  0  0  0  0  0  0  0  0  0
   57.7322   28.9582   44.8058 C   0  0  0  0  0  0  0  0  0  0  0  0
   57.1161   28.0958   45.6411 N   0  0  0  0  0  0  0  0  0  0  0  0
   58.0830   27.2469   46.0350 C   0  0  0  0  0  0  0  0  0  0  0  0
   57.8578   26.1895   46.9070 O   0  0  0  0  0  0  0  0  0  0  0  0
   59.3016   27.5549   45.4771 C   0  0  0  0  0  0  0  0  0  0  0  0
   59.0795   28.6620   44.6878 C   0  0  0  0  0  0  0  0  0  0  0  0
  1  2  1  0
  2  3  1  0
  3  4  2  0
  4 18  1  0
 18 19  2  0
 18 20  1  0
 20 21  1  0
 21 22  1  0
 22 23  1  0
 22 24  2  0
 24 25  1  0
  3  5  1  0
  5  6  2  0
  6  7  1  0
  7  8  1  0
  8  9  2  0
  8 10  1  0
 10 12  1  0
 12 13  2  0
 13 14  1  0
 14 15  2  0
 15 16  1  0
 16 17  2  0
  7  1  2  0
 17 12  1  0
 25 20  2  0
 10 11  1  0
M  CHG 1   2  -1
M  CHG 1  21  -1
M  CHG 1  23  -1
M  END
> <UniqueID>
4

> <SMILES>
O=C(Nc1ccccc1)c1cc/c(=N/C(=O)c2ccc([O-])[n-]2)[n-]c1

> <Energy>
75.09944758209683

> <Genealogy>
O=C(Nc1ccccc1)c1ccc(=NC(=O)c2ccc([O-])[n-]2)[n-]c1 (protonated)
O=C(Nc1ccccc1)c1cc/c(=N/C(=O)c2ccc([O-])[n-]2)[n-]c1 (cis-trans isomerization)
O=C(Nc1ccccc1)c1cc/c(=N/C(=O)c2ccc([O-])[n-]2)[n-]c1 (3D coordinates assigned)
O=C(Nc1ccccc1)c1cc/c(=N/C(=O)c2ccc([O-])[n-]2)[n-]c1 (optimized conformer: 75.09944758209683 kcal/mol)

> <smiles>
O=C(Nc1ccccc1)c1ccc(=NC(=O)c2ccc(O)[nH]2)[nH]c1

> <score_type>
oracle

> <origin>
adg

> <m_score__min__energy>
-14.52

> <m_primary>
energy

> <minimizedAffinity>
-8.01051

> <minimizedRMSD>
1.12766

> <CNNscore>
0.6120215654

> <CNNaffinity>
6.5786576271

> <CNN_VS>
4.0262804031

> <CNNaffinity_variance>
0.2664429545

$$$$
9:0


 31 33  0  0  0  0  0  0  0  0999 V2000
   59.8450   31.0280   49.2585 C   0  0  0  0  0  0  0  0  0  0  0  0
   58.7152   30.3733   49.7103 C   0  0  0  0  0  0  0  0  0  0  0  0
   58.5315   30.8533   50.9926 C   0  0  0  0  0  0  0  0  0  0  0  0
   59.5055   31.7581   51.2573 N   0  0  0  0  0  0  0  0  0  0  0  0
   60.3026   31.8690   50.2048 N   0  0  0  0  0  0  0  0  0  0  0  0
   59.6751   32.5585   52.4385 C   0  0  0  0  0  0  0  0  0  0  0  0
   58.9340   33.7401   52.6188 C   0  0  0  0  0  0  0  0  0  0  0  0
   59.1310   34.5278   53.7567 C   0  0  0  0  0  0  0  0  0  0  0  0
   60.0765   34.1515   54.7152 C   0  0  0  0  0  0  0  0  0  0  0  0
   60.8328   32.9907   54.5314 C   0  0  0  0  0  0  0  0  0  0  0  0
   60.6395   32.2008   53.3935 C   0  0  0  0  0  0  0  0  0  0  0  0
   57.5182   30.3557   51.9480 C   0  0  0  0  0  0  0  0  0  0  0  0
   57.7800   29.3622   52.6773 O   0  0  0  0  0  0  0  0  0  0  0  0
   56.2270   30.9799   52.0276 N   0  0  0  0  0  0  0  0  0  0  0  0
   56.0613   31.7961   51.5026 H   0  0  0  0  0  0  0  0  0  0  0  0
   55.1510   30.4473   52.8596 C   0  0  0  0  0  0  0  0  0  0  0  0
   53.8216   30.6509   52.1849 C   0  0  0  0  0  0  0  0  0  0  0  0
   53.5064   29.9629   51.0013 C   0  0  0  0  0  0  0  0  0  0  0  0
   52.2788   30.1760   50.3692 C   0  0  0  0  0  0  0  0  0  0  0  0
   51.3580   31.0782   50.9098 C   0  0  0  0  0  0  0  0  0  0  0  0
   51.6661   31.7707   52.0854 C   0  0  0  0  0  0  0  0  0  0  0  0
   50.7521   32.6711   52.6202 O   0  0  0  0  0  0  0  0  0  0  0  0
   52.8939   31.5598   52.7213 C   0  0  0  0  0  0  0  0  0  0  0  0
   60.4459   30.8973   47.8951 C   0  0  0  0  0  0  0  0  0  0  0  0
   59.5599   31.5795   46.8518 C   0  0  0  0  0  0  0  0  0  0  0  0
   59.0526   30.5910   45.8982 N   0  0  0  0  0  0  0  0  0  0  0  0
   56.4380   29.9996   45.0101 N   0  0  0  0  0  0  0  0  0  0  0  0
   57.6760   31.2055   45.0331 S   0  0  0  0  0  0  0  0  0  0  0  0
   57.1456   32.4407   45.7049 O   0  0  0  0  0  0  0  0  0  0  0  0
   58.0695   31.5347   43.6200 O   0  0  0  0  0  0  0  0  0  0  0  0
   55.6270   30.3546   44.5035 H   0  0  0  0  0  0  0  0  0  0  0  0
 27 28  1  0
 28 29  2  0
 28 30  2  0
 28 26  1  0
 26 25  1  0
 25 24  1  0
 24  1  1  0
  1  2  1  0
  2  3  2  0
  3 12  1  0
 12 13  2  0
 12 14  1  0
 14 16  1  0
 16 17  1  0
 17 18  2  0
 18 19  1  0
 19 20  2  0
 20 21  1  0
 21 22  1  0
 21 23  2  0
  3  4  1  0
  4  6  1  0
  6  7  2  0
  7  8  1  0
  8  9  2  0
  9 10  1  0
 10 11  2  0
  4  5  1  0
  5  1  2  0
 23 17  1  0
 11  6  1  0
 27 31  1  0
 14 15  1  0
M  CHG 1  22  -1
M  CHG 1  26  -1
M  CHG 1  27  -1
M  END
> <UniqueID>
10

> <SMILES>
[NH-]S(=O)(=O)[N-]CCc1cc(C(=O)NCc2cccc([O-])c2)n(-c2ccccc2)n1

> <Energy>
77.76172660919768

> <Genealogy>
[NH-]S(=O)(=O)[N-]CCc1cc(C(=O)NCc2cccc([O-])c2)n(-c2ccccc2)n1 (protonated)
[NH-]S(=O)(=O)[N-]CCc1cc(C(=O)NCc2cccc([O-])c2)n(-c2ccccc2)n1 (3D coordinates assigned)
[NH-]S(=O)(=O)[N-]CCc1cc(C(=O)NCc2cccc([O-])c2)n(-c2ccccc2)n1 (optimized conformer: 77.76172660919768 kcal/mol)

> <smiles>
NS(=O)(=O)NCCc1cc(C(=O)NCc2cccc(O)c2)n(-c2ccccc2)n1

> <score_type>
oracle

> <origin>
adg

> <m_score__min__energy>
-15.76

> <m_primary>
energy

> <minimizedAffinity>
-5.06921

> <minimizedRMSD>
0.98444

> <CNNscore>
0.5013493299

> <CNNaffinity>
5.8881554604

> <CNN_VS>
2.9520227909

> <CNNaffinity_variance>
0.0243493319

$$$$
10:0


 23 24  0  0  0  0  0  0  0  0999 V2000
   59.4907   29.6133   45.0859 C   0  0  0  0  0  0  0  0  0  0  0  0
   58.6605   28.6165   44.7373 C   0  0  0  0  0  0  0  0  0  0  0  0
   59.4272   32.6414   47.3549 C   0  0  0  0  0  0  0  0  0  0  0  0
   58.4120   33.4007   46.7603 C   0  0  0  0  0  0  0  0  0  0  0  0
   57.7488   32.9303   45.6237 C   0  0  0  0  0  0  0  0  0  0  0  0
   58.0871   31.6908   45.0783 C   0  0  0  0  0  0  0  0  0  0  0  0
   59.0809   30.9014   45.6808 C   0  0  0  0  0  0  0  0  0  0  0  0
   59.7660   31.3911   46.8022 C   0  0  0  0  0  0  0  0  0  0  0  0
   60.0899   33.1694   48.5111 N   0  0  0  0  0  0  0  0  0  0  0  0
   62.4158   31.7742   49.4128 C   0  0  0  0  0  0  0  0  0  0  0  0
   61.8081   33.2905   48.7093 S   0  0  0  0  0  0  0  0  0  0  0  0
   62.1370   34.4283   49.6361 O   0  0  0  0  0  0  0  0  0  0  0  0
   62.4624   33.5106   47.3753 O   0  0  0  0  0  0  0  0  0  0  0  0
   57.4179   28.2290   45.4530 C   0  0  0  0  0  0  0  0  0  0  0  0
   56.3368   28.8379   45.2429 O   0  0  0  0  0  0  0  0  0  0  0  0
   57.4176   27.1454   46.3906 N   0  0  0  0  0  0  0  0  0  0  0  0
   57.3601   25.7509   46.0649 C   0  0  0  0  0  0  0  0  0  0  0  0
   58.5577   25.0621   45.8309 C   0  0  0  0  0  0  0  0  0  0  0  0
   58.5385   23.7051   45.4920 C   0  0  0  0  0  0  0  0  0  0  0  0
   57.3198   23.0327   45.3661 C   0  0  0  0  0  0  0  0  0  0  0  0
   56.1188   23.7194   45.5633 C   0  0  0  0  0  0  0  0  0  0  0  0
   56.1314   25.0793   45.8991 C   0  0  0  0  0  0  0  0  0  0  0  0
   54.9250   25.7566   46.0371 O   0  0  0  0  0  0  0  0  0  0  0  0
 10 11  1  0
 11 12  2  0
 11 13  2  0
 11  9  1  0
  9  3  1  0
  3  4  2  0
  4  5  1  0
  5  6  2  0
  6  7  1  0
  7  1  1  0
  1  2  2  0
  2 14  1  0
 14 15  2  0
 14 16  1  0
 16 17  1  0
 17 18  2  0
 18 19  1  0
 19 20  2  0
 20 21  1  0
 21 22  2  0
 22 23  1  0
  7  8  2  0
  8  3  1  0
 22 17  1  0
M  CHG 1   9  -1
M  CHG 1  16  -1
M  CHG 1  23  -1
M  END
> <UniqueID>
11

> <SMILES>
CS(=O)(=O)[N-]c1cccc(C=CC(=O)[N-]c2ccccc2[O-])c1

> <Energy>
50.38884918614028

> <Genealogy>
CS(=O)(=O)[N-]c1cccc(C=CC(=O)[N-]c2ccccc2[O-])c1 (protonated)
CS(=O)(=O)[N-]c1cccc(C=CC(=O)[N-]c2ccccc2[O-])c1 (3D coordinates assigned)
CS(=O)(=O)[N-]c1cccc(C=CC(=O)[N-]c2ccccc2[O-])c1 (optimized conformer: 50.38884918614028 kcal/mol)

> <smiles>
CS(=O)(=O)Nc1cccc(C=CC(=O)Nc2ccccc2O)c1

> <score_type>
oracle

> <origin>
adg

> <m_score__min__energy>
-15.029999999999999

> <m_primary>
energy

> <minimizedAffinity>
-6.93276

> <minimizedRMSD>
1.93028

> <CNNscore>
0.6551377177

> <CNNaffinity>
6.5018973351

> <CNN_VS>
4.2596383095

> <CNNaffinity_variance>
0.4919524193

$$$$
16:0


 25 26  0  0  0  0  0  0  0  0999 V2000
   57.9185   32.6934   45.8346 C   0  0  0  0  0  0  0  0  0  0  0  0
   57.3411   33.7119   45.3729 O   0  0  0  0  0  0  0  0  0  0  0  0
   58.5300   32.7731   47.1295 N   0  0  0  0  0  0  0  0  0  0  0  0
   60.4145   31.6561   48.2937 C   0  0  0  0  0  0  0  0  0  0  0  0
   61.8047   31.5490   48.5033 C   0  0  0  0  0  0  0  0  0  0  0  0
   62.6942   32.4033   47.8492 C   0  0  0  0  0  0  0  0  0  0  0  0
   62.2146   33.3672   46.9635 C   0  0  0  0  0  0  0  0  0  0  0  0
   60.8435   33.4847   46.7347 C   0  0  0  0  0  0  0  0  0  0  0  0
   59.9324   32.6488   47.4033 C   0  0  0  0  0  0  0  0  0  0  0  0
   59.5029   30.7569   49.0514 C   0  0  0  0  0  0  0  0  0  0  0  0
   59.3089   29.5760   48.6512 O   0  0  0  0  0  0  0  0  0  0  0  0
   58.3550   30.2940   51.2669 C   0  0  0  0  0  0  0  0  0  0  0  0
   58.8654   31.2033   50.2528 N   0  0  0  0  0  0  0  0  0  0  0  0
   57.9829   31.4485   44.9939 C   0  0  0  0  0  0  0  0  0  0  0  0
   57.7262   30.2801   45.8235 N   0  0  0  0  0  0  0  0  0  0  0  0
   57.1698   29.0618   45.3217 C   0  0  0  0  0  0  0  0  0  0  0  0
   56.1703   29.1061   44.5546 O   0  0  0  0  0  0  0  0  0  0  0  0
   57.7585   27.7585   45.7306 C   0  0  0  0  0  0  0  0  0  0  0  0
   59.1587   27.6260   45.8125 C   0  0  0  0  0  0  0  0  0  0  0  0
   59.7395   26.4248   46.2296 C   0  0  0  0  0  0  0  0  0  0  0  0
   61.4861   26.2903   46.3392 Cl  0  0  0  0  0  0  0  0  0  0  0  0
   58.9323   25.3367   46.5620 C   0  0  0  0  0  0  0  0  0  0  0  0
   57.5440   25.4449   46.4741 C   0  0  0  0  0  0  0  0  0  0  0  0
   56.9522   26.6453   46.0620 C   0  0  0  0  0  0  0  0  0  0  0  0
   55.5634   26.7120   45.9874 O   0  0  0  0  0  0  0  0  0  0  0  0
 12 13  1  0
 13 10  1  0
 10 11  2  0
 10  4  1  0
  4  5  2  0
  5  6  1  0
  6  7  2  0
  7  8  1  0
  8  9  2  0
  9  3  1  0
  3  1  1  0
  1  2  2  0
  1 14  1  0
 14 15  1  0
 15 16  1  0
 16 17  2  0
 16 18  1  0
 18 19  2  0
 19 20  1  0
 20 21  1  0
 20 22  2  0
 22 23  1  0
 23 24  2  0
 24 25  1  0
  9  4  1  0
 24 18  1  0
M  CHG 1   3  -1
M  CHG 1  13  -1
M  CHG 1  15  -1
M  CHG 1  25  -1
M  END
> <UniqueID>
17

> <SMILES>
C[N-]C(=O)c1ccccc1[N-]C(=O)C[N-]C(=O)c1cc(Cl)ccc1[O-]

> <Energy>
40.456930343897774

> <Genealogy>
C[N-]C(=O)c1ccccc1[N-]C(=O)C[N-]C(=O)c1cc(Cl)ccc1[O-] (protonated)
C[N-]C(=O)c1ccccc1[N-]C(=O)C[N-]C(=O)c1cc(Cl)ccc1[O-] (3D coordinates assigned)
C[N-]C(=O)c1ccccc1[N-]C(=O)C[N-]C(=O)c1cc(Cl)ccc1[O-] (optimized conformer: 40.456930343897774 kcal/mol)

> <smiles>
CNC(=O)c1ccccc1NC(=O)CNC(=O)c1cc(Cl)ccc1O

> <score_type>
oracle

> <origin>
adg

> <m_score__min__energy>
-14.68

> <m_primary>
energy

> <minimizedAffinity>
-6.02490

> <minimizedRMSD>
1.03541

> <CNNscore>
0.6640810966

> <CNNaffinity>
6.5366330147

> <CNN_VS>
4.3408546448

> <CNNaffinity_variance>
0.2225026935

$$$$
25:0


 23 25  0  0  0  0  0  0  0  0999 V2000
   61.6873   29.9228   46.8108 C   0  0  0  0  0  0  0  0  0  0  0  0
   60.4742   30.4759   46.6549 C   0  0  0  0  0  0  0  0  0  0  0  0
   59.4534   30.0464   45.7910 C   0  0  0  0  0  0  0  0  0  0  0  0
   59.3098   28.9039   45.0921 C   0  0  0  0  0  0  0  0  0  0  0  0
   58.5123   31.0627   45.7679 C   0  0  0  0  0  0  0  0  0  0  0  0
   58.9392   32.0238   46.6615 C   0  0  0  0  0  0  0  0  0  0  0  0
   58.2077   33.2971   46.9560 C   0  0  0  0  0  0  0  0  0  0  0  0
   60.1268   31.6685   47.2018 N   0  0  0  0  0  0  0  0  0  0  0  0
   60.8922   32.4534   48.1334 C   0  0  0  0  0  0  0  0  0  0  0  0
   61.9591   33.2453   47.6797 C   0  0  0  0  0  0  0  0  0  0  0  0
   62.7022   34.0092   48.5847 C   0  0  0  0  0  0  0  0  0  0  0  0
   62.3850   33.9894   49.9465 C   0  0  0  0  0  0  0  0  0  0  0  0
   63.1066   34.7307   50.8219 F   0  0  0  0  0  0  0  0  0  0  0  0
   61.3226   33.2035   50.4039 C   0  0  0  0  0  0  0  0  0  0  0  0
   60.5760   32.4376   49.5022 C   0  0  0  0  0  0  0  0  0  0  0  0
   59.5389   31.6915   49.9578 F   0  0  0  0  0  0  0  0  0  0  0  0
   58.4605   27.7646   45.4770 C   0  0  0  0  0  0  0  0  0  0  0  0
   58.9055   26.6399   46.0671 N   0  0  0  0  0  0  0  0  0  0  0  0
   57.7697   25.9664   46.3505 C   0  0  0  0  0  0  0  0  0  0  0  0
   57.7737   24.8351   46.9031 O   0  0  0  0  0  0  0  0  0  0  0  0
   56.6312   26.6027   46.0031 N   0  0  0  0  0  0  0  0  0  0  0  0
   57.0877   27.7458   45.4661 C   0  0  0  0  0  0  0  0  0  0  0  0
   56.2644   28.7540   44.9815 O   0  0  0  0  0  0  0  0  0  0  0  0
  1  2  2  0
  2  3  1  0
  3  4  2  0
  4 17  1  0
 17 18  1  0
 18 19  1  0
 19 20  2  0
 19 21  1  0
 21 22  1  0
 22 23  1  0
  3  5  1  0
  5  6  2  0
  6  7  1  0
  6  8  1  0
  8  9  1  0
  9 10  2  0
 10 11  1  0
 11 12  2  0
 12 13  1  0
 12 14  1  0
 14 15  2  0
 15 16  1  0
  8  2  1  0
 15  9  1  0
 22 17  2  0
M  CHG 1  18  -1
M  CHG 1  21  -1
M  CHG 1  23  -1
M  END
> <UniqueID>
26

> <SMILES>
C=c1/c(=C\c2[n-]c(=O)[n-]c2[O-])cc(C)n1-c1ccc(F)cc1F

> <Energy>
110.41358378103905

> <Genealogy>
C=c1c(=Cc2[n-]c(=O)[n-]c2[O-])cc(C)n1-c1ccc(F)cc1F (protonated)
C=c1/c(=C\c2[n-]c(=O)[n-]c2[O-])cc(C)n1-c1ccc(F)cc1F (cis-trans isomerization)
C=c1/c(=C\c2[n-]c(=O)[n-]c2[O-])cc(C)n1-c1ccc(F)cc1F (3D coordinates assigned)
C=c1/c(=C\c2[n-]c(=O)[n-]c2[O-])cc(C)n1-c1ccc(F)cc1F (optimized conformer: 110.41358378103905 kcal/mol)

> <smiles>
C=c1c(=Cc2[nH]c(=O)[nH]c2O)cc(C)n1-c1ccc(F)cc1F

> <score_type>
oracle

> <origin>
adg

> <m_score__min__energy>
-15.19

> <m_primary>
energy

> <minimizedAffinity>
-5.75040

> <minimizedRMSD>
1.83133

> <CNNscore>
0.2625967264

> <CNNaffinity>
6.4361510277

> <CNN_VS>
1.6901122332

> <CNNaffinity_variance>
0.2459516078

$$$$
35:0


 22 23  0  0  0  0  0  0  0  0999 V2000
   57.5347   29.4777   44.5806 C   0  0  0  0  0  0  0  0  0  0  0  0
   56.3899   29.4968   45.1042 O   0  0  0  0  0  0  0  0  0  0  0  0
   57.9721   28.2418   43.8317 C   0  0  0  0  0  0  0  0  0  0  0  0
   57.8788   25.8401   44.4376 C   0  0  0  0  0  0  0  0  0  0  0  0
   58.2372   27.0883   44.7584 C   0  0  0  0  0  0  0  0  0  0  0  0
   57.2886   24.8868   45.3967 C   0  0  0  0  0  0  0  0  0  0  0  0
   57.9862   23.3965   45.7582 S   0  0  0  0  0  0  0  0  0  0  0  0
   56.7762   22.9842   46.8439 C   0  0  0  0  0  0  0  0  0  0  0  0
   56.7346   21.9022   47.4846 O   0  0  0  0  0  0  0  0  0  0  0  0
   55.8418   23.9488   46.9647 N   0  0  0  0  0  0  0  0  0  0  0  0
   56.1238   25.0118   46.1663 C   0  0  0  0  0  0  0  0  0  0  0  0
   55.3097   26.1364   46.1584 O   0  0  0  0  0  0  0  0  0  0  0  0
   58.3909   30.6153   44.7525 N   0  0  0  0  0  0  0  0  0  0  0  0
   59.1639   30.9057   45.9252 C   0  0  0  0  0  0  0  0  0  0  0  0
   59.9225   29.8868   46.5271 C   0  0  0  0  0  0  0  0  0  0  0  0
   60.7043   30.1558   47.6493 C   0  0  0  0  0  0  0  0  0  0  0  0
   60.7509   31.4448   48.1761 C   0  0  0  0  0  0  0  0  0  0  0  0
   60.0167   32.4724   47.5795 C   0  0  0  0  0  0  0  0  0  0  0  0
   59.2148   32.2220   46.4499 C   0  0  0  0  0  0  0  0  0  0  0  0
   58.4488   33.3020   45.8751 N   0  0  0  0  0  0  0  0  0  0  0  0
   58.9789   34.1336   45.1082 O   0  0  0  0  0  0  0  0  0  0  0  0
   57.0949   33.3879   46.0997 O   0  0  0  0  0  0  0  0  0  0  0  0
  4  5  2  0
  5  3  1  0
  3  1  1  0
  1  2  2  0
  1 13  1  0
 13 14  1  0
 14 15  2  0
 15 16  1  0
 16 17  2  0
 17 18  1  0
 18 19  2  0
 19 20  1  0
 20 21  2  0
 20 22  1  0
  4  6  1  0
  6  7  1  0
  7  8  1  0
  8  9  2  0
  8 10  1  0
 10 11  1  0
 11 12  1  0
 19 14  1  0
 11  6  2  0
M  CHG 1  10  -1
M  CHG 1  12  -1
M  CHG 1  13  -1
M  CHG 1  20   1
M  CHG 1  22  -1
M  END
> <UniqueID>
36

> <SMILES>
O=C(C/C=C/c1sc(=O)[n-]c1[O-])[N-]c1ccccc1[N+](=O)[O-]

> <Energy>
68.40660310863315

> <Genealogy>
O=C(CC=Cc1sc(=O)[n-]c1[O-])[N-]c1ccccc1[N+](=O)[O-] (protonated)
O=C(C/C=C/c1sc(=O)[n-]c1[O-])[N-]c1ccccc1[N+](=O)[O-] (cis-trans isomerization)
O=C(C/C=C/c1sc(=O)[n-]c1[O-])[N-]c1ccccc1[N+](=O)[O-] (3D coordinates assigned)
O=C(C/C=C/c1sc(=O)[n-]c1[O-])[N-]c1ccccc1[N+](=O)[O-] (optimized conformer: 68.40660310863315 kcal/mol)

> <smiles>
O=C(CC=Cc1sc(=O)[nH]c1O)Nc1ccccc1[N+](=O)[O-]

> <score_type>
oracle

> <origin>
adg

> <m_score__min__energy>
-15.56

> <m_primary>
energy

> <minimizedAffinity>
-6.54645

> <minimizedRMSD>
1.30795

> <CNNscore>
0.5229099989

> <CNNaffinity>
6.4192605019

> <CNN_VS>
3.3566954136

> <CNNaffinity_variance>
0.5910612941

$$$$
41:0


 26 28  0  0  0  0  0  0  0  0999 V2000
   58.9243   30.2541   50.8442 C   0  0  0  0  0  0  0  0  0  0  0  0
   60.0588   29.4605   50.6094 C   0  0  0  0  0  0  0  0  0  0  0  0
   61.0870   29.9324   49.7920 C   0  0  0  0  0  0  0  0  0  0  0  0
   60.9976   31.1985   49.2102 C   0  0  0  0  0  0  0  0  0  0  0  0
   59.8714   32.0089   49.4404 C   0  0  0  0  0  0  0  0  0  0  0  0
   58.8488   31.5344   50.2808 C   0  0  0  0  0  0  0  0  0  0  0  0
   59.7722   33.3631   48.8444 C   0  0  0  0  0  0  0  0  0  0  0  0
   60.1448   34.3571   49.5249 O   0  0  0  0  0  0  0  0  0  0  0  0
   59.2452   33.5887   47.4767 C   0  0  0  0  0  0  0  0  0  0  0  0
   59.9904   34.3454   46.5524 C   0  0  0  0  0  0  0  0  0  0  0  0
   59.4955   34.5750   45.2642 C   0  0  0  0  0  0  0  0  0  0  0  0
   58.2507   34.0623   44.8894 C   0  0  0  0  0  0  0  0  0  0  0  0
   57.4948   33.3260   45.8040 C   0  0  0  0  0  0  0  0  0  0  0  0
   57.9853   33.0920   47.0932 C   0  0  0  0  0  0  0  0  0  0  0  0
   57.8514   29.8008   51.6835 N   0  0  0  0  0  0  0  0  0  0  0  0
   56.7931   30.6121   52.2134 C   0  0  0  0  0  0  0  0  0  0  0  0
   56.9950   31.8439   52.3725 O   0  0  0  0  0  0  0  0  0  0  0  0
   55.4618   30.0678   52.5450 C   0  0  0  0  0  0  0  0  0  0  0  0
   54.3682   30.8343   52.6228 C   0  0  0  0  0  0  0  0  0  0  0  0
   53.2509   30.7004   51.6725 C   0  0  0  0  0  0  0  0  0  0  0  0
   53.2391   29.8829   50.6050 N   0  0  0  0  0  0  0  0  0  0  0  0
   52.0292   30.1154   50.0493 C   0  0  0  0  0  0  0  0  0  0  0  0
   51.6370   29.5259   49.0097 O   0  0  0  0  0  0  0  0  0  0  0  0
   51.2753   31.0302   50.6952 N   0  0  0  0  0  0  0  0  0  0  0  0
   52.0637   31.3905   51.7200 C   0  0  0  0  0  0  0  0  0  0  0  0
   51.7065   32.3321   52.6770 O   0  0  0  0  0  0  0  0  0  0  0  0
 18 16  1  0
 16 17  2  0
 16 15  1  0
 15  1  1  0
  1  2  2  0
  2  3  1  0
  3  4  2  0
  4  5  1  0
  5  7  1  0
  7  8  2  0
  7  9  1  0
  9 10  2  0
 10 11  1  0
 11 12  2  0
 12 13  1  0
 13 14  2  0
  5  6  2  0
 18 19  2  0
 19 20  1  0
 20 21  1  0
 21 22  1  0
 22 23  2  0
 22 24  1  0
 24 25  1  0
 25 26  1  0
  6  1  1  0
 25 20  2  0
 14  9  1  0
M  CHG 1  15  -1
M  CHG 1  21  -1
M  CHG 1  24  -1
M  CHG 1  26  -1
M  END
> <UniqueID>
42

> <SMILES>
O=C(/C=C/c1[n-]c(=O)[n-]c1[O-])[N-]c1cccc(C(=O)c2ccccc2)c1

> <Energy>
79.89841248957113

> <Genealogy>
O=C(C=Cc1[n-]c(=O)[n-]c1[O-])[N-]c1cccc(C(=O)c2ccccc2)c1 (protonated)
O=C(/C=C/c1[n-]c(=O)[n-]c1[O-])[N-]c1cccc(C(=O)c2ccccc2)c1 (cis-trans isomerization)
O=C(/C=C/c1[n-]c(=O)[n-]c1[O-])[N-]c1cccc(C(=O)c2ccccc2)c1 (3D coordinates assigned)
O=C(/C=C/c1[n-]c(=O)[n-]c1[O-])[N-]c1cccc(C(=O)c2ccccc2)c1 (optimized conformer: 79.89841248957113 kcal/mol)

> <smiles>
O=C(C=Cc1[nH]c(=O)[nH]c1O)Nc1cccc(C(=O)c2ccccc2)c1

> <score_type>
oracle

> <origin>
adg

> <m_score__min__energy>
-19.390000000000001

> <m_primary>
energy

> <minimizedAffinity>
-6.67475

> <minimizedRMSD>
0.82950

> <CNNscore>
0.3534771800

> <CNNaffinity>
5.4597916603

> <CNN_VS>
1.9299117327

> <CNNaffinity_variance>
0.2468741387

$$$$
84:0


 23 24  0  0  0  0  0  0  0  0999 V2000
   58.8035   24.6437   45.8837 C   0  0  0  0  0  0  0  0  0  0  0  0
   59.7490   23.8886   45.5293 O   0  0  0  0  0  0  0  0  0  0  0  0
   54.7319   23.3686   45.2975 C   0  0  0  0  0  0  0  0  0  0  0  0
   55.5341   23.7221   44.2084 C   0  0  0  0  0  0  0  0  0  0  0  0
   56.8540   24.1367   44.4018 C   0  0  0  0  0  0  0  0  0  0  0  0
   57.4021   24.1962   45.6937 C   0  0  0  0  0  0  0  0  0  0  0  0
   56.5968   23.8434   46.7944 C   0  0  0  0  0  0  0  0  0  0  0  0
   57.1044   23.8809   48.0878 O   0  0  0  0  0  0  0  0  0  0  0  0
   55.2732   23.4326   46.5955 C   0  0  0  0  0  0  0  0  0  0  0  0
   53.4132   22.9585   45.0417 O   0  0  0  0  0  0  0  0  0  0  0  0
   51.0304   23.1672   45.4787 C   0  0  0  0  0  0  0  0  0  0  0  0
   52.2839   23.8223   44.9070 C   0  0  0  0  0  0  0  0  0  0  0  0
   59.1243   25.8863   46.5229 N   0  0  0  0  0  0  0  0  0  0  0  0
   58.8456   27.1990   46.0137 C   0  0  0  0  0  0  0  0  0  0  0  0
   59.9123   28.0617   45.7478 C   0  0  0  0  0  0  0  0  0  0  0  0
   59.6783   29.3420   45.2412 C   0  0  0  0  0  0  0  0  0  0  0  0
   58.3673   29.7808   44.9720 C   0  0  0  0  0  0  0  0  0  0  0  0
   57.2935   28.8963   45.2159 C   0  0  0  0  0  0  0  0  0  0  0  0
   55.9789   29.2705   44.9566 O   0  0  0  0  0  0  0  0  0  0  0  0
   57.5363   27.6160   45.7250 C   0  0  0  0  0  0  0  0  0  0  0  0
   58.1472   31.1498   44.4377 C   0  0  0  0  0  0  0  0  0  0  0  0
   58.3239   32.1568   45.1736 O   0  0  0  0  0  0  0  0  0  0  0  0
   57.7412   31.3488   43.1235 O   0  0  0  0  0  0  0  0  0  0  0  0
 11 12  1  0
 12 10  1  0
 10  3  1  0
  3  4  2  0
  4  5  1  0
  5  6  2  0
  6  1  1  0
  1  2  2  0
  1 13  1  0
 13 14  1  0
 14 15  2  0
 15 16  1  0
 16 17  2  0
 17 21  1  0
 21 22  2  0
 21 23  1  0
 17 18  1  0
 18 19  1  0
 18 20  2  0
  6  7  1  0
  7  8  1  0
  7  9  2  0
  9  3  1  0
 20 14  1  0
M  CHG 1   8  -1
M  CHG 1  13  -1
M  CHG 1  19  -1
M  CHG 1  23  -1
M  END
> <UniqueID>
82

> <SMILES>
CCOc1ccc(C(=O)[N-]c2ccc(C(=O)[O-])c([O-])c2)c([O-])c1

> <Energy>
43.13206611383118

> <Genealogy>
CCOc1ccc(C(=O)[N-]c2ccc(C(=O)[O-])c([O-])c2)c([O-])c1 (protonated)
CCOc1ccc(C(=O)[N-]c2ccc(C(=O)[O-])c([O-])c2)c([O-])c1 (3D coordinates assigned)
CCOc1ccc(C(=O)[N-]c2ccc(C(=O)[O-])c([O-])c2)c([O-])c1 (optimized conformer: 43.13206611383118 kcal/mol)

> <smiles>
CCOc1ccc(C(=O)Nc2ccc(C(=O)O)c(O)c2)c(O)c1

> <score_type>
oracle

> <origin>
adg

> <m_score__min__energy>
-15.81

> <m_primary>
energy

> <minimizedAffinity>
-6.39510

> <minimizedRMSD>
1.88446

> <CNNscore>
0.1634686887

> <CNNaffinity>
4.6735248566

> <CNN_VS>
0.7639749646

> <CNNaffinity_variance>
0.1570915580

$$$$
4:0


 23 24  0  0  0  0  0  0  0  0999 V2000
   58.4085   30.6105   44.7589 C   0  0  0  0  0  0  0  0  0  0  0  0
   59.7002   30.2929   46.8578 C   0  0  0  0  0  0  0  0  0  0  0  0
   58.6384   31.0290   46.1578 N   0  0  0  0  0  0  0  0  0  0  0  0
   58.7639   32.7584   46.3843 S   0  0  0  0  0  0  0  0  0  0  0  0
   57.4885   33.2590   47.0043 O   0  0  0  0  0  0  0  0  0  0  0  0
   58.9162   33.4282   45.0476 O   0  0  0  0  0  0  0  0  0  0  0  0
   60.1086   33.2228   47.4323 C   0  0  0  0  0  0  0  0  0  0  0  0
   61.4099   33.2965   46.9137 C   0  0  0  0  0  0  0  0  0  0  0  0
   62.4770   33.6633   47.7397 C   0  0  0  0  0  0  0  0  0  0  0  0
   62.2532   33.9492   49.0884 C   0  0  0  0  0  0  0  0  0  0  0  0
   60.9608   33.8622   49.6151 C   0  0  0  0  0  0  0  0  0  0  0  0
   59.8917   33.4953   48.7920 C   0  0  0  0  0  0  0  0  0  0  0  0
   57.1986   29.7227   44.5324 C   0  0  0  0  0  0  0  0  0  0  0  0
   56.6324   29.7066   43.4100 O   0  0  0  0  0  0  0  0  0  0  0  0
   56.8073   28.7315   45.4941 N   0  0  0  0  0  0  0  0  0  0  0  0
   57.4744   27.4960   45.7858 C   0  0  0  0  0  0  0  0  0  0  0  0
   58.8731   27.4307   45.8910 C   0  0  0  0  0  0  0  0  0  0  0  0
   59.5013   26.2250   46.2208 C   0  0  0  0  0  0  0  0  0  0  0  0
   61.2500   26.1518   46.3350 Cl  0  0  0  0  0  0  0  0  0  0  0  0
   58.7337   25.0834   46.4710 C   0  0  0  0  0  0  0  0  0  0  0  0
   57.3399   25.1493   46.4010 C   0  0  0  0  0  0  0  0  0  0  0  0
   56.7098   26.3542   46.0700 C   0  0  0  0  0  0  0  0  0  0  0  0
   55.3210   26.4111   46.0153 O   0  0  0  0  0  0  0  0  0  0  0  0
  2  3  1  0
  3  1  1  0
  1 13  1  0
 13 14  2  0
 13 15  1  0
 15 16  1  0
 16 17  2  0
 17 18  1  0
 18 19  1  0
 18 20  2  0
 20 21  1  0
 21 22  2  0
 22 23  1  0
  3  4  1  0
  4  5  2  0
  4  6  2  0
  4  7  1  0
  7  8  2  0
  8  9  1  0
  9 10  2  0
 10 11  1  0
 11 12  2  0
 22 16  1  0
 12  7  1  0
M  CHG 1  15  -1
M  CHG 1  23  -1
M  END
> <UniqueID>
3

> <SMILES>
CN(CC(=O)[N-]c1cc(Cl)ccc1[O-])S(=O)(=O)c1ccccc1

> <Energy>
47.04907950249011

> <Genealogy>
CN(CC(=O)[N-]c1cc(Cl)ccc1[O-])S(=O)(=O)c1ccccc1 (protonated)
CN(CC(=O)[N-]c1cc(Cl)ccc1[O-])S(=O)(=O)c1ccccc1 (3D coordinates assigned)
CN(CC(=O)[N-]c1cc(Cl)ccc1[O-])S(=O)(=O)c1ccccc1 (optimized conformer: 47.04907950249011 kcal/mol)

> <smiles>
CN(CC(=O)Nc1cc(Cl)ccc1O)S(=O)(=O)c1ccccc1

> <score_type>
oracle

> <origin>
adg

> <m_score__min__energy>
-14.460000000000001

> <m_primary>
energy

> <minimizedAffinity>
-6.26575

> <minimizedRMSD>
1.16146

> <CNNscore>
0.7997776866

> <CNNaffinity>
6.4073042870

> <CNN_VS>
5.1244192123

> <CNNaffinity_variance>
0.1356152445

$$$$
11:0


 27 28  0  0  0  0  0  0  0  0999 V2000
   57.1956   29.8546   44.6456 C   0  0  0  0  0  0  0  0  0  0  0  0
   55.9968   30.2191   44.7749 O   0  0  0  0  0  0  0  0  0  0  0  0
   58.1889   30.7905   44.1986 N   0  0  0  0  0  0  0  0  0  0  0  0
   59.1371   30.5280   44.2351 H   0  0  0  0  0  0  0  0  0  0  0  0
   57.5554   28.5183   45.0145 N   0  0  0  0  0  0  0  0  0  0  0  0
   58.3993   26.8430   46.6072 C   0  0  0  0  0  0  0  0  0  0  0  0
   59.2946   26.4734   47.6231 C   0  0  0  0  0  0  0  0  0  0  0  0
   60.2381   27.3856   48.1009 C   0  0  0  0  0  0  0  0  0  0  0  0
   60.3010   28.6714   47.5623 C   0  0  0  0  0  0  0  0  0  0  0  0
   59.4171   29.0515   46.5508 C   0  0  0  0  0  0  0  0  0  0  0  0
   58.4465   28.1497   46.0782 C   0  0  0  0  0  0  0  0  0  0  0  0
   55.6433   26.4046   46.0047 N   0  0  0  0  0  0  0  0  0  0  0  0
   57.2117   25.6771   46.0153 S   0  0  0  0  0  0  0  0  0  0  0  0
   57.5786   25.2524   44.6205 O   0  0  0  0  0  0  0  0  0  0  0  0
   57.1792   24.4637   46.9017 O   0  0  0  0  0  0  0  0  0  0  0  0
   54.9582   25.7308   45.6628 H   0  0  0  0  0  0  0  0  0  0  0  0
   57.8459   32.1183   43.6913 C   0  0  0  0  0  0  0  0  0  0  0  0
   58.0725   33.1758   44.7408 C   0  0  0  0  0  0  0  0  0  0  0  0
   57.1045   33.8856   45.1215 O   0  0  0  0  0  0  0  0  0  0  0  0
   59.3166   33.2766   45.4479 N   0  0  0  0  0  0  0  0  0  0  0  0
   59.4947   33.2142   46.8671 C   0  0  0  0  0  0  0  0  0  0  0  0
   60.3013   34.1717   47.4951 C   0  0  0  0  0  0  0  0  0  0  0  0
   60.5242   34.1115   48.8748 C   0  0  0  0  0  0  0  0  0  0  0  0
   59.9599   33.0803   49.6312 C   0  0  0  0  0  0  0  0  0  0  0  0
   59.1803   32.1015   49.0054 C   0  0  0  0  0  0  0  0  0  0  0  0
   58.6514   31.0885   49.7355 F   0  0  0  0  0  0  0  0  0  0  0  0
   58.9565   32.1608   47.6264 C   0  0  0  0  0  0  0  0  0  0  0  0
 12 13  1  0
 13 14  2  0
 13 15  2  0
 13  6  1  0
  6  7  2  0
  7  8  1  0
  8  9  2  0
  9 10  1  0
 10 11  2  0
 11  5  1  0
  5  1  1  0
  1  2  2  0
  1  3  1  0
  3 17  1  0
 17 18  1  0
 18 19  2  0
 18 20  1  0
 20 21  1  0
 21 22  2  0
 22 23  1  0
 23 24  2  0
 24 25  1  0
 25 26  1  0
 25 27  2  0
 11  6  1  0
 27 21  1  0
 12 16  1  0
  3  4  1  0
M  CHG 1   5  -1
M  CHG 1  12  -1
M  CHG 1  20  -1
M  END
> <UniqueID>
10

> <SMILES>
[NH-]S(=O)(=O)c1ccccc1[N-]C(=O)NCC(=O)[N-]c1cccc(F)c1

> <Energy>
45.895438579600246

> <Genealogy>
[NH-]S(=O)(=O)c1ccccc1[N-]C(=O)NCC(=O)[N-]c1cccc(F)c1 (protonated)
[NH-]S(=O)(=O)c1ccccc1[N-]C(=O)NCC(=O)[N-]c1cccc(F)c1 (3D coordinates assigned)
[NH-]S(=O)(=O)c1ccccc1[N-]C(=O)NCC(=O)[N-]c1cccc(F)c1 (optimized conformer: 45.895438579600246 kcal/mol)

> <smiles>
NS(=O)(=O)c1ccccc1NC(=O)NCC(=O)Nc1cccc(F)c1

> <score_type>
oracle

> <origin>
adg

> <m_score__min__energy>
-14.550000000000001

> <m_primary>
energy

> <minimizedAffinity>
-7.94597

> <minimizedRMSD>
0.97716

> <CNNscore>
0.8193085790

> <CNNaffinity>
6.9368348122

> <CNN_VS>
5.6834082603

> <CNNaffinity_variance>
0.1621693075

$$$$
14:0


 27 28  0  0  0  0  0  0  0  0999 V2000
   58.2395   32.1737   45.8828 C   0  0  0  0  0  0  0  0  0  0  0  0
   57.1817   32.4162   45.2423 O   0  0  0  0  0  0  0  0  0  0  0  0
   58.9446   30.9438   45.6751 N   0  0  0  0  0  0  0  0  0  0  0  0
   59.7725   30.7725   46.1796 H   0  0  0  0  0  0  0  0  0  0  0  0
   58.7563   33.1789   46.8662 C   0  0  0  0  0  0  0  0  0  0  0  0
   58.9035   32.5839   48.1956 N   0  0  0  0  0  0  0  0  0  0  0  0
   60.5695   32.2219   48.5486 S   0  0  0  0  0  0  0  0  0  0  0  0
   61.3846   32.2900   47.2865 O   0  0  0  0  0  0  0  0  0  0  0  0
   61.0994   33.2499   49.5073 O   0  0  0  0  0  0  0  0  0  0  0  0
   61.1592   26.7066   51.0197 C   0  0  0  0  0  0  0  0  0  0  0  0
   60.9800   28.0740   50.4303 C   0  0  0  0  0  0  0  0  0  0  0  0
   61.4606   29.2058   51.1073 C   0  0  0  0  0  0  0  0  0  0  0  0
   61.3282   30.4764   50.5403 C   0  0  0  0  0  0  0  0  0  0  0  0
   60.7212   30.6280   49.2850 C   0  0  0  0  0  0  0  0  0  0  0  0
   60.2637   29.4974   48.5965 C   0  0  0  0  0  0  0  0  0  0  0  0
   60.3960   28.2267   49.1635 C   0  0  0  0  0  0  0  0  0  0  0  0
   58.4617   29.9375   44.7303 C   0  0  0  0  0  0  0  0  0  0  0  0
   57.3504   29.1251   45.3341 C   0  0  0  0  0  0  0  0  0  0  0  0
   56.1789   29.2833   44.9017 O   0  0  0  0  0  0  0  0  0  0  0  0
   57.5886   28.1258   46.3356 N   0  0  0  0  0  0  0  0  0  0  0  0
   57.8316   26.7297   46.1140 C   0  0  0  0  0  0  0  0  0  0  0  0
   59.1380   26.2131   46.0445 C   0  0  0  0  0  0  0  0  0  0  0  0
   59.3440   24.8429   45.8566 C   0  0  0  0  0  0  0  0  0  0  0  0
   58.2528   23.9775   45.7552 C   0  0  0  0  0  0  0  0  0  0  0  0
   56.9525   24.4791   45.8526 C   0  0  0  0  0  0  0  0  0  0  0  0
   56.7406   25.8490   46.0394 C   0  0  0  0  0  0  0  0  0  0  0  0
   55.4409   26.3345   46.1437 O   0  0  0  0  0  0  0  0  0  0  0  0
 10 11  1  0
 11 12  2  0
 12 13  1  0
 13 14  2  0
 14  7  1  0
  7  8  2  0
  7  9  2  0
  7  6  1  0
  6  5  1  0
  5  1  1  0
  1  2  2  0
  1  3  1  0
  3 17  1  0
 17 18  1  0
 18 19  2  0
 18 20  1  0
 20 21  1  0
 21 22  2  0
 22 23  1  0
 23 24  2  0
 24 25  1  0
 25 26  2  0
 26 27  1  0
 14 15  1  0
 15 16  2  0
 16 11  1  0
 26 21  1  0
  3  4  1  0
M  CHG 1   6  -1
M  CHG 1  20  -1
M  CHG 1  27  -1
M  END
> <UniqueID>
13

> <SMILES>
Cc1ccc(S(=O)(=O)[N-]CC(=O)NCC(=O)[N-]c2ccccc2[O-])cc1

> <Energy>
41.7795391362452

> <Genealogy>
Cc1ccc(S(=O)(=O)[N-]CC(=O)NCC(=O)[N-]c2ccccc2[O-])cc1 (protonated)
Cc1ccc(S(=O)(=O)[N-]CC(=O)NCC(=O)[N-]c2ccccc2[O-])cc1 (3D coordinates assigned)
Cc1ccc(S(=O)(=O)[N-]CC(=O)NCC(=O)[N-]c2ccccc2[O-])cc1 (optimized conformer: 41.7795391362452 kcal/mol)

> <smiles>
Cc1ccc(S(=O)(=O)NCC(=O)NCC(=O)Nc2ccccc2O)cc1

> <score_type>
oracle

> <origin>
adg

> <m_score__min__energy>
-15.51

> <m_primary>
energy

> <minimizedAffinity>
-6.41665

> <minimizedRMSD>
0.99026

> <CNNscore>
0.2723422050

> <CNNaffinity>
5.9451909065

> <CNN_VS>
1.6191264391

> <CNNaffinity_variance>
0.0540989228

$$$$
61:0


 19 20  0  0  0  0  0  0  0  0999 V2000
   57.5961   24.0777   45.9659 C   0  0  0  0  0  0  0  0  0  0  0  0
   58.2321   25.0491   46.6388 C   0  0  0  0  0  0  0  0  0  0  0  0
   56.2665   23.5369   46.3194 C   0  0  0  0  0  0  0  0  0  0  0  0
   56.0755   22.6657   47.4080 C   0  0  0  0  0  0  0  0  0  0  0  0
   57.1482   22.2619   48.1952 O   0  0  0  0  0  0  0  0  0  0  0  0
   54.8324   22.1912   47.6898 N   0  0  0  0  0  0  0  0  0  0  0  0
   53.7504   22.5157   46.9336 C   0  0  0  0  0  0  0  0  0  0  0  0
   52.6190   22.0552   47.2394 O   0  0  0  0  0  0  0  0  0  0  0  0
   53.8990   23.3533   45.8219 C   0  0  0  0  0  0  0  0  0  0  0  0
   52.4015   23.8215   44.7245 Br  0  0  0  0  0  0  0  0  0  0  0  0
   55.1656   23.8529   45.5120 C   0  0  0  0  0  0  0  0  0  0  0  0
   58.4926   26.4150   46.1244 C   0  0  0  0  0  0  0  0  0  0  0  0
   59.8061   26.8990   45.9793 C   0  0  0  0  0  0  0  0  0  0  0  0
   60.0340   28.1968   45.5151 C   0  0  0  0  0  0  0  0  0  0  0  0
   58.9572   29.0304   45.2099 C   0  0  0  0  0  0  0  0  0  0  0  0
   57.6477   28.5719   45.3766 C   0  0  0  0  0  0  0  0  0  0  0  0
   56.5806   29.4122   45.0807 O   0  0  0  0  0  0  0  0  0  0  0  0
   57.4110   27.2698   45.8386 C   0  0  0  0  0  0  0  0  0  0  0  0
   56.1013   26.8279   45.9999 O   0  0  0  0  0  0  0  0  0  0  0  0
  1  2  2  0
  2 12  1  0
 12 13  2  0
 13 14  1  0
 14 15  2  0
 15 16  1  0
 16 17  1  0
 16 18  2  0
 18 19  1  0
  1  3  1  0
  3  4  2  0
  4  5  1  0
  4  6  1  0
  6  7  1  0
  7  8  2  0
  7  9  1  0
  9 10  1  0
  9 11  2  0
 18 12  1  0
 11  3  1  0
M  CHG 1   5  -1
M  CHG 1   6  -1
M  CHG 1  17  -1
M  CHG 1  19  -1
M  END
> <UniqueID>
59

> <SMILES>
O=c1[n-]c([O-])c(/C=C\c2cccc([O-])c2[O-])cc1Br

> <Energy>
39.26168108336263

> <Genealogy>
O=c1[n-]c([O-])c(C=Cc2cccc([O-])c2[O-])cc1Br (protonated)
O=c1[n-]c([O-])c(/C=C\c2cccc([O-])c2[O-])cc1Br (cis-trans isomerization)
O=c1[n-]c([O-])c(/C=C\c2cccc([O-])c2[O-])cc1Br (3D coordinates assigned)
O=c1[n-]c([O-])c(/C=C\c2cccc([O-])c2[O-])cc1Br (optimized conformer: 39.26168108336263 kcal/mol)

> <smiles>
O=c1[nH]c(O)c(C=Cc2cccc(O)c2O)cc1Br

> <score_type>
oracle

> <origin>
adg

> <m_score__min__energy>
-16.91

> <m_primary>
energy

> <minimizedAffinity>
-5.69911

> <minimizedRMSD>
0.96350

> <CNNscore>
0.2062019706

> <CNNaffinity>
4.6424803734

> <CNN_VS>
0.9572886229

> <CNNaffinity_variance>
0.1807011366

$$$$
0:0


 28 30  0  0  0  0  0  0  0  0999 V2000
   60.9926   27.1393   49.8494 C   0  0  0  0  0  0  0  0  0  0  0  0
   60.4042   27.4701   48.7008 C   0  0  0  0  0  0  0  0  0  0  0  0
   59.9822   26.5895   47.8206 O   0  0  0  0  0  0  0  0  0  0  0  0
   59.4327   27.2141   46.7949 C   0  0  0  0  0  0  0  0  0  0  0  0
   58.8599   26.5191   45.7975 C   0  0  0  0  0  0  0  0  0  0  0  0
   59.5477   28.6003   46.9944 C   0  0  0  0  0  0  0  0  0  0  0  0
   59.3278   29.7293   46.1791 C   0  0  0  0  0  0  0  0  0  0  0  0
   59.5398   31.0143   46.7438 C   0  0  0  0  0  0  0  0  0  0  0  0
   60.1035   31.1299   48.0382 C   0  0  0  0  0  0  0  0  0  0  0  0
   60.4286   29.9895   48.7826 C   0  0  0  0  0  0  0  0  0  0  0  0
   60.1403   28.7412   48.2316 C   0  0  0  0  0  0  0  0  0  0  0  0
   57.8006   25.5019   45.9430 C   0  0  0  0  0  0  0  0  0  0  0  0
   56.4577   25.8954   46.0446 C   0  0  0  0  0  0  0  0  0  0  0  0
   56.1166   27.2427   46.0882 O   0  0  0  0  0  0  0  0  0  0  0  0
   55.4779   24.9581   46.1103 N   0  0  0  0  0  0  0  0  0  0  0  0
   55.7712   23.6335   46.0629 C   0  0  0  0  0  0  0  0  0  0  0  0
   54.5732   22.5301   46.1573 S   0  0  0  0  0  0  0  0  0  0  0  0
   57.0596   23.2254   45.9329 N   0  0  0  0  0  0  0  0  0  0  0  0
   58.0757   24.1237   45.8588 C   0  0  0  0  0  0  0  0  0  0  0  0
   59.2555   23.7085   45.7057 O   0  0  0  0  0  0  0  0  0  0  0  0
   58.9313   29.5870   44.8442 O   0  0  0  0  0  0  0  0  0  0  0  0
   57.5987   29.5718   44.4169 C   0  0  0  0  0  0  0  0  0  0  0  0
   57.2227   28.7712   43.2187 C   0  0  0  0  0  0  0  0  0  0  0  0
   56.7296   30.2899   44.9845 O   0  0  0  0  0  0  0  0  0  0  0  0
   59.2117   32.1497   45.9861 O   0  0  0  0  0  0  0  0  0  0  0  0
   58.1640   33.0359   46.2648 C   0  0  0  0  0  0  0  0  0  0  0  0
   57.6317   33.8993   45.1725 C   0  0  0  0  0  0  0  0  0  0  0  0
   57.6001   33.0437   47.3934 O   0  0  0  0  0  0  0  0  0  0  0  0
  1  2  2  0
  2  3  1  0
  3  4  1  0
  4  5  2  0
  5 12  1  0
 12 13  2  0
 13 14  1  0
 13 15  1  0
 15 16  1  0
 16 17  2  0
 16 18  1  0
 18 19  1  0
 19 20  2  0
  4  6  1  0
  6  7  2  0
  7 21  1  0
 21 22  1  0
 22 23  1  0
 22 24  2  0
  7  8  1  0
  8 25  1  0
 25 26  1  0
 26 27  1  0
 26 28  2  0
  8  9  2  0
  9 10  1  0
 10 11  2  0
 11  2  1  0
 19 12  1  0
 11  6  1  0
M  CHG 1  14  -1
M  CHG 1  15  -1
M  CHG 1  18  -1
M  END
> <UniqueID>
1

> <SMILES>
C=c1oc(=Cc2c([O-])[n-]c(=S)[n-]c2=O)c2c(OC(C)=O)c(OC(C)=O)ccc12

> <Energy>
98.26575831801605

> <Genealogy>
C=c1oc(=Cc2c([O-])[n-]c(=S)[n-]c2=O)c2c(OC(C)=O)c(OC(C)=O)ccc12 (protonated)
C=c1oc(=Cc2c([O-])[n-]c(=S)[n-]c2=O)c2c(OC(C)=O)c(OC(C)=O)ccc12 (3D coordinates assigned)
C=c1oc(=Cc2c([O-])[n-]c(=S)[n-]c2=O)c2c(OC(C)=O)c(OC(C)=O)ccc12 (optimized conformer: 98.26575831801605 kcal/mol)

> <smiles>
C=c1oc(=Cc2c(O)[nH]c(=S)[nH]c2=O)c2c(OC(C)=O)c(OC(C)=O)ccc12

> <score_type>
oracle

> <origin>
adg

> <m_score__min__energy>
-15.050000000000001

> <m_primary>
energy

> <minimizedAffinity>
-7.16653

> <minimizedRMSD>
0.77414

> <CNNscore>
0.1860626042

> <CNNaffinity>
5.8720374107

> <CNN_VS>
1.0925666094

> <CNNaffinity_variance>
0.0076171122

$$$$
20:0


 30 34  0  0  0  0  0  0  0  0999 V2000
   53.7818   30.8969   52.8588 C   0  0  0  0  0  0  0  0  0  0  0  0
   54.6333   29.9204   53.2031 C   0  0  0  0  0  0  0  0  0  0  0  0
   54.3695   28.6771   53.7699 C   0  0  0  0  0  0  0  0  0  0  0  0
   55.5350   28.0145   53.9482 N   0  0  0  0  0  0  0  0  0  0  0  0
   56.5296   28.7883   53.5264 N   0  0  0  0  0  0  0  0  0  0  0  0
   57.8837   28.5660   53.4584 C   0  0  0  0  0  0  0  0  0  0  0  0
   58.4783   27.4835   53.8762 N   0  0  0  0  0  0  0  0  0  0  0  0
   58.6580   29.5451   52.9121 N   0  0  0  0  0  0  0  0  0  0  0  0
   58.1119   30.7099   52.4623 C   0  0  0  0  0  0  0  0  0  0  0  0
   56.7725   30.9207   52.5546 N   0  0  0  0  0  0  0  0  0  0  0  0
   56.0063   29.9417   53.0855 C   0  0  0  0  0  0  0  0  0  0  0  0
   55.6305   27.1108   54.3268 H   0  0  0  0  0  0  0  0  0  0  0  0
   52.8912   30.8354   51.6877 C   0  0  0  0  0  0  0  0  0  0  0  0
   53.0004   29.9020   50.7273 N   0  0  0  0  0  0  0  0  0  0  0  0
   51.9536   30.1640   49.9140 C   0  0  0  0  0  0  0  0  0  0  0  0
   51.7216   29.4973   48.8729 O   0  0  0  0  0  0  0  0  0  0  0  0
   51.1698   31.1876   50.3110 N   0  0  0  0  0  0  0  0  0  0  0  0
   51.7681   31.5964   51.4418 C   0  0  0  0  0  0  0  0  0  0  0  0
   51.2669   32.6049   52.2541 O   0  0  0  0  0  0  0  0  0  0  0  0
   58.8241   27.0838   55.2331 C   0  0  0  0  0  0  0  0  0  0  0  0
   57.9676   25.9604   55.7919 C   0  0  0  0  0  0  0  0  0  0  0  0
   59.3668   25.6656   55.2812 C   0  0  0  0  0  0  0  0  0  0  0  0
   59.1467   31.9444   51.6828 S   0  0  0  0  0  0  0  0  0  0  0  0
   60.4588   30.7615   51.2048 C   0  0  0  0  0  0  0  0  0  0  0  0
   60.3959   30.4439   49.7340 C   0  0  0  0  0  0  0  0  0  0  0  0
   61.2404   31.1098   48.8306 C   0  0  0  0  0  0  0  0  0  0  0  0
   61.1320   30.8687   47.4576 C   0  0  0  0  0  0  0  0  0  0  0  0
   60.1810   29.9661   46.9763 C   0  0  0  0  0  0  0  0  0  0  0  0
   59.3385   29.2960   47.8689 C   0  0  0  0  0  0  0  0  0  0  0  0
   59.4470   29.5300   49.2428 C   0  0  0  0  0  0  0  0  0  0  0  0
  1 13  1  0
 13 14  1  0
 14 15  1  0
 15 16  2  0
 15 17  1  0
 17 18  1  0
 18 19  1  0
  1  2  2  0
  2  3  1  0
  3  4  2  0
  4  5  1  0
  5  6  1  0
  6  7  2  0
  7 20  1  0
 20 21  1  0
 21 22  1  0
  6  8  1  0
  8  9  2  0
  9 23  1  0
 23 24  1  0
 24 25  1  0
 25 26  2  0
 26 27  1  0
 27 28  2  0
 28 29  1  0
 29 30  2  0
  9 10  1  0
 10 11  2  0
 18 13  2  0
 11  2  1  0
 11  5  1  0
 22 20  1  0
 30 25  1  0
  4 12  1  0
M  CHG 1   4   1
M  CHG 1  14  -1
M  CHG 1  17  -1
M  CHG 1  19  -1
M  END
> <UniqueID>
18

> <SMILES>
O=c1[n-]c([O-])c(/C=c2\c[nH+]n3c(=NC4CC4)nc(SCc4ccccc4)nc23)[n-]1

> <Energy>
389.5271891722551

> <Genealogy>
O=c1[n-]c([O-])c(C=c2c[nH+]n3c(=NC4CC4)nc(SCc4ccccc4)nc23)[n-]1 (protonated)
O=c1[n-]c([O-])c(/C=c2\c[nH+]n3c(=NC4CC4)nc(SCc4ccccc4)nc23)[n-]1 (cis-trans isomerization)
O=c1[n-]c([O-])c(/C=c2\c[nH+]n3c(=NC4CC4)nc(SCc4ccccc4)nc23)[n-]1 (3D coordinates assigned)
O=c1[n-]c([O-])c(/C=c2\c[nH+]n3c(=NC4CC4)nc(SCc4ccccc4)nc23)[n-]1 (nonaromatic ring conformer: 389.5271891722551 kcal/mol)

> <smiles>
O=c1[nH]c(O)c(C=c2cnn3c(=NC4CC4)nc(SCc4ccccc4)nc23)[nH]1

> <score_type>
oracle

> <origin>
adg

> <m_score__min__energy>
-16.050000000000001

> <m_primary>
energy

> <minimizedAffinity>
-5.28666

> <minimizedRMSD>
2.20971

> <CNNscore>
0.1007197201

> <CNNaffinity>
5.2045865059

> <CNN_VS>
0.5242044926

> <CNNaffinity_variance>
0.0911748335

$$$$
42:0


 26 30  0  0  0  0  0  0  0  0999 V2000
   53.0738   30.4441   53.3704 C   0  0  0  0  0  0  0  0  0  0  0  0
   54.0175   29.5361   53.6610 C   0  0  0  0  0  0  0  0  0  0  0  0
   53.8707   28.2392   54.1437 C   0  0  0  0  0  0  0  0  0  0  0  0
   55.0913   27.6662   54.2507 N   0  0  0  0  0  0  0  0  0  0  0  0
   56.0067   28.5415   53.8487 N   0  0  0  0  0  0  0  0  0  0  0  0
   57.3749   28.4453   53.7618 C   0  0  0  0  0  0  0  0  0  0  0  0
   58.0659   27.3909   54.0965 N   0  0  0  0  0  0  0  0  0  0  0  0
   58.0552   29.5296   53.2993 N   0  0  0  0  0  0  0  0  0  0  0  0
   57.4056   30.6717   52.9327 C   0  0  0  0  0  0  0  0  0  0  0  0
   56.0525   30.7493   53.0241 N   0  0  0  0  0  0  0  0  0  0  0  0
   55.3787   29.6698   53.4849 C   0  0  0  0  0  0  0  0  0  0  0  0
   55.2714   26.7533   54.5725 H   0  0  0  0  0  0  0  0  0  0  0  0
   52.4035   30.5459   52.0628 C   0  0  0  0  0  0  0  0  0  0  0  0
   52.6283   29.6884   51.0510 N   0  0  0  0  0  0  0  0  0  0  0  0
   51.8841   30.1899   50.0426 C   0  0  0  0  0  0  0  0  0  0  0  0
   51.8240   29.6459   48.9095 O   0  0  0  0  0  0  0  0  0  0  0  0
   51.2195   31.3277   50.3402 N   0  0  0  0  0  0  0  0  0  0  0  0
   51.5664   31.5462   51.6181 C   0  0  0  0  0  0  0  0  0  0  0  0
   51.1696   32.6645   52.3405 O   0  0  0  0  0  0  0  0  0  0  0  0
   58.1495   31.7872   52.4512 N   0  0  0  0  0  0  0  0  0  0  0  0
   58.8102   32.1962   51.1999 C   0  0  0  0  0  0  0  0  0  0  0  0
   59.3006   33.5149   51.7053 C   0  0  0  0  0  0  0  0  0  0  0  0
   58.6251   33.0827   52.9651 C   0  0  0  0  0  0  0  0  0  0  0  0
   58.1149   26.6796   55.3672 C   0  0  0  0  0  0  0  0  0  0  0  0
   57.6503   25.2412   55.2255 C   0  0  0  0  0  0  0  0  0  0  0  0
   59.1264   25.5482   55.4132 C   0  0  0  0  0  0  0  0  0  0  0  0
  1 13  1  0
 13 14  1  0
 14 15  1  0
 15 16  2  0
 15 17  1  0
 17 18  1  0
 18 19  1  0
  1  2  2  0
  2  3  1  0
  3  4  2  0
  4  5  1  0
  5  6  1  0
  6  7  2  0
  7 24  1  0
 24 25  1  0
 25 26  1  0
  6  8  1  0
  8  9  2  0
  9 20  1  0
 20 21  1  0
 21 22  1  0
 22 23  1  0
  9 10  1  0
 10 11  2  0
 18 13  2  0
 11  2  1  0
 11  5  1  0
 26 24  1  0
 23 20  1  0
  4 12  1  0
M  CHG 1   4   1
M  CHG 1  14  -1
M  CHG 1  17  -1
M  CHG 1  19  -1
M  END
> <UniqueID>
38

> <SMILES>
O=c1[n-]c([O-])c(/C=c2\c[nH+]n3/c(=N\C4CC4)nc(N4CCC4)nc23)[n-]1

> <Energy>
432.02123353476304

> <Genealogy>
O=c1[n-]c([O-])c(C=c2c[nH+]n3c(=NC4CC4)nc(N4CCC4)nc23)[n-]1 (protonated)
O=c1[n-]c([O-])c(/C=c2\c[nH+]n3/c(=N\C4CC4)nc(N4CCC4)nc23)[n-]1 (cis-trans isomerization)
O=c1[n-]c([O-])c(/C=c2\c[nH+]n3/c(=N\C4CC4)nc(N4CCC4)nc23)[n-]1 (3D coordinates assigned)
O=c1[n-]c([O-])c(/C=c2\c[nH+]n3/c(=N\C4CC4)nc(N4CCC4)nc23)[n-]1 (nonaromatic ring conformer: 432.02123353476304 kcal/mol)

> <smiles>
O=c1[nH]c(O)c(C=c2cnn3c(=NC4CC4)nc(N4CCC4)nc23)[nH]1

> <score_type>
oracle

> <origin>
adg

> <m_score__min__energy>
-14.17

> <m_primary>
energy

> <minimizedAffinity>
-4.32475

> <minimizedRMSD>
0.95154

> <CNNscore>
0.0803015381

> <CNNaffinity>
3.9941959381

> <CNN_VS>
0.3207400739

> <CNNaffinity_variance>
0.4528033733

$$$$
49:0


 36 39  0  0  0  0  0  0  0  0999 V2000
   57.7168   32.1346   45.0590 C   0  0  0  0  0  0  0  0  0  0  0  0
   57.6456   31.9575   43.6688 C   0  0  0  0  0  0  0  0  0  0  0  0
   57.4699   30.6809   43.1289 C   0  0  0  0  0  0  0  0  0  0  0  0
   57.4016   29.5608   43.9622 C   0  0  0  0  0  0  0  0  0  0  0  0
   57.4641   29.7359   45.3557 C   0  0  0  0  0  0  0  0  0  0  0  0
   57.6325   31.0133   45.8987 C   0  0  0  0  0  0  0  0  0  0  0  0
   61.6556   33.5830   49.8350 C   0  0  0  0  0  0  0  0  0  0  0  0
   61.4375   33.0233   50.9449 O   0  0  0  0  0  0  0  0  0  0  0  0
   60.5684   33.8360   48.9220 N   0  0  0  0  0  0  0  0  0  0  0  0
   59.2016   33.3835   49.2236 C   0  0  0  0  0  0  0  0  0  0  0  0
   58.5473   32.7972   47.9646 C   0  0  0  0  0  0  0  0  0  0  0  0
   58.7272   33.6844   46.8049 N   0  0  0  0  0  0  0  0  0  0  0  0
   57.9273   33.4840   45.6240 C   0  0  0  0  0  0  0  0  0  0  0  0
   57.4049   34.4798   45.0503 O   0  0  0  0  0  0  0  0  0  0  0  0
   59.5456   34.8975   46.9172 C   0  0  0  0  0  0  0  0  0  0  0  0
   60.8349   34.5942   47.6923 C   0  0  0  0  0  0  0  0  0  0  0  0
   62.9584   33.9678   49.4905 O   0  0  0  0  0  0  0  0  0  0  0  0
   63.4027   32.1085   48.0011 C   0  0  0  0  0  0  0  0  0  0  0  0
   63.9626   33.0517   49.0619 C   0  0  0  0  0  0  0  0  0  0  0  0
   57.1897   28.2725   43.3647 N   0  0  0  0  0  0  0  0  0  0  0  0
   57.8925   27.0507   43.6377 C   0  0  0  0  0  0  0  0  0  0  0  0
   57.9812   26.1957   42.7159 O   0  0  0  0  0  0  0  0  0  0  0  0
   58.5775   26.7936   44.9310 C   0  0  0  0  0  0  0  0  0  0  0  0
   59.6892   27.5766   45.3098 C   0  0  0  0  0  0  0  0  0  0  0  0
   60.1458   28.5785   44.5124 F   0  0  0  0  0  0  0  0  0  0  0  0
   60.3720   27.3062   46.4954 C   0  0  0  0  0  0  0  0  0  0  0  0
   59.9798   26.2405   47.3032 C   0  0  0  0  0  0  0  0  0  0  0  0
   58.8987   25.4418   46.9316 C   0  0  0  0  0  0  0  0  0  0  0  0
   58.1865   25.7112   45.7553 C   0  0  0  0  0  0  0  0  0  0  0  0
   57.0622   24.8801   45.4217 N   0  0  0  0  0  0  0  0  0  0  0  0
   55.7583   25.1230   45.6341 C   0  0  0  0  0  0  0  0  0  0  0  0
   55.2535   26.2645   46.2362 O   0  0  0  0  0  0  0  0  0  0  0  0
   55.0145   24.0567   45.1878 C   0  0  0  0  0  0  0  0  0  0  0  0
   55.8481   23.1222   44.6873 N   0  0  0  0  0  0  0  0  0  0  0  0
   57.0780   23.6590   44.8568 C   0  0  0  0  0  0  0  0  0  0  0  0
   58.1380   23.0701   44.5054 O   0  0  0  0  0  0  0  0  0  0  0  0
 18 19  1  0
 19 17  1  0
 17  7  1  0
  7  8  2  0
  7  9  1  0
  9 10  1  0
 10 11  1  0
 11 12  1  0
 12 13  1  0
 13 14  2  0
 13  1  1  0
  1  2  2  0
  2  3  1  0
  3  4  2  0
  4 20  1  0
 20 21  1  0
 21 22  2  0
 21 23  1  0
 23 24  2  0
 24 25  1  0
 24 26  1  0
 26 27  2  0
 27 28  1  0
 28 29  2  0
 29 30  1  0
 30 31  1  0
 31 32  1  0
 31 33  2  0
 33 34  1  0
 34 35  1  0
 35 36  2  0
  4  5  1  0
  5  6  2  0
 12 15  1  0
 15 16  1  0
 16  9  1  0
  6  1  1  0
 29 23  1  0
 35 30  1  0
M  CHG 1  20  -1
M  CHG 1  32  -1
M  CHG 1  34  -1
M  END
> <UniqueID>
44

> <SMILES>
CCOC(=O)N1CCN(C(=O)c2ccc([N-]C(=O)c3c(F)cccc3-n3c([O-])c[n-]c3=O)cc2)CC1

> <Energy>
108.97708181719938

> <Genealogy>
CCOC(=O)N1CCN(C(=O)c2ccc([N-]C(=O)c3c(F)cccc3-n3c([O-])c[n-]c3=O)cc2)CC1 (protonated)
CCOC(=O)N1CCN(C(=O)c2ccc([N-]C(=O)c3c(F)cccc3-n3c([O-])c[n-]c3=O)cc2)CC1 (3D coordinates assigned)
CCOC(=O)N1CCN(C(=O)c2ccc([N-]C(=O)c3c(F)cccc3-n3c([O-])c[n-]c3=O)cc2)CC1 (nonaromatic ring conformer: 108.97708181719938 kcal/mol)

> <smiles>
CCOC(=O)N1CCN(C(=O)c2ccc(NC(=O)c3c(F)cccc3-n3c(O)c[nH]c3=O)cc2)CC1

> <score_type>
oracle

> <origin>
adg

> <m_score__min__energy>
-14.77

> <m_primary>
energy

> <minimizedAffinity>
-6.59075

> <minimizedRMSD>
0.42931

> <CNNscore>
0.1234496832

> <CNNaffinity>
6.3022704124

> <CNN_VS>
0.7780132890

> <CNNaffinity_variance>
0.2318153381

$$$$
52:0


 31 33  0  0  0  0  0  0  0  0999 V2000
   60.2803   26.9365   47.4117 S   0  0  0  0  0  0  0  0  0  0  0  0
   60.8031   27.5514   48.6784 O   0  0  0  0  0  0  0  0  0  0  0  0
   61.4150   26.2776   46.6778 O   0  0  0  0  0  0  0  0  0  0  0  0
   58.2295   30.0874   44.8127 C   0  0  0  0  0  0  0  0  0  0  0  0
   59.3113   29.3493   44.3045 C   0  0  0  0  0  0  0  0  0  0  0  0
   59.9630   28.4072   45.1057 C   0  0  0  0  0  0  0  0  0  0  0  0
   59.5473   28.1995   46.4268 C   0  0  0  0  0  0  0  0  0  0  0  0
   58.5017   28.9647   46.9518 C   0  0  0  0  0  0  0  0  0  0  0  0
   57.8459   29.9027   46.1518 C   0  0  0  0  0  0  0  0  0  0  0  0
   57.4875   31.0263   43.9380 C   0  0  0  0  0  0  0  0  0  0  0  0
   56.8341   30.5788   42.9587 O   0  0  0  0  0  0  0  0  0  0  0  0
   58.2440   33.4724   47.4654 C   0  0  0  0  0  0  0  0  0  0  0  0
   57.6985   32.8494   46.3859 N   0  0  0  0  0  0  0  0  0  0  0  0
   58.1285   33.0849   45.1159 C   0  0  0  0  0  0  0  0  0  0  0  0
   57.5485   32.4493   44.1366 N   0  0  0  0  0  0  0  0  0  0  0  0
   59.1994   33.9847   44.9125 C   0  0  0  0  0  0  0  0  0  0  0  0
   59.7666   34.6348   46.0104 C   0  0  0  0  0  0  0  0  0  0  0  0
   59.2864   34.3833   47.2942 C   0  0  0  0  0  0  0  0  0  0  0  0
   59.0845   25.7392   47.8003 N   0  0  0  0  0  0  0  0  0  0  0  0
   59.0269   25.4189   48.7294 H   0  0  0  0  0  0  0  0  0  0  0  0
   58.1742   25.1931   46.8307 C   0  0  0  0  0  0  0  0  0  0  0  0
   58.5869   24.2355   45.8880 C   0  0  0  0  0  0  0  0  0  0  0  0
   57.6850   23.7349   44.9455 C   0  0  0  0  0  0  0  0  0  0  0  0
   56.3549   24.1806   44.9256 C   0  0  0  0  0  0  0  0  0  0  0  0
   55.9333   25.1234   45.8826 C   0  0  0  0  0  0  0  0  0  0  0  0
   54.6156   25.5689   45.9044 O   0  0  0  0  0  0  0  0  0  0  0  0
   56.8382   25.6216   46.8253 C   0  0  0  0  0  0  0  0  0  0  0  0
   55.3846   23.6032   43.9283 C   0  0  0  0  0  0  0  0  0  0  0  0
   54.1891   23.0457   44.6329 C   0  0  0  0  0  0  0  0  0  0  0  0
   54.3291   22.1424   45.4984 O   0  0  0  0  0  0  0  0  0  0  0  0
   52.9164   23.4927   44.3031 O   0  0  0  0  0  0  0  0  0  0  0  0
 12 13  1  0
 13 14  1  0
 14 15  2  0
 15 10  1  0
 10 11  2  0
 10  4  1  0
  4  5  2  0
  5  6  1  0
  6  7  2  0
  7  1  1  0
  1  2  2  0
  1  3  2  0
  1 19  1  0
 19 21  1  0
 21 22  2  0
 22 23  1  0
 23 24  2  0
 24 28  1  0
 28 29  1  0
 29 30  2  0
 29 31  1  0
 24 25  1  0
 25 26  1  0
 25 27  2  0
  7  8  1  0
  8  9  2  0
 14 16  1  0
 16 17  2  0
 17 18  1  0
 18 12  2  0
  9  4  1  0
 27 21  1  0
 19 20  1  0
M  CHG 1  13  -1
M  CHG 1  26  -1
M  CHG 1  31  -1
M  END
> <UniqueID>
47

> <SMILES>
O=C([O-])Cc1ccc(NS(=O)(=O)c2ccc(C(=O)/N=c3\cccc[n-]3)cc2)cc1[O-]

> <Energy>
58.151329952977214

> <Genealogy>
O=C([O-])Cc1ccc(NS(=O)(=O)c2ccc(C(=O)N=c3cccc[n-]3)cc2)cc1[O-] (protonated)
O=C([O-])Cc1ccc(NS(=O)(=O)c2ccc(C(=O)/N=c3\cccc[n-]3)cc2)cc1[O-] (cis-trans isomerization)
O=C([O-])Cc1ccc(NS(=O)(=O)c2ccc(C(=O)/N=c3\cccc[n-]3)cc2)cc1[O-] (3D coordinates assigned)
O=C([O-])Cc1ccc(NS(=O)(=O)c2ccc(C(=O)/N=c3\cccc[n-]3)cc2)cc1[O-] (optimized conformer: 58.151329952977214 kcal/mol)

> <smiles>
O=C(O)Cc1ccc(NS(=O)(=O)c2ccc(C(=O)N=c3cccc[nH]3)cc2)cc1O

> <score_type>
oracle

> <origin>
adg

> <m_score__min__energy>
-15.84

> <m_primary>
energy

> <minimizedAffinity>
-6.46378

> <minimizedRMSD>
0.66116

> <CNNscore>
0.3194090128

> <CNNaffinity>
6.4271130562

> <CNN_VS>
2.0528779030

> <CNNaffinity_variance>
0.0228002723

$$$$
74:0


 31 33  0  0  0  0  0  0  0  0999 V2000
   59.5445   31.6635   47.9205 C   0  0  0  0  0  0  0  0  0  0  0  0
   60.7755   30.9975   48.0161 C   0  0  0  0  0  0  0  0  0  0  0  0
   61.1754   30.4258   49.2278 C   0  0  0  0  0  0  0  0  0  0  0  0
   60.3548   30.5206   50.3611 C   0  0  0  0  0  0  0  0  0  0  0  0
   59.1285   31.1951   50.2688 C   0  0  0  0  0  0  0  0  0  0  0  0
   58.7290   31.7683   49.0580 C   0  0  0  0  0  0  0  0  0  0  0  0
   58.4950   31.6016   45.6080 C   0  0  0  0  0  0  0  0  0  0  0  0
   58.0890   32.2992   44.4588 C   0  0  0  0  0  0  0  0  0  0  0  0
   58.3460   33.6651   44.3251 C   0  0  0  0  0  0  0  0  0  0  0  0
   59.0195   34.3507   45.3344 C   0  0  0  0  0  0  0  0  0  0  0  0
   59.4230   33.6757   46.4875 C   0  0  0  0  0  0  0  0  0  0  0  0
   59.1488   32.3082   46.6505 C   0  0  0  0  0  0  0  0  0  0  0  0
   59.3515   29.0274   44.6611 N   0  0  0  0  0  0  0  0  0  0  0  0
   58.2191   29.8526   45.6754 S   0  0  0  0  0  0  0  0  0  0  0  0
   56.8340   29.5367   45.1848 O   0  0  0  0  0  0  0  0  0  0  0  0
   58.3581   29.3712   47.0908 O   0  0  0  0  0  0  0  0  0  0  0  0
   59.1818   28.0227   44.7091 H   0  0  0  0  0  0  0  0  0  0  0  0
   60.8127   29.9350   51.6695 C   0  0  0  0  0  0  0  0  0  0  0  0
   59.7641   29.0737   52.2410 N   0  0  0  0  0  0  0  0  0  0  0  0
   60.1372   28.1301   52.3452 H   0  0  0  0  0  0  0  0  0  0  0  0
   59.2991   29.5445   53.5555 C   0  0  0  0  0  0  0  0  0  0  0  0
   57.9231   30.1333   53.4724 C   0  0  0  0  0  0  0  0  0  0  0  0
   57.6680   31.1937   54.1034 O   0  0  0  0  0  0  0  0  0  0  0  0
   56.9533   29.5472   52.5940 N   0  0  0  0  0  0  0  0  0  0  0  0
   55.5274   29.5204   52.7673 C   0  0  0  0  0  0  0  0  0  0  0  0
   54.8783   28.5317   53.5327 C   0  0  0  0  0  0  0  0  0  0  0  0
   53.4848   28.5363   53.6523 C   0  0  0  0  0  0  0  0  0  0  0  0
   52.7280   29.5190   53.0101 C   0  0  0  0  0  0  0  0  0  0  0  0
   53.3632   30.4905   52.2309 C   0  0  0  0  0  0  0  0  0  0  0  0
   52.6103   31.4577   51.5769 O   0  0  0  0  0  0  0  0  0  0  0  0
   54.7561   30.4849   52.1044 C   0  0  0  0  0  0  0  0  0  0  0  0
 13 14  1  0
 14 15  2  0
 14 16  2  0
 14  7  1  0
  7  8  2  0
  8  9  1  0
  9 10  2  0
 10 11  1  0
 11 12  2  0
 12  1  1  0
  1  2  2  0
  2  3  1  0
  3  4  2  0
  4 18  1  0
 18 19  1  0
 19 21  1  0
 21 22  1  0
 22 23  2  0
 22 24  1  0
 24 25  1  0
 25 26  2  0
 26 27  1  0
 27 28  2  0
 28 29  1  0
 29 30  1  0
 29 31  2  0
  4  5  1  0
  5  6  2  0
 12  7  1  0
  6  1  1  0
 31 25  1  0
 13 17  1  0
 19 20  1  0
M  CHG 1  13  -1
M  CHG 1  24  -1
M  CHG 1  30  -1
M  END
> <UniqueID>
69

> <SMILES>
[NH-]S(=O)(=O)c1ccccc1-c1ccc(CNCC(=O)[N-]c2cccc([O-])c2)cc1

> <Energy>
54.689893917058555

> <Genealogy>
[NH-]S(=O)(=O)c1ccccc1-c1ccc(CNCC(=O)[N-]c2cccc([O-])c2)cc1 (protonated)
[NH-]S(=O)(=O)c1ccccc1-c1ccc(CNCC(=O)[N-]c2cccc([O-])c2)cc1 (3D coordinates assigned)
[NH-]S(=O)(=O)c1ccccc1-c1ccc(CNCC(=O)[N-]c2cccc([O-])c2)cc1 (optimized conformer: 54.689893917058555 kcal/mol)

> <smiles>
NS(=O)(=O)c1ccccc1-c1ccc(CNCC(=O)Nc2cccc(O)c2)cc1

> <score_type>
oracle

> <origin>
adg

> <m_score__min__energy>
-16.579999999999998

> <m_primary>
energy

> <minimizedAffinity>
-6.95317

> <minimizedRMSD>
1.60077

> <CNNscore>
0.4006451964

> <CNNaffinity>
6.1389765739

> <CNN_VS>
2.4595515728

> <CNNaffinity_variance>
0.0228020400

$$$$
30:0


 27 29  0  0  0  0  0  0  0  0999 V2000
   60.1125   27.0535   47.4846 C   0  0  0  0  0  0  0  0  0  0  0  0
   59.9110   26.7911   48.6991 O   0  0  0  0  0  0  0  0  0  0  0  0
   60.5810   28.3628   47.1345 N   0  0  0  0  0  0  0  0  0  0  0  0
   58.0957   30.2649   45.1007 C   0  0  0  0  0  0  0  0  0  0  0  0
   58.3172   31.5730   45.5486 C   0  0  0  0  0  0  0  0  0  0  0  0
   59.2895   31.8285   46.5177 C   0  0  0  0  0  0  0  0  0  0  0  0
   60.0413   30.7777   47.0512 C   0  0  0  0  0  0  0  0  0  0  0  0
   59.7947   29.4562   46.6453 C   0  0  0  0  0  0  0  0  0  0  0  0
   58.8376   29.2087   45.6510 C   0  0  0  0  0  0  0  0  0  0  0  0
   55.3559   29.7999   44.4875 N   0  0  0  0  0  0  0  0  0  0  0  0
   56.9347   29.9736   43.8101 S   0  0  0  0  0  0  0  0  0  0  0  0
   57.3085   28.7171   43.0743 O   0  0  0  0  0  0  0  0  0  0  0  0
   56.9282   31.1219   42.8415 O   0  0  0  0  0  0  0  0  0  0  0  0
   54.6821   29.6311   43.7406 H   0  0  0  0  0  0  0  0  0  0  0  0
   60.0091   25.9402   46.4757 C   0  0  0  0  0  0  0  0  0  0  0  0
   58.7127   26.0431   45.6675 C   0  0  0  0  0  0  0  0  0  0  0  0
   57.8922   24.8436   45.8387 N   0  0  0  0  0  0  0  0  0  0  0  0
   56.5788   24.8024   46.1531 C   0  0  0  0  0  0  0  0  0  0  0  0
   55.7967   25.9265   46.3950 O   0  0  0  0  0  0  0  0  0  0  0  0
   56.1381   23.4962   46.2109 C   0  0  0  0  0  0  0  0  0  0  0  0
   57.2335   22.7037   45.9503 C   0  0  0  0  0  0  0  0  0  0  0  0
   58.2870   23.5598   45.6984 C   0  0  0  0  0  0  0  0  0  0  0  0
   59.5762   23.1690   45.3548 O   0  0  0  0  0  0  0  0  0  0  0  0
   57.1876   21.2093   45.8876 C   0  0  0  0  0  0  0  0  0  0  0  0
   55.9647   20.6842   46.6641 C   0  0  0  0  0  0  0  0  0  0  0  0
   54.6806   21.4673   46.3107 C   0  0  0  0  0  0  0  0  0  0  0  0
   54.8044   22.9690   46.6440 C   0  0  0  0  0  0  0  0  0  0  0  0
 10 11  1  0
 11 12  2  0
 11 13  2  0
 11  4  1  0
  4  5  2  0
  5  6  1  0
  6  7  2  0
  7  8  1  0
  8  3  1  0
  3  1  1  0
  1  2  2  0
  1 15  1  0
 15 16  1  0
 16 17  1  0
 17 18  1  0
 18 19  1  0
 18 20  2  0
 20 21  1  0
 21 22  2  0
 22 23  1  0
 21 24  1  0
 24 25  1  0
 25 26  1  0
 26 27  1  0
  8  9  2  0
  9  4  1  0
 22 17  1  0
 27 20  1  0
 10 14  1  0
M  CHG 1   3  -1
M  CHG 1  10  -1
M  CHG 1  19  -1
M  CHG 1  23  -1
M  END
> <UniqueID>
26

> <SMILES>
[NH-]S(=O)(=O)c1cccc([N-]C(=O)CCn2c([O-])c3c(c2[O-])CCCC3)c1

> <Energy>
69.90907894644445

> <Genealogy>
[NH-]S(=O)(=O)c1cccc([N-]C(=O)CCn2c([O-])c3c(c2[O-])CCCC3)c1 (protonated)
[NH-]S(=O)(=O)c1cccc([N-]C(=O)CCn2c([O-])c3c(c2[O-])CCCC3)c1 (3D coordinates assigned)
[NH-]S(=O)(=O)c1cccc([N-]C(=O)CCn2c([O-])c3c(c2[O-])CCCC3)c1 (nonaromatic ring conformer: 69.90907894644445 kcal/mol)

> <smiles>
NS(=O)(=O)c1cccc(NC(=O)CCn2c(O)c3c(c2O)CCCC3)c1

> <score_type>
oracle

> <origin>
adg

> <m_score__min__energy>
-15.84

> <m_primary>
energy

> <minimizedAffinity>
-6.66970

> <minimizedRMSD>
1.23528

> <CNNscore>
0.3429581225

> <CNNaffinity>
5.9260993004

> <CNN_VS>
2.0324039459

> <CNNaffinity_variance>
0.3334591091

$$$$
39:0


 31 33  0  0  0  0  0  0  0  0999 V2000
   60.9147   33.2251   48.8072 C   0  0  0  0  0  0  0  0  0  0  0  0
   62.2404   33.5344   49.1354 C   0  0  0  0  0  0  0  0  0  0  0  0
   63.0995   32.5434   49.6170 C   0  0  0  0  0  0  0  0  0  0  0  0
   62.6464   31.2299   49.7550 C   0  0  0  0  0  0  0  0  0  0  0  0
   61.3336   30.8930   49.3950 C   0  0  0  0  0  0  0  0  0  0  0  0
   60.4690   31.8960   48.9248 C   0  0  0  0  0  0  0  0  0  0  0  0
   60.0712   34.2684   48.2984 N   0  0  0  0  0  0  0  0  0  0  0  0
   59.6659   34.4479   46.9342 C   0  0  0  0  0  0  0  0  0  0  0  0
   59.9151   35.5302   46.3380 O   0  0  0  0  0  0  0  0  0  0  0  0
   57.7365   31.2372   44.8197 C   0  0  0  0  0  0  0  0  0  0  0  0
   57.7683   32.5247   44.2700 C   0  0  0  0  0  0  0  0  0  0  0  0
   58.3973   33.5685   44.9560 C   0  0  0  0  0  0  0  0  0  0  0  0
   59.0000   33.3411   46.2062 C   0  0  0  0  0  0  0  0  0  0  0  0
   58.9574   32.0448   46.7558 C   0  0  0  0  0  0  0  0  0  0  0  0
   58.3304   31.0040   46.0678 C   0  0  0  0  0  0  0  0  0  0  0  0
   57.9687   28.4887   43.9741 C   0  0  0  0  0  0  0  0  0  0  0  0
   56.9235   29.9265   43.9714 S   0  0  0  0  0  0  0  0  0  0  0  0
   56.6370   30.3405   42.5559 O   0  0  0  0  0  0  0  0  0  0  0  0
   55.6238   29.6023   44.6537 O   0  0  0  0  0  0  0  0  0  0  0  0
   60.8583   29.4696   49.5273 C   0  0  0  0  0  0  0  0  0  0  0  0
   59.7615   29.2167   48.6482 O   0  0  0  0  0  0  0  0  0  0  0  0
   59.6122   28.0729   47.8471 C   0  0  0  0  0  0  0  0  0  0  0  0
   60.6940   27.4362   47.2148 C   0  0  0  0  0  0  0  0  0  0  0  0
   60.4853   26.3305   46.4558 N   0  0  0  0  0  0  0  0  0  0  0  0
   59.2455   25.8033   46.2785 C   0  0  0  0  0  0  0  0  0  0  0  0
   58.1277   26.4011   46.8827 C   0  0  0  0  0  0  0  0  0  0  0  0
   58.3288   27.5469   47.6699 C   0  0  0  0  0  0  0  0  0  0  0  0
   56.7700   25.8363   46.7004 C   0  0  0  0  0  0  0  0  0  0  0  0
   55.7789   26.5526   45.9626 N   0  0  0  0  0  0  0  0  0  0  0  0
   56.4759   24.7151   47.1951 O   0  0  0  0  0  0  0  0  0  0  0  0
   55.9951   27.4295   45.5707 H   0  0  0  0  0  0  0  0  0  0  0  0
 16 17  1  0
 17 18  2  0
 17 19  2  0
 17 10  1  0
 10 11  2  0
 11 12  1  0
 12 13  2  0
 13  8  1  0
  8  9  2  0
  8  7  1  0
  7  1  1  0
  1  2  2  0
  2  3  1  0
  3  4  2  0
  4  5  1  0
  5 20  1  0
 20 21  1  0
 21 22  1  0
 22 23  2  0
 23 24  1  0
 24 25  2  0
 25 26  1  0
 26 28  1  0
 28 29  1  0
 28 30  2  0
 26 27  2  0
  5  6  2  0
 13 14  1  0
 14 15  2  0
 15 10  1  0
  6  1  1  0
 27 22  1  0
 29 31  1  0
M  CHG 1   7  -1
M  CHG 1  29  -1
M  END
> <UniqueID>
34

> <SMILES>
CS(=O)(=O)c1ccc(C(=O)[N-]c2cccc(COc3cncc(C([NH-])=O)c3)c2)cc1

> <Energy>
52.105181530523566

> <Genealogy>
CS(=O)(=O)c1ccc(C(=O)[N-]c2cccc(COc3cncc(C([NH-])=O)c3)c2)cc1 (protonated)
CS(=O)(=O)c1ccc(C(=O)[N-]c2cccc(COc3cncc(C([NH-])=O)c3)c2)cc1 (3D coordinates assigned)
CS(=O)(=O)c1ccc(C(=O)[N-]c2cccc(COc3cncc(C([NH-])=O)c3)c2)cc1 (optimized conformer: 52.105181530523566 kcal/mol)

> <smiles>
CS(=O)(=O)c1ccc(C(=O)Nc2cccc(COc3cncc(C(N)=O)c3)c2)cc1

> <score_type>
oracle

> <origin>
adg

> <m_score__min__energy>
-14.119999999999999

> <m_primary>
energy

> <minimizedAffinity>
-7.73556

> <minimizedRMSD>
0.75526

> <CNNscore>
0.8480878472

> <CNNaffinity>
7.1493248940

> <CNN_VS>
6.0632557869

> <CNNaffinity_variance>
0.1854328662

$$$$
66:0


 28 30  0  0  0  0  0  0  0  0999 V2000
   57.3436   25.6454   46.8438 C   0  0  0  0  0  0  0  0  0  0  0  0
   58.9960   25.3851   47.0537 S   0  0  0  0  0  0  0  0  0  0  0  0
   59.4126   26.8014   46.2512 C   0  0  0  0  0  0  0  0  0  0  0  0
   60.5974   27.1948   46.0869 O   0  0  0  0  0  0  0  0  0  0  0  0
   58.3253   27.4736   45.7969 N   0  0  0  0  0  0  0  0  0  0  0  0
   57.1686   26.8320   46.1363 C   0  0  0  0  0  0  0  0  0  0  0  0
   55.9104   27.3243   45.8031 O   0  0  0  0  0  0  0  0  0  0  0  0
   56.2605   24.7090   47.2774 C   0  0  0  0  0  0  0  0  0  0  0  0
   57.1564   23.2104   48.9012 O   0  0  0  0  0  0  0  0  0  0  0  0
   56.8572   23.3916   47.6916 C   0  0  0  0  0  0  0  0  0  0  0  0
   57.1954   22.3777   46.7365 N   0  0  0  0  0  0  0  0  0  0  0  0
   56.8695   22.3843   45.3410 C   0  0  0  0  0  0  0  0  0  0  0  0
   55.9861   23.3343   44.7975 C   0  0  0  0  0  0  0  0  0  0  0  0
   55.6620   23.2950   43.4378 C   0  0  0  0  0  0  0  0  0  0  0  0
   56.1995   22.2994   42.6170 C   0  0  0  0  0  0  0  0  0  0  0  0
   57.0537   21.3355   43.1594 C   0  0  0  0  0  0  0  0  0  0  0  0
   57.3795   21.3724   44.5183 C   0  0  0  0  0  0  0  0  0  0  0  0
   58.3864   28.7355   45.0467 C   0  0  0  0  0  0  0  0  0  0  0  0
   58.2766   29.9203   45.9732 C   0  0  0  0  0  0  0  0  0  0  0  0
   58.7019   29.8157   47.1532 O   0  0  0  0  0  0  0  0  0  0  0  0
   57.7633   31.1833   45.5316 N   0  0  0  0  0  0  0  0  0  0  0  0
   58.3385   32.4610   45.8252 C   0  0  0  0  0  0  0  0  0  0  0  0
   58.4984   33.3936   44.7924 C   0  0  0  0  0  0  0  0  0  0  0  0
   59.0794   34.6388   45.0517 C   0  0  0  0  0  0  0  0  0  0  0  0
   59.5247   34.9481   46.3394 C   0  0  0  0  0  0  0  0  0  0  0  0
   59.3913   34.0127   47.3706 C   0  0  0  0  0  0  0  0  0  0  0  0
   59.8456   34.3168   48.6479 O   0  0  0  0  0  0  0  0  0  0  0  0
   58.8053   32.7680   47.1136 C   0  0  0  0  0  0  0  0  0  0  0  0
  9 10  2  0
 10  8  1  0
  8  1  1  0
  1  2  1  0
  2  3  1  0
  3  4  2  0
  3  5  1  0
  5 18  1  0
 18 19  1  0
 19 20  2  0
 19 21  1  0
 21 22  1  0
 22 23  2  0
 23 24  1  0
 24 25  2  0
 25 26  1  0
 26 27  1  0
 26 28  2  0
  5  6  1  0
  6  7  1  0
 10 11  1  0
 11 12  1  0
 12 13  2  0
 13 14  1  0
 14 15  2  0
 15 16  1  0
 16 17  2  0
  6  1  2  0
 17 12  1  0
 28 22  1  0
M  CHG 1   7  -1
M  CHG 1  11  -1
M  CHG 1  21  -1
M  CHG 1  27  -1
M  END
> <UniqueID>
59

> <SMILES>
O=C(Cc1sc(=O)n(CC(=O)[N-]c2cccc([O-])c2)c1[O-])[N-]c1ccccc1

> <Energy>
79.29497750999369

> <Genealogy>
O=C(Cc1sc(=O)n(CC(=O)[N-]c2cccc([O-])c2)c1[O-])[N-]c1ccccc1 (protonated)
O=C(Cc1sc(=O)n(CC(=O)[N-]c2cccc([O-])c2)c1[O-])[N-]c1ccccc1 (3D coordinates assigned)
O=C(Cc1sc(=O)n(CC(=O)[N-]c2cccc([O-])c2)c1[O-])[N-]c1ccccc1 (optimized conformer: 79.29497750999369 kcal/mol)

> <smiles>
O=C(Cc1sc(=O)n(CC(=O)Nc2cccc(O)c2)c1O)Nc1ccccc1

> <score_type>
oracle

> <origin>
adg

> <m_score__min__energy>
-15.83

> <m_primary>
energy

> <minimizedAffinity>
-6.00721

> <minimizedRMSD>
0.82790

> <CNNscore>
0.3578899801

> <CNNaffinity>
6.0721888542

> <CNN_VS>
2.1731755733

> <CNNaffinity_variance>
0.0516386740

$$$$
10:0


 27 28  0  0  0  0  0  0  0  0999 V2000
   57.4446   25.6596   45.0591 N   0  0  0  0  0  0  0  0  0  0  0  0
   57.6921   24.5541   45.9366 C   0  0  0  0  0  0  0  0  0  0  0  0
   58.6332   23.7508   45.6931 O   0  0  0  0  0  0  0  0  0  0  0  0
   56.5183   25.9500   44.8952 H   0  0  0  0  0  0  0  0  0  0  0  0
   58.5440   26.3621   44.4042 C   0  0  0  0  0  0  0  0  0  0  0  0
   58.4349   30.4467   45.8118 C   0  0  0  0  0  0  0  0  0  0  0  0
   57.3144   29.8713   45.1991 C   0  0  0  0  0  0  0  0  0  0  0  0
   57.3582   28.5603   44.7164 C   0  0  0  0  0  0  0  0  0  0  0  0
   58.5347   27.8070   44.8259 C   0  0  0  0  0  0  0  0  0  0  0  0
   59.6608   28.3758   45.4376 C   0  0  0  0  0  0  0  0  0  0  0  0
   59.6206   29.6866   45.9251 C   0  0  0  0  0  0  0  0  0  0  0  0
   60.7416   30.1876   46.4946 F   0  0  0  0  0  0  0  0  0  0  0  0
   58.3071   31.7874   46.3084 N   0  0  0  0  0  0  0  0  0  0  0  0
   59.5566   34.3082   45.8335 C   0  0  0  0  0  0  0  0  0  0  0  0
   58.2056   33.2471   45.3776 S   0  0  0  0  0  0  0  0  0  0  0  0
   56.9102   33.9519   45.6639 O   0  0  0  0  0  0  0  0  0  0  0  0
   58.3108   32.9328   43.9130 O   0  0  0  0  0  0  0  0  0  0  0  0
   56.9047   24.4140   47.2022 C   0  0  0  0  0  0  0  0  0  0  0  0
   55.8755   23.3726   47.0306 N   0  0  0  0  0  0  0  0  0  0  0  0
   54.7292   23.6588   46.3333 C   0  0  0  0  0  0  0  0  0  0  0  0
   54.5026   24.9363   45.8276 O   0  0  0  0  0  0  0  0  0  0  0  0
   53.7709   22.6699   46.1122 C   0  0  0  0  0  0  0  0  0  0  0  0
   54.0065   21.3909   46.6010 C   0  0  0  0  0  0  0  0  0  0  0  0
   53.1635   20.4743   46.4146 O   0  0  0  0  0  0  0  0  0  0  0  0
   55.1513   21.1290   47.2768 N   0  0  0  0  0  0  0  0  0  0  0  0
   56.0837   22.0933   47.4911 C   0  0  0  0  0  0  0  0  0  0  0  0
   57.1369   21.7936   48.1155 O   0  0  0  0  0  0  0  0  0  0  0  0
 14 15  1  0
 15 16  2  0
 15 17  2  0
 15 13  1  0
 13  6  1  0
  6  7  2  0
  7  8  1  0
  8  9  2  0
  9  5  1  0
  5  1  1  0
  1  2  1  0
  2  3  2  0
  2 18  1  0
 18 19  1  0
 19 20  1  0
 20 21  1  0
 20 22  2  0
 22 23  1  0
 23 24  2  0
 23 25  1  0
 25 26  1  0
 26 27  2  0
  9 10  1  0
 10 11  2  0
 11 12  1  0
 11  6  1  0
 26 19  1  0
  1  4  1  0
M  CHG 1  13  -1
M  CHG 1  21  -1
M  CHG 1  25  -1
M  END
> <UniqueID>
10

> <SMILES>
CS(=O)(=O)[N-]c1ccc(CNC(=O)Cn2c([O-])cc(=O)[n-]c2=O)cc1F

> <Energy>
36.39248681894241

> <Genealogy>
CS(=O)(=O)[N-]c1ccc(CNC(=O)Cn2c([O-])cc(=O)[n-]c2=O)cc1F (protonated)
CS(=O)(=O)[N-]c1ccc(CNC(=O)Cn2c([O-])cc(=O)[n-]c2=O)cc1F (3D coordinates assigned)
CS(=O)(=O)[N-]c1ccc(CNC(=O)Cn2c([O-])cc(=O)[n-]c2=O)cc1F (optimized conformer: 36.39248681894241 kcal/mol)

> <smiles>
CS(=O)(=O)Nc1ccc(CNC(=O)Cn2c(O)cc(=O)[nH]c2=O)cc1F

> <score_type>
oracle

> <origin>
adg

> <m_score__min__energy>
-14.029999999999999

> <m_primary>
energy

> <minimizedAffinity>
-6.75017

> <minimizedRMSD>
1.41989

> <CNNscore>
0.1986562312

> <CNNaffinity>
5.6341738701

> <CNN_VS>
1.1192637682

> <CNNaffinity_variance>
0.0372535400

$$$$
17:0


 30 32  0  0  0  0  0  0  0  0999 V2000
   59.8641   27.7511   45.4150 O   0  0  0  0  0  0  0  0  0  0  0  0
   58.8193   27.4337   46.0446 C   0  0  0  0  0  0  0  0  0  0  0  0
   57.6610   28.2794   46.0063 N   0  0  0  0  0  0  0  0  0  0  0  0
   56.8258   27.9495   46.4097 H   0  0  0  0  0  0  0  0  0  0  0  0
   57.6627   29.5859   45.4067 C   0  0  0  0  0  0  0  0  0  0  0  0
   57.0931   29.7792   44.1361 C   0  0  0  0  0  0  0  0  0  0  0  0
   57.1787   31.0221   43.5047 C   0  0  0  0  0  0  0  0  0  0  0  0
   57.8470   32.0785   44.1266 C   0  0  0  0  0  0  0  0  0  0  0  0
   58.4227   31.8970   45.3862 C   0  0  0  0  0  0  0  0  0  0  0  0
   58.3226   30.6642   46.0419 C   0  0  0  0  0  0  0  0  0  0  0  0
   58.9050   30.5368   47.3107 O   0  0  0  0  0  0  0  0  0  0  0  0
   59.9744   31.3098   47.7875 C   0  0  0  0  0  0  0  0  0  0  0  0
   61.2739   30.9816   47.3849 C   0  0  0  0  0  0  0  0  0  0  0  0
   62.3660   31.7235   47.8460 C   0  0  0  0  0  0  0  0  0  0  0  0
   62.1623   32.8075   48.7035 C   0  0  0  0  0  0  0  0  0  0  0  0
   60.8671   33.1561   49.0948 C   0  0  0  0  0  0  0  0  0  0  0  0
   59.7732   32.4179   48.6339 C   0  0  0  0  0  0  0  0  0  0  0  0
   58.7786   26.1311   46.7851 C   0  0  0  0  0  0  0  0  0  0  0  0
   58.7306   25.0392   45.8694 O   0  0  0  0  0  0  0  0  0  0  0  0
   57.7019   24.8607   44.9358 C   0  0  0  0  0  0  0  0  0  0  0  0
   57.7860   25.4128   43.8034 O   0  0  0  0  0  0  0  0  0  0  0  0
   56.5154   24.0260   45.2775 C   0  0  0  0  0  0  0  0  0  0  0  0
   55.3632   24.5883   45.8687 C   0  0  0  0  0  0  0  0  0  0  0  0
   55.2931   25.9451   46.1649 O   0  0  0  0  0  0  0  0  0  0  0  0
   54.2969   23.8022   46.1680 N   0  0  0  0  0  0  0  0  0  0  0  0
   54.3100   22.4723   45.9108 C   0  0  0  0  0  0  0  0  0  0  0  0
   53.3073   21.7665   46.1977 O   0  0  0  0  0  0  0  0  0  0  0  0
   55.4009   21.9007   45.3456 N   0  0  0  0  0  0  0  0  0  0  0  0
   56.4958   22.6358   45.0246 C   0  0  0  0  0  0  0  0  0  0  0  0
   57.4812   22.0549   44.4971 O   0  0  0  0  0  0  0  0  0  0  0  0
  1  2  2  0
  2 18  1  0
 18 19  1  0
 19 20  1  0
 20 21  2  0
 20 22  1  0
 22 23  2  0
 23 24  1  0
 23 25  1  0
 25 26  1  0
 26 27  2  0
 26 28  1  0
 28 29  1  0
 29 30  2  0
  2  3  1  0
  3  5  1  0
  5  6  2  0
  6  7  1  0
  7  8  2  0
  8  9  1  0
  9 10  2  0
 10 11  1  0
 11 12  1  0
 12 13  2  0
 13 14  1  0
 14 15  2  0
 15 16  1  0
 16 17  2  0
 29 22  1  0
 10  5  1  0
 17 12  1  0
  3  4  1  0
M  CHG 1  24  -1
M  CHG 1  25  -1
M  CHG 1  28  -1
M  END
> <UniqueID>
17

> <SMILES>
O=C(COC(=O)c1c([O-])[n-]c(=O)[n-]c1=O)Nc1ccccc1Oc1ccccc1

> <Energy>
57.24771349917204

> <Genealogy>
O=C(COC(=O)c1c([O-])[n-]c(=O)[n-]c1=O)Nc1ccccc1Oc1ccccc1 (protonated)
O=C(COC(=O)c1c([O-])[n-]c(=O)[n-]c1=O)Nc1ccccc1Oc1ccccc1 (3D coordinates assigned)
O=C(COC(=O)c1c([O-])[n-]c(=O)[n-]c1=O)Nc1ccccc1Oc1ccccc1 (optimized conformer: 57.24771349917204 kcal/mol)

> <smiles>
O=C(COC(=O)c1c(O)[nH]c(=O)[nH]c1=O)Nc1ccccc1Oc1ccccc1

> <score_type>
oracle

> <origin>
adg

> <m_score__min__energy>
-15.23

> <m_primary>
energy

> <minimizedAffinity>
-8.05545

> <minimizedRMSD>
1.51963

> <CNNscore>
0.2454345673

> <CNNaffinity>
6.3233757019

> <CNN_VS>
1.5519750118

> <CNNaffinity_variance>
0.1429269165

$$$$
25:0


 26 28  0  0  0  0  0  0  0  0999 V2000
   58.8564   33.0943   48.9441 N   0  0  0  0  0  0  0  0  0  0  0  0
   58.8564   33.2935   47.6580 C   0  0  0  0  0  0  0  0  0  0  0  0
   58.5551   32.2276   46.8023 C   0  0  0  0  0  0  0  0  0  0  0  0
   58.4866   32.4315   45.4117 C   0  0  0  0  0  0  0  0  0  0  0  0
   58.7220   33.7239   44.9172 C   0  0  0  0  0  0  0  0  0  0  0  0
   59.0313   34.7620   45.7958 C   0  0  0  0  0  0  0  0  0  0  0  0
   59.0931   34.5237   47.1313 N   0  0  0  0  0  0  0  0  0  0  0  0
   59.9727   33.0311   50.9747 O   0  0  0  0  0  0  0  0  0  0  0  0
   59.8946   32.5829   49.8014 C   0  0  0  0  0  0  0  0  0  0  0  0
   60.9035   31.5535   49.3673 C   0  0  0  0  0  0  0  0  0  0  0  0
   62.2061   32.2103   49.0147 C   0  0  0  0  0  0  0  0  0  0  0  0
   62.4537   33.0182   47.9289 C   0  0  0  0  0  0  0  0  0  0  0  0
   63.7184   33.4774   48.0014 N   0  0  0  0  0  0  0  0  0  0  0  0
   64.2045   32.9178   49.1272 C   0  0  0  0  0  0  0  0  0  0  0  0
   63.3125   32.1323   49.7720 N   0  0  0  0  0  0  0  0  0  0  0  0
   58.2115   31.3149   44.4703 C   0  0  0  0  0  0  0  0  0  0  0  0
   57.8508   31.5701   43.2925 O   0  0  0  0  0  0  0  0  0  0  0  0
   58.3679   29.8980   44.8613 C   0  0  0  0  0  0  0  0  0  0  0  0
   59.6492   29.3569   45.0193 C   0  0  0  0  0  0  0  0  0  0  0  0
   59.8028   28.0270   45.4070 C   0  0  0  0  0  0  0  0  0  0  0  0
   58.6811   27.2286   45.6405 C   0  0  0  0  0  0  0  0  0  0  0  0
   57.3942   27.7612   45.4893 C   0  0  0  0  0  0  0  0  0  0  0  0
   56.2708   26.9695   45.7101 O   0  0  0  0  0  0  0  0  0  0  0  0
   57.2369   29.0983   45.1079 C   0  0  0  0  0  0  0  0  0  0  0  0
   55.9595   29.6300   44.9636 O   0  0  0  0  0  0  0  0  0  0  0  0
   56.3719   26.0737   45.9656 H   0  0  0  0  0  0  0  0  0  0  0  0
  8  9  2  0
  9 10  1  0
 10 11  1  0
 11 12  2  0
 12 13  1  0
 13 14  1  0
 14 15  2  0
  9  1  1  0
  1  2  2  0
  2  3  1  0
  3  4  2  0
  4 16  1  0
 16 17  2  0
 16 18  1  0
 18 19  2  0
 19 20  1  0
 20 21  2  0
 21 22  1  0
 22 23  1  0
 22 24  2  0
 24 25  1  0
  4  5  1  0
  5  6  2  0
  6  7  1  0
 15 11  1  0
  7  2  1  0
 24 18  1  0
 23 26  1  0
M  CHG 1   7  -1
M  CHG 1  13  -1
M  CHG 1  25  -1
M  END
> <UniqueID>
25

> <SMILES>
O=C(Cc1c[n-]cn1)N=c1cc(C(=O)c2cccc(O)c2[O-])cc[n-]1

> <Energy>
79.47662184637542

> <Genealogy>
O=C(Cc1c[n-]cn1)N=c1cc(C(=O)c2cccc(O)c2[O-])cc[n-]1 (protonated)
O=C(Cc1c[n-]cn1)N=c1cc(C(=O)c2cccc(O)c2[O-])cc[n-]1 (3D coordinates assigned)
O=C(Cc1c[n-]cn1)N=c1cc(C(=O)c2cccc(O)c2[O-])cc[n-]1 (optimized conformer: 79.47662184637542 kcal/mol)

> <smiles>
O=C(Cc1c[nH]cn1)N=c1cc(C(=O)c2cccc(O)c2O)cc[nH]1

> <score_type>
oracle

> <origin>
adg

> <m_score__min__energy>
-14.130000000000001

> <m_primary>
energy

> <minimizedAffinity>
-8.13418

> <minimizedRMSD>
1.27334

> <CNNscore>
0.8142271042

> <CNNaffinity>
6.7101435661

> <CNN_VS>
5.4635806084

> <CNNaffinity_variance>
0.1567202061

$$$$
29:0


 27 29  0  0  0  0  0  0  0  0999 V2000
   57.7235   30.1259   53.4380 N   0  0  0  0  0  0  0  0  0  0  0  0
   57.5128   31.1593   52.4639 C   0  0  0  0  0  0  0  0  0  0  0  0
   56.4756   31.8667   52.5598 O   0  0  0  0  0  0  0  0  0  0  0  0
   58.4730   31.4635   51.3825 C   0  0  0  0  0  0  0  0  0  0  0  0
   59.7912   31.0165   51.2907 C   0  0  0  0  0  0  0  0  0  0  0  0
   60.2558   31.5082   50.0934 C   0  0  0  0  0  0  0  0  0  0  0  0
   61.4993   31.3731   49.4788 C   0  0  0  0  0  0  0  0  0  0  0  0
   61.6826   31.9863   48.2240 C   0  0  0  0  0  0  0  0  0  0  0  0
   63.2279   31.8514   47.4064 Cl  0  0  0  0  0  0  0  0  0  0  0  0
   60.6258   32.7054   47.6194 C   0  0  0  0  0  0  0  0  0  0  0  0
   59.3790   32.8164   48.2634 C   0  0  0  0  0  0  0  0  0  0  0  0
   59.2312   32.2031   49.5071 C   0  0  0  0  0  0  0  0  0  0  0  0
   58.1341   32.1757   50.2795 N   0  0  0  0  0  0  0  0  0  0  0  0
   57.2617   32.5882   50.0850 H   0  0  0  0  0  0  0  0  0  0  0  0
   57.0885   28.8113   53.4699 C   0  0  0  0  0  0  0  0  0  0  0  0
   54.1175   27.0539   54.1923 C   0  0  0  0  0  0  0  0  0  0  0  0
   54.6062   28.4289   54.0490 N   0  0  0  0  0  0  0  0  0  0  0  0
   55.9448   28.7932   54.4509 C   0  0  0  0  0  0  0  0  0  0  0  0
   56.1859   29.0334   55.6662 O   0  0  0  0  0  0  0  0  0  0  0  0
   53.7635   29.4053   53.4094 C   0  0  0  0  0  0  0  0  0  0  0  0
   53.9454   29.7159   52.0540 C   0  0  0  0  0  0  0  0  0  0  0  0
   53.1145   30.6500   51.4329 C   0  0  0  0  0  0  0  0  0  0  0  0
   52.1081   31.2710   52.1756 C   0  0  0  0  0  0  0  0  0  0  0  0
   51.2691   32.2005   51.5733 O   0  0  0  0  0  0  0  0  0  0  0  0
   51.9479   30.9675   53.4918 N   0  0  0  0  0  0  0  0  0  0  0  0
   52.7425   30.0620   54.1225 C   0  0  0  0  0  0  0  0  0  0  0  0
   52.5610   29.8222   55.3450 O   0  0  0  0  0  0  0  0  0  0  0  0
 16 17  1  0
 17 18  1  0
 18 19  2  0
 18 15  1  0
 15  1  1  0
  1  2  1  0
  2  3  2  0
  2  4  1  0
  4  5  2  0
  5  6  1  0
  6  7  2  0
  7  8  1  0
  8  9  1  0
  8 10  2  0
 10 11  1  0
 11 12  2  0
 12 13  1  0
 17 20  1  0
 20 21  2  0
 21 22  1  0
 22 23  2  0
 23 24  1  0
 23 25  1  0
 25 26  1  0
 26 27  2  0
 13  4  1  0
 26 20  1  0
 12  6  1  0
 13 14  1  0
M  CHG 1   1  -1
M  CHG 1  24  -1
M  CHG 1  25  -1
M  END
> <UniqueID>
29

> <SMILES>
CN(C(=O)C[N-]C(=O)c1cc2cc(Cl)ccc2[nH]1)c1ccc([O-])[n-]c1=O

> <Energy>
82.96726237735338

> <Genealogy>
CN(C(=O)C[N-]C(=O)c1cc2cc(Cl)ccc2[nH]1)c1ccc([O-])[n-]c1=O (protonated)
CN(C(=O)C[N-]C(=O)c1cc2cc(Cl)ccc2[nH]1)c1ccc([O-])[n-]c1=O (3D coordinates assigned)
CN(C(=O)C[N-]C(=O)c1cc2cc(Cl)ccc2[nH]1)c1ccc([O-])[n-]c1=O (optimized conformer: 82.96726237735338 kcal/mol)

> <smiles>
CN(C(=O)CNC(=O)c1cc2cc(Cl)ccc2[nH]1)c1ccc(O)[nH]c1=O

> <score_type>
oracle

> <origin>
adg

> <m_score__min__energy>
-15.210000000000001

> <m_primary>
energy

> <minimizedAffinity>
-5.42752

> <minimizedRMSD>
1.71734

> <CNNscore>
0.2101248205

> <CNNaffinity>
5.2683768272

> <CNN_VS>
1.1070166826

> <CNNaffinity_variance>
0.2695074081

$$$$
36:0


 28 30  0  0  0  0  0  0  0  0999 V2000
   58.0369   27.7268   46.2069 C   0  0  0  0  0  0  0  0  0  0  0  0
   56.7678   27.8521   45.6281 C   0  0  0  0  0  0  0  0  0  0  0  0
   55.9141   26.7574   45.5435 O   0  0  0  0  0  0  0  0  0  0  0  0
   56.3635   29.0457   45.1353 N   0  0  0  0  0  0  0  0  0  0  0  0
   57.1578   30.1429   45.1848 C   0  0  0  0  0  0  0  0  0  0  0  0
   56.7224   31.2290   44.7144 O   0  0  0  0  0  0  0  0  0  0  0  0
   58.4076   30.0693   45.7470 N   0  0  0  0  0  0  0  0  0  0  0  0
   58.8411   28.8824   46.2846 C   0  0  0  0  0  0  0  0  0  0  0  0
   59.9543   28.8294   46.8792 O   0  0  0  0  0  0  0  0  0  0  0  0
   59.0900   25.4908   46.0199 C   0  0  0  0  0  0  0  0  0  0  0  0
   58.4574   26.4158   46.7588 C   0  0  0  0  0  0  0  0  0  0  0  0
   58.4056   24.3694   45.3322 C   0  0  0  0  0  0  0  0  0  0  0  0
   57.4091   24.6695   44.3862 C   0  0  0  0  0  0  0  0  0  0  0  0
   56.7297   23.6469   43.7179 C   0  0  0  0  0  0  0  0  0  0  0  0
   57.0284   22.3111   43.9941 C   0  0  0  0  0  0  0  0  0  0  0  0
   56.3516   21.2962   43.3294 O   0  0  0  0  0  0  0  0  0  0  0  0
   58.0044   21.9960   44.9430 C   0  0  0  0  0  0  0  0  0  0  0  0
   58.6882   23.0159   45.6128 C   0  0  0  0  0  0  0  0  0  0  0  0
   59.2606   31.2708   45.8323 C   0  0  0  0  0  0  0  0  0  0  0  0
   58.9241   32.0676   47.0642 C   0  0  0  0  0  0  0  0  0  0  0  0
   57.9289   32.8396   47.0435 O   0  0  0  0  0  0  0  0  0  0  0  0
   59.6696   31.9360   48.2818 N   0  0  0  0  0  0  0  0  0  0  0  0
   60.9878   32.4423   48.5305 C   0  0  0  0  0  0  0  0  0  0  0  0
   62.0904   31.7229   48.0533 C   0  0  0  0  0  0  0  0  0  0  0  0
   63.3908   32.1748   48.3044 C   0  0  0  0  0  0  0  0  0  0  0  0
   63.5949   33.3380   49.0527 C   0  0  0  0  0  0  0  0  0  0  0  0
   62.5015   34.0450   49.5564 C   0  0  0  0  0  0  0  0  0  0  0  0
   61.2008   33.5963   49.3060 C   0  0  0  0  0  0  0  0  0  0  0  0
 10 11  2  0
 11  1  1  0
  1  2  2  0
  2  3  1  0
  2  4  1  0
  4  5  1  0
  5  6  2  0
  5  7  1  0
  7 19  1  0
 19 20  1  0
 20 21  2  0
 20 22  1  0
 22 23  1  0
 23 24  2  0
 24 25  1  0
 25 26  2  0
 26 27  1  0
 27 28  2  0
  7  8  1  0
  8  9  2  0
 10 12  1  0
 12 13  2  0
 13 14  1  0
 14 15  2  0
 15 16  1  0
 15 17  1  0
 17 18  2  0
  8  1  1  0
 18 12  1  0
 28 23  1  0
M  CHG 1   3  -1
M  CHG 1   4  -1
M  CHG 1  16  -1
M  CHG 1  22  -1
M  END
> <UniqueID>
36

> <SMILES>
O=C(Cn1c(=O)[n-]c([O-])c(/C=C/c2ccc([O-])cc2)c1=O)[N-]c1ccccc1

> <Energy>
60.94295619476363

> <Genealogy>
O=C(Cn1c(=O)[n-]c([O-])c(C=Cc2ccc([O-])cc2)c1=O)[N-]c1ccccc1 (protonated)
O=C(Cn1c(=O)[n-]c([O-])c(/C=C/c2ccc([O-])cc2)c1=O)[N-]c1ccccc1 (cis-trans isomerization)
O=C(Cn1c(=O)[n-]c([O-])c(/C=C/c2ccc([O-])cc2)c1=O)[N-]c1ccccc1 (3D coordinates assigned)
O=C(Cn1c(=O)[n-]c([O-])c(/C=C/c2ccc([O-])cc2)c1=O)[N-]c1ccccc1 (optimized conformer: 60.94295619476363 kcal/mol)

> <smiles>
O=C(Cn1c(=O)[nH]c(O)c(C=Cc2ccc(O)cc2)c1=O)Nc1ccccc1

> <score_type>
oracle

> <origin>
adg

> <m_score__min__energy>
-16.050000000000001

> <m_primary>
energy

> <minimizedAffinity>
-7.39737

> <minimizedRMSD>
0.82473

> <CNNscore>
0.3213381171

> <CNNaffinity>
6.2969727516

> <CNN_VS>
2.0234572887

> <CNNaffinity_variance>
0.1070178971

$$$$
42:0


 28 30  0  0  0  0  0  0  0  0999 V2000
   58.2887   28.8248   45.9875 C   0  0  0  0  0  0  0  0  0  0  0  0
   59.2359   29.7436   46.4691 C   0  0  0  0  0  0  0  0  0  0  0  0
   60.1326   29.3773   47.4845 C   0  0  0  0  0  0  0  0  0  0  0  0
   60.0608   28.0904   48.0368 C   0  0  0  0  0  0  0  0  0  0  0  0
   59.1202   27.1726   47.5646 C   0  0  0  0  0  0  0  0  0  0  0  0
   58.2344   27.5331   46.5440 C   0  0  0  0  0  0  0  0  0  0  0  0
   57.3000   26.6062   46.0941 O   0  0  0  0  0  0  0  0  0  0  0  0
   57.3143   29.2367   44.9139 C   0  0  0  0  0  0  0  0  0  0  0  0
   56.9457   30.6382   45.0770 N   0  0  0  0  0  0  0  0  0  0  0  0
   57.7624   31.7845   43.2173 O   0  0  0  0  0  0  0  0  0  0  0  0
   57.6601   31.7239   44.4736 C   0  0  0  0  0  0  0  0  0  0  0  0
   58.2762   32.7736   45.3187 C   0  0  0  0  0  0  0  0  0  0  0  0
   58.8878   33.8966   44.7319 C   0  0  0  0  0  0  0  0  0  0  0  0
   59.4714   34.8841   45.5318 C   0  0  0  0  0  0  0  0  0  0  0  0
   59.4479   34.7647   46.9227 C   0  0  0  0  0  0  0  0  0  0  0  0
   58.8431   33.6547   47.5184 C   0  0  0  0  0  0  0  0  0  0  0  0
   58.2611   32.6630   46.7231 C   0  0  0  0  0  0  0  0  0  0  0  0
   61.1125   30.3790   48.0234 C   0  0  0  0  0  0  0  0  0  0  0  0
   60.9643   30.4625   49.4716 N   0  0  0  0  0  0  0  0  0  0  0  0
   60.3224   31.5344   50.1742 C   0  0  0  0  0  0  0  0  0  0  0  0
   60.8896   32.6569   50.2132 O   0  0  0  0  0  0  0  0  0  0  0  0
   59.0480   31.3589   50.8957 C   0  0  0  0  0  0  0  0  0  0  0  0
   58.4849   32.3905   51.6548 C   0  0  0  0  0  0  0  0  0  0  0  0
   57.2910   32.1628   52.3368 C   0  0  0  0  0  0  0  0  0  0  0  0
   56.6945   30.9046   52.2576 C   0  0  0  0  0  0  0  0  0  0  0  0
   55.6153   30.6713   52.8618 O   0  0  0  0  0  0  0  0  0  0  0  0
   57.2909   29.9251   51.5279 N   0  0  0  0  0  0  0  0  0  0  0  0
   58.4329   30.1457   50.8738 N   0  0  0  0  0  0  0  0  0  0  0  0
 10 11  2  0
 11  9  1  0
  9  8  1  0
  8  1  1  0
  1  2  2  0
  2  3  1  0
  3 18  1  0
 18 19  1  0
 19 20  1  0
 20 21  2  0
 20 22  1  0
 22 23  1  0
 23 24  2  0
 24 25  1  0
 25 26  2  0
 25 27  1  0
 27 28  1  0
  3  4  2  0
  4  5  1  0
  5  6  2  0
  6  7  1  0
 11 12  1  0
 12 13  2  0
 13 14  1  0
 14 15  2  0
 15 16  1  0
 16 17  2  0
  6  1  1  0
 17 12  1  0
 28 22  2  0
M  CHG 1   7  -1
M  CHG 1   9  -1
M  CHG 1  19  -1
M  CHG 1  27  -1
M  END
> <UniqueID>
42

> <SMILES>
O=C([N-]Cc1cc(C[N-]C(=O)c2ccc(=O)[n-]n2)ccc1[O-])c1ccccc1

> <Energy>
48.19204277560066

> <Genealogy>
O=C([N-]Cc1cc(C[N-]C(=O)c2ccc(=O)[n-]n2)ccc1[O-])c1ccccc1 (protonated)
O=C([N-]Cc1cc(C[N-]C(=O)c2ccc(=O)[n-]n2)ccc1[O-])c1ccccc1 (3D coordinates assigned)
O=C([N-]Cc1cc(C[N-]C(=O)c2ccc(=O)[n-]n2)ccc1[O-])c1ccccc1 (optimized conformer: 48.19204277560066 kcal/mol)

> <smiles>
O=C(NCc1cc(CNC(=O)c2ccc(=O)[nH]n2)ccc1O)c1ccccc1

> <score_type>
oracle

> <origin>
adg

> <m_score__min__energy>
-15.52

> <m_primary>
energy

> <minimizedAffinity>
-7.96818

> <minimizedRMSD>
1.41978

> <CNNscore>
0.8527780175

> <CNNaffinity>
6.6700148582

> <CNN_VS>
5.6880421638

> <CNNaffinity_variance>
0.0047391313

$$$$
87:0


 24 25  0  0  0  0  0  0  0  0999 V2000
   60.0969   28.2864   46.4292 C   0  0  0  0  0  0  0  0  0  0  0  0
   58.9610   27.3104   46.2877 C   0  0  0  0  0  0  0  0  0  0  0  0
   58.8326   26.2507   47.2001 C   0  0  0  0  0  0  0  0  0  0  0  0
   57.7737   25.3444   47.0923 C   0  0  0  0  0  0  0  0  0  0  0  0
   57.6675   24.3110   48.0168 O   0  0  0  0  0  0  0  0  0  0  0  0
   56.8315   25.4816   46.0634 C   0  0  0  0  0  0  0  0  0  0  0  0
   56.9539   26.5402   45.1513 C   0  0  0  0  0  0  0  0  0  0  0  0
   58.0092   27.4644   45.2593 C   0  0  0  0  0  0  0  0  0  0  0  0
   55.4853   24.3467   45.9298 S   0  0  0  0  0  0  0  0  0  0  0  0
   54.0287   25.1671   45.4850 N   0  0  0  0  0  0  0  0  0  0  0  0
   55.2764   23.6681   47.2542 O   0  0  0  0  0  0  0  0  0  0  0  0
   55.7985   23.3164   44.8821 O   0  0  0  0  0  0  0  0  0  0  0  0
   53.8055   25.8699   46.1897 H   0  0  0  0  0  0  0  0  0  0  0  0
   58.1352   28.5671   44.3478 N   0  0  0  0  0  0  0  0  0  0  0  0
   57.0631   29.9266   44.2616 S   0  0  0  0  0  0  0  0  0  0  0  0
   56.7294   30.2039   42.8229 O   0  0  0  0  0  0  0  0  0  0  0  0
   55.7964   29.5994   45.0043 O   0  0  0  0  0  0  0  0  0  0  0  0
   57.8393   31.3494   44.9500 C   0  0  0  0  0  0  0  0  0  0  0  0
   57.8303   32.5599   44.2445 C   0  0  0  0  0  0  0  0  0  0  0  0
   58.4689   33.6857   44.7718 C   0  0  0  0  0  0  0  0  0  0  0  0
   59.1174   33.6088   46.0100 C   0  0  0  0  0  0  0  0  0  0  0  0
   59.9219   35.0210   46.6688 Cl  0  0  0  0  0  0  0  0  0  0  0  0
   59.1240   32.4030   46.7194 C   0  0  0  0  0  0  0  0  0  0  0  0
   58.4866   31.2761   46.1928 C   0  0  0  0  0  0  0  0  0  0  0  0
  1  2  1  0
  2  3  2  0
  3  4  1  0
  4  5  1  0
  4  6  2  0
  6  9  1  0
  9 10  1  0
  9 11  2  0
  9 12  2  0
  6  7  1  0
  7  8  2  0
  8 14  1  0
 14 15  1  0
 15 16  2  0
 15 17  2  0
 15 18  1  0
 18 19  2  0
 19 20  1  0
 20 21  2  0
 21 22  1  0
 21 23  1  0
 23 24  2  0
  8  2  1  0
 24 18  1  0
 10 13  1  0
M  CHG 1   5  -1
M  CHG 1  10  -1
M  CHG 1  14  -1
M  END
> <UniqueID>
83

> <SMILES>
Cc1cc([O-])c(S([NH-])(=O)=O)cc1[N-]S(=O)(=O)c1ccc(Cl)cc1

> <Energy>
36.67945609670166

> <Genealogy>
Cc1cc([O-])c(S([NH-])(=O)=O)cc1[N-]S(=O)(=O)c1ccc(Cl)cc1 (protonated)
Cc1cc([O-])c(S([NH-])(=O)=O)cc1[N-]S(=O)(=O)c1ccc(Cl)cc1 (3D coordinates assigned)
Cc1cc([O-])c(S([NH-])(=O)=O)cc1[N-]S(=O)(=O)c1ccc(Cl)cc1 (optimized conformer: 36.67945609670166 kcal/mol)

> <smiles>
Cc1cc(O)c(S(N)(=O)=O)cc1NS(=O)(=O)c1ccc(Cl)cc1

> <score_type>
oracle

> <origin>
adg

> <m_score__min__energy>
-14.949999999999999

> <m_primary>
energy

> <minimizedAffinity>
-7.78368

> <minimizedRMSD>
0.74499

> <CNNscore>
0.8212220073

> <CNNaffinity>
7.0780220032

> <CNN_VS>
5.8126273155

> <CNNaffinity_variance>
0.1353955716

$$$$
12:0


 34 37  0  0  0  0  0  0  0  0999 V2000
   58.9265   32.5051   48.0874 S   0  0  0  0  0  0  0  0  0  0  0  0
   60.0167   33.5409   48.0405 O   0  0  0  0  0  0  0  0  0  0  0  0
   57.7004   33.0950   47.4503 O   0  0  0  0  0  0  0  0  0  0  0  0
   58.5758   32.1061   49.7534 N   0  0  0  0  0  0  0  0  0  0  0  0
   58.5774   30.6410   49.9865 C   0  0  0  0  0  0  0  0  0  0  0  0
   59.8969   30.1093   50.5769 C   0  0  0  0  0  0  0  0  0  0  0  0
   60.3444   30.9260   51.7091 N   0  0  0  0  0  0  0  0  0  0  0  0
   61.4583   30.4772   52.4968 C   0  0  0  0  0  0  0  0  0  0  0  0
   61.4850   29.2856   52.9177 O   0  0  0  0  0  0  0  0  0  0  0  0
   59.6581   32.1841   52.0017 C   0  0  0  0  0  0  0  0  0  0  0  0
   59.4014   32.9110   50.6836 C   0  0  0  0  0  0  0  0  0  0  0  0
   62.6401   31.3671   52.7544 C   0  0  0  0  0  0  0  0  0  0  0  0
   63.0001   32.1128   51.4996 C   0  0  0  0  0  0  0  0  0  0  0  0
   63.3410   31.4164   50.3296 C   0  0  0  0  0  0  0  0  0  0  0  0
   63.6436   32.1171   49.1582 C   0  0  0  0  0  0  0  0  0  0  0  0
   63.5967   33.5119   49.1456 C   0  0  0  0  0  0  0  0  0  0  0  0
   63.2432   34.2104   50.3029 C   0  0  0  0  0  0  0  0  0  0  0  0
   62.9411   33.5149   51.4757 C   0  0  0  0  0  0  0  0  0  0  0  0
   58.8864   29.2205   45.6934 C   0  0  0  0  0  0  0  0  0  0  0  0
   60.2358   28.8324   45.7082 C   0  0  0  0  0  0  0  0  0  0  0  0
   61.1740   29.5707   46.4307 C   0  0  0  0  0  0  0  0  0  0  0  0
   60.7756   30.6905   47.1592 C   0  0  0  0  0  0  0  0  0  0  0  0
   59.4335   31.0862   47.1667 C   0  0  0  0  0  0  0  0  0  0  0  0
   58.4958   30.3554   46.4274 C   0  0  0  0  0  0  0  0  0  0  0  0
   57.7274   28.6888   43.6841 O   0  0  0  0  0  0  0  0  0  0  0  0
   57.8829   28.4518   44.9124 C   0  0  0  0  0  0  0  0  0  0  0  0
   57.0265   27.4876   45.5391 N   0  0  0  0  0  0  0  0  0  0  0  0
   57.2193   26.2038   45.6652 C   0  0  0  0  0  0  0  0  0  0  0  0
   58.4957   25.7408   45.5618 N   0  0  0  0  0  0  0  0  0  0  0  0
   58.8088   24.4232   45.6642 C   0  0  0  0  0  0  0  0  0  0  0  0
   57.8047   23.4841   45.8881 C   0  0  0  0  0  0  0  0  0  0  0  0
   56.4856   23.9149   46.0181 C   0  0  0  0  0  0  0  0  0  0  0  0
   56.1771   25.2747   45.9228 C   0  0  0  0  0  0  0  0  0  0  0  0
   54.8577   25.6686   46.1172 O   0  0  0  0  0  0  0  0  0  0  0  0
 25 26  2  0
 26 27  1  0
 27 28  2  0
 28 29  1  0
 29 30  1  0
 30 31  2  0
 31 32  1  0
 32 33  2  0
 33 34  1  0
 26 19  1  0
 19 20  2  0
 20 21  1  0
 21 22  2  0
 22 23  1  0
 23  1  1  0
  1  2  2  0
  1  3  2  0
  1  4  1  0
  4  5  1  0
  5  6  1  0
  6  7  1  0
  7  8  1  0
  8  9  2  0
  8 12  1  0
 12 13  1  0
 13 14  2  0
 14 15  1  0
 15 16  2  0
 16 17  1  0
 17 18  2  0
  7 10  1  0
 10 11  1  0
 23 24  2  0
 33 28  1  0
 24 19  1  0
 11  4  1  0
 18 13  1  0
M  CHG 1  29  -1
M  CHG 1  34  -1
M  END
> <UniqueID>
13

> <SMILES>
O=C(N=c1[n-]cccc1[O-])c1cccc(S(=O)(=O)N2CCN(C(=O)Cc3ccccc3)CC2)c1

> <Energy>
79.1689334595643

> <Genealogy>
O=C(N=c1[n-]cccc1[O-])c1cccc(S(=O)(=O)N2CCN(C(=O)Cc3ccccc3)CC2)c1 (protonated)
O=C(N=c1[n-]cccc1[O-])c1cccc(S(=O)(=O)N2CCN(C(=O)Cc3ccccc3)CC2)c1 (3D coordinates assigned)
O=C(N=c1[n-]cccc1[O-])c1cccc(S(=O)(=O)N2CCN(C(=O)Cc3ccccc3)CC2)c1 (nonaromatic ring conformer: 79.1689334595643 kcal/mol)

> <smiles>
O=C(N=c1[nH]cccc1O)c1cccc(S(=O)(=O)N2CCN(C(=O)Cc3ccccc3)CC2)c1

> <score_type>
oracle

> <origin>
adg

> <m_score__min__energy>
-16.170000000000002

> <m_primary>
energy

> <minimizedAffinity>
-7.10997

> <minimizedRMSD>
1.80258

> <CNNscore>
0.1736779213

> <CNNaffinity>
6.3446164131

> <CNN_VS>
1.1019197702

> <CNNaffinity_variance>
0.0047649886

$$$$
31:0


 28 30  0  0  0  0  0  0  0  0999 V2000
   57.9556   29.6363   45.0328 C   0  0  0  0  0  0  0  0  0  0  0  0
   56.7223   28.9740   45.0854 C   0  0  0  0  0  0  0  0  0  0  0  0
   55.5932   29.5110   44.4772 O   0  0  0  0  0  0  0  0  0  0  0  0
   56.6262   27.7819   45.7200 N   0  0  0  0  0  0  0  0  0  0  0  0
   57.7036   27.1920   46.2965 C   0  0  0  0  0  0  0  0  0  0  0  0
   57.5520   26.0749   46.8621 O   0  0  0  0  0  0  0  0  0  0  0  0
   58.9361   27.7934   46.2413 N   0  0  0  0  0  0  0  0  0  0  0  0
   60.0837   27.1520   46.8457 C   0  0  0  0  0  0  0  0  0  0  0  0
   60.5501   26.0945   46.3402 O   0  0  0  0  0  0  0  0  0  0  0  0
   59.0713   29.0078   45.6122 C   0  0  0  0  0  0  0  0  0  0  0  0
   60.1910   29.5888   45.5732 O   0  0  0  0  0  0  0  0  0  0  0  0
   57.6206   32.1079   44.7998 C   0  0  0  0  0  0  0  0  0  0  0  0
   58.1037   30.9401   44.3449 C   0  0  0  0  0  0  0  0  0  0  0  0
   59.3284   34.3479   48.8254 O   0  0  0  0  0  0  0  0  0  0  0  0
   59.2399   34.2776   47.4369 C   0  0  0  0  0  0  0  0  0  0  0  0
   59.8944   35.2348   46.6560 C   0  0  0  0  0  0  0  0  0  0  0  0
   59.8037   35.1829   45.2623 C   0  0  0  0  0  0  0  0  0  0  0  0
   59.0661   34.1690   44.6441 C   0  0  0  0  0  0  0  0  0  0  0  0
   58.4277   33.1829   45.4190 C   0  0  0  0  0  0  0  0  0  0  0  0
   58.5001   33.2597   46.8192 C   0  0  0  0  0  0  0  0  0  0  0  0
   59.8253   35.0320   49.2291 H   0  0  0  0  0  0  0  0  0  0  0  0
   60.6630   27.6922   48.0420 N   0  0  0  0  0  0  0  0  0  0  0  0
   60.3167   28.9328   48.6758 C   0  0  0  0  0  0  0  0  0  0  0  0
   59.1436   28.9924   49.4397 C   0  0  0  0  0  0  0  0  0  0  0  0
   58.7604   30.1875   50.0574 C   0  0  0  0  0  0  0  0  0  0  0  0
   59.5403   31.3357   49.9030 C   0  0  0  0  0  0  0  0  0  0  0  0
   60.6996   31.2927   49.1227 C   0  0  0  0  0  0  0  0  0  0  0  0
   61.0860   30.0997   48.5046 C   0  0  0  0  0  0  0  0  0  0  0  0
 14 15  1  0
 15 16  2  0
 16 17  1  0
 17 18  2  0
 18 19  1  0
 19 12  1  0
 12 13  2  0
 13  1  1  0
  1  2  2  0
  2  3  1  0
  2  4  1  0
  4  5  1  0
  5  6  2  0
  5  7  1  0
  7  8  1  0
  8  9  2  0
  8 22  1  0
 22 23  1  0
 23 24  2  0
 24 25  1  0
 25 26  2  0
 26 27  1  0
 27 28  2  0
  7 10  1  0
 10 11  2  0
 19 20  2  0
 20 15  1  0
 10  1  1  0
 28 23  1  0
 14 21  1  0
M  CHG 1   3  -1
M  CHG 1   4  -1
M  CHG 1  22  -1
M  END
> <UniqueID>
32

> <SMILES>
O=C([N-]c1ccccc1)n1c(=O)[n-]c([O-])c(/C=C\c2cccc(O)c2)c1=O

> <Energy>
65.92569804427826

> <Genealogy>
O=C([N-]c1ccccc1)n1c(=O)[n-]c([O-])c(C=Cc2cccc(O)c2)c1=O (protonated)
O=C([N-]c1ccccc1)n1c(=O)[n-]c([O-])c(/C=C\c2cccc(O)c2)c1=O (cis-trans isomerization)
O=C([N-]c1ccccc1)n1c(=O)[n-]c([O-])c(/C=C\c2cccc(O)c2)c1=O (3D coordinates assigned)
O=C([N-]c1ccccc1)n1c(=O)[n-]c([O-])c(/C=C\c2cccc(O)c2)c1=O (optimized conformer: 65.92569804427826 kcal/mol)

> <smiles>
O=C(Nc1ccccc1)n1c(=O)[nH]c(O)c(C=Cc2cccc(O)c2)c1=O

> <score_type>
oracle

> <origin>
adg

> <m_score__min__energy>
-14.289999999999999

> <m_primary>
energy

> <minimizedAffinity>
-6.68913

> <minimizedRMSD>
0.49896

> <CNNscore>
0.3877738118

> <CNNaffinity>
6.3997058868

> <CNN_VS>
2.4816384315

> <CNNaffinity_variance>
0.0299645793

$$$$
90:0


 22 23  0  0  0  0  0  0  0  0999 V2000
   58.4653   31.9987   52.9270 C   0  0  0  0  0  0  0  0  0  0  0  0
   57.7835   31.3817   51.8703 C   0  0  0  0  0  0  0  0  0  0  0  0
   56.9904   30.2547   52.1058 C   0  0  0  0  0  0  0  0  0  0  0  0
   56.8639   29.7355   53.4074 C   0  0  0  0  0  0  0  0  0  0  0  0
   57.5738   30.3384   54.4534 C   0  0  0  0  0  0  0  0  0  0  0  0
   58.3652   31.4652   54.2193 C   0  0  0  0  0  0  0  0  0  0  0  0
   61.0691   33.1142   53.2318 N   0  0  0  0  0  0  0  0  0  0  0  0
   59.4769   33.4070   52.6282 S   0  0  0  0  0  0  0  0  0  0  0  0
   59.5464   33.6819   51.1521 O   0  0  0  0  0  0  0  0  0  0  0  0
   58.8925   34.6100   53.3153 O   0  0  0  0  0  0  0  0  0  0  0  0
   61.6542   33.9314   53.0579 H   0  0  0  0  0  0  0  0  0  0  0  0
   56.0778   28.5689   53.6914 N   0  0  0  0  0  0  0  0  0  0  0  0
   54.6674   28.5283   53.9388 C   0  0  0  0  0  0  0  0  0  0  0  0
   53.9648   27.5691   53.5197 O   0  0  0  0  0  0  0  0  0  0  0  0
   54.0066   29.6896   54.6077 C   0  0  0  0  0  0  0  0  0  0  0  0
   53.0457   30.3442   53.6657 C   0  0  0  0  0  0  0  0  0  0  0  0
   53.3308   30.6257   52.0286 S   0  0  0  0  0  0  0  0  0  0  0  0
   51.7886   31.2496   51.7845 C   0  0  0  0  0  0  0  0  0  0  0  0
   51.3623   31.6749   50.6807 O   0  0  0  0  0  0  0  0  0  0  0  0
   51.0406   31.2434   52.9085 N   0  0  0  0  0  0  0  0  0  0  0  0
   51.7395   30.7316   53.9553 C   0  0  0  0  0  0  0  0  0  0  0  0
   51.1739   30.6072   55.2184 O   0  0  0  0  0  0  0  0  0  0  0  0
  7  8  1  0
  8  9  2  0
  8 10  2  0
  8  1  1  0
  1  2  2  0
  2  3  1  0
  3  4  2  0
  4 12  1  0
 12 13  1  0
 13 14  2  0
 13 15  1  0
 15 16  1  0
 16 17  1  0
 17 18  1  0
 18 19  2  0
 18 20  1  0
 20 21  1  0
 21 22  1  0
  4  5  1  0
  5  6  2  0
  6  1  1  0
 21 16  2  0
  7 11  1  0
M  CHG 1   7  -1
M  CHG 1  12  -1
M  CHG 1  20  -1
M  CHG 1  22  -1
M  END
> <UniqueID>
88

> <SMILES>
[NH-]S(=O)(=O)c1ccc([N-]C(=O)Cc2sc(=O)[n-]c2[O-])cc1

> <Energy>
60.187966286020725

> <Genealogy>
[NH-]S(=O)(=O)c1ccc([N-]C(=O)Cc2sc(=O)[n-]c2[O-])cc1 (protonated)
[NH-]S(=O)(=O)c1ccc([N-]C(=O)Cc2sc(=O)[n-]c2[O-])cc1 (3D coordinates assigned)
[NH-]S(=O)(=O)c1ccc([N-]C(=O)Cc2sc(=O)[n-]c2[O-])cc1 (optimized conformer: 60.187966286020725 kcal/mol)

> <smiles>
NS(=O)(=O)c1ccc(NC(=O)Cc2sc(=O)[nH]c2O)cc1

> <score_type>
oracle

> <origin>
adg

> <m_score__min__energy>
-15

> <m_primary>
energy

> <minimizedAffinity>
-4.50156

> <minimizedRMSD>
2.23542

> <CNNscore>
0.1895765364

> <CNNaffinity>
4.2404665947

> <CNN_VS>
0.8038929701

> <CNNaffinity_variance>
0.1763119102

$$$$
92:0


 26 28  0  0  0  0  0  0  0  0999 V2000
   58.3492   27.2857   45.7012 C   0  0  0  0  0  0  0  0  0  0  0  0
   56.9774   27.2127   45.9510 C   0  0  0  0  0  0  0  0  0  0  0  0
   56.4281   26.0994   46.5762 O   0  0  0  0  0  0  0  0  0  0  0  0
   56.1665   28.2257   45.5658 N   0  0  0  0  0  0  0  0  0  0  0  0
   56.6523   29.3284   44.9412 C   0  0  0  0  0  0  0  0  0  0  0  0
   55.8440   30.2288   44.5853 O   0  0  0  0  0  0  0  0  0  0  0  0
   57.9993   29.4561   44.7072 N   0  0  0  0  0  0  0  0  0  0  0  0
   58.8522   28.4557   45.1038 C   0  0  0  0  0  0  0  0  0  0  0  0
   60.0984   28.5851   44.9409 O   0  0  0  0  0  0  0  0  0  0  0  0
   58.8125   24.8980   46.2909 C   0  0  0  0  0  0  0  0  0  0  0  0
   59.2288   26.1597   46.0878 C   0  0  0  0  0  0  0  0  0  0  0  0
   56.2835   21.4848   42.5101 O   0  0  0  0  0  0  0  0  0  0  0  0
   56.8980   22.3386   43.4237 C   0  0  0  0  0  0  0  0  0  0  0  0
   57.8292   21.8234   44.3309 C   0  0  0  0  0  0  0  0  0  0  0  0
   58.4478   22.6658   45.2583 C   0  0  0  0  0  0  0  0  0  0  0  0
   58.1578   24.0384   45.2766 C   0  0  0  0  0  0  0  0  0  0  0  0
   57.2054   24.5495   44.3732 C   0  0  0  0  0  0  0  0  0  0  0  0
   56.5904   23.7044   43.4450 C   0  0  0  0  0  0  0  0  0  0  0  0
   56.4969   20.5724   42.5047 H   0  0  0  0  0  0  0  0  0  0  0  0
   58.5320   30.6316   43.9879 C   0  0  0  0  0  0  0  0  0  0  0  0
   58.5773   31.8266   44.9047 C   0  0  0  0  0  0  0  0  0  0  0  0
   58.9938   31.6794   46.2383 C   0  0  0  0  0  0  0  0  0  0  0  0
   59.0096   32.7822   47.0976 C   0  0  0  0  0  0  0  0  0  0  0  0
   58.6105   34.0380   46.6342 C   0  0  0  0  0  0  0  0  0  0  0  0
   58.1860   34.1917   45.3116 C   0  0  0  0  0  0  0  0  0  0  0  0
   58.1645   33.0913   44.4489 C   0  0  0  0  0  0  0  0  0  0  0  0
 12 13  1  0
 13 14  2  0
 14 15  1  0
 15 16  2  0
 16 10  1  0
 10 11  2  0
 11  1  1  0
  1  2  2  0
  2  3  1  0
  2  4  1  0
  4  5  1  0
  5  6  2  0
  5  7  1  0
  7 20  1  0
 20 21  1  0
 21 22  2  0
 22 23  1  0
 23 24  2  0
 24 25  1  0
 25 26  2  0
  7  8  1  0
  8  9  2  0
 16 17  1  0
 17 18  2  0
 18 13  1  0
  8  1  1  0
 26 21  1  0
 12 19  1  0
M  CHG 1   3  -1
M  CHG 1   4  -1
M  END
> <UniqueID>
89

> <SMILES>
O=c1[n-]c([O-])c(/C=C\c2ccc(O)cc2)c(=O)n1Cc1ccccc1

> <Energy>
53.52142113732834

> <Genealogy>
O=c1[n-]c([O-])c(C=Cc2ccc(O)cc2)c(=O)n1Cc1ccccc1 (protonated)
O=c1[n-]c([O-])c(/C=C\c2ccc(O)cc2)c(=O)n1Cc1ccccc1 (cis-trans isomerization)
O=c1[n-]c([O-])c(/C=C\c2ccc(O)cc2)c(=O)n1Cc1ccccc1 (3D coordinates assigned)
O=c1[n-]c([O-])c(/C=C\c2ccc(O)cc2)c(=O)n1Cc1ccccc1 (optimized conformer: 53.52142113732834 kcal/mol)

> <smiles>
O=c1[nH]c(O)c(C=Cc2ccc(O)cc2)c(=O)n1Cc1ccccc1

> <score_type>
oracle

> <origin>
adg

> <m_score__min__energy>
-14.23

> <m_primary>
energy

> <minimizedAffinity>
-7.48726

> <minimizedRMSD>
1.04235

> <CNNscore>
0.3799133003

> <CNNaffinity>
5.9213371277

> <CNN_VS>
2.2495946884

> <CNNaffinity_variance>
0.0080836127

$$$$
31:0


 25 27  0  0  0  0  0  0  0  0999 V2000
   58.3076   31.5585   45.6005 C   0  0  0  0  0  0  0  0  0  0  0  0
   58.6555   32.8656   45.2238 C   0  0  0  0  0  0  0  0  0  0  0  0
   59.3308   33.7000   46.1169 C   0  0  0  0  0  0  0  0  0  0  0  0
   59.6816   33.2421   47.3906 C   0  0  0  0  0  0  0  0  0  0  0  0
   59.2803   31.9565   47.7910 C   0  0  0  0  0  0  0  0  0  0  0  0
   58.5962   31.1230   46.9026 C   0  0  0  0  0  0  0  0  0  0  0  0
   57.4494   31.0355   43.4554 O   0  0  0  0  0  0  0  0  0  0  0  0
   57.6572   30.6451   44.6357 C   0  0  0  0  0  0  0  0  0  0  0  0
   57.2836   29.3080   44.9970 N   0  0  0  0  0  0  0  0  0  0  0  0
   58.1772   28.2840   45.4634 C   0  0  0  0  0  0  0  0  0  0  0  0
   59.5730   28.4743   45.4716 C   0  0  0  0  0  0  0  0  0  0  0  0
   60.4195   27.4604   45.9262 C   0  0  0  0  0  0  0  0  0  0  0  0
   59.8833   26.2601   46.3987 C   0  0  0  0  0  0  0  0  0  0  0  0
   58.4976   26.0757   46.4237 C   0  0  0  0  0  0  0  0  0  0  0  0
   57.6456   27.0848   45.9628 C   0  0  0  0  0  0  0  0  0  0  0  0
   56.2689   26.8883   45.9915 O   0  0  0  0  0  0  0  0  0  0  0  0
   60.4479   34.1093   48.2365 N   0  0  0  0  0  0  0  0  0  0  0  0
   61.4984   33.6313   49.5370 S   0  0  0  0  0  0  0  0  0  0  0  0
   62.4581   34.7590   49.7935 O   0  0  0  0  0  0  0  0  0  0  0  0
   60.7178   33.3992   50.8002 O   0  0  0  0  0  0  0  0  0  0  0  0
   62.4260   32.2050   49.1194 N   0  0  0  0  0  0  0  0  0  0  0  0
   62.2660   31.1632   50.1381 C   0  0  0  0  0  0  0  0  0  0  0  0
   63.4610   31.2265   51.0724 C   0  0  0  0  0  0  0  0  0  0  0  0
   64.5403   31.9510   50.2962 C   0  0  0  0  0  0  0  0  0  0  0  0
   63.8636   32.4894   49.0397 C   0  0  0  0  0  0  0  0  0  0  0  0
  7  8  2  0
  8  9  1  0
  9 10  1  0
 10 11  2  0
 11 12  1  0
 12 13  2  0
 13 14  1  0
 14 15  2  0
 15 16  1  0
  8  1  1  0
  1  2  2  0
  2  3  1  0
  3  4  2  0
  4 17  1  0
 17 18  1  0
 18 19  2  0
 18 20  2  0
 18 21  1  0
 21 22  1  0
 22 23  1  0
 23 24  1  0
 24 25  1  0
  4  5  1  0
  5  6  2  0
 15 10  1  0
  6  1  1  0
 25 21  1  0
M  CHG 1   9  -1
M  CHG 1  16  -1
M  CHG 1  17  -1
M  END
> <UniqueID>
28

> <SMILES>
O=C([N-]c1ccccc1[O-])c1ccc([N-]S(=O)(=O)N2CCCC2)cc1

> <Energy>
52.8527217354565

> <Genealogy>
O=C([N-]c1ccccc1[O-])c1ccc([N-]S(=O)(=O)N2CCCC2)cc1 (protonated)
O=C([N-]c1ccccc1[O-])c1ccc([N-]S(=O)(=O)N2CCCC2)cc1 (3D coordinates assigned)
O=C([N-]c1ccccc1[O-])c1ccc([N-]S(=O)(=O)N2CCCC2)cc1 (nonaromatic ring conformer: 52.8527217354565 kcal/mol)

> <smiles>
O=C(Nc1ccccc1O)c1ccc(NS(=O)(=O)N2CCCC2)cc1

> <score_type>
oracle

> <origin>
adg

> <m_score__min__energy>
-15.470000000000001

> <m_primary>
energy

> <minimizedAffinity>
-7.25107

> <minimizedRMSD>
1.84140

> <CNNscore>
0.7528702021

> <CNNaffinity>
6.7372794151

> <CNN_VS>
5.0722970963

> <CNNaffinity_variance>
0.2603436112

$$$$
42:0


 29 31  0  0  0  0  0  0  0  0999 V2000
   58.0983   32.6572   45.7036 C   0  0  0  0  0  0  0  0  0  0  0  0
   58.4167   33.8154   44.9733 C   0  0  0  0  0  0  0  0  0  0  0  0
   59.3565   34.7215   45.4695 C   0  0  0  0  0  0  0  0  0  0  0  0
   59.9751   34.4875   46.6998 C   0  0  0  0  0  0  0  0  0  0  0  0
   59.6534   33.3464   47.4430 C   0  0  0  0  0  0  0  0  0  0  0  0
   58.7056   32.4384   46.9463 C   0  0  0  0  0  0  0  0  0  0  0  0
   60.4115   33.0792   49.0116 S   0  0  0  0  0  0  0  0  0  0  0  0
   61.0904   34.3401   49.4688 O   0  0  0  0  0  0  0  0  0  0  0  0
   59.3364   32.7346   50.0049 O   0  0  0  0  0  0  0  0  0  0  0  0
   61.5597   31.7572   48.9238 N   0  0  0  0  0  0  0  0  0  0  0  0
   62.1782   31.6510   47.5914 C   0  0  0  0  0  0  0  0  0  0  0  0
   63.2166   32.7703   47.3348 C   0  0  0  0  0  0  0  0  0  0  0  0
   63.6711   33.4041   48.5199 O   0  0  0  0  0  0  0  0  0  0  0  0
   63.9019   32.4464   49.5286 C   0  0  0  0  0  0  0  0  0  0  0  0
   62.5695   31.8365   50.0031 C   0  0  0  0  0  0  0  0  0  0  0  0
   57.1221   31.7148   45.2343 N   0  0  0  0  0  0  0  0  0  0  0  0
   57.3784   30.5767   44.3999 C   0  0  0  0  0  0  0  0  0  0  0  0
   56.9572   30.5929   43.2131 O   0  0  0  0  0  0  0  0  0  0  0  0
   57.9886   27.0613   45.6897 C   0  0  0  0  0  0  0  0  0  0  0  0
   59.3740   27.0823   45.8947 C   0  0  0  0  0  0  0  0  0  0  0  0
   60.1061   28.2384   45.6148 C   0  0  0  0  0  0  0  0  0  0  0  0
   59.4616   29.3785   45.1281 C   0  0  0  0  0  0  0  0  0  0  0  0
   58.0736   29.3693   44.9089 C   0  0  0  0  0  0  0  0  0  0  0  0
   57.3407   28.2081   45.2087 C   0  0  0  0  0  0  0  0  0  0  0  0
   55.3786   25.9979   46.1057 N   0  0  0  0  0  0  0  0  0  0  0  0
   57.0619   25.6111   46.0612 S   0  0  0  0  0  0  0  0  0  0  0  0
   57.3081   24.5658   45.0107 O   0  0  0  0  0  0  0  0  0  0  0  0
   57.4860   25.0632   47.3947 O   0  0  0  0  0  0  0  0  0  0  0  0
   54.8422   25.1575   46.3210 H   0  0  0  0  0  0  0  0  0  0  0  0
 25 26  1  0
 26 27  2  0
 26 28  2  0
 26 19  1  0
 19 20  2  0
 20 21  1  0
 21 22  2  0
 22 23  1  0
 23 17  1  0
 17 18  2  0
 17 16  1  0
 16  1  1  0
  1  2  2  0
  2  3  1  0
  3  4  2  0
  4  5  1  0
  5  7  1  0
  7  8  2  0
  7  9  2  0
  7 10  1  0
 10 11  1  0
 11 12  1  0
 12 13  1  0
 13 14  1  0
 14 15  1  0
  5  6  2  0
 23 24  2  0
 24 19  1  0
  6  1  1  0
 15 10  1  0
 25 29  1  0
M  CHG 1  16  -1
M  CHG 1  25  -1
M  END
> <UniqueID>
38

> <SMILES>
[NH-]S(=O)(=O)c1cccc(C(=O)[N-]c2cccc(S(=O)(=O)N3CCOCC3)c2)c1

> <Energy>
63.762709655683395

> <Genealogy>
[NH-]S(=O)(=O)c1cccc(C(=O)[N-]c2cccc(S(=O)(=O)N3CCOCC3)c2)c1 (protonated)
[NH-]S(=O)(=O)c1cccc(C(=O)[N-]c2cccc(S(=O)(=O)N3CCOCC3)c2)c1 (3D coordinates assigned)
[NH-]S(=O)(=O)c1cccc(C(=O)[N-]c2cccc(S(=O)(=O)N3CCOCC3)c2)c1 (nonaromatic ring conformer: 63.762709655683395 kcal/mol)

> <smiles>
NS(=O)(=O)c1cccc(C(=O)Nc2cccc(S(=O)(=O)N3CCOCC3)c2)c1

> <score_type>
oracle

> <origin>
adg

> <m_score__min__energy>
-14.27

> <m_primary>
energy

> <minimizedAffinity>
-9.73665

> <minimizedRMSD>
0.58967

> <CNNscore>
0.9621697664

> <CNNaffinity>
7.3069005013

> <CNN_VS>
7.0304789543

> <CNNaffinity_variance>
0.0724136308

$$$$
58:0


 24 26  0  0  0  0  0  0  0  0999 V2000
   55.3034   30.7557   52.0706 C   0  0  0  0  0  0  0  0  0  0  0  0
   56.6405   30.5209   52.1446 N   0  0  0  0  0  0  0  0  0  0  0  0
   56.9687   29.8021   53.2395 C   0  0  0  0  0  0  0  0  0  0  0  0
   58.2003   29.4605   53.4914 N   0  0  0  0  0  0  0  0  0  0  0  0
   55.6068   29.4207   54.1642 S   0  0  0  0  0  0  0  0  0  0  0  0
   54.5569   30.2042   53.1085 C   0  0  0  0  0  0  0  0  0  0  0  0
   59.3356   29.5391   52.6155 C   0  0  0  0  0  0  0  0  0  0  0  0
   59.9043   28.4686   52.2779 O   0  0  0  0  0  0  0  0  0  0  0  0
   59.7380   30.7900   52.0336 N   0  0  0  0  0  0  0  0  0  0  0  0
   59.8955   31.0889   50.7732 C   0  0  0  0  0  0  0  0  0  0  0  0
   61.0872   30.7028   50.1450 C   0  0  0  0  0  0  0  0  0  0  0  0
   61.2906   31.0039   48.7991 C   0  0  0  0  0  0  0  0  0  0  0  0
   60.3030   31.6760   48.0828 C   0  0  0  0  0  0  0  0  0  0  0  0
   59.1165   32.0295   48.7261 C   0  0  0  0  0  0  0  0  0  0  0  0
   58.9283   31.7303   50.0412 N   0  0  0  0  0  0  0  0  0  0  0  0
   58.0807   31.9793   50.4757 H   0  0  0  0  0  0  0  0  0  0  0  0
   53.0864   30.3690   53.3153 C   0  0  0  0  0  0  0  0  0  0  0  0
   52.3926   30.4667   51.9926 C   0  0  0  0  0  0  0  0  0  0  0  0
   52.5295   29.3477   50.7411 S   0  0  0  0  0  0  0  0  0  0  0  0
   51.5712   30.2641   49.7075 C   0  0  0  0  0  0  0  0  0  0  0  0
   51.2746   29.9291   48.5325 O   0  0  0  0  0  0  0  0  0  0  0  0
   51.1498   31.4158   50.2723 N   0  0  0  0  0  0  0  0  0  0  0  0
   51.6134   31.5322   51.5439 C   0  0  0  0  0  0  0  0  0  0  0  0
   51.3268   32.6437   52.3265 O   0  0  0  0  0  0  0  0  0  0  0  0
  1  2  1  0
  2  3  1  0
  3  4  2  0
  4  7  1  0
  7  8  2  0
  7  9  1  0
  9 10  2  0
 10 11  1  0
 11 12  2  0
 12 13  1  0
 13 14  2  0
 14 15  1  0
  3  5  1  0
  5  6  1  0
  6 17  1  0
 17 18  1  0
 18 19  1  0
 19 20  1  0
 20 21  2  0
 20 22  1  0
 22 23  1  0
 23 24  1  0
  6  1  2  0
 23 18  2  0
 15 10  1  0
 15 16  1  0
M  CHG 1   2  -1
M  CHG 1  22  -1
M  CHG 1  24  -1
M  END
> <UniqueID>
53

> <SMILES>
O=C(/N=c1/cccc[nH]1)/N=c1/[n-]cc(Cc2sc(=O)[n-]c2[O-])s1

> <Energy>
103.13354753847354

> <Genealogy>
O=C(N=c1cccc[nH]1)N=c1[n-]cc(Cc2sc(=O)[n-]c2[O-])s1 (protonated)
O=C(/N=c1/cccc[nH]1)/N=c1/[n-]cc(Cc2sc(=O)[n-]c2[O-])s1 (cis-trans isomerization)
O=C(/N=c1/cccc[nH]1)/N=c1/[n-]cc(Cc2sc(=O)[n-]c2[O-])s1 (3D coordinates assigned)
O=C(/N=c1/cccc[nH]1)/N=c1/[n-]cc(Cc2sc(=O)[n-]c2[O-])s1 (optimized conformer: 103.13354753847354 kcal/mol)

> <smiles>
O=C(N=c1cccc[nH]1)N=c1[nH]cc(Cc2sc(=O)[nH]c2O)s1

> <score_type>
oracle

> <origin>
adg

> <m_score__min__energy>
-15.52

> <m_primary>
energy

> <minimizedAffinity>
-3.44034

> <minimizedRMSD>
0.94499

> <CNNscore>
0.0844740570

> <CNNaffinity>
4.8449883461

> <CNN_VS>
0.4092758298

> <CNNaffinity_variance>
0.0592757948

$$$$
11:0


 28 30  0  0  0  0  0  0  0  0999 V2000
   58.8528   27.5946   46.0690 C   0  0  0  0  0  0  0  0  0  0  0  0
   57.6327   28.0977   45.6059 C   0  0  0  0  0  0  0  0  0  0  0  0
   56.6379   27.2403   45.1474 O   0  0  0  0  0  0  0  0  0  0  0  0
   57.4044   29.4312   45.6108 N   0  0  0  0  0  0  0  0  0  0  0  0
   58.3364   30.3126   46.0493 C   0  0  0  0  0  0  0  0  0  0  0  0
   58.0612   31.5420   46.0363 O   0  0  0  0  0  0  0  0  0  0  0  0
   59.5566   29.8685   46.4945 N   0  0  0  0  0  0  0  0  0  0  0  0
   59.8303   28.5207   46.4918 C   0  0  0  0  0  0  0  0  0  0  0  0
   60.9686   28.1063   46.8467 O   0  0  0  0  0  0  0  0  0  0  0  0
   58.5563   25.2979   46.9522 C   0  0  0  0  0  0  0  0  0  0  0  0
   59.0910   26.1305   46.0465 C   0  0  0  0  0  0  0  0  0  0  0  0
   57.4349   24.3710   46.6626 C   0  0  0  0  0  0  0  0  0  0  0  0
   56.5784   24.0085   47.7127 C   0  0  0  0  0  0  0  0  0  0  0  0
   55.5059   23.1432   47.4877 C   0  0  0  0  0  0  0  0  0  0  0  0
   55.2661   22.6386   46.2085 C   0  0  0  0  0  0  0  0  0  0  0  0
   54.1948   21.7771   46.0013 O   0  0  0  0  0  0  0  0  0  0  0  0
   56.0952   22.9998   45.1377 C   0  0  0  0  0  0  0  0  0  0  0  0
   57.1777   23.8725   45.3681 C   0  0  0  0  0  0  0  0  0  0  0  0
   55.8095   22.4763   43.8666 O   0  0  0  0  0  0  0  0  0  0  0  0
   56.7576   21.8191   43.0326 C   0  0  0  0  0  0  0  0  0  0  0  0
   60.5900   30.8319   46.9280 C   0  0  0  0  0  0  0  0  0  0  0  0
   60.3438   31.2664   48.3502 C   0  0  0  0  0  0  0  0  0  0  0  0
   59.8629   32.5595   48.6219 C   0  0  0  0  0  0  0  0  0  0  0  0
   59.6609   32.9735   49.9425 C   0  0  0  0  0  0  0  0  0  0  0  0
   59.9409   32.1046   51.0003 C   0  0  0  0  0  0  0  0  0  0  0  0
   59.7453   32.5085   52.2794 F   0  0  0  0  0  0  0  0  0  0  0  0
   60.4218   30.8188   50.7380 C   0  0  0  0  0  0  0  0  0  0  0  0
   60.6246   30.3996   49.4202 C   0  0  0  0  0  0  0  0  0  0  0  0
 10 11  2  0
 11  1  1  0
  1  2  2  0
  2  3  1  0
  2  4  1  0
  4  5  1  0
  5  6  2  0
  5  7  1  0
  7 21  1  0
 21 22  1  0
 22 23  2  0
 23 24  1  0
 24 25  2  0
 25 26  1  0
 25 27  1  0
 27 28  2  0
  7  8  1  0
  8  9  2  0
 10 12  1  0
 12 13  2  0
 13 14  1  0
 14 15  2  0
 15 16  1  0
 15 17  1  0
 17 19  1  0
 19 20  1  0
 17 18  2  0
  8  1  1  0
 18 12  1  0
 28 22  1  0
M  CHG 1   3  -1
M  CHG 1   4  -1
M  CHG 1  16  -1
M  END
> <UniqueID>
11

> <SMILES>
COc1cc(/C=C/c2c([O-])[n-]c(=O)n(Cc3ccc(F)cc3)c2=O)ccc1[O-]

> <Energy>
56.79193916981027

> <Genealogy>
COc1cc(C=Cc2c([O-])[n-]c(=O)n(Cc3ccc(F)cc3)c2=O)ccc1[O-] (protonated)
COc1cc(/C=C/c2c([O-])[n-]c(=O)n(Cc3ccc(F)cc3)c2=O)ccc1[O-] (cis-trans isomerization)
COc1cc(/C=C/c2c([O-])[n-]c(=O)n(Cc3ccc(F)cc3)c2=O)ccc1[O-] (3D coordinates assigned)
COc1cc(/C=C/c2c([O-])[n-]c(=O)n(Cc3ccc(F)cc3)c2=O)ccc1[O-] (optimized conformer: 56.79193916981027 kcal/mol)

> <smiles>
COc1cc(C=Cc2c(O)[nH]c(=O)n(Cc3ccc(F)cc3)c2=O)ccc1O

> <score_type>
oracle

> <origin>
adg

> <m_score__min__energy>
-14.9

> <m_primary>
energy

> <minimizedAffinity>
-6.45950

> <minimizedRMSD>
2.46927

> <CNNscore>
0.1403146237

> <CNNaffinity>
6.1699633598

> <CNN_VS>
0.8657360673

> <CNNaffinity_variance>
0.3229716718

$$$$
16:0


 33 35  0  0  0  0  0  0  0  0999 V2000
   60.4684   28.1048   49.1615 C   0  0  0  0  0  0  0  0  0  0  0  0
   60.8500   28.0120   50.3592 O   0  0  0  0  0  0  0  0  0  0  0  0
   60.6850   27.0234   48.2529 N   0  0  0  0  0  0  0  0  0  0  0  0
   60.3866   27.0951   46.8283 C   0  0  0  0  0  0  0  0  0  0  0  0
   56.5703   25.2095   46.0703 C   0  0  0  0  0  0  0  0  0  0  0  0
   57.7126   24.4284   46.3421 C   0  0  0  0  0  0  0  0  0  0  0  0
   57.6474   23.0788   46.4389 F   0  0  0  0  0  0  0  0  0  0  0  0
   58.9455   25.0468   46.5760 C   0  0  0  0  0  0  0  0  0  0  0  0
   59.0611   26.4435   46.5440 C   0  0  0  0  0  0  0  0  0  0  0  0
   57.9216   27.2204   46.2991 C   0  0  0  0  0  0  0  0  0  0  0  0
   56.6852   26.6072   46.0699 C   0  0  0  0  0  0  0  0  0  0  0  0
   55.5953   27.3787   45.8284 F   0  0  0  0  0  0  0  0  0  0  0  0
   55.2735   24.6401   45.8264 N   0  0  0  0  0  0  0  0  0  0  0  0
   56.0363   23.3109   43.3813 C   0  0  0  0  0  0  0  0  0  0  0  0
   54.8983   23.3295   44.7525 S   0  0  0  0  0  0  0  0  0  0  0  0
   54.9342   22.0183   45.4869 O   0  0  0  0  0  0  0  0  0  0  0  0
   53.5123   23.5380   44.2104 O   0  0  0  0  0  0  0  0  0  0  0  0
   59.7573   29.2623   48.7071 N   0  0  0  0  0  0  0  0  0  0  0  0
   60.3266   30.4739   48.1890 C   0  0  0  0  0  0  0  0  0  0  0  0
   61.6977   30.7681   48.3048 C   0  0  0  0  0  0  0  0  0  0  0  0
   62.2002   31.9775   47.8124 C   0  0  0  0  0  0  0  0  0  0  0  0
   61.3506   32.8842   47.1748 C   0  0  0  0  0  0  0  0  0  0  0  0
   59.9944   32.5749   47.0036 C   0  0  0  0  0  0  0  0  0  0  0  0
   59.4875   31.3712   47.5141 C   0  0  0  0  0  0  0  0  0  0  0  0
   58.9285   33.6994   46.1637 S   0  0  0  0  0  0  0  0  0  0  0  0
   59.5739   34.1122   44.8717 O   0  0  0  0  0  0  0  0  0  0  0  0
   58.6903   34.9196   47.0069 O   0  0  0  0  0  0  0  0  0  0  0  0
   57.4035   32.9471   45.8206 N   0  0  0  0  0  0  0  0  0  0  0  0
   57.2559   32.0179   44.9292 C   0  0  0  0  0  0  0  0  0  0  0  0
   56.7011   30.8116   45.1815 N   0  0  0  0  0  0  0  0  0  0  0  0
   56.6915   30.0305   44.0690 C   0  0  0  0  0  0  0  0  0  0  0  0
   57.2396   30.6154   42.9319 C   0  0  0  0  0  0  0  0  0  0  0  0
   57.7529   32.1677   43.3337 S   0  0  0  0  0  0  0  0  0  0  0  0
 14 15  1  0
 15 16  2  0
 15 17  2  0
 15 13  1  0
 13  5  1  0
  5  6  2  0
  6  7  1  0
  6  8  1  0
  8  9  2  0
  9  4  1  0
  4  3  1  0
  3  1  1  0
  1  2  2  0
  1 18  1  0
 18 19  1  0
 19 20  2  0
 20 21  1  0
 21 22  2  0
 22 23  1  0
 23 25  1  0
 25 26  2  0
 25 27  2  0
 25 28  1  0
 28 29  2  0
 29 30  1  0
 30 31  1  0
 31 32  2  0
 32 33  1  0
 23 24  2  0
  9 10  1  0
 10 11  2  0
 11 12  1  0
 11  5  1  0
 24 19  1  0
 33 29  1  0
M  CHG 1   3  -1
M  CHG 1  13  -1
M  CHG 1  18  -1
M  CHG 1  30  -1
M  END
> <UniqueID>
16

> <SMILES>
CS(=O)(=O)[N-]c1c(F)cc(C[N-]C(=O)[N-]c2cccc(S(=O)(=O)N=c3[n-]ccs3)c2)cc1F

> <Energy>
84.51203694614591

> <Genealogy>
CS(=O)(=O)[N-]c1c(F)cc(C[N-]C(=O)[N-]c2cccc(S(=O)(=O)N=c3[n-]ccs3)c2)cc1F (protonated)
CS(=O)(=O)[N-]c1c(F)cc(C[N-]C(=O)[N-]c2cccc(S(=O)(=O)N=c3[n-]ccs3)c2)cc1F (3D coordinates assigned)
CS(=O)(=O)[N-]c1c(F)cc(C[N-]C(=O)[N-]c2cccc(S(=O)(=O)N=c3[n-]ccs3)c2)cc1F (optimized conformer: 84.51203694614591 kcal/mol)

> <smiles>
CS(=O)(=O)Nc1c(F)cc(CNC(=O)Nc2cccc(S(=O)(=O)N=c3[nH]ccs3)c2)cc1F

> <score_type>
oracle

> <origin>
adg

> <m_score__min__energy>
-14.93

> <m_primary>
energy

> <minimizedAffinity>
-6.52309

> <minimizedRMSD>
0.99657

> <CNNscore>
0.3123205304

> <CNNaffinity>
6.7735695839

> <CNN_VS>
2.1155247688

> <CNNaffinity_variance>
0.0455151014

$$$$
31:0


 26 28  0  0  0  0  0  0  0  0999 V2000
   59.6553   29.0840   48.4624 C   0  0  0  0  0  0  0  0  0  0  0  0
   60.4836   28.7094   49.5250 C   0  0  0  0  0  0  0  0  0  0  0  0
   61.1199   29.6801   50.3009 C   0  0  0  0  0  0  0  0  0  0  0  0
   60.9277   31.0347   50.0271 C   0  0  0  0  0  0  0  0  0  0  0  0
   60.0905   31.4337   48.9714 C   0  0  0  0  0  0  0  0  0  0  0  0
   59.4399   30.4501   48.2040 C   0  0  0  0  0  0  0  0  0  0  0  0
   59.8456   32.8715   48.6954 C   0  0  0  0  0  0  0  0  0  0  0  0
   60.1040   33.7162   49.5970 O   0  0  0  0  0  0  0  0  0  0  0  0
   59.3095   33.3503   47.3983 C   0  0  0  0  0  0  0  0  0  0  0  0
   60.1327   34.0837   46.5250 C   0  0  0  0  0  0  0  0  0  0  0  0
   59.6315   34.5538   45.3071 C   0  0  0  0  0  0  0  0  0  0  0  0
   58.3023   34.3085   44.9542 C   0  0  0  0  0  0  0  0  0  0  0  0
   57.4708   33.5963   45.8220 C   0  0  0  0  0  0  0  0  0  0  0  0
   57.9677   33.1236   47.0399 C   0  0  0  0  0  0  0  0  0  0  0  0
   59.0012   28.0544   47.7059 N   0  0  0  0  0  0  0  0  0  0  0  0
   59.9463   28.1407   45.5623 O   0  0  0  0  0  0  0  0  0  0  0  0
   58.9231   27.9651   46.2772 C   0  0  0  0  0  0  0  0  0  0  0  0
   57.6387   27.5490   45.6382 C   0  0  0  0  0  0  0  0  0  0  0  0
   57.2942   26.1496   46.0413 C   0  0  0  0  0  0  0  0  0  0  0  0
   56.0501   25.7354   46.3399 N   0  0  0  0  0  0  0  0  0  0  0  0
   56.2322   24.4474   46.7052 C   0  0  0  0  0  0  0  0  0  0  0  0
   55.2815   23.7012   47.0572 O   0  0  0  0  0  0  0  0  0  0  0  0
   57.5128   24.0217   46.6682 N   0  0  0  0  0  0  0  0  0  0  0  0
   58.1738   25.1161   46.2516 C   0  0  0  0  0  0  0  0  0  0  0  0
   59.5513   25.1726   46.0722 O   0  0  0  0  0  0  0  0  0  0  0  0
   60.0771   24.4154   46.2403 H   0  0  0  0  0  0  0  0  0  0  0  0
 16 17  2  0
 17 18  1  0
 18 19  1  0
 19 20  1  0
 20 21  1  0
 21 22  2  0
 21 23  1  0
 23 24  1  0
 24 25  1  0
 17 15  1  0
 15  1  1  0
  1  2  2  0
  2  3  1  0
  3  4  2  0
  4  5  1  0
  5  7  1  0
  7  8  2  0
  7  9  1  0
  9 10  2  0
 10 11  1  0
 11 12  2  0
 12 13  1  0
 13 14  2  0
  5  6  2  0
 24 19  2  0
  6  1  1  0
 14  9  1  0
 25 26  1  0
M  CHG 1  15  -1
M  CHG 1  20  -1
M  CHG 1  23  -1
M  END
> <UniqueID>
31

> <SMILES>
O=C(Cc1[n-]c(=O)[n-]c1O)[N-]c1cccc(C(=O)c2ccccc2)c1

> <Energy>
75.51948383170999

> <Genealogy>
O=C(Cc1[n-]c(=O)[n-]c1O)[N-]c1cccc(C(=O)c2ccccc2)c1 (protonated)
O=C(Cc1[n-]c(=O)[n-]c1O)[N-]c1cccc(C(=O)c2ccccc2)c1 (3D coordinates assigned)
O=C(Cc1[n-]c(=O)[n-]c1O)[N-]c1cccc(C(=O)c2ccccc2)c1 (optimized conformer: 75.51948383170999 kcal/mol)

> <smiles>
O=C(Cc1[nH]c(=O)[nH]c1O)Nc1cccc(C(=O)c2ccccc2)c1

> <score_type>
oracle

> <origin>
adg

> <m_score__min__energy>
-14.69

> <m_primary>
energy

> <minimizedAffinity>
-7.52085

> <minimizedRMSD>
1.58753

> <CNNscore>
0.4271912277

> <CNNaffinity>
6.2858948708

> <CNN_VS>
2.6852791309

> <CNNaffinity_variance>
0.1730118245

$$$$
39:0


 24 25  0  0  0  0  0  0  0  0999 V2000
   60.0083   31.4273   46.9371 C   0  0  0  0  0  0  0  0  0  0  0  0
   60.4116   30.1207   46.6208 C   0  0  0  0  0  0  0  0  0  0  0  0
   59.6841   29.3429   45.7061 C   0  0  0  0  0  0  0  0  0  0  0  0
   58.5773   29.9021   45.0590 C   0  0  0  0  0  0  0  0  0  0  0  0
   58.1559   31.1925   45.3766 C   0  0  0  0  0  0  0  0  0  0  0  0
   58.8477   31.9516   46.3271 C   0  0  0  0  0  0  0  0  0  0  0  0
   58.3484   33.2012   46.6642 O   0  0  0  0  0  0  0  0  0  0  0  0
   60.0890   27.9585   45.3839 C   0  0  0  0  0  0  0  0  0  0  0  0
   59.8099   26.8788   46.1341 C   0  0  0  0  0  0  0  0  0  0  0  0
   58.4528   26.4171   46.5090 C   0  0  0  0  0  0  0  0  0  0  0  0
   57.8186   27.0823   47.3712 O   0  0  0  0  0  0  0  0  0  0  0  0
   57.8243   25.2004   45.9389 C   0  0  0  0  0  0  0  0  0  0  0  0
   58.6433   24.1361   45.5242 C   0  0  0  0  0  0  0  0  0  0  0  0
   58.0769   22.9552   45.0368 C   0  0  0  0  0  0  0  0  0  0  0  0
   56.6883   22.8314   44.9416 C   0  0  0  0  0  0  0  0  0  0  0  0
   56.1276   21.6545   44.4632 O   0  0  0  0  0  0  0  0  0  0  0  0
   55.8658   23.8936   45.3225 C   0  0  0  0  0  0  0  0  0  0  0  0
   56.4249   25.0800   45.8100 C   0  0  0  0  0  0  0  0  0  0  0  0
   55.5823   26.1330   46.1519 O   0  0  0  0  0  0  0  0  0  0  0  0
   60.7846   32.1448   47.9078 N   0  0  0  0  0  0  0  0  0  0  0  0
   58.9272   31.5441   50.0366 C   0  0  0  0  0  0  0  0  0  0  0  0
   60.3420   32.5090   49.5453 S   0  0  0  0  0  0  0  0  0  0  0  0
   59.9652   33.9606   49.6239 O   0  0  0  0  0  0  0  0  0  0  0  0
   61.5016   32.2607   50.4675 O   0  0  0  0  0  0  0  0  0  0  0  0
 21 22  1  0
 22 23  2  0
 22 24  2  0
 22 20  1  0
 20  1  1  0
  1  2  2  0
  2  3  1  0
  3  8  1  0
  8  9  2  0
  9 10  1  0
 10 11  2  0
 10 12  1  0
 12 13  2  0
 13 14  1  0
 14 15  2  0
 15 16  1  0
 15 17  1  0
 17 18  2  0
 18 19  1  0
  3  4  2  0
  4  5  1  0
  5  6  2  0
  6  7  1  0
  6  1  1  0
 18 12  1  0
M  CHG 1   7  -1
M  CHG 1  16  -1
M  CHG 1  19  -1
M  CHG 1  20  -1
M  END
> <UniqueID>
39

> <SMILES>
CS(=O)(=O)[N-]c1cc(C=CC(=O)c2ccc([O-])cc2[O-])ccc1[O-]

> <Energy>
50.05494177917569

> <Genealogy>
CS(=O)(=O)[N-]c1cc(C=CC(=O)c2ccc([O-])cc2[O-])ccc1[O-] (protonated)
CS(=O)(=O)[N-]c1cc(C=CC(=O)c2ccc([O-])cc2[O-])ccc1[O-] (3D coordinates assigned)
CS(=O)(=O)[N-]c1cc(C=CC(=O)c2ccc([O-])cc2[O-])ccc1[O-] (optimized conformer: 50.05494177917569 kcal/mol)

> <smiles>
CS(=O)(=O)Nc1cc(C=CC(=O)c2ccc(O)cc2O)ccc1O

> <score_type>
oracle

> <origin>
adg

> <m_score__min__energy>
-15.18

> <m_primary>
energy

> <minimizedAffinity>
-7.46598

> <minimizedRMSD>
2.69792

> <CNNscore>
0.1506936103

> <CNNaffinity>
5.5550122261

> <CNN_VS>
0.8371048570

> <CNNaffinity_variance>
0.0642575696

$$$$
77:0


 31 33  0  0  0  0  0  0  0  0999 V2000
   59.7177   33.0909   47.4560 C   0  0  0  0  0  0  0  0  0  0  0  0
   60.2385   34.1830   46.7517 C   0  0  0  0  0  0  0  0  0  0  0  0
   59.6911   34.5469   45.5191 C   0  0  0  0  0  0  0  0  0  0  0  0
   58.6252   33.8204   44.9805 C   0  0  0  0  0  0  0  0  0  0  0  0
   58.1092   32.7066   45.6665 C   0  0  0  0  0  0  0  0  0  0  0  0
   58.6547   32.3572   46.9099 C   0  0  0  0  0  0  0  0  0  0  0  0
   60.3826   32.6522   49.0319 S   0  0  0  0  0  0  0  0  0  0  0  0
   61.4159   31.5751   48.8463 O   0  0  0  0  0  0  0  0  0  0  0  0
   61.0656   33.8498   49.6314 O   0  0  0  0  0  0  0  0  0  0  0  0
   56.3577   30.7570   52.7868 C   0  0  0  0  0  0  0  0  0  0  0  0
   57.3367   31.2517   51.8066 N   0  0  0  0  0  0  0  0  0  0  0  0
   58.2298   30.1555   51.3770 C   0  0  0  0  0  0  0  0  0  0  0  0
   59.3517   30.6727   50.4528 C   0  0  0  0  0  0  0  0  0  0  0  0
   59.1417   32.0917   50.1261 N   0  0  0  0  0  0  0  0  0  0  0  0
   59.1413   32.9031   51.3560 C   0  0  0  0  0  0  0  0  0  0  0  0
   58.1222   32.3603   52.3809 C   0  0  0  0  0  0  0  0  0  0  0  0
   56.9899   31.9565   45.1745 N   0  0  0  0  0  0  0  0  0  0  0  0
   57.0077   30.6184   44.6631 C   0  0  0  0  0  0  0  0  0  0  0  0
   55.9429   30.0634   44.2815 O   0  0  0  0  0  0  0  0  0  0  0  0
   58.2557   29.9198   44.6040 N   0  0  0  0  0  0  0  0  0  0  0  0
   58.5638   28.6804   45.2547 C   0  0  0  0  0  0  0  0  0  0  0  0
   59.8313   28.4281   45.8083 C   0  0  0  0  0  0  0  0  0  0  0  0
   60.0869   27.2138   46.4519 C   0  0  0  0  0  0  0  0  0  0  0  0
   59.0816   26.2512   46.5625 C   0  0  0  0  0  0  0  0  0  0  0  0
   57.8047   26.5053   46.0442 C   0  0  0  0  0  0  0  0  0  0  0  0
   57.5504   27.7214   45.3946 C   0  0  0  0  0  0  0  0  0  0  0  0
   56.5397   25.2870   46.1665 S   0  0  0  0  0  0  0  0  0  0  0  0
   54.9912   26.0230   45.9437 N   0  0  0  0  0  0  0  0  0  0  0  0
   56.5783   24.6469   47.5275 O   0  0  0  0  0  0  0  0  0  0  0  0
   56.7549   24.2375   45.1125 O   0  0  0  0  0  0  0  0  0  0  0  0
   54.8469   26.7349   46.6598 H   0  0  0  0  0  0  0  0  0  0  0  0
 10 11  1  0
 11 12  1  0
 12 13  1  0
 13 14  1  0
 14  7  1  0
  7  8  2  0
  7  9  2  0
  7  1  1  0
  1  2  2  0
  2  3  1  0
  3  4  2  0
  4  5  1  0
  5 17  1  0
 17 18  1  0
 18 19  2  0
 18 20  1  0
 20 21  1  0
 21 22  2  0
 22 23  1  0
 23 24  2  0
 24 25  1  0
 25 27  1  0
 27 28  1  0
 27 29  2  0
 27 30  2  0
 25 26  2  0
  5  6  2  0
 14 15  1  0
 15 16  1  0
 16 11  1  0
  6  1  1  0
 26 21  1  0
 28 31  1  0
M  CHG 1  17  -1
M  CHG 1  20  -1
M  CHG 1  28  -1
M  END
> <UniqueID>
74

> <SMILES>
CN1CCN(S(=O)(=O)c2cccc([N-]C(=O)[N-]c3cccc(S([NH-])(=O)=O)c3)c2)CC1

> <Energy>
63.58604411339492

> <Genealogy>
CN1CCN(S(=O)(=O)c2cccc([N-]C(=O)[N-]c3cccc(S([NH-])(=O)=O)c3)c2)CC1 (protonated)
CN1CCN(S(=O)(=O)c2cccc([N-]C(=O)[N-]c3cccc(S([NH-])(=O)=O)c3)c2)CC1 (3D coordinates assigned)
CN1CCN(S(=O)(=O)c2cccc([N-]C(=O)[N-]c3cccc(S([NH-])(=O)=O)c3)c2)CC1 (nonaromatic ring conformer: 63.58604411339492 kcal/mol)

> <smiles>
CN1CCN(S(=O)(=O)c2cccc(NC(=O)Nc3cccc(S(N)(=O)=O)c3)c2)CC1

> <score_type>
oracle

> <origin>
adg

> <m_score__min__energy>
-15.300000000000001

> <m_primary>
energy

> <minimizedAffinity>
-9.40753

> <minimizedRMSD>
0.54553

> <CNNscore>
0.9213621020

> <CNNaffinity>
7.6038417816

> <CNN_VS>
7.0058917999

> <CNNaffinity_variance>
0.0820310712

$$$$
81:0


 23 24  0  0  0  0  0  0  0  0999 V2000
   59.5297   29.1977   45.9369 C   0  0  0  0  0  0  0  0  0  0  0  0
   59.3422   28.3367   46.9505 C   0  0  0  0  0  0  0  0  0  0  0  0
   57.9387   30.9967   45.1699 C   0  0  0  0  0  0  0  0  0  0  0  0
   57.5007   32.3289   45.2291 C   0  0  0  0  0  0  0  0  0  0  0  0
   58.1680   33.2623   46.0250 C   0  0  0  0  0  0  0  0  0  0  0  0
   59.2765   32.8735   46.7782 C   0  0  0  0  0  0  0  0  0  0  0  0
   59.7208   31.5509   46.7354 C   0  0  0  0  0  0  0  0  0  0  0  0
   59.0709   30.6042   45.9223 C   0  0  0  0  0  0  0  0  0  0  0  0
   55.5608   29.4439   44.8757 N   0  0  0  0  0  0  0  0  0  0  0  0
   57.0717   29.8479   44.1402 S   0  0  0  0  0  0  0  0  0  0  0  0
   56.8126   30.4517   42.7884 O   0  0  0  0  0  0  0  0  0  0  0  0
   57.8979   28.6054   43.9606 O   0  0  0  0  0  0  0  0  0  0  0  0
   55.0603   28.7818   44.2828 H   0  0  0  0  0  0  0  0  0  0  0  0
   59.4089   26.8595   46.8507 C   0  0  0  0  0  0  0  0  0  0  0  0
   60.4584   26.2882   46.4529 O   0  0  0  0  0  0  0  0  0  0  0  0
   58.2227   26.0743   47.0267 N   0  0  0  0  0  0  0  0  0  0  0  0
   57.7446   25.1295   46.2624 C   0  0  0  0  0  0  0  0  0  0  0  0
   58.5720   24.0972   45.9437 N   0  0  0  0  0  0  0  0  0  0  0  0
   58.1853   23.0657   45.1483 C   0  0  0  0  0  0  0  0  0  0  0  0
   56.8948   23.0346   44.6249 C   0  0  0  0  0  0  0  0  0  0  0  0
   56.0048   24.0577   44.9478 C   0  0  0  0  0  0  0  0  0  0  0  0
   56.4094   25.1044   45.7816 C   0  0  0  0  0  0  0  0  0  0  0  0
   55.4659   26.0583   46.1469 O   0  0  0  0  0  0  0  0  0  0  0  0
  9 10  1  0
 10 11  2  0
 10 12  2  0
 10  3  1  0
  3  4  2  0
  4  5  1  0
  5  6  2  0
  6  7  1  0
  7  8  2  0
  8  1  1  0
  1  2  2  0
  2 14  1  0
 14 15  2  0
 14 16  1  0
 16 17  2  0
 17 18  1  0
 18 19  1  0
 19 20  2  0
 20 21  1  0
 21 22  2  0
 22 23  1  0
  8  3  1  0
 22 17  1  0
  9 13  1  0
M  CHG 1   9  -1
M  CHG 1  18  -1
M  CHG 1  23  -1
M  END
> <UniqueID>
77

> <SMILES>
[NH-]S(=O)(=O)c1ccccc1/C=C\C(=O)N=c1[n-]cccc1[O-]

> <Energy>
55.04606071844265

> <Genealogy>
[NH-]S(=O)(=O)c1ccccc1C=CC(=O)N=c1[n-]cccc1[O-] (protonated)
[NH-]S(=O)(=O)c1ccccc1/C=C\C(=O)N=c1[n-]cccc1[O-] (cis-trans isomerization)
[NH-]S(=O)(=O)c1ccccc1/C=C\C(=O)N=c1[n-]cccc1[O-] (3D coordinates assigned)
[NH-]S(=O)(=O)c1ccccc1/C=C\C(=O)N=c1[n-]cccc1[O-] (optimized conformer: 55.04606071844265 kcal/mol)

> <smiles>
NS(=O)(=O)c1ccccc1C=CC(=O)N=c1[nH]cccc1O

> <score_type>
oracle

> <origin>
adg

> <m_score__min__energy>
-15.32

> <m_primary>
energy

> <minimizedAffinity>
-8.43554

> <minimizedRMSD>
0.81501

> <CNNscore>
0.7478030920

> <CNNaffinity>
6.5383725166

> <CNN_VS>
4.8894152641

> <CNNaffinity_variance>
0.1200145707

$$$$
83:0


 30 32  0  0  0  0  0  0  0  0999 V2000
   58.4121   32.9278   46.3700 C   0  0  0  0  0  0  0  0  0  0  0  0
   57.3682   33.2563   46.9916 O   0  0  0  0  0  0  0  0  0  0  0  0
   59.5140   32.2826   47.1085 C   0  0  0  0  0  0  0  0  0  0  0  0
   59.2491   31.1406   47.8695 C   0  0  0  0  0  0  0  0  0  0  0  0
   60.2626   30.5581   48.6207 C   0  0  0  0  0  0  0  0  0  0  0  0
   61.5397   31.1144   48.6031 C   0  0  0  0  0  0  0  0  0  0  0  0
   61.8095   32.2254   47.8485 N   0  0  0  0  0  0  0  0  0  0  0  0
   60.8211   32.8055   47.0898 C   0  0  0  0  0  0  0  0  0  0  0  0
   61.0794   33.8070   46.3660 O   0  0  0  0  0  0  0  0  0  0  0  0
   63.1818   32.7570   47.8336 C   0  0  0  0  0  0  0  0  0  0  0  0
   63.6220   33.1033   49.2312 C   0  0  0  0  0  0  0  0  0  0  0  0
   62.8336   33.9495   50.0300 C   0  0  0  0  0  0  0  0  0  0  0  0
   63.2227   34.2447   51.3401 C   0  0  0  0  0  0  0  0  0  0  0  0
   64.3970   33.6956   51.8639 C   0  0  0  0  0  0  0  0  0  0  0  0
   64.7810   33.9908   53.1658 O   0  0  0  0  0  0  0  0  0  0  0  0
   65.1827   32.8490   51.0773 C   0  0  0  0  0  0  0  0  0  0  0  0
   64.7976   32.5494   49.7679 C   0  0  0  0  0  0  0  0  0  0  0  0
   58.5225   33.2456   44.9757 N   0  0  0  0  0  0  0  0  0  0  0  0
   58.0369   32.4181   43.8710 C   0  0  0  0  0  0  0  0  0  0  0  0
   57.5638   28.3422   45.2174 C   0  0  0  0  0  0  0  0  0  0  0  0
   56.4364   29.1194   44.9155 C   0  0  0  0  0  0  0  0  0  0  0  0
   56.5882   30.4284   44.4519 C   0  0  0  0  0  0  0  0  0  0  0  0
   57.8707   30.9837   44.2994 C   0  0  0  0  0  0  0  0  0  0  0  0
   58.9968   30.1981   44.5869 C   0  0  0  0  0  0  0  0  0  0  0  0
   58.8437   28.8866   45.0451 C   0  0  0  0  0  0  0  0  0  0  0  0
   55.7303   26.2968   46.0652 N   0  0  0  0  0  0  0  0  0  0  0  0
   57.3944   26.6966   45.8223 S   0  0  0  0  0  0  0  0  0  0  0  0
   57.9888   25.7396   44.8275 O   0  0  0  0  0  0  0  0  0  0  0  0
   58.1191   26.5757   47.1321 O   0  0  0  0  0  0  0  0  0  0  0  0
   55.6576   25.3414   46.4149 H   0  0  0  0  0  0  0  0  0  0  0  0
 26 27  1  0
 27 28  2  0
 27 29  2  0
 27 20  1  0
 20 21  2  0
 21 22  1  0
 22 23  2  0
 23 19  1  0
 19 18  1  0
 18  1  1  0
  1  2  2  0
  1  3  1  0
  3  4  2  0
  4  5  1  0
  5  6  2  0
  6  7  1  0
  7 10  1  0
 10 11  1  0
 11 12  2  0
 12 13  1  0
 13 14  2  0
 14 15  1  0
 14 16  1  0
 16 17  2  0
  7  8  1  0
  8  9  2  0
 23 24  1  0
 24 25  2  0
 25 20  1  0
  8  3  1  0
 17 11  1  0
 26 30  1  0
M  CHG 1  15  -1
M  CHG 1  18  -1
M  CHG 1  26  -1
M  END
> <UniqueID>
79

> <SMILES>
[NH-]S(=O)(=O)c1ccc(C[N-]C(=O)c2cccn(Cc3ccc([O-])cc3)c2=O)cc1

> <Energy>
52.14806934348807

> <Genealogy>
[NH-]S(=O)(=O)c1ccc(C[N-]C(=O)c2cccn(Cc3ccc([O-])cc3)c2=O)cc1 (protonated)
[NH-]S(=O)(=O)c1ccc(C[N-]C(=O)c2cccn(Cc3ccc([O-])cc3)c2=O)cc1 (3D coordinates assigned)
[NH-]S(=O)(=O)c1ccc(C[N-]C(=O)c2cccn(Cc3ccc([O-])cc3)c2=O)cc1 (optimized conformer: 52.14806934348807 kcal/mol)

> <smiles>
NS(=O)(=O)c1ccc(CNC(=O)c2cccn(Cc3ccc(O)cc3)c2=O)cc1

> <score_type>
oracle

> <origin>
adg

> <m_score__min__energy>
-15.470000000000001

> <m_primary>
energy

> <minimizedAffinity>
-7.84561

> <minimizedRMSD>
1.02017

> <CNNscore>
0.6484071612

> <CNNaffinity>
6.6967339516

> <CNN_VS>
4.3422102928

> <CNNaffinity_variance>
0.0874420404

$$$$
58:0


 25 27  0  0  0  0  0  0  0  0999 V2000
   59.1701   29.0086   46.5661 N   0  0  0  0  0  0  0  0  0  0  0  0
   58.1873   28.0467   46.5430 C   0  0  0  0  0  0  0  0  0  0  0  0
   58.2776   27.0141   47.2588 O   0  0  0  0  0  0  0  0  0  0  0  0
   57.1077   28.1845   45.7331 N   0  0  0  0  0  0  0  0  0  0  0  0
   56.9585   29.2575   44.9237 C   0  0  0  0  0  0  0  0  0  0  0  0
   55.8336   29.3506   44.1121 O   0  0  0  0  0  0  0  0  0  0  0  0
   57.9291   30.2594   44.9146 C   0  0  0  0  0  0  0  0  0  0  0  0
   59.0613   30.1004   45.7340 C   0  0  0  0  0  0  0  0  0  0  0  0
   59.9852   30.9584   45.6792 O   0  0  0  0  0  0  0  0  0  0  0  0
   57.7855   31.4179   44.0049 C   0  0  0  0  0  0  0  0  0  0  0  0
   57.4947   32.6625   44.4118 C   0  0  0  0  0  0  0  0  0  0  0  0
   58.2222   33.3942   45.4721 C   0  0  0  0  0  0  0  0  0  0  0  0
   57.9706   33.1550   46.8337 C   0  0  0  0  0  0  0  0  0  0  0  0
   58.6390   33.9104   47.8001 C   0  0  0  0  0  0  0  0  0  0  0  0
   59.5199   34.8764   47.4226 N   0  0  0  0  0  0  0  0  0  0  0  0
   59.7695   35.1384   46.1124 C   0  0  0  0  0  0  0  0  0  0  0  0
   59.1173   34.4110   45.1142 C   0  0  0  0  0  0  0  0  0  0  0  0
   60.3632   28.8227   47.4237 C   0  0  0  0  0  0  0  0  0  0  0  0
   58.9551   29.6824   49.9679 C   0  0  0  0  0  0  0  0  0  0  0  0
   60.0742   30.4880   49.3699 C   0  0  0  0  0  0  0  0  0  0  0  0
   60.4869   31.6615   50.0263 C   0  0  0  0  0  0  0  0  0  0  0  0
   61.5108   32.4499   49.4982 C   0  0  0  0  0  0  0  0  0  0  0  0
   62.1347   32.0800   48.3093 C   0  0  0  0  0  0  0  0  0  0  0  0
   61.7469   30.9139   47.6488 C   0  0  0  0  0  0  0  0  0  0  0  0
   60.7278   30.0933   48.1714 C   0  0  0  0  0  0  0  0  0  0  0  0
 19 20  1  0
 20 21  2  0
 21 22  1  0
 22 23  2  0
 23 24  1  0
 24 25  2  0
 25 18  1  0
 18  1  1  0
  1  2  1  0
  2  3  2  0
  2  4  1  0
  4  5  1  0
  5  6  1  0
  5  7  2  0
  7 10  1  0
 10 11  2  0
 11 12  1  0
 12 13  2  0
 13 14  1  0
 14 15  2  0
 15 16  1  0
 16 17  2  0
  7  8  1  0
  8  9  2  0
 25 20  1  0
  8  1  1  0
 17 12  1  0
M  CHG 1   4  -1
M  CHG 1   6  -1
M  END
> <UniqueID>
54

> <SMILES>
Cc1ccccc1Cn1c(=O)[n-]c([O-])c(C=Cc2ccncc2)c1=O

> <Energy>
60.489662614223796

> <Genealogy>
Cc1ccccc1Cn1c(=O)[n-]c([O-])c(C=Cc2ccncc2)c1=O (protonated)
Cc1ccccc1Cn1c(=O)[n-]c([O-])c(C=Cc2ccncc2)c1=O (3D coordinates assigned)
Cc1ccccc1Cn1c(=O)[n-]c([O-])c(C=Cc2ccncc2)c1=O (optimized conformer: 60.489662614223796 kcal/mol)

> <smiles>
Cc1ccccc1Cn1c(=O)[nH]c(O)c(C=Cc2ccncc2)c1=O

> <score_type>
oracle

> <origin>
adg

> <m_score__min__energy>
-14.18

> <m_primary>
energy

> <minimizedAffinity>
-6.55875

> <minimizedRMSD>
0.61812

> <CNNscore>
0.5188701749

> <CNNaffinity>
6.6659717560

> <CNN_VS>
3.4587738514

> <CNNaffinity_variance>
0.0376616381

$$$$
60:0


 26 28  0  0  0  0  0  0  0  0999 V2000
   57.7452   32.1561   45.0527 C   0  0  0  0  0  0  0  0  0  0  0  0
   57.9557   32.7642   43.9698 O   0  0  0  0  0  0  0  0  0  0  0  0
   57.2332   30.8169   44.9982 N   0  0  0  0  0  0  0  0  0  0  0  0
   57.9750   27.2286   45.7065 C   0  0  0  0  0  0  0  0  0  0  0  0
   59.3769   27.2295   45.6878 C   0  0  0  0  0  0  0  0  0  0  0  0
   60.0738   28.4133   45.4289 C   0  0  0  0  0  0  0  0  0  0  0  0
   59.3760   29.6016   45.2030 C   0  0  0  0  0  0  0  0  0  0  0  0
   57.9723   29.6195   45.2587 C   0  0  0  0  0  0  0  0  0  0  0  0
   57.2787   28.4251   45.4874 C   0  0  0  0  0  0  0  0  0  0  0  0
   55.4022   26.0749   46.0909 N   0  0  0  0  0  0  0  0  0  0  0  0
   57.0955   25.7378   46.0291 S   0  0  0  0  0  0  0  0  0  0  0  0
   57.3710   24.7401   44.9397 O   0  0  0  0  0  0  0  0  0  0  0  0
   57.5411   25.1552   47.3418 O   0  0  0  0  0  0  0  0  0  0  0  0
   54.8905   25.2126   46.2777 H   0  0  0  0  0  0  0  0  0  0  0  0
   57.8527   32.9062   46.3558 C   0  0  0  0  0  0  0  0  0  0  0  0
   59.2177   32.8470   46.8818 N   0  0  0  0  0  0  0  0  0  0  0  0
   59.7042   31.9691   47.7854 C   0  0  0  0  0  0  0  0  0  0  0  0
   58.9469   30.9864   48.4112 O   0  0  0  0  0  0  0  0  0  0  0  0
   61.0512   32.1885   47.9929 C   0  0  0  0  0  0  0  0  0  0  0  0
   61.4073   33.2349   47.1797 C   0  0  0  0  0  0  0  0  0  0  0  0
   60.2640   33.6152   46.5055 C   0  0  0  0  0  0  0  0  0  0  0  0
   60.1878   34.6343   45.5628 O   0  0  0  0  0  0  0  0  0  0  0  0
   62.7935   33.7827   47.0730 C   0  0  0  0  0  0  0  0  0  0  0  0
   63.7472   33.0796   48.0192 C   0  0  0  0  0  0  0  0  0  0  0  0
   63.3967   32.0490   48.8214 C   0  0  0  0  0  0  0  0  0  0  0  0
   62.0022   31.4581   48.8843 C   0  0  0  0  0  0  0  0  0  0  0  0
 10 11  1  0
 11 12  2  0
 11 13  2  0
 11  4  1  0
  4  5  2  0
  5  6  1  0
  6  7  2  0
  7  8  1  0
  8  3  1  0
  3  1  1  0
  1  2  2  0
  1 15  1  0
 15 16  1  0
 16 17  1  0
 17 18  1  0
 17 19  2  0
 19 20  1  0
 20 21  2  0
 21 22  1  0
 20 23  1  0
 23 24  1  0
 24 25  2  0
 25 26  1  0
  8  9  2  0
  9  4  1  0
 21 16  1  0
 26 19  1  0
 10 14  1  0
M  CHG 1   3  -1
M  CHG 1  10  -1
M  CHG 1  18  -1
M  CHG 1  22  -1
M  END
> <UniqueID>
56

> <SMILES>
[NH-]S(=O)(=O)c1cccc([N-]C(=O)Cn2c([O-])c3c(c2[O-])CC=CC3)c1

> <Energy>
77.37737205521564

> <Genealogy>
[NH-]S(=O)(=O)c1cccc([N-]C(=O)Cn2c([O-])c3c(c2[O-])CC=CC3)c1 (protonated)
[NH-]S(=O)(=O)c1cccc([N-]C(=O)Cn2c([O-])c3c(c2[O-])CC=CC3)c1 (3D coordinates assigned)
[NH-]S(=O)(=O)c1cccc([N-]C(=O)Cn2c([O-])c3c(c2[O-])CC=CC3)c1 (nonaromatic ring conformer: 77.37737205521564 kcal/mol)

> <smiles>
NS(=O)(=O)c1cccc(NC(=O)Cn2c(O)c3c(c2O)CC=CC3)c1

> <score_type>
oracle

> <origin>
adg

> <m_score__min__energy>
-16.129999999999999

> <m_primary>
energy

> <minimizedAffinity>
-8.81016

> <minimizedRMSD>
0.59780

> <CNNscore>
0.8982023001

> <CNNaffinity>
7.2303814888

> <CNN_VS>
6.4943451881

> <CNNaffinity_variance>
0.2494859695

$$$$
70:0


 34 37  0  0  0  0  0  0  0  0999 V2000
   57.6626   29.1609   44.4697 C   0  0  0  0  0  0  0  0  0  0  0  0
   58.7142   30.4633   44.6355 S   0  0  0  0  0  0  0  0  0  0  0  0
   57.4649   31.5854   44.5936 C   0  0  0  0  0  0  0  0  0  0  0  0
   57.6555   32.8680   44.6836 N   0  0  0  0  0  0  0  0  0  0  0  0
   56.2520   31.0004   44.4571 N   0  0  0  0  0  0  0  0  0  0  0  0
   56.3595   29.6470   44.3845 C   0  0  0  0  0  0  0  0  0  0  0  0
   58.7447   33.5206   45.3517 C   0  0  0  0  0  0  0  0  0  0  0  0
   59.5067   34.3156   44.7316 O   0  0  0  0  0  0  0  0  0  0  0  0
   58.9847   33.2418   46.8109 C   0  0  0  0  0  0  0  0  0  0  0  0
   59.9995   32.0769   47.0005 C   0  0  0  0  0  0  0  0  0  0  0  0
   61.2524   32.4927   47.7865 C   0  0  0  0  0  0  0  0  0  0  0  0
   60.8603   33.1846   49.0238 N   0  0  0  0  0  0  0  0  0  0  0  0
   61.3988   32.7851   50.3001 C   0  0  0  0  0  0  0  0  0  0  0  0
   60.6446   32.7661   51.3098 O   0  0  0  0  0  0  0  0  0  0  0  0
   59.8323   34.2369   48.9835 C   0  0  0  0  0  0  0  0  0  0  0  0
   59.3939   34.5366   47.5452 C   0  0  0  0  0  0  0  0  0  0  0  0
   62.8217   32.3961   50.4550 C   0  0  0  0  0  0  0  0  0  0  0  0
   63.8413   33.2490   49.9963 C   0  0  0  0  0  0  0  0  0  0  0  0
   65.1849   32.8897   50.1434 C   0  0  0  0  0  0  0  0  0  0  0  0
   65.5214   31.6713   50.7387 C   0  0  0  0  0  0  0  0  0  0  0  0
   64.5166   30.8063   51.1776 C   0  0  0  0  0  0  0  0  0  0  0  0
   63.1720   31.1610   51.0324 C   0  0  0  0  0  0  0  0  0  0  0  0
   58.0715   27.7206   44.4071 C   0  0  0  0  0  0  0  0  0  0  0  0
   58.2738   26.2369   46.5133 C   0  0  0  0  0  0  0  0  0  0  0  0
   58.9785   25.8965   47.6809 C   0  0  0  0  0  0  0  0  0  0  0  0
   60.1698   26.5472   48.0085 C   0  0  0  0  0  0  0  0  0  0  0  0
   60.6761   27.5473   47.1764 C   0  0  0  0  0  0  0  0  0  0  0  0
   59.9868   27.9071   46.0188 C   0  0  0  0  0  0  0  0  0  0  0  0
   58.7661   27.2828   45.6815 C   0  0  0  0  0  0  0  0  0  0  0  0
   55.4234   26.3560   46.0228 N   0  0  0  0  0  0  0  0  0  0  0  0
   56.8076   25.3169   46.1202 S   0  0  0  0  0  0  0  0  0  0  0  0
   56.5515   24.2905   47.1923 O   0  0  0  0  0  0  0  0  0  0  0  0
   56.9863   24.6325   44.7917 O   0  0  0  0  0  0  0  0  0  0  0  0
   54.5976   25.8019   45.7962 H   0  0  0  0  0  0  0  0  0  0  0  0
 30 31  1  0
 31 32  2  0
 31 33  2  0
 31 24  1  0
 24 25  2  0
 25 26  1  0
 26 27  2  0
 27 28  1  0
 28 29  2  0
 29 23  1  0
 23  1  1  0
  1  2  1  0
  2  3  1  0
  3  4  2  0
  4  7  1  0
  7  8  2  0
  7  9  1  0
  9 10  1  0
 10 11  1  0
 11 12  1  0
 12 13  1  0
 13 14  2  0
 13 17  1  0
 17 18  2  0
 18 19  1  0
 19 20  2  0
 20 21  1  0
 21 22  2  0
 12 15  1  0
 15 16  1  0
  3  5  1  0
  5  6  1  0
 29 24  1  0
  6  1  2  0
 16  9  1  0
 22 17  1  0
 30 34  1  0
M  CHG 1   5  -1
M  CHG 1  30  -1
M  END
> <UniqueID>
64

> <SMILES>
[NH-]S(=O)(=O)c1ccccc1Cc1c[n-]/c(=N\C(=O)C2CCN(C(=O)c3ccccc3)CC2)s1

> <Energy>
99.57251599476518

> <Genealogy>
[NH-]S(=O)(=O)c1ccccc1Cc1c[n-]c(=NC(=O)C2CCN(C(=O)c3ccccc3)CC2)s1 (protonated)
[NH-]S(=O)(=O)c1ccccc1Cc1c[n-]/c(=N\C(=O)C2CCN(C(=O)c3ccccc3)CC2)s1 (cis-trans isomerization)
[NH-]S(=O)(=O)c1ccccc1Cc1c[n-]/c(=N\C(=O)C2CCN(C(=O)c3ccccc3)CC2)s1 (3D coordinates assigned)
[NH-]S(=O)(=O)c1ccccc1Cc1c[n-]/c(=N\C(=O)C2CCN(C(=O)c3ccccc3)CC2)s1 (nonaromatic ring conformer: 99.57251599476518 kcal/mol)

> <smiles>
NS(=O)(=O)c1ccccc1Cc1c[nH]c(=NC(=O)C2CCN(C(=O)c3ccccc3)CC2)s1

> <score_type>
oracle

> <origin>
adg

> <m_score__min__energy>
-14.93

> <m_primary>
energy

> <minimizedAffinity>
-8.57632

> <minimizedRMSD>
0.54084

> <CNNscore>
0.2810349762

> <CNNaffinity>
7.1142330170

> <CNN_VS>
1.9993482828

> <CNNaffinity_variance>
0.1046502367

$$$$
7:0


 33 35  0  0  0  0  0  0  0  0999 V2000
   59.7659   30.6877   51.8747 O   0  0  0  0  0  0  0  0  0  0  0  0
   59.4387   30.3344   50.7116 C   0  0  0  0  0  0  0  0  0  0  0  0
   59.7501   28.9817   50.2086 C   0  0  0  0  0  0  0  0  0  0  0  0
   60.4400   28.6828   49.0955 C   0  0  0  0  0  0  0  0  0  0  0  0
   59.9430   28.7608   47.7058 C   0  0  0  0  0  0  0  0  0  0  0  0
   60.7828   28.6904   46.7675 O   0  0  0  0  0  0  0  0  0  0  0  0
   58.5623   29.0580   47.4182 N   0  0  0  0  0  0  0  0  0  0  0  0
   57.8985   28.9856   48.1416 H   0  0  0  0  0  0  0  0  0  0  0  0
   58.1235   29.4569   46.1083 C   0  0  0  0  0  0  0  0  0  0  0  0
   58.1338   30.8262   45.7966 C   0  0  0  0  0  0  0  0  0  0  0  0
   57.8132   31.2689   44.5137 C   0  0  0  0  0  0  0  0  0  0  0  0
   57.4690   30.3470   43.5245 C   0  0  0  0  0  0  0  0  0  0  0  0
   57.4227   28.9819   43.8228 C   0  0  0  0  0  0  0  0  0  0  0  0
   57.7281   28.5168   45.1162 C   0  0  0  0  0  0  0  0  0  0  0  0
   57.5695   27.0695   45.4079 C   0  0  0  0  0  0  0  0  0  0  0  0
   57.0749   26.6932   46.5037 O   0  0  0  0  0  0  0  0  0  0  0  0
   58.0031   26.1085   44.5030 O   0  0  0  0  0  0  0  0  0  0  0  0
   58.7717   31.2551   49.8375 N   0  0  0  0  0  0  0  0  0  0  0  0
   59.4059   32.1766   48.9378 C   0  0  0  0  0  0  0  0  0  0  0  0
   58.6154   33.1119   48.2577 C   0  0  0  0  0  0  0  0  0  0  0  0
   59.2024   34.0231   47.3749 C   0  0  0  0  0  0  0  0  0  0  0  0
   60.5836   34.0029   47.1580 C   0  0  0  0  0  0  0  0  0  0  0  0
   61.3819   33.0582   47.8162 C   0  0  0  0  0  0  0  0  0  0  0  0
   60.7885   32.1346   48.6851 C   0  0  0  0  0  0  0  0  0  0  0  0
   63.1270   33.0237   47.5786 S   0  0  0  0  0  0  0  0  0  0  0  0
   63.5281   34.0480   46.5498 O   0  0  0  0  0  0  0  0  0  0  0  0
   63.5205   31.6532   47.0908 O   0  0  0  0  0  0  0  0  0  0  0  0
   63.9279   33.3642   49.0974 N   0  0  0  0  0  0  0  0  0  0  0  0
   64.3928   32.1096   49.7199 C   0  0  0  0  0  0  0  0  0  0  0  0
   64.8724   32.3567   51.1683 C   0  0  0  0  0  0  0  0  0  0  0  0
   64.9870   33.7425   51.4376 O   0  0  0  0  0  0  0  0  0  0  0  0
   63.7080   34.3531   51.3535 C   0  0  0  0  0  0  0  0  0  0  0  0
   63.0098   34.0731   50.0010 C   0  0  0  0  0  0  0  0  0  0  0  0
  1  2  2  0
  2  3  1  0
  3  4  2  0
  4  5  1  0
  5  6  2  0
  5  7  1  0
  7  9  1  0
  9 10  2  0
 10 11  1  0
 11 12  2  0
 12 13  1  0
 13 14  2  0
 14 15  1  0
 15 16  2  0
 15 17  1  0
  2 18  1  0
 18 19  1  0
 19 20  2  0
 20 21  1  0
 21 22  2  0
 22 23  1  0
 23 25  1  0
 25 26  2  0
 25 27  2  0
 25 28  1  0
 28 29  1  0
 29 30  1  0
 30 31  1  0
 31 32  1  0
 32 33  1  0
 23 24  2  0
 14  9  1  0
 24 19  1  0
 33 28  1  0
  7  8  1  0
M  CHG 1  17  -1
M  CHG 1  18  -1
M  END
> <UniqueID>
8

> <SMILES>
O=C(C=CC(=O)Nc1ccccc1C(=O)[O-])[N-]c1cccc(S(=O)(=O)N2CCOCC2)c1

> <Energy>
77.87059277507679

> <Genealogy>
O=C(C=CC(=O)Nc1ccccc1C(=O)[O-])[N-]c1cccc(S(=O)(=O)N2CCOCC2)c1 (protonated)
O=C(C=CC(=O)Nc1ccccc1C(=O)[O-])[N-]c1cccc(S(=O)(=O)N2CCOCC2)c1 (3D coordinates assigned)
O=C(C=CC(=O)Nc1ccccc1C(=O)[O-])[N-]c1cccc(S(=O)(=O)N2CCOCC2)c1 (nonaromatic ring conformer: 77.87059277507679 kcal/mol)

> <smiles>
O=C(C=CC(=O)Nc1ccccc1C(=O)O)Nc1cccc(S(=O)(=O)N2CCOCC2)c1

> <score_type>
oracle

> <origin>
adg

> <m_score__min__energy>
-14.539999999999999

> <m_primary>
energy

> <minimizedAffinity>
-6.23928

> <minimizedRMSD>
1.57495

> <CNNscore>
0.3378210664

> <CNNaffinity>
5.7868819237

> <CNN_VS>
1.9549306631

> <CNNaffinity_variance>
0.3127165139

$$$$
9:0


 31 33  0  0  0  0  0  0  0  0999 V2000
   59.8733   31.2187   48.4402 C   0  0  0  0  0  0  0  0  0  0  0  0
   60.4908   30.2307   49.2268 C   0  0  0  0  0  0  0  0  0  0  0  0
   60.3919   30.2757   50.6205 C   0  0  0  0  0  0  0  0  0  0  0  0
   59.6713   31.2950   51.2546 C   0  0  0  0  0  0  0  0  0  0  0  0
   59.0414   32.2759   50.4646 C   0  0  0  0  0  0  0  0  0  0  0  0
   59.1368   32.2303   49.0710 C   0  0  0  0  0  0  0  0  0  0  0  0
   58.3727   33.2167   45.4465 C   0  0  0  0  0  0  0  0  0  0  0  0
   58.1471   31.9019   45.3410 C   0  0  0  0  0  0  0  0  0  0  0  0
   57.1789   31.5216   44.4634 N   0  0  0  0  0  0  0  0  0  0  0  0
   56.7125   30.2533   44.4128 C   0  0  0  0  0  0  0  0  0  0  0  0
   55.8205   29.9427   43.5817 O   0  0  0  0  0  0  0  0  0  0  0  0
   57.1862   29.3257   45.2744 N   0  0  0  0  0  0  0  0  0  0  0  0
   58.1712   29.6192   46.1582 C   0  0  0  0  0  0  0  0  0  0  0  0
   58.5764   28.7061   46.9288 O   0  0  0  0  0  0  0  0  0  0  0  0
   58.7553   30.9134   46.1795 C   0  0  0  0  0  0  0  0  0  0  0  0
   59.8500   31.1210   46.9633 C   0  0  0  0  0  0  0  0  0  0  0  0
   59.5683   31.2571   52.6549 O   0  0  0  0  0  0  0  0  0  0  0  0
   58.4149   31.6029   53.4271 C   0  0  0  0  0  0  0  0  0  0  0  0
   57.1665   30.8907   52.8725 C   0  0  0  0  0  0  0  0  0  0  0  0
   57.1277   29.3851   53.1932 C   0  0  0  0  0  0  0  0  0  0  0  0
   56.4013   29.0545   54.5061 C   0  0  0  0  0  0  0  0  0  0  0  0
   55.0145   28.5436   54.2569 C   0  0  0  0  0  0  0  0  0  0  0  0
   54.8458   27.3474   53.8986 O   0  0  0  0  0  0  0  0  0  0  0  0
   53.8914   29.3875   54.5365 N   0  0  0  0  0  0  0  0  0  0  0  0
   53.1371   30.1134   53.5572 C   0  0  0  0  0  0  0  0  0  0  0  0
   53.6163   30.1566   52.2412 C   0  0  0  0  0  0  0  0  0  0  0  0
   52.9141   30.8535   51.2552 C   0  0  0  0  0  0  0  0  0  0  0  0
   51.7166   31.4988   51.5736 C   0  0  0  0  0  0  0  0  0  0  0  0
   51.2123   31.4343   52.8757 C   0  0  0  0  0  0  0  0  0  0  0  0
   51.9087   30.7312   53.8659 C   0  0  0  0  0  0  0  0  0  0  0  0
   51.3543   30.6232   55.1366 O   0  0  0  0  0  0  0  0  0  0  0  0
  7  8  2  0
  8  9  1  0
  9 10  1  0
 10 11  2  0
 10 12  1  0
 12 13  1  0
 13 14  2  0
 13 15  1  0
 15 16  2  0
 16  1  1  0
  1  2  2  0
  2  3  1  0
  3  4  2  0
  4 17  1  0
 17 18  1  0
 18 19  1  0
 19 20  1  0
 20 21  1  0
 21 22  1  0
 22 23  2  0
 22 24  1  0
 24 25  1  0
 25 26  2  0
 26 27  1  0
 27 28  2  0
 28 29  1  0
 29 30  2  0
 30 31  1  0
  4  5  1  0
  5  6  2  0
 15  8  1  0
  6  1  1  0
 30 25  1  0
M  CHG 1   9  -1
M  CHG 1  12  -1
M  CHG 1  24  -1
M  CHG 1  31  -1
M  END
> <UniqueID>
10

> <SMILES>
C=c1[n-]c(=O)[n-]c(=O)/c1=C/c1ccc(OCCCCC(=O)[N-]c2ccccc2[O-])cc1

> <Energy>
77.4115083343995

> <Genealogy>
C=c1[n-]c(=O)[n-]c(=O)c1=Cc1ccc(OCCCCC(=O)[N-]c2ccccc2[O-])cc1 (protonated)
C=c1[n-]c(=O)[n-]c(=O)/c1=C/c1ccc(OCCCCC(=O)[N-]c2ccccc2[O-])cc1 (cis-trans isomerization)
C=c1[n-]c(=O)[n-]c(=O)/c1=C/c1ccc(OCCCCC(=O)[N-]c2ccccc2[O-])cc1 (3D coordinates assigned)
C=c1[n-]c(=O)[n-]c(=O)/c1=C/c1ccc(OCCCCC(=O)[N-]c2ccccc2[O-])cc1 (optimized conformer: 77.4115083343995 kcal/mol)

> <smiles>
C=c1[nH]c(=O)[nH]c(=O)c1=Cc1ccc(OCCCCC(=O)Nc2ccccc2O)cc1

> <score_type>
oracle

> <origin>
adg

> <m_score__min__energy>
-17.489999999999998

> <m_primary>
energy

> <minimizedAffinity>
-7.06850

> <minimizedRMSD>
2.04175

> <CNNscore>
0.3799126148

> <CNNaffinity>
6.2083134651

> <CNN_VS>
2.3586165905

> <CNNaffinity_variance>
0.2569616735

$$$$
41:0


 27 28  0  0  0  0  0  0  0  0999 V2000
   62.2046   31.6171   49.2845 C   0  0  0  0  0  0  0  0  0  0  0  0
   60.8411   31.0763   49.3237 N   0  0  0  0  0  0  0  0  0  0  0  0
   59.6891   32.3962   49.3646 S   0  0  0  0  0  0  0  0  0  0  0  0
   60.2292   33.5080   50.2215 O   0  0  0  0  0  0  0  0  0  0  0  0
   58.4034   31.9231   49.9835 O   0  0  0  0  0  0  0  0  0  0  0  0
   59.3604   33.0293   47.7486 C   0  0  0  0  0  0  0  0  0  0  0  0
   59.7963   34.3120   47.3971 C   0  0  0  0  0  0  0  0  0  0  0  0
   59.5597   34.8072   46.1141 C   0  0  0  0  0  0  0  0  0  0  0  0
   58.8796   34.0295   45.1744 C   0  0  0  0  0  0  0  0  0  0  0  0
   58.4224   32.7429   45.5138 C   0  0  0  0  0  0  0  0  0  0  0  0
   58.6708   32.2481   46.8064 C   0  0  0  0  0  0  0  0  0  0  0  0
   57.6843   31.9236   44.5275 C   0  0  0  0  0  0  0  0  0  0  0  0
   57.9341   32.0242   43.2969 O   0  0  0  0  0  0  0  0  0  0  0  0
   56.6976   31.0399   44.9444 O   0  0  0  0  0  0  0  0  0  0  0  0
   60.6041   30.2128   48.1519 C   0  0  0  0  0  0  0  0  0  0  0  0
   59.9211   28.9376   48.5599 C   0  0  0  0  0  0  0  0  0  0  0  0
   60.3113   28.3421   49.6001 O   0  0  0  0  0  0  0  0  0  0  0  0
   58.8124   28.3952   47.8329 N   0  0  0  0  0  0  0  0  0  0  0  0
   58.7422   28.1737   46.4183 C   0  0  0  0  0  0  0  0  0  0  0  0
   59.6879   28.9404   45.2540 S   0  0  0  0  0  0  0  0  0  0  0  0
   59.1199   28.0517   43.9471 C   0  0  0  0  0  0  0  0  0  0  0  0
   58.1984   27.1243   44.4132 C   0  0  0  0  0  0  0  0  0  0  0  0
   57.9891   27.1744   45.8023 C   0  0  0  0  0  0  0  0  0  0  0  0
   57.0600   26.2632   46.5042 C   0  0  0  0  0  0  0  0  0  0  0  0
   55.6635   26.2861   46.2245 N   0  0  0  0  0  0  0  0  0  0  0  0
   57.5044   25.4465   47.3556 O   0  0  0  0  0  0  0  0  0  0  0  0
   55.3045   26.9193   45.5617 H   0  0  0  0  0  0  0  0  0  0  0  0
  1  2  1  0
  2 15  1  0
 15 16  1  0
 16 17  2  0
 16 18  1  0
 18 19  1  0
 19 20  1  0
 20 21  1  0
 21 22  2  0
 22 23  1  0
 23 24  1  0
 24 25  1  0
 24 26  2  0
  2  3  1  0
  3  4  2  0
  3  5  2  0
  3  6  1  0
  6  7  2  0
  7  8  1  0
  8  9  2  0
  9 10  1  0
 10 12  1  0
 12 13  2  0
 12 14  1  0
 10 11  2  0
 23 19  2  0
 11  6  1  0
 25 27  1  0
M  CHG 1  14  -1
M  CHG 1  18  -1
M  CHG 1  25  -1
M  END
> <UniqueID>
40

> <SMILES>
CN(CC(=O)[N-]c1sccc1C([NH-])=O)S(=O)(=O)c1cccc(C(=O)[O-])c1

> <Energy>
64.77989200876553

> <Genealogy>
CN(CC(=O)[N-]c1sccc1C([NH-])=O)S(=O)(=O)c1cccc(C(=O)[O-])c1 (protonated)
CN(CC(=O)[N-]c1sccc1C([NH-])=O)S(=O)(=O)c1cccc(C(=O)[O-])c1 (3D coordinates assigned)
CN(CC(=O)[N-]c1sccc1C([NH-])=O)S(=O)(=O)c1cccc(C(=O)[O-])c1 (optimized conformer: 64.77989200876553 kcal/mol)

> <smiles>
CN(CC(=O)Nc1sccc1C(N)=O)S(=O)(=O)c1cccc(C(=O)O)c1

> <score_type>
oracle

> <origin>
adg

> <m_score__min__energy>
-15.75

> <m_primary>
energy

> <minimizedAffinity>
-7.42327

> <minimizedRMSD>
2.33959

> <CNNscore>
0.8574776649

> <CNNaffinity>
6.6411380768

> <CNN_VS>
5.6946277618

> <CNNaffinity_variance>
0.1408235878

$$$$
51:0


 27 29  0  0  0  0  0  0  0  0999 V2000
   59.4780   30.2206   51.3220 C   0  0  0  0  0  0  0  0  0  0  0  0
   59.8800   29.1939   52.1910 C   0  0  0  0  0  0  0  0  0  0  0  0
   61.1580   28.6513   52.1229 O   0  0  0  0  0  0  0  0  0  0  0  0
   59.0277   28.7412   53.1399 N   0  0  0  0  0  0  0  0  0  0  0  0
   57.7837   29.2590   53.2865 C   0  0  0  0  0  0  0  0  0  0  0  0
   57.0371   28.8025   54.1943 O   0  0  0  0  0  0  0  0  0  0  0  0
   57.3512   30.2699   52.4654 N   0  0  0  0  0  0  0  0  0  0  0  0
   58.1950   30.7689   51.5025 C   0  0  0  0  0  0  0  0  0  0  0  0
   57.8200   31.7216   50.7626 O   0  0  0  0  0  0  0  0  0  0  0  0
   60.7131   30.0704   49.1799 C   0  0  0  0  0  0  0  0  0  0  0  0
   60.3777   30.7662   50.2767 C   0  0  0  0  0  0  0  0  0  0  0  0
   59.7920   29.8163   48.0451 C   0  0  0  0  0  0  0  0  0  0  0  0
   59.5272   30.8676   47.1487 C   0  0  0  0  0  0  0  0  0  0  0  0
   58.6724   30.6762   46.0589 C   0  0  0  0  0  0  0  0  0  0  0  0
   58.0794   29.4295   45.8441 C   0  0  0  0  0  0  0  0  0  0  0  0
   57.2307   29.2417   44.7612 O   0  0  0  0  0  0  0  0  0  0  0  0
   58.3449   28.3722   46.7169 C   0  0  0  0  0  0  0  0  0  0  0  0
   59.1982   28.5586   47.8095 C   0  0  0  0  0  0  0  0  0  0  0  0
   56.0094   30.8550   52.6524 C   0  0  0  0  0  0  0  0  0  0  0  0
   54.9308   29.8676   52.1965 C   0  0  0  0  0  0  0  0  0  0  0  0
   53.5594   30.3885   52.5315 C   0  0  0  0  0  0  0  0  0  0  0  0
   52.8177   31.1001   51.5727 C   0  0  0  0  0  0  0  0  0  0  0  0
   51.5573   31.6115   51.8947 C   0  0  0  0  0  0  0  0  0  0  0  0
   51.0318   31.4246   53.1776 C   0  0  0  0  0  0  0  0  0  0  0  0
   49.7792   31.9342   53.4956 O   0  0  0  0  0  0  0  0  0  0  0  0
   51.7696   30.7295   54.1398 C   0  0  0  0  0  0  0  0  0  0  0  0
   53.0312   30.2160   53.8211 C   0  0  0  0  0  0  0  0  0  0  0  0
 10 11  2  0
 11  1  1  0
  1  2  2  0
  2  3  1  0
  2  4  1  0
  4  5  1  0
  5  6  2  0
  5  7  1  0
  7 19  1  0
 19 20  1  0
 20 21  1  0
 21 22  2  0
 22 23  1  0
 23 24  2  0
 24 25  1  0
 24 26  1  0
 26 27  2  0
  7  8  1  0
  8  9  2  0
 10 12  1  0
 12 13  2  0
 13 14  1  0
 14 15  2  0
 15 16  1  0
 15 17  1  0
 17 18  2  0
  8  1  1  0
 18 12  1  0
 27 21  1  0
M  CHG 1   3  -1
M  CHG 1   4  -1
M  CHG 1  16  -1
M  CHG 1  25  -1
M  END
> <UniqueID>
50

> <SMILES>
O=c1[n-]c([O-])c(/C=C/c2ccc([O-])cc2)c(=O)n1CCc1ccc([O-])cc1

> <Energy>
53.918627176461776

> <Genealogy>
O=c1[n-]c([O-])c(C=Cc2ccc([O-])cc2)c(=O)n1CCc1ccc([O-])cc1 (protonated)
O=c1[n-]c([O-])c(/C=C/c2ccc([O-])cc2)c(=O)n1CCc1ccc([O-])cc1 (cis-trans isomerization)
O=c1[n-]c([O-])c(/C=C/c2ccc([O-])cc2)c(=O)n1CCc1ccc([O-])cc1 (3D coordinates assigned)
O=c1[n-]c([O-])c(/C=C/c2ccc([O-])cc2)c(=O)n1CCc1ccc([O-])cc1 (optimized conformer: 53.918627176461776 kcal/mol)

> <smiles>
O=c1[nH]c(O)c(C=Cc2ccc(O)cc2)c(=O)n1CCc1ccc(O)cc1

> <score_type>
oracle

> <origin>
adg

> <m_score__min__energy>
-15.880000000000001

> <m_primary>
energy

> <minimizedAffinity>
-6.91903

> <minimizedRMSD>
1.24244

> <CNNscore>
0.1719976366

> <CNNaffinity>
5.4144511223

> <CNN_VS>
0.9312728047

> <CNNaffinity_variance>
0.0521138012

$$$$
65:0


 29 31  0  0  0  0  0  0  0  0999 V2000
   57.5950   31.0258   44.3939 C   0  0  0  0  0  0  0  0  0  0  0  0
   57.7573   31.8908   43.2979 C   0  0  0  0  0  0  0  0  0  0  0  0
   58.2842   33.1733   43.4786 C   0  0  0  0  0  0  0  0  0  0  0  0
   58.6509   33.6068   44.7523 C   0  0  0  0  0  0  0  0  0  0  0  0
   58.4825   32.7615   45.8573 C   0  0  0  0  0  0  0  0  0  0  0  0
   57.9476   31.4786   45.6786 C   0  0  0  0  0  0  0  0  0  0  0  0
   58.9365   33.2979   47.4724 S   0  0  0  0  0  0  0  0  0  0  0  0
   57.8050   33.1012   48.4438 O   0  0  0  0  0  0  0  0  0  0  0  0
   59.2780   34.7605   47.4135 O   0  0  0  0  0  0  0  0  0  0  0  0
   60.3219   32.4159   48.0247 N   0  0  0  0  0  0  0  0  0  0  0  0
   61.2002   32.8042   49.0965 C   0  0  0  0  0  0  0  0  0  0  0  0
   60.7092   32.9836   50.4047 C   0  0  0  0  0  0  0  0  0  0  0  0
   61.5586   33.3806   51.4374 C   0  0  0  0  0  0  0  0  0  0  0  0
   62.9079   33.6114   51.1841 C   0  0  0  0  0  0  0  0  0  0  0  0
   63.4129   33.4464   49.8934 C   0  0  0  0  0  0  0  0  0  0  0  0
   62.5766   33.0310   48.8356 C   0  0  0  0  0  0  0  0  0  0  0  0
   63.1676   32.8459   47.4812 C   0  0  0  0  0  0  0  0  0  0  0  0
   63.4984   33.8479   46.7901 O   0  0  0  0  0  0  0  0  0  0  0  0
   63.3879   31.5786   46.9555 O   0  0  0  0  0  0  0  0  0  0  0  0
   57.0343   29.6665   44.1939 C   0  0  0  0  0  0  0  0  0  0  0  0
   56.6468   29.3241   43.0429 O   0  0  0  0  0  0  0  0  0  0  0  0
   59.9964   27.1913   46.0312 C   0  0  0  0  0  0  0  0  0  0  0  0
   59.0727   28.1133   45.6486 N   0  0  0  0  0  0  0  0  0  0  0  0
   57.7343   27.8432   45.6593 C   0  0  0  0  0  0  0  0  0  0  0  0
   56.8678   28.7376   45.2771 N   0  0  0  0  0  0  0  0  0  0  0  0
   57.2911   26.5740   46.0576 C   0  0  0  0  0  0  0  0  0  0  0  0
   55.9366   26.2640   46.0689 O   0  0  0  0  0  0  0  0  0  0  0  0
   58.2269   25.6140   46.4551 C   0  0  0  0  0  0  0  0  0  0  0  0
   59.5891   25.9227   46.4462 C   0  0  0  0  0  0  0  0  0  0  0  0
 22 23  1  0
 23 24  1  0
 24 25  2  0
 25 20  1  0
 20 21  2  0
 20  1  1  0
  1  2  2  0
  2  3  1  0
  3  4  2  0
  4  5  1  0
  5  7  1  0
  7  8  2  0
  7  9  2  0
  7 10  1  0
 10 11  1  0
 11 12  2  0
 12 13  1  0
 13 14  2  0
 14 15  1  0
 15 16  2  0
 16 17  1  0
 17 18  2  0
 17 19  1  0
  5  6  2  0
 24 26  1  0
 26 27  1  0
 26 28  2  0
 28 29  1  0
 29 22  2  0
  6  1  1  0
 16 11  1  0
M  CHG 1  10  -1
M  CHG 1  19  -1
M  CHG 1  23  -1
M  CHG 1  27  -1
M  END
> <UniqueID>
64

> <SMILES>
O=C(/N=c1\[n-]cccc1[O-])c1cccc(S(=O)(=O)[N-]c2ccccc2C(=O)[O-])c1

> <Energy>
58.03717355511873

> <Genealogy>
O=C(N=c1[n-]cccc1[O-])c1cccc(S(=O)(=O)[N-]c2ccccc2C(=O)[O-])c1 (protonated)
O=C(/N=c1\[n-]cccc1[O-])c1cccc(S(=O)(=O)[N-]c2ccccc2C(=O)[O-])c1 (cis-trans isomerization)
O=C(/N=c1\[n-]cccc1[O-])c1cccc(S(=O)(=O)[N-]c2ccccc2C(=O)[O-])c1 (3D coordinates assigned)
O=C(/N=c1\[n-]cccc1[O-])c1cccc(S(=O)(=O)[N-]c2ccccc2C(=O)[O-])c1 (optimized conformer: 58.03717355511873 kcal/mol)

> <smiles>
O=C(N=c1[nH]cccc1O)c1cccc(S(=O)(=O)Nc2ccccc2C(=O)O)c1

> <score_type>
oracle

> <origin>
adg

> <m_score__min__energy>
-16.5

> <m_primary>
energy

> <minimizedAffinity>
-7.25185

> <minimizedRMSD>
0.67695

> <CNNscore>
0.4454310536

> <CNNaffinity>
6.3927073479

> <CNN_VS>
2.8475103378

> <CNNaffinity_variance>
0.0632723644

$$$$
80:0


 25 27  0  0  0  0  0  0  0  0999 V2000
   60.3198   27.7357   48.3519 C   0  0  0  0  0  0  0  0  0  0  0  0
   59.5721   27.9692   47.0602 C   0  0  0  0  0  0  0  0  0  0  0  0
   59.1109   26.8180   46.3987 C   0  0  0  0  0  0  0  0  0  0  0  0
   58.2530   26.9019   45.3037 C   0  0  0  0  0  0  0  0  0  0  0  0
   57.8298   28.1538   44.8619 C   0  0  0  0  0  0  0  0  0  0  0  0
   58.2950   29.3351   45.4672 C   0  0  0  0  0  0  0  0  0  0  0  0
   59.2394   29.2657   46.5406 C   0  0  0  0  0  0  0  0  0  0  0  0
   59.7831   30.5022   47.0157 C   0  0  0  0  0  0  0  0  0  0  0  0
   60.9783   30.6168   47.9306 C   0  0  0  0  0  0  0  0  0  0  0  0
   59.2514   31.7085   46.5416 C   0  0  0  0  0  0  0  0  0  0  0  0
   58.2790   31.7145   45.5529 C   0  0  0  0  0  0  0  0  0  0  0  0
   57.8204   32.8132   45.1385 O   0  0  0  0  0  0  0  0  0  0  0  0
   57.8379   30.5470   45.0178 N   0  0  0  0  0  0  0  0  0  0  0  0
   56.9009   30.6058   44.0057 O   0  0  0  0  0  0  0  0  0  0  0  0
   57.7931   25.6521   44.5982 C   0  0  0  0  0  0  0  0  0  0  0  0
   57.1858   24.6802   45.5848 C   0  0  0  0  0  0  0  0  0  0  0  0
   55.9763   24.9750   46.2410 C   0  0  0  0  0  0  0  0  0  0  0  0
   55.2918   26.1555   45.9676 O   0  0  0  0  0  0  0  0  0  0  0  0
   55.4682   24.1032   47.1505 N   0  0  0  0  0  0  0  0  0  0  0  0
   56.1074   22.9440   47.4470 C   0  0  0  0  0  0  0  0  0  0  0  0
   55.4696   21.9186   48.5441 S   0  0  0  0  0  0  0  0  0  0  0  0
   57.2778   22.6376   46.8326 N   0  0  0  0  0  0  0  0  0  0  0  0
   57.8314   23.4733   45.9163 C   0  0  0  0  0  0  0  0  0  0  0  0
   58.9208   23.1529   45.3723 O   0  0  0  0  0  0  0  0  0  0  0  0
   55.6355   26.7622   45.3417 H   0  0  0  0  0  0  0  0  0  0  0  0
  1  2  1  0
  2  3  2  0
  3  4  1  0
  4 15  1  0
 15 16  1  0
 16 17  2  0
 17 18  1  0
 17 19  1  0
 19 20  1  0
 20 21  2  0
 20 22  1  0
 22 23  1  0
 23 24  2  0
  4  5  2  0
  5  6  1  0
  6  7  2  0
  7  8  1  0
  8  9  1  0
  8 10  2  0
 10 11  1  0
 11 12  2  0
 11 13  1  0
 13 14  1  0
  7  2  1  0
 23 16  1  0
 13  6  1  0
 18 25  1  0
M  CHG 1  14  -1
M  CHG 1  19  -1
M  CHG 1  22  -1
M  END
> <UniqueID>
79

> <SMILES>
Cc1cc(Cc2c(O)[n-]c(=S)[n-]c2=O)cc2c1c(C)cc(=O)n2[O-]

> <Energy>
57.07298767381166

> <Genealogy>
Cc1cc(Cc2c(O)[n-]c(=S)[n-]c2=O)cc2c1c(C)cc(=O)n2[O-] (protonated)
Cc1cc(Cc2c(O)[n-]c(=S)[n-]c2=O)cc2c1c(C)cc(=O)n2[O-] (3D coordinates assigned)
Cc1cc(Cc2c(O)[n-]c(=S)[n-]c2=O)cc2c1c(C)cc(=O)n2[O-] (optimized conformer: 57.07298767381166 kcal/mol)

> <smiles>
Cc1cc(Cc2c(O)[nH]c(=S)[nH]c2=O)cc2c1c(C)cc(=O)n2O

> <score_type>
oracle

> <origin>
adg

> <m_score__min__energy>
-14.02

> <m_primary>
energy

> <minimizedAffinity>
-9.71247

> <minimizedRMSD>
0.98123

> <CNNscore>
0.4703836143

> <CNNaffinity>
6.5303654671

> <CNN_VS>
3.0717768669

> <CNNaffinity_variance>
0.2664501965

$$$$
3:0


 29 31  0  0  0  0  0  0  0  0999 V2000
   58.7946   31.6975   46.3431 C   0  0  0  0  0  0  0  0  0  0  0  0
   58.3072   32.7963   45.6259 C   0  0  0  0  0  0  0  0  0  0  0  0
   59.0496   33.9778   45.5542 C   0  0  0  0  0  0  0  0  0  0  0  0
   60.2907   34.0664   46.1886 C   0  0  0  0  0  0  0  0  0  0  0  0
   60.8009   32.9666   46.8904 C   0  0  0  0  0  0  0  0  0  0  0  0
   60.0604   31.7768   46.9513 C   0  0  0  0  0  0  0  0  0  0  0  0
   62.3735   33.0727   47.6777 S   0  0  0  0  0  0  0  0  0  0  0  0
   62.8272   31.6899   48.0497 O   0  0  0  0  0  0  0  0  0  0  0  0
   63.3790   33.6903   46.7468 O   0  0  0  0  0  0  0  0  0  0  0  0
   62.2676   34.0403   49.1133 N   0  0  0  0  0  0  0  0  0  0  0  0
   62.6265   33.6145   50.2841 C   0  0  0  0  0  0  0  0  0  0  0  0
   63.9110   33.5280   50.6953 N   0  0  0  0  0  0  0  0  0  0  0  0
   63.9906   33.0668   51.9708 C   0  0  0  0  0  0  0  0  0  0  0  0
   62.7699   32.7849   52.5752 C   0  0  0  0  0  0  0  0  0  0  0  0
   61.5456   33.1285   51.4712 S   0  0  0  0  0  0  0  0  0  0  0  0
   58.0141   30.4945   46.3794 N   0  0  0  0  0  0  0  0  0  0  0  0
   58.1196   29.3898   45.4711 C   0  0  0  0  0  0  0  0  0  0  0  0
   57.8525   29.5437   44.2495 O   0  0  0  0  0  0  0  0  0  0  0  0
   57.9908   27.1945   46.6604 C   0  0  0  0  0  0  0  0  0  0  0  0
   58.6599   28.0947   45.9246 C   0  0  0  0  0  0  0  0  0  0  0  0
   55.6217   23.1054   45.1622 O   0  0  0  0  0  0  0  0  0  0  0  0
   56.6287   23.9972   45.5233 C   0  0  0  0  0  0  0  0  0  0  0  0
   56.4229   25.2717   45.9941 C   0  0  0  0  0  0  0  0  0  0  0  0
   55.1912   25.8966   46.1504 O   0  0  0  0  0  0  0  0  0  0  0  0
   57.6710   25.8215   46.2328 C   0  0  0  0  0  0  0  0  0  0  0  0
   58.5932   24.8591   45.8539 C   0  0  0  0  0  0  0  0  0  0  0  0
   57.9517   23.7442   45.4427 N   0  0  0  0  0  0  0  0  0  0  0  0
   58.5787   22.5187   44.9576 C   0  0  0  0  0  0  0  0  0  0  0  0
   54.7225   23.3547   45.2472 H   0  0  0  0  0  0  0  0  0  0  0  0
 21 22  1  0
 22 23  2  0
 23 24  1  0
 23 25  1  0
 25 19  1  0
 19 20  2  0
 20 17  1  0
 17 18  2  0
 17 16  1  0
 16  1  1  0
  1  2  2  0
  2  3  1  0
  3  4  2  0
  4  5  1  0
  5  7  1  0
  7  8  2  0
  7  9  2  0
  7 10  1  0
 10 11  2  0
 11 12  1  0
 12 13  1  0
 13 14  2  0
 14 15  1  0
  5  6  2  0
 25 26  2  0
 26 27  1  0
 27 28  1  0
 27 22  1  0
  6  1  1  0
 15 11  1  0
 21 29  1  0
M  CHG 1  12  -1
M  CHG 1  16  -1
M  CHG 1  24  -1
M  END
> <UniqueID>
4

> <SMILES>
Cn1cc(C=CC(=O)[N-]c2cccc(S(=O)(=O)/N=c3\[n-]ccs3)c2)c([O-])c1O

> <Energy>
112.63859930207069

> <Genealogy>
Cn1cc(C=CC(=O)[N-]c2cccc(S(=O)(=O)N=c3[n-]ccs3)c2)c([O-])c1O (protonated)
Cn1cc(C=CC(=O)[N-]c2cccc(S(=O)(=O)/N=c3\[n-]ccs3)c2)c([O-])c1O (cis-trans isomerization)
Cn1cc(C=CC(=O)[N-]c2cccc(S(=O)(=O)/N=c3\[n-]ccs3)c2)c([O-])c1O (3D coordinates assigned)
Cn1cc(C=CC(=O)[N-]c2cccc(S(=O)(=O)/N=c3\[n-]ccs3)c2)c([O-])c1O (optimized conformer: 112.63859930207069 kcal/mol)

> <smiles>
Cn1cc(C=CC(=O)Nc2cccc(S(=O)(=O)N=c3[nH]ccs3)c2)c(O)c1O

> <score_type>
oracle

> <origin>
adg

> <m_score__min__energy>
-14.789999999999999

> <m_primary>
energy

> <minimizedAffinity>
-8.37472

> <minimizedRMSD>
1.48760

> <CNNscore>
0.6489890814

> <CNNaffinity>
6.8452339172

> <CNN_VS>
4.4424819946

> <CNNaffinity_variance>
0.3077327013

$$$$
15:0


 25 27  0  0  0  0  0  0  0  0999 V2000
   60.9130   29.7469   46.9480 C   0  0  0  0  0  0  0  0  0  0  0  0
   60.0110   30.6084   46.4507 C   0  0  0  0  0  0  0  0  0  0  0  0
   59.0821   30.3436   45.4399 C   0  0  0  0  0  0  0  0  0  0  0  0
   58.9095   29.1906   44.7658 C   0  0  0  0  0  0  0  0  0  0  0  0
   58.3923   31.5297   45.2225 C   0  0  0  0  0  0  0  0  0  0  0  0
   58.9071   32.4536   46.1092 C   0  0  0  0  0  0  0  0  0  0  0  0
   58.4612   33.8813   46.2041 C   0  0  0  0  0  0  0  0  0  0  0  0
   59.8935   31.8997   46.8494 N   0  0  0  0  0  0  0  0  0  0  0  0
   58.3879   27.9525   45.3885 C   0  0  0  0  0  0  0  0  0  0  0  0
   57.0114   27.7546   45.5973 C   0  0  0  0  0  0  0  0  0  0  0  0
   56.0871   28.7231   45.2215 O   0  0  0  0  0  0  0  0  0  0  0  0
   56.5725   26.6151   46.1912 N   0  0  0  0  0  0  0  0  0  0  0  0
   57.4440   25.6618   46.6074 C   0  0  0  0  0  0  0  0  0  0  0  0
   56.8872   24.3023   47.3174 S   0  0  0  0  0  0  0  0  0  0  0  0
   58.7790   25.8436   46.4450 N   0  0  0  0  0  0  0  0  0  0  0  0
   59.2685   26.9646   45.8555 C   0  0  0  0  0  0  0  0  0  0  0  0
   60.5149   27.0999   45.7237 O   0  0  0  0  0  0  0  0  0  0  0  0
   60.6530   32.5684   47.8728 C   0  0  0  0  0  0  0  0  0  0  0  0
   60.1297   32.7041   49.1662 C   0  0  0  0  0  0  0  0  0  0  0  0
   60.8611   33.3633   50.1580 C   0  0  0  0  0  0  0  0  0  0  0  0
   62.1286   33.9001   49.8659 C   0  0  0  0  0  0  0  0  0  0  0  0
   62.6455   33.7654   48.5709 C   0  0  0  0  0  0  0  0  0  0  0  0
   61.9141   33.1062   47.5792 C   0  0  0  0  0  0  0  0  0  0  0  0
   62.9020   34.5707   50.8250 O   0  0  0  0  0  0  0  0  0  0  0  0
   63.8926   33.9484   51.6358 C   0  0  0  0  0  0  0  0  0  0  0  0
  1  2  2  0
  2  3  1  0
  3  4  2  0
  4  9  1  0
  9 10  2  0
 10 11  1  0
 10 12  1  0
 12 13  1  0
 13 14  2  0
 13 15  1  0
 15 16  1  0
 16 17  2  0
  3  5  1  0
  5  6  2  0
  6  7  1  0
  6  8  1  0
  8 18  1  0
 18 19  2  0
 19 20  1  0
 20 21  2  0
 21 24  1  0
 24 25  1  0
 21 22  1  0
 22 23  2  0
  8  2  1  0
 23 18  1  0
 16  9  1  0
M  CHG 1  11  -1
M  CHG 1  12  -1
M  CHG 1  15  -1
M  END
> <UniqueID>
14

> <SMILES>
C=c1/c(=C/c2c([O-])[n-]c(=S)[n-]c2=O)cc(C)n1-c1ccc(OC)cc1

> <Energy>
85.57002580418731

> <Genealogy>
C=c1c(=Cc2c([O-])[n-]c(=S)[n-]c2=O)cc(C)n1-c1ccc(OC)cc1 (protonated)
C=c1/c(=C/c2c([O-])[n-]c(=S)[n-]c2=O)cc(C)n1-c1ccc(OC)cc1 (cis-trans isomerization)
C=c1/c(=C/c2c([O-])[n-]c(=S)[n-]c2=O)cc(C)n1-c1ccc(OC)cc1 (3D coordinates assigned)
C=c1/c(=C/c2c([O-])[n-]c(=S)[n-]c2=O)cc(C)n1-c1ccc(OC)cc1 (optimized conformer: 85.57002580418731 kcal/mol)

> <smiles>
C=c1c(=Cc2c(O)[nH]c(=S)[nH]c2=O)cc(C)n1-c1ccc(OC)cc1

> <score_type>
oracle

> <origin>
adg

> <m_score__min__energy>
-14.529999999999999

> <m_primary>
energy

> <minimizedAffinity>
-6.59181

> <minimizedRMSD>
1.06506

> <CNNscore>
0.3281998038

> <CNNaffinity>
6.5906677246

> <CNN_VS>
2.1630558968

> <CNNaffinity_variance>
0.1927543133

$$$$
71:0


 23 24  0  0  0  0  0  0  0  0999 V2000
   57.3700   30.9990   51.9696 C   0  0  0  0  0  0  0  0  0  0  0  0
   57.6096   32.2170   51.7582 O   0  0  0  0  0  0  0  0  0  0  0  0
   58.0218   30.0162   51.1571 N   0  0  0  0  0  0  0  0  0  0  0  0
   59.3458   30.1697   50.5690 C   0  0  0  0  0  0  0  0  0  0  0  0
   59.0214   31.3976   46.9684 C   0  0  0  0  0  0  0  0  0  0  0  0
   59.1676   31.3898   48.3711 C   0  0  0  0  0  0  0  0  0  0  0  0
   59.2260   30.1748   49.0722 C   0  0  0  0  0  0  0  0  0  0  0  0
   59.1108   28.9655   48.3704 C   0  0  0  0  0  0  0  0  0  0  0  0
   58.9660   28.9692   46.9820 C   0  0  0  0  0  0  0  0  0  0  0  0
   58.9234   30.1791   46.2832 C   0  0  0  0  0  0  0  0  0  0  0  0
   58.7805   30.1676   44.8997 O   0  0  0  0  0  0  0  0  0  0  0  0
   57.8563   33.4808   46.2166 C   0  0  0  0  0  0  0  0  0  0  0  0
   58.9664   32.5892   46.2279 O   0  0  0  0  0  0  0  0  0  0  0  0
   56.3732   30.6242   53.0357 C   0  0  0  0  0  0  0  0  0  0  0  0
   55.2997   29.6663   52.5022 C   0  0  0  0  0  0  0  0  0  0  0  0
   53.9085   30.2073   52.7168 C   0  0  0  0  0  0  0  0  0  0  0  0
   53.2779   30.0610   53.9620 C   0  0  0  0  0  0  0  0  0  0  0  0
   51.9996   30.5879   54.1719 C   0  0  0  0  0  0  0  0  0  0  0  0
   51.3432   31.2666   53.1414 C   0  0  0  0  0  0  0  0  0  0  0  0
   50.0721   31.7869   53.3557 O   0  0  0  0  0  0  0  0  0  0  0  0
   51.9685   31.4248   51.8990 C   0  0  0  0  0  0  0  0  0  0  0  0
   51.3234   32.1044   50.8718 O   0  0  0  0  0  0  0  0  0  0  0  0
   53.2487   30.8985   51.6880 C   0  0  0  0  0  0  0  0  0  0  0  0
 12 13  1  0
 13  5  1  0
  5  6  2  0
  6  7  1  0
  7  4  1  0
  4  3  1  0
  3  1  1  0
  1  2  2  0
  1 14  1  0
 14 15  1  0
 15 16  1  0
 16 17  2  0
 17 18  1  0
 18 19  2  0
 19 20  1  0
 19 21  1  0
 21 22  1  0
 21 23  2  0
  7  8  2  0
  8  9  1  0
  9 10  2  0
 10 11  1  0
 10  5  1  0
 23 16  1  0
M  CHG 1   3  -1
M  CHG 1  11  -1
M  CHG 1  20  -1
M  CHG 1  22  -1
M  END
> <UniqueID>
67

> <SMILES>
COc1cc(C[N-]C(=O)CCc2ccc([O-])c([O-])c2)ccc1[O-]

> <Energy>
32.51904599120619

> <Genealogy>
COc1cc(C[N-]C(=O)CCc2ccc([O-])c([O-])c2)ccc1[O-] (protonated)
COc1cc(C[N-]C(=O)CCc2ccc([O-])c([O-])c2)ccc1[O-] (3D coordinates assigned)
COc1cc(C[N-]C(=O)CCc2ccc([O-])c([O-])c2)ccc1[O-] (optimized conformer: 32.51904599120619 kcal/mol)

> <smiles>
COc1cc(CNC(=O)CCc2ccc(O)c(O)c2)ccc1O

> <score_type>
oracle

> <origin>
adg

> <m_score__min__energy>
-16.640000000000001

> <m_primary>
energy

> <minimizedAffinity>
-6.28724

> <minimizedRMSD>
1.20469

> <CNNscore>
0.2257252634

> <CNNaffinity>
4.5996952057

> <CNN_VS>
1.0382673740

> <CNNaffinity_variance>
0.1462454349

$$$$
80:0


 31 33  0  0  0  0  0  0  0  0999 V2000
   59.9539   28.6207   45.5040 C   0  0  0  0  0  0  0  0  0  0  0  0
   60.9056   28.5873   44.6780 O   0  0  0  0  0  0  0  0  0  0  0  0
   58.6503   28.1202   45.1283 N   0  0  0  0  0  0  0  0  0  0  0  0
   58.2494   26.7948   45.5174 C   0  0  0  0  0  0  0  0  0  0  0  0
   59.0534   25.6758   45.5151 C   0  0  0  0  0  0  0  0  0  0  0  0
   58.2255   24.6384   45.9020 C   0  0  0  0  0  0  0  0  0  0  0  0
   58.6281   23.3147   46.0425 O   0  0  0  0  0  0  0  0  0  0  0  0
   56.9610   25.0498   46.1281 N   0  0  0  0  0  0  0  0  0  0  0  0
   56.9846   26.3728   45.8826 C   0  0  0  0  0  0  0  0  0  0  0  0
   55.8525   27.1761   45.9475 O   0  0  0  0  0  0  0  0  0  0  0  0
   59.5183   23.0754   45.8744 H   0  0  0  0  0  0  0  0  0  0  0  0
   61.1960   30.9422   48.2215 C   0  0  0  0  0  0  0  0  0  0  0  0
   60.6567   30.3341   49.3631 C   0  0  0  0  0  0  0  0  0  0  0  0
   59.8928   29.1706   49.2460 C   0  0  0  0  0  0  0  0  0  0  0  0
   59.6645   28.6058   47.9880 C   0  0  0  0  0  0  0  0  0  0  0  0
   60.2119   29.1965   46.8388 C   0  0  0  0  0  0  0  0  0  0  0  0
   60.9589   30.3781   46.9598 C   0  0  0  0  0  0  0  0  0  0  0  0
   63.7559   32.0300   48.8380 N   0  0  0  0  0  0  0  0  0  0  0  0
   62.1413   32.4208   48.3619 S   0  0  0  0  0  0  0  0  0  0  0  0
   62.1703   33.1364   47.0416 O   0  0  0  0  0  0  0  0  0  0  0  0
   61.5181   33.3253   49.3871 O   0  0  0  0  0  0  0  0  0  0  0  0
   64.3032   32.8869   48.9193 H   0  0  0  0  0  0  0  0  0  0  0  0
   57.7013   28.9461   44.3598 C   0  0  0  0  0  0  0  0  0  0  0  0
   57.3583   30.2483   45.1022 C   0  0  0  0  0  0  0  0  0  0  0  0
   57.7819   31.5138   44.3385 C   0  0  0  0  0  0  0  0  0  0  0  0
   58.2921   32.5894   45.2634 C   0  0  0  0  0  0  0  0  0  0  0  0
   58.8632   33.7622   44.7447 C   0  0  0  0  0  0  0  0  0  0  0  0
   59.3155   34.7617   45.6085 C   0  0  0  0  0  0  0  0  0  0  0  0
   59.1931   34.5795   46.9882 C   0  0  0  0  0  0  0  0  0  0  0  0
   58.6404   33.4386   47.4779 N   0  0  0  0  0  0  0  0  0  0  0  0
   58.1924   32.4508   46.6568 C   0  0  0  0  0  0  0  0  0  0  0  0
 18 19  1  0
 19 20  2  0
 19 21  2  0
 19 12  1  0
 12 13  2  0
 13 14  1  0
 14 15  2  0
 15 16  1  0
 16  1  1  0
  1  2  2  0
  1  3  1  0
  3 23  1  0
 23 24  1  0
 24 25  1  0
 25 26  1  0
 26 27  2  0
 27 28  1  0
 28 29  2  0
 29 30  1  0
 30 31  2  0
  3  4  1  0
  4  5  1  0
  5  6  2  0
  6  7  1  0
  6  8  1  0
  8  9  1  0
  9 10  1  0
 16 17  2  0
 17 12  1  0
 31 26  1  0
  9  4  2  0
 18 22  1  0
  7 11  1  0
M  CHG 1   8  -1
M  CHG 1  10  -1
M  CHG 1  18  -1
M  END
> <UniqueID>
75

> <SMILES>
[NH-]S(=O)(=O)c1cccc(C(=O)N(CCCc2cccnc2)c2cc(O)[n-]c2[O-])c1

> <Energy>
82.41900927562877

> <Genealogy>
[NH-]S(=O)(=O)c1cccc(C(=O)N(CCCc2cccnc2)c2cc(O)[n-]c2[O-])c1 (protonated)
[NH-]S(=O)(=O)c1cccc(C(=O)N(CCCc2cccnc2)c2cc(O)[n-]c2[O-])c1 (3D coordinates assigned)
[NH-]S(=O)(=O)c1cccc(C(=O)N(CCCc2cccnc2)c2cc(O)[n-]c2[O-])c1 (optimized conformer: 82.41900927562877 kcal/mol)

> <smiles>
NS(=O)(=O)c1cccc(C(=O)N(CCCc2cccnc2)c2cc(O)[nH]c2O)c1

> <score_type>
oracle

> <origin>
adg

> <m_score__min__energy>
-14.380000000000001

> <m_primary>
energy

> <minimizedAffinity>
-7.51925

> <minimizedRMSD>
1.35507

> <CNNscore>
0.4683102369

> <CNNaffinity>
6.8081302643

> <CNN_VS>
3.1883170605

> <CNNaffinity_variance>
0.1564088315

$$$$
7:0


 24 26  0  0  0  0  0  0  0  0999 V2000
   58.1924   28.2332   47.4453 O   0  0  0  0  0  0  0  0  0  0  0  0
   58.6100   28.6593   46.3374 C   0  0  0  0  0  0  0  0  0  0  0  0
   58.5541   30.1073   46.0530 C   0  0  0  0  0  0  0  0  0  0  0  0
   57.4509   30.6270   45.3613 C   0  0  0  0  0  0  0  0  0  0  0  0
   56.4404   29.7855   44.9078 O   0  0  0  0  0  0  0  0  0  0  0  0
   57.3557   31.9609   45.1258 N   0  0  0  0  0  0  0  0  0  0  0  0
   58.2999   32.8418   45.5433 C   0  0  0  0  0  0  0  0  0  0  0  0
   58.1448   34.0676   45.2963 O   0  0  0  0  0  0  0  0  0  0  0  0
   59.4314   32.3821   46.2432 C   0  0  0  0  0  0  0  0  0  0  0  0
   60.4150   33.2745   46.7090 C   0  0  0  0  0  0  0  0  0  0  0  0
   61.5176   32.7981   47.4196 C   0  0  0  0  0  0  0  0  0  0  0  0
   61.6564   31.4345   47.6699 C   0  0  0  0  0  0  0  0  0  0  0  0
   60.6931   30.5335   47.2104 C   0  0  0  0  0  0  0  0  0  0  0  0
   59.5659   30.9913   46.4950 C   0  0  0  0  0  0  0  0  0  0  0  0
   59.1093   27.7254   45.3710 N   0  0  0  0  0  0  0  0  0  0  0  0
   58.3273   27.1604   44.2727 C   0  0  0  0  0  0  0  0  0  0  0  0
   57.9108   25.7461   44.5801 C   0  0  0  0  0  0  0  0  0  0  0  0
   58.3139   25.1277   45.7767 C   0  0  0  0  0  0  0  0  0  0  0  0
   57.9671   23.7984   46.0341 C   0  0  0  0  0  0  0  0  0  0  0  0
   57.2101   23.0796   45.1073 C   0  0  0  0  0  0  0  0  0  0  0  0
   56.7894   23.6871   43.9197 C   0  0  0  0  0  0  0  0  0  0  0  0
   56.0362   22.9584   43.0041 O   0  0  0  0  0  0  0  0  0  0  0  0
   57.1357   25.0204   43.6593 C   0  0  0  0  0  0  0  0  0  0  0  0
   55.8098   22.0678   43.1871 H   0  0  0  0  0  0  0  0  0  0  0  0
  1  2  2  0
  2 15  1  0
 15 16  1  0
 16 17  1  0
 17 18  2  0
 18 19  1  0
 19 20  2  0
 20 21  1  0
 21 22  1  0
 21 23  2  0
  2  3  1  0
  3  4  2  0
  4  5  1  0
  4  6  1  0
  6  7  1  0
  7  8  2  0
  7  9  1  0
  9 10  2  0
 10 11  1  0
 11 12  2  0
 12 13  1  0
 13 14  2  0
 23 17  1  0
 14  3  1  0
 14  9  1  0
 22 24  1  0
M  CHG 1   5  -1
M  CHG 1   6  -1
M  CHG 1  15  -1
M  END
> <UniqueID>
6

> <SMILES>
O=C([N-]Cc1cccc(O)c1)c1c([O-])[n-]c(=O)c2ccccc12

> <Energy>
44.9115299795592

> <Genealogy>
O=C([N-]Cc1cccc(O)c1)c1c([O-])[n-]c(=O)c2ccccc12 (protonated)
O=C([N-]Cc1cccc(O)c1)c1c([O-])[n-]c(=O)c2ccccc12 (3D coordinates assigned)
O=C([N-]Cc1cccc(O)c1)c1c([O-])[n-]c(=O)c2ccccc12 (optimized conformer: 44.9115299795592 kcal/mol)

> <smiles>
O=C(NCc1cccc(O)c1)c1c(O)[nH]c(=O)c2ccccc12

> <score_type>
oracle

> <origin>
adg

> <m_score__min__energy>
-15.550000000000001

> <m_primary>
energy

> <minimizedAffinity>
-8.38346

> <minimizedRMSD>
3.58976

> <CNNscore>
0.4642258286

> <CNNaffinity>
6.2445392609

> <CNN_VS>
2.8988764286

> <CNNaffinity_variance>
0.2486909628

$$$$
62:0


 25 27  0  0  0  0  0  0  0  0999 V2000
   60.4294   28.6910   48.0797 C   0  0  0  0  0  0  0  0  0  0  0  0
   60.0753   28.8297   49.4258 C   0  0  0  0  0  0  0  0  0  0  0  0
   60.3197   27.8039   50.3324 O   0  0  0  0  0  0  0  0  0  0  0  0
   59.4727   29.9644   49.8531 N   0  0  0  0  0  0  0  0  0  0  0  0
   59.2037   30.9887   49.0063 C   0  0  0  0  0  0  0  0  0  0  0  0
   58.6126   32.0105   49.4508 O   0  0  0  0  0  0  0  0  0  0  0  0
   59.5609   30.9038   47.6859 N   0  0  0  0  0  0  0  0  0  0  0  0
   60.1953   29.7812   47.2197 C   0  0  0  0  0  0  0  0  0  0  0  0
   60.5969   29.7312   46.0231 O   0  0  0  0  0  0  0  0  0  0  0  0
   59.2587   31.9879   46.7807 C   0  0  0  0  0  0  0  0  0  0  0  0
   60.0473   33.1502   46.7741 C   0  0  0  0  0  0  0  0  0  0  0  0
   59.7512   34.1960   45.8929 C   0  0  0  0  0  0  0  0  0  0  0  0
   58.6688   34.0868   45.0162 C   0  0  0  0  0  0  0  0  0  0  0  0
   57.8802   32.9326   45.0156 C   0  0  0  0  0  0  0  0  0  0  0  0
   58.1718   31.8853   45.8954 C   0  0  0  0  0  0  0  0  0  0  0  0
   60.5071   26.5663   46.7567 C   0  0  0  0  0  0  0  0  0  0  0  0
   61.0669   27.4380   47.6120 C   0  0  0  0  0  0  0  0  0  0  0  0
   59.0522   26.3681   46.5733 C   0  0  0  0  0  0  0  0  0  0  0  0
   58.4002   25.2058   47.0269 C   0  0  0  0  0  0  0  0  0  0  0  0
   57.0236   25.0517   46.8425 C   0  0  0  0  0  0  0  0  0  0  0  0
   56.2881   26.0424   46.1865 C   0  0  0  0  0  0  0  0  0  0  0  0
   54.9176   25.8850   46.0115 O   0  0  0  0  0  0  0  0  0  0  0  0
   56.9325   27.1863   45.7032 C   0  0  0  0  0  0  0  0  0  0  0  0
   56.2074   28.1700   45.0395 O   0  0  0  0  0  0  0  0  0  0  0  0
   58.3109   27.3435   45.8874 C   0  0  0  0  0  0  0  0  0  0  0  0
 16 17  2  0
 17  1  1  0
  1  2  2  0
  2  3  1  0
  2  4  1  0
  4  5  1  0
  5  6  2  0
  5  7  1  0
  7 10  1  0
 10 11  2  0
 11 12  1  0
 12 13  2  0
 13 14  1  0
 14 15  2  0
  7  8  1  0
  8  9  2  0
 16 18  1  0
 18 19  2  0
 19 20  1  0
 20 21  2  0
 21 22  1  0
 21 23  1  0
 23 24  1  0
 23 25  2  0
  8  1  1  0
 25 18  1  0
 15 10  1  0
M  CHG 1   3  -1
M  CHG 1   4  -1
M  CHG 1  22  -1
M  CHG 1  24  -1
M  END
> <UniqueID>
58

> <SMILES>
O=c1[n-]c([O-])c(/C=C\c2ccc([O-])c([O-])c2)c(=O)n1-c1ccccc1

> <Energy>
60.208978744460445

> <Genealogy>
O=c1[n-]c([O-])c(C=Cc2ccc([O-])c([O-])c2)c(=O)n1-c1ccccc1 (protonated)
O=c1[n-]c([O-])c(/C=C\c2ccc([O-])c([O-])c2)c(=O)n1-c1ccccc1 (cis-trans isomerization)
O=c1[n-]c([O-])c(/C=C\c2ccc([O-])c([O-])c2)c(=O)n1-c1ccccc1 (3D coordinates assigned)
O=c1[n-]c([O-])c(/C=C\c2ccc([O-])c([O-])c2)c(=O)n1-c1ccccc1 (optimized conformer: 60.208978744460445 kcal/mol)

> <smiles>
O=c1[nH]c(O)c(C=Cc2ccc(O)c(O)c2)c(=O)n1-c1ccccc1

> <score_type>
oracle

> <origin>
adg

> <m_score__min__energy>
-17.690000000000001

> <m_primary>
energy

> <minimizedAffinity>
-6.33701

> <minimizedRMSD>
0.66394

> <CNNscore>
0.5074266195

> <CNNaffinity>
6.2679405212

> <CNN_VS>
3.1805198193

> <CNNaffinity_variance>
0.0820201114

$$$$
63:0


 28 30  0  0  0  0  0  0  0  0999 V2000
   59.7647   33.4443   47.0515 C   0  0  0  0  0  0  0  0  0  0  0  0
   59.5350   34.5376   46.1951 C   0  0  0  0  0  0  0  0  0  0  0  0
   58.7730   34.3804   45.0349 C   0  0  0  0  0  0  0  0  0  0  0  0
   58.2339   33.1338   44.7135 C   0  0  0  0  0  0  0  0  0  0  0  0
   58.4527   32.0350   45.5516 C   0  0  0  0  0  0  0  0  0  0  0  0
   59.2186   32.1900   46.7164 C   0  0  0  0  0  0  0  0  0  0  0  0
   57.7586   30.4716   45.1347 S   0  0  0  0  0  0  0  0  0  0  0  0
   58.4507   29.8737   43.9404 O   0  0  0  0  0  0  0  0  0  0  0  0
   56.3042   30.6581   44.8088 O   0  0  0  0  0  0  0  0  0  0  0  0
   57.9035   29.3878   46.4803 N   0  0  0  0  0  0  0  0  0  0  0  0
   58.5295   28.0963   46.4427 C   0  0  0  0  0  0  0  0  0  0  0  0
   59.8946   27.9203   46.7361 C   0  0  0  0  0  0  0  0  0  0  0  0
   60.4660   26.6458   46.6902 C   0  0  0  0  0  0  0  0  0  0  0  0
   59.6858   25.5402   46.3463 C   0  0  0  0  0  0  0  0  0  0  0  0
   58.3306   25.7064   46.0508 C   0  0  0  0  0  0  0  0  0  0  0  0
   57.7526   26.9779   46.0995 C   0  0  0  0  0  0  0  0  0  0  0  0
   56.4014   27.1295   45.8059 O   0  0  0  0  0  0  0  0  0  0  0  0
   60.2709   34.4986   49.1216 O   0  0  0  0  0  0  0  0  0  0  0  0
   60.5738   33.6071   48.2818 C   0  0  0  0  0  0  0  0  0  0  0  0
   61.7668   32.8294   48.4674 N   0  0  0  0  0  0  0  0  0  0  0  0
   62.6235   32.8577   49.4534 C   0  0  0  0  0  0  0  0  0  0  0  0
   63.9472   32.8743   49.1332 N   0  0  0  0  0  0  0  0  0  0  0  0
   64.9291   32.9167   50.0707 C   0  0  0  0  0  0  0  0  0  0  0  0
   64.6005   32.9439   51.4229 C   0  0  0  0  0  0  0  0  0  0  0  0
   63.2600   32.9012   51.7980 C   0  0  0  0  0  0  0  0  0  0  0  0
   62.2540   32.8325   50.8235 C   0  0  0  0  0  0  0  0  0  0  0  0
   60.9271   32.6900   51.2312 O   0  0  0  0  0  0  0  0  0  0  0  0
   60.7162   32.6772   52.1441 H   0  0  0  0  0  0  0  0  0  0  0  0
 18 19  2  0
 19 20  1  0
 20 21  2  0
 21 22  1  0
 22 23  1  0
 23 24  2  0
 24 25  1  0
 25 26  2  0
 26 27  1  0
 19  1  1  0
  1  2  2  0
  2  3  1  0
  3  4  2  0
  4  5  1  0
  5  7  1  0
  7  8  2  0
  7  9  2  0
  7 10  1  0
 10 11  1  0
 11 12  2  0
 12 13  1  0
 13 14  2  0
 14 15  1  0
 15 16  2  0
 16 17  1  0
  5  6  2  0
 26 21  1  0
  6  1  1  0
 16 11  1  0
 27 28  1  0
M  CHG 1  10  -1
M  CHG 1  17  -1
M  CHG 1  22  -1
M  END
> <UniqueID>
59

> <SMILES>
O=C(N=c1[n-]cccc1O)c1cccc(S(=O)(=O)[N-]c2ccccc2[O-])c1

> <Energy>
58.6499978412809

> <Genealogy>
O=C(N=c1[n-]cccc1O)c1cccc(S(=O)(=O)[N-]c2ccccc2[O-])c1 (protonated)
O=C(N=c1[n-]cccc1O)c1cccc(S(=O)(=O)[N-]c2ccccc2[O-])c1 (3D coordinates assigned)
O=C(N=c1[n-]cccc1O)c1cccc(S(=O)(=O)[N-]c2ccccc2[O-])c1 (optimized conformer: 58.6499978412809 kcal/mol)

> <smiles>
O=C(N=c1[nH]cccc1O)c1cccc(S(=O)(=O)Nc2ccccc2O)c1

> <score_type>
oracle

> <origin>
adg

> <m_score__min__energy>
-15

> <m_primary>
energy

> <minimizedAffinity>
-7.93110

> <minimizedRMSD>
2.18191

> <CNNscore>
0.7642827630

> <CNNaffinity>
6.6042304039

> <CNN_VS>
5.0474996567

> <CNNaffinity_variance>
0.1515396386

$$$$
8:0


 33 36  0  0  0  0  0  0  0  0999 V2000
   58.5584   32.7094   43.8368 N   0  0  0  0  0  0  0  0  0  0  0  0
   58.3025   33.5358   45.3430 S   0  0  0  0  0  0  0  0  0  0  0  0
   58.4009   35.0226   45.1439 O   0  0  0  0  0  0  0  0  0  0  0  0
   56.9214   33.2170   45.8393 O   0  0  0  0  0  0  0  0  0  0  0  0
   62.3793   31.2687   50.5850 C   0  0  0  0  0  0  0  0  0  0  0  0
   62.3378   30.0140   50.6784 O   0  0  0  0  0  0  0  0  0  0  0  0
   62.4490   31.8962   49.2918 N   0  0  0  0  0  0  0  0  0  0  0  0
   63.6411   32.5582   48.7563 C   0  0  0  0  0  0  0  0  0  0  0  0
   63.1656   33.3964   47.5466 C   0  0  0  0  0  0  0  0  0  0  0  0
   61.7212   33.0586   47.4413 C   0  0  0  0  0  0  0  0  0  0  0  0
   60.8098   33.4909   46.4771 C   0  0  0  0  0  0  0  0  0  0  0  0
   59.4878   33.0168   46.5381 C   0  0  0  0  0  0  0  0  0  0  0  0
   59.1130   32.1188   47.5608 C   0  0  0  0  0  0  0  0  0  0  0  0
   60.0474   31.7053   48.5215 C   0  0  0  0  0  0  0  0  0  0  0  0
   61.3505   32.2093   48.4474 C   0  0  0  0  0  0  0  0  0  0  0  0
   61.0568   32.8748   51.9491 C   0  0  0  0  0  0  0  0  0  0  0  0
   62.3569   32.0844   51.8468 C   0  0  0  0  0  0  0  0  0  0  0  0
   57.5975   31.6207   43.6911 C   0  0  0  0  0  0  0  0  0  0  0  0
   58.1446   30.3484   44.3405 C   0  0  0  0  0  0  0  0  0  0  0  0
   57.0863   29.5997   45.0964 C   0  0  0  0  0  0  0  0  0  0  0  0
   55.9028   29.5675   44.6611 O   0  0  0  0  0  0  0  0  0  0  0  0
   57.4452   28.8608   46.2611 N   0  0  0  0  0  0  0  0  0  0  0  0
   58.3025   27.7132   46.2465 C   0  0  0  0  0  0  0  0  0  0  0  0
   59.6912   27.8818   46.4111 C   0  0  0  0  0  0  0  0  0  0  0  0
   60.5550   26.7692   46.3922 C   0  0  0  0  0  0  0  0  0  0  0  0
   60.0406   25.4709   46.2364 C   0  0  0  0  0  0  0  0  0  0  0  0
   58.6636   25.3239   46.1004 C   0  0  0  0  0  0  0  0  0  0  0  0
   57.8117   26.4058   46.1054 C   0  0  0  0  0  0  0  0  0  0  0  0
   56.4500   25.8677   46.0320 C   0  0  0  0  0  0  0  0  0  0  0  0
   55.3938   26.5463   46.0610 O   0  0  0  0  0  0  0  0  0  0  0  0
   56.4584   24.4404   45.9567 N   0  0  0  0  0  0  0  0  0  0  0  0
   57.8489   24.1222   45.9979 C   0  0  0  0  0  0  0  0  0  0  0  0
   58.2940   22.9447   45.9656 O   0  0  0  0  0  0  0  0  0  0  0  0
 16 17  1  0
 17  5  1  0
  5  6  2  0
  5  7  1  0
  7  8  1  0
  8  9  1  0
  9 10  1  0
 10 11  2  0
 11 12  1  0
 12  2  1  0
  2  3  2  0
  2  4  2  0
  2  1  1  0
  1 18  1  0
 18 19  1  0
 19 20  1  0
 20 21  2  0
 20 22  1  0
 22 23  1  0
 23 24  2  0
 24 25  1  0
 25 26  2  0
 26 27  1  0
 27 28  2  0
 28 29  1  0
 29 30  2  0
 29 31  1  0
 31 32  1  0
 32 33  2  0
 12 13  2  0
 13 14  1  0
 14 15  2  0
 15  7  1  0
 15 10  1  0
 28 23  1  0
 32 27  1  0
M  CHG 1   1  -1
M  CHG 1  22  -1
M  CHG 1  31  -1
M  END
> <UniqueID>
9

> <SMILES>
CCC(=O)N1CCc2cc(S(=O)(=O)[N-]CCC(=O)[N-]c3cccc4c3C(=O)[N-]C4=O)ccc21

> <Energy>
101.05360499030681

> <Genealogy>
CCC(=O)N1CCc2cc(S(=O)(=O)[N-]CCC(=O)[N-]c3cccc4c3C(=O)[N-]C4=O)ccc21 (protonated)
CCC(=O)N1CCc2cc(S(=O)(=O)[N-]CCC(=O)[N-]c3cccc4c3C(=O)[N-]C4=O)ccc21 (3D coordinates assigned)
CCC(=O)N1CCc2cc(S(=O)(=O)[N-]CCC(=O)[N-]c3cccc4c3C(=O)[N-]C4=O)ccc21 (nonaromatic ring conformer: 101.05360499030681 kcal/mol)

> <smiles>
CCC(=O)N1CCc2cc(S(=O)(=O)NCCC(=O)Nc3cccc4c3C(=O)NC4=O)ccc21

> <score_type>
oracle

> <origin>
adg

> <m_score__min__energy>
-14.81

> <m_primary>
energy

> <minimizedAffinity>
-7.54548

> <minimizedRMSD>
1.10187

> <CNNscore>
0.5200458169

> <CNNaffinity>
6.9751510620

> <CNN_VS>
3.6273980141

> <CNNaffinity_variance>
0.1493509263

$$$$
22:0


 27 31  0  0  0  0  0  0  0  0999 V2000
   53.7110   30.7853   52.7949 C   0  0  0  0  0  0  0  0  0  0  0  0
   54.7417   29.9560   53.0312 C   0  0  0  0  0  0  0  0  0  0  0  0
   54.7460   28.6004   53.3564 C   0  0  0  0  0  0  0  0  0  0  0  0
   56.0241   28.1884   53.5170 N   0  0  0  0  0  0  0  0  0  0  0  0
   56.8335   29.2191   53.3112 N   0  0  0  0  0  0  0  0  0  0  0  0
   58.2027   29.3197   53.3528 C   0  0  0  0  0  0  0  0  0  0  0  0
   59.0088   28.3361   53.6439 N   0  0  0  0  0  0  0  0  0  0  0  0
   58.7567   30.5330   53.0757 N   0  0  0  0  0  0  0  0  0  0  0  0
   57.9802   31.6127   52.7766 C   0  0  0  0  0  0  0  0  0  0  0  0
   56.6263   31.4968   52.7403 N   0  0  0  0  0  0  0  0  0  0  0  0
   56.0793   30.2907   53.0150 C   0  0  0  0  0  0  0  0  0  0  0  0
   56.3072   27.2743   53.7485 H   0  0  0  0  0  0  0  0  0  0  0  0
   52.8115   30.7174   51.6250 C   0  0  0  0  0  0  0  0  0  0  0  0
   52.8987   29.8352   50.6145 N   0  0  0  0  0  0  0  0  0  0  0  0
   51.8740   30.1805   49.8032 C   0  0  0  0  0  0  0  0  0  0  0  0
   51.6267   29.5757   48.7282 O   0  0  0  0  0  0  0  0  0  0  0  0
   51.1362   31.2230   50.2378 N   0  0  0  0  0  0  0  0  0  0  0  0
   51.7437   31.5512   51.3889 C   0  0  0  0  0  0  0  0  0  0  0  0
   51.3295   32.5948   52.2093 O   0  0  0  0  0  0  0  0  0  0  0  0
   59.4293   27.8382   54.9467 C   0  0  0  0  0  0  0  0  0  0  0  0
   60.8363   28.2900   55.2929 C   0  0  0  0  0  0  0  0  0  0  0  0
   60.5796   26.8470   54.8977 C   0  0  0  0  0  0  0  0  0  0  0  0
   58.7472   33.1902   52.4147 S   0  0  0  0  0  0  0  0  0  0  0  0
   59.7374   32.5682   51.0121 C   0  0  0  0  0  0  0  0  0  0  0  0
   58.8243   32.0908   49.8766 C   0  0  0  0  0  0  0  0  0  0  0  0
   59.3784   32.2856   48.4724 C   0  0  0  0  0  0  0  0  0  0  0  0
   59.3332   30.8951   49.0881 C   0  0  0  0  0  0  0  0  0  0  0  0
  1 13  1  0
 13 14  1  0
 14 15  1  0
 15 16  2  0
 15 17  1  0
 17 18  1  0
 18 19  1  0
  1  2  2  0
  2  3  1  0
  3  4  2  0
  4  5  1  0
  5  6  1  0
  6  7  2  0
  7 20  1  0
 20 21  1  0
 21 22  1  0
  6  8  1  0
  8  9  2  0
  9 23  1  0
 23 24  1  0
 24 25  1  0
 25 26  1  0
 26 27  1  0
  9 10  1  0
 10 11  2  0
 18 13  2  0
 11  2  1  0
 11  5  1  0
 22 20  1  0
 27 25  1  0
  4 12  1  0
M  CHG 1   4   1
M  CHG 1  14  -1
M  CHG 1  17  -1
M  CHG 1  19  -1
M  END
> <UniqueID>
23

> <SMILES>
O=c1[n-]c([O-])c(/C=c2\c[nH+]n3c(=NC4CC4)nc(SCC4CC4)nc23)[n-]1

> <Energy>
646.8216449744906

> <Genealogy>
O=c1[n-]c([O-])c(C=c2c[nH+]n3c(=NC4CC4)nc(SCC4CC4)nc23)[n-]1 (protonated)
O=c1[n-]c([O-])c(/C=c2\c[nH+]n3c(=NC4CC4)nc(SCC4CC4)nc23)[n-]1 (cis-trans isomerization)
O=c1[n-]c([O-])c(/C=c2\c[nH+]n3c(=NC4CC4)nc(SCC4CC4)nc23)[n-]1 (3D coordinates assigned)
O=c1[n-]c([O-])c(/C=c2\c[nH+]n3c(=NC4CC4)nc(SCC4CC4)nc23)[n-]1 (nonaromatic ring conformer: 646.8216449744906 kcal/mol)

> <smiles>
O=c1[nH]c(O)c(C=c2cnn3c(=NC4CC4)nc(SCC4CC4)nc23)[nH]1

> <score_type>
oracle

> <origin>
adg

> <m_score__min__energy>
-14.609999999999999

> <m_primary>
energy

> <minimizedAffinity>
-4.17450

> <minimizedRMSD>
1.31010

> <CNNscore>
0.1462925076

> <CNNaffinity>
5.1802921295

> <CNN_VS>
0.7578379512

> <CNNaffinity_variance>
0.1063577309

$$$$
1:0


 33 36  0  0  0  0  0  0  0  0999 V2000
   57.8716   27.3487   46.6467 N   0  0  0  0  0  0  0  0  0  0  0  0
   57.8136   28.5257   46.0915 C   0  0  0  0  0  0  0  0  0  0  0  0
   58.5300   29.5727   46.5781 N   0  0  0  0  0  0  0  0  0  0  0  0
   58.4448   30.8010   46.0031 C   0  0  0  0  0  0  0  0  0  0  0  0
   57.6221   30.9777   44.9361 N   0  0  0  0  0  0  0  0  0  0  0  0
   56.8933   29.9402   44.4531 C   0  0  0  0  0  0  0  0  0  0  0  0
   56.1302   30.1126   43.4684 O   0  0  0  0  0  0  0  0  0  0  0  0
   56.9872   28.7180   45.0332 N   0  0  0  0  0  0  0  0  0  0  0  0
   56.7573   23.6321   44.8853 C   0  0  0  0  0  0  0  0  0  0  0  0
   57.4989   24.5683   44.1407 C   0  0  0  0  0  0  0  0  0  0  0  0
   57.8746   25.7909   44.7063 C   0  0  0  0  0  0  0  0  0  0  0  0
   57.5329   26.0911   46.0373 C   0  0  0  0  0  0  0  0  0  0  0  0
   56.7673   25.1768   46.7680 C   0  0  0  0  0  0  0  0  0  0  0  0
   56.3910   23.9540   46.2045 C   0  0  0  0  0  0  0  0  0  0  0  0
   55.9843   21.2396   45.1119 N   0  0  0  0  0  0  0  0  0  0  0  0
   56.3618   22.3380   44.2846 C   0  0  0  0  0  0  0  0  0  0  0  0
   56.3530   22.1929   43.0314 O   0  0  0  0  0  0  0  0  0  0  0  0
   55.7228   20.3828   44.7034 H   0  0  0  0  0  0  0  0  0  0  0  0
   59.2434   31.9333   46.5350 C   0  0  0  0  0  0  0  0  0  0  0  0
   59.1653   33.2055   45.9389 C   0  0  0  0  0  0  0  0  0  0  0  0
   59.9254   34.2674   46.4334 C   0  0  0  0  0  0  0  0  0  0  0  0
   60.7630   34.0806   47.5339 C   0  0  0  0  0  0  0  0  0  0  0  0
   60.8365   32.8241   48.1613 C   0  0  0  0  0  0  0  0  0  0  0  0
   60.0924   31.7553   47.6448 C   0  0  0  0  0  0  0  0  0  0  0  0
   61.7002   32.5831   49.2818 N   0  0  0  0  0  0  0  0  0  0  0  0
   61.4288   32.8941   50.6553 C   0  0  0  0  0  0  0  0  0  0  0  0
   62.2885   33.5037   51.3480 O   0  0  0  0  0  0  0  0  0  0  0  0
   60.1150   32.5470   51.2477 C   0  0  0  0  0  0  0  0  0  0  0  0
   59.6319   31.2259   51.2006 C   0  0  0  0  0  0  0  0  0  0  0  0
   58.3927   30.9030   51.7625 C   0  0  0  0  0  0  0  0  0  0  0  0
   57.6228   31.8929   52.3766 C   0  0  0  0  0  0  0  0  0  0  0  0
   58.0904   33.2073   52.4312 C   0  0  0  0  0  0  0  0  0  0  0  0
   59.3287   33.5358   51.8707 C   0  0  0  0  0  0  0  0  0  0  0  0
 15 16  1  0
 16 17  2  0
 16  9  1  0
  9 10  2  0
 10 11  1  0
 11 12  2  0
 12  1  1  0
  1  2  2  0
  2  3  1  0
  3  4  1  0
  4 19  1  0
 19 20  2  0
 20 21  1  0
 21 22  2  0
 22 23  1  0
 23 25  1  0
 25 26  1  0
 26 27  2  0
 26 28  1  0
 28 29  2  0
 29 30  1  0
 30 31  2  0
 31 32  1  0
 32 33  2  0
 23 24  2  0
  4  5  2  0
  5  6  1  0
  6  7  2  0
  6  8  1  0
 12 13  1  0
 13 14  2  0
 14  9  1  0
  8  2  1  0
 24 19  1  0
 33 28  1  0
 15 18  1  0
M  CHG 1   3  -1
M  CHG 1   8  -1
M  CHG 1  15  -1
M  CHG 1  25  -1
M  END
> <UniqueID>
2

> <SMILES>
[NH-]C(=O)c1ccc(/N=c2\[n-]c(-c3cccc([N-]C(=O)c4ccccc4)c3)nc(=O)[n-]2)cc1

> <Energy>
63.926432620854605

> <Genealogy>
[NH-]C(=O)c1ccc(N=c2[n-]c(-c3cccc([N-]C(=O)c4ccccc4)c3)nc(=O)[n-]2)cc1 (protonated)
[NH-]C(=O)c1ccc(/N=c2\[n-]c(-c3cccc([N-]C(=O)c4ccccc4)c3)nc(=O)[n-]2)cc1 (cis-trans isomerization)
[NH-]C(=O)c1ccc(/N=c2\[n-]c(-c3cccc([N-]C(=O)c4ccccc4)c3)nc(=O)[n-]2)cc1 (3D coordinates assigned)
[NH-]C(=O)c1ccc(/N=c2\[n-]c(-c3cccc([N-]C(=O)c4ccccc4)c3)nc(=O)[n-]2)cc1 (optimized conformer: 63.926432620854605 kcal/mol)

> <smiles>
NC(=O)c1ccc(N=c2[nH]c(-c3cccc(NC(=O)c4ccccc4)c3)nc(=O)[nH]2)cc1

> <score_type>
oracle

> <origin>
adg

> <m_score__min__energy>
-15.43

> <m_primary>
energy

> <minimizedAffinity>
-9.26726

> <minimizedRMSD>
0.99968

> <CNNscore>
0.3364818394

> <CNNaffinity>
6.7652411461

> <CNN_VS>
2.2763807774

> <CNNaffinity_variance>
0.1207331643

$$$$
40:0


 28 30  0  0  0  0  0  0  0  0999 V2000
   58.9075   32.7770   46.7335 C   0  0  0  0  0  0  0  0  0  0  0  0
   58.8808   33.7099   45.6799 C   0  0  0  0  0  0  0  0  0  0  0  0
   58.3810   33.3463   44.4273 C   0  0  0  0  0  0  0  0  0  0  0  0
   57.9049   32.0525   44.2085 C   0  0  0  0  0  0  0  0  0  0  0  0
   57.9354   31.1089   45.2424 C   0  0  0  0  0  0  0  0  0  0  0  0
   58.4290   31.4737   46.5016 C   0  0  0  0  0  0  0  0  0  0  0  0
   57.3403   29.4746   44.9617 S   0  0  0  0  0  0  0  0  0  0  0  0
   55.8404   29.4720   44.8621 O   0  0  0  0  0  0  0  0  0  0  0  0
   57.9196   28.9541   43.6774 O   0  0  0  0  0  0  0  0  0  0  0  0
   57.8188   28.4368   46.2623 N   0  0  0  0  0  0  0  0  0  0  0  0
   57.9081   27.0171   46.1322 C   0  0  0  0  0  0  0  0  0  0  0  0
   59.3236   26.1042   46.1007 S   0  0  0  0  0  0  0  0  0  0  0  0
   58.4681   24.6647   45.9232 C   0  0  0  0  0  0  0  0  0  0  0  0
   59.0046   23.5306   45.8286 O   0  0  0  0  0  0  0  0  0  0  0  0
   57.1308   24.8500   45.8840 N   0  0  0  0  0  0  0  0  0  0  0  0
   56.8187   26.1678   45.9989 C   0  0  0  0  0  0  0  0  0  0  0  0
   55.5042   26.6229   45.9771 O   0  0  0  0  0  0  0  0  0  0  0  0
   54.7987   26.0132   45.8852 H   0  0  0  0  0  0  0  0  0  0  0  0
   59.5494   34.3839   48.3626 O   0  0  0  0  0  0  0  0  0  0  0  0
   59.4236   33.1642   48.0677 C   0  0  0  0  0  0  0  0  0  0  0  0
   59.8203   32.1532   49.0039 N   0  0  0  0  0  0  0  0  0  0  0  0
   61.1342   31.9322   49.5373 C   0  0  0  0  0  0  0  0  0  0  0  0
   61.3952   30.9360   50.4978 C   0  0  0  0  0  0  0  0  0  0  0  0
   62.6997   30.7287   50.9576 C   0  0  0  0  0  0  0  0  0  0  0  0
   63.7523   31.4946   50.4524 C   0  0  0  0  0  0  0  0  0  0  0  0
   63.5039   32.4676   49.4788 C   0  0  0  0  0  0  0  0  0  0  0  0
   64.5275   33.1949   48.9687 F   0  0  0  0  0  0  0  0  0  0  0  0
   62.2010   32.6757   49.0154 C   0  0  0  0  0  0  0  0  0  0  0  0
 19 20  2  0
 20 21  1  0
 21 22  1  0
 22 23  2  0
 23 24  1  0
 24 25  2  0
 25 26  1  0
 26 27  1  0
 26 28  2  0
 20  1  1  0
  1  2  2  0
  2  3  1  0
  3  4  2  0
  4  5  1  0
  5  7  1  0
  7  8  2  0
  7  9  2  0
  7 10  1  0
 10 11  1  0
 11 12  1  0
 12 13  1  0
 13 14  2  0
 13 15  1  0
 15 16  1  0
 16 17  1  0
  5  6  2  0
 28 22  1  0
  6  1  1  0
 16 11  2  0
 17 18  1  0
M  CHG 1  10  -1
M  CHG 1  15  -1
M  CHG 1  21  -1
M  END
> <UniqueID>
39

> <SMILES>
O=C([N-]c1cccc(F)c1)c1cccc(S(=O)(=O)[N-]c2sc(=O)[n-]c2O)c1

> <Energy>
76.15309575816853

> <Genealogy>
O=C([N-]c1cccc(F)c1)c1cccc(S(=O)(=O)[N-]c2sc(=O)[n-]c2O)c1 (protonated)
O=C([N-]c1cccc(F)c1)c1cccc(S(=O)(=O)[N-]c2sc(=O)[n-]c2O)c1 (3D coordinates assigned)
O=C([N-]c1cccc(F)c1)c1cccc(S(=O)(=O)[N-]c2sc(=O)[n-]c2O)c1 (optimized conformer: 76.15309575816853 kcal/mol)

> <smiles>
O=C(Nc1cccc(F)c1)c1cccc(S(=O)(=O)Nc2sc(=O)[nH]c2O)c1

> <score_type>
oracle

> <origin>
adg

> <m_score__min__energy>
-14.02

> <m_primary>
energy

> <minimizedAffinity>
-8.18963

> <minimizedRMSD>
1.66681

> <CNNscore>
0.8959263563

> <CNNaffinity>
7.0028233528

> <CNN_VS>
6.2740139961

> <CNNaffinity_variance>
0.2862122953

$$$$
49:0


 27 29  0  0  0  0  0  0  0  0999 V2000
   58.8103   31.1744   50.2982 C   0  0  0  0  0  0  0  0  0  0  0  0
   59.3708   32.4426   50.5401 C   0  0  0  0  0  0  0  0  0  0  0  0
   59.1066   33.1180   51.7337 C   0  0  0  0  0  0  0  0  0  0  0  0
   58.2872   32.5382   52.7025 C   0  0  0  0  0  0  0  0  0  0  0  0
   57.7309   31.2679   52.4887 C   0  0  0  0  0  0  0  0  0  0  0  0
   57.9838   30.5973   51.2813 C   0  0  0  0  0  0  0  0  0  0  0  0
   58.9241   29.2110   48.9648 O   0  0  0  0  0  0  0  0  0  0  0  0
   59.0827   30.4617   49.0270 C   0  0  0  0  0  0  0  0  0  0  0  0
   59.5268   31.1974   47.8738 N   0  0  0  0  0  0  0  0  0  0  0  0
   58.7662   31.7915   47.0025 C   0  0  0  0  0  0  0  0  0  0  0  0
   58.2210   31.1897   45.9227 N   0  0  0  0  0  0  0  0  0  0  0  0
   57.4834   32.0187   45.1866 N   0  0  0  0  0  0  0  0  0  0  0  0
   57.4362   33.2801   45.6741 C   0  0  0  0  0  0  0  0  0  0  0  0
   58.3458   33.4155   47.0880 S   0  0  0  0  0  0  0  0  0  0  0  0
   56.8185   30.6610   53.5151 C   0  0  0  0  0  0  0  0  0  0  0  0
   56.3218   29.3823   53.0170 N   0  0  0  0  0  0  0  0  0  0  0  0
   54.8613   28.9524   53.8517 S   0  0  0  0  0  0  0  0  0  0  0  0
   54.4800   27.5436   53.4870 O   0  0  0  0  0  0  0  0  0  0  0  0
   55.0853   29.0172   55.3374 O   0  0  0  0  0  0  0  0  0  0  0  0
   53.5546   30.0376   53.3825 C   0  0  0  0  0  0  0  0  0  0  0  0
   53.4727   30.5360   52.0731 C   0  0  0  0  0  0  0  0  0  0  0  0
   52.4210   31.3799   51.7080 C   0  0  0  0  0  0  0  0  0  0  0  0
   51.4413   31.7274   52.6448 C   0  0  0  0  0  0  0  0  0  0  0  0
   50.3971   32.5672   52.2758 O   0  0  0  0  0  0  0  0  0  0  0  0
   51.5158   31.2281   53.9511 C   0  0  0  0  0  0  0  0  0  0  0  0
   50.5431   31.5664   54.8858 O   0  0  0  0  0  0  0  0  0  0  0  0
   52.5696   30.3833   54.3169 C   0  0  0  0  0  0  0  0  0  0  0  0
  7  8  2  0
  8  9  1  0
  9 10  2  0
 10 11  1  0
 11 12  1  0
 12 13  2  0
 13 14  1  0
  8  1  1  0
  1  2  2  0
  2  3  1  0
  3  4  2  0
  4  5  1  0
  5 15  1  0
 15 16  1  0
 16 17  1  0
 17 18  2  0
 17 19  2  0
 17 20  1  0
 20 21  2  0
 21 22  1  0
 22 23  2  0
 23 24  1  0
 23 25  1  0
 25 26  1  0
 25 27  2  0
  5  6  2  0
 14 10  1  0
  6  1  1  0
 27 20  1  0
M  CHG 1  11  -1
M  CHG 1  16  -1
M  CHG 1  24  -1
M  CHG 1  26  -1
M  END
> <UniqueID>
46

> <SMILES>
O=C(N=c1[n-]ncs1)c1cccc(C[N-]S(=O)(=O)c2ccc([O-])c([O-])c2)c1

> <Energy>
74.77175729954652

> <Genealogy>
O=C(N=c1[n-]ncs1)c1cccc(C[N-]S(=O)(=O)c2ccc([O-])c([O-])c2)c1 (protonated)
O=C(N=c1[n-]ncs1)c1cccc(C[N-]S(=O)(=O)c2ccc([O-])c([O-])c2)c1 (3D coordinates assigned)
O=C(N=c1[n-]ncs1)c1cccc(C[N-]S(=O)(=O)c2ccc([O-])c([O-])c2)c1 (optimized conformer: 74.77175729954652 kcal/mol)

> <smiles>
O=C(N=c1[nH]ncs1)c1cccc(CNS(=O)(=O)c2ccc(O)c(O)c2)c1

> <score_type>
oracle

> <origin>
adg

> <m_score__min__energy>
-18.710000000000001

> <m_primary>
energy

> <minimizedAffinity>
-6.56454

> <minimizedRMSD>
1.64798

> <CNNscore>
0.7870370150

> <CNNaffinity>
6.1832251549

> <CNN_VS>
4.8664269447

> <CNNaffinity_variance>
0.1216733456

$$$$
4:0


 24 25  0  0  0  0  0  0  0  0999 V2000
   56.8093   28.7290   45.5548 N   0  0  0  0  0  0  0  0  0  0  0  0
   57.8276   25.1623   46.2641 C   0  0  0  0  0  0  0  0  0  0  0  0
   59.2258   25.3292   46.2949 C   0  0  0  0  0  0  0  0  0  0  0  0
   59.7985   26.5862   46.1038 C   0  0  0  0  0  0  0  0  0  0  0  0
   58.9893   27.6958   45.8659 C   0  0  0  0  0  0  0  0  0  0  0  0
   57.6011   27.5583   45.8026 C   0  0  0  0  0  0  0  0  0  0  0  0
   57.0117   26.2978   46.0395 C   0  0  0  0  0  0  0  0  0  0  0  0
   55.6251   26.1905   46.0941 O   0  0  0  0  0  0  0  0  0  0  0  0
   57.2532   23.8074   46.4810 C   0  0  0  0  0  0  0  0  0  0  0  0
   57.0623   23.3878   47.6549 O   0  0  0  0  0  0  0  0  0  0  0  0
   57.9278   22.1938   44.6446 C   0  0  0  0  0  0  0  0  0  0  0  0
   56.9284   22.9599   45.3732 N   0  0  0  0  0  0  0  0  0  0  0  0
   57.0184   29.6535   44.4820 C   0  0  0  0  0  0  0  0  0  0  0  0
   56.9076   29.2803   43.2826 O   0  0  0  0  0  0  0  0  0  0  0  0
   57.4685   31.0480   44.7870 C   0  0  0  0  0  0  0  0  0  0  0  0
   58.9415   31.0912   45.2070 C   0  0  0  0  0  0  0  0  0  0  0  0
   59.0832   31.5080   46.6079 N   0  0  0  0  0  0  0  0  0  0  0  0
   59.2629   30.6450   47.6292 C   0  0  0  0  0  0  0  0  0  0  0  0
   59.2798   31.3215   48.8294 C   0  0  0  0  0  0  0  0  0  0  0  0
   59.0935   32.6547   48.5339 C   0  0  0  0  0  0  0  0  0  0  0  0
   58.9728   32.7464   47.1580 C   0  0  0  0  0  0  0  0  0  0  0  0
   58.7458   34.0241   46.4481 C   0  0  0  0  0  0  0  0  0  0  0  0
   57.7394   34.2007   45.7158 O   0  0  0  0  0  0  0  0  0  0  0  0
   59.6699   35.0549   46.5784 O   0  0  0  0  0  0  0  0  0  0  0  0
 11 12  1  0
 12  9  1  0
  9 10  2  0
  9  2  1  0
  2  3  2  0
  3  4  1  0
  4  5  2  0
  5  6  1  0
  6  1  1  0
  1 13  1  0
 13 14  2  0
 13 15  1  0
 15 16  1  0
 16 17  1  0
 17 18  1  0
 18 19  2  0
 19 20  1  0
 20 21  2  0
 21 22  1  0
 22 23  2  0
 22 24  1  0
  6  7  2  0
  7  8  1  0
  7  2  1  0
 21 17  1  0
M  CHG 1   1  -1
M  CHG 1   8  -1
M  CHG 1  12  -1
M  CHG 1  24  -1
M  END
> <UniqueID>
5

> <SMILES>
C[N-]C(=O)c1cccc([N-]C(=O)CCn2cccc2C(=O)[O-])c1[O-]

> <Energy>
66.56377364501778

> <Genealogy>
C[N-]C(=O)c1cccc([N-]C(=O)CCn2cccc2C(=O)[O-])c1[O-] (protonated)
C[N-]C(=O)c1cccc([N-]C(=O)CCn2cccc2C(=O)[O-])c1[O-] (3D coordinates assigned)
C[N-]C(=O)c1cccc([N-]C(=O)CCn2cccc2C(=O)[O-])c1[O-] (optimized conformer: 66.56377364501778 kcal/mol)

> <smiles>
CNC(=O)c1cccc(NC(=O)CCn2cccc2C(=O)O)c1O

> <score_type>
oracle

> <origin>
adg

> <m_score__min__energy>
-15.699999999999999

> <m_primary>
energy

> <minimizedAffinity>
-5.88577

> <minimizedRMSD>
1.14831

> <CNNscore>
0.5641890764

> <CNNaffinity>
6.1021270752

> <CNN_VS>
3.4427535534

> <CNNaffinity_variance>
0.4732228518

$$$$
5:0


 34 37  0  0  0  0  0  0  0  0999 V2000
   58.5890   29.9576   45.1295 C   0  0  0  0  0  0  0  0  0  0  0  0
   58.8401   28.8424   45.8198 C   0  0  0  0  0  0  0  0  0  0  0  0
   58.3933   27.6307   45.4422 N   0  0  0  0  0  0  0  0  0  0  0  0
   58.8022   26.7402   46.3675 C   0  0  0  0  0  0  0  0  0  0  0  0
   58.4754   25.4367   46.2811 C   0  0  0  0  0  0  0  0  0  0  0  0
   59.5444   27.3949   47.3603 C   0  0  0  0  0  0  0  0  0  0  0  0
   60.2055   26.7776   48.5621 C   0  0  0  0  0  0  0  0  0  0  0  0
   59.5641   28.7466   47.0026 C   0  0  0  0  0  0  0  0  0  0  0  0
   57.8640   27.4310   44.6365 H   0  0  0  0  0  0  0  0  0  0  0  0
   57.1012   24.9224   46.2347 C   0  0  0  0  0  0  0  0  0  0  0  0
   55.9422   25.6479   46.0089 C   0  0  0  0  0  0  0  0  0  0  0  0
   55.8904   27.0277   45.8581 O   0  0  0  0  0  0  0  0  0  0  0  0
   54.8466   24.8559   45.9473 N   0  0  0  0  0  0  0  0  0  0  0  0
   55.3340   23.6115   46.1222 C   0  0  0  0  0  0  0  0  0  0  0  0
   54.6013   22.4280   46.1334 C   0  0  0  0  0  0  0  0  0  0  0  0
   55.2982   21.2208   46.3203 C   0  0  0  0  0  0  0  0  0  0  0  0
   56.7097   21.2102   46.4904 C   0  0  0  0  0  0  0  0  0  0  0  0
   57.4184   22.4346   46.4728 C   0  0  0  0  0  0  0  0  0  0  0  0
   56.6954   23.6114   46.2879 C   0  0  0  0  0  0  0  0  0  0  0  0
   57.4064   19.9658   46.6812 N   0  0  0  0  0  0  0  0  0  0  0  0
   58.4906   19.9300   47.2986 O   0  0  0  0  0  0  0  0  0  0  0  0
   56.8832   18.7890   46.1949 O   0  0  0  0  0  0  0  0  0  0  0  0
   60.1475   29.8983   47.7891 C   0  0  0  0  0  0  0  0  0  0  0  0
   61.0995   30.7533   46.9405 C   0  0  0  0  0  0  0  0  0  0  0  0
   60.9215   32.2337   47.1890 C   0  0  0  0  0  0  0  0  0  0  0  0
   59.8485   32.7557   46.9101 O   0  0  0  0  0  0  0  0  0  0  0  0
   61.9891   33.0302   47.7712 N   0  0  0  0  0  0  0  0  0  0  0  0
   61.4767   33.7913   48.9374 C   0  0  0  0  0  0  0  0  0  0  0  0
   62.6145   34.1706   49.8928 C   0  0  0  0  0  0  0  0  0  0  0  0
   63.2461   32.9661   50.4752 N   0  0  0  0  0  0  0  0  0  0  0  0
   64.6110   33.2696   50.9308 C   0  0  0  0  0  0  0  0  0  0  0  0
   63.2260   31.7847   49.5744 C   0  0  0  0  0  0  0  0  0  0  0  0
   63.1714   32.1827   48.0871 C   0  0  0  0  0  0  0  0  0  0  0  0
   61.4487   33.3473   47.0118 H   0  0  0  0  0  0  0  0  0  0  0  0
  1  2  2  0
  2  3  1  0
  3  4  1  0
  4  5  2  0
  5 10  1  0
 10 11  2  0
 11 12  1  0
 11 13  1  0
 13 14  1  0
 14 15  2  0
 15 16  1  0
 16 17  2  0
 17 20  1  0
 20 21  2  0
 20 22  1  0
 17 18  1  0
 18 19  2  0
  4  6  1  0
  6  7  1  0
  6  8  2  0
  8 23  1  0
 23 24  1  0
 24 25  1  0
 25 26  2  0
 25 27  1  0
 27 28  1  0
 28 29  1  0
 29 30  1  0
 30 31  1  0
 30 32  1  0
 32 33  1  0
  8  2  1  0
 33 27  1  0
 19 10  1  0
 19 14  1  0
  3  9  1  0
 27 34  1  0
M  CHG 1  12  -1
M  CHG 1  13  -1
M  CHG 1  20   1
M  CHG 1  22  -1
M  CHG 1  27   1
M  END
> <UniqueID>
6

> <SMILES>
C=c1[nH]c(=Cc2c([O-])[n-]c3ccc([N+](=O)[O-])cc23)c(C)c1CCC(=O)[NH+]1CCN(C)CC1

> <Energy>
137.62612255328187

> <Genealogy>
C=c1[nH]c(=Cc2c([O-])[n-]c3ccc([N+](=O)[O-])cc23)c(C)c1CCC(=O)[NH+]1CCN(C)CC1 (protonated)
C=c1[nH]c(=Cc2c([O-])[n-]c3ccc([N+](=O)[O-])cc23)c(C)c1CCC(=O)[NH+]1CCN(C)CC1 (3D coordinates assigned)
C=c1[nH]c(=Cc2c([O-])[n-]c3ccc([N+](=O)[O-])cc23)c(C)c1CCC(=O)[NH+]1CCN(C)CC1 (nonaromatic ring conformer: 137.62612255328187 kcal/mol)

> <smiles>
C=c1[nH]c(=Cc2c(O)[nH]c3ccc([N+](=O)[O-])cc23)c(C)c1CCC(=O)N1CCN(C)CC1

> <score_type>
oracle

> <origin>
adg

> <m_score__min__energy>
-14.380000000000001

> <m_primary>
energy

> <minimizedAffinity>
-7.29079

> <minimizedRMSD>
1.32551

> <CNNscore>
0.0515059046

> <CNNaffinity>
5.7503380775

> <CNN_VS>
0.2961763740

> <CNNaffinity_variance>
0.1845578402

$$$$
12:0


 28 30  0  0  0  0  0  0  0  0999 V2000
   59.1603   29.5219   46.0754 C   0  0  0  0  0  0  0  0  0  0  0  0
   58.4708   28.7812   47.0450 C   0  0  0  0  0  0  0  0  0  0  0  0
   58.7430   27.4610   47.2153 N   0  0  0  0  0  0  0  0  0  0  0  0
   59.6862   26.8143   46.4722 C   0  0  0  0  0  0  0  0  0  0  0  0
   59.9232   25.5478   46.6459 N   0  0  0  0  0  0  0  0  0  0  0  0
   60.4103   27.5249   45.5092 C   0  0  0  0  0  0  0  0  0  0  0  0
   60.1485   28.8820   45.3145 C   0  0  0  0  0  0  0  0  0  0  0  0
   57.9497   31.4174   44.9123 C   0  0  0  0  0  0  0  0  0  0  0  0
   57.7533   32.8006   44.7559 C   0  0  0  0  0  0  0  0  0  0  0  0
   58.4377   33.7108   45.5620 C   0  0  0  0  0  0  0  0  0  0  0  0
   59.3249   33.2554   46.5361 C   0  0  0  0  0  0  0  0  0  0  0  0
   59.5407   31.8853   46.6982 C   0  0  0  0  0  0  0  0  0  0  0  0
   58.8708   30.9566   45.8852 C   0  0  0  0  0  0  0  0  0  0  0  0
   55.5051   29.9338   44.6759 N   0  0  0  0  0  0  0  0  0  0  0  0
   57.0075   30.3061   43.9050 S   0  0  0  0  0  0  0  0  0  0  0  0
   56.7313   30.9434   42.5726 O   0  0  0  0  0  0  0  0  0  0  0  0
   57.7652   29.0232   43.7040 O   0  0  0  0  0  0  0  0  0  0  0  0
   54.9708   29.2939   44.0882 H   0  0  0  0  0  0  0  0  0  0  0  0
   59.5138   24.4871   45.7246 C   0  0  0  0  0  0  0  0  0  0  0  0
   58.0418   24.2068   45.8648 C   0  0  0  0  0  0  0  0  0  0  0  0
   57.5835   22.8822   45.9367 C   0  0  0  0  0  0  0  0  0  0  0  0
   56.2163   22.6109   46.0395 C   0  0  0  0  0  0  0  0  0  0  0  0
   55.2827   23.6655   46.0679 C   0  0  0  0  0  0  0  0  0  0  0  0
   55.7431   24.9884   45.9929 C   0  0  0  0  0  0  0  0  0  0  0  0
   54.8368   26.0422   46.0167 O   0  0  0  0  0  0  0  0  0  0  0  0
   57.1108   25.2568   45.8910 C   0  0  0  0  0  0  0  0  0  0  0  0
   53.9004   23.4405   46.1696 O   0  0  0  0  0  0  0  0  0  0  0  0
   52.9716   23.6490   45.1107 C   0  0  0  0  0  0  0  0  0  0  0  0
 14 15  1  0
 15 16  2  0
 15 17  2  0
 15  8  1  0
  8  9  2  0
  9 10  1  0
 10 11  2  0
 11 12  1  0
 12 13  2  0
 13  1  1  0
  1  2  2  0
  2  3  1  0
  3  4  1  0
  4  5  2  0
  5 19  1  0
 19 20  1  0
 20 21  2  0
 21 22  1  0
 22 23  2  0
 23 27  1  0
 27 28  1  0
 23 24  1  0
 24 25  1  0
 24 26  2  0
  4  6  1  0
  6  7  2  0
 13  8  1  0
  7  1  1  0
 26 20  1  0
 14 18  1  0
M  CHG 1   3  -1
M  CHG 1  14  -1
M  CHG 1  25  -1
M  END
> <UniqueID>
13

> <SMILES>
COc1ccc(C/N=c2/ccc(-c3ccccc3S([NH-])(=O)=O)c[n-]2)cc1[O-]

> <Energy>
53.43847985249806

> <Genealogy>
COc1ccc(CN=c2ccc(-c3ccccc3S([NH-])(=O)=O)c[n-]2)cc1[O-] (protonated)
COc1ccc(C/N=c2/ccc(-c3ccccc3S([NH-])(=O)=O)c[n-]2)cc1[O-] (cis-trans isomerization)
COc1ccc(C/N=c2/ccc(-c3ccccc3S([NH-])(=O)=O)c[n-]2)cc1[O-] (3D coordinates assigned)
COc1ccc(C/N=c2/ccc(-c3ccccc3S([NH-])(=O)=O)c[n-]2)cc1[O-] (optimized conformer: 53.43847985249806 kcal/mol)

> <smiles>
COc1ccc(CN=c2ccc(-c3ccccc3S(N)(=O)=O)c[nH]2)cc1O

> <score_type>
oracle

> <origin>
adg

> <m_score__min__energy>
-16.059999999999999

> <m_primary>
energy

> <minimizedAffinity>
-7.78027

> <minimizedRMSD>
0.46192

> <CNNscore>
0.7326745391

> <CNNaffinity>
6.4311833382

> <CNN_VS>
4.7119641304

> <CNNaffinity_variance>
0.1185698211

$$$$
40:0


 34 37  0  0  0  0  0  0  0  0999 V2000
   59.1283   30.0011   51.2366 C   0  0  0  0  0  0  0  0  0  0  0  0
   59.1774   29.8260   49.8391 C   0  0  0  0  0  0  0  0  0  0  0  0
   60.0725   28.9154   49.2566 C   0  0  0  0  0  0  0  0  0  0  0  0
   60.9143   28.1548   50.0784 C   0  0  0  0  0  0  0  0  0  0  0  0
   60.8783   28.3199   51.4632 C   0  0  0  0  0  0  0  0  0  0  0  0
   59.9954   29.2328   52.0472 C   0  0  0  0  0  0  0  0  0  0  0  0
   59.9883   29.3497   53.4337 O   0  0  0  0  0  0  0  0  0  0  0  0
   58.1661   30.9773   51.8141 C   0  0  0  0  0  0  0  0  0  0  0  0
   58.5911   31.9143   52.5442 O   0  0  0  0  0  0  0  0  0  0  0  0
   56.7656   30.8890   51.5124 N   0  0  0  0  0  0  0  0  0  0  0  0
   52.4569   29.6015   55.1144 C   0  0  0  0  0  0  0  0  0  0  0  0
   53.5688   29.9401   54.1559 C   0  0  0  0  0  0  0  0  0  0  0  0
   54.8982   29.8659   54.6029 C   0  0  0  0  0  0  0  0  0  0  0  0
   55.9579   30.1762   53.7495 C   0  0  0  0  0  0  0  0  0  0  0  0
   55.7061   30.5857   52.4318 C   0  0  0  0  0  0  0  0  0  0  0  0
   54.3850   30.6432   51.9731 C   0  0  0  0  0  0  0  0  0  0  0  0
   53.3083   30.3398   52.8224 C   0  0  0  0  0  0  0  0  0  0  0  0
   51.6574   30.4468   52.1874 S   0  0  0  0  0  0  0  0  0  0  0  0
   51.0028   32.0270   52.4349 N   0  0  0  0  0  0  0  0  0  0  0  0
   51.6694   30.1589   50.7125 O   0  0  0  0  0  0  0  0  0  0  0  0
   50.7753   29.4513   52.8882 O   0  0  0  0  0  0  0  0  0  0  0  0
   51.5904   32.7158   51.9650 H   0  0  0  0  0  0  0  0  0  0  0  0
   60.0777   28.7089   47.7655 C   0  0  0  0  0  0  0  0  0  0  0  0
   59.9543   29.9908   47.0796 N   0  0  0  0  0  0  0  0  0  0  0  0
   58.7894   30.4817   46.4077 C   0  0  0  0  0  0  0  0  0  0  0  0
   57.8101   29.7641   46.0702 O   0  0  0  0  0  0  0  0  0  0  0  0
   58.8963   31.9222   46.2060 C   0  0  0  0  0  0  0  0  0  0  0  0
   58.0178   32.8266   45.6114 C   0  0  0  0  0  0  0  0  0  0  0  0
   58.3873   34.1827   45.5798 C   0  0  0  0  0  0  0  0  0  0  0  0
   59.6113   34.6037   46.1442 C   0  0  0  0  0  0  0  0  0  0  0  0
   60.4776   33.6726   46.7445 C   0  0  0  0  0  0  0  0  0  0  0  0
   60.0917   32.3344   46.7577 C   0  0  0  0  0  0  0  0  0  0  0  0
   60.7489   31.1574   47.3155 C   0  0  0  0  0  0  0  0  0  0  0  0
   61.8465   31.1558   47.9310 O   0  0  0  0  0  0  0  0  0  0  0  0
 11 12  1  0
 12 13  2  0
 13 14  1  0
 14 15  2  0
 15 10  1  0
 10  8  1  0
  8  9  2  0
  8  1  1  0
  1  2  2  0
  2  3  1  0
  3 23  1  0
 23 24  1  0
 24 25  1  0
 25 26  2  0
 25 27  1  0
 27 28  2  0
 28 29  1  0
 29 30  2  0
 30 31  1  0
 31 32  2  0
 32 33  1  0
 33 34  2  0
  3  4  2  0
  4  5  1  0
  5  6  2  0
  6  7  1  0
 15 16  1  0
 16 17  2  0
 17 18  1  0
 18 19  1  0
 18 20  2  0
 18 21  2  0
 17 12  1  0
  6  1  1  0
 33 24  1  0
 32 27  1  0
 19 22  1  0
M  CHG 1   7  -1
M  CHG 1  10  -1
M  CHG 1  19  -1
M  END
> <UniqueID>
38

> <SMILES>
Cc1ccc([N-]C(=O)c2cc(CN3C(=O)c4ccccc4C3=O)ccc2[O-])cc1S([NH-])(=O)=O

> <Energy>
91.77913006452737

> <Genealogy>
Cc1ccc([N-]C(=O)c2cc(CN3C(=O)c4ccccc4C3=O)ccc2[O-])cc1S([NH-])(=O)=O (protonated)
Cc1ccc([N-]C(=O)c2cc(CN3C(=O)c4ccccc4C3=O)ccc2[O-])cc1S([NH-])(=O)=O (3D coordinates assigned)
Cc1ccc([N-]C(=O)c2cc(CN3C(=O)c4ccccc4C3=O)ccc2[O-])cc1S([NH-])(=O)=O (nonaromatic ring conformer: 91.77913006452737 kcal/mol)

> <smiles>
Cc1ccc(NC(=O)c2cc(CN3C(=O)c4ccccc4C3=O)ccc2O)cc1S(N)(=O)=O

> <score_type>
oracle

> <origin>
adg

> <m_score__min__energy>
-15.67

> <m_primary>
energy

> <minimizedAffinity>
-9.12153

> <minimizedRMSD>
1.02572

> <CNNscore>
0.3331457675

> <CNNaffinity>
6.1144738197

> <CNN_VS>
2.0370111465

> <CNNaffinity_variance>
0.2495858073

$$$$
70:0


 29 31  0  0  0  0  0  0  0  0999 V2000
   59.5372   26.8801   47.5371 C   0  0  0  0  0  0  0  0  0  0  0  0
   59.1458   27.8648   46.6891 N   0  0  0  0  0  0  0  0  0  0  0  0
   57.9747   27.7908   45.9977 C   0  0  0  0  0  0  0  0  0  0  0  0
   57.1476   26.6648   46.1810 C   0  0  0  0  0  0  0  0  0  0  0  0
   55.9337   26.5323   45.5150 O   0  0  0  0  0  0  0  0  0  0  0  0
   57.5672   25.6639   47.0612 C   0  0  0  0  0  0  0  0  0  0  0  0
   56.8543   24.6448   47.2529 O   0  0  0  0  0  0  0  0  0  0  0  0
   58.7483   25.7901   47.7177 N   0  0  0  0  0  0  0  0  0  0  0  0
   57.6311   28.8950   45.0776 C   0  0  0  0  0  0  0  0  0  0  0  0
   57.3207   28.6271   43.8856 O   0  0  0  0  0  0  0  0  0  0  0  0
   57.6245   30.2565   45.5244 N   0  0  0  0  0  0  0  0  0  0  0  0
   58.5244   30.7770   46.5478 C   0  0  0  0  0  0  0  0  0  0  0  0
   58.8785   32.2088   46.2515 C   0  0  0  0  0  0  0  0  0  0  0  0
   60.0392   32.7750   46.8046 C   0  0  0  0  0  0  0  0  0  0  0  0
   60.3587   34.1146   46.5566 C   0  0  0  0  0  0  0  0  0  0  0  0
   59.5191   34.8973   45.7571 C   0  0  0  0  0  0  0  0  0  0  0  0
   59.8262   36.1961   45.5230 F   0  0  0  0  0  0  0  0  0  0  0  0
   58.3599   34.3424   45.2064 C   0  0  0  0  0  0  0  0  0  0  0  0
   58.0384   33.0035   45.4523 C   0  0  0  0  0  0  0  0  0  0  0  0
   60.8186   27.0157   48.2986 C   0  0  0  0  0  0  0  0  0  0  0  0
   60.5607   27.0492   49.7372 N   0  0  0  0  0  0  0  0  0  0  0  0
   61.7431   27.7517   51.6062 O   0  0  0  0  0  0  0  0  0  0  0  0
   61.0006   28.0725   50.6422 C   0  0  0  0  0  0  0  0  0  0  0  0
   60.6489   29.4927   50.4501 C   0  0  0  0  0  0  0  0  0  0  0  0
   61.6502   30.4685   50.3277 C   0  0  0  0  0  0  0  0  0  0  0  0
   61.3041   31.8155   50.1807 C   0  0  0  0  0  0  0  0  0  0  0  0
   59.9597   32.1916   50.1419 C   0  0  0  0  0  0  0  0  0  0  0  0
   58.9577   31.2212   50.2317 C   0  0  0  0  0  0  0  0  0  0  0  0
   59.3002   29.8747   50.3776 C   0  0  0  0  0  0  0  0  0  0  0  0
 22 23  2  0
 23 21  1  0
 21 20  1  0
 20  1  1  0
  1  2  2  0
  2  3  1  0
  3  9  1  0
  9 10  2  0
  9 11  1  0
 11 12  1  0
 12 13  1  0
 13 14  2  0
 14 15  1  0
 15 16  2  0
 16 17  1  0
 16 18  1  0
 18 19  2  0
  3  4  2  0
  4  5  1  0
  4  6  1  0
  6  7  2  0
  6  8  1  0
 23 24  1  0
 24 25  2  0
 25 26  1  0
 26 27  2  0
 27 28  1  0
 28 29  2  0
  8  1  1  0
 29 24  1  0
 19 13  1  0
M  CHG 1   5  -1
M  CHG 1   8  -1
M  CHG 1  11  -1
M  CHG 1  21  -1
M  END
> <UniqueID>
68

> <SMILES>
O=C([N-]Cc1nc(C(=O)[N-]Cc2ccc(F)cc2)c([O-])c(=O)[n-]1)c1ccccc1

> <Energy>
47.27795446792234

> <Genealogy>
O=C([N-]Cc1nc(C(=O)[N-]Cc2ccc(F)cc2)c([O-])c(=O)[n-]1)c1ccccc1 (protonated)
O=C([N-]Cc1nc(C(=O)[N-]Cc2ccc(F)cc2)c([O-])c(=O)[n-]1)c1ccccc1 (3D coordinates assigned)
O=C([N-]Cc1nc(C(=O)[N-]Cc2ccc(F)cc2)c([O-])c(=O)[n-]1)c1ccccc1 (optimized conformer: 47.27795446792234 kcal/mol)

> <smiles>
O=C(NCc1nc(C(=O)NCc2ccc(F)cc2)c(O)c(=O)[nH]1)c1ccccc1

> <score_type>
oracle

> <origin>
adg

> <m_score__min__energy>
-16.140000000000001

> <m_primary>
energy

> <minimizedAffinity>
-5.75146

> <minimizedRMSD>
1.16036

> <CNNscore>
0.6915845871

> <CNNaffinity>
6.7987074852

> <CNN_VS>
4.7018814087

> <CNNaffinity_variance>
0.1017622650

$$$$
73:0


 25 27  0  0  0  0  0  0  0  0999 V2000
   58.7828   33.9501   45.1000 C   0  0  0  0  0  0  0  0  0  0  0  0
   58.0848   32.9559   44.4905 N   0  0  0  0  0  0  0  0  0  0  0  0
   57.9398   31.8824   45.3016 C   0  0  0  0  0  0  0  0  0  0  0  0
   57.3061   30.7957   44.9733 N   0  0  0  0  0  0  0  0  0  0  0  0
   58.6650   32.1141   46.7990 S   0  0  0  0  0  0  0  0  0  0  0  0
   59.1865   33.6656   46.4008 C   0  0  0  0  0  0  0  0  0  0  0  0
   57.8845   29.4854   44.8480 C   0  0  0  0  0  0  0  0  0  0  0  0
   59.1282   29.3319   44.7125 O   0  0  0  0  0  0  0  0  0  0  0  0
   57.0019   28.2852   44.9366 C   0  0  0  0  0  0  0  0  0  0  0  0
   57.3761   27.4987   46.0605 O   0  0  0  0  0  0  0  0  0  0  0  0
   57.3442   26.1139   46.0626 N   0  0  0  0  0  0  0  0  0  0  0  0
   56.2783   25.2864   46.0404 C   0  0  0  0  0  0  0  0  0  0  0  0
   54.9524   25.6973   46.0261 O   0  0  0  0  0  0  0  0  0  0  0  0
   56.6892   23.9668   46.0340 C   0  0  0  0  0  0  0  0  0  0  0  0
   58.0734   23.9924   46.0532 C   0  0  0  0  0  0  0  0  0  0  0  0
   58.4319   25.3262   46.0728 C   0  0  0  0  0  0  0  0  0  0  0  0
   59.7346   25.8054   46.0935 O   0  0  0  0  0  0  0  0  0  0  0  0
   59.9860   34.5639   47.2917 C   0  0  0  0  0  0  0  0  0  0  0  0
   61.1972   33.8386   47.8206 C   0  0  0  0  0  0  0  0  0  0  0  0
   62.2971   33.6300   46.9716 C   0  0  0  0  0  0  0  0  0  0  0  0
   63.4449   32.9871   47.4410 C   0  0  0  0  0  0  0  0  0  0  0  0
   63.5071   32.5456   48.7618 C   0  0  0  0  0  0  0  0  0  0  0  0
   62.4270   32.7520   49.6203 C   0  0  0  0  0  0  0  0  0  0  0  0
   61.2749   33.4039   49.1647 C   0  0  0  0  0  0  0  0  0  0  0  0
   59.9548   33.6484   50.3016 Cl  0  0  0  0  0  0  0  0  0  0  0  0
  1  2  1  0
  2  3  1  0
  3  4  2  0
  4  7  1  0
  7  8  2  0
  7  9  1  0
  9 10  1  0
 10 11  1  0
 11 12  1  0
 12 13  1  0
 12 14  2  0
 14 15  1  0
 15 16  2  0
 16 17  1  0
  3  5  1  0
  5  6  1  0
  6 18  1  0
 18 19  1  0
 19 20  2  0
 20 21  1  0
 21 22  2  0
 22 23  1  0
 23 24  2  0
 24 25  1  0
  6  1  2  0
 24 19  1  0
 16 11  1  0
M  CHG 1   2  -1
M  CHG 1  13  -1
M  CHG 1  17  -1
M  END
> <UniqueID>
71

> <SMILES>
O=C(COn1c([O-])ccc1[O-])/N=c1\[n-]cc(Cc2ccccc2Cl)s1

> <Energy>
97.4038084968815

> <Genealogy>
O=C(COn1c([O-])ccc1[O-])N=c1[n-]cc(Cc2ccccc2Cl)s1 (protonated)
O=C(COn1c([O-])ccc1[O-])/N=c1\[n-]cc(Cc2ccccc2Cl)s1 (cis-trans isomerization)
O=C(COn1c([O-])ccc1[O-])/N=c1\[n-]cc(Cc2ccccc2Cl)s1 (3D coordinates assigned)
O=C(COn1c([O-])ccc1[O-])/N=c1\[n-]cc(Cc2ccccc2Cl)s1 (optimized conformer: 97.4038084968815 kcal/mol)

> <smiles>
O=C(COn1c(O)ccc1O)N=c1[nH]cc(Cc2ccccc2Cl)s1

> <score_type>
oracle

> <origin>
adg

> <m_score__min__energy>
-15.390000000000001

> <m_primary>
energy

> <minimizedAffinity>
-7.79047

> <minimizedRMSD>
1.38401

> <CNNscore>
0.7786692381

> <CNNaffinity>
6.8177466393

> <CNN_VS>
5.3087697029

> <CNNaffinity_variance>
0.1687157601

$$$$
0:0


 25 27  0  0  0  0  0  0  0  0999 V2000
   58.0505   31.7563   44.8448 C   0  0  0  0  0  0  0  0  0  0  0  0
   57.7598   31.9110   43.4777 C   0  0  0  0  0  0  0  0  0  0  0  0
   57.0863   30.8955   42.7994 C   0  0  0  0  0  0  0  0  0  0  0  0
   56.6943   29.7406   43.4774 C   0  0  0  0  0  0  0  0  0  0  0  0
   56.9738   29.6197   44.8534 C   0  0  0  0  0  0  0  0  0  0  0  0
   56.6404   28.5654   45.5457 N   0  0  0  0  0  0  0  0  0  0  0  0
   57.6442   30.6220   45.4816 N   0  0  0  0  0  0  0  0  0  0  0  0
   57.4600   27.4152   45.8064 C   0  0  0  0  0  0  0  0  0  0  0  0
   58.8522   27.5649   45.8520 C   0  0  0  0  0  0  0  0  0  0  0  0
   59.6707   26.4686   46.1361 C   0  0  0  0  0  0  0  0  0  0  0  0
   59.1012   25.2194   46.3993 C   0  0  0  0  0  0  0  0  0  0  0  0
   57.7110   25.0683   46.3887 C   0  0  0  0  0  0  0  0  0  0  0  0
   56.8878   26.1630   46.1068 C   0  0  0  0  0  0  0  0  0  0  0  0
   55.5067   26.0078   46.1424 O   0  0  0  0  0  0  0  0  0  0  0  0
   60.2330   33.4151   47.4709 C   0  0  0  0  0  0  0  0  0  0  0  0
   60.1560   34.7592   47.0878 C   0  0  0  0  0  0  0  0  0  0  0  0
   59.4062   35.1277   45.9693 C   0  0  0  0  0  0  0  0  0  0  0  0
   58.7190   34.1592   45.2334 C   0  0  0  0  0  0  0  0  0  0  0  0
   58.7689   32.8042   45.6138 C   0  0  0  0  0  0  0  0  0  0  0  0
   59.5385   32.4431   46.7368 C   0  0  0  0  0  0  0  0  0  0  0  0
   60.1450   32.1462   50.0201 N   0  0  0  0  0  0  0  0  0  0  0  0
   61.1703   32.9516   48.8871 S   0  0  0  0  0  0  0  0  0  0  0  0
   61.7657   34.1743   49.5280 O   0  0  0  0  0  0  0  0  0  0  0  0
   62.2871   32.0307   48.4800 O   0  0  0  0  0  0  0  0  0  0  0  0
   60.6890   31.8781   50.8402 H   0  0  0  0  0  0  0  0  0  0  0  0
 21 22  1  0
 22 23  2  0
 22 24  2  0
 22 15  1  0
 15 16  2  0
 16 17  1  0
 17 18  2  0
 18 19  1  0
 19  1  1  0
  1  2  2  0
  2  3  1  0
  3  4  2  0
  4  5  1  0
  5  6  2  0
  6  8  1  0
  8  9  2  0
  9 10  1  0
 10 11  2  0
 11 12  1  0
 12 13  2  0
 13 14  1  0
  5  7  1  0
 19 20  2  0
 20 15  1  0
  7  1  1  0
 13  8  1  0
 21 25  1  0
M  CHG 1   7  -1
M  CHG 1  14  -1
M  CHG 1  21  -1
M  END
> <UniqueID>
1

> <SMILES>
[NH-]S(=O)(=O)c1cccc(-c2cccc(=Nc3ccccc3[O-])[n-]2)c1

> <Energy>
53.716194498659476

> <Genealogy>
[NH-]S(=O)(=O)c1cccc(-c2cccc(=Nc3ccccc3[O-])[n-]2)c1 (protonated)
[NH-]S(=O)(=O)c1cccc(-c2cccc(=Nc3ccccc3[O-])[n-]2)c1 (3D coordinates assigned)
[NH-]S(=O)(=O)c1cccc(-c2cccc(=Nc3ccccc3[O-])[n-]2)c1 (optimized conformer: 53.716194498659476 kcal/mol)

> <smiles>
NS(=O)(=O)c1cccc(-c2cccc(=Nc3ccccc3O)[nH]2)c1

> <score_type>
oracle

> <origin>
adg

> <m_score__min__energy>
-16.359999999999999

> <m_primary>
energy

> <minimizedAffinity>
-8.15914

> <minimizedRMSD>
1.03171

> <CNNscore>
0.4358436465

> <CNNaffinity>
6.1345801353

> <CNN_VS>
2.6737177372

> <CNNaffinity_variance>
0.1404915601

$$$$
6:0


 30 33  0  0  0  0  0  0  0  0999 V2000
   58.4763   32.2599   46.5941 C   0  0  0  0  0  0  0  0  0  0  0  0
   58.7398   31.0218   47.2346 C   0  0  0  0  0  0  0  0  0  0  0  0
   58.5256   29.7957   46.5623 C   0  0  0  0  0  0  0  0  0  0  0  0
   58.0332   29.8733   45.2546 C   0  0  0  0  0  0  0  0  0  0  0  0
   57.7622   28.8465   44.4200 N   0  0  0  0  0  0  0  0  0  0  0  0
   57.3469   29.3873   43.2766 N   0  0  0  0  0  0  0  0  0  0  0  0
   57.3824   30.7250   43.4445 C   0  0  0  0  0  0  0  0  0  0  0  0
   57.0573   31.5552   42.5542 O   0  0  0  0  0  0  0  0  0  0  0  0
   57.8077   31.0563   44.6713 N   0  0  0  0  0  0  0  0  0  0  0  0
   58.0160   32.2530   45.2692 C   0  0  0  0  0  0  0  0  0  0  0  0
   58.8025   28.4944   47.2184 C   0  0  0  0  0  0  0  0  0  0  0  0
   58.7508   28.4111   48.4727 O   0  0  0  0  0  0  0  0  0  0  0  0
   59.1874   27.3340   46.4694 N   0  0  0  0  0  0  0  0  0  0  0  0
   58.3701   26.1838   46.2089 C   0  0  0  0  0  0  0  0  0  0  0  0
   58.9313   24.9326   45.8962 C   0  0  0  0  0  0  0  0  0  0  0  0
   58.1045   23.8339   45.6425 C   0  0  0  0  0  0  0  0  0  0  0  0
   56.7154   23.9778   45.6829 C   0  0  0  0  0  0  0  0  0  0  0  0
   56.1501   25.2259   45.9689 C   0  0  0  0  0  0  0  0  0  0  0  0
   54.7694   25.3713   45.9988 O   0  0  0  0  0  0  0  0  0  0  0  0
   56.9757   26.3265   46.2225 C   0  0  0  0  0  0  0  0  0  0  0  0
   58.7283   33.5187   47.2345 N   0  0  0  0  0  0  0  0  0  0  0  0
   59.8343   35.3811   46.3577 O   0  0  0  0  0  0  0  0  0  0  0  0
   59.8912   34.3426   47.0696 C   0  0  0  0  0  0  0  0  0  0  0  0
   61.1751   33.9451   47.6944 C   0  0  0  0  0  0  0  0  0  0  0  0
   61.3384   34.0011   49.0906 C   0  0  0  0  0  0  0  0  0  0  0  0
   62.5489   33.6206   49.6796 C   0  0  0  0  0  0  0  0  0  0  0  0
   63.6084   33.1807   48.8823 C   0  0  0  0  0  0  0  0  0  0  0  0
   64.7812   32.8129   49.4551 F   0  0  0  0  0  0  0  0  0  0  0  0
   63.4585   33.1192   47.4951 C   0  0  0  0  0  0  0  0  0  0  0  0
   62.2495   33.4983   46.9011 C   0  0  0  0  0  0  0  0  0  0  0  0
 22 23  2  0
 23 21  1  0
 21  1  1  0
  1  2  1  0
  2  3  2  0
  3 11  1  0
 11 12  2  0
 11 13  1  0
 13 14  1  0
 14 15  2  0
 15 16  1  0
 16 17  2  0
 17 18  1  0
 18 19  1  0
 18 20  2  0
  3  4  1  0
  4  5  2  0
  5  6  1  0
  6  7  1  0
  7  8  2  0
  7  9  1  0
  9 10  1  0
 23 24  1  0
 24 25  2  0
 25 26  1  0
 26 27  2  0
 27 28  1  0
 27 29  1  0
 29 30  2  0
 10  1  2  0
 30 24  1  0
 20 14  1  0
  9  4  1  0
M  CHG 1   6  -1
M  CHG 1  13  -1
M  CHG 1  19  -1
M  CHG 1  21  -1
M  END
> <UniqueID>
6

> <SMILES>
O=C([N-]c1cc(C(=O)[N-]c2cccc([O-])c2)c2n[n-]c(=O)n2c1)c1ccc(F)cc1

> <Energy>
98.8109111071532

> <Genealogy>
O=C([N-]c1cc(C(=O)[N-]c2cccc([O-])c2)c2n[n-]c(=O)n2c1)c1ccc(F)cc1 (protonated)
O=C([N-]c1cc(C(=O)[N-]c2cccc([O-])c2)c2n[n-]c(=O)n2c1)c1ccc(F)cc1 (3D coordinates assigned)
O=C([N-]c1cc(C(=O)[N-]c2cccc([O-])c2)c2n[n-]c(=O)n2c1)c1ccc(F)cc1 (optimized conformer: 98.8109111071532 kcal/mol)

> <smiles>
O=C(Nc1cc(C(=O)Nc2cccc(O)c2)c2n[nH]c(=O)n2c1)c1ccc(F)cc1

> <score_type>
oracle

> <origin>
adg

> <m_score__min__energy>
-15.52

> <m_primary>
energy

> <minimizedAffinity>
-8.62400

> <minimizedRMSD>
0.74148

> <CNNscore>
0.5813326240

> <CNNaffinity>
6.8238654137

> <CNN_VS>
3.9669356346

> <CNNaffinity_variance>
0.0462611318

$$$$
26:0


 24 26  0  0  0  0  0  0  0  0999 V2000
   57.8704   28.2405   43.3104 O   0  0  0  0  0  0  0  0  0  0  0  0
   57.5870   28.2731   44.5358 C   0  0  0  0  0  0  0  0  0  0  0  0
   58.2097   27.2916   45.4497 C   0  0  0  0  0  0  0  0  0  0  0  0
   58.0538   25.9208   45.1866 C   0  0  0  0  0  0  0  0  0  0  0  0
   57.3133   25.4904   44.0893 O   0  0  0  0  0  0  0  0  0  0  0  0
   58.6590   24.9798   46.0280 C   0  0  0  0  0  0  0  0  0  0  0  0
   58.5320   23.7477   45.7977 O   0  0  0  0  0  0  0  0  0  0  0  0
   59.3904   25.3892   47.0951 N   0  0  0  0  0  0  0  0  0  0  0  0
   59.5557   26.7049   47.3934 C   0  0  0  0  0  0  0  0  0  0  0  0
   60.3132   27.0710   48.5107 C   0  0  0  0  0  0  0  0  0  0  0  0
   60.4753   28.4196   48.8396 C   0  0  0  0  0  0  0  0  0  0  0  0
   59.8756   29.4081   48.0562 C   0  0  0  0  0  0  0  0  0  0  0  0
   59.1182   29.0555   46.9370 C   0  0  0  0  0  0  0  0  0  0  0  0
   58.9577   27.6994   46.5802 C   0  0  0  0  0  0  0  0  0  0  0  0
   56.6568   29.2540   45.0109 N   0  0  0  0  0  0  0  0  0  0  0  0
   56.3685   30.5126   44.3296 C   0  0  0  0  0  0  0  0  0  0  0  0
   57.6650   31.1477   43.8270 C   0  0  0  0  0  0  0  0  0  0  0  0
   58.1579   32.1953   44.7916 C   0  0  0  0  0  0  0  0  0  0  0  0
   58.2102   31.9186   46.1674 C   0  0  0  0  0  0  0  0  0  0  0  0
   58.6108   32.9073   47.0705 C   0  0  0  0  0  0  0  0  0  0  0  0
   58.9512   34.1825   46.6077 C   0  0  0  0  0  0  0  0  0  0  0  0
   59.3315   35.1419   47.4871 F   0  0  0  0  0  0  0  0  0  0  0  0
   58.8921   34.4690   45.2421 C   0  0  0  0  0  0  0  0  0  0  0  0
   58.4931   33.4812   44.3348 C   0  0  0  0  0  0  0  0  0  0  0  0
  1  2  2  0
  2 15  1  0
 15 16  1  0
 16 17  1  0
 17 18  1  0
 18 19  2  0
 19 20  1  0
 20 21  2  0
 21 22  1  0
 21 23  1  0
 23 24  2  0
  2  3  1  0
  3  4  2  0
  4  5  1  0
  4  6  1  0
  6  7  2  0
  6  8  1  0
  8  9  1  0
  9 10  2  0
 10 11  1  0
 11 12  2  0
 12 13  1  0
 13 14  2  0
 24 18  1  0
 14  3  1  0
 14  9  1  0
M  CHG 1   5  -1
M  CHG 1   8  -1
M  CHG 1  15  -1
M  END
> <UniqueID>
26

> <SMILES>
O=C([N-]CCc1ccc(F)cc1)c1c([O-])c(=O)[n-]c2ccccc12

> <Energy>
45.2722368351149

> <Genealogy>
O=C([N-]CCc1ccc(F)cc1)c1c([O-])c(=O)[n-]c2ccccc12 (protonated)
O=C([N-]CCc1ccc(F)cc1)c1c([O-])c(=O)[n-]c2ccccc12 (3D coordinates assigned)
O=C([N-]CCc1ccc(F)cc1)c1c([O-])c(=O)[n-]c2ccccc12 (optimized conformer: 45.2722368351149 kcal/mol)

> <smiles>
O=C(NCCc1ccc(F)cc1)c1c(O)c(=O)[nH]c2ccccc12

> <score_type>
oracle

> <origin>
adg

> <m_score__min__energy>
-14.6

> <m_primary>
energy

> <minimizedAffinity>
-6.75239

> <minimizedRMSD>
1.51102

> <CNNscore>
0.7052989602

> <CNNaffinity>
6.6708831787

> <CNN_VS>
4.7049670219

> <CNNaffinity_variance>
0.2162722349

$$$$
43:0


 32 35  0  0  0  0  0  0  0  0999 V2000
   58.3656   29.0907   45.1348 C   0  0  0  0  0  0  0  0  0  0  0  0
   59.7708   28.1707   45.2848 S   0  0  0  0  0  0  0  0  0  0  0  0
   58.9256   26.7713   45.6722 C   0  0  0  0  0  0  0  0  0  0  0  0
   59.4805   25.6632   45.8927 O   0  0  0  0  0  0  0  0  0  0  0  0
   57.5827   26.9773   45.7265 N   0  0  0  0  0  0  0  0  0  0  0  0
   56.6064   25.9654   46.0567 C   0  0  0  0  0  0  0  0  0  0  0  0
   55.3740   26.2287   45.9859 O   0  0  0  0  0  0  0  0  0  0  0  0
   57.2770   28.2822   45.4487 C   0  0  0  0  0  0  0  0  0  0  0  0
   55.9763   28.7760   45.4849 O   0  0  0  0  0  0  0  0  0  0  0  0
   59.5172   30.1835   47.8052 C   0  0  0  0  0  0  0  0  0  0  0  0
   59.3179   31.3228   47.1261 C   0  0  0  0  0  0  0  0  0  0  0  0
   58.8363   31.4572   45.8115 C   0  0  0  0  0  0  0  0  0  0  0  0
   58.3182   30.5507   44.9617 C   0  0  0  0  0  0  0  0  0  0  0  0
   58.9673   32.7983   45.4870 C   0  0  0  0  0  0  0  0  0  0  0  0
   59.4611   33.4362   46.6051 C   0  0  0  0  0  0  0  0  0  0  0  0
   59.7226   34.9070   46.7042 C   0  0  0  0  0  0  0  0  0  0  0  0
   59.6621   32.5465   47.6030 N   0  0  0  0  0  0  0  0  0  0  0  0
   60.2190   32.8585   48.8911 C   0  0  0  0  0  0  0  0  0  0  0  0
   61.6094   32.9592   49.0518 C   0  0  0  0  0  0  0  0  0  0  0  0
   62.1529   33.2452   50.3074 C   0  0  0  0  0  0  0  0  0  0  0  0
   61.3129   33.4295   51.4087 C   0  0  0  0  0  0  0  0  0  0  0  0
   59.9254   33.3231   51.2566 C   0  0  0  0  0  0  0  0  0  0  0  0
   59.0908   33.5022   52.3537 O   0  0  0  0  0  0  0  0  0  0  0  0
   59.3799   33.0373   50.0006 C   0  0  0  0  0  0  0  0  0  0  0  0
   57.0283   24.6438   46.4178 N   0  0  0  0  0  0  0  0  0  0  0  0
   56.9125   23.4765   45.5923 C   0  0  0  0  0  0  0  0  0  0  0  0
   56.7847   23.6459   44.2072 C   0  0  0  0  0  0  0  0  0  0  0  0
   56.6763   22.5357   43.3642 C   0  0  0  0  0  0  0  0  0  0  0  0
   56.7155   21.2462   43.8987 C   0  0  0  0  0  0  0  0  0  0  0  0
   56.8770   21.0645   45.2747 C   0  0  0  0  0  0  0  0  0  0  0  0
   56.9912   22.1710   46.1235 C   0  0  0  0  0  0  0  0  0  0  0  0
   57.2178   21.9622   47.4793 O   0  0  0  0  0  0  0  0  0  0  0  0
 10 11  2  0
 11 12  1  0
 12 13  2  0
 13  1  1  0
  1  2  1  0
  2  3  1  0
  3  4  2  0
  3  5  1  0
  5  6  1  0
  6  7  2  0
  6 25  1  0
 25 26  1  0
 26 27  2  0
 27 28  1  0
 28 29  2  0
 29 30  1  0
 30 31  2  0
 31 32  1  0
  5  8  1  0
  8  9  1  0
 12 14  1  0
 14 15  2  0
 15 16  1  0
 15 17  1  0
 17 18  1  0
 18 19  2  0
 19 20  1  0
 20 21  2  0
 21 22  1  0
 22 23  1  0
 22 24  2  0
 17 11  1  0
 24 18  1  0
  8  1  2  0
 31 26  1  0
M  CHG 1   9  -1
M  CHG 1  23  -1
M  CHG 1  25  -1
M  CHG 1  32  -1
M  END
> <UniqueID>
42

> <SMILES>
C=c1c(=Cc2sc(=O)n(C(=O)[N-]c3ccccc3[O-])c2[O-])cc(C)n1-c1cccc([O-])c1

> <Energy>
138.28455179163487

> <Genealogy>
C=c1c(=Cc2sc(=O)n(C(=O)[N-]c3ccccc3[O-])c2[O-])cc(C)n1-c1cccc([O-])c1 (protonated)
C=c1c(=Cc2sc(=O)n(C(=O)[N-]c3ccccc3[O-])c2[O-])cc(C)n1-c1cccc([O-])c1 (3D coordinates assigned)
C=c1c(=Cc2sc(=O)n(C(=O)[N-]c3ccccc3[O-])c2[O-])cc(C)n1-c1cccc([O-])c1 (optimized conformer: 138.28455179163487 kcal/mol)

> <smiles>
C=c1c(=Cc2sc(=O)n(C(=O)Nc3ccccc3O)c2O)cc(C)n1-c1cccc(O)c1

> <score_type>
oracle

> <origin>
adg

> <m_score__min__energy>
-18.129999999999999

> <m_primary>
energy

> <minimizedAffinity>
-8.60567

> <minimizedRMSD>
0.96324

> <CNNscore>
0.5323320627

> <CNNaffinity>
7.1064834595

> <CNN_VS>
3.7830090523

> <CNNaffinity_variance>
0.0238937344

$$$$
59:0


 28 30  0  0  0  0  0  0  0  0999 V2000
   58.4395   28.7416   45.7857 C   0  0  0  0  0  0  0  0  0  0  0  0
   59.5266   28.6984   44.8946 C   0  0  0  0  0  0  0  0  0  0  0  0
   60.8376   28.7776   45.3717 C   0  0  0  0  0  0  0  0  0  0  0  0
   61.0806   28.8983   46.7404 C   0  0  0  0  0  0  0  0  0  0  0  0
   60.0082   28.9395   47.6516 C   0  0  0  0  0  0  0  0  0  0  0  0
   58.6965   28.8636   47.1652 C   0  0  0  0  0  0  0  0  0  0  0  0
   57.0486   28.6603   45.2805 C   0  0  0  0  0  0  0  0  0  0  0  0
   56.4400   29.7165   44.9546 O   0  0  0  0  0  0  0  0  0  0  0  0
   58.7682   24.7642   45.7424 C   0  0  0  0  0  0  0  0  0  0  0  0
   58.2363   25.9708   45.4125 N   0  0  0  0  0  0  0  0  0  0  0  0
   56.8967   26.2170   45.4849 C   0  0  0  0  0  0  0  0  0  0  0  0
   56.4044   27.3800   45.1635 N   0  0  0  0  0  0  0  0  0  0  0  0
   56.0326   25.1974   45.9127 C   0  0  0  0  0  0  0  0  0  0  0  0
   54.6617   25.4155   45.9975 O   0  0  0  0  0  0  0  0  0  0  0  0
   56.5604   23.9489   46.2569 C   0  0  0  0  0  0  0  0  0  0  0  0
   57.9353   23.7290   46.1712 C   0  0  0  0  0  0  0  0  0  0  0  0
   60.1924   29.0601   49.0386 O   0  0  0  0  0  0  0  0  0  0  0  0
   59.3967   29.8589   49.9142 C   0  0  0  0  0  0  0  0  0  0  0  0
   60.1816   31.0850   50.3883 C   0  0  0  0  0  0  0  0  0  0  0  0
   61.5066   31.2191   49.6314 C   0  0  0  0  0  0  0  0  0  0  0  0
   61.5604   32.4900   48.9083 N   0  0  0  0  0  0  0  0  0  0  0  0
   60.6934   32.8774   48.0184 C   0  0  0  0  0  0  0  0  0  0  0  0
   60.2969   32.0422   47.0157 N   0  0  0  0  0  0  0  0  0  0  0  0
   59.3951   32.4243   46.0742 C   0  0  0  0  0  0  0  0  0  0  0  0
   58.8464   33.7151   46.1071 C   0  0  0  0  0  0  0  0  0  0  0  0
   57.8207   34.1341   45.0969 C   0  0  0  0  0  0  0  0  0  0  0  0
   59.2238   34.5806   47.1417 C   0  0  0  0  0  0  0  0  0  0  0  0
   60.1528   34.1651   48.0989 C   0  0  0  0  0  0  0  0  0  0  0  0
  9 10  1  0
 10 11  1  0
 11 12  2  0
 12  7  1  0
  7  8  2  0
  7  1  1  0
  1  2  2  0
  2  3  1  0
  3  4  2  0
  4  5  1  0
  5 17  1  0
 17 18  1  0
 18 19  1  0
 19 20  1  0
 20 21  1  0
 21 22  2  0
 22 23  1  0
 23 24  1  0
 24 25  2  0
 25 26  1  0
 25 27  1  0
 27 28  2  0
  5  6  2  0
 11 13  1  0
 13 14  1  0
 13 15  2  0
 15 16  1  0
 16  9  2  0
  6  1  1  0
 28 22  1  0
M  CHG 1  10  -1
M  CHG 1  14  -1
M  CHG 1  23  -1
M  END
> <UniqueID>
56

> <SMILES>
Cc1ccc(=NCCCOc2cccc(C(=O)/N=c3\[n-]cccc3[O-])c2)[n-]c1

> <Energy>
50.25358287428815

> <Genealogy>
Cc1ccc(=NCCCOc2cccc(C(=O)N=c3[n-]cccc3[O-])c2)[n-]c1 (protonated)
Cc1ccc(=NCCCOc2cccc(C(=O)/N=c3\[n-]cccc3[O-])c2)[n-]c1 (cis-trans isomerization)
Cc1ccc(=NCCCOc2cccc(C(=O)/N=c3\[n-]cccc3[O-])c2)[n-]c1 (3D coordinates assigned)
Cc1ccc(=NCCCOc2cccc(C(=O)/N=c3\[n-]cccc3[O-])c2)[n-]c1 (optimized conformer: 50.25358287428815 kcal/mol)

> <smiles>
Cc1ccc(=NCCCOc2cccc(C(=O)N=c3[nH]cccc3O)c2)[nH]c1

> <score_type>
oracle

> <origin>
adg

> <m_score__min__energy>
-14.289999999999999

> <m_primary>
energy

> <minimizedAffinity>
-5.93937

> <minimizedRMSD>
0.97730

> <CNNscore>
0.6436339617

> <CNNaffinity>
7.1571621895

> <CNN_VS>
4.6065926552

> <CNNaffinity_variance>
0.2774388492

$$$$
81:0


 23 24  0  0  0  0  0  0  0  0999 V2000
   57.4503   28.8193   45.3147 C   0  0  0  0  0  0  0  0  0  0  0  0
   56.2750   28.8373   44.8600 O   0  0  0  0  0  0  0  0  0  0  0  0
   58.2538   27.5875   45.1933 C   0  0  0  0  0  0  0  0  0  0  0  0
   57.7866   26.4574   44.6355 C   0  0  0  0  0  0  0  0  0  0  0  0
   57.3099   25.2693   45.3770 C   0  0  0  0  0  0  0  0  0  0  0  0
   58.1552   23.8323   45.6578 S   0  0  0  0  0  0  0  0  0  0  0  0
   56.9462   23.2063   46.6391 C   0  0  0  0  0  0  0  0  0  0  0  0
   56.9901   22.0742   47.1861 O   0  0  0  0  0  0  0  0  0  0  0  0
   55.9103   24.0570   46.7915 N   0  0  0  0  0  0  0  0  0  0  0  0
   56.1174   25.2072   46.0979 C   0  0  0  0  0  0  0  0  0  0  0  0
   55.1925   26.2436   46.1196 O   0  0  0  0  0  0  0  0  0  0  0  0
   60.6001   27.5485   46.3112 N   0  0  0  0  0  0  0  0  0  0  0  0
   59.5552   27.5657   45.8135 C   0  0  0  0  0  0  0  0  0  0  0  0
   57.9658   29.9989   45.9434 N   0  0  0  0  0  0  0  0  0  0  0  0
   58.2239   31.2568   45.2490 C   0  0  0  0  0  0  0  0  0  0  0  0
   58.9337   32.2662   46.1279 C   0  0  0  0  0  0  0  0  0  0  0  0
   58.5049   33.6105   46.1985 C   0  0  0  0  0  0  0  0  0  0  0  0
   59.1720   34.5306   47.0100 C   0  0  0  0  0  0  0  0  0  0  0  0
   60.2790   34.1304   47.7576 C   0  0  0  0  0  0  0  0  0  0  0  0
   60.7283   32.8112   47.6892 C   0  0  0  0  0  0  0  0  0  0  0  0
   60.0730   31.8777   46.8768 C   0  0  0  0  0  0  0  0  0  0  0  0
   60.5837   30.5777   46.8332 O   0  0  0  0  0  0  0  0  0  0  0  0
   61.3388   30.3537   47.3407 H   0  0  0  0  0  0  0  0  0  0  0  0
 12 13  3  0
 13  3  1  0
  3  4  2  0
  4  5  1  0
  5  6  1  0
  6  7  1  0
  7  8  2  0
  7  9  1  0
  9 10  1  0
 10 11  1  0
  3  1  1  0
  1  2  2  0
  1 14  1  0
 14 15  1  0
 15 16  1  0
 16 17  2  0
 17 18  1  0
 18 19  2  0
 19 20  1  0
 20 21  2  0
 21 22  1  0
 10  5  2  0
 21 16  1  0
 22 23  1  0
M  CHG 1   9  -1
M  CHG 1  11  -1
M  CHG 1  14  -1
M  END
> <UniqueID>
76

> <SMILES>
N#CC(=Cc1sc(=O)[n-]c1[O-])C(=O)[N-]Cc1ccccc1O

> <Energy>
71.6133020106697

> <Genealogy>
N#CC(=Cc1sc(=O)[n-]c1[O-])C(=O)[N-]Cc1ccccc1O (protonated)
N#CC(=Cc1sc(=O)[n-]c1[O-])C(=O)[N-]Cc1ccccc1O (3D coordinates assigned)
N#CC(=Cc1sc(=O)[n-]c1[O-])C(=O)[N-]Cc1ccccc1O (optimized conformer: 71.6133020106697 kcal/mol)

> <smiles>
N#CC(=Cc1sc(=O)[nH]c1O)C(=O)NCc1ccccc1O

> <score_type>
oracle

> <origin>
adg

> <m_score__min__energy>
-14.81

> <m_primary>
energy

> <minimizedAffinity>
-6.57489

> <minimizedRMSD>
1.32717

> <CNNscore>
0.4782476127

> <CNNaffinity>
6.4944858551

> <CNN_VS>
3.1059722900

> <CNNaffinity_variance>
0.7385568619

$$$$
82:0


 28 30  0  0  0  0  0  0  0  0999 V2000
   58.7237   26.6002   46.0903 C   0  0  0  0  0  0  0  0  0  0  0  0
   59.0712   25.4328   46.7835 C   0  0  0  0  0  0  0  0  0  0  0  0
   58.0829   24.5460   47.2165 C   0  0  0  0  0  0  0  0  0  0  0  0
   56.7230   24.8238   46.9816 C   0  0  0  0  0  0  0  0  0  0  0  0
   56.3751   26.0057   46.3120 C   0  0  0  0  0  0  0  0  0  0  0  0
   55.0376   26.3043   46.0801 O   0  0  0  0  0  0  0  0  0  0  0  0
   57.3654   26.8926   45.8791 C   0  0  0  0  0  0  0  0  0  0  0  0
   59.6328   28.5626   44.8190 C   0  0  0  0  0  0  0  0  0  0  0  0
   59.7963   27.5247   45.6568 C   0  0  0  0  0  0  0  0  0  0  0  0
   59.3553   32.7729   47.4928 C   0  0  0  0  0  0  0  0  0  0  0  0
   58.8029   31.8585   46.4787 N   0  0  0  0  0  0  0  0  0  0  0  0
   57.6741   32.2033   45.7793 C   0  0  0  0  0  0  0  0  0  0  0  0
   57.0820   33.2931   46.0048 O   0  0  0  0  0  0  0  0  0  0  0  0
   57.1759   31.3729   44.8299 N   0  0  0  0  0  0  0  0  0  0  0  0
   57.7821   30.2002   44.5206 C   0  0  0  0  0  0  0  0  0  0  0  0
   57.2316   29.3779   43.5410 O   0  0  0  0  0  0  0  0  0  0  0  0
   58.9646   29.8368   45.1705 C   0  0  0  0  0  0  0  0  0  0  0  0
   59.4562   30.6891   46.1802 C   0  0  0  0  0  0  0  0  0  0  0  0
   60.4952   30.3608   46.8193 O   0  0  0  0  0  0  0  0  0  0  0  0
   56.4383   29.6290   43.1101 H   0  0  0  0  0  0  0  0  0  0  0  0
   55.6921   23.9623   47.3947 O   0  0  0  0  0  0  0  0  0  0  0  0
   54.7940   23.2719   46.5252 C   0  0  0  0  0  0  0  0  0  0  0  0
   55.5315   22.6810   45.3525 C   0  0  0  0  0  0  0  0  0  0  0  0
   56.1612   21.4306   45.4741 C   0  0  0  0  0  0  0  0  0  0  0  0
   56.8374   20.8736   44.3841 C   0  0  0  0  0  0  0  0  0  0  0  0
   56.8835   21.5564   43.1652 C   0  0  0  0  0  0  0  0  0  0  0  0
   56.2490   22.7936   43.0321 C   0  0  0  0  0  0  0  0  0  0  0  0
   55.5703   23.3543   44.1201 C   0  0  0  0  0  0  0  0  0  0  0  0
 10 11  1  0
 11 12  1  0
 12 13  2  0
 12 14  1  0
 14 15  1  0
 15 16  1  0
 15 17  2  0
 17  8  1  0
  8  9  2  0
  9  1  1  0
  1  2  2  0
  2  3  1  0
  3  4  2  0
  4 21  1  0
 21 22  1  0
 22 23  1  0
 23 24  2  0
 24 25  1  0
 25 26  2  0
 26 27  1  0
 27 28  2  0
  4  5  1  0
  5  6  1  0
  5  7  2  0
 17 18  1  0
 18 19  2  0
 18 11  1  0
  7  1  1  0
 28 23  1  0
 16 20  1  0
M  CHG 1   6  -1
M  CHG 1  14  -1
M  END
> <UniqueID>
77

> <SMILES>
Cn1c(=O)[n-]c(O)c(C=Cc2ccc(OCc3ccccc3)c([O-])c2)c1=O

> <Energy>
60.75886319562767

> <Genealogy>
Cn1c(=O)[n-]c(O)c(C=Cc2ccc(OCc3ccccc3)c([O-])c2)c1=O (protonated)
Cn1c(=O)[n-]c(O)c(C=Cc2ccc(OCc3ccccc3)c([O-])c2)c1=O (3D coordinates assigned)
Cn1c(=O)[n-]c(O)c(C=Cc2ccc(OCc3ccccc3)c([O-])c2)c1=O (optimized conformer: 60.75886319562767 kcal/mol)

> <smiles>
Cn1c(=O)[nH]c(O)c(C=Cc2ccc(OCc3ccccc3)c(O)c2)c1=O

> <score_type>
oracle

> <origin>
adg

> <m_score__min__energy>
-14.94

> <m_primary>
energy

> <minimizedAffinity>
-7.89603

> <minimizedRMSD>
0.50699

> <CNNscore>
0.2351918817

> <CNNaffinity>
5.7574772835

> <CNN_VS>
1.3541119099

> <CNNaffinity_variance>
0.0624178760

$$$$
86:0


 26 30  0  0  0  0  0  0  0  0999 V2000
   59.8316   26.6823   47.6925 C   0  0  0  0  0  0  0  0  0  0  0  0
   60.3558   27.5814   48.4698 N   0  0  0  0  0  0  0  0  0  0  0  0
   60.2379   28.8101   47.8087 N   0  0  0  0  0  0  0  0  0  0  0  0
   59.9311   30.0145   48.3264 C   0  0  0  0  0  0  0  0  0  0  0  0
   60.2727   30.4364   49.5069 N   0  0  0  0  0  0  0  0  0  0  0  0
   59.1536   30.7355   47.4833 N   0  0  0  0  0  0  0  0  0  0  0  0
   58.9675   29.8717   46.4487 C   0  0  0  0  0  0  0  0  0  0  0  0
   59.6337   28.7137   46.6548 N   0  0  0  0  0  0  0  0  0  0  0  0
   59.2870   27.3396   46.4883 C   0  0  0  0  0  0  0  0  0  0  0  0
   58.4383   26.8317   45.5853 C   0  0  0  0  0  0  0  0  0  0  0  0
   57.8846   25.4704   45.6660 C   0  0  0  0  0  0  0  0  0  0  0  0
   58.6410   24.3613   45.5869 N   0  0  0  0  0  0  0  0  0  0  0  0
   57.7550   23.3615   45.7853 C   0  0  0  0  0  0  0  0  0  0  0  0
   58.0887   22.1476   45.7705 O   0  0  0  0  0  0  0  0  0  0  0  0
   56.4860   23.7640   46.0083 N   0  0  0  0  0  0  0  0  0  0  0  0
   56.5848   25.1013   45.9416 C   0  0  0  0  0  0  0  0  0  0  0  0
   55.5203   25.9628   46.1805 O   0  0  0  0  0  0  0  0  0  0  0  0
   58.1893   30.2145   45.2453 C   0  0  0  0  0  0  0  0  0  0  0  0
   57.0127   29.5138   44.9435 C   0  0  0  0  0  0  0  0  0  0  0  0
   56.2662   29.8759   43.8190 C   0  0  0  0  0  0  0  0  0  0  0  0
   56.6710   30.9103   43.0357 N   0  0  0  0  0  0  0  0  0  0  0  0
   57.7960   31.6192   43.3155 C   0  0  0  0  0  0  0  0  0  0  0  0
   58.5710   31.2907   44.4300 C   0  0  0  0  0  0  0  0  0  0  0  0
   61.1003   31.6122   49.7501 C   0  0  0  0  0  0  0  0  0  0  0  0
   62.2979   31.6854   48.8226 C   0  0  0  0  0  0  0  0  0  0  0  0
   62.4868   31.2921   50.2805 C   0  0  0  0  0  0  0  0  0  0  0  0
  1  2  2  0
  2  3  1  0
  3  4  1  0
  4  5  2  0
  5 24  1  0
 24 25  1  0
 25 26  1  0
  4  6  1  0
  6  7  2  0
  7 18  1  0
 18 19  2  0
 19 20  1  0
 20 21  2  0
 21 22  1  0
 22 23  2  0
  7  8  1  0
  8  9  1  0
  9 10  2  0
 10 11  1  0
 11 12  1  0
 12 13  1  0
 13 14  2  0
 13 15  1  0
 15 16  1  0
 16 17  1  0
  9  1  1  0
 16 11  2  0
  8  3  1  0
 26 24  1  0
 23 18  1  0
M  CHG 1  12  -1
M  CHG 1  15  -1
M  CHG 1  17  -1
M  END
> <UniqueID>
81

> <SMILES>
O=c1[n-]c([O-])c(/C=C2\C=Nn3/c(=N\C4CC4)nc(-c4ccncc4)n32)[n-]1

> <Energy>
440.2759068602489

> <Genealogy>
O=c1[n-]c([O-])c(C=C2C=Nn3c(=NC4CC4)nc(-c4ccncc4)n32)[n-]1 (protonated)
O=c1[n-]c([O-])c(/C=C2\C=Nn3/c(=N\C4CC4)nc(-c4ccncc4)n32)[n-]1 (cis-trans isomerization)
O=c1[n-]c([O-])c(/C=C2\C=Nn3/c(=N\C4CC4)nc(-c4ccncc4)n32)[n-]1 (3D coordinates assigned)
O=c1[n-]c([O-])c(/C=C2\C=Nn3/c(=N\C4CC4)nc(-c4ccncc4)n32)[n-]1 (nonaromatic ring conformer: 440.2759068602489 kcal/mol)

> <smiles>
O=c1[nH]c(O)c(C=C2C=Nn3c(=NC4CC4)nc(-c4ccncc4)n32)[nH]1

> <score_type>
oracle

> <origin>
adg

> <m_score__min__energy>
-15.16

> <m_primary>
energy

> <minimizedAffinity>
-7.57875

> <minimizedRMSD>
1.95223

> <CNNscore>
0.1452198029

> <CNNaffinity>
6.1233496666

> <CNN_VS>
0.8892316222

> <CNNaffinity_variance>
0.0529606678

$$$$
94:0


 29 32  0  0  0  0  0  0  0  0999 V2000
   57.4002   30.7210   45.3139 C   0  0  0  0  0  0  0  0  0  0  0  0
   58.5281   30.3338   46.0471 C   0  0  0  0  0  0  0  0  0  0  0  0
   58.9017   28.9827   46.1153 C   0  0  0  0  0  0  0  0  0  0  0  0
   58.1449   28.0208   45.4288 C   0  0  0  0  0  0  0  0  0  0  0  0
   57.0338   28.4078   44.6733 C   0  0  0  0  0  0  0  0  0  0  0  0
   56.6629   29.7554   44.6063 C   0  0  0  0  0  0  0  0  0  0  0  0
   55.5733   30.1286   43.8281 O   0  0  0  0  0  0  0  0  0  0  0  0
   60.3134   28.4941   47.0589 S   0  0  0  0  0  0  0  0  0  0  0  0
   60.9556   27.2979   46.4092 O   0  0  0  0  0  0  0  0  0  0  0  0
   61.3183   29.6129   47.0646 O   0  0  0  0  0  0  0  0  0  0  0  0
   59.8781   28.1002   48.7092 N   0  0  0  0  0  0  0  0  0  0  0  0
   60.7706   27.0487   49.2391 C   0  0  0  0  0  0  0  0  0  0  0  0
   60.7651   27.0537   50.7779 C   0  0  0  0  0  0  0  0  0  0  0  0
   61.1880   28.2831   51.3584 O   0  0  0  0  0  0  0  0  0  0  0  0
   61.0572   29.4004   50.4924 C   0  0  0  0  0  0  0  0  0  0  0  0
   59.8338   29.3061   49.5637 C   0  0  0  0  0  0  0  0  0  0  0  0
   57.0379   32.1036   45.2625 N   0  0  0  0  0  0  0  0  0  0  0  0
   58.6068   33.2118   43.9592 O   0  0  0  0  0  0  0  0  0  0  0  0
   57.9655   33.1731   45.0448 C   0  0  0  0  0  0  0  0  0  0  0  0
   58.2908   34.1666   46.1259 C   0  0  0  0  0  0  0  0  0  0  0  0
   59.0586   33.5064   47.1854 N   0  0  0  0  0  0  0  0  0  0  0  0
   58.5041   33.0407   48.3011 N   0  0  0  0  0  0  0  0  0  0  0  0
   59.4883   32.6082   49.1252 C   0  0  0  0  0  0  0  0  0  0  0  0
   60.6996   32.8253   48.5029 C   0  0  0  0  0  0  0  0  0  0  0  0
   62.0088   32.6161   48.9267 C   0  0  0  0  0  0  0  0  0  0  0  0
   63.0421   32.9863   48.0482 C   0  0  0  0  0  0  0  0  0  0  0  0
   62.7417   33.5441   46.7824 C   0  0  0  0  0  0  0  0  0  0  0  0
   61.4050   33.7473   46.3899 C   0  0  0  0  0  0  0  0  0  0  0  0
   60.3994   33.3800   47.2892 C   0  0  0  0  0  0  0  0  0  0  0  0
 18 19  2  0
 19 20  1  0
 20 21  1  0
 21 22  1  0
 22 23  2  0
 23 24  1  0
 24 25  2  0
 25 26  1  0
 26 27  2  0
 27 28  1  0
 28 29  2  0
 19 17  1  0
 17  1  1  0
  1  2  2  0
  2  3  1  0
  3  8  1  0
  8  9  2  0
  8 10  2  0
  8 11  1  0
 11 12  1  0
 12 13  1  0
 13 14  1  0
 14 15  1  0
 15 16  1  0
  3  4  2  0
  4  5  1  0
  5  6  2  0
  6  7  1  0
 29 21  1  0
  6  1  1  0
 29 24  1  0
 16 11  1  0
M  CHG 1   7  -1
M  CHG 1  17  -1
M  END
> <UniqueID>
88

> <SMILES>
O=C(Cn1ncc2ccccc21)[N-]c1cc(S(=O)(=O)N2CCOCC2)ccc1[O-]

> <Energy>
103.14789825999014

> <Genealogy>
O=C(Cn1ncc2ccccc21)[N-]c1cc(S(=O)(=O)N2CCOCC2)ccc1[O-] (protonated)
O=C(Cn1ncc2ccccc21)[N-]c1cc(S(=O)(=O)N2CCOCC2)ccc1[O-] (3D coordinates assigned)
O=C(Cn1ncc2ccccc21)[N-]c1cc(S(=O)(=O)N2CCOCC2)ccc1[O-] (nonaromatic ring conformer: 103.14789825999014 kcal/mol)

> <smiles>
O=C(Cn1ncc2ccccc21)Nc1cc(S(=O)(=O)N2CCOCC2)ccc1O

> <score_type>
oracle

> <origin>
adg

> <m_score__min__energy>
-14.050000000000001

> <m_primary>
energy

> <minimizedAffinity>
-5.27468

> <minimizedRMSD>
0.83682

> <CNNscore>
0.6784043908

> <CNNaffinity>
6.1671562195

> <CNN_VS>
4.1838259697

> <CNNaffinity_variance>
0.1020196602

$$$$
2:0


 25 27  0  0  0  0  0  0  0  0999 V2000
   58.0494   31.9122   45.2158 C   0  0  0  0  0  0  0  0  0  0  0  0
   57.2333   31.3261   44.2139 C   0  0  0  0  0  0  0  0  0  0  0  0
   57.0076   29.9386   44.1951 C   0  0  0  0  0  0  0  0  0  0  0  0
   57.6031   29.1472   45.1779 C   0  0  0  0  0  0  0  0  0  0  0  0
   57.4622   27.7994   45.2797 N   0  0  0  0  0  0  0  0  0  0  0  0
   58.1596   27.3114   46.3390 C   0  0  0  0  0  0  0  0  0  0  0  0
   58.1822   26.0627   46.7002 N   0  0  0  0  0  0  0  0  0  0  0  0
   58.9528   28.5309   47.1998 S   0  0  0  0  0  0  0  0  0  0  0  0
   58.3974   29.7257   46.1552 C   0  0  0  0  0  0  0  0  0  0  0  0
   58.6360   31.0958   46.1990 C   0  0  0  0  0  0  0  0  0  0  0  0
   56.9248   27.2483   44.6659 H   0  0  0  0  0  0  0  0  0  0  0  0
   58.6481   34.0016   46.4530 C   0  0  0  0  0  0  0  0  0  0  0  0
   58.2965   33.2934   45.2681 O   0  0  0  0  0  0  0  0  0  0  0  0
   58.3127   24.9366   45.8225 C   0  0  0  0  0  0  0  0  0  0  0  0
   59.3119   24.1797   45.9450 O   0  0  0  0  0  0  0  0  0  0  0  0
   57.3493   24.7080   44.6907 C   0  0  0  0  0  0  0  0  0  0  0  0
   56.2141   23.8190   45.1394 C   0  0  0  0  0  0  0  0  0  0  0  0
   55.0848   24.3500   45.7871 C   0  0  0  0  0  0  0  0  0  0  0  0
   54.9702   25.7181   46.0110 O   0  0  0  0  0  0  0  0  0  0  0  0
   54.0910   23.5248   46.2040 N   0  0  0  0  0  0  0  0  0  0  0  0
   54.1664   22.1834   46.0177 C   0  0  0  0  0  0  0  0  0  0  0  0
   53.2305   21.4398   46.4105 O   0  0  0  0  0  0  0  0  0  0  0  0
   55.2528   21.6420   45.4100 N   0  0  0  0  0  0  0  0  0  0  0  0
   56.2748   22.4223   44.9739 C   0  0  0  0  0  0  0  0  0  0  0  0
   57.2718   21.8816   44.4243 O   0  0  0  0  0  0  0  0  0  0  0  0
 12 13  1  0
 13  1  1  0
  1  2  2  0
  2  3  1  0
  3  4  2  0
  4  5  1  0
  5  6  1  0
  6  7  2  0
  7 14  1  0
 14 15  2  0
 14 16  1  0
 16 17  1  0
 17 18  2  0
 18 19  1  0
 18 20  1  0
 20 21  1  0
 21 22  2  0
 21 23  1  0
 23 24  1  0
 24 25  2  0
  6  8  1  0
  8  9  1  0
  9 10  2  0
 10  1  1  0
  9  4  1  0
 24 17  1  0
  5 11  1  0
M  CHG 1  19  -1
M  CHG 1  20  -1
M  CHG 1  23  -1
M  END
> <UniqueID>
3

> <SMILES>
COc1ccc2[nH]c(=NC(=O)Cc3c([O-])[n-]c(=O)[n-]c3=O)sc2c1

> <Energy>
78.49265799991451

> <Genealogy>
COc1ccc2[nH]c(=NC(=O)Cc3c([O-])[n-]c(=O)[n-]c3=O)sc2c1 (protonated)
COc1ccc2[nH]c(=NC(=O)Cc3c([O-])[n-]c(=O)[n-]c3=O)sc2c1 (3D coordinates assigned)
COc1ccc2[nH]c(=NC(=O)Cc3c([O-])[n-]c(=O)[n-]c3=O)sc2c1 (optimized conformer: 78.49265799991451 kcal/mol)

> <smiles>
COc1ccc2[nH]c(=NC(=O)Cc3c(O)[nH]c(=O)[nH]c3=O)sc2c1

> <score_type>
oracle

> <origin>
adg

> <m_score__min__energy>
-14.67

> <m_primary>
energy

> <minimizedAffinity>
-7.96237

> <minimizedRMSD>
1.20254

> <CNNscore>
0.2744492888

> <CNNaffinity>
5.9918074608

> <CNN_VS>
1.6444473267

> <CNNaffinity_variance>
0.0725480616

$$$$
34:0


 27 29  0  0  0  0  0  0  0  0999 V2000
   56.4352   30.4782   52.3442 C   0  0  0  0  0  0  0  0  0  0  0  0
   57.0866   31.6980   52.3660 C   0  0  0  0  0  0  0  0  0  0  0  0
   58.3601   31.4240   51.9210 C   0  0  0  0  0  0  0  0  0  0  0  0
   58.4178   30.0731   51.6544 C   0  0  0  0  0  0  0  0  0  0  0  0
   57.2492   29.5348   51.9205 O   0  0  0  0  0  0  0  0  0  0  0  0
   59.6600   32.5802   51.6952 S   0  0  0  0  0  0  0  0  0  0  0  0
   60.6915   32.3629   52.7644 O   0  0  0  0  0  0  0  0  0  0  0  0
   59.1354   33.9851   51.8010 O   0  0  0  0  0  0  0  0  0  0  0  0
   60.3874   32.3511   50.1369 N   0  0  0  0  0  0  0  0  0  0  0  0
   61.2028   31.8022   50.0829 H   0  0  0  0  0  0  0  0  0  0  0  0
   59.8694   32.9161   48.9174 C   0  0  0  0  0  0  0  0  0  0  0  0
   58.6992   32.4185   48.3098 C   0  0  0  0  0  0  0  0  0  0  0  0
   58.2197   32.9857   47.1246 C   0  0  0  0  0  0  0  0  0  0  0  0
   58.8947   34.0565   46.5364 C   0  0  0  0  0  0  0  0  0  0  0  0
   60.0499   34.5640   47.1324 C   0  0  0  0  0  0  0  0  0  0  0  0
   60.5372   34.0006   48.3176 C   0  0  0  0  0  0  0  0  0  0  0  0
   61.6658   34.5073   48.8738 F   0  0  0  0  0  0  0  0  0  0  0  0
   54.7231   30.2192   53.9466 O   0  0  0  0  0  0  0  0  0  0  0  0
   55.0402   30.2398   52.7269 C   0  0  0  0  0  0  0  0  0  0  0  0
   54.0471   30.0269   51.7166 N   0  0  0  0  0  0  0  0  0  0  0  0
   52.6189   30.2220   51.9354 C   0  0  0  0  0  0  0  0  0  0  0  0
   51.9238   30.4560   50.6337 C   0  0  0  0  0  0  0  0  0  0  0  0
   51.7776   29.5070   49.6863 N   0  0  0  0  0  0  0  0  0  0  0  0
   51.1558   30.0808   48.6706 N   0  0  0  0  0  0  0  0  0  0  0  0
   50.9526   31.3591   49.0322 C   0  0  0  0  0  0  0  0  0  0  0  0
   50.3802   32.2017   48.2922 O   0  0  0  0  0  0  0  0  0  0  0  0
   51.4224   31.6507   50.2593 N   0  0  0  0  0  0  0  0  0  0  0  0
 18 19  2  0
 19 20  1  0
 20 21  1  0
 21 22  1  0
 22 23  2  0
 23 24  1  0
 24 25  1  0
 25 26  2  0
 25 27  1  0
 19  1  1  0
  1  2  2  0
  2  3  1  0
  3  6  1  0
  6  7  2  0
  6  8  2  0
  6  9  1  0
  9 11  1  0
 11 12  2  0
 12 13  1  0
 13 14  2  0
 14 15  1  0
 15 16  2  0
 16 17  1  0
  3  4  2  0
  4  5  1  0
 27 22  1  0
  5  1  1  0
 16 11  1  0
  9 10  1  0
M  CHG 1  20  -1
M  CHG 1  24  -1
M  CHG 1  27  -1
M  END
> <UniqueID>
35

> <SMILES>
O=C([N-]Cc1n[n-]c(=O)[n-]1)c1cc(S(=O)(=O)Nc2ccccc2F)co1

> <Energy>
95.65916248622774

> <Genealogy>
O=C([N-]Cc1n[n-]c(=O)[n-]1)c1cc(S(=O)(=O)Nc2ccccc2F)co1 (protonated)
O=C([N-]Cc1n[n-]c(=O)[n-]1)c1cc(S(=O)(=O)Nc2ccccc2F)co1 (3D coordinates assigned)
O=C([N-]Cc1n[n-]c(=O)[n-]1)c1cc(S(=O)(=O)Nc2ccccc2F)co1 (optimized conformer: 95.65916248622774 kcal/mol)

> <smiles>
O=C(NCc1n[nH]c(=O)[nH]1)c1cc(S(=O)(=O)Nc2ccccc2F)co1

> <score_type>
oracle

> <origin>
adg

> <m_score__min__energy>
-14.24

> <m_primary>
energy

> <minimizedAffinity>
-5.95970

> <minimizedRMSD>
1.21882

> <CNNscore>
0.3736694753

> <CNNaffinity>
5.5100302696

> <CNN_VS>
2.0589301586

> <CNNaffinity_variance>
0.0112838969

$$$$
49:0


 24 26  0  0  0  0  0  0  0  0999 V2000
   57.6203   31.2318   44.4347 S   0  0  0  0  0  0  0  0  0  0  0  0
   56.1287   31.2567   44.6193 O   0  0  0  0  0  0  0  0  0  0  0  0
   57.9112   31.4334   42.9745 O   0  0  0  0  0  0  0  0  0  0  0  0
   58.2254   29.6485   44.9447 C   0  0  0  0  0  0  0  0  0  0  0  0
   59.6075   29.4225   45.0069 C   0  0  0  0  0  0  0  0  0  0  0  0
   60.1044   28.1847   45.4103 C   0  0  0  0  0  0  0  0  0  0  0  0
   59.2292   27.1543   45.7600 C   0  0  0  0  0  0  0  0  0  0  0  0
   59.7345   25.9552   46.1578 N   0  0  0  0  0  0  0  0  0  0  0  0
   58.9301   24.9212   46.5132 C   0  0  0  0  0  0  0  0  0  0  0  0
   57.5443   25.0678   46.4797 C   0  0  0  0  0  0  0  0  0  0  0  0
   56.9850   26.2839   46.0761 C   0  0  0  0  0  0  0  0  0  0  0  0
   55.7296   26.3970   46.0538 O   0  0  0  0  0  0  0  0  0  0  0  0
   57.8282   27.3586   45.7067 C   0  0  0  0  0  0  0  0  0  0  0  0
   57.3320   28.6182   45.2934 C   0  0  0  0  0  0  0  0  0  0  0  0
   55.9616   28.8598   45.2348 O   0  0  0  0  0  0  0  0  0  0  0  0
   58.3179   32.5552   45.3313 N   0  0  0  0  0  0  0  0  0  0  0  0
   58.6315   32.1972   46.7185 C   0  0  0  0  0  0  0  0  0  0  0  0
   59.9559   34.8934   46.4775 C   0  0  0  0  0  0  0  0  0  0  0  0
   60.7134   33.6806   46.9540 C   0  0  0  0  0  0  0  0  0  0  0  0
   62.0704   33.8203   47.2963 C   0  0  0  0  0  0  0  0  0  0  0  0
   62.8206   32.7137   47.6927 C   0  0  0  0  0  0  0  0  0  0  0  0
   62.2329   31.4513   47.7397 C   0  0  0  0  0  0  0  0  0  0  0  0
   60.8852   31.2949   47.4141 C   0  0  0  0  0  0  0  0  0  0  0  0
   60.0960   32.4061   47.0608 C   0  0  0  0  0  0  0  0  0  0  0  0
 18 19  1  0
 19 20  2  0
 20 21  1  0
 21 22  2  0
 22 23  1  0
 23 24  2  0
 24 17  1  0
 17 16  1  0
 16  1  1  0
  1  2  2  0
  1  3  2  0
  1  4  1  0
  4  5  2  0
  5  6  1  0
  6  7  2  0
  7  8  1  0
  8  9  1  0
  9 10  2  0
 10 11  1  0
 11 12  2  0
 11 13  1  0
 13 14  2  0
 14 15  1  0
 24 19  1  0
 14  4  1  0
 13  7  1  0
M  CHG 1   8  -1
M  CHG 1  15  -1
M  CHG 1  16  -1
M  END
> <UniqueID>
49

> <SMILES>
Cc1ccccc1C[N-]S(=O)(=O)c1ccc2[n-]ccc(=O)c2c1[O-]

> <Energy>
47.05276589099098

> <Genealogy>
Cc1ccccc1C[N-]S(=O)(=O)c1ccc2[n-]ccc(=O)c2c1[O-] (protonated)
Cc1ccccc1C[N-]S(=O)(=O)c1ccc2[n-]ccc(=O)c2c1[O-] (3D coordinates assigned)
Cc1ccccc1C[N-]S(=O)(=O)c1ccc2[n-]ccc(=O)c2c1[O-] (optimized conformer: 47.05276589099098 kcal/mol)

> <smiles>
Cc1ccccc1CNS(=O)(=O)c1ccc2[nH]ccc(=O)c2c1O

> <score_type>
oracle

> <origin>
adg

> <m_score__min__energy>
-14.960000000000001

> <m_primary>
energy

> <minimizedAffinity>
-7.60103

> <minimizedRMSD>
1.27470

> <CNNscore>
0.6687951088

> <CNNaffinity>
6.5298943520

> <CNN_VS>
4.3671612740

> <CNNaffinity_variance>
0.2331710905

$$$$
53:0


 29 31  0  0  0  0  0  0  0  0999 V2000
   59.1499   29.1728   46.1971 C   0  0  0  0  0  0  0  0  0  0  0  0
   58.1313   28.4963   46.8864 C   0  0  0  0  0  0  0  0  0  0  0  0
   58.1518   27.1024   46.9825 C   0  0  0  0  0  0  0  0  0  0  0  0
   59.2063   26.3664   46.4139 C   0  0  0  0  0  0  0  0  0  0  0  0
   60.2198   27.0450   45.7250 C   0  0  0  0  0  0  0  0  0  0  0  0
   60.2001   28.4379   45.6276 C   0  0  0  0  0  0  0  0  0  0  0  0
   58.2619   31.3347   45.2117 C   0  0  0  0  0  0  0  0  0  0  0  0
   58.2745   32.7401   45.1934 C   0  0  0  0  0  0  0  0  0  0  0  0
   59.1545   33.4539   46.0103 C   0  0  0  0  0  0  0  0  0  0  0  0
   60.0305   32.7764   46.8551 C   0  0  0  0  0  0  0  0  0  0  0  0
   60.0214   31.3806   46.8985 C   0  0  0  0  0  0  0  0  0  0  0  0
   59.1334   30.6466   46.0926 C   0  0  0  0  0  0  0  0  0  0  0  0
   57.7945   28.9103   43.7355 N   0  0  0  0  0  0  0  0  0  0  0  0
   57.1750   30.4839   44.0988 S   0  0  0  0  0  0  0  0  0  0  0  0
   57.0555   31.2515   42.8123 O   0  0  0  0  0  0  0  0  0  0  0  0
   55.8122   30.3589   44.7200 O   0  0  0  0  0  0  0  0  0  0  0  0
   57.1591   28.4343   43.0952 H   0  0  0  0  0  0  0  0  0  0  0  0
   59.2492   24.9338   46.4653 N   0  0  0  0  0  0  0  0  0  0  0  0
   58.4801   24.0303   45.6591 C   0  0  0  0  0  0  0  0  0  0  0  0
   58.4898   22.7911   45.8891 O   0  0  0  0  0  0  0  0  0  0  0  0
   57.6915   24.5641   44.5049 C   0  0  0  0  0  0  0  0  0  0  0  0
   56.2279   24.2860   44.7032 C   0  0  0  0  0  0  0  0  0  0  0  0
   55.5636   24.8841   45.7299 N   0  0  0  0  0  0  0  0  0  0  0  0
   54.2714   24.6403   45.9556 N   0  0  0  0  0  0  0  0  0  0  0  0
   53.5793   23.7767   45.1677 C   0  0  0  0  0  0  0  0  0  0  0  0
   51.9982   23.4881   45.4579 S   0  0  0  0  0  0  0  0  0  0  0  0
   54.2070   23.1563   44.1371 N   0  0  0  0  0  0  0  0  0  0  0  0
   55.5207   23.3896   43.8859 C   0  0  0  0  0  0  0  0  0  0  0  0
   56.0878   22.7976   42.9282 O   0  0  0  0  0  0  0  0  0  0  0  0
 13 14  1  0
 14 15  2  0
 14 16  2  0
 14  7  1  0
  7  8  2  0
  8  9  1  0
  9 10  2  0
 10 11  1  0
 11 12  2  0
 12  1  1  0
  1  2  2  0
  2  3  1  0
  3  4  2  0
  4 18  1  0
 18 19  1  0
 19 20  2  0
 19 21  1  0
 21 22  1  0
 22 23  2  0
 23 24  1  0
 24 25  1  0
 25 26  2  0
 25 27  1  0
 27 28  1  0
 28 29  2  0
  4  5  1  0
  5  6  2  0
 12  7  1  0
  6  1  1  0
 28 22  1  0
 13 17  1  0
M  CHG 1  13  -1
M  CHG 1  18  -1
M  CHG 1  24  -1
M  CHG 1  27  -1
M  END
> <UniqueID>
53

> <SMILES>
[NH-]S(=O)(=O)c1ccccc1-c1ccc([N-]C(=O)Cc2n[n-]c(=S)[n-]c2=O)cc1

> <Energy>
53.920310002678306

> <Genealogy>
[NH-]S(=O)(=O)c1ccccc1-c1ccc([N-]C(=O)Cc2n[n-]c(=S)[n-]c2=O)cc1 (protonated)
[NH-]S(=O)(=O)c1ccccc1-c1ccc([N-]C(=O)Cc2n[n-]c(=S)[n-]c2=O)cc1 (3D coordinates assigned)
[NH-]S(=O)(=O)c1ccccc1-c1ccc([N-]C(=O)Cc2n[n-]c(=S)[n-]c2=O)cc1 (optimized conformer: 53.920310002678306 kcal/mol)

> <smiles>
NS(=O)(=O)c1ccccc1-c1ccc(NC(=O)Cc2n[nH]c(=S)[nH]c2=O)cc1

> <score_type>
oracle

> <origin>
adg

> <m_score__min__energy>
-16.329999999999998

> <m_primary>
energy

> <minimizedAffinity>
-8.33767

> <minimizedRMSD>
0.54865

> <CNNscore>
0.1903896630

> <CNNaffinity>
6.3278751373

> <CNN_VS>
1.2047619820

> <CNNaffinity_variance>
0.0186359957

$$$$
85:0


 35 38  0  0  0  0  0  0  0  0999 V2000
   58.3719   30.6035   45.3702 S   0  0  0  0  0  0  0  0  0  0  0  0
   57.0315   31.1785   45.7337 O   0  0  0  0  0  0  0  0  0  0  0  0
   58.6975   31.0320   43.9654 O   0  0  0  0  0  0  0  0  0  0  0  0
   58.1677   26.0338   45.5605 C   0  0  0  0  0  0  0  0  0  0  0  0
   58.1824   26.7939   46.7396 C   0  0  0  0  0  0  0  0  0  0  0  0
   58.2421   28.1896   46.6790 C   0  0  0  0  0  0  0  0  0  0  0  0
   58.2850   28.8421   45.4408 C   0  0  0  0  0  0  0  0  0  0  0  0
   58.2600   28.0854   44.2611 C   0  0  0  0  0  0  0  0  0  0  0  0
   58.2012   26.6909   44.3198 C   0  0  0  0  0  0  0  0  0  0  0  0
   58.0721   24.5319   45.6241 C   0  0  0  0  0  0  0  0  0  0  0  0
   52.8155   22.8062   45.4245 O   0  0  0  0  0  0  0  0  0  0  0  0
   54.0085   23.2048   45.4683 C   0  0  0  0  0  0  0  0  0  0  0  0
   54.5870   23.4834   46.6643 N   0  0  0  0  0  0  0  0  0  0  0  0
   55.8717   23.9154   46.7391 C   0  0  0  0  0  0  0  0  0  0  0  0
   56.4232   24.1867   47.9863 O   0  0  0  0  0  0  0  0  0  0  0  0
   56.6268   24.0874   45.5651 C   0  0  0  0  0  0  0  0  0  0  0  0
   56.0042   23.7835   44.3392 C   0  0  0  0  0  0  0  0  0  0  0  0
   56.6270   23.9086   43.2518 O   0  0  0  0  0  0  0  0  0  0  0  0
   54.7154   23.3557   44.3209 N   0  0  0  0  0  0  0  0  0  0  0  0
   59.5830   31.2287   46.4636 N   0  0  0  0  0  0  0  0  0  0  0  0
   59.6908   32.6864   46.3308 C   0  0  0  0  0  0  0  0  0  0  0  0
   60.9640   33.1392   47.0387 C   0  0  0  0  0  0  0  0  0  0  0  0
   61.1131   32.4711   48.3414 N   0  0  0  0  0  0  0  0  0  0  0  0
   59.9937   31.7047   48.9105 C   0  0  0  0  0  0  0  0  0  0  0  0
   59.2751   30.8350   47.8533 C   0  0  0  0  0  0  0  0  0  0  0  0
   62.2500   32.7979   49.1672 C   0  0  0  0  0  0  0  0  0  0  0  0
   63.4526   32.0820   49.0395 C   0  0  0  0  0  0  0  0  0  0  0  0
   64.5563   32.3993   49.8360 C   0  0  0  0  0  0  0  0  0  0  0  0
   64.4855   33.4520   50.7655 C   0  0  0  0  0  0  0  0  0  0  0  0
   63.2760   34.1488   50.9135 C   0  0  0  0  0  0  0  0  0  0  0  0
   62.1716   33.8326   50.1166 C   0  0  0  0  0  0  0  0  0  0  0  0
   65.6596   33.7601   51.6585 C   0  0  0  0  0  0  0  0  0  0  0  0
   65.5462   35.0313   52.1941 F   0  0  0  0  0  0  0  0  0  0  0  0
   65.7016   32.8390   52.6897 F   0  0  0  0  0  0  0  0  0  0  0  0
   66.8453   33.6959   50.9484 F   0  0  0  0  0  0  0  0  0  0  0  0
 11 12  2  0
 12 13  1  0
 13 14  1  0
 14 15  1  0
 14 16  2  0
 16 10  1  0
 10  4  1  0
  4  5  2  0
  5  6  1  0
  6  7  2  0
  7  1  1  0
  1  2  2  0
  1  3  2  0
  1 20  1  0
 20 21  1  0
 21 22  1  0
 22 23  1  0
 23 26  1  0
 26 27  2  0
 27 28  1  0
 28 29  2  0
 29 32  1  0
 32 33  1  0
 32 34  1  0
 32 35  1  0
 29 30  1  0
 30 31  2  0
 23 24  1  0
 24 25  1  0
  7  8  1  0
  8  9  2  0
 16 17  1  0
 17 18  2  0
 17 19  1  0
 19 12  1  0
  9  4  1  0
 25 20  1  0
 31 26  1  0
M  CHG 1  13  -1
M  CHG 1  15  -1
M  CHG 1  19  -1
M  END
> <UniqueID>
83

> <SMILES>
O=c1[n-]c([O-])c(Cc2ccc(S(=O)(=O)N3CCN(c4ccc(C(F)(F)F)cc4)CC3)cc2)c(=O)[n-]1

> <Energy>
66.40144306459298

> <Genealogy>
O=c1[n-]c([O-])c(Cc2ccc(S(=O)(=O)N3CCN(c4ccc(C(F)(F)F)cc4)CC3)cc2)c(=O)[n-]1 (protonated)
O=c1[n-]c([O-])c(Cc2ccc(S(=O)(=O)N3CCN(c4ccc(C(F)(F)F)cc4)CC3)cc2)c(=O)[n-]1 (3D coordinates assigned)
O=c1[n-]c([O-])c(Cc2ccc(S(=O)(=O)N3CCN(c4ccc(C(F)(F)F)cc4)CC3)cc2)c(=O)[n-]1 (nonaromatic ring conformer: 66.40144306459298 kcal/mol)

> <smiles>
O=c1[nH]c(O)c(Cc2ccc(S(=O)(=O)N3CCN(c4ccc(C(F)(F)F)cc4)CC3)cc2)c(=O)[nH]1

> <score_type>
oracle

> <origin>
adg

> <m_score__min__energy>
-16.059999999999999

> <m_primary>
energy

> <minimizedAffinity>
-8.60681

> <minimizedRMSD>
1.09495

> <CNNscore>
0.1279642284

> <CNNaffinity>
6.6283226013

> <CNN_VS>
0.8481881618

> <CNNaffinity_variance>
0.1920256615

$$$$
37:0


 27 29  0  0  0  0  0  0  0  0999 V2000
   58.2436   29.2541   45.3534 C   0  0  0  0  0  0  0  0  0  0  0  0
   57.2508   30.2233   45.1389 C   0  0  0  0  0  0  0  0  0  0  0  0
   56.0401   29.8914   44.5404 O   0  0  0  0  0  0  0  0  0  0  0  0
   57.4538   31.5000   45.5375 N   0  0  0  0  0  0  0  0  0  0  0  0
   58.6009   31.8823   46.1503 C   0  0  0  0  0  0  0  0  0  0  0  0
   58.7220   33.0840   46.5162 O   0  0  0  0  0  0  0  0  0  0  0  0
   59.6044   30.9759   46.3714 N   0  0  0  0  0  0  0  0  0  0  0  0
   59.4425   29.6708   45.9683 C   0  0  0  0  0  0  0  0  0  0  0  0
   60.3766   28.8380   46.1423 O   0  0  0  0  0  0  0  0  0  0  0  0
   58.0212   27.8336   44.9715 C   0  0  0  0  0  0  0  0  0  0  0  0
   58.3095   27.4449   43.8063 O   0  0  0  0  0  0  0  0  0  0  0  0
   58.4009   23.4919   45.5393 C   0  0  0  0  0  0  0  0  0  0  0  0
   58.4807   24.8432   45.6553 N   0  0  0  0  0  0  0  0  0  0  0  0
   57.3723   25.6218   45.8228 C   0  0  0  0  0  0  0  0  0  0  0  0
   57.4650   26.9166   45.9301 N   0  0  0  0  0  0  0  0  0  0  0  0
   56.1077   25.0145   45.8801 C   0  0  0  0  0  0  0  0  0  0  0  0
   54.9588   25.7801   46.0520 O   0  0  0  0  0  0  0  0  0  0  0  0
   56.0079   23.6257   45.7617 C   0  0  0  0  0  0  0  0  0  0  0  0
   57.1591   22.8574   45.5894 C   0  0  0  0  0  0  0  0  0  0  0  0
   60.8232   31.3904   47.0984 C   0  0  0  0  0  0  0  0  0  0  0  0
   60.7103   31.0771   48.5985 C   0  0  0  0  0  0  0  0  0  0  0  0
   62.0143   31.3136   49.3163 C   0  0  0  0  0  0  0  0  0  0  0  0
   62.2616   30.6985   50.5550 C   0  0  0  0  0  0  0  0  0  0  0  0
   63.4410   30.9730   51.2543 C   0  0  0  0  0  0  0  0  0  0  0  0
   64.3767   31.8671   50.7276 C   0  0  0  0  0  0  0  0  0  0  0  0
   64.1354   32.4876   49.4984 C   0  0  0  0  0  0  0  0  0  0  0  0
   62.9598   32.2140   48.7938 C   0  0  0  0  0  0  0  0  0  0  0  0
 12 13  1  0
 13 14  1  0
 14 15  2  0
 15 10  1  0
 10 11  2  0
 10  1  1  0
  1  2  2  0
  2  3  1  0
  2  4  1  0
  4  5  1  0
  5  6  2  0
  5  7  1  0
  7 20  1  0
 20 21  1  0
 21 22  1  0
 22 23  2  0
 23 24  1  0
 24 25  2  0
 25 26  1  0
 26 27  2  0
  7  8  1  0
  8  9  2  0
 14 16  1  0
 16 17  1  0
 16 18  2  0
 18 19  1  0
 19 12  2  0
  8  1  1  0
 27 22  1  0
M  CHG 1   3  -1
M  CHG 1   4  -1
M  CHG 1  13  -1
M  CHG 1  17  -1
M  END
> <UniqueID>
33

> <SMILES>
O=C(/N=c1\[n-]cccc1[O-])c1c([O-])[n-]c(=O)n(CCc2ccccc2)c1=O

> <Energy>
50.311024027995344

> <Genealogy>
O=C(N=c1[n-]cccc1[O-])c1c([O-])[n-]c(=O)n(CCc2ccccc2)c1=O (protonated)
O=C(/N=c1\[n-]cccc1[O-])c1c([O-])[n-]c(=O)n(CCc2ccccc2)c1=O (cis-trans isomerization)
O=C(/N=c1\[n-]cccc1[O-])c1c([O-])[n-]c(=O)n(CCc2ccccc2)c1=O (3D coordinates assigned)
O=C(/N=c1\[n-]cccc1[O-])c1c([O-])[n-]c(=O)n(CCc2ccccc2)c1=O (optimized conformer: 50.311024027995344 kcal/mol)

> <smiles>
O=C(N=c1[nH]cccc1O)c1c(O)[nH]c(=O)n(CCc2ccccc2)c1=O

> <score_type>
oracle

> <origin>
adg

> <m_score__min__energy>
-17.989999999999998

> <m_primary>
energy

> <minimizedAffinity>
-8.39133

> <minimizedRMSD>
2.01201

> <CNNscore>
0.1751548499

> <CNNaffinity>
6.0119223595

> <CNN_VS>
1.0530173779

> <CNNaffinity_variance>
0.1708152294

$$$$
54:0


 26 28  0  0  0  0  0  0  0  0999 V2000
   57.9500   32.7661   45.7005 C   0  0  0  0  0  0  0  0  0  0  0  0
   58.5370   33.8016   44.9523 C   0  0  0  0  0  0  0  0  0  0  0  0
   59.4791   34.6483   45.5437 C   0  0  0  0  0  0  0  0  0  0  0  0
   59.8313   34.4767   46.8845 C   0  0  0  0  0  0  0  0  0  0  0  0
   59.2312   33.4680   47.6471 C   0  0  0  0  0  0  0  0  0  0  0  0
   58.2881   32.6176   47.0523 C   0  0  0  0  0  0  0  0  0  0  0  0
   59.7065   33.2363   49.3274 S   0  0  0  0  0  0  0  0  0  0  0  0
   58.7684   32.2706   49.9973 O   0  0  0  0  0  0  0  0  0  0  0  0
   59.6225   34.5584   50.0407 O   0  0  0  0  0  0  0  0  0  0  0  0
   61.3433   32.6323   49.4044 N   0  0  0  0  0  0  0  0  0  0  0  0
   62.2874   33.6801   48.9679 C   0  0  0  0  0  0  0  0  0  0  0  0
   63.6246   33.0576   48.5356 C   0  0  0  0  0  0  0  0  0  0  0  0
   63.5180   32.1317   47.4601 O   0  0  0  0  0  0  0  0  0  0  0  0
   62.2190   31.5836   47.3028 C   0  0  0  0  0  0  0  0  0  0  0  0
   61.4841   31.3728   48.6391 C   0  0  0  0  0  0  0  0  0  0  0  0
   56.9800   31.8795   45.1261 N   0  0  0  0  0  0  0  0  0  0  0  0
   56.9465   30.7647   43.0938 O   0  0  0  0  0  0  0  0  0  0  0  0
   57.2678   30.7346   44.3097 C   0  0  0  0  0  0  0  0  0  0  0  0
   57.8875   29.5110   44.8591 C   0  0  0  0  0  0  0  0  0  0  0  0
   59.2772   29.3880   44.9991 C   0  0  0  0  0  0  0  0  0  0  0  0
   59.7957   28.2082   45.5353 C   0  0  0  0  0  0  0  0  0  0  0  0
   61.0391   28.0639   45.6646 O   0  0  0  0  0  0  0  0  0  0  0  0
   58.9548   27.2142   45.9226 N   0  0  0  0  0  0  0  0  0  0  0  0
   57.6094   27.3515   45.7984 C   0  0  0  0  0  0  0  0  0  0  0  0
   56.8465   26.4223   46.1693 O   0  0  0  0  0  0  0  0  0  0  0  0
   57.0869   28.4907   45.2758 N   0  0  0  0  0  0  0  0  0  0  0  0
 17 18  2  0
 18 16  1  0
 16  1  1  0
  1  2  2  0
  2  3  1  0
  3  4  2  0
  4  5  1  0
  5  7  1  0
  7  8  2  0
  7  9  2  0
  7 10  1  0
 10 11  1  0
 11 12  1  0
 12 13  1  0
 13 14  1  0
 14 15  1  0
  5  6  2  0
 18 19  1  0
 19 20  2  0
 20 21  1  0
 21 22  2  0
 21 23  1  0
 23 24  1  0
 24 25  2  0
 24 26  1  0
  6  1  1  0
 26 19  1  0
 15 10  1  0
M  CHG 1  16  -1
M  CHG 1  23  -1
M  CHG 1  26  -1
M  END
> <UniqueID>
50

> <SMILES>
O=C([N-]c1cccc(S(=O)(=O)N2CCOCC2)c1)c1cc(=O)[n-]c(=O)[n-]1

> <Energy>
60.065088101371785

> <Genealogy>
O=C([N-]c1cccc(S(=O)(=O)N2CCOCC2)c1)c1cc(=O)[n-]c(=O)[n-]1 (protonated)
O=C([N-]c1cccc(S(=O)(=O)N2CCOCC2)c1)c1cc(=O)[n-]c(=O)[n-]1 (3D coordinates assigned)
O=C([N-]c1cccc(S(=O)(=O)N2CCOCC2)c1)c1cc(=O)[n-]c(=O)[n-]1 (nonaromatic ring conformer: 60.065088101371785 kcal/mol)

> <smiles>
O=C(Nc1cccc(S(=O)(=O)N2CCOCC2)c1)c1cc(=O)[nH]c(=O)[nH]1

> <score_type>
oracle

> <origin>
adg

> <m_score__min__energy>
-14.039999999999999

> <m_primary>
energy

> <minimizedAffinity>
-7.60967

> <minimizedRMSD>
1.15429

> <CNNscore>
0.7434575558

> <CNNaffinity>
6.5554146767

> <CNN_VS>
4.8736724854

> <CNNaffinity_variance>
0.0607847571

$$$$
78:0


 29 31  0  0  0  0  0  0  0  0999 V2000
   59.5838   30.6186   49.7168 C   0  0  0  0  0  0  0  0  0  0  0  0
   60.6627   29.7717   49.9882 C   0  0  0  0  0  0  0  0  0  0  0  0
   60.4275   29.0971   51.5105 S   0  0  0  0  0  0  0  0  0  0  0  0
   58.9685   29.9051   51.7609 C   0  0  0  0  0  0  0  0  0  0  0  0
   58.2015   29.8193   52.8082 N   0  0  0  0  0  0  0  0  0  0  0  0
   58.6475   30.6807   50.7052 N   0  0  0  0  0  0  0  0  0  0  0  0
   59.2512   30.7298   47.1977 N   0  0  0  0  0  0  0  0  0  0  0  0
   59.4167   31.3847   48.4664 C   0  0  0  0  0  0  0  0  0  0  0  0
   59.4282   32.6451   48.5202 O   0  0  0  0  0  0  0  0  0  0  0  0
   59.3308   29.7495   47.1534 H   0  0  0  0  0  0  0  0  0  0  0  0
   58.9687   31.4726   45.9716 C   0  0  0  0  0  0  0  0  0  0  0  0
   57.9503   32.2861   43.1431 C   0  0  0  0  0  0  0  0  0  0  0  0
   57.5382   31.1151   43.9129 N   0  0  0  0  0  0  0  0  0  0  0  0
   56.6510   30.1824   43.5312 C   0  0  0  0  0  0  0  0  0  0  0  0
   56.5535   29.2482   44.5386 C   0  0  0  0  0  0  0  0  0  0  0  0
   57.3751   29.5879   45.5531 N   0  0  0  0  0  0  0  0  0  0  0  0
   57.9572   30.7349   45.1408 C   0  0  0  0  0  0  0  0  0  0  0  0
   57.1014   30.6745   53.1642 C   0  0  0  0  0  0  0  0  0  0  0  0
   56.9790   31.8211   52.6583 O   0  0  0  0  0  0  0  0  0  0  0  0
   56.0835   30.2046   54.0560 N   0  0  0  0  0  0  0  0  0  0  0  0
   54.7438   29.8409   53.6926 C   0  0  0  0  0  0  0  0  0  0  0  0
   54.1239   28.7901   54.3784 C   0  0  0  0  0  0  0  0  0  0  0  0
   52.8282   28.3945   54.0424 C   0  0  0  0  0  0  0  0  0  0  0  0
   52.1448   29.0349   53.0054 C   0  0  0  0  0  0  0  0  0  0  0  0
   52.7597   30.0731   52.2852 C   0  0  0  0  0  0  0  0  0  0  0  0
   54.0673   30.4644   52.6303 C   0  0  0  0  0  0  0  0  0  0  0  0
   52.0416   30.7350   51.1740 C   0  0  0  0  0  0  0  0  0  0  0  0
   51.6664   31.9342   51.2760 O   0  0  0  0  0  0  0  0  0  0  0  0
   51.7672   30.0430   50.0002 O   0  0  0  0  0  0  0  0  0  0  0  0
 12 13  1  0
 13 14  1  0
 14 15  2  0
 15 16  1  0
 16 17  2  0
 17 11  1  0
 11  7  1  0
  7  8  1  0
  8  9  2  0
  8  1  1  0
  1  2  2  0
  2  3  1  0
  3  4  1  0
  4  5  2  0
  5 18  1  0
 18 19  2  0
 18 20  1  0
 20 21  1  0
 21 22  2  0
 22 23  1  0
 23 24  2  0
 24 25  1  0
 25 27  1  0
 27 28  2  0
 27 29  1  0
 25 26  2  0
  4  6  1  0
 17 13  1  0
  6  1  1  0
 26 21  1  0
  7 10  1  0
M  CHG 1   6  -1
M  CHG 1  20  -1
M  CHG 1  29  -1
M  END
> <UniqueID>
71

> <SMILES>
Cn1ccnc1CNC(=O)c1csc(=NC(=O)[N-]c2cccc(C(=O)[O-])c2)[n-]1

> <Energy>
106.79188536287192

> <Genealogy>
Cn1ccnc1CNC(=O)c1csc(=NC(=O)[N-]c2cccc(C(=O)[O-])c2)[n-]1 (protonated)
Cn1ccnc1CNC(=O)c1csc(=NC(=O)[N-]c2cccc(C(=O)[O-])c2)[n-]1 (3D coordinates assigned)
Cn1ccnc1CNC(=O)c1csc(=NC(=O)[N-]c2cccc(C(=O)[O-])c2)[n-]1 (optimized conformer: 106.79188536287192 kcal/mol)

> <smiles>
Cn1ccnc1CNC(=O)c1csc(=NC(=O)Nc2cccc(C(=O)O)c2)[nH]1

> <score_type>
oracle

> <origin>
adg

> <m_score__min__energy>
-14.02

> <m_primary>
energy

> <minimizedAffinity>
-6.26507

> <minimizedRMSD>
1.28564

> <CNNscore>
0.0710246861

> <CNNaffinity>
5.0384154320

> <CNN_VS>
0.3578518629

> <CNNaffinity_variance>
0.2914058566

$$$$
89:0


 25 27  0  0  0  0  0  0  0  0999 V2000
   58.3343   31.2202   45.4443 C   0  0  0  0  0  0  0  0  0  0  0  0
   57.7806   30.0376   45.8326 N   0  0  0  0  0  0  0  0  0  0  0  0
   56.9975   29.3009   44.9967 C   0  0  0  0  0  0  0  0  0  0  0  0
   56.4961   28.1612   45.3714 N   0  0  0  0  0  0  0  0  0  0  0  0
   56.7688   29.7432   43.7338 N   0  0  0  0  0  0  0  0  0  0  0  0
   57.2880   30.9183   43.2951 C   0  0  0  0  0  0  0  0  0  0  0  0
   57.0498   31.3106   42.1236 O   0  0  0  0  0  0  0  0  0  0  0  0
   58.0822   31.6901   44.1467 C   0  0  0  0  0  0  0  0  0  0  0  0
   59.4004   35.4369   47.7131 O   0  0  0  0  0  0  0  0  0  0  0  0
   59.6856   34.0827   47.5355 C   0  0  0  0  0  0  0  0  0  0  0  0
   58.9168   33.3462   46.6282 C   0  0  0  0  0  0  0  0  0  0  0  0
   59.1710   31.9804   46.4073 C   0  0  0  0  0  0  0  0  0  0  0  0
   60.2036   31.3605   47.1347 C   0  0  0  0  0  0  0  0  0  0  0  0
   60.9726   32.0915   48.0428 C   0  0  0  0  0  0  0  0  0  0  0  0
   60.7237   33.4604   48.2512 C   0  0  0  0  0  0  0  0  0  0  0  0
   58.7053   35.8368   47.2285 H   0  0  0  0  0  0  0  0  0  0  0  0
   61.4779   34.2253   49.1556 O   0  0  0  0  0  0  0  0  0  0  0  0
   62.7505   33.8440   49.6676 C   0  0  0  0  0  0  0  0  0  0  0  0
   57.2260   26.9559   45.6629 C   0  0  0  0  0  0  0  0  0  0  0  0
   58.6348   26.9234   45.6517 C   0  0  0  0  0  0  0  0  0  0  0  0
   59.3148   25.7436   45.9699 C   0  0  0  0  0  0  0  0  0  0  0  0
   58.6003   24.5963   46.3221 C   0  0  0  0  0  0  0  0  0  0  0  0
   57.2038   24.6290   46.3673 C   0  0  0  0  0  0  0  0  0  0  0  0
   56.5178   25.8066   46.0486 C   0  0  0  0  0  0  0  0  0  0  0  0
   55.1289   25.8287   46.1065 O   0  0  0  0  0  0  0  0  0  0  0  0
  9 10  1  0
 10 11  2  0
 11 12  1  0
 12  1  1  0
  1  2  1  0
  2  3  1  0
  3  4  2  0
  4 19  1  0
 19 20  2  0
 20 21  1  0
 21 22  2  0
 22 23  1  0
 23 24  2  0
 24 25  1  0
  3  5  1  0
  5  6  1  0
  6  7  2  0
  6  8  1  0
 12 13  2  0
 13 14  1  0
 14 15  2  0
 15 17  1  0
 17 18  1  0
 15 10  1  0
  8  1  2  0
 24 19  1  0
  9 16  1  0
M  CHG 1   2  -1
M  CHG 1   5  -1
M  CHG 1  25  -1
M  END
> <UniqueID>
82

> <SMILES>
COc1ccc(-c2cc(=O)[n-]/c(=N/c3ccccc3[O-])[n-]2)cc1O

> <Energy>
49.59199631014659

> <Genealogy>
COc1ccc(-c2cc(=O)[n-]c(=Nc3ccccc3[O-])[n-]2)cc1O (protonated)
COc1ccc(-c2cc(=O)[n-]/c(=N/c3ccccc3[O-])[n-]2)cc1O (cis-trans isomerization)
COc1ccc(-c2cc(=O)[n-]/c(=N/c3ccccc3[O-])[n-]2)cc1O (3D coordinates assigned)
COc1ccc(-c2cc(=O)[n-]/c(=N/c3ccccc3[O-])[n-]2)cc1O (optimized conformer: 49.59199631014659 kcal/mol)

> <smiles>
COc1ccc(-c2cc(=O)[nH]c(=Nc3ccccc3O)[nH]2)cc1O

> <score_type>
oracle

> <origin>
adg

> <m_score__min__energy>
-14.91

> <m_primary>
energy

> <minimizedAffinity>
-7.42177

> <minimizedRMSD>
0.81690

> <CNNscore>
0.4536662698

> <CNNaffinity>
6.4525580406

> <CNN_VS>
2.9273078442

> <CNNaffinity_variance>
0.3871393204

$$$$
92:0


 27 29  0  0  0  0  0  0  0  0999 V2000
   60.1202   27.7104   49.4115 O   0  0  0  0  0  0  0  0  0  0  0  0
   60.0356   29.0857   49.1827 C   0  0  0  0  0  0  0  0  0  0  0  0
   59.4175   29.8528   50.1108 N   0  0  0  0  0  0  0  0  0  0  0  0
   59.3079   31.1972   49.9757 C   0  0  0  0  0  0  0  0  0  0  0  0
   58.7248   31.8505   50.8815 O   0  0  0  0  0  0  0  0  0  0  0  0
   59.8261   31.8276   48.8737 N   0  0  0  0  0  0  0  0  0  0  0  0
   60.4483   31.0865   47.8986 C   0  0  0  0  0  0  0  0  0  0  0  0
   60.8849   31.6522   46.8580 O   0  0  0  0  0  0  0  0  0  0  0  0
   60.5851   29.6894   48.0393 C   0  0  0  0  0  0  0  0  0  0  0  0
   59.7426   27.3400   50.1849 H   0  0  0  0  0  0  0  0  0  0  0  0
   61.2309   28.8643   46.9905 C   0  0  0  0  0  0  0  0  0  0  0  0
   60.8020   27.6277   46.6961 C   0  0  0  0  0  0  0  0  0  0  0  0
   59.3764   27.2770   46.4801 C   0  0  0  0  0  0  0  0  0  0  0  0
   58.9074   26.0458   46.9679 C   0  0  0  0  0  0  0  0  0  0  0  0
   57.5708   25.6741   46.7963 C   0  0  0  0  0  0  0  0  0  0  0  0
   56.6821   26.5337   46.1443 C   0  0  0  0  0  0  0  0  0  0  0  0
   55.3547   26.1581   45.9756 O   0  0  0  0  0  0  0  0  0  0  0  0
   57.1309   27.7699   45.6684 C   0  0  0  0  0  0  0  0  0  0  0  0
   56.2481   28.6343   45.0308 O   0  0  0  0  0  0  0  0  0  0  0  0
   58.4685   28.1445   45.8376 C   0  0  0  0  0  0  0  0  0  0  0  0
   59.6720   33.2884   48.7070 C   0  0  0  0  0  0  0  0  0  0  0  0
   59.0885   33.6103   47.3565 C   0  0  0  0  0  0  0  0  0  0  0  0
   59.7841   34.4356   46.4573 C   0  0  0  0  0  0  0  0  0  0  0  0
   59.2528   34.7078   45.1931 C   0  0  0  0  0  0  0  0  0  0  0  0
   58.0263   34.1549   44.8148 C   0  0  0  0  0  0  0  0  0  0  0  0
   57.3289   33.3307   45.7013 C   0  0  0  0  0  0  0  0  0  0  0  0
   57.8562   33.0563   46.9659 C   0  0  0  0  0  0  0  0  0  0  0  0
  1  2  1  0
  2  3  1  0
  3  4  1  0
  4  5  2  0
  4  6  1  0
  6 21  1  0
 21 22  1  0
 22 23  2  0
 23 24  1  0
 24 25  2  0
 25 26  1  0
 26 27  2  0
  6  7  1  0
  7  8  2  0
  7  9  1  0
  9 11  1  0
 11 12  2  0
 12 13  1  0
 13 14  2  0
 14 15  1  0
 15 16  2  0
 16 17  1  0
 16 18  1  0
 18 19  1  0
 18 20  2  0
  9  2  2  0
 20 13  1  0
 27 22  1  0
  1 10  1  0
M  CHG 1   3  -1
M  CHG 1  17  -1
M  CHG 1  19  -1
M  END
> <UniqueID>
85

> <SMILES>
O=c1[n-]c(O)c(/C=C/c2ccc([O-])c([O-])c2)c(=O)n1Cc1ccccc1

> <Energy>
55.37153024122197

> <Genealogy>
O=c1[n-]c(O)c(C=Cc2ccc([O-])c([O-])c2)c(=O)n1Cc1ccccc1 (protonated)
O=c1[n-]c(O)c(/C=C/c2ccc([O-])c([O-])c2)c(=O)n1Cc1ccccc1 (cis-trans isomerization)
O=c1[n-]c(O)c(/C=C/c2ccc([O-])c([O-])c2)c(=O)n1Cc1ccccc1 (3D coordinates assigned)
O=c1[n-]c(O)c(/C=C/c2ccc([O-])c([O-])c2)c(=O)n1Cc1ccccc1 (optimized conformer: 55.37153024122197 kcal/mol)

> <smiles>
O=c1[nH]c(O)c(C=Cc2ccc(O)c(O)c2)c(=O)n1Cc1ccccc1

> <score_type>
oracle

> <origin>
adg

> <m_score__min__energy>
-16.41

> <m_primary>
energy

> <minimizedAffinity>
-5.74053

> <minimizedRMSD>
0.70552

> <CNNscore>
0.4676977396

> <CNNaffinity>
6.2294349670

> <CNN_VS>
2.9134926796

> <CNNaffinity_variance>
0.0647490546

$$$$
58:0


 23 25  0  0  0  0  0  0  0  0999 V2000
   60.5884   29.2330   47.7799 C   0  0  0  0  0  0  0  0  0  0  0  0
   60.4432   27.9554   45.7721 O   0  0  0  0  0  0  0  0  0  0  0  0
   60.0815   28.0753   46.9740 C   0  0  0  0  0  0  0  0  0  0  0  0
   59.2323   27.0917   47.5827 N   0  0  0  0  0  0  0  0  0  0  0  0
   59.1887   27.0654   48.5659 H   0  0  0  0  0  0  0  0  0  0  0  0
   58.4408   26.1416   46.8478 C   0  0  0  0  0  0  0  0  0  0  0  0
   59.0335   25.0735   46.1482 C   0  0  0  0  0  0  0  0  0  0  0  0
   58.2422   24.1823   45.4171 C   0  0  0  0  0  0  0  0  0  0  0  0
   56.8565   24.3530   45.3688 C   0  0  0  0  0  0  0  0  0  0  0  0
   56.2604   25.4222   46.0436 C   0  0  0  0  0  0  0  0  0  0  0  0
   54.8831   25.5972   45.9866 O   0  0  0  0  0  0  0  0  0  0  0  0
   57.0489   26.3165   46.7734 C   0  0  0  0  0  0  0  0  0  0  0  0
   59.2078   30.2428   48.4226 S   0  0  0  0  0  0  0  0  0  0  0  0
   58.6275   30.7487   46.8056 C   0  0  0  0  0  0  0  0  0  0  0  0
   58.8783   32.0218   46.3564 N   0  0  0  0  0  0  0  0  0  0  0  0
   58.4602   32.4308   45.1229 C   0  0  0  0  0  0  0  0  0  0  0  0
   58.6961   33.5991   44.7174 O   0  0  0  0  0  0  0  0  0  0  0  0
   57.7711   31.5189   44.3381 C   0  0  0  0  0  0  0  0  0  0  0  0
   57.2121   31.5522   43.0842 C   0  0  0  0  0  0  0  0  0  0  0  0
   56.6633   30.3350   42.8421 N   0  0  0  0  0  0  0  0  0  0  0  0
   56.8558   29.5441   43.8951 N   0  0  0  0  0  0  0  0  0  0  0  0
   57.5294   30.2684   44.8005 C   0  0  0  0  0  0  0  0  0  0  0  0
   57.9413   29.8589   46.0238 N   0  0  0  0  0  0  0  0  0  0  0  0
  2  3  2  0
  3  1  1  0
  1 13  1  0
 13 14  1  0
 14 15  2  0
 15 16  1  0
 16 17  2  0
 16 18  1  0
 18 19  2  0
 19 20  1  0
 20 21  1  0
 21 22  2  0
 22 23  1  0
  3  4  1  0
  4  6  1  0
  6  7  2  0
  7  8  1  0
  8  9  2  0
  9 10  1  0
 10 11  1  0
 10 12  2  0
 23 14  1  0
 12  6  1  0
 22 18  1  0
  4  5  1  0
M  CHG 1  11  -1
M  CHG 1  20  -1
M  CHG 1  23  -1
M  END
> <UniqueID>
51

> <SMILES>
O=C(CSc1nc(=O)c2c[n-]nc2[n-]1)Nc1cccc([O-])c1

> <Energy>
72.11080578640271

> <Genealogy>
O=C(CSc1nc(=O)c2c[n-]nc2[n-]1)Nc1cccc([O-])c1 (protonated)
O=C(CSc1nc(=O)c2c[n-]nc2[n-]1)Nc1cccc([O-])c1 (3D coordinates assigned)
O=C(CSc1nc(=O)c2c[n-]nc2[n-]1)Nc1cccc([O-])c1 (optimized conformer: 72.11080578640271 kcal/mol)

> <smiles>
O=C(CSc1nc(=O)c2c[nH]nc2[nH]1)Nc1cccc(O)c1

> <score_type>
oracle

> <origin>
adg

> <m_score__min__energy>
-14.19

> <m_primary>
energy

> <minimizedAffinity>
-6.30938

> <minimizedRMSD>
1.42792

> <CNNscore>
0.1656461954

> <CNNaffinity>
5.5354843140

> <CNN_VS>
0.9169319272

> <CNNaffinity_variance>
0.0252918694

$$$$
59:0


 25 27  0  0  0  0  0  0  0  0999 V2000
   54.2723   29.8668   53.5762 C   0  0  0  0  0  0  0  0  0  0  0  0
   54.5833   28.7966   54.4280 C   0  0  0  0  0  0  0  0  0  0  0  0
   55.8562   28.2226   54.4008 C   0  0  0  0  0  0  0  0  0  0  0  0
   56.8256   28.7053   53.5184 C   0  0  0  0  0  0  0  0  0  0  0  0
   56.5253   29.7683   52.6489 C   0  0  0  0  0  0  0  0  0  0  0  0
   55.2463   30.3397   52.6812 C   0  0  0  0  0  0  0  0  0  0  0  0
   52.8911   30.4624   53.5766 C   0  0  0  0  0  0  0  0  0  0  0  0
   51.8704   29.6078   49.0375 O   0  0  0  0  0  0  0  0  0  0  0  0
   51.9143   30.1844   50.1541 C   0  0  0  0  0  0  0  0  0  0  0  0
   51.2779   31.3526   50.3942 N   0  0  0  0  0  0  0  0  0  0  0  0
   51.5850   31.5940   51.6788 C   0  0  0  0  0  0  0  0  0  0  0  0
   51.1325   32.7017   52.3858 O   0  0  0  0  0  0  0  0  0  0  0  0
   52.3888   30.5959   52.1718 C   0  0  0  0  0  0  0  0  0  0  0  0
   52.5953   29.6836   51.2070 N   0  0  0  0  0  0  0  0  0  0  0  0
   57.4849   30.2894   51.7208 N   0  0  0  0  0  0  0  0  0  0  0  0
   58.7050   31.4613   52.0990 S   0  0  0  0  0  0  0  0  0  0  0  0
   58.1323   32.8458   51.9784 O   0  0  0  0  0  0  0  0  0  0  0  0
   59.2114   31.2345   53.4959 O   0  0  0  0  0  0  0  0  0  0  0  0
   60.0524   31.2758   50.9435 C   0  0  0  0  0  0  0  0  0  0  0  0
   59.8569   32.1792   49.7591 C   0  0  0  0  0  0  0  0  0  0  0  0
   60.5670   33.3874   49.6620 C   0  0  0  0  0  0  0  0  0  0  0  0
   60.3598   34.2403   48.5747 C   0  0  0  0  0  0  0  0  0  0  0  0
   59.4386   33.8980   47.5804 C   0  0  0  0  0  0  0  0  0  0  0  0
   58.7206   32.7038   47.6751 C   0  0  0  0  0  0  0  0  0  0  0  0
   58.9239   31.8469   48.7621 C   0  0  0  0  0  0  0  0  0  0  0  0
  8  9  2  0
  9 10  1  0
 10 11  1  0
 11 12  1  0
 11 13  2  0
 13  7  1  0
  7  1  1  0
  1  2  2  0
  2  3  1  0
  3  4  2  0
  4  5  1  0
  5 15  1  0
 15 16  1  0
 16 17  2  0
 16 18  2  0
 16 19  1  0
 19 20  1  0
 20 21  2  0
 21 22  1  0
 22 23  2  0
 23 24  1  0
 24 25  2  0
  5  6  2  0
 13 14  1  0
 14  9  1  0
  6  1  1  0
 25 20  1  0
M  CHG 1  10  -1
M  CHG 1  12  -1
M  CHG 1  14  -1
M  CHG 1  15  -1
M  END
> <UniqueID>
56

> <SMILES>
O=c1[n-]c([O-])c(Cc2cccc([N-]S(=O)(=O)Cc3ccccc3)c2)[n-]1

> <Energy>
66.65557130624298

> <Genealogy>
O=c1[n-]c([O-])c(Cc2cccc([N-]S(=O)(=O)Cc3ccccc3)c2)[n-]1 (protonated)
O=c1[n-]c([O-])c(Cc2cccc([N-]S(=O)(=O)Cc3ccccc3)c2)[n-]1 (3D coordinates assigned)
O=c1[n-]c([O-])c(Cc2cccc([N-]S(=O)(=O)Cc3ccccc3)c2)[n-]1 (optimized conformer: 66.65557130624298 kcal/mol)

> <smiles>
O=c1[nH]c(O)c(Cc2cccc(NS(=O)(=O)Cc3ccccc3)c2)[nH]1

> <score_type>
oracle

> <origin>
adg

> <m_score__min__energy>
-17.879999999999999

> <m_primary>
energy

> <minimizedAffinity>
-5.66089

> <minimizedRMSD>
0.97478

> <CNNscore>
0.3504659534

> <CNNaffinity>
5.1306114197

> <CNN_VS>
1.7981046438

> <CNNaffinity_variance>
0.3291860521

$$$$
63:0


 27 29  0  0  0  0  0  0  0  0999 V2000
   58.1517   29.3035   45.2948 N   0  0  0  0  0  0  0  0  0  0  0  0
   58.8109   30.5103   45.7010 C   0  0  0  0  0  0  0  0  0  0  0  0
   60.0504   30.5103   45.9318 O   0  0  0  0  0  0  0  0  0  0  0  0
   57.3916   29.3747   44.6731 H   0  0  0  0  0  0  0  0  0  0  0  0
   58.0393   25.6466   46.2225 C   0  0  0  0  0  0  0  0  0  0  0  0
   59.3910   25.4341   46.5128 C   0  0  0  0  0  0  0  0  0  0  0  0
   60.3164   26.4704   46.3893 C   0  0  0  0  0  0  0  0  0  0  0  0
   59.8973   27.7392   45.9875 C   0  0  0  0  0  0  0  0  0  0  0  0
   58.5409   27.9944   45.7468 C   0  0  0  0  0  0  0  0  0  0  0  0
   57.6052   26.9421   45.8672 C   0  0  0  0  0  0  0  0  0  0  0  0
   56.2586   27.1893   45.6377 O   0  0  0  0  0  0  0  0  0  0  0  0
   57.1485   24.5228   46.3191 N   0  0  0  0  0  0  0  0  0  0  0  0
   54.6725   23.7586   45.0297 C   0  0  0  0  0  0  0  0  0  0  0  0
   56.4513   23.6337   45.0008 S   0  0  0  0  0  0  0  0  0  0  0  0
   56.9368   24.2336   43.7120 O   0  0  0  0  0  0  0  0  0  0  0  0
   56.8796   22.1934   45.0563 O   0  0  0  0  0  0  0  0  0  0  0  0
   58.0193   31.7681   45.8796 C   0  0  0  0  0  0  0  0  0  0  0  0
   58.8480   32.7784   46.6136 C   0  0  0  0  0  0  0  0  0  0  0  0
   59.2295   34.0346   46.1443 C   0  0  0  0  0  0  0  0  0  0  0  0
   59.8138   34.7540   47.1324 N   0  0  0  0  0  0  0  0  0  0  0  0
   59.7878   33.9644   48.2171 C   0  0  0  0  0  0  0  0  0  0  0  0
   60.2010   34.3048   49.4625 N   0  0  0  0  0  0  0  0  0  0  0  0
   60.0453   33.4088   50.4830 C   0  0  0  0  0  0  0  0  0  0  0  0
   59.4507   32.1479   50.2459 C   0  0  0  0  0  0  0  0  0  0  0  0
   59.0175   31.8124   48.9518 C   0  0  0  0  0  0  0  0  0  0  0  0
   59.2084   32.7568   47.9468 C   0  0  0  0  0  0  0  0  0  0  0  0
   60.1806   35.6654   47.0681 H   0  0  0  0  0  0  0  0  0  0  0  0
 13 14  1  0
 14 15  2  0
 14 16  2  0
 14 12  1  0
 12  5  1  0
  5  6  2  0
  6  7  1  0
  7  8  2  0
  8  9  1  0
  9  1  1  0
  1  2  1  0
  2  3  2  0
  2 17  1  0
 17 18  1  0
 18 19  2  0
 19 20  1  0
 20 21  1  0
 21 22  2  0
 22 23  1  0
 23 24  2  0
 24 25  1  0
 25 26  2  0
  9 10  2  0
 10 11  1  0
 10  5  1  0
 26 18  1  0
 26 21  1  0
  1  4  1  0
 20 27  1  0
M  CHG 1  11  -1
M  CHG 1  12  -1
M  END
> <UniqueID>
59

> <SMILES>
CS(=O)(=O)[N-]c1cccc(NC(=O)Cc2c[nH]c3ncccc23)c1[O-]

> <Energy>
80.50377760404137

> <Genealogy>
CS(=O)(=O)[N-]c1cccc(NC(=O)Cc2c[nH]c3ncccc23)c1[O-] (protonated)
CS(=O)(=O)[N-]c1cccc(NC(=O)Cc2c[nH]c3ncccc23)c1[O-] (3D coordinates assigned)
CS(=O)(=O)[N-]c1cccc(NC(=O)Cc2c[nH]c3ncccc23)c1[O-] (optimized conformer: 80.50377760404137 kcal/mol)

> <smiles>
CS(=O)(=O)Nc1cccc(NC(=O)Cc2c[nH]c3ncccc23)c1O

> <score_type>
oracle

> <origin>
adg

> <m_score__min__energy>
-14.369999999999999

> <m_primary>
energy

> <minimizedAffinity>
-6.87209

> <minimizedRMSD>
1.65350

> <CNNscore>
0.3462955654

> <CNNaffinity>
6.3896450996

> <CNN_VS>
2.2127058506

> <CNNaffinity_variance>
0.1211074814

$$$$
67:0


 23 24  0  0  0  0  0  0  0  0999 V2000
   57.9133   27.6566   45.8015 C   0  0  0  0  0  0  0  0  0  0  0  0
   59.2650   27.4604   46.1051 C   0  0  0  0  0  0  0  0  0  0  0  0
   60.1870   28.4890   45.9054 C   0  0  0  0  0  0  0  0  0  0  0  0
   59.7622   29.7260   45.4156 C   0  0  0  0  0  0  0  0  0  0  0  0
   58.4084   29.9416   45.1175 C   0  0  0  0  0  0  0  0  0  0  0  0
   57.4797   28.9058   45.3210 C   0  0  0  0  0  0  0  0  0  0  0  0
   56.1295   29.1226   45.0700 O   0  0  0  0  0  0  0  0  0  0  0  0
   57.8753   31.5084   44.5019 S   0  0  0  0  0  0  0  0  0  0  0  0
   57.9225   31.4745   43.0004 O   0  0  0  0  0  0  0  0  0  0  0  0
   56.4595   31.7854   44.9261 O   0  0  0  0  0  0  0  0  0  0  0  0
   58.9244   32.7752   45.0734 N   0  0  0  0  0  0  0  0  0  0  0  0
   58.3139   33.5201   46.1762 C   0  0  0  0  0  0  0  0  0  0  0  0
   59.0606   33.2896   47.4622 C   0  0  0  0  0  0  0  0  0  0  0  0
   58.8260   32.1307   48.2157 C   0  0  0  0  0  0  0  0  0  0  0  0
   59.5262   31.9307   49.4073 C   0  0  0  0  0  0  0  0  0  0  0  0
   60.4234   32.8595   49.8350 N   0  0  0  0  0  0  0  0  0  0  0  0
   60.6711   33.9904   49.1238 C   0  0  0  0  0  0  0  0  0  0  0  0
   60.0018   34.2229   47.9213 C   0  0  0  0  0  0  0  0  0  0  0  0
   56.9838   26.6006   46.0513 N   0  0  0  0  0  0  0  0  0  0  0  0
   57.2664   24.6959   43.9445 C   0  0  0  0  0  0  0  0  0  0  0  0
   57.3503   24.9458   45.7017 S   0  0  0  0  0  0  0  0  0  0  0  0
   56.3438   24.0556   46.3737 O   0  0  0  0  0  0  0  0  0  0  0  0
   58.7340   24.6004   46.1769 O   0  0  0  0  0  0  0  0  0  0  0  0
 20 21  1  0
 21 22  2  0
 21 23  2  0
 21 19  1  0
 19  1  1  0
  1  2  2  0
  2  3  1  0
  3  4  2  0
  4  5  1  0
  5  8  1  0
  8  9  2  0
  8 10  2  0
  8 11  1  0
 11 12  1  0
 12 13  1  0
 13 14  2  0
 14 15  1  0
 15 16  2  0
 16 17  1  0
 17 18  2  0
  5  6  2  0
  6  7  1  0
  6  1  1  0
 18 13  1  0
M  CHG 1   7  -1
M  CHG 1  11  -1
M  CHG 1  19  -1
M  END
> <UniqueID>
63

> <SMILES>
CS(=O)(=O)[N-]c1cccc(S(=O)(=O)[N-]Cc2ccncc2)c1[O-]

> <Energy>
37.81409525144224

> <Genealogy>
CS(=O)(=O)[N-]c1cccc(S(=O)(=O)[N-]Cc2ccncc2)c1[O-] (protonated)
CS(=O)(=O)[N-]c1cccc(S(=O)(=O)[N-]Cc2ccncc2)c1[O-] (3D coordinates assigned)
CS(=O)(=O)[N-]c1cccc(S(=O)(=O)[N-]Cc2ccncc2)c1[O-] (optimized conformer: 37.81409525144224 kcal/mol)

> <smiles>
CS(=O)(=O)Nc1cccc(S(=O)(=O)NCc2ccncc2)c1O

> <score_type>
oracle

> <origin>
adg

> <m_score__min__energy>
-15.4

> <m_primary>
energy

> <minimizedAffinity>
-6.24099

> <minimizedRMSD>
1.72900

> <CNNscore>
0.8372295499

> <CNNaffinity>
6.8952350616

> <CNN_VS>
5.7728943825

> <CNNaffinity_variance>
1.2044324875

$$$$
12:0


 30 33  0  0  0  0  0  0  0  0999 V2000
   59.0705   26.3327   46.9311 S   0  0  0  0  0  0  0  0  0  0  0  0
   60.0132   26.3765   48.0998 O   0  0  0  0  0  0  0  0  0  0  0  0
   59.6826   25.4825   45.8525 O   0  0  0  0  0  0  0  0  0  0  0  0
   58.7978   27.9764   46.3601 C   0  0  0  0  0  0  0  0  0  0  0  0
   59.7060   28.9952   46.7143 C   0  0  0  0  0  0  0  0  0  0  0  0
   59.5007   30.3135   46.2822 C   0  0  0  0  0  0  0  0  0  0  0  0
   58.3619   30.5963   45.5181 C   0  0  0  0  0  0  0  0  0  0  0  0
   57.4977   29.6017   45.1469 C   0  0  0  0  0  0  0  0  0  0  0  0
   57.6852   28.2817   45.5561 C   0  0  0  0  0  0  0  0  0  0  0  0
   56.4294   30.1347   44.2587 C   0  0  0  0  0  0  0  0  0  0  0  0
   56.8086   31.6244   44.0994 C   0  0  0  0  0  0  0  0  0  0  0  0
   57.9798   31.8416   44.9490 N   0  0  0  0  0  0  0  0  0  0  0  0
   58.5128   33.1471   45.2257 C   0  0  0  0  0  0  0  0  0  0  0  0
   59.1971   33.7261   44.3371 O   0  0  0  0  0  0  0  0  0  0  0  0
   58.2796   33.8462   46.5456 C   0  0  0  0  0  0  0  0  0  0  0  0
   59.4102   34.7854   46.9731 C   0  0  0  0  0  0  0  0  0  0  0  0
   59.6558   33.9322   48.2099 C   0  0  0  0  0  0  0  0  0  0  0  0
   58.5575   32.9753   47.7726 C   0  0  0  0  0  0  0  0  0  0  0  0
   57.5697   25.6280   47.4360 N   0  0  0  0  0  0  0  0  0  0  0  0
   56.6358   22.2555   46.0277 C   0  0  0  0  0  0  0  0  0  0  0  0
   55.4404   22.5944   45.3679 C   0  0  0  0  0  0  0  0  0  0  0  0
   54.9613   23.9061   45.4027 C   0  0  0  0  0  0  0  0  0  0  0  0
   55.6717   24.8981   46.0831 C   0  0  0  0  0  0  0  0  0  0  0  0
   55.1864   26.2011   46.0971 O   0  0  0  0  0  0  0  0  0  0  0  0
   56.8657   24.5825   46.7473 C   0  0  0  0  0  0  0  0  0  0  0  0
   57.3404   23.2577   46.7191 C   0  0  0  0  0  0  0  0  0  0  0  0
   56.6570   19.9387   45.0196 N   0  0  0  0  0  0  0  0  0  0  0  0
   57.1438   20.8635   45.9915 C   0  0  0  0  0  0  0  0  0  0  0  0
   58.0144   20.4824   46.8196 O   0  0  0  0  0  0  0  0  0  0  0  0
   57.0000   19.0161   45.0028 H   0  0  0  0  0  0  0  0  0  0  0  0
 27 28  1  0
 28 29  2  0
 28 20  1  0
 20 21  2  0
 21 22  1  0
 22 23  2  0
 23 24  1  0
 23 25  1  0
 25 19  1  0
 19  1  1  0
  1  2  2  0
  1  3  2  0
  1  4  1  0
  4  5  2  0
  5  6  1  0
  6  7  2  0
  7  8  1  0
  8  9  2  0
  8 10  1  0
 10 11  1  0
 11 12  1  0
 12 13  1  0
 13 14  2  0
 13 15  1  0
 15 16  1  0
 16 17  1  0
 17 18  1  0
 25 26  2  0
 26 20  1  0
  9  4  1  0
 18 15  1  0
 12  7  1  0
 27 30  1  0
M  CHG 1  19  -1
M  CHG 1  24  -1
M  CHG 1  27  -1
M  END
> <UniqueID>
11

> <SMILES>
[NH-]C(=O)c1ccc([O-])c([N-]S(=O)(=O)c2ccc3c(c2)CCN3C(=O)C2CCC2)c1

> <Energy>
130.97903639100488

> <Genealogy>
[NH-]C(=O)c1ccc([O-])c([N-]S(=O)(=O)c2ccc3c(c2)CCN3C(=O)C2CCC2)c1 (protonated)
[NH-]C(=O)c1ccc([O-])c([N-]S(=O)(=O)c2ccc3c(c2)CCN3C(=O)C2CCC2)c1 (3D coordinates assigned)
[NH-]C(=O)c1ccc([O-])c([N-]S(=O)(=O)c2ccc3c(c2)CCN3C(=O)C2CCC2)c1 (nonaromatic ring conformer: 130.97903639100488 kcal/mol)

> <smiles>
NC(=O)c1ccc(O)c(NS(=O)(=O)c2ccc3c(c2)CCN3C(=O)C2CCC2)c1

> <score_type>
oracle

> <origin>
adg

> <m_score__min__energy>
-16.949999999999999

> <m_primary>
energy

> <minimizedAffinity>
-7.55337

> <minimizedRMSD>
1.24037

> <CNNscore>
0.2637329400

> <CNNaffinity>
6.3228187561

> <CNN_VS>
1.6675355434

> <CNNaffinity_variance>
0.0328788646

$$$$
20:0


 30 32  0  0  0  0  0  0  0  0999 V2000
   59.5337   31.1675   47.3178 C   0  0  0  0  0  0  0  0  0  0  0  0
   58.7330   30.3577   46.4951 C   0  0  0  0  0  0  0  0  0  0  0  0
   59.3065   29.3443   45.7084 C   0  0  0  0  0  0  0  0  0  0  0  0
   60.6867   29.1298   45.7701 C   0  0  0  0  0  0  0  0  0  0  0  0
   61.4944   29.9411   46.5672 C   0  0  0  0  0  0  0  0  0  0  0  0
   60.9318   30.9618   47.3447 C   0  0  0  0  0  0  0  0  0  0  0  0
   61.7866   31.7750   48.1667 N   0  0  0  0  0  0  0  0  0  0  0  0
   62.1940   31.4393   49.5199 C   0  0  0  0  0  0  0  0  0  0  0  0
   63.1529   32.5629   49.9608 C   0  0  0  0  0  0  0  0  0  0  0  0
   63.0367   33.6916   48.9244 C   0  0  0  0  0  0  0  0  0  0  0  0
   62.2266   33.0829   47.8508 C   0  0  0  0  0  0  0  0  0  0  0  0
   61.9151   33.6797   46.7861 O   0  0  0  0  0  0  0  0  0  0  0  0
   58.9095   32.2762   48.0717 C   0  0  0  0  0  0  0  0  0  0  0  0
   58.5553   33.3141   47.4534 O   0  0  0  0  0  0  0  0  0  0  0  0
   58.6863   30.9859   50.2705 C   0  0  0  0  0  0  0  0  0  0  0  0
   58.7143   32.2163   49.4896 N   0  0  0  0  0  0  0  0  0  0  0  0
   58.5150   28.4845   44.8758 N   0  0  0  0  0  0  0  0  0  0  0  0
   57.3173   27.7911   45.2502 C   0  0  0  0  0  0  0  0  0  0  0  0
   56.2109   28.3939   45.2331 O   0  0  0  0  0  0  0  0  0  0  0  0
   57.3770   26.3462   45.6007 C   0  0  0  0  0  0  0  0  0  0  0  0
   58.5988   25.6633   45.5083 C   0  0  0  0  0  0  0  0  0  0  0  0
   58.6842   24.3092   45.8255 C   0  0  0  0  0  0  0  0  0  0  0  0
   57.5504   23.5936   46.2503 C   0  0  0  0  0  0  0  0  0  0  0  0
   56.3086   24.2703   46.3521 C   0  0  0  0  0  0  0  0  0  0  0  0
   56.2350   25.6363   46.0293 C   0  0  0  0  0  0  0  0  0  0  0  0
   55.0062   26.2797   46.1476 O   0  0  0  0  0  0  0  0  0  0  0  0
   57.6399   22.2305   46.5747 O   0  0  0  0  0  0  0  0  0  0  0  0
   57.4009   21.1586   45.6689 C   0  0  0  0  0  0  0  0  0  0  0  0
   55.1131   23.6508   46.7644 O   0  0  0  0  0  0  0  0  0  0  0  0
   54.1711   22.9856   45.9311 C   0  0  0  0  0  0  0  0  0  0  0  0
 15 16  1  0
 16 13  1  0
 13 14  2  0
 13  1  1  0
  1  2  2  0
  2  3  1  0
  3 17  1  0
 17 18  1  0
 18 19  2  0
 18 20  1  0
 20 21  2  0
 21 22  1  0
 22 23  2  0
 23 27  1  0
 27 28  1  0
 23 24  1  0
 24 29  1  0
 29 30  1  0
 24 25  2  0
 25 26  1  0
  3  4  2  0
  4  5  1  0
  5  6  2  0
  6  7  1  0
  7  8  1  0
  8  9  1  0
  9 10  1  0
 10 11  1  0
 11 12  2  0
  6  1  1  0
 11  7  1  0
 25 20  1  0
M  CHG 1  16  -1
M  CHG 1  17  -1
M  CHG 1  26  -1
M  END
> <UniqueID>
19

> <SMILES>
C[N-]C(=O)c1cc([N-]C(=O)c2ccc(OC)c(OC)c2[O-])ccc1N1CCCC1=O

> <Energy>
75.75228703588297

> <Genealogy>
C[N-]C(=O)c1cc([N-]C(=O)c2ccc(OC)c(OC)c2[O-])ccc1N1CCCC1=O (protonated)
C[N-]C(=O)c1cc([N-]C(=O)c2ccc(OC)c(OC)c2[O-])ccc1N1CCCC1=O (3D coordinates assigned)
C[N-]C(=O)c1cc([N-]C(=O)c2ccc(OC)c(OC)c2[O-])ccc1N1CCCC1=O (nonaromatic ring conformer: 75.75228703588297 kcal/mol)

> <smiles>
CNC(=O)c1cc(NC(=O)c2ccc(OC)c(OC)c2O)ccc1N1CCCC1=O

> <score_type>
oracle

> <origin>
adg

> <m_score__min__energy>
-14.25

> <m_primary>
energy

> <minimizedAffinity>
-5.84374

> <minimizedRMSD>
1.00322

> <CNNscore>
0.2273962796

> <CNNaffinity>
6.4058780670

> <CNN_VS>
1.4566727877

> <CNNaffinity_variance>
0.2364096642

$$$$
38:0


 26 28  0  0  0  0  0  0  0  0999 V2000
   59.3393   29.8369   47.5927 C   0  0  0  0  0  0  0  0  0  0  0  0
   60.0100   28.9450   48.4398 C   0  0  0  0  0  0  0  0  0  0  0  0
   60.6695   29.4146   49.5783 C   0  0  0  0  0  0  0  0  0  0  0  0
   60.6737   30.7808   49.8694 C   0  0  0  0  0  0  0  0  0  0  0  0
   60.0319   31.6869   49.0153 C   0  0  0  0  0  0  0  0  0  0  0  0
   59.3535   31.2080   47.8838 C   0  0  0  0  0  0  0  0  0  0  0  0
   57.6309   30.3282   45.6252 O   0  0  0  0  0  0  0  0  0  0  0  0
   58.4953   29.2276   46.1722 S   0  0  0  0  0  0  0  0  0  0  0  0
   59.4670   28.8204   45.0992 O   0  0  0  0  0  0  0  0  0  0  0  0
   57.4801   27.8913   46.6121 N   0  0  0  0  0  0  0  0  0  0  0  0
   57.6973   26.5199   46.2500 C   0  0  0  0  0  0  0  0  0  0  0  0
   59.0172   26.0535   46.1939 C   0  0  0  0  0  0  0  0  0  0  0  0
   59.2884   24.7224   45.8612 C   0  0  0  0  0  0  0  0  0  0  0  0
   58.2386   23.8407   45.5984 C   0  0  0  0  0  0  0  0  0  0  0  0
   56.9179   24.2858   45.6752 C   0  0  0  0  0  0  0  0  0  0  0  0
   56.6389   25.6165   46.0116 C   0  0  0  0  0  0  0  0  0  0  0  0
   55.3132   26.0051   46.1434 O   0  0  0  0  0  0  0  0  0  0  0  0
   60.0924   33.4204   49.3477 S   0  0  0  0  0  0  0  0  0  0  0  0
   59.4071   33.6925   50.6592 O   0  0  0  0  0  0  0  0  0  0  0  0
   59.3481   34.1592   48.2721 O   0  0  0  0  0  0  0  0  0  0  0  0
   61.7392   34.0099   49.3999 N   0  0  0  0  0  0  0  0  0  0  0  0
   62.5144   33.5756   48.2100 C   0  0  0  0  0  0  0  0  0  0  0  0
   63.4760   32.4171   48.5137 C   0  0  0  0  0  0  0  0  0  0  0  0
   64.4731   32.7928   49.6219 C   0  0  0  0  0  0  0  0  0  0  0  0
   63.8919   33.7984   50.6318 C   0  0  0  0  0  0  0  0  0  0  0  0
   62.3661   33.6866   50.7002 C   0  0  0  0  0  0  0  0  0  0  0  0
  7  8  2  0
  8  9  2  0
  8 10  1  0
 10 11  1  0
 11 12  2  0
 12 13  1  0
 13 14  2  0
 14 15  1  0
 15 16  2  0
 16 17  1  0
  8  1  1  0
  1  2  2  0
  2  3  1  0
  3  4  2  0
  4  5  1  0
  5 18  1  0
 18 19  2  0
 18 20  2  0
 18 21  1  0
 21 22  1  0
 22 23  1  0
 23 24  1  0
 24 25  1  0
 25 26  1  0
  5  6  2  0
 16 11  1  0
  6  1  1  0
 26 21  1  0
M  CHG 1  10  -1
M  CHG 1  17  -1
M  END
> <UniqueID>
35

> <SMILES>
O=S(=O)([N-]c1ccccc1[O-])c1cccc(S(=O)(=O)N2CCCCC2)c1

> <Energy>
55.81040223389657

> <Genealogy>
O=S(=O)([N-]c1ccccc1[O-])c1cccc(S(=O)(=O)N2CCCCC2)c1 (protonated)
O=S(=O)([N-]c1ccccc1[O-])c1cccc(S(=O)(=O)N2CCCCC2)c1 (3D coordinates assigned)
O=S(=O)([N-]c1ccccc1[O-])c1cccc(S(=O)(=O)N2CCCCC2)c1 (nonaromatic ring conformer: 55.81040223389657 kcal/mol)

> <smiles>
O=S(=O)(Nc1ccccc1O)c1cccc(S(=O)(=O)N2CCCCC2)c1

> <score_type>
oracle

> <origin>
adg

> <m_score__min__energy>
-15.289999999999999

> <m_primary>
energy

> <minimizedAffinity>
-7.44395

> <minimizedRMSD>
1.82198

> <CNNscore>
0.3340501189

> <CNNaffinity>
6.3500599861

> <CNN_VS>
2.1212382317

> <CNNaffinity_variance>
0.3343188763

$$$$
47:0


 30 32  0  0  0  0  0  0  0  0999 V2000
   57.4664   27.7274   45.6770 N   0  0  0  0  0  0  0  0  0  0  0  0
   57.4524   28.9974   45.3961 C   0  0  0  0  0  0  0  0  0  0  0  0
   56.3336   29.6223   44.9691 N   0  0  0  0  0  0  0  0  0  0  0  0
   56.5125   30.9217   44.7358 N   0  0  0  0  0  0  0  0  0  0  0  0
   57.7752   31.3359   44.9720 C   0  0  0  0  0  0  0  0  0  0  0  0
   58.7522   30.0750   45.5074 S   0  0  0  0  0  0  0  0  0  0  0  0
   57.7474   26.6307   44.7873 C   0  0  0  0  0  0  0  0  0  0  0  0
   58.5137   26.7897   43.8009 O   0  0  0  0  0  0  0  0  0  0  0  0
   55.1559   26.2950   46.1028 O   0  0  0  0  0  0  0  0  0  0  0  0
   55.8646   25.1749   45.6774 C   0  0  0  0  0  0  0  0  0  0  0  0
   55.3306   23.9392   45.8834 N   0  0  0  0  0  0  0  0  0  0  0  0
   55.9639   22.8029   45.4943 C   0  0  0  0  0  0  0  0  0  0  0  0
   55.4285   21.6832   45.7071 O   0  0  0  0  0  0  0  0  0  0  0  0
   57.2043   22.8790   44.8632 C   0  0  0  0  0  0  0  0  0  0  0  0
   57.7805   24.1290   44.6351 C   0  0  0  0  0  0  0  0  0  0  0  0
   57.1209   25.3053   45.0388 C   0  0  0  0  0  0  0  0  0  0  0  0
   54.3254   26.1918   46.5241 H   0  0  0  0  0  0  0  0  0  0  0  0
   58.3190   33.0311   44.7741 S   0  0  0  0  0  0  0  0  0  0  0  0
   58.1127   33.4811   46.5322 C   0  0  0  0  0  0  0  0  0  0  0  0
   59.1837   34.4376   46.9765 C   0  0  0  0  0  0  0  0  0  0  0  0
   59.5505   35.3513   46.1912 O   0  0  0  0  0  0  0  0  0  0  0  0
   59.8762   34.2838   48.2236 N   0  0  0  0  0  0  0  0  0  0  0  0
   61.1322   33.6246   48.4280 C   0  0  0  0  0  0  0  0  0  0  0  0
   61.9399   33.3126   47.3201 C   0  0  0  0  0  0  0  0  0  0  0  0
   63.1474   32.6344   47.4860 C   0  0  0  0  0  0  0  0  0  0  0  0
   63.5552   32.2404   48.7591 C   0  0  0  0  0  0  0  0  0  0  0  0
   62.7524   32.5161   49.8651 C   0  0  0  0  0  0  0  0  0  0  0  0
   61.5370   33.2009   49.7239 C   0  0  0  0  0  0  0  0  0  0  0  0
   60.8039   33.4292   50.9027 O   0  0  0  0  0  0  0  0  0  0  0  0
   59.7738   32.6054   51.4375 C   0  0  0  0  0  0  0  0  0  0  0  0
  9 10  1  0
 10 11  1  0
 11 12  1  0
 12 13  2  0
 12 14  1  0
 14 15  2  0
 15 16  1  0
 16  7  1  0
  7  8  2  0
  7  1  1  0
  1  2  2  0
  2  3  1  0
  3  4  1  0
  4  5  2  0
  5 18  1  0
 18 19  1  0
 19 20  1  0
 20 21  2  0
 20 22  1  0
 22 23  1  0
 23 24  2  0
 24 25  1  0
 25 26  2  0
 26 27  1  0
 27 28  2  0
 28 29  1  0
 29 30  1  0
  5  6  1  0
 16 10  2  0
  6  2  1  0
 28 23  1  0
  9 17  1  0
M  CHG 1   3  -1
M  CHG 1  11  -1
M  CHG 1  22  -1
M  END
> <UniqueID>
42

> <SMILES>
COc1ccccc1[N-]C(=O)CSc1n[n-]/c(=N/C(=O)c2ccc(=O)[n-]c2O)s1

> <Energy>
88.76913412477147

> <Genealogy>
COc1ccccc1[N-]C(=O)CSc1n[n-]c(=NC(=O)c2ccc(=O)[n-]c2O)s1 (protonated)
COc1ccccc1[N-]C(=O)CSc1n[n-]/c(=N/C(=O)c2ccc(=O)[n-]c2O)s1 (cis-trans isomerization)
COc1ccccc1[N-]C(=O)CSc1n[n-]/c(=N/C(=O)c2ccc(=O)[n-]c2O)s1 (3D coordinates assigned)
COc1ccccc1[N-]C(=O)CSc1n[n-]/c(=N/C(=O)c2ccc(=O)[n-]c2O)s1 (optimized conformer: 88.76913412477147 kcal/mol)

> <smiles>
COc1ccccc1NC(=O)CSc1n[nH]c(=NC(=O)c2ccc(=O)[nH]c2O)s1

> <score_type>
oracle

> <origin>
adg

> <m_score__min__energy>
-14.26

> <m_primary>
energy

> <minimizedAffinity>
-8.35500

> <minimizedRMSD>
1.14702

> <CNNscore>
0.6820089221

> <CNNaffinity>
7.0111584663

> <CNN_VS>
4.7816724777

> <CNNaffinity_variance>
0.1564745307

$$$$
52:0


 31 33  0  0  0  0  0  0  0  0999 V2000
   57.5157   29.2382   45.2350 S   0  0  0  0  0  0  0  0  0  0  0  0
   58.0244   28.6280   43.9589 O   0  0  0  0  0  0  0  0  0  0  0  0
   56.2676   30.0220   44.9276 O   0  0  0  0  0  0  0  0  0  0  0  0
   58.7492   30.3025   45.9059 C   0  0  0  0  0  0  0  0  0  0  0  0
   59.9228   29.7703   46.4550 C   0  0  0  0  0  0  0  0  0  0  0  0
   60.8862   30.6171   47.0131 C   0  0  0  0  0  0  0  0  0  0  0  0
   60.6784   32.0054   47.0474 C   0  0  0  0  0  0  0  0  0  0  0  0
   59.5019   32.5354   46.4907 C   0  0  0  0  0  0  0  0  0  0  0  0
   58.5429   31.6888   45.9262 C   0  0  0  0  0  0  0  0  0  0  0  0
   61.7055   32.9038   47.6196 C   0  0  0  0  0  0  0  0  0  0  0  0
   62.2743   33.7478   46.8721 O   0  0  0  0  0  0  0  0  0  0  0  0
   62.0884   32.8163   49.0032 N   0  0  0  0  0  0  0  0  0  0  0  0
   61.0508   32.7654   50.0479 C   0  0  0  0  0  0  0  0  0  0  0  0
   61.5976   33.2268   51.4057 C   0  0  0  0  0  0  0  0  0  0  0  0
   62.8954   32.4929   51.8031 C   0  0  0  0  0  0  0  0  0  0  0  0
   63.7939   32.1078   50.6086 C   0  0  0  0  0  0  0  0  0  0  0  0
   63.5010   32.9619   49.3730 C   0  0  0  0  0  0  0  0  0  0  0  0
   57.1744   27.9752   46.3695 N   0  0  0  0  0  0  0  0  0  0  0  0
   57.1693   24.2507   45.9227 C   0  0  0  0  0  0  0  0  0  0  0  0
   58.5466   24.0094   45.8302 C   0  0  0  0  0  0  0  0  0  0  0  0
   59.4515   25.0720   45.8812 C   0  0  0  0  0  0  0  0  0  0  0  0
   58.9892   26.3813   46.0397 C   0  0  0  0  0  0  0  0  0  0  0  0
   57.6192   26.6347   46.1506 C   0  0  0  0  0  0  0  0  0  0  0  0
   56.7055   25.5709   46.0666 C   0  0  0  0  0  0  0  0  0  0  0  0
   55.3391   25.8199   46.1261 O   0  0  0  0  0  0  0  0  0  0  0  0
   56.2371   23.1662   45.8507 N   0  0  0  0  0  0  0  0  0  0  0  0
   55.4829   23.2186   45.2200 H   0  0  0  0  0  0  0  0  0  0  0  0
   54.8890   20.8399   46.9294 C   0  0  0  0  0  0  0  0  0  0  0  0
   56.4116   21.7621   46.8538 S   0  0  0  0  0  0  0  0  0  0  0  0
   57.5125   20.8918   46.3147 O   0  0  0  0  0  0  0  0  0  0  0  0
   56.7805   22.2020   48.2419 O   0  0  0  0  0  0  0  0  0  0  0  0
 28 29  1  0
 29 30  2  0
 29 31  2  0
 29 26  1  0
 26 19  1  0
 19 20  2  0
 20 21  1  0
 21 22  2  0
 22 23  1  0
 23 18  1  0
 18  1  1  0
  1  2  2  0
  1  3  2  0
  1  4  1  0
  4  5  2  0
  5  6  1  0
  6  7  2  0
  7 10  1  0
 10 11  2  0
 10 12  1  0
 12 13  1  0
 13 14  1  0
 14 15  1  0
 15 16  1  0
 16 17  1  0
  7  8  1  0
  8  9  2  0
 23 24  2  0
 24 25  1  0
 24 19  1  0
  9  4  1  0
 17 12  1  0
 26 27  1  0
M  CHG 1  18  -1
M  CHG 1  25  -1
M  END
> <UniqueID>
47

> <SMILES>
CS(=O)(=O)Nc1cccc([N-]S(=O)(=O)c2ccc(C(=O)N3CCCCC3)cc2)c1[O-]

> <Energy>
68.50482408306686

> <Genealogy>
CS(=O)(=O)Nc1cccc([N-]S(=O)(=O)c2ccc(C(=O)N3CCCCC3)cc2)c1[O-] (protonated)
CS(=O)(=O)Nc1cccc([N-]S(=O)(=O)c2ccc(C(=O)N3CCCCC3)cc2)c1[O-] (3D coordinates assigned)
CS(=O)(=O)Nc1cccc([N-]S(=O)(=O)c2ccc(C(=O)N3CCCCC3)cc2)c1[O-] (nonaromatic ring conformer: 68.50482408306686 kcal/mol)

> <smiles>
CS(=O)(=O)Nc1cccc(NS(=O)(=O)c2ccc(C(=O)N3CCCCC3)cc2)c1O

> <score_type>
oracle

> <origin>
adg

> <m_score__min__energy>
-15.800000000000001

> <m_primary>
energy

> <minimizedAffinity>
-7.76322

> <minimizedRMSD>
1.83711

> <CNNscore>
0.3282263279

> <CNNaffinity>
6.9963698387

> <CNN_VS>
2.2963926792

> <CNNaffinity_variance>
0.6233121753

$$$$
76:0


 28 30  0  0  0  0  0  0  0  0999 V2000
   60.1232   30.0688   46.4234 C   0  0  0  0  0  0  0  0  0  0  0  0
   61.1132   29.3194   46.2049 O   0  0  0  0  0  0  0  0  0  0  0  0
   59.1782   30.3946   45.3102 C   0  0  0  0  0  0  0  0  0  0  0  0
   57.7382   30.0828   45.7217 C   0  0  0  0  0  0  0  0  0  0  0  0
   57.0339   29.3540   44.6202 C   0  0  0  0  0  0  0  0  0  0  0  0
   56.7316   29.9636   43.5598 O   0  0  0  0  0  0  0  0  0  0  0  0
   59.3653   26.1232   46.1284 C   0  0  0  0  0  0  0  0  0  0  0  0
   58.6228   27.0456   45.4626 N   0  0  0  0  0  0  0  0  0  0  0  0
   57.2616   27.0484   45.4843 C   0  0  0  0  0  0  0  0  0  0  0  0
   56.6492   27.9856   44.8117 N   0  0  0  0  0  0  0  0  0  0  0  0
   56.5901   26.0176   46.1934 C   0  0  0  0  0  0  0  0  0  0  0  0
   55.2071   25.8757   46.1752 O   0  0  0  0  0  0  0  0  0  0  0  0
   57.3446   25.0724   46.8952 C   0  0  0  0  0  0  0  0  0  0  0  0
   58.7359   25.1248   46.8691 C   0  0  0  0  0  0  0  0  0  0  0  0
   59.9028   30.6389   47.7193 N   0  0  0  0  0  0  0  0  0  0  0  0
   60.7474   31.5802   48.4010 C   0  0  0  0  0  0  0  0  0  0  0  0
   61.6794   31.1670   49.3708 C   0  0  0  0  0  0  0  0  0  0  0  0
   62.4619   32.1112   50.0446 C   0  0  0  0  0  0  0  0  0  0  0  0
   63.6245   31.5870   51.2499 Cl  0  0  0  0  0  0  0  0  0  0  0  0
   62.3069   33.4719   49.7699 C   0  0  0  0  0  0  0  0  0  0  0  0
   61.3668   33.8923   48.8283 C   0  0  0  0  0  0  0  0  0  0  0  0
   60.5828   32.9548   48.1440 C   0  0  0  0  0  0  0  0  0  0  0  0
   59.6209   33.4123   47.1860 N   0  0  0  0  0  0  0  0  0  0  0  0
   60.0659   34.2673   46.0849 C   0  0  0  0  0  0  0  0  0  0  0  0
   59.0763   34.1620   44.9184 C   0  0  0  0  0  0  0  0  0  0  0  0
   57.7507   34.3845   45.3605 O   0  0  0  0  0  0  0  0  0  0  0  0
   57.3606   33.3547   46.2498 C   0  0  0  0  0  0  0  0  0  0  0  0
   58.1979   33.3985   47.5307 C   0  0  0  0  0  0  0  0  0  0  0  0
  7  8  1  0
  8  9  1  0
  9 10  2  0
 10  5  1  0
  5  6  2  0
  5  4  1  0
  4  3  1  0
  3  1  1  0
  1  2  2  0
  1 15  1  0
 15 16  1  0
 16 17  2  0
 17 18  1  0
 18 19  1  0
 18 20  2  0
 20 21  1  0
 21 22  2  0
 22 23  1  0
 23 24  1  0
 24 25  1  0
 25 26  1  0
 26 27  1  0
 27 28  1  0
  9 11  1  0
 11 12  1  0
 11 13  2  0
 13 14  1  0
 14  7  2  0
 22 16  1  0
 28 23  1  0
M  CHG 1   8  -1
M  CHG 1  12  -1
M  CHG 1  15  -1
M  END
> <UniqueID>
70

> <SMILES>
O=C(CCC(=O)[N-]c1cc(Cl)ccc1N1CCOCC1)/N=c1/[n-]cccc1[O-]

> <Energy>
65.15147804331302

> <Genealogy>
O=C(CCC(=O)[N-]c1cc(Cl)ccc1N1CCOCC1)N=c1[n-]cccc1[O-] (protonated)
O=C(CCC(=O)[N-]c1cc(Cl)ccc1N1CCOCC1)/N=c1/[n-]cccc1[O-] (cis-trans isomerization)
O=C(CCC(=O)[N-]c1cc(Cl)ccc1N1CCOCC1)/N=c1/[n-]cccc1[O-] (3D coordinates assigned)
O=C(CCC(=O)[N-]c1cc(Cl)ccc1N1CCOCC1)/N=c1/[n-]cccc1[O-] (nonaromatic ring conformer: 65.15147804331302 kcal/mol)

> <smiles>
O=C(CCC(=O)Nc1cc(Cl)ccc1N1CCOCC1)N=c1[nH]cccc1O

> <score_type>
oracle

> <origin>
adg

> <m_score__min__energy>
-14.75

> <m_primary>
energy

> <minimizedAffinity>
-5.93807

> <minimizedRMSD>
0.92503

> <CNNscore>
0.1269330233

> <CNNaffinity>
5.8367371559

> <CNN_VS>
0.7408747077

> <CNNaffinity_variance>
0.1237987503

$$$$
1:0


 25 27  0  0  0  0  0  0  0  0999 V2000
   58.5292   32.8519   45.6085 C   0  0  0  0  0  0  0  0  0  0  0  0
   59.0239   34.1037   45.6324 N   0  0  0  0  0  0  0  0  0  0  0  0
   59.4057   34.3277   46.8796 N   0  0  0  0  0  0  0  0  0  0  0  0
   59.1241   33.2029   47.5661 C   0  0  0  0  0  0  0  0  0  0  0  0
   58.5870   32.2908   46.7922 O   0  0  0  0  0  0  0  0  0  0  0  0
   58.0143   32.1762   44.3742 C   0  0  0  0  0  0  0  0  0  0  0  0
   58.2227   30.6592   44.4321 C   0  0  0  0  0  0  0  0  0  0  0  0
   56.9367   29.9294   44.6826 C   0  0  0  0  0  0  0  0  0  0  0  0
   55.8388   30.5108   44.4638 O   0  0  0  0  0  0  0  0  0  0  0  0
   60.3338   27.9458   46.2147 C   0  0  0  0  0  0  0  0  0  0  0  0
   59.2419   28.5648   45.6931 N   0  0  0  0  0  0  0  0  0  0  0  0
   58.0180   27.9625   45.6538 C   0  0  0  0  0  0  0  0  0  0  0  0
   56.9797   28.5788   45.1691 N   0  0  0  0  0  0  0  0  0  0  0  0
   57.8741   26.6641   46.1656 C   0  0  0  0  0  0  0  0  0  0  0  0
   56.6419   26.0206   46.1343 O   0  0  0  0  0  0  0  0  0  0  0  0
   58.9861   26.0103   46.7035 C   0  0  0  0  0  0  0  0  0  0  0  0
   60.2244   26.6539   46.7322 C   0  0  0  0  0  0  0  0  0  0  0  0
   59.4306   33.0073   49.0136 C   0  0  0  0  0  0  0  0  0  0  0  0
   60.9189   32.9550   49.2247 C   0  0  0  0  0  0  0  0  0  0  0  0
   61.5283   33.7986   50.1677 C   0  0  0  0  0  0  0  0  0  0  0  0
   62.9114   33.7533   50.3645 C   0  0  0  0  0  0  0  0  0  0  0  0
   63.7035   32.8729   49.6119 C   0  0  0  0  0  0  0  0  0  0  0  0
   65.1813   32.7821   49.8531 C   0  0  0  0  0  0  0  0  0  0  0  0
   63.0964   32.0373   48.6644 C   0  0  0  0  0  0  0  0  0  0  0  0
   61.7144   32.0863   48.4628 C   0  0  0  0  0  0  0  0  0  0  0  0
 10 11  1  0
 11 12  1  0
 12 13  2  0
 13  8  1  0
  8  9  2  0
  8  7  1  0
  7  6  1  0
  6  1  1  0
  1  2  2  0
  2  3  1  0
  3  4  2  0
  4 18  1  0
 18 19  1  0
 19 20  2  0
 20 21  1  0
 21 22  2  0
 22 23  1  0
 22 24  1  0
 24 25  2  0
  4  5  1  0
 12 14  1  0
 14 15  1  0
 14 16  2  0
 16 17  1  0
 17 10  2  0
  5  1  1  0
 25 19  1  0
M  CHG 1  11  -1
M  CHG 1  15  -1
M  END
> <UniqueID>
2

> <SMILES>
Cc1ccc(Cc2nnc(CCC(=O)/N=c3\[n-]cccc3[O-])o2)cc1

> <Energy>
71.12269374680399

> <Genealogy>
Cc1ccc(Cc2nnc(CCC(=O)N=c3[n-]cccc3[O-])o2)cc1 (protonated)
Cc1ccc(Cc2nnc(CCC(=O)/N=c3\[n-]cccc3[O-])o2)cc1 (cis-trans isomerization)
Cc1ccc(Cc2nnc(CCC(=O)/N=c3\[n-]cccc3[O-])o2)cc1 (3D coordinates assigned)
Cc1ccc(Cc2nnc(CCC(=O)/N=c3\[n-]cccc3[O-])o2)cc1 (optimized conformer: 71.12269374680399 kcal/mol)

> <smiles>
Cc1ccc(Cc2nnc(CCC(=O)N=c3[nH]cccc3O)o2)cc1

> <score_type>
oracle

> <origin>
adg

> <m_score__min__energy>
-14.140000000000001

> <m_primary>
energy

> <minimizedAffinity>
-7.61287

> <minimizedRMSD>
1.78171

> <CNNscore>
0.4391934872

> <CNNaffinity>
6.5073866844

> <CNN_VS>
2.8580019474

> <CNNaffinity_variance>
0.1552730650

$$$$
5:0


 25 27  0  0  0  0  0  0  0  0999 V2000
   57.2621   31.3964   52.9167 C   0  0  0  0  0  0  0  0  0  0  0  0
   56.1890   30.8615   52.1888 C   0  0  0  0  0  0  0  0  0  0  0  0
   55.2519   30.0336   52.8120 C   0  0  0  0  0  0  0  0  0  0  0  0
   55.3783   29.7198   54.1740 C   0  0  0  0  0  0  0  0  0  0  0  0
   56.4721   30.2233   54.8959 C   0  0  0  0  0  0  0  0  0  0  0  0
   57.4090   31.0517   54.2710 C   0  0  0  0  0  0  0  0  0  0  0  0
   59.6336   30.4705   51.5861 O   0  0  0  0  0  0  0  0  0  0  0  0
   59.3762   31.7050   51.5448 C   0  0  0  0  0  0  0  0  0  0  0  0
   58.2272   32.2230   52.2432 N   0  0  0  0  0  0  0  0  0  0  0  0
   58.0953   33.1985   52.2604 H   0  0  0  0  0  0  0  0  0  0  0  0
   60.2777   32.5976   50.7765 C   0  0  0  0  0  0  0  0  0  0  0  0
   61.5641   32.9212   51.2406 C   0  0  0  0  0  0  0  0  0  0  0  0
   62.3837   33.7622   50.4813 C   0  0  0  0  0  0  0  0  0  0  0  0
   63.6569   34.0878   50.9329 O   0  0  0  0  0  0  0  0  0  0  0  0
   61.9404   34.2581   49.2965 N   0  0  0  0  0  0  0  0  0  0  0  0
   60.7067   33.9557   48.8130 C   0  0  0  0  0  0  0  0  0  0  0  0
   60.3331   34.4346   47.7107 O   0  0  0  0  0  0  0  0  0  0  0  0
   59.8568   33.1181   49.5395 C   0  0  0  0  0  0  0  0  0  0  0  0
   54.3925   28.7971   54.8357 C   0  0  0  0  0  0  0  0  0  0  0  0
   52.9967   29.0987   54.3604 C   0  0  0  0  0  0  0  0  0  0  0  0
   52.2654   28.1347   53.6509 C   0  0  0  0  0  0  0  0  0  0  0  0
   50.9849   28.4456   53.1878 C   0  0  0  0  0  0  0  0  0  0  0  0
   50.4578   29.6795   53.4151 N   0  0  0  0  0  0  0  0  0  0  0  0
   51.1497   30.6356   54.0907 C   0  0  0  0  0  0  0  0  0  0  0  0
   52.4331   30.3651   54.5718 C   0  0  0  0  0  0  0  0  0  0  0  0
  7  8  2  0
  8  9  1  0
  9  1  1  0
  1  2  2  0
  2  3  1  0
  3  4  2  0
  4 19  1  0
 19 20  1  0
 20 21  2  0
 21 22  1  0
 22 23  2  0
 23 24  1  0
 24 25  2  0
  4  5  1  0
  5  6  2  0
  8 11  1  0
 11 12  1  0
 12 13  2  0
 13 14  1  0
 13 15  1  0
 15 16  1  0
 16 17  2  0
 16 18  1  0
  6  1  1  0
 18 11  2  0
 25 20  1  0
  9 10  1  0
M  CHG 1  14  -1
M  CHG 1  15  -1
M  END
> <UniqueID>
6

> <SMILES>
O=C(Nc1ccc(Cc2ccncc2)cc1)c1cc([O-])[n-]c(=O)c1

> <Energy>
47.217482774105484

> <Genealogy>
O=C(Nc1ccc(Cc2ccncc2)cc1)c1cc([O-])[n-]c(=O)c1 (protonated)
O=C(Nc1ccc(Cc2ccncc2)cc1)c1cc([O-])[n-]c(=O)c1 (3D coordinates assigned)
O=C(Nc1ccc(Cc2ccncc2)cc1)c1cc([O-])[n-]c(=O)c1 (optimized conformer: 47.217482774105484 kcal/mol)

> <smiles>
O=C(Nc1ccc(Cc2ccncc2)cc1)c1cc(O)[nH]c(=O)c1

> <score_type>
oracle

> <origin>
adg

> <m_score__min__energy>
-14.119999999999999

> <m_primary>
energy

> <minimizedAffinity>
-5.80698

> <minimizedRMSD>
8.23693

> <CNNscore>
0.2216707319

> <CNNaffinity>
4.7666959763

> <CNN_VS>
1.0566369295

> <CNNaffinity_variance>
0.1997177005

$$$$
20:0


 28 32  0  0  0  0  0  0  0  0999 V2000
   59.5901   26.7774   47.5308 C   0  0  0  0  0  0  0  0  0  0  0  0
   60.3361   27.7334   48.0026 N   0  0  0  0  0  0  0  0  0  0  0  0
   60.3822   28.7365   47.0255 N   0  0  0  0  0  0  0  0  0  0  0  0
   60.2963   30.0610   47.2312 C   0  0  0  0  0  0  0  0  0  0  0  0
   60.7957   30.6568   48.2699 N   0  0  0  0  0  0  0  0  0  0  0  0
   59.5129   30.6686   46.3066 N   0  0  0  0  0  0  0  0  0  0  0  0
   59.1024   29.6090   45.5619 C   0  0  0  0  0  0  0  0  0  0  0  0
   58.1707   29.6795   44.6578 N   0  0  0  0  0  0  0  0  0  0  0  0
   59.6621   28.4508   45.9701 N   0  0  0  0  0  0  0  0  0  0  0  0
   59.1077   27.1594   46.1970 C   0  0  0  0  0  0  0  0  0  0  0  0
   58.3442   26.4224   45.3813 C   0  0  0  0  0  0  0  0  0  0  0  0
   57.7021   25.1553   45.7650 C   0  0  0  0  0  0  0  0  0  0  0  0
   58.3382   23.9716   45.7483 N   0  0  0  0  0  0  0  0  0  0  0  0
   57.3732   23.0922   46.0913 C   0  0  0  0  0  0  0  0  0  0  0  0
   57.5899   21.8564   46.1993 O   0  0  0  0  0  0  0  0  0  0  0  0
   56.1560   23.6370   46.3013 N   0  0  0  0  0  0  0  0  0  0  0  0
   56.3767   24.9418   46.0795 C   0  0  0  0  0  0  0  0  0  0  0  0
   55.3808   25.9097   46.1308 O   0  0  0  0  0  0  0  0  0  0  0  0
   62.0864   31.3345   48.2437 C   0  0  0  0  0  0  0  0  0  0  0  0
   62.1202   32.6136   49.0614 C   0  0  0  0  0  0  0  0  0  0  0  0
   62.0331   32.6787   47.5426 C   0  0  0  0  0  0  0  0  0  0  0  0
   57.2217   30.7821   44.5290 C   0  0  0  0  0  0  0  0  0  0  0  0
   57.8142   31.9483   43.7249 C   0  0  0  0  0  0  0  0  0  0  0  0
   57.8579   33.1883   44.5290 N   0  0  0  0  0  0  0  0  0  0  0  0
   57.4408   32.9904   45.9260 C   0  0  0  0  0  0  0  0  0  0  0  0
   58.2612   33.9393   46.7929 C   0  0  0  0  0  0  0  0  0  0  0  0
   59.2789   34.5679   45.8583 C   0  0  0  0  0  0  0  0  0  0  0  0
   59.2174   33.7262   44.6015 C   0  0  0  0  0  0  0  0  0  0  0  0
  1  2  2  0
  2  3  1  0
  3  4  1  0
  4  5  2  0
  5 19  1  0
 19 20  1  0
 20 21  1  0
  4  6  1  0
  6  7  1  0
  7  8  2  0
  8 22  1  0
 22 23  1  0
 23 24  1  0
 24 25  1  0
 25 26  1  0
 26 27  1  0
 27 28  1  0
  7  9  1  0
  9 10  1  0
 10 11  2  0
 11 12  1  0
 12 13  1  0
 13 14  1  0
 14 15  2  0
 14 16  1  0
 16 17  1  0
 17 18  1  0
 10  1  1  0
 17 12  2  0
  9  3  1  0
 21 19  1  0
 28 24  1  0
M  CHG 1   6  -1
M  CHG 1  13  -1
M  CHG 1  16  -1
M  CHG 1  18  -1
M  END
> <UniqueID>
18

> <SMILES>
O=c1[n-]c([O-])c(C=C2C=Nn3/c(=N/C4CC4)[n-]c(=NCCN4CCCC4)n32)[n-]1

> <Energy>
441.9755363456952

> <Genealogy>
O=c1[n-]c([O-])c(C=C2C=Nn3c(=NC4CC4)[n-]c(=NCCN4CCCC4)n32)[n-]1 (protonated)
O=c1[n-]c([O-])c(C=C2C=Nn3/c(=N/C4CC4)[n-]c(=NCCN4CCCC4)n32)[n-]1 (cis-trans isomerization)
O=c1[n-]c([O-])c(C=C2C=Nn3/c(=N/C4CC4)[n-]c(=NCCN4CCCC4)n32)[n-]1 (3D coordinates assigned)
O=c1[n-]c([O-])c(C=C2C=Nn3/c(=N/C4CC4)[n-]c(=NCCN4CCCC4)n32)[n-]1 (nonaromatic ring conformer: 441.9755363456952 kcal/mol)

> <smiles>
O=c1[nH]c(O)c(C=C2C=Nn3c(=NC4CC4)[nH]c(=NCCN4CCCC4)n32)[nH]1

> <score_type>
oracle

> <origin>
adg

> <m_score__min__energy>
-16.699999999999999

> <m_primary>
energy

> <minimizedAffinity>
-8.03589

> <minimizedRMSD>
0.92658

> <CNNscore>
0.1616185904

> <CNNaffinity>
6.2750353813

> <CNN_VS>
1.0141624212

> <CNNaffinity_variance>
0.1070553660

$$$$
22:0


 32 34  0  0  0  0  0  0  0  0999 V2000
   56.5533   25.0861   46.7255 C   0  0  0  0  0  0  0  0  0  0  0  0
   57.5646   24.3263   47.8375 S   0  0  0  0  0  0  0  0  0  0  0  0
   56.4364   23.1293   48.1902 C   0  0  0  0  0  0  0  0  0  0  0  0
   56.6396   22.1865   49.0012 O   0  0  0  0  0  0  0  0  0  0  0  0
   55.2798   23.3002   47.5032 N   0  0  0  0  0  0  0  0  0  0  0  0
   55.3378   24.3986   46.6958 C   0  0  0  0  0  0  0  0  0  0  0  0
   54.2534   24.8115   45.9285 O   0  0  0  0  0  0  0  0  0  0  0  0
   58.0214   26.5264   45.3255 C   0  0  0  0  0  0  0  0  0  0  0  0
   56.8883   26.3308   46.0143 C   0  0  0  0  0  0  0  0  0  0  0  0
   59.7779   27.6354   46.4751 O   0  0  0  0  0  0  0  0  0  0  0  0
   58.9429   27.6658   45.5325 C   0  0  0  0  0  0  0  0  0  0  0  0
   58.8690   28.8409   44.7172 N   0  0  0  0  0  0  0  0  0  0  0  0
   57.7396   29.7617   44.6933 C   0  0  0  0  0  0  0  0  0  0  0  0
   58.1755   31.1297   45.1396 C   0  0  0  0  0  0  0  0  0  0  0  0
   58.6399   31.3399   46.4471 C   0  0  0  0  0  0  0  0  0  0  0  0
   59.0039   32.6206   46.8704 C   0  0  0  0  0  0  0  0  0  0  0  0
   58.9033   33.7006   45.9943 C   0  0  0  0  0  0  0  0  0  0  0  0
   58.4378   33.5020   44.6930 C   0  0  0  0  0  0  0  0  0  0  0  0
   58.0750   32.2220   44.2639 C   0  0  0  0  0  0  0  0  0  0  0  0
   57.6299   32.0486   42.9923 F   0  0  0  0  0  0  0  0  0  0  0  0
   54.1196   22.4061   47.5844 C   0  0  0  0  0  0  0  0  0  0  0  0
   54.4866   21.0472   47.0796 C   0  0  0  0  0  0  0  0  0  0  0  0
   54.3819   20.0548   47.8439 O   0  0  0  0  0  0  0  0  0  0  0  0
   55.0425   20.9135   45.7644 N   0  0  0  0  0  0  0  0  0  0  0  0
   56.2019   21.5637   45.2224 C   0  0  0  0  0  0  0  0  0  0  0  0
   57.5132   21.1758   45.5575 C   0  0  0  0  0  0  0  0  0  0  0  0
   58.6079   21.8427   45.0014 C   0  0  0  0  0  0  0  0  0  0  0  0
   58.4090   22.8837   44.0938 C   0  0  0  0  0  0  0  0  0  0  0  0
   57.1074   23.2532   43.7274 C   0  0  0  0  0  0  0  0  0  0  0  0
   56.8938   24.2742   42.8076 O   0  0  0  0  0  0  0  0  0  0  0  0
   56.0122   22.5897   44.2882 C   0  0  0  0  0  0  0  0  0  0  0  0
   57.6235   24.7229   42.4280 H   0  0  0  0  0  0  0  0  0  0  0  0
 10 11  2  0
 11  8  1  0
  8  9  2  0
  9  1  1  0
  1  2  1  0
  2  3  1  0
  3  4  2  0
  3  5  1  0
  5 21  1  0
 21 22  1  0
 22 23  2  0
 22 24  1  0
 24 25  1  0
 25 26  2  0
 26 27  1  0
 27 28  2  0
 28 29  1  0
 29 30  1  0
 29 31  2  0
  5  6  1  0
  6  7  1  0
 11 12  1  0
 12 13  1  0
 13 14  1  0
 14 15  2  0
 15 16  1  0
 16 17  2  0
 17 18  1  0
 18 19  2  0
 19 20  1  0
  6  1  2  0
 19 14  1  0
 31 25  1  0
 30 32  1  0
M  CHG 1   7  -1
M  CHG 1  12  -1
M  CHG 1  24  -1
M  END
> <UniqueID>
20

> <SMILES>
O=C(C=Cc1sc(=O)n(CC(=O)[N-]c2cccc(O)c2)c1[O-])[N-]Cc1ccccc1F

> <Energy>
85.71314055946975

> <Genealogy>
O=C(C=Cc1sc(=O)n(CC(=O)[N-]c2cccc(O)c2)c1[O-])[N-]Cc1ccccc1F (protonated)
O=C(C=Cc1sc(=O)n(CC(=O)[N-]c2cccc(O)c2)c1[O-])[N-]Cc1ccccc1F (3D coordinates assigned)
O=C(C=Cc1sc(=O)n(CC(=O)[N-]c2cccc(O)c2)c1[O-])[N-]Cc1ccccc1F (optimized conformer: 85.71314055946975 kcal/mol)

> <smiles>
O=C(C=Cc1sc(=O)n(CC(=O)Nc2cccc(O)c2)c1O)NCc1ccccc1F

> <score_type>
oracle

> <origin>
adg

> <m_score__min__energy>
-14.130000000000001

> <m_primary>
energy

> <minimizedAffinity>
-5.57894

> <minimizedRMSD>
1.91240

> <CNNscore>
0.2122344822

> <CNNaffinity>
6.1945495605

> <CNN_VS>
1.3146970272

> <CNNaffinity_variance>
0.0701169446

$$$$
44:0


 27 29  0  0  0  0  0  0  0  0999 V2000
   58.5817   32.4296   46.1228 C   0  0  0  0  0  0  0  0  0  0  0  0
   58.1461   33.7542   45.9369 C   0  0  0  0  0  0  0  0  0  0  0  0
   58.9962   34.8225   46.2350 C   0  0  0  0  0  0  0  0  0  0  0  0
   60.2816   34.5800   46.7268 C   0  0  0  0  0  0  0  0  0  0  0  0
   60.7182   33.2659   46.9322 C   0  0  0  0  0  0  0  0  0  0  0  0
   59.8592   32.1962   46.6465 C   0  0  0  0  0  0  0  0  0  0  0  0
   62.3397   32.9519   47.5453 S   0  0  0  0  0  0  0  0  0  0  0  0
   62.6281   31.4761   47.5432 O   0  0  0  0  0  0  0  0  0  0  0  0
   63.3345   33.6440   46.6590 O   0  0  0  0  0  0  0  0  0  0  0  0
   62.5014   33.5617   49.1622 N   0  0  0  0  0  0  0  0  0  0  0  0
   63.5665   33.4309   49.8937 C   0  0  0  0  0  0  0  0  0  0  0  0
   64.7169   32.7701   49.4205 N   0  0  0  0  0  0  0  0  0  0  0  0
   65.7639   32.8035   50.4198 C   0  0  0  0  0  0  0  0  0  0  0  0
   65.1473   33.4745   51.6619 C   0  0  0  0  0  0  0  0  0  0  0  0
   63.7401   33.9539   51.2721 C   0  0  0  0  0  0  0  0  0  0  0  0
   64.7975   32.3457   48.5358 H   0  0  0  0  0  0  0  0  0  0  0  0
   57.7418   31.3013   45.8392 N   0  0  0  0  0  0  0  0  0  0  0  0
   57.5507   30.6748   44.5638 C   0  0  0  0  0  0  0  0  0  0  0  0
   57.7296   31.3177   43.4947 O   0  0  0  0  0  0  0  0  0  0  0  0
   57.2394   29.2145   44.5053 C   0  0  0  0  0  0  0  0  0  0  0  0
   60.3338   26.9401   46.4726 C   0  0  0  0  0  0  0  0  0  0  0  0
   60.6585   28.0856   45.7429 C   0  0  0  0  0  0  0  0  0  0  0  0
   59.6516   28.8257   45.1155 C   0  0  0  0  0  0  0  0  0  0  0  0
   58.3075   28.4302   45.2210 C   0  0  0  0  0  0  0  0  0  0  0  0
   57.9886   27.2644   45.9465 C   0  0  0  0  0  0  0  0  0  0  0  0
   56.6715   26.8299   46.0471 O   0  0  0  0  0  0  0  0  0  0  0  0
   59.0022   26.5298   46.5716 C   0  0  0  0  0  0  0  0  0  0  0  0
 21 22  2  0
 22 23  1  0
 23 24  2  0
 24 20  1  0
 20 18  1  0
 18 19  2  0
 18 17  1  0
 17  1  1  0
  1  2  2  0
  2  3  1  0
  3  4  2  0
  4  5  1  0
  5  7  1  0
  7  8  2  0
  7  9  2  0
  7 10  1  0
 10 11  2  0
 11 12  1  0
 12 13  1  0
 13 14  1  0
 14 15  1  0
  5  6  2  0
 24 25  1  0
 25 26  1  0
 25 27  2  0
 27 21  1  0
  6  1  1  0
 15 11  1  0
 12 16  1  0
M  CHG 1  17  -1
M  CHG 1  26  -1
M  END
> <UniqueID>
39

> <SMILES>
O=C(Cc1ccccc1[O-])[N-]c1cccc(S(=O)(=O)/N=C2\CCCN2)c1

> <Energy>
54.26314850182952

> <Genealogy>
O=C(Cc1ccccc1[O-])[N-]c1cccc(S(=O)(=O)N=C2CCCN2)c1 (protonated)
O=C(Cc1ccccc1[O-])[N-]c1cccc(S(=O)(=O)/N=C2\CCCN2)c1 (cis-trans isomerization)
O=C(Cc1ccccc1[O-])[N-]c1cccc(S(=O)(=O)/N=C2\CCCN2)c1 (3D coordinates assigned)
O=C(Cc1ccccc1[O-])[N-]c1cccc(S(=O)(=O)/N=C2\CCCN2)c1 (nonaromatic ring conformer: 54.26314850182952 kcal/mol)

> <smiles>
O=C(Cc1ccccc1O)Nc1cccc(S(=O)(=O)N=C2CCCN2)c1

> <score_type>
oracle

> <origin>
adg

> <m_score__min__energy>
-14.41

> <m_primary>
energy

> <minimizedAffinity>
-8.33730

> <minimizedRMSD>
1.02550

> <CNNscore>
0.7085425854

> <CNNaffinity>
6.4985175133

> <CNN_VS>
4.6044764519

> <CNNaffinity_variance>
0.0569929183

$$$$
70:0


 36 39  0  0  0  0  0  0  0  0999 V2000
   59.4858   30.8220   50.2657 N   0  0  0  0  0  0  0  0  0  0  0  0
   59.0651   32.0506   50.8269 C   0  0  0  0  0  0  0  0  0  0  0  0
   58.1382   32.1503   51.6746 O   0  0  0  0  0  0  0  0  0  0  0  0
   59.7855   33.1650   50.3224 N   0  0  0  0  0  0  0  0  0  0  0  0
   60.7516   32.6875   49.3268 C   0  0  0  0  0  0  0  0  0  0  0  0
   60.4844   31.1963   49.3218 C   0  0  0  0  0  0  0  0  0  0  0  0
   61.0648   30.3660   48.5701 O   0  0  0  0  0  0  0  0  0  0  0  0
   59.6579   34.1024   50.5952 H   0  0  0  0  0  0  0  0  0  0  0  0
   62.1959   32.9171   49.7783 C   0  0  0  0  0  0  0  0  0  0  0  0
   63.1972   32.0005   49.3970 C   0  0  0  0  0  0  0  0  0  0  0  0
   64.5184   32.1682   49.8183 C   0  0  0  0  0  0  0  0  0  0  0  0
   64.8601   33.2485   50.6330 C   0  0  0  0  0  0  0  0  0  0  0  0
   63.8811   34.1593   51.0328 C   0  0  0  0  0  0  0  0  0  0  0  0
   62.5562   33.9951   50.6157 C   0  0  0  0  0  0  0  0  0  0  0  0
   60.4493   33.3785   47.9940 C   0  0  0  0  0  0  0  0  0  0  0  0
   59.1953   33.9696   47.7215 C   0  0  0  0  0  0  0  0  0  0  0  0
   58.9727   34.6424   46.5160 C   0  0  0  0  0  0  0  0  0  0  0  0
   59.9946   34.7500   45.5720 C   0  0  0  0  0  0  0  0  0  0  0  0
   61.2476   34.1967   45.8361 C   0  0  0  0  0  0  0  0  0  0  0  0
   61.4798   33.5290   47.0422 C   0  0  0  0  0  0  0  0  0  0  0  0
   58.8161   29.5275   50.3735 C   0  0  0  0  0  0  0  0  0  0  0  0
   59.5379   28.4862   49.5763 C   0  0  0  0  0  0  0  0  0  0  0  0
   60.7127   28.1517   49.8875 O   0  0  0  0  0  0  0  0  0  0  0  0
   58.8744   27.8549   48.4752 N   0  0  0  0  0  0  0  0  0  0  0  0
   58.2167   29.5511   45.2195 C   0  0  0  0  0  0  0  0  0  0  0  0
   59.2515   29.0444   44.4253 C   0  0  0  0  0  0  0  0  0  0  0  0
   60.1634   28.1294   44.9575 C   0  0  0  0  0  0  0  0  0  0  0  0
   60.0568   27.7194   46.2921 C   0  0  0  0  0  0  0  0  0  0  0  0
   61.1608   26.4771   46.8724 Cl  0  0  0  0  0  0  0  0  0  0  0  0
   59.0312   28.2471   47.1057 C   0  0  0  0  0  0  0  0  0  0  0  0
   58.1018   29.1367   46.5532 C   0  0  0  0  0  0  0  0  0  0  0  0
   55.4848   29.9585   44.5195 N   0  0  0  0  0  0  0  0  0  0  0  0
   57.0532   30.6810   44.5334 S   0  0  0  0  0  0  0  0  0  0  0  0
   57.4575   31.0332   43.1296 O   0  0  0  0  0  0  0  0  0  0  0  0
   57.0170   31.9390   45.3546 O   0  0  0  0  0  0  0  0  0  0  0  0
   54.8120   30.6140   44.1218 H   0  0  0  0  0  0  0  0  0  0  0  0
 32 33  1  0
 33 34  2  0
 33 35  2  0
 33 25  1  0
 25 26  2  0
 26 27  1  0
 27 28  2  0
 28 29  1  0
 28 30  1  0
 30 24  1  0
 24 22  1  0
 22 23  2  0
 22 21  1  0
 21  1  1  0
  1  2  1  0
  2  3  2  0
  2  4  1  0
  4  5  1  0
  5  9  1  0
  9 10  2  0
 10 11  1  0
 11 12  2  0
 12 13  1  0
 13 14  2  0
  5 15  1  0
 15 16  2  0
 16 17  1  0
 17 18  2  0
 18 19  1  0
 19 20  2  0
  5  6  1  0
  6  7  2  0
 30 31  2  0
 31 25  1  0
  6  1  1  0
 14  9  1  0
 20 15  1  0
 32 36  1  0
  4  8  1  0
M  CHG 1  24  -1
M  CHG 1  32  -1
M  END
> <UniqueID>
61

> <SMILES>
[NH-]S(=O)(=O)c1ccc(Cl)c([N-]C(=O)CN2C(=O)NC(c3ccccc3)(c3ccccc3)C2=O)c1

> <Energy>
85.52173335277656

> <Genealogy>
[NH-]S(=O)(=O)c1ccc(Cl)c([N-]C(=O)CN2C(=O)NC(c3ccccc3)(c3ccccc3)C2=O)c1 (protonated)
[NH-]S(=O)(=O)c1ccc(Cl)c([N-]C(=O)CN2C(=O)NC(c3ccccc3)(c3ccccc3)C2=O)c1 (3D coordinates assigned)
[NH-]S(=O)(=O)c1ccc(Cl)c([N-]C(=O)CN2C(=O)NC(c3ccccc3)(c3ccccc3)C2=O)c1 (nonaromatic ring conformer: 85.52173335277656 kcal/mol)

> <smiles>
NS(=O)(=O)c1ccc(Cl)c(NC(=O)CN2C(=O)NC(c3ccccc3)(c3ccccc3)C2=O)c1

> <score_type>
oracle

> <origin>
adg

> <m_score__min__energy>
-14.77

> <m_primary>
energy

> <minimizedAffinity>
-6.92997

> <minimizedRMSD>
1.49581

> <CNNscore>
0.8124541640

> <CNNaffinity>
7.1083827019

> <CNN_VS>
5.7752351761

> <CNNaffinity_variance>
0.2003172487

$$$$
74:0


 24 26  0  0  0  0  0  0  0  0999 V2000
   59.8910   29.3651   47.6586 C   0  0  0  0  0  0  0  0  0  0  0  0
   59.7627   28.0432   47.9491 N   0  0  0  0  0  0  0  0  0  0  0  0
   58.8707   27.2627   47.2864 C   0  0  0  0  0  0  0  0  0  0  0  0
   58.7674   26.0446   47.5855 O   0  0  0  0  0  0  0  0  0  0  0  0
   58.0713   27.8158   46.2831 C   0  0  0  0  0  0  0  0  0  0  0  0
   57.1206   27.0320   45.6364 O   0  0  0  0  0  0  0  0  0  0  0  0
   58.2313   29.1782   45.9716 C   0  0  0  0  0  0  0  0  0  0  0  0
   59.1256   29.9179   46.6798 N   0  0  0  0  0  0  0  0  0  0  0  0
   63.4326   32.7462   48.6901 C   0  0  0  0  0  0  0  0  0  0  0  0
   62.4069   31.7231   48.8526 N   0  0  0  0  0  0  0  0  0  0  0  0
   62.1214   31.0608   49.9911 C   0  0  0  0  0  0  0  0  0  0  0  0
   61.1541   30.1059   49.7458 C   0  0  0  0  0  0  0  0  0  0  0  0
   60.8567   30.1932   48.3967 C   0  0  0  0  0  0  0  0  0  0  0  0
   61.6524   31.1952   47.8710 C   0  0  0  0  0  0  0  0  0  0  0  0
   57.4379   29.8432   44.9177 C   0  0  0  0  0  0  0  0  0  0  0  0
   57.2077   29.2225   43.8466 O   0  0  0  0  0  0  0  0  0  0  0  0
   56.9345   31.1772   45.0631 N   0  0  0  0  0  0  0  0  0  0  0  0
   57.7078   32.3470   45.3705 C   0  0  0  0  0  0  0  0  0  0  0  0
   58.2630   33.0864   44.3191 C   0  0  0  0  0  0  0  0  0  0  0  0
   59.0122   34.2374   44.5808 C   0  0  0  0  0  0  0  0  0  0  0  0
   59.1999   34.6658   45.8989 C   0  0  0  0  0  0  0  0  0  0  0  0
   59.9450   35.8084   46.1593 O   0  0  0  0  0  0  0  0  0  0  0  0
   58.6310   33.9464   46.9543 C   0  0  0  0  0  0  0  0  0  0  0  0
   57.8799   32.7948   46.6929 C   0  0  0  0  0  0  0  0  0  0  0  0
  9 10  1  0
 10 11  1  0
 11 12  2  0
 12 13  1  0
 13  1  1  0
  1  2  2  0
  2  3  1  0
  3  4  2  0
  3  5  1  0
  5  6  1  0
  5  7  2  0
  7 15  1  0
 15 16  2  0
 15 17  1  0
 17 18  1  0
 18 19  2  0
 19 20  1  0
 20 21  2  0
 21 22  1  0
 21 23  1  0
 23 24  2  0
  7  8  1  0
 13 14  2  0
 14 10  1  0
  8  1  1  0
 24 18  1  0
M  CHG 1   6  -1
M  CHG 1   8  -1
M  CHG 1  17  -1
M  CHG 1  22  -1
M  END
> <UniqueID>
64

> <SMILES>
Cn1ccc(-c2nc(=O)c([O-])c(C(=O)[N-]c3ccc([O-])cc3)[n-]2)c1

> <Energy>
70.4494747104486

> <Genealogy>
Cn1ccc(-c2nc(=O)c([O-])c(C(=O)[N-]c3ccc([O-])cc3)[n-]2)c1 (protonated)
Cn1ccc(-c2nc(=O)c([O-])c(C(=O)[N-]c3ccc([O-])cc3)[n-]2)c1 (3D coordinates assigned)
Cn1ccc(-c2nc(=O)c([O-])c(C(=O)[N-]c3ccc([O-])cc3)[n-]2)c1 (optimized conformer: 70.4494747104486 kcal/mol)

> <smiles>
Cn1ccc(-c2nc(=O)c(O)c(C(=O)Nc3ccc(O)cc3)[nH]2)c1

> <score_type>
oracle

> <origin>
adg

> <m_score__min__energy>
-14.539999999999999

> <m_primary>
energy

> <minimizedAffinity>
-6.97014

> <minimizedRMSD>
1.08491

> <CNNscore>
0.7144842148

> <CNNaffinity>
6.4426269531

> <CNN_VS>
4.6031551361

> <CNNaffinity_variance>
0.1543025225

$$$$
9:0


 25 26  0  0  0  0  0  0  0  0999 V2000
   58.3514   31.7398   45.9752 C   0  0  0  0  0  0  0  0  0  0  0  0
   57.6018   31.1732   44.9878 N   0  0  0  0  0  0  0  0  0  0  0  0
   57.6412   29.8378   44.7446 C   0  0  0  0  0  0  0  0  0  0  0  0
   56.8439   29.3085   43.7340 O   0  0  0  0  0  0  0  0  0  0  0  0
   58.4807   29.0130   45.5080 C   0  0  0  0  0  0  0  0  0  0  0  0
   59.2495   29.6150   46.5220 C   0  0  0  0  0  0  0  0  0  0  0  0
   59.1621   30.9558   46.7364 N   0  0  0  0  0  0  0  0  0  0  0  0
   59.0693   33.7533   47.3008 C   0  0  0  0  0  0  0  0  0  0  0  0
   58.2909   33.1655   46.2066 N   0  0  0  0  0  0  0  0  0  0  0  0
   57.4939   34.0135   45.3200 C   0  0  0  0  0  0  0  0  0  0  0  0
   58.5498   27.5252   45.2681 C   0  0  0  0  0  0  0  0  0  0  0  0
   57.5657   26.8046   46.1499 C   0  0  0  0  0  0  0  0  0  0  0  0
   56.1678   26.8490   45.8538 N   0  0  0  0  0  0  0  0  0  0  0  0
   57.9757   26.1573   47.1591 O   0  0  0  0  0  0  0  0  0  0  0  0
   55.8462   27.3510   45.0704 H   0  0  0  0  0  0  0  0  0  0  0  0
   60.0881   28.8345   47.3196 O   0  0  0  0  0  0  0  0  0  0  0  0
   59.8656   28.6602   48.7182 C   0  0  0  0  0  0  0  0  0  0  0  0
   60.9677   29.3244   49.5655 C   0  0  0  0  0  0  0  0  0  0  0  0
   60.6428   30.7814   49.9474 C   0  0  0  0  0  0  0  0  0  0  0  0
   61.5792   31.7784   49.3039 C   0  0  0  0  0  0  0  0  0  0  0  0
   62.2640   31.4467   48.1176 C   0  0  0  0  0  0  0  0  0  0  0  0
   63.1523   32.3636   47.5347 C   0  0  0  0  0  0  0  0  0  0  0  0
   63.3490   33.6192   48.1225 C   0  0  0  0  0  0  0  0  0  0  0  0
   62.6627   33.9589   49.2972 C   0  0  0  0  0  0  0  0  0  0  0  0
   61.7780   33.0463   49.8833 C   0  0  0  0  0  0  0  0  0  0  0  0
  8  9  1  0
  9 10  1  0
  9  1  1  0
  1  2  2  0
  2  3  1  0
  3  4  1  0
  3  5  2  0
  5 11  1  0
 11 12  1  0
 12 13  1  0
 12 14  2  0
  5  6  1  0
  6 16  1  0
 16 17  1  0
 17 18  1  0
 18 19  1  0
 19 20  1  0
 20 21  2  0
 21 22  1  0
 22 23  2  0
 23 24  1  0
 24 25  2  0
  6  7  2  0
  7  1  1  0
 25 20  1  0
 13 15  1  0
M  CHG 1   4  -1
M  CHG 1  13  -1
M  END
> <UniqueID>
9

> <SMILES>
CN(C)c1nc([O-])c(CC([NH-])=O)c(OCCCc2ccccc2)n1

> <Energy>
41.155729016547625

> <Genealogy>
CN(C)c1nc([O-])c(CC([NH-])=O)c(OCCCc2ccccc2)n1 (protonated)
CN(C)c1nc([O-])c(CC([NH-])=O)c(OCCCc2ccccc2)n1 (3D coordinates assigned)
CN(C)c1nc([O-])c(CC([NH-])=O)c(OCCCc2ccccc2)n1 (optimized conformer: 41.155729016547625 kcal/mol)

> <smiles>
CN(C)c1nc(O)c(CC(N)=O)c(OCCCc2ccccc2)n1

> <score_type>
oracle

> <origin>
adg

> <m_score__min__energy>
-14.02

> <m_primary>
energy

> <minimizedAffinity>
-7.03615

> <minimizedRMSD>
1.82728

> <CNNscore>
0.8131315708

> <CNNaffinity>
6.8190760612

> <CNN_VS>
5.5448060036

> <CNNaffinity_variance>
0.2022361010

$$$$
43:0


 31 35  0  0  0  0  0  0  0  0999 V2000
   53.9117   30.9236   52.8722 C   0  0  0  0  0  0  0  0  0  0  0  0
   55.0324   30.1947   52.9933 C   0  0  0  0  0  0  0  0  0  0  0  0
   55.0903   28.8314   53.2140 C   0  0  0  0  0  0  0  0  0  0  0  0
   56.3797   28.4316   53.1999 N   0  0  0  0  0  0  0  0  0  0  0  0
   57.1628   29.4863   53.0018 N   0  0  0  0  0  0  0  0  0  0  0  0
   58.5239   29.6033   52.8052 C   0  0  0  0  0  0  0  0  0  0  0  0
   59.4460   28.7266   53.1268 N   0  0  0  0  0  0  0  0  0  0  0  0
   58.9826   30.7958   52.3347 N   0  0  0  0  0  0  0  0  0  0  0  0
   58.1521   31.8517   52.0962 C   0  0  0  0  0  0  0  0  0  0  0  0
   58.6128   32.9898   51.6649 N   0  0  0  0  0  0  0  0  0  0  0  0
   56.8283   31.7350   52.3600 N   0  0  0  0  0  0  0  0  0  0  0  0
   56.3586   30.5568   52.8304 C   0  0  0  0  0  0  0  0  0  0  0  0
   56.6905   27.5049   53.3178 H   0  0  0  0  0  0  0  0  0  0  0  0
   59.7448   33.1917   50.8021 C   0  0  0  0  0  0  0  0  0  0  0  0
   61.0183   33.2932   51.3758 C   0  0  0  0  0  0  0  0  0  0  0  0
   62.1410   33.5205   50.5734 C   0  0  0  0  0  0  0  0  0  0  0  0
   61.9977   33.6685   49.1907 C   0  0  0  0  0  0  0  0  0  0  0  0
   63.0927   33.8907   48.4222 F   0  0  0  0  0  0  0  0  0  0  0  0
   60.7253   33.6019   48.6106 C   0  0  0  0  0  0  0  0  0  0  0  0
   60.5289   33.8188   46.8787 Cl  0  0  0  0  0  0  0  0  0  0  0  0
   59.6005   33.3754   49.4122 C   0  0  0  0  0  0  0  0  0  0  0  0
   52.9938   30.8524   51.7246 C   0  0  0  0  0  0  0  0  0  0  0  0
   53.0952   29.9300   50.7511 N   0  0  0  0  0  0  0  0  0  0  0  0
   52.0155   30.1731   49.9768 C   0  0  0  0  0  0  0  0  0  0  0  0
   51.7650   29.5112   48.9359 O   0  0  0  0  0  0  0  0  0  0  0  0
   51.2181   31.1728   50.4108 N   0  0  0  0  0  0  0  0  0  0  0  0
   51.8436   31.5838   51.5262 C   0  0  0  0  0  0  0  0  0  0  0  0
   51.3509   32.5773   52.3634 O   0  0  0  0  0  0  0  0  0  0  0  0
   60.8168   28.2446   52.8765 C   0  0  0  0  0  0  0  0  0  0  0  0
   61.2257   28.1322   51.4305 C   0  0  0  0  0  0  0  0  0  0  0  0
   61.0017   26.8694   52.2897 C   0  0  0  0  0  0  0  0  0  0  0  0
  1 22  1  0
 22 23  1  0
 23 24  1  0
 24 25  2  0
 24 26  1  0
 26 27  1  0
 27 28  1  0
  1  2  2  0
  2  3  1  0
  3  4  2  0
  4  5  1  0
  5  6  1  0
  6  7  2  0
  7 29  1  0
 29 30  1  0
 30 31  1  0
  6  8  1  0
  8  9  1  0
  9 10  2  0
 10 14  1  0
 14 15  2  0
 15 16  1  0
 16 17  2  0
 17 18  1  0
 17 19  1  0
 19 20  1  0
 19 21  2  0
  9 11  1  0
 11 12  2  0
 27 22  2  0
 12  2  1  0
 12  5  1  0
 31 29  1  0
 21 14  1  0
  4 13  1  0
M  CHG 1   4   1
M  CHG 1   8  -1
M  CHG 1  23  -1
M  CHG 1  26  -1
M  CHG 1  28  -1
M  END
> <UniqueID>
40

> <SMILES>
O=c1[n-]c([O-])c(C=c2c[nH+]n3/c(=N\C4CC4)[n-]c(=Nc4ccc(F)c(Cl)c4)nc23)[n-]1

> <Energy>
432.1127641793269

> <Genealogy>
O=c1[n-]c([O-])c(C=c2c[nH+]n3c(=NC4CC4)[n-]c(=Nc4ccc(F)c(Cl)c4)nc23)[n-]1 (protonated)
O=c1[n-]c([O-])c(C=c2c[nH+]n3/c(=N\C4CC4)[n-]c(=Nc4ccc(F)c(Cl)c4)nc23)[n-]1 (cis-trans isomerization)
O=c1[n-]c([O-])c(C=c2c[nH+]n3/c(=N\C4CC4)[n-]c(=Nc4ccc(F)c(Cl)c4)nc23)[n-]1 (3D coordinates assigned)
O=c1[n-]c([O-])c(C=c2c[nH+]n3/c(=N\C4CC4)[n-]c(=Nc4ccc(F)c(Cl)c4)nc23)[n-]1 (nonaromatic ring conformer: 432.1127641793269 kcal/mol)

> <smiles>
O=c1[nH]c(O)c(C=c2cnn3c(=NC4CC4)[nH]c(=Nc4ccc(F)c(Cl)c4)nc23)[nH]1

> <score_type>
oracle

> <origin>
adg

> <m_score__min__energy>
-16.510000000000002

> <m_primary>
energy

> <minimizedAffinity>
-6.43576

> <minimizedRMSD>
0.93875

> <CNNscore>
0.0963617787

> <CNNaffinity>
5.6607422829

> <CNN_VS>
0.5454791784

> <CNNaffinity_variance>
0.0653176159

$$$$
50:0


 28 31  0  0  0  0  0  0  0  0999 V2000
   57.2507   24.6751   45.8623 C   0  0  0  0  0  0  0  0  0  0  0  0
   55.9927   25.2457   46.0827 C   0  0  0  0  0  0  0  0  0  0  0  0
   55.8186   26.6254   46.0486 O   0  0  0  0  0  0  0  0  0  0  0  0
   54.9297   24.4515   46.3564 N   0  0  0  0  0  0  0  0  0  0  0  0
   55.0548   23.1034   46.4362 C   0  0  0  0  0  0  0  0  0  0  0  0
   54.0355   22.4076   46.7007 O   0  0  0  0  0  0  0  0  0  0  0  0
   56.2749   22.5093   46.2465 N   0  0  0  0  0  0  0  0  0  0  0  0
   57.3754   23.2810   45.9693 C   0  0  0  0  0  0  0  0  0  0  0  0
   58.5024   22.7401   45.7903 O   0  0  0  0  0  0  0  0  0  0  0  0
   58.4304   25.5138   45.5685 C   0  0  0  0  0  0  0  0  0  0  0  0
   58.3932   26.8522   45.6122 C   0  0  0  0  0  0  0  0  0  0  0  0
   58.8831   27.6598   46.7275 C   0  0  0  0  0  0  0  0  0  0  0  0
   59.3392   27.2259   47.8189 O   0  0  0  0  0  0  0  0  0  0  0  0
   58.7609   29.0488   46.3528 C   0  0  0  0  0  0  0  0  0  0  0  0
   59.0877   30.1900   47.0829 C   0  0  0  0  0  0  0  0  0  0  0  0
   58.8692   31.4442   46.4914 C   0  0  0  0  0  0  0  0  0  0  0  0
   58.3396   31.5376   45.1833 C   0  0  0  0  0  0  0  0  0  0  0  0
   58.0710   32.8814   44.5761 C   0  0  0  0  0  0  0  0  0  0  0  0
   58.0026   30.3637   44.4780 C   0  0  0  0  0  0  0  0  0  0  0  0
   58.2280   29.1255   45.0815 C   0  0  0  0  0  0  0  0  0  0  0  0
   57.9436   27.7722   44.5007 C   0  0  0  0  0  0  0  0  0  0  0  0
   56.4054   21.0778   46.3440 C   0  0  0  0  0  0  0  0  0  0  0  0
   56.0807   20.2686   45.2438 C   0  0  0  0  0  0  0  0  0  0  0  0
   56.2073   18.8785   45.3295 C   0  0  0  0  0  0  0  0  0  0  0  0
   56.6564   18.2888   46.5142 C   0  0  0  0  0  0  0  0  0  0  0  0
   56.9785   19.0871   47.6150 C   0  0  0  0  0  0  0  0  0  0  0  0
   56.8534   20.4790   47.5354 C   0  0  0  0  0  0  0  0  0  0  0  0
   57.1640   21.2607   48.6429 O   0  0  0  0  0  0  0  0  0  0  0  0
 10 11  2  0
 11 12  1  0
 12 13  2  0
 12 14  1  0
 14 15  2  0
 15 16  1  0
 16 17  2  0
 17 18  1  0
 17 19  1  0
 19 20  2  0
 20 21  1  0
 10  1  1  0
  1  2  2  0
  2  3  1  0
  2  4  1  0
  4  5  1  0
  5  6  2  0
  5  7  1  0
  7 22  1  0
 22 23  2  0
 23 24  1  0
 24 25  2  0
 25 26  1  0
 26 27  2  0
 27 28  1  0
  7  8  1  0
  8  9  2  0
 21 11  1  0
  8  1  1  0
 20 14  1  0
 27 22  1  0
M  CHG 1   3  -1
M  CHG 1   4  -1
M  CHG 1  28  -1
M  END
> <UniqueID>
46

> <SMILES>
Cc1ccc2c(c1)C/C(=C\c1c([O-])[n-]c(=O)n(-c3ccccc3[O-])c1=O)C2=O

> <Energy>
82.77163367555023

> <Genealogy>
Cc1ccc2c(c1)CC(=Cc1c([O-])[n-]c(=O)n(-c3ccccc3[O-])c1=O)C2=O (protonated)
Cc1ccc2c(c1)C/C(=C\c1c([O-])[n-]c(=O)n(-c3ccccc3[O-])c1=O)C2=O (cis-trans isomerization)
Cc1ccc2c(c1)C/C(=C\c1c([O-])[n-]c(=O)n(-c3ccccc3[O-])c1=O)C2=O (3D coordinates assigned)
Cc1ccc2c(c1)C/C(=C\c1c([O-])[n-]c(=O)n(-c3ccccc3[O-])c1=O)C2=O (nonaromatic ring conformer: 82.77163367555023 kcal/mol)

> <smiles>
Cc1ccc2c(c1)CC(=Cc1c(O)[nH]c(=O)n(-c3ccccc3O)c1=O)C2=O

> <score_type>
oracle

> <origin>
adg

> <m_score__min__energy>
-15.619999999999999

> <m_primary>
energy

> <minimizedAffinity>
-8.13927

> <minimizedRMSD>
1.03488

> <CNNscore>
0.1396777779

> <CNNaffinity>
5.7390141487

> <CNN_VS>
0.8016127348

> <CNNaffinity_variance>
0.1187542453

$$$$
55:0


 29 31  0  0  0  0  0  0  0  0999 V2000
   58.0315   30.6493   45.2165 C   0  0  0  0  0  0  0  0  0  0  0  0
   58.6613   31.0892   46.3963 C   0  0  0  0  0  0  0  0  0  0  0  0
   59.0258   32.4332   46.5584 C   0  0  0  0  0  0  0  0  0  0  0  0
   58.7729   33.3478   45.5323 C   0  0  0  0  0  0  0  0  0  0  0  0
   58.1516   32.9276   44.3574 C   0  0  0  0  0  0  0  0  0  0  0  0
   57.7793   31.5904   44.1916 C   0  0  0  0  0  0  0  0  0  0  0  0
   57.1883   31.2248   43.0266 F   0  0  0  0  0  0  0  0  0  0  0  0
   59.8426   32.9681   48.0277 S   0  0  0  0  0  0  0  0  0  0  0  0
   58.9547   32.7474   49.2213 O   0  0  0  0  0  0  0  0  0  0  0  0
   60.1337   34.4380   47.9202 O   0  0  0  0  0  0  0  0  0  0  0  0
   61.3349   32.1040   48.2399 N   0  0  0  0  0  0  0  0  0  0  0  0
   62.1101   32.6829   47.9167 H   0  0  0  0  0  0  0  0  0  0  0  0
   61.5260   31.7825   49.6549 C   0  0  0  0  0  0  0  0  0  0  0  0
   61.2580   30.3203   49.8817 C   0  0  0  0  0  0  0  0  0  0  0  0
   60.6289   29.5518   48.8872 C   0  0  0  0  0  0  0  0  0  0  0  0
   60.4126   28.1849   49.0864 C   0  0  0  0  0  0  0  0  0  0  0  0
   60.8291   27.5753   50.2730 C   0  0  0  0  0  0  0  0  0  0  0  0
   61.4698   28.3304   51.2601 C   0  0  0  0  0  0  0  0  0  0  0  0
   61.6893   29.6976   51.0637 C   0  0  0  0  0  0  0  0  0  0  0  0
   57.6604   29.2189   45.0680 C   0  0  0  0  0  0  0  0  0  0  0  0
   57.1745   28.8073   43.9786 O   0  0  0  0  0  0  0  0  0  0  0  0
   59.3659   25.0226   46.0454 C   0  0  0  0  0  0  0  0  0  0  0  0
   59.2093   26.3709   46.1050 N   0  0  0  0  0  0  0  0  0  0  0  0
   57.9883   26.9722   46.0542 C   0  0  0  0  0  0  0  0  0  0  0  0
   57.9562   28.2761   46.1092 N   0  0  0  0  0  0  0  0  0  0  0  0
   56.8298   26.1539   45.9848 C   0  0  0  0  0  0  0  0  0  0  0  0
   55.5429   26.6750   46.0448 O   0  0  0  0  0  0  0  0  0  0  0  0
   56.9806   24.7663   45.9037 C   0  0  0  0  0  0  0  0  0  0  0  0
   58.2510   24.1960   45.9308 C   0  0  0  0  0  0  0  0  0  0  0  0
 22 23  1  0
 23 24  1  0
 24 25  2  0
 25 20  1  0
 20 21  2  0
 20  1  1  0
  1  2  2  0
  2  3  1  0
  3  8  1  0
  8  9  2  0
  8 10  2  0
  8 11  1  0
 11 13  1  0
 13 14  1  0
 14 15  2  0
 15 16  1  0
 16 17  2  0
 17 18  1  0
 18 19  2  0
  3  4  2  0
  4  5  1  0
  5  6  2  0
  6  7  1  0
 24 26  1  0
 26 27  1  0
 26 28  2  0
 28 29  1  0
 29 22  2  0
  6  1  1  0
 19 14  1  0
 11 12  1  0
M  CHG 1  23  -1
M  CHG 1  27  -1
M  END
> <UniqueID>
51

> <SMILES>
O=C(/N=c1/[n-]cccc1[O-])c1cc(S(=O)(=O)NCc2ccccc2)ccc1F

> <Energy>
56.64111200448119

> <Genealogy>
O=C(N=c1[n-]cccc1[O-])c1cc(S(=O)(=O)NCc2ccccc2)ccc1F (protonated)
O=C(/N=c1/[n-]cccc1[O-])c1cc(S(=O)(=O)NCc2ccccc2)ccc1F (cis-trans isomerization)
O=C(/N=c1/[n-]cccc1[O-])c1cc(S(=O)(=O)NCc2ccccc2)ccc1F (3D coordinates assigned)
O=C(/N=c1/[n-]cccc1[O-])c1cc(S(=O)(=O)NCc2ccccc2)ccc1F (optimized conformer: 56.64111200448119 kcal/mol)

> <smiles>
O=C(N=c1[nH]cccc1O)c1cc(S(=O)(=O)NCc2ccccc2)ccc1F

> <score_type>
oracle

> <origin>
adg

> <m_score__min__energy>
-14.970000000000001

> <m_primary>
energy

> <minimizedAffinity>
-7.51391

> <minimizedRMSD>
2.28444

> <CNNscore>
0.2849270403

> <CNNaffinity>
6.4414610863

> <CNN_VS>
1.8353464603

> <CNNaffinity_variance>
0.0225029718

$$$$
58:0


 29 31  0  0  0  0  0  0  0  0999 V2000
   56.8108   28.9925   44.8481 C   0  0  0  0  0  0  0  0  0  0  0  0
   55.7818   29.4329   44.2733 O   0  0  0  0  0  0  0  0  0  0  0  0
   56.6569   28.0340   45.9054 N   0  0  0  0  0  0  0  0  0  0  0  0
   57.0122   24.3059   46.0716 C   0  0  0  0  0  0  0  0  0  0  0  0
   58.4089   24.1920   46.0350 C   0  0  0  0  0  0  0  0  0  0  0  0
   59.2180   25.3223   45.9141 C   0  0  0  0  0  0  0  0  0  0  0  0
   58.6398   26.5901   45.8488 C   0  0  0  0  0  0  0  0  0  0  0  0
   57.2488   26.7315   45.9004 C   0  0  0  0  0  0  0  0  0  0  0  0
   56.4286   25.5936   45.9955 C   0  0  0  0  0  0  0  0  0  0  0  0
   55.0543   25.7743   46.0578 O   0  0  0  0  0  0  0  0  0  0  0  0
   56.2613   23.0911   46.2321 N   0  0  0  0  0  0  0  0  0  0  0  0
   56.5604   21.5245   45.5475 S   0  0  0  0  0  0  0  0  0  0  0  0
   57.6433   20.8588   46.3502 O   0  0  0  0  0  0  0  0  0  0  0  0
   55.3253   20.6731   45.6259 O   0  0  0  0  0  0  0  0  0  0  0  0
   56.2587   22.6455   43.0762 C   0  0  0  0  0  0  0  0  0  0  0  0
   57.1259   21.6667   43.8572 C   0  0  0  0  0  0  0  0  0  0  0  0
   58.1655   29.5051   44.4246 C   0  0  0  0  0  0  0  0  0  0  0  0
   58.7182   30.4199   45.4361 N   0  0  0  0  0  0  0  0  0  0  0  0
   59.5442   29.9083   46.3548 N   0  0  0  0  0  0  0  0  0  0  0  0
   60.1703   30.6736   47.2827 C   0  0  0  0  0  0  0  0  0  0  0  0
   60.9418   30.1250   48.1152 O   0  0  0  0  0  0  0  0  0  0  0  0
   59.9641   32.0583   47.2894 C   0  0  0  0  0  0  0  0  0  0  0  0
   60.6283   32.9009   48.2025 C   0  0  0  0  0  0  0  0  0  0  0  0
   60.4103   34.2794   48.1715 C   0  0  0  0  0  0  0  0  0  0  0  0
   59.5286   34.8315   47.2410 C   0  0  0  0  0  0  0  0  0  0  0  0
   58.8560   34.0067   46.3360 C   0  0  0  0  0  0  0  0  0  0  0  0
   59.0699   32.6143   46.3501 C   0  0  0  0  0  0  0  0  0  0  0  0
   58.4280   31.7610   45.4335 C   0  0  0  0  0  0  0  0  0  0  0  0
   57.6007   32.2353   44.6050 O   0  0  0  0  0  0  0  0  0  0  0  0
 15 16  1  0
 16 12  1  0
 12 13  2  0
 12 14  2  0
 12 11  1  0
 11  4  1  0
  4  5  2  0
  5  6  1  0
  6  7  2  0
  7  8  1  0
  8  3  1  0
  3  1  1  0
  1  2  2  0
  1 17  1  0
 17 18  1  0
 18 19  1  0
 19 20  1  0
 20 21  2  0
 20 22  1  0
 22 23  2  0
 23 24  1  0
 24 25  2  0
 25 26  1  0
 26 27  2  0
 27 28  1  0
 28 29  2  0
  8  9  2  0
  9 10  1  0
  9  4  1  0
 28 18  1  0
 27 22  1  0
M  CHG 1   3  -1
M  CHG 1  10  -1
M  CHG 1  11  -1
M  CHG 1  19  -1
M  END
> <UniqueID>
54

> <SMILES>
CCS(=O)(=O)[N-]c1cccc([N-]C(=O)Cn2[n-]c(=O)c3ccccc3c2=O)c1[O-]

> <Energy>
55.12734230925073

> <Genealogy>
CCS(=O)(=O)[N-]c1cccc([N-]C(=O)Cn2[n-]c(=O)c3ccccc3c2=O)c1[O-] (protonated)
CCS(=O)(=O)[N-]c1cccc([N-]C(=O)Cn2[n-]c(=O)c3ccccc3c2=O)c1[O-] (3D coordinates assigned)
CCS(=O)(=O)[N-]c1cccc([N-]C(=O)Cn2[n-]c(=O)c3ccccc3c2=O)c1[O-] (optimized conformer: 55.12734230925073 kcal/mol)

> <smiles>
CCS(=O)(=O)Nc1cccc(NC(=O)Cn2[nH]c(=O)c3ccccc3c2=O)c1O

> <score_type>
oracle

> <origin>
adg

> <m_score__min__energy>
-18.219999999999999

> <m_primary>
energy

> <minimizedAffinity>
-7.40309

> <minimizedRMSD>
1.46386

> <CNNscore>
0.4729889929

> <CNNaffinity>
6.4119572639

> <CNN_VS>
3.0327851772

> <CNNaffinity_variance>
0.0458531380

$$$$
0:0


 25 27  0  0  0  0  0  0  0  0999 V2000
   57.4168   27.8289   45.0909 N   0  0  0  0  0  0  0  0  0  0  0  0
   57.6465   29.1082   45.0878 C   0  0  0  0  0  0  0  0  0  0  0  0
   57.8890   29.8394   46.2014 N   0  0  0  0  0  0  0  0  0  0  0  0
   58.0574   31.1527   45.8968 C   0  0  0  0  0  0  0  0  0  0  0  0
   57.9161   31.4626   44.5531 C   0  0  0  0  0  0  0  0  0  0  0  0
   57.6095   30.0514   43.6927 S   0  0  0  0  0  0  0  0  0  0  0  0
   58.1319   32.8271   43.9878 C   0  0  0  0  0  0  0  0  0  0  0  0
   57.8821   33.8820   45.0708 C   0  0  0  0  0  0  0  0  0  0  0  0
   58.5764   33.5188   46.3195 N   0  0  0  0  0  0  0  0  0  0  0  0
   59.3630   34.4951   47.0307 C   0  0  0  0  0  0  0  0  0  0  0  0
   59.4458   35.6710   46.5886 O   0  0  0  0  0  0  0  0  0  0  0  0
   58.3481   32.1971   46.9336 C   0  0  0  0  0  0  0  0  0  0  0  0
   57.7627   26.9165   46.1443 C   0  0  0  0  0  0  0  0  0  0  0  0
   58.8662   27.0613   46.7305 O   0  0  0  0  0  0  0  0  0  0  0  0
   57.2492   24.9300   47.3477 O   0  0  0  0  0  0  0  0  0  0  0  0
   56.8387   25.8668   46.6132 C   0  0  0  0  0  0  0  0  0  0  0  0
   55.5114   25.8821   46.2054 O   0  0  0  0  0  0  0  0  0  0  0  0
   60.0157   34.1782   48.2675 N   0  0  0  0  0  0  0  0  0  0  0  0
   61.3837   33.7753   48.4126 C   0  0  0  0  0  0  0  0  0  0  0  0
   62.0548   33.2409   47.3047 C   0  0  0  0  0  0  0  0  0  0  0  0
   63.3845   32.8245   47.4192 C   0  0  0  0  0  0  0  0  0  0  0  0
   64.0486   32.9271   48.6436 C   0  0  0  0  0  0  0  0  0  0  0  0
   63.3794   33.4377   49.7610 C   0  0  0  0  0  0  0  0  0  0  0  0
   64.0350   33.5268   50.9833 O   0  0  0  0  0  0  0  0  0  0  0  0
   62.0486   33.8540   49.6495 C   0  0  0  0  0  0  0  0  0  0  0  0
 15 16  2  0
 16 17  1  0
 16 13  1  0
 13 14  2  0
 13  1  1  0
  1  2  2  0
  2  3  1  0
  3  4  1  0
  4  5  2  0
  5  6  1  0
  5  7  1  0
  7  8  1  0
  8  9  1  0
  9 10  1  0
 10 11  2  0
 10 18  1  0
 18 19  1  0
 19 20  2  0
 20 21  1  0
 21 22  2  0
 22 23  1  0
 23 24  1  0
 23 25  2  0
  9 12  1  0
  6  2  1  0
 25 19  1  0
 12  4  1  0
M  CHG 1   3  -1
M  CHG 1  17  -1
M  CHG 1  18  -1
M  CHG 1  24  -1
M  END
> <UniqueID>
1

> <SMILES>
O=C([O-])C(=O)N=c1[n-]c2c(s1)CCN(C(=O)[N-]c1cccc([O-])c1)C2

> <Energy>
79.60499661544537

> <Genealogy>
O=C([O-])C(=O)N=c1[n-]c2c(s1)CCN(C(=O)[N-]c1cccc([O-])c1)C2 (protonated)
O=C([O-])C(=O)N=c1[n-]c2c(s1)CCN(C(=O)[N-]c1cccc([O-])c1)C2 (3D coordinates assigned)
O=C([O-])C(=O)N=c1[n-]c2c(s1)CCN(C(=O)[N-]c1cccc([O-])c1)C2 (nonaromatic ring conformer: 79.60499661544537 kcal/mol)

> <smiles>
O=C(O)C(=O)N=c1[nH]c2c(s1)CCN(C(=O)Nc1cccc(O)c1)C2

> <score_type>
oracle

> <origin>
adg

> <m_score__min__energy>
-14.890000000000001

> <m_primary>
energy

> <minimizedAffinity>
-7.66578

> <minimizedRMSD>
0.60548

> <CNNscore>
0.5657738447

> <CNNaffinity>
6.4147434235

> <CNN_VS>
3.6292941570

> <CNNaffinity_variance>
0.0260879565

$$$$
23:0


 26 28  0  0  0  0  0  0  0  0999 V2000
   59.1167   34.2005   46.8045 C   0  0  0  0  0  0  0  0  0  0  0  0
   59.7836   35.2383   46.5392 O   0  0  0  0  0  0  0  0  0  0  0  0
   59.6516   33.2273   47.7181 N   0  0  0  0  0  0  0  0  0  0  0  0
   61.0651   33.1415   48.0011 C   0  0  0  0  0  0  0  0  0  0  0  0
   62.0324   33.4693   47.0342 C   0  0  0  0  0  0  0  0  0  0  0  0
   63.3921   33.3952   47.3479 C   0  0  0  0  0  0  0  0  0  0  0  0
   63.7999   32.9840   48.6192 C   0  0  0  0  0  0  0  0  0  0  0  0
   62.8469   32.6311   49.5794 C   0  0  0  0  0  0  0  0  0  0  0  0
   61.4806   32.6949   49.2697 C   0  0  0  0  0  0  0  0  0  0  0  0
   60.4972   32.3087   50.2372 N   0  0  0  0  0  0  0  0  0  0  0  0
   59.1239   32.1780   49.8578 C   0  0  0  0  0  0  0  0  0  0  0  0
   58.2572   31.8833   50.7236 O   0  0  0  0  0  0  0  0  0  0  0  0
   58.7261   32.3249   48.4165 C   0  0  0  0  0  0  0  0  0  0  0  0
   60.7675   32.1325   51.1673 H   0  0  0  0  0  0  0  0  0  0  0  0
   57.8089   33.9651   46.0932 C   0  0  0  0  0  0  0  0  0  0  0  0
   58.0198   33.5431   44.6311 C   0  0  0  0  0  0  0  0  0  0  0  0
   57.7942   31.0816   44.4382 C   0  0  0  0  0  0  0  0  0  0  0  0
   58.5877   32.1559   44.5190 C   0  0  0  0  0  0  0  0  0  0  0  0
   58.2127   29.7347   44.8861 C   0  0  0  0  0  0  0  0  0  0  0  0
   57.2932   28.7021   45.1741 C   0  0  0  0  0  0  0  0  0  0  0  0
   55.9239   28.9076   45.0642 O   0  0  0  0  0  0  0  0  0  0  0  0
   57.7439   27.4894   45.5934 N   0  0  0  0  0  0  0  0  0  0  0  0
   59.0664   27.2319   45.7675 C   0  0  0  0  0  0  0  0  0  0  0  0
   59.4389   26.0940   46.1556 O   0  0  0  0  0  0  0  0  0  0  0  0
   60.0090   28.2330   45.5241 C   0  0  0  0  0  0  0  0  0  0  0  0
   59.5780   29.4873   45.0902 C   0  0  0  0  0  0  0  0  0  0  0  0
 17 18  2  0
 18 16  1  0
 16 15  1  0
 15  1  1  0
  1  2  2  0
  1  3  1  0
  3  4  1  0
  4  5  2  0
  5  6  1  0
  6  7  2  0
  7  8  1  0
  8  9  2  0
  9 10  1  0
 10 11  1  0
 11 12  2  0
 11 13  1  0
 17 19  1  0
 19 20  2  0
 20 21  1  0
 20 22  1  0
 22 23  1  0
 23 24  2  0
 23 25  1  0
 25 26  2  0
 13  3  1  0
 26 19  1  0
  9  4  1  0
 10 14  1  0
M  CHG 1  21  -1
M  CHG 1  22  -1
M  END
> <UniqueID>
22

> <SMILES>
O=C1CN(C(=O)CC/C=C/c2ccc(=O)[n-]c2[O-])c2ccccc2N1

> <Energy>
48.927146999129185

> <Genealogy>
O=C1CN(C(=O)CCC=Cc2ccc(=O)[n-]c2[O-])c2ccccc2N1 (protonated)
O=C1CN(C(=O)CC/C=C/c2ccc(=O)[n-]c2[O-])c2ccccc2N1 (cis-trans isomerization)
O=C1CN(C(=O)CC/C=C/c2ccc(=O)[n-]c2[O-])c2ccccc2N1 (3D coordinates assigned)
O=C1CN(C(=O)CC/C=C/c2ccc(=O)[n-]c2[O-])c2ccccc2N1 (nonaromatic ring conformer: 48.927146999129185 kcal/mol)

> <smiles>
O=C1CN(C(=O)CCC=Cc2ccc(=O)[nH]c2O)c2ccccc2N1

> <score_type>
oracle

> <origin>
adg

> <m_score__min__energy>
-14.029999999999999

> <m_primary>
energy

> <minimizedAffinity>
-8.10767

> <minimizedRMSD>
1.35622

> <CNNscore>
0.4255516231

> <CNNaffinity>
6.4856600761

> <CNN_VS>
2.7599830627

> <CNNaffinity_variance>
0.0323830768

$$$$
35:0


 27 29  0  0  0  0  0  0  0  0999 V2000
   59.9366   28.9033   47.1998 C   0  0  0  0  0  0  0  0  0  0  0  0
   59.2128   28.6984   46.0324 C   0  0  0  0  0  0  0  0  0  0  0  0
   58.9398   29.7106   44.9604 C   0  0  0  0  0  0  0  0  0  0  0  0
   58.8401   27.3602   46.0322 C   0  0  0  0  0  0  0  0  0  0  0  0
   59.2999   26.7529   47.1441 N   0  0  0  0  0  0  0  0  0  0  0  0
   59.9688   27.6794   47.8577 C   0  0  0  0  0  0  0  0  0  0  0  0
   60.6369   27.3815   49.1635 C   0  0  0  0  0  0  0  0  0  0  0  0
   59.1710   25.8082   47.3891 H   0  0  0  0  0  0  0  0  0  0  0  0
   60.5504   30.1758   47.6392 C   0  0  0  0  0  0  0  0  0  0  0  0
   61.6426   30.5402   47.1292 O   0  0  0  0  0  0  0  0  0  0  0  0
   59.2600   32.0528   48.5393 C   0  0  0  0  0  0  0  0  0  0  0  0
   59.9778   30.9745   48.6834 N   0  0  0  0  0  0  0  0  0  0  0  0
   58.1656   32.2207   47.5164 C   0  0  0  0  0  0  0  0  0  0  0  0
   57.9919   33.6528   47.1918 N   0  0  0  0  0  0  0  0  0  0  0  0
   57.4260   33.8445   45.8425 C   0  0  0  0  0  0  0  0  0  0  0  0
   58.4476   33.4906   44.7325 C   0  0  0  0  0  0  0  0  0  0  0  0
   59.7836   33.4249   45.2010 O   0  0  0  0  0  0  0  0  0  0  0  0
   60.0571   34.5253   46.0418 C   0  0  0  0  0  0  0  0  0  0  0  0
   59.2473   34.4259   47.3504 C   0  0  0  0  0  0  0  0  0  0  0  0
   58.1039   26.6354   44.9448 C   0  0  0  0  0  0  0  0  0  0  0  0
   57.6057   25.3170   45.4474 C   0  0  0  0  0  0  0  0  0  0  0  0
   58.3494   24.1973   45.4979 N   0  0  0  0  0  0  0  0  0  0  0  0
   57.5170   23.2979   46.0675 C   0  0  0  0  0  0  0  0  0  0  0  0
   57.8548   22.1051   46.2843 O   0  0  0  0  0  0  0  0  0  0  0  0
   56.2974   23.7782   46.3905 N   0  0  0  0  0  0  0  0  0  0  0  0
   56.3729   25.0591   45.9960 C   0  0  0  0  0  0  0  0  0  0  0  0
   55.3381   25.9762   46.1391 O   0  0  0  0  0  0  0  0  0  0  0  0
 11 12  2  0
 12  9  1  0
  9 10  2  0
  9  1  1  0
  1  2  1  0
  2  3  1  0
  2  4  2  0
  4 20  1  0
 20 21  1  0
 21 22  1  0
 22 23  1  0
 23 24  2  0
 23 25  1  0
 25 26  1  0
 26 27  1  0
  4  5  1  0
  5  6  1  0
  6  7  1  0
 11 13  1  0
 13 14  1  0
 14 15  1  0
 15 16  1  0
 16 17  1  0
 17 18  1  0
 18 19  1  0
  6  1  2  0
 19 14  1  0
 26 21  2  0
  5  8  1  0
M  CHG 1  22  -1
M  CHG 1  25  -1
M  CHG 1  27  -1
M  END
> <UniqueID>
33

> <SMILES>
Cc1[nH]c(Cc2[n-]c(=O)[n-]c2[O-])c(C)c1C(=O)/N=C\CN1CCOCC1

> <Energy>
118.1484900722439

> <Genealogy>
Cc1[nH]c(Cc2[n-]c(=O)[n-]c2[O-])c(C)c1C(=O)N=CCN1CCOCC1 (protonated)
Cc1[nH]c(Cc2[n-]c(=O)[n-]c2[O-])c(C)c1C(=O)/N=C\CN1CCOCC1 (cis-trans isomerization)
Cc1[nH]c(Cc2[n-]c(=O)[n-]c2[O-])c(C)c1C(=O)/N=C\CN1CCOCC1 (3D coordinates assigned)
Cc1[nH]c(Cc2[n-]c(=O)[n-]c2[O-])c(C)c1C(=O)/N=C\CN1CCOCC1 (nonaromatic ring conformer: 118.1484900722439 kcal/mol)

> <smiles>
Cc1[nH]c(Cc2[nH]c(=O)[nH]c2O)c(C)c1C(=O)N=CCN1CCOCC1

> <score_type>
oracle

> <origin>
adg

> <m_score__min__energy>
-15.77

> <m_primary>
energy

> <minimizedAffinity>
-6.34372

> <minimizedRMSD>
0.92922

> <CNNscore>
0.0887149051

> <CNNaffinity>
5.2518754005

> <CNN_VS>
0.4659196138

> <CNNaffinity_variance>
0.4437246025

$$$$
40:0


 31 33  0  0  0  0  0  0  0  0999 V2000
   55.8037   29.1738   44.4725 O   0  0  0  0  0  0  0  0  0  0  0  0
   56.9325   29.8223   44.9791 C   0  0  0  0  0  0  0  0  0  0  0  0
   56.8919   31.1677   45.1320 N   0  0  0  0  0  0  0  0  0  0  0  0
   57.9451   31.8650   45.6255 C   0  0  0  0  0  0  0  0  0  0  0  0
   57.8370   33.1135   45.7551 O   0  0  0  0  0  0  0  0  0  0  0  0
   59.1050   31.2176   45.9700 N   0  0  0  0  0  0  0  0  0  0  0  0
   59.1891   29.8558   45.8192 C   0  0  0  0  0  0  0  0  0  0  0  0
   60.2591   29.2522   46.1044 O   0  0  0  0  0  0  0  0  0  0  0  0
   58.0916   29.1204   45.3409 C   0  0  0  0  0  0  0  0  0  0  0  0
   55.0437   29.6697   44.2394 H   0  0  0  0  0  0  0  0  0  0  0  0
   58.1585   27.6477   45.1963 C   0  0  0  0  0  0  0  0  0  0  0  0
   58.0238   26.7979   46.2314 C   0  0  0  0  0  0  0  0  0  0  0  0
   59.0691   26.6958   47.3117 C   0  0  0  0  0  0  0  0  0  0  0  0
   56.7299   26.1160   46.4454 C   0  0  0  0  0  0  0  0  0  0  0  0
   55.6956   26.6009   45.9219 O   0  0  0  0  0  0  0  0  0  0  0  0
   56.6062   24.9266   47.2386 N   0  0  0  0  0  0  0  0  0  0  0  0
   55.8716   23.7189   46.8691 C   0  0  0  0  0  0  0  0  0  0  0  0
   56.4549   23.0780   45.6330 C   0  0  0  0  0  0  0  0  0  0  0  0
   57.7664   22.5768   45.6632 C   0  0  0  0  0  0  0  0  0  0  0  0
   58.3186   21.9639   44.5349 C   0  0  0  0  0  0  0  0  0  0  0  0
   57.5764   21.8716   43.3562 C   0  0  0  0  0  0  0  0  0  0  0  0
   56.2858   22.4027   43.2986 C   0  0  0  0  0  0  0  0  0  0  0  0
   55.7246   23.0134   44.4266 C   0  0  0  0  0  0  0  0  0  0  0  0
   54.4466   23.5543   44.3371 O   0  0  0  0  0  0  0  0  0  0  0  0
   60.2387   31.9653   46.5544 C   0  0  0  0  0  0  0  0  0  0  0  0
   59.9586   32.2861   48.0003 C   0  0  0  0  0  0  0  0  0  0  0  0
   59.4320   31.3016   48.8545 C   0  0  0  0  0  0  0  0  0  0  0  0
   59.2191   31.5820   50.2068 C   0  0  0  0  0  0  0  0  0  0  0  0
   59.5361   32.8437   50.7196 C   0  0  0  0  0  0  0  0  0  0  0  0
   60.0629   33.8272   49.8787 C   0  0  0  0  0  0  0  0  0  0  0  0
   60.2755   33.5525   48.5249 C   0  0  0  0  0  0  0  0  0  0  0  0
  1  2  1  0
  2  3  1  0
  3  4  1  0
  4  5  2  0
  4  6  1  0
  6 25  1  0
 25 26  1  0
 26 27  2  0
 27 28  1  0
 28 29  2  0
 29 30  1  0
 30 31  2  0
  6  7  1  0
  7  8  2  0
  7  9  1  0
  9 11  1  0
 11 12  2  0
 12 14  1  0
 14 15  2  0
 14 16  1  0
 16 17  1  0
 17 18  1  0
 18 19  2  0
 19 20  1  0
 20 21  2  0
 21 22  1  0
 22 23  2  0
 23 24  1  0
 12 13  1  0
  9  2  2  0
 23 18  1  0
 31 26  1  0
  1 10  1  0
M  CHG 1   3  -1
M  CHG 1  16  -1
M  CHG 1  24  -1
M  END
> <UniqueID>
38

> <SMILES>
C/C(=C\c1c(O)[n-]c(=O)n(Cc2ccccc2)c1=O)C(=O)[N-]Cc1ccccc1[O-]

> <Energy>
65.02421971108478

> <Genealogy>
CC(=Cc1c(O)[n-]c(=O)n(Cc2ccccc2)c1=O)C(=O)[N-]Cc1ccccc1[O-] (protonated)
C/C(=C\c1c(O)[n-]c(=O)n(Cc2ccccc2)c1=O)C(=O)[N-]Cc1ccccc1[O-] (cis-trans isomerization)
C/C(=C\c1c(O)[n-]c(=O)n(Cc2ccccc2)c1=O)C(=O)[N-]Cc1ccccc1[O-] (3D coordinates assigned)
C/C(=C\c1c(O)[n-]c(=O)n(Cc2ccccc2)c1=O)C(=O)[N-]Cc1ccccc1[O-] (optimized conformer: 65.02421971108478 kcal/mol)

> <smiles>
CC(=Cc1c(O)[nH]c(=O)n(Cc2ccccc2)c1=O)C(=O)NCc1ccccc1O

> <score_type>
oracle

> <origin>
adg

> <m_score__min__energy>
-15.699999999999999

> <m_primary>
energy

> <minimizedAffinity>
-7.98929

> <minimizedRMSD>
1.08504

> <CNNscore>
0.7121119499

> <CNNaffinity>
6.8480582237

> <CNN_VS>
4.8765840530

> <CNNaffinity_variance>
0.3533821106

$$$$
59:0


 28 29  0  0  0  0  0  0  0  0999 V2000
   61.1449   32.7896   47.9288 C   0  0  0  0  0  0  0  0  0  0  0  0
   61.5044   33.3938   46.8823 O   0  0  0  0  0  0  0  0  0  0  0  0
   58.6745   32.4762   47.8490 C   0  0  0  0  0  0  0  0  0  0  0  0
   59.7659   33.0082   48.4214 C   0  0  0  0  0  0  0  0  0  0  0  0
   57.3415   31.4348   44.5400 C   0  0  0  0  0  0  0  0  0  0  0  0
   57.7801   32.4509   43.6781 C   0  0  0  0  0  0  0  0  0  0  0  0
   58.5280   33.5087   44.1934 C   0  0  0  0  0  0  0  0  0  0  0  0
   58.8399   33.5479   45.5533 C   0  0  0  0  0  0  0  0  0  0  0  0
   58.4011   32.5072   46.3948 C   0  0  0  0  0  0  0  0  0  0  0  0
   57.6608   31.4969   45.8627 N   0  0  0  0  0  0  0  0  0  0  0  0
   55.6403   29.6281   44.9189 N   0  0  0  0  0  0  0  0  0  0  0  0
   56.5406   30.3018   44.0424 C   0  0  0  0  0  0  0  0  0  0  0  0
   56.6432   29.9199   42.8441 O   0  0  0  0  0  0  0  0  0  0  0  0
   55.1048   28.8712   44.5878 H   0  0  0  0  0  0  0  0  0  0  0  0
   62.1481   31.9088   48.6249 C   0  0  0  0  0  0  0  0  0  0  0  0
   61.4609   30.9244   49.5375 C   0  0  0  0  0  0  0  0  0  0  0  0
   61.2777   31.2253   50.7464 O   0  0  0  0  0  0  0  0  0  0  0  0
   61.0483   29.5839   49.0759 C   0  0  0  0  0  0  0  0  0  0  0  0
   59.8122   29.2442   48.6770 C   0  0  0  0  0  0  0  0  0  0  0  0
   59.4586   28.7350   47.3353 C   0  0  0  0  0  0  0  0  0  0  0  0
   60.1781   29.1240   46.1917 C   0  0  0  0  0  0  0  0  0  0  0  0
   59.8052   28.6496   44.9309 C   0  0  0  0  0  0  0  0  0  0  0  0
   58.7001   27.8048   44.7909 C   0  0  0  0  0  0  0  0  0  0  0  0
   58.3513   27.3452   43.5215 O   0  0  0  0  0  0  0  0  0  0  0  0
   57.9587   27.4385   45.9268 C   0  0  0  0  0  0  0  0  0  0  0  0
   56.8504   26.6072   45.8075 O   0  0  0  0  0  0  0  0  0  0  0  0
   58.3332   27.9116   47.1899 C   0  0  0  0  0  0  0  0  0  0  0  0
   58.8577   27.6001   42.7754 H   0  0  0  0  0  0  0  0  0  0  0  0
 11 12  1  0
 12 13  2  0
 12  5  1  0
  5  6  2  0
  6  7  1  0
  7  8  2  0
  8  9  1  0
  9  3  1  0
  3  4  2  0
  4  1  1  0
  1  2  2  0
  1 15  1  0
 15 16  1  0
 16 17  2  0
 16 18  1  0
 18 19  2  0
 19 20  1  0
 20 21  2  0
 21 22  1  0
 22 23  2  0
 23 24  1  0
 23 25  1  0
 25 26  1  0
 25 27  2  0
  9 10  2  0
 10  5  1  0
 27 20  1  0
 11 14  1  0
 24 28  1  0
M  CHG 1  11  -1
M  CHG 1  26  -1
M  END
> <UniqueID>
55

> <SMILES>
[NH-]C(=O)c1cccc(C=CC(=O)CC(=O)C=Cc2ccc(O)c([O-])c2)n1

> <Energy>
50.685758255568636

> <Genealogy>
[NH-]C(=O)c1cccc(C=CC(=O)CC(=O)C=Cc2ccc(O)c([O-])c2)n1 (protonated)
[NH-]C(=O)c1cccc(C=CC(=O)CC(=O)C=Cc2ccc(O)c([O-])c2)n1 (3D coordinates assigned)
[NH-]C(=O)c1cccc(C=CC(=O)CC(=O)C=Cc2ccc(O)c([O-])c2)n1 (optimized conformer: 50.685758255568636 kcal/mol)

> <smiles>
NC(=O)c1cccc(C=CC(=O)CC(=O)C=Cc2ccc(O)c(O)c2)n1

> <score_type>
oracle

> <origin>
adg

> <m_score__min__energy>
-14.82

> <m_primary>
energy

> <minimizedAffinity>
-8.59098

> <minimizedRMSD>
1.28119

> <CNNscore>
0.8303554654

> <CNNaffinity>
6.8825421333

> <CNN_VS>
5.7149562836

> <CNNaffinity_variance>
0.0551116168

$$$$
66:0


 28 30  0  0  0  0  0  0  0  0999 V2000
   57.9508   26.4246   44.8715 C   0  0  0  0  0  0  0  0  0  0  0  0
   58.1025   27.6078   45.5072 C   0  0  0  0  0  0  0  0  0  0  0  0
   57.8427   21.5570   45.9789 C   0  0  0  0  0  0  0  0  0  0  0  0
   57.2117   22.8887   45.9856 N   0  0  0  0  0  0  0  0  0  0  0  0
   55.9957   23.0724   46.5913 C   0  0  0  0  0  0  0  0  0  0  0  0
   55.3884   22.1072   47.1300 O   0  0  0  0  0  0  0  0  0  0  0  0
   55.4295   24.3050   46.6279 N   0  0  0  0  0  0  0  0  0  0  0  0
   56.0365   25.3828   46.0760 C   0  0  0  0  0  0  0  0  0  0  0  0
   55.4088   26.6217   46.1344 O   0  0  0  0  0  0  0  0  0  0  0  0
   57.2774   25.2388   45.4502 C   0  0  0  0  0  0  0  0  0  0  0  0
   57.8770   23.9655   45.4543 C   0  0  0  0  0  0  0  0  0  0  0  0
   59.0394   23.8229   44.9792 O   0  0  0  0  0  0  0  0  0  0  0  0
   58.9058   27.6652   46.7583 C   0  0  0  0  0  0  0  0  0  0  0  0
   58.6446   28.6523   47.7260 C   0  0  0  0  0  0  0  0  0  0  0  0
   59.4029   28.7137   48.8987 C   0  0  0  0  0  0  0  0  0  0  0  0
   60.4281   27.7912   49.1185 C   0  0  0  0  0  0  0  0  0  0  0  0
   60.6990   26.8081   48.1648 C   0  0  0  0  0  0  0  0  0  0  0  0
   59.9445   26.7425   46.9897 C   0  0  0  0  0  0  0  0  0  0  0  0
   57.4570   28.8512   45.0207 C   0  0  0  0  0  0  0  0  0  0  0  0
   56.2030   28.9793   45.0711 O   0  0  0  0  0  0  0  0  0  0  0  0
   58.2720   29.9331   44.5528 N   0  0  0  0  0  0  0  0  0  0  0  0
   58.4384   31.2027   45.1982 C   0  0  0  0  0  0  0  0  0  0  0  0
   57.7169   32.3419   44.7946 C   0  0  0  0  0  0  0  0  0  0  0  0
   57.9268   33.5696   45.4326 C   0  0  0  0  0  0  0  0  0  0  0  0
   58.8667   33.6733   46.4622 C   0  0  0  0  0  0  0  0  0  0  0  0
   59.0726   34.8931   47.0952 O   0  0  0  0  0  0  0  0  0  0  0  0
   59.6027   32.5508   46.8514 C   0  0  0  0  0  0  0  0  0  0  0  0
   59.3941   31.3220   46.2160 C   0  0  0  0  0  0  0  0  0  0  0  0
  3  4  1  0
  4  5  1  0
  5  6  2  0
  5  7  1  0
  7  8  1  0
  8  9  1  0
  8 10  2  0
 10  1  1  0
  1  2  2  0
  2 19  1  0
 19 20  2  0
 19 21  1  0
 21 22  1  0
 22 23  2  0
 23 24  1  0
 24 25  2  0
 25 26  1  0
 25 27  1  0
 27 28  2  0
  2 13  1  0
 13 14  2  0
 14 15  1  0
 15 16  2  0
 16 17  1  0
 17 18  2  0
 10 11  1  0
 11 12  2  0
 11  4  1  0
 28 22  1  0
 18 13  1  0
M  CHG 1   7  -1
M  CHG 1   9  -1
M  CHG 1  21  -1
M  CHG 1  26  -1
M  END
> <UniqueID>
62

> <SMILES>
Cn1c(=O)[n-]c([O-])c(C=C(C(=O)[N-]c2ccc([O-])cc2)c2ccccc2)c1=O

> <Energy>
66.79902494933093

> <Genealogy>
Cn1c(=O)[n-]c([O-])c(C=C(C(=O)[N-]c2ccc([O-])cc2)c2ccccc2)c1=O (protonated)
Cn1c(=O)[n-]c([O-])c(C=C(C(=O)[N-]c2ccc([O-])cc2)c2ccccc2)c1=O (3D coordinates assigned)
Cn1c(=O)[n-]c([O-])c(C=C(C(=O)[N-]c2ccc([O-])cc2)c2ccccc2)c1=O (optimized conformer: 66.79902494933093 kcal/mol)

> <smiles>
Cn1c(=O)[nH]c(O)c(C=C(C(=O)Nc2ccc(O)cc2)c2ccccc2)c1=O

> <score_type>
oracle

> <origin>
adg

> <m_score__min__energy>
-15.94

> <m_primary>
energy

> <minimizedAffinity>
-7.50786

> <minimizedRMSD>
0.52916

> <CNNscore>
0.5745146275

> <CNNaffinity>
6.7598738670

> <CNN_VS>
3.8836464882

> <CNNaffinity_variance>
0.2125936300

$$$$
67:0


 31 33  0  0  0  0  0  0  0  0999 V2000
   58.5806   27.6056   46.0688 C   0  0  0  0  0  0  0  0  0  0  0  0
   57.3660   28.2251   45.7399 C   0  0  0  0  0  0  0  0  0  0  0  0
   57.3186   29.5677   45.3832 O   0  0  0  0  0  0  0  0  0  0  0  0
   56.2159   27.5113   45.7606 N   0  0  0  0  0  0  0  0  0  0  0  0
   56.1990   26.1965   46.0881 C   0  0  0  0  0  0  0  0  0  0  0  0
   55.0944   25.5877   46.0896 O   0  0  0  0  0  0  0  0  0  0  0  0
   57.3631   25.5452   46.4097 N   0  0  0  0  0  0  0  0  0  0  0  0
   58.5513   26.2351   46.3927 C   0  0  0  0  0  0  0  0  0  0  0  0
   59.6321   25.6419   46.6675 O   0  0  0  0  0  0  0  0  0  0  0  0
   59.8837   28.3800   46.0676 C   0  0  0  0  0  0  0  0  0  0  0  0
   59.9649   30.4347   47.5820 C   0  0  0  0  0  0  0  0  0  0  0  0
   60.1160   30.9996   48.8564 C   0  0  0  0  0  0  0  0  0  0  0  0
   60.4718   30.2017   49.9445 C   0  0  0  0  0  0  0  0  0  0  0  0
   60.6655   28.8316   49.7709 C   0  0  0  0  0  0  0  0  0  0  0  0
   60.4913   28.2526   48.5117 C   0  0  0  0  0  0  0  0  0  0  0  0
   60.1292   29.0425   47.4048 C   0  0  0  0  0  0  0  0  0  0  0  0
   59.6361   31.2852   46.4809 N   0  0  0  0  0  0  0  0  0  0  0  0
   59.9139   31.0271   45.5724 H   0  0  0  0  0  0  0  0  0  0  0  0
   58.7569   32.7637   46.7134 S   0  0  0  0  0  0  0  0  0  0  0  0
   58.0303   32.7237   48.0272 O   0  0  0  0  0  0  0  0  0  0  0  0
   59.7373   33.9031   46.7347 O   0  0  0  0  0  0  0  0  0  0  0  0
   57.6018   33.0558   45.3749 C   0  0  0  0  0  0  0  0  0  0  0  0
   57.7959   31.9730   43.1065 C   0  0  0  0  0  0  0  0  0  0  0  0
   58.3097   33.0867   44.0148 C   0  0  0  0  0  0  0  0  0  0  0  0
   57.3509   24.1040   46.7324 C   0  0  0  0  0  0  0  0  0  0  0  0
   57.1400   23.2838   45.4848 C   0  0  0  0  0  0  0  0  0  0  0  0
   57.0277   23.9085   44.2312 C   0  0  0  0  0  0  0  0  0  0  0  0
   56.8041   23.1466   43.0803 C   0  0  0  0  0  0  0  0  0  0  0  0
   56.6879   21.7568   43.1716 C   0  0  0  0  0  0  0  0  0  0  0  0
   56.7956   21.1269   44.4145 C   0  0  0  0  0  0  0  0  0  0  0  0
   57.0188   21.8861   45.5692 C   0  0  0  0  0  0  0  0  0  0  0  0
 23 24  1  0
 24 22  1  0
 22 19  1  0
 19 20  2  0
 19 21  2  0
 19 17  1  0
 17 11  1  0
 11 12  2  0
 12 13  1  0
 13 14  2  0
 14 15  1  0
 15 16  2  0
 16 10  1  0
 10  1  1  0
  1  2  2  0
  2  3  1  0
  2  4  1  0
  4  5  1  0
  5  6  2  0
  5  7  1  0
  7 25  1  0
 25 26  1  0
 26 27  2  0
 27 28  1  0
 28 29  2  0
 29 30  1  0
 30 31  2  0
  7  8  1  0
  8  9  2  0
 16 11  1  0
  8  1  1  0
 31 26  1  0
 17 18  1  0
M  CHG 1   3  -1
M  CHG 1   4  -1
M  END
> <UniqueID>
63

> <SMILES>
CCCS(=O)(=O)Nc1ccccc1Cc1c([O-])[n-]c(=O)n(Cc2ccccc2)c1=O

> <Energy>
57.56683970962635

> <Genealogy>
CCCS(=O)(=O)Nc1ccccc1Cc1c([O-])[n-]c(=O)n(Cc2ccccc2)c1=O (protonated)
CCCS(=O)(=O)Nc1ccccc1Cc1c([O-])[n-]c(=O)n(Cc2ccccc2)c1=O (3D coordinates assigned)
CCCS(=O)(=O)Nc1ccccc1Cc1c([O-])[n-]c(=O)n(Cc2ccccc2)c1=O (optimized conformer: 57.56683970962635 kcal/mol)

> <smiles>
CCCS(=O)(=O)Nc1ccccc1Cc1c(O)[nH]c(=O)n(Cc2ccccc2)c1=O

> <score_type>
oracle

> <origin>
adg

> <m_score__min__energy>
-14.18

> <m_primary>
energy

> <minimizedAffinity>
-6.88682

> <minimizedRMSD>
1.41938

> <CNNscore>
0.4403883815

> <CNNaffinity>
6.6421589851

> <CNN_VS>
2.9251296520

> <CNNaffinity_variance>
0.0660337433

$$$$
17:0


 23 24  0  0  0  0  0  0  0  0999 V2000
   58.5190   30.4196   45.4322 C   0  0  0  0  0  0  0  0  0  0  0  0
   59.7972   29.9881   45.8075 C   0  0  0  0  0  0  0  0  0  0  0  0
   60.0339   28.6428   46.0885 C   0  0  0  0  0  0  0  0  0  0  0  0
   58.9956   27.7137   45.9950 C   0  0  0  0  0  0  0  0  0  0  0  0
   57.7060   28.1265   45.6185 C   0  0  0  0  0  0  0  0  0  0  0  0
   57.4745   29.4813   45.3261 C   0  0  0  0  0  0  0  0  0  0  0  0
   56.2010   29.8855   44.9374 O   0  0  0  0  0  0  0  0  0  0  0  0
   58.2537   32.1354   45.0989 S   0  0  0  0  0  0  0  0  0  0  0  0
   57.0467   32.6545   45.8309 O   0  0  0  0  0  0  0  0  0  0  0  0
   58.0416   32.3117   43.6211 O   0  0  0  0  0  0  0  0  0  0  0  0
   61.6992   33.3458   50.7743 C   0  0  0  0  0  0  0  0  0  0  0  0
   61.1604   33.3135   49.3755 C   0  0  0  0  0  0  0  0  0  0  0  0
   60.1451   34.1967   48.9941 C   0  0  0  0  0  0  0  0  0  0  0  0
   59.6180   34.1448   47.7011 C   0  0  0  0  0  0  0  0  0  0  0  0
   60.1087   33.1871   46.7914 C   0  0  0  0  0  0  0  0  0  0  0  0
   59.6419   33.0635   45.5807 N   0  0  0  0  0  0  0  0  0  0  0  0
   61.1022   32.3460   47.1884 N   0  0  0  0  0  0  0  0  0  0  0  0
   61.6332   32.3857   48.4383 C   0  0  0  0  0  0  0  0  0  0  0  0
   56.6115   27.2023   45.5176 N   0  0  0  0  0  0  0  0  0  0  0  0
   56.6439   25.5370   45.9998 S   0  0  0  0  0  0  0  0  0  0  0  0
   57.4829   24.5574   44.7723 C   0  0  0  0  0  0  0  0  0  0  0  0
   55.2427   25.0327   46.2062 O   0  0  0  0  0  0  0  0  0  0  0  0
   57.3991   25.4271   47.2935 O   0  0  0  0  0  0  0  0  0  0  0  0
 11 12  1  0
 12 13  1  0
 13 14  2  0
 14 15  1  0
 15 16  2  0
 16  8  1  0
  8  9  2  0
  8 10  2  0
  8  1  1  0
  1  2  2  0
  2  3  1  0
  3  4  2  0
  4  5  1  0
  5 19  1  0
 19 20  1  0
 20 21  1  0
 20 22  2  0
 20 23  2  0
  5  6  2  0
  6  7  1  0
 15 17  1  0
 17 18  1  0
 18 12  2  0
  6  1  1  0
M  CHG 1   7  -1
M  CHG 1  17  -1
M  CHG 1  19  -1
M  END
> <UniqueID>
16

> <SMILES>
Cc1ccc(=NS(=O)(=O)c2cccc([N-]S(C)(=O)=O)c2[O-])[n-]c1

> <Energy>
41.414854980870416

> <Genealogy>
Cc1ccc(=NS(=O)(=O)c2cccc([N-]S(C)(=O)=O)c2[O-])[n-]c1 (protonated)
Cc1ccc(=NS(=O)(=O)c2cccc([N-]S(C)(=O)=O)c2[O-])[n-]c1 (3D coordinates assigned)
Cc1ccc(=NS(=O)(=O)c2cccc([N-]S(C)(=O)=O)c2[O-])[n-]c1 (optimized conformer: 41.414854980870416 kcal/mol)

> <smiles>
Cc1ccc(=NS(=O)(=O)c2cccc(NS(C)(=O)=O)c2O)[nH]c1

> <score_type>
oracle

> <origin>
adg

> <m_score__min__energy>
-15.82

> <m_primary>
energy

> <minimizedAffinity>
-7.46950

> <minimizedRMSD>
1.66783

> <CNNscore>
0.8497425914

> <CNNaffinity>
7.0365695953

> <CNN_VS>
5.9792728424

> <CNNaffinity_variance>
0.7667225003

$$$$
47:0


 29 31  0  0  0  0  0  0  0  0999 V2000
   58.3511   30.7931   45.4634 C   0  0  0  0  0  0  0  0  0  0  0  0
   57.7889   31.2207   44.2554 C   0  0  0  0  0  0  0  0  0  0  0  0
   57.8870   32.5595   43.8653 C   0  0  0  0  0  0  0  0  0  0  0  0
   58.5614   33.4771   44.6729 C   0  0  0  0  0  0  0  0  0  0  0  0
   59.1598   33.0565   45.8669 C   0  0  0  0  0  0  0  0  0  0  0  0
   59.0571   31.7142   46.2601 C   0  0  0  0  0  0  0  0  0  0  0  0
   60.0100   34.2204   46.8796 S   0  0  0  0  0  0  0  0  0  0  0  0
   61.4786   33.8980   46.9175 O   0  0  0  0  0  0  0  0  0  0  0  0
   59.8411   35.5959   46.2963 O   0  0  0  0  0  0  0  0  0  0  0  0
   59.3538   34.1992   48.4887 N   0  0  0  0  0  0  0  0  0  0  0  0
   58.5527   33.5685   48.5194 H   0  0  0  0  0  0  0  0  0  0  0  0
   60.3734   33.7370   49.4340 C   0  0  0  0  0  0  0  0  0  0  0  0
   60.2048   32.2636   49.6764 C   0  0  0  0  0  0  0  0  0  0  0  0
   58.9762   31.7526   50.1271 C   0  0  0  0  0  0  0  0  0  0  0  0
   58.8135   30.3774   50.3190 C   0  0  0  0  0  0  0  0  0  0  0  0
   59.8711   29.5028   50.0521 C   0  0  0  0  0  0  0  0  0  0  0  0
   61.0910   30.0019   49.5884 C   0  0  0  0  0  0  0  0  0  0  0  0
   61.2577   31.3767   49.3961 C   0  0  0  0  0  0  0  0  0  0  0  0
   58.2354   29.4086   45.8240 N   0  0  0  0  0  0  0  0  0  0  0  0
   56.0778   29.0032   45.0118 O   0  0  0  0  0  0  0  0  0  0  0  0
   57.1300   28.5421   45.5312 C   0  0  0  0  0  0  0  0  0  0  0  0
   57.2560   27.0976   45.7944 C   0  0  0  0  0  0  0  0  0  0  0  0
   58.5001   26.4517   45.7371 C   0  0  0  0  0  0  0  0  0  0  0  0
   58.5540   25.0807   45.9947 C   0  0  0  0  0  0  0  0  0  0  0  0
   59.6538   24.4698   45.9497 O   0  0  0  0  0  0  0  0  0  0  0  0
   57.4159   24.4017   46.2950 N   0  0  0  0  0  0  0  0  0  0  0  0
   56.2183   25.0395   46.3476 C   0  0  0  0  0  0  0  0  0  0  0  0
   55.1754   24.3945   46.6272 O   0  0  0  0  0  0  0  0  0  0  0  0
   56.1458   26.3732   46.0991 N   0  0  0  0  0  0  0  0  0  0  0  0
 20 21  2  0
 21 19  1  0
 19  1  1  0
  1  2  2  0
  2  3  1  0
  3  4  2  0
  4  5  1  0
  5  7  1  0
  7  8  2  0
  7  9  2  0
  7 10  1  0
 10 12  1  0
 12 13  1  0
 13 14  2  0
 14 15  1  0
 15 16  2  0
 16 17  1  0
 17 18  2  0
  5  6  2  0
 21 22  1  0
 22 23  2  0
 23 24  1  0
 24 25  2  0
 24 26  1  0
 26 27  1  0
 27 28  2  0
 27 29  1  0
  6  1  1  0
 29 22  1  0
 18 13  1  0
 10 11  1  0
M  CHG 1  19  -1
M  CHG 1  26  -1
M  CHG 1  29  -1
M  END
> <UniqueID>
44

> <SMILES>
O=C([N-]c1cccc(S(=O)(=O)NCc2ccccc2)c1)c1cc(=O)[n-]c(=O)[n-]1

> <Energy>
45.26868254505505

> <Genealogy>
O=C([N-]c1cccc(S(=O)(=O)NCc2ccccc2)c1)c1cc(=O)[n-]c(=O)[n-]1 (protonated)
O=C([N-]c1cccc(S(=O)(=O)NCc2ccccc2)c1)c1cc(=O)[n-]c(=O)[n-]1 (3D coordinates assigned)
O=C([N-]c1cccc(S(=O)(=O)NCc2ccccc2)c1)c1cc(=O)[n-]c(=O)[n-]1 (optimized conformer: 45.26868254505505 kcal/mol)

> <smiles>
O=C(Nc1cccc(S(=O)(=O)NCc2ccccc2)c1)c1cc(=O)[nH]c(=O)[nH]1

> <score_type>
oracle

> <origin>
adg

> <m_score__min__energy>
-15.1

> <m_primary>
energy

> <minimizedAffinity>
-7.16354

> <minimizedRMSD>
0.83383

> <CNNscore>
0.4751684666

> <CNNaffinity>
6.4598488808

> <CNN_VS>
3.0695164204

> <CNNaffinity_variance>
0.1076057777

$$$$
93:0


 31 33  0  0  0  0  0  0  0  0999 V2000
   57.3303   27.2679   45.9879 C   0  0  0  0  0  0  0  0  0  0  0  0
   58.3401   27.8873   46.7355 C   0  0  0  0  0  0  0  0  0  0  0  0
   59.0316   27.1769   47.7252 C   0  0  0  0  0  0  0  0  0  0  0  0
   58.7060   25.8384   47.9714 C   0  0  0  0  0  0  0  0  0  0  0  0
   57.6788   25.2221   47.2525 C   0  0  0  0  0  0  0  0  0  0  0  0
   56.9764   25.9345   46.2747 C   0  0  0  0  0  0  0  0  0  0  0  0
   55.9145   25.3178   45.6235 O   0  0  0  0  0  0  0  0  0  0  0  0
   60.3264   27.9651   48.6245 S   0  0  0  0  0  0  0  0  0  0  0  0
   61.5350   27.0707   48.5954 O   0  0  0  0  0  0  0  0  0  0  0  0
   60.6858   29.2657   47.9625 O   0  0  0  0  0  0  0  0  0  0  0  0
   59.8474   28.2318   50.2887 N   0  0  0  0  0  0  0  0  0  0  0  0
   59.6980   29.6645   50.5972 C   0  0  0  0  0  0  0  0  0  0  0  0
   61.0632   30.3840   50.7147 C   0  0  0  0  0  0  0  0  0  0  0  0
   62.1532   29.5020   50.9256 O   0  0  0  0  0  0  0  0  0  0  0  0
   61.7996   28.4997   51.8507 C   0  0  0  0  0  0  0  0  0  0  0  0
   60.7549   27.5488   51.2354 C   0  0  0  0  0  0  0  0  0  0  0  0
   56.6408   28.0415   44.9948 N   0  0  0  0  0  0  0  0  0  0  0  0
   57.2588   28.7391   43.9080 C   0  0  0  0  0  0  0  0  0  0  0  0
   57.0781   28.3636   42.7172 O   0  0  0  0  0  0  0  0  0  0  0  0
   58.1550   29.9039   44.1931 C   0  0  0  0  0  0  0  0  0  0  0  0
   56.1081   31.0532   44.6369 O   0  0  0  0  0  0  0  0  0  0  0  0
   57.3429   31.1526   44.4072 C   0  0  0  0  0  0  0  0  0  0  0  0
   57.9422   32.4548   44.4038 N   0  0  0  0  0  0  0  0  0  0  0  0
   58.5214   33.1288   45.5290 C   0  0  0  0  0  0  0  0  0  0  0  0
   59.1983   34.3371   45.3199 C   0  0  0  0  0  0  0  0  0  0  0  0
   59.8004   35.0032   46.3916 C   0  0  0  0  0  0  0  0  0  0  0  0
   59.7471   34.4564   47.6753 C   0  0  0  0  0  0  0  0  0  0  0  0
   59.0996   33.2359   47.8925 C   0  0  0  0  0  0  0  0  0  0  0  0
   59.0691   32.6930   49.1755 O   0  0  0  0  0  0  0  0  0  0  0  0
   58.4946   32.5677   46.8188 C   0  0  0  0  0  0  0  0  0  0  0  0
   59.4765   33.1476   49.8864 H   0  0  0  0  0  0  0  0  0  0  0  0
 21 22  2  0
 22 20  1  0
 20 18  1  0
 18 19  2  0
 18 17  1  0
 17  1  1  0
  1  2  2  0
  2  3  1  0
  3  8  1  0
  8  9  2  0
  8 10  2  0
  8 11  1  0
 11 12  1  0
 12 13  1  0
 13 14  1  0
 14 15  1  0
 15 16  1  0
  3  4  2  0
  4  5  1  0
  5  6  2  0
  6  7  1  0
 22 23  1  0
 23 24  1  0
 24 25  2  0
 25 26  1  0
 26 27  2  0
 27 28  1  0
 28 29  1  0
 28 30  2  0
  6  1  1  0
 30 24  1  0
 16 11  1  0
 29 31  1  0
M  CHG 1   7  -1
M  CHG 1  17  -1
M  CHG 1  23  -1
M  END
> <UniqueID>
87

> <SMILES>
O=C(CC(=O)[N-]c1cc(S(=O)(=O)N2CCOCC2)ccc1[O-])[N-]c1cccc(O)c1

> <Energy>
68.4623900148749

> <Genealogy>
O=C(CC(=O)[N-]c1cc(S(=O)(=O)N2CCOCC2)ccc1[O-])[N-]c1cccc(O)c1 (protonated)
O=C(CC(=O)[N-]c1cc(S(=O)(=O)N2CCOCC2)ccc1[O-])[N-]c1cccc(O)c1 (3D coordinates assigned)
O=C(CC(=O)[N-]c1cc(S(=O)(=O)N2CCOCC2)ccc1[O-])[N-]c1cccc(O)c1 (nonaromatic ring conformer: 68.4623900148749 kcal/mol)

> <smiles>
O=C(CC(=O)Nc1cc(S(=O)(=O)N2CCOCC2)ccc1O)Nc1cccc(O)c1

> <score_type>
oracle

> <origin>
adg

> <m_score__min__energy>
-14.73

> <m_primary>
energy

> <minimizedAffinity>
-3.26040

> <minimizedRMSD>
1.51526

> <CNNscore>
0.3911129832

> <CNNaffinity>
6.2521572113

> <CNN_VS>
2.4452998638

> <CNNaffinity_variance>
0.0169937219

$$$$
12:0


 26 28  0  0  0  0  0  0  0  0999 V2000
   58.0624   25.6666   45.8014 C   0  0  0  0  0  0  0  0  0  0  0  0
   58.2177   26.7006   44.8634 C   0  0  0  0  0  0  0  0  0  0  0  0
   58.6508   27.9654   45.2744 C   0  0  0  0  0  0  0  0  0  0  0  0
   58.9211   28.2130   46.6268 C   0  0  0  0  0  0  0  0  0  0  0  0
   58.7596   27.1858   47.5646 C   0  0  0  0  0  0  0  0  0  0  0  0
   58.3264   25.9211   47.1567 C   0  0  0  0  0  0  0  0  0  0  0  0
   56.1978   24.0227   45.2529 C   0  0  0  0  0  0  0  0  0  0  0  0
   55.8246   22.7661   44.7386 C   0  0  0  0  0  0  0  0  0  0  0  0
   56.7916   21.8268   44.3749 C   0  0  0  0  0  0  0  0  0  0  0  0
   56.4040   20.5893   43.8751 O   0  0  0  0  0  0  0  0  0  0  0  0
   58.1457   22.1264   44.5158 C   0  0  0  0  0  0  0  0  0  0  0  0
   58.5390   23.3705   45.0086 C   0  0  0  0  0  0  0  0  0  0  0  0
   57.5812   24.3346   45.3696 C   0  0  0  0  0  0  0  0  0  0  0  0
   55.4440   26.3041   46.0291 N   0  0  0  0  0  0  0  0  0  0  0  0
   55.1287   24.9518   45.7004 C   0  0  0  0  0  0  0  0  0  0  0  0
   53.9298   24.5686   45.7635 O   0  0  0  0  0  0  0  0  0  0  0  0
   54.7331   26.9174   46.3253 H   0  0  0  0  0  0  0  0  0  0  0  0
   59.4523   29.8065   47.1541 S   0  0  0  0  0  0  0  0  0  0  0  0
   60.7334   30.1931   46.4677 O   0  0  0  0  0  0  0  0  0  0  0  0
   59.6827   29.7768   48.6377 O   0  0  0  0  0  0  0  0  0  0  0  0
   58.2366   30.9900   46.7908 N   0  0  0  0  0  0  0  0  0  0  0  0
   58.4883   32.2018   46.3971 C   0  0  0  0  0  0  0  0  0  0  0  0
   58.8629   33.1733   47.2541 N   0  0  0  0  0  0  0  0  0  0  0  0
   59.0666   34.3548   46.6126 C   0  0  0  0  0  0  0  0  0  0  0  0
   58.8551   34.3290   45.2385 C   0  0  0  0  0  0  0  0  0  0  0  0
   58.3957   32.7672   44.8103 S   0  0  0  0  0  0  0  0  0  0  0  0
 14 15  1  0
 15 16  2  0
 15  7  1  0
  7  8  2  0
  8  9  1  0
  9 10  1  0
  9 11  2  0
 11 12  1  0
 12 13  2  0
 13  1  1  0
  1  2  2  0
  2  3  1  0
  3  4  2  0
  4 18  1  0
 18 19  2  0
 18 20  2  0
 18 21  1  0
 21 22  2  0
 22 23  1  0
 23 24  1  0
 24 25  2  0
 25 26  1  0
  4  5  1  0
  5  6  2  0
 13  7  1  0
  6  1  1  0
 26 22  1  0
 14 17  1  0
M  CHG 1  10  -1
M  CHG 1  14  -1
M  CHG 1  23  -1
M  END
> <UniqueID>
12

> <SMILES>
[NH-]C(=O)c1cc([O-])ccc1-c1ccc(S(=O)(=O)/N=c2/[n-]ccs2)cc1

> <Energy>
81.77715481226993

> <Genealogy>
[NH-]C(=O)c1cc([O-])ccc1-c1ccc(S(=O)(=O)N=c2[n-]ccs2)cc1 (protonated)
[NH-]C(=O)c1cc([O-])ccc1-c1ccc(S(=O)(=O)/N=c2/[n-]ccs2)cc1 (cis-trans isomerization)
[NH-]C(=O)c1cc([O-])ccc1-c1ccc(S(=O)(=O)/N=c2/[n-]ccs2)cc1 (3D coordinates assigned)
[NH-]C(=O)c1cc([O-])ccc1-c1ccc(S(=O)(=O)/N=c2/[n-]ccs2)cc1 (optimized conformer: 81.77715481226993 kcal/mol)

> <smiles>
NC(=O)c1cc(O)ccc1-c1ccc(S(=O)(=O)N=c2[nH]ccs2)cc1

> <score_type>
oracle

> <origin>
adg

> <m_score__min__energy>
-14.48

> <m_primary>
energy

> <minimizedAffinity>
-8.31597

> <minimizedRMSD>
0.47700

> <CNNscore>
0.6667610407

> <CNNaffinity>
6.6249413490

> <CNN_VS>
4.4172530174

> <CNNaffinity_variance>
0.0437048189

$$$$
17:0


 29 31  0  0  0  0  0  0  0  0999 V2000
   58.3032   29.3598   44.9300 C   0  0  0  0  0  0  0  0  0  0  0  0
   59.6193   29.8151   45.0938 C   0  0  0  0  0  0  0  0  0  0  0  0
   60.6241   28.9268   45.4865 C   0  0  0  0  0  0  0  0  0  0  0  0
   60.3219   27.5842   45.7233 C   0  0  0  0  0  0  0  0  0  0  0  0
   59.0028   27.1214   45.5793 C   0  0  0  0  0  0  0  0  0  0  0  0
   58.0041   28.0089   45.1608 C   0  0  0  0  0  0  0  0  0  0  0  0
   57.0250   30.4604   44.4330 S   0  0  0  0  0  0  0  0  0  0  0  0
   55.6941   29.7932   44.6402 O   0  0  0  0  0  0  0  0  0  0  0  0
   57.1935   30.8219   42.9831 O   0  0  0  0  0  0  0  0  0  0  0  0
   57.1251   31.9003   45.3938 N   0  0  0  0  0  0  0  0  0  0  0  0
   60.6285   33.3457   47.3214 C   0  0  0  0  0  0  0  0  0  0  0  0
   59.8990   32.2992   47.8965 C   0  0  0  0  0  0  0  0  0  0  0  0
   58.7452   31.8108   47.2770 C   0  0  0  0  0  0  0  0  0  0  0  0
   58.3044   32.3670   46.0645 C   0  0  0  0  0  0  0  0  0  0  0  0
   59.0320   33.4148   45.4874 C   0  0  0  0  0  0  0  0  0  0  0  0
   60.1859   33.9052   46.1071 C   0  0  0  0  0  0  0  0  0  0  0  0
   63.1083   33.4150   47.6376 C   0  0  0  0  0  0  0  0  0  0  0  0
   61.7805   33.7993   47.9819 O   0  0  0  0  0  0  0  0  0  0  0  0
   58.6632   25.7435   45.7909 N   0  0  0  0  0  0  0  0  0  0  0  0
   57.4336   25.2544   46.3428 C   0  0  0  0  0  0  0  0  0  0  0  0
   57.2295   25.3958   47.5791 O   0  0  0  0  0  0  0  0  0  0  0  0
   56.4489   24.5233   45.5164 C   0  0  0  0  0  0  0  0  0  0  0  0
   56.8549   23.7732   44.4017 C   0  0  0  0  0  0  0  0  0  0  0  0
   55.8813   23.1216   43.6415 C   0  0  0  0  0  0  0  0  0  0  0  0
   56.2134   22.4399   42.6365 O   0  0  0  0  0  0  0  0  0  0  0  0
   54.5719   23.2236   43.9868 N   0  0  0  0  0  0  0  0  0  0  0  0
   54.1912   23.9577   45.0633 C   0  0  0  0  0  0  0  0  0  0  0  0
   52.9724   24.0426   45.3673 O   0  0  0  0  0  0  0  0  0  0  0  0
   55.1221   24.6000   45.8127 N   0  0  0  0  0  0  0  0  0  0  0  0
 17 18  1  0
 18 11  1  0
 11 12  2  0
 12 13  1  0
 13 14  2  0
 14 10  1  0
 10  7  1  0
  7  8  2  0
  7  9  2  0
  7  1  1  0
  1  2  2  0
  2  3  1  0
  3  4  2  0
  4  5  1  0
  5 19  1  0
 19 20  1  0
 20 21  2  0
 20 22  1  0
 22 23  2  0
 23 24  1  0
 24 25  2  0
 24 26  1  0
 26 27  1  0
 27 28  2  0
 27 29  1  0
  5  6  2  0
 14 15  1  0
 15 16  2  0
 16 11  1  0
  6  1  1  0
 29 22  1  0
M  CHG 1  10  -1
M  CHG 1  19  -1
M  CHG 1  26  -1
M  CHG 1  29  -1
M  END
> <UniqueID>
17

> <SMILES>
COc1ccc([N-]S(=O)(=O)c2cccc([N-]C(=O)c3cc(=O)[n-]c(=O)[n-]3)c2)cc1

> <Energy>
54.21201120819741

> <Genealogy>
COc1ccc([N-]S(=O)(=O)c2cccc([N-]C(=O)c3cc(=O)[n-]c(=O)[n-]3)c2)cc1 (protonated)
COc1ccc([N-]S(=O)(=O)c2cccc([N-]C(=O)c3cc(=O)[n-]c(=O)[n-]3)c2)cc1 (3D coordinates assigned)
COc1ccc([N-]S(=O)(=O)c2cccc([N-]C(=O)c3cc(=O)[n-]c(=O)[n-]3)c2)cc1 (optimized conformer: 54.21201120819741 kcal/mol)

> <smiles>
COc1ccc(NS(=O)(=O)c2cccc(NC(=O)c3cc(=O)[nH]c(=O)[nH]3)c2)cc1

> <score_type>
oracle

> <origin>
adg

> <m_score__min__energy>
-15.15

> <m_primary>
energy

> <minimizedAffinity>
-8.52022

> <minimizedRMSD>
0.73864

> <CNNscore>
0.4809814990

> <CNNaffinity>
6.9814891815

> <CNN_VS>
3.3579671383

> <CNNaffinity_variance>
0.1456724554

$$$$
19:0


 26 28  0  0  0  0  0  0  0  0999 V2000
   52.9933   22.7366   45.7552 C   0  0  0  0  0  0  0  0  0  0  0  0
   51.9980   23.2294   46.3506 O   0  0  0  0  0  0  0  0  0  0  0  0
   53.4768   21.4502   46.1666 N   0  0  0  0  0  0  0  0  0  0  0  0
   56.5204   20.6097   49.0020 C   0  0  0  0  0  0  0  0  0  0  0  0
   56.1666   19.6648   48.0307 C   0  0  0  0  0  0  0  0  0  0  0  0
   55.1652   19.9546   47.0988 C   0  0  0  0  0  0  0  0  0  0  0  0
   54.5187   21.1968   47.1177 C   0  0  0  0  0  0  0  0  0  0  0  0
   54.8504   22.1300   48.1148 C   0  0  0  0  0  0  0  0  0  0  0  0
   55.8506   21.8396   49.0479 C   0  0  0  0  0  0  0  0  0  0  0  0
   57.1205   19.1934   51.4003 N   0  0  0  0  0  0  0  0  0  0  0  0
   57.7702   20.2361   50.1851 S   0  0  0  0  0  0  0  0  0  0  0  0
   58.2622   21.5042   50.8250 O   0  0  0  0  0  0  0  0  0  0  0  0
   58.9275   19.5578   49.5067 O   0  0  0  0  0  0  0  0  0  0  0  0
   57.8446   18.9772   52.0854 H   0  0  0  0  0  0  0  0  0  0  0  0
   53.6113   23.4897   44.6091 C   0  0  0  0  0  0  0  0  0  0  0  0
   55.0317   23.7292   44.8668 N   0  0  0  0  0  0  0  0  0  0  0  0
   56.0636   22.9179   44.5511 C   0  0  0  0  0  0  0  0  0  0  0  0
   55.9356   21.7149   43.8685 O   0  0  0  0  0  0  0  0  0  0  0  0
   57.2510   23.4491   45.0153 C   0  0  0  0  0  0  0  0  0  0  0  0
   56.9324   24.6232   45.6507 C   0  0  0  0  0  0  0  0  0  0  0  0
   55.5619   24.7665   45.5519 C   0  0  0  0  0  0  0  0  0  0  0  0
   54.8206   25.8124   46.0874 O   0  0  0  0  0  0  0  0  0  0  0  0
   57.9272   25.5030   46.3373 C   0  0  0  0  0  0  0  0  0  0  0  0
   59.3417   24.9855   46.1711 C   0  0  0  0  0  0  0  0  0  0  0  0
   59.6562   23.8290   45.5451 C   0  0  0  0  0  0  0  0  0  0  0  0
   58.6363   22.8950   44.9244 C   0  0  0  0  0  0  0  0  0  0  0  0
 10 11  1  0
 11 12  2  0
 11 13  2  0
 11  4  1  0
  4  5  2  0
  5  6  1  0
  6  7  2  0
  7  3  1  0
  3  1  1  0
  1  2  2  0
  1 15  1  0
 15 16  1  0
 16 17  1  0
 17 18  1  0
 17 19  2  0
 19 20  1  0
 20 21  2  0
 21 22  1  0
 20 23  1  0
 23 24  1  0
 24 25  2  0
 25 26  1  0
  7  8  1  0
  8  9  2  0
  9  4  1  0
 21 16  1  0
 26 19  1  0
 10 14  1  0
M  CHG 1   3  -1
M  CHG 1  10  -1
M  CHG 1  18  -1
M  CHG 1  22  -1
M  END
> <UniqueID>
19

> <SMILES>
[NH-]S(=O)(=O)c1ccc([N-]C(=O)Cn2c([O-])c3c(c2[O-])CC=CC3)cc1

> <Energy>
75.87035409662458

> <Genealogy>
[NH-]S(=O)(=O)c1ccc([N-]C(=O)Cn2c([O-])c3c(c2[O-])CC=CC3)cc1 (protonated)
[NH-]S(=O)(=O)c1ccc([N-]C(=O)Cn2c([O-])c3c(c2[O-])CC=CC3)cc1 (3D coordinates assigned)
[NH-]S(=O)(=O)c1ccc([N-]C(=O)Cn2c([O-])c3c(c2[O-])CC=CC3)cc1 (nonaromatic ring conformer: 75.87035409662458 kcal/mol)

> <smiles>
NS(=O)(=O)c1ccc(NC(=O)Cn2c(O)c3c(c2O)CC=CC3)cc1

> <score_type>
oracle

> <origin>
adg

> <m_score__min__energy>
-14.050000000000001

> <m_primary>
energy

> <minimizedAffinity>
-4.06395

> <minimizedRMSD>
1.00316

> <CNNscore>
0.0835978687

> <CNNaffinity>
4.2584528923

> <CNN_VS>
0.3559975922

> <CNNaffinity_variance>
0.2607377172

$$$$
31:0


 27 28  0  0  0  0  0  0  0  0999 V2000
   60.8236   30.2455   48.5448 C   0  0  0  0  0  0  0  0  0  0  0  0
   60.8056   30.4972   50.2071 S   0  0  0  0  0  0  0  0  0  0  0  0
   60.3517   28.9371   50.6390 C   0  0  0  0  0  0  0  0  0  0  0  0
   60.2099   28.1897   49.4772 C   0  0  0  0  0  0  0  0  0  0  0  0
   60.5022   28.9103   48.3077 C   0  0  0  0  0  0  0  0  0  0  0  0
   61.1475   31.2723   47.5438 C   0  0  0  0  0  0  0  0  0  0  0  0
   62.3460   31.6067   47.3433 O   0  0  0  0  0  0  0  0  0  0  0  0
   60.0925   31.9030   46.8092 N   0  0  0  0  0  0  0  0  0  0  0  0
   58.7406   31.3632   46.7156 C   0  0  0  0  0  0  0  0  0  0  0  0
   58.5933   30.5059   45.4590 C   0  0  0  0  0  0  0  0  0  0  0  0
   55.8976   29.7951   44.7507 N   0  0  0  0  0  0  0  0  0  0  0  0
   57.1405   30.9780   44.5362 S   0  0  0  0  0  0  0  0  0  0  0  0
   56.6496   32.3090   45.0305 O   0  0  0  0  0  0  0  0  0  0  0  0
   57.4781   31.0860   43.0764 O   0  0  0  0  0  0  0  0  0  0  0  0
   55.0707   30.0709   44.2210 H   0  0  0  0  0  0  0  0  0  0  0  0
   60.4076   28.3578   46.9887 N   0  0  0  0  0  0  0  0  0  0  0  0
   59.8004   27.1101   46.6297 C   0  0  0  0  0  0  0  0  0  0  0  0
   60.5273   26.0863   46.5503 O   0  0  0  0  0  0  0  0  0  0  0  0
   58.3073   26.9528   46.4869 C   0  0  0  0  0  0  0  0  0  0  0  0
   57.8103   25.6411   47.1096 C   0  0  0  0  0  0  0  0  0  0  0  0
   57.3266   24.6576   46.0690 C   0  0  0  0  0  0  0  0  0  0  0  0
   58.2108   23.6963   45.5481 C   0  0  0  0  0  0  0  0  0  0  0  0
   57.7755   22.7845   44.5823 C   0  0  0  0  0  0  0  0  0  0  0  0
   56.4509   22.8120   44.1409 C   0  0  0  0  0  0  0  0  0  0  0  0
   55.5608   23.7547   44.6589 C   0  0  0  0  0  0  0  0  0  0  0  0
   55.9914   24.6792   45.6163 C   0  0  0  0  0  0  0  0  0  0  0  0
   55.0898   25.6149   46.1103 O   0  0  0  0  0  0  0  0  0  0  0  0
 11 12  1  0
 12 13  2  0
 12 14  2  0
 12 10  1  0
 10  9  1  0
  9  8  1  0
  8  6  1  0
  6  7  2  0
  6  1  1  0
  1  2  1  0
  2  3  1  0
  3  4  2  0
  4  5  1  0
  5 16  1  0
 16 17  1  0
 17 18  2  0
 17 19  1  0
 19 20  1  0
 20 21  1  0
 21 22  2  0
 22 23  1  0
 23 24  2  0
 24 25  1  0
 25 26  2  0
 26 27  1  0
  5  1  2  0
 26 21  1  0
 11 15  1  0
M  CHG 1   8  -1
M  CHG 1  11  -1
M  CHG 1  16  -1
M  CHG 1  27  -1
M  END
> <UniqueID>
30

> <SMILES>
[NH-]S(=O)(=O)CC[N-]C(=O)c1sccc1[N-]C(=O)CCc1ccccc1[O-]

> <Energy>
56.02143683100238

> <Genealogy>
[NH-]S(=O)(=O)CC[N-]C(=O)c1sccc1[N-]C(=O)CCc1ccccc1[O-] (protonated)
[NH-]S(=O)(=O)CC[N-]C(=O)c1sccc1[N-]C(=O)CCc1ccccc1[O-] (3D coordinates assigned)
[NH-]S(=O)(=O)CC[N-]C(=O)c1sccc1[N-]C(=O)CCc1ccccc1[O-] (optimized conformer: 56.02143683100238 kcal/mol)

> <smiles>
NS(=O)(=O)CCNC(=O)c1sccc1NC(=O)CCc1ccccc1O

> <score_type>
oracle

> <origin>
adg

> <m_score__min__energy>
-17.41

> <m_primary>
energy

> <minimizedAffinity>
-6.45561

> <minimizedRMSD>
1.02365

> <CNNscore>
0.3050957024

> <CNNaffinity>
5.9342517853

> <CNN_VS>
1.8105146885

> <CNNaffinity_variance>
0.3792211115

$$$$
94:0


 32 35  0  0  0  0  0  0  0  0999 V2000
   59.7649   32.8329   46.7618 C   0  0  0  0  0  0  0  0  0  0  0  0
   59.6004   34.0604   46.0953 C   0  0  0  0  0  0  0  0  0  0  0  0
   58.7713   34.1517   44.9736 C   0  0  0  0  0  0  0  0  0  0  0  0
   58.0959   33.0229   44.5053 C   0  0  0  0  0  0  0  0  0  0  0  0
   58.2328   31.7923   45.1673 C   0  0  0  0  0  0  0  0  0  0  0  0
   59.0790   31.6993   46.2844 C   0  0  0  0  0  0  0  0  0  0  0  0
   61.4074   29.8969   51.8342 N   0  0  0  0  0  0  0  0  0  0  0  0
   62.2145   30.3514   50.8689 N   0  0  0  0  0  0  0  0  0  0  0  0
   61.8357   31.3427   50.0209 C   0  0  0  0  0  0  0  0  0  0  0  0
   60.5799   31.9308   50.1692 C   0  0  0  0  0  0  0  0  0  0  0  0
   59.7279   31.4654   51.1677 C   0  0  0  0  0  0  0  0  0  0  0  0
   60.1539   30.4276   51.9997 C   0  0  0  0  0  0  0  0  0  0  0  0
   59.3795   29.9926   52.8948 O   0  0  0  0  0  0  0  0  0  0  0  0
   60.2055   33.0516   49.2454 C   0  0  0  0  0  0  0  0  0  0  0  0
   60.6659   32.7280   47.8842 N   0  0  0  0  0  0  0  0  0  0  0  0
   62.0243   32.1840   47.6622 C   0  0  0  0  0  0  0  0  0  0  0  0
   62.7733   31.8719   48.9757 C   0  0  0  0  0  0  0  0  0  0  0  0
   61.6885   27.4611   51.9639 C   0  0  0  0  0  0  0  0  0  0  0  0
   61.8868   28.7954   52.6762 C   0  0  0  0  0  0  0  0  0  0  0  0
   57.4981   30.6044   44.6804 C   0  0  0  0  0  0  0  0  0  0  0  0
   57.1324   30.5563   43.4760 O   0  0  0  0  0  0  0  0  0  0  0  0
   57.2243   29.4802   45.5294 N   0  0  0  0  0  0  0  0  0  0  0  0
   58.0844   28.3519   45.7595 C   0  0  0  0  0  0  0  0  0  0  0  0
   59.3568   28.4941   46.3473 C   0  0  0  0  0  0  0  0  0  0  0  0
   60.1408   27.3700   46.6068 C   0  0  0  0  0  0  0  0  0  0  0  0
   59.6571   26.0928   46.3169 C   0  0  0  0  0  0  0  0  0  0  0  0
   58.3840   25.9313   45.7488 C   0  0  0  0  0  0  0  0  0  0  0  0
   57.6008   27.0660   45.4764 C   0  0  0  0  0  0  0  0  0  0  0  0
   57.8624   24.5724   45.5019 C   0  0  0  0  0  0  0  0  0  0  0  0
   58.5993   23.5825   45.7565 O   0  0  0  0  0  0  0  0  0  0  0  0
   56.5728   24.3417   44.9214 N   0  0  0  0  0  0  0  0  0  0  0  0
   56.3482   23.5992   43.6884 C   0  0  0  0  0  0  0  0  0  0  0  0
 18 19  1  0
 19  7  1  0
  7  8  1  0
  8  9  2  0
  9 10  1  0
 10 11  2  0
 11 12  1  0
 12 13  2  0
 10 14  1  0
 14 15  1  0
 15  1  1  0
  1  2  2  0
  2  3  1  0
  3  4  2  0
  4  5  1  0
  5 20  1  0
 20 21  2  0
 20 22  1  0
 22 23  1  0
 23 24  2  0
 24 25  1  0
 25 26  2  0
 26 27  1  0
 27 29  1  0
 29 30  2  0
 29 31  1  0
 31 32  1  0
 27 28  2  0
  5  6  2  0
 15 16  1  0
 16 17  1  0
 12  7  1  0
  6  1  1  0
 17  9  1  0
 28 23  1  0
M  CHG 1  22  -1
M  CHG 1  31  -1
M  END
> <UniqueID>
86

> <SMILES>
CCn1nc2c(cc1=O)CN(c1cccc(C(=O)[N-]c3cccc(C(=O)[N-]C)c3)c1)CC2

> <Energy>
74.16178162358834

> <Genealogy>
CCn1nc2c(cc1=O)CN(c1cccc(C(=O)[N-]c3cccc(C(=O)[N-]C)c3)c1)CC2 (protonated)
CCn1nc2c(cc1=O)CN(c1cccc(C(=O)[N-]c3cccc(C(=O)[N-]C)c3)c1)CC2 (3D coordinates assigned)
CCn1nc2c(cc1=O)CN(c1cccc(C(=O)[N-]c3cccc(C(=O)[N-]C)c3)c1)CC2 (nonaromatic ring conformer: 74.16178162358834 kcal/mol)

> <smiles>
CCn1nc2c(cc1=O)CN(c1cccc(C(=O)Nc3cccc(C(=O)NC)c3)c1)CC2

> <score_type>
oracle

> <origin>
adg

> <m_score__min__energy>
-14.460000000000001

> <m_primary>
energy

> <minimizedAffinity>
-8.93501

> <minimizedRMSD>
3.29057

> <CNNscore>
0.7086948752

> <CNNaffinity>
7.1819686890

> <CNN_VS>
5.0898241997

> <CNNaffinity_variance>
0.0835098028

$$$$
24:0


 29 31  0  0  0  0  0  0  0  0999 V2000
   58.3314   29.8780   45.3751 C   0  0  0  0  0  0  0  0  0  0  0  0
   57.1287   30.3416   44.8302 C   0  0  0  0  0  0  0  0  0  0  0  0
   56.2431   29.4665   44.2133 O   0  0  0  0  0  0  0  0  0  0  0  0
   56.8284   31.6598   44.8893 N   0  0  0  0  0  0  0  0  0  0  0  0
   57.6699   32.5567   45.4602 C   0  0  0  0  0  0  0  0  0  0  0  0
   57.3402   33.7741   45.4779 O   0  0  0  0  0  0  0  0  0  0  0  0
   58.8632   32.1440   45.9981 N   0  0  0  0  0  0  0  0  0  0  0  0
   59.2121   30.8172   45.9377 C   0  0  0  0  0  0  0  0  0  0  0  0
   60.3251   30.4279   46.3899 O   0  0  0  0  0  0  0  0  0  0  0  0
   58.3166   27.4894   46.1305 C   0  0  0  0  0  0  0  0  0  0  0  0
   58.7135   28.4514   45.2820 C   0  0  0  0  0  0  0  0  0  0  0  0
   60.0112   25.8285   46.3822 O   0  0  0  0  0  0  0  0  0  0  0  0
   58.8023   26.0849   46.1311 C   0  0  0  0  0  0  0  0  0  0  0  0
   57.8855   24.9632   45.8153 C   0  0  0  0  0  0  0  0  0  0  0  0
   58.3957   23.7048   45.4419 C   0  0  0  0  0  0  0  0  0  0  0  0
   57.5318   22.6443   45.1560 C   0  0  0  0  0  0  0  0  0  0  0  0
   56.1497   22.8219   45.2455 C   0  0  0  0  0  0  0  0  0  0  0  0
   55.2933   21.7660   44.9622 O   0  0  0  0  0  0  0  0  0  0  0  0
   55.6300   24.0627   45.6217 C   0  0  0  0  0  0  0  0  0  0  0  0
   56.4868   25.1305   45.9078 C   0  0  0  0  0  0  0  0  0  0  0  0
   55.9388   26.3593   46.2658 O   0  0  0  0  0  0  0  0  0  0  0  0
   59.7928   33.1287   46.5852 C   0  0  0  0  0  0  0  0  0  0  0  0
   59.8504   32.9651   48.1063 C   0  0  0  0  0  0  0  0  0  0  0  0
   61.2617   32.7076   48.5611 C   0  0  0  0  0  0  0  0  0  0  0  0
   62.3344   33.3883   47.9609 C   0  0  0  0  0  0  0  0  0  0  0  0
   63.6430   33.1733   48.4068 C   0  0  0  0  0  0  0  0  0  0  0  0
   63.8866   32.2875   49.4613 C   0  0  0  0  0  0  0  0  0  0  0  0
   62.8227   31.6188   50.0729 C   0  0  0  0  0  0  0  0  0  0  0  0
   61.5135   31.8309   49.6284 C   0  0  0  0  0  0  0  0  0  0  0  0
 12 13  2  0
 13 10  1  0
 10 11  2  0
 11  1  1  0
  1  2  2  0
  2  3  1  0
  2  4  1  0
  4  5  1  0
  5  6  2  0
  5  7  1  0
  7 22  1  0
 22 23  1  0
 23 24  1  0
 24 25  2  0
 25 26  1  0
 26 27  2  0
 27 28  1  0
 28 29  2  0
  7  8  1  0
  8  9  2  0
 13 14  1  0
 14 15  2  0
 15 16  1  0
 16 17  2  0
 17 18  1  0
 17 19  1  0
 19 20  2  0
 20 21  1  0
  8  1  1  0
 20 14  1  0
 29 24  1  0
M  CHG 1   3  -1
M  CHG 1   4  -1
M  CHG 1  18  -1
M  CHG 1  21  -1
M  END
> <UniqueID>
24

> <SMILES>
O=C(C=Cc1c([O-])[n-]c(=O)n(CCc2ccccc2)c1=O)c1ccc([O-])cc1[O-]

> <Energy>
62.27999096372342

> <Genealogy>
O=C(C=Cc1c([O-])[n-]c(=O)n(CCc2ccccc2)c1=O)c1ccc([O-])cc1[O-] (protonated)
O=C(C=Cc1c([O-])[n-]c(=O)n(CCc2ccccc2)c1=O)c1ccc([O-])cc1[O-] (3D coordinates assigned)
O=C(C=Cc1c([O-])[n-]c(=O)n(CCc2ccccc2)c1=O)c1ccc([O-])cc1[O-] (optimized conformer: 62.27999096372342 kcal/mol)

> <smiles>
O=C(C=Cc1c(O)[nH]c(=O)n(CCc2ccccc2)c1=O)c1ccc(O)cc1O

> <score_type>
oracle

> <origin>
adg

> <m_score__min__energy>
-19.199999999999999

> <m_primary>
energy

> <minimizedAffinity>
-8.62773

> <minimizedRMSD>
1.51753

> <CNNscore>
0.4628967047

> <CNNaffinity>
6.6848664284

> <CNN_VS>
3.0944025517

> <CNNaffinity_variance>
0.1526807547

$$$$
63:0


 28 30  0  0  0  0  0  0  0  0999 V2000
   57.8007   30.9399   44.3259 C   0  0  0  0  0  0  0  0  0  0  0  0
   56.8171   29.7993   44.3165 C   0  0  0  0  0  0  0  0  0  0  0  0
   55.8760   29.8123   43.4809 O   0  0  0  0  0  0  0  0  0  0  0  0
   56.9533   28.6688   45.1871 N   0  0  0  0  0  0  0  0  0  0  0  0
   58.1588   26.7484   46.1872 C   0  0  0  0  0  0  0  0  0  0  0  0
   59.3834   26.1604   46.5607 C   0  0  0  0  0  0  0  0  0  0  0  0
   60.5951   26.7984   46.2910 C   0  0  0  0  0  0  0  0  0  0  0  0
   60.6063   28.0385   45.6561 C   0  0  0  0  0  0  0  0  0  0  0  0
   59.4064   28.6367   45.2743 C   0  0  0  0  0  0  0  0  0  0  0  0
   58.1778   27.9977   45.5148 C   0  0  0  0  0  0  0  0  0  0  0  0
   55.6407   26.4739   45.9791 N   0  0  0  0  0  0  0  0  0  0  0  0
   56.8923   26.0296   46.4984 C   0  0  0  0  0  0  0  0  0  0  0  0
   56.9171   24.9917   47.2146 O   0  0  0  0  0  0  0  0  0  0  0  0
   54.8152   25.9838   46.1973 H   0  0  0  0  0  0  0  0  0  0  0  0
   57.4399   31.9230   45.2956 O   0  0  0  0  0  0  0  0  0  0  0  0
   58.1999   32.1940   46.4376 C   0  0  0  0  0  0  0  0  0  0  0  0
   58.9221   31.2983   46.9558 O   0  0  0  0  0  0  0  0  0  0  0  0
   58.1730   33.5629   47.0388 C   0  0  0  0  0  0  0  0  0  0  0  0
   59.4957   34.5982   46.3246 S   0  0  0  0  0  0  0  0  0  0  0  0
   60.7555   34.0591   47.4784 C   0  0  0  0  0  0  0  0  0  0  0  0
   60.6771   34.2957   48.8125 N   0  0  0  0  0  0  0  0  0  0  0  0
   61.8021   33.7322   49.2707 C   0  0  0  0  0  0  0  0  0  0  0  0
   62.2528   33.6773   50.5876 C   0  0  0  0  0  0  0  0  0  0  0  0
   63.4772   33.0250   50.8311 C   0  0  0  0  0  0  0  0  0  0  0  0
   64.2089   32.4553   49.7634 C   0  0  0  0  0  0  0  0  0  0  0  0
   63.7209   32.5340   48.4455 C   0  0  0  0  0  0  0  0  0  0  0  0
   62.5067   33.1860   48.2433 C   0  0  0  0  0  0  0  0  0  0  0  0
   61.8619   33.3786   47.0837 N   0  0  0  0  0  0  0  0  0  0  0  0
 11 12  1  0
 12 13  2  0
 12  5  1  0
  5  6  2  0
  6  7  1  0
  7  8  2  0
  8  9  1  0
  9 10  2  0
 10  4  1  0
  4  2  1  0
  2  3  2  0
  2  1  1  0
  1 15  1  0
 15 16  1  0
 16 17  2  0
 16 18  1  0
 18 19  1  0
 19 20  1  0
 20 21  2  0
 21 22  1  0
 22 23  2  0
 23 24  1  0
 24 25  2  0
 25 26  1  0
 26 27  2  0
 27 28  1  0
 10  5  1  0
 28 20  1  0
 27 22  1  0
 11 14  1  0
M  CHG 1   4  -1
M  CHG 1  11  -1
M  CHG 1  28  -1
M  END
> <UniqueID>
60

> <SMILES>
[NH-]C(=O)c1ccccc1[N-]C(=O)COC(=O)CSc1nc2ccccc2[n-]1

> <Energy>
74.39746488586735

> <Genealogy>
[NH-]C(=O)c1ccccc1[N-]C(=O)COC(=O)CSc1nc2ccccc2[n-]1 (protonated)
[NH-]C(=O)c1ccccc1[N-]C(=O)COC(=O)CSc1nc2ccccc2[n-]1 (3D coordinates assigned)
[NH-]C(=O)c1ccccc1[N-]C(=O)COC(=O)CSc1nc2ccccc2[n-]1 (optimized conformer: 74.39746488586735 kcal/mol)

> <smiles>
NC(=O)c1ccccc1NC(=O)COC(=O)CSc1nc2ccccc2[nH]1

> <score_type>
oracle

> <origin>
adg

> <m_score__min__energy>
-14.93

> <m_primary>
energy

> <minimizedAffinity>
-7.70948

> <minimizedRMSD>
0.95484

> <CNNscore>
0.8646939397

> <CNNaffinity>
6.8182621002

> <CNN_VS>
5.8957099915

> <CNNaffinity_variance>
0.1404283494

$$$$
90:0


 25 26  0  0  0  0  0  0  0  0999 V2000
   59.3077   29.3031   48.6966 C   0  0  0  0  0  0  0  0  0  0  0  0
   58.9960   29.2113   49.9140 O   0  0  0  0  0  0  0  0  0  0  0  0
   59.3878   28.0736   47.8733 C   0  0  0  0  0  0  0  0  0  0  0  0
   60.6280   27.5870   47.4249 C   0  0  0  0  0  0  0  0  0  0  0  0
   60.6927   26.4383   46.6327 C   0  0  0  0  0  0  0  0  0  0  0  0
   59.5221   25.7554   46.2906 C   0  0  0  0  0  0  0  0  0  0  0  0
   58.2806   26.2140   46.7502 C   0  0  0  0  0  0  0  0  0  0  0  0
   58.2176   27.3708   47.5404 C   0  0  0  0  0  0  0  0  0  0  0  0
   56.8042   25.3664   46.3062 S   0  0  0  0  0  0  0  0  0  0  0  0
   55.5557   26.5147   45.9784 N   0  0  0  0  0  0  0  0  0  0  0  0
   56.3755   24.4659   47.4314 O   0  0  0  0  0  0  0  0  0  0  0  0
   57.0440   24.5261   45.0826 O   0  0  0  0  0  0  0  0  0  0  0  0
   55.3923   27.0853   46.8079 H   0  0  0  0  0  0  0  0  0  0  0  0
   59.6171   30.5978   48.1613 N   0  0  0  0  0  0  0  0  0  0  0  0
   57.8080   30.9912   44.8897 C   0  0  0  0  0  0  0  0  0  0  0  0
   58.0061   32.3576   44.6567 C   0  0  0  0  0  0  0  0  0  0  0  0
   58.7209   33.1297   45.5763 C   0  0  0  0  0  0  0  0  0  0  0  0
   59.2475   32.5394   46.7281 C   0  0  0  0  0  0  0  0  0  0  0  0
   59.0703   31.1721   46.9653 C   0  0  0  0  0  0  0  0  0  0  0  0
   58.3234   30.4041   46.0536 C   0  0  0  0  0  0  0  0  0  0  0  0
   55.3484   29.6291   44.4212 N   0  0  0  0  0  0  0  0  0  0  0  0
   56.8911   30.0177   43.7445 S   0  0  0  0  0  0  0  0  0  0  0  0
   57.6392   28.7488   43.4454 O   0  0  0  0  0  0  0  0  0  0  0  0
   56.6998   30.7790   42.4629 O   0  0  0  0  0  0  0  0  0  0  0  0
   54.8181   29.0651   43.7569 H   0  0  0  0  0  0  0  0  0  0  0  0
 21 22  1  0
 22 23  2  0
 22 24  2  0
 22 15  1  0
 15 16  2  0
 16 17  1  0
 17 18  2  0
 18 19  1  0
 19 14  1  0
 14  1  1  0
  1  2  2  0
  1  3  1  0
  3  4  2  0
  4  5  1  0
  5  6  2  0
  6  7  1  0
  7  9  1  0
  9 10  1  0
  9 11  2  0
  9 12  2  0
  7  8  2  0
 19 20  2  0
 20 15  1  0
  8  3  1  0
 21 25  1  0
 10 13  1  0
M  CHG 1  10  -1
M  CHG 1  14  -1
M  CHG 1  21  -1
M  END
> <UniqueID>
85

> <SMILES>
[NH-]S(=O)(=O)c1cccc([N-]C(=O)c2cccc(S([NH-])(=O)=O)c2)c1

> <Energy>
39.356651368936156

> <Genealogy>
[NH-]S(=O)(=O)c1cccc([N-]C(=O)c2cccc(S([NH-])(=O)=O)c2)c1 (protonated)
[NH-]S(=O)(=O)c1cccc([N-]C(=O)c2cccc(S([NH-])(=O)=O)c2)c1 (3D coordinates assigned)
[NH-]S(=O)(=O)c1cccc([N-]C(=O)c2cccc(S([NH-])(=O)=O)c2)c1 (optimized conformer: 39.356651368936156 kcal/mol)

> <smiles>
NS(=O)(=O)c1cccc(NC(=O)c2cccc(S(N)(=O)=O)c2)c1

> <score_type>
oracle

> <origin>
adg

> <m_score__min__energy>
-14.32

> <m_primary>
energy

> <minimizedAffinity>
-7.50500

> <minimizedRMSD>
0.34879

> <CNNscore>
0.9486221075

> <CNNaffinity>
6.6791992188

> <CNN_VS>
6.3360362053

> <CNNaffinity_variance>
0.0780841932

$$$$
53:0


 29 31  0  0  0  0  0  0  0  0999 V2000
   58.7460   27.9190   45.9160 C   0  0  0  0  0  0  0  0  0  0  0  0
   57.4149   27.4947   45.9916 C   0  0  0  0  0  0  0  0  0  0  0  0
   57.0790   26.3275   46.6689 O   0  0  0  0  0  0  0  0  0  0  0  0
   56.4362   28.2300   45.4151 N   0  0  0  0  0  0  0  0  0  0  0  0
   56.7076   29.3763   44.7453 C   0  0  0  0  0  0  0  0  0  0  0  0
   55.7506   30.0172   44.2291 O   0  0  0  0  0  0  0  0  0  0  0  0
   57.9996   29.8218   44.6265 N   0  0  0  0  0  0  0  0  0  0  0  0
   59.0221   29.0964   45.1905 C   0  0  0  0  0  0  0  0  0  0  0  0
   60.2193   29.4688   45.0353 O   0  0  0  0  0  0  0  0  0  0  0  0
   60.6156   27.5678   47.5041 C   0  0  0  0  0  0  0  0  0  0  0  0
   59.8081   27.0959   46.5438 C   0  0  0  0  0  0  0  0  0  0  0  0
   59.3098   32.0491   50.7649 O   0  0  0  0  0  0  0  0  0  0  0  0
   59.6432   30.9582   49.9639 C   0  0  0  0  0  0  0  0  0  0  0  0
   58.8664   29.7938   49.9991 C   0  0  0  0  0  0  0  0  0  0  0  0
   59.1981   28.7027   49.1940 C   0  0  0  0  0  0  0  0  0  0  0  0
   60.3040   28.7593   48.3328 C   0  0  0  0  0  0  0  0  0  0  0  0
   61.0930   29.9270   48.3137 C   0  0  0  0  0  0  0  0  0  0  0  0
   60.7633   31.0314   49.1243 C   0  0  0  0  0  0  0  0  0  0  0  0
   58.5622   32.0057   51.3280 H   0  0  0  0  0  0  0  0  0  0  0  0
   61.5216   32.2125   49.1270 O   0  0  0  0  0  0  0  0  0  0  0  0
   62.5497   32.5135   48.1888 C   0  0  0  0  0  0  0  0  0  0  0  0
   58.3027   31.0452   43.8540 C   0  0  0  0  0  0  0  0  0  0  0  0
   57.4853   32.2437   44.3571 C   0  0  0  0  0  0  0  0  0  0  0  0
   58.2593   33.0714   45.3491 C   0  0  0  0  0  0  0  0  0  0  0  0
   59.0130   34.1765   44.9171 C   0  0  0  0  0  0  0  0  0  0  0  0
   59.6937   34.9694   45.8457 C   0  0  0  0  0  0  0  0  0  0  0  0
   59.6236   34.6710   47.2090 C   0  0  0  0  0  0  0  0  0  0  0  0
   58.8693   33.5777   47.6466 C   0  0  0  0  0  0  0  0  0  0  0  0
   58.1863   32.7823   46.7227 C   0  0  0  0  0  0  0  0  0  0  0  0
 12 13  1  0
 13 14  2  0
 14 15  1  0
 15 16  2  0
 16 10  1  0
 10 11  2  0
 11  1  1  0
  1  2  2  0
  2  3  1  0
  2  4  1  0
  4  5  1  0
  5  6  2  0
  5  7  1  0
  7 22  1  0
 22 23  1  0
 23 24  1  0
 24 25  2  0
 25 26  1  0
 26 27  2  0
 27 28  1  0
 28 29  2  0
  7  8  1  0
  8  9  2  0
 16 17  1  0
 17 18  2  0
 18 20  1  0
 20 21  1  0
 18 13  1  0
  8  1  1  0
 29 24  1  0
 12 19  1  0
M  CHG 1   3  -1
M  CHG 1   4  -1
M  END
> <UniqueID>
47

> <SMILES>
COc1cc(/C=C/c2c([O-])[n-]c(=O)n(CCc3ccccc3)c2=O)ccc1O

> <Energy>
57.01256596987954

> <Genealogy>
COc1cc(C=Cc2c([O-])[n-]c(=O)n(CCc3ccccc3)c2=O)ccc1O (protonated)
COc1cc(/C=C/c2c([O-])[n-]c(=O)n(CCc3ccccc3)c2=O)ccc1O (cis-trans isomerization)
COc1cc(/C=C/c2c([O-])[n-]c(=O)n(CCc3ccccc3)c2=O)ccc1O (3D coordinates assigned)
COc1cc(/C=C/c2c([O-])[n-]c(=O)n(CCc3ccccc3)c2=O)ccc1O (optimized conformer: 57.01256596987954 kcal/mol)

> <smiles>
COc1cc(C=Cc2c(O)[nH]c(=O)n(CCc3ccccc3)c2=O)ccc1O

> <score_type>
oracle

> <origin>
adg

> <m_score__min__energy>
-14.27

> <m_primary>
energy

> <minimizedAffinity>
-6.70138

> <minimizedRMSD>
0.94060

> <CNNscore>
0.4981049895

> <CNNaffinity>
6.5198187828

> <CNN_VS>
3.2475543022

> <CNNaffinity_variance>
0.1222203299

$$$$
59:0


 30 32  0  0  0  0  0  0  0  0999 V2000
   59.4593   28.5434   46.8332 C   0  0  0  0  0  0  0  0  0  0  0  0
   60.3190   27.9568   47.7832 C   0  0  0  0  0  0  0  0  0  0  0  0
   60.0755   26.6647   48.2560 C   0  0  0  0  0  0  0  0  0  0  0  0
   58.9712   25.9441   47.8029 C   0  0  0  0  0  0  0  0  0  0  0  0
   58.0987   26.5089   46.8610 C   0  0  0  0  0  0  0  0  0  0  0  0
   58.3485   27.8059   46.3721 C   0  0  0  0  0  0  0  0  0  0  0  0
   57.4939   28.3615   45.4237 O   0  0  0  0  0  0  0  0  0  0  0  0
   56.7046   25.5915   46.2898 S   0  0  0  0  0  0  0  0  0  0  0  0
   55.5015   26.4918   46.2014 O   0  0  0  0  0  0  0  0  0  0  0  0
   56.4230   24.4691   47.2486 O   0  0  0  0  0  0  0  0  0  0  0  0
   57.0554   24.9522   44.7165 N   0  0  0  0  0  0  0  0  0  0  0  0
   56.9883   23.6911   44.4179 C   0  0  0  0  0  0  0  0  0  0  0  0
   57.5482   22.7768   45.2530 N   0  0  0  0  0  0  0  0  0  0  0  0
   57.4990   21.4472   44.9735 C   0  0  0  0  0  0  0  0  0  0  0  0
   56.8667   21.0035   43.8115 C   0  0  0  0  0  0  0  0  0  0  0  0
   56.2967   21.9511   42.9651 C   0  0  0  0  0  0  0  0  0  0  0  0
   56.3657   23.2713   43.2808 N   0  0  0  0  0  0  0  0  0  0  0  0
   59.6946   29.8734   46.3254 N   0  0  0  0  0  0  0  0  0  0  0  0
   59.6834   30.0037   45.3496 H   0  0  0  0  0  0  0  0  0  0  0  0
   59.9963   31.2588   47.3288 S   0  0  0  0  0  0  0  0  0  0  0  0
   61.4609   31.3009   47.6620 O   0  0  0  0  0  0  0  0  0  0  0  0
   59.2101   31.1249   48.6023 O   0  0  0  0  0  0  0  0  0  0  0  0
   58.3379   32.7480   45.6742 C   0  0  0  0  0  0  0  0  0  0  0  0
   57.9610   33.9544   45.0437 C   0  0  0  0  0  0  0  0  0  0  0  0
   58.7147   35.1144   45.2313 C   0  0  0  0  0  0  0  0  0  0  0  0
   59.8489   35.0893   46.0442 C   0  0  0  0  0  0  0  0  0  0  0  0
   60.2331   33.9032   46.6744 C   0  0  0  0  0  0  0  0  0  0  0  0
   59.4816   32.7298   46.4995 C   0  0  0  0  0  0  0  0  0  0  0  0
   57.0672   31.1154   44.2606 C   0  0  0  0  0  0  0  0  0  0  0  0
   57.6011   31.5670   45.5030 O   0  0  0  0  0  0  0  0  0  0  0  0
 29 30  1  0
 30 23  1  0
 23 24  2  0
 24 25  1  0
 25 26  2  0
 26 27  1  0
 27 28  2  0
 28 20  1  0
 20 21  2  0
 20 22  2  0
 20 18  1  0
 18  1  1  0
  1  2  2  0
  2  3  1  0
  3  4  2  0
  4  5  1  0
  5  8  1  0
  8  9  2  0
  8 10  2  0
  8 11  1  0
 11 12  2  0
 12 13  1  0
 13 14  2  0
 14 15  1  0
 15 16  2  0
 16 17  1  0
  5  6  2  0
  6  7  1  0
 28 23  1  0
  6  1  1  0
 17 12  1  0
 18 19  1  0
M  CHG 1   7  -1
M  CHG 1  17  -1
M  END
> <UniqueID>
53

> <SMILES>
COc1ccccc1S(=O)(=O)Nc1cccc(S(=O)(=O)N=c2nccc[n-]2)c1[O-]

> <Energy>
55.43575055495933

> <Genealogy>
COc1ccccc1S(=O)(=O)Nc1cccc(S(=O)(=O)N=c2nccc[n-]2)c1[O-] (protonated)
COc1ccccc1S(=O)(=O)Nc1cccc(S(=O)(=O)N=c2nccc[n-]2)c1[O-] (3D coordinates assigned)
COc1ccccc1S(=O)(=O)Nc1cccc(S(=O)(=O)N=c2nccc[n-]2)c1[O-] (optimized conformer: 55.43575055495933 kcal/mol)

> <smiles>
COc1ccccc1S(=O)(=O)Nc1cccc(S(=O)(=O)N=c2nccc[nH]2)c1O

> <score_type>
oracle

> <origin>
adg

> <m_score__min__energy>
-14.710000000000001

> <m_primary>
energy

> <minimizedAffinity>
-7.33543

> <minimizedRMSD>
1.46906

> <CNNscore>
0.5023784637

> <CNNaffinity>
6.4250054359

> <CNN_VS>
3.2277843952

> <CNNaffinity_variance>
0.0390392058

$$$$
67:0


 27 29  0  0  0  0  0  0  0  0999 V2000
   57.9922   31.7230   44.9350 C   0  0  0  0  0  0  0  0  0  0  0  0
   57.5790   33.0477   45.1607 C   0  0  0  0  0  0  0  0  0  0  0  0
   58.0370   33.7507   46.2782 C   0  0  0  0  0  0  0  0  0  0  0  0
   58.9209   33.1435   47.1838 C   0  0  0  0  0  0  0  0  0  0  0  0
   59.3844   31.8466   46.9237 C   0  0  0  0  0  0  0  0  0  0  0  0
   58.9221   31.1398   45.8099 C   0  0  0  0  0  0  0  0  0  0  0  0
   57.4542   30.9431   43.7966 C   0  0  0  0  0  0  0  0  0  0  0  0
   57.3331   31.5051   42.6760 O   0  0  0  0  0  0  0  0  0  0  0  0
   57.0169   29.5341   43.9214 C   0  0  0  0  0  0  0  0  0  0  0  0
   56.8474   28.8670   45.0753 C   0  0  0  0  0  0  0  0  0  0  0  0
   57.7360   27.7932   45.5711 C   0  0  0  0  0  0  0  0  0  0  0  0
   59.1224   28.0120   45.5802 C   0  0  0  0  0  0  0  0  0  0  0  0
   59.9935   27.0039   46.0020 C   0  0  0  0  0  0  0  0  0  0  0  0
   59.4872   25.7766   46.4363 C   0  0  0  0  0  0  0  0  0  0  0  0
   58.1083   25.5640   46.4718 C   0  0  0  0  0  0  0  0  0  0  0  0
   57.2286   26.5697   46.0552 C   0  0  0  0  0  0  0  0  0  0  0  0
   55.8566   26.3490   46.1357 O   0  0  0  0  0  0  0  0  0  0  0  0
   59.4000   33.8451   48.3426 N   0  0  0  0  0  0  0  0  0  0  0  0
   58.7841   34.4627   48.7991 H   0  0  0  0  0  0  0  0  0  0  0  0
   60.7272   33.6963   48.8731 C   0  0  0  0  0  0  0  0  0  0  0  0
   61.8083   33.6764   48.0456 N   0  0  0  0  0  0  0  0  0  0  0  0
   63.0691   33.5632   48.5363 C   0  0  0  0  0  0  0  0  0  0  0  0
   64.0508   33.5409   47.7506 O   0  0  0  0  0  0  0  0  0  0  0  0
   63.2722   33.4760   49.8770 N   0  0  0  0  0  0  0  0  0  0  0  0
   62.2266   33.5031   50.7427 C   0  0  0  0  0  0  0  0  0  0  0  0
   62.4348   33.4246   51.9810 O   0  0  0  0  0  0  0  0  0  0  0  0
   60.9220   33.6189   50.2566 C   0  0  0  0  0  0  0  0  0  0  0  0
  9  7  1  0
  7  8  2  0
  7  1  1  0
  1  2  2  0
  2  3  1  0
  3  4  2  0
  4 18  1  0
 18 20  1  0
 20 21  1  0
 21 22  1  0
 22 23  2  0
 22 24  1  0
 24 25  1  0
 25 26  2  0
 25 27  1  0
  4  5  1  0
  5  6  2  0
  9 10  2  0
 10 11  1  0
 11 12  2  0
 12 13  1  0
 13 14  2  0
 14 15  1  0
 15 16  2  0
 16 17  1  0
  6  1  1  0
 16 11  1  0
 27 20  2  0
 18 19  1  0
M  CHG 1  17  -1
M  CHG 1  21  -1
M  CHG 1  24  -1
M  END
> <UniqueID>
60

> <SMILES>
O=C(/C=C\c1ccccc1[O-])c1ccc(Nc2cc(=O)[n-]c(=O)[n-]2)cc1

> <Energy>
56.245507198528685

> <Genealogy>
O=C(C=Cc1ccccc1[O-])c1ccc(Nc2cc(=O)[n-]c(=O)[n-]2)cc1 (protonated)
O=C(/C=C\c1ccccc1[O-])c1ccc(Nc2cc(=O)[n-]c(=O)[n-]2)cc1 (cis-trans isomerization)
O=C(/C=C\c1ccccc1[O-])c1ccc(Nc2cc(=O)[n-]c(=O)[n-]2)cc1 (3D coordinates assigned)
O=C(/C=C\c1ccccc1[O-])c1ccc(Nc2cc(=O)[n-]c(=O)[n-]2)cc1 (optimized conformer: 56.245507198528685 kcal/mol)

> <smiles>
O=C(C=Cc1ccccc1O)c1ccc(Nc2cc(=O)[nH]c(=O)[nH]2)cc1

> <score_type>
oracle

> <origin>
adg

> <m_score__min__energy>
-14.1

> <m_primary>
energy

> <minimizedAffinity>
-7.79109

> <minimizedRMSD>
0.95428

> <CNNscore>
0.2470575124

> <CNNaffinity>
5.9531197548

> <CNN_VS>
1.4707629681

> <CNNaffinity_variance>
0.0206521619

$$$$
0:0


 25 28  0  0  0  0  0  0  0  0999 V2000
   58.1836   27.3520   44.3751 C   0  0  0  0  0  0  0  0  0  0  0  0
   58.0295   28.6242   44.7783 C   0  0  0  0  0  0  0  0  0  0  0  0
   57.3657   29.6116   44.0634 C   0  0  0  0  0  0  0  0  0  0  0  0
   57.4247   30.7850   44.7329 N   0  0  0  0  0  0  0  0  0  0  0  0
   58.1041   30.5844   45.8491 N   0  0  0  0  0  0  0  0  0  0  0  0
   58.4689   31.4702   46.8295 C   0  0  0  0  0  0  0  0  0  0  0  0
   58.1415   32.7402   46.8815 N   0  0  0  0  0  0  0  0  0  0  0  0
   59.2392   30.9920   47.8453 N   0  0  0  0  0  0  0  0  0  0  0  0
   59.6248   29.6850   47.8922 C   0  0  0  0  0  0  0  0  0  0  0  0
   59.2610   28.8281   46.9037 N   0  0  0  0  0  0  0  0  0  0  0  0
   58.4843   29.2947   45.9003 C   0  0  0  0  0  0  0  0  0  0  0  0
   57.7781   26.1491   45.1278 C   0  0  0  0  0  0  0  0  0  0  0  0
   58.4907   25.0132   45.2339 N   0  0  0  0  0  0  0  0  0  0  0  0
   57.7654   24.2655   46.0940 C   0  0  0  0  0  0  0  0  0  0  0  0
   58.1080   23.1072   46.4432 O   0  0  0  0  0  0  0  0  0  0  0  0
   56.6461   24.8627   46.5584 N   0  0  0  0  0  0  0  0  0  0  0  0
   56.6763   26.0561   45.9452 C   0  0  0  0  0  0  0  0  0  0  0  0
   55.7167   27.0428   46.1312 O   0  0  0  0  0  0  0  0  0  0  0  0
   58.0484   33.9593   46.0537 C   0  0  0  0  0  0  0  0  0  0  0  0
   59.2545   34.8702   46.0131 C   0  0  0  0  0  0  0  0  0  0  0  0
   58.8761   34.0162   44.7905 C   0  0  0  0  0  0  0  0  0  0  0  0
   60.6577   29.1077   49.2400 S   0  0  0  0  0  0  0  0  0  0  0  0
   60.2374   27.3212   49.1313 C   0  0  0  0  0  0  0  0  0  0  0  0
   60.5622   26.7368   47.7540 C   0  0  0  0  0  0  0  0  0  0  0  0
   60.8919   26.5115   50.2543 C   0  0  0  0  0  0  0  0  0  0  0  0
  1 12  1  0
 12 13  1  0
 13 14  1  0
 14 15  2  0
 14 16  1  0
 16 17  1  0
 17 18  1  0
  1  2  2  0
  2  3  1  0
  3  4  2  0
  4  5  1  0
  5  6  1  0
  6  7  2  0
  7 19  1  0
 19 20  1  0
 20 21  1  0
  6  8  1  0
  8  9  2  0
  9 22  1  0
 22 23  1  0
 23 24  1  0
 23 25  1  0
  9 10  1  0
 10 11  2  0
 17 12  2  0
 11  2  1  0
 11  5  1  0
 21 19  1  0
M  CHG 1  13  -1
M  CHG 1  16  -1
M  CHG 1  18  -1
M  END
> <UniqueID>
1

> <SMILES>
CC(C)Sc1nc(=NC2CC2)n2nc/c(=C/c3[n-]c(=O)[n-]c3[O-])c2n1

> <Energy>
398.33973463074165

> <Genealogy>
CC(C)Sc1nc(=NC2CC2)n2ncc(=Cc3[n-]c(=O)[n-]c3[O-])c2n1 (protonated)
CC(C)Sc1nc(=NC2CC2)n2nc/c(=C/c3[n-]c(=O)[n-]c3[O-])c2n1 (cis-trans isomerization)
CC(C)Sc1nc(=NC2CC2)n2nc/c(=C/c3[n-]c(=O)[n-]c3[O-])c2n1 (3D coordinates assigned)
CC(C)Sc1nc(=NC2CC2)n2nc/c(=C/c3[n-]c(=O)[n-]c3[O-])c2n1 (nonaromatic ring conformer: 398.33973463074165 kcal/mol)

> <smiles>
CC(C)Sc1nc(=NC2CC2)n2ncc(=Cc3[nH]c(=O)[nH]c3O)c2n1

> <score_type>
oracle

> <origin>
adg

> <m_score__min__energy>
-15.68

> <m_primary>
energy

> <minimizedAffinity>
-5.95198

> <minimizedRMSD>
0.67867

> <CNNscore>
0.1273167133

> <CNNaffinity>
5.8813166618

> <CNN_VS>
0.7487899065

> <CNNaffinity_variance>
0.0004011797

$$$$
21:0


 25 27  0  0  0  0  0  0  0  0999 V2000
   58.2375   33.0869   46.0373 O   0  0  0  0  0  0  0  0  0  0  0  0
   58.4011   31.8374   46.1024 C   0  0  0  0  0  0  0  0  0  0  0  0
   57.5960   31.0300   45.3665 N   0  0  0  0  0  0  0  0  0  0  0  0
   57.7262   29.6816   45.3963 C   0  0  0  0  0  0  0  0  0  0  0  0
   56.8801   28.8982   44.6195 O   0  0  0  0  0  0  0  0  0  0  0  0
   58.7147   29.0932   46.1926 C   0  0  0  0  0  0  0  0  0  0  0  0
   59.5171   29.9377   46.9828 C   0  0  0  0  0  0  0  0  0  0  0  0
   60.3786   29.4355   47.7599 O   0  0  0  0  0  0  0  0  0  0  0  0
   59.3633   31.2978   46.9141 N   0  0  0  0  0  0  0  0  0  0  0  0
   60.2171   32.1616   47.6932 C   0  0  0  0  0  0  0  0  0  0  0  0
   61.4849   32.5233   47.2129 C   0  0  0  0  0  0  0  0  0  0  0  0
   62.3143   33.3548   47.9707 C   0  0  0  0  0  0  0  0  0  0  0  0
   61.8826   33.8306   49.2127 C   0  0  0  0  0  0  0  0  0  0  0  0
   62.7075   34.6584   49.9658 O   0  0  0  0  0  0  0  0  0  0  0  0
   60.6194   33.4745   49.6964 C   0  0  0  0  0  0  0  0  0  0  0  0
   59.7891   32.6436   48.9414 C   0  0  0  0  0  0  0  0  0  0  0  0
   58.8599   27.6185   46.2121 C   0  0  0  0  0  0  0  0  0  0  0  0
   57.9647   26.7674   46.7377 C   0  0  0  0  0  0  0  0  0  0  0  0
   57.5832   25.4619   46.1465 C   0  0  0  0  0  0  0  0  0  0  0  0
   58.5579   24.5087   45.7974 C   0  0  0  0  0  0  0  0  0  0  0  0
   58.1830   23.2870   45.2334 C   0  0  0  0  0  0  0  0  0  0  0  0
   56.8353   23.0123   44.9923 C   0  0  0  0  0  0  0  0  0  0  0  0
   55.8615   23.9624   45.3062 C   0  0  0  0  0  0  0  0  0  0  0  0
   56.2290   25.1875   45.8762 C   0  0  0  0  0  0  0  0  0  0  0  0
   55.2435   26.1180   46.1824 O   0  0  0  0  0  0  0  0  0  0  0  0
  1  2  2  0
  2  3  1  0
  3  4  1  0
  4  5  1  0
  4  6  2  0
  6 17  1  0
 17 18  2  0
 18 19  1  0
 19 20  2  0
 20 21  1  0
 21 22  2  0
 22 23  1  0
 23 24  2  0
 24 25  1  0
  6  7  1  0
  7  8  2  0
  7  9  1  0
  9 10  1  0
 10 11  2  0
 11 12  1  0
 12 13  2  0
 13 14  1  0
 13 15  1  0
 15 16  2  0
  9  2  1  0
 16 10  1  0
 24 19  1  0
M  CHG 1   3  -1
M  CHG 1   5  -1
M  CHG 1  14  -1
M  CHG 1  25  -1
M  END
> <UniqueID>
19

> <SMILES>
O=c1[n-]c([O-])c(C=Cc2ccccc2[O-])c(=O)n1-c1ccc([O-])cc1

> <Energy>
61.217332412069645

> <Genealogy>
O=c1[n-]c([O-])c(C=Cc2ccccc2[O-])c(=O)n1-c1ccc([O-])cc1 (protonated)
O=c1[n-]c([O-])c(C=Cc2ccccc2[O-])c(=O)n1-c1ccc([O-])cc1 (3D coordinates assigned)
O=c1[n-]c([O-])c(C=Cc2ccccc2[O-])c(=O)n1-c1ccc([O-])cc1 (optimized conformer: 61.217332412069645 kcal/mol)

> <smiles>
O=c1[nH]c(O)c(C=Cc2ccccc2O)c(=O)n1-c1ccc(O)cc1

> <score_type>
oracle

> <origin>
adg

> <m_score__min__energy>
-16.440000000000001

> <m_primary>
energy

> <minimizedAffinity>
-8.83248

> <minimizedRMSD>
1.05496

> <CNNscore>
0.6523654461

> <CNNaffinity>
6.8723945618

> <CNN_VS>
4.4833126068

> <CNNaffinity_variance>
0.7265030742

$$$$
24:0


 27 28  0  0  0  0  0  0  0  0999 V2000
   59.7973   29.1676   47.0974 S   0  0  0  0  0  0  0  0  0  0  0  0
   60.2855   28.4570   45.8652 O   0  0  0  0  0  0  0  0  0  0  0  0
   60.8932   30.0507   47.6224 O   0  0  0  0  0  0  0  0  0  0  0  0
   59.3206   28.0316   48.3608 C   0  0  0  0  0  0  0  0  0  0  0  0
   59.2072   26.7109   48.1809 C   0  0  0  0  0  0  0  0  0  0  0  0
   58.4575   26.0970   47.0699 C   0  0  0  0  0  0  0  0  0  0  0  0
   57.0564   26.1595   47.0751 C   0  0  0  0  0  0  0  0  0  0  0  0
   56.3209   25.5834   46.0341 C   0  0  0  0  0  0  0  0  0  0  0  0
   54.9347   25.6630   46.0372 O   0  0  0  0  0  0  0  0  0  0  0  0
   56.9815   24.9300   44.9905 C   0  0  0  0  0  0  0  0  0  0  0  0
   58.3758   24.8424   44.9905 C   0  0  0  0  0  0  0  0  0  0  0  0
   59.1207   25.4166   46.0320 C   0  0  0  0  0  0  0  0  0  0  0  0
   60.5101   25.2956   46.0464 O   0  0  0  0  0  0  0  0  0  0  0  0
   60.9481   24.8418   45.3535 H   0  0  0  0  0  0  0  0  0  0  0  0
   58.4411   30.1630   46.6795 N   0  0  0  0  0  0  0  0  0  0  0  0
   57.8169   31.4731   44.7071 C   0  0  0  0  0  0  0  0  0  0  0  0
   57.7966   32.6802   43.9901 C   0  0  0  0  0  0  0  0  0  0  0  0
   58.4089   33.8201   44.5095 C   0  0  0  0  0  0  0  0  0  0  0  0
   59.0400   33.7686   45.7496 C   0  0  0  0  0  0  0  0  0  0  0  0
   59.0642   32.5805   46.4838 C   0  0  0  0  0  0  0  0  0  0  0  0
   59.6652   32.5984   47.6951 F   0  0  0  0  0  0  0  0  0  0  0  0
   58.4544   31.4124   45.9663 C   0  0  0  0  0  0  0  0  0  0  0  0
   55.6385   29.6003   44.9377 N   0  0  0  0  0  0  0  0  0  0  0  0
   57.0385   30.0399   44.0218 S   0  0  0  0  0  0  0  0  0  0  0  0
   56.6164   30.3249   42.6064 O   0  0  0  0  0  0  0  0  0  0  0  0
   58.0096   28.8948   44.0353 O   0  0  0  0  0  0  0  0  0  0  0  0
   55.2078   28.7733   44.5243 H   0  0  0  0  0  0  0  0  0  0  0  0
 23 24  1  0
 24 25  2  0
 24 26  2  0
 24 16  1  0
 16 17  2  0
 17 18  1  0
 18 19  2  0
 19 20  1  0
 20 21  1  0
 20 22  2  0
 22 15  1  0
 15  1  1  0
  1  2  2  0
  1  3  2  0
  1  4  1  0
  4  5  2  0
  5  6  1  0
  6  7  2  0
  7  8  1  0
  8  9  1  0
  8 10  2  0
 10 11  1  0
 11 12  2  0
 12 13  1  0
 22 16  1  0
 12  6  1  0
 23 27  1  0
 13 14  1  0
M  CHG 1   9  -1
M  CHG 1  15  -1
M  CHG 1  23  -1
M  END
> <UniqueID>
22

> <SMILES>
[NH-]S(=O)(=O)c1cccc(F)c1[N-]S(=O)(=O)C=Cc1cc([O-])ccc1O

> <Energy>
50.18465212869995

> <Genealogy>
[NH-]S(=O)(=O)c1cccc(F)c1[N-]S(=O)(=O)C=Cc1cc([O-])ccc1O (protonated)
[NH-]S(=O)(=O)c1cccc(F)c1[N-]S(=O)(=O)C=Cc1cc([O-])ccc1O (3D coordinates assigned)
[NH-]S(=O)(=O)c1cccc(F)c1[N-]S(=O)(=O)C=Cc1cc([O-])ccc1O (optimized conformer: 50.18465212869995 kcal/mol)

> <smiles>
NS(=O)(=O)c1cccc(F)c1NS(=O)(=O)C=Cc1cc(O)ccc1O

> <score_type>
oracle

> <origin>
adg

> <m_score__min__energy>
-15.24

> <m_primary>
energy

> <minimizedAffinity>
-6.81144

> <minimizedRMSD>
1.02532

> <CNNscore>
0.6287149191

> <CNNaffinity>
6.4501209259

> <CNN_VS>
4.0552873611

> <CNNaffinity_variance>
0.0442948602

$$$$
26:0


 29 32  0  0  0  0  0  0  0  0999 V2000
   58.0870   26.7366   45.8140 N   0  0  0  0  0  0  0  0  0  0  0  0
   56.9814   26.1257   46.2697 C   0  0  0  0  0  0  0  0  0  0  0  0
   55.6824   26.5002   45.9495 O   0  0  0  0  0  0  0  0  0  0  0  0
   57.3531   25.0754   47.0814 C   0  0  0  0  0  0  0  0  0  0  0  0
   58.7020   24.9935   47.1193 N   0  0  0  0  0  0  0  0  0  0  0  0
   59.1052   26.0201   46.3369 C   0  0  0  0  0  0  0  0  0  0  0  0
   60.3187   26.2713   46.1119 O   0  0  0  0  0  0  0  0  0  0  0  0
   58.1628   27.8403   44.8588 C   0  0  0  0  0  0  0  0  0  0  0  0
   60.0935   29.2081   45.1649 O   0  0  0  0  0  0  0  0  0  0  0  0
   58.8886   28.9951   45.4701 C   0  0  0  0  0  0  0  0  0  0  0  0
   58.2247   29.8233   46.4309 N   0  0  0  0  0  0  0  0  0  0  0  0
   58.9145   30.7886   47.2774 C   0  0  0  0  0  0  0  0  0  0  0  0
   58.9788   32.1310   46.5972 C   0  0  0  0  0  0  0  0  0  0  0  0
   59.9913   33.0511   46.9254 C   0  0  0  0  0  0  0  0  0  0  0  0
   60.0541   34.2890   46.2750 C   0  0  0  0  0  0  0  0  0  0  0  0
   59.1091   34.6159   45.2967 C   0  0  0  0  0  0  0  0  0  0  0  0
   58.1020   33.7029   44.9630 C   0  0  0  0  0  0  0  0  0  0  0  0
   58.0357   32.4638   45.6090 C   0  0  0  0  0  0  0  0  0  0  0  0
   56.4397   24.0854   47.7336 C   0  0  0  0  0  0  0  0  0  0  0  0
   56.4812   22.7833   46.9920 C   0  0  0  0  0  0  0  0  0  0  0  0
   56.6425   21.5199   47.5526 C   0  0  0  0  0  0  0  0  0  0  0  0
   56.7197   20.5790   46.5835 N   0  0  0  0  0  0  0  0  0  0  0  0
   56.6224   21.2379   45.4159 C   0  0  0  0  0  0  0  0  0  0  0  0
   56.6648   20.6945   44.1321 C   0  0  0  0  0  0  0  0  0  0  0  0
   56.5541   21.5749   43.0399 C   0  0  0  0  0  0  0  0  0  0  0  0
   56.4079   22.9629   43.2526 C   0  0  0  0  0  0  0  0  0  0  0  0
   56.3678   23.4845   44.5604 C   0  0  0  0  0  0  0  0  0  0  0  0
   56.4796   22.5872   45.6225 C   0  0  0  0  0  0  0  0  0  0  0  0
   56.8256   19.6082   46.7083 H   0  0  0  0  0  0  0  0  0  0  0  0
  9 10  2  0
 10  8  1  0
  8  1  1  0
  1  2  1  0
  2  3  1  0
  2  4  2  0
  4 19  1  0
 19 20  1  0
 20 21  2  0
 21 22  1  0
 22 23  1  0
 23 24  2  0
 24 25  1  0
 25 26  2  0
 26 27  1  0
 27 28  2  0
  4  5  1  0
  5  6  1  0
  6  7  2  0
 10 11  1  0
 11 12  1  0
 12 13  1  0
 13 14  2  0
 14 15  1  0
 15 16  2  0
 16 17  1  0
 17 18  2  0
  6  1  1  0
 18 13  1  0
 28 20  1  0
 28 23  1  0
 22 29  1  0
M  CHG 1   3  -1
M  CHG 1   5  -1
M  CHG 1  11  -1
M  END
> <UniqueID>
24

> <SMILES>
O=C(Cn1c([O-])c(Cc2c[nH]c3ccccc23)[n-]c1=O)[N-]Cc1ccccc1

> <Energy>
107.83679423134691

> <Genealogy>
O=C(Cn1c([O-])c(Cc2c[nH]c3ccccc23)[n-]c1=O)[N-]Cc1ccccc1 (protonated)
O=C(Cn1c([O-])c(Cc2c[nH]c3ccccc23)[n-]c1=O)[N-]Cc1ccccc1 (3D coordinates assigned)
O=C(Cn1c([O-])c(Cc2c[nH]c3ccccc23)[n-]c1=O)[N-]Cc1ccccc1 (optimized conformer: 107.83679423134691 kcal/mol)

> <smiles>
O=C(Cn1c(O)c(Cc2c[nH]c3ccccc23)[nH]c1=O)NCc1ccccc1

> <score_type>
oracle

> <origin>
adg

> <m_score__min__energy>
-15.42

> <m_primary>
energy

> <minimizedAffinity>
-7.18572

> <minimizedRMSD>
1.00458

> <CNNscore>
0.2207311988

> <CNNaffinity>
5.7263321877

> <CNN_VS>
1.2639801502

> <CNNaffinity_variance>
0.0397159047

$$$$
28:0


 29 31  0  0  0  0  0  0  0  0999 V2000
   57.5179   28.7667   45.0788 C   0  0  0  0  0  0  0  0  0  0  0  0
   57.2095   29.3618   43.8478 C   0  0  0  0  0  0  0  0  0  0  0  0
   57.3927   30.7346   43.6665 C   0  0  0  0  0  0  0  0  0  0  0  0
   57.8911   31.5293   44.7058 C   0  0  0  0  0  0  0  0  0  0  0  0
   58.1765   33.2362   44.3783 Cl  0  0  0  0  0  0  0  0  0  0  0  0
   58.1946   30.9431   45.9551 C   0  0  0  0  0  0  0  0  0  0  0  0
   57.9732   29.5651   46.1324 C   0  0  0  0  0  0  0  0  0  0  0  0
   59.6392   26.9108   45.6512 O   0  0  0  0  0  0  0  0  0  0  0  0
   58.4462   26.5091   45.7059 C   0  0  0  0  0  0  0  0  0  0  0  0
   57.3660   27.3559   45.2859 N   0  0  0  0  0  0  0  0  0  0  0  0
   56.4821   26.9503   45.1332 H   0  0  0  0  0  0  0  0  0  0  0  0
   58.1553   25.1690   46.3119 C   0  0  0  0  0  0  0  0  0  0  0  0
   56.8259   24.6685   45.8205 C   0  0  0  0  0  0  0  0  0  0  0  0
   55.6820   25.2087   46.3200 N   0  0  0  0  0  0  0  0  0  0  0  0
   54.4827   24.8237   45.8837 N   0  0  0  0  0  0  0  0  0  0  0  0
   54.3672   23.8790   44.9145 C   0  0  0  0  0  0  0  0  0  0  0  0
   53.2300   23.5235   44.5131 O   0  0  0  0  0  0  0  0  0  0  0  0
   55.4832   23.3253   44.3807 N   0  0  0  0  0  0  0  0  0  0  0  0
   56.7142   23.7004   44.8084 C   0  0  0  0  0  0  0  0  0  0  0  0
   57.7379   23.1788   44.2911 O   0  0  0  0  0  0  0  0  0  0  0  0
   58.7548   31.7321   47.0789 C   0  0  0  0  0  0  0  0  0  0  0  0
   58.1622   32.7744   47.4631 O   0  0  0  0  0  0  0  0  0  0  0  0
   59.9126   31.2939   47.8037 N   0  0  0  0  0  0  0  0  0  0  0  0
   61.1847   31.9588   47.8426 C   0  0  0  0  0  0  0  0  0  0  0  0
   62.2099   31.5442   48.7144 C   0  0  0  0  0  0  0  0  0  0  0  0
   63.4343   32.2189   48.7315 C   0  0  0  0  0  0  0  0  0  0  0  0
   63.6520   33.2977   47.8704 C   0  0  0  0  0  0  0  0  0  0  0  0
   62.6459   33.6989   46.9866 C   0  0  0  0  0  0  0  0  0  0  0  0
   61.4207   33.0267   46.9669 C   0  0  0  0  0  0  0  0  0  0  0  0
  8  9  2  0
  9 12  1  0
 12 13  1  0
 13 14  2  0
 14 15  1  0
 15 16  1  0
 16 17  2  0
 16 18  1  0
 18 19  1  0
 19 20  2  0
  9 10  1  0
 10  1  1  0
  1  2  2  0
  2  3  1  0
  3  4  2  0
  4  5  1  0
  4  6  1  0
  6 21  1  0
 21 22  2  0
 21 23  1  0
 23 24  1  0
 24 25  2  0
 25 26  1  0
 26 27  2  0
 27 28  1  0
 28 29  2  0
  6  7  2  0
 19 13  1  0
  7  1  1  0
 29 24  1  0
 10 11  1  0
M  CHG 1  15  -1
M  CHG 1  18  -1
M  CHG 1  23  -1
M  END
> <UniqueID>
26

> <SMILES>
O=C(Cc1n[n-]c(=O)[n-]c1=O)Nc1ccc(Cl)c(C(=O)[N-]c2ccccc2)c1

> <Energy>
53.653073267402135

> <Genealogy>
O=C(Cc1n[n-]c(=O)[n-]c1=O)Nc1ccc(Cl)c(C(=O)[N-]c2ccccc2)c1 (protonated)
O=C(Cc1n[n-]c(=O)[n-]c1=O)Nc1ccc(Cl)c(C(=O)[N-]c2ccccc2)c1 (3D coordinates assigned)
O=C(Cc1n[n-]c(=O)[n-]c1=O)Nc1ccc(Cl)c(C(=O)[N-]c2ccccc2)c1 (optimized conformer: 53.653073267402135 kcal/mol)

> <smiles>
O=C(Cc1n[nH]c(=O)[nH]c1=O)Nc1ccc(Cl)c(C(=O)Nc2ccccc2)c1

> <score_type>
oracle

> <origin>
adg

> <m_score__min__energy>
-14.720000000000001

> <m_primary>
energy

> <minimizedAffinity>
-9.08203

> <minimizedRMSD>
0.74689

> <CNNscore>
0.4745901823

> <CNNaffinity>
6.9099349976

> <CNN_VS>
3.2793872356

> <CNNaffinity_variance>
0.1190218329

$$$$
49:0


 27 29  0  0  0  0  0  0  0  0999 V2000
   57.7688   26.4778   46.3725 C   0  0  0  0  0  0  0  0  0  0  0  0
   56.6044   27.1545   45.9945 C   0  0  0  0  0  0  0  0  0  0  0  0
   55.3858   26.4899   45.9244 O   0  0  0  0  0  0  0  0  0  0  0  0
   56.6548   28.4759   45.7059 N   0  0  0  0  0  0  0  0  0  0  0  0
   57.8146   29.1747   45.7661 C   0  0  0  0  0  0  0  0  0  0  0  0
   57.7978   30.4029   45.4824 O   0  0  0  0  0  0  0  0  0  0  0  0
   58.9839   28.5503   46.1248 N   0  0  0  0  0  0  0  0  0  0  0  0
   58.9727   27.2073   46.4141 C   0  0  0  0  0  0  0  0  0  0  0  0
   60.0500   26.6131   46.7060 O   0  0  0  0  0  0  0  0  0  0  0  0
   57.6593   24.6685   47.8880 O   0  0  0  0  0  0  0  0  0  0  0  0
   57.7291   25.0271   46.6807 C   0  0  0  0  0  0  0  0  0  0  0  0
   57.7744   23.9911   45.6177 C   0  0  0  0  0  0  0  0  0  0  0  0
   58.9253   23.2054   45.4214 C   0  0  0  0  0  0  0  0  0  0  0  0
   58.9529   22.2261   44.4238 C   0  0  0  0  0  0  0  0  0  0  0  0
   60.0952   21.4582   44.2344 O   0  0  0  0  0  0  0  0  0  0  0  0
   57.8303   22.0148   43.6175 C   0  0  0  0  0  0  0  0  0  0  0  0
   56.6772   22.7808   43.8118 C   0  0  0  0  0  0  0  0  0  0  0  0
   55.5611   22.5663   43.0124 O   0  0  0  0  0  0  0  0  0  0  0  0
   56.6465   23.7606   44.8087 C   0  0  0  0  0  0  0  0  0  0  0  0
   60.2582   29.3001   46.1498 C   0  0  0  0  0  0  0  0  0  0  0  0
   60.4985   29.9507   47.5204 C   0  0  0  0  0  0  0  0  0  0  0  0
   61.1343   31.3108   47.3872 C   0  0  0  0  0  0  0  0  0  0  0  0
   62.5013   31.4850   47.6665 C   0  0  0  0  0  0  0  0  0  0  0  0
   63.0990   32.7384   47.4995 C   0  0  0  0  0  0  0  0  0  0  0  0
   62.3391   33.8215   47.0489 C   0  0  0  0  0  0  0  0  0  0  0  0
   60.9808   33.6540   46.7633 C   0  0  0  0  0  0  0  0  0  0  0  0
   60.3803   32.4013   46.9279 C   0  0  0  0  0  0  0  0  0  0  0  0
 10 11  2  0
 11 12  1  0
 12 13  2  0
 13 14  1  0
 14 15  1  0
 14 16  2  0
 16 17  1  0
 17 18  1  0
 17 19  2  0
 11  1  1  0
  1  2  2  0
  2  3  1  0
  2  4  1  0
  4  5  1  0
  5  6  2  0
  5  7  1  0
  7 20  1  0
 20 21  1  0
 21 22  1  0
 22 23  2  0
 23 24  1  0
 24 25  2  0
 25 26  1  0
 26 27  2  0
  7  8  1  0
  8  9  2  0
 19 12  1  0
  8  1  1  0
 27 22  1  0
M  CHG 1   3  -1
M  CHG 1   4  -1
M  CHG 1  15  -1
M  CHG 1  18  -1
M  END
> <UniqueID>
47

> <SMILES>
O=C(c1cc([O-])cc([O-])c1)c1c([O-])[n-]c(=O)n(CCc2ccccc2)c1=O

> <Energy>
51.780622013841665

> <Genealogy>
O=C(c1cc([O-])cc([O-])c1)c1c([O-])[n-]c(=O)n(CCc2ccccc2)c1=O (protonated)
O=C(c1cc([O-])cc([O-])c1)c1c([O-])[n-]c(=O)n(CCc2ccccc2)c1=O (3D coordinates assigned)
O=C(c1cc([O-])cc([O-])c1)c1c([O-])[n-]c(=O)n(CCc2ccccc2)c1=O (optimized conformer: 51.780622013841665 kcal/mol)

> <smiles>
O=C(c1cc(O)cc(O)c1)c1c(O)[nH]c(=O)n(CCc2ccccc2)c1=O

> <score_type>
oracle

> <origin>
adg

> <m_score__min__energy>
-16.41

> <m_primary>
energy

> <minimizedAffinity>
-6.04547

> <minimizedRMSD>
1.52781

> <CNNscore>
0.3019595742

> <CNNaffinity>
6.1251902580

> <CNN_VS>
1.8495597839

> <CNNaffinity_variance>
0.2303634733

$$$$
70:0


 25 27  0  0  0  0  0  0  0  0999 V2000
   58.4329   29.0967   44.5136 C   0  0  0  0  0  0  0  0  0  0  0  0
   58.6682   28.4669   45.6754 C   0  0  0  0  0  0  0  0  0  0  0  0
   58.4888   27.1012   45.9558 C   0  0  0  0  0  0  0  0  0  0  0  0
   57.9019   26.1200   45.2419 C   0  0  0  0  0  0  0  0  0  0  0  0
   59.0481   26.8842   47.2039 C   0  0  0  0  0  0  0  0  0  0  0  0
   59.4887   28.1077   47.6640 C   0  0  0  0  0  0  0  0  0  0  0  0
   60.1503   28.3288   48.9902 C   0  0  0  0  0  0  0  0  0  0  0  0
   59.2612   29.0676   46.7403 N   0  0  0  0  0  0  0  0  0  0  0  0
   57.3113   24.8881   45.7994 C   0  0  0  0  0  0  0  0  0  0  0  0
   55.9681   24.8641   46.1971 C   0  0  0  0  0  0  0  0  0  0  0  0
   55.1867   26.0115   46.1207 O   0  0  0  0  0  0  0  0  0  0  0  0
   55.4200   23.7149   46.6717 N   0  0  0  0  0  0  0  0  0  0  0  0
   56.1501   22.5730   46.7551 C   0  0  0  0  0  0  0  0  0  0  0  0
   55.4662   21.2089   47.3332 S   0  0  0  0  0  0  0  0  0  0  0  0
   57.4454   22.5628   46.3481 N   0  0  0  0  0  0  0  0  0  0  0  0
   58.0384   23.6848   45.8666 C   0  0  0  0  0  0  0  0  0  0  0  0
   59.2363   23.6335   45.4772 O   0  0  0  0  0  0  0  0  0  0  0  0
   59.6081   30.4577   46.8714 C   0  0  0  0  0  0  0  0  0  0  0  0
   60.9395   30.8323   47.1069 C   0  0  0  0  0  0  0  0  0  0  0  0
   61.2792   32.1836   47.2261 C   0  0  0  0  0  0  0  0  0  0  0  0
   60.2933   33.1670   47.1073 C   0  0  0  0  0  0  0  0  0  0  0  0
   58.9619   32.8021   46.8699 C   0  0  0  0  0  0  0  0  0  0  0  0
   57.9701   33.7729   46.7522 O   0  0  0  0  0  0  0  0  0  0  0  0
   58.6210   31.4488   46.7515 C   0  0  0  0  0  0  0  0  0  0  0  0
   58.1910   34.6802   46.8303 H   0  0  0  0  0  0  0  0  0  0  0  0
  1  2  2  0
  2  3  1  0
  3  4  2  0
  4  9  1  0
  9 10  2  0
 10 11  1  0
 10 12  1  0
 12 13  1  0
 13 14  2  0
 13 15  1  0
 15 16  1  0
 16 17  2  0
  3  5  1  0
  5  6  2  0
  6  7  1  0
  6  8  1  0
  8 18  1  0
 18 19  2  0
 19 20  1  0
 20 21  2  0
 21 22  1  0
 22 23  1  0
 22 24  2  0
  8  2  1  0
 24 18  1  0
 16  9  1  0
 23 25  1  0
M  CHG 1  11  -1
M  CHG 1  12  -1
M  CHG 1  15  -1
M  END
> <UniqueID>
66

> <SMILES>
C=c1c(=Cc2c([O-])[n-]c(=S)[n-]c2=O)cc(C)n1-c1cccc(O)c1

> <Energy>
87.00365523213742

> <Genealogy>
C=c1c(=Cc2c([O-])[n-]c(=S)[n-]c2=O)cc(C)n1-c1cccc(O)c1 (protonated)
C=c1c(=Cc2c([O-])[n-]c(=S)[n-]c2=O)cc(C)n1-c1cccc(O)c1 (3D coordinates assigned)
C=c1c(=Cc2c([O-])[n-]c(=S)[n-]c2=O)cc(C)n1-c1cccc(O)c1 (optimized conformer: 87.00365523213742 kcal/mol)

> <smiles>
C=c1c(=Cc2c(O)[nH]c(=S)[nH]c2=O)cc(C)n1-c1cccc(O)c1

> <score_type>
oracle

> <origin>
adg

> <m_score__min__energy>
-14.83

> <m_primary>
energy

> <minimizedAffinity>
-8.60239

> <minimizedRMSD>
1.68223

> <CNNscore>
0.1905728281

> <CNNaffinity>
6.6717190742

> <CNN_VS>
1.2714483738

> <CNNaffinity_variance>
1.1175428629

$$$$
14:0


 24 26  0  0  0  0  0  0  0  0999 V2000
   59.3344   31.0282   50.8787 N   0  0  0  0  0  0  0  0  0  0  0  0
   59.7042   30.2727   52.0786 C   0  0  0  0  0  0  0  0  0  0  0  0
   58.5316   29.3966   52.5244 C   0  0  0  0  0  0  0  0  0  0  0  0
   57.2707   30.1540   52.5719 N   0  0  0  0  0  0  0  0  0  0  0  0
   56.1259   29.5401   53.1983 C   0  0  0  0  0  0  0  0  0  0  0  0
   56.0313   28.2804   53.2169 O   0  0  0  0  0  0  0  0  0  0  0  0
   57.2149   31.5363   52.0728 C   0  0  0  0  0  0  0  0  0  0  0  0
   58.0244   31.6820   50.7783 C   0  0  0  0  0  0  0  0  0  0  0  0
   61.3985   32.0977   50.0269 C   0  0  0  0  0  0  0  0  0  0  0  0
   62.3260   32.2831   48.9922 C   0  0  0  0  0  0  0  0  0  0  0  0
   62.1649   31.6134   47.7759 C   0  0  0  0  0  0  0  0  0  0  0  0
   61.0814   30.7529   47.5878 C   0  0  0  0  0  0  0  0  0  0  0  0
   60.1523   30.5613   48.6139 C   0  0  0  0  0  0  0  0  0  0  0  0
   60.3015   31.2325   49.8373 C   0  0  0  0  0  0  0  0  0  0  0  0
   61.7567   33.3270   52.2885 N   0  0  0  0  0  0  0  0  0  0  0  0
   61.5970   32.7798   51.2820 C   0  0  0  0  0  0  0  0  0  0  0  0
   55.0171   30.3668   53.7964 C   0  0  0  0  0  0  0  0  0  0  0  0
   53.7423   30.2117   53.0240 C   0  0  0  0  0  0  0  0  0  0  0  0
   53.6044   30.5174   51.7226 N   0  0  0  0  0  0  0  0  0  0  0  0
   52.3268   30.1668   51.4559 C   0  0  0  0  0  0  0  0  0  0  0  0
   51.8086   30.3079   50.3175 O   0  0  0  0  0  0  0  0  0  0  0  0
   51.6497   29.6468   52.5039 N   0  0  0  0  0  0  0  0  0  0  0  0
   52.5627   29.6779   53.4866 C   0  0  0  0  0  0  0  0  0  0  0  0
   52.3263   29.2237   54.7771 O   0  0  0  0  0  0  0  0  0  0  0  0
 15 16  3  0
 16  9  1  0
  9 10  2  0
 10 11  1  0
 11 12  2  0
 12 13  1  0
 13 14  2  0
 14  1  1  0
  1  2  1  0
  2  3  1  0
  3  4  1  0
  4  5  1  0
  5  6  2  0
  5 17  1  0
 17 18  1  0
 18 19  1  0
 19 20  1  0
 20 21  2  0
 20 22  1  0
 22 23  1  0
 23 24  1  0
  4  7  1  0
  7  8  1  0
 14  9  1  0
  8  1  1  0
 23 18  2  0
M  CHG 1  19  -1
M  CHG 1  22  -1
M  CHG 1  24  -1
M  END
> <UniqueID>
15

> <SMILES>
N#Cc1ccccc1N1CCN(C(=O)Cc2[n-]c(=O)[n-]c2[O-])CC1

> <Energy>
73.80314502393213

> <Genealogy>
N#Cc1ccccc1N1CCN(C(=O)Cc2[n-]c(=O)[n-]c2[O-])CC1 (protonated)
N#Cc1ccccc1N1CCN(C(=O)Cc2[n-]c(=O)[n-]c2[O-])CC1 (3D coordinates assigned)
N#Cc1ccccc1N1CCN(C(=O)Cc2[n-]c(=O)[n-]c2[O-])CC1 (nonaromatic ring conformer: 73.80314502393213 kcal/mol)

> <smiles>
N#Cc1ccccc1N1CCN(C(=O)Cc2[nH]c(=O)[nH]c2O)CC1

> <score_type>
oracle

> <origin>
adg

> <m_score__min__energy>
-15.34

> <m_primary>
energy

> <minimizedAffinity>
-5.38109

> <minimizedRMSD>
2.73638

> <CNNscore>
0.1039970294

> <CNNaffinity>
4.6654229164

> <CNN_VS>
0.4851901233

> <CNNaffinity_variance>
0.0405994207

$$$$
42:0


 27 29  0  0  0  0  0  0  0  0999 V2000
   60.0307   29.9777   48.2451 N   0  0  0  0  0  0  0  0  0  0  0  0
   59.6803   29.9856   49.4960 C   0  0  0  0  0  0  0  0  0  0  0  0
   58.6583   30.7174   49.9938 N   0  0  0  0  0  0  0  0  0  0  0  0
   58.5567   30.5816   51.3457 C   0  0  0  0  0  0  0  0  0  0  0  0
   59.5186   29.7532   51.9229 C   0  0  0  0  0  0  0  0  0  0  0  0
   60.5122   29.1648   50.6977 S   0  0  0  0  0  0  0  0  0  0  0  0
   59.2047   30.4139   47.1567 C   0  0  0  0  0  0  0  0  0  0  0  0
   58.3461   29.6191   46.6909 O   0  0  0  0  0  0  0  0  0  0  0  0
   57.2160   31.5011   45.3784 O   0  0  0  0  0  0  0  0  0  0  0  0
   58.2842   32.3068   45.7720 C   0  0  0  0  0  0  0  0  0  0  0  0
   58.3729   33.6266   45.3062 C   0  0  0  0  0  0  0  0  0  0  0  0
   59.4417   34.4395   45.6879 C   0  0  0  0  0  0  0  0  0  0  0  0
   60.4290   33.9407   46.5402 C   0  0  0  0  0  0  0  0  0  0  0  0
   60.3533   32.6252   47.0055 C   0  0  0  0  0  0  0  0  0  0  0  0
   59.2843   31.7951   46.6260 C   0  0  0  0  0  0  0  0  0  0  0  0
   56.5541   31.8448   44.8112 H   0  0  0  0  0  0  0  0  0  0  0  0
   57.5630   31.3272   52.1464 C   0  0  0  0  0  0  0  0  0  0  0  0
   57.5577   32.5853   52.0932 O   0  0  0  0  0  0  0  0  0  0  0  0
   56.5797   30.6764   52.9645 N   0  0  0  0  0  0  0  0  0  0  0  0
   55.6232   29.6668   52.5200 C   0  0  0  0  0  0  0  0  0  0  0  0
   54.2167   30.1596   52.7242 C   0  0  0  0  0  0  0  0  0  0  0  0
   53.6070   30.0467   53.9844 C   0  0  0  0  0  0  0  0  0  0  0  0
   52.2905   30.4779   54.1726 C   0  0  0  0  0  0  0  0  0  0  0  0
   51.5691   31.0151   53.1028 C   0  0  0  0  0  0  0  0  0  0  0  0
   50.2615   31.4444   53.2920 O   0  0  0  0  0  0  0  0  0  0  0  0
   52.1625   31.1161   51.8409 C   0  0  0  0  0  0  0  0  0  0  0  0
   53.4790   30.6846   51.6495 C   0  0  0  0  0  0  0  0  0  0  0  0
  9 10  1  0
 10 11  2  0
 11 12  1  0
 12 13  2  0
 13 14  1  0
 14 15  2  0
 15  7  1  0
  7  8  2  0
  7  1  1  0
  1  2  2  0
  2  3  1  0
  3  4  1  0
  4 17  1  0
 17 18  2  0
 17 19  1  0
 19 20  1  0
 20 21  1  0
 21 22  2  0
 22 23  1  0
 23 24  2  0
 24 25  1  0
 24 26  1  0
 26 27  2  0
  4  5  2  0
  5  6  1  0
 15 10  1  0
  6  2  1  0
 27 21  1  0
  9 16  1  0
M  CHG 1   3  -1
M  CHG 1  19  -1
M  CHG 1  25  -1
M  END
> <UniqueID>
41

> <SMILES>
O=C([N-]Cc1ccc([O-])cc1)c1cs/c(=N/C(=O)c2ccccc2O)[n-]1

> <Energy>
76.52751222406602

> <Genealogy>
O=C([N-]Cc1ccc([O-])cc1)c1csc(=NC(=O)c2ccccc2O)[n-]1 (protonated)
O=C([N-]Cc1ccc([O-])cc1)c1cs/c(=N/C(=O)c2ccccc2O)[n-]1 (cis-trans isomerization)
O=C([N-]Cc1ccc([O-])cc1)c1cs/c(=N/C(=O)c2ccccc2O)[n-]1 (3D coordinates assigned)
O=C([N-]Cc1ccc([O-])cc1)c1cs/c(=N/C(=O)c2ccccc2O)[n-]1 (optimized conformer: 76.52751222406602 kcal/mol)

> <smiles>
O=C(NCc1ccc(O)cc1)c1csc(=NC(=O)c2ccccc2O)[nH]1

> <score_type>
oracle

> <origin>
adg

> <m_score__min__energy>
-14.039999999999999

> <m_primary>
energy

> <minimizedAffinity>
-7.40060

> <minimizedRMSD>
1.03282

> <CNNscore>
0.3840537369

> <CNNaffinity>
5.3390889168

> <CNN_VS>
2.0504970551

> <CNNaffinity_variance>
0.0997886658

$$$$
59:0


 32 35  0  0  0  0  0  0  0  0999 V2000
   58.5135   32.3197   51.5195 C   0  0  0  0  0  0  0  0  0  0  0  0
   59.4438   32.3387   50.4585 C   0  0  0  0  0  0  0  0  0  0  0  0
   59.7562   31.1690   49.7501 C   0  0  0  0  0  0  0  0  0  0  0  0
   59.1133   29.9683   50.0918 C   0  0  0  0  0  0  0  0  0  0  0  0
   58.2044   29.9337   51.1494 C   0  0  0  0  0  0  0  0  0  0  0  0
   57.9009   31.0993   51.8749 C   0  0  0  0  0  0  0  0  0  0  0  0
   60.7318   31.1978   48.6351 C   0  0  0  0  0  0  0  0  0  0  0  0
   61.9547   31.3675   48.8891 O   0  0  0  0  0  0  0  0  0  0  0  0
   60.3109   31.0551   47.2642 N   0  0  0  0  0  0  0  0  0  0  0  0
   60.1912   29.7149   46.6776 C   0  0  0  0  0  0  0  0  0  0  0  0
   58.7274   29.4524   46.3337 C   0  0  0  0  0  0  0  0  0  0  0  0
   58.2159   30.4848   45.3168 C   0  0  0  0  0  0  0  0  0  0  0  0
   58.6402   31.8989   45.6458 C   0  0  0  0  0  0  0  0  0  0  0  0
   58.0348   32.9710   44.9677 C   0  0  0  0  0  0  0  0  0  0  0  0
   58.4483   34.2815   45.2090 C   0  0  0  0  0  0  0  0  0  0  0  0
   59.4770   34.5362   46.1240 C   0  0  0  0  0  0  0  0  0  0  0  0
   60.0961   33.4782   46.7965 C   0  0  0  0  0  0  0  0  0  0  0  0
   59.6823   32.1528   46.5692 C   0  0  0  0  0  0  0  0  0  0  0  0
   59.0214   34.1298   53.1743 C   0  0  0  0  0  0  0  0  0  0  0  0
   58.1762   33.4844   52.2264 O   0  0  0  0  0  0  0  0  0  0  0  0
   56.9154   31.0037   53.0106 C   0  0  0  0  0  0  0  0  0  0  0  0
   55.5551   31.0081   52.4788 N   0  0  0  0  0  0  0  0  0  0  0  0
   54.5934   29.9676   52.6947 C   0  0  0  0  0  0  0  0  0  0  0  0
   54.9850   28.7708   52.7050 O   0  0  0  0  0  0  0  0  0  0  0  0
   53.1446   30.2637   52.9590 C   0  0  0  0  0  0  0  0  0  0  0  0
   52.4102   30.4925   51.6715 C   0  0  0  0  0  0  0  0  0  0  0  0
   52.4460   29.6572   50.6204 N   0  0  0  0  0  0  0  0  0  0  0  0
   51.6543   30.2647   49.7085 C   0  0  0  0  0  0  0  0  0  0  0  0
   51.4322   29.7731   48.5697 O   0  0  0  0  0  0  0  0  0  0  0  0
   51.1177   31.4322   50.1148 N   0  0  0  0  0  0  0  0  0  0  0  0
   51.6066   31.5628   51.3598 C   0  0  0  0  0  0  0  0  0  0  0  0
   51.3218   32.6405   52.1931 O   0  0  0  0  0  0  0  0  0  0  0  0
 19 20  1  0
 20  1  1  0
  1  2  2  0
  2  3  1  0
  3  7  1  0
  7  8  2  0
  7  9  1  0
  9 10  1  0
 10 11  1  0
 11 12  1  0
 12 13  1  0
 13 14  2  0
 14 15  1  0
 15 16  2  0
 16 17  1  0
 17 18  2  0
  3  4  2  0
  4  5  1  0
  5  6  2  0
  6 21  1  0
 21 22  1  0
 22 23  1  0
 23 24  2  0
 23 25  1  0
 25 26  1  0
 26 27  1  0
 27 28  1  0
 28 29  2  0
 28 30  1  0
 30 31  1  0
 31 32  1  0
  6  1  1  0
 31 26  2  0
 18  9  1  0
 18 13  1  0
M  CHG 1  22  -1
M  CHG 1  27  -1
M  CHG 1  30  -1
M  CHG 1  32  -1
M  END
> <UniqueID>
56

> <SMILES>
COc1cc(C(=O)N2CCCc3ccccc32)ccc1C[N-]C(=O)Cc1[n-]c(=O)[n-]c1[O-]

> <Energy>
89.98399485681676

> <Genealogy>
COc1cc(C(=O)N2CCCc3ccccc32)ccc1C[N-]C(=O)Cc1[n-]c(=O)[n-]c1[O-] (protonated)
COc1cc(C(=O)N2CCCc3ccccc32)ccc1C[N-]C(=O)Cc1[n-]c(=O)[n-]c1[O-] (3D coordinates assigned)
COc1cc(C(=O)N2CCCc3ccccc32)ccc1C[N-]C(=O)Cc1[n-]c(=O)[n-]c1[O-] (nonaromatic ring conformer: 89.98399485681676 kcal/mol)

> <smiles>
COc1cc(C(=O)N2CCCc3ccccc32)ccc1CNC(=O)Cc1[nH]c(=O)[nH]c1O

> <score_type>
oracle

> <origin>
adg

> <m_score__min__energy>
-19.23

> <m_primary>
energy

> <minimizedAffinity>
-7.81735

> <minimizedRMSD>
0.57787

> <CNNscore>
0.3503603637

> <CNNaffinity>
6.3042769432

> <CNN_VS>
2.2087688446

> <CNNaffinity_variance>
0.1443471462

$$$$
75:0


 23 24  0  0  0  0  0  0  0  0999 V2000
   57.2820   32.0847   45.2552 N   0  0  0  0  0  0  0  0  0  0  0  0
   60.3759   32.6099   47.2811 C   0  0  0  0  0  0  0  0  0  0  0  0
   60.5856   33.9842   47.1127 C   0  0  0  0  0  0  0  0  0  0  0  0
   59.7084   34.7376   46.3285 C   0  0  0  0  0  0  0  0  0  0  0  0
   58.6163   34.1223   45.7105 C   0  0  0  0  0  0  0  0  0  0  0  0
   58.3860   32.7468   45.8890 C   0  0  0  0  0  0  0  0  0  0  0  0
   59.2838   31.9925   46.6533 C   0  0  0  0  0  0  0  0  0  0  0  0
   61.6442   32.3548   49.8203 N   0  0  0  0  0  0  0  0  0  0  0  0
   61.4931   31.6530   48.2480 S   0  0  0  0  0  0  0  0  0  0  0  0
   62.8406   31.6171   47.5820 O   0  0  0  0  0  0  0  0  0  0  0  0
   60.9821   30.2461   48.3767 O   0  0  0  0  0  0  0  0  0  0  0  0
   62.2917   31.7995   50.3797 H   0  0  0  0  0  0  0  0  0  0  0  0
   57.3621   31.2088   44.1216 C   0  0  0  0  0  0  0  0  0  0  0  0
   57.7023   31.6860   43.0074 O   0  0  0  0  0  0  0  0  0  0  0  0
   57.1259   29.7587   44.2294 C   0  0  0  0  0  0  0  0  0  0  0  0
   57.1758   29.1689   45.3845 N   0  0  0  0  0  0  0  0  0  0  0  0
   58.0725   28.1159   45.7797 C   0  0  0  0  0  0  0  0  0  0  0  0
   59.4656   28.3068   45.8945 C   0  0  0  0  0  0  0  0  0  0  0  0
   60.2910   27.2492   46.2892 C   0  0  0  0  0  0  0  0  0  0  0  0
   59.7397   25.9984   46.5799 C   0  0  0  0  0  0  0  0  0  0  0  0
   58.3607   25.8050   46.4810 C   0  0  0  0  0  0  0  0  0  0  0  0
   57.5290   26.8577   46.0844 C   0  0  0  0  0  0  0  0  0  0  0  0
   56.1562   26.6487   45.9918 O   0  0  0  0  0  0  0  0  0  0  0  0
  8  9  1  0
  9 10  2  0
  9 11  2  0
  9  2  1  0
  2  3  2  0
  3  4  1  0
  4  5  2  0
  5  6  1  0
  6  1  1  0
  1 13  1  0
 13 14  2  0
 13 15  1  0
 15 16  2  0
 16 17  1  0
 17 18  2  0
 18 19  1  0
 19 20  2  0
 20 21  1  0
 21 22  2  0
 22 23  1  0
  6  7  2  0
  7  2  1  0
 22 17  1  0
  8 12  1  0
M  CHG 1   1  -1
M  CHG 1   8  -1
M  CHG 1  23  -1
M  END
> <UniqueID>
69

> <SMILES>
[NH-]S(=O)(=O)c1cccc([N-]C(=O)/C=N/c2ccccc2[O-])c1

> <Energy>
39.110794978822256

> <Genealogy>
[NH-]S(=O)(=O)c1cccc([N-]C(=O)C=Nc2ccccc2[O-])c1 (protonated)
[NH-]S(=O)(=O)c1cccc([N-]C(=O)/C=N/c2ccccc2[O-])c1 (cis-trans isomerization)
[NH-]S(=O)(=O)c1cccc([N-]C(=O)/C=N/c2ccccc2[O-])c1 (3D coordinates assigned)
[NH-]S(=O)(=O)c1cccc([N-]C(=O)/C=N/c2ccccc2[O-])c1 (optimized conformer: 39.110794978822256 kcal/mol)

> <smiles>
NS(=O)(=O)c1cccc(NC(=O)C=Nc2ccccc2O)c1

> <score_type>
oracle

> <origin>
adg

> <m_score__min__energy>
-14.4

> <m_primary>
energy

> <minimizedAffinity>
-7.68854

> <minimizedRMSD>
1.09099

> <CNNscore>
0.7933989167

> <CNNaffinity>
6.0676350594

> <CNN_VS>
4.8140549660

> <CNNaffinity_variance>
0.0209157486

$$$$
7:0


 30 32  0  0  0  0  0  0  0  0999 V2000
   57.9878   31.4167   52.3985 C   0  0  0  0  0  0  0  0  0  0  0  0
   58.2393   31.3521   53.7735 C   0  0  0  0  0  0  0  0  0  0  0  0
   57.2697   30.8410   54.6407 C   0  0  0  0  0  0  0  0  0  0  0  0
   56.0464   30.3934   54.1381 C   0  0  0  0  0  0  0  0  0  0  0  0
   55.7892   30.4318   52.7556 C   0  0  0  0  0  0  0  0  0  0  0  0
   56.7642   30.9556   51.8938 C   0  0  0  0  0  0  0  0  0  0  0  0
   54.5187   30.0300   52.2149 N   0  0  0  0  0  0  0  0  0  0  0  0
   53.4467   29.4847   52.9976 C   0  0  0  0  0  0  0  0  0  0  0  0
   53.6646   29.0162   54.1482 O   0  0  0  0  0  0  0  0  0  0  0  0
   54.3753   30.1358   51.2467 H   0  0  0  0  0  0  0  0  0  0  0  0
   52.0535   29.4766   52.4527 C   0  0  0  0  0  0  0  0  0  0  0  0
   51.3143   30.6862   52.9349 C   0  0  0  0  0  0  0  0  0  0  0  0
   50.6296   30.8598   54.4645 S   0  0  0  0  0  0  0  0  0  0  0  0
   50.1620   32.4461   54.1642 C   0  0  0  0  0  0  0  0  0  0  0  0
   49.5486   33.1724   54.9889 O   0  0  0  0  0  0  0  0  0  0  0  0
   50.5203   32.8708   52.9348 N   0  0  0  0  0  0  0  0  0  0  0  0
   51.1696   31.8918   52.2520 C   0  0  0  0  0  0  0  0  0  0  0  0
   51.6494   32.0963   50.9639 O   0  0  0  0  0  0  0  0  0  0  0  0
   59.1817   32.1472   51.3273 S   0  0  0  0  0  0  0  0  0  0  0  0
   60.5569   31.6106   51.6145 O   0  0  0  0  0  0  0  0  0  0  0  0
   59.1864   33.6332   51.5479 O   0  0  0  0  0  0  0  0  0  0  0  0
   58.7763   31.8138   49.6739 N   0  0  0  0  0  0  0  0  0  0  0  0
   61.0582   33.4411   47.1492 C   0  0  0  0  0  0  0  0  0  0  0  0
   60.1061   33.9742   46.2747 C   0  0  0  0  0  0  0  0  0  0  0  0
   58.7420   33.7975   46.5209 C   0  0  0  0  0  0  0  0  0  0  0  0
   58.3193   33.0869   47.6459 C   0  0  0  0  0  0  0  0  0  0  0  0
   59.2546   32.5511   48.5387 C   0  0  0  0  0  0  0  0  0  0  0  0
   60.6271   32.7415   48.2919 C   0  0  0  0  0  0  0  0  0  0  0  0
   63.4775   33.4419   47.7830 C   0  0  0  0  0  0  0  0  0  0  0  0
   62.4174   33.6211   46.8489 O   0  0  0  0  0  0  0  0  0  0  0  0
 29 30  1  0
 30 23  1  0
 23 24  2  0
 24 25  1  0
 25 26  2  0
 26 27  1  0
 27 22  1  0
 22 19  1  0
 19 20  2  0
 19 21  2  0
 19  1  1  0
  1  2  2  0
  2  3  1  0
  3  4  2  0
  4  5  1  0
  5  7  1  0
  7  8  1  0
  8  9  2  0
  8 11  1  0
 11 12  1  0
 12 13  1  0
 13 14  1  0
 14 15  2  0
 14 16  1  0
 16 17  1  0
 17 18  1  0
  5  6  2  0
 27 28  2  0
 28 23  1  0
  6  1  1  0
 17 12  2  0
  7 10  1  0
M  CHG 1  16  -1
M  CHG 1  18  -1
M  CHG 1  22  -1
M  END
> <UniqueID>
8

> <SMILES>
COc1cccc([N-]S(=O)(=O)c2cccc(NC(=O)Cc3sc(=O)[n-]c3[O-])c2)c1

> <Energy>
78.2041768905757

> <Genealogy>
COc1cccc([N-]S(=O)(=O)c2cccc(NC(=O)Cc3sc(=O)[n-]c3[O-])c2)c1 (protonated)
COc1cccc([N-]S(=O)(=O)c2cccc(NC(=O)Cc3sc(=O)[n-]c3[O-])c2)c1 (3D coordinates assigned)
COc1cccc([N-]S(=O)(=O)c2cccc(NC(=O)Cc3sc(=O)[n-]c3[O-])c2)c1 (optimized conformer: 78.2041768905757 kcal/mol)

> <smiles>
COc1cccc(NS(=O)(=O)c2cccc(NC(=O)Cc3sc(=O)[nH]c3O)c2)c1

> <score_type>
oracle

> <origin>
adg

> <m_score__min__energy>
-17.530000000000001

> <m_primary>
energy

> <minimizedAffinity>
-7.10335

> <minimizedRMSD>
2.17839

> <CNNscore>
0.4824555516

> <CNNaffinity>
5.8205485344

> <CNN_VS>
2.8081560135

> <CNNaffinity_variance>
0.0091561051

$$$$
18:0


 25 27  0  0  0  0  0  0  0  0999 V2000
   58.5573   28.0971   45.5837 C   0  0  0  0  0  0  0  0  0  0  0  0
   59.6458   27.8402   46.4329 C   0  0  0  0  0  0  0  0  0  0  0  0
   60.0336   26.5260   46.7057 C   0  0  0  0  0  0  0  0  0  0  0  0
   59.3356   25.4560   46.1425 C   0  0  0  0  0  0  0  0  0  0  0  0
   58.2413   25.6928   45.2967 C   0  0  0  0  0  0  0  0  0  0  0  0
   57.8486   27.0154   45.0312 C   0  0  0  0  0  0  0  0  0  0  0  0
   57.7322   29.7841   44.1387 O   0  0  0  0  0  0  0  0  0  0  0  0
   58.1312   29.4877   45.2949 C   0  0  0  0  0  0  0  0  0  0  0  0
   58.1058   30.5011   46.3091 N   0  0  0  0  0  0  0  0  0  0  0  0
   58.5348   31.8629   46.1570 C   0  0  0  0  0  0  0  0  0  0  0  0
   57.7797   32.7983   45.4262 C   0  0  0  0  0  0  0  0  0  0  0  0
   58.2199   34.1206   45.3109 C   0  0  0  0  0  0  0  0  0  0  0  0
   59.4038   34.5227   45.9371 C   0  0  0  0  0  0  0  0  0  0  0  0
   59.8399   35.8364   45.8217 O   0  0  0  0  0  0  0  0  0  0  0  0
   60.1456   33.6017   46.6844 C   0  0  0  0  0  0  0  0  0  0  0  0
   59.7075   32.2786   46.7998 C   0  0  0  0  0  0  0  0  0  0  0  0
   57.4614   24.5411   44.7201 C   0  0  0  0  0  0  0  0  0  0  0  0
   56.8269   23.7323   45.8232 C   0  0  0  0  0  0  0  0  0  0  0  0
   57.3908   22.5108   46.2162 C   0  0  0  0  0  0  0  0  0  0  0  0
   56.7988   21.7672   47.1857 N   0  0  0  0  0  0  0  0  0  0  0  0
   55.6551   22.1826   47.7854 C   0  0  0  0  0  0  0  0  0  0  0  0
   55.1235   21.4786   48.6826 O   0  0  0  0  0  0  0  0  0  0  0  0
   55.0815   23.3560   47.4158 N   0  0  0  0  0  0  0  0  0  0  0  0
   55.6351   24.1351   46.4509 C   0  0  0  0  0  0  0  0  0  0  0  0
   55.0708   25.2154   46.1298 O   0  0  0  0  0  0  0  0  0  0  0  0
  7  8  2  0
  8  9  1  0
  9 10  1  0
 10 11  2  0
 11 12  1  0
 12 13  2  0
 13 14  1  0
 13 15  1  0
 15 16  2  0
  8  1  1  0
  1  2  2  0
  2  3  1  0
  3  4  2  0
  4  5  1  0
  5 17  1  0
 17 18  1  0
 18 19  2  0
 19 20  1  0
 20 21  1  0
 21 22  2  0
 21 23  1  0
 23 24  1  0
 24 25  2  0
  5  6  2  0
 16 10  1  0
  6  1  1  0
 24 18  1  0
M  CHG 1   9  -1
M  CHG 1  14  -1
M  CHG 1  20  -1
M  CHG 1  23  -1
M  END
> <UniqueID>
18

> <SMILES>
O=C([N-]c1ccc([O-])cc1)c1cccc(Cc2c[n-]c(=O)[n-]c2=O)c1

> <Energy>
46.755632701437236

> <Genealogy>
O=C([N-]c1ccc([O-])cc1)c1cccc(Cc2c[n-]c(=O)[n-]c2=O)c1 (protonated)
O=C([N-]c1ccc([O-])cc1)c1cccc(Cc2c[n-]c(=O)[n-]c2=O)c1 (3D coordinates assigned)
O=C([N-]c1ccc([O-])cc1)c1cccc(Cc2c[n-]c(=O)[n-]c2=O)c1 (optimized conformer: 46.755632701437236 kcal/mol)

> <smiles>
O=C(Nc1ccc(O)cc1)c1cccc(Cc2c[nH]c(=O)[nH]c2=O)c1

> <score_type>
oracle

> <origin>
adg

> <m_score__min__energy>
-14.25

> <m_primary>
energy

> <minimizedAffinity>
-7.84615

> <minimizedRMSD>
1.61567

> <CNNscore>
0.3075622916

> <CNNaffinity>
6.5436935425

> <CNN_VS>
2.0125932693

> <CNNaffinity_variance>
0.6507345438

$$$$
82:0


 23 24  0  0  0  0  0  0  0  0999 V2000
   57.1786   31.0002   52.4067 C   0  0  0  0  0  0  0  0  0  0  0  0
   57.9723   30.1950   52.9613 O   0  0  0  0  0  0  0  0  0  0  0  0
   57.5548   32.4225   52.3125 C   0  0  0  0  0  0  0  0  0  0  0  0
   58.7588   32.9242   52.6246 C   0  0  0  0  0  0  0  0  0  0  0  0
   59.8364   33.2158   51.6550 C   0  0  0  0  0  0  0  0  0  0  0  0
   61.1900   33.0722   52.0075 C   0  0  0  0  0  0  0  0  0  0  0  0
   62.1932   33.3235   51.0676 C   0  0  0  0  0  0  0  0  0  0  0  0
   61.8538   33.6950   49.7632 C   0  0  0  0  0  0  0  0  0  0  0  0
   62.8563   33.9462   48.8324 O   0  0  0  0  0  0  0  0  0  0  0  0
   60.5069   33.8060   49.3951 C   0  0  0  0  0  0  0  0  0  0  0  0
   60.1637   34.1643   48.0972 O   0  0  0  0  0  0  0  0  0  0  0  0
   59.5019   33.5576   50.3374 C   0  0  0  0  0  0  0  0  0  0  0  0
   55.9890   30.5362   51.8296 O   0  0  0  0  0  0  0  0  0  0  0  0
   54.7870   30.3230   52.5662 C   0  0  0  0  0  0  0  0  0  0  0  0
   53.5703   30.4201   51.6434 C   0  0  0  0  0  0  0  0  0  0  0  0
   52.3071   30.5760   52.4468 C   0  0  0  0  0  0  0  0  0  0  0  0
   51.8858   29.5524   53.3104 C   0  0  0  0  0  0  0  0  0  0  0  0
   50.7294   29.7110   54.0787 C   0  0  0  0  0  0  0  0  0  0  0  0
   49.9896   30.8953   53.9986 C   0  0  0  0  0  0  0  0  0  0  0  0
   48.8403   31.0454   54.7663 O   0  0  0  0  0  0  0  0  0  0  0  0
   50.4103   31.9260   53.1497 C   0  0  0  0  0  0  0  0  0  0  0  0
   49.6824   33.1071   53.0710 O   0  0  0  0  0  0  0  0  0  0  0  0
   51.5676   31.7688   52.3797 C   0  0  0  0  0  0  0  0  0  0  0  0
  3  1  1  0
  1  2  2  0
  1 13  1  0
 13 14  1  0
 14 15  1  0
 15 16  1  0
 16 17  2  0
 17 18  1  0
 18 19  2  0
 19 20  1  0
 19 21  1  0
 21 22  1  0
 21 23  2  0
  3  4  2  0
  4  5  1  0
  5  6  2  0
  6  7  1  0
  7  8  2  0
  8  9  1  0
  8 10  1  0
 10 11  1  0
 10 12  2  0
 23 16  1  0
 12  5  1  0
M  CHG 1   9  -1
M  CHG 1  11  -1
M  CHG 1  20  -1
M  CHG 1  22  -1
M  END
> <UniqueID>
77

> <SMILES>
O=C(/C=C\c1ccc([O-])c([O-])c1)OCCc1ccc([O-])c([O-])c1

> <Energy>
38.082385931285096

> <Genealogy>
O=C(C=Cc1ccc([O-])c([O-])c1)OCCc1ccc([O-])c([O-])c1 (protonated)
O=C(/C=C\c1ccc([O-])c([O-])c1)OCCc1ccc([O-])c([O-])c1 (cis-trans isomerization)
O=C(/C=C\c1ccc([O-])c([O-])c1)OCCc1ccc([O-])c([O-])c1 (3D coordinates assigned)
O=C(/C=C\c1ccc([O-])c([O-])c1)OCCc1ccc([O-])c([O-])c1 (optimized conformer: 38.082385931285096 kcal/mol)

> <smiles>
O=C(C=Cc1ccc(O)c(O)c1)OCCc1ccc(O)c(O)c1

> <score_type>
oracle

> <origin>
adg

> <m_score__min__energy>
-17.039999999999999

> <m_primary>
energy

> <minimizedAffinity>
-6.08930

> <minimizedRMSD>
1.52710

> <CNNscore>
0.6297565699

> <CNNaffinity>
4.8094563484

> <CNN_VS>
3.0287866592

> <CNNaffinity_variance>
0.2419856042

$$$$
7:0


 24 26  0  0  0  0  0  0  0  0999 V2000
   58.8143   32.4496   45.9321 C   0  0  0  0  0  0  0  0  0  0  0  0
   58.3761   31.0546   45.8759 N   0  0  0  0  0  0  0  0  0  0  0  0
   59.2747   29.9754   46.1599 C   0  0  0  0  0  0  0  0  0  0  0  0
   60.5159   30.1922   46.2160 O   0  0  0  0  0  0  0  0  0  0  0  0
   57.4424   30.8530   45.6375 H   0  0  0  0  0  0  0  0  0  0  0  0
   58.7672   28.5986   46.3589 C   0  0  0  0  0  0  0  0  0  0  0  0
   59.4267   27.7363   47.2499 C   0  0  0  0  0  0  0  0  0  0  0  0
   58.9676   26.4328   47.4382 C   0  0  0  0  0  0  0  0  0  0  0  0
   57.8388   25.9977   46.7414 C   0  0  0  0  0  0  0  0  0  0  0  0
   57.4138   24.8245   46.8952 O   0  0  0  0  0  0  0  0  0  0  0  0
   57.1937   26.8459   45.8985 N   0  0  0  0  0  0  0  0  0  0  0  0
   57.6177   28.1224   45.6952 C   0  0  0  0  0  0  0  0  0  0  0  0
   56.8833   28.9478   44.8517 O   0  0  0  0  0  0  0  0  0  0  0  0
   58.4839   33.0901   47.2862 C   0  0  0  0  0  0  0  0  0  0  0  0
   60.7982   32.1313   51.6716 C   0  0  0  0  0  0  0  0  0  0  0  0
   60.5867   32.4191   50.2566 N   0  0  0  0  0  0  0  0  0  0  0  0
   59.3920   32.4789   49.6220 C   0  0  0  0  0  0  0  0  0  0  0  0
   59.5732   32.8336   48.2889 C   0  0  0  0  0  0  0  0  0  0  0  0
   60.9368   33.0113   48.1272 C   0  0  0  0  0  0  0  0  0  0  0  0
   61.6924   33.3984   47.0187 C   0  0  0  0  0  0  0  0  0  0  0  0
   63.0826   33.5213   47.1802 C   0  0  0  0  0  0  0  0  0  0  0  0
   63.6845   33.2603   48.4305 C   0  0  0  0  0  0  0  0  0  0  0  0
   62.8997   32.8729   49.5312 C   0  0  0  0  0  0  0  0  0  0  0  0
   61.5214   32.7536   49.3434 C   0  0  0  0  0  0  0  0  0  0  0  0
 15 16  1  0
 16 17  1  0
 17 18  2  0
 18 14  1  0
 14  1  1  0
  1  2  1  0
  2  3  1  0
  3  4  2  0
  3  6  1  0
  6  7  1  0
  7  8  2  0
  8  9  1  0
  9 10  2  0
  9 11  1  0
 11 12  1  0
 12 13  1  0
 18 19  1  0
 19 20  2  0
 20 21  1  0
 21 22  2  0
 22 23  1  0
 23 24  2  0
 24 16  1  0
 12  6  2  0
 24 19  1  0
  2  5  1  0
M  CHG 1  11  -1
M  CHG 1  13  -1
M  END
> <UniqueID>
7

> <SMILES>
Cn1cc(CCNC(=O)c2ccc(=O)[n-]c2[O-])c2ccccc21

> <Energy>
72.95547135493298

> <Genealogy>
Cn1cc(CCNC(=O)c2ccc(=O)[n-]c2[O-])c2ccccc21 (protonated)
Cn1cc(CCNC(=O)c2ccc(=O)[n-]c2[O-])c2ccccc21 (3D coordinates assigned)
Cn1cc(CCNC(=O)c2ccc(=O)[n-]c2[O-])c2ccccc21 (optimized conformer: 72.95547135493298 kcal/mol)

> <smiles>
Cn1cc(CCNC(=O)c2ccc(=O)[nH]c2O)c2ccccc21

> <score_type>
oracle

> <origin>
adg

> <m_score__min__energy>
-14.58

> <m_primary>
energy

> <minimizedAffinity>
-7.16360

> <minimizedRMSD>
1.85397

> <CNNscore>
0.7261877656

> <CNNaffinity>
7.1802139282

> <CNN_VS>
5.2141833305

> <CNNaffinity_variance>
1.6704543829

$$$$
8:0


 29 31  0  0  0  0  0  0  0  0999 V2000
   59.5688   34.8305   46.3156 C   0  0  0  0  0  0  0  0  0  0  0  0
   58.8999   33.5666   45.8421 C   0  0  0  0  0  0  0  0  0  0  0  0
   58.5774   33.4519   44.4785 C   0  0  0  0  0  0  0  0  0  0  0  0
   57.9409   32.3142   43.9881 C   0  0  0  0  0  0  0  0  0  0  0  0
   57.6143   31.2631   44.8485 C   0  0  0  0  0  0  0  0  0  0  0  0
   57.9369   31.3601   46.2052 C   0  0  0  0  0  0  0  0  0  0  0  0
   58.5846   32.4971   46.7239 C   0  0  0  0  0  0  0  0  0  0  0  0
   56.8198   29.8153   44.2218 S   0  0  0  0  0  0  0  0  0  0  0  0
   55.3979   30.1466   43.8699 O   0  0  0  0  0  0  0  0  0  0  0  0
   57.5064   29.3370   42.9744 O   0  0  0  0  0  0  0  0  0  0  0  0
   56.7789   28.5663   45.4284 N   0  0  0  0  0  0  0  0  0  0  0  0
   57.8336   27.6622   45.7926 C   0  0  0  0  0  0  0  0  0  0  0  0
   59.1932   28.0241   45.7493 C   0  0  0  0  0  0  0  0  0  0  0  0
   60.1812   27.1072   46.1243 C   0  0  0  0  0  0  0  0  0  0  0  0
   59.8252   25.8205   46.5304 C   0  0  0  0  0  0  0  0  0  0  0  0
   58.4803   25.4508   46.5739 C   0  0  0  0  0  0  0  0  0  0  0  0
   57.4863   26.3661   46.2103 C   0  0  0  0  0  0  0  0  0  0  0  0
   56.1526   25.9805   46.2661 O   0  0  0  0  0  0  0  0  0  0  0  0
   58.9066   32.5183   48.1756 C   0  0  0  0  0  0  0  0  0  0  0  0
   58.1657   33.1421   48.9839 O   0  0  0  0  0  0  0  0  0  0  0  0
   60.0942   31.8535   48.6408 N   0  0  0  0  0  0  0  0  0  0  0  0
   61.3071   32.3248   48.6667 C   0  0  0  0  0  0  0  0  0  0  0  0
   62.3300   31.6795   48.0377 N   0  0  0  0  0  0  0  0  0  0  0  0
   63.6031   32.1546   48.0533 C   0  0  0  0  0  0  0  0  0  0  0  0
   63.8964   33.3409   48.7274 C   0  0  0  0  0  0  0  0  0  0  0  0
   62.8701   34.0310   49.3723 C   0  0  0  0  0  0  0  0  0  0  0  0
   61.5663   33.5243   49.3486 C   0  0  0  0  0  0  0  0  0  0  0  0
   60.5345   34.2011   49.9949 O   0  0  0  0  0  0  0  0  0  0  0  0
   60.7113   35.0014   50.4490 H   0  0  0  0  0  0  0  0  0  0  0  0
  1  2  1  0
  2  3  2  0
  3  4  1  0
  4  5  2  0
  5  8  1  0
  8  9  2  0
  8 10  2  0
  8 11  1  0
 11 12  1  0
 12 13  2  0
 13 14  1  0
 14 15  2  0
 15 16  1  0
 16 17  2  0
 17 18  1  0
  5  6  1  0
  6  7  2  0
  7 19  1  0
 19 20  2  0
 19 21  1  0
 21 22  2  0
 22 23  1  0
 23 24  1  0
 24 25  2  0
 25 26  1  0
 26 27  2  0
 27 28  1  0
  7  2  1  0
 27 22  1  0
 17 12  1  0
 28 29  1  0
M  CHG 1  11  -1
M  CHG 1  18  -1
M  CHG 1  23  -1
M  END
> <UniqueID>
8

> <SMILES>
Cc1ccc(S(=O)(=O)[N-]c2ccccc2[O-])cc1C(=O)N=c1[n-]cccc1O

> <Energy>
56.97548275993842

> <Genealogy>
Cc1ccc(S(=O)(=O)[N-]c2ccccc2[O-])cc1C(=O)N=c1[n-]cccc1O (protonated)
Cc1ccc(S(=O)(=O)[N-]c2ccccc2[O-])cc1C(=O)N=c1[n-]cccc1O (3D coordinates assigned)
Cc1ccc(S(=O)(=O)[N-]c2ccccc2[O-])cc1C(=O)N=c1[n-]cccc1O (optimized conformer: 56.97548275993842 kcal/mol)

> <smiles>
Cc1ccc(S(=O)(=O)Nc2ccccc2O)cc1C(=O)N=c1[nH]cccc1O

> <score_type>
oracle

> <origin>
adg

> <m_score__min__energy>
-15.470000000000001

> <m_primary>
energy

> <minimizedAffinity>
-6.70154

> <minimizedRMSD>
1.15539

> <CNNscore>
0.5028343201

> <CNNaffinity>
6.5101165771

> <CNN_VS>
3.2735099792

> <CNNaffinity_variance>
0.1836102158

$$$$
14:0


 26 28  0  0  0  0  0  0  0  0999 V2000
   57.8683   30.5592   44.6004 S   0  0  0  0  0  0  0  0  0  0  0  0
   57.7843   31.2057   43.2464 O   0  0  0  0  0  0  0  0  0  0  0  0
   56.4764   30.3046   45.1078 O   0  0  0  0  0  0  0  0  0  0  0  0
   58.7039   31.6054   45.7438 C   0  0  0  0  0  0  0  0  0  0  0  0
   58.1920   32.8804   46.0219 C   0  0  0  0  0  0  0  0  0  0  0  0
   58.8372   33.7168   46.9394 C   0  0  0  0  0  0  0  0  0  0  0  0
   60.0019   33.2845   47.5829 C   0  0  0  0  0  0  0  0  0  0  0  0
   60.6302   34.0949   48.4759 N   0  0  0  0  0  0  0  0  0  0  0  0
   61.7628   33.7076   49.1183 C   0  0  0  0  0  0  0  0  0  0  0  0
   62.3160   34.4863   49.9391 O   0  0  0  0  0  0  0  0  0  0  0  0
   62.3146   32.4451   48.8708 C   0  0  0  0  0  0  0  0  0  0  0  0
   61.6925   31.5912   47.9585 C   0  0  0  0  0  0  0  0  0  0  0  0
   60.5254   32.0023   47.3019 C   0  0  0  0  0  0  0  0  0  0  0  0
   59.8740   31.1685   46.3824 C   0  0  0  0  0  0  0  0  0  0  0  0
   58.7093   29.0477   44.4566 N   0  0  0  0  0  0  0  0  0  0  0  0
   59.3750   28.9556   43.7372 H   0  0  0  0  0  0  0  0  0  0  0  0
   57.1366   25.9695   45.9195 C   0  0  0  0  0  0  0  0  0  0  0  0
   57.3935   27.0786   45.0930 C   0  0  0  0  0  0  0  0  0  0  0  0
   58.4926   27.9201   45.3257 C   0  0  0  0  0  0  0  0  0  0  0  0
   59.3555   27.6348   46.3977 C   0  0  0  0  0  0  0  0  0  0  0  0
   59.1121   26.5387   47.2235 C   0  0  0  0  0  0  0  0  0  0  0  0
   58.0134   25.7060   46.9949 C   0  0  0  0  0  0  0  0  0  0  0  0
   57.8076   24.6236   47.8453 O   0  0  0  0  0  0  0  0  0  0  0  0
   54.8031   25.4539   46.0001 O   0  0  0  0  0  0  0  0  0  0  0  0
   55.9584   25.1103   45.6385 C   0  0  0  0  0  0  0  0  0  0  0  0
   56.1139   23.9021   44.9672 O   0  0  0  0  0  0  0  0  0  0  0  0
 24 25  2  0
 25 26  1  0
 25 17  1  0
 17 18  2  0
 18 19  1  0
 19 15  1  0
 15  1  1  0
  1  2  2  0
  1  3  2  0
  1  4  1  0
  4  5  2  0
  5  6  1  0
  6  7  2  0
  7  8  1  0
  8  9  1  0
  9 10  2  0
  9 11  1  0
 11 12  2  0
 12 13  1  0
 13 14  2  0
 19 20  2  0
 20 21  1  0
 21 22  2  0
 22 23  1  0
 22 17  1  0
 14  4  1  0
 13  7  1  0
 15 16  1  0
M  CHG 1   8  -1
M  CHG 1  23  -1
M  CHG 1  26  -1
M  END
> <UniqueID>
14

> <SMILES>
O=C([O-])c1cc(NS(=O)(=O)c2ccc3[n-]c(=O)ccc3c2)ccc1[O-]

> <Energy>
45.32865719949602

> <Genealogy>
O=C([O-])c1cc(NS(=O)(=O)c2ccc3[n-]c(=O)ccc3c2)ccc1[O-] (protonated)
O=C([O-])c1cc(NS(=O)(=O)c2ccc3[n-]c(=O)ccc3c2)ccc1[O-] (3D coordinates assigned)
O=C([O-])c1cc(NS(=O)(=O)c2ccc3[n-]c(=O)ccc3c2)ccc1[O-] (optimized conformer: 45.32865719949602 kcal/mol)

> <smiles>
O=C(O)c1cc(NS(=O)(=O)c2ccc3[nH]c(=O)ccc3c2)ccc1O

> <score_type>
oracle

> <origin>
adg

> <m_score__min__energy>
-16.27

> <m_primary>
energy

> <minimizedAffinity>
-8.26845

> <minimizedRMSD>
0.85090

> <CNNscore>
0.7749526501

> <CNNaffinity>
7.0530724525

> <CNN_VS>
5.4657974243

> <CNNaffinity_variance>
0.8728801608

$$$$
30:0


 27 28  0  0  0  0  0  0  0  0999 V2000
   58.1014   31.0066   45.4755 N   0  0  0  0  0  0  0  0  0  0  0  0
   58.7922   31.0880   46.7760 C   0  0  0  0  0  0  0  0  0  0  0  0
   58.4799   32.1203   44.5783 C   0  0  0  0  0  0  0  0  0  0  0  0
   58.3496   33.4755   45.2226 C   0  0  0  0  0  0  0  0  0  0  0  0
   57.2043   33.9532   45.4395 O   0  0  0  0  0  0  0  0  0  0  0  0
   59.5262   34.1751   45.6470 N   0  0  0  0  0  0  0  0  0  0  0  0
   62.2809   33.5142   48.0889 C   0  0  0  0  0  0  0  0  0  0  0  0
   61.6197   33.7178   49.3063 C   0  0  0  0  0  0  0  0  0  0  0  0
   60.2694   34.0757   49.3259 C   0  0  0  0  0  0  0  0  0  0  0  0
   59.5643   34.2247   48.1290 C   0  0  0  0  0  0  0  0  0  0  0  0
   60.2066   34.0055   46.8985 C   0  0  0  0  0  0  0  0  0  0  0  0
   61.5682   33.6699   46.8834 C   0  0  0  0  0  0  0  0  0  0  0  0
   64.3640   32.8654   49.3129 C   0  0  0  0  0  0  0  0  0  0  0  0
   63.6373   33.1592   48.1219 O   0  0  0  0  0  0  0  0  0  0  0  0
   58.2870   29.6855   44.8405 C   0  0  0  0  0  0  0  0  0  0  0  0
   57.2034   28.7460   45.2684 C   0  0  0  0  0  0  0  0  0  0  0  0
   56.0731   28.8040   44.7099 O   0  0  0  0  0  0  0  0  0  0  0  0
   57.4736   27.7585   46.2688 N   0  0  0  0  0  0  0  0  0  0  0  0
   57.5983   26.3483   46.0405 C   0  0  0  0  0  0  0  0  0  0  0  0
   58.8825   25.7992   45.9501 C   0  0  0  0  0  0  0  0  0  0  0  0
   59.0548   24.4284   45.7404 C   0  0  0  0  0  0  0  0  0  0  0  0
   57.9465   23.5815   45.6346 C   0  0  0  0  0  0  0  0  0  0  0  0
   56.6528   24.1253   45.7521 C   0  0  0  0  0  0  0  0  0  0  0  0
   56.4782   25.4967   45.9712 C   0  0  0  0  0  0  0  0  0  0  0  0
   55.1905   25.9896   46.1533 O   0  0  0  0  0  0  0  0  0  0  0  0
   58.1718   22.2129   45.4210 O   0  0  0  0  0  0  0  0  0  0  0  0
   57.1663   21.2840   45.0300 C   0  0  0  0  0  0  0  0  0  0  0  0
 13 14  1  0
 14  7  1  0
  7  8  2  0
  8  9  1  0
  9 10  2  0
 10 11  1  0
 11  6  1  0
  6  4  1  0
  4  5  2  0
  4  3  1  0
  3  1  1  0
  1  2  1  0
  1 15  1  0
 15 16  1  0
 16 17  2  0
 16 18  1  0
 18 19  1  0
 19 20  2  0
 20 21  1  0
 21 22  2  0
 22 26  1  0
 26 27  1  0
 22 23  1  0
 23 24  2  0
 24 25  1  0
 11 12  2  0
 12  7  1  0
 24 19  1  0
M  CHG 1   6  -1
M  CHG 1  18  -1
M  CHG 1  25  -1
M  END
> <UniqueID>
30

> <SMILES>
COc1cccc([N-]C(=O)CN(C)CC(=O)[N-]c2ccc(OC)cc2[O-])c1

> <Energy>
55.74675594275869

> <Genealogy>
COc1cccc([N-]C(=O)CN(C)CC(=O)[N-]c2ccc(OC)cc2[O-])c1 (protonated)
COc1cccc([N-]C(=O)CN(C)CC(=O)[N-]c2ccc(OC)cc2[O-])c1 (3D coordinates assigned)
COc1cccc([N-]C(=O)CN(C)CC(=O)[N-]c2ccc(OC)cc2[O-])c1 (optimized conformer: 55.74675594275869 kcal/mol)

> <smiles>
COc1cccc(NC(=O)CN(C)CC(=O)Nc2ccc(OC)cc2O)c1

> <score_type>
oracle

> <origin>
adg

> <m_score__min__energy>
-14.77

> <m_primary>
energy

> <minimizedAffinity>
-6.47696

> <minimizedRMSD>
0.96951

> <CNNscore>
0.4522380829

> <CNNaffinity>
6.2194695473

> <CNN_VS>
2.8126809597

> <CNNaffinity_variance>
0.0151914060

$$$$
38:0


 29 31  0  0  0  0  0  0  0  0999 V2000
   60.8104   29.7011   48.5654 C   0  0  0  0  0  0  0  0  0  0  0  0
   61.0741   30.5007   49.6796 C   0  0  0  0  0  0  0  0  0  0  0  0
   61.0636   29.9460   50.9596 C   0  0  0  0  0  0  0  0  0  0  0  0
   60.7781   28.5913   51.1136 C   0  0  0  0  0  0  0  0  0  0  0  0
   60.4744   27.8320   50.0293 N   0  0  0  0  0  0  0  0  0  0  0  0
   60.4566   28.3438   48.7668 C   0  0  0  0  0  0  0  0  0  0  0  0
   60.0398   27.4712   47.6550 C   0  0  0  0  0  0  0  0  0  0  0  0
   60.8202   27.2621   46.6855 O   0  0  0  0  0  0  0  0  0  0  0  0
   58.7426   26.8705   47.6785 N   0  0  0  0  0  0  0  0  0  0  0  0
   57.7960   26.9459   46.5722 C   0  0  0  0  0  0  0  0  0  0  0  0
   57.5135   25.5610   46.0490 C   0  0  0  0  0  0  0  0  0  0  0  0
   58.5901   24.6966   45.7880 C   0  0  0  0  0  0  0  0  0  0  0  0
   58.3593   23.3940   45.3354 C   0  0  0  0  0  0  0  0  0  0  0  0
   57.0530   22.9422   45.1476 C   0  0  0  0  0  0  0  0  0  0  0  0
   55.9731   23.7867   45.4141 C   0  0  0  0  0  0  0  0  0  0  0  0
   56.1953   25.0944   45.8629 C   0  0  0  0  0  0  0  0  0  0  0  0
   55.1030   25.9173   46.1186 O   0  0  0  0  0  0  0  0  0  0  0  0
   60.9257   30.2681   47.2891 O   0  0  0  0  0  0  0  0  0  0  0  0
   57.9978   30.8229   45.0321 C   0  0  0  0  0  0  0  0  0  0  0  0
   57.7773   32.1898   45.2513 C   0  0  0  0  0  0  0  0  0  0  0  0
   58.6016   32.9014   46.1274 C   0  0  0  0  0  0  0  0  0  0  0  0
   59.6379   32.2498   46.8012 C   0  0  0  0  0  0  0  0  0  0  0  0
   59.8742   30.8865   46.5902 C   0  0  0  0  0  0  0  0  0  0  0  0
   59.0619   30.1820   45.6772 C   0  0  0  0  0  0  0  0  0  0  0  0
   55.4354   29.6235   44.7010 N   0  0  0  0  0  0  0  0  0  0  0  0
   56.9612   29.9078   43.9422 S   0  0  0  0  0  0  0  0  0  0  0  0
   56.7546   30.6840   42.6721 O   0  0  0  0  0  0  0  0  0  0  0  0
   57.6004   28.5894   43.6020 O   0  0  0  0  0  0  0  0  0  0  0  0
   54.8351   29.0934   44.0694 H   0  0  0  0  0  0  0  0  0  0  0  0
 25 26  1  0
 26 27  2  0
 26 28  2  0
 26 19  1  0
 19 20  2  0
 20 21  1  0
 21 22  2  0
 22 23  1  0
 23 18  1  0
 18  1  1  0
  1  2  2  0
  2  3  1  0
  3  4  2  0
  4  5  1  0
  5  6  2  0
  6  7  1  0
  7  8  2  0
  7  9  1  0
  9 10  1  0
 10 11  1  0
 11 12  2  0
 12 13  1  0
 13 14  2  0
 14 15  1  0
 15 16  2  0
 16 17  1  0
 23 24  2  0
 24 19  1  0
  6  1  1  0
 16 11  1  0
 25 29  1  0
M  CHG 1   9  -1
M  CHG 1  17  -1
M  CHG 1  25  -1
M  END
> <UniqueID>
38

> <SMILES>
[NH-]S(=O)(=O)c1cccc(Oc2cccnc2C(=O)[N-]Cc2ccccc2[O-])c1

> <Energy>
54.35924119717904

> <Genealogy>
[NH-]S(=O)(=O)c1cccc(Oc2cccnc2C(=O)[N-]Cc2ccccc2[O-])c1 (protonated)
[NH-]S(=O)(=O)c1cccc(Oc2cccnc2C(=O)[N-]Cc2ccccc2[O-])c1 (3D coordinates assigned)
[NH-]S(=O)(=O)c1cccc(Oc2cccnc2C(=O)[N-]Cc2ccccc2[O-])c1 (optimized conformer: 54.35924119717904 kcal/mol)

> <smiles>
NS(=O)(=O)c1cccc(Oc2cccnc2C(=O)NCc2ccccc2O)c1

> <score_type>
oracle

> <origin>
adg

> <m_score__min__energy>
-15.52

> <m_primary>
energy

> <minimizedAffinity>
-7.64094

> <minimizedRMSD>
0.49216

> <CNNscore>
0.7943723798

> <CNNaffinity>
6.9452490807

> <CNN_VS>
5.5171141624

> <CNNaffinity_variance>
0.0739416555

$$$$
50:0


 25 26  0  0  0  0  0  0  0  0999 V2000
   57.9776   26.3246   45.0956 C   0  0  0  0  0  0  0  0  0  0  0  0
   58.3250   27.4848   45.6857 C   0  0  0  0  0  0  0  0  0  0  0  0
   55.2927   26.4166   46.0505 O   0  0  0  0  0  0  0  0  0  0  0  0
   56.0295   25.2479   46.2282 C   0  0  0  0  0  0  0  0  0  0  0  0
   55.4541   24.1757   46.8371 N   0  0  0  0  0  0  0  0  0  0  0  0
   56.1420   23.0198   47.0200 C   0  0  0  0  0  0  0  0  0  0  0  0
   55.5910   22.0444   47.5896 O   0  0  0  0  0  0  0  0  0  0  0  0
   57.4226   22.9144   46.5813 N   0  0  0  0  0  0  0  0  0  0  0  0
   58.0424   23.9543   45.9654 C   0  0  0  0  0  0  0  0  0  0  0  0
   59.2205   23.8097   45.5445 O   0  0  0  0  0  0  0  0  0  0  0  0
   57.3600   25.1724   45.7921 C   0  0  0  0  0  0  0  0  0  0  0  0
   54.4041   26.4594   46.3446 H   0  0  0  0  0  0  0  0  0  0  0  0
   59.1167   27.4212   46.8889 C   0  0  0  0  0  0  0  0  0  0  0  0
   59.7529   27.3710   47.8561 N   0  0  0  0  0  0  0  0  0  0  0  0
   57.9894   28.8258   45.1471 C   0  0  0  0  0  0  0  0  0  0  0  0
   57.8744   29.0084   43.9052 O   0  0  0  0  0  0  0  0  0  0  0  0
   57.7909   29.9165   46.0573 N   0  0  0  0  0  0  0  0  0  0  0  0
   58.3113   31.2465   45.9249 C   0  0  0  0  0  0  0  0  0  0  0  0
   57.6381   32.1510   45.0927 C   0  0  0  0  0  0  0  0  0  0  0  0
   58.0996   33.4624   44.9518 C   0  0  0  0  0  0  0  0  0  0  0  0
   59.2318   33.8871   45.6528 C   0  0  0  0  0  0  0  0  0  0  0  0
   59.6707   35.1625   45.5106 F   0  0  0  0  0  0  0  0  0  0  0  0
   59.8966   32.9991   46.5077 C   0  0  0  0  0  0  0  0  0  0  0  0
   61.3026   33.5313   47.4162 Cl  0  0  0  0  0  0  0  0  0  0  0  0
   59.4351   31.6853   46.6493 C   0  0  0  0  0  0  0  0  0  0  0  0
  3  4  1  0
  4  5  1  0
  5  6  1  0
  6  7  2  0
  6  8  1  0
  8  9  1  0
  9 10  2  0
  9 11  1  0
 11  1  1  0
  1  2  2  0
  2 13  1  0
 13 14  3  0
  2 15  1  0
 15 16  2  0
 15 17  1  0
 17 18  1  0
 18 19  2  0
 19 20  1  0
 20 21  2  0
 21 22  1  0
 21 23  1  0
 23 24  1  0
 23 25  2  0
 11  4  2  0
 25 18  1  0
  3 12  1  0
M  CHG 1   5  -1
M  CHG 1   8  -1
M  CHG 1  17  -1
M  END
> <UniqueID>
48

> <SMILES>
N#C/C(=C/c1c(O)[n-]c(=O)[n-]c1=O)C(=O)[N-]c1ccc(F)c(Cl)c1

> <Energy>
43.84825959251094

> <Genealogy>
N#CC(=Cc1c(O)[n-]c(=O)[n-]c1=O)C(=O)[N-]c1ccc(F)c(Cl)c1 (protonated)
N#C/C(=C/c1c(O)[n-]c(=O)[n-]c1=O)C(=O)[N-]c1ccc(F)c(Cl)c1 (cis-trans isomerization)
N#C/C(=C/c1c(O)[n-]c(=O)[n-]c1=O)C(=O)[N-]c1ccc(F)c(Cl)c1 (3D coordinates assigned)
N#C/C(=C/c1c(O)[n-]c(=O)[n-]c1=O)C(=O)[N-]c1ccc(F)c(Cl)c1 (optimized conformer: 43.84825959251094 kcal/mol)

> <smiles>
N#CC(=Cc1c(O)[nH]c(=O)[nH]c1=O)C(=O)Nc1ccc(F)c(Cl)c1

> <score_type>
oracle

> <origin>
adg

> <m_score__min__energy>
-14.02

> <m_primary>
energy

> <minimizedAffinity>
-8.20506

> <minimizedRMSD>
1.11056

> <CNNscore>
0.6438384652

> <CNNaffinity>
6.7719330788

> <CNN_VS>
4.3600311279

> <CNNaffinity_variance>
0.0599053800

$$$$
83:0


 30 32  0  0  0  0  0  0  0  0999 V2000
   58.0801   31.4196   45.6208 C   0  0  0  0  0  0  0  0  0  0  0  0
   57.9771   32.4789   44.7044 C   0  0  0  0  0  0  0  0  0  0  0  0
   58.5825   33.7069   44.9818 C   0  0  0  0  0  0  0  0  0  0  0  0
   59.2896   33.8945   46.1718 C   0  0  0  0  0  0  0  0  0  0  0  0
   59.8842   35.1284   46.4158 O   0  0  0  0  0  0  0  0  0  0  0  0
   59.3868   32.8434   47.1054 C   0  0  0  0  0  0  0  0  0  0  0  0
   58.7661   31.6183   46.8253 C   0  0  0  0  0  0  0  0  0  0  0  0
   60.2633   33.0141   48.6324 S   0  0  0  0  0  0  0  0  0  0  0  0
   59.9903   31.7904   49.4629 O   0  0  0  0  0  0  0  0  0  0  0  0
   59.7954   34.2253   49.3915 O   0  0  0  0  0  0  0  0  0  0  0  0
   61.9818   33.1356   48.3147 N   0  0  0  0  0  0  0  0  0  0  0  0
   62.6071   34.2165   49.1011 C   0  0  0  0  0  0  0  0  0  0  0  0
   62.7973   33.8308   50.5891 C   0  0  0  0  0  0  0  0  0  0  0  0
   62.7302   32.4347   50.8301 O   0  0  0  0  0  0  0  0  0  0  0  0
   63.4279   31.7353   49.8241 C   0  0  0  0  0  0  0  0  0  0  0  0
   62.6712   31.8366   48.4884 C   0  0  0  0  0  0  0  0  0  0  0  0
   57.4526   30.1516   45.3879 N   0  0  0  0  0  0  0  0  0  0  0  0
   57.8262   28.5102   43.7567 O   0  0  0  0  0  0  0  0  0  0  0  0
   58.0977   28.9684   44.8995 C   0  0  0  0  0  0  0  0  0  0  0  0
   59.1071   28.2711   45.7620 C   0  0  0  0  0  0  0  0  0  0  0  0
   58.4317   27.4913   46.8982 C   0  0  0  0  0  0  0  0  0  0  0  0
   57.8646   26.1780   46.4177 C   0  0  0  0  0  0  0  0  0  0  0  0
   58.7209   25.1495   45.9922 C   0  0  0  0  0  0  0  0  0  0  0  0
   58.1946   23.9460   45.5127 C   0  0  0  0  0  0  0  0  0  0  0  0
   56.8075   23.7579   45.4496 C   0  0  0  0  0  0  0  0  0  0  0  0
   56.2773   22.5576   44.9775 O   0  0  0  0  0  0  0  0  0  0  0  0
   55.9484   24.7840   45.8643 C   0  0  0  0  0  0  0  0  0  0  0  0
   54.5703   24.6053   45.8069 O   0  0  0  0  0  0  0  0  0  0  0  0
   56.4747   25.9914   46.3422 C   0  0  0  0  0  0  0  0  0  0  0  0
   56.8497   21.8698   44.6995 H   0  0  0  0  0  0  0  0  0  0  0  0
 18 19  2  0
 19 20  1  0
 20 21  1  0
 21 22  1  0
 22 23  2  0
 23 24  1  0
 24 25  2  0
 25 26  1  0
 25 27  1  0
 27 28  1  0
 27 29  2  0
 19 17  1  0
 17  1  1  0
  1  2  2  0
  2  3  1  0
  3  4  2  0
  4  5  1  0
  4  6  1  0
  6  8  1  0
  8  9  2  0
  8 10  2  0
  8 11  1  0
 11 12  1  0
 12 13  1  0
 13 14  1  0
 14 15  1  0
 15 16  1  0
  6  7  2  0
 29 22  1  0
  7  1  1  0
 16 11  1  0
 26 30  1  0
M  CHG 1   5  -1
M  CHG 1  17  -1
M  CHG 1  28  -1
M  END
> <UniqueID>
80

> <SMILES>
O=C(CCc1ccc(O)c([O-])c1)[N-]c1ccc([O-])c(S(=O)(=O)N2CCOCC2)c1

> <Energy>
60.186081569837825

> <Genealogy>
O=C(CCc1ccc(O)c([O-])c1)[N-]c1ccc([O-])c(S(=O)(=O)N2CCOCC2)c1 (protonated)
O=C(CCc1ccc(O)c([O-])c1)[N-]c1ccc([O-])c(S(=O)(=O)N2CCOCC2)c1 (3D coordinates assigned)
O=C(CCc1ccc(O)c([O-])c1)[N-]c1ccc([O-])c(S(=O)(=O)N2CCOCC2)c1 (nonaromatic ring conformer: 60.186081569837825 kcal/mol)

> <smiles>
O=C(CCc1ccc(O)c(O)c1)Nc1ccc(O)c(S(=O)(=O)N2CCOCC2)c1

> <score_type>
oracle

> <origin>
adg

> <m_score__min__energy>
-15.130000000000001

> <m_primary>
energy

> <minimizedAffinity>
-8.16149

> <minimizedRMSD>
1.75303

> <CNNscore>
0.7230879664

> <CNNaffinity>
7.0983638763

> <CNN_VS>
5.1327414513

> <CNNaffinity_variance>
0.3005132377

$$$$
2:0


 29 31  0  0  0  0  0  0  0  0999 V2000
   59.4680   29.6955   46.8035 C   0  0  0  0  0  0  0  0  0  0  0  0
   60.6986   29.3787   46.2174 C   0  0  0  0  0  0  0  0  0  0  0  0
   60.9309   28.0917   45.7255 C   0  0  0  0  0  0  0  0  0  0  0  0
   59.9356   27.1146   45.8186 C   0  0  0  0  0  0  0  0  0  0  0  0
   58.7013   27.4142   46.4205 C   0  0  0  0  0  0  0  0  0  0  0  0
   58.4676   28.7158   46.8913 C   0  0  0  0  0  0  0  0  0  0  0  0
   57.6476   26.4404   46.4969 N   0  0  0  0  0  0  0  0  0  0  0  0
   57.7995   25.0587   46.1207 C   0  0  0  0  0  0  0  0  0  0  0  0
   58.9100   24.6308   45.7061 O   0  0  0  0  0  0  0  0  0  0  0  0
   56.7682   26.7358   46.8265 H   0  0  0  0  0  0  0  0  0  0  0  0
   56.6590   24.1217   46.2054 C   0  0  0  0  0  0  0  0  0  0  0  0
   55.3213   24.5612   46.1326 C   0  0  0  0  0  0  0  0  0  0  0  0
   55.0159   25.9123   46.0199 O   0  0  0  0  0  0  0  0  0  0  0  0
   54.3039   23.6592   46.2059 N   0  0  0  0  0  0  0  0  0  0  0  0
   54.5316   22.3285   46.3627 C   0  0  0  0  0  0  0  0  0  0  0  0
   53.5605   21.5307   46.4203 O   0  0  0  0  0  0  0  0  0  0  0  0
   55.8397   21.8518   46.4642 C   0  0  0  0  0  0  0  0  0  0  0  0
   56.9031   22.7522   46.3919 C   0  0  0  0  0  0  0  0  0  0  0  0
   59.1707   31.3320   47.3820 S   0  0  0  0  0  0  0  0  0  0  0  0
   58.6664   31.3123   48.7989 O   0  0  0  0  0  0  0  0  0  0  0  0
   60.4576   32.1069   47.3455 O   0  0  0  0  0  0  0  0  0  0  0  0
   56.4248   30.0261   43.9449 C   0  0  0  0  0  0  0  0  0  0  0  0
   56.8395   30.5326   45.1360 N   0  0  0  0  0  0  0  0  0  0  0  0
   57.6230   31.6455   45.2119 C   0  0  0  0  0  0  0  0  0  0  0  0
   58.0057   32.1129   46.3617 N   0  0  0  0  0  0  0  0  0  0  0  0
   58.0216   32.2927   44.0362 C   0  0  0  0  0  0  0  0  0  0  0  0
   57.6210   31.7804   42.7937 C   0  0  0  0  0  0  0  0  0  0  0  0
   58.0070   32.4836   41.5270 C   0  0  0  0  0  0  0  0  0  0  0  0
   56.8024   30.6449   42.7521 C   0  0  0  0  0  0  0  0  0  0  0  0
 22 23  1  0
 23 24  1  0
 24 25  2  0
 25 19  1  0
 19 20  2  0
 19 21  2  0
 19  1  1  0
  1  2  2  0
  2  3  1  0
  3  4  2  0
  4  5  1  0
  5  7  1  0
  7  8  1  0
  8  9  2  0
  8 11  1  0
 11 12  2  0
 12 13  1  0
 12 14  1  0
 14 15  1  0
 15 16  2  0
 15 17  1  0
 17 18  2  0
  5  6  2  0
 24 26  1  0
 26 27  2  0
 27 28  1  0
 27 29  1  0
 29 22  2  0
  6  1  1  0
 18 11  1  0
  7 10  1  0
M  CHG 1  13  -1
M  CHG 1  14  -1
M  CHG 1  23  -1
M  END
> <UniqueID>
3

> <SMILES>
Cc1cc[n-]/c(=N\S(=O)(=O)c2cccc(NC(=O)c3ccc(=O)[n-]c3[O-])c2)c1

> <Energy>
56.434806105597225

> <Genealogy>
Cc1cc[n-]c(=NS(=O)(=O)c2cccc(NC(=O)c3ccc(=O)[n-]c3[O-])c2)c1 (protonated)
Cc1cc[n-]/c(=N\S(=O)(=O)c2cccc(NC(=O)c3ccc(=O)[n-]c3[O-])c2)c1 (cis-trans isomerization)
Cc1cc[n-]/c(=N\S(=O)(=O)c2cccc(NC(=O)c3ccc(=O)[n-]c3[O-])c2)c1 (3D coordinates assigned)
Cc1cc[n-]/c(=N\S(=O)(=O)c2cccc(NC(=O)c3ccc(=O)[n-]c3[O-])c2)c1 (optimized conformer: 56.434806105597225 kcal/mol)

> <smiles>
Cc1cc[nH]c(=NS(=O)(=O)c2cccc(NC(=O)c3ccc(=O)[nH]c3O)c2)c1

> <score_type>
oracle

> <origin>
adg

> <m_score__min__energy>
-15.91

> <m_primary>
energy

> <minimizedAffinity>
-7.40927

> <minimizedRMSD>
0.86266

> <CNNscore>
0.3005253673

> <CNNaffinity>
6.4810085297

> <CNN_VS>
1.9477074146

> <CNNaffinity_variance>
0.0421376526

$$$$
7:0


 26 28  0  0  0  0  0  0  0  0999 V2000
   58.9110   28.5489   47.6894 C   0  0  0  0  0  0  0  0  0  0  0  0
   59.6043   29.1901   48.7224 C   0  0  0  0  0  0  0  0  0  0  0  0
   60.1603   30.4570   48.5207 C   0  0  0  0  0  0  0  0  0  0  0  0
   60.0504   31.0880   47.2720 C   0  0  0  0  0  0  0  0  0  0  0  0
   59.3855   30.4310   46.2254 C   0  0  0  0  0  0  0  0  0  0  0  0
   58.8284   29.1640   46.4290 C   0  0  0  0  0  0  0  0  0  0  0  0
   59.6562   25.8572   46.3203 C   0  0  0  0  0  0  0  0  0  0  0  0
   58.4134   26.2191   47.0960 C   0  0  0  0  0  0  0  0  0  0  0  0
   58.3827   27.2338   47.9160 N   0  0  0  0  0  0  0  0  0  0  0  0
   57.1644   25.4412   46.8849 C   0  0  0  0  0  0  0  0  0  0  0  0
   56.1861   25.8614   45.9626 C   0  0  0  0  0  0  0  0  0  0  0  0
   56.3675   27.0090   45.1983 O   0  0  0  0  0  0  0  0  0  0  0  0
   55.0540   25.1311   45.7922 N   0  0  0  0  0  0  0  0  0  0  0  0
   54.8434   23.9886   46.4913 C   0  0  0  0  0  0  0  0  0  0  0  0
   53.7855   23.3300   46.3149 O   0  0  0  0  0  0  0  0  0  0  0  0
   55.7707   23.5542   47.3797 N   0  0  0  0  0  0  0  0  0  0  0  0
   56.9187   24.2477   47.5925 C   0  0  0  0  0  0  0  0  0  0  0  0
   57.7480   23.8150   48.4382 O   0  0  0  0  0  0  0  0  0  0  0  0
   60.6401   32.4588   47.0678 C   0  0  0  0  0  0  0  0  0  0  0  0
   59.6436   33.4990   47.4049 N   0  0  0  0  0  0  0  0  0  0  0  0
   59.8497   34.7360   46.6284 C   0  0  0  0  0  0  0  0  0  0  0  0
   59.4631   34.5605   45.1443 C   0  0  0  0  0  0  0  0  0  0  0  0
   58.3198   33.6518   44.9347 N   0  0  0  0  0  0  0  0  0  0  0  0
   57.4620   33.5555   46.1201 C   0  0  0  0  0  0  0  0  0  0  0  0
   58.2435   33.0060   47.3289 C   0  0  0  0  0  0  0  0  0  0  0  0
   58.6759   32.7225   44.7110 H   0  0  0  0  0  0  0  0  0  0  0  0
  7  8  1  0
  8  9  2  0
  9  1  1  0
  1  2  2  0
  2  3  1  0
  3  4  2  0
  4 19  1  0
 19 20  1  0
 20 21  1  0
 21 22  1  0
 22 23  1  0
 23 24  1  0
 24 25  1  0
  4  5  1  0
  5  6  2  0
  8 10  1  0
 10 11  2  0
 11 12  1  0
 11 13  1  0
 13 14  1  0
 14 15  2  0
 14 16  1  0
 16 17  1  0
 17 18  2  0
  6  1  1  0
 17 10  1  0
 25 20  1  0
 23 26  1  0
M  CHG 1  12  -1
M  CHG 1  13  -1
M  CHG 1  16  -1
M  END
> <UniqueID>
7

> <SMILES>
CC(=Nc1ccc(CN2CCNCC2)cc1)c1c([O-])[n-]c(=O)[n-]c1=O

> <Energy>
69.18679170419288

> <Genealogy>
CC(=Nc1ccc(CN2CCNCC2)cc1)c1c([O-])[n-]c(=O)[n-]c1=O (protonated)
CC(=Nc1ccc(CN2CCNCC2)cc1)c1c([O-])[n-]c(=O)[n-]c1=O (3D coordinates assigned)
CC(=Nc1ccc(CN2CCNCC2)cc1)c1c([O-])[n-]c(=O)[n-]c1=O (nonaromatic ring conformer: 69.18679170419288 kcal/mol)

> <smiles>
CC(=Nc1ccc(CN2CCNCC2)cc1)c1c(O)[nH]c(=O)[nH]c1=O

> <score_type>
oracle

> <origin>
adg

> <m_score__min__energy>
-15.119999999999999

> <m_primary>
energy

> <minimizedAffinity>
-5.95426

> <minimizedRMSD>
0.70281

> <CNNscore>
0.1665923446

> <CNNaffinity>
5.3105964661

> <CNN_VS>
0.8847047091

> <CNNaffinity_variance>
0.2987563610

$$$$
27:0


 30 33  0  0  0  0  0  0  0  0999 V2000
   57.4527   32.9936   46.7055 N   0  0  0  0  0  0  0  0  0  0  0  0
   58.4912   33.0746   47.6924 C   0  0  0  0  0  0  0  0  0  0  0  0
   59.4733   34.0810   47.6542 C   0  0  0  0  0  0  0  0  0  0  0  0
   60.4496   34.1484   48.6522 C   0  0  0  0  0  0  0  0  0  0  0  0
   60.4515   33.2196   49.7010 C   0  0  0  0  0  0  0  0  0  0  0  0
   59.4679   32.2217   49.7448 C   0  0  0  0  0  0  0  0  0  0  0  0
   58.4871   32.1599   48.7518 C   0  0  0  0  0  0  0  0  0  0  0  0
   61.6899   33.2783   50.9530 S   0  0  0  0  0  0  0  0  0  0  0  0
   62.5031   34.5347   50.8078 O   0  0  0  0  0  0  0  0  0  0  0  0
   61.0074   33.3110   52.2897 O   0  0  0  0  0  0  0  0  0  0  0  0
   62.7175   31.8631   50.8627 N   0  0  0  0  0  0  0  0  0  0  0  0
   62.7011   31.2545   49.5217 C   0  0  0  0  0  0  0  0  0  0  0  0
   63.4955   32.0901   48.4906 C   0  0  0  0  0  0  0  0  0  0  0  0
   64.3874   33.0216   49.0801 O   0  0  0  0  0  0  0  0  0  0  0  0
   65.0662   32.4285   50.1628 C   0  0  0  0  0  0  0  0  0  0  0  0
   64.0928   32.1494   51.3260 C   0  0  0  0  0  0  0  0  0  0  0  0
   57.3931   34.3802   44.8236 O   0  0  0  0  0  0  0  0  0  0  0  0
   57.6013   33.2332   45.3000 C   0  0  0  0  0  0  0  0  0  0  0  0
   58.0021   32.1231   44.3734 C   0  0  0  0  0  0  0  0  0  0  0  0
   56.6988   30.8514   44.1770 S   0  0  0  0  0  0  0  0  0  0  0  0
   57.6943   29.5100   44.8269 C   0  0  0  0  0  0  0  0  0  0  0  0
   59.0622   29.5661   44.7326 N   0  0  0  0  0  0  0  0  0  0  0  0
   59.8463   28.5582   45.2169 C   0  0  0  0  0  0  0  0  0  0  0  0
   61.1006   28.6167   45.1255 O   0  0  0  0  0  0  0  0  0  0  0  0
   59.2147   27.4757   45.8086 C   0  0  0  0  0  0  0  0  0  0  0  0
   59.6418   26.3045   46.3884 C   0  0  0  0  0  0  0  0  0  0  0  0
   58.5448   25.6124   46.7876 N   0  0  0  0  0  0  0  0  0  0  0  0
   57.4488   26.3039   46.4786 N   0  0  0  0  0  0  0  0  0  0  0  0
   57.8629   27.4331   45.8844 C   0  0  0  0  0  0  0  0  0  0  0  0
   57.0828   28.4275   45.4008 N   0  0  0  0  0  0  0  0  0  0  0  0
 17 18  2  0
 18 19  1  0
 19 20  1  0
 20 21  1  0
 21 22  2  0
 22 23  1  0
 23 24  2  0
 23 25  1  0
 25 26  2  0
 26 27  1  0
 27 28  1  0
 28 29  2  0
 29 30  1  0
 18  1  1  0
  1  2  1  0
  2  3  2  0
  3  4  1  0
  4  5  2  0
  5  8  1  0
  8  9  2  0
  8 10  2  0
  8 11  1  0
 11 12  1  0
 12 13  1  0
 13 14  1  0
 14 15  1  0
 15 16  1  0
  5  6  1  0
  6  7  2  0
 30 21  1  0
  7  2  1  0
 29 25  1  0
 16 11  1  0
M  CHG 1   1  -1
M  CHG 1  27  -1
M  CHG 1  30  -1
M  END
> <UniqueID>
27

> <SMILES>
O=C(CSc1nc(=O)c2c[n-]nc2[n-]1)[N-]c1ccc(S(=O)(=O)N2CCOCC2)cc1

> <Energy>
100.73289974819015

> <Genealogy>
O=C(CSc1nc(=O)c2c[n-]nc2[n-]1)[N-]c1ccc(S(=O)(=O)N2CCOCC2)cc1 (protonated)
O=C(CSc1nc(=O)c2c[n-]nc2[n-]1)[N-]c1ccc(S(=O)(=O)N2CCOCC2)cc1 (3D coordinates assigned)
O=C(CSc1nc(=O)c2c[n-]nc2[n-]1)[N-]c1ccc(S(=O)(=O)N2CCOCC2)cc1 (nonaromatic ring conformer: 100.73289974819015 kcal/mol)

> <smiles>
O=C(CSc1nc(=O)c2c[nH]nc2[nH]1)Nc1ccc(S(=O)(=O)N2CCOCC2)cc1

> <score_type>
oracle

> <origin>
adg

> <m_score__min__energy>
-14.699999999999999

> <m_primary>
energy

> <minimizedAffinity>
-6.94909

> <minimizedRMSD>
1.12836

> <CNNscore>
0.2477442771

> <CNNaffinity>
6.2863965034

> <CNN_VS>
1.5574187040

> <CNNaffinity_variance>
0.2184910774

$$$$
58:0


 27 29  0  0  0  0  0  0  0  0999 V2000
   59.2858   28.5900   47.0795 C   0  0  0  0  0  0  0  0  0  0  0  0
   59.5711   29.7990   46.4162 C   0  0  0  0  0  0  0  0  0  0  0  0
   58.7646   30.2043   45.3999 N   0  0  0  0  0  0  0  0  0  0  0  0
   57.6997   29.4685   44.9965 C   0  0  0  0  0  0  0  0  0  0  0  0
   56.9809   29.8826   44.0481 O   0  0  0  0  0  0  0  0  0  0  0  0
   57.4099   28.2909   45.6147 N   0  0  0  0  0  0  0  0  0  0  0  0
   56.3291   27.5467   45.1940 O   0  0  0  0  0  0  0  0  0  0  0  0
   58.1850   27.8359   46.6401 C   0  0  0  0  0  0  0  0  0  0  0  0
   57.9156   26.7293   47.1837 O   0  0  0  0  0  0  0  0  0  0  0  0
   60.8266   27.0512   47.9966 O   0  0  0  0  0  0  0  0  0  0  0  0
   60.1468   28.0964   48.1735 C   0  0  0  0  0  0  0  0  0  0  0  0
   60.2434   28.7878   49.4233 N   0  0  0  0  0  0  0  0  0  0  0  0
   60.9246   28.2540   50.5957 C   0  0  0  0  0  0  0  0  0  0  0  0
   61.5064   29.3800   51.3835 C   0  0  0  0  0  0  0  0  0  0  0  0
   60.8572   30.0966   52.3687 C   0  0  0  0  0  0  0  0  0  0  0  0
   61.7815   31.0064   52.8340 C   0  0  0  0  0  0  0  0  0  0  0  0
   62.9357   30.7851   52.1085 C   0  0  0  0  0  0  0  0  0  0  0  0
   62.7414   29.8071   51.2543 O   0  0  0  0  0  0  0  0  0  0  0  0
   60.6718   30.6302   46.8266 N   0  0  0  0  0  0  0  0  0  0  0  0
   61.5826   30.3833   46.5460 H   0  0  0  0  0  0  0  0  0  0  0  0
   60.4910   31.8051   47.6294 C   0  0  0  0  0  0  0  0  0  0  0  0
   60.9722   31.8126   48.9471 C   0  0  0  0  0  0  0  0  0  0  0  0
   60.8103   32.9417   49.7541 C   0  0  0  0  0  0  0  0  0  0  0  0
   60.1779   34.0779   49.2465 C   0  0  0  0  0  0  0  0  0  0  0  0
   59.7163   34.0928   47.9285 C   0  0  0  0  0  0  0  0  0  0  0  0
   59.8749   32.9662   47.1107 C   0  0  0  0  0  0  0  0  0  0  0  0
   59.3667   33.0691   45.4298 Cl  0  0  0  0  0  0  0  0  0  0  0  0
 10 11  2  0
 11 12  1  0
 12 13  1  0
 13 14  1  0
 14 15  2  0
 15 16  1  0
 16 17  2  0
 17 18  1  0
 11  1  1  0
  1  2  2  0
  2 19  1  0
 19 21  1  0
 21 22  2  0
 22 23  1  0
 23 24  2  0
 24 25  1  0
 25 26  2  0
 26 27  1  0
  2  3  1  0
  3  4  1  0
  4  5  2  0
  4  6  1  0
  6  7  1  0
  6  8  1  0
  8  9  2  0
 18 14  1  0
  8  1  1  0
 26 21  1  0
 19 20  1  0
M  CHG 1   3  -1
M  CHG 1   7  -1
M  CHG 1  12  -1
M  END
> <UniqueID>
57

> <SMILES>
O=C([N-]Cc1ccco1)c1c(Nc2ccccc2Cl)[n-]c(=O)n([O-])c1=O

> <Energy>
77.79048567370471

> <Genealogy>
O=C([N-]Cc1ccco1)c1c(Nc2ccccc2Cl)[n-]c(=O)n([O-])c1=O (protonated)
O=C([N-]Cc1ccco1)c1c(Nc2ccccc2Cl)[n-]c(=O)n([O-])c1=O (3D coordinates assigned)
O=C([N-]Cc1ccco1)c1c(Nc2ccccc2Cl)[n-]c(=O)n([O-])c1=O (optimized conformer: 77.79048567370471 kcal/mol)

> <smiles>
O=C(NCc1ccco1)c1c(Nc2ccccc2Cl)[nH]c(=O)n(O)c1=O

> <score_type>
oracle

> <origin>
adg

> <m_score__min__energy>
-14.06

> <m_primary>
energy

> <minimizedAffinity>
-5.51008

> <minimizedRMSD>
2.63783

> <CNNscore>
0.6065222025

> <CNNaffinity>
6.9021797180

> <CNN_VS>
4.1863250732

> <CNNaffinity_variance>
0.7052595019

$$$$
68:0


 29 31  0  0  0  0  0  0  0  0999 V2000
   57.2576   33.0784   45.7650 C   0  0  0  0  0  0  0  0  0  0  0  0
   57.4276   31.9070   45.1004 N   0  0  0  0  0  0  0  0  0  0  0  0
   58.4945   31.1025   45.3579 C   0  0  0  0  0  0  0  0  0  0  0  0
   58.6776   29.9917   44.7048 N   0  0  0  0  0  0  0  0  0  0  0  0
   59.4134   31.4845   46.2824 N   0  0  0  0  0  0  0  0  0  0  0  0
   59.2880   32.6463   46.9831 C   0  0  0  0  0  0  0  0  0  0  0  0
   58.1870   33.4780   46.7229 C   0  0  0  0  0  0  0  0  0  0  0  0
   58.4279   28.6581   45.1814 C   0  0  0  0  0  0  0  0  0  0  0  0
   59.5174   27.8720   45.5764 C   0  0  0  0  0  0  0  0  0  0  0  0
   59.3174   26.5801   46.0711 C   0  0  0  0  0  0  0  0  0  0  0  0
   58.0198   26.0606   46.1893 C   0  0  0  0  0  0  0  0  0  0  0  0
   56.9190   26.8684   45.8526 C   0  0  0  0  0  0  0  0  0  0  0  0
   55.6196   26.4088   46.0417 O   0  0  0  0  0  0  0  0  0  0  0  0
   57.1229   28.1585   45.3508 C   0  0  0  0  0  0  0  0  0  0  0  0
   57.8311   24.6949   46.7133 C   0  0  0  0  0  0  0  0  0  0  0  0
   57.3516   24.5408   47.8674 O   0  0  0  0  0  0  0  0  0  0  0  0
   58.2076   23.5385   45.9568 N   0  0  0  0  0  0  0  0  0  0  0  0
   57.6326   23.1803   44.6670 C   0  0  0  0  0  0  0  0  0  0  0  0
   60.3260   33.0098   47.9812 C   0  0  0  0  0  0  0  0  0  0  0  0
   61.6557   33.2074   47.5690 C   0  0  0  0  0  0  0  0  0  0  0  0
   62.6484   33.5447   48.4933 C   0  0  0  0  0  0  0  0  0  0  0  0
   62.3309   33.6845   49.8551 C   0  0  0  0  0  0  0  0  0  0  0  0
   61.0129   33.4744   50.2723 C   0  0  0  0  0  0  0  0  0  0  0  0
   60.0178   33.1386   49.3489 C   0  0  0  0  0  0  0  0  0  0  0  0
   63.3132   34.0295   50.8413 N   0  0  0  0  0  0  0  0  0  0  0  0
   63.8914   32.9893   52.1038 S   0  0  0  0  0  0  0  0  0  0  0  0
   63.0867   33.2439   53.3455 O   0  0  0  0  0  0  0  0  0  0  0  0
   63.7190   31.5495   51.7043 O   0  0  0  0  0  0  0  0  0  0  0  0
   65.6025   33.3379   52.4500 C   0  0  0  0  0  0  0  0  0  0  0  0
  1  2  1  0
  2  3  1  0
  3  4  2  0
  4  8  1  0
  8  9  2  0
  9 10  1  0
 10 11  2  0
 11 15  1  0
 15 16  2  0
 15 17  1  0
 17 18  1  0
 11 12  1  0
 12 13  1  0
 12 14  2  0
  3  5  1  0
  5  6  2  0
  6 19  1  0
 19 20  2  0
 20 21  1  0
 21 22  2  0
 22 25  1  0
 25 26  1  0
 26 27  2  0
 26 28  2  0
 26 29  1  0
 22 23  1  0
 23 24  2  0
  6  7  1  0
  7  1  2  0
 14  8  1  0
 24 19  1  0
M  CHG 1   2  -1
M  CHG 1  13  -1
M  CHG 1  17  -1
M  CHG 1  25  -1
M  END
> <UniqueID>
65

> <SMILES>
C[N-]C(=O)c1ccc(/N=c2/nc(-c3ccc([N-]S(C)(=O)=O)cc3)cc[n-]2)cc1[O-]

> <Energy>
61.75111394142702

> <Genealogy>
C[N-]C(=O)c1ccc(N=c2nc(-c3ccc([N-]S(C)(=O)=O)cc3)cc[n-]2)cc1[O-] (protonated)
C[N-]C(=O)c1ccc(/N=c2/nc(-c3ccc([N-]S(C)(=O)=O)cc3)cc[n-]2)cc1[O-] (cis-trans isomerization)
C[N-]C(=O)c1ccc(/N=c2/nc(-c3ccc([N-]S(C)(=O)=O)cc3)cc[n-]2)cc1[O-] (3D coordinates assigned)
C[N-]C(=O)c1ccc(/N=c2/nc(-c3ccc([N-]S(C)(=O)=O)cc3)cc[n-]2)cc1[O-] (optimized conformer: 61.75111394142702 kcal/mol)

> <smiles>
CNC(=O)c1ccc(N=c2nc(-c3ccc(NS(C)(=O)=O)cc3)cc[nH]2)cc1O

> <score_type>
oracle

> <origin>
adg

> <m_score__min__energy>
-15.369999999999999

> <m_primary>
energy

> <minimizedAffinity>
-7.47235

> <minimizedRMSD>
1.24199

> <CNNscore>
0.6589110494

> <CNNaffinity>
6.9956302643

> <CNN_VS>
4.6094980240

> <CNNaffinity_variance>
0.2093054503

$$$$
87:0


 34 36  0  0  0  0  0  0  0  0999 V2000
   56.8683   26.3883   46.0044 C   0  0  0  0  0  0  0  0  0  0  0  0
   55.6149   26.2657   46.0749 O   0  0  0  0  0  0  0  0  0  0  0  0
   57.7594   25.4643   46.7716 C   0  0  0  0  0  0  0  0  0  0  0  0
   59.1402   25.6232   46.3338 N   0  0  0  0  0  0  0  0  0  0  0  0
   60.0799   26.5085   46.9539 C   0  0  0  0  0  0  0  0  0  0  0  0
   61.1482   26.8145   46.3553 O   0  0  0  0  0  0  0  0  0  0  0  0
   60.7009   27.7249   49.0564 C   0  0  0  0  0  0  0  0  0  0  0  0
   59.7988   27.1230   48.2676 C   0  0  0  0  0  0  0  0  0  0  0  0
   57.5319   30.8115   51.1362 O   0  0  0  0  0  0  0  0  0  0  0  0
   58.8563   30.4589   50.8905 C   0  0  0  0  0  0  0  0  0  0  0  0
   59.1271   29.3148   50.1350 C   0  0  0  0  0  0  0  0  0  0  0  0
   60.4504   28.9207   49.8849 C   0  0  0  0  0  0  0  0  0  0  0  0
   61.5059   29.7200   50.3589 C   0  0  0  0  0  0  0  0  0  0  0  0
   61.2391   30.8593   51.1220 C   0  0  0  0  0  0  0  0  0  0  0  0
   59.9185   31.2319   51.3886 C   0  0  0  0  0  0  0  0  0  0  0  0
   59.6690   32.3717   52.1484 O   0  0  0  0  0  0  0  0  0  0  0  0
   56.8359   30.2843   50.7962 H   0  0  0  0  0  0  0  0  0  0  0  0
   57.4512   27.3642   45.1399 N   0  0  0  0  0  0  0  0  0  0  0  0
   56.7865   28.6022   44.7677 C   0  0  0  0  0  0  0  0  0  0  0  0
   57.6071   29.7574   45.2494 C   0  0  0  0  0  0  0  0  0  0  0  0
   58.4801   29.5978   46.3375 C   0  0  0  0  0  0  0  0  0  0  0  0
   59.1787   30.6967   46.8459 C   0  0  0  0  0  0  0  0  0  0  0  0
   58.9939   31.9694   46.2891 C   0  0  0  0  0  0  0  0  0  0  0  0
   58.1243   32.1260   45.1983 C   0  0  0  0  0  0  0  0  0  0  0  0
   57.4267   31.0291   44.6880 C   0  0  0  0  0  0  0  0  0  0  0  0
   59.8066   33.3730   46.9906 S   0  0  0  0  0  0  0  0  0  0  0  0
   60.4784   34.1563   45.8959 O   0  0  0  0  0  0  0  0  0  0  0  0
   58.7834   34.2636   47.6388 O   0  0  0  0  0  0  0  0  0  0  0  0
   60.9915   32.8976   48.1873 N   0  0  0  0  0  0  0  0  0  0  0  0
   61.3301   34.0395   49.0591 C   0  0  0  0  0  0  0  0  0  0  0  0
   62.7096   33.8430   49.7121 C   0  0  0  0  0  0  0  0  0  0  0  0
   63.7792   33.7045   48.7832 O   0  0  0  0  0  0  0  0  0  0  0  0
   63.3724   33.2412   47.5021 C   0  0  0  0  0  0  0  0  0  0  0  0
   62.1760   32.2727   47.5616 C   0  0  0  0  0  0  0  0  0  0  0  0
  9 10  1  0
 10 11  2  0
 11 12  1  0
 12  7  1  0
  7  8  2  0
  8  5  1  0
  5  6  2  0
  5  4  1  0
  4  3  1  0
  3  1  1  0
  1  2  2  0
  1 18  1  0
 18 19  1  0
 19 20  1  0
 20 21  2  0
 21 22  1  0
 22 23  2  0
 23 26  1  0
 26 27  2  0
 26 28  2  0
 26 29  1  0
 29 30  1  0
 30 31  1  0
 31 32  1  0
 32 33  1  0
 33 34  1  0
 23 24  1  0
 24 25  2  0
 12 13  2  0
 13 14  1  0
 14 15  2  0
 15 16  1  0
 15 10  1  0
 25 20  1  0
 34 29  1  0
  9 17  1  0
M  CHG 1   4  -1
M  CHG 1  16  -1
M  CHG 1  18  -1
M  END
> <UniqueID>
82

> <SMILES>
O=C(/C=C\c1ccc([O-])c(O)c1)[N-]CC(=O)[N-]Cc1ccc(S(=O)(=O)N2CCOCC2)cc1

> <Energy>
68.53808955742404

> <Genealogy>
O=C(C=Cc1ccc([O-])c(O)c1)[N-]CC(=O)[N-]Cc1ccc(S(=O)(=O)N2CCOCC2)cc1 (protonated)
O=C(/C=C\c1ccc([O-])c(O)c1)[N-]CC(=O)[N-]Cc1ccc(S(=O)(=O)N2CCOCC2)cc1 (cis-trans isomerization)
O=C(/C=C\c1ccc([O-])c(O)c1)[N-]CC(=O)[N-]Cc1ccc(S(=O)(=O)N2CCOCC2)cc1 (3D coordinates assigned)
O=C(/C=C\c1ccc([O-])c(O)c1)[N-]CC(=O)[N-]Cc1ccc(S(=O)(=O)N2CCOCC2)cc1 (nonaromatic ring conformer: 68.53808955742404 kcal/mol)

> <smiles>
O=C(C=Cc1ccc(O)c(O)c1)NCC(=O)NCc1ccc(S(=O)(=O)N2CCOCC2)cc1

> <score_type>
oracle

> <origin>
adg

> <m_score__min__energy>
-15.15

> <m_primary>
energy

> <minimizedAffinity>
-6.51113

> <minimizedRMSD>
0.73379

> <CNNscore>
0.2472262830

> <CNNaffinity>
5.8947277069

> <CNN_VS>
1.4573316574

> <CNNaffinity_variance>
0.2861454189

$$$$
40:0


 22 23  0  0  0  0  0  0  0  0999 V2000
   58.0412   26.3272   45.8822 C   0  0  0  0  0  0  0  0  0  0  0  0
   59.1995   25.7297   46.3932 C   0  0  0  0  0  0  0  0  0  0  0  0
   60.3117   26.5069   46.7191 C   0  0  0  0  0  0  0  0  0  0  0  0
   60.2718   27.8918   46.5527 C   0  0  0  0  0  0  0  0  0  0  0  0
   59.1106   28.5125   46.0707 C   0  0  0  0  0  0  0  0  0  0  0  0
   57.9858   27.7317   45.7505 C   0  0  0  0  0  0  0  0  0  0  0  0
   56.8163   28.3501   45.3170 O   0  0  0  0  0  0  0  0  0  0  0  0
   59.0522   30.2679   45.8905 S   0  0  0  0  0  0  0  0  0  0  0  0
   59.1706   30.6402   44.4391 O   0  0  0  0  0  0  0  0  0  0  0  0
   57.7295   30.7580   46.4102 O   0  0  0  0  0  0  0  0  0  0  0  0
   60.3645   30.9796   46.8041 N   0  0  0  0  0  0  0  0  0  0  0  0
   60.5399   30.3234   48.1150 C   0  0  0  0  0  0  0  0  0  0  0  0
   59.4578   30.7231   49.1359 C   0  0  0  0  0  0  0  0  0  0  0  0
   59.0732   32.2112   49.0607 C   0  0  0  0  0  0  0  0  0  0  0  0
   60.0979   33.0278   48.2776 C   0  0  0  0  0  0  0  0  0  0  0  0
   60.2656   32.4609   46.8571 C   0  0  0  0  0  0  0  0  0  0  0  0
   56.9188   25.4918   45.5720 N   0  0  0  0  0  0  0  0  0  0  0  0
   56.9128   24.4085   44.6338 C   0  0  0  0  0  0  0  0  0  0  0  0
   57.1537   24.6504   43.4232 O   0  0  0  0  0  0  0  0  0  0  0  0
   56.5720   23.0711   45.0207 N   0  0  0  0  0  0  0  0  0  0  0  0
   58.8816   22.3053   44.9411 C   0  0  0  0  0  0  0  0  0  0  0  0
   57.5105   22.1010   45.5675 C   0  0  0  0  0  0  0  0  0  0  0  0
 21 22  1  0
 22 20  1  0
 20 18  1  0
 18 19  2  0
 18 17  1  0
 17  1  1  0
  1  2  2  0
  2  3  1  0
  3  4  2  0
  4  5  1  0
  5  8  1  0
  8  9  2  0
  8 10  2  0
  8 11  1  0
 11 12  1  0
 12 13  1  0
 13 14  1  0
 14 15  1  0
 15 16  1  0
  5  6  2  0
  6  7  1  0
  6  1  1  0
 16 11  1  0
M  CHG 1   7  -1
M  CHG 1  17  -1
M  CHG 1  20  -1
M  END
> <UniqueID>
35

> <SMILES>
CC[N-]C(=O)[N-]c1cccc(S(=O)(=O)N2CCCCC2)c1[O-]

> <Energy>
49.460998927516954

> <Genealogy>
CC[N-]C(=O)[N-]c1cccc(S(=O)(=O)N2CCCCC2)c1[O-] (protonated)
CC[N-]C(=O)[N-]c1cccc(S(=O)(=O)N2CCCCC2)c1[O-] (3D coordinates assigned)
CC[N-]C(=O)[N-]c1cccc(S(=O)(=O)N2CCCCC2)c1[O-] (nonaromatic ring conformer: 49.460998927516954 kcal/mol)

> <smiles>
CCNC(=O)Nc1cccc(S(=O)(=O)N2CCCCC2)c1O

> <score_type>
oracle

> <origin>
adg

> <m_score__min__energy>
-15.630000000000001

> <m_primary>
energy

> <minimizedAffinity>
-5.36752

> <minimizedRMSD>
2.49322

> <CNNscore>
0.4465273023

> <CNNaffinity>
6.3242545128

> <CNN_VS>
2.8239521980

> <CNNaffinity_variance>
0.9900627136

$$$$
43:0


 25 27  0  0  0  0  0  0  0  0999 V2000
   60.3015   27.4879   46.2628 C   0  0  0  0  0  0  0  0  0  0  0  0
   59.4404   26.6058   47.0504 N   0  0  0  0  0  0  0  0  0  0  0  0
   58.5509   25.7991   46.5541 C   0  0  0  0  0  0  0  0  0  0  0  0
   58.9522   24.6254   46.0008 N   0  0  0  0  0  0  0  0  0  0  0  0
   58.0617   23.7539   45.4586 C   0  0  0  0  0  0  0  0  0  0  0  0
   56.6819   24.0497   45.5004 C   0  0  0  0  0  0  0  0  0  0  0  0
   56.2926   25.2746   46.0659 C   0  0  0  0  0  0  0  0  0  0  0  0
   55.0783   25.6117   46.0967 O   0  0  0  0  0  0  0  0  0  0  0  0
   57.2281   26.1118   46.5814 N   0  0  0  0  0  0  0  0  0  0  0  0
   55.6585   23.1394   44.8562 C   0  0  0  0  0  0  0  0  0  0  0  0
   56.1892   21.7205   44.6260 C   0  0  0  0  0  0  0  0  0  0  0  0
   57.5735   21.7643   43.9803 C   0  0  0  0  0  0  0  0  0  0  0  0
   58.5750   22.4446   44.9186 C   0  0  0  0  0  0  0  0  0  0  0  0
   59.5872   31.1727   46.8593 C   0  0  0  0  0  0  0  0  0  0  0  0
   60.1218   29.8915   46.9847 C   0  0  0  0  0  0  0  0  0  0  0  0
   59.6881   28.8584   46.1470 C   0  0  0  0  0  0  0  0  0  0  0  0
   58.6986   29.1193   45.1892 C   0  0  0  0  0  0  0  0  0  0  0  0
   58.1331   30.4023   45.0615 C   0  0  0  0  0  0  0  0  0  0  0  0
   58.6081   31.4539   45.8913 C   0  0  0  0  0  0  0  0  0  0  0  0
   57.0145   30.5812   44.1087 C   0  0  0  0  0  0  0  0  0  0  0  0
   57.2204   31.0971   42.9772 O   0  0  0  0  0  0  0  0  0  0  0  0
   55.7380   30.1268   44.4206 O   0  0  0  0  0  0  0  0  0  0  0  0
   58.1694   32.8597   45.7275 C   0  0  0  0  0  0  0  0  0  0  0  0
   57.2486   33.3246   46.4505 O   0  0  0  0  0  0  0  0  0  0  0  0
   58.8072   33.7002   44.8239 O   0  0  0  0  0  0  0  0  0  0  0  0
 14 15  2  0
 15 16  1  0
 16  1  1  0
  1  2  1  0
  2  3  2  0
  3  4  1  0
  4  5  1  0
  5  6  2  0
  6  7  1  0
  7  8  2  0
  7  9  1  0
  6 10  1  0
 10 11  1  0
 11 12  1  0
 12 13  1  0
 16 17  2  0
 17 18  1  0
 18 20  1  0
 20 21  2  0
 20 22  1  0
 18 19  2  0
 19 23  1  0
 23 24  2  0
 23 25  1  0
 19 14  1  0
  9  3  1  0
 13  5  1  0
M  CHG 1   4  -1
M  CHG 1   9  -1
M  CHG 1  22  -1
M  CHG 1  25  -1
M  END
> <UniqueID>
38

> <SMILES>
O=C([O-])c1ccc(C/N=c2/[n-]c3c(c(=O)[n-]2)CCCC3)cc1C(=O)[O-]

> <Energy>
48.59524175571539

> <Genealogy>
O=C([O-])c1ccc(CN=c2[n-]c3c(c(=O)[n-]2)CCCC3)cc1C(=O)[O-] (protonated)
O=C([O-])c1ccc(C/N=c2/[n-]c3c(c(=O)[n-]2)CCCC3)cc1C(=O)[O-] (cis-trans isomerization)
O=C([O-])c1ccc(C/N=c2/[n-]c3c(c(=O)[n-]2)CCCC3)cc1C(=O)[O-] (3D coordinates assigned)
O=C([O-])c1ccc(C/N=c2/[n-]c3c(c(=O)[n-]2)CCCC3)cc1C(=O)[O-] (nonaromatic ring conformer: 48.59524175571539 kcal/mol)

> <smiles>
O=C(O)c1ccc(CN=c2[nH]c3c(c(=O)[nH]2)CCCC3)cc1C(=O)O

> <score_type>
oracle

> <origin>
adg

> <m_score__min__energy>
-14.69

> <m_primary>
energy

> <minimizedAffinity>
-9.01588

> <minimizedRMSD>
0.78956

> <CNNscore>
0.1380764544

> <CNNaffinity>
5.5000176430

> <CNN_VS>
0.7594229579

> <CNNaffinity_variance>
0.0409581587

$$$$
85:0


 24 26  0  0  0  0  0  0  0  0999 V2000
   59.3464   28.4738   44.9334 O   0  0  0  0  0  0  0  0  0  0  0  0
   58.3984   28.6699   45.7400 C   0  0  0  0  0  0  0  0  0  0  0  0
   58.1419   27.6809   46.8296 C   0  0  0  0  0  0  0  0  0  0  0  0
   57.8709   26.3653   46.2528 N   0  0  0  0  0  0  0  0  0  0  0  0
   58.7728   25.3899   46.0036 C   0  0  0  0  0  0  0  0  0  0  0  0
   60.1408   25.5141   46.2197 O   0  0  0  0  0  0  0  0  0  0  0  0
   58.1380   24.2609   45.5261 C   0  0  0  0  0  0  0  0  0  0  0  0
   56.7894   24.5391   45.5284 C   0  0  0  0  0  0  0  0  0  0  0  0
   56.6598   25.8416   45.9659 C   0  0  0  0  0  0  0  0  0  0  0  0
   55.4566   26.5264   46.1046 O   0  0  0  0  0  0  0  0  0  0  0  0
   55.7351   23.5884   45.0484 C   0  0  0  0  0  0  0  0  0  0  0  0
   56.2828   22.1473   45.0359 C   0  0  0  0  0  0  0  0  0  0  0  0
   57.6941   22.0735   44.4125 C   0  0  0  0  0  0  0  0  0  0  0  0
   58.7148   22.9158   45.2038 C   0  0  0  0  0  0  0  0  0  0  0  0
   57.6365   29.8830   45.7014 N   0  0  0  0  0  0  0  0  0  0  0  0
   58.1481   31.2204   45.5987 C   0  0  0  0  0  0  0  0  0  0  0  0
   57.7500   32.0986   44.5746 C   0  0  0  0  0  0  0  0  0  0  0  0
   58.2651   33.3937   44.5199 C   0  0  0  0  0  0  0  0  0  0  0  0
   59.1682   33.8334   45.4920 C   0  0  0  0  0  0  0  0  0  0  0  0
   59.5564   32.9784   46.5381 C   0  0  0  0  0  0  0  0  0  0  0  0
   59.0344   31.6749   46.5847 C   0  0  0  0  0  0  0  0  0  0  0  0
   60.5012   33.4427   47.5791 C   0  0  0  0  0  0  0  0  0  0  0  0
   60.1204   34.2295   48.4860 O   0  0  0  0  0  0  0  0  0  0  0  0
   61.8245   33.0127   47.5717 O   0  0  0  0  0  0  0  0  0  0  0  0
  1  2  2  0
  2  3  1  0
  3  4  1  0
  4  5  1  0
  5  6  1  0
  5  7  2  0
  7  8  1  0
  8  9  2  0
  9 10  1  0
  8 11  1  0
 11 12  1  0
 12 13  1  0
 13 14  1  0
  2 15  1  0
 15 16  1  0
 16 17  2  0
 17 18  1  0
 18 19  2  0
 19 20  1  0
 20 22  1  0
 22 23  2  0
 22 24  1  0
 20 21  2  0
  9  4  1  0
 21 16  1  0
 14  7  1  0
M  CHG 1   6  -1
M  CHG 1  10  -1
M  CHG 1  15  -1
M  CHG 1  24  -1
M  END
> <UniqueID>
74

> <SMILES>
O=C(Cn1c([O-])c2c(c1[O-])CCCC2)[N-]c1cccc(C(=O)[O-])c1

> <Energy>
70.29956217578058

> <Genealogy>
O=C(Cn1c([O-])c2c(c1[O-])CCCC2)[N-]c1cccc(C(=O)[O-])c1 (protonated)
O=C(Cn1c([O-])c2c(c1[O-])CCCC2)[N-]c1cccc(C(=O)[O-])c1 (3D coordinates assigned)
O=C(Cn1c([O-])c2c(c1[O-])CCCC2)[N-]c1cccc(C(=O)[O-])c1 (nonaromatic ring conformer: 70.29956217578058 kcal/mol)

> <smiles>
O=C(Cn1c(O)c2c(c1O)CCCC2)Nc1cccc(C(=O)O)c1

> <score_type>
oracle

> <origin>
adg

> <m_score__min__energy>
-14.68

> <m_primary>
energy

> <minimizedAffinity>
-7.87076

> <minimizedRMSD>
2.14919

> <CNNscore>
0.3399536610

> <CNNaffinity>
5.9427185059

> <CNN_VS>
2.0202488899

> <CNNaffinity_variance>
0.0358676910

$$$$
90:0


 24 25  0  0  0  0  0  0  0  0999 V2000
   56.7853   29.8023   43.3724 O   0  0  0  0  0  0  0  0  0  0  0  0
   57.3203   30.1077   44.4715 C   0  0  0  0  0  0  0  0  0  0  0  0
   58.0558   31.4067   44.5991 C   0  0  0  0  0  0  0  0  0  0  0  0
   57.5602   32.1931   45.7316 N   0  0  0  0  0  0  0  0  0  0  0  0
   57.9513   33.5400   46.0008 C   0  0  0  0  0  0  0  0  0  0  0  0
   57.7675   34.4301   45.1272 O   0  0  0  0  0  0  0  0  0  0  0  0
   58.5113   33.8863   47.2714 N   0  0  0  0  0  0  0  0  0  0  0  0
   59.9061   33.8734   47.5937 C   0  0  0  0  0  0  0  0  0  0  0  0
   60.8228   33.5987   46.5708 C   0  0  0  0  0  0  0  0  0  0  0  0
   62.1831   33.4292   46.8567 C   0  0  0  0  0  0  0  0  0  0  0  0
   62.6393   33.5325   48.1728 C   0  0  0  0  0  0  0  0  0  0  0  0
   61.7364   33.8051   49.2030 C   0  0  0  0  0  0  0  0  0  0  0  0
   60.3743   33.9709   48.9230 C   0  0  0  0  0  0  0  0  0  0  0  0
   59.5156   34.1281   49.9562 F   0  0  0  0  0  0  0  0  0  0  0  0
   57.1714   29.2573   45.6146 N   0  0  0  0  0  0  0  0  0  0  0  0
   58.2377   28.6551   46.3706 C   0  0  0  0  0  0  0  0  0  0  0  0
   59.1673   29.4606   47.0610 C   0  0  0  0  0  0  0  0  0  0  0  0
   60.1818   28.8811   47.8240 C   0  0  0  0  0  0  0  0  0  0  0  0
   60.2778   27.4948   47.9220 C   0  0  0  0  0  0  0  0  0  0  0  0
   59.3488   26.6803   47.2690 C   0  0  0  0  0  0  0  0  0  0  0  0
   58.3187   27.2412   46.4876 C   0  0  0  0  0  0  0  0  0  0  0  0
   57.3498   26.3275   45.8206 C   0  0  0  0  0  0  0  0  0  0  0  0
   56.2155   26.0972   46.3205 O   0  0  0  0  0  0  0  0  0  0  0  0
   57.6787   25.7179   44.6150 O   0  0  0  0  0  0  0  0  0  0  0  0
  1  2  2  0
  2  3  1  0
  3  4  1  0
  4  5  1  0
  5  6  2  0
  5  7  1  0
  7  8  1  0
  8  9  2  0
  9 10  1  0
 10 11  2  0
 11 12  1  0
 12 13  2  0
 13 14  1  0
  2 15  1  0
 15 16  1  0
 16 17  2  0
 17 18  1  0
 18 19  2  0
 19 20  1  0
 20 21  2  0
 21 22  1  0
 22 23  2  0
 22 24  1  0
 13  8  1  0
 21 16  1  0
M  CHG 1   4  -1
M  CHG 1   7  -1
M  CHG 1  15  -1
M  CHG 1  24  -1
M  END
> <UniqueID>
79

> <SMILES>
O=C(C[N-]C(=O)[N-]c1ccccc1F)[N-]c1ccccc1C(=O)[O-]

> <Energy>
41.979339484836125

> <Genealogy>
O=C(C[N-]C(=O)[N-]c1ccccc1F)[N-]c1ccccc1C(=O)[O-] (protonated)
O=C(C[N-]C(=O)[N-]c1ccccc1F)[N-]c1ccccc1C(=O)[O-] (3D coordinates assigned)
O=C(C[N-]C(=O)[N-]c1ccccc1F)[N-]c1ccccc1C(=O)[O-] (optimized conformer: 41.979339484836125 kcal/mol)

> <smiles>
O=C(CNC(=O)Nc1ccccc1F)Nc1ccccc1C(=O)O

> <score_type>
oracle

> <origin>
adg

> <m_score__min__energy>
-14.76

> <m_primary>
energy

> <minimizedAffinity>
-7.45898

> <minimizedRMSD>
1.22270

> <CNNscore>
0.9002433419

> <CNNaffinity>
6.6787924767

> <CNN_VS>
6.0125384331

> <CNNaffinity_variance>
0.2057799846

$$$$
2:0


 25 27  0  0  0  0  0  0  0  0999 V2000
   60.8804   30.4642   46.8683 N   0  0  0  0  0  0  0  0  0  0  0  0
   61.7212   30.4662   46.3562 H   0  0  0  0  0  0  0  0  0  0  0  0
   60.6307   31.5619   47.7561 C   0  0  0  0  0  0  0  0  0  0  0  0
   60.9941   31.6960   49.0258 C   0  0  0  0  0  0  0  0  0  0  0  0
   61.7437   30.8418   49.8409 C   0  0  0  0  0  0  0  0  0  0  0  0
   61.9734   31.2232   51.1734 C   0  0  0  0  0  0  0  0  0  0  0  0
   62.9211   30.1882   52.2256 Cl  0  0  0  0  0  0  0  0  0  0  0  0
   61.4404   32.4310   51.6727 C   0  0  0  0  0  0  0  0  0  0  0  0
   60.6632   33.2618   50.8474 C   0  0  0  0  0  0  0  0  0  0  0  0
   60.4457   32.8712   49.5269 C   0  0  0  0  0  0  0  0  0  0  0  0
   59.7140   33.5182   48.6730 N   0  0  0  0  0  0  0  0  0  0  0  0
   59.7803   32.7082   47.5039 C   0  0  0  0  0  0  0  0  0  0  0  0
   59.1850   32.9670   46.4258 O   0  0  0  0  0  0  0  0  0  0  0  0
   58.2134   27.1862   46.3717 C   0  0  0  0  0  0  0  0  0  0  0  0
   59.3092   27.0937   47.2426 C   0  0  0  0  0  0  0  0  0  0  0  0
   60.1800   28.1751   47.3992 C   0  0  0  0  0  0  0  0  0  0  0  0
   59.9782   29.3601   46.6797 C   0  0  0  0  0  0  0  0  0  0  0  0
   58.8671   29.4620   45.8245 C   0  0  0  0  0  0  0  0  0  0  0  0
   57.9942   28.3805   45.6654 C   0  0  0  0  0  0  0  0  0  0  0  0
   56.9084   28.5034   44.8044 O   0  0  0  0  0  0  0  0  0  0  0  0
   55.4955   26.3984   46.0486 N   0  0  0  0  0  0  0  0  0  0  0  0
   57.1184   25.8183   46.1714 S   0  0  0  0  0  0  0  0  0  0  0  0
   57.4590   25.0528   44.9222 O   0  0  0  0  0  0  0  0  0  0  0  0
   57.2427   24.9018   47.3553 O   0  0  0  0  0  0  0  0  0  0  0  0
   54.8601   25.6089   45.9326 H   0  0  0  0  0  0  0  0  0  0  0  0
 21 22  1  0
 22 23  2  0
 22 24  2  0
 22 14  1  0
 14 15  2  0
 15 16  1  0
 16 17  2  0
 17  1  1  0
  1  3  1  0
  3  4  2  0
  4  5  1  0
  5  6  2  0
  6  7  1  0
  6  8  1  0
  8  9  2  0
  9 10  1  0
 10 11  2  0
 11 12  1  0
 12 13  2  0
 17 18  1  0
 18 19  2  0
 19 20  1  0
 19 14  1  0
 12  3  1  0
 10  4  1  0
 21 25  1  0
  1  2  1  0
M  CHG 1  20  -1
M  CHG 1  21  -1
M  END
> <UniqueID>
3

> <SMILES>
[NH-]S(=O)(=O)c1ccc(NC2=c3cc(Cl)ccc3=NC2=O)cc1[O-]

> <Energy>
73.61387343623879

> <Genealogy>
[NH-]S(=O)(=O)c1ccc(NC2=c3cc(Cl)ccc3=NC2=O)cc1[O-] (protonated)
[NH-]S(=O)(=O)c1ccc(NC2=c3cc(Cl)ccc3=NC2=O)cc1[O-] (3D coordinates assigned)
[NH-]S(=O)(=O)c1ccc(NC2=c3cc(Cl)ccc3=NC2=O)cc1[O-] (nonaromatic ring conformer: 73.61387343623879 kcal/mol)

> <smiles>
NS(=O)(=O)c1ccc(NC2=c3cc(Cl)ccc3=NC2=O)cc1O

> <score_type>
oracle

> <origin>
adg

> <m_score__min__energy>
-14.960000000000001

> <m_primary>
energy

> <minimizedAffinity>
-7.37192

> <minimizedRMSD>
2.71456

> <CNNscore>
0.3526548743

> <CNNaffinity>
6.7661590576

> <CNN_VS>
2.3861188889

> <CNNaffinity_variance>
0.7849342823

$$$$
3:0


 32 34  0  0  0  0  0  0  0  0999 V2000
   59.6124   33.7780   47.2552 C   0  0  0  0  0  0  0  0  0  0  0  0
   59.4996   34.8378   46.3425 C   0  0  0  0  0  0  0  0  0  0  0  0
   58.9085   34.6346   45.0934 C   0  0  0  0  0  0  0  0  0  0  0  0
   58.4214   33.3733   44.7430 C   0  0  0  0  0  0  0  0  0  0  0  0
   58.5077   32.3120   45.6528 C   0  0  0  0  0  0  0  0  0  0  0  0
   59.0935   32.5171   46.9098 C   0  0  0  0  0  0  0  0  0  0  0  0
   61.5597   33.6795   48.8791 C   0  0  0  0  0  0  0  0  0  0  0  0
   62.4090   33.5122   47.9606 O   0  0  0  0  0  0  0  0  0  0  0  0
   60.2033   34.0177   48.5439 N   0  0  0  0  0  0  0  0  0  0  0  0
   59.6459   34.4384   49.2379 H   0  0  0  0  0  0  0  0  0  0  0  0
   61.4629   33.1270   52.6349 C   0  0  0  0  0  0  0  0  0  0  0  0
   62.7950   33.3745   52.9817 C   0  0  0  0  0  0  0  0  0  0  0  0
   63.7202   33.7367   51.9997 C   0  0  0  0  0  0  0  0  0  0  0  0
   63.3215   33.8426   50.6648 C   0  0  0  0  0  0  0  0  0  0  0  0
   61.9887   33.5818   50.2956 C   0  0  0  0  0  0  0  0  0  0  0  0
   61.0622   33.2331   51.2954 C   0  0  0  0  0  0  0  0  0  0  0  0
   60.3159   32.6385   53.8815 S   0  0  0  0  0  0  0  0  0  0  0  0
   59.1185   33.5491   53.8745 O   0  0  0  0  0  0  0  0  0  0  0  0
   60.9820   32.7383   55.2249 O   0  0  0  0  0  0  0  0  0  0  0  0
   58.5036   30.9851   52.9631 C   0  0  0  0  0  0  0  0  0  0  0  0
   59.8083   30.9983   53.6159 N   0  0  0  0  0  0  0  0  0  0  0  0
   57.8895   30.7188   45.2259 S   0  0  0  0  0  0  0  0  0  0  0  0
   56.4351   30.8407   44.8729 O   0  0  0  0  0  0  0  0  0  0  0  0
   58.6340   30.1533   44.0481 O   0  0  0  0  0  0  0  0  0  0  0  0
   58.0585   29.6391   46.5736 N   0  0  0  0  0  0  0  0  0  0  0  0
   58.6039   28.3135   46.5123 C   0  0  0  0  0  0  0  0  0  0  0  0
   59.9139   28.0259   46.9364 C   0  0  0  0  0  0  0  0  0  0  0  0
   60.4016   26.7154   46.8730 C   0  0  0  0  0  0  0  0  0  0  0  0
   59.5963   25.6887   46.3801 C   0  0  0  0  0  0  0  0  0  0  0  0
   58.2927   25.9639   45.9621 C   0  0  0  0  0  0  0  0  0  0  0  0
   57.7974   27.2703   46.0273 C   0  0  0  0  0  0  0  0  0  0  0  0
   56.4973   27.5298   45.6076 O   0  0  0  0  0  0  0  0  0  0  0  0
 20 21  1  0
 21 17  1  0
 17 18  2  0
 17 19  2  0
 17 11  1  0
 11 12  2  0
 12 13  1  0
 13 14  2  0
 14 15  1  0
 15  7  1  0
  7  8  2  0
  7  9  1  0
  9  1  1  0
  1  2  2  0
  2  3  1  0
  3  4  2  0
  4  5  1  0
  5 22  1  0
 22 23  2  0
 22 24  2  0
 22 25  1  0
 25 26  1  0
 26 27  2  0
 27 28  1  0
 28 29  2  0
 29 30  1  0
 30 31  2  0
 31 32  1  0
  5  6  2  0
 15 16  2  0
 16 11  1  0
  6  1  1  0
 31 26  1  0
  9 10  1  0
M  CHG 1  21  -1
M  CHG 1  25  -1
M  CHG 1  32  -1
M  END
> <UniqueID>
4

> <SMILES>
C[N-]S(=O)(=O)c1cccc(C(=O)Nc2cccc(S(=O)(=O)[N-]c3ccccc3[O-])c2)c1

> <Energy>
56.1145374394709

> <Genealogy>
C[N-]S(=O)(=O)c1cccc(C(=O)Nc2cccc(S(=O)(=O)[N-]c3ccccc3[O-])c2)c1 (protonated)
C[N-]S(=O)(=O)c1cccc(C(=O)Nc2cccc(S(=O)(=O)[N-]c3ccccc3[O-])c2)c1 (3D coordinates assigned)
C[N-]S(=O)(=O)c1cccc(C(=O)Nc2cccc(S(=O)(=O)[N-]c3ccccc3[O-])c2)c1 (optimized conformer: 56.1145374394709 kcal/mol)

> <smiles>
CNS(=O)(=O)c1cccc(C(=O)Nc2cccc(S(=O)(=O)Nc3ccccc3O)c2)c1

> <score_type>
oracle

> <origin>
adg

> <m_score__min__energy>
-16.260000000000002

> <m_primary>
energy

> <minimizedAffinity>
-7.71173

> <minimizedRMSD>
2.29115

> <CNNscore>
0.5096156001

> <CNNaffinity>
6.5634655952

> <CNN_VS>
3.3448443413

> <CNNaffinity_variance>
0.0191691425

$$$$
15:0


 27 29  0  0  0  0  0  0  0  0999 V2000
   58.5722   31.3337   51.1458 C   0  0  0  0  0  0  0  0  0  0  0  0
   59.7960   31.6775   51.7450 C   0  0  0  0  0  0  0  0  0  0  0  0
   60.6952   32.5152   51.0837 C   0  0  0  0  0  0  0  0  0  0  0  0
   60.4031   33.0089   49.8100 C   0  0  0  0  0  0  0  0  0  0  0  0
   61.5612   34.1071   49.0670 Cl  0  0  0  0  0  0  0  0  0  0  0  0
   59.1976   32.6405   49.1740 C   0  0  0  0  0  0  0  0  0  0  0  0
   58.2851   31.8221   49.8605 C   0  0  0  0  0  0  0  0  0  0  0  0
   57.9881   29.3238   52.2607 O   0  0  0  0  0  0  0  0  0  0  0  0
   57.6051   30.4495   51.8375 C   0  0  0  0  0  0  0  0  0  0  0  0
   56.2345   30.8441   52.0186 N   0  0  0  0  0  0  0  0  0  0  0  0
   55.9037   31.6429   51.5475 H   0  0  0  0  0  0  0  0  0  0  0  0
   55.3159   30.1013   52.8770 C   0  0  0  0  0  0  0  0  0  0  0  0
   53.9043   30.5011   52.5840 C   0  0  0  0  0  0  0  0  0  0  0  0
   52.8299   30.3212   53.4378 C   0  0  0  0  0  0  0  0  0  0  0  0
   51.7405   30.8728   52.8048 C   0  0  0  0  0  0  0  0  0  0  0  0
   52.2142   31.3620   51.6073 C   0  0  0  0  0  0  0  0  0  0  0  0
   51.4376   32.0078   50.6562 O   0  0  0  0  0  0  0  0  0  0  0  0
   53.5360   31.1472   51.4602 N   0  0  0  0  0  0  0  0  0  0  0  0
   58.7734   33.2348   47.5593 S   0  0  0  0  0  0  0  0  0  0  0  0
   59.1198   34.6920   47.4357 O   0  0  0  0  0  0  0  0  0  0  0  0
   57.2889   33.0620   47.3832 O   0  0  0  0  0  0  0  0  0  0  0  0
   59.6278   32.3201   46.3301 N   0  0  0  0  0  0  0  0  0  0  0  0
   58.9380   32.3800   45.0271 C   0  0  0  0  0  0  0  0  0  0  0  0
   57.7092   31.4398   44.9555 C   0  0  0  0  0  0  0  0  0  0  0  0
   57.6608   30.4978   46.0108 O   0  0  0  0  0  0  0  0  0  0  0  0
   58.9286   29.9072   46.1830 C   0  0  0  0  0  0  0  0  0  0  0  0
   59.9211   30.9338   46.7560 C   0  0  0  0  0  0  0  0  0  0  0  0
  8  9  2  0
  9 10  1  0
 10 12  1  0
 12 13  1  0
 13 14  2  0
 14 15  1  0
 15 16  2  0
 16 17  1  0
 16 18  1  0
  9  1  1  0
  1  2  2  0
  2  3  1  0
  3  4  2  0
  4  5  1  0
  4  6  1  0
  6 19  1  0
 19 20  2  0
 19 21  2  0
 19 22  1  0
 22 23  1  0
 23 24  1  0
 24 25  1  0
 25 26  1  0
 26 27  1  0
  6  7  2  0
 18 13  1  0
  7  1  1  0
 27 22  1  0
 10 11  1  0
M  CHG 1  17  -1
M  CHG 1  18  -1
M  END
> <UniqueID>
15

> <SMILES>
O=C(NCc1ccc([O-])[n-]1)c1ccc(Cl)c(S(=O)(=O)N2CCOCC2)c1

> <Energy>
81.53820031471273

> <Genealogy>
O=C(NCc1ccc([O-])[n-]1)c1ccc(Cl)c(S(=O)(=O)N2CCOCC2)c1 (protonated)
O=C(NCc1ccc([O-])[n-]1)c1ccc(Cl)c(S(=O)(=O)N2CCOCC2)c1 (3D coordinates assigned)
O=C(NCc1ccc([O-])[n-]1)c1ccc(Cl)c(S(=O)(=O)N2CCOCC2)c1 (nonaromatic ring conformer: 81.53820031471273 kcal/mol)

> <smiles>
O=C(NCc1ccc(O)[nH]1)c1ccc(Cl)c(S(=O)(=O)N2CCOCC2)c1

> <score_type>
oracle

> <origin>
adg

> <m_score__min__energy>
-14.58

> <m_primary>
energy

> <minimizedAffinity>
-6.34370

> <minimizedRMSD>
0.82443

> <CNNscore>
0.3610642552

> <CNNaffinity>
5.8020229340

> <CNN_VS>
2.0949029922

> <CNNaffinity_variance>
0.2570134997

$$$$
24:0


 33 35  0  0  0  0  0  0  0  0999 V2000
   58.0959   32.1115   45.4876 C   0  0  0  0  0  0  0  0  0  0  0  0
   57.0193   32.7504   45.6172 O   0  0  0  0  0  0  0  0  0  0  0  0
   59.2073   32.4038   46.4142 C   0  0  0  0  0  0  0  0  0  0  0  0
   60.0215   33.5313   46.2532 C   0  0  0  0  0  0  0  0  0  0  0  0
   61.0637   33.7631   47.1513 C   0  0  0  0  0  0  0  0  0  0  0  0
   61.3346   32.8460   48.1820 C   0  0  0  0  0  0  0  0  0  0  0  0
   60.5318   31.6919   48.2622 C   0  0  0  0  0  0  0  0  0  0  0  0
   59.5027   31.5071   47.3943 N   0  0  0  0  0  0  0  0  0  0  0  0
   62.4065   33.0776   49.1289 N   0  0  0  0  0  0  0  0  0  0  0  0
   63.8101   33.0716   48.6923 C   0  0  0  0  0  0  0  0  0  0  0  0
   64.7064   32.5868   49.8341 C   0  0  0  0  0  0  0  0  0  0  0  0
   64.5922   33.4508   51.0266 N   0  0  0  0  0  0  0  0  0  0  0  0
   63.2528   34.0465   51.2468 C   0  0  0  0  0  0  0  0  0  0  0  0
   62.1155   33.2767   50.5573 C   0  0  0  0  0  0  0  0  0  0  0  0
   65.1646   32.6100   52.4482 S   0  0  0  0  0  0  0  0  0  0  0  0
   64.4488   33.2705   53.9421 C   0  0  0  0  0  0  0  0  0  0  0  0
   66.6592   32.7379   52.5270 O   0  0  0  0  0  0  0  0  0  0  0  0
   64.8108   31.1527   52.3453 O   0  0  0  0  0  0  0  0  0  0  0  0
   58.1790   31.1161   44.4590 N   0  0  0  0  0  0  0  0  0  0  0  0
   57.6441   29.7560   44.5227 C   0  0  0  0  0  0  0  0  0  0  0  0
   59.8649   28.8055   44.9716 C   0  0  0  0  0  0  0  0  0  0  0  0
   58.5686   28.8508   45.2973 C   0  0  0  0  0  0  0  0  0  0  0  0
   58.0364   27.9868   46.3719 C   0  0  0  0  0  0  0  0  0  0  0  0
   58.4767   28.0929   47.5500 O   0  0  0  0  0  0  0  0  0  0  0  0
   57.0000   27.0453   46.0843 N   0  0  0  0  0  0  0  0  0  0  0  0
   57.2244   25.6473   45.8699 C   0  0  0  0  0  0  0  0  0  0  0  0
   58.5349   25.1851   45.7172 C   0  0  0  0  0  0  0  0  0  0  0  0
   58.7886   23.8244   45.5293 C   0  0  0  0  0  0  0  0  0  0  0  0
   57.7317   22.9149   45.5021 C   0  0  0  0  0  0  0  0  0  0  0  0
   56.4174   23.3627   45.6684 C   0  0  0  0  0  0  0  0  0  0  0  0
   55.1024   22.2008   45.6533 Cl  0  0  0  0  0  0  0  0  0  0  0  0
   56.1596   24.7286   45.8615 C   0  0  0  0  0  0  0  0  0  0  0  0
   54.8543   25.1653   46.0678 O   0  0  0  0  0  0  0  0  0  0  0  0
 21 22  2  0
 22 20  1  0
 20 19  1  0
 19  1  1  0
  1  2  2  0
  1  3  1  0
  3  4  2  0
  4  5  1  0
  5  6  2  0
  6  9  1  0
  9 10  1  0
 10 11  1  0
 11 12  1  0
 12 15  1  0
 15 16  1  0
 15 17  2  0
 15 18  2  0
 12 13  1  0
 13 14  1  0
  6  7  1  0
  7  8  2  0
 22 23  1  0
 23 24  2  0
 23 25  1  0
 25 26  1  0
 26 27  2  0
 27 28  1  0
 28 29  2  0
 29 30  1  0
 30 31  1  0
 30 32  2  0
 32 33  1  0
  8  3  1  0
 32 26  1  0
 14  9  1  0
M  CHG 1  19  -1
M  CHG 1  25  -1
M  CHG 1  33  -1
M  END
> <UniqueID>
21

> <SMILES>
C=C(C[N-]C(=O)c1ccc(N2CCN(S(C)(=O)=O)CC2)cn1)C(=O)[N-]c1cccc(Cl)c1[O-]

> <Energy>
66.1359083248249

> <Genealogy>
C=C(C[N-]C(=O)c1ccc(N2CCN(S(C)(=O)=O)CC2)cn1)C(=O)[N-]c1cccc(Cl)c1[O-] (protonated)
C=C(C[N-]C(=O)c1ccc(N2CCN(S(C)(=O)=O)CC2)cn1)C(=O)[N-]c1cccc(Cl)c1[O-] (3D coordinates assigned)
C=C(C[N-]C(=O)c1ccc(N2CCN(S(C)(=O)=O)CC2)cn1)C(=O)[N-]c1cccc(Cl)c1[O-] (nonaromatic ring conformer: 66.1359083248249 kcal/mol)

> <smiles>
C=C(CNC(=O)c1ccc(N2CCN(S(C)(=O)=O)CC2)cn1)C(=O)Nc1cccc(Cl)c1O

> <score_type>
oracle

> <origin>
adg

> <m_score__min__energy>
-16.010000000000002

> <m_primary>
energy

> <minimizedAffinity>
-7.66237

> <minimizedRMSD>
1.40441

> <CNNscore>
0.2052586973

> <CNNaffinity>
6.9785065651

> <CNN_VS>
1.4323991537

> <CNNaffinity_variance>
0.0323061422

$$$$
34:0


 29 31  0  0  0  0  0  0  0  0999 V2000
   58.7052   26.2390   45.8824 S   0  0  0  0  0  0  0  0  0  0  0  0
   60.0649   25.6608   46.1560 O   0  0  0  0  0  0  0  0  0  0  0  0
   58.2974   25.8506   44.4891 O   0  0  0  0  0  0  0  0  0  0  0  0
   58.7557   27.9974   45.9808 C   0  0  0  0  0  0  0  0  0  0  0  0
   59.7912   28.6402   46.6740 C   0  0  0  0  0  0  0  0  0  0  0  0
   59.7847   30.0273   46.8166 C   0  0  0  0  0  0  0  0  0  0  0  0
   58.7453   30.7956   46.2679 C   0  0  0  0  0  0  0  0  0  0  0  0
   57.7140   30.1496   45.5593 C   0  0  0  0  0  0  0  0  0  0  0  0
   56.6845   30.8837   44.9783 O   0  0  0  0  0  0  0  0  0  0  0  0
   57.7215   28.7579   45.4221 C   0  0  0  0  0  0  0  0  0  0  0  0
   58.7429   32.2227   46.4556 N   0  0  0  0  0  0  0  0  0  0  0  0
   58.7124   32.8097   47.7967 C   0  0  0  0  0  0  0  0  0  0  0  0
   59.6057   34.0546   47.8215 C   0  0  0  0  0  0  0  0  0  0  0  0
   59.2522   34.9478   46.7809 O   0  0  0  0  0  0  0  0  0  0  0  0
   59.5067   34.3485   45.5229 C   0  0  0  0  0  0  0  0  0  0  0  0
   58.6083   33.1261   45.3106 C   0  0  0  0  0  0  0  0  0  0  0  0
   57.5716   25.5622   47.0096 N   0  0  0  0  0  0  0  0  0  0  0  0
   55.9408   22.2135   46.4999 C   0  0  0  0  0  0  0  0  0  0  0  0
   54.6946   22.6175   45.9963 C   0  0  0  0  0  0  0  0  0  0  0  0
   54.3955   23.9760   45.8639 C   0  0  0  0  0  0  0  0  0  0  0  0
   55.3440   24.9447   46.2089 C   0  0  0  0  0  0  0  0  0  0  0  0
   55.0307   26.2918   46.0737 O   0  0  0  0  0  0  0  0  0  0  0  0
   56.6078   24.5561   46.6748 C   0  0  0  0  0  0  0  0  0  0  0  0
   56.8912   23.1914   46.8371 C   0  0  0  0  0  0  0  0  0  0  0  0
   56.2562   20.7819   46.6925 C   0  0  0  0  0  0  0  0  0  0  0  0
   56.0975   20.2451   47.8229 O   0  0  0  0  0  0  0  0  0  0  0  0
   56.7469   20.0308   45.6174 O   0  0  0  0  0  0  0  0  0  0  0  0
   57.0149   21.2212   43.5262 C   0  0  0  0  0  0  0  0  0  0  0  0
   56.2536   20.1426   44.2846 C   0  0  0  0  0  0  0  0  0  0  0  0
 28 29  1  0
 29 27  1  0
 27 25  1  0
 25 26  2  0
 25 18  1  0
 18 19  2  0
 19 20  1  0
 20 21  2  0
 21 22  1  0
 21 23  1  0
 23 17  1  0
 17  1  1  0
  1  2  2  0
  1  3  2  0
  1  4  1  0
  4  5  2  0
  5  6  1  0
  6  7  2  0
  7 11  1  0
 11 12  1  0
 12 13  1  0
 13 14  1  0
 14 15  1  0
 15 16  1  0
  7  8  1  0
  8  9  1  0
  8 10  2  0
 23 24  2  0
 24 18  1  0
 10  4  1  0
 16 11  1  0
M  CHG 1   9  -1
M  CHG 1  17  -1
M  CHG 1  22  -1
M  END
> <UniqueID>
29

> <SMILES>
CCOC(=O)c1ccc([O-])c([N-]S(=O)(=O)c2ccc(N3CCOCC3)c([O-])c2)c1

> <Energy>
57.487190676297914

> <Genealogy>
CCOC(=O)c1ccc([O-])c([N-]S(=O)(=O)c2ccc(N3CCOCC3)c([O-])c2)c1 (protonated)
CCOC(=O)c1ccc([O-])c([N-]S(=O)(=O)c2ccc(N3CCOCC3)c([O-])c2)c1 (3D coordinates assigned)
CCOC(=O)c1ccc([O-])c([N-]S(=O)(=O)c2ccc(N3CCOCC3)c([O-])c2)c1 (nonaromatic ring conformer: 57.487190676297914 kcal/mol)

> <smiles>
CCOC(=O)c1ccc(O)c(NS(=O)(=O)c2ccc(N3CCOCC3)c(O)c2)c1

> <score_type>
oracle

> <origin>
adg

> <m_score__min__energy>
-14.77

> <m_primary>
energy

> <minimizedAffinity>
-6.40556

> <minimizedRMSD>
1.12876

> <CNNscore>
0.3585219085

> <CNNaffinity>
5.8158812523

> <CNN_VS>
2.0851209164

> <CNNaffinity_variance>
0.0075543434

$$$$
40:0


 30 33  0  0  0  0  0  0  0  0999 V2000
   59.3258   29.4081   45.8741 N   0  0  0  0  0  0  0  0  0  0  0  0
   59.1936   30.7388   46.3923 C   0  0  0  0  0  0  0  0  0  0  0  0
   58.3459   31.6360   45.7315 C   0  0  0  0  0  0  0  0  0  0  0  0
   58.1822   32.9389   46.2116 C   0  0  0  0  0  0  0  0  0  0  0  0
   58.8483   33.3483   47.3695 C   0  0  0  0  0  0  0  0  0  0  0  0
   59.6773   32.4510   48.0574 C   0  0  0  0  0  0  0  0  0  0  0  0
   59.8431   31.1465   47.5726 C   0  0  0  0  0  0  0  0  0  0  0  0
   60.4986   32.9398   49.5378 S   0  0  0  0  0  0  0  0  0  0  0  0
   59.5534   33.7020   50.4242 O   0  0  0  0  0  0  0  0  0  0  0  0
   60.9375   31.6970   50.2591 O   0  0  0  0  0  0  0  0  0  0  0  0
   61.9010   33.9208   49.1600 N   0  0  0  0  0  0  0  0  0  0  0  0
   63.0926   33.4928   49.9137 C   0  0  0  0  0  0  0  0  0  0  0  0
   63.6988   32.1790   49.3617 C   0  0  0  0  0  0  0  0  0  0  0  0
   63.2794   31.8684   48.0430 O   0  0  0  0  0  0  0  0  0  0  0  0
   63.2713   33.0317   47.2478 C   0  0  0  0  0  0  0  0  0  0  0  0
   62.1502   33.9845   47.7014 C   0  0  0  0  0  0  0  0  0  0  0  0
   57.6101   28.4657   44.5860 O   0  0  0  0  0  0  0  0  0  0  0  0
   58.2651   28.4688   45.6623 C   0  0  0  0  0  0  0  0  0  0  0  0
   57.8887   27.5276   46.7619 C   0  0  0  0  0  0  0  0  0  0  0  0
   57.6940   26.1815   46.2251 N   0  0  0  0  0  0  0  0  0  0  0  0
   58.6534   25.2660   45.9628 C   0  0  0  0  0  0  0  0  0  0  0  0
   60.0165   25.4932   46.1170 O   0  0  0  0  0  0  0  0  0  0  0  0
   58.0832   24.0850   45.5326 C   0  0  0  0  0  0  0  0  0  0  0  0
   56.7256   24.2778   45.5434 C   0  0  0  0  0  0  0  0  0  0  0  0
   56.5148   25.5715   45.9781 C   0  0  0  0  0  0  0  0  0  0  0  0
   55.2729   26.1720   46.1501 O   0  0  0  0  0  0  0  0  0  0  0  0
   55.7270   23.2379   45.1470 C   0  0  0  0  0  0  0  0  0  0  0  0
   56.3952   21.9220   44.8004 C   0  0  0  0  0  0  0  0  0  0  0  0
   57.7341   21.7321   44.7880 C   0  0  0  0  0  0  0  0  0  0  0  0
   58.7478   22.8084   45.1247 C   0  0  0  0  0  0  0  0  0  0  0  0
 17 18  2  0
 18 19  1  0
 19 20  1  0
 20 21  1  0
 21 22  1  0
 21 23  2  0
 23 24  1  0
 24 25  2  0
 25 26  1  0
 24 27  1  0
 27 28  1  0
 28 29  2  0
 29 30  1  0
 18  1  1  0
  1  2  1  0
  2  3  2  0
  3  4  1  0
  4  5  2  0
  5  6  1  0
  6  8  1  0
  8  9  2  0
  8 10  2  0
  8 11  1  0
 11 12  1  0
 12 13  1  0
 13 14  1  0
 14 15  1  0
 15 16  1  0
  6  7  2  0
 25 20  1  0
  7  2  1  0
 30 23  1  0
 16 11  1  0
M  CHG 1   1  -1
M  CHG 1  22  -1
M  CHG 1  26  -1
M  END
> <UniqueID>
35

> <SMILES>
O=C(Cn1c([O-])c2c(c1[O-])CC=CC2)[N-]c1cccc(S(=O)(=O)N2CCOCC2)c1

> <Energy>
97.57795556028452

> <Genealogy>
O=C(Cn1c([O-])c2c(c1[O-])CC=CC2)[N-]c1cccc(S(=O)(=O)N2CCOCC2)c1 (protonated)
O=C(Cn1c([O-])c2c(c1[O-])CC=CC2)[N-]c1cccc(S(=O)(=O)N2CCOCC2)c1 (3D coordinates assigned)
O=C(Cn1c([O-])c2c(c1[O-])CC=CC2)[N-]c1cccc(S(=O)(=O)N2CCOCC2)c1 (nonaromatic ring conformer: 97.57795556028452 kcal/mol)

> <smiles>
O=C(Cn1c(O)c2c(c1O)CC=CC2)Nc1cccc(S(=O)(=O)N2CCOCC2)c1

> <score_type>
oracle

> <origin>
adg

> <m_score__min__energy>
-15.32

> <m_primary>
energy

> <minimizedAffinity>
-7.85654

> <minimizedRMSD>
1.26018

> <CNNscore>
0.3602429628

> <CNNaffinity>
6.4650387764

> <CNN_VS>
2.3289847374

> <CNNaffinity_variance>
0.1666867882

$$$$
65:0


 27 29  0  0  0  0  0  0  0  0999 V2000
   58.8095   30.9861   50.9283 C   0  0  0  0  0  0  0  0  0  0  0  0
   58.4962   32.3130   51.2731 C   0  0  0  0  0  0  0  0  0  0  0  0
   57.7352   32.5823   52.4132 C   0  0  0  0  0  0  0  0  0  0  0  0
   57.3130   31.5360   53.2375 C   0  0  0  0  0  0  0  0  0  0  0  0
   57.6568   30.2137   52.9290 C   0  0  0  0  0  0  0  0  0  0  0  0
   58.4134   29.9458   51.7791 C   0  0  0  0  0  0  0  0  0  0  0  0
   57.2029   28.8964   54.0068 S   0  0  0  0  0  0  0  0  0  0  0  0
   57.2001   29.3680   55.4347 O   0  0  0  0  0  0  0  0  0  0  0  0
   58.2152   27.7944   53.8667 O   0  0  0  0  0  0  0  0  0  0  0  0
   55.6304   28.2707   53.5997 N   0  0  0  0  0  0  0  0  0  0  0  0
   54.5758   28.9310   54.3702 C   0  0  0  0  0  0  0  0  0  0  0  0
   53.6958   29.7540   53.4704 C   0  0  0  0  0  0  0  0  0  0  0  0
   54.1152   30.0940   52.1744 C   0  0  0  0  0  0  0  0  0  0  0  0
   53.2973   30.8766   51.3530 C   0  0  0  0  0  0  0  0  0  0  0  0
   52.0567   31.3238   51.8170 C   0  0  0  0  0  0  0  0  0  0  0  0
   51.2531   32.1107   50.9992 O   0  0  0  0  0  0  0  0  0  0  0  0
   51.6291   30.9832   53.1054 C   0  0  0  0  0  0  0  0  0  0  0  0
   50.3938   31.4195   53.5692 O   0  0  0  0  0  0  0  0  0  0  0  0
   52.4469   30.2061   53.9315 C   0  0  0  0  0  0  0  0  0  0  0  0
   59.6080   30.6692   49.7783 N   0  0  0  0  0  0  0  0  0  0  0  0
   58.9510   29.9332   47.6814 O   0  0  0  0  0  0  0  0  0  0  0  0
   59.2847   30.9101   48.4023 C   0  0  0  0  0  0  0  0  0  0  0  0
   59.2543   32.2679   47.8277 C   0  0  0  0  0  0  0  0  0  0  0  0
   58.4316   32.6913   46.8007 C   0  0  0  0  0  0  0  0  0  0  0  0
   58.7347   34.0200   46.6027 C   0  0  0  0  0  0  0  0  0  0  0  0
   59.7185   34.3285   47.5175 C   0  0  0  0  0  0  0  0  0  0  0  0
   60.0043   33.2660   48.2352 O   0  0  0  0  0  0  0  0  0  0  0  0
 21 22  2  0
 22 20  1  0
 20  1  1  0
  1  2  2  0
  2  3  1  0
  3  4  2  0
  4  5  1  0
  5  7  1  0
  7  8  2  0
  7  9  2  0
  7 10  1  0
 10 11  1  0
 11 12  1  0
 12 13  2  0
 13 14  1  0
 14 15  2  0
 15 16  1  0
 15 17  1  0
 17 18  1  0
 17 19  2  0
  5  6  2  0
 22 23  1  0
 23 24  2  0
 24 25  1  0
 25 26  2  0
 26 27  1  0
  6  1  1  0
 27 23  1  0
 19 12  1  0
M  CHG 1  10  -1
M  CHG 1  16  -1
M  CHG 1  18  -1
M  CHG 1  20  -1
M  END
> <UniqueID>
60

> <SMILES>
O=C([N-]c1cccc(S(=O)(=O)[N-]Cc2ccc([O-])c([O-])c2)c1)c1ccco1

> <Energy>
67.07489334962278

> <Genealogy>
O=C([N-]c1cccc(S(=O)(=O)[N-]Cc2ccc([O-])c([O-])c2)c1)c1ccco1 (protonated)
O=C([N-]c1cccc(S(=O)(=O)[N-]Cc2ccc([O-])c([O-])c2)c1)c1ccco1 (3D coordinates assigned)
O=C([N-]c1cccc(S(=O)(=O)[N-]Cc2ccc([O-])c([O-])c2)c1)c1ccco1 (optimized conformer: 67.07489334962278 kcal/mol)

> <smiles>
O=C(Nc1cccc(S(=O)(=O)NCc2ccc(O)c(O)c2)c1)c1ccco1

> <score_type>
oracle

> <origin>
adg

> <m_score__min__energy>
-18.239999999999998

> <m_primary>
energy

> <minimizedAffinity>
-6.14844

> <minimizedRMSD>
1.28410

> <CNNscore>
0.4385704100

> <CNNaffinity>
5.3339838982

> <CNN_VS>
2.3393275738

> <CNNaffinity_variance>
0.1001632214

$$$$
81:0


 23 24  0  0  0  0  0  0  0  0999 V2000
   58.1991   26.7949   43.7956 O   0  0  0  0  0  0  0  0  0  0  0  0
   57.7899   26.9072   44.9805 C   0  0  0  0  0  0  0  0  0  0  0  0
   57.4850   25.6858   45.7495 C   0  0  0  0  0  0  0  0  0  0  0  0
   56.1745   25.3925   46.1545 C   0  0  0  0  0  0  0  0  0  0  0  0
   55.1358   26.2768   45.8796 O   0  0  0  0  0  0  0  0  0  0  0  0
   55.9127   24.2440   46.8338 N   0  0  0  0  0  0  0  0  0  0  0  0
   56.9123   23.3763   47.1497 C   0  0  0  0  0  0  0  0  0  0  0  0
   56.6545   22.3146   47.7763 O   0  0  0  0  0  0  0  0  0  0  0  0
   58.1910   23.6541   46.7933 N   0  0  0  0  0  0  0  0  0  0  0  0
   58.5007   24.7850   46.1087 C   0  0  0  0  0  0  0  0  0  0  0  0
   59.6999   25.0071   45.7899 O   0  0  0  0  0  0  0  0  0  0  0  0
   54.9878   24.0375   47.1007 H   0  0  0  0  0  0  0  0  0  0  0  0
   57.6161   28.2173   45.5323 N   0  0  0  0  0  0  0  0  0  0  0  0
   57.0568   29.6067   44.6539 S   0  0  0  0  0  0  0  0  0  0  0  0
   55.5903   29.7950   44.9170 O   0  0  0  0  0  0  0  0  0  0  0  0
   57.2575   29.3817   43.1808 O   0  0  0  0  0  0  0  0  0  0  0  0
   57.9050   31.0569   45.1821 C   0  0  0  0  0  0  0  0  0  0  0  0
   58.7074   31.0406   46.3333 C   0  0  0  0  0  0  0  0  0  0  0  0
   59.3318   32.2123   46.7702 C   0  0  0  0  0  0  0  0  0  0  0  0
   59.1610   33.4055   46.0600 C   0  0  0  0  0  0  0  0  0  0  0  0
   59.9334   34.8770   46.6185 Cl  0  0  0  0  0  0  0  0  0  0  0  0
   58.3694   33.4240   44.9079 C   0  0  0  0  0  0  0  0  0  0  0  0
   57.7434   32.2534   44.4684 C   0  0  0  0  0  0  0  0  0  0  0  0
  1  2  2  0
  2 13  1  0
 13 14  1  0
 14 15  2  0
 14 16  2  0
 14 17  1  0
 17 18  2  0
 18 19  1  0
 19 20  2  0
 20 21  1  0
 20 22  1  0
 22 23  2  0
  2  3  1  0
  3  4  2  0
  4  5  1  0
  4  6  1  0
  6  7  1  0
  7  8  2  0
  7  9  1  0
  9 10  1  0
 10 11  2  0
 23 17  1  0
 10  3  1  0
  6 12  1  0
M  CHG 1   5  -1
M  CHG 1   9  -1
M  CHG 1  13  -1
M  END
> <UniqueID>
75

> <SMILES>
O=C([N-]S(=O)(=O)c1ccc(Cl)cc1)c1c([O-])[nH]c(=O)[n-]c1=O

> <Energy>
36.39094310969337

> <Genealogy>
O=C([N-]S(=O)(=O)c1ccc(Cl)cc1)c1c([O-])[nH]c(=O)[n-]c1=O (protonated)
O=C([N-]S(=O)(=O)c1ccc(Cl)cc1)c1c([O-])[nH]c(=O)[n-]c1=O (3D coordinates assigned)
O=C([N-]S(=O)(=O)c1ccc(Cl)cc1)c1c([O-])[nH]c(=O)[n-]c1=O (optimized conformer: 36.39094310969337 kcal/mol)

> <smiles>
O=C(NS(=O)(=O)c1ccc(Cl)cc1)c1c(O)[nH]c(=O)[nH]c1=O

> <score_type>
oracle

> <origin>
adg

> <m_score__min__energy>
-15.050000000000001

> <m_primary>
energy

> <minimizedAffinity>
-5.92757

> <minimizedRMSD>
0.73161

> <CNNscore>
0.3056753576

> <CNNaffinity>
5.8043556213

> <CNN_VS>
1.7742484808

> <CNNaffinity_variance>
0.1281308383

$$$$
14:0


 31 34  0  0  0  0  0  0  0  0999 V2000
   58.4682   26.3993   45.2473 C   0  0  0  0  0  0  0  0  0  0  0  0
   58.5479   27.7350   45.4086 C   0  0  0  0  0  0  0  0  0  0  0  0
   57.9756   28.6322   44.5223 C   0  0  0  0  0  0  0  0  0  0  0  0
   58.3335   29.8952   44.9455 C   0  0  0  0  0  0  0  0  0  0  0  0
   57.9389   31.1660   44.2546 C   0  0  0  0  0  0  0  0  0  0  0  0
   59.0614   29.8232   46.0820 N   0  0  0  0  0  0  0  0  0  0  0  0
   59.1767   28.5071   46.3990 C   0  0  0  0  0  0  0  0  0  0  0  0
   59.6661   28.0756   47.5720 C   0  0  0  0  0  0  0  0  0  0  0  0
   55.5061   26.6325   45.9288 O   0  0  0  0  0  0  0  0  0  0  0  0
   56.3273   25.5820   46.3274 C   0  0  0  0  0  0  0  0  0  0  0  0
   55.8963   24.5096   47.0111 N   0  0  0  0  0  0  0  0  0  0  0  0
   57.0202   23.7695   47.1379 C   0  0  0  0  0  0  0  0  0  0  0  0
   57.0364   22.6576   47.7269 O   0  0  0  0  0  0  0  0  0  0  0  0
   58.1207   24.3103   46.5721 N   0  0  0  0  0  0  0  0  0  0  0  0
   57.6740   25.4813   46.0811 C   0  0  0  0  0  0  0  0  0  0  0  0
   54.5934   26.6200   46.1405 H   0  0  0  0  0  0  0  0  0  0  0  0
   59.5709   30.9438   46.8255 C   0  0  0  0  0  0  0  0  0  0  0  0
   58.6873   31.8320   47.4528 C   0  0  0  0  0  0  0  0  0  0  0  0
   59.1803   32.9175   48.1806 C   0  0  0  0  0  0  0  0  0  0  0  0
   60.5583   33.1201   48.2930 C   0  0  0  0  0  0  0  0  0  0  0  0
   61.4583   32.2308   47.6810 C   0  0  0  0  0  0  0  0  0  0  0  0
   60.9553   31.1517   46.9357 C   0  0  0  0  0  0  0  0  0  0  0  0
   62.9216   32.4432   47.7852 C   0  0  0  0  0  0  0  0  0  0  0  0
   63.5309   33.0071   46.8378 O   0  0  0  0  0  0  0  0  0  0  0  0
   63.6658   32.0798   48.9592 N   0  0  0  0  0  0  0  0  0  0  0  0
   63.1799   31.9301   50.1568 C   0  0  0  0  0  0  0  0  0  0  0  0
   63.3892   32.8661   51.1268 N   0  0  0  0  0  0  0  0  0  0  0  0
   62.8761   32.7338   52.3796 C   0  0  0  0  0  0  0  0  0  0  0  0
   62.1015   31.6182   52.7025 C   0  0  0  0  0  0  0  0  0  0  0  0
   61.8611   30.6494   51.7260 C   0  0  0  0  0  0  0  0  0  0  0  0
   62.3973   30.8043   50.4453 C   0  0  0  0  0  0  0  0  0  0  0  0
  9 10  1  0
 10 11  1  0
 11 12  1  0
 12 13  2  0
 12 14  1  0
 14 15  1  0
 15  1  1  0
  1  2  2  0
  2  3  1  0
  3  4  2  0
  4  5  1  0
  4  6  1  0
  6 17  1  0
 17 18  2  0
 18 19  1  0
 19 20  2  0
 20 21  1  0
 21 23  1  0
 23 24  2  0
 23 25  1  0
 25 26  2  0
 26 27  1  0
 27 28  1  0
 28 29  2  0
 29 30  1  0
 30 31  2  0
 21 22  2  0
  6  7  1  0
  7  8  2  0
 15 10  2  0
  7  2  1  0
 22 17  1  0
 31 26  1  0
  9 16  1  0
M  CHG 1  11  -1
M  CHG 1  14  -1
M  CHG 1  27  -1
M  END
> <UniqueID>
14

> <SMILES>
C=c1c(=Cc2[n-]c(=O)[n-]c2O)cc(C)n1-c1cccc(C(=O)/N=c2/cccc[n-]2)c1

> <Energy>
132.67922331112229

> <Genealogy>
C=c1c(=Cc2[n-]c(=O)[n-]c2O)cc(C)n1-c1cccc(C(=O)N=c2cccc[n-]2)c1 (protonated)
C=c1c(=Cc2[n-]c(=O)[n-]c2O)cc(C)n1-c1cccc(C(=O)/N=c2/cccc[n-]2)c1 (cis-trans isomerization)
C=c1c(=Cc2[n-]c(=O)[n-]c2O)cc(C)n1-c1cccc(C(=O)/N=c2/cccc[n-]2)c1 (3D coordinates assigned)
C=c1c(=Cc2[n-]c(=O)[n-]c2O)cc(C)n1-c1cccc(C(=O)/N=c2/cccc[n-]2)c1 (optimized conformer: 132.67922331112229 kcal/mol)

> <smiles>
C=c1c(=Cc2[nH]c(=O)[nH]c2O)cc(C)n1-c1cccc(C(=O)N=c2cccc[nH]2)c1

> <score_type>
oracle

> <origin>
adg

> <m_score__min__energy>
-15.029999999999999

> <m_primary>
energy

> <minimizedAffinity>
-9.25825

> <minimizedRMSD>
2.48243

> <CNNscore>
0.4882903099

> <CNNaffinity>
7.2523155212

> <CNN_VS>
3.5412354469

> <CNNaffinity_variance>
0.2261493951

$$$$
22:0


 34 36  0  0  0  0  0  0  0  0999 V2000
   58.8500   27.6145   46.1710 C   0  0  0  0  0  0  0  0  0  0  0  0
   58.1541   28.3965   45.4681 O   0  0  0  0  0  0  0  0  0  0  0  0
   57.7945   25.5134   45.4630 C   0  0  0  0  0  0  0  0  0  0  0  0
   58.3789   26.2331   46.4453 C   0  0  0  0  0  0  0  0  0  0  0  0
   58.5480   25.6796   47.8409 C   0  0  0  0  0  0  0  0  0  0  0  0
   56.1976   22.1193   45.7907 N   0  0  0  0  0  0  0  0  0  0  0  0
   54.9056   22.4728   46.0899 C   0  0  0  0  0  0  0  0  0  0  0  0
   54.0272   21.5909   46.2973 O   0  0  0  0  0  0  0  0  0  0  0  0
   54.5503   23.7800   46.1635 N   0  0  0  0  0  0  0  0  0  0  0  0
   55.4501   24.7722   45.9641 C   0  0  0  0  0  0  0  0  0  0  0  0
   55.0254   26.0954   46.0120 O   0  0  0  0  0  0  0  0  0  0  0  0
   56.7863   24.4554   45.6961 C   0  0  0  0  0  0  0  0  0  0  0  0
   57.1399   23.1009   45.5924 C   0  0  0  0  0  0  0  0  0  0  0  0
   58.3363   22.7935   45.3272 O   0  0  0  0  0  0  0  0  0  0  0  0
   56.5685   20.6922   45.7178 C   0  0  0  0  0  0  0  0  0  0  0  0
   56.6752   20.9082   43.2459 C   0  0  0  0  0  0  0  0  0  0  0  0
   56.3872   20.1671   44.3192 C   0  0  0  0  0  0  0  0  0  0  0  0
   60.0743   28.0760   46.7585 N   0  0  0  0  0  0  0  0  0  0  0  0
   60.2812   29.3280   47.4277 C   0  0  0  0  0  0  0  0  0  0  0  0
   61.1324   30.2711   46.8385 C   0  0  0  0  0  0  0  0  0  0  0  0
   61.3330   31.5172   47.4379 C   0  0  0  0  0  0  0  0  0  0  0  0
   60.6691   31.8431   48.6262 C   0  0  0  0  0  0  0  0  0  0  0  0
   59.8010   30.9100   49.2118 C   0  0  0  0  0  0  0  0  0  0  0  0
   59.6023   29.6618   48.6136 C   0  0  0  0  0  0  0  0  0  0  0  0
   60.8957   33.4343   49.3446 S   0  0  0  0  0  0  0  0  0  0  0  0
   62.1446   34.0441   48.7708 O   0  0  0  0  0  0  0  0  0  0  0  0
   61.0602   33.3130   50.8352 O   0  0  0  0  0  0  0  0  0  0  0  0
   59.5343   34.4546   48.9480 N   0  0  0  0  0  0  0  0  0  0  0  0
   59.0633   34.3659   47.5547 C   0  0  0  0  0  0  0  0  0  0  0  0
   60.1908   34.4672   46.5035 C   0  0  0  0  0  0  0  0  0  0  0  0
   59.6169   34.5557   45.0761 C   0  0  0  0  0  0  0  0  0  0  0  0
   58.3223   33.7365   44.8775 C   0  0  0  0  0  0  0  0  0  0  0  0
   58.1911   32.5983   45.8965 C   0  0  0  0  0  0  0  0  0  0  0  0
   58.1439   33.1382   47.3380 C   0  0  0  0  0  0  0  0  0  0  0  0
 16 17  2  0
 17 15  1  0
 15  6  1  0
  6  7  1  0
  7  8  2  0
  7  9  1  0
  9 10  1  0
 10 11  1  0
 10 12  2  0
 12  3  1  0
  3  4  2  0
  4  5  1  0
  4  1  1  0
  1  2  2  0
  1 18  1  0
 18 19  1  0
 19 20  2  0
 20 21  1  0
 21 22  2  0
 22 25  1  0
 25 26  2  0
 25 27  2  0
 25 28  1  0
 28 29  1  0
 29 30  1  0
 30 31  1  0
 31 32  1  0
 32 33  1  0
 33 34  1  0
 22 23  1  0
 23 24  2  0
 12 13  1  0
 13 14  2  0
 13  6  1  0
 24 19  1  0
 34 29  1  0
M  CHG 1   9  -1
M  CHG 1  11  -1
M  CHG 1  18  -1
M  CHG 1  28  -1
M  END
> <UniqueID>
22

> <SMILES>
C=CCn1c(=O)[n-]c([O-])c(C=C(C)C(=O)[N-]c2ccc(S(=O)(=O)[N-]C3CCCCC3)cc2)c1=O

> <Energy>
78.82796765434621

> <Genealogy>
C=CCn1c(=O)[n-]c([O-])c(C=C(C)C(=O)[N-]c2ccc(S(=O)(=O)[N-]C3CCCCC3)cc2)c1=O (protonated)
C=CCn1c(=O)[n-]c([O-])c(C=C(C)C(=O)[N-]c2ccc(S(=O)(=O)[N-]C3CCCCC3)cc2)c1=O (3D coordinates assigned)
C=CCn1c(=O)[n-]c([O-])c(C=C(C)C(=O)[N-]c2ccc(S(=O)(=O)[N-]C3CCCCC3)cc2)c1=O (nonaromatic ring conformer: 78.82796765434621 kcal/mol)

> <smiles>
C=CCn1c(=O)[nH]c(O)c(C=C(C)C(=O)Nc2ccc(S(=O)(=O)NC3CCCCC3)cc2)c1=O

> <score_type>
oracle

> <origin>
adg

> <m_score__min__energy>
-17.420000000000002

> <m_primary>
energy

> <minimizedAffinity>
-7.02622

> <minimizedRMSD>
0.73233

> <CNNscore>
0.1788822860

> <CNNaffinity>
7.0603919029

> <CNN_VS>
1.2629790306

> <CNNaffinity_variance>
0.2309011817

$$$$
48:0


 25 27  0  0  0  0  0  0  0  0999 V2000
   58.4988   29.7261   45.5535 C   0  0  0  0  0  0  0  0  0  0  0  0
   57.6346   30.8173   45.3691 C   0  0  0  0  0  0  0  0  0  0  0  0
   56.5627   30.7461   44.4860 O   0  0  0  0  0  0  0  0  0  0  0  0
   57.8589   31.9750   46.0365 N   0  0  0  0  0  0  0  0  0  0  0  0
   58.9148   32.1216   46.8739 C   0  0  0  0  0  0  0  0  0  0  0  0
   59.0634   33.2163   47.4827 O   0  0  0  0  0  0  0  0  0  0  0  0
   59.7992   31.0916   47.0564 N   0  0  0  0  0  0  0  0  0  0  0  0
   59.6086   29.9020   46.4007 C   0  0  0  0  0  0  0  0  0  0  0  0
   60.4289   28.9532   46.5561 O   0  0  0  0  0  0  0  0  0  0  0  0
   60.9286   31.2594   47.9387 C   0  0  0  0  0  0  0  0  0  0  0  0
   60.8684   30.7916   49.2634 C   0  0  0  0  0  0  0  0  0  0  0  0
   61.9627   30.9548   50.1177 C   0  0  0  0  0  0  0  0  0  0  0  0
   63.1223   31.5854   49.6567 C   0  0  0  0  0  0  0  0  0  0  0  0
   63.1900   32.0541   48.3426 C   0  0  0  0  0  0  0  0  0  0  0  0
   62.0976   31.8914   47.4843 C   0  0  0  0  0  0  0  0  0  0  0  0
   57.2460   27.6444   45.0654 C   0  0  0  0  0  0  0  0  0  0  0  0
   58.3062   28.4364   44.8447 C   0  0  0  0  0  0  0  0  0  0  0  0
   57.3576   26.2251   45.4863 C   0  0  0  0  0  0  0  0  0  0  0  0
   58.5839   25.5291   45.4356 C   0  0  0  0  0  0  0  0  0  0  0  0
   58.6622   24.1981   45.8546 C   0  0  0  0  0  0  0  0  0  0  0  0
   57.5248   23.5463   46.3371 C   0  0  0  0  0  0  0  0  0  0  0  0
   57.6065   22.2240   46.7532 O   0  0  0  0  0  0  0  0  0  0  0  0
   56.3084   24.2272   46.4081 C   0  0  0  0  0  0  0  0  0  0  0  0
   56.2209   25.5599   45.9890 C   0  0  0  0  0  0  0  0  0  0  0  0
   54.9933   26.2117   46.0683 O   0  0  0  0  0  0  0  0  0  0  0  0
 16 17  2  0
 17  1  1  0
  1  2  2  0
  2  3  1  0
  2  4  1  0
  4  5  1  0
  5  6  2  0
  5  7  1  0
  7 10  1  0
 10 11  2  0
 11 12  1  0
 12 13  2  0
 13 14  1  0
 14 15  2  0
  7  8  1  0
  8  9  2  0
 16 18  1  0
 18 19  2  0
 19 20  1  0
 20 21  2  0
 21 22  1  0
 21 23  1  0
 23 24  2  0
 24 25  1  0
  8  1  1  0
 24 18  1  0
 15 10  1  0
M  CHG 1   3  -1
M  CHG 1   4  -1
M  CHG 1  22  -1
M  CHG 1  25  -1
M  END
> <UniqueID>
47

> <SMILES>
O=c1[n-]c([O-])c(/C=C/c2ccc([O-])cc2[O-])c(=O)n1-c1ccccc1

> <Energy>
58.5246834505305

> <Genealogy>
O=c1[n-]c([O-])c(C=Cc2ccc([O-])cc2[O-])c(=O)n1-c1ccccc1 (protonated)
O=c1[n-]c([O-])c(/C=C/c2ccc([O-])cc2[O-])c(=O)n1-c1ccccc1 (cis-trans isomerization)
O=c1[n-]c([O-])c(/C=C/c2ccc([O-])cc2[O-])c(=O)n1-c1ccccc1 (3D coordinates assigned)
O=c1[n-]c([O-])c(/C=C/c2ccc([O-])cc2[O-])c(=O)n1-c1ccccc1 (optimized conformer: 58.5246834505305 kcal/mol)

> <smiles>
O=c1[nH]c(O)c(C=Cc2ccc(O)cc2O)c(=O)n1-c1ccccc1

> <score_type>
oracle

> <origin>
adg

> <m_score__min__energy>
-17.57

> <m_primary>
energy

> <minimizedAffinity>
-7.94702

> <minimizedRMSD>
1.12880

> <CNNscore>
0.3893473148

> <CNNaffinity>
6.5300927162

> <CNN_VS>
2.5424740314

> <CNNaffinity_variance>
0.5257676244

$$$$
54:0


 29 31  0  0  0  0  0  0  0  0999 V2000
   58.7386   29.7544   46.2399 C   0  0  0  0  0  0  0  0  0  0  0  0
   59.9550   30.3890   45.9373 C   0  0  0  0  0  0  0  0  0  0  0  0
   60.8506   30.7318   46.9561 C   0  0  0  0  0  0  0  0  0  0  0  0
   60.5385   30.4480   48.2920 C   0  0  0  0  0  0  0  0  0  0  0  0
   59.3300   29.8102   48.5986 C   0  0  0  0  0  0  0  0  0  0  0  0
   58.4312   29.4738   47.5820 C   0  0  0  0  0  0  0  0  0  0  0  0
   61.6361   30.9225   49.5877 S   0  0  0  0  0  0  0  0  0  0  0  0
   61.8798   29.7470   50.4917 O   0  0  0  0  0  0  0  0  0  0  0  0
   62.9494   31.3969   49.0223 O   0  0  0  0  0  0  0  0  0  0  0  0
   60.9206   32.2072   50.5004 N   0  0  0  0  0  0  0  0  0  0  0  0
   59.8966   33.0446   49.9534 C   0  0  0  0  0  0  0  0  0  0  0  0
   58.6918   32.8824   50.2842 O   0  0  0  0  0  0  0  0  0  0  0  0
   60.2656   34.1565   49.0246 C   0  0  0  0  0  0  0  0  0  0  0  0
   59.5076   34.0139   47.7315 C   0  0  0  0  0  0  0  0  0  0  0  0
   60.0491   34.5216   46.5337 C   0  0  0  0  0  0  0  0  0  0  0  0
   59.3682   34.3480   45.3257 C   0  0  0  0  0  0  0  0  0  0  0  0
   58.1401   33.6685   45.3019 C   0  0  0  0  0  0  0  0  0  0  0  0
   57.5977   33.1593   46.4877 C   0  0  0  0  0  0  0  0  0  0  0  0
   58.2782   33.3218   47.6994 C   0  0  0  0  0  0  0  0  0  0  0  0
   57.7652   29.4322   45.1662 C   0  0  0  0  0  0  0  0  0  0  0  0
   57.4152   30.3313   44.3523 O   0  0  0  0  0  0  0  0  0  0  0  0
   59.5686   25.6834   46.2360 C   0  0  0  0  0  0  0  0  0  0  0  0
   59.0647   26.7776   45.6065 N   0  0  0  0  0  0  0  0  0  0  0  0
   57.7234   27.0287   45.5540 C   0  0  0  0  0  0  0  0  0  0  0  0
   57.2678   28.0987   44.9701 N   0  0  0  0  0  0  0  0  0  0  0  0
   56.8284   26.1387   46.1707 C   0  0  0  0  0  0  0  0  0  0  0  0
   55.4573   26.3643   46.1281 O   0  0  0  0  0  0  0  0  0  0  0  0
   57.3282   25.0097   46.8257 C   0  0  0  0  0  0  0  0  0  0  0  0
   58.7105   24.7830   46.8707 C   0  0  0  0  0  0  0  0  0  0  0  0
 22 23  1  0
 23 24  1  0
 24 25  2  0
 25 20  1  0
 20 21  2  0
 20  1  1  0
  1  2  2  0
  2  3  1  0
  3  4  2  0
  4  7  1  0
  7  8  2  0
  7  9  2  0
  7 10  1  0
 10 11  1  0
 11 12  2  0
 11 13  1  0
 13 14  1  0
 14 15  2  0
 15 16  1  0
 16 17  2  0
 17 18  1  0
 18 19  2  0
  4  5  1  0
  5  6  2  0
 24 26  1  0
 26 27  1  0
 26 28  2  0
 28 29  1  0
 29 22  2  0
  6  1  1  0
 19 14  1  0
M  CHG 1  10  -1
M  CHG 1  23  -1
M  CHG 1  27  -1
M  END
> <UniqueID>
53

> <SMILES>
O=C(Cc1ccccc1)[N-]S(=O)(=O)c1ccc(C(=O)/N=c2\[n-]cccc2[O-])cc1

> <Energy>
54.24394256442506

> <Genealogy>
O=C(Cc1ccccc1)[N-]S(=O)(=O)c1ccc(C(=O)N=c2[n-]cccc2[O-])cc1 (protonated)
O=C(Cc1ccccc1)[N-]S(=O)(=O)c1ccc(C(=O)/N=c2\[n-]cccc2[O-])cc1 (cis-trans isomerization)
O=C(Cc1ccccc1)[N-]S(=O)(=O)c1ccc(C(=O)/N=c2\[n-]cccc2[O-])cc1 (3D coordinates assigned)
O=C(Cc1ccccc1)[N-]S(=O)(=O)c1ccc(C(=O)/N=c2\[n-]cccc2[O-])cc1 (optimized conformer: 54.24394256442506 kcal/mol)

> <smiles>
O=C(Cc1ccccc1)NS(=O)(=O)c1ccc(C(=O)N=c2[nH]cccc2O)cc1

> <score_type>
oracle

> <origin>
adg

> <m_score__min__energy>
-15.41

> <m_primary>
energy

> <minimizedAffinity>
-6.69266

> <minimizedRMSD>
0.72466

> <CNNscore>
0.6150134206

> <CNNaffinity>
6.7219862938

> <CNN_VS>
4.1341118813

> <CNNaffinity_variance>
0.0401372500

$$$$
84:0


 31 34  0  0  0  0  0  0  0  0999 V2000
   58.0551   27.4400   45.3152 C   0  0  0  0  0  0  0  0  0  0  0  0
   57.9891   28.5497   44.4518 C   0  0  0  0  0  0  0  0  0  0  0  0
   58.3169   29.8260   44.9143 C   0  0  0  0  0  0  0  0  0  0  0  0
   58.7256   30.0152   46.2391 C   0  0  0  0  0  0  0  0  0  0  0  0
   58.8010   28.9140   47.1031 C   0  0  0  0  0  0  0  0  0  0  0  0
   58.4751   27.6350   46.6424 C   0  0  0  0  0  0  0  0  0  0  0  0
   59.1067   31.6366   46.8137 S   0  0  0  0  0  0  0  0  0  0  0  0
   58.1703   31.9785   47.9404 O   0  0  0  0  0  0  0  0  0  0  0  0
   58.9090   32.6347   45.7056 O   0  0  0  0  0  0  0  0  0  0  0  0
   60.7585   31.6913   47.3777 N   0  0  0  0  0  0  0  0  0  0  0  0
   61.3285   33.0297   47.1356 C   0  0  0  0  0  0  0  0  0  0  0  0
   62.8269   33.0425   47.4571 C   0  0  0  0  0  0  0  0  0  0  0  0
   63.1251   32.3858   48.7792 C   0  0  0  0  0  0  0  0  0  0  0  0
   64.3885   32.5614   49.3656 C   0  0  0  0  0  0  0  0  0  0  0  0
   64.7068   31.9200   50.5652 C   0  0  0  0  0  0  0  0  0  0  0  0
   63.7697   31.0899   51.1847 C   0  0  0  0  0  0  0  0  0  0  0  0
   62.5141   30.8972   50.6039 C   0  0  0  0  0  0  0  0  0  0  0  0
   62.1883   31.5239   49.3914 C   0  0  0  0  0  0  0  0  0  0  0  0
   60.8018   31.3565   48.8147 C   0  0  0  0  0  0  0  0  0  0  0  0
   61.3164   31.0078   46.8658 H   0  0  0  0  0  0  0  0  0  0  0  0
   57.8581   25.8057   43.6094 O   0  0  0  0  0  0  0  0  0  0  0  0
   57.7186   26.0774   44.8335 C   0  0  0  0  0  0  0  0  0  0  0  0
   57.2156   25.0199   45.7445 C   0  0  0  0  0  0  0  0  0  0  0  0
   55.9283   25.1083   46.3014 C   0  0  0  0  0  0  0  0  0  0  0  0
   55.1089   26.1998   46.0313 O   0  0  0  0  0  0  0  0  0  0  0  0
   55.4753   24.1291   47.1261 N   0  0  0  0  0  0  0  0  0  0  0  0
   56.2434   23.0516   47.4230 C   0  0  0  0  0  0  0  0  0  0  0  0
   55.8037   22.1589   48.1922 O   0  0  0  0  0  0  0  0  0  0  0  0
   57.4850   22.9332   46.8879 N   0  0  0  0  0  0  0  0  0  0  0  0
   57.9853   23.8826   46.0558 C   0  0  0  0  0  0  0  0  0  0  0  0
   59.1315   23.7222   45.5569 O   0  0  0  0  0  0  0  0  0  0  0  0
 21 22  2  0
 22  1  1  0
  1  2  2  0
  2  3  1  0
  3  4  2  0
  4  7  1  0
  7  8  2  0
  7  9  2  0
 10  7  1  0
 10 11  1  0
 11 12  1  0
 12 13  1  0
 13 14  2  0
 14 15  1  0
 15 16  2  0
 16 17  1  0
 17 18  2  0
 18 19  1  0
  4  5  1  0
  5  6  2  0
 22 23  1  0
 23 24  2  0
 24 25  1  0
 24 26  1  0
 26 27  1  0
 27 28  2  0
 27 29  1  0
 29 30  1  0
 30 31  2  0
  6  1  1  0
 30 23  1  0
 19 10  1  0
 18 13  1  0
 10 20  1  0
M  CHG 1  10   1
M  CHG 1  25  -1
M  CHG 1  26  -1
M  CHG 1  29  -1
M  END
> <UniqueID>
81

> <SMILES>
O=C(c1ccc(S(=O)(=O)[N@H+]2CCc3ccccc3C2)cc1)c1c([O-])[n-]c(=O)[n-]c1=O

> <Energy>
60.31956095897329

> <Genealogy>
O=C(c1ccc(S(=O)(=O)[NH+]2CCc3ccccc3C2)cc1)c1c([O-])[n-]c(=O)[n-]c1=O (protonated)
O=C(c1ccc(S(=O)(=O)[N@H+]2CCc3ccccc3C2)cc1)c1c([O-])[n-]c(=O)[n-]c1=O (chirality)
O=C(c1ccc(S(=O)(=O)[N@H+]2CCc3ccccc3C2)cc1)c1c([O-])[n-]c(=O)[n-]c1=O (3D coordinates assigned)
O=C(c1ccc(S(=O)(=O)[N@H+]2CCc3ccccc3C2)cc1)c1c([O-])[n-]c(=O)[n-]c1=O (nonaromatic ring conformer: 60.31956095897329 kcal/mol)

> <smiles>
O=C(c1ccc(S(=O)(=O)N2CCc3ccccc3C2)cc1)c1c(O)[nH]c(=O)[nH]c1=O

> <score_type>
oracle

> <origin>
adg

> <m_score__min__energy>
-15.69

> <m_primary>
energy

> <minimizedAffinity>
-8.80148

> <minimizedRMSD>
0.94449

> <CNNscore>
0.1008015648

> <CNNaffinity>
6.1997623444

> <CNN_VS>
0.6249457598

> <CNNaffinity_variance>
0.3002988696

$$$$
45:0


 30 32  0  0  0  0  0  0  0  0999 V2000
   59.3174   28.5164   48.2313 C   0  0  0  0  0  0  0  0  0  0  0  0
   60.5367   27.8247   48.1919 C   0  0  0  0  0  0  0  0  0  0  0  0
   60.6752   26.6915   47.3870 C   0  0  0  0  0  0  0  0  0  0  0  0
   59.6029   26.2502   46.6073 C   0  0  0  0  0  0  0  0  0  0  0  0
   58.3800   26.9371   46.6374 C   0  0  0  0  0  0  0  0  0  0  0  0
   58.2524   28.0849   47.4279 C   0  0  0  0  0  0  0  0  0  0  0  0
   58.4322   29.6416   50.1032 O   0  0  0  0  0  0  0  0  0  0  0  0
   59.1774   29.7063   49.0926 C   0  0  0  0  0  0  0  0  0  0  0  0
   59.8326   30.9457   48.7952 N   0  0  0  0  0  0  0  0  0  0  0  0
   60.4359   31.4126   47.2338 S   0  0  0  0  0  0  0  0  0  0  0  0
   61.6212   30.5514   46.9028 O   0  0  0  0  0  0  0  0  0  0  0  0
   60.8777   32.8462   47.2983 O   0  0  0  0  0  0  0  0  0  0  0  0
   59.1717   31.2772   45.9986 C   0  0  0  0  0  0  0  0  0  0  0  0
   59.1246   30.1205   45.2039 C   0  0  0  0  0  0  0  0  0  0  0  0
   58.1634   29.9862   44.1998 C   0  0  0  0  0  0  0  0  0  0  0  0
   57.2205   30.9936   43.9955 C   0  0  0  0  0  0  0  0  0  0  0  0
   57.2281   32.1290   44.8067 C   0  0  0  0  0  0  0  0  0  0  0  0
   58.1917   32.2794   45.8107 C   0  0  0  0  0  0  0  0  0  0  0  0
   58.1009   33.7130   46.8265 Cl  0  0  0  0  0  0  0  0  0  0  0  0
   57.2851   26.5269   45.8162 N   0  0  0  0  0  0  0  0  0  0  0  0
   56.2801   25.1627   46.1798 S   0  0  0  0  0  0  0  0  0  0  0  0
   56.4745   24.7829   47.6205 O   0  0  0  0  0  0  0  0  0  0  0  0
   54.8403   25.5483   45.9850 O   0  0  0  0  0  0  0  0  0  0  0  0
   56.6553   23.7776   45.1472 C   0  0  0  0  0  0  0  0  0  0  0  0
   57.9469   23.2387   45.1582 C   0  0  0  0  0  0  0  0  0  0  0  0
   58.2668   22.1669   44.3229 C   0  0  0  0  0  0  0  0  0  0  0  0
   57.2863   21.6415   43.4819 C   0  0  0  0  0  0  0  0  0  0  0  0
   56.0361   22.1751   43.4769 N   0  0  0  0  0  0  0  0  0  0  0  0
   55.6985   23.2214   44.2779 C   0  0  0  0  0  0  0  0  0  0  0  0
   54.5304   23.6887   44.2207 O   0  0  0  0  0  0  0  0  0  0  0  0
  7  8  2  0
  8  9  1  0
  9 10  1  0
 10 11  2  0
 10 12  2  0
 10 13  1  0
 13 14  2  0
 14 15  1  0
 15 16  2  0
 16 17  1  0
 17 18  2  0
 18 19  1  0
  8  1  1  0
  1  2  2  0
  2  3  1  0
  3  4  2  0
  4  5  1  0
  5 20  1  0
 20 21  1  0
 21 22  2  0
 21 23  2  0
 21 24  1  0
 24 25  2  0
 25 26  1  0
 26 27  2  0
 27 28  1  0
 28 29  1  0
 29 30  2  0
  5  6  2  0
 18 13  1  0
  6  1  1  0
 29 24  1  0
M  CHG 1   9  -1
M  CHG 1  20  -1
M  CHG 1  28  -1
M  END
> <UniqueID>
46

> <SMILES>
O=C([N-]S(=O)(=O)c1ccccc1Cl)c1cccc([N-]S(=O)(=O)c2ccc[n-]c2=O)c1

> <Energy>
61.23743613025817

> <Genealogy>
O=C([N-]S(=O)(=O)c1ccccc1Cl)c1cccc([N-]S(=O)(=O)c2ccc[n-]c2=O)c1 (protonated)
O=C([N-]S(=O)(=O)c1ccccc1Cl)c1cccc([N-]S(=O)(=O)c2ccc[n-]c2=O)c1 (3D coordinates assigned)
O=C([N-]S(=O)(=O)c1ccccc1Cl)c1cccc([N-]S(=O)(=O)c2ccc[n-]c2=O)c1 (optimized conformer: 61.23743613025817 kcal/mol)

> <smiles>
O=C(NS(=O)(=O)c1ccccc1Cl)c1cccc(NS(=O)(=O)c2ccc[nH]c2=O)c1

> <score_type>
oracle

> <origin>
adg

> <m_score__min__energy>
-14.56

> <m_primary>
energy

> <minimizedAffinity>
-7.79341

> <minimizedRMSD>
0.55502

> <CNNscore>
0.5480338931

> <CNNaffinity>
6.6632461548

> <CNN_VS>
3.6516847610

> <CNNaffinity_variance>
0.0149108013

$$$$
54:0


 27 29  0  0  0  0  0  0  0  0999 V2000
   59.4305   31.7268   47.2387 C   0  0  0  0  0  0  0  0  0  0  0  0
   59.0015   32.5186   46.1561 C   0  0  0  0  0  0  0  0  0  0  0  0
   59.3648   33.8725   46.1279 C   0  0  0  0  0  0  0  0  0  0  0  0
   60.0816   34.4144   47.1464 N   0  0  0  0  0  0  0  0  0  0  0  0
   60.4676   33.6941   48.2315 C   0  0  0  0  0  0  0  0  0  0  0  0
   61.1607   34.2958   49.1577 N   0  0  0  0  0  0  0  0  0  0  0  0
   60.1453   32.3237   48.2906 C   0  0  0  0  0  0  0  0  0  0  0  0
   58.2102   31.9485   45.0382 C   0  0  0  0  0  0  0  0  0  0  0  0
   58.4167   32.3988   43.7238 C   0  0  0  0  0  0  0  0  0  0  0  0
   57.6683   31.8682   42.6695 C   0  0  0  0  0  0  0  0  0  0  0  0
   56.7028   30.8891   42.9191 C   0  0  0  0  0  0  0  0  0  0  0  0
   56.4824   30.4412   44.2246 C   0  0  0  0  0  0  0  0  0  0  0  0
   55.5169   29.4734   44.4725 O   0  0  0  0  0  0  0  0  0  0  0  0
   57.2305   30.9705   45.2817 C   0  0  0  0  0  0  0  0  0  0  0  0
   62.4725   33.9615   49.6364 C   0  0  0  0  0  0  0  0  0  0  0  0
   62.7038   34.0142   50.8725 O   0  0  0  0  0  0  0  0  0  0  0  0
   63.5382   33.4433   48.7196 C   0  0  0  0  0  0  0  0  0  0  0  0
   59.1185   30.3228   47.2693 N   0  0  0  0  0  0  0  0  0  0  0  0
   59.6793   29.3085   46.4265 C   0  0  0  0  0  0  0  0  0  0  0  0
   60.9065   29.3558   46.1519 O   0  0  0  0  0  0  0  0  0  0  0  0
   58.0957   26.6938   44.6227 C   0  0  0  0  0  0  0  0  0  0  0  0
   58.9605   27.7232   44.6587 N   0  0  0  0  0  0  0  0  0  0  0  0
   58.8767   28.1765   45.9293 C   0  0  0  0  0  0  0  0  0  0  0  0
   58.0152   27.4801   46.7020 N   0  0  0  0  0  0  0  0  0  0  0  0
   57.5261   26.5538   45.8630 C   0  0  0  0  0  0  0  0  0  0  0  0
   56.5491   25.5684   46.2357 C   0  0  0  0  0  0  0  0  0  0  0  0
   55.7615   24.7748   46.5340 N   0  0  0  0  0  0  0  0  0  0  0  0
 21 22  1  0
 22 23  1  0
 23 19  1  0
 19 20  2  0
 19 18  1  0
 18  1  1  0
  1  2  1  0
  2  8  1  0
  8  9  2  0
  9 10  1  0
 10 11  2  0
 11 12  1  0
 12 13  1  0
 12 14  2  0
  2  3  2  0
  3  4  1  0
  4  5  1  0
  5  6  2  0
  6 15  1  0
 15 16  2  0
 15 17  1  0
  5  7  1  0
 23 24  2  0
 24 25  1  0
 25 26  1  0
 26 27  3  0
 25 21  2  0
  7  1  2  0
 14  8  1  0
M  CHG 1   4  -1
M  CHG 1  13  -1
M  CHG 1  18  -1
M  CHG 1  22  -1
M  END
> <UniqueID>
55

> <SMILES>
CC(=O)/N=c1\cc([N-]C(=O)c2nc(C#N)c[n-]2)c(-c2cccc([O-])c2)c[n-]1

> <Energy>
85.85699495337042

> <Genealogy>
CC(=O)N=c1cc([N-]C(=O)c2nc(C#N)c[n-]2)c(-c2cccc([O-])c2)c[n-]1 (protonated)
CC(=O)/N=c1\cc([N-]C(=O)c2nc(C#N)c[n-]2)c(-c2cccc([O-])c2)c[n-]1 (cis-trans isomerization)
CC(=O)/N=c1\cc([N-]C(=O)c2nc(C#N)c[n-]2)c(-c2cccc([O-])c2)c[n-]1 (3D coordinates assigned)
CC(=O)/N=c1\cc([N-]C(=O)c2nc(C#N)c[n-]2)c(-c2cccc([O-])c2)c[n-]1 (optimized conformer: 85.85699495337042 kcal/mol)

> <smiles>
CC(=O)N=c1cc(NC(=O)c2nc(C#N)c[nH]2)c(-c2cccc(O)c2)c[nH]1

> <score_type>
oracle

> <origin>
adg

> <m_score__min__energy>
-14.44

> <m_primary>
energy

> <minimizedAffinity>
-6.95860

> <minimizedRMSD>
0.89899

> <CNNscore>
0.4179861248

> <CNNaffinity>
6.5681023598

> <CNN_VS>
2.7453756332

> <CNNaffinity_variance>
0.0928708911

$$$$
66:0


 29 31  0  0  0  0  0  0  0  0999 V2000
   57.9210   26.5555   46.6694 C   0  0  0  0  0  0  0  0  0  0  0  0
   56.7152   26.8789   46.0280 C   0  0  0  0  0  0  0  0  0  0  0  0
   55.6188   26.0265   46.0856 O   0  0  0  0  0  0  0  0  0  0  0  0
   56.6189   28.0241   45.3134 N   0  0  0  0  0  0  0  0  0  0  0  0
   57.6674   28.8719   45.1795 C   0  0  0  0  0  0  0  0  0  0  0  0
   57.5116   29.9249   44.5033 O   0  0  0  0  0  0  0  0  0  0  0  0
   58.8743   28.5838   45.7674 N   0  0  0  0  0  0  0  0  0  0  0  0
   59.0108   27.4295   46.5014 C   0  0  0  0  0  0  0  0  0  0  0  0
   60.1161   27.1503   47.0448 O   0  0  0  0  0  0  0  0  0  0  0  0
   57.1407   24.3597   47.5086 C   0  0  0  0  0  0  0  0  0  0  0  0
   58.0866   25.3097   47.4580 C   0  0  0  0  0  0  0  0  0  0  0  0
   56.5535   20.4610   43.3975 O   0  0  0  0  0  0  0  0  0  0  0  0
   56.6689   21.4020   44.4186 C   0  0  0  0  0  0  0  0  0  0  0  0
   57.6860   22.3579   44.3531 C   0  0  0  0  0  0  0  0  0  0  0  0
   57.8244   23.3130   45.3642 C   0  0  0  0  0  0  0  0  0  0  0  0
   56.9541   23.3198   46.4665 C   0  0  0  0  0  0  0  0  0  0  0  0
   55.9200   22.3628   46.5210 C   0  0  0  0  0  0  0  0  0  0  0  0
   55.7804   21.4086   45.5070 C   0  0  0  0  0  0  0  0  0  0  0  0
   54.7553   20.4738   45.5834 O   0  0  0  0  0  0  0  0  0  0  0  0
   57.1555   20.4725   42.6796 H   0  0  0  0  0  0  0  0  0  0  0  0
   60.0304   29.4849   45.5808 C   0  0  0  0  0  0  0  0  0  0  0  0
   60.0494   30.5462   46.6502 C   0  0  0  0  0  0  0  0  0  0  0  0
   60.8391   30.3846   47.7997 C   0  0  0  0  0  0  0  0  0  0  0  0
   60.8802   31.3841   48.7750 C   0  0  0  0  0  0  0  0  0  0  0  0
   60.1376   32.5603   48.6200 C   0  0  0  0  0  0  0  0  0  0  0  0
   59.3470   32.7267   47.4670 C   0  0  0  0  0  0  0  0  0  0  0  0
   59.3071   31.7262   46.4909 C   0  0  0  0  0  0  0  0  0  0  0  0
   60.2117   33.5336   49.6274 O   0  0  0  0  0  0  0  0  0  0  0  0
   60.4909   33.2559   50.9951 C   0  0  0  0  0  0  0  0  0  0  0  0
 12 13  1  0
 13 14  2  0
 14 15  1  0
 15 16  2  0
 16 10  1  0
 10 11  2  0
 11  1  1  0
  1  2  2  0
  2  3  1  0
  2  4  1  0
  4  5  1  0
  5  6  2  0
  5  7  1  0
  7 21  1  0
 21 22  1  0
 22 23  2  0
 23 24  1  0
 24 25  2  0
 25 28  1  0
 28 29  1  0
 25 26  1  0
 26 27  2  0
  7  8  1  0
  8  9  2  0
 16 17  1  0
 17 18  2  0
 18 19  1  0
 18 13  1  0
  8  1  1  0
 27 22  1  0
 12 20  1  0
M  CHG 1   3  -1
M  CHG 1   4  -1
M  CHG 1  19  -1
M  END
> <UniqueID>
66

> <SMILES>
COc1ccc(Cn2c(=O)[n-]c([O-])c(/C=C/c3ccc(O)c([O-])c3)c2=O)cc1

> <Energy>
57.682618927314124

> <Genealogy>
COc1ccc(Cn2c(=O)[n-]c([O-])c(C=Cc3ccc(O)c([O-])c3)c2=O)cc1 (protonated)
COc1ccc(Cn2c(=O)[n-]c([O-])c(/C=C/c3ccc(O)c([O-])c3)c2=O)cc1 (cis-trans isomerization)
COc1ccc(Cn2c(=O)[n-]c([O-])c(/C=C/c3ccc(O)c([O-])c3)c2=O)cc1 (3D coordinates assigned)
COc1ccc(Cn2c(=O)[n-]c([O-])c(/C=C/c3ccc(O)c([O-])c3)c2=O)cc1 (optimized conformer: 57.682618927314124 kcal/mol)

> <smiles>
COc1ccc(Cn2c(=O)[nH]c(O)c(C=Cc3ccc(O)c(O)c3)c2=O)cc1

> <score_type>
oracle

> <origin>
adg

> <m_score__min__energy>
-15.49

> <m_primary>
energy

> <minimizedAffinity>
-7.50295

> <minimizedRMSD>
1.57113

> <CNNscore>
0.2381579578

> <CNNaffinity>
6.5077528954

> <CNN_VS>
1.5498731136

> <CNNaffinity_variance>
0.4485404491

$$$$
68:0


 22 23  0  0  0  0  0  0  0  0999 V2000
   56.8555   29.4788   44.4180 S   0  0  0  0  0  0  0  0  0  0  0  0
   57.6468   28.8161   43.3271 O   0  0  0  0  0  0  0  0  0  0  0  0
   55.5319   29.9271   43.8629 O   0  0  0  0  0  0  0  0  0  0  0  0
   59.2215   33.0431   46.0365 C   0  0  0  0  0  0  0  0  0  0  0  0
   58.4065   33.1897   44.8981 C   0  0  0  0  0  0  0  0  0  0  0  0
   57.6868   32.0981   44.4010 C   0  0  0  0  0  0  0  0  0  0  0  0
   57.7692   30.8515   45.0340 C   0  0  0  0  0  0  0  0  0  0  0  0
   58.5841   30.7021   46.1634 C   0  0  0  0  0  0  0  0  0  0  0  0
   59.3029   31.7916   46.6605 C   0  0  0  0  0  0  0  0  0  0  0  0
   59.6954   35.4813   46.3179 C   0  0  0  0  0  0  0  0  0  0  0  0
   59.9614   34.1061   46.5761 O   0  0  0  0  0  0  0  0  0  0  0  0
   56.5747   28.3317   45.6897 N   0  0  0  0  0  0  0  0  0  0  0  0
   57.3738   27.1682   45.9478 C   0  0  0  0  0  0  0  0  0  0  0  0
   58.7771   27.2342   46.0397 C   0  0  0  0  0  0  0  0  0  0  0  0
   59.5252   26.0776   46.2843 C   0  0  0  0  0  0  0  0  0  0  0  0
   60.9137   26.1627   46.3697 O   0  0  0  0  0  0  0  0  0  0  0  0
   58.8754   24.8474   46.4422 C   0  0  0  0  0  0  0  0  0  0  0  0
   57.4825   24.7733   46.3562 C   0  0  0  0  0  0  0  0  0  0  0  0
   56.8452   23.5482   46.5163 O   0  0  0  0  0  0  0  0  0  0  0  0
   56.7333   25.9299   46.1107 C   0  0  0  0  0  0  0  0  0  0  0  0
   55.3464   25.8482   46.0248 O   0  0  0  0  0  0  0  0  0  0  0  0
   61.3398   26.9903   46.2626 H   0  0  0  0  0  0  0  0  0  0  0  0
 10 11  1  0
 11  4  1  0
  4  5  2  0
  5  6  1  0
  6  7  2  0
  7  1  1  0
  1  2  2  0
  1  3  2  0
  1 12  1  0
 12 13  1  0
 13 14  2  0
 14 15  1  0
 15 16  1  0
 15 17  2  0
 17 18  1  0
 18 19  1  0
 18 20  2  0
 20 21  1  0
  7  8  1  0
  8  9  2  0
  9  4  1  0
 20 13  1  0
 16 22  1  0
M  CHG 1  12  -1
M  CHG 1  19  -1
M  CHG 1  21  -1
M  END
> <UniqueID>
68

> <SMILES>
COc1ccc(S(=O)(=O)[N-]c2cc(O)cc([O-])c2[O-])cc1

> <Energy>
34.30624346445192

> <Genealogy>
COc1ccc(S(=O)(=O)[N-]c2cc(O)cc([O-])c2[O-])cc1 (protonated)
COc1ccc(S(=O)(=O)[N-]c2cc(O)cc([O-])c2[O-])cc1 (3D coordinates assigned)
COc1ccc(S(=O)(=O)[N-]c2cc(O)cc([O-])c2[O-])cc1 (optimized conformer: 34.30624346445192 kcal/mol)

> <smiles>
COc1ccc(S(=O)(=O)Nc2cc(O)cc(O)c2O)cc1

> <score_type>
oracle

> <origin>
adg

> <m_score__min__energy>
-14.300000000000001

> <m_primary>
energy

> <minimizedAffinity>
-5.10242

> <minimizedRMSD>
0.80295

> <CNNscore>
0.6369540095

> <CNNaffinity>
6.0855274200

> <CNN_VS>
3.8762011528

> <CNNaffinity_variance>
0.1442865729

$$$$
95:0


 27 29  0  0  0  0  0  0  0  0999 V2000
   57.7564   30.1075   45.0936 C   0  0  0  0  0  0  0  0  0  0  0  0
   56.6135   29.2985   44.9268 C   0  0  0  0  0  0  0  0  0  0  0  0
   55.4779   29.7821   44.2878 O   0  0  0  0  0  0  0  0  0  0  0  0
   56.5970   28.0304   45.4109 N   0  0  0  0  0  0  0  0  0  0  0  0
   57.6531   27.4889   46.0658 C   0  0  0  0  0  0  0  0  0  0  0  0
   57.5772   26.2985   46.4738 O   0  0  0  0  0  0  0  0  0  0  0  0
   58.8183   28.2466   46.2728 C   0  0  0  0  0  0  0  0  0  0  0  0
   58.8676   29.5698   45.7821 C   0  0  0  0  0  0  0  0  0  0  0  0
   60.0058   30.3624   45.9687 O   0  0  0  0  0  0  0  0  0  0  0  0
   60.7483   30.0163   46.4236 H   0  0  0  0  0  0  0  0  0  0  0  0
   57.9541   31.7018   43.3347 O   0  0  0  0  0  0  0  0  0  0  0  0
   57.7813   31.4969   44.5662 C   0  0  0  0  0  0  0  0  0  0  0  0
   57.5518   32.6048   45.4494 N   0  0  0  0  0  0  0  0  0  0  0  0
   58.4874   33.1628   46.3834 C   0  0  0  0  0  0  0  0  0  0  0  0
   59.4643   34.0996   45.9942 C   0  0  0  0  0  0  0  0  0  0  0  0
   60.3727   34.5984   46.9330 C   0  0  0  0  0  0  0  0  0  0  0  0
   60.3231   34.1610   48.2584 C   0  0  0  0  0  0  0  0  0  0  0  0
   59.3718   33.2139   48.6458 C   0  0  0  0  0  0  0  0  0  0  0  0
   58.4627   32.7106   47.7095 C   0  0  0  0  0  0  0  0  0  0  0  0
   59.9810   27.6394   46.9612 C   0  0  0  0  0  0  0  0  0  0  0  0
   60.6880   26.8096   46.3278 O   0  0  0  0  0  0  0  0  0  0  0  0
   60.3172   27.9714   48.3700 C   0  0  0  0  0  0  0  0  0  0  0  0
   60.3306   29.3067   48.8195 C   0  0  0  0  0  0  0  0  0  0  0  0
   60.6575   29.6042   50.1462 C   0  0  0  0  0  0  0  0  0  0  0  0
   60.9769   28.5790   51.0373 C   0  0  0  0  0  0  0  0  0  0  0  0
   60.9749   27.2503   50.6028 C   0  0  0  0  0  0  0  0  0  0  0  0
   60.6495   26.9467   49.2771 C   0  0  0  0  0  0  0  0  0  0  0  0
 11 12  2  0
 12 13  1  0
 13 14  1  0
 14 15  2  0
 15 16  1  0
 16 17  2  0
 17 18  1  0
 18 19  2  0
 12  1  1  0
  1  2  2  0
  2  3  1  0
  2  4  1  0
  4  5  1  0
  5  6  2  0
  5  7  1  0
  7 20  1  0
 20 21  2  0
 20 22  1  0
 22 23  2  0
 23 24  1  0
 24 25  2  0
 25 26  1  0
 26 27  2  0
  7  8  2  0
  8  9  1  0
 19 14  1  0
  8  1  1  0
 27 22  1  0
  9 10  1  0
M  CHG 1   3  -1
M  CHG 1   4  -1
M  CHG 1  13  -1
M  END
> <UniqueID>
94

> <SMILES>
O=C([N-]c1ccccc1)c1c([O-])[n-]c(=O)c(C(=O)c2ccccc2)c1O

> <Energy>
59.367507883508026

> <Genealogy>
O=C([N-]c1ccccc1)c1c([O-])[n-]c(=O)c(C(=O)c2ccccc2)c1O (protonated)
O=C([N-]c1ccccc1)c1c([O-])[n-]c(=O)c(C(=O)c2ccccc2)c1O (3D coordinates assigned)
O=C([N-]c1ccccc1)c1c([O-])[n-]c(=O)c(C(=O)c2ccccc2)c1O (optimized conformer: 59.367507883508026 kcal/mol)

> <smiles>
O=C(Nc1ccccc1)c1c(O)[nH]c(=O)c(C(=O)c2ccccc2)c1O

> <score_type>
oracle

> <origin>
adg

> <m_score__min__energy>
-14.76

> <m_primary>
energy

> <minimizedAffinity>
-7.39860

> <minimizedRMSD>
0.94495

> <CNNscore>
0.8327227235

> <CNNaffinity>
6.3811106682

> <CNN_VS>
5.3136959076

> <CNNaffinity_variance>
0.1102685630

$$$$
8:0


 23 25  0  0  0  0  0  0  0  0999 V2000
   58.0876   29.1679   45.1700 C   0  0  0  0  0  0  0  0  0  0  0  0
   57.5314   30.1490   44.3342 C   0  0  0  0  0  0  0  0  0  0  0  0
   57.6866   31.5014   44.6330 C   0  0  0  0  0  0  0  0  0  0  0  0
   58.3825   31.8987   45.7762 C   0  0  0  0  0  0  0  0  0  0  0  0
   58.9330   30.9338   46.6542 C   0  0  0  0  0  0  0  0  0  0  0  0
   58.8024   29.5687   46.3128 C   0  0  0  0  0  0  0  0  0  0  0  0
   59.7847   31.3885   47.8517 C   0  0  0  0  0  0  0  0  0  0  0  0
   59.7009   30.3920   49.0336 C   0  0  0  0  0  0  0  0  0  0  0  0
   61.2540   31.4953   47.3959 C   0  0  0  0  0  0  0  0  0  0  0  0
   59.3006   32.7699   48.3813 C   0  0  0  0  0  0  0  0  0  0  0  0
   59.0844   33.7495   47.2700 C   0  0  0  0  0  0  0  0  0  0  0  0
   59.3061   34.9763   47.4475 O   0  0  0  0  0  0  0  0  0  0  0  0
   58.5464   33.2946   46.0343 N   0  0  0  0  0  0  0  0  0  0  0  0
   57.9395   27.7247   44.8443 C   0  0  0  0  0  0  0  0  0  0  0  0
   58.4535   27.2623   43.7915 O   0  0  0  0  0  0  0  0  0  0  0  0
   58.4164   23.5403   45.5240 C   0  0  0  0  0  0  0  0  0  0  0  0
   58.3232   24.8945   45.5487 N   0  0  0  0  0  0  0  0  0  0  0  0
   57.1326   25.5472   45.6637 C   0  0  0  0  0  0  0  0  0  0  0  0
   57.1526   26.8526   45.6662 N   0  0  0  0  0  0  0  0  0  0  0  0
   55.9458   24.7804   45.7938 C   0  0  0  0  0  0  0  0  0  0  0  0
   54.6982   25.3634   45.9890 O   0  0  0  0  0  0  0  0  0  0  0  0
   56.0285   23.3855   45.7569 C   0  0  0  0  0  0  0  0  0  0  0  0
   57.2667   22.7596   45.6200 C   0  0  0  0  0  0  0  0  0  0  0  0
 16 17  1  0
 17 18  1  0
 18 19  2  0
 19 14  1  0
 14 15  2  0
 14  1  1  0
  1  2  2  0
  2  3  1  0
  3  4  2  0
  4  5  1  0
  5  6  2  0
  5  7  1  0
  7  8  1  0
  7  9  1  0
  7 10  1  0
 10 11  1  0
 11 12  2  0
 11 13  1  0
 18 20  1  0
 20 21  1  0
 20 22  2  0
 22 23  1  0
 23 16  2  0
  6  1  1  0
 13  4  1  0
M  CHG 1  13  -1
M  CHG 1  17  -1
M  CHG 1  21  -1
M  END
> <UniqueID>
6

> <SMILES>
CC1(C)CC(=O)[N-]c2ccc(C(=O)/N=c3/[n-]cccc3[O-])cc21

> <Energy>
55.60392549334612

> <Genealogy>
CC1(C)CC(=O)[N-]c2ccc(C(=O)N=c3[n-]cccc3[O-])cc21 (protonated)
CC1(C)CC(=O)[N-]c2ccc(C(=O)/N=c3/[n-]cccc3[O-])cc21 (cis-trans isomerization)
CC1(C)CC(=O)[N-]c2ccc(C(=O)/N=c3/[n-]cccc3[O-])cc21 (3D coordinates assigned)
CC1(C)CC(=O)[N-]c2ccc(C(=O)/N=c3/[n-]cccc3[O-])cc21 (nonaromatic ring conformer: 55.60392549334612 kcal/mol)

> <smiles>
CC1(C)CC(=O)Nc2ccc(C(=O)N=c3[nH]cccc3O)cc21

> <score_type>
oracle

> <origin>
adg

> <m_score__min__energy>
-14.380000000000001

> <m_primary>
energy

> <minimizedAffinity>
-8.38214

> <minimizedRMSD>
2.34357

> <CNNscore>
0.2608888447

> <CNNaffinity>
6.3097877502

> <CNN_VS>
1.6461532116

> <CNNaffinity_variance>
0.2703321874

$$$$
14:0


 25 26  0  0  0  0  0  0  0  0999 V2000
   57.7935   30.9913   44.9420 C   0  0  0  0  0  0  0  0  0  0  0  0
   56.5338   30.9856   44.9139 O   0  0  0  0  0  0  0  0  0  0  0  0
   59.9916   33.1509   47.1532 C   0  0  0  0  0  0  0  0  0  0  0  0
   59.8738   34.3956   46.5226 C   0  0  0  0  0  0  0  0  0  0  0  0
   59.0827   34.5316   45.3808 C   0  0  0  0  0  0  0  0  0  0  0  0
   58.4024   33.4262   44.8622 C   0  0  0  0  0  0  0  0  0  0  0  0
   58.5029   32.1715   45.4883 C   0  0  0  0  0  0  0  0  0  0  0  0
   59.3161   32.0401   46.6280 C   0  0  0  0  0  0  0  0  0  0  0  0
   60.1769   32.0332   49.7675 N   0  0  0  0  0  0  0  0  0  0  0  0
   61.0068   32.9752   48.5820 S   0  0  0  0  0  0  0  0  0  0  0  0
   61.3232   34.3303   49.1513 O   0  0  0  0  0  0  0  0  0  0  0  0
   62.2959   32.2958   48.2129 O   0  0  0  0  0  0  0  0  0  0  0  0
   60.7656   31.9321   50.5943 H   0  0  0  0  0  0  0  0  0  0  0  0
   58.4937   29.8253   44.4867 N   0  0  0  0  0  0  0  0  0  0  0  0
   58.7907   28.6553   45.2659 C   0  0  0  0  0  0  0  0  0  0  0  0
   60.1111   28.3500   45.6297 C   0  0  0  0  0  0  0  0  0  0  0  0
   60.3912   27.2058   46.3718 C   0  0  0  0  0  0  0  0  0  0  0  0
   59.3628   26.3432   46.7467 C   0  0  0  0  0  0  0  0  0  0  0  0
   58.0312   26.6082   46.3763 C   0  0  0  0  0  0  0  0  0  0  0  0
   57.7474   27.7751   45.6237 C   0  0  0  0  0  0  0  0  0  0  0  0
   56.4332   28.0551   45.2415 O   0  0  0  0  0  0  0  0  0  0  0  0
   55.7413   27.4699   45.4797 H   0  0  0  0  0  0  0  0  0  0  0  0
   56.9603   25.6613   46.7848 C   0  0  0  0  0  0  0  0  0  0  0  0
   57.1988   24.7576   47.6289 O   0  0  0  0  0  0  0  0  0  0  0  0
   55.6802   25.7492   46.2512 O   0  0  0  0  0  0  0  0  0  0  0  0
  9 10  1  0
 10 11  2  0
 10 12  2  0
 10  3  1  0
  3  4  2  0
  4  5  1  0
  5  6  2  0
  6  7  1  0
  7  1  1  0
  1  2  2  0
  1 14  1  0
 14 15  1  0
 15 16  2  0
 16 17  1  0
 17 18  2  0
 18 19  1  0
 19 23  1  0
 23 24  2  0
 23 25  1  0
 19 20  2  0
 20 21  1  0
  7  8  2  0
  8  3  1  0
 20 15  1  0
  9 13  1  0
 21 22  1  0
M  CHG 1   9  -1
M  CHG 1  14  -1
M  CHG 1  25  -1
M  END
> <UniqueID>
12

> <SMILES>
[NH-]S(=O)(=O)c1cccc(C(=O)[N-]c2cccc(C(=O)[O-])c2O)c1

> <Energy>
42.515357429048194

> <Genealogy>
[NH-]S(=O)(=O)c1cccc(C(=O)[N-]c2cccc(C(=O)[O-])c2O)c1 (protonated)
[NH-]S(=O)(=O)c1cccc(C(=O)[N-]c2cccc(C(=O)[O-])c2O)c1 (3D coordinates assigned)
[NH-]S(=O)(=O)c1cccc(C(=O)[N-]c2cccc(C(=O)[O-])c2O)c1 (optimized conformer: 42.515357429048194 kcal/mol)

> <smiles>
NS(=O)(=O)c1cccc(C(=O)Nc2cccc(C(=O)O)c2O)c1

> <score_type>
oracle

> <origin>
adg

> <m_score__min__energy>
-14.35

> <m_primary>
energy

> <minimizedAffinity>
-8.75051

> <minimizedRMSD>
1.26718

> <CNNscore>
0.9457079172

> <CNNaffinity>
6.8185830116

> <CNN_VS>
6.4483880997

> <CNNaffinity_variance>
0.4681696594

$$$$
51:0


 36 39  0  0  0  0  0  0  0  0999 V2000
   59.0040   26.5555   46.1343 C   0  0  0  0  0  0  0  0  0  0  0  0
   60.0333   25.8716   46.3845 O   0  0  0  0  0  0  0  0  0  0  0  0
   59.0726   27.6330   45.1016 C   0  0  0  0  0  0  0  0  0  0  0  0
   57.5114   28.5607   44.9184 S   0  0  0  0  0  0  0  0  0  0  0  0
   58.0290   33.7148   45.0017 C   0  0  0  0  0  0  0  0  0  0  0  0
   58.2867   32.4212   45.7141 C   0  0  0  0  0  0  0  0  0  0  0  0
   57.8501   31.2701   45.1428 N   0  0  0  0  0  0  0  0  0  0  0  0
   58.0402   30.0615   45.7225 C   0  0  0  0  0  0  0  0  0  0  0  0
   58.6566   29.9834   46.9223 N   0  0  0  0  0  0  0  0  0  0  0  0
   59.0830   31.0991   47.5683 C   0  0  0  0  0  0  0  0  0  0  0  0
   59.6045   30.9827   48.7097 O   0  0  0  0  0  0  0  0  0  0  0  0
   58.9128   32.3716   46.9812 C   0  0  0  0  0  0  0  0  0  0  0  0
   59.3696   33.6284   47.7165 C   0  0  0  0  0  0  0  0  0  0  0  0
   60.8647   33.6441   47.9468 C   0  0  0  0  0  0  0  0  0  0  0  0
   61.3864   33.8784   49.2322 C   0  0  0  0  0  0  0  0  0  0  0  0
   62.7702   33.8603   49.4475 C   0  0  0  0  0  0  0  0  0  0  0  0
   63.6475   33.5948   48.3887 C   0  0  0  0  0  0  0  0  0  0  0  0
   63.1426   33.3519   47.1119 C   0  0  0  0  0  0  0  0  0  0  0  0
   61.7561   33.3789   46.8885 C   0  0  0  0  0  0  0  0  0  0  0  0
   57.7519   26.2417   46.7552 N   0  0  0  0  0  0  0  0  0  0  0  0
   56.8977   25.1885   46.2887 C   0  0  0  0  0  0  0  0  0  0  0  0
   57.4306   23.9045   46.1495 C   0  0  0  0  0  0  0  0  0  0  0  0
   56.5987   22.8158   45.8437 C   0  0  0  0  0  0  0  0  0  0  0  0
   55.2297   23.0304   45.6276 C   0  0  0  0  0  0  0  0  0  0  0  0
   54.7004   24.3194   45.7117 C   0  0  0  0  0  0  0  0  0  0  0  0
   55.5290   25.4003   46.0395 C   0  0  0  0  0  0  0  0  0  0  0  0
   54.9882   26.6791   46.1038 O   0  0  0  0  0  0  0  0  0  0  0  0
   57.2710   21.1889   45.7757 S   0  0  0  0  0  0  0  0  0  0  0  0
   56.8421   20.5282   44.4949 O   0  0  0  0  0  0  0  0  0  0  0  0
   58.7720   21.2679   45.7776 O   0  0  0  0  0  0  0  0  0  0  0  0
   56.7566   20.2139   47.1304 N   0  0  0  0  0  0  0  0  0  0  0  0
   57.7163   19.1263   47.3903 C   0  0  0  0  0  0  0  0  0  0  0  0
   57.3720   18.3924   48.6993 C   0  0  0  0  0  0  0  0  0  0  0  0
   56.0870   18.7597   49.1696 O   0  0  0  0  0  0  0  0  0  0  0  0
   56.0720   20.1402   49.4993 C   0  0  0  0  0  0  0  0  0  0  0  0
   56.5755   21.0327   48.3376 C   0  0  0  0  0  0  0  0  0  0  0  0
  5  6  1  0
  6  7  1  0
  7  8  1  0
  8  4  1  0
  4  3  1  0
  3  1  1  0
  1  2  2  0
  1 20  1  0
 20 21  1  0
 21 22  2  0
 22 23  1  0
 23 28  1  0
 28 29  2  0
 28 30  2  0
 28 31  1  0
 31 32  1  0
 32 33  1  0
 33 34  1  0
 34 35  1  0
 35 36  1  0
 23 24  2  0
 24 25  1  0
 25 26  2  0
 26 27  1  0
  8  9  2  0
  9 10  1  0
 10 11  2  0
 10 12  1  0
 12 13  1  0
 13 14  1  0
 14 15  2  0
 15 16  1  0
 16 17  2  0
 17 18  1  0
 18 19  2  0
 12  6  2  0
 19 14  1  0
 26 21  1  0
 36 31  1  0
M  CHG 1   7  -1
M  CHG 1  20  -1
M  CHG 1  27  -1
M  END
> <UniqueID>
44

> <SMILES>
Cc1[n-]c(SCC(=O)[N-]c2cc(S(=O)(=O)N3CCOCC3)ccc2[O-])nc(=O)c1Cc1ccccc1

> <Energy>
76.75051979675517

> <Genealogy>
Cc1[n-]c(SCC(=O)[N-]c2cc(S(=O)(=O)N3CCOCC3)ccc2[O-])nc(=O)c1Cc1ccccc1 (protonated)
Cc1[n-]c(SCC(=O)[N-]c2cc(S(=O)(=O)N3CCOCC3)ccc2[O-])nc(=O)c1Cc1ccccc1 (3D coordinates assigned)
Cc1[n-]c(SCC(=O)[N-]c2cc(S(=O)(=O)N3CCOCC3)ccc2[O-])nc(=O)c1Cc1ccccc1 (nonaromatic ring conformer: 76.75051979675517 kcal/mol)

> <smiles>
Cc1[nH]c(SCC(=O)Nc2cc(S(=O)(=O)N3CCOCC3)ccc2O)nc(=O)c1Cc1ccccc1

> <score_type>
oracle

> <origin>
adg

> <m_score__min__energy>
-18.129999999999999

> <m_primary>
energy

> <minimizedAffinity>
-7.28500

> <minimizedRMSD>
0.55658

> <CNNscore>
0.4771293402

> <CNNaffinity>
6.9157047272

> <CNN_VS>
3.2996857166

> <CNNaffinity_variance>
0.0012894472

$$$$
61:0


 28 30  0  0  0  0  0  0  0  0999 V2000
   56.3129   30.5700   44.4881 O   0  0  0  0  0  0  0  0  0  0  0  0
   56.8295   29.5177   44.9520 C   0  0  0  0  0  0  0  0  0  0  0  0
   56.0158   28.4891   45.3004 N   0  0  0  0  0  0  0  0  0  0  0  0
   56.5075   27.3366   45.8096 C   0  0  0  0  0  0  0  0  0  0  0  0
   55.6308   26.2992   46.1082 O   0  0  0  0  0  0  0  0  0  0  0  0
   57.8873   27.1947   46.0105 C   0  0  0  0  0  0  0  0  0  0  0  0
   58.7233   28.2549   45.6222 C   0  0  0  0  0  0  0  0  0  0  0  0
   59.9734   28.1416   45.7743 O   0  0  0  0  0  0  0  0  0  0  0  0
   58.1900   29.4064   45.0945 N   0  0  0  0  0  0  0  0  0  0  0  0
   58.4676   25.9447   46.5578 C   0  0  0  0  0  0  0  0  0  0  0  0
   59.0309   24.9737   45.8227 C   0  0  0  0  0  0  0  0  0  0  0  0
   58.3003   23.8540   45.1813 C   0  0  0  0  0  0  0  0  0  0  0  0
   56.9561   23.9914   44.7947 C   0  0  0  0  0  0  0  0  0  0  0  0
   56.2723   22.9223   44.2124 C   0  0  0  0  0  0  0  0  0  0  0  0
   56.9164   21.6923   44.0278 C   0  0  0  0  0  0  0  0  0  0  0  0
   56.2445   20.6189   43.4473 O   0  0  0  0  0  0  0  0  0  0  0  0
   58.2452   21.5391   44.4345 C   0  0  0  0  0  0  0  0  0  0  0  0
   58.9358   22.6083   45.0152 C   0  0  0  0  0  0  0  0  0  0  0  0
   60.2569   22.4293   45.4120 O   0  0  0  0  0  0  0  0  0  0  0  0
   55.3539   20.7167   43.1731 H   0  0  0  0  0  0  0  0  0  0  0  0
   59.0645   30.5318   44.7026 C   0  0  0  0  0  0  0  0  0  0  0  0
   58.3347   31.8773   44.8113 C   0  0  0  0  0  0  0  0  0  0  0  0
   58.8886   32.7281   45.9253 C   0  0  0  0  0  0  0  0  0  0  0  0
   59.2101   34.0779   45.6971 C   0  0  0  0  0  0  0  0  0  0  0  0
   59.7118   34.8669   46.7382 C   0  0  0  0  0  0  0  0  0  0  0  0
   59.8801   34.3196   48.0128 C   0  0  0  0  0  0  0  0  0  0  0  0
   59.5523   32.9825   48.2498 C   0  0  0  0  0  0  0  0  0  0  0  0
   59.0593   32.1873   47.2099 C   0  0  0  0  0  0  0  0  0  0  0  0
  1  2  2  0
  2  3  1  0
  3  4  1  0
  4  5  1  0
  4  6  2  0
  6 10  1  0
 10 11  2  0
 11 12  1  0
 12 13  2  0
 13 14  1  0
 14 15  2  0
 15 16  1  0
 15 17  1  0
 17 18  2  0
 18 19  1  0
  6  7  1  0
  7  8  2  0
  7  9  1  0
  9 21  1  0
 21 22  1  0
 22 23  1  0
 23 24  2  0
 24 25  1  0
 25 26  2  0
 26 27  1  0
 27 28  2  0
  9  2  1  0
 28 23  1  0
 18 12  1  0
 16 20  1  0
M  CHG 1   3  -1
M  CHG 1   5  -1
M  CHG 1  19  -1
M  END
> <UniqueID>
54

> <SMILES>
O=c1[n-]c([O-])c(C=Cc2ccc(O)cc2[O-])c(=O)n1CCc1ccccc1

> <Energy>
56.1118707507465

> <Genealogy>
O=c1[n-]c([O-])c(C=Cc2ccc(O)cc2[O-])c(=O)n1CCc1ccccc1 (protonated)
O=c1[n-]c([O-])c(C=Cc2ccc(O)cc2[O-])c(=O)n1CCc1ccccc1 (3D coordinates assigned)
O=c1[n-]c([O-])c(C=Cc2ccc(O)cc2[O-])c(=O)n1CCc1ccccc1 (optimized conformer: 56.1118707507465 kcal/mol)

> <smiles>
O=c1[nH]c(O)c(C=Cc2ccc(O)cc2O)c(=O)n1CCc1ccccc1

> <score_type>
oracle

> <origin>
adg

> <m_score__min__energy>
-17.100000000000001

> <m_primary>
energy

> <minimizedAffinity>
-7.27220

> <minimizedRMSD>
0.64869

> <CNNscore>
0.2470181584

> <CNNaffinity>
6.2148532867

> <CNN_VS>
1.5351816416

> <CNNaffinity_variance>
0.1637965292

$$$$
69:0


 24 26  0  0  0  0  0  0  0  0999 V2000
   56.8235   29.2677   44.2467 C   0  0  0  0  0  0  0  0  0  0  0  0
   55.7759   29.2123   44.9413 O   0  0  0  0  0  0  0  0  0  0  0  0
   57.6006   28.0756   44.0655 N   0  0  0  0  0  0  0  0  0  0  0  0
   58.1532   26.4234   45.8312 C   0  0  0  0  0  0  0  0  0  0  0  0
   59.0909   25.9247   46.7547 C   0  0  0  0  0  0  0  0  0  0  0  0
   60.3345   26.5401   46.9106 C   0  0  0  0  0  0  0  0  0  0  0  0
   60.6635   27.6577   46.1478 C   0  0  0  0  0  0  0  0  0  0  0  0
   59.7529   28.1632   45.2226 C   0  0  0  0  0  0  0  0  0  0  0  0
   58.5023   27.5522   45.0482 C   0  0  0  0  0  0  0  0  0  0  0  0
   55.6374   26.3504   46.0618 N   0  0  0  0  0  0  0  0  0  0  0  0
   56.8554   25.7195   45.6648 C   0  0  0  0  0  0  0  0  0  0  0  0
   56.8083   24.5615   45.1685 O   0  0  0  0  0  0  0  0  0  0  0  0
   54.7799   25.8799   45.9495 H   0  0  0  0  0  0  0  0  0  0  0  0
   57.2030   30.5685   43.5868 C   0  0  0  0  0  0  0  0  0  0  0  0
   57.9366   31.4189   44.5208 N   0  0  0  0  0  0  0  0  0  0  0  0
   58.3651   30.9931   46.0779 S   0  0  0  0  0  0  0  0  0  0  0  0
   58.9998   32.4582   46.5590 C   0  0  0  0  0  0  0  0  0  0  0  0
   59.5218   32.8492   47.7867 C   0  0  0  0  0  0  0  0  0  0  0  0
   59.9476   34.1788   47.9245 C   0  0  0  0  0  0  0  0  0  0  0  0
   59.8409   35.0763   46.8438 C   0  0  0  0  0  0  0  0  0  0  0  0
   59.3080   34.6534   45.6109 C   0  0  0  0  0  0  0  0  0  0  0  0
   58.8868   33.3257   45.4812 C   0  0  0  0  0  0  0  0  0  0  0  0
   58.2995   32.7216   44.3503 C   0  0  0  0  0  0  0  0  0  0  0  0
   58.1082   33.3409   43.2683 O   0  0  0  0  0  0  0  0  0  0  0  0
 10 11  1  0
 11 12  2  0
 11  4  1  0
  4  5  2  0
  5  6  1  0
  6  7  2  0
  7  8  1  0
  8  9  2  0
  9  3  1  0
  3  1  1  0
  1  2  2  0
  1 14  1  0
 14 15  1  0
 15 16  1  0
 16 17  1  0
 17 18  2  0
 18 19  1  0
 19 20  2  0
 20 21  1  0
 21 22  2  0
 22 23  1  0
 23 24  2  0
  9  4  1  0
 23 15  1  0
 22 17  1  0
 10 13  1  0
M  CHG 1   3  -1
M  CHG 1  10  -1
M  END
> <UniqueID>
62

> <SMILES>
[NH-]C(=O)c1ccccc1[N-]C(=O)Cn1sc2ccccc2c1=O

> <Energy>
80.52389227052363

> <Genealogy>
[NH-]C(=O)c1ccccc1[N-]C(=O)Cn1sc2ccccc2c1=O (protonated)
[NH-]C(=O)c1ccccc1[N-]C(=O)Cn1sc2ccccc2c1=O (3D coordinates assigned)
[NH-]C(=O)c1ccccc1[N-]C(=O)Cn1sc2ccccc2c1=O (optimized conformer: 80.52389227052363 kcal/mol)

> <smiles>
NC(=O)c1ccccc1NC(=O)Cn1sc2ccccc2c1=O

> <score_type>
oracle

> <origin>
adg

> <m_score__min__energy>
-14.27

> <m_primary>
energy

> <minimizedAffinity>
-6.87454

> <minimizedRMSD>
0.86983

> <CNNscore>
0.7699866295

> <CNNaffinity>
6.6524558067

> <CNN_VS>
5.1223020554

> <CNNaffinity_variance>
0.0734046549

$$$$
84:0


 24 25  0  0  0  0  0  0  0  0999 V2000
   58.0542   33.8814   46.6455 C   0  0  0  0  0  0  0  0  0  0  0  0
   59.3680   34.4097   47.1577 C   0  0  0  0  0  0  0  0  0  0  0  0
   59.9349   35.3328   46.5179 O   0  0  0  0  0  0  0  0  0  0  0  0
   59.9495   33.9794   48.3996 N   0  0  0  0  0  0  0  0  0  0  0  0
   60.7340   28.5624   50.1694 C   0  0  0  0  0  0  0  0  0  0  0  0
   60.5390   29.9826   49.7283 C   0  0  0  0  0  0  0  0  0  0  0  0
   59.3145   30.6268   49.9501 C   0  0  0  0  0  0  0  0  0  0  0  0
   59.1156   31.9339   49.5059 C   0  0  0  0  0  0  0  0  0  0  0  0
   60.1457   32.6319   48.8524 C   0  0  0  0  0  0  0  0  0  0  0  0
   61.3553   31.9616   48.5611 C   0  0  0  0  0  0  0  0  0  0  0  0
   62.4191   32.5994   47.7105 C   0  0  0  0  0  0  0  0  0  0  0  0
   61.5416   30.6421   49.0045 C   0  0  0  0  0  0  0  0  0  0  0  0
   58.1422   33.5316   44.8573 S   0  0  0  0  0  0  0  0  0  0  0  0
   58.0613   31.7544   45.0507 C   0  0  0  0  0  0  0  0  0  0  0  0
   59.1126   31.0840   45.5812 N   0  0  0  0  0  0  0  0  0  0  0  0
   59.0775   29.7364   45.7452 C   0  0  0  0  0  0  0  0  0  0  0  0
   60.0768   29.1576   46.2471 O   0  0  0  0  0  0  0  0  0  0  0  0
   57.9430   29.0036   45.3376 C   0  0  0  0  0  0  0  0  0  0  0  0
   56.8621   29.7294   44.8011 C   0  0  0  0  0  0  0  0  0  0  0  0
   55.6932   29.0901   44.4058 O   0  0  0  0  0  0  0  0  0  0  0  0
   56.9441   31.0785   44.6791 N   0  0  0  0  0  0  0  0  0  0  0  0
   57.8873   27.5660   45.4600 N   0  0  0  0  0  0  0  0  0  0  0  0
   58.1938   26.8308   44.4988 O   0  0  0  0  0  0  0  0  0  0  0  0
   57.4757   26.9760   46.6340 O   0  0  0  0  0  0  0  0  0  0  0  0
  5  6  1  0
  6  7  2  0
  7  8  1  0
  8  9  2  0
  9  4  1  0
  4  2  1  0
  2  3  2  0
  2  1  1  0
  1 13  1  0
 13 14  1  0
 14 15  2  0
 15 16  1  0
 16 17  2  0
 16 18  1  0
 18 22  1  0
 22 23  2  0
 22 24  1  0
 18 19  2  0
 19 20  1  0
 19 21  1  0
  9 10  1  0
 10 11  1  0
 10 12  2  0
 12  6  1  0
 21 14  1  0
M  CHG 1   4  -1
M  CHG 1  20  -1
M  CHG 1  21  -1
M  CHG 1  22   1
M  CHG 1  24  -1
M  END
> <UniqueID>
75

> <SMILES>
Cc1ccc([N-]C(=O)CSc2nc(=O)c([N+](=O)[O-])c([O-])[n-]2)c(C)c1

> <Energy>
38.502675644278334

> <Genealogy>
Cc1ccc([N-]C(=O)CSc2nc(=O)c([N+](=O)[O-])c([O-])[n-]2)c(C)c1 (protonated)
Cc1ccc([N-]C(=O)CSc2nc(=O)c([N+](=O)[O-])c([O-])[n-]2)c(C)c1 (3D coordinates assigned)
Cc1ccc([N-]C(=O)CSc2nc(=O)c([N+](=O)[O-])c([O-])[n-]2)c(C)c1 (optimized conformer: 38.502675644278334 kcal/mol)

> <smiles>
Cc1ccc(NC(=O)CSc2nc(=O)c([N+](=O)[O-])c(O)[nH]2)c(C)c1

> <score_type>
oracle

> <origin>
adg

> <m_score__min__energy>
-14.4

> <m_primary>
energy

> <minimizedAffinity>
-6.78297

> <minimizedRMSD>
1.17366

> <CNNscore>
0.6155945063

> <CNNaffinity>
6.3884606361

> <CNN_VS>
3.9327013493

> <CNNaffinity_variance>
0.1106545702

$$$$
7:0


 33 37  0  0  0  0  0  0  0  0999 V2000
   58.2594   29.4415   53.3615 C   0  0  0  0  0  0  0  0  0  0  0  0
   58.9743   29.6341   54.5510 C   0  0  0  0  0  0  0  0  0  0  0  0
   60.3707   29.6212   54.5388 C   0  0  0  0  0  0  0  0  0  0  0  0
   61.0612   29.4158   53.3410 C   0  0  0  0  0  0  0  0  0  0  0  0
   60.3571   29.2149   52.1393 C   0  0  0  0  0  0  0  0  0  0  0  0
   58.9515   29.2428   52.1581 C   0  0  0  0  0  0  0  0  0  0  0  0
   61.0846   29.0135   50.8642 C   0  0  0  0  0  0  0  0  0  0  0  0
   62.0375   28.1886   50.8153 O   0  0  0  0  0  0  0  0  0  0  0  0
   60.7037   29.7189   49.6706 N   0  0  0  0  0  0  0  0  0  0  0  0
   61.5353   30.8283   49.1766 C   0  0  0  0  0  0  0  0  0  0  0  0
   60.6614   31.8916   48.5791 C   0  0  0  0  0  0  0  0  0  0  0  0
   60.9503   33.2538   48.7387 C   0  0  0  0  0  0  0  0  0  0  0  0
   60.1271   34.2171   48.1476 C   0  0  0  0  0  0  0  0  0  0  0  0
   59.0230   33.8238   47.3866 C   0  0  0  0  0  0  0  0  0  0  0  0
   58.7371   32.4669   47.2137 C   0  0  0  0  0  0  0  0  0  0  0  0
   59.5494   31.4950   47.8173 C   0  0  0  0  0  0  0  0  0  0  0  0
   59.3011   30.0257   47.6082 C   0  0  0  0  0  0  0  0  0  0  0  0
   59.5400   29.2319   48.9060 C   0  0  0  0  0  0  0  0  0  0  0  0
   56.4795   31.7403   52.7574 C   0  0  0  0  0  0  0  0  0  0  0  0
   56.0153   30.5197   53.0651 C   0  0  0  0  0  0  0  0  0  0  0  0
   54.6743   30.1376   53.2393 C   0  0  0  0  0  0  0  0  0  0  0  0
   53.5250   30.7945   52.9890 C   0  0  0  0  0  0  0  0  0  0  0  0
   54.7016   28.8436   53.7373 C   0  0  0  0  0  0  0  0  0  0  0  0
   56.0259   28.4624   53.7900 C   0  0  0  0  0  0  0  0  0  0  0  0
   56.5143   27.1242   54.2541 C   0  0  0  0  0  0  0  0  0  0  0  0
   56.8216   29.4713   53.3739 N   0  0  0  0  0  0  0  0  0  0  0  0
   52.7824   30.7688   51.7180 C   0  0  0  0  0  0  0  0  0  0  0  0
   52.9347   29.8351   50.7599 N   0  0  0  0  0  0  0  0  0  0  0  0
   51.9630   30.1399   49.8728 C   0  0  0  0  0  0  0  0  0  0  0  0
   51.7907   29.4903   48.8078 O   0  0  0  0  0  0  0  0  0  0  0  0
   51.1862   31.1890   50.2192 N   0  0  0  0  0  0  0  0  0  0  0  0
   51.7109   31.5635   51.3974 C   0  0  0  0  0  0  0  0  0  0  0  0
   51.2170   32.6122   52.1638 O   0  0  0  0  0  0  0  0  0  0  0  0
 19 20  2  0
 20 21  1  0
 21 22  2  0
 22 27  1  0
 27 28  1  0
 28 29  1  0
 29 30  2  0
 29 31  1  0
 31 32  1  0
 32 33  1  0
 21 23  1  0
 23 24  2  0
 24 25  1  0
 24 26  1  0
 26  1  1  0
  1  2  2  0
  2  3  1  0
  3  4  2  0
  4  5  1  0
  5  7  1  0
  7  8  2  0
  7  9  1  0
  9 10  1  0
 10 11  1  0
 11 12  2  0
 12 13  1  0
 13 14  2  0
 14 15  1  0
 15 16  2  0
 16 17  1  0
 17 18  1  0
  5  6  2  0
 26 20  1  0
  6  1  1  0
 32 27  2  0
 18  9  1  0
 16 11  1  0
M  CHG 1  28  -1
M  CHG 1  31  -1
M  CHG 1  33  -1
M  END
> <UniqueID>
7

> <SMILES>
C=c1/c(=C\c2[n-]c(=O)[n-]c2[O-])cc(C)n1-c1cccc(C(=O)N2CCc3ccccc3C2)c1

> <Energy>
142.39422737721375

> <Genealogy>
C=c1c(=Cc2[n-]c(=O)[n-]c2[O-])cc(C)n1-c1cccc(C(=O)N2CCc3ccccc3C2)c1 (protonated)
C=c1/c(=C\c2[n-]c(=O)[n-]c2[O-])cc(C)n1-c1cccc(C(=O)N2CCc3ccccc3C2)c1 (cis-trans isomerization)
C=c1/c(=C\c2[n-]c(=O)[n-]c2[O-])cc(C)n1-c1cccc(C(=O)N2CCc3ccccc3C2)c1 (3D coordinates assigned)
C=c1/c(=C\c2[n-]c(=O)[n-]c2[O-])cc(C)n1-c1cccc(C(=O)N2CCc3ccccc3C2)c1 (nonaromatic ring conformer: 142.39422737721375 kcal/mol)

> <smiles>
C=c1c(=Cc2[nH]c(=O)[nH]c2O)cc(C)n1-c1cccc(C(=O)N2CCc3ccccc3C2)c1

> <score_type>
oracle

> <origin>
adg

> <m_score__min__energy>
-18.550000000000001

> <m_primary>
energy

> <minimizedAffinity>
-6.41121

> <minimizedRMSD>
0.85646

> <CNNscore>
0.0688146651

> <CNNaffinity>
5.9772014618

> <CNN_VS>
0.4113191068

> <CNNaffinity_variance>
0.0422666781

$$$$
33:0


 27 29  0  0  0  0  0  0  0  0999 V2000
   59.1496   29.1858   47.0077 C   0  0  0  0  0  0  0  0  0  0  0  0
   59.5894   29.8413   48.1712 C   0  0  0  0  0  0  0  0  0  0  0  0
   60.2371   29.1394   49.1865 C   0  0  0  0  0  0  0  0  0  0  0  0
   60.4777   27.7766   49.0469 C   0  0  0  0  0  0  0  0  0  0  0  0
   60.0624   27.1075   47.8954 C   0  0  0  0  0  0  0  0  0  0  0  0
   59.3677   27.7854   46.8722 C   0  0  0  0  0  0  0  0  0  0  0  0
   58.3300   30.1520   45.7655 S   0  0  0  0  0  0  0  0  0  0  0  0
   59.1422   30.1975   44.5023 O   0  0  0  0  0  0  0  0  0  0  0  0
   57.0077   29.5100   45.4495 O   0  0  0  0  0  0  0  0  0  0  0  0
   58.0620   31.7722   46.3295 N   0  0  0  0  0  0  0  0  0  0  0  0
   58.9041   33.5710   45.1331 O   0  0  0  0  0  0  0  0  0  0  0  0
   58.9814   32.8576   46.1668 C   0  0  0  0  0  0  0  0  0  0  0  0
   60.0028   33.1760   47.1797 C   0  0  0  0  0  0  0  0  0  0  0  0
   59.6249   33.6339   48.4506 C   0  0  0  0  0  0  0  0  0  0  0  0
   60.6005   33.9487   49.4030 C   0  0  0  0  0  0  0  0  0  0  0  0
   61.9555   33.8006   49.0922 C   0  0  0  0  0  0  0  0  0  0  0  0
   62.3371   33.3252   47.8347 C   0  0  0  0  0  0  0  0  0  0  0  0
   61.3639   33.0055   46.8821 C   0  0  0  0  0  0  0  0  0  0  0  0
   58.9777   27.0180   45.6190 C   0  0  0  0  0  0  0  0  0  0  0  0
   58.0105   25.8902   45.9080 C   0  0  0  0  0  0  0  0  0  0  0  0
   56.6585   26.1712   46.1415 C   0  0  0  0  0  0  0  0  0  0  0  0
   55.7893   25.1668   46.4194 N   0  0  0  0  0  0  0  0  0  0  0  0
   56.2089   23.8770   46.4779 C   0  0  0  0  0  0  0  0  0  0  0  0
   55.3874   22.9588   46.7376 O   0  0  0  0  0  0  0  0  0  0  0  0
   57.5146   23.5757   46.2568 N   0  0  0  0  0  0  0  0  0  0  0  0
   58.4212   24.5465   45.9762 C   0  0  0  0  0  0  0  0  0  0  0  0
   59.6247   24.2286   45.7825 O   0  0  0  0  0  0  0  0  0  0  0  0
 11 12  2  0
 12 10  1  0
 10  7  1  0
  7  8  2  0
  7  9  2  0
  7  1  1  0
  1  2  2  0
  2  3  1  0
  3  4  2  0
  4  5  1  0
  5  6  2  0
  6 19  1  0
 19 20  1  0
 20 21  2  0
 21 22  1  0
 22 23  1  0
 23 24  2  0
 23 25  1  0
 25 26  1  0
 26 27  2  0
 12 13  1  0
 13 14  2  0
 14 15  1  0
 15 16  2  0
 16 17  1  0
 17 18  2  0
  6  1  1  0
 26 20  1  0
 18 13  1  0
M  CHG 1  10  -1
M  CHG 1  22  -1
M  CHG 1  25  -1
M  END
> <UniqueID>
32

> <SMILES>
O=C([N-]S(=O)(=O)c1ccccc1Cc1c[n-]c(=O)[n-]c1=O)c1ccccc1

> <Energy>
52.28076224833055

> <Genealogy>
O=C([N-]S(=O)(=O)c1ccccc1Cc1c[n-]c(=O)[n-]c1=O)c1ccccc1 (protonated)
O=C([N-]S(=O)(=O)c1ccccc1Cc1c[n-]c(=O)[n-]c1=O)c1ccccc1 (3D coordinates assigned)
O=C([N-]S(=O)(=O)c1ccccc1Cc1c[n-]c(=O)[n-]c1=O)c1ccccc1 (optimized conformer: 52.28076224833055 kcal/mol)

> <smiles>
O=C(NS(=O)(=O)c1ccccc1Cc1c[nH]c(=O)[nH]c1=O)c1ccccc1

> <score_type>
oracle

> <origin>
adg

> <m_score__min__energy>
-15.220000000000001

> <m_primary>
energy

> <minimizedAffinity>
-8.10972

> <minimizedRMSD>
1.39374

> <CNNscore>
0.6885190010

> <CNNaffinity>
7.0344719887

> <CNN_VS>
4.8433675766

> <CNNaffinity_variance>
1.5902428627

$$$$
42:0


 28 30  0  0  0  0  0  0  0  0999 V2000
   57.7705   32.4106   45.3941 C   0  0  0  0  0  0  0  0  0  0  0  0
   58.1793   33.4678   44.5626 C   0  0  0  0  0  0  0  0  0  0  0  0
   59.1094   34.4017   45.0229 C   0  0  0  0  0  0  0  0  0  0  0  0
   59.6209   34.3035   46.3187 C   0  0  0  0  0  0  0  0  0  0  0  0
   59.1937   33.2755   47.1691 C   0  0  0  0  0  0  0  0  0  0  0  0
   58.2658   32.3318   46.7008 C   0  0  0  0  0  0  0  0  0  0  0  0
   59.8125   33.1704   48.8194 S   0  0  0  0  0  0  0  0  0  0  0  0
   58.9644   32.2081   49.6071 O   0  0  0  0  0  0  0  0  0  0  0  0
   59.7105   34.5207   49.4744 O   0  0  0  0  0  0  0  0  0  0  0  0
   61.4779   32.6379   48.8542 N   0  0  0  0  0  0  0  0  0  0  0  0
   61.7528   31.7339   47.7209 C   0  0  0  0  0  0  0  0  0  0  0  0
   63.2621   31.6695   47.4344 C   0  0  0  0  0  0  0  0  0  0  0  0
   63.8427   32.9237   47.0987 O   0  0  0  0  0  0  0  0  0  0  0  0
   63.1121   34.0433   47.5800 C   0  0  0  0  0  0  0  0  0  0  0  0
   62.4164   33.7792   48.9269 C   0  0  0  0  0  0  0  0  0  0  0  0
   56.7965   31.4500   44.9631 N   0  0  0  0  0  0  0  0  0  0  0  0
   56.6135   29.9701   43.1855 O   0  0  0  0  0  0  0  0  0  0  0  0
   57.0647   30.1855   44.3410 C   0  0  0  0  0  0  0  0  0  0  0  0
   57.8344   29.0998   45.0449 C   0  0  0  0  0  0  0  0  0  0  0  0
   56.9365   28.0641   45.5625 N   0  0  0  0  0  0  0  0  0  0  0  0
   56.0108   28.3146   45.7850 H   0  0  0  0  0  0  0  0  0  0  0  0
   57.3446   26.6946   45.7617 C   0  0  0  0  0  0  0  0  0  0  0  0
   58.7037   26.3193   45.7141 C   0  0  0  0  0  0  0  0  0  0  0  0
   59.0802   24.9878   45.9114 C   0  0  0  0  0  0  0  0  0  0  0  0
   58.1120   24.0146   46.1585 C   0  0  0  0  0  0  0  0  0  0  0  0
   56.7623   24.3709   46.2104 C   0  0  0  0  0  0  0  0  0  0  0  0
   56.3759   25.7017   46.0136 C   0  0  0  0  0  0  0  0  0  0  0  0
   55.0251   26.0274   46.0691 O   0  0  0  0  0  0  0  0  0  0  0  0
 17 18  2  0
 18 19  1  0
 19 20  1  0
 20 22  1  0
 22 23  2  0
 23 24  1  0
 24 25  2  0
 25 26  1  0
 26 27  2  0
 27 28  1  0
 18 16  1  0
 16  1  1  0
  1  2  2  0
  2  3  1  0
  3  4  2  0
  4  5  1  0
  5  7  1  0
  7  8  2  0
  7  9  2  0
  7 10  1  0
 10 11  1  0
 11 12  1  0
 12 13  1  0
 13 14  1  0
 14 15  1  0
  5  6  2  0
 27 22  1  0
  6  1  1  0
 15 10  1  0
 20 21  1  0
M  CHG 1  16  -1
M  CHG 1  28  -1
M  END
> <UniqueID>
39

> <SMILES>
O=C(CNc1ccccc1[O-])[N-]c1cccc(S(=O)(=O)N2CCOCC2)c1

> <Energy>
64.32822955846598

> <Genealogy>
O=C(CNc1ccccc1[O-])[N-]c1cccc(S(=O)(=O)N2CCOCC2)c1 (protonated)
O=C(CNc1ccccc1[O-])[N-]c1cccc(S(=O)(=O)N2CCOCC2)c1 (3D coordinates assigned)
O=C(CNc1ccccc1[O-])[N-]c1cccc(S(=O)(=O)N2CCOCC2)c1 (nonaromatic ring conformer: 64.32822955846598 kcal/mol)

> <smiles>
O=C(CNc1ccccc1O)Nc1cccc(S(=O)(=O)N2CCOCC2)c1

> <score_type>
oracle

> <origin>
adg

> <m_score__min__energy>
-14.800000000000001

> <m_primary>
energy

> <minimizedAffinity>
-7.87106

> <minimizedRMSD>
0.64076

> <CNNscore>
0.4876607656

> <CNNaffinity>
6.2188572884

> <CNN_VS>
3.0326926708

> <CNNaffinity_variance>
0.2151052952

$$$$
44:0


 18 19  0  0  0  0  0  0  0  0999 V2000
   57.5455   27.2503   46.0825 C   0  0  0  0  0  0  0  0  0  0  0  0
   58.1497   27.9629   46.9908 N   0  0  0  0  0  0  0  0  0  0  0  0
   57.4705   25.7708   46.1013 C   0  0  0  0  0  0  0  0  0  0  0  0
   56.2393   25.0928   46.0999 C   0  0  0  0  0  0  0  0  0  0  0  0
   55.0388   25.7934   46.0699 O   0  0  0  0  0  0  0  0  0  0  0  0
   56.2136   23.7355   46.1056 N   0  0  0  0  0  0  0  0  0  0  0  0
   57.3619   23.0119   46.0924 C   0  0  0  0  0  0  0  0  0  0  0  0
   57.3134   21.7547   46.1030 O   0  0  0  0  0  0  0  0  0  0  0  0
   58.5630   23.6438   46.0630 N   0  0  0  0  0  0  0  0  0  0  0  0
   58.6427   24.9988   46.0592 C   0  0  0  0  0  0  0  0  0  0  0  0
   59.7748   25.5515   46.0297 O   0  0  0  0  0  0  0  0  0  0  0  0
   58.6955   29.2844   46.8443 C   0  0  0  0  0  0  0  0  0  0  0  0
   58.1430   30.2176   45.9474 C   0  0  0  0  0  0  0  0  0  0  0  0
   58.6789   31.5049   45.8517 C   0  0  0  0  0  0  0  0  0  0  0  0
   59.7526   31.8777   46.6638 C   0  0  0  0  0  0  0  0  0  0  0  0
   60.2857   30.9670   47.5823 C   0  0  0  0  0  0  0  0  0  0  0  0
   61.7400   31.4842   48.7071 Br  0  0  0  0  0  0  0  0  0  0  0  0
   59.7498   29.6784   47.6783 C   0  0  0  0  0  0  0  0  0  0  0  0
  1  2  2  0
  2 12  1  0
 12 13  2  0
 13 14  1  0
 14 15  2  0
 15 16  1  0
 16 17  1  0
 16 18  2  0
  1  3  1  0
  3  4  2  0
  4  5  1  0
  4  6  1  0
  6  7  1  0
  7  8  2  0
  7  9  1  0
  9 10  1  0
 10 11  2  0
 18 12  1  0
 10  3  1  0
M  CHG 1   5  -1
M  CHG 1   6  -1
M  CHG 1   9  -1
M  END
> <UniqueID>
41

> <SMILES>
O=c1[n-]c([O-])c(/C=N\c2cccc(Br)c2)c(=O)[n-]1

> <Energy>
38.486830095897496

> <Genealogy>
O=c1[n-]c([O-])c(C=Nc2cccc(Br)c2)c(=O)[n-]1 (protonated)
O=c1[n-]c([O-])c(/C=N\c2cccc(Br)c2)c(=O)[n-]1 (cis-trans isomerization)
O=c1[n-]c([O-])c(/C=N\c2cccc(Br)c2)c(=O)[n-]1 (3D coordinates assigned)
O=c1[n-]c([O-])c(/C=N\c2cccc(Br)c2)c(=O)[n-]1 (optimized conformer: 38.486830095897496 kcal/mol)

> <smiles>
O=c1[nH]c(O)c(C=Nc2cccc(Br)c2)c(=O)[nH]1

> <score_type>
oracle

> <origin>
adg

> <m_score__min__energy>
-14.56

> <m_primary>
energy

> <minimizedAffinity>
-6.35827

> <minimizedRMSD>
2.50538

> <CNNscore>
0.2842935026

> <CNNaffinity>
5.3299612999

> <CNN_VS>
1.5152733326

> <CNNaffinity_variance>
0.3270597756

$$$$
91:0


 25 27  0  0  0  0  0  0  0  0999 V2000
   58.2660   28.5267   45.2663 C   0  0  0  0  0  0  0  0  0  0  0  0
   58.7514   28.6904   46.5756 C   0  0  0  0  0  0  0  0  0  0  0  0
   58.7843   29.9569   47.1668 C   0  0  0  0  0  0  0  0  0  0  0  0
   58.3334   31.0804   46.4660 C   0  0  0  0  0  0  0  0  0  0  0  0
   57.8265   30.9200   45.1661 C   0  0  0  0  0  0  0  0  0  0  0  0
   57.7930   29.6551   44.5733 C   0  0  0  0  0  0  0  0  0  0  0  0
   58.2560   27.1840   44.6328 C   0  0  0  0  0  0  0  0  0  0  0  0
   58.3029   27.0807   43.3784 O   0  0  0  0  0  0  0  0  0  0  0  0
   57.4331   22.6485   44.5605 C   0  0  0  0  0  0  0  0  0  0  0  0
   58.1075   23.8165   44.7346 N   0  0  0  0  0  0  0  0  0  0  0  0
   57.5321   24.9201   45.2866 C   0  0  0  0  0  0  0  0  0  0  0  0
   58.2734   25.9860   45.4223 N   0  0  0  0  0  0  0  0  0  0  0  0
   56.1649   24.8608   45.6638 C   0  0  0  0  0  0  0  0  0  0  0  0
   55.4778   25.9640   46.1574 O   0  0  0  0  0  0  0  0  0  0  0  0
   55.4658   23.6596   45.5021 C   0  0  0  0  0  0  0  0  0  0  0  0
   56.1007   22.5477   44.9516 C   0  0  0  0  0  0  0  0  0  0  0  0
   58.4112   32.3637   47.1014 N   0  0  0  0  0  0  0  0  0  0  0  0
   59.6733   33.5265   46.8490 S   0  0  0  0  0  0  0  0  0  0  0  0
   59.8657   33.7368   45.3731 O   0  0  0  0  0  0  0  0  0  0  0  0
   59.2791   34.8285   47.4865 O   0  0  0  0  0  0  0  0  0  0  0  0
   61.1610   32.9592   47.5833 C   0  0  0  0  0  0  0  0  0  0  0  0
   62.7066   33.4114   47.1063 S   0  0  0  0  0  0  0  0  0  0  0  0
   63.5184   32.4466   48.2207 C   0  0  0  0  0  0  0  0  0  0  0  0
   62.5771   31.7578   48.9764 C   0  0  0  0  0  0  0  0  0  0  0  0
   61.2541   32.0441   48.6189 C   0  0  0  0  0  0  0  0  0  0  0  0
  9 10  1  0
 10 11  1  0
 11 12  2  0
 12  7  1  0
  7  8  2  0
  7  1  1  0
  1  2  2  0
  2  3  1  0
  3  4  2  0
  4 17  1  0
 17 18  1  0
 18 19  2  0
 18 20  2  0
 18 21  1  0
 21 22  1  0
 22 23  1  0
 23 24  2  0
 24 25  1  0
  4  5  1  0
  5  6  2  0
 11 13  1  0
 13 14  1  0
 13 15  2  0
 15 16  1  0
 16  9  2  0
  6  1  1  0
 25 21  2  0
M  CHG 1  10  -1
M  CHG 1  14  -1
M  CHG 1  17  -1
M  END
> <UniqueID>
85

> <SMILES>
O=C(/N=c1/[n-]cccc1[O-])c1ccc([N-]S(=O)(=O)c2cccs2)cc1

> <Energy>
81.26649558936278

> <Genealogy>
O=C(N=c1[n-]cccc1[O-])c1ccc([N-]S(=O)(=O)c2cccs2)cc1 (protonated)
O=C(/N=c1/[n-]cccc1[O-])c1ccc([N-]S(=O)(=O)c2cccs2)cc1 (cis-trans isomerization)
O=C(/N=c1/[n-]cccc1[O-])c1ccc([N-]S(=O)(=O)c2cccs2)cc1 (3D coordinates assigned)
O=C(/N=c1/[n-]cccc1[O-])c1ccc([N-]S(=O)(=O)c2cccs2)cc1 (optimized conformer: 81.26649558936278 kcal/mol)

> <smiles>
O=C(N=c1[nH]cccc1O)c1ccc(NS(=O)(=O)c2cccs2)cc1

> <score_type>
oracle

> <origin>
adg

> <m_score__min__energy>
-14.57

> <m_primary>
energy

> <minimizedAffinity>
-7.27441

> <minimizedRMSD>
2.16063

> <CNNscore>
0.3428438902

> <CNNaffinity>
6.1883831024

> <CNN_VS>
2.1216492653

> <CNNaffinity_variance>
0.0849313512

$$$$
7:0


 30 32  0  0  0  0  0  0  0  0999 V2000
   56.7313   30.6665   42.7608 N   0  0  0  0  0  0  0  0  0  0  0  0
   56.7835   29.8004   43.7313 C   0  0  0  0  0  0  0  0  0  0  0  0
   57.7822   28.8753   43.9737 C   0  0  0  0  0  0  0  0  0  0  0  0
   57.3216   28.1813   45.0820 C   0  0  0  0  0  0  0  0  0  0  0  0
   56.1259   28.6778   45.4669 N   0  0  0  0  0  0  0  0  0  0  0  0
   55.8022   29.6530   44.6353 N   0  0  0  0  0  0  0  0  0  0  0  0
   54.9748   30.1852   44.6728 H   0  0  0  0  0  0  0  0  0  0  0  0
   57.6488   31.7507   42.5668 C   0  0  0  0  0  0  0  0  0  0  0  0
   57.6467   32.3629   41.4666 O   0  0  0  0  0  0  0  0  0  0  0  0
   58.4953   32.2690   43.6989 C   0  0  0  0  0  0  0  0  0  0  0  0
   57.6379   32.9403   44.7803 C   0  0  0  0  0  0  0  0  0  0  0  0
   60.0321   34.1432   48.1606 C   0  0  0  0  0  0  0  0  0  0  0  0
   60.1816   34.7946   46.9333 C   0  0  0  0  0  0  0  0  0  0  0  0
   59.4012   34.4126   45.8378 C   0  0  0  0  0  0  0  0  0  0  0  0
   58.4617   33.3755   45.9649 C   0  0  0  0  0  0  0  0  0  0  0  0
   58.3232   32.7204   47.2005 C   0  0  0  0  0  0  0  0  0  0  0  0
   59.1055   33.1068   48.2941 C   0  0  0  0  0  0  0  0  0  0  0  0
   58.0485   27.0925   45.7668 C   0  0  0  0  0  0  0  0  0  0  0  0
   59.2537   26.8913   45.4645 O   0  0  0  0  0  0  0  0  0  0  0  0
   57.4544   26.2603   46.7704 N   0  0  0  0  0  0  0  0  0  0  0  0
   56.2107   25.0780   46.5203 S   0  0  0  0  0  0  0  0  0  0  0  0
   55.9081   24.3690   47.8120 O   0  0  0  0  0  0  0  0  0  0  0  0
   54.9619   25.7390   46.0086 O   0  0  0  0  0  0  0  0  0  0  0  0
   56.7718   23.9173   45.3211 C   0  0  0  0  0  0  0  0  0  0  0  0
   55.9420   23.5396   44.2558 C   0  0  0  0  0  0  0  0  0  0  0  0
   56.3840   22.6005   43.3210 C   0  0  0  0  0  0  0  0  0  0  0  0
   57.6562   22.0359   43.4405 C   0  0  0  0  0  0  0  0  0  0  0  0
   58.5003   22.4147   44.4962 C   0  0  0  0  0  0  0  0  0  0  0  0
   59.8476   21.7741   44.6522 C   0  0  0  0  0  0  0  0  0  0  0  0
   58.0441   23.3448   45.4449 C   0  0  0  0  0  0  0  0  0  0  0  0
 12 13  2  0
 13 14  1  0
 14 15  2  0
 15 11  1  0
 11 10  1  0
 10  8  1  0
  8  9  2  0
  8  1  1  0
  1  2  2  0
  2  3  1  0
  3  4  2  0
  4 18  1  0
 18 19  2  0
 18 20  1  0
 20 21  1  0
 21 22  2  0
 21 23  2  0
 21 24  1  0
 24 25  2  0
 25 26  1  0
 26 27  2  0
 27 28  1  0
 28 29  1  0
 28 30  2  0
  4  5  1  0
  5  6  1  0
 15 16  1  0
 16 17  2  0
 17 12  1  0
  6  2  1  0
 30 24  1  0
  6  7  1  0
M  CHG 1   5  -1
M  CHG 1  20  -1
M  END
> <UniqueID>
8

> <SMILES>
Cc1cccc(S(=O)(=O)[N-]C(=O)c2c/c(=N\C(=O)CCc3ccccc3)[nH][n-]2)c1

> <Energy>
89.23181945398137

> <Genealogy>
Cc1cccc(S(=O)(=O)[N-]C(=O)c2cc(=NC(=O)CCc3ccccc3)[nH][n-]2)c1 (protonated)
Cc1cccc(S(=O)(=O)[N-]C(=O)c2c/c(=N\C(=O)CCc3ccccc3)[nH][n-]2)c1 (cis-trans isomerization)
Cc1cccc(S(=O)(=O)[N-]C(=O)c2c/c(=N\C(=O)CCc3ccccc3)[nH][n-]2)c1 (3D coordinates assigned)
Cc1cccc(S(=O)(=O)[N-]C(=O)c2c/c(=N\C(=O)CCc3ccccc3)[nH][n-]2)c1 (optimized conformer: 89.23181945398137 kcal/mol)

> <smiles>
Cc1cccc(S(=O)(=O)NC(=O)c2cc(=NC(=O)CCc3ccccc3)[nH][nH]2)c1

> <score_type>
oracle

> <origin>
adg

> <m_score__min__energy>
-14.210000000000001

> <m_primary>
energy

> <minimizedAffinity>
-6.30742

> <minimizedRMSD>
0.55620

> <CNNscore>
0.5688838363

> <CNNaffinity>
6.7566084862

> <CNN_VS>
3.8437254429

> <CNNaffinity_variance>
0.0267225634

$$$$
18:0


 28 30  0  0  0  0  0  0  0  0999 V2000
   58.3428   24.6323   46.7294 N   0  0  0  0  0  0  0  0  0  0  0  0
   56.5354   23.3995   45.5752 C   0  0  0  0  0  0  0  0  0  0  0  0
   56.1392   22.4736   44.5930 C   0  0  0  0  0  0  0  0  0  0  0  0
   57.0894   21.7856   43.8368 C   0  0  0  0  0  0  0  0  0  0  0  0
   58.4469   22.0093   44.0508 C   0  0  0  0  0  0  0  0  0  0  0  0
   58.8613   22.9351   45.0095 C   0  0  0  0  0  0  0  0  0  0  0  0
   57.9165   23.6572   45.7633 C   0  0  0  0  0  0  0  0  0  0  0  0
   55.4925   24.0938   46.3699 C   0  0  0  0  0  0  0  0  0  0  0  0
   55.0357   25.2016   45.9734 O   0  0  0  0  0  0  0  0  0  0  0  0
   54.9765   23.5024   47.5660 N   0  0  0  0  0  0  0  0  0  0  0  0
   54.3905   22.1677   47.6273 C   0  0  0  0  0  0  0  0  0  0  0  0
   52.9126   22.2074   47.2284 C   0  0  0  0  0  0  0  0  0  0  0  0
   51.9767   23.2741   45.3898 C   0  0  0  0  0  0  0  0  0  0  0  0
   52.7723   22.1919   45.8189 O   0  0  0  0  0  0  0  0  0  0  0  0
   58.7541   25.9761   46.4535 C   0  0  0  0  0  0  0  0  0  0  0  0
   59.8440   26.2088   45.8637 O   0  0  0  0  0  0  0  0  0  0  0  0
   57.8799   27.1163   46.8652 C   0  0  0  0  0  0  0  0  0  0  0  0
   58.6903   28.3193   47.0621 N   0  0  0  0  0  0  0  0  0  0  0  0
   59.6563   28.5006   47.9980 C   0  0  0  0  0  0  0  0  0  0  0  0
   60.0299   27.5922   48.7882 O   0  0  0  0  0  0  0  0  0  0  0  0
   60.1835   29.7486   48.0225 N   0  0  0  0  0  0  0  0  0  0  0  0
   59.4919   30.3758   47.0527 C   0  0  0  0  0  0  0  0  0  0  0  0
   59.6181   31.7050   46.6585 C   0  0  0  0  0  0  0  0  0  0  0  0
   58.7788   32.1696   45.6318 C   0  0  0  0  0  0  0  0  0  0  0  0
   57.8416   31.3037   45.0286 C   0  0  0  0  0  0  0  0  0  0  0  0
   57.7351   29.9629   45.4450 C   0  0  0  0  0  0  0  0  0  0  0  0
   56.8146   29.1184   44.8414 O   0  0  0  0  0  0  0  0  0  0  0  0
   58.5865   29.5279   46.4724 C   0  0  0  0  0  0  0  0  0  0  0  0
 13 14  1  0
 14 12  1  0
 12 11  1  0
 11 10  1  0
 10  8  1  0
  8  9  2  0
  8  2  1  0
  2  3  2  0
  3  4  1  0
  4  5  2  0
  5  6  1  0
  6  7  2  0
  7  1  1  0
  1 15  1  0
 15 16  2  0
 15 17  1  0
 17 18  1  0
 18 19  1  0
 19 20  2  0
 19 21  1  0
 21 22  1  0
 22 23  2  0
 23 24  1  0
 24 25  2  0
 25 26  1  0
 26 27  1  0
 26 28  2  0
  7  2  1  0
 28 18  1  0
 28 22  1  0
M  CHG 1   1  -1
M  CHG 1  10  -1
M  CHG 1  21  -1
M  CHG 1  27  -1
M  END
> <UniqueID>
16

> <SMILES>
COCC[N-]C(=O)c1ccccc1[N-]C(=O)Cn1c(=O)[n-]c2cccc([O-])c21

> <Energy>
87.90278603420488

> <Genealogy>
COCC[N-]C(=O)c1ccccc1[N-]C(=O)Cn1c(=O)[n-]c2cccc([O-])c21 (protonated)
COCC[N-]C(=O)c1ccccc1[N-]C(=O)Cn1c(=O)[n-]c2cccc([O-])c21 (3D coordinates assigned)
COCC[N-]C(=O)c1ccccc1[N-]C(=O)Cn1c(=O)[n-]c2cccc([O-])c21 (optimized conformer: 87.90278603420488 kcal/mol)

> <smiles>
COCCNC(=O)c1ccccc1NC(=O)Cn1c(=O)[nH]c2cccc(O)c21

> <score_type>
oracle

> <origin>
adg

> <m_score__min__energy>
-14.77

> <m_primary>
energy

> <minimizedAffinity>
-6.05788

> <minimizedRMSD>
1.30194

> <CNNscore>
0.2125250697

> <CNNaffinity>
5.7102165222

> <CNN_VS>
1.2135641575

> <CNNaffinity_variance>
0.0129238293

$$$$
27:0


 30 32  0  0  0  0  0  0  0  0999 V2000
   58.1915   28.5645   44.9211 N   0  0  0  0  0  0  0  0  0  0  0  0
   57.3817   29.6324   44.8469 C   0  0  0  0  0  0  0  0  0  0  0  0
   56.0067   29.5699   44.6506 O   0  0  0  0  0  0  0  0  0  0  0  0
   58.1354   30.7785   44.9824 C   0  0  0  0  0  0  0  0  0  0  0  0
   59.4366   30.4420   45.1323 N   0  0  0  0  0  0  0  0  0  0  0  0
   59.4214   29.0904   45.1056 C   0  0  0  0  0  0  0  0  0  0  0  0
   60.4640   28.3933   45.2330 O   0  0  0  0  0  0  0  0  0  0  0  0
   57.8105   27.1553   44.8847 C   0  0  0  0  0  0  0  0  0  0  0  0
   57.9010   27.1797   47.2675 O   0  0  0  0  0  0  0  0  0  0  0  0
   57.3383   26.7244   46.2353 C   0  0  0  0  0  0  0  0  0  0  0  0
   56.2518   25.7973   46.3370 N   0  0  0  0  0  0  0  0  0  0  0  0
   56.3249   24.3726   46.1741 C   0  0  0  0  0  0  0  0  0  0  0  0
   56.3574   23.4953   47.2745 C   0  0  0  0  0  0  0  0  0  0  0  0
   56.4546   22.1145   47.0705 C   0  0  0  0  0  0  0  0  0  0  0  0
   56.5329   21.6008   45.7729 C   0  0  0  0  0  0  0  0  0  0  0  0
   56.5228   22.4675   44.6766 C   0  0  0  0  0  0  0  0  0  0  0  0
   56.6344   21.8226   43.0478 Cl  0  0  0  0  0  0  0  0  0  0  0  0
   56.4277   23.8496   44.8784 C   0  0  0  0  0  0  0  0  0  0  0  0
   57.6516   32.1834   44.8195 C   0  0  0  0  0  0  0  0  0  0  0  0
   57.9486   32.9459   46.0711 C   0  0  0  0  0  0  0  0  0  0  0  0
   57.0012   33.4205   46.7543 O   0  0  0  0  0  0  0  0  0  0  0  0
   59.2984   33.0415   46.5435 N   0  0  0  0  0  0  0  0  0  0  0  0
   60.0305   33.1512   45.8946 H   0  0  0  0  0  0  0  0  0  0  0  0
   59.6080   32.9794   47.9680 C   0  0  0  0  0  0  0  0  0  0  0  0
   61.0957   33.1074   48.1652 C   0  0  0  0  0  0  0  0  0  0  0  0
   61.9386   33.3260   47.0621 C   0  0  0  0  0  0  0  0  0  0  0  0
   63.3255   33.3721   47.2316 C   0  0  0  0  0  0  0  0  0  0  0  0
   63.8828   33.1791   48.4999 C   0  0  0  0  0  0  0  0  0  0  0  0
   63.0521   32.9477   49.6014 C   0  0  0  0  0  0  0  0  0  0  0  0
   61.6640   32.9096   49.4361 C   0  0  0  0  0  0  0  0  0  0  0  0
  9 10  2  0
 10  8  1  0
  8  1  1  0
  1  2  1  0
  2  3  1  0
  2  4  2  0
  4 19  1  0
 19 20  1  0
 20 21  2  0
 20 22  1  0
 22 24  1  0
 24 25  1  0
 25 26  2  0
 26 27  1  0
 27 28  2  0
 28 29  1  0
 29 30  2  0
  4  5  1  0
  5  6  1  0
  6  7  2  0
 10 11  1  0
 11 12  1  0
 12 13  2  0
 13 14  1  0
 14 15  2  0
 15 16  1  0
 16 17  1  0
 16 18  2  0
  6  1  1  0
 18 12  1  0
 30 25  1  0
 22 23  1  0
M  CHG 1   3  -1
M  CHG 1   5  -1
M  CHG 1  11  -1
M  END
> <UniqueID>
24

> <SMILES>
O=C(Cn1c([O-])c(CC(=O)NCc2ccccc2)[n-]c1=O)[N-]c1cccc(Cl)c1

> <Energy>
73.3441187679748

> <Genealogy>
O=C(Cn1c([O-])c(CC(=O)NCc2ccccc2)[n-]c1=O)[N-]c1cccc(Cl)c1 (protonated)
O=C(Cn1c([O-])c(CC(=O)NCc2ccccc2)[n-]c1=O)[N-]c1cccc(Cl)c1 (3D coordinates assigned)
O=C(Cn1c([O-])c(CC(=O)NCc2ccccc2)[n-]c1=O)[N-]c1cccc(Cl)c1 (optimized conformer: 73.3441187679748 kcal/mol)

> <smiles>
O=C(Cc1[nH]c(=O)n(CC(=O)Nc2cccc(Cl)c2)c1O)NCc1ccccc1

> <score_type>
oracle

> <origin>
adg

> <m_score__min__energy>
-15.48

> <m_primary>
energy

> <minimizedAffinity>
-8.11484

> <minimizedRMSD>
1.12872

> <CNNscore>
0.2768351436

> <CNNaffinity>
6.2707610130

> <CNN_VS>
1.7359670401

> <CNNaffinity_variance>
0.0620393865

$$$$
31:0


 36 39  0  0  0  0  0  0  0  0999 V2000
   60.7334   28.4551   50.3465 O   0  0  0  0  0  0  0  0  0  0  0  0
   59.6429   28.7929   49.8077 C   0  0  0  0  0  0  0  0  0  0  0  0
   58.8775   29.9563   50.3810 C   0  0  0  0  0  0  0  0  0  0  0  0
   59.6179   31.2768   50.2977 C   0  0  0  0  0  0  0  0  0  0  0  0
   60.8561   31.3073   49.6286 C   0  0  0  0  0  0  0  0  0  0  0  0
   61.6420   32.4687   49.6218 C   0  0  0  0  0  0  0  0  0  0  0  0
   61.1815   33.6194   50.2759 C   0  0  0  0  0  0  0  0  0  0  0  0
   59.9533   33.6074   50.9363 C   0  0  0  0  0  0  0  0  0  0  0  0
   59.1747   32.4466   50.9601 C   0  0  0  0  0  0  0  0  0  0  0  0
   57.9888   32.4839   51.6181 F   0  0  0  0  0  0  0  0  0  0  0  0
   63.2208   32.4718   48.8273 S   0  0  0  0  0  0  0  0  0  0  0  0
   63.1567   31.5994   47.6033 O   0  0  0  0  0  0  0  0  0  0  0  0
   63.5518   33.8703   48.3849 O   0  0  0  0  0  0  0  0  0  0  0  0
   64.4835   31.8953   49.8935 N   0  0  0  0  0  0  0  0  0  0  0  0
   63.9294   31.2324   51.0946 C   0  0  0  0  0  0  0  0  0  0  0  0
   64.0387   32.1220   52.3473 C   0  0  0  0  0  0  0  0  0  0  0  0
   65.3763   32.4958   52.6531 O   0  0  0  0  0  0  0  0  0  0  0  0
   66.2021   32.6741   51.5050 C   0  0  0  0  0  0  0  0  0  0  0  0
   65.4251   32.9876   50.2138 C   0  0  0  0  0  0  0  0  0  0  0  0
   59.1122   27.9627   48.7649 N   0  0  0  0  0  0  0  0  0  0  0  0
   59.1219   28.1970   47.3470 C   0  0  0  0  0  0  0  0  0  0  0  0
   58.3799   29.2396   46.7630 C   0  0  0  0  0  0  0  0  0  0  0  0
   58.4737   29.4979   45.3886 C   0  0  0  0  0  0  0  0  0  0  0  0
   59.3263   28.7200   44.5948 C   0  0  0  0  0  0  0  0  0  0  0  0
   60.0725   27.6880   45.1681 C   0  0  0  0  0  0  0  0  0  0  0  0
   59.9771   27.4304   46.5393 C   0  0  0  0  0  0  0  0  0  0  0  0
   60.7344   26.4050   47.0973 O   0  0  0  0  0  0  0  0  0  0  0  0
   57.5383   30.8115   44.6637 S   0  0  0  0  0  0  0  0  0  0  0  0
   56.0734   30.5131   44.8279 O   0  0  0  0  0  0  0  0  0  0  0  0
   57.8328   30.8890   43.1914 O   0  0  0  0  0  0  0  0  0  0  0  0
   57.9057   32.3517   45.4037 N   0  0  0  0  0  0  0  0  0  0  0  0
   58.8688   32.1802   46.5021 C   0  0  0  0  0  0  0  0  0  0  0  0
   58.9705   33.4794   47.3216 C   0  0  0  0  0  0  0  0  0  0  0  0
   58.6479   34.7286   46.4825 C   0  0  0  0  0  0  0  0  0  0  0  0
   59.0744   34.5469   45.0249 C   0  0  0  0  0  0  0  0  0  0  0  0
   58.4153   33.2998   44.3884 C   0  0  0  0  0  0  0  0  0  0  0  0
  1  2  2  0
  2  3  1  0
  3  4  1  0
  4  5  2  0
  5  6  1  0
  6 11  1  0
 11 12  2  0
 11 13  2  0
 11 14  1  0
 14 15  1  0
 15 16  1  0
 16 17  1  0
 17 18  1  0
 18 19  1  0
  6  7  2  0
  7  8  1  0
  8  9  2  0
  9 10  1  0
  2 20  1  0
 20 21  1  0
 21 22  2  0
 22 23  1  0
 23 28  1  0
 28 29  2  0
 28 30  2  0
 28 31  1  0
 31 32  1  0
 32 33  1  0
 33 34  1  0
 34 35  1  0
 35 36  1  0
 23 24  2  0
 24 25  1  0
 25 26  2  0
 26 27  1  0
  9  4  1  0
 26 21  1  0
 19 14  1  0
 36 31  1  0
M  CHG 1  20  -1
M  CHG 1  27  -1
M  END
> <UniqueID>
28

> <SMILES>
O=C(Cc1cc(S(=O)(=O)N2CCOCC2)ccc1F)[N-]c1cc(S(=O)(=O)N2CCCCC2)ccc1[O-]

> <Energy>
83.7365773483881

> <Genealogy>
O=C(Cc1cc(S(=O)(=O)N2CCOCC2)ccc1F)[N-]c1cc(S(=O)(=O)N2CCCCC2)ccc1[O-] (protonated)
O=C(Cc1cc(S(=O)(=O)N2CCOCC2)ccc1F)[N-]c1cc(S(=O)(=O)N2CCCCC2)ccc1[O-] (3D coordinates assigned)
O=C(Cc1cc(S(=O)(=O)N2CCOCC2)ccc1F)[N-]c1cc(S(=O)(=O)N2CCCCC2)ccc1[O-] (nonaromatic ring conformer: 83.7365773483881 kcal/mol)

> <smiles>
O=C(Cc1cc(S(=O)(=O)N2CCOCC2)ccc1F)Nc1cc(S(=O)(=O)N2CCCCC2)ccc1O

> <score_type>
oracle

> <origin>
adg

> <m_score__min__energy>
-16.57

> <m_primary>
energy

> <minimizedAffinity>
-6.90002

> <minimizedRMSD>
2.00392

> <CNNscore>
0.7913440466

> <CNNaffinity>
7.3174996376

> <CNN_VS>
5.7906599045

> <CNNaffinity_variance>
0.1428323239

$$$$
39:0


 32 35  0  0  0  0  0  0  0  0999 V2000
   58.1064   28.9300   45.6664 C   0  0  0  0  0  0  0  0  0  0  0  0
   57.3561   28.8317   44.4836 C   0  0  0  0  0  0  0  0  0  0  0  0
   56.9730   29.9859   43.7966 C   0  0  0  0  0  0  0  0  0  0  0  0
   57.3228   31.2454   44.2878 C   0  0  0  0  0  0  0  0  0  0  0  0
   58.0594   31.3571   45.4740 C   0  0  0  0  0  0  0  0  0  0  0  0
   58.4683   30.1951   46.1499 C   0  0  0  0  0  0  0  0  0  0  0  0
   58.4035   32.9436   46.1655 S   0  0  0  0  0  0  0  0  0  0  0  0
   57.5923   33.1332   47.4178 O   0  0  0  0  0  0  0  0  0  0  0  0
   58.0023   34.0072   45.1799 O   0  0  0  0  0  0  0  0  0  0  0  0
   60.1076   33.1067   46.5355 N   0  0  0  0  0  0  0  0  0  0  0  0
   60.3626   34.2629   47.4282 C   0  0  0  0  0  0  0  0  0  0  0  0
   60.7528   33.8566   48.8571 C   0  0  0  0  0  0  0  0  0  0  0  0
   61.8980   32.9454   48.8041 N   0  0  0  0  0  0  0  0  0  0  0  0
   62.0044   31.9764   47.7102 C   0  0  0  0  0  0  0  0  0  0  0  0
   60.6493   31.8136   47.0107 C   0  0  0  0  0  0  0  0  0  0  0  0
   62.9113   32.9945   49.8169 C   0  0  0  0  0  0  0  0  0  0  0  0
   63.8068   31.9255   49.9727 C   0  0  0  0  0  0  0  0  0  0  0  0
   64.7535   31.9472   51.0011 C   0  0  0  0  0  0  0  0  0  0  0  0
   64.8300   33.0448   51.8651 C   0  0  0  0  0  0  0  0  0  0  0  0
   65.7425   33.0461   52.9106 O   0  0  0  0  0  0  0  0  0  0  0  0
   63.9678   34.1341   51.6829 C   0  0  0  0  0  0  0  0  0  0  0  0
   63.0000   34.1011   50.6755 C   0  0  0  0  0  0  0  0  0  0  0  0
   58.4951   27.7126   46.4136 C   0  0  0  0  0  0  0  0  0  0  0  0
   59.7009   27.5396   46.7350 O   0  0  0  0  0  0  0  0  0  0  0  0
   58.4677   23.5823   45.2921 C   0  0  0  0  0  0  0  0  0  0  0  0
   58.5468   24.7902   45.9128 N   0  0  0  0  0  0  0  0  0  0  0  0
   57.4390   25.5365   46.1908 C   0  0  0  0  0  0  0  0  0  0  0  0
   57.5410   26.7036   46.7632 N   0  0  0  0  0  0  0  0  0  0  0  0
   56.1750   25.0515   45.8212 C   0  0  0  0  0  0  0  0  0  0  0  0
   55.0292   25.8023   46.0631 O   0  0  0  0  0  0  0  0  0  0  0  0
   56.0717   23.8066   45.1949 C   0  0  0  0  0  0  0  0  0  0  0  0
   57.2226   23.0680   44.9271 C   0  0  0  0  0  0  0  0  0  0  0  0
 25 26  1  0
 26 27  1  0
 27 28  2  0
 28 23  1  0
 23 24  2  0
 23  1  1  0
  1  2  2  0
  2  3  1  0
  3  4  2  0
  4  5  1  0
  5  7  1  0
  7  8  2  0
  7  9  2  0
  7 10  1  0
 10 11  1  0
 11 12  1  0
 12 13  1  0
 13 16  1  0
 16 17  2  0
 17 18  1  0
 18 19  2  0
 19 20  1  0
 19 21  1  0
 21 22  2  0
 13 14  1  0
 14 15  1  0
  5  6  2  0
 27 29  1  0
 29 30  1  0
 29 31  2  0
 31 32  1  0
 32 25  2  0
  6  1  1  0
 15 10  1  0
 22 16  1  0
M  CHG 1  20  -1
M  CHG 1  26  -1
M  CHG 1  30  -1
M  END
> <UniqueID>
36

> <SMILES>
O=C(/N=c1\[n-]cccc1[O-])c1cccc(S(=O)(=O)N2CCN(c3ccc([O-])cc3)CC2)c1

> <Energy>
73.03989118700679

> <Genealogy>
O=C(N=c1[n-]cccc1[O-])c1cccc(S(=O)(=O)N2CCN(c3ccc([O-])cc3)CC2)c1 (protonated)
O=C(/N=c1\[n-]cccc1[O-])c1cccc(S(=O)(=O)N2CCN(c3ccc([O-])cc3)CC2)c1 (cis-trans isomerization)
O=C(/N=c1\[n-]cccc1[O-])c1cccc(S(=O)(=O)N2CCN(c3ccc([O-])cc3)CC2)c1 (3D coordinates assigned)
O=C(/N=c1\[n-]cccc1[O-])c1cccc(S(=O)(=O)N2CCN(c3ccc([O-])cc3)CC2)c1 (nonaromatic ring conformer: 73.03989118700679 kcal/mol)

> <smiles>
O=C(N=c1[nH]cccc1O)c1cccc(S(=O)(=O)N2CCN(c3ccc(O)cc3)CC2)c1

> <score_type>
oracle

> <origin>
adg

> <m_score__min__energy>
-15.94

> <m_primary>
energy

> <minimizedAffinity>
-9.17966

> <minimizedRMSD>
1.32372

> <CNNscore>
0.1978514940

> <CNNaffinity>
6.4052472115

> <CNN_VS>
1.2672877312

> <CNNaffinity_variance>
0.0241731498

$$$$
41:0


 29 31  0  0  0  0  0  0  0  0999 V2000
   58.8302   31.0611   50.5299 C   0  0  0  0  0  0  0  0  0  0  0  0
   57.9650   30.1648   51.1772 C   0  0  0  0  0  0  0  0  0  0  0  0
   57.1405   30.5997   52.2280 C   0  0  0  0  0  0  0  0  0  0  0  0
   57.2101   31.9394   52.6450 C   0  0  0  0  0  0  0  0  0  0  0  0
   58.0720   32.8331   52.0061 C   0  0  0  0  0  0  0  0  0  0  0  0
   58.8816   32.4001   50.9520 C   0  0  0  0  0  0  0  0  0  0  0  0
   59.7359   33.3061   50.3317 O   0  0  0  0  0  0  0  0  0  0  0  0
   59.8537   30.5080   49.2036 S   0  0  0  0  0  0  0  0  0  0  0  0
   60.1067   29.0355   49.3804 O   0  0  0  0  0  0  0  0  0  0  0  0
   61.1505   31.2670   49.2323 O   0  0  0  0  0  0  0  0  0  0  0  0
   59.0600   30.7833   47.6847 N   0  0  0  0  0  0  0  0  0  0  0  0
   58.2075   32.2152   45.8027 C   0  0  0  0  0  0  0  0  0  0  0  0
   58.3143   33.4246   45.0854 C   0  0  0  0  0  0  0  0  0  0  0  0
   59.2966   34.3618   45.4126 C   0  0  0  0  0  0  0  0  0  0  0  0
   60.1851   34.1062   46.4538 C   0  0  0  0  0  0  0  0  0  0  0  0
   60.0875   32.9177   47.1789 C   0  0  0  0  0  0  0  0  0  0  0  0
   59.0971   31.9729   46.8804 C   0  0  0  0  0  0  0  0  0  0  0  0
   57.3672   30.3604   44.3416 C   0  0  0  0  0  0  0  0  0  0  0  0
   57.2548   31.2466   45.4502 O   0  0  0  0  0  0  0  0  0  0  0  0
   56.2371   29.6405   52.9110 C   0  0  0  0  0  0  0  0  0  0  0  0
   56.5780   29.1629   54.0265 O   0  0  0  0  0  0  0  0  0  0  0  0
   54.9546   29.2799   52.3742 N   0  0  0  0  0  0  0  0  0  0  0  0
   53.8626   29.9814   52.4652 C   0  0  0  0  0  0  0  0  0  0  0  0
   53.4239   30.7168   51.3566 C   0  0  0  0  0  0  0  0  0  0  0  0
   52.2607   31.4839   51.4568 C   0  0  0  0  0  0  0  0  0  0  0  0
   51.5527   31.5187   52.6591 C   0  0  0  0  0  0  0  0  0  0  0  0
   50.3940   32.2779   52.7713 O   0  0  0  0  0  0  0  0  0  0  0  0
   52.0223   30.7825   53.7500 C   0  0  0  0  0  0  0  0  0  0  0  0
   53.1560   30.0422   53.6312 N   0  0  0  0  0  0  0  0  0  0  0  0
 18 19  1  0
 19 12  1  0
 12 13  2  0
 13 14  1  0
 14 15  2  0
 15 16  1  0
 16 17  2  0
 17 11  1  0
 11  8  1  0
  8  9  2  0
  8 10  2  0
  8  1  1  0
  1  2  2  0
  2  3  1  0
  3 20  1  0
 20 21  2  0
 20 22  1  0
 22 23  2  0
 23 24  1  0
 24 25  2  0
 25 26  1  0
 26 27  1  0
 26 28  2  0
 28 29  1  0
  3  4  2  0
  4  5  1  0
  5  6  2  0
  6  7  1  0
 17 12  1  0
  6  1  1  0
 29 23  1  0
M  CHG 1   7  -1
M  CHG 1  11  -1
M  CHG 1  27  -1
M  CHG 1  29  -1
M  END
> <UniqueID>
38

> <SMILES>
COc1ccccc1[N-]S(=O)(=O)c1cc(C(=O)N=c2ccc([O-])c[n-]2)ccc1[O-]

> <Energy>
61.56118250553481

> <Genealogy>
COc1ccccc1[N-]S(=O)(=O)c1cc(C(=O)N=c2ccc([O-])c[n-]2)ccc1[O-] (protonated)
COc1ccccc1[N-]S(=O)(=O)c1cc(C(=O)N=c2ccc([O-])c[n-]2)ccc1[O-] (3D coordinates assigned)
COc1ccccc1[N-]S(=O)(=O)c1cc(C(=O)N=c2ccc([O-])c[n-]2)ccc1[O-] (optimized conformer: 61.56118250553481 kcal/mol)

> <smiles>
COc1ccccc1NS(=O)(=O)c1cc(C(=O)N=c2ccc(O)c[nH]2)ccc1O

> <score_type>
oracle

> <origin>
adg

> <m_score__min__energy>
-15.34

> <m_primary>
energy

> <minimizedAffinity>
-8.18777

> <minimizedRMSD>
0.80726

> <CNNscore>
0.5539343953

> <CNNaffinity>
5.8432536125

> <CNN_VS>
3.2367792130

> <CNNaffinity_variance>
0.3250937760

$$$$
42:0


 33 36  0  0  0  0  0  0  0  0999 V2000
   60.8146   31.8029   50.4874 N   0  0  0  0  0  0  0  0  0  0  0  0
   60.7827   30.6165   51.0176 C   0  0  0  0  0  0  0  0  0  0  0  0
   60.5339   30.4790   52.3505 N   0  0  0  0  0  0  0  0  0  0  0  0
   60.4226   29.2636   52.9389 C   0  0  0  0  0  0  0  0  0  0  0  0
   60.1685   29.1557   54.3097 C   0  0  0  0  0  0  0  0  0  0  0  0
   60.0427   27.8898   54.8948 C   0  0  0  0  0  0  0  0  0  0  0  0
   60.1679   26.7368   54.1110 C   0  0  0  0  0  0  0  0  0  0  0  0
   60.4221   26.8427   52.7391 C   0  0  0  0  0  0  0  0  0  0  0  0
   60.5501   28.1067   52.1511 C   0  0  0  0  0  0  0  0  0  0  0  0
   60.8100   28.2315   50.8247 N   0  0  0  0  0  0  0  0  0  0  0  0
   60.9573   29.4453   50.2254 C   0  0  0  0  0  0  0  0  0  0  0  0
   61.2380   29.4571   48.9485 N   0  0  0  0  0  0  0  0  0  0  0  0
   60.3502   29.2648   47.8369 C   0  0  0  0  0  0  0  0  0  0  0  0
   59.4381   28.2045   47.8563 C   0  0  0  0  0  0  0  0  0  0  0  0
   58.5905   27.9856   46.7663 C   0  0  0  0  0  0  0  0  0  0  0  0
   58.6584   28.8192   45.6377 C   0  0  0  0  0  0  0  0  0  0  0  0
   59.6086   29.8523   45.6003 C   0  0  0  0  0  0  0  0  0  0  0  0
   60.4554   30.0675   46.6905 C   0  0  0  0  0  0  0  0  0  0  0  0
   57.7658   28.5673   44.4542 C   0  0  0  0  0  0  0  0  0  0  0  0
   56.8960   29.7561   44.2049 C   0  0  0  0  0  0  0  0  0  0  0  0
   57.2344   30.6228   43.3558 O   0  0  0  0  0  0  0  0  0  0  0  0
   55.6823   29.8825   44.8689 O   0  0  0  0  0  0  0  0  0  0  0  0
   59.4207   32.8124   50.2857 S   0  0  0  0  0  0  0  0  0  0  0  0
   59.5368   34.0126   51.1832 O   0  0  0  0  0  0  0  0  0  0  0  0
   58.1890   32.0418   50.6665 O   0  0  0  0  0  0  0  0  0  0  0  0
   57.1264   32.6394   45.6642 O   0  0  0  0  0  0  0  0  0  0  0  0
   58.1561   33.1417   46.4564 C   0  0  0  0  0  0  0  0  0  0  0  0
   59.1011   34.0075   45.8947 C   0  0  0  0  0  0  0  0  0  0  0  0
   60.1441   34.5110   46.6762 C   0  0  0  0  0  0  0  0  0  0  0  0
   60.2450   34.1548   48.0252 C   0  0  0  0  0  0  0  0  0  0  0  0
   59.2970   33.2951   48.5979 C   0  0  0  0  0  0  0  0  0  0  0  0
   58.2553   32.7867   47.8095 C   0  0  0  0  0  0  0  0  0  0  0  0
   57.0688   32.8826   44.7611 H   0  0  0  0  0  0  0  0  0  0  0  0
 26 27  1  0
 27 28  2  0
 28 29  1  0
 29 30  2  0
 30 31  1  0
 31 23  1  0
 23 24  2  0
 23 25  2  0
 23  1  1  0
  1  2  2  0
  2  3  1  0
  3  4  1  0
  4  5  2  0
  5  6  1  0
  6  7  2  0
  7  8  1  0
  8  9  2  0
  9 10  1  0
 10 11  1  0
 11 12  2  0
 12 13  1  0
 13 14  2  0
 14 15  1  0
 15 16  2  0
 16 19  1  0
 19 20  1  0
 20 21  2  0
 20 22  1  0
 16 17  1  0
 17 18  2  0
 31 32  2  0
 32 27  1  0
 11  2  1  0
 18 13  1  0
  9  4  1  0
 26 33  1  0
M  CHG 1   3  -1
M  CHG 1  10  -1
M  CHG 1  22  -1
M  END
> <UniqueID>
39

> <SMILES>
O=C([O-])Cc1ccc(/N=c2/[n-]c3ccccc3[n-]c2=NS(=O)(=O)c2cccc(O)c2)cc1

> <Energy>
68.73462437444876

> <Genealogy>
O=C([O-])Cc1ccc(N=c2[n-]c3ccccc3[n-]c2=NS(=O)(=O)c2cccc(O)c2)cc1 (protonated)
O=C([O-])Cc1ccc(/N=c2/[n-]c3ccccc3[n-]c2=NS(=O)(=O)c2cccc(O)c2)cc1 (cis-trans isomerization)
O=C([O-])Cc1ccc(/N=c2/[n-]c3ccccc3[n-]c2=NS(=O)(=O)c2cccc(O)c2)cc1 (3D coordinates assigned)
O=C([O-])Cc1ccc(/N=c2/[n-]c3ccccc3[n-]c2=NS(=O)(=O)c2cccc(O)c2)cc1 (optimized conformer: 68.73462437444876 kcal/mol)

> <smiles>
O=C(O)Cc1ccc(N=c2[nH]c3ccccc3[nH]c2=NS(=O)(=O)c2cccc(O)c2)cc1

> <score_type>
oracle

> <origin>
adg

> <m_score__min__energy>
-14.720000000000001

> <m_primary>
energy

> <minimizedAffinity>
-7.64783

> <minimizedRMSD>
1.22714

> <CNNscore>
0.4264057279

> <CNNaffinity>
6.4694018364

> <CNN_VS>
2.7585899830

> <CNNaffinity_variance>
0.1822157949

$$$$
4:0


 25 27  0  0  0  0  0  0  0  0999 V2000
   58.1036   28.9201   45.8463 C   0  0  0  0  0  0  0  0  0  0  0  0
   59.2523   28.7747   46.6438 C   0  0  0  0  0  0  0  0  0  0  0  0
   59.8563   27.5233   46.7843 C   0  0  0  0  0  0  0  0  0  0  0  0
   59.3308   26.4123   46.1213 C   0  0  0  0  0  0  0  0  0  0  0  0
   58.1995   26.5470   45.3000 C   0  0  0  0  0  0  0  0  0  0  0  0
   57.5945   27.8080   45.1638 C   0  0  0  0  0  0  0  0  0  0  0  0
   57.4624   30.1925   45.6747 N   0  0  0  0  0  0  0  0  0  0  0  0
   57.9002   31.2745   43.6729 O   0  0  0  0  0  0  0  0  0  0  0  0
   57.9799   31.3027   44.9308 C   0  0  0  0  0  0  0  0  0  0  0  0
   58.5535   32.4969   45.5954 C   0  0  0  0  0  0  0  0  0  0  0  0
   58.9303   32.4573   46.9504 C   0  0  0  0  0  0  0  0  0  0  0  0
   59.4665   33.5910   47.5693 C   0  0  0  0  0  0  0  0  0  0  0  0
   59.6219   34.7768   46.8452 C   0  0  0  0  0  0  0  0  0  0  0  0
   59.2364   34.8316   45.5043 C   0  0  0  0  0  0  0  0  0  0  0  0
   58.6994   33.7008   44.8822 C   0  0  0  0  0  0  0  0  0  0  0  0
   57.6117   25.3443   44.6107 C   0  0  0  0  0  0  0  0  0  0  0  0
   57.0893   24.3534   45.6276 C   0  0  0  0  0  0  0  0  0  0  0  0
   55.8931   24.5949   46.3278 C   0  0  0  0  0  0  0  0  0  0  0  0
   55.1364   25.7341   46.0751 O   0  0  0  0  0  0  0  0  0  0  0  0
   55.4616   23.7085   47.2617 N   0  0  0  0  0  0  0  0  0  0  0  0
   56.1672   22.5851   47.5424 C   0  0  0  0  0  0  0  0  0  0  0  0
   55.7471   21.7794   48.4125 O   0  0  0  0  0  0  0  0  0  0  0  0
   57.3279   22.3303   46.8874 N   0  0  0  0  0  0  0  0  0  0  0  0
   57.8044   23.1828   45.9441 C   0  0  0  0  0  0  0  0  0  0  0  0
   58.8867   22.9104   45.3591 O   0  0  0  0  0  0  0  0  0  0  0  0
  8  9  2  0
  9  7  1  0
  7  1  1  0
  1  2  2  0
  2  3  1  0
  3  4  2  0
  4  5  1  0
  5 16  1  0
 16 17  1  0
 17 18  2  0
 18 19  1  0
 18 20  1  0
 20 21  1  0
 21 22  2  0
 21 23  1  0
 23 24  1  0
 24 25  2  0
  5  6  2  0
  9 10  1  0
 10 11  2  0
 11 12  1  0
 12 13  2  0
 13 14  1  0
 14 15  2  0
  6  1  1  0
 15 10  1  0
 24 17  1  0
M  CHG 1   7  -1
M  CHG 1  19  -1
M  CHG 1  20  -1
M  CHG 1  23  -1
M  END
> <UniqueID>
4

> <SMILES>
O=C([N-]c1cccc(Cc2c([O-])[n-]c(=O)[n-]c2=O)c1)c1ccccc1

> <Energy>
47.503957691406846

> <Genealogy>
O=C([N-]c1cccc(Cc2c([O-])[n-]c(=O)[n-]c2=O)c1)c1ccccc1 (protonated)
O=C([N-]c1cccc(Cc2c([O-])[n-]c(=O)[n-]c2=O)c1)c1ccccc1 (3D coordinates assigned)
O=C([N-]c1cccc(Cc2c([O-])[n-]c(=O)[n-]c2=O)c1)c1ccccc1 (optimized conformer: 47.503957691406846 kcal/mol)

> <smiles>
O=C(Nc1cccc(Cc2c(O)[nH]c(=O)[nH]c2=O)c1)c1ccccc1

> <score_type>
oracle

> <origin>
adg

> <m_score__min__energy>
-17.239999999999998

> <m_primary>
energy

> <minimizedAffinity>
-8.89726

> <minimizedRMSD>
1.11073

> <CNNscore>
0.5271831751

> <CNNaffinity>
6.7232251167

> <CNN_VS>
3.5443711281

> <CNNaffinity_variance>
0.5050246119

$$$$
89:0


 25 27  0  0  0  0  0  0  0  0999 V2000
   58.3259   28.5361   45.4948 C   0  0  0  0  0  0  0  0  0  0  0  0
   56.1465   29.3669   44.9873 O   0  0  0  0  0  0  0  0  0  0  0  0
   57.3399   29.6541   45.2654 C   0  0  0  0  0  0  0  0  0  0  0  0
   57.7426   31.0306   45.2141 N   0  0  0  0  0  0  0  0  0  0  0  0
   58.8240   31.6443   45.9281 C   0  0  0  0  0  0  0  0  0  0  0  0
   58.9256   33.0392   45.9318 C   0  0  0  0  0  0  0  0  0  0  0  0
   59.9488   33.6733   46.6436 C   0  0  0  0  0  0  0  0  0  0  0  0
   60.8773   32.9176   47.3814 C   0  0  0  0  0  0  0  0  0  0  0  0
   60.7532   31.5179   47.4014 C   0  0  0  0  0  0  0  0  0  0  0  0
   59.7278   30.8879   46.6886 C   0  0  0  0  0  0  0  0  0  0  0  0
   61.9624   33.5817   48.1358 C   0  0  0  0  0  0  0  0  0  0  0  0
   61.7070   34.2390   49.1806 O   0  0  0  0  0  0  0  0  0  0  0  0
   63.2800   33.4910   47.7027 O   0  0  0  0  0  0  0  0  0  0  0  0
   57.9270   27.6277   46.6669 C   0  0  0  0  0  0  0  0  0  0  0  0
   57.7164   26.2475   46.2268 N   0  0  0  0  0  0  0  0  0  0  0  0
   56.5340   25.6453   45.9685 C   0  0  0  0  0  0  0  0  0  0  0  0
   55.2950   26.2633   46.0985 O   0  0  0  0  0  0  0  0  0  0  0  0
   56.7368   24.3427   45.5583 C   0  0  0  0  0  0  0  0  0  0  0  0
   58.0934   24.1377   45.5622 C   0  0  0  0  0  0  0  0  0  0  0  0
   58.6696   25.3218   45.9773 C   0  0  0  0  0  0  0  0  0  0  0  0
   60.0332   25.5459   46.1226 O   0  0  0  0  0  0  0  0  0  0  0  0
   58.7493   22.8524   45.1755 C   0  0  0  0  0  0  0  0  0  0  0  0
   57.7323   21.7988   44.7853 C   0  0  0  0  0  0  0  0  0  0  0  0
   56.3960   22.0003   44.7794 C   0  0  0  0  0  0  0  0  0  0  0  0
   55.7327   23.3100   45.1623 C   0  0  0  0  0  0  0  0  0  0  0  0
  2  3  2  0
  3  1  1  0
  1 14  1  0
 14 15  1  0
 15 16  1  0
 16 17  1  0
 16 18  2  0
 18 19  1  0
 19 20  2  0
 20 21  1  0
 19 22  1  0
 22 23  1  0
 23 24  2  0
 24 25  1  0
  3  4  1  0
  4  5  1  0
  5  6  2  0
  6  7  1  0
  7  8  2  0
  8 11  1  0
 11 12  2  0
 11 13  1  0
  8  9  1  0
  9 10  2  0
 20 15  1  0
 10  5  1  0
 25 18  1  0
M  CHG 1   4  -1
M  CHG 1  13  -1
M  CHG 1  17  -1
M  CHG 1  21  -1
M  END
> <UniqueID>
84

> <SMILES>
O=C(CCn1c([O-])c2c(c1[O-])CC=CC2)[N-]c1ccc(C(=O)[O-])cc1

> <Energy>
76.84458680513193

> <Genealogy>
O=C(CCn1c([O-])c2c(c1[O-])CC=CC2)[N-]c1ccc(C(=O)[O-])cc1 (protonated)
O=C(CCn1c([O-])c2c(c1[O-])CC=CC2)[N-]c1ccc(C(=O)[O-])cc1 (3D coordinates assigned)
O=C(CCn1c([O-])c2c(c1[O-])CC=CC2)[N-]c1ccc(C(=O)[O-])cc1 (nonaromatic ring conformer: 76.84458680513193 kcal/mol)

> <smiles>
O=C(CCn1c(O)c2c(c1O)CC=CC2)Nc1ccc(C(=O)O)cc1

> <score_type>
oracle

> <origin>
adg

> <m_score__min__energy>
-15.449999999999999

> <m_primary>
energy

> <minimizedAffinity>
-7.78623

> <minimizedRMSD>
1.67493

> <CNNscore>
0.4436228573

> <CNNaffinity>
6.2932295799

> <CNN_VS>
2.7918205261

> <CNNaffinity_variance>
0.2468424588

$$$$
7:0


 30 32  0  0  0  0  0  0  0  0999 V2000
   59.9398   30.1717   46.6919 N   0  0  0  0  0  0  0  0  0  0  0  0
   59.9557   28.8786   46.8157 C   0  0  0  0  0  0  0  0  0  0  0  0
   60.2068   28.2218   47.9702 N   0  0  0  0  0  0  0  0  0  0  0  0
   60.1599   26.8987   47.8361 N   0  0  0  0  0  0  0  0  0  0  0  0
   59.8600   26.5006   46.5789 C   0  0  0  0  0  0  0  0  0  0  0  0
   59.6582   27.8189   45.5446 S   0  0  0  0  0  0  0  0  0  0  0  0
   58.7712   31.0061   46.7030 C   0  0  0  0  0  0  0  0  0  0  0  0
   57.8659   30.8738   45.8368 O   0  0  0  0  0  0  0  0  0  0  0  0
   58.5995   32.0108   47.7962 C   0  0  0  0  0  0  0  0  0  0  0  0
   58.2073   33.2974   47.2228 N   0  0  0  0  0  0  0  0  0  0  0  0
   59.5813   34.1379   46.5694 S   0  0  0  0  0  0  0  0  0  0  0  0
   59.3281   35.6204   46.5764 O   0  0  0  0  0  0  0  0  0  0  0  0
   59.8051   33.6985   45.1492 O   0  0  0  0  0  0  0  0  0  0  0  0
   64.5100   32.8703   49.8858 C   0  0  0  0  0  0  0  0  0  0  0  0
   63.3021   33.2027   49.0594 C   0  0  0  0  0  0  0  0  0  0  0  0
   62.1628   33.7594   49.6606 C   0  0  0  0  0  0  0  0  0  0  0  0
   61.0275   34.0379   48.8944 C   0  0  0  0  0  0  0  0  0  0  0  0
   61.0122   33.7531   47.5235 C   0  0  0  0  0  0  0  0  0  0  0  0
   62.1437   33.1878   46.9220 C   0  0  0  0  0  0  0  0  0  0  0  0
   63.2803   32.9054   47.6886 C   0  0  0  0  0  0  0  0  0  0  0  0
   59.8061   25.0675   46.1600 C   0  0  0  0  0  0  0  0  0  0  0  0
   58.4154   24.7105   45.7174 C   0  0  0  0  0  0  0  0  0  0  0  0
   58.1896   23.5555   44.9537 C   0  0  0  0  0  0  0  0  0  0  0  0
   56.8905   23.2066   44.5706 C   0  0  0  0  0  0  0  0  0  0  0  0
   55.8041   23.9989   44.9534 C   0  0  0  0  0  0  0  0  0  0  0  0
   54.5198   23.6293   44.5577 O   0  0  0  0  0  0  0  0  0  0  0  0
   56.0225   25.1485   45.7306 C   0  0  0  0  0  0  0  0  0  0  0  0
   54.9541   25.9432   46.1306 O   0  0  0  0  0  0  0  0  0  0  0  0
   57.3219   25.4989   46.1111 C   0  0  0  0  0  0  0  0  0  0  0  0
   54.3927   22.8591   44.0393 H   0  0  0  0  0  0  0  0  0  0  0  0
 14 15  1  0
 15 16  2  0
 16 17  1  0
 17 18  2  0
 18 11  1  0
 11 12  2  0
 11 13  2  0
 11 10  1  0
 10  9  1  0
  9  7  1  0
  7  8  2  0
  7  1  1  0
  1  2  2  0
  2  3  1  0
  3  4  1  0
  4  5  2  0
  5 21  1  0
 21 22  1  0
 22 23  2  0
 23 24  1  0
 24 25  2  0
 25 26  1  0
 25 27  1  0
 27 28  1  0
 27 29  2  0
  5  6  1  0
 18 19  1  0
 19 20  2  0
 20 15  1  0
  6  2  1  0
 29 22  1  0
 26 30  1  0
M  CHG 1   3  -1
M  CHG 1  10  -1
M  CHG 1  28  -1
M  END
> <UniqueID>
6

> <SMILES>
Cc1ccc(S(=O)(=O)[N-]CC(=O)N=c2[n-]nc(Cc3ccc(O)c([O-])c3)s2)cc1

> <Energy>
78.80261177454234

> <Genealogy>
Cc1ccc(S(=O)(=O)[N-]CC(=O)N=c2[n-]nc(Cc3ccc(O)c([O-])c3)s2)cc1 (protonated)
Cc1ccc(S(=O)(=O)[N-]CC(=O)N=c2[n-]nc(Cc3ccc(O)c([O-])c3)s2)cc1 (3D coordinates assigned)
Cc1ccc(S(=O)(=O)[N-]CC(=O)N=c2[n-]nc(Cc3ccc(O)c([O-])c3)s2)cc1 (optimized conformer: 78.80261177454234 kcal/mol)

> <smiles>
Cc1ccc(S(=O)(=O)NCC(=O)N=c2[nH]nc(Cc3ccc(O)c(O)c3)s2)cc1

> <score_type>
oracle

> <origin>
adg

> <m_score__min__energy>
-14.31

> <m_primary>
energy

> <minimizedAffinity>
-7.65842

> <minimizedRMSD>
0.97325

> <CNNscore>
0.5473962426

> <CNNaffinity>
6.8586463928

> <CNN_VS>
3.7543971539

> <CNNaffinity_variance>
0.1733877510

$$$$
30:0


 27 29  0  0  0  0  0  0  0  0999 V2000
   58.3435   26.1711   47.0345 C   0  0  0  0  0  0  0  0  0  0  0  0
   57.9739   24.8358   47.2935 C   0  0  0  0  0  0  0  0  0  0  0  0
   56.7364   24.3412   46.8482 C   0  0  0  0  0  0  0  0  0  0  0  0
   56.3121   23.0265   47.1040 C   0  0  0  0  0  0  0  0  0  0  0  0
   57.0367   22.2261   47.7544 O   0  0  0  0  0  0  0  0  0  0  0  0
   55.1039   22.6077   46.6469 N   0  0  0  0  0  0  0  0  0  0  0  0
   54.2886   23.4370   45.9420 C   0  0  0  0  0  0  0  0  0  0  0  0
   53.1427   23.0151   45.5157 N   0  0  0  0  0  0  0  0  0  0  0  0
   54.6752   24.7121   45.6843 N   0  0  0  0  0  0  0  0  0  0  0  0
   55.8738   25.1825   46.1192 C   0  0  0  0  0  0  0  0  0  0  0  0
   56.2407   26.5050   45.8584 C   0  0  0  0  0  0  0  0  0  0  0  0
   57.4494   27.0158   46.3448 C   0  0  0  0  0  0  0  0  0  0  0  0
   52.8587   22.0907   45.7006 H   0  0  0  0  0  0  0  0  0  0  0  0
   60.7548   26.7027   46.6099 C   0  0  0  0  0  0  0  0  0  0  0  0
   59.5912   26.6762   47.4308 O   0  0  0  0  0  0  0  0  0  0  0  0
   57.7457   28.3960   46.1057 N   0  0  0  0  0  0  0  0  0  0  0  0
   57.3368   29.2591   44.6542 S   0  0  0  0  0  0  0  0  0  0  0  0
   55.9024   29.6927   44.7586 O   0  0  0  0  0  0  0  0  0  0  0  0
   57.4733   28.3697   43.4508 O   0  0  0  0  0  0  0  0  0  0  0  0
   58.3337   30.7338   44.4566 C   0  0  0  0  0  0  0  0  0  0  0  0
   58.7147   31.3385   45.7809 C   0  0  0  0  0  0  0  0  0  0  0  0
   59.6655   30.7089   46.6017 C   0  0  0  0  0  0  0  0  0  0  0  0
   59.9901   31.2505   47.8491 C   0  0  0  0  0  0  0  0  0  0  0  0
   59.3722   32.4275   48.2846 C   0  0  0  0  0  0  0  0  0  0  0  0
   59.7544   33.0868   49.8640 Cl  0  0  0  0  0  0  0  0  0  0  0  0
   58.4402   33.0705   47.4655 C   0  0  0  0  0  0  0  0  0  0  0  0
   58.1151   32.5319   46.2178 C   0  0  0  0  0  0  0  0  0  0  0  0
 14 15  1  0
 15  1  1  0
  1  2  2  0
  2  3  1  0
  3  4  1  0
  4  5  2  0
  4  6  1  0
  6  7  1  0
  7  8  2  0
  7  9  1  0
  9 10  1  0
 10 11  1  0
 11 12  2  0
 12 16  1  0
 16 17  1  0
 17 18  2  0
 17 19  2  0
 17 20  1  0
 20 21  1  0
 21 22  2  0
 22 23  1  0
 23 24  2  0
 24 25  1  0
 24 26  1  0
 26 27  2  0
 12  1  1  0
 27 21  1  0
 10  3  2  0
  8 13  1  0
M  CHG 1   6  -1
M  CHG 1   9  -1
M  CHG 1  16  -1
M  END
> <UniqueID>
24

> <SMILES>
COc1cc2c(=O)[n-]c(=N)[n-]c2cc1[N-]S(=O)(=O)Cc1ccc(Cl)cc1

> <Energy>
43.4040679285481

> <Genealogy>
COc1cc2c(=O)[n-]c(=N)[n-]c2cc1[N-]S(=O)(=O)Cc1ccc(Cl)cc1 (protonated)
COc1cc2c(=O)[n-]c(=N)[n-]c2cc1[N-]S(=O)(=O)Cc1ccc(Cl)cc1 (3D coordinates assigned)
COc1cc2c(=O)[n-]c(=N)[n-]c2cc1[N-]S(=O)(=O)Cc1ccc(Cl)cc1 (optimized conformer: 43.4040679285481 kcal/mol)

> <smiles>
COc1cc2c(=O)[nH]c(=N)[nH]c2cc1NS(=O)(=O)Cc1ccc(Cl)cc1

> <score_type>
oracle

> <origin>
adg

> <m_score__min__energy>
-14.199999999999999

> <m_primary>
energy

> <minimizedAffinity>
-6.55998

> <minimizedRMSD>
1.10961

> <CNNscore>
0.1845330745

> <CNNaffinity>
5.9789023399

> <CNN_VS>
1.1033052206

> <CNNaffinity_variance>
0.0115633355

$$$$
34:0


 30 32  0  0  0  0  0  0  0  0999 V2000
   60.0539   29.6187   47.1112 C   0  0  0  0  0  0  0  0  0  0  0  0
   61.0461   29.3138   46.1712 C   0  0  0  0  0  0  0  0  0  0  0  0
   60.7156   28.6736   44.9745 C   0  0  0  0  0  0  0  0  0  0  0  0
   59.3866   28.3495   44.6974 C   0  0  0  0  0  0  0  0  0  0  0  0
   58.3730   28.6858   45.6083 C   0  0  0  0  0  0  0  0  0  0  0  0
   58.7119   29.3147   46.8181 C   0  0  0  0  0  0  0  0  0  0  0  0
   60.4369   30.2887   48.3212 N   0  0  0  0  0  0  0  0  0  0  0  0
   58.7330   29.6879   49.8155 O   0  0  0  0  0  0  0  0  0  0  0  0
   59.6099   30.5231   49.4673 C   0  0  0  0  0  0  0  0  0  0  0  0
   59.7976   31.7738   50.2598 C   0  0  0  0  0  0  0  0  0  0  0  0
   59.0139   32.7970   49.6858 O   0  0  0  0  0  0  0  0  0  0  0  0
   59.8196   33.6535   48.9008 C   0  0  0  0  0  0  0  0  0  0  0  0
   59.3004   33.7123   47.4885 C   0  0  0  0  0  0  0  0  0  0  0  0
   59.9305   34.5359   46.5424 C   0  0  0  0  0  0  0  0  0  0  0  0
   59.4390   34.6122   45.2355 C   0  0  0  0  0  0  0  0  0  0  0  0
   58.3161   33.8684   44.8665 C   0  0  0  0  0  0  0  0  0  0  0  0
   57.6805   33.0488   45.8034 C   0  0  0  0  0  0  0  0  0  0  0  0
   58.1680   32.9712   47.1124 C   0  0  0  0  0  0  0  0  0  0  0  0
   56.9449   28.3273   45.3138 C   0  0  0  0  0  0  0  0  0  0  0  0
   56.5037   27.3050   46.2538 N   0  0  0  0  0  0  0  0  0  0  0  0
   57.0245   25.9732   46.3810 C   0  0  0  0  0  0  0  0  0  0  0  0
   58.0450   25.8062   47.1005 O   0  0  0  0  0  0  0  0  0  0  0  0
   56.4255   24.7959   45.6980 C   0  0  0  0  0  0  0  0  0  0  0  0
   57.2429   23.8519   45.0560 C   0  0  0  0  0  0  0  0  0  0  0  0
   56.6447   22.7535   44.4370 C   0  0  0  0  0  0  0  0  0  0  0  0
   57.3521   21.8949   43.8484 O   0  0  0  0  0  0  0  0  0  0  0  0
   55.2944   22.6117   44.4655 N   0  0  0  0  0  0  0  0  0  0  0  0
   54.5132   23.5254   45.0961 C   0  0  0  0  0  0  0  0  0  0  0  0
   53.2642   23.3770   45.1169 O   0  0  0  0  0  0  0  0  0  0  0  0
   55.0795   24.6007   45.7042 N   0  0  0  0  0  0  0  0  0  0  0  0
  8  9  2  0
  9 10  1  0
 10 11  1  0
 11 12  1  0
 12 13  1  0
 13 14  2  0
 14 15  1  0
 15 16  2  0
 16 17  1  0
 17 18  2  0
  9  7  1  0
  7  1  1  0
  1  2  2  0
  2  3  1  0
  3  4  2  0
  4  5  1  0
  5 19  1  0
 19 20  1  0
 20 21  1  0
 21 22  2  0
 21 23  1  0
 23 24  2  0
 24 25  1  0
 25 26  2  0
 25 27  1  0
 27 28  1  0
 28 29  2  0
 28 30  1  0
  5  6  2  0
 18 13  1  0
  6  1  1  0
 30 23  1  0
M  CHG 1   7  -1
M  CHG 1  20  -1
M  CHG 1  27  -1
M  CHG 1  30  -1
M  END
> <UniqueID>
27

> <SMILES>
O=C(COCc1ccccc1)[N-]c1cccc(C[N-]C(=O)c2cc(=O)[n-]c(=O)[n-]2)c1

> <Energy>
54.11352202583366

> <Genealogy>
O=C(COCc1ccccc1)[N-]c1cccc(C[N-]C(=O)c2cc(=O)[n-]c(=O)[n-]2)c1 (protonated)
O=C(COCc1ccccc1)[N-]c1cccc(C[N-]C(=O)c2cc(=O)[n-]c(=O)[n-]2)c1 (3D coordinates assigned)
O=C(COCc1ccccc1)[N-]c1cccc(C[N-]C(=O)c2cc(=O)[n-]c(=O)[n-]2)c1 (optimized conformer: 54.11352202583366 kcal/mol)

> <smiles>
O=C(COCc1ccccc1)Nc1cccc(CNC(=O)c2cc(=O)[nH]c(=O)[nH]2)c1

> <score_type>
oracle

> <origin>
adg

> <m_score__min__energy>
-15.06

> <m_primary>
energy

> <minimizedAffinity>
-6.76210

> <minimizedRMSD>
0.79321

> <CNNscore>
0.5344544649

> <CNNaffinity>
6.6110634804

> <CNN_VS>
3.5333123207

> <CNNaffinity_variance>
0.1493345946

$$$$
53:0


 26 28  0  0  0  0  0  0  0  0999 V2000
   60.6243   30.2330   47.1465 C   0  0  0  0  0  0  0  0  0  0  0  0
   61.6071   30.9980   47.3420 O   0  0  0  0  0  0  0  0  0  0  0  0
   59.5903   30.0982   48.1340 N   0  0  0  0  0  0  0  0  0  0  0  0
   59.2629   30.9439   49.0704 C   0  0  0  0  0  0  0  0  0  0  0  0
   59.0727   30.6685   50.4145 C   0  0  0  0  0  0  0  0  0  0  0  0
   58.6273   31.8711   50.9319 C   0  0  0  0  0  0  0  0  0  0  0  0
   58.1828   32.1017   52.3365 C   0  0  0  0  0  0  0  0  0  0  0  0
   58.5331   32.7954   49.9552 N   0  0  0  0  0  0  0  0  0  0  0  0
   58.9365   32.2318   48.8266 N   0  0  0  0  0  0  0  0  0  0  0  0
   58.9440   32.9191   47.5619 C   0  0  0  0  0  0  0  0  0  0  0  0
   59.8033   34.0137   47.3649 C   0  0  0  0  0  0  0  0  0  0  0  0
   59.8262   34.6846   46.1379 C   0  0  0  0  0  0  0  0  0  0  0  0
   59.0012   34.2623   45.0941 C   0  0  0  0  0  0  0  0  0  0  0  0
   58.1556   33.1662   45.2717 C   0  0  0  0  0  0  0  0  0  0  0  0
   58.1271   32.4932   46.4981 C   0  0  0  0  0  0  0  0  0  0  0  0
   60.5078   29.5580   45.8385 C   0  0  0  0  0  0  0  0  0  0  0  0
   59.3856   29.0113   45.3397 C   0  0  0  0  0  0  0  0  0  0  0  0
   58.8390   27.6913   45.7147 C   0  0  0  0  0  0  0  0  0  0  0  0
   59.7226   26.6859   46.1343 C   0  0  0  0  0  0  0  0  0  0  0  0
   59.2377   25.4322   46.5151 C   0  0  0  0  0  0  0  0  0  0  0  0
   57.8637   25.1735   46.4911 C   0  0  0  0  0  0  0  0  0  0  0  0
   57.3910   23.9206   46.8592 O   0  0  0  0  0  0  0  0  0  0  0  0
   56.9698   26.1771   46.1002 C   0  0  0  0  0  0  0  0  0  0  0  0
   55.6040   25.9223   46.0849 O   0  0  0  0  0  0  0  0  0  0  0  0
   57.4506   27.4406   45.7313 C   0  0  0  0  0  0  0  0  0  0  0  0
   56.5484   28.4441   45.3891 O   0  0  0  0  0  0  0  0  0  0  0  0
 16  1  1  0
  1  2  2  0
  1  3  1  0
  3  4  2  0
  4  5  1  0
  5  6  2  0
  6  7  1  0
  6  8  1  0
  8  9  1  0
  9 10  1  0
 10 11  2  0
 11 12  1  0
 12 13  2  0
 13 14  1  0
 14 15  2  0
 16 17  2  0
 17 18  1  0
 18 19  2  0
 19 20  1  0
 20 21  2  0
 21 22  1  0
 21 23  1  0
 23 24  1  0
 23 25  2  0
 25 26  1  0
  9  4  1  0
 15 10  1  0
 25 18  1  0
M  CHG 1   8  -1
M  CHG 1  22  -1
M  CHG 1  24  -1
M  CHG 1  26  -1
M  END
> <UniqueID>
45

> <SMILES>
Cc1c/c(=N\C(=O)C=Cc2ccc([O-])c([O-])c2[O-])n(-c2ccccc2)[n-]1

> <Energy>
84.16971468740545

> <Genealogy>
Cc1cc(=NC(=O)C=Cc2ccc([O-])c([O-])c2[O-])n(-c2ccccc2)[n-]1 (protonated)
Cc1c/c(=N\C(=O)C=Cc2ccc([O-])c([O-])c2[O-])n(-c2ccccc2)[n-]1 (cis-trans isomerization)
Cc1c/c(=N\C(=O)C=Cc2ccc([O-])c([O-])c2[O-])n(-c2ccccc2)[n-]1 (3D coordinates assigned)
Cc1c/c(=N\C(=O)C=Cc2ccc([O-])c([O-])c2[O-])n(-c2ccccc2)[n-]1 (optimized conformer: 84.16971468740545 kcal/mol)

> <smiles>
Cc1cc(=NC(=O)C=Cc2ccc(O)c(O)c2O)n(-c2ccccc2)[nH]1

> <score_type>
oracle

> <origin>
adg

> <m_score__min__energy>
-17.699999999999999

> <m_primary>
energy

> <minimizedAffinity>
-8.07859

> <minimizedRMSD>
0.84945

> <CNNscore>
0.6996092200

> <CNNaffinity>
6.4748592377

> <CNN_VS>
4.5298709869

> <CNNaffinity_variance>
0.0181988478

$$$$
82:0


 33 36  0  0  0  0  0  0  0  0999 V2000
   57.0174   29.8049   45.1738 C   0  0  0  0  0  0  0  0  0  0  0  0
   55.9628   29.2272   44.7970 O   0  0  0  0  0  0  0  0  0  0  0  0
   58.0536   32.1172   45.1244 C   0  0  0  0  0  0  0  0  0  0  0  0
   58.4234   33.2477   44.3657 C   0  0  0  0  0  0  0  0  0  0  0  0
   58.2899   33.2537   42.9769 C   0  0  0  0  0  0  0  0  0  0  0  0
   57.7864   32.1339   42.3180 C   0  0  0  0  0  0  0  0  0  0  0  0
   57.3959   31.0108   43.0484 C   0  0  0  0  0  0  0  0  0  0  0  0
   57.5050   30.9933   44.4485 C   0  0  0  0  0  0  0  0  0  0  0  0
   58.2923   32.0745   46.5509 N   0  0  0  0  0  0  0  0  0  0  0  0
   58.3279   31.1909   46.9835 H   0  0  0  0  0  0  0  0  0  0  0  0
   58.4844   33.2546   47.3949 C   0  0  0  0  0  0  0  0  0  0  0  0
   63.2320   32.0241   48.5408 C   0  0  0  0  0  0  0  0  0  0  0  0
   61.9739   32.7523   48.4339 N   0  0  0  0  0  0  0  0  0  0  0  0
   61.7035   33.8697   49.0901 N   0  0  0  0  0  0  0  0  0  0  0  0
   60.4314   34.2217   48.7993 C   0  0  0  0  0  0  0  0  0  0  0  0
   59.8831   33.2887   47.9356 C   0  0  0  0  0  0  0  0  0  0  0  0
   60.8869   32.3660   47.7452 C   0  0  0  0  0  0  0  0  0  0  0  0
   60.8054   31.2080   46.9797 O   0  0  0  0  0  0  0  0  0  0  0  0
   57.7847   29.2691   46.2617 N   0  0  0  0  0  0  0  0  0  0  0  0
   58.4174   27.9820   46.2684 C   0  0  0  0  0  0  0  0  0  0  0  0
   59.8148   27.9126   46.2698 C   0  0  0  0  0  0  0  0  0  0  0  0
   60.4589   26.6746   46.3157 C   0  0  0  0  0  0  0  0  0  0  0  0
   59.7134   25.4945   46.3914 C   0  0  0  0  0  0  0  0  0  0  0  0
   58.3118   25.5468   46.4336 C   0  0  0  0  0  0  0  0  0  0  0  0
   57.6695   26.7935   46.3534 C   0  0  0  0  0  0  0  0  0  0  0  0
   57.5200   24.2984   46.5306 C   0  0  0  0  0  0  0  0  0  0  0  0
   57.1184   23.9135   47.6637 O   0  0  0  0  0  0  0  0  0  0  0  0
   57.2059   23.5133   45.3641 N   0  0  0  0  0  0  0  0  0  0  0  0
   57.0255   22.0675   45.4844 C   0  0  0  0  0  0  0  0  0  0  0  0
   57.1533   21.4193   44.0960 C   0  0  0  0  0  0  0  0  0  0  0  0
   56.2662   21.9394   43.1114 O   0  0  0  0  0  0  0  0  0  0  0  0
   55.8477   23.2809   43.3341 C   0  0  0  0  0  0  0  0  0  0  0  0
   56.8676   24.1495   44.0869 C   0  0  0  0  0  0  0  0  0  0  0  0
 12 13  1  0
 13 14  1  0
 14 15  2  0
 15 16  1  0
 16 11  1  0
 11  9  1  0
  9  3  1  0
  3  4  2  0
  4  5  1  0
  5  6  2  0
  6  7  1  0
  7  8  2  0
  8  1  1  0
  1  2  2  0
  1 19  1  0
 19 20  1  0
 20 21  2  0
 21 22  1  0
 22 23  2  0
 23 24  1  0
 24 26  1  0
 26 27  2  0
 26 28  1  0
 28 29  1  0
 29 30  1  0
 30 31  1  0
 31 32  1  0
 32 33  1  0
 24 25  2  0
 16 17  2  0
 17 18  1  0
 17 13  1  0
  8  3  1  0
 25 20  1  0
 33 28  1  0
  9 10  1  0
M  CHG 1  18  -1
M  CHG 1  19  -1
M  END
> <UniqueID>
73

> <SMILES>
Cn1ncc(CNc2ccccc2C(=O)[N-]c2cccc(C(=O)N3CCOCC3)c2)c1[O-]

> <Energy>
110.10342537180857

> <Genealogy>
Cn1ncc(CNc2ccccc2C(=O)[N-]c2cccc(C(=O)N3CCOCC3)c2)c1[O-] (protonated)
Cn1ncc(CNc2ccccc2C(=O)[N-]c2cccc(C(=O)N3CCOCC3)c2)c1[O-] (3D coordinates assigned)
Cn1ncc(CNc2ccccc2C(=O)[N-]c2cccc(C(=O)N3CCOCC3)c2)c1[O-] (nonaromatic ring conformer: 110.10342537180857 kcal/mol)

> <smiles>
Cn1ncc(CNc2ccccc2C(=O)Nc2cccc(C(=O)N3CCOCC3)c2)c1O

> <score_type>
oracle

> <origin>
adg

> <m_score__min__energy>
-15.44

> <m_primary>
energy

> <minimizedAffinity>
-7.78289

> <minimizedRMSD>
0.75148

> <CNNscore>
0.4254193306

> <CNNaffinity>
6.6401634216

> <CNN_VS>
2.8248538971

> <CNNaffinity_variance>
0.0003992045

$$$$
18:0


 37 40  0  0  0  0  0  0  0  0999 V2000
   56.6310   29.4948   44.8962 N   0  0  0  0  0  0  0  0  0  0  0  0
   57.0284   28.4772   45.5998 C   0  0  0  0  0  0  0  0  0  0  0  0
   58.2714   28.4874   46.1419 N   0  0  0  0  0  0  0  0  0  0  0  0
   58.7037   27.4430   46.8976 C   0  0  0  0  0  0  0  0  0  0  0  0
   59.8850   27.4509   47.4404 N   0  0  0  0  0  0  0  0  0  0  0  0
   57.8842   26.3807   47.1010 N   0  0  0  0  0  0  0  0  0  0  0  0
   56.6384   26.3571   46.5552 C   0  0  0  0  0  0  0  0  0  0  0  0
   55.8463   25.3443   46.7397 N   0  0  0  0  0  0  0  0  0  0  0  0
   56.2149   27.4072   45.8098 N   0  0  0  0  0  0  0  0  0  0  0  0
   57.4515   30.1981   43.9114 C   0  0  0  0  0  0  0  0  0  0  0  0
   58.8030   33.9467   45.5583 C   0  0  0  0  0  0  0  0  0  0  0  0
   58.3920   33.8810   44.2235 C   0  0  0  0  0  0  0  0  0  0  0  0
   57.9634   32.6642   43.6813 C   0  0  0  0  0  0  0  0  0  0  0  0
   57.9448   31.5043   44.4749 C   0  0  0  0  0  0  0  0  0  0  0  0
   58.3547   31.5808   45.8167 C   0  0  0  0  0  0  0  0  0  0  0  0
   58.7838   32.7980   46.3537 C   0  0  0  0  0  0  0  0  0  0  0  0
   60.3153   28.3758   48.4907 C   0  0  0  0  0  0  0  0  0  0  0  0
   60.8330   29.6567   47.8906 C   0  0  0  0  0  0  0  0  0  0  0  0
   61.0281   29.7539   46.5040 C   0  0  0  0  0  0  0  0  0  0  0  0
   56.9962   21.8253   43.3173 C   0  0  0  0  0  0  0  0  0  0  0  0
   57.3979   20.7743   44.1416 C   0  0  0  0  0  0  0  0  0  0  0  0
   57.1490   20.8267   45.5143 C   0  0  0  0  0  0  0  0  0  0  0  0
   56.4950   21.9323   46.0733 C   0  0  0  0  0  0  0  0  0  0  0  0
   56.2021   21.9439   47.8093 Cl  0  0  0  0  0  0  0  0  0  0  0  0
   54.9872   24.7551   45.7118 C   0  0  0  0  0  0  0  0  0  0  0  0
   55.8145   24.0464   44.6663 C   0  0  0  0  0  0  0  0  0  0  0  0
   60.1732   28.0528   52.5866 C   0  0  0  0  0  0  0  0  0  0  0  0
   60.9597   29.7475   50.5062 C   0  0  0  0  0  0  0  0  0  0  0  0
   61.1401   30.1484   51.8363 C   0  0  0  0  0  0  0  0  0  0  0  0
   60.7488   29.2932   52.8753 C   0  0  0  0  0  0  0  0  0  0  0  0
   56.2742   24.7602   43.5458 C   0  0  0  0  0  0  0  0  0  0  0  0
   61.8895   31.6995   52.1979 S   0  0  0  0  0  0  0  0  0  0  0  0
   62.0551   31.8509   53.6845 O   0  0  0  0  0  0  0  0  0  0  0  0
   61.0198   32.8151   51.6912 O   0  0  0  0  0  0  0  0  0  0  0  0
   63.4392   31.7778   51.4360 N   0  0  0  0  0  0  0  0  0  0  0  0
   64.0269   31.0193   51.7821 H   0  0  0  0  0  0  0  0  0  0  0  0
   63.8785   32.6731   51.6500 H   0  0  0  0  0  0  0  0  0  0  0  0
 11 12  2  0
 12 13  1  0
 13 14  2  0
 14 10  1  0
 10  1  1  0
  1  2  2  0
  2  3  1  0
  3  4  1  0
  4  5  2  0
  5 17  1  0
 17 18  1  0
 18 19  2  0
 19 20  1  0
 20 21  2  0
 21 22  1  0
 22 23  2  0
 23 24  1  0
  4  6  1  0
  6  7  1  0
  7  8  2  0
  8 25  1  0
 25 26  1  0
 26 27  2  0
 27 28  1  0
 28 29  2  0
 29 32  1  0
 32 33  2  0
 32 34  2  0
 32 35  1  0
 29 30  1  0
 30 31  2  0
  7  9  1  0
 14 15  1  0
 15 16  2  0
 16 11  1  0
  9  2  1  0
 23 18  1  0
 31 26  1  0
 35 36  1  0
 35 37  1  0
M  CHG 1   3  -1
M  CHG 1   6  -1
M  CHG 1   9  -1
M  END
> <UniqueID>
18

> <SMILES>
NS(=O)(=O)c1ccc(C/N=c2\[n-]c(=NCc3ccccc3)[n-]/c(=N/Cc3ccccc3Cl)[n-]2)cc1

> <Energy>
57.323283065261826

> <Genealogy>
NS(=O)(=O)c1ccc(CN=c2[n-]c(=NCc3ccccc3)[n-]c(=NCc3ccccc3Cl)[n-]2)cc1 (protonated)
NS(=O)(=O)c1ccc(C/N=c2\[n-]c(=NCc3ccccc3)[n-]/c(=N/Cc3ccccc3Cl)[n-]2)cc1 (cis-trans isomerization)
NS(=O)(=O)c1ccc(C/N=c2\[n-]c(=NCc3ccccc3)[n-]/c(=N/Cc3ccccc3Cl)[n-]2)cc1 (3D coordinates assigned)
NS(=O)(=O)c1ccc(C/N=c2\[n-]c(=NCc3ccccc3)[n-]/c(=N/Cc3ccccc3Cl)[n-]2)cc1 (optimized conformer: 57.323283065261826 kcal/mol)

> <smiles>
NS(=O)(=O)c1ccc(CN=c2[nH]c(=NCc3ccccc3)[nH]c(=NCc3ccccc3Cl)[nH]2)cc1

> <score_type>
oracle

> <origin>
adg

> <m_score__min__energy>
-15.470000000000001

> <m_primary>
energy

> <minimizedAffinity>
-4.06770

> <minimizedRMSD>
2.37530

> <CNNscore>
0.1325964630

> <CNNaffinity>
6.2558836937

> <CNN_VS>
0.8295080662

> <CNNaffinity_variance>
0.1829472780

$$$$
21:0


 29 31  0  0  0  0  0  0  0  0999 V2000
   60.4544   28.1823   46.4117 C   0  0  0  0  0  0  0  0  0  0  0  0
   59.9096   29.5889   46.3948 C   0  0  0  0  0  0  0  0  0  0  0  0
   60.6738   30.6169   46.9730 C   0  0  0  0  0  0  0  0  0  0  0  0
   60.2267   31.9474   46.9557 C   0  0  0  0  0  0  0  0  0  0  0  0
   59.0001   32.2492   46.3438 C   0  0  0  0  0  0  0  0  0  0  0  0
   58.2199   31.2356   45.7872 C   0  0  0  0  0  0  0  0  0  0  0  0
   58.6482   29.8988   45.8225 C   0  0  0  0  0  0  0  0  0  0  0  0
   57.5917   28.6364   45.1633 S   0  0  0  0  0  0  0  0  0  0  0  0
   56.2159   29.2079   44.9483 O   0  0  0  0  0  0  0  0  0  0  0  0
   58.1367   28.1570   43.8445 O   0  0  0  0  0  0  0  0  0  0  0  0
   57.5387   27.3199   46.2928 N   0  0  0  0  0  0  0  0  0  0  0  0
   57.4284   25.9207   45.9905 C   0  0  0  0  0  0  0  0  0  0  0  0
   58.6178   25.1897   45.8449 C   0  0  0  0  0  0  0  0  0  0  0  0
   58.5898   23.8203   45.5724 C   0  0  0  0  0  0  0  0  0  0  0  0
   57.3710   23.1533   45.4725 C   0  0  0  0  0  0  0  0  0  0  0  0
   56.1770   23.8576   45.6370 C   0  0  0  0  0  0  0  0  0  0  0  0
   56.1947   25.2347   45.8948 C   0  0  0  0  0  0  0  0  0  0  0  0
   54.9855   25.8922   46.0748 O   0  0  0  0  0  0  0  0  0  0  0  0
   61.0109   33.0092   47.6176 C   0  0  0  0  0  0  0  0  0  0  0  0
   62.1255   33.3518   47.1383 O   0  0  0  0  0  0  0  0  0  0  0  0
   60.4998   33.6485   48.7954 N   0  0  0  0  0  0  0  0  0  0  0  0
   59.8699   32.9829   49.9340 C   0  0  0  0  0  0  0  0  0  0  0  0
   60.4286   33.4348   51.2980 C   0  0  0  0  0  0  0  0  0  0  0  0
   61.5799   32.6155   51.7394 N   0  0  0  0  0  0  0  0  0  0  0  0
   62.8346   33.4059   51.7223 C   0  0  0  0  0  0  0  0  0  0  0  0
   63.6156   33.2133   50.4071 C   0  0  0  0  0  0  0  0  0  0  0  0
   63.9368   31.8619   50.0932 O   0  0  0  0  0  0  0  0  0  0  0  0
   63.1528   30.9120   50.7973 C   0  0  0  0  0  0  0  0  0  0  0  0
   61.6903   31.3558   50.9615 C   0  0  0  0  0  0  0  0  0  0  0  0
  1  2  1  0
  2  3  2  0
  3  4  1  0
  4 19  1  0
 19 20  2  0
 19 21  1  0
 21 22  1  0
 22 23  1  0
 23 24  1  0
 24 25  1  0
 25 26  1  0
 26 27  1  0
 27 28  1  0
 28 29  1  0
  4  5  2  0
  5  6  1  0
  6  7  2  0
  7  8  1  0
  8  9  2  0
  8 10  2  0
  8 11  1  0
 11 12  1  0
 12 13  2  0
 13 14  1  0
 14 15  2  0
 15 16  1  0
 16 17  2  0
 17 18  1  0
  7  2  1  0
 17 12  1  0
 29 24  1  0
M  CHG 1  11  -1
M  CHG 1  18  -1
M  CHG 1  21  -1
M  END
> <UniqueID>
21

> <SMILES>
Cc1cc(C(=O)[N-]CCN2CCOCC2)ccc1S(=O)(=O)[N-]c1ccccc1[O-]

> <Energy>
78.69933231603382

> <Genealogy>
Cc1cc(C(=O)[N-]CCN2CCOCC2)ccc1S(=O)(=O)[N-]c1ccccc1[O-] (protonated)
Cc1cc(C(=O)[N-]CCN2CCOCC2)ccc1S(=O)(=O)[N-]c1ccccc1[O-] (3D coordinates assigned)
Cc1cc(C(=O)[N-]CCN2CCOCC2)ccc1S(=O)(=O)[N-]c1ccccc1[O-] (nonaromatic ring conformer: 78.69933231603382 kcal/mol)

> <smiles>
Cc1cc(C(=O)NCCN2CCOCC2)ccc1S(=O)(=O)Nc1ccccc1O

> <score_type>
oracle

> <origin>
adg

> <m_score__min__energy>
-15.880000000000001

> <m_primary>
energy

> <minimizedAffinity>
-7.22691

> <minimizedRMSD>
1.96148

> <CNNscore>
0.1071093231

> <CNNaffinity>
6.0920047760

> <CNN_VS>
0.6525105238

> <CNNaffinity_variance>
0.2188590169

$$$$
30:0


 34 37  0  0  0  0  0  0  0  0999 V2000
   60.1701   30.9339   48.7757 C   0  0  0  0  0  0  0  0  0  0  0  0
   59.1008   31.6686   49.3109 C   0  0  0  0  0  0  0  0  0  0  0  0
   58.6778   31.4447   50.6228 C   0  0  0  0  0  0  0  0  0  0  0  0
   59.3126   30.4724   51.4133 C   0  0  0  0  0  0  0  0  0  0  0  0
   60.4174   29.7820   50.9015 C   0  0  0  0  0  0  0  0  0  0  0  0
   60.8357   29.9994   49.5854 C   0  0  0  0  0  0  0  0  0  0  0  0
   60.5243   31.0702   47.3205 C   0  0  0  0  0  0  0  0  0  0  0  0
   58.3706   32.5918   45.7580 C   0  0  0  0  0  0  0  0  0  0  0  0
   58.4439   31.2613   45.8457 C   0  0  0  0  0  0  0  0  0  0  0  0
   57.5102   30.4569   45.2862 N   0  0  0  0  0  0  0  0  0  0  0  0
   57.9061   29.2040   45.5908 C   0  0  0  0  0  0  0  0  0  0  0  0
   57.2046   28.1179   45.2264 C   0  0  0  0  0  0  0  0  0  0  0  0
   59.0650   29.2802   46.3442 C   0  0  0  0  0  0  0  0  0  0  0  0
   59.6835   28.3182   46.8762 O   0  0  0  0  0  0  0  0  0  0  0  0
   59.4198   30.5707   46.4914 N   0  0  0  0  0  0  0  0  0  0  0  0
   57.5028   26.7360   45.6567 C   0  0  0  0  0  0  0  0  0  0  0  0
   58.8019   26.2130   45.5391 C   0  0  0  0  0  0  0  0  0  0  0  0
   59.0669   24.8900   45.9040 C   0  0  0  0  0  0  0  0  0  0  0  0
   58.0338   24.0713   46.3643 C   0  0  0  0  0  0  0  0  0  0  0  0
   56.7329   24.5709   46.4544 C   0  0  0  0  0  0  0  0  0  0  0  0
   56.4608   25.8954   46.0935 C   0  0  0  0  0  0  0  0  0  0  0  0
   55.1559   26.3702   46.1750 O   0  0  0  0  0  0  0  0  0  0  0  0
   58.8233   30.1408   52.7198 N   0  0  0  0  0  0  0  0  0  0  0  0
   57.6342   30.6823   53.3135 C   0  0  0  0  0  0  0  0  0  0  0  0
   57.7253   31.7401   53.9915 O   0  0  0  0  0  0  0  0  0  0  0  0
   56.3150   30.0129   53.1798 C   0  0  0  0  0  0  0  0  0  0  0  0
   56.0494   28.8334   53.8931 C   0  0  0  0  0  0  0  0  0  0  0  0
   54.7956   28.2241   53.8056 C   0  0  0  0  0  0  0  0  0  0  0  0
   53.7947   28.7837   53.0089 C   0  0  0  0  0  0  0  0  0  0  0  0
   54.0432   29.9549   52.2735 C   0  0  0  0  0  0  0  0  0  0  0  0
   55.3152   30.5487   52.3470 C   0  0  0  0  0  0  0  0  0  0  0  0
   52.9826   30.5678   51.4408 C   0  0  0  0  0  0  0  0  0  0  0  0
   52.5509   29.9765   50.4160 O   0  0  0  0  0  0  0  0  0  0  0  0
   52.4408   31.8015   51.7881 O   0  0  0  0  0  0  0  0  0  0  0  0
  8  9  2  0
  9 10  1  0
 10 11  1  0
 11 12  2  0
 12 16  1  0
 16 17  2  0
 17 18  1  0
 18 19  2  0
 19 20  1  0
 20 21  2  0
 21 22  1  0
 11 13  1  0
 13 14  2  0
 13 15  1  0
 15  7  1  0
  7  1  1  0
  1  2  2  0
  2  3  1  0
  3  4  2  0
  4 23  1  0
 23 24  1  0
 24 25  2  0
 24 26  1  0
 26 27  2  0
 27 28  1  0
 28 29  2  0
 29 30  1  0
 30 32  1  0
 32 33  2  0
 32 34  1  0
 30 31  2  0
  4  5  1  0
  5  6  2  0
 15  9  1  0
  6  1  1  0
 21 16  1  0
 31 26  1  0
M  CHG 1  10  -1
M  CHG 1  22  -1
M  CHG 1  23  -1
M  CHG 1  34  -1
M  END
> <UniqueID>
29

> <SMILES>
C=c1[n-]/c(=C/c2ccccc2[O-])c(=O)n1Cc1ccc([N-]C(=O)c2cccc(C(=O)[O-])c2)cc1

> <Energy>
102.19152665295182

> <Genealogy>
C=c1[n-]c(=Cc2ccccc2[O-])c(=O)n1Cc1ccc([N-]C(=O)c2cccc(C(=O)[O-])c2)cc1 (protonated)
C=c1[n-]/c(=C/c2ccccc2[O-])c(=O)n1Cc1ccc([N-]C(=O)c2cccc(C(=O)[O-])c2)cc1 (cis-trans isomerization)
C=c1[n-]/c(=C/c2ccccc2[O-])c(=O)n1Cc1ccc([N-]C(=O)c2cccc(C(=O)[O-])c2)cc1 (3D coordinates assigned)
C=c1[n-]/c(=C/c2ccccc2[O-])c(=O)n1Cc1ccc([N-]C(=O)c2cccc(C(=O)[O-])c2)cc1 (optimized conformer: 102.19152665295182 kcal/mol)

> <smiles>
C=c1[nH]c(=Cc2ccccc2O)c(=O)n1Cc1ccc(NC(=O)c2cccc(C(=O)O)c2)cc1

> <score_type>
oracle

> <origin>
adg

> <m_score__min__energy>
-19.66

> <m_primary>
energy

> <minimizedAffinity>
-7.81821

> <minimizedRMSD>
1.57593

> <CNNscore>
0.1444110274

> <CNNaffinity>
6.1153664589

> <CNN_VS>
0.8831263781

> <CNNaffinity_variance>
0.1568323523

$$$$
40:0


 30 32  0  0  0  0  0  0  0  0999 V2000
   58.7301   28.8286   46.1867 C   0  0  0  0  0  0  0  0  0  0  0  0
   58.1561   29.8688   45.4316 C   0  0  0  0  0  0  0  0  0  0  0  0
   57.5968   29.6164   44.1780 C   0  0  0  0  0  0  0  0  0  0  0  0
   57.6048   28.3250   43.6552 C   0  0  0  0  0  0  0  0  0  0  0  0
   58.1826   27.2823   44.3783 C   0  0  0  0  0  0  0  0  0  0  0  0
   58.7540   27.5162   45.6417 C   0  0  0  0  0  0  0  0  0  0  0  0
   59.2443   29.1364   47.5443 C   0  0  0  0  0  0  0  0  0  0  0  0
   58.4999   28.9877   48.5511 O   0  0  0  0  0  0  0  0  0  0  0  0
   60.5601   29.6855   47.6971 N   0  0  0  0  0  0  0  0  0  0  0  0
   60.3459   33.2758   46.6784 C   0  0  0  0  0  0  0  0  0  0  0  0
   61.6411   33.7198   46.9669 C   0  0  0  0  0  0  0  0  0  0  0  0
   62.5903   32.8390   47.4902 C   0  0  0  0  0  0  0  0  0  0  0  0
   62.2497   31.5076   47.7399 C   0  0  0  0  0  0  0  0  0  0  0  0
   60.9448   31.0504   47.4782 C   0  0  0  0  0  0  0  0  0  0  0  0
   60.0054   31.9331   46.9296 C   0  0  0  0  0  0  0  0  0  0  0  0
   59.4063   34.2108   46.1298 N   0  0  0  0  0  0  0  0  0  0  0  0
   58.2982   32.8518   43.8741 C   0  0  0  0  0  0  0  0  0  0  0  0
   57.9235   33.7891   45.3387 S   0  0  0  0  0  0  0  0  0  0  0  0
   57.1813   35.0359   44.9463 O   0  0  0  0  0  0  0  0  0  0  0  0
   57.0747   32.9526   46.2528 O   0  0  0  0  0  0  0  0  0  0  0  0
   59.4339   26.3872   46.3208 C   0  0  0  0  0  0  0  0  0  0  0  0
   60.6880   26.4094   46.4361 O   0  0  0  0  0  0  0  0  0  0  0  0
   58.7210   25.2227   46.7717 N   0  0  0  0  0  0  0  0  0  0  0  0
   58.0436   24.3887   46.0357 C   0  0  0  0  0  0  0  0  0  0  0  0
   58.6414   23.3003   45.4706 N   0  0  0  0  0  0  0  0  0  0  0  0
   57.9572   22.4267   44.6850 C   0  0  0  0  0  0  0  0  0  0  0  0
   56.6004   22.6335   44.4295 C   0  0  0  0  0  0  0  0  0  0  0  0
   55.9632   23.7436   44.9845 C   0  0  0  0  0  0  0  0  0  0  0  0
   56.6844   24.6307   45.7895 C   0  0  0  0  0  0  0  0  0  0  0  0
   56.0481   25.7390   46.3374 O   0  0  0  0  0  0  0  0  0  0  0  0
 17 18  1  0
 18 19  2  0
 18 20  2  0
 18 16  1  0
 16 10  1  0
 10 11  2  0
 11 12  1  0
 12 13  2  0
 13 14  1  0
 14  9  1  0
  9  7  1  0
  7  8  2  0
  7  1  1  0
  1  2  2  0
  2  3  1  0
  3  4  2  0
  4  5  1  0
  5  6  2  0
  6 21  1  0
 21 22  2  0
 21 23  1  0
 23 24  2  0
 24 25  1  0
 25 26  1  0
 26 27  2  0
 27 28  1  0
 28 29  2  0
 29 30  1  0
 14 15  2  0
 15 10  1  0
  6  1  1  0
 29 24  1  0
M  CHG 1   9  -1
M  CHG 1  16  -1
M  CHG 1  25  -1
M  CHG 1  30  -1
M  END
> <UniqueID>
38

> <SMILES>
CS(=O)(=O)[N-]c1cccc([N-]C(=O)c2ccccc2C(=O)N=c2[n-]cccc2[O-])c1

> <Energy>
63.98307681873597

> <Genealogy>
CS(=O)(=O)[N-]c1cccc([N-]C(=O)c2ccccc2C(=O)N=c2[n-]cccc2[O-])c1 (protonated)
CS(=O)(=O)[N-]c1cccc([N-]C(=O)c2ccccc2C(=O)N=c2[n-]cccc2[O-])c1 (3D coordinates assigned)
CS(=O)(=O)[N-]c1cccc([N-]C(=O)c2ccccc2C(=O)N=c2[n-]cccc2[O-])c1 (optimized conformer: 63.98307681873597 kcal/mol)

> <smiles>
CS(=O)(=O)Nc1cccc(NC(=O)c2ccccc2C(=O)N=c2[nH]cccc2O)c1

> <score_type>
oracle

> <origin>
adg

> <m_score__min__energy>
-16.219999999999999

> <m_primary>
energy

> <minimizedAffinity>
-7.79530

> <minimizedRMSD>
1.27184

> <CNNscore>
0.2117776722

> <CNNaffinity>
6.2523493767

> <CNN_VS>
1.3241080046

> <CNNaffinity_variance>
0.1261755377

$$$$
68:0


 25 27  0  0  0  0  0  0  0  0999 V2000
   59.8135   29.8633   47.7320 N   0  0  0  0  0  0  0  0  0  0  0  0
   60.6527   29.7207   46.5109 C   0  0  0  0  0  0  0  0  0  0  0  0
   59.9859   28.8672   45.4253 C   0  0  0  0  0  0  0  0  0  0  0  0
   59.7078   27.4385   45.9426 C   0  0  0  0  0  0  0  0  0  0  0  0
   59.3757   27.4225   47.4569 C   0  0  0  0  0  0  0  0  0  0  0  0
   58.8244   28.7750   47.9231 C   0  0  0  0  0  0  0  0  0  0  0  0
   58.6035   26.7946   45.1286 C   0  0  0  0  0  0  0  0  0  0  0  0
   58.2787   27.3150   44.0261 O   0  0  0  0  0  0  0  0  0  0  0  0
   57.9170   25.5519   45.5728 C   0  0  0  0  0  0  0  0  0  0  0  0
   58.5594   24.3026   45.4899 C   0  0  0  0  0  0  0  0  0  0  0  0
   57.9021   23.1422   45.8968 C   0  0  0  0  0  0  0  0  0  0  0  0
   56.5973   23.2312   46.3843 C   0  0  0  0  0  0  0  0  0  0  0  0
   55.9876   22.1939   46.7551 O   0  0  0  0  0  0  0  0  0  0  0  0
   55.9820   24.4392   46.4605 N   0  0  0  0  0  0  0  0  0  0  0  0
   56.5984   25.5880   46.0722 C   0  0  0  0  0  0  0  0  0  0  0  0
   55.9126   26.7923   46.1917 O   0  0  0  0  0  0  0  0  0  0  0  0
   59.1514   31.1808   47.8016 C   0  0  0  0  0  0  0  0  0  0  0  0
   57.8863   31.6578   44.3967 N   0  0  0  0  0  0  0  0  0  0  0  0
   58.0299   30.8962   45.4988 C   0  0  0  0  0  0  0  0  0  0  0  0
   58.7325   31.6273   46.4321 C   0  0  0  0  0  0  0  0  0  0  0  0
   58.9712   32.8477   45.8241 C   0  0  0  0  0  0  0  0  0  0  0  0
   59.7453   33.9909   46.3988 C   0  0  0  0  0  0  0  0  0  0  0  0
   58.4485   32.8428   44.5818 N   0  0  0  0  0  0  0  0  0  0  0  0
   56.3674   30.0054   43.4230 C   0  0  0  0  0  0  0  0  0  0  0  0
   57.1620   31.2832   43.1866 C   0  0  0  0  0  0  0  0  0  0  0  0
 24 25  1  0
 25 18  1  0
 18 19  1  0
 19 20  2  0
 20 17  1  0
 17  1  1  0
  1  2  1  0
  2  3  1  0
  3  4  1  0
  4  7  1  0
  7  8  2  0
  7  9  1  0
  9 10  1  0
 10 11  2  0
 11 12  1  0
 12 13  2  0
 12 14  1  0
 14 15  1  0
 15 16  1  0
  4  5  1  0
  5  6  1  0
 20 21  1  0
 21 22  1  0
 21 23  2  0
 23 18  1  0
  6  1  1  0
 15  9  2  0
M  CHG 1  14  -1
M  CHG 1  16  -1
M  END
> <UniqueID>
63

> <SMILES>
CCn1cc(CN2CCC(C(=O)c3ccc(=O)[n-]c3[O-])CC2)c(C)n1

> <Energy>
85.02015293270765

> <Genealogy>
CCn1cc(CN2CCC(C(=O)c3ccc(=O)[n-]c3[O-])CC2)c(C)n1 (protonated)
CCn1cc(CN2CCC(C(=O)c3ccc(=O)[n-]c3[O-])CC2)c(C)n1 (3D coordinates assigned)
CCn1cc(CN2CCC(C(=O)c3ccc(=O)[n-]c3[O-])CC2)c(C)n1 (nonaromatic ring conformer: 85.02015293270765 kcal/mol)

> <smiles>
CCn1cc(CN2CCC(C(=O)c3ccc(=O)[nH]c3O)CC2)c(C)n1

> <score_type>
oracle

> <origin>
adg

> <m_score__min__energy>
-14.09

> <m_primary>
energy

> <minimizedAffinity>
-7.05796

> <minimizedRMSD>
1.27218

> <CNNscore>
0.1373001188

> <CNNaffinity>
5.9900078773

> <CNN_VS>
0.8224288225

> <CNNaffinity_variance>
0.0310244542

$$$$
72:0


 26 28  0  0  0  0  0  0  0  0999 V2000
   60.0879   31.6968   49.4046 C   0  0  0  0  0  0  0  0  0  0  0  0
   58.8886   30.8517   49.8766 C   0  0  0  0  0  0  0  0  0  0  0  0
   58.7055   29.6015   49.0064 C   0  0  0  0  0  0  0  0  0  0  0  0
   59.9932   28.9522   48.7074 N   0  0  0  0  0  0  0  0  0  0  0  0
   60.0352   27.7971   47.8472 C   0  0  0  0  0  0  0  0  0  0  0  0
   60.8346   26.8546   48.1095 O   0  0  0  0  0  0  0  0  0  0  0  0
   61.2002   29.3515   49.4467 C   0  0  0  0  0  0  0  0  0  0  0  0
   61.4092   30.8767   49.4038 C   0  0  0  0  0  0  0  0  0  0  0  0
   58.4493   32.5903   46.0330 C   0  0  0  0  0  0  0  0  0  0  0  0
   59.1881   33.7347   45.6808 C   0  0  0  0  0  0  0  0  0  0  0  0
   60.2113   34.1928   46.5149 C   0  0  0  0  0  0  0  0  0  0  0  0
   60.5063   33.5219   47.7021 C   0  0  0  0  0  0  0  0  0  0  0  0
   59.7906   32.3678   48.0672 C   0  0  0  0  0  0  0  0  0  0  0  0
   58.7559   31.9195   47.2211 C   0  0  0  0  0  0  0  0  0  0  0  0
   57.3964   32.0893   45.2510 O   0  0  0  0  0  0  0  0  0  0  0  0
   58.6545   30.1394   44.5291 C   0  0  0  0  0  0  0  0  0  0  0  0
   57.5116   31.1110   44.2151 C   0  0  0  0  0  0  0  0  0  0  0  0
   56.1892   30.3540   44.1109 C   0  0  0  0  0  0  0  0  0  0  0  0
   59.1100   27.6710   46.6648 C   0  0  0  0  0  0  0  0  0  0  0  0
   58.1351   26.5463   46.8488 C   0  0  0  0  0  0  0  0  0  0  0  0
   58.3774   25.4466   47.5833 N   0  0  0  0  0  0  0  0  0  0  0  0
   57.2526   24.7162   47.4233 C   0  0  0  0  0  0  0  0  0  0  0  0
   57.0897   23.5945   47.9721 O   0  0  0  0  0  0  0  0  0  0  0  0
   56.3161   25.2778   46.6271 N   0  0  0  0  0  0  0  0  0  0  0  0
   56.8950   26.4356   46.2678 C   0  0  0  0  0  0  0  0  0  0  0  0
   56.3050   27.3655   45.4225 O   0  0  0  0  0  0  0  0  0  0  0  0
 16 17  1  0
 17 18  1  0
 17 15  1  0
 15  9  1  0
  9 10  2  0
 10 11  1  0
 11 12  2  0
 12 13  1  0
 13  1  1  0
  1  2  1  0
  2  3  1  0
  3  4  1  0
  4  5  1  0
  5  6  2  0
  5 19  1  0
 19 20  1  0
 20 21  1  0
 21 22  1  0
 22 23  2  0
 22 24  1  0
 24 25  1  0
 25 26  1  0
  4  7  1  0
  7  8  1  0
 13 14  2  0
 14  9  1  0
  8  1  1  0
 25 20  2  0
M  CHG 1  21  -1
M  CHG 1  24  -1
M  CHG 1  26  -1
M  END
> <UniqueID>
67

> <SMILES>
CC(C)Oc1cccc(C2CCN(C(=O)Cc3[n-]c(=O)[n-]c3[O-])CC2)c1

> <Energy>
77.72406901441246

> <Genealogy>
CC(C)Oc1cccc(C2CCN(C(=O)Cc3[n-]c(=O)[n-]c3[O-])CC2)c1 (protonated)
CC(C)Oc1cccc(C2CCN(C(=O)Cc3[n-]c(=O)[n-]c3[O-])CC2)c1 (3D coordinates assigned)
CC(C)Oc1cccc(C2CCN(C(=O)Cc3[n-]c(=O)[n-]c3[O-])CC2)c1 (nonaromatic ring conformer: 77.72406901441246 kcal/mol)

> <smiles>
CC(C)Oc1cccc(C2CCN(C(=O)Cc3[nH]c(=O)[nH]c3O)CC2)c1

> <score_type>
oracle

> <origin>
adg

> <m_score__min__energy>
-16

> <m_primary>
energy

> <minimizedAffinity>
-6.13811

> <minimizedRMSD>
0.95921

> <CNNscore>
0.3576452732

> <CNNaffinity>
6.3015727997

> <CNN_VS>
2.2537276745

> <CNNaffinity_variance>
0.0120407268

$$$$
28:0


 31 33  0  0  0  0  0  0  0  0999 V2000
   59.6970   31.9942   49.0703 C   0  0  0  0  0  0  0  0  0  0  0  0
   59.2621   32.6296   50.2405 C   0  0  0  0  0  0  0  0  0  0  0  0
   58.6779   31.8837   51.2685 C   0  0  0  0  0  0  0  0  0  0  0  0
   58.5375   30.4954   51.1462 C   0  0  0  0  0  0  0  0  0  0  0  0
   58.9567   29.8624   49.9627 C   0  0  0  0  0  0  0  0  0  0  0  0
   59.5349   30.6102   48.9329 C   0  0  0  0  0  0  0  0  0  0  0  0
   60.4077   32.9263   47.7532 S   0  0  0  0  0  0  0  0  0  0  0  0
   60.9631   31.9969   46.7111 O   0  0  0  0  0  0  0  0  0  0  0  0
   61.5328   33.7455   48.3186 O   0  0  0  0  0  0  0  0  0  0  0  0
   58.3956   32.1690   45.1747 N   0  0  0  0  0  0  0  0  0  0  0  0
   58.6861   33.5021   44.6213 C   0  0  0  0  0  0  0  0  0  0  0  0
   59.5207   34.3133   45.6289 C   0  0  0  0  0  0  0  0  0  0  0  0
   59.2126   33.9937   47.0406 N   0  0  0  0  0  0  0  0  0  0  0  0
   57.8355   33.5022   47.2327 C   0  0  0  0  0  0  0  0  0  0  0  0
   57.5043   32.2791   46.3495 C   0  0  0  0  0  0  0  0  0  0  0  0
   57.8112   31.2771   44.1553 C   0  0  0  0  0  0  0  0  0  0  0  0
   55.9046   29.7110   44.7089 N   0  0  0  0  0  0  0  0  0  0  0  0
   57.2897   30.0301   44.7990 C   0  0  0  0  0  0  0  0  0  0  0  0
   58.0693   29.2711   45.4352 O   0  0  0  0  0  0  0  0  0  0  0  0
   55.5597   28.8915   45.1315 H   0  0  0  0  0  0  0  0  0  0  0  0
   57.9042   29.7737   52.2125 N   0  0  0  0  0  0  0  0  0  0  0  0
   56.6291   30.0621   52.8003 C   0  0  0  0  0  0  0  0  0  0  0  0
   56.5436   30.8153   53.8056 O   0  0  0  0  0  0  0  0  0  0  0  0
   55.4319   29.4955   52.2568 N   0  0  0  0  0  0  0  0  0  0  0  0
   54.0950   29.9557   52.4997 C   0  0  0  0  0  0  0  0  0  0  0  0
   53.4608   29.5869   53.6932 C   0  0  0  0  0  0  0  0  0  0  0  0
   52.1613   30.0238   53.9679 C   0  0  0  0  0  0  0  0  0  0  0  0
   51.4933   30.8490   53.0600 C   0  0  0  0  0  0  0  0  0  0  0  0
   52.1266   31.2439   51.8789 C   0  0  0  0  0  0  0  0  0  0  0  0
   51.4682   32.0772   50.9832 O   0  0  0  0  0  0  0  0  0  0  0  0
   53.4274   30.8083   51.5995 C   0  0  0  0  0  0  0  0  0  0  0  0
 17 18  1  0
 18 19  2  0
 18 16  1  0
 16 10  1  0
 10 11  1  0
 11 12  1  0
 12 13  1  0
 13  7  1  0
  7  8  2  0
  7  9  2  0
  7  1  1  0
  1  2  2  0
  2  3  1  0
  3  4  2  0
  4 21  1  0
 21 22  1  0
 22 23  2  0
 22 24  1  0
 24 25  1  0
 25 26  2  0
 26 27  1  0
 27 28  2  0
 28 29  1  0
 29 30  1  0
 29 31  2  0
  4  5  1  0
  5  6  2  0
 13 14  1  0
 14 15  1  0
 15 10  1  0
  6  1  1  0
 31 25  1  0
 17 20  1  0
M  CHG 1  17  -1
M  CHG 1  21  -1
M  CHG 1  24  -1
M  CHG 1  30  -1
M  END
> <UniqueID>
24

> <SMILES>
[NH-]C(=O)CN1CCN(S(=O)(=O)c2ccc([N-]C(=O)[N-]c3cccc([O-])c3)cc2)CC1

> <Energy>
66.5722113640819

> <Genealogy>
[NH-]C(=O)CN1CCN(S(=O)(=O)c2ccc([N-]C(=O)[N-]c3cccc([O-])c3)cc2)CC1 (protonated)
[NH-]C(=O)CN1CCN(S(=O)(=O)c2ccc([N-]C(=O)[N-]c3cccc([O-])c3)cc2)CC1 (3D coordinates assigned)
[NH-]C(=O)CN1CCN(S(=O)(=O)c2ccc([N-]C(=O)[N-]c3cccc([O-])c3)cc2)CC1 (nonaromatic ring conformer: 66.5722113640819 kcal/mol)

> <smiles>
NC(=O)CN1CCN(S(=O)(=O)c2ccc(NC(=O)Nc3cccc(O)c3)cc2)CC1

> <score_type>
oracle

> <origin>
adg

> <m_score__min__energy>
-17.760000000000002

> <m_primary>
energy

> <minimizedAffinity>
-7.10415

> <minimizedRMSD>
0.70002

> <CNNscore>
0.5083488226

> <CNNaffinity>
6.7218289375

> <CNN_VS>
3.4170339108

> <CNNaffinity_variance>
0.0040569664

$$$$
72:0


 38 42  0  0  0  0  0  0  0  0999 V2000
   58.8948   31.7193   46.3944 C   0  0  0  0  0  0  0  0  0  0  0  0
   59.8599   30.7298   46.1654 C   0  0  0  0  0  0  0  0  0  0  0  0
   60.9413   30.5771   47.0379 C   0  0  0  0  0  0  0  0  0  0  0  0
   61.0679   31.4124   48.1509 C   0  0  0  0  0  0  0  0  0  0  0  0
   60.1246   32.4221   48.3792 C   0  0  0  0  0  0  0  0  0  0  0  0
   59.0567   32.5907   47.4886 C   0  0  0  0  0  0  0  0  0  0  0  0
   60.2075   33.4314   49.8210 S   0  0  0  0  0  0  0  0  0  0  0  0
   59.6033   34.7715   49.5090 O   0  0  0  0  0  0  0  0  0  0  0  0
   61.6389   33.6245   50.2442 O   0  0  0  0  0  0  0  0  0  0  0  0
   59.3092   32.6603   51.1037 N   0  0  0  0  0  0  0  0  0  0  0  0
   59.7651   31.2627   51.2708 C   0  0  0  0  0  0  0  0  0  0  0  0
   59.3333   30.6542   52.6204 C   0  0  0  0  0  0  0  0  0  0  0  0
   58.2556   31.4428   53.2250 N   0  0  0  0  0  0  0  0  0  0  0  0
   58.4233   32.8950   53.3669 C   0  0  0  0  0  0  0  0  0  0  0  0
   59.4461   33.4216   52.3527 C   0  0  0  0  0  0  0  0  0  0  0  0
   57.0882   30.7957   53.7599 C   0  0  0  0  0  0  0  0  0  0  0  0
   57.0368   30.4568   55.1225 C   0  0  0  0  0  0  0  0  0  0  0  0
   55.9055   29.8305   55.6516 C   0  0  0  0  0  0  0  0  0  0  0  0
   54.8141   29.5454   54.8279 C   0  0  0  0  0  0  0  0  0  0  0  0
   54.8484   29.8931   53.4743 C   0  0  0  0  0  0  0  0  0  0  0  0
   55.9794   30.5210   52.9354 C   0  0  0  0  0  0  0  0  0  0  0  0
   56.0004   30.8926   51.5901 O   0  0  0  0  0  0  0  0  0  0  0  0
   55.2627   30.7098   51.0420 H   0  0  0  0  0  0  0  0  0  0  0  0
   57.7841   31.8155   45.4874 N   0  0  0  0  0  0  0  0  0  0  0  0
   55.8659   30.7403   44.6648 O   0  0  0  0  0  0  0  0  0  0  0  0
   57.1193   30.7496   44.7953 C   0  0  0  0  0  0  0  0  0  0  0  0
   57.9350   29.6325   44.2186 C   0  0  0  0  0  0  0  0  0  0  0  0
   57.7005   28.3393   44.9614 C   0  0  0  0  0  0  0  0  0  0  0  0
   56.4144   27.9489   45.1671 N   0  0  0  0  0  0  0  0  0  0  0  0
   56.1062   26.8318   45.8235 N   0  0  0  0  0  0  0  0  0  0  0  0
   57.0620   26.0148   46.3314 C   0  0  0  0  0  0  0  0  0  0  0  0
   56.7177   24.9654   46.9403 O   0  0  0  0  0  0  0  0  0  0  0  0
   58.4175   26.3511   46.1700 C   0  0  0  0  0  0  0  0  0  0  0  0
   59.4434   25.5337   46.6868 C   0  0  0  0  0  0  0  0  0  0  0  0
   60.7806   25.8989   46.5314 C   0  0  0  0  0  0  0  0  0  0  0  0
   61.1123   27.0745   45.8568 C   0  0  0  0  0  0  0  0  0  0  0  0
   60.1107   27.8861   45.3236 C   0  0  0  0  0  0  0  0  0  0  0  0
   58.7507   27.5392   45.4752 C   0  0  0  0  0  0  0  0  0  0  0  0
 25 26  2  0
 26 27  1  0
 27 28  1  0
 28 29  2  0
 29 30  1  0
 30 31  1  0
 31 32  2  0
 31 33  1  0
 33 34  2  0
 34 35  1  0
 35 36  2  0
 36 37  1  0
 37 38  2  0
 26 24  1  0
 24  1  1  0
  1  2  2  0
  2  3  1  0
  3  4  2  0
  4  5  1  0
  5  7  1  0
  7  8  2  0
  7  9  2  0
  7 10  1  0
 10 11  1  0
 11 12  1  0
 12 13  1  0
 13 16  1  0
 16 17  2  0
 17 18  1  0
 18 19  2  0
 19 20  1  0
 20 21  2  0
 21 22  1  0
 13 14  1  0
 14 15  1  0
  5  6  2  0
 38 28  1  0
  6  1  1  0
 38 33  1  0
 15 10  1  0
 21 16  1  0
 22 23  1  0
M  CHG 1  24  -1
M  CHG 1  30  -1
M  END
> <UniqueID>
65

> <SMILES>
O=C(Cc1n[n-]c(=O)c2ccccc12)[N-]c1cccc(S(=O)(=O)N2CCN(c3ccccc3O)CC2)c1

> <Energy>
82.89208037807818

> <Genealogy>
O=C(Cc1n[n-]c(=O)c2ccccc12)[N-]c1cccc(S(=O)(=O)N2CCN(c3ccccc3O)CC2)c1 (protonated)
O=C(Cc1n[n-]c(=O)c2ccccc12)[N-]c1cccc(S(=O)(=O)N2CCN(c3ccccc3O)CC2)c1 (3D coordinates assigned)
O=C(Cc1n[n-]c(=O)c2ccccc12)[N-]c1cccc(S(=O)(=O)N2CCN(c3ccccc3O)CC2)c1 (nonaromatic ring conformer: 82.89208037807818 kcal/mol)

> <smiles>
O=C(Cc1n[nH]c(=O)c2ccccc12)Nc1cccc(S(=O)(=O)N2CCN(c3ccccc3O)CC2)c1

> <score_type>
oracle

> <origin>
adg

> <m_score__min__energy>
-14.859999999999999

> <m_primary>
energy

> <minimizedAffinity>
-6.07065

> <minimizedRMSD>
0.49144

> <CNNscore>
0.3488054574

> <CNNaffinity>
7.2519898415

> <CNN_VS>
2.5295336246

> <CNNaffinity_variance>
0.0766573027

$$$$
88:0


 27 28  0  0  0  0  0  0  0  0999 V2000
   56.7654   30.7427   52.2108 C   0  0  0  0  0  0  0  0  0  0  0  0
   57.3144   29.5947   52.8095 C   0  0  0  0  0  0  0  0  0  0  0  0
   56.5023   28.7267   53.5453 C   0  0  0  0  0  0  0  0  0  0  0  0
   55.1371   28.9868   53.6783 C   0  0  0  0  0  0  0  0  0  0  0  0
   54.5676   30.1138   53.0609 C   0  0  0  0  0  0  0  0  0  0  0  0
   55.3892   30.9879   52.3311 C   0  0  0  0  0  0  0  0  0  0  0  0
   58.4719   32.6052   51.9922 C   0  0  0  0  0  0  0  0  0  0  0  0
   58.3872   32.9265   53.2090 O   0  0  0  0  0  0  0  0  0  0  0  0
   57.5741   31.6364   51.4280 N   0  0  0  0  0  0  0  0  0  0  0  0
   57.5089   31.5813   50.4472 H   0  0  0  0  0  0  0  0  0  0  0  0
   59.5235   33.2436   51.1357 C   0  0  0  0  0  0  0  0  0  0  0  0
   59.5027   32.6372   49.7314 C   0  0  0  0  0  0  0  0  0  0  0  0
   59.8604   33.6617   48.6980 C   0  0  0  0  0  0  0  0  0  0  0  0
   60.8808   34.3838   48.8640 O   0  0  0  0  0  0  0  0  0  0  0  0
   58.5871   32.7426   46.8026 C   0  0  0  0  0  0  0  0  0  0  0  0
   59.1023   33.7288   47.4805 N   0  0  0  0  0  0  0  0  0  0  0  0
   57.0892   31.8964   45.1511 O   0  0  0  0  0  0  0  0  0  0  0  0
   57.6481   32.8951   45.6756 C   0  0  0  0  0  0  0  0  0  0  0  0
   57.4587   34.1512   45.1174 O   0  0  0  0  0  0  0  0  0  0  0  0
   53.1034   30.4109   53.2308 C   0  0  0  0  0  0  0  0  0  0  0  0
   52.4516   30.5692   51.8913 C   0  0  0  0  0  0  0  0  0  0  0  0
   52.5559   29.4623   50.6246 S   0  0  0  0  0  0  0  0  0  0  0  0
   51.5324   30.3671   49.6440 C   0  0  0  0  0  0  0  0  0  0  0  0
   51.2008   30.0409   48.4759 O   0  0  0  0  0  0  0  0  0  0  0  0
   51.0936   31.4920   50.2471 N   0  0  0  0  0  0  0  0  0  0  0  0
   51.6000   31.6012   51.5025 C   0  0  0  0  0  0  0  0  0  0  0  0
   51.2804   32.6710   52.3280 O   0  0  0  0  0  0  0  0  0  0  0  0
 17 18  2  0
 18 19  1  0
 18 15  1  0
 15 16  2  0
 16 13  1  0
 13 14  2  0
 13 12  1  0
 12 11  1  0
 11  7  1  0
  7  8  2  0
  7  9  1  0
  9  1  1  0
  1  2  2  0
  2  3  1  0
  3  4  2  0
  4  5  1  0
  5 20  1  0
 20 21  1  0
 21 22  1  0
 22 23  1  0
 23 24  2  0
 23 25  1  0
 25 26  1  0
 26 27  1  0
  5  6  2  0
  6  1  1  0
 26 21  2  0
  9 10  1  0
M  CHG 1  19  -1
M  CHG 1  25  -1
M  CHG 1  27  -1
M  END
> <UniqueID>
80

> <SMILES>
O=C([O-])C=NC(=O)CCC(=O)Nc1cccc(Cc2sc(=O)[n-]c2[O-])c1

> <Energy>
73.58224171630572

> <Genealogy>
O=C([O-])C=NC(=O)CCC(=O)Nc1cccc(Cc2sc(=O)[n-]c2[O-])c1 (protonated)
O=C([O-])C=NC(=O)CCC(=O)Nc1cccc(Cc2sc(=O)[n-]c2[O-])c1 (3D coordinates assigned)
O=C([O-])C=NC(=O)CCC(=O)Nc1cccc(Cc2sc(=O)[n-]c2[O-])c1 (optimized conformer: 73.58224171630572 kcal/mol)

> <smiles>
O=C(O)C=NC(=O)CCC(=O)Nc1cccc(Cc2sc(=O)[nH]c2O)c1

> <score_type>
oracle

> <origin>
adg

> <m_score__min__energy>
-17.190000000000001

> <m_primary>
energy

> <minimizedAffinity>
-5.06828

> <minimizedRMSD>
2.24352

> <CNNscore>
0.1609711796

> <CNNaffinity>
4.9567728043

> <CNN_VS>
0.7978975773

> <CNNaffinity_variance>
0.1105464324

$$$$
94:0


 33 35  0  0  0  0  0  0  0  0999 V2000
   58.0699   30.0531   45.8543 C   0  0  0  0  0  0  0  0  0  0  0  0
   56.9839   30.5246   45.1070 C   0  0  0  0  0  0  0  0  0  0  0  0
   55.9144   29.6943   44.7958 O   0  0  0  0  0  0  0  0  0  0  0  0
   56.9571   31.8159   44.7021 N   0  0  0  0  0  0  0  0  0  0  0  0
   57.9514   32.6839   45.0179 C   0  0  0  0  0  0  0  0  0  0  0  0
   57.8699   33.8750   44.6140 O   0  0  0  0  0  0  0  0  0  0  0  0
   59.0189   32.2696   45.7755 N   0  0  0  0  0  0  0  0  0  0  0  0
   59.0794   30.9649   46.2052 C   0  0  0  0  0  0  0  0  0  0  0  0
   60.0435   30.5723   46.9206 O   0  0  0  0  0  0  0  0  0  0  0  0
   58.6508   27.6323   45.6485 C   0  0  0  0  0  0  0  0  0  0  0  0
   58.1257   28.6544   46.3444 C   0  0  0  0  0  0  0  0  0  0  0  0
   58.1788   27.3053   43.1110 N   0  0  0  0  0  0  0  0  0  0  0  0
   58.3888   27.4528   44.2404 C   0  0  0  0  0  0  0  0  0  0  0  0
   59.5379   26.6622   46.3151 C   0  0  0  0  0  0  0  0  0  0  0  0
   60.7685   26.9159   46.3928 O   0  0  0  0  0  0  0  0  0  0  0  0
   59.0416   25.4512   46.8996 N   0  0  0  0  0  0  0  0  0  0  0  0
   57.6373   25.0450   46.9349 C   0  0  0  0  0  0  0  0  0  0  0  0
   57.3119   24.1774   45.7495 C   0  0  0  0  0  0  0  0  0  0  0  0
   56.1401   24.3900   45.0052 C   0  0  0  0  0  0  0  0  0  0  0  0
   55.8295   23.5601   43.9244 C   0  0  0  0  0  0  0  0  0  0  0  0
   56.6856   22.5106   43.5748 C   0  0  0  0  0  0  0  0  0  0  0  0
   56.3651   21.6912   42.4955 O   0  0  0  0  0  0  0  0  0  0  0  0
   57.8574   22.2940   44.3127 C   0  0  0  0  0  0  0  0  0  0  0  0
   58.1680   23.1222   45.3957 C   0  0  0  0  0  0  0  0  0  0  0  0
   55.5794   21.8441   42.0083 H   0  0  0  0  0  0  0  0  0  0  0  0
   60.0639   33.2382   46.1684 C   0  0  0  0  0  0  0  0  0  0  0  0
   59.9402   33.6225   47.6494 C   0  0  0  0  0  0  0  0  0  0  0  0
   61.2701   33.5551   48.3544 C   0  0  0  0  0  0  0  0  0  0  0  0
   62.4258   33.1783   47.6501 C   0  0  0  0  0  0  0  0  0  0  0  0
   63.6494   33.0589   48.3168 C   0  0  0  0  0  0  0  0  0  0  0  0
   63.7262   33.3081   49.6892 C   0  0  0  0  0  0  0  0  0  0  0  0
   62.5791   33.6776   50.3985 C   0  0  0  0  0  0  0  0  0  0  0  0
   61.3556   33.8001   49.7351 C   0  0  0  0  0  0  0  0  0  0  0  0
 12 13  3  0
 13 10  1  0
 10 11  2  0
 11  1  1  0
  1  2  2  0
  2  3  1  0
  2  4  1  0
  4  5  1  0
  5  6  2  0
  5  7  1  0
  7 26  1  0
 26 27  1  0
 27 28  1  0
 28 29  2  0
 29 30  1  0
 30 31  2  0
 31 32  1  0
 32 33  2  0
  7  8  1  0
  8  9  2  0
 10 14  1  0
 14 15  2  0
 14 16  1  0
 16 17  1  0
 17 18  1  0
 18 19  2  0
 19 20  1  0
 20 21  2  0
 21 22  1  0
 21 23  1  0
 23 24  2  0
  8  1  1  0
 24 18  1  0
 33 28  1  0
 22 25  1  0
M  CHG 1   3  -1
M  CHG 1   4  -1
M  CHG 1  16  -1
M  END
> <UniqueID>
86

> <SMILES>
N#CC(=Cc1c([O-])[n-]c(=O)n(CCc2ccccc2)c1=O)C(=O)[N-]Cc1ccc(O)cc1

> <Energy>
61.05666890679271

> <Genealogy>
N#CC(=Cc1c([O-])[n-]c(=O)n(CCc2ccccc2)c1=O)C(=O)[N-]Cc1ccc(O)cc1 (protonated)
N#CC(=Cc1c([O-])[n-]c(=O)n(CCc2ccccc2)c1=O)C(=O)[N-]Cc1ccc(O)cc1 (3D coordinates assigned)
N#CC(=Cc1c([O-])[n-]c(=O)n(CCc2ccccc2)c1=O)C(=O)[N-]Cc1ccc(O)cc1 (optimized conformer: 61.05666890679271 kcal/mol)

> <smiles>
N#CC(=Cc1c(O)[nH]c(=O)n(CCc2ccccc2)c1=O)C(=O)NCc1ccc(O)cc1

> <score_type>
oracle

> <origin>
adg

> <m_score__min__energy>
-15.300000000000001

> <m_primary>
energy

> <minimizedAffinity>
-8.27707

> <minimizedRMSD>
0.89209

> <CNNscore>
0.5503141284

> <CNNaffinity>
6.9412918091

> <CNN_VS>
3.8198909760

> <CNNaffinity_variance>
0.0046844222

$$$$
2:0


 33 36  0  0  0  0  0  0  0  0999 V2000
   57.9151   31.2926   44.3399 C   0  0  0  0  0  0  0  0  0  0  0  0
   58.5762   30.7815   45.4665 C   0  0  0  0  0  0  0  0  0  0  0  0
   59.1949   31.6409   46.3205 N   0  0  0  0  0  0  0  0  0  0  0  0
   59.1794   32.9925   46.1539 C   0  0  0  0  0  0  0  0  0  0  0  0
   59.7917   33.7244   47.0435 N   0  0  0  0  0  0  0  0  0  0  0  0
   58.4798   33.5325   45.0555 C   0  0  0  0  0  0  0  0  0  0  0  0
   57.8610   32.6729   44.1482 C   0  0  0  0  0  0  0  0  0  0  0  0
   58.6766   29.3695   45.7084 N   0  0  0  0  0  0  0  0  0  0  0  0
   57.5804   28.4435   45.5936 C   0  0  0  0  0  0  0  0  0  0  0  0
   56.4316   28.8510   45.2712 O   0  0  0  0  0  0  0  0  0  0  0  0
   59.5550   29.0104   45.9707 H   0  0  0  0  0  0  0  0  0  0  0  0
   57.7812   27.0001   45.8457 C   0  0  0  0  0  0  0  0  0  0  0  0
   59.0811   26.4709   45.7978 C   0  0  0  0  0  0  0  0  0  0  0  0
   59.3006   25.1110   46.0373 C   0  0  0  0  0  0  0  0  0  0  0  0
   58.2252   24.2660   46.3140 C   0  0  0  0  0  0  0  0  0  0  0  0
   56.9264   24.7762   46.3432 C   0  0  0  0  0  0  0  0  0  0  0  0
   56.6960   26.1347   46.0994 C   0  0  0  0  0  0  0  0  0  0  0  0
   55.3864   26.6044   46.0819 O   0  0  0  0  0  0  0  0  0  0  0  0
   59.8860   33.5468   48.4677 C   0  0  0  0  0  0  0  0  0  0  0  0
   58.8452   33.5224   49.1791 O   0  0  0  0  0  0  0  0  0  0  0  0
   61.2174   33.4832   49.1155 C   0  0  0  0  0  0  0  0  0  0  0  0
   62.3852   33.3722   48.3392 C   0  0  0  0  0  0  0  0  0  0  0  0
   63.6415   33.3152   48.9495 C   0  0  0  0  0  0  0  0  0  0  0  0
   63.7588   33.3663   50.3489 C   0  0  0  0  0  0  0  0  0  0  0  0
   62.5928   33.4803   51.1241 C   0  0  0  0  0  0  0  0  0  0  0  0
   61.3376   33.5393   50.5156 C   0  0  0  0  0  0  0  0  0  0  0  0
   65.0528   33.3025   50.9789 N   0  0  0  0  0  0  0  0  0  0  0  0
   66.1492   32.5964   50.3060 C   0  0  0  0  0  0  0  0  0  0  0  0
   67.4464   32.6883   51.1214 C   0  0  0  0  0  0  0  0  0  0  0  0
   67.2065   32.4424   52.5565 N   0  0  0  0  0  0  0  0  0  0  0  0
   66.8685   31.0324   52.8214 C   0  0  0  0  0  0  0  0  0  0  0  0
   66.2185   33.3713   53.1666 C   0  0  0  0  0  0  0  0  0  0  0  0
   65.3506   34.1353   52.1493 C   0  0  0  0  0  0  0  0  0  0  0  0
  1  2  2  0
  2  8  1  0
  8  9  1  0
  9 10  2  0
  9 12  1  0
 12 13  2  0
 13 14  1  0
 14 15  2  0
 15 16  1  0
 16 17  2  0
 17 18  1  0
  2  3  1  0
  3  4  1  0
  4  5  2  0
  5 19  1  0
 19 20  2  0
 19 21  1  0
 21 22  2  0
 22 23  1  0
 23 24  2  0
 24 27  1  0
 27 28  1  0
 28 29  1  0
 29 30  1  0
 30 31  1  0
 30 32  1  0
 32 33  1  0
 24 25  1  0
 25 26  2  0
  4  6  1  0
  6  7  2  0
  7  1  1  0
 17 12  1  0
 26 21  1  0
 33 27  1  0
  8 11  1  0
M  CHG 1   3  -1
M  CHG 1  18  -1
M  END
> <UniqueID>
3

> <SMILES>
CN1CCN(c2ccc(C(=O)/N=c3\cccc(NC(=O)c4ccccc4[O-])[n-]3)cc2)CC1

> <Energy>
87.99251486215665

> <Genealogy>
CN1CCN(c2ccc(C(=O)N=c3cccc(NC(=O)c4ccccc4[O-])[n-]3)cc2)CC1 (protonated)
CN1CCN(c2ccc(C(=O)/N=c3\cccc(NC(=O)c4ccccc4[O-])[n-]3)cc2)CC1 (cis-trans isomerization)
CN1CCN(c2ccc(C(=O)/N=c3\cccc(NC(=O)c4ccccc4[O-])[n-]3)cc2)CC1 (3D coordinates assigned)
CN1CCN(c2ccc(C(=O)/N=c3\cccc(NC(=O)c4ccccc4[O-])[n-]3)cc2)CC1 (nonaromatic ring conformer: 87.99251486215665 kcal/mol)

> <smiles>
CN1CCN(c2ccc(C(=O)N=c3cccc(NC(=O)c4ccccc4O)[nH]3)cc2)CC1

> <score_type>
oracle

> <origin>
adg

> <m_score__min__energy>
-15.57

> <m_primary>
energy

> <minimizedAffinity>
-7.79707

> <minimizedRMSD>
1.47331

> <CNNscore>
0.3347835839

> <CNNaffinity>
6.2088570595

> <CNN_VS>
2.0786235332

> <CNNaffinity_variance>
0.1484226286

$$$$
51:0


 38 41  0  0  0  0  0  0  0  0999 V2000
   59.8268   31.1355   51.1639 C   0  0  0  0  0  0  0  0  0  0  0  0
   60.2472   30.8883   49.9052 C   0  0  0  0  0  0  0  0  0  0  0  0
   61.3787   30.1868   49.6888 N   0  0  0  0  0  0  0  0  0  0  0  0
   61.4168   29.9295   48.3738 C   0  0  0  0  0  0  0  0  0  0  0  0
   60.3006   30.4947   47.7866 C   0  0  0  0  0  0  0  0  0  0  0  0
   59.9495   30.3780   46.4916 C   0  0  0  0  0  0  0  0  0  0  0  0
   59.5930   31.1665   48.7382 N   0  0  0  0  0  0  0  0  0  0  0  0
   62.0440   29.9173   50.3625 H   0  0  0  0  0  0  0  0  0  0  0  0
   58.7849   29.6061   46.0254 C   0  0  0  0  0  0  0  0  0  0  0  0
   57.7953   30.2590   45.3591 N   0  0  0  0  0  0  0  0  0  0  0  0
   56.6829   29.6057   44.9366 C   0  0  0  0  0  0  0  0  0  0  0  0
   55.7855   30.2311   44.3158 O   0  0  0  0  0  0  0  0  0  0  0  0
   56.5335   28.2804   45.1890 N   0  0  0  0  0  0  0  0  0  0  0  0
   57.4833   27.5865   45.8702 C   0  0  0  0  0  0  0  0  0  0  0  0
   57.3165   26.3599   46.1025 O   0  0  0  0  0  0  0  0  0  0  0  0
   58.6361   28.2403   46.3177 C   0  0  0  0  0  0  0  0  0  0  0  0
   59.5960   27.5512   47.0533 O   0  0  0  0  0  0  0  0  0  0  0  0
   58.4089   31.0317   51.6680 C   0  0  0  0  0  0  0  0  0  0  0  0
   58.9378   33.4547   52.2557 C   0  0  0  0  0  0  0  0  0  0  0  0
   57.8657   32.3676   52.1915 C   0  0  0  0  0  0  0  0  0  0  0  0
   58.5098   32.1455   48.5069 C   0  0  0  0  0  0  0  0  0  0  0  0
   58.7447   33.0039   47.2740 C   0  0  0  0  0  0  0  0  0  0  0  0
   57.6670   33.2168   46.3908 C   0  0  0  0  0  0  0  0  0  0  0  0
   57.8443   33.9350   45.2076 C   0  0  0  0  0  0  0  0  0  0  0  0
   59.0906   34.4714   44.8943 C   0  0  0  0  0  0  0  0  0  0  0  0
   60.1622   34.3061   45.7724 C   0  0  0  0  0  0  0  0  0  0  0  0
   60.0039   33.5938   46.9742 C   0  0  0  0  0  0  0  0  0  0  0  0
   61.1582   33.5360   47.9032 C   0  0  0  0  0  0  0  0  0  0  0  0
   61.0212   33.9742   49.1582 C   0  0  0  0  0  0  0  0  0  0  0  0
   62.2106   34.1123   50.0594 C   0  0  0  0  0  0  0  0  0  0  0  0
   63.2063   33.0666   49.7801 N   0  0  0  0  0  0  0  0  0  0  0  0
   64.0502   32.5851   50.8421 C   0  0  0  0  0  0  0  0  0  0  0  0
   63.7810   31.4926   51.4138 O   0  0  0  0  0  0  0  0  0  0  0  0
   63.4427   32.5881   48.4056 C   0  0  0  0  0  0  0  0  0  0  0  0
   62.5429   33.2787   47.3678 C   0  0  0  0  0  0  0  0  0  0  0  0
   65.1778   33.3204   51.2270 O   0  0  0  0  0  0  0  0  0  0  0  0
   66.4917   33.0629   50.7331 C   0  0  0  0  0  0  0  0  0  0  0  0
   67.4967   34.0354   51.3379 C   0  0  0  0  0  0  0  0  0  0  0  0
 19 20  1  0
 20 18  1  0
 18  1  1  0
  1  2  2  0
  2  3  1  0
  3  4  2  0
  4  5  1  0
  5  6  2  0
  6  9  1  0
  9 10  1  0
 10 11  1  0
 11 12  2  0
 11 13  1  0
 13 14  1  0
 14 15  2  0
 14 16  1  0
 16 17  1  0
  5  7  1  0
  7 21  1  0
 21 22  1  0
 22 23  2  0
 23 24  1  0
 24 25  2  0
 25 26  1  0
 26 27  2  0
 27 28  1  0
 28 29  2  0
 29 30  1  0
 30 31  1  0
 31 32  1  0
 32 33  2  0
 32 36  1  0
 36 37  1  0
 37 38  1  0
 31 34  1  0
 34 35  1  0
  7  2  1  0
 27 22  1  0
 35 28  1  0
 16  9  2  0
  3  8  1  0
M  CHG 1   3   1
M  CHG 1  10  -1
M  CHG 1  13  -1
M  CHG 1  17  -1
M  END
> <UniqueID>
51

> <SMILES>
CCCC=c1[nH+]cc(=Cc2[n-]c(=O)[n-]c(=O)c2[O-])n1Cc1ccccc1C1=CCN(C(=O)OCC)CC1

> <Energy>
117.44432255339234

> <Genealogy>
CCCC=c1[nH+]cc(=Cc2[n-]c(=O)[n-]c(=O)c2[O-])n1Cc1ccccc1C1=CCN(C(=O)OCC)CC1 (protonated)
CCCC=c1[nH+]cc(=Cc2[n-]c(=O)[n-]c(=O)c2[O-])n1Cc1ccccc1C1=CCN(C(=O)OCC)CC1 (3D coordinates assigned)
CCCC=c1[nH+]cc(=Cc2[n-]c(=O)[n-]c(=O)c2[O-])n1Cc1ccccc1C1=CCN(C(=O)OCC)CC1 (nonaromatic ring conformer: 117.44432255339234 kcal/mol)

> <smiles>
CCCC=c1ncc(=Cc2[nH]c(=O)[nH]c(=O)c2O)n1Cc1ccccc1C1=CCN(C(=O)OCC)CC1

> <score_type>
oracle

> <origin>
adg

> <m_score__min__energy>
-14.01

> <m_primary>
energy

> <minimizedAffinity>
-8.50902

> <minimizedRMSD>
0.61263

> <CNNscore>
0.6885989904

> <CNNaffinity>
7.4173636436

> <CNN_VS>
5.1075892448

> <CNNaffinity_variance>
0.1793843657

$$$$
70:0


 26 27  0  0  0  0  0  0  0  0999 V2000
   57.6143   28.8209   44.5228 N   0  0  0  0  0  0  0  0  0  0  0  0
   56.6513   29.8234   44.1905 C   0  0  0  0  0  0  0  0  0  0  0  0
   55.5116   29.7829   44.7263 O   0  0  0  0  0  0  0  0  0  0  0  0
   56.9738   30.8605   43.2583 N   0  0  0  0  0  0  0  0  0  0  0  0
   58.0192   31.8517   43.4794 C   0  0  0  0  0  0  0  0  0  0  0  0
   58.4839   32.5583   46.9165 C   0  0  0  0  0  0  0  0  0  0  0  0
   57.3284   33.2157   46.7024 N   0  0  0  0  0  0  0  0  0  0  0  0
   57.0704   33.0299   45.4452 O   0  0  0  0  0  0  0  0  0  0  0  0
   58.0117   32.2945   44.9056 C   0  0  0  0  0  0  0  0  0  0  0  0
   58.9525   31.9527   45.8062 N   0  0  0  0  0  0  0  0  0  0  0  0
   59.1413   32.4559   48.2520 C   0  0  0  0  0  0  0  0  0  0  0  0
   61.6249   33.3970   47.7208 C   0  0  0  0  0  0  0  0  0  0  0  0
   60.1248   33.9543   48.5962 S   0  0  0  0  0  0  0  0  0  0  0  0
   57.8988   28.3946   45.8889 C   0  0  0  0  0  0  0  0  0  0  0  0
   57.9220   26.8902   45.9797 C   0  0  0  0  0  0  0  0  0  0  0  0
   59.1398   26.1998   45.8907 C   0  0  0  0  0  0  0  0  0  0  0  0
   59.1677   24.8068   45.9762 C   0  0  0  0  0  0  0  0  0  0  0  0
   57.9829   24.0882   46.1506 C   0  0  0  0  0  0  0  0  0  0  0  0
   56.7527   24.7631   46.2486 C   0  0  0  0  0  0  0  0  0  0  0  0
   56.7289   26.1650   46.1663 C   0  0  0  0  0  0  0  0  0  0  0  0
   55.5128   26.8370   46.2654 O   0  0  0  0  0  0  0  0  0  0  0  0
   55.5130   24.0630   46.4290 N   0  0  0  0  0  0  0  0  0  0  0  0
   54.6379   23.2046   45.2006 S   0  0  0  0  0  0  0  0  0  0  0  0
   52.9488   23.7644   45.1476 C   0  0  0  0  0  0  0  0  0  0  0  0
   55.2806   23.4786   43.8700 O   0  0  0  0  0  0  0  0  0  0  0  0
   54.6917   21.7269   45.4670 O   0  0  0  0  0  0  0  0  0  0  0  0
 12 13  1  0
 13 11  1  0
 11  6  1  0
  6  7  2  0
  7  8  1  0
  8  9  1  0
  9  5  1  0
  5  4  1  0
  4  2  1  0
  2  3  2  0
  2  1  1  0
  1 14  1  0
 14 15  1  0
 15 16  2  0
 16 17  1  0
 17 18  2  0
 18 19  1  0
 19 22  1  0
 22 23  1  0
 23 24  1  0
 23 25  2  0
 23 26  2  0
 19 20  2  0
 20 21  1  0
  9 10  2  0
 10  6  1  0
 20 15  1  0
M  CHG 1   1  -1
M  CHG 1   4  -1
M  CHG 1  21  -1
M  CHG 1  22  -1
M  END
> <UniqueID>
67

> <SMILES>
CSCc1noc(C[N-]C(=O)[N-]Cc2cccc([N-]S(C)(=O)=O)c2[O-])n1

> <Energy>
62.923781274003474

> <Genealogy>
CSCc1noc(C[N-]C(=O)[N-]Cc2cccc([N-]S(C)(=O)=O)c2[O-])n1 (protonated)
CSCc1noc(C[N-]C(=O)[N-]Cc2cccc([N-]S(C)(=O)=O)c2[O-])n1 (3D coordinates assigned)
CSCc1noc(C[N-]C(=O)[N-]Cc2cccc([N-]S(C)(=O)=O)c2[O-])n1 (optimized conformer: 62.923781274003474 kcal/mol)

> <smiles>
CSCc1noc(CNC(=O)NCc2cccc(NS(C)(=O)=O)c2O)n1

> <score_type>
oracle

> <origin>
adg

> <m_score__min__energy>
-17.260000000000002

> <m_primary>
energy

> <minimizedAffinity>
-6.35877

> <minimizedRMSD>
1.14673

> <CNNscore>
0.4607740045

> <CNNaffinity>
6.1685652733

> <CNN_VS>
2.8423144817

> <CNNaffinity_variance>
0.0823785067

$$$$
77:0


 34 37  0  0  0  0  0  0  0  0999 V2000
   59.9065   27.6638   45.8015 O   0  0  0  0  0  0  0  0  0  0  0  0
   58.7647   27.4653   46.2986 C   0  0  0  0  0  0  0  0  0  0  0  0
   57.7603   28.4907   46.2594 N   0  0  0  0  0  0  0  0  0  0  0  0
   56.8508   28.2611   46.5584 H   0  0  0  0  0  0  0  0  0  0  0  0
   58.0061   29.8305   45.8093 C   0  0  0  0  0  0  0  0  0  0  0  0
   57.4685   30.3059   44.6007 C   0  0  0  0  0  0  0  0  0  0  0  0
   57.7087   31.6224   44.1963 C   0  0  0  0  0  0  0  0  0  0  0  0
   58.4741   32.4758   44.9952 C   0  0  0  0  0  0  0  0  0  0  0  0
   59.0014   32.0163   46.2095 C   0  0  0  0  0  0  0  0  0  0  0  0
   58.7579   30.6973   46.6150 C   0  0  0  0  0  0  0  0  0  0  0  0
   59.9667   33.0749   47.2351 S   0  0  0  0  0  0  0  0  0  0  0  0
   59.0844   34.1024   47.8881 O   0  0  0  0  0  0  0  0  0  0  0  0
   60.9650   33.7832   46.3636 O   0  0  0  0  0  0  0  0  0  0  0  0
   60.8081   32.1378   48.4505 N   0  0  0  0  0  0  0  0  0  0  0  0
   60.9605   32.8831   49.7132 C   0  0  0  0  0  0  0  0  0  0  0  0
   62.0509   33.9769   49.6228 C   0  0  0  0  0  0  0  0  0  0  0  0
   62.9391   33.8059   48.5332 O   0  0  0  0  0  0  0  0  0  0  0  0
   63.3033   32.4517   48.4100 C   0  0  0  0  0  0  0  0  0  0  0  0
   62.0986   31.6137   47.9489 C   0  0  0  0  0  0  0  0  0  0  0  0
   58.4891   26.1773   47.0131 C   0  0  0  0  0  0  0  0  0  0  0  0
   57.8585   25.2300   46.0944 N   0  0  0  0  0  0  0  0  0  0  0  0
   56.5534   25.1311   45.7961 C   0  0  0  0  0  0  0  0  0  0  0  0
   55.5773   26.0308   46.2062 O   0  0  0  0  0  0  0  0  0  0  0  0
   56.3451   23.9856   45.0613 C   0  0  0  0  0  0  0  0  0  0  0  0
   57.5172   23.3327   44.9101 N   0  0  0  0  0  0  0  0  0  0  0  0
   58.4073   24.1243   45.5496 C   0  0  0  0  0  0  0  0  0  0  0  0
   59.6275   23.8320   45.6526 O   0  0  0  0  0  0  0  0  0  0  0  0
   55.0165   23.4172   44.6702 C   0  0  0  0  0  0  0  0  0  0  0  0
   54.4710   22.5840   45.7977 C   0  0  0  0  0  0  0  0  0  0  0  0
   53.1558   22.7783   46.2551 C   0  0  0  0  0  0  0  0  0  0  0  0
   52.6674   22.0374   47.3346 C   0  0  0  0  0  0  0  0  0  0  0  0
   53.4892   21.1029   47.9708 C   0  0  0  0  0  0  0  0  0  0  0  0
   54.8021   20.9145   47.5330 C   0  0  0  0  0  0  0  0  0  0  0  0
   55.2960   21.6540   46.4546 C   0  0  0  0  0  0  0  0  0  0  0  0
  1  2  2  0
  2 20  1  0
 20 21  1  0
 21 22  1  0
 22 23  1  0
 22 24  2  0
 24 28  1  0
 28 29  1  0
 29 30  2  0
 30 31  1  0
 31 32  2  0
 32 33  1  0
 33 34  2  0
 24 25  1  0
 25 26  1  0
 26 27  2  0
  2  3  1  0
  3  5  1  0
  5  6  2  0
  6  7  1  0
  7  8  2  0
  8  9  1  0
  9 11  1  0
 11 12  2  0
 11 13  2  0
 11 14  1  0
 14 15  1  0
 15 16  1  0
 16 17  1  0
 17 18  1  0
 18 19  1  0
  9 10  2  0
 26 21  1  0
 10  5  1  0
 34 29  1  0
 19 14  1  0
  3  4  1  0
M  CHG 1  23  -1
M  CHG 1  25  -1
M  END
> <UniqueID>
74

> <SMILES>
O=C(Cn1c([O-])c(Cc2ccccc2)[n-]c1=O)Nc1cccc(S(=O)(=O)N2CCOCC2)c1

> <Energy>
97.58470724441925

> <Genealogy>
O=C(Cn1c([O-])c(Cc2ccccc2)[n-]c1=O)Nc1cccc(S(=O)(=O)N2CCOCC2)c1 (protonated)
O=C(Cn1c([O-])c(Cc2ccccc2)[n-]c1=O)Nc1cccc(S(=O)(=O)N2CCOCC2)c1 (3D coordinates assigned)
O=C(Cn1c([O-])c(Cc2ccccc2)[n-]c1=O)Nc1cccc(S(=O)(=O)N2CCOCC2)c1 (nonaromatic ring conformer: 97.58470724441925 kcal/mol)

> <smiles>
O=C(Cn1c(O)c(Cc2ccccc2)[nH]c1=O)Nc1cccc(S(=O)(=O)N2CCOCC2)c1

> <score_type>
oracle

> <origin>
adg

> <m_score__min__energy>
-14.08

> <m_primary>
energy

> <minimizedAffinity>
-8.03609

> <minimizedRMSD>
1.92108

> <CNNscore>
0.2156124711

> <CNNaffinity>
6.4344024658

> <CNN_VS>
1.3873374462

> <CNNaffinity_variance>
0.0454624705

$$$$
92:0


 27 29  0  0  0  0  0  0  0  0999 V2000
   58.9512   27.3797   45.8067 C   0  0  0  0  0  0  0  0  0  0  0  0
   59.9837   28.3296   45.8384 C   0  0  0  0  0  0  0  0  0  0  0  0
   59.7183   29.6706   45.5417 C   0  0  0  0  0  0  0  0  0  0  0  0
   58.4169   30.0772   45.2189 C   0  0  0  0  0  0  0  0  0  0  0  0
   57.3854   29.1297   45.1840 C   0  0  0  0  0  0  0  0  0  0  0  0
   57.6483   27.7890   45.4794 C   0  0  0  0  0  0  0  0  0  0  0  0
   58.0816   31.7586   44.8218 S   0  0  0  0  0  0  0  0  0  0  0  0
   58.2277   31.9545   43.3388 O   0  0  0  0  0  0  0  0  0  0  0  0
   56.6672   32.1007   45.2103 O   0  0  0  0  0  0  0  0  0  0  0  0
   59.2146   32.7875   45.6603 N   0  0  0  0  0  0  0  0  0  0  0  0
   58.9277   32.8372   47.0939 C   0  0  0  0  0  0  0  0  0  0  0  0
   59.4497   34.1745   47.5937 C   0  0  0  0  0  0  0  0  0  0  0  0
   59.5717   35.0476   46.3545 C   0  0  0  0  0  0  0  0  0  0  0  0
   59.1209   34.1706   45.1957 C   0  0  0  0  0  0  0  0  0  0  0  0
   59.2404   25.9436   46.1480 C   0  0  0  0  0  0  0  0  0  0  0  0
   58.0135   25.2600   46.5427 N   0  0  0  0  0  0  0  0  0  0  0  0
   57.5959   24.1276   44.5385 O   0  0  0  0  0  0  0  0  0  0  0  0
   57.4199   24.2007   45.7852 C   0  0  0  0  0  0  0  0  0  0  0  0
   56.6283   23.1457   46.4871 C   0  0  0  0  0  0  0  0  0  0  0  0
   55.1903   23.2330   46.0846 C   0  0  0  0  0  0  0  0  0  0  0  0
   54.3502   22.1840   46.0527 N   0  0  0  0  0  0  0  0  0  0  0  0
   53.1705   22.7426   45.6996 C   0  0  0  0  0  0  0  0  0  0  0  0
   52.1180   22.0682   45.5571 O   0  0  0  0  0  0  0  0  0  0  0  0
   53.2078   24.0798   45.5191 N   0  0  0  0  0  0  0  0  0  0  0  0
   54.4939   24.3755   45.7725 C   0  0  0  0  0  0  0  0  0  0  0  0
   55.0210   25.6620   45.7258 O   0  0  0  0  0  0  0  0  0  0  0  0
   54.4701   26.3862   45.5026 H   0  0  0  0  0  0  0  0  0  0  0  0
 17 18  2  0
 18 19  1  0
 19 20  1  0
 20 21  1  0
 21 22  1  0
 22 23  2  0
 22 24  1  0
 24 25  1  0
 25 26  1  0
 18 16  1  0
 16 15  1  0
 15  1  1  0
  1  2  2  0
  2  3  1  0
  3  4  2  0
  4  7  1  0
  7  8  2  0
  7  9  2  0
  7 10  1  0
 10 11  1  0
 11 12  1  0
 12 13  1  0
 13 14  1  0
  4  5  1  0
  5  6  2  0
 25 20  2  0
  6  1  1  0
 14 10  1  0
 26 27  1  0
M  CHG 1  16  -1
M  CHG 1  21  -1
M  CHG 1  24  -1
M  END
> <UniqueID>
88

> <SMILES>
O=C(Cc1[n-]c(=O)[n-]c1O)[N-]Cc1ccc(S(=O)(=O)N2CCCC2)cc1

> <Energy>
68.04422562928825

> <Genealogy>
O=C(Cc1[n-]c(=O)[n-]c1O)[N-]Cc1ccc(S(=O)(=O)N2CCCC2)cc1 (protonated)
O=C(Cc1[n-]c(=O)[n-]c1O)[N-]Cc1ccc(S(=O)(=O)N2CCCC2)cc1 (3D coordinates assigned)
O=C(Cc1[n-]c(=O)[n-]c1O)[N-]Cc1ccc(S(=O)(=O)N2CCCC2)cc1 (nonaromatic ring conformer: 68.04422562928825 kcal/mol)

> <smiles>
O=C(Cc1[nH]c(=O)[nH]c1O)NCc1ccc(S(=O)(=O)N2CCCC2)cc1

> <score_type>
oracle

> <origin>
adg

> <m_score__min__energy>
-15.050000000000001

> <m_primary>
energy

> <minimizedAffinity>
-7.41691

> <minimizedRMSD>
0.84975

> <CNNscore>
0.1972212046

> <CNNaffinity>
5.9354472160

> <CNN_VS>
1.1705960035

> <CNNaffinity_variance>
0.1051487625

$$$$
10:0


 22 23  0  0  0  0  0  0  0  0999 V2000
   58.4502   27.1132   46.1642 C   0  0  0  0  0  0  0  0  0  0  0  0
   59.0597   27.5823   47.3381 C   0  0  0  0  0  0  0  0  0  0  0  0
   59.9314   28.6775   47.3030 C   0  0  0  0  0  0  0  0  0  0  0  0
   60.1965   29.3067   46.0742 C   0  0  0  0  0  0  0  0  0  0  0  0
   59.5917   28.8447   44.9039 C   0  0  0  0  0  0  0  0  0  0  0  0
   58.7205   27.7527   44.9433 C   0  0  0  0  0  0  0  0  0  0  0  0
   58.1273   27.3097   43.7659 O   0  0  0  0  0  0  0  0  0  0  0  0
   55.7301   26.2809   45.9556 N   0  0  0  0  0  0  0  0  0  0  0  0
   57.3480   25.7362   46.2226 S   0  0  0  0  0  0  0  0  0  0  0  0
   57.7295   24.7465   45.1584 O   0  0  0  0  0  0  0  0  0  0  0  0
   57.4202   25.0614   47.5646 O   0  0  0  0  0  0  0  0  0  0  0  0
   55.0934   25.4847   45.9894 H   0  0  0  0  0  0  0  0  0  0  0  0
   60.5221   29.1221   48.5313 N   0  0  0  0  0  0  0  0  0  0  0  0
   60.1166   30.5877   49.3643 S   0  0  0  0  0  0  0  0  0  0  0  0
   58.7720   30.4269   50.0145 O   0  0  0  0  0  0  0  0  0  0  0  0
   61.1469   30.8502   50.4263 O   0  0  0  0  0  0  0  0  0  0  0  0
   60.0410   31.9298   48.2259 C   0  0  0  0  0  0  0  0  0  0  0  0
   58.8011   32.4458   47.8204 C   0  0  0  0  0  0  0  0  0  0  0  0
   58.7466   33.5173   46.9230 C   0  0  0  0  0  0  0  0  0  0  0  0
   59.9291   34.0746   46.4259 C   0  0  0  0  0  0  0  0  0  0  0  0
   61.1658   33.5600   46.8243 C   0  0  0  0  0  0  0  0  0  0  0  0
   61.2232   32.4884   47.7212 C   0  0  0  0  0  0  0  0  0  0  0  0
  8  9  1  0
  9 10  2  0
  9 11  2  0
  9  1  1  0
  1  2  2  0
  2  3  1  0
  3 13  1  0
 13 14  1  0
 14 15  2  0
 14 16  2  0
 14 17  1  0
 17 18  2  0
 18 19  1  0
 19 20  2  0
 20 21  1  0
 21 22  2  0
  3  4  2  0
  4  5  1  0
  5  6  2  0
  6  7  1  0
  6  1  1  0
 22 17  1  0
  8 12  1  0
M  CHG 1   7  -1
M  CHG 1   8  -1
M  CHG 1  13  -1
M  END
> <UniqueID>
11

> <SMILES>
[NH-]S(=O)(=O)c1cc([N-]S(=O)(=O)c2ccccc2)ccc1[O-]

> <Energy>
34.33257339043245

> <Genealogy>
[NH-]S(=O)(=O)c1cc([N-]S(=O)(=O)c2ccccc2)ccc1[O-] (protonated)
[NH-]S(=O)(=O)c1cc([N-]S(=O)(=O)c2ccccc2)ccc1[O-] (3D coordinates assigned)
[NH-]S(=O)(=O)c1cc([N-]S(=O)(=O)c2ccccc2)ccc1[O-] (optimized conformer: 34.33257339043245 kcal/mol)

> <smiles>
NS(=O)(=O)c1cc(NS(=O)(=O)c2ccccc2)ccc1O

> <score_type>
oracle

> <origin>
adg

> <m_score__min__energy>
-14.300000000000001

> <m_primary>
energy

> <minimizedAffinity>
-7.50921

> <minimizedRMSD>
2.18174

> <CNNscore>
0.8057205081

> <CNNaffinity>
6.5228648186

> <CNN_VS>
5.2556061745

> <CNNaffinity_variance>
0.3089098632

$$$$
34:0


 25 28  0  0  0  0  0  0  0  0999 V2000
   58.3423   27.4920   44.2721 C   0  0  0  0  0  0  0  0  0  0  0  0
   57.7524   28.9114   43.5923 S   0  0  0  0  0  0  0  0  0  0  0  0
   57.5723   29.6796   45.0839 C   0  0  0  0  0  0  0  0  0  0  0  0
   57.0871   30.8686   45.2952 N   0  0  0  0  0  0  0  0  0  0  0  0
   57.9348   28.8706   46.1011 N   0  0  0  0  0  0  0  0  0  0  0  0
   58.3772   27.6625   45.6542 C   0  0  0  0  0  0  0  0  0  0  0  0
   57.7374   32.1372   45.1082 C   0  0  0  0  0  0  0  0  0  0  0  0
   58.0931   32.4604   43.9434 O   0  0  0  0  0  0  0  0  0  0  0  0
   57.9619   33.1018   46.2427 C   0  0  0  0  0  0  0  0  0  0  0  0
   59.3521   33.0663   46.6953 N   0  0  0  0  0  0  0  0  0  0  0  0
   59.9206   32.1425   47.6069 C   0  0  0  0  0  0  0  0  0  0  0  0
   59.2712   31.0939   48.2680 C   0  0  0  0  0  0  0  0  0  0  0  0
   60.0249   30.2867   49.1357 C   0  0  0  0  0  0  0  0  0  0  0  0
   61.3988   30.5368   49.3250 C   0  0  0  0  0  0  0  0  0  0  0  0
   62.0238   31.5965   48.6475 C   0  0  0  0  0  0  0  0  0  0  0  0
   61.2538   32.3852   47.7898 C   0  0  0  0  0  0  0  0  0  0  0  0
   61.6931   33.5485   46.9703 C   0  0  0  0  0  0  0  0  0  0  0  0
   60.3957   33.9866   46.2445 C   0  0  0  0  0  0  0  0  0  0  0  0
   58.7941   26.5806   46.5985 C   0  0  0  0  0  0  0  0  0  0  0  0
   57.8453   25.4299   46.5074 C   0  0  0  0  0  0  0  0  0  0  0  0
   58.2149   24.1857   46.1428 N   0  0  0  0  0  0  0  0  0  0  0  0
   57.1137   23.4561   46.1175 N   0  0  0  0  0  0  0  0  0  0  0  0
   56.1120   24.2834   46.4574 C   0  0  0  0  0  0  0  0  0  0  0  0
   54.9109   23.9161   46.5319 O   0  0  0  0  0  0  0  0  0  0  0  0
   56.5157   25.5410   46.7067 N   0  0  0  0  0  0  0  0  0  0  0  0
  1  2  1  0
  2  3  1  0
  3  4  2  0
  4  7  1  0
  7  8  2  0
  7  9  1  0
  9 10  1  0
 10 11  1  0
 11 12  2  0
 12 13  1  0
 13 14  2  0
 14 15  1  0
 15 16  2  0
 16 17  1  0
 17 18  1  0
  3  5  1  0
  5  6  1  0
  6 19  1  0
 19 20  1  0
 20 21  2  0
 21 22  1  0
 22 23  1  0
 23 24  2  0
 23 25  1  0
  6  1  2  0
 25 20  1  0
 18 10  1  0
 16 11  1  0
M  CHG 1   5  -1
M  CHG 1  22  -1
M  CHG 1  25  -1
M  END
> <UniqueID>
35

> <SMILES>
O=C(CN1CCc2ccccc21)/N=c1/[n-]c(Cc2n[n-]c(=O)[n-]2)cs1

> <Energy>
120.73916554713429

> <Genealogy>
O=C(CN1CCc2ccccc21)N=c1[n-]c(Cc2n[n-]c(=O)[n-]2)cs1 (protonated)
O=C(CN1CCc2ccccc21)/N=c1/[n-]c(Cc2n[n-]c(=O)[n-]2)cs1 (cis-trans isomerization)
O=C(CN1CCc2ccccc21)/N=c1/[n-]c(Cc2n[n-]c(=O)[n-]2)cs1 (3D coordinates assigned)
O=C(CN1CCc2ccccc21)/N=c1/[n-]c(Cc2n[n-]c(=O)[n-]2)cs1 (nonaromatic ring conformer: 120.73916554713429 kcal/mol)

> <smiles>
O=C(CN1CCc2ccccc21)N=c1[nH]c(Cc2n[nH]c(=O)[nH]2)cs1

> <score_type>
oracle

> <origin>
adg

> <m_score__min__energy>
-14.32

> <m_primary>
energy

> <minimizedAffinity>
-7.14818

> <minimizedRMSD>
1.60265

> <CNNscore>
0.2398668230

> <CNNaffinity>
6.5011425018

> <CNN_VS>
1.5594084263

> <CNNaffinity_variance>
0.0819605589

$$$$
39:0


 27 30  0  0  0  0  0  0  0  0999 V2000
   58.2910   31.2630   45.4470 C   0  0  0  0  0  0  0  0  0  0  0  0
   58.4053   30.2735   46.3715 N   0  0  0  0  0  0  0  0  0  0  0  0
   58.9446   30.4618   47.5773 N   0  0  0  0  0  0  0  0  0  0  0  0
   59.4085   31.6938   47.9493 C   0  0  0  0  0  0  0  0  0  0  0  0
   59.8982   31.8669   49.1014 O   0  0  0  0  0  0  0  0  0  0  0  0
   59.3360   32.7672   47.0436 C   0  0  0  0  0  0  0  0  0  0  0  0
   59.8164   34.0462   47.3884 C   0  0  0  0  0  0  0  0  0  0  0  0
   59.7425   35.0987   46.4749 C   0  0  0  0  0  0  0  0  0  0  0  0
   59.1937   34.8894   45.2108 C   0  0  0  0  0  0  0  0  0  0  0  0
   58.7105   33.6298   44.8532 C   0  0  0  0  0  0  0  0  0  0  0  0
   58.7734   32.5527   45.7627 C   0  0  0  0  0  0  0  0  0  0  0  0
   57.6808   30.9075   44.1153 C   0  0  0  0  0  0  0  0  0  0  0  0
   57.4612   28.5346   43.9095 O   0  0  0  0  0  0  0  0  0  0  0  0
   56.9119   29.6272   44.2098 C   0  0  0  0  0  0  0  0  0  0  0  0
   55.5858   29.6375   44.6270 O   0  0  0  0  0  0  0  0  0  0  0  0
   58.9758   29.3242   48.5018 C   0  0  0  0  0  0  0  0  0  0  0  0
   59.0502   28.0383   47.7334 C   0  0  0  0  0  0  0  0  0  0  0  0
   60.2908   27.4517   47.4460 C   0  0  0  0  0  0  0  0  0  0  0  0
   60.3384   26.2751   46.6947 C   0  0  0  0  0  0  0  0  0  0  0  0
   59.1515   25.6967   46.2283 C   0  0  0  0  0  0  0  0  0  0  0  0
   59.1666   24.5179   45.4689 C   0  0  0  0  0  0  0  0  0  0  0  0
   57.9653   23.9664   45.0131 C   0  0  0  0  0  0  0  0  0  0  0  0
   56.7469   24.5874   45.3097 C   0  0  0  0  0  0  0  0  0  0  0  0
   56.7222   25.7643   46.0645 C   0  0  0  0  0  0  0  0  0  0  0  0
   55.5046   26.3732   46.3523 O   0  0  0  0  0  0  0  0  0  0  0  0
   57.9212   26.3237   46.5280 C   0  0  0  0  0  0  0  0  0  0  0  0
   57.9069   27.4690   47.2638 N   0  0  0  0  0  0  0  0  0  0  0  0
 13 14  2  0
 14 15  1  0
 14 12  1  0
 12  1  1  0
  1  2  2  0
  2  3  1  0
  3 16  1  0
 16 17  1  0
 17 18  2  0
 18 19  1  0
 19 20  2  0
 20 21  1  0
 21 22  2  0
 22 23  1  0
 23 24  2  0
 24 25  1  0
 24 26  1  0
 26 27  2  0
  3  4  1  0
  4  5  2  0
  4  6  1  0
  6  7  2  0
  7  8  1  0
  8  9  2  0
  9 10  1  0
 10 11  2  0
 11  1  1  0
 27 17  1  0
 11  6  1  0
 26 20  1  0
M  CHG 1  15  -1
M  CHG 1  25  -1
M  END
> <UniqueID>
40

> <SMILES>
O=C([O-])Cc1nn(Cc2ccc3cccc([O-])c3n2)c(=O)c2ccccc12

> <Energy>
53.52473973335126

> <Genealogy>
O=C([O-])Cc1nn(Cc2ccc3cccc([O-])c3n2)c(=O)c2ccccc12 (protonated)
O=C([O-])Cc1nn(Cc2ccc3cccc([O-])c3n2)c(=O)c2ccccc12 (3D coordinates assigned)
O=C([O-])Cc1nn(Cc2ccc3cccc([O-])c3n2)c(=O)c2ccccc12 (optimized conformer: 53.52473973335126 kcal/mol)

> <smiles>
O=C(O)Cc1nn(Cc2ccc3cccc(O)c3n2)c(=O)c2ccccc12

> <score_type>
oracle

> <origin>
adg

> <m_score__min__energy>
-15.279999999999999

> <m_primary>
energy

> <minimizedAffinity>
-8.84452

> <minimizedRMSD>
0.72248

> <CNNscore>
0.7879701257

> <CNNaffinity>
6.5372166634

> <CNN_VS>
5.1511316299

> <CNNaffinity_variance>
0.0186808240

$$$$
40:0


 32 36  0  0  0  0  0  0  0  0999 V2000
   56.3799   29.2282   44.9674 C   0  0  0  0  0  0  0  0  0  0  0  0
   56.6219   30.4938   44.8273 N   0  0  0  0  0  0  0  0  0  0  0  0
   58.6233   29.5573   45.3354 N   0  0  0  0  0  0  0  0  0  0  0  0
   59.5717   29.9134   46.2502 C   0  0  0  0  0  0  0  0  0  0  0  0
   60.3560   29.1222   46.9280 N   0  0  0  0  0  0  0  0  0  0  0  0
   59.5924   31.2520   46.4598 N   0  0  0  0  0  0  0  0  0  0  0  0
   58.5675   31.6838   45.6953 C   0  0  0  0  0  0  0  0  0  0  0  0
   58.0925   32.8981   45.6793 N   0  0  0  0  0  0  0  0  0  0  0  0
   57.9934   30.6693   45.0360 N   0  0  0  0  0  0  0  0  0  0  0  0
   57.6398   28.5218   45.2721 C   0  0  0  0  0  0  0  0  0  0  0  0
   57.8795   27.2520   44.9238 C   0  0  0  0  0  0  0  0  0  0  0  0
   57.6047   26.0888   45.8043 C   0  0  0  0  0  0  0  0  0  0  0  0
   56.2921   25.6756   46.1097 C   0  0  0  0  0  0  0  0  0  0  0  0
   55.1932   26.3424   45.5777 O   0  0  0  0  0  0  0  0  0  0  0  0
   56.0877   24.6293   46.9538 N   0  0  0  0  0  0  0  0  0  0  0  0
   57.1330   23.9820   47.5319 C   0  0  0  0  0  0  0  0  0  0  0  0
   56.9270   23.0165   48.3118 O   0  0  0  0  0  0  0  0  0  0  0  0
   58.4047   24.3786   47.2731 N   0  0  0  0  0  0  0  0  0  0  0  0
   58.6628   25.4146   46.4355 C   0  0  0  0  0  0  0  0  0  0  0  0
   59.8587   25.7551   46.2258 O   0  0  0  0  0  0  0  0  0  0  0  0
   55.1683   24.3363   47.1491 H   0  0  0  0  0  0  0  0  0  0  0  0
   58.5640   34.1426   46.3174 C   0  0  0  0  0  0  0  0  0  0  0  0
   59.3349   34.0425   47.6243 C   0  0  0  0  0  0  0  0  0  0  0  0
   60.0747   34.3070   46.3122 C   0  0  0  0  0  0  0  0  0  0  0  0
   60.3402   28.7407   48.3362 C   0  0  0  0  0  0  0  0  0  0  0  0
   60.1577   29.9643   49.2040 C   0  0  0  0  0  0  0  0  0  0  0  0
   61.2192   30.8528   49.4659 C   0  0  0  0  0  0  0  0  0  0  0  0
   61.0278   31.9483   50.3131 C   0  0  0  0  0  0  0  0  0  0  0  0
   59.7857   32.1584   50.9210 C   0  0  0  0  0  0  0  0  0  0  0  0
   59.5432   33.5442   51.9686 Cl  0  0  0  0  0  0  0  0  0  0  0  0
   58.7381   31.2635   50.6930 C   0  0  0  0  0  0  0  0  0  0  0  0
   58.9262   30.1637   49.8503 C   0  0  0  0  0  0  0  0  0  0  0  0
  1  2  2  0
  2  3  1  0
  3  4  1  0
  4  5  2  0
  5 22  1  0
 22 23  1  0
 23 24  1  0
  4  6  1  0
  6  7  1  0
  7  8  2  0
  8 25  1  0
 25 26  1  0
 26 27  2  0
 27 28  1  0
 28 29  2  0
 29 30  1  0
 29 31  1  0
 31 32  2  0
  7  9  1  0
  9 10  1  0
 10 11  2  0
 11 12  1  0
 12 13  2  0
 13 14  1  0
 13 15  1  0
 15 16  1  0
 16 17  2  0
 16 18  1  0
 18 19  1  0
 19 20  2  0
 10  1  1  0
 19 12  1  0
  9  3  1  0
 24 22  1  0
 32 26  1  0
 15 21  1  0
M  CHG 1   6  -1
M  CHG 1  14  -1
M  CHG 1  18  -1
M  END
> <UniqueID>
41

> <SMILES>
O=c1[n-]c(=O)c(C=C2C=Nn3/c(=N/C4CC4)[n-]/c(=N/Cc4ccc(Cl)cc4)n32)c([O-])[nH]1

> <Energy>
434.65055729246455

> <Genealogy>
O=c1[n-]c(=O)c(C=C2C=Nn3c(=NC4CC4)[n-]c(=NCc4ccc(Cl)cc4)n32)c([O-])[nH]1 (protonated)
O=c1[n-]c(=O)c(C=C2C=Nn3/c(=N/C4CC4)[n-]/c(=N/Cc4ccc(Cl)cc4)n32)c([O-])[nH]1 (cis-trans isomerization)
O=c1[n-]c(=O)c(C=C2C=Nn3/c(=N/C4CC4)[n-]/c(=N/Cc4ccc(Cl)cc4)n32)c([O-])[nH]1 (3D coordinates assigned)
O=c1[n-]c(=O)c(C=C2C=Nn3/c(=N/C4CC4)[n-]/c(=N/Cc4ccc(Cl)cc4)n32)c([O-])[nH]1 (nonaromatic ring conformer: 434.65055729246455 kcal/mol)

> <smiles>
O=c1[nH]c(O)c(C=C2C=Nn3c(=NC4CC4)[nH]c(=NCc4ccc(Cl)cc4)n32)c(=O)[nH]1

> <score_type>
oracle

> <origin>
adg

> <m_score__min__energy>
-15.6

> <m_primary>
energy

> <minimizedAffinity>
-8.11639

> <minimizedRMSD>
0.57815

> <CNNscore>
0.1383676231

> <CNNaffinity>
6.7121138573

> <CNN_VS>
0.9287392497

> <CNNaffinity_variance>
0.0038663859

$$$$
42:0


 29 32  0  0  0  0  0  0  0  0999 V2000
   59.2757   25.4153   46.0232 N   0  0  0  0  0  0  0  0  0  0  0  0
   58.1132   27.3642   43.8080 C   0  0  0  0  0  0  0  0  0  0  0  0
   58.7036   27.7228   45.1407 C   0  0  0  0  0  0  0  0  0  0  0  0
   59.2142   26.8424   46.0841 C   0  0  0  0  0  0  0  0  0  0  0  0
   59.7794   27.6392   47.0511 C   0  0  0  0  0  0  0  0  0  0  0  0
   60.3703   27.2344   48.0876 O   0  0  0  0  0  0  0  0  0  0  0  0
   59.5854   28.9361   46.7341 N   0  0  0  0  0  0  0  0  0  0  0  0
   58.9477   28.9891   45.5649 N   0  0  0  0  0  0  0  0  0  0  0  0
   58.5802   30.2192   44.8572 C   0  0  0  0  0  0  0  0  0  0  0  0
   59.9976   30.0657   47.5242 C   0  0  0  0  0  0  0  0  0  0  0  0
   61.1825   30.7525   47.2154 C   0  0  0  0  0  0  0  0  0  0  0  0
   61.5764   31.8568   47.9793 C   0  0  0  0  0  0  0  0  0  0  0  0
   60.7859   32.2859   49.0493 C   0  0  0  0  0  0  0  0  0  0  0  0
   59.6004   31.6119   49.3571 C   0  0  0  0  0  0  0  0  0  0  0  0
   59.2043   30.5080   48.5951 C   0  0  0  0  0  0  0  0  0  0  0  0
   58.1504   24.5441   46.1795 C   0  0  0  0  0  0  0  0  0  0  0  0
   58.0695   23.5247   45.4439 O   0  0  0  0  0  0  0  0  0  0  0  0
   57.1521   24.7498   47.2909 C   0  0  0  0  0  0  0  0  0  0  0  0
   56.1203   23.7116   47.2722 N   0  0  0  0  0  0  0  0  0  0  0  0
   54.9565   23.7387   46.5842 C   0  0  0  0  0  0  0  0  0  0  0  0
   54.5686   24.7756   45.7429 O   0  0  0  0  0  0  0  0  0  0  0  0
   54.2153   22.6047   46.8501 C   0  0  0  0  0  0  0  0  0  0  0  0
   54.9319   21.8773   47.7738 C   0  0  0  0  0  0  0  0  0  0  0  0
   56.1021   22.5739   47.9991 C   0  0  0  0  0  0  0  0  0  0  0  0
   57.1228   22.1728   48.8533 O   0  0  0  0  0  0  0  0  0  0  0  0
   54.5036   20.5435   48.3048 C   0  0  0  0  0  0  0  0  0  0  0  0
   52.9902   20.3416   48.0877 C   0  0  0  0  0  0  0  0  0  0  0  0
   52.5546   20.7518   46.6634 C   0  0  0  0  0  0  0  0  0  0  0  0
   52.8371   22.2431   46.3851 C   0  0  0  0  0  0  0  0  0  0  0  0
  2  3  1  0
  3  4  2  0
  4  1  1  0
  1 16  1  0
 16 17  2  0
 16 18  1  0
 18 19  1  0
 19 20  1  0
 20 21  1  0
 20 22  2  0
 22 23  1  0
 23 24  2  0
 24 25  1  0
 23 26  1  0
 26 27  1  0
 27 28  1  0
 28 29  1  0
  4  5  1  0
  5  6  2  0
  5  7  1  0
  7 10  1  0
 10 11  2  0
 11 12  1  0
 12 13  2  0
 13 14  1  0
 14 15  2  0
  7  8  1  0
  8  9  1  0
  8  3  1  0
 24 19  1  0
 15 10  1  0
 29 22  1  0
M  CHG 1   1  -1
M  CHG 1  21  -1
M  CHG 1  25  -1
M  END
> <UniqueID>
43

> <SMILES>
Cc1c([N-]C(=O)Cn2c([O-])c3c(c2[O-])CCCC3)c(=O)n(-c2ccccc2)n1C

> <Energy>
128.46177579164234

> <Genealogy>
Cc1c([N-]C(=O)Cn2c([O-])c3c(c2[O-])CCCC3)c(=O)n(-c2ccccc2)n1C (protonated)
Cc1c([N-]C(=O)Cn2c([O-])c3c(c2[O-])CCCC3)c(=O)n(-c2ccccc2)n1C (3D coordinates assigned)
Cc1c([N-]C(=O)Cn2c([O-])c3c(c2[O-])CCCC3)c(=O)n(-c2ccccc2)n1C (nonaromatic ring conformer: 128.46177579164234 kcal/mol)

> <smiles>
Cc1c(NC(=O)Cn2c(O)c3c(c2O)CCCC3)c(=O)n(-c2ccccc2)n1C

> <score_type>
oracle

> <origin>
adg

> <m_score__min__energy>
-14.93

> <m_primary>
energy

> <minimizedAffinity>
-6.87353

> <minimizedRMSD>
2.70285

> <CNNscore>
0.1584808528

> <CNNaffinity>
5.6606154442

> <CNN_VS>
0.8970991373

> <CNNaffinity_variance>
0.2364546657

$$$$
73:0


 23 25  0  0  0  0  0  0  0  0999 V2000
   55.2652   22.1803   45.4798 O   0  0  0  0  0  0  0  0  0  0  0  0
   55.7583   23.3266   45.6474 C   0  0  0  0  0  0  0  0  0  0  0  0
   57.1064   23.4755   45.7435 N   0  0  0  0  0  0  0  0  0  0  0  0
   57.6687   24.6987   45.9245 C   0  0  0  0  0  0  0  0  0  0  0  0
   59.0561   24.8409   46.0201 C   0  0  0  0  0  0  0  0  0  0  0  0
   59.6163   26.1077   46.2075 C   0  0  0  0  0  0  0  0  0  0  0  0
   58.7936   27.2406   46.3023 C   0  0  0  0  0  0  0  0  0  0  0  0
   57.4013   27.1009   46.1998 C   0  0  0  0  0  0  0  0  0  0  0  0
   56.8378   25.8347   46.0123 C   0  0  0  0  0  0  0  0  0  0  0  0
   55.4904   25.6827   45.9167 N   0  0  0  0  0  0  0  0  0  0  0  0
   54.9316   24.4570   45.7356 C   0  0  0  0  0  0  0  0  0  0  0  0
   53.6795   24.3462   45.6499 O   0  0  0  0  0  0  0  0  0  0  0  0
   59.5121   28.8280   46.5517 S   0  0  0  0  0  0  0  0  0  0  0  0
   60.5493   29.1139   45.4999 O   0  0  0  0  0  0  0  0  0  0  0  0
   60.1660   28.8596   47.9032 O   0  0  0  0  0  0  0  0  0  0  0  0
   58.2866   30.0531   46.4852 N   0  0  0  0  0  0  0  0  0  0  0  0
   58.4852   31.3984   46.0293 C   0  0  0  0  0  0  0  0  0  0  0  0
   59.2649   32.3239   46.7503 C   0  0  0  0  0  0  0  0  0  0  0  0
   59.4406   33.6240   46.2692 C   0  0  0  0  0  0  0  0  0  0  0  0
   58.8394   34.0146   45.0702 C   0  0  0  0  0  0  0  0  0  0  0  0
   58.0620   33.1060   44.3496 C   0  0  0  0  0  0  0  0  0  0  0  0
   57.8831   31.8013   44.8259 C   0  0  0  0  0  0  0  0  0  0  0  0
   57.1079   30.9065   44.0978 O   0  0  0  0  0  0  0  0  0  0  0  0
  1  2  2  0
  2  3  1  0
  3  4  1  0
  4  5  2  0
  5  6  1  0
  6  7  2  0
  7 13  1  0
 13 14  2  0
 13 15  2  0
 13 16  1  0
 16 17  1  0
 17 18  2  0
 18 19  1  0
 19 20  2  0
 20 21  1  0
 21 22  2  0
 22 23  1  0
  7  8  1  0
  8  9  2  0
  9 10  1  0
 10 11  1  0
 11 12  2  0
 11  2  1  0
  9  4  1  0
 22 17  1  0
M  CHG 1   3  -1
M  CHG 1  10  -1
M  CHG 1  16  -1
M  CHG 1  23  -1
M  END
> <UniqueID>
71

> <SMILES>
O=c1[n-]c2ccc(S(=O)(=O)[N-]c3ccccc3[O-])cc2[n-]c1=O

> <Energy>
41.090416808798516

> <Genealogy>
O=c1[n-]c2ccc(S(=O)(=O)[N-]c3ccccc3[O-])cc2[n-]c1=O (protonated)
O=c1[n-]c2ccc(S(=O)(=O)[N-]c3ccccc3[O-])cc2[n-]c1=O (3D coordinates assigned)
O=c1[n-]c2ccc(S(=O)(=O)[N-]c3ccccc3[O-])cc2[n-]c1=O (optimized conformer: 41.090416808798516 kcal/mol)

> <smiles>
O=c1[nH]c2ccc(S(=O)(=O)Nc3ccccc3O)cc2[nH]c1=O

> <score_type>
oracle

> <origin>
adg

> <m_score__min__energy>
-15.56

> <m_primary>
energy

> <minimizedAffinity>
-8.35461

> <minimizedRMSD>
2.20746

> <CNNscore>
0.3480491936

> <CNNaffinity>
5.8194127083

> <CNN_VS>
2.0254418850

> <CNNaffinity_variance>
0.0003816714

$$$$
81:0


 24 26  0  0  0  0  0  0  0  0999 V2000
   59.3830   34.4116   45.9327 C   0  0  0  0  0  0  0  0  0  0  0  0
   58.0078   33.9873   45.0579 S   0  0  0  0  0  0  0  0  0  0  0  0
   58.0180   32.4082   45.6212 C   0  0  0  0  0  0  0  0  0  0  0  0
   57.1506   31.5094   45.2628 N   0  0  0  0  0  0  0  0  0  0  0  0
   59.0559   32.1719   46.4543 N   0  0  0  0  0  0  0  0  0  0  0  0
   59.8145   33.2854   46.6365 C   0  0  0  0  0  0  0  0  0  0  0  0
   61.0184   33.2732   47.5442 C   0  0  0  0  0  0  0  0  0  0  0  0
   62.3155   33.4121   46.7365 C   0  0  0  0  0  0  0  0  0  0  0  0
   63.5313   33.4590   47.6791 C   0  0  0  0  0  0  0  0  0  0  0  0
   63.4950   32.4496   48.7675 N   0  0  0  0  0  0  0  0  0  0  0  0
   62.4478   31.4200   48.6151 C   0  0  0  0  0  0  0  0  0  0  0  0
   61.0386   32.0197   48.4525 C   0  0  0  0  0  0  0  0  0  0  0  0
   63.4553   33.1900   50.3539 S   0  0  0  0  0  0  0  0  0  0  0  0
   62.6914   34.4837   50.3051 O   0  0  0  0  0  0  0  0  0  0  0  0
   64.8486   33.4598   50.8479 O   0  0  0  0  0  0  0  0  0  0  0  0
   62.6329   32.0997   51.4958 C   0  0  0  0  0  0  0  0  0  0  0  0
   57.4522   30.3113   44.5320 C   0  0  0  0  0  0  0  0  0  0  0  0
   56.9973   30.1847   43.3645 O   0  0  0  0  0  0  0  0  0  0  0  0
   58.2233   29.2000   45.1217 C   0  0  0  0  0  0  0  0  0  0  0  0
   57.6590   28.2351   45.8770 N   0  0  0  0  0  0  0  0  0  0  0  0
   58.6835   27.4470   46.2522 C   0  0  0  0  0  0  0  0  0  0  0  0
   58.5241   26.3190   47.0462 O   0  0  0  0  0  0  0  0  0  0  0  0
   59.8886   27.8929   45.7609 C   0  0  0  0  0  0  0  0  0  0  0  0
   59.5975   29.0293   45.0392 C   0  0  0  0  0  0  0  0  0  0  0  0
  1  2  1  0
  2  3  1  0
  3  4  2  0
  4 17  1  0
 17 18  2  0
 17 19  1  0
 19 20  1  0
 20 21  1  0
 21 22  1  0
 21 23  2  0
 23 24  1  0
  3  5  1  0
  5  6  1  0
  6  7  1  0
  7  8  1  0
  8  9  1  0
  9 10  1  0
 10 13  1  0
 13 14  2  0
 13 15  2  0
 13 16  1  0
 10 11  1  0
 11 12  1  0
  6  1  2  0
 12  7  1  0
 24 19  2  0
M  CHG 1   5  -1
M  CHG 1  20  -1
M  CHG 1  22  -1
M  END
> <UniqueID>
78

> <SMILES>
CS(=O)(=O)N1CCC(c2cs/c(=N/C(=O)c3ccc([O-])[n-]3)[n-]2)CC1

> <Energy>
103.76860049866536

> <Genealogy>
CS(=O)(=O)N1CCC(c2csc(=NC(=O)c3ccc([O-])[n-]3)[n-]2)CC1 (protonated)
CS(=O)(=O)N1CCC(c2cs/c(=N/C(=O)c3ccc([O-])[n-]3)[n-]2)CC1 (cis-trans isomerization)
CS(=O)(=O)N1CCC(c2cs/c(=N/C(=O)c3ccc([O-])[n-]3)[n-]2)CC1 (3D coordinates assigned)
CS(=O)(=O)N1CCC(c2cs/c(=N/C(=O)c3ccc([O-])[n-]3)[n-]2)CC1 (nonaromatic ring conformer: 103.76860049866536 kcal/mol)

> <smiles>
CS(=O)(=O)N1CCC(c2csc(=NC(=O)c3ccc(O)[nH]3)[nH]2)CC1

> <score_type>
oracle

> <origin>
adg

> <m_score__min__energy>
-15.460000000000001

> <m_primary>
energy

> <minimizedAffinity>
-7.77689

> <minimizedRMSD>
1.39533

> <CNNscore>
0.9010031223

> <CNNaffinity>
7.1109337807

> <CNN_VS>
6.4069733620

> <CNNaffinity_variance>
0.3300387561

$$$$
88:0


 24 26  0  0  0  0  0  0  0  0999 V2000
   57.3546   28.4974   45.4043 C   0  0  0  0  0  0  0  0  0  0  0  0
   56.2338   28.9802   45.0898 O   0  0  0  0  0  0  0  0  0  0  0  0
   57.3914   27.3568   46.2696 N   0  0  0  0  0  0  0  0  0  0  0  0
   57.1957   24.9298   45.6560 C   0  0  0  0  0  0  0  0  0  0  0  0
   57.9980   23.7822   45.5181 C   0  0  0  0  0  0  0  0  0  0  0  0
   59.3499   24.0075   45.7407 C   0  0  0  0  0  0  0  0  0  0  0  0
   59.5633   25.6317   46.1165 S   0  0  0  0  0  0  0  0  0  0  0  0
   57.9429   26.0667   45.9722 C   0  0  0  0  0  0  0  0  0  0  0  0
   54.9200   25.9895   45.9295 N   0  0  0  0  0  0  0  0  0  0  0  0
   55.7281   24.9045   45.4813 C   0  0  0  0  0  0  0  0  0  0  0  0
   55.1785   23.9163   44.9234 O   0  0  0  0  0  0  0  0  0  0  0  0
   53.9437   25.9596   45.8068 H   0  0  0  0  0  0  0  0  0  0  0  0
   58.6097   29.1229   44.8564 C   0  0  0  0  0  0  0  0  0  0  0  0
   58.8389   30.4371   45.4588 N   0  0  0  0  0  0  0  0  0  0  0  0
   58.4219   31.6322   44.9854 C   0  0  0  0  0  0  0  0  0  0  0  0
   57.6334   31.7928   43.8524 O   0  0  0  0  0  0  0  0  0  0  0  0
   58.8964   32.6560   45.7815 C   0  0  0  0  0  0  0  0  0  0  0  0
   59.6092   32.0628   46.7993 C   0  0  0  0  0  0  0  0  0  0  0  0
   59.5820   30.7040   46.5559 C   0  0  0  0  0  0  0  0  0  0  0  0
   60.2314   29.7375   47.3140 O   0  0  0  0  0  0  0  0  0  0  0  0
   60.3667   32.8223   47.8432 C   0  0  0  0  0  0  0  0  0  0  0  0
   59.8407   34.2706   47.9377 C   0  0  0  0  0  0  0  0  0  0  0  0
   59.6602   34.9062   46.5421 C   0  0  0  0  0  0  0  0  0  0  0  0
   58.6399   34.1293   45.6853 C   0  0  0  0  0  0  0  0  0  0  0  0
  9 10  1  0
 10 11  2  0
 10  4  1  0
  4  5  1  0
  5  6  2  0
  6  7  1  0
  7  8  1  0
  8  3  1  0
  3  1  1  0
  1  2  2  0
  1 13  1  0
 13 14  1  0
 14 15  1  0
 15 16  1  0
 15 17  2  0
 17 18  1  0
 18 19  2  0
 19 20  1  0
 18 21  1  0
 21 22  1  0
 22 23  1  0
 23 24  1  0
  8  4  2  0
 19 14  1  0
 24 17  1  0
  9 12  1  0
M  CHG 1   3  -1
M  CHG 1   9  -1
M  CHG 1  16  -1
M  CHG 1  20  -1
M  END
> <UniqueID>
84

> <SMILES>
[NH-]C(=O)c1ccsc1[N-]C(=O)Cn1c([O-])c2c(c1[O-])CCCC2

> <Energy>
94.95500903168617

> <Genealogy>
[NH-]C(=O)c1ccsc1[N-]C(=O)Cn1c([O-])c2c(c1[O-])CCCC2 (protonated)
[NH-]C(=O)c1ccsc1[N-]C(=O)Cn1c([O-])c2c(c1[O-])CCCC2 (3D coordinates assigned)
[NH-]C(=O)c1ccsc1[N-]C(=O)Cn1c([O-])c2c(c1[O-])CCCC2 (nonaromatic ring conformer: 94.95500903168617 kcal/mol)

> <smiles>
NC(=O)c1ccsc1NC(=O)Cn1c(O)c2c(c1O)CCCC2

> <score_type>
oracle

> <origin>
adg

> <m_score__min__energy>
-16.050000000000001

> <m_primary>
energy

> <minimizedAffinity>
-6.87846

> <minimizedRMSD>
0.80071

> <CNNscore>
0.6093494296

> <CNNaffinity>
6.7627406120

> <CNN_VS>
4.1208720207

> <CNNaffinity_variance>
0.2726575434

$$$$
5:0


 32 35  0  0  0  0  0  0  0  0999 V2000
   57.5136   30.4003   44.7657 C   0  0  0  0  0  0  0  0  0  0  0  0
   56.2674   30.2661   44.6261 O   0  0  0  0  0  0  0  0  0  0  0  0
   59.1280   33.0309   46.9887 C   0  0  0  0  0  0  0  0  0  0  0  0
   59.1246   34.1398   46.1282 C   0  0  0  0  0  0  0  0  0  0  0  0
   58.6208   34.0249   44.8301 C   0  0  0  0  0  0  0  0  0  0  0  0
   58.1043   32.8079   44.3811 C   0  0  0  0  0  0  0  0  0  0  0  0
   58.0676   31.6924   45.2352 C   0  0  0  0  0  0  0  0  0  0  0  0
   58.5752   31.8181   46.5418 C   0  0  0  0  0  0  0  0  0  0  0  0
   59.7024   33.1355   48.3871 C   0  0  0  0  0  0  0  0  0  0  0  0
   64.4773   32.0414   50.2521 C   0  0  0  0  0  0  0  0  0  0  0  0
   63.8685   32.8694   49.1979 N   0  0  0  0  0  0  0  0  0  0  0  0
   63.0384   32.0311   48.3023 C   0  0  0  0  0  0  0  0  0  0  0  0
   62.0266   32.8787   47.5217 C   0  0  0  0  0  0  0  0  0  0  0  0
   61.1060   33.6104   48.4238 N   0  0  0  0  0  0  0  0  0  0  0  0
   61.6257   33.8262   49.7922 C   0  0  0  0  0  0  0  0  0  0  0  0
   63.1467   34.0341   49.7729 C   0  0  0  0  0  0  0  0  0  0  0  0
   58.3959   29.3206   44.4250 N   0  0  0  0  0  0  0  0  0  0  0  0
   58.7716   28.2221   45.2694 C   0  0  0  0  0  0  0  0  0  0  0  0
   59.6086   28.4749   46.3630 C   0  0  0  0  0  0  0  0  0  0  0  0
   59.9999   27.4335   47.2090 C   0  0  0  0  0  0  0  0  0  0  0  0
   59.5366   26.1348   46.9849 C   0  0  0  0  0  0  0  0  0  0  0  0
   58.6543   25.8728   45.9265 C   0  0  0  0  0  0  0  0  0  0  0  0
   58.2836   26.9184   45.0635 C   0  0  0  0  0  0  0  0  0  0  0  0
   58.1750   24.4949   45.6937 C   0  0  0  0  0  0  0  0  0  0  0  0
   59.0116   23.4485   45.5447 N   0  0  0  0  0  0  0  0  0  0  0  0
   58.2952   22.3681   45.2761 N   0  0  0  0  0  0  0  0  0  0  0  0
   56.9934   22.7104   45.2481 C   0  0  0  0  0  0  0  0  0  0  0  0
   56.8707   24.0587   45.5177 C   0  0  0  0  0  0  0  0  0  0  0  0
   55.6039   24.7923   45.6877 C   0  0  0  0  0  0  0  0  0  0  0  0
   55.5966   26.1310   46.1737 N   0  0  0  0  0  0  0  0  0  0  0  0
   54.5103   24.2199   45.4358 O   0  0  0  0  0  0  0  0  0  0  0  0
   56.4460   26.5868   46.3735 H   0  0  0  0  0  0  0  0  0  0  0  0
 10 11  1  0
 11 12  1  0
 12 13  1  0
 13 14  1  0
 14  9  1  0
  9  3  1  0
  3  4  2  0
  4  5  1  0
  5  6  2  0
  6  7  1  0
  7  1  1  0
  1  2  2  0
  1 17  1  0
 17 18  1  0
 18 19  2  0
 19 20  1  0
 20 21  2  0
 21 22  1  0
 22 24  1  0
 24 25  2  0
 25 26  1  0
 26 27  1  0
 27 28  2  0
 28 29  1  0
 29 30  1  0
 29 31  2  0
 22 23  2  0
  7  8  2  0
 14 15  1  0
 15 16  1  0
 16 11  1  0
  8  3  1  0
 23 18  1  0
 28 24  1  0
 30 32  1  0
M  CHG 1  17  -1
M  CHG 1  26  -1
M  CHG 1  30  -1
M  END
> <UniqueID>
6

> <SMILES>
CN1CCN(Cc2cccc(C(=O)[N-]c3cccc(-c4n[n-]cc4C([NH-])=O)c3)c2)CC1

> <Energy>
110.93123611312339

> <Genealogy>
CN1CCN(Cc2cccc(C(=O)[N-]c3cccc(-c4n[n-]cc4C([NH-])=O)c3)c2)CC1 (protonated)
CN1CCN(Cc2cccc(C(=O)[N-]c3cccc(-c4n[n-]cc4C([NH-])=O)c3)c2)CC1 (3D coordinates assigned)
CN1CCN(Cc2cccc(C(=O)[N-]c3cccc(-c4n[n-]cc4C([NH-])=O)c3)c2)CC1 (nonaromatic ring conformer: 110.93123611312339 kcal/mol)

> <smiles>
CN1CCN(Cc2cccc(C(=O)Nc3cccc(-c4n[nH]cc4C(N)=O)c3)c2)CC1

> <score_type>
oracle

> <origin>
adg

> <m_score__min__energy>
-16.170000000000002

> <m_primary>
energy

> <minimizedAffinity>
-10.09340

> <minimizedRMSD>
1.11083

> <CNNscore>
0.6446822882

> <CNNaffinity>
7.1288394928

> <CNN_VS>
4.5958366394

> <CNNaffinity_variance>
0.1571531296

$$$$
7:0


 28 30  0  0  0  0  0  0  0  0999 V2000
   57.8848   32.1253   43.3436 C   0  0  0  0  0  0  0  0  0  0  0  0
   57.6463   32.0601   42.1084 O   0  0  0  0  0  0  0  0  0  0  0  0
   58.4150   29.3297   45.6406 N   0  0  0  0  0  0  0  0  0  0  0  0
   58.7999   30.4916   45.0709 C   0  0  0  0  0  0  0  0  0  0  0  0
   57.8404   30.9052   44.1628 C   0  0  0  0  0  0  0  0  0  0  0  0
   56.8314   29.9592   44.1694 C   0  0  0  0  0  0  0  0  0  0  0  0
   57.2256   29.0090   45.0867 C   0  0  0  0  0  0  0  0  0  0  0  0
   56.5102   27.8517   45.3743 O   0  0  0  0  0  0  0  0  0  0  0  0
   60.4481   29.0688   50.1851 C   0  0  0  0  0  0  0  0  0  0  0  0
   60.1234   28.4342   48.8652 C   0  0  0  0  0  0  0  0  0  0  0  0
   60.5812   27.1412   48.5722 C   0  0  0  0  0  0  0  0  0  0  0  0
   60.3092   26.5653   47.3288 C   0  0  0  0  0  0  0  0  0  0  0  0
   59.5945   27.2798   46.3652 C   0  0  0  0  0  0  0  0  0  0  0  0
   59.1508   28.5873   46.6313 C   0  0  0  0  0  0  0  0  0  0  0  0
   59.4211   29.1567   47.8884 C   0  0  0  0  0  0  0  0  0  0  0  0
   58.2020   33.3800   43.9539 N   0  0  0  0  0  0  0  0  0  0  0  0
   57.5896   33.8543   45.1910 C   0  0  0  0  0  0  0  0  0  0  0  0
   58.5618   33.7358   46.3322 C   0  0  0  0  0  0  0  0  0  0  0  0
   58.2527   32.9544   47.4572 C   0  0  0  0  0  0  0  0  0  0  0  0
   59.1723   32.8307   48.5025 C   0  0  0  0  0  0  0  0  0  0  0  0
   60.4125   33.4793   48.4343 C   0  0  0  0  0  0  0  0  0  0  0  0
   60.7226   34.2626   47.3119 C   0  0  0  0  0  0  0  0  0  0  0  0
   59.8039   34.3859   46.2660 C   0  0  0  0  0  0  0  0  0  0  0  0
   61.5609   33.3337   49.7606 S   0  0  0  0  0  0  0  0  0  0  0  0
   60.7062   33.3027   51.2612 N   0  0  0  0  0  0  0  0  0  0  0  0
   62.5056   34.5030   49.7501 O   0  0  0  0  0  0  0  0  0  0  0  0
   62.3571   32.0697   49.6078 O   0  0  0  0  0  0  0  0  0  0  0  0
   60.1662   34.1620   51.3628 H   0  0  0  0  0  0  0  0  0  0  0  0
  9 10  1  0
 10 11  2  0
 11 12  1  0
 12 13  2  0
 13 14  1  0
 14  3  1  0
  3  4  1  0
  4  5  2  0
  5  1  1  0
  1  2  2  0
  1 16  1  0
 16 17  1  0
 17 18  1  0
 18 19  2  0
 19 20  1  0
 20 21  2  0
 21 24  1  0
 24 25  1  0
 24 26  2  0
 24 27  2  0
 21 22  1  0
 22 23  2  0
  5  6  1  0
  6  7  2  0
  7  8  1  0
 14 15  2  0
 15 10  1  0
  7  3  1  0
 23 18  1  0
 25 28  1  0
M  CHG 1   8  -1
M  CHG 1  16  -1
M  CHG 1  25  -1
M  END
> <UniqueID>
7

> <SMILES>
Cc1cccc(-n2cc(C(=O)[N-]Cc3ccc(S([NH-])(=O)=O)cc3)cc2[O-])c1

> <Energy>
72.97974207457032

> <Genealogy>
Cc1cccc(-n2cc(C(=O)[N-]Cc3ccc(S([NH-])(=O)=O)cc3)cc2[O-])c1 (protonated)
Cc1cccc(-n2cc(C(=O)[N-]Cc3ccc(S([NH-])(=O)=O)cc3)cc2[O-])c1 (3D coordinates assigned)
Cc1cccc(-n2cc(C(=O)[N-]Cc3ccc(S([NH-])(=O)=O)cc3)cc2[O-])c1 (optimized conformer: 72.97974207457032 kcal/mol)

> <smiles>
Cc1cccc(-n2cc(C(=O)NCc3ccc(S(N)(=O)=O)cc3)cc2O)c1

> <score_type>
oracle

> <origin>
adg

> <m_score__min__energy>
-15.35

> <m_primary>
energy

> <minimizedAffinity>
-7.93060

> <minimizedRMSD>
1.74113

> <CNNscore>
0.6921578646

> <CNNaffinity>
6.7327880859

> <CNN_VS>
4.6601524353

> <CNNaffinity_variance>
0.0099659404

$$$$
23:0


 32 35  0  0  0  0  0  0  0  0999 V2000
   58.1987   31.8367   45.6541 C   0  0  0  0  0  0  0  0  0  0  0  0
   57.8941   31.0403   44.5353 C   0  0  0  0  0  0  0  0  0  0  0  0
   58.2770   29.7007   44.4887 C   0  0  0  0  0  0  0  0  0  0  0  0
   59.0014   29.1335   45.5489 C   0  0  0  0  0  0  0  0  0  0  0  0
   59.3139   29.9246   46.6612 C   0  0  0  0  0  0  0  0  0  0  0  0
   58.9250   31.2702   46.7234 C   0  0  0  0  0  0  0  0  0  0  0  0
   59.3039   32.1987   48.1874 S   0  0  0  0  0  0  0  0  0  0  0  0
   58.9468   31.4074   49.4131 O   0  0  0  0  0  0  0  0  0  0  0  0
   58.4611   33.4452   48.1904 O   0  0  0  0  0  0  0  0  0  0  0  0
   61.0059   32.6132   48.2746 N   0  0  0  0  0  0  0  0  0  0  0  0
   61.4418   33.2961   47.0431 C   0  0  0  0  0  0  0  0  0  0  0  0
   62.9739   33.4467   47.0150 C   0  0  0  0  0  0  0  0  0  0  0  0
   63.5999   33.3563   48.4143 C   0  0  0  0  0  0  0  0  0  0  0  0
   62.7094   34.0341   49.4603 C   0  0  0  0  0  0  0  0  0  0  0  0
   61.2773   33.4485   49.4648 C   0  0  0  0  0  0  0  0  0  0  0  0
   58.3646   34.2580   45.0172 C   0  0  0  0  0  0  0  0  0  0  0  0
   57.7793   33.1753   45.7378 O   0  0  0  0  0  0  0  0  0  0  0  0
   59.3586   27.7437   45.5708 N   0  0  0  0  0  0  0  0  0  0  0  0
   59.4919   26.9113   46.7286 C   0  0  0  0  0  0  0  0  0  0  0  0
   60.5983   26.8187   47.3272 O   0  0  0  0  0  0  0  0  0  0  0  0
   58.2895   26.1683   47.2300 C   0  0  0  0  0  0  0  0  0  0  0  0
   57.8026   25.2059   46.2419 N   0  0  0  0  0  0  0  0  0  0  0  0
   58.4946   24.1799   45.6981 C   0  0  0  0  0  0  0  0  0  0  0  0
   59.8303   23.9053   45.9710 O   0  0  0  0  0  0  0  0  0  0  0  0
   57.6853   23.4464   44.8554 C   0  0  0  0  0  0  0  0  0  0  0  0
   56.4446   24.0315   44.8990 C   0  0  0  0  0  0  0  0  0  0  0  0
   56.5448   25.1031   45.7630 C   0  0  0  0  0  0  0  0  0  0  0  0
   55.5031   25.9532   46.1161 O   0  0  0  0  0  0  0  0  0  0  0  0
   55.2532   23.5295   44.1496 C   0  0  0  0  0  0  0  0  0  0  0  0
   55.6079   22.3568   43.2542 C   0  0  0  0  0  0  0  0  0  0  0  0
   56.8315   21.7824   43.2111 C   0  0  0  0  0  0  0  0  0  0  0  0
   58.0098   22.2283   44.0556 C   0  0  0  0  0  0  0  0  0  0  0  0
 16 17  1  0
 17  1  1  0
  1  2  2  0
  2  3  1  0
  3  4  2  0
  4 18  1  0
 18 19  1  0
 19 20  2  0
 19 21  1  0
 21 22  1  0
 22 23  1  0
 23 24  1  0
 23 25  2  0
 25 26  1  0
 26 27  2  0
 27 28  1  0
 26 29  1  0
 29 30  1  0
 30 31  2  0
 31 32  1  0
  4  5  1  0
  5  6  2  0
  6  7  1  0
  7  8  2  0
  7  9  2  0
  7 10  1  0
 10 11  1  0
 11 12  1  0
 12 13  1  0
 13 14  1  0
 14 15  1  0
  6  1  1  0
 15 10  1  0
 27 22  1  0
 32 25  1  0
M  CHG 1  18  -1
M  CHG 1  24  -1
M  CHG 1  28  -1
M  END
> <UniqueID>
21

> <SMILES>
COc1ccc([N-]C(=O)Cn2c([O-])c3c(c2[O-])CC=CC3)cc1S(=O)(=O)N1CCCCC1

> <Energy>
98.66774864316135

> <Genealogy>
COc1ccc([N-]C(=O)Cn2c([O-])c3c(c2[O-])CC=CC3)cc1S(=O)(=O)N1CCCCC1 (protonated)
COc1ccc([N-]C(=O)Cn2c([O-])c3c(c2[O-])CC=CC3)cc1S(=O)(=O)N1CCCCC1 (3D coordinates assigned)
COc1ccc([N-]C(=O)Cn2c([O-])c3c(c2[O-])CC=CC3)cc1S(=O)(=O)N1CCCCC1 (nonaromatic ring conformer: 98.66774864316135 kcal/mol)

> <smiles>
COc1ccc(NC(=O)Cn2c(O)c3c(c2O)CC=CC3)cc1S(=O)(=O)N1CCCCC1

> <score_type>
oracle

> <origin>
adg

> <m_score__min__energy>
-15.26

> <m_primary>
energy

> <minimizedAffinity>
-8.27390

> <minimizedRMSD>
1.06042

> <CNNscore>
0.4468731880

> <CNNaffinity>
6.7949013710

> <CNN_VS>
3.0364592075

> <CNNaffinity_variance>
0.0713571236

$$$$
60:0


 23 25  0  0  0  0  0  0  0  0999 V2000
   61.8785   33.0957   50.3513 O   0  0  0  0  0  0  0  0  0  0  0  0
   61.1368   32.9209   49.3490 C   0  0  0  0  0  0  0  0  0  0  0  0
   60.4875   34.0385   48.7439 N   0  0  0  0  0  0  0  0  0  0  0  0
   59.6384   33.8716   47.6050 C   0  0  0  0  0  0  0  0  0  0  0  0
   59.0820   34.8818   47.0999 O   0  0  0  0  0  0  0  0  0  0  0  0
   59.4197   32.5195   47.0342 C   0  0  0  0  0  0  0  0  0  0  0  0
   58.5812   32.3408   45.9226 C   0  0  0  0  0  0  0  0  0  0  0  0
   58.3811   31.0667   45.3846 C   0  0  0  0  0  0  0  0  0  0  0  0
   59.0230   29.9556   45.9378 C   0  0  0  0  0  0  0  0  0  0  0  0
   59.8393   30.1214   47.0686 C   0  0  0  0  0  0  0  0  0  0  0  0
   60.0531   31.3988   47.6166 C   0  0  0  0  0  0  0  0  0  0  0  0
   60.9332   31.5746   48.7958 C   0  0  0  0  0  0  0  0  0  0  0  0
   61.5072   30.5854   49.3271 O   0  0  0  0  0  0  0  0  0  0  0  0
   58.7874   28.6629   45.3613 N   0  0  0  0  0  0  0  0  0  0  0  0
   57.5813   27.8924   45.4702 C   0  0  0  0  0  0  0  0  0  0  0  0
   56.4780   28.4761   45.2984 O   0  0  0  0  0  0  0  0  0  0  0  0
   57.6048   26.4288   45.7100 C   0  0  0  0  0  0  0  0  0  0  0  0
   58.8133   25.7173   45.6023 C   0  0  0  0  0  0  0  0  0  0  0  0
   58.8453   24.3388   45.8270 C   0  0  0  0  0  0  0  0  0  0  0  0
   57.6746   23.6533   46.1518 C   0  0  0  0  0  0  0  0  0  0  0  0
   56.4647   24.3459   46.2508 C   0  0  0  0  0  0  0  0  0  0  0  0
   56.4236   25.7276   46.0322 C   0  0  0  0  0  0  0  0  0  0  0  0
   55.2076   26.3944   46.1550 O   0  0  0  0  0  0  0  0  0  0  0  0
  1  2  2  0
  2  3  1  0
  3  4  1  0
  4  5  2  0
  4  6  1  0
  6  7  2  0
  7  8  1  0
  8  9  2  0
  9 14  1  0
 14 15  1  0
 15 16  2  0
 15 17  1  0
 17 18  2  0
 18 19  1  0
 19 20  2  0
 20 21  1  0
 21 22  2  0
 22 23  1  0
  9 10  1  0
 10 11  2  0
 11 12  1  0
 12 13  2  0
 12  2  1  0
 11  6  1  0
 22 17  1  0
M  CHG 1   3  -1
M  CHG 1  14  -1
M  CHG 1  23  -1
M  END
> <UniqueID>
55

> <SMILES>
O=C1[N-]C(=O)c2ccc([N-]C(=O)c3ccccc3[O-])cc2C1=O

> <Energy>
41.55150973686582

> <Genealogy>
O=C1[N-]C(=O)c2ccc([N-]C(=O)c3ccccc3[O-])cc2C1=O (protonated)
O=C1[N-]C(=O)c2ccc([N-]C(=O)c3ccccc3[O-])cc2C1=O (3D coordinates assigned)
O=C1[N-]C(=O)c2ccc([N-]C(=O)c3ccccc3[O-])cc2C1=O (nonaromatic ring conformer: 41.55150973686582 kcal/mol)

> <smiles>
O=C1NC(=O)c2ccc(NC(=O)c3ccccc3O)cc2C1=O

> <score_type>
oracle

> <origin>
adg

> <m_score__min__energy>
-14.67

> <m_primary>
energy

> <minimizedAffinity>
-7.04246

> <minimizedRMSD>
1.86623

> <CNNscore>
0.4308975041

> <CNNaffinity>
6.0852780342

> <CNN_VS>
2.6221311092

> <CNNaffinity_variance>
0.6615644097

$$$$
89:0


 28 30  0  0  0  0  0  0  0  0999 V2000
   57.7862   26.8659   46.1016 C   0  0  0  0  0  0  0  0  0  0  0  0
   59.1092   26.4144   46.0556 C   0  0  0  0  0  0  0  0  0  0  0  0
   59.3885   25.0627   45.8457 C   0  0  0  0  0  0  0  0  0  0  0  0
   58.3438   24.1475   45.6966 C   0  0  0  0  0  0  0  0  0  0  0  0
   57.0112   24.5774   45.7602 C   0  0  0  0  0  0  0  0  0  0  0  0
   56.7313   25.9380   45.9733 C   0  0  0  0  0  0  0  0  0  0  0  0
   55.4126   26.3623   46.0941 O   0  0  0  0  0  0  0  0  0  0  0  0
   55.6954   23.4074   45.6339 S   0  0  0  0  0  0  0  0  0  0  0  0
   55.3036   23.2141   44.1950 O   0  0  0  0  0  0  0  0  0  0  0  0
   54.4946   23.9284   46.3738 O   0  0  0  0  0  0  0  0  0  0  0  0
   56.2297   21.8814   46.2884 N   0  0  0  0  0  0  0  0  0  0  0  0
   56.2362   20.7964   45.4615 C   0  0  0  0  0  0  0  0  0  0  0  0
   56.6787   19.5576   45.9204 C   0  0  0  0  0  0  0  0  0  0  0  0
   57.1176   19.4575   47.2367 C   0  0  0  0  0  0  0  0  0  0  0  0
   57.5283   18.3549   47.6859 O   0  0  0  0  0  0  0  0  0  0  0  0
   57.1056   20.5516   48.0374 N   0  0  0  0  0  0  0  0  0  0  0  0
   56.6693   21.7550   47.5811 C   0  0  0  0  0  0  0  0  0  0  0  0
   56.6830   22.7435   48.3609 O   0  0  0  0  0  0  0  0  0  0  0  0
   57.5472   28.2259   46.3263 O   0  0  0  0  0  0  0  0  0  0  0  0
   56.1522   29.3559   44.8674 O   0  0  0  0  0  0  0  0  0  0  0  0
   57.3191   29.1540   45.3039 C   0  0  0  0  0  0  0  0  0  0  0  0
   58.4618   29.9526   44.7652 C   0  0  0  0  0  0  0  0  0  0  0  0
   58.4111   31.3413   45.3407 C   0  0  0  0  0  0  0  0  0  0  0  0
   58.8761   31.5840   46.6453 C   0  0  0  0  0  0  0  0  0  0  0  0
   58.8865   32.8848   47.1582 C   0  0  0  0  0  0  0  0  0  0  0  0
   58.4424   33.9528   46.3714 C   0  0  0  0  0  0  0  0  0  0  0  0
   57.9918   33.7214   45.0680 C   0  0  0  0  0  0  0  0  0  0  0  0
   57.9805   32.4212   44.5510 C   0  0  0  0  0  0  0  0  0  0  0  0
 20 21  2  0
 21 22  1  0
 22 23  1  0
 23 24  2  0
 24 25  1  0
 25 26  2  0
 26 27  1  0
 27 28  2  0
 21 19  1  0
 19  1  1  0
  1  2  2  0
  2  3  1  0
  3  4  2  0
  4  5  1  0
  5  8  1  0
  8  9  2  0
  8 10  2  0
  8 11  1  0
 11 12  1  0
 12 13  2  0
 13 14  1  0
 14 15  2  0
 14 16  1  0
 16 17  1  0
 17 18  2  0
  5  6  2  0
  6  7  1  0
 28 23  1  0
  6  1  1  0
 17 11  1  0
M  CHG 1   7  -1
M  CHG 1  16  -1
M  END
> <UniqueID>
82

> <SMILES>
O=C(Cc1ccccc1)Oc1cccc(S(=O)(=O)n2ccc(=O)[n-]c2=O)c1[O-]

> <Energy>
52.607063368800205

> <Genealogy>
O=C(Cc1ccccc1)Oc1cccc(S(=O)(=O)n2ccc(=O)[n-]c2=O)c1[O-] (protonated)
O=C(Cc1ccccc1)Oc1cccc(S(=O)(=O)n2ccc(=O)[n-]c2=O)c1[O-] (3D coordinates assigned)
O=C(Cc1ccccc1)Oc1cccc(S(=O)(=O)n2ccc(=O)[n-]c2=O)c1[O-] (optimized conformer: 52.607063368800205 kcal/mol)

> <smiles>
O=C(Cc1ccccc1)Oc1cccc(S(=O)(=O)n2ccc(=O)[nH]c2=O)c1O

> <score_type>
oracle

> <origin>
adg

> <m_score__min__energy>
-15.300000000000001

> <m_primary>
energy

> <minimizedAffinity>
-7.70069

> <minimizedRMSD>
0.57886

> <CNNscore>
0.4216395617

> <CNNaffinity>
5.9206142426

> <CNN_VS>
2.4963653088

> <CNNaffinity_variance>
0.0635510460

$$$$
6:0


 28 30  0  0  0  0  0  0  0  0999 V2000
   58.1027   31.1806   45.3590 C   0  0  0  0  0  0  0  0  0  0  0  0
   57.7313   31.6842   44.1066 C   0  0  0  0  0  0  0  0  0  0  0  0
   58.0954   32.9788   43.7284 C   0  0  0  0  0  0  0  0  0  0  0  0
   58.8265   33.7845   44.6047 C   0  0  0  0  0  0  0  0  0  0  0  0
   59.1885   33.3018   45.8678 C   0  0  0  0  0  0  0  0  0  0  0  0
   58.8085   32.0084   46.2515 C   0  0  0  0  0  0  0  0  0  0  0  0
   60.0842   34.3357   46.9783 S   0  0  0  0  0  0  0  0  0  0  0  0
   61.5400   33.9565   46.9789 O   0  0  0  0  0  0  0  0  0  0  0  0
   59.9637   35.7632   46.5254 O   0  0  0  0  0  0  0  0  0  0  0  0
   59.4380   34.1919   48.5845 N   0  0  0  0  0  0  0  0  0  0  0  0
   60.4506   33.6432   49.4811 C   0  0  0  0  0  0  0  0  0  0  0  0
   60.1966   32.1750   49.6705 C   0  0  0  0  0  0  0  0  0  0  0  0
   59.0296   31.7342   50.3144 C   0  0  0  0  0  0  0  0  0  0  0  0
   58.7758   30.3665   50.4564 C   0  0  0  0  0  0  0  0  0  0  0  0
   59.6814   29.4316   49.9478 C   0  0  0  0  0  0  0  0  0  0  0  0
   60.8367   29.8626   49.2905 C   0  0  0  0  0  0  0  0  0  0  0  0
   61.0934   31.2294   49.1466 C   0  0  0  0  0  0  0  0  0  0  0  0
   57.7162   29.8443   45.7096 N   0  0  0  0  0  0  0  0  0  0  0  0
   55.6402   29.5002   44.7275 O   0  0  0  0  0  0  0  0  0  0  0  0
   56.7685   29.0221   45.0118 C   0  0  0  0  0  0  0  0  0  0  0  0
   57.0544   27.6582   44.6730 N   0  0  0  0  0  0  0  0  0  0  0  0
   57.4615   26.6941   45.4531 C   0  0  0  0  0  0  0  0  0  0  0  0
   58.8047   26.5429   45.6206 N   0  0  0  0  0  0  0  0  0  0  0  0
   59.3412   25.5540   46.3835 C   0  0  0  0  0  0  0  0  0  0  0  0
   58.5099   24.6467   47.0356 C   0  0  0  0  0  0  0  0  0  0  0  0
   57.1275   24.7848   46.9163 C   0  0  0  0  0  0  0  0  0  0  0  0
   56.5871   25.8177   46.1438 C   0  0  0  0  0  0  0  0  0  0  0  0
   55.2058   25.9732   46.1209 O   0  0  0  0  0  0  0  0  0  0  0  0
 19 20  2  0
 20 21  1  0
 21 22  2  0
 22 23  1  0
 23 24  1  0
 24 25  2  0
 25 26  1  0
 26 27  2  0
 27 28  1  0
 20 18  1  0
 18  1  1  0
  1  2  2  0
  2  3  1  0
  3  4  2  0
  4  5  1  0
  5  7  1  0
  7  8  2  0
  7  9  2  0
  7 10  1  0
 10 11  1  0
 11 12  1  0
 12 13  2  0
 13 14  1  0
 14 15  2  0
 15 16  1  0
 16 17  2  0
  5  6  2  0
 27 22  1  0
  6  1  1  0
 17 12  1  0
M  CHG 1  10  -1
M  CHG 1  18  -1
M  CHG 1  23  -1
M  CHG 1  28  -1
M  END
> <UniqueID>
7

> <SMILES>
O=C(N=c1[n-]cccc1[O-])[N-]c1cccc(S(=O)(=O)[N-]Cc2ccccc2)c1

> <Energy>
57.519754019109875

> <Genealogy>
O=C(N=c1[n-]cccc1[O-])[N-]c1cccc(S(=O)(=O)[N-]Cc2ccccc2)c1 (protonated)
O=C(N=c1[n-]cccc1[O-])[N-]c1cccc(S(=O)(=O)[N-]Cc2ccccc2)c1 (3D coordinates assigned)
O=C(N=c1[n-]cccc1[O-])[N-]c1cccc(S(=O)(=O)[N-]Cc2ccccc2)c1 (optimized conformer: 57.519754019109875 kcal/mol)

> <smiles>
O=C(N=c1[nH]cccc1O)Nc1cccc(S(=O)(=O)NCc2ccccc2)c1

> <score_type>
oracle

> <origin>
adg

> <m_score__min__energy>
-15.460000000000001

> <m_primary>
energy

> <minimizedAffinity>
-5.91174

> <minimizedRMSD>
0.76222

> <CNNscore>
0.5752274990

> <CNNaffinity>
6.4355359077

> <CNN_VS>
3.7018971443

> <CNNaffinity_variance>
0.0693684220

$$$$
23:0


 37 40  0  0  0  0  0  0  0  0999 V2000
   60.9328   27.6542   50.8016 C   0  0  0  0  0  0  0  0  0  0  0  0
   60.9729   28.8065   49.9044 N   0  0  0  0  0  0  0  0  0  0  0  0
   61.3848   30.0701   50.1784 C   0  0  0  0  0  0  0  0  0  0  0  0
   61.8567   30.4236   51.2937 O   0  0  0  0  0  0  0  0  0  0  0  0
   61.2159   30.9181   49.1329 N   0  0  0  0  0  0  0  0  0  0  0  0
   61.4862   32.3549   49.0841 C   0  0  0  0  0  0  0  0  0  0  0  0
   60.6546   30.1511   48.1753 C   0  0  0  0  0  0  0  0  0  0  0  0
   60.2057   30.5297   46.9122 C   0  0  0  0  0  0  0  0  0  0  0  0
   59.5760   29.5518   46.1010 C   0  0  0  0  0  0  0  0  0  0  0  0
   59.4474   28.2132   46.5834 C   0  0  0  0  0  0  0  0  0  0  0  0
   59.9095   27.8785   47.8774 C   0  0  0  0  0  0  0  0  0  0  0  0
   60.5085   28.8761   48.6402 C   0  0  0  0  0  0  0  0  0  0  0  0
   59.0760   29.8903   44.7910 N   0  0  0  0  0  0  0  0  0  0  0  0
   59.3936   29.3647   44.0215 H   0  0  0  0  0  0  0  0  0  0  0  0
   57.9447   31.1742   44.4968 S   0  0  0  0  0  0  0  0  0  0  0  0
   57.8594   31.4257   43.0191 O   0  0  0  0  0  0  0  0  0  0  0  0
   56.5889   30.7659   44.9976 O   0  0  0  0  0  0  0  0  0  0  0  0
   58.4537   32.6274   45.3569 C   0  0  0  0  0  0  0  0  0  0  0  0
   59.0411   33.6854   44.6472 C   0  0  0  0  0  0  0  0  0  0  0  0
   59.4481   34.8413   45.3195 C   0  0  0  0  0  0  0  0  0  0  0  0
   59.2708   34.9397   46.7042 C   0  0  0  0  0  0  0  0  0  0  0  0
   58.6826   33.8897   47.4149 C   0  0  0  0  0  0  0  0  0  0  0  0
   58.2747   32.7346   46.7447 C   0  0  0  0  0  0  0  0  0  0  0  0
   58.7623   27.2384   45.7845 N   0  0  0  0  0  0  0  0  0  0  0  0
   57.3475   27.0173   45.7721 C   0  0  0  0  0  0  0  0  0  0  0  0
   56.5702   27.8946   45.3060 O   0  0  0  0  0  0  0  0  0  0  0  0
   56.7934   25.7861   46.4120 C   0  0  0  0  0  0  0  0  0  0  0  0
   55.3590   25.6938   46.1478 N   0  0  0  0  0  0  0  0  0  0  0  0
   54.8402   24.0392   46.2203 S   0  0  0  0  0  0  0  0  0  0  0  0
   54.9328   23.5336   47.6292 O   0  0  0  0  0  0  0  0  0  0  0  0
   53.4119   23.9443   45.7676 O   0  0  0  0  0  0  0  0  0  0  0  0
   55.8497   23.0757   45.1499 C   0  0  0  0  0  0  0  0  0  0  0  0
   55.7166   23.2137   43.7640 C   0  0  0  0  0  0  0  0  0  0  0  0
   56.5333   22.4773   42.9032 C   0  0  0  0  0  0  0  0  0  0  0  0
   57.4885   21.6024   43.4227 C   0  0  0  0  0  0  0  0  0  0  0  0
   57.6306   21.4663   44.8039 C   0  0  0  0  0  0  0  0  0  0  0  0
   56.8151   22.2022   45.6676 C   0  0  0  0  0  0  0  0  0  0  0  0
  1  2  1  0
  2  3  1  0
  3  4  2  0
  3  5  1  0
  5  6  1  0
  5  7  1  0
  7  8  2  0
  8  9  1  0
  9 13  1  0
 13 15  1  0
 15 16  2  0
 15 17  2  0
 15 18  1  0
 18 19  2  0
 19 20  1  0
 20 21  2  0
 21 22  1  0
 22 23  2  0
  9 10  2  0
 10 24  1  0
 24 25  1  0
 25 26  2  0
 25 27  1  0
 27 28  1  0
 28 29  1  0
 29 30  2  0
 29 31  2  0
 29 32  1  0
 32 33  2  0
 33 34  1  0
 34 35  2  0
 35 36  1  0
 36 37  2  0
 10 11  1  0
 11 12  2  0
 12  2  1  0
 12  7  1  0
 23 18  1  0
 37 32  1  0
 13 14  1  0
M  CHG 1  24  -1
M  CHG 1  28  -1
M  END
> <UniqueID>
23

> <SMILES>
Cn1c(=O)n(C)c2cc(NS(=O)(=O)c3ccccc3)c([N-]C(=O)C[N-]S(=O)(=O)c3ccccc3)cc21

> <Energy>
106.40334108962426

> <Genealogy>
Cn1c(=O)n(C)c2cc(NS(=O)(=O)c3ccccc3)c([N-]C(=O)C[N-]S(=O)(=O)c3ccccc3)cc21 (protonated)
Cn1c(=O)n(C)c2cc(NS(=O)(=O)c3ccccc3)c([N-]C(=O)C[N-]S(=O)(=O)c3ccccc3)cc21 (3D coordinates assigned)
Cn1c(=O)n(C)c2cc(NS(=O)(=O)c3ccccc3)c([N-]C(=O)C[N-]S(=O)(=O)c3ccccc3)cc21 (optimized conformer: 106.40334108962426 kcal/mol)

> <smiles>
Cn1c(=O)n(C)c2cc(NS(=O)(=O)c3ccccc3)c(NC(=O)CNS(=O)(=O)c3ccccc3)cc21

> <score_type>
oracle

> <origin>
adg

> <m_score__min__energy>
-14.42

> <m_primary>
energy

> <minimizedAffinity>
-8.21037

> <minimizedRMSD>
0.73538

> <CNNscore>
0.7288277149

> <CNNaffinity>
7.2573623657

> <CNN_VS>
5.2893667221

> <CNNaffinity_variance>
0.1244894862

$$$$
49:0


 26 28  0  0  0  0  0  0  0  0999 V2000
   58.3827   31.6829   46.2468 C   0  0  0  0  0  0  0  0  0  0  0  0
   58.5135   30.5137   45.4711 C   0  0  0  0  0  0  0  0  0  0  0  0
   59.3605   29.4760   45.8830 C   0  0  0  0  0  0  0  0  0  0  0  0
   60.1057   29.6220   47.0589 C   0  0  0  0  0  0  0  0  0  0  0  0
   59.9863   30.7793   47.8315 C   0  0  0  0  0  0  0  0  0  0  0  0
   59.1109   31.8098   47.4410 C   0  0  0  0  0  0  0  0  0  0  0  0
   57.8931   33.7776   44.9684 C   0  0  0  0  0  0  0  0  0  0  0  0
   57.5345   32.7368   45.8705 O   0  0  0  0  0  0  0  0  0  0  0  0
   59.5195   28.2427   45.0352 C   0  0  0  0  0  0  0  0  0  0  0  0
   58.7007   27.1228   45.5970 C   0  0  0  0  0  0  0  0  0  0  0  0
   59.3199   25.6722   46.1894 S   0  0  0  0  0  0  0  0  0  0  0  0
   57.7878   25.0433   46.4783 C   0  0  0  0  0  0  0  0  0  0  0  0
   57.5711   23.9032   46.9637 O   0  0  0  0  0  0  0  0  0  0  0  0
   56.8011   25.8932   46.1284 N   0  0  0  0  0  0  0  0  0  0  0  0
   57.3097   27.0501   45.6295 C   0  0  0  0  0  0  0  0  0  0  0  0
   56.4870   28.0777   45.1852 O   0  0  0  0  0  0  0  0  0  0  0  0
   58.9331   32.9812   48.1993 O   0  0  0  0  0  0  0  0  0  0  0  0
   59.7510   34.1522   48.1459 C   0  0  0  0  0  0  0  0  0  0  0  0
   60.7410   34.1903   49.3157 C   0  0  0  0  0  0  0  0  0  0  0  0
   61.9365   33.3947   49.0362 N   0  0  0  0  0  0  0  0  0  0  0  0
   62.6917   32.7257   49.9280 C   0  0  0  0  0  0  0  0  0  0  0  0
   62.4233   32.6723   51.2908 O   0  0  0  0  0  0  0  0  0  0  0  0
   63.7644   32.1125   49.3094 C   0  0  0  0  0  0  0  0  0  0  0  0
   63.6592   32.4250   47.9648 C   0  0  0  0  0  0  0  0  0  0  0  0
   62.5307   33.2081   47.8393 C   0  0  0  0  0  0  0  0  0  0  0  0
   62.0659   33.7481   46.6452 O   0  0  0  0  0  0  0  0  0  0  0  0
  7  8  1  0
  8  1  1  0
  1  2  2  0
  2  3  1  0
  3  9  1  0
  9 10  1  0
 10 11  1  0
 11 12  1  0
 12 13  2  0
 12 14  1  0
 14 15  1  0
 15 16  1  0
  3  4  2  0
  4  5  1  0
  5  6  2  0
  6 17  1  0
 17 18  1  0
 18 19  1  0
 19 20  1  0
 20 21  1  0
 21 22  1  0
 21 23  2  0
 23 24  1  0
 24 25  2  0
 25 26  1  0
  6  1  1  0
 25 20  1  0
 15 10  2  0
M  CHG 1  14  -1
M  CHG 1  16  -1
M  CHG 1  22  -1
M  CHG 1  26  -1
M  END
> <UniqueID>
47

> <SMILES>
COc1cc(Cc2sc(=O)[n-]c2[O-])ccc1OCCn1c([O-])ccc1[O-]

> <Energy>
96.1278831826564

> <Genealogy>
COc1cc(Cc2sc(=O)[n-]c2[O-])ccc1OCCn1c([O-])ccc1[O-] (protonated)
COc1cc(Cc2sc(=O)[n-]c2[O-])ccc1OCCn1c([O-])ccc1[O-] (3D coordinates assigned)
COc1cc(Cc2sc(=O)[n-]c2[O-])ccc1OCCn1c([O-])ccc1[O-] (optimized conformer: 96.1278831826564 kcal/mol)

> <smiles>
COc1cc(Cc2sc(=O)[nH]c2O)ccc1OCCn1c(O)ccc1O

> <score_type>
oracle

> <origin>
adg

> <m_score__min__energy>
-15.07

> <m_primary>
energy

> <minimizedAffinity>
-6.68511

> <minimizedRMSD>
1.15469

> <CNNscore>
0.7020102739

> <CNNaffinity>
6.7207121849

> <CNN_VS>
4.7180089951

> <CNNaffinity_variance>
0.0676213726

$$$$
55:0


 35 38  0  0  0  0  0  0  0  0999 V2000
   57.0173   29.7473   44.4049 C   0  0  0  0  0  0  0  0  0  0  0  0
   55.8043   29.5443   44.6807 O   0  0  0  0  0  0  0  0  0  0  0  0
   57.5379   31.1223   44.4367 C   0  0  0  0  0  0  0  0  0  0  0  0
   57.8126   31.7222   43.3661 O   0  0  0  0  0  0  0  0  0  0  0  0
   57.7750   31.7392   45.7005 N   0  0  0  0  0  0  0  0  0  0  0  0
   59.2103   33.0333   47.2136 C   0  0  0  0  0  0  0  0  0  0  0  0
   59.8953   34.2224   47.5167 C   0  0  0  0  0  0  0  0  0  0  0  0
   59.9643   35.2552   46.5808 C   0  0  0  0  0  0  0  0  0  0  0  0
   59.3626   35.1102   45.3278 C   0  0  0  0  0  0  0  0  0  0  0  0
   58.6603   33.9430   45.0185 C   0  0  0  0  0  0  0  0  0  0  0  0
   58.5738   32.9002   45.9590 C   0  0  0  0  0  0  0  0  0  0  0  0
   60.4018   29.7819   51.1419 C   0  0  0  0  0  0  0  0  0  0  0  0
   59.3504   29.8031   50.1108 N   0  0  0  0  0  0  0  0  0  0  0  0
   59.9340   29.6761   48.7410 C   0  0  0  0  0  0  0  0  0  0  0  0
   59.2289   30.5538   47.6968 C   0  0  0  0  0  0  0  0  0  0  0  0
   59.2118   31.9449   48.1617 N   0  0  0  0  0  0  0  0  0  0  0  0
   58.9530   32.2185   49.5854 C   0  0  0  0  0  0  0  0  0  0  0  0
   58.4408   30.9619   50.2990 C   0  0  0  0  0  0  0  0  0  0  0  0
   57.8422   28.6357   44.0490 N   0  0  0  0  0  0  0  0  0  0  0  0
   58.4592   27.7021   44.9526 C   0  0  0  0  0  0  0  0  0  0  0  0
   57.6882   26.6355   45.4308 C   0  0  0  0  0  0  0  0  0  0  0  0
   58.2107   25.7397   46.3780 C   0  0  0  0  0  0  0  0  0  0  0  0
   59.5253   25.9182   46.8416 C   0  0  0  0  0  0  0  0  0  0  0  0
   60.2946   26.9896   46.3844 C   0  0  0  0  0  0  0  0  0  0  0  0
   59.7669   27.8901   45.4530 C   0  0  0  0  0  0  0  0  0  0  0  0
   60.5080   28.9599   45.0920 F   0  0  0  0  0  0  0  0  0  0  0  0
   57.3498   24.6368   46.9334 C   0  0  0  0  0  0  0  0  0  0  0  0
   56.8008   23.7694   45.8403 C   0  0  0  0  0  0  0  0  0  0  0  0
   57.6236   22.4731   45.1485 S   0  0  0  0  0  0  0  0  0  0  0  0
   56.3819   22.1607   44.0568 C   0  0  0  0  0  0  0  0  0  0  0  0
   56.3970   21.2195   43.2182 O   0  0  0  0  0  0  0  0  0  0  0  0
   55.3411   23.0141   44.1939 N   0  0  0  0  0  0  0  0  0  0  0  0
   55.5643   23.9004   45.1963 C   0  0  0  0  0  0  0  0  0  0  0  0
   54.5960   24.8386   45.5465 O   0  0  0  0  0  0  0  0  0  0  0  0
   53.7871   24.8753   45.0751 H   0  0  0  0  0  0  0  0  0  0  0  0
 12 13  1  0
 13 14  1  0
 14 15  1  0
 15 16  1  0
 16  6  1  0
  6  7  2  0
  7  8  1  0
  8  9  2  0
  9 10  1  0
 10 11  2  0
 11  5  1  0
  5  3  1  0
  3  4  2  0
  3  1  1  0
  1  2  2  0
  1 19  1  0
 19 20  1  0
 20 21  2  0
 21 22  1  0
 22 27  1  0
 27 28  1  0
 28 29  1  0
 29 30  1  0
 30 31  2  0
 30 32  1  0
 32 33  1  0
 33 34  1  0
 22 23  2  0
 23 24  1  0
 24 25  2  0
 25 26  1  0
 16 17  1  0
 17 18  1  0
 18 13  1  0
 11  6  1  0
 25 20  1  0
 33 28  2  0
 34 35  1  0
M  CHG 1   5  -1
M  CHG 1  19  -1
M  CHG 1  32  -1
M  END
> <UniqueID>
53

> <SMILES>
CN1CCN(c2ccccc2[N-]C(=O)C(=O)[N-]c2cc(Cc3sc(=O)[n-]c3O)ccc2F)CC1

> <Energy>
110.10676379802526

> <Genealogy>
CN1CCN(c2ccccc2[N-]C(=O)C(=O)[N-]c2cc(Cc3sc(=O)[n-]c3O)ccc2F)CC1 (protonated)
CN1CCN(c2ccccc2[N-]C(=O)C(=O)[N-]c2cc(Cc3sc(=O)[n-]c3O)ccc2F)CC1 (3D coordinates assigned)
CN1CCN(c2ccccc2[N-]C(=O)C(=O)[N-]c2cc(Cc3sc(=O)[n-]c3O)ccc2F)CC1 (nonaromatic ring conformer: 110.10676379802526 kcal/mol)

> <smiles>
CN1CCN(c2ccccc2NC(=O)C(=O)Nc2cc(Cc3sc(=O)[nH]c3O)ccc2F)CC1

> <score_type>
oracle

> <origin>
adg

> <m_score__min__energy>
-14.369999999999999

> <m_primary>
energy

> <minimizedAffinity>
-9.57375

> <minimizedRMSD>
0.54722

> <CNNscore>
0.6160561442

> <CNNaffinity>
7.3372993469

> <CNN_VS>
4.5201883316

> <CNNaffinity_variance>
0.0453878380

$$$$
86:0


 24 26  0  0  0  0  0  0  0  0999 V2000
   58.9268   28.0684   45.8705 C   0  0  0  0  0  0  0  0  0  0  0  0
   57.7755   28.3219   45.1103 C   0  0  0  0  0  0  0  0  0  0  0  0
   57.3766   29.6365   44.8568 C   0  0  0  0  0  0  0  0  0  0  0  0
   55.9388   29.9443   43.8980 Cl  0  0  0  0  0  0  0  0  0  0  0  0
   58.1164   30.7068   45.3687 C   0  0  0  0  0  0  0  0  0  0  0  0
   59.2627   30.4713   46.1495 C   0  0  0  0  0  0  0  0  0  0  0  0
   59.6583   29.1462   46.3957 C   0  0  0  0  0  0  0  0  0  0  0  0
   60.0381   31.5458   46.7115 N   0  0  0  0  0  0  0  0  0  0  0  0
   61.0007   31.5748   46.5069 H   0  0  0  0  0  0  0  0  0  0  0  0
   59.3860   32.7944   47.7271 S   0  0  0  0  0  0  0  0  0  0  0  0
   60.4040   33.1684   48.7672 O   0  0  0  0  0  0  0  0  0  0  0  0
   58.1658   32.2647   48.4276 O   0  0  0  0  0  0  0  0  0  0  0  0
   58.9549   34.2474   46.7660 C   0  0  0  0  0  0  0  0  0  0  0  0
   57.9218   34.0204   45.6711 C   0  0  0  0  0  0  0  0  0  0  0  0
   59.3842   34.2012   45.3070 C   0  0  0  0  0  0  0  0  0  0  0  0
   59.3371   26.6527   46.1743 C   0  0  0  0  0  0  0  0  0  0  0  0
   58.2594   25.9455   46.9983 C   0  0  0  0  0  0  0  0  0  0  0  0
   59.3147   23.5420   45.6593 O   0  0  0  0  0  0  0  0  0  0  0  0
   58.1043   23.8744   45.5581 C   0  0  0  0  0  0  0  0  0  0  0  0
   57.2142   23.1881   44.8074 N   0  0  0  0  0  0  0  0  0  0  0  0
   56.0624   23.8778   44.9565 C   0  0  0  0  0  0  0  0  0  0  0  0
   56.2898   24.9526   45.7834 C   0  0  0  0  0  0  0  0  0  0  0  0
   55.3510   25.9090   46.1547 O   0  0  0  0  0  0  0  0  0  0  0  0
   57.5730   24.9485   46.1788 N   0  0  0  0  0  0  0  0  0  0  0  0
 18 19  2  0
 19 20  1  0
 20 21  1  0
 21 22  2  0
 22 23  1  0
 22 24  1  0
 24 17  1  0
 17 16  1  0
 16  1  1  0
  1  2  2  0
  2  3  1  0
  3  4  1  0
  3  5  2  0
  5  6  1  0
  6  8  1  0
  8 10  1  0
 10 11  2  0
 10 12  2  0
 10 13  1  0
 13 14  1  0
 14 15  1  0
  6  7  2  0
 24 19  1  0
  7  1  1  0
 15 13  1  0
  8  9  1  0
M  CHG 1  20  -1
M  CHG 1  23  -1
M  END
> <UniqueID>
81

> <SMILES>
O=c1[n-]cc([O-])n1CCc1cc(Cl)cc(NS(=O)(=O)C2CC2)c1

> <Energy>
330.4318151978599

> <Genealogy>
O=c1[n-]cc([O-])n1CCc1cc(Cl)cc(NS(=O)(=O)C2CC2)c1 (protonated)
O=c1[n-]cc([O-])n1CCc1cc(Cl)cc(NS(=O)(=O)C2CC2)c1 (3D coordinates assigned)
O=c1[n-]cc([O-])n1CCc1cc(Cl)cc(NS(=O)(=O)C2CC2)c1 (nonaromatic ring conformer: 330.4318151978599 kcal/mol)

> <smiles>
O=c1[nH]cc(O)n1CCc1cc(Cl)cc(NS(=O)(=O)C2CC2)c1

> <score_type>
oracle

> <origin>
adg

> <m_score__min__energy>
-14.06

> <m_primary>
energy

> <minimizedAffinity>
-7.37055

> <minimizedRMSD>
0.88163

> <CNNscore>
0.2174062282

> <CNNaffinity>
6.0675849915

> <CNN_VS>
1.3191307783

> <CNNaffinity_variance>
0.0229297522

$$$$
11:0


 25 27  0  0  0  0  0  0  0  0999 V2000
   58.3257   26.4576   44.5938 C   0  0  0  0  0  0  0  0  0  0  0  0
   57.9979   26.4262   43.3756 O   0  0  0  0  0  0  0  0  0  0  0  0
   57.1007   30.8582   44.6597 C   0  0  0  0  0  0  0  0  0  0  0  0
   56.9609   29.2096   44.3467 S   0  0  0  0  0  0  0  0  0  0  0  0
   58.4141   28.8434   45.0931 C   0  0  0  0  0  0  0  0  0  0  0  0
   58.8934   27.6384   45.1811 N   0  0  0  0  0  0  0  0  0  0  0  0
   59.0223   29.9451   45.5835 N   0  0  0  0  0  0  0  0  0  0  0  0
   58.3006   31.0754   45.3503 C   0  0  0  0  0  0  0  0  0  0  0  0
   58.7852   32.4089   45.8004 C   0  0  0  0  0  0  0  0  0  0  0  0
   58.6091   33.5336   44.9697 C   0  0  0  0  0  0  0  0  0  0  0  0
   59.0576   34.7947   45.3725 C   0  0  0  0  0  0  0  0  0  0  0  0
   59.6899   34.9526   46.6068 C   0  0  0  0  0  0  0  0  0  0  0  0
   59.8762   33.8484   47.4396 C   0  0  0  0  0  0  0  0  0  0  0  0
   59.4293   32.5845   47.0423 C   0  0  0  0  0  0  0  0  0  0  0  0
   58.1622   25.2305   45.4327 C   0  0  0  0  0  0  0  0  0  0  0  0
   56.7760   24.6573   45.2469 C   0  0  0  0  0  0  0  0  0  0  0  0
   55.6454   25.3192   45.7583 C   0  0  0  0  0  0  0  0  0  0  0  0
   55.7777   26.5360   46.4212 O   0  0  0  0  0  0  0  0  0  0  0  0
   54.4101   24.7729   45.6077 N   0  0  0  0  0  0  0  0  0  0  0  0
   54.2457   23.5790   44.9773 C   0  0  0  0  0  0  0  0  0  0  0  0
   53.0956   23.0844   44.8461 O   0  0  0  0  0  0  0  0  0  0  0  0
   55.3235   22.9141   44.4893 N   0  0  0  0  0  0  0  0  0  0  0  0
   56.5774   23.4187   44.6126 C   0  0  0  0  0  0  0  0  0  0  0  0
   57.5523   22.7639   44.1564 O   0  0  0  0  0  0  0  0  0  0  0  0
   53.6231   25.2482   45.9599 H   0  0  0  0  0  0  0  0  0  0  0  0
  3  4  1  0
  4  5  1  0
  5  6  2  0
  6  1  1  0
  1  2  2  0
  1 15  1  0
 15 16  1  0
 16 17  2  0
 17 18  1  0
 17 19  1  0
 19 20  1  0
 20 21  2  0
 20 22  1  0
 22 23  1  0
 23 24  2  0
  5  7  1  0
  7  8  1  0
  8  9  1  0
  9 10  2  0
 10 11  1  0
 11 12  2  0
 12 13  1  0
 13 14  2  0
  8  3  2  0
 14  9  1  0
 23 16  1  0
 19 25  1  0
M  CHG 1   7  -1
M  CHG 1  18  -1
M  CHG 1  22  -1
M  END
> <UniqueID>
10

> <SMILES>
O=C(Cc1c([O-])[nH]c(=O)[n-]c1=O)/N=c1\[n-]c(-c2ccccc2)cs1

> <Energy>
70.42088982549052

> <Genealogy>
O=C(Cc1c([O-])[nH]c(=O)[n-]c1=O)N=c1[n-]c(-c2ccccc2)cs1 (protonated)
O=C(Cc1c([O-])[nH]c(=O)[n-]c1=O)/N=c1\[n-]c(-c2ccccc2)cs1 (cis-trans isomerization)
O=C(Cc1c([O-])[nH]c(=O)[n-]c1=O)/N=c1\[n-]c(-c2ccccc2)cs1 (3D coordinates assigned)
O=C(Cc1c([O-])[nH]c(=O)[n-]c1=O)/N=c1\[n-]c(-c2ccccc2)cs1 (optimized conformer: 70.42088982549052 kcal/mol)

> <smiles>
O=C(Cc1c(O)[nH]c(=O)[nH]c1=O)N=c1[nH]c(-c2ccccc2)cs1

> <score_type>
oracle

> <origin>
adg

> <m_score__min__energy>
-14.83

> <m_primary>
energy

> <minimizedAffinity>
-7.41417

> <minimizedRMSD>
0.73890

> <CNNscore>
0.1298373789

> <CNNaffinity>
5.7458882332

> <CNN_VS>
0.7460310459

> <CNNaffinity_variance>
0.0036632724

$$$$
16:0


 29 31  0  0  0  0  0  0  0  0999 V2000
   58.1532   27.9083   47.1082 S   0  0  0  0  0  0  0  0  0  0  0  0
   58.8791   29.5543   46.9931 C   0  0  0  0  0  0  0  0  0  0  0  0
   60.0205   29.8108   47.6808 N   0  0  0  0  0  0  0  0  0  0  0  0
   60.6563   31.0020   47.5728 C   0  0  0  0  0  0  0  0  0  0  0  0
   61.8431   31.2299   48.2794 C   0  0  0  0  0  0  0  0  0  0  0  0
   62.5210   32.4440   48.1367 C   0  0  0  0  0  0  0  0  0  0  0  0
   62.0154   33.4339   47.2888 C   0  0  0  0  0  0  0  0  0  0  0  0
   60.8292   33.2164   46.5816 C   0  0  0  0  0  0  0  0  0  0  0  0
   60.1388   31.9970   46.7223 C   0  0  0  0  0  0  0  0  0  0  0  0
   58.9513   31.7200   46.0236 C   0  0  0  0  0  0  0  0  0  0  0  0
   58.4960   32.5697   45.2075 O   0  0  0  0  0  0  0  0  0  0  0  0
   58.3191   30.5136   46.1943 N   0  0  0  0  0  0  0  0  0  0  0  0
   57.1339   30.1968   45.4984 N   0  0  0  0  0  0  0  0  0  0  0  0
   57.0634   29.9896   44.0854 C   0  0  0  0  0  0  0  0  0  0  0  0
   55.9443   29.9768   43.5119 O   0  0  0  0  0  0  0  0  0  0  0  0
   58.8900   27.2768   45.5548 C   0  0  0  0  0  0  0  0  0  0  0  0
   58.8685   25.7831   45.5064 C   0  0  0  0  0  0  0  0  0  0  0  0
   59.7532   25.1212   46.1119 O   0  0  0  0  0  0  0  0  0  0  0  0
   57.7953   25.1281   44.8203 N   0  0  0  0  0  0  0  0  0  0  0  0
   57.0325   19.9826   46.0308 C   0  0  0  0  0  0  0  0  0  0  0  0
   56.8979   21.4449   45.7432 C   0  0  0  0  0  0  0  0  0  0  0  0
   58.1406   22.3998   45.1414 S   0  0  0  0  0  0  0  0  0  0  0  0
   57.2621   23.8324   45.1150 C   0  0  0  0  0  0  0  0  0  0  0  0
   55.9731   23.6013   45.6037 C   0  0  0  0  0  0  0  0  0  0  0  0
   55.7638   22.2408   45.9479 C   0  0  0  0  0  0  0  0  0  0  0  0
   54.4769   21.7018   46.5116 C   0  0  0  0  0  0  0  0  0  0  0  0
   54.9751   24.6869   45.7741 C   0  0  0  0  0  0  0  0  0  0  0  0
   53.7619   24.5025   45.4963 O   0  0  0  0  0  0  0  0  0  0  0  0
   55.3626   25.9307   46.2578 O   0  0  0  0  0  0  0  0  0  0  0  0
 20 21  1  0
 21 22  1  0
 22 23  1  0
 23 19  1  0
 19 17  1  0
 17 18  2  0
 17 16  1  0
 16  1  1  0
  1  2  1  0
  2  3  2  0
  3  4  1  0
  4  5  2  0
  5  6  1  0
  6  7  2  0
  7  8  1  0
  8  9  2  0
  9 10  1  0
 10 11  2  0
 10 12  1  0
 12 13  1  0
 13 14  1  0
 14 15  2  0
 23 24  2  0
 24 27  1  0
 27 28  2  0
 27 29  1  0
 24 25  1  0
 25 26  1  0
 25 21  2  0
 12  2  1  0
  9  4  1  0
M  CHG 1  13  -1
M  CHG 1  19  -1
M  CHG 1  29  -1
M  END
> <UniqueID>
15

> <SMILES>
Cc1sc([N-]C(=O)CSc2nc3ccccc3c(=O)n2[N-]C=O)c(C(=O)[O-])c1C

> <Energy>
74.3077448682929

> <Genealogy>
Cc1sc([N-]C(=O)CSc2nc3ccccc3c(=O)n2[N-]C=O)c(C(=O)[O-])c1C (protonated)
Cc1sc([N-]C(=O)CSc2nc3ccccc3c(=O)n2[N-]C=O)c(C(=O)[O-])c1C (3D coordinates assigned)
Cc1sc([N-]C(=O)CSc2nc3ccccc3c(=O)n2[N-]C=O)c(C(=O)[O-])c1C (optimized conformer: 74.3077448682929 kcal/mol)

> <smiles>
Cc1sc(NC(=O)CSc2nc3ccccc3c(=O)n2NC=O)c(C(=O)O)c1C

> <score_type>
oracle

> <origin>
adg

> <m_score__min__energy>
-14.42

> <m_primary>
energy

> <minimizedAffinity>
-6.97684

> <minimizedRMSD>
1.58516

> <CNNscore>
0.3665795624

> <CNNaffinity>
6.1914143562

> <CNN_VS>
2.2696459293

> <CNNaffinity_variance>
0.1030114889

$$$$
30:0


 27 28  0  0  0  0  0  0  0  0999 V2000
   57.9887   31.3592   44.4563 C   0  0  0  0  0  0  0  0  0  0  0  0
   58.1155   31.5752   43.2213 O   0  0  0  0  0  0  0  0  0  0  0  0
   59.1467   26.5730   46.0268 N   0  0  0  0  0  0  0  0  0  0  0  0
   58.5854   27.6844   45.6567 C   0  0  0  0  0  0  0  0  0  0  0  0
   57.2504   27.8513   45.5284 N   0  0  0  0  0  0  0  0  0  0  0  0
   56.9483   29.1146   45.1288 C   0  0  0  0  0  0  0  0  0  0  0  0
   55.6332   29.5138   44.9220 O   0  0  0  0  0  0  0  0  0  0  0  0
   58.0404   29.9651   44.9502 C   0  0  0  0  0  0  0  0  0  0  0  0
   59.4399   29.0804   45.2828 S   0  0  0  0  0  0  0  0  0  0  0  0
   58.5836   25.2457   45.7883 C   0  0  0  0  0  0  0  0  0  0  0  0
   57.4464   25.3184   44.7678 C   0  0  0  0  0  0  0  0  0  0  0  0
   55.1338   25.5591   45.7656 N   0  0  0  0  0  0  0  0  0  0  0  0
   56.1965   24.7173   45.3300 C   0  0  0  0  0  0  0  0  0  0  0  0
   56.0672   23.4652   45.3824 O   0  0  0  0  0  0  0  0  0  0  0  0
   54.3119   25.1628   46.1353 H   0  0  0  0  0  0  0  0  0  0  0  0
   57.8390   32.5212   45.3538 C   0  0  0  0  0  0  0  0  0  0  0  0
   58.8708   33.2881   45.7278 C   0  0  0  0  0  0  0  0  0  0  0  0
   59.8561   32.8598   46.7494 C   0  0  0  0  0  0  0  0  0  0  0  0
   60.4652   31.5950   46.6537 C   0  0  0  0  0  0  0  0  0  0  0  0
   61.4317   31.2008   47.5786 C   0  0  0  0  0  0  0  0  0  0  0  0
   61.8149   32.0627   48.6046 C   0  0  0  0  0  0  0  0  0  0  0  0
   61.2249   33.3347   48.7193 C   0  0  0  0  0  0  0  0  0  0  0  0
   60.2429   33.7318   47.7965 C   0  0  0  0  0  0  0  0  0  0  0  0
   59.6579   34.9901   47.9607 O   0  0  0  0  0  0  0  0  0  0  0  0
   59.9331   35.5467   48.6624 H   0  0  0  0  0  0  0  0  0  0  0  0
   61.5809   34.2307   49.7407 O   0  0  0  0  0  0  0  0  0  0  0  0
   62.7792   34.1471   50.5056 C   0  0  0  0  0  0  0  0  0  0  0  0
 12 13  1  0
 13 14  2  0
 13 11  1  0
 11 10  1  0
 10  3  1  0
  3  4  2  0
  4  5  1  0
  5  6  1  0
  6  7  1  0
  6  8  2  0
  8  1  1  0
  1  2  2  0
  1 16  1  0
 16 17  2  0
 17 18  1  0
 18 19  2  0
 19 20  1  0
 20 21  2  0
 21 22  1  0
 22 26  1  0
 26 27  1  0
 22 23  2  0
 23 24  1  0
  8  9  1  0
  9  4  1  0
 23 18  1  0
 12 15  1  0
 24 25  1  0
M  CHG 1   5  -1
M  CHG 1   7  -1
M  CHG 1  12  -1
M  END
> <UniqueID>
29

> <SMILES>
COc1cccc(/C=C/C(=O)c2sc(=NCCC([NH-])=O)[n-]c2[O-])c1O

> <Energy>
73.23108057108055

> <Genealogy>
COc1cccc(C=CC(=O)c2sc(=NCCC([NH-])=O)[n-]c2[O-])c1O (protonated)
COc1cccc(/C=C/C(=O)c2sc(=NCCC([NH-])=O)[n-]c2[O-])c1O (cis-trans isomerization)
COc1cccc(/C=C/C(=O)c2sc(=NCCC([NH-])=O)[n-]c2[O-])c1O (3D coordinates assigned)
COc1cccc(/C=C/C(=O)c2sc(=NCCC([NH-])=O)[n-]c2[O-])c1O (optimized conformer: 73.23108057108055 kcal/mol)

> <smiles>
COc1cccc(C=CC(=O)c2sc(=NCCC(N)=O)[nH]c2O)c1O

> <score_type>
oracle

> <origin>
adg

> <m_score__min__energy>
-15.720000000000001

> <m_primary>
energy

> <minimizedAffinity>
-7.55889

> <minimizedRMSD>
0.93374

> <CNNscore>
0.3481066823

> <CNNaffinity>
6.4344201088

> <CNN_VS>
2.2398645878

> <CNNaffinity_variance>
0.0932876691

$$$$
38:0


 22 23  0  0  0  0  0  0  0  0999 V2000
   57.9665   27.7010   45.7189 N   0  0  0  0  0  0  0  0  0  0  0  0
   57.6272   29.0397   45.2801 C   0  0  0  0  0  0  0  0  0  0  0  0
   56.4396   29.3104   44.9579 O   0  0  0  0  0  0  0  0  0  0  0  0
   60.0640   27.2472   46.9470 C   0  0  0  0  0  0  0  0  0  0  0  0
   58.5544   27.4452   47.0459 C   0  0  0  0  0  0  0  0  0  0  0  0
   57.8255   26.5744   44.7833 C   0  0  0  0  0  0  0  0  0  0  0  0
   57.3355   25.3586   45.5041 C   0  0  0  0  0  0  0  0  0  0  0  0
   58.2229   23.9435   45.7249 S   0  0  0  0  0  0  0  0  0  0  0  0
   56.9713   23.1927   46.5593 C   0  0  0  0  0  0  0  0  0  0  0  0
   57.0275   22.0251   47.0216 O   0  0  0  0  0  0  0  0  0  0  0  0
   55.8840   23.9829   46.6876 N   0  0  0  0  0  0  0  0  0  0  0  0
   56.0888   25.1919   46.1035 C   0  0  0  0  0  0  0  0  0  0  0  0
   55.1128   26.1800   46.1097 O   0  0  0  0  0  0  0  0  0  0  0  0
   58.6205   30.0601   45.1219 N   0  0  0  0  0  0  0  0  0  0  0  0
   58.5246   31.4072   45.6046 C   0  0  0  0  0  0  0  0  0  0  0  0
   58.0560   32.3956   44.7294 C   0  0  0  0  0  0  0  0  0  0  0  0
   57.9622   33.7236   45.1483 C   0  0  0  0  0  0  0  0  0  0  0  0
   58.3198   34.0719   46.4497 C   0  0  0  0  0  0  0  0  0  0  0  0
   58.7579   33.0908   47.3439 C   0  0  0  0  0  0  0  0  0  0  0  0
   58.8496   31.7440   46.9358 C   0  0  0  0  0  0  0  0  0  0  0  0
   59.2285   30.7277   47.8272 O   0  0  0  0  0  0  0  0  0  0  0  0
   59.9501   30.9440   49.0346 C   0  0  0  0  0  0  0  0  0  0  0  0
  4  5  1  0
  5  1  1  0
  1  6  1  0
  6  7  1  0
  7  8  1  0
  8  9  1  0
  9 10  2  0
  9 11  1  0
 11 12  1  0
 12 13  1  0
  1  2  1  0
  2  3  2  0
  2 14  1  0
 14 15  1  0
 15 16  2  0
 16 17  1  0
 17 18  2  0
 18 19  1  0
 19 20  2  0
 20 21  1  0
 21 22  1  0
 12  7  2  0
 20 15  1  0
M  CHG 1  11  -1
M  CHG 1  13  -1
M  CHG 1  14  -1
M  END
> <UniqueID>
37

> <SMILES>
CCN(Cc1sc(=O)[n-]c1[O-])C(=O)[N-]c1ccccc1OC

> <Energy>
68.30019739126983

> <Genealogy>
CCN(Cc1sc(=O)[n-]c1[O-])C(=O)[N-]c1ccccc1OC (protonated)
CCN(Cc1sc(=O)[n-]c1[O-])C(=O)[N-]c1ccccc1OC (3D coordinates assigned)
CCN(Cc1sc(=O)[n-]c1[O-])C(=O)[N-]c1ccccc1OC (optimized conformer: 68.30019739126983 kcal/mol)

> <smiles>
CCN(Cc1sc(=O)[nH]c1O)C(=O)Nc1ccccc1OC

> <score_type>
oracle

> <origin>
adg

> <m_score__min__energy>
-14.75

> <m_primary>
energy

> <minimizedAffinity>
-6.79693

> <minimizedRMSD>
0.83307

> <CNNscore>
0.7860763669

> <CNNaffinity>
6.4075007439

> <CNN_VS>
5.0367851257

> <CNNaffinity_variance>
0.1404778808

$$$$
41:0


 27 29  0  0  0  0  0  0  0  0999 V2000
   57.7569   30.7652   44.7213 C   0  0  0  0  0  0  0  0  0  0  0  0
   58.9639   30.1852   45.1338 C   0  0  0  0  0  0  0  0  0  0  0  0
   59.0160   28.8252   45.4729 C   0  0  0  0  0  0  0  0  0  0  0  0
   57.8547   28.0452   45.3935 C   0  0  0  0  0  0  0  0  0  0  0  0
   56.6583   28.6116   44.9439 C   0  0  0  0  0  0  0  0  0  0  0  0
   56.6085   29.9619   44.5876 C   0  0  0  0  0  0  0  0  0  0  0  0
   55.4283   30.4920   44.0809 O   0  0  0  0  0  0  0  0  0  0  0  0
   60.5298   28.0976   46.0035 S   0  0  0  0  0  0  0  0  0  0  0  0
   61.5825   28.3784   44.9687 O   0  0  0  0  0  0  0  0  0  0  0  0
   60.3524   26.6108   46.1395 O   0  0  0  0  0  0  0  0  0  0  0  0
   60.9976   28.7899   47.5448 N   0  0  0  0  0  0  0  0  0  0  0  0
   60.4960   30.1750   47.6996 C   0  0  0  0  0  0  0  0  0  0  0  0
   59.2550   30.2601   48.6071 C   0  0  0  0  0  0  0  0  0  0  0  0
   58.4487   29.1162   48.4347 O   0  0  0  0  0  0  0  0  0  0  0  0
   59.0957   27.9735   48.9656 C   0  0  0  0  0  0  0  0  0  0  0  0
   60.6163   27.9203   48.6710 C   0  0  0  0  0  0  0  0  0  0  0  0
   57.7367   32.1531   44.3719 N   0  0  0  0  0  0  0  0  0  0  0  0
   59.0124   34.0914   44.4185 O   0  0  0  0  0  0  0  0  0  0  0  0
   58.4329   33.1879   45.0784 C   0  0  0  0  0  0  0  0  0  0  0  0
   58.5819   33.1644   46.5732 C   0  0  0  0  0  0  0  0  0  0  0  0
   59.3489   34.7119   47.1593 S   0  0  0  0  0  0  0  0  0  0  0  0
   60.8355   33.9133   47.7623 C   0  0  0  0  0  0  0  0  0  0  0  0
   60.9989   33.6545   49.1279 C   0  0  0  0  0  0  0  0  0  0  0  0
   62.1554   33.0017   49.5662 C   0  0  0  0  0  0  0  0  0  0  0  0
   63.1358   32.6240   48.6435 C   0  0  0  0  0  0  0  0  0  0  0  0
   62.9428   32.9112   47.2881 C   0  0  0  0  0  0  0  0  0  0  0  0
   61.8074   33.5456   46.8815 N   0  0  0  0  0  0  0  0  0  0  0  0
 18 19  2  0
 19 20  1  0
 20 21  1  0
 21 22  1  0
 22 23  2  0
 23 24  1  0
 24 25  2  0
 25 26  1  0
 26 27  2  0
 19 17  1  0
 17  1  1  0
  1  2  2  0
  2  3  1  0
  3  8  1  0
  8  9  2  0
  8 10  2  0
  8 11  1  0
 11 12  1  0
 12 13  1  0
 13 14  1  0
 14 15  1  0
 15 16  1  0
  3  4  2  0
  4  5  1  0
  5  6  2  0
  6  7  1  0
 27 22  1  0
  6  1  1  0
 16 11  1  0
M  CHG 1   7  -1
M  CHG 1  17  -1
M  END
> <UniqueID>
40

> <SMILES>
O=C(CSc1ccccn1)[N-]c1cc(S(=O)(=O)N2CCOCC2)ccc1[O-]

> <Energy>
59.345170502973

> <Genealogy>
O=C(CSc1ccccn1)[N-]c1cc(S(=O)(=O)N2CCOCC2)ccc1[O-] (protonated)
O=C(CSc1ccccn1)[N-]c1cc(S(=O)(=O)N2CCOCC2)ccc1[O-] (3D coordinates assigned)
O=C(CSc1ccccn1)[N-]c1cc(S(=O)(=O)N2CCOCC2)ccc1[O-] (nonaromatic ring conformer: 59.345170502973 kcal/mol)

> <smiles>
O=C(CSc1ccccn1)Nc1cc(S(=O)(=O)N2CCOCC2)ccc1O

> <score_type>
oracle

> <origin>
adg

> <m_score__min__energy>
-14.18

> <m_primary>
energy

> <minimizedAffinity>
-3.98998

> <minimizedRMSD>
0.85583

> <CNNscore>
0.5184153318

> <CNNaffinity>
5.8394889832

> <CNN_VS>
3.0272805691

> <CNNaffinity_variance>
0.0671297684

$$$$
50:0


 22 23  0  0  0  0  0  0  0  0999 V2000
   59.2806   31.6964   50.2404 C   0  0  0  0  0  0  0  0  0  0  0  0
   59.5079   30.7647   49.0806 C   0  0  0  0  0  0  0  0  0  0  0  0
   59.8820   29.4339   49.3302 C   0  0  0  0  0  0  0  0  0  0  0  0
   60.0901   28.5318   48.2767 C   0  0  0  0  0  0  0  0  0  0  0  0
   60.4961   27.1143   48.5793 C   0  0  0  0  0  0  0  0  0  0  0  0
   59.9173   28.9715   46.9489 C   0  0  0  0  0  0  0  0  0  0  0  0
   59.5725   30.3022   46.6962 C   0  0  0  0  0  0  0  0  0  0  0  0
   59.3506   31.2069   47.7468 C   0  0  0  0  0  0  0  0  0  0  0  0
   58.9848   32.5681   47.4629 N   0  0  0  0  0  0  0  0  0  0  0  0
   59.1240   33.2495   48.1597 H   0  0  0  0  0  0  0  0  0  0  0  0
   58.3077   33.0591   45.9419 S   0  0  0  0  0  0  0  0  0  0  0  0
   59.2499   34.4076   45.2610 C   0  0  0  0  0  0  0  0  0  0  0  0
   56.8733   33.4670   46.1259 O   0  0  0  0  0  0  0  0  0  0  0  0
   58.3692   31.9035   44.9844 O   0  0  0  0  0  0  0  0  0  0  0  0
   60.1478   27.8609   45.5506 S   0  0  0  0  0  0  0  0  0  0  0  0
   58.5726   27.0455   45.8110 C   0  0  0  0  0  0  0  0  0  0  0  0
   58.3740   25.4802   46.3927 S   0  0  0  0  0  0  0  0  0  0  0  0
   56.6964   25.5835   46.3065 C   0  0  0  0  0  0  0  0  0  0  0  0
   55.9120   24.6559   46.6346 O   0  0  0  0  0  0  0  0  0  0  0  0
   56.2697   26.7767   45.8419 N   0  0  0  0  0  0  0  0  0  0  0  0
   57.3192   27.5921   45.5632 C   0  0  0  0  0  0  0  0  0  0  0  0
   57.1369   28.8750   45.0634 O   0  0  0  0  0  0  0  0  0  0  0  0
  1  2  1  0
  2  3  2  0
  3  4  1  0
  4  5  1  0
  4  6  2  0
  6 15  1  0
 15 16  1  0
 16 17  1  0
 17 18  1  0
 18 19  2  0
 18 20  1  0
 20 21  1  0
 21 22  1  0
  6  7  1  0
  7  8  2  0
  8  9  1  0
  9 11  1  0
 11 12  1  0
 11 13  2  0
 11 14  2  0
  8  2  1  0
 21 16  2  0
  9 10  1  0
M  CHG 1  20  -1
M  CHG 1  22  -1
M  END
> <UniqueID>
48

> <SMILES>
Cc1cc(C)c(Sc2sc(=O)[n-]c2[O-])cc1NS(C)(=O)=O

> <Energy>
59.733598630077374

> <Genealogy>
Cc1cc(C)c(Sc2sc(=O)[n-]c2[O-])cc1NS(C)(=O)=O (protonated)
Cc1cc(C)c(Sc2sc(=O)[n-]c2[O-])cc1NS(C)(=O)=O (3D coordinates assigned)
Cc1cc(C)c(Sc2sc(=O)[n-]c2[O-])cc1NS(C)(=O)=O (optimized conformer: 59.733598630077374 kcal/mol)

> <smiles>
Cc1cc(C)c(Sc2sc(=O)[nH]c2O)cc1NS(C)(=O)=O

> <score_type>
oracle

> <origin>
adg

> <m_score__min__energy>
-14.1

> <m_primary>
energy

> <minimizedAffinity>
-6.03157

> <minimizedRMSD>
1.50344

> <CNNscore>
0.7552871704

> <CNNaffinity>
6.5353636742

> <CNN_VS>
4.9360761642

> <CNNaffinity_variance>
0.4189884663

$$$$
65:0


 22 23  0  0  0  0  0  0  0  0999 V2000
   54.8309   29.7769   55.2556 N   0  0  0  0  0  0  0  0  0  0  0  0
   56.2942   28.9755   54.7810 S   0  0  0  0  0  0  0  0  0  0  0  0
   55.9682   27.5819   54.3232 O   0  0  0  0  0  0  0  0  0  0  0  0
   57.2543   28.9206   55.9365 O   0  0  0  0  0  0  0  0  0  0  0  0
   58.8733   32.1100   50.2669 C   0  0  0  0  0  0  0  0  0  0  0  0
   58.2582   31.3454   51.4027 C   0  0  0  0  0  0  0  0  0  0  0  0
   57.2174   31.9106   52.1540 C   0  0  0  0  0  0  0  0  0  0  0  0
   56.6206   31.1844   53.1886 C   0  0  0  0  0  0  0  0  0  0  0  0
   57.0446   29.8794   53.4713 C   0  0  0  0  0  0  0  0  0  0  0  0
   58.0781   29.3088   52.7145 C   0  0  0  0  0  0  0  0  0  0  0  0
   58.6753   30.0338   51.6795 C   0  0  0  0  0  0  0  0  0  0  0  0
   53.5259   29.4292   54.7799 C   0  0  0  0  0  0  0  0  0  0  0  0
   52.8942   28.5065   55.3598 O   0  0  0  0  0  0  0  0  0  0  0  0
   52.8995   30.1246   53.6370 C   0  0  0  0  0  0  0  0  0  0  0  0
   53.3912   29.8755   52.3464 C   0  0  0  0  0  0  0  0  0  0  0  0
   52.8505   30.5351   51.2430 C   0  0  0  0  0  0  0  0  0  0  0  0
   51.8254   31.4642   51.4149 C   0  0  0  0  0  0  0  0  0  0  0  0
   51.3018   32.1252   50.3109 O   0  0  0  0  0  0  0  0  0  0  0  0
   51.3257   31.7318   52.6962 C   0  0  0  0  0  0  0  0  0  0  0  0
   50.3111   32.6751   52.8435 O   0  0  0  0  0  0  0  0  0  0  0  0
   51.8454   31.0535   53.8189 C   0  0  0  0  0  0  0  0  0  0  0  0
   51.3008   31.3451   55.1956 C   0  0  0  0  0  0  0  0  0  0  0  0
  5  6  1  0
  6  7  2  0
  7  8  1  0
  8  9  2  0
  9  2  1  0
  2  3  2  0
  2  4  2  0
  2  1  1  0
  1 12  1  0
 12 13  2  0
 12 14  1  0
 14 15  2  0
 15 16  1  0
 16 17  2  0
 17 18  1  0
 17 19  1  0
 19 20  1  0
 19 21  2  0
 21 22  1  0
  9 10  1  0
 10 11  2  0
 11  6  1  0
 21 14  1  0
M  CHG 1   1  -1
M  CHG 1  18  -1
M  CHG 1  20  -1
M  END
> <UniqueID>
62

> <SMILES>
Cc1ccc(S(=O)(=O)[N-]C(=O)c2ccc([O-])c([O-])c2C)cc1

> <Energy>
44.79247773941586

> <Genealogy>
Cc1ccc(S(=O)(=O)[N-]C(=O)c2ccc([O-])c([O-])c2C)cc1 (protonated)
Cc1ccc(S(=O)(=O)[N-]C(=O)c2ccc([O-])c([O-])c2C)cc1 (3D coordinates assigned)
Cc1ccc(S(=O)(=O)[N-]C(=O)c2ccc([O-])c([O-])c2C)cc1 (optimized conformer: 44.79247773941586 kcal/mol)

> <smiles>
Cc1ccc(S(=O)(=O)NC(=O)c2ccc(O)c(O)c2C)cc1

> <score_type>
oracle

> <origin>
adg

> <m_score__min__energy>
-15.960000000000001

> <m_primary>
energy

> <minimizedAffinity>
-4.97631

> <minimizedRMSD>
1.49258

> <CNNscore>
0.3308926821

> <CNNaffinity>
4.2282772064

> <CNN_VS>
1.3991060257

> <CNNaffinity_variance>
0.3278892338

$$$$
78:0


 23 25  0  0  0  0  0  0  0  0999 V2000
   58.6761   26.2815   45.7747 C   0  0  0  0  0  0  0  0  0  0  0  0
   57.8490   25.0840   45.9321 N   0  0  0  0  0  0  0  0  0  0  0  0
   56.5145   25.0395   46.1371 C   0  0  0  0  0  0  0  0  0  0  0  0
   55.7106   26.1614   46.3074 O   0  0  0  0  0  0  0  0  0  0  0  0
   56.0683   23.7334   46.1243 C   0  0  0  0  0  0  0  0  0  0  0  0
   57.1702   22.9478   45.8987 C   0  0  0  0  0  0  0  0  0  0  0  0
   58.2473   23.8012   45.7805 C   0  0  0  0  0  0  0  0  0  0  0  0
   59.5544   23.4164   45.5066 O   0  0  0  0  0  0  0  0  0  0  0  0
   57.1201   21.4633   45.7314 C   0  0  0  0  0  0  0  0  0  0  0  0
   55.7043   20.9324   45.8367 C   0  0  0  0  0  0  0  0  0  0  0  0
   54.6203   21.7081   46.0601 C   0  0  0  0  0  0  0  0  0  0  0  0
   54.6721   23.2117   46.2355 C   0  0  0  0  0  0  0  0  0  0  0  0
   58.2162   27.1207   44.5762 C   0  0  0  0  0  0  0  0  0  0  0  0
   59.7150   28.9633   44.7859 O   0  0  0  0  0  0  0  0  0  0  0  0
   58.5143   28.5827   44.7824 C   0  0  0  0  0  0  0  0  0  0  0  0
   57.4855   29.5494   45.0286 N   0  0  0  0  0  0  0  0  0  0  0  0
   57.2842   30.7729   44.2627 C   0  0  0  0  0  0  0  0  0  0  0  0
   57.8847   31.9263   45.0056 C   0  0  0  0  0  0  0  0  0  0  0  0
   58.2324   33.1113   44.3370 C   0  0  0  0  0  0  0  0  0  0  0  0
   58.7628   34.1772   45.0646 C   0  0  0  0  0  0  0  0  0  0  0  0
   58.9363   34.0587   46.4457 C   0  0  0  0  0  0  0  0  0  0  0  0
   58.5742   32.8672   47.0789 C   0  0  0  0  0  0  0  0  0  0  0  0
   58.0593   31.8381   46.3531 N   0  0  0  0  0  0  0  0  0  0  0  0
 14 15  2  0
 15 13  1  0
 13  1  1  0
  1  2  1  0
  2  3  1  0
  3  4  1  0
  3  5  2  0
  5  6  1  0
  6  7  2  0
  7  8  1  0
  6  9  1  0
  9 10  1  0
 10 11  2  0
 11 12  1  0
 15 16  1  0
 16 17  1  0
 17 18  1  0
 18 19  2  0
 19 20  1  0
 20 21  2  0
 21 22  1  0
 22 23  2  0
  7  2  1  0
 23 18  1  0
 12  5  1  0
M  CHG 1   4  -1
M  CHG 1   8  -1
M  CHG 1  16  -1
M  END
> <UniqueID>
72

> <SMILES>
O=C(CCn1c([O-])c2c(c1[O-])CC=CC2)[N-]Cc1ccccn1

> <Energy>
64.83739701846805

> <Genealogy>
O=C(CCn1c([O-])c2c(c1[O-])CC=CC2)[N-]Cc1ccccn1 (protonated)
O=C(CCn1c([O-])c2c(c1[O-])CC=CC2)[N-]Cc1ccccn1 (3D coordinates assigned)
O=C(CCn1c([O-])c2c(c1[O-])CC=CC2)[N-]Cc1ccccn1 (nonaromatic ring conformer: 64.83739701846805 kcal/mol)

> <smiles>
O=C(CCn1c(O)c2c(c1O)CC=CC2)NCc1ccccn1

> <score_type>
oracle

> <origin>
adg

> <m_score__min__energy>
-14.52

> <m_primary>
energy

> <minimizedAffinity>
-6.97593

> <minimizedRMSD>
1.86262

> <CNNscore>
0.3103579581

> <CNNaffinity>
6.1062178612

> <CNN_VS>
1.8951133490

> <CNNaffinity_variance>
0.4003835022

$$$$
80:0


 30 32  0  0  0  0  0  0  0  0999 V2000
   58.4423   29.8872   46.0488 C   0  0  0  0  0  0  0  0  0  0  0  0
   58.5422   30.6030   47.1318 N   0  0  0  0  0  0  0  0  0  0  0  0
   57.7029   28.6035   46.0311 C   0  0  0  0  0  0  0  0  0  0  0  0
   56.4536   28.5051   45.4142 C   0  0  0  0  0  0  0  0  0  0  0  0
   55.8774   29.6078   44.7935 O   0  0  0  0  0  0  0  0  0  0  0  0
   55.7899   27.3249   45.4218 N   0  0  0  0  0  0  0  0  0  0  0  0
   56.3098   26.2199   46.0141 C   0  0  0  0  0  0  0  0  0  0  0  0
   55.6411   25.1527   46.0034 O   0  0  0  0  0  0  0  0  0  0  0  0
   57.5440   26.2712   46.6166 N   0  0  0  0  0  0  0  0  0  0  0  0
   58.2382   27.4566   46.6389 C   0  0  0  0  0  0  0  0  0  0  0  0
   59.3594   27.5282   47.2143 O   0  0  0  0  0  0  0  0  0  0  0  0
   58.0847   25.0774   47.2920 C   0  0  0  0  0  0  0  0  0  0  0  0
   57.9915   23.8907   46.3849 C   0  0  0  0  0  0  0  0  0  0  0  0
   58.6329   23.7496   45.1705 C   0  0  0  0  0  0  0  0  0  0  0  0
   58.2878   22.4952   44.7139 C   0  0  0  0  0  0  0  0  0  0  0  0
   57.4612   21.9522   45.6768 C   0  0  0  0  0  0  0  0  0  0  0  0
   57.3064   22.8063   46.6621 O   0  0  0  0  0  0  0  0  0  0  0  0
   59.0762   30.3901   44.7812 C   0  0  0  0  0  0  0  0  0  0  0  0
   58.1398   31.3272   44.0092 C   0  0  0  0  0  0  0  0  0  0  0  0
   57.0002   32.8187   45.4921 O   0  0  0  0  0  0  0  0  0  0  0  0
   57.9688   32.6412   44.7089 C   0  0  0  0  0  0  0  0  0  0  0  0
   58.8561   33.6812   44.4667 O   0  0  0  0  0  0  0  0  0  0  0  0
   59.5745   30.4411   48.1510 C   0  0  0  0  0  0  0  0  0  0  0  0
   60.6766   31.4266   47.8958 C   0  0  0  0  0  0  0  0  0  0  0  0
   60.3852   32.6831   47.3380 C   0  0  0  0  0  0  0  0  0  0  0  0
   61.4162   33.5873   47.0642 C   0  0  0  0  0  0  0  0  0  0  0  0
   62.7429   33.2409   47.3348 C   0  0  0  0  0  0  0  0  0  0  0  0
   63.7409   34.1186   47.0663 F   0  0  0  0  0  0  0  0  0  0  0  0
   63.0408   31.9864   47.8738 C   0  0  0  0  0  0  0  0  0  0  0  0
   62.0144   31.0787   48.1485 C   0  0  0  0  0  0  0  0  0  0  0  0
 20 21  2  0
 21 22  1  0
 21 19  1  0
 19 18  1  0
 18  1  1  0
  1  2  2  0
  2 23  1  0
 23 24  1  0
 24 25  2  0
 25 26  1  0
 26 27  2  0
 27 28  1  0
 27 29  1  0
 29 30  2  0
  1  3  1  0
  3  4  2  0
  4  5  1  0
  4  6  1  0
  6  7  1  0
  7  8  2  0
  7  9  1  0
  9 12  1  0
 12 13  1  0
 13 14  2  0
 14 15  1  0
 15 16  2  0
 16 17  1  0
  9 10  1  0
 10 11  2  0
 30 24  1  0
 10  3  1  0
 17 13  1  0
M  CHG 1   5  -1
M  CHG 1   6  -1
M  CHG 1  22  -1
M  END
> <UniqueID>
74

> <SMILES>
O=C([O-])CCC(=NCc1ccc(F)cc1)c1c([O-])[n-]c(=O)n(Cc2ccco2)c1=O

> <Energy>
78.40590046743723

> <Genealogy>
O=C([O-])CCC(=NCc1ccc(F)cc1)c1c([O-])[n-]c(=O)n(Cc2ccco2)c1=O (protonated)
O=C([O-])CCC(=NCc1ccc(F)cc1)c1c([O-])[n-]c(=O)n(Cc2ccco2)c1=O (3D coordinates assigned)
O=C([O-])CCC(=NCc1ccc(F)cc1)c1c([O-])[n-]c(=O)n(Cc2ccco2)c1=O (optimized conformer: 78.40590046743723 kcal/mol)

> <smiles>
O=C(O)CCC(=NCc1ccc(F)cc1)c1c(O)[nH]c(=O)n(Cc2ccco2)c1=O

> <score_type>
oracle

> <origin>
adg

> <m_score__min__energy>
-14.220000000000001

> <m_primary>
energy

> <minimizedAffinity>
-5.67376

> <minimizedRMSD>
0.73713

> <CNNscore>
0.3167532980

> <CNNaffinity>
6.1274199486

> <CNN_VS>
1.9408804178

> <CNNaffinity_variance>
0.0730170086

$$$$
81:0


 30 32  0  0  0  0  0  0  0  0999 V2000
   59.1141   29.4381   48.4937 C   0  0  0  0  0  0  0  0  0  0  0  0
   58.6970   29.3086   47.2234 C   0  0  0  0  0  0  0  0  0  0  0  0
   58.0975   28.1814   46.6351 C   0  0  0  0  0  0  0  0  0  0  0  0
   57.9311   26.9251   47.0918 C   0  0  0  0  0  0  0  0  0  0  0  0
   57.6626   28.5848   45.3818 C   0  0  0  0  0  0  0  0  0  0  0  0
   58.0560   29.8972   45.2248 C   0  0  0  0  0  0  0  0  0  0  0  0
   57.7948   30.7211   43.9997 C   0  0  0  0  0  0  0  0  0  0  0  0
   58.6810   30.3384   46.3383 N   0  0  0  0  0  0  0  0  0  0  0  0
   57.6647   25.7364   46.2590 C   0  0  0  0  0  0  0  0  0  0  0  0
   56.3580   25.4443   45.8428 C   0  0  0  0  0  0  0  0  0  0  0  0
   55.2946   26.2432   46.2494 O   0  0  0  0  0  0  0  0  0  0  0  0
   56.1220   24.3698   45.0423 N   0  0  0  0  0  0  0  0  0  0  0  0
   57.1449   23.5749   44.6215 C   0  0  0  0  0  0  0  0  0  0  0  0
   56.8504   22.2841   43.6621 S   0  0  0  0  0  0  0  0  0  0  0  0
   58.4211   23.8571   44.9900 N   0  0  0  0  0  0  0  0  0  0  0  0
   58.7053   24.9177   45.7862 C   0  0  0  0  0  0  0  0  0  0  0  0
   59.9036   25.1600   46.0893 O   0  0  0  0  0  0  0  0  0  0  0  0
   55.2004   24.1643   44.7637 H   0  0  0  0  0  0  0  0  0  0  0  0
   59.2046   31.6643   46.5364 C   0  0  0  0  0  0  0  0  0  0  0  0
   58.3645   32.7775   46.4053 C   0  0  0  0  0  0  0  0  0  0  0  0
   58.8693   34.0648   46.6042 C   0  0  0  0  0  0  0  0  0  0  0  0
   60.2132   34.2495   46.9375 C   0  0  0  0  0  0  0  0  0  0  0  0
   61.0702   33.1417   47.0762 C   0  0  0  0  0  0  0  0  0  0  0  0
   60.5547   31.8500   46.8712 C   0  0  0  0  0  0  0  0  0  0  0  0
   62.4948   33.3285   47.4269 C   0  0  0  0  0  0  0  0  0  0  0  0
   63.3426   33.5689   46.5235 O   0  0  0  0  0  0  0  0  0  0  0  0
   62.8977   33.2423   48.7658 O   0  0  0  0  0  0  0  0  0  0  0  0
   63.4561   32.0676   49.3557 C   0  0  0  0  0  0  0  0  0  0  0  0
   62.3749   31.2248   50.0384 C   0  0  0  0  0  0  0  0  0  0  0  0
   61.2723   32.0755   50.6607 C   0  0  0  0  0  0  0  0  0  0  0  0
  1  2  2  0
  2  3  1  0
  3  4  2  0
  4  9  1  0
  9 10  2  0
 10 11  1  0
 10 12  1  0
 12 13  1  0
 13 14  2  0
 13 15  1  0
 15 16  1  0
 16 17  2  0
  3  5  1  0
  5  6  2  0
  6  7  1  0
  6  8  1  0
  8 19  1  0
 19 20  2  0
 20 21  1  0
 21 22  2  0
 22 23  1  0
 23 25  1  0
 25 26  2  0
 25 27  1  0
 27 28  1  0
 28 29  1  0
 29 30  1  0
 23 24  2  0
  8  2  1  0
 24 19  1  0
 16  9  1  0
 12 18  1  0
M  CHG 1  11  -1
M  CHG 1  15  -1
M  END
> <UniqueID>
75

> <SMILES>
C=c1c(=Cc2c([O-])[nH]c(=S)[n-]c2=O)cc(C)n1-c1cccc(C(=O)OCCC)c1

> <Energy>
94.17837287332391

> <Genealogy>
C=c1c(=Cc2c([O-])[nH]c(=S)[n-]c2=O)cc(C)n1-c1cccc(C(=O)OCCC)c1 (protonated)
C=c1c(=Cc2c([O-])[nH]c(=S)[n-]c2=O)cc(C)n1-c1cccc(C(=O)OCCC)c1 (3D coordinates assigned)
C=c1c(=Cc2c([O-])[nH]c(=S)[n-]c2=O)cc(C)n1-c1cccc(C(=O)OCCC)c1 (optimized conformer: 94.17837287332391 kcal/mol)

> <smiles>
C=c1c(=Cc2c(O)[nH]c(=S)[nH]c2=O)cc(C)n1-c1cccc(C(=O)OCCC)c1

> <score_type>
oracle

> <origin>
adg

> <m_score__min__energy>
-14.029999999999999

> <m_primary>
energy

> <minimizedAffinity>
-8.39826

> <minimizedRMSD>
1.07045

> <CNNscore>
0.2830859423

> <CNNaffinity>
6.6277756691

> <CNN_VS>
1.8762301207

> <CNNaffinity_variance>
0.0081170565

$$$$
92:0


 26 28  0  0  0  0  0  0  0  0999 V2000
   57.9110   26.0030   46.7524 C   0  0  0  0  0  0  0  0  0  0  0  0
   59.2310   26.4450   46.8247 C   0  0  0  0  0  0  0  0  0  0  0  0
   59.5887   27.6604   46.2421 C   0  0  0  0  0  0  0  0  0  0  0  0
   58.6566   28.4343   45.6072 N   0  0  0  0  0  0  0  0  0  0  0  0
   57.3408   28.0431   45.5700 C   0  0  0  0  0  0  0  0  0  0  0  0
   56.4696   28.7755   45.0267 O   0  0  0  0  0  0  0  0  0  0  0  0
   56.9473   26.8277   46.1493 C   0  0  0  0  0  0  0  0  0  0  0  0
   55.6016   26.4728   46.1518 O   0  0  0  0  0  0  0  0  0  0  0  0
   57.5696   24.7511   47.3665 N   0  0  0  0  0  0  0  0  0  0  0  0
   56.5198   23.8746   46.9393 C   0  0  0  0  0  0  0  0  0  0  0  0
   55.5115   23.6871   47.6731 O   0  0  0  0  0  0  0  0  0  0  0  0
   57.6141   21.5892   44.2184 C   0  0  0  0  0  0  0  0  0  0  0  0
   57.4905   22.2179   45.4176 N   0  0  0  0  0  0  0  0  0  0  0  0
   56.6048   23.2350   45.6145 C   0  0  0  0  0  0  0  0  0  0  0  0
   55.7881   23.6516   44.5483 C   0  0  0  0  0  0  0  0  0  0  0  0
   55.8997   23.0173   43.3094 C   0  0  0  0  0  0  0  0  0  0  0  0
   56.8175   21.9795   43.1403 C   0  0  0  0  0  0  0  0  0  0  0  0
   59.0772   29.7192   45.0265 C   0  0  0  0  0  0  0  0  0  0  0  0
   58.8084   30.8302   45.9917 C   0  0  0  0  0  0  0  0  0  0  0  0
   57.8779   31.6460   45.7542 O   0  0  0  0  0  0  0  0  0  0  0  0
   59.5934   30.9149   47.1934 N   0  0  0  0  0  0  0  0  0  0  0  0
   60.6406   31.6570   47.4064 C   0  0  0  0  0  0  0  0  0  0  0  0
   61.7031   31.2041   48.1042 N   0  0  0  0  0  0  0  0  0  0  0  0
   62.6793   32.1454   48.2059 C   0  0  0  0  0  0  0  0  0  0  0  0
   62.4001   33.3586   47.5879 C   0  0  0  0  0  0  0  0  0  0  0  0
   60.8737   33.2464   46.8892 S   0  0  0  0  0  0  0  0  0  0  0  0
 12 13  2  0
 13 14  1  0
 14 10  1  0
 10 11  2  0
 10  9  1  0
  9  1  1  0
  1  2  1  0
  2  3  2  0
  3  4  1  0
  4 18  1  0
 18 19  1  0
 19 20  2  0
 19 21  1  0
 21 22  2  0
 22 23  1  0
 23 24  1  0
 24 25  2  0
 25 26  1  0
  4  5  1  0
  5  6  2  0
  5  7  1  0
  7  8  1  0
 14 15  2  0
 15 16  1  0
 16 17  2  0
 17 12  1  0
  7  1  2  0
 26 22  1  0
M  CHG 1   8  -1
M  CHG 1   9  -1
M  CHG 1  23  -1
M  END
> <UniqueID>
84

> <SMILES>
O=C(Cn1ccc([N-]C(=O)c2ccccn2)c([O-])c1=O)/N=c1/[n-]ccs1

> <Energy>
79.69963573285433

> <Genealogy>
O=C(Cn1ccc([N-]C(=O)c2ccccn2)c([O-])c1=O)N=c1[n-]ccs1 (protonated)
O=C(Cn1ccc([N-]C(=O)c2ccccn2)c([O-])c1=O)/N=c1/[n-]ccs1 (cis-trans isomerization)
O=C(Cn1ccc([N-]C(=O)c2ccccn2)c([O-])c1=O)/N=c1/[n-]ccs1 (3D coordinates assigned)
O=C(Cn1ccc([N-]C(=O)c2ccccn2)c([O-])c1=O)/N=c1/[n-]ccs1 (optimized conformer: 79.69963573285433 kcal/mol)

> <smiles>
O=C(Cn1ccc(NC(=O)c2ccccn2)c(O)c1=O)N=c1[nH]ccs1

> <score_type>
oracle

> <origin>
adg

> <m_score__min__energy>
-14.56

> <m_primary>
energy

> <minimizedAffinity>
-7.04345

> <minimizedRMSD>
1.64482

> <CNNscore>
0.4684315026

> <CNNaffinity>
6.0205664635

> <CNN_VS>
2.8202230930

> <CNNaffinity_variance>
0.0198026784

$$$$
2:0


 29 31  0  0  0  0  0  0  0  0999 V2000
   58.1158   33.5464   44.9079 C   0  0  0  0  0  0  0  0  0  0  0  0
   57.2454   33.6590   46.1849 C   0  0  0  0  0  0  0  0  0  0  0  0
   57.9680   33.1822   47.4524 C   0  0  0  0  0  0  0  0  0  0  0  0
   59.2918   33.8078   47.5891 N   0  0  0  0  0  0  0  0  0  0  0  0
   59.9357   33.8194   48.8751 C   0  0  0  0  0  0  0  0  0  0  0  0
   59.2723   34.1522   49.8926 O   0  0  0  0  0  0  0  0  0  0  0  0
   59.8790   34.5474   46.4624 C   0  0  0  0  0  0  0  0  0  0  0  0
   59.6270   33.7811   45.1631 C   0  0  0  0  0  0  0  0  0  0  0  0
   61.3580   33.4316   49.0272 C   0  0  0  0  0  0  0  0  0  0  0  0
   61.9360   32.4723   48.1756 C   0  0  0  0  0  0  0  0  0  0  0  0
   63.2739   32.1006   48.3335 C   0  0  0  0  0  0  0  0  0  0  0  0
   64.0473   32.6751   49.3463 C   0  0  0  0  0  0  0  0  0  0  0  0
   65.3433   32.3105   49.4977 F   0  0  0  0  0  0  0  0  0  0  0  0
   63.4789   33.6194   50.2058 C   0  0  0  0  0  0  0  0  0  0  0  0
   62.1412   33.9938   50.0514 C   0  0  0  0  0  0  0  0  0  0  0  0
   57.8973   32.2292   44.2112 C   0  0  0  0  0  0  0  0  0  0  0  0
   58.0892   32.1338   42.9690 O   0  0  0  0  0  0  0  0  0  0  0  0
   57.3880   31.1174   44.9584 N   0  0  0  0  0  0  0  0  0  0  0  0
   58.1485   27.5865   45.9014 C   0  0  0  0  0  0  0  0  0  0  0  0
   59.4810   27.6882   46.3202 C   0  0  0  0  0  0  0  0  0  0  0  0
   60.1323   28.9235   46.2893 C   0  0  0  0  0  0  0  0  0  0  0  0
   59.4616   30.0627   45.8347 C   0  0  0  0  0  0  0  0  0  0  0  0
   58.1277   29.9695   45.3971 C   0  0  0  0  0  0  0  0  0  0  0  0
   57.4729   28.7308   45.4520 C   0  0  0  0  0  0  0  0  0  0  0  0
   55.6094   26.2823   46.0247 N   0  0  0  0  0  0  0  0  0  0  0  0
   57.3189   26.0346   45.9687 S   0  0  0  0  0  0  0  0  0  0  0  0
   57.6701   25.2286   44.7505 O   0  0  0  0  0  0  0  0  0  0  0  0
   57.7373   25.2821   47.2015 O   0  0  0  0  0  0  0  0  0  0  0  0
   55.1362   25.3796   46.0636 H   0  0  0  0  0  0  0  0  0  0  0  0
 25 26  1  0
 26 27  2  0
 26 28  2  0
 26 19  1  0
 19 20  2  0
 20 21  1  0
 21 22  2  0
 22 23  1  0
 23 18  1  0
 18 16  1  0
 16 17  2  0
 16  1  1  0
  1  2  1  0
  2  3  1  0
  3  4  1  0
  4  5  1  0
  5  6  2  0
  5  9  1  0
  9 10  2  0
 10 11  1  0
 11 12  2  0
 12 13  1  0
 12 14  1  0
 14 15  2  0
  4  7  1  0
  7  8  1  0
 23 24  2  0
 24 19  1  0
  8  1  1  0
 15  9  1  0
 25 29  1  0
M  CHG 1  18  -1
M  CHG 1  25  -1
M  END
> <UniqueID>
3

> <SMILES>
[NH-]S(=O)(=O)c1cccc([N-]C(=O)C2CCN(C(=O)c3ccc(F)cc3)CC2)c1

> <Energy>
58.05085184626405

> <Genealogy>
[NH-]S(=O)(=O)c1cccc([N-]C(=O)C2CCN(C(=O)c3ccc(F)cc3)CC2)c1 (protonated)
[NH-]S(=O)(=O)c1cccc([N-]C(=O)C2CCN(C(=O)c3ccc(F)cc3)CC2)c1 (3D coordinates assigned)
[NH-]S(=O)(=O)c1cccc([N-]C(=O)C2CCN(C(=O)c3ccc(F)cc3)CC2)c1 (nonaromatic ring conformer: 58.05085184626405 kcal/mol)

> <smiles>
NS(=O)(=O)c1cccc(NC(=O)C2CCN(C(=O)c3ccc(F)cc3)CC2)c1

> <score_type>
oracle

> <origin>
adg

> <m_score__min__energy>
-14.039999999999999

> <m_primary>
energy

> <minimizedAffinity>
-9.24947

> <minimizedRMSD>
0.48666

> <CNNscore>
0.7755497694

> <CNNaffinity>
7.1434726715

> <CNN_VS>
5.5401186943

> <CNNaffinity_variance>
0.0852881968

$$$$
4:0


 29 32  0  0  0  0  0  0  0  0999 V2000
   57.8672   31.2518   45.1840 C   0  0  0  0  0  0  0  0  0  0  0  0
   57.8476   32.4836   44.4749 C   0  0  0  0  0  0  0  0  0  0  0  0
   58.5124   33.6166   44.9805 C   0  0  0  0  0  0  0  0  0  0  0  0
   59.1871   33.4861   46.1886 C   0  0  0  0  0  0  0  0  0  0  0  0
   59.8839   34.4241   46.8468 N   0  0  0  0  0  0  0  0  0  0  0  0
   60.3174   33.7500   47.9425 C   0  0  0  0  0  0  0  0  0  0  0  0
   61.0719   34.3190   48.8364 N   0  0  0  0  0  0  0  0  0  0  0  0
   59.9421   32.4439   47.9919 N   0  0  0  0  0  0  0  0  0  0  0  0
   59.2207   32.3097   46.8697 C   0  0  0  0  0  0  0  0  0  0  0  0
   58.5815   31.1654   46.4040 C   0  0  0  0  0  0  0  0  0  0  0  0
   57.1566   30.0686   44.6403 C   0  0  0  0  0  0  0  0  0  0  0  0
   55.9246   30.1461   44.3858 O   0  0  0  0  0  0  0  0  0  0  0  0
   58.3518   26.3036   46.8090 C   0  0  0  0  0  0  0  0  0  0  0  0
   59.7396   26.3408   46.9296 C   0  0  0  0  0  0  0  0  0  0  0  0
   60.4679   27.2500   46.1626 C   0  0  0  0  0  0  0  0  0  0  0  0
   59.8300   28.0888   45.2997 N   0  0  0  0  0  0  0  0  0  0  0  0
   58.4674   28.0581   45.1454 C   0  0  0  0  0  0  0  0  0  0  0  0
   57.8488   28.8541   44.3154 N   0  0  0  0  0  0  0  0  0  0  0  0
   57.7075   27.1653   45.9188 C   0  0  0  0  0  0  0  0  0  0  0  0
   56.3224   27.1253   45.8019 O   0  0  0  0  0  0  0  0  0  0  0  0
   60.3590   28.7318   44.7746 H   0  0  0  0  0  0  0  0  0  0  0  0
   62.4221   33.9719   49.1943 C   0  0  0  0  0  0  0  0  0  0  0  0
   63.2681   33.8538   48.2680 O   0  0  0  0  0  0  0  0  0  0  0  0
   62.8715   33.8148   50.6366 C   0  0  0  0  0  0  0  0  0  0  0  0
   64.2858   33.1689   50.7342 C   0  0  0  0  0  0  0  0  0  0  0  0
   64.2915   31.7735   51.3807 C   0  0  0  0  0  0  0  0  0  0  0  0
   63.1409   30.9170   50.8484 C   0  0  0  0  0  0  0  0  0  0  0  0
   61.7596   31.5461   51.1281 C   0  0  0  0  0  0  0  0  0  0  0  0
   61.8148   33.0485   51.4613 C   0  0  0  0  0  0  0  0  0  0  0  0
 13 14  1  0
 14 15  2  0
 15 16  1  0
 16 17  1  0
 17 18  2  0
 18 11  1  0
 11 12  2  0
 11  1  1  0
  1  2  2  0
  2  3  1  0
  3  4  2  0
  4  5  1  0
  5  6  1  0
  6  7  2  0
  7 22  1  0
 22 23  2  0
 22 24  1  0
 24 25  1  0
 25 26  1  0
 26 27  1  0
 27 28  1  0
 28 29  1  0
  6  8  1  0
  8  9  1  0
  9 10  2  0
 17 19  1  0
 19 20  1  0
 19 13  2  0
 10  1  1  0
  9  4  1  0
 29 24  1  0
 16 21  1  0
M  CHG 1   5  -1
M  CHG 1   8  -1
M  CHG 1  20  -1
M  END
> <UniqueID>
5

> <SMILES>
O=C(N=c1[nH]cccc1[O-])c1ccc2[n-]/c(=N/C(=O)C3CCCCC3)[n-]c2c1

> <Energy>
103.48326886894691

> <Genealogy>
O=C(N=c1[nH]cccc1[O-])c1ccc2[n-]c(=NC(=O)C3CCCCC3)[n-]c2c1 (protonated)
O=C(N=c1[nH]cccc1[O-])c1ccc2[n-]/c(=N/C(=O)C3CCCCC3)[n-]c2c1 (cis-trans isomerization)
O=C(N=c1[nH]cccc1[O-])c1ccc2[n-]/c(=N/C(=O)C3CCCCC3)[n-]c2c1 (3D coordinates assigned)
O=C(N=c1[nH]cccc1[O-])c1ccc2[n-]/c(=N/C(=O)C3CCCCC3)[n-]c2c1 (nonaromatic ring conformer: 103.48326886894691 kcal/mol)

> <smiles>
O=C(N=c1[nH]cccc1O)c1ccc2[nH]c(=NC(=O)C3CCCCC3)[nH]c2c1

> <score_type>
oracle

> <origin>
adg

> <m_score__min__energy>
-14.220000000000001

> <m_primary>
energy

> <minimizedAffinity>
-9.02464

> <minimizedRMSD>
1.80445

> <CNNscore>
0.3250495195

> <CNNaffinity>
6.5542988777

> <CNN_VS>
2.1304717064

> <CNNaffinity_variance>
0.0546239130

$$$$
75:0


 27 29  0  0  0  0  0  0  0  0999 V2000
   57.2820   30.8533   51.8337 C   0  0  0  0  0  0  0  0  0  0  0  0
   57.3450   32.0555   52.5473 C   0  0  0  0  0  0  0  0  0  0  0  0
   58.3006   33.0213   52.2208 C   0  0  0  0  0  0  0  0  0  0  0  0
   59.2069   32.7879   51.1831 C   0  0  0  0  0  0  0  0  0  0  0  0
   59.1683   31.5813   50.4652 C   0  0  0  0  0  0  0  0  0  0  0  0
   58.2154   30.6071   50.8110 C   0  0  0  0  0  0  0  0  0  0  0  0
   56.2946   29.8816   52.2119 N   0  0  0  0  0  0  0  0  0  0  0  0
   54.9861   30.1521   52.7334 C   0  0  0  0  0  0  0  0  0  0  0  0
   54.7605   30.0709   53.9697 O   0  0  0  0  0  0  0  0  0  0  0  0
   52.6031   30.7020   52.1873 C   0  0  0  0  0  0  0  0  0  0  0  0
   53.8918   30.5688   51.8385 C   0  0  0  0  0  0  0  0  0  0  0  0
   51.3258   31.6237   50.2101 N   0  0  0  0  0  0  0  0  0  0  0  0
   51.6471   31.6595   51.5997 C   0  0  0  0  0  0  0  0  0  0  0  0
   51.0427   32.4651   52.3540 O   0  0  0  0  0  0  0  0  0  0  0  0
   50.6853   32.2710   49.8361 H   0  0  0  0  0  0  0  0  0  0  0  0
   60.1618   31.3243   49.3599 C   0  0  0  0  0  0  0  0  0  0  0  0
   59.4654   30.9709   48.0678 C   0  0  0  0  0  0  0  0  0  0  0  0
   59.1802   29.6628   47.8396 N   0  0  0  0  0  0  0  0  0  0  0  0
   58.5727   29.2526   46.7285 N   0  0  0  0  0  0  0  0  0  0  0  0
   58.1992   30.1237   45.7612 C   0  0  0  0  0  0  0  0  0  0  0  0
   57.6338   29.6858   44.7231 O   0  0  0  0  0  0  0  0  0  0  0  0
   58.4460   31.4954   45.9233 C   0  0  0  0  0  0  0  0  0  0  0  0
   59.1296   31.9327   47.0852 C   0  0  0  0  0  0  0  0  0  0  0  0
   59.3901   33.4098   47.3220 C   0  0  0  0  0  0  0  0  0  0  0  0
   59.2906   34.2555   46.0500 C   0  0  0  0  0  0  0  0  0  0  0  0
   58.0174   33.9110   45.2838 C   0  0  0  0  0  0  0  0  0  0  0  0
   58.0671   32.4566   44.8150 C   0  0  0  0  0  0  0  0  0  0  0  0
 12 13  1  0
 13 14  2  0
 13 10  1  0
 10 11  2  0
 11  8  1  0
  8  9  2  0
  8  7  1  0
  7  1  1  0
  1  2  2  0
  2  3  1  0
  3  4  2  0
  4  5  1  0
  5 16  1  0
 16 17  1  0
 17 18  2  0
 18 19  1  0
 19 20  1  0
 20 21  2  0
 20 22  1  0
 22 23  2  0
 23 24  1  0
 24 25  1  0
 25 26  1  0
 26 27  1  0
  5  6  2  0
  6  1  1  0
 23 17  1  0
 27 22  1  0
 12 15  1  0
M  CHG 1   7  -1
M  CHG 1  12  -1
M  CHG 1  19  -1
M  END
> <UniqueID>
74

> <SMILES>
[NH-]C(=O)C=CC(=O)[N-]c1cccc(Cc2n[n-]c(=O)c3c2CCCC3)c1

> <Energy>
55.010429898549944

> <Genealogy>
[NH-]C(=O)C=CC(=O)[N-]c1cccc(Cc2n[n-]c(=O)c3c2CCCC3)c1 (protonated)
[NH-]C(=O)C=CC(=O)[N-]c1cccc(Cc2n[n-]c(=O)c3c2CCCC3)c1 (3D coordinates assigned)
[NH-]C(=O)C=CC(=O)[N-]c1cccc(Cc2n[n-]c(=O)c3c2CCCC3)c1 (nonaromatic ring conformer: 55.010429898549944 kcal/mol)

> <smiles>
NC(=O)C=CC(=O)Nc1cccc(Cc2n[nH]c(=O)c3c2CCCC3)c1

> <score_type>
oracle

> <origin>
adg

> <m_score__min__energy>
-15.210000000000001

> <m_primary>
energy

> <minimizedAffinity>
-8.79964

> <minimizedRMSD>
0.69302

> <CNNscore>
0.9246541858

> <CNNaffinity>
7.1254878044

> <CNN_VS>
6.5886120796

> <CNNaffinity_variance>
0.0715475902

$$$$
77:0


 26 28  0  0  0  0  0  0  0  0999 V2000
   59.7192   30.4057   46.6085 C   0  0  0  0  0  0  0  0  0  0  0  0
   58.9834   31.2640   45.7779 C   0  0  0  0  0  0  0  0  0  0  0  0
   57.8328   30.8028   45.1332 C   0  0  0  0  0  0  0  0  0  0  0  0
   57.4058   29.4837   45.3083 C   0  0  0  0  0  0  0  0  0  0  0  0
   56.2727   29.0414   44.6335 O   0  0  0  0  0  0  0  0  0  0  0  0
   58.1227   28.6164   46.1560 C   0  0  0  0  0  0  0  0  0  0  0  0
   59.2829   29.0854   46.7938 C   0  0  0  0  0  0  0  0  0  0  0  0
   60.9873   30.8756   47.2684 C   0  0  0  0  0  0  0  0  0  0  0  0
   59.5609   30.8715   50.0303 C   0  0  0  0  0  0  0  0  0  0  0  0
   60.0937   32.0725   49.3161 C   0  0  0  0  0  0  0  0  0  0  0  0
   59.9323   33.3294   49.7807 N   0  0  0  0  0  0  0  0  0  0  0  0
   60.4876   34.1090   48.8308 C   0  0  0  0  0  0  0  0  0  0  0  0
   60.9630   33.3213   47.8057 C   0  0  0  0  0  0  0  0  0  0  0  0
   60.7159   32.0379   48.1154 N   0  0  0  0  0  0  0  0  0  0  0  0
   57.7247   27.1720   46.3123 C   0  0  0  0  0  0  0  0  0  0  0  0
   57.6411   26.5431   44.9896 N   0  0  0  0  0  0  0  0  0  0  0  0
   58.3164   26.9889   44.3687 H   0  0  0  0  0  0  0  0  0  0  0  0
   57.9296   25.1021   45.0513 C   0  0  0  0  0  0  0  0  0  0  0  0
   56.9776   24.2970   44.1583 C   0  0  0  0  0  0  0  0  0  0  0  0
   56.0100   23.5399   44.9588 N   0  0  0  0  0  0  0  0  0  0  0  0
   55.0225   24.0235   45.7298 C   0  0  0  0  0  0  0  0  0  0  0  0
   54.7533   25.3733   45.9172 O   0  0  0  0  0  0  0  0  0  0  0  0
   54.3334   22.9773   46.2965 C   0  0  0  0  0  0  0  0  0  0  0  0
   54.8865   21.8145   45.8905 N   0  0  0  0  0  0  0  0  0  0  0  0
   55.8970   22.2015   45.0816 C   0  0  0  0  0  0  0  0  0  0  0  0
   56.6630   21.3817   44.5082 O   0  0  0  0  0  0  0  0  0  0  0  0
  9 10  1  0
 10 11  2  0
 11 12  1  0
 12 13  2  0
 13 14  1  0
 14  8  1  0
  8  1  1  0
  1  2  2  0
  2  3  1  0
  3  4  2  0
  4  5  1  0
  4  6  1  0
  6 15  1  0
 15 16  1  0
 16 18  1  0
 18 19  1  0
 19 20  1  0
 20 21  1  0
 21 22  1  0
 21 23  2  0
 23 24  1  0
 24 25  1  0
 25 26  2  0
  6  7  2  0
 14 10  1  0
  7  1  1  0
 25 20  1  0
 16 17  1  0
M  CHG 1   5  -1
M  CHG 1  22  -1
M  CHG 1  24  -1
M  END
> <UniqueID>
76

> <SMILES>
Cc1nccn1Cc1ccc([O-])c(CNCCn2c([O-])c[n-]c2=O)c1

> <Energy>
98.60613709388704

> <Genealogy>
Cc1nccn1Cc1ccc([O-])c(CNCCn2c([O-])c[n-]c2=O)c1 (protonated)
Cc1nccn1Cc1ccc([O-])c(CNCCn2c([O-])c[n-]c2=O)c1 (3D coordinates assigned)
Cc1nccn1Cc1ccc([O-])c(CNCCn2c([O-])c[n-]c2=O)c1 (optimized conformer: 98.60613709388704 kcal/mol)

> <smiles>
Cc1nccn1Cc1ccc(O)c(CNCCn2c(O)c[nH]c2=O)c1

> <score_type>
oracle

> <origin>
adg

> <m_score__min__energy>
-15.380000000000001

> <m_primary>
energy

> <minimizedAffinity>
-6.73947

> <minimizedRMSD>
1.72218

> <CNNscore>
0.0890995935

> <CNNaffinity>
5.6415920258

> <CNN_VS>
0.5026635528

> <CNNaffinity_variance>
0.0061915950

$$$$
4:0


 29 31  0  0  0  0  0  0  0  0999 V2000
   58.8885   30.2066   49.8497 N   0  0  0  0  0  0  0  0  0  0  0  0
   59.0065   31.6362   49.7765 C   0  0  0  0  0  0  0  0  0  0  0  0
   58.9485   32.2298   48.6653 O   0  0  0  0  0  0  0  0  0  0  0  0
   58.5188   29.8227   50.6774 H   0  0  0  0  0  0  0  0  0  0  0  0
   58.9570   28.5012   46.5191 C   0  0  0  0  0  0  0  0  0  0  0  0
   59.8600   27.4564   46.7567 C   0  0  0  0  0  0  0  0  0  0  0  0
   60.4590   27.3222   48.0105 C   0  0  0  0  0  0  0  0  0  0  0  0
   60.1611   28.2266   49.0346 C   0  0  0  0  0  0  0  0  0  0  0  0
   59.2696   29.2918   48.8046 C   0  0  0  0  0  0  0  0  0  0  0  0
   58.6617   29.4093   47.5440 C   0  0  0  0  0  0  0  0  0  0  0  0
   56.4517   28.5277   45.1651 N   0  0  0  0  0  0  0  0  0  0  0  0
   58.1606   28.6550   44.9563 S   0  0  0  0  0  0  0  0  0  0  0  0
   58.6295   27.5704   44.0277 O   0  0  0  0  0  0  0  0  0  0  0  0
   58.4972   29.9886   44.3492 O   0  0  0  0  0  0  0  0  0  0  0  0
   55.9909   28.6169   44.2595 H   0  0  0  0  0  0  0  0  0  0  0  0
   59.1962   32.4359   51.0289 C   0  0  0  0  0  0  0  0  0  0  0  0
   59.8845   31.3969   52.3654 S   0  0  0  0  0  0  0  0  0  0  0  0
   58.3621   30.4981   52.6550 C   0  0  0  0  0  0  0  0  0  0  0  0
   58.3027   29.2273   53.0895 N   0  0  0  0  0  0  0  0  0  0  0  0
   57.0171   28.9450   53.2246 N   0  0  0  0  0  0  0  0  0  0  0  0
   56.3429   30.0552   52.8616 C   0  0  0  0  0  0  0  0  0  0  0  0
   57.1665   31.0099   52.5018 O   0  0  0  0  0  0  0  0  0  0  0  0
   54.8746   30.1921   52.8938 C   0  0  0  0  0  0  0  0  0  0  0  0
   54.1881   30.6708   51.7655 C   0  0  0  0  0  0  0  0  0  0  0  0
   52.8002   30.8417   51.8020 C   0  0  0  0  0  0  0  0  0  0  0  0
   52.0868   30.5253   52.9606 C   0  0  0  0  0  0  0  0  0  0  0  0
   50.7081   30.6974   52.9965 O   0  0  0  0  0  0  0  0  0  0  0  0
   52.7595   30.0371   54.0839 C   0  0  0  0  0  0  0  0  0  0  0  0
   54.1484   29.8731   54.0543 C   0  0  0  0  0  0  0  0  0  0  0  0
 11 12  1  0
 12 13  2  0
 12 14  2  0
 12  5  1  0
  5  6  2  0
  6  7  1  0
  7  8  2  0
  8  9  1  0
  9  1  1  0
  1  2  1  0
  2  3  2  0
  2 16  1  0
 16 17  1  0
 17 18  1  0
 18 19  2  0
 19 20  1  0
 20 21  2  0
 21 23  1  0
 23 24  2  0
 24 25  1  0
 25 26  2  0
 26 27  1  0
 26 28  1  0
 28 29  2  0
 21 22  1  0
  9 10  2  0
 10  5  1  0
 22 18  1  0
 29 23  1  0
 11 15  1  0
  1  4  1  0
M  CHG 1  11  -1
M  CHG 1  27  -1
M  END
> <UniqueID>
5

> <SMILES>
[NH-]S(=O)(=O)c1cccc(NC(=O)CSc2nnc(-c3ccc([O-])cc3)o2)c1

> <Energy>
69.31204453115343

> <Genealogy>
[NH-]S(=O)(=O)c1cccc(NC(=O)CSc2nnc(-c3ccc([O-])cc3)o2)c1 (protonated)
[NH-]S(=O)(=O)c1cccc(NC(=O)CSc2nnc(-c3ccc([O-])cc3)o2)c1 (3D coordinates assigned)
[NH-]S(=O)(=O)c1cccc(NC(=O)CSc2nnc(-c3ccc([O-])cc3)o2)c1 (optimized conformer: 69.31204453115343 kcal/mol)

> <smiles>
NS(=O)(=O)c1cccc(NC(=O)CSc2nnc(-c3ccc(O)cc3)o2)c1

> <score_type>
oracle

> <origin>
adg

> <m_score__min__energy>
-15.279999999999999

> <m_primary>
energy

> <minimizedAffinity>
-6.80330

> <minimizedRMSD>
1.21671

> <CNNscore>
0.2368936688

> <CNNaffinity>
5.4012789726

> <CNN_VS>
1.2795287371

> <CNNaffinity_variance>
0.1785022020

$$$$
18:0


 29 31  0  0  0  0  0  0  0  0999 V2000
   58.2863   29.3787   45.0185 N   0  0  0  0  0  0  0  0  0  0  0  0
   56.9316   29.5608   44.8991 C   0  0  0  0  0  0  0  0  0  0  0  0
   56.4597   30.6413   44.4509 O   0  0  0  0  0  0  0  0  0  0  0  0
   56.0712   28.5752   45.2588 N   0  0  0  0  0  0  0  0  0  0  0  0
   56.5119   27.3993   45.7641 C   0  0  0  0  0  0  0  0  0  0  0  0
   55.5878   26.4257   46.1306 O   0  0  0  0  0  0  0  0  0  0  0  0
   57.8814   27.1808   45.9294 C   0  0  0  0  0  0  0  0  0  0  0  0
   58.7678   28.1863   45.5022 C   0  0  0  0  0  0  0  0  0  0  0  0
   60.0116   27.9771   45.5522 O   0  0  0  0  0  0  0  0  0  0  0  0
   58.3589   25.9074   46.5169 C   0  0  0  0  0  0  0  0  0  0  0  0
   58.8634   24.8827   45.8094 C   0  0  0  0  0  0  0  0  0  0  0  0
   58.1042   23.6808   45.3864 C   0  0  0  0  0  0  0  0  0  0  0  0
   56.7135   23.7361   45.1711 C   0  0  0  0  0  0  0  0  0  0  0  0
   56.0168   22.6010   44.7496 C   0  0  0  0  0  0  0  0  0  0  0  0
   56.6989   21.4042   44.5148 C   0  0  0  0  0  0  0  0  0  0  0  0
   55.9923   20.2818   44.0871 O   0  0  0  0  0  0  0  0  0  0  0  0
   58.0853   21.3447   44.7084 C   0  0  0  0  0  0  0  0  0  0  0  0
   58.7875   22.4759   45.1364 C   0  0  0  0  0  0  0  0  0  0  0  0
   60.1631   22.3911   45.3214 O   0  0  0  0  0  0  0  0  0  0  0  0
   55.0652   20.3320   43.9607 H   0  0  0  0  0  0  0  0  0  0  0  0
   59.2278   30.4670   44.6825 C   0  0  0  0  0  0  0  0  0  0  0  0
   59.1540   31.6834   46.9274 C   0  0  0  0  0  0  0  0  0  0  0  0
   58.8499   32.8400   47.6721 C   0  0  0  0  0  0  0  0  0  0  0  0
   58.3361   33.9742   47.0418 C   0  0  0  0  0  0  0  0  0  0  0  0
   58.1204   33.9721   45.6648 C   0  0  0  0  0  0  0  0  0  0  0  0
   58.4230   32.8376   44.9111 C   0  0  0  0  0  0  0  0  0  0  0  0
   58.9424   31.6873   45.5292 C   0  0  0  0  0  0  0  0  0  0  0  0
   60.8792   30.4727   48.2802 C   0  0  0  0  0  0  0  0  0  0  0  0
   59.6631   30.5269   47.5415 O   0  0  0  0  0  0  0  0  0  0  0  0
 28 29  1  0
 29 22  1  0
 22 23  2  0
 23 24  1  0
 24 25  2  0
 25 26  1  0
 26 27  2  0
 27 21  1  0
 21  1  1  0
  1  2  1  0
  2  3  2  0
  2  4  1  0
  4  5  1  0
  5  6  1  0
  5  7  2  0
  7 10  1  0
 10 11  2  0
 11 12  1  0
 12 13  2  0
 13 14  1  0
 14 15  2  0
 15 16  1  0
 15 17  1  0
 17 18  2  0
 18 19  1  0
  7  8  1  0
  8  9  2  0
 27 22  1  0
  8  1  1  0
 18 12  1  0
 16 20  1  0
M  CHG 1   4  -1
M  CHG 1   6  -1
M  CHG 1  19  -1
M  END
> <UniqueID>
19

> <SMILES>
COc1ccccc1Cn1c(=O)[n-]c([O-])c(C=Cc2ccc(O)cc2[O-])c1=O

> <Energy>
57.524316872049894

> <Genealogy>
COc1ccccc1Cn1c(=O)[n-]c([O-])c(C=Cc2ccc(O)cc2[O-])c1=O (protonated)
COc1ccccc1Cn1c(=O)[n-]c([O-])c(C=Cc2ccc(O)cc2[O-])c1=O (3D coordinates assigned)
COc1ccccc1Cn1c(=O)[n-]c([O-])c(C=Cc2ccc(O)cc2[O-])c1=O (optimized conformer: 57.524316872049894 kcal/mol)

> <smiles>
COc1ccccc1Cn1c(=O)[nH]c(O)c(C=Cc2ccc(O)cc2O)c1=O

> <score_type>
oracle

> <origin>
adg

> <m_score__min__energy>
-16.510000000000002

> <m_primary>
energy

> <minimizedAffinity>
-6.54220

> <minimizedRMSD>
0.59465

> <CNNscore>
0.1392839104

> <CNNaffinity>
5.9117980003

> <CNN_VS>
0.8234183192

> <CNNaffinity_variance>
0.0439408571

$$$$
30:0


 26 28  0  0  0  0  0  0  0  0999 V2000
   57.6811   26.7408   47.1579 N   0  0  0  0  0  0  0  0  0  0  0  0
   57.6017   23.3950   45.4391 C   0  0  0  0  0  0  0  0  0  0  0  0
   56.2794   23.3802   44.9797 C   0  0  0  0  0  0  0  0  0  0  0  0
   55.4335   24.4591   45.2457 C   0  0  0  0  0  0  0  0  0  0  0  0
   55.9028   25.5620   45.9666 C   0  0  0  0  0  0  0  0  0  0  0  0
   55.0523   26.6340   46.2108 O   0  0  0  0  0  0  0  0  0  0  0  0
   57.2249   25.5888   46.4349 C   0  0  0  0  0  0  0  0  0  0  0  0
   58.0681   24.4889   46.1801 C   0  0  0  0  0  0  0  0  0  0  0  0
   58.3097   20.7383   46.1888 N   0  0  0  0  0  0  0  0  0  0  0  0
   58.6719   22.0365   45.1076 S   0  0  0  0  0  0  0  0  0  0  0  0
   60.1019   22.4590   45.2951 O   0  0  0  0  0  0  0  0  0  0  0  0
   58.4875   21.5762   43.6879 O   0  0  0  0  0  0  0  0  0  0  0  0
   58.9302   19.9521   45.9959 H   0  0  0  0  0  0  0  0  0  0  0  0
   59.1612   27.5920   46.8516 S   0  0  0  0  0  0  0  0  0  0  0  0
   59.9276   27.7267   48.1358 O   0  0  0  0  0  0  0  0  0  0  0  0
   59.9829   26.8062   45.8676 O   0  0  0  0  0  0  0  0  0  0  0  0
   58.8137   29.2017   46.2239 C   0  0  0  0  0  0  0  0  0  0  0  0
   57.8175   29.3828   45.2560 C   0  0  0  0  0  0  0  0  0  0  0  0
   57.5147   30.6633   44.7847 C   0  0  0  0  0  0  0  0  0  0  0  0
   58.2079   31.7787   45.2799 C   0  0  0  0  0  0  0  0  0  0  0  0
   57.9062   33.0691   44.8200 C   0  0  0  0  0  0  0  0  0  0  0  0
   58.6068   34.1715   45.3180 C   0  0  0  0  0  0  0  0  0  0  0  0
   59.6120   33.9943   46.2745 C   0  0  0  0  0  0  0  0  0  0  0  0
   59.9200   32.7132   46.7423 C   0  0  0  0  0  0  0  0  0  0  0  0
   59.2216   31.5984   46.2506 C   0  0  0  0  0  0  0  0  0  0  0  0
   59.5202   30.3084   46.7143 C   0  0  0  0  0  0  0  0  0  0  0  0
  9 10  1  0
 10 11  2  0
 10 12  2  0
 10  2  1  0
  2  3  2  0
  3  4  1  0
  4  5  2  0
  5  6  1  0
  5  7  1  0
  7  1  1  0
  1 14  1  0
 14 15  2  0
 14 16  2  0
 14 17  1  0
 17 18  2  0
 18 19  1  0
 19 20  2  0
 20 21  1  0
 21 22  2  0
 22 23  1  0
 23 24  2  0
 24 25  1  0
 25 26  2  0
  7  8  2  0
  8  2  1  0
 26 17  1  0
 25 20  1  0
  9 13  1  0
M  CHG 1   1  -1
M  CHG 1   6  -1
M  CHG 1   9  -1
M  END
> <UniqueID>
31

> <SMILES>
[NH-]S(=O)(=O)c1ccc([O-])c([N-]S(=O)(=O)c2ccc3ccccc3c2)c1

> <Energy>
44.126849088820684

> <Genealogy>
[NH-]S(=O)(=O)c1ccc([O-])c([N-]S(=O)(=O)c2ccc3ccccc3c2)c1 (protonated)
[NH-]S(=O)(=O)c1ccc([O-])c([N-]S(=O)(=O)c2ccc3ccccc3c2)c1 (3D coordinates assigned)
[NH-]S(=O)(=O)c1ccc([O-])c([N-]S(=O)(=O)c2ccc3ccccc3c2)c1 (optimized conformer: 44.126849088820684 kcal/mol)

> <smiles>
NS(=O)(=O)c1ccc(O)c(NS(=O)(=O)c2ccc3ccccc3c2)c1

> <score_type>
oracle

> <origin>
adg

> <m_score__min__energy>
-15.92

> <m_primary>
energy

> <minimizedAffinity>
-7.44236

> <minimizedRMSD>
0.51149

> <CNNscore>
0.6270951629

> <CNNaffinity>
6.1486506462

> <CNN_VS>
3.8557891846

> <CNNaffinity_variance>
0.0062490073

$$$$
31:0


 29 31  0  0  0  0  0  0  0  0999 V2000
   58.1770   28.1725   45.9495 N   0  0  0  0  0  0  0  0  0  0  0  0
   57.4716   29.1516   45.3593 C   0  0  0  0  0  0  0  0  0  0  0  0
   56.0830   29.2278   45.3437 O   0  0  0  0  0  0  0  0  0  0  0  0
   58.3464   30.0575   44.7976 C   0  0  0  0  0  0  0  0  0  0  0  0
   59.6152   29.6730   45.0545 N   0  0  0  0  0  0  0  0  0  0  0  0
   59.4657   28.5270   45.7558 C   0  0  0  0  0  0  0  0  0  0  0  0
   60.4423   27.8607   46.1955 O   0  0  0  0  0  0  0  0  0  0  0  0
   57.6618   27.0535   46.7361 C   0  0  0  0  0  0  0  0  0  0  0  0
   55.6233   25.9835   46.1070 O   0  0  0  0  0  0  0  0  0  0  0  0
   56.8485   26.1496   45.8648 C   0  0  0  0  0  0  0  0  0  0  0  0
   57.4905   25.4427   44.7977 N   0  0  0  0  0  0  0  0  0  0  0  0
   57.3163   24.0604   44.4549 C   0  0  0  0  0  0  0  0  0  0  0  0
   58.1210   23.1067   45.0934 C   0  0  0  0  0  0  0  0  0  0  0  0
   58.0136   21.7521   44.7626 C   0  0  0  0  0  0  0  0  0  0  0  0
   57.1109   21.3425   43.7793 C   0  0  0  0  0  0  0  0  0  0  0  0
   56.3161   22.2890   43.1258 C   0  0  0  0  0  0  0  0  0  0  0  0
   56.4202   23.6439   43.4536 C   0  0  0  0  0  0  0  0  0  0  0  0
   57.9818   31.3207   44.0814 C   0  0  0  0  0  0  0  0  0  0  0  0
   58.3157   32.5075   44.9299 C   0  0  0  0  0  0  0  0  0  0  0  0
   57.9666   33.6580   44.5537 O   0  0  0  0  0  0  0  0  0  0  0  0
   59.0495   32.3345   46.1506 N   0  0  0  0  0  0  0  0  0  0  0  0
   59.2849   31.4224   46.4370 H   0  0  0  0  0  0  0  0  0  0  0  0
   59.4599   33.4608   46.9835 C   0  0  0  0  0  0  0  0  0  0  0  0
   60.8509   33.2409   47.5191 C   0  0  0  0  0  0  0  0  0  0  0  0
   61.0329   32.6532   48.7826 C   0  0  0  0  0  0  0  0  0  0  0  0
   62.3226   32.4288   49.2760 C   0  0  0  0  0  0  0  0  0  0  0  0
   63.4372   32.7919   48.5149 C   0  0  0  0  0  0  0  0  0  0  0  0
   63.2632   33.3754   47.2568 C   0  0  0  0  0  0  0  0  0  0  0  0
   61.9734   33.5963   46.7568 C   0  0  0  0  0  0  0  0  0  0  0  0
  9 10  2  0
 10  8  1  0
  8  1  1  0
  1  2  1  0
  2  3  1  0
  2  4  2  0
  4 18  1  0
 18 19  1  0
 19 20  2  0
 19 21  1  0
 21 23  1  0
 23 24  1  0
 24 25  2  0
 25 26  1  0
 26 27  2  0
 27 28  1  0
 28 29  2  0
  4  5  1  0
  5  6  1  0
  6  7  2  0
 10 11  1  0
 11 12  1  0
 12 13  2  0
 13 14  1  0
 14 15  2  0
 15 16  1  0
 16 17  2  0
  6  1  1  0
 17 12  1  0
 29 24  1  0
 21 22  1  0
M  CHG 1   3  -1
M  CHG 1   5  -1
M  CHG 1  11  -1
M  END
> <UniqueID>
32

> <SMILES>
O=C(Cn1c([O-])c(CC(=O)NCc2ccccc2)[n-]c1=O)[N-]c1ccccc1

> <Energy>
72.25993379009086

> <Genealogy>
O=C(Cn1c([O-])c(CC(=O)NCc2ccccc2)[n-]c1=O)[N-]c1ccccc1 (protonated)
O=C(Cn1c([O-])c(CC(=O)NCc2ccccc2)[n-]c1=O)[N-]c1ccccc1 (3D coordinates assigned)
O=C(Cn1c([O-])c(CC(=O)NCc2ccccc2)[n-]c1=O)[N-]c1ccccc1 (optimized conformer: 72.25993379009086 kcal/mol)

> <smiles>
O=C(Cc1[nH]c(=O)n(CC(=O)Nc2ccccc2)c1O)NCc1ccccc1

> <score_type>
oracle

> <origin>
adg

> <m_score__min__energy>
-14.66

> <m_primary>
energy

> <minimizedAffinity>
-7.88895

> <minimizedRMSD>
2.00959

> <CNNscore>
0.2968295813

> <CNNaffinity>
6.0324378014

> <CNN_VS>
1.7906060219

> <CNNaffinity_variance>
0.0481050499

$$$$
81:0


 24 26  0  0  0  0  0  0  0  0999 V2000
   64.0571   32.7201   50.5623 C   0  0  0  0  0  0  0  0  0  0  0  0
   63.3009   32.3477   49.3263 C   0  0  0  0  0  0  0  0  0  0  0  0
   63.8454   32.2768   48.0979 N   0  0  0  0  0  0  0  0  0  0  0  0
   62.9075   31.9662   47.2552 O   0  0  0  0  0  0  0  0  0  0  0  0
   61.7553   31.8168   47.8707 C   0  0  0  0  0  0  0  0  0  0  0  0
   61.9468   32.0678   49.2288 C   0  0  0  0  0  0  0  0  0  0  0  0
   64.7918   32.4335   47.8762 H   0  0  0  0  0  0  0  0  0  0  0  0
   60.5194   31.4203   47.1688 C   0  0  0  0  0  0  0  0  0  0  0  0
   60.3158   30.1042   46.7263 C   0  0  0  0  0  0  0  0  0  0  0  0
   59.1324   29.7637   46.0494 C   0  0  0  0  0  0  0  0  0  0  0  0
   58.1784   30.7757   45.8061 C   0  0  0  0  0  0  0  0  0  0  0  0
   56.9874   30.4995   45.1421 O   0  0  0  0  0  0  0  0  0  0  0  0
   58.4353   32.0835   46.2381 C   0  0  0  0  0  0  0  0  0  0  0  0
   57.6013   32.9996   46.0176 O   0  0  0  0  0  0  0  0  0  0  0  0
   59.5885   32.3704   46.8957 N   0  0  0  0  0  0  0  0  0  0  0  0
   58.9242   28.3625   45.6078 C   0  0  0  0  0  0  0  0  0  0  0  0
   59.3559   27.9611   44.4940 O   0  0  0  0  0  0  0  0  0  0  0  0
   58.2422   27.4649   46.4208 O   0  0  0  0  0  0  0  0  0  0  0  0
   60.9495   32.1518   50.3147 C   0  0  0  0  0  0  0  0  0  0  0  0
   60.3163   33.3661   50.6255 C   0  0  0  0  0  0  0  0  0  0  0  0
   59.3860   33.4074   51.6662 C   0  0  0  0  0  0  0  0  0  0  0  0
   59.1076   32.2515   52.3952 C   0  0  0  0  0  0  0  0  0  0  0  0
   59.7704   31.0645   52.0736 C   0  0  0  0  0  0  0  0  0  0  0  0
   60.6697   31.0417   51.0538 N   0  0  0  0  0  0  0  0  0  0  0  0
  1  2  1  0
  2  3  2  0
  3  4  1  0
  4  5  1  0
  5  8  1  0
  8  9  2  0
  9 10  1  0
 10 16  1  0
 16 17  2  0
 16 18  1  0
 10 11  2  0
 11 12  1  0
 11 13  1  0
 13 14  2  0
 13 15  1  0
  5  6  2  0
  6 19  1  0
 19 20  2  0
 20 21  1  0
 21 22  2  0
 22 23  1  0
 23 24  2  0
  6  2  1  0
 24 19  1  0
 15  8  1  0
  3  7  1  0
M  CHG 1   3   1
M  CHG 1  12  -1
M  CHG 1  15  -1
M  CHG 1  18  -1
M  END
> <UniqueID>
80

> <SMILES>
Cc1[nH+]oc(-c2cc(C(=O)[O-])c([O-])c(=O)[n-]2)c1-c1ccccn1

> <Energy>
76.1289724732042

> <Genealogy>
Cc1[nH+]oc(-c2cc(C(=O)[O-])c([O-])c(=O)[n-]2)c1-c1ccccn1 (protonated)
Cc1[nH+]oc(-c2cc(C(=O)[O-])c([O-])c(=O)[n-]2)c1-c1ccccn1 (3D coordinates assigned)
Cc1[nH+]oc(-c2cc(C(=O)[O-])c([O-])c(=O)[n-]2)c1-c1ccccn1 (optimized conformer: 76.1289724732042 kcal/mol)

> <smiles>
Cc1noc(-c2cc(C(=O)O)c(O)c(=O)[nH]2)c1-c1ccccn1

> <score_type>
oracle

> <origin>
adg

> <m_score__min__energy>
-15.210000000000001

> <m_primary>
energy

> <minimizedAffinity>
-7.30991

> <minimizedRMSD>
2.48135

> <CNNscore>
0.5982499123

> <CNNaffinity>
6.1513667107

> <CNN_VS>
3.6800546646

> <CNNaffinity_variance>
0.3040718138

$$$$
92:0


 26 28  0  0  0  0  0  0  0  0999 V2000
   59.3917   26.6027   47.1835 C   0  0  0  0  0  0  0  0  0  0  0  0
   58.8135   27.3772   46.2509 C   0  0  0  0  0  0  0  0  0  0  0  0
   58.1177   26.9560   45.1048 C   0  0  0  0  0  0  0  0  0  0  0  0
   57.7044   25.7316   44.7186 C   0  0  0  0  0  0  0  0  0  0  0  0
   57.8844   28.0959   44.3518 C   0  0  0  0  0  0  0  0  0  0  0  0
   58.3780   29.1615   45.0740 C   0  0  0  0  0  0  0  0  0  0  0  0
   58.3183   30.5905   44.6282 C   0  0  0  0  0  0  0  0  0  0  0  0
   58.9435   28.7291   46.2229 N   0  0  0  0  0  0  0  0  0  0  0  0
   57.2126   24.6677   45.6143 C   0  0  0  0  0  0  0  0  0  0  0  0
   56.0059   24.8304   46.3082 C   0  0  0  0  0  0  0  0  0  0  0  0
   55.2314   25.9709   46.1256 O   0  0  0  0  0  0  0  0  0  0  0  0
   55.5797   23.8655   47.1623 N   0  0  0  0  0  0  0  0  0  0  0  0
   56.3115   22.7408   47.3724 C   0  0  0  0  0  0  0  0  0  0  0  0
   55.7711   21.5963   48.4025 S   0  0  0  0  0  0  0  0  0  0  0  0
   57.4970   22.5728   46.7338 N   0  0  0  0  0  0  0  0  0  0  0  0
   57.9682   23.5092   45.8711 C   0  0  0  0  0  0  0  0  0  0  0  0
   59.0840   23.3305   45.3120 O   0  0  0  0  0  0  0  0  0  0  0  0
   59.5757   29.5628   47.2114 C   0  0  0  0  0  0  0  0  0  0  0  0
   59.0211   29.6876   48.4916 C   0  0  0  0  0  0  0  0  0  0  0  0
   59.6397   30.4923   49.4531 C   0  0  0  0  0  0  0  0  0  0  0  0
   60.8264   31.1826   49.1484 C   0  0  0  0  0  0  0  0  0  0  0  0
   61.3798   31.0515   47.8631 C   0  0  0  0  0  0  0  0  0  0  0  0
   60.7591   30.2467   46.9025 C   0  0  0  0  0  0  0  0  0  0  0  0
   61.4790   32.0316   50.1691 C   0  0  0  0  0  0  0  0  0  0  0  0
   61.8166   31.5504   51.2828 O   0  0  0  0  0  0  0  0  0  0  0  0
   61.7287   33.3752   49.9117 O   0  0  0  0  0  0  0  0  0  0  0  0
  1  2  2  0
  2  3  1  0
  3  4  2  0
  4  9  1  0
  9 10  2  0
 10 11  1  0
 10 12  1  0
 12 13  1  0
 13 14  2  0
 13 15  1  0
 15 16  1  0
 16 17  2  0
  3  5  1  0
  5  6  2  0
  6  7  1  0
  6  8  1  0
  8 18  1  0
 18 19  2  0
 19 20  1  0
 20 21  2  0
 21 24  1  0
 24 25  2  0
 24 26  1  0
 21 22  1  0
 22 23  2  0
  8  2  1  0
 23 18  1  0
 16  9  1  0
M  CHG 1  11  -1
M  CHG 1  12  -1
M  CHG 1  15  -1
M  CHG 1  26  -1
M  END
> <UniqueID>
89

> <SMILES>
C=c1c(=Cc2c([O-])[n-]c(=S)[n-]c2=O)cc(C)n1-c1ccc(C(=O)[O-])cc1

> <Energy>
89.11460628156239

> <Genealogy>
C=c1c(=Cc2c([O-])[n-]c(=S)[n-]c2=O)cc(C)n1-c1ccc(C(=O)[O-])cc1 (protonated)
C=c1c(=Cc2c([O-])[n-]c(=S)[n-]c2=O)cc(C)n1-c1ccc(C(=O)[O-])cc1 (3D coordinates assigned)
C=c1c(=Cc2c([O-])[n-]c(=S)[n-]c2=O)cc(C)n1-c1ccc(C(=O)[O-])cc1 (optimized conformer: 89.11460628156239 kcal/mol)

> <smiles>
C=c1c(=Cc2c(O)[nH]c(=S)[nH]c2=O)cc(C)n1-c1ccc(C(=O)O)cc1

> <score_type>
oracle

> <origin>
adg

> <m_score__min__energy>
-15.279999999999999

> <m_primary>
energy

> <minimizedAffinity>
-8.12125

> <minimizedRMSD>
1.83902

> <CNNscore>
0.1595661640

> <CNNaffinity>
6.0118770599

> <CNN_VS>
0.9592921734

> <CNNaffinity_variance>
0.0501973927

$$$$
9:0


 26 28  0  0  0  0  0  0  0  0999 V2000
   57.7505   30.9944   44.7840 C   0  0  0  0  0  0  0  0  0  0  0  0
   57.6873   32.1585   43.9972 C   0  0  0  0  0  0  0  0  0  0  0  0
   58.2797   33.3431   44.4391 C   0  0  0  0  0  0  0  0  0  0  0  0
   58.9331   33.3844   45.6709 C   0  0  0  0  0  0  0  0  0  0  0  0
   59.0046   32.2404   46.4793 C   0  0  0  0  0  0  0  0  0  0  0  0
   58.4214   31.0431   46.0198 C   0  0  0  0  0  0  0  0  0  0  0  0
   56.7757   29.6155   43.1122 O   0  0  0  0  0  0  0  0  0  0  0  0
   57.1106   29.7386   44.3233 C   0  0  0  0  0  0  0  0  0  0  0  0
   56.8713   28.6740   45.2603 N   0  0  0  0  0  0  0  0  0  0  0  0
   57.7045   27.7415   45.6244 C   0  0  0  0  0  0  0  0  0  0  0  0
   59.0542   27.9353   45.5661 N   0  0  0  0  0  0  0  0  0  0  0  0
   59.9387   26.9710   45.9361 C   0  0  0  0  0  0  0  0  0  0  0  0
   59.4752   25.7354   46.3912 C   0  0  0  0  0  0  0  0  0  0  0  0
   58.1010   25.5081   46.4620 C   0  0  0  0  0  0  0  0  0  0  0  0
   57.2067   26.5101   46.0794 C   0  0  0  0  0  0  0  0  0  0  0  0
   55.8376   26.2810   46.1509 O   0  0  0  0  0  0  0  0  0  0  0  0
   59.6721   32.3222   47.7509 N   0  0  0  0  0  0  0  0  0  0  0  0
   59.6989   31.5138   48.3121 H   0  0  0  0  0  0  0  0  0  0  0  0
   60.4332   33.7605   48.3554 S   0  0  0  0  0  0  0  0  0  0  0  0
   60.5754   34.7541   47.2359 O   0  0  0  0  0  0  0  0  0  0  0  0
   59.5816   34.3584   49.4390 O   0  0  0  0  0  0  0  0  0  0  0  0
   62.0078   33.3712   49.0233 C   0  0  0  0  0  0  0  0  0  0  0  0
   62.5900   33.9781   50.1251 C   0  0  0  0  0  0  0  0  0  0  0  0
   63.8311   33.4248   50.4601 C   0  0  0  0  0  0  0  0  0  0  0  0
   64.2208   32.3840   49.6243 C   0  0  0  0  0  0  0  0  0  0  0  0
   63.0204   32.1506   48.4680 S   0  0  0  0  0  0  0  0  0  0  0  0
  7  8  2  0
  8  9  1  0
  9 10  2  0
 10 11  1  0
 11 12  1  0
 12 13  2  0
 13 14  1  0
 14 15  2  0
 15 16  1  0
  8  1  1  0
  1  2  2  0
  2  3  1  0
  3  4  2  0
  4  5  1  0
  5 17  1  0
 17 19  1  0
 19 20  2  0
 19 21  2  0
 19 22  1  0
 22 23  2  0
 23 24  1  0
 24 25  2  0
 25 26  1  0
  5  6  2  0
 15 10  1  0
  6  1  1  0
 26 22  1  0
 17 18  1  0
M  CHG 1  11  -1
M  CHG 1  16  -1
M  END
> <UniqueID>
9

> <SMILES>
O=C(N=c1[n-]cccc1[O-])c1cccc(NS(=O)(=O)c2cccs2)c1

> <Energy>
71.04319165093554

> <Genealogy>
O=C(N=c1[n-]cccc1[O-])c1cccc(NS(=O)(=O)c2cccs2)c1 (protonated)
O=C(N=c1[n-]cccc1[O-])c1cccc(NS(=O)(=O)c2cccs2)c1 (3D coordinates assigned)
O=C(N=c1[n-]cccc1[O-])c1cccc(NS(=O)(=O)c2cccs2)c1 (optimized conformer: 71.04319165093554 kcal/mol)

> <smiles>
O=C(N=c1[nH]cccc1O)c1cccc(NS(=O)(=O)c2cccs2)c1

> <score_type>
oracle

> <origin>
adg

> <m_score__min__energy>
-14.279999999999999

> <m_primary>
energy

> <minimizedAffinity>
-7.54955

> <minimizedRMSD>
1.27584

> <CNNscore>
0.5403723717

> <CNNaffinity>
6.3973755836

> <CNN_VS>
3.4569649696

> <CNNaffinity_variance>
0.0999650136

$$$$
17:0


 38 42  0  0  0  0  0  0  0  0999 V2000
   58.5239   30.9003   45.7815 C   0  0  0  0  0  0  0  0  0  0  0  0
   57.8934   31.8053   44.9189 C   0  0  0  0  0  0  0  0  0  0  0  0
   57.7071   33.1334   45.3127 C   0  0  0  0  0  0  0  0  0  0  0  0
   58.1359   33.5621   46.5718 C   0  0  0  0  0  0  0  0  0  0  0  0
   58.7925   32.6708   47.4428 C   0  0  0  0  0  0  0  0  0  0  0  0
   58.9731   31.3369   47.0386 C   0  0  0  0  0  0  0  0  0  0  0  0
   56.5201   29.0334   44.6217 C   0  0  0  0  0  0  0  0  0  0  0  0
   57.7868   28.6796   44.8941 C   0  0  0  0  0  0  0  0  0  0  0  0
   58.3407   27.4024   44.7572 C   0  0  0  0  0  0  0  0  0  0  0  0
   57.7150   26.2784   44.3538 C   0  0  0  0  0  0  0  0  0  0  0  0
   59.6544   27.5023   45.2042 C   0  0  0  0  0  0  0  0  0  0  0  0
   59.8520   28.8158   45.5738 C   0  0  0  0  0  0  0  0  0  0  0  0
   61.1190   29.3553   46.1659 C   0  0  0  0  0  0  0  0  0  0  0  0
   58.7226   29.5321   45.3878 N   0  0  0  0  0  0  0  0  0  0  0  0
   57.2248   25.2345   45.2758 C   0  0  0  0  0  0  0  0  0  0  0  0
   57.9119   24.1107   45.5484 N   0  0  0  0  0  0  0  0  0  0  0  0
   57.1401   23.4807   46.4597 C   0  0  0  0  0  0  0  0  0  0  0  0
   57.4523   22.3688   46.9622 O   0  0  0  0  0  0  0  0  0  0  0  0
   56.0163   24.1460   46.8039 N   0  0  0  0  0  0  0  0  0  0  0  0
   56.0894   25.2591   46.0562 C   0  0  0  0  0  0  0  0  0  0  0  0
   55.1678   26.2970   46.1287 O   0  0  0  0  0  0  0  0  0  0  0  0
   59.2236   33.0900   48.8014 C   0  0  0  0  0  0  0  0  0  0  0  0
   58.5857   32.6763   49.8009 O   0  0  0  0  0  0  0  0  0  0  0  0
   60.2876   34.0269   49.0196 N   0  0  0  0  0  0  0  0  0  0  0  0
   61.6630   33.7333   49.2900 C   0  0  0  0  0  0  0  0  0  0  0  0
   62.5670   33.3890   48.2722 C   0  0  0  0  0  0  0  0  0  0  0  0
   63.8911   33.0628   48.5885 C   0  0  0  0  0  0  0  0  0  0  0  0
   64.3286   33.0793   49.9236 C   0  0  0  0  0  0  0  0  0  0  0  0
   63.4227   33.4346   50.9339 C   0  0  0  0  0  0  0  0  0  0  0  0
   62.0992   33.7410   50.6205 C   0  0  0  0  0  0  0  0  0  0  0  0
   65.7470   32.7096   50.2751 C   0  0  0  0  0  0  0  0  0  0  0  0
   66.3089   33.5420   51.4405 C   0  0  0  0  0  0  0  0  0  0  0  0
   67.7497   33.2457   51.6502 N   0  0  0  0  0  0  0  0  0  0  0  0
   68.6342   33.9683   50.7047 C   0  0  0  0  0  0  0  0  0  0  0  0
   68.9154   35.4217   51.1543 C   0  0  0  0  0  0  0  0  0  0  0  0
   68.0552   35.8152   52.2060 O   0  0  0  0  0  0  0  0  0  0  0  0
   68.2962   35.0129   53.3473 C   0  0  0  0  0  0  0  0  0  0  0  0
   68.1856   33.4974   53.0400 C   0  0  0  0  0  0  0  0  0  0  0  0
  7  8  2  0
  8  9  1  0
  9 10  2  0
 10 15  1  0
 15 16  1  0
 16 17  1  0
 17 18  2  0
 17 19  1  0
 19 20  1  0
 20 21  1  0
  9 11  1  0
 11 12  2  0
 12 13  1  0
 12 14  1  0
 14  1  1  0
  1  2  2  0
  2  3  1  0
  3  4  2  0
  4  5  1  0
  5 22  1  0
 22 23  2  0
 22 24  1  0
 24 25  1  0
 25 26  2  0
 26 27  1  0
 27 28  2  0
 28 31  1  0
 31 32  1  0
 32 33  1  0
 33 34  1  0
 34 35  1  0
 35 36  1  0
 36 37  1  0
 37 38  1  0
 28 29  1  0
 29 30  2  0
  5  6  2  0
 14  8  1  0
  6  1  1  0
 20 15  2  0
 30 25  1  0
 38 33  1  0
M  CHG 1  16  -1
M  CHG 1  19  -1
M  CHG 1  21  -1
M  CHG 1  24  -1
M  END
> <UniqueID>
17

> <SMILES>
C=c1c(=Cc2[n-]c(=O)[n-]c2[O-])cc(C)n1-c1cccc(C(=O)[N-]c2ccc(CCN3CCOCC3)cc2)c1

> <Energy>
160.4638877780137

> <Genealogy>
C=c1c(=Cc2[n-]c(=O)[n-]c2[O-])cc(C)n1-c1cccc(C(=O)[N-]c2ccc(CCN3CCOCC3)cc2)c1 (protonated)
C=c1c(=Cc2[n-]c(=O)[n-]c2[O-])cc(C)n1-c1cccc(C(=O)[N-]c2ccc(CCN3CCOCC3)cc2)c1 (3D coordinates assigned)
C=c1c(=Cc2[n-]c(=O)[n-]c2[O-])cc(C)n1-c1cccc(C(=O)[N-]c2ccc(CCN3CCOCC3)cc2)c1 (nonaromatic ring conformer: 160.4638877780137 kcal/mol)

> <smiles>
C=c1c(=Cc2[nH]c(=O)[nH]c2O)cc(C)n1-c1cccc(C(=O)Nc2ccc(CCN3CCOCC3)cc2)c1

> <score_type>
oracle

> <origin>
adg

> <m_score__min__energy>
-20.27

> <m_primary>
energy

> <minimizedAffinity>
-8.45783

> <minimizedRMSD>
0.75924

> <CNNscore>
0.4841223061

> <CNNaffinity>
7.2155151367

> <CNN_VS>
3.4931917191

> <CNNaffinity_variance>
0.0402536355

$$$$
25:0


 25 26  0  0  0  0  0  0  0  0999 V2000
   59.4167   28.8169   45.2996 C   0  0  0  0  0  0  0  0  0  0  0  0
   60.6259   28.8823   44.9554 O   0  0  0  0  0  0  0  0  0  0  0  0
   57.7272   30.6695   45.0766 C   0  0  0  0  0  0  0  0  0  0  0  0
   58.3769   29.6025   44.5873 C   0  0  0  0  0  0  0  0  0  0  0  0
   58.9317   30.8687   47.7071 O   0  0  0  0  0  0  0  0  0  0  0  0
   58.9324   31.9751   46.8539 C   0  0  0  0  0  0  0  0  0  0  0  0
   59.5075   33.1724   47.3064 C   0  0  0  0  0  0  0  0  0  0  0  0
   59.5192   34.2987   46.4610 C   0  0  0  0  0  0  0  0  0  0  0  0
   58.9558   34.2284   45.1852 C   0  0  0  0  0  0  0  0  0  0  0  0
   58.3809   33.0396   44.7366 C   0  0  0  0  0  0  0  0  0  0  0  0
   58.3770   31.9023   45.5572 C   0  0  0  0  0  0  0  0  0  0  0  0
   59.3052   30.9374   48.5637 H   0  0  0  0  0  0  0  0  0  0  0  0
   60.0567   33.2048   48.5979 O   0  0  0  0  0  0  0  0  0  0  0  0
   61.2295   33.9260   48.9598 C   0  0  0  0  0  0  0  0  0  0  0  0
   59.0586   27.9117   46.3521 N   0  0  0  0  0  0  0  0  0  0  0  0
   58.3712   26.6627   46.1993 C   0  0  0  0  0  0  0  0  0  0  0  0
   59.0645   25.4636   45.9797 C   0  0  0  0  0  0  0  0  0  0  0  0
   58.3651   24.2680   45.7973 C   0  0  0  0  0  0  0  0  0  0  0  0
   56.9570   24.2468   45.8147 C   0  0  0  0  0  0  0  0  0  0  0  0
   56.2637   25.4631   46.0092 C   0  0  0  0  0  0  0  0  0  0  0  0
   54.8737   25.5070   46.0241 O   0  0  0  0  0  0  0  0  0  0  0  0
   56.9730   26.6560   46.1886 C   0  0  0  0  0  0  0  0  0  0  0  0
   56.2395   22.9611   45.6212 C   0  0  0  0  0  0  0  0  0  0  0  0
   56.1928   22.1129   46.5515 O   0  0  0  0  0  0  0  0  0  0  0  0
   55.6084   22.6649   44.4190 O   0  0  0  0  0  0  0  0  0  0  0  0
  5  6  1  0
  6  7  2  0
  7 13  1  0
 13 14  1  0
  7  8  1  0
  8  9  2  0
  9 10  1  0
 10 11  2  0
 11  3  1  0
  3  4  2  0
  4  1  1  0
  1  2  2  0
  1 15  1  0
 15 16  1  0
 16 17  2  0
 17 18  1  0
 18 19  2  0
 19 23  1  0
 23 24  2  0
 23 25  1  0
 19 20  1  0
 20 21  1  0
 20 22  2  0
 11  6  1  0
 22 16  1  0
  5 12  1  0
M  CHG 1  15  -1
M  CHG 1  21  -1
M  CHG 1  25  -1
M  END
> <UniqueID>
25

> <SMILES>
COc1cccc(/C=C\C(=O)[N-]c2ccc(C(=O)[O-])c([O-])c2)c1O

> <Energy>
53.21514930943058

> <Genealogy>
COc1cccc(C=CC(=O)[N-]c2ccc(C(=O)[O-])c([O-])c2)c1O (protonated)
COc1cccc(/C=C\C(=O)[N-]c2ccc(C(=O)[O-])c([O-])c2)c1O (cis-trans isomerization)
COc1cccc(/C=C\C(=O)[N-]c2ccc(C(=O)[O-])c([O-])c2)c1O (3D coordinates assigned)
COc1cccc(/C=C\C(=O)[N-]c2ccc(C(=O)[O-])c([O-])c2)c1O (optimized conformer: 53.21514930943058 kcal/mol)

> <smiles>
COc1cccc(C=CC(=O)Nc2ccc(C(=O)O)c(O)c2)c1O

> <score_type>
oracle

> <origin>
adg

> <m_score__min__energy>
-14.08

> <m_primary>
energy

> <minimizedAffinity>
-7.78370

> <minimizedRMSD>
0.92281

> <CNNscore>
0.3640526235

> <CNNaffinity>
6.2660064697

> <CNN_VS>
2.2811560631

> <CNNaffinity_variance>
0.3210350573

$$$$
32:0


 33 35  0  0  0  0  0  0  0  0999 V2000
   57.0381   28.0676   45.5167 C   0  0  0  0  0  0  0  0  0  0  0  0
   58.3381   27.6339   45.7908 C   0  0  0  0  0  0  0  0  0  0  0  0
   59.4494   28.3822   45.3713 C   0  0  0  0  0  0  0  0  0  0  0  0
   59.2377   29.5977   44.7004 C   0  0  0  0  0  0  0  0  0  0  0  0
   57.9369   30.0793   44.4578 C   0  0  0  0  0  0  0  0  0  0  0  0
   56.8324   29.3047   44.8766 C   0  0  0  0  0  0  0  0  0  0  0  0
   55.5331   29.7647   44.6817 O   0  0  0  0  0  0  0  0  0  0  0  0
   60.7894   27.9049   45.6136 N   0  0  0  0  0  0  0  0  0  0  0  0
   61.7688   28.4347   45.0469 O   0  0  0  0  0  0  0  0  0  0  0  0
   61.0172   26.8877   46.5123 O   0  0  0  0  0  0  0  0  0  0  0  0
   57.7548   31.3911   43.7827 C   0  0  0  0  0  0  0  0  0  0  0  0
   57.2774   31.4416   42.6153 O   0  0  0  0  0  0  0  0  0  0  0  0
   58.1186   32.5744   44.4301 O   0  0  0  0  0  0  0  0  0  0  0  0
   57.4686   33.0468   45.6036 C   0  0  0  0  0  0  0  0  0  0  0  0
   58.4943   33.2676   46.6770 C   0  0  0  0  0  0  0  0  0  0  0  0
   58.5060   32.4518   47.8233 C   0  0  0  0  0  0  0  0  0  0  0  0
   59.4875   32.6273   48.8040 C   0  0  0  0  0  0  0  0  0  0  0  0
   60.4704   33.6120   48.6437 C   0  0  0  0  0  0  0  0  0  0  0  0
   60.4750   34.4171   47.4979 C   0  0  0  0  0  0  0  0  0  0  0  0
   59.4957   34.2428   46.5134 C   0  0  0  0  0  0  0  0  0  0  0  0
   55.9392   27.2571   45.9553 N   0  0  0  0  0  0  0  0  0  0  0  0
   55.8231   25.1386   46.9299 O   0  0  0  0  0  0  0  0  0  0  0  0
   55.9012   25.8283   45.8796 C   0  0  0  0  0  0  0  0  0  0  0  0
   55.9031   25.1541   44.5410 C   0  0  0  0  0  0  0  0  0  0  0  0
   55.3772   23.7167   44.6548 C   0  0  0  0  0  0  0  0  0  0  0  0
   56.3326   22.6823   44.1056 C   0  0  0  0  0  0  0  0  0  0  0  0
   55.9140   21.8408   43.2615 O   0  0  0  0  0  0  0  0  0  0  0  0
   57.7254   22.6613   44.5034 N   0  0  0  0  0  0  0  0  0  0  0  0
   58.1908   23.4744   45.6402 C   0  0  0  0  0  0  0  0  0  0  0  0
   59.7133   23.6361   45.6261 C   0  0  0  0  0  0  0  0  0  0  0  0
   60.3524   22.3920   45.4355 O   0  0  0  0  0  0  0  0  0  0  0  0
   60.0609   21.9155   44.1408 C   0  0  0  0  0  0  0  0  0  0  0  0
   58.5765   21.5680   44.0108 C   0  0  0  0  0  0  0  0  0  0  0  0
 22 23  2  0
 23 24  1  0
 24 25  1  0
 25 26  1  0
 26 27  2  0
 26 28  1  0
 28 29  1  0
 29 30  1  0
 30 31  1  0
 31 32  1  0
 32 33  1  0
 23 21  1  0
 21  1  1  0
  1  2  2  0
  2  3  1  0
  3  8  1  0
  8  9  2  0
  8 10  1  0
  3  4  2  0
  4  5  1  0
  5 11  1  0
 11 12  2  0
 11 13  1  0
 13 14  1  0
 14 15  1  0
 15 16  2  0
 16 17  1  0
 17 18  2  0
 18 19  1  0
 19 20  2  0
  5  6  2  0
  6  7  1  0
 33 28  1  0
  6  1  1  0
 20 15  1  0
M  CHG 1   7  -1
M  CHG 1   8   1
M  CHG 1  10  -1
M  CHG 1  21  -1
M  END
> <UniqueID>
32

> <SMILES>
O=C(CCC(=O)N1CCOCC1)[N-]c1cc([N+](=O)[O-])cc(C(=O)OCc2ccccc2)c1[O-]

> <Energy>
62.014924869214795

> <Genealogy>
O=C(CCC(=O)N1CCOCC1)[N-]c1cc([N+](=O)[O-])cc(C(=O)OCc2ccccc2)c1[O-] (protonated)
O=C(CCC(=O)N1CCOCC1)[N-]c1cc([N+](=O)[O-])cc(C(=O)OCc2ccccc2)c1[O-] (3D coordinates assigned)
O=C(CCC(=O)N1CCOCC1)[N-]c1cc([N+](=O)[O-])cc(C(=O)OCc2ccccc2)c1[O-] (nonaromatic ring conformer: 62.014924869214795 kcal/mol)

> <smiles>
O=C(CCC(=O)N1CCOCC1)Nc1cc([N+](=O)[O-])cc(C(=O)OCc2ccccc2)c1O

> <score_type>
oracle

> <origin>
adg

> <m_score__min__energy>
-15.49

> <m_primary>
energy

> <minimizedAffinity>
-2.81808

> <minimizedRMSD>
0.74727

> <CNNscore>
0.6710556746

> <CNNaffinity>
6.7247180939

> <CNN_VS>
4.5126600266

> <CNNaffinity_variance>
0.2360420078

$$$$
61:0


 26 28  0  0  0  0  0  0  0  0999 V2000
   58.3226   31.9071   45.6965 C   0  0  0  0  0  0  0  0  0  0  0  0
   58.3981   33.1617   45.0690 C   0  0  0  0  0  0  0  0  0  0  0  0
   58.8765   34.2724   45.7667 C   0  0  0  0  0  0  0  0  0  0  0  0
   59.2709   34.1472   47.1007 C   0  0  0  0  0  0  0  0  0  0  0  0
   59.1770   32.9092   47.7498 C   0  0  0  0  0  0  0  0  0  0  0  0
   58.7071   31.7914   47.0437 C   0  0  0  0  0  0  0  0  0  0  0  0
   59.6163   32.7632   49.4528 S   0  0  0  0  0  0  0  0  0  0  0  0
   59.7567   34.1392   50.0441 O   0  0  0  0  0  0  0  0  0  0  0  0
   58.4973   32.0665   50.1771 O   0  0  0  0  0  0  0  0  0  0  0  0
   61.1011   31.8655   49.6982 N   0  0  0  0  0  0  0  0  0  0  0  0
   62.2029   32.6969   50.2176 C   0  0  0  0  0  0  0  0  0  0  0  0
   62.9072   33.5398   49.1309 C   0  0  0  0  0  0  0  0  0  0  0  0
   62.5279   33.1214   47.7688 N   0  0  0  0  0  0  0  0  0  0  0  0
   63.4062   33.7493   46.7731 C   0  0  0  0  0  0  0  0  0  0  0  0
   62.5701   31.6582   47.6548 C   0  0  0  0  0  0  0  0  0  0  0  0
   61.4734   31.0309   48.5350 C   0  0  0  0  0  0  0  0  0  0  0  0
   57.7978   30.7332   44.9556 C   0  0  0  0  0  0  0  0  0  0  0  0
   57.6104   30.8242   43.7136 O   0  0  0  0  0  0  0  0  0  0  0  0
   60.4380   27.7168   46.3240 C   0  0  0  0  0  0  0  0  0  0  0  0
   59.5804   28.7293   46.0268 N   0  0  0  0  0  0  0  0  0  0  0  0
   58.2355   28.5282   45.9106 C   0  0  0  0  0  0  0  0  0  0  0  0
   57.4327   29.5108   45.6162 N   0  0  0  0  0  0  0  0  0  0  0  0
   57.7161   27.2368   46.0823 C   0  0  0  0  0  0  0  0  0  0  0  0
   56.3517   26.9949   45.9555 O   0  0  0  0  0  0  0  0  0  0  0  0
   58.5830   26.1837   46.3867 C   0  0  0  0  0  0  0  0  0  0  0  0
   59.9521   26.4226   46.5113 C   0  0  0  0  0  0  0  0  0  0  0  0
 19 20  1  0
 20 21  1  0
 21 22  2  0
 22 17  1  0
 17 18  2  0
 17  1  1  0
  1  2  2  0
  2  3  1  0
  3  4  2  0
  4  5  1  0
  5  7  1  0
  7  8  2  0
  7  9  2  0
  7 10  1  0
 10 11  1  0
 11 12  1  0
 12 13  1  0
 13 14  1  0
 13 15  1  0
 15 16  1  0
  5  6  2  0
 21 23  1  0
 23 24  1  0
 23 25  2  0
 25 26  1  0
 26 19  2  0
  6  1  1  0
 16 10  1  0
M  CHG 1  20  -1
M  CHG 1  24  -1
M  END
> <UniqueID>
60

> <SMILES>
CN1CCN(S(=O)(=O)c2cccc(C(=O)/N=c3\[n-]cccc3[O-])c2)CC1

> <Energy>
62.24322655538311

> <Genealogy>
CN1CCN(S(=O)(=O)c2cccc(C(=O)N=c3[n-]cccc3[O-])c2)CC1 (protonated)
CN1CCN(S(=O)(=O)c2cccc(C(=O)/N=c3\[n-]cccc3[O-])c2)CC1 (cis-trans isomerization)
CN1CCN(S(=O)(=O)c2cccc(C(=O)/N=c3\[n-]cccc3[O-])c2)CC1 (3D coordinates assigned)
CN1CCN(S(=O)(=O)c2cccc(C(=O)/N=c3\[n-]cccc3[O-])c2)CC1 (nonaromatic ring conformer: 62.24322655538311 kcal/mol)

> <smiles>
CN1CCN(S(=O)(=O)c2cccc(C(=O)N=c3[nH]cccc3O)c2)CC1

> <score_type>
oracle

> <origin>
adg

> <m_score__min__energy>
-14.57

> <m_primary>
energy

> <minimizedAffinity>
-7.95585

> <minimizedRMSD>
1.33197

> <CNNscore>
0.7434080243

> <CNNaffinity>
6.6599974632

> <CNN_VS>
4.9510955811

> <CNNaffinity_variance>
0.0651504323

$$$$
94:0


 22 23  0  0  0  0  0  0  0  0999 V2000
   57.1047   24.4238   46.9747 C   0  0  0  0  0  0  0  0  0  0  0  0
   58.0157   24.4516   46.0499 N   0  0  0  0  0  0  0  0  0  0  0  0
   56.0093   23.4225   46.9598 C   0  0  0  0  0  0  0  0  0  0  0  0
   54.7898   23.7344   46.3314 C   0  0  0  0  0  0  0  0  0  0  0  0
   54.5960   24.9689   45.7234 O   0  0  0  0  0  0  0  0  0  0  0  0
   53.7828   22.8230   46.3069 N   0  0  0  0  0  0  0  0  0  0  0  0
   53.9258   21.6038   46.8813 C   0  0  0  0  0  0  0  0  0  0  0  0
   52.6961   20.5308   46.8336 S   0  0  0  0  0  0  0  0  0  0  0  0
   55.0893   21.2729   47.4941 N   0  0  0  0  0  0  0  0  0  0  0  0
   56.1303   22.1444   47.5479 C   0  0  0  0  0  0  0  0  0  0  0  0
   57.1886   21.7927   48.1328 O   0  0  0  0  0  0  0  0  0  0  0  0
   58.9028   25.5939   45.8385 C   0  0  0  0  0  0  0  0  0  0  0  0
   58.8313   26.5799   47.0110 C   0  0  0  0  0  0  0  0  0  0  0  0
   58.5575   27.9894   46.5480 C   0  0  0  0  0  0  0  0  0  0  0  0
   59.3290   29.0544   47.0348 C   0  0  0  0  0  0  0  0  0  0  0  0
   59.0434   30.3683   46.6494 C   0  0  0  0  0  0  0  0  0  0  0  0
   57.9743   30.6347   45.7724 C   0  0  0  0  0  0  0  0  0  0  0  0
   57.2030   29.5684   45.2900 C   0  0  0  0  0  0  0  0  0  0  0  0
   56.1398   29.8129   44.4288 O   0  0  0  0  0  0  0  0  0  0  0  0
   57.4916   28.2558   45.6736 C   0  0  0  0  0  0  0  0  0  0  0  0
   57.6493   31.9377   45.3639 O   0  0  0  0  0  0  0  0  0  0  0  0
   58.1470   32.5593   44.1841 C   0  0  0  0  0  0  0  0  0  0  0  0
  1  2  2  0
  2 12  1  0
 12 13  1  0
 13 14  1  0
 14 15  2  0
 15 16  1  0
 16 17  2  0
 17 21  1  0
 21 22  1  0
 17 18  1  0
 18 19  1  0
 18 20  2  0
  1  3  1  0
  3  4  2  0
  4  5  1  0
  4  6  1  0
  6  7  1  0
  7  8  2  0
  7  9  1  0
  9 10  1  0
 10 11  2  0
 20 14  1  0
 10  3  1  0
M  CHG 1   5  -1
M  CHG 1   6  -1
M  CHG 1   9  -1
M  CHG 1  19  -1
M  END
> <UniqueID>
88

> <SMILES>
COc1ccc(CC/N=C/c2c([O-])[n-]c(=S)[n-]c2=O)cc1[O-]

> <Energy>
32.182579507728576

> <Genealogy>
COc1ccc(CCN=Cc2c([O-])[n-]c(=S)[n-]c2=O)cc1[O-] (protonated)
COc1ccc(CC/N=C/c2c([O-])[n-]c(=S)[n-]c2=O)cc1[O-] (cis-trans isomerization)
COc1ccc(CC/N=C/c2c([O-])[n-]c(=S)[n-]c2=O)cc1[O-] (3D coordinates assigned)
COc1ccc(CC/N=C/c2c([O-])[n-]c(=S)[n-]c2=O)cc1[O-] (optimized conformer: 32.182579507728576 kcal/mol)

> <smiles>
COc1ccc(CCN=Cc2c(O)[nH]c(=S)[nH]c2=O)cc1O

> <score_type>
oracle

> <origin>
adg

> <m_score__min__energy>
-17.210000000000001

> <m_primary>
energy

> <minimizedAffinity>
-5.87059

> <minimizedRMSD>
1.90001

> <CNNscore>
0.1237752661

> <CNNaffinity>
4.8586201668

> <CNN_VS>
0.6013770103

> <CNNaffinity_variance>
0.1278333515

$$$$
0:0


 34 37  0  0  0  0  0  0  0  0999 V2000
   58.2769   24.7984   45.2138 C   0  0  0  0  0  0  0  0  0  0  0  0
   57.9656   25.9595   44.4913 C   0  0  0  0  0  0  0  0  0  0  0  0
   58.6236   27.1610   44.7740 C   0  0  0  0  0  0  0  0  0  0  0  0
   59.5836   27.2202   45.7954 C   0  0  0  0  0  0  0  0  0  0  0  0
   59.8921   26.0569   46.5189 C   0  0  0  0  0  0  0  0  0  0  0  0
   59.2340   24.8564   46.2362 C   0  0  0  0  0  0  0  0  0  0  0  0
   56.3744   23.1604   45.5586 C   0  0  0  0  0  0  0  0  0  0  0  0
   55.7891   21.9184   45.2571 C   0  0  0  0  0  0  0  0  0  0  0  0
   56.3784   21.0639   44.3238 C   0  0  0  0  0  0  0  0  0  0  0  0
   57.5555   21.4359   43.6776 C   0  0  0  0  0  0  0  0  0  0  0  0
   58.1565   22.6617   43.9716 C   0  0  0  0  0  0  0  0  0  0  0  0
   57.5848   23.5276   44.9180 C   0  0  0  0  0  0  0  0  0  0  0  0
   54.7580   25.5132   45.8631 N   0  0  0  0  0  0  0  0  0  0  0  0
   55.5559   24.2316   46.7073 S   0  0  0  0  0  0  0  0  0  0  0  0
   56.5567   24.8032   47.6700 O   0  0  0  0  0  0  0  0  0  0  0  0
   54.5204   23.4612   47.4789 O   0  0  0  0  0  0  0  0  0  0  0  0
   54.2907   26.1230   46.5339 H   0  0  0  0  0  0  0  0  0  0  0  0
   60.3205   28.4980   46.0686 C   0  0  0  0  0  0  0  0  0  0  0  0
   60.1378   28.8697   47.4660 N   0  0  0  0  0  0  0  0  0  0  0  0
   60.2334   30.2019   47.9839 C   0  0  0  0  0  0  0  0  0  0  0  0
   61.3074   30.5599   48.5340 O   0  0  0  0  0  0  0  0  0  0  0  0
   59.1057   31.1934   47.8784 C   0  0  0  0  0  0  0  0  0  0  0  0
   58.4908   31.1209   46.5478 N   0  0  0  0  0  0  0  0  0  0  0  0
   57.6060   30.1471   46.3167 N   0  0  0  0  0  0  0  0  0  0  0  0
   56.9985   29.9838   45.1159 C   0  0  0  0  0  0  0  0  0  0  0  0
   56.1694   29.0460   44.9648 O   0  0  0  0  0  0  0  0  0  0  0  0
   57.3015   30.8584   44.0618 C   0  0  0  0  0  0  0  0  0  0  0  0
   56.6987   30.7298   42.7961 C   0  0  0  0  0  0  0  0  0  0  0  0
   57.0271   31.6164   41.7673 C   0  0  0  0  0  0  0  0  0  0  0  0
   57.9559   32.6350   41.9881 C   0  0  0  0  0  0  0  0  0  0  0  0
   58.5614   32.7739   43.2392 C   0  0  0  0  0  0  0  0  0  0  0  0
   58.2424   31.8887   44.2874 C   0  0  0  0  0  0  0  0  0  0  0  0
   58.8358   32.0012   45.5564 C   0  0  0  0  0  0  0  0  0  0  0  0
   59.6860   32.9086   45.7804 O   0  0  0  0  0  0  0  0  0  0  0  0
 13 14  1  0
 14 15  2  0
 14 16  2  0
 14  7  1  0
  7  8  2  0
  8  9  1  0
  9 10  2  0
 10 11  1  0
 11 12  2  0
 12  1  1  0
  1  2  2  0
  2  3  1  0
  3  4  2  0
  4 18  1  0
 18 19  1  0
 19 20  1  0
 20 21  2  0
 20 22  1  0
 22 23  1  0
 23 24  1  0
 24 25  1  0
 25 26  2  0
 25 27  1  0
 27 28  2  0
 28 29  1  0
 29 30  2  0
 30 31  1  0
 31 32  2  0
 32 33  1  0
 33 34  2  0
  4  5  1  0
  5  6  2  0
 12  7  1  0
  6  1  1  0
 33 23  1  0
 32 27  1  0
 13 17  1  0
M  CHG 1  13  -1
M  CHG 1  19  -1
M  CHG 1  24  -1
M  END
> <UniqueID>
1

> <SMILES>
[NH-]S(=O)(=O)c1ccccc1-c1ccc(C[N-]C(=O)Cn2[n-]c(=O)c3ccccc3c2=O)cc1

> <Energy>
67.56374956024416

> <Genealogy>
[NH-]S(=O)(=O)c1ccccc1-c1ccc(C[N-]C(=O)Cn2[n-]c(=O)c3ccccc3c2=O)cc1 (protonated)
[NH-]S(=O)(=O)c1ccccc1-c1ccc(C[N-]C(=O)Cn2[n-]c(=O)c3ccccc3c2=O)cc1 (3D coordinates assigned)
[NH-]S(=O)(=O)c1ccccc1-c1ccc(C[N-]C(=O)Cn2[n-]c(=O)c3ccccc3c2=O)cc1 (optimized conformer: 67.56374956024416 kcal/mol)

> <smiles>
NS(=O)(=O)c1ccccc1-c1ccc(CNC(=O)Cn2[nH]c(=O)c3ccccc3c2=O)cc1

> <score_type>
oracle

> <origin>
adg

> <m_score__min__energy>
-14.050000000000001

> <m_primary>
energy

> <minimizedAffinity>
-4.86291

> <minimizedRMSD>
0.50388

> <CNNscore>
0.5001671314

> <CNNaffinity>
6.5760874748

> <CNN_VS>
3.2891428471

> <CNNaffinity_variance>
0.0061021154

$$$$
11:0


 27 29  0  0  0  0  0  0  0  0999 V2000
   58.1151   28.3165   46.0990 C   0  0  0  0  0  0  0  0  0  0  0  0
   57.2969   29.1656   45.3498 C   0  0  0  0  0  0  0  0  0  0  0  0
   56.1389   28.6866   44.7457 O   0  0  0  0  0  0  0  0  0  0  0  0
   57.6224   30.4723   45.2182 N   0  0  0  0  0  0  0  0  0  0  0  0
   58.7384   30.9893   45.7875 C   0  0  0  0  0  0  0  0  0  0  0  0
   58.9832   32.2171   45.6365 O   0  0  0  0  0  0  0  0  0  0  0  0
   59.5830   30.1868   46.5145 N   0  0  0  0  0  0  0  0  0  0  0  0
   59.2925   28.8505   46.6548 C   0  0  0  0  0  0  0  0  0  0  0  0
   60.0897   28.0900   47.2705 O   0  0  0  0  0  0  0  0  0  0  0  0
   58.4974   25.8599   45.7831 C   0  0  0  0  0  0  0  0  0  0  0  0
   57.7566   26.8836   46.2352 C   0  0  0  0  0  0  0  0  0  0  0  0
   56.5341   21.0914   43.3876 O   0  0  0  0  0  0  0  0  0  0  0  0
   57.0175   22.2594   43.9724 C   0  0  0  0  0  0  0  0  0  0  0  0
   56.4559   23.4910   43.6216 C   0  0  0  0  0  0  0  0  0  0  0  0
   56.9302   24.6710   44.2015 C   0  0  0  0  0  0  0  0  0  0  0  0
   57.9611   24.6294   45.1575 C   0  0  0  0  0  0  0  0  0  0  0  0
   58.5407   23.3921   45.4841 C   0  0  0  0  0  0  0  0  0  0  0  0
   58.0652   22.2134   44.9025 C   0  0  0  0  0  0  0  0  0  0  0  0
   55.8334   21.1334   42.7669 H   0  0  0  0  0  0  0  0  0  0  0  0
   60.8201   30.7400   47.1042 C   0  0  0  0  0  0  0  0  0  0  0  0
   60.4917   31.6878   48.2293 C   0  0  0  0  0  0  0  0  0  0  0  0
   61.0825   32.9612   48.2763 C   0  0  0  0  0  0  0  0  0  0  0  0
   60.8009   33.8315   49.3351 C   0  0  0  0  0  0  0  0  0  0  0  0
   59.9296   33.4359   50.3532 C   0  0  0  0  0  0  0  0  0  0  0  0
   59.3399   32.1695   50.3155 C   0  0  0  0  0  0  0  0  0  0  0  0
   58.4967   31.7867   51.3063 F   0  0  0  0  0  0  0  0  0  0  0  0
   59.6189   31.2962   49.2592 C   0  0  0  0  0  0  0  0  0  0  0  0
 12 13  1  0
 13 14  2  0
 14 15  1  0
 15 16  2  0
 16 10  1  0
 10 11  2  0
 11  1  1  0
  1  2  2  0
  2  3  1  0
  2  4  1  0
  4  5  1  0
  5  6  2  0
  5  7  1  0
  7 20  1  0
 20 21  1  0
 21 22  2  0
 22 23  1  0
 23 24  2  0
 24 25  1  0
 25 26  1  0
 25 27  2  0
  7  8  1  0
  8  9  2  0
 16 17  1  0
 17 18  2  0
 18 13  1  0
  8  1  1  0
 27 21  1  0
 12 19  1  0
M  CHG 1   3  -1
M  CHG 1   4  -1
M  END
> <UniqueID>
12

> <SMILES>
O=c1[n-]c([O-])c(/C=C\c2ccc(O)cc2)c(=O)n1Cc1cccc(F)c1

> <Energy>
56.9524022160307

> <Genealogy>
O=c1[n-]c([O-])c(C=Cc2ccc(O)cc2)c(=O)n1Cc1cccc(F)c1 (protonated)
O=c1[n-]c([O-])c(/C=C\c2ccc(O)cc2)c(=O)n1Cc1cccc(F)c1 (cis-trans isomerization)
O=c1[n-]c([O-])c(/C=C\c2ccc(O)cc2)c(=O)n1Cc1cccc(F)c1 (3D coordinates assigned)
O=c1[n-]c([O-])c(/C=C\c2ccc(O)cc2)c(=O)n1Cc1cccc(F)c1 (optimized conformer: 56.9524022160307 kcal/mol)

> <smiles>
O=c1[nH]c(O)c(C=Cc2ccc(O)cc2)c(=O)n1Cc1cccc(F)c1

> <score_type>
oracle

> <origin>
adg

> <m_score__min__energy>
-14.119999999999999

> <m_primary>
energy

> <minimizedAffinity>
-8.19631

> <minimizedRMSD>
0.89537

> <CNNscore>
0.3615457118

> <CNNaffinity>
6.5876545906

> <CNN_VS>
2.3817381859

> <CNNaffinity_variance>
0.5861558318

$$$$
14:0


 27 29  0  0  0  0  0  0  0  0999 V2000
   59.9843   32.6846   46.7527 C   0  0  0  0  0  0  0  0  0  0  0  0
   61.2744   33.2158   46.9429 C   0  0  0  0  0  0  0  0  0  0  0  0
   62.2076   32.5422   47.7346 C   0  0  0  0  0  0  0  0  0  0  0  0
   61.8692   31.3322   48.3421 C   0  0  0  0  0  0  0  0  0  0  0  0
   60.5952   30.7848   48.1571 C   0  0  0  0  0  0  0  0  0  0  0  0
   59.6545   31.4630   47.3681 C   0  0  0  0  0  0  0  0  0  0  0  0
   60.1686   29.2695   48.9514 S   0  0  0  0  0  0  0  0  0  0  0  0
   61.0637   29.0382   50.1379 O   0  0  0  0  0  0  0  0  0  0  0  0
   58.7486   29.3526   49.4375 O   0  0  0  0  0  0  0  0  0  0  0  0
   60.3129   27.9472   47.8368 N   0  0  0  0  0  0  0  0  0  0  0  0
   59.4587   28.1801   46.6751 C   0  0  0  0  0  0  0  0  0  0  0  0
   58.6843   26.9299   46.3738 C   0  0  0  0  0  0  0  0  0  0  0  0
   59.3552   25.7167   46.1543 C   0  0  0  0  0  0  0  0  0  0  0  0
   58.6302   24.5463   45.9084 C   0  0  0  0  0  0  0  0  0  0  0  0
   57.2326   24.5763   45.8913 C   0  0  0  0  0  0  0  0  0  0  0  0
   56.5192   23.4092   45.6452 O   0  0  0  0  0  0  0  0  0  0  0  0
   56.5566   25.7788   46.1254 C   0  0  0  0  0  0  0  0  0  0  0  0
   55.1674   25.8141   46.1156 O   0  0  0  0  0  0  0  0  0  0  0  0
   57.2788   26.9523   46.3712 C   0  0  0  0  0  0  0  0  0  0  0  0
   59.2939   34.5145   45.4025 O   0  0  0  0  0  0  0  0  0  0  0  0
   58.9900   33.4053   45.9216 C   0  0  0  0  0  0  0  0  0  0  0  0
   57.6861   32.8359   45.7122 N   0  0  0  0  0  0  0  0  0  0  0  0
   57.3875   31.8851   44.8777 C   0  0  0  0  0  0  0  0  0  0  0  0
   56.8386   30.7016   45.2313 N   0  0  0  0  0  0  0  0  0  0  0  0
   56.6387   29.9033   44.1473 C   0  0  0  0  0  0  0  0  0  0  0  0
   57.0279   30.4531   42.9299 C   0  0  0  0  0  0  0  0  0  0  0  0
   57.6462   31.9915   43.2231 S   0  0  0  0  0  0  0  0  0  0  0  0
 20 21  2  0
 21 22  1  0
 22 23  2  0
 23 24  1  0
 24 25  1  0
 25 26  2  0
 26 27  1  0
 21  1  1  0
  1  2  2  0
  2  3  1  0
  3  4  2  0
  4  5  1  0
  5  7  1  0
  7  8  2  0
  7  9  2  0
  7 10  1  0
 10 11  1  0
 11 12  1  0
 12 13  2  0
 13 14  1  0
 14 15  2  0
 15 16  1  0
 15 17  1  0
 17 18  1  0
 17 19  2  0
  5  6  2  0
 27 23  1  0
  6  1  1  0
 19 12  1  0
M  CHG 1  10  -1
M  CHG 1  16  -1
M  CHG 1  18  -1
M  CHG 1  24  -1
M  END
> <UniqueID>
15

> <SMILES>
O=C(N=c1[n-]ccs1)c1cccc(S(=O)(=O)[N-]Cc2ccc([O-])c([O-])c2)c1

> <Energy>
71.48913697511466

> <Genealogy>
O=C(N=c1[n-]ccs1)c1cccc(S(=O)(=O)[N-]Cc2ccc([O-])c([O-])c2)c1 (protonated)
O=C(N=c1[n-]ccs1)c1cccc(S(=O)(=O)[N-]Cc2ccc([O-])c([O-])c2)c1 (3D coordinates assigned)
O=C(N=c1[n-]ccs1)c1cccc(S(=O)(=O)[N-]Cc2ccc([O-])c([O-])c2)c1 (optimized conformer: 71.48913697511466 kcal/mol)

> <smiles>
O=C(N=c1[nH]ccs1)c1cccc(S(=O)(=O)NCc2ccc(O)c(O)c2)c1

> <score_type>
oracle

> <origin>
adg

> <m_score__min__energy>
-18.48

> <m_primary>
energy

> <minimizedAffinity>
-7.86654

> <minimizedRMSD>
0.81843

> <CNNscore>
0.6634447575

> <CNNaffinity>
6.7804465294

> <CNN_VS>
4.4984517097

> <CNNaffinity_variance>
0.0252040457

$$$$
38:0


 30 34  0  0  0  0  0  0  0  0999 V2000
   53.9284   31.0137   52.7145 C   0  0  0  0  0  0  0  0  0  0  0  0
   54.7883   30.0475   53.0663 C   0  0  0  0  0  0  0  0  0  0  0  0
   54.5355   28.8290   53.6898 C   0  0  0  0  0  0  0  0  0  0  0  0
   55.7062   28.1845   53.8955 N   0  0  0  0  0  0  0  0  0  0  0  0
   56.6944   28.9460   53.4366 N   0  0  0  0  0  0  0  0  0  0  0  0
   58.0529   28.7494   53.4123 C   0  0  0  0  0  0  0  0  0  0  0  0
   58.6559   27.6858   53.8688 N   0  0  0  0  0  0  0  0  0  0  0  0
   58.8242   29.7322   52.8702 N   0  0  0  0  0  0  0  0  0  0  0  0
   58.2751   30.8760   52.3665 C   0  0  0  0  0  0  0  0  0  0  0  0
   56.9245   31.0510   52.4005 N   0  0  0  0  0  0  0  0  0  0  0  0
   56.1598   30.0724   52.9384 C   0  0  0  0  0  0  0  0  0  0  0  0
   55.8094   27.2997   54.3147 H   0  0  0  0  0  0  0  0  0  0  0  0
   52.9624   30.8929   51.6100 C   0  0  0  0  0  0  0  0  0  0  0  0
   53.0484   29.9491   50.6556 N   0  0  0  0  0  0  0  0  0  0  0  0
   51.9398   30.1531   49.9101 C   0  0  0  0  0  0  0  0  0  0  0  0
   51.6699   29.4595   48.8952 O   0  0  0  0  0  0  0  0  0  0  0  0
   51.1410   31.1503   50.3425 N   0  0  0  0  0  0  0  0  0  0  0  0
   51.7940   31.6021   51.4257 C   0  0  0  0  0  0  0  0  0  0  0  0
   51.3036   32.6037   52.2540 O   0  0  0  0  0  0  0  0  0  0  0  0
   59.2181   27.4354   55.1881 C   0  0  0  0  0  0  0  0  0  0  0  0
   58.7376   28.4547   56.2073 C   0  0  0  0  0  0  0  0  0  0  0  0
   60.1625   28.5180   55.6829 C   0  0  0  0  0  0  0  0  0  0  0  0
   59.1590   31.9064   51.7933 C   0  0  0  0  0  0  0  0  0  0  0  0
   60.2126   31.6036   51.0215 C   0  0  0  0  0  0  0  0  0  0  0  0
   60.4975   32.2601   49.7215 C   0  0  0  0  0  0  0  0  0  0  0  0
   61.2376   31.5526   48.7582 C   0  0  0  0  0  0  0  0  0  0  0  0
   61.5223   32.1271   47.5169 C   0  0  0  0  0  0  0  0  0  0  0  0
   61.0631   33.4113   47.2174 C   0  0  0  0  0  0  0  0  0  0  0  0
   60.3120   34.1197   48.1581 C   0  0  0  0  0  0  0  0  0  0  0  0
   60.0248   33.5498   49.4031 C   0  0  0  0  0  0  0  0  0  0  0  0
  1 13  1  0
 13 14  1  0
 14 15  1  0
 15 16  2  0
 15 17  1  0
 17 18  1  0
 18 19  1  0
  1  2  2  0
  2  3  1  0
  3  4  2  0
  4  5  1  0
  5  6  1  0
  6  7  2  0
  7 20  1  0
 20 21  1  0
 21 22  1  0
  6  8  1  0
  8  9  2  0
  9 23  1  0
 23 24  2  0
 24 25  1  0
 25 26  2  0
 26 27  1  0
 27 28  2  0
 28 29  1  0
 29 30  2  0
  9 10  1  0
 10 11  2  0
 18 13  2  0
 11  2  1  0
 11  5  1  0
 22 20  1  0
 30 25  1  0
  4 12  1  0
M  CHG 1   4   1
M  CHG 1  14  -1
M  CHG 1  17  -1
M  CHG 1  19  -1
M  END
> <UniqueID>
37

> <SMILES>
O=c1[n-]c([O-])c(C=c2c[nH+]n3c(=NC4CC4)nc(/C=C/c4ccccc4)nc23)[n-]1

> <Energy>
397.4449210769039

> <Genealogy>
O=c1[n-]c([O-])c(C=c2c[nH+]n3c(=NC4CC4)nc(C=Cc4ccccc4)nc23)[n-]1 (protonated)
O=c1[n-]c([O-])c(C=c2c[nH+]n3c(=NC4CC4)nc(/C=C/c4ccccc4)nc23)[n-]1 (cis-trans isomerization)
O=c1[n-]c([O-])c(C=c2c[nH+]n3c(=NC4CC4)nc(/C=C/c4ccccc4)nc23)[n-]1 (3D coordinates assigned)
O=c1[n-]c([O-])c(C=c2c[nH+]n3c(=NC4CC4)nc(/C=C/c4ccccc4)nc23)[n-]1 (nonaromatic ring conformer: 397.4449210769039 kcal/mol)

> <smiles>
O=c1[nH]c(O)c(C=c2cnn3c(=NC4CC4)nc(C=Cc4ccccc4)nc23)[nH]1

> <score_type>
oracle

> <origin>
adg

> <m_score__min__energy>
-16.149999999999999

> <m_primary>
energy

> <minimizedAffinity>
-5.54207

> <minimizedRMSD>
1.45566

> <CNNscore>
0.1264162511

> <CNNaffinity>
5.5483317375

> <CNN_VS>
0.7013993263

> <CNNaffinity_variance>
0.0611157902

$$$$
54:0


 27 29  0  0  0  0  0  0  0  0999 V2000
   59.0135   29.0630   45.1074 C   0  0  0  0  0  0  0  0  0  0  0  0
   59.2121   30.3448   44.7553 N   0  0  0  0  0  0  0  0  0  0  0  0
   57.9659   30.8729   44.7530 C   0  0  0  0  0  0  0  0  0  0  0  0
   56.9929   29.9969   45.0905 N   0  0  0  0  0  0  0  0  0  0  0  0
   57.6710   28.8575   45.3005 C   0  0  0  0  0  0  0  0  0  0  0  0
   57.0741   27.6585   45.6657 O   0  0  0  0  0  0  0  0  0  0  0  0
   60.1048   28.0363   45.1988 C   0  0  0  0  0  0  0  0  0  0  0  0
   59.9107   26.0352   46.5068 O   0  0  0  0  0  0  0  0  0  0  0  0
   60.0876   27.2863   46.5109 C   0  0  0  0  0  0  0  0  0  0  0  0
   60.2880   27.9724   47.7696 N   0  0  0  0  0  0  0  0  0  0  0  0
   60.2136   27.1996   49.0185 C   0  0  0  0  0  0  0  0  0  0  0  0
   60.9388   27.9260   50.1527 C   0  0  0  0  0  0  0  0  0  0  0  0
   60.4994   29.2657   50.2493 O   0  0  0  0  0  0  0  0  0  0  0  0
   60.8963   29.9711   49.0924 C   0  0  0  0  0  0  0  0  0  0  0  0
   60.1769   29.4378   47.8502 C   0  0  0  0  0  0  0  0  0  0  0  0
   57.6954   32.3179   44.4682 C   0  0  0  0  0  0  0  0  0  0  0  0
   58.0601   33.1920   45.6695 C   0  0  0  0  0  0  0  0  0  0  0  0
   58.9246   32.4532   46.5944 N   0  0  0  0  0  0  0  0  0  0  0  0
   59.7154   32.0646   46.0805 H   0  0  0  0  0  0  0  0  0  0  0  0
   59.5120   33.5181   47.8361 S   0  0  0  0  0  0  0  0  0  0  0  0
   59.0733   34.9237   47.5358 O   0  0  0  0  0  0  0  0  0  0  0  0
   58.9340   33.1045   49.1596 O   0  0  0  0  0  0  0  0  0  0  0  0
   61.2626   33.4523   47.9322 C   0  0  0  0  0  0  0  0  0  0  0  0
   62.1314   33.2501   46.8717 C   0  0  0  0  0  0  0  0  0  0  0  0
   63.4744   33.2273   47.2625 C   0  0  0  0  0  0  0  0  0  0  0  0
   63.6595   33.4061   48.6280 C   0  0  0  0  0  0  0  0  0  0  0  0
   62.1513   33.5950   49.3499 S   0  0  0  0  0  0  0  0  0  0  0  0
  8  9  2  0
  9  7  1  0
  7  1  1  0
  1  2  1  0
  2  3  1  0
  3 16  1  0
 16 17  1  0
 17 18  1  0
 18 20  1  0
 20 21  2  0
 20 22  2  0
 20 23  1  0
 23 24  2  0
 24 25  1  0
 25 26  2  0
 26 27  1  0
  3  4  2  0
  4  5  1  0
  5  6  1  0
  9 10  1  0
 10 11  1  0
 11 12  1  0
 12 13  1  0
 13 14  1  0
 14 15  1  0
  5  1  2  0
 15 10  1  0
 27 23  1  0
 18 19  1  0
M  CHG 1   2  -1
M  CHG 1   6  -1
M  END
> <UniqueID>
51

> <SMILES>
O=C(Cc1[n-]c(CCNS(=O)(=O)c2cccs2)nc1[O-])N1CCOCC1

> <Energy>
95.76887791590775

> <Genealogy>
O=C(Cc1[n-]c(CCNS(=O)(=O)c2cccs2)nc1[O-])N1CCOCC1 (protonated)
O=C(Cc1[n-]c(CCNS(=O)(=O)c2cccs2)nc1[O-])N1CCOCC1 (3D coordinates assigned)
O=C(Cc1[n-]c(CCNS(=O)(=O)c2cccs2)nc1[O-])N1CCOCC1 (nonaromatic ring conformer: 95.76887791590775 kcal/mol)

> <smiles>
O=C(Cc1[nH]c(CCNS(=O)(=O)c2cccs2)nc1O)N1CCOCC1

> <score_type>
oracle

> <origin>
adg

> <m_score__min__energy>
-14.1

> <m_primary>
energy

> <minimizedAffinity>
-6.47821

> <minimizedRMSD>
1.33348

> <CNNscore>
0.6647564173

> <CNNaffinity>
6.3630461693

> <CNN_VS>
4.2298755646

> <CNNaffinity_variance>
0.0383391082

$$$$
64:0


 26 28  0  0  0  0  0  0  0  0999 V2000
   57.9141   31.4595   45.0933 C   0  0  0  0  0  0  0  0  0  0  0  0
   57.9596   32.6130   44.2910 C   0  0  0  0  0  0  0  0  0  0  0  0
   58.5763   33.7766   44.7589 C   0  0  0  0  0  0  0  0  0  0  0  0
   59.1519   33.8030   46.0309 C   0  0  0  0  0  0  0  0  0  0  0  0
   59.0992   32.6680   46.8498 C   0  0  0  0  0  0  0  0  0  0  0  0
   58.4713   31.5046   46.3842 C   0  0  0  0  0  0  0  0  0  0  0  0
   59.8613   32.6910   48.4403 S   0  0  0  0  0  0  0  0  0  0  0  0
   60.5002   34.0336   48.6541 O   0  0  0  0  0  0  0  0  0  0  0  0
   58.8204   32.4916   49.5076 O   0  0  0  0  0  0  0  0  0  0  0  0
   61.0853   31.4585   48.5649 N   0  0  0  0  0  0  0  0  0  0  0  0
   62.3863   31.9380   48.0928 C   0  0  0  0  0  0  0  0  0  0  0  0
   63.3567   32.0581   49.2247 C   0  0  0  0  0  0  0  0  0  0  0  0
   64.3367   33.0212   49.3484 C   0  0  0  0  0  0  0  0  0  0  0  0
   64.9646   32.7566   50.5451 C   0  0  0  0  0  0  0  0  0  0  0  0
   64.3273   31.6551   51.0787 C   0  0  0  0  0  0  0  0  0  0  0  0
   63.3722   31.2621   50.2670 O   0  0  0  0  0  0  0  0  0  0  0  0
   56.9571   30.1371   43.3645 O   0  0  0  0  0  0  0  0  0  0  0  0
   57.3045   30.2085   44.5729 C   0  0  0  0  0  0  0  0  0  0  0  0
   57.0233   29.0960   45.4362 N   0  0  0  0  0  0  0  0  0  0  0  0
   57.7990   28.0897   45.7412 C   0  0  0  0  0  0  0  0  0  0  0  0
   59.1403   28.3181   45.7838 N   0  0  0  0  0  0  0  0  0  0  0  0
   60.0410   27.3420   46.0740 C   0  0  0  0  0  0  0  0  0  0  0  0
   59.6033   26.0452   46.3383 C   0  0  0  0  0  0  0  0  0  0  0  0
   58.2374   25.7728   46.3251 C   0  0  0  0  0  0  0  0  0  0  0  0
   57.3187   26.7899   46.0469 C   0  0  0  0  0  0  0  0  0  0  0  0
   55.9635   26.4924   46.1160 O   0  0  0  0  0  0  0  0  0  0  0  0
 17 18  2  0
 18 19  1  0
 19 20  2  0
 20 21  1  0
 21 22  1  0
 22 23  2  0
 23 24  1  0
 24 25  2  0
 25 26  1  0
 18  1  1  0
  1  2  2  0
  2  3  1  0
  3  4  2  0
  4  5  1  0
  5  7  1  0
  7  8  2  0
  7  9  2  0
  7 10  1  0
 10 11  1  0
 11 12  1  0
 12 13  2  0
 13 14  1  0
 14 15  2  0
 15 16  1  0
  5  6  2  0
 25 20  1  0
  6  1  1  0
 16 12  1  0
M  CHG 1  10  -1
M  CHG 1  21  -1
M  CHG 1  26  -1
M  END
> <UniqueID>
61

> <SMILES>
O=C(N=c1[n-]cccc1[O-])c1cccc(S(=O)(=O)[N-]Cc2ccco2)c1

> <Energy>
75.81844996076678

> <Genealogy>
O=C(N=c1[n-]cccc1[O-])c1cccc(S(=O)(=O)[N-]Cc2ccco2)c1 (protonated)
O=C(N=c1[n-]cccc1[O-])c1cccc(S(=O)(=O)[N-]Cc2ccco2)c1 (3D coordinates assigned)
O=C(N=c1[n-]cccc1[O-])c1cccc(S(=O)(=O)[N-]Cc2ccco2)c1 (optimized conformer: 75.81844996076678 kcal/mol)

> <smiles>
O=C(N=c1[nH]cccc1O)c1cccc(S(=O)(=O)NCc2ccco2)c1

> <score_type>
oracle

> <origin>
adg

> <m_score__min__energy>
-15.23

> <m_primary>
energy

> <minimizedAffinity>
-7.82510

> <minimizedRMSD>
1.51179

> <CNNscore>
0.8291105032

> <CNNaffinity>
6.7588067055

> <CNN_VS>
5.6037974358

> <CNNaffinity_variance>
0.1949709654

$$$$
67:0


 26 28  0  0  0  0  0  0  0  0999 V2000
   55.6168   30.6349   53.6349 N   0  0  0  0  0  0  0  0  0  0  0  0
   56.6015   30.7460   52.7914 C   0  0  0  0  0  0  0  0  0  0  0  0
   57.0608   29.6883   52.0889 N   0  0  0  0  0  0  0  0  0  0  0  0
   58.0722   29.9951   51.2770 N   0  0  0  0  0  0  0  0  0  0  0  0
   58.4196   31.3006   51.3319 C   0  0  0  0  0  0  0  0  0  0  0  0
   57.4594   32.1557   52.4158 S   0  0  0  0  0  0  0  0  0  0  0  0
   54.5961   29.6236   53.6597 C   0  0  0  0  0  0  0  0  0  0  0  0
   54.2604   29.0533   54.7316 O   0  0  0  0  0  0  0  0  0  0  0  0
   53.8882   29.2737   52.3898 C   0  0  0  0  0  0  0  0  0  0  0  0
   52.4678   29.8755   49.7259 O   0  0  0  0  0  0  0  0  0  0  0  0
   52.1867   30.5304   50.9196 C   0  0  0  0  0  0  0  0  0  0  0  0
   51.2838   31.5246   51.0252 N   0  0  0  0  0  0  0  0  0  0  0  0
   51.3345   31.8854   52.3229 C   0  0  0  0  0  0  0  0  0  0  0  0
   50.5503   32.8979   52.8615 O   0  0  0  0  0  0  0  0  0  0  0  0
   52.2489   31.1419   53.0402 C   0  0  0  0  0  0  0  0  0  0  0  0
   52.7897   30.2570   52.1314 C   0  0  0  0  0  0  0  0  0  0  0  0
   52.0162   30.1172   48.9413 H   0  0  0  0  0  0  0  0  0  0  0  0
   59.7474   32.0122   50.3641 S   0  0  0  0  0  0  0  0  0  0  0  0
   59.1796   31.3023   48.7790 C   0  0  0  0  0  0  0  0  0  0  0  0
   59.1426   32.3504   47.7006 C   0  0  0  0  0  0  0  0  0  0  0  0
   59.6379   33.6434   47.9456 C   0  0  0  0  0  0  0  0  0  0  0  0
   59.6231   34.6070   46.9327 C   0  0  0  0  0  0  0  0  0  0  0  0
   59.1173   34.2871   45.6683 C   0  0  0  0  0  0  0  0  0  0  0  0
   59.1051   35.2231   44.6875 F   0  0  0  0  0  0  0  0  0  0  0  0
   58.6282   33.0019   45.4163 C   0  0  0  0  0  0  0  0  0  0  0  0
   58.6410   32.0362   46.4267 C   0  0  0  0  0  0  0  0  0  0  0  0
 10 11  1  0
 11 12  1  0
 12 13  1  0
 13 14  1  0
 13 15  2  0
 15 16  1  0
 16  9  1  0
  9  7  1  0
  7  8  2  0
  7  1  1  0
  1  2  2  0
  2  3  1  0
  3  4  1  0
  4  5  2  0
  5 18  1  0
 18 19  1  0
 19 20  1  0
 20 21  2  0
 21 22  1  0
 22 23  2  0
 23 24  1  0
 23 25  1  0
 25 26  2  0
  5  6  1  0
 16 11  2  0
  6  2  1  0
 26 20  1  0
 10 17  1  0
M  CHG 1   3  -1
M  CHG 1  12  -1
M  CHG 1  14  -1
M  END
> <UniqueID>
63

> <SMILES>
O=C(Cc1cc([O-])[n-]c1O)/N=c1/[n-]nc(SCc2ccc(F)cc2)s1

> <Energy>
93.67284256112491

> <Genealogy>
O=C(Cc1cc([O-])[n-]c1O)N=c1[n-]nc(SCc2ccc(F)cc2)s1 (protonated)
O=C(Cc1cc([O-])[n-]c1O)/N=c1/[n-]nc(SCc2ccc(F)cc2)s1 (cis-trans isomerization)
O=C(Cc1cc([O-])[n-]c1O)/N=c1/[n-]nc(SCc2ccc(F)cc2)s1 (3D coordinates assigned)
O=C(Cc1cc([O-])[n-]c1O)/N=c1/[n-]nc(SCc2ccc(F)cc2)s1 (optimized conformer: 93.67284256112491 kcal/mol)

> <smiles>
O=C(Cc1cc(O)[nH]c1O)N=c1[nH]nc(SCc2ccc(F)cc2)s1

> <score_type>
oracle

> <origin>
adg

> <m_score__min__energy>
-16.859999999999999

> <m_primary>
energy

> <minimizedAffinity>
-7.03913

> <minimizedRMSD>
0.74207

> <CNNscore>
0.6017950177

> <CNNaffinity>
5.8349785805

> <CNN_VS>
3.5114610195

> <CNNaffinity_variance>
0.0005409686

$$$$
74:0


 23 24  0  0  0  0  0  0  0  0999 V2000
   58.1366   28.5797   46.1010 C   0  0  0  0  0  0  0  0  0  0  0  0
   58.2740   27.1340   46.2492 N   0  0  0  0  0  0  0  0  0  0  0  0
   56.0146   26.6005   46.2109 O   0  0  0  0  0  0  0  0  0  0  0  0
   57.1838   26.2507   46.5217 C   0  0  0  0  0  0  0  0  0  0  0  0
   57.4150   24.9817   47.1390 N   0  0  0  0  0  0  0  0  0  0  0  0
   56.4907   23.8631   47.0265 C   0  0  0  0  0  0  0  0  0  0  0  0
   56.6050   23.2632   45.6561 C   0  0  0  0  0  0  0  0  0  0  0  0
   57.5792   22.2865   45.3912 C   0  0  0  0  0  0  0  0  0  0  0  0
   57.6556   21.6923   44.1274 C   0  0  0  0  0  0  0  0  0  0  0  0
   56.7572   22.0641   43.1232 C   0  0  0  0  0  0  0  0  0  0  0  0
   55.7766   23.0261   43.3830 C   0  0  0  0  0  0  0  0  0  0  0  0
   55.6949   23.6192   44.6467 C   0  0  0  0  0  0  0  0  0  0  0  0
   58.0907   28.9861   44.6248 C   0  0  0  0  0  0  0  0  0  0  0  0
   56.7461   30.1064   44.2445 S   0  0  0  0  0  0  0  0  0  0  0  0
   55.4476   29.4664   44.6531 O   0  0  0  0  0  0  0  0  0  0  0  0
   56.7066   30.3518   42.7625 O   0  0  0  0  0  0  0  0  0  0  0  0
   56.9282   31.6288   45.0630 N   0  0  0  0  0  0  0  0  0  0  0  0
   58.0210   32.4215   44.4971 C   0  0  0  0  0  0  0  0  0  0  0  0
   58.6753   33.2294   45.5714 C   0  0  0  0  0  0  0  0  0  0  0  0
   59.2988   34.4566   45.3975 C   0  0  0  0  0  0  0  0  0  0  0  0
   59.8333   34.9758   46.5808 C   0  0  0  0  0  0  0  0  0  0  0  0
   59.6262   34.1641   47.6888 C   0  0  0  0  0  0  0  0  0  0  0  0
   58.7781   32.7987   47.1942 S   0  0  0  0  0  0  0  0  0  0  0  0
  3  4  2  0
  4  2  1  0
  2  1  1  0
  1 13  1  0
 13 14  1  0
 14 15  2  0
 14 16  2  0
 14 17  1  0
 17 18  1  0
 18 19  1  0
 19 20  2  0
 20 21  1  0
 21 22  2  0
 22 23  1  0
  4  5  1  0
  5  6  1  0
  6  7  1  0
  7  8  2  0
  8  9  1  0
  9 10  2  0
 10 11  1  0
 11 12  2  0
 23 19  1  0
 12  7  1  0
M  CHG 1   2  -1
M  CHG 1   5  -1
M  CHG 1  17  -1
M  END
> <UniqueID>
69

> <SMILES>
O=C([N-]CCS(=O)(=O)[N-]Cc1cccs1)[N-]Cc1ccccc1

> <Energy>
49.26847119692268

> <Genealogy>
O=C([N-]CCS(=O)(=O)[N-]Cc1cccs1)[N-]Cc1ccccc1 (protonated)
O=C([N-]CCS(=O)(=O)[N-]Cc1cccs1)[N-]Cc1ccccc1 (3D coordinates assigned)
O=C([N-]CCS(=O)(=O)[N-]Cc1cccs1)[N-]Cc1ccccc1 (optimized conformer: 49.26847119692268 kcal/mol)

> <smiles>
O=C(NCCS(=O)(=O)NCc1cccs1)NCc1ccccc1

> <score_type>
oracle

> <origin>
adg

> <m_score__min__energy>
-14.06

> <m_primary>
energy

> <minimizedAffinity>
-6.35226

> <minimizedRMSD>
0.84468

> <CNNscore>
0.7885705233

> <CNNaffinity>
6.3265233040

> <CNN_VS>
4.9889097214

> <CNNaffinity_variance>
0.0829424188

$$$$
32:0


 28 30  0  0  0  0  0  0  0  0999 V2000
   57.9866   28.8052   45.8473 C   0  0  0  0  0  0  0  0  0  0  0  0
   58.3078   28.8226   44.4843 C   0  0  0  0  0  0  0  0  0  0  0  0
   58.3772   27.6313   43.7596 C   0  0  0  0  0  0  0  0  0  0  0  0
   58.1216   26.4104   44.3896 C   0  0  0  0  0  0  0  0  0  0  0  0
   57.8012   26.3702   45.7556 C   0  0  0  0  0  0  0  0  0  0  0  0
   57.7399   27.5736   46.4807 C   0  0  0  0  0  0  0  0  0  0  0  0
   57.5662   25.0784   46.4439 C   0  0  0  0  0  0  0  0  0  0  0  0
   57.6943   25.0162   47.6984 O   0  0  0  0  0  0  0  0  0  0  0  0
   57.1859   23.8520   45.7014 C   0  0  0  0  0  0  0  0  0  0  0  0
   55.8420   23.6021   45.3681 C   0  0  0  0  0  0  0  0  0  0  0  0
   54.8361   24.4739   45.7713 O   0  0  0  0  0  0  0  0  0  0  0  0
   55.5115   22.4949   44.6561 N   0  0  0  0  0  0  0  0  0  0  0  0
   56.4602   21.6158   44.2492 C   0  0  0  0  0  0  0  0  0  0  0  0
   56.1307   20.5976   43.5878 O   0  0  0  0  0  0  0  0  0  0  0  0
   57.7650   21.8343   44.5508 N   0  0  0  0  0  0  0  0  0  0  0  0
   58.1503   22.9273   45.2592 C   0  0  0  0  0  0  0  0  0  0  0  0
   59.3741   23.1080   45.4958 O   0  0  0  0  0  0  0  0  0  0  0  0
   57.9339   30.0505   46.5560 N   0  0  0  0  0  0  0  0  0  0  0  0
   58.4156   31.5870   45.9121 S   0  0  0  0  0  0  0  0  0  0  0  0
   58.5698   31.4733   44.4217 O   0  0  0  0  0  0  0  0  0  0  0  0
   57.3522   32.6065   46.2117 O   0  0  0  0  0  0  0  0  0  0  0  0
   63.8076   33.2365   48.1560 C   0  0  0  0  0  0  0  0  0  0  0  0
   62.4533   32.8349   47.6549 C   0  0  0  0  0  0  0  0  0  0  0  0
   61.6222   33.7780   47.0316 C   0  0  0  0  0  0  0  0  0  0  0  0
   60.3819   33.3943   46.5162 C   0  0  0  0  0  0  0  0  0  0  0  0
   59.9607   32.0619   46.6106 C   0  0  0  0  0  0  0  0  0  0  0  0
   60.7940   31.1141   47.2212 C   0  0  0  0  0  0  0  0  0  0  0  0
   62.0376   31.4955   47.7316 C   0  0  0  0  0  0  0  0  0  0  0  0
 22 23  1  0
 23 24  2  0
 24 25  1  0
 25 26  2  0
 26 19  1  0
 19 20  2  0
 19 21  2  0
 19 18  1  0
 18  1  1  0
  1  2  2  0
  2  3  1  0
  3  4  2  0
  4  5  1  0
  5  7  1  0
  7  8  2  0
  7  9  1  0
  9 10  2  0
 10 11  1  0
 10 12  1  0
 12 13  1  0
 13 14  2  0
 13 15  1  0
 15 16  1  0
 16 17  2  0
  5  6  2  0
 26 27  1  0
 27 28  2  0
 28 23  1  0
  6  1  1  0
 16  9  1  0
M  CHG 1  11  -1
M  CHG 1  12  -1
M  CHG 1  15  -1
M  CHG 1  18  -1
M  END
> <UniqueID>
31

> <SMILES>
Cc1ccc(S(=O)(=O)[N-]c2cccc(C(=O)c3c([O-])[n-]c(=O)[n-]c3=O)c2)cc1

> <Energy>
54.099893210408176

> <Genealogy>
Cc1ccc(S(=O)(=O)[N-]c2cccc(C(=O)c3c([O-])[n-]c(=O)[n-]c3=O)c2)cc1 (protonated)
Cc1ccc(S(=O)(=O)[N-]c2cccc(C(=O)c3c([O-])[n-]c(=O)[n-]c3=O)c2)cc1 (3D coordinates assigned)
Cc1ccc(S(=O)(=O)[N-]c2cccc(C(=O)c3c([O-])[n-]c(=O)[n-]c3=O)c2)cc1 (optimized conformer: 54.099893210408176 kcal/mol)

> <smiles>
Cc1ccc(S(=O)(=O)Nc2cccc(C(=O)c3c(O)[nH]c(=O)[nH]c3=O)c2)cc1

> <score_type>
oracle

> <origin>
adg

> <m_score__min__energy>
-17.68

> <m_primary>
energy

> <minimizedAffinity>
-8.56289

> <minimizedRMSD>
1.69050

> <CNNscore>
0.3245256841

> <CNNaffinity>
6.0469965935

> <CNN_VS>
1.9624056816

> <CNNaffinity_variance>
0.3609305620

$$$$
63:0


 31 33  0  0  0  0  0  0  0  0999 V2000
   58.2317   31.4814   45.9751 N   0  0  0  0  0  0  0  0  0  0  0  0
   59.0508   32.5476   46.4740 C   0  0  0  0  0  0  0  0  0  0  0  0
   58.5440   33.8469   46.6677 C   0  0  0  0  0  0  0  0  0  0  0  0
   59.3716   34.8540   47.1727 C   0  0  0  0  0  0  0  0  0  0  0  0
   60.7032   34.5735   47.4991 C   0  0  0  0  0  0  0  0  0  0  0  0
   61.2098   33.2779   47.3266 C   0  0  0  0  0  0  0  0  0  0  0  0
   60.3776   32.2680   46.8262 C   0  0  0  0  0  0  0  0  0  0  0  0
   62.8765   32.8955   47.7487 S   0  0  0  0  0  0  0  0  0  0  0  0
   63.1006   31.4278   47.5070 O   0  0  0  0  0  0  0  0  0  0  0  0
   63.8229   33.6823   46.8837 O   0  0  0  0  0  0  0  0  0  0  0  0
   63.1363   33.2755   49.4390 N   0  0  0  0  0  0  0  0  0  0  0  0
   61.8755   33.2509   50.2033 C   0  0  0  0  0  0  0  0  0  0  0  0
   61.3874   31.8106   50.4838 C   0  0  0  0  0  0  0  0  0  0  0  0
   62.3860   30.8235   50.3051 O   0  0  0  0  0  0  0  0  0  0  0  0
   63.6039   31.2601   50.8683 C   0  0  0  0  0  0  0  0  0  0  0  0
   64.1837   32.4221   50.0429 C   0  0  0  0  0  0  0  0  0  0  0  0
   56.3727   32.1710   44.7267 O   0  0  0  0  0  0  0  0  0  0  0  0
   57.4443   31.5084   44.7778 C   0  0  0  0  0  0  0  0  0  0  0  0
   57.9247   30.7791   43.5634 C   0  0  0  0  0  0  0  0  0  0  0  0
   57.4844   29.3891   43.5992 N   0  0  0  0  0  0  0  0  0  0  0  0
   56.9473   28.7542   44.7641 C   0  0  0  0  0  0  0  0  0  0  0  0
   55.7603   28.9993   45.1115 O   0  0  0  0  0  0  0  0  0  0  0  0
   57.7605   27.7854   45.5479 C   0  0  0  0  0  0  0  0  0  0  0  0
   59.1485   27.9917   45.6644 C   0  0  0  0  0  0  0  0  0  0  0  0
   59.9399   27.1225   46.4137 C   0  0  0  0  0  0  0  0  0  0  0  0
   59.3625   26.0264   47.0552 C   0  0  0  0  0  0  0  0  0  0  0  0
   57.9905   25.7892   46.9438 C   0  0  0  0  0  0  0  0  0  0  0  0
   57.4462   24.6753   47.5818 O   0  0  0  0  0  0  0  0  0  0  0  0
   57.1838   26.6628   46.1905 C   0  0  0  0  0  0  0  0  0  0  0  0
   55.8256   26.3951   46.0678 O   0  0  0  0  0  0  0  0  0  0  0  0
   57.9979   24.1042   48.0792 H   0  0  0  0  0  0  0  0  0  0  0  0
 17 18  2  0
 18 19  1  0
 19 20  1  0
 20 21  1  0
 21 22  2  0
 21 23  1  0
 23 24  2  0
 24 25  1  0
 25 26  2  0
 26 27  1  0
 27 28  1  0
 27 29  2  0
 29 30  1  0
 18  1  1  0
  1  2  1  0
  2  3  2  0
  3  4  1  0
  4  5  2  0
  5  6  1  0
  6  8  1  0
  8  9  2  0
  8 10  2  0
  8 11  1  0
 11 12  1  0
 12 13  1  0
 13 14  1  0
 14 15  1  0
 15 16  1  0
  6  7  2  0
 29 23  1  0
  7  2  1  0
 16 11  1  0
 28 31  1  0
M  CHG 1   1  -1
M  CHG 1  20  -1
M  CHG 1  30  -1
M  END
> <UniqueID>
61

> <SMILES>
O=C(C[N-]C(=O)c1cccc(O)c1[O-])[N-]c1cccc(S(=O)(=O)N2CCOCC2)c1

> <Energy>
64.4367429937829

> <Genealogy>
O=C(C[N-]C(=O)c1cccc(O)c1[O-])[N-]c1cccc(S(=O)(=O)N2CCOCC2)c1 (protonated)
O=C(C[N-]C(=O)c1cccc(O)c1[O-])[N-]c1cccc(S(=O)(=O)N2CCOCC2)c1 (3D coordinates assigned)
O=C(C[N-]C(=O)c1cccc(O)c1[O-])[N-]c1cccc(S(=O)(=O)N2CCOCC2)c1 (nonaromatic ring conformer: 64.4367429937829 kcal/mol)

> <smiles>
O=C(CNC(=O)c1cccc(O)c1O)Nc1cccc(S(=O)(=O)N2CCOCC2)c1

> <score_type>
oracle

> <origin>
adg

> <m_score__min__energy>
-15.890000000000001

> <m_primary>
energy

> <minimizedAffinity>
-6.15116

> <minimizedRMSD>
0.96844

> <CNNscore>
0.7452754378

> <CNNaffinity>
6.4673600197

> <CNN_VS>
4.8199644089

> <CNNaffinity_variance>
0.3008871377

$$$$
85:0


 26 28  0  0  0  0  0  0  0  0999 V2000
   58.0033   26.3764   46.3499 C   0  0  0  0  0  0  0  0  0  0  0  0
   56.7379   26.8624   45.9897 C   0  0  0  0  0  0  0  0  0  0  0  0
   55.6148   26.0436   46.0204 O   0  0  0  0  0  0  0  0  0  0  0  0
   56.6025   28.1437   45.5730 N   0  0  0  0  0  0  0  0  0  0  0  0
   57.6661   28.9786   45.4756 C   0  0  0  0  0  0  0  0  0  0  0  0
   57.4723   30.1611   45.0842 O   0  0  0  0  0  0  0  0  0  0  0  0
   58.9267   28.5373   45.7927 N   0  0  0  0  0  0  0  0  0  0  0  0
   59.1027   27.2439   46.2189 C   0  0  0  0  0  0  0  0  0  0  0  0
   60.2581   26.8244   46.5119 O   0  0  0  0  0  0  0  0  0  0  0  0
   57.1944   24.1430   47.0584 C   0  0  0  0  0  0  0  0  0  0  0  0
   58.2118   24.9787   46.8049 C   0  0  0  0  0  0  0  0  0  0  0  0
   56.9169   22.9219   46.2606 C   0  0  0  0  0  0  0  0  0  0  0  0
   56.8269   22.9592   44.8533 C   0  0  0  0  0  0  0  0  0  0  0  0
   56.5809   21.7907   44.1270 C   0  0  0  0  0  0  0  0  0  0  0  0
   56.4935   21.8400   42.7402 O   0  0  0  0  0  0  0  0  0  0  0  0
   56.4285   20.5722   44.7914 C   0  0  0  0  0  0  0  0  0  0  0  0
   56.5313   20.5178   46.1810 C   0  0  0  0  0  0  0  0  0  0  0  0
   56.7770   21.6812   46.9182 C   0  0  0  0  0  0  0  0  0  0  0  0
   56.8706   21.5976   48.3028 O   0  0  0  0  0  0  0  0  0  0  0  0
   60.0910   29.4338   45.6392 C   0  0  0  0  0  0  0  0  0  0  0  0
   60.2222   30.3359   46.8398 C   0  0  0  0  0  0  0  0  0  0  0  0
   60.5849   29.8035   48.0887 C   0  0  0  0  0  0  0  0  0  0  0  0
   60.6773   30.6339   49.2104 C   0  0  0  0  0  0  0  0  0  0  0  0
   60.4041   31.9999   49.0955 C   0  0  0  0  0  0  0  0  0  0  0  0
   60.0386   32.5369   47.8582 C   0  0  0  0  0  0  0  0  0  0  0  0
   59.9450   31.7096   46.7348 C   0  0  0  0  0  0  0  0  0  0  0  0
 10 11  2  0
 11  1  1  0
  1  2  2  0
  2  3  1  0
  2  4  1  0
  4  5  1  0
  5  6  2  0
  5  7  1  0
  7 20  1  0
 20 21  1  0
 21 22  2  0
 22 23  1  0
 23 24  2  0
 24 25  1  0
 25 26  2  0
  7  8  1  0
  8  9  2  0
 10 12  1  0
 12 13  2  0
 13 14  1  0
 14 15  1  0
 14 16  2  0
 16 17  1  0
 17 18  2  0
 18 19  1  0
  8  1  1  0
 18 12  1  0
 26 21  1  0
M  CHG 1   3  -1
M  CHG 1   4  -1
M  CHG 1  15  -1
M  CHG 1  19  -1
M  END
> <UniqueID>
80

> <SMILES>
O=c1[n-]c([O-])c(/C=C/c2cc([O-])ccc2[O-])c(=O)n1Cc1ccccc1

> <Energy>
54.39711833026982

> <Genealogy>
O=c1[n-]c([O-])c(C=Cc2cc([O-])ccc2[O-])c(=O)n1Cc1ccccc1 (protonated)
O=c1[n-]c([O-])c(/C=C/c2cc([O-])ccc2[O-])c(=O)n1Cc1ccccc1 (cis-trans isomerization)
O=c1[n-]c([O-])c(/C=C/c2cc([O-])ccc2[O-])c(=O)n1Cc1ccccc1 (3D coordinates assigned)
O=c1[n-]c([O-])c(/C=C/c2cc([O-])ccc2[O-])c(=O)n1Cc1ccccc1 (optimized conformer: 54.39711833026982 kcal/mol)

> <smiles>
O=c1[nH]c(O)c(C=Cc2cc(O)ccc2O)c(=O)n1Cc1ccccc1

> <score_type>
oracle

> <origin>
adg

> <m_score__min__energy>
-17.960000000000001

> <m_primary>
energy

> <minimizedAffinity>
-7.05896

> <minimizedRMSD>
2.00458

> <CNNscore>
0.1853825897

> <CNNaffinity>
6.1326866150

> <CNN_VS>
1.1368932724

> <CNNaffinity_variance>
0.4886842966

$$$$
10:0


 27 29  0  0  0  0  0  0  0  0999 V2000
   58.4136   33.3518   45.0773 N   0  0  0  0  0  0  0  0  0  0  0  0
   58.0576   32.1083   44.9396 C   0  0  0  0  0  0  0  0  0  0  0  0
   56.7702   31.7443   44.7533 N   0  0  0  0  0  0  0  0  0  0  0  0
   56.6565   30.4009   44.5720 C   0  0  0  0  0  0  0  0  0  0  0  0
   55.4263   29.7999   44.3403 O   0  0  0  0  0  0  0  0  0  0  0  0
   57.8526   29.6877   44.6300 C   0  0  0  0  0  0  0  0  0  0  0  0
   59.0996   30.7812   44.9014 S   0  0  0  0  0  0  0  0  0  0  0  0
   58.3347   34.1142   46.3232 C   0  0  0  0  0  0  0  0  0  0  0  0
   61.7450   33.1863   48.8054 C   0  0  0  0  0  0  0  0  0  0  0  0
   61.9055   33.3714   47.4257 C   0  0  0  0  0  0  0  0  0  0  0  0
   60.8063   33.6981   46.6268 C   0  0  0  0  0  0  0  0  0  0  0  0
   59.5306   33.8332   47.1988 C   0  0  0  0  0  0  0  0  0  0  0  0
   59.3767   33.6669   48.5845 C   0  0  0  0  0  0  0  0  0  0  0  0
   60.4773   33.3376   49.3814 C   0  0  0  0  0  0  0  0  0  0  0  0
   64.5759   32.8784   48.8633 N   0  0  0  0  0  0  0  0  0  0  0  0
   63.1272   32.7237   49.7930 S   0  0  0  0  0  0  0  0  0  0  0  0
   62.9808   31.3031   50.2559 O   0  0  0  0  0  0  0  0  0  0  0  0
   63.2045   33.6194   50.9964 O   0  0  0  0  0  0  0  0  0  0  0  0
   65.3770   32.6105   49.4350 H   0  0  0  0  0  0  0  0  0  0  0  0
   58.0423   28.2329   44.3343 C   0  0  0  0  0  0  0  0  0  0  0  0
   58.5710   27.5267   45.5575 C   0  0  0  0  0  0  0  0  0  0  0  0
   59.9275   27.6635   45.9068 C   0  0  0  0  0  0  0  0  0  0  0  0
   60.4493   26.9715   47.0028 C   0  0  0  0  0  0  0  0  0  0  0  0
   59.6258   26.1341   47.7587 C   0  0  0  0  0  0  0  0  0  0  0  0
   58.2792   25.9831   47.4171 C   0  0  0  0  0  0  0  0  0  0  0  0
   57.7498   26.6696   46.3178 C   0  0  0  0  0  0  0  0  0  0  0  0
   56.4101   26.4914   45.9892 O   0  0  0  0  0  0  0  0  0  0  0  0
 15 16  1  0
 16 17  2  0
 16 18  2  0
 16  9  1  0
  9 10  2  0
 10 11  1  0
 11 12  2  0
 12  8  1  0
  8  1  1  0
  1  2  2  0
  2  3  1  0
  3  4  1  0
  4  5  1  0
  4  6  2  0
  6 20  1  0
 20 21  1  0
 21 22  2  0
 22 23  1  0
 23 24  2  0
 24 25  1  0
 25 26  2  0
 26 27  1  0
  6  7  1  0
 12 13  1  0
 13 14  2  0
 14  9  1  0
  7  2  1  0
 26 21  1  0
 15 19  1  0
M  CHG 1   3  -1
M  CHG 1   5  -1
M  CHG 1  15  -1
M  CHG 1  27  -1
M  END
> <UniqueID>
11

> <SMILES>
[NH-]S(=O)(=O)c1ccc(C/N=c2/[n-]c([O-])c(Cc3ccccc3[O-])s2)cc1

> <Energy>
69.57699344700173

> <Genealogy>
[NH-]S(=O)(=O)c1ccc(CN=c2[n-]c([O-])c(Cc3ccccc3[O-])s2)cc1 (protonated)
[NH-]S(=O)(=O)c1ccc(C/N=c2/[n-]c([O-])c(Cc3ccccc3[O-])s2)cc1 (cis-trans isomerization)
[NH-]S(=O)(=O)c1ccc(C/N=c2/[n-]c([O-])c(Cc3ccccc3[O-])s2)cc1 (3D coordinates assigned)
[NH-]S(=O)(=O)c1ccc(C/N=c2/[n-]c([O-])c(Cc3ccccc3[O-])s2)cc1 (optimized conformer: 69.57699344700173 kcal/mol)

> <smiles>
NS(=O)(=O)c1ccc(CN=c2[nH]c(O)c(Cc3ccccc3O)s2)cc1

> <score_type>
oracle

> <origin>
adg

> <m_score__min__energy>
-17.260000000000002

> <m_primary>
energy

> <minimizedAffinity>
-7.22980

> <minimizedRMSD>
1.27334

> <CNNscore>
0.5315182805

> <CNNaffinity>
6.3892941475

> <CNN_VS>
3.3960266113

> <CNNaffinity_variance>
0.0219407026

$$$$
30:0


 34 37  0  0  0  0  0  0  0  0999 V2000
   57.1093   30.5633   44.0321 S   0  0  0  0  0  0  0  0  0  0  0  0
   55.9082   30.9513   44.8525 O   0  0  0  0  0  0  0  0  0  0  0  0
   56.6426   30.1295   42.6690 O   0  0  0  0  0  0  0  0  0  0  0  0
   60.1353   26.0109   46.7056 C   0  0  0  0  0  0  0  0  0  0  0  0
   59.3579   27.1071   46.0242 C   0  0  0  0  0  0  0  0  0  0  0  0
   60.0501   28.2276   45.5359 C   0  0  0  0  0  0  0  0  0  0  0  0
   59.3618   29.2776   44.9224 C   0  0  0  0  0  0  0  0  0  0  0  0
   57.9706   29.2264   44.7902 C   0  0  0  0  0  0  0  0  0  0  0  0
   57.2767   28.0961   45.2343 C   0  0  0  0  0  0  0  0  0  0  0  0
   57.9546   27.0272   45.8394 C   0  0  0  0  0  0  0  0  0  0  0  0
   57.1641   25.8593   46.2948 C   0  0  0  0  0  0  0  0  0  0  0  0
   55.9241   26.0037   46.4903 O   0  0  0  0  0  0  0  0  0  0  0  0
   57.7550   24.5699   46.5325 N   0  0  0  0  0  0  0  0  0  0  0  0
   57.6738   23.5270   45.7584 C   0  0  0  0  0  0  0  0  0  0  0  0
   58.7388   22.8795   45.2343 N   0  0  0  0  0  0  0  0  0  0  0  0
   58.3516   21.8352   44.4539 C   0  0  0  0  0  0  0  0  0  0  0  0
   56.9758   21.6565   44.3455 C   0  0  0  0  0  0  0  0  0  0  0  0
   56.2195   22.8474   45.2656 S   0  0  0  0  0  0  0  0  0  0  0  0
   58.1336   31.9488   43.8620 N   0  0  0  0  0  0  0  0  0  0  0  0
   58.5181   32.7444   44.9841 C   0  0  0  0  0  0  0  0  0  0  0  0
   58.5459   34.1406   44.8663 C   0  0  0  0  0  0  0  0  0  0  0  0
   58.9578   34.9272   45.9446 C   0  0  0  0  0  0  0  0  0  0  0  0
   59.3576   34.3216   47.1400 C   0  0  0  0  0  0  0  0  0  0  0  0
   59.3321   32.9227   47.2682 C   0  0  0  0  0  0  0  0  0  0  0  0
   58.9187   32.1374   46.1820 C   0  0  0  0  0  0  0  0  0  0  0  0
   59.8437   32.1536   48.7726 S   0  0  0  0  0  0  0  0  0  0  0  0
   58.6635   32.0885   49.7033 O   0  0  0  0  0  0  0  0  0  0  0  0
   60.2743   30.7438   48.4803 O   0  0  0  0  0  0  0  0  0  0  0  0
   61.1450   33.0183   49.5732 N   0  0  0  0  0  0  0  0  0  0  0  0
   61.0169   33.0055   51.0444 C   0  0  0  0  0  0  0  0  0  0  0  0
   61.5039   31.6808   51.6760 C   0  0  0  0  0  0  0  0  0  0  0  0
   62.2093   30.8544   50.7714 O   0  0  0  0  0  0  0  0  0  0  0  0
   63.1675   31.6166   50.0766 C   0  0  0  0  0  0  0  0  0  0  0  0
   62.4829   32.5945   49.1059 C   0  0  0  0  0  0  0  0  0  0  0  0
  4  5  1  0
  5  6  2  0
  6  7  1  0
  7  8  2  0
  8  1  1  0
  1  2  2  0
  1  3  2  0
  1 19  1  0
 19 20  1  0
 20 21  2  0
 21 22  1  0
 22 23  2  0
 23 24  1  0
 24 26  1  0
 26 27  2  0
 26 28  2  0
 26 29  1  0
 29 30  1  0
 30 31  1  0
 31 32  1  0
 32 33  1  0
 33 34  1  0
 24 25  2  0
  8  9  1  0
  9 10  2  0
 10 11  1  0
 11 12  2  0
 11 13  1  0
 13 14  2  0
 14 15  1  0
 15 16  1  0
 16 17  2  0
 17 18  1  0
 10  5  1  0
 18 14  1  0
 25 20  1  0
 34 29  1  0
M  CHG 1  15  -1
M  CHG 1  19  -1
M  END
> <UniqueID>
30

> <SMILES>
Cc1ccc(S(=O)(=O)[N-]c2cccc(S(=O)(=O)N3CCOCC3)c2)cc1C(=O)N=c1[n-]ccs1

> <Energy>
113.0508956673694

> <Genealogy>
Cc1ccc(S(=O)(=O)[N-]c2cccc(S(=O)(=O)N3CCOCC3)c2)cc1C(=O)N=c1[n-]ccs1 (protonated)
Cc1ccc(S(=O)(=O)[N-]c2cccc(S(=O)(=O)N3CCOCC3)c2)cc1C(=O)N=c1[n-]ccs1 (3D coordinates assigned)
Cc1ccc(S(=O)(=O)[N-]c2cccc(S(=O)(=O)N3CCOCC3)c2)cc1C(=O)N=c1[n-]ccs1 (nonaromatic ring conformer: 113.0508956673694 kcal/mol)

> <smiles>
Cc1ccc(S(=O)(=O)Nc2cccc(S(=O)(=O)N3CCOCC3)c2)cc1C(=O)N=c1[nH]ccs1

> <score_type>
oracle

> <origin>
adg

> <m_score__min__energy>
-14.25

> <m_primary>
energy

> <minimizedAffinity>
-8.64312

> <minimizedRMSD>
1.46351

> <CNNscore>
0.6806711555

> <CNNaffinity>
7.4934062958

> <CNN_VS>
5.1005454063

> <CNNaffinity_variance>
0.1026402488

$$$$
40:0


 28 30  0  0  0  0  0  0  0  0999 V2000
   58.2050   27.1488   44.0664 S   0  0  0  0  0  0  0  0  0  0  0  0
   60.2078   29.4126   45.3421 C   0  0  0  0  0  0  0  0  0  0  0  0
   58.7811   29.6609   45.1448 N   0  0  0  0  0  0  0  0  0  0  0  0
   57.8674   28.8236   44.6190 C   0  0  0  0  0  0  0  0  0  0  0  0
   56.6534   29.3999   44.5424 N   0  0  0  0  0  0  0  0  0  0  0  0
   56.7758   30.6234   45.0365 N   0  0  0  0  0  0  0  0  0  0  0  0
   58.0616   30.7722   45.4152 C   0  0  0  0  0  0  0  0  0  0  0  0
   58.5867   32.0149   46.0115 C   0  0  0  0  0  0  0  0  0  0  0  0
   59.0433   31.9982   47.3383 C   0  0  0  0  0  0  0  0  0  0  0  0
   59.5481   33.1618   47.9274 C   0  0  0  0  0  0  0  0  0  0  0  0
   59.6129   34.3461   47.1912 C   0  0  0  0  0  0  0  0  0  0  0  0
   59.1831   34.3677   45.8617 C   0  0  0  0  0  0  0  0  0  0  0  0
   58.6817   33.2054   45.2648 C   0  0  0  0  0  0  0  0  0  0  0  0
   58.3086   33.2375   43.9254 O   0  0  0  0  0  0  0  0  0  0  0  0
   59.0392   26.6513   45.6122 C   0  0  0  0  0  0  0  0  0  0  0  0
   58.0453   26.4928   46.7284 C   0  0  0  0  0  0  0  0  0  0  0  0
   57.9021   27.3920   47.5419 O   0  0  0  0  0  0  0  0  0  0  0  0
   57.2034   25.2544   46.8389 C   0  0  0  0  0  0  0  0  0  0  0  0
   55.8842   25.5125   46.2787 N   0  0  0  0  0  0  0  0  0  0  0  0
   55.0801   24.4907   45.6792 C   0  0  0  0  0  0  0  0  0  0  0  0
   53.8242   24.5722   45.7494 O   0  0  0  0  0  0  0  0  0  0  0  0
   55.7262   23.3460   44.9827 C   0  0  0  0  0  0  0  0  0  0  0  0
   56.0441   23.4529   43.6129 C   0  0  0  0  0  0  0  0  0  0  0  0
   56.6520   22.3915   42.9371 C   0  0  0  0  0  0  0  0  0  0  0  0
   56.9522   21.2097   43.6131 C   0  0  0  0  0  0  0  0  0  0  0  0
   56.6463   21.0864   44.9687 C   0  0  0  0  0  0  0  0  0  0  0  0
   56.0371   22.1402   45.6573 C   0  0  0  0  0  0  0  0  0  0  0  0
   55.7495   21.9751   47.0082 O   0  0  0  0  0  0  0  0  0  0  0  0
  2  3  1  0
  3  4  1  0
  4  1  1  0
  1 15  1  0
 15 16  1  0
 16 17  2  0
 16 18  1  0
 18 19  1  0
 19 20  1  0
 20 21  2  0
 20 22  1  0
 22 23  2  0
 23 24  1  0
 24 25  2  0
 25 26  1  0
 26 27  2  0
 27 28  1  0
  4  5  2  0
  5  6  1  0
  6  7  2  0
  7  8  1  0
  8  9  2  0
  9 10  1  0
 10 11  2  0
 11 12  1  0
 12 13  2  0
 13 14  1  0
  7  3  1  0
 13  8  1  0
 27 22  1  0
M  CHG 1  14  -1
M  CHG 1  19  -1
M  CHG 1  28  -1
M  END
> <UniqueID>
39

> <SMILES>
Cn1c(SCC(=O)C[N-]C(=O)c2ccccc2[O-])nnc1-c1ccccc1[O-]

> <Energy>
80.44956517035949

> <Genealogy>
Cn1c(SCC(=O)C[N-]C(=O)c2ccccc2[O-])nnc1-c1ccccc1[O-] (protonated)
Cn1c(SCC(=O)C[N-]C(=O)c2ccccc2[O-])nnc1-c1ccccc1[O-] (3D coordinates assigned)
Cn1c(SCC(=O)C[N-]C(=O)c2ccccc2[O-])nnc1-c1ccccc1[O-] (optimized conformer: 80.44956517035949 kcal/mol)

> <smiles>
Cn1c(SCC(=O)CNC(=O)c2ccccc2O)nnc1-c1ccccc1O

> <score_type>
oracle

> <origin>
adg

> <m_score__min__energy>
-15.44

> <m_primary>
energy

> <minimizedAffinity>
-7.69449

> <minimizedRMSD>
0.82111

> <CNNscore>
0.7793735266

> <CNNaffinity>
6.9144883156

> <CNN_VS>
5.3889689445

> <CNNaffinity_variance>
0.0371564776

$$$$
45:0


 27 29  0  0  0  0  0  0  0  0999 V2000
   57.5477   29.6122   44.7982 O   0  0  0  0  0  0  0  0  0  0  0  0
   57.5939   28.4861   45.3637 C   0  0  0  0  0  0  0  0  0  0  0  0
   56.4528   27.7636   45.4713 N   0  0  0  0  0  0  0  0  0  0  0  0
   56.4329   26.5483   46.0679 C   0  0  0  0  0  0  0  0  0  0  0  0
   55.2337   25.8501   46.1400 O   0  0  0  0  0  0  0  0  0  0  0  0
   57.6109   26.0145   46.6038 C   0  0  0  0  0  0  0  0  0  0  0  0
   58.7902   26.7769   46.4945 C   0  0  0  0  0  0  0  0  0  0  0  0
   59.8619   26.3306   46.9899 O   0  0  0  0  0  0  0  0  0  0  0  0
   58.7756   27.9983   45.8632 N   0  0  0  0  0  0  0  0  0  0  0  0
   57.6165   24.6353   47.2295 C   0  0  0  0  0  0  0  0  0  0  0  0
   57.3603   23.5739   46.1856 C   0  0  0  0  0  0  0  0  0  0  0  0
   57.5459   23.8810   44.8262 C   0  0  0  0  0  0  0  0  0  0  0  0
   57.2904   22.9245   43.8404 C   0  0  0  0  0  0  0  0  0  0  0  0
   56.8481   21.6485   44.1966 C   0  0  0  0  0  0  0  0  0  0  0  0
   56.5960   20.7054   43.2023 O   0  0  0  0  0  0  0  0  0  0  0  0
   56.6631   21.3298   45.5487 C   0  0  0  0  0  0  0  0  0  0  0  0
   56.9177   22.2826   46.5409 C   0  0  0  0  0  0  0  0  0  0  0  0
   56.7318   21.9321   47.8742 O   0  0  0  0  0  0  0  0  0  0  0  0
   56.7230   20.9292   42.3013 H   0  0  0  0  0  0  0  0  0  0  0  0
   60.0212   28.7762   45.6923 C   0  0  0  0  0  0  0  0  0  0  0  0
   60.0796   29.9150   46.6839 C   0  0  0  0  0  0  0  0  0  0  0  0
   59.7736   31.2244   46.2720 C   0  0  0  0  0  0  0  0  0  0  0  0
   59.8512   32.2873   47.1762 C   0  0  0  0  0  0  0  0  0  0  0  0
   60.2375   32.0556   48.4986 C   0  0  0  0  0  0  0  0  0  0  0  0
   60.5415   30.7591   48.9188 C   0  0  0  0  0  0  0  0  0  0  0  0
   60.4654   29.6906   48.0202 C   0  0  0  0  0  0  0  0  0  0  0  0
   60.7569   28.4410   48.4594 F   0  0  0  0  0  0  0  0  0  0  0  0
  1  2  2  0
  2  3  1  0
  3  4  1  0
  4  5  1  0
  4  6  2  0
  6 10  1  0
 10 11  1  0
 11 12  2  0
 12 13  1  0
 13 14  2  0
 14 15  1  0
 14 16  1  0
 16 17  2  0
 17 18  1  0
  6  7  1  0
  7  8  2  0
  7  9  1  0
  9 20  1  0
 20 21  1  0
 21 22  2  0
 22 23  1  0
 23 24  2  0
 24 25  1  0
 25 26  2  0
 26 27  1  0
  9  2  1  0
 26 21  1  0
 17 11  1  0
 15 19  1  0
M  CHG 1   3  -1
M  CHG 1   5  -1
M  CHG 1  18  -1
M  END
> <UniqueID>
44

> <SMILES>
O=c1[n-]c([O-])c(Cc2ccc(O)cc2[O-])c(=O)n1Cc1ccccc1F

> <Energy>
47.09932485164325

> <Genealogy>
O=c1[n-]c([O-])c(Cc2ccc(O)cc2[O-])c(=O)n1Cc1ccccc1F (protonated)
O=c1[n-]c([O-])c(Cc2ccc(O)cc2[O-])c(=O)n1Cc1ccccc1F (3D coordinates assigned)
O=c1[n-]c([O-])c(Cc2ccc(O)cc2[O-])c(=O)n1Cc1ccccc1F (optimized conformer: 47.09932485164325 kcal/mol)

> <smiles>
O=c1[nH]c(O)c(Cc2ccc(O)cc2O)c(=O)n1Cc1ccccc1F

> <score_type>
oracle

> <origin>
adg

> <m_score__min__energy>
-15.460000000000001

> <m_primary>
energy

> <minimizedAffinity>
-7.24367

> <minimizedRMSD>
2.13088

> <CNNscore>
0.4119280577

> <CNNaffinity>
6.3278884888

> <CNN_VS>
2.6066348553

> <CNNaffinity_variance>
0.3637082875

$$$$
64:0


 25 27  0  0  0  0  0  0  0  0999 V2000
   58.3081   29.1312   44.4629 C   0  0  0  0  0  0  0  0  0  0  0  0
   58.5051   30.5412   44.8521 N   0  0  0  0  0  0  0  0  0  0  0  0
   58.0250   31.5490   44.0497 C   0  0  0  0  0  0  0  0  0  0  0  0
   57.4312   31.2845   42.9700 O   0  0  0  0  0  0  0  0  0  0  0  0
   58.1785   32.8475   44.4109 N   0  0  0  0  0  0  0  0  0  0  0  0
   58.7931   33.1947   45.5661 C   0  0  0  0  0  0  0  0  0  0  0  0
   58.9351   34.5453   45.9065 C   0  0  0  0  0  0  0  0  0  0  0  0
   59.5644   34.9038   47.1013 C   0  0  0  0  0  0  0  0  0  0  0  0
   60.0521   33.9152   47.9608 C   0  0  0  0  0  0  0  0  0  0  0  0
   59.9145   32.5639   47.6283 C   0  0  0  0  0  0  0  0  0  0  0  0
   59.2832   32.1942   46.4256 C   0  0  0  0  0  0  0  0  0  0  0  0
   59.1195   30.8507   46.0421 C   0  0  0  0  0  0  0  0  0  0  0  0
   59.5358   29.9307   46.8009 O   0  0  0  0  0  0  0  0  0  0  0  0
   55.9843   29.2397   45.0093 O   0  0  0  0  0  0  0  0  0  0  0  0
   57.0635   28.5942   45.0956 C   0  0  0  0  0  0  0  0  0  0  0  0
   57.1181   27.3732   45.8372 N   0  0  0  0  0  0  0  0  0  0  0  0
   58.3706   26.7231   46.1945 C   0  0  0  0  0  0  0  0  0  0  0  0
   58.0910   25.5634   47.1488 C   0  0  0  0  0  0  0  0  0  0  0  0
   57.5425   24.3793   46.3989 C   0  0  0  0  0  0  0  0  0  0  0  0
   58.3230   23.7343   45.4243 C   0  0  0  0  0  0  0  0  0  0  0  0
   57.8254   22.6149   44.7498 C   0  0  0  0  0  0  0  0  0  0  0  0
   56.5491   22.1272   45.0493 C   0  0  0  0  0  0  0  0  0  0  0  0
   56.0545   21.0148   44.3778 O   0  0  0  0  0  0  0  0  0  0  0  0
   55.7719   22.7568   46.0261 C   0  0  0  0  0  0  0  0  0  0  0  0
   56.2670   23.8757   46.7033 C   0  0  0  0  0  0  0  0  0  0  0  0
 14 15  2  0
 15  1  1  0
  1  2  1  0
  2  3  1  0
  3  4  2  0
  3  5  1  0
  5  6  1  0
  6  7  2  0
  7  8  1  0
  8  9  2  0
  9 10  1  0
 10 11  2  0
 11 12  1  0
 12 13  2  0
 15 16  1  0
 16 17  1  0
 17 18  1  0
 18 19  1  0
 19 20  2  0
 20 21  1  0
 21 22  2  0
 22 23  1  0
 22 24  1  0
 24 25  2  0
 12  2  1  0
 25 19  1  0
 11  6  1  0
M  CHG 1   5  -1
M  CHG 1  16  -1
M  CHG 1  23  -1
M  END
> <UniqueID>
63

> <SMILES>
O=C(Cn1c(=O)[n-]c2ccccc2c1=O)[N-]CCc1ccc([O-])cc1

> <Energy>
43.27840125111814

> <Genealogy>
O=C(Cn1c(=O)[n-]c2ccccc2c1=O)[N-]CCc1ccc([O-])cc1 (protonated)
O=C(Cn1c(=O)[n-]c2ccccc2c1=O)[N-]CCc1ccc([O-])cc1 (3D coordinates assigned)
O=C(Cn1c(=O)[n-]c2ccccc2c1=O)[N-]CCc1ccc([O-])cc1 (optimized conformer: 43.27840125111814 kcal/mol)

> <smiles>
O=C(Cn1c(=O)[nH]c2ccccc2c1=O)NCCc1ccc(O)cc1

> <score_type>
oracle

> <origin>
adg

> <m_score__min__energy>
-14.210000000000001

> <m_primary>
energy

> <minimizedAffinity>
-7.24170

> <minimizedRMSD>
1.33534

> <CNNscore>
0.6252242327

> <CNNaffinity>
6.4457817078

> <CNN_VS>
4.0300588608

> <CNNaffinity_variance>
0.1266799122

$$$$
74:0


 29 31  0  0  0  0  0  0  0  0999 V2000
   59.0306   30.9005   49.4231 C   0  0  0  0  0  0  0  0  0  0  0  0
   59.5451   30.1891   48.5195 O   0  0  0  0  0  0  0  0  0  0  0  0
   58.8810   32.3142   49.2311 N   0  0  0  0  0  0  0  0  0  0  0  0
   58.6423   32.8653   50.0112 H   0  0  0  0  0  0  0  0  0  0  0  0
   59.0593   32.9724   47.9668 C   0  0  0  0  0  0  0  0  0  0  0  0
   57.9439   33.1117   47.1271 C   0  0  0  0  0  0  0  0  0  0  0  0
   58.0618   33.7291   45.8797 C   0  0  0  0  0  0  0  0  0  0  0  0
   59.2999   34.2019   45.4502 C   0  0  0  0  0  0  0  0  0  0  0  0
   60.4257   34.0527   46.2623 C   0  0  0  0  0  0  0  0  0  0  0  0
   60.3266   33.4339   47.5209 C   0  0  0  0  0  0  0  0  0  0  0  0
   61.5255   33.2374   48.2980 N   0  0  0  0  0  0  0  0  0  0  0  0
   61.7713   34.1193   49.4520 C   0  0  0  0  0  0  0  0  0  0  0  0
   63.0871   33.7869   50.1690 C   0  0  0  0  0  0  0  0  0  0  0  0
   64.0525   33.3282   49.2496 O   0  0  0  0  0  0  0  0  0  0  0  0
   63.6731   32.0442   48.8051 C   0  0  0  0  0  0  0  0  0  0  0  0
   62.3984   32.1023   47.9468 C   0  0  0  0  0  0  0  0  0  0  0  0
   58.5931   30.2619   50.7066 C   0  0  0  0  0  0  0  0  0  0  0  0
   57.7259   31.1758   51.4402 N   0  0  0  0  0  0  0  0  0  0  0  0
   56.9165   30.9477   53.6219 O   0  0  0  0  0  0  0  0  0  0  0  0
   56.7462   30.7406   52.3891 C   0  0  0  0  0  0  0  0  0  0  0  0
   55.5449   30.1098   51.9423 N   0  0  0  0  0  0  0  0  0  0  0  0
   54.5905   29.4812   52.8565 C   0  0  0  0  0  0  0  0  0  0  0  0
   53.2897   30.2498   52.8596 C   0  0  0  0  0  0  0  0  0  0  0  0
   52.8554   30.9272   51.7085 C   0  0  0  0  0  0  0  0  0  0  0  0
   51.6961   31.7016   51.7462 C   0  0  0  0  0  0  0  0  0  0  0  0
   50.9555   31.8043   52.9282 C   0  0  0  0  0  0  0  0  0  0  0  0
   49.8004   32.5704   52.9619 O   0  0  0  0  0  0  0  0  0  0  0  0
   51.3769   31.1252   54.0762 C   0  0  0  0  0  0  0  0  0  0  0  0
   52.5383   30.3485   54.0419 C   0  0  0  0  0  0  0  0  0  0  0  0
 19 20  2  0
 20 18  1  0
 18 17  1  0
 17  1  1  0
  1  2  2  0
  1  3  1  0
  3  5  1  0
  5  6  2  0
  6  7  1  0
  7  8  2  0
  8  9  1  0
  9 10  2  0
 10 11  1  0
 11 12  1  0
 12 13  1  0
 13 14  1  0
 14 15  1  0
 15 16  1  0
 20 21  1  0
 21 22  1  0
 22 23  1  0
 23 24  2  0
 24 25  1  0
 25 26  2  0
 26 27  1  0
 26 28  1  0
 28 29  2  0
 10  5  1  0
 16 11  1  0
 29 23  1  0
  3  4  1  0
M  CHG 1  18  -1
M  CHG 1  21  -1
M  CHG 1  27  -1
M  END
> <UniqueID>
73

> <SMILES>
O=C([N-]CC(=O)Nc1ccccc1N1CCOCC1)[N-]Cc1ccc([O-])cc1

> <Energy>
57.974444272972605

> <Genealogy>
O=C([N-]CC(=O)Nc1ccccc1N1CCOCC1)[N-]Cc1ccc([O-])cc1 (protonated)
O=C([N-]CC(=O)Nc1ccccc1N1CCOCC1)[N-]Cc1ccc([O-])cc1 (3D coordinates assigned)
O=C([N-]CC(=O)Nc1ccccc1N1CCOCC1)[N-]Cc1ccc([O-])cc1 (nonaromatic ring conformer: 57.974444272972605 kcal/mol)

> <smiles>
O=C(CNC(=O)NCc1ccc(O)cc1)Nc1ccccc1N1CCOCC1

> <score_type>
oracle

> <origin>
adg

> <m_score__min__energy>
-14.380000000000001

> <m_primary>
energy

> <minimizedAffinity>
-7.27213

> <minimizedRMSD>
0.96222

> <CNNscore>
0.2796679437

> <CNNaffinity>
5.3011589050

> <CNN_VS>
1.4825642109

> <CNNaffinity_variance>
0.2466731220

$$$$
86:0


 36 39  0  0  0  0  0  0  0  0999 V2000
   57.0662   30.4155   43.9738 C   0  0  0  0  0  0  0  0  0  0  0  0
   56.9249   30.5909   42.7364 O   0  0  0  0  0  0  0  0  0  0  0  0
   57.4172   29.0713   44.4819 C   0  0  0  0  0  0  0  0  0  0  0  0
   57.5896   28.8414   45.8571 C   0  0  0  0  0  0  0  0  0  0  0  0
   57.9523   27.5744   46.3215 C   0  0  0  0  0  0  0  0  0  0  0  0
   58.1559   26.5199   45.4179 C   0  0  0  0  0  0  0  0  0  0  0  0
   57.9475   26.7402   44.0476 C   0  0  0  0  0  0  0  0  0  0  0  0
   57.5806   28.0054   43.5827 C   0  0  0  0  0  0  0  0  0  0  0  0
   58.5330   25.1543   45.9139 C   0  0  0  0  0  0  0  0  0  0  0  0
   57.7735   24.8566   47.1233 N   0  0  0  0  0  0  0  0  0  0  0  0
   56.1837   24.3038   46.6993 S   0  0  0  0  0  0  0  0  0  0  0  0
   55.3428   25.4628   46.2317 O   0  0  0  0  0  0  0  0  0  0  0  0
   55.5391   23.6844   47.9087 O   0  0  0  0  0  0  0  0  0  0  0  0
   56.3164   23.1076   45.4352 N   0  0  0  0  0  0  0  0  0  0  0  0
   57.7240   22.7122   45.2662 C   0  0  0  0  0  0  0  0  0  0  0  0
   57.8531   21.6715   44.1339 C   0  0  0  0  0  0  0  0  0  0  0  0
   56.6379   21.4920   43.4288 O   0  0  0  0  0  0  0  0  0  0  0  0
   56.1536   22.7435   42.9837 C   0  0  0  0  0  0  0  0  0  0  0  0
   55.7856   23.6519   44.1739 C   0  0  0  0  0  0  0  0  0  0  0  0
   56.8714   31.5355   44.8501 N   0  0  0  0  0  0  0  0  0  0  0  0
   60.8936   34.9128   47.2195 C   0  0  0  0  0  0  0  0  0  0  0  0
   59.8442   34.0148   46.6201 C   0  0  0  0  0  0  0  0  0  0  0  0
   59.3580   34.3036   45.3326 C   0  0  0  0  0  0  0  0  0  0  0  0
   58.3823   33.5006   44.7438 C   0  0  0  0  0  0  0  0  0  0  0  0
   57.8939   32.3718   45.4151 C   0  0  0  0  0  0  0  0  0  0  0  0
   58.3602   32.0860   46.7020 C   0  0  0  0  0  0  0  0  0  0  0  0
   59.3420   32.8848   47.3126 C   0  0  0  0  0  0  0  0  0  0  0  0
   59.8712   32.4824   48.9570 S   0  0  0  0  0  0  0  0  0  0  0  0
   60.3995   33.7179   49.6350 O   0  0  0  0  0  0  0  0  0  0  0  0
   58.6814   31.9682   49.7222 O   0  0  0  0  0  0  0  0  0  0  0  0
   61.1240   31.2555   48.8987 N   0  0  0  0  0  0  0  0  0  0  0  0
   61.8499   31.2751   47.6078 C   0  0  0  0  0  0  0  0  0  0  0  0
   63.2041   32.0043   47.7000 C   0  0  0  0  0  0  0  0  0  0  0  0
   63.1280   33.0706   48.6188 O   0  0  0  0  0  0  0  0  0  0  0  0
   62.9708   32.5828   49.9426 C   0  0  0  0  0  0  0  0  0  0  0  0
   62.0391   31.3519   50.0485 C   0  0  0  0  0  0  0  0  0  0  0  0
 21 22  1  0
 22 23  2  0
 23 24  1  0
 24 25  2  0
 25 20  1  0
 20  1  1  0
  1  2  2  0
  1  3  1  0
  3  4  2  0
  4  5  1  0
  5  6  2  0
  6  9  1  0
  9 10  1  0
 10 11  1  0
 11 12  2  0
 11 13  2  0
 11 14  1  0
 14 15  1  0
 15 16  1  0
 16 17  1  0
 17 18  1  0
 18 19  1  0
  6  7  1  0
  7  8  2  0
 25 26  1  0
 26 27  2  0
 27 28  1  0
 28 29  2  0
 28 30  2  0
 28 31  1  0
 31 32  1  0
 32 33  1  0
 33 34  1  0
 34 35  1  0
 35 36  1  0
 27 22  1  0
 36 31  1  0
  8  3  1  0
 19 14  1  0
M  CHG 1  10  -1
M  CHG 1  20  -1
M  END
> <UniqueID>
85

> <SMILES>
Cc1ccc([N-]C(=O)c2ccc(C[N-]S(=O)(=O)N3CCOCC3)cc2)cc1S(=O)(=O)N1CCOCC1

> <Energy>
89.33325027473427

> <Genealogy>
Cc1ccc([N-]C(=O)c2ccc(C[N-]S(=O)(=O)N3CCOCC3)cc2)cc1S(=O)(=O)N1CCOCC1 (protonated)
Cc1ccc([N-]C(=O)c2ccc(C[N-]S(=O)(=O)N3CCOCC3)cc2)cc1S(=O)(=O)N1CCOCC1 (3D coordinates assigned)
Cc1ccc([N-]C(=O)c2ccc(C[N-]S(=O)(=O)N3CCOCC3)cc2)cc1S(=O)(=O)N1CCOCC1 (nonaromatic ring conformer: 89.33325027473427 kcal/mol)

> <smiles>
Cc1ccc(NC(=O)c2ccc(CNS(=O)(=O)N3CCOCC3)cc2)cc1S(=O)(=O)N1CCOCC1

> <score_type>
oracle

> <origin>
adg

> <m_score__min__energy>
-14.27

> <m_primary>
energy

> <minimizedAffinity>
-7.80849

> <minimizedRMSD>
0.59809

> <CNNscore>
0.3773389757

> <CNNaffinity>
6.9382915497

> <CNN_VS>
2.6180877686

> <CNNaffinity_variance>
0.0288477894

$$$$
11:0


 27 29  0  0  0  0  0  0  0  0999 V2000
   53.8029   29.8466   53.1987 N   0  0  0  0  0  0  0  0  0  0  0  0
   55.0060   30.0997   52.7748 C   0  0  0  0  0  0  0  0  0  0  0  0
   55.3029   31.2194   52.0834 N   0  0  0  0  0  0  0  0  0  0  0  0
   56.5955   31.3244   51.7848 N   0  0  0  0  0  0  0  0  0  0  0  0
   57.3410   30.2974   52.2538 C   0  0  0  0  0  0  0  0  0  0  0  0
   56.3884   29.1711   53.0701 S   0  0  0  0  0  0  0  0  0  0  0  0
   52.6067   30.5322   52.8048 C   0  0  0  0  0  0  0  0  0  0  0  0
   51.9564   31.1654   53.6777 O   0  0  0  0  0  0  0  0  0  0  0  0
   51.7409   30.0091   49.3092 C   0  0  0  0  0  0  0  0  0  0  0  0
   51.2762   31.2761   49.5829 C   0  0  0  0  0  0  0  0  0  0  0  0
   50.6234   32.0906   48.6681 O   0  0  0  0  0  0  0  0  0  0  0  0
   51.5229   31.6427   50.8542 N   0  0  0  0  0  0  0  0  0  0  0  0
   52.1655   30.5888   51.3979 C   0  0  0  0  0  0  0  0  0  0  0  0
   52.3090   29.5626   50.4801 C   0  0  0  0  0  0  0  0  0  0  0  0
   58.7978   30.1346   51.9664 C   0  0  0  0  0  0  0  0  0  0  0  0
   59.0378   30.3553   50.5060 C   0  0  0  0  0  0  0  0  0  0  0  0
   58.7907   29.4300   49.6858 O   0  0  0  0  0  0  0  0  0  0  0  0
   59.6191   31.5850   50.0544 N   0  0  0  0  0  0  0  0  0  0  0  0
   59.4034   32.4214   50.5267 H   0  0  0  0  0  0  0  0  0  0  0  0
   60.5241   31.6247   48.9095 C   0  0  0  0  0  0  0  0  0  0  0  0
   59.8637   32.3629   47.7775 C   0  0  0  0  0  0  0  0  0  0  0  0
   58.8843   31.7286   46.9965 C   0  0  0  0  0  0  0  0  0  0  0  0
   58.2157   32.4369   45.9930 C   0  0  0  0  0  0  0  0  0  0  0  0
   58.5069   33.7850   45.7749 C   0  0  0  0  0  0  0  0  0  0  0  0
   59.4712   34.4275   46.5564 C   0  0  0  0  0  0  0  0  0  0  0  0
   59.7450   35.7395   46.3513 F   0  0  0  0  0  0  0  0  0  0  0  0
   60.1474   33.7200   47.5555 C   0  0  0  0  0  0  0  0  0  0  0  0
  9 10  2  0
 10 11  1  0
 10 12  1  0
 12 13  1  0
 13  7  1  0
  7  8  2  0
  7  1  1  0
  1  2  2  0
  2  3  1  0
  3  4  1  0
  4  5  2  0
  5 15  1  0
 15 16  1  0
 16 17  2  0
 16 18  1  0
 18 20  1  0
 20 21  1  0
 21 22  2  0
 22 23  1  0
 23 24  2  0
 24 25  1  0
 25 26  1  0
 25 27  2  0
  5  6  1  0
 13 14  2  0
 14  9  1  0
  6  2  1  0
 27 21  1  0
 18 19  1  0
M  CHG 1   3  -1
M  CHG 1  11  -1
M  CHG 1  12  -1
M  END
> <UniqueID>
12

> <SMILES>
O=C(Cc1n[n-]/c(=N/C(=O)c2ccc([O-])[n-]2)s1)NCc1cccc(F)c1

> <Energy>
97.20163296903301

> <Genealogy>
O=C(Cc1n[n-]c(=NC(=O)c2ccc([O-])[n-]2)s1)NCc1cccc(F)c1 (protonated)
O=C(Cc1n[n-]/c(=N/C(=O)c2ccc([O-])[n-]2)s1)NCc1cccc(F)c1 (cis-trans isomerization)
O=C(Cc1n[n-]/c(=N/C(=O)c2ccc([O-])[n-]2)s1)NCc1cccc(F)c1 (3D coordinates assigned)
O=C(Cc1n[n-]/c(=N/C(=O)c2ccc([O-])[n-]2)s1)NCc1cccc(F)c1 (optimized conformer: 97.20163296903301 kcal/mol)

> <smiles>
O=C(Cc1n[nH]c(=NC(=O)c2ccc(O)[nH]2)s1)NCc1cccc(F)c1

> <score_type>
oracle

> <origin>
adg

> <m_score__min__energy>
-15.57

> <m_primary>
energy

> <minimizedAffinity>
-4.70045

> <minimizedRMSD>
0.98259

> <CNNscore>
0.5051534176

> <CNNaffinity>
5.9163508415

> <CNN_VS>
2.9886648655

> <CNNaffinity_variance>
0.0599516518

$$$$
14:0


 30 32  0  0  0  0  0  0  0  0999 V2000
   58.2293   29.0625   45.5765 C   0  0  0  0  0  0  0  0  0  0  0  0
   57.2771   28.7759   44.5831 C   0  0  0  0  0  0  0  0  0  0  0  0
   56.7312   29.7886   43.8016 C   0  0  0  0  0  0  0  0  0  0  0  0
   57.1165   31.1091   43.9994 C   0  0  0  0  0  0  0  0  0  0  0  0
   58.0712   31.4374   44.9787 C   0  0  0  0  0  0  0  0  0  0  0  0
   58.6607   30.4029   45.7562 C   0  0  0  0  0  0  0  0  0  0  0  0
   58.7828   27.9412   46.3977 C   0  0  0  0  0  0  0  0  0  0  0  0
   60.0247   27.8560   46.6067 O   0  0  0  0  0  0  0  0  0  0  0  0
   58.4798   23.6760   45.4438 C   0  0  0  0  0  0  0  0  0  0  0  0
   58.6656   24.8707   46.0649 N   0  0  0  0  0  0  0  0  0  0  0  0
   57.6473   25.7488   46.2919 C   0  0  0  0  0  0  0  0  0  0  0  0
   57.9421   26.8802   46.8762 N   0  0  0  0  0  0  0  0  0  0  0  0
   56.3340   25.3847   45.8956 C   0  0  0  0  0  0  0  0  0  0  0  0
   55.2265   26.1819   46.1628 O   0  0  0  0  0  0  0  0  0  0  0  0
   56.1331   24.1636   45.2426 C   0  0  0  0  0  0  0  0  0  0  0  0
   57.2073   23.3047   45.0112 C   0  0  0  0  0  0  0  0  0  0  0  0
   58.4314   32.7752   45.2066 O   0  0  0  0  0  0  0  0  0  0  0  0
   57.5243   33.8736   45.2386 C   0  0  0  0  0  0  0  0  0  0  0  0
   59.6635   30.6509   46.7161 O   0  0  0  0  0  0  0  0  0  0  0  0
   59.4732   30.9506   48.0968 C   0  0  0  0  0  0  0  0  0  0  0  0
   58.9187   32.3277   48.2791 C   0  0  0  0  0  0  0  0  0  0  0  0
   57.6900   32.4824   48.5159 O   0  0  0  0  0  0  0  0  0  0  0  0
   59.8136   33.4452   48.3016 N   0  0  0  0  0  0  0  0  0  0  0  0
   61.2408   33.3712   48.4043 C   0  0  0  0  0  0  0  0  0  0  0  0
   61.9963   33.3680   47.2231 C   0  0  0  0  0  0  0  0  0  0  0  0
   63.3904   33.2903   47.2731 C   0  0  0  0  0  0  0  0  0  0  0  0
   64.0429   33.2254   48.5083 C   0  0  0  0  0  0  0  0  0  0  0  0
   63.3043   33.2710   49.6934 C   0  0  0  0  0  0  0  0  0  0  0  0
   61.9074   33.3650   49.6485 C   0  0  0  0  0  0  0  0  0  0  0  0
   61.2000   33.4947   50.8397 O   0  0  0  0  0  0  0  0  0  0  0  0
  9 10  1  0
 10 11  1  0
 11 12  2  0
 12  7  1  0
  7  8  2  0
  7  1  1  0
  1  2  2  0
  2  3  1  0
  3  4  2  0
  4  5  1  0
  5 17  1  0
 17 18  1  0
  5  6  2  0
  6 19  1  0
 19 20  1  0
 20 21  1  0
 21 22  2  0
 21 23  1  0
 23 24  1  0
 24 25  2  0
 25 26  1  0
 26 27  2  0
 27 28  1  0
 28 29  2  0
 29 30  1  0
 11 13  1  0
 13 14  1  0
 13 15  2  0
 15 16  1  0
 16  9  2  0
  6  1  1  0
 29 24  1  0
M  CHG 1  10  -1
M  CHG 1  14  -1
M  CHG 1  23  -1
M  CHG 1  30  -1
M  END
> <UniqueID>
15

> <SMILES>
COc1cccc(C(=O)/N=c2/[n-]cccc2[O-])c1OCC(=O)[N-]c1ccccc1[O-]

> <Energy>
72.36083223974983

> <Genealogy>
COc1cccc(C(=O)N=c2[n-]cccc2[O-])c1OCC(=O)[N-]c1ccccc1[O-] (protonated)
COc1cccc(C(=O)/N=c2/[n-]cccc2[O-])c1OCC(=O)[N-]c1ccccc1[O-] (cis-trans isomerization)
COc1cccc(C(=O)/N=c2/[n-]cccc2[O-])c1OCC(=O)[N-]c1ccccc1[O-] (3D coordinates assigned)
COc1cccc(C(=O)/N=c2/[n-]cccc2[O-])c1OCC(=O)[N-]c1ccccc1[O-] (optimized conformer: 72.36083223974983 kcal/mol)

> <smiles>
COc1cccc(C(=O)N=c2[nH]cccc2O)c1OCC(=O)Nc1ccccc1O

> <score_type>
oracle

> <origin>
adg

> <m_score__min__energy>
-16.32

> <m_primary>
energy

> <minimizedAffinity>
-7.61298

> <minimizedRMSD>
0.75580

> <CNNscore>
0.5538793206

> <CNNaffinity>
6.6407642365

> <CNN_VS>
3.6781818867

> <CNNaffinity_variance>
0.1920096129

$$$$
18:0


 31 33  0  0  0  0  0  0  0  0999 V2000
   58.2292   31.9127   51.9511 N   0  0  0  0  0  0  0  0  0  0  0  0
   58.8912   33.1102   51.9609 C   0  0  0  0  0  0  0  0  0  0  0  0
   59.8966   33.3765   51.0325 C   0  0  0  0  0  0  0  0  0  0  0  0
   60.2211   32.4239   50.0672 C   0  0  0  0  0  0  0  0  0  0  0  0
   59.5680   31.1756   50.0860 C   0  0  0  0  0  0  0  0  0  0  0  0
   59.9269   30.1407   49.2192 O   0  0  0  0  0  0  0  0  0  0  0  0
   58.5490   30.9523   51.0239 C   0  0  0  0  0  0  0  0  0  0  0  0
   57.9339   29.8501   51.0077 O   0  0  0  0  0  0  0  0  0  0  0  0
   60.6055   30.2733   48.5868 H   0  0  0  0  0  0  0  0  0  0  0  0
   57.1311   31.7056   52.9118 C   0  0  0  0  0  0  0  0  0  0  0  0
   58.8179   31.0939   54.4889 O   0  0  0  0  0  0  0  0  0  0  0  0
   57.6148   30.9752   54.1307 C   0  0  0  0  0  0  0  0  0  0  0  0
   56.7226   30.1335   54.8672 N   0  0  0  0  0  0  0  0  0  0  0  0
   55.9373   29.0698   54.2571 C   0  0  0  0  0  0  0  0  0  0  0  0
   54.4792   29.1754   54.7046 C   0  0  0  0  0  0  0  0  0  0  0  0
   53.6435   29.8928   53.6737 C   0  0  0  0  0  0  0  0  0  0  0  0
   52.4074   30.4594   54.0297 C   0  0  0  0  0  0  0  0  0  0  0  0
   51.6180   31.0897   53.0629 C   0  0  0  0  0  0  0  0  0  0  0  0
   52.0484   31.1482   51.7342 C   0  0  0  0  0  0  0  0  0  0  0  0
   51.2600   31.7708   50.7761 O   0  0  0  0  0  0  0  0  0  0  0  0
   53.2715   30.5765   51.3720 C   0  0  0  0  0  0  0  0  0  0  0  0
   54.0651   29.9474   52.3348 C   0  0  0  0  0  0  0  0  0  0  0  0
   61.2173   32.7520   49.0919 N   0  0  0  0  0  0  0  0  0  0  0  0
   61.2235   32.2656   47.7436 C   0  0  0  0  0  0  0  0  0  0  0  0
   62.1039   31.4424   47.3723 O   0  0  0  0  0  0  0  0  0  0  0  0
   60.1777   32.7095   46.8071 C   0  0  0  0  0  0  0  0  0  0  0  0
   60.1864   34.0054   46.2636 C   0  0  0  0  0  0  0  0  0  0  0  0
   59.1755   34.3858   45.3786 C   0  0  0  0  0  0  0  0  0  0  0  0
   58.1682   33.4794   45.0419 C   0  0  0  0  0  0  0  0  0  0  0  0
   58.1885   32.1994   45.5992 C   0  0  0  0  0  0  0  0  0  0  0  0
   59.1818   31.8464   46.4597 N   0  0  0  0  0  0  0  0  0  0  0  0
 11 12  2  0
 12 10  1  0
 10  1  1  0
  1  2  1  0
  2  3  2  0
  3  4  1  0
  4 23  1  0
 23 24  1  0
 24 25  2  0
 24 26  1  0
 26 27  2  0
 27 28  1  0
 28 29  2  0
 29 30  1  0
 30 31  2  0
  4  5  2  0
  5  6  1  0
  5  7  1  0
  7  8  2  0
 12 13  1  0
 13 14  1  0
 14 15  1  0
 15 16  1  0
 16 17  2  0
 17 18  1  0
 18 19  2  0
 19 20  1  0
 19 21  1  0
 21 22  2  0
  7  1  1  0
 22 16  1  0
 31 26  1  0
  6  9  1  0
M  CHG 1  13  -1
M  CHG 1  20  -1
M  CHG 1  23  -1
M  END
> <UniqueID>
19

> <SMILES>
O=C(Cn1ccc([N-]C(=O)c2ccccn2)c(O)c1=O)[N-]CCc1ccc([O-])cc1

> <Energy>
50.56573863443283

> <Genealogy>
O=C(Cn1ccc([N-]C(=O)c2ccccn2)c(O)c1=O)[N-]CCc1ccc([O-])cc1 (protonated)
O=C(Cn1ccc([N-]C(=O)c2ccccn2)c(O)c1=O)[N-]CCc1ccc([O-])cc1 (3D coordinates assigned)
O=C(Cn1ccc([N-]C(=O)c2ccccn2)c(O)c1=O)[N-]CCc1ccc([O-])cc1 (optimized conformer: 50.56573863443283 kcal/mol)

> <smiles>
O=C(Cn1ccc(NC(=O)c2ccccn2)c(O)c1=O)NCCc1ccc(O)cc1

> <score_type>
oracle

> <origin>
adg

> <m_score__min__energy>
-14.4

> <m_primary>
energy

> <minimizedAffinity>
-6.91682

> <minimizedRMSD>
1.23932

> <CNNscore>
0.3966022730

> <CNNaffinity>
5.7719893456

> <CNN_VS>
2.2891840935

> <CNNaffinity_variance>
0.2430318147

$$$$
44:0


 27 29  0  0  0  0  0  0  0  0999 V2000
   58.0765   28.8998   44.8956 C   0  0  0  0  0  0  0  0  0  0  0  0
   59.4343   29.2363   44.9417 C   0  0  0  0  0  0  0  0  0  0  0  0
   60.3700   28.3067   45.3999 C   0  0  0  0  0  0  0  0  0  0  0  0
   59.9571   27.0379   45.8150 C   0  0  0  0  0  0  0  0  0  0  0  0
   58.5957   26.6839   45.7746 C   0  0  0  0  0  0  0  0  0  0  0  0
   57.6617   27.6238   45.3029 C   0  0  0  0  0  0  0  0  0  0  0  0
   56.8940   30.0722   44.3212 S   0  0  0  0  0  0  0  0  0  0  0  0
   56.7489   29.9819   42.8270 O   0  0  0  0  0  0  0  0  0  0  0  0
   55.5672   29.7841   44.9633 O   0  0  0  0  0  0  0  0  0  0  0  0
   59.7783   33.3879   46.7456 C   0  0  0  0  0  0  0  0  0  0  0  0
   58.9303   33.1023   45.7255 N   0  0  0  0  0  0  0  0  0  0  0  0
   58.1911   31.9590   45.7225 C   0  0  0  0  0  0  0  0  0  0  0  0
   57.3899   31.6830   44.7407 N   0  0  0  0  0  0  0  0  0  0  0  0
   58.3002   31.0857   46.7600 N   0  0  0  0  0  0  0  0  0  0  0  0
   59.1346   31.3335   47.8061 C   0  0  0  0  0  0  0  0  0  0  0  0
   59.2403   30.3469   48.9249 C   0  0  0  0  0  0  0  0  0  0  0  0
   59.9018   32.5024   47.8149 C   0  0  0  0  0  0  0  0  0  0  0  0
   58.1557   25.3402   46.2129 C   0  0  0  0  0  0  0  0  0  0  0  0
   58.9290   24.3513   46.0896 O   0  0  0  0  0  0  0  0  0  0  0  0
   56.8988   25.1770   46.8790 N   0  0  0  0  0  0  0  0  0  0  0  0
   55.9068   24.3892   46.5644 C   0  0  0  0  0  0  0  0  0  0  0  0
   54.9649   24.7833   45.6810 N   0  0  0  0  0  0  0  0  0  0  0  0
   54.1412   23.7232   45.6060 C   0  0  0  0  0  0  0  0  0  0  0  0
   53.0086   23.6808   44.8046 O   0  0  0  0  0  0  0  0  0  0  0  0
   54.5798   22.7060   46.4151 C   0  0  0  0  0  0  0  0  0  0  0  0
   55.7117   23.1173   47.0163 N   0  0  0  0  0  0  0  0  0  0  0  0
   56.5470   22.2655   47.8633 C   0  0  0  0  0  0  0  0  0  0  0  0
 10 11  1  0
 11 12  1  0
 12 13  2  0
 13  7  1  0
  7  8  2  0
  7  9  2  0
  7  1  1  0
  1  2  2  0
  2  3  1  0
  3  4  2  0
  4  5  1  0
  5 18  1  0
 18 19  2  0
 18 20  1  0
 20 21  2  0
 21 22  1  0
 22 23  1  0
 23 24  1  0
 23 25  2  0
 25 26  1  0
 26 27  1  0
  5  6  2  0
 12 14  1  0
 14 15  2  0
 15 16  1  0
 15 17  1  0
 17 10  2  0
  6  1  1  0
 26 21  1  0
M  CHG 1  11  -1
M  CHG 1  22  -1
M  CHG 1  24  -1
M  END
> <UniqueID>
44

> <SMILES>
Cc1cc[n-]/c(=N\S(=O)(=O)c2cccc(C(=O)N=c3[n-]c([O-])cn3C)c2)n1

> <Energy>
87.71342500590953

> <Genealogy>
Cc1cc[n-]c(=NS(=O)(=O)c2cccc(C(=O)N=c3[n-]c([O-])cn3C)c2)n1 (protonated)
Cc1cc[n-]/c(=N\S(=O)(=O)c2cccc(C(=O)N=c3[n-]c([O-])cn3C)c2)n1 (cis-trans isomerization)
Cc1cc[n-]/c(=N\S(=O)(=O)c2cccc(C(=O)N=c3[n-]c([O-])cn3C)c2)n1 (3D coordinates assigned)
Cc1cc[n-]/c(=N\S(=O)(=O)c2cccc(C(=O)N=c3[n-]c([O-])cn3C)c2)n1 (optimized conformer: 87.71342500590953 kcal/mol)

> <smiles>
Cc1cc[nH]c(=NS(=O)(=O)c2cccc(C(=O)N=c3[nH]c(O)cn3C)c2)n1

> <score_type>
oracle

> <origin>
adg

> <m_score__min__energy>
-15.52

> <m_primary>
energy

> <minimizedAffinity>
-8.38192

> <minimizedRMSD>
1.97371

> <CNNscore>
0.4158394039

> <CNNaffinity>
6.7039189339

> <CNN_VS>
2.7877535820

> <CNNaffinity_variance>
0.4874673188

$$$$
48:0


 31 34  0  0  0  0  0  0  0  0999 V2000
   59.3949   29.8249   46.2382 C   0  0  0  0  0  0  0  0  0  0  0  0
   59.7074   31.1080   46.5958 N   0  0  0  0  0  0  0  0  0  0  0  0
   58.8844   32.1221   46.2432 C   0  0  0  0  0  0  0  0  0  0  0  0
   59.0610   33.4204   46.5155 N   0  0  0  0  0  0  0  0  0  0  0  0
   57.9608   33.9802   45.9443 C   0  0  0  0  0  0  0  0  0  0  0  0
   57.1250   33.0938   45.3403 N   0  0  0  0  0  0  0  0  0  0  0  0
   57.7435   31.9224   45.5521 C   0  0  0  0  0  0  0  0  0  0  0  0
   57.3557   30.6504   45.1497 C   0  0  0  0  0  0  0  0  0  0  0  0
   56.2975   30.4914   44.4820 O   0  0  0  0  0  0  0  0  0  0  0  0
   58.1983   29.5587   45.4918 C   0  0  0  0  0  0  0  0  0  0  0  0
   60.0593   27.0629   48.5614 C   0  0  0  0  0  0  0  0  0  0  0  0
   60.4023   28.4183   48.1203 N   0  0  0  0  0  0  0  0  0  0  0  0
   60.2836   28.7427   46.7171 C   0  0  0  0  0  0  0  0  0  0  0  0
   60.9174   28.0611   45.8653 O   0  0  0  0  0  0  0  0  0  0  0  0
   60.9828   29.3601   49.0882 C   0  0  0  0  0  0  0  0  0  0  0  0
   60.0835   29.5161   50.2842 C   0  0  0  0  0  0  0  0  0  0  0  0
   58.8698   30.2129   50.1878 C   0  0  0  0  0  0  0  0  0  0  0  0
   58.0687   30.3546   51.3230 C   0  0  0  0  0  0  0  0  0  0  0  0
   58.4825   29.8063   52.5382 C   0  0  0  0  0  0  0  0  0  0  0  0
   59.6969   29.1226   52.5992 C   0  0  0  0  0  0  0  0  0  0  0  0
   60.4639   28.9941   51.4836 N   0  0  0  0  0  0  0  0  0  0  0  0
   57.8589   28.1900   45.0312 C   0  0  0  0  0  0  0  0  0  0  0  0
   58.0173   27.8801   43.8185 O   0  0  0  0  0  0  0  0  0  0  0  0
   57.2888   27.2470   45.9483 N   0  0  0  0  0  0  0  0  0  0  0  0
   57.3335   25.8170   45.8384 C   0  0  0  0  0  0  0  0  0  0  0  0
   58.5514   25.1188   45.7317 C   0  0  0  0  0  0  0  0  0  0  0  0
   58.5597   23.7229   45.6514 C   0  0  0  0  0  0  0  0  0  0  0  0
   57.3576   23.0119   45.6910 C   0  0  0  0  0  0  0  0  0  0  0  0
   56.1468   23.6956   45.8219 C   0  0  0  0  0  0  0  0  0  0  0  0
   56.1325   25.0915   45.9025 C   0  0  0  0  0  0  0  0  0  0  0  0
   54.9209   25.7584   46.0400 O   0  0  0  0  0  0  0  0  0  0  0  0
 11 12  1  0
 12 15  1  0
 15 16  1  0
 16 17  2  0
 17 18  1  0
 18 19  2  0
 19 20  1  0
 20 21  2  0
 12 13  1  0
 13 14  2  0
 13  1  1  0
  1  2  1  0
  2  3  1  0
  3  4  1  0
  4  5  1  0
  5  6  2  0
  6  7  1  0
  7  8  1  0
  8  9  2  0
  8 10  1  0
 10 22  1  0
 22 23  2  0
 22 24  1  0
 24 25  1  0
 25 26  2  0
 26 27  1  0
 27 28  2  0
 28 29  1  0
 29 30  2  0
 30 31  1  0
 21 16  1  0
 10  1  2  0
 30 25  1  0
  7  3  2  0
M  CHG 1   2  -1
M  CHG 1   4  -1
M  CHG 1  24  -1
M  CHG 1  31  -1
M  END
> <UniqueID>
47

> <SMILES>
CN(Cc1ccccn1)C(=O)c1[n-]c2[n-]cnc2c(=O)c1C(=O)[N-]c1ccccc1[O-]

> <Energy>
100.62130063893278

> <Genealogy>
CN(Cc1ccccn1)C(=O)c1[n-]c2[n-]cnc2c(=O)c1C(=O)[N-]c1ccccc1[O-] (protonated)
CN(Cc1ccccn1)C(=O)c1[n-]c2[n-]cnc2c(=O)c1C(=O)[N-]c1ccccc1[O-] (3D coordinates assigned)
CN(Cc1ccccn1)C(=O)c1[n-]c2[n-]cnc2c(=O)c1C(=O)[N-]c1ccccc1[O-] (optimized conformer: 100.62130063893278 kcal/mol)

> <smiles>
CN(Cc1ccccn1)C(=O)c1[nH]c2[nH]cnc2c(=O)c1C(=O)Nc1ccccc1O

> <score_type>
oracle

> <origin>
adg

> <m_score__min__energy>
-15.039999999999999

> <m_primary>
energy

> <minimizedAffinity>
-7.37731

> <minimizedRMSD>
1.14622

> <CNNscore>
0.2119173259

> <CNNaffinity>
6.0214476585

> <CNN_VS>
1.2760491371

> <CNNaffinity_variance>
0.1926830411

$$$$
74:0


 31 33  0  0  0  0  0  0  0  0999 V2000
   58.1348   26.1368   46.1063 C   0  0  0  0  0  0  0  0  0  0  0  0
   59.2438   25.2849   45.9452 C   0  0  0  0  0  0  0  0  0  0  0  0
   59.0600   23.9361   45.6248 C   0  0  0  0  0  0  0  0  0  0  0  0
   57.7734   23.4235   45.4504 C   0  0  0  0  0  0  0  0  0  0  0  0
   56.6601   24.2617   45.5909 C   0  0  0  0  0  0  0  0  0  0  0  0
   56.8426   25.6127   45.9128 C   0  0  0  0  0  0  0  0  0  0  0  0
   58.6040   28.5454   45.4262 N   0  0  0  0  0  0  0  0  0  0  0  0
   58.3044   27.5714   46.4420 C   0  0  0  0  0  0  0  0  0  0  0  0
   58.1755   27.9398   47.6421 O   0  0  0  0  0  0  0  0  0  0  0  0
   58.7279   28.2371   44.4995 H   0  0  0  0  0  0  0  0  0  0  0  0
   57.9027   30.9009   45.0569 C   0  0  0  0  0  0  0  0  0  0  0  0
   58.1290   32.2711   45.2916 C   0  0  0  0  0  0  0  0  0  0  0  0
   59.1385   32.6917   46.1582 C   0  0  0  0  0  0  0  0  0  0  0  0
   59.9427   31.7522   46.8021 C   0  0  0  0  0  0  0  0  0  0  0  0
   59.7454   30.3900   46.5715 C   0  0  0  0  0  0  0  0  0  0  0  0
   58.7301   29.9489   45.7070 C   0  0  0  0  0  0  0  0  0  0  0  0
   55.6744   29.7672   44.7018 N   0  0  0  0  0  0  0  0  0  0  0  0
   56.7795   30.4969   44.1724 C   0  0  0  0  0  0  0  0  0  0  0  0
   56.7959   30.7709   42.9418 O   0  0  0  0  0  0  0  0  0  0  0  0
   54.9321   29.5015   44.1122 H   0  0  0  0  0  0  0  0  0  0  0  0
   55.0308   23.6289   45.3757 S   0  0  0  0  0  0  0  0  0  0  0  0
   54.0426   24.7309   45.6398 O   0  0  0  0  0  0  0  0  0  0  0  0
   54.8337   23.1237   43.9728 O   0  0  0  0  0  0  0  0  0  0  0  0
   54.7520   22.3322   46.4908 N   0  0  0  0  0  0  0  0  0  0  0  0
   55.6732   21.2664   46.7661 C   0  0  0  0  0  0  0  0  0  0  0  0
   55.8172   20.1627   45.9098 C   0  0  0  0  0  0  0  0  0  0  0  0
   56.7309   19.1521   46.2200 C   0  0  0  0  0  0  0  0  0  0  0  0
   57.4943   19.2537   47.3831 C   0  0  0  0  0  0  0  0  0  0  0  0
   57.3468   20.3260   48.2017 N   0  0  0  0  0  0  0  0  0  0  0  0
   56.4668   21.3260   47.9231 C   0  0  0  0  0  0  0  0  0  0  0  0
   56.3789   22.3084   48.7073 O   0  0  0  0  0  0  0  0  0  0  0  0
 17 18  1  0
 18 19  2  0
 18 11  1  0
 11 12  2  0
 12 13  1  0
 13 14  2  0
 14 15  1  0
 15 16  2  0
 16  7  1  0
  7  8  1  0
  8  9  2  0
  8  1  1  0
  1  2  2  0
  2  3  1  0
  3  4  2  0
  4  5  1  0
  5 21  1  0
 21 22  2  0
 21 23  2  0
 21 24  1  0
 24 25  1  0
 25 26  2  0
 26 27  1  0
 27 28  2  0
 28 29  1  0
 29 30  1  0
 30 31  2  0
  5  6  2  0
 16 11  1  0
  6  1  1  0
 30 25  1  0
 17 20  1  0
  7 10  1  0
M  CHG 1  17  -1
M  CHG 1  24  -1
M  CHG 1  29  -1
M  END
> <UniqueID>
71

> <SMILES>
[NH-]C(=O)c1ccccc1NC(=O)c1cccc(S(=O)(=O)[N-]c2ccc[n-]c2=O)c1

> <Energy>
59.69370639979215

> <Genealogy>
[NH-]C(=O)c1ccccc1NC(=O)c1cccc(S(=O)(=O)[N-]c2ccc[n-]c2=O)c1 (protonated)
[NH-]C(=O)c1ccccc1NC(=O)c1cccc(S(=O)(=O)[N-]c2ccc[n-]c2=O)c1 (3D coordinates assigned)
[NH-]C(=O)c1ccccc1NC(=O)c1cccc(S(=O)(=O)[N-]c2ccc[n-]c2=O)c1 (optimized conformer: 59.69370639979215 kcal/mol)

> <smiles>
NC(=O)c1ccccc1NC(=O)c1cccc(S(=O)(=O)Nc2ccc[nH]c2=O)c1

> <score_type>
oracle

> <origin>
adg

> <m_score__min__energy>
-14.66

> <m_primary>
energy

> <minimizedAffinity>
-8.52290

> <minimizedRMSD>
0.95168

> <CNNscore>
0.2749606967

> <CNNaffinity>
6.2912316322

> <CNN_VS>
1.7298414707

> <CNNaffinity_variance>
0.0466512479

$$$$
84:0


 28 30  0  0  0  0  0  0  0  0999 V2000
   58.2981   28.0920   45.2829 C   0  0  0  0  0  0  0  0  0  0  0  0
   57.9962   27.7947   43.9439 C   0  0  0  0  0  0  0  0  0  0  0  0
   57.3083   28.7236   43.1584 C   0  0  0  0  0  0  0  0  0  0  0  0
   56.9447   29.9630   43.6919 C   0  0  0  0  0  0  0  0  0  0  0  0
   57.2702   30.2844   45.0150 C   0  0  0  0  0  0  0  0  0  0  0  0
   57.9080   29.3256   45.8200 C   0  0  0  0  0  0  0  0  0  0  0  0
   59.0350   27.1249   46.1212 C   0  0  0  0  0  0  0  0  0  0  0  0
   60.2612   27.3120   46.3368 O   0  0  0  0  0  0  0  0  0  0  0  0
   58.1224   22.8187   45.1023 C   0  0  0  0  0  0  0  0  0  0  0  0
   58.6439   23.9008   45.7362 N   0  0  0  0  0  0  0  0  0  0  0  0
   57.8754   24.9707   46.0955 C   0  0  0  0  0  0  0  0  0  0  0  0
   58.3923   25.9891   46.7221 N   0  0  0  0  0  0  0  0  0  0  0  0
   56.5001   24.9504   45.8233 C   0  0  0  0  0  0  0  0  0  0  0  0
   55.6867   26.0187   46.1882 O   0  0  0  0  0  0  0  0  0  0  0  0
   55.9446   23.8411   45.1798 C   0  0  0  0  0  0  0  0  0  0  0  0
   56.7568   22.7674   44.8152 C   0  0  0  0  0  0  0  0  0  0  0  0
   56.9871   31.6026   45.4999 N   0  0  0  0  0  0  0  0  0  0  0  0
   57.9769   32.9818   45.1436 S   0  0  0  0  0  0  0  0  0  0  0  0
   58.5902   32.8186   43.7812 O   0  0  0  0  0  0  0  0  0  0  0  0
   57.1340   34.2255   45.1545 O   0  0  0  0  0  0  0  0  0  0  0  0
   59.2668   33.0807   46.3423 C   0  0  0  0  0  0  0  0  0  0  0  0
   59.4115   34.2179   47.1505 C   0  0  0  0  0  0  0  0  0  0  0  0
   60.3548   34.2332   48.1818 C   0  0  0  0  0  0  0  0  0  0  0  0
   61.1735   33.1110   48.4110 C   0  0  0  0  0  0  0  0  0  0  0  0
   61.0458   31.9913   47.5806 C   0  0  0  0  0  0  0  0  0  0  0  0
   60.0929   31.9716   46.5576 C   0  0  0  0  0  0  0  0  0  0  0  0
   62.1107   33.0622   49.4540 O   0  0  0  0  0  0  0  0  0  0  0  0
   63.5210   33.1248   49.2691 C   0  0  0  0  0  0  0  0  0  0  0  0
  9 10  1  0
 10 11  1  0
 11 12  2  0
 12  7  1  0
  7  8  2  0
  7  1  1  0
  1  2  2  0
  2  3  1  0
  3  4  2  0
  4  5  1  0
  5 17  1  0
 17 18  1  0
 18 19  2  0
 18 20  2  0
 18 21  1  0
 21 22  2  0
 22 23  1  0
 23 24  2  0
 24 27  1  0
 27 28  1  0
 24 25  1  0
 25 26  2  0
  5  6  2  0
 11 13  1  0
 13 14  1  0
 13 15  2  0
 15 16  1  0
 16  9  2  0
  6  1  1  0
 26 21  1  0
M  CHG 1  10  -1
M  CHG 1  14  -1
M  CHG 1  17  -1
M  END
> <UniqueID>
81

> <SMILES>
COc1ccc(S(=O)(=O)[N-]c2cccc(C(=O)/N=c3\[n-]cccc3[O-])c2)cc1

> <Energy>
54.92124920282449

> <Genealogy>
COc1ccc(S(=O)(=O)[N-]c2cccc(C(=O)N=c3[n-]cccc3[O-])c2)cc1 (protonated)
COc1ccc(S(=O)(=O)[N-]c2cccc(C(=O)/N=c3\[n-]cccc3[O-])c2)cc1 (cis-trans isomerization)
COc1ccc(S(=O)(=O)[N-]c2cccc(C(=O)/N=c3\[n-]cccc3[O-])c2)cc1 (3D coordinates assigned)
COc1ccc(S(=O)(=O)[N-]c2cccc(C(=O)/N=c3\[n-]cccc3[O-])c2)cc1 (optimized conformer: 54.92124920282449 kcal/mol)

> <smiles>
COc1ccc(S(=O)(=O)Nc2cccc(C(=O)N=c3[nH]cccc3O)c2)cc1

> <score_type>
oracle

> <origin>
adg

> <m_score__min__energy>
-14.41

> <m_primary>
energy

> <minimizedAffinity>
-7.14477

> <minimizedRMSD>
0.82790

> <CNNscore>
0.2820069492

> <CNNaffinity>
6.3665084839

> <CNN_VS>
1.7953996658

> <CNNaffinity_variance>
0.0263108518

$$$$
77:0


 34 37  0  0  0  0  0  0  0  0999 V2000
   58.2194   32.1759   45.0908 S   0  0  0  0  0  0  0  0  0  0  0  0
   56.8547   32.5841   45.5687 O   0  0  0  0  0  0  0  0  0  0  0  0
   58.2981   32.4270   43.6088 O   0  0  0  0  0  0  0  0  0  0  0  0
   58.7347   27.7248   46.0306 C   0  0  0  0  0  0  0  0  0  0  0  0
   57.5448   28.2050   45.4516 C   0  0  0  0  0  0  0  0  0  0  0  0
   57.4001   29.5640   45.1568 C   0  0  0  0  0  0  0  0  0  0  0  0
   58.4372   30.4624   45.4343 C   0  0  0  0  0  0  0  0  0  0  0  0
   59.6280   29.9898   45.9991 C   0  0  0  0  0  0  0  0  0  0  0  0
   59.7763   28.6321   46.2978 C   0  0  0  0  0  0  0  0  0  0  0  0
   59.9905   25.7088   46.1285 O   0  0  0  0  0  0  0  0  0  0  0  0
   58.8912   26.2863   46.3546 C   0  0  0  0  0  0  0  0  0  0  0  0
   57.8355   25.5810   47.0264 N   0  0  0  0  0  0  0  0  0  0  0  0
   57.0637   24.6277   46.5792 C   0  0  0  0  0  0  0  0  0  0  0  0
   57.5343   23.3509   46.6537 N   0  0  0  0  0  0  0  0  0  0  0  0
   56.8290   22.2813   46.2025 C   0  0  0  0  0  0  0  0  0  0  0  0
   55.5689   22.4654   45.6367 C   0  0  0  0  0  0  0  0  0  0  0  0
   55.0359   23.7506   45.5691 C   0  0  0  0  0  0  0  0  0  0  0  0
   55.7611   24.8417   46.0559 C   0  0  0  0  0  0  0  0  0  0  0  0
   55.1488   26.0888   46.0592 O   0  0  0  0  0  0  0  0  0  0  0  0
   59.4209   33.1277   45.9245 N   0  0  0  0  0  0  0  0  0  0  0  0
   59.7422   33.8704   45.3036 H   0  0  0  0  0  0  0  0  0  0  0  0
   58.8828   33.7360   47.1582 C   0  0  0  0  0  0  0  0  0  0  0  0
   58.0251   32.7047   47.9383 C   0  0  0  0  0  0  0  0  0  0  0  0
   58.8908   31.9007   48.9143 C   0  0  0  0  0  0  0  0  0  0  0  0
   59.4987   32.7604   49.9668 N   0  0  0  0  0  0  0  0  0  0  0  0
   59.7241   34.1654   49.5361 C   0  0  0  0  0  0  0  0  0  0  0  0
   60.0399   34.2772   48.0379 C   0  0  0  0  0  0  0  0  0  0  0  0
   60.7336   32.1537   50.5105 C   0  0  0  0  0  0  0  0  0  0  0  0
   61.8862   32.3375   49.5569 C   0  0  0  0  0  0  0  0  0  0  0  0
   62.9501   33.1885   49.8953 C   0  0  0  0  0  0  0  0  0  0  0  0
   64.0386   33.3346   49.0296 C   0  0  0  0  0  0  0  0  0  0  0  0
   64.0749   32.6273   47.8242 C   0  0  0  0  0  0  0  0  0  0  0  0
   63.0237   31.7733   47.4832 C   0  0  0  0  0  0  0  0  0  0  0  0
   61.9319   31.6255   48.3466 C   0  0  0  0  0  0  0  0  0  0  0  0
 10 11  2  0
 11 12  1  0
 12 13  2  0
 13 14  1  0
 14 15  1  0
 15 16  2  0
 16 17  1  0
 17 18  2  0
 18 19  1  0
 11  4  1  0
  4  5  2  0
  5  6  1  0
  6  7  2  0
  7  1  1  0
  1  2  2  0
  1  3  2  0
  1 20  1  0
 20 22  1  0
 22 23  1  0
 23 24  1  0
 24 25  1  0
 25 28  1  0
 28 29  1  0
 29 30  2  0
 30 31  1  0
 31 32  2  0
 32 33  1  0
 33 34  2  0
 25 26  1  0
 26 27  1  0
  7  8  1  0
  8  9  2  0
 18 13  1  0
  9  4  1  0
 27 22  1  0
 34 29  1  0
 20 21  1  0
M  CHG 1  14  -1
M  CHG 1  19  -1
M  END
> <UniqueID>
71

> <SMILES>
O=C(N=c1[n-]cccc1[O-])c1ccc(S(=O)(=O)NC2CCN(Cc3ccccc3)CC2)cc1

> <Energy>
82.17667075239855

> <Genealogy>
O=C(N=c1[n-]cccc1[O-])c1ccc(S(=O)(=O)NC2CCN(Cc3ccccc3)CC2)cc1 (protonated)
O=C(N=c1[n-]cccc1[O-])c1ccc(S(=O)(=O)NC2CCN(Cc3ccccc3)CC2)cc1 (3D coordinates assigned)
O=C(N=c1[n-]cccc1[O-])c1ccc(S(=O)(=O)NC2CCN(Cc3ccccc3)CC2)cc1 (nonaromatic ring conformer: 82.17667075239855 kcal/mol)

> <smiles>
O=C(N=c1[nH]cccc1O)c1ccc(S(=O)(=O)NC2CCN(Cc3ccccc3)CC2)cc1

> <score_type>
oracle

> <origin>
adg

> <m_score__min__energy>
-15.56

> <m_primary>
energy

> <minimizedAffinity>
-8.05339

> <minimizedRMSD>
0.84256

> <CNNscore>
0.1219858453

> <CNNaffinity>
6.3150668144

> <CNN_VS>
0.7703487873

> <CNNaffinity_variance>
0.2642281651

$$$$
4:0


 33 35  0  0  0  0  0  0  0  0999 V2000
   61.9540   29.3325   50.8738 O   0  0  0  0  0  0  0  0  0  0  0  0
   61.7320   30.5688   50.7760 C   0  0  0  0  0  0  0  0  0  0  0  0
   61.0193   31.0984   49.6453 N   0  0  0  0  0  0  0  0  0  0  0  0
   60.9515   32.0763   49.5536 H   0  0  0  0  0  0  0  0  0  0  0  0
   60.4009   30.2774   48.6426 C   0  0  0  0  0  0  0  0  0  0  0  0
   60.8152   30.3913   47.3093 C   0  0  0  0  0  0  0  0  0  0  0  0
   60.2154   29.6184   46.3120 C   0  0  0  0  0  0  0  0  0  0  0  0
   59.1916   28.7112   46.6341 C   0  0  0  0  0  0  0  0  0  0  0  0
   58.8161   28.5570   47.9795 C   0  0  0  0  0  0  0  0  0  0  0  0
   59.4146   29.3348   48.9767 C   0  0  0  0  0  0  0  0  0  0  0  0
   58.5426   27.9131   45.5683 C   0  0  0  0  0  0  0  0  0  0  0  0
   59.0290   27.9242   44.4055 O   0  0  0  0  0  0  0  0  0  0  0  0
   57.3995   27.0845   45.8224 N   0  0  0  0  0  0  0  0  0  0  0  0
   57.3509   25.6510   45.7434 C   0  0  0  0  0  0  0  0  0  0  0  0
   58.5201   24.8823   45.5937 C   0  0  0  0  0  0  0  0  0  0  0  0
   58.4451   23.4882   45.5348 C   0  0  0  0  0  0  0  0  0  0  0  0
   57.2072   22.8489   45.6398 C   0  0  0  0  0  0  0  0  0  0  0  0
   56.0441   23.6039   45.8127 C   0  0  0  0  0  0  0  0  0  0  0  0
   56.1132   24.9999   45.8685 C   0  0  0  0  0  0  0  0  0  0  0  0
   54.9489   25.7386   46.0436 O   0  0  0  0  0  0  0  0  0  0  0  0
   62.1120   31.4679   51.9120 C   0  0  0  0  0  0  0  0  0  0  0  0
   62.9527   32.5109   51.4260 O   0  0  0  0  0  0  0  0  0  0  0  0
   64.1269   32.2723   50.7040 C   0  0  0  0  0  0  0  0  0  0  0  0
   65.0231   31.5152   51.1641 O   0  0  0  0  0  0  0  0  0  0  0  0
   64.2946   32.8776   49.3493 C   0  0  0  0  0  0  0  0  0  0  0  0
   63.0632   33.5506   48.9543 N   0  0  0  0  0  0  0  0  0  0  0  0
   62.6115   33.6444   47.5978 C   0  0  0  0  0  0  0  0  0  0  0  0
   63.4385   33.6023   46.6471 O   0  0  0  0  0  0  0  0  0  0  0  0
   61.1812   33.7945   47.3079 C   0  0  0  0  0  0  0  0  0  0  0  0
   60.6170   33.9351   46.0557 C   0  0  0  0  0  0  0  0  0  0  0  0
   59.2598   34.0345   46.2704 C   0  0  0  0  0  0  0  0  0  0  0  0
   59.0798   33.9502   47.6359 C   0  0  0  0  0  0  0  0  0  0  0  0
   60.2441   33.8062   48.2275 O   0  0  0  0  0  0  0  0  0  0  0  0
  1  2  2  0
  2 21  1  0
 21 22  1  0
 22 23  1  0
 23 24  2  0
 23 25  1  0
 25 26  1  0
 26 27  1  0
 27 28  2  0
 27 29  1  0
 29 30  2  0
 30 31  1  0
 31 32  2  0
 32 33  1  0
  2  3  1  0
  3  5  1  0
  5  6  2  0
  6  7  1  0
  7  8  2  0
  8 11  1  0
 11 12  2  0
 11 13  1  0
 13 14  1  0
 14 15  2  0
 15 16  1  0
 16 17  2  0
 17 18  1  0
 18 19  2  0
 19 20  1  0
  8  9  1  0
  9 10  2  0
 33 29  1  0
 10  5  1  0
 19 14  1  0
  3  4  1  0
M  CHG 1  13  -1
M  CHG 1  20  -1
M  CHG 1  26  -1
M  END
> <UniqueID>
4

> <SMILES>
O=C(COC(=O)C[N-]C(=O)c1ccco1)Nc1ccc(C(=O)[N-]c2ccccc2[O-])cc1

> <Energy>
76.32473848336674

> <Genealogy>
O=C(COC(=O)C[N-]C(=O)c1ccco1)Nc1ccc(C(=O)[N-]c2ccccc2[O-])cc1 (protonated)
O=C(COC(=O)C[N-]C(=O)c1ccco1)Nc1ccc(C(=O)[N-]c2ccccc2[O-])cc1 (3D coordinates assigned)
O=C(COC(=O)C[N-]C(=O)c1ccco1)Nc1ccc(C(=O)[N-]c2ccccc2[O-])cc1 (optimized conformer: 76.32473848336674 kcal/mol)

> <smiles>
O=C(COC(=O)CNC(=O)c1ccco1)Nc1ccc(C(=O)Nc2ccccc2O)cc1

> <score_type>
oracle

> <origin>
adg

> <m_score__min__energy>
-14.43

> <m_primary>
energy

> <minimizedAffinity>
-7.02412

> <minimizedRMSD>
1.53650

> <CNNscore>
0.4047574103

> <CNNaffinity>
6.3254179955

> <CNN_VS>
2.5602598190

> <CNNaffinity_variance>
0.0688237175

$$$$
33:0


 24 25  0  0  0  0  0  0  0  0999 V2000
   61.2111   30.5439   50.5164 C   0  0  0  0  0  0  0  0  0  0  0  0
   60.4566   31.2444   51.2447 O   0  0  0  0  0  0  0  0  0  0  0  0
   62.4012   31.1045   49.9585 N   0  0  0  0  0  0  0  0  0  0  0  0
   62.5432   31.4129   48.5409 C   0  0  0  0  0  0  0  0  0  0  0  0
   62.9178   32.8829   48.3523 C   0  0  0  0  0  0  0  0  0  0  0  0
   61.7634   34.0161   49.2144 S   0  0  0  0  0  0  0  0  0  0  0  0
   57.2892   33.3611   45.1154 C   0  0  0  0  0  0  0  0  0  0  0  0
   58.3874   33.5161   46.1268 C   0  0  0  0  0  0  0  0  0  0  0  0
   58.2685   32.9460   47.4052 C   0  0  0  0  0  0  0  0  0  0  0  0
   59.2882   33.1126   48.3484 C   0  0  0  0  0  0  0  0  0  0  0  0
   60.4264   33.8577   48.0259 C   0  0  0  0  0  0  0  0  0  0  0  0
   60.5417   34.4390   46.7589 C   0  0  0  0  0  0  0  0  0  0  0  0
   59.5255   34.2725   45.8131 C   0  0  0  0  0  0  0  0  0  0  0  0
   60.9143   29.0935   50.3117 C   0  0  0  0  0  0  0  0  0  0  0  0
   59.8251   28.9547   49.3515 N   0  0  0  0  0  0  0  0  0  0  0  0
   59.9185   28.1622   48.1612 C   0  0  0  0  0  0  0  0  0  0  0  0
   60.6044   27.1046   48.1746 O   0  0  0  0  0  0  0  0  0  0  0  0
   59.2030   28.5628   46.9199 C   0  0  0  0  0  0  0  0  0  0  0  0
   59.6244   29.7107   46.2180 C   0  0  0  0  0  0  0  0  0  0  0  0
   58.9990   30.0887   45.0267 C   0  0  0  0  0  0  0  0  0  0  0  0
   57.9493   29.3267   44.5146 C   0  0  0  0  0  0  0  0  0  0  0  0
   57.5187   28.1860   45.1943 C   0  0  0  0  0  0  0  0  0  0  0  0
   58.1377   27.7967   46.3887 C   0  0  0  0  0  0  0  0  0  0  0  0
   57.6907   26.6397   47.0205 O   0  0  0  0  0  0  0  0  0  0  0  0
  7  8  1  0
  8  9  2  0
  9 10  1  0
 10 11  2  0
 11  6  1  0
  6  5  1  0
  5  4  1  0
  4  3  1  0
  3  1  1  0
  1  2  2  0
  1 14  1  0
 14 15  1  0
 15 16  1  0
 16 17  2  0
 16 18  1  0
 18 19  2  0
 19 20  1  0
 20 21  2  0
 21 22  1  0
 22 23  2  0
 23 24  1  0
 11 12  1  0
 12 13  2  0
 13  8  1  0
 23 18  1  0
M  CHG 1   3  -1
M  CHG 1  15  -1
M  CHG 1  24  -1
M  END
> <UniqueID>
33

> <SMILES>
Cc1ccc(SCC[N-]C(=O)C[N-]C(=O)c2ccccc2[O-])cc1

> <Energy>
30.20456174051683

> <Genealogy>
Cc1ccc(SCC[N-]C(=O)C[N-]C(=O)c2ccccc2[O-])cc1 (protonated)
Cc1ccc(SCC[N-]C(=O)C[N-]C(=O)c2ccccc2[O-])cc1 (3D coordinates assigned)
Cc1ccc(SCC[N-]C(=O)C[N-]C(=O)c2ccccc2[O-])cc1 (optimized conformer: 30.20456174051683 kcal/mol)

> <smiles>
Cc1ccc(SCCNC(=O)CNC(=O)c2ccccc2O)cc1

> <score_type>
oracle

> <origin>
adg

> <m_score__min__energy>
-14.41

> <m_primary>
energy

> <minimizedAffinity>
-5.77777

> <minimizedRMSD>
2.34975

> <CNNscore>
0.7338563800

> <CNNaffinity>
6.1391158104

> <CNN_VS>
4.5052294731

> <CNNaffinity_variance>
0.0472222902

$$$$
38:0


 26 28  0  0  0  0  0  0  0  0999 V2000
   59.0187   27.4191   46.5503 C   0  0  0  0  0  0  0  0  0  0  0  0
   58.1153   28.4265   46.1530 C   0  0  0  0  0  0  0  0  0  0  0  0
   58.4691   29.3645   45.1745 C   0  0  0  0  0  0  0  0  0  0  0  0
   59.7446   29.3150   44.5990 C   0  0  0  0  0  0  0  0  0  0  0  0
   60.6523   28.3300   44.9889 C   0  0  0  0  0  0  0  0  0  0  0  0
   60.2978   27.3834   45.9557 C   0  0  0  0  0  0  0  0  0  0  0  0
   61.2163   26.4500   46.3113 F   0  0  0  0  0  0  0  0  0  0  0  0
   57.3074   30.5859   44.6526 S   0  0  0  0  0  0  0  0  0  0  0  0
   57.4629   30.8184   43.1740 O   0  0  0  0  0  0  0  0  0  0  0  0
   55.9126   30.0842   44.8991 O   0  0  0  0  0  0  0  0  0  0  0  0
   57.5362   32.0940   45.5082 N   0  0  0  0  0  0  0  0  0  0  0  0
   58.0250   33.1427   44.5832 C   0  0  0  0  0  0  0  0  0  0  0  0
   58.6282   34.3246   45.3455 C   0  0  0  0  0  0  0  0  0  0  0  0
   59.8524   33.8849   46.1705 C   0  0  0  0  0  0  0  0  0  0  0  0
   59.8066   32.3950   46.5524 C   0  0  0  0  0  0  0  0  0  0  0  0
   58.3611   31.9102   46.7284 C   0  0  0  0  0  0  0  0  0  0  0  0
   59.1850   26.4100   48.6972 O   0  0  0  0  0  0  0  0  0  0  0  0
   58.6093   26.4247   47.5749 C   0  0  0  0  0  0  0  0  0  0  0  0
   57.4811   25.5677   47.3461 N   0  0  0  0  0  0  0  0  0  0  0  0
   57.2420   24.7735   46.3372 C   0  0  0  0  0  0  0  0  0  0  0  0
   58.2107   23.8777   45.9977 N   0  0  0  0  0  0  0  0  0  0  0  0
   58.0832   23.0188   44.9532 C   0  0  0  0  0  0  0  0  0  0  0  0
   56.9228   23.0282   44.1824 C   0  0  0  0  0  0  0  0  0  0  0  0
   55.8921   23.9057   44.5136 C   0  0  0  0  0  0  0  0  0  0  0  0
   56.0282   24.7739   45.6006 C   0  0  0  0  0  0  0  0  0  0  0  0
   54.9413   25.5652   45.9518 O   0  0  0  0  0  0  0  0  0  0  0  0
 17 18  2  0
 18 19  1  0
 19 20  2  0
 20 21  1  0
 21 22  1  0
 22 23  2  0
 23 24  1  0
 24 25  2  0
 25 26  1  0
 18  1  1  0
  1  2  2  0
  2  3  1  0
  3  8  1  0
  8  9  2  0
  8 10  2  0
  8 11  1  0
 11 12  1  0
 12 13  1  0
 13 14  1  0
 14 15  1  0
 15 16  1  0
  3  4  2  0
  4  5  1  0
  5  6  2  0
  6  7  1  0
 25 20  1  0
  6  1  1  0
 16 11  1  0
M  CHG 1  21  -1
M  CHG 1  26  -1
M  END
> <UniqueID>
38

> <SMILES>
O=C(N=c1[n-]cccc1[O-])c1cc(S(=O)(=O)N2CCCCC2)ccc1F

> <Energy>
62.91306409411653

> <Genealogy>
O=C(N=c1[n-]cccc1[O-])c1cc(S(=O)(=O)N2CCCCC2)ccc1F (protonated)
O=C(N=c1[n-]cccc1[O-])c1cc(S(=O)(=O)N2CCCCC2)ccc1F (3D coordinates assigned)
O=C(N=c1[n-]cccc1[O-])c1cc(S(=O)(=O)N2CCCCC2)ccc1F (nonaromatic ring conformer: 62.91306409411653 kcal/mol)

> <smiles>
O=C(N=c1[nH]cccc1O)c1cc(S(=O)(=O)N2CCCCC2)ccc1F

> <score_type>
oracle

> <origin>
adg

> <m_score__min__energy>
-14.359999999999999

> <m_primary>
energy

> <minimizedAffinity>
-7.43491

> <minimizedRMSD>
0.74084

> <CNNscore>
0.7182197571

> <CNNaffinity>
6.6741375923

> <CNN_VS>
4.7934975624

> <CNNaffinity_variance>
0.0441933237

$$$$
63:0


 29 31  0  0  0  0  0  0  0  0999 V2000
   59.3082   31.5665   48.5732 C   0  0  0  0  0  0  0  0  0  0  0  0
   60.2086   30.4934   48.4830 C   0  0  0  0  0  0  0  0  0  0  0  0
   60.3185   29.5771   49.5326 C   0  0  0  0  0  0  0  0  0  0  0  0
   59.5383   29.7319   50.6821 C   0  0  0  0  0  0  0  0  0  0  0  0
   58.6513   30.8107   50.7926 C   0  0  0  0  0  0  0  0  0  0  0  0
   58.5370   31.7251   49.7356 C   0  0  0  0  0  0  0  0  0  0  0  0
   58.9014   32.1349   46.1269 C   0  0  0  0  0  0  0  0  0  0  0  0
   58.9148   33.1036   45.1055 C   0  0  0  0  0  0  0  0  0  0  0  0
   59.1684   34.4451   45.3974 C   0  0  0  0  0  0  0  0  0  0  0  0
   59.4144   34.8400   46.7106 C   0  0  0  0  0  0  0  0  0  0  0  0
   59.4256   33.8934   47.7359 C   0  0  0  0  0  0  0  0  0  0  0  0
   59.1864   32.5356   47.4604 C   0  0  0  0  0  0  0  0  0  0  0  0
   58.5446   30.7392   45.7736 C   0  0  0  0  0  0  0  0  0  0  0  0
   59.4511   29.8664   45.6733 O   0  0  0  0  0  0  0  0  0  0  0  0
   56.6727   30.1950   44.1513 C   0  0  0  0  0  0  0  0  0  0  0  0
   57.1847   30.3847   45.4998 N   0  0  0  0  0  0  0  0  0  0  0  0
   57.6564   30.9970   52.2311 S   0  0  0  0  0  0  0  0  0  0  0  0
   58.4894   30.7354   53.4543 O   0  0  0  0  0  0  0  0  0  0  0  0
   57.1182   32.4010   52.2851 O   0  0  0  0  0  0  0  0  0  0  0  0
   56.3452   29.8597   52.1490 N   0  0  0  0  0  0  0  0  0  0  0  0
   55.1042   30.0825   52.4755 C   0  0  0  0  0  0  0  0  0  0  0  0
   54.1812   30.6759   51.5921 C   0  0  0  0  0  0  0  0  0  0  0  0
   52.8658   30.8848   52.0104 C   0  0  0  0  0  0  0  0  0  0  0  0
   52.4640   30.5073   53.2993 C   0  0  0  0  0  0  0  0  0  0  0  0
   53.4141   29.9193   54.1482 C   0  0  0  0  0  0  0  0  0  0  0  0
   54.6889   29.7247   53.7199 N   0  0  0  0  0  0  0  0  0  0  0  0
   51.0718   30.7246   53.7492 C   0  0  0  0  0  0  0  0  0  0  0  0
   50.4080   31.7078   53.3246 O   0  0  0  0  0  0  0  0  0  0  0  0
   50.4755   29.8447   54.6452 O   0  0  0  0  0  0  0  0  0  0  0  0
 15 16  1  0
 16 13  1  0
 13 14  2  0
 13  7  1  0
  7  8  2  0
  8  9  1  0
  9 10  2  0
 10 11  1  0
 11 12  2  0
 12  1  1  0
  1  2  2  0
  2  3  1  0
  3  4  2  0
  4  5  1  0
  5 17  1  0
 17 18  2  0
 17 19  2  0
 17 20  1  0
 20 21  2  0
 21 22  1  0
 22 23  2  0
 23 24  1  0
 24 27  1  0
 27 28  2  0
 27 29  1  0
 24 25  2  0
 25 26  1  0
  5  6  2  0
 12  7  1  0
  6  1  1  0
 26 21  1  0
M  CHG 1  16  -1
M  CHG 1  26  -1
M  CHG 1  29  -1
M  END
> <UniqueID>
60

> <SMILES>
C[N-]C(=O)c1ccccc1-c1cccc(S(=O)(=O)N=c2ccc(C(=O)[O-])c[n-]2)c1

> <Energy>
61.38567902741234

> <Genealogy>
C[N-]C(=O)c1ccccc1-c1cccc(S(=O)(=O)N=c2ccc(C(=O)[O-])c[n-]2)c1 (protonated)
C[N-]C(=O)c1ccccc1-c1cccc(S(=O)(=O)N=c2ccc(C(=O)[O-])c[n-]2)c1 (3D coordinates assigned)
C[N-]C(=O)c1ccccc1-c1cccc(S(=O)(=O)N=c2ccc(C(=O)[O-])c[n-]2)c1 (optimized conformer: 61.38567902741234 kcal/mol)

> <smiles>
CNC(=O)c1ccccc1-c1cccc(S(=O)(=O)N=c2ccc(C(=O)O)c[nH]2)c1

> <score_type>
oracle

> <origin>
adg

> <m_score__min__energy>
-14.26

> <m_primary>
energy

> <minimizedAffinity>
-7.78982

> <minimizedRMSD>
0.84802

> <CNNscore>
0.4895433784

> <CNNaffinity>
5.7768521309

> <CNN_VS>
2.8280196190

> <CNNaffinity_variance>
0.1234240308

$$$$
66:0


 29 31  0  0  0  0  0  0  0  0999 V2000
   58.3934   30.1341   45.7379 C   0  0  0  0  0  0  0  0  0  0  0  0
   59.5937   30.5128   46.3503 C   0  0  0  0  0  0  0  0  0  0  0  0
   60.3630   29.5668   47.0312 C   0  0  0  0  0  0  0  0  0  0  0  0
   59.9411   28.2361   47.0985 C   0  0  0  0  0  0  0  0  0  0  0  0
   58.7396   27.8363   46.4859 C   0  0  0  0  0  0  0  0  0  0  0  0
   57.9721   28.7977   45.8017 C   0  0  0  0  0  0  0  0  0  0  0  0
   57.4455   31.3286   44.8536 S   0  0  0  0  0  0  0  0  0  0  0  0
   56.1110   30.7325   44.5006 O   0  0  0  0  0  0  0  0  0  0  0  0
   58.1485   31.7056   43.5782 O   0  0  0  0  0  0  0  0  0  0  0  0
   57.1994   32.7457   45.8276 N   0  0  0  0  0  0  0  0  0  0  0  0
   56.2545   33.0993   45.6777 H   0  0  0  0  0  0  0  0  0  0  0  0
   58.1687   33.7782   45.4574 C   0  0  0  0  0  0  0  0  0  0  0  0
   62.4518   33.8399   49.3930 C   0  0  0  0  0  0  0  0  0  0  0  0
   61.3472   33.7981   48.3783 C   0  0  0  0  0  0  0  0  0  0  0  0
   60.0066   33.8313   48.7907 C   0  0  0  0  0  0  0  0  0  0  0  0
   58.9773   33.8281   47.8447 C   0  0  0  0  0  0  0  0  0  0  0  0
   59.2751   33.8186   46.4732 C   0  0  0  0  0  0  0  0  0  0  0  0
   60.6167   33.7893   46.0614 C   0  0  0  0  0  0  0  0  0  0  0  0
   61.6464   33.7904   47.0075 C   0  0  0  0  0  0  0  0  0  0  0  0
   58.2958   26.4229   46.5456 C   0  0  0  0  0  0  0  0  0  0  0  0
   58.2767   25.8148   47.6503 O   0  0  0  0  0  0  0  0  0  0  0  0
   57.9952   25.7111   45.3350 N   0  0  0  0  0  0  0  0  0  0  0  0
   57.1915   24.6984   45.1562 C   0  0  0  0  0  0  0  0  0  0  0  0
   57.6837   23.6141   44.4928 N   0  0  0  0  0  0  0  0  0  0  0  0
   56.9454   22.4997   44.2577 C   0  0  0  0  0  0  0  0  0  0  0  0
   55.6245   22.4331   44.6954 C   0  0  0  0  0  0  0  0  0  0  0  0
   55.0707   23.5295   45.3536 C   0  0  0  0  0  0  0  0  0  0  0  0
   55.8349   24.6794   45.5746 C   0  0  0  0  0  0  0  0  0  0  0  0
   55.2156   25.7817   46.1510 O   0  0  0  0  0  0  0  0  0  0  0  0
 13 14  1  0
 14 15  2  0
 15 16  1  0
 16 17  2  0
 17 12  1  0
 12 10  1  0
 10  7  1  0
  7  8  2  0
  7  9  2  0
  7  1  1  0
  1  2  2  0
  2  3  1  0
  3  4  2  0
  4  5  1  0
  5 20  1  0
 20 21  2  0
 20 22  1  0
 22 23  2  0
 23 24  1  0
 24 25  1  0
 25 26  2  0
 26 27  1  0
 27 28  2  0
 28 29  1  0
  5  6  2  0
 17 18  1  0
 18 19  2  0
 19 14  1  0
  6  1  1  0
 28 23  1  0
 10 11  1  0
M  CHG 1  24  -1
M  CHG 1  29  -1
M  END
> <UniqueID>
63

> <SMILES>
Cc1ccc(CNS(=O)(=O)c2cccc(C(=O)N=c3[n-]cccc3[O-])c2)cc1

> <Energy>
57.23438806033204

> <Genealogy>
Cc1ccc(CNS(=O)(=O)c2cccc(C(=O)N=c3[n-]cccc3[O-])c2)cc1 (protonated)
Cc1ccc(CNS(=O)(=O)c2cccc(C(=O)N=c3[n-]cccc3[O-])c2)cc1 (3D coordinates assigned)
Cc1ccc(CNS(=O)(=O)c2cccc(C(=O)N=c3[n-]cccc3[O-])c2)cc1 (optimized conformer: 57.23438806033204 kcal/mol)

> <smiles>
Cc1ccc(CNS(=O)(=O)c2cccc(C(=O)N=c3[nH]cccc3O)c2)cc1

> <score_type>
oracle

> <origin>
adg

> <m_score__min__energy>
-14.94

> <m_primary>
energy

> <minimizedAffinity>
-8.61168

> <minimizedRMSD>
0.99687

> <CNNscore>
0.7175744176

> <CNNaffinity>
6.8653903008

> <CNN_VS>
4.9264283180

> <CNNaffinity_variance>
0.0776189044

$$$$
34:0


 28 31  0  0  0  0  0  0  0  0999 V2000
   57.4482   25.6609   46.2375 C   0  0  0  0  0  0  0  0  0  0  0  0
   56.3060   26.4288   45.9822 C   0  0  0  0  0  0  0  0  0  0  0  0
   55.0359   25.8659   46.0518 O   0  0  0  0  0  0  0  0  0  0  0  0
   56.4286   27.7419   45.6801 N   0  0  0  0  0  0  0  0  0  0  0  0
   57.6417   28.3479   45.6114 C   0  0  0  0  0  0  0  0  0  0  0  0
   57.6881   29.5749   45.3278 O   0  0  0  0  0  0  0  0  0  0  0  0
   58.7891   27.6325   45.8478 N   0  0  0  0  0  0  0  0  0  0  0  0
   58.7035   26.2935   46.1461 C   0  0  0  0  0  0  0  0  0  0  0  0
   59.7541   25.6170   46.3265 O   0  0  0  0  0  0  0  0  0  0  0  0
   57.3845   23.8549   47.7690 O   0  0  0  0  0  0  0  0  0  0  0  0
   57.3258   24.2150   46.5617 C   0  0  0  0  0  0  0  0  0  0  0  0
   57.1152   23.1842   45.5154 C   0  0  0  0  0  0  0  0  0  0  0  0
   56.9375   23.5841   44.1797 C   0  0  0  0  0  0  0  0  0  0  0  0
   56.7452   22.6341   43.1729 C   0  0  0  0  0  0  0  0  0  0  0  0
   56.7164   21.2757   43.4887 C   0  0  0  0  0  0  0  0  0  0  0  0
   56.8736   20.8628   44.8139 C   0  0  0  0  0  0  0  0  0  0  0  0
   57.0630   21.8073   45.8286 C   0  0  0  0  0  0  0  0  0  0  0  0
   57.1760   21.3675   47.1435 O   0  0  0  0  0  0  0  0  0  0  0  0
   60.1107   28.2819   45.7370 C   0  0  0  0  0  0  0  0  0  0  0  0
   60.3911   29.1192   46.9574 C   0  0  0  0  0  0  0  0  0  0  0  0
   60.7478   30.4852   46.8242 C   0  0  0  0  0  0  0  0  0  0  0  0
   60.9804   31.2786   47.9625 C   0  0  0  0  0  0  0  0  0  0  0  0
   60.8446   30.6801   49.2105 C   0  0  0  0  0  0  0  0  0  0  0  0
   60.5020   29.3743   49.3467 C   0  0  0  0  0  0  0  0  0  0  0  0
   60.2635   28.5551   48.2480 C   0  0  0  0  0  0  0  0  0  0  0  0
   60.4411   29.0516   50.6891 O   0  0  0  0  0  0  0  0  0  0  0  0
   60.7657   30.2293   51.4422 C   0  0  0  0  0  0  0  0  0  0  0  0
   61.0179   31.2443   50.4599 O   0  0  0  0  0  0  0  0  0  0  0  0
 10 11  2  0
 11 12  1  0
 12 13  2  0
 13 14  1  0
 14 15  2  0
 15 16  1  0
 16 17  2  0
 17 18  1  0
 11  1  1  0
  1  2  2  0
  2  3  1  0
  2  4  1  0
  4  5  1  0
  5  6  2  0
  5  7  1  0
  7 19  1  0
 19 20  1  0
 20 21  2  0
 21 22  1  0
 22 23  2  0
 23 24  1  0
 24 25  2  0
 24 26  1  0
 26 27  1  0
 27 28  1  0
  7  8  1  0
  8  9  2  0
 17 12  1  0
  8  1  1  0
 25 20  1  0
 28 23  1  0
M  CHG 1   3  -1
M  CHG 1   4  -1
M  CHG 1  18  -1
M  END
> <UniqueID>
34

> <SMILES>
O=C(c1ccccc1[O-])c1c([O-])[n-]c(=O)n(Cc2ccc3c(c2)OCO3)c1=O

> <Energy>
85.7406104969797

> <Genealogy>
O=C(c1ccccc1[O-])c1c([O-])[n-]c(=O)n(Cc2ccc3c(c2)OCO3)c1=O (protonated)
O=C(c1ccccc1[O-])c1c([O-])[n-]c(=O)n(Cc2ccc3c(c2)OCO3)c1=O (3D coordinates assigned)
O=C(c1ccccc1[O-])c1c([O-])[n-]c(=O)n(Cc2ccc3c(c2)OCO3)c1=O (nonaromatic ring conformer: 85.7406104969797 kcal/mol)

> <smiles>
O=C(c1ccccc1O)c1c(O)[nH]c(=O)n(Cc2ccc3c(c2)OCO3)c1=O

> <score_type>
oracle

> <origin>
adg

> <m_score__min__energy>
-14.949999999999999

> <m_primary>
energy

> <minimizedAffinity>
-7.29275

> <minimizedRMSD>
2.45079

> <CNNscore>
0.3765029609

> <CNNaffinity>
5.7727265358

> <CNN_VS>
2.1734485626

> <CNNaffinity_variance>
0.0638394579

$$$$
47:0


 26 28  0  0  0  0  0  0  0  0999 V2000
   56.9798   31.3077   52.1971 C   0  0  0  0  0  0  0  0  0  0  0  0
   57.7757   31.2434   53.3546 C   0  0  0  0  0  0  0  0  0  0  0  0
   59.1699   31.2708   53.2535 C   0  0  0  0  0  0  0  0  0  0  0  0
   59.7803   31.3780   52.0020 C   0  0  0  0  0  0  0  0  0  0  0  0
   58.9989   31.4752   50.8432 C   0  0  0  0  0  0  0  0  0  0  0  0
   57.6012   31.4407   50.9455 C   0  0  0  0  0  0  0  0  0  0  0  0
   55.2989   29.0911   53.0153 O   0  0  0  0  0  0  0  0  0  0  0  0
   54.7703   30.2168   52.8085 C   0  0  0  0  0  0  0  0  0  0  0  0
   55.5447   31.3014   52.2725 N   0  0  0  0  0  0  0  0  0  0  0  0
   55.0618   32.0904   51.9356 H   0  0  0  0  0  0  0  0  0  0  0  0
   53.3209   30.4168   53.1227 C   0  0  0  0  0  0  0  0  0  0  0  0
   52.5328   30.5048   51.8549 C   0  0  0  0  0  0  0  0  0  0  0  0
   52.6506   29.4303   50.5616 S   0  0  0  0  0  0  0  0  0  0  0  0
   51.5676   30.3129   49.6243 C   0  0  0  0  0  0  0  0  0  0  0  0
   51.2115   29.9908   48.4616 O   0  0  0  0  0  0  0  0  0  0  0  0
   51.1179   31.4196   50.2521 N   0  0  0  0  0  0  0  0  0  0  0  0
   51.6624   31.5302   51.4924 C   0  0  0  0  0  0  0  0  0  0  0  0
   51.3665   32.6005   52.3272 O   0  0  0  0  0  0  0  0  0  0  0  0
   59.7618   31.5988   49.2616 S   0  0  0  0  0  0  0  0  0  0  0  0
   59.5541   30.3215   48.4956 O   0  0  0  0  0  0  0  0  0  0  0  0
   61.2392   31.8129   49.4437 O   0  0  0  0  0  0  0  0  0  0  0  0
   59.0795   32.9527   48.3974 N   0  0  0  0  0  0  0  0  0  0  0  0
   58.5743   32.5448   47.0862 C   0  0  0  0  0  0  0  0  0  0  0  0
   58.6468   33.7734   46.1931 C   0  0  0  0  0  0  0  0  0  0  0  0
   59.6395   34.7067   46.8715 C   0  0  0  0  0  0  0  0  0  0  0  0
   60.0894   33.9742   48.1256 C   0  0  0  0  0  0  0  0  0  0  0  0
  7  8  2  0
  8 11  1  0
 11 12  1  0
 12 13  1  0
 13 14  1  0
 14 15  2  0
 14 16  1  0
 16 17  1  0
 17 18  1  0
  8  9  1  0
  9  1  1  0
  1  2  2  0
  2  3  1  0
  3  4  2  0
  4  5  1  0
  5 19  1  0
 19 20  2  0
 19 21  2  0
 19 22  1  0
 22 23  1  0
 23 24  1  0
 24 25  1  0
 25 26  1  0
  5  6  2  0
 17 12  2  0
  6  1  1  0
 26 22  1  0
  9 10  1  0
M  CHG 1  16  -1
M  CHG 1  18  -1
M  END
> <UniqueID>
45

> <SMILES>
O=C(Cc1sc(=O)[n-]c1[O-])Nc1cccc(S(=O)(=O)N2CCCC2)c1

> <Energy>
73.22602071451006

> <Genealogy>
O=C(Cc1sc(=O)[n-]c1[O-])Nc1cccc(S(=O)(=O)N2CCCC2)c1 (protonated)
O=C(Cc1sc(=O)[n-]c1[O-])Nc1cccc(S(=O)(=O)N2CCCC2)c1 (3D coordinates assigned)
O=C(Cc1sc(=O)[n-]c1[O-])Nc1cccc(S(=O)(=O)N2CCCC2)c1 (nonaromatic ring conformer: 73.22602071451006 kcal/mol)

> <smiles>
O=C(Cc1sc(=O)[nH]c1O)Nc1cccc(S(=O)(=O)N2CCCC2)c1

> <score_type>
oracle

> <origin>
adg

> <m_score__min__energy>
-15.69

> <m_primary>
energy

> <minimizedAffinity>
-4.58797

> <minimizedRMSD>
0.64306

> <CNNscore>
0.4926634431

> <CNNaffinity>
5.8693566322

> <CNN_VS>
2.8916175365

> <CNNaffinity_variance>
0.1081771255

$$$$
67:0


 25 27  0  0  0  0  0  0  0  0999 V2000
   57.8454   30.1775   45.0701 C   0  0  0  0  0  0  0  0  0  0  0  0
   56.8507   29.2036   44.9264 C   0  0  0  0  0  0  0  0  0  0  0  0
   55.7397   29.4288   44.1215 O   0  0  0  0  0  0  0  0  0  0  0  0
   56.9749   28.0157   45.5620 N   0  0  0  0  0  0  0  0  0  0  0  0
   58.0470   27.7322   46.3414 C   0  0  0  0  0  0  0  0  0  0  0  0
   58.1016   26.6101   46.9123 O   0  0  0  0  0  0  0  0  0  0  0  0
   59.0534   28.6526   46.4992 N   0  0  0  0  0  0  0  0  0  0  0  0
   58.9632   29.8701   45.8663 C   0  0  0  0  0  0  0  0  0  0  0  0
   59.8764   30.7303   46.0107 O   0  0  0  0  0  0  0  0  0  0  0  0
   57.8278   31.5705   43.1525 O   0  0  0  0  0  0  0  0  0  0  0  0
   57.7211   31.4982   44.4050 C   0  0  0  0  0  0  0  0  0  0  0  0
   57.4358   32.6937   45.1437 N   0  0  0  0  0  0  0  0  0  0  0  0
   58.2859   33.3038   46.1260 C   0  0  0  0  0  0  0  0  0  0  0  0
   59.2134   34.2681   45.7135 C   0  0  0  0  0  0  0  0  0  0  0  0
   60.0660   34.8725   46.6419 C   0  0  0  0  0  0  0  0  0  0  0  0
   60.0079   34.5050   47.9889 C   0  0  0  0  0  0  0  0  0  0  0  0
   59.1030   33.5250   48.4065 C   0  0  0  0  0  0  0  0  0  0  0  0
   58.2501   32.9175   47.4787 C   0  0  0  0  0  0  0  0  0  0  0  0
   60.1967   28.3655   47.3893 C   0  0  0  0  0  0  0  0  0  0  0  0
   60.1861   29.2983   48.5748 C   0  0  0  0  0  0  0  0  0  0  0  0
   61.3117   30.0885   48.8635 C   0  0  0  0  0  0  0  0  0  0  0  0
   61.3182   30.9235   49.9849 C   0  0  0  0  0  0  0  0  0  0  0  0
   60.2039   30.9736   50.8268 C   0  0  0  0  0  0  0  0  0  0  0  0
   59.0813   30.1886   50.5487 C   0  0  0  0  0  0  0  0  0  0  0  0
   59.0714   29.3515   49.4286 C   0  0  0  0  0  0  0  0  0  0  0  0
 10 11  2  0
 11 12  1  0
 12 13  1  0
 13 14  2  0
 14 15  1  0
 15 16  2  0
 16 17  1  0
 17 18  2  0
 11  1  1  0
  1  2  2  0
  2  3  1  0
  2  4  1  0
  4  5  1  0
  5  6  2  0
  5  7  1  0
  7 19  1  0
 19 20  1  0
 20 21  2  0
 21 22  1  0
 22 23  2  0
 23 24  1  0
 24 25  2  0
  7  8  1  0
  8  9  2  0
 18 13  1  0
  8  1  1  0
 25 20  1  0
M  CHG 1   3  -1
M  CHG 1   4  -1
M  CHG 1  12  -1
M  END
> <UniqueID>
63

> <SMILES>
O=C([N-]c1ccccc1)c1c([O-])[n-]c(=O)n(Cc2ccccc2)c1=O

> <Energy>
53.34432523147458

> <Genealogy>
O=C([N-]c1ccccc1)c1c([O-])[n-]c(=O)n(Cc2ccccc2)c1=O (protonated)
O=C([N-]c1ccccc1)c1c([O-])[n-]c(=O)n(Cc2ccccc2)c1=O (3D coordinates assigned)
O=C([N-]c1ccccc1)c1c([O-])[n-]c(=O)n(Cc2ccccc2)c1=O (optimized conformer: 53.34432523147458 kcal/mol)

> <smiles>
O=C(Nc1ccccc1)c1c(O)[nH]c(=O)n(Cc2ccccc2)c1=O

> <score_type>
oracle

> <origin>
adg

> <m_score__min__energy>
-14.34

> <m_primary>
energy

> <minimizedAffinity>
-6.76597

> <minimizedRMSD>
1.16166

> <CNNscore>
0.6300951838

> <CNNaffinity>
6.2267818451

> <CNN_VS>
3.9234652519

> <CNNaffinity_variance>
0.1803671271

$$$$
78:0


 27 28  0  0  0  0  0  0  0  0999 V2000
   58.0422   26.8500   45.2297 C   0  0  0  0  0  0  0  0  0  0  0  0
   58.5337   27.7345   46.1173 C   0  0  0  0  0  0  0  0  0  0  0  0
   57.3078   23.2191   45.9145 N   0  0  0  0  0  0  0  0  0  0  0  0
   56.0072   23.2952   46.3505 C   0  0  0  0  0  0  0  0  0  0  0  0
   55.3702   22.2557   46.6669 O   0  0  0  0  0  0  0  0  0  0  0  0
   55.3886   24.4995   46.4515 N   0  0  0  0  0  0  0  0  0  0  0  0
   56.0130   25.6504   46.1075 C   0  0  0  0  0  0  0  0  0  0  0  0
   55.3462   26.8593   46.2724 O   0  0  0  0  0  0  0  0  0  0  0  0
   57.3214   25.6105   45.6101 C   0  0  0  0  0  0  0  0  0  0  0  0
   57.9649   24.3639   45.5364 C   0  0  0  0  0  0  0  0  0  0  0  0
   59.1507   24.3053   45.1043 O   0  0  0  0  0  0  0  0  0  0  0  0
   57.9751   21.9073   45.7972 C   0  0  0  0  0  0  0  0  0  0  0  0
   58.1825   21.5486   44.3188 C   0  0  0  0  0  0  0  0  0  0  0  0
   56.3122   22.4776   42.8523 C   0  0  0  0  0  0  0  0  0  0  0  0
   56.8634   21.2565   43.5891 C   0  0  0  0  0  0  0  0  0  0  0  0
   59.3621   27.2993   47.2200 C   0  0  0  0  0  0  0  0  0  0  0  0
   60.0245   26.9509   48.1028 N   0  0  0  0  0  0  0  0  0  0  0  0
   58.1532   29.1666   46.0361 C   0  0  0  0  0  0  0  0  0  0  0  0
   57.1581   29.5116   45.3435 O   0  0  0  0  0  0  0  0  0  0  0  0
   58.8474   30.1757   46.7829 N   0  0  0  0  0  0  0  0  0  0  0  0
   59.0110   31.5488   46.3985 C   0  0  0  0  0  0  0  0  0  0  0  0
   60.0542   32.3397   46.9132 C   0  0  0  0  0  0  0  0  0  0  0  0
   60.1966   33.6696   46.5053 C   0  0  0  0  0  0  0  0  0  0  0  0
   59.3104   34.2131   45.5690 C   0  0  0  0  0  0  0  0  0  0  0  0
   59.4507   35.5020   45.1728 F   0  0  0  0  0  0  0  0  0  0  0  0
   58.2873   33.4237   45.0353 C   0  0  0  0  0  0  0  0  0  0  0  0
   58.1433   32.0933   45.4430 C   0  0  0  0  0  0  0  0  0  0  0  0
 14 15  1  0
 15 13  1  0
 13 12  1  0
 12  3  1  0
  3  4  1  0
  4  5  2  0
  4  6  1  0
  6  7  1  0
  7  8  1  0
  7  9  2  0
  9  1  1  0
  1  2  2  0
  2 16  1  0
 16 17  3  0
  2 18  1  0
 18 19  2  0
 18 20  1  0
 20 21  1  0
 21 22  2  0
 22 23  1  0
 23 24  2  0
 24 25  1  0
 24 26  1  0
 26 27  2  0
  9 10  1  0
 10 11  2  0
 10  3  1  0
 27 21  1  0
M  CHG 1   6  -1
M  CHG 1   8  -1
M  CHG 1  20  -1
M  END
> <UniqueID>
74

> <SMILES>
CCCCn1c(=O)[n-]c([O-])c(C=C(C#N)C(=O)[N-]c2ccc(F)cc2)c1=O

> <Energy>
53.39717239704004

> <Genealogy>
CCCCn1c(=O)[n-]c([O-])c(C=C(C#N)C(=O)[N-]c2ccc(F)cc2)c1=O (protonated)
CCCCn1c(=O)[n-]c([O-])c(C=C(C#N)C(=O)[N-]c2ccc(F)cc2)c1=O (3D coordinates assigned)
CCCCn1c(=O)[n-]c([O-])c(C=C(C#N)C(=O)[N-]c2ccc(F)cc2)c1=O (optimized conformer: 53.39717239704004 kcal/mol)

> <smiles>
CCCCn1c(=O)[nH]c(O)c(C=C(C#N)C(=O)Nc2ccc(F)cc2)c1=O

> <score_type>
oracle

> <origin>
adg

> <m_score__min__energy>
-14.59

> <m_primary>
energy

> <minimizedAffinity>
-6.05139

> <minimizedRMSD>
0.72657

> <CNNscore>
0.4209578037

> <CNNaffinity>
6.3839068413

> <CNN_VS>
2.6873555183

> <CNNaffinity_variance>
0.0455735810

$$$$
4:0


 27 29  0  0  0  0  0  0  0  0999 V2000
   59.1001   34.8840   44.8175 O   0  0  0  0  0  0  0  0  0  0  0  0
   58.6598   34.1877   45.7708 C   0  0  0  0  0  0  0  0  0  0  0  0
   57.6246   33.1315   45.4858 C   0  0  0  0  0  0  0  0  0  0  0  0
   58.1441   31.7336   45.8329 C   0  0  0  0  0  0  0  0  0  0  0  0
   57.8257   30.8109   44.7916 O   0  0  0  0  0  0  0  0  0  0  0  0
   57.2843   29.5396   45.0240 C   0  0  0  0  0  0  0  0  0  0  0  0
   56.0562   29.3333   44.8133 O   0  0  0  0  0  0  0  0  0  0  0  0
   58.1419   28.4360   45.5250 C   0  0  0  0  0  0  0  0  0  0  0  0
   59.5378   28.6194   45.6067 C   0  0  0  0  0  0  0  0  0  0  0  0
   60.3650   27.5957   46.0775 C   0  0  0  0  0  0  0  0  0  0  0  0
   59.8143   26.3776   46.4741 C   0  0  0  0  0  0  0  0  0  0  0  0
   58.4348   26.1779   46.4003 C   0  0  0  0  0  0  0  0  0  0  0  0
   57.5971   27.1951   45.9300 C   0  0  0  0  0  0  0  0  0  0  0  0
   56.2273   26.9564   45.8774 O   0  0  0  0  0  0  0  0  0  0  0  0
   59.0705   34.5108   47.1069 N   0  0  0  0  0  0  0  0  0  0  0  0
   60.1759   33.9435   47.8214 C   0  0  0  0  0  0  0  0  0  0  0  0
   61.2837   33.4024   47.1484 C   0  0  0  0  0  0  0  0  0  0  0  0
   62.3563   32.8717   47.8693 C   0  0  0  0  0  0  0  0  0  0  0  0
   62.3479   32.8905   49.2754 C   0  0  0  0  0  0  0  0  0  0  0  0
   61.2564   33.4710   49.9432 C   0  0  0  0  0  0  0  0  0  0  0  0
   60.1834   34.0001   49.2190 C   0  0  0  0  0  0  0  0  0  0  0  0
   63.4499   32.3461   50.0266 N   0  0  0  0  0  0  0  0  0  0  0  0
   63.2794   31.0944   50.7700 C   0  0  0  0  0  0  0  0  0  0  0  0
   64.2419   31.0681   51.9610 C   0  0  0  0  0  0  0  0  0  0  0  0
   65.5699   31.3222   51.5410 O   0  0  0  0  0  0  0  0  0  0  0  0
   65.6651   32.6412   51.0325 C   0  0  0  0  0  0  0  0  0  0  0  0
   64.8199   32.7985   49.7646 C   0  0  0  0  0  0  0  0  0  0  0  0
  1  2  2  0
  2  3  1  0
  3  4  1  0
  4  5  1  0
  5  6  1  0
  6  7  2  0
  6  8  1  0
  8  9  2  0
  9 10  1  0
 10 11  2  0
 11 12  1  0
 12 13  2  0
 13 14  1  0
  2 15  1  0
 15 16  1  0
 16 17  2  0
 17 18  1  0
 18 19  2  0
 19 22  1  0
 22 23  1  0
 23 24  1  0
 24 25  1  0
 25 26  1  0
 26 27  1  0
 19 20  1  0
 20 21  2  0
 13  8  1  0
 21 16  1  0
 27 22  1  0
M  CHG 1  14  -1
M  CHG 1  15  -1
M  END
> <UniqueID>
5

> <SMILES>
O=C(CCOC(=O)c1ccccc1[O-])[N-]c1ccc(N2CCOCC2)cc1

> <Energy>
56.71402419117628

> <Genealogy>
O=C(CCOC(=O)c1ccccc1[O-])[N-]c1ccc(N2CCOCC2)cc1 (protonated)
O=C(CCOC(=O)c1ccccc1[O-])[N-]c1ccc(N2CCOCC2)cc1 (3D coordinates assigned)
O=C(CCOC(=O)c1ccccc1[O-])[N-]c1ccc(N2CCOCC2)cc1 (nonaromatic ring conformer: 56.71402419117628 kcal/mol)

> <smiles>
O=C(CCOC(=O)c1ccccc1O)Nc1ccc(N2CCOCC2)cc1

> <score_type>
oracle

> <origin>
adg

> <m_score__min__energy>
-14.210000000000001

> <m_primary>
energy

> <minimizedAffinity>
-7.31767

> <minimizedRMSD>
1.02885

> <CNNscore>
0.4327384233

> <CNNaffinity>
5.7859358788

> <CNN_VS>
2.5037968159

> <CNNaffinity_variance>
0.0796701536

$$$$
16:0


 28 30  0  0  0  0  0  0  0  0999 V2000
   58.7895   30.1591   46.4538 C   0  0  0  0  0  0  0  0  0  0  0  0
   57.8829   29.7927   45.4410 C   0  0  0  0  0  0  0  0  0  0  0  0
   57.3429   28.5037   45.4041 C   0  0  0  0  0  0  0  0  0  0  0  0
   57.6875   27.5585   46.3756 C   0  0  0  0  0  0  0  0  0  0  0  0
   58.5847   27.9199   47.3962 C   0  0  0  0  0  0  0  0  0  0  0  0
   59.1267   29.2083   47.4362 C   0  0  0  0  0  0  0  0  0  0  0  0
   61.0001   33.0330   47.3337 C   0  0  0  0  0  0  0  0  0  0  0  0
   60.4496   34.0937   46.6095 C   0  0  0  0  0  0  0  0  0  0  0  0
   59.3275   33.8645   45.8127 C   0  0  0  0  0  0  0  0  0  0  0  0
   58.7690   32.5874   45.7439 C   0  0  0  0  0  0  0  0  0  0  0  0
   59.3492   31.5354   46.4777 C   0  0  0  0  0  0  0  0  0  0  0  0
   60.4405   31.7961   47.2528 N   0  0  0  0  0  0  0  0  0  0  0  0
   62.8010   31.8190   49.1794 N   0  0  0  0  0  0  0  0  0  0  0  0
   62.3969   33.2897   48.3640 S   0  0  0  0  0  0  0  0  0  0  0  0
   63.5698   33.7195   47.5269 O   0  0  0  0  0  0  0  0  0  0  0  0
   62.0851   34.3534   49.3814 O   0  0  0  0  0  0  0  0  0  0  0  0
   63.6132   31.9735   49.7768 H   0  0  0  0  0  0  0  0  0  0  0  0
   57.1002   26.2528   46.3017 N   0  0  0  0  0  0  0  0  0  0  0  0
   57.7383   24.9179   45.3965 S   0  0  0  0  0  0  0  0  0  0  0  0
   59.1786   24.7170   45.7772 O   0  0  0  0  0  0  0  0  0  0  0  0
   57.6564   25.2438   43.9320 O   0  0  0  0  0  0  0  0  0  0  0  0
   56.7999   23.4525   45.7061 C   0  0  0  0  0  0  0  0  0  0  0  0
   57.4522   22.2128   45.7885 C   0  0  0  0  0  0  0  0  0  0  0  0
   56.7218   21.0460   46.0305 C   0  0  0  0  0  0  0  0  0  0  0  0
   55.3366   21.1102   46.2004 C   0  0  0  0  0  0  0  0  0  0  0  0
   54.6808   22.3420   46.1331 C   0  0  0  0  0  0  0  0  0  0  0  0
   55.4060   23.5138   45.8903 C   0  0  0  0  0  0  0  0  0  0  0  0
   54.7346   24.7297   45.8414 O   0  0  0  0  0  0  0  0  0  0  0  0
 13 14  1  0
 14 15  2  0
 14 16  2  0
 14  7  1  0
  7  8  2  0
  8  9  1  0
  9 10  2  0
 10 11  1  0
 11  1  1  0
  1  2  2  0
  2  3  1  0
  3  4  2  0
  4 18  1  0
 18 19  1  0
 19 20  2  0
 19 21  2  0
 19 22  1  0
 22 23  2  0
 23 24  1  0
 24 25  2  0
 25 26  1  0
 26 27  2  0
 27 28  1  0
  4  5  1  0
  5  6  2  0
 11 12  2  0
 12  7  1  0
  6  1  1  0
 27 22  1  0
 13 17  1  0
M  CHG 1  13  -1
M  CHG 1  18  -1
M  CHG 1  28  -1
M  END
> <UniqueID>
15

> <SMILES>
[NH-]S(=O)(=O)c1cccc(-c2ccc([N-]S(=O)(=O)c3ccccc3[O-])cc2)n1

> <Energy>
49.79808730739532

> <Genealogy>
[NH-]S(=O)(=O)c1cccc(-c2ccc([N-]S(=O)(=O)c3ccccc3[O-])cc2)n1 (protonated)
[NH-]S(=O)(=O)c1cccc(-c2ccc([N-]S(=O)(=O)c3ccccc3[O-])cc2)n1 (3D coordinates assigned)
[NH-]S(=O)(=O)c1cccc(-c2ccc([N-]S(=O)(=O)c3ccccc3[O-])cc2)n1 (optimized conformer: 49.79808730739532 kcal/mol)

> <smiles>
NS(=O)(=O)c1cccc(-c2ccc(NS(=O)(=O)c3ccccc3O)cc2)n1

> <score_type>
oracle

> <origin>
adg

> <m_score__min__energy>
-14.1

> <m_primary>
energy

> <minimizedAffinity>
-8.09566

> <minimizedRMSD>
1.44349

> <CNNscore>
0.3509555757

> <CNNaffinity>
6.0975794792

> <CNN_VS>
2.1399796009

> <CNNaffinity_variance>
0.0473198704

$$$$
44:0


 28 30  0  0  0  0  0  0  0  0999 V2000
   58.3844   31.5330   45.1818 C   0  0  0  0  0  0  0  0  0  0  0  0
   57.8360   32.6591   44.5537 C   0  0  0  0  0  0  0  0  0  0  0  0
   57.9566   33.9236   45.1318 C   0  0  0  0  0  0  0  0  0  0  0  0
   58.6363   34.0784   46.3401 C   0  0  0  0  0  0  0  0  0  0  0  0
   59.2197   32.9726   46.9608 C   0  0  0  0  0  0  0  0  0  0  0  0
   59.1261   31.6964   46.3805 C   0  0  0  0  0  0  0  0  0  0  0  0
   59.8342   30.5803   47.0361 C   0  0  0  0  0  0  0  0  0  0  0  0
   60.8258   30.0592   46.4604 O   0  0  0  0  0  0  0  0  0  0  0  0
   59.4043   30.0432   48.2925 N   0  0  0  0  0  0  0  0  0  0  0  0
   60.2635   29.8939   49.4605 C   0  0  0  0  0  0  0  0  0  0  0  0
   60.9914   31.1815   49.7097 C   0  0  0  0  0  0  0  0  0  0  0  0
   62.3474   31.3030   49.3675 C   0  0  0  0  0  0  0  0  0  0  0  0
   63.0381   32.4895   49.6312 C   0  0  0  0  0  0  0  0  0  0  0  0
   62.3811   33.5595   50.2465 C   0  0  0  0  0  0  0  0  0  0  0  0
   63.0511   34.7101   50.5022 F   0  0  0  0  0  0  0  0  0  0  0  0
   61.0344   33.4406   50.6040 C   0  0  0  0  0  0  0  0  0  0  0  0
   60.3424   32.2538   50.3421 C   0  0  0  0  0  0  0  0  0  0  0  0
   58.1722   30.2512   44.5669 N   0  0  0  0  0  0  0  0  0  0  0  0
   55.9506   29.6276   44.7767 O   0  0  0  0  0  0  0  0  0  0  0  0
   57.1581   29.2955   44.9055 C   0  0  0  0  0  0  0  0  0  0  0  0
   57.4789   27.9499   45.4248 C   0  0  0  0  0  0  0  0  0  0  0  0
   58.8028   27.5330   45.6269 C   0  0  0  0  0  0  0  0  0  0  0  0
   59.0315   26.2466   46.1206 C   0  0  0  0  0  0  0  0  0  0  0  0
   60.2080   25.8387   46.3057 O   0  0  0  0  0  0  0  0  0  0  0  0
   57.9818   25.4343   46.4057 N   0  0  0  0  0  0  0  0  0  0  0  0
   56.7035   25.8562   46.2230 C   0  0  0  0  0  0  0  0  0  0  0  0
   55.7428   25.0912   46.4975 O   0  0  0  0  0  0  0  0  0  0  0  0
   56.4613   27.1024   45.7409 N   0  0  0  0  0  0  0  0  0  0  0  0
 19 20  2  0
 20 18  1  0
 18  1  1  0
  1  2  2  0
  2  3  1  0
  3  4  2  0
  4  5  1  0
  5  6  2  0
  6  7  1  0
  7  8  2  0
  7  9  1  0
  9 10  1  0
 10 11  1  0
 11 12  2  0
 12 13  1  0
 13 14  2  0
 14 15  1  0
 14 16  1  0
 16 17  2  0
 20 21  1  0
 21 22  2  0
 22 23  1  0
 23 24  2  0
 23 25  1  0
 25 26  1  0
 26 27  2  0
 26 28  1  0
  6  1  1  0
 17 11  1  0
 28 21  1  0
M  CHG 1   9  -1
M  CHG 1  18  -1
M  CHG 1  25  -1
M  CHG 1  28  -1
M  END
> <UniqueID>
43

> <SMILES>
O=C([N-]c1ccccc1C(=O)[N-]Cc1ccc(F)cc1)c1cc(=O)[n-]c(=O)[n-]1

> <Energy>
55.10331887067

> <Genealogy>
O=C([N-]c1ccccc1C(=O)[N-]Cc1ccc(F)cc1)c1cc(=O)[n-]c(=O)[n-]1 (protonated)
O=C([N-]c1ccccc1C(=O)[N-]Cc1ccc(F)cc1)c1cc(=O)[n-]c(=O)[n-]1 (3D coordinates assigned)
O=C([N-]c1ccccc1C(=O)[N-]Cc1ccc(F)cc1)c1cc(=O)[n-]c(=O)[n-]1 (optimized conformer: 55.10331887067 kcal/mol)

> <smiles>
O=C(Nc1ccccc1C(=O)NCc1ccc(F)cc1)c1cc(=O)[nH]c(=O)[nH]1

> <score_type>
oracle

> <origin>
adg

> <m_score__min__energy>
-16.16

> <m_primary>
energy

> <minimizedAffinity>
-7.77622

> <minimizedRMSD>
1.51419

> <CNNscore>
0.8401145935

> <CNNaffinity>
6.9790177345

> <CNN_VS>
5.8631744385

> <CNNaffinity_variance>
0.2079797983

$$$$
56:0


 32 35  0  0  0  0  0  0  0  0999 V2000
   56.2024   30.4446   44.7746 O   0  0  0  0  0  0  0  0  0  0  0  0
   57.4596   30.4942   44.8467 C   0  0  0  0  0  0  0  0  0  0  0  0
   58.1090   31.7366   45.3268 C   0  0  0  0  0  0  0  0  0  0  0  0
   58.1670   32.8795   44.5097 C   0  0  0  0  0  0  0  0  0  0  0  0
   58.7805   34.0468   44.9722 C   0  0  0  0  0  0  0  0  0  0  0  0
   59.3554   34.0802   46.2449 C   0  0  0  0  0  0  0  0  0  0  0  0
   59.3206   32.9434   47.0622 C   0  0  0  0  0  0  0  0  0  0  0  0
   58.6970   31.7755   46.6015 C   0  0  0  0  0  0  0  0  0  0  0  0
   60.0362   32.9692   48.6732 S   0  0  0  0  0  0  0  0  0  0  0  0
   60.4230   34.3860   48.9957 O   0  0  0  0  0  0  0  0  0  0  0  0
   59.0351   32.4988   49.6923 O   0  0  0  0  0  0  0  0  0  0  0  0
   61.4571   31.9446   48.7015 N   0  0  0  0  0  0  0  0  0  0  0  0
   62.4762   32.5034   49.5962 C   0  0  0  0  0  0  0  0  0  0  0  0
   63.4368   33.3406   48.7628 C   0  0  0  0  0  0  0  0  0  0  0  0
   63.1444   32.9832   47.3173 C   0  0  0  0  0  0  0  0  0  0  0  0
   62.0809   31.8987   47.3761 C   0  0  0  0  0  0  0  0  0  0  0  0
   58.2117   29.3184   44.5173 N   0  0  0  0  0  0  0  0  0  0  0  0
   58.4698   28.2048   45.3879 C   0  0  0  0  0  0  0  0  0  0  0  0
   59.0453   28.3785   46.6583 C   0  0  0  0  0  0  0  0  0  0  0  0
   59.2960   27.2722   47.4740 C   0  0  0  0  0  0  0  0  0  0  0  0
   58.9926   25.9851   47.0225 C   0  0  0  0  0  0  0  0  0  0  0  0
   58.4365   25.7953   45.7478 C   0  0  0  0  0  0  0  0  0  0  0  0
   58.1902   26.9108   44.9308 C   0  0  0  0  0  0  0  0  0  0  0  0
   58.1572   24.4065   45.2395 C   0  0  0  0  0  0  0  0  0  0  0  0
   56.6701   24.1691   45.1528 C   0  0  0  0  0  0  0  0  0  0  0  0
   55.8132   24.7067   46.1219 C   0  0  0  0  0  0  0  0  0  0  0  0
   54.4707   24.5259   46.0232 N   0  0  0  0  0  0  0  0  0  0  0  0
   53.9341   23.8339   44.9855 C   0  0  0  0  0  0  0  0  0  0  0  0
   52.6883   23.6821   44.9093 O   0  0  0  0  0  0  0  0  0  0  0  0
   54.7407   23.3113   44.0259 N   0  0  0  0  0  0  0  0  0  0  0  0
   56.0894   23.4639   44.0835 C   0  0  0  0  0  0  0  0  0  0  0  0
   56.8047   22.9677   43.1724 O   0  0  0  0  0  0  0  0  0  0  0  0
  1  2  2  0
  2 17  1  0
 17 18  1  0
 18 19  2  0
 19 20  1  0
 20 21  2  0
 21 22  1  0
 22 24  1  0
 24 25  1  0
 25 26  2  0
 26 27  1  0
 27 28  1  0
 28 29  2  0
 28 30  1  0
 30 31  1  0
 31 32  2  0
 22 23  2  0
  2  3  1  0
  3  4  2  0
  4  5  1  0
  5  6  2  0
  6  7  1  0
  7  9  1  0
  9 10  2  0
  9 11  2  0
  9 12  1  0
 12 13  1  0
 13 14  1  0
 14 15  1  0
 15 16  1  0
  7  8  2  0
 23 18  1  0
  8  3  1  0
 31 25  1  0
 16 12  1  0
M  CHG 1  17  -1
M  CHG 1  27  -1
M  CHG 1  30  -1
M  END
> <UniqueID>
54

> <SMILES>
O=C([N-]c1cccc(Cc2c[n-]c(=O)[n-]c2=O)c1)c1cccc(S(=O)(=O)N2CCCC2)c1

> <Energy>
63.037062020501544

> <Genealogy>
O=C([N-]c1cccc(Cc2c[n-]c(=O)[n-]c2=O)c1)c1cccc(S(=O)(=O)N2CCCC2)c1 (protonated)
O=C([N-]c1cccc(Cc2c[n-]c(=O)[n-]c2=O)c1)c1cccc(S(=O)(=O)N2CCCC2)c1 (3D coordinates assigned)
O=C([N-]c1cccc(Cc2c[n-]c(=O)[n-]c2=O)c1)c1cccc(S(=O)(=O)N2CCCC2)c1 (nonaromatic ring conformer: 63.037062020501544 kcal/mol)

> <smiles>
O=C(Nc1cccc(Cc2c[nH]c(=O)[nH]c2=O)c1)c1cccc(S(=O)(=O)N2CCCC2)c1

> <score_type>
oracle

> <origin>
adg

> <m_score__min__energy>
-16.300000000000001

> <m_primary>
energy

> <minimizedAffinity>
-10.27367

> <minimizedRMSD>
0.66392

> <CNNscore>
0.5649362206

> <CNNaffinity>
7.2538924217

> <CNN_VS>
4.0979866982

> <CNNaffinity_variance>
0.0106896134

$$$$
72:0


 26 28  0  0  0  0  0  0  0  0999 V2000
   55.6588   29.6159   53.5973 C   0  0  0  0  0  0  0  0  0  0  0  0
   55.6858   30.6536   52.6480 C   0  0  0  0  0  0  0  0  0  0  0  0
   56.8699   30.9564   51.9721 C   0  0  0  0  0  0  0  0  0  0  0  0
   58.0344   30.2208   52.2245 C   0  0  0  0  0  0  0  0  0  0  0  0
   57.9994   29.1645   53.1427 C   0  0  0  0  0  0  0  0  0  0  0  0
   56.8153   28.8611   53.8207 C   0  0  0  0  0  0  0  0  0  0  0  0
   59.5258   30.6223   51.3791 S   0  0  0  0  0  0  0  0  0  0  0  0
   60.4763   29.4591   51.4362 O   0  0  0  0  0  0  0  0  0  0  0  0
   59.2006   30.9263   49.9436 O   0  0  0  0  0  0  0  0  0  0  0  0
   60.2678   32.0161   52.1280 N   0  0  0  0  0  0  0  0  0  0  0  0
   59.6987   33.2769   51.5994 C   0  0  0  0  0  0  0  0  0  0  0  0
   58.7713   33.9682   52.6132 C   0  0  0  0  0  0  0  0  0  0  0  0
   59.4169   34.2699   53.8410 O   0  0  0  0  0  0  0  0  0  0  0  0
   60.3611   33.2865   54.2506 C   0  0  0  0  0  0  0  0  0  0  0  0
   60.1681   31.9088   53.5961 C   0  0  0  0  0  0  0  0  0  0  0  0
   54.4600   29.2787   54.3105 N   0  0  0  0  0  0  0  0  0  0  0  0
   52.7243   27.9182   53.5960 O   0  0  0  0  0  0  0  0  0  0  0  0
   53.1590   29.0924   53.7351 C   0  0  0  0  0  0  0  0  0  0  0  0
   52.2952   30.2359   53.3514 C   0  0  0  0  0  0  0  0  0  0  0  0
   51.4733   30.8515   54.3084 C   0  0  0  0  0  0  0  0  0  0  0  0
   50.6649   31.9277   53.9345 C   0  0  0  0  0  0  0  0  0  0  0  0
   49.8393   32.5359   54.8712 O   0  0  0  0  0  0  0  0  0  0  0  0
   50.6824   32.3816   52.6544 N   0  0  0  0  0  0  0  0  0  0  0  0
   51.4780   31.8170   51.7075 C   0  0  0  0  0  0  0  0  0  0  0  0
   51.4705   32.2694   50.5331 O   0  0  0  0  0  0  0  0  0  0  0  0
   52.3037   30.7386   52.0397 C   0  0  0  0  0  0  0  0  0  0  0  0
 17 18  2  0
 18 16  1  0
 16  1  1  0
  1  2  2  0
  2  3  1  0
  3  4  2  0
  4  7  1  0
  7  8  2  0
  7  9  2  0
  7 10  1  0
 10 11  1  0
 11 12  1  0
 12 13  1  0
 13 14  1  0
 14 15  1  0
  4  5  1  0
  5  6  2  0
 18 19  1  0
 19 20  1  0
 20 21  2  0
 21 22  1  0
 21 23  1  0
 23 24  1  0
 24 25  2  0
 24 26  1  0
  6  1  1  0
 26 19  2  0
 15 10  1  0
M  CHG 1  16  -1
M  CHG 1  22  -1
M  CHG 1  23  -1
M  END
> <UniqueID>
70

> <SMILES>
O=C([N-]c1ccc(S(=O)(=O)N2CCOCC2)cc1)c1cc([O-])[n-]c(=O)c1

> <Energy>
61.5112724487991

> <Genealogy>
O=C([N-]c1ccc(S(=O)(=O)N2CCOCC2)cc1)c1cc([O-])[n-]c(=O)c1 (protonated)
O=C([N-]c1ccc(S(=O)(=O)N2CCOCC2)cc1)c1cc([O-])[n-]c(=O)c1 (3D coordinates assigned)
O=C([N-]c1ccc(S(=O)(=O)N2CCOCC2)cc1)c1cc([O-])[n-]c(=O)c1 (nonaromatic ring conformer: 61.5112724487991 kcal/mol)

> <smiles>
O=C(Nc1ccc(S(=O)(=O)N2CCOCC2)cc1)c1cc(O)[nH]c(=O)c1

> <score_type>
oracle

> <origin>
adg

> <m_score__min__energy>
-16.129999999999999

> <m_primary>
energy

> <minimizedAffinity>
-5.64279

> <minimizedRMSD>
1.39627

> <CNNscore>
0.2415795028

> <CNNaffinity>
4.4581294060

> <CNN_VS>
1.0769926310

> <CNNaffinity_variance>
0.2464391589

$$$$
57:0


 24 26  0  0  0  0  0  0  0  0999 V2000
   58.8110   28.2865   56.7506 C   0  0  0  0  0  0  0  0  0  0  0  0
   57.6025   27.9803   56.2216 N   0  0  0  0  0  0  0  0  0  0  0  0
   57.2784   28.2680   54.9328 C   0  0  0  0  0  0  0  0  0  0  0  0
   56.0834   27.9264   54.5227 N   0  0  0  0  0  0  0  0  0  0  0  0
   58.2635   28.8880   54.1084 C   0  0  0  0  0  0  0  0  0  0  0  0
   58.0184   29.1174   52.8487 N   0  0  0  0  0  0  0  0  0  0  0  0
   59.4782   29.1997   54.6611 N   0  0  0  0  0  0  0  0  0  0  0  0
   59.7638   28.9142   55.9577 C   0  0  0  0  0  0  0  0  0  0  0  0
   60.1600   29.6412   54.1049 H   0  0  0  0  0  0  0  0  0  0  0  0
   54.9782   28.7776   54.1912 C   0  0  0  0  0  0  0  0  0  0  0  0
   54.0479   29.1634   55.1873 C   0  0  0  0  0  0  0  0  0  0  0  0
   52.9556   29.9881   54.8623 C   0  0  0  0  0  0  0  0  0  0  0  0
   52.8121   30.3915   53.5360 C   0  0  0  0  0  0  0  0  0  0  0  0
   51.8397   31.1752   53.0346 N   0  0  0  0  0  0  0  0  0  0  0  0
   52.1448   31.2626   51.7180 C   0  0  0  0  0  0  0  0  0  0  0  0
   51.3846   31.9913   50.8137 O   0  0  0  0  0  0  0  0  0  0  0  0
   53.2871   30.5494   51.3813 C   0  0  0  0  0  0  0  0  0  0  0  0
   53.7006   29.9967   52.5683 C   0  0  0  0  0  0  0  0  0  0  0  0
   54.7915   29.1800   52.8542 C   0  0  0  0  0  0  0  0  0  0  0  0
   58.8998   30.1475   51.7638 S   0  0  0  0  0  0  0  0  0  0  0  0
   60.3597   29.8052   51.8634 O   0  0  0  0  0  0  0  0  0  0  0  0
   58.4508   29.9145   50.3492 O   0  0  0  0  0  0  0  0  0  0  0  0
   58.6810   31.8626   52.2148 C   0  0  0  0  0  0  0  0  0  0  0  0
   57.2066   32.1790   52.4370 C   0  0  0  0  0  0  0  0  0  0  0  0
  1  2  1  0
  2  3  1  0
  3  4  2  0
  4 10  1  0
 10 11  2  0
 11 12  1  0
 12 13  2  0
 13 14  1  0
 14 15  1  0
 15 16  1  0
 15 17  2  0
 17 18  1  0
 18 19  2  0
  3  5  1  0
  5  6  2  0
  6 20  1  0
 20 21  2  0
 20 22  2  0
 20 23  1  0
 23 24  1  0
  5  7  1  0
  7  8  1  0
  8  1  2  0
 19 10  1  0
 18 13  1  0
  7  9  1  0
M  CHG 1   2  -1
M  CHG 1  14  -1
M  CHG 1  16  -1
M  END
> <UniqueID>
51

> <SMILES>
CCS(=O)(=O)/N=c1\[nH]cc[n-]\c1=N\c1ccc2[n-]c([O-])cc2c1

> <Energy>
82.33598515151621

> <Genealogy>
CCS(=O)(=O)N=c1[nH]cc[n-]c1=Nc1ccc2[n-]c([O-])cc2c1 (protonated)
CCS(=O)(=O)/N=c1\[nH]cc[n-]\c1=N\c1ccc2[n-]c([O-])cc2c1 (cis-trans isomerization)
CCS(=O)(=O)/N=c1\[nH]cc[n-]\c1=N\c1ccc2[n-]c([O-])cc2c1 (3D coordinates assigned)
CCS(=O)(=O)/N=c1\[nH]cc[n-]\c1=N\c1ccc2[n-]c([O-])cc2c1 (optimized conformer: 82.33598515151621 kcal/mol)

> <smiles>
CCS(=O)(=O)N=c1[nH]cc[nH]c1=Nc1ccc2[nH]c(O)cc2c1

> <score_type>
oracle

> <origin>
adg

> <m_score__min__energy>
-14.109999999999999

> <m_primary>
energy

> <minimizedAffinity>
-4.68252

> <minimizedRMSD>
2.06468

> <CNNscore>
0.4151085913

> <CNNaffinity>
4.6060900688

> <CNN_VS>
1.9120275974

> <CNNaffinity_variance>
0.1128154397

$$$$
89:0


 28 30  0  0  0  0  0  0  0  0999 V2000
   57.3508   31.3297   45.6970 N   0  0  0  0  0  0  0  0  0  0  0  0
   58.3683   32.3235   45.8665 C   0  0  0  0  0  0  0  0  0  0  0  0
   58.3036   33.4816   45.0792 C   0  0  0  0  0  0  0  0  0  0  0  0
   59.2669   34.4836   45.2093 C   0  0  0  0  0  0  0  0  0  0  0  0
   60.2969   34.3461   46.1421 C   0  0  0  0  0  0  0  0  0  0  0  0
   60.3558   33.2131   46.9563 C   0  0  0  0  0  0  0  0  0  0  0  0
   59.3930   32.1989   46.8348 C   0  0  0  0  0  0  0  0  0  0  0  0
   59.4582   31.0605   47.7727 C   0  0  0  0  0  0  0  0  0  0  0  0
   59.0674   31.2415   48.9580 O   0  0  0  0  0  0  0  0  0  0  0  0
   59.8576   29.7420   47.3372 N   0  0  0  0  0  0  0  0  0  0  0  0
   59.3662   28.5785   48.0942 C   0  0  0  0  0  0  0  0  0  0  0  0
   60.1650   27.3127   47.7629 C   0  0  0  0  0  0  0  0  0  0  0  0
   60.3130   27.1494   46.3676 O   0  0  0  0  0  0  0  0  0  0  0  0
   61.0974   28.2057   45.8543 C   0  0  0  0  0  0  0  0  0  0  0  0
   60.3461   29.5341   45.9654 C   0  0  0  0  0  0  0  0  0  0  0  0
   57.8648   30.6871   43.5056 O   0  0  0  0  0  0  0  0  0  0  0  0
   57.2725   30.4291   44.5884 C   0  0  0  0  0  0  0  0  0  0  0  0
   56.4354   29.1974   44.7041 C   0  0  0  0  0  0  0  0  0  0  0  0
   57.1963   28.1501   45.3664 N   0  0  0  0  0  0  0  0  0  0  0  0
   57.6597   26.9788   44.6852 C   0  0  0  0  0  0  0  0  0  0  0  0
   58.2721   27.1009   43.5885 O   0  0  0  0  0  0  0  0  0  0  0  0
   57.4202   25.6355   45.2674 C   0  0  0  0  0  0  0  0  0  0  0  0
   58.4053   24.6377   45.1368 C   0  0  0  0  0  0  0  0  0  0  0  0
   58.2069   23.3644   45.6827 C   0  0  0  0  0  0  0  0  0  0  0  0
   57.0234   23.0696   46.3614 C   0  0  0  0  0  0  0  0  0  0  0  0
   56.0363   24.0459   46.4983 C   0  0  0  0  0  0  0  0  0  0  0  0
   56.2259   25.3239   45.9588 C   0  0  0  0  0  0  0  0  0  0  0  0
   55.2265   26.2775   46.1354 O   0  0  0  0  0  0  0  0  0  0  0  0
 16 17  2  0
 17 18  1  0
 18 19  1  0
 19 20  1  0
 20 21  2  0
 20 22  1  0
 22 23  2  0
 23 24  1  0
 24 25  2  0
 25 26  1  0
 26 27  2  0
 27 28  1  0
 17  1  1  0
  1  2  1  0
  2  3  2  0
  3  4  1  0
  4  5  2  0
  5  6  1  0
  6  7  2  0
  7  8  1  0
  8  9  2  0
  8 10  1  0
 10 11  1  0
 11 12  1  0
 12 13  1  0
 13 14  1  0
 14 15  1  0
 27 22  1  0
  7  2  1  0
 15 10  1  0
M  CHG 1   1  -1
M  CHG 1  19  -1
M  CHG 1  28  -1
M  END
> <UniqueID>
81

> <SMILES>
O=C(C[N-]C(=O)c1ccccc1[O-])[N-]c1ccccc1C(=O)N1CCOCC1

> <Energy>
61.02954505707156

> <Genealogy>
O=C(C[N-]C(=O)c1ccccc1[O-])[N-]c1ccccc1C(=O)N1CCOCC1 (protonated)
O=C(C[N-]C(=O)c1ccccc1[O-])[N-]c1ccccc1C(=O)N1CCOCC1 (3D coordinates assigned)
O=C(C[N-]C(=O)c1ccccc1[O-])[N-]c1ccccc1C(=O)N1CCOCC1 (nonaromatic ring conformer: 61.02954505707156 kcal/mol)

> <smiles>
O=C(CNC(=O)c1ccccc1O)Nc1ccccc1C(=O)N1CCOCC1

> <score_type>
oracle

> <origin>
adg

> <m_score__min__energy>
-15.49

> <m_primary>
energy

> <minimizedAffinity>
-6.50620

> <minimizedRMSD>
0.73076

> <CNNscore>
0.6138889194

> <CNNaffinity>
6.3622221947

> <CNN_VS>
3.9056978226

> <CNNaffinity_variance>
0.1009209976

$$$$
95:0


 29 32  0  0  0  0  0  0  0  0999 V2000
   57.3493   30.9488   52.5856 C   0  0  0  0  0  0  0  0  0  0  0  0
   57.8011   31.8938   53.5170 C   0  0  0  0  0  0  0  0  0  0  0  0
   58.7305   32.8477   53.1053 C   0  0  0  0  0  0  0  0  0  0  0  0
   59.1806   32.8481   51.8255 N   0  0  0  0  0  0  0  0  0  0  0  0
   58.7379   31.9268   50.9268 C   0  0  0  0  0  0  0  0  0  0  0  0
   59.1652   31.9308   49.7011 N   0  0  0  0  0  0  0  0  0  0  0  0
   57.8316   30.9927   51.3141 N   0  0  0  0  0  0  0  0  0  0  0  0
   52.7413   30.4660   52.0912 C   0  0  0  0  0  0  0  0  0  0  0  0
   52.3057   29.2434   52.6736 C   0  0  0  0  0  0  0  0  0  0  0  0
   53.2200   28.3714   53.2880 C   0  0  0  0  0  0  0  0  0  0  0  0
   54.5602   28.7432   53.3081 C   0  0  0  0  0  0  0  0  0  0  0  0
   55.5878   28.0599   53.8385 N   0  0  0  0  0  0  0  0  0  0  0  0
   56.6875   28.7798   53.6343 N   0  0  0  0  0  0  0  0  0  0  0  0
   56.3632   29.9190   52.9736 C   0  0  0  0  0  0  0  0  0  0  0  0
   54.9955   29.9128   52.7541 C   0  0  0  0  0  0  0  0  0  0  0  0
   54.1157   30.8054   52.1346 C   0  0  0  0  0  0  0  0  0  0  0  0
   51.0701   32.3545   52.2140 N   0  0  0  0  0  0  0  0  0  0  0  0
   51.7648   31.3742   51.4460 C   0  0  0  0  0  0  0  0  0  0  0  0
   51.5382   31.2891   50.2087 O   0  0  0  0  0  0  0  0  0  0  0  0
   50.4228   32.9541   51.7773 H   0  0  0  0  0  0  0  0  0  0  0  0
   59.8828   33.3122   48.9342 S   0  0  0  0  0  0  0  0  0  0  0  0
   61.3615   33.0881   48.7971 O   0  0  0  0  0  0  0  0  0  0  0  0
   59.6485   34.5238   49.7916 O   0  0  0  0  0  0  0  0  0  0  0  0
   59.1876   33.5417   47.3322 C   0  0  0  0  0  0  0  0  0  0  0  0
   59.8642   34.3005   46.3652 C   0  0  0  0  0  0  0  0  0  0  0  0
   59.3008   34.4844   45.0981 C   0  0  0  0  0  0  0  0  0  0  0  0
   58.0639   33.9109   44.7912 C   0  0  0  0  0  0  0  0  0  0  0  0
   57.3889   33.1492   45.7513 C   0  0  0  0  0  0  0  0  0  0  0  0
   57.9505   32.9631   47.0182 C   0  0  0  0  0  0  0  0  0  0  0  0
 17 18  1  0
 18 19  2  0
 18  8  1  0
  8  9  2  0
  9 10  1  0
 10 11  2  0
 11 12  1  0
 12 13  1  0
 13 14  2  0
 14  1  1  0
  1  2  1  0
  2  3  2  0
  3  4  1  0
  4  5  1  0
  5  6  2  0
  6 21  1  0
 21 22  2  0
 21 23  2  0
 21 24  1  0
 24 25  2  0
 25 26  1  0
 26 27  2  0
 27 28  1  0
 28 29  2  0
  5  7  1  0
 14 15  1  0
 15 16  2  0
 16  8  1  0
 15 11  1  0
  7  1  2  0
 29 24  1  0
 17 20  1  0
M  CHG 1   4  -1
M  CHG 1  12  -1
M  CHG 1  17  -1
M  END
> <UniqueID>
87

> <SMILES>
[NH-]C(=O)c1ccc2[n-]nc(-c3cc[n-]c(=NS(=O)(=O)c4ccccc4)n3)c2c1

> <Energy>
87.27594274207738

> <Genealogy>
[NH-]C(=O)c1ccc2[n-]nc(-c3cc[n-]c(=NS(=O)(=O)c4ccccc4)n3)c2c1 (protonated)
[NH-]C(=O)c1ccc2[n-]nc(-c3cc[n-]c(=NS(=O)(=O)c4ccccc4)n3)c2c1 (3D coordinates assigned)
[NH-]C(=O)c1ccc2[n-]nc(-c3cc[n-]c(=NS(=O)(=O)c4ccccc4)n3)c2c1 (optimized conformer: 87.27594274207738 kcal/mol)

> <smiles>
NC(=O)c1ccc2[nH]nc(-c3cc[nH]c(=NS(=O)(=O)c4ccccc4)n3)c2c1

> <score_type>
oracle

> <origin>
adg

> <m_score__min__energy>
-14.75

> <m_primary>
energy

> <minimizedAffinity>
-7.87962

> <minimizedRMSD>
0.59460

> <CNNscore>
0.4559945166

> <CNNaffinity>
6.0110917091

> <CNN_VS>
2.7410249710

> <CNNaffinity_variance>
0.1302234083

$$$$
10:0


 32 35  0  0  0  0  0  0  0  0999 V2000
   57.3898   29.1757   44.9500 N   0  0  0  0  0  0  0  0  0  0  0  0
   58.1135   30.3353   45.3795 C   0  0  0  0  0  0  0  0  0  0  0  0
   57.7510   31.6257   44.9574 C   0  0  0  0  0  0  0  0  0  0  0  0
   58.4511   32.7428   45.4219 C   0  0  0  0  0  0  0  0  0  0  0  0
   59.5087   32.5850   46.3260 C   0  0  0  0  0  0  0  0  0  0  0  0
   59.8505   31.3010   46.7727 C   0  0  0  0  0  0  0  0  0  0  0  0
   59.1515   30.1847   46.3071 C   0  0  0  0  0  0  0  0  0  0  0  0
   60.3788   33.9870   46.9438 S   0  0  0  0  0  0  0  0  0  0  0  0
   59.6190   35.2525   46.6574 O   0  0  0  0  0  0  0  0  0  0  0  0
   61.7154   34.0615   46.2602 O   0  0  0  0  0  0  0  0  0  0  0  0
   60.6218   33.8359   48.6562 N   0  0  0  0  0  0  0  0  0  0  0  0
   61.7594   33.5343   49.2098 C   0  0  0  0  0  0  0  0  0  0  0  0
   62.1770   34.1678   50.3449 N   0  0  0  0  0  0  0  0  0  0  0  0
   63.3435   33.8399   50.9581 C   0  0  0  0  0  0  0  0  0  0  0  0
   64.1631   32.8431   50.4218 C   0  0  0  0  0  0  0  0  0  0  0  0
   63.7686   32.1962   49.2483 C   0  0  0  0  0  0  0  0  0  0  0  0
   62.5590   32.5371   48.6406 C   0  0  0  0  0  0  0  0  0  0  0  0
   57.8004   27.8098   45.1018 C   0  0  0  0  0  0  0  0  0  0  0  0
   58.3292   27.2231   44.1208 O   0  0  0  0  0  0  0  0  0  0  0  0
   57.5893   27.0557   46.3872 C   0  0  0  0  0  0  0  0  0  0  0  0
   59.6517   24.8562   45.9169 O   0  0  0  0  0  0  0  0  0  0  0  0
   58.2689   24.6685   45.8974 C   0  0  0  0  0  0  0  0  0  0  0  0
   57.6442   23.4671   45.6316 C   0  0  0  0  0  0  0  0  0  0  0  0
   56.2942   23.7060   45.6694 C   0  0  0  0  0  0  0  0  0  0  0  0
   56.1401   25.0466   45.9599 C   0  0  0  0  0  0  0  0  0  0  0  0
   54.9225   25.7108   46.0674 O   0  0  0  0  0  0  0  0  0  0  0  0
   57.3470   25.6373   46.1168 N   0  0  0  0  0  0  0  0  0  0  0  0
   55.2528   22.6741   45.3790 C   0  0  0  0  0  0  0  0  0  0  0  0
   55.8658   21.3021   45.1828 C   0  0  0  0  0  0  0  0  0  0  0  0
   57.1978   21.0665   45.1447 C   0  0  0  0  0  0  0  0  0  0  0  0
   58.2519   22.1438   45.2953 C   0  0  0  0  0  0  0  0  0  0  0  0
   60.2250   24.1330   45.7548 H   0  0  0  0  0  0  0  0  0  0  0  0
 21 22  1  0
 22 23  2  0
 23 24  1  0
 24 25  2  0
 25 26  1  0
 25 27  1  0
 27 20  1  0
 20 18  1  0
 18 19  2  0
 18  1  1  0
  1  2  1  0
  2  3  2  0
  3  4  1  0
  4  5  2  0
  5  8  1  0
  8  9  2  0
  8 10  2  0
  8 11  1  0
 11 12  2  0
 12 13  1  0
 13 14  1  0
 14 15  2  0
 15 16  1  0
 16 17  2  0
  5  6  1  0
  6  7  2  0
 24 28  1  0
 28 29  1  0
 29 30  2  0
 30 31  1  0
 27 22  1  0
  7  2  1  0
 31 23  1  0
 17 12  1  0
 21 32  1  0
M  CHG 1   1  -1
M  CHG 1  13  -1
M  CHG 1  26  -1
M  END
> <UniqueID>
7

> <SMILES>
O=C(Cn1c([O-])c2c(c1O)CC=CC2)[N-]c1ccc(S(=O)(=O)/N=c2/cccc[n-]2)cc1

> <Energy>
91.90210504934396

> <Genealogy>
O=C(Cn1c([O-])c2c(c1O)CC=CC2)[N-]c1ccc(S(=O)(=O)N=c2cccc[n-]2)cc1 (protonated)
O=C(Cn1c([O-])c2c(c1O)CC=CC2)[N-]c1ccc(S(=O)(=O)/N=c2/cccc[n-]2)cc1 (cis-trans isomerization)
O=C(Cn1c([O-])c2c(c1O)CC=CC2)[N-]c1ccc(S(=O)(=O)/N=c2/cccc[n-]2)cc1 (3D coordinates assigned)
O=C(Cn1c([O-])c2c(c1O)CC=CC2)[N-]c1ccc(S(=O)(=O)/N=c2/cccc[n-]2)cc1 (nonaromatic ring conformer: 91.90210504934396 kcal/mol)

> <smiles>
O=C(Cn1c(O)c2c(c1O)CC=CC2)Nc1ccc(S(=O)(=O)N=c2cccc[nH]2)cc1

> <score_type>
oracle

> <origin>
adg

> <m_score__min__energy>
-14.32

> <m_primary>
energy

> <minimizedAffinity>
-8.44306

> <minimizedRMSD>
0.86819

> <CNNscore>
0.2049233764

> <CNNaffinity>
6.4792447090

> <CNN_VS>
1.3277486563

> <CNNaffinity_variance>
0.0462282188

$$$$
22:0


 26 28  0  0  0  0  0  0  0  0999 V2000
   58.0780   27.0255   46.1683 C   0  0  0  0  0  0  0  0  0  0  0  0
   59.4443   26.7366   46.0858 C   0  0  0  0  0  0  0  0  0  0  0  0
   60.3363   27.6818   45.5816 C   0  0  0  0  0  0  0  0  0  0  0  0
   59.8693   28.9176   45.1317 C   0  0  0  0  0  0  0  0  0  0  0  0
   58.4999   29.2108   45.1624 C   0  0  0  0  0  0  0  0  0  0  0  0
   57.5970   28.2572   45.6743 C   0  0  0  0  0  0  0  0  0  0  0  0
   56.2306   28.5167   45.6677 O   0  0  0  0  0  0  0  0  0  0  0  0
   57.9495   30.7890   44.5839 S   0  0  0  0  0  0  0  0  0  0  0  0
   58.0614   30.8165   43.0835 O   0  0  0  0  0  0  0  0  0  0  0  0
   56.5088   31.0163   44.9530 O   0  0  0  0  0  0  0  0  0  0  0  0
   58.9491   32.0537   45.2589 N   0  0  0  0  0  0  0  0  0  0  0  0
   58.9356   31.9786   46.7321 C   0  0  0  0  0  0  0  0  0  0  0  0
   59.3930   33.3141   47.3392 C   0  0  0  0  0  0  0  0  0  0  0  0
   58.5661   34.4205   46.9949 O   0  0  0  0  0  0  0  0  0  0  0  0
   57.8157   34.2260   45.8044 C   0  0  0  0  0  0  0  0  0  0  0  0
   58.5532   33.3840   44.7441 C   0  0  0  0  0  0  0  0  0  0  0  0
   57.1963   26.0246   46.6968 N   0  0  0  0  0  0  0  0  0  0  0  0
   54.9651   25.7745   46.0463 O   0  0  0  0  0  0  0  0  0  0  0  0
   56.1570   25.3693   45.9595 C   0  0  0  0  0  0  0  0  0  0  0  0
   56.4848   24.1966   45.1290 C   0  0  0  0  0  0  0  0  0  0  0  0
   57.6554   23.4559   45.3380 C   0  0  0  0  0  0  0  0  0  0  0  0
   57.9059   22.3381   44.5421 C   0  0  0  0  0  0  0  0  0  0  0  0
   56.9877   21.9863   43.5538 C   0  0  0  0  0  0  0  0  0  0  0  0
   57.1888   20.9820   42.8245 O   0  0  0  0  0  0  0  0  0  0  0  0
   55.8666   22.7359   43.3860 N   0  0  0  0  0  0  0  0  0  0  0  0
   55.6234   23.8046   44.1489 N   0  0  0  0  0  0  0  0  0  0  0  0
 18 19  2  0
 19 17  1  0
 17  1  1  0
  1  2  2  0
  2  3  1  0
  3  4  2  0
  4  5  1  0
  5  8  1  0
  8  9  2  0
  8 10  2  0
  8 11  1  0
 11 12  1  0
 12 13  1  0
 13 14  1  0
 14 15  1  0
 15 16  1  0
  5  6  2  0
  6  7  1  0
 19 20  1  0
 20 21  1  0
 21 22  2  0
 22 23  1  0
 23 24  2  0
 23 25  1  0
 25 26  1  0
  6  1  1  0
 26 20  2  0
 16 11  1  0
M  CHG 1   7  -1
M  CHG 1  17  -1
M  CHG 1  25  -1
M  END
> <UniqueID>
18

> <SMILES>
O=C([N-]c1cccc(S(=O)(=O)N2CCOCC2)c1[O-])c1ccc(=O)[n-]n1

> <Energy>
61.06615370512477

> <Genealogy>
O=C([N-]c1cccc(S(=O)(=O)N2CCOCC2)c1[O-])c1ccc(=O)[n-]n1 (protonated)
O=C([N-]c1cccc(S(=O)(=O)N2CCOCC2)c1[O-])c1ccc(=O)[n-]n1 (3D coordinates assigned)
O=C([N-]c1cccc(S(=O)(=O)N2CCOCC2)c1[O-])c1ccc(=O)[n-]n1 (nonaromatic ring conformer: 61.06615370512477 kcal/mol)

> <smiles>
O=C(Nc1cccc(S(=O)(=O)N2CCOCC2)c1O)c1ccc(=O)[nH]n1

> <score_type>
oracle

> <origin>
adg

> <m_score__min__energy>
-16.710000000000001

> <m_primary>
energy

> <minimizedAffinity>
-7.04566

> <minimizedRMSD>
0.79466

> <CNNscore>
0.3108017743

> <CNNaffinity>
6.0197911263

> <CNN_VS>
1.8709617853

> <CNNaffinity_variance>
0.0745729208

$$$$
28:0


 31 34  0  0  0  0  0  0  0  0999 V2000
   59.4115   30.5088   45.9652 N   0  0  0  0  0  0  0  0  0  0  0  0
   59.5637   31.7871   46.5967 C   0  0  0  0  0  0  0  0  0  0  0  0
   58.9114   32.9391   46.1185 C   0  0  0  0  0  0  0  0  0  0  0  0
   59.1108   34.1708   46.7471 C   0  0  0  0  0  0  0  0  0  0  0  0
   59.9670   34.2684   47.8477 C   0  0  0  0  0  0  0  0  0  0  0  0
   60.6362   33.1313   48.3202 C   0  0  0  0  0  0  0  0  0  0  0  0
   60.4404   31.8981   47.6839 C   0  0  0  0  0  0  0  0  0  0  0  0
   61.7507   33.2479   49.6805 S   0  0  0  0  0  0  0  0  0  0  0  0
   60.9588   33.1126   50.9512 O   0  0  0  0  0  0  0  0  0  0  0  0
   62.4158   34.5957   49.6795 O   0  0  0  0  0  0  0  0  0  0  0  0
   62.9454   31.9688   49.6063 N   0  0  0  0  0  0  0  0  0  0  0  0
   64.3218   32.4966   49.6349 C   0  0  0  0  0  0  0  0  0  0  0  0
   64.7264   33.0025   51.0395 C   0  0  0  0  0  0  0  0  0  0  0  0
   63.9078   32.5006   52.0828 O   0  0  0  0  0  0  0  0  0  0  0  0
   63.6365   31.1331   51.8763 C   0  0  0  0  0  0  0  0  0  0  0  0
   62.7186   30.9471   50.6530 C   0  0  0  0  0  0  0  0  0  0  0  0
   57.1580   30.4549   45.3266 O   0  0  0  0  0  0  0  0  0  0  0  0
   58.1792   29.8226   45.7074 C   0  0  0  0  0  0  0  0  0  0  0  0
   58.0883   28.3759   45.9413 C   0  0  0  0  0  0  0  0  0  0  0  0
   57.8695   27.4097   44.9828 C   0  0  0  0  0  0  0  0  0  0  0  0
   57.8706   26.2239   45.6968 C   0  0  0  0  0  0  0  0  0  0  0  0
   58.0794   26.4928   47.0031 N   0  0  0  0  0  0  0  0  0  0  0  0
   58.2119   27.8004   47.1518 N   0  0  0  0  0  0  0  0  0  0  0  0
   57.6786   24.8547   45.1583 C   0  0  0  0  0  0  0  0  0  0  0  0
   56.8022   24.6436   44.0775 C   0  0  0  0  0  0  0  0  0  0  0  0
   56.6110   23.3596   43.5597 C   0  0  0  0  0  0  0  0  0  0  0  0
   57.2894   22.2723   44.1109 C   0  0  0  0  0  0  0  0  0  0  0  0
   58.1636   22.4629   45.1845 C   0  0  0  0  0  0  0  0  0  0  0  0
   58.8345   21.3688   45.7257 O   0  0  0  0  0  0  0  0  0  0  0  0
   58.3583   23.7506   45.7068 C   0  0  0  0  0  0  0  0  0  0  0  0
   58.6980   20.5127   45.3701 H   0  0  0  0  0  0  0  0  0  0  0  0
 17 18  2  0
 18  1  1  0
  1  2  1  0
  2  3  2  0
  3  4  1  0
  4  5  2  0
  5  6  1  0
  6  8  1  0
  8  9  2  0
  8 10  2  0
  8 11  1  0
 11 12  1  0
 12 13  1  0
 13 14  1  0
 14 15  1  0
 15 16  1  0
  6  7  2  0
 18 19  1  0
 19 20  2  0
 20 21  1  0
 21 24  1  0
 24 25  2  0
 25 26  1  0
 26 27  2  0
 27 28  1  0
 28 29  1  0
 28 30  2  0
 21 22  2  0
 22 23  1  0
  7  2  1  0
 23 19  1  0
 16 11  1  0
 30 24  1  0
 29 31  1  0
M  CHG 1   1  -1
M  CHG 1  23  -1
M  END
> <UniqueID>
24

> <SMILES>
O=C([N-]c1cccc(S(=O)(=O)N2CCOCC2)c1)c1cc(-c2cccc(O)c2)n[n-]1

> <Energy>
95.28170232988388

> <Genealogy>
O=C([N-]c1cccc(S(=O)(=O)N2CCOCC2)c1)c1cc(-c2cccc(O)c2)n[n-]1 (protonated)
O=C([N-]c1cccc(S(=O)(=O)N2CCOCC2)c1)c1cc(-c2cccc(O)c2)n[n-]1 (3D coordinates assigned)
O=C([N-]c1cccc(S(=O)(=O)N2CCOCC2)c1)c1cc(-c2cccc(O)c2)n[n-]1 (nonaromatic ring conformer: 95.28170232988388 kcal/mol)

> <smiles>
O=C(Nc1cccc(S(=O)(=O)N2CCOCC2)c1)c1cc(-c2cccc(O)c2)n[nH]1

> <score_type>
oracle

> <origin>
adg

> <m_score__min__energy>
-14.609999999999999

> <m_primary>
energy

> <minimizedAffinity>
-8.94594

> <minimizedRMSD>
2.78010

> <CNNscore>
0.4954396486

> <CNNaffinity>
6.7231578827

> <CNN_VS>
3.3309190273

> <CNNaffinity_variance>
0.0804517567

$$$$
54:0


 28 30  0  0  0  0  0  0  0  0999 V2000
   58.4687   27.7516   47.0013 C   0  0  0  0  0  0  0  0  0  0  0  0
   59.4314   27.8210   47.8105 O   0  0  0  0  0  0  0  0  0  0  0  0
   57.4840   26.7167   47.1169 N   0  0  0  0  0  0  0  0  0  0  0  0
   57.0774   23.2116   44.7477 C   0  0  0  0  0  0  0  0  0  0  0  0
   58.3365   23.5710   45.2448 C   0  0  0  0  0  0  0  0  0  0  0  0
   58.4842   24.7225   46.0224 C   0  0  0  0  0  0  0  0  0  0  0  0
   57.3742   25.5424   46.2973 C   0  0  0  0  0  0  0  0  0  0  0  0
   56.1125   25.1716   45.8107 C   0  0  0  0  0  0  0  0  0  0  0  0
   54.9963   25.9514   46.0941 O   0  0  0  0  0  0  0  0  0  0  0  0
   55.9667   24.0171   45.0320 C   0  0  0  0  0  0  0  0  0  0  0  0
   55.9202   22.1354   42.3814 N   0  0  0  0  0  0  0  0  0  0  0  0
   56.8913   21.7666   43.7605 S   0  0  0  0  0  0  0  0  0  0  0  0
   58.2401   21.2770   43.3103 O   0  0  0  0  0  0  0  0  0  0  0  0
   56.2303   20.6838   44.5668 O   0  0  0  0  0  0  0  0  0  0  0  0
   55.8117   21.2985   41.8085 H   0  0  0  0  0  0  0  0  0  0  0  0
   58.3578   28.7477   45.8920 C   0  0  0  0  0  0  0  0  0  0  0  0
   59.0547   30.0146   46.2765 C   0  0  0  0  0  0  0  0  0  0  0  0
   60.4947   30.1076   47.1412 S   0  0  0  0  0  0  0  0  0  0  0  0
   60.4589   31.7951   47.2194 C   0  0  0  0  0  0  0  0  0  0  0  0
   59.3551   32.2942   46.6165 N   0  0  0  0  0  0  0  0  0  0  0  0
   58.5747   31.3097   46.1006 C   0  0  0  0  0  0  0  0  0  0  0  0
   57.3792   31.5917   45.4515 O   0  0  0  0  0  0  0  0  0  0  0  0
   61.4403   32.6248   47.8725 N   0  0  0  0  0  0  0  0  0  0  0  0
   61.0457   33.8108   48.6464 C   0  0  0  0  0  0  0  0  0  0  0  0
   61.8827   33.9210   49.9283 C   0  0  0  0  0  0  0  0  0  0  0  0
   63.3961   33.7005   49.7074 C   0  0  0  0  0  0  0  0  0  0  0  0
   63.7652   33.4250   48.2449 C   0  0  0  0  0  0  0  0  0  0  0  0
   62.8664   32.3350   47.6516 C   0  0  0  0  0  0  0  0  0  0  0  0
 11 12  1  0
 12 13  2  0
 12 14  2  0
 12  4  1  0
  4  5  2  0
  5  6  1  0
  6  7  2  0
  7  3  1  0
  3  1  1  0
  1  2  2  0
  1 16  1  0
 16 17  1  0
 17 18  1  0
 18 19  1  0
 19 23  1  0
 23 24  1  0
 24 25  1  0
 25 26  1  0
 26 27  1  0
 27 28  1  0
 19 20  2  0
 20 21  1  0
 21 22  1  0
  7  8  1  0
  8  9  1  0
  8 10  2  0
 10  4  1  0
 21 17  2  0
 28 23  1  0
 11 15  1  0
M  CHG 1   3  -1
M  CHG 1   9  -1
M  CHG 1  11  -1
M  CHG 1  22  -1
M  END
> <UniqueID>
49

> <SMILES>
[NH-]S(=O)(=O)c1ccc([N-]C(=O)Cc2sc(N3CCCCC3)nc2[O-])c([O-])c1

> <Energy>
76.70518266374816

> <Genealogy>
[NH-]S(=O)(=O)c1ccc([N-]C(=O)Cc2sc(N3CCCCC3)nc2[O-])c([O-])c1 (protonated)
[NH-]S(=O)(=O)c1ccc([N-]C(=O)Cc2sc(N3CCCCC3)nc2[O-])c([O-])c1 (3D coordinates assigned)
[NH-]S(=O)(=O)c1ccc([N-]C(=O)Cc2sc(N3CCCCC3)nc2[O-])c([O-])c1 (nonaromatic ring conformer: 76.70518266374816 kcal/mol)

> <smiles>
NS(=O)(=O)c1ccc(NC(=O)Cc2sc(N3CCCCC3)nc2O)c(O)c1

> <score_type>
oracle

> <origin>
adg

> <m_score__min__energy>
-18.27

> <m_primary>
energy

> <minimizedAffinity>
-7.71486

> <minimizedRMSD>
0.63031

> <CNNscore>
0.3830950856

> <CNNaffinity>
6.7360444069

> <CNN_VS>
2.5805454254

> <CNNaffinity_variance>
0.3632174432

$$$$
85:0


 27 29  0  0  0  0  0  0  0  0999 V2000
   58.9493   34.3712   45.0937 C   0  0  0  0  0  0  0  0  0  0  0  0
   58.5305   32.9395   45.2332 C   0  0  0  0  0  0  0  0  0  0  0  0
   57.8069   32.2331   44.2942 C   0  0  0  0  0  0  0  0  0  0  0  0
   57.6147   30.9919   44.8734 C   0  0  0  0  0  0  0  0  0  0  0  0
   58.1847   30.9630   46.0948 N   0  0  0  0  0  0  0  0  0  0  0  0
   58.7564   32.1399   46.3016 N   0  0  0  0  0  0  0  0  0  0  0  0
   59.4592   32.4627   47.5145 C   0  0  0  0  0  0  0  0  0  0  0  0
   58.7749   32.4530   48.7393 C   0  0  0  0  0  0  0  0  0  0  0  0
   59.4509   32.7449   49.9283 C   0  0  0  0  0  0  0  0  0  0  0  0
   60.8155   33.0383   49.9040 C   0  0  0  0  0  0  0  0  0  0  0  0
   61.5154   33.0376   48.6894 C   0  0  0  0  0  0  0  0  0  0  0  0
   60.8379   32.7358   47.4991 C   0  0  0  0  0  0  0  0  0  0  0  0
   63.2426   33.3722   48.6574 S   0  0  0  0  0  0  0  0  0  0  0  0
   64.1100   31.9824   49.2060 N   0  0  0  0  0  0  0  0  0  0  0  0
   63.5543   34.5397   49.5522 O   0  0  0  0  0  0  0  0  0  0  0  0
   63.6677   33.7126   47.2569 O   0  0  0  0  0  0  0  0  0  0  0  0
   63.8195   31.7537   50.1567 H   0  0  0  0  0  0  0  0  0  0  0  0
   56.8554   29.8630   44.3052 C   0  0  0  0  0  0  0  0  0  0  0  0
   56.4879   29.9186   43.1028 O   0  0  0  0  0  0  0  0  0  0  0  0
   56.5740   28.6785   45.0613 N   0  0  0  0  0  0  0  0  0  0  0  0
   57.5351   27.7058   45.4953 C   0  0  0  0  0  0  0  0  0  0  0  0
   58.9174   27.9634   45.4330 C   0  0  0  0  0  0  0  0  0  0  0  0
   59.8335   27.0058   45.8814 C   0  0  0  0  0  0  0  0  0  0  0  0
   59.3776   25.7966   46.4096 C   0  0  0  0  0  0  0  0  0  0  0  0
   58.0059   25.5427   46.4977 C   0  0  0  0  0  0  0  0  0  0  0  0
   57.0861   26.4966   46.0480 C   0  0  0  0  0  0  0  0  0  0  0  0
   55.7237   26.2358   46.1469 O   0  0  0  0  0  0  0  0  0  0  0  0
  1  2  1  0
  2  3  2  0
  3  4  1  0
  4 18  1  0
 18 19  2  0
 18 20  1  0
 20 21  1  0
 21 22  2  0
 22 23  1  0
 23 24  2  0
 24 25  1  0
 25 26  2  0
 26 27  1  0
  4  5  2  0
  5  6  1  0
  6  7  1  0
  7  8  2  0
  8  9  1  0
  9 10  2  0
 10 11  1  0
 11 13  1  0
 13 14  1  0
 13 15  2  0
 13 16  2  0
 11 12  2  0
  6  2  1  0
 12  7  1  0
 26 21  1  0
 14 17  1  0
M  CHG 1  14  -1
M  CHG 1  20  -1
M  CHG 1  27  -1
M  END
> <UniqueID>
77

> <SMILES>
Cc1cc(C(=O)[N-]c2ccccc2[O-])nn1-c1cccc(S([NH-])(=O)=O)c1

> <Energy>
80.61729859574831

> <Genealogy>
Cc1cc(C(=O)[N-]c2ccccc2[O-])nn1-c1cccc(S([NH-])(=O)=O)c1 (protonated)
Cc1cc(C(=O)[N-]c2ccccc2[O-])nn1-c1cccc(S([NH-])(=O)=O)c1 (3D coordinates assigned)
Cc1cc(C(=O)[N-]c2ccccc2[O-])nn1-c1cccc(S([NH-])(=O)=O)c1 (optimized conformer: 80.61729859574831 kcal/mol)

> <smiles>
Cc1cc(C(=O)Nc2ccccc2O)nn1-c1cccc(S(N)(=O)=O)c1

> <score_type>
oracle

> <origin>
adg

> <m_score__min__energy>
-16.07

> <m_primary>
energy

> <minimizedAffinity>
-7.92437

> <minimizedRMSD>
0.93977

> <CNNscore>
0.8689979315

> <CNNaffinity>
6.7316646576

> <CNN_VS>
5.8498024940

> <CNNaffinity_variance>
0.2365241647

$$$$
37:0


 23 24  0  0  0  0  0  0  0  0999 V2000
   57.1589   32.7351   46.0940 O   0  0  0  0  0  0  0  0  0  0  0  0
   58.3591   32.4004   45.8903 C   0  0  0  0  0  0  0  0  0  0  0  0
   58.7830   31.0471   46.1798 N   0  0  0  0  0  0  0  0  0  0  0  0
   59.3035   33.4488   45.3662 C   0  0  0  0  0  0  0  0  0  0  0  0
   59.5472   34.7570   46.6076 S   0  0  0  0  0  0  0  0  0  0  0  0
   58.3532   35.3452   46.8867 H   0  0  0  0  0  0  0  0  0  0  0  0
   59.0409   30.0797   45.0982 C   0  0  0  0  0  0  0  0  0  0  0  0
   58.7974   28.6573   45.5459 C   0  0  0  0  0  0  0  0  0  0  0  0
   59.8846   27.8346   45.8867 C   0  0  0  0  0  0  0  0  0  0  0  0
   59.6701   26.5211   46.3149 C   0  0  0  0  0  0  0  0  0  0  0  0
   58.3722   26.0117   46.3983 C   0  0  0  0  0  0  0  0  0  0  0  0
   58.1656   24.7081   46.8331 O   0  0  0  0  0  0  0  0  0  0  0  0
   57.2831   26.8164   46.0436 C   0  0  0  0  0  0  0  0  0  0  0  0
   55.9882   26.3160   46.1271 O   0  0  0  0  0  0  0  0  0  0  0  0
   57.4946   28.1283   45.6082 C   0  0  0  0  0  0  0  0  0  0  0  0
   59.1153   30.6636   47.5649 C   0  0  0  0  0  0  0  0  0  0  0  0
   60.3567   31.3807   48.0371 C   0  0  0  0  0  0  0  0  0  0  0  0
   61.5787   31.1788   47.3718 C   0  0  0  0  0  0  0  0  0  0  0  0
   62.7483   31.7846   47.8400 C   0  0  0  0  0  0  0  0  0  0  0  0
   62.7075   32.6029   48.9696 C   0  0  0  0  0  0  0  0  0  0  0  0
   61.4973   32.8233   49.6302 C   0  0  0  0  0  0  0  0  0  0  0  0
   60.3219   32.2181   49.1694 C   0  0  0  0  0  0  0  0  0  0  0  0
   59.1280   32.4560   49.8419 O   0  0  0  0  0  0  0  0  0  0  0  0
  1  2  2  0
  2  4  1  0
  4  5  1  0
  2  3  1  0
  3  7  1  0
  7  8  1  0
  8  9  2  0
  9 10  1  0
 10 11  2  0
 11 12  1  0
 11 13  1  0
 13 14  1  0
 13 15  2  0
  3 16  1  0
 16 17  1  0
 17 18  2  0
 18 19  1  0
 19 20  2  0
 20 21  1  0
 21 22  2  0
 22 23  1  0
 15  8  1  0
 22 17  1  0
  5  6  1  0
M  CHG 1  12  -1
M  CHG 1  14  -1
M  CHG 1  23  -1
M  END
> <UniqueID>
35

> <SMILES>
O=C(CS)N(Cc1ccc([O-])c([O-])c1)Cc1ccccc1[O-]

> <Energy>
34.51579444155046

> <Genealogy>
O=C(CS)N(Cc1ccc([O-])c([O-])c1)Cc1ccccc1[O-] (protonated)
O=C(CS)N(Cc1ccc([O-])c([O-])c1)Cc1ccccc1[O-] (3D coordinates assigned)
O=C(CS)N(Cc1ccc([O-])c([O-])c1)Cc1ccccc1[O-] (optimized conformer: 34.51579444155046 kcal/mol)

> <smiles>
O=C(CS)N(Cc1ccc(O)c(O)c1)Cc1ccccc1O

> <score_type>
oracle

> <origin>
adg

> <m_score__min__energy>
-14.630000000000001

> <m_primary>
energy

> <minimizedAffinity>
-6.79843

> <minimizedRMSD>
1.82855

> <CNNscore>
0.6757218838

> <CNNaffinity>
6.1983757019

> <CNN_VS>
4.1883783340

> <CNNaffinity_variance>
0.1703974158

$$$$
80:0


 28 30  0  0  0  0  0  0  0  0999 V2000
   57.9546   27.9017   45.6729 C   0  0  0  0  0  0  0  0  0  0  0  0
   59.2984   27.6179   45.9725 C   0  0  0  0  0  0  0  0  0  0  0  0
   60.2679   28.6172   45.8738 C   0  0  0  0  0  0  0  0  0  0  0  0
   59.9081   29.9093   45.4894 C   0  0  0  0  0  0  0  0  0  0  0  0
   58.5694   30.2169   45.2118 C   0  0  0  0  0  0  0  0  0  0  0  0
   57.5918   29.2093   45.3111 C   0  0  0  0  0  0  0  0  0  0  0  0
   56.2575   29.5016   45.0444 O   0  0  0  0  0  0  0  0  0  0  0  0
   58.1123   31.8532   44.7377 S   0  0  0  0  0  0  0  0  0  0  0  0
   58.0293   31.9225   43.2386 O   0  0  0  0  0  0  0  0  0  0  0  0
   56.7760   32.2073   45.3307 O   0  0  0  0  0  0  0  0  0  0  0  0
   59.3141   32.9578   45.3254 N   0  0  0  0  0  0  0  0  0  0  0  0
   59.5089   33.2283   46.5791 C   0  0  0  0  0  0  0  0  0  0  0  0
   60.3089   34.3628   47.1059 C   0  0  0  0  0  0  0  0  0  0  0  0
   60.1792   34.2176   48.6294 C   0  0  0  0  0  0  0  0  0  0  0  0
   59.3329   32.9594   48.9027 C   0  0  0  0  0  0  0  0  0  0  0  0
   58.9560   32.4363   47.6066 N   0  0  0  0  0  0  0  0  0  0  0  0
   58.3939   31.6410   47.4630 H   0  0  0  0  0  0  0  0  0  0  0  0
   56.9283   26.9049   45.7909 N   0  0  0  0  0  0  0  0  0  0  0  0
   56.3055   25.1585   47.2251 O   0  0  0  0  0  0  0  0  0  0  0  0
   57.0821   25.5857   46.3291 C   0  0  0  0  0  0  0  0  0  0  0  0
   58.1882   24.7121   45.8274 C   0  0  0  0  0  0  0  0  0  0  0  0
   57.6422   23.7027   44.8516 C   0  0  0  0  0  0  0  0  0  0  0  0
   56.4790   23.9992   44.1191 C   0  0  0  0  0  0  0  0  0  0  0  0
   55.9424   23.0581   43.2353 C   0  0  0  0  0  0  0  0  0  0  0  0
   56.5548   21.8115   43.0819 C   0  0  0  0  0  0  0  0  0  0  0  0
   57.7027   21.5031   43.8157 C   0  0  0  0  0  0  0  0  0  0  0  0
   58.2452   22.4381   44.7025 C   0  0  0  0  0  0  0  0  0  0  0  0
   59.3803   22.1038   45.4344 O   0  0  0  0  0  0  0  0  0  0  0  0
 19 20  2  0
 20 21  1  0
 21 22  1  0
 22 23  2  0
 23 24  1  0
 24 25  2  0
 25 26  1  0
 26 27  2  0
 27 28  1  0
 20 18  1  0
 18  1  1  0
  1  2  2  0
  2  3  1  0
  3  4  2  0
  4  5  1  0
  5  8  1  0
  8  9  2  0
  8 10  2  0
  8 11  1  0
 11 12  2  0
 12 13  1  0
 13 14  1  0
 14 15  1  0
 15 16  1  0
  5  6  2  0
  6  7  1  0
 27 22  1  0
  6  1  1  0
 16 12  1  0
 16 17  1  0
M  CHG 1   7  -1
M  CHG 1  18  -1
M  CHG 1  28  -1
M  END
> <UniqueID>
73

> <SMILES>
O=C(Cc1ccccc1[O-])[N-]c1cccc(S(=O)(=O)N=C2CCCN2)c1[O-]

> <Energy>
56.77756102379125

> <Genealogy>
O=C(Cc1ccccc1[O-])[N-]c1cccc(S(=O)(=O)N=C2CCCN2)c1[O-] (protonated)
O=C(Cc1ccccc1[O-])[N-]c1cccc(S(=O)(=O)N=C2CCCN2)c1[O-] (3D coordinates assigned)
O=C(Cc1ccccc1[O-])[N-]c1cccc(S(=O)(=O)N=C2CCCN2)c1[O-] (nonaromatic ring conformer: 56.77756102379125 kcal/mol)

> <smiles>
O=C(Cc1ccccc1O)Nc1cccc(S(=O)(=O)N=C2CCCN2)c1O

> <score_type>
oracle

> <origin>
adg

> <m_score__min__energy>
-16.93

> <m_primary>
energy

> <minimizedAffinity>
-8.20623

> <minimizedRMSD>
1.44627

> <CNNscore>
0.5413570404

> <CNNaffinity>
6.3224105835

> <CNN_VS>
3.4226815701

> <CNNaffinity_variance>
0.0544329621

$$$$
81:0


 27 29  0  0  0  0  0  0  0  0999 V2000
   60.8470   30.3139   47.1486 C   0  0  0  0  0  0  0  0  0  0  0  0
   60.1043   31.3657   46.7679 C   0  0  0  0  0  0  0  0  0  0  0  0
   59.2834   31.4687   45.6308 C   0  0  0  0  0  0  0  0  0  0  0  0
   58.8915   30.5403   44.7365 C   0  0  0  0  0  0  0  0  0  0  0  0
   58.8791   32.7923   45.5626 C   0  0  0  0  0  0  0  0  0  0  0  0
   59.4055   33.4293   46.6672 C   0  0  0  0  0  0  0  0  0  0  0  0
   59.2209   34.8797   46.9920 C   0  0  0  0  0  0  0  0  0  0  0  0
   60.1413   32.5665   47.3986 N   0  0  0  0  0  0  0  0  0  0  0  0
   58.4312   29.1759   45.0605 C   0  0  0  0  0  0  0  0  0  0  0  0
   57.0638   28.8799   45.1969 C   0  0  0  0  0  0  0  0  0  0  0  0
   56.1048   29.8775   45.0626 O   0  0  0  0  0  0  0  0  0  0  0  0
   56.6689   27.6073   45.4560 N   0  0  0  0  0  0  0  0  0  0  0  0
   57.5748   26.6027   45.5718 C   0  0  0  0  0  0  0  0  0  0  0  0
   57.0700   25.0822   45.8852 S   0  0  0  0  0  0  0  0  0  0  0  0
   58.8985   26.8575   45.4156 N   0  0  0  0  0  0  0  0  0  0  0  0
   59.3450   28.1143   45.1559 C   0  0  0  0  0  0  0  0  0  0  0  0
   60.5807   28.3156   45.0108 O   0  0  0  0  0  0  0  0  0  0  0  0
   60.8688   32.8951   48.5951 C   0  0  0  0  0  0  0  0  0  0  0  0
   62.1537   33.4400   48.4890 C   0  0  0  0  0  0  0  0  0  0  0  0
   62.8873   33.7532   49.6338 C   0  0  0  0  0  0  0  0  0  0  0  0
   62.3463   33.5272   50.9097 C   0  0  0  0  0  0  0  0  0  0  0  0
   61.0512   32.9872   51.0164 C   0  0  0  0  0  0  0  0  0  0  0  0
   60.3006   32.6847   49.8691 C   0  0  0  0  0  0  0  0  0  0  0  0
   58.9205   32.1045   50.0122 C   0  0  0  0  0  0  0  0  0  0  0  0
   63.1306   33.8527   52.1217 C   0  0  0  0  0  0  0  0  0  0  0  0
   64.2009   34.5120   52.0346 O   0  0  0  0  0  0  0  0  0  0  0  0
   62.6949   33.4362   53.3751 O   0  0  0  0  0  0  0  0  0  0  0  0
  1  2  2  0
  2  3  1  0
  3  4  2  0
  4  9  1  0
  9 10  2  0
 10 11  1  0
 10 12  1  0
 12 13  1  0
 13 14  2  0
 13 15  1  0
 15 16  1  0
 16 17  2  0
  3  5  1  0
  5  6  2  0
  6  7  1  0
  6  8  1  0
  8 18  1  0
 18 19  2  0
 19 20  1  0
 20 21  2  0
 21 25  1  0
 25 26  2  0
 25 27  1  0
 21 22  1  0
 22 23  2  0
 23 24  1  0
  8  2  1  0
 23 18  1  0
 16  9  1  0
M  CHG 1  11  -1
M  CHG 1  12  -1
M  CHG 1  15  -1
M  CHG 1  27  -1
M  END
> <UniqueID>
74

> <SMILES>
C=c1/c(=C\c2c([O-])[n-]c(=S)[n-]c2=O)cc(C)n1-c1ccc(C(=O)[O-])cc1C

> <Energy>
91.3796778959809

> <Genealogy>
C=c1c(=Cc2c([O-])[n-]c(=S)[n-]c2=O)cc(C)n1-c1ccc(C(=O)[O-])cc1C (protonated)
C=c1/c(=C\c2c([O-])[n-]c(=S)[n-]c2=O)cc(C)n1-c1ccc(C(=O)[O-])cc1C (cis-trans isomerization)
C=c1/c(=C\c2c([O-])[n-]c(=S)[n-]c2=O)cc(C)n1-c1ccc(C(=O)[O-])cc1C (3D coordinates assigned)
C=c1/c(=C\c2c([O-])[n-]c(=S)[n-]c2=O)cc(C)n1-c1ccc(C(=O)[O-])cc1C (optimized conformer: 91.3796778959809 kcal/mol)

> <smiles>
C=c1c(=Cc2c(O)[nH]c(=S)[nH]c2=O)cc(C)n1-c1ccc(C(=O)O)cc1C

> <score_type>
oracle

> <origin>
adg

> <m_score__min__energy>
-15.470000000000001

> <m_primary>
energy

> <minimizedAffinity>
-7.15048

> <minimizedRMSD>
1.53589

> <CNNscore>
0.3326411247

> <CNNaffinity>
6.8399252892

> <CNN_VS>
2.2752404213

> <CNNaffinity_variance>
0.5087863803

$$$$
8:0


 28 30  0  0  0  0  0  0  0  0999 V2000
   60.8128   32.1143   48.4406 N   0  0  0  0  0  0  0  0  0  0  0  0
   60.7151   30.8832   48.8488 C   0  0  0  0  0  0  0  0  0  0  0  0
   60.1724   29.9162   48.0567 N   0  0  0  0  0  0  0  0  0  0  0  0
   60.0759   28.6208   48.4661 C   0  0  0  0  0  0  0  0  0  0  0  0
   60.5390   28.2868   49.7508 C   0  0  0  0  0  0  0  0  0  0  0  0
   61.0770   29.2512   50.5423 N   0  0  0  0  0  0  0  0  0  0  0  0
   61.1799   30.5369   50.1197 C   0  0  0  0  0  0  0  0  0  0  0  0
   59.4888   27.6031   47.5590 C   0  0  0  0  0  0  0  0  0  0  0  0
   60.2664   26.5493   47.0433 C   0  0  0  0  0  0  0  0  0  0  0  0
   59.7011   25.6088   46.1785 C   0  0  0  0  0  0  0  0  0  0  0  0
   58.3566   25.7074   45.8114 C   0  0  0  0  0  0  0  0  0  0  0  0
   57.8107   24.7634   44.9504 O   0  0  0  0  0  0  0  0  0  0  0  0
   57.5699   26.7577   46.3102 C   0  0  0  0  0  0  0  0  0  0  0  0
   56.2272   26.8800   45.9581 O   0  0  0  0  0  0  0  0  0  0  0  0
   58.1369   27.6985   47.1781 C   0  0  0  0  0  0  0  0  0  0  0  0
   55.8363   26.2566   45.3780 H   0  0  0  0  0  0  0  0  0  0  0  0
   60.9660   32.5240   47.0448 C   0  0  0  0  0  0  0  0  0  0  0  0
   57.8496   31.6157   45.0342 C   0  0  0  0  0  0  0  0  0  0  0  0
   57.1078   32.7993   45.1412 C   0  0  0  0  0  0  0  0  0  0  0  0
   57.6202   33.8887   45.8499 C   0  0  0  0  0  0  0  0  0  0  0  0
   58.8731   33.8004   46.4606 C   0  0  0  0  0  0  0  0  0  0  0  0
   59.6225   32.6173   46.3703 C   0  0  0  0  0  0  0  0  0  0  0  0
   59.1062   31.5267   45.6502 C   0  0  0  0  0  0  0  0  0  0  0  0
   55.7419   29.7035   44.9304 N   0  0  0  0  0  0  0  0  0  0  0  0
   57.1859   30.2470   44.1496 S   0  0  0  0  0  0  0  0  0  0  0  0
   58.1948   29.1348   44.1222 O   0  0  0  0  0  0  0  0  0  0  0  0
   56.8514   30.6527   42.7420 O   0  0  0  0  0  0  0  0  0  0  0  0
   55.3565   28.9101   44.4182 H   0  0  0  0  0  0  0  0  0  0  0  0
 24 25  1  0
 25 26  2  0
 25 27  2  0
 25 18  1  0
 18 19  2  0
 19 20  1  0
 20 21  2  0
 21 22  1  0
 22 17  1  0
 17  1  1  0
  1  2  2  0
  2  3  1  0
  3  4  1  0
  4  8  1  0
  8  9  2  0
  9 10  1  0
 10 11  2  0
 11 12  1  0
 11 13  1  0
 13 14  1  0
 13 15  2  0
  4  5  2  0
  5  6  1  0
  6  7  2  0
 22 23  2  0
 23 18  1  0
  7  2  1  0
 15  8  1  0
 24 28  1  0
 14 16  1  0
M  CHG 1   3  -1
M  CHG 1  12  -1
M  CHG 1  24  -1
M  END
> <UniqueID>
9

> <SMILES>
[NH-]S(=O)(=O)c1cccc(C/N=c2/cncc(-c3ccc([O-])c(O)c3)[n-]2)c1

> <Energy>
44.53889398862526

> <Genealogy>
[NH-]S(=O)(=O)c1cccc(CN=c2cncc(-c3ccc([O-])c(O)c3)[n-]2)c1 (protonated)
[NH-]S(=O)(=O)c1cccc(C/N=c2/cncc(-c3ccc([O-])c(O)c3)[n-]2)c1 (cis-trans isomerization)
[NH-]S(=O)(=O)c1cccc(C/N=c2/cncc(-c3ccc([O-])c(O)c3)[n-]2)c1 (3D coordinates assigned)
[NH-]S(=O)(=O)c1cccc(C/N=c2/cncc(-c3ccc([O-])c(O)c3)[n-]2)c1 (optimized conformer: 44.53889398862526 kcal/mol)

> <smiles>
NS(=O)(=O)c1cccc(CN=c2cncc(-c3ccc(O)c(O)c3)[nH]2)c1

> <score_type>
oracle

> <origin>
adg

> <m_score__min__energy>
-14.31

> <m_primary>
energy

> <minimizedAffinity>
-8.65361

> <minimizedRMSD>
0.84305

> <CNNscore>
0.8487917781

> <CNNaffinity>
6.8031096458

> <CNN_VS>
5.7744235992

> <CNNaffinity_variance>
0.1474537700

$$$$
13:0


 28 30  0  0  0  0  0  0  0  0999 V2000
   58.4296   27.2824   46.4195 C   0  0  0  0  0  0  0  0  0  0  0  0
   59.2083   26.6855   47.4262 C   0  0  0  0  0  0  0  0  0  0  0  0
   60.1039   27.4515   48.1772 C   0  0  0  0  0  0  0  0  0  0  0  0
   60.2395   28.8170   47.9255 C   0  0  0  0  0  0  0  0  0  0  0  0
   59.4815   29.4219   46.9203 C   0  0  0  0  0  0  0  0  0  0  0  0
   58.5779   28.6633   46.1613 C   0  0  0  0  0  0  0  0  0  0  0  0
   58.8420   24.5096   45.7405 O   0  0  0  0  0  0  0  0  0  0  0  0
   57.8706   25.1210   45.2191 C   0  0  0  0  0  0  0  0  0  0  0  0
   57.5775   26.4777   45.5856 N   0  0  0  0  0  0  0  0  0  0  0  0
   56.7455   26.8804   45.2468 H   0  0  0  0  0  0  0  0  0  0  0  0
   56.9729   24.4011   44.2601 C   0  0  0  0  0  0  0  0  0  0  0  0
   56.0036   23.5871   44.9926 N   0  0  0  0  0  0  0  0  0  0  0  0
   54.9483   24.0153   45.7029 C   0  0  0  0  0  0  0  0  0  0  0  0
   54.6266   25.3492   45.9170 O   0  0  0  0  0  0  0  0  0  0  0  0
   54.2391   22.9305   46.1653 C   0  0  0  0  0  0  0  0  0  0  0  0
   54.8409   21.7998   45.7387 N   0  0  0  0  0  0  0  0  0  0  0  0
   55.9017   22.2428   45.0287 C   0  0  0  0  0  0  0  0  0  0  0  0
   56.7123   21.4678   44.4546 O   0  0  0  0  0  0  0  0  0  0  0  0
   57.7838   29.3289   45.1122 C   0  0  0  0  0  0  0  0  0  0  0  0
   57.6499   28.7667   43.9937 O   0  0  0  0  0  0  0  0  0  0  0  0
   57.1910   30.6153   45.3208 N   0  0  0  0  0  0  0  0  0  0  0  0
   57.5205   31.8173   44.5596 C   0  0  0  0  0  0  0  0  0  0  0  0
   58.2898   32.7888   45.4161 C   0  0  0  0  0  0  0  0  0  0  0  0
   58.4185   32.5614   46.7968 C   0  0  0  0  0  0  0  0  0  0  0  0
   59.0798   33.4917   47.6049 C   0  0  0  0  0  0  0  0  0  0  0  0
   59.6157   34.6530   47.0406 C   0  0  0  0  0  0  0  0  0  0  0  0
   59.5004   34.8804   45.6679 C   0  0  0  0  0  0  0  0  0  0  0  0
   58.8451   33.9504   44.8554 C   0  0  0  0  0  0  0  0  0  0  0  0
  7  8  2  0
  8 11  1  0
 11 12  1  0
 12 13  1  0
 13 14  1  0
 13 15  2  0
 15 16  1  0
 16 17  1  0
 17 18  2  0
  8  9  1  0
  9  1  1  0
  1  2  2  0
  2  3  1  0
  3  4  2  0
  4  5  1  0
  5  6  2  0
  6 19  1  0
 19 20  2  0
 19 21  1  0
 21 22  1  0
 22 23  1  0
 23 24  2  0
 24 25  1  0
 25 26  2  0
 26 27  1  0
 27 28  2  0
 17 12  1  0
  6  1  1  0
 28 23  1  0
  9 10  1  0
M  CHG 1  14  -1
M  CHG 1  16  -1
M  CHG 1  21  -1
M  END
> <UniqueID>
13

> <SMILES>
O=C(Cn1c([O-])c[n-]c1=O)Nc1ccccc1C(=O)[N-]Cc1ccccc1

> <Energy>
79.27856645106934

> <Genealogy>
O=C(Cn1c([O-])c[n-]c1=O)Nc1ccccc1C(=O)[N-]Cc1ccccc1 (protonated)
O=C(Cn1c([O-])c[n-]c1=O)Nc1ccccc1C(=O)[N-]Cc1ccccc1 (3D coordinates assigned)
O=C(Cn1c([O-])c[n-]c1=O)Nc1ccccc1C(=O)[N-]Cc1ccccc1 (optimized conformer: 79.27856645106934 kcal/mol)

> <smiles>
O=C(Cn1c(O)c[nH]c1=O)Nc1ccccc1C(=O)NCc1ccccc1

> <score_type>
oracle

> <origin>
adg

> <m_score__min__energy>
-15.699999999999999

> <m_primary>
energy

> <minimizedAffinity>
-8.50496

> <minimizedRMSD>
0.98866

> <CNNscore>
0.7636209130

> <CNNaffinity>
6.7558321953

> <CNN_VS>
5.1588945389

> <CNNaffinity_variance>
0.0744066760

$$$$
38:0


 24 25  0  0  0  0  0  0  0  0999 V2000
   59.5247   27.8292   48.2384 O   0  0  0  0  0  0  0  0  0  0  0  0
   59.6512   27.9099   47.0252 C   0  0  0  0  0  0  0  0  0  0  0  0
   59.7785   29.2634   46.3804 C   0  0  0  0  0  0  0  0  0  0  0  0
   58.9240   30.2981   47.1192 C   0  0  0  0  0  0  0  0  0  0  0  0
   58.9764   31.6322   46.4114 C   0  0  0  0  0  0  0  0  0  0  0  0
   58.0532   31.9368   45.3903 C   0  0  0  0  0  0  0  0  0  0  0  0
   57.0931   31.0077   45.0013 O   0  0  0  0  0  0  0  0  0  0  0  0
   58.0884   33.1833   44.7568 C   0  0  0  0  0  0  0  0  0  0  0  0
   59.0316   34.1387   45.1388 C   0  0  0  0  0  0  0  0  0  0  0  0
   59.9396   33.8560   46.1605 C   0  0  0  0  0  0  0  0  0  0  0  0
   59.9154   32.6108   46.8044 C   0  0  0  0  0  0  0  0  0  0  0  0
   60.8168   32.3454   47.8364 O   0  0  0  0  0  0  0  0  0  0  0  0
   61.4385   32.9971   48.0946 H   0  0  0  0  0  0  0  0  0  0  0  0
   59.6581   26.6550   46.1918 C   0  0  0  0  0  0  0  0  0  0  0  0
   58.3555   26.4644   45.4531 C   0  0  0  0  0  0  0  0  0  0  0  0
   57.8955   27.4138   44.7624 O   0  0  0  0  0  0  0  0  0  0  0  0
   57.6446   25.1584   45.4665 C   0  0  0  0  0  0  0  0  0  0  0  0
   58.3235   23.9756   45.1108 C   0  0  0  0  0  0  0  0  0  0  0  0
   57.6582   22.7458   45.1100 C   0  0  0  0  0  0  0  0  0  0  0  0
   56.3101   22.6778   45.4619 C   0  0  0  0  0  0  0  0  0  0  0  0
   55.6508   21.4550   45.4594 O   0  0  0  0  0  0  0  0  0  0  0  0
   55.6225   23.8419   45.8157 C   0  0  0  0  0  0  0  0  0  0  0  0
   56.2795   25.0772   45.8218 C   0  0  0  0  0  0  0  0  0  0  0  0
   55.5690   26.2116   46.1960 O   0  0  0  0  0  0  0  0  0  0  0  0
  1  2  2  0
  2  3  1  0
  3  4  1  0
  4  5  1  0
  5  6  2  0
  6  7  1  0
  6  8  1  0
  8  9  2  0
  9 10  1  0
 10 11  2  0
 11 12  1  0
  2 14  1  0
 14 15  1  0
 15 16  2  0
 15 17  1  0
 17 18  2  0
 18 19  1  0
 19 20  2  0
 20 21  1  0
 20 22  1  0
 22 23  2  0
 23 24  1  0
 11  5  1  0
 23 17  1  0
 12 13  1  0
M  CHG 1   7  -1
M  CHG 1  21  -1
M  CHG 1  24  -1
M  END
> <UniqueID>
38

> <SMILES>
O=C(CCc1c([O-])cccc1O)CC(=O)c1ccc([O-])cc1[O-]

> <Energy>
36.35616099271364

> <Genealogy>
O=C(CCc1c([O-])cccc1O)CC(=O)c1ccc([O-])cc1[O-] (protonated)
O=C(CCc1c([O-])cccc1O)CC(=O)c1ccc([O-])cc1[O-] (3D coordinates assigned)
O=C(CCc1c([O-])cccc1O)CC(=O)c1ccc([O-])cc1[O-] (optimized conformer: 36.35616099271364 kcal/mol)

> <smiles>
O=C(CCc1c(O)cccc1O)CC(=O)c1ccc(O)cc1O

> <score_type>
oracle

> <origin>
adg

> <m_score__min__energy>
-15.09

> <m_primary>
energy

> <minimizedAffinity>
-7.45750

> <minimizedRMSD>
2.50496

> <CNNscore>
0.5463672876

> <CNNaffinity>
6.2592949867

> <CNN_VS>
3.4198739529

> <CNNaffinity_variance>
0.2830343246

$$$$
49:0


 27 28  0  0  0  0  0  0  0  0999 V2000
   59.2954   32.3082   46.5967 C   0  0  0  0  0  0  0  0  0  0  0  0
   59.4183   33.6429   46.1824 C   0  0  0  0  0  0  0  0  0  0  0  0
   58.7443   34.1025   45.0495 C   0  0  0  0  0  0  0  0  0  0  0  0
   57.9480   33.2294   44.3104 C   0  0  0  0  0  0  0  0  0  0  0  0
   57.8362   31.8908   44.6894 C   0  0  0  0  0  0  0  0  0  0  0  0
   58.5232   31.4070   45.8152 C   0  0  0  0  0  0  0  0  0  0  0  0
   59.9418   31.9161   47.8213 N   0  0  0  0  0  0  0  0  0  0  0  0
   59.4667   31.2798   48.4033 H   0  0  0  0  0  0  0  0  0  0  0  0
   60.2072   33.9350   50.0191 C   0  0  0  0  0  0  0  0  0  0  0  0
   61.3897   33.3049   49.3315 C   0  0  0  0  0  0  0  0  0  0  0  0
   62.6898   33.6423   49.7575 C   0  0  0  0  0  0  0  0  0  0  0  0
   62.8819   34.4803   50.8083 F   0  0  0  0  0  0  0  0  0  0  0  0
   63.8077   33.1311   49.0940 C   0  0  0  0  0  0  0  0  0  0  0  0
   63.6474   32.2831   47.9997 C   0  0  0  0  0  0  0  0  0  0  0  0
   62.3683   31.9181   47.5820 C   0  0  0  0  0  0  0  0  0  0  0  0
   61.2307   32.3841   48.2593 C   0  0  0  0  0  0  0  0  0  0  0  0
   58.4575   29.9614   46.1096 C   0  0  0  0  0  0  0  0  0  0  0  0
   58.6142   29.5500   47.2901 O   0  0  0  0  0  0  0  0  0  0  0  0
   58.2410   29.0294   45.0436 N   0  0  0  0  0  0  0  0  0  0  0  0
   59.0508   27.8352   44.8252 C   0  0  0  0  0  0  0  0  0  0  0  0
   58.1851   26.5759   44.8721 C   0  0  0  0  0  0  0  0  0  0  0  0
   57.6264   26.3977   46.2105 N   0  0  0  0  0  0  0  0  0  0  0  0
   56.3802   25.1881   46.1812 S   0  0  0  0  0  0  0  0  0  0  0  0
   54.8473   25.9307   45.8905 N   0  0  0  0  0  0  0  0  0  0  0  0
   56.6715   24.2163   45.0725 O   0  0  0  0  0  0  0  0  0  0  0  0
   56.3406   24.4426   47.4888 O   0  0  0  0  0  0  0  0  0  0  0  0
   54.8764   26.4351   45.0044 H   0  0  0  0  0  0  0  0  0  0  0  0
  9 10  1  0
 10 11  2  0
 11 12  1  0
 11 13  1  0
 13 14  2  0
 14 15  1  0
 15 16  2  0
 16  7  1  0
  7  1  1  0
  1  2  2  0
  2  3  1  0
  3  4  2  0
  4  5  1  0
  5  6  2  0
  6 17  1  0
 17 18  2  0
 17 19  1  0
 19 20  1  0
 20 21  1  0
 21 22  1  0
 22 23  1  0
 23 24  1  0
 23 25  2  0
 23 26  2  0
 16 10  1  0
  6  1  1  0
  7  8  1  0
 24 27  1  0
M  CHG 1  19  -1
M  CHG 1  22  -1
M  CHG 1  24  -1
M  END
> <UniqueID>
47

> <SMILES>
Cc1c(F)cccc1Nc1ccccc1C(=O)[N-]CC[N-]S([NH-])(=O)=O

> <Energy>
47.49104546606885

> <Genealogy>
Cc1c(F)cccc1Nc1ccccc1C(=O)[N-]CC[N-]S([NH-])(=O)=O (protonated)
Cc1c(F)cccc1Nc1ccccc1C(=O)[N-]CC[N-]S([NH-])(=O)=O (3D coordinates assigned)
Cc1c(F)cccc1Nc1ccccc1C(=O)[N-]CC[N-]S([NH-])(=O)=O (optimized conformer: 47.49104546606885 kcal/mol)

> <smiles>
Cc1c(F)cccc1Nc1ccccc1C(=O)NCCNS(N)(=O)=O

> <score_type>
oracle

> <origin>
adg

> <m_score__min__energy>
-14.08

> <m_primary>
energy

> <minimizedAffinity>
-7.87961

> <minimizedRMSD>
1.87933

> <CNNscore>
0.8650563955

> <CNNaffinity>
7.0082449913

> <CNN_VS>
6.0625271797

> <CNNaffinity_variance>
0.0859553441

$$$$
75:0


 25 27  0  0  0  0  0  0  0  0999 V2000
   57.6080   31.7288   43.9094 C   0  0  0  0  0  0  0  0  0  0  0  0
   56.7834   30.3235   43.4882 S   0  0  0  0  0  0  0  0  0  0  0  0
   57.1308   29.5638   44.9391 C   0  0  0  0  0  0  0  0  0  0  0  0
   56.7056   28.3749   45.2500 N   0  0  0  0  0  0  0  0  0  0  0  0
   57.8530   30.3532   45.7613 N   0  0  0  0  0  0  0  0  0  0  0  0
   58.1301   31.5619   45.1979 C   0  0  0  0  0  0  0  0  0  0  0  0
   57.5011   27.2857   45.7497 C   0  0  0  0  0  0  0  0  0  0  0  0
   58.9093   27.3374   45.7672 C   0  0  0  0  0  0  0  0  0  0  0  0
   59.6491   26.2466   46.2363 C   0  0  0  0  0  0  0  0  0  0  0  0
   58.9957   25.0917   46.6704 C   0  0  0  0  0  0  0  0  0  0  0  0
   57.6015   25.0196   46.6282 C   0  0  0  0  0  0  0  0  0  0  0  0
   56.8550   26.1074   46.1619 C   0  0  0  0  0  0  0  0  0  0  0  0
   55.4690   26.0183   46.1170 O   0  0  0  0  0  0  0  0  0  0  0  0
   58.9312   32.5839   45.9220 C   0  0  0  0  0  0  0  0  0  0  0  0
   58.5638   33.9441   45.9252 C   0  0  0  0  0  0  0  0  0  0  0  0
   59.3350   34.8852   46.6108 C   0  0  0  0  0  0  0  0  0  0  0  0
   60.4788   34.4866   47.3049 C   0  0  0  0  0  0  0  0  0  0  0  0
   60.8540   33.1382   47.3242 C   0  0  0  0  0  0  0  0  0  0  0  0
   60.0836   32.1930   46.6303 C   0  0  0  0  0  0  0  0  0  0  0  0
   62.3033   32.6357   48.1881 S   0  0  0  0  0  0  0  0  0  0  0  0
   62.2123   31.1730   48.5236 O   0  0  0  0  0  0  0  0  0  0  0  0
   62.4318   33.4160   49.4665 O   0  0  0  0  0  0  0  0  0  0  0  0
   63.6901   32.9144   47.1943 N   0  0  0  0  0  0  0  0  0  0  0  0
   63.5997   32.3836   46.3280 H   0  0  0  0  0  0  0  0  0  0  0  0
   64.5296   32.6151   47.6904 H   0  0  0  0  0  0  0  0  0  0  0  0
  1  2  1  0
  2  3  1  0
  3  4  2  0
  4  7  1  0
  7  8  2  0
  8  9  1  0
  9 10  2  0
 10 11  1  0
 11 12  2  0
 12 13  1  0
  3  5  1  0
  5  6  1  0
  6 14  1  0
 14 15  2  0
 15 16  1  0
 16 17  2  0
 17 18  1  0
 18 20  1  0
 20 21  2  0
 20 22  2  0
 20 23  1  0
 18 19  2  0
  6  1  2  0
 19 14  1  0
 12  7  1  0
 23 24  1  0
 23 25  1  0
M  CHG 1   5  -1
M  CHG 1  13  -1
M  END
> <UniqueID>
70

> <SMILES>
NS(=O)(=O)c1cccc(-c2cs/c(=N/c3ccccc3[O-])[n-]2)c1

> <Energy>
73.35466199226327

> <Genealogy>
NS(=O)(=O)c1cccc(-c2csc(=Nc3ccccc3[O-])[n-]2)c1 (protonated)
NS(=O)(=O)c1cccc(-c2cs/c(=N/c3ccccc3[O-])[n-]2)c1 (cis-trans isomerization)
NS(=O)(=O)c1cccc(-c2cs/c(=N/c3ccccc3[O-])[n-]2)c1 (3D coordinates assigned)
NS(=O)(=O)c1cccc(-c2cs/c(=N/c3ccccc3[O-])[n-]2)c1 (optimized conformer: 73.35466199226327 kcal/mol)

> <smiles>
NS(=O)(=O)c1cccc(-c2csc(=Nc3ccccc3O)[nH]2)c1

> <score_type>
oracle

> <origin>
adg

> <m_score__min__energy>
-14.880000000000001

> <m_primary>
energy

> <minimizedAffinity>
-8.17957

> <minimizedRMSD>
0.61148

> <CNNscore>
0.6559566259

> <CNNaffinity>
6.3329987526

> <CNN_VS>
4.1541724205

> <CNNaffinity_variance>
0.0435621478

$$$$
82:0


 25 26  0  0  0  0  0  0  0  0999 V2000
   56.6532   27.1329   45.6419 O   0  0  0  0  0  0  0  0  0  0  0  0
   57.9884   27.2889   46.0185 C   0  0  0  0  0  0  0  0  0  0  0  0
   58.5526   28.5837   46.0561 C   0  0  0  0  0  0  0  0  0  0  0  0
   59.9271   28.7303   46.2761 C   0  0  0  0  0  0  0  0  0  0  0  0
   60.7333   27.6167   46.5103 C   0  0  0  0  0  0  0  0  0  0  0  0
   60.1725   26.3411   46.5348 C   0  0  0  0  0  0  0  0  0  0  0  0
   58.7992   26.1638   46.3113 C   0  0  0  0  0  0  0  0  0  0  0  0
   56.1291   27.8858   45.4513 H   0  0  0  0  0  0  0  0  0  0  0  0
   58.2381   24.7970   46.3922 C   0  0  0  0  0  0  0  0  0  0  0  0
   58.8252   23.8575   45.7925 O   0  0  0  0  0  0  0  0  0  0  0  0
   57.0249   24.5096   47.1062 N   0  0  0  0  0  0  0  0  0  0  0  0
   56.2729   23.4559   46.9574 C   0  0  0  0  0  0  0  0  0  0  0  0
   56.6963   22.2249   47.3677 N   0  0  0  0  0  0  0  0  0  0  0  0
   55.9369   21.1096   47.2035 C   0  0  0  0  0  0  0  0  0  0  0  0
   54.6800   21.2019   46.6046 C   0  0  0  0  0  0  0  0  0  0  0  0
   54.2236   22.4465   46.1669 C   0  0  0  0  0  0  0  0  0  0  0  0
   55.0219   23.5807   46.3352 C   0  0  0  0  0  0  0  0  0  0  0  0
   54.5685   24.8177   45.8926 O   0  0  0  0  0  0  0  0  0  0  0  0
   57.7829   29.7753   45.8334 N   0  0  0  0  0  0  0  0  0  0  0  0
   57.0556   30.2652   44.3345 S   0  0  0  0  0  0  0  0  0  0  0  0
   57.3006   29.1937   43.3097 O   0  0  0  0  0  0  0  0  0  0  0  0
   55.5724   30.4210   44.5190 O   0  0  0  0  0  0  0  0  0  0  0  0
   57.7612   31.8054   43.7434 C   0  0  0  0  0  0  0  0  0  0  0  0
   58.3901   32.6465   44.8614 C   0  0  0  0  0  0  0  0  0  0  0  0
   57.4437   33.7112   45.4153 C   0  0  0  0  0  0  0  0  0  0  0  0
  1  2  1  0
  2  3  2  0
  3 19  1  0
 19 20  1  0
 20 21  2  0
 20 22  2  0
 20 23  1  0
 23 24  1  0
 24 25  1  0
  3  4  1  0
  4  5  2  0
  5  6  1  0
  6  7  2  0
  7  9  1  0
  9 10  2  0
  9 11  1  0
 11 12  2  0
 12 13  1  0
 13 14  1  0
 14 15  2  0
 15 16  1  0
 16 17  2  0
 17 18  1  0
  7  2  1  0
 17 12  1  0
  1  8  1  0
M  CHG 1  13  -1
M  CHG 1  18  -1
M  CHG 1  19  -1
M  END
> <UniqueID>
76

> <SMILES>
CCCS(=O)(=O)[N-]c1cccc(C(=O)/N=c2\[n-]cccc2[O-])c1O

> <Energy>
46.361126292238346

> <Genealogy>
CCCS(=O)(=O)[N-]c1cccc(C(=O)N=c2[n-]cccc2[O-])c1O (protonated)
CCCS(=O)(=O)[N-]c1cccc(C(=O)/N=c2\[n-]cccc2[O-])c1O (cis-trans isomerization)
CCCS(=O)(=O)[N-]c1cccc(C(=O)/N=c2\[n-]cccc2[O-])c1O (3D coordinates assigned)
CCCS(=O)(=O)[N-]c1cccc(C(=O)/N=c2\[n-]cccc2[O-])c1O (optimized conformer: 46.361126292238346 kcal/mol)

> <smiles>
CCCS(=O)(=O)Nc1cccc(C(=O)N=c2[nH]cccc2O)c1O

> <score_type>
oracle

> <origin>
adg

> <m_score__min__energy>
-14.52

> <m_primary>
energy

> <minimizedAffinity>
-7.09153

> <minimizedRMSD>
1.05156

> <CNNscore>
0.5074651837

> <CNNaffinity>
5.9447860718

> <CNN_VS>
3.0167720318

> <CNNaffinity_variance>
0.3920727670

$$$$
86:0


 27 29  0  0  0  0  0  0  0  0999 V2000
   58.5773   28.3272   45.2225 C   0  0  0  0  0  0  0  0  0  0  0  0
   59.9332   27.9706   45.2659 C   0  0  0  0  0  0  0  0  0  0  0  0
   60.8548   28.7924   45.9183 C   0  0  0  0  0  0  0  0  0  0  0  0
   60.4328   29.9746   46.5328 C   0  0  0  0  0  0  0  0  0  0  0  0
   59.0781   30.3458   46.4954 C   0  0  0  0  0  0  0  0  0  0  0  0
   58.1536   29.5030   45.8597 C   0  0  0  0  0  0  0  0  0  0  0  0
   58.6132   31.5545   47.1151 N   0  0  0  0  0  0  0  0  0  0  0  0
   58.4674   31.5537   48.0888 H   0  0  0  0  0  0  0  0  0  0  0  0
   58.2947   33.0177   46.2361 S   0  0  0  0  0  0  0  0  0  0  0  0
   56.9051   33.5105   46.5268 O   0  0  0  0  0  0  0  0  0  0  0  0
   58.4365   32.7535   44.7632 O   0  0  0  0  0  0  0  0  0  0  0  0
   59.4770   34.2686   46.7329 C   0  0  0  0  0  0  0  0  0  0  0  0
   60.9278   33.8565   46.4393 C   0  0  0  0  0  0  0  0  0  0  0  0
   61.6736   33.4415   47.6827 C   0  0  0  0  0  0  0  0  0  0  0  0
   61.2501   33.8927   48.9446 C   0  0  0  0  0  0  0  0  0  0  0  0
   61.9607   33.5338   50.0950 C   0  0  0  0  0  0  0  0  0  0  0  0
   63.0934   32.7219   49.9951 C   0  0  0  0  0  0  0  0  0  0  0  0
   63.5197   32.2675   48.7444 C   0  0  0  0  0  0  0  0  0  0  0  0
   62.8150   32.6258   47.5910 C   0  0  0  0  0  0  0  0  0  0  0  0
   57.5752   27.4323   44.5484 C   0  0  0  0  0  0  0  0  0  0  0  0
   58.7787   23.0385   45.8223 O   0  0  0  0  0  0  0  0  0  0  0  0
   58.1172   24.1049   45.7200 C   0  0  0  0  0  0  0  0  0  0  0  0
   56.8968   24.2589   46.2772 N   0  0  0  0  0  0  0  0  0  0  0  0
   56.5696   25.5120   45.9239 C   0  0  0  0  0  0  0  0  0  0  0  0
   55.3698   26.1225   46.2621 O   0  0  0  0  0  0  0  0  0  0  0  0
   57.5818   26.0777   45.1856 C   0  0  0  0  0  0  0  0  0  0  0  0
   58.5719   25.1793   45.0397 N   0  0  0  0  0  0  0  0  0  0  0  0
 21 22  2  0
 22 23  1  0
 23 24  1  0
 24 25  1  0
 24 26  2  0
 26 20  1  0
 20  1  1  0
  1  2  2  0
  2  3  1  0
  3  4  2  0
  4  5  1  0
  5  7  1  0
  7  9  1  0
  9 10  2  0
  9 11  2  0
  9 12  1  0
 12 13  1  0
 13 14  1  0
 14 15  2  0
 15 16  1  0
 16 17  2  0
 17 18  1  0
 18 19  2  0
  5  6  2  0
 26 27  1  0
 27 22  1  0
  6  1  1  0
 19 14  1  0
  7  8  1  0
M  CHG 1  23  -1
M  CHG 1  25  -1
M  CHG 1  27  -1
M  END
> <UniqueID>
79

> <SMILES>
O=c1[n-]c([O-])c(Cc2cccc(NS(=O)(=O)CCc3ccccc3)c2)[n-]1

> <Energy>
66.22809958746575

> <Genealogy>
O=c1[n-]c([O-])c(Cc2cccc(NS(=O)(=O)CCc3ccccc3)c2)[n-]1 (protonated)
O=c1[n-]c([O-])c(Cc2cccc(NS(=O)(=O)CCc3ccccc3)c2)[n-]1 (3D coordinates assigned)
O=c1[n-]c([O-])c(Cc2cccc(NS(=O)(=O)CCc3ccccc3)c2)[n-]1 (optimized conformer: 66.22809958746575 kcal/mol)

> <smiles>
O=c1[nH]c(O)c(Cc2cccc(NS(=O)(=O)CCc3ccccc3)c2)[nH]1

> <score_type>
oracle

> <origin>
adg

> <m_score__min__energy>
-17.899999999999999

> <m_primary>
energy

> <minimizedAffinity>
-6.99393

> <minimizedRMSD>
1.17266

> <CNNscore>
0.3100794554

> <CNNaffinity>
6.5371518135

> <CNN_VS>
2.0270364285

> <CNNaffinity_variance>
0.6456283927

$$$$
21:0


 31 33  0  0  0  0  0  0  0  0999 V2000
   56.7254   31.5680   44.8571 N   0  0  0  0  0  0  0  0  0  0  0  0
   57.7363   32.4686   45.3324 C   0  0  0  0  0  0  0  0  0  0  0  0
   58.2454   33.4981   44.5204 C   0  0  0  0  0  0  0  0  0  0  0  0
   59.2103   34.3753   45.0235 C   0  0  0  0  0  0  0  0  0  0  0  0
   59.6639   34.2399   46.3376 C   0  0  0  0  0  0  0  0  0  0  0  0
   59.1498   33.2285   47.1616 C   0  0  0  0  0  0  0  0  0  0  0  0
   58.1713   32.3605   46.6582 C   0  0  0  0  0  0  0  0  0  0  0  0
   59.7403   33.0448   48.8157 S   0  0  0  0  0  0  0  0  0  0  0  0
   58.9203   31.9980   49.5207 O   0  0  0  0  0  0  0  0  0  0  0  0
   59.5662   34.3437   49.5520 O   0  0  0  0  0  0  0  0  0  0  0  0
   61.4271   32.5855   48.8488 N   0  0  0  0  0  0  0  0  0  0  0  0
   61.7629   31.7659   47.6682 C   0  0  0  0  0  0  0  0  0  0  0  0
   63.2763   31.7929   47.3987 C   0  0  0  0  0  0  0  0  0  0  0  0
   63.7993   33.0934   47.1518 O   0  0  0  0  0  0  0  0  0  0  0  0
   63.0059   34.1419   47.6896 C   0  0  0  0  0  0  0  0  0  0  0  0
   62.3097   33.7603   49.0090 C   0  0  0  0  0  0  0  0  0  0  0  0
   56.8746   30.1548   44.6719 C   0  0  0  0  0  0  0  0  0  0  0  0
   55.9185   29.4015   44.9969 O   0  0  0  0  0  0  0  0  0  0  0  0
   58.6031   28.3479   44.5344 C   0  0  0  0  0  0  0  0  0  0  0  0
   58.1629   29.5762   44.2261 C   0  0  0  0  0  0  0  0  0  0  0  0
   58.6442   26.7942   46.5217 C   0  0  0  0  0  0  0  0  0  0  0  0
   59.1304   26.4801   47.8020 C   0  0  0  0  0  0  0  0  0  0  0  0
   60.0780   27.2969   48.4211 C   0  0  0  0  0  0  0  0  0  0  0  0
   60.5435   28.4412   47.7756 C   0  0  0  0  0  0  0  0  0  0  0  0
   60.0666   28.7716   46.5068 C   0  0  0  0  0  0  0  0  0  0  0  0
   59.1278   27.9477   45.8598 C   0  0  0  0  0  0  0  0  0  0  0  0
   55.8758   26.4139   45.9394 N   0  0  0  0  0  0  0  0  0  0  0  0
   57.4508   25.7259   45.7676 S   0  0  0  0  0  0  0  0  0  0  0  0
   57.7743   25.5520   44.3102 O   0  0  0  0  0  0  0  0  0  0  0  0
   57.4728   24.3766   46.4270 O   0  0  0  0  0  0  0  0  0  0  0  0
   55.1871   25.7993   45.5053 H   0  0  0  0  0  0  0  0  0  0  0  0
 27 28  1  0
 28 29  2  0
 28 30  2  0
 28 21  1  0
 21 22  2  0
 22 23  1  0
 23 24  2  0
 24 25  1  0
 25 26  2  0
 26 19  1  0
 19 20  2  0
 20 17  1  0
 17 18  2  0
 17  1  1  0
  1  2  1  0
  2  3  2  0
  3  4  1  0
  4  5  2  0
  5  6  1  0
  6  8  1  0
  8  9  2  0
  8 10  2  0
  8 11  1  0
 11 12  1  0
 12 13  1  0
 13 14  1  0
 14 15  1  0
 15 16  1  0
  6  7  2  0
 26 21  1  0
  7  2  1  0
 16 11  1  0
 27 31  1  0
M  CHG 1   1  -1
M  CHG 1  27  -1
M  END
> <UniqueID>
22

> <SMILES>
[NH-]S(=O)(=O)c1ccccc1C=CC(=O)[N-]c1cccc(S(=O)(=O)N2CCOCC2)c1

> <Energy>
75.26403718015345

> <Genealogy>
[NH-]S(=O)(=O)c1ccccc1C=CC(=O)[N-]c1cccc(S(=O)(=O)N2CCOCC2)c1 (protonated)
[NH-]S(=O)(=O)c1ccccc1C=CC(=O)[N-]c1cccc(S(=O)(=O)N2CCOCC2)c1 (3D coordinates assigned)
[NH-]S(=O)(=O)c1ccccc1C=CC(=O)[N-]c1cccc(S(=O)(=O)N2CCOCC2)c1 (nonaromatic ring conformer: 75.26403718015345 kcal/mol)

> <smiles>
NS(=O)(=O)c1ccccc1C=CC(=O)Nc1cccc(S(=O)(=O)N2CCOCC2)c1

> <score_type>
oracle

> <origin>
adg

> <m_score__min__energy>
-15.02

> <m_primary>
energy

> <minimizedAffinity>
-8.18976

> <minimizedRMSD>
0.69699

> <CNNscore>
0.8363582492

> <CNNaffinity>
7.2840380669

> <CNN_VS>
6.0920653343

> <CNNaffinity_variance>
0.1395352483

$$$$
40:0


 26 27  0  0  0  0  0  0  0  0999 V2000
   57.5612   31.5285   43.5817 C   0  0  0  0  0  0  0  0  0  0  0  0
   58.0825   32.3154   42.7457 O   0  0  0  0  0  0  0  0  0  0  0  0
   57.6738   31.7905   44.9911 N   0  0  0  0  0  0  0  0  0  0  0  0
   58.6563   31.1430   45.8561 C   0  0  0  0  0  0  0  0  0  0  0  0
   61.0547   32.7805   48.3614 C   0  0  0  0  0  0  0  0  0  0  0  0
   60.6007   34.1130   48.2978 C   0  0  0  0  0  0  0  0  0  0  0  0
   59.5196   34.4600   47.4921 C   0  0  0  0  0  0  0  0  0  0  0  0
   58.8725   33.4913   46.7364 C   0  0  0  0  0  0  0  0  0  0  0  0
   59.3077   32.1578   46.7668 C   0  0  0  0  0  0  0  0  0  0  0  0
   60.3923   31.7868   47.5940 C   0  0  0  0  0  0  0  0  0  0  0  0
   63.5034   32.3971   48.7310 C   0  0  0  0  0  0  0  0  0  0  0  0
   62.1515   32.4368   49.1660 O   0  0  0  0  0  0  0  0  0  0  0  0
   60.7574   30.4229   47.6060 O   0  0  0  0  0  0  0  0  0  0  0  0
   60.4089   29.4602   48.5982 C   0  0  0  0  0  0  0  0  0  0  0  0
   56.7904   30.3407   43.0851 C   0  0  0  0  0  0  0  0  0  0  0  0
   57.2794   29.1046   43.6792 N   0  0  0  0  0  0  0  0  0  0  0  0
   56.7708   28.5395   44.8918 C   0  0  0  0  0  0  0  0  0  0  0  0
   55.7295   29.0278   45.4097 O   0  0  0  0  0  0  0  0  0  0  0  0
   57.4553   27.3898   45.5465 C   0  0  0  0  0  0  0  0  0  0  0  0
   58.8653   27.3845   45.6478 C   0  0  0  0  0  0  0  0  0  0  0  0
   59.5369   26.3303   46.2763 C   0  0  0  0  0  0  0  0  0  0  0  0
   61.4465   26.3645   46.4215 Br  0  0  0  0  0  0  0  0  0  0  0  0
   58.8153   25.2572   46.7982 C   0  0  0  0  0  0  0  0  0  0  0  0
   57.4201   25.2371   46.6936 C   0  0  0  0  0  0  0  0  0  0  0  0
   56.7363   26.2936   46.0803 C   0  0  0  0  0  0  0  0  0  0  0  0
   55.3481   26.2313   46.0099 O   0  0  0  0  0  0  0  0  0  0  0  0
 11 12  1  0
 12  5  1  0
  5  6  2  0
  6  7  1  0
  7  8  2  0
  8  9  1  0
  9  4  1  0
  4  3  1  0
  3  1  1  0
  1  2  2  0
  1 15  1  0
 15 16  1  0
 16 17  1  0
 17 18  2  0
 17 19  1  0
 19 20  2  0
 20 21  1  0
 21 22  1  0
 21 23  2  0
 23 24  1  0
 24 25  2  0
 25 26  1  0
  9 10  2  0
 10 13  1  0
 13 14  1  0
 10  5  1  0
 25 19  1  0
M  CHG 1   3  -1
M  CHG 1  16  -1
M  CHG 1  26  -1
M  END
> <UniqueID>
38

> <SMILES>
COc1cccc(C[N-]C(=O)C[N-]C(=O)c2cc(Br)ccc2[O-])c1OC

> <Energy>
41.0502314937149

> <Genealogy>
COc1cccc(C[N-]C(=O)C[N-]C(=O)c2cc(Br)ccc2[O-])c1OC (protonated)
COc1cccc(C[N-]C(=O)C[N-]C(=O)c2cc(Br)ccc2[O-])c1OC (3D coordinates assigned)
COc1cccc(C[N-]C(=O)C[N-]C(=O)c2cc(Br)ccc2[O-])c1OC (optimized conformer: 41.0502314937149 kcal/mol)

> <smiles>
COc1cccc(CNC(=O)CNC(=O)c2cc(Br)ccc2O)c1OC

> <score_type>
oracle

> <origin>
adg

> <m_score__min__energy>
-14.550000000000001

> <m_primary>
energy

> <minimizedAffinity>
-4.65415

> <minimizedRMSD>
0.74687

> <CNNscore>
0.6911791563

> <CNNaffinity>
6.6057648659

> <CNN_VS>
4.5657668114

> <CNNaffinity_variance>
0.1067331359

$$$$
56:0


 29 31  0  0  0  0  0  0  0  0999 V2000
   59.2319   31.4287   46.1951 C   0  0  0  0  0  0  0  0  0  0  0  0
   58.3397   32.5044   46.2340 C   0  0  0  0  0  0  0  0  0  0  0  0
   57.2546   32.5578   45.3663 O   0  0  0  0  0  0  0  0  0  0  0  0
   58.5217   33.5016   47.1319 N   0  0  0  0  0  0  0  0  0  0  0  0
   59.5647   33.4947   47.9993 C   0  0  0  0  0  0  0  0  0  0  0  0
   59.6741   34.4374   48.8310 O   0  0  0  0  0  0  0  0  0  0  0  0
   60.4773   32.4725   47.9740 N   0  0  0  0  0  0  0  0  0  0  0  0
   60.3334   31.4493   47.0710 C   0  0  0  0  0  0  0  0  0  0  0  0
   61.2048   30.5382   47.0007 O   0  0  0  0  0  0  0  0  0  0  0  0
   61.5903   32.4723   48.8929 C   0  0  0  0  0  0  0  0  0  0  0  0
   61.4577   31.8937   50.1666 C   0  0  0  0  0  0  0  0  0  0  0  0
   62.5381   31.8929   51.0548 C   0  0  0  0  0  0  0  0  0  0  0  0
   63.7544   32.4691   50.6782 C   0  0  0  0  0  0  0  0  0  0  0  0
   63.8944   33.0452   49.4126 C   0  0  0  0  0  0  0  0  0  0  0  0
   62.8180   33.0489   48.5216 C   0  0  0  0  0  0  0  0  0  0  0  0
   59.0372   30.3457   45.2014 C   0  0  0  0  0  0  0  0  0  0  0  0
   58.1660   29.3282   45.3565 C   0  0  0  0  0  0  0  0  0  0  0  0
   56.7913   29.4550   44.9238 C   0  0  0  0  0  0  0  0  0  0  0  0
   55.6911   29.5583   44.5766 N   0  0  0  0  0  0  0  0  0  0  0  0
   58.6049   28.0330   45.9234 C   0  0  0  0  0  0  0  0  0  0  0  0
   59.8294   27.7320   45.9506 O   0  0  0  0  0  0  0  0  0  0  0  0
   57.6242   27.1014   46.4018 N   0  0  0  0  0  0  0  0  0  0  0  0
   57.4845   25.7266   46.0091 C   0  0  0  0  0  0  0  0  0  0  0  0
   58.6015   24.8929   45.8122 C   0  0  0  0  0  0  0  0  0  0  0  0
   58.4262   23.5530   45.4537 C   0  0  0  0  0  0  0  0  0  0  0  0
   57.1397   23.0304   45.3028 C   0  0  0  0  0  0  0  0  0  0  0  0
   56.0256   23.8443   45.5196 C   0  0  0  0  0  0  0  0  0  0  0  0
   56.1948   25.1857   45.8782 C   0  0  0  0  0  0  0  0  0  0  0  0
   55.0770   25.9828   46.0992 O   0  0  0  0  0  0  0  0  0  0  0  0
 16 17  2  0
 17 18  1  0
 18 19  3  0
 17 20  1  0
 20 21  2  0
 20 22  1  0
 22 23  1  0
 23 24  2  0
 24 25  1  0
 25 26  2  0
 26 27  1  0
 27 28  2  0
 28 29  1  0
 16  1  1  0
  1  2  2  0
  2  3  1  0
  2  4  1  0
  4  5  1  0
  5  6  2  0
  5  7  1  0
  7 10  1  0
 10 11  2  0
 11 12  1  0
 12 13  2  0
 13 14  1  0
 14 15  2  0
  7  8  1  0
  8  9  2  0
 28 23  1  0
  8  1  1  0
 15 10  1  0
M  CHG 1   3  -1
M  CHG 1   4  -1
M  CHG 1  22  -1
M  CHG 1  29  -1
M  END
> <UniqueID>
53

> <SMILES>
N#C/C(=C\c1c([O-])[n-]c(=O)n(-c2ccccc2)c1=O)C(=O)[N-]c1ccccc1[O-]

> <Energy>
64.61827569907958

> <Genealogy>
N#CC(=Cc1c([O-])[n-]c(=O)n(-c2ccccc2)c1=O)C(=O)[N-]c1ccccc1[O-] (protonated)
N#C/C(=C\c1c([O-])[n-]c(=O)n(-c2ccccc2)c1=O)C(=O)[N-]c1ccccc1[O-] (cis-trans isomerization)
N#C/C(=C\c1c([O-])[n-]c(=O)n(-c2ccccc2)c1=O)C(=O)[N-]c1ccccc1[O-] (3D coordinates assigned)
N#C/C(=C\c1c([O-])[n-]c(=O)n(-c2ccccc2)c1=O)C(=O)[N-]c1ccccc1[O-] (optimized conformer: 64.61827569907958 kcal/mol)

> <smiles>
N#CC(=Cc1c(O)[nH]c(=O)n(-c2ccccc2)c1=O)C(=O)Nc1ccccc1O

> <score_type>
oracle

> <origin>
adg

> <m_score__min__energy>
-17.129999999999999

> <m_primary>
energy

> <minimizedAffinity>
-8.48902

> <minimizedRMSD>
1.18836

> <CNNscore>
0.5050814152

> <CNNaffinity>
6.8204460144

> <CNN_VS>
3.4448804855

> <CNNaffinity_variance>
0.1852611750

$$$$
57:0


 30 33  0  0  0  0  0  0  0  0999 V2000
   57.4680   30.4148   44.8805 C   0  0  0  0  0  0  0  0  0  0  0  0
   58.1708   31.5104   45.2430 C   0  0  0  0  0  0  0  0  0  0  0  0
   58.3172   32.6436   44.3058 C   0  0  0  0  0  0  0  0  0  0  0  0
   57.9952   32.5307   43.0918 O   0  0  0  0  0  0  0  0  0  0  0  0
   58.8044   33.8976   44.7799 N   0  0  0  0  0  0  0  0  0  0  0  0
   59.1716   34.0832   46.1478 C   0  0  0  0  0  0  0  0  0  0  0  0
   59.4890   35.2362   46.5442 O   0  0  0  0  0  0  0  0  0  0  0  0
   59.1873   32.9633   47.0552 N   0  0  0  0  0  0  0  0  0  0  0  0
   58.8299   31.6561   46.5668 C   0  0  0  0  0  0  0  0  0  0  0  0
   59.1304   30.6348   47.2420 O   0  0  0  0  0  0  0  0  0  0  0  0
   59.0029   25.0766   46.0769 O   0  0  0  0  0  0  0  0  0  0  0  0
   58.6379   26.3872   45.7798 C   0  0  0  0  0  0  0  0  0  0  0  0
   59.5879   27.2998   45.3021 C   0  0  0  0  0  0  0  0  0  0  0  0
   59.2130   28.6123   45.0026 C   0  0  0  0  0  0  0  0  0  0  0  0
   57.8752   29.0192   45.1549 C   0  0  0  0  0  0  0  0  0  0  0  0
   56.9339   28.1128   45.6620 C   0  0  0  0  0  0  0  0  0  0  0  0
   57.3103   26.7984   45.9632 C   0  0  0  0  0  0  0  0  0  0  0  0
   56.3638   25.9040   46.4473 O   0  0  0  0  0  0  0  0  0  0  0  0
   59.8893   24.7982   45.9556 H   0  0  0  0  0  0  0  0  0  0  0  0
   59.4309   33.1631   48.4904 C   0  0  0  0  0  0  0  0  0  0  0  0
   60.9047   33.1073   48.7659 C   0  0  0  0  0  0  0  0  0  0  0  0
   61.3739   33.4966   49.9826 N   0  0  0  0  0  0  0  0  0  0  0  0
   62.6916   33.4105   50.3085 C   0  0  0  0  0  0  0  0  0  0  0  0
   63.1330   33.8281   51.5682 C   0  0  0  0  0  0  0  0  0  0  0  0
   64.4885   33.7341   51.9007 C   0  0  0  0  0  0  0  0  0  0  0  0
   65.4059   33.2205   50.9773 C   0  0  0  0  0  0  0  0  0  0  0  0
   64.9727   32.7985   49.7152 C   0  0  0  0  0  0  0  0  0  0  0  0
   63.6160   32.8917   49.3747 C   0  0  0  0  0  0  0  0  0  0  0  0
   63.1498   32.4731   48.1216 C   0  0  0  0  0  0  0  0  0  0  0  0
   61.7912   32.5779   47.8147 C   0  0  0  0  0  0  0  0  0  0  0  0
 11 12  1  0
 12 13  2  0
 13 14  1  0
 14 15  2  0
 15  1  1  0
  1  2  2  0
  2  3  1  0
  3  4  2  0
  3  5  1  0
  5  6  1  0
  6  7  2  0
  6  8  1  0
  8 20  1  0
 20 21  1  0
 21 22  2  0
 22 23  1  0
 23 24  2  0
 24 25  1  0
 25 26  2  0
 26 27  1  0
 27 28  2  0
 28 29  1  0
 29 30  2  0
  8  9  1  0
  9 10  2  0
 15 16  1  0
 16 17  2  0
 17 18  1  0
 17 12  1  0
  9  2  1  0
 30 21  1  0
 28 23  1  0
 11 19  1  0
M  CHG 1   5  -1
M  CHG 1  18  -1
M  END
> <UniqueID>
54

> <SMILES>
O=C1[N-]C(=O)N(Cc2ccc3ccccc3n2)C(=O)/C1=C\c1ccc(O)c([O-])c1

> <Energy>
57.270171775904025

> <Genealogy>
O=C1[N-]C(=O)N(Cc2ccc3ccccc3n2)C(=O)C1=Cc1ccc(O)c([O-])c1 (protonated)
O=C1[N-]C(=O)N(Cc2ccc3ccccc3n2)C(=O)/C1=C\c1ccc(O)c([O-])c1 (cis-trans isomerization)
O=C1[N-]C(=O)N(Cc2ccc3ccccc3n2)C(=O)/C1=C\c1ccc(O)c([O-])c1 (3D coordinates assigned)
O=C1[N-]C(=O)N(Cc2ccc3ccccc3n2)C(=O)/C1=C\c1ccc(O)c([O-])c1 (nonaromatic ring conformer: 57.270171775904025 kcal/mol)

> <smiles>
O=C1NC(=O)N(Cc2ccc3ccccc3n2)C(=O)C1=Cc1ccc(O)c(O)c1

> <score_type>
oracle

> <origin>
adg

> <m_score__min__energy>
-14.140000000000001

> <m_primary>
energy

> <minimizedAffinity>
-8.87964

> <minimizedRMSD>
0.83957

> <CNNscore>
0.4590779841

> <CNNaffinity>
6.5636730194

> <CNN_VS>
3.0132377148

> <CNNaffinity_variance>
0.0274555814

$$$$
92:0


 30 32  0  0  0  0  0  0  0  0999 V2000
   58.6066   32.1218   45.5810 C   0  0  0  0  0  0  0  0  0  0  0  0
   58.5104   33.4971   45.3332 C   0  0  0  0  0  0  0  0  0  0  0  0
   59.1658   34.4078   46.1641 C   0  0  0  0  0  0  0  0  0  0  0  0
   59.9239   33.9530   47.2463 C   0  0  0  0  0  0  0  0  0  0  0  0
   60.0248   32.5755   47.5171 C   0  0  0  0  0  0  0  0  0  0  0  0
   59.3464   31.6690   46.6810 C   0  0  0  0  0  0  0  0  0  0  0  0
   57.8395   30.9639   44.4939 S   0  0  0  0  0  0  0  0  0  0  0  0
   56.4436   30.6528   44.9532 O   0  0  0  0  0  0  0  0  0  0  0  0
   57.7550   31.5576   43.1137 O   0  0  0  0  0  0  0  0  0  0  0  0
   58.7986   29.5194   44.3844 N   0  0  0  0  0  0  0  0  0  0  0  0
   57.7507   26.5028   46.3253 C   0  0  0  0  0  0  0  0  0  0  0  0
   58.8727   26.2946   47.1429 C   0  0  0  0  0  0  0  0  0  0  0  0
   59.9791   27.1410   47.0506 C   0  0  0  0  0  0  0  0  0  0  0  0
   59.9788   28.2077   46.1479 C   0  0  0  0  0  0  0  0  0  0  0  0
   58.8614   28.4355   45.3246 C   0  0  0  0  0  0  0  0  0  0  0  0
   57.7599   27.5754   45.4147 C   0  0  0  0  0  0  0  0  0  0  0  0
   55.4311   26.0071   46.1178 O   0  0  0  0  0  0  0  0  0  0  0  0
   56.5865   25.5952   46.4108 C   0  0  0  0  0  0  0  0  0  0  0  0
   56.7499   24.2745   46.8126 O   0  0  0  0  0  0  0  0  0  0  0  0
   60.8475   32.0919   48.6575 C   0  0  0  0  0  0  0  0  0  0  0  0
   62.0466   32.4610   48.7648 O   0  0  0  0  0  0  0  0  0  0  0  0
   60.2859   31.2791   49.6989 N   0  0  0  0  0  0  0  0  0  0  0  0
   59.4186   31.6162   50.6154 C   0  0  0  0  0  0  0  0  0  0  0  0
   58.3250   30.8211   50.7721 N   0  0  0  0  0  0  0  0  0  0  0  0
   57.3654   31.0665   51.7012 C   0  0  0  0  0  0  0  0  0  0  0  0
   57.4762   32.1690   52.5429 C   0  0  0  0  0  0  0  0  0  0  0  0
   58.5717   33.0190   52.4107 C   0  0  0  0  0  0  0  0  0  0  0  0
   59.5479   32.7695   51.4353 C   0  0  0  0  0  0  0  0  0  0  0  0
   60.6012   33.6690   51.2803 O   0  0  0  0  0  0  0  0  0  0  0  0
   60.6606   34.4212   51.8358 H   0  0  0  0  0  0  0  0  0  0  0  0
 17 18  2  0
 18 19  1  0
 18 11  1  0
 11 12  2  0
 12 13  1  0
 13 14  2  0
 14 15  1  0
 15 10  1  0
 10  7  1  0
  7  8  2  0
  7  9  2  0
  7  1  1  0
  1  2  2  0
  2  3  1  0
  3  4  2  0
  4  5  1  0
  5 20  1  0
 20 21  2  0
 20 22  1  0
 22 23  2  0
 23 24  1  0
 24 25  1  0
 25 26  2  0
 26 27  1  0
 27 28  2  0
 28 29  1  0
  5  6  2  0
 15 16  2  0
 16 11  1  0
  6  1  1  0
 28 23  1  0
 29 30  1  0
M  CHG 1  10  -1
M  CHG 1  19  -1
M  CHG 1  24  -1
M  END
> <UniqueID>
83

> <SMILES>
O=C([O-])c1cccc([N-]S(=O)(=O)c2cccc(C(=O)N=c3[n-]cccc3O)c2)c1

> <Energy>
59.50438834524227

> <Genealogy>
O=C([O-])c1cccc([N-]S(=O)(=O)c2cccc(C(=O)N=c3[n-]cccc3O)c2)c1 (protonated)
O=C([O-])c1cccc([N-]S(=O)(=O)c2cccc(C(=O)N=c3[n-]cccc3O)c2)c1 (3D coordinates assigned)
O=C([O-])c1cccc([N-]S(=O)(=O)c2cccc(C(=O)N=c3[n-]cccc3O)c2)c1 (optimized conformer: 59.50438834524227 kcal/mol)

> <smiles>
O=C(O)c1cccc(NS(=O)(=O)c2cccc(C(=O)N=c3[nH]cccc3O)c2)c1

> <score_type>
oracle

> <origin>
adg

> <m_score__min__energy>
-15.210000000000001

> <m_primary>
energy

> <minimizedAffinity>
-8.71772

> <minimizedRMSD>
1.14155

> <CNNscore>
0.8091221452

> <CNNaffinity>
6.8812584877

> <CNN_VS>
5.5677785873

> <CNNaffinity_variance>
0.0447009355

$$$$
7:0


 27 29  0  0  0  0  0  0  0  0999 V2000
   59.2983   28.7696   45.0721 C   0  0  0  0  0  0  0  0  0  0  0  0
   58.9397   30.0350   45.4316 C   0  0  0  0  0  0  0  0  0  0  0  0
   57.9776   30.8369   44.7437 C   0  0  0  0  0  0  0  0  0  0  0  0
   57.5341   30.5914   43.5024 C   0  0  0  0  0  0  0  0  0  0  0  0
   57.5534   31.9891   45.3173 N   0  0  0  0  0  0  0  0  0  0  0  0
   58.0619   32.4604   46.4773 C   0  0  0  0  0  0  0  0  0  0  0  0
   57.5989   33.5336   46.9498 O   0  0  0  0  0  0  0  0  0  0  0  0
   59.0814   31.7972   47.1037 N   0  0  0  0  0  0  0  0  0  0  0  0
   59.5293   30.6038   46.5945 C   0  0  0  0  0  0  0  0  0  0  0  0
   60.4604   29.9878   47.1889 O   0  0  0  0  0  0  0  0  0  0  0  0
   55.2893   26.0726   46.0826 O   0  0  0  0  0  0  0  0  0  0  0  0
   56.6789   26.1872   46.0376 C   0  0  0  0  0  0  0  0  0  0  0  0
   57.5039   25.1246   46.4423 C   0  0  0  0  0  0  0  0  0  0  0  0
   56.9495   23.9307   46.8877 O   0  0  0  0  0  0  0  0  0  0  0  0
   58.8934   25.2657   46.4048 C   0  0  0  0  0  0  0  0  0  0  0  0
   59.4677   26.4563   45.9549 C   0  0  0  0  0  0  0  0  0  0  0  0
   58.6560   27.5132   45.5168 C   0  0  0  0  0  0  0  0  0  0  0  0
   57.2541   27.3848   45.5883 C   0  0  0  0  0  0  0  0  0  0  0  0
   56.4275   28.4453   45.2278 O   0  0  0  0  0  0  0  0  0  0  0  0
   54.8943   25.2771   46.3811 H   0  0  0  0  0  0  0  0  0  0  0  0
   59.6575   32.3306   48.3569 C   0  0  0  0  0  0  0  0  0  0  0  0
   61.1169   32.6587   48.1711 C   0  0  0  0  0  0  0  0  0  0  0  0
   62.0699   32.1985   49.0943 C   0  0  0  0  0  0  0  0  0  0  0  0
   63.4271   32.4766   48.9063 C   0  0  0  0  0  0  0  0  0  0  0  0
   63.8435   33.2133   47.7945 C   0  0  0  0  0  0  0  0  0  0  0  0
   62.9038   33.6728   46.8696 C   0  0  0  0  0  0  0  0  0  0  0  0
   61.5458   33.3964   47.0544 C   0  0  0  0  0  0  0  0  0  0  0  0
 11 12  1  0
 12 13  2  0
 13 14  1  0
 13 15  1  0
 15 16  2  0
 16 17  1  0
 17  1  1  0
  1  2  2  0
  2  3  1  0
  3  4  2  0
  3  5  1  0
  5  6  1  0
  6  7  2  0
  6  8  1  0
  8 21  1  0
 21 22  1  0
 22 23  2  0
 23 24  1  0
 24 25  2  0
 25 26  1  0
 26 27  2  0
  8  9  1  0
  9 10  2  0
 17 18  2  0
 18 19  1  0
 18 12  1  0
  9  2  1  0
 27 22  1  0
 11 20  1  0
M  CHG 1   5  -1
M  CHG 1  14  -1
M  CHG 1  19  -1
M  END
> <UniqueID>
6

> <SMILES>
C=c1[n-]c(=O)n(Cc2ccccc2)c(=O)/c1=C/c1ccc([O-])c(O)c1[O-]

> <Energy>
69.98618931694931

> <Genealogy>
C=c1[n-]c(=O)n(Cc2ccccc2)c(=O)c1=Cc1ccc([O-])c(O)c1[O-] (protonated)
C=c1[n-]c(=O)n(Cc2ccccc2)c(=O)/c1=C/c1ccc([O-])c(O)c1[O-] (cis-trans isomerization)
C=c1[n-]c(=O)n(Cc2ccccc2)c(=O)/c1=C/c1ccc([O-])c(O)c1[O-] (3D coordinates assigned)
C=c1[n-]c(=O)n(Cc2ccccc2)c(=O)/c1=C/c1ccc([O-])c(O)c1[O-] (optimized conformer: 69.98618931694931 kcal/mol)

> <smiles>
C=c1[nH]c(=O)n(Cc2ccccc2)c(=O)c1=Cc1ccc(O)c(O)c1O

> <score_type>
oracle

> <origin>
adg

> <m_score__min__energy>
-15.67

> <m_primary>
energy

> <minimizedAffinity>
-9.48287

> <minimizedRMSD>
0.73087

> <CNNscore>
0.8708301783

> <CNNaffinity>
6.9027123451

> <CNN_VS>
6.0110902786

> <CNNaffinity_variance>
0.1697468013

$$$$
14:0


 27 29  0  0  0  0  0  0  0  0999 V2000
   57.8273   27.4231   45.8339 C   0  0  0  0  0  0  0  0  0  0  0  0
   59.1658   27.0421   46.0509 C   0  0  0  0  0  0  0  0  0  0  0  0
   60.1905   27.9840   45.9471 C   0  0  0  0  0  0  0  0  0  0  0  0
   59.8996   29.3038   45.5980 C   0  0  0  0  0  0  0  0  0  0  0  0
   58.5799   29.6900   45.3297 C   0  0  0  0  0  0  0  0  0  0  0  0
   57.5416   28.7474   45.4580 C   0  0  0  0  0  0  0  0  0  0  0  0
   56.2214   29.1222   45.2244 O   0  0  0  0  0  0  0  0  0  0  0  0
   58.2341   31.3605   44.8577 S   0  0  0  0  0  0  0  0  0  0  0  0
   58.1502   31.4543   43.3583 O   0  0  0  0  0  0  0  0  0  0  0  0
   56.9125   31.7576   45.4557 O   0  0  0  0  0  0  0  0  0  0  0  0
   59.5054   32.4167   45.4475 N   0  0  0  0  0  0  0  0  0  0  0  0
   59.1464   33.8472   45.3006 C   0  0  0  0  0  0  0  0  0  0  0  0
   58.6697   34.4787   46.6214 C   0  0  0  0  0  0  0  0  0  0  0  0
   57.9714   33.5270   47.3921 O   0  0  0  0  0  0  0  0  0  0  0  0
   58.8666   32.5376   47.8735 C   0  0  0  0  0  0  0  0  0  0  0  0
   59.9057   32.0734   46.8232 C   0  0  0  0  0  0  0  0  0  0  0  0
   56.7440   26.4835   45.9255 N   0  0  0  0  0  0  0  0  0  0  0  0
   57.7215   24.6260   44.8729 O   0  0  0  0  0  0  0  0  0  0  0  0
   56.6969   25.1552   45.3815 C   0  0  0  0  0  0  0  0  0  0  0  0
   55.4128   24.3857   45.4338 C   0  0  0  0  0  0  0  0  0  0  0  0
   55.4135   23.4173   46.5934 C   0  0  0  0  0  0  0  0  0  0  0  0
   56.4595   23.4585   47.5363 C   0  0  0  0  0  0  0  0  0  0  0  0
   56.4867   22.5521   48.6038 C   0  0  0  0  0  0  0  0  0  0  0  0
   55.4817   21.5856   48.7269 C   0  0  0  0  0  0  0  0  0  0  0  0
   54.4440   21.5277   47.7896 C   0  0  0  0  0  0  0  0  0  0  0  0
   54.4077   22.4345   46.7218 C   0  0  0  0  0  0  0  0  0  0  0  0
   53.3708   22.3520   45.7944 O   0  0  0  0  0  0  0  0  0  0  0  0
 18 19  2  0
 19 20  1  0
 20 21  1  0
 21 22  2  0
 22 23  1  0
 23 24  2  0
 24 25  1  0
 25 26  2  0
 26 27  1  0
 19 17  1  0
 17  1  1  0
  1  2  2  0
  2  3  1  0
  3  4  2  0
  4  5  1  0
  5  8  1  0
  8  9  2  0
  8 10  2  0
  8 11  1  0
 11 12  1  0
 12 13  1  0
 13 14  1  0
 14 15  1  0
 15 16  1  0
  5  6  2  0
  6  7  1  0
 26 21  1  0
  6  1  1  0
 16 11  1  0
M  CHG 1   7  -1
M  CHG 1  17  -1
M  CHG 1  27  -1
M  END
> <UniqueID>
13

> <SMILES>
O=C(Cc1ccccc1[O-])[N-]c1cccc(S(=O)(=O)N2CCOCC2)c1[O-]

> <Energy>
61.08293465347156

> <Genealogy>
O=C(Cc1ccccc1[O-])[N-]c1cccc(S(=O)(=O)N2CCOCC2)c1[O-] (protonated)
O=C(Cc1ccccc1[O-])[N-]c1cccc(S(=O)(=O)N2CCOCC2)c1[O-] (3D coordinates assigned)
O=C(Cc1ccccc1[O-])[N-]c1cccc(S(=O)(=O)N2CCOCC2)c1[O-] (nonaromatic ring conformer: 61.08293465347156 kcal/mol)

> <smiles>
O=C(Cc1ccccc1O)Nc1cccc(S(=O)(=O)N2CCOCC2)c1O

> <score_type>
oracle

> <origin>
adg

> <m_score__min__energy>
-17.18

> <m_primary>
energy

> <minimizedAffinity>
-6.43225

> <minimizedRMSD>
1.34516

> <CNNscore>
0.1871242672

> <CNNaffinity>
5.6112084389

> <CNN_VS>
1.0499932766

> <CNNaffinity_variance>
0.0177777689

$$$$
66:0


 31 34  0  0  0  0  0  0  0  0999 V2000
   55.5824   24.8129   46.2119 N   0  0  0  0  0  0  0  0  0  0  0  0
   56.4039   25.8190   46.2285 C   0  0  0  0  0  0  0  0  0  0  0  0
   55.9997   27.0169   45.7360 N   0  0  0  0  0  0  0  0  0  0  0  0
   56.8412   28.0831   45.7391 C   0  0  0  0  0  0  0  0  0  0  0  0
   56.4279   29.2140   45.2478 N   0  0  0  0  0  0  0  0  0  0  0  0
   58.0934   27.9454   46.2553 N   0  0  0  0  0  0  0  0  0  0  0  0
   58.5053   26.7485   46.7535 C   0  0  0  0  0  0  0  0  0  0  0  0
   59.6990   26.6016   47.2481 N   0  0  0  0  0  0  0  0  0  0  0  0
   57.6589   25.6893   46.7349 N   0  0  0  0  0  0  0  0  0  0  0  0
   56.9244   29.8752   44.0737 C   0  0  0  0  0  0  0  0  0  0  0  0
   56.1990   30.0268   43.0547 O   0  0  0  0  0  0  0  0  0  0  0  0
   58.2973   30.4681   44.0889 C   0  0  0  0  0  0  0  0  0  0  0  0
   58.3040   31.7325   44.9011 C   0  0  0  0  0  0  0  0  0  0  0  0
   58.3012   31.6756   46.3045 C   0  0  0  0  0  0  0  0  0  0  0  0
   58.2662   32.8559   47.0556 C   0  0  0  0  0  0  0  0  0  0  0  0
   58.2248   34.0964   46.4134 C   0  0  0  0  0  0  0  0  0  0  0  0
   58.2162   34.1592   45.0181 C   0  0  0  0  0  0  0  0  0  0  0  0
   58.2529   32.9821   44.2630 C   0  0  0  0  0  0  0  0  0  0  0  0
   55.1719   24.0897   45.0096 C   0  0  0  0  0  0  0  0  0  0  0  0
   57.1935   21.4952   43.6103 C   0  0  0  0  0  0  0  0  0  0  0  0
   56.2574   22.4142   43.5341 O   0  0  0  0  0  0  0  0  0  0  0  0
   56.1333   22.9812   44.7123 C   0  0  0  0  0  0  0  0  0  0  0  0
   57.0240   22.4208   45.6057 C   0  0  0  0  0  0  0  0  0  0  0  0
   57.7071   21.4603   44.8913 C   0  0  0  0  0  0  0  0  0  0  0  0
   60.1421   27.1189   48.5422 C   0  0  0  0  0  0  0  0  0  0  0  0
   60.5234   28.5696   48.4154 C   0  0  0  0  0  0  0  0  0  0  0  0
   60.7580   29.1250   47.1460 C   0  0  0  0  0  0  0  0  0  0  0  0
   61.1376   30.4645   47.0220 C   0  0  0  0  0  0  0  0  0  0  0  0
   61.2870   31.2594   48.1623 C   0  0  0  0  0  0  0  0  0  0  0  0
   61.0540   30.7160   49.4289 C   0  0  0  0  0  0  0  0  0  0  0  0
   60.6697   29.3778   49.5564 C   0  0  0  0  0  0  0  0  0  0  0  0
 20 21  1  0
 21 22  1  0
 22 19  1  0
 19  1  1  0
  1  2  2  0
  2  3  1  0
  3  4  1  0
  4  5  2  0
  5 10  1  0
 10 11  2  0
 10 12  1  0
 12 13  1  0
 13 14  2  0
 14 15  1  0
 15 16  2  0
 16 17  1  0
 17 18  2  0
  4  6  1  0
  6  7  1  0
  7  8  2  0
  8 25  1  0
 25 26  1  0
 26 27  2  0
 27 28  1  0
 28 29  2  0
 29 30  1  0
 30 31  2  0
  7  9  1  0
 22 23  2  0
 23 24  1  0
 24 20  2  0
  9  2  1  0
 18 13  1  0
 31 26  1  0
M  CHG 1   3  -1
M  CHG 1   6  -1
M  CHG 1   9  -1
M  END
> <UniqueID>
60

> <SMILES>
O=C(Cc1ccccc1)N=c1[n-]c(=NCc2ccccc2)[n-]/c(=N\Cc2ccco2)[n-]1

> <Energy>
78.69769744009437

> <Genealogy>
O=C(Cc1ccccc1)N=c1[n-]c(=NCc2ccccc2)[n-]c(=NCc2ccco2)[n-]1 (protonated)
O=C(Cc1ccccc1)N=c1[n-]c(=NCc2ccccc2)[n-]/c(=N\Cc2ccco2)[n-]1 (cis-trans isomerization)
O=C(Cc1ccccc1)N=c1[n-]c(=NCc2ccccc2)[n-]/c(=N\Cc2ccco2)[n-]1 (3D coordinates assigned)
O=C(Cc1ccccc1)N=c1[n-]c(=NCc2ccccc2)[n-]/c(=N\Cc2ccco2)[n-]1 (optimized conformer: 78.69769744009437 kcal/mol)

> <smiles>
O=C(Cc1ccccc1)N=c1[nH]c(=NCc2ccccc2)[nH]c(=NCc2ccco2)[nH]1

> <score_type>
oracle

> <origin>
adg

> <m_score__min__energy>
-14.039999999999999

> <m_primary>
energy

> <minimizedAffinity>
-6.87167

> <minimizedRMSD>
0.60280

> <CNNscore>
0.4226431847

> <CNNaffinity>
6.6729412079

> <CNN_VS>
2.8202731609

> <CNNaffinity_variance>
0.0633420944

$$$$
79:0


 29 31  0  0  0  0  0  0  0  0999 V2000
   59.8057   35.6753   45.6251 C   0  0  0  0  0  0  0  0  0  0  0  0
   59.3339   34.2471   45.7197 C   0  0  0  0  0  0  0  0  0  0  0  0
   58.2335   33.8646   44.9383 C   0  0  0  0  0  0  0  0  0  0  0  0
   57.7097   32.5737   45.0264 C   0  0  0  0  0  0  0  0  0  0  0  0
   58.2760   31.6383   45.8937 C   0  0  0  0  0  0  0  0  0  0  0  0
   59.3527   32.0205   46.7102 C   0  0  0  0  0  0  0  0  0  0  0  0
   59.9072   33.3057   46.6098 C   0  0  0  0  0  0  0  0  0  0  0  0
   61.0593   33.6371   47.4707 C   0  0  0  0  0  0  0  0  0  0  0  0
   62.2207   33.3531   47.0751 O   0  0  0  0  0  0  0  0  0  0  0  0
   60.8958   34.2819   48.7419 N   0  0  0  0  0  0  0  0  0  0  0  0
   60.0196   33.8177   49.8153 C   0  0  0  0  0  0  0  0  0  0  0  0
   60.8280   33.1619   50.9355 C   0  0  0  0  0  0  0  0  0  0  0  0
   60.1964   31.8864   51.3484 N   0  0  0  0  0  0  0  0  0  0  0  0
   60.9869   31.1707   52.3785 C   0  0  0  0  0  0  0  0  0  0  0  0
   61.9588   30.1396   51.7666 C   0  0  0  0  0  0  0  0  0  0  0  0
   62.3375   30.5289   50.4635 O   0  0  0  0  0  0  0  0  0  0  0  0
   61.2278   30.4474   49.5843 C   0  0  0  0  0  0  0  0  0  0  0  0
   59.9209   31.0070   50.1972 C   0  0  0  0  0  0  0  0  0  0  0  0
   57.6950   30.3280   45.9754 N   0  0  0  0  0  0  0  0  0  0  0  0
   57.1038   29.5887   44.8972 C   0  0  0  0  0  0  0  0  0  0  0  0
   55.9747   29.9430   44.4654 O   0  0  0  0  0  0  0  0  0  0  0  0
   57.8021   28.4191   44.2618 C   0  0  0  0  0  0  0  0  0  0  0  0
   58.5467   27.6540   45.2626 N   0  0  0  0  0  0  0  0  0  0  0  0
   59.8529   27.7681   45.5706 C   0  0  0  0  0  0  0  0  0  0  0  0
   60.7210   28.6716   44.9674 O   0  0  0  0  0  0  0  0  0  0  0  0
   60.2092   26.8664   46.5537 C   0  0  0  0  0  0  0  0  0  0  0  0
   59.0571   26.1617   46.8649 C   0  0  0  0  0  0  0  0  0  0  0  0
   58.0648   26.6757   46.0523 C   0  0  0  0  0  0  0  0  0  0  0  0
   56.7439   26.2446   46.0407 O   0  0  0  0  0  0  0  0  0  0  0  0
  1  2  1  0
  2  3  2  0
  3  4  1  0
  4  5  2  0
  5 19  1  0
 19 20  1  0
 20 21  2  0
 20 22  1  0
 22 23  1  0
 23 24  1  0
 24 25  1  0
 24 26  2  0
 26 27  1  0
 27 28  2  0
 28 29  1  0
  5  6  1  0
  6  7  2  0
  7  8  1  0
  8  9  2  0
  8 10  1  0
 10 11  1  0
 11 12  1  0
 12 13  1  0
 13 14  1  0
 14 15  1  0
 15 16  1  0
 16 17  1  0
 17 18  1  0
  7  2  1  0
 18 13  1  0
 28 23  1  0
M  CHG 1  10  -1
M  CHG 1  19  -1
M  CHG 1  25  -1
M  CHG 1  29  -1
M  END
> <UniqueID>
72

> <SMILES>
Cc1ccc([N-]C(=O)Cn2c([O-])ccc2[O-])cc1C(=O)[N-]CCN1CCOCC1

> <Energy>
96.92580839903547

> <Genealogy>
Cc1ccc([N-]C(=O)Cn2c([O-])ccc2[O-])cc1C(=O)[N-]CCN1CCOCC1 (protonated)
Cc1ccc([N-]C(=O)Cn2c([O-])ccc2[O-])cc1C(=O)[N-]CCN1CCOCC1 (3D coordinates assigned)
Cc1ccc([N-]C(=O)Cn2c([O-])ccc2[O-])cc1C(=O)[N-]CCN1CCOCC1 (nonaromatic ring conformer: 96.92580839903547 kcal/mol)

> <smiles>
Cc1ccc(NC(=O)Cn2c(O)ccc2O)cc1C(=O)NCCN1CCOCC1

> <score_type>
oracle

> <origin>
adg

> <m_score__min__energy>
-15.51

> <m_primary>
energy

> <minimizedAffinity>
-7.58995

> <minimizedRMSD>
2.64432

> <CNNscore>
0.5338846445

> <CNNaffinity>
6.4163932800

> <CNN_VS>
3.4256138802

> <CNNaffinity_variance>
0.0922274515

$$$$
92:0


 35 38  0  0  0  0  0  0  0  0999 V2000
   57.8907   31.0726   44.5770 C   0  0  0  0  0  0  0  0  0  0  0  0
   59.0442   26.1660   45.8517 N   0  0  0  0  0  0  0  0  0  0  0  0
   58.9973   27.4368   45.5830 C   0  0  0  0  0  0  0  0  0  0  0  0
   60.1087   28.1494   45.3054 N   0  0  0  0  0  0  0  0  0  0  0  0
   59.8189   29.4389   44.9915 C   0  0  0  0  0  0  0  0  0  0  0  0
   58.4668   29.7582   45.0203 C   0  0  0  0  0  0  0  0  0  0  0  0
   57.5971   28.3704   45.4314 S   0  0  0  0  0  0  0  0  0  0  0  0
   58.0295   25.4229   46.5396 C   0  0  0  0  0  0  0  0  0  0  0  0
   57.8463   25.6486   47.7625 O   0  0  0  0  0  0  0  0  0  0  0  0
   57.6335   23.2464   45.3464 C   0  0  0  0  0  0  0  0  0  0  0  0
   56.7498   22.3264   44.7461 C   0  0  0  0  0  0  0  0  0  0  0  0
   55.3948   22.6235   44.6272 C   0  0  0  0  0  0  0  0  0  0  0  0
   54.9029   23.8450   45.0826 C   0  0  0  0  0  0  0  0  0  0  0  0
   55.7594   24.7685   45.6843 C   0  0  0  0  0  0  0  0  0  0  0  0
   55.2277   25.9612   46.1628 O   0  0  0  0  0  0  0  0  0  0  0  0
   57.1328   24.4771   45.8275 C   0  0  0  0  0  0  0  0  0  0  0  0
   59.7140   22.0188   44.6873 C   0  0  0  0  0  0  0  0  0  0  0  0
   59.0042   22.9724   45.4707 O   0  0  0  0  0  0  0  0  0  0  0  0
   58.4483   32.2327   45.3573 C   0  0  0  0  0  0  0  0  0  0  0  0
   58.5508   33.5044   44.7663 C   0  0  0  0  0  0  0  0  0  0  0  0
   59.0820   34.5732   45.4905 C   0  0  0  0  0  0  0  0  0  0  0  0
   59.4930   34.3934   46.8118 C   0  0  0  0  0  0  0  0  0  0  0  0
   59.3711   33.1357   47.4198 C   0  0  0  0  0  0  0  0  0  0  0  0
   58.8742   32.0507   46.6829 C   0  0  0  0  0  0  0  0  0  0  0  0
   59.7364   32.9542   48.8333 C   0  0  0  0  0  0  0  0  0  0  0  0
   58.8379   32.5828   49.6386 O   0  0  0  0  0  0  0  0  0  0  0  0
   61.0730   33.2302   49.3163 N   0  0  0  0  0  0  0  0  0  0  0  0
   62.1082   33.7924   48.4340 C   0  0  0  0  0  0  0  0  0  0  0  0
   63.4878   33.2462   48.8128 C   0  0  0  0  0  0  0  0  0  0  0  0
   63.7399   33.3488   50.2577 N   0  0  0  0  0  0  0  0  0  0  0  0
   65.0788   33.1172   50.7448 C   0  0  0  0  0  0  0  0  0  0  0  0
   65.5152   33.5696   52.1034 C   0  0  0  0  0  0  0  0  0  0  0  0
   65.9115   32.5088   50.0184 O   0  0  0  0  0  0  0  0  0  0  0  0
   62.6646   33.7960   51.1548 C   0  0  0  0  0  0  0  0  0  0  0  0
   61.3304   33.1455   50.7647 C   0  0  0  0  0  0  0  0  0  0  0  0
 17 18  1  0
 18 10  1  0
 10 11  2  0
 11 12  1  0
 12 13  2  0
 13 14  1  0
 14 15  1  0
 14 16  2  0
 16  8  1  0
  8  9  2  0
  8  2  1  0
  2  3  2  0
  3  4  1  0
  4  5  1  0
  5  6  2  0
  6  1  1  0
  1 19  1  0
 19 20  2  0
 20 21  1  0
 21 22  2  0
 22 23  1  0
 23 25  1  0
 25 26  2  0
 25 27  1  0
 27 28  1  0
 28 29  1  0
 29 30  1  0
 30 31  1  0
 31 32  1  0
 31 33  2  0
 30 34  1  0
 34 35  1  0
 23 24  2  0
  6  7  1  0
 16 10  1  0
  7  3  1  0
 24 19  1  0
 35 27  1  0
M  CHG 1   4  -1
M  CHG 1  15  -1
M  END
> <UniqueID>
85

> <SMILES>
COc1cccc([O-])c1C(=O)N=c1[n-]cc(Cc2cccc(C(=O)N3CCN(C(C)=O)CC3)c2)s1

> <Energy>
106.42940455277751

> <Genealogy>
COc1cccc([O-])c1C(=O)N=c1[n-]cc(Cc2cccc(C(=O)N3CCN(C(C)=O)CC3)c2)s1 (protonated)
COc1cccc([O-])c1C(=O)N=c1[n-]cc(Cc2cccc(C(=O)N3CCN(C(C)=O)CC3)c2)s1 (3D coordinates assigned)
COc1cccc([O-])c1C(=O)N=c1[n-]cc(Cc2cccc(C(=O)N3CCN(C(C)=O)CC3)c2)s1 (nonaromatic ring conformer: 106.42940455277751 kcal/mol)

> <smiles>
COc1cccc(O)c1C(=O)N=c1[nH]cc(Cc2cccc(C(=O)N3CCN(C(C)=O)CC3)c2)s1

> <score_type>
oracle

> <origin>
adg

> <m_score__min__energy>
-14.4

> <m_primary>
energy

> <minimizedAffinity>
-8.88800

> <minimizedRMSD>
0.92323

> <CNNscore>
0.2126422375

> <CNNaffinity>
6.6693129539

> <CNN_VS>
1.4181776047

> <CNNaffinity_variance>
0.2629847527

$$$$
94:0


 29 31  0  0  0  0  0  0  0  0999 V2000
   57.7582   28.8071   44.7380 C   0  0  0  0  0  0  0  0  0  0  0  0
   57.8084   28.1673   43.4953 C   0  0  0  0  0  0  0  0  0  0  0  0
   58.0571   26.7954   43.4213 C   0  0  0  0  0  0  0  0  0  0  0  0
   58.2603   26.0543   44.5881 C   0  0  0  0  0  0  0  0  0  0  0  0
   58.2189   26.6818   45.8486 C   0  0  0  0  0  0  0  0  0  0  0  0
   57.9653   28.0658   45.9103 C   0  0  0  0  0  0  0  0  0  0  0  0
   57.4525   30.5397   44.8099 S   0  0  0  0  0  0  0  0  0  0  0  0
   58.2732   31.2407   43.7649 O   0  0  0  0  0  0  0  0  0  0  0  0
   55.9991   30.8173   44.5435 O   0  0  0  0  0  0  0  0  0  0  0  0
   57.8852   31.1356   46.3773 N   0  0  0  0  0  0  0  0  0  0  0  0
   56.9602   33.8475   46.1249 O   0  0  0  0  0  0  0  0  0  0  0  0
   58.3025   33.5704   46.3849 C   0  0  0  0  0  0  0  0  0  0  0  0
   59.1935   34.6414   46.5022 C   0  0  0  0  0  0  0  0  0  0  0  0
   60.5362   34.4110   46.8074 C   0  0  0  0  0  0  0  0  0  0  0  0
   60.9966   33.1096   47.0036 C   0  0  0  0  0  0  0  0  0  0  0  0
   60.1175   32.0199   46.8886 C   0  0  0  0  0  0  0  0  0  0  0  0
   60.6355   30.6189   47.0677 C   0  0  0  0  0  0  0  0  0  0  0  0
   58.7685   32.2478   46.5489 C   0  0  0  0  0  0  0  0  0  0  0  0
   56.6767   34.7344   46.0202 H   0  0  0  0  0  0  0  0  0  0  0  0
   58.4413   25.8992   47.0881 C   0  0  0  0  0  0  0  0  0  0  0  0
   59.4272   26.1678   47.8281 O   0  0  0  0  0  0  0  0  0  0  0  0
   57.5291   24.8422   47.4394 N   0  0  0  0  0  0  0  0  0  0  0  0
   56.8987   24.0434   46.6268 C   0  0  0  0  0  0  0  0  0  0  0  0
   57.3436   22.7749   46.3955 N   0  0  0  0  0  0  0  0  0  0  0  0
   56.7000   21.9254   45.5500 C   0  0  0  0  0  0  0  0  0  0  0  0
   55.5443   22.3434   44.8880 C   0  0  0  0  0  0  0  0  0  0  0  0
   55.0637   23.6360   45.1036 C   0  0  0  0  0  0  0  0  0  0  0  0
   55.7395   24.4925   45.9771 C   0  0  0  0  0  0  0  0  0  0  0  0
   55.2578   25.7807   46.1925 O   0  0  0  0  0  0  0  0  0  0  0  0
 11 12  1  0
 12 13  2  0
 13 14  1  0
 14 15  2  0
 15 16  1  0
 16 17  1  0
 16 18  2  0
 18 10  1  0
 10  7  1  0
  7  8  2  0
  7  9  2  0
  7  1  1  0
  1  2  2  0
  2  3  1  0
  3  4  2  0
  4  5  1  0
  5 20  1  0
 20 21  2  0
 20 22  1  0
 22 23  2  0
 23 24  1  0
 24 25  1  0
 25 26  2  0
 26 27  1  0
 27 28  2  0
 28 29  1  0
  5  6  2  0
 18 12  1  0
  6  1  1  0
 28 23  1  0
 11 19  1  0
M  CHG 1  10  -1
M  CHG 1  24  -1
M  CHG 1  29  -1
M  END
> <UniqueID>
87

> <SMILES>
Cc1cccc(O)c1[N-]S(=O)(=O)c1cccc(C(=O)/N=c2\[n-]cccc2[O-])c1

> <Energy>
59.81747623010763

> <Genealogy>
Cc1cccc(O)c1[N-]S(=O)(=O)c1cccc(C(=O)N=c2[n-]cccc2[O-])c1 (protonated)
Cc1cccc(O)c1[N-]S(=O)(=O)c1cccc(C(=O)/N=c2\[n-]cccc2[O-])c1 (cis-trans isomerization)
Cc1cccc(O)c1[N-]S(=O)(=O)c1cccc(C(=O)/N=c2\[n-]cccc2[O-])c1 (3D coordinates assigned)
Cc1cccc(O)c1[N-]S(=O)(=O)c1cccc(C(=O)/N=c2\[n-]cccc2[O-])c1 (optimized conformer: 59.81747623010763 kcal/mol)

> <smiles>
Cc1cccc(O)c1NS(=O)(=O)c1cccc(C(=O)N=c2[nH]cccc2O)c1

> <score_type>
oracle

> <origin>
adg

> <m_score__min__energy>
-14.529999999999999

> <m_primary>
energy

> <minimizedAffinity>
-7.89490

> <minimizedRMSD>
0.86533

> <CNNscore>
0.1471607536

> <CNNaffinity>
6.1547317505

> <CNN_VS>
0.9057349563

> <CNNaffinity_variance>
0.0100950738

$$$$
41:0


 24 26  0  0  0  0  0  0  0  0999 V2000
   60.3774   27.2822   48.6654 C   0  0  0  0  0  0  0  0  0  0  0  0
   60.2212   28.7702   48.5431 C   0  0  0  0  0  0  0  0  0  0  0  0
   59.1435   29.4228   49.1619 C   0  0  0  0  0  0  0  0  0  0  0  0
   59.0165   30.8108   49.0755 C   0  0  0  0  0  0  0  0  0  0  0  0
   59.9748   31.5689   48.3838 C   0  0  0  0  0  0  0  0  0  0  0  0
   61.0554   30.9179   47.7705 C   0  0  0  0  0  0  0  0  0  0  0  0
   61.1835   29.5290   47.8571 C   0  0  0  0  0  0  0  0  0  0  0  0
   59.8243   33.0617   48.2594 C   0  0  0  0  0  0  0  0  0  0  0  0
   59.8191   33.4600   46.8384 N   0  0  0  0  0  0  0  0  0  0  0  0
   58.6809   32.9027   46.1005 C   0  0  0  0  0  0  0  0  0  0  0  0
   58.3983   33.8521   44.9469 C   0  0  0  0  0  0  0  0  0  0  0  0
   59.0803   35.1576   45.3203 C   0  0  0  0  0  0  0  0  0  0  0  0
   59.7007   34.9119   46.6873 C   0  0  0  0  0  0  0  0  0  0  0  0
   60.6596   26.7174   47.3505 N   0  0  0  0  0  0  0  0  0  0  0  0
   59.4909   25.2542   45.9799 O   0  0  0  0  0  0  0  0  0  0  0  0
   59.6606   26.4419   46.3631 C   0  0  0  0  0  0  0  0  0  0  0  0
   58.8044   27.5057   45.8071 C   0  0  0  0  0  0  0  0  0  0  0  0
   59.3899   28.6368   45.2252 C   0  0  0  0  0  0  0  0  0  0  0  0
   58.5834   29.6465   44.6969 C   0  0  0  0  0  0  0  0  0  0  0  0
   57.1926   29.5192   44.7680 C   0  0  0  0  0  0  0  0  0  0  0  0
   56.4508   30.4181   44.2928 O   0  0  0  0  0  0  0  0  0  0  0  0
   56.6400   28.4263   45.3563 N   0  0  0  0  0  0  0  0  0  0  0  0
   57.4023   27.4283   45.8791 C   0  0  0  0  0  0  0  0  0  0  0  0
   56.7816   26.3504   46.5004 O   0  0  0  0  0  0  0  0  0  0  0  0
 15 16  2  0
 16 14  1  0
 14  1  1  0
  1  2  1  0
  2  3  2  0
  3  4  1  0
  4  5  2  0
  5  8  1  0
  8  9  1  0
  9 10  1  0
 10 11  1  0
 11 12  1  0
 12 13  1  0
  5  6  1  0
  6  7  2  0
 16 17  1  0
 17 18  1  0
 18 19  2  0
 19 20  1  0
 20 21  2  0
 20 22  1  0
 22 23  1  0
 23 24  1  0
  7  2  1  0
 23 17  2  0
 13  9  1  0
M  CHG 1  14  -1
M  CHG 1  22  -1
M  CHG 1  24  -1
M  END
> <UniqueID>
37

> <SMILES>
O=C([N-]Cc1ccc(CN2CCCC2)cc1)c1ccc(=O)[n-]c1[O-]

> <Energy>
50.331797784880585

> <Genealogy>
O=C([N-]Cc1ccc(CN2CCCC2)cc1)c1ccc(=O)[n-]c1[O-] (protonated)
O=C([N-]Cc1ccc(CN2CCCC2)cc1)c1ccc(=O)[n-]c1[O-] (3D coordinates assigned)
O=C([N-]Cc1ccc(CN2CCCC2)cc1)c1ccc(=O)[n-]c1[O-] (nonaromatic ring conformer: 50.331797784880585 kcal/mol)

> <smiles>
O=C(NCc1ccc(CN2CCCC2)cc1)c1ccc(=O)[nH]c1O

> <score_type>
oracle

> <origin>
adg

> <m_score__min__energy>
-14.800000000000001

> <m_primary>
energy

> <minimizedAffinity>
-6.10547

> <minimizedRMSD>
1.13242

> <CNNscore>
0.4214586914

> <CNNaffinity>
6.0962004662

> <CNN_VS>
2.5692965984

> <CNNaffinity_variance>
0.2482163161

$$$$
67:0


 31 34  0  0  0  0  0  0  0  0999 V2000
   58.0741   31.1633   45.6773 C   0  0  0  0  0  0  0  0  0  0  0  0
   57.9320   32.1241   44.6697 C   0  0  0  0  0  0  0  0  0  0  0  0
   58.4461   33.4111   44.8460 C   0  0  0  0  0  0  0  0  0  0  0  0
   59.0944   33.7572   46.0371 C   0  0  0  0  0  0  0  0  0  0  0  0
   59.5865   35.0478   46.1890 O   0  0  0  0  0  0  0  0  0  0  0  0
   59.2286   32.8034   47.0651 C   0  0  0  0  0  0  0  0  0  0  0  0
   58.6948   31.5182   46.8856 C   0  0  0  0  0  0  0  0  0  0  0  0
   60.0184   33.1916   48.5988 S   0  0  0  0  0  0  0  0  0  0  0  0
   59.9840   32.0078   49.5279 O   0  0  0  0  0  0  0  0  0  0  0  0
   59.2677   34.3245   49.2447 O   0  0  0  0  0  0  0  0  0  0  0  0
   61.6724   33.6813   48.3092 N   0  0  0  0  0  0  0  0  0  0  0  0
   62.4042   32.6097   47.6073 C   0  0  0  0  0  0  0  0  0  0  0  0
   63.9240   32.8023   47.7589 C   0  0  0  0  0  0  0  0  0  0  0  0
   64.3869   32.8283   49.1044 O   0  0  0  0  0  0  0  0  0  0  0  0
   63.3656   33.0787   50.0574 C   0  0  0  0  0  0  0  0  0  0  0  0
   62.3329   34.1086   49.5645 C   0  0  0  0  0  0  0  0  0  0  0  0
   57.5124   29.8602   45.4813 N   0  0  0  0  0  0  0  0  0  0  0  0
   59.1325   28.3780   44.7341 O   0  0  0  0  0  0  0  0  0  0  0  0
   58.2202   28.6175   45.5680 C   0  0  0  0  0  0  0  0  0  0  0  0
   58.0224   27.6679   46.7193 C   0  0  0  0  0  0  0  0  0  0  0  0
   57.7715   26.3188   46.2150 N   0  0  0  0  0  0  0  0  0  0  0  0
   58.6955   25.3610   45.9786 C   0  0  0  0  0  0  0  0  0  0  0  0
   60.0658   25.5324   46.1561 O   0  0  0  0  0  0  0  0  0  0  0  0
   58.0837   24.1971   45.5548 C   0  0  0  0  0  0  0  0  0  0  0  0
   56.7276   24.4373   45.5797 C   0  0  0  0  0  0  0  0  0  0  0  0
   56.5689   25.7533   45.9684 C   0  0  0  0  0  0  0  0  0  0  0  0
   55.3520   26.4152   46.0863 O   0  0  0  0  0  0  0  0  0  0  0  0
   55.6914   23.4472   45.1388 C   0  0  0  0  0  0  0  0  0  0  0  0
   56.2851   22.0232   45.1079 C   0  0  0  0  0  0  0  0  0  0  0  0
   57.6881   21.9947   44.4582 C   0  0  0  0  0  0  0  0  0  0  0  0
   58.6960   22.8682   45.2324 C   0  0  0  0  0  0  0  0  0  0  0  0
 18 19  2  0
 19 20  1  0
 20 21  1  0
 21 22  1  0
 22 23  1  0
 22 24  2  0
 24 25  1  0
 25 26  2  0
 26 27  1  0
 25 28  1  0
 28 29  1  0
 29 30  1  0
 30 31  1  0
 19 17  1  0
 17  1  1  0
  1  2  2  0
  2  3  1  0
  3  4  2  0
  4  5  1  0
  4  6  1  0
  6  8  1  0
  8  9  2  0
  8 10  2  0
  8 11  1  0
 11 12  1  0
 12 13  1  0
 13 14  1  0
 14 15  1  0
 15 16  1  0
  6  7  2  0
 26 21  1  0
  7  1  1  0
 31 24  1  0
 16 11  1  0
M  CHG 1   5  -1
M  CHG 1  17  -1
M  CHG 1  23  -1
M  CHG 1  27  -1
M  END
> <UniqueID>
61

> <SMILES>
O=C(Cn1c([O-])c2c(c1[O-])CCCC2)[N-]c1ccc([O-])c(S(=O)(=O)N2CCOCC2)c1

> <Energy>
99.80761335427754

> <Genealogy>
O=C(Cn1c([O-])c2c(c1[O-])CCCC2)[N-]c1ccc([O-])c(S(=O)(=O)N2CCOCC2)c1 (protonated)
O=C(Cn1c([O-])c2c(c1[O-])CCCC2)[N-]c1ccc([O-])c(S(=O)(=O)N2CCOCC2)c1 (3D coordinates assigned)
O=C(Cn1c([O-])c2c(c1[O-])CCCC2)[N-]c1ccc([O-])c(S(=O)(=O)N2CCOCC2)c1 (nonaromatic ring conformer: 99.80761335427754 kcal/mol)

> <smiles>
O=C(Cn1c(O)c2c(c1O)CCCC2)Nc1ccc(O)c(S(=O)(=O)N2CCOCC2)c1

> <score_type>
oracle

> <origin>
adg

> <m_score__min__energy>
-16.02

> <m_primary>
energy

> <minimizedAffinity>
-8.37235

> <minimizedRMSD>
0.83487

> <CNNscore>
0.4384210408

> <CNNaffinity>
6.6920089722

> <CNN_VS>
2.9339175224

> <CNNaffinity_variance>
0.0169122647

$$$$
35:0


 27 29  0  0  0  0  0  0  0  0999 V2000
   57.2603   27.6656   45.6462 C   0  0  0  0  0  0  0  0  0  0  0  0
   58.5126   27.0458   45.7135 C   0  0  0  0  0  0  0  0  0  0  0  0
   59.6725   27.7559   45.4033 C   0  0  0  0  0  0  0  0  0  0  0  0
   59.5895   29.0913   45.0020 C   0  0  0  0  0  0  0  0  0  0  0  0
   58.3391   29.7190   44.8769 C   0  0  0  0  0  0  0  0  0  0  0  0
   57.1684   29.0000   45.1966 C   0  0  0  0  0  0  0  0  0  0  0  0
   55.9236   29.5984   45.0173 O   0  0  0  0  0  0  0  0  0  0  0  0
   58.2607   31.1258   44.4314 C   0  0  0  0  0  0  0  0  0  0  0  0
   57.9421   31.3692   43.2363 O   0  0  0  0  0  0  0  0  0  0  0  0
   58.5526   32.2173   45.3238 N   0  0  0  0  0  0  0  0  0  0  0  0
   58.3403   33.6058   44.9531 C   0  0  0  0  0  0  0  0  0  0  0  0
   58.8348   34.4264   46.1363 C   0  0  0  0  0  0  0  0  0  0  0  0
   59.7353   33.4913   46.9372 C   0  0  0  0  0  0  0  0  0  0  0  0
   59.3067   32.0795   46.5613 C   0  0  0  0  0  0  0  0  0  0  0  0
   56.0970   26.8922   45.9780 N   0  0  0  0  0  0  0  0  0  0  0  0
   55.5031   24.8006   45.1114 O   0  0  0  0  0  0  0  0  0  0  0  0
   56.0398   25.4623   46.0410 C   0  0  0  0  0  0  0  0  0  0  0  0
   56.5276   24.7574   47.2659 C   0  0  0  0  0  0  0  0  0  0  0  0
   56.4065   23.2404   47.0979 C   0  0  0  0  0  0  0  0  0  0  0  0
   57.3069   22.7729   46.0299 N   0  0  0  0  0  0  0  0  0  0  0  0
   58.5971   23.2241   46.0028 C   0  0  0  0  0  0  0  0  0  0  0  0
   59.4812   22.7805   45.0219 C   0  0  0  0  0  0  0  0  0  0  0  0
   59.0239   21.8610   44.0812 C   0  0  0  0  0  0  0  0  0  0  0  0
   59.7963   21.4360   43.1825 O   0  0  0  0  0  0  0  0  0  0  0  0
   57.7441   21.4185   44.1374 N   0  0  0  0  0  0  0  0  0  0  0  0
   56.8882   21.8571   45.0972 C   0  0  0  0  0  0  0  0  0  0  0  0
   55.7101   21.4096   45.1163 O   0  0  0  0  0  0  0  0  0  0  0  0
 16 17  2  0
 17 18  1  0
 18 19  1  0
 19 20  1  0
 20 21  1  0
 21 22  2  0
 22 23  1  0
 23 24  2  0
 23 25  1  0
 25 26  1  0
 26 27  2  0
 17 15  1  0
 15  1  1  0
  1  2  2  0
  2  3  1  0
  3  4  2  0
  4  5  1  0
  5  8  1  0
  8  9  2  0
  8 10  1  0
 10 11  1  0
 11 12  1  0
 12 13  1  0
 13 14  1  0
  5  6  2  0
  6  7  1  0
 26 20  1  0
  6  1  1  0
 14 10  1  0
M  CHG 1   7  -1
M  CHG 1  15  -1
M  CHG 1  25  -1
M  END
> <UniqueID>
34

> <SMILES>
O=C(CCn1ccc(=O)[n-]c1=O)[N-]c1cccc(C(=O)N2CCCC2)c1[O-]

> <Energy>
54.824331885505565

> <Genealogy>
O=C(CCn1ccc(=O)[n-]c1=O)[N-]c1cccc(C(=O)N2CCCC2)c1[O-] (protonated)
O=C(CCn1ccc(=O)[n-]c1=O)[N-]c1cccc(C(=O)N2CCCC2)c1[O-] (3D coordinates assigned)
O=C(CCn1ccc(=O)[n-]c1=O)[N-]c1cccc(C(=O)N2CCCC2)c1[O-] (nonaromatic ring conformer: 54.824331885505565 kcal/mol)

> <smiles>
O=C(CCn1ccc(=O)[nH]c1=O)Nc1cccc(C(=O)N2CCCC2)c1O

> <score_type>
oracle

> <origin>
adg

> <m_score__min__energy>
-15.67

> <m_primary>
energy

> <minimizedAffinity>
-4.65081

> <minimizedRMSD>
0.97759

> <CNNscore>
0.2721633911

> <CNNaffinity>
6.2822852135

> <CNN_VS>
1.7098079920

> <CNNaffinity_variance>
0.3028701842

$$$$
74:0


 22 23  0  0  0  0  0  0  0  0999 V2000
   58.2246   29.7398   45.6800 C   0  0  0  0  0  0  0  0  0  0  0  0
   58.1559   28.3373   45.7295 C   0  0  0  0  0  0  0  0  0  0  0  0
   59.0371   27.5994   46.5402 C   0  0  0  0  0  0  0  0  0  0  0  0
   59.9987   28.2856   47.3006 C   0  0  0  0  0  0  0  0  0  0  0  0
   60.0684   29.6793   47.2596 C   0  0  0  0  0  0  0  0  0  0  0  0
   59.1882   30.4112   46.4581 C   0  0  0  0  0  0  0  0  0  0  0  0
   59.3232   32.1673   46.4639 Cl  0  0  0  0  0  0  0  0  0  0  0  0
   55.5776   29.8120   44.5391 N   0  0  0  0  0  0  0  0  0  0  0  0
   57.0937   30.6363   44.6566 S   0  0  0  0  0  0  0  0  0  0  0  0
   57.6710   30.7784   43.2757 O   0  0  0  0  0  0  0  0  0  0  0  0
   56.8614   31.9971   45.2474 O   0  0  0  0  0  0  0  0  0  0  0  0
   54.9445   30.3477   43.9452 H   0  0  0  0  0  0  0  0  0  0  0  0
   58.9496   26.1161   46.5862 C   0  0  0  0  0  0  0  0  0  0  0  0
   59.9044   25.4176   46.1515 O   0  0  0  0  0  0  0  0  0  0  0  0
   57.8308   25.4542   47.1894 N   0  0  0  0  0  0  0  0  0  0  0  0
   57.0446   24.5576   46.6578 C   0  0  0  0  0  0  0  0  0  0  0  0
   57.4858   23.2690   46.6222 N   0  0  0  0  0  0  0  0  0  0  0  0
   56.7447   22.2560   46.1018 C   0  0  0  0  0  0  0  0  0  0  0  0
   55.4808   22.5134   45.5765 C   0  0  0  0  0  0  0  0  0  0  0  0
   54.9981   23.8208   45.5765 C   0  0  0  0  0  0  0  0  0  0  0  0
   55.7729   24.8583   46.1024 C   0  0  0  0  0  0  0  0  0  0  0  0
   55.2789   26.1554   46.0321 O   0  0  0  0  0  0  0  0  0  0  0  0
  8  9  1  0
  9 10  2  0
  9 11  2  0
  9  1  1  0
  1  2  2  0
  2  3  1  0
  3 13  1  0
 13 14  2  0
 13 15  1  0
 15 16  2  0
 16 17  1  0
 17 18  1  0
 18 19  2  0
 19 20  1  0
 20 21  2  0
 21 22  1  0
  3  4  2  0
  4  5  1  0
  5  6  2  0
  6  7  1  0
  6  1  1  0
 21 16  1  0
  8 12  1  0
M  CHG 1   8  -1
M  CHG 1  17  -1
M  CHG 1  22  -1
M  END
> <UniqueID>
68

> <SMILES>
[NH-]S(=O)(=O)c1cc(C(=O)/N=c2/[n-]cccc2[O-])ccc1Cl

> <Energy>
45.14363959261914

> <Genealogy>
[NH-]S(=O)(=O)c1cc(C(=O)N=c2[n-]cccc2[O-])ccc1Cl (protonated)
[NH-]S(=O)(=O)c1cc(C(=O)/N=c2/[n-]cccc2[O-])ccc1Cl (cis-trans isomerization)
[NH-]S(=O)(=O)c1cc(C(=O)/N=c2/[n-]cccc2[O-])ccc1Cl (3D coordinates assigned)
[NH-]S(=O)(=O)c1cc(C(=O)/N=c2/[n-]cccc2[O-])ccc1Cl (optimized conformer: 45.14363959261914 kcal/mol)

> <smiles>
NS(=O)(=O)c1cc(C(=O)N=c2[nH]cccc2O)ccc1Cl

> <score_type>
oracle

> <origin>
adg

> <m_score__min__energy>
-14.83

> <m_primary>
energy

> <minimizedAffinity>
-7.82510

> <minimizedRMSD>
0.64233

> <CNNscore>
0.6769016385

> <CNNaffinity>
6.0164370537

> <CNN_VS>
4.0725359917

> <CNNaffinity_variance>
0.0097000860

$$$$
27:0


 32 34  0  0  0  0  0  0  0  0999 V2000
   60.1091   25.3665   46.7326 C   0  0  0  0  0  0  0  0  0  0  0  0
   58.9395   26.2197   46.3238 C   0  0  0  0  0  0  0  0  0  0  0  0
   59.2081   27.4642   45.8473 N   0  0  0  0  0  0  0  0  0  0  0  0
   58.2341   28.3211   45.4538 C   0  0  0  0  0  0  0  0  0  0  0  0
   56.8974   27.9055   45.5408 C   0  0  0  0  0  0  0  0  0  0  0  0
   55.8509   28.7381   45.1563 O   0  0  0  0  0  0  0  0  0  0  0  0
   56.6195   26.6240   46.0271 C   0  0  0  0  0  0  0  0  0  0  0  0
   55.4154   26.2531   46.1089 O   0  0  0  0  0  0  0  0  0  0  0  0
   57.6358   25.7827   46.4106 N   0  0  0  0  0  0  0  0  0  0  0  0
   58.6196   29.6637   44.9521 C   0  0  0  0  0  0  0  0  0  0  0  0
   59.8075   29.8917   44.5951 O   0  0  0  0  0  0  0  0  0  0  0  0
   57.6424   30.7140   44.8677 N   0  0  0  0  0  0  0  0  0  0  0  0
   56.7327   30.5443   45.2035 H   0  0  0  0  0  0  0  0  0  0  0  0
   57.9516   32.0260   44.3007 C   0  0  0  0  0  0  0  0  0  0  0  0
   58.4957   32.9385   45.3655 C   0  0  0  0  0  0  0  0  0  0  0  0
   59.0443   34.1814   45.0127 C   0  0  0  0  0  0  0  0  0  0  0  0
   59.5719   35.0247   45.9960 C   0  0  0  0  0  0  0  0  0  0  0  0
   59.5582   34.6303   47.3362 C   0  0  0  0  0  0  0  0  0  0  0  0
   59.0182   33.3916   47.6948 C   0  0  0  0  0  0  0  0  0  0  0  0
   58.4902   32.5466   46.7153 C   0  0  0  0  0  0  0  0  0  0  0  0
   57.2932   24.4375   46.9263 C   0  0  0  0  0  0  0  0  0  0  0  0
   57.2893   23.3901   45.8223 C   0  0  0  0  0  0  0  0  0  0  0  0
   58.4671   23.1693   45.0790 C   0  0  0  0  0  0  0  0  0  0  0  0
   58.4969   22.2295   44.0478 C   0  0  0  0  0  0  0  0  0  0  0  0
   57.3506   21.5096   43.7266 C   0  0  0  0  0  0  0  0  0  0  0  0
   56.1655   21.7343   44.4244 C   0  0  0  0  0  0  0  0  0  0  0  0
   56.1098   22.6806   45.4626 C   0  0  0  0  0  0  0  0  0  0  0  0
   54.5569   22.9469   46.2736 S   0  0  0  0  0  0  0  0  0  0  0  0
   53.6878   24.2056   45.4689 N   0  0  0  0  0  0  0  0  0  0  0  0
   54.7779   23.3505   47.7054 O   0  0  0  0  0  0  0  0  0  0  0  0
   53.7509   21.6798   46.2563 O   0  0  0  0  0  0  0  0  0  0  0  0
   54.2398   25.0632   45.4838 H   0  0  0  0  0  0  0  0  0  0  0  0
  1  2  1  0
  2  3  2  0
  3  4  1  0
  4 10  1  0
 10 11  2  0
 10 12  1  0
 12 14  1  0
 14 15  1  0
 15 16  2  0
 16 17  1  0
 17 18  2  0
 18 19  1  0
 19 20  2  0
  4  5  2  0
  5  6  1  0
  5  7  1  0
  7  8  2  0
  7  9  1  0
  9 21  1  0
 21 22  1  0
 22 23  2  0
 23 24  1  0
 24 25  2  0
 25 26  1  0
 26 27  2  0
 27 28  1  0
 28 29  1  0
 28 30  2  0
 28 31  2  0
  9  2  1  0
 27 22  1  0
 20 15  1  0
 12 13  1  0
 29 32  1  0
M  CHG 1   6  -1
M  CHG 1  29  -1
M  END
> <UniqueID>
26

> <SMILES>
Cc1nc(C(=O)NCc2ccccc2)c([O-])c(=O)n1Cc1ccccc1S([NH-])(=O)=O

> <Energy>
57.49538343325953

> <Genealogy>
Cc1nc(C(=O)NCc2ccccc2)c([O-])c(=O)n1Cc1ccccc1S([NH-])(=O)=O (protonated)
Cc1nc(C(=O)NCc2ccccc2)c([O-])c(=O)n1Cc1ccccc1S([NH-])(=O)=O (3D coordinates assigned)
Cc1nc(C(=O)NCc2ccccc2)c([O-])c(=O)n1Cc1ccccc1S([NH-])(=O)=O (optimized conformer: 57.49538343325953 kcal/mol)

> <smiles>
Cc1nc(C(=O)NCc2ccccc2)c(O)c(=O)n1Cc1ccccc1S(N)(=O)=O

> <score_type>
oracle

> <origin>
adg

> <m_score__min__energy>
-14.390000000000001

> <m_primary>
energy

> <minimizedAffinity>
-6.44802

> <minimizedRMSD>
0.50023

> <CNNscore>
0.2842017710

> <CNNaffinity>
5.9830775261

> <CNN_VS>
1.7004011869

> <CNNaffinity_variance>
0.0716187209

$$$$
34:0


 30 32  0  0  0  0  0  0  0  0999 V2000
   55.5854   29.9661   44.6934 O   0  0  0  0  0  0  0  0  0  0  0  0
   56.7225   30.4303   44.4119 C   0  0  0  0  0  0  0  0  0  0  0  0
   57.6581   29.6024   43.5839 C   0  0  0  0  0  0  0  0  0  0  0  0
   58.5851   28.9379   44.4346 O   0  0  0  0  0  0  0  0  0  0  0  0
   58.6378   27.5465   44.5509 C   0  0  0  0  0  0  0  0  0  0  0  0
   58.1234   26.8059   43.6684 O   0  0  0  0  0  0  0  0  0  0  0  0
   59.3473   26.9333   45.7122 C   0  0  0  0  0  0  0  0  0  0  0  0
   58.4049   26.7832   46.8619 C   0  0  0  0  0  0  0  0  0  0  0  0
   58.2037   27.7575   47.6360 O   0  0  0  0  0  0  0  0  0  0  0  0
   57.8156   25.5061   47.1291 N   0  0  0  0  0  0  0  0  0  0  0  0
   57.3129   24.5976   46.1402 C   0  0  0  0  0  0  0  0  0  0  0  0
   58.1896   23.6484   45.5958 C   0  0  0  0  0  0  0  0  0  0  0  0
   57.7409   22.7460   44.6264 C   0  0  0  0  0  0  0  0  0  0  0  0
   56.4188   22.7972   44.1816 C   0  0  0  0  0  0  0  0  0  0  0  0
   55.5452   23.7601   44.6936 C   0  0  0  0  0  0  0  0  0  0  0  0
   55.9882   24.6696   45.6603 C   0  0  0  0  0  0  0  0  0  0  0  0
   55.1169   25.6587   46.1064 O   0  0  0  0  0  0  0  0  0  0  0  0
   57.1002   31.7062   44.9456 N   0  0  0  0  0  0  0  0  0  0  0  0
   58.2354   31.9819   45.7794 C   0  0  0  0  0  0  0  0  0  0  0  0
   58.6624   31.0100   46.6830 C   0  0  0  0  0  0  0  0  0  0  0  0
   59.7468   31.2536   47.5306 C   0  0  0  0  0  0  0  0  0  0  0  0
   60.4272   32.4947   47.5089 C   0  0  0  0  0  0  0  0  0  0  0  0
   59.9544   33.4813   46.6123 C   0  0  0  0  0  0  0  0  0  0  0  0
   58.8703   33.2304   45.7668 C   0  0  0  0  0  0  0  0  0  0  0  0
   61.5608   32.7535   48.3941 N   0  0  0  0  0  0  0  0  0  0  0  0
   61.5466   33.9573   49.2533 C   0  0  0  0  0  0  0  0  0  0  0  0
   62.7560   34.0563   50.1874 C   0  0  0  0  0  0  0  0  0  0  0  0
   63.9284   33.6230   49.5400 O   0  0  0  0  0  0  0  0  0  0  0  0
   63.8357   32.2322   49.3427 C   0  0  0  0  0  0  0  0  0  0  0  0
   62.7599   31.8943   48.3061 C   0  0  0  0  0  0  0  0  0  0  0  0
  1  2  2  0
  2  3  1  0
  3  4  1  0
  4  5  1  0
  5  6  2  0
  5  7  1  0
  7  8  1  0
  8  9  2  0
  8 10  1  0
 10 11  1  0
 11 12  2  0
 12 13  1  0
 13 14  2  0
 14 15  1  0
 15 16  2  0
 16 17  1  0
  2 18  1  0
 18 19  1  0
 19 20  2  0
 20 21  1  0
 21 22  2  0
 22 25  1  0
 25 26  1  0
 26 27  1  0
 27 28  1  0
 28 29  1  0
 29 30  1  0
 22 23  1  0
 23 24  2  0
 16 11  1  0
 24 19  1  0
 30 25  1  0
M  CHG 1  10  -1
M  CHG 1  17  -1
M  CHG 1  18  -1
M  END
> <UniqueID>
33

> <SMILES>
O=C(COC(=O)CC(=O)[N-]c1ccccc1[O-])[N-]c1ccc(N2CCOCC2)cc1

> <Energy>
63.68097512615774

> <Genealogy>
O=C(COC(=O)CC(=O)[N-]c1ccccc1[O-])[N-]c1ccc(N2CCOCC2)cc1 (protonated)
O=C(COC(=O)CC(=O)[N-]c1ccccc1[O-])[N-]c1ccc(N2CCOCC2)cc1 (3D coordinates assigned)
O=C(COC(=O)CC(=O)[N-]c1ccccc1[O-])[N-]c1ccc(N2CCOCC2)cc1 (nonaromatic ring conformer: 63.68097512615774 kcal/mol)

> <smiles>
O=C(COC(=O)CC(=O)Nc1ccccc1O)Nc1ccc(N2CCOCC2)cc1

> <score_type>
oracle

> <origin>
adg

> <m_score__min__energy>
-15.26

> <m_primary>
energy

> <minimizedAffinity>
-7.59093

> <minimizedRMSD>
0.95606

> <CNNscore>
0.5784084201

> <CNNaffinity>
6.2466831207

> <CNN_VS>
3.6131341457

> <CNNaffinity_variance>
0.0083432570

$$$$
65:0


 37 40  0  0  0  0  0  0  0  0999 V2000
   58.2388   31.0202   45.9077 C   0  0  0  0  0  0  0  0  0  0  0  0
   57.5998   32.1468   45.3701 C   0  0  0  0  0  0  0  0  0  0  0  0
   57.7747   33.4014   45.9590 C   0  0  0  0  0  0  0  0  0  0  0  0
   58.5889   33.5395   47.0860 C   0  0  0  0  0  0  0  0  0  0  0  0
   59.2303   32.4191   47.6324 C   0  0  0  0  0  0  0  0  0  0  0  0
   59.0534   31.1619   47.0409 C   0  0  0  0  0  0  0  0  0  0  0  0
   58.6608   28.3595   47.1422 C   0  0  0  0  0  0  0  0  0  0  0  0
   58.3299   28.5185   45.8514 C   0  0  0  0  0  0  0  0  0  0  0  0
   58.0187   27.5071   44.9278 C   0  0  0  0  0  0  0  0  0  0  0  0
   58.1800   26.1713   44.9899 C   0  0  0  0  0  0  0  0  0  0  0  0
   57.4755   28.1447   43.8237 C   0  0  0  0  0  0  0  0  0  0  0  0
   57.5455   29.4997   44.0704 C   0  0  0  0  0  0  0  0  0  0  0  0
   57.0705   30.5616   43.1247 C   0  0  0  0  0  0  0  0  0  0  0  0
   58.0650   29.7293   45.2965 N   0  0  0  0  0  0  0  0  0  0  0  0
   57.5007   25.2696   45.9366 C   0  0  0  0  0  0  0  0  0  0  0  0
   58.0121   24.1119   46.3947 N   0  0  0  0  0  0  0  0  0  0  0  0
   56.9930   23.5815   47.1058 C   0  0  0  0  0  0  0  0  0  0  0  0
   57.0895   22.4836   47.7130 O   0  0  0  0  0  0  0  0  0  0  0  0
   55.8586   24.3139   47.1040 N   0  0  0  0  0  0  0  0  0  0  0  0
   56.1950   25.3718   46.3474 C   0  0  0  0  0  0  0  0  0  0  0  0
   55.3230   26.4061   46.0345 O   0  0  0  0  0  0  0  0  0  0  0  0
   60.3000   32.5804   49.0237 S   0  0  0  0  0  0  0  0  0  0  0  0
   59.5327   33.0648   50.2223 O   0  0  0  0  0  0  0  0  0  0  0  0
   60.8887   31.2363   49.3436 O   0  0  0  0  0  0  0  0  0  0  0  0
   61.5823   33.6988   48.6662 N   0  0  0  0  0  0  0  0  0  0  0  0
   61.6465   34.3907   49.4129 H   0  0  0  0  0  0  0  0  0  0  0  0
   62.8517   32.9777   48.5607 C   0  0  0  0  0  0  0  0  0  0  0  0
   63.7084   33.2810   49.7584 C   0  0  0  0  0  0  0  0  0  0  0  0
   63.2096   34.0793   50.7982 C   0  0  0  0  0  0  0  0  0  0  0  0
   63.9857   34.3173   51.9343 C   0  0  0  0  0  0  0  0  0  0  0  0
   65.2627   33.7616   52.0430 C   0  0  0  0  0  0  0  0  0  0  0  0
   65.7850   32.9693   51.0060 C   0  0  0  0  0  0  0  0  0  0  0  0
   64.9859   32.7111   49.8765 C   0  0  0  0  0  0  0  0  0  0  0  0
   67.1376   32.3184   51.1447 C   0  0  0  0  0  0  0  0  0  0  0  0
   68.1028   33.0568   50.4831 F   0  0  0  0  0  0  0  0  0  0  0  0
   67.5032   32.2234   52.4766 F   0  0  0  0  0  0  0  0  0  0  0  0
   67.0897   31.0487   50.6000 F   0  0  0  0  0  0  0  0  0  0  0  0
  7  8  2  0
  8  9  1  0
  9 10  2  0
 10 15  1  0
 15 16  1  0
 16 17  1  0
 17 18  2  0
 17 19  1  0
 19 20  1  0
 20 21  1  0
  9 11  1  0
 11 12  2  0
 12 13  1  0
 12 14  1  0
 14  1  1  0
  1  2  2  0
  2  3  1  0
  3  4  2  0
  4  5  1  0
  5 22  1  0
 22 23  2  0
 22 24  2  0
 22 25  1  0
 25 27  1  0
 27 28  1  0
 28 29  2  0
 29 30  1  0
 30 31  2  0
 31 32  1  0
 32 34  1  0
 34 35  1  0
 34 36  1  0
 34 37  1  0
 32 33  2  0
  5  6  2  0
 14  8  1  0
  6  1  1  0
 20 15  2  0
 33 28  1  0
 25 26  1  0
M  CHG 1  16  -1
M  CHG 1  19  -1
M  CHG 1  21  -1
M  END
> <UniqueID>
63

> <SMILES>
C=c1c(=Cc2[n-]c(=O)[n-]c2[O-])cc(C)n1-c1cccc(S(=O)(=O)NCc2cccc(C(F)(F)F)c2)c1

> <Energy>
129.6262519210991

> <Genealogy>
C=c1c(=Cc2[n-]c(=O)[n-]c2[O-])cc(C)n1-c1cccc(S(=O)(=O)NCc2cccc(C(F)(F)F)c2)c1 (protonated)
C=c1c(=Cc2[n-]c(=O)[n-]c2[O-])cc(C)n1-c1cccc(S(=O)(=O)NCc2cccc(C(F)(F)F)c2)c1 (3D coordinates assigned)
C=c1c(=Cc2[n-]c(=O)[n-]c2[O-])cc(C)n1-c1cccc(S(=O)(=O)NCc2cccc(C(F)(F)F)c2)c1 (optimized conformer: 129.6262519210991 kcal/mol)

> <smiles>
C=c1c(=Cc2[nH]c(=O)[nH]c2O)cc(C)n1-c1cccc(S(=O)(=O)NCc2cccc(C(F)(F)F)c2)c1

> <score_type>
oracle

> <origin>
adg

> <m_score__min__energy>
-17.670000000000002

> <m_primary>
energy

> <minimizedAffinity>
-8.68925

> <minimizedRMSD>
0.77385

> <CNNscore>
0.2386338413

> <CNNaffinity>
6.8862609863

> <CNN_VS>
1.6432949305

> <CNNaffinity_variance>
0.1137575507

$$$$
67:0


 28 29  0  0  0  0  0  0  0  0999 V2000
   60.0702   32.6615   47.2787 C   0  0  0  0  0  0  0  0  0  0  0  0
   60.2371   34.0569   47.2553 C   0  0  0  0  0  0  0  0  0  0  0  0
   59.6193   34.8271   46.2656 C   0  0  0  0  0  0  0  0  0  0  0  0
   58.8248   34.2152   45.2934 C   0  0  0  0  0  0  0  0  0  0  0  0
   58.6277   32.8259   45.3154 C   0  0  0  0  0  0  0  0  0  0  0  0
   59.2454   32.0566   46.3155 C   0  0  0  0  0  0  0  0  0  0  0  0
   60.7559   31.8300   48.2997 C   0  0  0  0  0  0  0  0  0  0  0  0
   61.2562   30.7241   47.9656 O   0  0  0  0  0  0  0  0  0  0  0  0
   58.7197   33.4921   52.2529 C   0  0  0  0  0  0  0  0  0  0  0  0
   59.7157   33.3551   51.3395 N   0  0  0  0  0  0  0  0  0  0  0  0
   59.8150   32.2675   50.5289 C   0  0  0  0  0  0  0  0  0  0  0  0
   60.8066   32.2146   49.6842 N   0  0  0  0  0  0  0  0  0  0  0  0
   58.8318   31.2568   50.6147 C   0  0  0  0  0  0  0  0  0  0  0  0
   57.8000   31.3695   51.5647 C   0  0  0  0  0  0  0  0  0  0  0  0
   57.7509   32.4983   52.3856 C   0  0  0  0  0  0  0  0  0  0  0  0
   56.8108   30.3869   51.7248 O   0  0  0  0  0  0  0  0  0  0  0  0
   55.5630   30.6008   52.3774 C   0  0  0  0  0  0  0  0  0  0  0  0
   57.8122   32.1510   44.2453 C   0  0  0  0  0  0  0  0  0  0  0  0
   58.0976   30.7190   44.2472 N   0  0  0  0  0  0  0  0  0  0  0  0
   57.1458   29.7645   44.7371 C   0  0  0  0  0  0  0  0  0  0  0  0
   55.9166   29.9336   44.5247 O   0  0  0  0  0  0  0  0  0  0  0  0
   58.9639   30.4011   43.9041 H   0  0  0  0  0  0  0  0  0  0  0  0
   57.5682   28.6263   45.4945 N   0  0  0  0  0  0  0  0  0  0  0  0
   58.5450   27.6573   45.0111 C   0  0  0  0  0  0  0  0  0  0  0  0
   57.9159   26.2660   44.9413 C   0  0  0  0  0  0  0  0  0  0  0  0
   57.2536   25.9070   46.2360 C   0  0  0  0  0  0  0  0  0  0  0  0
   57.9417   25.7684   47.2825 O   0  0  0  0  0  0  0  0  0  0  0  0
   55.8723   25.7744   46.2973 O   0  0  0  0  0  0  0  0  0  0  0  0
  9 10  1  0
 10 11  1  0
 11 12  2  0
 12  7  1  0
  7  8  2  0
  7  1  1  0
  1  2  2  0
  2  3  1  0
  3  4  2  0
  4  5  1  0
  5 18  1  0
 18 19  1  0
 19 20  1  0
 20 21  2  0
 20 23  1  0
 23 24  1  0
 24 25  1  0
 25 26  1  0
 26 27  2  0
 26 28  1  0
  5  6  2  0
 11 13  1  0
 13 14  2  0
 14 16  1  0
 16 17  1  0
 14 15  1  0
 15  9  2  0
  6  1  1  0
 19 22  1  0
M  CHG 1  10  -1
M  CHG 1  23  -1
M  CHG 1  28  -1
M  END
> <UniqueID>
65

> <SMILES>
COc1cc[n-]/c(=N/C(=O)c2cccc(CNC(=O)[N-]CCC(=O)[O-])c2)c1

> <Energy>
46.315555024351106

> <Genealogy>
COc1cc[n-]c(=NC(=O)c2cccc(CNC(=O)[N-]CCC(=O)[O-])c2)c1 (protonated)
COc1cc[n-]/c(=N/C(=O)c2cccc(CNC(=O)[N-]CCC(=O)[O-])c2)c1 (cis-trans isomerization)
COc1cc[n-]/c(=N/C(=O)c2cccc(CNC(=O)[N-]CCC(=O)[O-])c2)c1 (3D coordinates assigned)
COc1cc[n-]/c(=N/C(=O)c2cccc(CNC(=O)[N-]CCC(=O)[O-])c2)c1 (optimized conformer: 46.315555024351106 kcal/mol)

> <smiles>
COc1cc[nH]c(=NC(=O)c2cccc(CNC(=O)NCCC(=O)O)c2)c1

> <score_type>
oracle

> <origin>
adg

> <m_score__min__energy>
-14.210000000000001

> <m_primary>
energy

> <minimizedAffinity>
-7.78919

> <minimizedRMSD>
1.13824

> <CNNscore>
0.8266425729

> <CNNaffinity>
6.7171134949

> <CNN_VS>
5.5526518822

> <CNNaffinity_variance>
0.1327933669

$$$$
74:0


 26 28  0  0  0  0  0  0  0  0999 V2000
   58.6161   32.6061   45.7659 O   0  0  0  0  0  0  0  0  0  0  0  0
   58.5326   31.3856   46.0679 C   0  0  0  0  0  0  0  0  0  0  0  0
   57.7127   30.5970   45.3296 N   0  0  0  0  0  0  0  0  0  0  0  0
   57.5790   29.2732   45.5774 C   0  0  0  0  0  0  0  0  0  0  0  0
   56.6949   28.5181   44.8123 O   0  0  0  0  0  0  0  0  0  0  0  0
   58.3192   28.6870   46.6073 C   0  0  0  0  0  0  0  0  0  0  0  0
   59.1435   29.5124   47.3903 C   0  0  0  0  0  0  0  0  0  0  0  0
   59.7943   28.9936   48.3408 O   0  0  0  0  0  0  0  0  0  0  0  0
   59.2527   30.8591   47.1181 N   0  0  0  0  0  0  0  0  0  0  0  0
   56.2050   28.9247   44.1248 H   0  0  0  0  0  0  0  0  0  0  0  0
   60.1417   31.7198   47.9489 C   0  0  0  0  0  0  0  0  0  0  0  0
   61.5269   31.9397   47.2804 C   0  0  0  0  0  0  0  0  0  0  0  0
   62.1599   33.2967   47.6395 C   0  0  0  0  0  0  0  0  0  0  0  0
   61.8399   33.7003   49.0834 C   0  0  0  0  0  0  0  0  0  0  0  0
   60.3230   33.8603   49.3216 C   0  0  0  0  0  0  0  0  0  0  0  0
   59.4554   33.0465   48.3404 C   0  0  0  0  0  0  0  0  0  0  0  0
   58.2062   27.2400   46.9109 C   0  0  0  0  0  0  0  0  0  0  0  0
   58.6410   26.2542   46.1087 C   0  0  0  0  0  0  0  0  0  0  0  0
   57.8807   25.0242   45.7841 C   0  0  0  0  0  0  0  0  0  0  0  0
   58.5418   23.8218   45.4686 C   0  0  0  0  0  0  0  0  0  0  0  0
   57.8113   22.6658   45.1833 C   0  0  0  0  0  0  0  0  0  0  0  0
   56.4153   22.6905   45.2288 C   0  0  0  0  0  0  0  0  0  0  0  0
   55.6909   21.5406   44.9437 O   0  0  0  0  0  0  0  0  0  0  0  0
   55.7492   23.8716   45.5657 C   0  0  0  0  0  0  0  0  0  0  0  0
   56.4749   25.0341   45.8493 C   0  0  0  0  0  0  0  0  0  0  0  0
   55.7912   26.1983   46.1838 O   0  0  0  0  0  0  0  0  0  0  0  0
  1  2  2  0
  2  3  1  0
  3  4  1  0
  4  5  1  0
  4  6  2  0
  6 17  1  0
 17 18  2  0
 18 19  1  0
 19 20  2  0
 20 21  1  0
 21 22  2  0
 22 23  1  0
 22 24  1  0
 24 25  2  0
 25 26  1  0
  6  7  1  0
  7  8  2  0
  7  9  1  0
  9 11  1  0
 11 12  1  0
 12 13  1  0
 13 14  1  0
 14 15  1  0
 15 16  1  0
  9  2  1  0
 16 11  1  0
 25 19  1  0
  5 10  1  0
M  CHG 1   3  -1
M  CHG 1  23  -1
M  CHG 1  26  -1
M  END
> <UniqueID>
72

> <SMILES>
O=c1[n-]c(O)c(C=Cc2ccc([O-])cc2[O-])c(=O)n1C1CCCCC1

> <Energy>
65.70685647317862

> <Genealogy>
O=c1[n-]c(O)c(C=Cc2ccc([O-])cc2[O-])c(=O)n1C1CCCCC1 (protonated)
O=c1[n-]c(O)c(C=Cc2ccc([O-])cc2[O-])c(=O)n1C1CCCCC1 (3D coordinates assigned)
O=c1[n-]c(O)c(C=Cc2ccc([O-])cc2[O-])c(=O)n1C1CCCCC1 (nonaromatic ring conformer: 65.70685647317862 kcal/mol)

> <smiles>
O=c1[nH]c(O)c(C=Cc2ccc(O)cc2O)c(=O)n1C1CCCCC1

> <score_type>
oracle

> <origin>
adg

> <m_score__min__energy>
-16.199999999999999

> <m_primary>
energy

> <minimizedAffinity>
-9.09599

> <minimizedRMSD>
0.99420

> <CNNscore>
0.7294232249

> <CNNaffinity>
6.8172564507

> <CNN_VS>
4.9726653099

> <CNNaffinity_variance>
0.4766244888

$$$$
81:0


 29 31  0  0  0  0  0  0  0  0999 V2000
   59.6087   32.4487   47.5062 N   0  0  0  0  0  0  0  0  0  0  0  0
   59.1397   31.6853   46.5583 C   0  0  0  0  0  0  0  0  0  0  0  0
   59.1186   30.3340   46.6929 N   0  0  0  0  0  0  0  0  0  0  0  0
   58.6580   29.5176   45.7100 C   0  0  0  0  0  0  0  0  0  0  0  0
   58.1779   30.0939   44.5248 C   0  0  0  0  0  0  0  0  0  0  0  0
   58.2131   31.4498   44.3567 N   0  0  0  0  0  0  0  0  0  0  0  0
   57.7005   32.0395   43.1137 C   0  0  0  0  0  0  0  0  0  0  0  0
   58.6858   32.2568   45.3588 C   0  0  0  0  0  0  0  0  0  0  0  0
   58.7099   33.5115   45.2119 O   0  0  0  0  0  0  0  0  0  0  0  0
   64.9375   32.7913   49.3242 O   0  0  0  0  0  0  0  0  0  0  0  0
   63.6174   32.6942   48.8926 C   0  0  0  0  0  0  0  0  0  0  0  0
   62.6763   31.9638   49.6302 C   0  0  0  0  0  0  0  0  0  0  0  0
   61.3532   31.8705   49.1847 C   0  0  0  0  0  0  0  0  0  0  0  0
   60.9641   32.4931   47.9820 C   0  0  0  0  0  0  0  0  0  0  0  0
   61.9048   33.2465   47.2675 C   0  0  0  0  0  0  0  0  0  0  0  0
   63.2261   33.3376   47.7141 C   0  0  0  0  0  0  0  0  0  0  0  0
   65.2053   32.3623   50.1130 H   0  0  0  0  0  0  0  0  0  0  0  0
   58.6331   28.0543   45.9337 C   0  0  0  0  0  0  0  0  0  0  0  0
   59.8331   27.3881   46.2263 C   0  0  0  0  0  0  0  0  0  0  0  0
   59.8444   26.0116   46.4452 C   0  0  0  0  0  0  0  0  0  0  0  0
   58.6605   25.2772   46.3664 C   0  0  0  0  0  0  0  0  0  0  0  0
   57.4492   25.9183   46.0557 C   0  0  0  0  0  0  0  0  0  0  0  0
   57.4413   27.3036   45.8281 C   0  0  0  0  0  0  0  0  0  0  0  0
   56.2465   27.9237   45.4699 O   0  0  0  0  0  0  0  0  0  0  0  0
   56.2129   25.1955   45.9487 N   0  0  0  0  0  0  0  0  0  0  0  0
   55.9563   23.7471   45.0304 S   0  0  0  0  0  0  0  0  0  0  0  0
   54.4890   23.5592   44.7634 O   0  0  0  0  0  0  0  0  0  0  0  0
   56.4552   22.5756   45.8280 O   0  0  0  0  0  0  0  0  0  0  0  0
   56.8624   23.8220   43.5001 C   0  0  0  0  0  0  0  0  0  0  0  0
 10 11  1  0
 11 12  2  0
 12 13  1  0
 13 14  2  0
 14  1  1  0
  1  2  2  0
  2  3  1  0
  3  4  1  0
  4 18  1  0
 18 19  2  0
 19 20  1  0
 20 21  2  0
 21 22  1  0
 22 25  1  0
 25 26  1  0
 26 27  2  0
 26 28  2  0
 26 29  1  0
 22 23  2  0
 23 24  1  0
  4  5  2  0
  5  6  1  0
  6  7  1  0
  6  8  1  0
  8  9  2  0
 14 15  1  0
 15 16  2  0
 16 11  1  0
  8  2  1  0
 23 18  1  0
 10 17  1  0
M  CHG 1   3  -1
M  CHG 1  24  -1
M  CHG 1  25  -1
M  END
> <UniqueID>
78

> <SMILES>
Cn1cc(-c2cccc([N-]S(C)(=O)=O)c2[O-])[n-]/c(=N\c2ccc(O)cc2)c1=O

> <Energy>
59.80739189466131

> <Genealogy>
Cn1cc(-c2cccc([N-]S(C)(=O)=O)c2[O-])[n-]c(=Nc2ccc(O)cc2)c1=O (protonated)
Cn1cc(-c2cccc([N-]S(C)(=O)=O)c2[O-])[n-]/c(=N\c2ccc(O)cc2)c1=O (cis-trans isomerization)
Cn1cc(-c2cccc([N-]S(C)(=O)=O)c2[O-])[n-]/c(=N\c2ccc(O)cc2)c1=O (3D coordinates assigned)
Cn1cc(-c2cccc([N-]S(C)(=O)=O)c2[O-])[n-]/c(=N\c2ccc(O)cc2)c1=O (optimized conformer: 59.80739189466131 kcal/mol)

> <smiles>
Cn1cc(-c2cccc(NS(C)(=O)=O)c2O)[nH]c(=Nc2ccc(O)cc2)c1=O

> <score_type>
oracle

> <origin>
adg

> <m_score__min__energy>
-15.44

> <m_primary>
energy

> <minimizedAffinity>
-8.40690

> <minimizedRMSD>
1.24473

> <CNNscore>
0.4693131745

> <CNNaffinity>
6.4464478493

> <CNN_VS>
3.0254030228

> <CNNaffinity_variance>
0.0167887192

$$$$
92:0


 27 29  0  0  0  0  0  0  0  0999 V2000
   59.3947   30.1108   47.8102 C   0  0  0  0  0  0  0  0  0  0  0  0
   58.9377   30.7712   46.7345 C   0  0  0  0  0  0  0  0  0  0  0  0
   58.9132   30.2753   45.4264 C   0  0  0  0  0  0  0  0  0  0  0  0
   59.2310   29.0329   45.0116 C   0  0  0  0  0  0  0  0  0  0  0  0
   58.4735   31.3156   44.6234 C   0  0  0  0  0  0  0  0  0  0  0  0
   58.2474   32.3911   45.4564 C   0  0  0  0  0  0  0  0  0  0  0  0
   57.8517   33.7554   44.9731 C   0  0  0  0  0  0  0  0  0  0  0  0
   58.4863   32.0563   46.7503 N   0  0  0  0  0  0  0  0  0  0  0  0
   58.6944   27.8035   45.6355 C   0  0  0  0  0  0  0  0  0  0  0  0
   57.3107   27.5691   45.6511 C   0  0  0  0  0  0  0  0  0  0  0  0
   56.4342   28.4666   45.0511 O   0  0  0  0  0  0  0  0  0  0  0  0
   56.8180   26.4531   46.2456 N   0  0  0  0  0  0  0  0  0  0  0  0
   57.6402   25.5555   46.8446 C   0  0  0  0  0  0  0  0  0  0  0  0
   57.1614   24.5262   47.3852 O   0  0  0  0  0  0  0  0  0  0  0  0
   58.9804   25.7712   46.8681 N   0  0  0  0  0  0  0  0  0  0  0  0
   59.5246   26.8736   46.2890 C   0  0  0  0  0  0  0  0  0  0  0  0
   60.7686   27.0581   46.3603 O   0  0  0  0  0  0  0  0  0  0  0  0
   58.3837   32.9712   47.9036 C   0  0  0  0  0  0  0  0  0  0  0  0
   59.7050   33.1247   48.6598 C   0  0  0  0  0  0  0  0  0  0  0  0
   60.8712   33.6117   48.0035 C   0  0  0  0  0  0  0  0  0  0  0  0
   60.8915   33.9385   46.5324 C   0  0  0  0  0  0  0  0  0  0  0  0
   62.0516   33.8163   48.7355 C   0  0  0  0  0  0  0  0  0  0  0  0
   62.1161   33.5073   50.0948 C   0  0  0  0  0  0  0  0  0  0  0  0
   63.3991   33.6938   50.8513 C   0  0  0  0  0  0  0  0  0  0  0  0
   61.0066   32.9423   50.7256 C   0  0  0  0  0  0  0  0  0  0  0  0
   59.8062   32.7346   50.0282 C   0  0  0  0  0  0  0  0  0  0  0  0
   58.6547   32.1033   50.7703 C   0  0  0  0  0  0  0  0  0  0  0  0
  1  2  2  0
  2  3  1  0
  3  4  2  0
  4  9  1  0
  9 10  2  0
 10 11  1  0
 10 12  1  0
 12 13  1  0
 13 14  2  0
 13 15  1  0
 15 16  1  0
 16 17  2  0
  3  5  1  0
  5  6  2  0
  6  7  1  0
  6  8  1  0
  8 18  1  0
 18 19  1  0
 19 20  2  0
 20 21  1  0
 20 22  1  0
 22 23  2  0
 23 24  1  0
 23 25  1  0
 25 26  2  0
 26 27  1  0
  8  2  1  0
 26 19  1  0
 16  9  1  0
M  CHG 1  11  -1
M  CHG 1  12  -1
M  CHG 1  15  -1
M  END
> <UniqueID>
88

> <SMILES>
C=c1/c(=C/c2c([O-])[n-]c(=O)[n-]c2=O)cc(C)n1Cc1c(C)cc(C)cc1C

> <Energy>
92.18050342975715

> <Genealogy>
C=c1c(=Cc2c([O-])[n-]c(=O)[n-]c2=O)cc(C)n1Cc1c(C)cc(C)cc1C (protonated)
C=c1/c(=C/c2c([O-])[n-]c(=O)[n-]c2=O)cc(C)n1Cc1c(C)cc(C)cc1C (cis-trans isomerization)
C=c1/c(=C/c2c([O-])[n-]c(=O)[n-]c2=O)cc(C)n1Cc1c(C)cc(C)cc1C (3D coordinates assigned)
C=c1/c(=C/c2c([O-])[n-]c(=O)[n-]c2=O)cc(C)n1Cc1c(C)cc(C)cc1C (optimized conformer: 92.18050342975715 kcal/mol)

> <smiles>
C=c1c(=Cc2c(O)[nH]c(=O)[nH]c2=O)cc(C)n1Cc1c(C)cc(C)cc1C

> <score_type>
oracle

> <origin>
adg

> <m_score__min__energy>
-16.32

> <m_primary>
energy

> <minimizedAffinity>
-8.21107

> <minimizedRMSD>
1.24430

> <CNNscore>
0.6836079359

> <CNNaffinity>
7.1242966652

> <CNN_VS>
4.8702259064

> <CNNaffinity_variance>
0.0651402175

$$$$
94:0


 30 32  0  0  0  0  0  0  0  0999 V2000
   58.3049   32.7334   44.1566 S   0  0  0  0  0  0  0  0  0  0  0  0
   57.5842   31.1476   44.5776 C   0  0  0  0  0  0  0  0  0  0  0  0
   56.2840   30.8406   44.3767 N   0  0  0  0  0  0  0  0  0  0  0  0
   55.9763   29.6031   44.7569 N   0  0  0  0  0  0  0  0  0  0  0  0
   57.0359   28.9256   45.2552 C   0  0  0  0  0  0  0  0  0  0  0  0
   56.9890   27.7026   45.6925 N   0  0  0  0  0  0  0  0  0  0  0  0
   58.4378   29.8561   45.2440 S   0  0  0  0  0  0  0  0  0  0  0  0
   58.0449   26.7278   45.6151 C   0  0  0  0  0  0  0  0  0  0  0  0
   59.2482   27.1006   45.5565 O   0  0  0  0  0  0  0  0  0  0  0  0
   57.7078   25.2782   45.6034 C   0  0  0  0  0  0  0  0  0  0  0  0
   58.7214   24.3279   45.3655 C   0  0  0  0  0  0  0  0  0  0  0  0
   58.4309   22.9617   45.3510 C   0  0  0  0  0  0  0  0  0  0  0  0
   57.1266   22.5204   45.5731 C   0  0  0  0  0  0  0  0  0  0  0  0
   56.1098   23.4453   45.8105 C   0  0  0  0  0  0  0  0  0  0  0  0
   56.3881   24.8163   45.8280 C   0  0  0  0  0  0  0  0  0  0  0  0
   55.3441   25.7045   46.0713 O   0  0  0  0  0  0  0  0  0  0  0  0
   57.8540   33.5330   45.7335 C   0  0  0  0  0  0  0  0  0  0  0  0
   59.3391   35.0696   46.7885 O   0  0  0  0  0  0  0  0  0  0  0  0
   59.0758   33.8633   46.5343 C   0  0  0  0  0  0  0  0  0  0  0  0
   59.8992   32.8074   47.0560 N   0  0  0  0  0  0  0  0  0  0  0  0
   59.5958   31.8794   46.9296 H   0  0  0  0  0  0  0  0  0  0  0  0
   61.1390   33.0232   47.7511 C   0  0  0  0  0  0  0  0  0  0  0  0
   62.3624   33.0883   47.0627 C   0  0  0  0  0  0  0  0  0  0  0  0
   63.5549   33.2789   47.7636 C   0  0  0  0  0  0  0  0  0  0  0  0
   63.5419   33.3926   49.1555 C   0  0  0  0  0  0  0  0  0  0  0  0
   62.3320   33.3073   49.8647 C   0  0  0  0  0  0  0  0  0  0  0  0
   61.1339   33.1151   49.1515 C   0  0  0  0  0  0  0  0  0  0  0  0
   62.3224   33.4175   51.3408 C   0  0  0  0  0  0  0  0  0  0  0  0
   63.3610   33.7640   51.9634 O   0  0  0  0  0  0  0  0  0  0  0  0
   61.1672   33.1390   52.0612 O   0  0  0  0  0  0  0  0  0  0  0  0
 18 19  2  0
 19 17  1  0
 17  1  1  0
  1  2  1  0
  2  3  2  0
  3  4  1  0
  4  5  1  0
  5  6  2  0
  6  8  1  0
  8  9  2  0
  8 10  1  0
 10 11  2  0
 11 12  1  0
 12 13  2  0
 13 14  1  0
 14 15  2  0
 15 16  1  0
  5  7  1  0
 19 20  1  0
 20 22  1  0
 22 23  2  0
 23 24  1  0
 24 25  2  0
 25 26  1  0
 26 28  1  0
 28 29  2  0
 28 30  1  0
 26 27  2  0
  7  2  1  0
 27 22  1  0
 15 10  1  0
 20 21  1  0
M  CHG 1   4  -1
M  CHG 1  16  -1
M  CHG 1  30  -1
M  END
> <UniqueID>
90

> <SMILES>
O=C(CSc1n[n-]c(=NC(=O)c2ccccc2[O-])s1)Nc1cccc(C(=O)[O-])c1

> <Energy>
80.94535126247227

> <Genealogy>
O=C(CSc1n[n-]c(=NC(=O)c2ccccc2[O-])s1)Nc1cccc(C(=O)[O-])c1 (protonated)
O=C(CSc1n[n-]c(=NC(=O)c2ccccc2[O-])s1)Nc1cccc(C(=O)[O-])c1 (3D coordinates assigned)
O=C(CSc1n[n-]c(=NC(=O)c2ccccc2[O-])s1)Nc1cccc(C(=O)[O-])c1 (optimized conformer: 80.94535126247227 kcal/mol)

> <smiles>
O=C(CSc1n[nH]c(=NC(=O)c2ccccc2O)s1)Nc1cccc(C(=O)O)c1

> <score_type>
oracle

> <origin>
adg

> <m_score__min__energy>
-17.5

> <m_primary>
energy

> <minimizedAffinity>
-7.86983

> <minimizedRMSD>
2.45176

> <CNNscore>
0.4973756671

> <CNNaffinity>
6.7574162483

> <CNN_VS>
3.3609743118

> <CNNaffinity_variance>
0.1784748286

$$$$
4:0


 27 29  0  0  0  0  0  0  0  0999 V2000
   59.9468   32.3749   52.7777 C   0  0  0  0  0  0  0  0  0  0  0  0
   60.0107   31.4546   51.7844 N   0  0  0  0  0  0  0  0  0  0  0  0
   58.9478   30.6634   51.4659 C   0  0  0  0  0  0  0  0  0  0  0  0
   59.0344   29.8300   50.4748 N   0  0  0  0  0  0  0  0  0  0  0  0
   57.7426   30.7987   52.2118 C   0  0  0  0  0  0  0  0  0  0  0  0
   56.6656   30.0827   52.0083 N   0  0  0  0  0  0  0  0  0  0  0  0
   57.6944   31.7454   53.1869 N   0  0  0  0  0  0  0  0  0  0  0  0
   58.7594   32.5316   53.4874 C   0  0  0  0  0  0  0  0  0  0  0  0
   55.3431   30.2756   52.5377 C   0  0  0  0  0  0  0  0  0  0  0  0
   55.1181   29.8239   53.8410 C   0  0  0  0  0  0  0  0  0  0  0  0
   53.8344   29.8698   54.3879 C   0  0  0  0  0  0  0  0  0  0  0  0
   52.7645   30.3528   53.6306 C   0  0  0  0  0  0  0  0  0  0  0  0
   52.9669   30.7857   52.3076 C   0  0  0  0  0  0  0  0  0  0  0  0
   54.2599   30.7168   51.7584 C   0  0  0  0  0  0  0  0  0  0  0  0
   51.8446   31.3249   51.5094 C   0  0  0  0  0  0  0  0  0  0  0  0
   51.5203   30.7899   50.4156 O   0  0  0  0  0  0  0  0  0  0  0  0
   51.1239   32.4260   51.9604 O   0  0  0  0  0  0  0  0  0  0  0  0
   59.7529   30.1735   48.9370 S   0  0  0  0  0  0  0  0  0  0  0  0
   61.2226   29.8621   48.9732 O   0  0  0  0  0  0  0  0  0  0  0  0
   59.0480   29.1918   48.0422 O   0  0  0  0  0  0  0  0  0  0  0  0
   59.5069   31.8125   48.3486 C   0  0  0  0  0  0  0  0  0  0  0  0
   60.2335   32.8881   48.8828 C   0  0  0  0  0  0  0  0  0  0  0  0
   60.0566   34.1761   48.3694 C   0  0  0  0  0  0  0  0  0  0  0  0
   59.1576   34.3976   47.3218 C   0  0  0  0  0  0  0  0  0  0  0  0
   58.4319   33.3293   46.7864 C   0  0  0  0  0  0  0  0  0  0  0  0
   57.3082   33.6050   45.4680 Cl  0  0  0  0  0  0  0  0  0  0  0  0
   58.6084   32.0390   47.2969 C   0  0  0  0  0  0  0  0  0  0  0  0
  1  2  1  0
  2  3  1  0
  3  4  2  0
  4  9  1  0
  9 10  2  0
 10 11  1  0
 11 12  2  0
 12 13  1  0
 13 15  1  0
 15 16  2  0
 15 17  1  0
 13 14  2  0
  3  5  1  0
  5  6  2  0
  6 18  1  0
 18 19  2  0
 18 20  2  0
 18 21  1  0
 21 22  2  0
 22 23  1  0
 23 24  2  0
 24 25  1  0
 25 26  1  0
 25 27  2  0
  5  7  1  0
  7  8  1  0
  8  1  2  0
 14  9  1  0
 27 21  1  0
M  CHG 1   2  -1
M  CHG 1   7  -1
M  CHG 1  17  -1
M  END
> <UniqueID>
5

> <SMILES>
O=C([O-])c1cccc(N=c2[n-]cc[n-]/c2=N\S(=O)(=O)c2cccc(Cl)c2)c1

> <Energy>
55.48829241368185

> <Genealogy>
O=C([O-])c1cccc(N=c2[n-]cc[n-]c2=NS(=O)(=O)c2cccc(Cl)c2)c1 (protonated)
O=C([O-])c1cccc(N=c2[n-]cc[n-]/c2=N\S(=O)(=O)c2cccc(Cl)c2)c1 (cis-trans isomerization)
O=C([O-])c1cccc(N=c2[n-]cc[n-]/c2=N\S(=O)(=O)c2cccc(Cl)c2)c1 (3D coordinates assigned)
O=C([O-])c1cccc(N=c2[n-]cc[n-]/c2=N\S(=O)(=O)c2cccc(Cl)c2)c1 (optimized conformer: 55.48829241368185 kcal/mol)

> <smiles>
O=C(O)c1cccc(N=c2[nH]cc[nH]c2=NS(=O)(=O)c2cccc(Cl)c2)c1

> <score_type>
oracle

> <origin>
adg

> <m_score__min__energy>
-14.35

> <m_primary>
energy

> <minimizedAffinity>
-8.61059

> <minimizedRMSD>
1.03265

> <CNNscore>
0.5579928160

> <CNNaffinity>
5.9191107750

> <CNN_VS>
3.3028213978

> <CNNaffinity_variance>
0.2210782170

$$$$
9:0


 36 39  0  0  0  0  0  0  0  0999 V2000
   60.1571   29.6506   47.4878 C   0  0  0  0  0  0  0  0  0  0  0  0
   61.0486   30.6162   47.0012 C   0  0  0  0  0  0  0  0  0  0  0  0
   61.8568   31.3370   47.8842 C   0  0  0  0  0  0  0  0  0  0  0  0
   61.7917   31.1001   49.2694 C   0  0  0  0  0  0  0  0  0  0  0  0
   60.8852   30.1386   49.7511 C   0  0  0  0  0  0  0  0  0  0  0  0
   60.0757   29.4192   48.8669 C   0  0  0  0  0  0  0  0  0  0  0  0
   60.1099   26.7112   47.0049 C   0  0  0  0  0  0  0  0  0  0  0  0
   59.2945   27.5760   46.3806 C   0  0  0  0  0  0  0  0  0  0  0  0
   58.3241   27.2590   45.4223 C   0  0  0  0  0  0  0  0  0  0  0  0
   58.0338   26.0388   44.9290 C   0  0  0  0  0  0  0  0  0  0  0  0
   57.7594   28.4636   45.0274 C   0  0  0  0  0  0  0  0  0  0  0  0
   58.3795   29.4532   45.7637 C   0  0  0  0  0  0  0  0  0  0  0  0
   58.0895   30.9177   45.6346 C   0  0  0  0  0  0  0  0  0  0  0  0
   59.3147   28.9176   46.5793 N   0  0  0  0  0  0  0  0  0  0  0  0
   57.3361   24.9870   45.6899 C   0  0  0  0  0  0  0  0  0  0  0  0
   57.9283   23.8474   46.0859 N   0  0  0  0  0  0  0  0  0  0  0  0
   56.9703   23.2294   46.8101 C   0  0  0  0  0  0  0  0  0  0  0  0
   57.1463   22.1057   47.3488 O   0  0  0  0  0  0  0  0  0  0  0  0
   55.8140   23.9156   46.9232 N   0  0  0  0  0  0  0  0  0  0  0  0
   56.0637   25.0314   46.2190 C   0  0  0  0  0  0  0  0  0  0  0  0
   55.1656   26.0857   46.1050 O   0  0  0  0  0  0  0  0  0  0  0  0
   62.6480   31.8743   50.2000 C   0  0  0  0  0  0  0  0  0  0  0  0
   62.3728   31.8876   51.4315 O   0  0  0  0  0  0  0  0  0  0  0  0
   63.7552   32.6503   49.7109 N   0  0  0  0  0  0  0  0  0  0  0  0
   63.7621   32.9001   48.7587 H   0  0  0  0  0  0  0  0  0  0  0  0
   64.8533   33.0825   50.5332 C   0  0  0  0  0  0  0  0  0  0  0  0
   66.1424   32.5424   50.3759 C   0  0  0  0  0  0  0  0  0  0  0  0
   67.2003   32.9954   51.1703 C   0  0  0  0  0  0  0  0  0  0  0  0
   66.9894   34.0000   52.1264 C   0  0  0  0  0  0  0  0  0  0  0  0
   65.7095   34.5599   52.2637 C   0  0  0  0  0  0  0  0  0  0  0  0
   64.6524   34.1058   51.4704 C   0  0  0  0  0  0  0  0  0  0  0  0
   68.1339   34.5121   52.9563 C   0  0  0  0  0  0  0  0  0  0  0  0
   68.8368   35.9815   52.2228 S   0  0  0  0  0  0  0  0  0  0  0  0
   67.8533   37.4088   52.6251 C   0  0  0  0  0  0  0  0  0  0  0  0
   70.2370   36.1819   52.7320 O   0  0  0  0  0  0  0  0  0  0  0  0
   68.8735   35.8150   50.7313 O   0  0  0  0  0  0  0  0  0  0  0  0
  7  8  2  0
  8  9  1  0
  9 10  2  0
 10 15  1  0
 15 16  1  0
 16 17  1  0
 17 18  2  0
 17 19  1  0
 19 20  1  0
 20 21  1  0
  9 11  1  0
 11 12  2  0
 12 13  1  0
 12 14  1  0
 14  1  1  0
  1  2  2  0
  2  3  1  0
  3  4  2  0
  4 22  1  0
 22 23  2  0
 22 24  1  0
 24 26  1  0
 26 27  2  0
 27 28  1  0
 28 29  2  0
 29 32  1  0
 32 33  1  0
 33 34  1  0
 33 35  2  0
 33 36  2  0
 29 30  1  0
 30 31  2  0
  4  5  1  0
  5  6  2  0
 14  8  1  0
  6  1  1  0
 20 15  2  0
 31 26  1  0
 24 25  1  0
M  CHG 1  16  -1
M  CHG 1  19  -1
M  CHG 1  21  -1
M  END
> <UniqueID>
10

> <SMILES>
C=c1c(=Cc2[n-]c(=O)[n-]c2[O-])cc(C)n1-c1ccc(C(=O)Nc2ccc(CS(C)(=O)=O)cc2)cc1

> <Energy>
128.21797332714897

> <Genealogy>
C=c1c(=Cc2[n-]c(=O)[n-]c2[O-])cc(C)n1-c1ccc(C(=O)Nc2ccc(CS(C)(=O)=O)cc2)cc1 (protonated)
C=c1c(=Cc2[n-]c(=O)[n-]c2[O-])cc(C)n1-c1ccc(C(=O)Nc2ccc(CS(C)(=O)=O)cc2)cc1 (3D coordinates assigned)
C=c1c(=Cc2[n-]c(=O)[n-]c2[O-])cc(C)n1-c1ccc(C(=O)Nc2ccc(CS(C)(=O)=O)cc2)cc1 (optimized conformer: 128.21797332714897 kcal/mol)

> <smiles>
C=c1c(=Cc2[nH]c(=O)[nH]c2O)cc(C)n1-c1ccc(C(=O)Nc2ccc(CS(C)(=O)=O)cc2)cc1

> <score_type>
oracle

> <origin>
adg

> <m_score__min__energy>
-17.050000000000001

> <m_primary>
energy

> <minimizedAffinity>
-9.09218

> <minimizedRMSD>
1.22200

> <CNNscore>
0.2486357987

> <CNNaffinity>
6.3532528877

> <CNN_VS>
1.5796461105

> <CNNaffinity_variance>
0.0791601613

$$$$
14:0


 32 34  0  0  0  0  0  0  0  0999 V2000
   58.1285   33.2895   46.1833 C   0  0  0  0  0  0  0  0  0  0  0  0
   57.2301   33.8584   45.5088 O   0  0  0  0  0  0  0  0  0  0  0  0
   58.0332   31.8127   46.4744 C   0  0  0  0  0  0  0  0  0  0  0  0
   58.5684   31.0094   45.3621 N   0  0  0  0  0  0  0  0  0  0  0  0
   59.6080   30.0322   45.6158 C   0  0  0  0  0  0  0  0  0  0  0  0
   60.4586   30.2572   46.5206 O   0  0  0  0  0  0  0  0  0  0  0  0
   56.6823   30.4681   43.8678 C   0  0  0  0  0  0  0  0  0  0  0  0
   58.0040   31.2174   44.0182 C   0  0  0  0  0  0  0  0  0  0  0  0
   59.6555   28.7137   44.8794 C   0  0  0  0  0  0  0  0  0  0  0  0
   58.9898   27.6021   45.6532 C   0  0  0  0  0  0  0  0  0  0  0  0
   59.7353   26.8168   46.5476 C   0  0  0  0  0  0  0  0  0  0  0  0
   59.1138   25.8019   47.2850 C   0  0  0  0  0  0  0  0  0  0  0  0
   57.7430   25.5688   47.1399 C   0  0  0  0  0  0  0  0  0  0  0  0
   56.9912   26.3523   46.2581 C   0  0  0  0  0  0  0  0  0  0  0  0
   55.6288   26.1218   46.1159 O   0  0  0  0  0  0  0  0  0  0  0  0
   57.6089   27.3717   45.5208 C   0  0  0  0  0  0  0  0  0  0  0  0
   59.1803   34.0883   46.7408 N   0  0  0  0  0  0  0  0  0  0  0  0
   60.3573   33.5829   47.3842 C   0  0  0  0  0  0  0  0  0  0  0  0
   61.6012   33.5900   46.7309 C   0  0  0  0  0  0  0  0  0  0  0  0
   62.7445   33.1259   47.3891 C   0  0  0  0  0  0  0  0  0  0  0  0
   62.6582   32.6725   48.7078 C   0  0  0  0  0  0  0  0  0  0  0  0
   61.4289   32.6952   49.3815 C   0  0  0  0  0  0  0  0  0  0  0  0
   60.2821   33.1601   48.7180 C   0  0  0  0  0  0  0  0  0  0  0  0
   61.3281   32.1446   51.0573 S   0  0  0  0  0  0  0  0  0  0  0  0
   61.9971   30.8021   51.1784 O   0  0  0  0  0  0  0  0  0  0  0  0
   62.0695   33.1151   51.9373 O   0  0  0  0  0  0  0  0  0  0  0  0
   59.6739   32.0234   51.6051 N   0  0  0  0  0  0  0  0  0  0  0  0
   59.5952   32.2378   53.0598 C   0  0  0  0  0  0  0  0  0  0  0  0
   58.1794   31.9153   53.5810 C   0  0  0  0  0  0  0  0  0  0  0  0
   57.2665   31.7506   52.5123 O   0  0  0  0  0  0  0  0  0  0  0  0
   57.6402   30.6302   51.7266 C   0  0  0  0  0  0  0  0  0  0  0  0
   59.1070   30.7127   51.2533 C   0  0  0  0  0  0  0  0  0  0  0  0
  7  8  1  0
  8  4  1  0
  4  3  1  0
  3  1  1  0
  1  2  2  0
  1 17  1  0
 17 18  1  0
 18 19  2  0
 19 20  1  0
 20 21  2  0
 21 22  1  0
 22 24  1  0
 24 25  2  0
 24 26  2  0
 24 27  1  0
 27 28  1  0
 28 29  1  0
 29 30  1  0
 30 31  1  0
 31 32  1  0
 22 23  2  0
  4  5  1  0
  5  6  2  0
  5  9  1  0
  9 10  1  0
 10 11  2  0
 11 12  1  0
 12 13  2  0
 13 14  1  0
 14 15  1  0
 14 16  2  0
 23 18  1  0
 16 10  1  0
 32 27  1  0
M  CHG 1  15  -1
M  CHG 1  17  -1
M  END
> <UniqueID>
15

> <SMILES>
CCN(CC(=O)[N-]c1cccc(S(=O)(=O)N2CCOCC2)c1)C(=O)Cc1cccc([O-])c1

> <Energy>
67.96911309820526

> <Genealogy>
CCN(CC(=O)[N-]c1cccc(S(=O)(=O)N2CCOCC2)c1)C(=O)Cc1cccc([O-])c1 (protonated)
CCN(CC(=O)[N-]c1cccc(S(=O)(=O)N2CCOCC2)c1)C(=O)Cc1cccc([O-])c1 (3D coordinates assigned)
CCN(CC(=O)[N-]c1cccc(S(=O)(=O)N2CCOCC2)c1)C(=O)Cc1cccc([O-])c1 (nonaromatic ring conformer: 67.96911309820526 kcal/mol)

> <smiles>
CCN(CC(=O)Nc1cccc(S(=O)(=O)N2CCOCC2)c1)C(=O)Cc1cccc(O)c1

> <score_type>
oracle

> <origin>
adg

> <m_score__min__energy>
-14.300000000000001

> <m_primary>
energy

> <minimizedAffinity>
-7.31756

> <minimizedRMSD>
1.07418

> <CNNscore>
0.1934348047

> <CNNaffinity>
6.3417534828

> <CNN_VS>
1.2267158031

> <CNNaffinity_variance>
0.0666991100

$$$$
30:0


 26 28  0  0  0  0  0  0  0  0999 V2000
   59.5680   29.1818   44.8175 O   0  0  0  0  0  0  0  0  0  0  0  0
   58.5210   29.8084   45.1290 C   0  0  0  0  0  0  0  0  0  0  0  0
   58.6364   31.2483   45.4532 C   0  0  0  0  0  0  0  0  0  0  0  0
   58.1271   32.1980   44.5533 C   0  0  0  0  0  0  0  0  0  0  0  0
   58.2453   33.5628   44.8242 C   0  0  0  0  0  0  0  0  0  0  0  0
   58.8792   33.9941   45.9918 C   0  0  0  0  0  0  0  0  0  0  0  0
   59.3985   33.0605   46.9011 C   0  0  0  0  0  0  0  0  0  0  0  0
   59.2880   31.6895   46.6194 C   0  0  0  0  0  0  0  0  0  0  0  0
   60.1204   33.5234   48.1353 C   0  0  0  0  0  0  0  0  0  0  0  0
   61.5983   33.4482   47.9260 C   0  0  0  0  0  0  0  0  0  0  0  0
   62.4999   33.3210   48.9159 N   0  0  0  0  0  0  0  0  0  0  0  0
   63.6727   33.3561   48.3045 N   0  0  0  0  0  0  0  0  0  0  0  0
   63.4948   33.5097   47.0013 N   0  0  0  0  0  0  0  0  0  0  0  0
   62.2009   33.5765   46.7304 N   0  0  0  0  0  0  0  0  0  0  0  0
   57.2197   29.0947   45.1444 C   0  0  0  0  0  0  0  0  0  0  0  0
   56.1671   29.7102   44.8294 O   0  0  0  0  0  0  0  0  0  0  0  0
   57.1197   27.7048   45.5027 N   0  0  0  0  0  0  0  0  0  0  0  0
   55.8937   27.1984   45.7748 O   0  0  0  0  0  0  0  0  0  0  0  0
   58.2397   26.7674   45.3613 C   0  0  0  0  0  0  0  0  0  0  0  0
   57.7410   25.3473   45.2403 C   0  0  0  0  0  0  0  0  0  0  0  0
   57.4429   24.8304   43.9669 C   0  0  0  0  0  0  0  0  0  0  0  0
   56.9802   23.5189   43.8237 C   0  0  0  0  0  0  0  0  0  0  0  0
   56.8076   22.7107   44.9503 C   0  0  0  0  0  0  0  0  0  0  0  0
   57.0947   23.2148   46.2223 C   0  0  0  0  0  0  0  0  0  0  0  0
   57.5532   24.5287   46.3745 C   0  0  0  0  0  0  0  0  0  0  0  0
   57.8121   25.0091   47.6540 O   0  0  0  0  0  0  0  0  0  0  0  0
  1  2  2  0
  2 15  1  0
 15 16  2  0
 15 17  1  0
 17 18  1  0
 17 19  1  0
 19 20  1  0
 20 21  2  0
 21 22  1  0
 22 23  2  0
 23 24  1  0
 24 25  2  0
 25 26  1  0
  2  3  1  0
  3  4  2  0
  4  5  1  0
  5  6  2  0
  6  7  1  0
  7  9  1  0
  9 10  1  0
 10 11  1  0
 11 12  2  0
 12 13  1  0
 13 14  1  0
  7  8  2  0
 25 20  1  0
  8  3  1  0
 14 10  2  0
M  CHG 1  13  -1
M  CHG 1  18  -1
M  CHG 1  26  -1
M  END
> <UniqueID>
31

> <SMILES>
O=C(C(=O)N([O-])Cc1ccccc1[O-])c1cccc(Cc2nn[n-]n2)c1

> <Energy>
84.27440863366498

> <Genealogy>
O=C(C(=O)N([O-])Cc1ccccc1[O-])c1cccc(Cc2nn[n-]n2)c1 (protonated)
O=C(C(=O)N([O-])Cc1ccccc1[O-])c1cccc(Cc2nn[n-]n2)c1 (3D coordinates assigned)
O=C(C(=O)N([O-])Cc1ccccc1[O-])c1cccc(Cc2nn[n-]n2)c1 (optimized conformer: 84.27440863366498 kcal/mol)

> <smiles>
O=C(C(=O)N(O)Cc1ccccc1O)c1cccc(Cc2nn[nH]n2)c1

> <score_type>
oracle

> <origin>
adg

> <m_score__min__energy>
-15.94

> <m_primary>
energy

> <minimizedAffinity>
-7.70400

> <minimizedRMSD>
1.37993

> <CNNscore>
0.7425087094

> <CNNaffinity>
6.5817070007

> <CNN_VS>
4.8869748116

> <CNNaffinity_variance>
0.0505357385

$$$$
79:0


 25 27  0  0  0  0  0  0  0  0999 V2000
   58.0403   26.2283   46.2745 C   0  0  0  0  0  0  0  0  0  0  0  0
   58.2568   27.3409   47.1005 C   0  0  0  0  0  0  0  0  0  0  0  0
   58.5665   28.5865   46.5426 C   0  0  0  0  0  0  0  0  0  0  0  0
   58.6529   28.7354   45.1460 C   0  0  0  0  0  0  0  0  0  0  0  0
   58.4230   27.6251   44.3248 C   0  0  0  0  0  0  0  0  0  0  0  0
   58.1143   26.3804   44.8816 C   0  0  0  0  0  0  0  0  0  0  0  0
   57.6711   24.8998   46.8756 C   0  0  0  0  0  0  0  0  0  0  0  0
   56.2014   21.5414   43.8731 O   0  0  0  0  0  0  0  0  0  0  0  0
   56.2011   22.5782   44.5881 C   0  0  0  0  0  0  0  0  0  0  0  0
   57.2758   22.9746   45.3061 N   0  0  0  0  0  0  0  0  0  0  0  0
   56.8514   24.1067   45.9053 C   0  0  0  0  0  0  0  0  0  0  0  0
   55.5429   24.3453   45.5487 C   0  0  0  0  0  0  0  0  0  0  0  0
   54.7497   25.4005   45.9824 O   0  0  0  0  0  0  0  0  0  0  0  0
   55.1296   23.3851   44.7107 N   0  0  0  0  0  0  0  0  0  0  0  0
   54.2475   23.2911   44.2837 H   0  0  0  0  0  0  0  0  0  0  0  0
   58.9585   29.9580   44.5316 O   0  0  0  0  0  0  0  0  0  0  0  0
   57.8969   31.2971   44.4375 S   0  0  0  0  0  0  0  0  0  0  0  0
   57.8466   31.7862   43.0165 O   0  0  0  0  0  0  0  0  0  0  0  0
   56.5222   30.8895   44.8867 O   0  0  0  0  0  0  0  0  0  0  0  0
   58.4868   32.5850   45.4785 C   0  0  0  0  0  0  0  0  0  0  0  0
   58.7644   33.8530   44.9457 C   0  0  0  0  0  0  0  0  0  0  0  0
   59.2417   34.8734   45.7751 C   0  0  0  0  0  0  0  0  0  0  0  0
   59.4459   34.6312   47.1372 C   0  0  0  0  0  0  0  0  0  0  0  0
   59.1749   33.3687   47.6707 C   0  0  0  0  0  0  0  0  0  0  0  0
   58.6993   32.3460   46.8438 C   0  0  0  0  0  0  0  0  0  0  0  0
  8  9  2  0
  9 10  1  0
 10 11  1  0
 11  7  1  0
  7  1  1  0
  1  2  2  0
  2  3  1  0
  3  4  2  0
  4 16  1  0
 16 17  1  0
 17 18  2  0
 17 19  2  0
 17 20  1  0
 20 21  2  0
 21 22  1  0
 22 23  2  0
 23 24  1  0
 24 25  2  0
  4  5  1  0
  5  6  2  0
 11 12  2  0
 12 13  1  0
 12 14  1  0
 14  9  1  0
  6  1  1  0
 25 20  1  0
 14 15  1  0
M  CHG 1  10  -1
M  CHG 1  13  -1
M  END
> <UniqueID>
77

> <SMILES>
O=c1[n-]c(Cc2ccc(OS(=O)(=O)c3ccccc3)cc2)c([O-])[nH]1

> <Energy>
68.61347578103234

> <Genealogy>
O=c1[n-]c(Cc2ccc(OS(=O)(=O)c3ccccc3)cc2)c([O-])[nH]1 (protonated)
O=c1[n-]c(Cc2ccc(OS(=O)(=O)c3ccccc3)cc2)c([O-])[nH]1 (3D coordinates assigned)
O=c1[n-]c(Cc2ccc(OS(=O)(=O)c3ccccc3)cc2)c([O-])[nH]1 (optimized conformer: 68.61347578103234 kcal/mol)

> <smiles>
O=c1[nH]c(O)c(Cc2ccc(OS(=O)(=O)c3ccccc3)cc2)[nH]1

> <score_type>
oracle

> <origin>
adg

> <m_score__min__energy>
-14.32

> <m_primary>
energy

> <minimizedAffinity>
-8.66189

> <minimizedRMSD>
1.34824

> <CNNscore>
0.3114264607

> <CNNaffinity>
6.0379757881

> <CNN_VS>
1.8803853989

> <CNNaffinity_variance>
0.0040270067

$$$$
88:0


 25 26  0  0  0  0  0  0  0  0999 V2000
   56.9420   25.0686   46.3923 C   0  0  0  0  0  0  0  0  0  0  0  0
   58.2762   24.6341   46.4799 C   0  0  0  0  0  0  0  0  0  0  0  0
   59.3199   25.5005   46.1532 C   0  0  0  0  0  0  0  0  0  0  0  0
   59.0470   26.8077   45.7462 C   0  0  0  0  0  0  0  0  0  0  0  0
   57.7249   27.2649   45.6686 C   0  0  0  0  0  0  0  0  0  0  0  0
   56.6699   26.3920   46.0077 C   0  0  0  0  0  0  0  0  0  0  0  0
   55.3505   26.8277   45.9660 O   0  0  0  0  0  0  0  0  0  0  0  0
   57.4306   28.9384   45.1801 S   0  0  0  0  0  0  0  0  0  0  0  0
   58.0348   29.1522   43.8206 O   0  0  0  0  0  0  0  0  0  0  0  0
   55.9580   29.2212   45.0832 O   0  0  0  0  0  0  0  0  0  0  0  0
   58.1763   30.0412   46.3023 N   0  0  0  0  0  0  0  0  0  0  0  0
   58.3400   31.3706   45.7144 C   0  0  0  0  0  0  0  0  0  0  0  0
   59.2167   32.2352   46.5728 C   0  0  0  0  0  0  0  0  0  0  0  0
   60.4242   31.7390   47.0881 C   0  0  0  0  0  0  0  0  0  0  0  0
   61.2224   32.5693   47.8777 C   0  0  0  0  0  0  0  0  0  0  0  0
   60.8129   33.8762   48.1475 C   0  0  0  0  0  0  0  0  0  0  0  0
   59.6034   34.3345   47.6208 C   0  0  0  0  0  0  0  0  0  0  0  0
   58.8404   33.5125   46.8538 N   0  0  0  0  0  0  0  0  0  0  0  0
   55.8449   24.2128   46.7518 N   0  0  0  0  0  0  0  0  0  0  0  0
   53.6892   24.2888   45.5457 N   0  0  0  0  0  0  0  0  0  0  0  0
   54.9098   23.6037   45.8537 C   0  0  0  0  0  0  0  0  0  0  0  0
   55.1772   22.5037   45.2982 O   0  0  0  0  0  0  0  0  0  0  0  0
   53.5217   25.1650   45.9621 H   0  0  0  0  0  0  0  0  0  0  0  0
   51.4843   23.2132   45.4212 C   0  0  0  0  0  0  0  0  0  0  0  0
   52.6831   23.7402   44.6391 C   0  0  0  0  0  0  0  0  0  0  0  0
 24 25  1  0
 25 20  1  0
 20 21  1  0
 21 22  2  0
 21 19  1  0
 19  1  1  0
  1  2  2  0
  2  3  1  0
  3  4  2  0
  4  5  1  0
  5  8  1  0
  8  9  2  0
  8 10  2  0
  8 11  1  0
 11 12  1  0
 12 13  1  0
 13 14  2  0
 14 15  1  0
 15 16  2  0
 16 17  1  0
 17 18  2  0
  5  6  2  0
  6  7  1  0
  6  1  1  0
 18 13  1  0
 20 23  1  0
M  CHG 1   7  -1
M  CHG 1  11  -1
M  CHG 1  19  -1
M  END
> <UniqueID>
85

> <SMILES>
CCNC(=O)[N-]c1cccc(S(=O)(=O)[N-]Cc2ccccn2)c1[O-]

> <Energy>
38.203567301730274

> <Genealogy>
CCNC(=O)[N-]c1cccc(S(=O)(=O)[N-]Cc2ccccn2)c1[O-] (protonated)
CCNC(=O)[N-]c1cccc(S(=O)(=O)[N-]Cc2ccccn2)c1[O-] (3D coordinates assigned)
CCNC(=O)[N-]c1cccc(S(=O)(=O)[N-]Cc2ccccn2)c1[O-] (optimized conformer: 38.203567301730274 kcal/mol)

> <smiles>
CCNC(=O)Nc1cccc(S(=O)(=O)NCc2ccccn2)c1O

> <score_type>
oracle

> <origin>
adg

> <m_score__min__energy>
-16.43

> <m_primary>
energy

> <minimizedAffinity>
-5.73608

> <minimizedRMSD>
1.46365

> <CNNscore>
0.4396249056

> <CNNaffinity>
6.2569327354

> <CNN_VS>
2.7507035732

> <CNNaffinity_variance>
0.4523738921

$$$$
92:0


 29 31  0  0  0  0  0  0  0  0999 V2000
   60.0922   28.4966   47.2879 C   0  0  0  0  0  0  0  0  0  0  0  0
   60.4063   27.7018   48.4029 C   0  0  0  0  0  0  0  0  0  0  0  0
   60.6199   28.2878   49.6529 C   0  0  0  0  0  0  0  0  0  0  0  0
   60.5228   29.6698   49.8022 C   0  0  0  0  0  0  0  0  0  0  0  0
   60.2115   30.4736   48.7039 C   0  0  0  0  0  0  0  0  0  0  0  0
   59.9887   29.8975   47.4407 C   0  0  0  0  0  0  0  0  0  0  0  0
   59.8297   27.8366   45.9511 C   0  0  0  0  0  0  0  0  0  0  0  0
   55.3451   24.5594   46.0949 O   0  0  0  0  0  0  0  0  0  0  0  0
   56.3720   25.2889   46.0759 C   0  0  0  0  0  0  0  0  0  0  0  0
   56.2417   26.6277   45.8789 N   0  0  0  0  0  0  0  0  0  0  0  0
   57.3165   27.4617   45.8482 C   0  0  0  0  0  0  0  0  0  0  0  0
   57.1246   28.8272   45.6525 O   0  0  0  0  0  0  0  0  0  0  0  0
   58.6146   26.9428   46.0211 C   0  0  0  0  0  0  0  0  0  0  0  0
   58.7599   25.5608   46.2284 C   0  0  0  0  0  0  0  0  0  0  0  0
   57.6399   24.7308   46.2551 C   0  0  0  0  0  0  0  0  0  0  0  0
   57.7908   23.3624   46.4564 O   0  0  0  0  0  0  0  0  0  0  0  0
   56.2590   29.1670   45.5380 H   0  0  0  0  0  0  0  0  0  0  0  0
   59.6635   30.7025   46.3000 N   0  0  0  0  0  0  0  0  0  0  0  0
   58.5560   32.0348   46.2779 S   0  0  0  0  0  0  0  0  0  0  0  0
   57.9934   32.2578   47.6542 O   0  0  0  0  0  0  0  0  0  0  0  0
   57.4418   31.7538   45.3089 O   0  0  0  0  0  0  0  0  0  0  0  0
   59.4295   33.4927   45.7365 C   0  0  0  0  0  0  0  0  0  0  0  0
   59.7430   34.4115   46.9199 C   0  0  0  0  0  0  0  0  0  0  0  0
   60.9888   33.9507   47.6289 C   0  0  0  0  0  0  0  0  0  0  0  0
   62.0637   33.4134   46.9017 C   0  0  0  0  0  0  0  0  0  0  0  0
   63.2040   32.9517   47.5693 C   0  0  0  0  0  0  0  0  0  0  0  0
   63.2727   33.0100   48.9628 C   0  0  0  0  0  0  0  0  0  0  0  0
   62.2015   33.5328   49.6937 C   0  0  0  0  0  0  0  0  0  0  0  0
   61.0625   34.0004   49.0315 C   0  0  0  0  0  0  0  0  0  0  0  0
  8  9  2  0
  9 10  1  0
 10 11  1  0
 11 12  1  0
 11 13  2  0
 13  7  1  0
  7  1  1  0
  1  2  2  0
  2  3  1  0
  3  4  2  0
  4  5  1  0
  5  6  2  0
  6 18  1  0
 18 19  1  0
 19 20  2  0
 19 21  2  0
 19 22  1  0
 22 23  1  0
 23 24  1  0
 24 25  2  0
 25 26  1  0
 26 27  2  0
 27 28  1  0
 28 29  2  0
 13 14  1  0
 14 15  2  0
 15 16  1  0
 15  9  1  0
  6  1  1  0
 29 24  1  0
 12 17  1  0
M  CHG 1  10  -1
M  CHG 1  16  -1
M  CHG 1  18  -1
M  END
> <UniqueID>
89

> <SMILES>
O=c1[n-]c(O)c(Cc2ccccc2[N-]S(=O)(=O)CCc2ccccc2)cc1[O-]

> <Energy>
42.8816078524376

> <Genealogy>
O=c1[n-]c(O)c(Cc2ccccc2[N-]S(=O)(=O)CCc2ccccc2)cc1[O-] (protonated)
O=c1[n-]c(O)c(Cc2ccccc2[N-]S(=O)(=O)CCc2ccccc2)cc1[O-] (3D coordinates assigned)
O=c1[n-]c(O)c(Cc2ccccc2[N-]S(=O)(=O)CCc2ccccc2)cc1[O-] (optimized conformer: 42.8816078524376 kcal/mol)

> <smiles>
O=c1[nH]c(O)c(Cc2ccccc2NS(=O)(=O)CCc2ccccc2)cc1O

> <score_type>
oracle

> <origin>
adg

> <m_score__min__energy>
-15.92

> <m_primary>
energy

> <minimizedAffinity>
-8.47438

> <minimizedRMSD>
1.52250

> <CNNscore>
0.9475260973

> <CNNaffinity>
6.9498252869

> <CNN_VS>
6.5851407051

> <CNNaffinity_variance>
0.0213114563

$$$$
32:0


 26 28  0  0  0  0  0  0  0  0999 V2000
   59.4427   31.5915   48.7246 C   0  0  0  0  0  0  0  0  0  0  0  0
   59.6293   32.9688   48.8729 C   0  0  0  0  0  0  0  0  0  0  0  0
   59.3743   33.8305   47.8055 C   0  0  0  0  0  0  0  0  0  0  0  0
   58.9069   33.3302   46.5822 C   0  0  0  0  0  0  0  0  0  0  0  0
   58.7068   31.9386   46.4206 C   0  0  0  0  0  0  0  0  0  0  0  0
   58.9984   31.0787   47.4998 C   0  0  0  0  0  0  0  0  0  0  0  0
   58.2321   31.4226   45.1513 N   0  0  0  0  0  0  0  0  0  0  0  0
   57.6944   30.0897   45.0326 C   0  0  0  0  0  0  0  0  0  0  0  0
   56.4612   29.8928   45.2137 O   0  0  0  0  0  0  0  0  0  0  0  0
   58.2763   32.2876   43.9666 C   0  0  0  0  0  0  0  0  0  0  0  0
   57.8298   33.7006   44.3325 C   0  0  0  0  0  0  0  0  0  0  0  0
   58.7326   34.2793   45.4235 C   0  0  0  0  0  0  0  0  0  0  0  0
   61.1357   29.4800   49.6227 N   0  0  0  0  0  0  0  0  0  0  0  0
   59.8090   30.4997   50.0564 S   0  0  0  0  0  0  0  0  0  0  0  0
   58.6054   29.6538   50.3636 O   0  0  0  0  0  0  0  0  0  0  0  0
   60.1661   31.2899   51.2844 O   0  0  0  0  0  0  0  0  0  0  0  0
   61.3460   28.8485   50.3957 H   0  0  0  0  0  0  0  0  0  0  0  0
   61.9541   30.0544   49.4207 H   0  0  0  0  0  0  0  0  0  0  0  0
   58.5769   28.9244   44.6880 C   0  0  0  0  0  0  0  0  0  0  0  0
   58.8157   28.0645   45.8911 C   0  0  0  0  0  0  0  0  0  0  0  0
   59.9082   28.1381   46.6702 N   0  0  0  0  0  0  0  0  0  0  0  0
   59.7032   27.1663   47.5867 C   0  0  0  0  0  0  0  0  0  0  0  0
   60.5236   26.9209   48.5097 O   0  0  0  0  0  0  0  0  0  0  0  0
   58.5514   26.4772   47.4351 N   0  0  0  0  0  0  0  0  0  0  0  0
   58.0035   27.0556   46.3561 C   0  0  0  0  0  0  0  0  0  0  0  0
   56.7877   26.6718   45.8045 O   0  0  0  0  0  0  0  0  0  0  0  0
 13 14  1  0
 14 15  2  0
 14 16  2  0
 14  1  1  0
  1  2  2  0
  2  3  1  0
  3  4  2  0
  4  5  1  0
  5  6  2  0
  5  7  1  0
  7  8  1  0
  8  9  2  0
  8 19  1  0
 19 20  1  0
 20 21  1  0
 21 22  1  0
 22 23  2  0
 22 24  1  0
 24 25  1  0
 25 26  1  0
  7 10  1  0
 10 11  1  0
 11 12  1  0
  6  1  1  0
 25 20  2  0
 12  4  1  0
 13 17  1  0
 13 18  1  0
M  CHG 1  21  -1
M  CHG 1  24  -1
M  CHG 1  26  -1
M  END
> <UniqueID>
31

> <SMILES>
NS(=O)(=O)c1ccc2c(c1)N(C(=O)Cc1[n-]c(=O)[n-]c1[O-])CCC2

> <Energy>
70.36815955940833

> <Genealogy>
NS(=O)(=O)c1ccc2c(c1)N(C(=O)Cc1[n-]c(=O)[n-]c1[O-])CCC2 (protonated)
NS(=O)(=O)c1ccc2c(c1)N(C(=O)Cc1[n-]c(=O)[n-]c1[O-])CCC2 (3D coordinates assigned)
NS(=O)(=O)c1ccc2c(c1)N(C(=O)Cc1[n-]c(=O)[n-]c1[O-])CCC2 (nonaromatic ring conformer: 70.36815955940833 kcal/mol)

> <smiles>
NS(=O)(=O)c1ccc2c(c1)N(C(=O)Cc1[nH]c(=O)[nH]c1O)CCC2

> <score_type>
oracle

> <origin>
adg

> <m_score__min__energy>
-14.26

> <m_primary>
energy

> <minimizedAffinity>
-7.17664

> <minimizedRMSD>
1.28283

> <CNNscore>
0.7409968376

> <CNNaffinity>
6.5146231651

> <CNN_VS>
4.8273153305

> <CNNaffinity_variance>
0.0758342892

$$$$
86:0


 24 26  0  0  0  0  0  0  0  0999 V2000
   56.1065   29.0859   53.5736 C   0  0  0  0  0  0  0  0  0  0  0  0
   56.0120   27.9257   54.3645 C   0  0  0  0  0  0  0  0  0  0  0  0
   54.8131   27.5981   55.0009 C   0  0  0  0  0  0  0  0  0  0  0  0
   53.6932   28.4184   54.8563 C   0  0  0  0  0  0  0  0  0  0  0  0
   53.7610   29.5712   54.0597 C   0  0  0  0  0  0  0  0  0  0  0  0
   54.9712   29.9056   53.4305 C   0  0  0  0  0  0  0  0  0  0  0  0
   57.3837   29.4419   52.9099 C   0  0  0  0  0  0  0  0  0  0  0  0
   58.4786   29.1924   53.4820 O   0  0  0  0  0  0  0  0  0  0  0  0
   57.3669   30.0554   51.6128 N   0  0  0  0  0  0  0  0  0  0  0  0
   58.0706   32.9734   52.3903 C   0  0  0  0  0  0  0  0  0  0  0  0
   58.7299   32.1357   51.3454 C   0  0  0  0  0  0  0  0  0  0  0  0
   59.8169   32.5188   50.6447 N   0  0  0  0  0  0  0  0  0  0  0  0
   60.1647   31.5028   49.8684 N   0  0  0  0  0  0  0  0  0  0  0  0
   61.3429   31.5055   49.0122 C   0  0  0  0  0  0  0  0  0  0  0  0
   59.3491   30.4496   50.0770 C   0  0  0  0  0  0  0  0  0  0  0  0
   58.4138   30.8330   51.0171 C   0  0  0  0  0  0  0  0  0  0  0  0
   52.5664   30.4767   53.9338 C   0  0  0  0  0  0  0  0  0  0  0  0
   52.1983   30.6434   52.4916 C   0  0  0  0  0  0  0  0  0  0  0  0
   52.4612   29.7342   51.5368 N   0  0  0  0  0  0  0  0  0  0  0  0
   51.8953   30.2707   50.4330 C   0  0  0  0  0  0  0  0  0  0  0  0
   51.9348   29.7075   49.3098 O   0  0  0  0  0  0  0  0  0  0  0  0
   51.2777   31.4559   50.6322 N   0  0  0  0  0  0  0  0  0  0  0  0
   51.4738   31.6729   51.9423 C   0  0  0  0  0  0  0  0  0  0  0  0
   50.9958   32.7865   52.6205 O   0  0  0  0  0  0  0  0  0  0  0  0
 10 11  1  0
 11 12  2  0
 12 13  1  0
 13 14  1  0
 13 15  1  0
 15 16  2  0
 16  9  1  0
  9  7  1  0
  7  8  2  0
  7  1  1  0
  1  2  2  0
  2  3  1  0
  3  4  2  0
  4  5  1  0
  5 17  1  0
 17 18  1  0
 18 19  1  0
 19 20  1  0
 20 21  2  0
 20 22  1  0
 22 23  1  0
 23 24  1  0
  5  6  2  0
 16 11  1  0
  6  1  1  0
 23 18  2  0
M  CHG 1   9  -1
M  CHG 1  19  -1
M  CHG 1  22  -1
M  CHG 1  24  -1
M  END
> <UniqueID>
81

> <SMILES>
Cc1nn(C)cc1[N-]C(=O)c1cccc(Cc2[n-]c(=O)[n-]c2[O-])c1

> <Energy>
97.79698716060959

> <Genealogy>
Cc1nn(C)cc1[N-]C(=O)c1cccc(Cc2[n-]c(=O)[n-]c2[O-])c1 (protonated)
Cc1nn(C)cc1[N-]C(=O)c1cccc(Cc2[n-]c(=O)[n-]c2[O-])c1 (3D coordinates assigned)
Cc1nn(C)cc1[N-]C(=O)c1cccc(Cc2[n-]c(=O)[n-]c2[O-])c1 (optimized conformer: 97.79698716060959 kcal/mol)

> <smiles>
Cc1nn(C)cc1NC(=O)c1cccc(Cc2[nH]c(=O)[nH]c2O)c1

> <score_type>
oracle

> <origin>
adg

> <m_score__min__energy>
-17.390000000000001

> <m_primary>
energy

> <minimizedAffinity>
-5.33152

> <minimizedRMSD>
1.23671

> <CNNscore>
0.1152551845

> <CNNaffinity>
4.4712214470

> <CNN_VS>
0.5153314471

> <CNNaffinity_variance>
0.1713313311

$$$$
7:0


 27 29  0  0  0  0  0  0  0  0999 V2000
   56.5640   22.9147   46.6068 C   0  0  0  0  0  0  0  0  0  0  0  0
   55.3025   23.4505   46.3149 C   0  0  0  0  0  0  0  0  0  0  0  0
   55.1734   24.7946   45.9605 C   0  0  0  0  0  0  0  0  0  0  0  0
   56.3020   25.6188   45.9007 C   0  0  0  0  0  0  0  0  0  0  0  0
   56.1673   26.9236   45.5549 N   0  0  0  0  0  0  0  0  0  0  0  0
   57.2291   27.7696   45.4926 C   0  0  0  0  0  0  0  0  0  0  0  0
   57.0126   29.0982   45.1471 O   0  0  0  0  0  0  0  0  0  0  0  0
   58.5235   27.3062   45.7924 C   0  0  0  0  0  0  0  0  0  0  0  0
   58.6958   25.9476   46.1311 C   0  0  0  0  0  0  0  0  0  0  0  0
   59.8521   25.4939   46.3567 O   0  0  0  0  0  0  0  0  0  0  0  0
   57.5790   25.0936   46.1995 C   0  0  0  0  0  0  0  0  0  0  0  0
   57.6983   23.7373   46.5540 C   0  0  0  0  0  0  0  0  0  0  0  0
   56.9568   21.1132   48.7793 N   0  0  0  0  0  0  0  0  0  0  0  0
   56.7248   21.2229   47.0707 S   0  0  0  0  0  0  0  0  0  0  0  0
   57.9006   20.6118   46.3614 O   0  0  0  0  0  0  0  0  0  0  0  0
   55.4843   20.4660   46.6877 O   0  0  0  0  0  0  0  0  0  0  0  0
   57.0499   20.1335   49.0476 H   0  0  0  0  0  0  0  0  0  0  0  0
   59.6784   28.2380   45.7413 C   0  0  0  0  0  0  0  0  0  0  0  0
   60.4890   28.1624   44.7811 O   0  0  0  0  0  0  0  0  0  0  0  0
   59.9314   29.1928   46.7808 N   0  0  0  0  0  0  0  0  0  0  0  0
   59.8140   30.6192   46.6712 C   0  0  0  0  0  0  0  0  0  0  0  0
   58.7419   31.2270   45.9927 C   0  0  0  0  0  0  0  0  0  0  0  0
   58.6636   32.6195   45.9015 C   0  0  0  0  0  0  0  0  0  0  0  0
   59.6623   33.4168   46.4720 C   0  0  0  0  0  0  0  0  0  0  0  0
   59.5536   35.3183   46.3470 Br  0  0  0  0  0  0  0  0  0  0  0  0
   60.7441   32.8182   47.1249 C   0  0  0  0  0  0  0  0  0  0  0  0
   60.8229   31.4247   47.2169 C   0  0  0  0  0  0  0  0  0  0  0  0
 13 14  1  0
 14 15  2  0
 14 16  2  0
 14  1  1  0
  1  2  2  0
  2  3  1  0
  3  4  2  0
  4  5  1  0
  5  6  1  0
  6  7  1  0
  6  8  2  0
  8 18  1  0
 18 19  2  0
 18 20  1  0
 20 21  1  0
 21 22  2  0
 22 23  1  0
 23 24  2  0
 24 25  1  0
 24 26  1  0
 26 27  2  0
  8  9  1  0
  9 10  2  0
  9 11  1  0
 11 12  2  0
 12  1  1  0
 11  4  1  0
 27 21  1  0
 13 17  1  0
M  CHG 1   5  -1
M  CHG 1   7  -1
M  CHG 1  13  -1
M  CHG 1  20  -1
M  END
> <UniqueID>
8

> <SMILES>
[NH-]S(=O)(=O)c1ccc2[n-]c([O-])c(C(=O)[N-]c3ccc(Br)cc3)c(=O)c2c1

> <Energy>
50.7001015618152

> <Genealogy>
[NH-]S(=O)(=O)c1ccc2[n-]c([O-])c(C(=O)[N-]c3ccc(Br)cc3)c(=O)c2c1 (protonated)
[NH-]S(=O)(=O)c1ccc2[n-]c([O-])c(C(=O)[N-]c3ccc(Br)cc3)c(=O)c2c1 (3D coordinates assigned)
[NH-]S(=O)(=O)c1ccc2[n-]c([O-])c(C(=O)[N-]c3ccc(Br)cc3)c(=O)c2c1 (optimized conformer: 50.7001015618152 kcal/mol)

> <smiles>
NS(=O)(=O)c1ccc2[nH]c(O)c(C(=O)Nc3ccc(Br)cc3)c(=O)c2c1

> <score_type>
oracle

> <origin>
adg

> <m_score__min__energy>
-14.74

> <m_primary>
energy

> <minimizedAffinity>
-6.19550

> <minimizedRMSD>
0.96452

> <CNNscore>
0.3890483677

> <CNNaffinity>
6.6340775490

> <CNN_VS>
2.5809769630

> <CNNaffinity_variance>
0.7563635707

$$$$
8:0


 25 26  0  0  0  0  0  0  0  0999 V2000
   57.0271   29.6100   44.7708 C   0  0  0  0  0  0  0  0  0  0  0  0
   55.7696   29.5671   44.7246 O   0  0  0  0  0  0  0  0  0  0  0  0
   57.6526   30.7767   45.3251 N   0  0  0  0  0  0  0  0  0  0  0  0
   57.9046   32.0327   44.6251 C   0  0  0  0  0  0  0  0  0  0  0  0
   57.1911   33.2437   46.5563 O   0  0  0  0  0  0  0  0  0  0  0  0
   58.0125   33.1601   45.6032 C   0  0  0  0  0  0  0  0  0  0  0  0
   59.0468   34.1358   45.4504 N   0  0  0  0  0  0  0  0  0  0  0  0
   59.5333   34.9629   46.5469 C   0  0  0  0  0  0  0  0  0  0  0  0
   60.4723   34.1636   47.4101 C   0  0  0  0  0  0  0  0  0  0  0  0
   60.2337   34.0518   48.7904 C   0  0  0  0  0  0  0  0  0  0  0  0
   61.0797   33.2777   49.5905 C   0  0  0  0  0  0  0  0  0  0  0  0
   62.1615   32.6044   49.0174 C   0  0  0  0  0  0  0  0  0  0  0  0
   62.3957   32.6974   47.6434 C   0  0  0  0  0  0  0  0  0  0  0  0
   61.5528   33.4718   46.8394 C   0  0  0  0  0  0  0  0  0  0  0  0
   57.8148   28.4397   44.2395 C   0  0  0  0  0  0  0  0  0  0  0  0
   58.6240   27.8541   45.3044 N   0  0  0  0  0  0  0  0  0  0  0  0
   58.1494   26.9204   46.2828 C   0  0  0  0  0  0  0  0  0  0  0  0
   58.1049   27.2734   47.4899 O   0  0  0  0  0  0  0  0  0  0  0  0
   57.7168   25.5581   45.9173 C   0  0  0  0  0  0  0  0  0  0  0  0
   58.6814   24.5695   45.6656 C   0  0  0  0  0  0  0  0  0  0  0  0
   58.2903   23.2740   45.3190 C   0  0  0  0  0  0  0  0  0  0  0  0
   56.9325   22.9502   45.2392 C   0  0  0  0  0  0  0  0  0  0  0  0
   55.9662   23.9195   45.5156 C   0  0  0  0  0  0  0  0  0  0  0  0
   56.3508   25.2205   45.8607 C   0  0  0  0  0  0  0  0  0  0  0  0
   55.3731   26.1633   46.1635 O   0  0  0  0  0  0  0  0  0  0  0  0
  5  6  2  0
  6  4  1  0
  4  3  1  0
  3  1  1  0
  1  2  2  0
  1 15  1  0
 15 16  1  0
 16 17  1  0
 17 18  2  0
 17 19  1  0
 19 20  2  0
 20 21  1  0
 21 22  2  0
 22 23  1  0
 23 24  2  0
 24 25  1  0
  6  7  1  0
  7  8  1  0
  8  9  1  0
  9 10  2  0
 10 11  1  0
 11 12  2  0
 12 13  1  0
 13 14  2  0
 24 19  1  0
 14  9  1  0
M  CHG 1   3  -1
M  CHG 1   7  -1
M  CHG 1  16  -1
M  CHG 1  25  -1
M  END
> <UniqueID>
9

> <SMILES>
O=C(C[N-]C(=O)C[N-]C(=O)c1ccccc1[O-])[N-]Cc1ccccc1

> <Energy>
37.55108874249747

> <Genealogy>
O=C(C[N-]C(=O)C[N-]C(=O)c1ccccc1[O-])[N-]Cc1ccccc1 (protonated)
O=C(C[N-]C(=O)C[N-]C(=O)c1ccccc1[O-])[N-]Cc1ccccc1 (3D coordinates assigned)
O=C(C[N-]C(=O)C[N-]C(=O)c1ccccc1[O-])[N-]Cc1ccccc1 (optimized conformer: 37.55108874249747 kcal/mol)

> <smiles>
O=C(CNC(=O)CNC(=O)c1ccccc1O)NCc1ccccc1

> <score_type>
oracle

> <origin>
adg

> <m_score__min__energy>
-15.720000000000001

> <m_primary>
energy

> <minimizedAffinity>
-7.26836

> <minimizedRMSD>
0.96008

> <CNNscore>
0.7593978047

> <CNNaffinity>
6.1880717278

> <CNN_VS>
4.6992082596

> <CNNaffinity_variance>
0.1368406266

$$$$
13:0


 36 39  0  0  0  0  0  0  0  0999 V2000
   58.0443   30.9751   53.1632 C   0  0  0  0  0  0  0  0  0  0  0  0
   59.3645   30.5577   52.9509 C   0  0  0  0  0  0  0  0  0  0  0  0
   60.2391   31.3434   52.1997 C   0  0  0  0  0  0  0  0  0  0  0  0
   59.8026   32.5618   51.6545 C   0  0  0  0  0  0  0  0  0  0  0  0
   58.4934   33.0030   51.9098 C   0  0  0  0  0  0  0  0  0  0  0  0
   57.6199   32.2162   52.6647 C   0  0  0  0  0  0  0  0  0  0  0  0
   56.8936   29.8446   53.8678 S   0  0  0  0  0  0  0  0  0  0  0  0
   57.6291   28.6345   54.3687 O   0  0  0  0  0  0  0  0  0  0  0  0
   56.1426   30.4715   55.0085 O   0  0  0  0  0  0  0  0  0  0  0  0
   55.7745   29.3818   52.6230 N   0  0  0  0  0  0  0  0  0  0  0  0
   52.2424   30.5852   52.3318 C   0  0  0  0  0  0  0  0  0  0  0  0
   51.5738   29.6464   53.1398 C   0  0  0  0  0  0  0  0  0  0  0  0
   52.2786   28.6148   53.7582 C   0  0  0  0  0  0  0  0  0  0  0  0
   53.6596   28.5065   53.5813 C   0  0  0  0  0  0  0  0  0  0  0  0
   54.3495   29.4369   52.7841 C   0  0  0  0  0  0  0  0  0  0  0  0
   53.6346   30.4605   52.1496 C   0  0  0  0  0  0  0  0  0  0  0  0
   51.3546   31.7620   50.2835 N   0  0  0  0  0  0  0  0  0  0  0  0
   51.4937   31.6980   51.7005 C   0  0  0  0  0  0  0  0  0  0  0  0
   50.9661   32.5960   52.4138 O   0  0  0  0  0  0  0  0  0  0  0  0
   50.8561   32.5039   49.8708 H   0  0  0  0  0  0  0  0  0  0  0  0
   60.6628   33.3006   50.6687 C   0  0  0  0  0  0  0  0  0  0  0  0
   60.2298   32.9764   49.3108 N   0  0  0  0  0  0  0  0  0  0  0  0
   60.6823   31.7985   48.6276 C   0  0  0  0  0  0  0  0  0  0  0  0
   61.7500   31.2385   48.9938 O   0  0  0  0  0  0  0  0  0  0  0  0
   59.6081   33.5854   48.8505 H   0  0  0  0  0  0  0  0  0  0  0  0
   59.8969   31.2331   47.5110 C   0  0  0  0  0  0  0  0  0  0  0  0
   59.1089   32.0568   46.6866 C   0  0  0  0  0  0  0  0  0  0  0  0
   58.3919   31.4963   45.6237 C   0  0  0  0  0  0  0  0  0  0  0  0
   57.6856   32.2434   44.8943 O   0  0  0  0  0  0  0  0  0  0  0  0
   58.4726   30.1133   45.3792 C   0  0  0  0  0  0  0  0  0  0  0  0
   57.7796   29.5012   44.3177 C   0  0  0  0  0  0  0  0  0  0  0  0
   57.8896   28.1227   44.1105 C   0  0  0  0  0  0  0  0  0  0  0  0
   58.6874   27.3457   44.9569 C   0  0  0  0  0  0  0  0  0  0  0  0
   59.3815   27.9425   46.0113 C   0  0  0  0  0  0  0  0  0  0  0  0
   59.2782   29.3221   46.2292 C   0  0  0  0  0  0  0  0  0  0  0  0
   59.9580   29.8979   47.2551 N   0  0  0  0  0  0  0  0  0  0  0  0
 17 18  1  0
 18 19  2  0
 18 11  1  0
 11 12  2  0
 12 13  1  0
 13 14  2  0
 14 15  1  0
 15 10  1  0
 10  7  1  0
  7  8  2  0
  7  9  2  0
  7  1  1  0
  1  2  2  0
  2  3  1  0
  3  4  2  0
  4 21  1  0
 21 22  1  0
 22 23  1  0
 23 24  2  0
 23 26  1  0
 26 27  2  0
 27 28  1  0
 28 29  2  0
 28 30  1  0
 30 31  2  0
 31 32  1  0
 32 33  2  0
 33 34  1  0
 34 35  2  0
 35 36  1  0
  4  5  1  0
  5  6  2  0
 15 16  2  0
 16 11  1  0
  6  1  1  0
 36 26  1  0
 35 30  1  0
 17 20  1  0
 22 25  1  0
M  CHG 1  10  -1
M  CHG 1  17  -1
M  CHG 1  36  -1
M  END
> <UniqueID>
13

> <SMILES>
[NH-]C(=O)c1cccc([N-]S(=O)(=O)c2ccc(CNC(=O)c3cc(=O)c4ccccc4[n-]3)cc2)c1

> <Energy>
59.52325819564948

> <Genealogy>
[NH-]C(=O)c1cccc([N-]S(=O)(=O)c2ccc(CNC(=O)c3cc(=O)c4ccccc4[n-]3)cc2)c1 (protonated)
[NH-]C(=O)c1cccc([N-]S(=O)(=O)c2ccc(CNC(=O)c3cc(=O)c4ccccc4[n-]3)cc2)c1 (3D coordinates assigned)
[NH-]C(=O)c1cccc([N-]S(=O)(=O)c2ccc(CNC(=O)c3cc(=O)c4ccccc4[n-]3)cc2)c1 (optimized conformer: 59.52325819564948 kcal/mol)

> <smiles>
NC(=O)c1cccc(NS(=O)(=O)c2ccc(CNC(=O)c3cc(=O)c4ccccc4[nH]3)cc2)c1

> <score_type>
oracle

> <origin>
adg

> <m_score__min__energy>
-15.27

> <m_primary>
energy

> <minimizedAffinity>
-8.58668

> <minimizedRMSD>
1.32056

> <CNNscore>
0.3671544492

> <CNNaffinity>
6.6234111786

> <CNN_VS>
2.4318149090

> <CNNaffinity_variance>
0.1806180924

$$$$
21:0


 22 23  0  0  0  0  0  0  0  0999 V2000
   56.3285   29.0499   45.0764 O   0  0  0  0  0  0  0  0  0  0  0  0
   57.5211   28.9327   45.4630 C   0  0  0  0  0  0  0  0  0  0  0  0
   57.9579   27.6233   46.0690 C   0  0  0  0  0  0  0  0  0  0  0  0
   57.7847   26.4550   45.0902 C   0  0  0  0  0  0  0  0  0  0  0  0
   57.2905   25.2061   45.7862 C   0  0  0  0  0  0  0  0  0  0  0  0
   55.9545   25.0891   46.2084 C   0  0  0  0  0  0  0  0  0  0  0  0
   55.0571   26.1362   46.0337 O   0  0  0  0  0  0  0  0  0  0  0  0
   55.5254   23.9412   46.7945 N   0  0  0  0  0  0  0  0  0  0  0  0
   56.3641   22.8912   46.9793 C   0  0  0  0  0  0  0  0  0  0  0  0
   55.9435   21.8382   47.5240 O   0  0  0  0  0  0  0  0  0  0  0  0
   57.6560   22.9738   46.5722 N   0  0  0  0  0  0  0  0  0  0  0  0
   58.1368   24.0973   45.9805 C   0  0  0  0  0  0  0  0  0  0  0  0
   59.3394   24.1315   45.6068 O   0  0  0  0  0  0  0  0  0  0  0  0
   58.4169   30.0354   45.2697 N   0  0  0  0  0  0  0  0  0  0  0  0
   58.0434   31.4383   45.1054 C   0  0  0  0  0  0  0  0  0  0  0  0
   58.8725   32.3254   45.9954 C   0  0  0  0  0  0  0  0  0  0  0  0
   58.6282   33.7082   46.0407 C   0  0  0  0  0  0  0  0  0  0  0  0
   59.4117   34.5359   46.8530 C   0  0  0  0  0  0  0  0  0  0  0  0
   60.4477   33.9911   47.6173 C   0  0  0  0  0  0  0  0  0  0  0  0
   60.7069   32.6178   47.5659 C   0  0  0  0  0  0  0  0  0  0  0  0
   62.1270   31.8744   48.6040 Br  0  0  0  0  0  0  0  0  0  0  0  0
   59.9277   31.7877   46.7525 C   0  0  0  0  0  0  0  0  0  0  0  0
  1  2  2  0
  2  3  1  0
  3  4  1  0
  4  5  1  0
  5  6  2  0
  6  7  1  0
  6  8  1  0
  8  9  1  0
  9 10  2  0
  9 11  1  0
 11 12  1  0
 12 13  2  0
  2 14  1  0
 14 15  1  0
 15 16  1  0
 16 17  2  0
 17 18  1  0
 18 19  2  0
 19 20  1  0
 20 21  1  0
 20 22  2  0
 12  5  1  0
 22 16  1  0
M  CHG 1   7  -1
M  CHG 1   8  -1
M  CHG 1  11  -1
M  CHG 1  14  -1
M  END
> <UniqueID>
21

> <SMILES>
O=C(CCc1c([O-])[n-]c(=O)[n-]c1=O)[N-]Cc1cccc(Br)c1

> <Energy>
29.412437390317887

> <Genealogy>
O=C(CCc1c([O-])[n-]c(=O)[n-]c1=O)[N-]Cc1cccc(Br)c1 (protonated)
O=C(CCc1c([O-])[n-]c(=O)[n-]c1=O)[N-]Cc1cccc(Br)c1 (3D coordinates assigned)
O=C(CCc1c([O-])[n-]c(=O)[n-]c1=O)[N-]Cc1cccc(Br)c1 (optimized conformer: 29.412437390317887 kcal/mol)

> <smiles>
O=C(CCc1c(O)[nH]c(=O)[nH]c1=O)NCc1cccc(Br)c1

> <score_type>
oracle

> <origin>
adg

> <m_score__min__energy>
-17.039999999999999

> <m_primary>
energy

> <minimizedAffinity>
-6.70039

> <minimizedRMSD>
1.26885

> <CNNscore>
0.5540187359

> <CNNaffinity>
6.4415378571

> <CNN_VS>
3.5687327385

> <CNNaffinity_variance>
0.5909846425

$$$$
52:0


 32 34  0  0  0  0  0  0  0  0999 V2000
   56.5764   25.9344   45.8143 N   0  0  0  0  0  0  0  0  0  0  0  0
   57.7306   26.7865   45.9164 C   0  0  0  0  0  0  0  0  0  0  0  0
   58.9585   26.3012   46.4008 C   0  0  0  0  0  0  0  0  0  0  0  0
   60.0443   27.1643   46.5582 C   0  0  0  0  0  0  0  0  0  0  0  0
   59.9145   28.5189   46.2491 C   0  0  0  0  0  0  0  0  0  0  0  0
   58.6918   29.0243   45.7782 C   0  0  0  0  0  0  0  0  0  0  0  0
   57.5952   28.1533   45.6201 C   0  0  0  0  0  0  0  0  0  0  0  0
   56.3662   28.6327   45.1729 O   0  0  0  0  0  0  0  0  0  0  0  0
   58.5569   30.7563   45.4591 S   0  0  0  0  0  0  0  0  0  0  0  0
   57.1475   31.2272   45.7064 O   0  0  0  0  0  0  0  0  0  0  0  0
   58.8862   30.9997   44.0084 O   0  0  0  0  0  0  0  0  0  0  0  0
   59.6945   31.6037   46.4950 N   0  0  0  0  0  0  0  0  0  0  0  0
   59.3399   31.4837   47.9254 C   0  0  0  0  0  0  0  0  0  0  0  0
   58.5129   32.6846   48.4341 C   0  0  0  0  0  0  0  0  0  0  0  0
   57.7565   33.2434   47.3821 O   0  0  0  0  0  0  0  0  0  0  0  0
   58.6171   33.8609   46.4365 C   0  0  0  0  0  0  0  0  0  0  0  0
   59.8636   33.0115   46.0967 C   0  0  0  0  0  0  0  0  0  0  0  0
   56.4639   24.6049   46.3398 C   0  0  0  0  0  0  0  0  0  0  0  0
   56.2693   24.4351   47.5735 O   0  0  0  0  0  0  0  0  0  0  0  0
   56.3833   22.1003   45.8560 C   0  0  0  0  0  0  0  0  0  0  0  0
   56.4296   21.0523   44.9214 C   0  0  0  0  0  0  0  0  0  0  0  0
   56.6608   21.3152   43.5694 C   0  0  0  0  0  0  0  0  0  0  0  0
   56.8578   22.6251   43.1366 C   0  0  0  0  0  0  0  0  0  0  0  0
   56.8171   23.6789   44.0540 C   0  0  0  0  0  0  0  0  0  0  0  0
   56.5750   23.4393   45.4218 C   0  0  0  0  0  0  0  0  0  0  0  0
   54.8768   21.4662   47.8037 N   0  0  0  0  0  0  0  0  0  0  0  0
   56.1883   21.7467   47.2765 C   0  0  0  0  0  0  0  0  0  0  0  0
   57.1994   21.6699   48.0297 O   0  0  0  0  0  0  0  0  0  0  0  0
   54.3573   21.3436   50.2118 C   0  0  0  0  0  0  0  0  0  0  0  0
   54.7298   20.5610   48.9519 C   0  0  0  0  0  0  0  0  0  0  0  0
   53.6949   22.1824   47.2928 C   0  0  0  0  0  0  0  0  0  0  0  0
   52.6897   21.2121   46.6694 C   0  0  0  0  0  0  0  0  0  0  0  0
 29 30  1  0
 30 26  1  0
 26 31  1  0
 31 32  1  0
 26 27  1  0
 27 28  2  0
 27 20  1  0
 20 21  2  0
 21 22  1  0
 22 23  2  0
 23 24  1  0
 24 25  2  0
 25 18  1  0
 18 19  2  0
 18  1  1  0
  1  2  1  0
  2  3  2  0
  3  4  1  0
  4  5  2  0
  5  6  1  0
  6  9  1  0
  9 10  2  0
  9 11  2  0
  9 12  1  0
 12 13  1  0
 13 14  1  0
 14 15  1  0
 15 16  1  0
 16 17  1  0
  6  7  2  0
  7  8  1  0
 25 20  1  0
  7  2  1  0
 17 12  1  0
M  CHG 1   1  -1
M  CHG 1   8  -1
M  END
> <UniqueID>
50

> <SMILES>
CCN(CC)C(=O)c1ccccc1C(=O)[N-]c1cccc(S(=O)(=O)N2CCOCC2)c1[O-]

> <Energy>
79.32239576889411

> <Genealogy>
CCN(CC)C(=O)c1ccccc1C(=O)[N-]c1cccc(S(=O)(=O)N2CCOCC2)c1[O-] (protonated)
CCN(CC)C(=O)c1ccccc1C(=O)[N-]c1cccc(S(=O)(=O)N2CCOCC2)c1[O-] (3D coordinates assigned)
CCN(CC)C(=O)c1ccccc1C(=O)[N-]c1cccc(S(=O)(=O)N2CCOCC2)c1[O-] (nonaromatic ring conformer: 79.32239576889411 kcal/mol)

> <smiles>
CCN(CC)C(=O)c1ccccc1C(=O)Nc1cccc(S(=O)(=O)N2CCOCC2)c1O

> <score_type>
oracle

> <origin>
adg

> <m_score__min__energy>
-15.199999999999999

> <m_primary>
energy

> <minimizedAffinity>
-6.45968

> <minimizedRMSD>
1.28327

> <CNNscore>
0.3421899676

> <CNNaffinity>
6.0087437630

> <CNN_VS>
2.0561318398

> <CNNaffinity_variance>
0.0230495129

$$$$
91:0


 31 33  0  0  0  0  0  0  0  0999 V2000
   60.4096   30.3887   48.6067 N   0  0  0  0  0  0  0  0  0  0  0  0
   60.8854   29.6777   49.5961 C   0  0  0  0  0  0  0  0  0  0  0  0
   60.5387   28.3260   49.8102 C   0  0  0  0  0  0  0  0  0  0  0  0
   61.0841   27.6329   50.8917 C   0  0  0  0  0  0  0  0  0  0  0  0
   61.9570   28.2481   51.7285 N   0  0  0  0  0  0  0  0  0  0  0  0
   62.3256   29.5412   51.5480 C   0  0  0  0  0  0  0  0  0  0  0  0
   61.8041   30.2845   50.4795 C   0  0  0  0  0  0  0  0  0  0  0  0
   62.3096   31.9685   50.2629 S   0  0  0  0  0  0  0  0  0  0  0  0
   63.0943   32.0854   48.9870 O   0  0  0  0  0  0  0  0  0  0  0  0
   63.1725   32.4088   51.4122 O   0  0  0  0  0  0  0  0  0  0  0  0
   60.9194   32.9956   50.1789 N   0  0  0  0  0  0  0  0  0  0  0  0
   61.0248   33.7313   49.0404 O   0  0  0  0  0  0  0  0  0  0  0  0
   59.7646   34.3164   48.8186 C   0  0  0  0  0  0  0  0  0  0  0  0
   59.2722   34.0254   47.4259 C   0  0  0  0  0  0  0  0  0  0  0  0
   59.7561   34.7645   46.3332 C   0  0  0  0  0  0  0  0  0  0  0  0
   59.2788   34.5075   45.0438 C   0  0  0  0  0  0  0  0  0  0  0  0
   58.3089   33.5226   44.8382 C   0  0  0  0  0  0  0  0  0  0  0  0
   57.8122   32.7949   45.9225 C   0  0  0  0  0  0  0  0  0  0  0  0
   58.2875   33.0470   47.2144 C   0  0  0  0  0  0  0  0  0  0  0  0
   60.9357   30.6485   47.2941 C   0  0  0  0  0  0  0  0  0  0  0  0
   61.5030   31.7399   47.0201 O   0  0  0  0  0  0  0  0  0  0  0  0
   60.8309   29.5781   46.2823 C   0  0  0  0  0  0  0  0  0  0  0  0
   59.6927   29.1356   45.7255 C   0  0  0  0  0  0  0  0  0  0  0  0
   59.0348   27.8514   46.0424 C   0  0  0  0  0  0  0  0  0  0  0  0
   59.8237   26.7715   46.4645 C   0  0  0  0  0  0  0  0  0  0  0  0
   59.2343   25.5353   46.7454 C   0  0  0  0  0  0  0  0  0  0  0  0
   57.8582   25.3622   46.5870 C   0  0  0  0  0  0  0  0  0  0  0  0
   57.0664   26.4235   46.1374 C   0  0  0  0  0  0  0  0  0  0  0  0
   55.6981   26.2395   45.9675 O   0  0  0  0  0  0  0  0  0  0  0  0
   57.6489   27.6647   45.8550 C   0  0  0  0  0  0  0  0  0  0  0  0
   56.8541   28.7014   45.3767 O   0  0  0  0  0  0  0  0  0  0  0  0
 22 20  1  0
 20 21  2  0
 20  1  1  0
  1  2  2  0
  2  3  1  0
  3  4  2  0
  4  5  1  0
  5  6  1  0
  6  7  2  0
  7  8  1  0
  8  9  2  0
  8 10  2  0
  8 11  1  0
 11 12  1  0
 12 13  1  0
 13 14  1  0
 14 15  2  0
 15 16  1  0
 16 17  2  0
 17 18  1  0
 18 19  2  0
 22 23  2  0
 23 24  1  0
 24 25  2  0
 25 26  1  0
 26 27  2  0
 27 28  1  0
 28 29  1  0
 28 30  2  0
 30 31  1  0
  7  2  1  0
 19 14  1  0
 30 24  1  0
M  CHG 1   5  -1
M  CHG 1  11  -1
M  CHG 1  29  -1
M  CHG 1  31  -1
M  END
> <UniqueID>
87

> <SMILES>
O=C(C=Cc1cccc([O-])c1[O-])/N=c1\cc[n-]cc1S(=O)(=O)[N-]OCc1ccccc1

> <Energy>
63.27245747290762

> <Genealogy>
O=C(C=Cc1cccc([O-])c1[O-])N=c1cc[n-]cc1S(=O)(=O)[N-]OCc1ccccc1 (protonated)
O=C(C=Cc1cccc([O-])c1[O-])/N=c1\cc[n-]cc1S(=O)(=O)[N-]OCc1ccccc1 (cis-trans isomerization)
O=C(C=Cc1cccc([O-])c1[O-])/N=c1\cc[n-]cc1S(=O)(=O)[N-]OCc1ccccc1 (3D coordinates assigned)
O=C(C=Cc1cccc([O-])c1[O-])/N=c1\cc[n-]cc1S(=O)(=O)[N-]OCc1ccccc1 (optimized conformer: 63.27245747290762 kcal/mol)

> <smiles>
O=C(C=Cc1cccc(O)c1O)N=c1cc[nH]cc1S(=O)(=O)NOCc1ccccc1

> <score_type>
oracle

> <origin>
adg

> <m_score__min__energy>
-17.98

> <m_primary>
energy

> <minimizedAffinity>
-7.63191

> <minimizedRMSD>
1.02763

> <CNNscore>
0.5381565690

> <CNNaffinity>
6.7093348503

> <CNN_VS>
3.6106727123

> <CNNaffinity_variance>
0.0009580599

$$$$
8:0


 28 29  0  0  0  0  0  0  0  0999 V2000
   57.6799   27.5679   45.5936 C   0  0  0  0  0  0  0  0  0  0  0  0
   58.9917   27.1496   45.8686 C   0  0  0  0  0  0  0  0  0  0  0  0
   60.0475   28.0592   45.7978 C   0  0  0  0  0  0  0  0  0  0  0  0
   59.8015   29.3962   45.4833 C   0  0  0  0  0  0  0  0  0  0  0  0
   58.4921   29.8441   45.2534 C   0  0  0  0  0  0  0  0  0  0  0  0
   57.4297   28.9183   45.3049 C   0  0  0  0  0  0  0  0  0  0  0  0
   56.1222   29.3267   45.0576 O   0  0  0  0  0  0  0  0  0  0  0  0
   58.2151   31.5576   44.8966 S   0  0  0  0  0  0  0  0  0  0  0  0
   58.2215   31.7514   43.4054 O   0  0  0  0  0  0  0  0  0  0  0  0
   56.8641   31.9734   45.4077 O   0  0  0  0  0  0  0  0  0  0  0  0
   59.4412   32.5835   45.6116 N   0  0  0  0  0  0  0  0  0  0  0  0
   59.3007   33.9925   45.1863 C   0  0  0  0  0  0  0  0  0  0  0  0
   58.6836   34.8684   46.2909 C   0  0  0  0  0  0  0  0  0  0  0  0
   59.4353   34.8668   47.4975 O   0  0  0  0  0  0  0  0  0  0  0  0
   60.1154   33.6425   47.7493 C   0  0  0  0  0  0  0  0  0  0  0  0
   59.4671   32.4220   47.0780 C   0  0  0  0  0  0  0  0  0  0  0  0
   56.5760   26.6555   45.6780 N   0  0  0  0  0  0  0  0  0  0  0  0
   56.6491   25.2308   45.8335 C   0  0  0  0  0  0  0  0  0  0  0  0
   56.3068   24.7215   46.9331 O   0  0  0  0  0  0  0  0  0  0  0  0
   57.0505   24.3226   44.7048 C   0  0  0  0  0  0  0  0  0  0  0  0
   57.6318   21.9492   45.3434 C   0  0  0  0  0  0  0  0  0  0  0  0
   58.8563   22.2497   45.4085 O   0  0  0  0  0  0  0  0  0  0  0  0
   56.6644   22.9409   44.9857 N   0  0  0  0  0  0  0  0  0  0  0  0
   55.7151   22.6865   44.9273 H   0  0  0  0  0  0  0  0  0  0  0  0
   57.2070   20.6475   45.6203 O   0  0  0  0  0  0  0  0  0  0  0  0
   57.1881   20.1094   46.9383 C   0  0  0  0  0  0  0  0  0  0  0  0
   56.3963   21.5773   48.7620 C   0  0  0  0  0  0  0  0  0  0  0  0
   56.1074   20.7707   47.7386 C   0  0  0  0  0  0  0  0  0  0  0  0
 27 28  2  0
 28 26  1  0
 26 25  1  0
 25 21  1  0
 21 22  2  0
 21 23  1  0
 23 20  1  0
 20 18  1  0
 18 19  2  0
 18 17  1  0
 17  1  1  0
  1  2  2  0
  2  3  1  0
  3  4  2  0
  4  5  1  0
  5  8  1  0
  8  9  2  0
  8 10  2  0
  8 11  1  0
 11 12  1  0
 12 13  1  0
 13 14  1  0
 14 15  1  0
 15 16  1  0
  5  6  2  0
  6  7  1  0
  6  1  1  0
 16 11  1  0
 23 24  1  0
M  CHG 1   7  -1
M  CHG 1  17  -1
M  END
> <UniqueID>
9

> <SMILES>
C=CCOC(=O)NCC(=O)[N-]c1cccc(S(=O)(=O)N2CCOCC2)c1[O-]

> <Energy>
55.13929311433277

> <Genealogy>
C=CCOC(=O)NCC(=O)[N-]c1cccc(S(=O)(=O)N2CCOCC2)c1[O-] (protonated)
C=CCOC(=O)NCC(=O)[N-]c1cccc(S(=O)(=O)N2CCOCC2)c1[O-] (3D coordinates assigned)
C=CCOC(=O)NCC(=O)[N-]c1cccc(S(=O)(=O)N2CCOCC2)c1[O-] (nonaromatic ring conformer: 55.13929311433277 kcal/mol)

> <smiles>
C=CCOC(=O)NCC(=O)Nc1cccc(S(=O)(=O)N2CCOCC2)c1O

> <score_type>
oracle

> <origin>
adg

> <m_score__min__energy>
-14.1

> <m_primary>
energy

> <minimizedAffinity>
-6.02410

> <minimizedRMSD>
1.61548

> <CNNscore>
0.3529744148

> <CNNaffinity>
6.1480674744

> <CNN_VS>
2.1701104641

> <CNNaffinity_variance>
0.2746703029

$$$$
57:0


 24 26  0  0  0  0  0  0  0  0999 V2000
   56.2322   29.3066   54.6024 N   0  0  0  0  0  0  0  0  0  0  0  0
   55.1044   29.6248   54.0342 C   0  0  0  0  0  0  0  0  0  0  0  0
   54.9140   29.6976   52.3705 S   0  0  0  0  0  0  0  0  0  0  0  0
   53.2998   30.1806   52.4561 C   0  0  0  0  0  0  0  0  0  0  0  0
   52.9557   30.2829   53.8132 C   0  0  0  0  0  0  0  0  0  0  0  0
   51.6045   30.7059   54.3089 C   0  0  0  0  0  0  0  0  0  0  0  0
   53.9653   29.9767   54.6784 N   0  0  0  0  0  0  0  0  0  0  0  0
   53.8764   30.0078   55.6583 H   0  0  0  0  0  0  0  0  0  0  0  0
   52.4348   30.4517   51.2855 C   0  0  0  0  0  0  0  0  0  0  0  0
   52.2902   29.6184   50.2393 N   0  0  0  0  0  0  0  0  0  0  0  0
   51.4239   30.2661   49.4320 C   0  0  0  0  0  0  0  0  0  0  0  0
   51.0376   29.7904   48.3325 O   0  0  0  0  0  0  0  0  0  0  0  0
   51.0058   31.4610   49.8950 N   0  0  0  0  0  0  0  0  0  0  0  0
   51.6522   31.5670   51.0669 C   0  0  0  0  0  0  0  0  0  0  0  0
   51.5260   32.6608   51.9133 O   0  0  0  0  0  0  0  0  0  0  0  0
   57.5695   29.5939   54.1577 C   0  0  0  0  0  0  0  0  0  0  0  0
   58.3380   28.6645   53.7902 O   0  0  0  0  0  0  0  0  0  0  0  0
   59.0138   32.9771   55.0928 C   0  0  0  0  0  0  0  0  0  0  0  0
   58.5815   31.6506   55.1846 C   0  0  0  0  0  0  0  0  0  0  0  0
   58.0258   31.0011   54.0670 C   0  0  0  0  0  0  0  0  0  0  0  0
   57.9146   31.7115   52.8551 C   0  0  0  0  0  0  0  0  0  0  0  0
   58.3477   33.0388   52.7678 C   0  0  0  0  0  0  0  0  0  0  0  0
   58.8958   33.6712   53.8864 C   0  0  0  0  0  0  0  0  0  0  0  0
   59.3147   34.9583   53.7996 F   0  0  0  0  0  0  0  0  0  0  0  0
 18 19  2  0
 19 20  1  0
 20 16  1  0
 16 17  2  0
 16  1  1  0
  1  2  2  0
  2  3  1  0
  3  4  1  0
  4  9  1  0
  9 10  1  0
 10 11  1  0
 11 12  2  0
 11 13  1  0
 13 14  1  0
 14 15  1  0
  4  5  2  0
  5  6  1  0
  5  7  1  0
 20 21  2  0
 21 22  1  0
 22 23  2  0
 23 24  1  0
 23 18  1  0
  7  2  1  0
 14  9  2  0
  7  8  1  0
M  CHG 1  10  -1
M  CHG 1  13  -1
M  CHG 1  15  -1
M  END
> <UniqueID>
57

> <SMILES>
Cc1[nH]/c(=N\C(=O)c2ccc(F)cc2)sc1-c1[n-]c(=O)[n-]c1[O-]

> <Energy>
99.56248796530332

> <Genealogy>
Cc1[nH]c(=NC(=O)c2ccc(F)cc2)sc1-c1[n-]c(=O)[n-]c1[O-] (protonated)
Cc1[nH]/c(=N\C(=O)c2ccc(F)cc2)sc1-c1[n-]c(=O)[n-]c1[O-] (cis-trans isomerization)
Cc1[nH]/c(=N\C(=O)c2ccc(F)cc2)sc1-c1[n-]c(=O)[n-]c1[O-] (3D coordinates assigned)
Cc1[nH]/c(=N\C(=O)c2ccc(F)cc2)sc1-c1[n-]c(=O)[n-]c1[O-] (optimized conformer: 99.56248796530332 kcal/mol)

> <smiles>
Cc1[nH]c(=NC(=O)c2ccc(F)cc2)sc1-c1[nH]c(=O)[nH]c1O

> <score_type>
oracle

> <origin>
adg

> <m_score__min__energy>
-15.449999999999999

> <m_primary>
energy

> <minimizedAffinity>
-4.15402

> <minimizedRMSD>
1.03157

> <CNNscore>
0.1518841833

> <CNNaffinity>
4.5451292992

> <CNN_VS>
0.6903332472

> <CNNaffinity_variance>
0.2285327911

$$$$
59:0


 31 33  0  0  0  0  0  0  0  0999 V2000
   58.0291   31.9551   45.6141 C   0  0  0  0  0  0  0  0  0  0  0  0
   58.0884   32.8438   44.5357 C   0  0  0  0  0  0  0  0  0  0  0  0
   58.8243   34.0230   44.6304 C   0  0  0  0  0  0  0  0  0  0  0  0
   59.4957   34.3340   45.8102 C   0  0  0  0  0  0  0  0  0  0  0  0
   59.4249   33.4775   46.9206 C   0  0  0  0  0  0  0  0  0  0  0  0
   58.6727   32.2797   46.8324 C   0  0  0  0  0  0  0  0  0  0  0  0
   58.5532   31.4060   47.9666 N   0  0  0  0  0  0  0  0  0  0  0  0
   59.0017   31.6339   48.8129 H   0  0  0  0  0  0  0  0  0  0  0  0
   58.0229   30.5795   47.8975 H   0  0  0  0  0  0  0  0  0  0  0  0
   60.0913   33.8892   48.1777 C   0  0  0  0  0  0  0  0  0  0  0  0
   59.4322   34.5553   49.0212 O   0  0  0  0  0  0  0  0  0  0  0  0
   61.5145   33.5644   48.4515 C   0  0  0  0  0  0  0  0  0  0  0  0
   62.3109   32.9183   47.4863 C   0  0  0  0  0  0  0  0  0  0  0  0
   63.6461   32.6101   47.7606 C   0  0  0  0  0  0  0  0  0  0  0  0
   64.2018   32.9380   48.9991 C   0  0  0  0  0  0  0  0  0  0  0  0
   63.4195   33.5706   49.9679 C   0  0  0  0  0  0  0  0  0  0  0  0
   62.0830   33.8800   49.6995 C   0  0  0  0  0  0  0  0  0  0  0  0
   57.3131   30.7248   45.4404 N   0  0  0  0  0  0  0  0  0  0  0  0
   57.9179   29.4271   45.3555 C   0  0  0  0  0  0  0  0  0  0  0  0
   57.9806   28.8674   44.2293 O   0  0  0  0  0  0  0  0  0  0  0  0
   58.1318   27.6404   47.1084 C   0  0  0  0  0  0  0  0  0  0  0  0
   58.5296   28.7938   46.5499 C   0  0  0  0  0  0  0  0  0  0  0  0
   60.5360   26.0357   46.4905 C   0  0  0  0  0  0  0  0  0  0  0  0
   59.1606   25.5722   46.1138 C   0  0  0  0  0  0  0  0  0  0  0  0
   59.0199   24.3769   45.4801 N   0  0  0  0  0  0  0  0  0  0  0  0
   57.8000   23.9081   45.1180 C   0  0  0  0  0  0  0  0  0  0  0  0
   57.7019   22.8008   44.5292 O   0  0  0  0  0  0  0  0  0  0  0  0
   56.6855   24.6296   45.3938 N   0  0  0  0  0  0  0  0  0  0  0  0
   56.7633   25.8296   46.0251 C   0  0  0  0  0  0  0  0  0  0  0  0
   55.7031   26.4580   46.2855 O   0  0  0  0  0  0  0  0  0  0  0  0
   58.0181   26.3495   46.3910 C   0  0  0  0  0  0  0  0  0  0  0  0
 23 24  1  0
 24 25  1  0
 25 26  1  0
 26 27  2  0
 26 28  1  0
 28 29  1  0
 29 30  2  0
 29 31  1  0
 31 21  1  0
 21 22  2  0
 22 19  1  0
 19 20  2  0
 19 18  1  0
 18  1  1  0
  1  2  2  0
  2  3  1  0
  3  4  2  0
  4  5  1  0
  5 10  1  0
 10 11  2  0
 10 12  1  0
 12 13  2  0
 13 14  1  0
 14 15  2  0
 15 16  1  0
 16 17  2  0
  5  6  2  0
  6  7  1  0
 31 24  2  0
  6  1  1  0
 17 12  1  0
  7  8  1  0
  7  9  1  0
M  CHG 1  18  -1
M  CHG 1  25  -1
M  CHG 1  28  -1
M  END
> <UniqueID>
58

> <SMILES>
Cc1[n-]c(=O)[n-]c(=O)c1C=CC(=O)[N-]c1cccc(C(=O)c2ccccc2)c1N

> <Energy>
72.67250063651043

> <Genealogy>
Cc1[n-]c(=O)[n-]c(=O)c1C=CC(=O)[N-]c1cccc(C(=O)c2ccccc2)c1N (protonated)
Cc1[n-]c(=O)[n-]c(=O)c1C=CC(=O)[N-]c1cccc(C(=O)c2ccccc2)c1N (3D coordinates assigned)
Cc1[n-]c(=O)[n-]c(=O)c1C=CC(=O)[N-]c1cccc(C(=O)c2ccccc2)c1N (optimized conformer: 72.67250063651043 kcal/mol)

> <smiles>
Cc1[nH]c(=O)[nH]c(=O)c1C=CC(=O)Nc1cccc(C(=O)c2ccccc2)c1N

> <score_type>
oracle

> <origin>
adg

> <m_score__min__energy>
-14.44

> <m_primary>
energy

> <minimizedAffinity>
-8.44759

> <minimizedRMSD>
1.65719

> <CNNscore>
0.5263869166

> <CNNaffinity>
6.9697794914

> <CNN_VS>
3.6688008308

> <CNNaffinity_variance>
0.1421108097

$$$$
83:0


 30 34  0  0  0  0  0  0  0  0999 V2000
   53.0084   30.3872   53.4957 C   0  0  0  0  0  0  0  0  0  0  0  0
   54.1533   29.7276   53.7262 C   0  0  0  0  0  0  0  0  0  0  0  0
   54.3289   28.6905   54.6364 C   0  0  0  0  0  0  0  0  0  0  0  0
   55.6204   28.2860   54.6323 N   0  0  0  0  0  0  0  0  0  0  0  0
   56.2644   29.0405   53.7546 N   0  0  0  0  0  0  0  0  0  0  0  0
   57.5888   29.0332   53.4276 C   0  0  0  0  0  0  0  0  0  0  0  0
   58.4428   28.1895   53.9393 N   0  0  0  0  0  0  0  0  0  0  0  0
   58.0279   29.9591   52.5259 N   0  0  0  0  0  0  0  0  0  0  0  0
   57.1634   30.8796   51.9877 C   0  0  0  0  0  0  0  0  0  0  0  0
   55.8447   30.8540   52.3270 N   0  0  0  0  0  0  0  0  0  0  0  0
   55.4180   29.9140   53.2003 C   0  0  0  0  0  0  0  0  0  0  0  0
   58.9754   29.9668   52.2585 H   0  0  0  0  0  0  0  0  0  0  0  0
   52.3719   30.5049   52.1742 C   0  0  0  0  0  0  0  0  0  0  0  0
   52.6001   29.6505   51.1624 N   0  0  0  0  0  0  0  0  0  0  0  0
   51.9013   30.1865   50.1371 C   0  0  0  0  0  0  0  0  0  0  0  0
   51.8555   29.6547   48.9985 O   0  0  0  0  0  0  0  0  0  0  0  0
   51.2656   31.3413   50.4269 N   0  0  0  0  0  0  0  0  0  0  0  0
   51.5839   31.5361   51.7166 C   0  0  0  0  0  0  0  0  0  0  0  0
   51.1966   32.6553   52.4451 O   0  0  0  0  0  0  0  0  0  0  0  0
   59.1957   28.3557   55.1790 C   0  0  0  0  0  0  0  0  0  0  0  0
   58.5938   29.4167   56.0820 C   0  0  0  0  0  0  0  0  0  0  0  0
   58.4301   27.9432   56.4241 C   0  0  0  0  0  0  0  0  0  0  0  0
   57.6020   31.8459   51.0738 O   0  0  0  0  0  0  0  0  0  0  0  0
   58.9481   32.1202   50.8045 C   0  0  0  0  0  0  0  0  0  0  0  0
   59.5665   31.4476   49.7431 C   0  0  0  0  0  0  0  0  0  0  0  0
   60.9132   31.6704   49.4530 C   0  0  0  0  0  0  0  0  0  0  0  0
   61.6527   32.5755   50.2170 C   0  0  0  0  0  0  0  0  0  0  0  0
   61.0418   33.2720   51.2625 C   0  0  0  0  0  0  0  0  0  0  0  0
   59.6817   33.0723   51.5537 C   0  0  0  0  0  0  0  0  0  0  0  0
   59.0440   33.8658   52.6600 C   0  0  0  0  0  0  0  0  0  0  0  0
  1 13  1  0
 13 14  1  0
 14 15  1  0
 15 16  2  0
 15 17  1  0
 17 18  1  0
 18 19  1  0
  1  2  2  0
  2  3  1  0
  3  4  2  0
  4  5  1  0
  5  6  1  0
  6  7  2  0
  7 20  1  0
 20 21  1  0
 21 22  1  0
  6  8  1  0
  8  9  2  0
  9 23  1  0
 23 24  1  0
 24 25  2  0
 25 26  1  0
 26 27  2  0
 27 28  1  0
 28 29  2  0
 29 30  1  0
  9 10  1  0
 10 11  2  0
 18 13  2  0
 11  2  1  0
 11  5  1  0
 22 20  1  0
 29 24  1  0
  8 12  1  0
M  CHG 1   8   1
M  CHG 1  14  -1
M  CHG 1  17  -1
M  CHG 1  19  -1
M  END
> <UniqueID>
81

> <SMILES>
Cc1ccccc1Oc1nc2/c(=C\c3[n-]c(=O)[n-]c3[O-])cnn2/c(=N\C2CC2)[nH+]1

> <Energy>
398.63550089224134

> <Genealogy>
Cc1ccccc1Oc1nc2c(=Cc3[n-]c(=O)[n-]c3[O-])cnn2c(=NC2CC2)[nH+]1 (protonated)
Cc1ccccc1Oc1nc2/c(=C\c3[n-]c(=O)[n-]c3[O-])cnn2/c(=N\C2CC2)[nH+]1 (cis-trans isomerization)
Cc1ccccc1Oc1nc2/c(=C\c3[n-]c(=O)[n-]c3[O-])cnn2/c(=N\C2CC2)[nH+]1 (3D coordinates assigned)
Cc1ccccc1Oc1nc2/c(=C\c3[n-]c(=O)[n-]c3[O-])cnn2/c(=N\C2CC2)[nH+]1 (nonaromatic ring conformer: 398.63550089224134 kcal/mol)

> <smiles>
Cc1ccccc1Oc1nc(=NC2CC2)n2ncc(=Cc3[nH]c(=O)[nH]c3O)c2n1

> <score_type>
oracle

> <origin>
adg

> <m_score__min__energy>
-15.24

> <m_primary>
energy

> <minimizedAffinity>
-5.49186

> <minimizedRMSD>
0.91979

> <CNNscore>
0.0730791762

> <CNNaffinity>
4.7878527641

> <CNN_VS>
0.3498923481

> <CNNaffinity_variance>
0.2143410891

$$$$
8:0


 28 30  0  0  0  0  0  0  0  0999 V2000
   58.1636   31.5393   45.5912 N   0  0  0  0  0  0  0  0  0  0  0  0
   57.0396   31.0786   45.0585 N   0  0  0  0  0  0  0  0  0  0  0  0
   57.1088   29.7306   45.0942 C   0  0  0  0  0  0  0  0  0  0  0  0
   56.1074   28.8928   44.6227 O   0  0  0  0  0  0  0  0  0  0  0  0
   58.3003   29.3270   45.6629 C   0  0  0  0  0  0  0  0  0  0  0  0
   58.9434   30.5076   45.9645 C   0  0  0  0  0  0  0  0  0  0  0  0
   60.0769   30.6322   46.5030 O   0  0  0  0  0  0  0  0  0  0  0  0
   58.5328   33.2220   45.7619 S   0  0  0  0  0  0  0  0  0  0  0  0
   59.0764   33.7532   44.4649 O   0  0  0  0  0  0  0  0  0  0  0  0
   57.2827   33.9788   46.1166 O   0  0  0  0  0  0  0  0  0  0  0  0
   62.6806   33.9273   50.1395 C   0  0  0  0  0  0  0  0  0  0  0  0
   61.6578   33.7237   49.0610 C   0  0  0  0  0  0  0  0  0  0  0  0
   60.2967   33.6199   49.3867 C   0  0  0  0  0  0  0  0  0  0  0  0
   59.3399   33.4665   48.3779 C   0  0  0  0  0  0  0  0  0  0  0  0
   59.7328   33.4358   47.0323 C   0  0  0  0  0  0  0  0  0  0  0  0
   61.0910   33.5504   46.7060 C   0  0  0  0  0  0  0  0  0  0  0  0
   62.0467   33.7030   47.7138 C   0  0  0  0  0  0  0  0  0  0  0  0
   58.7361   27.9781   45.8742 N   0  0  0  0  0  0  0  0  0  0  0  0
   59.4783   27.6293   45.3295 H   0  0  0  0  0  0  0  0  0  0  0  0
   58.1195   27.0996   46.8691 C   0  0  0  0  0  0  0  0  0  0  0  0
   57.7172   25.7854   46.2459 C   0  0  0  0  0  0  0  0  0  0  0  0
   58.7054   24.8192   45.9811 C   0  0  0  0  0  0  0  0  0  0  0  0
   58.3667   23.5958   45.3996 C   0  0  0  0  0  0  0  0  0  0  0  0
   57.0392   23.3228   45.0689 C   0  0  0  0  0  0  0  0  0  0  0  0
   56.0481   24.2759   45.3132 C   0  0  0  0  0  0  0  0  0  0  0  0
   56.3744   25.5087   45.8921 C   0  0  0  0  0  0  0  0  0  0  0  0
   55.3474   26.4340   46.0950 O   0  0  0  0  0  0  0  0  0  0  0  0
   54.4688   26.2200   45.8498 H   0  0  0  0  0  0  0  0  0  0  0  0
 11 12  1  0
 12 13  2  0
 13 14  1  0
 14 15  2  0
 15  8  1  0
  8  9  2  0
  8 10  2  0
  8  1  1  0
  1  2  1  0
  2  3  1  0
  3  4  1  0
  3  5  2  0
  5 18  1  0
 18 20  1  0
 20 21  1  0
 21 22  2  0
 22 23  1  0
 23 24  2  0
 24 25  1  0
 25 26  2  0
 26 27  1  0
  5  6  1  0
  6  7  2  0
 15 16  1  0
 16 17  2  0
 17 12  1  0
  6  1  1  0
 26 21  1  0
 18 19  1  0
 27 28  1  0
M  CHG 1   2  -1
M  CHG 1   4  -1
M  END
> <UniqueID>
8

> <SMILES>
Cc1ccc(S(=O)(=O)n2[n-]c([O-])c(NCc3ccccc3O)c2=O)cc1

> <Energy>
80.33264453203944

> <Genealogy>
Cc1ccc(S(=O)(=O)n2[n-]c([O-])c(NCc3ccccc3O)c2=O)cc1 (protonated)
Cc1ccc(S(=O)(=O)n2[n-]c([O-])c(NCc3ccccc3O)c2=O)cc1 (3D coordinates assigned)
Cc1ccc(S(=O)(=O)n2[n-]c([O-])c(NCc3ccccc3O)c2=O)cc1 (optimized conformer: 80.33264453203944 kcal/mol)

> <smiles>
Cc1ccc(S(=O)(=O)n2[nH]c(O)c(NCc3ccccc3O)c2=O)cc1

> <score_type>
oracle

> <origin>
adg

> <m_score__min__energy>
-15.039999999999999

> <m_primary>
energy

> <minimizedAffinity>
-8.61019

> <minimizedRMSD>
0.84098

> <CNNscore>
0.7431967258

> <CNNaffinity>
6.6578488350

> <CNN_VS>
4.9480915070

> <CNNaffinity_variance>
0.1806354523

$$$$
29:0


 29 31  0  0  0  0  0  0  0  0999 V2000
   57.4421   29.0759   45.0730 C   0  0  0  0  0  0  0  0  0  0  0  0
   57.0135   29.3757   43.7675 C   0  0  0  0  0  0  0  0  0  0  0  0
   57.1515   30.6694   43.2601 C   0  0  0  0  0  0  0  0  0  0  0  0
   57.7040   31.6781   44.0495 C   0  0  0  0  0  0  0  0  0  0  0  0
   58.1123   31.4017   45.3607 C   0  0  0  0  0  0  0  0  0  0  0  0
   57.9748   30.1021   45.8696 C   0  0  0  0  0  0  0  0  0  0  0  0
   58.4714   28.1367   47.6204 O   0  0  0  0  0  0  0  0  0  0  0  0
   57.9538   27.3088   46.8222 C   0  0  0  0  0  0  0  0  0  0  0  0
   57.2908   27.7587   45.6297 N   0  0  0  0  0  0  0  0  0  0  0  0
   56.6963   27.1263   45.1651 H   0  0  0  0  0  0  0  0  0  0  0  0
   58.0071   25.8467   47.1425 C   0  0  0  0  0  0  0  0  0  0  0  0
   58.8646   24.9208   45.8241 S   0  0  0  0  0  0  0  0  0  0  0  0
   57.3674   24.2204   45.1342 C   0  0  0  0  0  0  0  0  0  0  0  0
   57.4454   23.3214   44.1177 N   0  0  0  0  0  0  0  0  0  0  0  0
   56.3250   22.7666   43.5884 C   0  0  0  0  0  0  0  0  0  0  0  0
   56.4203   21.9312   42.6526 O   0  0  0  0  0  0  0  0  0  0  0  0
   55.0713   23.1245   44.0867 C   0  0  0  0  0  0  0  0  0  0  0  0
   55.0104   24.0539   45.1262 C   0  0  0  0  0  0  0  0  0  0  0  0
   53.7817   24.4395   45.6459 O   0  0  0  0  0  0  0  0  0  0  0  0
   56.1545   24.5830   45.6298 N   0  0  0  0  0  0  0  0  0  0  0  0
   58.8149   32.6847   46.3415 S   0  0  0  0  0  0  0  0  0  0  0  0
   59.3858   33.7284   45.4223 O   0  0  0  0  0  0  0  0  0  0  0  0
   57.7486   33.3230   47.1889 O   0  0  0  0  0  0  0  0  0  0  0  0
   60.0771   32.0089   47.3476 N   0  0  0  0  0  0  0  0  0  0  0  0
   59.5987   31.7205   48.7189 C   0  0  0  0  0  0  0  0  0  0  0  0
   60.0067   32.8062   49.7318 C   0  0  0  0  0  0  0  0  0  0  0  0
   60.0351   34.0696   49.1083 O   0  0  0  0  0  0  0  0  0  0  0  0
   61.1091   34.1370   48.1857 C   0  0  0  0  0  0  0  0  0  0  0  0
   61.2869   32.8510   47.3412 C   0  0  0  0  0  0  0  0  0  0  0  0
  7  8  2  0
  8 11  1  0
 11 12  1  0
 12 13  1  0
 13 14  2  0
 14 15  1  0
 15 16  2  0
 15 17  1  0
 17 18  2  0
 18 19  1  0
 18 20  1  0
  8  9  1  0
  9  1  1  0
  1  2  2  0
  2  3  1  0
  3  4  2  0
  4  5  1  0
  5 21  1  0
 21 22  2  0
 21 23  2  0
 21 24  1  0
 24 25  1  0
 25 26  1  0
 26 27  1  0
 27 28  1  0
 28 29  1  0
  5  6  2  0
 20 13  1  0
  6  1  1  0
 29 24  1  0
  9 10  1  0
M  CHG 1  19  -1
M  CHG 1  20  -1
M  END
> <UniqueID>
27

> <SMILES>
O=C(CSc1nc(=O)cc([O-])[n-]1)Nc1cccc(S(=O)(=O)N2CCOCC2)c1

> <Energy>
55.16502372047648

> <Genealogy>
O=C(CSc1nc(=O)cc([O-])[n-]1)Nc1cccc(S(=O)(=O)N2CCOCC2)c1 (protonated)
O=C(CSc1nc(=O)cc([O-])[n-]1)Nc1cccc(S(=O)(=O)N2CCOCC2)c1 (3D coordinates assigned)
O=C(CSc1nc(=O)cc([O-])[n-]1)Nc1cccc(S(=O)(=O)N2CCOCC2)c1 (nonaromatic ring conformer: 55.16502372047648 kcal/mol)

> <smiles>
O=C(CSc1nc(=O)cc(O)[nH]1)Nc1cccc(S(=O)(=O)N2CCOCC2)c1

> <score_type>
oracle

> <origin>
adg

> <m_score__min__energy>
-15.6

> <m_primary>
energy

> <minimizedAffinity>
-7.98568

> <minimizedRMSD>
1.59057

> <CNNscore>
0.4641708732

> <CNNaffinity>
6.4791603088

> <CNN_VS>
3.0074374676

> <CNNaffinity_variance>
0.0683866218

$$$$
87:0


 24 26  0  0  0  0  0  0  0  0999 V2000
   58.5191   28.2975   46.2206 C   0  0  0  0  0  0  0  0  0  0  0  0
   59.1275   28.1453   45.1277 O   0  0  0  0  0  0  0  0  0  0  0  0
   58.0688   29.6102   46.5781 N   0  0  0  0  0  0  0  0  0  0  0  0
   57.4472   31.0956   44.6536 C   0  0  0  0  0  0  0  0  0  0  0  0
   57.7068   32.3858   44.1545 C   0  0  0  0  0  0  0  0  0  0  0  0
   58.6285   33.1060   44.9040 C   0  0  0  0  0  0  0  0  0  0  0  0
   59.1254   32.1516   46.1942 S   0  0  0  0  0  0  0  0  0  0  0  0
   58.1958   30.8055   45.7962 C   0  0  0  0  0  0  0  0  0  0  0  0
   55.5170   29.4725   44.7937 N   0  0  0  0  0  0  0  0  0  0  0  0
   56.4838   30.1734   44.0148 C   0  0  0  0  0  0  0  0  0  0  0  0
   56.5139   29.9971   42.7685 O   0  0  0  0  0  0  0  0  0  0  0  0
   54.8814   28.8614   44.3557 H   0  0  0  0  0  0  0  0  0  0  0  0
   58.2931   27.1079   47.1135 C   0  0  0  0  0  0  0  0  0  0  0  0
   57.9025   25.9351   46.3288 N   0  0  0  0  0  0  0  0  0  0  0  0
   58.6948   24.9068   45.9530 C   0  0  0  0  0  0  0  0  0  0  0  0
   60.0561   24.8286   46.2230 O   0  0  0  0  0  0  0  0  0  0  0  0
   57.9553   23.9530   45.2824 C   0  0  0  0  0  0  0  0  0  0  0  0
   56.6602   24.4058   45.2583 C   0  0  0  0  0  0  0  0  0  0  0  0
   56.6548   25.6196   45.9150 C   0  0  0  0  0  0  0  0  0  0  0  0
   55.5336   26.4097   46.1396 O   0  0  0  0  0  0  0  0  0  0  0  0
   55.5186   23.6507   44.6584 C   0  0  0  0  0  0  0  0  0  0  0  0
   55.9803   22.3650   44.0021 C   0  0  0  0  0  0  0  0  0  0  0  0
   57.2565   21.9184   44.0253 C   0  0  0  0  0  0  0  0  0  0  0  0
   58.3965   22.6446   44.7119 C   0  0  0  0  0  0  0  0  0  0  0  0
  9 10  1  0
 10 11  2  0
 10  4  1  0
  4  5  1  0
  5  6  2  0
  6  7  1  0
  7  8  1  0
  8  3  1  0
  3  1  1  0
  1  2  2  0
  1 13  1  0
 13 14  1  0
 14 15  1  0
 15 16  1  0
 15 17  2  0
 17 18  1  0
 18 19  2  0
 19 20  1  0
 18 21  1  0
 21 22  1  0
 22 23  2  0
 23 24  1  0
  8  4  2  0
 19 14  1  0
 24 17  1  0
  9 12  1  0
M  CHG 1   3  -1
M  CHG 1   9  -1
M  CHG 1  16  -1
M  CHG 1  20  -1
M  END
> <UniqueID>
79

> <SMILES>
[NH-]C(=O)c1ccsc1[N-]C(=O)Cn1c([O-])c2c(c1[O-])CC=CC2

> <Energy>
97.33378248384604

> <Genealogy>
[NH-]C(=O)c1ccsc1[N-]C(=O)Cn1c([O-])c2c(c1[O-])CC=CC2 (protonated)
[NH-]C(=O)c1ccsc1[N-]C(=O)Cn1c([O-])c2c(c1[O-])CC=CC2 (3D coordinates assigned)
[NH-]C(=O)c1ccsc1[N-]C(=O)Cn1c([O-])c2c(c1[O-])CC=CC2 (nonaromatic ring conformer: 97.33378248384604 kcal/mol)

> <smiles>
NC(=O)c1ccsc1NC(=O)Cn1c(O)c2c(c1O)CC=CC2

> <score_type>
oracle

> <origin>
adg

> <m_score__min__energy>
-16.079999999999998

> <m_primary>
energy

> <minimizedAffinity>
-7.39824

> <minimizedRMSD>
0.60573

> <CNNscore>
0.4488391280

> <CNNaffinity>
6.2804732323

> <CNN_VS>
2.8189220428

> <CNNaffinity_variance>
0.0278583188

$$$$
93:0


 28 30  0  0  0  0  0  0  0  0999 V2000
   58.4228   31.4904   45.1001 C   0  0  0  0  0  0  0  0  0  0  0  0
   57.9306   32.7244   44.6508 C   0  0  0  0  0  0  0  0  0  0  0  0
   57.8096   33.7968   45.5365 C   0  0  0  0  0  0  0  0  0  0  0  0
   58.1710   33.6455   46.8764 C   0  0  0  0  0  0  0  0  0  0  0  0
   58.6552   32.4155   47.3505 C   0  0  0  0  0  0  0  0  0  0  0  0
   58.7757   31.3392   46.4510 C   0  0  0  0  0  0  0  0  0  0  0  0
   59.0177   32.2932   48.7378 N   0  0  0  0  0  0  0  0  0  0  0  0
   58.7178   31.4918   49.2246 H   0  0  0  0  0  0  0  0  0  0  0  0
   59.9517   33.4719   49.6062 S   0  0  0  0  0  0  0  0  0  0  0  0
   59.6415   34.8414   49.0690 O   0  0  0  0  0  0  0  0  0  0  0  0
   59.5677   33.4176   51.0592 O   0  0  0  0  0  0  0  0  0  0  0  0
   61.6757   33.1559   49.3990 C   0  0  0  0  0  0  0  0  0  0  0  0
   62.4484   32.7825   50.5085 C   0  0  0  0  0  0  0  0  0  0  0  0
   63.8196   32.5511   50.3660 C   0  0  0  0  0  0  0  0  0  0  0  0
   64.4253   32.6877   49.1137 C   0  0  0  0  0  0  0  0  0  0  0  0
   63.6603   33.0500   48.0023 C   0  0  0  0  0  0  0  0  0  0  0  0
   62.2870   33.2827   48.1409 C   0  0  0  0  0  0  0  0  0  0  0  0
   61.5622   33.6263   47.0465 F   0  0  0  0  0  0  0  0  0  0  0  0
   58.5450   30.3249   44.1532 C   0  0  0  0  0  0  0  0  0  0  0  0
   58.1653   25.4869   46.8128 O   0  0  0  0  0  0  0  0  0  0  0  0
   58.2518   26.5902   46.2144 C   0  0  0  0  0  0  0  0  0  0  0  0
   57.1268   27.2863   45.9114 N   0  0  0  0  0  0  0  0  0  0  0  0
   57.1925   28.4792   45.2653 C   0  0  0  0  0  0  0  0  0  0  0  0
   56.0127   29.1549   44.9748 O   0  0  0  0  0  0  0  0  0  0  0  0
   58.4410   29.0164   44.9039 C   0  0  0  0  0  0  0  0  0  0  0  0
   59.5899   28.2693   45.2234 C   0  0  0  0  0  0  0  0  0  0  0  0
   60.7375   28.6882   44.9166 O   0  0  0  0  0  0  0  0  0  0  0  0
   59.4685   27.0805   45.8696 N   0  0  0  0  0  0  0  0  0  0  0  0
 20 21  2  0
 21 22  1  0
 22 23  1  0
 23 24  1  0
 23 25  2  0
 25 19  1  0
 19  1  1  0
  1  2  2  0
  2  3  1  0
  3  4  2  0
  4  5  1  0
  5  7  1  0
  7  9  1  0
  9 10  2  0
  9 11  2  0
  9 12  1  0
 12 13  2  0
 13 14  1  0
 14 15  2  0
 15 16  1  0
 16 17  2  0
 17 18  1  0
  5  6  2  0
 25 26  1  0
 26 27  2  0
 26 28  1  0
 28 21  1  0
  6  1  1  0
 17 12  1  0
  7  8  1  0
M  CHG 1  22  -1
M  CHG 1  24  -1
M  CHG 1  28  -1
M  END
> <UniqueID>
85

> <SMILES>
O=c1[n-]c([O-])c(Cc2cccc(NS(=O)(=O)c3ccccc3F)c2)c(=O)[n-]1

> <Energy>
45.24750229650189

> <Genealogy>
O=c1[n-]c([O-])c(Cc2cccc(NS(=O)(=O)c3ccccc3F)c2)c(=O)[n-]1 (protonated)
O=c1[n-]c([O-])c(Cc2cccc(NS(=O)(=O)c3ccccc3F)c2)c(=O)[n-]1 (3D coordinates assigned)
O=c1[n-]c([O-])c(Cc2cccc(NS(=O)(=O)c3ccccc3F)c2)c(=O)[n-]1 (optimized conformer: 45.24750229650189 kcal/mol)

> <smiles>
O=c1[nH]c(O)c(Cc2cccc(NS(=O)(=O)c3ccccc3F)c2)c(=O)[nH]1

> <score_type>
oracle

> <origin>
adg

> <m_score__min__energy>
-16.309999999999999

> <m_primary>
energy

> <minimizedAffinity>
-7.55071

> <minimizedRMSD>
1.33090

> <CNNscore>
0.2563664317

> <CNNaffinity>
6.3324790001

> <CNN_VS>
1.6234350204

> <CNNaffinity_variance>
0.0141433561

$$$$
1:0


 28 30  0  0  0  0  0  0  0  0999 V2000
   58.3887   33.5869   45.3599 C   0  0  0  0  0  0  0  0  0  0  0  0
   57.8861   33.0453   46.5550 C   0  0  0  0  0  0  0  0  0  0  0  0
   58.5346   33.2925   47.7681 C   0  0  0  0  0  0  0  0  0  0  0  0
   59.6912   34.0896   47.8051 C   0  0  0  0  0  0  0  0  0  0  0  0
   60.1509   34.6829   46.6202 C   0  0  0  0  0  0  0  0  0  0  0  0
   59.5049   34.4312   45.4069 C   0  0  0  0  0  0  0  0  0  0  0  0
   60.3719   34.3559   49.0417 N   0  0  0  0  0  0  0  0  0  0  0  0
   60.1314   35.1755   49.5313 H   0  0  0  0  0  0  0  0  0  0  0  0
   61.3799   33.5061   49.6118 C   0  0  0  0  0  0  0  0  0  0  0  0
   62.7421   33.7253   49.3768 C   0  0  0  0  0  0  0  0  0  0  0  0
   63.6759   32.8835   49.9824 C   0  0  0  0  0  0  0  0  0  0  0  0
   64.9032   33.0887   49.7790 O   0  0  0  0  0  0  0  0  0  0  0  0
   63.2599   31.8552   50.7900 N   0  0  0  0  0  0  0  0  0  0  0  0
   64.2492   30.9857   51.4496 C   0  0  0  0  0  0  0  0  0  0  0  0
   61.9219   31.6973   51.0455 C   0  0  0  0  0  0  0  0  0  0  0  0
   61.5160   30.7962   51.8295 O   0  0  0  0  0  0  0  0  0  0  0  0
   61.0099   32.5140   50.4576 N   0  0  0  0  0  0  0  0  0  0  0  0
   57.7641   33.3276   44.0937 N   0  0  0  0  0  0  0  0  0  0  0  0
   57.7950   32.0849   43.3763 C   0  0  0  0  0  0  0  0  0  0  0  0
   57.9082   32.1177   42.1228 O   0  0  0  0  0  0  0  0  0  0  0  0
   60.0947   28.3699   45.8741 C   0  0  0  0  0  0  0  0  0  0  0  0
   58.8522   28.9583   45.2676 C   0  0  0  0  0  0  0  0  0  0  0  0
   58.9095   30.1888   44.5935 C   0  0  0  0  0  0  0  0  0  0  0  0
   57.7433   30.7732   44.0661 C   0  0  0  0  0  0  0  0  0  0  0  0
   56.5225   30.0920   44.1888 C   0  0  0  0  0  0  0  0  0  0  0  0
   56.4611   28.8683   44.8591 C   0  0  0  0  0  0  0  0  0  0  0  0
   57.6156   28.3042   45.4062 C   0  0  0  0  0  0  0  0  0  0  0  0
   57.5281   27.0938   46.0855 O   0  0  0  0  0  0  0  0  0  0  0  0
 21 22  1  0
 22 23  2  0
 23 24  1  0
 24 19  1  0
 19 20  2  0
 19 18  1  0
 18  1  1  0
  1  2  2  0
  2  3  1  0
  3  4  2  0
  4  7  1  0
  7  9  1  0
  9 10  2  0
 10 11  1  0
 11 12  2  0
 11 13  1  0
 13 14  1  0
 13 15  1  0
 15 16  2  0
 15 17  1  0
  4  5  1  0
  5  6  2  0
 24 25  2  0
 25 26  1  0
 26 27  2  0
 27 28  1  0
 27 22  1  0
  6  1  1  0
 17  9  1  0
  7  8  1  0
M  CHG 1  17  -1
M  CHG 1  18  -1
M  CHG 1  28  -1
M  END
> <UniqueID>
2

> <SMILES>
Cc1cc(C(=O)[N-]c2ccc(Nc3cc(=O)n(C)c(=O)[n-]3)cc2)ccc1[O-]

> <Energy>
60.152379863676984

> <Genealogy>
Cc1cc(C(=O)[N-]c2ccc(Nc3cc(=O)n(C)c(=O)[n-]3)cc2)ccc1[O-] (protonated)
Cc1cc(C(=O)[N-]c2ccc(Nc3cc(=O)n(C)c(=O)[n-]3)cc2)ccc1[O-] (3D coordinates assigned)
Cc1cc(C(=O)[N-]c2ccc(Nc3cc(=O)n(C)c(=O)[n-]3)cc2)ccc1[O-] (optimized conformer: 60.152379863676984 kcal/mol)

> <smiles>
Cc1cc(C(=O)Nc2ccc(Nc3cc(=O)n(C)c(=O)[nH]3)cc2)ccc1O

> <score_type>
oracle

> <origin>
adg

> <m_score__min__energy>
-14.06

> <m_primary>
energy

> <minimizedAffinity>
-7.35233

> <minimizedRMSD>
1.31932

> <CNNscore>
0.2356292456

> <CNNaffinity>
6.3776245117

> <CNN_VS>
1.5027548075

> <CNNaffinity_variance>
0.1495911330

$$$$
9:0


 32 34  0  0  0  0  0  0  0  0999 V2000
   58.2887   29.2346   46.0359 C   0  0  0  0  0  0  0  0  0  0  0  0
   57.2936   29.8207   45.2482 C   0  0  0  0  0  0  0  0  0  0  0  0
   56.2630   29.0528   44.7170 O   0  0  0  0  0  0  0  0  0  0  0  0
   57.3148   31.1533   45.0122 N   0  0  0  0  0  0  0  0  0  0  0  0
   58.2846   31.9509   45.5228 C   0  0  0  0  0  0  0  0  0  0  0  0
   58.2338   33.1910   45.2984 O   0  0  0  0  0  0  0  0  0  0  0  0
   59.2973   31.4155   46.2775 N   0  0  0  0  0  0  0  0  0  0  0  0
   59.3263   30.0611   46.5112 C   0  0  0  0  0  0  0  0  0  0  0  0
   60.2886   29.5480   47.1481 O   0  0  0  0  0  0  0  0  0  0  0  0
   58.2697   26.8530   45.3824 C   0  0  0  0  0  0  0  0  0  0  0  0
   58.2221   27.7861   46.3456 C   0  0  0  0  0  0  0  0  0  0  0  0
   57.3245   25.7161   45.2696 C   0  0  0  0  0  0  0  0  0  0  0  0
   56.2997   25.6074   46.2243 C   0  0  0  0  0  0  0  0  0  0  0  0
   55.3774   24.5623   46.1608 C   0  0  0  0  0  0  0  0  0  0  0  0
   55.4579   23.6143   45.1381 C   0  0  0  0  0  0  0  0  0  0  0  0
   54.5346   22.5766   45.0886 O   0  0  0  0  0  0  0  0  0  0  0  0
   56.4598   23.7083   44.1634 C   0  0  0  0  0  0  0  0  0  0  0  0
   57.3911   24.7662   44.2295 C   0  0  0  0  0  0  0  0  0  0  0  0
   56.4952   22.7395   43.1470 O   0  0  0  0  0  0  0  0  0  0  0  0
   57.0518   21.4371   43.2923 C   0  0  0  0  0  0  0  0  0  0  0  0
   60.3042   32.3019   46.9002 C   0  0  0  0  0  0  0  0  0  0  0  0
   59.7317   33.0095   48.1381 C   0  0  0  0  0  0  0  0  0  0  0  0
   59.8423   32.1509   49.3777 C   0  0  0  0  0  0  0  0  0  0  0  0
   58.6991   31.4884   49.8553 C   0  0  0  0  0  0  0  0  0  0  0  0
   58.7353   30.7611   51.0503 C   0  0  0  0  0  0  0  0  0  0  0  0
   59.9376   30.6875   51.7723 C   0  0  0  0  0  0  0  0  0  0  0  0
   61.0806   31.3429   51.3088 C   0  0  0  0  0  0  0  0  0  0  0  0
   61.0425   32.0888   50.1159 C   0  0  0  0  0  0  0  0  0  0  0  0
   57.5579   30.1356   51.4863 O   0  0  0  0  0  0  0  0  0  0  0  0
   56.5240   30.7880   52.2161 C   0  0  0  0  0  0  0  0  0  0  0  0
   62.1671   32.7919   49.6525 O   0  0  0  0  0  0  0  0  0  0  0  0
   62.6472   34.0087   50.2127 C   0  0  0  0  0  0  0  0  0  0  0  0
 10 11  2  0
 11  1  1  0
  1  2  2  0
  2  3  1  0
  2  4  1  0
  4  5  1  0
  5  6  2  0
  5  7  1  0
  7 21  1  0
 21 22  1  0
 22 23  1  0
 23 24  2  0
 24 25  1  0
 25 29  1  0
 29 30  1  0
 25 26  2  0
 26 27  1  0
 27 28  2  0
 28 31  1  0
 31 32  1  0
  7  8  1  0
  8  9  2  0
 10 12  1  0
 12 13  2  0
 13 14  1  0
 14 15  2  0
 15 16  1  0
 15 17  1  0
 17 19  1  0
 19 20  1  0
 17 18  2  0
  8  1  1  0
 18 12  1  0
 28 23  1  0
M  CHG 1   3  -1
M  CHG 1   4  -1
M  CHG 1  16  -1
M  END
> <UniqueID>
10

> <SMILES>
COc1ccc(OC)c(CCn2c(=O)[n-]c([O-])c(/C=C/c3ccc([O-])c(OC)c3)c2=O)c1

> <Energy>
60.37840665361716

> <Genealogy>
COc1ccc(OC)c(CCn2c(=O)[n-]c([O-])c(C=Cc3ccc([O-])c(OC)c3)c2=O)c1 (protonated)
COc1ccc(OC)c(CCn2c(=O)[n-]c([O-])c(/C=C/c3ccc([O-])c(OC)c3)c2=O)c1 (cis-trans isomerization)
COc1ccc(OC)c(CCn2c(=O)[n-]c([O-])c(/C=C/c3ccc([O-])c(OC)c3)c2=O)c1 (3D coordinates assigned)
COc1ccc(OC)c(CCn2c(=O)[n-]c([O-])c(/C=C/c3ccc([O-])c(OC)c3)c2=O)c1 (optimized conformer: 60.37840665361716 kcal/mol)

> <smiles>
COc1ccc(OC)c(CCn2c(=O)[nH]c(O)c(C=Cc3ccc(O)c(OC)c3)c2=O)c1

> <score_type>
oracle

> <origin>
adg

> <m_score__min__energy>
-14.56

> <m_primary>
energy

> <minimizedAffinity>
-7.76688

> <minimizedRMSD>
1.08704

> <CNNscore>
0.3084552884

> <CNNaffinity>
6.7583823204

> <CNN_VS>
2.0846588612

> <CNNaffinity_variance>
0.0186646096

$$$$
15:0


 23 25  0  0  0  0  0  0  0  0999 V2000
   58.5182   31.8312   45.1605 C   0  0  0  0  0  0  0  0  0  0  0  0
   57.7066   32.9457   44.8946 C   0  0  0  0  0  0  0  0  0  0  0  0
   57.9376   34.1618   45.5397 C   0  0  0  0  0  0  0  0  0  0  0  0
   58.9959   34.2892   46.4409 C   0  0  0  0  0  0  0  0  0  0  0  0
   59.8463   33.2007   46.6971 C   0  0  0  0  0  0  0  0  0  0  0  0
   59.5938   31.9729   46.0610 C   0  0  0  0  0  0  0  0  0  0  0  0
   60.9428   33.3373   47.6233 N   0  0  0  0  0  0  0  0  0  0  0  0
   60.8524   33.7510   48.9760 C   0  0  0  0  0  0  0  0  0  0  0  0
   59.7583   33.9430   49.5747 O   0  0  0  0  0  0  0  0  0  0  0  0
   62.1676   33.8535   49.6398 C   0  0  0  0  0  0  0  0  0  0  0  0
   63.1572   33.5531   48.5062 C   0  0  0  0  0  0  0  0  0  0  0  0
   62.3327   33.0441   47.3094 C   0  0  0  0  0  0  0  0  0  0  0  0
   58.2658   30.5424   44.4052 C   0  0  0  0  0  0  0  0  0  0  0  0
   56.9629   29.8796   44.7774 C   0  0  0  0  0  0  0  0  0  0  0  0
   55.8912   30.4951   44.5348 O   0  0  0  0  0  0  0  0  0  0  0  0
   60.1437   27.3537   46.1603 C   0  0  0  0  0  0  0  0  0  0  0  0
   59.1384   28.1612   45.7295 N   0  0  0  0  0  0  0  0  0  0  0  0
   57.8320   27.7697   45.7478 C   0  0  0  0  0  0  0  0  0  0  0  0
   56.8756   28.5641   45.3571 N   0  0  0  0  0  0  0  0  0  0  0  0
   57.5087   26.4926   46.2348 C   0  0  0  0  0  0  0  0  0  0  0  0
   56.1864   26.0626   46.2782 O   0  0  0  0  0  0  0  0  0  0  0  0
   58.5285   25.6471   46.6819 C   0  0  0  0  0  0  0  0  0  0  0  0
   59.8541   26.0783   46.6452 C   0  0  0  0  0  0  0  0  0  0  0  0
 16 17  1  0
 17 18  1  0
 18 19  2  0
 19 14  1  0
 14 15  2  0
 14 13  1  0
 13  1  1  0
  1  2  2  0
  2  3  1  0
  3  4  2  0
  4  5  1  0
  5  7  1  0
  7  8  1  0
  8  9  2  0
  8 10  1  0
 10 11  1  0
 11 12  1  0
  5  6  2  0
 18 20  1  0
 20 21  1  0
 20 22  2  0
 22 23  1  0
 23 16  2  0
  6  1  1  0
 12  7  1  0
M  CHG 1  17  -1
M  CHG 1  21  -1
M  END
> <UniqueID>
15

> <SMILES>
O=C(Cc1cccc(N2CCCC2=O)c1)/N=c1\[n-]cccc1[O-]

> <Energy>
56.50781848746039

> <Genealogy>
O=C(Cc1cccc(N2CCCC2=O)c1)N=c1[n-]cccc1[O-] (protonated)
O=C(Cc1cccc(N2CCCC2=O)c1)/N=c1\[n-]cccc1[O-] (cis-trans isomerization)
O=C(Cc1cccc(N2CCCC2=O)c1)/N=c1\[n-]cccc1[O-] (3D coordinates assigned)
O=C(Cc1cccc(N2CCCC2=O)c1)/N=c1\[n-]cccc1[O-] (nonaromatic ring conformer: 56.50781848746039 kcal/mol)

> <smiles>
O=C(Cc1cccc(N2CCCC2=O)c1)N=c1[nH]cccc1O

> <score_type>
oracle

> <origin>
adg

> <m_score__min__energy>
-14.23

> <m_primary>
energy

> <minimizedAffinity>
-7.88483

> <minimizedRMSD>
1.02750

> <CNNscore>
0.7175230980

> <CNNaffinity>
6.5688519478

> <CNN_VS>
4.7133030891

> <CNNaffinity_variance>
0.1327516288

$$$$
24:0


 24 25  0  0  0  0  0  0  0  0999 V2000
   58.3265   26.8471   45.4173 N   0  0  0  0  0  0  0  0  0  0  0  0
   58.0093   25.4947   45.0510 C   0  0  0  0  0  0  0  0  0  0  0  0
   57.6624   25.2175   43.8723 O   0  0  0  0  0  0  0  0  0  0  0  0
   58.6289   27.0284   46.3365 H   0  0  0  0  0  0  0  0  0  0  0  0
   58.2189   27.9647   44.4818 C   0  0  0  0  0  0  0  0  0  0  0  0
   57.2553   29.0402   44.9924 C   0  0  0  0  0  0  0  0  0  0  0  0
   57.0261   30.4011   43.7872 S   0  0  0  0  0  0  0  0  0  0  0  0
   59.9180   34.6508   47.0770 C   0  0  0  0  0  0  0  0  0  0  0  0
   59.2542   33.5972   46.2406 C   0  0  0  0  0  0  0  0  0  0  0  0
   58.6972   33.9237   44.9945 C   0  0  0  0  0  0  0  0  0  0  0  0
   58.0340   32.9494   44.2418 C   0  0  0  0  0  0  0  0  0  0  0  0
   57.8918   31.6509   44.7442 C   0  0  0  0  0  0  0  0  0  0  0  0
   58.4536   31.3186   45.9819 C   0  0  0  0  0  0  0  0  0  0  0  0
   59.1258   32.2886   46.7317 C   0  0  0  0  0  0  0  0  0  0  0  0
   58.1278   24.3926   46.0600 C   0  0  0  0  0  0  0  0  0  0  0  0
   56.8401   23.6074   46.1286 C   0  0  0  0  0  0  0  0  0  0  0  0
   55.6021   24.2585   46.2695 C   0  0  0  0  0  0  0  0  0  0  0  0
   55.5341   25.6418   46.3774 O   0  0  0  0  0  0  0  0  0  0  0  0
   54.4541   23.5336   46.2998 N   0  0  0  0  0  0  0  0  0  0  0  0
   54.4728   22.1820   46.1879 C   0  0  0  0  0  0  0  0  0  0  0  0
   53.3955   21.5329   46.2208 O   0  0  0  0  0  0  0  0  0  0  0  0
   55.6533   21.5302   46.0350 N   0  0  0  0  0  0  0  0  0  0  0  0
   56.8310   22.2064   45.9981 C   0  0  0  0  0  0  0  0  0  0  0  0
   57.9053   21.5652   45.8458 O   0  0  0  0  0  0  0  0  0  0  0  0
  8  9  1  0
  9 10  2  0
 10 11  1  0
 11 12  2  0
 12  7  1  0
  7  6  1  0
  6  5  1  0
  5  1  1  0
  1  2  1  0
  2  3  2  0
  2 15  1  0
 15 16  1  0
 16 17  2  0
 17 18  1  0
 17 19  1  0
 19 20  1  0
 20 21  2  0
 20 22  1  0
 22 23  1  0
 23 24  2  0
 12 13  1  0
 13 14  2  0
 14  9  1  0
 23 16  1  0
  1  4  1  0
M  CHG 1  18  -1
M  CHG 1  19  -1
M  CHG 1  22  -1
M  END
> <UniqueID>
24

> <SMILES>
Cc1ccc(SCCNC(=O)Cc2c([O-])[n-]c(=O)[n-]c2=O)cc1

> <Energy>
28.463966398122963

> <Genealogy>
Cc1ccc(SCCNC(=O)Cc2c([O-])[n-]c(=O)[n-]c2=O)cc1 (protonated)
Cc1ccc(SCCNC(=O)Cc2c([O-])[n-]c(=O)[n-]c2=O)cc1 (3D coordinates assigned)
Cc1ccc(SCCNC(=O)Cc2c([O-])[n-]c(=O)[n-]c2=O)cc1 (optimized conformer: 28.463966398122963 kcal/mol)

> <smiles>
Cc1ccc(SCCNC(=O)Cc2c(O)[nH]c(=O)[nH]c2=O)cc1

> <score_type>
oracle

> <origin>
adg

> <m_score__min__energy>
-14.85

> <m_primary>
energy

> <minimizedAffinity>
-7.26107

> <minimizedRMSD>
1.38303

> <CNNscore>
0.2688882947

> <CNNaffinity>
5.9281578064

> <CNN_VS>
1.5940122604

> <CNNaffinity_variance>
0.1715727597

$$$$
31:0


 27 30  0  0  0  0  0  0  0  0999 V2000
   57.8043   31.5438   43.5718 C   0  0  0  0  0  0  0  0  0  0  0  0
   57.8012   30.1536   44.0695 N   0  0  0  0  0  0  0  0  0  0  0  0
   56.4414   29.7659   44.5109 C   0  0  0  0  0  0  0  0  0  0  0  0
   56.4322   28.4411   45.3087 C   0  0  0  0  0  0  0  0  0  0  0  0
   57.7235   27.6412   45.0814 C   0  0  0  0  0  0  0  0  0  0  0  0
   58.9675   28.4729   45.4657 C   0  0  0  0  0  0  0  0  0  0  0  0
   58.7767   29.9708   45.1633 C   0  0  0  0  0  0  0  0  0  0  0  0
   57.6949   26.3636   45.8103 N   0  0  0  0  0  0  0  0  0  0  0  0
   56.6303   25.6407   46.2084 C   0  0  0  0  0  0  0  0  0  0  0  0
   55.3030   25.9874   45.9875 O   0  0  0  0  0  0  0  0  0  0  0  0
   57.0595   24.5166   46.8710 C   0  0  0  0  0  0  0  0  0  0  0  0
   58.4085   24.5152   46.9036 N   0  0  0  0  0  0  0  0  0  0  0  0
   58.7514   25.6479   46.2537 C   0  0  0  0  0  0  0  0  0  0  0  0
   59.9497   25.9977   46.0824 O   0  0  0  0  0  0  0  0  0  0  0  0
   58.6110   33.9421   46.0474 C   0  0  0  0  0  0  0  0  0  0  0  0
   57.4305   33.5089   46.5273 N   0  0  0  0  0  0  0  0  0  0  0  0
   57.0294   32.6200   45.6706 O   0  0  0  0  0  0  0  0  0  0  0  0
   57.9198   32.4996   44.7159 C   0  0  0  0  0  0  0  0  0  0  0  0
   58.9674   33.3247   44.9026 N   0  0  0  0  0  0  0  0  0  0  0  0
   59.4931   34.9111   46.7655 C   0  0  0  0  0  0  0  0  0  0  0  0
   63.3833   31.8919   49.8609 C   0  0  0  0  0  0  0  0  0  0  0  0
   62.3703   32.6554   49.0602 C   0  0  0  0  0  0  0  0  0  0  0  0
   62.5368   32.8144   47.6765 C   0  0  0  0  0  0  0  0  0  0  0  0
   61.6106   33.5541   46.9350 C   0  0  0  0  0  0  0  0  0  0  0  0
   60.5176   34.1632   47.5717 C   0  0  0  0  0  0  0  0  0  0  0  0
   60.3549   34.0083   48.9574 C   0  0  0  0  0  0  0  0  0  0  0  0
   61.2811   33.2687   49.6989 C   0  0  0  0  0  0  0  0  0  0  0  0
 21 22  1  0
 22 23  2  0
 23 24  1  0
 24 25  2  0
 25 20  1  0
 20 15  1  0
 15 16  2  0
 16 17  1  0
 17 18  1  0
 18  1  1  0
  1  2  1  0
  2  3  1  0
  3  4  1  0
  4  5  1  0
  5  8  1  0
  8  9  1  0
  9 10  1  0
  9 11  2  0
 11 12  1  0
 12 13  1  0
 13 14  2  0
  5  6  1  0
  6  7  1  0
 18 19  2  0
 25 26  1  0
 26 27  2  0
 27 22  1  0
 19 15  1  0
  7  2  1  0
 13  8  1  0
M  CHG 1  10  -1
M  CHG 1  12  -1
M  END
> <UniqueID>
31

> <SMILES>
Cc1ccc(Cc2noc(CN3CCC(n4c([O-])c[n-]c4=O)CC3)n2)cc1

> <Energy>
118.41096934652437

> <Genealogy>
Cc1ccc(Cc2noc(CN3CCC(n4c([O-])c[n-]c4=O)CC3)n2)cc1 (protonated)
Cc1ccc(Cc2noc(CN3CCC(n4c([O-])c[n-]c4=O)CC3)n2)cc1 (3D coordinates assigned)
Cc1ccc(Cc2noc(CN3CCC(n4c([O-])c[n-]c4=O)CC3)n2)cc1 (nonaromatic ring conformer: 118.41096934652437 kcal/mol)

> <smiles>
Cc1ccc(Cc2noc(CN3CCC(n4c(O)c[nH]c4=O)CC3)n2)cc1

> <score_type>
oracle

> <origin>
adg

> <m_score__min__energy>
-14.84

> <m_primary>
energy

> <minimizedAffinity>
-7.94550

> <minimizedRMSD>
0.67564

> <CNNscore>
0.4881290793

> <CNNaffinity>
6.6390290260

> <CNN_VS>
3.2407031059

> <CNNaffinity_variance>
0.0203519445

$$$$
48:0


 28 29  0  0  0  0  0  0  0  0999 V2000
   57.6370   30.0251   45.3371 C   0  0  0  0  0  0  0  0  0  0  0  0
   58.5776   29.9316   46.3775 C   0  0  0  0  0  0  0  0  0  0  0  0
   58.8212   28.7009   46.9983 C   0  0  0  0  0  0  0  0  0  0  0  0
   58.1117   27.5562   46.6044 C   0  0  0  0  0  0  0  0  0  0  0  0
   57.1616   27.6540   45.5757 C   0  0  0  0  0  0  0  0  0  0  0  0
   56.9198   28.8833   44.9552 C   0  0  0  0  0  0  0  0  0  0  0  0
   57.3421   31.2689   44.6847 N   0  0  0  0  0  0  0  0  0  0  0  0
   57.8360   32.5656   45.0445 C   0  0  0  0  0  0  0  0  0  0  0  0
   58.4991   33.2535   44.2237 O   0  0  0  0  0  0  0  0  0  0  0  0
   57.5456   33.1145   46.3323 N   0  0  0  0  0  0  0  0  0  0  0  0
   59.6636   35.2107   46.3153 C   0  0  0  0  0  0  0  0  0  0  0  0
   59.5094   34.1992   47.4205 C   0  0  0  0  0  0  0  0  0  0  0  0
   60.3909   34.2557   48.5133 C   0  0  0  0  0  0  0  0  0  0  0  0
   60.3075   33.3123   49.5405 C   0  0  0  0  0  0  0  0  0  0  0  0
   59.3467   32.3018   49.4879 C   0  0  0  0  0  0  0  0  0  0  0  0
   58.4516   32.2451   48.4178 C   0  0  0  0  0  0  0  0  0  0  0  0
   58.5001   33.2047   47.3970 C   0  0  0  0  0  0  0  0  0  0  0  0
   58.3960   26.2259   47.2481 C   0  0  0  0  0  0  0  0  0  0  0  0
   59.3130   25.4229   46.3817 C   0  0  0  0  0  0  0  0  0  0  0  0
   60.4703   25.8580   46.1233 O   0  0  0  0  0  0  0  0  0  0  0  0
   58.8529   24.1941   45.8100 N   0  0  0  0  0  0  0  0  0  0  0  0
   57.6046   24.0687   45.0631 C   0  0  0  0  0  0  0  0  0  0  0  0
   56.5602   23.3142   45.8870 C   0  0  0  0  0  0  0  0  0  0  0  0
   54.9116   23.6097   45.2652 S   0  0  0  0  0  0  0  0  0  0  0  0
   54.3834   25.2040   45.6842 N   0  0  0  0  0  0  0  0  0  0  0  0
   53.9646   22.5977   45.8491 O   0  0  0  0  0  0  0  0  0  0  0  0
   54.9208   23.4739   43.7697 O   0  0  0  0  0  0  0  0  0  0  0  0
   54.3747   25.3035   46.6993 H   0  0  0  0  0  0  0  0  0  0  0  0
 11 12  1  0
 12 13  2  0
 13 14  1  0
 14 15  2  0
 15 16  1  0
 16 17  2  0
 17 10  1  0
 10  8  1  0
  8  9  2  0
  8  7  1  0
  7  1  1  0
  1  2  2  0
  2  3  1  0
  3  4  2  0
  4 18  1  0
 18 19  1  0
 19 20  2  0
 19 21  1  0
 21 22  1  0
 22 23  1  0
 23 24  1  0
 24 25  1  0
 24 26  2  0
 24 27  2  0
  4  5  1  0
  5  6  2  0
 17 12  1  0
  6  1  1  0
 25 28  1  0
M  CHG 1   7  -1
M  CHG 1  10  -1
M  CHG 1  21  -1
M  CHG 1  25  -1
M  END
> <UniqueID>
45

> <SMILES>
Cc1ccccc1[N-]C(=O)[N-]c1ccc(CC(=O)[N-]CCS([NH-])(=O)=O)cc1

> <Energy>
44.046756689873135

> <Genealogy>
Cc1ccccc1[N-]C(=O)[N-]c1ccc(CC(=O)[N-]CCS([NH-])(=O)=O)cc1 (protonated)
Cc1ccccc1[N-]C(=O)[N-]c1ccc(CC(=O)[N-]CCS([NH-])(=O)=O)cc1 (3D coordinates assigned)
Cc1ccccc1[N-]C(=O)[N-]c1ccc(CC(=O)[N-]CCS([NH-])(=O)=O)cc1 (optimized conformer: 44.046756689873135 kcal/mol)

> <smiles>
Cc1ccccc1NC(=O)Nc1ccc(CC(=O)NCCS(N)(=O)=O)cc1

> <score_type>
oracle

> <origin>
adg

> <m_score__min__energy>
-15.02

> <m_primary>
energy

> <minimizedAffinity>
-7.08068

> <minimizedRMSD>
1.00448

> <CNNscore>
0.7012906671

> <CNNaffinity>
6.9872450829

> <CNN_VS>
4.9000897408

> <CNNaffinity_variance>
0.0810519755

$$$$
53:0


 28 31  0  0  0  0  0  0  0  0999 V2000
   58.8239   31.0621   51.8384 C   0  0  0  0  0  0  0  0  0  0  0  0
   58.3736   30.0361   52.5858 N   0  0  0  0  0  0  0  0  0  0  0  0
   58.4268   30.5224   53.8424 C   0  0  0  0  0  0  0  0  0  0  0  0
   58.0902   29.8421   54.8952 N   0  0  0  0  0  0  0  0  0  0  0  0
   58.8674   31.7560   53.9014 O   0  0  0  0  0  0  0  0  0  0  0  0
   59.1251   32.1270   52.6714 C   0  0  0  0  0  0  0  0  0  0  0  0
   58.9278   32.0491   48.1599 C   0  0  0  0  0  0  0  0  0  0  0  0
   59.3084   30.8316   47.5759 C   0  0  0  0  0  0  0  0  0  0  0  0
   59.5063   29.7029   48.3721 C   0  0  0  0  0  0  0  0  0  0  0  0
   59.3390   29.7805   49.7563 C   0  0  0  0  0  0  0  0  0  0  0  0
   58.9769   30.9953   50.3654 C   0  0  0  0  0  0  0  0  0  0  0  0
   58.7785   32.1304   49.5552 C   0  0  0  0  0  0  0  0  0  0  0  0
   57.4180   33.3478   46.8819 O   0  0  0  0  0  0  0  0  0  0  0  0
   58.7487   33.2731   47.3085 C   0  0  0  0  0  0  0  0  0  0  0  0
   57.2987   34.1376   46.3315 H   0  0  0  0  0  0  0  0  0  0  0  0
   56.8134   28.6664   54.8983 S   0  0  0  0  0  0  0  0  0  0  0  0
   57.1634   27.5530   53.9535 O   0  0  0  0  0  0  0  0  0  0  0  0
   56.6642   28.0958   56.2821 O   0  0  0  0  0  0  0  0  0  0  0  0
   55.3062   29.4104   54.3715 C   0  0  0  0  0  0  0  0  0  0  0  0
   54.2641   29.6202   55.3056 C   0  0  0  0  0  0  0  0  0  0  0  0
   53.0293   30.1523   54.8930 C   0  0  0  0  0  0  0  0  0  0  0  0
   52.8649   30.4560   53.5432 C   0  0  0  0  0  0  0  0  0  0  0  0
   51.7578   30.9476   52.9572 N   0  0  0  0  0  0  0  0  0  0  0  0
   52.1029   31.0463   51.6511 C   0  0  0  0  0  0  0  0  0  0  0  0
   51.2347   31.5169   50.6743 O   0  0  0  0  0  0  0  0  0  0  0  0
   53.4022   30.6283   51.4037 C   0  0  0  0  0  0  0  0  0  0  0  0
   53.8751   30.2532   52.6380 C   0  0  0  0  0  0  0  0  0  0  0  0
   55.1113   29.7364   53.0123 C   0  0  0  0  0  0  0  0  0  0  0  0
 13 14  1  0
 14  7  1  0
  7  8  2  0
  8  9  1  0
  9 10  2  0
 10 11  1  0
 11  1  1  0
  1  2  1  0
  2  3  1  0
  3  4  2  0
  4 16  1  0
 16 17  2  0
 16 18  2  0
 16 19  1  0
 19 20  2  0
 20 21  1  0
 21 22  2  0
 22 23  1  0
 23 24  1  0
 24 25  1  0
 24 26  2  0
 26 27  1  0
 27 28  2  0
  3  5  1  0
  5  6  1  0
 11 12  2  0
 12  7  1  0
  6  1  2  0
 28 19  1  0
 27 22  1  0
 13 15  1  0
M  CHG 1   2  -1
M  CHG 1  23  -1
M  CHG 1  25  -1
M  END
> <UniqueID>
50

> <SMILES>
O=S(=O)(/N=c1\[n-]c(-c2cccc(CO)c2)co1)c1ccc2[n-]c([O-])cc2c1

> <Energy>
107.49859956680139

> <Genealogy>
O=S(=O)(N=c1[n-]c(-c2cccc(CO)c2)co1)c1ccc2[n-]c([O-])cc2c1 (protonated)
O=S(=O)(/N=c1\[n-]c(-c2cccc(CO)c2)co1)c1ccc2[n-]c([O-])cc2c1 (cis-trans isomerization)
O=S(=O)(/N=c1\[n-]c(-c2cccc(CO)c2)co1)c1ccc2[n-]c([O-])cc2c1 (3D coordinates assigned)
O=S(=O)(/N=c1\[n-]c(-c2cccc(CO)c2)co1)c1ccc2[n-]c([O-])cc2c1 (optimized conformer: 107.49859956680139 kcal/mol)

> <smiles>
O=S(=O)(N=c1[nH]c(-c2cccc(CO)c2)co1)c1ccc2[nH]c(O)cc2c1

> <score_type>
oracle

> <origin>
adg

> <m_score__min__energy>
-14.5

> <m_primary>
energy

> <minimizedAffinity>
-6.30769

> <minimizedRMSD>
1.72918

> <CNNscore>
0.1825775206

> <CNNaffinity>
5.0005488396

> <CNN_VS>
0.9129878283

> <CNNaffinity_variance>
0.1985844970

$$$$
60:0


 27 29  0  0  0  0  0  0  0  0999 V2000
   59.1574   29.7920   47.8705 C   0  0  0  0  0  0  0  0  0  0  0  0
   58.8808   30.0633   46.5855 C   0  0  0  0  0  0  0  0  0  0  0  0
   58.9336   29.1769   45.5017 C   0  0  0  0  0  0  0  0  0  0  0  0
   59.0760   27.8394   45.4403 C   0  0  0  0  0  0  0  0  0  0  0  0
   58.8023   29.9846   44.3848 C   0  0  0  0  0  0  0  0  0  0  0  0
   58.6299   31.2621   44.7676 N   0  0  0  0  0  0  0  0  0  0  0  0
   58.6604   31.3104   46.0916 N   0  0  0  0  0  0  0  0  0  0  0  0
   58.4627   32.5426   46.8026 C   0  0  0  0  0  0  0  0  0  0  0  0
   57.3139   33.0606   46.8357 O   0  0  0  0  0  0  0  0  0  0  0  0
   58.0218   26.8520   45.7510 C   0  0  0  0  0  0  0  0  0  0  0  0
   56.6678   27.2007   45.6881 C   0  0  0  0  0  0  0  0  0  0  0  0
   56.2793   28.4983   45.3729 O   0  0  0  0  0  0  0  0  0  0  0  0
   55.7209   26.2631   45.9265 N   0  0  0  0  0  0  0  0  0  0  0  0
   56.0478   24.9792   46.2197 C   0  0  0  0  0  0  0  0  0  0  0  0
   55.1236   24.1463   46.4204 O   0  0  0  0  0  0  0  0  0  0  0  0
   57.3646   24.5980   46.2899 N   0  0  0  0  0  0  0  0  0  0  0  0
   57.7147   23.1950   46.5677 C   0  0  0  0  0  0  0  0  0  0  0  0
   58.3526   25.5160   46.0246 C   0  0  0  0  0  0  0  0  0  0  0  0
   59.5654   25.1650   46.0303 O   0  0  0  0  0  0  0  0  0  0  0  0
   59.5381   33.1460   47.5329 N   0  0  0  0  0  0  0  0  0  0  0  0
   60.8846   33.3132   46.9997 C   0  0  0  0  0  0  0  0  0  0  0  0
   61.8913   33.3311   48.1189 C   0  0  0  0  0  0  0  0  0  0  0  0
   61.5407   33.8184   49.3887 C   0  0  0  0  0  0  0  0  0  0  0  0
   62.4753   33.8117   50.4281 C   0  0  0  0  0  0  0  0  0  0  0  0
   63.7638   33.3164   50.2079 C   0  0  0  0  0  0  0  0  0  0  0  0
   64.1185   32.8255   48.9483 C   0  0  0  0  0  0  0  0  0  0  0  0
   63.1862   32.8299   47.9070 C   0  0  0  0  0  0  0  0  0  0  0  0
  1  2  2  0
  2  3  1  0
  3  4  2  0
  4 10  1  0
 10 11  2  0
 11 12  1  0
 11 13  1  0
 13 14  1  0
 14 15  2  0
 14 16  1  0
 16 17  1  0
 16 18  1  0
 18 19  2  0
  3  5  1  0
  5  6  2  0
  6  7  1  0
  7  8  1  0
  8  9  2  0
  8 20  1  0
 20 21  1  0
 21 22  1  0
 22 23  2  0
 23 24  1  0
 24 25  2  0
 25 26  1  0
 26 27  2  0
  7  2  1  0
 27 22  1  0
 18 10  1  0
M  CHG 1  12  -1
M  CHG 1  13  -1
M  CHG 1  20  -1
M  END
> <UniqueID>
56

> <SMILES>
C=c1c(=Cc2c([O-])[n-]c(=O)n(C)c2=O)cnn1C(=O)[N-]Cc1ccccc1

> <Energy>
94.82963391698499

> <Genealogy>
C=c1c(=Cc2c([O-])[n-]c(=O)n(C)c2=O)cnn1C(=O)[N-]Cc1ccccc1 (protonated)
C=c1c(=Cc2c([O-])[n-]c(=O)n(C)c2=O)cnn1C(=O)[N-]Cc1ccccc1 (3D coordinates assigned)
C=c1c(=Cc2c([O-])[n-]c(=O)n(C)c2=O)cnn1C(=O)[N-]Cc1ccccc1 (optimized conformer: 94.82963391698499 kcal/mol)

> <smiles>
C=c1c(=Cc2c(O)[nH]c(=O)n(C)c2=O)cnn1C(=O)NCc1ccccc1

> <score_type>
oracle

> <origin>
adg

> <m_score__min__energy>
-14.91

> <m_primary>
energy

> <minimizedAffinity>
-6.73739

> <minimizedRMSD>
1.02548

> <CNNscore>
0.4290062189

> <CNNaffinity>
6.8704590797

> <CNN_VS>
2.9474697113

> <CNNaffinity_variance>
1.3122695684

$$$$
81:0


 24 25  0  0  0  0  0  0  0  0999 V2000
   56.3681   29.3131   52.5339 O   0  0  0  0  0  0  0  0  0  0  0  0
   56.2881   30.5383   52.2470 C   0  0  0  0  0  0  0  0  0  0  0  0
   55.0082   31.1731   52.1244 N   0  0  0  0  0  0  0  0  0  0  0  0
   54.9622   32.0817   51.7481 H   0  0  0  0  0  0  0  0  0  0  0  0
   57.5470   31.3354   52.0823 C   0  0  0  0  0  0  0  0  0  0  0  0
   58.6556   30.4602   51.9005 O   0  0  0  0  0  0  0  0  0  0  0  0
   59.2845   30.2608   50.6650 C   0  0  0  0  0  0  0  0  0  0  0  0
   58.6984   29.6462   49.7325 O   0  0  0  0  0  0  0  0  0  0  0  0
   60.6451   30.8350   50.4361 C   0  0  0  0  0  0  0  0  0  0  0  0
   60.5881   31.8834   49.3584 C   0  0  0  0  0  0  0  0  0  0  0  0
   61.0375   31.5758   48.0624 C   0  0  0  0  0  0  0  0  0  0  0  0
   61.0091   32.5449   47.0551 C   0  0  0  0  0  0  0  0  0  0  0  0
   60.5306   33.8279   47.3314 C   0  0  0  0  0  0  0  0  0  0  0  0
   60.0920   34.1474   48.6193 C   0  0  0  0  0  0  0  0  0  0  0  0
   60.1278   33.1850   49.6342 C   0  0  0  0  0  0  0  0  0  0  0  0
   59.7155   33.5249   50.8822 F   0  0  0  0  0  0  0  0  0  0  0  0
   53.7713   30.5183   52.5384 C   0  0  0  0  0  0  0  0  0  0  0  0
   52.7625   30.5907   51.4339 C   0  0  0  0  0  0  0  0  0  0  0  0
   52.7572   29.7725   50.3674 N   0  0  0  0  0  0  0  0  0  0  0  0
   51.7228   30.2305   49.6305 C   0  0  0  0  0  0  0  0  0  0  0  0
   51.3859   29.7090   48.5355 O   0  0  0  0  0  0  0  0  0  0  0  0
   51.0762   31.2922   50.1575 N   0  0  0  0  0  0  0  0  0  0  0  0
   51.7534   31.5131   51.2958 C   0  0  0  0  0  0  0  0  0  0  0  0
   51.4541   32.5355   52.1867 O   0  0  0  0  0  0  0  0  0  0  0  0
  1  2  2  0
  2  5  1  0
  5  6  1  0
  6  7  1  0
  7  8  2  0
  7  9  1  0
  9 10  1  0
 10 11  2  0
 11 12  1  0
 12 13  2  0
 13 14  1  0
 14 15  2  0
 15 16  1  0
  2  3  1  0
  3 17  1  0
 17 18  1  0
 18 19  1  0
 19 20  1  0
 20 21  2  0
 20 22  1  0
 22 23  1  0
 23 24  1  0
 15 10  1  0
 23 18  2  0
  3  4  1  0
M  CHG 1  19  -1
M  CHG 1  22  -1
M  CHG 1  24  -1
M  END
> <UniqueID>
72

> <SMILES>
O=C(COC(=O)Cc1ccccc1F)NCc1[n-]c(=O)[n-]c1[O-]

> <Energy>
53.21847701655092

> <Genealogy>
O=C(COC(=O)Cc1ccccc1F)NCc1[n-]c(=O)[n-]c1[O-] (protonated)
O=C(COC(=O)Cc1ccccc1F)NCc1[n-]c(=O)[n-]c1[O-] (3D coordinates assigned)
O=C(COC(=O)Cc1ccccc1F)NCc1[n-]c(=O)[n-]c1[O-] (optimized conformer: 53.21847701655092 kcal/mol)

> <smiles>
O=C(COC(=O)Cc1ccccc1F)NCc1[nH]c(=O)[nH]c1O

> <score_type>
oracle

> <origin>
adg

> <m_score__min__energy>
-16.219999999999999

> <m_primary>
energy

> <minimizedAffinity>
-5.13397

> <minimizedRMSD>
1.42873

> <CNNscore>
0.5620878935

> <CNNaffinity>
5.0642428398

> <CNN_VS>
2.8465495110

> <CNNaffinity_variance>
0.2998292744

$$$$
84:0


 30 32  0  0  0  0  0  0  0  0999 V2000
   59.7713   32.9932   46.8511 C   0  0  0  0  0  0  0  0  0  0  0  0
   59.9234   34.1377   46.0585 C   0  0  0  0  0  0  0  0  0  0  0  0
   59.1014   34.3344   44.9470 C   0  0  0  0  0  0  0  0  0  0  0  0
   58.1139   33.3973   44.6279 C   0  0  0  0  0  0  0  0  0  0  0  0
   57.9321   32.2598   45.4348 C   0  0  0  0  0  0  0  0  0  0  0  0
   58.7767   32.0563   46.5328 C   0  0  0  0  0  0  0  0  0  0  0  0
   60.8387   32.7340   48.2275 S   0  0  0  0  0  0  0  0  0  0  0  0
   62.0409   31.9600   47.7661 O   0  0  0  0  0  0  0  0  0  0  0  0
   61.2917   34.0453   48.8067 O   0  0  0  0  0  0  0  0  0  0  0  0
   60.0096   31.8280   49.4547 N   0  0  0  0  0  0  0  0  0  0  0  0
   59.2500   32.2533   49.9145 H   0  0  0  0  0  0  0  0  0  0  0  0
   61.0554   30.2670   51.0530 C   0  0  0  0  0  0  0  0  0  0  0  0
   61.4092   28.9532   51.4228 C   0  0  0  0  0  0  0  0  0  0  0  0
   61.0889   27.8752   50.5970 C   0  0  0  0  0  0  0  0  0  0  0  0
   60.4108   28.0906   49.3981 C   0  0  0  0  0  0  0  0  0  0  0  0
   60.0515   29.3840   49.0198 C   0  0  0  0  0  0  0  0  0  0  0  0
   60.3735   30.4863   49.8365 C   0  0  0  0  0  0  0  0  0  0  0  0
   60.7255   31.6877   53.0899 C   0  0  0  0  0  0  0  0  0  0  0  0
   61.3737   31.3688   51.8622 O   0  0  0  0  0  0  0  0  0  0  0  0
   56.9461   31.2611   45.1324 N   0  0  0  0  0  0  0  0  0  0  0  0
   57.1369   30.0818   44.3404 C   0  0  0  0  0  0  0  0  0  0  0  0
   56.8620   30.0868   43.1095 O   0  0  0  0  0  0  0  0  0  0  0  0
   57.6068   28.8441   44.9890 C   0  0  0  0  0  0  0  0  0  0  0  0
   58.9721   28.6058   45.2047 C   0  0  0  0  0  0  0  0  0  0  0  0
   59.3524   27.4143   45.8259 C   0  0  0  0  0  0  0  0  0  0  0  0
   60.5698   27.1701   46.0346 O   0  0  0  0  0  0  0  0  0  0  0  0
   58.4081   26.5189   46.2095 N   0  0  0  0  0  0  0  0  0  0  0  0
   57.0893   26.7616   45.9977 C   0  0  0  0  0  0  0  0  0  0  0  0
   56.2284   25.9204   46.3608 O   0  0  0  0  0  0  0  0  0  0  0  0
   56.6986   27.9142   45.3934 N   0  0  0  0  0  0  0  0  0  0  0  0
 18 19  1  0
 19 12  1  0
 12 13  2  0
 13 14  1  0
 14 15  2  0
 15 16  1  0
 16 17  2  0
 17 10  1  0
 10  7  1  0
  7  8  2  0
  7  9  2  0
  7  1  1  0
  1  2  2  0
  2  3  1  0
  3  4  2  0
  4  5  1  0
  5 20  1  0
 20 21  1  0
 21 22  2  0
 21 23  1  0
 23 24  2  0
 24 25  1  0
 25 26  2  0
 25 27  1  0
 27 28  1  0
 28 29  2  0
 28 30  1  0
  5  6  2  0
 17 12  1  0
  6  1  1  0
 30 23  1  0
 10 11  1  0
M  CHG 1  20  -1
M  CHG 1  27  -1
M  CHG 1  30  -1
M  END
> <UniqueID>
75

> <SMILES>
COc1ccccc1NS(=O)(=O)c1cccc([N-]C(=O)c2cc(=O)[n-]c(=O)[n-]2)c1

> <Energy>
52.263597491198745

> <Genealogy>
COc1ccccc1NS(=O)(=O)c1cccc([N-]C(=O)c2cc(=O)[n-]c(=O)[n-]2)c1 (protonated)
COc1ccccc1NS(=O)(=O)c1cccc([N-]C(=O)c2cc(=O)[n-]c(=O)[n-]2)c1 (3D coordinates assigned)
COc1ccccc1NS(=O)(=O)c1cccc([N-]C(=O)c2cc(=O)[n-]c(=O)[n-]2)c1 (optimized conformer: 52.263597491198745 kcal/mol)

> <smiles>
COc1ccccc1NS(=O)(=O)c1cccc(NC(=O)c2cc(=O)[nH]c(=O)[nH]2)c1

> <score_type>
oracle

> <origin>
adg

> <m_score__min__energy>
-14.77

> <m_primary>
energy

> <minimizedAffinity>
-7.56427

> <minimizedRMSD>
1.48523

> <CNNscore>
0.4903592765

> <CNNaffinity>
6.6626510620

> <CNN_VS>
3.2670927048

> <CNNaffinity_variance>
0.0936918929

$$$$
87:0


 33 35  0  0  0  0  0  0  0  0999 V2000
   60.2548   28.5566   47.4106 C   0  0  0  0  0  0  0  0  0  0  0  0
   59.9485   28.4411   46.0458 C   0  0  0  0  0  0  0  0  0  0  0  0
   59.4936   27.2260   45.5256 C   0  0  0  0  0  0  0  0  0  0  0  0
   59.3381   26.1119   46.3636 C   0  0  0  0  0  0  0  0  0  0  0  0
   59.6578   26.2224   47.7248 C   0  0  0  0  0  0  0  0  0  0  0  0
   60.1097   27.4380   48.2454 C   0  0  0  0  0  0  0  0  0  0  0  0
   58.9056   24.8163   45.8004 C   0  0  0  0  0  0  0  0  0  0  0  0
   59.8966   23.9060   45.3918 C   0  0  0  0  0  0  0  0  0  0  0  0
   59.5460   22.6492   44.8957 C   0  0  0  0  0  0  0  0  0  0  0  0
   58.2021   22.2878   44.7967 C   0  0  0  0  0  0  0  0  0  0  0  0
   57.2062   23.1876   45.1797 C   0  0  0  0  0  0  0  0  0  0  0  0
   57.5394   24.4612   45.6713 C   0  0  0  0  0  0  0  0  0  0  0  0
   56.2265   25.5819   46.0678 S   0  0  0  0  0  0  0  0  0  0  0  0
   54.7123   24.8912   45.6028 N   0  0  0  0  0  0  0  0  0  0  0  0
   56.2180   25.8761   47.5419 O   0  0  0  0  0  0  0  0  0  0  0  0
   56.4220   26.8765   45.3296 O   0  0  0  0  0  0  0  0  0  0  0  0
   54.5727   24.0117   46.1003 H   0  0  0  0  0  0  0  0  0  0  0  0
   60.8590   29.8231   47.9534 C   0  0  0  0  0  0  0  0  0  0  0  0
   59.9151   32.1596   47.9340 C   0  0  0  0  0  0  0  0  0  0  0  0
   60.5407   32.5278   48.9648 O   0  0  0  0  0  0  0  0  0  0  0  0
   60.3041   30.9683   47.2404 N   0  0  0  0  0  0  0  0  0  0  0  0
   60.1948   30.9215   46.2631 H   0  0  0  0  0  0  0  0  0  0  0  0
   58.7079   32.9199   47.4852 C   0  0  0  0  0  0  0  0  0  0  0  0
   59.0989   34.5163   44.8524 C   0  0  0  0  0  0  0  0  0  0  0  0
   58.4752   33.1625   44.9882 C   0  0  0  0  0  0  0  0  0  0  0  0
   57.8562   32.4625   43.9741 C   0  0  0  0  0  0  0  0  0  0  0  0
   57.3391   31.3439   44.6022 C   0  0  0  0  0  0  0  0  0  0  0  0
   57.6250   31.3785   45.9181 N   0  0  0  0  0  0  0  0  0  0  0  0
   58.3258   32.4793   46.1450 N   0  0  0  0  0  0  0  0  0  0  0  0
   56.5364   30.2908   43.9683 C   0  0  0  0  0  0  0  0  0  0  0  0
   55.6229   29.5243   44.7496 N   0  0  0  0  0  0  0  0  0  0  0  0
   56.6481   30.0647   42.7335 O   0  0  0  0  0  0  0  0  0  0  0  0
   55.5335   29.6987   45.7144 H   0  0  0  0  0  0  0  0  0  0  0  0
 24 25  1  0
 25 26  2  0
 26 27  1  0
 27 30  1  0
 30 31  1  0
 30 32  2  0
 27 28  2  0
 28 29  1  0
 29 23  1  0
 23 19  1  0
 19 20  2  0
 19 21  1  0
 21 18  1  0
 18  1  1  0
  1  2  2  0
  2  3  1  0
  3  4  2  0
  4  7  1  0
  7  8  2  0
  8  9  1  0
  9 10  2  0
 10 11  1  0
 11 12  2  0
 12 13  1  0
 13 14  1  0
 13 15  2  0
 13 16  2  0
  4  5  1  0
  5  6  2  0
 29 25  1  0
  6  1  1  0
 12  7  1  0
 31 33  1  0
 21 22  1  0
 14 17  1  0
M  CHG 1  14  -1
M  CHG 1  31  -1
M  END
> <UniqueID>
78

> <SMILES>
Cc1cc(C([NH-])=O)nn1CC(=O)NCc1ccc(-c2ccccc2S([NH-])(=O)=O)cc1

> <Energy>
77.0931755166923

> <Genealogy>
Cc1cc(C([NH-])=O)nn1CC(=O)NCc1ccc(-c2ccccc2S([NH-])(=O)=O)cc1 (protonated)
Cc1cc(C([NH-])=O)nn1CC(=O)NCc1ccc(-c2ccccc2S([NH-])(=O)=O)cc1 (3D coordinates assigned)
Cc1cc(C([NH-])=O)nn1CC(=O)NCc1ccc(-c2ccccc2S([NH-])(=O)=O)cc1 (optimized conformer: 77.0931755166923 kcal/mol)

> <smiles>
Cc1cc(C(N)=O)nn1CC(=O)NCc1ccc(-c2ccccc2S(N)(=O)=O)cc1

> <score_type>
oracle

> <origin>
adg

> <m_score__min__energy>
-14.800000000000001

> <m_primary>
energy

> <minimizedAffinity>
-7.13959

> <minimizedRMSD>
1.39368

> <CNNscore>
0.7329974771

> <CNNaffinity>
7.0434365273

> <CNN_VS>
5.1628212929

> <CNNaffinity_variance>
0.0881284699

$$$$
3:0


 29 31  0  0  0  0  0  0  0  0999 V2000
   61.5394   34.0349   49.4737 C   0  0  0  0  0  0  0  0  0  0  0  0
   62.0054   32.8785   48.5744 C   0  0  0  0  0  0  0  0  0  0  0  0
   63.4574   33.0750   48.1112 C   0  0  0  0  0  0  0  0  0  0  0  0
   61.0992   32.7440   47.3759 C   0  0  0  0  0  0  0  0  0  0  0  0
   60.8490   33.6776   46.5662 O   0  0  0  0  0  0  0  0  0  0  0  0
   60.5222   31.4449   47.2747 N   0  0  0  0  0  0  0  0  0  0  0  0
   61.0198   30.7571   48.4088 C   0  0  0  0  0  0  0  0  0  0  0  0
   60.8407   29.5253   48.6018 O   0  0  0  0  0  0  0  0  0  0  0  0
   61.8360   31.5781   49.2457 N   0  0  0  0  0  0  0  0  0  0  0  0
   62.3789   31.1976   50.5270 C   0  0  0  0  0  0  0  0  0  0  0  0
   63.5807   30.8378   50.6131 O   0  0  0  0  0  0  0  0  0  0  0  0
   59.4053   31.0646   46.4537 C   0  0  0  0  0  0  0  0  0  0  0  0
   58.6008   32.0459   45.8601 C   0  0  0  0  0  0  0  0  0  0  0  0
   57.5149   31.6791   45.0660 C   0  0  0  0  0  0  0  0  0  0  0  0
   57.2126   30.3299   44.8545 C   0  0  0  0  0  0  0  0  0  0  0  0
   56.1193   30.0143   44.0549 O   0  0  0  0  0  0  0  0  0  0  0  0
   58.0070   29.3208   45.4476 C   0  0  0  0  0  0  0  0  0  0  0  0
   59.1033   29.7094   46.2447 C   0  0  0  0  0  0  0  0  0  0  0  0
   57.7212   27.8724   45.2601 C   0  0  0  0  0  0  0  0  0  0  0  0
   56.4829   27.3029   45.6825 N   0  0  0  0  0  0  0  0  0  0  0  0
   58.5791   27.1231   44.7197 O   0  0  0  0  0  0  0  0  0  0  0  0
   55.7993   27.8704   46.1067 H   0  0  0  0  0  0  0  0  0  0  0  0
   61.5714   31.1810   51.7123 N   0  0  0  0  0  0  0  0  0  0  0  0
   60.3162   31.8546   51.8933 C   0  0  0  0  0  0  0  0  0  0  0  0
   60.3013   33.1013   52.5335 C   0  0  0  0  0  0  0  0  0  0  0  0
   59.0918   33.7726   52.7411 C   0  0  0  0  0  0  0  0  0  0  0  0
   57.8928   33.2100   52.2976 C   0  0  0  0  0  0  0  0  0  0  0  0
   57.9014   31.9802   51.6336 C   0  0  0  0  0  0  0  0  0  0  0  0
   59.1096   31.3073   51.4216 C   0  0  0  0  0  0  0  0  0  0  0  0
  1  2  1  0
  2  3  1  0
  2  4  1  0
  4  5  2  0
  4  6  1  0
  6 12  1  0
 12 13  2  0
 13 14  1  0
 14 15  2  0
 15 16  1  0
 15 17  1  0
 17 19  1  0
 19 20  1  0
 19 21  2  0
 17 18  2  0
  6  7  1  0
  7  8  2  0
  7  9  1  0
  9 10  1  0
 10 11  2  0
 10 23  1  0
 23 24  1  0
 24 25  2  0
 25 26  1  0
 26 27  2  0
 27 28  1  0
 28 29  2  0
  9  2  1  0
 29 24  1  0
 18 12  1  0
 20 22  1  0
M  CHG 1  16  -1
M  CHG 1  20  -1
M  CHG 1  23  -1
M  END
> <UniqueID>
3

> <SMILES>
CC1(C)C(=O)N(c2ccc([O-])c(C([NH-])=O)c2)C(=O)N1C(=O)[N-]c1ccccc1

> <Energy>
74.09628409794249

> <Genealogy>
CC1(C)C(=O)N(c2ccc([O-])c(C([NH-])=O)c2)C(=O)N1C(=O)[N-]c1ccccc1 (protonated)
CC1(C)C(=O)N(c2ccc([O-])c(C([NH-])=O)c2)C(=O)N1C(=O)[N-]c1ccccc1 (3D coordinates assigned)
CC1(C)C(=O)N(c2ccc([O-])c(C([NH-])=O)c2)C(=O)N1C(=O)[N-]c1ccccc1 (nonaromatic ring conformer: 74.09628409794249 kcal/mol)

> <smiles>
CC1(C)C(=O)N(c2ccc(O)c(C(N)=O)c2)C(=O)N1C(=O)Nc1ccccc1

> <score_type>
oracle

> <origin>
adg

> <m_score__min__energy>
-14.92

> <m_primary>
energy

> <minimizedAffinity>
-8.60816

> <minimizedRMSD>
1.50935

> <CNNscore>
0.5391351581

> <CNNaffinity>
6.5913829803

> <CNN_VS>
3.5536463261

> <CNNaffinity_variance>
0.0475317687

$$$$
8:0


 27 29  0  0  0  0  0  0  0  0999 V2000
   59.3607   28.8061   48.5638 C   0  0  0  0  0  0  0  0  0  0  0  0
   58.8253   28.8749   47.3334 C   0  0  0  0  0  0  0  0  0  0  0  0
   58.1932   27.8344   46.6465 C   0  0  0  0  0  0  0  0  0  0  0  0
   57.9392   26.5892   47.0957 C   0  0  0  0  0  0  0  0  0  0  0  0
   57.8372   28.3448   45.4050 C   0  0  0  0  0  0  0  0  0  0  0  0
   58.2573   29.6604   45.3835 C   0  0  0  0  0  0  0  0  0  0  0  0
   58.0767   30.5933   44.2251 C   0  0  0  0  0  0  0  0  0  0  0  0
   58.8631   29.9807   46.5497 N   0  0  0  0  0  0  0  0  0  0  0  0
   57.5554   25.4663   46.2111 C   0  0  0  0  0  0  0  0  0  0  0  0
   56.2282   25.2841   45.7854 C   0  0  0  0  0  0  0  0  0  0  0  0
   55.2287   26.1661   46.1845 O   0  0  0  0  0  0  0  0  0  0  0  0
   55.9143   24.2516   44.9579 N   0  0  0  0  0  0  0  0  0  0  0  0
   56.8771   23.3982   44.5121 C   0  0  0  0  0  0  0  0  0  0  0  0
   56.4887   22.1623   43.5121 S   0  0  0  0  0  0  0  0  0  0  0  0
   58.1689   23.5742   44.8871 N   0  0  0  0  0  0  0  0  0  0  0  0
   58.5288   24.5870   45.7163 C   0  0  0  0  0  0  0  0  0  0  0  0
   59.7390   24.7198   46.0401 O   0  0  0  0  0  0  0  0  0  0  0  0
   54.9798   24.1196   44.6779 H   0  0  0  0  0  0  0  0  0  0  0  0
   59.4136   31.2683   46.8833 C   0  0  0  0  0  0  0  0  0  0  0  0
   58.5674   32.3691   47.0721 C   0  0  0  0  0  0  0  0  0  0  0  0
   59.0989   33.6148   47.4069 C   0  0  0  0  0  0  0  0  0  0  0  0
   60.4796   33.7717   47.5582 C   0  0  0  0  0  0  0  0  0  0  0  0
   61.3446   32.6762   47.3752 C   0  0  0  0  0  0  0  0  0  0  0  0
   60.7987   31.4249   47.0397 C   0  0  0  0  0  0  0  0  0  0  0  0
   62.8070   32.8358   47.5349 C   0  0  0  0  0  0  0  0  0  0  0  0
   63.4557   33.5999   46.7729 O   0  0  0  0  0  0  0  0  0  0  0  0
   63.4852   32.1433   48.5317 O   0  0  0  0  0  0  0  0  0  0  0  0
  1  2  2  0
  2  3  1  0
  3  4  2  0
  4  9  1  0
  9 10  2  0
 10 11  1  0
 10 12  1  0
 12 13  1  0
 13 14  2  0
 13 15  1  0
 15 16  1  0
 16 17  2  0
  3  5  1  0
  5  6  2  0
  6  7  1  0
  6  8  1  0
  8 19  1  0
 19 20  2  0
 20 21  1  0
 21 22  2  0
 22 23  1  0
 23 25  1  0
 25 26  2  0
 25 27  1  0
 23 24  2  0
  8  2  1  0
 24 19  1  0
 16  9  1  0
 12 18  1  0
M  CHG 1  11  -1
M  CHG 1  15  -1
M  CHG 1  27  -1
M  END
> <UniqueID>
6

> <SMILES>
C=c1c(=Cc2c([O-])[nH]c(=S)[n-]c2=O)cc(C)n1-c1cccc(C(=O)[O-])c1

> <Energy>
85.77372455330482

> <Genealogy>
C=c1c(=Cc2c([O-])[nH]c(=S)[n-]c2=O)cc(C)n1-c1cccc(C(=O)[O-])c1 (protonated)
C=c1c(=Cc2c([O-])[nH]c(=S)[n-]c2=O)cc(C)n1-c1cccc(C(=O)[O-])c1 (3D coordinates assigned)
C=c1c(=Cc2c([O-])[nH]c(=S)[n-]c2=O)cc(C)n1-c1cccc(C(=O)[O-])c1 (optimized conformer: 85.77372455330482 kcal/mol)

> <smiles>
C=c1c(=Cc2c(O)[nH]c(=S)[nH]c2=O)cc(C)n1-c1cccc(C(=O)O)c1

> <score_type>
oracle

> <origin>
adg

> <m_score__min__energy>
-14.699999999999999

> <m_primary>
energy

> <minimizedAffinity>
-8.95216

> <minimizedRMSD>
1.23493

> <CNNscore>
0.2664234936

> <CNNaffinity>
6.3742461205

> <CNN_VS>
1.6982488632

> <CNNaffinity_variance>
0.0623632185

$$$$
68:0


 23 24  0  0  0  0  0  0  0  0999 V2000
   59.9354   33.2518   46.7616 C   0  0  0  0  0  0  0  0  0  0  0  0
   59.5431   31.9321   47.0356 C   0  0  0  0  0  0  0  0  0  0  0  0
   58.6703   31.2646   46.1730 C   0  0  0  0  0  0  0  0  0  0  0  0
   58.1827   31.9030   45.0273 C   0  0  0  0  0  0  0  0  0  0  0  0
   58.5180   33.2443   44.7890 C   0  0  0  0  0  0  0  0  0  0  0  0
   59.3926   33.9134   45.6488 C   0  0  0  0  0  0  0  0  0  0  0  0
   60.8793   33.9408   47.6613 C   0  0  0  0  0  0  0  0  0  0  0  0
   60.4456   34.4639   48.7217 O   0  0  0  0  0  0  0  0  0  0  0  0
   62.2846   33.9977   47.3869 N   0  0  0  0  0  0  0  0  0  0  0  0
   63.3182   33.4200   48.2392 C   0  0  0  0  0  0  0  0  0  0  0  0
   62.6377   31.4887   49.6280 C   0  0  0  0  0  0  0  0  0  0  0  0
   63.0459   31.9605   48.4471 C   0  0  0  0  0  0  0  0  0  0  0  0
   57.3249   31.1814   44.1363 N   0  0  0  0  0  0  0  0  0  0  0  0
   56.8279   29.8511   44.3423 C   0  0  0  0  0  0  0  0  0  0  0  0
   55.7098   29.7037   44.9015 O   0  0  0  0  0  0  0  0  0  0  0  0
   57.6092   28.6217   43.9494 C   0  0  0  0  0  0  0  0  0  0  0  0
   58.2424   27.9543   45.1370 C   0  0  0  0  0  0  0  0  0  0  0  0
   59.8408   28.1586   45.6373 S   0  0  0  0  0  0  0  0  0  0  0  0
   59.6486   27.1245   46.9484 C   0  0  0  0  0  0  0  0  0  0  0  0
   60.5620   26.8397   47.7668 O   0  0  0  0  0  0  0  0  0  0  0  0
   58.3990   26.6238   47.0388 N   0  0  0  0  0  0  0  0  0  0  0  0
   57.6140   27.0912   46.0341 C   0  0  0  0  0  0  0  0  0  0  0  0
   56.2781   26.7240   45.9248 O   0  0  0  0  0  0  0  0  0  0  0  0
 11 12  2  0
 12 10  1  0
 10  9  1  0
  9  7  1  0
  7  8  2  0
  7  1  1  0
  1  2  2  0
  2  3  1  0
  3  4  2  0
  4 13  1  0
 13 14  1  0
 14 15  2  0
 14 16  1  0
 16 17  1  0
 17 18  1  0
 18 19  1  0
 19 20  2  0
 19 21  1  0
 21 22  1  0
 22 23  1  0
  4  5  1  0
  5  6  2  0
  6  1  1  0
 22 17  2  0
M  CHG 1   9  -1
M  CHG 1  13  -1
M  CHG 1  21  -1
M  CHG 1  23  -1
M  END
> <UniqueID>
60

> <SMILES>
C=CC[N-]C(=O)c1ccc([N-]C(=O)Cc2sc(=O)[n-]c2[O-])cc1

> <Energy>
67.91492027171962

> <Genealogy>
C=CC[N-]C(=O)c1ccc([N-]C(=O)Cc2sc(=O)[n-]c2[O-])cc1 (protonated)
C=CC[N-]C(=O)c1ccc([N-]C(=O)Cc2sc(=O)[n-]c2[O-])cc1 (3D coordinates assigned)
C=CC[N-]C(=O)c1ccc([N-]C(=O)Cc2sc(=O)[n-]c2[O-])cc1 (optimized conformer: 67.91492027171962 kcal/mol)

> <smiles>
C=CCNC(=O)c1ccc(NC(=O)Cc2sc(=O)[nH]c2O)cc1

> <score_type>
oracle

> <origin>
adg

> <m_score__min__energy>
-15.539999999999999

> <m_primary>
energy

> <minimizedAffinity>
-6.43092

> <minimizedRMSD>
1.02760

> <CNNscore>
0.7372065187

> <CNNaffinity>
6.7044062614

> <CNN_VS>
4.9425320625

> <CNNaffinity_variance>
0.2910928130

$$$$
10:0


 32 35  0  0  0  0  0  0  0  0999 V2000
   60.7722   30.0535   49.1795 C   0  0  0  0  0  0  0  0  0  0  0  0
   61.6232   31.1645   49.0727 C   0  0  0  0  0  0  0  0  0  0  0  0
   62.1476   31.5312   47.8315 C   0  0  0  0  0  0  0  0  0  0  0  0
   61.8183   30.8008   46.6875 C   0  0  0  0  0  0  0  0  0  0  0  0
   60.9651   29.6885   46.7752 C   0  0  0  0  0  0  0  0  0  0  0  0
   60.4173   29.3447   48.0253 C   0  0  0  0  0  0  0  0  0  0  0  0
   60.1798   29.6856   50.4313 N   0  0  0  0  0  0  0  0  0  0  0  0
   60.6507   30.8228   52.3959 O   0  0  0  0  0  0  0  0  0  0  0  0
   59.8093   30.5756   51.4919 C   0  0  0  0  0  0  0  0  0  0  0  0
   58.5172   31.3501   51.4639 C   0  0  0  0  0  0  0  0  0  0  0  0
   58.2791   31.9027   50.1827 O   0  0  0  0  0  0  0  0  0  0  0  0
   59.0355   33.0818   50.0060 C   0  0  0  0  0  0  0  0  0  0  0  0
   59.1667   33.3561   48.5363 C   0  0  0  0  0  0  0  0  0  0  0  0
   59.9682   34.4155   48.0799 C   0  0  0  0  0  0  0  0  0  0  0  0
   60.0578   34.6926   46.7125 C   0  0  0  0  0  0  0  0  0  0  0  0
   59.3392   33.9233   45.7938 C   0  0  0  0  0  0  0  0  0  0  0  0
   58.5263   32.8779   46.2409 C   0  0  0  0  0  0  0  0  0  0  0  0
   58.4326   32.5989   47.6078 C   0  0  0  0  0  0  0  0  0  0  0  0
   60.5752   28.9299   45.5273 C   0  0  0  0  0  0  0  0  0  0  0  0
   59.0690   28.7746   45.4002 C   0  0  0  0  0  0  0  0  0  0  0  0
   58.3472   29.8794   44.9116 C   0  0  0  0  0  0  0  0  0  0  0  0
   56.9600   29.8214   44.8001 C   0  0  0  0  0  0  0  0  0  0  0  0
   56.3199   30.8134   44.3624 O   0  0  0  0  0  0  0  0  0  0  0  0
   56.2950   28.6995   45.1649 N   0  0  0  0  0  0  0  0  0  0  0  0
   56.9385   27.6056   45.6436 C   0  0  0  0  0  0  0  0  0  0  0  0
   56.2092   26.5168   45.9958 N   0  0  0  0  0  0  0  0  0  0  0  0
   56.8044   25.4006   46.4793 C   0  0  0  0  0  0  0  0  0  0  0  0
   56.1059   24.4040   46.7986 O   0  0  0  0  0  0  0  0  0  0  0  0
   58.1507   25.3553   46.6172 N   0  0  0  0  0  0  0  0  0  0  0  0
   58.9374   26.4106   46.2837 C   0  0  0  0  0  0  0  0  0  0  0  0
   60.1796   26.2940   46.4312 O   0  0  0  0  0  0  0  0  0  0  0  0
   58.3505   27.6001   45.7789 C   0  0  0  0  0  0  0  0  0  0  0  0
  8  9  2  0
  9 10  1  0
 10 11  1  0
 11 12  1  0
 12 13  1  0
 13 14  2  0
 14 15  1  0
 15 16  2  0
 16 17  1  0
 17 18  2  0
  9  7  1  0
  7  1  1  0
  1  2  2  0
  2  3  1  0
  3  4  2  0
  4  5  1  0
  5 19  1  0
 19 20  1  0
 20 21  2  0
 21 22  1  0
 22 23  2  0
 22 24  1  0
 24 25  1  0
 25 26  1  0
 26 27  1  0
 27 28  2  0
 27 29  1  0
 29 30  1  0
 30 31  2  0
 30 32  1  0
  5  6  2  0
 18 13  1  0
  6  1  1  0
 32 20  1  0
 32 25  2  0
M  CHG 1   7  -1
M  CHG 1  24  -1
M  CHG 1  26  -1
M  CHG 1  29  -1
M  END
> <UniqueID>
10

> <SMILES>
O=C(COCc1ccccc1)[N-]c1cccc(Cc2cc(=O)[n-]c3[n-]c(=O)[n-]c(=O)c23)c1

> <Energy>
69.836091486395

> <Genealogy>
O=C(COCc1ccccc1)[N-]c1cccc(Cc2cc(=O)[n-]c3[n-]c(=O)[n-]c(=O)c23)c1 (protonated)
O=C(COCc1ccccc1)[N-]c1cccc(Cc2cc(=O)[n-]c3[n-]c(=O)[n-]c(=O)c23)c1 (3D coordinates assigned)
O=C(COCc1ccccc1)[N-]c1cccc(Cc2cc(=O)[n-]c3[n-]c(=O)[n-]c(=O)c23)c1 (optimized conformer: 69.836091486395 kcal/mol)

> <smiles>
O=C(COCc1ccccc1)Nc1cccc(Cc2cc(=O)[nH]c3[nH]c(=O)[nH]c(=O)c23)c1

> <score_type>
oracle

> <origin>
adg

> <m_score__min__energy>
-16.84

> <m_primary>
energy

> <minimizedAffinity>
-6.41741

> <minimizedRMSD>
0.63466

> <CNNscore>
0.4982168078

> <CNNaffinity>
6.8824715614

> <CNN_VS>
3.4289629459

> <CNNaffinity_variance>
0.0429085083

$$$$
23:0


 31 34  0  0  0  0  0  0  0  0999 V2000
   57.8448   25.1240   45.2559 C   0  0  0  0  0  0  0  0  0  0  0  0
   57.7816   25.3743   44.0202 O   0  0  0  0  0  0  0  0  0  0  0  0
   56.8745   24.1845   45.8755 C   0  0  0  0  0  0  0  0  0  0  0  0
   55.5882   24.6241   46.2554 C   0  0  0  0  0  0  0  0  0  0  0  0
   55.2087   25.9514   46.0895 O   0  0  0  0  0  0  0  0  0  0  0  0
   54.7027   23.7519   46.8035 N   0  0  0  0  0  0  0  0  0  0  0  0
   55.0063   22.4456   47.0067 C   0  0  0  0  0  0  0  0  0  0  0  0
   56.2672   21.9504   46.6562 C   0  0  0  0  0  0  0  0  0  0  0  0
   57.2057   22.8265   46.0758 C   0  0  0  0  0  0  0  0  0  0  0  0
   58.3267   22.3823   45.7028 O   0  0  0  0  0  0  0  0  0  0  0  0
   56.5785   20.5195   46.8766 C   0  0  0  0  0  0  0  0  0  0  0  0
   56.2457   19.5775   45.8875 C   0  0  0  0  0  0  0  0  0  0  0  0
   56.5390   18.2242   46.0773 C   0  0  0  0  0  0  0  0  0  0  0  0
   57.1542   17.7973   47.2582 C   0  0  0  0  0  0  0  0  0  0  0  0
   57.4743   18.7249   48.2533 C   0  0  0  0  0  0  0  0  0  0  0  0
   57.1891   20.0842   48.0696 C   0  0  0  0  0  0  0  0  0  0  0  0
   57.4969   20.9894   49.0846 O   0  0  0  0  0  0  0  0  0  0  0  0
   58.8260   25.7823   46.0717 N   0  0  0  0  0  0  0  0  0  0  0  0
   58.9062   29.9491   46.9277 C   0  0  0  0  0  0  0  0  0  0  0  0
   58.0770   29.4304   45.9200 C   0  0  0  0  0  0  0  0  0  0  0  0
   58.0715   28.0598   45.6437 C   0  0  0  0  0  0  0  0  0  0  0  0
   58.8988   27.1874   46.3574 C   0  0  0  0  0  0  0  0  0  0  0  0
   59.7123   27.6947   47.3819 C   0  0  0  0  0  0  0  0  0  0  0  0
   59.7156   29.0650   47.6639 C   0  0  0  0  0  0  0  0  0  0  0  0
   61.7381   33.0126   47.2835 C   0  0  0  0  0  0  0  0  0  0  0  0
   60.4120   33.6527   47.3136 N   0  0  0  0  0  0  0  0  0  0  0  0
   59.6644   33.3120   48.5435 C   0  0  0  0  0  0  0  0  0  0  0  0
   59.2692   31.8246   48.5763 C   0  0  0  0  0  0  0  0  0  0  0  0
   58.8816   31.3584   47.2389 N   0  0  0  0  0  0  0  0  0  0  0  0
   58.5083   32.3624   46.2373 C   0  0  0  0  0  0  0  0  0  0  0  0
   59.6421   33.3920   46.0660 C   0  0  0  0  0  0  0  0  0  0  0  0
 25 26  1  0
 26 27  1  0
 27 28  1  0
 28 29  1  0
 29 19  1  0
 19 20  2  0
 20 21  1  0
 21 22  2  0
 22 18  1  0
 18  1  1  0
  1  2  2  0
  1  3  1  0
  3  4  2  0
  4  5  1  0
  4  6  1  0
  6  7  1  0
  7  8  2  0
  8 11  1  0
 11 12  2  0
 12 13  1  0
 13 14  2  0
 14 15  1  0
 15 16  2  0
 16 17  1  0
  8  9  1  0
  9 10  2  0
 22 23  1  0
 23 24  2  0
 29 30  1  0
 30 31  1  0
 31 26  1  0
 24 19  1  0
  9  3  1  0
 16 11  1  0
M  CHG 1   5  -1
M  CHG 1   6  -1
M  CHG 1  17  -1
M  CHG 1  18  -1
M  END
> <UniqueID>
21

> <SMILES>
CN1CCN(c2ccc([N-]C(=O)c3c([O-])[n-]cc(-c4ccccc4[O-])c3=O)cc2)CC1

> <Energy>
83.87300475832475

> <Genealogy>
CN1CCN(c2ccc([N-]C(=O)c3c([O-])[n-]cc(-c4ccccc4[O-])c3=O)cc2)CC1 (protonated)
CN1CCN(c2ccc([N-]C(=O)c3c([O-])[n-]cc(-c4ccccc4[O-])c3=O)cc2)CC1 (3D coordinates assigned)
CN1CCN(c2ccc([N-]C(=O)c3c([O-])[n-]cc(-c4ccccc4[O-])c3=O)cc2)CC1 (nonaromatic ring conformer: 83.87300475832475 kcal/mol)

> <smiles>
CN1CCN(c2ccc(NC(=O)c3c(O)[nH]cc(-c4ccccc4O)c3=O)cc2)CC1

> <score_type>
oracle

> <origin>
adg

> <m_score__min__energy>
-16.710000000000001

> <m_primary>
energy

> <minimizedAffinity>
-7.56207

> <minimizedRMSD>
2.39740

> <CNNscore>
0.0505374782

> <CNNaffinity>
5.3398995399

> <CNN_VS>
0.2698650658

> <CNNaffinity_variance>
0.1401147395

$$$$
24:0


 24 26  0  0  0  0  0  0  0  0999 V2000
   57.4044   26.6340   46.1515 C   0  0  0  0  0  0  0  0  0  0  0  0
   58.4223   25.7986   46.6438 C   0  0  0  0  0  0  0  0  0  0  0  0
   59.7468   26.2345   46.6582 C   0  0  0  0  0  0  0  0  0  0  0  0
   60.0724   27.5058   46.1826 C   0  0  0  0  0  0  0  0  0  0  0  0
   59.0717   28.3607   45.6913 C   0  0  0  0  0  0  0  0  0  0  0  0
   57.7335   27.9149   45.6760 C   0  0  0  0  0  0  0  0  0  0  0  0
   56.7223   28.7397   45.1989 O   0  0  0  0  0  0  0  0  0  0  0  0
   56.0307   26.2218   46.1176 N   0  0  0  0  0  0  0  0  0  0  0  0
   56.3569   23.7846   44.6171 C   0  0  0  0  0  0  0  0  0  0  0  0
   55.4603   24.5935   45.9250 S   0  0  0  0  0  0  0  0  0  0  0  0
   55.6992   23.8455   47.2061 O   0  0  0  0  0  0  0  0  0  0  0  0
   53.9868   24.5936   45.6331 O   0  0  0  0  0  0  0  0  0  0  0  0
   59.4587   29.7201   45.1561 C   0  0  0  0  0  0  0  0  0  0  0  0
   59.8635   30.6374   46.2850 C   0  0  0  0  0  0  0  0  0  0  0  0
   60.6800   30.1154   47.2412 N   0  0  0  0  0  0  0  0  0  0  0  0
   61.0998   30.8256   48.2866 N   0  0  0  0  0  0  0  0  0  0  0  0
   60.7336   32.1174   48.4610 C   0  0  0  0  0  0  0  0  0  0  0  0
   61.1401   32.7435   49.4749 O   0  0  0  0  0  0  0  0  0  0  0  0
   59.9042   32.7334   47.5134 C   0  0  0  0  0  0  0  0  0  0  0  0
   59.4627   31.9935   46.4007 C   0  0  0  0  0  0  0  0  0  0  0  0
   58.5103   32.6894   45.4502 C   0  0  0  0  0  0  0  0  0  0  0  0
   58.9942   34.1160   45.1287 C   0  0  0  0  0  0  0  0  0  0  0  0
   59.4876   34.9189   46.3567 C   0  0  0  0  0  0  0  0  0  0  0  0
   59.4124   34.1507   47.6848 C   0  0  0  0  0  0  0  0  0  0  0  0
  9 10  1  0
 10 11  2  0
 10 12  2  0
 10  8  1  0
  8  1  1  0
  1  2  2  0
  2  3  1  0
  3  4  2  0
  4  5  1  0
  5 13  1  0
 13 14  1  0
 14 15  2  0
 15 16  1  0
 16 17  1  0
 17 18  2  0
 17 19  1  0
 19 20  2  0
 20 21  1  0
 21 22  1  0
 22 23  1  0
 23 24  1  0
  5  6  2  0
  6  7  1  0
  6  1  1  0
 20 14  1  0
 24 19  1  0
M  CHG 1   7  -1
M  CHG 1   8  -1
M  CHG 1  16  -1
M  END
> <UniqueID>
22

> <SMILES>
CS(=O)(=O)[N-]c1cccc(Cc2n[n-]c(=O)c3c2CCCC3)c1[O-]

> <Energy>
51.21054910615552

> <Genealogy>
CS(=O)(=O)[N-]c1cccc(Cc2n[n-]c(=O)c3c2CCCC3)c1[O-] (protonated)
CS(=O)(=O)[N-]c1cccc(Cc2n[n-]c(=O)c3c2CCCC3)c1[O-] (3D coordinates assigned)
CS(=O)(=O)[N-]c1cccc(Cc2n[n-]c(=O)c3c2CCCC3)c1[O-] (nonaromatic ring conformer: 51.21054910615552 kcal/mol)

> <smiles>
CS(=O)(=O)Nc1cccc(Cc2n[nH]c(=O)c3c2CCCC3)c1O

> <score_type>
oracle

> <origin>
adg

> <m_score__min__energy>
-15.539999999999999

> <m_primary>
energy

> <minimizedAffinity>
-8.39719

> <minimizedRMSD>
1.50608

> <CNNscore>
0.8407253027

> <CNNaffinity>
7.0510430336

> <CNN_VS>
5.9279904366

> <CNNaffinity_variance>
0.2337457687

$$$$
40:0


 27 29  0  0  0  0  0  0  0  0999 V2000
   58.3452   27.3435   45.7831 N   0  0  0  0  0  0  0  0  0  0  0  0
   57.8615   26.8468   47.0523 C   0  0  0  0  0  0  0  0  0  0  0  0
   58.0784   27.5108   48.1034 O   0  0  0  0  0  0  0  0  0  0  0  0
   57.0971   25.5813   47.1559 C   0  0  0  0  0  0  0  0  0  0  0  0
   57.6552   24.4837   47.8230 C   0  0  0  0  0  0  0  0  0  0  0  0
   56.9583   23.3226   47.9341 N   0  0  0  0  0  0  0  0  0  0  0  0
   55.7208   23.1983   47.3924 C   0  0  0  0  0  0  0  0  0  0  0  0
   55.0887   22.1158   47.5097 O   0  0  0  0  0  0  0  0  0  0  0  0
   55.1650   24.2373   46.7194 N   0  0  0  0  0  0  0  0  0  0  0  0
   55.8236   25.4174   46.5813 C   0  0  0  0  0  0  0  0  0  0  0  0
   55.2889   26.3438   45.9161 O   0  0  0  0  0  0  0  0  0  0  0  0
   58.2621   28.7464   45.4505 C   0  0  0  0  0  0  0  0  0  0  0  0
   59.3605   29.5898   45.6863 C   0  0  0  0  0  0  0  0  0  0  0  0
   59.2965   30.9454   45.3555 C   0  0  0  0  0  0  0  0  0  0  0  0
   58.1310   31.4751   44.7964 C   0  0  0  0  0  0  0  0  0  0  0  0
   57.0249   30.6507   44.5743 C   0  0  0  0  0  0  0  0  0  0  0  0
   57.0809   29.2924   44.9068 C   0  0  0  0  0  0  0  0  0  0  0  0
   55.9571   28.4983   44.7104 O   0  0  0  0  0  0  0  0  0  0  0  0
   59.0192   26.4242   44.8512 C   0  0  0  0  0  0  0  0  0  0  0  0
   57.5695   26.4865   42.9484 O   0  0  0  0  0  0  0  0  0  0  0  0
   58.0434   25.7923   43.8902 C   0  0  0  0  0  0  0  0  0  0  0  0
   57.6533   24.3622   44.0064 C   0  0  0  0  0  0  0  0  0  0  0  0
   58.4707   23.4654   44.7224 C   0  0  0  0  0  0  0  0  0  0  0  0
   58.1152   22.1181   44.8411 C   0  0  0  0  0  0  0  0  0  0  0  0
   56.9408   21.6486   44.2507 C   0  0  0  0  0  0  0  0  0  0  0  0
   56.1169   22.5250   43.5433 C   0  0  0  0  0  0  0  0  0  0  0  0
   56.4674   23.8735   43.4205 C   0  0  0  0  0  0  0  0  0  0  0  0
 20 21  2  0
 21 19  1  0
 19  1  1  0
  1  2  1  0
  2  3  2  0
  2  4  1  0
  4  5  2  0
  5  6  1  0
  6  7  1  0
  7  8  2  0
  7  9  1  0
  9 10  1  0
 10 11  2  0
  1 12  1  0
 12 13  2  0
 13 14  1  0
 14 15  2  0
 15 16  1  0
 16 17  2  0
 17 18  1  0
 21 22  1  0
 22 23  2  0
 23 24  1  0
 24 25  2  0
 25 26  1  0
 26 27  2  0
 10  4  1  0
 17 12  1  0
 27 22  1  0
M  CHG 1   6  -1
M  CHG 1   9  -1
M  CHG 1  18  -1
M  END
> <UniqueID>
37

> <SMILES>
O=C(CN(C(=O)c1c[n-]c(=O)[n-]c1=O)c1ccccc1[O-])c1ccccc1

> <Energy>
56.80906322467151

> <Genealogy>
O=C(CN(C(=O)c1c[n-]c(=O)[n-]c1=O)c1ccccc1[O-])c1ccccc1 (protonated)
O=C(CN(C(=O)c1c[n-]c(=O)[n-]c1=O)c1ccccc1[O-])c1ccccc1 (3D coordinates assigned)
O=C(CN(C(=O)c1c[n-]c(=O)[n-]c1=O)c1ccccc1[O-])c1ccccc1 (optimized conformer: 56.80906322467151 kcal/mol)

> <smiles>
O=C(CN(C(=O)c1c[nH]c(=O)[nH]c1=O)c1ccccc1O)c1ccccc1

> <score_type>
oracle

> <origin>
adg

> <m_score__min__energy>
-14.69

> <m_primary>
energy

> <minimizedAffinity>
-2.84024

> <minimizedRMSD>
0.72230

> <CNNscore>
0.1292313635

> <CNNaffinity>
4.8780016899

> <CNN_VS>
0.6303908229

> <CNNaffinity_variance>
0.1216780171

$$$$
44:0


 24 26  0  0  0  0  0  0  0  0999 V2000
   59.1169   32.9584   46.8519 C   0  0  0  0  0  0  0  0  0  0  0  0
   59.1827   31.8434   46.0714 N   0  0  0  0  0  0  0  0  0  0  0  0
   58.2095   31.8160   45.1377 C   0  0  0  0  0  0  0  0  0  0  0  0
   58.0421   30.8566   44.2757 N   0  0  0  0  0  0  0  0  0  0  0  0
   57.2310   33.1727   45.2148 S   0  0  0  0  0  0  0  0  0  0  0  0
   58.0762   33.8331   46.5131 C   0  0  0  0  0  0  0  0  0  0  0  0
   62.3881   33.3141   48.7585 C   0  0  0  0  0  0  0  0  0  0  0  0
   61.9264   33.5253   50.0661 C   0  0  0  0  0  0  0  0  0  0  0  0
   60.5557   33.5632   50.3289 C   0  0  0  0  0  0  0  0  0  0  0  0
   59.6349   33.3869   49.2950 C   0  0  0  0  0  0  0  0  0  0  0  0
   60.0732   33.1709   47.9724 C   0  0  0  0  0  0  0  0  0  0  0  0
   61.4595   33.1436   47.7205 C   0  0  0  0  0  0  0  0  0  0  0  0
   63.8313   33.2659   48.4586 C   0  0  0  0  0  0  0  0  0  0  0  0
   64.2464   33.0210   47.2959 O   0  0  0  0  0  0  0  0  0  0  0  0
   56.9957   29.8704   44.2681 C   0  0  0  0  0  0  0  0  0  0  0  0
   56.2431   29.7944   43.2628 O   0  0  0  0  0  0  0  0  0  0  0  0
   56.8134   28.9365   45.3420 N   0  0  0  0  0  0  0  0  0  0  0  0
   57.5927   27.9505   45.6947 C   0  0  0  0  0  0  0  0  0  0  0  0
   58.9328   28.1889   45.7421 N   0  0  0  0  0  0  0  0  0  0  0  0
   59.8315   27.2475   46.1308 C   0  0  0  0  0  0  0  0  0  0  0  0
   59.3951   25.9761   46.4971 C   0  0  0  0  0  0  0  0  0  0  0  0
   58.0339   25.6808   46.4405 C   0  0  0  0  0  0  0  0  0  0  0  0
   57.1197   26.6552   46.0283 C   0  0  0  0  0  0  0  0  0  0  0  0
   55.7763   26.3076   45.9363 O   0  0  0  0  0  0  0  0  0  0  0  0
 13 14  2  0
 13  7  1  0
  7  8  2  0
  8  9  1  0
  9 10  2  0
 10 11  1  0
 11  1  1  0
  1  2  1  0
  2  3  1  0
  3  4  2  0
  4 15  1  0
 15 16  2  0
 15 17  1  0
 17 18  2  0
 18 19  1  0
 19 20  1  0
 20 21  2  0
 21 22  1  0
 22 23  2  0
 23 24  1  0
  3  5  1  0
  5  6  1  0
 11 12  2  0
 12  7  1  0
  6  1  2  0
 23 18  1  0
M  CHG 1   2  -1
M  CHG 1  19  -1
M  CHG 1  24  -1
M  END
> <UniqueID>
40

> <SMILES>
O=Cc1cccc(-c2cs/c(=N/C(=O)N=c3[n-]cccc3[O-])[n-]2)c1

> <Energy>
81.80869336237453

> <Genealogy>
O=Cc1cccc(-c2csc(=NC(=O)N=c3[n-]cccc3[O-])[n-]2)c1 (protonated)
O=Cc1cccc(-c2cs/c(=N/C(=O)N=c3[n-]cccc3[O-])[n-]2)c1 (cis-trans isomerization)
O=Cc1cccc(-c2cs/c(=N/C(=O)N=c3[n-]cccc3[O-])[n-]2)c1 (3D coordinates assigned)
O=Cc1cccc(-c2cs/c(=N/C(=O)N=c3[n-]cccc3[O-])[n-]2)c1 (optimized conformer: 81.80869336237453 kcal/mol)

> <smiles>
O=Cc1cccc(-c2csc(=NC(=O)N=c3[nH]cccc3O)[nH]2)c1

> <score_type>
oracle

> <origin>
adg

> <m_score__min__energy>
-15.07

> <m_primary>
energy

> <minimizedAffinity>
-7.03140

> <minimizedRMSD>
1.10327

> <CNNscore>
0.7131457329

> <CNNaffinity>
6.5799522400

> <CNN_VS>
4.6924648285

> <CNNaffinity_variance>
0.1985381395

$$$$
79:0


 29 31  0  0  0  0  0  0  0  0999 V2000
   58.9798   27.8581   46.5069 N   0  0  0  0  0  0  0  0  0  0  0  0
   59.4759   26.8552   47.2939 C   0  0  0  0  0  0  0  0  0  0  0  0
   58.6915   25.7476   47.6197 C   0  0  0  0  0  0  0  0  0  0  0  0
   57.3764   25.6710   47.1680 C   0  0  0  0  0  0  0  0  0  0  0  0
   56.8727   26.6983   46.3526 C   0  0  0  0  0  0  0  0  0  0  0  0
   55.5835   26.6321   45.8321 O   0  0  0  0  0  0  0  0  0  0  0  0
   57.6925   27.7894   46.0315 C   0  0  0  0  0  0  0  0  0  0  0  0
   57.2351   28.7067   45.2944 O   0  0  0  0  0  0  0  0  0  0  0  0
   59.8433   29.0053   46.1746 C   0  0  0  0  0  0  0  0  0  0  0  0
   59.0563   30.0940   48.1506 O   0  0  0  0  0  0  0  0  0  0  0  0
   59.4247   30.2189   46.9501 C   0  0  0  0  0  0  0  0  0  0  0  0
   59.4610   31.5124   46.3371 N   0  0  0  0  0  0  0  0  0  0  0  0
   59.4719   31.5756   45.3547 H   0  0  0  0  0  0  0  0  0  0  0  0
   59.4824   32.7421   47.1273 C   0  0  0  0  0  0  0  0  0  0  0  0
   60.8610   32.9808   47.6851 C   0  0  0  0  0  0  0  0  0  0  0  0
   62.0047   32.7743   46.8997 C   0  0  0  0  0  0  0  0  0  0  0  0
   63.2709   33.0154   47.4345 C   0  0  0  0  0  0  0  0  0  0  0  0
   63.3851   33.4626   48.7522 C   0  0  0  0  0  0  0  0  0  0  0  0
   62.2688   33.6570   49.5033 N   0  0  0  0  0  0  0  0  0  0  0  0
   61.0234   33.4246   49.0063 C   0  0  0  0  0  0  0  0  0  0  0  0
   56.6105   24.4936   47.4669 N   0  0  0  0  0  0  0  0  0  0  0  0
   56.8871   23.1752   46.9815 C   0  0  0  0  0  0  0  0  0  0  0  0
   57.2097   22.2798   47.8075 O   0  0  0  0  0  0  0  0  0  0  0  0
   56.7305   22.8336   45.5525 C   0  0  0  0  0  0  0  0  0  0  0  0
   55.8256   23.5352   44.7381 C   0  0  0  0  0  0  0  0  0  0  0  0
   55.7268   23.2088   43.3843 C   0  0  0  0  0  0  0  0  0  0  0  0
   56.5331   22.2014   42.8506 C   0  0  0  0  0  0  0  0  0  0  0  0
   57.4287   21.5322   43.6850 C   0  0  0  0  0  0  0  0  0  0  0  0
   57.5041   21.8553   45.0043 N   0  0  0  0  0  0  0  0  0  0  0  0
 10 11  2  0
 11  9  1  0
  9  1  1  0
  1  2  1  0
  2  3  2  0
  3  4  1  0
  4 21  1  0
 21 22  1  0
 22 23  2  0
 22 24  1  0
 24 25  2  0
 25 26  1  0
 26 27  2  0
 27 28  1  0
 28 29  2  0
  4  5  2  0
  5  6  1  0
  5  7  1  0
  7  8  2  0
 11 12  1  0
 12 14  1  0
 14 15  1  0
 15 16  2  0
 16 17  1  0
 17 18  2  0
 18 19  1  0
 19 20  2  0
  7  1  1  0
 20 15  1  0
 29 24  1  0
 12 13  1  0
M  CHG 1   6  -1
M  CHG 1  21  -1
M  END
> <UniqueID>
72

> <SMILES>
O=C(Cn1ccc([N-]C(=O)c2ccccn2)c([O-])c1=O)NCc1cccnc1

> <Energy>
51.20057946305979

> <Genealogy>
O=C(Cn1ccc([N-]C(=O)c2ccccn2)c([O-])c1=O)NCc1cccnc1 (protonated)
O=C(Cn1ccc([N-]C(=O)c2ccccn2)c([O-])c1=O)NCc1cccnc1 (3D coordinates assigned)
O=C(Cn1ccc([N-]C(=O)c2ccccn2)c([O-])c1=O)NCc1cccnc1 (optimized conformer: 51.20057946305979 kcal/mol)

> <smiles>
O=C(Cn1ccc(NC(=O)c2ccccn2)c(O)c1=O)NCc1cccnc1

> <score_type>
oracle

> <origin>
adg

> <m_score__min__energy>
-14.039999999999999

> <m_primary>
energy

> <minimizedAffinity>
-6.27195

> <minimizedRMSD>
2.14355

> <CNNscore>
0.1984208673

> <CNNaffinity>
6.3546910286

> <CNN_VS>
1.2609033585

> <CNNaffinity_variance>
0.3374482095

$$$$
18:0


 34 37  0  0  0  0  0  0  0  0999 V2000
   57.8912   29.8605   44.8013 C   0  0  0  0  0  0  0  0  0  0  0  0
   58.2885   31.0628   45.2698 C   0  0  0  0  0  0  0  0  0  0  0  0
   58.3543   32.2554   44.5632 C   0  0  0  0  0  0  0  0  0  0  0  0
   58.7864   33.2219   45.4476 C   0  0  0  0  0  0  0  0  0  0  0  0
   59.0337   34.6534   45.0760 C   0  0  0  0  0  0  0  0  0  0  0  0
   58.9852   32.6887   46.6768 N   0  0  0  0  0  0  0  0  0  0  0  0
   58.6961   31.3646   46.5768 C   0  0  0  0  0  0  0  0  0  0  0  0
   58.8248   30.4897   47.5873 C   0  0  0  0  0  0  0  0  0  0  0  0
   58.2759   26.5294   46.2242 N   0  0  0  0  0  0  0  0  0  0  0  0
   57.5240   27.5474   45.7777 C   0  0  0  0  0  0  0  0  0  0  0  0
   56.1336   27.5705   45.7970 O   0  0  0  0  0  0  0  0  0  0  0  0
   58.3469   28.5514   45.3154 C   0  0  0  0  0  0  0  0  0  0  0  0
   59.6349   28.1803   45.4932 N   0  0  0  0  0  0  0  0  0  0  0  0
   59.5450   26.9503   46.0451 C   0  0  0  0  0  0  0  0  0  0  0  0
   60.5562   26.2711   46.3651 O   0  0  0  0  0  0  0  0  0  0  0  0
   57.8183   25.2884   46.8509 C   0  0  0  0  0  0  0  0  0  0  0  0
   55.1241   25.0602   45.7924 O   0  0  0  0  0  0  0  0  0  0  0  0
   56.1075   24.1946   45.3153 C   0  0  0  0  0  0  0  0  0  0  0  0
   55.7778   23.2297   44.3510 C   0  0  0  0  0  0  0  0  0  0  0  0
   56.7517   22.3535   43.8692 C   0  0  0  0  0  0  0  0  0  0  0  0
   58.0619   22.4345   44.3460 C   0  0  0  0  0  0  0  0  0  0  0  0
   58.4011   23.3909   45.3061 C   0  0  0  0  0  0  0  0  0  0  0  0
   57.4315   24.2839   45.7936 C   0  0  0  0  0  0  0  0  0  0  0  0
   54.2466   24.9954   45.4703 H   0  0  0  0  0  0  0  0  0  0  0  0
   59.4531   33.4122   47.8712 C   0  0  0  0  0  0  0  0  0  0  0  0
   60.8529   32.9803   48.2715 C   0  0  0  0  0  0  0  0  0  0  0  0
   61.9353   33.1936   47.3932 C   0  0  0  0  0  0  0  0  0  0  0  0
   61.7485   33.7897   46.1893 F   0  0  0  0  0  0  0  0  0  0  0  0
   63.2256   32.7948   47.7482 C   0  0  0  0  0  0  0  0  0  0  0  0
   63.4525   32.1661   48.9701 C   0  0  0  0  0  0  0  0  0  0  0  0
   62.3912   31.9284   49.8441 C   0  0  0  0  0  0  0  0  0  0  0  0
   61.0825   32.3261   49.5063 C   0  0  0  0  0  0  0  0  0  0  0  0
   59.9990   32.0906   50.3691 O   0  0  0  0  0  0  0  0  0  0  0  0
   59.7176   32.8497   51.5423 C   0  0  0  0  0  0  0  0  0  0  0  0
 17 18  1  0
 18 19  2  0
 19 20  1  0
 20 21  2  0
 21 22  1  0
 22 23  2  0
 23 16  1  0
 16  9  1  0
  9 10  1  0
 10 11  1  0
 10 12  2  0
 12  1  1  0
  1  2  2  0
  2  3  1  0
  3  4  2  0
  4  5  1  0
  4  6  1  0
  6 25  1  0
 25 26  1  0
 26 27  2  0
 27 28  1  0
 27 29  1  0
 29 30  2  0
 30 31  1  0
 31 32  2  0
 32 33  1  0
 33 34  1  0
  6  7  1  0
  7  8  2  0
 12 13  1  0
 13 14  1  0
 14 15  2  0
 23 18  1  0
 14  9  1  0
  7  2  1  0
 32 26  1  0
 17 24  1  0
M  CHG 1  11  -1
M  CHG 1  13  -1
M  END
> <UniqueID>
17

> <SMILES>
C=c1/c(=C/c2[n-]c(=O)n(Cc3ccccc3O)c2[O-])cc(C)n1Cc1c(F)cccc1OC

> <Energy>
124.29696495918779

> <Genealogy>
C=c1c(=Cc2[n-]c(=O)n(Cc3ccccc3O)c2[O-])cc(C)n1Cc1c(F)cccc1OC (protonated)
C=c1/c(=C/c2[n-]c(=O)n(Cc3ccccc3O)c2[O-])cc(C)n1Cc1c(F)cccc1OC (cis-trans isomerization)
C=c1/c(=C/c2[n-]c(=O)n(Cc3ccccc3O)c2[O-])cc(C)n1Cc1c(F)cccc1OC (3D coordinates assigned)
C=c1/c(=C/c2[n-]c(=O)n(Cc3ccccc3O)c2[O-])cc(C)n1Cc1c(F)cccc1OC (optimized conformer: 124.29696495918779 kcal/mol)

> <smiles>
C=c1c(=Cc2[nH]c(=O)n(Cc3ccccc3O)c2O)cc(C)n1Cc1c(F)cccc1OC

> <score_type>
oracle

> <origin>
adg

> <m_score__min__energy>
-14.1

> <m_primary>
energy

> <minimizedAffinity>
-9.20788

> <minimizedRMSD>
0.70896

> <CNNscore>
0.6835103631

> <CNNaffinity>
7.4728178978

> <CNN_VS>
5.1077485085

> <CNNaffinity_variance>
0.0872603282

$$$$
38:0


 31 33  0  0  0  0  0  0  0  0999 V2000
   58.9836   26.3230   46.8722 C   0  0  0  0  0  0  0  0  0  0  0  0
   58.5773   25.1750   47.4706 N   0  0  0  0  0  0  0  0  0  0  0  0
   57.2971   24.7359   47.3483 C   0  0  0  0  0  0  0  0  0  0  0  0
   56.9681   23.6479   47.8881 O   0  0  0  0  0  0  0  0  0  0  0  0
   56.3691   25.4854   46.5993 C   0  0  0  0  0  0  0  0  0  0  0  0
   56.8224   26.6496   45.9716 C   0  0  0  0  0  0  0  0  0  0  0  0
   55.9590   27.4108   45.1938 O   0  0  0  0  0  0  0  0  0  0  0  0
   58.1109   27.0469   46.1241 N   0  0  0  0  0  0  0  0  0  0  0  0
   60.6805   26.8700   47.0392 S   0  0  0  0  0  0  0  0  0  0  0  0
   60.2636   28.4141   47.9220 C   0  0  0  0  0  0  0  0  0  0  0  0
   59.2677   30.6894   47.3623 N   0  0  0  0  0  0  0  0  0  0  0  0
   60.0540   29.5528   46.9679 C   0  0  0  0  0  0  0  0  0  0  0  0
   60.5707   29.4983   45.8198 O   0  0  0  0  0  0  0  0  0  0  0  0
   58.7778   30.6431   48.2150 H   0  0  0  0  0  0  0  0  0  0  0  0
   59.9486   33.0275   46.8561 C   0  0  0  0  0  0  0  0  0  0  0  0
   59.7903   34.1823   46.0645 C   0  0  0  0  0  0  0  0  0  0  0  0
   58.8375   34.2161   45.0427 C   0  0  0  0  0  0  0  0  0  0  0  0
   58.0285   33.1033   44.8030 C   0  0  0  0  0  0  0  0  0  0  0  0
   58.1844   31.9492   45.5702 C   0  0  0  0  0  0  0  0  0  0  0  0
   59.1577   31.8896   46.5801 C   0  0  0  0  0  0  0  0  0  0  0  0
   60.8604   33.9239   49.0107 C   0  0  0  0  0  0  0  0  0  0  0  0
   60.8499   32.9918   47.9356 O   0  0  0  0  0  0  0  0  0  0  0  0
   55.0051   25.0678   46.4091 N   0  0  0  0  0  0  0  0  0  0  0  0
   54.5377   24.1106   45.4484 C   0  0  0  0  0  0  0  0  0  0  0  0
   53.3045   24.0717   45.1931 O   0  0  0  0  0  0  0  0  0  0  0  0
   55.4513   23.1415   44.7941 C   0  0  0  0  0  0  0  0  0  0  0  0
   56.0386   23.4301   43.5497 C   0  0  0  0  0  0  0  0  0  0  0  0
   56.8965   22.5081   42.9418 C   0  0  0  0  0  0  0  0  0  0  0  0
   57.1856   21.2966   43.5743 C   0  0  0  0  0  0  0  0  0  0  0  0
   56.6213   21.0053   44.8172 C   0  0  0  0  0  0  0  0  0  0  0  0
   55.7625   21.9237   45.4284 C   0  0  0  0  0  0  0  0  0  0  0  0
 21 22  1  0
 22 15  1  0
 15 16  2  0
 16 17  1  0
 17 18  2  0
 18 19  1  0
 19 20  2  0
 20 11  1  0
 11 12  1  0
 12 13  2  0
 12 10  1  0
 10  9  1  0
  9  1  1  0
  1  2  2  0
  2  3  1  0
  3  4  2  0
  3  5  1  0
  5 23  1  0
 23 24  1  0
 24 25  2  0
 24 26  1  0
 26 27  2  0
 27 28  1  0
 28 29  2  0
 29 30  1  0
 30 31  2  0
  5  6  2  0
  6  7  1  0
  6  8  1  0
 20 15  1  0
  8  1  1  0
 31 26  1  0
 11 14  1  0
M  CHG 1   7  -1
M  CHG 1   8  -1
M  CHG 1  23  -1
M  END
> <UniqueID>
37

> <SMILES>
COc1ccccc1NC(=O)CSc1nc(=O)c([N-]C(=O)c2ccccc2)c([O-])[n-]1

> <Energy>
55.76330629529149

> <Genealogy>
COc1ccccc1NC(=O)CSc1nc(=O)c([N-]C(=O)c2ccccc2)c([O-])[n-]1 (protonated)
COc1ccccc1NC(=O)CSc1nc(=O)c([N-]C(=O)c2ccccc2)c([O-])[n-]1 (3D coordinates assigned)
COc1ccccc1NC(=O)CSc1nc(=O)c([N-]C(=O)c2ccccc2)c([O-])[n-]1 (optimized conformer: 55.76330629529149 kcal/mol)

> <smiles>
COc1ccccc1NC(=O)CSc1nc(=O)c(NC(=O)c2ccccc2)c(O)[nH]1

> <score_type>
oracle

> <origin>
adg

> <m_score__min__energy>
-15.49

> <m_primary>
energy

> <minimizedAffinity>
-6.29740

> <minimizedRMSD>
2.06681

> <CNNscore>
0.1813829094

> <CNNaffinity>
5.7659077644

> <CNN_VS>
1.0458371639

> <CNNaffinity_variance>
0.0859811530

$$$$
41:0


 26 28  0  0  0  0  0  0  0  0999 V2000
   58.0703   31.5774   45.3657 C   0  0  0  0  0  0  0  0  0  0  0  0
   57.7212   32.7707   44.7015 C   0  0  0  0  0  0  0  0  0  0  0  0
   57.9379   34.0111   45.3014 C   0  0  0  0  0  0  0  0  0  0  0  0
   58.5016   34.0869   46.5726 C   0  0  0  0  0  0  0  0  0  0  0  0
   58.8649   32.9191   47.2441 C   0  0  0  0  0  0  0  0  0  0  0  0
   58.6658   31.6621   46.6528 C   0  0  0  0  0  0  0  0  0  0  0  0
   57.7392   30.2777   44.7235 C   0  0  0  0  0  0  0  0  0  0  0  0
   57.7603   30.1565   43.4688 O   0  0  0  0  0  0  0  0  0  0  0  0
   60.1540   27.0641   46.0029 C   0  0  0  0  0  0  0  0  0  0  0  0
   59.3579   28.1279   45.7181 N   0  0  0  0  0  0  0  0  0  0  0  0
   57.9997   28.0786   45.8216 C   0  0  0  0  0  0  0  0  0  0  0  0
   57.3329   29.1634   45.5326 N   0  0  0  0  0  0  0  0  0  0  0  0
   57.3903   26.8521   46.1963 C   0  0  0  0  0  0  0  0  0  0  0  0
   56.0112   26.6776   46.2130 O   0  0  0  0  0  0  0  0  0  0  0  0
   58.2014   25.7568   46.5093 C   0  0  0  0  0  0  0  0  0  0  0  0
   59.5871   25.8611   46.4180 C   0  0  0  0  0  0  0  0  0  0  0  0
   59.0931   30.4920   47.3582 N   0  0  0  0  0  0  0  0  0  0  0  0
   58.8494   29.6010   47.0175 H   0  0  0  0  0  0  0  0  0  0  0  0
   60.0341   30.6288   48.8044 S   0  0  0  0  0  0  0  0  0  0  0  0
   60.5903   29.2841   49.1825 O   0  0  0  0  0  0  0  0  0  0  0  0
   59.1688   31.1345   49.9231 O   0  0  0  0  0  0  0  0  0  0  0  0
   61.3395   31.7697   48.5333 C   0  0  0  0  0  0  0  0  0  0  0  0
   61.7350   33.0510   49.5490 S   0  0  0  0  0  0  0  0  0  0  0  0
   63.0952   33.5410   48.6859 C   0  0  0  0  0  0  0  0  0  0  0  0
   63.2549   32.6915   47.5951 C   0  0  0  0  0  0  0  0  0  0  0  0
   62.2739   31.6950   47.5123 C   0  0  0  0  0  0  0  0  0  0  0  0
  9 10  1  0
 10 11  1  0
 11 12  2  0
 12  7  1  0
  7  8  2  0
  7  1  1  0
  1  2  2  0
  2  3  1  0
  3  4  2  0
  4  5  1  0
  5  6  2  0
  6 17  1  0
 17 19  1  0
 19 20  2  0
 19 21  2  0
 19 22  1  0
 22 23  1  0
 23 24  1  0
 24 25  2  0
 25 26  1  0
 11 13  1  0
 13 14  1  0
 13 15  2  0
 15 16  1  0
 16  9  2  0
  6  1  1  0
 26 22  2  0
 17 18  1  0
M  CHG 1  10  -1
M  CHG 1  14  -1
M  END
> <UniqueID>
40

> <SMILES>
O=C(/N=c1/[n-]cccc1[O-])c1ccccc1NS(=O)(=O)c1cccs1

> <Energy>
85.81529741152903

> <Genealogy>
O=C(N=c1[n-]cccc1[O-])c1ccccc1NS(=O)(=O)c1cccs1 (protonated)
O=C(/N=c1/[n-]cccc1[O-])c1ccccc1NS(=O)(=O)c1cccs1 (cis-trans isomerization)
O=C(/N=c1/[n-]cccc1[O-])c1ccccc1NS(=O)(=O)c1cccs1 (3D coordinates assigned)
O=C(/N=c1/[n-]cccc1[O-])c1ccccc1NS(=O)(=O)c1cccs1 (optimized conformer: 85.81529741152903 kcal/mol)

> <smiles>
O=C(N=c1[nH]cccc1O)c1ccccc1NS(=O)(=O)c1cccs1

> <score_type>
oracle

> <origin>
adg

> <m_score__min__energy>
-14.17

> <m_primary>
energy

> <minimizedAffinity>
-7.50376

> <minimizedRMSD>
0.97848

> <CNNscore>
0.7893133163

> <CNNaffinity>
6.6685853004

> <CNN_VS>
5.2636032104

> <CNNaffinity_variance>
0.0262923259

$$$$
50:0


 34 36  0  0  0  0  0  0  0  0999 V2000
   56.8899   22.0347   46.3615 C   0  0  0  0  0  0  0  0  0  0  0  0
   56.3579   22.7073   47.4791 C   0  0  0  0  0  0  0  0  0  0  0  0
   56.0603   22.0055   48.7727 C   0  0  0  0  0  0  0  0  0  0  0  0
   56.1616   24.0479   47.4194 N   0  0  0  0  0  0  0  0  0  0  0  0
   56.4180   24.7918   46.3119 C   0  0  0  0  0  0  0  0  0  0  0  0
   56.8512   24.1482   45.1274 C   0  0  0  0  0  0  0  0  0  0  0  0
   57.0786   24.9233   43.8515 C   0  0  0  0  0  0  0  0  0  0  0  0
   57.0890   22.7570   45.1695 C   0  0  0  0  0  0  0  0  0  0  0  0
   57.4918   22.1536   44.1363 O   0  0  0  0  0  0  0  0  0  0  0  0
   57.2133   20.5898   46.4234 C   0  0  0  0  0  0  0  0  0  0  0  0
   58.1765   20.2173   47.1429 O   0  0  0  0  0  0  0  0  0  0  0  0
   55.2988   19.0280   46.1307 C   0  0  0  0  0  0  0  0  0  0  0  0
   56.4259   19.5795   45.7693 N   0  0  0  0  0  0  0  0  0  0  0  0
   54.2408   19.6784   46.9863 C   0  0  0  0  0  0  0  0  0  0  0  0
   53.1913   20.3304   46.1773 N   0  0  0  0  0  0  0  0  0  0  0  0
   52.9584   21.6973   46.6741 C   0  0  0  0  0  0  0  0  0  0  0  0
   51.9303   19.5729   46.2259 C   0  0  0  0  0  0  0  0  0  0  0  0
   56.2975   26.2933   46.4494 C   0  0  0  0  0  0  0  0  0  0  0  0
   57.6012   26.9443   46.0360 C   0  0  0  0  0  0  0  0  0  0  0  0
   57.6054   28.1221   45.2651 C   0  0  0  0  0  0  0  0  0  0  0  0
   56.3973   28.6215   44.7832 O   0  0  0  0  0  0  0  0  0  0  0  0
   58.7789   28.7781   44.9946 N   0  0  0  0  0  0  0  0  0  0  0  0
   59.9632   28.2689   45.4668 C   0  0  0  0  0  0  0  0  0  0  0  0
   61.0572   28.8489   45.2291 O   0  0  0  0  0  0  0  0  0  0  0  0
   59.9734   27.1303   46.2026 N   0  0  0  0  0  0  0  0  0  0  0  0
   58.8331   26.4643   46.5024 C   0  0  0  0  0  0  0  0  0  0  0  0
   58.8977   25.4212   47.2033 O   0  0  0  0  0  0  0  0  0  0  0  0
   58.7575   30.0593   44.2637 C   0  0  0  0  0  0  0  0  0  0  0  0
   58.5479   31.2053   45.2208 C   0  0  0  0  0  0  0  0  0  0  0  0
   59.0995   31.1625   46.5121 C   0  0  0  0  0  0  0  0  0  0  0  0
   58.8672   32.2042   47.4150 C   0  0  0  0  0  0  0  0  0  0  0  0
   58.0787   33.2946   47.0381 C   0  0  0  0  0  0  0  0  0  0  0  0
   57.5207   33.3447   45.7585 C   0  0  0  0  0  0  0  0  0  0  0  0
   57.7546   32.3063   44.8506 C   0  0  0  0  0  0  0  0  0  0  0  0
 12 13  2  0
 13 10  1  0
 10 11  2  0
 10  1  1  0
  1  2  2  0
  2  3  1  0
  2  4  1  0
  4  5  1  0
  5 18  1  0
 18 19  1  0
 19 20  2  0
 20 21  1  0
 20 22  1  0
 22 28  1  0
 28 29  1  0
 29 30  2  0
 30 31  1  0
 31 32  2  0
 32 33  1  0
 33 34  2  0
 22 23  1  0
 23 24  2  0
 23 25  1  0
 25 26  1  0
 26 27  2  0
  5  6  2  0
  6  7  1  0
  6  8  1  0
  8  9  2  0
 12 14  1  0
 14 15  1  0
 15 16  1  0
 15 17  1  0
  8  1  1  0
 26 19  1  0
 34 29  1  0
M  CHG 1   4  -1
M  CHG 1  21  -1
M  CHG 1  25  -1
M  END
> <UniqueID>
49

> <SMILES>
Cc1[n-]c(Cc2c([O-])n(Cc3ccccc3)c(=O)[n-]c2=O)c(C)c(=O)c1C(=O)/N=C\CN(C)C

> <Energy>
71.80231504897328

> <Genealogy>
Cc1[n-]c(Cc2c([O-])n(Cc3ccccc3)c(=O)[n-]c2=O)c(C)c(=O)c1C(=O)N=CCN(C)C (protonated)
Cc1[n-]c(Cc2c([O-])n(Cc3ccccc3)c(=O)[n-]c2=O)c(C)c(=O)c1C(=O)/N=C\CN(C)C (cis-trans isomerization)
Cc1[n-]c(Cc2c([O-])n(Cc3ccccc3)c(=O)[n-]c2=O)c(C)c(=O)c1C(=O)/N=C\CN(C)C (3D coordinates assigned)
Cc1[n-]c(Cc2c([O-])n(Cc3ccccc3)c(=O)[n-]c2=O)c(C)c(=O)c1C(=O)/N=C\CN(C)C (optimized conformer: 71.80231504897328 kcal/mol)

> <smiles>
Cc1[nH]c(Cc2c(O)n(Cc3ccccc3)c(=O)[nH]c2=O)c(C)c(=O)c1C(=O)N=CCN(C)C

> <score_type>
oracle

> <origin>
adg

> <m_score__min__energy>
-15.08

> <m_primary>
energy

> <minimizedAffinity>
-6.47572

> <minimizedRMSD>
0.65346

> <CNNscore>
0.0944639146

> <CNNaffinity>
5.9293799400

> <CNN_VS>
0.5601124167

> <CNNaffinity_variance>
0.0941380784

$$$$
68:0


 28 30  0  0  0  0  0  0  0  0999 V2000
   60.1663   31.1120   48.8688 N   0  0  0  0  0  0  0  0  0  0  0  0
   58.9643   30.3020   49.1710 C   0  0  0  0  0  0  0  0  0  0  0  0
   58.8134   30.0706   50.6799 C   0  0  0  0  0  0  0  0  0  0  0  0
   58.6748   31.3414   51.4395 N   0  0  0  0  0  0  0  0  0  0  0  0
   59.2069   32.5191   50.7159 C   0  0  0  0  0  0  0  0  0  0  0  0
   60.4491   32.1526   49.8921 C   0  0  0  0  0  0  0  0  0  0  0  0
   60.0776   31.6788   47.5071 C   0  0  0  0  0  0  0  0  0  0  0  0
   57.9977   29.7816   44.9158 C   0  0  0  0  0  0  0  0  0  0  0  0
   58.8228   28.6648   44.6903 C   0  0  0  0  0  0  0  0  0  0  0  0
   60.0351   28.5315   45.3728 C   0  0  0  0  0  0  0  0  0  0  0  0
   60.4387   29.5066   46.2853 C   0  0  0  0  0  0  0  0  0  0  0  0
   59.6307   30.6266   46.5268 C   0  0  0  0  0  0  0  0  0  0  0  0
   58.4107   30.7600   45.8398 C   0  0  0  0  0  0  0  0  0  0  0  0
   55.4872   29.5228   44.8008 N   0  0  0  0  0  0  0  0  0  0  0  0
   56.7133   29.9264   44.1920 C   0  0  0  0  0  0  0  0  0  0  0  0
   56.6896   30.4097   43.0277 O   0  0  0  0  0  0  0  0  0  0  0  0
   54.6385   29.6229   44.3120 H   0  0  0  0  0  0  0  0  0  0  0  0
   57.2820   31.5871   51.8650 C   0  0  0  0  0  0  0  0  0  0  0  0
   56.7356   30.3878   52.5758 C   0  0  0  0  0  0  0  0  0  0  0  0
   57.3332   29.9421   53.5921 O   0  0  0  0  0  0  0  0  0  0  0  0
   55.5155   29.7901   52.1201 N   0  0  0  0  0  0  0  0  0  0  0  0
   54.1854   30.1869   52.4813 C   0  0  0  0  0  0  0  0  0  0  0  0
   53.3351   30.6771   51.4817 C   0  0  0  0  0  0  0  0  0  0  0  0
   52.0231   31.0541   51.7889 C   0  0  0  0  0  0  0  0  0  0  0  0
   51.5477   30.9286   53.0970 C   0  0  0  0  0  0  0  0  0  0  0  0
   50.2444   31.3015   53.4018 O   0  0  0  0  0  0  0  0  0  0  0  0
   52.3811   30.4198   54.0970 C   0  0  0  0  0  0  0  0  0  0  0  0
   53.6938   30.0425   53.7928 C   0  0  0  0  0  0  0  0  0  0  0  0
 14 15  1  0
 15 16  2  0
 15  8  1  0
  8  9  2  0
  9 10  1  0
 10 11  2  0
 11 12  1  0
 12  7  1  0
  7  1  1  0
  1  2  1  0
  2  3  1  0
  3  4  1  0
  4 18  1  0
 18 19  1  0
 19 20  2  0
 19 21  1  0
 21 22  1  0
 22 23  2  0
 23 24  1  0
 24 25  2  0
 25 26  1  0
 25 27  1  0
 27 28  2  0
  4  5  1  0
  5  6  1  0
 12 13  2  0
 13  8  1  0
  6  1  1  0
 28 22  1  0
 14 17  1  0
M  CHG 1  14  -1
M  CHG 1  21  -1
M  CHG 1  26  -1
M  END
> <UniqueID>
66

> <SMILES>
[NH-]C(=O)c1cccc(CN2CCN(CC(=O)[N-]c3ccc([O-])cc3)CC2)c1

> <Energy>
64.94520933478373

> <Genealogy>
[NH-]C(=O)c1cccc(CN2CCN(CC(=O)[N-]c3ccc([O-])cc3)CC2)c1 (protonated)
[NH-]C(=O)c1cccc(CN2CCN(CC(=O)[N-]c3ccc([O-])cc3)CC2)c1 (3D coordinates assigned)
[NH-]C(=O)c1cccc(CN2CCN(CC(=O)[N-]c3ccc([O-])cc3)CC2)c1 (nonaromatic ring conformer: 64.94520933478373 kcal/mol)

> <smiles>
NC(=O)c1cccc(CN2CCN(CC(=O)Nc3ccc(O)cc3)CC2)c1

> <score_type>
oracle

> <origin>
adg

> <m_score__min__energy>
-16.079999999999998

> <m_primary>
energy

> <minimizedAffinity>
-8.15916

> <minimizedRMSD>
0.83949

> <CNNscore>
0.1743949950

> <CNNaffinity>
5.0252342224

> <CNN_VS>
0.8763756752

> <CNNaffinity_variance>
0.6888893247

$$$$
42:0


 35 39  0  0  0  0  0  0  0  0999 V2000
   59.3617   30.3466   46.6588 C   0  0  0  0  0  0  0  0  0  0  0  0
   59.9514   30.6374   47.9002 C   0  0  0  0  0  0  0  0  0  0  0  0
   59.6981   31.8580   48.5403 C   0  0  0  0  0  0  0  0  0  0  0  0
   58.8564   32.7955   47.9308 C   0  0  0  0  0  0  0  0  0  0  0  0
   58.2788   32.5206   46.6909 C   0  0  0  0  0  0  0  0  0  0  0  0
   58.5272   31.3005   46.0467 C   0  0  0  0  0  0  0  0  0  0  0  0
   57.9076   31.0235   44.7828 N   0  0  0  0  0  0  0  0  0  0  0  0
   56.8951   29.9967   44.6057 C   0  0  0  0  0  0  0  0  0  0  0  0
   56.5370   30.0331   43.1270 C   0  0  0  0  0  0  0  0  0  0  0  0
   57.0528   31.3737   42.6030 C   0  0  0  0  0  0  0  0  0  0  0  0
   58.1043   31.8409   43.6007 C   0  0  0  0  0  0  0  0  0  0  0  0
   60.4614   32.2225   50.0859 S   0  0  0  0  0  0  0  0  0  0  0  0
   59.4134   32.7323   51.0356 O   0  0  0  0  0  0  0  0  0  0  0  0
   61.0279   30.9564   50.6672 O   0  0  0  0  0  0  0  0  0  0  0  0
   61.7341   33.4205   49.9429 N   0  0  0  0  0  0  0  0  0  0  0  0
   62.9935   32.9925   50.5808 C   0  0  0  0  0  0  0  0  0  0  0  0
   63.8648   32.0966   49.6694 C   0  0  0  0  0  0  0  0  0  0  0  0
   63.3361   31.9522   48.3675 O   0  0  0  0  0  0  0  0  0  0  0  0
   63.0756   33.2241   47.8226 C   0  0  0  0  0  0  0  0  0  0  0  0
   61.9073   33.9039   48.5569 C   0  0  0  0  0  0  0  0  0  0  0  0
   59.6937   29.1428   45.9517 N   0  0  0  0  0  0  0  0  0  0  0  0
   60.6099   27.0475   46.3367 O   0  0  0  0  0  0  0  0  0  0  0  0
   59.6150   27.8079   46.4684 C   0  0  0  0  0  0  0  0  0  0  0  0
   58.3682   27.2802   47.1206 C   0  0  0  0  0  0  0  0  0  0  0  0
   57.9540   26.0324   46.4789 N   0  0  0  0  0  0  0  0  0  0  0  0
   58.7518   25.0047   46.1149 C   0  0  0  0  0  0  0  0  0  0  0  0
   60.1159   24.9431   46.3719 O   0  0  0  0  0  0  0  0  0  0  0  0
   58.0187   24.0422   45.4491 C   0  0  0  0  0  0  0  0  0  0  0  0
   56.7153   24.4863   45.4283 C   0  0  0  0  0  0  0  0  0  0  0  0
   56.7139   25.7241   46.0393 C   0  0  0  0  0  0  0  0  0  0  0  0
   55.6089   26.5586   46.1685 O   0  0  0  0  0  0  0  0  0  0  0  0
   55.6031   23.7795   44.7172 C   0  0  0  0  0  0  0  0  0  0  0  0
   55.9765   22.3030   44.4766 C   0  0  0  0  0  0  0  0  0  0  0  0
   57.4139   22.1580   43.9311 C   0  0  0  0  0  0  0  0  0  0  0  0
   58.4607   22.7119   44.9188 C   0  0  0  0  0  0  0  0  0  0  0  0
 22 23  2  0
 23 24  1  0
 24 25  1  0
 25 26  1  0
 26 27  1  0
 26 28  2  0
 28 29  1  0
 29 30  2  0
 30 31  1  0
 29 32  1  0
 32 33  1  0
 33 34  1  0
 34 35  1  0
 23 21  1  0
 21  1  1  0
  1  2  2  0
  2  3  1  0
  3 12  1  0
 12 13  2  0
 12 14  2  0
 12 15  1  0
 15 16  1  0
 16 17  1  0
 17 18  1  0
 18 19  1  0
 19 20  1  0
  3  4  2  0
  4  5  1  0
  5  6  2  0
  6  7  1  0
  7  8  1  0
  8  9  1  0
  9 10  1  0
 10 11  1  0
 30 25  1  0
  6  1  1  0
 11  7  1  0
 35 28  1  0
 20 15  1  0
M  CHG 1  21  -1
M  CHG 1  27  -1
M  CHG 1  31  -1
M  END
> <UniqueID>
37

> <SMILES>
O=C(Cn1c([O-])c2c(c1[O-])CCCC2)[N-]c1cc(S(=O)(=O)N2CCOCC2)ccc1N1CCCC1

> <Energy>
113.9962496903241

> <Genealogy>
O=C(Cn1c([O-])c2c(c1[O-])CCCC2)[N-]c1cc(S(=O)(=O)N2CCOCC2)ccc1N1CCCC1 (protonated)
O=C(Cn1c([O-])c2c(c1[O-])CCCC2)[N-]c1cc(S(=O)(=O)N2CCOCC2)ccc1N1CCCC1 (3D coordinates assigned)
O=C(Cn1c([O-])c2c(c1[O-])CCCC2)[N-]c1cc(S(=O)(=O)N2CCOCC2)ccc1N1CCCC1 (nonaromatic ring conformer: 113.9962496903241 kcal/mol)

> <smiles>
O=C(Cn1c(O)c2c(c1O)CCCC2)Nc1cc(S(=O)(=O)N2CCOCC2)ccc1N1CCCC1

> <score_type>
oracle

> <origin>
adg

> <m_score__min__energy>
-15.91

> <m_primary>
energy

> <minimizedAffinity>
-7.66047

> <minimizedRMSD>
0.82757

> <CNNscore>
0.2065864950

> <CNNaffinity>
6.5668721199

> <CNN_VS>
1.3566271067

> <CNNaffinity_variance>
0.1101503745

$$$$
55:0


 30 32  0  0  0  0  0  0  0  0999 V2000
   58.0443   28.3175   45.9068 C   0  0  0  0  0  0  0  0  0  0  0  0
   59.1682   28.5988   46.6919 C   0  0  0  0  0  0  0  0  0  0  0  0
   60.0356   27.5720   47.0770 C   0  0  0  0  0  0  0  0  0  0  0  0
   59.7895   26.2578   46.6718 C   0  0  0  0  0  0  0  0  0  0  0  0
   58.6753   25.9608   45.8719 C   0  0  0  0  0  0  0  0  0  0  0  0
   57.8173   26.9983   45.4749 C   0  0  0  0  0  0  0  0  0  0  0  0
   57.1770   29.3973   45.5250 N   0  0  0  0  0  0  0  0  0  0  0  0
   57.5154   30.5070   44.6805 C   0  0  0  0  0  0  0  0  0  0  0  0
   57.3491   30.3871   43.4377 O   0  0  0  0  0  0  0  0  0  0  0  0
   59.0829   33.0292   47.0590 C   0  0  0  0  0  0  0  0  0  0  0  0
   59.1570   34.1582   46.2247 C   0  0  0  0  0  0  0  0  0  0  0  0
   58.7187   34.0872   44.8992 C   0  0  0  0  0  0  0  0  0  0  0  0
   58.1939   32.8957   44.3964 C   0  0  0  0  0  0  0  0  0  0  0  0
   58.0958   31.7601   45.2163 C   0  0  0  0  0  0  0  0  0  0  0  0
   58.5620   31.8310   46.5409 C   0  0  0  0  0  0  0  0  0  0  0  0
   59.5378   33.0992   48.4648 C   0  0  0  0  0  0  0  0  0  0  0  0
   59.1715   32.2216   49.2942 O   0  0  0  0  0  0  0  0  0  0  0  0
   61.7302   33.9240   49.2686 C   0  0  0  0  0  0  0  0  0  0  0  0
   60.3805   34.1399   48.8738 O   0  0  0  0  0  0  0  0  0  0  0  0
   58.4157   24.5486   45.4148 C   0  0  0  0  0  0  0  0  0  0  0  0
   56.9511   24.2041   45.5549 C   0  0  0  0  0  0  0  0  0  0  0  0
   56.1439   23.9769   44.4249 C   0  0  0  0  0  0  0  0  0  0  0  0
   56.6687   24.0961   43.1401 O   0  0  0  0  0  0  0  0  0  0  0  0
   54.8368   23.6369   44.5829 N   0  0  0  0  0  0  0  0  0  0  0  0
   54.2885   23.5067   45.8173 C   0  0  0  0  0  0  0  0  0  0  0  0
   53.0771   23.1932   45.9373 O   0  0  0  0  0  0  0  0  0  0  0  0
   55.0467   23.7139   46.9231 N   0  0  0  0  0  0  0  0  0  0  0  0
   56.3577   24.0539   46.8223 C   0  0  0  0  0  0  0  0  0  0  0  0
   57.0305   24.2312   47.8727 O   0  0  0  0  0  0  0  0  0  0  0  0
   57.5682   24.3300   43.0212 H   0  0  0  0  0  0  0  0  0  0  0  0
 18 19  1  0
 19 16  1  0
 16 17  2  0
 16 10  1  0
 10 11  2  0
 11 12  1  0
 12 13  2  0
 13 14  1  0
 14  8  1  0
  8  9  2  0
  8  7  1  0
  7  1  1  0
  1  2  2  0
  2  3  1  0
  3  4  2  0
  4  5  1  0
  5 20  1  0
 20 21  1  0
 21 22  2  0
 22 23  1  0
 22 24  1  0
 24 25  1  0
 25 26  2  0
 25 27  1  0
 27 28  1  0
 28 29  2  0
  5  6  2  0
 14 15  2  0
 15 10  1  0
  6  1  1  0
 28 21  1  0
 23 30  1  0
M  CHG 1   7  -1
M  CHG 1  24  -1
M  CHG 1  27  -1
M  END
> <UniqueID>
50

> <SMILES>
COC(=O)c1cccc(C(=O)[N-]c2cccc(Cc3c(O)[n-]c(=O)[n-]c3=O)c2)c1

> <Energy>
50.76297039918354

> <Genealogy>
COC(=O)c1cccc(C(=O)[N-]c2cccc(Cc3c(O)[n-]c(=O)[n-]c3=O)c2)c1 (protonated)
COC(=O)c1cccc(C(=O)[N-]c2cccc(Cc3c(O)[n-]c(=O)[n-]c3=O)c2)c1 (3D coordinates assigned)
COC(=O)c1cccc(C(=O)[N-]c2cccc(Cc3c(O)[n-]c(=O)[n-]c3=O)c2)c1 (optimized conformer: 50.76297039918354 kcal/mol)

> <smiles>
COC(=O)c1cccc(C(=O)Nc2cccc(Cc3c(O)[nH]c(=O)[nH]c3=O)c2)c1

> <score_type>
oracle

> <origin>
adg

> <m_score__min__energy>
-14.27

> <m_primary>
energy

> <minimizedAffinity>
-9.13984

> <minimizedRMSD>
1.90938

> <CNNscore>
0.5265146494

> <CNNaffinity>
7.0346984863

> <CNN_VS>
3.7038717270

> <CNNaffinity_variance>
0.4200375378

$$$$
85:0


 26 28  0  0  0  0  0  0  0  0999 V2000
   57.4808   25.7719   46.5931 C   0  0  0  0  0  0  0  0  0  0  0  0
   56.3587   26.3858   46.0364 C   0  0  0  0  0  0  0  0  0  0  0  0
   55.1096   25.7808   46.1055 O   0  0  0  0  0  0  0  0  0  0  0  0
   56.4855   27.5825   45.4149 N   0  0  0  0  0  0  0  0  0  0  0  0
   57.6813   28.2168   45.3262 C   0  0  0  0  0  0  0  0  0  0  0  0
   57.7367   29.3258   44.7300 O   0  0  0  0  0  0  0  0  0  0  0  0
   58.8076   27.6556   45.8793 N   0  0  0  0  0  0  0  0  0  0  0  0
   58.7133   26.4467   46.5260 C   0  0  0  0  0  0  0  0  0  0  0  0
   59.7313   25.9335   47.0686 O   0  0  0  0  0  0  0  0  0  0  0  0
   55.7317   19.8586   44.7516 O   0  0  0  0  0  0  0  0  0  0  0  0
   56.1281   20.8840   45.3630 C   0  0  0  0  0  0  0  0  0  0  0  0
   57.0615   21.7658   44.7424 N   0  0  0  0  0  0  0  0  0  0  0  0
   57.5047   22.9560   45.3982 C   0  0  0  0  0  0  0  0  0  0  0  0
   58.3380   23.6983   44.8112 O   0  0  0  0  0  0  0  0  0  0  0  0
   56.9759   23.3133   46.7405 C   0  0  0  0  0  0  0  0  0  0  0  0
   57.3404   24.4844   47.3098 C   0  0  0  0  0  0  0  0  0  0  0  0
   56.0762   22.3206   47.3955 C   0  0  0  0  0  0  0  0  0  0  0  0
   55.7066   22.4549   48.5916 O   0  0  0  0  0  0  0  0  0  0  0  0
   55.6521   21.1598   46.6777 N   0  0  0  0  0  0  0  0  0  0  0  0
   60.1025   28.3653   45.8209 C   0  0  0  0  0  0  0  0  0  0  0  0
   60.1998   29.3785   46.9330 C   0  0  0  0  0  0  0  0  0  0  0  0
   60.2772   28.9554   48.2711 C   0  0  0  0  0  0  0  0  0  0  0  0
   60.3970   29.8952   49.3004 C   0  0  0  0  0  0  0  0  0  0  0  0
   60.4468   31.2592   49.0023 C   0  0  0  0  0  0  0  0  0  0  0  0
   60.3738   31.6877   47.6743 C   0  0  0  0  0  0  0  0  0  0  0  0
   60.2538   30.7521   46.6422 C   0  0  0  0  0  0  0  0  0  0  0  0
 10 11  2  0
 11 12  1  0
 12 13  1  0
 13 14  2  0
 13 15  1  0
 15 16  2  0
 16  1  1  0
  1  2  2  0
  2  3  1  0
  2  4  1  0
  4  5  1  0
  5  6  2  0
  5  7  1  0
  7 20  1  0
 20 21  1  0
 21 22  2  0
 22 23  1  0
 23 24  2  0
 24 25  1  0
 25 26  2  0
  7  8  1  0
  8  9  2  0
 15 17  1  0
 17 18  2  0
 17 19  1  0
 19 11  1  0
  8  1  1  0
 26 21  1  0
M  CHG 1   3  -1
M  CHG 1   4  -1
M  CHG 1  12  -1
M  CHG 1  19  -1
M  END
> <UniqueID>
79

> <SMILES>
O=C1[N-]C(=O)C(=Cc2c([O-])[n-]c(=O)n(Cc3ccccc3)c2=O)C(=O)[N-]1

> <Energy>
50.583076468598215

> <Genealogy>
O=C1[N-]C(=O)C(=Cc2c([O-])[n-]c(=O)n(Cc3ccccc3)c2=O)C(=O)[N-]1 (protonated)
O=C1[N-]C(=O)C(=Cc2c([O-])[n-]c(=O)n(Cc3ccccc3)c2=O)C(=O)[N-]1 (3D coordinates assigned)
O=C1[N-]C(=O)C(=Cc2c([O-])[n-]c(=O)n(Cc3ccccc3)c2=O)C(=O)[N-]1 (nonaromatic ring conformer: 50.583076468598215 kcal/mol)

> <smiles>
O=C1NC(=O)C(=Cc2c(O)[nH]c(=O)n(Cc3ccccc3)c2=O)C(=O)N1

> <score_type>
oracle

> <origin>
adg

> <m_score__min__energy>
-16.260000000000002

> <m_primary>
energy

> <minimizedAffinity>
-6.84766

> <minimizedRMSD>
2.69461

> <CNNscore>
0.2332092375

> <CNNaffinity>
5.9102292061

> <CNN_VS>
1.3783200979

> <CNNaffinity_variance>
0.3543343842

$$$$
93:0


 27 29  0  0  0  0  0  0  0  0999 V2000
   57.5430   30.7215   44.5179 C   0  0  0  0  0  0  0  0  0  0  0  0
   57.5778   31.3681   45.7026 N   0  0  0  0  0  0  0  0  0  0  0  0
   57.8875   32.6840   45.5538 C   0  0  0  0  0  0  0  0  0  0  0  0
   58.0962   33.0957   44.2392 C   0  0  0  0  0  0  0  0  0  0  0  0
   57.8689   31.7621   43.2401 S   0  0  0  0  0  0  0  0  0  0  0  0
   57.1134   29.2983   44.3744 C   0  0  0  0  0  0  0  0  0  0  0  0
   59.2958   28.4403   44.8097 O   0  0  0  0  0  0  0  0  0  0  0  0
   58.0703   28.4113   45.1016 C   0  0  0  0  0  0  0  0  0  0  0  0
   57.5858   27.5363   46.1256 N   0  0  0  0  0  0  0  0  0  0  0  0
   57.5833   26.1047   46.0471 C   0  0  0  0  0  0  0  0  0  0  0  0
   58.7972   25.4295   45.8796 C   0  0  0  0  0  0  0  0  0  0  0  0
   58.8196   24.0374   45.7944 C   0  0  0  0  0  0  0  0  0  0  0  0
   57.6159   23.3292   45.8555 C   0  0  0  0  0  0  0  0  0  0  0  0
   57.6174   22.0735   45.7868 O   0  0  0  0  0  0  0  0  0  0  0  0
   56.4398   23.9990   45.9802 N   0  0  0  0  0  0  0  0  0  0  0  0
   56.3904   25.3556   46.0652 C   0  0  0  0  0  0  0  0  0  0  0  0
   55.1532   25.9841   46.1319 O   0  0  0  0  0  0  0  0  0  0  0  0
   57.9630   33.6109   46.7264 C   0  0  0  0  0  0  0  0  0  0  0  0
   59.2779   33.1579   47.8652 S   0  0  0  0  0  0  0  0  0  0  0  0
   58.8232   32.0118   48.7258 O   0  0  0  0  0  0  0  0  0  0  0  0
   59.5412   34.3395   48.7552 O   0  0  0  0  0  0  0  0  0  0  0  0
   60.7770   32.7273   47.0703 N   0  0  0  0  0  0  0  0  0  0  0  0
   61.7351   33.8458   47.0858 C   0  0  0  0  0  0  0  0  0  0  0  0
   63.1501   33.3413   46.7652 C   0  0  0  0  0  0  0  0  0  0  0  0
   63.6417   32.3545   47.6631 O   0  0  0  0  0  0  0  0  0  0  0  0
   62.6263   31.6768   48.3891 C   0  0  0  0  0  0  0  0  0  0  0  0
   61.3386   31.4576   47.5741 C   0  0  0  0  0  0  0  0  0  0  0  0
  7  8  2  0
  8  6  1  0
  6  1  1  0
  1  2  2  0
  2  3  1  0
  3 18  1  0
 18 19  1  0
 19 20  2  0
 19 21  2  0
 19 22  1  0
 22 23  1  0
 23 24  1  0
 24 25  1  0
 25 26  1  0
 26 27  1  0
  3  4  2  0
  4  5  1  0
  8  9  1  0
  9 10  1  0
 10 11  1  0
 11 12  2  0
 12 13  1  0
 13 14  2  0
 13 15  1  0
 15 16  1  0
 16 17  1  0
  5  1  1  0
 16 10  2  0
 27 22  1  0
M  CHG 1   9  -1
M  CHG 1  15  -1
M  CHG 1  17  -1
M  END
> <UniqueID>
87

> <SMILES>
O=C(Cc1nc(CS(=O)(=O)N2CCOCC2)cs1)[N-]c1ccc(=O)[n-]c1[O-]

> <Energy>
81.75676899811438

> <Genealogy>
O=C(Cc1nc(CS(=O)(=O)N2CCOCC2)cs1)[N-]c1ccc(=O)[n-]c1[O-] (protonated)
O=C(Cc1nc(CS(=O)(=O)N2CCOCC2)cs1)[N-]c1ccc(=O)[n-]c1[O-] (3D coordinates assigned)
O=C(Cc1nc(CS(=O)(=O)N2CCOCC2)cs1)[N-]c1ccc(=O)[n-]c1[O-] (nonaromatic ring conformer: 81.75676899811438 kcal/mol)

> <smiles>
O=C(Cc1nc(CS(=O)(=O)N2CCOCC2)cs1)Nc1ccc(=O)[nH]c1O

> <score_type>
oracle

> <origin>
adg

> <m_score__min__energy>
-17.219999999999999

> <m_primary>
energy

> <minimizedAffinity>
-7.19408

> <minimizedRMSD>
1.03725

> <CNNscore>
0.7095828056

> <CNNaffinity>
6.9219307899

> <CNN_VS>
4.9116830826

> <CNNaffinity_variance>
0.4837015867

$$$$
95:0


 25 26  0  0  0  0  0  0  0  0999 V2000
   58.3123   29.1457   46.6383 N   0  0  0  0  0  0  0  0  0  0  0  0
   58.8509   28.4422   47.8084 C   0  0  0  0  0  0  0  0  0  0  0  0
   57.7411   28.0417   45.4045 S   0  0  0  0  0  0  0  0  0  0  0  0
   56.4171   28.5291   44.8822 O   0  0  0  0  0  0  0  0  0  0  0  0
   58.7021   28.0875   44.2491 O   0  0  0  0  0  0  0  0  0  0  0  0
   60.1289   25.9871   46.1061 C   0  0  0  0  0  0  0  0  0  0  0  0
   58.7074   25.5176   46.2190 C   0  0  0  0  0  0  0  0  0  0  0  0
   58.5070   24.2551   46.6814 N   0  0  0  0  0  0  0  0  0  0  0  0
   57.2637   23.7617   46.8957 C   0  0  0  0  0  0  0  0  0  0  0  0
   57.1165   22.5836   47.3094 O   0  0  0  0  0  0  0  0  0  0  0  0
   56.1808   24.5403   46.6724 N   0  0  0  0  0  0  0  0  0  0  0  0
   56.3105   25.8146   46.2262 C   0  0  0  0  0  0  0  0  0  0  0  0
   55.2710   26.5043   46.0465 O   0  0  0  0  0  0  0  0  0  0  0  0
   57.5886   26.3514   45.9625 C   0  0  0  0  0  0  0  0  0  0  0  0
   59.1718   30.2323   46.1204 C   0  0  0  0  0  0  0  0  0  0  0  0
   58.4524   31.5306   45.8492 C   0  0  0  0  0  0  0  0  0  0  0  0
   57.2559   31.5184   45.4564 O   0  0  0  0  0  0  0  0  0  0  0  0
   59.1159   32.7770   46.0888 N   0  0  0  0  0  0  0  0  0  0  0  0
   59.4635   33.2584   47.4215 C   0  0  0  0  0  0  0  0  0  0  0  0
   60.9127   32.9809   47.7134 C   0  0  0  0  0  0  0  0  0  0  0  0
   61.9269   33.5974   46.9603 C   0  0  0  0  0  0  0  0  0  0  0  0
   63.2708   33.3210   47.2303 C   0  0  0  0  0  0  0  0  0  0  0  0
   63.6118   32.4177   48.2396 C   0  0  0  0  0  0  0  0  0  0  0  0
   62.6097   31.7930   48.9870 C   0  0  0  0  0  0  0  0  0  0  0  0
   61.2648   32.0766   48.7302 C   0  0  0  0  0  0  0  0  0  0  0  0
  6  7  1  0
  7  8  1  0
  8  9  1  0
  9 10  2  0
  9 11  1  0
 11 12  1  0
 12 13  2  0
 12 14  1  0
 14  3  1  0
  3  4  2  0
  3  5  2  0
  3  1  1  0
  1  2  1  0
  1 15  1  0
 15 16  1  0
 16 17  2  0
 16 18  1  0
 18 19  1  0
 19 20  1  0
 20 21  2  0
 21 22  1  0
 22 23  2  0
 23 24  1  0
 24 25  2  0
 14  7  2  0
 25 20  1  0
M  CHG 1   8  -1
M  CHG 1  11  -1
M  CHG 1  18  -1
M  END
> <UniqueID>
89

> <SMILES>
Cc1[n-]c(=O)[n-]c(=O)c1S(=O)(=O)N(C)CC(=O)[N-]Cc1ccccc1

> <Energy>
42.51202997382544

> <Genealogy>
Cc1[n-]c(=O)[n-]c(=O)c1S(=O)(=O)N(C)CC(=O)[N-]Cc1ccccc1 (protonated)
Cc1[n-]c(=O)[n-]c(=O)c1S(=O)(=O)N(C)CC(=O)[N-]Cc1ccccc1 (3D coordinates assigned)
Cc1[n-]c(=O)[n-]c(=O)c1S(=O)(=O)N(C)CC(=O)[N-]Cc1ccccc1 (optimized conformer: 42.51202997382544 kcal/mol)

> <smiles>
Cc1[nH]c(=O)[nH]c(=O)c1S(=O)(=O)N(C)CC(=O)NCc1ccccc1

> <score_type>
oracle

> <origin>
adg

> <m_score__min__energy>
-14.48

> <m_primary>
energy

> <minimizedAffinity>
-6.43153

> <minimizedRMSD>
1.93363

> <CNNscore>
0.2364627719

> <CNNaffinity>
6.0921440125

> <CNN_VS>
1.4405652285

> <CNNaffinity_variance>
0.3147745132

$$$$
96:0


 28 30  0  0  0  0  0  0  0  0999 V2000
   58.2146   28.5016   45.3171 C   0  0  0  0  0  0  0  0  0  0  0  0
   59.2963   27.7264   45.5812 N   0  0  0  0  0  0  0  0  0  0  0  0
   59.1537   26.4566   46.0408 C   0  0  0  0  0  0  0  0  0  0  0  0
   60.1829   25.7695   46.2760 O   0  0  0  0  0  0  0  0  0  0  0  0
   57.8667   25.9208   46.2450 C   0  0  0  0  0  0  0  0  0  0  0  0
   56.7659   26.7513   45.9714 C   0  0  0  0  0  0  0  0  0  0  0  0
   55.4663   26.2965   46.1589 O   0  0  0  0  0  0  0  0  0  0  0  0
   56.9634   28.0124   45.5124 N   0  0  0  0  0  0  0  0  0  0  0  0
   58.4330   30.1761   44.7198 S   0  0  0  0  0  0  0  0  0  0  0  0
   58.7068   30.8979   46.3758 C   0  0  0  0  0  0  0  0  0  0  0  0
   57.2447   32.6438   45.6618 O   0  0  0  0  0  0  0  0  0  0  0  0
   58.1630   32.2883   46.4500 C   0  0  0  0  0  0  0  0  0  0  0  0
   58.6819   33.1951   47.4285 N   0  0  0  0  0  0  0  0  0  0  0  0
   59.7589   34.1163   47.2173 C   0  0  0  0  0  0  0  0  0  0  0  0
   59.5634   35.1763   46.5608 O   0  0  0  0  0  0  0  0  0  0  0  0
   61.1011   33.8273   47.7726 C   0  0  0  0  0  0  0  0  0  0  0  0
   62.1467   33.3983   46.9327 C   0  0  0  0  0  0  0  0  0  0  0  0
   63.4014   33.0864   47.4641 C   0  0  0  0  0  0  0  0  0  0  0  0
   63.6272   33.1973   48.8388 C   0  0  0  0  0  0  0  0  0  0  0  0
   62.6013   33.6319   49.6809 C   0  0  0  0  0  0  0  0  0  0  0  0
   61.3464   33.9498   49.1546 C   0  0  0  0  0  0  0  0  0  0  0  0
   57.6720   24.5141   46.7595 C   0  0  0  0  0  0  0  0  0  0  0  0
   57.3630   23.5667   45.6319 C   0  0  0  0  0  0  0  0  0  0  0  0
   57.4376   22.1765   45.8285 C   0  0  0  0  0  0  0  0  0  0  0  0
   57.1349   21.2993   44.7829 C   0  0  0  0  0  0  0  0  0  0  0  0
   56.7607   21.8010   43.5341 C   0  0  0  0  0  0  0  0  0  0  0  0
   56.7062   23.1802   43.3223 C   0  0  0  0  0  0  0  0  0  0  0  0
   57.0068   24.0616   44.3653 C   0  0  0  0  0  0  0  0  0  0  0  0
 11 12  2  0
 12 10  1  0
 10  9  1  0
  9  1  1  0
  1  2  2  0
  2  3  1  0
  3  4  2  0
  3  5  1  0
  5 22  1  0
 22 23  1  0
 23 24  2  0
 24 25  1  0
 25 26  2  0
 26 27  1  0
 27 28  2  0
  5  6  2  0
  6  7  1  0
  6  8  1  0
 12 13  1  0
 13 14  1  0
 14 15  2  0
 14 16  1  0
 16 17  2  0
 17 18  1  0
 18 19  2  0
 19 20  1  0
 20 21  2  0
  8  1  1  0
 21 16  1  0
 28 23  1  0
M  CHG 1   7  -1
M  CHG 1   8  -1
M  CHG 1  13  -1
M  END
> <UniqueID>
90

> <SMILES>
O=C(CSc1nc(=O)c(Cc2ccccc2)c([O-])[n-]1)[N-]C(=O)c1ccccc1

> <Energy>
37.90877062534293

> <Genealogy>
O=C(CSc1nc(=O)c(Cc2ccccc2)c([O-])[n-]1)[N-]C(=O)c1ccccc1 (protonated)
O=C(CSc1nc(=O)c(Cc2ccccc2)c([O-])[n-]1)[N-]C(=O)c1ccccc1 (3D coordinates assigned)
O=C(CSc1nc(=O)c(Cc2ccccc2)c([O-])[n-]1)[N-]C(=O)c1ccccc1 (optimized conformer: 37.90877062534293 kcal/mol)

> <smiles>
O=C(CSc1nc(=O)c(Cc2ccccc2)c(O)[nH]1)NC(=O)c1ccccc1

> <score_type>
oracle

> <origin>
adg

> <m_score__min__energy>
-16.579999999999998

> <m_primary>
energy

> <minimizedAffinity>
-7.98846

> <minimizedRMSD>
1.03285

> <CNNscore>
0.4639272690

> <CNNaffinity>
6.3845310211

> <CNN_VS>
2.9619579315

> <CNNaffinity_variance>
0.0636941195

$$$$
53:0


 29 32  0  0  0  0  0  0  0  0999 V2000
   57.8098   29.8085   45.9684 N   0  0  0  0  0  0  0  0  0  0  0  0
   57.5197   32.6867   44.7983 C   0  0  0  0  0  0  0  0  0  0  0  0
   58.5255   32.2124   45.8037 C   0  0  0  0  0  0  0  0  0  0  0  0
   58.6719   30.9140   46.2584 C   0  0  0  0  0  0  0  0  0  0  0  0
   59.7174   30.9647   47.1552 C   0  0  0  0  0  0  0  0  0  0  0  0
   60.1215   30.0132   47.8782 O   0  0  0  0  0  0  0  0  0  0  0  0
   60.2074   32.2195   47.1986 N   0  0  0  0  0  0  0  0  0  0  0  0
   59.4971   32.9757   46.3632 N   0  0  0  0  0  0  0  0  0  0  0  0
   59.7297   34.3990   46.1034 C   0  0  0  0  0  0  0  0  0  0  0  0
   61.2967   32.6669   48.0259 C   0  0  0  0  0  0  0  0  0  0  0  0
   61.0377   33.2828   49.2605 C   0  0  0  0  0  0  0  0  0  0  0  0
   62.0929   33.7279   50.0613 C   0  0  0  0  0  0  0  0  0  0  0  0
   63.4133   33.5655   49.6331 C   0  0  0  0  0  0  0  0  0  0  0  0
   63.6799   32.9630   48.4003 C   0  0  0  0  0  0  0  0  0  0  0  0
   62.6263   32.5166   47.5982 C   0  0  0  0  0  0  0  0  0  0  0  0
   58.2328   28.4514   45.7906 C   0  0  0  0  0  0  0  0  0  0  0  0
   58.9187   28.1551   44.7763 O   0  0  0  0  0  0  0  0  0  0  0  0
   58.0196   27.4104   46.8539 C   0  0  0  0  0  0  0  0  0  0  0  0
   57.7928   26.1079   46.2298 N   0  0  0  0  0  0  0  0  0  0  0  0
   58.7237   25.1671   45.9484 C   0  0  0  0  0  0  0  0  0  0  0  0
   60.0884   25.3292   46.1616 O   0  0  0  0  0  0  0  0  0  0  0  0
   58.1226   24.0334   45.4378 C   0  0  0  0  0  0  0  0  0  0  0  0
   56.7709   24.2793   45.4232 C   0  0  0  0  0  0  0  0  0  0  0  0
   56.5969   25.5544   45.9246 C   0  0  0  0  0  0  0  0  0  0  0  0
   55.3716   26.1858   46.1154 O   0  0  0  0  0  0  0  0  0  0  0  0
   55.7424   23.2781   45.0069 C   0  0  0  0  0  0  0  0  0  0  0  0
   56.3821   22.0249   44.4383 C   0  0  0  0  0  0  0  0  0  0  0  0
   57.7120   21.7828   44.4516 C   0  0  0  0  0  0  0  0  0  0  0  0
   58.7416   22.7349   45.0303 C   0  0  0  0  0  0  0  0  0  0  0  0
  2  3  1  0
  3  4  2  0
  4  1  1  0
  1 16  1  0
 16 17  2  0
 16 18  1  0
 18 19  1  0
 19 20  1  0
 20 21  1  0
 20 22  2  0
 22 23  1  0
 23 24  2  0
 24 25  1  0
 23 26  1  0
 26 27  1  0
 27 28  2  0
 28 29  1  0
  4  5  1  0
  5  6  2  0
  5  7  1  0
  7 10  1  0
 10 11  2  0
 11 12  1  0
 12 13  2  0
 13 14  1  0
 14 15  2  0
  7  8  1  0
  8  9  1  0
  8  3  1  0
 24 19  1  0
 15 10  1  0
 29 22  1  0
M  CHG 1   1  -1
M  CHG 1  21  -1
M  CHG 1  25  -1
M  END
> <UniqueID>
51

> <SMILES>
Cc1c([N-]C(=O)Cn2c([O-])c3c(c2[O-])CC=CC3)c(=O)n(-c2ccccc2)n1C

> <Energy>
128.0982318293105

> <Genealogy>
Cc1c([N-]C(=O)Cn2c([O-])c3c(c2[O-])CC=CC3)c(=O)n(-c2ccccc2)n1C (protonated)
Cc1c([N-]C(=O)Cn2c([O-])c3c(c2[O-])CC=CC3)c(=O)n(-c2ccccc2)n1C (3D coordinates assigned)
Cc1c([N-]C(=O)Cn2c([O-])c3c(c2[O-])CC=CC3)c(=O)n(-c2ccccc2)n1C (nonaromatic ring conformer: 128.0982318293105 kcal/mol)

> <smiles>
Cc1c(NC(=O)Cn2c(O)c3c(c2O)CC=CC3)c(=O)n(-c2ccccc2)n1C

> <score_type>
oracle

> <origin>
adg

> <m_score__min__energy>
-14.6

> <m_primary>
energy

> <minimizedAffinity>
-8.84196

> <minimizedRMSD>
1.07413

> <CNNscore>
0.6246678233

> <CNNaffinity>
6.4893441200

> <CNN_VS>
4.0536842346

> <CNNaffinity_variance>
0.0418692045

$$$$
59:0


 24 26  0  0  0  0  0  0  0  0999 V2000
   59.1333   26.8258   47.7213 C   0  0  0  0  0  0  0  0  0  0  0  0
   58.6492   27.7784   46.9108 C   0  0  0  0  0  0  0  0  0  0  0  0
   58.0320   27.5943   45.6710 C   0  0  0  0  0  0  0  0  0  0  0  0
   57.8115   26.4206   45.0445 C   0  0  0  0  0  0  0  0  0  0  0  0
   57.7127   28.8917   45.2566 C   0  0  0  0  0  0  0  0  0  0  0  0
   57.0323   29.3269   43.9953 C   0  0  0  0  0  0  0  0  0  0  0  0
   58.1111   29.7758   46.1923 N   0  0  0  0  0  0  0  0  0  0  0  0
   58.6790   29.1069   47.1823 N   0  0  0  0  0  0  0  0  0  0  0  0
   57.3252   25.2024   45.7162 C   0  0  0  0  0  0  0  0  0  0  0  0
   56.0222   25.1390   46.2314 C   0  0  0  0  0  0  0  0  0  0  0  0
   55.1511   26.2122   46.0856 O   0  0  0  0  0  0  0  0  0  0  0  0
   55.6034   24.0187   46.8755 N   0  0  0  0  0  0  0  0  0  0  0  0
   56.4319   22.9561   47.0415 C   0  0  0  0  0  0  0  0  0  0  0  0
   55.8986   21.6223   47.8164 S   0  0  0  0  0  0  0  0  0  0  0  0
   57.7037   23.0036   46.5703 N   0  0  0  0  0  0  0  0  0  0  0  0
   58.1698   24.1007   45.9181 C   0  0  0  0  0  0  0  0  0  0  0  0
   59.3573   24.1153   45.4985 O   0  0  0  0  0  0  0  0  0  0  0  0
   59.1811   29.7687   48.3892 C   0  0  0  0  0  0  0  0  0  0  0  0
   59.8110   31.0902   48.0377 C   0  0  0  0  0  0  0  0  0  0  0  0
   61.1428   31.1549   47.5924 C   0  0  0  0  0  0  0  0  0  0  0  0
   61.7207   32.3886   47.2776 C   0  0  0  0  0  0  0  0  0  0  0  0
   60.9749   33.5639   47.4022 C   0  0  0  0  0  0  0  0  0  0  0  0
   59.6497   33.5077   47.8396 C   0  0  0  0  0  0  0  0  0  0  0  0
   59.0671   32.2769   48.1550 C   0  0  0  0  0  0  0  0  0  0  0  0
  1  2  2  0
  2  3  1  0
  3  4  2  0
  4  9  1  0
  9 10  2  0
 10 11  1  0
 10 12  1  0
 12 13  1  0
 13 14  2  0
 13 15  1  0
 15 16  1  0
 16 17  2  0
  3  5  1  0
  5  6  1  0
  5  7  2  0
  7  8  1  0
  8 18  1  0
 18 19  1  0
 19 20  2  0
 20 21  1  0
 21 22  2  0
 22 23  1  0
 23 24  2  0
  8  2  1  0
 24 19  1  0
 16  9  1  0
M  CHG 1  11  -1
M  CHG 1  12  -1
M  CHG 1  15  -1
M  END
> <UniqueID>
57

> <SMILES>
C=c1c(=Cc2c([O-])[n-]c(=S)[n-]c2=O)c(C)nn1Cc1ccccc1

> <Energy>
83.27598704127206

> <Genealogy>
C=c1c(=Cc2c([O-])[n-]c(=S)[n-]c2=O)c(C)nn1Cc1ccccc1 (protonated)
C=c1c(=Cc2c([O-])[n-]c(=S)[n-]c2=O)c(C)nn1Cc1ccccc1 (3D coordinates assigned)
C=c1c(=Cc2c([O-])[n-]c(=S)[n-]c2=O)c(C)nn1Cc1ccccc1 (optimized conformer: 83.27598704127206 kcal/mol)

> <smiles>
C=c1c(=Cc2c(O)[nH]c(=S)[nH]c2=O)c(C)nn1Cc1ccccc1

> <score_type>
oracle

> <origin>
adg

> <m_score__min__energy>
-15.66

> <m_primary>
energy

> <minimizedAffinity>
-7.75850

> <minimizedRMSD>
1.59272

> <CNNscore>
0.1784638613

> <CNNaffinity>
5.8887991905

> <CNN_VS>
1.0509378910

> <CNNaffinity_variance>
0.3694527149

$$$$
63:0


 26 28  0  0  0  0  0  0  0  0999 V2000
   58.3925   28.5698   46.2207 C   0  0  0  0  0  0  0  0  0  0  0  0
   58.5505   28.6253   44.8318 C   0  0  0  0  0  0  0  0  0  0  0  0
   58.4057   27.4697   44.0583 C   0  0  0  0  0  0  0  0  0  0  0  0
   58.0920   26.2531   44.6681 C   0  0  0  0  0  0  0  0  0  0  0  0
   57.8987   26.1865   46.0573 C   0  0  0  0  0  0  0  0  0  0  0  0
   58.0334   27.3542   46.8265 C   0  0  0  0  0  0  0  0  0  0  0  0
   58.5828   29.7644   46.9928 N   0  0  0  0  0  0  0  0  0  0  0  0
   58.5481   31.1070   46.4851 C   0  0  0  0  0  0  0  0  0  0  0  0
   57.5537   31.4669   45.8005 O   0  0  0  0  0  0  0  0  0  0  0  0
   63.2077   32.0632   48.1012 C   0  0  0  0  0  0  0  0  0  0  0  0
   61.9234   32.5410   47.4908 C   0  0  0  0  0  0  0  0  0  0  0  0
   61.7653   33.8816   47.1106 C   0  0  0  0  0  0  0  0  0  0  0  0
   60.5677   34.3105   46.5335 C   0  0  0  0  0  0  0  0  0  0  0  0
   59.5233   33.4064   46.3278 C   0  0  0  0  0  0  0  0  0  0  0  0
   59.6632   32.0607   46.7042 C   0  0  0  0  0  0  0  0  0  0  0  0
   60.8787   31.6318   47.2684 C   0  0  0  0  0  0  0  0  0  0  0  0
   57.5752   24.8770   46.7263 C   0  0  0  0  0  0  0  0  0  0  0  0
   57.2483   23.8185   45.6963 C   0  0  0  0  0  0  0  0  0  0  0  0
   55.9406   23.6761   45.2022 C   0  0  0  0  0  0  0  0  0  0  0  0
   54.9154   24.4954   45.6618 O   0  0  0  0  0  0  0  0  0  0  0  0
   55.6652   22.7298   44.2667 N   0  0  0  0  0  0  0  0  0  0  0  0
   56.6366   21.9132   43.7903 C   0  0  0  0  0  0  0  0  0  0  0  0
   56.3574   21.0439   42.9241 O   0  0  0  0  0  0  0  0  0  0  0  0
   57.9103   22.0349   44.2410 N   0  0  0  0  0  0  0  0  0  0  0  0
   58.2405   22.9658   45.1720 C   0  0  0  0  0  0  0  0  0  0  0  0
   59.4365   23.0525   45.5572 O   0  0  0  0  0  0  0  0  0  0  0  0
 10 11  1  0
 11 12  2  0
 12 13  1  0
 13 14  2  0
 14 15  1  0
 15  8  1  0
  8  9  2  0
  8  7  1  0
  7  1  1  0
  1  2  2  0
  2  3  1  0
  3  4  2  0
  4  5  1  0
  5 17  1  0
 17 18  1  0
 18 19  2  0
 19 20  1  0
 19 21  1  0
 21 22  1  0
 22 23  2  0
 22 24  1  0
 24 25  1  0
 25 26  2  0
  5  6  2  0
 15 16  2  0
 16 11  1  0
  6  1  1  0
 25 18  1  0
M  CHG 1   7  -1
M  CHG 1  20  -1
M  CHG 1  21  -1
M  CHG 1  24  -1
M  END
> <UniqueID>
61

> <SMILES>
Cc1cccc(C(=O)[N-]c2cccc(Cc3c([O-])[n-]c(=O)[n-]c3=O)c2)c1

> <Energy>
45.28495841346775

> <Genealogy>
Cc1cccc(C(=O)[N-]c2cccc(Cc3c([O-])[n-]c(=O)[n-]c3=O)c2)c1 (protonated)
Cc1cccc(C(=O)[N-]c2cccc(Cc3c([O-])[n-]c(=O)[n-]c3=O)c2)c1 (3D coordinates assigned)
Cc1cccc(C(=O)[N-]c2cccc(Cc3c([O-])[n-]c(=O)[n-]c3=O)c2)c1 (optimized conformer: 45.28495841346775 kcal/mol)

> <smiles>
Cc1cccc(C(=O)Nc2cccc(Cc3c(O)[nH]c(=O)[nH]c3=O)c2)c1

> <score_type>
oracle

> <origin>
adg

> <m_score__min__energy>
-17.52

> <m_primary>
energy

> <minimizedAffinity>
-8.93817

> <minimizedRMSD>
2.38720

> <CNNscore>
0.3456629813

> <CNNaffinity>
6.2524852753

> <CNN_VS>
2.1612527370

> <CNNaffinity_variance>
0.1088015437

$$$$
86:0


 32 35  0  0  0  0  0  0  0  0999 V2000
   56.7685   30.2243   43.0295 C   0  0  0  0  0  0  0  0  0  0  0  0
   57.4928   31.0822   44.0309 C   0  0  0  0  0  0  0  0  0  0  0  0
   57.7634   32.4269   43.7347 C   0  0  0  0  0  0  0  0  0  0  0  0
   58.4276   33.2352   44.6597 C   0  0  0  0  0  0  0  0  0  0  0  0
   58.8180   32.7149   45.8977 C   0  0  0  0  0  0  0  0  0  0  0  0
   58.5523   31.3729   46.2009 C   0  0  0  0  0  0  0  0  0  0  0  0
   57.9051   30.5431   45.2662 C   0  0  0  0  0  0  0  0  0  0  0  0
   59.6270   33.7496   47.0787 S   0  0  0  0  0  0  0  0  0  0  0  0
   59.8970   35.0929   46.4575 O   0  0  0  0  0  0  0  0  0  0  0  0
   58.7158   33.9561   48.2567 O   0  0  0  0  0  0  0  0  0  0  0  0
   61.1309   33.0538   47.6320 N   0  0  0  0  0  0  0  0  0  0  0  0
   61.3204   33.3142   49.0684 C   0  0  0  0  0  0  0  0  0  0  0  0
   62.7369   32.8968   49.5135 C   0  0  0  0  0  0  0  0  0  0  0  0
   63.3936   32.1517   48.5061 O   0  0  0  0  0  0  0  0  0  0  0  0
   63.5808   32.9590   47.3568 C   0  0  0  0  0  0  0  0  0  0  0  0
   62.2624   33.5937   46.8650 C   0  0  0  0  0  0  0  0  0  0  0  0
   57.6042   29.1716   45.5677 N   0  0  0  0  0  0  0  0  0  0  0  0
   58.5089   28.1855   46.0815 C   0  0  0  0  0  0  0  0  0  0  0  0
   59.7043   28.1314   45.6833 O   0  0  0  0  0  0  0  0  0  0  0  0
   57.9995   27.1417   47.0231 C   0  0  0  0  0  0  0  0  0  0  0  0
   57.7670   25.8896   46.3021 N   0  0  0  0  0  0  0  0  0  0  0  0
   56.5657   25.3759   45.9564 C   0  0  0  0  0  0  0  0  0  0  0  0
   55.3479   26.0073   46.1867 O   0  0  0  0  0  0  0  0  0  0  0  0
   56.7214   24.1411   45.3611 C   0  0  0  0  0  0  0  0  0  0  0  0
   58.0678   23.8771   45.3536 C   0  0  0  0  0  0  0  0  0  0  0  0
   58.6867   24.9621   45.9454 C   0  0  0  0  0  0  0  0  0  0  0  0
   60.0606   25.0731   46.1546 O   0  0  0  0  0  0  0  0  0  0  0  0
   58.6697   22.6078   44.8480 C   0  0  0  0  0  0  0  0  0  0  0  0
   57.6238   21.6936   44.2397 C   0  0  0  0  0  0  0  0  0  0  0  0
   56.2973   21.9572   44.2407 C   0  0  0  0  0  0  0  0  0  0  0  0
   55.6788   23.1978   44.8530 C   0  0  0  0  0  0  0  0  0  0  0  0
   60.6337   24.3854   45.8779 H   0  0  0  0  0  0  0  0  0  0  0  0
  1  2  1  0
  2  3  2  0
  3  4  1  0
  4  5  2  0
  5  8  1  0
  8  9  2  0
  8 10  2  0
  8 11  1  0
 11 12  1  0
 12 13  1  0
 13 14  1  0
 14 15  1  0
 15 16  1  0
  5  6  1  0
  6  7  2  0
  7 17  1  0
 17 18  1  0
 18 19  2  0
 18 20  1  0
 20 21  1  0
 21 22  1  0
 22 23  1  0
 22 24  2  0
 24 25  1  0
 25 26  2  0
 26 27  1  0
 25 28  1  0
 28 29  1  0
 29 30  2  0
 30 31  1  0
  7  2  1  0
 26 21  1  0
 16 11  1  0
 31 24  1  0
 27 32  1  0
M  CHG 1  17  -1
M  CHG 1  23  -1
M  END
> <UniqueID>
83

> <SMILES>
Cc1ccc(S(=O)(=O)N2CCOCC2)cc1[N-]C(=O)Cn1c([O-])c2c(c1O)CC=CC2

> <Energy>
96.66643528280214

> <Genealogy>
Cc1ccc(S(=O)(=O)N2CCOCC2)cc1[N-]C(=O)Cn1c([O-])c2c(c1O)CC=CC2 (protonated)
Cc1ccc(S(=O)(=O)N2CCOCC2)cc1[N-]C(=O)Cn1c([O-])c2c(c1O)CC=CC2 (3D coordinates assigned)
Cc1ccc(S(=O)(=O)N2CCOCC2)cc1[N-]C(=O)Cn1c([O-])c2c(c1O)CC=CC2 (nonaromatic ring conformer: 96.66643528280214 kcal/mol)

> <smiles>
Cc1ccc(S(=O)(=O)N2CCOCC2)cc1NC(=O)Cn1c(O)c2c(c1O)CC=CC2

> <score_type>
oracle

> <origin>
adg

> <m_score__min__energy>
-14.18

> <m_primary>
energy

> <minimizedAffinity>
-8.56340

> <minimizedRMSD>
0.69514

> <CNNscore>
0.2620113492

> <CNNaffinity>
6.4712309837

> <CNN_VS>
1.6955360174

> <CNNaffinity_variance>
0.0040313252

$$$$
90:0


 29 31  0  0  0  0  0  0  0  0999 V2000
   59.8641   29.7805   49.7346 O   0  0  0  0  0  0  0  0  0  0  0  0
   59.1816   30.5016   50.7148 C   0  0  0  0  0  0  0  0  0  0  0  0
   58.6479   29.7878   51.7946 C   0  0  0  0  0  0  0  0  0  0  0  0
   57.8872   30.4353   52.7757 C   0  0  0  0  0  0  0  0  0  0  0  0
   57.6597   31.8099   52.6753 C   0  0  0  0  0  0  0  0  0  0  0  0
   58.2034   32.5389   51.6161 C   0  0  0  0  0  0  0  0  0  0  0  0
   58.9855   31.9037   50.6354 C   0  0  0  0  0  0  0  0  0  0  0  0
   59.9724   28.8541   49.8245 H   0  0  0  0  0  0  0  0  0  0  0  0
   57.1766   29.5300   54.1113 S   0  0  0  0  0  0  0  0  0  0  0  0
   58.1811   29.4544   55.2266 O   0  0  0  0  0  0  0  0  0  0  0  0
   56.8479   28.1290   53.6749 O   0  0  0  0  0  0  0  0  0  0  0  0
   55.7343   30.3053   54.7016 N   0  0  0  0  0  0  0  0  0  0  0  0
   54.5537   29.4545   54.5280 C   0  0  0  0  0  0  0  0  0  0  0  0
   53.5630   30.0785   53.5810 C   0  0  0  0  0  0  0  0  0  0  0  0
   53.9011   30.2693   52.2320 C   0  0  0  0  0  0  0  0  0  0  0  0
   52.9875   30.8619   51.3535 C   0  0  0  0  0  0  0  0  0  0  0  0
   51.7321   31.2642   51.8159 C   0  0  0  0  0  0  0  0  0  0  0  0
   51.3849   31.0734   53.1570 C   0  0  0  0  0  0  0  0  0  0  0  0
   50.1356   31.4735   53.6156 O   0  0  0  0  0  0  0  0  0  0  0  0
   52.2965   30.4796   54.0383 C   0  0  0  0  0  0  0  0  0  0  0  0
   59.5969   32.7328   49.5730 C   0  0  0  0  0  0  0  0  0  0  0  0
   59.9078   33.9312   49.8104 O   0  0  0  0  0  0  0  0  0  0  0  0
   59.7752   32.1736   48.2594 N   0  0  0  0  0  0  0  0  0  0  0  0
   59.2630   32.6083   47.1445 C   0  0  0  0  0  0  0  0  0  0  0  0
   58.2276   31.9612   46.5383 N   0  0  0  0  0  0  0  0  0  0  0  0
   57.6833   32.4072   45.3737 C   0  0  0  0  0  0  0  0  0  0  0  0
   58.1846   33.5585   44.7631 C   0  0  0  0  0  0  0  0  0  0  0  0
   59.2433   34.2405   45.3627 C   0  0  0  0  0  0  0  0  0  0  0  0
   59.7881   33.7682   46.5585 C   0  0  0  0  0  0  0  0  0  0  0  0
  1  2  1  0
  2  3  2  0
  3  4  1  0
  4  9  1  0
  9 10  2  0
  9 11  2  0
  9 12  1  0
 12 13  1  0
 13 14  1  0
 14 15  2  0
 15 16  1  0
 16 17  2  0
 17 18  1  0
 18 19  1  0
 18 20  2  0
  4  5  2  0
  5  6  1  0
  6  7  2  0
  7 21  1  0
 21 22  2  0
 21 23  1  0
 23 24  2  0
 24 25  1  0
 25 26  1  0
 26 27  2  0
 27 28  1  0
 28 29  2  0
  7  2  1  0
 29 24  1  0
 20 14  1  0
  1  8  1  0
M  CHG 1  12  -1
M  CHG 1  19  -1
M  CHG 1  25  -1
M  END
> <UniqueID>
86

> <SMILES>
O=C(/N=c1/cccc[n-]1)c1ccc(S(=O)(=O)[N-]Cc2cccc([O-])c2)cc1O

> <Energy>
52.18998104509168

> <Genealogy>
O=C(N=c1cccc[n-]1)c1ccc(S(=O)(=O)[N-]Cc2cccc([O-])c2)cc1O (protonated)
O=C(/N=c1/cccc[n-]1)c1ccc(S(=O)(=O)[N-]Cc2cccc([O-])c2)cc1O (cis-trans isomerization)
O=C(/N=c1/cccc[n-]1)c1ccc(S(=O)(=O)[N-]Cc2cccc([O-])c2)cc1O (3D coordinates assigned)
O=C(/N=c1/cccc[n-]1)c1ccc(S(=O)(=O)[N-]Cc2cccc([O-])c2)cc1O (optimized conformer: 52.18998104509168 kcal/mol)

> <smiles>
O=C(N=c1cccc[nH]1)c1ccc(S(=O)(=O)NCc2cccc(O)c2)cc1O

> <score_type>
oracle

> <origin>
adg

> <m_score__min__energy>
-15.380000000000001

> <m_primary>
energy

> <minimizedAffinity>
-7.11218

> <minimizedRMSD>
1.21339

> <CNNscore>
0.5858495235

> <CNNaffinity>
5.6107425690

> <CNN_VS>
3.2870509624

> <CNNaffinity_variance>
0.0338041745

$$$$
23:0


 27 29  0  0  0  0  0  0  0  0999 V2000
   57.8655   31.5329   43.5988 N   0  0  0  0  0  0  0  0  0  0  0  0
   57.2051   30.4594   44.2819 C   0  0  0  0  0  0  0  0  0  0  0  0
   55.9629   30.5405   44.4734 O   0  0  0  0  0  0  0  0  0  0  0  0
   57.9120   27.0125   45.6736 C   0  0  0  0  0  0  0  0  0  0  0  0
   59.2963   27.0762   45.8768 C   0  0  0  0  0  0  0  0  0  0  0  0
   60.0006   28.2359   45.5467 C   0  0  0  0  0  0  0  0  0  0  0  0
   59.3281   29.3408   45.0200 C   0  0  0  0  0  0  0  0  0  0  0  0
   57.9377   29.2967   44.8262 C   0  0  0  0  0  0  0  0  0  0  0  0
   57.2391   28.1162   45.1298 C   0  0  0  0  0  0  0  0  0  0  0  0
   55.3376   25.8718   46.1065 N   0  0  0  0  0  0  0  0  0  0  0  0
   57.0332   25.5416   46.0776 S   0  0  0  0  0  0  0  0  0  0  0  0
   57.4635   25.0324   47.4262 O   0  0  0  0  0  0  0  0  0  0  0  0
   57.3227   24.4836   45.0494 O   0  0  0  0  0  0  0  0  0  0  0  0
   54.8292   25.0191   46.3407 H   0  0  0  0  0  0  0  0  0  0  0  0
   58.2934   32.7894   44.2051 C   0  0  0  0  0  0  0  0  0  0  0  0
   57.7543   32.8806   45.6013 C   0  0  0  0  0  0  0  0  0  0  0  0
   56.7671   33.6307   45.8254 O   0  0  0  0  0  0  0  0  0  0  0  0
   58.3649   32.1933   46.7026 N   0  0  0  0  0  0  0  0  0  0  0  0
   59.5038   32.6322   47.4550 C   0  0  0  0  0  0  0  0  0  0  0  0
   59.3208   33.5857   48.4756 C   0  0  0  0  0  0  0  0  0  0  0  0
   60.4128   34.0388   49.2301 C   0  0  0  0  0  0  0  0  0  0  0  0
   61.6799   33.5145   48.9611 C   0  0  0  0  0  0  0  0  0  0  0  0
   61.8600   32.5616   47.9928 C   0  0  0  0  0  0  0  0  0  0  0  0
   60.7870   32.0914   47.2325 C   0  0  0  0  0  0  0  0  0  0  0  0
   63.2708   32.1262   47.8953 C   0  0  0  0  0  0  0  0  0  0  0  0
   64.0065   33.0073   48.9235 C   0  0  0  0  0  0  0  0  0  0  0  0
   62.9453   33.8606   49.6460 C   0  0  0  0  0  0  0  0  0  0  0  0
 10 11  1  0
 11 12  2  0
 11 13  2  0
 11  4  1  0
  4  5  2  0
  5  6  1  0
  6  7  2  0
  7  8  1  0
  8  2  1  0
  2  3  2  0
  2  1  1  0
  1 15  1  0
 15 16  1  0
 16 17  2  0
 16 18  1  0
 18 19  1  0
 19 20  2  0
 20 21  1  0
 21 22  2  0
 22 23  1  0
 23 24  2  0
 23 25  1  0
 25 26  1  0
 26 27  1  0
  8  9  2  0
  9  4  1  0
 24 19  1  0
 27 22  1  0
 10 14  1  0
M  CHG 1   1  -1
M  CHG 1  10  -1
M  CHG 1  18  -1
M  END
> <UniqueID>
21

> <SMILES>
[NH-]S(=O)(=O)c1cccc(C(=O)[N-]CC(=O)[N-]c2ccc3c(c2)CCC3)c1

> <Energy>
55.82141271653918

> <Genealogy>
[NH-]S(=O)(=O)c1cccc(C(=O)[N-]CC(=O)[N-]c2ccc3c(c2)CCC3)c1 (protonated)
[NH-]S(=O)(=O)c1cccc(C(=O)[N-]CC(=O)[N-]c2ccc3c(c2)CCC3)c1 (3D coordinates assigned)
[NH-]S(=O)(=O)c1cccc(C(=O)[N-]CC(=O)[N-]c2ccc3c(c2)CCC3)c1 (nonaromatic ring conformer: 55.82141271653918 kcal/mol)

> <smiles>
NS(=O)(=O)c1cccc(C(=O)NCC(=O)Nc2ccc3c(c2)CCC3)c1

> <score_type>
oracle

> <origin>
adg

> <m_score__min__energy>
-14.76

> <m_primary>
energy

> <minimizedAffinity>
-8.64131

> <minimizedRMSD>
0.50916

> <CNNscore>
0.9155695438

> <CNNaffinity>
7.1823825836

> <CNN_VS>
6.5759706497

> <CNNaffinity_variance>
0.2765057087

$$$$
25:0


 27 29  0  0  0  0  0  0  0  0999 V2000
   58.5448   31.5672   46.3136 C   0  0  0  0  0  0  0  0  0  0  0  0
   58.8514   33.1619   45.8712 S   0  0  0  0  0  0  0  0  0  0  0  0
   58.1584   33.0549   44.3425 C   0  0  0  0  0  0  0  0  0  0  0  0
   57.6782   31.7634   44.1641 C   0  0  0  0  0  0  0  0  0  0  0  0
   57.8884   30.9188   45.2687 C   0  0  0  0  0  0  0  0  0  0  0  0
   57.4466   29.5089   45.2973 C   0  0  0  0  0  0  0  0  0  0  0  0
   56.4750   29.1455   44.5807 O   0  0  0  0  0  0  0  0  0  0  0  0
   58.0325   28.5889   46.2292 N   0  0  0  0  0  0  0  0  0  0  0  0
   58.1212   27.2892   46.1606 C   0  0  0  0  0  0  0  0  0  0  0  0
   59.3686   26.7439   46.1331 N   0  0  0  0  0  0  0  0  0  0  0  0
   59.5847   25.4036   46.0699 C   0  0  0  0  0  0  0  0  0  0  0  0
   58.5039   24.5268   46.0268 C   0  0  0  0  0  0  0  0  0  0  0  0
   57.2088   25.0412   46.0253 C   0  0  0  0  0  0  0  0  0  0  0  0
   57.0004   26.4227   46.0727 C   0  0  0  0  0  0  0  0  0  0  0  0
   55.6966   26.8950   45.9772 O   0  0  0  0  0  0  0  0  0  0  0  0
   58.9204   30.9624   47.5545 N   0  0  0  0  0  0  0  0  0  0  0  0
   60.5271   30.4220   47.8997 S   0  0  0  0  0  0  0  0  0  0  0  0
   60.4840   29.4165   49.0152 O   0  0  0  0  0  0  0  0  0  0  0  0
   61.0976   29.7629   46.6744 O   0  0  0  0  0  0  0  0  0  0  0  0
   61.1289   32.6374   49.4667 C   0  0  0  0  0  0  0  0  0  0  0  0
   61.9352   33.7253   49.8300 C   0  0  0  0  0  0  0  0  0  0  0  0
   63.1248   33.9807   49.1430 C   0  0  0  0  0  0  0  0  0  0  0  0
   63.5181   33.1506   48.0925 C   0  0  0  0  0  0  0  0  0  0  0  0
   62.7219   32.0628   47.7222 C   0  0  0  0  0  0  0  0  0  0  0  0
   61.5227   31.7968   48.4010 C   0  0  0  0  0  0  0  0  0  0  0  0
   58.9297   32.2162   50.7872 N   0  0  0  0  0  0  0  0  0  0  0  0
   59.9084   32.4048   50.2007 C   0  0  0  0  0  0  0  0  0  0  0  0
 26 27  3  0
 27 20  1  0
 20 21  2  0
 21 22  1  0
 22 23  2  0
 23 24  1  0
 24 25  2  0
 25 17  1  0
 17 18  2  0
 17 19  2  0
 17 16  1  0
 16  1  1  0
  1  2  1  0
  2  3  1  0
  3  4  2  0
  4  5  1  0
  5  6  1  0
  6  7  2  0
  6  8  1  0
  8  9  2  0
  9 10  1  0
 10 11  1  0
 11 12  2  0
 12 13  1  0
 13 14  2  0
 14 15  1  0
 25 20  1  0
  5  1  2  0
 14  9  1  0
M  CHG 1  10  -1
M  CHG 1  15  -1
M  CHG 1  16  -1
M  END
> <UniqueID>
22

> <SMILES>
N#Cc1ccccc1S(=O)(=O)[N-]c1sccc1C(=O)N=c1[n-]cccc1[O-]

> <Energy>
80.54092334081736

> <Genealogy>
N#Cc1ccccc1S(=O)(=O)[N-]c1sccc1C(=O)N=c1[n-]cccc1[O-] (protonated)
N#Cc1ccccc1S(=O)(=O)[N-]c1sccc1C(=O)N=c1[n-]cccc1[O-] (3D coordinates assigned)
N#Cc1ccccc1S(=O)(=O)[N-]c1sccc1C(=O)N=c1[n-]cccc1[O-] (optimized conformer: 80.54092334081736 kcal/mol)

> <smiles>
N#Cc1ccccc1S(=O)(=O)Nc1sccc1C(=O)N=c1[nH]cccc1O

> <score_type>
oracle

> <origin>
adg

> <m_score__min__energy>
-15.720000000000001

> <m_primary>
energy

> <minimizedAffinity>
-6.74448

> <minimizedRMSD>
1.01533

> <CNNscore>
0.6296977401

> <CNNaffinity>
6.6923422813

> <CNN_VS>
4.2141528130

> <CNNaffinity_variance>
0.1143799126

$$$$
27:0


 28 30  0  0  0  0  0  0  0  0999 V2000
   60.1812   33.0977   47.0952 C   0  0  0  0  0  0  0  0  0  0  0  0
   60.3986   34.3129   46.4237 C   0  0  0  0  0  0  0  0  0  0  0  0
   59.5118   34.7434   45.4340 C   0  0  0  0  0  0  0  0  0  0  0  0
   58.4031   33.9641   45.0973 C   0  0  0  0  0  0  0  0  0  0  0  0
   58.1771   32.7384   45.7460 C   0  0  0  0  0  0  0  0  0  0  0  0
   59.0688   32.3145   46.7403 C   0  0  0  0  0  0  0  0  0  0  0  0
   61.4759   31.4427   48.2027 O   0  0  0  0  0  0  0  0  0  0  0  0
   61.1229   32.6515   48.1537 C   0  0  0  0  0  0  0  0  0  0  0  0
   61.5786   33.5420   49.1807 N   0  0  0  0  0  0  0  0  0  0  0  0
   62.5263   33.3716   50.0632 C   0  0  0  0  0  0  0  0  0  0  0  0
   62.1730   33.4521   51.3761 N   0  0  0  0  0  0  0  0  0  0  0  0
   63.0815   33.4118   52.3857 C   0  0  0  0  0  0  0  0  0  0  0  0
   64.4380   33.3027   52.0977 C   0  0  0  0  0  0  0  0  0  0  0  0
   64.8420   33.1729   50.7705 C   0  0  0  0  0  0  0  0  0  0  0  0
   63.8976   33.1487   49.7399 C   0  0  0  0  0  0  0  0  0  0  0  0
   64.3550   32.8267   48.4614 O   0  0  0  0  0  0  0  0  0  0  0  0
   65.2701   32.6919   48.3114 H   0  0  0  0  0  0  0  0  0  0  0  0
   57.0595   31.8999   45.4259 N   0  0  0  0  0  0  0  0  0  0  0  0
   57.1034   30.5420   44.3483 S   0  0  0  0  0  0  0  0  0  0  0  0
   57.5233   31.0118   42.9835 O   0  0  0  0  0  0  0  0  0  0  0  0
   55.7282   29.9442   44.2522 O   0  0  0  0  0  0  0  0  0  0  0  0
   58.2149   29.3182   44.9640 C   0  0  0  0  0  0  0  0  0  0  0  0
   59.5989   29.5574   44.9597 C   0  0  0  0  0  0  0  0  0  0  0  0
   60.4815   28.5959   45.4588 C   0  0  0  0  0  0  0  0  0  0  0  0
   59.9911   27.3886   45.9618 C   0  0  0  0  0  0  0  0  0  0  0  0
   58.6156   27.1394   45.9656 C   0  0  0  0  0  0  0  0  0  0  0  0
   57.7252   28.0997   45.4678 C   0  0  0  0  0  0  0  0  0  0  0  0
   56.3606   27.8311   45.4758 O   0  0  0  0  0  0  0  0  0  0  0  0
  7  8  2  0
  8  9  1  0
  9 10  2  0
 10 11  1  0
 11 12  1  0
 12 13  2  0
 13 14  1  0
 14 15  2  0
 15 16  1  0
  8  1  1  0
  1  2  2  0
  2  3  1  0
  3  4  2  0
  4  5  1  0
  5 18  1  0
 18 19  1  0
 19 20  2  0
 19 21  2  0
 19 22  1  0
 22 23  2  0
 23 24  1  0
 24 25  2  0
 25 26  1  0
 26 27  2  0
 27 28  1  0
  5  6  2  0
 15 10  1  0
  6  1  1  0
 27 22  1  0
 16 17  1  0
M  CHG 1  11  -1
M  CHG 1  18  -1
M  CHG 1  28  -1
M  END
> <UniqueID>
24

> <SMILES>
O=C(N=c1[n-]cccc1O)c1cccc([N-]S(=O)(=O)c2ccccc2[O-])c1

> <Energy>
64.87864047258708

> <Genealogy>
O=C(N=c1[n-]cccc1O)c1cccc([N-]S(=O)(=O)c2ccccc2[O-])c1 (protonated)
O=C(N=c1[n-]cccc1O)c1cccc([N-]S(=O)(=O)c2ccccc2[O-])c1 (3D coordinates assigned)
O=C(N=c1[n-]cccc1O)c1cccc([N-]S(=O)(=O)c2ccccc2[O-])c1 (optimized conformer: 64.87864047258708 kcal/mol)

> <smiles>
O=C(N=c1[nH]cccc1O)c1cccc(NS(=O)(=O)c2ccccc2O)c1

> <score_type>
oracle

> <origin>
adg

> <m_score__min__energy>
-14.43

> <m_primary>
energy

> <minimizedAffinity>
-8.27379

> <minimizedRMSD>
1.13126

> <CNNscore>
0.5217338204

> <CNNaffinity>
6.1673665047

> <CNN_VS>
3.2177236080

> <CNNaffinity_variance>
0.0115666725

$$$$
32:0


 23 24  0  0  0  0  0  0  0  0999 V2000
   59.1804   30.0771   47.7419 C   0  0  0  0  0  0  0  0  0  0  0  0
   58.6508   29.5965   46.4103 C   0  0  0  0  0  0  0  0  0  0  0  0
   57.9358   30.4897   45.5744 C   0  0  0  0  0  0  0  0  0  0  0  0
   57.4579   30.0415   44.3312 C   0  0  0  0  0  0  0  0  0  0  0  0
   57.6695   28.7283   43.9231 C   0  0  0  0  0  0  0  0  0  0  0  0
   58.3398   27.8361   44.7543 C   0  0  0  0  0  0  0  0  0  0  0  0
   58.8141   28.2439   46.0080 C   0  0  0  0  0  0  0  0  0  0  0  0
   59.6118   27.0381   47.0368 S   0  0  0  0  0  0  0  0  0  0  0  0
   60.1242   27.6680   48.3028 O   0  0  0  0  0  0  0  0  0  0  0  0
   60.7663   26.4420   46.2823 O   0  0  0  0  0  0  0  0  0  0  0  0
   58.5135   25.7653   47.4639 N   0  0  0  0  0  0  0  0  0  0  0  0
   57.6817   25.0458   46.5429 C   0  0  0  0  0  0  0  0  0  0  0  0
   58.2926   24.2108   45.5997 C   0  0  0  0  0  0  0  0  0  0  0  0
   57.5189   23.4983   44.6783 C   0  0  0  0  0  0  0  0  0  0  0  0
   56.1255   23.6188   44.6925 C   0  0  0  0  0  0  0  0  0  0  0  0
   55.5059   24.4513   45.6290 C   0  0  0  0  0  0  0  0  0  0  0  0
   54.1216   24.5726   45.6395 O   0  0  0  0  0  0  0  0  0  0  0  0
   56.2792   25.1640   46.5526 C   0  0  0  0  0  0  0  0  0  0  0  0
   57.7072   31.8406   46.0123 N   0  0  0  0  0  0  0  0  0  0  0  0
   58.1673   33.2854   45.1717 S   0  0  0  0  0  0  0  0  0  0  0  0
   59.6744   33.9408   45.8572 C   0  0  0  0  0  0  0  0  0  0  0  0
   58.4051   32.9465   43.7281 O   0  0  0  0  0  0  0  0  0  0  0  0
   57.0652   34.3041   45.2542 O   0  0  0  0  0  0  0  0  0  0  0  0
  1  2  1  0
  2  3  2  0
  3 19  1  0
 19 20  1  0
 20 21  1  0
 20 22  2  0
 20 23  2  0
  3  4  1  0
  4  5  2  0
  5  6  1  0
  6  7  2  0
  7  8  1  0
  8  9  2  0
  8 10  2  0
  8 11  1  0
 11 12  1  0
 12 13  2  0
 13 14  1  0
 14 15  2  0
 15 16  1  0
 16 17  1  0
 16 18  2  0
  7  2  1  0
 18 12  1  0
M  CHG 1  11  -1
M  CHG 1  17  -1
M  CHG 1  19  -1
M  END
> <UniqueID>
29

> <SMILES>
Cc1c([N-]S(C)(=O)=O)cccc1S(=O)(=O)[N-]c1cccc([O-])c1

> <Energy>
42.08927072744687

> <Genealogy>
Cc1c([N-]S(C)(=O)=O)cccc1S(=O)(=O)[N-]c1cccc([O-])c1 (protonated)
Cc1c([N-]S(C)(=O)=O)cccc1S(=O)(=O)[N-]c1cccc([O-])c1 (3D coordinates assigned)
Cc1c([N-]S(C)(=O)=O)cccc1S(=O)(=O)[N-]c1cccc([O-])c1 (optimized conformer: 42.08927072744687 kcal/mol)

> <smiles>
Cc1c(NS(C)(=O)=O)cccc1S(=O)(=O)Nc1cccc(O)c1

> <score_type>
oracle

> <origin>
adg

> <m_score__min__energy>
-14.109999999999999

> <m_primary>
energy

> <minimizedAffinity>
-6.69089

> <minimizedRMSD>
0.94524

> <CNNscore>
0.2339389026

> <CNNaffinity>
5.1002311707

> <CNN_VS>
1.1931425333

> <CNNaffinity_variance>
0.1567012817

$$$$
38:0


 27 29  0  0  0  0  0  0  0  0999 V2000
   60.4272   31.7771   47.6994 N   0  0  0  0  0  0  0  0  0  0  0  0
   59.4202   32.6957   47.8182 C   0  0  0  0  0  0  0  0  0  0  0  0
   59.4863   33.6163   48.6788 O   0  0  0  0  0  0  0  0  0  0  0  0
   58.3316   32.6222   47.0136 N   0  0  0  0  0  0  0  0  0  0  0  0
   58.2099   31.6544   46.0717 C   0  0  0  0  0  0  0  0  0  0  0  0
   57.0680   31.6228   45.2816 O   0  0  0  0  0  0  0  0  0  0  0  0
   59.2256   30.7001   45.9096 C   0  0  0  0  0  0  0  0  0  0  0  0
   60.3453   30.7818   46.7604 C   0  0  0  0  0  0  0  0  0  0  0  0
   61.2729   29.9310   46.6643 O   0  0  0  0  0  0  0  0  0  0  0  0
   61.6250   31.1538   49.7912 C   0  0  0  0  0  0  0  0  0  0  0  0
   62.7832   31.2675   50.5886 C   0  0  0  0  0  0  0  0  0  0  0  0
   63.8593   32.0574   50.1790 C   0  0  0  0  0  0  0  0  0  0  0  0
   63.7996   32.7477   48.9687 C   0  0  0  0  0  0  0  0  0  0  0  0
   62.6651   32.6480   48.1631 C   0  0  0  0  0  0  0  0  0  0  0  0
   61.5756   31.8582   48.5618 C   0  0  0  0  0  0  0  0  0  0  0  0
   60.1945   30.4808   51.7556 C   0  0  0  0  0  0  0  0  0  0  0  0
   60.4633   30.2856   50.2580 C   0  0  0  0  0  0  0  0  0  0  0  0
   60.7105   28.8108   49.9267 C   0  0  0  0  0  0  0  0  0  0  0  0
   59.1145   29.6314   44.8407 C   0  0  0  0  0  0  0  0  0  0  0  0
   58.7631   28.2920   45.4462 C   0  0  0  0  0  0  0  0  0  0  0  0
   59.7835   27.4517   45.9249 C   0  0  0  0  0  0  0  0  0  0  0  0
   59.4706   26.2196   46.5082 C   0  0  0  0  0  0  0  0  0  0  0  0
   58.1383   25.8145   46.6175 C   0  0  0  0  0  0  0  0  0  0  0  0
   57.8309   24.5897   47.1986 O   0  0  0  0  0  0  0  0  0  0  0  0
   57.1173   26.6395   46.1421 C   0  0  0  0  0  0  0  0  0  0  0  0
   57.4210   27.8740   45.5575 C   0  0  0  0  0  0  0  0  0  0  0  0
   56.3849   28.6718   45.0856 O   0  0  0  0  0  0  0  0  0  0  0  0
 16 17  1  0
 17 18  1  0
 17 10  1  0
 10 11  2  0
 11 12  1  0
 12 13  2  0
 13 14  1  0
 14 15  2  0
 15  1  1  0
  1  2  1  0
  2  3  2  0
  2  4  1  0
  4  5  1  0
  5  6  1  0
  5  7  2  0
  7 19  1  0
 19 20  1  0
 20 21  2  0
 21 22  1  0
 22 23  2  0
 23 24  1  0
 23 25  1  0
 25 26  2  0
 26 27  1  0
  7  8  1  0
  8  9  2  0
 15 10  1  0
  8  1  1  0
 26 20  1  0
M  CHG 1   4  -1
M  CHG 1   6  -1
M  CHG 1  24  -1
M  CHG 1  27  -1
M  END
> <UniqueID>
35

> <SMILES>
CC(C)c1ccccc1-n1c(=O)[n-]c([O-])c(Cc2ccc([O-])cc2[O-])c1=O

> <Energy>
55.58961518455029

> <Genealogy>
CC(C)c1ccccc1-n1c(=O)[n-]c([O-])c(Cc2ccc([O-])cc2[O-])c1=O (protonated)
CC(C)c1ccccc1-n1c(=O)[n-]c([O-])c(Cc2ccc([O-])cc2[O-])c1=O (3D coordinates assigned)
CC(C)c1ccccc1-n1c(=O)[n-]c([O-])c(Cc2ccc([O-])cc2[O-])c1=O (optimized conformer: 55.58961518455029 kcal/mol)

> <smiles>
CC(C)c1ccccc1-n1c(=O)[nH]c(O)c(Cc2ccc(O)cc2O)c1=O

> <score_type>
oracle

> <origin>
adg

> <m_score__min__energy>
-15.49

> <m_primary>
energy

> <minimizedAffinity>
-7.79965

> <minimizedRMSD>
2.18765

> <CNNscore>
0.4591667652

> <CNNaffinity>
6.8931908607

> <CNN_VS>
3.1651241779

> <CNNaffinity_variance>
0.3222463131

$$$$
42:0


 29 31  0  0  0  0  0  0  0  0999 V2000
   59.2248   30.6389   52.2648 C   0  0  0  0  0  0  0  0  0  0  0  0
   58.5140   31.7336   52.7923 C   0  0  0  0  0  0  0  0  0  0  0  0
   57.4757   31.5327   53.7067 C   0  0  0  0  0  0  0  0  0  0  0  0
   57.1170   30.2329   54.0968 C   0  0  0  0  0  0  0  0  0  0  0  0
   57.8285   29.1395   53.5809 C   0  0  0  0  0  0  0  0  0  0  0  0
   58.8685   29.3393   52.6704 C   0  0  0  0  0  0  0  0  0  0  0  0
   60.3254   30.8525   51.2974 C   0  0  0  0  0  0  0  0  0  0  0  0
   61.4560   30.3289   51.4994 O   0  0  0  0  0  0  0  0  0  0  0  0
   59.5039   30.9735   49.0267 C   0  0  0  0  0  0  0  0  0  0  0  0
   59.3595   33.1768   47.7902 N   0  0  0  0  0  0  0  0  0  0  0  0
   59.0154   31.7890   47.9044 C   0  0  0  0  0  0  0  0  0  0  0  0
   59.5792   32.8857   47.6474 O   0  0  0  0  0  0  0  0  0  0  0  0
   59.2828   29.6950   49.0448 N   0  0  0  0  0  0  0  0  0  0  0  0
   58.5319   30.2253   46.0604 C   0  0  0  0  0  0  0  0  0  0  0  0
   59.8169   29.7761   46.0672 N   0  0  0  0  0  0  0  0  0  0  0  0
   60.2270   28.7182   45.3209 C   0  0  0  0  0  0  0  0  0  0  0  0
   59.3209   28.0510   44.4986 C   0  0  0  0  0  0  0  0  0  0  0  0
   58.0024   28.4956   44.4393 C   0  0  0  0  0  0  0  0  0  0  0  0
   57.5949   29.5935   45.2001 C   0  0  0  0  0  0  0  0  0  0  0  0
   56.2908   30.0546   45.0539 O   0  0  0  0  0  0  0  0  0  0  0  0
   56.0313   30.0144   55.1081 C   0  0  0  0  0  0  0  0  0  0  0  0
   54.9514   29.3203   54.4910 O   0  0  0  0  0  0  0  0  0  0  0  0
   54.0399   29.9034   53.5981 C   0  0  0  0  0  0  0  0  0  0  0  0
   54.3299   30.0837   52.2305 C   0  0  0  0  0  0  0  0  0  0  0  0
   53.3863   30.6749   51.3839 C   0  0  0  0  0  0  0  0  0  0  0  0
   52.1505   31.0868   51.8903 C   0  0  0  0  0  0  0  0  0  0  0  0
   51.2145   31.6736   51.0469 O   0  0  0  0  0  0  0  0  0  0  0  0
   51.8556   30.9089   53.2453 C   0  0  0  0  0  0  0  0  0  0  0  0
   52.7972   30.3204   54.0949 C   0  0  0  0  0  0  0  0  0  0  0  0
  9 10  2  0
 10  7  1  0
  7  8  2  0
  7  1  1  0
  1  2  2  0
  2  3  1  0
  3  4  2  0
  4 21  1  0
 21 22  1  0
 22 23  1  0
 23 24  2  0
 24 25  1  0
 25 26  2  0
 26 27  1  0
 26 28  1  0
 28 29  2  0
  4  5  1  0
  5  6  2  0
  9 11  1  0
 11 12  2  0
 11 13  1  0
 13 14  2  0
 14 15  1  0
 15 16  1  0
 16 17  2  0
 17 18  1  0
 18 19  2  0
 19 20  1  0
  6  1  1  0
 19 14  1  0
 29 23  1  0
M  CHG 1  15  -1
M  CHG 1  20  -1
M  CHG 1  27  -1
M  END
> <UniqueID>
39

> <SMILES>
O=C(/C=N/C(=O)c1ccc(COc2ccc([O-])cc2)cc1)/N=c1/[n-]cccc1[O-]

> <Energy>
57.29727988898383

> <Genealogy>
O=C(C=NC(=O)c1ccc(COc2ccc([O-])cc2)cc1)N=c1[n-]cccc1[O-] (protonated)
O=C(/C=N/C(=O)c1ccc(COc2ccc([O-])cc2)cc1)/N=c1/[n-]cccc1[O-] (cis-trans isomerization)
O=C(/C=N/C(=O)c1ccc(COc2ccc([O-])cc2)cc1)/N=c1/[n-]cccc1[O-] (3D coordinates assigned)
O=C(/C=N/C(=O)c1ccc(COc2ccc([O-])cc2)cc1)/N=c1/[n-]cccc1[O-] (optimized conformer: 57.29727988898383 kcal/mol)

> <smiles>
O=C(C=NC(=O)c1ccc(COc2ccc(O)cc2)cc1)N=c1[nH]cccc1O

> <score_type>
oracle

> <origin>
adg

> <m_score__min__energy>
-16.300000000000001

> <m_primary>
energy

> <minimizedAffinity>
-7.42760

> <minimizedRMSD>
2.07486

> <CNNscore>
0.0859044641

> <CNNaffinity>
5.3095092773

> <CNN_VS>
0.4561105371

> <CNNaffinity_variance>
0.2689331472

$$$$
76:0


 25 27  0  0  0  0  0  0  0  0999 V2000
   58.3920   33.0800   46.2635 C   0  0  0  0  0  0  0  0  0  0  0  0
   59.1748   34.1880   45.8923 C   0  0  0  0  0  0  0  0  0  0  0  0
   60.0478   34.7710   46.8137 C   0  0  0  0  0  0  0  0  0  0  0  0
   60.1618   34.2450   48.1029 C   0  0  0  0  0  0  0  0  0  0  0  0
   59.4105   33.1242   48.4735 C   0  0  0  0  0  0  0  0  0  0  0  0
   58.5286   32.5420   47.5508 C   0  0  0  0  0  0  0  0  0  0  0  0
   59.5673   32.4604   50.0975 S   0  0  0  0  0  0  0  0  0  0  0  0
   58.2520   31.8819   50.5434 O   0  0  0  0  0  0  0  0  0  0  0  0
   59.9639   33.5657   51.0349 O   0  0  0  0  0  0  0  0  0  0  0  0
   60.7845   31.2071   50.1068 N   0  0  0  0  0  0  0  0  0  0  0  0
   60.7908   30.4563   48.8303 C   0  0  0  0  0  0  0  0  0  0  0  0
   60.1861   29.0497   48.9792 C   0  0  0  0  0  0  0  0  0  0  0  0
   60.8553   28.2553   49.9472 O   0  0  0  0  0  0  0  0  0  0  0  0
   61.3105   28.9914   51.0782 C   0  0  0  0  0  0  0  0  0  0  0  0
   60.6004   30.3393   51.2856 C   0  0  0  0  0  0  0  0  0  0  0  0
   57.4880   32.4503   45.3429 N   0  0  0  0  0  0  0  0  0  0  0  0
   57.8455   31.7454   43.1633 O   0  0  0  0  0  0  0  0  0  0  0  0
   57.8237   31.4375   44.3840 C   0  0  0  0  0  0  0  0  0  0  0  0
   58.1793   30.0569   44.7887 C   0  0  0  0  0  0  0  0  0  0  0  0
   59.5305   29.7267   44.9955 C   0  0  0  0  0  0  0  0  0  0  0  0
   59.8932   28.4271   45.3604 C   0  0  0  0  0  0  0  0  0  0  0  0
   58.9116   27.4476   45.5324 C   0  0  0  0  0  0  0  0  0  0  0  0
   57.5662   27.7697   45.3497 C   0  0  0  0  0  0  0  0  0  0  0  0
   57.1917   29.0691   44.9904 C   0  0  0  0  0  0  0  0  0  0  0  0
   55.8413   29.3724   44.8588 O   0  0  0  0  0  0  0  0  0  0  0  0
 17 18  2  0
 18 16  1  0
 16  1  1  0
  1  2  2  0
  2  3  1  0
  3  4  2  0
  4  5  1  0
  5  7  1  0
  7  8  2  0
  7  9  2  0
  7 10  1  0
 10 11  1  0
 11 12  1  0
 12 13  1  0
 13 14  1  0
 14 15  1  0
  5  6  2  0
 18 19  1  0
 19 20  2  0
 20 21  1  0
 21 22  2  0
 22 23  1  0
 23 24  2  0
 24 25  1  0
  6  1  1  0
 24 19  1  0
 15 10  1  0
M  CHG 1  16  -1
M  CHG 1  25  -1
M  END
> <UniqueID>
69

> <SMILES>
O=C([N-]c1cccc(S(=O)(=O)N2CCOCC2)c1)c1ccccc1[O-]

> <Energy>
63.346087024226264

> <Genealogy>
O=C([N-]c1cccc(S(=O)(=O)N2CCOCC2)c1)c1ccccc1[O-] (protonated)
O=C([N-]c1cccc(S(=O)(=O)N2CCOCC2)c1)c1ccccc1[O-] (3D coordinates assigned)
O=C([N-]c1cccc(S(=O)(=O)N2CCOCC2)c1)c1ccccc1[O-] (nonaromatic ring conformer: 63.346087024226264 kcal/mol)

> <smiles>
O=C(Nc1cccc(S(=O)(=O)N2CCOCC2)c1)c1ccccc1O

> <score_type>
oracle

> <origin>
adg

> <m_score__min__energy>
-14.07

> <m_primary>
energy

> <minimizedAffinity>
-7.84281

> <minimizedRMSD>
1.41987

> <CNNscore>
0.6990982890

> <CNNaffinity>
6.2245812416

> <CNN_VS>
4.3515939713

> <CNNaffinity_variance>
0.0401757360

$$$$
22:0


 25 27  0  0  0  0  0  0  0  0999 V2000
   57.4728   27.4166   45.8636 N   0  0  0  0  0  0  0  0  0  0  0  0
   57.3809   28.6190   45.3759 C   0  0  0  0  0  0  0  0  0  0  0  0
   56.1992   29.1353   44.9749 N   0  0  0  0  0  0  0  0  0  0  0  0
   56.3329   30.4007   44.4948 C   0  0  0  0  0  0  0  0  0  0  0  0
   57.6308   30.8992   44.5231 C   0  0  0  0  0  0  0  0  0  0  0  0
   58.6491   29.7122   45.1457 S   0  0  0  0  0  0  0  0  0  0  0  0
   57.5685   26.1743   45.1423 C   0  0  0  0  0  0  0  0  0  0  0  0
   58.1427   26.1304   44.0204 O   0  0  0  0  0  0  0  0  0  0  0  0
   54.7843   25.9552   45.9161 O   0  0  0  0  0  0  0  0  0  0  0  0
   55.6320   24.8639   46.0963 C   0  0  0  0  0  0  0  0  0  0  0  0
   55.1268   23.7181   46.6255 N   0  0  0  0  0  0  0  0  0  0  0  0
   55.9051   22.6232   46.8067 C   0  0  0  0  0  0  0  0  0  0  0  0
   55.4114   21.5750   47.2978 O   0  0  0  0  0  0  0  0  0  0  0  0
   57.2143   22.6565   46.4580 N   0  0  0  0  0  0  0  0  0  0  0  0
   57.7745   23.7739   45.9272 C   0  0  0  0  0  0  0  0  0  0  0  0
   59.0002   23.7582   45.6378 O   0  0  0  0  0  0  0  0  0  0  0  0
   56.9908   24.9316   45.7241 C   0  0  0  0  0  0  0  0  0  0  0  0
   53.8838   25.8956   46.1681 H   0  0  0  0  0  0  0  0  0  0  0  0
   58.0726   32.2247   43.9894 C   0  0  0  0  0  0  0  0  0  0  0  0
   58.5317   33.1074   45.1167 C   0  0  0  0  0  0  0  0  0  0  0  0
   59.1432   34.3437   44.8468 C   0  0  0  0  0  0  0  0  0  0  0  0
   59.6023   35.1458   45.8948 C   0  0  0  0  0  0  0  0  0  0  0  0
   59.4624   34.7168   47.2182 C   0  0  0  0  0  0  0  0  0  0  0  0
   58.8679   33.4843   47.4945 C   0  0  0  0  0  0  0  0  0  0  0  0
   58.4070   32.6774   46.4492 C   0  0  0  0  0  0  0  0  0  0  0  0
  9 10  1  0
 10 11  1  0
 11 12  1  0
 12 13  2  0
 12 14  1  0
 14 15  1  0
 15 16  2  0
 15 17  1  0
 17  7  1  0
  7  8  2  0
  7  1  1  0
  1  2  2  0
  2  3  1  0
  3  4  1  0
  4  5  2  0
  5 19  1  0
 19 20  1  0
 20 21  2  0
 21 22  1  0
 22 23  2  0
 23 24  1  0
 24 25  2  0
  5  6  1  0
 17 10  2  0
  6  2  1  0
 25 20  1  0
  9 18  1  0
M  CHG 1   3  -1
M  CHG 1  11  -1
M  CHG 1  14  -1
M  END
> <UniqueID>
21

> <SMILES>
O=C(/N=c1/[n-]cc(Cc2ccccc2)s1)c1c(O)[n-]c(=O)[n-]c1=O

> <Energy>
72.70577808157104

> <Genealogy>
O=C(N=c1[n-]cc(Cc2ccccc2)s1)c1c(O)[n-]c(=O)[n-]c1=O (protonated)
O=C(/N=c1/[n-]cc(Cc2ccccc2)s1)c1c(O)[n-]c(=O)[n-]c1=O (cis-trans isomerization)
O=C(/N=c1/[n-]cc(Cc2ccccc2)s1)c1c(O)[n-]c(=O)[n-]c1=O (3D coordinates assigned)
O=C(/N=c1/[n-]cc(Cc2ccccc2)s1)c1c(O)[n-]c(=O)[n-]c1=O (optimized conformer: 72.70577808157104 kcal/mol)

> <smiles>
O=C(N=c1[nH]cc(Cc2ccccc2)s1)c1c(O)[nH]c(=O)[nH]c1=O

> <score_type>
oracle

> <origin>
adg

> <m_score__min__energy>
-14.460000000000001

> <m_primary>
energy

> <minimizedAffinity>
-8.58611

> <minimizedRMSD>
1.49873

> <CNNscore>
0.5475797653

> <CNNaffinity>
6.2366127968

> <CNN_VS>
3.4150428772

> <CNNaffinity_variance>
0.0135828527

$$$$
23:0


 28 30  0  0  0  0  0  0  0  0999 V2000
   57.4381   29.1273   44.5143 C   0  0  0  0  0  0  0  0  0  0  0  0
   56.9455   29.7780   43.3733 C   0  0  0  0  0  0  0  0  0  0  0  0
   57.2076   31.1334   43.1659 C   0  0  0  0  0  0  0  0  0  0  0  0
   57.9476   31.8578   44.1018 C   0  0  0  0  0  0  0  0  0  0  0  0
   58.4171   31.2329   45.2706 C   0  0  0  0  0  0  0  0  0  0  0  0
   58.1605   29.8690   45.4673 C   0  0  0  0  0  0  0  0  0  0  0  0
   59.2920   27.0695   45.3497 O   0  0  0  0  0  0  0  0  0  0  0  0
   58.0683   26.7825   45.2520 C   0  0  0  0  0  0  0  0  0  0  0  0
   57.1368   27.7366   44.7167 N   0  0  0  0  0  0  0  0  0  0  0  0
   56.2373   27.4184   44.4739 H   0  0  0  0  0  0  0  0  0  0  0  0
   57.6010   25.4446   45.6491 C   0  0  0  0  0  0  0  0  0  0  0  0
   58.3471   24.3680   45.6721 O   0  0  0  0  0  0  0  0  0  0  0  0
   57.5720   23.3857   46.0771 C   0  0  0  0  0  0  0  0  0  0  0  0
   57.9770   22.2020   46.2107 O   0  0  0  0  0  0  0  0  0  0  0  0
   56.3028   23.7615   46.3357 N   0  0  0  0  0  0  0  0  0  0  0  0
   56.3367   25.0785   46.0587 C   0  0  0  0  0  0  0  0  0  0  0  0
   55.2382   25.9212   46.1766 O   0  0  0  0  0  0  0  0  0  0  0  0
   59.1379   31.9405   46.2909 N   0  0  0  0  0  0  0  0  0  0  0  0
   58.7050   33.4558   47.0239 S   0  0  0  0  0  0  0  0  0  0  0  0
   57.2335   33.5021   47.3225 O   0  0  0  0  0  0  0  0  0  0  0  0
   59.0206   34.5538   46.0499 O   0  0  0  0  0  0  0  0  0  0  0  0
   59.6614   33.7399   48.5086 C   0  0  0  0  0  0  0  0  0  0  0  0
   61.0679   33.2331   48.3582 C   0  0  0  0  0  0  0  0  0  0  0  0
   61.5508   32.2217   49.2061 C   0  0  0  0  0  0  0  0  0  0  0  0
   62.8426   31.7160   49.0329 C   0  0  0  0  0  0  0  0  0  0  0  0
   63.6586   32.2135   48.0117 C   0  0  0  0  0  0  0  0  0  0  0  0
   63.1859   33.2192   47.1660 C   0  0  0  0  0  0  0  0  0  0  0  0
   61.8951   33.7293   47.3371 C   0  0  0  0  0  0  0  0  0  0  0  0
  7  8  2  0
  8  9  1  0
  9  1  1  0
  1  2  2  0
  2  3  1  0
  3  4  2  0
  4  5  1  0
  5 18  1  0
 18 19  1  0
 19 20  2  0
 19 21  2  0
 19 22  1  0
 22 23  1  0
 23 24  2  0
 24 25  1  0
 25 26  2  0
 26 27  1  0
 27 28  2  0
  5  6  2  0
  8 11  1  0
 11 12  1  0
 12 13  1  0
 13 14  2  0
 13 15  1  0
 15 16  1  0
 16 17  1  0
  6  1  1  0
 16 11  2  0
 28 23  1  0
  9 10  1  0
M  CHG 1  15  -1
M  CHG 1  17  -1
M  CHG 1  18  -1
M  END
> <UniqueID>
22

> <SMILES>
O=C(Nc1cccc([N-]S(=O)(=O)Cc2ccccc2)c1)c1oc(=O)[n-]c1[O-]

> <Energy>
73.48012611512623

> <Genealogy>
O=C(Nc1cccc([N-]S(=O)(=O)Cc2ccccc2)c1)c1oc(=O)[n-]c1[O-] (protonated)
O=C(Nc1cccc([N-]S(=O)(=O)Cc2ccccc2)c1)c1oc(=O)[n-]c1[O-] (3D coordinates assigned)
O=C(Nc1cccc([N-]S(=O)(=O)Cc2ccccc2)c1)c1oc(=O)[n-]c1[O-] (optimized conformer: 73.48012611512623 kcal/mol)

> <smiles>
O=C(Nc1cccc(NS(=O)(=O)Cc2ccccc2)c1)c1oc(=O)[nH]c1O

> <score_type>
oracle

> <origin>
adg

> <m_score__min__energy>
-16.140000000000001

> <m_primary>
energy

> <minimizedAffinity>
-7.95051

> <minimizedRMSD>
1.11100

> <CNNscore>
0.4635831714

> <CNNaffinity>
6.1932978630

> <CNN_VS>
2.8711087704

> <CNNaffinity_variance>
0.0616001450

$$$$
42:0


 27 29  0  0  0  0  0  0  0  0999 V2000
   58.1249   33.1058   44.1489 O   0  0  0  0  0  0  0  0  0  0  0  0
   57.7790   32.4849   45.1900 C   0  0  0  0  0  0  0  0  0  0  0  0
   57.6932   33.2076   46.4956 C   0  0  0  0  0  0  0  0  0  0  0  0
   59.0139   33.1141   47.2086 C   0  0  0  0  0  0  0  0  0  0  0  0
   59.2626   32.0295   47.9951 N   0  0  0  0  0  0  0  0  0  0  0  0
   60.4163   31.9153   48.7031 C   0  0  0  0  0  0  0  0  0  0  0  0
   60.6548   30.7927   49.5017 C   0  0  0  0  0  0  0  0  0  0  0  0
   61.8499   30.6918   50.2215 C   0  0  0  0  0  0  0  0  0  0  0  0
   62.8095   31.7079   50.1396 C   0  0  0  0  0  0  0  0  0  0  0  0
   62.5739   32.8353   49.3428 C   0  0  0  0  0  0  0  0  0  0  0  0
   61.3768   32.9438   48.6266 C   0  0  0  0  0  0  0  0  0  0  0  0
   61.1240   34.0366   47.8603 N   0  0  0  0  0  0  0  0  0  0  0  0
   59.9662   34.1531   47.1576 C   0  0  0  0  0  0  0  0  0  0  0  0
   59.7572   35.1902   46.4745 O   0  0  0  0  0  0  0  0  0  0  0  0
   57.5296   31.0782   45.1457 N   0  0  0  0  0  0  0  0  0  0  0  0
   58.5958   30.0959   45.0262 C   0  0  0  0  0  0  0  0  0  0  0  0
   58.0307   28.7897   44.4644 C   0  0  0  0  0  0  0  0  0  0  0  0
   57.1960   28.1193   45.4582 N   0  0  0  0  0  0  0  0  0  0  0  0
   57.6545   27.0787   46.3338 C   0  0  0  0  0  0  0  0  0  0  0  0
   58.1830   27.3946   47.4330 O   0  0  0  0  0  0  0  0  0  0  0  0
   57.4993   25.6508   45.9949 C   0  0  0  0  0  0  0  0  0  0  0  0
   58.6402   24.8713   45.7425 C   0  0  0  0  0  0  0  0  0  0  0  0
   58.5115   23.5145   45.4335 C   0  0  0  0  0  0  0  0  0  0  0  0
   57.2449   22.9321   45.3556 C   0  0  0  0  0  0  0  0  0  0  0  0
   56.1038   23.7019   45.5939 C   0  0  0  0  0  0  0  0  0  0  0  0
   56.2242   25.0608   45.9062 C   0  0  0  0  0  0  0  0  0  0  0  0
   55.0761   25.8205   46.1095 O   0  0  0  0  0  0  0  0  0  0  0  0
  1  2  2  0
  2  3  1  0
  3  4  1  0
  4  5  2  0
  5  6  1  0
  6  7  2  0
  7  8  1  0
  8  9  2  0
  9 10  1  0
 10 11  2  0
 11 12  1  0
 12 13  1  0
 13 14  2  0
  2 15  1  0
 15 16  1  0
 16 17  1  0
 17 18  1  0
 18 19  1  0
 19 20  2  0
 19 21  1  0
 21 22  2  0
 22 23  1  0
 23 24  2  0
 24 25  1  0
 25 26  2  0
 26 27  1  0
 13  4  1  0
 26 21  1  0
 11  6  1  0
M  CHG 1  12  -1
M  CHG 1  15  -1
M  CHG 1  18  -1
M  CHG 1  27  -1
M  END
> <UniqueID>
41

> <SMILES>
O=C(Cc1nc2ccccc2[n-]c1=O)[N-]CC[N-]C(=O)c1ccccc1[O-]

> <Energy>
44.674136739498465

> <Genealogy>
O=C(Cc1nc2ccccc2[n-]c1=O)[N-]CC[N-]C(=O)c1ccccc1[O-] (protonated)
O=C(Cc1nc2ccccc2[n-]c1=O)[N-]CC[N-]C(=O)c1ccccc1[O-] (3D coordinates assigned)
O=C(Cc1nc2ccccc2[n-]c1=O)[N-]CC[N-]C(=O)c1ccccc1[O-] (optimized conformer: 44.674136739498465 kcal/mol)

> <smiles>
O=C(Cc1nc2ccccc2[nH]c1=O)NCCNC(=O)c1ccccc1O

> <score_type>
oracle

> <origin>
adg

> <m_score__min__energy>
-15.93

> <m_primary>
energy

> <minimizedAffinity>
-7.37473

> <minimizedRMSD>
1.33704

> <CNNscore>
0.5052309036

> <CNNaffinity>
6.8694729805

> <CNN_VS>
3.4706699848

> <CNNaffinity_variance>
0.3310992420

$$$$
44:0


 26 28  0  0  0  0  0  0  0  0999 V2000
   59.4721   29.5251   46.2121 C   0  0  0  0  0  0  0  0  0  0  0  0
   59.6681   29.1124   44.8860 C   0  0  0  0  0  0  0  0  0  0  0  0
   59.0988   27.9229   44.4267 C   0  0  0  0  0  0  0  0  0  0  0  0
   58.3050   27.1372   45.2790 C   0  0  0  0  0  0  0  0  0  0  0  0
   58.1127   27.5522   46.6090 C   0  0  0  0  0  0  0  0  0  0  0  0
   58.6834   28.7425   47.0674 C   0  0  0  0  0  0  0  0  0  0  0  0
   59.5160   32.0546   46.3744 C   0  0  0  0  0  0  0  0  0  0  0  0
   60.1622   33.2163   46.8248 C   0  0  0  0  0  0  0  0  0  0  0  0
   61.3225   33.1321   47.5981 C   0  0  0  0  0  0  0  0  0  0  0  0
   61.8504   31.8852   47.9311 C   0  0  0  0  0  0  0  0  0  0  0  0
   61.2285   30.7196   47.4819 C   0  0  0  0  0  0  0  0  0  0  0  0
   60.0687   30.7883   46.6916 C   0  0  0  0  0  0  0  0  0  0  0  0
   57.0421   33.4902   46.1154 N   0  0  0  0  0  0  0  0  0  0  0  0
   58.0124   32.2225   45.4514 S   0  0  0  0  0  0  0  0  0  0  0  0
   57.2216   30.9457   45.5073 O   0  0  0  0  0  0  0  0  0  0  0  0
   58.3342   32.5526   44.0204 O   0  0  0  0  0  0  0  0  0  0  0  0
   56.1806   33.5769   45.5762 H   0  0  0  0  0  0  0  0  0  0  0  0
   57.7264   25.8658   44.7891 C   0  0  0  0  0  0  0  0  0  0  0  0
   57.7397   25.6253   43.5521 O   0  0  0  0  0  0  0  0  0  0  0  0
   57.1380   24.8613   45.6992 C   0  0  0  0  0  0  0  0  0  0  0  0
   57.7533   23.7031   46.1278 C   0  0  0  0  0  0  0  0  0  0  0  0
   56.8226   23.0612   46.9173 C   0  0  0  0  0  0  0  0  0  0  0  0
   57.0387   21.8508   47.5615 O   0  0  0  0  0  0  0  0  0  0  0  0
   55.6607   23.7395   46.9937 N   0  0  0  0  0  0  0  0  0  0  0  0
   55.8619   24.8362   46.2384 C   0  0  0  0  0  0  0  0  0  0  0  0
   54.8742   25.7873   46.0132 O   0  0  0  0  0  0  0  0  0  0  0  0
 13 14  1  0
 14 15  2  0
 14 16  2  0
 14  7  1  0
  7  8  2  0
  8  9  1  0
  9 10  2  0
 10 11  1  0
 11 12  2  0
 12  1  1  0
  1  2  2  0
  2  3  1  0
  3  4  2  0
  4 18  1  0
 18 19  2  0
 18 20  1  0
 20 21  1  0
 21 22  2  0
 22 23  1  0
 22 24  1  0
 24 25  1  0
 25 26  1  0
  4  5  1  0
  5  6  2  0
 12  7  1  0
  6  1  1  0
 25 20  2  0
 13 17  1  0
M  CHG 1  13  -1
M  CHG 1  23  -1
M  CHG 1  24  -1
M  CHG 1  26  -1
M  END
> <UniqueID>
42

> <SMILES>
[NH-]S(=O)(=O)c1ccccc1-c1ccc(C(=O)c2cc([O-])[n-]c2[O-])cc1

> <Energy>
78.03816728085536

> <Genealogy>
[NH-]S(=O)(=O)c1ccccc1-c1ccc(C(=O)c2cc([O-])[n-]c2[O-])cc1 (protonated)
[NH-]S(=O)(=O)c1ccccc1-c1ccc(C(=O)c2cc([O-])[n-]c2[O-])cc1 (3D coordinates assigned)
[NH-]S(=O)(=O)c1ccccc1-c1ccc(C(=O)c2cc([O-])[n-]c2[O-])cc1 (optimized conformer: 78.03816728085536 kcal/mol)

> <smiles>
NS(=O)(=O)c1ccccc1-c1ccc(C(=O)c2cc(O)[nH]c2O)cc1

> <score_type>
oracle

> <origin>
adg

> <m_score__min__energy>
-17.780000000000001

> <m_primary>
energy

> <minimizedAffinity>
-8.95122

> <minimizedRMSD>
1.28936

> <CNNscore>
0.3131818175

> <CNNaffinity>
5.9969372749

> <CNN_VS>
1.8781317472

> <CNNaffinity_variance>
0.0345881395

$$$$
64:0


 30 33  0  0  0  0  0  0  0  0999 V2000
   59.7576   29.5353   45.2359 C   0  0  0  0  0  0  0  0  0  0  0  0
   59.4605   29.5298   46.5445 C   0  0  0  0  0  0  0  0  0  0  0  0
   59.4032   28.4147   47.3963 C   0  0  0  0  0  0  0  0  0  0  0  0
   59.4073   27.0956   47.1250 C   0  0  0  0  0  0  0  0  0  0  0  0
   59.2870   28.9149   48.6825 C   0  0  0  0  0  0  0  0  0  0  0  0
   59.2113   30.2880   48.5724 C   0  0  0  0  0  0  0  0  0  0  0  0
   59.0351   31.2239   49.7294 C   0  0  0  0  0  0  0  0  0  0  0  0
   59.2824   30.6607   47.2747 N   0  0  0  0  0  0  0  0  0  0  0  0
   58.2144   26.2384   47.0469 C   0  0  0  0  0  0  0  0  0  0  0  0
   58.1021   25.0259   47.6224 N   0  0  0  0  0  0  0  0  0  0  0  0
   56.9159   24.5705   47.1656 C   0  0  0  0  0  0  0  0  0  0  0  0
   56.4440   23.4532   47.4975 O   0  0  0  0  0  0  0  0  0  0  0  0
   56.2802   25.4046   46.3139 N   0  0  0  0  0  0  0  0  0  0  0  0
   57.1231   26.4470   46.2399 C   0  0  0  0  0  0  0  0  0  0  0  0
   56.9026   27.5644   45.4454 O   0  0  0  0  0  0  0  0  0  0  0  0
   59.2683   32.0170   46.7896 C   0  0  0  0  0  0  0  0  0  0  0  0
   58.1116   32.5067   46.1643 C   0  0  0  0  0  0  0  0  0  0  0  0
   58.0932   33.7897   45.6131 C   0  0  0  0  0  0  0  0  0  0  0  0
   59.2353   34.5898   45.6686 C   0  0  0  0  0  0  0  0  0  0  0  0
   60.3966   34.1114   46.2819 C   0  0  0  0  0  0  0  0  0  0  0  0
   60.4235   32.8321   46.8600 C   0  0  0  0  0  0  0  0  0  0  0  0
   61.6671   32.3622   47.5090 C   0  0  0  0  0  0  0  0  0  0  0  0
   62.1144   31.2176   47.2245 O   0  0  0  0  0  0  0  0  0  0  0  0
   62.3783   33.1898   48.4478 N   0  0  0  0  0  0  0  0  0  0  0  0
   61.6494   33.9310   49.4799 C   0  0  0  0  0  0  0  0  0  0  0  0
   61.7825   33.1873   50.8074 C   0  0  0  0  0  0  0  0  0  0  0  0
   63.1843   32.8706   51.0809 N   0  0  0  0  0  0  0  0  0  0  0  0
   64.1365   32.6370   50.0380 C   0  0  0  0  0  0  0  0  0  0  0  0
   65.2724   32.1773   50.3249 O   0  0  0  0  0  0  0  0  0  0  0  0
   63.8268   33.0342   48.6230 C   0  0  0  0  0  0  0  0  0  0  0  0
  1  2  2  0
  2  3  1  0
  3  4  2  0
  4  9  1  0
  9 10  1  0
 10 11  1  0
 11 12  2  0
 11 13  1  0
 13 14  1  0
 14 15  1  0
  3  5  1  0
  5  6  2  0
  6  7  1  0
  6  8  1  0
  8 16  1  0
 16 17  2  0
 17 18  1  0
 18 19  2  0
 19 20  1  0
 20 21  2  0
 21 22  1  0
 22 23  2  0
 22 24  1  0
 24 25  1  0
 25 26  1  0
 26 27  1  0
 27 28  1  0
 28 29  2  0
 28 30  1  0
  8  2  1  0
 21 16  1  0
 30 24  1  0
 14  9  2  0
M  CHG 1  10  -1
M  CHG 1  13  -1
M  CHG 1  15  -1
M  CHG 1  27  -1
M  END
> <UniqueID>
61

> <SMILES>
C=c1c(=Cc2[n-]c(=O)[n-]c2[O-])cc(C)n1-c1ccccc1C(=O)N1CC[N-]C(=O)C1

> <Energy>
129.4572889893554

> <Genealogy>
C=c1c(=Cc2[n-]c(=O)[n-]c2[O-])cc(C)n1-c1ccccc1C(=O)N1CC[N-]C(=O)C1 (protonated)
C=c1c(=Cc2[n-]c(=O)[n-]c2[O-])cc(C)n1-c1ccccc1C(=O)N1CC[N-]C(=O)C1 (3D coordinates assigned)
C=c1c(=Cc2[n-]c(=O)[n-]c2[O-])cc(C)n1-c1ccccc1C(=O)N1CC[N-]C(=O)C1 (nonaromatic ring conformer: 129.4572889893554 kcal/mol)

> <smiles>
C=c1c(=Cc2[nH]c(=O)[nH]c2O)cc(C)n1-c1ccccc1C(=O)N1CCNC(=O)C1

> <score_type>
oracle

> <origin>
adg

> <m_score__min__energy>
-16.859999999999999

> <m_primary>
energy

> <minimizedAffinity>
-9.20339

> <minimizedRMSD>
1.11836

> <CNNscore>
0.6356094480

> <CNNaffinity>
6.8550968170

> <CNN_VS>
4.3571643829

> <CNNaffinity_variance>
0.0234089643

$$$$
68:0


 30 33  0  0  0  0  0  0  0  0999 V2000
   57.4138   29.2824   44.9698 N   0  0  0  0  0  0  0  0  0  0  0  0
   58.0267   30.4281   45.5719 C   0  0  0  0  0  0  0  0  0  0  0  0
   58.7730   30.3192   46.7569 C   0  0  0  0  0  0  0  0  0  0  0  0
   59.3676   31.4509   47.3228 C   0  0  0  0  0  0  0  0  0  0  0  0
   59.2328   32.7030   46.7037 C   0  0  0  0  0  0  0  0  0  0  0  0
   58.5254   32.8042   45.4953 C   0  0  0  0  0  0  0  0  0  0  0  0
   57.9350   31.6710   44.9281 C   0  0  0  0  0  0  0  0  0  0  0  0
   59.9408   34.1425   47.4448 S   0  0  0  0  0  0  0  0  0  0  0  0
   59.8028   35.3071   46.4999 O   0  0  0  0  0  0  0  0  0  0  0  0
   59.1880   34.4741   48.7069 O   0  0  0  0  0  0  0  0  0  0  0  0
   61.6301   33.8972   47.8314 N   0  0  0  0  0  0  0  0  0  0  0  0
   61.8579   33.8579   49.2957 C   0  0  0  0  0  0  0  0  0  0  0  0
   62.1113   32.4233   49.8034 C   0  0  0  0  0  0  0  0  0  0  0  0
   63.2294   31.7997   49.1860 O   0  0  0  0  0  0  0  0  0  0  0  0
   63.4217   32.1796   47.8260 C   0  0  0  0  0  0  0  0  0  0  0  0
   62.1499   32.7023   47.1322 C   0  0  0  0  0  0  0  0  0  0  0  0
   58.3271   27.3448   44.0683 O   0  0  0  0  0  0  0  0  0  0  0  0
   57.8791   27.9296   45.0903 C   0  0  0  0  0  0  0  0  0  0  0  0
   57.7027   27.1442   46.3602 C   0  0  0  0  0  0  0  0  0  0  0  0
   57.4331   25.7413   46.0404 N   0  0  0  0  0  0  0  0  0  0  0  0
   56.2202   25.1515   45.9344 C   0  0  0  0  0  0  0  0  0  0  0  0
   55.0081   25.8235   46.0663 O   0  0  0  0  0  0  0  0  0  0  0  0
   56.3630   23.8000   45.6852 C   0  0  0  0  0  0  0  0  0  0  0  0
   57.7144   23.5483   45.6499 C   0  0  0  0  0  0  0  0  0  0  0  0
   58.3479   24.7570   45.8773 C   0  0  0  0  0  0  0  0  0  0  0  0
   59.7260   24.9467   45.9390 O   0  0  0  0  0  0  0  0  0  0  0  0
   58.3116   22.1961   45.4205 C   0  0  0  0  0  0  0  0  0  0  0  0
   57.2415   21.1409   45.1953 C   0  0  0  0  0  0  0  0  0  0  0  0
   55.9096   21.3896   45.2279 C   0  0  0  0  0  0  0  0  0  0  0  0
   55.3066   22.7594   45.4873 C   0  0  0  0  0  0  0  0  0  0  0  0
 17 18  2  0
 18 19  1  0
 19 20  1  0
 20 21  1  0
 21 22  1  0
 21 23  2  0
 23 24  1  0
 24 25  2  0
 25 26  1  0
 24 27  1  0
 27 28  1  0
 28 29  2  0
 29 30  1  0
 18  1  1  0
  1  2  1  0
  2  3  2  0
  3  4  1  0
  4  5  2  0
  5  8  1  0
  8  9  2  0
  8 10  2  0
  8 11  1  0
 11 12  1  0
 12 13  1  0
 13 14  1  0
 14 15  1  0
 15 16  1  0
  5  6  1  0
  6  7  2  0
 25 20  1  0
  7  2  1  0
 30 23  1  0
 16 11  1  0
M  CHG 1   1  -1
M  CHG 1  22  -1
M  CHG 1  26  -1
M  END
> <UniqueID>
64

> <SMILES>
O=C(Cn1c([O-])c2c(c1[O-])CC=CC2)[N-]c1ccc(S(=O)(=O)N2CCOCC2)cc1

> <Energy>
100.26101604971727

> <Genealogy>
O=C(Cn1c([O-])c2c(c1[O-])CC=CC2)[N-]c1ccc(S(=O)(=O)N2CCOCC2)cc1 (protonated)
O=C(Cn1c([O-])c2c(c1[O-])CC=CC2)[N-]c1ccc(S(=O)(=O)N2CCOCC2)cc1 (3D coordinates assigned)
O=C(Cn1c([O-])c2c(c1[O-])CC=CC2)[N-]c1ccc(S(=O)(=O)N2CCOCC2)cc1 (nonaromatic ring conformer: 100.26101604971727 kcal/mol)

> <smiles>
O=C(Cn1c(O)c2c(c1O)CC=CC2)Nc1ccc(S(=O)(=O)N2CCOCC2)cc1

> <score_type>
oracle

> <origin>
adg

> <m_score__min__energy>
-15.27

> <m_primary>
energy

> <minimizedAffinity>
-7.93996

> <minimizedRMSD>
0.87397

> <CNNscore>
0.2171007395

> <CNNaffinity>
6.4931297302

> <CNN_VS>
1.4096633196

> <CNNaffinity_variance>
0.0797973648

$$$$
75:0


 26 28  0  0  0  0  0  0  0  0999 V2000
   58.6100   29.2571   46.0346 C   0  0  0  0  0  0  0  0  0  0  0  0
   57.6476   29.8686   45.2227 C   0  0  0  0  0  0  0  0  0  0  0  0
   56.8240   29.1077   44.3997 O   0  0  0  0  0  0  0  0  0  0  0  0
   57.5015   31.2156   45.2411 N   0  0  0  0  0  0  0  0  0  0  0  0
   58.2742   32.0034   46.0271 C   0  0  0  0  0  0  0  0  0  0  0  0
   58.0799   33.2500   46.0224 O   0  0  0  0  0  0  0  0  0  0  0  0
   59.2462   31.4483   46.8184 N   0  0  0  0  0  0  0  0  0  0  0  0
   59.4341   30.0896   46.8210 C   0  0  0  0  0  0  0  0  0  0  0  0
   60.3742   29.5844   47.4978 O   0  0  0  0  0  0  0  0  0  0  0  0
   60.0769   32.2943   47.6420 C   0  0  0  0  0  0  0  0  0  0  0  0
   59.6304   32.7123   48.9073 C   0  0  0  0  0  0  0  0  0  0  0  0
   60.4364   33.5328   49.7025 C   0  0  0  0  0  0  0  0  0  0  0  0
   61.6910   33.9415   49.2415 C   0  0  0  0  0  0  0  0  0  0  0  0
   62.1413   33.5302   47.9836 C   0  0  0  0  0  0  0  0  0  0  0  0
   61.3388   32.7094   47.1858 C   0  0  0  0  0  0  0  0  0  0  0  0
   57.9137   26.9511   46.6235 C   0  0  0  0  0  0  0  0  0  0  0  0
   58.7612   27.7810   45.9983 C   0  0  0  0  0  0  0  0  0  0  0  0
   54.5279   23.6840   45.1935 O   0  0  0  0  0  0  0  0  0  0  0  0
   55.8691   24.0001   45.4017 C   0  0  0  0  0  0  0  0  0  0  0  0
   56.8682   23.0616   45.1219 C   0  0  0  0  0  0  0  0  0  0  0  0
   58.2104   23.3852   45.3260 C   0  0  0  0  0  0  0  0  0  0  0  0
   58.5631   24.6451   45.8155 C   0  0  0  0  0  0  0  0  0  0  0  0
   57.5686   25.5986   46.1176 C   0  0  0  0  0  0  0  0  0  0  0  0
   56.2163   25.2665   45.8946 C   0  0  0  0  0  0  0  0  0  0  0  0
   55.2091   26.1869   46.1699 O   0  0  0  0  0  0  0  0  0  0  0  0
   54.2914   22.8392   44.8644 H   0  0  0  0  0  0  0  0  0  0  0  0
 18 19  1  0
 19 20  2  0
 20 21  1  0
 21 22  2  0
 22 23  1  0
 23 16  1  0
 16 17  2  0
 17  1  1  0
  1  2  2  0
  2  3  1  0
  2  4  1  0
  4  5  1  0
  5  6  2  0
  5  7  1  0
  7 10  1  0
 10 11  2  0
 11 12  1  0
 12 13  2  0
 13 14  1  0
 14 15  2  0
  7  8  1  0
  8  9  2  0
 23 24  2  0
 24 25  1  0
 24 19  1  0
  8  1  1  0
 15 10  1  0
 18 26  1  0
M  CHG 1   3  -1
M  CHG 1   4  -1
M  CHG 1  25  -1
M  END
> <UniqueID>
70

> <SMILES>
O=c1[n-]c([O-])c(/C=C/c2cccc(O)c2[O-])c(=O)n1-c1ccccc1

> <Energy>
59.074135414235755

> <Genealogy>
O=c1[n-]c([O-])c(C=Cc2cccc(O)c2[O-])c(=O)n1-c1ccccc1 (protonated)
O=c1[n-]c([O-])c(/C=C/c2cccc(O)c2[O-])c(=O)n1-c1ccccc1 (cis-trans isomerization)
O=c1[n-]c([O-])c(/C=C/c2cccc(O)c2[O-])c(=O)n1-c1ccccc1 (3D coordinates assigned)
O=c1[n-]c([O-])c(/C=C/c2cccc(O)c2[O-])c(=O)n1-c1ccccc1 (optimized conformer: 59.074135414235755 kcal/mol)

> <smiles>
O=c1[nH]c(O)c(C=Cc2cccc(O)c2O)c(=O)n1-c1ccccc1

> <score_type>
oracle

> <origin>
adg

> <m_score__min__energy>
-15.73

> <m_primary>
energy

> <minimizedAffinity>
-8.76085

> <minimizedRMSD>
1.70257

> <CNNscore>
0.8101161122

> <CNNaffinity>
6.8616995811

> <CNN_VS>
5.5587735176

> <CNNaffinity_variance>
0.6535939574

$$$$
2:0


 32 35  0  0  0  0  0  0  0  0999 V2000
   60.2910   30.1643   47.3325 C   0  0  0  0  0  0  0  0  0  0  0  0
   59.7180   31.2586   46.8042 C   0  0  0  0  0  0  0  0  0  0  0  0
   59.0778   31.3707   45.5588 C   0  0  0  0  0  0  0  0  0  0  0  0
   58.7257   30.4352   44.6554 C   0  0  0  0  0  0  0  0  0  0  0  0
   58.8190   32.7199   45.3752 C   0  0  0  0  0  0  0  0  0  0  0  0
   59.2480   33.3674   46.5146 C   0  0  0  0  0  0  0  0  0  0  0  0
   59.1298   34.8433   46.7524 C   0  0  0  0  0  0  0  0  0  0  0  0
   59.7970   32.4868   47.3790 N   0  0  0  0  0  0  0  0  0  0  0  0
   58.3404   29.0439   44.9656 C   0  0  0  0  0  0  0  0  0  0  0  0
   56.9965   28.7156   45.1879 C   0  0  0  0  0  0  0  0  0  0  0  0
   56.0017   29.6822   45.0716 O   0  0  0  0  0  0  0  0  0  0  0  0
   56.6533   27.4431   45.5132 N   0  0  0  0  0  0  0  0  0  0  0  0
   57.5974   26.4745   45.6409 C   0  0  0  0  0  0  0  0  0  0  0  0
   57.1556   24.9520   46.0292 S   0  0  0  0  0  0  0  0  0  0  0  0
   58.9098   26.7728   45.4572 N   0  0  0  0  0  0  0  0  0  0  0  0
   59.3020   28.0316   45.1328 C   0  0  0  0  0  0  0  0  0  0  0  0
   60.5299   28.2785   44.9882 O   0  0  0  0  0  0  0  0  0  0  0  0
   60.3575   32.8117   48.6633 C   0  0  0  0  0  0  0  0  0  0  0  0
   61.6945   33.2209   48.7677 C   0  0  0  0  0  0  0  0  0  0  0  0
   62.2325   33.5499   50.0138 C   0  0  0  0  0  0  0  0  0  0  0  0
   61.4339   33.4888   51.1599 C   0  0  0  0  0  0  0  0  0  0  0  0
   60.0883   33.1104   51.0617 C   0  0  0  0  0  0  0  0  0  0  0  0
   59.5603   32.7466   49.8144 C   0  0  0  0  0  0  0  0  0  0  0  0
   59.2530   33.0576   52.2749 C   0  0  0  0  0  0  0  0  0  0  0  0
   58.6098   34.0957   52.5942 O   0  0  0  0  0  0  0  0  0  0  0  0
   59.1499   31.8693   53.1050 N   0  0  0  0  0  0  0  0  0  0  0  0
   57.7637   31.6110   53.5606 C   0  0  0  0  0  0  0  0  0  0  0  0
   56.8982   30.8773   52.5045 C   0  0  0  0  0  0  0  0  0  0  0  0
   57.6436   30.3899   51.4053 O   0  0  0  0  0  0  0  0  0  0  0  0
   58.7812   29.7029   51.8672 C   0  0  0  0  0  0  0  0  0  0  0  0
   59.7931   30.6857   52.4807 C   0  0  0  0  0  0  0  0  0  0  0  0
   58.7545   32.6150   53.6119 H   0  0  0  0  0  0  0  0  0  0  0  0
  1  2  2  0
  2  3  1  0
  3  4  2  0
  4  9  1  0
  9 10  2  0
 10 11  1  0
 10 12  1  0
 12 13  1  0
 13 14  2  0
 13 15  1  0
 15 16  1  0
 16 17  2  0
  3  5  1  0
  5  6  2  0
  6  7  1  0
  6  8  1  0
  8 18  1  0
 18 19  2  0
 19 20  1  0
 20 21  2  0
 21 22  1  0
 22 24  1  0
 24 25  2  0
 24 26  1  0
 26 27  1  0
 27 28  1  0
 28 29  1  0
 29 30  1  0
 30 31  1  0
 22 23  2  0
  8  2  1  0
 23 18  1  0
 16  9  1  0
 31 26  1  0
 26 32  1  0
M  CHG 1  11  -1
M  CHG 1  12  -1
M  CHG 1  15  -1
M  CHG 1  26   1
M  END
> <UniqueID>
3

> <SMILES>
C=c1c(=Cc2c([O-])[n-]c(=S)[n-]c2=O)cc(C)n1-c1cccc(C(=O)[NH+]2CCOCC2)c1

> <Energy>
124.34030007079888

> <Genealogy>
C=c1c(=Cc2c([O-])[n-]c(=S)[n-]c2=O)cc(C)n1-c1cccc(C(=O)[NH+]2CCOCC2)c1 (protonated)
C=c1c(=Cc2c([O-])[n-]c(=S)[n-]c2=O)cc(C)n1-c1cccc(C(=O)[NH+]2CCOCC2)c1 (3D coordinates assigned)
C=c1c(=Cc2c([O-])[n-]c(=S)[n-]c2=O)cc(C)n1-c1cccc(C(=O)[NH+]2CCOCC2)c1 (nonaromatic ring conformer: 124.34030007079888 kcal/mol)

> <smiles>
C=c1c(=Cc2c(O)[nH]c(=S)[nH]c2=O)cc(C)n1-c1cccc(C(=O)N2CCOCC2)c1

> <score_type>
oracle

> <origin>
adg

> <m_score__min__energy>
-15.300000000000001

> <m_primary>
energy

> <minimizedAffinity>
-7.73132

> <minimizedRMSD>
1.22903

> <CNNscore>
0.4703263640

> <CNNaffinity>
7.0706195831

> <CNN_VS>
3.3254988194

> <CNNaffinity_variance>
0.1385411471

$$$$
12:0


 28 30  0  0  0  0  0  0  0  0999 V2000
   56.4119   22.6816   46.8177 C   0  0  0  0  0  0  0  0  0  0  0  0
   57.7074   22.9289   46.4972 N   0  0  0  0  0  0  0  0  0  0  0  0
   58.0905   24.1323   45.9959 C   0  0  0  0  0  0  0  0  0  0  0  0
   59.3085   24.3373   45.7484 O   0  0  0  0  0  0  0  0  0  0  0  0
   57.1318   25.1405   45.7867 C   0  0  0  0  0  0  0  0  0  0  0  0
   55.8039   24.8657   46.1473 C   0  0  0  0  0  0  0  0  0  0  0  0
   54.8153   25.8286   45.9871 O   0  0  0  0  0  0  0  0  0  0  0  0
   55.4733   23.6475   46.6460 N   0  0  0  0  0  0  0  0  0  0  0  0
   57.4892   26.4384   45.2777 N   0  0  0  0  0  0  0  0  0  0  0  0
   57.8090   27.5535   46.1272 C   0  0  0  0  0  0  0  0  0  0  0  0
   58.1131   27.3495   47.3355 O   0  0  0  0  0  0  0  0  0  0  0  0
   57.5159   26.5688   44.3022 H   0  0  0  0  0  0  0  0  0  0  0  0
   57.8250   28.9358   45.5931 C   0  0  0  0  0  0  0  0  0  0  0  0
   57.0746   29.2818   44.4522 C   0  0  0  0  0  0  0  0  0  0  0  0
   57.0921   30.5916   43.9635 C   0  0  0  0  0  0  0  0  0  0  0  0
   57.8506   31.5728   44.6062 C   0  0  0  0  0  0  0  0  0  0  0  0
   58.5917   31.2442   45.7447 C   0  0  0  0  0  0  0  0  0  0  0  0
   58.5784   29.9359   46.2389 C   0  0  0  0  0  0  0  0  0  0  0  0
   55.9444   21.0889   47.4916 S   0  0  0  0  0  0  0  0  0  0  0  0
   54.5632   20.8411   46.3181 C   0  0  0  0  0  0  0  0  0  0  0  0
   53.1721   21.4050   48.1802 O   0  0  0  0  0  0  0  0  0  0  0  0
   53.2303   21.1627   46.9444 C   0  0  0  0  0  0  0  0  0  0  0  0
   52.0101   21.1976   46.1864 N   0  0  0  0  0  0  0  0  0  0  0  0
   51.5353   22.1990   45.5054 C   0  0  0  0  0  0  0  0  0  0  0  0
   52.2488   23.2883   45.1442 N   0  0  0  0  0  0  0  0  0  0  0  0
   51.5002   24.1497   44.4052 C   0  0  0  0  0  0  0  0  0  0  0  0
   50.1910   23.7444   44.1704 C   0  0  0  0  0  0  0  0  0  0  0  0
   49.9650   22.2502   44.9128 S   0  0  0  0  0  0  0  0  0  0  0  0
 21 22  2  0
 22 20  1  0
 20 19  1  0
 19  1  1  0
  1  2  2  0
  2  3  1  0
  3  4  2  0
  3  5  1  0
  5  9  1  0
  9 10  1  0
 10 11  2  0
 10 13  1  0
 13 14  2  0
 14 15  1  0
 15 16  2  0
 16 17  1  0
 17 18  2  0
  5  6  2  0
  6  7  1  0
  6  8  1  0
 22 23  1  0
 23 24  2  0
 24 25  1  0
 25 26  1  0
 26 27  2  0
 27 28  1  0
  8  1  1  0
 28 24  1  0
 18 13  1  0
  9 12  1  0
M  CHG 1   7  -1
M  CHG 1   8  -1
M  CHG 1  25  -1
M  END
> <UniqueID>
11

> <SMILES>
O=C(CSc1nc(=O)c(NC(=O)c2ccccc2)c([O-])[n-]1)N=c1[n-]ccs1

> <Energy>
79.16232723522887

> <Genealogy>
O=C(CSc1nc(=O)c(NC(=O)c2ccccc2)c([O-])[n-]1)N=c1[n-]ccs1 (protonated)
O=C(CSc1nc(=O)c(NC(=O)c2ccccc2)c([O-])[n-]1)N=c1[n-]ccs1 (3D coordinates assigned)
O=C(CSc1nc(=O)c(NC(=O)c2ccccc2)c([O-])[n-]1)N=c1[n-]ccs1 (optimized conformer: 79.16232723522887 kcal/mol)

> <smiles>
O=C(CSc1nc(=O)c(NC(=O)c2ccccc2)c(O)[nH]1)N=c1[nH]ccs1

> <score_type>
oracle

> <origin>
adg

> <m_score__min__energy>
-14.33

> <m_primary>
energy

> <minimizedAffinity>
-6.96967

> <minimizedRMSD>
1.12741

> <CNNscore>
0.0960445926

> <CNNaffinity>
4.9881777763

> <CNN_VS>
0.4790875018

> <CNNaffinity_variance>
0.2908428013

$$$$
20:0


 28 30  0  0  0  0  0  0  0  0999 V2000
   56.9335   24.1251   46.1067 C   0  0  0  0  0  0  0  0  0  0  0  0
   57.0169   22.7279   46.1665 C   0  0  0  0  0  0  0  0  0  0  0  0
   55.8571   21.9442   46.1886 C   0  0  0  0  0  0  0  0  0  0  0  0
   54.6015   22.5622   46.1250 C   0  0  0  0  0  0  0  0  0  0  0  0
   54.5096   23.9533   46.0301 C   0  0  0  0  0  0  0  0  0  0  0  0
   55.6668   24.7374   46.0056 C   0  0  0  0  0  0  0  0  0  0  0  0
   55.5477   26.1137   45.8470 O   0  0  0  0  0  0  0  0  0  0  0  0
   55.9921   20.1919   46.2985 S   0  0  0  0  0  0  0  0  0  0  0  0
   57.4438   19.8169   46.1898 O   0  0  0  0  0  0  0  0  0  0  0  0
   55.2339   19.5511   45.1678 O   0  0  0  0  0  0  0  0  0  0  0  0
   55.3424   19.6622   47.8374 N   0  0  0  0  0  0  0  0  0  0  0  0
   56.0517   18.4699   48.3536 C   0  0  0  0  0  0  0  0  0  0  0  0
   57.0899   18.8184   49.4342 C   0  0  0  0  0  0  0  0  0  0  0  0
   57.6619   20.0788   49.1741 O   0  0  0  0  0  0  0  0  0  0  0  0
   56.7030   21.1046   49.3768 C   0  0  0  0  0  0  0  0  0  0  0  0
   55.3014   20.7609   48.8184 C   0  0  0  0  0  0  0  0  0  0  0  0
   58.1500   24.8839   46.0844 N   0  0  0  0  0  0  0  0  0  0  0  0
   58.2067   26.8870   47.2954 O   0  0  0  0  0  0  0  0  0  0  0  0
   58.2407   26.3098   46.1748 C   0  0  0  0  0  0  0  0  0  0  0  0
   58.4770   27.1107   44.9351 C   0  0  0  0  0  0  0  0  0  0  0  0
   58.4790   28.5731   45.2578 C   0  0  0  0  0  0  0  0  0  0  0  0
   59.8358   29.4402   45.7584 S   0  0  0  0  0  0  0  0  0  0  0  0
   58.9579   30.8609   45.9563 C   0  0  0  0  0  0  0  0  0  0  0  0
   59.4542   31.9518   46.3367 O   0  0  0  0  0  0  0  0  0  0  0  0
   57.6486   30.7071   45.6684 N   0  0  0  0  0  0  0  0  0  0  0  0
   57.3763   29.4320   45.2858 C   0  0  0  0  0  0  0  0  0  0  0  0
   56.0791   29.0434   44.9562 O   0  0  0  0  0  0  0  0  0  0  0  0
   55.3797   29.6658   44.9940 H   0  0  0  0  0  0  0  0  0  0  0  0
 18 19  2  0
 19 20  1  0
 20 21  1  0
 21 22  1  0
 22 23  1  0
 23 24  2  0
 23 25  1  0
 25 26  1  0
 26 27  1  0
 19 17  1  0
 17  1  1  0
  1  2  2  0
  2  3  1  0
  3  8  1  0
  8  9  2  0
  8 10  2  0
  8 11  1  0
 11 12  1  0
 12 13  1  0
 13 14  1  0
 14 15  1  0
 15 16  1  0
  3  4  2  0
  4  5  1  0
  5  6  2  0
  6  7  1  0
 26 21  2  0
  6  1  1  0
 16 11  1  0
 27 28  1  0
M  CHG 1   7  -1
M  CHG 1  17  -1
M  CHG 1  25  -1
M  END
> <UniqueID>
19

> <SMILES>
O=C(Cc1sc(=O)[n-]c1O)[N-]c1cc(S(=O)(=O)N2CCOCC2)ccc1[O-]

> <Energy>
86.93290788530915

> <Genealogy>
O=C(Cc1sc(=O)[n-]c1O)[N-]c1cc(S(=O)(=O)N2CCOCC2)ccc1[O-] (protonated)
O=C(Cc1sc(=O)[n-]c1O)[N-]c1cc(S(=O)(=O)N2CCOCC2)ccc1[O-] (3D coordinates assigned)
O=C(Cc1sc(=O)[n-]c1O)[N-]c1cc(S(=O)(=O)N2CCOCC2)ccc1[O-] (nonaromatic ring conformer: 86.93290788530915 kcal/mol)

> <smiles>
O=C(Cc1sc(=O)[nH]c1O)Nc1cc(S(=O)(=O)N2CCOCC2)ccc1O

> <score_type>
oracle

> <origin>
adg

> <m_score__min__energy>
-15.26

> <m_primary>
energy

> <minimizedAffinity>
-6.33857

> <minimizedRMSD>
1.19998

> <CNNscore>
0.1504370719

> <CNNaffinity>
5.2649974823

> <CNN_VS>
0.7920507789

> <CNNaffinity_variance>
0.0109331915

$$$$
39:0


 26 27  0  0  0  0  0  0  0  0999 V2000
   57.9426   28.3890   46.1751 N   0  0  0  0  0  0  0  0  0  0  0  0
   57.0667   28.8315   46.2542 H   0  0  0  0  0  0  0  0  0  0  0  0
   57.9689   26.9468   46.1470 C   0  0  0  0  0  0  0  0  0  0  0  0
   59.1842   26.2397   46.0875 C   0  0  0  0  0  0  0  0  0  0  0  0
   59.1931   24.8475   46.0590 C   0  0  0  0  0  0  0  0  0  0  0  0
   57.9944   24.1390   46.0860 C   0  0  0  0  0  0  0  0  0  0  0  0
   56.7670   24.8084   46.1378 C   0  0  0  0  0  0  0  0  0  0  0  0
   56.7556   26.2252   46.1785 C   0  0  0  0  0  0  0  0  0  0  0  0
   55.5597   26.9261   46.2591 O   0  0  0  0  0  0  0  0  0  0  0  0
   55.5780   23.9986   46.1544 N   0  0  0  0  0  0  0  0  0  0  0  0
   54.9232   23.0277   44.8767 S   0  0  0  0  0  0  0  0  0  0  0  0
   53.2268   23.3337   44.7547 N   0  0  0  0  0  0  0  0  0  0  0  0
   55.5766   23.3854   43.5711 O   0  0  0  0  0  0  0  0  0  0  0  0
   55.1324   21.5694   45.1767 O   0  0  0  0  0  0  0  0  0  0  0  0
   53.0732   24.3214   44.5512 H   0  0  0  0  0  0  0  0  0  0  0  0
   59.3545   29.3962   46.0786 S   0  0  0  0  0  0  0  0  0  0  0  0
   60.1420   29.0105   44.8571 O   0  0  0  0  0  0  0  0  0  0  0  0
   60.2006   29.1687   47.2994 O   0  0  0  0  0  0  0  0  0  0  0  0
   57.7122   31.5096   45.3734 C   0  0  0  0  0  0  0  0  0  0  0  0
   57.3754   32.8785   45.3519 C   0  0  0  0  0  0  0  0  0  0  0  0
   58.2125   33.8212   45.9549 C   0  0  0  0  0  0  0  0  0  0  0  0
   59.3914   33.4151   46.5785 C   0  0  0  0  0  0  0  0  0  0  0  0
   59.7356   32.0621   46.6077 C   0  0  0  0  0  0  0  0  0  0  0  0
   58.8970   31.1025   46.0199 C   0  0  0  0  0  0  0  0  0  0  0  0
   56.7717   30.3581   43.3574 C   0  0  0  0  0  0  0  0  0  0  0  0
   56.8982   30.5404   44.7635 O   0  0  0  0  0  0  0  0  0  0  0  0
 25 26  1  0
 26 19  1  0
 19 20  2  0
 20 21  1  0
 21 22  2  0
 22 23  1  0
 23 24  2  0
 24 16  1  0
 16 17  2  0
 16 18  2  0
 16  1  1  0
  1  3  1  0
  3  4  2  0
  4  5  1  0
  5  6  2  0
  6  7  1  0
  7 10  1  0
 10 11  1  0
 11 12  1  0
 11 13  2  0
 11 14  2  0
  7  8  2  0
  8  9  1  0
 24 19  1  0
  8  3  1  0
  1  2  1  0
 12 15  1  0
M  CHG 1   9  -1
M  CHG 1  10  -1
M  CHG 1  12  -1
M  END
> <UniqueID>
36

> <SMILES>
COc1ccccc1S(=O)(=O)Nc1cccc([N-]S([NH-])(=O)=O)c1[O-]

> <Energy>
45.28670101588071

> <Genealogy>
COc1ccccc1S(=O)(=O)Nc1cccc([N-]S([NH-])(=O)=O)c1[O-] (protonated)
COc1ccccc1S(=O)(=O)Nc1cccc([N-]S([NH-])(=O)=O)c1[O-] (3D coordinates assigned)
COc1ccccc1S(=O)(=O)Nc1cccc([N-]S([NH-])(=O)=O)c1[O-] (optimized conformer: 45.28670101588071 kcal/mol)

> <smiles>
COc1ccccc1S(=O)(=O)Nc1cccc(NS(N)(=O)=O)c1O

> <score_type>
oracle

> <origin>
adg

> <m_score__min__energy>
-14.74

> <m_primary>
energy

> <minimizedAffinity>
-6.62173

> <minimizedRMSD>
0.53022

> <CNNscore>
0.4377777576

> <CNNaffinity>
5.7891840935

> <CNN_VS>
2.5343761444

> <CNNaffinity_variance>
0.0563371889

$$$$
46:0


 35 38  0  0  0  0  0  0  0  0999 V2000
   59.8816   30.4199   46.5198 C   0  0  0  0  0  0  0  0  0  0  0  0
   60.5814   30.5665   47.7327 C   0  0  0  0  0  0  0  0  0  0  0  0
   60.1711   31.5007   48.6907 C   0  0  0  0  0  0  0  0  0  0  0  0
   59.0371   32.2796   48.4439 C   0  0  0  0  0  0  0  0  0  0  0  0
   58.3248   32.1356   47.2527 C   0  0  0  0  0  0  0  0  0  0  0  0
   58.7238   31.2028   46.2718 C   0  0  0  0  0  0  0  0  0  0  0  0
   57.9539   31.0789   45.0457 N   0  0  0  0  0  0  0  0  0  0  0  0
   58.2637   31.8080   43.8226 C   0  0  0  0  0  0  0  0  0  0  0  0
   57.1906   31.4125   42.8169 C   0  0  0  0  0  0  0  0  0  0  0  0
   56.6332   30.0949   43.3333 C   0  0  0  0  0  0  0  0  0  0  0  0
   56.8620   30.1363   44.8362 C   0  0  0  0  0  0  0  0  0  0  0  0
   61.0219   31.6443   50.2368 S   0  0  0  0  0  0  0  0  0  0  0  0
   59.9961   31.6585   51.3357 O   0  0  0  0  0  0  0  0  0  0  0  0
   61.8799   30.4221   50.4323 O   0  0  0  0  0  0  0  0  0  0  0  0
   61.9982   33.0980   50.3812 N   0  0  0  0  0  0  0  0  0  0  0  0
   62.0206   33.9018   49.1475 C   0  0  0  0  0  0  0  0  0  0  0  0
   63.2150   33.5545   48.2396 C   0  0  0  0  0  0  0  0  0  0  0  0
   63.7114   32.2663   48.5181 O   0  0  0  0  0  0  0  0  0  0  0  0
   64.2740   32.2257   49.8159 C   0  0  0  0  0  0  0  0  0  0  0  0
   63.3563   32.8339   50.8903 C   0  0  0  0  0  0  0  0  0  0  0  0
   60.2800   29.3961   45.5993 N   0  0  0  0  0  0  0  0  0  0  0  0
   59.2033   27.7944   44.3117 O   0  0  0  0  0  0  0  0  0  0  0  0
   59.6536   28.1172   45.4428 C   0  0  0  0  0  0  0  0  0  0  0  0
   59.5215   27.1605   46.5975 C   0  0  0  0  0  0  0  0  0  0  0  0
   58.0903   27.0891   47.1484 C   0  0  0  0  0  0  0  0  0  0  0  0
   57.5768   25.7175   47.1279 N   0  0  0  0  0  0  0  0  0  0  0  0
   56.5670   25.2231   46.2446 C   0  0  0  0  0  0  0  0  0  0  0  0
   55.4942   25.8685   46.1382 O   0  0  0  0  0  0  0  0  0  0  0  0
   56.7344   23.9832   45.4622 C   0  0  0  0  0  0  0  0  0  0  0  0
   58.0094   23.4220   45.3273 C   0  0  0  0  0  0  0  0  0  0  0  0
   58.1963   22.2913   44.5337 C   0  0  0  0  0  0  0  0  0  0  0  0
   57.1002   21.7292   43.8778 C   0  0  0  0  0  0  0  0  0  0  0  0
   55.8713   22.2885   44.0042 N   0  0  0  0  0  0  0  0  0  0  0  0
   55.6607   23.3951   44.7660 C   0  0  0  0  0  0  0  0  0  0  0  0
   54.5055   23.8956   44.8170 O   0  0  0  0  0  0  0  0  0  0  0  0
 22 23  2  0
 23 24  1  0
 24 25  1  0
 25 26  1  0
 26 27  1  0
 27 28  2  0
 27 29  1  0
 29 30  2  0
 30 31  1  0
 31 32  2  0
 32 33  1  0
 33 34  1  0
 34 35  2  0
 23 21  1  0
 21  1  1  0
  1  2  2  0
  2  3  1  0
  3 12  1  0
 12 13  2  0
 12 14  2  0
 12 15  1  0
 15 16  1  0
 16 17  1  0
 17 18  1  0
 18 19  1  0
 19 20  1  0
  3  4  2  0
  4  5  1  0
  5  6  2  0
  6  7  1  0
  7  8  1  0
  8  9  1  0
  9 10  1  0
 10 11  1  0
 34 29  1  0
  6  1  1  0
 11  7  1  0
 20 15  1  0
M  CHG 1  21  -1
M  CHG 1  26  -1
M  CHG 1  33  -1
M  END
> <UniqueID>
42

> <SMILES>
O=C(CC[N-]C(=O)c1ccc[n-]c1=O)[N-]c1cc(S(=O)(=O)N2CCOCC2)ccc1N1CCCC1

> <Energy>
83.33047659844166

> <Genealogy>
O=C(CC[N-]C(=O)c1ccc[n-]c1=O)[N-]c1cc(S(=O)(=O)N2CCOCC2)ccc1N1CCCC1 (protonated)
O=C(CC[N-]C(=O)c1ccc[n-]c1=O)[N-]c1cc(S(=O)(=O)N2CCOCC2)ccc1N1CCCC1 (3D coordinates assigned)
O=C(CC[N-]C(=O)c1ccc[n-]c1=O)[N-]c1cc(S(=O)(=O)N2CCOCC2)ccc1N1CCCC1 (nonaromatic ring conformer: 83.33047659844166 kcal/mol)

> <smiles>
O=C(CCNC(=O)c1ccc[nH]c1=O)Nc1cc(S(=O)(=O)N2CCOCC2)ccc1N1CCCC1

> <score_type>
oracle

> <origin>
adg

> <m_score__min__energy>
-14.34

> <m_primary>
energy

> <minimizedAffinity>
-7.70193

> <minimizedRMSD>
1.20502

> <CNNscore>
0.1318612993

> <CNNaffinity>
6.5842761993

> <CNN_VS>
0.8682112098

> <CNNaffinity_variance>
0.0432251096

$$$$
72:0


 31 33  0  0  0  0  0  0  0  0999 V2000
   59.4985   31.8578   50.6070 N   0  0  0  0  0  0  0  0  0  0  0  0
   59.8401   32.3889   49.3187 C   0  0  0  0  0  0  0  0  0  0  0  0
   61.1071   32.9615   49.1431 C   0  0  0  0  0  0  0  0  0  0  0  0
   61.4705   33.5109   47.9105 C   0  0  0  0  0  0  0  0  0  0  0  0
   60.5658   33.5054   46.8463 C   0  0  0  0  0  0  0  0  0  0  0  0
   59.2889   32.9526   47.0118 C   0  0  0  0  0  0  0  0  0  0  0  0
   58.9233   32.4074   48.2510 C   0  0  0  0  0  0  0  0  0  0  0  0
   58.1209   32.9834   45.6936 S   0  0  0  0  0  0  0  0  0  0  0  0
   58.7326   33.7020   44.5225 O   0  0  0  0  0  0  0  0  0  0  0  0
   56.8848   33.7284   46.1198 O   0  0  0  0  0  0  0  0  0  0  0  0
   57.7110   31.3502   45.2337 N   0  0  0  0  0  0  0  0  0  0  0  0
   56.7133   31.3662   44.1491 C   0  0  0  0  0  0  0  0  0  0  0  0
   56.5583   29.9673   43.5225 C   0  0  0  0  0  0  0  0  0  0  0  0
   57.1607   28.9788   44.3343 O   0  0  0  0  0  0  0  0  0  0  0  0
   58.5608   29.1919   44.3872 C   0  0  0  0  0  0  0  0  0  0  0  0
   58.9210   30.6348   44.8034 C   0  0  0  0  0  0  0  0  0  0  0  0
   59.2210   30.4886   50.9192 C   0  0  0  0  0  0  0  0  0  0  0  0
   58.0547   30.1209   51.2247 O   0  0  0  0  0  0  0  0  0  0  0  0
   60.2777   29.5289   50.8310 N   0  0  0  0  0  0  0  0  0  0  0  0
   60.9962   29.2281   49.5970 C   0  0  0  0  0  0  0  0  0  0  0  0
   58.5280   26.7747   47.0434 C   0  0  0  0  0  0  0  0  0  0  0  0
   58.1854   28.1114   47.2847 C   0  0  0  0  0  0  0  0  0  0  0  0
   58.9891   28.9058   48.1096 C   0  0  0  0  0  0  0  0  0  0  0  0
   60.1486   28.3740   48.6951 C   0  0  0  0  0  0  0  0  0  0  0  0
   60.4920   27.0342   48.4467 C   0  0  0  0  0  0  0  0  0  0  0  0
   59.6879   26.2415   47.6232 C   0  0  0  0  0  0  0  0  0  0  0  0
   55.9122   26.4101   45.9752 N   0  0  0  0  0  0  0  0  0  0  0  0
   57.5215   25.7814   45.9936 S   0  0  0  0  0  0  0  0  0  0  0  0
   57.5023   24.3661   46.4998 O   0  0  0  0  0  0  0  0  0  0  0  0
   58.0782   25.7865   44.5969 O   0  0  0  0  0  0  0  0  0  0  0  0
   55.3293   25.8348   45.3672 H   0  0  0  0  0  0  0  0  0  0  0  0
 27 28  1  0
 28 29  2  0
 28 30  2  0
 28 21  1  0
 21 22  2  0
 22 23  1  0
 23 24  2  0
 24 20  1  0
 20 19  1  0
 19 17  1  0
 17 18  2  0
 17  1  1  0
  1  2  1  0
  2  3  2  0
  3  4  1  0
  4  5  2  0
  5  6  1  0
  6  8  1  0
  8  9  2  0
  8 10  2  0
  8 11  1  0
 11 12  1  0
 12 13  1  0
 13 14  1  0
 14 15  1  0
 15 16  1  0
  6  7  2  0
 24 25  1  0
 25 26  2  0
 26 21  1  0
  7  2  1  0
 16 11  1  0
 27 31  1  0
M  CHG 1   1  -1
M  CHG 1  19  -1
M  CHG 1  27  -1
M  END
> <UniqueID>
66

> <SMILES>
[NH-]S(=O)(=O)c1ccc(C[N-]C(=O)[N-]c2cccc(S(=O)(=O)N3CCOCC3)c2)cc1

> <Energy>
57.97869330151737

> <Genealogy>
[NH-]S(=O)(=O)c1ccc(C[N-]C(=O)[N-]c2cccc(S(=O)(=O)N3CCOCC3)c2)cc1 (protonated)
[NH-]S(=O)(=O)c1ccc(C[N-]C(=O)[N-]c2cccc(S(=O)(=O)N3CCOCC3)c2)cc1 (3D coordinates assigned)
[NH-]S(=O)(=O)c1ccc(C[N-]C(=O)[N-]c2cccc(S(=O)(=O)N3CCOCC3)c2)cc1 (nonaromatic ring conformer: 57.97869330151737 kcal/mol)

> <smiles>
NS(=O)(=O)c1ccc(CNC(=O)Nc2cccc(S(=O)(=O)N3CCOCC3)c2)cc1

> <score_type>
oracle

> <origin>
adg

> <m_score__min__energy>
-14.25

> <m_primary>
energy

> <minimizedAffinity>
-6.96692

> <minimizedRMSD>
1.04931

> <CNNscore>
0.7704290748

> <CNNaffinity>
6.9727206230

> <CNN_VS>
5.3719868660

> <CNNaffinity_variance>
0.1806174517

$$$$
91:0


 26 28  0  0  0  0  0  0  0  0999 V2000
   59.3881   32.9643   47.2144 C   0  0  0  0  0  0  0  0  0  0  0  0
   59.1794   31.7940   47.8593 N   0  0  0  0  0  0  0  0  0  0  0  0
   58.5393   30.8908   47.1203 N   0  0  0  0  0  0  0  0  0  0  0  0
   58.2219   31.3375   45.8858 C   0  0  0  0  0  0  0  0  0  0  0  0
   57.5905   30.5935   45.0256 N   0  0  0  0  0  0  0  0  0  0  0  0
   58.7420   32.9309   45.6587 S   0  0  0  0  0  0  0  0  0  0  0  0
   57.2491   29.2030   45.1519 C   0  0  0  0  0  0  0  0  0  0  0  0
   56.1773   28.7443   44.6728 O   0  0  0  0  0  0  0  0  0  0  0  0
   58.1612   28.2934   45.8500 C   0  0  0  0  0  0  0  0  0  0  0  0
   57.6881   27.2982   46.5383 N   0  0  0  0  0  0  0  0  0  0  0  0
   57.5966   25.9264   46.1120 C   0  0  0  0  0  0  0  0  0  0  0  0
   58.7348   25.1339   45.8467 C   0  0  0  0  0  0  0  0  0  0  0  0
   58.5890   23.8101   45.4242 C   0  0  0  0  0  0  0  0  0  0  0  0
   57.3150   23.2631   45.2548 C   0  0  0  0  0  0  0  0  0  0  0  0
   56.1827   24.0423   45.5025 C   0  0  0  0  0  0  0  0  0  0  0  0
   56.3205   25.3690   45.9249 C   0  0  0  0  0  0  0  0  0  0  0  0
   55.1829   26.1321   46.1619 O   0  0  0  0  0  0  0  0  0  0  0  0
   60.0242   34.1571   47.8509 C   0  0  0  0  0  0  0  0  0  0  0  0
   65.2632   32.7521   49.6218 O   0  0  0  0  0  0  0  0  0  0  0  0
   63.9892   33.0994   49.1788 C   0  0  0  0  0  0  0  0  0  0  0  0
   63.6505   32.9963   47.8218 C   0  0  0  0  0  0  0  0  0  0  0  0
   62.3688   33.3484   47.3904 C   0  0  0  0  0  0  0  0  0  0  0  0
   61.4139   33.8148   48.3095 C   0  0  0  0  0  0  0  0  0  0  0  0
   61.7541   33.9041   49.6685 C   0  0  0  0  0  0  0  0  0  0  0  0
   63.0376   33.5509   50.0987 C   0  0  0  0  0  0  0  0  0  0  0  0
   65.9053   32.4489   49.0105 H   0  0  0  0  0  0  0  0  0  0  0  0
 19 20  1  0
 20 21  2  0
 21 22  1  0
 22 23  2  0
 23 18  1  0
 18  1  1  0
  1  2  2  0
  2  3  1  0
  3  4  1  0
  4  5  2  0
  5  7  1  0
  7  8  2  0
  7  9  1  0
  9 10  2  0
 10 11  1  0
 11 12  2  0
 12 13  1  0
 13 14  2  0
 14 15  1  0
 15 16  2  0
 16 17  1  0
  4  6  1  0
 23 24  1  0
 24 25  2  0
 25 20  1  0
  6  1  1  0
 16 11  1  0
 19 26  1  0
M  CHG 1   3  -1
M  CHG 1  17  -1
M  END
> <UniqueID>
85

> <SMILES>
O=C(C=Nc1ccccc1[O-])/N=c1/[n-]nc(Cc2ccc(O)cc2)s1

> <Energy>
76.26817751406055

> <Genealogy>
O=C(C=Nc1ccccc1[O-])N=c1[n-]nc(Cc2ccc(O)cc2)s1 (protonated)
O=C(C=Nc1ccccc1[O-])/N=c1/[n-]nc(Cc2ccc(O)cc2)s1 (cis-trans isomerization)
O=C(C=Nc1ccccc1[O-])/N=c1/[n-]nc(Cc2ccc(O)cc2)s1 (3D coordinates assigned)
O=C(C=Nc1ccccc1[O-])/N=c1/[n-]nc(Cc2ccc(O)cc2)s1 (optimized conformer: 76.26817751406055 kcal/mol)

> <smiles>
O=C(C=Nc1ccccc1O)N=c1[nH]nc(Cc2ccc(O)cc2)s1

> <score_type>
oracle

> <origin>
adg

> <m_score__min__energy>
-14.210000000000001

> <m_primary>
energy

> <minimizedAffinity>
-7.86418

> <minimizedRMSD>
1.09554

> <CNNscore>
0.6732038856

> <CNNaffinity>
6.6688332558

> <CNN_VS>
4.4894843102

> <CNNaffinity_variance>
0.2623113692

$$$$
22:0


 27 29  0  0  0  0  0  0  0  0999 V2000
   57.7165   31.6170   53.5381 O   0  0  0  0  0  0  0  0  0  0  0  0
   56.9756   30.8856   52.8249 C   0  0  0  0  0  0  0  0  0  0  0  0
   57.5341   30.1174   51.7538 N   0  0  0  0  0  0  0  0  0  0  0  0
   57.1233   29.2494   51.5367 H   0  0  0  0  0  0  0  0  0  0  0  0
   58.6668   30.5512   50.9783 C   0  0  0  0  0  0  0  0  0  0  0  0
   59.7727   29.7013   50.8362 C   0  0  0  0  0  0  0  0  0  0  0  0
   60.8706   30.0951   50.0655 C   0  0  0  0  0  0  0  0  0  0  0  0
   60.8622   31.3299   49.4102 C   0  0  0  0  0  0  0  0  0  0  0  0
   59.7501   32.1736   49.5061 C   0  0  0  0  0  0  0  0  0  0  0  0
   58.6595   31.7868   50.3050 C   0  0  0  0  0  0  0  0  0  0  0  0
   59.7710   33.4033   48.8309 O   0  0  0  0  0  0  0  0  0  0  0  0
   59.2655   33.6238   47.5396 C   0  0  0  0  0  0  0  0  0  0  0  0
   58.0234   33.1035   47.1324 C   0  0  0  0  0  0  0  0  0  0  0  0
   57.5503   33.3450   45.8394 C   0  0  0  0  0  0  0  0  0  0  0  0
   58.3173   34.0929   44.9416 C   0  0  0  0  0  0  0  0  0  0  0  0
   59.5620   34.5906   45.3327 C   0  0  0  0  0  0  0  0  0  0  0  0
   60.0383   34.3498   46.6262 C   0  0  0  0  0  0  0  0  0  0  0  0
   55.5689   30.8222   53.0808 N   0  0  0  0  0  0  0  0  0  0  0  0
   54.7231   29.7387   52.5920 C   0  0  0  0  0  0  0  0  0  0  0  0
   53.5160   30.3036   51.9001 C   0  0  0  0  0  0  0  0  0  0  0  0
   52.7631   31.3222   52.4960 C   0  0  0  0  0  0  0  0  0  0  0  0
   51.6147   31.7730   51.8441 C   0  0  0  0  0  0  0  0  0  0  0  0
   50.9163   32.6891   52.3500 O   0  0  0  0  0  0  0  0  0  0  0  0
   51.2460   31.2166   50.6597 N   0  0  0  0  0  0  0  0  0  0  0  0
   51.9789   30.2196   50.0998 C   0  0  0  0  0  0  0  0  0  0  0  0
   51.6168   29.7102   49.0085 O   0  0  0  0  0  0  0  0  0  0  0  0
   53.1006   29.7689   50.7199 N   0  0  0  0  0  0  0  0  0  0  0  0
  1  2  2  0
  2 18  1  0
 18 19  1  0
 19 20  1  0
 20 21  2  0
 21 22  1  0
 22 23  2  0
 22 24  1  0
 24 25  1  0
 25 26  2  0
 25 27  1  0
  2  3  1  0
  3  5  1  0
  5  6  2  0
  6  7  1  0
  7  8  2  0
  8  9  1  0
  9 11  1  0
 11 12  1  0
 12 13  2  0
 13 14  1  0
 14 15  2  0
 15 16  1  0
 16 17  2  0
  9 10  2  0
 27 20  1  0
 10  5  1  0
 17 12  1  0
  3  4  1  0
M  CHG 1  18  -1
M  CHG 1  24  -1
M  CHG 1  27  -1
M  END
> <UniqueID>
21

> <SMILES>
O=C([N-]Cc1cc(=O)[n-]c(=O)[n-]1)Nc1cccc(Oc2ccccc2)c1

> <Energy>
48.27840167934527

> <Genealogy>
O=C([N-]Cc1cc(=O)[n-]c(=O)[n-]1)Nc1cccc(Oc2ccccc2)c1 (protonated)
O=C([N-]Cc1cc(=O)[n-]c(=O)[n-]1)Nc1cccc(Oc2ccccc2)c1 (3D coordinates assigned)
O=C([N-]Cc1cc(=O)[n-]c(=O)[n-]1)Nc1cccc(Oc2ccccc2)c1 (optimized conformer: 48.27840167934527 kcal/mol)

> <smiles>
O=C(NCc1cc(=O)[nH]c(=O)[nH]1)Nc1cccc(Oc2ccccc2)c1

> <score_type>
oracle

> <origin>
adg

> <m_score__min__energy>
-14.58

> <m_primary>
energy

> <minimizedAffinity>
-6.60561

> <minimizedRMSD>
0.70659

> <CNNscore>
0.3483939171

> <CNNaffinity>
5.6409435272

> <CNN_VS>
1.9652704000

> <CNNaffinity_variance>
0.0764474049

$$$$
33:0


 31 33  0  0  0  0  0  0  0  0999 V2000
   58.8700   30.3612   45.7429 C   0  0  0  0  0  0  0  0  0  0  0  0
   59.9534   30.6466   46.5819 C   0  0  0  0  0  0  0  0  0  0  0  0
   60.6506   29.6130   47.2125 C   0  0  0  0  0  0  0  0  0  0  0  0
   60.2834   28.2838   46.9967 C   0  0  0  0  0  0  0  0  0  0  0  0
   59.2009   27.9736   46.1540 C   0  0  0  0  0  0  0  0  0  0  0  0
   58.4899   29.0240   45.5433 C   0  0  0  0  0  0  0  0  0  0  0  0
   58.8161   26.5603   45.9149 C   0  0  0  0  0  0  0  0  0  0  0  0
   59.5504   25.6311   46.3534 O   0  0  0  0  0  0  0  0  0  0  0  0
   57.6498   26.2394   45.1340 N   0  0  0  0  0  0  0  0  0  0  0  0
   57.2454   26.9506   44.5864 H   0  0  0  0  0  0  0  0  0  0  0  0
   57.0443   24.9355   45.1113 C   0  0  0  0  0  0  0  0  0  0  0  0
   57.7559   23.8657   44.5430 C   0  0  0  0  0  0  0  0  0  0  0  0
   57.1959   22.5833   44.4997 C   0  0  0  0  0  0  0  0  0  0  0  0
   55.9152   22.3606   45.0111 C   0  0  0  0  0  0  0  0  0  0  0  0
   55.1869   23.4217   45.5573 C   0  0  0  0  0  0  0  0  0  0  0  0
   55.7370   24.7103   45.5938 C   0  0  0  0  0  0  0  0  0  0  0  0
   54.9685   25.7598   46.0868 O   0  0  0  0  0  0  0  0  0  0  0  0
   58.1798   31.4515   45.1144 N   0  0  0  0  0  0  0  0  0  0  0  0
   58.1991   33.1012   45.6586 S   0  0  0  0  0  0  0  0  0  0  0  0
   56.7948   33.6418   45.6906 O   0  0  0  0  0  0  0  0  0  0  0  0
   59.0014   33.9289   44.6941 O   0  0  0  0  0  0  0  0  0  0  0  0
   60.5454   33.3372   51.0190 N   0  0  0  0  0  0  0  0  0  0  0  0
   60.0658   33.3269   49.8062 C   0  0  0  0  0  0  0  0  0  0  0  0
   60.6589   34.0354   48.7397 C   0  0  0  0  0  0  0  0  0  0  0  0
   60.0966   33.9596   47.4657 C   0  0  0  0  0  0  0  0  0  0  0  0
   58.9437   33.1993   47.2523 C   0  0  0  0  0  0  0  0  0  0  0  0
   58.3931   32.4942   48.3276 C   0  0  0  0  0  0  0  0  0  0  0  0
   58.9650   32.5666   49.5589 N   0  0  0  0  0  0  0  0  0  0  0  0
   58.8942   33.9738   52.8260 C   0  0  0  0  0  0  0  0  0  0  0  0
   59.8655   33.0030   52.2409 C   0  0  0  0  0  0  0  0  0  0  0  0
   60.1717   31.9693   52.8955 O   0  0  0  0  0  0  0  0  0  0  0  0
 29 30  1  0
 30 31  2  0
 30 22  1  0
 22 23  2  0
 23 24  1  0
 24 25  2  0
 25 26  1  0
 26 19  1  0
 19 20  2  0
 19 21  2  0
 19 18  1  0
 18  1  1  0
  1  2  2  0
  2  3  1  0
  3  4  2  0
  4  5  1  0
  5  7  1  0
  7  8  2  0
  7  9  1  0
  9 11  1  0
 11 12  2  0
 12 13  1  0
 13 14  2  0
 14 15  1  0
 15 16  2  0
 16 17  1  0
  5  6  2  0
 26 27  2  0
 27 28  1  0
 28 23  1  0
  6  1  1  0
 16 11  1  0
  9 10  1  0
M  CHG 1  17  -1
M  CHG 1  18  -1
M  CHG 1  28  -1
M  END
> <UniqueID>
29

> <SMILES>
CC(=O)N=c1ccc(S(=O)(=O)[N-]c2cccc(C(=O)Nc3ccccc3[O-])c2)c[n-]1

> <Energy>
64.21218209822182

> <Genealogy>
CC(=O)N=c1ccc(S(=O)(=O)[N-]c2cccc(C(=O)Nc3ccccc3[O-])c2)c[n-]1 (protonated)
CC(=O)N=c1ccc(S(=O)(=O)[N-]c2cccc(C(=O)Nc3ccccc3[O-])c2)c[n-]1 (3D coordinates assigned)
CC(=O)N=c1ccc(S(=O)(=O)[N-]c2cccc(C(=O)Nc3ccccc3[O-])c2)c[n-]1 (optimized conformer: 64.21218209822182 kcal/mol)

> <smiles>
CC(=O)N=c1ccc(S(=O)(=O)Nc2cccc(C(=O)Nc3ccccc3O)c2)c[nH]1

> <score_type>
oracle

> <origin>
adg

> <m_score__min__energy>
-14.58

> <m_primary>
energy

> <minimizedAffinity>
-8.43459

> <minimizedRMSD>
0.60103

> <CNNscore>
0.5108544827

> <CNNaffinity>
6.9676990509

> <CNN_VS>
3.5594801903

> <CNNaffinity_variance>
0.1094533503

$$$$
41:0


 37 40  0  0  0  0  0  0  0  0999 V2000
   61.1428   29.1356   50.9386 C   0  0  0  0  0  0  0  0  0  0  0  0
   62.3100   29.7067   51.4694 C   0  0  0  0  0  0  0  0  0  0  0  0
   62.4941   29.7829   52.8517 C   0  0  0  0  0  0  0  0  0  0  0  0
   61.5209   29.2799   53.7170 C   0  0  0  0  0  0  0  0  0  0  0  0
   60.3613   28.6849   53.2042 C   0  0  0  0  0  0  0  0  0  0  0  0
   60.1810   28.6037   51.8159 C   0  0  0  0  0  0  0  0  0  0  0  0
   59.9778   29.8021   48.7896 C   0  0  0  0  0  0  0  0  0  0  0  0
   59.4703   30.8354   49.3049 O   0  0  0  0  0  0  0  0  0  0  0  0
   60.9773   29.0634   49.5128 N   0  0  0  0  0  0  0  0  0  0  0  0
   61.5814   28.4762   49.0034 H   0  0  0  0  0  0  0  0  0  0  0  0
   58.2343   29.7388   45.4110 C   0  0  0  0  0  0  0  0  0  0  0  0
   58.8215   28.6068   44.8298 C   0  0  0  0  0  0  0  0  0  0  0  0
   59.7848   27.8804   45.5293 C   0  0  0  0  0  0  0  0  0  0  0  0
   60.1629   28.2719   46.8157 C   0  0  0  0  0  0  0  0  0  0  0  0
   59.5704   29.3934   47.4235 C   0  0  0  0  0  0  0  0  0  0  0  0
   58.6062   30.1261   46.7057 C   0  0  0  0  0  0  0  0  0  0  0  0
   55.5204   29.8057   44.5447 N   0  0  0  0  0  0  0  0  0  0  0  0
   57.0209   30.6627   44.5318 S   0  0  0  0  0  0  0  0  0  0  0  0
   57.4630   30.8711   43.1094 O   0  0  0  0  0  0  0  0  0  0  0  0
   56.8379   32.0066   45.1805 O   0  0  0  0  0  0  0  0  0  0  0  0
   54.8182   30.3420   44.0350 H   0  0  0  0  0  0  0  0  0  0  0  0
   59.1315   28.0494   54.3010 S   0  0  0  0  0  0  0  0  0  0  0  0
   59.1070   26.5481   54.2069 O   0  0  0  0  0  0  0  0  0  0  0  0
   59.4904   28.4203   55.7119 O   0  0  0  0  0  0  0  0  0  0  0  0
   57.5485   28.6850   53.9220 N   0  0  0  0  0  0  0  0  0  0  0  0
   57.3091   29.9460   54.6557 C   0  0  0  0  0  0  0  0  0  0  0  0
   55.8107   30.2986   54.8044 C   0  0  0  0  0  0  0  0  0  0  0  0
   54.9629   29.5741   53.8439 N   0  0  0  0  0  0  0  0  0  0  0  0
   55.2075   28.1493   53.5736 C   0  0  0  0  0  0  0  0  0  0  0  0
   56.5154   27.6853   54.2113 C   0  0  0  0  0  0  0  0  0  0  0  0
   53.7344   30.1745   53.3772 C   0  0  0  0  0  0  0  0  0  0  0  0
   53.6107   30.6025   52.0423 C   0  0  0  0  0  0  0  0  0  0  0  0
   52.4195   31.1814   51.5921 C   0  0  0  0  0  0  0  0  0  0  0  0
   51.3417   31.3393   52.4663 C   0  0  0  0  0  0  0  0  0  0  0  0
   51.4518   30.9193   53.7938 C   0  0  0  0  0  0  0  0  0  0  0  0
   50.3783   31.0776   54.6632 O   0  0  0  0  0  0  0  0  0  0  0  0
   52.6408   30.3391   54.2492 C   0  0  0  0  0  0  0  0  0  0  0  0
 17 18  1  0
 18 19  2  0
 18 20  2  0
 18 11  1  0
 11 12  2  0
 12 13  1  0
 13 14  2  0
 14 15  1  0
 15  7  1  0
  7  8  2  0
  7  9  1  0
  9  1  1  0
  1  2  2  0
  2  3  1  0
  3  4  2  0
  4  5  1  0
  5 22  1  0
 22 23  2  0
 22 24  2  0
 22 25  1  0
 25 26  1  0
 26 27  1  0
 27 28  1  0
 28 31  1  0
 31 32  2  0
 32 33  1  0
 33 34  2  0
 34 35  1  0
 35 36  1  0
 35 37  2  0
 28 29  1  0
 29 30  1  0
  5  6  2  0
 15 16  2  0
 16 11  1  0
  6  1  1  0
 30 25  1  0
 37 31  1  0
 17 21  1  0
  9 10  1  0
M  CHG 1  17  -1
M  CHG 1  36  -1
M  END
> <UniqueID>
37

> <SMILES>
[NH-]S(=O)(=O)c1cccc(C(=O)Nc2cccc(S(=O)(=O)N3CCN(c4cccc([O-])c4)CC3)c2)c1

> <Energy>
73.10180052554293

> <Genealogy>
[NH-]S(=O)(=O)c1cccc(C(=O)Nc2cccc(S(=O)(=O)N3CCN(c4cccc([O-])c4)CC3)c2)c1 (protonated)
[NH-]S(=O)(=O)c1cccc(C(=O)Nc2cccc(S(=O)(=O)N3CCN(c4cccc([O-])c4)CC3)c2)c1 (3D coordinates assigned)
[NH-]S(=O)(=O)c1cccc(C(=O)Nc2cccc(S(=O)(=O)N3CCN(c4cccc([O-])c4)CC3)c2)c1 (nonaromatic ring conformer: 73.10180052554293 kcal/mol)

> <smiles>
NS(=O)(=O)c1cccc(C(=O)Nc2cccc(S(=O)(=O)N3CCN(c4cccc(O)c4)CC3)c2)c1

> <score_type>
oracle

> <origin>
adg

> <m_score__min__energy>
-16.719999999999999

> <m_primary>
energy

> <minimizedAffinity>
-7.79390

> <minimizedRMSD>
1.44024

> <CNNscore>
0.2700089216

> <CNNaffinity>
5.9950747490

> <CNN_VS>
1.6187236309

> <CNNaffinity_variance>
0.3711749017

$$$$
67:0


 30 33  0  0  0  0  0  0  0  0999 V2000
   55.8022   23.8002   45.2193 C   0  0  0  0  0  0  0  0  0  0  0  0
   55.4895   22.6313   44.4991 C   0  0  0  0  0  0  0  0  0  0  0  0
   56.4915   21.7433   44.1022 C   0  0  0  0  0  0  0  0  0  0  0  0
   57.8257   22.0007   44.4106 C   0  0  0  0  0  0  0  0  0  0  0  0
   58.1711   23.1614   45.1206 C   0  0  0  0  0  0  0  0  0  0  0  0
   59.5051   23.4618   45.4512 C   0  0  0  0  0  0  0  0  0  0  0  0
   60.4438   22.6874   45.1236 O   0  0  0  0  0  0  0  0  0  0  0  0
   59.7912   24.5988   46.1340 N   0  0  0  0  0  0  0  0  0  0  0  0
   58.8159   25.4688   46.5033 C   0  0  0  0  0  0  0  0  0  0  0  0
   59.1396   26.5373   47.1682 N   0  0  0  0  0  0  0  0  0  0  0  0
   57.5184   25.1881   46.2051 N   0  0  0  0  0  0  0  0  0  0  0  0
   57.1613   24.0657   45.5261 C   0  0  0  0  0  0  0  0  0  0  0  0
   54.9731   26.0755   45.9590 N   0  0  0  0  0  0  0  0  0  0  0  0
   54.6988   24.7131   45.6341 C   0  0  0  0  0  0  0  0  0  0  0  0
   53.5090   24.3044   45.6964 O   0  0  0  0  0  0  0  0  0  0  0  0
   54.2404   26.6736   46.2322 H   0  0  0  0  0  0  0  0  0  0  0  0
   58.5430   27.8365   47.0242 C   0  0  0  0  0  0  0  0  0  0  0  0
   58.3635   28.5351   48.0569 O   0  0  0  0  0  0  0  0  0  0  0  0
   58.2075   28.4007   45.6984 C   0  0  0  0  0  0  0  0  0  0  0  0
   57.1333   28.0685   45.1292 O   0  0  0  0  0  0  0  0  0  0  0  0
   59.1623   29.3067   44.9783 C   0  0  0  0  0  0  0  0  0  0  0  0
   58.7573   30.7021   45.1439 N   0  0  0  0  0  0  0  0  0  0  0  0
   57.8061   31.3462   44.4246 C   0  0  0  0  0  0  0  0  0  0  0  0
   57.6397   32.6465   44.8866 C   0  0  0  0  0  0  0  0  0  0  0  0
   58.5277   32.7778   45.9332 C   0  0  0  0  0  0  0  0  0  0  0  0
   58.7821   33.8615   46.7705 C   0  0  0  0  0  0  0  0  0  0  0  0
   59.7498   33.6986   47.7782 C   0  0  0  0  0  0  0  0  0  0  0  0
   60.4315   32.4722   47.9233 C   0  0  0  0  0  0  0  0  0  0  0  0
   60.1546   31.3947   47.0632 C   0  0  0  0  0  0  0  0  0  0  0  0
   59.1889   31.5836   46.0690 C   0  0  0  0  0  0  0  0  0  0  0  0
 13 14  1  0
 14 15  2  0
 14  1  1  0
  1  2  2  0
  2  3  1  0
  3  4  2  0
  4  5  1  0
  5  6  1  0
  6  7  2  0
  6  8  1  0
  8  9  1  0
  9 10  2  0
 10 17  1  0
 17 18  2  0
 17 19  1  0
 19 20  2  0
 19 21  1  0
 21 22  1  0
 22 23  1  0
 23 24  2  0
 24 25  1  0
 25 26  2  0
 26 27  1  0
 27 28  2  0
 28 29  1  0
 29 30  2  0
  9 11  1  0
 11 12  1  0
 12  1  1  0
 12  5  2  0
 30 22  1  0
 30 25  1  0
 13 16  1  0
M  CHG 1   8  -1
M  CHG 1  11  -1
M  CHG 1  13  -1
M  END
> <UniqueID>
62

> <SMILES>
[NH-]C(=O)c1cccc2c(=O)[n-]/c(=N/C(=O)C(=O)Cn3ccc4ccccc43)[n-]c12

> <Energy>
90.07521665815287

> <Genealogy>
[NH-]C(=O)c1cccc2c(=O)[n-]c(=NC(=O)C(=O)Cn3ccc4ccccc43)[n-]c12 (protonated)
[NH-]C(=O)c1cccc2c(=O)[n-]/c(=N/C(=O)C(=O)Cn3ccc4ccccc43)[n-]c12 (cis-trans isomerization)
[NH-]C(=O)c1cccc2c(=O)[n-]/c(=N/C(=O)C(=O)Cn3ccc4ccccc43)[n-]c12 (3D coordinates assigned)
[NH-]C(=O)c1cccc2c(=O)[n-]/c(=N/C(=O)C(=O)Cn3ccc4ccccc43)[n-]c12 (optimized conformer: 90.07521665815287 kcal/mol)

> <smiles>
NC(=O)c1cccc2c(=O)[nH]c(=NC(=O)C(=O)Cn3ccc4ccccc43)[nH]c12

> <score_type>
oracle

> <origin>
adg

> <m_score__min__energy>
-14.35

> <m_primary>
energy

> <minimizedAffinity>
-8.04290

> <minimizedRMSD>
0.94360

> <CNNscore>
0.5049362779

> <CNNaffinity>
6.6916408539

> <CNN_VS>
3.3788521290

> <CNNaffinity_variance>
0.0387266688

$$$$
77:0


 30 33  0  0  0  0  0  0  0  0999 V2000
   59.5368   26.2136   47.2093 C   0  0  0  0  0  0  0  0  0  0  0  0
   58.8423   26.7948   46.2163 C   0  0  0  0  0  0  0  0  0  0  0  0
   58.1052   26.1397   45.2204 C   0  0  0  0  0  0  0  0  0  0  0  0
   57.9431   24.8053   45.0780 C   0  0  0  0  0  0  0  0  0  0  0  0
   57.5987   27.1403   44.3967 C   0  0  0  0  0  0  0  0  0  0  0  0
   58.0270   28.3437   44.9235 C   0  0  0  0  0  0  0  0  0  0  0  0
   57.7218   29.6871   44.3317 C   0  0  0  0  0  0  0  0  0  0  0  0
   58.7852   28.1353   46.0216 N   0  0  0  0  0  0  0  0  0  0  0  0
   56.7355   24.0362   45.4528 C   0  0  0  0  0  0  0  0  0  0  0  0
   56.5693   22.7074   45.3186 N   0  0  0  0  0  0  0  0  0  0  0  0
   55.3101   22.4994   45.7554 C   0  0  0  0  0  0  0  0  0  0  0  0
   54.7822   21.3566   45.7870 O   0  0  0  0  0  0  0  0  0  0  0  0
   54.6577   23.6118   46.1549 N   0  0  0  0  0  0  0  0  0  0  0  0
   55.5723   24.5742   45.9527 C   0  0  0  0  0  0  0  0  0  0  0  0
   55.3474   25.9189   46.2198 O   0  0  0  0  0  0  0  0  0  0  0  0
   59.3954   29.1617   46.8255 C   0  0  0  0  0  0  0  0  0  0  0  0
   58.9019   29.4420   48.1063 C   0  0  0  0  0  0  0  0  0  0  0  0
   59.5024   30.4297   48.8913 C   0  0  0  0  0  0  0  0  0  0  0  0
   60.6049   31.1477   48.4134 C   0  0  0  0  0  0  0  0  0  0  0  0
   61.0987   30.8651   47.1238 C   0  0  0  0  0  0  0  0  0  0  0  0
   60.4982   29.8773   46.3387 C   0  0  0  0  0  0  0  0  0  0  0  0
   61.1679   32.1295   49.2466 O   0  0  0  0  0  0  0  0  0  0  0  0
   61.2366   33.5250   48.9552 C   0  0  0  0  0  0  0  0  0  0  0  0
   59.8203   34.1344   48.9284 C   0  0  0  0  0  0  0  0  0  0  0  0
   59.2067   34.2157   47.5846 N   0  0  0  0  0  0  0  0  0  0  0  0
   60.1745   34.2157   46.4763 C   0  0  0  0  0  0  0  0  0  0  0  0
   59.4460   34.5565   45.1589 C   0  0  0  0  0  0  0  0  0  0  0  0
   58.0330   34.5037   45.2863 O   0  0  0  0  0  0  0  0  0  0  0  0
   57.6448   33.2883   45.8972 C   0  0  0  0  0  0  0  0  0  0  0  0
   58.1297   33.2314   47.3594 C   0  0  0  0  0  0  0  0  0  0  0  0
  1  2  2  0
  2  3  1  0
  3  4  2  0
  4  9  1  0
  9 10  1  0
 10 11  1  0
 11 12  2  0
 11 13  1  0
 13 14  1  0
 14 15  1  0
  3  5  1  0
  5  6  2  0
  6  7  1  0
  6  8  1  0
  8 16  1  0
 16 17  2  0
 17 18  1  0
 18 19  2  0
 19 22  1  0
 22 23  1  0
 23 24  1  0
 24 25  1  0
 25 26  1  0
 26 27  1  0
 27 28  1  0
 28 29  1  0
 29 30  1  0
 19 20  1  0
 20 21  2  0
  8  2  1  0
 21 16  1  0
 14  9  2  0
 30 25  1  0
M  CHG 1  10  -1
M  CHG 1  13  -1
M  CHG 1  15  -1
M  END
> <UniqueID>
71

> <SMILES>
C=c1/c(=C/c2[n-]c(=O)[n-]c2[O-])cc(C)n1-c1ccc(OCCN2CCOCC2)cc1

> <Energy>
136.21812142736087

> <Genealogy>
C=c1c(=Cc2[n-]c(=O)[n-]c2[O-])cc(C)n1-c1ccc(OCCN2CCOCC2)cc1 (protonated)
C=c1/c(=C/c2[n-]c(=O)[n-]c2[O-])cc(C)n1-c1ccc(OCCN2CCOCC2)cc1 (cis-trans isomerization)
C=c1/c(=C/c2[n-]c(=O)[n-]c2[O-])cc(C)n1-c1ccc(OCCN2CCOCC2)cc1 (3D coordinates assigned)
C=c1/c(=C/c2[n-]c(=O)[n-]c2[O-])cc(C)n1-c1ccc(OCCN2CCOCC2)cc1 (nonaromatic ring conformer: 136.21812142736087 kcal/mol)

> <smiles>
C=c1c(=Cc2[nH]c(=O)[nH]c2O)cc(C)n1-c1ccc(OCCN2CCOCC2)cc1

> <score_type>
oracle

> <origin>
adg

> <m_score__min__energy>
-15.539999999999999

> <m_primary>
energy

> <minimizedAffinity>
-8.04779

> <minimizedRMSD>
0.57810

> <CNNscore>
0.0879038051

> <CNNaffinity>
5.7626357079

> <CNN_VS>
0.5065575838

> <CNNaffinity_variance>
0.5395238400

$$$$
59:0


 22 23  0  0  0  0  0  0  0  0999 V2000
   60.5652   30.0728   47.6804 C   0  0  0  0  0  0  0  0  0  0  0  0
   60.1269   29.5139   48.7206 O   0  0  0  0  0  0  0  0  0  0  0  0
   59.1906   26.1610   46.0593 C   0  0  0  0  0  0  0  0  0  0  0  0
   59.9351   27.2728   46.2924 N   0  0  0  0  0  0  0  0  0  0  0  0
   59.4096   28.5239   46.1629 C   0  0  0  0  0  0  0  0  0  0  0  0
   60.1236   29.5866   46.4021 N   0  0  0  0  0  0  0  0  0  0  0  0
   58.0598   28.6556   45.8008 C   0  0  0  0  0  0  0  0  0  0  0  0
   57.5284   29.7935   45.6854 O   0  0  0  0  0  0  0  0  0  0  0  0
   57.3167   27.5407   45.5688 N   0  0  0  0  0  0  0  0  0  0  0  0
   57.8530   26.2987   45.6875 C   0  0  0  0  0  0  0  0  0  0  0  0
   57.0712   25.1762   45.4438 O   0  0  0  0  0  0  0  0  0  0  0  0
   61.4739   31.2657   47.8252 C   0  0  0  0  0  0  0  0  0  0  0  0
   61.3341   31.8425   49.1644 N   0  0  0  0  0  0  0  0  0  0  0  0
   60.6704   33.4493   49.0839 S   0  0  0  0  0  0  0  0  0  0  0  0
   61.7919   34.4516   49.1034 O   0  0  0  0  0  0  0  0  0  0  0  0
   59.8050   33.6850   50.2897 O   0  0  0  0  0  0  0  0  0  0  0  0
   59.6981   33.6632   47.6289 C   0  0  0  0  0  0  0  0  0  0  0  0
   60.2054   34.3778   46.5314 C   0  0  0  0  0  0  0  0  0  0  0  0
   59.4442   34.5069   45.3664 C   0  0  0  0  0  0  0  0  0  0  0  0
   58.1773   33.9220   45.2889 C   0  0  0  0  0  0  0  0  0  0  0  0
   57.6684   33.2090   46.3782 C   0  0  0  0  0  0  0  0  0  0  0  0
   58.4265   33.0778   47.5461 C   0  0  0  0  0  0  0  0  0  0  0  0
  3  4  1  0
  4  5  1  0
  5  6  2  0
  6  1  1  0
  1  2  2  0
  1 12  1  0
 12 13  1  0
 13 14  1  0
 14 15  2  0
 14 16  2  0
 14 17  1  0
 17 18  2  0
 18 19  1  0
 19 20  2  0
 20 21  1  0
 21 22  2  0
  5  7  1  0
  7  8  2  0
  7  9  1  0
  9 10  1  0
 10 11  1  0
 10  3  2  0
 22 17  1  0
M  CHG 1   4  -1
M  CHG 1   9  -1
M  CHG 1  11  -1
M  CHG 1  13  -1
M  END
> <UniqueID>
57

> <SMILES>
O=C(C[N-]S(=O)(=O)c1ccccc1)/N=c1\[n-]cc([O-])[n-]c1=O

> <Energy>
35.43861614009032

> <Genealogy>
O=C(C[N-]S(=O)(=O)c1ccccc1)N=c1[n-]cc([O-])[n-]c1=O (protonated)
O=C(C[N-]S(=O)(=O)c1ccccc1)/N=c1\[n-]cc([O-])[n-]c1=O (cis-trans isomerization)
O=C(C[N-]S(=O)(=O)c1ccccc1)/N=c1\[n-]cc([O-])[n-]c1=O (3D coordinates assigned)
O=C(C[N-]S(=O)(=O)c1ccccc1)/N=c1\[n-]cc([O-])[n-]c1=O (optimized conformer: 35.43861614009032 kcal/mol)

> <smiles>
O=C(CNS(=O)(=O)c1ccccc1)N=c1[nH]cc(O)[nH]c1=O

> <score_type>
oracle

> <origin>
adg

> <m_score__min__energy>
-15.57

> <m_primary>
energy

> <minimizedAffinity>
-7.16115

> <minimizedRMSD>
1.26578

> <CNNscore>
0.9245870709

> <CNNaffinity>
6.4804673195

> <CNN_VS>
5.9917564392

> <CNNaffinity_variance>
0.2108015269

$$$$
32:0


 31 33  0  0  0  0  0  0  0  0999 V2000
   59.8888   30.9134   50.6947 C   0  0  0  0  0  0  0  0  0  0  0  0
   59.8536   30.2878   48.2327 C   0  0  0  0  0  0  0  0  0  0  0  0
   61.0632   30.6256   48.1149 O   0  0  0  0  0  0  0  0  0  0  0  0
   59.1875   30.4582   49.4955 N   0  0  0  0  0  0  0  0  0  0  0  0
   58.2247   30.2613   49.5547 H   0  0  0  0  0  0  0  0  0  0  0  0
   57.9514   27.8857   45.9960 C   0  0  0  0  0  0  0  0  0  0  0  0
   57.7606   28.6658   44.8503 C   0  0  0  0  0  0  0  0  0  0  0  0
   58.2507   29.9724   44.8031 C   0  0  0  0  0  0  0  0  0  0  0  0
   58.9351   30.5072   45.8979 C   0  0  0  0  0  0  0  0  0  0  0  0
   59.1385   29.7348   47.0560 C   0  0  0  0  0  0  0  0  0  0  0  0
   58.6296   28.4238   47.0979 C   0  0  0  0  0  0  0  0  0  0  0  0
   55.5900   26.2944   46.1043 N   0  0  0  0  0  0  0  0  0  0  0  0
   57.3167   26.2438   46.0670 S   0  0  0  0  0  0  0  0  0  0  0  0
   57.8268   25.5555   47.3018 O   0  0  0  0  0  0  0  0  0  0  0  0
   57.7663   25.4674   44.8620 O   0  0  0  0  0  0  0  0  0  0  0  0
   55.2228   25.3437   46.1454 H   0  0  0  0  0  0  0  0  0  0  0  0
   59.6602   29.9366   51.8504 C   0  0  0  0  0  0  0  0  0  0  0  0
   58.2305   29.9933   52.3160 C   0  0  0  0  0  0  0  0  0  0  0  0
   57.4070   31.0669   51.9456 C   0  0  0  0  0  0  0  0  0  0  0  0
   56.0697   31.1034   52.3517 C   0  0  0  0  0  0  0  0  0  0  0  0
   55.5347   30.0610   53.1222 C   0  0  0  0  0  0  0  0  0  0  0  0
   56.3550   28.9817   53.4842 C   0  0  0  0  0  0  0  0  0  0  0  0
   57.6925   28.9452   53.0790 C   0  0  0  0  0  0  0  0  0  0  0  0
   54.0976   30.1161   53.5692 C   0  0  0  0  0  0  0  0  0  0  0  0
   53.2296   29.4389   52.5828 N   0  0  0  0  0  0  0  0  0  0  0  0
   52.0541   28.7949   53.2076 C   0  0  0  0  0  0  0  0  0  0  0  0
   51.1027   29.8220   53.8393 C   0  0  0  0  0  0  0  0  0  0  0  0
   50.8056   30.8989   52.9044 N   0  0  0  0  0  0  0  0  0  0  0  0
   51.7077   31.2585   51.8572 C   0  0  0  0  0  0  0  0  0  0  0  0
   51.5061   32.3104   51.1951 O   0  0  0  0  0  0  0  0  0  0  0  0
   52.8304   30.3327   51.4735 C   0  0  0  0  0  0  0  0  0  0  0  0
 12 13  1  0
 13 14  2  0
 13 15  2  0
 13  6  1  0
  6  7  2  0
  7  8  1  0
  8  9  2  0
  9 10  1  0
 10  2  1  0
  2  3  2  0
  2  4  1  0
  4  1  1  0
  1 17  1  0
 17 18  1  0
 18 19  2  0
 19 20  1  0
 20 21  2  0
 21 24  1  0
 24 25  1  0
 25 26  1  0
 26 27  1  0
 27 28  1  0
 28 29  1  0
 29 30  2  0
 29 31  1  0
 21 22  1  0
 22 23  2  0
 10 11  2  0
 11  6  1  0
 23 18  1  0
 31 25  1  0
 12 16  1  0
  4  5  1  0
M  CHG 1  12  -1
M  CHG 1  28  -1
M  END
> <UniqueID>
30

> <SMILES>
[NH-]S(=O)(=O)c1cccc(C(=O)NCCc2ccc(CN3CC[N-]C(=O)C3)cc2)c1

> <Energy>
54.195120513831235

> <Genealogy>
[NH-]S(=O)(=O)c1cccc(C(=O)NCCc2ccc(CN3CC[N-]C(=O)C3)cc2)c1 (protonated)
[NH-]S(=O)(=O)c1cccc(C(=O)NCCc2ccc(CN3CC[N-]C(=O)C3)cc2)c1 (3D coordinates assigned)
[NH-]S(=O)(=O)c1cccc(C(=O)NCCc2ccc(CN3CC[N-]C(=O)C3)cc2)c1 (nonaromatic ring conformer: 54.195120513831235 kcal/mol)

> <smiles>
NS(=O)(=O)c1cccc(C(=O)NCCc2ccc(CN3CCNC(=O)C3)cc2)c1

> <score_type>
oracle

> <origin>
adg

> <m_score__min__energy>
-14.720000000000001

> <m_primary>
energy

> <minimizedAffinity>
-7.92577

> <minimizedRMSD>
1.69661

> <CNNscore>
0.2988739312

> <CNNaffinity>
6.1169676781

> <CNN_VS>
1.8282021284

> <CNNaffinity_variance>
0.0501290262

$$$$
51:0


 20 21  0  0  0  0  0  0  0  0999 V2000
   58.2130   27.5141   46.0662 S   0  0  0  0  0  0  0  0  0  0  0  0
   58.2168   27.9848   47.4951 O   0  0  0  0  0  0  0  0  0  0  0  0
   59.5907   27.6845   45.4937 O   0  0  0  0  0  0  0  0  0  0  0  0
   57.8627   22.1554   45.6921 O   0  0  0  0  0  0  0  0  0  0  0  0
   57.6614   23.3915   45.8104 C   0  0  0  0  0  0  0  0  0  0  0  0
   56.4318   23.9245   45.9630 N   0  0  0  0  0  0  0  0  0  0  0  0
   56.4963   25.2786   46.0655 C   0  0  0  0  0  0  0  0  0  0  0  0
   55.3555   26.0528   46.2301 O   0  0  0  0  0  0  0  0  0  0  0  0
   57.7798   25.8137   45.9922 C   0  0  0  0  0  0  0  0  0  0  0  0
   58.8767   24.5546   45.7941 S   0  0  0  0  0  0  0  0  0  0  0  0
   57.0861   28.4490   45.1209 N   0  0  0  0  0  0  0  0  0  0  0  0
   57.7464   29.5256   44.3775 C   0  0  0  0  0  0  0  0  0  0  0  0
   57.1423   30.8925   44.7194 C   0  0  0  0  0  0  0  0  0  0  0  0
   58.0107   32.0351   44.1832 C   0  0  0  0  0  0  0  0  0  0  0  0
   58.5787   32.8400   45.3207 C   0  0  0  0  0  0  0  0  0  0  0  0
   58.9495   34.1802   45.1250 C   0  0  0  0  0  0  0  0  0  0  0  0
   59.5161   34.9139   46.1721 C   0  0  0  0  0  0  0  0  0  0  0  0
   59.7263   34.3131   47.4161 C   0  0  0  0  0  0  0  0  0  0  0  0
   59.3734   32.9753   47.6150 C   0  0  0  0  0  0  0  0  0  0  0  0
   58.8066   32.2367   46.5700 C   0  0  0  0  0  0  0  0  0  0  0  0
  4  5  2  0
  5  6  1  0
  6  7  1  0
  7  8  1  0
  7  9  2  0
  9  1  1  0
  1  2  2  0
  1  3  2  0
  1 11  1  0
 11 12  1  0
 12 13  1  0
 13 14  1  0
 14 15  1  0
 15 16  2  0
 16 17  1  0
 17 18  2  0
 18 19  1  0
 19 20  2  0
  9 10  1  0
 10  5  1  0
 20 15  1  0
M  CHG 1   6  -1
M  CHG 1   8  -1
M  CHG 1  11  -1
M  END
> <UniqueID>
48

> <SMILES>
O=c1[n-]c([O-])c(S(=O)(=O)[N-]CCCc2ccccc2)s1

> <Energy>
57.673215668029755

> <Genealogy>
O=c1[n-]c([O-])c(S(=O)(=O)[N-]CCCc2ccccc2)s1 (protonated)
O=c1[n-]c([O-])c(S(=O)(=O)[N-]CCCc2ccccc2)s1 (3D coordinates assigned)
O=c1[n-]c([O-])c(S(=O)(=O)[N-]CCCc2ccccc2)s1 (optimized conformer: 57.673215668029755 kcal/mol)

> <smiles>
O=c1[nH]c(O)c(S(=O)(=O)NCCCc2ccccc2)s1

> <score_type>
oracle

> <origin>
adg

> <m_score__min__energy>
-15.140000000000001

> <m_primary>
energy

> <minimizedAffinity>
-6.40213

> <minimizedRMSD>
1.21007

> <CNNscore>
0.8616083860

> <CNNaffinity>
6.4999289513

> <CNN_VS>
5.6003932953

> <CNNaffinity_variance>
0.4737689495

$$$$
53:0


 32 34  0  0  0  0  0  0  0  0999 V2000
   60.4685   29.5023   49.3925 C   0  0  0  0  0  0  0  0  0  0  0  0
   59.5655   30.0610   48.4744 C   0  0  0  0  0  0  0  0  0  0  0  0
   59.3766   31.4418   48.4271 C   0  0  0  0  0  0  0  0  0  0  0  0
   60.0414   32.2807   49.3253 C   0  0  0  0  0  0  0  0  0  0  0  0
   59.7837   34.0154   49.1704 Cl  0  0  0  0  0  0  0  0  0  0  0  0
   60.8867   31.7296   50.3128 C   0  0  0  0  0  0  0  0  0  0  0  0
   61.1102   30.3366   50.3211 C   0  0  0  0  0  0  0  0  0  0  0  0
   61.9813   29.7645   51.2421 O   0  0  0  0  0  0  0  0  0  0  0  0
   61.6643   32.7821   51.5171 S   0  0  0  0  0  0  0  0  0  0  0  0
   62.3688   31.9658   52.5648 O   0  0  0  0  0  0  0  0  0  0  0  0
   60.5967   33.5847   52.2078 O   0  0  0  0  0  0  0  0  0  0  0  0
   62.7924   33.8687   50.7328 N   0  0  0  0  0  0  0  0  0  0  0  0
   63.2530   33.3354   49.4382 C   0  0  0  0  0  0  0  0  0  0  0  0
   64.2775   32.1880   49.6006 C   0  0  0  0  0  0  0  0  0  0  0  0
   64.8644   32.1308   50.8889 O   0  0  0  0  0  0  0  0  0  0  0  0
   65.1949   33.4272   51.3306 C   0  0  0  0  0  0  0  0  0  0  0  0
   63.9177   34.2346   51.6219 C   0  0  0  0  0  0  0  0  0  0  0  0
   60.7327   28.0909   49.4455 N   0  0  0  0  0  0  0  0  0  0  0  0
   60.2248   27.0576   48.5909 C   0  0  0  0  0  0  0  0  0  0  0  0
   59.1218   26.5194   48.8709 O   0  0  0  0  0  0  0  0  0  0  0  0
   60.9618   26.5880   47.4633 N   0  0  0  0  0  0  0  0  0  0  0  0
   60.3199   26.2804   46.1945 C   0  0  0  0  0  0  0  0  0  0  0  0
   58.1937   29.7801   44.8370 C   0  0  0  0  0  0  0  0  0  0  0  0
   59.5951   29.7839   44.8885 C   0  0  0  0  0  0  0  0  0  0  0  0
   60.2876   28.6487   45.3203 C   0  0  0  0  0  0  0  0  0  0  0  0
   59.5867   27.4918   45.6906 C   0  0  0  0  0  0  0  0  0  0  0  0
   58.1831   27.4986   45.6613 C   0  0  0  0  0  0  0  0  0  0  0  0
   57.4921   28.6372   45.2406 C   0  0  0  0  0  0  0  0  0  0  0  0
   57.7370   32.6194   45.2691 C   0  0  0  0  0  0  0  0  0  0  0  0
   57.3127   31.2004   44.2794 S   0  0  0  0  0  0  0  0  0  0  0  0
   55.8325   30.9690   44.4053 O   0  0  0  0  0  0  0  0  0  0  0  0
   57.6521   31.4683   42.8408 O   0  0  0  0  0  0  0  0  0  0  0  0
 29 30  1  0
 30 31  2  0
 30 32  2  0
 30 23  1  0
 23 24  2  0
 24 25  1  0
 25 26  2  0
 26 22  1  0
 22 21  1  0
 21 19  1  0
 19 20  2  0
 19 18  1  0
 18  1  1  0
  1  2  2  0
  2  3  1  0
  3  4  2  0
  4  5  1  0
  4  6  1  0
  6  9  1  0
  9 10  2  0
  9 11  2  0
  9 12  1  0
 12 13  1  0
 13 14  1  0
 14 15  1  0
 15 16  1  0
 16 17  1  0
  6  7  2  0
  7  8  1  0
 26 27  1  0
 27 28  2  0
 28 23  1  0
  7  1  1  0
 17 12  1  0
M  CHG 1   8  -1
M  CHG 1  18  -1
M  CHG 1  21  -1
M  END
> <UniqueID>
50

> <SMILES>
CS(=O)(=O)c1ccc(C[N-]C(=O)[N-]c2ccc(Cl)c(S(=O)(=O)N3CCOCC3)c2[O-])cc1

> <Energy>
67.2760454326842

> <Genealogy>
CS(=O)(=O)c1ccc(C[N-]C(=O)[N-]c2ccc(Cl)c(S(=O)(=O)N3CCOCC3)c2[O-])cc1 (protonated)
CS(=O)(=O)c1ccc(C[N-]C(=O)[N-]c2ccc(Cl)c(S(=O)(=O)N3CCOCC3)c2[O-])cc1 (3D coordinates assigned)
CS(=O)(=O)c1ccc(C[N-]C(=O)[N-]c2ccc(Cl)c(S(=O)(=O)N3CCOCC3)c2[O-])cc1 (nonaromatic ring conformer: 67.2760454326842 kcal/mol)

> <smiles>
CS(=O)(=O)c1ccc(CNC(=O)Nc2ccc(Cl)c(S(=O)(=O)N3CCOCC3)c2O)cc1

> <score_type>
oracle

> <origin>
adg

> <m_score__min__energy>
-16.940000000000001

> <m_primary>
energy

> <minimizedAffinity>
-4.96325

> <minimizedRMSD>
1.81703

> <CNNscore>
0.5062240362

> <CNNaffinity>
6.4514842033

> <CNN_VS>
3.2658963203

> <CNNaffinity_variance>
0.0314113311

$$$$
69:0


 22 23  0  0  0  0  0  0  0  0999 V2000
   58.0482   30.6006   45.1802 C   0  0  0  0  0  0  0  0  0  0  0  0
   55.9899   29.4682   44.7696 O   0  0  0  0  0  0  0  0  0  0  0  0
   57.2237   29.3657   45.0040 C   0  0  0  0  0  0  0  0  0  0  0  0
   57.8493   28.0786   45.0636 N   0  0  0  0  0  0  0  0  0  0  0  0
   57.7876   27.2000   46.2261 C   0  0  0  0  0  0  0  0  0  0  0  0
   56.9502   25.9940   45.9378 C   0  0  0  0  0  0  0  0  0  0  0  0
   57.4253   24.8857   45.3368 N   0  0  0  0  0  0  0  0  0  0  0  0
   56.4055   24.0545   45.2109 N   0  0  0  0  0  0  0  0  0  0  0  0
   55.3440   24.6885   45.7362 C   0  0  0  0  0  0  0  0  0  0  0  0
   54.1927   24.1815   45.7861 O   0  0  0  0  0  0  0  0  0  0  0  0
   55.6301   25.9152   46.2053 N   0  0  0  0  0  0  0  0  0  0  0  0
   57.1779   31.7656   45.3545 N   0  0  0  0  0  0  0  0  0  0  0  0
   58.0697   33.2511   45.2044 S   0  0  0  0  0  0  0  0  0  0  0  0
   58.7577   33.3022   43.8692 O   0  0  0  0  0  0  0  0  0  0  0  0
   57.1100   34.4049   45.2839 O   0  0  0  0  0  0  0  0  0  0  0  0
   59.2567   33.4010   46.4975 C   0  0  0  0  0  0  0  0  0  0  0  0
   58.8350   33.4827   47.8324 C   0  0  0  0  0  0  0  0  0  0  0  0
   59.7746   33.6247   48.8578 C   0  0  0  0  0  0  0  0  0  0  0  0
   61.1383   33.6666   48.5583 C   0  0  0  0  0  0  0  0  0  0  0  0
   61.5673   33.5677   47.2300 C   0  0  0  0  0  0  0  0  0  0  0  0
   63.2800   33.5910   46.8566 Cl  0  0  0  0  0  0  0  0  0  0  0  0
   60.6273   33.4415   46.2009 C   0  0  0  0  0  0  0  0  0  0  0  0
  2  3  2  0
  3  1  1  0
  1 12  1  0
 12 13  1  0
 13 14  2  0
 13 15  2  0
 13 16  1  0
 16 17  2  0
 17 18  1  0
 18 19  2  0
 19 20  1  0
 20 21  1  0
 20 22  2  0
  3  4  1  0
  4  5  1  0
  5  6  1  0
  6  7  2  0
  7  8  1  0
  8  9  1  0
  9 10  2  0
  9 11  1  0
 22 16  1  0
 11  6  1  0
M  CHG 1   4  -1
M  CHG 1   8  -1
M  CHG 1  11  -1
M  CHG 1  12  -1
M  END
> <UniqueID>
65

> <SMILES>
O=C(C[N-]S(=O)(=O)c1cccc(Cl)c1)[N-]Cc1n[n-]c(=O)[n-]1

> <Energy>
55.04703416701429

> <Genealogy>
O=C(C[N-]S(=O)(=O)c1cccc(Cl)c1)[N-]Cc1n[n-]c(=O)[n-]1 (protonated)
O=C(C[N-]S(=O)(=O)c1cccc(Cl)c1)[N-]Cc1n[n-]c(=O)[n-]1 (3D coordinates assigned)
O=C(C[N-]S(=O)(=O)c1cccc(Cl)c1)[N-]Cc1n[n-]c(=O)[n-]1 (optimized conformer: 55.04703416701429 kcal/mol)

> <smiles>
O=C(CNS(=O)(=O)c1cccc(Cl)c1)NCc1n[nH]c(=O)[nH]1

> <score_type>
oracle

> <origin>
adg

> <m_score__min__energy>
-15.35

> <m_primary>
energy

> <minimizedAffinity>
-6.52652

> <minimizedRMSD>
0.91280

> <CNNscore>
0.5976006985

> <CNNaffinity>
6.1292929649

> <CNN_VS>
3.6628696918

> <CNNaffinity_variance>
0.1281831563

$$$$
90:0


 26 29  0  0  0  0  0  0  0  0999 V2000
   54.9049   28.6774   52.7794 O   0  0  0  0  0  0  0  0  0  0  0  0
   55.2473   29.8281   52.3927 C   0  0  0  0  0  0  0  0  0  0  0  0
   56.5997   30.2881   52.6131 N   0  0  0  0  0  0  0  0  0  0  0  0
   57.6563   29.3186   52.9403 C   0  0  0  0  0  0  0  0  0  0  0  0
   58.9551   29.6297   52.1759 C   0  0  0  0  0  0  0  0  0  0  0  0
   59.2845   31.1461   52.0901 C   0  0  0  0  0  0  0  0  0  0  0  0
   58.3678   32.0086   52.9726 C   0  0  0  0  0  0  0  0  0  0  0  0
   56.8861   31.7316   52.6963 C   0  0  0  0  0  0  0  0  0  0  0  0
   59.2883   31.6471   50.6997 N   0  0  0  0  0  0  0  0  0  0  0  0
   59.4936   32.9126   50.2288 C   0  0  0  0  0  0  0  0  0  0  0  0
   59.6477   33.9179   50.9717 O   0  0  0  0  0  0  0  0  0  0  0  0
   59.5335   33.0089   48.8746 N   0  0  0  0  0  0  0  0  0  0  0  0
   59.3604   31.7334   48.4961 C   0  0  0  0  0  0  0  0  0  0  0  0
   59.3534   31.2697   47.2220 N   0  0  0  0  0  0  0  0  0  0  0  0
   59.2031   29.9288   47.0059 C   0  0  0  0  0  0  0  0  0  0  0  0
   59.0678   29.0366   48.0952 C   0  0  0  0  0  0  0  0  0  0  0  0
   59.0847   29.5319   49.4101 C   0  0  0  0  0  0  0  0  0  0  0  0
   59.2248   30.9111   49.5733 C   0  0  0  0  0  0  0  0  0  0  0  0
   54.2150   30.6902   51.7173 C   0  0  0  0  0  0  0  0  0  0  0  0
   52.9773   30.8047   52.5525 C   0  0  0  0  0  0  0  0  0  0  0  0
   52.8747   30.3535   53.8155 N   0  0  0  0  0  0  0  0  0  0  0  0
   51.6035   30.6640   54.1535 C   0  0  0  0  0  0  0  0  0  0  0  0
   51.1195   30.3962   55.2836 O   0  0  0  0  0  0  0  0  0  0  0  0
   50.8954   31.2854   53.1860 N   0  0  0  0  0  0  0  0  0  0  0  0
   51.7793   31.3663   52.1803 C   0  0  0  0  0  0  0  0  0  0  0  0
   51.4993   31.9433   50.9492 O   0  0  0  0  0  0  0  0  0  0  0  0
  1  2  2  0
  2 19  1  0
 19 20  1  0
 20 21  1  0
 21 22  1  0
 22 23  2  0
 22 24  1  0
 24 25  1  0
 25 26  1  0
  2  3  1  0
  3  4  1  0
  4  5  1  0
  5  6  1  0
  6  9  1  0
  9 10  1  0
 10 11  2  0
 10 12  1  0
 12 13  1  0
 13 14  2  0
 14 15  1  0
 15 16  2  0
 16 17  1  0
 17 18  2  0
  6  7  1  0
  7  8  1  0
 25 20  2  0
  8  3  1  0
 18  9  1  0
 18 13  1  0
M  CHG 1  12  -1
M  CHG 1  21  -1
M  CHG 1  24  -1
M  CHG 1  26  -1
M  END
> <UniqueID>
84

> <SMILES>
O=C(Cc1[n-]c(=O)[n-]c1[O-])N1CCC(n2c(=O)[n-]c3ncccc32)CC1

> <Energy>
116.99137340234125

> <Genealogy>
O=C(Cc1[n-]c(=O)[n-]c1[O-])N1CCC(n2c(=O)[n-]c3ncccc32)CC1 (protonated)
O=C(Cc1[n-]c(=O)[n-]c1[O-])N1CCC(n2c(=O)[n-]c3ncccc32)CC1 (3D coordinates assigned)
O=C(Cc1[n-]c(=O)[n-]c1[O-])N1CCC(n2c(=O)[n-]c3ncccc32)CC1 (nonaromatic ring conformer: 116.99137340234125 kcal/mol)

> <smiles>
O=C(Cc1[nH]c(=O)[nH]c1O)N1CCC(n2c(=O)[nH]c3ncccc32)CC1

> <score_type>
oracle

> <origin>
adg

> <m_score__min__energy>
-16.789999999999999

> <m_primary>
energy

> <minimizedAffinity>
-6.20824

> <minimizedRMSD>
1.13415

> <CNNscore>
0.2308035344

> <CNNaffinity>
5.2636504173

> <CNN_VS>
1.2148691416

> <CNNaffinity_variance>
0.0071561201

$$$$
7:0


 24 26  0  0  0  0  0  0  0  0999 V2000
   57.1530   30.4393   53.1112 C   0  0  0  0  0  0  0  0  0  0  0  0
   56.7631   29.8715   54.3270 C   0  0  0  0  0  0  0  0  0  0  0  0
   55.3746   29.7734   54.4832 C   0  0  0  0  0  0  0  0  0  0  0  0
   54.6553   30.2433   53.3892 C   0  0  0  0  0  0  0  0  0  0  0  0
   55.7533   30.8118   52.2473 S   0  0  0  0  0  0  0  0  0  0  0  0
   60.2131   32.1174   51.5670 C   0  0  0  0  0  0  0  0  0  0  0  0
   58.8934   31.8892   52.0051 C   0  0  0  0  0  0  0  0  0  0  0  0
   58.5423   30.6851   52.6466 C   0  0  0  0  0  0  0  0  0  0  0  0
   59.5342   29.7072   52.8372 C   0  0  0  0  0  0  0  0  0  0  0  0
   60.8420   29.9294   52.4049 C   0  0  0  0  0  0  0  0  0  0  0  0
   61.1870   31.1263   51.7744 C   0  0  0  0  0  0  0  0  0  0  0  0
   62.5054   31.3114   51.3581 O   0  0  0  0  0  0  0  0  0  0  0  0
   63.1417   30.6394   51.5048 H   0  0  0  0  0  0  0  0  0  0  0  0
   60.2099   33.6713   49.6023 C   0  0  0  0  0  0  0  0  0  0  0  0
   60.5889   33.3100   50.9267 O   0  0  0  0  0  0  0  0  0  0  0  0
   53.1846   30.3290   53.3067 C   0  0  0  0  0  0  0  0  0  0  0  0
   52.5102   30.3041   54.3704 O   0  0  0  0  0  0  0  0  0  0  0  0
   52.4743   30.4764   52.0242 C   0  0  0  0  0  0  0  0  0  0  0  0
   52.6336   29.6311   50.9885 N   0  0  0  0  0  0  0  0  0  0  0  0
   51.8488   30.1607   50.0255 C   0  0  0  0  0  0  0  0  0  0  0  0
   51.7256   29.6358   48.8878 O   0  0  0  0  0  0  0  0  0  0  0  0
   51.2153   31.2995   50.3736 N   0  0  0  0  0  0  0  0  0  0  0  0
   51.6265   31.4924   51.6375 C   0  0  0  0  0  0  0  0  0  0  0  0
   51.2712   32.5991   52.3977 O   0  0  0  0  0  0  0  0  0  0  0  0
 14 15  1  0
 15  6  1  0
  6  7  2  0
  7  8  1  0
  8  1  1  0
  1  2  2  0
  2  3  1  0
  3  4  2  0
  4 16  1  0
 16 17  2  0
 16 18  1  0
 18 19  1  0
 19 20  1  0
 20 21  2  0
 20 22  1  0
 22 23  1  0
 23 24  1  0
  4  5  1  0
  8  9  2  0
  9 10  1  0
 10 11  2  0
 11 12  1  0
 11  6  1  0
  5  1  1  0
 23 18  2  0
 12 13  1  0
M  CHG 1  19  -1
M  CHG 1  22  -1
M  CHG 1  24  -1
M  END
> <UniqueID>
7

> <SMILES>
COc1cc(-c2ccc(C(=O)c3[n-]c(=O)[n-]c3[O-])s2)ccc1O

> <Energy>
96.23172115525865

> <Genealogy>
COc1cc(-c2ccc(C(=O)c3[n-]c(=O)[n-]c3[O-])s2)ccc1O (protonated)
COc1cc(-c2ccc(C(=O)c3[n-]c(=O)[n-]c3[O-])s2)ccc1O (3D coordinates assigned)
COc1cc(-c2ccc(C(=O)c3[n-]c(=O)[n-]c3[O-])s2)ccc1O (optimized conformer: 96.23172115525865 kcal/mol)

> <smiles>
COc1cc(-c2ccc(C(=O)c3[nH]c(=O)[nH]c3O)s2)ccc1O

> <score_type>
oracle

> <origin>
adg

> <m_score__min__energy>
-14.74

> <m_primary>
energy

> <minimizedAffinity>
-4.16695

> <minimizedRMSD>
1.17103

> <CNNscore>
0.2320113033

> <CNNaffinity>
4.7157168388

> <CNN_VS>
1.0940996408

> <CNNaffinity_variance>
0.0100587495

$$$$
49:0


 32 34  0  0  0  0  0  0  0  0999 V2000
   60.5641   31.7076   49.2185 S   0  0  0  0  0  0  0  0  0  0  0  0
   60.8250   31.4873   50.6822 O   0  0  0  0  0  0  0  0  0  0  0  0
   61.7369   32.4450   48.6390 O   0  0  0  0  0  0  0  0  0  0  0  0
   60.4080   30.1544   48.3975 C   0  0  0  0  0  0  0  0  0  0  0  0
   60.6164   30.0699   47.0158 C   0  0  0  0  0  0  0  0  0  0  0  0
   60.4974   28.8414   46.3601 C   0  0  0  0  0  0  0  0  0  0  0  0
   60.1657   27.6806   47.0777 C   0  0  0  0  0  0  0  0  0  0  0  0
   59.9311   27.7766   48.4612 C   0  0  0  0  0  0  0  0  0  0  0  0
   60.0562   29.0050   49.1158 C   0  0  0  0  0  0  0  0  0  0  0  0
   60.0413   26.3771   46.3874 C   0  0  0  0  0  0  0  0  0  0  0  0
   61.0791   25.7846   45.9836 O   0  0  0  0  0  0  0  0  0  0  0  0
   58.7550   25.7688   46.1788 N   0  0  0  0  0  0  0  0  0  0  0  0
   57.7164   26.5083   45.4579 C   0  0  0  0  0  0  0  0  0  0  0  0
   56.3377   25.9737   45.8585 C   0  0  0  0  0  0  0  0  0  0  0  0
   56.2755   24.5704   45.6806 O   0  0  0  0  0  0  0  0  0  0  0  0
   57.1788   23.9336   46.5658 C   0  0  0  0  0  0  0  0  0  0  0  0
   58.6292   24.3109   46.2370 C   0  0  0  0  0  0  0  0  0  0  0  0
   59.1312   32.6759   49.0146 N   0  0  0  0  0  0  0  0  0  0  0  0
   59.3774   33.8328   48.1515 C   0  0  0  0  0  0  0  0  0  0  0  0
   58.2010   32.7263   46.1829 N   0  0  0  0  0  0  0  0  0  0  0  0
   59.3255   33.4570   46.7004 C   0  0  0  0  0  0  0  0  0  0  0  0
   60.2875   33.7722   45.9486 O   0  0  0  0  0  0  0  0  0  0  0  0
   57.4909   32.4564   46.8091 H   0  0  0  0  0  0  0  0  0  0  0  0
   57.4157   31.2296   44.3030 C   0  0  0  0  0  0  0  0  0  0  0  0
   57.3353   31.2284   42.8966 C   0  0  0  0  0  0  0  0  0  0  0  0
   57.8990   32.3475   42.2958 C   0  0  0  0  0  0  0  0  0  0  0  0
   58.4999   33.3525   43.5002 S   0  0  0  0  0  0  0  0  0  0  0  0
   58.0608   32.3698   44.7984 C   0  0  0  0  0  0  0  0  0  0  0  0
   55.6902   29.4596   44.7714 N   0  0  0  0  0  0  0  0  0  0  0  0
   56.9104   30.1088   45.1252 C   0  0  0  0  0  0  0  0  0  0  0  0
   57.5598   29.6982   46.1256 O   0  0  0  0  0  0  0  0  0  0  0  0
   55.3530   28.7135   45.3181 H   0  0  0  0  0  0  0  0  0  0  0  0
 29 30  1  0
 30 31  2  0
 30 24  1  0
 24 25  1  0
 25 26  2  0
 26 27  1  0
 27 28  1  0
 28 20  1  0
 20 21  1  0
 21 22  2  0
 21 19  1  0
 19 18  1  0
 18  1  1  0
  1  2  2  0
  1  3  2  0
  1  4  1  0
  4  5  2  0
  5  6  1  0
  6  7  2  0
  7 10  1  0
 10 11  2  0
 10 12  1  0
 12 13  1  0
 13 14  1  0
 14 15  1  0
 15 16  1  0
 16 17  1  0
  7  8  1  0
  8  9  2  0
 28 24  2  0
  9  4  1  0
 17 12  1  0
 29 32  1  0
 20 23  1  0
M  CHG 1  18  -1
M  CHG 1  29  -1
M  END
> <UniqueID>
45

> <SMILES>
[NH-]C(=O)c1ccsc1NC(=O)C[N-]S(=O)(=O)c1ccc(C(=O)N2CCOCC2)cc1

> <Energy>
82.41695564575718

> <Genealogy>
[NH-]C(=O)c1ccsc1NC(=O)C[N-]S(=O)(=O)c1ccc(C(=O)N2CCOCC2)cc1 (protonated)
[NH-]C(=O)c1ccsc1NC(=O)C[N-]S(=O)(=O)c1ccc(C(=O)N2CCOCC2)cc1 (3D coordinates assigned)
[NH-]C(=O)c1ccsc1NC(=O)C[N-]S(=O)(=O)c1ccc(C(=O)N2CCOCC2)cc1 (nonaromatic ring conformer: 82.41695564575718 kcal/mol)

> <smiles>
NC(=O)c1ccsc1NC(=O)CNS(=O)(=O)c1ccc(C(=O)N2CCOCC2)cc1

> <score_type>
oracle

> <origin>
adg

> <m_score__min__energy>
-14.390000000000001

> <m_primary>
energy

> <minimizedAffinity>
-5.64623

> <minimizedRMSD>
1.12759

> <CNNscore>
0.6430883408

> <CNNaffinity>
7.0236945152

> <CNN_VS>
4.5168561935

> <CNNaffinity_variance>
0.2188256532

$$$$
68:0


 26 28  0  0  0  0  0  0  0  0999 V2000
   59.3556   34.7219   46.8276 C   0  0  0  0  0  0  0  0  0  0  0  0
   60.5217   34.3514   47.4164 N   0  0  0  0  0  0  0  0  0  0  0  0
   60.9815   33.0717   47.3633 C   0  0  0  0  0  0  0  0  0  0  0  0
   62.1010   32.7231   47.9318 N   0  0  0  0  0  0  0  0  0  0  0  0
   60.2353   32.1003   46.6827 C   0  0  0  0  0  0  0  0  0  0  0  0
   59.0203   32.4475   46.0645 C   0  0  0  0  0  0  0  0  0  0  0  0
   58.5853   33.7826   46.1412 C   0  0  0  0  0  0  0  0  0  0  0  0
   62.7195   33.2587   49.1147 C   0  0  0  0  0  0  0  0  0  0  0  0
   64.0737   32.5231   49.6722 S   0  0  0  0  0  0  0  0  0  0  0  0
   62.1908   34.3996   49.8092 N   0  0  0  0  0  0  0  0  0  0  0  0
   61.3775   34.8443   49.4776 H   0  0  0  0  0  0  0  0  0  0  0  0
   62.6417   34.7367   50.6168 H   0  0  0  0  0  0  0  0  0  0  0  0
   62.3193   33.5732   50.3287 H   0  0  0  0  0  0  0  0  0  0  0  0
   58.2361   31.4119   45.3434 C   0  0  0  0  0  0  0  0  0  0  0  0
   57.7706   30.3035   45.9840 N   0  0  0  0  0  0  0  0  0  0  0  0
   57.0685   29.4981   45.1577 C   0  0  0  0  0  0  0  0  0  0  0  0
   56.5467   28.3629   45.5143 N   0  0  0  0  0  0  0  0  0  0  0  0
   57.0029   30.1025   43.5970 S   0  0  0  0  0  0  0  0  0  0  0  0
   57.8984   31.4734   43.9853 C   0  0  0  0  0  0  0  0  0  0  0  0
   57.2866   27.1574   45.7676 C   0  0  0  0  0  0  0  0  0  0  0  0
   58.6811   27.1848   45.6365 C   0  0  0  0  0  0  0  0  0  0  0  0
   59.4351   26.0302   45.8637 C   0  0  0  0  0  0  0  0  0  0  0  0
   58.7993   24.8340   46.2051 C   0  0  0  0  0  0  0  0  0  0  0  0
   57.4058   24.7878   46.3041 C   0  0  0  0  0  0  0  0  0  0  0  0
   56.6438   25.9375   46.0720 C   0  0  0  0  0  0  0  0  0  0  0  0
   55.2573   25.8513   46.1141 O   0  0  0  0  0  0  0  0  0  0  0  0
  1  2  1  0
  2  3  1  0
  3  4  2  0
  4  8  1  0
  8  9  2  0
  8 10  1  0
  3  5  1  0
  5  6  2  0
  6 14  1  0
 14 15  1  0
 15 16  1  0
 16 17  2  0
 17 20  1  0
 20 21  2  0
 21 22  1  0
 22 23  2  0
 23 24  1  0
 24 25  2  0
 25 26  1  0
 16 18  1  0
 18 19  1  0
  6  7  1  0
  7  1  2  0
 19 14  2  0
 25 20  1  0
 10 11  1  0
 10 12  1  0
 10 13  1  0
M  CHG 1   2  -1
M  CHG 1  10   1
M  CHG 1  15  -1
M  CHG 1  26  -1
M  END
> <UniqueID>
62

> <SMILES>
[NH3+]C(=S)/N=c1/cc(-c2csc(=Nc3ccccc3[O-])[n-]2)cc[n-]1

> <Energy>
80.78979390493666

> <Genealogy>
[NH3+]C(=S)N=c1cc(-c2csc(=Nc3ccccc3[O-])[n-]2)cc[n-]1 (protonated)
[NH3+]C(=S)/N=c1/cc(-c2csc(=Nc3ccccc3[O-])[n-]2)cc[n-]1 (cis-trans isomerization)
[NH3+]C(=S)/N=c1/cc(-c2csc(=Nc3ccccc3[O-])[n-]2)cc[n-]1 (3D coordinates assigned)
[NH3+]C(=S)/N=c1/cc(-c2csc(=Nc3ccccc3[O-])[n-]2)cc[n-]1 (optimized conformer: 80.78979390493666 kcal/mol)

> <smiles>
NC(=S)N=c1cc(-c2csc(=Nc3ccccc3O)[nH]2)cc[nH]1

> <score_type>
oracle

> <origin>
adg

> <m_score__min__energy>
-14.32

> <m_primary>
energy

> <minimizedAffinity>
-7.47901

> <minimizedRMSD>
0.81210

> <CNNscore>
0.3158418834

> <CNNaffinity>
6.1918983459

> <CNN_VS>
1.9556608200

> <CNNaffinity_variance>
0.0300188214

$$$$
4:0


 30 32  0  0  0  0  0  0  0  0999 V2000
   57.7550   30.0845   51.6109 N   0  0  0  0  0  0  0  0  0  0  0  0
   58.7087   30.3333   50.7597 C   0  0  0  0  0  0  0  0  0  0  0  0
   58.6423   29.7628   49.5267 N   0  0  0  0  0  0  0  0  0  0  0  0
   59.5910   29.9592   48.5663 C   0  0  0  0  0  0  0  0  0  0  0  0
   60.6814   30.7987   48.8496 C   0  0  0  0  0  0  0  0  0  0  0  0
   60.7794   31.4004   50.1048 C   0  0  0  0  0  0  0  0  0  0  0  0
   59.7969   31.1711   51.0680 C   0  0  0  0  0  0  0  0  0  0  0  0
   59.4328   29.2978   47.2455 C   0  0  0  0  0  0  0  0  0  0  0  0
   60.4301   29.3898   46.2583 C   0  0  0  0  0  0  0  0  0  0  0  0
   60.2665   28.7546   45.0262 C   0  0  0  0  0  0  0  0  0  0  0  0
   59.1131   28.0122   44.7677 C   0  0  0  0  0  0  0  0  0  0  0  0
   58.1113   27.8869   45.7410 C   0  0  0  0  0  0  0  0  0  0  0  0
   58.2775   28.5405   46.9773 C   0  0  0  0  0  0  0  0  0  0  0  0
   56.9390   27.1081   45.4399 N   0  0  0  0  0  0  0  0  0  0  0  0
   56.2280   27.5359   44.9101 H   0  0  0  0  0  0  0  0  0  0  0  0
   56.6927   25.4650   45.9472 S   0  0  0  0  0  0  0  0  0  0  0  0
   55.2325   25.2606   46.2341 O   0  0  0  0  0  0  0  0  0  0  0  0
   57.4746   25.1899   47.1991 O   0  0  0  0  0  0  0  0  0  0  0  0
   57.1751   24.3418   44.6515 C   0  0  0  0  0  0  0  0  0  0  0  0
   57.0234   31.0715   52.4013 C   0  0  0  0  0  0  0  0  0  0  0  0
   53.2930   30.3006   52.1356 C   0  0  0  0  0  0  0  0  0  0  0  0
   53.1193   29.4652   53.2539 C   0  0  0  0  0  0  0  0  0  0  0  0
   54.2008   29.1609   54.0848 C   0  0  0  0  0  0  0  0  0  0  0  0
   55.4637   29.6873   53.8146 C   0  0  0  0  0  0  0  0  0  0  0  0
   55.6549   30.5363   52.7150 C   0  0  0  0  0  0  0  0  0  0  0  0
   54.5705   30.8291   51.8716 C   0  0  0  0  0  0  0  0  0  0  0  0
   51.3113   31.7405   51.5170 N   0  0  0  0  0  0  0  0  0  0  0  0
   52.1502   30.6191   51.2460 C   0  0  0  0  0  0  0  0  0  0  0  0
   51.9078   29.8998   50.2398 O   0  0  0  0  0  0  0  0  0  0  0  0
   50.5547   31.9446   50.9211 H   0  0  0  0  0  0  0  0  0  0  0  0
 27 28  1  0
 28 29  2  0
 28 21  1  0
 21 22  2  0
 22 23  1  0
 23 24  2  0
 24 25  1  0
 25 20  1  0
 20  1  1  0
  1  2  2  0
  2  3  1  0
  3  4  1  0
  4  8  1  0
  8  9  2  0
  9 10  1  0
 10 11  2  0
 11 12  1  0
 12 14  1  0
 14 16  1  0
 16 17  2  0
 16 18  2  0
 16 19  1  0
 12 13  2  0
  4  5  2  0
  5  6  1  0
  6  7  2  0
 25 26  2  0
 26 21  1  0
  7  2  1  0
 13  8  1  0
 27 30  1  0
 14 15  1  0
M  CHG 1   3  -1
M  CHG 1  27  -1
M  END
> <UniqueID>
5

> <SMILES>
CS(=O)(=O)Nc1cccc(-c2ccc/c(=N\Cc3cccc(C([NH-])=O)c3)[n-]2)c1

> <Energy>
52.50923607300798

> <Genealogy>
CS(=O)(=O)Nc1cccc(-c2cccc(=NCc3cccc(C([NH-])=O)c3)[n-]2)c1 (protonated)
CS(=O)(=O)Nc1cccc(-c2ccc/c(=N\Cc3cccc(C([NH-])=O)c3)[n-]2)c1 (cis-trans isomerization)
CS(=O)(=O)Nc1cccc(-c2ccc/c(=N\Cc3cccc(C([NH-])=O)c3)[n-]2)c1 (3D coordinates assigned)
CS(=O)(=O)Nc1cccc(-c2ccc/c(=N\Cc3cccc(C([NH-])=O)c3)[n-]2)c1 (optimized conformer: 52.50923607300798 kcal/mol)

> <smiles>
CS(=O)(=O)Nc1cccc(-c2cccc(=NCc3cccc(C(N)=O)c3)[nH]2)c1

> <score_type>
oracle

> <origin>
adg

> <m_score__min__energy>
-15

> <m_primary>
energy

> <minimizedAffinity>
-8.46938

> <minimizedRMSD>
1.16484

> <CNNscore>
0.7885698080

> <CNNaffinity>
6.5619311333

> <CNN_VS>
5.1745409966

> <CNNaffinity_variance>
0.0615091063

$$$$
70:0


 32 35  0  0  0  0  0  0  0  0999 V2000
   56.3359   28.6094   44.8340 C   0  0  0  0  0  0  0  0  0  0  0  0
   57.6214   28.2459   44.9705 C   0  0  0  0  0  0  0  0  0  0  0  0
   58.1515   26.9436   44.9497 C   0  0  0  0  0  0  0  0  0  0  0  0
   57.5748   25.7519   44.6949 C   0  0  0  0  0  0  0  0  0  0  0  0
   59.5013   27.0704   45.2382 C   0  0  0  0  0  0  0  0  0  0  0  0
   59.7564   28.4164   45.3874 C   0  0  0  0  0  0  0  0  0  0  0  0
   61.1046   29.0035   45.6767 C   0  0  0  0  0  0  0  0  0  0  0  0
   58.6234   29.1310   45.2166 N   0  0  0  0  0  0  0  0  0  0  0  0
   57.1094   24.7873   45.7073 C   0  0  0  0  0  0  0  0  0  0  0  0
   55.8545   24.9307   46.3255 C   0  0  0  0  0  0  0  0  0  0  0  0
   55.0358   26.0125   46.0244 O   0  0  0  0  0  0  0  0  0  0  0  0
   55.4331   24.0034   47.2248 N   0  0  0  0  0  0  0  0  0  0  0  0
   56.1980   22.9247   47.5277 C   0  0  0  0  0  0  0  0  0  0  0  0
   55.6655   21.8295   48.6136 S   0  0  0  0  0  0  0  0  0  0  0  0
   57.4010   22.7494   46.9231 N   0  0  0  0  0  0  0  0  0  0  0  0
   57.8682   23.6484   46.0179 C   0  0  0  0  0  0  0  0  0  0  0  0
   58.9853   23.4523   45.4703 O   0  0  0  0  0  0  0  0  0  0  0  0
   58.5153   30.5610   45.3374 C   0  0  0  0  0  0  0  0  0  0  0  0
   58.0912   31.3298   44.2462 C   0  0  0  0  0  0  0  0  0  0  0  0
   57.9695   32.7152   44.3710 C   0  0  0  0  0  0  0  0  0  0  0  0
   58.2645   33.3406   45.5857 C   0  0  0  0  0  0  0  0  0  0  0  0
   58.6875   32.5826   46.6939 C   0  0  0  0  0  0  0  0  0  0  0  0
   58.8071   31.1862   46.5579 C   0  0  0  0  0  0  0  0  0  0  0  0
   58.9960   33.2408   47.9866 C   0  0  0  0  0  0  0  0  0  0  0  0
   58.3147   32.9569   49.0085 O   0  0  0  0  0  0  0  0  0  0  0  0
   60.1238   34.1294   48.0847 N   0  0  0  0  0  0  0  0  0  0  0  0
   61.3692   33.8530   48.3562 C   0  0  0  0  0  0  0  0  0  0  0  0
   61.7962   34.0161   49.6390 N   0  0  0  0  0  0  0  0  0  0  0  0
   63.0721   33.7474   50.0239 C   0  0  0  0  0  0  0  0  0  0  0  0
   63.9974   33.2802   49.0919 C   0  0  0  0  0  0  0  0  0  0  0  0
   63.5944   33.0826   47.7728 C   0  0  0  0  0  0  0  0  0  0  0  0
   62.2788   33.3621   47.3942 C   0  0  0  0  0  0  0  0  0  0  0  0
  1  2  2  0
  2  3  1  0
  3  4  2  0
  4  9  1  0
  9 10  2  0
 10 11  1  0
 10 12  1  0
 12 13  1  0
 13 14  2  0
 13 15  1  0
 15 16  1  0
 16 17  2  0
  3  5  1  0
  5  6  2  0
  6  7  1  0
  6  8  1  0
  8 18  1  0
 18 19  2  0
 19 20  1  0
 20 21  2  0
 21 22  1  0
 22 24  1  0
 24 25  2  0
 24 26  1  0
 26 27  2  0
 27 28  1  0
 28 29  1  0
 29 30  2  0
 30 31  1  0
 31 32  2  0
 22 23  2  0
  8  2  1  0
 23 18  1  0
 16  9  1  0
 32 27  1  0
M  CHG 1  11  -1
M  CHG 1  12  -1
M  CHG 1  15  -1
M  CHG 1  28  -1
M  END
> <UniqueID>
69

> <SMILES>
C=c1/c(=C\c2c([O-])[n-]c(=S)[n-]c2=O)cc(C)n1-c1cccc(C(=O)N=c2cccc[n-]2)c1

> <Energy>
110.09641133845506

> <Genealogy>
C=c1c(=Cc2c([O-])[n-]c(=S)[n-]c2=O)cc(C)n1-c1cccc(C(=O)N=c2cccc[n-]2)c1 (protonated)
C=c1/c(=C\c2c([O-])[n-]c(=S)[n-]c2=O)cc(C)n1-c1cccc(C(=O)N=c2cccc[n-]2)c1 (cis-trans isomerization)
C=c1/c(=C\c2c([O-])[n-]c(=S)[n-]c2=O)cc(C)n1-c1cccc(C(=O)N=c2cccc[n-]2)c1 (3D coordinates assigned)
C=c1/c(=C\c2c([O-])[n-]c(=S)[n-]c2=O)cc(C)n1-c1cccc(C(=O)N=c2cccc[n-]2)c1 (optimized conformer: 110.09641133845506 kcal/mol)

> <smiles>
C=c1c(=Cc2c(O)[nH]c(=S)[nH]c2=O)cc(C)n1-c1cccc(C(=O)N=c2cccc[nH]2)c1

> <score_type>
oracle

> <origin>
adg

> <m_score__min__energy>
-17.760000000000002

> <m_primary>
energy

> <minimizedAffinity>
-8.69086

> <minimizedRMSD>
0.53949

> <CNNscore>
0.2820202410

> <CNNaffinity>
7.0700602531

> <CNN_VS>
1.9939000607

> <CNNaffinity_variance>
0.0110095320

$$$$
84:0


 30 32  0  0  0  0  0  0  0  0999 V2000
   58.6619   27.5870   46.8854 N   0  0  0  0  0  0  0  0  0  0  0  0
   58.1603   28.6374   46.2033 C   0  0  0  0  0  0  0  0  0  0  0  0
   56.9027   28.3113   45.7275 C   0  0  0  0  0  0  0  0  0  0  0  0
   56.6558   27.0044   46.1041 C   0  0  0  0  0  0  0  0  0  0  0  0
   55.5453   26.2323   45.7836 O   0  0  0  0  0  0  0  0  0  0  0  0
   57.7553   26.5919   46.8226 C   0  0  0  0  0  0  0  0  0  0  0  0
   57.9359   25.3347   47.3914 O   0  0  0  0  0  0  0  0  0  0  0  0
   57.2661   24.6842   47.3127 H   0  0  0  0  0  0  0  0  0  0  0  0
   60.2175   27.5067   47.6398 S   0  0  0  0  0  0  0  0  0  0  0  0
   60.1249   26.7309   48.9247 O   0  0  0  0  0  0  0  0  0  0  0  0
   61.1808   26.8002   46.7272 O   0  0  0  0  0  0  0  0  0  0  0  0
   61.6044   31.7627   48.5677 C   0  0  0  0  0  0  0  0  0  0  0  0
   61.3656   31.3707   47.2411 C   0  0  0  0  0  0  0  0  0  0  0  0
   60.9444   30.0691   46.9533 C   0  0  0  0  0  0  0  0  0  0  0  0
   60.7758   29.1380   47.9866 C   0  0  0  0  0  0  0  0  0  0  0  0
   61.0284   29.5206   49.3106 C   0  0  0  0  0  0  0  0  0  0  0  0
   61.4505   30.8223   49.5985 C   0  0  0  0  0  0  0  0  0  0  0  0
   62.0608   33.1305   48.8843 C   0  0  0  0  0  0  0  0  0  0  0  0
   63.2963   33.3674   48.9233 O   0  0  0  0  0  0  0  0  0  0  0  0
   59.7220   34.1750   48.8752 C   0  0  0  0  0  0  0  0  0  0  0  0
   61.1451   34.1910   49.1857 N   0  0  0  0  0  0  0  0  0  0  0  0
   56.0946   29.1524   44.8955 N   0  0  0  0  0  0  0  0  0  0  0  0
   56.5882   30.0784   43.9206 C   0  0  0  0  0  0  0  0  0  0  0  0
   56.5087   29.7699   42.7023 O   0  0  0  0  0  0  0  0  0  0  0  0
   57.2515   31.3412   44.3157 C   0  0  0  0  0  0  0  0  0  0  0  0
   57.9223   32.1316   43.3667 C   0  0  0  0  0  0  0  0  0  0  0  0
   58.5476   33.3117   43.7736 C   0  0  0  0  0  0  0  0  0  0  0  0
   58.5064   33.6930   45.1152 C   0  0  0  0  0  0  0  0  0  0  0  0
   57.8404   32.8816   46.0346 C   0  0  0  0  0  0  0  0  0  0  0  0
   57.2378   31.7354   45.6196 N   0  0  0  0  0  0  0  0  0  0  0  0
 20 21  1  0
 21 18  1  0
 18 19  2  0
 18 12  1  0
 12 13  2  0
 13 14  1  0
 14 15  2  0
 15  9  1  0
  9 10  2  0
  9 11  2  0
  9  1  1  0
  1  2  1  0
  2  3  2  0
  3 22  1  0
 22 23  1  0
 23 24  2  0
 23 25  1  0
 25 26  2  0
 26 27  1  0
 27 28  2  0
 28 29  1  0
 29 30  2  0
  3  4  1  0
  4  5  1  0
  4  6  2  0
  6  7  1  0
 15 16  1  0
 16 17  2  0
 17 12  1  0
  6  1  1  0
 30 25  1  0
  7  8  1  0
M  CHG 1   5  -1
M  CHG 1  21  -1
M  CHG 1  22  -1
M  END
> <UniqueID>
83

> <SMILES>
C[N-]C(=O)c1ccc(S(=O)(=O)n2cc([N-]C(=O)c3ccccn3)c([O-])c2O)cc1

> <Energy>
85.73321818967113

> <Genealogy>
C[N-]C(=O)c1ccc(S(=O)(=O)n2cc([N-]C(=O)c3ccccn3)c([O-])c2O)cc1 (protonated)
C[N-]C(=O)c1ccc(S(=O)(=O)n2cc([N-]C(=O)c3ccccn3)c([O-])c2O)cc1 (3D coordinates assigned)
C[N-]C(=O)c1ccc(S(=O)(=O)n2cc([N-]C(=O)c3ccccn3)c([O-])c2O)cc1 (optimized conformer: 85.73321818967113 kcal/mol)

> <smiles>
CNC(=O)c1ccc(S(=O)(=O)n2cc(NC(=O)c3ccccn3)c(O)c2O)cc1

> <score_type>
oracle

> <origin>
adg

> <m_score__min__energy>
-14.470000000000001

> <m_primary>
energy

> <minimizedAffinity>
-5.41794

> <minimizedRMSD>
0.68113

> <CNNscore>
0.6418250799

> <CNNaffinity>
6.3879017830

> <CNN_VS>
4.0999155045

> <CNNaffinity_variance>
0.0339355879

$$$$
93:0


 27 29  0  0  0  0  0  0  0  0999 V2000
   58.5397   27.3299   45.3868 C   0  0  0  0  0  0  0  0  0  0  0  0
   58.7630   28.1135   46.5321 C   0  0  0  0  0  0  0  0  0  0  0  0
   58.3381   29.4437   46.5668 C   0  0  0  0  0  0  0  0  0  0  0  0
   57.6886   30.0123   45.4672 C   0  0  0  0  0  0  0  0  0  0  0  0
   57.4193   29.2170   44.3352 C   0  0  0  0  0  0  0  0  0  0  0  0
   56.4747   29.8302   42.9840 Cl  0  0  0  0  0  0  0  0  0  0  0  0
   57.8445   27.8838   44.3039 C   0  0  0  0  0  0  0  0  0  0  0  0
   58.9378   25.9534   45.3167 N   0  0  0  0  0  0  0  0  0  0  0  0
   58.1635   24.2408   46.7192 O   0  0  0  0  0  0  0  0  0  0  0  0
   58.1138   24.8141   45.5971 C   0  0  0  0  0  0  0  0  0  0  0  0
   57.1934   24.2958   44.5402 C   0  0  0  0  0  0  0  0  0  0  0  0
   55.9720   23.7088   45.1726 C   0  0  0  0  0  0  0  0  0  0  0  0
   55.6548   22.4017   45.1322 N   0  0  0  0  0  0  0  0  0  0  0  0
   54.4590   22.3550   45.7601 C   0  0  0  0  0  0  0  0  0  0  0  0
   53.8274   21.2788   45.9321 O   0  0  0  0  0  0  0  0  0  0  0  0
   53.9927   23.5485   46.1845 N   0  0  0  0  0  0  0  0  0  0  0  0
   54.9601   24.3953   45.7987 C   0  0  0  0  0  0  0  0  0  0  0  0
   54.9160   25.7677   46.0080 O   0  0  0  0  0  0  0  0  0  0  0  0
   57.2911   31.3514   45.5422 O   0  0  0  0  0  0  0  0  0  0  0  0
   58.1423   32.4316   45.2735 C   0  0  0  0  0  0  0  0  0  0  0  0
   58.2944   32.8328   44.0859 O   0  0  0  0  0  0  0  0  0  0  0  0
   58.8644   33.0613   46.3485 N   0  0  0  0  0  0  0  0  0  0  0  0
   58.5473   32.7053   47.7353 C   0  0  0  0  0  0  0  0  0  0  0  0
   59.7302   33.0260   48.6536 C   0  0  0  0  0  0  0  0  0  0  0  0
   60.1738   34.3540   48.4575 O   0  0  0  0  0  0  0  0  0  0  0  0
   60.7057   34.4855   47.1538 C   0  0  0  0  0  0  0  0  0  0  0  0
   59.6126   34.2998   46.0978 C   0  0  0  0  0  0  0  0  0  0  0  0
  9 10  2  0
 10 11  1  0
 11 12  1  0
 12 13  1  0
 13 14  1  0
 14 15  2  0
 14 16  1  0
 16 17  1  0
 17 18  1  0
 10  8  1  0
  8  1  1  0
  1  2  2  0
  2  3  1  0
  3  4  2  0
  4 19  1  0
 19 20  1  0
 20 21  2  0
 20 22  1  0
 22 23  1  0
 23 24  1  0
 24 25  1  0
 25 26  1  0
 26 27  1  0
  4  5  1  0
  5  6  1  0
  5  7  2  0
 17 12  2  0
  7  1  1  0
 27 22  1  0
M  CHG 1   8  -1
M  CHG 1  13  -1
M  CHG 1  16  -1
M  CHG 1  18  -1
M  END
> <UniqueID>
90

> <SMILES>
O=C(Cc1[n-]c(=O)[n-]c1[O-])[N-]c1ccc(OC(=O)N2CCOCC2)c(Cl)c1

> <Energy>
79.93036215972613

> <Genealogy>
O=C(Cc1[n-]c(=O)[n-]c1[O-])[N-]c1ccc(OC(=O)N2CCOCC2)c(Cl)c1 (protonated)
O=C(Cc1[n-]c(=O)[n-]c1[O-])[N-]c1ccc(OC(=O)N2CCOCC2)c(Cl)c1 (3D coordinates assigned)
O=C(Cc1[n-]c(=O)[n-]c1[O-])[N-]c1ccc(OC(=O)N2CCOCC2)c(Cl)c1 (nonaromatic ring conformer: 79.93036215972613 kcal/mol)

> <smiles>
O=C(Cc1[nH]c(=O)[nH]c1O)Nc1ccc(OC(=O)N2CCOCC2)c(Cl)c1

> <score_type>
oracle

> <origin>
adg

> <m_score__min__energy>
-17.640000000000001

> <m_primary>
energy

> <minimizedAffinity>
-7.40780

> <minimizedRMSD>
1.10965

> <CNNscore>
0.1129582673

> <CNNaffinity>
5.6955399513

> <CNN_VS>
0.6433583498

> <CNNaffinity_variance>
0.0580356903

$$$$
17:0


 23 25  0  0  0  0  0  0  0  0999 V2000
   56.6391   29.1626   44.5388 C   0  0  0  0  0  0  0  0  0  0  0  0
   57.7871   28.8134   45.1418 C   0  0  0  0  0  0  0  0  0  0  0  0
   58.2850   27.5137   45.3396 C   0  0  0  0  0  0  0  0  0  0  0  0
   57.8698   26.3227   44.8624 C   0  0  0  0  0  0  0  0  0  0  0  0
   59.3835   27.6415   46.1737 C   0  0  0  0  0  0  0  0  0  0  0  0
   59.5555   28.9908   46.4048 C   0  0  0  0  0  0  0  0  0  0  0  0
   60.6458   29.5756   47.2508 C   0  0  0  0  0  0  0  0  0  0  0  0
   58.5901   29.7029   45.7824 N   0  0  0  0  0  0  0  0  0  0  0  0
   57.3451   25.2072   45.6731 C   0  0  0  0  0  0  0  0  0  0  0  0
   56.0717   25.2937   46.2530 C   0  0  0  0  0  0  0  0  0  0  0  0
   55.2676   26.4064   46.0330 O   0  0  0  0  0  0  0  0  0  0  0  0
   55.6111   24.2804   47.0319 N   0  0  0  0  0  0  0  0  0  0  0  0
   56.3702   23.1823   47.2752 C   0  0  0  0  0  0  0  0  0  0  0  0
   55.7881   21.9805   48.2124 S   0  0  0  0  0  0  0  0  0  0  0  0
   57.6181   23.0874   46.7483 N   0  0  0  0  0  0  0  0  0  0  0  0
   58.1247   24.0735   45.9642 C   0  0  0  0  0  0  0  0  0  0  0  0
   59.2945   23.9627   45.5099 O   0  0  0  0  0  0  0  0  0  0  0  0
   58.4455   31.1337   45.8208 C   0  0  0  0  0  0  0  0  0  0  0  0
   58.1860   31.8483   44.6402 C   0  0  0  0  0  0  0  0  0  0  0  0
   58.0539   33.2391   44.6751 C   0  0  0  0  0  0  0  0  0  0  0  0
   58.1809   33.9253   45.8865 C   0  0  0  0  0  0  0  0  0  0  0  0
   58.4404   33.2187   47.0661 C   0  0  0  0  0  0  0  0  0  0  0  0
   58.5739   31.8280   47.0341 C   0  0  0  0  0  0  0  0  0  0  0  0
  1  2  2  0
  2  3  1  0
  3  4  2  0
  4  9  1  0
  9 10  2  0
 10 11  1  0
 10 12  1  0
 12 13  1  0
 13 14  2  0
 13 15  1  0
 15 16  1  0
 16 17  2  0
  3  5  1  0
  5  6  2  0
  6  7  1  0
  6  8  1  0
  8 18  1  0
 18 19  2  0
 19 20  1  0
 20 21  2  0
 21 22  1  0
 22 23  2  0
  8  2  1  0
 23 18  1  0
 16  9  1  0
M  CHG 1  11  -1
M  CHG 1  12  -1
M  CHG 1  15  -1
M  END
> <UniqueID>
15

> <SMILES>
C=c1/c(=C\c2c([O-])[n-]c(=S)[n-]c2=O)cc(C)n1-c1ccccc1

> <Energy>
86.41252462677312

> <Genealogy>
C=c1c(=Cc2c([O-])[n-]c(=S)[n-]c2=O)cc(C)n1-c1ccccc1 (protonated)
C=c1/c(=C\c2c([O-])[n-]c(=S)[n-]c2=O)cc(C)n1-c1ccccc1 (cis-trans isomerization)
C=c1/c(=C\c2c([O-])[n-]c(=S)[n-]c2=O)cc(C)n1-c1ccccc1 (3D coordinates assigned)
C=c1/c(=C\c2c([O-])[n-]c(=S)[n-]c2=O)cc(C)n1-c1ccccc1 (optimized conformer: 86.41252462677312 kcal/mol)

> <smiles>
C=c1c(=Cc2c(O)[nH]c(=S)[nH]c2=O)cc(C)n1-c1ccccc1

> <score_type>
oracle

> <origin>
adg

> <m_score__min__energy>
-15.09

> <m_primary>
energy

> <minimizedAffinity>
-7.83550

> <minimizedRMSD>
0.61312

> <CNNscore>
0.4968392551

> <CNNaffinity>
6.4744057655

> <CNN_VS>
3.2167389393

> <CNNaffinity_variance>
0.0974516049

$$$$
18:0


 26 27  0  0  0  0  0  0  0  0999 V2000
   58.2803   33.6978   44.8531 C   0  0  0  0  0  0  0  0  0  0  0  0
   57.9082   32.5085   44.0155 C   0  0  0  0  0  0  0  0  0  0  0  0
   58.1599   32.5273   42.7814 O   0  0  0  0  0  0  0  0  0  0  0  0
   57.2240   31.3742   44.5665 N   0  0  0  0  0  0  0  0  0  0  0  0
   59.5085   26.3198   46.1149 C   0  0  0  0  0  0  0  0  0  0  0  0
   58.9438   27.6489   45.6898 C   0  0  0  0  0  0  0  0  0  0  0  0
   57.5554   27.7847   45.5256 C   0  0  0  0  0  0  0  0  0  0  0  0
   56.9984   29.0083   45.1480 C   0  0  0  0  0  0  0  0  0  0  0  0
   55.6200   29.1190   45.0027 O   0  0  0  0  0  0  0  0  0  0  0  0
   57.8208   30.1208   44.9321 C   0  0  0  0  0  0  0  0  0  0  0  0
   59.2124   29.9787   45.0348 C   0  0  0  0  0  0  0  0  0  0  0  0
   59.7853   28.7533   45.4154 C   0  0  0  0  0  0  0  0  0  0  0  0
   61.2811   28.6547   45.5657 C   0  0  0  0  0  0  0  0  0  0  0  0
   58.0918   33.3837   46.2667 N   0  0  0  0  0  0  0  0  0  0  0  0
   59.5888   33.6135   47.1207 S   0  0  0  0  0  0  0  0  0  0  0  0
   60.6679   33.9801   46.1432 O   0  0  0  0  0  0  0  0  0  0  0  0
   59.4257   34.7605   48.0785 O   0  0  0  0  0  0  0  0  0  0  0  0
   59.9941   32.1505   48.0475 C   0  0  0  0  0  0  0  0  0  0  0  0
   58.9805   31.1916   48.2126 C   0  0  0  0  0  0  0  0  0  0  0  0
   59.2561   29.9528   48.7945 C   0  0  0  0  0  0  0  0  0  0  0  0
   60.5515   29.6459   49.2051 C   0  0  0  0  0  0  0  0  0  0  0  0
   61.5742   30.5830   49.0481 C   0  0  0  0  0  0  0  0  0  0  0  0
   61.3086   31.8429   48.4852 C   0  0  0  0  0  0  0  0  0  0  0  0
   62.4295   32.7881   48.3698 C   0  0  0  0  0  0  0  0  0  0  0  0
   62.4957   33.7835   49.1366 O   0  0  0  0  0  0  0  0  0  0  0  0
   63.3698   32.6366   47.3597 O   0  0  0  0  0  0  0  0  0  0  0  0
  5  6  1  0
  6  7  2  0
  7  8  1  0
  8  9  1  0
  8 10  2  0
 10  4  1  0
  4  2  1  0
  2  3  2  0
  2  1  1  0
  1 14  1  0
 14 15  1  0
 15 16  2  0
 15 17  2  0
 15 18  1  0
 18 19  2  0
 19 20  1  0
 20 21  2  0
 21 22  1  0
 22 23  2  0
 23 24  1  0
 24 25  2  0
 24 26  1  0
 10 11  1  0
 11 12  2  0
 12 13  1  0
 12  6  1  0
 23 18  1  0
M  CHG 1   4  -1
M  CHG 1   9  -1
M  CHG 1  14  -1
M  CHG 1  26  -1
M  END
> <UniqueID>
16

> <SMILES>
Cc1cc([O-])c([N-]C(=O)C[N-]S(=O)(=O)c2ccccc2C(=O)[O-])cc1C

> <Energy>
51.48015169399693

> <Genealogy>
Cc1cc([O-])c([N-]C(=O)C[N-]S(=O)(=O)c2ccccc2C(=O)[O-])cc1C (protonated)
Cc1cc([O-])c([N-]C(=O)C[N-]S(=O)(=O)c2ccccc2C(=O)[O-])cc1C (3D coordinates assigned)
Cc1cc([O-])c([N-]C(=O)C[N-]S(=O)(=O)c2ccccc2C(=O)[O-])cc1C (optimized conformer: 51.48015169399693 kcal/mol)

> <smiles>
Cc1cc(O)c(NC(=O)CNS(=O)(=O)c2ccccc2C(=O)O)cc1C

> <score_type>
oracle

> <origin>
adg

> <m_score__min__energy>
-15.68

> <m_primary>
energy

> <minimizedAffinity>
-6.40862

> <minimizedRMSD>
3.05477

> <CNNscore>
0.5989471078

> <CNNaffinity>
6.1228027344

> <CNN_VS>
3.6672348976

> <CNNaffinity_variance>
0.0234356765

$$$$
25:0


 29 31  0  0  0  0  0  0  0  0999 V2000
   58.3302   28.7796   45.0208 C   0  0  0  0  0  0  0  0  0  0  0  0
   59.6191   29.3211   44.8754 C   0  0  0  0  0  0  0  0  0  0  0  0
   60.7390   28.6335   45.3450 C   0  0  0  0  0  0  0  0  0  0  0  0
   60.5891   27.3964   45.9669 C   0  0  0  0  0  0  0  0  0  0  0  0
   59.3193   26.8418   46.1230 C   0  0  0  0  0  0  0  0  0  0  0  0
   58.1754   27.5191   45.6601 C   0  0  0  0  0  0  0  0  0  0  0  0
   56.9456   29.7069   44.4136 S   0  0  0  0  0  0  0  0  0  0  0  0
   55.6920   29.2306   45.0912 O   0  0  0  0  0  0  0  0  0  0  0  0
   56.8301   29.5275   42.9269 O   0  0  0  0  0  0  0  0  0  0  0  0
   59.9121   34.9606   46.3081 C   0  0  0  0  0  0  0  0  0  0  0  0
   59.3180   33.6015   46.4942 C   0  0  0  0  0  0  0  0  0  0  0  0
   59.6217   32.8455   47.6311 C   0  0  0  0  0  0  0  0  0  0  0  0
   59.0502   31.5767   47.7621 C   0  0  0  0  0  0  0  0  0  0  0  0
   59.3514   30.7286   48.9555 C   0  0  0  0  0  0  0  0  0  0  0  0
   58.2294   31.1058   46.7857 N   0  0  0  0  0  0  0  0  0  0  0  0
   57.9451   31.8496   45.6817 C   0  0  0  0  0  0  0  0  0  0  0  0
   57.1598   31.3950   44.7550 N   0  0  0  0  0  0  0  0  0  0  0  0
   58.4914   33.0870   45.5455 N   0  0  0  0  0  0  0  0  0  0  0  0
   56.8285   26.8556   45.8300 C   0  0  0  0  0  0  0  0  0  0  0  0
   56.7908   26.0844   47.0686 N   0  0  0  0  0  0  0  0  0  0  0  0
   56.9758   24.6644   47.1345 C   0  0  0  0  0  0  0  0  0  0  0  0
   57.2350   24.1181   48.2405 O   0  0  0  0  0  0  0  0  0  0  0  0
   56.8572   23.8433   45.9094 C   0  0  0  0  0  0  0  0  0  0  0  0
   57.9724   23.1735   45.3788 C   0  0  0  0  0  0  0  0  0  0  0  0
   57.8418   22.3967   44.2248 C   0  0  0  0  0  0  0  0  0  0  0  0
   56.5947   22.2960   43.6060 C   0  0  0  0  0  0  0  0  0  0  0  0
   56.4596   21.6013   42.5647 O   0  0  0  0  0  0  0  0  0  0  0  0
   55.5232   22.9473   44.1279 N   0  0  0  0  0  0  0  0  0  0  0  0
   55.6215   23.7067   45.2498 C   0  0  0  0  0  0  0  0  0  0  0  0
 10 11  1  0
 11 12  1  0
 12 13  2  0
 13 14  1  0
 13 15  1  0
 15 16  1  0
 16 17  2  0
 17  7  1  0
  7  8  2  0
  7  9  2  0
  7  1  1  0
  1  2  2  0
  2  3  1  0
  3  4  2  0
  4  5  1  0
  5  6  2  0
  6 19  1  0
 19 20  1  0
 20 21  1  0
 21 22  2  0
 21 23  1  0
 23 24  1  0
 24 25  2  0
 25 26  1  0
 26 27  2  0
 26 28  1  0
 28 29  1  0
 16 18  1  0
 18 11  2  0
  6  1  1  0
 29 23  2  0
M  CHG 1  15  -1
M  CHG 1  20  -1
M  CHG 1  28  -1
M  END
> <UniqueID>
22

> <SMILES>
Cc1cc(C)[n-]c(=NS(=O)(=O)c2ccccc2C[N-]C(=O)c2ccc(=O)[n-]c2)n1

> <Energy>
51.13638910994888

> <Genealogy>
Cc1cc(C)[n-]c(=NS(=O)(=O)c2ccccc2C[N-]C(=O)c2ccc(=O)[n-]c2)n1 (protonated)
Cc1cc(C)[n-]c(=NS(=O)(=O)c2ccccc2C[N-]C(=O)c2ccc(=O)[n-]c2)n1 (3D coordinates assigned)
Cc1cc(C)[n-]c(=NS(=O)(=O)c2ccccc2C[N-]C(=O)c2ccc(=O)[n-]c2)n1 (optimized conformer: 51.13638910994888 kcal/mol)

> <smiles>
Cc1cc(C)[nH]c(=NS(=O)(=O)c2ccccc2CNC(=O)c2ccc(=O)[nH]c2)n1

> <score_type>
oracle

> <origin>
adg

> <m_score__min__energy>
-14.199999999999999

> <m_primary>
energy

> <minimizedAffinity>
-7.78100

> <minimizedRMSD>
0.55484

> <CNNscore>
0.5160965323

> <CNNaffinity>
7.1406593323

> <CNN_VS>
3.6852695942

> <CNNaffinity_variance>
0.2972817719

$$$$
31:0


 28 30  0  0  0  0  0  0  0  0999 V2000
   60.2828   34.3050   46.9850 N   0  0  0  0  0  0  0  0  0  0  0  0
   59.2790   33.8265   46.3136 C   0  0  0  0  0  0  0  0  0  0  0  0
   59.3854   33.2066   45.1172 N   0  0  0  0  0  0  0  0  0  0  0  0
   58.1680   32.8149   44.6494 C   0  0  0  0  0  0  0  0  0  0  0  0
   57.0918   33.1102   45.4855 C   0  0  0  0  0  0  0  0  0  0  0  0
   57.6896   33.9019   46.8450 S   0  0  0  0  0  0  0  0  0  0  0  0
   60.5294   34.1244   48.3899 C   0  0  0  0  0  0  0  0  0  0  0  0
   59.6053   34.3036   49.2300 O   0  0  0  0  0  0  0  0  0  0  0  0
   62.8223   33.1933   47.9565 C   0  0  0  0  0  0  0  0  0  0  0  0
   64.0561   32.8244   48.3949 N   0  0  0  0  0  0  0  0  0  0  0  0
   64.4177   32.9455   49.6988 C   0  0  0  0  0  0  0  0  0  0  0  0
   65.5704   32.5951   50.0648 O   0  0  0  0  0  0  0  0  0  0  0  0
   63.5127   33.4574   50.6306 C   0  0  0  0  0  0  0  0  0  0  0  0
   62.2393   33.8428   50.2068 C   0  0  0  0  0  0  0  0  0  0  0  0
   61.8762   33.7179   48.8565 C   0  0  0  0  0  0  0  0  0  0  0  0
   58.0237   32.0590   43.3674 C   0  0  0  0  0  0  0  0  0  0  0  0
   57.3299   30.7565   43.6176 C   0  0  0  0  0  0  0  0  0  0  0  0
   56.5626   30.2801   42.7356 O   0  0  0  0  0  0  0  0  0  0  0  0
   57.5777   30.0314   44.8277 N   0  0  0  0  0  0  0  0  0  0  0  0
   58.1957   30.4080   45.4951 H   0  0  0  0  0  0  0  0  0  0  0  0
   56.9352   28.7455   45.0959 C   0  0  0  0  0  0  0  0  0  0  0  0
   57.9287   27.7637   45.6607 C   0  0  0  0  0  0  0  0  0  0  0  0
   59.2952   28.0952   45.6981 C   0  0  0  0  0  0  0  0  0  0  0  0
   60.2212   27.2063   46.2536 C   0  0  0  0  0  0  0  0  0  0  0  0
   59.7912   25.9877   46.7862 C   0  0  0  0  0  0  0  0  0  0  0  0
   58.4335   25.6584   46.7725 C   0  0  0  0  0  0  0  0  0  0  0  0
   57.5005   26.5425   46.2192 C   0  0  0  0  0  0  0  0  0  0  0  0
   56.1511   26.2039   46.2308 O   0  0  0  0  0  0  0  0  0  0  0  0
  9 10  1  0
 10 11  1  0
 11 12  2  0
 11 13  1  0
 13 14  2  0
 14 15  1  0
 15  7  1  0
  7  8  2  0
  7  1  1  0
  1  2  2  0
  2  3  1  0
  3  4  1  0
  4 16  1  0
 16 17  1  0
 17 18  2  0
 17 19  1  0
 19 21  1  0
 21 22  1  0
 22 23  2  0
 23 24  1  0
 24 25  2  0
 25 26  1  0
 26 27  2  0
 27 28  1  0
  4  5  2  0
  5  6  1  0
 15  9  2  0
  6  2  1  0
 27 22  1  0
 19 20  1  0
M  CHG 1   3  -1
M  CHG 1  10  -1
M  CHG 1  28  -1
M  END
> <UniqueID>
28

> <SMILES>
O=C(Cc1cs/c(=N/C(=O)c2ccc(=O)[n-]c2)[n-]1)NCc1ccccc1[O-]

> <Energy>
71.64159371508852

> <Genealogy>
O=C(Cc1csc(=NC(=O)c2ccc(=O)[n-]c2)[n-]1)NCc1ccccc1[O-] (protonated)
O=C(Cc1cs/c(=N/C(=O)c2ccc(=O)[n-]c2)[n-]1)NCc1ccccc1[O-] (cis-trans isomerization)
O=C(Cc1cs/c(=N/C(=O)c2ccc(=O)[n-]c2)[n-]1)NCc1ccccc1[O-] (3D coordinates assigned)
O=C(Cc1cs/c(=N/C(=O)c2ccc(=O)[n-]c2)[n-]1)NCc1ccccc1[O-] (optimized conformer: 71.64159371508852 kcal/mol)

> <smiles>
O=C(Cc1csc(=NC(=O)c2ccc(=O)[nH]c2)[nH]1)NCc1ccccc1O

> <score_type>
oracle

> <origin>
adg

> <m_score__min__energy>
-15.24

> <m_primary>
energy

> <minimizedAffinity>
-6.49395

> <minimizedRMSD>
0.76748

> <CNNscore>
0.2963074446

> <CNNaffinity>
6.3431229591

> <CNN_VS>
1.8795145750

> <CNNaffinity_variance>
0.0027599763

$$$$
47:0


 29 31  0  0  0  0  0  0  0  0999 V2000
   62.0661   31.2045   50.3673 C   0  0  0  0  0  0  0  0  0  0  0  0
   63.2064   31.3661   49.8561 O   0  0  0  0  0  0  0  0  0  0  0  0
   61.6008   29.8955   50.7108 N   0  0  0  0  0  0  0  0  0  0  0  0
   60.3656   29.3178   50.1930 C   0  0  0  0  0  0  0  0  0  0  0  0
   60.6708   28.3943   49.0119 C   0  0  0  0  0  0  0  0  0  0  0  0
   58.1986   29.3237   45.5976 C   0  0  0  0  0  0  0  0  0  0  0  0
   57.8942   28.2265   46.4116 C   0  0  0  0  0  0  0  0  0  0  0  0
   58.6902   27.9280   47.5219 C   0  0  0  0  0  0  0  0  0  0  0  0
   59.7982   28.7308   47.8325 C   0  0  0  0  0  0  0  0  0  0  0  0
   60.1109   29.8233   47.0071 C   0  0  0  0  0  0  0  0  0  0  0  0
   59.3116   30.1214   45.8997 C   0  0  0  0  0  0  0  0  0  0  0  0
   55.5198   29.6614   44.6944 N   0  0  0  0  0  0  0  0  0  0  0  0
   57.1777   29.6883   44.2104 S   0  0  0  0  0  0  0  0  0  0  0  0
   57.5074   31.0467   43.6591 O   0  0  0  0  0  0  0  0  0  0  0  0
   57.4067   28.6583   43.1395 O   0  0  0  0  0  0  0  0  0  0  0  0
   54.9276   29.8726   43.8912 H   0  0  0  0  0  0  0  0  0  0  0  0
   61.1595   32.3783   50.5501 C   0  0  0  0  0  0  0  0  0  0  0  0
   60.5355   32.7186   49.2737 N   0  0  0  0  0  0  0  0  0  0  0  0
   59.2291   32.5948   48.9546 C   0  0  0  0  0  0  0  0  0  0  0  0
   58.2707   32.0289   49.7877 O   0  0  0  0  0  0  0  0  0  0  0  0
   58.9891   33.1222   47.7025 C   0  0  0  0  0  0  0  0  0  0  0  0
   60.1886   33.6056   47.2429 C   0  0  0  0  0  0  0  0  0  0  0  0
   61.1203   33.3545   48.2345 C   0  0  0  0  0  0  0  0  0  0  0  0
   62.4643   33.7168   48.1996 O   0  0  0  0  0  0  0  0  0  0  0  0
   60.3601   34.3144   45.9391 C   0  0  0  0  0  0  0  0  0  0  0  0
   59.0690   34.3579   45.1477 C   0  0  0  0  0  0  0  0  0  0  0  0
   57.8883   33.8805   45.6001 C   0  0  0  0  0  0  0  0  0  0  0  0
   57.6973   33.2396   46.9600 C   0  0  0  0  0  0  0  0  0  0  0  0
   62.8116   34.1568   47.4488 H   0  0  0  0  0  0  0  0  0  0  0  0
 12 13  1  0
 13 14  2  0
 13 15  2  0
 13  6  1  0
  6  7  2  0
  7  8  1  0
  8  9  2  0
  9  5  1  0
  5  4  1  0
  4  3  1  0
  3  1  1  0
  1  2  2  0
  1 17  1  0
 17 18  1  0
 18 19  1  0
 19 20  1  0
 19 21  2  0
 21 22  1  0
 22 23  2  0
 23 24  1  0
 22 25  1  0
 25 26  1  0
 26 27  2  0
 27 28  1  0
  9 10  1  0
 10 11  2  0
 11  6  1  0
 23 18  1  0
 28 21  1  0
 12 16  1  0
 24 29  1  0
M  CHG 1   3  -1
M  CHG 1  12  -1
M  CHG 1  20  -1
M  END
> <UniqueID>
44

> <SMILES>
[NH-]S(=O)(=O)c1ccc(CC[N-]C(=O)Cn2c([O-])c3c(c2O)CC=CC3)cc1

> <Energy>
71.22378920578001

> <Genealogy>
[NH-]S(=O)(=O)c1ccc(CC[N-]C(=O)Cn2c([O-])c3c(c2O)CC=CC3)cc1 (protonated)
[NH-]S(=O)(=O)c1ccc(CC[N-]C(=O)Cn2c([O-])c3c(c2O)CC=CC3)cc1 (3D coordinates assigned)
[NH-]S(=O)(=O)c1ccc(CC[N-]C(=O)Cn2c([O-])c3c(c2O)CC=CC3)cc1 (nonaromatic ring conformer: 71.22378920578001 kcal/mol)

> <smiles>
NS(=O)(=O)c1ccc(CCNC(=O)Cn2c(O)c3c(c2O)CC=CC3)cc1

> <score_type>
oracle

> <origin>
adg

> <m_score__min__energy>
-14.119999999999999

> <m_primary>
energy

> <minimizedAffinity>
-7.54306

> <minimizedRMSD>
1.01654

> <CNNscore>
0.8879627585

> <CNNaffinity>
6.8678317070

> <CNN_VS>
6.0983786583

> <CNNaffinity_variance>
0.1621100605

$$$$
58:0


 28 30  0  0  0  0  0  0  0  0999 V2000
   57.2548   31.1504   43.7950 N   0  0  0  0  0  0  0  0  0  0  0  0
   57.4519   31.4659   45.0915 C   0  0  0  0  0  0  0  0  0  0  0  0
   56.9875   30.7473   46.1908 O   0  0  0  0  0  0  0  0  0  0  0  0
   58.1896   32.6271   45.1589 C   0  0  0  0  0  0  0  0  0  0  0  0
   58.4690   33.0597   43.9105 N   0  0  0  0  0  0  0  0  0  0  0  0
   57.8755   32.1430   43.1172 C   0  0  0  0  0  0  0  0  0  0  0  0
   57.9016   32.2144   41.8604 O   0  0  0  0  0  0  0  0  0  0  0  0
   56.4902   29.9637   46.0621 H   0  0  0  0  0  0  0  0  0  0  0  0
   56.5100   30.0247   43.2196 C   0  0  0  0  0  0  0  0  0  0  0  0
   57.6336   27.9835   42.6966 O   0  0  0  0  0  0  0  0  0  0  0  0
   57.1458   28.7134   43.5996 C   0  0  0  0  0  0  0  0  0  0  0  0
   57.2673   28.2986   44.9664 N   0  0  0  0  0  0  0  0  0  0  0  0
   58.4002   27.6240   45.5282 C   0  0  0  0  0  0  0  0  0  0  0  0
   59.5739   28.3476   45.8002 C   0  0  0  0  0  0  0  0  0  0  0  0
   60.6707   27.7257   46.3947 C   0  0  0  0  0  0  0  0  0  0  0  0
   60.6012   26.3807   46.7466 C   0  0  0  0  0  0  0  0  0  0  0  0
   59.4361   25.6515   46.5035 C   0  0  0  0  0  0  0  0  0  0  0  0
   58.3221   26.2543   45.8863 C   0  0  0  0  0  0  0  0  0  0  0  0
   57.1166   25.4302   45.6059 C   0  0  0  0  0  0  0  0  0  0  0  0
   56.1172   25.4867   46.3706 O   0  0  0  0  0  0  0  0  0  0  0  0
   57.0662   24.5708   44.5135 O   0  0  0  0  0  0  0  0  0  0  0  0
   58.6540   33.3159   46.4038 C   0  0  0  0  0  0  0  0  0  0  0  0
   60.0383   32.8603   46.7751 C   0  0  0  0  0  0  0  0  0  0  0  0
   61.1206   33.7510   46.6925 C   0  0  0  0  0  0  0  0  0  0  0  0
   62.4066   33.3346   47.0512 C   0  0  0  0  0  0  0  0  0  0  0  0
   62.6201   32.0248   47.4898 C   0  0  0  0  0  0  0  0  0  0  0  0
   61.5513   31.1259   47.5551 C   0  0  0  0  0  0  0  0  0  0  0  0
   60.2657   31.5381   47.1925 C   0  0  0  0  0  0  0  0  0  0  0  0
 10 11  2  0
 11  9  1  0
  9  1  1  0
  1  2  1  0
  2  3  1  0
  2  4  2  0
  4 22  1  0
 22 23  1  0
 23 24  2  0
 24 25  1  0
 25 26  2  0
 26 27  1  0
 27 28  2  0
  4  5  1  0
  5  6  1  0
  6  7  2  0
 11 12  1  0
 12 13  1  0
 13 14  2  0
 14 15  1  0
 15 16  2  0
 16 17  1  0
 17 18  2  0
 18 19  1  0
 19 20  2  0
 19 21  1  0
  6  1  1  0
 18 13  1  0
 28 23  1  0
  3  8  1  0
M  CHG 1   5  -1
M  CHG 1  12  -1
M  CHG 1  21  -1
M  END
> <UniqueID>
55

> <SMILES>
O=C(Cn1c(O)c(Cc2ccccc2)[n-]c1=O)[N-]c1ccccc1C(=O)[O-]

> <Energy>
75.71404170241128

> <Genealogy>
O=C(Cn1c(O)c(Cc2ccccc2)[n-]c1=O)[N-]c1ccccc1C(=O)[O-] (protonated)
O=C(Cn1c(O)c(Cc2ccccc2)[n-]c1=O)[N-]c1ccccc1C(=O)[O-] (3D coordinates assigned)
O=C(Cn1c(O)c(Cc2ccccc2)[n-]c1=O)[N-]c1ccccc1C(=O)[O-] (optimized conformer: 75.71404170241128 kcal/mol)

> <smiles>
O=C(Cn1c(O)c(Cc2ccccc2)[nH]c1=O)Nc1ccccc1C(=O)O

> <score_type>
oracle

> <origin>
adg

> <m_score__min__energy>
-14.93

> <m_primary>
energy

> <minimizedAffinity>
-5.88738

> <minimizedRMSD>
0.97747

> <CNNscore>
0.5264368057

> <CNNaffinity>
6.5639972687

> <CNN_VS>
3.4555296898

> <CNNaffinity_variance>
0.1544468552

$$$$
70:0


 30 32  0  0  0  0  0  0  0  0999 V2000
   59.2774   34.8476   45.1269 C   0  0  0  0  0  0  0  0  0  0  0  0
   59.4211   33.6883   46.0033 N   0  0  0  0  0  0  0  0  0  0  0  0
   60.2401   33.6076   47.0709 C   0  0  0  0  0  0  0  0  0  0  0  0
   60.0372   32.4053   47.7177 C   0  0  0  0  0  0  0  0  0  0  0  0
   59.0426   31.7335   47.0320 C   0  0  0  0  0  0  0  0  0  0  0  0
   58.6904   32.5504   45.9733 C   0  0  0  0  0  0  0  0  0  0  0  0
   60.6223   32.0011   49.0351 C   0  0  0  0  0  0  0  0  0  0  0  0
   59.5486   31.4024   49.9104 C   0  0  0  0  0  0  0  0  0  0  0  0
   58.7408   32.2311   50.7008 C   0  0  0  0  0  0  0  0  0  0  0  0
   57.8087   31.6886   51.5261 N   0  0  0  0  0  0  0  0  0  0  0  0
   57.6466   30.3429   51.6096 C   0  0  0  0  0  0  0  0  0  0  0  0
   56.7768   29.8603   52.3807 O   0  0  0  0  0  0  0  0  0  0  0  0
   58.4261   29.5171   50.8650 N   0  0  0  0  0  0  0  0  0  0  0  0
   59.3712   30.0123   50.0252 C   0  0  0  0  0  0  0  0  0  0  0  0
   60.0850   29.2145   49.3589 O   0  0  0  0  0  0  0  0  0  0  0  0
   57.5179   32.3098   45.0680 C   0  0  0  0  0  0  0  0  0  0  0  0
   57.8468   31.2529   44.1203 N   0  0  0  0  0  0  0  0  0  0  0  0
   57.0711   30.0576   43.9704 C   0  0  0  0  0  0  0  0  0  0  0  0
   56.3948   29.8649   42.9264 O   0  0  0  0  0  0  0  0  0  0  0  0
   57.0137   29.0966   45.0274 N   0  0  0  0  0  0  0  0  0  0  0  0
   58.1348   28.3532   45.5272 C   0  0  0  0  0  0  0  0  0  0  0  0
   59.4470   28.8466   45.4014 C   0  0  0  0  0  0  0  0  0  0  0  0
   60.5292   28.1016   45.8725 C   0  0  0  0  0  0  0  0  0  0  0  0
   60.3167   26.8517   46.4544 C   0  0  0  0  0  0  0  0  0  0  0  0
   59.0209   26.3396   46.5605 C   0  0  0  0  0  0  0  0  0  0  0  0
   57.9197   27.0839   46.0905 C   0  0  0  0  0  0  0  0  0  0  0  0
   56.6024   26.6019   46.1704 O   0  0  0  0  0  0  0  0  0  0  0  0
   56.2345   25.2258   46.1233 C   0  0  0  0  0  0  0  0  0  0  0  0
   54.9193   25.1229   45.7120 F   0  0  0  0  0  0  0  0  0  0  0  0
   56.3586   24.6604   47.3800 F   0  0  0  0  0  0  0  0  0  0  0  0
  1  2  1  0
  2  3  1  0
  3  4  2  0
  4  7  1  0
  7  8  1  0
  8  9  2  0
  9 10  1  0
 10 11  1  0
 11 12  2  0
 11 13  1  0
 13 14  1  0
 14 15  2  0
  4  5  1  0
  5  6  2  0
  6 16  1  0
 16 17  1  0
 17 18  1  0
 18 19  2  0
 18 20  1  0
 20 21  1  0
 21 22  2  0
 22 23  1  0
 23 24  2  0
 24 25  1  0
 25 26  2  0
 26 27  1  0
 27 28  1  0
 28 29  1  0
 28 30  1  0
  6  2  1  0
 26 21  1  0
 14  8  1  0
M  CHG 1  10  -1
M  CHG 1  13  -1
M  CHG 1  17  -1
M  CHG 1  20  -1
M  END
> <UniqueID>
65

> <SMILES>
Cn1cc(Cc2c[n-]c(=O)[n-]c2=O)cc1C[N-]C(=O)[N-]c1ccccc1OC(F)F

> <Energy>
72.13105415165121

> <Genealogy>
Cn1cc(Cc2c[n-]c(=O)[n-]c2=O)cc1C[N-]C(=O)[N-]c1ccccc1OC(F)F (protonated)
Cn1cc(Cc2c[n-]c(=O)[n-]c2=O)cc1C[N-]C(=O)[N-]c1ccccc1OC(F)F (3D coordinates assigned)
Cn1cc(Cc2c[n-]c(=O)[n-]c2=O)cc1C[N-]C(=O)[N-]c1ccccc1OC(F)F (optimized conformer: 72.13105415165121 kcal/mol)

> <smiles>
Cn1cc(Cc2c[nH]c(=O)[nH]c2=O)cc1CNC(=O)Nc1ccccc1OC(F)F

> <score_type>
oracle

> <origin>
adg

> <m_score__min__energy>
-14.82

> <m_primary>
energy

> <minimizedAffinity>
-7.20509

> <minimizedRMSD>
1.16055

> <CNNscore>
0.4715315998

> <CNNaffinity>
7.1060047150

> <CNN_VS>
3.3507058620

> <CNNaffinity_variance>
0.0165095460

$$$$
76:0


 33 36  0  0  0  0  0  0  0  0999 V2000
   60.4573   29.5528   47.2263 C   0  0  0  0  0  0  0  0  0  0  0  0
   60.4878   29.2914   45.8563 C   0  0  0  0  0  0  0  0  0  0  0  0
   59.5495   28.4256   45.2962 C   0  0  0  0  0  0  0  0  0  0  0  0
   58.5739   27.8337   46.1086 C   0  0  0  0  0  0  0  0  0  0  0  0
   57.7110   27.0290   45.5494 N   0  0  0  0  0  0  0  0  0  0  0  0
   58.5810   28.0825   47.4572 N   0  0  0  0  0  0  0  0  0  0  0  0
   59.4918   28.9254   48.0178 C   0  0  0  0  0  0  0  0  0  0  0  0
   57.9136   27.6427   48.0320 H   0  0  0  0  0  0  0  0  0  0  0  0
   57.0389   25.8971   46.1257 C   0  0  0  0  0  0  0  0  0  0  0  0
   56.4639   26.0004   47.2447 O   0  0  0  0  0  0  0  0  0  0  0  0
   56.9325   24.6332   45.3599 C   0  0  0  0  0  0  0  0  0  0  0  0
   58.0494   23.7981   45.1921 C   0  0  0  0  0  0  0  0  0  0  0  0
   57.9377   22.6113   44.4639 C   0  0  0  0  0  0  0  0  0  0  0  0
   56.7070   22.2683   43.9009 C   0  0  0  0  0  0  0  0  0  0  0  0
   56.5882   21.2040   43.2400 O   0  0  0  0  0  0  0  0  0  0  0  0
   55.6343   23.0838   44.0668 N   0  0  0  0  0  0  0  0  0  0  0  0
   55.7162   24.2442   44.7745 C   0  0  0  0  0  0  0  0  0  0  0  0
   61.6568   30.6628   47.9627 S   0  0  0  0  0  0  0  0  0  0  0  0
   59.0100   33.2929   46.2903 C   0  0  0  0  0  0  0  0  0  0  0  0
   59.0406   34.3626   47.2048 C   0  0  0  0  0  0  0  0  0  0  0  0
   59.8581   34.3060   48.3363 C   0  0  0  0  0  0  0  0  0  0  0  0
   60.6568   33.1844   48.5706 C   0  0  0  0  0  0  0  0  0  0  0  0
   61.4478   33.1433   49.6726 F   0  0  0  0  0  0  0  0  0  0  0  0
   60.6369   32.1103   47.6707 C   0  0  0  0  0  0  0  0  0  0  0  0
   59.8212   32.1678   46.5341 C   0  0  0  0  0  0  0  0  0  0  0  0
   57.3678   34.3349   44.9314 O   0  0  0  0  0  0  0  0  0  0  0  0
   58.1375   33.3504   45.0931 C   0  0  0  0  0  0  0  0  0  0  0  0
   58.1700   32.2758   44.1358 N   0  0  0  0  0  0  0  0  0  0  0  0
   57.3634   31.2580   44.0319 C   0  0  0  0  0  0  0  0  0  0  0  0
   57.0122   30.5650   42.8841 C   0  0  0  0  0  0  0  0  0  0  0  0
   56.1500   29.5966   43.3516 C   0  0  0  0  0  0  0  0  0  0  0  0
   56.0265   29.7322   44.6531 O   0  0  0  0  0  0  0  0  0  0  0  0
   56.7431   30.7230   45.0976 N   0  0  0  0  0  0  0  0  0  0  0  0
 26 27  2  0
 27 28  1  0
 28 29  2  0
 29 30  1  0
 30 31  2  0
 31 32  1  0
 32 33  1  0
 27 19  1  0
 19 20  2  0
 20 21  1  0
 21 22  2  0
 22 23  1  0
 22 24  1  0
 24 18  1  0
 18  1  1  0
  1  2  1  0
  2  3  2  0
  3  4  1  0
  4  5  2  0
  5  9  1  0
  9 10  2  0
  9 11  1  0
 11 12  1  0
 12 13  2  0
 13 14  1  0
 14 15  2  0
 14 16  1  0
 16 17  1  0
  4  6  1  0
  6  7  1  0
 24 25  2  0
 33 29  1  0
 25 19  1  0
  7  1  2  0
 17 11  2  0
  6  8  1  0
M  CHG 1  16  -1
M  CHG 1  33  -1
M  END
> <UniqueID>
71

> <SMILES>
O=C(N=c1cco[n-]1)c1ccc(F)c(Sc2ccc(=NC(=O)c3ccc(=O)[n-]c3)[nH]c2)c1

> <Energy>
89.85594159467045

> <Genealogy>
O=C(N=c1cco[n-]1)c1ccc(F)c(Sc2ccc(=NC(=O)c3ccc(=O)[n-]c3)[nH]c2)c1 (protonated)
O=C(N=c1cco[n-]1)c1ccc(F)c(Sc2ccc(=NC(=O)c3ccc(=O)[n-]c3)[nH]c2)c1 (3D coordinates assigned)
O=C(N=c1cco[n-]1)c1ccc(F)c(Sc2ccc(=NC(=O)c3ccc(=O)[n-]c3)[nH]c2)c1 (optimized conformer: 89.85594159467045 kcal/mol)

> <smiles>
O=C(N=c1ccc(Sc2cc(C(=O)N=c3cco[nH]3)ccc2F)c[nH]1)c1ccc(=O)[nH]c1

> <score_type>
oracle

> <origin>
adg

> <m_score__min__energy>
-14.119999999999999

> <m_primary>
energy

> <minimizedAffinity>
-8.71222

> <minimizedRMSD>
0.45887

> <CNNscore>
0.2382623255

> <CNNaffinity>
6.9466147423

> <CNN_VS>
1.6551165581

> <CNNaffinity_variance>
0.0635805726

$$$$
88:0


 33 36  0  0  0  0  0  0  0  0999 V2000
   57.2716   26.7637   46.0010 C   0  0  0  0  0  0  0  0  0  0  0  0
   57.6994   26.9746   44.6796 C   0  0  0  0  0  0  0  0  0  0  0  0
   58.9623   27.5150   44.4304 C   0  0  0  0  0  0  0  0  0  0  0  0
   59.7991   27.8696   45.4904 C   0  0  0  0  0  0  0  0  0  0  0  0
   59.3711   27.7019   46.8206 C   0  0  0  0  0  0  0  0  0  0  0  0
   58.1032   27.1441   47.0624 C   0  0  0  0  0  0  0  0  0  0  0  0
   60.2450   28.0723   47.9649 C   0  0  0  0  0  0  0  0  0  0  0  0
   60.5868   27.1689   48.7786 O   0  0  0  0  0  0  0  0  0  0  0  0
   60.7527   29.4211   48.1277 N   0  0  0  0  0  0  0  0  0  0  0  0
   60.5065   30.2265   46.9047 C   0  0  0  0  0  0  0  0  0  0  0  0
   60.6010   31.7283   47.2049 C   0  0  0  0  0  0  0  0  0  0  0  0
   59.6058   32.1672   48.2207 N   0  0  0  0  0  0  0  0  0  0  0  0
   59.0994   31.0625   49.0659 C   0  0  0  0  0  0  0  0  0  0  0  0
   60.2044   30.0407   49.3661 C   0  0  0  0  0  0  0  0  0  0  0  0
   61.1679   28.9388   47.3766 H   0  0  0  0  0  0  0  0  0  0  0  0
   58.4816   32.9092   47.6159 C   0  0  0  0  0  0  0  0  0  0  0  0
   58.2664   32.4709   46.1894 C   0  0  0  0  0  0  0  0  0  0  0  0
   57.8521   31.1573   45.9143 C   0  0  0  0  0  0  0  0  0  0  0  0
   57.6420   30.7473   44.5953 C   0  0  0  0  0  0  0  0  0  0  0  0
   57.8464   31.6434   43.5417 C   0  0  0  0  0  0  0  0  0  0  0  0
   58.2596   32.9523   43.8082 C   0  0  0  0  0  0  0  0  0  0  0  0
   58.4702   33.3668   45.1264 C   0  0  0  0  0  0  0  0  0  0  0  0
   55.9736   26.2267   46.2928 N   0  0  0  0  0  0  0  0  0  0  0  0
   54.2858   24.7905   45.6178 O   0  0  0  0  0  0  0  0  0  0  0  0
   55.4980   24.9219   45.9346 C   0  0  0  0  0  0  0  0  0  0  0  0
   56.3713   23.7292   46.0047 C   0  0  0  0  0  0  0  0  0  0  0  0
   57.2736   23.4357   44.9719 C   0  0  0  0  0  0  0  0  0  0  0  0
   58.0655   22.2890   45.0816 C   0  0  0  0  0  0  0  0  0  0  0  0
   58.8887   22.0008   44.1754 O   0  0  0  0  0  0  0  0  0  0  0  0
   57.9463   21.4855   46.1700 N   0  0  0  0  0  0  0  0  0  0  0  0
   57.0636   21.7773   47.1584 C   0  0  0  0  0  0  0  0  0  0  0  0
   56.9653   21.0196   48.1576 O   0  0  0  0  0  0  0  0  0  0  0  0
   56.2841   22.8861   47.0689 N   0  0  0  0  0  0  0  0  0  0  0  0
 24 25  2  0
 25 23  1  0
 23  1  1  0
  1  2  2  0
  2  3  1  0
  3  4  2  0
  4  5  1  0
  5  7  1  0
  7  8  2  0
  7  9  1  0
  9 10  1  0
 10 11  1  0
 11 12  1  0
 12 16  1  0
 16 17  1  0
 17 18  2  0
 18 19  1  0
 19 20  2  0
 20 21  1  0
 21 22  2  0
 12 13  1  0
 13 14  1  0
  5  6  2  0
 25 26  1  0
 26 27  2  0
 27 28  1  0
 28 29  2  0
 28 30  1  0
 30 31  1  0
 31 32  2  0
 31 33  1  0
  6  1  1  0
 33 26  1  0
 14  9  1  0
 22 17  1  0
  9 15  1  0
M  CHG 1   9   1
M  CHG 1  23  -1
M  CHG 1  30  -1
M  CHG 1  33  -1
M  END
> <UniqueID>
82

> <SMILES>
O=C([N-]c1cccc(C(=O)[NH+]2CCN(Cc3ccccc3)CC2)c1)c1cc(=O)[n-]c(=O)[n-]1

> <Energy>
81.39317798627386

> <Genealogy>
O=C([N-]c1cccc(C(=O)[NH+]2CCN(Cc3ccccc3)CC2)c1)c1cc(=O)[n-]c(=O)[n-]1 (protonated)
O=C([N-]c1cccc(C(=O)[NH+]2CCN(Cc3ccccc3)CC2)c1)c1cc(=O)[n-]c(=O)[n-]1 (3D coordinates assigned)
O=C([N-]c1cccc(C(=O)[NH+]2CCN(Cc3ccccc3)CC2)c1)c1cc(=O)[n-]c(=O)[n-]1 (nonaromatic ring conformer: 81.39317798627386 kcal/mol)

> <smiles>
O=C(Nc1cccc(C(=O)N2CCN(Cc3ccccc3)CC2)c1)c1cc(=O)[nH]c(=O)[nH]1

> <score_type>
oracle

> <origin>
adg

> <m_score__min__energy>
-14.119999999999999

> <m_primary>
energy

> <minimizedAffinity>
-7.62686

> <minimizedRMSD>
1.15216

> <CNNscore>
0.0996304229

> <CNNaffinity>
5.7731509209

> <CNN_VS>
0.5751814842

> <CNNaffinity_variance>
0.2903039455

$$$$
1:0


 34 37  0  0  0  0  0  0  0  0999 V2000
   57.9534   27.5701   45.9980 C   0  0  0  0  0  0  0  0  0  0  0  0
   58.4575   27.6334   47.3100 C   0  0  0  0  0  0  0  0  0  0  0  0
   59.4342   28.5741   47.6493 C   0  0  0  0  0  0  0  0  0  0  0  0
   59.9091   29.4806   46.6892 C   0  0  0  0  0  0  0  0  0  0  0  0
   59.3941   29.4309   45.3859 C   0  0  0  0  0  0  0  0  0  0  0  0
   58.4181   28.4895   45.0480 C   0  0  0  0  0  0  0  0  0  0  0  0
   56.9895   26.5794   45.5971 N   0  0  0  0  0  0  0  0  0  0  0  0
   56.0353   26.8141   45.6563 H   0  0  0  0  0  0  0  0  0  0  0  0
   57.4029   24.9957   45.0152 S   0  0  0  0  0  0  0  0  0  0  0  0
   57.6397   25.0921   43.5305 O   0  0  0  0  0  0  0  0  0  0  0  0
   58.6746   24.5474   45.6800 O   0  0  0  0  0  0  0  0  0  0  0  0
   57.6350   21.8182   44.7946 C   0  0  0  0  0  0  0  0  0  0  0  0
   56.3343   22.4110   45.2496 C   0  0  0  0  0  0  0  0  0  0  0  0
   55.3435   21.5501   45.6084 N   0  0  0  0  0  0  0  0  0  0  0  0
   54.1404   21.9929   46.0488 C   0  0  0  0  0  0  0  0  0  0  0  0
   53.2416   21.1695   46.3672 O   0  0  0  0  0  0  0  0  0  0  0  0
   53.9026   23.3243   46.1501 N   0  0  0  0  0  0  0  0  0  0  0  0
   54.8576   24.2372   45.8304 C   0  0  0  0  0  0  0  0  0  0  0  0
   54.5876   25.4641   45.9424 O   0  0  0  0  0  0  0  0  0  0  0  0
   56.1270   23.8080   45.3860 C   0  0  0  0  0  0  0  0  0  0  0  0
   61.0215   30.4348   47.0299 C   0  0  0  0  0  0  0  0  0  0  0  0
   61.0742   30.6657   48.5461 C   0  0  0  0  0  0  0  0  0  0  0  0
   62.3132   31.3814   48.9266 N   0  0  0  0  0  0  0  0  0  0  0  0
   62.0739   32.3627   50.0062 C   0  0  0  0  0  0  0  0  0  0  0  0
   61.1994   33.5446   49.5344 C   0  0  0  0  0  0  0  0  0  0  0  0
   61.5339   34.0478   48.0909 C   0  0  0  0  0  0  0  0  0  0  0  0
   62.9338   33.5129   47.6827 C   0  0  0  0  0  0  0  0  0  0  0  0
   63.0300   31.9715   47.7664 C   0  0  0  0  0  0  0  0  0  0  0  0
   60.4352   33.6829   47.1436 N   0  0  0  0  0  0  0  0  0  0  0  0
   59.1194   33.6579   47.8274 C   0  0  0  0  0  0  0  0  0  0  0  0
   58.1005   32.8774   46.9751 C   0  0  0  0  0  0  0  0  0  0  0  0
   58.3953   32.9943   45.4693 C   0  0  0  0  0  0  0  0  0  0  0  0
   59.0397   34.3464   45.1382 C   0  0  0  0  0  0  0  0  0  0  0  0
   60.3397   34.5671   45.9491 C   0  0  0  0  0  0  0  0  0  0  0  0
 12 13  1  0
 13 14  1  0
 14 15  1  0
 15 16  2  0
 15 17  1  0
 17 18  1  0
 18 19  2  0
 18 20  1  0
 20  9  1  0
  9 10  2  0
  9 11  2  0
  9  7  1  0
  7  1  1  0
  1  2  2  0
  2  3  1  0
  3  4  2  0
  4 21  1  0
 21 22  1  0
 22 23  1  0
 23 24  1  0
 24 25  1  0
 25 26  1  0
 26 29  1  0
 29 30  1  0
 30 31  1  0
 31 32  1  0
 32 33  1  0
 33 34  1  0
 26 27  1  0
 27 28  1  0
  4  5  1  0
  5  6  2  0
 20 13  2  0
  6  1  1  0
 28 23  1  0
 34 29  1  0
  7  8  1  0
M  CHG 1  14  -1
M  CHG 1  17  -1
M  END
> <UniqueID>
2

> <SMILES>
Cc1[n-]c(=O)[n-]c(=O)c1S(=O)(=O)Nc1ccc(CCN2CCC(N3CCCCC3)CC2)cc1

> <Energy>
88.942598486362

> <Genealogy>
Cc1[n-]c(=O)[n-]c(=O)c1S(=O)(=O)Nc1ccc(CCN2CCC(N3CCCCC3)CC2)cc1 (protonated)
Cc1[n-]c(=O)[n-]c(=O)c1S(=O)(=O)Nc1ccc(CCN2CCC(N3CCCCC3)CC2)cc1 (3D coordinates assigned)
Cc1[n-]c(=O)[n-]c(=O)c1S(=O)(=O)Nc1ccc(CCN2CCC(N3CCCCC3)CC2)cc1 (nonaromatic ring conformer: 88.942598486362 kcal/mol)

> <smiles>
Cc1[nH]c(=O)[nH]c(=O)c1S(=O)(=O)Nc1ccc(CCN2CCC(N3CCCCC3)CC2)cc1

> <score_type>
oracle

> <origin>
adg

> <m_score__min__energy>
-14.140000000000001

> <m_primary>
energy

> <minimizedAffinity>
-8.83407

> <minimizedRMSD>
0.78846

> <CNNscore>
0.0983153135

> <CNNaffinity>
6.3118462563

> <CNN_VS>
0.6205511689

> <CNNaffinity_variance>
0.2117961645

$$$$
7:0


 26 28  0  0  0  0  0  0  0  0999 V2000
   59.6920   29.6583   46.4054 N   0  0  0  0  0  0  0  0  0  0  0  0
   59.3243   28.7199   47.5048 C   0  0  0  0  0  0  0  0  0  0  0  0
   59.5346   27.2447   47.1510 C   0  0  0  0  0  0  0  0  0  0  0  0
   58.9365   26.9616   45.8425 N   0  0  0  0  0  0  0  0  0  0  0  0
   58.0672   25.8307   45.5974 C   0  0  0  0  0  0  0  0  0  0  0  0
   57.8304   25.4783   44.4096 O   0  0  0  0  0  0  0  0  0  0  0  0
   59.3243   27.8086   44.7078 C   0  0  0  0  0  0  0  0  0  0  0  0
   60.1669   29.0193   45.1487 C   0  0  0  0  0  0  0  0  0  0  0  0
   60.3126   29.8248   45.6595 H   0  0  0  0  0  0  0  0  0  0  0  0
   58.6613   30.6610   46.1900 C   0  0  0  0  0  0  0  0  0  0  0  0
   57.4866   30.2856   45.9269 O   0  0  0  0  0  0  0  0  0  0  0  0
   58.0149   32.4020   43.8792 C   0  0  0  0  0  0  0  0  0  0  0  0
   58.6171   32.9566   45.1446 C   0  0  0  0  0  0  0  0  0  0  0  0
   58.9199   34.3278   45.2133 C   0  0  0  0  0  0  0  0  0  0  0  0
   59.5134   34.8662   46.3556 C   0  0  0  0  0  0  0  0  0  0  0  0
   59.8286   34.0424   47.4342 C   0  0  0  0  0  0  0  0  0  0  0  0
   59.5458   32.6764   47.3785 C   0  0  0  0  0  0  0  0  0  0  0  0
   58.9268   32.1206   46.2466 C   0  0  0  0  0  0  0  0  0  0  0  0
   57.3731   25.0836   46.7044 C   0  0  0  0  0  0  0  0  0  0  0  0
   56.5107   23.9978   46.1386 C   0  0  0  0  0  0  0  0  0  0  0  0
   56.9128   22.7277   45.9507 N   0  0  0  0  0  0  0  0  0  0  0  0
   55.8034   22.1167   45.4795 C   0  0  0  0  0  0  0  0  0  0  0  0
   55.7796   20.8959   45.1795 O   0  0  0  0  0  0  0  0  0  0  0  0
   54.7227   22.9174   45.3609 N   0  0  0  0  0  0  0  0  0  0  0  0
   55.1870   24.1024   45.7842 C   0  0  0  0  0  0  0  0  0  0  0  0
   54.4173   25.2567   45.8534 O   0  0  0  0  0  0  0  0  0  0  0  0
 12 13  1  0
 13 14  2  0
 14 15  1  0
 15 16  2  0
 16 17  1  0
 17 18  2  0
 18 10  1  0
 10 11  2  0
 10  1  1  0
  1  2  1  0
  2  3  1  0
  3  4  1  0
  4  5  1  0
  5  6  2  0
  5 19  1  0
 19 20  1  0
 20 21  1  0
 21 22  1  0
 22 23  2  0
 22 24  1  0
 24 25  1  0
 25 26  1  0
  4  7  1  0
  7  8  1  0
 18 13  1  0
  8  1  1  0
 25 20  2  0
  1  9  1  0
M  CHG 1   1   1
M  CHG 1  21  -1
M  CHG 1  24  -1
M  CHG 1  26  -1
M  END
> <UniqueID>
8

> <SMILES>
Cc1ccccc1C(=O)[NH+]1CCN(C(=O)Cc2[n-]c(=O)[n-]c2[O-])CC1

> <Energy>
89.79095293251163

> <Genealogy>
Cc1ccccc1C(=O)[NH+]1CCN(C(=O)Cc2[n-]c(=O)[n-]c2[O-])CC1 (protonated)
Cc1ccccc1C(=O)[NH+]1CCN(C(=O)Cc2[n-]c(=O)[n-]c2[O-])CC1 (3D coordinates assigned)
Cc1ccccc1C(=O)[NH+]1CCN(C(=O)Cc2[n-]c(=O)[n-]c2[O-])CC1 (nonaromatic ring conformer: 89.79095293251163 kcal/mol)

> <smiles>
Cc1ccccc1C(=O)N1CCN(C(=O)Cc2[nH]c(=O)[nH]c2O)CC1

> <score_type>
oracle

> <origin>
adg

> <m_score__min__energy>
-14.710000000000001

> <m_primary>
energy

> <minimizedAffinity>
-8.57874

> <minimizedRMSD>
1.76824

> <CNNscore>
0.1673325449

> <CNNaffinity>
6.1828742027

> <CNN_VS>
1.0345960855

> <CNNaffinity_variance>
0.1477834582

$$$$
26:0


 33 35  0  0  0  0  0  0  0  0999 V2000
   60.2348   30.7915   48.4067 C   0  0  0  0  0  0  0  0  0  0  0  0
   61.4869   31.4213   48.4218 C   0  0  0  0  0  0  0  0  0  0  0  0
   61.6966   32.5862   47.6791 C   0  0  0  0  0  0  0  0  0  0  0  0
   60.6566   33.1311   46.9193 C   0  0  0  0  0  0  0  0  0  0  0  0
   59.4081   32.4948   46.8758 C   0  0  0  0  0  0  0  0  0  0  0  0
   59.2008   31.3242   47.6230 C   0  0  0  0  0  0  0  0  0  0  0  0
   59.9269   29.3870   49.4271 S   0  0  0  0  0  0  0  0  0  0  0  0
   58.5765   28.8187   49.0588 O   0  0  0  0  0  0  0  0  0  0  0  0
   60.9834   28.3260   49.2236 O   0  0  0  0  0  0  0  0  0  0  0  0
   59.9263   29.8641   51.1039 N   0  0  0  0  0  0  0  0  0  0  0  0
   58.0532   31.2233   51.9033 C   0  0  0  0  0  0  0  0  0  0  0  0
   57.5307   32.4623   52.3282 C   0  0  0  0  0  0  0  0  0  0  0  0
   58.3664   33.5690   52.4681 C   0  0  0  0  0  0  0  0  0  0  0  0
   59.7297   33.4525   52.1987 C   0  0  0  0  0  0  0  0  0  0  0  0
   60.2603   32.2311   51.7688 C   0  0  0  0  0  0  0  0  0  0  0  0
   59.4231   31.1167   51.6003 C   0  0  0  0  0  0  0  0  0  0  0  0
   56.3772   29.5820   52.7769 C   0  0  0  0  0  0  0  0  0  0  0  0
   57.2457   30.0839   51.7652 O   0  0  0  0  0  0  0  0  0  0  0  0
   58.3210   33.0674   46.0652 C   0  0  0  0  0  0  0  0  0  0  0  0
   58.1713   34.3162   46.0347 O   0  0  0  0  0  0  0  0  0  0  0  0
   57.4470   32.2436   45.2817 N   0  0  0  0  0  0  0  0  0  0  0  0
   57.8220   31.5292   44.0619 C   0  0  0  0  0  0  0  0  0  0  0  0
   57.0139   30.2662   43.8917 C   0  0  0  0  0  0  0  0  0  0  0  0
   56.3767   30.1023   42.8169 O   0  0  0  0  0  0  0  0  0  0  0  0
   56.8893   29.2652   44.9188 N   0  0  0  0  0  0  0  0  0  0  0  0
   57.8133   28.4714   45.3847 C   0  0  0  0  0  0  0  0  0  0  0  0
   59.1327   28.8062   45.3069 N   0  0  0  0  0  0  0  0  0  0  0  0
   60.1181   27.9938   45.7757 C   0  0  0  0  0  0  0  0  0  0  0  0
   59.7975   26.7662   46.3532 C   0  0  0  0  0  0  0  0  0  0  0  0
   58.4582   26.3867   46.4391 C   0  0  0  0  0  0  0  0  0  0  0  0
   57.4534   27.2318   45.9532 C   0  0  0  0  0  0  0  0  0  0  0  0
   56.1222   26.8277   46.0473 O   0  0  0  0  0  0  0  0  0  0  0  0
   55.9100   25.9990   46.4295 H   0  0  0  0  0  0  0  0  0  0  0  0
 17 18  1  0
 18 11  1  0
 11 12  2  0
 12 13  1  0
 13 14  2  0
 14 15  1  0
 15 16  2  0
 16 10  1  0
 10  7  1  0
  7  8  2  0
  7  9  2  0
  7  1  1  0
  1  2  2  0
  2  3  1  0
  3  4  2  0
  4  5  1  0
  5 19  1  0
 19 20  2  0
 19 21  1  0
 21 22  1  0
 22 23  1  0
 23 24  2  0
 23 25  1  0
 25 26  2  0
 26 27  1  0
 27 28  1  0
 28 29  2  0
 29 30  1  0
 30 31  2  0
 31 32  1  0
  5  6  2  0
 16 11  1  0
  6  1  1  0
 31 26  1  0
 32 33  1  0
M  CHG 1  10  -1
M  CHG 1  21  -1
M  CHG 1  27  -1
M  END
> <UniqueID>
25

> <SMILES>
COc1ccccc1[N-]S(=O)(=O)c1cccc(C(=O)[N-]CC(=O)N=c2[n-]cccc2O)c1

> <Energy>
63.71304062253396

> <Genealogy>
COc1ccccc1[N-]S(=O)(=O)c1cccc(C(=O)[N-]CC(=O)N=c2[n-]cccc2O)c1 (protonated)
COc1ccccc1[N-]S(=O)(=O)c1cccc(C(=O)[N-]CC(=O)N=c2[n-]cccc2O)c1 (3D coordinates assigned)
COc1ccccc1[N-]S(=O)(=O)c1cccc(C(=O)[N-]CC(=O)N=c2[n-]cccc2O)c1 (optimized conformer: 63.71304062253396 kcal/mol)

> <smiles>
COc1ccccc1NS(=O)(=O)c1cccc(C(=O)NCC(=O)N=c2[nH]cccc2O)c1

> <score_type>
oracle

> <origin>
adg

> <m_score__min__energy>
-14.15

> <m_primary>
energy

> <minimizedAffinity>
-8.30189

> <minimizedRMSD>
0.96798

> <CNNscore>
0.8879895806

> <CNNaffinity>
7.0921616554

> <CNN_VS>
6.2977657318

> <CNNaffinity_variance>
0.0574156381

$$$$
29:0


 32 34  0  0  0  0  0  0  0  0999 V2000
   58.8426   33.3138   54.1475 C   0  0  0  0  0  0  0  0  0  0  0  0
   58.6408   31.8404   53.9899 C   0  0  0  0  0  0  0  0  0  0  0  0
   57.4618   31.2356   54.4224 C   0  0  0  0  0  0  0  0  0  0  0  0
   57.2880   29.8600   54.2400 C   0  0  0  0  0  0  0  0  0  0  0  0
   58.3238   29.1224   53.6401 C   0  0  0  0  0  0  0  0  0  0  0  0
   58.1970   27.8785   53.4706 O   0  0  0  0  0  0  0  0  0  0  0  0
   59.4672   29.7633   53.2367 N   0  0  0  0  0  0  0  0  0  0  0  0
   59.6013   31.0827   53.4038 N   0  0  0  0  0  0  0  0  0  0  0  0
   56.0270   29.1936   54.7373 C   0  0  0  0  0  0  0  0  0  0  0  0
   54.8408   29.6558   53.9344 C   0  0  0  0  0  0  0  0  0  0  0  0
   54.9608   29.8652   52.5500 C   0  0  0  0  0  0  0  0  0  0  0  0
   53.8680   30.3257   51.8083 C   0  0  0  0  0  0  0  0  0  0  0  0
   52.6498   30.5868   52.4447 C   0  0  0  0  0  0  0  0  0  0  0  0
   51.5655   31.0446   51.7060 O   0  0  0  0  0  0  0  0  0  0  0  0
   52.5242   30.3883   53.8225 C   0  0  0  0  0  0  0  0  0  0  0  0
   53.6161   29.9282   54.5670 C   0  0  0  0  0  0  0  0  0  0  0  0
   60.5527   29.0361   52.5718 C   0  0  0  0  0  0  0  0  0  0  0  0
   60.4853   29.2533   51.0911 C   0  0  0  0  0  0  0  0  0  0  0  0
   60.7091   28.2876   50.3119 O   0  0  0  0  0  0  0  0  0  0  0  0
   60.1240   30.5401   50.5723 N   0  0  0  0  0  0  0  0  0  0  0  0
   59.8408   31.2396   51.2045 H   0  0  0  0  0  0  0  0  0  0  0  0
   60.1575   30.8592   49.1479 C   0  0  0  0  0  0  0  0  0  0  0  0
   61.3458   31.7468   48.8496 C   0  0  0  0  0  0  0  0  0  0  0  0
   62.0781   31.4819   47.6775 C   0  0  0  0  0  0  0  0  0  0  0  0
   63.1102   32.3279   47.2716 C   0  0  0  0  0  0  0  0  0  0  0  0
   63.4153   33.4641   48.0183 C   0  0  0  0  0  0  0  0  0  0  0  0
   62.6957   33.7514   49.1790 C   0  0  0  0  0  0  0  0  0  0  0  0
   61.6660   32.8991   49.6159 C   0  0  0  0  0  0  0  0  0  0  0  0
   60.9703   33.2524   50.8702 C   0  0  0  0  0  0  0  0  0  0  0  0
   61.6209   33.1029   52.1292 N   0  0  0  0  0  0  0  0  0  0  0  0
   59.8161   33.7569   50.8242 O   0  0  0  0  0  0  0  0  0  0  0  0
   62.5225   32.7099   52.1738 H   0  0  0  0  0  0  0  0  0  0  0  0
  1  2  1  0
  2  3  1  0
  3  4  2  0
  4  9  1  0
  9 10  1  0
 10 11  2  0
 11 12  1  0
 12 13  2  0
 13 14  1  0
 13 15  1  0
 15 16  2  0
  4  5  1  0
  5  6  2  0
  5  7  1  0
  7 17  1  0
 17 18  1  0
 18 19  2  0
 18 20  1  0
 20 22  1  0
 22 23  1  0
 23 24  2  0
 24 25  1  0
 25 26  2  0
 26 27  1  0
 27 28  2  0
 28 29  1  0
 29 30  1  0
 29 31  2  0
  7  8  1  0
  8  2  2  0
 16 10  1  0
 28 23  1  0
 20 21  1  0
 30 32  1  0
M  CHG 1  14  -1
M  CHG 1  30  -1
M  END
> <UniqueID>
28

> <SMILES>
Cc1cc(Cc2ccc([O-])cc2)c(=O)n(CC(=O)NCc2ccccc2C([NH-])=O)n1

> <Energy>
55.78928038781103

> <Genealogy>
Cc1cc(Cc2ccc([O-])cc2)c(=O)n(CC(=O)NCc2ccccc2C([NH-])=O)n1 (protonated)
Cc1cc(Cc2ccc([O-])cc2)c(=O)n(CC(=O)NCc2ccccc2C([NH-])=O)n1 (3D coordinates assigned)
Cc1cc(Cc2ccc([O-])cc2)c(=O)n(CC(=O)NCc2ccccc2C([NH-])=O)n1 (optimized conformer: 55.78928038781103 kcal/mol)

> <smiles>
Cc1cc(Cc2ccc(O)cc2)c(=O)n(CC(=O)NCc2ccccc2C(N)=O)n1

> <score_type>
oracle

> <origin>
adg

> <m_score__min__energy>
-15.029999999999999

> <m_primary>
energy

> <minimizedAffinity>
-6.09474

> <minimizedRMSD>
1.41041

> <CNNscore>
0.1142361388

> <CNNaffinity>
4.7649040222

> <CNN_VS>
0.5443242192

> <CNNaffinity_variance>
0.2736003399

$$$$
48:0


 25 27  0  0  0  0  0  0  0  0999 V2000
   57.7462   30.6902   45.3163 C   0  0  0  0  0  0  0  0  0  0  0  0
   58.7388   30.4202   46.2747 C   0  0  0  0  0  0  0  0  0  0  0  0
   59.5420   31.4516   46.7701 C   0  0  0  0  0  0  0  0  0  0  0  0
   59.3702   32.7631   46.3102 C   0  0  0  0  0  0  0  0  0  0  0  0
   58.4011   33.0328   45.3349 C   0  0  0  0  0  0  0  0  0  0  0  0
   57.5973   32.0034   44.8372 C   0  0  0  0  0  0  0  0  0  0  0  0
   60.3752   34.0563   46.9553 S   0  0  0  0  0  0  0  0  0  0  0  0
   61.7988   33.8186   46.5325 O   0  0  0  0  0  0  0  0  0  0  0  0
   59.9132   35.3818   46.4150 O   0  0  0  0  0  0  0  0  0  0  0  0
   60.2685   34.0700   48.6998 N   0  0  0  0  0  0  0  0  0  0  0  0
   61.6011   33.8841   49.3201 C   0  0  0  0  0  0  0  0  0  0  0  0
   61.7675   32.4829   49.9334 C   0  0  0  0  0  0  0  0  0  0  0  0
   60.7880   32.1881   50.9189 O   0  0  0  0  0  0  0  0  0  0  0  0
   59.5021   32.7227   50.6288 C   0  0  0  0  0  0  0  0  0  0  0  0
   59.2791   33.0735   49.1486 C   0  0  0  0  0  0  0  0  0  0  0  0
   55.6799   29.8440   44.5292 O   0  0  0  0  0  0  0  0  0  0  0  0
   56.8890   29.6025   44.7869 C   0  0  0  0  0  0  0  0  0  0  0  0
   57.4024   28.2916   44.5027 N   0  0  0  0  0  0  0  0  0  0  0  0
   58.0639   27.5314   45.3284 C   0  0  0  0  0  0  0  0  0  0  0  0
   59.4224   27.6240   45.4354 N   0  0  0  0  0  0  0  0  0  0  0  0
   60.1315   26.8515   46.3000 C   0  0  0  0  0  0  0  0  0  0  0  0
   59.4727   25.9319   47.1186 C   0  0  0  0  0  0  0  0  0  0  0  0
   58.0839   25.8233   47.0402 C   0  0  0  0  0  0  0  0  0  0  0  0
   57.3702   26.6266   46.1456 C   0  0  0  0  0  0  0  0  0  0  0  0
   55.9850   26.5184   46.0717 O   0  0  0  0  0  0  0  0  0  0  0  0
 16 17  2  0
 17 18  1  0
 18 19  2  0
 19 20  1  0
 20 21  1  0
 21 22  2  0
 22 23  1  0
 23 24  2  0
 24 25  1  0
 17  1  1  0
  1  2  2  0
  2  3  1  0
  3  4  2  0
  4  7  1  0
  7  8  2  0
  7  9  2  0
  7 10  1  0
 10 11  1  0
 11 12  1  0
 12 13  1  0
 13 14  1  0
 14 15  1  0
  4  5  1  0
  5  6  2  0
 24 19  1  0
  6  1  1  0
 15 10  1  0
M  CHG 1  20  -1
M  CHG 1  25  -1
M  END
> <UniqueID>
43

> <SMILES>
O=C(N=c1[n-]cccc1[O-])c1ccc(S(=O)(=O)N2CCOCC2)cc1

> <Energy>
62.78110470067429

> <Genealogy>
O=C(N=c1[n-]cccc1[O-])c1ccc(S(=O)(=O)N2CCOCC2)cc1 (protonated)
O=C(N=c1[n-]cccc1[O-])c1ccc(S(=O)(=O)N2CCOCC2)cc1 (3D coordinates assigned)
O=C(N=c1[n-]cccc1[O-])c1ccc(S(=O)(=O)N2CCOCC2)cc1 (nonaromatic ring conformer: 62.78110470067429 kcal/mol)

> <smiles>
O=C(N=c1[nH]cccc1O)c1ccc(S(=O)(=O)N2CCOCC2)cc1

> <score_type>
oracle

> <origin>
adg

> <m_score__min__energy>
-14.02

> <m_primary>
energy

> <minimizedAffinity>
-7.65646

> <minimizedRMSD>
0.65482

> <CNNscore>
0.4784499407

> <CNNaffinity>
6.1622009277

> <CNN_VS>
2.9483046532

> <CNNaffinity_variance>
0.1653482765

$$$$
65:0


 33 35  0  0  0  0  0  0  0  0999 V2000
   56.8689   28.4942   45.5821 N   0  0  0  0  0  0  0  0  0  0  0  0
   57.5251   27.2507   45.8602 C   0  0  0  0  0  0  0  0  0  0  0  0
   58.9255   27.1527   45.8406 C   0  0  0  0  0  0  0  0  0  0  0  0
   59.5476   25.9344   46.1213 C   0  0  0  0  0  0  0  0  0  0  0  0
   58.7794   24.8033   46.4058 C   0  0  0  0  0  0  0  0  0  0  0  0
   57.3797   24.8782   46.3887 C   0  0  0  0  0  0  0  0  0  0  0  0
   56.7548   26.1037   46.0995 C   0  0  0  0  0  0  0  0  0  0  0  0
   55.3647   26.1875   46.0620 O   0  0  0  0  0  0  0  0  0  0  0  0
   56.4098   23.4593   46.7896 S   0  0  0  0  0  0  0  0  0  0  0  0
   57.3008   22.4195   47.4106 O   0  0  0  0  0  0  0  0  0  0  0  0
   55.3352   23.8221   47.7765 O   0  0  0  0  0  0  0  0  0  0  0  0
   55.6893   22.8403   45.3243 N   0  0  0  0  0  0  0  0  0  0  0  0
   55.8360   21.3697   45.2388 C   0  0  0  0  0  0  0  0  0  0  0  0
   56.8910   20.9474   44.2003 C   0  0  0  0  0  0  0  0  0  0  0  0
   56.6080   21.4279   42.8938 O   0  0  0  0  0  0  0  0  0  0  0  0
   56.0091   22.7195   42.8748 C   0  0  0  0  0  0  0  0  0  0  0  0
   56.2410   23.5423   44.1531 C   0  0  0  0  0  0  0  0  0  0  0  0
   57.4867   29.6699   45.0382 C   0  0  0  0  0  0  0  0  0  0  0  0
   56.7572   30.6475   44.7287 O   0  0  0  0  0  0  0  0  0  0  0  0
   58.9816   29.8107   44.9236 C   0  0  0  0  0  0  0  0  0  0  0  0
   58.7774   31.4459   46.8628 N   0  0  0  0  0  0  0  0  0  0  0  0
   59.5440   30.4631   46.1503 C   0  0  0  0  0  0  0  0  0  0  0  0
   60.7016   30.1508   46.5428 O   0  0  0  0  0  0  0  0  0  0  0  0
   57.8745   31.6662   46.5378 H   0  0  0  0  0  0  0  0  0  0  0  0
   59.0585   30.0791   49.4319 N   0  0  0  0  0  0  0  0  0  0  0  0
   59.3891   31.4647   49.2775 C   0  0  0  0  0  0  0  0  0  0  0  0
   59.8885   32.1724   50.3819 C   0  0  0  0  0  0  0  0  0  0  0  0
   60.2832   33.5065   50.2508 C   0  0  0  0  0  0  0  0  0  0  0  0
   60.1894   34.1449   49.0130 C   0  0  0  0  0  0  0  0  0  0  0  0
   59.6930   33.4530   47.9063 C   0  0  0  0  0  0  0  0  0  0  0  0
   59.2718   32.1202   48.0282 C   0  0  0  0  0  0  0  0  0  0  0  0
   59.1488   29.6466   50.3117 H   0  0  0  0  0  0  0  0  0  0  0  0
   58.7411   29.5596   48.6583 H   0  0  0  0  0  0  0  0  0  0  0  0
 25 26  1  0
 26 27  2  0
 27 28  1  0
 28 29  2  0
 29 30  1  0
 30 31  2  0
 31 21  1  0
 21 22  1  0
 22 23  2  0
 22 20  1  0
 20 18  1  0
 18 19  2  0
 18  1  1  0
  1  2  1  0
  2  3  2  0
  3  4  1  0
  4  5  2  0
  5  6  1  0
  6  9  1  0
  9 10  2  0
  9 11  2  0
  9 12  1  0
 12 13  1  0
 13 14  1  0
 14 15  1  0
 15 16  1  0
 16 17  1  0
  6  7  2  0
  7  8  1  0
 31 26  1  0
  7  2  1  0
 17 12  1  0
 25 32  1  0
 25 33  1  0
 21 24  1  0
M  CHG 1   1  -1
M  CHG 1   8  -1
M  END
> <UniqueID>
58

> <SMILES>
Nc1ccccc1NC(=O)CC(=O)[N-]c1cccc(S(=O)(=O)N2CCOCC2)c1[O-]

> <Energy>
67.69097744437525

> <Genealogy>
Nc1ccccc1NC(=O)CC(=O)[N-]c1cccc(S(=O)(=O)N2CCOCC2)c1[O-] (protonated)
Nc1ccccc1NC(=O)CC(=O)[N-]c1cccc(S(=O)(=O)N2CCOCC2)c1[O-] (3D coordinates assigned)
Nc1ccccc1NC(=O)CC(=O)[N-]c1cccc(S(=O)(=O)N2CCOCC2)c1[O-] (nonaromatic ring conformer: 67.69097744437525 kcal/mol)

> <smiles>
Nc1ccccc1NC(=O)CC(=O)Nc1cccc(S(=O)(=O)N2CCOCC2)c1O

> <score_type>
oracle

> <origin>
adg

> <m_score__min__energy>
-15.85

> <m_primary>
energy

> <minimizedAffinity>
-7.50578

> <minimizedRMSD>
1.58792

> <CNNscore>
0.5062385201

> <CNNaffinity>
6.7352557182

> <CNN_VS>
3.4096457958

> <CNNaffinity_variance>
0.5617734790

$$$$
72:0


 29 31  0  0  0  0  0  0  0  0999 V2000
   58.2625   32.6898   45.8246 C   0  0  0  0  0  0  0  0  0  0  0  0
   58.3884   33.7013   44.8555 C   0  0  0  0  0  0  0  0  0  0  0  0
   59.2112   34.7464   45.2502 C   0  0  0  0  0  0  0  0  0  0  0  0
   59.7617   34.4268   46.8047 S   0  0  0  0  0  0  0  0  0  0  0  0
   58.9647   32.9565   46.9981 C   0  0  0  0  0  0  0  0  0  0  0  0
   59.0404   32.1163   48.2046 C   0  0  0  0  0  0  0  0  0  0  0  0
   58.4187   32.4479   49.2500 O   0  0  0  0  0  0  0  0  0  0  0  0
   59.8200   30.9191   48.1837 N   0  0  0  0  0  0  0  0  0  0  0  0
   61.0953   30.8176   47.4878 C   0  0  0  0  0  0  0  0  0  0  0  0
   62.1404   31.5708   48.2557 C   0  0  0  0  0  0  0  0  0  0  0  0
   62.9222   32.5507   47.6264 C   0  0  0  0  0  0  0  0  0  0  0  0
   63.8628   33.2721   48.3644 C   0  0  0  0  0  0  0  0  0  0  0  0
   64.0059   33.0165   49.7289 C   0  0  0  0  0  0  0  0  0  0  0  0
   63.2271   32.0773   50.3299 N   0  0  0  0  0  0  0  0  0  0  0  0
   62.3059   31.3585   49.6337 C   0  0  0  0  0  0  0  0  0  0  0  0
   57.4615   31.5118   45.6505 N   0  0  0  0  0  0  0  0  0  0  0  0
   57.6997   30.4640   44.7002 C   0  0  0  0  0  0  0  0  0  0  0  0
   57.3568   30.6476   43.5026 O   0  0  0  0  0  0  0  0  0  0  0  0
   58.0027   26.8247   45.7435 C   0  0  0  0  0  0  0  0  0  0  0  0
   59.3918   26.6988   45.8753 C   0  0  0  0  0  0  0  0  0  0  0  0
   60.2227   27.7877   45.6033 C   0  0  0  0  0  0  0  0  0  0  0  0
   59.6724   29.0121   45.2136 C   0  0  0  0  0  0  0  0  0  0  0  0
   58.2802   29.1588   45.0962 C   0  0  0  0  0  0  0  0  0  0  0  0
   57.4530   28.0484   45.3404 C   0  0  0  0  0  0  0  0  0  0  0  0
   55.2926   26.0154   46.0914 N   0  0  0  0  0  0  0  0  0  0  0  0
   56.9343   25.4715   46.0980 S   0  0  0  0  0  0  0  0  0  0  0  0
   57.2524   24.8975   47.4515 O   0  0  0  0  0  0  0  0  0  0  0  0
   57.1172   24.4015   45.0588 O   0  0  0  0  0  0  0  0  0  0  0  0
   54.6738   25.2311   46.2969 H   0  0  0  0  0  0  0  0  0  0  0  0
 25 26  1  0
 26 27  2  0
 26 28  2  0
 26 19  1  0
 19 20  2  0
 20 21  1  0
 21 22  2  0
 22 23  1  0
 23 17  1  0
 17 18  2  0
 17 16  1  0
 16  1  1  0
  1  2  1  0
  2  3  2  0
  3  4  1  0
  4  5  1  0
  5  6  1  0
  6  7  2  0
  6  8  1  0
  8  9  1  0
  9 10  1  0
 10 11  2  0
 11 12  1  0
 12 13  2  0
 13 14  1  0
 14 15  2  0
 23 24  2  0
 24 19  1  0
  5  1  2  0
 15 10  1  0
 25 29  1  0
M  CHG 1   8  -1
M  CHG 1  16  -1
M  CHG 1  25  -1
M  END
> <UniqueID>
65

> <SMILES>
[NH-]S(=O)(=O)c1cccc(C(=O)[N-]c2ccsc2C(=O)[N-]Cc2cccnc2)c1

> <Energy>
72.77308989060184

> <Genealogy>
[NH-]S(=O)(=O)c1cccc(C(=O)[N-]c2ccsc2C(=O)[N-]Cc2cccnc2)c1 (protonated)
[NH-]S(=O)(=O)c1cccc(C(=O)[N-]c2ccsc2C(=O)[N-]Cc2cccnc2)c1 (3D coordinates assigned)
[NH-]S(=O)(=O)c1cccc(C(=O)[N-]c2ccsc2C(=O)[N-]Cc2cccnc2)c1 (optimized conformer: 72.77308989060184 kcal/mol)

> <smiles>
NS(=O)(=O)c1cccc(C(=O)Nc2ccsc2C(=O)NCc2cccnc2)c1

> <score_type>
oracle

> <origin>
adg

> <m_score__min__energy>
-14.18

> <m_primary>
energy

> <minimizedAffinity>
-8.45310

> <minimizedRMSD>
0.66324

> <CNNscore>
0.9592191577

> <CNNaffinity>
7.8566341400

> <CNN_VS>
7.5362339020

> <CNNaffinity_variance>
0.1645017117

$$$$
79:0


 26 28  0  0  0  0  0  0  0  0999 V2000
   56.8199   26.4975   55.0703 C   0  0  0  0  0  0  0  0  0  0  0  0
   57.1908   27.5303   54.2995 C   0  0  0  0  0  0  0  0  0  0  0  0
   58.4800   27.5416   53.8802 N   0  0  0  0  0  0  0  0  0  0  0  0
   59.0353   28.6056   53.2603 C   0  0  0  0  0  0  0  0  0  0  0  0
   60.2337   28.5259   52.8739 O   0  0  0  0  0  0  0  0  0  0  0  0
   58.3135   29.7525   53.0767 N   0  0  0  0  0  0  0  0  0  0  0  0
   56.9966   29.7977   53.4662 C   0  0  0  0  0  0  0  0  0  0  0  0
   56.3342   30.8608   53.2905 O   0  0  0  0  0  0  0  0  0  0  0  0
   56.3584   28.6524   54.0083 C   0  0  0  0  0  0  0  0  0  0  0  0
   55.0061   28.6769   54.1787 C   0  0  0  0  0  0  0  0  0  0  0  0
   54.0564   29.5656   53.4748 C   0  0  0  0  0  0  0  0  0  0  0  0
   54.1482   29.7068   52.0822 C   0  0  0  0  0  0  0  0  0  0  0  0
   53.2306   30.5066   51.3929 C   0  0  0  0  0  0  0  0  0  0  0  0
   52.2023   31.1516   52.0868 C   0  0  0  0  0  0  0  0  0  0  0  0
   51.2946   31.9463   51.3958 O   0  0  0  0  0  0  0  0  0  0  0  0
   52.0860   30.9914   53.4722 C   0  0  0  0  0  0  0  0  0  0  0  0
   51.0565   31.6205   54.1643 O   0  0  0  0  0  0  0  0  0  0  0  0
   53.0029   30.1928   54.1633 C   0  0  0  0  0  0  0  0  0  0  0  0
   58.9271   30.8989   52.3711 C   0  0  0  0  0  0  0  0  0  0  0  0
   58.6692   30.8257   50.8577 C   0  0  0  0  0  0  0  0  0  0  0  0
   59.4197   31.8985   50.1106 C   0  0  0  0  0  0  0  0  0  0  0  0
   58.9892   32.3085   48.8353 C   0  0  0  0  0  0  0  0  0  0  0  0
   59.6384   33.3544   48.1751 C   0  0  0  0  0  0  0  0  0  0  0  0
   60.7208   33.9986   48.7797 C   0  0  0  0  0  0  0  0  0  0  0  0
   61.1547   33.5988   50.0468 C   0  0  0  0  0  0  0  0  0  0  0  0
   60.5039   32.5557   50.7139 C   0  0  0  0  0  0  0  0  0  0  0  0
  1  2  2  0
  2  3  1  0
  3  4  1  0
  4  5  2  0
  4  6  1  0
  6 19  1  0
 19 20  1  0
 20 21  1  0
 21 22  2  0
 22 23  1  0
 23 24  2  0
 24 25  1  0
 25 26  2  0
  6  7  1  0
  7  8  2  0
  7  9  1  0
  9 10  2  0
 10 11  1  0
 11 12  2  0
 12 13  1  0
 13 14  2  0
 14 15  1  0
 14 16  1  0
 16 17  1  0
 16 18  2  0
  9  2  1  0
 18 11  1  0
 26 21  1  0
M  CHG 1   3  -1
M  CHG 1  15  -1
M  CHG 1  17  -1
M  END
> <UniqueID>
72

> <SMILES>
C=c1[n-]c(=O)n(CCc2ccccc2)c(=O)c1=Cc1ccc([O-])c([O-])c1

> <Energy>
66.75794745052428

> <Genealogy>
C=c1[n-]c(=O)n(CCc2ccccc2)c(=O)c1=Cc1ccc([O-])c([O-])c1 (protonated)
C=c1[n-]c(=O)n(CCc2ccccc2)c(=O)c1=Cc1ccc([O-])c([O-])c1 (3D coordinates assigned)
C=c1[n-]c(=O)n(CCc2ccccc2)c(=O)c1=Cc1ccc([O-])c([O-])c1 (optimized conformer: 66.75794745052428 kcal/mol)

> <smiles>
C=c1[nH]c(=O)n(CCc2ccccc2)c(=O)c1=Cc1ccc(O)c(O)c1

> <score_type>
oracle

> <origin>
adg

> <m_score__min__energy>
-17.690000000000001

> <m_primary>
energy

> <minimizedAffinity>
-5.63108

> <minimizedRMSD>
1.82289

> <CNNscore>
0.3655219972

> <CNNaffinity>
5.3546309471

> <CNN_VS>
1.9572354555

> <CNNaffinity_variance>
0.0099257780

$$$$
87:0


 27 29  0  0  0  0  0  0  0  0999 V2000
   59.1875   31.1699   47.5071 C   0  0  0  0  0  0  0  0  0  0  0  0
   59.8196   30.7447   48.6814 C   0  0  0  0  0  0  0  0  0  0  0  0
   60.2602   29.4271   48.8117 C   0  0  0  0  0  0  0  0  0  0  0  0
   60.0865   28.5238   47.7622 C   0  0  0  0  0  0  0  0  0  0  0  0
   59.4709   28.9350   46.5693 C   0  0  0  0  0  0  0  0  0  0  0  0
   59.0328   30.2641   46.4412 C   0  0  0  0  0  0  0  0  0  0  0  0
   58.7773   32.5417   47.4072 N   0  0  0  0  0  0  0  0  0  0  0  0
   59.6295   33.6896   47.2996 C   0  0  0  0  0  0  0  0  0  0  0  0
   59.1710   34.7674   46.8296 O   0  0  0  0  0  0  0  0  0  0  0  0
   61.3411   33.9241   49.1624 C   0  0  0  0  0  0  0  0  0  0  0  0
   62.6870   33.8813   49.5831 C   0  0  0  0  0  0  0  0  0  0  0  0
   63.7027   33.5542   48.6829 C   0  0  0  0  0  0  0  0  0  0  0  0
   63.3945   33.2668   47.3566 C   0  0  0  0  0  0  0  0  0  0  0  0
   62.0691   33.3114   46.9209 C   0  0  0  0  0  0  0  0  0  0  0  0
   61.0277   33.6455   47.8081 C   0  0  0  0  0  0  0  0  0  0  0  0
   59.8775   33.3787   51.1254 C   0  0  0  0  0  0  0  0  0  0  0  0
   60.3100   34.2272   50.0678 O   0  0  0  0  0  0  0  0  0  0  0  0
   59.3202   27.9736   45.4180 C   0  0  0  0  0  0  0  0  0  0  0  0
   58.2862   26.9166   45.7359 C   0  0  0  0  0  0  0  0  0  0  0  0
   56.9119   27.2082   45.6650 C   0  0  0  0  0  0  0  0  0  0  0  0
   56.4718   28.4652   45.2694 O   0  0  0  0  0  0  0  0  0  0  0  0
   55.9973   26.2569   45.9845 N   0  0  0  0  0  0  0  0  0  0  0  0
   56.3831   25.0151   46.3745 C   0  0  0  0  0  0  0  0  0  0  0  0
   55.5170   24.1508   46.6647 O   0  0  0  0  0  0  0  0  0  0  0  0
   57.7020   24.7061   46.4515 N   0  0  0  0  0  0  0  0  0  0  0  0
   58.6585   25.6218   46.1474 C   0  0  0  0  0  0  0  0  0  0  0  0
   59.8721   25.2956   46.2348 O   0  0  0  0  0  0  0  0  0  0  0  0
 16 17  1  0
 17 10  1  0
 10 11  2  0
 11 12  1  0
 12 13  2  0
 13 14  1  0
 14 15  2  0
 15  8  1  0
  8  9  2  0
  8  7  1  0
  7  1  1  0
  1  2  2  0
  2  3  1  0
  3  4  2  0
  4  5  1  0
  5 18  1  0
 18 19  1  0
 19 20  2  0
 20 21  1  0
 20 22  1  0
 22 23  1  0
 23 24  2  0
 23 25  1  0
 25 26  1  0
 26 27  2  0
  5  6  2  0
 15 10  1  0
  6  1  1  0
 26 19  1  0
M  CHG 1   7  -1
M  CHG 1  21  -1
M  CHG 1  22  -1
M  CHG 1  25  -1
M  END
> <UniqueID>
79

> <SMILES>
COc1ccccc1C(=O)[N-]c1cccc(Cc2c([O-])[n-]c(=O)[n-]c2=O)c1

> <Energy>
50.51836348894649

> <Genealogy>
COc1ccccc1C(=O)[N-]c1cccc(Cc2c([O-])[n-]c(=O)[n-]c2=O)c1 (protonated)
COc1ccccc1C(=O)[N-]c1cccc(Cc2c([O-])[n-]c(=O)[n-]c2=O)c1 (3D coordinates assigned)
COc1ccccc1C(=O)[N-]c1cccc(Cc2c([O-])[n-]c(=O)[n-]c2=O)c1 (optimized conformer: 50.51836348894649 kcal/mol)

> <smiles>
COc1ccccc1C(=O)Nc1cccc(Cc2c(O)[nH]c(=O)[nH]c2=O)c1

> <score_type>
oracle

> <origin>
adg

> <m_score__min__energy>
-16.75

> <m_primary>
energy

> <minimizedAffinity>
-7.49644

> <minimizedRMSD>
0.70343

> <CNNscore>
0.3821716011

> <CNNaffinity>
6.7890601158

> <CNN_VS>
2.5945858955

> <CNNaffinity_variance>
1.0346888304

$$$$
6:0


 28 30  0  0  0  0  0  0  0  0999 V2000
   58.7717   30.3810   45.6838 C   0  0  0  0  0  0  0  0  0  0  0  0
   57.9931   31.2772   44.9408 C   0  0  0  0  0  0  0  0  0  0  0  0
   57.0127   30.8175   44.0689 O   0  0  0  0  0  0  0  0  0  0  0  0
   58.1880   32.6113   45.0743 N   0  0  0  0  0  0  0  0  0  0  0  0
   59.1228   33.1104   45.9203 C   0  0  0  0  0  0  0  0  0  0  0  0
   59.2804   34.3599   45.9904 O   0  0  0  0  0  0  0  0  0  0  0  0
   59.8908   32.2640   46.6775 N   0  0  0  0  0  0  0  0  0  0  0  0
   59.7152   30.9075   46.5792 C   0  0  0  0  0  0  0  0  0  0  0  0
   60.4070   30.1223   47.2871 O   0  0  0  0  0  0  0  0  0  0  0  0
   60.9006   32.8001   47.5590 C   0  0  0  0  0  0  0  0  0  0  0  0
   62.2297   32.9178   47.1195 C   0  0  0  0  0  0  0  0  0  0  0  0
   63.2075   33.4404   47.9718 C   0  0  0  0  0  0  0  0  0  0  0  0
   62.8650   33.8473   49.2644 C   0  0  0  0  0  0  0  0  0  0  0  0
   61.5425   33.7339   49.7073 C   0  0  0  0  0  0  0  0  0  0  0  0
   60.5630   33.2123   48.8576 C   0  0  0  0  0  0  0  0  0  0  0  0
   57.9335   28.1414   46.3966 C   0  0  0  0  0  0  0  0  0  0  0  0
   58.6107   28.9164   45.5347 C   0  0  0  0  0  0  0  0  0  0  0  0
   54.7051   24.4663   45.9571 O   0  0  0  0  0  0  0  0  0  0  0  0
   56.0279   24.9019   45.9908 C   0  0  0  0  0  0  0  0  0  0  0  0
   56.3237   26.2580   46.1765 C   0  0  0  0  0  0  0  0  0  0  0  0
   57.6531   26.6992   46.1962 C   0  0  0  0  0  0  0  0  0  0  0  0
   58.6915   25.7567   46.0818 C   0  0  0  0  0  0  0  0  0  0  0  0
   58.4037   24.3958   45.8770 C   0  0  0  0  0  0  0  0  0  0  0  0
   57.0671   23.9753   45.8343 C   0  0  0  0  0  0  0  0  0  0  0  0
   56.7695   22.6317   45.6380 O   0  0  0  0  0  0  0  0  0  0  0  0
   54.0063   25.0818   46.0612 H   0  0  0  0  0  0  0  0  0  0  0  0
   59.4166   23.4371   45.7114 O   0  0  0  0  0  0  0  0  0  0  0  0
   59.3616   22.3613   44.7789 C   0  0  0  0  0  0  0  0  0  0  0  0
 18 19  1  0
 19 20  2  0
 20 21  1  0
 21 16  1  0
 16 17  2  0
 17  1  1  0
  1  2  2  0
  2  3  1  0
  2  4  1  0
  4  5  1  0
  5  6  2  0
  5  7  1  0
  7 10  1  0
 10 11  2  0
 11 12  1  0
 12 13  2  0
 13 14  1  0
 14 15  2  0
  7  8  1  0
  8  9  2  0
 21 22  2  0
 22 23  1  0
 23 27  1  0
 27 28  1  0
 23 24  2  0
 24 25  1  0
 24 19  1  0
  8  1  1  0
 15 10  1  0
 18 26  1  0
M  CHG 1   3  -1
M  CHG 1   4  -1
M  CHG 1  25  -1
M  END
> <UniqueID>
7

> <SMILES>
COc1cc(/C=C\c2c([O-])[n-]c(=O)n(-c3ccccc3)c2=O)cc(O)c1[O-]

> <Energy>
63.97521721191127

> <Genealogy>
COc1cc(C=Cc2c([O-])[n-]c(=O)n(-c3ccccc3)c2=O)cc(O)c1[O-] (protonated)
COc1cc(/C=C\c2c([O-])[n-]c(=O)n(-c3ccccc3)c2=O)cc(O)c1[O-] (cis-trans isomerization)
COc1cc(/C=C\c2c([O-])[n-]c(=O)n(-c3ccccc3)c2=O)cc(O)c1[O-] (3D coordinates assigned)
COc1cc(/C=C\c2c([O-])[n-]c(=O)n(-c3ccccc3)c2=O)cc(O)c1[O-] (optimized conformer: 63.97521721191127 kcal/mol)

> <smiles>
COc1cc(C=Cc2c(O)[nH]c(=O)n(-c3ccccc3)c2=O)cc(O)c1O

> <score_type>
oracle

> <origin>
adg

> <m_score__min__energy>
-14.140000000000001

> <m_primary>
energy

> <minimizedAffinity>
-8.53770

> <minimizedRMSD>
2.31541

> <CNNscore>
0.7818403840

> <CNNaffinity>
7.0100040436

> <CNN_VS>
5.4807043076

> <CNNaffinity_variance>
0.4493705332

$$$$
14:0


 25 27  0  0  0  0  0  0  0  0999 V2000
   58.1642   31.8463   45.7844 C   0  0  0  0  0  0  0  0  0  0  0  0
   59.0632   32.9238   45.6261 C   0  0  0  0  0  0  0  0  0  0  0  0
   60.1851   33.0547   46.4614 C   0  0  0  0  0  0  0  0  0  0  0  0
   60.3998   32.0863   47.4415 C   0  0  0  0  0  0  0  0  0  0  0  0
   59.5289   31.0170   47.5924 C   0  0  0  0  0  0  0  0  0  0  0  0
   58.4118   30.8658   46.7684 C   0  0  0  0  0  0  0  0  0  0  0  0
   59.9595   30.2307   48.5725 C   0  0  0  0  0  0  0  0  0  0  0  0
   61.1825   30.8824   49.0160 C   0  0  0  0  0  0  0  0  0  0  0  0
   61.9523   30.4716   49.9240 O   0  0  0  0  0  0  0  0  0  0  0  0
   61.4061   32.0669   48.2581 N   0  0  0  0  0  0  0  0  0  0  0  0
   57.0559   31.7378   44.8795 N   0  0  0  0  0  0  0  0  0  0  0  0
   56.8001   30.1621   42.8689 C   0  0  0  0  0  0  0  0  0  0  0  0
   56.5372   30.5341   44.2968 C   0  0  0  0  0  0  0  0  0  0  0  0
   55.8704   29.7463   45.0182 O   0  0  0  0  0  0  0  0  0  0  0  0
   59.4007   28.9161   49.0269 C   0  0  0  0  0  0  0  0  0  0  0  0
   59.9658   27.8093   48.1972 C   0  0  0  0  0  0  0  0  0  0  0  0
   60.8990   27.0970   48.6588 O   0  0  0  0  0  0  0  0  0  0  0  0
   59.4370   27.5688   46.8871 N   0  0  0  0  0  0  0  0  0  0  0  0
   58.6179   26.4625   46.4883 C   0  0  0  0  0  0  0  0  0  0  0  0
   59.1709   25.2435   46.0531 C   0  0  0  0  0  0  0  0  0  0  0  0
   58.3342   24.1982   45.6449 C   0  0  0  0  0  0  0  0  0  0  0  0
   56.9467   24.3661   45.6519 C   0  0  0  0  0  0  0  0  0  0  0  0
   56.3933   25.5834   46.0591 C   0  0  0  0  0  0  0  0  0  0  0  0
   55.0137   25.7545   46.0544 O   0  0  0  0  0  0  0  0  0  0  0  0
   57.2264   26.6294   46.4682 C   0  0  0  0  0  0  0  0  0  0  0  0
 12 13  1  0
 13 14  2  0
 13 11  1  0
 11  1  1  0
  1  2  1  0
  2  3  2  0
  3  4  1  0
  4  5  1  0
  5  6  1  0
  5  7  2  0
  7 15  1  0
 15 16  1  0
 16 17  2  0
 16 18  1  0
 18 19  1  0
 19 20  2  0
 20 21  1  0
 21 22  2  0
 22 23  1  0
 23 24  1  0
 23 25  2  0
  7  8  1  0
  8  9  2  0
  8 10  1  0
  6  1  2  0
 25 19  1  0
 10  4  2  0
M  CHG 1  11  -1
M  CHG 1  18  -1
M  CHG 1  24  -1
M  END
> <UniqueID>
15

> <SMILES>
CC(=O)[N-]c1ccc2c(c1)=C(CC(=O)[N-]c1cccc([O-])c1)C(=O)N=2

> <Energy>
75.37351865335854

> <Genealogy>
CC(=O)[N-]c1ccc2c(c1)=C(CC(=O)[N-]c1cccc([O-])c1)C(=O)N=2 (protonated)
CC(=O)[N-]c1ccc2c(c1)=C(CC(=O)[N-]c1cccc([O-])c1)C(=O)N=2 (3D coordinates assigned)
CC(=O)[N-]c1ccc2c(c1)=C(CC(=O)[N-]c1cccc([O-])c1)C(=O)N=2 (nonaromatic ring conformer: 75.37351865335854 kcal/mol)

> <smiles>
CC(=O)Nc1ccc2c(c1)=C(CC(=O)Nc1cccc(O)c1)C(=O)N=2

> <score_type>
oracle

> <origin>
adg

> <m_score__min__energy>
-14.890000000000001

> <m_primary>
energy

> <minimizedAffinity>
-6.69668

> <minimizedRMSD>
0.82689

> <CNNscore>
0.2722782195

> <CNNaffinity>
6.3443045616

> <CNN_VS>
1.7274159193

> <CNNaffinity_variance>
0.1382193118

$$$$
18:0


 31 33  0  0  0  0  0  0  0  0999 V2000
   60.2415   30.0007   48.0993 N   0  0  0  0  0  0  0  0  0  0  0  0
   60.4717   31.3066   47.7145 C   0  0  0  0  0  0  0  0  0  0  0  0
   59.6747   31.8849   46.7096 C   0  0  0  0  0  0  0  0  0  0  0  0
   59.9245   33.5362   46.1551 Cl  0  0  0  0  0  0  0  0  0  0  0  0
   58.6897   31.1556   46.1345 N   0  0  0  0  0  0  0  0  0  0  0  0
   58.4438   29.8737   46.5023 C   0  0  0  0  0  0  0  0  0  0  0  0
   57.4874   29.1942   45.9381 N   0  0  0  0  0  0  0  0  0  0  0  0
   59.2303   29.2833   47.5013 C   0  0  0  0  0  0  0  0  0  0  0  0
   58.9944   28.0915   47.8473 O   0  0  0  0  0  0  0  0  0  0  0  0
   61.5469   32.1207   48.3274 C   0  0  0  0  0  0  0  0  0  0  0  0
   62.8036   32.2092   47.7092 C   0  0  0  0  0  0  0  0  0  0  0  0
   63.8233   32.9637   48.2977 C   0  0  0  0  0  0  0  0  0  0  0  0
   63.5954   33.6242   49.5092 C   0  0  0  0  0  0  0  0  0  0  0  0
   62.3494   33.5277   50.1368 C   0  0  0  0  0  0  0  0  0  0  0  0
   62.1311   34.1625   51.3136 F   0  0  0  0  0  0  0  0  0  0  0  0
   61.3276   32.7738   49.5495 C   0  0  0  0  0  0  0  0  0  0  0  0
   61.0257   29.3775   49.1913 C   0  0  0  0  0  0  0  0  0  0  0  0
   60.6202   29.9381   50.5562 C   0  0  0  0  0  0  0  0  0  0  0  0
   59.3611   29.3417   50.9897 N   0  0  0  0  0  0  0  0  0  0  0  0
   58.8821   31.2978   53.0194 C   0  0  0  0  0  0  0  0  0  0  0  0
   58.2691   30.5885   51.5091 S   0  0  0  0  0  0  0  0  0  0  0  0
   58.1753   31.6605   50.4602 O   0  0  0  0  0  0  0  0  0  0  0  0
   56.9059   30.0050   51.7557 O   0  0  0  0  0  0  0  0  0  0  0  0
   57.6933   28.2163   44.8740 C   0  0  0  0  0  0  0  0  0  0  0  0
   57.8033   26.8422   45.4741 C   0  0  0  0  0  0  0  0  0  0  0  0
   59.0533   26.2042   45.5412 C   0  0  0  0  0  0  0  0  0  0  0  0
   59.1703   24.9400   46.1253 C   0  0  0  0  0  0  0  0  0  0  0  0
   58.0431   24.3075   46.6580 C   0  0  0  0  0  0  0  0  0  0  0  0
   56.7987   24.9403   46.6117 C   0  0  0  0  0  0  0  0  0  0  0  0
   56.6739   26.2067   46.0288 C   0  0  0  0  0  0  0  0  0  0  0  0
   55.4294   26.8264   46.0056 O   0  0  0  0  0  0  0  0  0  0  0  0
 20 21  1  0
 21 22  2  0
 21 23  2  0
 21 19  1  0
 19 18  1  0
 18 17  1  0
 17  1  1  0
  1  2  1  0
  2 10  1  0
 10 11  2  0
 11 12  1  0
 12 13  2  0
 13 14  1  0
 14 15  1  0
 14 16  2  0
  2  3  2  0
  3  4  1  0
  3  5  1  0
  5  6  1  0
  6  7  2  0
  7 24  1  0
 24 25  1  0
 25 26  2  0
 26 27  1  0
 27 28  2  0
 28 29  1  0
 29 30  2  0
 30 31  1  0
  6  8  1  0
  8  9  2  0
  8  1  1  0
 16 10  1  0
 30 25  1  0
M  CHG 1   5  -1
M  CHG 1  19  -1
M  CHG 1  31  -1
M  END
> <UniqueID>
19

> <SMILES>
CS(=O)(=O)[N-]CCn1c(-c2cccc(F)c2)c(Cl)[n-]c(=NCc2ccccc2[O-])c1=O

> <Energy>
55.63867722438255

> <Genealogy>
CS(=O)(=O)[N-]CCn1c(-c2cccc(F)c2)c(Cl)[n-]c(=NCc2ccccc2[O-])c1=O (protonated)
CS(=O)(=O)[N-]CCn1c(-c2cccc(F)c2)c(Cl)[n-]c(=NCc2ccccc2[O-])c1=O (3D coordinates assigned)
CS(=O)(=O)[N-]CCn1c(-c2cccc(F)c2)c(Cl)[n-]c(=NCc2ccccc2[O-])c1=O (optimized conformer: 55.63867722438255 kcal/mol)

> <smiles>
CS(=O)(=O)NCCn1c(-c2cccc(F)c2)c(Cl)[nH]c(=NCc2ccccc2O)c1=O

> <score_type>
oracle

> <origin>
adg

> <m_score__min__energy>
-14.34

> <m_primary>
energy

> <minimizedAffinity>
-6.15756

> <minimizedRMSD>
0.79828

> <CNNscore>
0.5947650671

> <CNNaffinity>
7.1665940285

> <CNN_VS>
4.2624397278

> <CNNaffinity_variance>
0.2154309601

$$$$
25:0


 31 33  0  0  0  0  0  0  0  0999 V2000
   59.4850   34.3178   45.9091 C   0  0  0  0  0  0  0  0  0  0  0  0
   59.6540   35.5613   46.0100 O   0  0  0  0  0  0  0  0  0  0  0  0
   59.7200   33.4640   47.0901 C   0  0  0  0  0  0  0  0  0  0  0  0
   59.8634   34.0356   48.3629 C   0  0  0  0  0  0  0  0  0  0  0  0
   60.0662   33.2244   49.4818 C   0  0  0  0  0  0  0  0  0  0  0  0
   60.1376   31.8326   49.3398 C   0  0  0  0  0  0  0  0  0  0  0  0
   59.9809   31.2572   48.0722 C   0  0  0  0  0  0  0  0  0  0  0  0
   59.7618   32.0679   46.9543 C   0  0  0  0  0  0  0  0  0  0  0  0
   60.3624   30.8098   50.7567 S   0  0  0  0  0  0  0  0  0  0  0  0
   61.0617   31.5874   51.8369 O   0  0  0  0  0  0  0  0  0  0  0  0
   61.2118   29.6336   50.3647 O   0  0  0  0  0  0  0  0  0  0  0  0
   58.8149   30.2474   51.3404 N   0  0  0  0  0  0  0  0  0  0  0  0
   57.9270   31.3886   51.6069 C   0  0  0  0  0  0  0  0  0  0  0  0
   56.5545   30.8809   52.0960 C   0  0  0  0  0  0  0  0  0  0  0  0
   56.5676   29.4979   52.4047 O   0  0  0  0  0  0  0  0  0  0  0  0
   57.6468   29.2087   53.2706 C   0  0  0  0  0  0  0  0  0  0  0  0
   58.9977   29.4506   52.5667 C   0  0  0  0  0  0  0  0  0  0  0  0
   59.0638   33.7752   44.6508 N   0  0  0  0  0  0  0  0  0  0  0  0
   57.8331   33.0182   44.4228 C   0  0  0  0  0  0  0  0  0  0  0  0
   57.9938   32.0295   43.2598 C   0  0  0  0  0  0  0  0  0  0  0  0
   56.9907   30.8699   43.3318 C   0  0  0  0  0  0  0  0  0  0  0  0
   57.1372   30.3713   45.6654 O   0  0  0  0  0  0  0  0  0  0  0  0
   57.2775   29.9464   44.4883 C   0  0  0  0  0  0  0  0  0  0  0  0
   57.8533   28.6498   44.2877 N   0  0  0  0  0  0  0  0  0  0  0  0
   58.6379   27.9291   45.2458 C   0  0  0  0  0  0  0  0  0  0  0  0
   59.9777   28.2878   45.4337 C   0  0  0  0  0  0  0  0  0  0  0  0
   60.7617   27.6193   46.3798 C   0  0  0  0  0  0  0  0  0  0  0  0
   60.2020   26.6043   47.1584 C   0  0  0  0  0  0  0  0  0  0  0  0
   58.8596   26.2553   46.9946 C   0  0  0  0  0  0  0  0  0  0  0  0
   58.0716   26.9191   46.0478 C   0  0  0  0  0  0  0  0  0  0  0  0
   56.7262   26.5872   45.9269 O   0  0  0  0  0  0  0  0  0  0  0  0
 22 23  2  0
 23 21  1  0
 21 20  1  0
 20 19  1  0
 19 18  1  0
 18  1  1  0
  1  2  2  0
  1  3  1  0
  3  4  2  0
  4  5  1  0
  5  6  2  0
  6  9  1  0
  9 10  2  0
  9 11  2  0
  9 12  1  0
 12 13  1  0
 13 14  1  0
 14 15  1  0
 15 16  1  0
 16 17  1  0
  6  7  1  0
  7  8  2  0
 23 24  1  0
 24 25  1  0
 25 26  2  0
 26 27  1  0
 27 28  2  0
 28 29  1  0
 29 30  2  0
 30 31  1  0
  8  3  1  0
 30 25  1  0
 17 12  1  0
M  CHG 1  18  -1
M  CHG 1  24  -1
M  CHG 1  31  -1
M  END
> <UniqueID>
26

> <SMILES>
O=C(CCC[N-]C(=O)c1ccc(S(=O)(=O)N2CCOCC2)cc1)[N-]c1ccccc1[O-]

> <Energy>
64.75627654371617

> <Genealogy>
O=C(CCC[N-]C(=O)c1ccc(S(=O)(=O)N2CCOCC2)cc1)[N-]c1ccccc1[O-] (protonated)
O=C(CCC[N-]C(=O)c1ccc(S(=O)(=O)N2CCOCC2)cc1)[N-]c1ccccc1[O-] (3D coordinates assigned)
O=C(CCC[N-]C(=O)c1ccc(S(=O)(=O)N2CCOCC2)cc1)[N-]c1ccccc1[O-] (nonaromatic ring conformer: 64.75627654371617 kcal/mol)

> <smiles>
O=C(CCCNC(=O)c1ccc(S(=O)(=O)N2CCOCC2)cc1)Nc1ccccc1O

> <score_type>
oracle

> <origin>
adg

> <m_score__min__energy>
-16.43

> <m_primary>
energy

> <minimizedAffinity>
-6.82581

> <minimizedRMSD>
1.45194

> <CNNscore>
0.4794940948

> <CNNaffinity>
6.9597377777

> <CNN_VS>
3.3371531963

> <CNNaffinity_variance>
0.1538783908

$$$$
31:0


 28 30  0  0  0  0  0  0  0  0999 V2000
   56.7225   24.9294   46.4395 C   0  0  0  0  0  0  0  0  0  0  0  0
   57.9922   24.3414   46.4074 C   0  0  0  0  0  0  0  0  0  0  0  0
   59.1108   25.0927   46.0430 C   0  0  0  0  0  0  0  0  0  0  0  0
   58.9683   26.4349   45.6874 C   0  0  0  0  0  0  0  0  0  0  0  0
   57.6997   27.0311   45.6723 C   0  0  0  0  0  0  0  0  0  0  0  0
   56.5719   26.2739   46.0377 C   0  0  0  0  0  0  0  0  0  0  0  0
   55.3045   26.8472   45.9715 O   0  0  0  0  0  0  0  0  0  0  0  0
   57.5206   28.7193   45.1867 S   0  0  0  0  0  0  0  0  0  0  0  0
   56.0614   29.0824   45.2189 O   0  0  0  0  0  0  0  0  0  0  0  0
   58.0257   28.9046   43.7832 O   0  0  0  0  0  0  0  0  0  0  0  0
   58.4186   29.7708   46.2525 N   0  0  0  0  0  0  0  0  0  0  0  0
   59.2114   29.1753   47.3386 C   0  0  0  0  0  0  0  0  0  0  0  0
   59.2086   30.0544   48.5547 C   0  0  0  0  0  0  0  0  0  0  0  0
   59.4046   29.5585   49.6944 O   0  0  0  0  0  0  0  0  0  0  0  0
   59.0620   31.4661   48.4113 N   0  0  0  0  0  0  0  0  0  0  0  0
   58.7593   32.0404   47.1396 C   0  0  0  0  0  0  0  0  0  0  0  0
   58.7633   33.4305   46.9860 C   0  0  0  0  0  0  0  0  0  0  0  0
   58.4730   33.9989   45.7438 C   0  0  0  0  0  0  0  0  0  0  0  0
   58.1777   33.1793   44.6522 C   0  0  0  0  0  0  0  0  0  0  0  0
   58.1629   31.7890   44.8011 C   0  0  0  0  0  0  0  0  0  0  0  0
   58.4452   31.2029   46.0521 C   0  0  0  0  0  0  0  0  0  0  0  0
   55.6024   24.1191   46.8197 N   0  0  0  0  0  0  0  0  0  0  0  0
   53.5101   24.3104   45.5187 N   0  0  0  0  0  0  0  0  0  0  0  0
   54.6512   23.5430   45.9183 C   0  0  0  0  0  0  0  0  0  0  0  0
   54.8366   22.3859   45.4515 O   0  0  0  0  0  0  0  0  0  0  0  0
   53.3975   25.2163   45.8874 H   0  0  0  0  0  0  0  0  0  0  0  0
   51.2806   23.2950   45.3383 C   0  0  0  0  0  0  0  0  0  0  0  0
   52.5056   23.8033   44.5854 C   0  0  0  0  0  0  0  0  0  0  0  0
 27 28  1  0
 28 23  1  0
 23 24  1  0
 24 25  2  0
 24 22  1  0
 22  1  1  0
  1  2  2  0
  2  3  1  0
  3  4  2  0
  4  5  1  0
  5  8  1  0
  8  9  2  0
  8 10  2  0
  8 11  1  0
 11 12  1  0
 12 13  1  0
 13 14  2  0
 13 15  1  0
 15 16  1  0
 16 17  2  0
 17 18  1  0
 18 19  2  0
 19 20  1  0
 20 21  2  0
  5  6  2  0
  6  7  1  0
  6  1  1  0
 21 11  1  0
 21 16  1  0
 23 26  1  0
M  CHG 1   7  -1
M  CHG 1  15  -1
M  CHG 1  22  -1
M  END
> <UniqueID>
32

> <SMILES>
CCNC(=O)[N-]c1cccc(S(=O)(=O)N2CC(=O)[N-]c3ccccc32)c1[O-]

> <Energy>
50.37393543228975

> <Genealogy>
CCNC(=O)[N-]c1cccc(S(=O)(=O)N2CC(=O)[N-]c3ccccc32)c1[O-] (protonated)
CCNC(=O)[N-]c1cccc(S(=O)(=O)N2CC(=O)[N-]c3ccccc32)c1[O-] (3D coordinates assigned)
CCNC(=O)[N-]c1cccc(S(=O)(=O)N2CC(=O)[N-]c3ccccc32)c1[O-] (nonaromatic ring conformer: 50.37393543228975 kcal/mol)

> <smiles>
CCNC(=O)Nc1cccc(S(=O)(=O)N2CC(=O)Nc3ccccc32)c1O

> <score_type>
oracle

> <origin>
adg

> <m_score__min__energy>
-15.24

> <m_primary>
energy

> <minimizedAffinity>
-6.91418

> <minimizedRMSD>
0.51320

> <CNNscore>
0.4394906163

> <CNNaffinity>
6.1656413078

> <CNN_VS>
2.7097415924

> <CNNaffinity_variance>
0.0514327437

$$$$
32:0


 32 35  0  0  0  0  0  0  0  0999 V2000
   59.5433   30.0561   50.1615 N   0  0  0  0  0  0  0  0  0  0  0  0
   60.7123   30.6208   50.3926 N   0  0  0  0  0  0  0  0  0  0  0  0
   60.5755   31.2780   51.5630 C   0  0  0  0  0  0  0  0  0  0  0  0
   59.3358   31.1591   52.0966 N   0  0  0  0  0  0  0  0  0  0  0  0
   58.7314   30.3748   51.1833 C   0  0  0  0  0  0  0  0  0  0  0  0
   57.5317   30.0001   51.2756 O   0  0  0  0  0  0  0  0  0  0  0  0
   59.2338   29.2574   48.9807 C   0  0  0  0  0  0  0  0  0  0  0  0
   59.4798   30.0562   47.7325 C   0  0  0  0  0  0  0  0  0  0  0  0
   58.7927   31.0911   47.5283 O   0  0  0  0  0  0  0  0  0  0  0  0
   60.4407   29.6623   46.7424 N   0  0  0  0  0  0  0  0  0  0  0  0
   60.1597   28.9011   45.5265 C   0  0  0  0  0  0  0  0  0  0  0  0
   54.9731   25.7144   46.7318 H   0  0  0  0  0  0  0  0  0  0  0  0
   55.8024   25.4346   46.1603 N   0  0  0  0  0  0  0  0  0  0  0  0
   56.8131   26.2277   46.0029 C   0  0  0  0  0  0  0  0  0  0  0  0
   56.6389   27.4552   45.4487 N   0  0  0  0  0  0  0  0  0  0  0  0
   57.6672   28.3309   45.2729 C   0  0  0  0  0  0  0  0  0  0  0  0
   57.3657   29.6548   44.6358 C   0  0  0  0  0  0  0  0  0  0  0  0
   58.9716   27.9775   45.7037 C   0  0  0  0  0  0  0  0  0  0  0  0
   59.1645   26.6942   46.2455 C   0  0  0  0  0  0  0  0  0  0  0  0
   58.0874   25.8235   46.4052 C   0  0  0  0  0  0  0  0  0  0  0  0
   61.6408   32.1610   52.1322 C   0  0  0  0  0  0  0  0  0  0  0  0
   61.6918   33.5238   51.4240 C   0  0  0  0  0  0  0  0  0  0  0  0
   62.2353   33.4168   50.0088 C   0  0  0  0  0  0  0  0  0  0  0  0
   63.5575   32.9637   49.8572 C   0  0  0  0  0  0  0  0  0  0  0  0
   64.1217   32.7998   48.5952 C   0  0  0  0  0  0  0  0  0  0  0  0
   63.3733   33.0619   47.4509 C   0  0  0  0  0  0  0  0  0  0  0  0
   62.0460   33.4938   47.5598 C   0  0  0  0  0  0  0  0  0  0  0  0
   61.2940   33.7238   46.3967 C   0  0  0  0  0  0  0  0  0  0  0  0
   59.9686   34.1473   46.4893 C   0  0  0  0  0  0  0  0  0  0  0  0
   59.3836   34.3535   47.7378 C   0  0  0  0  0  0  0  0  0  0  0  0
   60.1182   34.1329   48.9049 C   0  0  0  0  0  0  0  0  0  0  0  0
   61.4599   33.6896   48.8431 C   0  0  0  0  0  0  0  0  0  0  0  0
 12 13  1  0
 13 14  2  0
 14 15  1  0
 15 16  1  0
 16 17  1  0
 16 18  2  0
 18 11  1  0
 11 10  1  0
 10  8  1  0
  8  9  2  0
  8  7  1  0
  7  1  1  0
  1  2  1  0
  2  3  1  0
  3 21  1  0
 21 22  1  0
 22 23  1  0
 23 24  2  0
 24 25  1  0
 25 26  2  0
 26 27  1  0
 27 28  2  0
 28 29  1  0
 29 30  2  0
 30 31  1  0
 31 32  2  0
  3  4  2  0
  4  5  1  0
  5  6  2  0
 18 19  1  0
 19 20  2  0
 20 14  1  0
  5  1  1  0
 32 23  1  0
 32 27  1  0
M  CHG 1   2  -1
M  CHG 1  10  -1
M  CHG 1  15  -1
M  END
> <UniqueID>
33

> <SMILES>
[H]/N=c1/ccc(C[N-]C(=O)Cn2[n-]c(CCc3cccc4ccccc34)nc2=O)c(C)[n-]1

> <Energy>
86.57791356174552

> <Genealogy>
Cc1[n-]c(=N)ccc1C[N-]C(=O)Cn1[n-]c(CCc2cccc3ccccc23)nc1=O (protonated)
[H]/N=c1/ccc(C[N-]C(=O)Cn2[n-]c(CCc3cccc4ccccc34)nc2=O)c(C)[n-]1 (cis-trans isomerization)
[H]/N=c1/ccc(C[N-]C(=O)Cn2[n-]c(CCc3cccc4ccccc34)nc2=O)c(C)[n-]1 (3D coordinates assigned)
[H]/N=c1/ccc(C[N-]C(=O)Cn2[n-]c(CCc3cccc4ccccc34)nc2=O)c(C)[n-]1 (optimized conformer: 86.57791356174552 kcal/mol)

> <smiles>
Cc1[nH]c(=N)ccc1CNC(=O)Cn1[nH]c(CCc2cccc3ccccc23)nc1=O

> <score_type>
oracle

> <origin>
adg

> <m_score__min__energy>
-14.550000000000001

> <m_primary>
energy

> <minimizedAffinity>
-7.78866

> <minimizedRMSD>
0.73000

> <CNNscore>
0.4102765918

> <CNNaffinity>
6.8580069542

> <CNN_VS>
2.8136796951

> <CNNaffinity_variance>
0.0402364545

$$$$
36:0


 33 35  0  0  0  0  0  0  0  0999 V2000
   58.2187   27.5044   43.8069 C   0  0  0  0  0  0  0  0  0  0  0  0
   58.3429   28.7060   44.6550 N   0  0  0  0  0  0  0  0  0  0  0  0
   59.2649   28.7461   45.6772 C   0  0  0  0  0  0  0  0  0  0  0  0
   59.3681   29.8559   46.4523 N   0  0  0  0  0  0  0  0  0  0  0  0
   58.6107   30.9599   46.2509 C   0  0  0  0  0  0  0  0  0  0  0  0
   57.6835   30.9630   45.1993 C   0  0  0  0  0  0  0  0  0  0  0  0
   56.8912   32.0877   44.9499 O   0  0  0  0  0  0  0  0  0  0  0  0
   57.5691   29.8129   44.4021 C   0  0  0  0  0  0  0  0  0  0  0  0
   56.7465   29.8138   43.4444 O   0  0  0  0  0  0  0  0  0  0  0  0
   56.9764   32.8496   45.4886 H   0  0  0  0  0  0  0  0  0  0  0  0
   58.8107   32.1217   47.1434 C   0  0  0  0  0  0  0  0  0  0  0  0
   58.6452   32.0172   48.3890 O   0  0  0  0  0  0  0  0  0  0  0  0
   59.1960   33.3806   46.5801 N   0  0  0  0  0  0  0  0  0  0  0  0
   59.8123   34.4555   47.3492 C   0  0  0  0  0  0  0  0  0  0  0  0
   61.1514   34.0160   47.8766 C   0  0  0  0  0  0  0  0  0  0  0  0
   61.3958   34.0163   49.2585 C   0  0  0  0  0  0  0  0  0  0  0  0
   62.6284   33.5788   49.7562 C   0  0  0  0  0  0  0  0  0  0  0  0
   63.6186   33.1320   48.8784 C   0  0  0  0  0  0  0  0  0  0  0  0
   64.8129   32.7070   49.3614 F   0  0  0  0  0  0  0  0  0  0  0  0
   63.3804   33.1234   47.5010 C   0  0  0  0  0  0  0  0  0  0  0  0
   62.1500   33.5606   46.9994 C   0  0  0  0  0  0  0  0  0  0  0  0
   60.1603   27.5788   46.0178 C   0  0  0  0  0  0  0  0  0  0  0  0
   59.6767   26.8764   47.2479 C   0  0  0  0  0  0  0  0  0  0  0  0
   60.4265   26.8028   48.2588 O   0  0  0  0  0  0  0  0  0  0  0  0
   58.3522   26.3292   47.2737 N   0  0  0  0  0  0  0  0  0  0  0  0
   57.9139   25.1048   46.6684 C   0  0  0  0  0  0  0  0  0  0  0  0
   58.7165   24.3846   45.7649 C   0  0  0  0  0  0  0  0  0  0  0  0
   58.2372   23.2048   45.1850 C   0  0  0  0  0  0  0  0  0  0  0  0
   56.9519   22.7411   45.4870 C   0  0  0  0  0  0  0  0  0  0  0  0
   56.3690   21.2583   44.7502 Cl  0  0  0  0  0  0  0  0  0  0  0  0
   56.1388   23.4698   46.3664 C   0  0  0  0  0  0  0  0  0  0  0  0
   54.8543   23.0284   46.6668 O   0  0  0  0  0  0  0  0  0  0  0  0
   56.6182   24.6497   46.9463 C   0  0  0  0  0  0  0  0  0  0  0  0
  1  2  1  0
  2  3  1  0
  3 22  1  0
 22 23  1  0
 23 24  2  0
 23 25  1  0
 25 26  1  0
 26 27  2  0
 27 28  1  0
 28 29  2  0
 29 30  1  0
 29 31  1  0
 31 32  1  0
 31 33  2  0
  3  4  2  0
  4  5  1  0
  5 11  1  0
 11 12  2  0
 11 13  1  0
 13 14  1  0
 14 15  1  0
 15 16  2  0
 16 17  1  0
 17 18  2  0
 18 19  1  0
 18 20  1  0
 20 21  2  0
  5  6  2  0
  6  7  1  0
  6  8  1  0
  8  9  2  0
  8  2  1  0
 33 26  1  0
 21 15  1  0
  7 10  1  0
M  CHG 1  13  -1
M  CHG 1  25  -1
M  CHG 1  32  -1
M  END
> <UniqueID>
36

> <SMILES>
Cn1c(CC(=O)[N-]c2ccc(Cl)c([O-])c2)nc(C(=O)[N-]Cc2ccc(F)cc2)c(O)c1=O

> <Energy>
56.30878011976466

> <Genealogy>
Cn1c(CC(=O)[N-]c2ccc(Cl)c([O-])c2)nc(C(=O)[N-]Cc2ccc(F)cc2)c(O)c1=O (protonated)
Cn1c(CC(=O)[N-]c2ccc(Cl)c([O-])c2)nc(C(=O)[N-]Cc2ccc(F)cc2)c(O)c1=O (3D coordinates assigned)
Cn1c(CC(=O)[N-]c2ccc(Cl)c([O-])c2)nc(C(=O)[N-]Cc2ccc(F)cc2)c(O)c1=O (optimized conformer: 56.30878011976466 kcal/mol)

> <smiles>
Cn1c(CC(=O)Nc2ccc(Cl)c(O)c2)nc(C(=O)NCc2ccc(F)cc2)c(O)c1=O

> <score_type>
oracle

> <origin>
adg

> <m_score__min__energy>
-14.16

> <m_primary>
energy

> <minimizedAffinity>
-8.49723

> <minimizedRMSD>
1.23862

> <CNNscore>
0.1775761247

> <CNNaffinity>
6.4561591148

> <CNN_VS>
1.1464596987

> <CNNaffinity_variance>
0.1398964673

$$$$
66:0


 33 36  0  0  0  0  0  0  0  0999 V2000
   61.0779   33.1750   47.9489 S   0  0  0  0  0  0  0  0  0  0  0  0
   60.9360   34.3323   48.8985 O   0  0  0  0  0  0  0  0  0  0  0  0
   62.3763   33.3105   47.2040 O   0  0  0  0  0  0  0  0  0  0  0  0
   58.2359   31.8848   45.3592 C   0  0  0  0  0  0  0  0  0  0  0  0
   57.6355   33.0930   44.9574 C   0  0  0  0  0  0  0  0  0  0  0  0
   58.0921   34.3128   45.4638 C   0  0  0  0  0  0  0  0  0  0  0  0
   59.1473   34.3427   46.3769 C   0  0  0  0  0  0  0  0  0  0  0  0
   59.7538   33.1493   46.7897 C   0  0  0  0  0  0  0  0  0  0  0  0
   59.3020   31.9280   46.2759 C   0  0  0  0  0  0  0  0  0  0  0  0
   57.7611   30.5888   44.8195 C   0  0  0  0  0  0  0  0  0  0  0  0
   57.5202   30.4684   43.5868 O   0  0  0  0  0  0  0  0  0  0  0  0
   60.4022   27.5670   46.2509 C   0  0  0  0  0  0  0  0  0  0  0  0
   59.5521   28.5937   45.9897 N   0  0  0  0  0  0  0  0  0  0  0  0
   58.1998   28.4403   45.9597 C   0  0  0  0  0  0  0  0  0  0  0  0
   57.4777   29.4960   45.7083 N   0  0  0  0  0  0  0  0  0  0  0  0
   57.6586   27.1442   46.1658 C   0  0  0  0  0  0  0  0  0  0  0  0
   56.2999   26.8766   46.0485 O   0  0  0  0  0  0  0  0  0  0  0  0
   58.5238   26.0833   46.4480 C   0  0  0  0  0  0  0  0  0  0  0  0
   59.9005   26.2928   46.4956 C   0  0  0  0  0  0  0  0  0  0  0  0
   61.0882   31.6932   48.8560 N   0  0  0  0  0  0  0  0  0  0  0  0
   61.8635   31.0949   48.7557 H   0  0  0  0  0  0  0  0  0  0  0  0
   60.0319   31.2875   49.7452 C   0  0  0  0  0  0  0  0  0  0  0  0
   59.0027   32.1615   50.1287 C   0  0  0  0  0  0  0  0  0  0  0  0
   58.0002   31.7404   51.0060 C   0  0  0  0  0  0  0  0  0  0  0  0
   57.9956   30.4307   51.5391 C   0  0  0  0  0  0  0  0  0  0  0  0
   59.0297   29.5572   51.1280 C   0  0  0  0  0  0  0  0  0  0  0  0
   60.0291   29.9829   50.2502 C   0  0  0  0  0  0  0  0  0  0  0  0
   56.9598   29.9973   52.4757 N   0  0  0  0  0  0  0  0  0  0  0  0
   55.5825   30.5143   52.3251 C   0  0  0  0  0  0  0  0  0  0  0  0
   54.6350   30.0666   53.4412 C   0  0  0  0  0  0  0  0  0  0  0  0
   54.8792   28.7278   53.8010 O   0  0  0  0  0  0  0  0  0  0  0  0
   56.1283   28.6616   54.4469 C   0  0  0  0  0  0  0  0  0  0  0  0
   57.2693   28.9382   53.4615 C   0  0  0  0  0  0  0  0  0  0  0  0
 12 13  1  0
 13 14  1  0
 14 15  2  0
 15 10  1  0
 10 11  2  0
 10  4  1  0
  4  5  2  0
  5  6  1  0
  6  7  2  0
  7  8  1  0
  8  1  1  0
  1  2  2  0
  1  3  2  0
  1 20  1  0
 20 22  1  0
 22 23  2  0
 23 24  1  0
 24 25  2  0
 25 28  1  0
 28 29  1  0
 29 30  1  0
 30 31  1  0
 31 32  1  0
 32 33  1  0
 25 26  1  0
 26 27  2  0
  8  9  2  0
 14 16  1  0
 16 17  1  0
 16 18  2  0
 18 19  1  0
 19 12  2  0
  9  4  1  0
 27 22  1  0
 33 28  1  0
 20 21  1  0
M  CHG 1  13  -1
M  CHG 1  17  -1
M  END
> <UniqueID>
62

> <SMILES>
O=C(/N=c1/[n-]cccc1[O-])c1cccc(S(=O)(=O)Nc2ccc(N3CCOCC3)cc2)c1

> <Energy>
79.63396109922385

> <Genealogy>
O=C(N=c1[n-]cccc1[O-])c1cccc(S(=O)(=O)Nc2ccc(N3CCOCC3)cc2)c1 (protonated)
O=C(/N=c1/[n-]cccc1[O-])c1cccc(S(=O)(=O)Nc2ccc(N3CCOCC3)cc2)c1 (cis-trans isomerization)
O=C(/N=c1/[n-]cccc1[O-])c1cccc(S(=O)(=O)Nc2ccc(N3CCOCC3)cc2)c1 (3D coordinates assigned)
O=C(/N=c1/[n-]cccc1[O-])c1cccc(S(=O)(=O)Nc2ccc(N3CCOCC3)cc2)c1 (nonaromatic ring conformer: 79.63396109922385 kcal/mol)

> <smiles>
O=C(N=c1[nH]cccc1O)c1cccc(S(=O)(=O)Nc2ccc(N3CCOCC3)cc2)c1

> <score_type>
oracle

> <origin>
adg

> <m_score__min__energy>
-15.4

> <m_primary>
energy

> <minimizedAffinity>
-8.13313

> <minimizedRMSD>
0.83676

> <CNNscore>
0.7469826937

> <CNNaffinity>
6.9054641724

> <CNN_VS>
5.1582622528

> <CNNaffinity_variance>
0.0053014676

$$$$
76:0


 30 32  0  0  0  0  0  0  0  0999 V2000
   57.9119   32.8143   45.7055 C   0  0  0  0  0  0  0  0  0  0  0  0
   58.2135   33.9952   45.0179 C   0  0  0  0  0  0  0  0  0  0  0  0
   59.0643   34.9458   45.5825 C   0  0  0  0  0  0  0  0  0  0  0  0
   59.6311   34.7216   46.8372 C   0  0  0  0  0  0  0  0  0  0  0  0
   59.3589   33.5386   47.5401 C   0  0  0  0  0  0  0  0  0  0  0  0
   58.5196   32.5636   46.9557 C   0  0  0  0  0  0  0  0  0  0  0  0
   58.3217   31.3393   47.5870 O   0  0  0  0  0  0  0  0  0  0  0  0
   60.1107   33.3071   49.1319 S   0  0  0  0  0  0  0  0  0  0  0  0
   59.7689   34.4530   50.0444 O   0  0  0  0  0  0  0  0  0  0  0  0
   59.5406   32.0508   49.7404 O   0  0  0  0  0  0  0  0  0  0  0  0
   61.8576   33.2010   49.0405 N   0  0  0  0  0  0  0  0  0  0  0  0
   62.3016   32.6352   47.7603 C   0  0  0  0  0  0  0  0  0  0  0  0
   63.8414   32.6788   47.6823 C   0  0  0  0  0  0  0  0  0  0  0  0
   64.4402   32.9752   48.9340 O   0  0  0  0  0  0  0  0  0  0  0  0
   63.9079   32.1352   49.9388 C   0  0  0  0  0  0  0  0  0  0  0  0
   62.4091   32.4203   50.1609 C   0  0  0  0  0  0  0  0  0  0  0  0
   57.0730   31.8476   45.0564 N   0  0  0  0  0  0  0  0  0  0  0  0
   57.5273   31.5067   42.8100 O   0  0  0  0  0  0  0  0  0  0  0  0
   57.4238   30.9965   43.9580 C   0  0  0  0  0  0  0  0  0  0  0  0
   57.5981   29.5397   44.1384 C   0  0  0  0  0  0  0  0  0  0  0  0
   57.3206   28.9287   45.2985 C   0  0  0  0  0  0  0  0  0  0  0  0
   58.0043   27.6943   45.7479 C   0  0  0  0  0  0  0  0  0  0  0  0
   59.4027   27.7203   45.8859 C   0  0  0  0  0  0  0  0  0  0  0  0
   60.0941   26.5823   46.3085 C   0  0  0  0  0  0  0  0  0  0  0  0
   59.3987   25.4102   46.6099 C   0  0  0  0  0  0  0  0  0  0  0  0
   58.0036   25.3738   46.5139 C   0  0  0  0  0  0  0  0  0  0  0  0
   57.3318   24.1979   46.8480 O   0  0  0  0  0  0  0  0  0  0  0  0
   57.3003   26.5185   46.0984 C   0  0  0  0  0  0  0  0  0  0  0  0
   55.9092   26.4941   46.0767 O   0  0  0  0  0  0  0  0  0  0  0  0
   57.8154   23.4439   47.1229 H   0  0  0  0  0  0  0  0  0  0  0  0
 18 19  2  0
 19 20  1  0
 20 21  2  0
 21 22  1  0
 22 23  2  0
 23 24  1  0
 24 25  2  0
 25 26  1  0
 26 27  1  0
 26 28  2  0
 28 29  1  0
 19 17  1  0
 17  1  1  0
  1  2  2  0
  2  3  1  0
  3  4  2  0
  4  5  1  0
  5  8  1  0
  8  9  2  0
  8 10  2  0
  8 11  1  0
 11 12  1  0
 12 13  1  0
 13 14  1  0
 14 15  1  0
 15 16  1  0
  5  6  2  0
  6  7  1  0
 28 22  1  0
  6  1  1  0
 16 11  1  0
 27 30  1  0
M  CHG 1   7  -1
M  CHG 1  17  -1
M  CHG 1  29  -1
M  END
> <UniqueID>
72

> <SMILES>
O=C(C=Cc1cccc(O)c1[O-])[N-]c1cccc(S(=O)(=O)N2CCOCC2)c1[O-]

> <Energy>
67.99727963797321

> <Genealogy>
O=C(C=Cc1cccc(O)c1[O-])[N-]c1cccc(S(=O)(=O)N2CCOCC2)c1[O-] (protonated)
O=C(C=Cc1cccc(O)c1[O-])[N-]c1cccc(S(=O)(=O)N2CCOCC2)c1[O-] (3D coordinates assigned)
O=C(C=Cc1cccc(O)c1[O-])[N-]c1cccc(S(=O)(=O)N2CCOCC2)c1[O-] (nonaromatic ring conformer: 67.99727963797321 kcal/mol)

> <smiles>
O=C(C=Cc1cccc(O)c1O)Nc1cccc(S(=O)(=O)N2CCOCC2)c1O

> <score_type>
oracle

> <origin>
adg

> <m_score__min__energy>
-16.52

> <m_primary>
energy

> <minimizedAffinity>
-7.76617

> <minimizedRMSD>
0.91286

> <CNNscore>
0.5689580441

> <CNNaffinity>
6.5771231651

> <CNN_VS>
3.7421071529

> <CNNaffinity_variance>
0.0346415639

$$$$
79:0


 31 34  0  0  0  0  0  0  0  0999 V2000
   59.1149   31.4052   46.4261 C   0  0  0  0  0  0  0  0  0  0  0  0
   60.3552   31.5779   47.0569 C   0  0  0  0  0  0  0  0  0  0  0  0
   60.6704   32.7910   47.6835 C   0  0  0  0  0  0  0  0  0  0  0  0
   59.7301   33.8313   47.6870 C   0  0  0  0  0  0  0  0  0  0  0  0
   58.4895   33.6597   47.0673 C   0  0  0  0  0  0  0  0  0  0  0  0
   58.1785   32.4507   46.4381 C   0  0  0  0  0  0  0  0  0  0  0  0
   56.9620   32.2914   45.8603 F   0  0  0  0  0  0  0  0  0  0  0  0
   59.2935   28.6770   47.5610 C   0  0  0  0  0  0  0  0  0  0  0  0
   58.9666   28.9115   46.2816 C   0  0  0  0  0  0  0  0  0  0  0  0
   58.5660   27.9681   45.3207 C   0  0  0  0  0  0  0  0  0  0  0  0
   58.6073   26.6220   45.3324 C   0  0  0  0  0  0  0  0  0  0  0  0
   58.0923   28.6938   44.2388 C   0  0  0  0  0  0  0  0  0  0  0  0
   58.2862   30.0265   44.5348 C   0  0  0  0  0  0  0  0  0  0  0  0
   57.9343   31.1625   43.6228 C   0  0  0  0  0  0  0  0  0  0  0  0
   58.8109   30.1599   45.7722 N   0  0  0  0  0  0  0  0  0  0  0  0
   57.7857   25.7468   46.1854 C   0  0  0  0  0  0  0  0  0  0  0  0
   58.2221   24.6120   46.7653 N   0  0  0  0  0  0  0  0  0  0  0  0
   57.1024   24.0925   47.3136 C   0  0  0  0  0  0  0  0  0  0  0  0
   57.1038   23.0186   47.9684 O   0  0  0  0  0  0  0  0  0  0  0  0
   55.9787   24.8101   47.0943 N   0  0  0  0  0  0  0  0  0  0  0  0
   56.4282   25.8444   46.3665 C   0  0  0  0  0  0  0  0  0  0  0  0
   55.6137   26.8551   45.8733 O   0  0  0  0  0  0  0  0  0  0  0  0
   62.2429   33.0104   48.4536 S   0  0  0  0  0  0  0  0  0  0  0  0
   63.3064   33.0780   47.3918 O   0  0  0  0  0  0  0  0  0  0  0  0
   62.2494   34.3170   49.1998 O   0  0  0  0  0  0  0  0  0  0  0  0
   62.6118   31.7102   49.5582 N   0  0  0  0  0  0  0  0  0  0  0  0
   61.5235   31.5363   50.5303 C   0  0  0  0  0  0  0  0  0  0  0  0
   61.8574   30.3736   51.4906 C   0  0  0  0  0  0  0  0  0  0  0  0
   63.1730   29.8803   51.3000 O   0  0  0  0  0  0  0  0  0  0  0  0
   64.1009   30.9445   51.3869 C   0  0  0  0  0  0  0  0  0  0  0  0
   63.8807   31.9716   50.2584 C   0  0  0  0  0  0  0  0  0  0  0  0
  8  9  2  0
  9 10  1  0
 10 11  2  0
 11 16  1  0
 16 17  1  0
 17 18  1  0
 18 19  2  0
 18 20  1  0
 20 21  1  0
 21 22  1  0
 10 12  1  0
 12 13  2  0
 13 14  1  0
 13 15  1  0
 15  1  1  0
  1  2  2  0
  2  3  1  0
  3 23  1  0
 23 24  2  0
 23 25  2  0
 23 26  1  0
 26 27  1  0
 27 28  1  0
 28 29  1  0
 29 30  1  0
 30 31  1  0
  3  4  2  0
  4  5  1  0
  5  6  2  0
  6  7  1  0
 15  9  1  0
  6  1  1  0
 21 16  2  0
 31 26  1  0
M  CHG 1  17  -1
M  CHG 1  20  -1
M  CHG 1  22  -1
M  END
> <UniqueID>
75

> <SMILES>
C=c1/c(=C\c2[n-]c(=O)[n-]c2[O-])cc(C)n1-c1cc(S(=O)(=O)N2CCOCC2)ccc1F

> <Energy>
133.84070783433629

> <Genealogy>
C=c1c(=Cc2[n-]c(=O)[n-]c2[O-])cc(C)n1-c1cc(S(=O)(=O)N2CCOCC2)ccc1F (protonated)
C=c1/c(=C\c2[n-]c(=O)[n-]c2[O-])cc(C)n1-c1cc(S(=O)(=O)N2CCOCC2)ccc1F (cis-trans isomerization)
C=c1/c(=C\c2[n-]c(=O)[n-]c2[O-])cc(C)n1-c1cc(S(=O)(=O)N2CCOCC2)ccc1F (3D coordinates assigned)
C=c1/c(=C\c2[n-]c(=O)[n-]c2[O-])cc(C)n1-c1cc(S(=O)(=O)N2CCOCC2)ccc1F (nonaromatic ring conformer: 133.84070783433629 kcal/mol)

> <smiles>
C=c1c(=Cc2[nH]c(=O)[nH]c2O)cc(C)n1-c1cc(S(=O)(=O)N2CCOCC2)ccc1F

> <score_type>
oracle

> <origin>
adg

> <m_score__min__energy>
-16.609999999999999

> <m_primary>
energy

> <minimizedAffinity>
-7.87637

> <minimizedRMSD>
0.88957

> <CNNscore>
0.3183723390

> <CNNaffinity>
7.1314873695

> <CNN_VS>
2.2704682350

> <CNNaffinity_variance>
0.0603529029

$$$$
14:0


 34 37  0  0  0  0  0  0  0  0999 V2000
   59.1260   26.6228   47.4449 C   0  0  0  0  0  0  0  0  0  0  0  0
   58.7490   27.4174   46.4293 C   0  0  0  0  0  0  0  0  0  0  0  0
   58.1685   27.0257   45.2104 C   0  0  0  0  0  0  0  0  0  0  0  0
   57.6919   25.8342   44.7981 C   0  0  0  0  0  0  0  0  0  0  0  0
   58.1428   28.1572   44.4123 C   0  0  0  0  0  0  0  0  0  0  0  0
   58.6401   29.1961   45.1705 C   0  0  0  0  0  0  0  0  0  0  0  0
   58.7768   30.6089   44.6924 C   0  0  0  0  0  0  0  0  0  0  0  0
   59.0095   28.7504   46.3937 N   0  0  0  0  0  0  0  0  0  0  0  0
   57.2375   24.7394   45.6769 C   0  0  0  0  0  0  0  0  0  0  0  0
   55.9740   24.7746   46.2922 C   0  0  0  0  0  0  0  0  0  0  0  0
   55.1283   25.8628   46.1153 O   0  0  0  0  0  0  0  0  0  0  0  0
   55.5669   23.7331   47.0628 N   0  0  0  0  0  0  0  0  0  0  0  0
   56.3562   22.6422   47.2414 C   0  0  0  0  0  0  0  0  0  0  0  0
   55.8410   21.4087   48.1750 S   0  0  0  0  0  0  0  0  0  0  0  0
   57.5682   22.5738   46.6337 N   0  0  0  0  0  0  0  0  0  0  0  0
   58.0217   23.5882   45.8531 C   0  0  0  0  0  0  0  0  0  0  0  0
   59.1477   23.4878   45.2984 O   0  0  0  0  0  0  0  0  0  0  0  0
   59.5868   29.5534   47.4383 C   0  0  0  0  0  0  0  0  0  0  0  0
   58.9593   29.6417   48.6883 C   0  0  0  0  0  0  0  0  0  0  0  0
   59.5155   30.4258   49.7030 C   0  0  0  0  0  0  0  0  0  0  0  0
   60.7045   31.1420   49.4812 C   0  0  0  0  0  0  0  0  0  0  0  0
   61.3360   31.0418   48.2277 C   0  0  0  0  0  0  0  0  0  0  0  0
   60.7788   30.2557   47.2149 C   0  0  0  0  0  0  0  0  0  0  0  0
   61.2903   31.9635   50.5682 C   0  0  0  0  0  0  0  0  0  0  0  0
   60.8057   31.8877   51.7299 O   0  0  0  0  0  0  0  0  0  0  0  0
   62.3886   32.8545   50.3139 N   0  0  0  0  0  0  0  0  0  0  0  0
   62.6414   33.0440   49.3815 H   0  0  0  0  0  0  0  0  0  0  0  0
   63.1431   33.4890   51.3932 C   0  0  0  0  0  0  0  0  0  0  0  0
   64.6080   33.1803   51.2503 C   0  0  0  0  0  0  0  0  0  0  0  0
   65.5793   34.1248   51.6237 C   0  0  0  0  0  0  0  0  0  0  0  0
   66.9382   33.8184   51.5110 C   0  0  0  0  0  0  0  0  0  0  0  0
   67.3384   32.5684   51.0312 C   0  0  0  0  0  0  0  0  0  0  0  0
   66.3774   31.6206   50.6638 C   0  0  0  0  0  0  0  0  0  0  0  0
   65.0172   31.9227   50.7751 C   0  0  0  0  0  0  0  0  0  0  0  0
  1  2  2  0
  2  3  1  0
  3  4  2  0
  4  9  1  0
  9 10  2  0
 10 11  1  0
 10 12  1  0
 12 13  1  0
 13 14  2  0
 13 15  1  0
 15 16  1  0
 16 17  2  0
  3  5  1  0
  5  6  2  0
  6  7  1  0
  6  8  1  0
  8 18  1  0
 18 19  2  0
 19 20  1  0
 20 21  2  0
 21 24  1  0
 24 25  2  0
 24 26  1  0
 26 28  1  0
 28 29  1  0
 29 30  2  0
 30 31  1  0
 31 32  2  0
 32 33  1  0
 33 34  2  0
 21 22  1  0
 22 23  2  0
  8  2  1  0
 23 18  1  0
 16  9  1  0
 34 29  1  0
 26 27  1  0
M  CHG 1  11  -1
M  CHG 1  12  -1
M  CHG 1  15  -1
M  END
> <UniqueID>
15

> <SMILES>
C=c1c(=Cc2c([O-])[n-]c(=S)[n-]c2=O)cc(C)n1-c1ccc(C(=O)NCc2ccccc2)cc1

> <Energy>
105.20256292005897

> <Genealogy>
C=c1c(=Cc2c([O-])[n-]c(=S)[n-]c2=O)cc(C)n1-c1ccc(C(=O)NCc2ccccc2)cc1 (protonated)
C=c1c(=Cc2c([O-])[n-]c(=S)[n-]c2=O)cc(C)n1-c1ccc(C(=O)NCc2ccccc2)cc1 (3D coordinates assigned)
C=c1c(=Cc2c([O-])[n-]c(=S)[n-]c2=O)cc(C)n1-c1ccc(C(=O)NCc2ccccc2)cc1 (optimized conformer: 105.20256292005897 kcal/mol)

> <smiles>
C=c1c(=Cc2c(O)[nH]c(=S)[nH]c2=O)cc(C)n1-c1ccc(C(=O)NCc2ccccc2)cc1

> <score_type>
oracle

> <origin>
adg

> <m_score__min__energy>
-15.74

> <m_primary>
energy

> <minimizedAffinity>
-8.60867

> <minimizedRMSD>
1.42935

> <CNNscore>
0.1334058344

> <CNNaffinity>
6.3730683327

> <CNN_VS>
0.8502045274

> <CNNaffinity_variance>
0.0395771414

$$$$
60:0


 27 29  0  0  0  0  0  0  0  0999 V2000
   57.4931   30.2042   53.8256 S   0  0  0  0  0  0  0  0  0  0  0  0
   58.3085   29.1101   54.4563 O   0  0  0  0  0  0  0  0  0  0  0  0
   57.5014   31.4098   54.7256 O   0  0  0  0  0  0  0  0  0  0  0  0
   58.1722   30.6017   52.2578 C   0  0  0  0  0  0  0  0  0  0  0  0
   58.6158   29.6820   51.3218 C   0  0  0  0  0  0  0  0  0  0  0  0
   59.0428   30.2743   50.1281 C   0  0  0  0  0  0  0  0  0  0  0  0
   58.9306   31.6688   50.1210 C   0  0  0  0  0  0  0  0  0  0  0  0
   58.2896   32.1441   51.6115 S   0  0  0  0  0  0  0  0  0  0  0  0
   59.2762   32.5831   49.0009 C   0  0  0  0  0  0  0  0  0  0  0  0
   60.4792   33.3163   49.0074 C   0  0  0  0  0  0  0  0  0  0  0  0
   60.7970   34.1689   47.9461 C   0  0  0  0  0  0  0  0  0  0  0  0
   59.9231   34.3030   46.8675 C   0  0  0  0  0  0  0  0  0  0  0  0
   58.7254   33.5866   46.8471 C   0  0  0  0  0  0  0  0  0  0  0  0
   57.6253   33.7589   45.4914 Cl  0  0  0  0  0  0  0  0  0  0  0  0
   58.4003   32.7341   47.9072 C   0  0  0  0  0  0  0  0  0  0  0  0
   55.8667   29.6624   53.6031 N   0  0  0  0  0  0  0  0  0  0  0  0
   55.3860   30.7071   51.5705 O   0  0  0  0  0  0  0  0  0  0  0  0
   54.9745   30.3092   52.6941 C   0  0  0  0  0  0  0  0  0  0  0  0
   53.5254   30.4254   53.0382 C   0  0  0  0  0  0  0  0  0  0  0  0
   52.7328   30.5979   51.7793 C   0  0  0  0  0  0  0  0  0  0  0  0
   52.8000   29.7768   50.7190 N   0  0  0  0  0  0  0  0  0  0  0  0
   51.8488   30.2310   49.8774 C   0  0  0  0  0  0  0  0  0  0  0  0
   51.6124   29.7020   48.7606 O   0  0  0  0  0  0  0  0  0  0  0  0
   51.1631   31.2980   50.3427 N   0  0  0  0  0  0  0  0  0  0  0  0
   51.7266   31.5106   51.5489 C   0  0  0  0  0  0  0  0  0  0  0  0
   51.3202   32.5094   52.4241 O   0  0  0  0  0  0  0  0  0  0  0  0
   53.4077   29.0139   50.5857 H   0  0  0  0  0  0  0  0  0  0  0  0
 17 18  2  0
 18 19  1  0
 19 20  1  0
 20 21  1  0
 21 22  1  0
 22 23  2  0
 22 24  1  0
 24 25  1  0
 25 26  1  0
 18 16  1  0
 16  1  1  0
  1  2  2  0
  1  3  2  0
  1  4  1  0
  4  5  2  0
  5  6  1  0
  6  7  2  0
  7  9  1  0
  9 10  2  0
 10 11  1  0
 11 12  2  0
 12 13  1  0
 13 14  1  0
 13 15  2  0
  7  8  1  0
 25 20  2  0
  8  4  1  0
 15  9  1  0
 21 27  1  0
M  CHG 1  16  -1
M  CHG 1  24  -1
M  CHG 1  26  -1
M  END
> <UniqueID>
59

> <SMILES>
O=C(Cc1[nH]c(=O)[n-]c1[O-])[N-]S(=O)(=O)c1ccc(-c2cccc(Cl)c2)s1

> <Energy>
95.51072350668085

> <Genealogy>
O=C(Cc1[nH]c(=O)[n-]c1[O-])[N-]S(=O)(=O)c1ccc(-c2cccc(Cl)c2)s1 (protonated)
O=C(Cc1[nH]c(=O)[n-]c1[O-])[N-]S(=O)(=O)c1ccc(-c2cccc(Cl)c2)s1 (3D coordinates assigned)
O=C(Cc1[nH]c(=O)[n-]c1[O-])[N-]S(=O)(=O)c1ccc(-c2cccc(Cl)c2)s1 (optimized conformer: 95.51072350668085 kcal/mol)

> <smiles>
O=C(Cc1[nH]c(=O)[nH]c1O)NS(=O)(=O)c1ccc(-c2cccc(Cl)c2)s1

> <score_type>
oracle

> <origin>
adg

> <m_score__min__energy>
-17.030000000000001

> <m_primary>
energy

> <minimizedAffinity>
-5.96326

> <minimizedRMSD>
0.60285

> <CNNscore>
0.7968481183

> <CNNaffinity>
6.2915043831

> <CNN_VS>
5.0133733749

> <CNNaffinity_variance>
0.0236301273

$$$$
61:0


 25 27  0  0  0  0  0  0  0  0999 V2000
   57.8878   27.3796   45.0183 N   0  0  0  0  0  0  0  0  0  0  0  0
   57.6190   28.6508   44.9937 C   0  0  0  0  0  0  0  0  0  0  0  0
   56.3841   29.1684   44.8121 N   0  0  0  0  0  0  0  0  0  0  0  0
   56.3792   30.4998   44.7820 N   0  0  0  0  0  0  0  0  0  0  0  0
   57.6078   31.0424   44.9397 C   0  0  0  0  0  0  0  0  0  0  0  0
   58.7872   29.8509   45.1397 S   0  0  0  0  0  0  0  0  0  0  0  0
   58.0957   26.5737   47.2172 O   0  0  0  0  0  0  0  0  0  0  0  0
   57.5615   26.4686   46.0790 C   0  0  0  0  0  0  0  0  0  0  0  0
   56.5833   25.4015   45.8323 C   0  0  0  0  0  0  0  0  0  0  0  0
   56.8567   24.1350   45.3655 C   0  0  0  0  0  0  0  0  0  0  0  0
   55.7075   23.4441   45.2704 N   0  0  0  0  0  0  0  0  0  0  0  0
   54.7761   24.3249   45.6870 C   0  0  0  0  0  0  0  0  0  0  0  0
   53.5513   24.0440   45.7425 O   0  0  0  0  0  0  0  0  0  0  0  0
   55.2610   25.5326   46.0410 N   0  0  0  0  0  0  0  0  0  0  0  0
   57.8758   32.5124   44.8623 C   0  0  0  0  0  0  0  0  0  0  0  0
   57.9755   33.1595   46.2498 C   0  0  0  0  0  0  0  0  0  0  0  0
   59.4201   34.2090   46.4298 S   0  0  0  0  0  0  0  0  0  0  0  0
   59.7147   34.8727   45.1140 O   0  0  0  0  0  0  0  0  0  0  0  0
   59.1324   35.2709   47.4530 O   0  0  0  0  0  0  0  0  0  0  0  0
   60.8142   33.2707   46.9667 C   0  0  0  0  0  0  0  0  0  0  0  0
   62.1127   33.7882   46.8526 C   0  0  0  0  0  0  0  0  0  0  0  0
   63.2137   33.0142   47.2377 C   0  0  0  0  0  0  0  0  0  0  0  0
   63.0218   31.7254   47.7439 C   0  0  0  0  0  0  0  0  0  0  0  0
   61.7276   31.2132   47.8756 C   0  0  0  0  0  0  0  0  0  0  0  0
   60.6270   31.9845   47.4928 C   0  0  0  0  0  0  0  0  0  0  0  0
  7  8  2  0
  8  1  1  0
  1  2  2  0
  2  3  1  0
  3  4  1  0
  4  5  2  0
  5 15  1  0
 15 16  1  0
 16 17  1  0
 17 18  2  0
 17 19  2  0
 17 20  1  0
 20 21  2  0
 21 22  1  0
 22 23  2  0
 23 24  1  0
 24 25  2  0
  5  6  1  0
  8  9  1  0
  9 10  2  0
 10 11  1  0
 11 12  1  0
 12 13  2  0
 12 14  1  0
  6  2  1  0
 14  9  1  0
 25 20  1  0
M  CHG 1   3  -1
M  CHG 1  11  -1
M  CHG 1  14  -1
M  END
> <UniqueID>
60

> <SMILES>
O=C(N=c1[n-]nc(CCS(=O)(=O)c2ccccc2)s1)c1c[n-]c(=O)[n-]1

> <Energy>
92.31100008515227

> <Genealogy>
O=C(N=c1[n-]nc(CCS(=O)(=O)c2ccccc2)s1)c1c[n-]c(=O)[n-]1 (protonated)
O=C(N=c1[n-]nc(CCS(=O)(=O)c2ccccc2)s1)c1c[n-]c(=O)[n-]1 (3D coordinates assigned)
O=C(N=c1[n-]nc(CCS(=O)(=O)c2ccccc2)s1)c1c[n-]c(=O)[n-]1 (optimized conformer: 92.31100008515227 kcal/mol)

> <smiles>
O=C(N=c1[nH]nc(CCS(=O)(=O)c2ccccc2)s1)c1c[nH]c(=O)[nH]1

> <score_type>
oracle

> <origin>
adg

> <m_score__min__energy>
-14.83

> <m_primary>
energy

> <minimizedAffinity>
-7.98708

> <minimizedRMSD>
0.64517

> <CNNscore>
0.4345347583

> <CNNaffinity>
6.3251838684

> <CNN_VS>
2.7485122681

> <CNNaffinity_variance>
0.2583877146

$$$$
23:0


 38 41  0  0  0  0  0  0  0  0999 V2000
   58.5613   30.9090   45.1935 C   0  0  0  0  0  0  0  0  0  0  0  0
   58.0240   31.4829   44.0324 C   0  0  0  0  0  0  0  0  0  0  0  0
   57.8875   32.8684   43.9321 C   0  0  0  0  0  0  0  0  0  0  0  0
   58.2832   33.6912   44.9911 C   0  0  0  0  0  0  0  0  0  0  0  0
   58.8214   33.1344   46.1641 C   0  0  0  0  0  0  0  0  0  0  0  0
   58.9582   31.7358   46.2545 C   0  0  0  0  0  0  0  0  0  0  0  0
   57.8838   26.0319   44.8645 C   0  0  0  0  0  0  0  0  0  0  0  0
   58.3821   27.2595   45.1043 C   0  0  0  0  0  0  0  0  0  0  0  0
   59.5499   27.4687   45.8188 C   0  0  0  0  0  0  0  0  0  0  0  0
   59.7028   28.8339   45.9452 C   0  0  0  0  0  0  0  0  0  0  0  0
   60.8361   29.4972   46.6694 C   0  0  0  0  0  0  0  0  0  0  0  0
   58.7085   29.4813   45.2985 N   0  0  0  0  0  0  0  0  0  0  0  0
   57.9031   28.5329   44.7502 C   0  0  0  0  0  0  0  0  0  0  0  0
   56.9253   28.8142   43.8751 C   0  0  0  0  0  0  0  0  0  0  0  0
   54.9988   26.1929   45.9234 O   0  0  0  0  0  0  0  0  0  0  0  0
   55.9326   25.2214   46.2782 C   0  0  0  0  0  0  0  0  0  0  0  0
   55.6572   24.1940   47.0982 N   0  0  0  0  0  0  0  0  0  0  0  0
   56.8267   23.5211   47.1369 C   0  0  0  0  0  0  0  0  0  0  0  0
   56.9830   22.4698   47.8110 O   0  0  0  0  0  0  0  0  0  0  0  0
   57.8156   24.0596   46.3916 N   0  0  0  0  0  0  0  0  0  0  0  0
   57.2445   25.1603   45.8651 C   0  0  0  0  0  0  0  0  0  0  0  0
   54.1251   26.1476   46.2587 H   0  0  0  0  0  0  0  0  0  0  0  0
   59.2370   34.0034   47.2897 C   0  0  0  0  0  0  0  0  0  0  0  0
   59.2385   35.2585   47.1542 O   0  0  0  0  0  0  0  0  0  0  0  0
   59.6373   33.4244   48.5346 N   0  0  0  0  0  0  0  0  0  0  0  0
   61.2888   33.0831   48.9250 S   0  0  0  0  0  0  0  0  0  0  0  0
   61.8345   34.2058   49.7635 O   0  0  0  0  0  0  0  0  0  0  0  0
   62.1066   32.9831   47.6700 O   0  0  0  0  0  0  0  0  0  0  0  0
   61.3622   31.5615   49.8352 C   0  0  0  0  0  0  0  0  0  0  0  0
   60.1870   30.7934   49.9149 C   0  0  0  0  0  0  0  0  0  0  0  0
   60.1641   29.5928   50.6212 C   0  0  0  0  0  0  0  0  0  0  0  0
   61.3127   29.1375   51.2611 C   0  0  0  0  0  0  0  0  0  0  0  0
   62.4942   29.8752   51.1849 C   0  0  0  0  0  0  0  0  0  0  0  0
   62.5535   31.0814   50.4544 C   0  0  0  0  0  0  0  0  0  0  0  0
   63.8636   31.8482   50.4156 C   0  0  0  0  0  0  0  0  0  0  0  0
   64.8778   31.1166   51.0014 F   0  0  0  0  0  0  0  0  0  0  0  0
   63.7693   33.0466   51.1034 F   0  0  0  0  0  0  0  0  0  0  0  0
   64.1941   32.1296   49.1030 F   0  0  0  0  0  0  0  0  0  0  0  0
 15 16  1  0
 16 17  1  0
 17 18  1  0
 18 19  2  0
 18 20  1  0
 20 21  1  0
 21  7  1  0
  7  8  2  0
  8  9  1  0
  9 10  2  0
 10 11  1  0
 10 12  1  0
 12  1  1  0
  1  2  2  0
  2  3  1  0
  3  4  2  0
  4  5  1  0
  5 23  1  0
 23 24  2  0
 23 25  1  0
 25 26  1  0
 26 27  2  0
 26 28  2  0
 26 29  1  0
 29 30  2  0
 30 31  1  0
 31 32  2  0
 32 33  1  0
 33 34  2  0
 34 35  1  0
 35 36  1  0
 35 37  1  0
 35 38  1  0
  5  6  2  0
 12 13  1  0
 13 14  2  0
 21 16  2  0
 13  8  1  0
  6  1  1  0
 34 29  1  0
 15 22  1  0
M  CHG 1  17  -1
M  CHG 1  20  -1
M  CHG 1  25  -1
M  END
> <UniqueID>
22

> <SMILES>
C=c1/c(=C\c2[n-]c(=O)[n-]c2O)cc(C)n1-c1cccc(C(=O)[N-]S(=O)(=O)c2ccccc2C(F)(F)F)c1

> <Energy>
139.24981053207247

> <Genealogy>
C=c1c(=Cc2[n-]c(=O)[n-]c2O)cc(C)n1-c1cccc(C(=O)[N-]S(=O)(=O)c2ccccc2C(F)(F)F)c1 (protonated)
C=c1/c(=C\c2[n-]c(=O)[n-]c2O)cc(C)n1-c1cccc(C(=O)[N-]S(=O)(=O)c2ccccc2C(F)(F)F)c1 (cis-trans isomerization)
C=c1/c(=C\c2[n-]c(=O)[n-]c2O)cc(C)n1-c1cccc(C(=O)[N-]S(=O)(=O)c2ccccc2C(F)(F)F)c1 (3D coordinates assigned)
C=c1/c(=C\c2[n-]c(=O)[n-]c2O)cc(C)n1-c1cccc(C(=O)[N-]S(=O)(=O)c2ccccc2C(F)(F)F)c1 (optimized conformer: 139.24981053207247 kcal/mol)

> <smiles>
C=c1c(=Cc2[nH]c(=O)[nH]c2O)cc(C)n1-c1cccc(C(=O)NS(=O)(=O)c2ccccc2C(F)(F)F)c1

> <score_type>
oracle

> <origin>
adg

> <m_score__min__energy>
-15.630000000000001

> <m_primary>
energy

> <minimizedAffinity>
-10.08730

> <minimizedRMSD>
0.97214

> <CNNscore>
0.4556443691

> <CNNaffinity>
7.3260760307

> <CNN_VS>
3.3380851746

> <CNNaffinity_variance>
0.1845230460

$$$$
31:0


 30 32  0  0  0  0  0  0  0  0999 V2000
   59.1812   32.9155   46.2364 C   0  0  0  0  0  0  0  0  0  0  0  0
   59.2088   31.6510   46.8367 C   0  0  0  0  0  0  0  0  0  0  0  0
   58.5252   30.5791   46.2532 C   0  0  0  0  0  0  0  0  0  0  0  0
   57.8089   30.7570   45.0554 C   0  0  0  0  0  0  0  0  0  0  0  0
   57.7757   32.0327   44.4659 C   0  0  0  0  0  0  0  0  0  0  0  0
   58.4601   33.1025   45.0499 C   0  0  0  0  0  0  0  0  0  0  0  0
   60.0013   34.2773   46.9948 S   0  0  0  0  0  0  0  0  0  0  0  0
   59.7003   35.5206   46.2080 O   0  0  0  0  0  0  0  0  0  0  0  0
   59.5119   34.4698   48.4028 O   0  0  0  0  0  0  0  0  0  0  0  0
   61.7189   34.0228   46.9997 N   0  0  0  0  0  0  0  0  0  0  0  0
   62.7460   34.1741   49.0703 O   0  0  0  0  0  0  0  0  0  0  0  0
   62.4769   33.4542   48.0741 C   0  0  0  0  0  0  0  0  0  0  0  0
   62.9513   32.0322   48.0556 C   0  0  0  0  0  0  0  0  0  0  0  0
   62.6360   31.4036   49.2939 O   0  0  0  0  0  0  0  0  0  0  0  0
   61.3674   30.9102   49.6304 C   0  0  0  0  0  0  0  0  0  0  0  0
   60.5163   31.7287   50.3829 C   0  0  0  0  0  0  0  0  0  0  0  0
   59.2450   31.2836   50.7527 C   0  0  0  0  0  0  0  0  0  0  0  0
   58.8132   30.0106   50.3700 C   0  0  0  0  0  0  0  0  0  0  0  0
   59.6509   29.1859   49.6169 C   0  0  0  0  0  0  0  0  0  0  0  0
   60.9250   29.6300   49.2448 C   0  0  0  0  0  0  0  0  0  0  0  0
   57.0580   29.6214   44.4615 C   0  0  0  0  0  0  0  0  0  0  0  0
   55.8816   29.8078   44.0530 O   0  0  0  0  0  0  0  0  0  0  0  0
   57.6510   28.3261   44.2698 N   0  0  0  0  0  0  0  0  0  0  0  0
   58.2711   27.6293   45.1776 C   0  0  0  0  0  0  0  0  0  0  0  0
   59.6290   27.6791   45.2957 N   0  0  0  0  0  0  0  0  0  0  0  0
   60.2986   26.9731   46.2445 C   0  0  0  0  0  0  0  0  0  0  0  0
   59.5937   26.1710   47.1445 C   0  0  0  0  0  0  0  0  0  0  0  0
   58.2028   26.1082   47.0564 C   0  0  0  0  0  0  0  0  0  0  0  0
   57.5320   26.8403   46.0719 C   0  0  0  0  0  0  0  0  0  0  0  0
   56.1454   26.7783   45.9874 O   0  0  0  0  0  0  0  0  0  0  0  0
 11 12  2  0
 12 13  1  0
 13 14  1  0
 14 15  1  0
 15 16  2  0
 16 17  1  0
 17 18  2  0
 18 19  1  0
 19 20  2  0
 12 10  1  0
 10  7  1  0
  7  8  2  0
  7  9  2  0
  7  1  1  0
  1  2  2  0
  2  3  1  0
  3  4  2  0
  4 21  1  0
 21 22  2  0
 21 23  1  0
 23 24  2  0
 24 25  1  0
 25 26  1  0
 26 27  2  0
 27 28  1  0
 28 29  2  0
 29 30  1  0
  4  5  1  0
  5  6  2  0
 20 15  1  0
  6  1  1  0
 29 24  1  0
M  CHG 1  10  -1
M  CHG 1  25  -1
M  CHG 1  30  -1
M  END
> <UniqueID>
29

> <SMILES>
O=C(COc1ccccc1)[N-]S(=O)(=O)c1ccc(C(=O)N=c2[n-]cccc2[O-])cc1

> <Energy>
53.51412110956946

> <Genealogy>
O=C(COc1ccccc1)[N-]S(=O)(=O)c1ccc(C(=O)N=c2[n-]cccc2[O-])cc1 (protonated)
O=C(COc1ccccc1)[N-]S(=O)(=O)c1ccc(C(=O)N=c2[n-]cccc2[O-])cc1 (3D coordinates assigned)
O=C(COc1ccccc1)[N-]S(=O)(=O)c1ccc(C(=O)N=c2[n-]cccc2[O-])cc1 (optimized conformer: 53.51412110956946 kcal/mol)

> <smiles>
O=C(COc1ccccc1)NS(=O)(=O)c1ccc(C(=O)N=c2[nH]cccc2O)cc1

> <score_type>
oracle

> <origin>
adg

> <m_score__min__energy>
-14.58

> <m_primary>
energy

> <minimizedAffinity>
-7.45075

> <minimizedRMSD>
0.82391

> <CNNscore>
0.7422010303

> <CNNaffinity>
6.9266357422

> <CNN_VS>
5.1409564018

> <CNNaffinity_variance>
0.1178725660

$$$$
52:0


 31 33  0  0  0  0  0  0  0  0999 V2000
   60.0932   33.6237   48.6202 C   0  0  0  0  0  0  0  0  0  0  0  0
   59.0623   34.3375   48.4785 O   0  0  0  0  0  0  0  0  0  0  0  0
   60.3260   32.5025   47.7340 N   0  0  0  0  0  0  0  0  0  0  0  0
   59.2763   32.1795   46.7486 C   0  0  0  0  0  0  0  0  0  0  0  0
   59.8094   31.3309   45.5884 C   0  0  0  0  0  0  0  0  0  0  0  0
   60.6856   30.2737   46.0964 N   0  0  0  0  0  0  0  0  0  0  0  0
   60.5471   28.9114   45.6548 C   0  0  0  0  0  0  0  0  0  0  0  0
   61.5668   28.2868   45.2478 O   0  0  0  0  0  0  0  0  0  0  0  0
   61.7950   30.6720   46.9578 C   0  0  0  0  0  0  0  0  0  0  0  0
   61.2333   31.4228   48.1614 C   0  0  0  0  0  0  0  0  0  0  0  0
   59.2422   28.2134   45.7289 C   0  0  0  0  0  0  0  0  0  0  0  0
   58.0857   28.8131   45.1976 C   0  0  0  0  0  0  0  0  0  0  0  0
   56.8447   28.1727   45.2935 C   0  0  0  0  0  0  0  0  0  0  0  0
   55.7094   28.7831   44.7682 O   0  0  0  0  0  0  0  0  0  0  0  0
   56.7434   26.9268   45.9294 C   0  0  0  0  0  0  0  0  0  0  0  0
   55.5035   26.2984   46.0258 O   0  0  0  0  0  0  0  0  0  0  0  0
   57.8909   26.3221   46.4747 C   0  0  0  0  0  0  0  0  0  0  0  0
   57.8169   25.0836   47.1239 O   0  0  0  0  0  0  0  0  0  0  0  0
   59.1327   26.9674   46.3747 C   0  0  0  0  0  0  0  0  0  0  0  0
   56.9939   24.6418   47.1978 H   0  0  0  0  0  0  0  0  0  0  0  0
   61.0420   33.3555   50.9049 C   0  0  0  0  0  0  0  0  0  0  0  0
   61.0355   33.9672   49.7076 C   0  0  0  0  0  0  0  0  0  0  0  0
   57.5588   31.5178   52.6494 C   0  0  0  0  0  0  0  0  0  0  0  0
   57.8186   32.8838   52.8719 C   0  0  0  0  0  0  0  0  0  0  0  0
   58.9512   33.4860   52.3158 C   0  0  0  0  0  0  0  0  0  0  0  0
   59.8556   32.7312   51.5442 C   0  0  0  0  0  0  0  0  0  0  0  0
   59.5750   31.3786   51.2886 C   0  0  0  0  0  0  0  0  0  0  0  0
   58.4425   30.7734   51.8457 C   0  0  0  0  0  0  0  0  0  0  0  0
   58.1937   29.4268   51.5980 O   0  0  0  0  0  0  0  0  0  0  0  0
   55.2303   30.6239   52.4780 C   0  0  0  0  0  0  0  0  0  0  0  0
   56.4357   30.8729   53.1941 O   0  0  0  0  0  0  0  0  0  0  0  0
 30 31  1  0
 31 23  1  0
 23 24  2  0
 24 25  1  0
 25 26  2  0
 26 21  1  0
 21 22  2  0
 22  1  1  0
  1  2  2  0
  1  3  1  0
  3  4  1  0
  4  5  1  0
  5  6  1  0
  6  7  1  0
  7  8  2  0
  7 11  1  0
 11 12  2  0
 12 13  1  0
 13 14  1  0
 13 15  2  0
 15 16  1  0
 15 17  1  0
 17 18  1  0
 17 19  2  0
  6  9  1  0
  9 10  1  0
 26 27  1  0
 27 28  2  0
 28 29  1  0
 28 23  1  0
 10  3  1  0
 19 11  1  0
 18 20  1  0
M  CHG 1  14  -1
M  CHG 1  16  -1
M  CHG 1  29  -1
M  END
> <UniqueID>
50

> <SMILES>
COc1ccc(C=CC(=O)N2CCN(C(=O)c3cc([O-])c([O-])c(O)c3)CC2)cc1[O-]

> <Energy>
66.76118889188216

> <Genealogy>
COc1ccc(C=CC(=O)N2CCN(C(=O)c3cc([O-])c([O-])c(O)c3)CC2)cc1[O-] (protonated)
COc1ccc(C=CC(=O)N2CCN(C(=O)c3cc([O-])c([O-])c(O)c3)CC2)cc1[O-] (3D coordinates assigned)
COc1ccc(C=CC(=O)N2CCN(C(=O)c3cc([O-])c([O-])c(O)c3)CC2)cc1[O-] (nonaromatic ring conformer: 66.76118889188216 kcal/mol)

> <smiles>
COc1ccc(C=CC(=O)N2CCN(C(=O)c3cc(O)c(O)c(O)c3)CC2)cc1O

> <score_type>
oracle

> <origin>
adg

> <m_score__min__energy>
-15.82

> <m_primary>
energy

> <minimizedAffinity>
-3.79263

> <minimizedRMSD>
0.59346

> <CNNscore>
0.2272192836

> <CNNaffinity>
5.8571696281

> <CNN_VS>
1.3308619261

> <CNNaffinity_variance>
0.0006117336

$$$$
63:0


 27 30  0  0  0  0  0  0  0  0999 V2000
   57.0668   33.2351   46.8506 O   0  0  0  0  0  0  0  0  0  0  0  0
   58.3084   33.2895   46.6513 C   0  0  0  0  0  0  0  0  0  0  0  0
   58.9277   32.4384   45.5746 C   0  0  0  0  0  0  0  0  0  0  0  0
   58.8275   31.0161   45.8988 N   0  0  0  0  0  0  0  0  0  0  0  0
   57.8567   30.1598   45.5042 C   0  0  0  0  0  0  0  0  0  0  0  0
   56.7264   30.5377   44.7883 O   0  0  0  0  0  0  0  0  0  0  0  0
   58.1753   28.8694   45.8741 C   0  0  0  0  0  0  0  0  0  0  0  0
   59.3835   28.9330   46.5211 C   0  0  0  0  0  0  0  0  0  0  0  0
   59.7602   30.2621   46.5231 C   0  0  0  0  0  0  0  0  0  0  0  0
   60.9481   30.7613   47.0451 O   0  0  0  0  0  0  0  0  0  0  0  0
   60.1360   27.7379   47.0117 C   0  0  0  0  0  0  0  0  0  0  0  0
   59.4475   26.4444   46.6231 C   0  0  0  0  0  0  0  0  0  0  0  0
   58.2526   26.3824   45.9940 C   0  0  0  0  0  0  0  0  0  0  0  0
   57.4472   27.5981   45.5804 C   0  0  0  0  0  0  0  0  0  0  0  0
   59.0885   34.2637   47.3527 N   0  0  0  0  0  0  0  0  0  0  0  0
   60.2654   33.9543   48.1085 C   0  0  0  0  0  0  0  0  0  0  0  0
   61.5284   33.8795   47.4988 C   0  0  0  0  0  0  0  0  0  0  0  0
   62.6727   33.6629   48.2708 C   0  0  0  0  0  0  0  0  0  0  0  0
   62.5695   33.4855   49.6601 C   0  0  0  0  0  0  0  0  0  0  0  0
   61.3001   33.5211   50.2609 C   0  0  0  0  0  0  0  0  0  0  0  0
   60.1562   33.7432   49.4874 C   0  0  0  0  0  0  0  0  0  0  0  0
   63.7541   33.3049   50.4619 N   0  0  0  0  0  0  0  0  0  0  0  0
   64.9754   32.7610   49.8582 C   0  0  0  0  0  0  0  0  0  0  0  0
   65.9341   32.2741   50.9492 C   0  0  0  0  0  0  0  0  0  0  0  0
   65.1927   31.7094   52.0104 O   0  0  0  0  0  0  0  0  0  0  0  0
   64.5369   32.7294   52.7464 C   0  0  0  0  0  0  0  0  0  0  0  0
   63.7976   33.7582   51.8583 C   0  0  0  0  0  0  0  0  0  0  0  0
  1  2  2  0
  2  3  1  0
  3  4  1  0
  4  5  1  0
  5  6  1  0
  5  7  2  0
  7  8  1  0
  8  9  2  0
  9 10  1  0
  8 11  1  0
 11 12  1  0
 12 13  2  0
 13 14  1  0
  2 15  1  0
 15 16  1  0
 16 17  2  0
 17 18  1  0
 18 19  2  0
 19 22  1  0
 22 23  1  0
 23 24  1  0
 24 25  1  0
 25 26  1  0
 26 27  1  0
 19 20  1  0
 20 21  2  0
  9  4  1  0
 21 16  1  0
 14  7  1  0
 27 22  1  0
M  CHG 1   6  -1
M  CHG 1  10  -1
M  CHG 1  15  -1
M  END
> <UniqueID>
61

> <SMILES>
O=C(Cn1c([O-])c2c(c1[O-])CC=CC2)[N-]c1ccc(N2CCOCC2)cc1

> <Energy>
95.49190775191165

> <Genealogy>
O=C(Cn1c([O-])c2c(c1[O-])CC=CC2)[N-]c1ccc(N2CCOCC2)cc1 (protonated)
O=C(Cn1c([O-])c2c(c1[O-])CC=CC2)[N-]c1ccc(N2CCOCC2)cc1 (3D coordinates assigned)
O=C(Cn1c([O-])c2c(c1[O-])CC=CC2)[N-]c1ccc(N2CCOCC2)cc1 (nonaromatic ring conformer: 95.49190775191165 kcal/mol)

> <smiles>
O=C(Cn1c(O)c2c(c1O)CC=CC2)Nc1ccc(N2CCOCC2)cc1

> <score_type>
oracle

> <origin>
adg

> <m_score__min__energy>
-14.220000000000001

> <m_primary>
energy

> <minimizedAffinity>
-8.05697

> <minimizedRMSD>
3.10813

> <CNNscore>
0.6048418283

> <CNNaffinity>
6.5794124603

> <CNN_VS>
3.9795038700

> <CNNaffinity_variance>
0.0894124284

$$$$
76:0


 31 34  0  0  0  0  0  0  0  0999 V2000
   59.0968   33.1596   46.2205 C   0  0  0  0  0  0  0  0  0  0  0  0
   58.3896   34.0029   47.0978 C   0  0  0  0  0  0  0  0  0  0  0  0
   59.0399   34.6109   48.1736 C   0  0  0  0  0  0  0  0  0  0  0  0
   60.4016   34.3916   48.3877 C   0  0  0  0  0  0  0  0  0  0  0  0
   61.1229   33.5617   47.5200 C   0  0  0  0  0  0  0  0  0  0  0  0
   60.4697   32.9444   46.4444 C   0  0  0  0  0  0  0  0  0  0  0  0
   62.8367   33.2526   47.7927 S   0  0  0  0  0  0  0  0  0  0  0  0
   63.5578   33.3727   46.4797 O   0  0  0  0  0  0  0  0  0  0  0  0
   63.3928   34.2847   48.7349 O   0  0  0  0  0  0  0  0  0  0  0  0
   63.0487   31.6340   48.4271 N   0  0  0  0  0  0  0  0  0  0  0  0
   61.9196   30.7425   48.1468 C   0  0  0  0  0  0  0  0  0  0  0  0
   60.6382   31.1477   48.8811 C   0  0  0  0  0  0  0  0  0  0  0  0
   60.8480   31.6817   50.2437 N   0  0  0  0  0  0  0  0  0  0  0  0
   62.1949   32.0232   50.7578 C   0  0  0  0  0  0  0  0  0  0  0  0
   63.3696   31.6155   49.8548 C   0  0  0  0  0  0  0  0  0  0  0  0
   59.6786   32.0119   51.0579 C   0  0  0  0  0  0  0  0  0  0  0  0
   58.5406   31.1665   51.0884 C   0  0  0  0  0  0  0  0  0  0  0  0
   57.4259   31.4870   51.8701 C   0  0  0  0  0  0  0  0  0  0  0  0
   57.4159   32.6479   52.6374 C   0  0  0  0  0  0  0  0  0  0  0  0
   58.5219   33.4939   52.6305 C   0  0  0  0  0  0  0  0  0  0  0  0
   59.6423   33.1839   51.8550 C   0  0  0  0  0  0  0  0  0  0  0  0
   58.4065   32.5085   45.0832 C   0  0  0  0  0  0  0  0  0  0  0  0
   58.4832   33.0147   43.9301 O   0  0  0  0  0  0  0  0  0  0  0  0
   59.8925   28.5312   45.5633 C   0  0  0  0  0  0  0  0  0  0  0  0
   59.4074   29.8010   45.5702 N   0  0  0  0  0  0  0  0  0  0  0  0
   58.1012   30.0785   45.2909 C   0  0  0  0  0  0  0  0  0  0  0  0
   57.6521   31.3012   45.3027 N   0  0  0  0  0  0  0  0  0  0  0  0
   57.2240   29.0257   44.9866 C   0  0  0  0  0  0  0  0  0  0  0  0
   55.8871   29.2751   44.6967 O   0  0  0  0  0  0  0  0  0  0  0  0
   57.7057   27.7137   44.9739 C   0  0  0  0  0  0  0  0  0  0  0  0
   59.0469   27.4617   45.2632 C   0  0  0  0  0  0  0  0  0  0  0  0
 24 25  1  0
 25 26  1  0
 26 27  2  0
 27 22  1  0
 22 23  2  0
 22  1  1  0
  1  2  2  0
  2  3  1  0
  3  4  2  0
  4  5  1  0
  5  7  1  0
  7  8  2  0
  7  9  2  0
  7 10  1  0
 10 11  1  0
 11 12  1  0
 12 13  1  0
 13 16  1  0
 16 17  2  0
 17 18  1  0
 18 19  2  0
 19 20  1  0
 20 21  2  0
 13 14  1  0
 14 15  1  0
  5  6  2  0
 26 28  1  0
 28 29  1  0
 28 30  2  0
 30 31  1  0
 31 24  2  0
  6  1  1  0
 15 10  1  0
 21 16  1  0
M  CHG 1  25  -1
M  CHG 1  29  -1
M  END
> <UniqueID>
73

> <SMILES>
O=C(/N=c1\[n-]cccc1[O-])c1cccc(S(=O)(=O)N2CCN(c3ccccc3)CC2)c1

> <Energy>
70.06494133069897

> <Genealogy>
O=C(N=c1[n-]cccc1[O-])c1cccc(S(=O)(=O)N2CCN(c3ccccc3)CC2)c1 (protonated)
O=C(/N=c1\[n-]cccc1[O-])c1cccc(S(=O)(=O)N2CCN(c3ccccc3)CC2)c1 (cis-trans isomerization)
O=C(/N=c1\[n-]cccc1[O-])c1cccc(S(=O)(=O)N2CCN(c3ccccc3)CC2)c1 (3D coordinates assigned)
O=C(/N=c1\[n-]cccc1[O-])c1cccc(S(=O)(=O)N2CCN(c3ccccc3)CC2)c1 (nonaromatic ring conformer: 70.06494133069897 kcal/mol)

> <smiles>
O=C(N=c1[nH]cccc1O)c1cccc(S(=O)(=O)N2CCN(c3ccccc3)CC2)c1

> <score_type>
oracle

> <origin>
adg

> <m_score__min__energy>
-15.52

> <m_primary>
energy

> <minimizedAffinity>
-6.88472

> <minimizedRMSD>
0.76362

> <CNNscore>
0.5405538678

> <CNNaffinity>
6.7440590858

> <CNN_VS>
3.6455271244

> <CNNaffinity_variance>
0.1733615845

$$$$
81:0


 23 24  0  0  0  0  0  0  0  0999 V2000
   57.8110   27.9113   45.6698 C   0  0  0  0  0  0  0  0  0  0  0  0
   58.2000   27.8551   46.8649 O   0  0  0  0  0  0  0  0  0  0  0  0
   57.0606   29.2093   43.8555 O   0  0  0  0  0  0  0  0  0  0  0  0
   57.4964   29.2076   45.0365 C   0  0  0  0  0  0  0  0  0  0  0  0
   57.6578   30.4711   45.7002 N   0  0  0  0  0  0  0  0  0  0  0  0
   57.8681   31.7765   45.0784 C   0  0  0  0  0  0  0  0  0  0  0  0
   58.7766   32.6361   45.9193 C   0  0  0  0  0  0  0  0  0  0  0  0
   58.7833   34.0332   45.7625 C   0  0  0  0  0  0  0  0  0  0  0  0
   59.6394   34.8243   46.5325 C   0  0  0  0  0  0  0  0  0  0  0  0
   60.5047   34.2286   47.4552 C   0  0  0  0  0  0  0  0  0  0  0  0
   60.5166   32.8394   47.6054 C   0  0  0  0  0  0  0  0  0  0  0  0
   59.6610   32.0443   46.8364 C   0  0  0  0  0  0  0  0  0  0  0  0
   57.6894   26.7115   44.8925 N   0  0  0  0  0  0  0  0  0  0  0  0
   57.3045   25.4148   45.3771 C   0  0  0  0  0  0  0  0  0  0  0  0
   58.1672   24.3060   45.2921 C   0  0  0  0  0  0  0  0  0  0  0  0
   57.7730   23.0499   45.7906 C   0  0  0  0  0  0  0  0  0  0  0  0
   56.5077   22.9222   46.3928 C   0  0  0  0  0  0  0  0  0  0  0  0
   55.6614   24.0273   46.5017 C   0  0  0  0  0  0  0  0  0  0  0  0
   56.0580   25.2697   46.0026 C   0  0  0  0  0  0  0  0  0  0  0  0
   55.2054   26.3617   46.1244 O   0  0  0  0  0  0  0  0  0  0  0  0
   58.6573   21.9183   45.6956 N   0  0  0  0  0  0  0  0  0  0  0  0
   59.7819   22.0327   45.1644 O   0  0  0  0  0  0  0  0  0  0  0  0
   58.2812   20.6918   46.1923 O   0  0  0  0  0  0  0  0  0  0  0  0
  3  4  2  0
  4  5  1  0
  5  6  1  0
  6  7  1  0
  7  8  2  0
  8  9  1  0
  9 10  2  0
 10 11  1  0
 11 12  2  0
  4  1  1  0
  1  2  2  0
  1 13  1  0
 13 14  1  0
 14 15  2  0
 15 16  1  0
 16 21  1  0
 21 22  2  0
 21 23  1  0
 16 17  2  0
 17 18  1  0
 18 19  2  0
 19 20  1  0
 12  7  1  0
 19 14  1  0
M  CHG 1   5  -1
M  CHG 1  13  -1
M  CHG 1  20  -1
M  CHG 1  21   1
M  CHG 1  23  -1
M  END
> <UniqueID>
77

> <SMILES>
O=C([N-]Cc1ccccc1)C(=O)[N-]c1cc([N+](=O)[O-])ccc1[O-]

> <Energy>
38.67946205246157

> <Genealogy>
O=C([N-]Cc1ccccc1)C(=O)[N-]c1cc([N+](=O)[O-])ccc1[O-] (protonated)
O=C([N-]Cc1ccccc1)C(=O)[N-]c1cc([N+](=O)[O-])ccc1[O-] (3D coordinates assigned)
O=C([N-]Cc1ccccc1)C(=O)[N-]c1cc([N+](=O)[O-])ccc1[O-] (optimized conformer: 38.67946205246157 kcal/mol)

> <smiles>
O=C(NCc1ccccc1)C(=O)Nc1cc([N+](=O)[O-])ccc1O

> <score_type>
oracle

> <origin>
adg

> <m_score__min__energy>
-14.789999999999999

> <m_primary>
energy

> <minimizedAffinity>
-6.31456

> <minimizedRMSD>
1.05575

> <CNNscore>
0.5066903830

> <CNNaffinity>
5.9653663635

> <CNN_VS>
3.0225937366

> <CNNaffinity_variance>
0.2552669346

$$$$
9:0


 28 30  0  0  0  0  0  0  0  0999 V2000
   56.6918   31.9916   44.7634 N   0  0  0  0  0  0  0  0  0  0  0  0
   56.1650   30.8632   45.1526 C   0  0  0  0  0  0  0  0  0  0  0  0
   60.5757   32.5841   47.2418 S   0  0  0  0  0  0  0  0  0  0  0  0
   59.7233   32.6804   48.6926 C   0  0  0  0  0  0  0  0  0  0  0  0
   58.3628   32.7299   48.4041 C   0  0  0  0  0  0  0  0  0  0  0  0
   58.0697   32.7145   47.0773 N   0  0  0  0  0  0  0  0  0  0  0  0
   58.5372   33.4228   46.5783 H   0  0  0  0  0  0  0  0  0  0  0  0
   57.9841   32.2381   44.1827 C   0  0  0  0  0  0  0  0  0  0  0  0
   58.4906   31.4135   43.3773 O   0  0  0  0  0  0  0  0  0  0  0  0
   58.6529   27.8892   45.9072 C   0  0  0  0  0  0  0  0  0  0  0  0
   57.9737   29.0268   45.5907 N   0  0  0  0  0  0  0  0  0  0  0  0
   59.3408   33.8428   45.4646 C   0  0  0  0  0  0  0  0  0  0  0  0
   58.6721   33.4784   44.4082 N   0  0  0  0  0  0  0  0  0  0  0  0
   59.9329   30.3595   45.8675 C   0  0  0  0  0  0  0  0  0  0  0  0
   60.6526   29.2105   46.1942 C   0  0  0  0  0  0  0  0  0  0  0  0
   60.0191   27.9679   46.2118 C   0  0  0  0  0  0  0  0  0  0  0  0
   56.5147   26.5797   46.0204 N   0  0  0  0  0  0  0  0  0  0  0  0
   57.9370   26.6006   45.9269 C   0  0  0  0  0  0  0  0  0  0  0  0
   58.5704   25.5130   45.8631 O   0  0  0  0  0  0  0  0  0  0  0  0
   56.0348   25.7201   46.0337 H   0  0  0  0  0  0  0  0  0  0  0  0
   60.3289   32.6028   50.0578 C   0  0  0  0  0  0  0  0  0  0  0  0
   60.2969   31.1843   50.5552 C   0  0  0  0  0  0  0  0  0  0  0  0
   61.1661   30.2243   50.0131 C   0  0  0  0  0  0  0  0  0  0  0  0
   61.1647   28.9145   50.5031 C   0  0  0  0  0  0  0  0  0  0  0  0
   60.3011   28.5567   51.5432 C   0  0  0  0  0  0  0  0  0  0  0  0
   59.4431   29.5101   52.0989 C   0  0  0  0  0  0  0  0  0  0  0  0
   58.6136   29.1653   53.1139 F   0  0  0  0  0  0  0  0  0  0  0  0
   59.4429   30.8213   51.6101 C   0  0  0  0  0  0  0  0  0  0  0  0
 17 18  1  0
 18 19  2  0
 18 10  1  0
 10 11  1  0
 11 12  1  0
 12 13  2  0
 13  8  1  0
  8  9  2  0
  8  1  1  0
  1  2  2  0
  2  3  1  0
  3  4  1  0
  4 21  1  0
 21 22  1  0
 22 23  2  0
 23 24  1  0
 24 25  2  0
 25 26  1  0
 26 27  1  0
 26 28  2  0
  4  5  2  0
  5  6  1  0
 12 14  1  0
 14 15  2  0
 15 16  1  0
 16 10  2  0
  6  2  1  0
 28 22  1  0
 17 20  1  0
  6  7  1  0
M  CHG 1  11  -1
M  CHG 1  17  -1
M  END
> <UniqueID>
10

> <SMILES>
[NH-]C(=O)c1ccc/c(=N\C(=O)/N=c2/[nH]cc(Cc3cccc(F)c3)s2)[n-]1

> <Energy>
79.19359613046996

> <Genealogy>
[NH-]C(=O)c1cccc(=NC(=O)N=c2[nH]cc(Cc3cccc(F)c3)s2)[n-]1 (protonated)
[NH-]C(=O)c1ccc/c(=N\C(=O)/N=c2/[nH]cc(Cc3cccc(F)c3)s2)[n-]1 (cis-trans isomerization)
[NH-]C(=O)c1ccc/c(=N\C(=O)/N=c2/[nH]cc(Cc3cccc(F)c3)s2)[n-]1 (3D coordinates assigned)
[NH-]C(=O)c1ccc/c(=N\C(=O)/N=c2/[nH]cc(Cc3cccc(F)c3)s2)[n-]1 (optimized conformer: 79.19359613046996 kcal/mol)

> <smiles>
NC(=O)c1cccc(=NC(=O)N=c2[nH]cc(Cc3cccc(F)c3)s2)[nH]1

> <score_type>
oracle

> <origin>
adg

> <m_score__min__energy>
-14.27

> <m_primary>
energy

> <minimizedAffinity>
-4.47040

> <minimizedRMSD>
3.44370

> <CNNscore>
0.1641647220

> <CNNaffinity>
6.6109180450

> <CNN_VS>
1.0852794647

> <CNNaffinity_variance>
0.0569349118

$$$$
21:0


 25 27  0  0  0  0  0  0  0  0999 V2000
   58.0311   26.7446   46.4625 C   0  0  0  0  0  0  0  0  0  0  0  0
   57.1854   27.6144   45.8717 N   0  0  0  0  0  0  0  0  0  0  0  0
   57.8886   28.7544   45.7506 C   0  0  0  0  0  0  0  0  0  0  0  0
   57.3778   29.9064   45.1645 O   0  0  0  0  0  0  0  0  0  0  0  0
   59.1619   28.6251   46.2642 C   0  0  0  0  0  0  0  0  0  0  0  0
   59.2626   27.3274   46.7153 C   0  0  0  0  0  0  0  0  0  0  0  0
   57.6729   25.3540   46.7728 C   0  0  0  0  0  0  0  0  0  0  0  0
   56.7843   25.1249   47.6377 O   0  0  0  0  0  0  0  0  0  0  0  0
   57.1025   25.0840   43.7160 O   0  0  0  0  0  0  0  0  0  0  0  0
   57.1610   23.7509   44.1279 C   0  0  0  0  0  0  0  0  0  0  0  0
   56.5766   22.7669   43.3245 C   0  0  0  0  0  0  0  0  0  0  0  0
   56.6231   21.4280   43.7150 C   0  0  0  0  0  0  0  0  0  0  0  0
   57.2543   21.0863   44.9113 C   0  0  0  0  0  0  0  0  0  0  0  0
   57.8161   22.0543   45.6820 N   0  0  0  0  0  0  0  0  0  0  0  0
   57.7902   23.3715   45.3297 C   0  0  0  0  0  0  0  0  0  0  0  0
   58.3376   24.2801   46.0864 N   0  0  0  0  0  0  0  0  0  0  0  0
   56.6773   25.3076   42.9115 H   0  0  0  0  0  0  0  0  0  0  0  0
   60.2605   29.6472   46.2360 C   0  0  0  0  0  0  0  0  0  0  0  0
   60.3440   30.4279   47.5539 C   0  0  0  0  0  0  0  0  0  0  0  0
   60.0676   31.8953   47.3511 C   0  0  0  0  0  0  0  0  0  0  0  0
   59.3831   32.3396   46.2061 C   0  0  0  0  0  0  0  0  0  0  0  0
   59.0905   33.6952   46.0425 C   0  0  0  0  0  0  0  0  0  0  0  0
   59.4741   34.6181   47.0195 C   0  0  0  0  0  0  0  0  0  0  0  0
   60.1491   34.1853   48.1636 C   0  0  0  0  0  0  0  0  0  0  0  0
   60.4420   32.8282   48.3338 C   0  0  0  0  0  0  0  0  0  0  0  0
  9 10  1  0
 10 11  2  0
 11 12  1  0
 12 13  2  0
 13 14  1  0
 14 15  1  0
 15 16  2  0
 16  7  1  0
  7  8  2  0
  7  1  1  0
  1  2  1  0
  2  3  1  0
  3  4  1  0
  3  5  2  0
  5 18  1  0
 18 19  1  0
 19 20  1  0
 20 21  2  0
 21 22  1  0
 22 23  2  0
 23 24  1  0
 24 25  2  0
  5  6  1  0
 15 10  1  0
  6  1  2  0
 25 20  1  0
  9 17  1  0
M  CHG 1   2  -1
M  CHG 1   4  -1
M  CHG 1  14  -1
M  END
> <UniqueID>
21

> <SMILES>
O=C(/N=c1\[n-]cccc1O)c1cc(CCc2ccccc2)c([O-])[n-]1

> <Energy>
64.66084943106472

> <Genealogy>
O=C(N=c1[n-]cccc1O)c1cc(CCc2ccccc2)c([O-])[n-]1 (protonated)
O=C(/N=c1\[n-]cccc1O)c1cc(CCc2ccccc2)c([O-])[n-]1 (cis-trans isomerization)
O=C(/N=c1\[n-]cccc1O)c1cc(CCc2ccccc2)c([O-])[n-]1 (3D coordinates assigned)
O=C(/N=c1\[n-]cccc1O)c1cc(CCc2ccccc2)c([O-])[n-]1 (optimized conformer: 64.66084943106472 kcal/mol)

> <smiles>
O=C(N=c1[nH]cccc1O)c1cc(CCc2ccccc2)c(O)[nH]1

> <score_type>
oracle

> <origin>
adg

> <m_score__min__energy>
-15.039999999999999

> <m_primary>
energy

> <minimizedAffinity>
-8.07145

> <minimizedRMSD>
1.75910

> <CNNscore>
0.6307913065

> <CNNaffinity>
7.0062813759

> <CNN_VS>
4.4195013046

> <CNNaffinity_variance>
1.4537903070

$$$$
57:0


 22 23  0  0  0  0  0  0  0  0999 V2000
   58.5667   30.6627   45.6333 N   0  0  0  0  0  0  0  0  0  0  0  0
   58.7812   31.9408   45.7794 C   0  0  0  0  0  0  0  0  0  0  0  0
   59.3903   32.3620   46.9222 N   0  0  0  0  0  0  0  0  0  0  0  0
   59.6527   33.6737   47.1758 C   0  0  0  0  0  0  0  0  0  0  0  0
   59.2856   34.6447   46.2431 C   0  0  0  0  0  0  0  0  0  0  0  0
   58.6408   34.2551   45.0701 C   0  0  0  0  0  0  0  0  0  0  0  0
   58.3780   32.9050   44.8303 C   0  0  0  0  0  0  0  0  0  0  0  0
   57.4166   29.9964   45.0940 C   0  0  0  0  0  0  0  0  0  0  0  0
   56.3764   30.6694   44.8651 O   0  0  0  0  0  0  0  0  0  0  0  0
   60.0142   26.6748   46.3245 C   0  0  0  0  0  0  0  0  0  0  0  0
   59.3367   27.6401   45.6482 N   0  0  0  0  0  0  0  0  0  0  0  0
   57.9843   27.6169   45.4866 C   0  0  0  0  0  0  0  0  0  0  0  0
   57.4417   28.5900   44.8089 N   0  0  0  0  0  0  0  0  0  0  0  0
   57.2472   26.5654   46.0934 C   0  0  0  0  0  0  0  0  0  0  0  0
   55.8590   26.5258   46.0868 O   0  0  0  0  0  0  0  0  0  0  0  0
   57.9349   25.5565   46.7764 C   0  0  0  0  0  0  0  0  0  0  0  0
   59.3223   25.6061   46.8906 C   0  0  0  0  0  0  0  0  0  0  0  0
   60.2975   34.0661   48.3880 N   0  0  0  0  0  0  0  0  0  0  0  0
   61.8870   33.5298   48.8240 S   0  0  0  0  0  0  0  0  0  0  0  0
   61.7847   32.1801   49.4747 O   0  0  0  0  0  0  0  0  0  0  0  0
   62.4992   34.4978   49.7964 O   0  0  0  0  0  0  0  0  0  0  0  0
   62.9017   33.4005   47.3681 C   0  0  0  0  0  0  0  0  0  0  0  0
 10 11  1  0
 11 12  1  0
 12 13  2  0
 13  8  1  0
  8  9  2  0
  8  1  1  0
  1  2  2  0
  2  3  1  0
  3  4  1  0
  4 18  1  0
 18 19  1  0
 19 20  2  0
 19 21  2  0
 19 22  1  0
  4  5  2  0
  5  6  1  0
  6  7  2  0
 12 14  1  0
 14 15  1  0
 14 16  2  0
 16 17  1  0
 17 10  2  0
  7  2  1  0
M  CHG 1   3  -1
M  CHG 1  11  -1
M  CHG 1  15  -1
M  CHG 1  18  -1
M  END
> <UniqueID>
55

> <SMILES>
CS(=O)(=O)[N-]c1cccc(=NC(=O)/N=c2/[n-]cccc2[O-])[n-]1

> <Energy>
50.18855201507849

> <Genealogy>
CS(=O)(=O)[N-]c1cccc(=NC(=O)N=c2[n-]cccc2[O-])[n-]1 (protonated)
CS(=O)(=O)[N-]c1cccc(=NC(=O)/N=c2/[n-]cccc2[O-])[n-]1 (cis-trans isomerization)
CS(=O)(=O)[N-]c1cccc(=NC(=O)/N=c2/[n-]cccc2[O-])[n-]1 (3D coordinates assigned)
CS(=O)(=O)[N-]c1cccc(=NC(=O)/N=c2/[n-]cccc2[O-])[n-]1 (optimized conformer: 50.18855201507849 kcal/mol)

> <smiles>
CS(=O)(=O)Nc1cccc(=NC(=O)N=c2[nH]cccc2O)[nH]1

> <score_type>
oracle

> <origin>
adg

> <m_score__min__energy>
-14.59

> <m_primary>
energy

> <minimizedAffinity>
-7.70000

> <minimizedRMSD>
0.86530

> <CNNscore>
0.8563992977

> <CNNaffinity>
6.5576992035

> <CNN_VS>
5.6160087585

> <CNNaffinity_variance>
0.2683924139

$$$$
11:0


 24 26  0  0  0  0  0  0  0  0999 V2000
   53.3137   30.1938   54.8707 C   0  0  0  0  0  0  0  0  0  0  0  0
   53.4884   30.1615   56.2649 C   0  0  0  0  0  0  0  0  0  0  0  0
   52.4732   30.5965   57.1178 C   0  0  0  0  0  0  0  0  0  0  0  0
   51.2694   31.0621   56.5894 C   0  0  0  0  0  0  0  0  0  0  0  0
   51.0780   31.0958   55.2066 C   0  0  0  0  0  0  0  0  0  0  0  0
   52.0909   30.6626   54.3313 C   0  0  0  0  0  0  0  0  0  0  0  0
   51.8871   30.7672   52.8681 C   0  0  0  0  0  0  0  0  0  0  0  0
   52.2647   29.8242   51.9831 N   0  0  0  0  0  0  0  0  0  0  0  0
   51.9157   30.3490   50.7907 C   0  0  0  0  0  0  0  0  0  0  0  0
   52.1163   29.7513   49.7013 O   0  0  0  0  0  0  0  0  0  0  0  0
   51.3385   31.5677   50.8548 N   0  0  0  0  0  0  0  0  0  0  0  0
   51.3292   31.8200   52.1740 C   0  0  0  0  0  0  0  0  0  0  0  0
   50.7980   32.9780   52.7279 O   0  0  0  0  0  0  0  0  0  0  0  0
   56.1268   30.2780   55.3973 O   0  0  0  0  0  0  0  0  0  0  0  0
   55.7352   29.7088   54.3431 C   0  0  0  0  0  0  0  0  0  0  0  0
   54.3387   29.6684   54.0121 N   0  0  0  0  0  0  0  0  0  0  0  0
   54.0709   29.2615   53.1566 H   0  0  0  0  0  0  0  0  0  0  0  0
   56.7447   29.1358   53.3959 C   0  0  0  0  0  0  0  0  0  0  0  0
   57.3975   30.2374   52.6060 C   0  0  0  0  0  0  0  0  0  0  0  0
   57.1554   31.5843   52.9279 C   0  0  0  0  0  0  0  0  0  0  0  0
   57.7895   32.6046   52.2117 C   0  0  0  0  0  0  0  0  0  0  0  0
   58.6752   32.2878   51.1790 C   0  0  0  0  0  0  0  0  0  0  0  0
   58.9294   30.9513   50.8607 C   0  0  0  0  0  0  0  0  0  0  0  0
   58.2962   29.9285   51.5721 C   0  0  0  0  0  0  0  0  0  0  0  0
 14 15  2  0
 15 18  1  0
 18 19  1  0
 19 20  2  0
 20 21  1  0
 21 22  2  0
 22 23  1  0
 23 24  2  0
 15 16  1  0
 16  1  1  0
  1  2  2  0
  2  3  1  0
  3  4  2  0
  4  5  1  0
  5  6  2  0
  6  7  1  0
  7  8  1  0
  8  9  1  0
  9 10  2  0
  9 11  1  0
 11 12  1  0
 12 13  1  0
 24 19  1  0
  6  1  1  0
 12  7  2  0
 16 17  1  0
M  CHG 1   8  -1
M  CHG 1  11  -1
M  CHG 1  13  -1
M  END
> <UniqueID>
12

> <SMILES>
O=C(Cc1ccccc1)Nc1ccccc1-c1[n-]c(=O)[n-]c1[O-]

> <Energy>
72.35535437293802

> <Genealogy>
O=C(Cc1ccccc1)Nc1ccccc1-c1[n-]c(=O)[n-]c1[O-] (protonated)
O=C(Cc1ccccc1)Nc1ccccc1-c1[n-]c(=O)[n-]c1[O-] (3D coordinates assigned)
O=C(Cc1ccccc1)Nc1ccccc1-c1[n-]c(=O)[n-]c1[O-] (optimized conformer: 72.35535437293802 kcal/mol)

> <smiles>
O=C(Cc1ccccc1)Nc1ccccc1-c1[nH]c(=O)[nH]c1O

> <score_type>
oracle

> <origin>
adg

> <m_score__min__energy>
-15.58

> <m_primary>
energy

> <minimizedAffinity>
-5.41674

> <minimizedRMSD>
1.17362

> <CNNscore>
0.1921464056

> <CNNaffinity>
4.5441174507

> <CNN_VS>
0.8731358051

> <CNNaffinity_variance>
0.0819328055

$$$$
14:0


 32 35  0  0  0  0  0  0  0  0999 V2000
   60.2661   30.0445   47.3792 C   0  0  0  0  0  0  0  0  0  0  0  0
   59.8547   31.2155   46.8686 C   0  0  0  0  0  0  0  0  0  0  0  0
   59.2343   31.4096   45.6306 C   0  0  0  0  0  0  0  0  0  0  0  0
   58.9219   30.4719   44.7149 C   0  0  0  0  0  0  0  0  0  0  0  0
   58.9547   32.7666   45.5414 C   0  0  0  0  0  0  0  0  0  0  0  0
   59.4229   33.3445   46.7039 C   0  0  0  0  0  0  0  0  0  0  0  0
   59.3145   34.8022   47.0337 C   0  0  0  0  0  0  0  0  0  0  0  0
   59.9644   32.4049   47.5130 N   0  0  0  0  0  0  0  0  0  0  0  0
   58.4374   29.1178   45.0676 C   0  0  0  0  0  0  0  0  0  0  0  0
   57.0682   28.8438   45.2293 C   0  0  0  0  0  0  0  0  0  0  0  0
   56.1162   29.8435   45.0651 O   0  0  0  0  0  0  0  0  0  0  0  0
   56.6614   27.5842   45.5317 N   0  0  0  0  0  0  0  0  0  0  0  0
   57.5539   26.5704   45.6634 C   0  0  0  0  0  0  0  0  0  0  0  0
   57.0336   25.0671   46.0265 S   0  0  0  0  0  0  0  0  0  0  0  0
   58.8781   26.8037   45.4813 N   0  0  0  0  0  0  0  0  0  0  0  0
   59.3378   28.0466   45.1815 C   0  0  0  0  0  0  0  0  0  0  0  0
   60.5746   28.2254   45.0164 O   0  0  0  0  0  0  0  0  0  0  0  0
   60.5592   32.6476   48.8008 C   0  0  0  0  0  0  0  0  0  0  0  0
   59.7589   33.0363   49.8844 C   0  0  0  0  0  0  0  0  0  0  0  0
   60.3362   33.2686   51.1326 C   0  0  0  0  0  0  0  0  0  0  0  0
   61.7142   33.1214   51.3080 C   0  0  0  0  0  0  0  0  0  0  0  0
   62.5372   32.7448   50.2302 C   0  0  0  0  0  0  0  0  0  0  0  0
   61.9429   32.5046   48.9767 C   0  0  0  0  0  0  0  0  0  0  0  0
   64.0024   32.5858   50.4443 C   0  0  0  0  0  0  0  0  0  0  0  0
   64.7925   33.3265   49.7914 O   0  0  0  0  0  0  0  0  0  0  0  0
   64.5391   31.6401   51.4048 N   0  0  0  0  0  0  0  0  0  0  0  0
   65.9946   31.4550   51.1712 C   0  0  0  0  0  0  0  0  0  0  0  0
   66.5592   30.1711   51.8212 C   0  0  0  0  0  0  0  0  0  0  0  0
   65.6705   29.6725   52.9609 C   0  0  0  0  0  0  0  0  0  0  0  0
   64.2363   29.4050   52.4722 C   0  0  0  0  0  0  0  0  0  0  0  0
   63.8133   30.3539   51.3304 C   0  0  0  0  0  0  0  0  0  0  0  0
   64.6532   32.5109   50.9600 H   0  0  0  0  0  0  0  0  0  0  0  0
  1  2  2  0
  2  3  1  0
  3  4  2  0
  4  9  1  0
  9 10  2  0
 10 11  1  0
 10 12  1  0
 12 13  1  0
 13 14  2  0
 13 15  1  0
 15 16  1  0
 16 17  2  0
  3  5  1  0
  5  6  2  0
  6  7  1  0
  6  8  1  0
  8 18  1  0
 18 19  2  0
 19 20  1  0
 20 21  2  0
 21 22  1  0
 22 24  1  0
 24 25  2  0
 24 26  1  0
 26 27  1  0
 27 28  1  0
 28 29  1  0
 29 30  1  0
 30 31  1  0
 22 23  2  0
  8  2  1  0
 23 18  1  0
 16  9  1  0
 31 26  1  0
 26 32  1  0
M  CHG 1  11  -1
M  CHG 1  12  -1
M  CHG 1  15  -1
M  CHG 1  26   1
M  END
> <UniqueID>
15

> <SMILES>
C=c1c(=Cc2c([O-])[n-]c(=S)[n-]c2=O)cc(C)n1-c1cccc(C(=O)[NH+]2CCCCC2)c1

> <Energy>
110.19318460904292

> <Genealogy>
C=c1c(=Cc2c([O-])[n-]c(=S)[n-]c2=O)cc(C)n1-c1cccc(C(=O)[NH+]2CCCCC2)c1 (protonated)
C=c1c(=Cc2c([O-])[n-]c(=S)[n-]c2=O)cc(C)n1-c1cccc(C(=O)[NH+]2CCCCC2)c1 (3D coordinates assigned)
C=c1c(=Cc2c([O-])[n-]c(=S)[n-]c2=O)cc(C)n1-c1cccc(C(=O)[NH+]2CCCCC2)c1 (nonaromatic ring conformer: 110.19318460904292 kcal/mol)

> <smiles>
C=c1c(=Cc2c(O)[nH]c(=S)[nH]c2=O)cc(C)n1-c1cccc(C(=O)N2CCCCC2)c1

> <score_type>
oracle

> <origin>
adg

> <m_score__min__energy>
-16.120000000000001

> <m_primary>
energy

> <minimizedAffinity>
-7.52781

> <minimizedRMSD>
1.65604

> <CNNscore>
0.2800002992

> <CNNaffinity>
7.0210361481

> <CNN_VS>
1.9658921957

> <CNNaffinity_variance>
0.2335701436

$$$$
15:0


 29 31  0  0  0  0  0  0  0  0999 V2000
   58.3718   27.6672   45.5910 C   0  0  0  0  0  0  0  0  0  0  0  0
   59.7751   27.6012   45.5352 C   0  0  0  0  0  0  0  0  0  0  0  0
   60.5209   28.7418   45.2317 C   0  0  0  0  0  0  0  0  0  0  0  0
   59.8770   29.9516   44.9674 C   0  0  0  0  0  0  0  0  0  0  0  0
   58.4779   30.0308   44.9954 C   0  0  0  0  0  0  0  0  0  0  0  0
   57.7260   28.8790   45.3014 C   0  0  0  0  0  0  0  0  0  0  0  0
   56.3349   28.9323   45.3284 O   0  0  0  0  0  0  0  0  0  0  0  0
   57.6902   31.5793   44.6489 S   0  0  0  0  0  0  0  0  0  0  0  0
   58.0614   32.0176   43.2595 O   0  0  0  0  0  0  0  0  0  0  0  0
   56.1967   31.4065   44.6919 O   0  0  0  0  0  0  0  0  0  0  0  0
   58.1604   32.8200   45.7850 N   0  0  0  0  0  0  0  0  0  0  0  0
   58.8019   32.2263   46.9668 C   0  0  0  0  0  0  0  0  0  0  0  0
   59.1887   33.3361   47.9677 C   0  0  0  0  0  0  0  0  0  0  0  0
   58.9945   34.6338   47.4333 O   0  0  0  0  0  0  0  0  0  0  0  0
   59.6667   34.7487   46.1934 C   0  0  0  0  0  0  0  0  0  0  0  0
   59.0672   33.7884   45.1464 C   0  0  0  0  0  0  0  0  0  0  0  0
   57.5756   26.5069   45.8761 N   0  0  0  0  0  0  0  0  0  0  0  0
   58.5566   25.8759   47.9083 O   0  0  0  0  0  0  0  0  0  0  0  0
   57.6664   25.6758   47.0392 C   0  0  0  0  0  0  0  0  0  0  0  0
   56.6863   24.5623   47.2253 C   0  0  0  0  0  0  0  0  0  0  0  0
   56.7892   23.6001   46.0811 C   0  0  0  0  0  0  0  0  0  0  0  0
   55.9465   23.7176   44.9674 C   0  0  0  0  0  0  0  0  0  0  0  0
   56.0889   22.8292   43.8989 C   0  0  0  0  0  0  0  0  0  0  0  0
   55.2513   22.9405   42.7949 O   0  0  0  0  0  0  0  0  0  0  0  0
   57.0775   21.8364   43.9470 C   0  0  0  0  0  0  0  0  0  0  0  0
   57.2521   20.9299   42.9018 O   0  0  0  0  0  0  0  0  0  0  0  0
   57.9057   21.7573   45.0705 C   0  0  0  0  0  0  0  0  0  0  0  0
   57.7491   22.6342   46.0990 N   0  0  0  0  0  0  0  0  0  0  0  0
   56.7015   20.9756   42.1450 H   0  0  0  0  0  0  0  0  0  0  0  0
 18 19  2  0
 19 20  1  0
 20 21  1  0
 21 22  2  0
 22 23  1  0
 23 24  1  0
 23 25  2  0
 25 26  1  0
 25 27  1  0
 27 28  2  0
 19 17  1  0
 17  1  1  0
  1  2  2  0
  2  3  1  0
  3  4  2  0
  4  5  1  0
  5  8  1  0
  8  9  2  0
  8 10  2  0
  8 11  1  0
 11 12  1  0
 12 13  1  0
 13 14  1  0
 14 15  1  0
 15 16  1  0
  5  6  2  0
  6  7  1  0
 28 21  1  0
  6  1  1  0
 16 11  1  0
 26 29  1  0
M  CHG 1   7  -1
M  CHG 1  17  -1
M  CHG 1  24  -1
M  END
> <UniqueID>
16

> <SMILES>
O=C(Cc1cc([O-])c(O)cn1)[N-]c1cccc(S(=O)(=O)N2CCOCC2)c1[O-]

> <Energy>
56.062170296143655

> <Genealogy>
O=C(Cc1cc([O-])c(O)cn1)[N-]c1cccc(S(=O)(=O)N2CCOCC2)c1[O-] (protonated)
O=C(Cc1cc([O-])c(O)cn1)[N-]c1cccc(S(=O)(=O)N2CCOCC2)c1[O-] (3D coordinates assigned)
O=C(Cc1cc([O-])c(O)cn1)[N-]c1cccc(S(=O)(=O)N2CCOCC2)c1[O-] (nonaromatic ring conformer: 56.062170296143655 kcal/mol)

> <smiles>
O=C(Cc1cc(O)c(O)cn1)Nc1cccc(S(=O)(=O)N2CCOCC2)c1O

> <score_type>
oracle

> <origin>
adg

> <m_score__min__energy>
-16.120000000000001

> <m_primary>
energy

> <minimizedAffinity>
-7.53544

> <minimizedRMSD>
1.48947

> <CNNscore>
0.2442220300

> <CNNaffinity>
5.9928874969

> <CNN_VS>
1.4635951519

> <CNNaffinity_variance>
0.0715647414

$$$$
27:0


 34 36  0  0  0  0  0  0  0  0999 V2000
   58.9596   32.0017   47.1165 C   0  0  0  0  0  0  0  0  0  0  0  0
   59.5261   32.6599   46.0221 C   0  0  0  0  0  0  0  0  0  0  0  0
   60.2028   33.8648   46.2160 C   0  0  0  0  0  0  0  0  0  0  0  0
   60.3181   34.3885   47.4645 N   0  0  0  0  0  0  0  0  0  0  0  0
   59.7895   33.7695   48.5575 C   0  0  0  0  0  0  0  0  0  0  0  0
   59.8862   34.2973   49.7439 N   0  0  0  0  0  0  0  0  0  0  0  0
   59.0927   32.5642   48.3989 C   0  0  0  0  0  0  0  0  0  0  0  0
   60.1634   33.5966   50.9682 C   0  0  0  0  0  0  0  0  0  0  0  0
   59.1674   33.3770   51.9366 C   0  0  0  0  0  0  0  0  0  0  0  0
   59.4811   32.7287   53.1345 C   0  0  0  0  0  0  0  0  0  0  0  0
   60.7900   32.3075   53.3834 C   0  0  0  0  0  0  0  0  0  0  0  0
   61.7944   32.5274   52.4300 C   0  0  0  0  0  0  0  0  0  0  0  0
   61.4777   33.1902   51.2326 C   0  0  0  0  0  0  0  0  0  0  0  0
   63.2094   32.1067   52.7109 C   0  0  0  0  0  0  0  0  0  0  0  0
   63.7443   30.8817   51.5264 S   0  0  0  0  0  0  0  0  0  0  0  0
   62.4235   29.7221   51.2500 C   0  0  0  0  0  0  0  0  0  0  0  0
   64.0961   31.5515   50.2288 O   0  0  0  0  0  0  0  0  0  0  0  0
   64.9463   30.1494   52.0555 O   0  0  0  0  0  0  0  0  0  0  0  0
   58.3035   30.7799   46.8979 O   0  0  0  0  0  0  0  0  0  0  0  0
   58.6133   28.4097   46.3047 C   0  0  0  0  0  0  0  0  0  0  0  0
   59.1320   27.1425   46.6498 C   0  0  0  0  0  0  0  0  0  0  0  0
   59.9347   27.0172   47.7998 C   0  0  0  0  0  0  0  0  0  0  0  0
   60.2167   28.1296   48.5914 C   0  0  0  0  0  0  0  0  0  0  0  0
   59.6860   29.3728   48.2654 C   0  0  0  0  0  0  0  0  0  0  0  0
   58.8591   29.5190   47.1476 C   0  0  0  0  0  0  0  0  0  0  0  0
   57.8158   28.5658   45.0690 C   0  0  0  0  0  0  0  0  0  0  0  0
   58.2383   28.0583   43.9968 O   0  0  0  0  0  0  0  0  0  0  0  0
   56.1633   30.1720   43.9580 C   0  0  0  0  0  0  0  0  0  0  0  0
   56.5887   29.3054   45.0503 N   0  0  0  0  0  0  0  0  0  0  0  0
   58.8491   26.0110   45.8082 N   0  0  0  0  0  0  0  0  0  0  0  0
   57.4442   24.9948   45.9133 S   0  0  0  0  0  0  0  0  0  0  0  0
   57.0500   24.3075   44.3185 C   0  0  0  0  0  0  0  0  0  0  0  0
   57.6845   23.8976   46.9141 O   0  0  0  0  0  0  0  0  0  0  0  0
   56.2836   25.8255   46.3837 O   0  0  0  0  0  0  0  0  0  0  0  0
 28 29  1  0
 29 26  1  0
 26 27  2  0
 26 20  1  0
 20 21  2  0
 21 30  1  0
 30 31  1  0
 31 32  1  0
 31 33  2  0
 31 34  2  0
 21 22  1  0
 22 23  2  0
 23 24  1  0
 24 25  2  0
 25 19  1  0
 19  1  1  0
  1  2  1  0
  2  3  2  0
  3  4  1  0
  4  5  1  0
  5  6  2  0
  6  8  1  0
  8  9  2  0
  9 10  1  0
 10 11  2  0
 11 12  1  0
 12 14  1  0
 14 15  1  0
 15 16  1  0
 15 17  2  0
 15 18  2  0
 12 13  2  0
  5  7  1  0
 25 20  1  0
  7  1  2  0
 13  8  1  0
M  CHG 1   4  -1
M  CHG 1  29  -1
M  CHG 1  30  -1
M  END
> <UniqueID>
23

> <SMILES>
C[N-]C(=O)c1c([N-]S(C)(=O)=O)cccc1Oc1cc[n-]c(=Nc2cccc(CS(C)(=O)=O)c2)c1

> <Energy>
68.13342007877114

> <Genealogy>
C[N-]C(=O)c1c([N-]S(C)(=O)=O)cccc1Oc1cc[n-]c(=Nc2cccc(CS(C)(=O)=O)c2)c1 (protonated)
C[N-]C(=O)c1c([N-]S(C)(=O)=O)cccc1Oc1cc[n-]c(=Nc2cccc(CS(C)(=O)=O)c2)c1 (3D coordinates assigned)
C[N-]C(=O)c1c([N-]S(C)(=O)=O)cccc1Oc1cc[n-]c(=Nc2cccc(CS(C)(=O)=O)c2)c1 (optimized conformer: 68.13342007877114 kcal/mol)

> <smiles>
CNC(=O)c1c(NS(C)(=O)=O)cccc1Oc1cc[nH]c(=Nc2cccc(CS(C)(=O)=O)c2)c1

> <score_type>
oracle

> <origin>
adg

> <m_score__min__energy>
-14.25

> <m_primary>
energy

> <minimizedAffinity>
-7.52980

> <minimizedRMSD>
1.80205

> <CNNscore>
0.5262711048

> <CNNaffinity>
6.9304661751

> <CNN_VS>
3.6473040581

> <CNNaffinity_variance>
0.0349827074

$$$$
46:0


 28 29  0  0  0  0  0  0  0  0999 V2000
   58.2663   33.2420   45.7069 S   0  0  0  0  0  0  0  0  0  0  0  0
   58.3419   34.6382   45.1564 O   0  0  0  0  0  0  0  0  0  0  0  0
   57.1175   33.1795   46.6731 O   0  0  0  0  0  0  0  0  0  0  0  0
   61.1175   31.4690   48.0117 C   0  0  0  0  0  0  0  0  0  0  0  0
   59.9037   31.7526   47.3521 C   0  0  0  0  0  0  0  0  0  0  0  0
   59.7794   32.8906   46.5441 C   0  0  0  0  0  0  0  0  0  0  0  0
   60.8756   33.7414   46.3762 C   0  0  0  0  0  0  0  0  0  0  0  0
   62.0817   33.4705   47.0218 C   0  0  0  0  0  0  0  0  0  0  0  0
   62.2050   32.3550   47.8600 C   0  0  0  0  0  0  0  0  0  0  0  0
   63.4633   32.1085   48.5085 N   0  0  0  0  0  0  0  0  0  0  0  0
   63.8763   32.7847   49.7044 C   0  0  0  0  0  0  0  0  0  0  0  0
   65.1510   32.3950   50.3787 C   0  0  0  0  0  0  0  0  0  0  0  0
   63.2107   33.7571   50.1538 O   0  0  0  0  0  0  0  0  0  0  0  0
   64.0716   31.4432   48.1129 H   0  0  0  0  0  0  0  0  0  0  0  0
   60.3797   29.2150   48.8177 C   0  0  0  0  0  0  0  0  0  0  0  0
   61.2808   30.3170   48.7962 O   0  0  0  0  0  0  0  0  0  0  0  0
   57.9686   32.1350   44.3945 N   0  0  0  0  0  0  0  0  0  0  0  0
   57.1164   31.0155   44.8009 C   0  0  0  0  0  0  0  0  0  0  0  0
   57.8861   29.7324   44.8772 C   0  0  0  0  0  0  0  0  0  0  0  0
   59.1348   29.7456   44.7058 O   0  0  0  0  0  0  0  0  0  0  0  0
   57.2200   28.5525   45.3497 N   0  0  0  0  0  0  0  0  0  0  0  0
   57.7098   27.4079   45.7438 C   0  0  0  0  0  0  0  0  0  0  0  0
   59.0639   27.3183   45.8725 N   0  0  0  0  0  0  0  0  0  0  0  0
   59.6919   26.1808   46.2669 C   0  0  0  0  0  0  0  0  0  0  0  0
   58.9484   25.0428   46.5662 C   0  0  0  0  0  0  0  0  0  0  0  0
   57.5602   25.0961   46.4759 C   0  0  0  0  0  0  0  0  0  0  0  0
   56.9225   26.2770   46.0824 C   0  0  0  0  0  0  0  0  0  0  0  0
   55.5338   26.3046   46.0916 O   0  0  0  0  0  0  0  0  0  0  0  0
 15 16  1  0
 16  4  1  0
  4  5  2  0
  5  6  1  0
  6  1  1  0
  1  2  2  0
  1  3  2  0
  1 17  1  0
 17 18  1  0
 18 19  1  0
 19 20  2  0
 19 21  1  0
 21 22  2  0
 22 23  1  0
 23 24  1  0
 24 25  2  0
 25 26  1  0
 26 27  2  0
 27 28  1  0
  6  7  2  0
  7  8  1  0
  8  9  2  0
  9 10  1  0
 10 11  1  0
 11 12  1  0
 11 13  2  0
  9  4  1  0
 27 22  1  0
 10 14  1  0
M  CHG 1  17  -1
M  CHG 1  23  -1
M  CHG 1  28  -1
M  END
> <UniqueID>
41

> <SMILES>
COc1cc(S(=O)(=O)[N-]CC(=O)N=c2[n-]cccc2[O-])ccc1NC(C)=O

> <Energy>
53.346310023634636

> <Genealogy>
COc1cc(S(=O)(=O)[N-]CC(=O)N=c2[n-]cccc2[O-])ccc1NC(C)=O (protonated)
COc1cc(S(=O)(=O)[N-]CC(=O)N=c2[n-]cccc2[O-])ccc1NC(C)=O (3D coordinates assigned)
COc1cc(S(=O)(=O)[N-]CC(=O)N=c2[n-]cccc2[O-])ccc1NC(C)=O (optimized conformer: 53.346310023634636 kcal/mol)

> <smiles>
COc1cc(S(=O)(=O)NCC(=O)N=c2[nH]cccc2O)ccc1NC(C)=O

> <score_type>
oracle

> <origin>
adg

> <m_score__min__energy>
-14.890000000000001

> <m_primary>
energy

> <minimizedAffinity>
-7.33504

> <minimizedRMSD>
0.77578

> <CNNscore>
0.3950502872

> <CNNaffinity>
6.2678179741

> <CNN_VS>
2.4761033058

> <CNNaffinity_variance>
0.0119618168

$$$$
77:0


 27 29  0  0  0  0  0  0  0  0999 V2000
   56.4148   30.8733   52.8592 N   0  0  0  0  0  0  0  0  0  0  0  0
   57.3752   31.1246   52.0121 C   0  0  0  0  0  0  0  0  0  0  0  0
   57.9859   32.3907   51.8881 C   0  0  0  0  0  0  0  0  0  0  0  0
   59.0119   32.5709   50.9581 C   0  0  0  0  0  0  0  0  0  0  0  0
   59.4292   31.5113   50.1521 C   0  0  0  0  0  0  0  0  0  0  0  0
   58.8293   30.2550   50.3307 C   0  0  0  0  0  0  0  0  0  0  0  0
   57.8326   30.0995   51.2422 N   0  0  0  0  0  0  0  0  0  0  0  0
   55.6724   28.8684   53.8345 O   0  0  0  0  0  0  0  0  0  0  0  0
   55.5399   29.7365   52.9301 C   0  0  0  0  0  0  0  0  0  0  0  0
   54.4538   29.6463   52.0054 N   0  0  0  0  0  0  0  0  0  0  0  0
   53.0955   30.0855   52.3061 C   0  0  0  0  0  0  0  0  0  0  0  0
   52.3484   30.3904   51.0340 C   0  0  0  0  0  0  0  0  0  0  0  0
   52.3371   29.4574   49.9824 C   0  0  0  0  0  0  0  0  0  0  0  0
   51.6299   29.7265   48.8079 C   0  0  0  0  0  0  0  0  0  0  0  0
   50.9282   30.9254   48.6707 C   0  0  0  0  0  0  0  0  0  0  0  0
   50.9296   31.8588   49.7116 C   0  0  0  0  0  0  0  0  0  0  0  0
   51.6334   31.5960   50.8911 C   0  0  0  0  0  0  0  0  0  0  0  0
   51.6186   32.5349   51.9173 O   0  0  0  0  0  0  0  0  0  0  0  0
   60.4969   31.7181   49.2170 N   0  0  0  0  0  0  0  0  0  0  0  0
   60.4596   31.4263   47.8134 C   0  0  0  0  0  0  0  0  0  0  0  0
   61.1423   30.4582   47.3822 O   0  0  0  0  0  0  0  0  0  0  0  0
   59.6941   32.2579   46.8551 C   0  0  0  0  0  0  0  0  0  0  0  0
   60.0712   33.5834   46.5854 C   0  0  0  0  0  0  0  0  0  0  0  0
   59.3340   34.3408   45.6722 C   0  0  0  0  0  0  0  0  0  0  0  0
   58.2630   33.7933   45.0406 N   0  0  0  0  0  0  0  0  0  0  0  0
   57.8799   32.5094   45.2707 C   0  0  0  0  0  0  0  0  0  0  0  0
   58.5906   31.7169   46.1758 C   0  0  0  0  0  0  0  0  0  0  0  0
  8  9  2  0
  9  1  1  0
  1  2  2  0
  2  3  1  0
  3  4  2  0
  4  5  1  0
  5 19  1  0
 19 20  1  0
 20 21  2  0
 20 22  1  0
 22 23  2  0
 23 24  1  0
 24 25  2  0
 25 26  1  0
 26 27  2  0
  5  6  2  0
  6  7  1  0
  9 10  1  0
 10 11  1  0
 11 12  1  0
 12 13  2  0
 13 14  1  0
 14 15  2  0
 15 16  1  0
 16 17  2  0
 17 18  1  0
  7  2  1  0
 17 12  1  0
 27 22  1  0
M  CHG 1   7  -1
M  CHG 1  10  -1
M  CHG 1  18  -1
M  CHG 1  19  -1
M  END
> <UniqueID>
69

> <SMILES>
O=C(N=c1ccc([N-]C(=O)c2ccncc2)c[n-]1)[N-]Cc1ccccc1[O-]

> <Energy>
57.3316435001463

> <Genealogy>
O=C(N=c1ccc([N-]C(=O)c2ccncc2)c[n-]1)[N-]Cc1ccccc1[O-] (protonated)
O=C(N=c1ccc([N-]C(=O)c2ccncc2)c[n-]1)[N-]Cc1ccccc1[O-] (3D coordinates assigned)
O=C(N=c1ccc([N-]C(=O)c2ccncc2)c[n-]1)[N-]Cc1ccccc1[O-] (optimized conformer: 57.3316435001463 kcal/mol)

> <smiles>
O=C(N=c1ccc(NC(=O)c2ccncc2)c[nH]1)NCc1ccccc1O

> <score_type>
oracle

> <origin>
adg

> <m_score__min__energy>
-14.77

> <m_primary>
energy

> <minimizedAffinity>
-4.12426

> <minimizedRMSD>
0.63242

> <CNNscore>
0.3976292908

> <CNNaffinity>
5.8813877106

> <CNN_VS>
2.3386120796

> <CNNaffinity_variance>
0.0629861057

$$$$
80:0


 31 35  0  0  0  0  0  0  0  0999 V2000
   58.1007   32.2650   45.3161 C   0  0  0  0  0  0  0  0  0  0  0  0
   58.5644   33.5621   45.0242 C   0  0  0  0  0  0  0  0  0  0  0  0
   59.5208   34.1779   45.8458 C   0  0  0  0  0  0  0  0  0  0  0  0
   59.9947   33.4850   46.9614 C   0  0  0  0  0  0  0  0  0  0  0  0
   59.5273   32.2328   47.2683 C   0  0  0  0  0  0  0  0  0  0  0  0
   58.5683   31.6037   46.4706 C   0  0  0  0  0  0  0  0  0  0  0  0
   60.1203   31.7057   48.5198 C   0  0  0  0  0  0  0  0  0  0  0  0
   61.2327   32.7405   48.8754 C   0  0  0  0  0  0  0  0  0  0  0  0
   60.9727   33.9785   47.9596 C   0  0  0  0  0  0  0  0  0  0  0  0
   62.5955   32.1446   48.5317 C   0  0  0  0  0  0  0  0  0  0  0  0
   62.8259   31.7656   47.3514 O   0  0  0  0  0  0  0  0  0  0  0  0
   63.6278   31.9974   49.5064 N   0  0  0  0  0  0  0  0  0  0  0  0
   63.4401   32.3999   50.8557 C   0  0  0  0  0  0  0  0  0  0  0  0
   64.3702   32.2572   51.6910 O   0  0  0  0  0  0  0  0  0  0  0  0
   62.2009   32.9649   51.2612 N   0  0  0  0  0  0  0  0  0  0  0  0
   61.1229   33.1429   50.3417 C   0  0  0  0  0  0  0  0  0  0  0  0
   60.0495   33.6508   50.7684 O   0  0  0  0  0  0  0  0  0  0  0  0
   57.1002   31.6793   44.4707 N   0  0  0  0  0  0  0  0  0  0  0  0
   55.6603   29.9025   44.8509 O   0  0  0  0  0  0  0  0  0  0  0  0
   56.7658   30.2894   44.3852 C   0  0  0  0  0  0  0  0  0  0  0  0
   57.6764   29.2909   43.7243 C   0  0  0  0  0  0  0  0  0  0  0  0
   58.4834   28.5928   44.7264 N   0  0  0  0  0  0  0  0  0  0  0  0
   59.7754   28.8646   45.0313 C   0  0  0  0  0  0  0  0  0  0  0  0
   60.2514   27.9726   45.9857 C   0  0  0  0  0  0  0  0  0  0  0  0
   59.1952   27.1270   46.2518 C   0  0  0  0  0  0  0  0  0  0  0  0
   59.1118   26.0349   47.1132 C   0  0  0  0  0  0  0  0  0  0  0  0
   57.8942   25.3334   47.1650 C   0  0  0  0  0  0  0  0  0  0  0  0
   56.8019   25.7307   46.3586 C   0  0  0  0  0  0  0  0  0  0  0  0
   55.6076   25.0245   46.4171 O   0  0  0  0  0  0  0  0  0  0  0  0
   56.9193   26.8381   45.4968 C   0  0  0  0  0  0  0  0  0  0  0  0
   58.1392   27.5208   45.4708 C   0  0  0  0  0  0  0  0  0  0  0  0
 19 20  2  0
 20 21  1  0
 21 22  1  0
 22 23  1  0
 23 24  2  0
 24 25  1  0
 25 26  2  0
 26 27  1  0
 27 28  2  0
 28 29  1  0
 28 30  1  0
 30 31  2  0
 20 18  1  0
 18  1  1  0
  1  2  2  0
  2  3  1  0
  3  4  2  0
  4  5  1  0
  5  6  2  0
  5  7  1  0
  7  8  1  0
  8  9  1  0
  8 10  1  0
 10 11  2  0
 10 12  1  0
 12 13  1  0
 13 14  2  0
 13 15  1  0
 15 16  1  0
 16 17  2  0
 31 22  1  0
  6  1  1  0
 16  8  1  0
 31 25  1  0
  9  4  1  0
M  CHG 1  12  -1
M  CHG 1  15  -1
M  CHG 1  18  -1
M  CHG 1  29  -1
M  END
> <UniqueID>
72

> <SMILES>
O=C(Cn1ccc2ccc([O-])cc21)[N-]c1ccc2c(c1)CC1(C2)C(=O)[N-]C(=O)[N-]C1=O

> <Energy>
99.31635416595995

> <Genealogy>
O=C(Cn1ccc2ccc([O-])cc21)[N-]c1ccc2c(c1)CC1(C2)C(=O)[N-]C(=O)[N-]C1=O (protonated)
O=C(Cn1ccc2ccc([O-])cc21)[N-]c1ccc2c(c1)CC1(C2)C(=O)[N-]C(=O)[N-]C1=O (3D coordinates assigned)
O=C(Cn1ccc2ccc([O-])cc21)[N-]c1ccc2c(c1)CC1(C2)C(=O)[N-]C(=O)[N-]C1=O (nonaromatic ring conformer: 99.31635416595995 kcal/mol)

> <smiles>
O=C(Cn1ccc2ccc(O)cc21)Nc1ccc2c(c1)CC1(C2)C(=O)NC(=O)NC1=O

> <score_type>
oracle

> <origin>
adg

> <m_score__min__energy>
-16.57

> <m_primary>
energy

> <minimizedAffinity>
-9.43162

> <minimizedRMSD>
1.24526

> <CNNscore>
0.6074054241

> <CNNaffinity>
7.0233960152

> <CNN_VS>
4.2660489082

> <CNNaffinity_variance>
0.0994477198

$$$$
82:0


 27 29  0  0  0  0  0  0  0  0999 V2000
   58.8086   29.8941   45.9157 C   0  0  0  0  0  0  0  0  0  0  0  0
   58.4246   31.1628   45.7335 C   0  0  0  0  0  0  0  0  0  0  0  0
   59.4297   32.2669   45.9062 C   0  0  0  0  0  0  0  0  0  0  0  0
   60.2832   32.0803   47.1049 N   0  0  0  0  0  0  0  0  0  0  0  0
   60.5688   30.6681   47.4770 C   0  0  0  0  0  0  0  0  0  0  0  0
   60.2264   29.6603   46.3678 C   0  0  0  0  0  0  0  0  0  0  0  0
   59.6333   32.9578   48.4712 S   0  0  0  0  0  0  0  0  0  0  0  0
   59.1133   34.2897   48.0048 O   0  0  0  0  0  0  0  0  0  0  0  0
   58.5065   32.1768   49.0909 O   0  0  0  0  0  0  0  0  0  0  0  0
   60.8871   33.1908   49.6852 C   0  0  0  0  0  0  0  0  0  0  0  0
   62.0787   33.8431   49.3389 C   0  0  0  0  0  0  0  0  0  0  0  0
   63.0792   34.0338   50.2973 C   0  0  0  0  0  0  0  0  0  0  0  0
   62.8948   33.5708   51.6035 C   0  0  0  0  0  0  0  0  0  0  0  0
   61.7103   32.9158   51.9516 C   0  0  0  0  0  0  0  0  0  0  0  0
   60.7076   32.7244   50.9952 C   0  0  0  0  0  0  0  0  0  0  0  0
   57.8780   28.7645   45.6837 C   0  0  0  0  0  0  0  0  0  0  0  0
   57.1060   28.7733   44.6860 O   0  0  0  0  0  0  0  0  0  0  0  0
   57.8913   27.6346   46.5655 N   0  0  0  0  0  0  0  0  0  0  0  0
   58.6132   24.0844   45.6444 C   0  0  0  0  0  0  0  0  0  0  0  0
   57.3219   23.5852   45.4514 C   0  0  0  0  0  0  0  0  0  0  0  0
   56.2084   24.4063   45.6419 C   0  0  0  0  0  0  0  0  0  0  0  0
   56.3733   25.7423   46.0177 C   0  0  0  0  0  0  0  0  0  0  0  0
   55.2475   26.5186   46.2643 O   0  0  0  0  0  0  0  0  0  0  0  0
   57.6697   26.2714   46.1755 C   0  0  0  0  0  0  0  0  0  0  0  0
   58.7812   25.4333   46.0165 C   0  0  0  0  0  0  0  0  0  0  0  0
   59.6269   21.9806   44.7514 C   0  0  0  0  0  0  0  0  0  0  0  0
   59.6981   23.2157   45.4566 O   0  0  0  0  0  0  0  0  0  0  0  0
 26 27  1  0
 27 19  1  0
 19 20  2  0
 20 21  1  0
 21 22  2  0
 22 23  1  0
 22 24  1  0
 24 18  1  0
 18 16  1  0
 16 17  2  0
 16  1  1  0
  1  2  2  0
  2  3  1  0
  3  4  1  0
  4  7  1  0
  7  8  2  0
  7  9  2  0
  7 10  1  0
 10 11  2  0
 11 12  1  0
 12 13  2  0
 13 14  1  0
 14 15  2  0
  4  5  1  0
  5  6  1  0
 24 25  2  0
 25 19  1  0
  6  1  1  0
 15 10  1  0
M  CHG 1  18  -1
M  CHG 1  23  -1
M  END
> <UniqueID>
74

> <SMILES>
COc1ccc([O-])c([N-]C(=O)C2=CCN(S(=O)(=O)c3ccccc3)CC2)c1

> <Energy>
59.688535678716256

> <Genealogy>
COc1ccc([O-])c([N-]C(=O)C2=CCN(S(=O)(=O)c3ccccc3)CC2)c1 (protonated)
COc1ccc([O-])c([N-]C(=O)C2=CCN(S(=O)(=O)c3ccccc3)CC2)c1 (3D coordinates assigned)
COc1ccc([O-])c([N-]C(=O)C2=CCN(S(=O)(=O)c3ccccc3)CC2)c1 (nonaromatic ring conformer: 59.688535678716256 kcal/mol)

> <smiles>
COc1ccc(O)c(NC(=O)C2=CCN(S(=O)(=O)c3ccccc3)CC2)c1

> <score_type>
oracle

> <origin>
adg

> <m_score__min__energy>
-14.890000000000001

> <m_primary>
energy

> <minimizedAffinity>
-6.52851

> <minimizedRMSD>
1.52169

> <CNNscore>
0.3728864789

> <CNNaffinity>
6.4904618263

> <CNN_VS>
2.4202053547

> <CNNaffinity_variance>
0.4333776534

$$$$
83:0


 32 34  0  0  0  0  0  0  0  0999 V2000
   57.7097   31.3899   44.8402 C   0  0  0  0  0  0  0  0  0  0  0  0
   58.1481   31.2005   46.1605 C   0  0  0  0  0  0  0  0  0  0  0  0
   58.7025   32.2408   46.8465 N   0  0  0  0  0  0  0  0  0  0  0  0
   58.8772   33.4728   46.2977 C   0  0  0  0  0  0  0  0  0  0  0  0
   59.3675   34.4213   47.0476 N   0  0  0  0  0  0  0  0  0  0  0  0
   58.4981   33.6847   44.9594 C   0  0  0  0  0  0  0  0  0  0  0  0
   57.9131   32.6393   44.2353 C   0  0  0  0  0  0  0  0  0  0  0  0
   55.5052   29.5861   44.7098 N   0  0  0  0  0  0  0  0  0  0  0  0
   56.9821   30.0588   43.9342 S   0  0  0  0  0  0  0  0  0  0  0  0
   57.9389   28.9005   43.8927 O   0  0  0  0  0  0  0  0  0  0  0  0
   56.6726   30.4854   42.5238 O   0  0  0  0  0  0  0  0  0  0  0  0
   55.0798   28.8175   44.1914 H   0  0  0  0  0  0  0  0  0  0  0  0
   58.0020   29.9501   46.7752 O   0  0  0  0  0  0  0  0  0  0  0  0
   59.0526   29.0480   46.9496 C   0  0  0  0  0  0  0  0  0  0  0  0
   60.1854   29.2790   46.4376 O   0  0  0  0  0  0  0  0  0  0  0  0
   58.8233   27.7832   47.5663 N   0  0  0  0  0  0  0  0  0  0  0  0
   58.4174   26.5880   46.8826 C   0  0  0  0  0  0  0  0  0  0  0  0
   57.0519   26.3686   46.6849 C   0  0  0  0  0  0  0  0  0  0  0  0
   56.6187   25.2752   45.9239 C   0  0  0  0  0  0  0  0  0  0  0  0
   57.5446   24.3872   45.3720 C   0  0  0  0  0  0  0  0  0  0  0  0
   58.9085   24.5886   45.5743 C   0  0  0  0  0  0  0  0  0  0  0  0
   59.3529   25.6912   46.3158 C   0  0  0  0  0  0  0  0  0  0  0  0
   60.6868   25.8971   46.4331 F   0  0  0  0  0  0  0  0  0  0  0  0
   59.7202   34.3166   48.4609 C   0  0  0  0  0  0  0  0  0  0  0  0
   60.9881   33.5227   48.5927 C   0  0  0  0  0  0  0  0  0  0  0  0
   61.2331   32.7421   49.7347 C   0  0  0  0  0  0  0  0  0  0  0  0
   62.4216   32.0100   49.8472 C   0  0  0  0  0  0  0  0  0  0  0  0
   63.3818   32.0787   48.8396 C   0  0  0  0  0  0  0  0  0  0  0  0
   63.1627   32.8757   47.7117 C   0  0  0  0  0  0  0  0  0  0  0  0
   64.1430   32.9583   46.7320 O   0  0  0  0  0  0  0  0  0  0  0  0
   61.9609   33.5882   47.5813 C   0  0  0  0  0  0  0  0  0  0  0  0
   64.9424   32.4790   46.8276 H   0  0  0  0  0  0  0  0  0  0  0  0
  8  9  1  0
  9 10  2  0
  9 11  2  0
  9  1  1  0
  1  2  2  0
  2 13  1  0
 13 14  1  0
 14 15  2  0
 14 16  1  0
 16 17  1  0
 17 18  2  0
 18 19  1  0
 19 20  2  0
 20 21  1  0
 21 22  2  0
 22 23  1  0
  2  3  1  0
  3  4  1  0
  4  5  2  0
  5 24  1  0
 24 25  1  0
 25 26  2  0
 26 27  1  0
 27 28  2  0
 28 29  1  0
 29 30  1  0
 29 31  2  0
  4  6  1  0
  6  7  2  0
  7  1  1  0
 22 17  1  0
 31 25  1  0
  8 12  1  0
 30 32  1  0
M  CHG 1   3  -1
M  CHG 1   8  -1
M  CHG 1  16  -1
M  END
> <UniqueID>
75

> <SMILES>
[NH-]S(=O)(=O)c1cc/c(=N\Cc2cccc(O)c2)[n-]c1OC(=O)[N-]c1ccccc1F

> <Energy>
55.5400510494561

> <Genealogy>
[NH-]S(=O)(=O)c1ccc(=NCc2cccc(O)c2)[n-]c1OC(=O)[N-]c1ccccc1F (protonated)
[NH-]S(=O)(=O)c1cc/c(=N\Cc2cccc(O)c2)[n-]c1OC(=O)[N-]c1ccccc1F (cis-trans isomerization)
[NH-]S(=O)(=O)c1cc/c(=N\Cc2cccc(O)c2)[n-]c1OC(=O)[N-]c1ccccc1F (3D coordinates assigned)
[NH-]S(=O)(=O)c1cc/c(=N\Cc2cccc(O)c2)[n-]c1OC(=O)[N-]c1ccccc1F (optimized conformer: 55.5400510494561 kcal/mol)

> <smiles>
NS(=O)(=O)c1ccc(=NCc2cccc(O)c2)[nH]c1OC(=O)Nc1ccccc1F

> <score_type>
oracle

> <origin>
adg

> <m_score__min__energy>
-14.220000000000001

> <m_primary>
energy

> <minimizedAffinity>
-9.02199

> <minimizedRMSD>
0.86307

> <CNNscore>
0.9025694132

> <CNNaffinity>
7.0584473610

> <CNN_VS>
6.3707385063

> <CNNaffinity_variance>
0.0846953765

$$$$
8:0


 26 29  0  0  0  0  0  0  0  0999 V2000
   54.1255   28.3679   55.0915 C   0  0  0  0  0  0  0  0  0  0  0  0
   54.5124   29.1875   54.0993 C   0  0  0  0  0  0  0  0  0  0  0  0
   53.6737   29.8986   53.2303 C   0  0  0  0  0  0  0  0  0  0  0  0
   52.3226   29.9035   53.2344 C   0  0  0  0  0  0  0  0  0  0  0  0
   54.5152   30.5715   52.3502 C   0  0  0  0  0  0  0  0  0  0  0  0
   55.8089   30.2619   52.7196 C   0  0  0  0  0  0  0  0  0  0  0  0
   57.0354   30.7631   52.0212 C   0  0  0  0  0  0  0  0  0  0  0  0
   55.8094   29.4190   53.7752 N   0  0  0  0  0  0  0  0  0  0  0  0
   51.4636   31.1005   53.3921 C   0  0  0  0  0  0  0  0  0  0  0  0
   50.8365   31.4814   54.5179 N   0  0  0  0  0  0  0  0  0  0  0  0
   50.1599   32.5893   54.1450 C   0  0  0  0  0  0  0  0  0  0  0  0
   49.4423   33.2474   54.9432 O   0  0  0  0  0  0  0  0  0  0  0  0
   50.3103   32.9348   52.8496 N   0  0  0  0  0  0  0  0  0  0  0  0
   51.1332   31.9794   52.3865 C   0  0  0  0  0  0  0  0  0  0  0  0
   51.5751   31.9144   51.0707 O   0  0  0  0  0  0  0  0  0  0  0  0
   56.9788   28.8897   54.4261 C   0  0  0  0  0  0  0  0  0  0  0  0
   57.6027   29.6105   55.4531 C   0  0  0  0  0  0  0  0  0  0  0  0
   58.7299   29.0921   56.0954 C   0  0  0  0  0  0  0  0  0  0  0  0
   59.2484   27.8400   55.7195 C   0  0  0  0  0  0  0  0  0  0  0  0
   58.6184   27.1188   54.6922 C   0  0  0  0  0  0  0  0  0  0  0  0
   57.4899   27.6406   54.0518 C   0  0  0  0  0  0  0  0  0  0  0  0
   60.4391   27.2855   56.3928 C   0  0  0  0  0  0  0  0  0  0  0  0
   60.9307   26.0493   56.1571 N   0  0  0  0  0  0  0  0  0  0  0  0
   61.9972   25.9748   56.9751 C   0  0  0  0  0  0  0  0  0  0  0  0
   62.1152   27.1545   57.6717 C   0  0  0  0  0  0  0  0  0  0  0  0
   61.1411   27.9415   57.2921 O   0  0  0  0  0  0  0  0  0  0  0  0
  1  2  2  0
  2  3  1  0
  3  4  2  0
  4  9  1  0
  9 10  1  0
 10 11  1  0
 11 12  2  0
 11 13  1  0
 13 14  1  0
 14 15  1  0
  3  5  1  0
  5  6  2  0
  6  7  1  0
  6  8  1  0
  8 16  1  0
 16 17  2  0
 17 18  1  0
 18 19  2  0
 19 22  1  0
 22 23  2  0
 23 24  1  0
 24 25  2  0
 25 26  1  0
 19 20  1  0
 20 21  2  0
  8  2  1  0
 21 16  1  0
 14  9  2  0
 26 22  1  0
M  CHG 1  10  -1
M  CHG 1  13  -1
M  CHG 1  15  -1
M  END
> <UniqueID>
9

> <SMILES>
C=c1/c(=C/c2[n-]c(=O)[n-]c2[O-])cc(C)n1-c1ccc(-c2ncco2)cc1

> <Energy>
141.11492671931293

> <Genealogy>
C=c1c(=Cc2[n-]c(=O)[n-]c2[O-])cc(C)n1-c1ccc(-c2ncco2)cc1 (protonated)
C=c1/c(=C/c2[n-]c(=O)[n-]c2[O-])cc(C)n1-c1ccc(-c2ncco2)cc1 (cis-trans isomerization)
C=c1/c(=C/c2[n-]c(=O)[n-]c2[O-])cc(C)n1-c1ccc(-c2ncco2)cc1 (3D coordinates assigned)
C=c1/c(=C/c2[n-]c(=O)[n-]c2[O-])cc(C)n1-c1ccc(-c2ncco2)cc1 (optimized conformer: 141.11492671931293 kcal/mol)

> <smiles>
C=c1c(=Cc2[nH]c(=O)[nH]c2O)cc(C)n1-c1ccc(-c2ncco2)cc1

> <score_type>
oracle

> <origin>
adg

> <m_score__min__energy>
-15.23

> <m_primary>
energy

> <minimizedAffinity>
-4.88065

> <minimizedRMSD>
1.03298

> <CNNscore>
0.2416523695

> <CNNaffinity>
5.0100779533

> <CNN_VS>
1.2106971741

> <CNNaffinity_variance>
0.0417699479

$$$$
33:0


 33 36  0  0  0  0  0  0  0  0999 V2000
   60.1688   29.2455   47.2585 C   0  0  0  0  0  0  0  0  0  0  0  0
   59.3673   29.6943   46.2796 C   0  0  0  0  0  0  0  0  0  0  0  0
   58.8155   28.9334   45.2460 C   0  0  0  0  0  0  0  0  0  0  0  0
   58.9632   27.6110   45.0309 C   0  0  0  0  0  0  0  0  0  0  0  0
   58.0236   29.7991   44.5017 C   0  0  0  0  0  0  0  0  0  0  0  0
   58.1325   31.0403   45.0966 C   0  0  0  0  0  0  0  0  0  0  0  0
   57.4021   32.2671   44.6409 C   0  0  0  0  0  0  0  0  0  0  0  0
   58.9416   30.9774   46.1762 N   0  0  0  0  0  0  0  0  0  0  0  0
   58.1235   26.5849   45.6883 C   0  0  0  0  0  0  0  0  0  0  0  0
   56.7290   26.7307   45.7896 C   0  0  0  0  0  0  0  0  0  0  0  0
   56.0911   27.8472   45.2655 O   0  0  0  0  0  0  0  0  0  0  0  0
   55.9880   25.7631   46.3899 N   0  0  0  0  0  0  0  0  0  0  0  0
   56.5701   24.6394   46.8822 C   0  0  0  0  0  0  0  0  0  0  0  0
   55.8648   23.7575   47.4394 O   0  0  0  0  0  0  0  0  0  0  0  0
   57.9111   24.4637   46.7705 N   0  0  0  0  0  0  0  0  0  0  0  0
   58.6973   25.4030   46.1811 C   0  0  0  0  0  0  0  0  0  0  0  0
   59.9381   25.2049   46.0914 O   0  0  0  0  0  0  0  0  0  0  0  0
   59.2517   32.0711   47.0554 C   0  0  0  0  0  0  0  0  0  0  0  0
   59.6094   33.3198   46.5303 C   0  0  0  0  0  0  0  0  0  0  0  0
   59.9083   34.3821   47.3865 C   0  0  0  0  0  0  0  0  0  0  0  0
   59.8537   34.2052   48.7717 C   0  0  0  0  0  0  0  0  0  0  0  0
   59.4931   32.9590   49.3176 C   0  0  0  0  0  0  0  0  0  0  0  0
   59.1915   31.8964   48.4460 C   0  0  0  0  0  0  0  0  0  0  0  0
   59.4469   32.7617   50.7854 C   0  0  0  0  0  0  0  0  0  0  0  0
   58.3633   32.4465   51.3498 O   0  0  0  0  0  0  0  0  0  0  0  0
   60.6323   32.9261   51.5681 N   0  0  0  0  0  0  0  0  0  0  0  0
   61.8288   32.1152   51.3858 C   0  0  0  0  0  0  0  0  0  0  0  0
   62.4298   32.4038   50.0379 C   0  0  0  0  0  0  0  0  0  0  0  0
   62.4119   31.4209   49.0346 C   0  0  0  0  0  0  0  0  0  0  0  0
   62.9819   31.6801   47.7846 C   0  0  0  0  0  0  0  0  0  0  0  0
   63.5636   32.9221   47.5220 C   0  0  0  0  0  0  0  0  0  0  0  0
   63.5858   33.9047   48.5148 C   0  0  0  0  0  0  0  0  0  0  0  0
   63.0241   33.6482   49.7697 C   0  0  0  0  0  0  0  0  0  0  0  0
  1  2  2  0
  2  3  1  0
  3  4  2  0
  4  9  1  0
  9 10  2  0
 10 11  1  0
 10 12  1  0
 12 13  1  0
 13 14  2  0
 13 15  1  0
 15 16  1  0
 16 17  2  0
  3  5  1  0
  5  6  2  0
  6  7  1  0
  6  8  1  0
  8 18  1  0
 18 19  2  0
 19 20  1  0
 20 21  2  0
 21 22  1  0
 22 24  1  0
 24 25  2  0
 24 26  1  0
 26 27  1  0
 27 28  1  0
 28 29  2  0
 29 30  1  0
 30 31  2  0
 31 32  1  0
 32 33  2  0
 22 23  2  0
  8  2  1  0
 23 18  1  0
 16  9  1  0
 33 28  1  0
M  CHG 1  11  -1
M  CHG 1  12  -1
M  CHG 1  15  -1
M  CHG 1  26  -1
M  END
> <UniqueID>
31

> <SMILES>
C=c1/c(=C/c2c([O-])[n-]c(=O)[n-]c2=O)cc(C)n1-c1cccc(C(=O)[N-]Cc2ccccc2)c1

> <Energy>
98.83751926975373

> <Genealogy>
C=c1c(=Cc2c([O-])[n-]c(=O)[n-]c2=O)cc(C)n1-c1cccc(C(=O)[N-]Cc2ccccc2)c1 (protonated)
C=c1/c(=C/c2c([O-])[n-]c(=O)[n-]c2=O)cc(C)n1-c1cccc(C(=O)[N-]Cc2ccccc2)c1 (cis-trans isomerization)
C=c1/c(=C/c2c([O-])[n-]c(=O)[n-]c2=O)cc(C)n1-c1cccc(C(=O)[N-]Cc2ccccc2)c1 (3D coordinates assigned)
C=c1/c(=C/c2c([O-])[n-]c(=O)[n-]c2=O)cc(C)n1-c1cccc(C(=O)[N-]Cc2ccccc2)c1 (optimized conformer: 98.83751926975373 kcal/mol)

> <smiles>
C=c1c(=Cc2c(O)[nH]c(=O)[nH]c2=O)cc(C)n1-c1cccc(C(=O)NCc2ccccc2)c1

> <score_type>
oracle

> <origin>
adg

> <m_score__min__energy>
-17.73

> <m_primary>
energy

> <minimizedAffinity>
-8.28837

> <minimizedRMSD>
0.72630

> <CNNscore>
0.5163036585

> <CNNaffinity>
7.1815466881

> <CNN_VS>
3.7078588009

> <CNNaffinity_variance>
0.0326512903

$$$$
36:0


 32 34  0  0  0  0  0  0  0  0999 V2000
   57.9991   31.0659   50.9785 C   0  0  0  0  0  0  0  0  0  0  0  0
   58.7684   32.0051   50.3150 C   0  0  0  0  0  0  0  0  0  0  0  0
   59.7018   31.2904   49.5804 C   0  0  0  0  0  0  0  0  0  0  0  0
   59.4384   29.9479   49.8091 C   0  0  0  0  0  0  0  0  0  0  0  0
   58.4110   29.8234   50.6695 N   0  0  0  0  0  0  0  0  0  0  0  0
   58.0319   28.9806   51.0090 H   0  0  0  0  0  0  0  0  0  0  0  0
   60.1967   28.7860   49.3084 C   0  0  0  0  0  0  0  0  0  0  0  0
   60.6841   27.9999   50.1711 O   0  0  0  0  0  0  0  0  0  0  0  0
   60.3044   28.4591   47.8988 N   0  0  0  0  0  0  0  0  0  0  0  0
   60.7836   27.1277   47.4841 C   0  0  0  0  0  0  0  0  0  0  0  0
   59.6801   26.3995   46.7047 C   0  0  0  0  0  0  0  0  0  0  0  0
   59.0283   27.2789   45.6024 C   0  0  0  0  0  0  0  0  0  0  0  0
   59.6651   28.6796   45.4915 C   0  0  0  0  0  0  0  0  0  0  0  0
   59.7939   29.3725   46.8578 C   0  0  0  0  0  0  0  0  0  0  0  0
   57.5296   27.3735   45.7872 C   0  0  0  0  0  0  0  0  0  0  0  0
   56.8876   28.3153   45.2498 O   0  0  0  0  0  0  0  0  0  0  0  0
   56.8537   26.3987   46.5926 N   0  0  0  0  0  0  0  0  0  0  0  0
   56.6596   24.9837   46.2693 C   0  0  0  0  0  0  0  0  0  0  0  0
   55.2716   24.7455   45.6732 C   0  0  0  0  0  0  0  0  0  0  0  0
   56.9038   24.0839   47.4810 C   0  0  0  0  0  0  0  0  0  0  0  0
   56.8716   31.3396   51.9278 C   0  0  0  0  0  0  0  0  0  0  0  0
   52.6380   30.6152   52.2168 C   0  0  0  0  0  0  0  0  0  0  0  0
   52.2055   29.4281   52.8303 C   0  0  0  0  0  0  0  0  0  0  0  0
   53.1438   28.4936   53.2698 C   0  0  0  0  0  0  0  0  0  0  0  0
   54.4702   28.7336   53.1094 N   0  0  0  0  0  0  0  0  0  0  0  0
   54.9333   29.8885   52.5435 C   0  0  0  0  0  0  0  0  0  0  0  0
   56.2098   30.1331   52.4370 N   0  0  0  0  0  0  0  0  0  0  0  0
   54.0218   30.8518   52.0988 C   0  0  0  0  0  0  0  0  0  0  0  0
   51.3747   31.5320   50.2334 N   0  0  0  0  0  0  0  0  0  0  0  0
   51.6580   31.5595   51.6309 C   0  0  0  0  0  0  0  0  0  0  0  0
   51.1157   32.4464   52.3471 O   0  0  0  0  0  0  0  0  0  0  0  0
   50.7224   32.1623   49.8508 H   0  0  0  0  0  0  0  0  0  0  0  0
 29 30  1  0
 30 31  2  0
 30 22  1  0
 22 23  1  0
 23 24  2  0
 24 25  1  0
 25 26  1  0
 26 27  2  0
 27 21  1  0
 21  1  1  0
  1  2  2  0
  2  3  1  0
  3  4  2  0
  4  7  1  0
  7  8  2  0
  7  9  1  0
  9 10  1  0
 10 11  1  0
 11 12  1  0
 12 15  1  0
 15 16  2  0
 15 17  1  0
 17 18  1  0
 18 19  1  0
 18 20  1  0
 12 13  1  0
 13 14  1  0
  4  5  1  0
 26 28  1  0
 28 22  2  0
  5  1  1  0
 14  9  1  0
 29 32  1  0
  5  6  1  0
M  CHG 1  17  -1
M  CHG 1  25  -1
M  CHG 1  29  -1
M  END
> <UniqueID>
34

> <SMILES>
CC(C)[N-]C(=O)C1CCN(C(=O)c2ccc(C/N=c3/cc(C([NH-])=O)cc[n-]3)[nH]2)CC1

> <Energy>
90.3153191942599

> <Genealogy>
CC(C)[N-]C(=O)C1CCN(C(=O)c2ccc(CN=c3cc(C([NH-])=O)cc[n-]3)[nH]2)CC1 (protonated)
CC(C)[N-]C(=O)C1CCN(C(=O)c2ccc(C/N=c3/cc(C([NH-])=O)cc[n-]3)[nH]2)CC1 (cis-trans isomerization)
CC(C)[N-]C(=O)C1CCN(C(=O)c2ccc(C/N=c3/cc(C([NH-])=O)cc[n-]3)[nH]2)CC1 (3D coordinates assigned)
CC(C)[N-]C(=O)C1CCN(C(=O)c2ccc(C/N=c3/cc(C([NH-])=O)cc[n-]3)[nH]2)CC1 (nonaromatic ring conformer: 90.3153191942599 kcal/mol)

> <smiles>
CC(C)NC(=O)C1CCN(C(=O)c2ccc(CN=c3cc(C(N)=O)cc[nH]3)[nH]2)CC1

> <score_type>
oracle

> <origin>
adg

> <m_score__min__energy>
-15.94

> <m_primary>
energy

> <minimizedAffinity>
-7.24371

> <minimizedRMSD>
0.79077

> <CNNscore>
0.2220370024

> <CNNaffinity>
5.8752369881

> <CNN_VS>
1.3045200109

> <CNNaffinity_variance>
0.1668315679

$$$$
39:0


 24 26  0  0  0  0  0  0  0  0999 V2000
   57.1671   30.0142   44.5927 C   0  0  0  0  0  0  0  0  0  0  0  0
   58.0257   29.4718   45.4722 C   0  0  0  0  0  0  0  0  0  0  0  0
   58.5433   28.1657   45.4480 C   0  0  0  0  0  0  0  0  0  0  0  0
   58.2037   27.0915   44.7093 C   0  0  0  0  0  0  0  0  0  0  0  0
   59.5543   28.1326   46.3918 C   0  0  0  0  0  0  0  0  0  0  0  0
   59.5817   29.3724   46.9952 C   0  0  0  0  0  0  0  0  0  0  0  0
   60.5325   29.7641   48.0858 C   0  0  0  0  0  0  0  0  0  0  0  0
   58.6418   30.1841   46.4557 N   0  0  0  0  0  0  0  0  0  0  0  0
   57.7527   25.7945   45.2365 C   0  0  0  0  0  0  0  0  0  0  0  0
   58.5222   24.6919   45.2573 N   0  0  0  0  0  0  0  0  0  0  0  0
   57.7665   23.7980   45.9310 C   0  0  0  0  0  0  0  0  0  0  0  0
   58.1458   22.6169   46.1448 O   0  0  0  0  0  0  0  0  0  0  0  0
   56.5787   24.2694   46.3662 N   0  0  0  0  0  0  0  0  0  0  0  0
   56.5926   25.5402   45.9324 C   0  0  0  0  0  0  0  0  0  0  0  0
   55.5779   26.4534   46.1912 O   0  0  0  0  0  0  0  0  0  0  0  0
   58.4386   31.5991   46.7975 C   0  0  0  0  0  0  0  0  0  0  0  0
   59.2878   32.4670   45.9156 C   0  0  0  0  0  0  0  0  0  0  0  0
   59.8790   33.5761   46.3791 C   0  0  0  0  0  0  0  0  0  0  0  0
   60.9806   33.5699   47.3717 C   0  0  0  0  0  0  0  0  0  0  0  0
   62.2812   33.2695   46.9313 C   0  0  0  0  0  0  0  0  0  0  0  0
   63.3525   33.2614   47.8298 C   0  0  0  0  0  0  0  0  0  0  0  0
   63.1397   33.5658   49.1757 C   0  0  0  0  0  0  0  0  0  0  0  0
   61.8570   33.8851   49.6245 C   0  0  0  0  0  0  0  0  0  0  0  0
   60.7811   33.8916   48.7314 C   0  0  0  0  0  0  0  0  0  0  0  0
  1  2  2  0
  2  3  1  0
  3  4  2  0
  4  9  1  0
  9 10  1  0
 10 11  1  0
 11 12  2  0
 11 13  1  0
 13 14  1  0
 14 15  1  0
  3  5  1  0
  5  6  2  0
  6  7  1  0
  6  8  1  0
  8 16  1  0
 16 17  1  0
 17 18  2  0
 18 19  1  0
 19 20  2  0
 20 21  1  0
 21 22  2  0
 22 23  1  0
 23 24  2  0
  8  2  1  0
 24 19  1  0
 14  9  2  0
M  CHG 1  10  -1
M  CHG 1  13  -1
M  CHG 1  15  -1
M  END
> <UniqueID>
37

> <SMILES>
C=c1c(=Cc2[n-]c(=O)[n-]c2[O-])cc(C)n1CC=Cc1ccccc1

> <Energy>
112.21817441624016

> <Genealogy>
C=c1c(=Cc2[n-]c(=O)[n-]c2[O-])cc(C)n1CC=Cc1ccccc1 (protonated)
C=c1c(=Cc2[n-]c(=O)[n-]c2[O-])cc(C)n1CC=Cc1ccccc1 (3D coordinates assigned)
C=c1c(=Cc2[n-]c(=O)[n-]c2[O-])cc(C)n1CC=Cc1ccccc1 (optimized conformer: 112.21817441624016 kcal/mol)

> <smiles>
C=c1c(=Cc2[nH]c(=O)[nH]c2O)cc(C)n1CC=Cc1ccccc1

> <score_type>
oracle

> <origin>
adg

> <m_score__min__energy>
-15.529999999999999

> <m_primary>
energy

> <minimizedAffinity>
-8.03605

> <minimizedRMSD>
1.43451

> <CNNscore>
0.4536574781

> <CNNaffinity>
6.7367076874

> <CNN_VS>
3.0561578274

> <CNNaffinity_variance>
0.2951611280

$$$$
46:0


 27 29  0  0  0  0  0  0  0  0999 V2000
   58.4495   27.3026   45.7980 C   0  0  0  0  0  0  0  0  0  0  0  0
   59.8376   27.4153   45.9583 C   0  0  0  0  0  0  0  0  0  0  0  0
   60.4833   28.6201   45.6860 C   0  0  0  0  0  0  0  0  0  0  0  0
   59.7484   29.7308   45.2694 C   0  0  0  0  0  0  0  0  0  0  0  0
   58.3550   29.6529   45.1405 C   0  0  0  0  0  0  0  0  0  0  0  0
   57.7017   28.4330   45.4122 C   0  0  0  0  0  0  0  0  0  0  0  0
   56.3160   28.3476   45.3252 O   0  0  0  0  0  0  0  0  0  0  0  0
   57.7421   25.3136   43.8699 O   0  0  0  0  0  0  0  0  0  0  0  0
   57.3872   25.1302   45.0664 C   0  0  0  0  0  0  0  0  0  0  0  0
   57.8133   26.0471   46.0870 N   0  0  0  0  0  0  0  0  0  0  0  0
   57.6623   25.8037   47.0289 H   0  0  0  0  0  0  0  0  0  0  0  0
   56.5586   23.9563   45.4151 C   0  0  0  0  0  0  0  0  0  0  0  0
   57.0783   22.8956   46.1717 C   0  0  0  0  0  0  0  0  0  0  0  0
   56.2631   21.8072   46.4721 C   0  0  0  0  0  0  0  0  0  0  0  0
   54.9470   21.7958   46.0108 C   0  0  0  0  0  0  0  0  0  0  0  0
   54.1890   20.8249   46.2685 O   0  0  0  0  0  0  0  0  0  0  0  0
   54.4868   22.8441   45.2805 N   0  0  0  0  0  0  0  0  0  0  0  0
   55.2670   23.8879   44.9913 N   0  0  0  0  0  0  0  0  0  0  0  0
   57.4508   31.0981   44.6557 S   0  0  0  0  0  0  0  0  0  0  0  0
   56.0020   30.7513   44.4542 O   0  0  0  0  0  0  0  0  0  0  0  0
   57.9901   31.5933   43.3426 O   0  0  0  0  0  0  0  0  0  0  0  0
   57.5837   32.3733   45.8469 N   0  0  0  0  0  0  0  0  0  0  0  0
   57.6248   33.7165   45.2152 C   0  0  0  0  0  0  0  0  0  0  0  0
   59.0293   34.3371   45.2165 C   0  0  0  0  0  0  0  0  0  0  0  0
   59.5800   34.4633   46.6464 C   0  0  0  0  0  0  0  0  0  0  0  0
   59.0770   33.3443   47.5795 C   0  0  0  0  0  0  0  0  0  0  0  0
   58.6961   32.0939   46.7812 C   0  0  0  0  0  0  0  0  0  0  0  0
  8  9  2  0
  9 10  1  0
 10  1  1  0
  1  2  2  0
  2  3  1  0
  3  4  2  0
  4  5  1  0
  5 19  1  0
 19 20  2  0
 19 21  2  0
 19 22  1  0
 22 23  1  0
 23 24  1  0
 24 25  1  0
 25 26  1  0
 26 27  1  0
  5  6  2  0
  6  7  1  0
  9 12  1  0
 12 13  1  0
 13 14  2  0
 14 15  1  0
 15 16  2  0
 15 17  1  0
 17 18  1  0
  6  1  1  0
 18 12  2  0
 27 22  1  0
 10 11  1  0
M  CHG 1   7  -1
M  CHG 1  17  -1
M  END
> <UniqueID>
44

> <SMILES>
O=C(Nc1cccc(S(=O)(=O)N2CCCCC2)c1[O-])c1ccc(=O)[n-]n1

> <Energy>
56.174386782024975

> <Genealogy>
O=C(Nc1cccc(S(=O)(=O)N2CCCCC2)c1[O-])c1ccc(=O)[n-]n1 (protonated)
O=C(Nc1cccc(S(=O)(=O)N2CCCCC2)c1[O-])c1ccc(=O)[n-]n1 (3D coordinates assigned)
O=C(Nc1cccc(S(=O)(=O)N2CCCCC2)c1[O-])c1ccc(=O)[n-]n1 (nonaromatic ring conformer: 56.174386782024975 kcal/mol)

> <smiles>
O=C(Nc1cccc(S(=O)(=O)N2CCCCC2)c1O)c1ccc(=O)[nH]n1

> <score_type>
oracle

> <origin>
adg

> <m_score__min__energy>
-14.359999999999999

> <m_primary>
energy

> <minimizedAffinity>
-8.39751

> <minimizedRMSD>
1.70896

> <CNNscore>
0.3133153617

> <CNNaffinity>
6.1725349426

> <CNN_VS>
1.9339500666

> <CNNaffinity_variance>
0.0117214257

$$$$
60:0


 32 35  0  0  0  0  0  0  0  0999 V2000
   58.8867   30.1497   47.6680 C   0  0  0  0  0  0  0  0  0  0  0  0
   59.0336   31.5316   47.4888 C   0  0  0  0  0  0  0  0  0  0  0  0
   59.3601   32.3530   48.5716 C   0  0  0  0  0  0  0  0  0  0  0  0
   59.5342   31.8019   49.8499 C   0  0  0  0  0  0  0  0  0  0  0  0
   59.4004   30.4149   50.0265 C   0  0  0  0  0  0  0  0  0  0  0  0
   59.0741   29.5958   48.9429 C   0  0  0  0  0  0  0  0  0  0  0  0
   59.2430   27.2135   47.4421 C   0  0  0  0  0  0  0  0  0  0  0  0
   58.6592   27.9530   46.4856 C   0  0  0  0  0  0  0  0  0  0  0  0
   58.2227   27.5148   45.2243 C   0  0  0  0  0  0  0  0  0  0  0  0
   58.0788   26.2725   44.7192 C   0  0  0  0  0  0  0  0  0  0  0  0
   57.9205   28.6558   44.4997 C   0  0  0  0  0  0  0  0  0  0  0  0
   58.1086   29.7285   45.3464 C   0  0  0  0  0  0  0  0  0  0  0  0
   57.8738   31.1600   44.9690 C   0  0  0  0  0  0  0  0  0  0  0  0
   58.5574   29.3062   46.5491 N   0  0  0  0  0  0  0  0  0  0  0  0
   57.5599   25.1050   45.4484 C   0  0  0  0  0  0  0  0  0  0  0  0
   58.1854   23.9165   45.4906 N   0  0  0  0  0  0  0  0  0  0  0  0
   57.3071   23.1257   46.1432 C   0  0  0  0  0  0  0  0  0  0  0  0
   57.5454   21.9154   46.3975 O   0  0  0  0  0  0  0  0  0  0  0  0
   56.1504   23.7269   46.4924 N   0  0  0  0  0  0  0  0  0  0  0  0
   56.3186   24.9760   46.0330 C   0  0  0  0  0  0  0  0  0  0  0  0
   55.3487   25.9680   46.1179 O   0  0  0  0  0  0  0  0  0  0  0  0
   59.9249   32.6813   51.0104 C   0  0  0  0  0  0  0  0  0  0  0  0
   61.0762   32.1059   51.7234 N   0  0  0  0  0  0  0  0  0  0  0  0
   61.1913   31.1348   51.4333 H   0  0  0  0  0  0  0  0  0  0  0  0
   60.8921   32.1727   52.7245 H   0  0  0  0  0  0  0  0  0  0  0  0
   62.3234   32.8380   51.4403 C   0  0  0  0  0  0  0  0  0  0  0  0
   62.6260   32.8868   49.9624 C   0  0  0  0  0  0  0  0  0  0  0  0
   62.5995   34.1088   49.2688 C   0  0  0  0  0  0  0  0  0  0  0  0
   62.8582   34.1453   47.8959 C   0  0  0  0  0  0  0  0  0  0  0  0
   63.1400   32.9637   47.2033 C   0  0  0  0  0  0  0  0  0  0  0  0
   63.1634   31.7442   47.8851 C   0  0  0  0  0  0  0  0  0  0  0  0
   62.9056   31.7034   49.2589 C   0  0  0  0  0  0  0  0  0  0  0  0
  7  8  2  0
  8  9  1  0
  9 10  2  0
 10 15  1  0
 15 16  1  0
 16 17  1  0
 17 18  2  0
 17 19  1  0
 19 20  1  0
 20 21  1  0
  9 11  1  0
 11 12  2  0
 12 13  1  0
 12 14  1  0
 14  1  1  0
  1  2  2  0
  2  3  1  0
  3  4  2  0
  4 22  1  0
 22 23  1  0
 23 26  1  0
 26 27  1  0
 27 28  2  0
 28 29  1  0
 29 30  2  0
 30 31  1  0
 31 32  2  0
  4  5  1  0
  5  6  2  0
 14  8  1  0
  6  1  1  0
 20 15  2  0
 32 27  1  0
 23 24  1  0
 23 25  1  0
M  CHG 1  16  -1
M  CHG 1  19  -1
M  CHG 1  21  -1
M  CHG 1  23   1
M  END
> <UniqueID>
58

> <SMILES>
C=c1c(=Cc2[n-]c(=O)[n-]c2[O-])cc(C)n1-c1ccc(C[NH2+]Cc2ccccc2)cc1

> <Energy>
130.65946262028737

> <Genealogy>
C=c1c(=Cc2[n-]c(=O)[n-]c2[O-])cc(C)n1-c1ccc(C[NH2+]Cc2ccccc2)cc1 (protonated)
C=c1c(=Cc2[n-]c(=O)[n-]c2[O-])cc(C)n1-c1ccc(C[NH2+]Cc2ccccc2)cc1 (3D coordinates assigned)
C=c1c(=Cc2[n-]c(=O)[n-]c2[O-])cc(C)n1-c1ccc(C[NH2+]Cc2ccccc2)cc1 (optimized conformer: 130.65946262028737 kcal/mol)

> <smiles>
C=c1c(=Cc2[nH]c(=O)[nH]c2O)cc(C)n1-c1ccc(CNCc2ccccc2)cc1

> <score_type>
oracle

> <origin>
adg

> <m_score__min__energy>
-14.68

> <m_primary>
energy

> <minimizedAffinity>
-8.18583

> <minimizedRMSD>
1.07697

> <CNNscore>
0.3159182966

> <CNNaffinity>
6.8200545311

> <CNN_VS>
2.1545801163

> <CNNaffinity_variance>
0.0811158642

$$$$
74:0


 26 28  0  0  0  0  0  0  0  0999 V2000
   59.1791   30.7830   48.7848 N   0  0  0  0  0  0  0  0  0  0  0  0
   58.8641   31.2068   47.5968 C   0  0  0  0  0  0  0  0  0  0  0  0
   58.3630   30.3315   46.6907 N   0  0  0  0  0  0  0  0  0  0  0  0
   58.0276   30.7486   45.4439 C   0  0  0  0  0  0  0  0  0  0  0  0
   57.5570   29.8875   44.5917 N   0  0  0  0  0  0  0  0  0  0  0  0
   58.1900   32.0581   45.1065 N   0  0  0  0  0  0  0  0  0  0  0  0
   58.6894   32.9442   46.0106 C   0  0  0  0  0  0  0  0  0  0  0  0
   58.8526   34.2008   45.7155 N   0  0  0  0  0  0  0  0  0  0  0  0
   59.0285   32.5107   47.2510 N   0  0  0  0  0  0  0  0  0  0  0  0
   59.7502   35.1264   46.3463 C   0  0  0  0  0  0  0  0  0  0  0  0
   59.8100   36.1095   45.5629 O   0  0  0  0  0  0  0  0  0  0  0  0
   56.9130   28.6202   44.9400 C   0  0  0  0  0  0  0  0  0  0  0  0
   57.9174   27.6426   45.5010 C   0  0  0  0  0  0  0  0  0  0  0  0
   59.2936   27.8916   45.3607 C   0  0  0  0  0  0  0  0  0  0  0  0
   60.2319   26.9933   45.8762 C   0  0  0  0  0  0  0  0  0  0  0  0
   59.8051   25.8321   46.5245 C   0  0  0  0  0  0  0  0  0  0  0  0
   58.4411   25.5626   46.6520 C   0  0  0  0  0  0  0  0  0  0  0  0
   57.4967   26.4586   46.1390 C   0  0  0  0  0  0  0  0  0  0  0  0
   56.1423   26.1634   46.2639 O   0  0  0  0  0  0  0  0  0  0  0  0
   60.5446   30.5453   49.2523 C   0  0  0  0  0  0  0  0  0  0  0  0
   61.4954   31.6464   48.8635 C   0  0  0  0  0  0  0  0  0  0  0  0
   62.3244   31.4945   47.7397 C   0  0  0  0  0  0  0  0  0  0  0  0
   63.2246   32.5043   47.3869 C   0  0  0  0  0  0  0  0  0  0  0  0
   63.3055   33.6706   48.1534 C   0  0  0  0  0  0  0  0  0  0  0  0
   62.4865   33.8279   49.2747 C   0  0  0  0  0  0  0  0  0  0  0  0
   61.5839   32.8201   49.6301 C   0  0  0  0  0  0  0  0  0  0  0  0
 10 11  2  0
 10  1  1  0
  1  2  2  0
  2  3  1  0
  3  4  1  0
  4  5  2  0
  5 12  1  0
 12 13  1  0
 13 14  2  0
 14 15  1  0
 15 16  2  0
 16 17  1  0
 17 18  2  0
 18 19  1  0
  4  6  1  0
  6  7  1  0
  7  8  2  0
  8 20  1  0
 20 21  1  0
 21 22  2  0
 22 23  1  0
 23 24  2  0
 24 25  1  0
 25 26  2  0
  7  9  1  0
  9  2  1  0
 18 13  1  0
 26 21  1  0
M  CHG 1   3  -1
M  CHG 1   6  -1
M  CHG 1   9  -1
M  CHG 1  19  -1
M  END
> <UniqueID>
71

> <SMILES>
O=C/N=c1\[n-]c(=NCc2ccccc2[O-])[n-]/c(=N/Cc2ccccc2)[n-]1

> <Energy>
44.3631604102173

> <Genealogy>
O=CN=c1[n-]c(=NCc2ccccc2)[n-]c(=NCc2ccccc2[O-])[n-]1 (protonated)
O=C/N=c1\[n-]c(=NCc2ccccc2[O-])[n-]/c(=N/Cc2ccccc2)[n-]1 (cis-trans isomerization)
O=C/N=c1\[n-]c(=NCc2ccccc2[O-])[n-]/c(=N/Cc2ccccc2)[n-]1 (3D coordinates assigned)
O=C/N=c1\[n-]c(=NCc2ccccc2[O-])[n-]/c(=N/Cc2ccccc2)[n-]1 (optimized conformer: 44.3631604102173 kcal/mol)

> <smiles>
O=CN=c1[nH]c(=NCc2ccccc2)[nH]c(=NCc2ccccc2O)[nH]1

> <score_type>
oracle

> <origin>
adg

> <m_score__min__energy>
-15.31

> <m_primary>
energy

> <minimizedAffinity>
-7.92856

> <minimizedRMSD>
0.82367

> <CNNscore>
0.3625750244

> <CNNaffinity>
6.1299705505

> <CNN_VS>
2.2225742340

> <CNNaffinity_variance>
0.0607753210

$$$$
76:0


 29 31  0  0  0  0  0  0  0  0999 V2000
   59.9460   28.7775   47.2712 C   0  0  0  0  0  0  0  0  0  0  0  0
   59.1621   27.7799   47.8735 C   0  0  0  0  0  0  0  0  0  0  0  0
   58.4919   26.8398   47.0855 C   0  0  0  0  0  0  0  0  0  0  0  0
   58.5778   26.8959   45.6843 C   0  0  0  0  0  0  0  0  0  0  0  0
   59.3541   27.8992   45.0842 C   0  0  0  0  0  0  0  0  0  0  0  0
   60.0327   28.8315   45.8720 C   0  0  0  0  0  0  0  0  0  0  0  0
   60.6552   29.8080   48.1116 C   0  0  0  0  0  0  0  0  0  0  0  0
   61.4018   30.8298   47.2448 C   0  0  0  0  0  0  0  0  0  0  0  0
   62.0301   33.1280   47.3926 O   0  0  0  0  0  0  0  0  0  0  0  0
   61.2501   32.2180   47.7861 C   0  0  0  0  0  0  0  0  0  0  0  0
   60.2458   32.4927   48.7689 N   0  0  0  0  0  0  0  0  0  0  0  0
   58.8248   32.6191   48.4621 C   0  0  0  0  0  0  0  0  0  0  0  0
   58.6260   32.8535   46.9890 C   0  0  0  0  0  0  0  0  0  0  0  0
   58.8555   34.1265   46.4303 C   0  0  0  0  0  0  0  0  0  0  0  0
   58.6438   34.3483   45.0660 C   0  0  0  0  0  0  0  0  0  0  0  0
   58.2115   33.3010   44.2464 C   0  0  0  0  0  0  0  0  0  0  0  0
   57.9817   32.0297   44.7922 C   0  0  0  0  0  0  0  0  0  0  0  0
   57.5696   31.0150   43.9919 F   0  0  0  0  0  0  0  0  0  0  0  0
   58.1776   31.8089   46.1610 C   0  0  0  0  0  0  0  0  0  0  0  0
   57.8204   25.9084   44.8339 C   0  0  0  0  0  0  0  0  0  0  0  0
   57.2480   24.7971   45.6875 C   0  0  0  0  0  0  0  0  0  0  0  0
   55.9666   24.8994   46.2576 C   0  0  0  0  0  0  0  0  0  0  0  0
   55.1906   26.0393   46.0730 O   0  0  0  0  0  0  0  0  0  0  0  0
   55.4663   23.8708   46.9920 N   0  0  0  0  0  0  0  0  0  0  0  0
   56.1783   22.7319   47.1828 C   0  0  0  0  0  0  0  0  0  0  0  0
   55.6902   21.7916   47.8643 O   0  0  0  0  0  0  0  0  0  0  0  0
   57.4142   22.6051   46.6408 N   0  0  0  0  0  0  0  0  0  0  0  0
   57.9640   23.6044   45.9019 C   0  0  0  0  0  0  0  0  0  0  0  0
   59.1147   23.4494   45.4143 O   0  0  0  0  0  0  0  0  0  0  0  0
  9 10  2  0
 10  8  1  0
  8  7  1  0
  7  1  1  0
  1  2  2  0
  2  3  1  0
  3  4  2  0
  4 20  1  0
 20 21  1  0
 21 22  2  0
 22 23  1  0
 22 24  1  0
 24 25  1  0
 25 26  2  0
 25 27  1  0
 27 28  1  0
 28 29  2  0
  4  5  1  0
  5  6  2  0
 10 11  1  0
 11 12  1  0
 12 13  1  0
 13 14  2  0
 14 15  1  0
 15 16  2  0
 16 17  1  0
 17 18  1  0
 17 19  2  0
  6  1  1  0
 19 13  1  0
 28 21  1  0
M  CHG 1  11  -1
M  CHG 1  23  -1
M  CHG 1  24  -1
M  CHG 1  27  -1
M  END
> <UniqueID>
73

> <SMILES>
O=C(CCc1ccc(Cc2c([O-])[n-]c(=O)[n-]c2=O)cc1)[N-]Cc1cccc(F)c1

> <Energy>
39.03542986677395

> <Genealogy>
O=C(CCc1ccc(Cc2c([O-])[n-]c(=O)[n-]c2=O)cc1)[N-]Cc1cccc(F)c1 (protonated)
O=C(CCc1ccc(Cc2c([O-])[n-]c(=O)[n-]c2=O)cc1)[N-]Cc1cccc(F)c1 (3D coordinates assigned)
O=C(CCc1ccc(Cc2c([O-])[n-]c(=O)[n-]c2=O)cc1)[N-]Cc1cccc(F)c1 (optimized conformer: 39.03542986677395 kcal/mol)

> <smiles>
O=C(CCc1ccc(Cc2c(O)[nH]c(=O)[nH]c2=O)cc1)NCc1cccc(F)c1

> <score_type>
oracle

> <origin>
adg

> <m_score__min__energy>
-17.539999999999999

> <m_primary>
energy

> <minimizedAffinity>
-8.30436

> <minimizedRMSD>
0.83128

> <CNNscore>
0.2352412939

> <CNNaffinity>
6.5399870872

> <CNN_VS>
1.5384750366

> <CNNaffinity_variance>
0.0053604208

$$$$
22:0


 29 31  0  0  0  0  0  0  0  0999 V2000
   58.8044   30.6772   45.9183 S   0  0  0  0  0  0  0  0  0  0  0  0
   60.1329   29.9764   45.8622 O   0  0  0  0  0  0  0  0  0  0  0  0
   57.9847   30.0948   47.0337 O   0  0  0  0  0  0  0  0  0  0  0  0
   59.0356   32.4003   46.2300 C   0  0  0  0  0  0  0  0  0  0  0  0
   59.0200   33.3138   45.1636 C   0  0  0  0  0  0  0  0  0  0  0  0
   59.2198   34.6745   45.3976 C   0  0  0  0  0  0  0  0  0  0  0  0
   59.4255   35.1377   46.6989 C   0  0  0  0  0  0  0  0  0  0  0  0
   59.4187   34.2428   47.7693 C   0  0  0  0  0  0  0  0  0  0  0  0
   59.2144   32.8662   47.5484 C   0  0  0  0  0  0  0  0  0  0  0  0
   59.1658   31.9381   48.6035 O   0  0  0  0  0  0  0  0  0  0  0  0
   60.2782   31.2055   49.1175 C   0  0  0  0  0  0  0  0  0  0  0  0
   61.5596   31.9684   48.9176 C   0  0  0  0  0  0  0  0  0  0  0  0
   62.3026   31.8210   47.7341 C   0  0  0  0  0  0  0  0  0  0  0  0
   63.4774   32.5554   47.5449 C   0  0  0  0  0  0  0  0  0  0  0  0
   63.9133   33.4468   48.5302 C   0  0  0  0  0  0  0  0  0  0  0  0
   63.1743   33.6055   49.7063 C   0  0  0  0  0  0  0  0  0  0  0  0
   61.9994   32.8711   49.8997 C   0  0  0  0  0  0  0  0  0  0  0  0
   57.9777   30.4096   44.4212 N   0  0  0  0  0  0  0  0  0  0  0  0
   55.7564   29.6898   44.4719 O   0  0  0  0  0  0  0  0  0  0  0  0
   56.9675   29.4112   44.2545 C   0  0  0  0  0  0  0  0  0  0  0  0
   57.3845   28.0077   43.9301 C   0  0  0  0  0  0  0  0  0  0  0  0
   57.9064   27.2755   45.1303 C   0  0  0  0  0  0  0  0  0  0  0  0
   59.2082   27.1763   45.4518 N   0  0  0  0  0  0  0  0  0  0  0  0
   59.1894   26.4647   46.5997 C   0  0  0  0  0  0  0  0  0  0  0  0
   60.2393   26.1616   47.2263 O   0  0  0  0  0  0  0  0  0  0  0  0
   57.9599   26.1096   47.0285 N   0  0  0  0  0  0  0  0  0  0  0  0
   57.1578   26.6292   46.0850 C   0  0  0  0  0  0  0  0  0  0  0  0
   55.7723   26.5135   46.0884 O   0  0  0  0  0  0  0  0  0  0  0  0
   55.3423   26.0532   46.7821 H   0  0  0  0  0  0  0  0  0  0  0  0
 19 20  2  0
 20 21  1  0
 21 22  1  0
 22 23  1  0
 23 24  1  0
 24 25  2  0
 24 26  1  0
 26 27  1  0
 27 28  1  0
 20 18  1  0
 18  1  1  0
  1  2  2  0
  1  3  2  0
  1  4  1  0
  4  5  2  0
  5  6  1  0
  6  7  2  0
  7  8  1  0
  8  9  2  0
  9 10  1  0
 10 11  1  0
 11 12  1  0
 12 13  2  0
 13 14  1  0
 14 15  2  0
 15 16  1  0
 16 17  2  0
 27 22  2  0
  9  4  1  0
 17 12  1  0
 28 29  1  0
M  CHG 1  18  -1
M  CHG 1  23  -1
M  CHG 1  26  -1
M  END
> <UniqueID>
22

> <SMILES>
O=C(Cc1[n-]c(=O)[n-]c1O)[N-]S(=O)(=O)c1ccccc1OCc1ccccc1

> <Energy>
74.68066664155761

> <Genealogy>
O=C(Cc1[n-]c(=O)[n-]c1O)[N-]S(=O)(=O)c1ccccc1OCc1ccccc1 (protonated)
O=C(Cc1[n-]c(=O)[n-]c1O)[N-]S(=O)(=O)c1ccccc1OCc1ccccc1 (3D coordinates assigned)
O=C(Cc1[n-]c(=O)[n-]c1O)[N-]S(=O)(=O)c1ccccc1OCc1ccccc1 (optimized conformer: 74.68066664155761 kcal/mol)

> <smiles>
O=C(Cc1[nH]c(=O)[nH]c1O)NS(=O)(=O)c1ccccc1OCc1ccccc1

> <score_type>
oracle

> <origin>
adg

> <m_score__min__energy>
-14.390000000000001

> <m_primary>
energy

> <minimizedAffinity>
-7.31088

> <minimizedRMSD>
0.67471

> <CNNscore>
0.7525880337

> <CNNaffinity>
6.4621562958

> <CNN_VS>
4.8633413315

> <CNNaffinity_variance>
0.0099459430

$$$$
29:0


 38 41  0  0  0  0  0  0  0  0999 V2000
   58.6225   28.2961   46.6766 C   0  0  0  0  0  0  0  0  0  0  0  0
   59.5946   27.5508   47.3534 C   0  0  0  0  0  0  0  0  0  0  0  0
   60.4017   28.1596   48.3162 C   0  0  0  0  0  0  0  0  0  0  0  0
   60.2517   29.5221   48.6107 C   0  0  0  0  0  0  0  0  0  0  0  0
   59.2793   30.2846   47.9265 C   0  0  0  0  0  0  0  0  0  0  0  0
   58.4683   29.6581   46.9653 C   0  0  0  0  0  0  0  0  0  0  0  0
   61.1368   30.1342   49.5606 N   0  0  0  0  0  0  0  0  0  0  0  0
   61.0531   29.7777   50.9792 C   0  0  0  0  0  0  0  0  0  0  0  0
   62.3970   30.0357   51.6780 C   0  0  0  0  0  0  0  0  0  0  0  0
   62.9169   31.4149   51.4679 N   0  0  0  0  0  0  0  0  0  0  0  0
   62.4736   32.0681   50.2114 C   0  0  0  0  0  0  0  0  0  0  0  0
   62.1783   31.0571   49.1021 C   0  0  0  0  0  0  0  0  0  0  0  0
   62.6641   32.2907   52.6304 C   0  0  0  0  0  0  0  0  0  0  0  0
   61.2355   32.7426   52.6482 C   0  0  0  0  0  0  0  0  0  0  0  0
   60.8532   33.6263   51.8335 O   0  0  0  0  0  0  0  0  0  0  0  0
   60.3499   32.2462   53.6597 N   0  0  0  0  0  0  0  0  0  0  0  0
   59.0611   31.6461   53.4518 C   0  0  0  0  0  0  0  0  0  0  0  0
   58.0837   32.3075   52.6834 C   0  0  0  0  0  0  0  0  0  0  0  0
   56.8406   31.7172   52.4553 C   0  0  0  0  0  0  0  0  0  0  0  0
   56.5598   30.4567   52.9767 C   0  0  0  0  0  0  0  0  0  0  0  0
   57.5243   29.7750   53.7192 C   0  0  0  0  0  0  0  0  0  0  0  0
   58.7874   30.3491   53.9627 C   0  0  0  0  0  0  0  0  0  0  0  0
   59.7831   29.5766   54.7544 C   0  0  0  0  0  0  0  0  0  0  0  0
   60.0385   29.8728   55.9508 O   0  0  0  0  0  0  0  0  0  0  0  0
   60.4525   28.5026   54.1786 O   0  0  0  0  0  0  0  0  0  0  0  0
   56.3286   28.6267   45.0202 N   0  0  0  0  0  0  0  0  0  0  0  0
   57.6063   27.5450   45.4498 S   0  0  0  0  0  0  0  0  0  0  0  0
   58.4177   27.2237   44.2263 O   0  0  0  0  0  0  0  0  0  0  0  0
   57.0243   26.2710   45.9939 O   0  0  0  0  0  0  0  0  0  0  0  0
   55.7397   28.1923   44.3097 H   0  0  0  0  0  0  0  0  0  0  0  0
   59.0663   31.7154   48.2405 C   0  0  0  0  0  0  0  0  0  0  0  0
   58.8529   32.0496   49.4384 O   0  0  0  0  0  0  0  0  0  0  0  0
   59.0857   32.7628   47.1871 C   0  0  0  0  0  0  0  0  0  0  0  0
   59.8460   33.9337   47.3714 C   0  0  0  0  0  0  0  0  0  0  0  0
   59.8800   34.9194   46.3791 C   0  0  0  0  0  0  0  0  0  0  0  0
   59.1627   34.7451   45.1926 C   0  0  0  0  0  0  0  0  0  0  0  0
   58.4148   33.5819   44.9937 C   0  0  0  0  0  0  0  0  0  0  0  0
   58.3791   32.5935   45.9812 C   0  0  0  0  0  0  0  0  0  0  0  0
 26 27  1  0
 27 28  2  0
 27 29  2  0
 27  1  1  0
  1  2  2  0
  2  3  1  0
  3  4  2  0
  4  7  1  0
  7  8  1  0
  8  9  1  0
  9 10  1  0
 10 13  1  0
 13 14  1  0
 14 15  2  0
 14 16  1  0
 16 17  1  0
 17 18  2  0
 18 19  1  0
 19 20  2  0
 20 21  1  0
 21 22  2  0
 22 23  1  0
 23 24  2  0
 23 25  1  0
 10 11  1  0
 11 12  1  0
  4  5  1  0
  5 31  1  0
 31 32  2  0
 31 33  1  0
 33 34  2  0
 34 35  1  0
 35 36  2  0
 36 37  1  0
 37 38  2  0
  5  6  2  0
  6  1  1  0
 12  7  1  0
 38 33  1  0
 22 17  1  0
 26 30  1  0
M  CHG 1  16  -1
M  CHG 1  25  -1
M  CHG 1  26  -1
M  END
> <UniqueID>
29

> <SMILES>
[NH-]S(=O)(=O)c1ccc(N2CCN(CC(=O)[N-]c3ccccc3C(=O)[O-])CC2)c(C(=O)c2ccccc2)c1

> <Energy>
88.33336303735108

> <Genealogy>
[NH-]S(=O)(=O)c1ccc(N2CCN(CC(=O)[N-]c3ccccc3C(=O)[O-])CC2)c(C(=O)c2ccccc2)c1 (protonated)
[NH-]S(=O)(=O)c1ccc(N2CCN(CC(=O)[N-]c3ccccc3C(=O)[O-])CC2)c(C(=O)c2ccccc2)c1 (3D coordinates assigned)
[NH-]S(=O)(=O)c1ccc(N2CCN(CC(=O)[N-]c3ccccc3C(=O)[O-])CC2)c(C(=O)c2ccccc2)c1 (nonaromatic ring conformer: 88.33336303735108 kcal/mol)

> <smiles>
NS(=O)(=O)c1ccc(N2CCN(CC(=O)Nc3ccccc3C(=O)O)CC2)c(C(=O)c2ccccc2)c1

> <score_type>
oracle

> <origin>
adg

> <m_score__min__energy>
-15.17

> <m_primary>
energy

> <minimizedAffinity>
-7.63365

> <minimizedRMSD>
1.65506

> <CNNscore>
0.6489075422

> <CNNaffinity>
7.0687718391

> <CNN_VS>
4.5869793892

> <CNNaffinity_variance>
0.5332798958

$$$$
30:0


 27 29  0  0  0  0  0  0  0  0999 V2000
   59.2271   29.1271   45.6894 C   0  0  0  0  0  0  0  0  0  0  0  0
   57.9602   29.0650   45.0705 C   0  0  0  0  0  0  0  0  0  0  0  0
   57.1425   30.1950   45.0239 C   0  0  0  0  0  0  0  0  0  0  0  0
   56.0144   30.1361   44.4697 O   0  0  0  0  0  0  0  0  0  0  0  0
   57.5595   31.3607   45.5755 N   0  0  0  0  0  0  0  0  0  0  0  0
   58.7673   31.4762   46.1850 C   0  0  0  0  0  0  0  0  0  0  0  0
   59.1362   32.7030   46.7415 C   0  0  0  0  0  0  0  0  0  0  0  0
   60.3702   32.8460   47.3751 C   0  0  0  0  0  0  0  0  0  0  0  0
   61.2604   31.7637   47.4592 C   0  0  0  0  0  0  0  0  0  0  0  0
   60.8843   30.5234   46.9119 C   0  0  0  0  0  0  0  0  0  0  0  0
   59.6390   30.3628   46.2619 C   0  0  0  0  0  0  0  0  0  0  0  0
   62.5667   31.9373   48.1405 C   0  0  0  0  0  0  0  0  0  0  0  0
   63.7123   32.4362   47.4442 N   0  0  0  0  0  0  0  0  0  0  0  0
   62.6745   31.6546   49.3652 O   0  0  0  0  0  0  0  0  0  0  0  0
   63.6475   32.6623   46.4883 H   0  0  0  0  0  0  0  0  0  0  0  0
   64.5656   32.5534   47.9210 H   0  0  0  0  0  0  0  0  0  0  0  0
   60.1383   27.9053   45.7519 C   0  0  0  0  0  0  0  0  0  0  0  0
   59.6382   26.7785   46.6064 C   0  0  0  0  0  0  0  0  0  0  0  0
   59.7089   26.8695   47.8617 O   0  0  0  0  0  0  0  0  0  0  0  0
   58.5802   22.6511   45.1201 C   0  0  0  0  0  0  0  0  0  0  0  0
   57.7295   23.8109   45.3877 N   0  0  0  0  0  0  0  0  0  0  0  0
   56.3846   23.7779   45.3667 C   0  0  0  0  0  0  0  0  0  0  0  0
   55.9281   24.9974   45.7978 C   0  0  0  0  0  0  0  0  0  0  0  0
   54.5929   25.3530   45.9336 O   0  0  0  0  0  0  0  0  0  0  0  0
   56.9536   25.8158   46.0902 N   0  0  0  0  0  0  0  0  0  0  0  0
   58.0433   25.0687   45.8120 C   0  0  0  0  0  0  0  0  0  0  0  0
   59.2442   25.5474   45.9895 N   0  0  0  0  0  0  0  0  0  0  0  0
 20 21  1  0
 21 22  1  0
 22 23  2  0
 23 24  1  0
 23 25  1  0
 25 26  1  0
 26 27  2  0
 27 18  1  0
 18 19  2  0
 18 17  1  0
 17  1  1  0
  1  2  2  0
  2  3  1  0
  3  4  2  0
  3  5  1  0
  5  6  1  0
  6  7  2  0
  7  8  1  0
  8  9  2  0
  9 12  1  0
 12 13  1  0
 12 14  2  0
  9 10  1  0
 10 11  2  0
 26 21  1  0
 11  1  1  0
 11  6  1  0
 13 15  1  0
 13 16  1  0
M  CHG 1   5  -1
M  CHG 1  24  -1
M  CHG 1  25  -1
M  END
> <UniqueID>
30

> <SMILES>
Cn1cc([O-])[n-]c1=NC(=O)Cc1cc(=O)[n-]c2ccc(C(N)=O)cc12

> <Energy>
90.73739666456193

> <Genealogy>
Cn1cc([O-])[n-]c1=NC(=O)Cc1cc(=O)[n-]c2ccc(C(N)=O)cc12 (protonated)
Cn1cc([O-])[n-]c1=NC(=O)Cc1cc(=O)[n-]c2ccc(C(N)=O)cc12 (3D coordinates assigned)
Cn1cc([O-])[n-]c1=NC(=O)Cc1cc(=O)[n-]c2ccc(C(N)=O)cc12 (optimized conformer: 90.73739666456193 kcal/mol)

> <smiles>
Cn1cc(O)[nH]c1=NC(=O)Cc1cc(=O)[nH]c2ccc(C(N)=O)cc12

> <score_type>
oracle

> <origin>
adg

> <m_score__min__energy>
-14.74

> <m_primary>
energy

> <minimizedAffinity>
-8.98636

> <minimizedRMSD>
1.02491

> <CNNscore>
0.1839741468

> <CNNaffinity>
6.2243080139

> <CNN_VS>
1.1451117992

> <CNNaffinity_variance>
0.1509915441

$$$$
57:0


 32 35  0  0  0  0  0  0  0  0999 V2000
   57.5582   28.4233   45.2688 C   0  0  0  0  0  0  0  0  0  0  0  0
   58.3464   27.5060   45.8509 C   0  0  0  0  0  0  0  0  0  0  0  0
   58.3530   26.1324   45.5927 C   0  0  0  0  0  0  0  0  0  0  0  0
   57.5841   25.4609   44.7128 C   0  0  0  0  0  0  0  0  0  0  0  0
   59.3504   25.5876   46.3902 C   0  0  0  0  0  0  0  0  0  0  0  0
   59.8951   26.6333   47.1085 C   0  0  0  0  0  0  0  0  0  0  0  0
   61.0234   26.4953   48.0856 C   0  0  0  0  0  0  0  0  0  0  0  0
   59.2935   27.7975   46.7789 N   0  0  0  0  0  0  0  0  0  0  0  0
   56.6127   24.4163   45.1094 C   0  0  0  0  0  0  0  0  0  0  0  0
   55.4204   24.7357   45.7827 C   0  0  0  0  0  0  0  0  0  0  0  0
   55.1166   26.0557   46.0967 O   0  0  0  0  0  0  0  0  0  0  0  0
   54.5426   23.7495   46.1151 N   0  0  0  0  0  0  0  0  0  0  0  0
   54.7889   22.4547   45.7818 C   0  0  0  0  0  0  0  0  0  0  0  0
   53.9650   21.5542   46.0952 O   0  0  0  0  0  0  0  0  0  0  0  0
   55.9182   22.1278   45.1056 N   0  0  0  0  0  0  0  0  0  0  0  0
   56.8278   23.0743   44.7575 C   0  0  0  0  0  0  0  0  0  0  0  0
   57.8653   22.7340   44.1273 O   0  0  0  0  0  0  0  0  0  0  0  0
   53.7185   23.9771   46.6033 H   0  0  0  0  0  0  0  0  0  0  0  0
   59.6038   29.0894   47.3315 C   0  0  0  0  0  0  0  0  0  0  0  0
   60.4908   29.9464   46.6680 C   0  0  0  0  0  0  0  0  0  0  0  0
   60.8032   31.1956   47.2123 C   0  0  0  0  0  0  0  0  0  0  0  0
   60.2398   31.6029   48.4272 C   0  0  0  0  0  0  0  0  0  0  0  0
   59.3439   30.7425   49.0912 C   0  0  0  0  0  0  0  0  0  0  0  0
   59.0335   29.4924   48.5469 C   0  0  0  0  0  0  0  0  0  0  0  0
   60.5938   32.8650   48.9320 O   0  0  0  0  0  0  0  0  0  0  0  0
   59.9054   34.0860   48.6568 C   0  0  0  0  0  0  0  0  0  0  0  0
   59.2344   34.0301   47.3097 C   0  0  0  0  0  0  0  0  0  0  0  0
   57.9952   33.3874   47.1538 C   0  0  0  0  0  0  0  0  0  0  0  0
   57.3836   33.3323   45.8970 C   0  0  0  0  0  0  0  0  0  0  0  0
   58.0069   33.9091   44.7884 C   0  0  0  0  0  0  0  0  0  0  0  0
   59.2451   34.5410   44.9328 C   0  0  0  0  0  0  0  0  0  0  0  0
   59.8609   34.5982   46.1871 C   0  0  0  0  0  0  0  0  0  0  0  0
  1  2  2  0
  2  3  1  0
  3  4  2  0
  4  9  1  0
  9 10  2  0
 10 11  1  0
 10 12  1  0
 12 13  1  0
 13 14  2  0
 13 15  1  0
 15 16  1  0
 16 17  2  0
  3  5  1  0
  5  6  2  0
  6  7  1  0
  6  8  1  0
  8 19  1  0
 19 20  2  0
 20 21  1  0
 21 22  2  0
 22 25  1  0
 25 26  1  0
 26 27  1  0
 27 28  2  0
 28 29  1  0
 29 30  2  0
 30 31  1  0
 31 32  2  0
 22 23  1  0
 23 24  2  0
  8  2  1  0
 24 19  1  0
 16  9  1  0
 32 27  1  0
 12 18  1  0
M  CHG 1  11  -1
M  CHG 1  15  -1
M  END
> <UniqueID>
57

> <SMILES>
C=c1/c(=C/c2c([O-])[nH]c(=O)[n-]c2=O)cc(C)n1-c1ccc(OCc2ccccc2)cc1

> <Energy>
98.95466709367817

> <Genealogy>
C=c1c(=Cc2c([O-])[nH]c(=O)[n-]c2=O)cc(C)n1-c1ccc(OCc2ccccc2)cc1 (protonated)
C=c1/c(=C/c2c([O-])[nH]c(=O)[n-]c2=O)cc(C)n1-c1ccc(OCc2ccccc2)cc1 (cis-trans isomerization)
C=c1/c(=C/c2c([O-])[nH]c(=O)[n-]c2=O)cc(C)n1-c1ccc(OCc2ccccc2)cc1 (3D coordinates assigned)
C=c1/c(=C/c2c([O-])[nH]c(=O)[n-]c2=O)cc(C)n1-c1ccc(OCc2ccccc2)cc1 (optimized conformer: 98.95466709367817 kcal/mol)

> <smiles>
C=c1c(=Cc2c(O)[nH]c(=O)[nH]c2=O)cc(C)n1-c1ccc(OCc2ccccc2)cc1

> <score_type>
oracle

> <origin>
adg

> <m_score__min__energy>
-14.49

> <m_primary>
energy

> <minimizedAffinity>
-8.74784

> <minimizedRMSD>
0.65153

> <CNNscore>
0.1265463084

> <CNNaffinity>
6.3354439735

> <CNN_VS>
0.8017270565

> <CNNaffinity_variance>
0.1638850719

$$$$
86:0


 31 34  0  0  0  0  0  0  0  0999 V2000
   57.7387   30.6278   45.2087 C   0  0  0  0  0  0  0  0  0  0  0  0
   58.4559   31.4154   46.1269 C   0  0  0  0  0  0  0  0  0  0  0  0
   58.7992   32.7377   45.8145 C   0  0  0  0  0  0  0  0  0  0  0  0
   58.4528   33.2624   44.5619 C   0  0  0  0  0  0  0  0  0  0  0  0
   57.7727   32.4731   43.6320 C   0  0  0  0  0  0  0  0  0  0  0  0
   57.4195   31.1588   43.9509 C   0  0  0  0  0  0  0  0  0  0  0  0
   56.7428   30.3849   43.0140 O   0  0  0  0  0  0  0  0  0  0  0  0
   59.6626   33.7325   46.9904 S   0  0  0  0  0  0  0  0  0  0  0  0
   60.0201   35.0487   46.3576 O   0  0  0  0  0  0  0  0  0  0  0  0
   58.7617   34.0092   48.1636 O   0  0  0  0  0  0  0  0  0  0  0  0
   61.1178   32.9434   47.5538 N   0  0  0  0  0  0  0  0  0  0  0  0
   61.1933   32.9219   49.0313 C   0  0  0  0  0  0  0  0  0  0  0  0
   62.2069   33.9469   49.5741 C   0  0  0  0  0  0  0  0  0  0  0  0
   63.5248   33.7475   49.0798 O   0  0  0  0  0  0  0  0  0  0  0  0
   63.5688   33.2463   47.7488 C   0  0  0  0  0  0  0  0  0  0  0  0
   62.3070   33.5457   46.9223 C   0  0  0  0  0  0  0  0  0  0  0  0
   57.3752   29.2716   45.5074 N   0  0  0  0  0  0  0  0  0  0  0  0
   59.3831   28.1086   45.1851 O   0  0  0  0  0  0  0  0  0  0  0  0
   58.2877   28.2065   45.8008 C   0  0  0  0  0  0  0  0  0  0  0  0
   57.9287   27.1965   46.8410 C   0  0  0  0  0  0  0  0  0  0  0  0
   57.6839   25.9020   46.2055 N   0  0  0  0  0  0  0  0  0  0  0  0
   58.6050   24.9605   45.9084 C   0  0  0  0  0  0  0  0  0  0  0  0
   59.9725   25.1134   46.1035 O   0  0  0  0  0  0  0  0  0  0  0  0
   57.9901   23.8288   45.4091 C   0  0  0  0  0  0  0  0  0  0  0  0
   56.6412   24.0797   45.4186 C   0  0  0  0  0  0  0  0  0  0  0  0
   56.4813   25.3566   45.9225 C   0  0  0  0  0  0  0  0  0  0  0  0
   55.2629   25.9917   46.1336 O   0  0  0  0  0  0  0  0  0  0  0  0
   55.6011   23.0881   45.0117 C   0  0  0  0  0  0  0  0  0  0  0  0
   56.2228   21.8179   44.4651 C   0  0  0  0  0  0  0  0  0  0  0  0
   57.5522   21.5691   44.4569 C   0  0  0  0  0  0  0  0  0  0  0  0
   58.5972   22.5289   44.9909 C   0  0  0  0  0  0  0  0  0  0  0  0
 18 19  2  0
 19 20  1  0
 20 21  1  0
 21 22  1  0
 22 23  1  0
 22 24  2  0
 24 25  1  0
 25 26  2  0
 26 27  1  0
 25 28  1  0
 28 29  1  0
 29 30  2  0
 30 31  1  0
 19 17  1  0
 17  1  1  0
  1  2  2  0
  2  3  1  0
  3  8  1  0
  8  9  2  0
  8 10  2  0
  8 11  1  0
 11 12  1  0
 12 13  1  0
 13 14  1  0
 14 15  1  0
 15 16  1  0
  3  4  2  0
  4  5  1  0
  5  6  2  0
  6  7  1  0
 26 21  1  0
  6  1  1  0
 31 24  1  0
 16 11  1  0
M  CHG 1   7  -1
M  CHG 1  17  -1
M  CHG 1  23  -1
M  CHG 1  27  -1
M  END
> <UniqueID>
85

> <SMILES>
O=C(Cn1c([O-])c2c(c1[O-])CC=CC2)[N-]c1cc(S(=O)(=O)N2CCOCC2)ccc1[O-]

> <Energy>
98.19649746050996

> <Genealogy>
O=C(Cn1c([O-])c2c(c1[O-])CC=CC2)[N-]c1cc(S(=O)(=O)N2CCOCC2)ccc1[O-] (protonated)
O=C(Cn1c([O-])c2c(c1[O-])CC=CC2)[N-]c1cc(S(=O)(=O)N2CCOCC2)ccc1[O-] (3D coordinates assigned)
O=C(Cn1c([O-])c2c(c1[O-])CC=CC2)[N-]c1cc(S(=O)(=O)N2CCOCC2)ccc1[O-] (nonaromatic ring conformer: 98.19649746050996 kcal/mol)

> <smiles>
O=C(Cn1c(O)c2c(c1O)CC=CC2)Nc1cc(S(=O)(=O)N2CCOCC2)ccc1O

> <score_type>
oracle

> <origin>
adg

> <m_score__min__energy>
-16.59

> <m_primary>
energy

> <minimizedAffinity>
-8.70830

> <minimizedRMSD>
0.86393

> <CNNscore>
0.4409665763

> <CNNaffinity>
6.5683693886

> <CNN_VS>
2.8964314461

> <CNNaffinity_variance>
0.0046627838

$$$$
88:0


 32 35  0  0  0  0  0  0  0  0999 V2000
   60.3401   29.8962   47.6800 C   0  0  0  0  0  0  0  0  0  0  0  0
   59.5189   30.5209   46.8191 C   0  0  0  0  0  0  0  0  0  0  0  0
   59.0015   29.9929   45.6225 C   0  0  0  0  0  0  0  0  0  0  0  0
   59.0453   28.7474   45.1053 C   0  0  0  0  0  0  0  0  0  0  0  0
   58.3570   31.0363   44.9852 C   0  0  0  0  0  0  0  0  0  0  0  0
   58.4424   32.1308   45.8161 C   0  0  0  0  0  0  0  0  0  0  0  0
   57.8990   33.4861   45.4749 C   0  0  0  0  0  0  0  0  0  0  0  0
   59.1462   31.8268   46.9342 N   0  0  0  0  0  0  0  0  0  0  0  0
   58.5085   27.5290   45.7406 C   0  0  0  0  0  0  0  0  0  0  0  0
   57.1267   27.2694   45.7697 C   0  0  0  0  0  0  0  0  0  0  0  0
   56.2243   28.1823   45.2292 O   0  0  0  0  0  0  0  0  0  0  0  0
   56.6662   26.1176   46.3261 N   0  0  0  0  0  0  0  0  0  0  0  0
   57.5211   25.1967   46.8402 C   0  0  0  0  0  0  0  0  0  0  0  0
   57.0723   24.1396   47.3520 O   0  0  0  0  0  0  0  0  0  0  0  0
   58.8602   25.4127   46.7966 N   0  0  0  0  0  0  0  0  0  0  0  0
   59.3718   26.5482   46.2537 C   0  0  0  0  0  0  0  0  0  0  0  0
   60.6209   26.7135   46.2238 O   0  0  0  0  0  0  0  0  0  0  0  0
   56.5363   28.9777   44.8445 H   0  0  0  0  0  0  0  0  0  0  0  0
   59.4890   32.7818   48.0028 C   0  0  0  0  0  0  0  0  0  0  0  0
   60.9736   33.0468   48.0268 C   0  0  0  0  0  0  0  0  0  0  0  0
   61.6431   33.4077   46.8524 C   0  0  0  0  0  0  0  0  0  0  0  0
   63.0081   33.6782   46.8788 C   0  0  0  0  0  0  0  0  0  0  0  0
   63.7226   33.5926   48.0741 C   0  0  0  0  0  0  0  0  0  0  0  0
   63.0831   33.2239   49.2833 C   0  0  0  0  0  0  0  0  0  0  0  0
   61.6940   32.9519   49.2301 C   0  0  0  0  0  0  0  0  0  0  0  0
   63.8275   33.1445   50.5417 N   0  0  0  0  0  0  0  0  0  0  0  0
   65.2734   32.8358   50.4954 C   0  0  0  0  0  0  0  0  0  0  0  0
   65.9519   32.7004   51.8660 C   0  0  0  0  0  0  0  0  0  0  0  0
   65.4103   33.6227   52.8701 N   0  0  0  0  0  0  0  0  0  0  0  0
   65.6870   35.0362   52.5610 C   0  0  0  0  0  0  0  0  0  0  0  0
   63.9842   33.3512   53.0721 C   0  0  0  0  0  0  0  0  0  0  0  0
   63.1478   33.5316   51.7989 C   0  0  0  0  0  0  0  0  0  0  0  0
  1  2  2  0
  2  3  1  0
  3  4  2  0
  4  9  1  0
  9 10  2  0
 10 11  1  0
 10 12  1  0
 12 13  1  0
 13 14  2  0
 13 15  1  0
 15 16  1  0
 16 17  2  0
  3  5  1  0
  5  6  2  0
  6  7  1  0
  6  8  1  0
  8 19  1  0
 19 20  1  0
 20 21  2  0
 21 22  1  0
 22 23  2  0
 23 24  1  0
 24 26  1  0
 26 27  1  0
 27 28  1  0
 28 29  1  0
 29 30  1  0
 29 31  1  0
 31 32  1  0
 24 25  2  0
  8  2  1  0
 25 20  1  0
 16  9  1  0
 32 26  1  0
 11 18  1  0
M  CHG 1  12  -1
M  CHG 1  15  -1
M  END
> <UniqueID>
87

> <SMILES>
C=c1c(=Cc2c(O)[n-]c(=O)[n-]c2=O)cc(C)n1Cc1cccc(N2CCN(C)CC2)c1

> <Energy>
111.64023442743762

> <Genealogy>
C=c1c(=Cc2c(O)[n-]c(=O)[n-]c2=O)cc(C)n1Cc1cccc(N2CCN(C)CC2)c1 (protonated)
C=c1c(=Cc2c(O)[n-]c(=O)[n-]c2=O)cc(C)n1Cc1cccc(N2CCN(C)CC2)c1 (3D coordinates assigned)
C=c1c(=Cc2c(O)[n-]c(=O)[n-]c2=O)cc(C)n1Cc1cccc(N2CCN(C)CC2)c1 (nonaromatic ring conformer: 111.64023442743762 kcal/mol)

> <smiles>
C=c1c(=Cc2c(O)[nH]c(=O)[nH]c2=O)cc(C)n1Cc1cccc(N2CCN(C)CC2)c1

> <score_type>
oracle

> <origin>
adg

> <m_score__min__energy>
-14.039999999999999

> <m_primary>
energy

> <minimizedAffinity>
-9.30226

> <minimizedRMSD>
1.44981

> <CNNscore>
0.8242065310

> <CNNaffinity>
7.1818804741

> <CNN_VS>
5.9193530083

> <CNNaffinity_variance>
0.0828653947

$$$$
11:0


 27 29  0  0  0  0  0  0  0  0999 V2000
   60.2399   26.5499   46.8231 C   0  0  0  0  0  0  0  0  0  0  0  0
   59.0007   26.9253   46.4656 C   0  0  0  0  0  0  0  0  0  0  0  0
   58.6314   28.0807   45.7481 C   0  0  0  0  0  0  0  0  0  0  0  0
   59.3536   29.1466   45.3490 C   0  0  0  0  0  0  0  0  0  0  0  0
   57.2738   27.9650   45.4960 C   0  0  0  0  0  0  0  0  0  0  0  0
   56.8676   26.7940   46.0874 C   0  0  0  0  0  0  0  0  0  0  0  0
   55.5629   26.3155   46.0719 O   0  0  0  0  0  0  0  0  0  0  0  0
   57.8976   26.1604   46.6839 N   0  0  0  0  0  0  0  0  0  0  0  0
   59.2690   30.5054   45.9206 C   0  0  0  0  0  0  0  0  0  0  0  0
   58.4267   31.4551   45.3415 C   0  0  0  0  0  0  0  0  0  0  0  0
   57.6785   31.1083   44.2168 O   0  0  0  0  0  0  0  0  0  0  0  0
   58.3452   32.7173   45.8644 N   0  0  0  0  0  0  0  0  0  0  0  0
   57.4581   33.7082   45.2337 C   0  0  0  0  0  0  0  0  0  0  0  0
   59.0337   33.0321   47.0089 C   0  0  0  0  0  0  0  0  0  0  0  0
   58.9360   34.1945   47.4988 O   0  0  0  0  0  0  0  0  0  0  0  0
   59.8240   32.0968   47.6314 N   0  0  0  0  0  0  0  0  0  0  0  0
   60.5821   32.4616   48.8418 C   0  0  0  0  0  0  0  0  0  0  0  0
   59.9627   30.8477   47.0883 C   0  0  0  0  0  0  0  0  0  0  0  0
   60.7136   29.9923   47.6372 O   0  0  0  0  0  0  0  0  0  0  0  0
   57.8160   24.8533   47.3483 C   0  0  0  0  0  0  0  0  0  0  0  0
   57.4236   23.7801   46.3644 C   0  0  0  0  0  0  0  0  0  0  0  0
   58.2598   23.4619   45.2805 C   0  0  0  0  0  0  0  0  0  0  0  0
   57.8876   22.4672   44.3708 C   0  0  0  0  0  0  0  0  0  0  0  0
   56.6829   21.7779   44.5382 C   0  0  0  0  0  0  0  0  0  0  0  0
   56.3154   20.7902   43.6328 O   0  0  0  0  0  0  0  0  0  0  0  0
   55.8507   22.0811   45.6195 C   0  0  0  0  0  0  0  0  0  0  0  0
   56.2180   23.0751   46.5307 C   0  0  0  0  0  0  0  0  0  0  0  0
  1  2  2  0
  2  3  1  0
  3  4  2  0
  4  9  1  0
  9 10  2  0
 10 11  1  0
 10 12  1  0
 12 13  1  0
 12 14  1  0
 14 15  2  0
 14 16  1  0
 16 17  1  0
 16 18  1  0
 18 19  2  0
  3  5  1  0
  5  6  2  0
  6  7  1  0
  6  8  1  0
  8 20  1  0
 20 21  1  0
 21 22  2  0
 22 23  1  0
 23 24  2  0
 24 25  1  0
 24 26  1  0
 26 27  2  0
  8  2  1  0
 27 21  1  0
 18  9  1  0
M  CHG 1   7  -1
M  CHG 1  11  -1
M  CHG 1  25  -1
M  END
> <UniqueID>
11

> <SMILES>
C=c1/c(=C\c2c([O-])n(C)c(=O)n(C)c2=O)cc([O-])n1Cc1ccc([O-])cc1

> <Energy>
94.91662334078308

> <Genealogy>
C=c1c(=Cc2c([O-])n(C)c(=O)n(C)c2=O)cc([O-])n1Cc1ccc([O-])cc1 (protonated)
C=c1/c(=C\c2c([O-])n(C)c(=O)n(C)c2=O)cc([O-])n1Cc1ccc([O-])cc1 (cis-trans isomerization)
C=c1/c(=C\c2c([O-])n(C)c(=O)n(C)c2=O)cc([O-])n1Cc1ccc([O-])cc1 (3D coordinates assigned)
C=c1/c(=C\c2c([O-])n(C)c(=O)n(C)c2=O)cc([O-])n1Cc1ccc([O-])cc1 (optimized conformer: 94.91662334078308 kcal/mol)

> <smiles>
C=c1c(=Cc2c(O)n(C)c(=O)n(C)c2=O)cc(O)n1Cc1ccc(O)cc1

> <score_type>
oracle

> <origin>
adg

> <m_score__min__energy>
-14.539999999999999

> <m_primary>
energy

> <minimizedAffinity>
-8.63775

> <minimizedRMSD>
0.72618

> <CNNscore>
0.3379152417

> <CNNaffinity>
6.3879466057

> <CNN_VS>
2.1585845947

> <CNNaffinity_variance>
0.0373287164

$$$$
24:0


 34 37  0  0  0  0  0  0  0  0999 V2000
   57.0081   27.9029   46.0305 C   0  0  0  0  0  0  0  0  0  0  0  0
   58.0811   27.0960   46.0405 C   0  0  0  0  0  0  0  0  0  0  0  0
   58.2057   25.8699   45.3798 C   0  0  0  0  0  0  0  0  0  0  0  0
   57.2922   25.2689   44.5918 C   0  0  0  0  0  0  0  0  0  0  0  0
   59.4876   25.4067   45.6511 C   0  0  0  0  0  0  0  0  0  0  0  0
   60.0818   26.3479   46.4673 C   0  0  0  0  0  0  0  0  0  0  0  0
   61.4804   26.2563   46.9969 C   0  0  0  0  0  0  0  0  0  0  0  0
   59.2344   27.3744   46.6978 N   0  0  0  0  0  0  0  0  0  0  0  0
   56.4139   24.1730   45.0577 C   0  0  0  0  0  0  0  0  0  0  0  0
   55.2343   24.4656   45.7574 C   0  0  0  0  0  0  0  0  0  0  0  0
   54.8707   25.7838   46.0105 O   0  0  0  0  0  0  0  0  0  0  0  0
   54.4322   23.4567   46.1851 N   0  0  0  0  0  0  0  0  0  0  0  0
   54.7582   22.1577   45.9647 C   0  0  0  0  0  0  0  0  0  0  0  0
   53.9939   21.2404   46.3625 O   0  0  0  0  0  0  0  0  0  0  0  0
   55.9102   21.8474   45.3191 N   0  0  0  0  0  0  0  0  0  0  0  0
   56.7483   22.8190   44.8726 C   0  0  0  0  0  0  0  0  0  0  0  0
   57.8271   22.4913   44.3110 O   0  0  0  0  0  0  0  0  0  0  0  0
   59.5180   28.5313   47.5021 C   0  0  0  0  0  0  0  0  0  0  0  0
   59.5240   28.4322   48.9000 C   0  0  0  0  0  0  0  0  0  0  0  0
   59.7977   29.5594   49.6801 C   0  0  0  0  0  0  0  0  0  0  0  0
   60.0449   30.7915   49.0696 C   0  0  0  0  0  0  0  0  0  0  0  0
   60.0101   30.9059   47.6724 C   0  0  0  0  0  0  0  0  0  0  0  0
   59.7627   29.7686   46.8912 C   0  0  0  0  0  0  0  0  0  0  0  0
   60.2342   32.2130   47.0354 C   0  0  0  0  0  0  0  0  0  0  0  0
   61.4261   32.5840   46.8416 O   0  0  0  0  0  0  0  0  0  0  0  0
   59.1367   33.0781   46.6553 N   0  0  0  0  0  0  0  0  0  0  0  0
   58.0711   33.3305   47.6362 C   0  0  0  0  0  0  0  0  0  0  0  0
   58.9370   33.5144   45.2616 C   0  0  0  0  0  0  0  0  0  0  0  0
   58.1560   32.4971   44.4611 C   0  0  0  0  0  0  0  0  0  0  0  0
   57.4492   31.4772   45.1224 C   0  0  0  0  0  0  0  0  0  0  0  0
   56.7447   30.5153   44.3923 C   0  0  0  0  0  0  0  0  0  0  0  0
   56.7455   30.5567   42.9954 C   0  0  0  0  0  0  0  0  0  0  0  0
   57.4616   31.5521   42.3272 C   0  0  0  0  0  0  0  0  0  0  0  0
   58.1719   32.5148   43.0553 C   0  0  0  0  0  0  0  0  0  0  0  0
  1  2  2  0
  2  3  1  0
  3  4  2  0
  4  9  1  0
  9 10  2  0
 10 11  1  0
 10 12  1  0
 12 13  1  0
 13 14  2  0
 13 15  1  0
 15 16  1  0
 16 17  2  0
  3  5  1  0
  5  6  2  0
  6  7  1  0
  6  8  1  0
  8 18  1  0
 18 19  2  0
 19 20  1  0
 20 21  2  0
 21 22  1  0
 22 24  1  0
 24 25  2  0
 24 26  1  0
 26 27  1  0
 26 28  1  0
 28 29  1  0
 29 30  2  0
 30 31  1  0
 31 32  2  0
 32 33  1  0
 33 34  2  0
 22 23  2  0
  8  2  1  0
 23 18  1  0
 16  9  1  0
 34 29  1  0
M  CHG 1  11  -1
M  CHG 1  12  -1
M  CHG 1  15  -1
M  END
> <UniqueID>
23

> <SMILES>
C=c1/c(=C/c2c([O-])[n-]c(=O)[n-]c2=O)cc(C)n1-c1cccc(C(=O)N(C)Cc2ccccc2)c1

> <Energy>
109.8054196472294

> <Genealogy>
C=c1c(=Cc2c([O-])[n-]c(=O)[n-]c2=O)cc(C)n1-c1cccc(C(=O)N(C)Cc2ccccc2)c1 (protonated)
C=c1/c(=C/c2c([O-])[n-]c(=O)[n-]c2=O)cc(C)n1-c1cccc(C(=O)N(C)Cc2ccccc2)c1 (cis-trans isomerization)
C=c1/c(=C/c2c([O-])[n-]c(=O)[n-]c2=O)cc(C)n1-c1cccc(C(=O)N(C)Cc2ccccc2)c1 (3D coordinates assigned)
C=c1/c(=C/c2c([O-])[n-]c(=O)[n-]c2=O)cc(C)n1-c1cccc(C(=O)N(C)Cc2ccccc2)c1 (optimized conformer: 109.8054196472294 kcal/mol)

> <smiles>
C=c1c(=Cc2c(O)[nH]c(=O)[nH]c2=O)cc(C)n1-c1cccc(C(=O)N(C)Cc2ccccc2)c1

> <score_type>
oracle

> <origin>
adg

> <m_score__min__energy>
-16.989999999999998

> <m_primary>
energy

> <minimizedAffinity>
-6.23354

> <minimizedRMSD>
1.03616

> <CNNscore>
0.0759820491

> <CNNaffinity>
6.0272789001

> <CNN_VS>
0.4579649866

> <CNNaffinity_variance>
0.2672474384

$$$$
32:0


 35 38  0  0  0  0  0  0  0  0999 V2000
   56.6580   29.0375   44.6727 C   0  0  0  0  0  0  0  0  0  0  0  0
   57.9075   28.7877   45.0911 C   0  0  0  0  0  0  0  0  0  0  0  0
   58.5583   27.5496   45.0867 C   0  0  0  0  0  0  0  0  0  0  0  0
   58.0534   26.3617   44.7039 C   0  0  0  0  0  0  0  0  0  0  0  0
   59.8375   27.7771   45.5769 C   0  0  0  0  0  0  0  0  0  0  0  0
   59.9153   29.1249   45.8675 C   0  0  0  0  0  0  0  0  0  0  0  0
   61.1633   29.8292   46.2966 C   0  0  0  0  0  0  0  0  0  0  0  0
   58.7459   29.7361   45.5771 N   0  0  0  0  0  0  0  0  0  0  0  0
   57.5203   25.3628   45.6582 C   0  0  0  0  0  0  0  0  0  0  0  0
   56.2329   25.5090   46.2120 C   0  0  0  0  0  0  0  0  0  0  0  0
   55.4276   26.6126   45.9271 O   0  0  0  0  0  0  0  0  0  0  0  0
   55.7568   24.5591   47.0598 N   0  0  0  0  0  0  0  0  0  0  0  0
   56.4924   23.4649   47.3810 C   0  0  0  0  0  0  0  0  0  0  0  0
   56.0268   22.6059   48.1733 O   0  0  0  0  0  0  0  0  0  0  0  0
   57.7280   23.2960   46.8478 N   0  0  0  0  0  0  0  0  0  0  0  0
   58.2529   24.2094   45.9916 C   0  0  0  0  0  0  0  0  0  0  0  0
   59.3923   24.0027   45.4933 O   0  0  0  0  0  0  0  0  0  0  0  0
   55.7355   27.2796   45.3455 H   0  0  0  0  0  0  0  0  0  0  0  0
   58.4851   31.1453   45.6899 C   0  0  0  0  0  0  0  0  0  0  0  0
   58.2514   31.8842   44.5219 C   0  0  0  0  0  0  0  0  0  0  0  0
   58.0043   33.2549   44.5901 C   0  0  0  0  0  0  0  0  0  0  0  0
   57.9828   33.8998   45.8274 C   0  0  0  0  0  0  0  0  0  0  0  0
   58.2176   33.1768   46.9981 C   0  0  0  0  0  0  0  0  0  0  0  0
   58.4904   31.7971   46.9483 C   0  0  0  0  0  0  0  0  0  0  0  0
   58.7165   31.0556   48.2140 C   0  0  0  0  0  0  0  0  0  0  0  0
   58.5671   29.8050   48.2333 O   0  0  0  0  0  0  0  0  0  0  0  0
   59.0526   31.7373   49.4383 N   0  0  0  0  0  0  0  0  0  0  0  0
   58.7259   31.0878   50.7108 C   0  0  0  0  0  0  0  0  0  0  0  0
   59.8086   33.0022   49.4231 C   0  0  0  0  0  0  0  0  0  0  0  0
   61.2103   32.8113   48.8965 C   0  0  0  0  0  0  0  0  0  0  0  0
   62.1714   32.0852   49.6247 C   0  0  0  0  0  0  0  0  0  0  0  0
   63.4785   31.9645   49.1453 C   0  0  0  0  0  0  0  0  0  0  0  0
   63.8482   32.5894   47.9519 C   0  0  0  0  0  0  0  0  0  0  0  0
   62.9098   33.3369   47.2366 C   0  0  0  0  0  0  0  0  0  0  0  0
   61.5978   33.4548   47.7092 C   0  0  0  0  0  0  0  0  0  0  0  0
  1  2  2  0
  2  3  1  0
  3  4  2  0
  4  9  1  0
  9 10  2  0
 10 11  1  0
 10 12  1  0
 12 13  1  0
 13 14  2  0
 13 15  1  0
 15 16  1  0
 16 17  2  0
  3  5  1  0
  5  6  2  0
  6  7  1  0
  6  8  1  0
  8 19  1  0
 19 20  2  0
 20 21  1  0
 21 22  2  0
 22 23  1  0
 23 24  2  0
 24 25  1  0
 25 26  2  0
 25 27  1  0
 27 28  1  0
 27 29  1  0
 29 30  1  0
 30 31  2  0
 31 32  1  0
 32 33  2  0
 33 34  1  0
 34 35  2  0
  8  2  1  0
 24 19  1  0
 35 30  1  0
 16  9  1  0
 11 18  1  0
M  CHG 1  12  -1
M  CHG 1  15  -1
M  END
> <UniqueID>
31

> <SMILES>
C=c1c(=Cc2c(O)[n-]c(=O)[n-]c2=O)cc(C)n1-c1ccccc1C(=O)N(C)Cc1ccccc1

> <Energy>
108.6728667209217

> <Genealogy>
C=c1c(=Cc2c(O)[n-]c(=O)[n-]c2=O)cc(C)n1-c1ccccc1C(=O)N(C)Cc1ccccc1 (protonated)
C=c1c(=Cc2c(O)[n-]c(=O)[n-]c2=O)cc(C)n1-c1ccccc1C(=O)N(C)Cc1ccccc1 (3D coordinates assigned)
C=c1c(=Cc2c(O)[n-]c(=O)[n-]c2=O)cc(C)n1-c1ccccc1C(=O)N(C)Cc1ccccc1 (optimized conformer: 108.6728667209217 kcal/mol)

> <smiles>
C=c1c(=Cc2c(O)[nH]c(=O)[nH]c2=O)cc(C)n1-c1ccccc1C(=O)N(C)Cc1ccccc1

> <score_type>
oracle

> <origin>
adg

> <m_score__min__energy>
-14.890000000000001

> <m_primary>
energy

> <minimizedAffinity>
-9.40985

> <minimizedRMSD>
0.50946

> <CNNscore>
0.8534378409

> <CNNaffinity>
7.3841958046

> <CNN_VS>
6.3019523621

> <CNNaffinity_variance>
0.0931222811

$$$$
42:0


 31 34  0  0  0  0  0  0  0  0999 V2000
   59.9554   27.4665   47.1992 C   0  0  0  0  0  0  0  0  0  0  0  0
   59.2038   28.0906   46.2750 C   0  0  0  0  0  0  0  0  0  0  0  0
   58.5190   27.4980   45.2013 C   0  0  0  0  0  0  0  0  0  0  0  0
   58.2374   26.2065   44.9403 C   0  0  0  0  0  0  0  0  0  0  0  0
   58.0943   28.5389   44.3913 C   0  0  0  0  0  0  0  0  0  0  0  0
   58.4482   29.7097   45.0273 C   0  0  0  0  0  0  0  0  0  0  0  0
   58.1202   31.0815   44.5212 C   0  0  0  0  0  0  0  0  0  0  0  0
   59.1215   29.4403   46.1704 N   0  0  0  0  0  0  0  0  0  0  0  0
   57.5087   25.2873   45.8317 C   0  0  0  0  0  0  0  0  0  0  0  0
   57.9973   24.0968   46.2191 N   0  0  0  0  0  0  0  0  0  0  0  0
   56.9883   23.5596   46.9387 C   0  0  0  0  0  0  0  0  0  0  0  0
   57.0739   22.4313   47.4880 O   0  0  0  0  0  0  0  0  0  0  0  0
   55.8778   24.3213   47.0115 N   0  0  0  0  0  0  0  0  0  0  0  0
   56.2104   25.4055   46.2909 C   0  0  0  0  0  0  0  0  0  0  0  0
   55.3255   26.4503   46.0339 O   0  0  0  0  0  0  0  0  0  0  0  0
   54.4617   26.4325   46.3964 H   0  0  0  0  0  0  0  0  0  0  0  0
   59.5796   30.4123   47.1303 C   0  0  0  0  0  0  0  0  0  0  0  0
   58.6702   31.0785   47.9641 C   0  0  0  0  0  0  0  0  0  0  0  0
   59.1302   31.9982   48.9108 C   0  0  0  0  0  0  0  0  0  0  0  0
   60.4991   32.2664   49.0220 C   0  0  0  0  0  0  0  0  0  0  0  0
   61.4181   31.6192   48.1800 C   0  0  0  0  0  0  0  0  0  0  0  0
   60.9509   30.6784   47.2512 C   0  0  0  0  0  0  0  0  0  0  0  0
   62.8665   31.8954   48.2939 C   0  0  0  0  0  0  0  0  0  0  0  0
   63.5422   32.0734   47.2410 O   0  0  0  0  0  0  0  0  0  0  0  0
   63.5167   31.9770   49.5769 N   0  0  0  0  0  0  0  0  0  0  0  0
   64.6051   32.9383   49.7721 C   0  0  0  0  0  0  0  0  0  0  0  0
   64.9737   33.0372   51.2550 C   0  0  0  0  0  0  0  0  0  0  0  0
   65.3091   31.7055   51.8043 N   0  0  0  0  0  0  0  0  0  0  0  0
   65.5250   31.7976   53.2589 C   0  0  0  0  0  0  0  0  0  0  0  0
   64.3369   30.6283   51.4676 C   0  0  0  0  0  0  0  0  0  0  0  0
   63.1028   31.1167   50.6904 C   0  0  0  0  0  0  0  0  0  0  0  0
  1  2  2  0
  2  3  1  0
  3  4  2  0
  4  9  1  0
  9 10  1  0
 10 11  1  0
 11 12  2  0
 11 13  1  0
 13 14  1  0
 14 15  1  0
  3  5  1  0
  5  6  2  0
  6  7  1  0
  6  8  1  0
  8 17  1  0
 17 18  2  0
 18 19  1  0
 19 20  2  0
 20 21  1  0
 21 23  1  0
 23 24  2  0
 23 25  1  0
 25 26  1  0
 26 27  1  0
 27 28  1  0
 28 29  1  0
 28 30  1  0
 30 31  1  0
 21 22  2  0
  8  2  1  0
 22 17  1  0
 14  9  2  0
 31 25  1  0
 15 16  1  0
M  CHG 1  10  -1
M  CHG 1  13  -1
M  END
> <UniqueID>
40

> <SMILES>
C=c1c(=Cc2[n-]c(=O)[n-]c2O)cc(C)n1-c1cccc(C(=O)N2CCN(C)CC2)c1

> <Energy>
140.57870126641276

> <Genealogy>
C=c1c(=Cc2[n-]c(=O)[n-]c2O)cc(C)n1-c1cccc(C(=O)N2CCN(C)CC2)c1 (protonated)
C=c1c(=Cc2[n-]c(=O)[n-]c2O)cc(C)n1-c1cccc(C(=O)N2CCN(C)CC2)c1 (3D coordinates assigned)
C=c1c(=Cc2[n-]c(=O)[n-]c2O)cc(C)n1-c1cccc(C(=O)N2CCN(C)CC2)c1 (nonaromatic ring conformer: 140.57870126641276 kcal/mol)

> <smiles>
C=c1c(=Cc2[nH]c(=O)[nH]c2O)cc(C)n1-c1cccc(C(=O)N2CCN(C)CC2)c1

> <score_type>
oracle

> <origin>
adg

> <m_score__min__energy>
-14.76

> <m_primary>
energy

> <minimizedAffinity>
-9.46913

> <minimizedRMSD>
1.24245

> <CNNscore>
0.3539057672

> <CNNaffinity>
6.8496799469

> <CNN_VS>
2.4241411686

> <CNNaffinity_variance>
0.1621466577

$$$$
54:0


 25 27  0  0  0  0  0  0  0  0999 V2000
   59.0674   27.8919   47.5996 C   0  0  0  0  0  0  0  0  0  0  0  0
   58.6214   28.5547   46.5189 C   0  0  0  0  0  0  0  0  0  0  0  0
   58.3146   27.9972   45.2662 C   0  0  0  0  0  0  0  0  0  0  0  0
   58.1978   26.7135   44.8705 C   0  0  0  0  0  0  0  0  0  0  0  0
   58.0899   29.0593   44.4106 C   0  0  0  0  0  0  0  0  0  0  0  0
   58.1976   30.2087   45.1641 C   0  0  0  0  0  0  0  0  0  0  0  0
   57.9499   31.5894   44.6344 C   0  0  0  0  0  0  0  0  0  0  0  0
   58.5189   29.9115   46.4460 N   0  0  0  0  0  0  0  0  0  0  0  0
   57.6199   25.6187   45.6645 C   0  0  0  0  0  0  0  0  0  0  0  0
   58.2281   24.4347   45.8522 N   0  0  0  0  0  0  0  0  0  0  0  0
   57.3003   23.7082   46.5135 C   0  0  0  0  0  0  0  0  0  0  0  0
   57.5077   22.5244   46.8876 O   0  0  0  0  0  0  0  0  0  0  0  0
   56.1295   24.3458   46.7316 N   0  0  0  0  0  0  0  0  0  0  0  0
   56.3433   25.5484   46.1743 C   0  0  0  0  0  0  0  0  0  0  0  0
   55.3807   26.5493   46.1081 O   0  0  0  0  0  0  0  0  0  0  0  0
   58.6819   30.9033   47.5244 C   0  0  0  0  0  0  0  0  0  0  0  0
   60.0277   31.5884   47.4190 C   0  0  0  0  0  0  0  0  0  0  0  0
   61.1943   30.8169   47.5657 C   0  0  0  0  0  0  0  0  0  0  0  0
   62.4561   31.4070   47.4805 C   0  0  0  0  0  0  0  0  0  0  0  0
   62.5755   32.7794   47.2385 C   0  0  0  0  0  0  0  0  0  0  0  0
   63.8296   33.3797   47.1528 O   0  0  0  0  0  0  0  0  0  0  0  0
   61.4255   33.5563   47.0771 C   0  0  0  0  0  0  0  0  0  0  0  0
   60.1540   32.9746   47.1595 C   0  0  0  0  0  0  0  0  0  0  0  0
   58.7602   34.0261   46.9205 Cl  0  0  0  0  0  0  0  0  0  0  0  0
   64.6043   32.8637   47.2602 H   0  0  0  0  0  0  0  0  0  0  0  0
  1  2  2  0
  2  3  1  0
  3  4  2  0
  4  9  1  0
  9 10  1  0
 10 11  1  0
 11 12  2  0
 11 13  1  0
 13 14  1  0
 14 15  1  0
  3  5  1  0
  5  6  2  0
  6  7  1  0
  6  8  1  0
  8 16  1  0
 16 17  1  0
 17 18  2  0
 18 19  1  0
 19 20  2  0
 20 21  1  0
 20 22  1  0
 22 23  2  0
 23 24  1  0
  8  2  1  0
 23 17  1  0
 14  9  2  0
 21 25  1  0
M  CHG 1  10  -1
M  CHG 1  13  -1
M  CHG 1  15  -1
M  END
> <UniqueID>
51

> <SMILES>
C=c1c(=Cc2[n-]c(=O)[n-]c2[O-])cc(C)n1Cc1ccc(O)cc1Cl

> <Energy>
110.45769134359887

> <Genealogy>
C=c1c(=Cc2[n-]c(=O)[n-]c2[O-])cc(C)n1Cc1ccc(O)cc1Cl (protonated)
C=c1c(=Cc2[n-]c(=O)[n-]c2[O-])cc(C)n1Cc1ccc(O)cc1Cl (3D coordinates assigned)
C=c1c(=Cc2[n-]c(=O)[n-]c2[O-])cc(C)n1Cc1ccc(O)cc1Cl (optimized conformer: 110.45769134359887 kcal/mol)

> <smiles>
C=c1c(=Cc2[nH]c(=O)[nH]c2O)cc(C)n1Cc1ccc(O)cc1Cl

> <score_type>
oracle

> <origin>
adg

> <m_score__min__energy>
-15.609999999999999

> <m_primary>
energy

> <minimizedAffinity>
-8.50205

> <minimizedRMSD>
0.69158

> <CNNscore>
0.3028578758

> <CNNaffinity>
6.6793365479

> <CNN_VS>
2.0228896141

> <CNNaffinity_variance>
0.1521308571

$$$$
7:0


 30 33  0  0  0  0  0  0  0  0999 V2000
   58.4621   26.9967   46.6997 C   0  0  0  0  0  0  0  0  0  0  0  0
   57.6249   27.8014   45.9063 C   0  0  0  0  0  0  0  0  0  0  0  0
   56.4955   27.2365   45.3126 O   0  0  0  0  0  0  0  0  0  0  0  0
   57.9025   29.1346   45.7337 N   0  0  0  0  0  0  0  0  0  0  0  0
   57.0963   29.9111   44.9427 C   0  0  0  0  0  0  0  0  0  0  0  0
   57.3690   31.2659   44.7608 C   0  0  0  0  0  0  0  0  0  0  0  0
   58.4681   31.8385   45.3908 C   0  0  0  0  0  0  0  0  0  0  0  0
   59.2995   31.0521   46.2024 C   0  0  0  0  0  0  0  0  0  0  0  0
   58.9935   29.6912   46.3643 C   0  0  0  0  0  0  0  0  0  0  0  0
   59.7910   28.9249   47.1505 N   0  0  0  0  0  0  0  0  0  0  0  0
   59.5542   27.6052   47.3347 C   0  0  0  0  0  0  0  0  0  0  0  0
   60.3337   26.9361   48.0639 O   0  0  0  0  0  0  0  0  0  0  0  0
   57.4239   25.1628   47.7850 O   0  0  0  0  0  0  0  0  0  0  0  0
   58.1978   25.5446   46.8683 C   0  0  0  0  0  0  0  0  0  0  0  0
   58.7633   24.5621   45.9895 N   0  0  0  0  0  0  0  0  0  0  0  0
   58.0371   23.6556   45.1466 C   0  0  0  0  0  0  0  0  0  0  0  0
   58.6383   22.4439   44.7802 C   0  0  0  0  0  0  0  0  0  0  0  0
   57.9623   21.5408   43.9551 C   0  0  0  0  0  0  0  0  0  0  0  0
   56.6868   21.8491   43.4758 C   0  0  0  0  0  0  0  0  0  0  0  0
   56.0888   23.0671   43.8139 C   0  0  0  0  0  0  0  0  0  0  0  0
   54.8267   23.3804   43.3250 O   0  0  0  0  0  0  0  0  0  0  0  0
   56.7638   23.9729   44.6399 C   0  0  0  0  0  0  0  0  0  0  0  0
   60.4267   31.5767   46.8601 O   0  0  0  0  0  0  0  0  0  0  0  0
   61.1860   30.9002   47.8618 C   0  0  0  0  0  0  0  0  0  0  0  0
   61.2411   31.7133   49.1232 C   0  0  0  0  0  0  0  0  0  0  0  0
   60.6308   31.2570   50.2997 C   0  0  0  0  0  0  0  0  0  0  0  0
   60.7152   32.0318   51.4599 C   0  0  0  0  0  0  0  0  0  0  0  0
   61.4107   33.2418   51.4388 C   0  0  0  0  0  0  0  0  0  0  0  0
   62.0183   33.6590   50.2523 C   0  0  0  0  0  0  0  0  0  0  0  0
   61.9242   32.8921   49.1325 N   0  0  0  0  0  0  0  0  0  0  0  0
 13 14  2  0
 14 15  1  0
 15 16  1  0
 16 17  2  0
 17 18  1  0
 18 19  2  0
 19 20  1  0
 20 21  1  0
 20 22  2  0
 14  1  1  0
  1  2  2  0
  2  3  1  0
  2  4  1  0
  4  5  1  0
  5  6  2  0
  6  7  1  0
  7  8  2  0
  8 23  1  0
 23 24  1  0
 24 25  1  0
 25 26  2  0
 26 27  1  0
 27 28  2  0
 28 29  1  0
 29 30  2  0
  8  9  1  0
  9 10  2  0
 10 11  1  0
 11 12  2  0
 22 16  1  0
 11  1  1  0
  9  4  1  0
 30 25  1  0
M  CHG 1   3  -1
M  CHG 1  15  -1
M  CHG 1  21  -1
M  END
> <UniqueID>
8

> <SMILES>
O=C([N-]c1cccc([O-])c1)c1c([O-])n2cccc(OCc3ccccn3)c2nc1=O

> <Energy>
63.282459420646546

> <Genealogy>
O=C([N-]c1cccc([O-])c1)c1c([O-])n2cccc(OCc3ccccn3)c2nc1=O (protonated)
O=C([N-]c1cccc([O-])c1)c1c([O-])n2cccc(OCc3ccccn3)c2nc1=O (3D coordinates assigned)
O=C([N-]c1cccc([O-])c1)c1c([O-])n2cccc(OCc3ccccn3)c2nc1=O (optimized conformer: 63.282459420646546 kcal/mol)

> <smiles>
O=C(Nc1cccc(O)c1)c1c(O)n2cccc(OCc3ccccn3)c2nc1=O

> <score_type>
oracle

> <origin>
adg

> <m_score__min__energy>
-14.81

> <m_primary>
energy

> <minimizedAffinity>
-7.33383

> <minimizedRMSD>
2.24885

> <CNNscore>
0.2335876524

> <CNNaffinity>
6.2089653015

> <CNN_VS>
1.4503376484

> <CNNaffinity_variance>
0.0254154801

$$$$
9:0


 28 30  0  0  0  0  0  0  0  0999 V2000
   57.6017   27.6038   45.9342 C   0  0  0  0  0  0  0  0  0  0  0  0
   59.0067   27.6647   45.8931 C   0  0  0  0  0  0  0  0  0  0  0  0
   59.7665   26.5129   46.1064 C   0  0  0  0  0  0  0  0  0  0  0  0
   59.1367   25.2927   46.3528 C   0  0  0  0  0  0  0  0  0  0  0  0
   57.7380   25.2110   46.3855 C   0  0  0  0  0  0  0  0  0  0  0  0
   56.9714   26.3693   46.1559 C   0  0  0  0  0  0  0  0  0  0  0  0
   55.5810   26.3007   46.1467 O   0  0  0  0  0  0  0  0  0  0  0  0
   56.9592   23.6521   46.6778 S   0  0  0  0  0  0  0  0  0  0  0  0
   56.8955   23.3929   48.1575 O   0  0  0  0  0  0  0  0  0  0  0  0
   55.5636   23.7098   46.1239 O   0  0  0  0  0  0  0  0  0  0  0  0
   57.8691   22.3769   45.8889 N   0  0  0  0  0  0  0  0  0  0  0  0
   57.3200   21.0378   46.1980 C   0  0  0  0  0  0  0  0  0  0  0  0
   56.4289   20.4842   45.0717 C   0  0  0  0  0  0  0  0  0  0  0  0
   55.7509   21.5366   44.4228 O   0  0  0  0  0  0  0  0  0  0  0  0
   56.6653   22.3315   43.6877 C   0  0  0  0  0  0  0  0  0  0  0  0
   57.9900   22.6100   44.4402 C   0  0  0  0  0  0  0  0  0  0  0  0
   56.7887   28.7621   45.6909 N   0  0  0  0  0  0  0  0  0  0  0  0
   55.9299   29.9448   43.8582 O   0  0  0  0  0  0  0  0  0  0  0  0
   56.9138   29.6821   44.6003 C   0  0  0  0  0  0  0  0  0  0  0  0
   58.2575   30.2527   44.2744 C   0  0  0  0  0  0  0  0  0  0  0  0
   58.5060   31.4860   45.0979 C   0  0  0  0  0  0  0  0  0  0  0  0
   58.0672   32.7401   44.6467 C   0  0  0  0  0  0  0  0  0  0  0  0
   58.2675   33.8819   45.4292 C   0  0  0  0  0  0  0  0  0  0  0  0
   58.8995   33.7778   46.6762 C   0  0  0  0  0  0  0  0  0  0  0  0
   59.1033   34.9072   47.4651 O   0  0  0  0  0  0  0  0  0  0  0  0
   59.3271   32.5286   47.1359 C   0  0  0  0  0  0  0  0  0  0  0  0
   59.1273   31.3847   46.3541 C   0  0  0  0  0  0  0  0  0  0  0  0
   58.8192   35.7474   47.1629 H   0  0  0  0  0  0  0  0  0  0  0  0
 18 19  2  0
 19 20  1  0
 20 21  1  0
 21 22  2  0
 22 23  1  0
 23 24  2  0
 24 25  1  0
 24 26  1  0
 26 27  2  0
 19 17  1  0
 17  1  1  0
  1  2  2  0
  2  3  1  0
  3  4  2  0
  4  5  1  0
  5  8  1  0
  8  9  2  0
  8 10  2  0
  8 11  1  0
 11 12  1  0
 12 13  1  0
 13 14  1  0
 14 15  1  0
 15 16  1  0
  5  6  2  0
  6  7  1  0
 27 21  1  0
  6  1  1  0
 16 11  1  0
 25 28  1  0
M  CHG 1   7  -1
M  CHG 1  17  -1
M  END
> <UniqueID>
10

> <SMILES>
O=C(Cc1ccc(O)cc1)[N-]c1cccc(S(=O)(=O)N2CCOCC2)c1[O-]

> <Energy>
59.727023348122025

> <Genealogy>
O=C(Cc1ccc(O)cc1)[N-]c1cccc(S(=O)(=O)N2CCOCC2)c1[O-] (protonated)
O=C(Cc1ccc(O)cc1)[N-]c1cccc(S(=O)(=O)N2CCOCC2)c1[O-] (3D coordinates assigned)
O=C(Cc1ccc(O)cc1)[N-]c1cccc(S(=O)(=O)N2CCOCC2)c1[O-] (nonaromatic ring conformer: 59.727023348122025 kcal/mol)

> <smiles>
O=C(Cc1ccc(O)cc1)Nc1cccc(S(=O)(=O)N2CCOCC2)c1O

> <score_type>
oracle

> <origin>
adg

> <m_score__min__energy>
-15.460000000000001

> <m_primary>
energy

> <minimizedAffinity>
-8.07883

> <minimizedRMSD>
0.75983

> <CNNscore>
0.6346929073

> <CNNaffinity>
6.4405345917

> <CNN_VS>
4.0877614021

> <CNNaffinity_variance>
0.2252964526

$$$$
31:0


 34 37  0  0  0  0  0  0  0  0999 V2000
   58.6138   31.9905   46.6554 O   0  0  0  0  0  0  0  0  0  0  0  0
   58.5161   30.8868   46.0528 C   0  0  0  0  0  0  0  0  0  0  0  0
   57.4228   30.6577   45.2882 N   0  0  0  0  0  0  0  0  0  0  0  0
   57.2454   29.5022   44.6060 C   0  0  0  0  0  0  0  0  0  0  0  0
   56.0816   29.3845   43.8397 O   0  0  0  0  0  0  0  0  0  0  0  0
   58.2279   28.4895   44.6905 C   0  0  0  0  0  0  0  0  0  0  0  0
   59.3654   28.7477   45.4854 C   0  0  0  0  0  0  0  0  0  0  0  0
   60.2726   27.8732   45.5718 O   0  0  0  0  0  0  0  0  0  0  0  0
   59.4978   29.9375   46.1593 N   0  0  0  0  0  0  0  0  0  0  0  0
   55.4617   30.0868   43.8183 H   0  0  0  0  0  0  0  0  0  0  0  0
   58.1030   27.1493   43.9842 C   0  0  0  0  0  0  0  0  0  0  0  0
   57.7930   26.0404   44.9644 C   0  0  0  0  0  0  0  0  0  0  0  0
   58.6110   24.8967   45.0074 C   0  0  0  0  0  0  0  0  0  0  0  0
   58.3476   23.8702   45.9187 C   0  0  0  0  0  0  0  0  0  0  0  0
   57.2659   23.9716   46.7949 C   0  0  0  0  0  0  0  0  0  0  0  0
   57.0066   22.9508   47.7006 O   0  0  0  0  0  0  0  0  0  0  0  0
   56.4439   25.1012   46.7611 C   0  0  0  0  0  0  0  0  0  0  0  0
   56.7017   26.1340   45.8513 C   0  0  0  0  0  0  0  0  0  0  0  0
   55.8654   27.2430   45.8372 O   0  0  0  0  0  0  0  0  0  0  0  0
   60.7152   30.2023   46.9566 C   0  0  0  0  0  0  0  0  0  0  0  0
   60.5175   29.8100   48.4284 C   0  0  0  0  0  0  0  0  0  0  0  0
   60.4978   31.0165   49.3288 C   0  0  0  0  0  0  0  0  0  0  0  0
   59.5361   31.1255   50.3460 C   0  0  0  0  0  0  0  0  0  0  0  0
   59.5506   32.2189   51.2149 C   0  0  0  0  0  0  0  0  0  0  0  0
   60.5271   33.2081   51.0822 C   0  0  0  0  0  0  0  0  0  0  0  0
   61.4974   33.1128   50.0720 C   0  0  0  0  0  0  0  0  0  0  0  0
   61.4808   32.0096   49.2025 C   0  0  0  0  0  0  0  0  0  0  0  0
   62.5858   34.1478   49.9551 C   0  0  0  0  0  0  0  0  0  0  0  0
   63.8060   33.7108   50.6691 N   0  0  0  0  0  0  0  0  0  0  0  0
   64.6447   32.8342   49.8195 C   0  0  0  0  0  0  0  0  0  0  0  0
   65.5872   31.9767   50.6791 C   0  0  0  0  0  0  0  0  0  0  0  0
   64.9158   31.1132   51.5875 O   0  0  0  0  0  0  0  0  0  0  0  0
   63.6140   31.5580   51.9414 C   0  0  0  0  0  0  0  0  0  0  0  0
   63.4805   33.0917   51.9781 C   0  0  0  0  0  0  0  0  0  0  0  0
  1  2  2  0
  2  3  1  0
  3  4  1  0
  4  5  1  0
  4  6  2  0
  6 11  1  0
 11 12  1  0
 12 13  2  0
 13 14  1  0
 14 15  2  0
 15 16  1  0
 15 17  1  0
 17 18  2  0
 18 19  1  0
  6  7  1  0
  7  8  2  0
  7  9  1  0
  9 20  1  0
 20 21  1  0
 21 22  1  0
 22 23  2  0
 23 24  1  0
 24 25  2  0
 25 26  1  0
 26 28  1  0
 28 29  1  0
 29 30  1  0
 30 31  1  0
 31 32  1  0
 32 33  1  0
 33 34  1  0
 26 27  2  0
  9  2  1  0
 27 22  1  0
 18 12  1  0
 34 29  1  0
  5 10  1  0
M  CHG 1   3  -1
M  CHG 1  16  -1
M  CHG 1  19  -1
M  END
> <UniqueID>
30

> <SMILES>
O=c1[n-]c(O)c(Cc2ccc([O-])cc2[O-])c(=O)n1CCc1cccc(CN2CCOCC2)c1

> <Energy>
79.33475159102662

> <Genealogy>
O=c1[n-]c(O)c(Cc2ccc([O-])cc2[O-])c(=O)n1CCc1cccc(CN2CCOCC2)c1 (protonated)
O=c1[n-]c(O)c(Cc2ccc([O-])cc2[O-])c(=O)n1CCc1cccc(CN2CCOCC2)c1 (3D coordinates assigned)
O=c1[n-]c(O)c(Cc2ccc([O-])cc2[O-])c(=O)n1CCc1cccc(CN2CCOCC2)c1 (nonaromatic ring conformer: 79.33475159102662 kcal/mol)

> <smiles>
O=c1[nH]c(O)c(Cc2ccc(O)cc2O)c(=O)n1CCc1cccc(CN2CCOCC2)c1

> <score_type>
oracle

> <origin>
adg

> <m_score__min__energy>
-16.219999999999999

> <m_primary>
energy

> <minimizedAffinity>
-7.12140

> <minimizedRMSD>
0.74195

> <CNNscore>
0.1644584388

> <CNNaffinity>
6.5307507515

> <CNN_VS>
1.0740370750

> <CNNaffinity_variance>
0.0450494587

$$$$
43:0


 28 30  0  0  0  0  0  0  0  0999 V2000
   57.5876   32.8926   45.4883 C   0  0  0  0  0  0  0  0  0  0  0  0
   58.2115   31.5317   45.6385 C   0  0  0  0  0  0  0  0  0  0  0  0
   58.2584   30.6906   44.5127 C   0  0  0  0  0  0  0  0  0  0  0  0
   58.8201   29.4167   44.5960 C   0  0  0  0  0  0  0  0  0  0  0  0
   59.3313   28.9473   45.8051 C   0  0  0  0  0  0  0  0  0  0  0  0
   59.3158   29.7862   46.9299 C   0  0  0  0  0  0  0  0  0  0  0  0
   58.7565   31.0724   46.8666 C   0  0  0  0  0  0  0  0  0  0  0  0
   58.7854   32.0225   48.3688 S   0  0  0  0  0  0  0  0  0  0  0  0
   58.4060   31.2128   49.5756 O   0  0  0  0  0  0  0  0  0  0  0  0
   57.7843   33.1339   48.2194 O   0  0  0  0  0  0  0  0  0  0  0  0
   60.3805   32.7124   48.5892 N   0  0  0  0  0  0  0  0  0  0  0  0
   60.3316   34.1808   48.7125 C   0  0  0  0  0  0  0  0  0  0  0  0
   60.0920   34.8793   47.3516 C   0  0  0  0  0  0  0  0  0  0  0  0
   60.3386   34.0447   46.2338 O   0  0  0  0  0  0  0  0  0  0  0  0
   61.5237   33.3081   46.4306 C   0  0  0  0  0  0  0  0  0  0  0  0
   61.3276   32.2646   47.5445 C   0  0  0  0  0  0  0  0  0  0  0  0
   59.9092   27.6340   45.8429 N   0  0  0  0  0  0  0  0  0  0  0  0
   59.7342   26.6552   46.8747 C   0  0  0  0  0  0  0  0  0  0  0  0
   60.4830   26.6398   47.8872 O   0  0  0  0  0  0  0  0  0  0  0  0
   58.5848   25.7030   46.7923 C   0  0  0  0  0  0  0  0  0  0  0  0
   58.0544   25.4721   45.0597 S   0  0  0  0  0  0  0  0  0  0  0  0
   56.7325   24.3234   45.4489 C   0  0  0  0  0  0  0  0  0  0  0  0
   56.8336   22.6474   45.3113 S   0  0  0  0  0  0  0  0  0  0  0  0
   55.2498   22.4357   45.8367 C   0  0  0  0  0  0  0  0  0  0  0  0
   54.6911   21.3150   45.9625 O   0  0  0  0  0  0  0  0  0  0  0  0
   54.6287   23.6032   46.1098 N   0  0  0  0  0  0  0  0  0  0  0  0
   55.4573   24.6566   45.8911 C   0  0  0  0  0  0  0  0  0  0  0  0
   55.0473   25.9671   46.1009 O   0  0  0  0  0  0  0  0  0  0  0  0
  1  2  1  0
  2  3  2  0
  3  4  1  0
  4  5  2  0
  5 17  1  0
 17 18  1  0
 18 19  2  0
 18 20  1  0
 20 21  1  0
 21 22  1  0
 22 23  1  0
 23 24  1  0
 24 25  2  0
 24 26  1  0
 26 27  1  0
 27 28  1  0
  5  6  1  0
  6  7  2  0
  7  8  1  0
  8  9  2  0
  8 10  2  0
  8 11  1  0
 11 12  1  0
 12 13  1  0
 13 14  1  0
 14 15  1  0
 15 16  1  0
  7  2  1  0
 16 11  1  0
 27 22  2  0
M  CHG 1  17  -1
M  CHG 1  26  -1
M  CHG 1  28  -1
M  END
> <UniqueID>
41

> <SMILES>
Cc1ccc([N-]C(=O)CSc2sc(=O)[n-]c2[O-])cc1S(=O)(=O)N1CCOCC1

> <Energy>
88.31257780804359

> <Genealogy>
Cc1ccc([N-]C(=O)CSc2sc(=O)[n-]c2[O-])cc1S(=O)(=O)N1CCOCC1 (protonated)
Cc1ccc([N-]C(=O)CSc2sc(=O)[n-]c2[O-])cc1S(=O)(=O)N1CCOCC1 (3D coordinates assigned)
Cc1ccc([N-]C(=O)CSc2sc(=O)[n-]c2[O-])cc1S(=O)(=O)N1CCOCC1 (nonaromatic ring conformer: 88.31257780804359 kcal/mol)

> <smiles>
Cc1ccc(NC(=O)CSc2sc(=O)[nH]c2O)cc1S(=O)(=O)N1CCOCC1

> <score_type>
oracle

> <origin>
adg

> <m_score__min__energy>
-17.02

> <m_primary>
energy

> <minimizedAffinity>
-5.96835

> <minimizedRMSD>
0.87774

> <CNNscore>
0.0976850241

> <CNNaffinity>
5.7564415932

> <CNN_VS>
0.5623181462

> <CNNaffinity_variance>
0.0303935762

$$$$
49:0


 29 31  0  0  0  0  0  0  0  0999 V2000
   59.3237   28.8854   47.1301 C   0  0  0  0  0  0  0  0  0  0  0  0
   59.1001   28.5158   48.4650 C   0  0  0  0  0  0  0  0  0  0  0  0
   59.8760   29.0677   49.4856 C   0  0  0  0  0  0  0  0  0  0  0  0
   60.8580   30.0159   49.1860 C   0  0  0  0  0  0  0  0  0  0  0  0
   61.0605   30.4332   47.8666 C   0  0  0  0  0  0  0  0  0  0  0  0
   60.3009   29.8514   46.8369 C   0  0  0  0  0  0  0  0  0  0  0  0
   57.5330   28.8497   45.5820 O   0  0  0  0  0  0  0  0  0  0  0  0
   58.5434   28.2543   46.0447 C   0  0  0  0  0  0  0  0  0  0  0  0
   58.9310   26.9555   45.4557 C   0  0  0  0  0  0  0  0  0  0  0  0
   58.0686   26.0768   44.9210 C   0  0  0  0  0  0  0  0  0  0  0  0
   57.4257   24.9718   45.6697 C   0  0  0  0  0  0  0  0  0  0  0  0
   56.1526   25.1499   46.2321 C   0  0  0  0  0  0  0  0  0  0  0  0
   55.4865   26.3598   46.1004 O   0  0  0  0  0  0  0  0  0  0  0  0
   55.5563   24.1318   46.9036 N   0  0  0  0  0  0  0  0  0  0  0  0
   56.1790   22.9357   47.0608 C   0  0  0  0  0  0  0  0  0  0  0  0
   55.6029   22.0038   47.6781 O   0  0  0  0  0  0  0  0  0  0  0  0
   57.4268   22.7487   46.5597 N   0  0  0  0  0  0  0  0  0  0  0  0
   58.0674   23.7355   45.8820 C   0  0  0  0  0  0  0  0  0  0  0  0
   59.2380   23.5358   45.4619 O   0  0  0  0  0  0  0  0  0  0  0  0
   62.0354   31.4520   47.6087 N   0  0  0  0  0  0  0  0  0  0  0  0
   61.6950   33.1499   47.4939 S   0  0  0  0  0  0  0  0  0  0  0  0
   61.7299   33.7608   48.8660 O   0  0  0  0  0  0  0  0  0  0  0  0
   62.7611   33.8048   46.6616 O   0  0  0  0  0  0  0  0  0  0  0  0
   60.1319   33.4182   46.7311 C   0  0  0  0  0  0  0  0  0  0  0  0
   60.0704   34.0438   45.4770 C   0  0  0  0  0  0  0  0  0  0  0  0
   58.8319   34.2993   44.8785 C   0  0  0  0  0  0  0  0  0  0  0  0
   57.6510   33.9285   45.5268 C   0  0  0  0  0  0  0  0  0  0  0  0
   57.7068   33.2979   46.7738 C   0  0  0  0  0  0  0  0  0  0  0  0
   58.9431   33.0454   47.3770 C   0  0  0  0  0  0  0  0  0  0  0  0
  7  8  2  0
  8  9  1  0
  9 10  2  0
 10 11  1  0
 11 12  2  0
 12 13  1  0
 12 14  1  0
 14 15  1  0
 15 16  2  0
 15 17  1  0
 17 18  1  0
 18 19  2  0
  8  1  1  0
  1  2  2  0
  2  3  1  0
  3  4  2  0
  4  5  1  0
  5 20  1  0
 20 21  1  0
 21 22  2  0
 21 23  2  0
 21 24  1  0
 24 25  2  0
 25 26  1  0
 26 27  2  0
 27 28  1  0
 28 29  2  0
  5  6  2  0
 18 11  1  0
  6  1  1  0
 29 24  1  0
M  CHG 1  13  -1
M  CHG 1  14  -1
M  CHG 1  17  -1
M  CHG 1  20  -1
M  END
> <UniqueID>
47

> <SMILES>
O=C(C=Cc1c([O-])[n-]c(=O)[n-]c1=O)c1cccc([N-]S(=O)(=O)c2ccccc2)c1

> <Energy>
59.03326023775632

> <Genealogy>
O=C(C=Cc1c([O-])[n-]c(=O)[n-]c1=O)c1cccc([N-]S(=O)(=O)c2ccccc2)c1 (protonated)
O=C(C=Cc1c([O-])[n-]c(=O)[n-]c1=O)c1cccc([N-]S(=O)(=O)c2ccccc2)c1 (3D coordinates assigned)
O=C(C=Cc1c([O-])[n-]c(=O)[n-]c1=O)c1cccc([N-]S(=O)(=O)c2ccccc2)c1 (optimized conformer: 59.03326023775632 kcal/mol)

> <smiles>
O=C(C=Cc1c(O)[nH]c(=O)[nH]c1=O)c1cccc(NS(=O)(=O)c2ccccc2)c1

> <score_type>
oracle

> <origin>
adg

> <m_score__min__energy>
-18.010000000000002

> <m_primary>
energy

> <minimizedAffinity>
-8.40810

> <minimizedRMSD>
1.16710

> <CNNscore>
0.6398926377

> <CNNaffinity>
6.8616600037

> <CNN_VS>
4.3907256126

> <CNNaffinity_variance>
0.1219645366

$$$$
59:0


 25 27  0  0  0  0  0  0  0  0999 V2000
   57.0647   30.1021   43.9809 C   0  0  0  0  0  0  0  0  0  0  0  0
   57.6866   29.9263   45.1605 C   0  0  0  0  0  0  0  0  0  0  0  0
   57.8884   31.0436   45.8996 N   0  0  0  0  0  0  0  0  0  0  0  0
   58.5267   31.0337   47.0898 C   0  0  0  0  0  0  0  0  0  0  0  0
   58.6912   32.1249   47.6980 O   0  0  0  0  0  0  0  0  0  0  0  0
   58.9779   29.8563   47.6190 N   0  0  0  0  0  0  0  0  0  0  0  0
   58.7846   28.6814   46.9344 C   0  0  0  0  0  0  0  0  0  0  0  0
   59.1152   27.5965   47.4881 O   0  0  0  0  0  0  0  0  0  0  0  0
   58.1703   28.6723   45.6471 C   0  0  0  0  0  0  0  0  0  0  0  0
   58.0261   27.5195   44.9271 C   0  0  0  0  0  0  0  0  0  0  0  0
   57.8135   26.1668   45.4893 C   0  0  0  0  0  0  0  0  0  0  0  0
   58.8268   25.1955   45.4019 C   0  0  0  0  0  0  0  0  0  0  0  0
   58.6101   23.9050   45.8900 C   0  0  0  0  0  0  0  0  0  0  0  0
   57.3735   23.5652   46.4464 C   0  0  0  0  0  0  0  0  0  0  0  0
   57.1585   22.2802   46.9316 O   0  0  0  0  0  0  0  0  0  0  0  0
   56.3516   24.5159   46.5116 C   0  0  0  0  0  0  0  0  0  0  0  0
   56.5632   25.8126   46.0269 C   0  0  0  0  0  0  0  0  0  0  0  0
   55.5323   26.7432   46.0906 O   0  0  0  0  0  0  0  0  0  0  0  0
   59.7043   29.8504   48.9074 C   0  0  0  0  0  0  0  0  0  0  0  0
   60.9970   30.6151   48.7817 C   0  0  0  0  0  0  0  0  0  0  0  0
   61.6898   31.0249   49.9321 C   0  0  0  0  0  0  0  0  0  0  0  0
   62.8680   31.7700   49.8178 C   0  0  0  0  0  0  0  0  0  0  0  0
   63.3581   32.1145   48.5555 C   0  0  0  0  0  0  0  0  0  0  0  0
   62.6715   31.7158   47.4051 C   0  0  0  0  0  0  0  0  0  0  0  0
   61.4939   30.9715   47.5152 C   0  0  0  0  0  0  0  0  0  0  0  0
  1  2  2  0
  2  3  1  0
  3  4  1  0
  4  5  2  0
  4  6  1  0
  6 19  1  0
 19 20  1  0
 20 21  2  0
 21 22  1  0
 22 23  2  0
 23 24  1  0
 24 25  2  0
  6  7  1  0
  7  8  2  0
  7  9  1  0
  9 10  2  0
 10 11  1  0
 11 12  2  0
 12 13  1  0
 13 14  2  0
 14 15  1  0
 14 16  1  0
 16 17  2  0
 17 18  1  0
  9  2  1  0
 17 11  1  0
 25 20  1  0
M  CHG 1   3  -1
M  CHG 1  15  -1
M  CHG 1  18  -1
M  END
> <UniqueID>
57

> <SMILES>
C=c1[n-]c(=O)n(Cc2ccccc2)c(=O)c1=Cc1ccc([O-])cc1[O-]

> <Energy>
65.94606597658611

> <Genealogy>
C=c1[n-]c(=O)n(Cc2ccccc2)c(=O)c1=Cc1ccc([O-])cc1[O-] (protonated)
C=c1[n-]c(=O)n(Cc2ccccc2)c(=O)c1=Cc1ccc([O-])cc1[O-] (3D coordinates assigned)
C=c1[n-]c(=O)n(Cc2ccccc2)c(=O)c1=Cc1ccc([O-])cc1[O-] (optimized conformer: 65.94606597658611 kcal/mol)

> <smiles>
C=c1[nH]c(=O)n(Cc2ccccc2)c(=O)c1=Cc1ccc(O)cc1O

> <score_type>
oracle

> <origin>
adg

> <m_score__min__energy>
-14.960000000000001

> <m_primary>
energy

> <minimizedAffinity>
-7.57435

> <minimizedRMSD>
1.57204

> <CNNscore>
0.2524386048

> <CNNaffinity>
6.0541129112

> <CNN_VS>
1.5282918215

> <CNNaffinity_variance>
0.1354341358

$$$$
61:0


 27 29  0  0  0  0  0  0  0  0999 V2000
   59.0611   32.7705   46.4568 C   0  0  0  0  0  0  0  0  0  0  0  0
   58.9675   31.4757   46.9806 C   0  0  0  0  0  0  0  0  0  0  0  0
   58.3107   30.4724   46.2644 C   0  0  0  0  0  0  0  0  0  0  0  0
   57.7470   30.7506   45.0087 C   0  0  0  0  0  0  0  0  0  0  0  0
   57.8369   32.0521   44.4881 C   0  0  0  0  0  0  0  0  0  0  0  0
   58.4960   33.0547   45.2061 C   0  0  0  0  0  0  0  0  0  0  0  0
   59.8976   34.0263   47.3638 S   0  0  0  0  0  0  0  0  0  0  0  0
   60.2998   35.1226   46.4169 O   0  0  0  0  0  0  0  0  0  0  0  0
   58.9898   34.6053   48.4128 O   0  0  0  0  0  0  0  0  0  0  0  0
   64.5511   31.8140   49.9202 O   0  0  0  0  0  0  0  0  0  0  0  0
   63.5232   32.2930   49.3729 C   0  0  0  0  0  0  0  0  0  0  0  0
   62.3204   32.3569   50.0702 C   0  0  0  0  0  0  0  0  0  0  0  0
   61.2066   32.8956   49.4287 C   0  0  0  0  0  0  0  0  0  0  0  0
   61.2988   33.3446   48.1434 N   0  0  0  0  0  0  0  0  0  0  0  0
   62.4961   33.2763   47.4818 C   0  0  0  0  0  0  0  0  0  0  0  0
   62.6019   33.6982   46.2988 O   0  0  0  0  0  0  0  0  0  0  0  0
   63.5880   32.7533   48.0975 N   0  0  0  0  0  0  0  0  0  0  0  0
   57.0421   29.6637   44.2408 C   0  0  0  0  0  0  0  0  0  0  0  0
   57.9414   28.5339   44.0004 N   0  0  0  0  0  0  0  0  0  0  0  0
   58.0219   28.1992   43.0781 H   0  0  0  0  0  0  0  0  0  0  0  0
   58.7181   27.8776   45.0252 C   0  0  0  0  0  0  0  0  0  0  0  0
   60.0974   28.1238   45.1726 C   0  0  0  0  0  0  0  0  0  0  0  0
   60.8300   27.4793   46.1731 C   0  0  0  0  0  0  0  0  0  0  0  0
   60.2001   26.5781   47.0337 C   0  0  0  0  0  0  0  0  0  0  0  0
   58.8355   26.3191   46.8947 C   0  0  0  0  0  0  0  0  0  0  0  0
   58.0937   26.9625   45.8966 C   0  0  0  0  0  0  0  0  0  0  0  0
   56.7338   26.6889   45.7845 O   0  0  0  0  0  0  0  0  0  0  0  0
 10 11  2  0
 11 12  1  0
 12 13  2  0
 13 14  1  0
 14  7  1  0
  7  8  2  0
  7  9  2  0
  7  1  1  0
  1  2  2  0
  2  3  1  0
  3  4  2  0
  4 18  1  0
 18 19  1  0
 19 21  1  0
 21 22  2  0
 22 23  1  0
 23 24  2  0
 24 25  1  0
 25 26  2  0
 26 27  1  0
  4  5  1  0
  5  6  2  0
 14 15  1  0
 15 16  2  0
 15 17  1  0
 17 11  1  0
  6  1  1  0
 26 21  1  0
 19 20  1  0
M  CHG 1  17  -1
M  CHG 1  27  -1
M  END
> <UniqueID>
59

> <SMILES>
O=c1ccn(S(=O)(=O)c2ccc(CNc3ccccc3[O-])cc2)c(=O)[n-]1

> <Energy>
46.41651394180199

> <Genealogy>
O=c1ccn(S(=O)(=O)c2ccc(CNc3ccccc3[O-])cc2)c(=O)[n-]1 (protonated)
O=c1ccn(S(=O)(=O)c2ccc(CNc3ccccc3[O-])cc2)c(=O)[n-]1 (3D coordinates assigned)
O=c1ccn(S(=O)(=O)c2ccc(CNc3ccccc3[O-])cc2)c(=O)[n-]1 (optimized conformer: 46.41651394180199 kcal/mol)

> <smiles>
O=c1ccn(S(=O)(=O)c2ccc(CNc3ccccc3O)cc2)c(=O)[nH]1

> <score_type>
oracle

> <origin>
adg

> <m_score__min__energy>
-14.08

> <m_primary>
energy

> <minimizedAffinity>
-7.33188

> <minimizedRMSD>
1.03829

> <CNNscore>
0.5407152176

> <CNNaffinity>
6.3635411263

> <CNN_VS>
3.4408636093

> <CNNaffinity_variance>
0.2663167417

$$$$
6:0


 36 39  0  0  0  0  0  0  0  0999 V2000
   60.8549   29.6245   46.3612 O   0  0  0  0  0  0  0  0  0  0  0  0
   59.9572   29.5063   45.4838 C   0  0  0  0  0  0  0  0  0  0  0  0
   59.0987   30.6117   45.1550 N   0  0  0  0  0  0  0  0  0  0  0  0
   58.5242   30.5292   44.3598 H   0  0  0  0  0  0  0  0  0  0  0  0
   59.0269   31.8289   45.9141 C   0  0  0  0  0  0  0  0  0  0  0  0
   58.4161   32.9534   45.3467 C   0  0  0  0  0  0  0  0  0  0  0  0
   58.3154   34.1428   46.0706 C   0  0  0  0  0  0  0  0  0  0  0  0
   58.8062   34.2128   47.3764 C   0  0  0  0  0  0  0  0  0  0  0  0
   59.3945   33.0909   47.9666 C   0  0  0  0  0  0  0  0  0  0  0  0
   59.5021   31.9005   47.2361 C   0  0  0  0  0  0  0  0  0  0  0  0
   59.9653   33.1884   49.6283 S   0  0  0  0  0  0  0  0  0  0  0  0
   59.7430   31.8581   50.2924 O   0  0  0  0  0  0  0  0  0  0  0  0
   59.2032   34.2455   50.3836 O   0  0  0  0  0  0  0  0  0  0  0  0
   61.6657   33.5865   49.6271 N   0  0  0  0  0  0  0  0  0  0  0  0
   62.2583   33.2168   48.3360 C   0  0  0  0  0  0  0  0  0  0  0  0
   63.7814   33.4464   48.3741 C   0  0  0  0  0  0  0  0  0  0  0  0
   64.4545   32.9577   49.5366 O   0  0  0  0  0  0  0  0  0  0  0  0
   63.6194   32.1777   50.3670 C   0  0  0  0  0  0  0  0  0  0  0  0
   62.3549   32.9541   50.7794 C   0  0  0  0  0  0  0  0  0  0  0  0
   59.8512   28.2234   44.7173 C   0  0  0  0  0  0  0  0  0  0  0  0
   58.9315   27.2705   45.4305 C   0  0  0  0  0  0  0  0  0  0  0  0
   57.5406   27.4334   45.3425 C   0  0  0  0  0  0  0  0  0  0  0  0
   56.6829   26.5652   46.0292 C   0  0  0  0  0  0  0  0  0  0  0  0
   57.2071   25.5196   46.8099 C   0  0  0  0  0  0  0  0  0  0  0  0
   58.5943   25.3766   46.9219 C   0  0  0  0  0  0  0  0  0  0  0  0
   59.4538   26.2456   46.2372 C   0  0  0  0  0  0  0  0  0  0  0  0
   56.3558   24.6220   47.5340 N   0  0  0  0  0  0  0  0  0  0  0  0
   55.7262   23.4470   47.0096 C   0  0  0  0  0  0  0  0  0  0  0  0
   54.8404   22.8754   47.7057 O   0  0  0  0  0  0  0  0  0  0  0  0
   56.1114   22.8555   45.7057 C   0  0  0  0  0  0  0  0  0  0  0  0
   57.2805   22.0807   45.6155 C   0  0  0  0  0  0  0  0  0  0  0  0
   57.6485   21.5091   44.3981 C   0  0  0  0  0  0  0  0  0  0  0  0
   56.8455   21.7181   43.2738 C   0  0  0  0  0  0  0  0  0  0  0  0
   55.7266   22.4858   43.3640 N   0  0  0  0  0  0  0  0  0  0  0  0
   55.3454   23.0619   44.5327 C   0  0  0  0  0  0  0  0  0  0  0  0
   54.3142   23.7919   44.5460 O   0  0  0  0  0  0  0  0  0  0  0  0
  1  2  2  0
  2 20  1  0
 20 21  1  0
 21 22  2  0
 22 23  1  0
 23 24  2  0
 24 27  1  0
 27 28  1  0
 28 29  2  0
 28 30  1  0
 30 31  2  0
 31 32  1  0
 32 33  2  0
 33 34  1  0
 34 35  1  0
 35 36  2  0
 24 25  1  0
 25 26  2  0
  2  3  1  0
  3  5  1  0
  5  6  2  0
  6  7  1  0
  7  8  2  0
  8  9  1  0
  9 11  1  0
 11 12  2  0
 11 13  2  0
 11 14  1  0
 14 15  1  0
 15 16  1  0
 16 17  1  0
 17 18  1  0
 18 19  1  0
  9 10  2  0
 26 21  1  0
 10  5  1  0
 35 30  1  0
 19 14  1  0
  3  4  1  0
M  CHG 1  27  -1
M  CHG 1  34  -1
M  END
> <UniqueID>
7

> <SMILES>
O=C(Cc1ccc([N-]C(=O)c2ccc[n-]c2=O)cc1)Nc1cccc(S(=O)(=O)N2CCOCC2)c1

> <Energy>
82.97496721333074

> <Genealogy>
O=C(Cc1ccc([N-]C(=O)c2ccc[n-]c2=O)cc1)Nc1cccc(S(=O)(=O)N2CCOCC2)c1 (protonated)
O=C(Cc1ccc([N-]C(=O)c2ccc[n-]c2=O)cc1)Nc1cccc(S(=O)(=O)N2CCOCC2)c1 (3D coordinates assigned)
O=C(Cc1ccc([N-]C(=O)c2ccc[n-]c2=O)cc1)Nc1cccc(S(=O)(=O)N2CCOCC2)c1 (nonaromatic ring conformer: 82.97496721333074 kcal/mol)

> <smiles>
O=C(Cc1ccc(NC(=O)c2ccc[nH]c2=O)cc1)Nc1cccc(S(=O)(=O)N2CCOCC2)c1

> <score_type>
oracle

> <origin>
adg

> <m_score__min__energy>
-14.710000000000001

> <m_primary>
energy

> <minimizedAffinity>
-7.52868

> <minimizedRMSD>
1.76584

> <CNNscore>
0.2963838875

> <CNNaffinity>
6.6829452515

> <CNN_VS>
1.9807173014

> <CNNaffinity_variance>
0.0130535858

$$$$
33:0


 27 29  0  0  0  0  0  0  0  0999 V2000
   58.7634   32.2140   52.0977 C   0  0  0  0  0  0  0  0  0  0  0  0
   58.3299   31.1025   51.3577 C   0  0  0  0  0  0  0  0  0  0  0  0
   57.5758   30.0987   51.9725 C   0  0  0  0  0  0  0  0  0  0  0  0
   57.2343   30.1966   53.3260 C   0  0  0  0  0  0  0  0  0  0  0  0
   57.7105   31.2848   54.0793 C   0  0  0  0  0  0  0  0  0  0  0  0
   58.4639   32.2901   53.4662 C   0  0  0  0  0  0  0  0  0  0  0  0
   56.4868   29.1316   53.9365 N   0  0  0  0  0  0  0  0  0  0  0  0
   55.2393   29.1545   54.3136 C   0  0  0  0  0  0  0  0  0  0  0  0
   54.1564   29.8447   53.5794 C   0  0  0  0  0  0  0  0  0  0  0  0
   54.2343   30.0624   52.1922 C   0  0  0  0  0  0  0  0  0  0  0  0
   53.1854   30.6937   51.5177 C   0  0  0  0  0  0  0  0  0  0  0  0
   52.0408   31.0916   52.2154 C   0  0  0  0  0  0  0  0  0  0  0  0
   51.0019   31.7196   51.5391 O   0  0  0  0  0  0  0  0  0  0  0  0
   51.9431   30.8518   53.5911 C   0  0  0  0  0  0  0  0  0  0  0  0
   50.8039   31.2367   54.2890 O   0  0  0  0  0  0  0  0  0  0  0  0
   52.9936   30.2211   54.2681 C   0  0  0  0  0  0  0  0  0  0  0  0
   59.6041   33.2780   51.4452 C   0  0  0  0  0  0  0  0  0  0  0  0
   61.0792   32.8669   51.4266 C   0  0  0  0  0  0  0  0  0  0  0  0
   63.3825   34.7456   47.3696 H   0  0  0  0  0  0  0  0  0  0  0  0
   63.2113   33.7361   47.1665 N   0  0  0  0  0  0  0  0  0  0  0  0
   62.5403   32.9546   47.9560 C   0  0  0  0  0  0  0  0  0  0  0  0
   62.1624   31.7312   47.5080 N   0  0  0  0  0  0  0  0  0  0  0  0
   61.4555   30.8778   48.2902 C   0  0  0  0  0  0  0  0  0  0  0  0
   61.1065   31.2586   49.5841 C   0  0  0  0  0  0  0  0  0  0  0  0
   61.4851   32.4806   50.0658 N   0  0  0  0  0  0  0  0  0  0  0  0
   62.1899   33.3467   49.2649 C   0  0  0  0  0  0  0  0  0  0  0  0
   62.5191   34.4880   49.6941 O   0  0  0  0  0  0  0  0  0  0  0  0
 19 20  1  0
 20 21  2  0
 21 22  1  0
 22 23  1  0
 23 24  2  0
 24 25  1  0
 25 18  1  0
 18 17  1  0
 17  1  1  0
  1  2  2  0
  2  3  1  0
  3  4  2  0
  4  7  1  0
  7  8  2  0
  8  9  1  0
  9 10  2  0
 10 11  1  0
 11 12  2  0
 12 13  1  0
 12 14  1  0
 14 15  1  0
 14 16  2  0
  4  5  1  0
  5  6  2  0
 25 26  1  0
 26 27  2  0
 26 21  1  0
  6  1  1  0
 16  9  1  0
M  CHG 1  13  -1
M  CHG 1  15  -1
M  CHG 1  22  -1
M  END
> <UniqueID>
31

> <SMILES>
[H]/N=c1/[n-]ccn(CCc2ccc(N=Cc3ccc([O-])c([O-])c3)cc2)c1=O

> <Energy>
57.05047770197887

> <Genealogy>
N=c1[n-]ccn(CCc2ccc(N=Cc3ccc([O-])c([O-])c3)cc2)c1=O (protonated)
[H]/N=c1/[n-]ccn(CCc2ccc(N=Cc3ccc([O-])c([O-])c3)cc2)c1=O (cis-trans isomerization)
[H]/N=c1/[n-]ccn(CCc2ccc(N=Cc3ccc([O-])c([O-])c3)cc2)c1=O (3D coordinates assigned)
[H]/N=c1/[n-]ccn(CCc2ccc(N=Cc3ccc([O-])c([O-])c3)cc2)c1=O (optimized conformer: 57.05047770197887 kcal/mol)

> <smiles>
N=c1[nH]ccn(CCc2ccc(N=Cc3ccc(O)c(O)c3)cc2)c1=O

> <score_type>
oracle

> <origin>
adg

> <m_score__min__energy>
-17.059999999999999

> <m_primary>
energy

> <minimizedAffinity>
-6.20016

> <minimizedRMSD>
2.34945

> <CNNscore>
0.1928121001

> <CNNaffinity>
4.5352654457

> <CNN_VS>
0.8744540811

> <CNNaffinity_variance>
0.5494292378

$$$$
42:0


 36 39  0  0  0  0  0  0  0  0999 V2000
   57.6456   31.0324   43.0815 O   0  0  0  0  0  0  0  0  0  0  0  0
   57.1607   30.7788   44.2145 C   0  0  0  0  0  0  0  0  0  0  0  0
   56.9404   29.3374   44.6039 C   0  0  0  0  0  0  0  0  0  0  0  0
   58.1366   28.7494   45.2187 N   0  0  0  0  0  0  0  0  0  0  0  0
   59.3562   29.3263   45.2299 C   0  0  0  0  0  0  0  0  0  0  0  0
   60.2698   28.4984   45.8457 C   0  0  0  0  0  0  0  0  0  0  0  0
   59.5791   27.3723   46.2417 C   0  0  0  0  0  0  0  0  0  0  0  0
   58.2635   27.5582   45.8560 C   0  0  0  0  0  0  0  0  0  0  0  0
   57.1794   26.5919   46.1215 C   0  0  0  0  0  0  0  0  0  0  0  0
   55.9769   26.9079   45.9151 O   0  0  0  0  0  0  0  0  0  0  0  0
   57.5018   25.3143   46.6855 N   0  0  0  0  0  0  0  0  0  0  0  0
   57.5458   24.0595   45.9870 C   0  0  0  0  0  0  0  0  0  0  0  0
   58.7430   23.6174   45.3910 C   0  0  0  0  0  0  0  0  0  0  0  0
   58.7979   22.3896   44.7339 C   0  0  0  0  0  0  0  0  0  0  0  0
   57.6687   21.5773   44.6737 C   0  0  0  0  0  0  0  0  0  0  0  0
   56.4801   21.9850   45.2807 C   0  0  0  0  0  0  0  0  0  0  0  0
   56.3990   23.2224   45.9500 C   0  0  0  0  0  0  0  0  0  0  0  0
   55.1087   23.6069   46.5849 C   0  0  0  0  0  0  0  0  0  0  0  0
   54.8773   23.3609   47.7978 O   0  0  0  0  0  0  0  0  0  0  0  0
   54.1283   24.2529   45.8396 O   0  0  0  0  0  0  0  0  0  0  0  0
   56.8812   31.8692   45.1023 N   0  0  0  0  0  0  0  0  0  0  0  0
   57.8482   32.7623   45.6679 C   0  0  0  0  0  0  0  0  0  0  0  0
   58.2453   33.8893   44.9395 C   0  0  0  0  0  0  0  0  0  0  0  0
   59.1907   34.7713   45.4695 C   0  0  0  0  0  0  0  0  0  0  0  0
   59.7344   34.5396   46.7345 C   0  0  0  0  0  0  0  0  0  0  0  0
   59.3258   33.4277   47.4829 C   0  0  0  0  0  0  0  0  0  0  0  0
   58.3666   32.5517   46.9551 C   0  0  0  0  0  0  0  0  0  0  0  0
   59.9958   33.1527   49.0895 S   0  0  0  0  0  0  0  0  0  0  0  0
   59.9676   34.4342   49.8777 O   0  0  0  0  0  0  0  0  0  0  0  0
   59.1485   32.1357   49.8001 O   0  0  0  0  0  0  0  0  0  0  0  0
   61.6355   32.5645   48.9608 N   0  0  0  0  0  0  0  0  0  0  0  0
   61.7855   31.7517   47.7392 C   0  0  0  0  0  0  0  0  0  0  0  0
   63.2638   31.6574   47.3295 C   0  0  0  0  0  0  0  0  0  0  0  0
   63.8744   32.9146   47.0568 O   0  0  0  0  0  0  0  0  0  0  0  0
   63.2133   34.0157   47.6608 C   0  0  0  0  0  0  0  0  0  0  0  0
   62.6084   33.6792   49.0362 C   0  0  0  0  0  0  0  0  0  0  0  0
  1  2  2  0
  2  3  1  0
  3  4  1  0
  4  5  1  0
  5  6  2  0
  6  7  1  0
  7  8  2  0
  8  9  1  0
  9 10  2  0
  9 11  1  0
 11 12  1  0
 12 13  2  0
 13 14  1  0
 14 15  2  0
 15 16  1  0
 16 17  2  0
 17 18  1  0
 18 19  2  0
 18 20  1  0
  2 21  1  0
 21 22  1  0
 22 23  2  0
 23 24  1  0
 24 25  2  0
 25 26  1  0
 26 28  1  0
 28 29  2  0
 28 30  2  0
 28 31  1  0
 31 32  1  0
 32 33  1  0
 33 34  1  0
 34 35  1  0
 35 36  1  0
 26 27  2  0
  8  4  1  0
 17 12  1  0
 27 22  1  0
 36 31  1  0
M  CHG 1  11  -1
M  CHG 1  20  -1
M  CHG 1  21  -1
M  END
> <UniqueID>
39

> <SMILES>
O=C(Cn1cccc1C(=O)[N-]c1ccccc1C(=O)[O-])[N-]c1cccc(S(=O)(=O)N2CCOCC2)c1

> <Energy>
107.7986564624515

> <Genealogy>
O=C(Cn1cccc1C(=O)[N-]c1ccccc1C(=O)[O-])[N-]c1cccc(S(=O)(=O)N2CCOCC2)c1 (protonated)
O=C(Cn1cccc1C(=O)[N-]c1ccccc1C(=O)[O-])[N-]c1cccc(S(=O)(=O)N2CCOCC2)c1 (3D coordinates assigned)
O=C(Cn1cccc1C(=O)[N-]c1ccccc1C(=O)[O-])[N-]c1cccc(S(=O)(=O)N2CCOCC2)c1 (nonaromatic ring conformer: 107.7986564624515 kcal/mol)

> <smiles>
O=C(Cn1cccc1C(=O)Nc1ccccc1C(=O)O)Nc1cccc(S(=O)(=O)N2CCOCC2)c1

> <score_type>
oracle

> <origin>
adg

> <m_score__min__energy>
-16.379999999999999

> <m_primary>
energy

> <minimizedAffinity>
-8.32321

> <minimizedRMSD>
0.91261

> <CNNscore>
0.7528770566

> <CNNaffinity>
7.2060456276

> <CNN_VS>
5.4252662659

> <CNNaffinity_variance>
0.0637130663

$$$$
58:0


 24 26  0  0  0  0  0  0  0  0999 V2000
   57.3734   30.9602   44.3058 C   0  0  0  0  0  0  0  0  0  0  0  0
   57.3349   31.1020   42.9047 C   0  0  0  0  0  0  0  0  0  0  0  0
   57.8474   32.2453   42.2860 C   0  0  0  0  0  0  0  0  0  0  0  0
   58.4125   33.2615   43.0531 C   0  0  0  0  0  0  0  0  0  0  0  0
   58.4537   33.1456   44.4428 C   0  0  0  0  0  0  0  0  0  0  0  0
   57.9155   32.0155   45.0838 C   0  0  0  0  0  0  0  0  0  0  0  0
   57.9818   31.9145   46.5161 N   0  0  0  0  0  0  0  0  0  0  0  0
   58.9339   32.3492   47.2954 C   0  0  0  0  0  0  0  0  0  0  0  0
   59.1417   33.7317   47.3887 C   0  0  0  0  0  0  0  0  0  0  0  0
   60.1584   34.2263   48.2070 C   0  0  0  0  0  0  0  0  0  0  0  0
   60.9529   33.3726   48.9013 N   0  0  0  0  0  0  0  0  0  0  0  0
   60.7979   32.0239   48.8197 C   0  0  0  0  0  0  0  0  0  0  0  0
   61.6933   31.1236   49.6096 C   0  0  0  0  0  0  0  0  0  0  0  0
   59.7836   31.4851   48.0166 C   0  0  0  0  0  0  0  0  0  0  0  0
   56.8244   29.7202   44.9187 C   0  0  0  0  0  0  0  0  0  0  0  0
   55.8386   29.1493   44.3773 O   0  0  0  0  0  0  0  0  0  0  0  0
   60.6386   27.5916   46.1627 C   0  0  0  0  0  0  0  0  0  0  0  0
   59.6709   28.5455   46.1135 N   0  0  0  0  0  0  0  0  0  0  0  0
   58.3428   28.2337   46.1513 C   0  0  0  0  0  0  0  0  0  0  0  0
   57.4303   29.1611   46.0981 N   0  0  0  0  0  0  0  0  0  0  0  0
   57.9559   26.8881   46.2454 C   0  0  0  0  0  0  0  0  0  0  0  0
   56.6111   26.5369   46.2911 O   0  0  0  0  0  0  0  0  0  0  0  0
   58.9353   25.8937   46.2972 C   0  0  0  0  0  0  0  0  0  0  0  0
   60.2863   26.2442   46.2549 C   0  0  0  0  0  0  0  0  0  0  0  0
 17 18  1  0
 18 19  1  0
 19 20  2  0
 20 15  1  0
 15 16  2  0
 15  1  1  0
  1  2  2  0
  2  3  1  0
  3  4  2  0
  4  5  1  0
  5  6  2  0
  6  7  1  0
  7  8  2  0
  8  9  1  0
  9 10  2  0
 10 11  1  0
 11 12  1  0
 12 13  1  0
 12 14  2  0
 19 21  1  0
 21 22  1  0
 21 23  2  0
 23 24  1  0
 24 17  2  0
  6  1  1  0
 14  8  1  0
M  CHG 1  11  -1
M  CHG 1  18  -1
M  CHG 1  22  -1
M  END
> <UniqueID>
53

> <SMILES>
Cc1cc(=Nc2ccccc2C(=O)/N=c2\[n-]cccc2[O-])cc[n-]1

> <Energy>
55.737936367132434

> <Genealogy>
Cc1cc(=Nc2ccccc2C(=O)N=c2[n-]cccc2[O-])cc[n-]1 (protonated)
Cc1cc(=Nc2ccccc2C(=O)/N=c2\[n-]cccc2[O-])cc[n-]1 (cis-trans isomerization)
Cc1cc(=Nc2ccccc2C(=O)/N=c2\[n-]cccc2[O-])cc[n-]1 (3D coordinates assigned)
Cc1cc(=Nc2ccccc2C(=O)/N=c2\[n-]cccc2[O-])cc[n-]1 (optimized conformer: 55.737936367132434 kcal/mol)

> <smiles>
Cc1cc(=Nc2ccccc2C(=O)N=c2[nH]cccc2O)cc[nH]1

> <score_type>
oracle

> <origin>
adg

> <m_score__min__energy>
-14.029999999999999

> <m_primary>
energy

> <minimizedAffinity>
-5.96543

> <minimizedRMSD>
1.26055

> <CNNscore>
0.4846339226

> <CNNaffinity>
6.1827087402

> <CNN_VS>
2.9963502884

> <CNNaffinity_variance>
0.0563717335

$$$$
66:0


 22 23  0  0  0  0  0  0  0  0999 V2000
   58.2126   30.3107   44.4538 C   0  0  0  0  0  0  0  0  0  0  0  0
   57.2783   29.4368   45.2336 C   0  0  0  0  0  0  0  0  0  0  0  0
   56.0560   29.4081   44.9274 O   0  0  0  0  0  0  0  0  0  0  0  0
   59.7024   25.5698   46.1599 C   0  0  0  0  0  0  0  0  0  0  0  0
   59.3855   26.8881   46.2436 N   0  0  0  0  0  0  0  0  0  0  0  0
   58.0952   27.3296   46.1836 C   0  0  0  0  0  0  0  0  0  0  0  0
   57.8069   28.5965   46.2739 N   0  0  0  0  0  0  0  0  0  0  0  0
   57.0571   26.3983   46.0345 C   0  0  0  0  0  0  0  0  0  0  0  0
   55.7320   26.8141   45.9804 O   0  0  0  0  0  0  0  0  0  0  0  0
   57.3641   25.0376   45.9420 C   0  0  0  0  0  0  0  0  0  0  0  0
   58.6936   24.6183   46.0053 C   0  0  0  0  0  0  0  0  0  0  0  0
   57.8109   31.7807   44.5830 C   0  0  0  0  0  0  0  0  0  0  0  0
   57.8811   32.1949   45.9870 N   0  0  0  0  0  0  0  0  0  0  0  0
   59.0059   33.5030   46.1816 S   0  0  0  0  0  0  0  0  0  0  0  0
   58.4623   34.4839   47.1817 O   0  0  0  0  0  0  0  0  0  0  0  0
   59.2026   34.2093   44.8670 O   0  0  0  0  0  0  0  0  0  0  0  0
   60.5322   32.8600   46.7785 C   0  0  0  0  0  0  0  0  0  0  0  0
   60.6195   31.5481   47.2668 C   0  0  0  0  0  0  0  0  0  0  0  0
   61.8294   31.0704   47.7844 C   0  0  0  0  0  0  0  0  0  0  0  0
   62.9532   31.9013   47.8189 C   0  0  0  0  0  0  0  0  0  0  0  0
   62.8729   33.2077   47.3260 C   0  0  0  0  0  0  0  0  0  0  0  0
   61.6667   33.6826   46.8009 C   0  0  0  0  0  0  0  0  0  0  0  0
  4  5  1  0
  5  6  1  0
  6  7  2  0
  7  2  1  0
  2  3  2  0
  2  1  1  0
  1 12  1  0
 12 13  1  0
 13 14  1  0
 14 15  2  0
 14 16  2  0
 14 17  1  0
 17 18  2  0
 18 19  1  0
 19 20  2  0
 20 21  1  0
 21 22  2  0
  6  8  1  0
  8  9  1  0
  8 10  2  0
 10 11  1  0
 11  4  2  0
 22 17  1  0
M  CHG 1   5  -1
M  CHG 1   9  -1
M  CHG 1  13  -1
M  END
> <UniqueID>
60

> <SMILES>
O=C(CC[N-]S(=O)(=O)c1ccccc1)/N=c1\[n-]cccc1[O-]

> <Energy>
31.07938982155892

> <Genealogy>
O=C(CC[N-]S(=O)(=O)c1ccccc1)N=c1[n-]cccc1[O-] (protonated)
O=C(CC[N-]S(=O)(=O)c1ccccc1)/N=c1\[n-]cccc1[O-] (cis-trans isomerization)
O=C(CC[N-]S(=O)(=O)c1ccccc1)/N=c1\[n-]cccc1[O-] (3D coordinates assigned)
O=C(CC[N-]S(=O)(=O)c1ccccc1)/N=c1\[n-]cccc1[O-] (optimized conformer: 31.07938982155892 kcal/mol)

> <smiles>
O=C(CCNS(=O)(=O)c1ccccc1)N=c1[nH]cccc1O

> <score_type>
oracle

> <origin>
adg

> <m_score__min__energy>
-14.699999999999999

> <m_primary>
energy

> <minimizedAffinity>
-6.76589

> <minimizedRMSD>
1.97475

> <CNNscore>
0.5426685214

> <CNNaffinity>
5.7432780266

> <CNN_VS>
3.1166961193

> <CNNaffinity_variance>
0.1138437390

$$$$
67:0


 29 31  0  0  0  0  0  0  0  0999 V2000
   59.1395   32.9353   47.1220 C   0  0  0  0  0  0  0  0  0  0  0  0
   58.6213   32.9020   45.8212 C   0  0  0  0  0  0  0  0  0  0  0  0
   58.1642   31.7026   45.2722 C   0  0  0  0  0  0  0  0  0  0  0  0
   58.2282   30.5177   46.0146 C   0  0  0  0  0  0  0  0  0  0  0  0
   58.7318   30.5459   47.3220 C   0  0  0  0  0  0  0  0  0  0  0  0
   59.1710   31.7503   47.8897 C   0  0  0  0  0  0  0  0  0  0  0  0
   59.7198   31.7274   49.2586 C   0  0  0  0  0  0  0  0  0  0  0  0
   59.0071   31.4587   50.3752 C   0  0  0  0  0  0  0  0  0  0  0  0
   58.6924   32.5566   51.3271 C   0  0  0  0  0  0  0  0  0  0  0  0
   59.1265   33.7238   51.1340 O   0  0  0  0  0  0  0  0  0  0  0  0
   57.8775   32.3049   52.4729 N   0  0  0  0  0  0  0  0  0  0  0  0
   57.3617   31.0034   52.7425 C   0  0  0  0  0  0  0  0  0  0  0  0
   56.6269   30.8133   53.7449 O   0  0  0  0  0  0  0  0  0  0  0  0
   57.6855   29.9133   51.8812 N   0  0  0  0  0  0  0  0  0  0  0  0
   58.5130   30.0964   50.7304 C   0  0  0  0  0  0  0  0  0  0  0  0
   58.8350   29.0832   50.0549 O   0  0  0  0  0  0  0  0  0  0  0  0
   57.6537   29.0056   45.3227 S   0  0  0  0  0  0  0  0  0  0  0  0
   55.9865   29.1691   44.8972 N   0  0  0  0  0  0  0  0  0  0  0  0
   58.4549   28.6683   44.0957 O   0  0  0  0  0  0  0  0  0  0  0  0
   57.8125   27.8957   46.3224 O   0  0  0  0  0  0  0  0  0  0  0  0
   55.8813   29.9232   44.2185 H   0  0  0  0  0  0  0  0  0  0  0  0
   59.7564   34.5007   47.7641 S   0  0  0  0  0  0  0  0  0  0  0  0
   63.8956   33.5528   50.9113 C   0  0  0  0  0  0  0  0  0  0  0  0
   63.2640   33.4237   49.5569 C   0  0  0  0  0  0  0  0  0  0  0  0
   63.9826   32.8578   48.4923 C   0  0  0  0  0  0  0  0  0  0  0  0
   63.4064   32.7709   47.2222 C   0  0  0  0  0  0  0  0  0  0  0  0
   62.1168   33.2617   47.0024 C   0  0  0  0  0  0  0  0  0  0  0  0
   61.4033   33.8526   48.0511 C   0  0  0  0  0  0  0  0  0  0  0  0
   61.9753   33.9298   49.3269 C   0  0  0  0  0  0  0  0  0  0  0  0
 23 24  1  0
 24 25  2  0
 25 26  1  0
 26 27  2  0
 27 28  1  0
 28 22  1  0
 22  1  1  0
  1  2  2  0
  2  3  1  0
  3  4  2  0
  4 17  1  0
 17 18  1  0
 17 19  2  0
 17 20  2  0
  4  5  1  0
  5  6  2  0
  6  7  1  0
  7  8  2  0
  8  9  1  0
  9 10  2  0
  9 11  1  0
 11 12  1  0
 12 13  2  0
 12 14  1  0
 14 15  1  0
 15 16  2  0
 28 29  2  0
 29 24  1  0
  6  1  1  0
 15  8  1  0
 18 21  1  0
M  CHG 1  11  -1
M  CHG 1  14  -1
M  CHG 1  18  -1
M  END
> <UniqueID>
61

> <SMILES>
Cc1cccc(Sc2ccc(S([NH-])(=O)=O)cc2C=C2C(=O)[N-]C(=O)[N-]C2=O)c1

> <Energy>
45.305732680006656

> <Genealogy>
Cc1cccc(Sc2ccc(S([NH-])(=O)=O)cc2C=C2C(=O)[N-]C(=O)[N-]C2=O)c1 (protonated)
Cc1cccc(Sc2ccc(S([NH-])(=O)=O)cc2C=C2C(=O)[N-]C(=O)[N-]C2=O)c1 (3D coordinates assigned)
Cc1cccc(Sc2ccc(S([NH-])(=O)=O)cc2C=C2C(=O)[N-]C(=O)[N-]C2=O)c1 (nonaromatic ring conformer: 45.305732680006656 kcal/mol)

> <smiles>
Cc1cccc(Sc2ccc(S(N)(=O)=O)cc2C=C2C(=O)NC(=O)NC2=O)c1

> <score_type>
oracle

> <origin>
adg

> <m_score__min__energy>
-14.91

> <m_primary>
energy

> <minimizedAffinity>
-8.14692

> <minimizedRMSD>
0.72282

> <CNNscore>
0.8186246753

> <CNNaffinity>
6.9235310555

> <CNN_VS>
5.6677732468

> <CNNaffinity_variance>
0.0582335405

$$$$
83:0


 32 35  0  0  0  0  0  0  0  0999 V2000
   56.0611   28.4192   44.9397 N   0  0  0  0  0  0  0  0  0  0  0  0
   56.8074   27.5403   45.7884 C   0  0  0  0  0  0  0  0  0  0  0  0
   58.1050   27.9051   46.1658 C   0  0  0  0  0  0  0  0  0  0  0  0
   58.8746   27.0625   46.9826 C   0  0  0  0  0  0  0  0  0  0  0  0
   58.3405   25.8413   47.4101 C   0  0  0  0  0  0  0  0  0  0  0  0
   57.0596   25.4551   47.0082 C   0  0  0  0  0  0  0  0  0  0  0  0
   56.2970   26.2907   46.1863 C   0  0  0  0  0  0  0  0  0  0  0  0
   55.0498   25.8645   45.7479 O   0  0  0  0  0  0  0  0  0  0  0  0
   60.5071   27.5387   47.4640 S   0  0  0  0  0  0  0  0  0  0  0  0
   61.3360   26.3039   47.6847 O   0  0  0  0  0  0  0  0  0  0  0  0
   61.1378   28.3302   46.3524 O   0  0  0  0  0  0  0  0  0  0  0  0
   60.5011   28.4949   48.9265 N   0  0  0  0  0  0  0  0  0  0  0  0
   59.1960   29.1486   49.1104 C   0  0  0  0  0  0  0  0  0  0  0  0
   59.1667   29.9238   50.4435 C   0  0  0  0  0  0  0  0  0  0  0  0
   60.3987   29.8278   51.1355 O   0  0  0  0  0  0  0  0  0  0  0  0
   60.6918   28.4690   51.3973 C   0  0  0  0  0  0  0  0  0  0  0  0
   60.8180   27.6534   50.0923 C   0  0  0  0  0  0  0  0  0  0  0  0
   56.0343   29.9503   43.2032 O   0  0  0  0  0  0  0  0  0  0  0  0
   56.5565   29.6006   44.2945 C   0  0  0  0  0  0  0  0  0  0  0  0
   57.7679   30.3444   44.7986 C   0  0  0  0  0  0  0  0  0  0  0  0
   57.4808   31.8256   45.0883 C   0  0  0  0  0  0  0  0  0  0  0  0
   58.5985   32.4603   45.8056 N   0  0  0  0  0  0  0  0  0  0  0  0
   59.3308   31.6804   46.8145 C   0  0  0  0  0  0  0  0  0  0  0  0
   60.7399   32.1867   47.0259 C   0  0  0  0  0  0  0  0  0  0  0  0
   61.7025   31.3485   47.6131 C   0  0  0  0  0  0  0  0  0  0  0  0
   62.9824   31.8355   47.8968 C   0  0  0  0  0  0  0  0  0  0  0  0
   63.3031   33.1666   47.6154 C   0  0  0  0  0  0  0  0  0  0  0  0
   62.3469   34.0128   47.0454 C   0  0  0  0  0  0  0  0  0  0  0  0
   61.0673   33.5285   46.7497 C   0  0  0  0  0  0  0  0  0  0  0  0
   60.1070   34.3917   46.1442 N   0  0  0  0  0  0  0  0  0  0  0  0
   58.8743   33.8660   45.6611 C   0  0  0  0  0  0  0  0  0  0  0  0
   58.0556   34.6341   45.0878 O   0  0  0  0  0  0  0  0  0  0  0  0
 18 19  2  0
 19 20  1  0
 20 21  1  0
 21 22  1  0
 22 23  1  0
 23 24  1  0
 24 25  2  0
 25 26  1  0
 26 27  2  0
 27 28  1  0
 28 29  2  0
 29 30  1  0
 30 31  1  0
 31 32  2  0
 19  1  1  0
  1  2  1  0
  2  3  2  0
  3  4  1  0
  4  9  1  0
  9 10  2  0
  9 11  2  0
  9 12  1  0
 12 13  1  0
 13 14  1  0
 14 15  1  0
 15 16  1  0
 16 17  1  0
  4  5  2  0
  5  6  1  0
  6  7  2  0
  7  8  1  0
 31 22  1  0
  7  2  1  0
 29 24  1  0
 17 12  1  0
M  CHG 1   1  -1
M  CHG 1   8  -1
M  CHG 1  30  -1
M  END
> <UniqueID>
74

> <SMILES>
O=C(CCN1Cc2ccccc2[N-]C1=O)[N-]c1cc(S(=O)(=O)N2CCOCC2)ccc1[O-]

> <Energy>
70.2588066921398

> <Genealogy>
O=C(CCN1Cc2ccccc2[N-]C1=O)[N-]c1cc(S(=O)(=O)N2CCOCC2)ccc1[O-] (protonated)
O=C(CCN1Cc2ccccc2[N-]C1=O)[N-]c1cc(S(=O)(=O)N2CCOCC2)ccc1[O-] (3D coordinates assigned)
O=C(CCN1Cc2ccccc2[N-]C1=O)[N-]c1cc(S(=O)(=O)N2CCOCC2)ccc1[O-] (nonaromatic ring conformer: 70.2588066921398 kcal/mol)

> <smiles>
O=C(CCN1Cc2ccccc2NC1=O)Nc1cc(S(=O)(=O)N2CCOCC2)ccc1O

> <score_type>
oracle

> <origin>
adg

> <m_score__min__energy>
-16.370000000000001

> <m_primary>
energy

> <minimizedAffinity>
-4.82064

> <minimizedRMSD>
0.77710

> <CNNscore>
0.2414119840

> <CNNaffinity>
5.8194255829

> <CNN_VS>
1.4048790932

> <CNNaffinity_variance>
0.1557903141

$$$$
86:0


 24 25  0  0  0  0  0  0  0  0999 V2000
   57.9968   24.7638   46.6618 C   0  0  0  0  0  0  0  0  0  0  0  0
   58.7275   23.8827   46.1361 O   0  0  0  0  0  0  0  0  0  0  0  0
   58.9830   28.1773   45.7124 N   0  0  0  0  0  0  0  0  0  0  0  0
   59.2941   26.9097   46.0653 C   0  0  0  0  0  0  0  0  0  0  0  0
   58.1319   26.1588   46.1982 C   0  0  0  0  0  0  0  0  0  0  0  0
   57.0873   27.0267   45.9321 C   0  0  0  0  0  0  0  0  0  0  0  0
   55.7307   26.7283   45.9652 O   0  0  0  0  0  0  0  0  0  0  0  0
   57.6396   28.2467   45.6327 C   0  0  0  0  0  0  0  0  0  0  0  0
   56.9293   29.3945   45.3036 O   0  0  0  0  0  0  0  0  0  0  0  0
   59.9308   29.2707   45.5021 C   0  0  0  0  0  0  0  0  0  0  0  0
   59.7707   30.3710   46.5612 C   0  0  0  0  0  0  0  0  0  0  0  0
   61.0201   30.5876   48.7789 C   0  0  0  0  0  0  0  0  0  0  0  0
   61.0912   30.7470   47.2605 C   0  0  0  0  0  0  0  0  0  0  0  0
   57.0871   24.3605   47.6973 N   0  0  0  0  0  0  0  0  0  0  0  0
   56.6070   23.0123   47.9880 C   0  0  0  0  0  0  0  0  0  0  0  0
   55.3689   22.6708   47.1490 C   0  0  0  0  0  0  0  0  0  0  0  0
   55.7276   22.5186   45.6904 C   0  0  0  0  0  0  0  0  0  0  0  0
   56.5719   21.4704   45.2851 C   0  0  0  0  0  0  0  0  0  0  0  0
   56.9237   21.3232   43.9412 C   0  0  0  0  0  0  0  0  0  0  0  0
   56.4448   22.2248   42.9896 C   0  0  0  0  0  0  0  0  0  0  0  0
   55.6157   23.2794   43.3806 C   0  0  0  0  0  0  0  0  0  0  0  0
   55.2582   23.4353   44.7281 C   0  0  0  0  0  0  0  0  0  0  0  0
   54.4464   24.5015   45.1122 O   0  0  0  0  0  0  0  0  0  0  0  0
   54.1361   25.1092   44.4701 H   0  0  0  0  0  0  0  0  0  0  0  0
 12 13  1  0
 13 11  1  0
 11 10  1  0
 10  3  1  0
  3  4  1  0
  4  5  2  0
  5  1  1  0
  1  2  2  0
  1 14  1  0
 14 15  1  0
 15 16  1  0
 16 17  1  0
 17 18  2  0
 18 19  1  0
 19 20  2  0
 20 21  1  0
 21 22  2  0
 22 23  1  0
  5  6  1  0
  6  7  1  0
  6  8  2  0
  8  9  1  0
  8  3  1  0
 22 17  1  0
 23 24  1  0
M  CHG 1   7  -1
M  CHG 1   9  -1
M  CHG 1  14  -1
M  END
> <UniqueID>
77

> <SMILES>
CCCCn1cc(C(=O)[N-]CCc2ccccc2O)c([O-])c1[O-]

> <Energy>
64.8328358186673

> <Genealogy>
CCCCn1cc(C(=O)[N-]CCc2ccccc2O)c([O-])c1[O-] (protonated)
CCCCn1cc(C(=O)[N-]CCc2ccccc2O)c([O-])c1[O-] (3D coordinates assigned)
CCCCn1cc(C(=O)[N-]CCc2ccccc2O)c([O-])c1[O-] (optimized conformer: 64.8328358186673 kcal/mol)

> <smiles>
CCCCn1cc(C(=O)NCCc2ccccc2O)c(O)c1O

> <score_type>
oracle

> <origin>
adg

> <m_score__min__energy>
-14.58

> <m_primary>
energy

> <minimizedAffinity>
-5.65773

> <minimizedRMSD>
2.13848

> <CNNscore>
0.2591730952

> <CNNaffinity>
5.5015873909

> <CNN_VS>
1.4258633852

> <CNNaffinity_variance>
0.0625747293

$$$$
90:0


 24 26  0  0  0  0  0  0  0  0999 V2000
   58.1525   31.6651   44.5155 N   0  0  0  0  0  0  0  0  0  0  0  0
   58.4802   31.8359   45.8075 C   0  0  0  0  0  0  0  0  0  0  0  0
   58.5538   33.1980   46.0015 C   0  0  0  0  0  0  0  0  0  0  0  0
   58.2563   33.8124   44.8382 N   0  0  0  0  0  0  0  0  0  0  0  0
   58.0132   32.8552   43.9544 N   0  0  0  0  0  0  0  0  0  0  0  0
   57.8379   30.4021   43.8578 C   0  0  0  0  0  0  0  0  0  0  0  0
   55.6113   29.5883   44.1474 O   0  0  0  0  0  0  0  0  0  0  0  0
   56.7758   29.6804   44.6242 C   0  0  0  0  0  0  0  0  0  0  0  0
   57.1091   29.0376   45.8592 N   0  0  0  0  0  0  0  0  0  0  0  0
   57.9118   27.8566   45.9994 C   0  0  0  0  0  0  0  0  0  0  0  0
   59.3000   28.0044   46.1148 C   0  0  0  0  0  0  0  0  0  0  0  0
   60.1217   26.8853   46.2737 C   0  0  0  0  0  0  0  0  0  0  0  0
   59.5596   25.6088   46.3382 C   0  0  0  0  0  0  0  0  0  0  0  0
   58.1730   25.4515   46.2598 C   0  0  0  0  0  0  0  0  0  0  0  0
   57.3439   26.5697   46.1095 C   0  0  0  0  0  0  0  0  0  0  0  0
   55.9655   26.3907   46.1120 O   0  0  0  0  0  0  0  0  0  0  0  0
   58.8231   33.9080   47.2936 C   0  0  0  0  0  0  0  0  0  0  0  0
   60.2231   34.5364   47.3206 C   0  0  0  0  0  0  0  0  0  0  0  0
   61.2344   33.6339   47.9813 C   0  0  0  0  0  0  0  0  0  0  0  0
   62.0728   32.8209   47.2006 C   0  0  0  0  0  0  0  0  0  0  0  0
   63.0295   32.0043   47.8112 C   0  0  0  0  0  0  0  0  0  0  0  0
   63.1555   31.9926   49.2025 C   0  0  0  0  0  0  0  0  0  0  0  0
   62.3266   32.7991   49.9859 C   0  0  0  0  0  0  0  0  0  0  0  0
   61.3713   33.6219   49.3799 C   0  0  0  0  0  0  0  0  0  0  0  0
  7  8  2  0
  8  6  1  0
  6  1  1  0
  1  2  1  0
  2  3  2  0
  3 17  1  0
 17 18  1  0
 18 19  1  0
 19 20  2  0
 20 21  1  0
 21 22  2  0
 22 23  1  0
 23 24  2  0
  3  4  1  0
  4  5  2  0
  8  9  1  0
  9 10  1  0
 10 11  2  0
 11 12  1  0
 12 13  2  0
 13 14  1  0
 14 15  2  0
 15 16  1  0
  5  1  1  0
 15 10  1  0
 24 19  1  0
M  CHG 1   9  -1
M  CHG 1  16  -1
M  END
> <UniqueID>
81

> <SMILES>
O=C(Cn1cc(CCc2ccccc2)nn1)[N-]c1ccccc1[O-]

> <Energy>
74.08090170410914

> <Genealogy>
O=C(Cn1cc(CCc2ccccc2)nn1)[N-]c1ccccc1[O-] (protonated)
O=C(Cn1cc(CCc2ccccc2)nn1)[N-]c1ccccc1[O-] (3D coordinates assigned)
O=C(Cn1cc(CCc2ccccc2)nn1)[N-]c1ccccc1[O-] (optimized conformer: 74.08090170410914 kcal/mol)

> <smiles>
O=C(Cn1cc(CCc2ccccc2)nn1)Nc1ccccc1O

> <score_type>
oracle

> <origin>
adg

> <m_score__min__energy>
-15.17

> <m_primary>
energy

> <minimizedAffinity>
-6.96232

> <minimizedRMSD>
1.20811

> <CNNscore>
0.5103826523

> <CNNaffinity>
6.4061388969

> <CNN_VS>
3.2695822716

> <CNNaffinity_variance>
0.0896131173

$$$$
91:0


 22 23  0  0  0  0  0  0  0  0999 V2000
   57.3311   28.9052   43.3791 O   0  0  0  0  0  0  0  0  0  0  0  0
   56.8222   29.3675   44.4356 C   0  0  0  0  0  0  0  0  0  0  0  0
   56.5316   30.8306   44.5386 C   0  0  0  0  0  0  0  0  0  0  0  0
   57.8052   31.8082   43.6675 S   0  0  0  0  0  0  0  0  0  0  0  0
   58.3960   32.6386   45.1416 C   0  0  0  0  0  0  0  0  0  0  0  0
   58.8736   33.9085   45.0628 N   0  0  0  0  0  0  0  0  0  0  0  0
   59.3094   34.5595   46.1713 C   0  0  0  0  0  0  0  0  0  0  0  0
   59.7469   35.7362   46.0760 O   0  0  0  0  0  0  0  0  0  0  0  0
   59.2709   33.9219   47.4131 C   0  0  0  0  0  0  0  0  0  0  0  0
   58.7819   32.6134   47.4749 C   0  0  0  0  0  0  0  0  0  0  0  0
   58.7216   31.9325   48.6877 O   0  0  0  0  0  0  0  0  0  0  0  0
   58.3568   31.9992   46.3393 N   0  0  0  0  0  0  0  0  0  0  0  0
   59.0130   32.3499   49.4743 H   0  0  0  0  0  0  0  0  0  0  0  0
   56.6127   28.5276   45.5758 N   0  0  0  0  0  0  0  0  0  0  0  0
   57.3468   27.3345   45.8835 C   0  0  0  0  0  0  0  0  0  0  0  0
   58.7363   27.4272   46.0385 C   0  0  0  0  0  0  0  0  0  0  0  0
   59.4930   26.2894   46.3373 C   0  0  0  0  0  0  0  0  0  0  0  0
   61.2354   26.4139   46.5025 Cl  0  0  0  0  0  0  0  0  0  0  0  0
   58.8609   25.0543   46.5026 C   0  0  0  0  0  0  0  0  0  0  0  0
   57.4722   24.9588   46.3865 C   0  0  0  0  0  0  0  0  0  0  0  0
   56.7087   26.0944   46.0927 C   0  0  0  0  0  0  0  0  0  0  0  0
   55.3231   25.9853   46.0464 O   0  0  0  0  0  0  0  0  0  0  0  0
  1  2  2  0
  2  3  1  0
  3  4  1  0
  4  5  1  0
  5  6  2  0
  6  7  1  0
  7  8  2  0
  7  9  1  0
  9 10  2  0
 10 11  1  0
 10 12  1  0
  2 14  1  0
 14 15  1  0
 15 16  2  0
 16 17  1  0
 17 18  1  0
 17 19  2  0
 19 20  1  0
 20 21  2  0
 21 22  1  0
 12  5  1  0
 21 15  1  0
 11 13  1  0
M  CHG 1  12  -1
M  CHG 1  14  -1
M  CHG 1  22  -1
M  END
> <UniqueID>
82

> <SMILES>
O=C(CSc1nc(=O)cc(O)[n-]1)[N-]c1cc(Cl)ccc1[O-]

> <Energy>
28.918145937942793

> <Genealogy>
O=C(CSc1nc(=O)cc(O)[n-]1)[N-]c1cc(Cl)ccc1[O-] (protonated)
O=C(CSc1nc(=O)cc(O)[n-]1)[N-]c1cc(Cl)ccc1[O-] (3D coordinates assigned)
O=C(CSc1nc(=O)cc(O)[n-]1)[N-]c1cc(Cl)ccc1[O-] (optimized conformer: 28.918145937942793 kcal/mol)

> <smiles>
O=C(CSc1nc(=O)cc(O)[nH]1)Nc1cc(Cl)ccc1O

> <score_type>
oracle

> <origin>
adg

> <m_score__min__energy>
-14.029999999999999

> <m_primary>
energy

> <minimizedAffinity>
-4.92816

> <minimizedRMSD>
0.74819

> <CNNscore>
0.4265934229

> <CNNaffinity>
5.6343245506

> <CNN_VS>
2.4035658836

> <CNNaffinity_variance>
0.0484953523

$$$$
6:0


 30 33  0  0  0  0  0  0  0  0999 V2000
   57.6724   24.5995   45.0528 C   0  0  0  0  0  0  0  0  0  0  0  0
   58.3361   25.5675   45.7169 C   0  0  0  0  0  0  0  0  0  0  0  0
   59.1120   25.3974   46.8562 C   0  0  0  0  0  0  0  0  0  0  0  0
   59.5632   26.6499   47.2169 C   0  0  0  0  0  0  0  0  0  0  0  0
   60.4417   26.9296   48.3988 C   0  0  0  0  0  0  0  0  0  0  0  0
   59.1096   27.5834   46.3514 N   0  0  0  0  0  0  0  0  0  0  0  0
   58.3513   26.9359   45.4308 C   0  0  0  0  0  0  0  0  0  0  0  0
   57.7553   27.5373   44.3891 C   0  0  0  0  0  0  0  0  0  0  0  0
   55.3772   26.4565   46.0597 O   0  0  0  0  0  0  0  0  0  0  0  0
   55.2560   25.1059   45.7409 C   0  0  0  0  0  0  0  0  0  0  0  0
   54.1118   24.4186   45.8812 N   0  0  0  0  0  0  0  0  0  0  0  0
   54.4691   23.1642   45.5339 C   0  0  0  0  0  0  0  0  0  0  0  0
   53.6600   22.2011   45.5402 O   0  0  0  0  0  0  0  0  0  0  0  0
   55.7663   23.0217   45.1863 N   0  0  0  0  0  0  0  0  0  0  0  0
   56.2589   24.2675   45.2984 C   0  0  0  0  0  0  0  0  0  0  0  0
   54.6286   26.9377   46.3529 H   0  0  0  0  0  0  0  0  0  0  0  0
   59.3727   28.9960   46.4248 C   0  0  0  0  0  0  0  0  0  0  0  0
   58.3479   29.9192   46.1739 C   0  0  0  0  0  0  0  0  0  0  0  0
   58.5974   31.2915   46.2623 C   0  0  0  0  0  0  0  0  0  0  0  0
   59.8791   31.7580   46.5984 C   0  0  0  0  0  0  0  0  0  0  0  0
   60.8999   30.8310   46.8621 C   0  0  0  0  0  0  0  0  0  0  0  0
   60.6483   29.4597   46.7727 C   0  0  0  0  0  0  0  0  0  0  0  0
   60.1377   33.2327   46.7365 C   0  0  0  0  0  0  0  0  0  0  0  0
   61.0965   33.4877   47.8668 C   0  0  0  0  0  0  0  0  0  0  0  0
   62.4813   33.5241   47.6263 C   0  0  0  0  0  0  0  0  0  0  0  0
   63.3744   33.7232   48.6834 C   0  0  0  0  0  0  0  0  0  0  0  0
   62.8941   33.8793   49.9876 C   0  0  0  0  0  0  0  0  0  0  0  0
   63.7834   34.0767   51.0376 O   0  0  0  0  0  0  0  0  0  0  0  0
   61.5188   33.8330   50.2356 C   0  0  0  0  0  0  0  0  0  0  0  0
   60.6227   33.6335   49.1815 C   0  0  0  0  0  0  0  0  0  0  0  0
  9 10  1  0
 10 11  1  0
 11 12  1  0
 12 13  2  0
 12 14  1  0
 14 15  1  0
 15  1  1  0
  1  2  2  0
  2  3  1  0
  3  4  2  0
  4  5  1  0
  4  6  1  0
  6 17  1  0
 17 18  2  0
 18 19  1  0
 19 20  2  0
 20 23  1  0
 23 24  1  0
 24 25  2  0
 25 26  1  0
 26 27  2  0
 27 28  1  0
 27 29  1  0
 29 30  2  0
 20 21  1  0
 21 22  2  0
  6  7  1  0
  7  8  2  0
 15 10  2  0
  7  2  1  0
 22 17  1  0
 30 24  1  0
  9 16  1  0
M  CHG 1  11  -1
M  CHG 1  14  -1
M  CHG 1  28  -1
M  END
> <UniqueID>
7

> <SMILES>
C=c1/c(=C/c2[n-]c(=O)[n-]c2O)cc(C)n1-c1ccc(Cc2ccc([O-])cc2)cc1

> <Energy>
120.56935202410475

> <Genealogy>
C=c1c(=Cc2[n-]c(=O)[n-]c2O)cc(C)n1-c1ccc(Cc2ccc([O-])cc2)cc1 (protonated)
C=c1/c(=C/c2[n-]c(=O)[n-]c2O)cc(C)n1-c1ccc(Cc2ccc([O-])cc2)cc1 (cis-trans isomerization)
C=c1/c(=C/c2[n-]c(=O)[n-]c2O)cc(C)n1-c1ccc(Cc2ccc([O-])cc2)cc1 (3D coordinates assigned)
C=c1/c(=C/c2[n-]c(=O)[n-]c2O)cc(C)n1-c1ccc(Cc2ccc([O-])cc2)cc1 (optimized conformer: 120.56935202410475 kcal/mol)

> <smiles>
C=c1c(=Cc2[nH]c(=O)[nH]c2O)cc(C)n1-c1ccc(Cc2ccc(O)cc2)cc1

> <score_type>
oracle

> <origin>
adg

> <m_score__min__energy>
-14.210000000000001

> <m_primary>
energy

> <minimizedAffinity>
-9.06210

> <minimizedRMSD>
0.38390

> <CNNscore>
0.4624532759

> <CNNaffinity>
6.8347702026

> <CNN_VS>
3.1607618332

> <CNNaffinity_variance>
0.0353659876

$$$$
24:0


 25 27  0  0  0  0  0  0  0  0999 V2000
   58.7171   33.4094   46.6949 C   0  0  0  0  0  0  0  0  0  0  0  0
   58.4262   32.3521   47.5686 C   0  0  0  0  0  0  0  0  0  0  0  0
   59.0348   32.2891   48.8265 C   0  0  0  0  0  0  0  0  0  0  0  0
   59.9469   33.2799   49.2267 C   0  0  0  0  0  0  0  0  0  0  0  0
   60.2228   34.3456   48.3523 C   0  0  0  0  0  0  0  0  0  0  0  0
   59.6069   34.4126   47.1006 C   0  0  0  0  0  0  0  0  0  0  0  0
   57.1608   34.3536   45.1956 O   0  0  0  0  0  0  0  0  0  0  0  0
   58.0656   33.4951   45.3760 C   0  0  0  0  0  0  0  0  0  0  0  0
   58.4462   32.6520   44.2814 N   0  0  0  0  0  0  0  0  0  0  0  0
   57.7028   31.4856   43.8139 C   0  0  0  0  0  0  0  0  0  0  0  0
   58.1039   30.2543   44.5892 C   0  0  0  0  0  0  0  0  0  0  0  0
   59.4549   30.0339   44.9067 C   0  0  0  0  0  0  0  0  0  0  0  0
   59.8405   28.8854   45.6024 C   0  0  0  0  0  0  0  0  0  0  0  0
   58.8799   27.9468   45.9894 C   0  0  0  0  0  0  0  0  0  0  0  0
   57.5338   28.1577   45.6827 C   0  0  0  0  0  0  0  0  0  0  0  0
   57.1413   29.3059   44.9853 C   0  0  0  0  0  0  0  0  0  0  0  0
   55.7960   29.4976   44.6880 O   0  0  0  0  0  0  0  0  0  0  0  0
   60.6145   33.2246   50.5854 C   0  0  0  0  0  0  0  0  0  0  0  0
   62.0094   32.7315   50.5500 N   0  0  0  0  0  0  0  0  0  0  0  0
   63.0265   33.8043   50.6098 C   0  0  0  0  0  0  0  0  0  0  0  0
   64.4260   33.2287   50.3640 C   0  0  0  0  0  0  0  0  0  0  0  0
   64.5441   32.5842   49.0396 N   0  0  0  0  0  0  0  0  0  0  0  0
   63.2597   32.1536   48.4577 C   0  0  0  0  0  0  0  0  0  0  0  0
   62.2719   31.6853   49.5344 C   0  0  0  0  0  0  0  0  0  0  0  0
   65.1423   31.7637   49.1358 H   0  0  0  0  0  0  0  0  0  0  0  0
  7  8  2  0
  8  9  1  0
  9 10  1  0
 10 11  1  0
 11 12  2  0
 12 13  1  0
 13 14  2  0
 14 15  1  0
 15 16  2  0
 16 17  1  0
  8  1  1  0
  1  2  2  0
  2  3  1  0
  3  4  2  0
  4 18  1  0
 18 19  1  0
 19 20  1  0
 20 21  1  0
 21 22  1  0
 22 23  1  0
 23 24  1  0
  4  5  1  0
  5  6  2  0
 16 11  1  0
  6  1  1  0
 24 19  1  0
 22 25  1  0
M  CHG 1   9  -1
M  CHG 1  17  -1
M  END
> <UniqueID>
24

> <SMILES>
O=C([N-]Cc1ccccc1[O-])c1ccc(CN2CCNCC2)cc1

> <Energy>
60.22255837283208

> <Genealogy>
O=C([N-]Cc1ccccc1[O-])c1ccc(CN2CCNCC2)cc1 (protonated)
O=C([N-]Cc1ccccc1[O-])c1ccc(CN2CCNCC2)cc1 (3D coordinates assigned)
O=C([N-]Cc1ccccc1[O-])c1ccc(CN2CCNCC2)cc1 (nonaromatic ring conformer: 60.22255837283208 kcal/mol)

> <smiles>
O=C(NCc1ccccc1O)c1ccc(CN2CCNCC2)cc1

> <score_type>
oracle

> <origin>
adg

> <m_score__min__energy>
-14.130000000000001

> <m_primary>
energy

> <minimizedAffinity>
-7.06735

> <minimizedRMSD>
0.90071

> <CNNscore>
0.2682957351

> <CNNaffinity>
5.8326206207

> <CNN_VS>
1.5648672581

> <CNNaffinity_variance>
0.0003308466

$$$$
25:0


 26 30  0  0  0  0  0  0  0  0999 V2000
   57.9621   26.7595   45.2489 C   0  0  0  0  0  0  0  0  0  0  0  0
   58.8038   27.4339   46.0453 C   0  0  0  0  0  0  0  0  0  0  0  0
   59.7709   26.9416   46.9295 C   0  0  0  0  0  0  0  0  0  0  0  0
   60.3597   27.9823   47.5634 N   0  0  0  0  0  0  0  0  0  0  0  0
   59.8019   29.0964   47.1220 N   0  0  0  0  0  0  0  0  0  0  0  0
   60.0613   30.3768   47.4799 C   0  0  0  0  0  0  0  0  0  0  0  0
   60.9772   30.6468   48.3614 N   0  0  0  0  0  0  0  0  0  0  0  0
   59.3357   31.3684   46.8847 N   0  0  0  0  0  0  0  0  0  0  0  0
   58.3754   31.0698   45.9565 C   0  0  0  0  0  0  0  0  0  0  0  0
   58.1325   29.7672   45.6162 N   0  0  0  0  0  0  0  0  0  0  0  0
   58.8651   28.8022   46.2183 C   0  0  0  0  0  0  0  0  0  0  0  0
   61.0770   27.9204   48.2349 H   0  0  0  0  0  0  0  0  0  0  0  0
   57.5082   25.3824   45.5090 C   0  0  0  0  0  0  0  0  0  0  0  0
   58.3311   24.3190   45.4886 N   0  0  0  0  0  0  0  0  0  0  0  0
   57.5295   23.2951   45.8519 C   0  0  0  0  0  0  0  0  0  0  0  0
   57.9428   22.1103   45.9371 O   0  0  0  0  0  0  0  0  0  0  0  0
   56.2538   23.6419   46.1255 N   0  0  0  0  0  0  0  0  0  0  0  0
   56.2580   24.9679   45.9165 C   0  0  0  0  0  0  0  0  0  0  0  0
   55.1562   25.7838   46.1436 O   0  0  0  0  0  0  0  0  0  0  0  0
   57.5920   32.1872   45.3178 C   0  0  0  0  0  0  0  0  0  0  0  0
   57.6144   33.4899   46.1141 C   0  0  0  0  0  0  0  0  0  0  0  0
   58.3524   34.1738   44.9711 C   0  0  0  0  0  0  0  0  0  0  0  0
   58.3278   32.8774   44.1713 C   0  0  0  0  0  0  0  0  0  0  0  0
   61.6773   31.9251   48.4267 C   0  0  0  0  0  0  0  0  0  0  0  0
   62.9958   31.8370   49.1694 C   0  0  0  0  0  0  0  0  0  0  0  0
   62.9823   31.9459   47.6526 C   0  0  0  0  0  0  0  0  0  0  0  0
  1 13  1  0
 13 14  1  0
 14 15  1  0
 15 16  2  0
 15 17  1  0
 17 18  1  0
 18 19  1  0
  1  2  2  0
  2  3  1  0
  3  4  2  0
  4  5  1  0
  5  6  1  0
  6  7  2  0
  7 24  1  0
 24 25  1  0
 25 26  1  0
  6  8  1  0
  8  9  2  0
  9 20  1  0
 20 21  1  0
 21 22  1  0
 22 23  1  0
  9 10  1  0
 10 11  2  0
 18 13  2  0
 11  2  1  0
 11  5  1  0
 26 24  1  0
 23 20  1  0
  4 12  1  0
M  CHG 1   4   1
M  CHG 1  14  -1
M  CHG 1  17  -1
M  CHG 1  19  -1
M  END
> <UniqueID>
25

> <SMILES>
O=c1[n-]c([O-])c(C=c2c[nH+]n3/c(=N/C4CC4)nc(C4CCC4)nc23)[n-]1

> <Energy>
442.54492573218766

> <Genealogy>
O=c1[n-]c([O-])c(C=c2c[nH+]n3c(=NC4CC4)nc(C4CCC4)nc23)[n-]1 (protonated)
O=c1[n-]c([O-])c(C=c2c[nH+]n3/c(=N/C4CC4)nc(C4CCC4)nc23)[n-]1 (cis-trans isomerization)
O=c1[n-]c([O-])c(C=c2c[nH+]n3/c(=N/C4CC4)nc(C4CCC4)nc23)[n-]1 (3D coordinates assigned)
O=c1[n-]c([O-])c(C=c2c[nH+]n3/c(=N/C4CC4)nc(C4CCC4)nc23)[n-]1 (nonaromatic ring conformer: 442.54492573218766 kcal/mol)

> <smiles>
O=c1[nH]c(O)c(C=c2cnn3c(=NC4CC4)nc(C4CCC4)nc23)[nH]1

> <score_type>
oracle

> <origin>
adg

> <m_score__min__energy>
-14.75

> <m_primary>
energy

> <minimizedAffinity>
-8.90726

> <minimizedRMSD>
1.12880

> <CNNscore>
0.2104741931

> <CNNaffinity>
6.2370200157

> <CNN_VS>
1.3127317429

> <CNNaffinity_variance>
0.1264479309

$$$$
32:0


 34 37  0  0  0  0  0  0  0  0999 V2000
   57.0730   24.2672   46.4661 C   0  0  0  0  0  0  0  0  0  0  0  0
   57.7377   25.1658   45.7122 C   0  0  0  0  0  0  0  0  0  0  0  0
   57.4896   25.4487   44.3794 C   0  0  0  0  0  0  0  0  0  0  0  0
   58.3717   26.4447   44.0153 C   0  0  0  0  0  0  0  0  0  0  0  0
   58.3867   27.0966   42.6662 C   0  0  0  0  0  0  0  0  0  0  0  0
   59.1516   26.8011   45.0644 N   0  0  0  0  0  0  0  0  0  0  0  0
   58.7671   26.0231   46.1155 C   0  0  0  0  0  0  0  0  0  0  0  0
   59.3018   26.0834   47.3462 C   0  0  0  0  0  0  0  0  0  0  0  0
   54.9265   26.1675   45.9817 O   0  0  0  0  0  0  0  0  0  0  0  0
   54.6637   24.7962   45.9791 C   0  0  0  0  0  0  0  0  0  0  0  0
   53.3911   24.3794   45.7579 N   0  0  0  0  0  0  0  0  0  0  0  0
   53.0720   23.0605   45.7381 C   0  0  0  0  0  0  0  0  0  0  0  0
   51.8841   22.7047   45.5260 O   0  0  0  0  0  0  0  0  0  0  0  0
   54.0317   22.1262   45.9510 N   0  0  0  0  0  0  0  0  0  0  0  0
   55.3198   22.4834   46.1803 C   0  0  0  0  0  0  0  0  0  0  0  0
   56.1785   21.5883   46.4038 O   0  0  0  0  0  0  0  0  0  0  0  0
   55.6818   23.8437   46.1860 C   0  0  0  0  0  0  0  0  0  0  0  0
   54.2299   26.7783   45.8414 H   0  0  0  0  0  0  0  0  0  0  0  0
   60.1567   27.8776   45.0497 C   0  0  0  0  0  0  0  0  0  0  0  0
   59.5446   29.1781   45.5066 C   0  0  0  0  0  0  0  0  0  0  0  0
   59.7490   29.6352   46.8157 C   0  0  0  0  0  0  0  0  0  0  0  0
   59.1583   30.8259   47.2473 C   0  0  0  0  0  0  0  0  0  0  0  0
   58.3499   31.5793   46.3815 C   0  0  0  0  0  0  0  0  0  0  0  0
   58.1605   31.1264   45.0621 C   0  0  0  0  0  0  0  0  0  0  0  0
   58.7522   29.9367   44.6304 C   0  0  0  0  0  0  0  0  0  0  0  0
   57.7420   32.7921   46.8652 N   0  0  0  0  0  0  0  0  0  0  0  0
   56.8111   32.7452   47.1822 H   0  0  0  0  0  0  0  0  0  0  0  0
   58.4172   34.0897   46.9166 C   0  0  0  0  0  0  0  0  0  0  0  0
   59.8153   33.9415   47.4580 C   0  0  0  0  0  0  0  0  0  0  0  0
   60.0441   33.9960   48.8427 C   0  0  0  0  0  0  0  0  0  0  0  0
   61.3407   33.8616   49.3485 C   0  0  0  0  0  0  0  0  0  0  0  0
   62.4156   33.6655   48.4774 C   0  0  0  0  0  0  0  0  0  0  0  0
   62.1948   33.5988   47.0992 C   0  0  0  0  0  0  0  0  0  0  0  0
   60.8998   33.7333   46.5892 C   0  0  0  0  0  0  0  0  0  0  0  0
  9 10  1  0
 10 11  1  0
 11 12  1  0
 12 13  2  0
 12 14  1  0
 14 15  1  0
 15 16  2  0
 15 17  1  0
 17  1  1  0
  1  2  2  0
  2  3  1  0
  3  4  2  0
  4  5  1  0
  4  6  1  0
  6 19  1  0
 19 20  1  0
 20 21  2  0
 21 22  1  0
 22 23  2  0
 23 26  1  0
 26 28  1  0
 28 29  1  0
 29 30  2  0
 30 31  1  0
 31 32  2  0
 32 33  1  0
 33 34  2  0
 23 24  1  0
 24 25  2  0
  6  7  1  0
  7  8  2  0
 17 10  2  0
  7  2  1  0
 25 20  1  0
 34 29  1  0
  9 18  1  0
 26 27  1  0
M  CHG 1  11  -1
M  CHG 1  14  -1
M  END
> <UniqueID>
32

> <SMILES>
C=c1/c(=C/c2c(O)[n-]c(=O)[n-]c2=O)cc(C)n1Cc1ccc(NCc2ccccc2)cc1

> <Energy>
96.22613664912166

> <Genealogy>
C=c1c(=Cc2c(O)[n-]c(=O)[n-]c2=O)cc(C)n1Cc1ccc(NCc2ccccc2)cc1 (protonated)
C=c1/c(=C/c2c(O)[n-]c(=O)[n-]c2=O)cc(C)n1Cc1ccc(NCc2ccccc2)cc1 (cis-trans isomerization)
C=c1/c(=C/c2c(O)[n-]c(=O)[n-]c2=O)cc(C)n1Cc1ccc(NCc2ccccc2)cc1 (3D coordinates assigned)
C=c1/c(=C/c2c(O)[n-]c(=O)[n-]c2=O)cc(C)n1Cc1ccc(NCc2ccccc2)cc1 (optimized conformer: 96.22613664912166 kcal/mol)

> <smiles>
C=c1c(=Cc2c(O)[nH]c(=O)[nH]c2=O)cc(C)n1Cc1ccc(NCc2ccccc2)cc1

> <score_type>
oracle

> <origin>
adg

> <m_score__min__energy>
-14.289999999999999

> <m_primary>
energy

> <minimizedAffinity>
-7.42903

> <minimizedRMSD>
0.65533

> <CNNscore>
0.2491462082

> <CNNaffinity>
6.5933799744

> <CNN_VS>
1.6427155733

> <CNNaffinity_variance>
0.0302335080

$$$$
57:0


 30 32  0  0  0  0  0  0  0  0999 V2000
   61.4296   33.2818   51.6677 C   0  0  0  0  0  0  0  0  0  0  0  0
   60.0530   32.6672   51.6572 C   0  0  0  0  0  0  0  0  0  0  0  0
   59.0277   33.3099   52.3725 C   0  0  0  0  0  0  0  0  0  0  0  0
   57.7435   32.7692   52.4236 C   0  0  0  0  0  0  0  0  0  0  0  0
   57.4491   31.5791   51.7453 C   0  0  0  0  0  0  0  0  0  0  0  0
   58.4657   30.9247   51.0409 C   0  0  0  0  0  0  0  0  0  0  0  0
   59.7662   31.4584   50.9663 C   0  0  0  0  0  0  0  0  0  0  0  0
   56.1400   30.9875   51.8066 N   0  0  0  0  0  0  0  0  0  0  0  0
   55.6927   30.1337   52.8736 C   0  0  0  0  0  0  0  0  0  0  0  0
   56.3406   30.0610   53.9524 O   0  0  0  0  0  0  0  0  0  0  0  0
   55.5116   31.1786   51.0732 H   0  0  0  0  0  0  0  0  0  0  0  0
   54.4499   29.3148   52.7062 C   0  0  0  0  0  0  0  0  0  0  0  0
   53.2364   30.2044   52.7590 C   0  0  0  0  0  0  0  0  0  0  0  0
   52.8071   30.8820   51.6091 C   0  0  0  0  0  0  0  0  0  0  0  0
   51.7330   31.7107   51.6656 N   0  0  0  0  0  0  0  0  0  0  0  0
   51.0625   31.9072   52.8300 C   0  0  0  0  0  0  0  0  0  0  0  0
   50.0682   32.6778   52.8598 O   0  0  0  0  0  0  0  0  0  0  0  0
   51.4653   31.2744   53.9614 N   0  0  0  0  0  0  0  0  0  0  0  0
   52.5335   30.4358   53.9560 C   0  0  0  0  0  0  0  0  0  0  0  0
   52.8846   29.8737   55.0277 O   0  0  0  0  0  0  0  0  0  0  0  0
   60.7854   30.7279   50.1672 C   0  0  0  0  0  0  0  0  0  0  0  0
   61.4474   29.7901   50.6889 O   0  0  0  0  0  0  0  0  0  0  0  0
   61.0313   31.1254   48.8064 N   0  0  0  0  0  0  0  0  0  0  0  0
   60.2117   31.7495   48.0081 C   0  0  0  0  0  0  0  0  0  0  0  0
   60.0179   33.1279   48.1694 C   0  0  0  0  0  0  0  0  0  0  0  0
   59.1412   33.8031   47.3189 C   0  0  0  0  0  0  0  0  0  0  0  0
   58.4661   33.1030   46.3170 C   0  0  0  0  0  0  0  0  0  0  0  0
   57.3624   33.9384   45.2396 Cl  0  0  0  0  0  0  0  0  0  0  0  0
   58.6801   31.7299   46.1831 C   0  0  0  0  0  0  0  0  0  0  0  0
   59.5392   31.0893   47.0228 N   0  0  0  0  0  0  0  0  0  0  0  0
  1  2  1  0
  2  3  2  0
  3  4  1  0
  4  5  2  0
  5  8  1  0
  8  9  1  0
  9 10  2  0
  9 12  1  0
 12 13  1  0
 13 14  2  0
 14 15  1  0
 15 16  1  0
 16 17  2  0
 16 18  1  0
 18 19  1  0
 19 20  2  0
  5  6  1  0
  6  7  2  0
  7 21  1  0
 21 22  2  0
 21 23  1  0
 23 24  2  0
 24 25  1  0
 25 26  2  0
 26 27  1  0
 27 28  1  0
 27 29  2  0
 29 30  1  0
  7  2  1  0
 30 24  1  0
 19 13  1  0
  8 11  1  0
M  CHG 1  15  -1
M  CHG 1  18  -1
M  CHG 1  30  -1
M  END
> <UniqueID>
56

> <SMILES>
Cc1ccc(NC(=O)Cc2c[n-]c(=O)[n-]c2=O)cc1C(=O)N=c1ccc(Cl)c[n-]1

> <Energy>
56.13231716477634

> <Genealogy>
Cc1ccc(NC(=O)Cc2c[n-]c(=O)[n-]c2=O)cc1C(=O)N=c1ccc(Cl)c[n-]1 (protonated)
Cc1ccc(NC(=O)Cc2c[n-]c(=O)[n-]c2=O)cc1C(=O)N=c1ccc(Cl)c[n-]1 (3D coordinates assigned)
Cc1ccc(NC(=O)Cc2c[n-]c(=O)[n-]c2=O)cc1C(=O)N=c1ccc(Cl)c[n-]1 (optimized conformer: 56.13231716477634 kcal/mol)

> <smiles>
Cc1ccc(NC(=O)Cc2c[nH]c(=O)[nH]c2=O)cc1C(=O)N=c1ccc(Cl)c[nH]1

> <score_type>
oracle

> <origin>
adg

> <m_score__min__energy>
-14.57

> <m_primary>
energy

> <minimizedAffinity>
-7.75986

> <minimizedRMSD>
1.79558

> <CNNscore>
0.7081382871

> <CNNaffinity>
6.7175574303

> <CNN_VS>
4.7569594383

> <CNNaffinity_variance>
0.0578142703

$$$$
67:0


 26 27  0  0  0  0  0  0  0  0999 V2000
   57.7629   26.1506   44.7101 N   0  0  0  0  0  0  0  0  0  0  0  0
   56.8780   26.1241   44.2036 H   0  0  0  0  0  0  0  0  0  0  0  0
   57.7612   24.9213   45.9395 S   0  0  0  0  0  0  0  0  0  0  0  0
   58.9209   23.9961   45.6996 O   0  0  0  0  0  0  0  0  0  0  0  0
   57.9560   25.5566   47.2884 O   0  0  0  0  0  0  0  0  0  0  0  0
   57.4539   21.7186   45.7015 C   0  0  0  0  0  0  0  0  0  0  0  0
   56.2164   22.5649   45.7550 C   0  0  0  0  0  0  0  0  0  0  0  0
   55.0160   21.9307   45.6979 N   0  0  0  0  0  0  0  0  0  0  0  0
   53.8462   22.6133   45.7480 C   0  0  0  0  0  0  0  0  0  0  0  0
   52.7532   21.9930   45.6924 O   0  0  0  0  0  0  0  0  0  0  0  0
   53.8546   23.9628   45.8618 N   0  0  0  0  0  0  0  0  0  0  0  0
   55.0197   24.6558   45.9198 C   0  0  0  0  0  0  0  0  0  0  0  0
   54.9790   25.9092   46.0393 O   0  0  0  0  0  0  0  0  0  0  0  0
   56.2524   23.9780   45.8503 C   0  0  0  0  0  0  0  0  0  0  0  0
   57.9309   27.4678   45.3263 C   0  0  0  0  0  0  0  0  0  0  0  0
   58.0887   28.5360   44.2430 C   0  0  0  0  0  0  0  0  0  0  0  0
   57.1713   29.6873   44.5101 C   0  0  0  0  0  0  0  0  0  0  0  0
   55.9647   29.4677   44.8011 O   0  0  0  0  0  0  0  0  0  0  0  0
   57.6762   31.0250   44.4253 N   0  0  0  0  0  0  0  0  0  0  0  0
   58.2774   31.7780   45.4889 C   0  0  0  0  0  0  0  0  0  0  0  0
   58.8260   31.1545   46.6262 C   0  0  0  0  0  0  0  0  0  0  0  0
   59.4252   31.9245   47.6286 C   0  0  0  0  0  0  0  0  0  0  0  0
   59.4935   33.3160   47.5006 C   0  0  0  0  0  0  0  0  0  0  0  0
   60.2474   34.2781   48.7576 Cl  0  0  0  0  0  0  0  0  0  0  0  0
   58.9713   33.9363   46.3617 C   0  0  0  0  0  0  0  0  0  0  0  0
   58.3728   33.1692   45.3574 C   0  0  0  0  0  0  0  0  0  0  0  0
  6  7  1  0
  7  8  1  0
  8  9  1  0
  9 10  2  0
  9 11  1  0
 11 12  1  0
 12 13  2  0
 12 14  1  0
 14  3  1  0
  3  4  2  0
  3  5  2  0
  3  1  1  0
  1 15  1  0
 15 16  1  0
 16 17  1  0
 17 18  2  0
 17 19  1  0
 19 20  1  0
 20 21  2  0
 21 22  1  0
 22 23  2  0
 23 24  1  0
 23 25  1  0
 25 26  2  0
 14  7  2  0
 26 20  1  0
  1  2  1  0
M  CHG 1   8  -1
M  CHG 1  11  -1
M  CHG 1  19  -1
M  END
> <UniqueID>
65

> <SMILES>
Cc1[n-]c(=O)[n-]c(=O)c1S(=O)(=O)NCCC(=O)[N-]c1ccc(Cl)cc1

> <Energy>
38.97107516174912

> <Genealogy>
Cc1[n-]c(=O)[n-]c(=O)c1S(=O)(=O)NCCC(=O)[N-]c1ccc(Cl)cc1 (protonated)
Cc1[n-]c(=O)[n-]c(=O)c1S(=O)(=O)NCCC(=O)[N-]c1ccc(Cl)cc1 (3D coordinates assigned)
Cc1[n-]c(=O)[n-]c(=O)c1S(=O)(=O)NCCC(=O)[N-]c1ccc(Cl)cc1 (optimized conformer: 38.97107516174912 kcal/mol)

> <smiles>
Cc1[nH]c(=O)[nH]c(=O)c1S(=O)(=O)NCCC(=O)Nc1ccc(Cl)cc1

> <score_type>
oracle

> <origin>
adg

> <m_score__min__energy>
-14.65

> <m_primary>
energy

> <minimizedAffinity>
-7.39472

> <minimizedRMSD>
1.00712

> <CNNscore>
0.3533614278

> <CNNaffinity>
6.6093139648

> <CNN_VS>
2.3354766369

> <CNNaffinity_variance>
0.4546581507

$$$$
79:0


 24 26  0  0  0  0  0  0  0  0999 V2000
   56.9079   19.8964   45.8180 O   0  0  0  0  0  0  0  0  0  0  0  0
   56.7192   21.1384   45.9046 C   0  0  0  0  0  0  0  0  0  0  0  0
   57.7909   21.9878   45.8654 N   0  0  0  0  0  0  0  0  0  0  0  0
   57.5673   23.3200   45.9601 C   0  0  0  0  0  0  0  0  0  0  0  0
   58.5128   24.2794   45.9377 N   0  0  0  0  0  0  0  0  0  0  0  0
   57.8129   25.4369   46.0563 C   0  0  0  0  0  0  0  0  0  0  0  0
   56.4491   25.1870   46.1590 C   0  0  0  0  0  0  0  0  0  0  0  0
   55.4340   26.1273   46.2983 O   0  0  0  0  0  0  0  0  0  0  0  0
   56.3092   23.8284   46.0914 C   0  0  0  0  0  0  0  0  0  0  0  0
   55.2134   22.9749   46.1323 C   0  0  0  0  0  0  0  0  0  0  0  0
   54.0428   23.4218   46.2538 O   0  0  0  0  0  0  0  0  0  0  0  0
   55.4427   21.6313   46.0375 N   0  0  0  0  0  0  0  0  0  0  0  0
   54.6823   21.0066   46.0647 H   0  0  0  0  0  0  0  0  0  0  0  0
   58.4566   26.7898   46.0930 C   0  0  0  0  0  0  0  0  0  0  0  0
   57.8968   27.6863   45.0170 C   0  0  0  0  0  0  0  0  0  0  0  0
   56.9892   28.5825   45.2275 N   0  0  0  0  0  0  0  0  0  0  0  0
   56.8675   29.8269   44.4942 C   0  0  0  0  0  0  0  0  0  0  0  0
   58.2441   30.4665   44.3119 C   0  0  0  0  0  0  0  0  0  0  0  0
   58.3713   31.7366   45.1146 C   0  0  0  0  0  0  0  0  0  0  0  0
   58.7357   31.6817   46.4698 C   0  0  0  0  0  0  0  0  0  0  0  0
   58.8841   32.8606   47.2081 C   0  0  0  0  0  0  0  0  0  0  0  0
   58.6792   34.1007   46.5961 C   0  0  0  0  0  0  0  0  0  0  0  0
   58.3279   34.1628   45.2448 C   0  0  0  0  0  0  0  0  0  0  0  0
   58.1775   32.9868   44.5025 C   0  0  0  0  0  0  0  0  0  0  0  0
  1  2  2  0
  2  3  1  0
  3  4  1  0
  4  5  1  0
  5  6  1  0
  6 14  1  0
 14 15  1  0
 15 16  2  0
 16 17  1  0
 17 18  1  0
 18 19  1  0
 19 20  2  0
 20 21  1  0
 21 22  2  0
 22 23  1  0
 23 24  2  0
  6  7  2  0
  7  8  1  0
  7  9  1  0
  9 10  1  0
 10 11  2  0
 10 12  1  0
 12  2  1  0
  9  4  2  0
 24 19  1  0
 12 13  1  0
M  CHG 1   3  -1
M  CHG 1   5  -1
M  CHG 1   8  -1
M  END
> <UniqueID>
77

> <SMILES>
O=c1[n-]c2[n-]c(CC=NCCc3ccccc3)c([O-])c2c(=O)[nH]1

> <Energy>
70.76028913140527

> <Genealogy>
O=c1[n-]c2[n-]c(CC=NCCc3ccccc3)c([O-])c2c(=O)[nH]1 (protonated)
O=c1[n-]c2[n-]c(CC=NCCc3ccccc3)c([O-])c2c(=O)[nH]1 (3D coordinates assigned)
O=c1[n-]c2[n-]c(CC=NCCc3ccccc3)c([O-])c2c(=O)[nH]1 (optimized conformer: 70.76028913140527 kcal/mol)

> <smiles>
O=c1[nH]c(=O)c2c(O)c(CC=NCCc3ccccc3)[nH]c2[nH]1

> <score_type>
oracle

> <origin>
adg

> <m_score__min__energy>
-14.49

> <m_primary>
energy

> <minimizedAffinity>
-7.20131

> <minimizedRMSD>
1.09816

> <CNNscore>
0.2039840817

> <CNNaffinity>
5.7439479828

> <CNN_VS>
1.1716740131

> <CNNaffinity_variance>
0.1290566474

$$$$
80:0


 28 31  0  0  0  0  0  0  0  0999 V2000
   58.0053   28.1518   46.1509 C   0  0  0  0  0  0  0  0  0  0  0  0
   57.2331   27.0863   45.8682 N   0  0  0  0  0  0  0  0  0  0  0  0
   57.7717   26.0943   46.6027 C   0  0  0  0  0  0  0  0  0  0  0  0
   57.3177   24.9213   46.5983 O   0  0  0  0  0  0  0  0  0  0  0  0
   58.8405   26.4573   47.3346 N   0  0  0  0  0  0  0  0  0  0  0  0
   58.9879   27.7664   47.0544 C   0  0  0  0  0  0  0  0  0  0  0  0
   56.6757   29.7617   45.0311 O   0  0  0  0  0  0  0  0  0  0  0  0
   57.7742   29.5013   45.5857 C   0  0  0  0  0  0  0  0  0  0  0  0
   58.7709   30.5301   45.6249 N   0  0  0  0  0  0  0  0  0  0  0  0
   58.5783   31.8877   46.1227 C   0  0  0  0  0  0  0  0  0  0  0  0
   59.7774   32.2916   46.9122 C   0  0  0  0  0  0  0  0  0  0  0  0
   60.9531   31.6084   46.8636 N   0  0  0  0  0  0  0  0  0  0  0  0
   61.6997   32.2536   47.7708 C   0  0  0  0  0  0  0  0  0  0  0  0
   63.0134   31.9779   48.1470 C   0  0  0  0  0  0  0  0  0  0  0  0
   63.5924   32.7885   49.1414 C   0  0  0  0  0  0  0  0  0  0  0  0
   62.8511   33.8389   49.7273 C   0  0  0  0  0  0  0  0  0  0  0  0
   61.5242   34.0861   49.3226 C   0  0  0  0  0  0  0  0  0  0  0  0
   60.9840   33.2653   48.3360 C   0  0  0  0  0  0  0  0  0  0  0  0
   59.7495   33.3084   47.8130 N   0  0  0  0  0  0  0  0  0  0  0  0
   60.1102   28.5983   47.6057 C   0  0  0  0  0  0  0  0  0  0  0  0
   60.3122   28.3589   49.0793 C   0  0  0  0  0  0  0  0  0  0  0  0
   60.8121   27.2592   49.4378 O   0  0  0  0  0  0  0  0  0  0  0  0
   59.9468   29.3339   50.0843 N   0  0  0  0  0  0  0  0  0  0  0  0
   58.9295   30.3545   49.7920 C   0  0  0  0  0  0  0  0  0  0  0  0
   58.9421   31.4681   50.8409 C   0  0  0  0  0  0  0  0  0  0  0  0
   58.9043   30.9303   52.1474 O   0  0  0  0  0  0  0  0  0  0  0  0
   60.1111   30.2421   52.3961 C   0  0  0  0  0  0  0  0  0  0  0  0
   60.2387   29.0112   51.4901 C   0  0  0  0  0  0  0  0  0  0  0  0
  7  8  2  0
  8  9  1  0
  9 10  1  0
 10 11  1  0
 11 12  2  0
 12 13  1  0
 13 14  2  0
 14 15  1  0
 15 16  2  0
 16 17  1  0
 17 18  2  0
 18 19  1  0
  8  1  1  0
  1  2  1  0
  2  3  1  0
  3  4  2  0
  3  5  1  0
  5  6  1  0
  6 20  1  0
 20 21  1  0
 21 22  2  0
 21 23  1  0
 23 24  1  0
 24 25  1  0
 25 26  1  0
 26 27  1  0
 27 28  1  0
 19 11  1  0
  6  1  2  0
 28 23  1  0
 18 13  1  0
M  CHG 1   2  -1
M  CHG 1   5  -1
M  CHG 1   9  -1
M  CHG 1  19  -1
M  END
> <UniqueID>
78

> <SMILES>
O=C([N-]Cc1nc2ccccc2[n-]1)c1[n-]c(=O)[n-]c1CC(=O)N1CCOCC1

> <Energy>
111.91148771303078

> <Genealogy>
O=C([N-]Cc1nc2ccccc2[n-]1)c1[n-]c(=O)[n-]c1CC(=O)N1CCOCC1 (protonated)
O=C([N-]Cc1nc2ccccc2[n-]1)c1[n-]c(=O)[n-]c1CC(=O)N1CCOCC1 (3D coordinates assigned)
O=C([N-]Cc1nc2ccccc2[n-]1)c1[n-]c(=O)[n-]c1CC(=O)N1CCOCC1 (nonaromatic ring conformer: 111.91148771303078 kcal/mol)

> <smiles>
O=C(NCc1nc2ccccc2[nH]1)c1[nH]c(=O)[nH]c1CC(=O)N1CCOCC1

> <score_type>
oracle

> <origin>
adg

> <m_score__min__energy>
-14.57

> <m_primary>
energy

> <minimizedAffinity>
-7.00845

> <minimizedRMSD>
2.32773

> <CNNscore>
0.3264783025

> <CNNaffinity>
6.1043190956

> <CNN_VS>
1.9929277897

> <CNNaffinity_variance>
0.0504576527

$$$$
29:0


 33 36  0  0  0  0  0  0  0  0999 V2000
   57.9632   30.7882   45.2243 C   0  0  0  0  0  0  0  0  0  0  0  0
   58.7410   31.3075   46.2767 C   0  0  0  0  0  0  0  0  0  0  0  0
   59.2236   32.6229   46.2290 C   0  0  0  0  0  0  0  0  0  0  0  0
   58.9300   33.4272   45.1225 C   0  0  0  0  0  0  0  0  0  0  0  0
   58.1701   32.9190   44.0684 C   0  0  0  0  0  0  0  0  0  0  0  0
   57.6887   31.6078   44.1109 C   0  0  0  0  0  0  0  0  0  0  0  0
   56.9860   31.1412   43.0494 F   0  0  0  0  0  0  0  0  0  0  0  0
   60.1988   33.2562   47.5584 S   0  0  0  0  0  0  0  0  0  0  0  0
   61.4576   33.8657   47.0065 O   0  0  0  0  0  0  0  0  0  0  0  0
   59.4262   34.3390   48.2607 O   0  0  0  0  0  0  0  0  0  0  0  0
   60.6123   32.0017   48.7028 N   0  0  0  0  0  0  0  0  0  0  0  0
   59.6009   31.9311   49.7736 C   0  0  0  0  0  0  0  0  0  0  0  0
   60.0944   31.0101   50.8996 C   0  0  0  0  0  0  0  0  0  0  0  0
   60.8570   29.8807   50.3506 N   0  0  0  0  0  0  0  0  0  0  0  0
   60.6330   29.4893   48.9530 C   0  0  0  0  0  0  0  0  0  0  0  0
   60.7761   30.7030   48.0093 C   0  0  0  0  0  0  0  0  0  0  0  0
   61.5057   32.2291   49.1394 H   0  0  0  0  0  0  0  0  0  0  0  0
   61.7465   29.1275   51.1982 C   0  0  0  0  0  0  0  0  0  0  0  0
   61.3905   27.8433   51.6453 C   0  0  0  0  0  0  0  0  0  0  0  0
   62.2508   27.1200   52.4779 C   0  0  0  0  0  0  0  0  0  0  0  0
   63.4688   27.6743   52.8766 C   0  0  0  0  0  0  0  0  0  0  0  0
   63.8279   28.9541   52.4469 C   0  0  0  0  0  0  0  0  0  0  0  0
   62.9716   29.6797   51.6137 C   0  0  0  0  0  0  0  0  0  0  0  0
   57.4593   29.3924   45.3076 C   0  0  0  0  0  0  0  0  0  0  0  0
   56.5402   29.0130   44.5334 O   0  0  0  0  0  0  0  0  0  0  0  0
   59.6597   25.3740   46.0937 C   0  0  0  0  0  0  0  0  0  0  0  0
   59.3767   26.6979   46.2117 N   0  0  0  0  0  0  0  0  0  0  0  0
   58.1048   27.1828   46.1870 C   0  0  0  0  0  0  0  0  0  0  0  0
   57.9463   28.4734   46.2963 N   0  0  0  0  0  0  0  0  0  0  0  0
   57.0275   26.2657   46.0639 C   0  0  0  0  0  0  0  0  0  0  0  0
   55.6988   26.6669   46.1077 O   0  0  0  0  0  0  0  0  0  0  0  0
   57.3080   24.9023   45.9288 C   0  0  0  0  0  0  0  0  0  0  0  0
   58.6259   24.4523   45.9413 C   0  0  0  0  0  0  0  0  0  0  0  0
 26 27  1  0
 27 28  1  0
 28 29  2  0
 29 24  1  0
 24 25  2  0
 24  1  1  0
  1  2  2  0
  2  3  1  0
  3  8  1  0
  8  9  2  0
  8 10  2  0
  8 11  1  0
 11 12  1  0
 12 13  1  0
 13 14  1  0
 14 18  1  0
 18 19  2  0
 19 20  1  0
 20 21  2  0
 21 22  1  0
 22 23  2  0
 14 15  1  0
 15 16  1  0
  3  4  2  0
  4  5  1  0
  5  6  2  0
  6  7  1  0
 28 30  1  0
 30 31  1  0
 30 32  2  0
 32 33  1  0
 33 26  2  0
  6  1  1  0
 16 11  1  0
 23 18  1  0
 11 17  1  0
M  CHG 1  11   1
M  CHG 1  27  -1
M  CHG 1  31  -1
M  END
> <UniqueID>
30

> <SMILES>
O=C(/N=c1/[n-]cccc1[O-])c1cc(S(=O)(=O)[NH+]2CCN(c3ccccc3)CC2)ccc1F

> <Energy>
79.78990229915999

> <Genealogy>
O=C(N=c1[n-]cccc1[O-])c1cc(S(=O)(=O)[NH+]2CCN(c3ccccc3)CC2)ccc1F (protonated)
O=C(/N=c1/[n-]cccc1[O-])c1cc(S(=O)(=O)[NH+]2CCN(c3ccccc3)CC2)ccc1F (cis-trans isomerization)
O=C(/N=c1/[n-]cccc1[O-])c1cc(S(=O)(=O)[NH+]2CCN(c3ccccc3)CC2)ccc1F (3D coordinates assigned)
O=C(/N=c1/[n-]cccc1[O-])c1cc(S(=O)(=O)[NH+]2CCN(c3ccccc3)CC2)ccc1F (nonaromatic ring conformer: 79.78990229915999 kcal/mol)

> <smiles>
O=C(N=c1[nH]cccc1O)c1cc(S(=O)(=O)N2CCN(c3ccccc3)CC2)ccc1F

> <score_type>
oracle

> <origin>
adg

> <m_score__min__energy>
-14.27

> <m_primary>
energy

> <minimizedAffinity>
-8.13856

> <minimizedRMSD>
2.36853

> <CNNscore>
0.2293909937

> <CNNaffinity>
6.5439167023

> <CNN_VS>
1.5011155605

> <CNNaffinity_variance>
0.0508089550

$$$$
34:0


 28 30  0  0  0  0  0  0  0  0999 V2000
   57.7224   29.1887   44.6101 N   0  0  0  0  0  0  0  0  0  0  0  0
   60.0113   28.7027   44.6231 O   0  0  0  0  0  0  0  0  0  0  0  0
   58.8356   28.3237   44.8695 C   0  0  0  0  0  0  0  0  0  0  0  0
   58.5969   26.9454   45.3984 C   0  0  0  0  0  0  0  0  0  0  0  0
   57.3767   26.9203   46.1995 N   0  0  0  0  0  0  0  0  0  0  0  0
   56.4949   25.7964   46.2564 C   0  0  0  0  0  0  0  0  0  0  0  0
   55.2464   25.9650   46.1939 O   0  0  0  0  0  0  0  0  0  0  0  0
   57.0500   24.4805   46.3433 N   0  0  0  0  0  0  0  0  0  0  0  0
   56.9216   23.4346   45.3677 C   0  0  0  0  0  0  0  0  0  0  0  0
   56.6214   23.7840   44.0441 C   0  0  0  0  0  0  0  0  0  0  0  0
   56.5094   22.7964   43.0600 C   0  0  0  0  0  0  0  0  0  0  0  0
   56.7153   21.4534   43.3885 C   0  0  0  0  0  0  0  0  0  0  0  0
   57.0332   21.0979   44.7010 C   0  0  0  0  0  0  0  0  0  0  0  0
   57.1425   22.0817   45.6888 C   0  0  0  0  0  0  0  0  0  0  0  0
   57.8563   30.6154   44.3391 C   0  0  0  0  0  0  0  0  0  0  0  0
   58.3481   31.3308   45.5579 C   0  0  0  0  0  0  0  0  0  0  0  0
   58.8125   32.6291   45.6009 C   0  0  0  0  0  0  0  0  0  0  0  0
   59.0594   32.8367   46.9433 C   0  0  0  0  0  0  0  0  0  0  0  0
   58.7343   31.7478   47.6056 O   0  0  0  0  0  0  0  0  0  0  0  0
   58.3014   30.8200   46.8023 N   0  0  0  0  0  0  0  0  0  0  0  0
   59.5528   34.0662   47.5861 C   0  0  0  0  0  0  0  0  0  0  0  0
   59.2460   35.1736   47.0742 O   0  0  0  0  0  0  0  0  0  0  0  0
   60.3367   34.0578   48.7878 N   0  0  0  0  0  0  0  0  0  0  0  0
   61.1075   32.9281   49.3173 C   0  0  0  0  0  0  0  0  0  0  0  0
   62.2183   32.5687   48.3401 C   0  0  0  0  0  0  0  0  0  0  0  0
   63.4291   33.4036   48.7418 C   0  0  0  0  0  0  0  0  0  0  0  0
   63.1609   33.9258   50.1521 C   0  0  0  0  0  0  0  0  0  0  0  0
   61.8380   33.3190   50.5982 C   0  0  0  0  0  0  0  0  0  0  0  0
  2  3  2  0
  3  4  1  0
  4  5  1  0
  5  6  1  0
  6  7  2  0
  6  8  1  0
  8  9  1  0
  9 10  2  0
 10 11  1  0
 11 12  2  0
 12 13  1  0
 13 14  2  0
  3  1  1  0
  1 15  1  0
 15 16  1  0
 16 17  1  0
 17 18  2  0
 18 21  1  0
 21 22  2  0
 21 23  1  0
 23 24  1  0
 24 25  1  0
 25 26  1  0
 26 27  1  0
 27 28  1  0
 18 19  1  0
 19 20  1  0
 14  9  1  0
 20 16  2  0
 28 24  1  0
M  CHG 1   1  -1
M  CHG 1   5  -1
M  CHG 1   8  -1
M  CHG 1  23  -1
M  END
> <UniqueID>
35

> <SMILES>
O=C(C[N-]C(=O)[N-]c1ccccc1)[N-]Cc1cc(C(=O)[N-]C2CCCC2)on1

> <Energy>
78.31823191105595

> <Genealogy>
O=C(C[N-]C(=O)[N-]c1ccccc1)[N-]Cc1cc(C(=O)[N-]C2CCCC2)on1 (protonated)
O=C(C[N-]C(=O)[N-]c1ccccc1)[N-]Cc1cc(C(=O)[N-]C2CCCC2)on1 (3D coordinates assigned)
O=C(C[N-]C(=O)[N-]c1ccccc1)[N-]Cc1cc(C(=O)[N-]C2CCCC2)on1 (nonaromatic ring conformer: 78.31823191105595 kcal/mol)

> <smiles>
O=C(CNC(=O)Nc1ccccc1)NCc1cc(C(=O)NC2CCCC2)on1

> <score_type>
oracle

> <origin>
adg

> <m_score__min__energy>
-15.470000000000001

> <m_primary>
energy

> <minimizedAffinity>
-7.01719

> <minimizedRMSD>
1.92174

> <CNNscore>
0.5035225749

> <CNNaffinity>
6.8956608772

> <CNN_VS>
3.4721210003

> <CNNaffinity_variance>
0.2380667329

$$$$
38:0


 26 28  0  0  0  0  0  0  0  0999 V2000
   59.9556   27.2119   46.9915 C   0  0  0  0  0  0  0  0  0  0  0  0
   60.3528   27.2213   48.3370 C   0  0  0  0  0  0  0  0  0  0  0  0
   60.4079   28.4244   49.0439 C   0  0  0  0  0  0  0  0  0  0  0  0
   60.0836   29.6266   48.4119 C   0  0  0  0  0  0  0  0  0  0  0  0
   59.7132   29.6399   47.0563 C   0  0  0  0  0  0  0  0  0  0  0  0
   59.6442   28.4235   46.3547 C   0  0  0  0  0  0  0  0  0  0  0  0
   59.3681   30.9131   46.3823 C   0  0  0  0  0  0  0  0  0  0  0  0
   58.6397   30.8861   45.3521 O   0  0  0  0  0  0  0  0  0  0  0  0
   59.8261   32.1782   46.8896 N   0  0  0  0  0  0  0  0  0  0  0  0
   61.2436   32.3789   47.2198 C   0  0  0  0  0  0  0  0  0  0  0  0
   61.4026   33.1762   48.5267 C   0  0  0  0  0  0  0  0  0  0  0  0
   60.2803   34.2072   48.7637 C   0  0  0  0  0  0  0  0  0  0  0  0
   59.5511   34.5809   47.4705 C   0  0  0  0  0  0  0  0  0  0  0  0
   58.9164   33.3321   46.8416 C   0  0  0  0  0  0  0  0  0  0  0  0
   59.9257   25.9225   46.2218 C   0  0  0  0  0  0  0  0  0  0  0  0
   58.7050   25.1962   46.5487 N   0  0  0  0  0  0  0  0  0  0  0  0
   57.0105   26.7761   46.4940 O   0  0  0  0  0  0  0  0  0  0  0  0
   57.3791   25.6104   46.1934 C   0  0  0  0  0  0  0  0  0  0  0  0
   56.4508   24.7427   45.4474 C   0  0  0  0  0  0  0  0  0  0  0  0
   56.9001   23.9070   44.4184 C   0  0  0  0  0  0  0  0  0  0  0  0
   55.9731   23.0905   43.7671 C   0  0  0  0  0  0  0  0  0  0  0  0
   56.3429   22.3321   42.8343 O   0  0  0  0  0  0  0  0  0  0  0  0
   54.6699   23.1094   44.1484 N   0  0  0  0  0  0  0  0  0  0  0  0
   54.2521   23.9088   45.1631 C   0  0  0  0  0  0  0  0  0  0  0  0
   53.0418   23.9051   45.5084 O   0  0  0  0  0  0  0  0  0  0  0  0
   55.1394   24.7102   45.8072 N   0  0  0  0  0  0  0  0  0  0  0  0
 17 18  2  0
 18 16  1  0
 16 15  1  0
 15  1  1  0
  1  2  2  0
  2  3  1  0
  3  4  2  0
  4  5  1  0
  5  7  1  0
  7  8  2  0
  7  9  1  0
  9 10  1  0
 10 11  1  0
 11 12  1  0
 12 13  1  0
 13 14  1  0
  5  6  2  0
 18 19  1  0
 19 20  2  0
 20 21  1  0
 21 22  2  0
 21 23  1  0
 23 24  1  0
 24 25  2  0
 24 26  1  0
  6  1  1  0
 26 19  1  0
 14  9  1  0
M  CHG 1  16  -1
M  CHG 1  23  -1
M  CHG 1  26  -1
M  END
> <UniqueID>
39

> <SMILES>
O=C([N-]Cc1cccc(C(=O)N2CCCCC2)c1)c1cc(=O)[n-]c(=O)[n-]1

> <Energy>
54.074046860116795

> <Genealogy>
O=C([N-]Cc1cccc(C(=O)N2CCCCC2)c1)c1cc(=O)[n-]c(=O)[n-]1 (protonated)
O=C([N-]Cc1cccc(C(=O)N2CCCCC2)c1)c1cc(=O)[n-]c(=O)[n-]1 (3D coordinates assigned)
O=C([N-]Cc1cccc(C(=O)N2CCCCC2)c1)c1cc(=O)[n-]c(=O)[n-]1 (nonaromatic ring conformer: 54.074046860116795 kcal/mol)

> <smiles>
O=C(NCc1cccc(C(=O)N2CCCCC2)c1)c1cc(=O)[nH]c(=O)[nH]1

> <score_type>
oracle

> <origin>
adg

> <m_score__min__energy>
-14.65

> <m_primary>
energy

> <minimizedAffinity>
-8.34335

> <minimizedRMSD>
0.99469

> <CNNscore>
0.2338484228

> <CNNaffinity>
6.2549953461

> <CNN_VS>
1.4627207518

> <CNNaffinity_variance>
0.9674153328

$$$$
45:0


 26 27  0  0  0  0  0  0  0  0999 V2000
   57.5208   30.8225   43.8867 S   0  0  0  0  0  0  0  0  0  0  0  0
   57.8329   31.7337   42.7319 O   0  0  0  0  0  0  0  0  0  0  0  0
   56.2803   30.0301   43.5850 O   0  0  0  0  0  0  0  0  0  0  0  0
   58.8688   29.7121   44.1277 C   0  0  0  0  0  0  0  0  0  0  0  0
   59.1582   29.1307   45.2989 C   0  0  0  0  0  0  0  0  0  0  0  0
   58.6891   27.7875   45.6947 C   0  0  0  0  0  0  0  0  0  0  0  0
   59.6135   26.7816   46.0260 C   0  0  0  0  0  0  0  0  0  0  0  0
   59.1678   25.5191   46.4228 C   0  0  0  0  0  0  0  0  0  0  0  0
   57.8013   25.2435   46.4752 C   0  0  0  0  0  0  0  0  0  0  0  0
   56.8719   26.2270   46.1204 C   0  0  0  0  0  0  0  0  0  0  0  0
   55.5131   25.9312   46.1681 O   0  0  0  0  0  0  0  0  0  0  0  0
   57.3113   27.5020   45.7227 C   0  0  0  0  0  0  0  0  0  0  0  0
   56.3925   28.4934   45.3711 O   0  0  0  0  0  0  0  0  0  0  0  0
   55.4741   28.3083   45.3881 H   0  0  0  0  0  0  0  0  0  0  0  0
   57.2667   31.7448   45.3332 N   0  0  0  0  0  0  0  0  0  0  0  0
   59.9486   33.2661   47.4897 C   0  0  0  0  0  0  0  0  0  0  0  0
   59.9958   34.5580   46.9435 C   0  0  0  0  0  0  0  0  0  0  0  0
   59.1543   34.9053   45.8843 C   0  0  0  0  0  0  0  0  0  0  0  0
   58.2600   33.9675   45.3635 C   0  0  0  0  0  0  0  0  0  0  0  0
   58.1977   32.6748   45.8988 C   0  0  0  0  0  0  0  0  0  0  0  0
   59.0505   32.3251   46.9609 C   0  0  0  0  0  0  0  0  0  0  0  0
   60.8802   32.8931   48.6094 C   0  0  0  0  0  0  0  0  0  0  0  0
   62.0788   32.3238   48.0886 O   0  0  0  0  0  0  0  0  0  0  0  0
   64.0361   33.2464   48.8449 O   0  0  0  0  0  0  0  0  0  0  0  0
   63.2334   33.0607   47.9065 N   0  0  0  0  0  0  0  0  0  0  0  0
   63.4855   33.6250   46.6785 O   0  0  0  0  0  0  0  0  0  0  0  0
 24 25  2  0
 25 26  1  0
 25 23  1  0
 23 22  1  0
 22 16  1  0
 16 17  2  0
 17 18  1  0
 18 19  2  0
 19 20  1  0
 20 15  1  0
 15  1  1  0
  1  2  2  0
  1  3  2  0
  1  4  1  0
  4  5  2  0
  5  6  1  0
  6  7  2  0
  7  8  1  0
  8  9  2  0
  9 10  1  0
 10 11  1  0
 10 12  2  0
 12 13  1  0
 20 21  2  0
 21 16  1  0
 12  6  1  0
 13 14  1  0
M  CHG 1  11  -1
M  CHG 1  15  -1
M  CHG 1  25   1
M  CHG 1  26  -1
M  END
> <UniqueID>
46

> <SMILES>
O=[N+]([O-])OCc1cccc([N-]S(=O)(=O)C=Cc2cccc([O-])c2O)c1

> <Energy>
45.40605364341502

> <Genealogy>
O=[N+]([O-])OCc1cccc([N-]S(=O)(=O)C=Cc2cccc([O-])c2O)c1 (protonated)
O=[N+]([O-])OCc1cccc([N-]S(=O)(=O)C=Cc2cccc([O-])c2O)c1 (3D coordinates assigned)
O=[N+]([O-])OCc1cccc([N-]S(=O)(=O)C=Cc2cccc([O-])c2O)c1 (optimized conformer: 45.40605364341502 kcal/mol)

> <smiles>
O=[N+]([O-])OCc1cccc(NS(=O)(=O)C=Cc2cccc(O)c2O)c1

> <score_type>
oracle

> <origin>
adg

> <m_score__min__energy>
-14.789999999999999

> <m_primary>
energy

> <minimizedAffinity>
-7.87559

> <minimizedRMSD>
0.82811

> <CNNscore>
0.7960400581

> <CNNaffinity>
6.3732604980

> <CNN_VS>
5.0733704567

> <CNNaffinity_variance>
0.2420891076

$$$$
65:0


 27 30  0  0  0  0  0  0  0  0999 V2000
   59.0155   29.2466   47.4752 C   0  0  0  0  0  0  0  0  0  0  0  0
   58.6343   30.1150   46.5243 C   0  0  0  0  0  0  0  0  0  0  0  0
   57.7562   29.8569   45.4618 C   0  0  0  0  0  0  0  0  0  0  0  0
   57.1399   28.6862   45.1894 C   0  0  0  0  0  0  0  0  0  0  0  0
   57.6306   31.0560   44.7690 C   0  0  0  0  0  0  0  0  0  0  0  0
   58.4316   31.9761   45.4136 C   0  0  0  0  0  0  0  0  0  0  0  0
   58.5774   33.4114   45.0059 C   0  0  0  0  0  0  0  0  0  0  0  0
   59.0380   31.4105   46.4802 N   0  0  0  0  0  0  0  0  0  0  0  0
   57.6464   27.3410   45.5455 C   0  0  0  0  0  0  0  0  0  0  0  0
   58.9312   26.9424   45.5100 N   0  0  0  0  0  0  0  0  0  0  0  0
   58.8813   25.6701   45.9580 C   0  0  0  0  0  0  0  0  0  0  0  0
   59.9068   24.9477   46.0630 O   0  0  0  0  0  0  0  0  0  0  0  0
   57.6469   25.2337   46.2849 N   0  0  0  0  0  0  0  0  0  0  0  0
   56.8798   26.3036   46.0239 C   0  0  0  0  0  0  0  0  0  0  0  0
   55.5045   26.3302   46.2176 O   0  0  0  0  0  0  0  0  0  0  0  0
   59.9438   32.0727   47.3786 C   0  0  0  0  0  0  0  0  0  0  0  0
   59.4531   32.7589   48.4984 C   0  0  0  0  0  0  0  0  0  0  0  0
   60.3347   33.3972   49.3764 C   0  0  0  0  0  0  0  0  0  0  0  0
   61.7189   33.3429   49.1527 C   0  0  0  0  0  0  0  0  0  0  0  0
   62.2083   32.6645   48.0250 C   0  0  0  0  0  0  0  0  0  0  0  0
   61.3273   32.0275   47.1472 C   0  0  0  0  0  0  0  0  0  0  0  0
   62.6631   34.0665   50.0700 C   0  0  0  0  0  0  0  0  0  0  0  0
   63.6845   33.1452   50.5605 N   0  0  0  0  0  0  0  0  0  0  0  0
   63.5097   32.1273   51.4250 C   0  0  0  0  0  0  0  0  0  0  0  0
   64.6388   31.4127   51.6121 N   0  0  0  0  0  0  0  0  0  0  0  0
   65.5493   32.0117   50.8169 C   0  0  0  0  0  0  0  0  0  0  0  0
   64.9646   33.0725   50.1627 C   0  0  0  0  0  0  0  0  0  0  0  0
  1  2  2  0
  2  3  1  0
  3  4  2  0
  4  9  1  0
  9 10  1  0
 10 11  1  0
 11 12  2  0
 11 13  1  0
 13 14  1  0
 14 15  1  0
  3  5  1  0
  5  6  2  0
  6  7  1  0
  6  8  1  0
  8 16  1  0
 16 17  2  0
 17 18  1  0
 18 19  2  0
 19 22  1  0
 22 23  1  0
 23 24  1  0
 24 25  2  0
 25 26  1  0
 26 27  2  0
 19 20  1  0
 20 21  2  0
  8  2  1  0
 21 16  1  0
 14  9  2  0
 27 23  1  0
M  CHG 1  10  -1
M  CHG 1  13  -1
M  CHG 1  15  -1
M  END
> <UniqueID>
66

> <SMILES>
C=c1/c(=C/c2[n-]c(=O)[n-]c2[O-])cc(C)n1-c1ccc(Cn2ccnc2)cc1

> <Energy>
142.73771475177273

> <Genealogy>
C=c1c(=Cc2[n-]c(=O)[n-]c2[O-])cc(C)n1-c1ccc(Cn2ccnc2)cc1 (protonated)
C=c1/c(=C/c2[n-]c(=O)[n-]c2[O-])cc(C)n1-c1ccc(Cn2ccnc2)cc1 (cis-trans isomerization)
C=c1/c(=C/c2[n-]c(=O)[n-]c2[O-])cc(C)n1-c1ccc(Cn2ccnc2)cc1 (3D coordinates assigned)
C=c1/c(=C/c2[n-]c(=O)[n-]c2[O-])cc(C)n1-c1ccc(Cn2ccnc2)cc1 (optimized conformer: 142.73771475177273 kcal/mol)

> <smiles>
C=c1c(=Cc2[nH]c(=O)[nH]c2O)cc(C)n1-c1ccc(Cn2ccnc2)cc1

> <score_type>
oracle

> <origin>
adg

> <m_score__min__energy>
-15.4

> <m_primary>
energy

> <minimizedAffinity>
-7.77668

> <minimizedRMSD>
0.92255

> <CNNscore>
0.5083953142

> <CNNaffinity>
6.7618193626

> <CNN_VS>
3.4376773834

> <CNNaffinity_variance>
0.1530603170

$$$$
15:0


 32 34  0  0  0  0  0  0  0  0999 V2000
   60.6744   29.9273   48.3314 C   0  0  0  0  0  0  0  0  0  0  0  0
   60.0582   30.8324   47.5507 C   0  0  0  0  0  0  0  0  0  0  0  0
   59.5521   30.5900   46.2690 C   0  0  0  0  0  0  0  0  0  0  0  0
   59.5784   29.4310   45.5794 C   0  0  0  0  0  0  0  0  0  0  0  0
   59.0020   31.7833   45.8318 C   0  0  0  0  0  0  0  0  0  0  0  0
   59.1896   32.6997   46.8428 C   0  0  0  0  0  0  0  0  0  0  0  0
   58.7697   34.1375   46.7625 C   0  0  0  0  0  0  0  0  0  0  0  0
   59.8553   32.1391   47.8822 N   0  0  0  0  0  0  0  0  0  0  0  0
   58.5649   28.3650   45.7398 C   0  0  0  0  0  0  0  0  0  0  0  0
   57.2204   28.5839   45.4118 C   0  0  0  0  0  0  0  0  0  0  0  0
   56.7929   29.8203   44.9387 O   0  0  0  0  0  0  0  0  0  0  0  0
   56.3252   27.5755   45.5303 N   0  0  0  0  0  0  0  0  0  0  0  0
   56.6960   26.3418   45.9581 C   0  0  0  0  0  0  0  0  0  0  0  0
   55.8205   25.4377   46.0382 O   0  0  0  0  0  0  0  0  0  0  0  0
   58.0030   26.0860   46.2874 N   0  0  0  0  0  0  0  0  0  0  0  0
   58.4087   24.7343   46.7084 C   0  0  0  0  0  0  0  0  0  0  0  0
   58.9436   27.0766   46.1512 C   0  0  0  0  0  0  0  0  0  0  0  0
   60.1603   26.8394   46.4001 O   0  0  0  0  0  0  0  0  0  0  0  0
   60.2681   32.8523   49.1062 C   0  0  0  0  0  0  0  0  0  0  0  0
   61.7412   32.6320   49.4109 C   0  0  0  0  0  0  0  0  0  0  0  0
   62.7518   33.0601   48.5151 C   0  0  0  0  0  0  0  0  0  0  0  0
   62.3906   33.8629   46.9923 Cl  0  0  0  0  0  0  0  0  0  0  0  0
   64.0597   32.8600   48.8204 N   0  0  0  0  0  0  0  0  0  0  0  0
   64.4505   32.2637   49.9740 C   0  0  0  0  0  0  0  0  0  0  0  0
   63.4997   31.8414   50.8975 C   0  0  0  0  0  0  0  0  0  0  0  0
   62.1331   32.0268   50.6271 C   0  0  0  0  0  0  0  0  0  0  0  0
   61.1466   31.6188   51.5390 O   0  0  0  0  0  0  0  0  0  0  0  0
   61.1254   31.9572   52.9239 C   0  0  0  0  0  0  0  0  0  0  0  0
   59.6776   31.9756   53.4153 C   0  0  0  0  0  0  0  0  0  0  0  0
   58.7904   32.6296   52.4294 N   0  0  0  0  0  0  0  0  0  0  0  0
   57.4344   32.0544   52.4740 C   0  0  0  0  0  0  0  0  0  0  0  0
   58.7167   34.0747   52.6977 C   0  0  0  0  0  0  0  0  0  0  0  0
  1  2  2  0
  2  3  1  0
  3  4  2  0
  4  9  1  0
  9 10  2  0
 10 11  1  0
 10 12  1  0
 12 13  1  0
 13 14  2  0
 13 15  1  0
 15 16  1  0
 15 17  1  0
 17 18  2  0
  3  5  1  0
  5  6  2  0
  6  7  1  0
  6  8  1  0
  8 19  1  0
 19 20  1  0
 20 21  2  0
 21 22  1  0
 21 23  1  0
 23 24  2  0
 24 25  1  0
 25 26  2  0
 26 27  1  0
 27 28  1  0
 28 29  1  0
 29 30  1  0
 30 31  1  0
 30 32  1  0
  8  2  1  0
 26 20  1  0
 17  9  1  0
M  CHG 1  11  -1
M  CHG 1  12  -1
M  END
> <UniqueID>
13

> <SMILES>
C=c1/c(=C/c2c([O-])[n-]c(=O)n(C)c2=O)cc(C)n1Cc1c(OCCN(C)C)ccnc1Cl

> <Energy>
98.86837048166353

> <Genealogy>
C=c1c(=Cc2c([O-])[n-]c(=O)n(C)c2=O)cc(C)n1Cc1c(OCCN(C)C)ccnc1Cl (protonated)
C=c1/c(=C/c2c([O-])[n-]c(=O)n(C)c2=O)cc(C)n1Cc1c(OCCN(C)C)ccnc1Cl (cis-trans isomerization)
C=c1/c(=C/c2c([O-])[n-]c(=O)n(C)c2=O)cc(C)n1Cc1c(OCCN(C)C)ccnc1Cl (3D coordinates assigned)
C=c1/c(=C/c2c([O-])[n-]c(=O)n(C)c2=O)cc(C)n1Cc1c(OCCN(C)C)ccnc1Cl (optimized conformer: 98.86837048166353 kcal/mol)

> <smiles>
C=c1c(=Cc2c(O)[nH]c(=O)n(C)c2=O)cc(C)n1Cc1c(OCCN(C)C)ccnc1Cl

> <score_type>
oracle

> <origin>
adg

> <m_score__min__energy>
-14.039999999999999

> <m_primary>
energy

> <minimizedAffinity>
-6.70193

> <minimizedRMSD>
1.87131

> <CNNscore>
0.6919022799

> <CNNaffinity>
7.6044349670

> <CNN_VS>
5.2615261078

> <CNNaffinity_variance>
0.1075592265

$$$$
18:0


 25 27  0  0  0  0  0  0  0  0999 V2000
   58.9824   30.1263   46.8956 N   0  0  0  0  0  0  0  0  0  0  0  0
   59.0431   29.2086   47.8855 C   0  0  0  0  0  0  0  0  0  0  0  0
   59.5667   29.4671   49.2662 C   0  0  0  0  0  0  0  0  0  0  0  0
   58.5299   28.0045   47.4562 C   0  0  0  0  0  0  0  0  0  0  0  0
   58.1689   28.1691   46.1292 C   0  0  0  0  0  0  0  0  0  0  0  0
   57.6833   27.1615   45.3776 C   0  0  0  0  0  0  0  0  0  0  0  0
   58.4291   29.5146   45.8154 C   0  0  0  0  0  0  0  0  0  0  0  0
   58.0850   30.1707   44.6957 C   0  0  0  0  0  0  0  0  0  0  0  0
   57.4308   25.7849   45.8462 C   0  0  0  0  0  0  0  0  0  0  0  0
   56.1358   25.3860   46.2064 C   0  0  0  0  0  0  0  0  0  0  0  0
   55.0657   26.2635   46.0800 O   0  0  0  0  0  0  0  0  0  0  0  0
   55.9192   24.1304   46.6768 N   0  0  0  0  0  0  0  0  0  0  0  0
   56.9412   23.2488   46.8203 C   0  0  0  0  0  0  0  0  0  0  0  0
   56.7139   22.0891   47.2534 O   0  0  0  0  0  0  0  0  0  0  0  0
   58.2086   23.6186   46.5038 N   0  0  0  0  0  0  0  0  0  0  0  0
   58.4786   24.8633   46.0320 C   0  0  0  0  0  0  0  0  0  0  0  0
   59.6698   25.1804   45.7696 O   0  0  0  0  0  0  0  0  0  0  0  0
   62.5611   33.4334   47.1434 O   0  0  0  0  0  0  0  0  0  0  0  0
   61.1987   33.1411   47.1114 C   0  0  0  0  0  0  0  0  0  0  0  0
   60.2454   34.1684   47.1647 C   0  0  0  0  0  0  0  0  0  0  0  0
   58.8827   33.8619   47.1328 C   0  0  0  0  0  0  0  0  0  0  0  0
   58.4664   32.5304   47.0465 C   0  0  0  0  0  0  0  0  0  0  0  0
   59.4126   31.4973   46.9930 C   0  0  0  0  0  0  0  0  0  0  0  0
   60.7803   31.8088   47.0241 C   0  0  0  0  0  0  0  0  0  0  0  0
   62.8480   34.3235   47.2018 H   0  0  0  0  0  0  0  0  0  0  0  0
 18 19  1  0
 19 20  2  0
 20 21  1  0
 21 22  2  0
 22 23  1  0
 23  1  1  0
  1  2  1  0
  2  3  1  0
  2  4  2  0
  4  5  1  0
  5  6  2  0
  6  9  1  0
  9 10  2  0
 10 11  1  0
 10 12  1  0
 12 13  1  0
 13 14  2  0
 13 15  1  0
 15 16  1  0
 16 17  2  0
  5  7  1  0
  7  8  2  0
 23 24  2  0
 24 19  1  0
  7  1  1  0
 16  9  1  0
 18 25  1  0
M  CHG 1  11  -1
M  CHG 1  12  -1
M  CHG 1  15  -1
M  END
> <UniqueID>
15

> <SMILES>
C=c1/c(=C\c2c([O-])[n-]c(=O)[n-]c2=O)cc(C)n1-c1cccc(O)c1

> <Energy>
87.38560679276809

> <Genealogy>
C=c1c(=Cc2c([O-])[n-]c(=O)[n-]c2=O)cc(C)n1-c1cccc(O)c1 (protonated)
C=c1/c(=C\c2c([O-])[n-]c(=O)[n-]c2=O)cc(C)n1-c1cccc(O)c1 (cis-trans isomerization)
C=c1/c(=C\c2c([O-])[n-]c(=O)[n-]c2=O)cc(C)n1-c1cccc(O)c1 (3D coordinates assigned)
C=c1/c(=C\c2c([O-])[n-]c(=O)[n-]c2=O)cc(C)n1-c1cccc(O)c1 (optimized conformer: 87.38560679276809 kcal/mol)

> <smiles>
C=c1c(=Cc2c(O)[nH]c(=O)[nH]c2=O)cc(C)n1-c1cccc(O)c1

> <score_type>
oracle

> <origin>
adg

> <m_score__min__energy>
-15.130000000000001

> <m_primary>
energy

> <minimizedAffinity>
-7.93664

> <minimizedRMSD>
0.88941

> <CNNscore>
0.3150406778

> <CNNaffinity>
6.5077109337

> <CNN_VS>
2.0501935482

> <CNNaffinity_variance>
0.4700675905

$$$$
22:0


 26 28  0  0  0  0  0  0  0  0999 V2000
   59.9333   30.0276   48.0255 C   0  0  0  0  0  0  0  0  0  0  0  0
   59.3698   30.6616   46.9826 C   0  0  0  0  0  0  0  0  0  0  0  0
   59.0388   30.0788   45.7540 C   0  0  0  0  0  0  0  0  0  0  0  0
   59.2502   28.8048   45.3660 C   0  0  0  0  0  0  0  0  0  0  0  0
   58.4710   31.0814   44.9851 C   0  0  0  0  0  0  0  0  0  0  0  0
   58.4754   32.2244   45.7582 C   0  0  0  0  0  0  0  0  0  0  0  0
   57.9056   33.5392   45.3165 C   0  0  0  0  0  0  0  0  0  0  0  0
   59.0202   31.9780   46.9741 N   0  0  0  0  0  0  0  0  0  0  0  0
   58.4396   27.6619   45.8410 C   0  0  0  0  0  0  0  0  0  0  0  0
   57.0619   27.6193   45.5766 C   0  0  0  0  0  0  0  0  0  0  0  0
   56.4375   28.6612   44.9013 O   0  0  0  0  0  0  0  0  0  0  0  0
   56.3233   26.5567   45.9906 N   0  0  0  0  0  0  0  0  0  0  0  0
   56.8980   25.5174   46.6502 C   0  0  0  0  0  0  0  0  0  0  0  0
   56.1930   24.5479   47.0291 O   0  0  0  0  0  0  0  0  0  0  0  0
   58.2328   25.5226   46.8945 N   0  0  0  0  0  0  0  0  0  0  0  0
   59.0152   26.5594   46.4990 C   0  0  0  0  0  0  0  0  0  0  0  0
   60.2570   26.5120   46.7123 O   0  0  0  0  0  0  0  0  0  0  0  0
   59.1363   32.9582   48.0669 C   0  0  0  0  0  0  0  0  0  0  0  0
   60.5828   33.1946   48.4184 C   0  0  0  0  0  0  0  0  0  0  0  0
   60.9501   33.5034   49.7383 C   0  0  0  0  0  0  0  0  0  0  0  0
   62.2901   33.7337   50.0615 C   0  0  0  0  0  0  0  0  0  0  0  0
   63.2740   33.6577   49.0728 C   0  0  0  0  0  0  0  0  0  0  0  0
   62.9186   33.3474   47.7535 C   0  0  0  0  0  0  0  0  0  0  0  0
   63.8894   33.2691   46.7581 O   0  0  0  0  0  0  0  0  0  0  0  0
   61.5784   33.1150   47.4295 C   0  0  0  0  0  0  0  0  0  0  0  0
   64.7893   33.4237   46.9681 H   0  0  0  0  0  0  0  0  0  0  0  0
  1  2  2  0
  2  3  1  0
  3  4  2  0
  4  9  1  0
  9 10  2  0
 10 11  1  0
 10 12  1  0
 12 13  1  0
 13 14  2  0
 13 15  1  0
 15 16  1  0
 16 17  2  0
  3  5  1  0
  5  6  2  0
  6  7  1  0
  6  8  1  0
  8 18  1  0
 18 19  1  0
 19 20  2  0
 20 21  1  0
 21 22  2  0
 22 23  1  0
 23 24  1  0
 23 25  2  0
  8  2  1  0
 25 19  1  0
 16  9  1  0
 24 26  1  0
M  CHG 1  11  -1
M  CHG 1  12  -1
M  CHG 1  15  -1
M  END
> <UniqueID>
19

> <SMILES>
C=c1c(=Cc2c([O-])[n-]c(=O)[n-]c2=O)cc(C)n1Cc1cccc(O)c1

> <Energy>
79.69185653651058

> <Genealogy>
C=c1c(=Cc2c([O-])[n-]c(=O)[n-]c2=O)cc(C)n1Cc1cccc(O)c1 (protonated)
C=c1c(=Cc2c([O-])[n-]c(=O)[n-]c2=O)cc(C)n1Cc1cccc(O)c1 (3D coordinates assigned)
C=c1c(=Cc2c([O-])[n-]c(=O)[n-]c2=O)cc(C)n1Cc1cccc(O)c1 (optimized conformer: 79.69185653651058 kcal/mol)

> <smiles>
C=c1c(=Cc2c(O)[nH]c(=O)[nH]c2=O)cc(C)n1Cc1cccc(O)c1

> <score_type>
oracle

> <origin>
adg

> <m_score__min__energy>
-15.41

> <m_primary>
energy

> <minimizedAffinity>
-8.26349

> <minimizedRMSD>
1.19398

> <CNNscore>
0.4847663939

> <CNNaffinity>
6.6761050224

> <CNN_VS>
3.2363512516

> <CNNaffinity_variance>
0.2434446365

$$$$
39:0


 27 30  0  0  0  0  0  0  0  0999 V2000
   58.7295   29.5601   44.4984 C   0  0  0  0  0  0  0  0  0  0  0  0
   58.7943   28.9635   45.6995 C   0  0  0  0  0  0  0  0  0  0  0  0
   58.4689   27.6319   45.9834 C   0  0  0  0  0  0  0  0  0  0  0  0
   57.9604   26.7191   45.1339 C   0  0  0  0  0  0  0  0  0  0  0  0
   58.7250   27.4483   47.3351 C   0  0  0  0  0  0  0  0  0  0  0  0
   59.1894   28.6548   47.8183 C   0  0  0  0  0  0  0  0  0  0  0  0
   59.5815   28.9083   49.2424 C   0  0  0  0  0  0  0  0  0  0  0  0
   59.2396   29.5728   46.8275 N   0  0  0  0  0  0  0  0  0  0  0  0
   57.4611   25.3947   45.5481 C   0  0  0  0  0  0  0  0  0  0  0  0
   58.2493   24.3110   45.6583 N   0  0  0  0  0  0  0  0  0  0  0  0
   57.4154   23.3626   46.1375 C   0  0  0  0  0  0  0  0  0  0  0  0
   57.7898   22.1833   46.3653 O   0  0  0  0  0  0  0  0  0  0  0  0
   56.1530   23.7813   46.3633 N   0  0  0  0  0  0  0  0  0  0  0  0
   56.1998   25.0730   45.9976 C   0  0  0  0  0  0  0  0  0  0  0  0
   55.1249   25.9457   46.1206 O   0  0  0  0  0  0  0  0  0  0  0  0
   59.6584   30.9420   46.9709 C   0  0  0  0  0  0  0  0  0  0  0  0
   58.9318   31.9683   46.3533 C   0  0  0  0  0  0  0  0  0  0  0  0
   59.3446   33.2948   46.4823 C   0  0  0  0  0  0  0  0  0  0  0  0
   60.4858   33.6057   47.2250 C   0  0  0  0  0  0  0  0  0  0  0  0
   61.2313   32.5900   47.8496 C   0  0  0  0  0  0  0  0  0  0  0  0
   60.8084   31.2552   47.7118 C   0  0  0  0  0  0  0  0  0  0  0  0
   62.4415   32.9380   48.6340 C   0  0  0  0  0  0  0  0  0  0  0  0
   62.4593   33.8309   49.6428 N   0  0  0  0  0  0  0  0  0  0  0  0
   63.7128   33.8462   50.0706 N   0  0  0  0  0  0  0  0  0  0  0  0
   64.4419   32.9993   49.3598 N   0  0  0  0  0  0  0  0  0  0  0  0
   63.6719   32.4211   48.4571 N   0  0  0  0  0  0  0  0  0  0  0  0
   63.9422   31.7489   47.7905 H   0  0  0  0  0  0  0  0  0  0  0  0
  1  2  2  0
  2  3  1  0
  3  4  2  0
  4  9  1  0
  9 10  1  0
 10 11  1  0
 11 12  2  0
 11 13  1  0
 13 14  1  0
 14 15  1  0
  3  5  1  0
  5  6  2  0
  6  7  1  0
  6  8  1  0
  8 16  1  0
 16 17  2  0
 17 18  1  0
 18 19  2  0
 19 20  1  0
 20 22  1  0
 22 23  2  0
 23 24  1  0
 24 25  1  0
 25 26  2  0
 20 21  2  0
  8  2  1  0
 21 16  1  0
 14  9  2  0
 26 22  1  0
 26 27  1  0
M  CHG 1  10  -1
M  CHG 1  13  -1
M  CHG 1  15  -1
M  CHG 1  24  -1
M  CHG 1  26   1
M  END
> <UniqueID>
33

> <SMILES>
C=c1/c(=C/c2[n-]c(=O)[n-]c2[O-])cc(C)n1-c1cccc(-c2n[n-]n[nH+]2)c1

> <Energy>
153.94342198429143

> <Genealogy>
C=c1c(=Cc2[n-]c(=O)[n-]c2[O-])cc(C)n1-c1cccc(-c2n[n-]n[nH+]2)c1 (protonated)
C=c1/c(=C/c2[n-]c(=O)[n-]c2[O-])cc(C)n1-c1cccc(-c2n[n-]n[nH+]2)c1 (cis-trans isomerization)
C=c1/c(=C/c2[n-]c(=O)[n-]c2[O-])cc(C)n1-c1cccc(-c2n[n-]n[nH+]2)c1 (3D coordinates assigned)
C=c1/c(=C/c2[n-]c(=O)[n-]c2[O-])cc(C)n1-c1cccc(-c2n[n-]n[nH+]2)c1 (optimized conformer: 153.94342198429143 kcal/mol)

> <smiles>
C=c1c(=Cc2[nH]c(=O)[nH]c2O)cc(C)n1-c1cccc(-c2nn[nH]n2)c1

> <score_type>
oracle

> <origin>
adg

> <m_score__min__energy>
-16.239999999999998

> <m_primary>
energy

> <minimizedAffinity>
-8.67100

> <minimizedRMSD>
0.76508

> <CNNscore>
0.4655802548

> <CNNaffinity>
6.9482712746

> <CNN_VS>
3.2349779606

> <CNNaffinity_variance>
0.1316877902

$$$$
40:0


 38 41  0  0  0  0  0  0  0  0999 V2000
   58.2583   31.6838   45.0573 C   0  0  0  0  0  0  0  0  0  0  0  0
   58.0826   32.9168   44.4264 C   0  0  0  0  0  0  0  0  0  0  0  0
   58.2905   34.0722   45.1121 N   0  0  0  0  0  0  0  0  0  0  0  0
   58.6578   34.0717   46.4212 C   0  0  0  0  0  0  0  0  0  0  0  0
   58.8269   32.8646   47.1054 C   0  0  0  0  0  0  0  0  0  0  0  0
   58.6143   31.6644   46.4089 C   0  0  0  0  0  0  0  0  0  0  0  0
   57.9938   30.4648   44.3529 N   0  0  0  0  0  0  0  0  0  0  0  0
   57.3289   29.3491   44.9608 C   0  0  0  0  0  0  0  0  0  0  0  0
   56.0687   29.3203   44.9883 O   0  0  0  0  0  0  0  0  0  0  0  0
   58.2598   25.9558   46.3828 C   0  0  0  0  0  0  0  0  0  0  0  0
   59.6457   26.0904   46.4972 C   0  0  0  0  0  0  0  0  0  0  0  0
   60.2666   27.2894   46.1464 C   0  0  0  0  0  0  0  0  0  0  0  0
   59.5056   28.3572   45.6711 C   0  0  0  0  0  0  0  0  0  0  0  0
   58.1100   28.2371   45.5422 C   0  0  0  0  0  0  0  0  0  0  0  0
   57.4895   27.0260   45.9177 C   0  0  0  0  0  0  0  0  0  0  0  0
   56.1433   26.8820   45.8361 F   0  0  0  0  0  0  0  0  0  0  0  0
   57.6337   24.7229   46.7303 N   0  0  0  0  0  0  0  0  0  0  0  0
   56.9446   23.9749   44.0493 C   0  0  0  0  0  0  0  0  0  0  0  0
   57.5874   23.4096   45.6054 S   0  0  0  0  0  0  0  0  0  0  0  0
   56.6973   22.3297   46.1433 O   0  0  0  0  0  0  0  0  0  0  0  0
   58.9708   22.8527   45.4156 O   0  0  0  0  0  0  0  0  0  0  0  0
   59.1487   32.8884   48.4730 O   0  0  0  0  0  0  0  0  0  0  0  0
   60.4624   32.9127   48.9634 C   0  0  0  0  0  0  0  0  0  0  0  0
   60.7212   33.5108   50.1994 C   0  0  0  0  0  0  0  0  0  0  0  0
   61.9950   33.4140   50.7729 C   0  0  0  0  0  0  0  0  0  0  0  0
   63.0204   32.7337   50.1032 C   0  0  0  0  0  0  0  0  0  0  0  0
   62.7847   32.2240   48.8194 C   0  0  0  0  0  0  0  0  0  0  0  0
   61.5124   32.3177   48.2492 C   0  0  0  0  0  0  0  0  0  0  0  0
   64.5819   32.4812   50.8827 S   0  0  0  0  0  0  0  0  0  0  0  0
   64.6211   33.2635   52.1647 O   0  0  0  0  0  0  0  0  0  0  0  0
   65.6715   33.0035   49.9909 O   0  0  0  0  0  0  0  0  0  0  0  0
   64.8761   30.7913   51.2298 N   0  0  0  0  0  0  0  0  0  0  0  0
   63.6950   30.0988   51.7797 C   0  0  0  0  0  0  0  0  0  0  0  0
   63.5705   30.1777   53.3205 C   0  0  0  0  0  0  0  0  0  0  0  0
   64.8532   30.3132   54.0292 N   0  0  0  0  0  0  0  0  0  0  0  0
   65.9611   29.7651   53.2513 C   0  0  0  0  0  0  0  0  0  0  0  0
   66.1431   30.5616   51.9535 C   0  0  0  0  0  0  0  0  0  0  0  0
   64.7944   29.8148   54.9172 H   0  0  0  0  0  0  0  0  0  0  0  0
 18 19  1  0
 19 20  2  0
 19 21  2  0
 19 17  1  0
 17 10  1  0
 10 11  2  0
 11 12  1  0
 12 13  2  0
 13 14  1  0
 14  8  1  0
  8  9  2  0
  8  7  1  0
  7  1  1  0
  1  2  2  0
  2  3  1  0
  3  4  2  0
  4  5  1  0
  5 22  1  0
 22 23  1  0
 23 24  2  0
 24 25  1  0
 25 26  2  0
 26 29  1  0
 29 30  2  0
 29 31  2  0
 29 32  1  0
 32 33  1  0
 33 34  1  0
 34 35  1  0
 35 36  1  0
 36 37  1  0
 26 27  1  0
 27 28  2  0
  5  6  2  0
 14 15  2  0
 15 16  1  0
 15 10  1  0
  6  1  1  0
 28 23  1  0
 37 32  1  0
 35 38  1  0
M  CHG 1   7  -1
M  CHG 1  17  -1
M  END
> <UniqueID>
34

> <SMILES>
CS(=O)(=O)[N-]c1cccc(C(=O)[N-]c2cncc(Oc3ccc(S(=O)(=O)N4CCNCC4)cc3)c2)c1F

> <Energy>
88.98568977271896

> <Genealogy>
CS(=O)(=O)[N-]c1cccc(C(=O)[N-]c2cncc(Oc3ccc(S(=O)(=O)N4CCNCC4)cc3)c2)c1F (protonated)
CS(=O)(=O)[N-]c1cccc(C(=O)[N-]c2cncc(Oc3ccc(S(=O)(=O)N4CCNCC4)cc3)c2)c1F (3D coordinates assigned)
CS(=O)(=O)[N-]c1cccc(C(=O)[N-]c2cncc(Oc3ccc(S(=O)(=O)N4CCNCC4)cc3)c2)c1F (nonaromatic ring conformer: 88.98568977271896 kcal/mol)

> <smiles>
CS(=O)(=O)Nc1cccc(C(=O)Nc2cncc(Oc3ccc(S(=O)(=O)N4CCNCC4)cc3)c2)c1F

> <score_type>
oracle

> <origin>
adg

> <m_score__min__energy>
-14.08

> <m_primary>
energy

> <minimizedAffinity>
-8.30457

> <minimizedRMSD>
1.48391

> <CNNscore>
0.3617933095

> <CNNaffinity>
7.4659943581

> <CNN_VS>
2.7011468410

> <CNNaffinity_variance>
0.2241529673

$$$$
42:0


 34 38  0  0  0  0  0  0  0  0999 V2000
   59.6654   29.1180   47.2026 C   0  0  0  0  0  0  0  0  0  0  0  0
   60.7142   29.9714   46.8388 C   0  0  0  0  0  0  0  0  0  0  0  0
   61.4050   30.6927   47.8156 C   0  0  0  0  0  0  0  0  0  0  0  0
   61.0627   30.5684   49.1737 C   0  0  0  0  0  0  0  0  0  0  0  0
   60.0010   29.7148   49.5290 C   0  0  0  0  0  0  0  0  0  0  0  0
   59.3065   29.0002   48.5502 C   0  0  0  0  0  0  0  0  0  0  0  0
   59.7624   26.2189   46.5640 C   0  0  0  0  0  0  0  0  0  0  0  0
   58.9581   27.0803   45.9229 C   0  0  0  0  0  0  0  0  0  0  0  0
   58.1243   26.8106   44.8240 C   0  0  0  0  0  0  0  0  0  0  0  0
   57.7826   25.6477   44.2355 C   0  0  0  0  0  0  0  0  0  0  0  0
   57.6360   28.0370   44.3980 C   0  0  0  0  0  0  0  0  0  0  0  0
   58.1324   28.9897   45.2624 C   0  0  0  0  0  0  0  0  0  0  0  0
   57.8224   30.4539   45.1897 C   0  0  0  0  0  0  0  0  0  0  0  0
   58.9227   28.4113   46.1942 N   0  0  0  0  0  0  0  0  0  0  0  0
   57.3545   24.4248   44.9336 C   0  0  0  0  0  0  0  0  0  0  0  0
   58.0635   23.2812   44.9750 N   0  0  0  0  0  0  0  0  0  0  0  0
   57.3817   22.5237   45.8603 C   0  0  0  0  0  0  0  0  0  0  0  0
   57.7299   21.3523   46.1602 O   0  0  0  0  0  0  0  0  0  0  0  0
   56.3013   23.1240   46.4079 N   0  0  0  0  0  0  0  0  0  0  0  0
   56.3101   24.3311   45.8197 C   0  0  0  0  0  0  0  0  0  0  0  0
   55.3746   25.3278   46.0800 O   0  0  0  0  0  0  0  0  0  0  0  0
   61.7957   31.3672   50.1908 C   0  0  0  0  0  0  0  0  0  0  0  0
   62.9100   30.9383   50.5938 O   0  0  0  0  0  0  0  0  0  0  0  0
   61.2796   32.6353   50.6829 N   0  0  0  0  0  0  0  0  0  0  0  0
   62.0738   33.8042   50.2541 C   0  0  0  0  0  0  0  0  0  0  0  0
   61.9934   34.0963   48.7438 C   0  0  0  0  0  0  0  0  0  0  0  0
   60.6699   33.8583   48.1470 N   0  0  0  0  0  0  0  0  0  0  0  0
   59.6332   33.1907   48.9171 C   0  0  0  0  0  0  0  0  0  0  0  0
   58.4883   32.9820   48.4382 O   0  0  0  0  0  0  0  0  0  0  0  0
   59.8548   32.8097   50.3511 C   0  0  0  0  0  0  0  0  0  0  0  0
   62.1865   32.2611   50.6008 H   0  0  0  0  0  0  0  0  0  0  0  0
   60.5869   34.2453   46.7142 C   0  0  0  0  0  0  0  0  0  0  0  0
   59.4446   33.6672   45.8959 C   0  0  0  0  0  0  0  0  0  0  0  0
   59.4323   35.1413   46.3031 C   0  0  0  0  0  0  0  0  0  0  0  0
  7  8  2  0
  8  9  1  0
  9 10  2  0
 10 15  1  0
 15 16  1  0
 16 17  1  0
 17 18  2  0
 17 19  1  0
 19 20  1  0
 20 21  1  0
  9 11  1  0
 11 12  2  0
 12 13  1  0
 12 14  1  0
 14  1  1  0
  1  2  2  0
  2  3  1  0
  3  4  2  0
  4 22  1  0
 22 23  2  0
 24 22  1  0
 24 25  1  0
 25 26  1  0
 26 27  1  0
 27 32  1  0
 32 33  1  0
 33 34  1  0
 27 28  1  0
 28 29  2  0
 28 30  1  0
  4  5  1  0
  5  6  2  0
 14  8  1  0
  6  1  1  0
 20 15  2  0
 30 24  1  0
 34 32  1  0
 24 31  1  0
M  CHG 1  16  -1
M  CHG 1  19  -1
M  CHG 1  21  -1
M  CHG 1  24   1
M  END
> <UniqueID>
36

> <SMILES>
C=c1c(=Cc2[n-]c(=O)[n-]c2[O-])cc(C)n1-c1ccc(C(=O)[N@H+]2CCN(C3CC3)C(=O)C2)cc1

> <Energy>
420.11943882341075

> <Genealogy>
C=c1c(=Cc2[n-]c(=O)[n-]c2[O-])cc(C)n1-c1ccc(C(=O)[NH+]2CCN(C3CC3)C(=O)C2)cc1 (protonated)
C=c1c(=Cc2[n-]c(=O)[n-]c2[O-])cc(C)n1-c1ccc(C(=O)[N@H+]2CCN(C3CC3)C(=O)C2)cc1 (chirality)
C=c1c(=Cc2[n-]c(=O)[n-]c2[O-])cc(C)n1-c1ccc(C(=O)[N@H+]2CCN(C3CC3)C(=O)C2)cc1 (3D coordinates assigned)
C=c1c(=Cc2[n-]c(=O)[n-]c2[O-])cc(C)n1-c1ccc(C(=O)[N@H+]2CCN(C3CC3)C(=O)C2)cc1 (nonaromatic ring conformer: 420.11943882341075 kcal/mol)

> <smiles>
C=c1c(=Cc2[nH]c(=O)[nH]c2O)cc(C)n1-c1ccc(C(=O)N2CCN(C3CC3)C(=O)C2)cc1

> <score_type>
oracle

> <origin>
adg

> <m_score__min__energy>
-15.26

> <m_primary>
energy

> <minimizedAffinity>
-9.18242

> <minimizedRMSD>
1.57144

> <CNNscore>
0.1816474795

> <CNNaffinity>
6.8041195869

> <CNN_VS>
1.2359511852

> <CNNaffinity_variance>
0.0755660385

$$$$
50:0


 28 30  0  0  0  0  0  0  0  0999 V2000
   58.0942   31.6079   44.9636 C   0  0  0  0  0  0  0  0  0  0  0  0
   57.9000   31.8488   43.7429 O   0  0  0  0  0  0  0  0  0  0  0  0
   58.8669   32.5801   45.7644 C   0  0  0  0  0  0  0  0  0  0  0  0
   58.7137   33.9538   45.5191 C   0  0  0  0  0  0  0  0  0  0  0  0
   59.4432   34.8890   46.2565 C   0  0  0  0  0  0  0  0  0  0  0  0
   60.3413   34.4609   47.2361 C   0  0  0  0  0  0  0  0  0  0  0  0
   60.5204   33.0918   47.4792 C   0  0  0  0  0  0  0  0  0  0  0  0
   59.7961   32.1548   46.7267 C   0  0  0  0  0  0  0  0  0  0  0  0
   61.6750   32.5493   48.7015 S   0  0  0  0  0  0  0  0  0  0  0  0
   62.2885   33.7507   49.3632 O   0  0  0  0  0  0  0  0  0  0  0  0
   62.7754   31.7781   48.0272 O   0  0  0  0  0  0  0  0  0  0  0  0
   60.9421   31.5384   49.9250 N   0  0  0  0  0  0  0  0  0  0  0  0
   59.5478   31.8994   50.1737 C   0  0  0  0  0  0  0  0  0  0  0  0
   58.8613   30.6425   50.6887 C   0  0  0  0  0  0  0  0  0  0  0  0
   59.7850   29.4928   50.3162 C   0  0  0  0  0  0  0  0  0  0  0  0
   60.9192   30.1307   49.5325 C   0  0  0  0  0  0  0  0  0  0  0  0
   57.5088   30.4243   45.5272 N   0  0  0  0  0  0  0  0  0  0  0  0
   58.2028   29.2265   46.0018 C   0  0  0  0  0  0  0  0  0  0  0  0
   56.5327   28.0207   44.8128 O   0  0  0  0  0  0  0  0  0  0  0  0
   57.4665   27.9663   45.6577 C   0  0  0  0  0  0  0  0  0  0  0  0
   57.6992   26.7603   46.3989 N   0  0  0  0  0  0  0  0  0  0  0  0
   57.4589   25.5244   46.0517 C   0  0  0  0  0  0  0  0  0  0  0  0
   58.5285   24.7332   45.7626 N   0  0  0  0  0  0  0  0  0  0  0  0
   58.4004   23.4359   45.3787 C   0  0  0  0  0  0  0  0  0  0  0  0
   57.1349   22.8663   45.2609 C   0  0  0  0  0  0  0  0  0  0  0  0
   56.0112   23.6442   45.5263 C   0  0  0  0  0  0  0  0  0  0  0  0
   56.1547   24.9816   45.9080 C   0  0  0  0  0  0  0  0  0  0  0  0
   55.0031   25.7403   46.0818 O   0  0  0  0  0  0  0  0  0  0  0  0
 19 20  2  0
 20 18  1  0
 18 17  1  0
 17  1  1  0
  1  2  2  0
  1  3  1  0
  3  4  2  0
  4  5  1  0
  5  6  2  0
  6  7  1  0
  7  9  1  0
  9 10  2  0
  9 11  2  0
  9 12  1  0
 12 13  1  0
 13 14  1  0
 14 15  1  0
 15 16  1  0
  7  8  2  0
 20 21  1  0
 21 22  2  0
 22 23  1  0
 23 24  1  0
 24 25  2  0
 25 26  1  0
 26 27  2  0
 27 28  1  0
  8  3  1  0
 27 22  1  0
 16 12  1  0
M  CHG 1  17  -1
M  CHG 1  23  -1
M  CHG 1  28  -1
M  END
> <UniqueID>
43

> <SMILES>
O=C(C[N-]C(=O)c1cccc(S(=O)(=O)N2CCCC2)c1)N=c1[n-]cccc1[O-]

> <Energy>
58.07100817671488

> <Genealogy>
O=C(C[N-]C(=O)c1cccc(S(=O)(=O)N2CCCC2)c1)N=c1[n-]cccc1[O-] (protonated)
O=C(C[N-]C(=O)c1cccc(S(=O)(=O)N2CCCC2)c1)N=c1[n-]cccc1[O-] (3D coordinates assigned)
O=C(C[N-]C(=O)c1cccc(S(=O)(=O)N2CCCC2)c1)N=c1[n-]cccc1[O-] (nonaromatic ring conformer: 58.07100817671488 kcal/mol)

> <smiles>
O=C(CNC(=O)c1cccc(S(=O)(=O)N2CCCC2)c1)N=c1[nH]cccc1O

> <score_type>
oracle

> <origin>
adg

> <m_score__min__energy>
-15.82

> <m_primary>
energy

> <minimizedAffinity>
-7.42670

> <minimizedRMSD>
1.69586

> <CNNscore>
0.4346528649

> <CNNaffinity>
6.3894500732

> <CNN_VS>
2.7771928310

> <CNNaffinity_variance>
0.1174657568

$$$$
51:0


 26 27  0  0  0  0  0  0  0  0999 V2000
   58.2401   26.4763   46.2434 N   0  0  0  0  0  0  0  0  0  0  0  0
   58.7099   27.4053   45.4572 C   0  0  0  0  0  0  0  0  0  0  0  0
   56.2693   23.3292   45.7638 C   0  0  0  0  0  0  0  0  0  0  0  0
   57.2662   22.4566   45.3033 C   0  0  0  0  0  0  0  0  0  0  0  0
   58.5846   22.8971   45.1722 C   0  0  0  0  0  0  0  0  0  0  0  0
   58.9144   24.2161   45.4805 C   0  0  0  0  0  0  0  0  0  0  0  0
   57.9193   25.1184   45.8968 C   0  0  0  0  0  0  0  0  0  0  0  0
   56.6002   24.6643   46.0575 C   0  0  0  0  0  0  0  0  0  0  0  0
   55.6204   25.5487   46.4969 O   0  0  0  0  0  0  0  0  0  0  0  0
   54.5474   21.0300   45.7737 N   0  0  0  0  0  0  0  0  0  0  0  0
   54.6110   22.7485   45.9539 S   0  0  0  0  0  0  0  0  0  0  0  0
   53.7369   23.3842   44.9109 O   0  0  0  0  0  0  0  0  0  0  0  0
   54.1008   23.1030   47.3210 O   0  0  0  0  0  0  0  0  0  0  0  0
   53.5848   20.7117   45.8861 H   0  0  0  0  0  0  0  0  0  0  0  0
   58.9862   28.7978   45.8843 C   0  0  0  0  0  0  0  0  0  0  0  0
   60.2164   29.1408   46.4682 C   0  0  0  0  0  0  0  0  0  0  0  0
   60.4746   30.4573   46.8539 C   0  0  0  0  0  0  0  0  0  0  0  0
   59.5188   31.4662   46.6439 C   0  0  0  0  0  0  0  0  0  0  0  0
   58.3029   31.1260   46.0231 C   0  0  0  0  0  0  0  0  0  0  0  0
   58.0394   29.8051   45.6423 C   0  0  0  0  0  0  0  0  0  0  0  0
   56.8252   29.5021   45.0349 O   0  0  0  0  0  0  0  0  0  0  0  0
   59.7819   32.8269   47.0582 N   0  0  0  0  0  0  0  0  0  0  0  0
   60.2762   33.8257   46.0949 C   0  0  0  0  0  0  0  0  0  0  0  0
   59.1157   34.4853   45.3549 C   0  0  0  0  0  0  0  0  0  0  0  0
   59.5756   33.2290   48.4566 C   0  0  0  0  0  0  0  0  0  0  0  0
   60.8003   33.9592   49.0037 C   0  0  0  0  0  0  0  0  0  0  0  0
 10 11  1  0
 11 12  2  0
 11 13  2  0
 11  3  1  0
  3  4  2  0
  4  5  1  0
  5  6  2  0
  6  7  1  0
  7  1  1  0
  1  2  2  0
  2 15  1  0
 15 16  2  0
 16 17  1  0
 17 18  2  0
 18 22  1  0
 22 23  1  0
 23 24  1  0
 22 25  1  0
 25 26  1  0
 18 19  1  0
 19 20  2  0
 20 21  1  0
  7  8  2  0
  8  9  1  0
  8  3  1  0
 20 15  1  0
 10 14  1  0
M  CHG 1   9  -1
M  CHG 1  10  -1
M  CHG 1  21  -1
M  END
> <UniqueID>
44

> <SMILES>
CCN(CC)c1ccc(/C=N\c2cccc(S([NH-])(=O)=O)c2[O-])c([O-])c1

> <Energy>
53.251527900795004

> <Genealogy>
CCN(CC)c1ccc(C=Nc2cccc(S([NH-])(=O)=O)c2[O-])c([O-])c1 (protonated)
CCN(CC)c1ccc(/C=N\c2cccc(S([NH-])(=O)=O)c2[O-])c([O-])c1 (cis-trans isomerization)
CCN(CC)c1ccc(/C=N\c2cccc(S([NH-])(=O)=O)c2[O-])c([O-])c1 (3D coordinates assigned)
CCN(CC)c1ccc(/C=N\c2cccc(S([NH-])(=O)=O)c2[O-])c([O-])c1 (optimized conformer: 53.251527900795004 kcal/mol)

> <smiles>
CCN(CC)c1ccc(C=Nc2cccc(S(N)(=O)=O)c2O)c(O)c1

> <score_type>
oracle

> <origin>
adg

> <m_score__min__energy>
-15.76

> <m_primary>
energy

> <minimizedAffinity>
-7.53530

> <minimizedRMSD>
2.02183

> <CNNscore>
0.3813581467

> <CNNaffinity>
6.4118714333

> <CNN_VS>
2.4452195168

> <CNNaffinity_variance>
0.6586468816

$$$$
62:0


 27 29  0  0  0  0  0  0  0  0999 V2000
   59.6274   27.0734   46.4977 C   0  0  0  0  0  0  0  0  0  0  0  0
   59.8397   27.8794   45.3706 C   0  0  0  0  0  0  0  0  0  0  0  0
   60.1107   29.2390   45.5248 C   0  0  0  0  0  0  0  0  0  0  0  0
   60.1839   29.7873   46.8134 C   0  0  0  0  0  0  0  0  0  0  0  0
   59.9609   28.9894   47.8932 N   0  0  0  0  0  0  0  0  0  0  0  0
   59.6943   27.6624   47.7676 C   0  0  0  0  0  0  0  0  0  0  0  0
   60.4528   31.2228   47.0209 C   0  0  0  0  0  0  0  0  0  0  0  0
   61.6050   31.5819   47.3846 O   0  0  0  0  0  0  0  0  0  0  0  0
   59.4391   32.2207   46.7969 N   0  0  0  0  0  0  0  0  0  0  0  0
   59.3393   33.3768   47.6941 C   0  0  0  0  0  0  0  0  0  0  0  0
   59.6134   34.6792   46.9244 C   0  0  0  0  0  0  0  0  0  0  0  0
   58.9980   34.6972   45.5066 C   0  0  0  0  0  0  0  0  0  0  0  0
   58.0002   33.5565   45.2722 C   0  0  0  0  0  0  0  0  0  0  0  0
   58.6629   32.2001   45.5450 C   0  0  0  0  0  0  0  0  0  0  0  0
   59.3631   25.6001   46.3561 C   0  0  0  0  0  0  0  0  0  0  0  0
   57.9285   25.3508   46.2663 N   0  0  0  0  0  0  0  0  0  0  0  0
   57.3849   25.0012   44.0282 O   0  0  0  0  0  0  0  0  0  0  0  0
   57.3190   24.5882   45.2194 C   0  0  0  0  0  0  0  0  0  0  0  0
   56.6045   23.3219   45.5302 C   0  0  0  0  0  0  0  0  0  0  0  0
   57.3055   22.0994   45.6287 C   0  0  0  0  0  0  0  0  0  0  0  0
   58.6798   22.0393   45.4209 O   0  0  0  0  0  0  0  0  0  0  0  0
   56.6196   20.9193   45.9254 C   0  0  0  0  0  0  0  0  0  0  0  0
   55.2392   20.9559   46.1184 C   0  0  0  0  0  0  0  0  0  0  0  0
   54.6089   19.8992   46.3821 O   0  0  0  0  0  0  0  0  0  0  0  0
   54.5740   22.1343   46.0249 N   0  0  0  0  0  0  0  0  0  0  0  0
   55.2071   23.3038   45.7418 C   0  0  0  0  0  0  0  0  0  0  0  0
   54.4566   24.4728   45.6871 O   0  0  0  0  0  0  0  0  0  0  0  0
 17 18  2  0
 18 16  1  0
 16 15  1  0
 15  1  1  0
  1  2  2  0
  2  3  1  0
  3  4  2  0
  4  7  1  0
  7  8  2  0
  7  9  1  0
  9 10  1  0
 10 11  1  0
 11 12  1  0
 12 13  1  0
 13 14  1  0
  4  5  1  0
  5  6  2  0
 18 19  1  0
 19 20  1  0
 20 21  1  0
 20 22  2  0
 22 23  1  0
 23 24  2  0
 23 25  1  0
 25 26  1  0
 26 27  1  0
  6  1  1  0
 26 19  2  0
 14  9  1  0
M  CHG 1  16  -1
M  CHG 1  21  -1
M  CHG 1  25  -1
M  CHG 1  27  -1
M  END
> <UniqueID>
55

> <SMILES>
O=C([N-]Cc1ccc(C(=O)N2CCCCC2)nc1)c1c([O-])cc(=O)[n-]c1[O-]

> <Energy>
54.16979845453419

> <Genealogy>
O=C([N-]Cc1ccc(C(=O)N2CCCCC2)nc1)c1c([O-])cc(=O)[n-]c1[O-] (protonated)
O=C([N-]Cc1ccc(C(=O)N2CCCCC2)nc1)c1c([O-])cc(=O)[n-]c1[O-] (3D coordinates assigned)
O=C([N-]Cc1ccc(C(=O)N2CCCCC2)nc1)c1c([O-])cc(=O)[n-]c1[O-] (nonaromatic ring conformer: 54.16979845453419 kcal/mol)

> <smiles>
O=C(NCc1ccc(C(=O)N2CCCCC2)nc1)c1c(O)cc(=O)[nH]c1O

> <score_type>
oracle

> <origin>
adg

> <m_score__min__energy>
-17.059999999999999

> <m_primary>
energy

> <minimizedAffinity>
-8.25218

> <minimizedRMSD>
1.62886

> <CNNscore>
0.0780204684

> <CNNaffinity>
5.6936440468

> <CNN_VS>
0.4442207813

> <CNNaffinity_variance>
0.2402695566

$$$$
78:0


 28 30  0  0  0  0  0  0  0  0999 V2000
   57.4453   31.3427   52.3857 C   0  0  0  0  0  0  0  0  0  0  0  0
   58.1841   31.1542   53.5599 C   0  0  0  0  0  0  0  0  0  0  0  0
   57.5966   30.5502   54.6759 C   0  0  0  0  0  0  0  0  0  0  0  0
   56.2656   30.1289   54.6251 C   0  0  0  0  0  0  0  0  0  0  0  0
   55.5132   30.3025   53.4572 C   0  0  0  0  0  0  0  0  0  0  0  0
   56.1195   30.8776   52.3256 C   0  0  0  0  0  0  0  0  0  0  0  0
   58.0842   31.9569   51.2570 N   0  0  0  0  0  0  0  0  0  0  0  0
   60.2828   32.5023   50.7433 O   0  0  0  0  0  0  0  0  0  0  0  0
   59.3783   31.6259   50.7399 C   0  0  0  0  0  0  0  0  0  0  0  0
   59.6346   30.3314   50.1820 N   0  0  0  0  0  0  0  0  0  0  0  0
   59.3238   29.9615   48.8079 C   0  0  0  0  0  0  0  0  0  0  0  0
   60.4510   30.3940   47.8698 C   0  0  0  0  0  0  0  0  0  0  0  0
   60.0788   31.6584   47.1439 C   0  0  0  0  0  0  0  0  0  0  0  0
   58.9349   31.6973   46.3289 C   0  0  0  0  0  0  0  0  0  0  0  0
   58.6091   32.8617   45.6271 C   0  0  0  0  0  0  0  0  0  0  0  0
   59.4264   33.9925   45.7264 C   0  0  0  0  0  0  0  0  0  0  0  0
   59.1105   35.1205   45.0445 F   0  0  0  0  0  0  0  0  0  0  0  0
   60.5740   33.9563   46.5250 C   0  0  0  0  0  0  0  0  0  0  0  0
   60.9035   32.7932   47.2277 C   0  0  0  0  0  0  0  0  0  0  0  0
   54.1838   29.8551   53.4344 O   0  0  0  0  0  0  0  0  0  0  0  0
   53.1906   30.3128   52.5557 C   0  0  0  0  0  0  0  0  0  0  0  0
   53.0181   29.7595   51.2763 C   0  0  0  0  0  0  0  0  0  0  0  0
   52.0181   30.2794   50.4529 C   0  0  0  0  0  0  0  0  0  0  0  0
   51.8330   29.8026   49.3026 O   0  0  0  0  0  0  0  0  0  0  0  0
   51.2452   31.3065   50.8930 N   0  0  0  0  0  0  0  0  0  0  0  0
   51.4337   31.8429   52.1260 C   0  0  0  0  0  0  0  0  0  0  0  0
   50.7127   32.7979   52.5122 O   0  0  0  0  0  0  0  0  0  0  0  0
   52.4031   31.3504   52.9420 N   0  0  0  0  0  0  0  0  0  0  0  0
  8  9  2  0
  9 10  1  0
 10 11  1  0
 11 12  1  0
 12 13  1  0
 13 14  2  0
 14 15  1  0
 15 16  2  0
 16 17  1  0
 16 18  1  0
 18 19  2  0
  9  7  1  0
  7  1  1  0
  1  2  2  0
  2  3  1  0
  3  4  2  0
  4  5  1  0
  5 20  1  0
 20 21  1  0
 21 22  2  0
 22 23  1  0
 23 24  2  0
 23 25  1  0
 25 26  1  0
 26 27  2  0
 26 28  1  0
  5  6  2  0
 19 13  1  0
  6  1  1  0
 28 21  1  0
M  CHG 1   7  -1
M  CHG 1  10  -1
M  CHG 1  25  -1
M  CHG 1  28  -1
M  END
> <UniqueID>
69

> <SMILES>
O=C([N-]CCc1ccc(F)cc1)[N-]c1cccc(Oc2cc(=O)[n-]c(=O)[n-]2)c1

> <Energy>
49.2062791920445

> <Genealogy>
O=C([N-]CCc1ccc(F)cc1)[N-]c1cccc(Oc2cc(=O)[n-]c(=O)[n-]2)c1 (protonated)
O=C([N-]CCc1ccc(F)cc1)[N-]c1cccc(Oc2cc(=O)[n-]c(=O)[n-]2)c1 (3D coordinates assigned)
O=C([N-]CCc1ccc(F)cc1)[N-]c1cccc(Oc2cc(=O)[n-]c(=O)[n-]2)c1 (optimized conformer: 49.2062791920445 kcal/mol)

> <smiles>
O=C(NCCc1ccc(F)cc1)Nc1cccc(Oc2cc(=O)[nH]c(=O)[nH]2)c1

> <score_type>
oracle

> <origin>
adg

> <m_score__min__energy>
-14.92

> <m_primary>
energy

> <minimizedAffinity>
-6.53301

> <minimizedRMSD>
1.11576

> <CNNscore>
0.2947926521

> <CNNaffinity>
5.8396391869

> <CNN_VS>
1.7214827538

> <CNNaffinity_variance>
0.0991022512

$$$$
82:0


 37 41  0  0  0  0  0  0  0  0999 V2000
   59.4888   28.3180   47.8032 C   0  0  0  0  0  0  0  0  0  0  0  0
   59.0681   29.6330   48.0423 C   0  0  0  0  0  0  0  0  0  0  0  0
   59.5089   30.3180   49.1783 C   0  0  0  0  0  0  0  0  0  0  0  0
   60.3789   29.7004   50.0957 C   0  0  0  0  0  0  0  0  0  0  0  0
   60.8064   28.3850   49.8405 C   0  0  0  0  0  0  0  0  0  0  0  0
   60.3576   27.6981   48.7090 C   0  0  0  0  0  0  0  0  0  0  0  0
   58.6785   25.4521   47.6207 C   0  0  0  0  0  0  0  0  0  0  0  0
   58.6272   26.3039   46.5836 C   0  0  0  0  0  0  0  0  0  0  0  0
   58.2069   26.0022   45.2825 C   0  0  0  0  0  0  0  0  0  0  0  0
   57.7741   24.8138   44.8170 C   0  0  0  0  0  0  0  0  0  0  0  0
   58.3673   27.1647   44.5412 C   0  0  0  0  0  0  0  0  0  0  0  0
   58.8479   28.1244   45.4089 C   0  0  0  0  0  0  0  0  0  0  0  0
   59.1662   29.5366   45.0189 C   0  0  0  0  0  0  0  0  0  0  0  0
   59.0142   27.6027   46.6466 N   0  0  0  0  0  0  0  0  0  0  0  0
   56.3546   24.3871   44.8342 C   0  0  0  0  0  0  0  0  0  0  0  0
   55.4592   24.9710   45.7444 C   0  0  0  0  0  0  0  0  0  0  0  0
   55.8986   25.9211   46.6592 O   0  0  0  0  0  0  0  0  0  0  0  0
   54.1515   24.6046   45.7423 N   0  0  0  0  0  0  0  0  0  0  0  0
   53.6826   23.6860   44.8612 C   0  0  0  0  0  0  0  0  0  0  0  0
   52.4693   23.3560   44.8844 O   0  0  0  0  0  0  0  0  0  0  0  0
   54.5208   23.1282   43.9498 N   0  0  0  0  0  0  0  0  0  0  0  0
   55.8360   23.4638   43.9083 C   0  0  0  0  0  0  0  0  0  0  0  0
   56.5720   22.9569   43.0201 O   0  0  0  0  0  0  0  0  0  0  0  0
   60.8588   30.4516   51.2874 C   0  0  0  0  0  0  0  0  0  0  0  0
   60.2811   30.2758   52.3952 O   0  0  0  0  0  0  0  0  0  0  0  0
   61.9501   31.3902   51.2116 N   0  0  0  0  0  0  0  0  0  0  0  0
   63.2439   30.9599   50.6709 C   0  0  0  0  0  0  0  0  0  0  0  0
   63.9969   32.1252   50.0008 C   0  0  0  0  0  0  0  0  0  0  0  0
   63.2585   33.4841   50.0650 C   0  0  0  0  0  0  0  0  0  0  0  0
   62.7221   33.7467   51.4922 C   0  0  0  0  0  0  0  0  0  0  0  0
   61.9482   32.5564   52.1031 C   0  0  0  0  0  0  0  0  0  0  0  0
   62.2344   33.6345   48.9389 C   0  0  0  0  0  0  0  0  0  0  0  0
   62.5309   33.3899   47.5803 C   0  0  0  0  0  0  0  0  0  0  0  0
   61.5518   33.5634   46.5946 C   0  0  0  0  0  0  0  0  0  0  0  0
   60.2652   33.9742   46.9469 C   0  0  0  0  0  0  0  0  0  0  0  0
   59.9529   34.2092   48.2860 C   0  0  0  0  0  0  0  0  0  0  0  0
   60.9277   34.0405   49.2756 C   0  0  0  0  0  0  0  0  0  0  0  0
  7  8  2  0
  8  9  1  0
  9 10  2  0
 10 15  1  0
 15 16  2  0
 16 17  1  0
 16 18  1  0
 18 19  1  0
 19 20  2  0
 19 21  1  0
 21 22  1  0
 22 23  2  0
  9 11  1  0
 11 12  2  0
 12 13  1  0
 12 14  1  0
 14  1  1  0
  1  2  2  0
  2  3  1  0
  3  4  2  0
  4 24  1  0
 24 25  2  0
 24 26  1  0
 26 27  1  0
 27 28  1  0
 28 29  1  0
 29 32  1  0
 32 33  2  0
 33 34  1  0
 34 35  2  0
 35 36  1  0
 36 37  2  0
 29 30  1  0
 30 31  1  0
  4  5  1  0
  5  6  2  0
 14  8  1  0
  6  1  1  0
 22 15  1  0
 31 26  1  0
 37 32  1  0
M  CHG 1  17  -1
M  CHG 1  18  -1
M  CHG 1  21  -1
M  END
> <UniqueID>
72

> <SMILES>
C=c1c(=Cc2c([O-])[n-]c(=O)[n-]c2=O)cc(C)n1-c1ccc(C(=O)N2CCC(c3ccccc3)CC2)cc1

> <Energy>
125.23544113660304

> <Genealogy>
C=c1c(=Cc2c([O-])[n-]c(=O)[n-]c2=O)cc(C)n1-c1ccc(C(=O)N2CCC(c3ccccc3)CC2)cc1 (protonated)
C=c1c(=Cc2c([O-])[n-]c(=O)[n-]c2=O)cc(C)n1-c1ccc(C(=O)N2CCC(c3ccccc3)CC2)cc1 (3D coordinates assigned)
C=c1c(=Cc2c([O-])[n-]c(=O)[n-]c2=O)cc(C)n1-c1ccc(C(=O)N2CCC(c3ccccc3)CC2)cc1 (nonaromatic ring conformer: 125.23544113660304 kcal/mol)

> <smiles>
C=c1c(=Cc2c(O)[nH]c(=O)[nH]c2=O)cc(C)n1-c1ccc(C(=O)N2CCC(c3ccccc3)CC2)cc1

> <score_type>
oracle

> <origin>
adg

> <m_score__min__energy>
-17.41

> <m_primary>
energy

> <minimizedAffinity>
-10.12995

> <minimizedRMSD>
1.15050

> <CNNscore>
0.1698742956

> <CNNaffinity>
6.6129250526

> <CNN_VS>
1.1233659983

> <CNNaffinity_variance>
0.3209339976

$$$$
26:0


 30 32  0  0  0  0  0  0  0  0999 V2000
   57.9735   29.2104   44.8922 C   0  0  0  0  0  0  0  0  0  0  0  0
   58.0808   28.6603   43.7625 O   0  0  0  0  0  0  0  0  0  0  0  0
   57.6762   28.4101   46.0500 N   0  0  0  0  0  0  0  0  0  0  0  0
   57.3443   28.8659   46.8571 H   0  0  0  0  0  0  0  0  0  0  0  0
   59.5624   32.4536   48.5684 C   0  0  0  0  0  0  0  0  0  0  0  0
   59.4244   31.0617   48.4256 C   0  0  0  0  0  0  0  0  0  0  0  0
   58.9574   30.5269   47.2698 N   0  0  0  0  0  0  0  0  0  0  0  0
   58.5974   31.2897   46.2031 C   0  0  0  0  0  0  0  0  0  0  0  0
   58.1222   30.6835   45.0146 C   0  0  0  0  0  0  0  0  0  0  0  0
   57.7720   31.5030   43.9262 C   0  0  0  0  0  0  0  0  0  0  0  0
   57.8887   32.8899   44.0115 C   0  0  0  0  0  0  0  0  0  0  0  0
   58.3587   33.4879   45.1803 C   0  0  0  0  0  0  0  0  0  0  0  0
   58.7172   32.6965   46.2867 C   0  0  0  0  0  0  0  0  0  0  0  0
   59.1999   33.2762   47.4796 C   0  0  0  0  0  0  0  0  0  0  0  0
   59.2948   34.5302   47.5723 O   0  0  0  0  0  0  0  0  0  0  0  0
   61.4894   33.5460   49.9535 C   0  0  0  0  0  0  0  0  0  0  0  0
   60.0873   33.0283   49.8411 C   0  0  0  0  0  0  0  0  0  0  0  0
   59.3346   33.1194   50.8503 O   0  0  0  0  0  0  0  0  0  0  0  0
   57.8365   26.9804   46.0946 C   0  0  0  0  0  0  0  0  0  0  0  0
   59.1150   26.3971   46.0743 C   0  0  0  0  0  0  0  0  0  0  0  0
   59.2590   25.0105   46.1419 C   0  0  0  0  0  0  0  0  0  0  0  0
   58.1345   24.1904   46.2418 C   0  0  0  0  0  0  0  0  0  0  0  0
   56.8475   24.7539   46.2840 C   0  0  0  0  0  0  0  0  0  0  0  0
   56.7051   26.1506   46.2172 C   0  0  0  0  0  0  0  0  0  0  0  0
   55.4335   26.7118   46.2597 O   0  0  0  0  0  0  0  0  0  0  0  0
   55.6661   23.9471   46.3945 N   0  0  0  0  0  0  0  0  0  0  0  0
   55.1359   22.7584   45.2482 S   0  0  0  0  0  0  0  0  0  0  0  0
   56.1605   21.3056   45.3497 C   0  0  0  0  0  0  0  0  0  0  0  0
   55.2553   23.3363   43.8657 O   0  0  0  0  0  0  0  0  0  0  0  0
   53.6981   22.4029   45.5012 O   0  0  0  0  0  0  0  0  0  0  0  0
 16 17  1  0
 17 18  2  0
 17  5  1  0
  5  6  2  0
  6  7  1  0
  7  8  1  0
  8  9  2  0
  9  1  1  0
  1  2  2  0
  1  3  1  0
  3 19  1  0
 19 20  2  0
 20 21  1  0
 21 22  2  0
 22 23  1  0
 23 26  1  0
 26 27  1  0
 27 28  1  0
 27 29  2  0
 27 30  2  0
 23 24  2  0
 24 25  1  0
  9 10  1  0
 10 11  2  0
 11 12  1  0
 12 13  2  0
 13 14  1  0
 14 15  2  0
 14  5  1  0
 13  8  1  0
 24 19  1  0
  3  4  1  0
M  CHG 1   7  -1
M  CHG 1  25  -1
M  CHG 1  26  -1
M  END
> <UniqueID>
24

> <SMILES>
CC(=O)c1c[n-]c2c(C(=O)Nc3cccc([N-]S(C)(=O)=O)c3[O-])cccc2c1=O

> <Energy>
60.65621667446214

> <Genealogy>
CC(=O)c1c[n-]c2c(C(=O)Nc3cccc([N-]S(C)(=O)=O)c3[O-])cccc2c1=O (protonated)
CC(=O)c1c[n-]c2c(C(=O)Nc3cccc([N-]S(C)(=O)=O)c3[O-])cccc2c1=O (3D coordinates assigned)
CC(=O)c1c[n-]c2c(C(=O)Nc3cccc([N-]S(C)(=O)=O)c3[O-])cccc2c1=O (optimized conformer: 60.65621667446214 kcal/mol)

> <smiles>
CC(=O)c1c[nH]c2c(C(=O)Nc3cccc(NS(C)(=O)=O)c3O)cccc2c1=O

> <score_type>
oracle

> <origin>
adg

> <m_score__min__energy>
-15.56

> <m_primary>
energy

> <minimizedAffinity>
-8.28363

> <minimizedRMSD>
0.77725

> <CNNscore>
0.4997980297

> <CNNaffinity>
6.7383480072

> <CNN_VS>
3.3678131104

> <CNNaffinity_variance>
0.1074863970

$$$$
28:0


 30 32  0  0  0  0  0  0  0  0999 V2000
   63.8489   33.2406   48.7106 C   0  0  0  0  0  0  0  0  0  0  0  0
   63.2808   33.2615   47.4374 C   0  0  0  0  0  0  0  0  0  0  0  0
   61.9904   32.7662   47.2389 C   0  0  0  0  0  0  0  0  0  0  0  0
   61.2491   32.2478   48.3136 C   0  0  0  0  0  0  0  0  0  0  0  0
   61.8172   32.2502   49.6143 C   0  0  0  0  0  0  0  0  0  0  0  0
   63.1234   32.7370   49.7918 C   0  0  0  0  0  0  0  0  0  0  0  0
   61.0820   31.7638   50.8016 C   0  0  0  0  0  0  0  0  0  0  0  0
   61.5409   30.7949   51.4653 O   0  0  0  0  0  0  0  0  0  0  0  0
   59.8642   32.4093   51.2064 N   0  0  0  0  0  0  0  0  0  0  0  0
   59.5759   33.2084   50.7088 H   0  0  0  0  0  0  0  0  0  0  0  0
   59.0412   31.9568   52.2962 C   0  0  0  0  0  0  0  0  0  0  0  0
   59.3788   32.3181   53.6061 C   0  0  0  0  0  0  0  0  0  0  0  0
   58.5935   31.8949   54.6784 C   0  0  0  0  0  0  0  0  0  0  0  0
   57.4537   31.1207   54.4529 C   0  0  0  0  0  0  0  0  0  0  0  0
   57.0763   30.7661   53.1444 C   0  0  0  0  0  0  0  0  0  0  0  0
   57.8781   31.1987   52.0690 C   0  0  0  0  0  0  0  0  0  0  0  0
   55.8546   29.9572   52.8839 C   0  0  0  0  0  0  0  0  0  0  0  0
   55.8184   28.7471   53.2375 O   0  0  0  0  0  0  0  0  0  0  0  0
   54.6479   30.5377   52.2098 C   0  0  0  0  0  0  0  0  0  0  0  0
   59.6547   31.5508   47.9826 S   0  0  0  0  0  0  0  0  0  0  0  0
   58.5798   32.5709   48.2362 O   0  0  0  0  0  0  0  0  0  0  0  0
   59.4433   30.3659   48.8841 O   0  0  0  0  0  0  0  0  0  0  0  0
   59.5806   31.0632   46.3212 N   0  0  0  0  0  0  0  0  0  0  0  0
   58.7531   30.1718   45.8684 C   0  0  0  0  0  0  0  0  0  0  0  0
   58.6409   28.9244   46.3806 N   0  0  0  0  0  0  0  0  0  0  0  0
   57.6722   28.3751   45.6221 C   0  0  0  0  0  0  0  0  0  0  0  0
   57.2052   27.0787   45.7898 O   0  0  0  0  0  0  0  0  0  0  0  0
   57.2166   29.2682   44.6794 C   0  0  0  0  0  0  0  0  0  0  0  0
   57.9174   30.4018   44.8327 N   0  0  0  0  0  0  0  0  0  0  0  0
   57.7297   31.6485   44.0979 C   0  0  0  0  0  0  0  0  0  0  0  0
  1  2  2  0
  2  3  1  0
  3  4  2  0
  4 20  1  0
 20 21  2  0
 20 22  2  0
 20 23  1  0
 23 24  2  0
 24 25  1  0
 25 26  1  0
 26 27  1  0
 26 28  2  0
 28 29  1  0
 29 30  1  0
  4  5  1  0
  5  7  1  0
  7  8  2  0
  7  9  1  0
  9 11  1  0
 11 12  2  0
 12 13  1  0
 13 14  2  0
 14 15  1  0
 15 17  1  0
 17 18  2  0
 17 19  1  0
 15 16  2  0
  5  6  2  0
  6  1  1  0
 29 24  1  0
 16 11  1  0
  9 10  1  0
M  CHG 1  25  -1
M  CHG 1  27  -1
M  END
> <UniqueID>
26

> <SMILES>
CC(=O)c1cccc(NC(=O)c2ccccc2S(=O)(=O)/N=c2\[n-]c([O-])cn2C)c1

> <Energy>
89.86992454722204

> <Genealogy>
CC(=O)c1cccc(NC(=O)c2ccccc2S(=O)(=O)N=c2[n-]c([O-])cn2C)c1 (protonated)
CC(=O)c1cccc(NC(=O)c2ccccc2S(=O)(=O)/N=c2\[n-]c([O-])cn2C)c1 (cis-trans isomerization)
CC(=O)c1cccc(NC(=O)c2ccccc2S(=O)(=O)/N=c2\[n-]c([O-])cn2C)c1 (3D coordinates assigned)
CC(=O)c1cccc(NC(=O)c2ccccc2S(=O)(=O)/N=c2\[n-]c([O-])cn2C)c1 (optimized conformer: 89.86992454722204 kcal/mol)

> <smiles>
CC(=O)c1cccc(NC(=O)c2ccccc2S(=O)(=O)N=c2[nH]c(O)cn2C)c1

> <score_type>
oracle

> <origin>
adg

> <m_score__min__energy>
-14.550000000000001

> <m_primary>
energy

> <minimizedAffinity>
-7.54594

> <minimizedRMSD>
1.37051

> <CNNscore>
0.2822455466

> <CNNaffinity>
5.9964103699

> <CNN_VS>
1.6924601793

> <CNNaffinity_variance>
0.0060520414

$$$$
39:0


 29 32  0  0  0  0  0  0  0  0999 V2000
   58.8661   27.3458   47.5342 C   0  0  0  0  0  0  0  0  0  0  0  0
   58.6491   27.9663   46.3637 C   0  0  0  0  0  0  0  0  0  0  0  0
   58.1313   27.4041   45.1845 C   0  0  0  0  0  0  0  0  0  0  0  0
   57.8877   26.1230   44.8473 C   0  0  0  0  0  0  0  0  0  0  0  0
   57.9053   28.4614   44.3182 C   0  0  0  0  0  0  0  0  0  0  0  0
   58.3409   29.6042   44.9583 C   0  0  0  0  0  0  0  0  0  0  0  0
   58.2884   30.9837   44.3756 C   0  0  0  0  0  0  0  0  0  0  0  0
   58.7992   29.3047   46.1924 N   0  0  0  0  0  0  0  0  0  0  0  0
   57.3527   25.0856   45.7448 C   0  0  0  0  0  0  0  0  0  0  0  0
   57.9864   23.9373   46.0509 N   0  0  0  0  0  0  0  0  0  0  0  0
   57.0659   23.2592   46.7712 C   0  0  0  0  0  0  0  0  0  0  0  0
   57.2934   22.1210   47.2591 O   0  0  0  0  0  0  0  0  0  0  0  0
   55.8807   23.8894   46.9161 N   0  0  0  0  0  0  0  0  0  0  0  0
   56.0755   25.0380   46.2472 C   0  0  0  0  0  0  0  0  0  0  0  0
   55.1042   26.0185   46.0953 O   0  0  0  0  0  0  0  0  0  0  0  0
   59.2509   30.2648   47.1633 C   0  0  0  0  0  0  0  0  0  0  0  0
   58.6398   31.5223   47.2427 C   0  0  0  0  0  0  0  0  0  0  0  0
   59.0642   32.4474   48.1983 C   0  0  0  0  0  0  0  0  0  0  0  0
   60.1023   32.1242   49.0769 C   0  0  0  0  0  0  0  0  0  0  0  0
   60.7396   30.8712   48.9980 C   0  0  0  0  0  0  0  0  0  0  0  0
   60.2862   29.9369   48.0501 C   0  0  0  0  0  0  0  0  0  0  0  0
   61.7939   30.5243   49.9271 N   0  0  0  0  0  0  0  0  0  0  0  0
   61.8843   29.6209   50.3078 H   0  0  0  0  0  0  0  0  0  0  0  0
   61.9252   29.7292   49.3616 H   0  0  0  0  0  0  0  0  0  0  0  0
   62.7281   31.6245   50.2653 C   0  0  0  0  0  0  0  0  0  0  0  0
   63.5606   32.1479   49.0986 C   0  0  0  0  0  0  0  0  0  0  0  0
   64.7209   32.8878   49.7566 C   0  0  0  0  0  0  0  0  0  0  0  0
   64.8479   32.3361   51.1811 C   0  0  0  0  0  0  0  0  0  0  0  0
   63.7499   31.2903   51.3487 C   0  0  0  0  0  0  0  0  0  0  0  0
  1  2  2  0
  2  3  1  0
  3  4  2  0
  4  9  1  0
  9 10  1  0
 10 11  1  0
 11 12  2  0
 11 13  1  0
 13 14  1  0
 14 15  1  0
  3  5  1  0
  5  6  2  0
  6  7  1  0
  6  8  1  0
  8 16  1  0
 16 17  2  0
 17 18  1  0
 18 19  2  0
 19 20  1  0
 20 22  1  0
 22 25  1  0
 25 26  1  0
 26 27  1  0
 27 28  1  0
 28 29  1  0
 20 21  2  0
  8  2  1  0
 21 16  1  0
 14  9  2  0
 29 25  1  0
 22 23  1  0
 22 24  1  0
M  CHG 1  10  -1
M  CHG 1  13  -1
M  CHG 1  15  -1
M  CHG 1  22   1
M  END
> <UniqueID>
36

> <SMILES>
C=c1c(=Cc2[n-]c(=O)[n-]c2[O-])cc(C)n1-c1cccc([NH2+]C2CCCC2)c1

> <Energy>
132.97054619336373

> <Genealogy>
C=c1c(=Cc2[n-]c(=O)[n-]c2[O-])cc(C)n1-c1cccc([NH2+]C2CCCC2)c1 (protonated)
C=c1c(=Cc2[n-]c(=O)[n-]c2[O-])cc(C)n1-c1cccc([NH2+]C2CCCC2)c1 (3D coordinates assigned)
C=c1c(=Cc2[n-]c(=O)[n-]c2[O-])cc(C)n1-c1cccc([NH2+]C2CCCC2)c1 (nonaromatic ring conformer: 132.97054619336373 kcal/mol)

> <smiles>
C=c1c(=Cc2[nH]c(=O)[nH]c2O)cc(C)n1-c1cccc(NC2CCCC2)c1

> <score_type>
oracle

> <origin>
adg

> <m_score__min__energy>
-15.34

> <m_primary>
energy

> <minimizedAffinity>
-7.86254

> <minimizedRMSD>
2.21180

> <CNNscore>
0.2561010718

> <CNNaffinity>
6.6934590340

> <CNN_VS>
1.7142020464

> <CNNaffinity_variance>
0.2402296066

$$$$
40:0


 26 27  0  0  0  0  0  0  0  0999 V2000
   57.2936   29.8404   44.9562 C   0  0  0  0  0  0  0  0  0  0  0  0
   56.0705   29.7950   44.6584 O   0  0  0  0  0  0  0  0  0  0  0  0
   57.8224   28.8963   45.8884 N   0  0  0  0  0  0  0  0  0  0  0  0
   58.8861   27.9546   45.5559 C   0  0  0  0  0  0  0  0  0  0  0  0
   56.6889   22.5902   45.1418 C   0  0  0  0  0  0  0  0  0  0  0  0
   57.2513   23.9738   45.2215 C   0  0  0  0  0  0  0  0  0  0  0  0
   57.3619   24.7590   44.0733 C   0  0  0  0  0  0  0  0  0  0  0  0
   57.9123   26.0471   44.1519 C   0  0  0  0  0  0  0  0  0  0  0  0
   58.0034   26.8744   42.8950 C   0  0  0  0  0  0  0  0  0  0  0  0
   58.3285   26.5483   45.4127 C   0  0  0  0  0  0  0  0  0  0  0  0
   58.1948   25.7125   46.5432 C   0  0  0  0  0  0  0  0  0  0  0  0
   58.5546   26.1050   47.6844 O   0  0  0  0  0  0  0  0  0  0  0  0
   57.6729   24.4649   46.4152 N   0  0  0  0  0  0  0  0  0  0  0  0
   58.1447   30.8322   44.3727 N   0  0  0  0  0  0  0  0  0  0  0  0
   57.8144   32.2505   44.3294 C   0  0  0  0  0  0  0  0  0  0  0  0
   58.6153   32.9805   45.3710 C   0  0  0  0  0  0  0  0  0  0  0  0
   58.9478   34.3322   45.1901 C   0  0  0  0  0  0  0  0  0  0  0  0
   59.6369   35.0262   46.1875 C   0  0  0  0  0  0  0  0  0  0  0  0
   59.9981   34.3796   47.3718 C   0  0  0  0  0  0  0  0  0  0  0  0
   59.6620   33.0334   47.5692 C   0  0  0  0  0  0  0  0  0  0  0  0
   58.9667   32.3394   46.5702 C   0  0  0  0  0  0  0  0  0  0  0  0
   60.0997   32.2046   49.0607 S   0  0  0  0  0  0  0  0  0  0  0  0
   60.7673   33.3349   50.1845 N   0  0  0  0  0  0  0  0  0  0  0  0
   61.1215   31.1370   48.7820 O   0  0  0  0  0  0  0  0  0  0  0  0
   58.8747   31.5649   49.6531 O   0  0  0  0  0  0  0  0  0  0  0  0
   61.5978   33.7668   49.7796 H   0  0  0  0  0  0  0  0  0  0  0  0
  5  6  1  0
  6  7  2  0
  7  8  1  0
  8  9  1  0
  8 10  2  0
 10  4  1  0
  4  3  1  0
  3  1  1  0
  1  2  2  0
  1 14  1  0
 14 15  1  0
 15 16  1  0
 16 17  2  0
 17 18  1  0
 18 19  2  0
 19 20  1  0
 20 22  1  0
 22 23  1  0
 22 24  2  0
 22 25  2  0
 20 21  2  0
 10 11  1  0
 11 12  2  0
 11 13  1  0
 13  6  1  0
 21 16  1  0
 23 26  1  0
M  CHG 1   3  -1
M  CHG 1  13  -1
M  CHG 1  14  -1
M  CHG 1  23  -1
M  END
> <UniqueID>
37

> <SMILES>
Cc1cc(C)c(C[N-]C(=O)[N-]Cc2cccc(S([NH-])(=O)=O)c2)c(=O)[n-]1

> <Energy>
33.715274414077044

> <Genealogy>
Cc1cc(C)c(C[N-]C(=O)[N-]Cc2cccc(S([NH-])(=O)=O)c2)c(=O)[n-]1 (protonated)
Cc1cc(C)c(C[N-]C(=O)[N-]Cc2cccc(S([NH-])(=O)=O)c2)c(=O)[n-]1 (3D coordinates assigned)
Cc1cc(C)c(C[N-]C(=O)[N-]Cc2cccc(S([NH-])(=O)=O)c2)c(=O)[n-]1 (optimized conformer: 33.715274414077044 kcal/mol)

> <smiles>
Cc1cc(C)c(CNC(=O)NCc2cccc(S(N)(=O)=O)c2)c(=O)[nH]1

> <score_type>
oracle

> <origin>
adg

> <m_score__min__energy>
-15.130000000000001

> <m_primary>
energy

> <minimizedAffinity>
-7.03950

> <minimizedRMSD>
1.35817

> <CNNscore>
0.5088406801

> <CNNaffinity>
6.7791557312

> <CNN_VS>
3.4495100975

> <CNNaffinity_variance>
0.3769242465

$$$$
51:0


 31 33  0  0  0  0  0  0  0  0999 V2000
   59.7003   29.8622   48.6632 C   0  0  0  0  0  0  0  0  0  0  0  0
   60.9713   29.9092   48.0799 C   0  0  0  0  0  0  0  0  0  0  0  0
   61.1110   29.7812   46.6972 C   0  0  0  0  0  0  0  0  0  0  0  0
   59.9873   29.6016   45.8855 C   0  0  0  0  0  0  0  0  0  0  0  0
   60.1678   29.4818   44.5455 F   0  0  0  0  0  0  0  0  0  0  0  0
   58.6980   29.5439   46.4581 C   0  0  0  0  0  0  0  0  0  0  0  0
   58.5705   29.6801   47.8549 C   0  0  0  0  0  0  0  0  0  0  0  0
   59.4984   30.0810   50.3987 S   0  0  0  0  0  0  0  0  0  0  0  0
   60.1213   28.9361   51.1514 O   0  0  0  0  0  0  0  0  0  0  0  0
   58.0299   30.1264   50.7148 O   0  0  0  0  0  0  0  0  0  0  0  0
   60.2405   31.5741   50.8893 N   0  0  0  0  0  0  0  0  0  0  0  0
   60.3616   31.5756   51.9021 H   0  0  0  0  0  0  0  0  0  0  0  0
   59.3903   32.6999   50.4996 C   0  0  0  0  0  0  0  0  0  0  0  0
   58.9678   33.5148   46.7886 C   0  0  0  0  0  0  0  0  0  0  0  0
   60.2968   33.7774   46.4289 C   0  0  0  0  0  0  0  0  0  0  0  0
   61.3191   33.6926   47.3766 C   0  0  0  0  0  0  0  0  0  0  0  0
   61.0228   33.3467   48.6984 C   0  0  0  0  0  0  0  0  0  0  0  0
   59.6974   33.0979   49.0840 C   0  0  0  0  0  0  0  0  0  0  0  0
   58.6730   33.1696   48.1223 C   0  0  0  0  0  0  0  0  0  0  0  0
   58.1925   33.3232   44.4174 C   0  0  0  0  0  0  0  0  0  0  0  0
   57.9787   33.6083   45.7964 O   0  0  0  0  0  0  0  0  0  0  0  0
   57.4867   29.3575   45.6185 C   0  0  0  0  0  0  0  0  0  0  0  0
   56.9932   30.3356   44.9941 O   0  0  0  0  0  0  0  0  0  0  0  0
   56.8844   28.0536   45.5172 N   0  0  0  0  0  0  0  0  0  0  0  0
   57.4422   26.9041   45.7734 C   0  0  0  0  0  0  0  0  0  0  0  0
   58.7957   26.7444   45.7129 N   0  0  0  0  0  0  0  0  0  0  0  0
   59.3929   25.5473   45.9647 C   0  0  0  0  0  0  0  0  0  0  0  0
   58.6176   24.4348   46.2889 C   0  0  0  0  0  0  0  0  0  0  0  0
   57.2304   24.5675   46.3601 C   0  0  0  0  0  0  0  0  0  0  0  0
   56.6340   25.8053   46.1040 C   0  0  0  0  0  0  0  0  0  0  0  0
   55.2524   25.9380   46.1816 O   0  0  0  0  0  0  0  0  0  0  0  0
 20 21  1  0
 21 14  1  0
 14 15  2  0
 15 16  1  0
 16 17  2  0
 17 18  1  0
 18 13  1  0
 13 11  1  0
 11  8  1  0
  8  9  2  0
  8 10  2  0
  8  1  1  0
  1  2  2  0
  2  3  1  0
  3  4  2  0
  4  5  1  0
  4  6  1  0
  6 22  1  0
 22 23  2  0
 22 24  1  0
 24 25  2  0
 25 26  1  0
 26 27  1  0
 27 28  2  0
 28 29  1  0
 29 30  2  0
 30 31  1  0
  6  7  2  0
 18 19  2  0
 19 14  1  0
  7  1  1  0
 30 25  1  0
 11 12  1  0
M  CHG 1  26  -1
M  CHG 1  31  -1
M  END
> <UniqueID>
47

> <SMILES>
COc1cccc(CNS(=O)(=O)c2ccc(F)c(C(=O)N=c3[n-]cccc3[O-])c2)c1

> <Energy>
50.73276501800022

> <Genealogy>
COc1cccc(CNS(=O)(=O)c2ccc(F)c(C(=O)N=c3[n-]cccc3[O-])c2)c1 (protonated)
COc1cccc(CNS(=O)(=O)c2ccc(F)c(C(=O)N=c3[n-]cccc3[O-])c2)c1 (3D coordinates assigned)
COc1cccc(CNS(=O)(=O)c2ccc(F)c(C(=O)N=c3[n-]cccc3[O-])c2)c1 (optimized conformer: 50.73276501800022 kcal/mol)

> <smiles>
COc1cccc(CNS(=O)(=O)c2ccc(F)c(C(=O)N=c3[nH]cccc3O)c2)c1

> <score_type>
oracle

> <origin>
adg

> <m_score__min__energy>
-14.699999999999999

> <m_primary>
energy

> <minimizedAffinity>
-6.40097

> <minimizedRMSD>
0.69310

> <CNNscore>
0.7468377948

> <CNNaffinity>
6.8966827393

> <CNN_VS>
5.1507034302

> <CNNaffinity_variance>
0.1507015675

$$$$
88:0


 28 30  0  0  0  0  0  0  0  0999 V2000
   58.6198   32.1288   46.4056 C   0  0  0  0  0  0  0  0  0  0  0  0
   58.2588   32.3191   45.0587 C   0  0  0  0  0  0  0  0  0  0  0  0
   58.3224   33.5899   44.4828 C   0  0  0  0  0  0  0  0  0  0  0  0
   58.7541   34.6807   45.2381 C   0  0  0  0  0  0  0  0  0  0  0  0
   59.1326   34.5017   46.5688 C   0  0  0  0  0  0  0  0  0  0  0  0
   59.0720   33.2309   47.1624 C   0  0  0  0  0  0  0  0  0  0  0  0
   59.6244   33.0224   48.8302 S   0  0  0  0  0  0  0  0  0  0  0  0
   58.9836   31.7996   49.4305 O   0  0  0  0  0  0  0  0  0  0  0  0
   59.2003   34.2282   49.6219 O   0  0  0  0  0  0  0  0  0  0  0  0
   61.3624   32.8597   48.9015 N   0  0  0  0  0  0  0  0  0  0  0  0
   61.7175   31.7857   49.8446 C   0  0  0  0  0  0  0  0  0  0  0  0
   63.2375   31.7528   50.0868 C   0  0  0  0  0  0  0  0  0  0  0  0
   64.0276   32.4064   48.9434 C   0  0  0  0  0  0  0  0  0  0  0  0
   63.3749   32.1232   47.5878 C   0  0  0  0  0  0  0  0  0  0  0  0
   61.8969   32.5711   47.5527 C   0  0  0  0  0  0  0  0  0  0  0  0
   58.5383   30.8370   47.0275 N   0  0  0  0  0  0  0  0  0  0  0  0
   59.5173   29.4598   46.6428 S   0  0  0  0  0  0  0  0  0  0  0  0
   60.1857   29.6470   45.3095 O   0  0  0  0  0  0  0  0  0  0  0  0
   60.5801   29.2934   47.6911 O   0  0  0  0  0  0  0  0  0  0  0  0
   59.9999   26.7071   48.1512 C   0  0  0  0  0  0  0  0  0  0  0  0
   58.7769   26.8397   47.2916 C   0  0  0  0  0  0  0  0  0  0  0  0
   57.9396   25.7735   47.2076 N   0  0  0  0  0  0  0  0  0  0  0  0
   56.8205   25.8072   46.4443 C   0  0  0  0  0  0  0  0  0  0  0  0
   56.0676   24.8002   46.3872 O   0  0  0  0  0  0  0  0  0  0  0  0
   56.5138   26.9231   45.7395 N   0  0  0  0  0  0  0  0  0  0  0  0
   57.3055   28.0233   45.7873 C   0  0  0  0  0  0  0  0  0  0  0  0
   56.9902   29.0326   45.1016 O   0  0  0  0  0  0  0  0  0  0  0  0
   58.4635   28.0288   46.5884 C   0  0  0  0  0  0  0  0  0  0  0  0
 20 21  1  0
 21 22  1  0
 22 23  1  0
 23 24  2  0
 23 25  1  0
 25 26  1  0
 26 27  2  0
 26 28  1  0
 28 17  1  0
 17 18  2  0
 17 19  2  0
 17 16  1  0
 16  1  1  0
  1  2  2  0
  2  3  1  0
  3  4  2  0
  4  5  1  0
  5  6  2  0
  6  7  1  0
  7  8  2  0
  7  9  2  0
  7 10  1  0
 10 11  1  0
 11 12  1  0
 12 13  1  0
 13 14  1  0
 14 15  1  0
 28 21  2  0
  6  1  1  0
 15 10  1  0
M  CHG 1  16  -1
M  CHG 1  22  -1
M  CHG 1  25  -1
M  END
> <UniqueID>
81

> <SMILES>
Cc1[n-]c(=O)[n-]c(=O)c1S(=O)(=O)[N-]c1ccccc1S(=O)(=O)N1CCCCC1

> <Energy>
54.870668284680605

> <Genealogy>
Cc1[n-]c(=O)[n-]c(=O)c1S(=O)(=O)[N-]c1ccccc1S(=O)(=O)N1CCCCC1 (protonated)
Cc1[n-]c(=O)[n-]c(=O)c1S(=O)(=O)[N-]c1ccccc1S(=O)(=O)N1CCCCC1 (3D coordinates assigned)
Cc1[n-]c(=O)[n-]c(=O)c1S(=O)(=O)[N-]c1ccccc1S(=O)(=O)N1CCCCC1 (nonaromatic ring conformer: 54.870668284680605 kcal/mol)

> <smiles>
Cc1[nH]c(=O)[nH]c(=O)c1S(=O)(=O)Nc1ccccc1S(=O)(=O)N1CCCCC1

> <score_type>
oracle

> <origin>
adg

> <m_score__min__energy>
-14.82

> <m_primary>
energy

> <minimizedAffinity>
-7.29476

> <minimizedRMSD>
0.88772

> <CNNscore>
0.5398405790

> <CNNaffinity>
6.4636421204

> <CNN_VS>
3.4893362522

> <CNNaffinity_variance>
0.0049040844

$$$$
89:0


 38 41  0  0  0  0  0  0  0  0999 V2000
   58.6294   28.4580   45.1329 C   0  0  0  0  0  0  0  0  0  0  0  0
   58.7780   29.5926   45.8559 C   0  0  0  0  0  0  0  0  0  0  0  0
   57.7274   27.3488   45.4892 C   0  0  0  0  0  0  0  0  0  0  0  0
   56.3427   27.5290   45.5125 C   0  0  0  0  0  0  0  0  0  0  0  0
   55.7802   28.7535   45.1727 O   0  0  0  0  0  0  0  0  0  0  0  0
   55.5380   26.5057   45.8856 N   0  0  0  0  0  0  0  0  0  0  0  0
   56.0444   25.2962   46.2383 C   0  0  0  0  0  0  0  0  0  0  0  0
   55.2474   24.3880   46.5996 O   0  0  0  0  0  0  0  0  0  0  0  0
   57.3978   25.0707   46.1955 N   0  0  0  0  0  0  0  0  0  0  0  0
   58.2388   26.0789   45.7924 C   0  0  0  0  0  0  0  0  0  0  0  0
   59.4809   25.8729   45.6875 O   0  0  0  0  0  0  0  0  0  0  0  0
   57.9560   23.7822   46.6523 C   0  0  0  0  0  0  0  0  0  0  0  0
   57.4844   22.6655   45.7556 C   0  0  0  0  0  0  0  0  0  0  0  0
   57.5471   22.8067   44.3590 C   0  0  0  0  0  0  0  0  0  0  0  0
   57.0605   21.7944   43.5249 C   0  0  0  0  0  0  0  0  0  0  0  0
   56.5048   20.6354   44.0786 C   0  0  0  0  0  0  0  0  0  0  0  0
   56.4354   20.4877   45.4674 C   0  0  0  0  0  0  0  0  0  0  0  0
   56.9200   21.4974   46.3044 C   0  0  0  0  0  0  0  0  0  0  0  0
   59.3489   29.4956   47.2315 C   0  0  0  0  0  0  0  0  0  0  0  0
   58.6379   29.0368   48.1672 O   0  0  0  0  0  0  0  0  0  0  0  0
   60.6864   29.9358   47.5261 N   0  0  0  0  0  0  0  0  0  0  0  0
   61.2785   30.1929   46.7828 H   0  0  0  0  0  0  0  0  0  0  0  0
   61.1940   30.0133   48.8950 C   0  0  0  0  0  0  0  0  0  0  0  0
   62.1092   31.2006   49.0401 C   0  0  0  0  0  0  0  0  0  0  0  0
   62.5468   31.8965   47.8984 C   0  0  0  0  0  0  0  0  0  0  0  0
   63.3711   33.0187   48.0295 C   0  0  0  0  0  0  0  0  0  0  0  0
   63.7673   33.4533   49.2997 C   0  0  0  0  0  0  0  0  0  0  0  0
   63.3402   32.7640   50.4398 C   0  0  0  0  0  0  0  0  0  0  0  0
   62.5125   31.6419   50.3127 C   0  0  0  0  0  0  0  0  0  0  0  0
   58.2948   31.1942   45.2302 S   0  0  0  0  0  0  0  0  0  0  0  0
   56.8039   31.3801   45.1745 O   0  0  0  0  0  0  0  0  0  0  0  0
   58.8269   31.3226   43.8284 O   0  0  0  0  0  0  0  0  0  0  0  0
   58.9544   32.4767   46.2485 C   0  0  0  0  0  0  0  0  0  0  0  0
   59.7203   33.5081   45.6838 C   0  0  0  0  0  0  0  0  0  0  0  0
   60.1974   34.5497   46.4865 C   0  0  0  0  0  0  0  0  0  0  0  0
   59.9103   34.5698   47.8552 C   0  0  0  0  0  0  0  0  0  0  0  0
   59.1675   33.5332   48.4263 C   0  0  0  0  0  0  0  0  0  0  0  0
   58.6889   32.4896   47.6265 C   0  0  0  0  0  0  0  0  0  0  0  0
  1  2  2  0
  2 19  1  0
 19 20  2  0
 19 21  1  0
 21 23  1  0
 23 24  1  0
 24 25  2  0
 25 26  1  0
 26 27  2  0
 27 28  1  0
 28 29  2  0
  2 30  1  0
 30 31  2  0
 30 32  2  0
 30 33  1  0
 33 34  2  0
 34 35  1  0
 35 36  2  0
 36 37  1  0
 37 38  2  0
  1  3  1  0
  3  4  2  0
  4  5  1  0
  4  6  1  0
  6  7  1  0
  7  8  2  0
  7  9  1  0
  9 12  1  0
 12 13  1  0
 13 14  2  0
 14 15  1  0
 15 16  2  0
 16 17  1  0
 17 18  2  0
  9 10  1  0
 10 11  2  0
 29 24  1  0
 38 33  1  0
 10  3  1  0
 18 13  1  0
 21 22  1  0
M  CHG 1   5  -1
M  CHG 1   6  -1
M  END
> <UniqueID>
82

> <SMILES>
O=C(NCc1ccccc1)/C(=C/c1c([O-])[n-]c(=O)n(Cc2ccccc2)c1=O)S(=O)(=O)c1ccccc1

> <Energy>
76.27057036577537

> <Genealogy>
O=C(NCc1ccccc1)C(=Cc1c([O-])[n-]c(=O)n(Cc2ccccc2)c1=O)S(=O)(=O)c1ccccc1 (protonated)
O=C(NCc1ccccc1)/C(=C/c1c([O-])[n-]c(=O)n(Cc2ccccc2)c1=O)S(=O)(=O)c1ccccc1 (cis-trans isomerization)
O=C(NCc1ccccc1)/C(=C/c1c([O-])[n-]c(=O)n(Cc2ccccc2)c1=O)S(=O)(=O)c1ccccc1 (3D coordinates assigned)
O=C(NCc1ccccc1)/C(=C/c1c([O-])[n-]c(=O)n(Cc2ccccc2)c1=O)S(=O)(=O)c1ccccc1 (optimized conformer: 76.27057036577537 kcal/mol)

> <smiles>
O=C(NCc1ccccc1)C(=Cc1c(O)[nH]c(=O)n(Cc2ccccc2)c1=O)S(=O)(=O)c1ccccc1

> <score_type>
oracle

> <origin>
adg

> <m_score__min__energy>
-16.489999999999998

> <m_primary>
energy

> <minimizedAffinity>
-6.17015

> <minimizedRMSD>
0.72727

> <CNNscore>
0.3740636706

> <CNNaffinity>
6.7859687805

> <CNN_VS>
2.5383844376

> <CNNaffinity_variance>
0.0084158219

$$$$
1:0


 26 27  0  0  0  0  0  0  0  0999 V2000
   59.8267   31.8407   48.0199 C   0  0  0  0  0  0  0  0  0  0  0  0
   60.2331   32.8108   48.7152 O   0  0  0  0  0  0  0  0  0  0  0  0
   57.8046   31.2684   44.8572 C   0  0  0  0  0  0  0  0  0  0  0  0
   57.8408   32.5422   44.2790 C   0  0  0  0  0  0  0  0  0  0  0  0
   58.5170   33.5835   44.9185 C   0  0  0  0  0  0  0  0  0  0  0  0
   59.1628   33.3584   46.1362 C   0  0  0  0  0  0  0  0  0  0  0  0
   59.1384   32.0842   46.7310 C   0  0  0  0  0  0  0  0  0  0  0  0
   58.4573   31.0399   46.0769 C   0  0  0  0  0  0  0  0  0  0  0  0
   55.4771   29.6246   44.8554 N   0  0  0  0  0  0  0  0  0  0  0  0
   56.9588   29.9609   44.0332 S   0  0  0  0  0  0  0  0  0  0  0  0
   57.8222   28.7320   44.0287 O   0  0  0  0  0  0  0  0  0  0  0  0
   56.6588   30.3478   42.6117 O   0  0  0  0  0  0  0  0  0  0  0  0
   54.9876   28.8676   44.3781 H   0  0  0  0  0  0  0  0  0  0  0  0
   60.0389   30.5021   48.4764 N   0  0  0  0  0  0  0  0  0  0  0  0
   60.4620   29.4182   47.6024 C   0  0  0  0  0  0  0  0  0  0  0  0
   60.2027   28.1076   48.2794 C   0  0  0  0  0  0  0  0  0  0  0  0
   60.5086   27.9673   49.4933 O   0  0  0  0  0  0  0  0  0  0  0  0
   59.5763   27.0180   47.5935 N   0  0  0  0  0  0  0  0  0  0  0  0
   58.2234   27.0582   47.0498 C   0  0  0  0  0  0  0  0  0  0  0  0
   57.9516   25.7858   46.2975 C   0  0  0  0  0  0  0  0  0  0  0  0
   59.0031   24.9007   46.0116 C   0  0  0  0  0  0  0  0  0  0  0  0
   58.7530   23.6988   45.3436 C   0  0  0  0  0  0  0  0  0  0  0  0
   57.4498   23.3658   44.9629 C   0  0  0  0  0  0  0  0  0  0  0  0
   56.3937   24.2312   45.2570 C   0  0  0  0  0  0  0  0  0  0  0  0
   56.6363   25.4363   45.9277 C   0  0  0  0  0  0  0  0  0  0  0  0
   55.5691   26.2785   46.2246 O   0  0  0  0  0  0  0  0  0  0  0  0
  9 10  1  0
 10 11  2  0
 10 12  2  0
 10  3  1  0
  3  4  2  0
  4  5  1  0
  5  6  2  0
  6  7  1  0
  7  1  1  0
  1  2  2  0
  1 14  1  0
 14 15  1  0
 15 16  1  0
 16 17  2  0
 16 18  1  0
 18 19  1  0
 19 20  1  0
 20 21  2  0
 21 22  1  0
 22 23  2  0
 23 24  1  0
 24 25  2  0
 25 26  1  0
  7  8  2  0
  8  3  1  0
 25 20  1  0
  9 13  1  0
M  CHG 1   9  -1
M  CHG 1  14  -1
M  CHG 1  18  -1
M  CHG 1  26  -1
M  END
> <UniqueID>
2

> <SMILES>
[NH-]S(=O)(=O)c1cccc(C(=O)[N-]CC(=O)[N-]Cc2ccccc2[O-])c1

> <Energy>
33.26285229594201

> <Genealogy>
[NH-]S(=O)(=O)c1cccc(C(=O)[N-]CC(=O)[N-]Cc2ccccc2[O-])c1 (protonated)
[NH-]S(=O)(=O)c1cccc(C(=O)[N-]CC(=O)[N-]Cc2ccccc2[O-])c1 (3D coordinates assigned)
[NH-]S(=O)(=O)c1cccc(C(=O)[N-]CC(=O)[N-]Cc2ccccc2[O-])c1 (optimized conformer: 33.26285229594201 kcal/mol)

> <smiles>
NS(=O)(=O)c1cccc(C(=O)NCC(=O)NCc2ccccc2O)c1

> <score_type>
oracle

> <origin>
adg

> <m_score__min__energy>
-15.76

> <m_primary>
energy

> <minimizedAffinity>
-7.50972

> <minimizedRMSD>
1.02536

> <CNNscore>
0.8114225864

> <CNNaffinity>
6.6620602608

> <CNN_VS>
5.4057459831

> <CNNaffinity_variance>
0.0723736584

$$$$
25:0


 23 24  0  0  0  0  0  0  0  0999 V2000
   54.6831   29.6392   55.2176 O   0  0  0  0  0  0  0  0  0  0  0  0
   55.9656   28.2476   53.8739 O   0  0  0  0  0  0  0  0  0  0  0  0
   55.7199   29.4076   54.3056 C   0  0  0  0  0  0  0  0  0  0  0  0
   56.5476   30.5634   53.8392 C   0  0  0  0  0  0  0  0  0  0  0  0
   57.7939   30.0659   53.1585 C   0  0  0  0  0  0  0  0  0  0  0  0
   58.8530   29.5413   53.9149 C   0  0  0  0  0  0  0  0  0  0  0  0
   60.0307   29.1254   53.2850 C   0  0  0  0  0  0  0  0  0  0  0  0
   60.1651   29.2446   51.8980 C   0  0  0  0  0  0  0  0  0  0  0  0
   61.3415   28.8318   51.2839 O   0  0  0  0  0  0  0  0  0  0  0  0
   59.1163   29.7803   51.1369 C   0  0  0  0  0  0  0  0  0  0  0  0
   59.2849   29.9734   49.2400 Br  0  0  0  0  0  0  0  0  0  0  0  0
   57.9363   30.1906   51.7670 C   0  0  0  0  0  0  0  0  0  0  0  0
   53.3153   29.4941   54.9458 C   0  0  0  0  0  0  0  0  0  0  0  0
   52.5763   28.8177   55.7131 O   0  0  0  0  0  0  0  0  0  0  0  0
   52.7418   30.1423   53.7450 C   0  0  0  0  0  0  0  0  0  0  0  0
   53.0661   29.6830   52.4561 C   0  0  0  0  0  0  0  0  0  0  0  0
   52.5158   30.2972   51.3257 C   0  0  0  0  0  0  0  0  0  0  0  0
   52.8466   29.8334   50.0580 O   0  0  0  0  0  0  0  0  0  0  0  0
   51.6360   31.3769   51.4713 C   0  0  0  0  0  0  0  0  0  0  0  0
   51.0902   31.9864   50.3476 O   0  0  0  0  0  0  0  0  0  0  0  0
   51.3069   31.8396   52.7504 C   0  0  0  0  0  0  0  0  0  0  0  0
   50.4324   32.9096   52.9008 O   0  0  0  0  0  0  0  0  0  0  0  0
   51.8556   31.2271   53.8815 C   0  0  0  0  0  0  0  0  0  0  0  0
  2  3  2  0
  3  4  1  0
  4  5  1  0
  5  6  2  0
  6  7  1  0
  7  8  2  0
  8  9  1  0
  8 10  1  0
 10 11  1  0
 10 12  2  0
  3  1  1  0
  1 13  1  0
 13 14  2  0
 13 15  1  0
 15 16  2  0
 16 17  1  0
 17 18  1  0
 17 19  2  0
 19 20  1  0
 19 21  1  0
 21 22  1  0
 21 23  2  0
 12  5  1  0
 23 15  1  0
M  CHG 1   9  -1
M  CHG 1  18  -1
M  CHG 1  20  -1
M  CHG 1  22  -1
M  END
> <UniqueID>
25

> <SMILES>
O=C(Cc1ccc([O-])c(Br)c1)OC(=O)c1cc([O-])c([O-])c([O-])c1

> <Energy>
31.052879634074383

> <Genealogy>
O=C(Cc1ccc([O-])c(Br)c1)OC(=O)c1cc([O-])c([O-])c([O-])c1 (protonated)
O=C(Cc1ccc([O-])c(Br)c1)OC(=O)c1cc([O-])c([O-])c([O-])c1 (3D coordinates assigned)
O=C(Cc1ccc([O-])c(Br)c1)OC(=O)c1cc([O-])c([O-])c([O-])c1 (optimized conformer: 31.052879634074383 kcal/mol)

> <smiles>
O=C(Cc1ccc(O)c(Br)c1)OC(=O)c1cc(O)c(O)c(O)c1

> <score_type>
oracle

> <origin>
adg

> <m_score__min__energy>
-17.739999999999998

> <m_primary>
energy

> <minimizedAffinity>
-4.17647

> <minimizedRMSD>
1.89278

> <CNNscore>
0.1909229606

> <CNNaffinity>
4.0034842491

> <CNN_VS>
0.7643570900

> <CNNaffinity_variance>
0.3509858549

$$$$
36:0


 27 29  0  0  0  0  0  0  0  0999 V2000
   57.6802   32.0578   51.9550 C   0  0  0  0  0  0  0  0  0  0  0  0
   58.2911   32.5501   53.1226 C   0  0  0  0  0  0  0  0  0  0  0  0
   59.6435   32.9015   53.1147 C   0  0  0  0  0  0  0  0  0  0  0  0
   60.4015   32.7557   51.9502 C   0  0  0  0  0  0  0  0  0  0  0  0
   59.8089   32.2555   50.7799 C   0  0  0  0  0  0  0  0  0  0  0  0
   58.4526   31.8897   50.7965 C   0  0  0  0  0  0  0  0  0  0  0  0
   55.8460   30.3248   52.2454 C   0  0  0  0  0  0  0  0  0  0  0  0
   56.6704   29.4064   52.4996 O   0  0  0  0  0  0  0  0  0  0  0  0
   56.3012   31.6553   51.9435 N   0  0  0  0  0  0  0  0  0  0  0  0
   55.6249   32.3331   51.7145 H   0  0  0  0  0  0  0  0  0  0  0  0
   53.4099   30.8814   52.3210 C   0  0  0  0  0  0  0  0  0  0  0  0
   54.4108   29.9933   52.2141 C   0  0  0  0  0  0  0  0  0  0  0  0
   52.2299   30.9581   51.4390 C   0  0  0  0  0  0  0  0  0  0  0  0
   51.9140   30.0062   50.6767 O   0  0  0  0  0  0  0  0  0  0  0  0
   51.4903   32.1316   51.3974 O   0  0  0  0  0  0  0  0  0  0  0  0
   60.6354   32.0499   49.5356 C   0  0  0  0  0  0  0  0  0  0  0  0
   59.8060   31.6182   48.3469 C   0  0  0  0  0  0  0  0  0  0  0  0
   59.5947   30.2916   48.1202 N   0  0  0  0  0  0  0  0  0  0  0  0
   58.8619   29.8540   47.0959 N   0  0  0  0  0  0  0  0  0  0  0  0
   58.2861   30.7088   46.2174 C   0  0  0  0  0  0  0  0  0  0  0  0
   57.5819   30.2517   45.2772 O   0  0  0  0  0  0  0  0  0  0  0  0
   58.4807   32.0896   46.3694 C   0  0  0  0  0  0  0  0  0  0  0  0
   59.2576   32.5542   47.4431 C   0  0  0  0  0  0  0  0  0  0  0  0
   59.4252   34.0510   47.5896 C   0  0  0  0  0  0  0  0  0  0  0  0
   59.7292   34.6905   46.2275 C   0  0  0  0  0  0  0  0  0  0  0  0
   58.7726   34.2465   45.0915 C   0  0  0  0  0  0  0  0  0  0  0  0
   57.8143   33.0997   45.4655 C   0  0  0  0  0  0  0  0  0  0  0  0
 11 13  1  0
 13 14  2  0
 13 15  1  0
 11 12  2  0
 12  7  1  0
  7  8  2  0
  7  9  1  0
  9  1  1  0
  1  2  2  0
  2  3  1  0
  3  4  2  0
  4  5  1  0
  5 16  1  0
 16 17  1  0
 17 18  2  0
 18 19  1  0
 19 20  1  0
 20 21  2  0
 20 22  1  0
 22 23  2  0
 23 24  1  0
 24 25  1  0
 25 26  1  0
 26 27  1  0
  5  6  2  0
  6  1  1  0
 23 17  1  0
 27 22  1  0
  9 10  1  0
M  CHG 1  15  -1
M  CHG 1  19  -1
M  END
> <UniqueID>
34

> <SMILES>
O=C([O-])/C=C\C(=O)Nc1cccc(Cc2n[n-]c(=O)c3c2CCCC3)c1

> <Energy>
63.372683277298435

> <Genealogy>
O=C([O-])C=CC(=O)Nc1cccc(Cc2n[n-]c(=O)c3c2CCCC3)c1 (protonated)
O=C([O-])/C=C\C(=O)Nc1cccc(Cc2n[n-]c(=O)c3c2CCCC3)c1 (cis-trans isomerization)
O=C([O-])/C=C\C(=O)Nc1cccc(Cc2n[n-]c(=O)c3c2CCCC3)c1 (3D coordinates assigned)
O=C([O-])/C=C\C(=O)Nc1cccc(Cc2n[n-]c(=O)c3c2CCCC3)c1 (nonaromatic ring conformer: 63.372683277298435 kcal/mol)

> <smiles>
O=C(O)C=CC(=O)Nc1cccc(Cc2n[nH]c(=O)c3c2CCCC3)c1

> <score_type>
oracle

> <origin>
adg

> <m_score__min__energy>
-14.09

> <m_primary>
energy

> <minimizedAffinity>
-8.40703

> <minimizedRMSD>
0.88934

> <CNNscore>
0.8850561976

> <CNNaffinity>
6.6540813446

> <CNN_VS>
5.8892359734

> <CNNaffinity_variance>
0.0827225670

$$$$
39:0


 32 34  0  0  0  0  0  0  0  0999 V2000
   58.8053   28.6271   47.0231 C   0  0  0  0  0  0  0  0  0  0  0  0
   58.3244   28.7328   45.7747 C   0  0  0  0  0  0  0  0  0  0  0  0
   58.1145   27.6973   44.8484 C   0  0  0  0  0  0  0  0  0  0  0  0
   58.2035   26.3590   44.9758 C   0  0  0  0  0  0  0  0  0  0  0  0
   57.7377   28.3086   43.6617 C   0  0  0  0  0  0  0  0  0  0  0  0
   57.6877   29.6634   43.9067 C   0  0  0  0  0  0  0  0  0  0  0  0
   57.2847   30.7003   42.9020 C   0  0  0  0  0  0  0  0  0  0  0  0
   58.0307   29.9235   45.1879 N   0  0  0  0  0  0  0  0  0  0  0  0
   57.5382   25.5461   46.0037 C   0  0  0  0  0  0  0  0  0  0  0  0
   58.1175   24.4945   46.6056 N   0  0  0  0  0  0  0  0  0  0  0  0
   57.1293   23.9952   47.3807 C   0  0  0  0  0  0  0  0  0  0  0  0
   57.2915   22.9925   48.1239 O   0  0  0  0  0  0  0  0  0  0  0  0
   55.9521   24.6487   47.2892 N   0  0  0  0  0  0  0  0  0  0  0  0
   56.2181   25.6191   46.3995 C   0  0  0  0  0  0  0  0  0  0  0  0
   55.2657   26.5318   45.9536 O   0  0  0  0  0  0  0  0  0  0  0  0
   54.3908   26.4965   46.2870 H   0  0  0  0  0  0  0  0  0  0  0  0
   58.1206   31.2340   45.7750 C   0  0  0  0  0  0  0  0  0  0  0  0
   57.5833   32.3433   45.1090 C   0  0  0  0  0  0  0  0  0  0  0  0
   57.6532   33.6107   45.6895 C   0  0  0  0  0  0  0  0  0  0  0  0
   58.2536   33.7786   46.9406 C   0  0  0  0  0  0  0  0  0  0  0  0
   58.7929   32.6741   47.6271 C   0  0  0  0  0  0  0  0  0  0  0  0
   58.7199   31.4000   47.0310 C   0  0  0  0  0  0  0  0  0  0  0  0
   59.4185   32.8484   48.9578 C   0  0  0  0  0  0  0  0  0  0  0  0
   60.3603   33.6718   49.1081 O   0  0  0  0  0  0  0  0  0  0  0  0
   58.9482   32.0883   50.0783 N   0  0  0  0  0  0  0  0  0  0  0  0
   59.6309   30.5739   50.5740 S   0  0  0  0  0  0  0  0  0  0  0  0
   60.0042   30.6729   52.0262 O   0  0  0  0  0  0  0  0  0  0  0  0
   58.6216   29.4708   50.4198 O   0  0  0  0  0  0  0  0  0  0  0  0
   61.1068   30.2116   49.6253 C   0  0  0  0  0  0  0  0  0  0  0  0
   62.3393   30.9878   50.1087 C   0  0  0  0  0  0  0  0  0  0  0  0
   63.0265   31.7678   48.9794 C   0  0  0  0  0  0  0  0  0  0  0  0
   63.9092   32.8799   49.5404 C   0  0  0  0  0  0  0  0  0  0  0  0
  1  2  2  0
  2  3  1  0
  3  4  2  0
  4  9  1  0
  9 10  1  0
 10 11  1  0
 11 12  2  0
 11 13  1  0
 13 14  1  0
 14 15  1  0
  3  5  1  0
  5  6  2  0
  6  7  1  0
  6  8  1  0
  8 17  1  0
 17 18  2  0
 18 19  1  0
 19 20  2  0
 20 21  1  0
 21 23  1  0
 23 24  2  0
 23 25  1  0
 25 26  1  0
 26 27  2  0
 26 28  2  0
 26 29  1  0
 29 30  1  0
 30 31  1  0
 31 32  1  0
 21 22  2  0
  8  2  1  0
 22 17  1  0
 14  9  2  0
 15 16  1  0
M  CHG 1  10  -1
M  CHG 1  13  -1
M  CHG 1  25  -1
M  END
> <UniqueID>
37

> <SMILES>
C=c1c(=Cc2[n-]c(=O)[n-]c2O)cc(C)n1-c1cccc(C(=O)[N-]S(=O)(=O)CCCC)c1

> <Energy>
121.46382132955011

> <Genealogy>
C=c1c(=Cc2[n-]c(=O)[n-]c2O)cc(C)n1-c1cccc(C(=O)[N-]S(=O)(=O)CCCC)c1 (protonated)
C=c1c(=Cc2[n-]c(=O)[n-]c2O)cc(C)n1-c1cccc(C(=O)[N-]S(=O)(=O)CCCC)c1 (3D coordinates assigned)
C=c1c(=Cc2[n-]c(=O)[n-]c2O)cc(C)n1-c1cccc(C(=O)[N-]S(=O)(=O)CCCC)c1 (optimized conformer: 121.46382132955011 kcal/mol)

> <smiles>
C=c1c(=Cc2[nH]c(=O)[nH]c2O)cc(C)n1-c1cccc(C(=O)NS(=O)(=O)CCCC)c1

> <score_type>
oracle

> <origin>
adg

> <m_score__min__energy>
-14.6

> <m_primary>
energy

> <minimizedAffinity>
-7.20355

> <minimizedRMSD>
0.77195

> <CNNscore>
0.3474904895

> <CNNaffinity>
7.0029625893

> <CNN_VS>
2.4334628582

> <CNNaffinity_variance>
0.0462608151

$$$$
53:0


 36 39  0  0  0  0  0  0  0  0999 V2000
   58.9450   27.8408   44.2698 O   0  0  0  0  0  0  0  0  0  0  0  0
   57.9685   28.4181   44.8125 C   0  0  0  0  0  0  0  0  0  0  0  0
   56.9876   27.6681   45.5463 N   0  0  0  0  0  0  0  0  0  0  0  0
   57.2176   26.6017   46.2444 C   0  0  0  0  0  0  0  0  0  0  0  0
   56.3264   25.6008   46.4117 N   0  0  0  0  0  0  0  0  0  0  0  0
   56.8044   24.6395   47.2500 C   0  0  0  0  0  0  0  0  0  0  0  0
   58.0780   24.9001   47.7638 C   0  0  0  0  0  0  0  0  0  0  0  0
   58.6159   26.3639   47.1375 S   0  0  0  0  0  0  0  0  0  0  0  0
   55.9530   23.5106   47.6755 C   0  0  0  0  0  0  0  0  0  0  0  0
   55.1943   23.6690   48.6681 O   0  0  0  0  0  0  0  0  0  0  0  0
   55.9942   22.2223   47.0485 N   0  0  0  0  0  0  0  0  0  0  0  0
   55.1520   21.7801   45.9417 C   0  0  0  0  0  0  0  0  0  0  0  0
   55.9572   20.8756   45.0053 C   0  0  0  0  0  0  0  0  0  0  0  0
   56.1320   21.5139   43.6811 N   0  0  0  0  0  0  0  0  0  0  0  0
   55.8031   22.9630   43.6939 C   0  0  0  0  0  0  0  0  0  0  0  0
   57.0552   23.8552   43.8006 C   0  0  0  0  0  0  0  0  0  0  0  0
   58.0365   23.2311   44.5928 O   0  0  0  0  0  0  0  0  0  0  0  0
   58.5523   22.0817   43.9409 C   0  0  0  0  0  0  0  0  0  0  0  0
   57.4900   21.2845   43.1469 C   0  0  0  0  0  0  0  0  0  0  0  0
   57.8574   29.8876   44.7162 C   0  0  0  0  0  0  0  0  0  0  0  0
   57.6335   30.5166   43.4820 C   0  0  0  0  0  0  0  0  0  0  0  0
   57.5999   31.9163   43.4190 C   0  0  0  0  0  0  0  0  0  0  0  0
   57.7755   32.6709   44.5796 C   0  0  0  0  0  0  0  0  0  0  0  0
   57.9806   32.0131   45.7981 C   0  0  0  0  0  0  0  0  0  0  0  0
   58.0226   30.6505   45.8306 N   0  0  0  0  0  0  0  0  0  0  0  0
   58.1547   32.7898   46.9878 N   0  0  0  0  0  0  0  0  0  0  0  0
   59.2863   33.6252   47.2790 C   0  0  0  0  0  0  0  0  0  0  0  0
   59.1335   34.8655   47.4573 O   0  0  0  0  0  0  0  0  0  0  0  0
   60.6332   33.0312   47.4354 C   0  0  0  0  0  0  0  0  0  0  0  0
   61.7392   33.7356   46.9258 C   0  0  0  0  0  0  0  0  0  0  0  0
   63.0368   33.2558   47.1177 C   0  0  0  0  0  0  0  0  0  0  0  0
   63.2482   32.0674   47.8162 C   0  0  0  0  0  0  0  0  0  0  0  0
   62.1582   31.3449   48.3047 C   0  0  0  0  0  0  0  0  0  0  0  0
   60.8510   31.8019   48.1057 C   0  0  0  0  0  0  0  0  0  0  0  0
   59.8028   30.9933   48.5522 O   0  0  0  0  0  0  0  0  0  0  0  0
   59.9878   30.1868   48.9918 H   0  0  0  0  0  0  0  0  0  0  0  0
  1  2  2  0
  2  3  1  0
  3  4  2  0
  4  5  1  0
  5  6  1  0
  6  9  1  0
  9 10  2  0
  9 11  1  0
 11 12  1  0
 12 13  1  0
 13 14  1  0
 14 15  1  0
 15 16  1  0
 16 17  1  0
 17 18  1  0
 18 19  1  0
  6  7  2  0
  7  8  1  0
  2 20  1  0
 20 21  2  0
 21 22  1  0
 22 23  2  0
 23 24  1  0
 24 26  1  0
 26 27  1  0
 27 28  2  0
 27 29  1  0
 29 30  2  0
 30 31  1  0
 31 32  2  0
 32 33  1  0
 33 34  2  0
 34 35  1  0
 24 25  2  0
  8  4  1  0
 25 20  1  0
 19 14  1  0
 34 29  1  0
 35 36  1  0
M  CHG 1   5  -1
M  CHG 1  11  -1
M  CHG 1  26  -1
M  END
> <UniqueID>
50

> <SMILES>
O=C(N=c1[n-]c(C(=O)[N-]CCN2CCOCC2)cs1)c1cccc([N-]C(=O)c2ccccc2O)n1

> <Energy>
115.59454188503535

> <Genealogy>
O=C(N=c1[n-]c(C(=O)[N-]CCN2CCOCC2)cs1)c1cccc([N-]C(=O)c2ccccc2O)n1 (protonated)
O=C(N=c1[n-]c(C(=O)[N-]CCN2CCOCC2)cs1)c1cccc([N-]C(=O)c2ccccc2O)n1 (3D coordinates assigned)
O=C(N=c1[n-]c(C(=O)[N-]CCN2CCOCC2)cs1)c1cccc([N-]C(=O)c2ccccc2O)n1 (nonaromatic ring conformer: 115.59454188503535 kcal/mol)

> <smiles>
O=C(N=c1[nH]c(C(=O)NCCN2CCOCC2)cs1)c1cccc(NC(=O)c2ccccc2O)n1

> <score_type>
oracle

> <origin>
adg

> <m_score__min__energy>
-14.43

> <m_primary>
energy

> <minimizedAffinity>
-6.70369

> <minimizedRMSD>
1.21929

> <CNNscore>
0.1401333809

> <CNNaffinity>
6.2946834564

> <CNN_VS>
0.8820952773

> <CNNaffinity_variance>
0.1203121766

$$$$
63:0


 31 34  0  0  0  0  0  0  0  0999 V2000
   59.1573   32.5033   46.7693 C   0  0  0  0  0  0  0  0  0  0  0  0
   59.7298   33.6840   46.2647 C   0  0  0  0  0  0  0  0  0  0  0  0
   60.7402   34.3367   46.9749 C   0  0  0  0  0  0  0  0  0  0  0  0
   61.1822   33.8266   48.1990 C   0  0  0  0  0  0  0  0  0  0  0  0
   62.1574   34.4731   48.8902 N   0  0  0  0  0  0  0  0  0  0  0  0
   62.6080   34.0178   50.0880 C   0  0  0  0  0  0  0  0  0  0  0  0
   62.0708   32.8577   50.6449 C   0  0  0  0  0  0  0  0  0  0  0  0
   61.0704   32.1605   49.9614 C   0  0  0  0  0  0  0  0  0  0  0  0
   60.6088   32.6473   48.7220 C   0  0  0  0  0  0  0  0  0  0  0  0
   59.5874   31.9998   48.0025 C   0  0  0  0  0  0  0  0  0  0  0  0
   60.5426   30.9512   50.5213 N   0  0  0  0  0  0  0  0  0  0  0  0
   59.2737   31.0038   51.2525 C   0  0  0  0  0  0  0  0  0  0  0  0
   59.1778   29.8097   52.2085 C   0  0  0  0  0  0  0  0  0  0  0  0
   59.4440   28.5973   51.5303 O   0  0  0  0  0  0  0  0  0  0  0  0
   60.7874   28.5842   51.0853 C   0  0  0  0  0  0  0  0  0  0  0  0
   61.0112   29.6599   50.0194 C   0  0  0  0  0  0  0  0  0  0  0  0
   58.0866   31.8296   46.0911 N   0  0  0  0  0  0  0  0  0  0  0  0
   58.2134   30.8482   45.0543 C   0  0  0  0  0  0  0  0  0  0  0  0
   58.1316   31.1965   43.8461 O   0  0  0  0  0  0  0  0  0  0  0  0
   57.7427   27.1516   45.8774 C   0  0  0  0  0  0  0  0  0  0  0  0
   59.0805   26.7649   46.0740 C   0  0  0  0  0  0  0  0  0  0  0  0
   60.1069   27.6950   45.9367 C   0  0  0  0  0  0  0  0  0  0  0  0
   59.8194   29.0199   45.6082 C   0  0  0  0  0  0  0  0  0  0  0  0
   58.4891   29.4343   45.4103 C   0  0  0  0  0  0  0  0  0  0  0  0
   57.4520   28.4854   45.5429 C   0  0  0  0  0  0  0  0  0  0  0  0
   56.1271   28.8503   45.3274 O   0  0  0  0  0  0  0  0  0  0  0  0
   56.6609   26.2172   45.9992 N   0  0  0  0  0  0  0  0  0  0  0  0
   57.1393   24.3309   43.9085 C   0  0  0  0  0  0  0  0  0  0  0  0
   56.7497   24.5274   45.6326 S   0  0  0  0  0  0  0  0  0  0  0  0
   55.4278   23.8736   45.9165 O   0  0  0  0  0  0  0  0  0  0  0  0
   57.8258   23.8811   46.4578 O   0  0  0  0  0  0  0  0  0  0  0  0
 28 29  1  0
 29 30  2  0
 29 31  2  0
 29 27  1  0
 27 20  1  0
 20 21  2  0
 21 22  1  0
 22 23  2  0
 23 24  1  0
 24 18  1  0
 18 19  2  0
 18 17  1  0
 17  1  1  0
  1  2  2  0
  2  3  1  0
  3  4  2  0
  4  5  1  0
  5  6  2  0
  6  7  1  0
  7  8  2  0
  8 11  1  0
 11 12  1  0
 12 13  1  0
 13 14  1  0
 14 15  1  0
 15 16  1  0
  8  9  1  0
  9 10  2  0
 24 25  2  0
 25 26  1  0
 25 20  1  0
 10  1  1  0
  9  4  1  0
 16 11  1  0
M  CHG 1  17  -1
M  CHG 1  26  -1
M  CHG 1  27  -1
M  END
> <UniqueID>
60

> <SMILES>
CS(=O)(=O)[N-]c1cccc(C(=O)[N-]c2ccc3nccc(N4CCOCC4)c3c2)c1[O-]

> <Energy>
69.40613829085063

> <Genealogy>
CS(=O)(=O)[N-]c1cccc(C(=O)[N-]c2ccc3nccc(N4CCOCC4)c3c2)c1[O-] (protonated)
CS(=O)(=O)[N-]c1cccc(C(=O)[N-]c2ccc3nccc(N4CCOCC4)c3c2)c1[O-] (3D coordinates assigned)
CS(=O)(=O)[N-]c1cccc(C(=O)[N-]c2ccc3nccc(N4CCOCC4)c3c2)c1[O-] (nonaromatic ring conformer: 69.40613829085063 kcal/mol)

> <smiles>
CS(=O)(=O)Nc1cccc(C(=O)Nc2ccc3nccc(N4CCOCC4)c3c2)c1O

> <score_type>
oracle

> <origin>
adg

> <m_score__min__energy>
-16.859999999999999

> <m_primary>
energy

> <minimizedAffinity>
-7.43531

> <minimizedRMSD>
1.67403

> <CNNscore>
0.5642516613

> <CNNaffinity>
7.0578331947

> <CNN_VS>
3.9823942184

> <CNNaffinity_variance>
0.0680952892

$$$$
68:0


 30 32  0  0  0  0  0  0  0  0999 V2000
   58.6695   30.7088   45.9911 C   0  0  0  0  0  0  0  0  0  0  0  0
   59.6408   30.7426   46.9994 C   0  0  0  0  0  0  0  0  0  0  0  0
   60.2607   29.5586   47.4149 C   0  0  0  0  0  0  0  0  0  0  0  0
   59.9252   28.3418   46.8130 C   0  0  0  0  0  0  0  0  0  0  0  0
   58.9837   28.3023   45.7795 C   0  0  0  0  0  0  0  0  0  0  0  0
   58.3389   29.4879   45.3861 C   0  0  0  0  0  0  0  0  0  0  0  0
   57.8777   32.1950   45.4607 S   0  0  0  0  0  0  0  0  0  0  0  0
   58.6662   32.8115   44.3389 O   0  0  0  0  0  0  0  0  0  0  0  0
   56.5015   31.8714   44.9480 O   0  0  0  0  0  0  0  0  0  0  0  0
   57.7438   33.3318   46.7692 N   0  0  0  0  0  0  0  0  0  0  0  0
   56.8040   33.7282   46.7787 H   0  0  0  0  0  0  0  0  0  0  0  0
   58.7232   34.4064   46.5943 C   0  0  0  0  0  0  0  0  0  0  0  0
   63.6569   33.1319   49.3964 C   0  0  0  0  0  0  0  0  0  0  0  0
   62.3771   33.4306   48.6745 C   0  0  0  0  0  0  0  0  0  0  0  0
   62.3419   33.4398   47.2714 C   0  0  0  0  0  0  0  0  0  0  0  0
   61.1587   33.7520   46.5971 C   0  0  0  0  0  0  0  0  0  0  0  0
   59.9948   34.0625   47.3171 C   0  0  0  0  0  0  0  0  0  0  0  0
   60.0383   34.0852   48.7196 C   0  0  0  0  0  0  0  0  0  0  0  0
   61.2216   33.7729   49.3939 C   0  0  0  0  0  0  0  0  0  0  0  0
   58.6537   27.0431   45.1777 N   0  0  0  0  0  0  0  0  0  0  0  0
   58.8098   25.7688   45.8144 C   0  0  0  0  0  0  0  0  0  0  0  0
   59.9183   25.4829   46.3405 O   0  0  0  0  0  0  0  0  0  0  0  0
   57.7187   24.7718   45.8083 C   0  0  0  0  0  0  0  0  0  0  0  0
   56.3765   25.1704   45.7951 C   0  0  0  0  0  0  0  0  0  0  0  0
   55.3868   24.1835   45.7992 C   0  0  0  0  0  0  0  0  0  0  0  0
   54.1703   24.5065   45.7731 O   0  0  0  0  0  0  0  0  0  0  0  0
   55.7371   22.8717   45.8335 N   0  0  0  0  0  0  0  0  0  0  0  0
   57.0439   22.5011   45.8583 C   0  0  0  0  0  0  0  0  0  0  0  0
   57.3494   21.2809   45.8933 O   0  0  0  0  0  0  0  0  0  0  0  0
   58.0200   23.4456   45.8399 N   0  0  0  0  0  0  0  0  0  0  0  0
 13 14  1  0
 14 15  2  0
 15 16  1  0
 16 17  2  0
 17 12  1  0
 12 10  1  0
 10  7  1  0
  7  8  2  0
  7  9  2  0
  7  1  1  0
  1  2  2  0
  2  3  1  0
  3  4  2  0
  4  5  1  0
  5 20  1  0
 20 21  1  0
 21 22  2  0
 21 23  1  0
 23 24  2  0
 24 25  1  0
 25 26  2  0
 25 27  1  0
 27 28  1  0
 28 29  2  0
 28 30  1  0
  5  6  2  0
 17 18  1  0
 18 19  2  0
 19 14  1  0
  6  1  1  0
 30 23  1  0
 10 11  1  0
M  CHG 1  20  -1
M  CHG 1  27  -1
M  CHG 1  30  -1
M  END
> <UniqueID>
65

> <SMILES>
Cc1ccc(CNS(=O)(=O)c2cccc([N-]C(=O)c3cc(=O)[n-]c(=O)[n-]3)c2)cc1

> <Energy>
46.698331143307826

> <Genealogy>
Cc1ccc(CNS(=O)(=O)c2cccc([N-]C(=O)c3cc(=O)[n-]c(=O)[n-]3)c2)cc1 (protonated)
Cc1ccc(CNS(=O)(=O)c2cccc([N-]C(=O)c3cc(=O)[n-]c(=O)[n-]3)c2)cc1 (3D coordinates assigned)
Cc1ccc(CNS(=O)(=O)c2cccc([N-]C(=O)c3cc(=O)[n-]c(=O)[n-]3)c2)cc1 (optimized conformer: 46.698331143307826 kcal/mol)

> <smiles>
Cc1ccc(CNS(=O)(=O)c2cccc(NC(=O)c3cc(=O)[nH]c(=O)[nH]3)c2)cc1

> <score_type>
oracle

> <origin>
adg

> <m_score__min__energy>
-15.32

> <m_primary>
energy

> <minimizedAffinity>
-8.47134

> <minimizedRMSD>
1.59611

> <CNNscore>
0.5959281325

> <CNNaffinity>
7.0114598274

> <CNN_VS>
4.1783261299

> <CNNaffinity_variance>
0.4061674178

$$$$
79:0


 21 22  0  0  0  0  0  0  0  0999 V2000
   52.5250   29.7050   55.6671 C   0  0  0  0  0  0  0  0  0  0  0  0
   51.5601   29.4439   56.4311 O   0  0  0  0  0  0  0  0  0  0  0  0
   52.2500   30.3052   54.3446 C   0  0  0  0  0  0  0  0  0  0  0  0
   52.9858   29.9421   53.2048 C   0  0  0  0  0  0  0  0  0  0  0  0
   52.6939   30.5432   51.9770 C   0  0  0  0  0  0  0  0  0  0  0  0
   53.3437   30.2171   50.9467 O   0  0  0  0  0  0  0  0  0  0  0  0
   51.6861   31.5094   51.8975 C   0  0  0  0  0  0  0  0  0  0  0  0
   51.3829   32.1166   50.6834 O   0  0  0  0  0  0  0  0  0  0  0  0
   50.9870   31.8619   53.0562 C   0  0  0  0  0  0  0  0  0  0  0  0
   49.9869   32.8248   53.0056 O   0  0  0  0  0  0  0  0  0  0  0  0
   51.2847   31.2617   54.2393 N   0  0  0  0  0  0  0  0  0  0  0  0
   53.8581   29.4477   56.1294 N   0  0  0  0  0  0  0  0  0  0  0  0
   56.5272   26.4742   54.6916 C   0  0  0  0  0  0  0  0  0  0  0  0
   55.1833   26.1550   54.9075 C   0  0  0  0  0  0  0  0  0  0  0  0
   54.2978   27.1273   55.3804 C   0  0  0  0  0  0  0  0  0  0  0  0
   54.7472   28.4369   55.6286 C   0  0  0  0  0  0  0  0  0  0  0  0
   56.1040   28.7469   55.4319 C   0  0  0  0  0  0  0  0  0  0  0  0
   56.7710   30.5081   55.7833 Br  0  0  0  0  0  0  0  0  0  0  0  0
   56.9872   27.7692   54.9597 C   0  0  0  0  0  0  0  0  0  0  0  0
   58.1699   24.6654   53.8135 N   0  0  0  0  0  0  0  0  0  0  0  0
   57.4376   25.4714   54.2051 C   0  0  0  0  0  0  0  0  0  0  0  0
 20 21  3  0
 21 13  1  0
 13 14  2  0
 14 15  1  0
 15 16  2  0
 16 12  1  0
 12  1  1  0
  1  2  2  0
  1  3  1  0
  3  4  2  0
  4  5  1  0
  5  6  2  0
  5  7  1  0
  7  8  1  0
  7  9  2  0
  9 10  1  0
  9 11  1  0
 16 17  1  0
 17 18  1  0
 17 19  2  0
 19 13  1  0
 11  3  1  0
M  CHG 1   8  -1
M  CHG 1  10  -1
M  CHG 1  11  -1
M  CHG 1  12  -1
M  END
> <UniqueID>
76

> <SMILES>
N#Cc1ccc([N-]C(=O)c2cc(=O)c([O-])c([O-])[n-]2)c(Br)c1

> <Energy>
33.47652646639526

> <Genealogy>
N#Cc1ccc([N-]C(=O)c2cc(=O)c([O-])c([O-])[n-]2)c(Br)c1 (protonated)
N#Cc1ccc([N-]C(=O)c2cc(=O)c([O-])c([O-])[n-]2)c(Br)c1 (3D coordinates assigned)
N#Cc1ccc([N-]C(=O)c2cc(=O)c([O-])c([O-])[n-]2)c(Br)c1 (optimized conformer: 33.47652646639526 kcal/mol)

> <smiles>
N#Cc1ccc(NC(=O)c2cc(=O)c(O)c(O)[nH]2)c(Br)c1

> <score_type>
oracle

> <origin>
adg

> <m_score__min__energy>
-17.969999999999999

> <m_primary>
energy

> <minimizedAffinity>
-4.28527

> <minimizedRMSD>
2.45263

> <CNNscore>
0.3068855107

> <CNNaffinity>
4.6203656197

> <CNN_VS>
1.4179232121

> <CNNaffinity_variance>
0.1494404823

$$$$
80:0


 30 33  0  0  0  0  0  0  0  0999 V2000
   59.6320   29.7344   46.8330 C   0  0  0  0  0  0  0  0  0  0  0  0
   60.4409   29.6174   47.9771 C   0  0  0  0  0  0  0  0  0  0  0  0
   60.4980   30.6493   48.9285 C   0  0  0  0  0  0  0  0  0  0  0  0
   59.7097   31.7956   48.7379 C   0  0  0  0  0  0  0  0  0  0  0  0
   58.8761   31.9029   47.6219 C   0  0  0  0  0  0  0  0  0  0  0  0
   58.8319   30.8779   46.6653 C   0  0  0  0  0  0  0  0  0  0  0  0
   61.4095   30.5477   50.0938 C   0  0  0  0  0  0  0  0  0  0  0  0
   61.0433   29.9283   51.1297 O   0  0  0  0  0  0  0  0  0  0  0  0
   62.6934   31.1876   50.0790 N   0  0  0  0  0  0  0  0  0  0  0  0
   63.1100   31.9705   48.9117 C   0  0  0  0  0  0  0  0  0  0  0  0
   64.1494   33.0019   49.2782 C   0  0  0  0  0  0  0  0  0  0  0  0
   64.7669   33.0149   50.4711 C   0  0  0  0  0  0  0  0  0  0  0  0
   64.3674   32.0952   51.5965 C   0  0  0  0  0  0  0  0  0  0  0  0
   63.7013   30.8227   51.0739 C   0  0  0  0  0  0  0  0  0  0  0  0
   57.9891   31.0134   45.5103 N   0  0  0  0  0  0  0  0  0  0  0  0
   57.1021   29.9090   45.1280 C   0  0  0  0  0  0  0  0  0  0  0  0
   56.4531   30.1854   43.7713 C   0  0  0  0  0  0  0  0  0  0  0  0
   57.4549   30.7645   42.8720 N   0  0  0  0  0  0  0  0  0  0  0  0
   57.8402   32.1258   43.2899 C   0  0  0  0  0  0  0  0  0  0  0  0
   57.8938   32.3070   44.8220 C   0  0  0  0  0  0  0  0  0  0  0  0
   57.0686   30.8050   41.9288 H   0  0  0  0  0  0  0  0  0  0  0  0
   59.5460   28.6670   45.8761 N   0  0  0  0  0  0  0  0  0  0  0  0
   60.7496   26.7934   46.5297 O   0  0  0  0  0  0  0  0  0  0  0  0
   59.6414   27.2643   46.1574 C   0  0  0  0  0  0  0  0  0  0  0  0
   58.4690   26.3725   46.0794 C   0  0  0  0  0  0  0  0  0  0  0  0
   58.5223   24.9995   45.9191 C   0  0  0  0  0  0  0  0  0  0  0  0
   57.2172   24.5602   45.9052 C   0  0  0  0  0  0  0  0  0  0  0  0
   56.4453   25.6883   46.0626 C   0  0  0  0  0  0  0  0  0  0  0  0
   55.0578   25.6963   46.1003 O   0  0  0  0  0  0  0  0  0  0  0  0
   57.1929   26.8015   46.1759 N   0  0  0  0  0  0  0  0  0  0  0  0
 23 24  2  0
 24 22  1  0
 22  1  1  0
  1  2  2  0
  2  3  1  0
  3  7  1  0
  7  8  2  0
  7  9  1  0
  9 10  1  0
 10 11  1  0
 11 12  2  0
 12 13  1  0
 13 14  1  0
  3  4  2  0
  4  5  1  0
  5  6  2  0
  6 15  1  0
 15 16  1  0
 16 17  1  0
 17 18  1  0
 18 19  1  0
 19 20  1  0
 24 25  1  0
 25 26  2  0
 26 27  1  0
 27 28  2  0
 28 29  1  0
 28 30  1  0
  6  1  1  0
 20 15  1  0
 30 25  1  0
 14  9  1  0
 18 21  1  0
M  CHG 1  22  -1
M  CHG 1  29  -1
M  CHG 1  30  -1
M  END
> <UniqueID>
77

> <SMILES>
O=C([N-]c1cc(C(=O)N2CC=CCC2)ccc1N1CCNCC1)c1ccc([O-])[n-]1

> <Energy>
94.693912889699

> <Genealogy>
O=C([N-]c1cc(C(=O)N2CC=CCC2)ccc1N1CCNCC1)c1ccc([O-])[n-]1 (protonated)
O=C([N-]c1cc(C(=O)N2CC=CCC2)ccc1N1CCNCC1)c1ccc([O-])[n-]1 (3D coordinates assigned)
O=C([N-]c1cc(C(=O)N2CC=CCC2)ccc1N1CCNCC1)c1ccc([O-])[n-]1 (nonaromatic ring conformer: 94.693912889699 kcal/mol)

> <smiles>
O=C(Nc1cc(C(=O)N2CC=CCC2)ccc1N1CCNCC1)c1ccc(O)[nH]1

> <score_type>
oracle

> <origin>
adg

> <m_score__min__energy>
-14.699999999999999

> <m_primary>
energy

> <minimizedAffinity>
-8.17150

> <minimizedRMSD>
1.24886

> <CNNscore>
0.2387042344

> <CNNaffinity>
6.6294922829

> <CNN_VS>
1.5824878216

> <CNNaffinity_variance>
0.0647467449

$$$$
6:0


 26 28  0  0  0  0  0  0  0  0999 V2000
   59.1002   29.4781   45.4493 C   0  0  0  0  0  0  0  0  0  0  0  0
   58.1889   30.1361   44.6159 C   0  0  0  0  0  0  0  0  0  0  0  0
   57.8597   31.4736   44.8506 C   0  0  0  0  0  0  0  0  0  0  0  0
   58.4420   32.1620   45.9181 C   0  0  0  0  0  0  0  0  0  0  0  0
   59.3803   31.5225   46.7410 C   0  0  0  0  0  0  0  0  0  0  0  0
   59.7333   30.1918   46.4800 C   0  0  0  0  0  0  0  0  0  0  0  0
   60.0638   32.3612   48.1349 S   0  0  0  0  0  0  0  0  0  0  0  0
   59.1366   32.2171   49.3085 O   0  0  0  0  0  0  0  0  0  0  0  0
   60.1905   33.8255   47.8179 O   0  0  0  0  0  0  0  0  0  0  0  0
   61.6301   31.7095   48.5649 N   0  0  0  0  0  0  0  0  0  0  0  0
   62.6824   32.1447   47.6130 C   0  0  0  0  0  0  0  0  0  0  0  0
   63.5472   33.2921   48.1587 C   0  0  0  0  0  0  0  0  0  0  0  0
   64.2324   32.9007   49.4792 C   0  0  0  0  0  0  0  0  0  0  0  0
   63.4332   31.8581   50.2793 C   0  0  0  0  0  0  0  0  0  0  0  0
   61.9337   31.9752   49.9891 C   0  0  0  0  0  0  0  0  0  0  0  0
   59.3974   28.0966   45.2080 N   0  0  0  0  0  0  0  0  0  0  0  0
   58.7396   26.8003   47.0169 O   0  0  0  0  0  0  0  0  0  0  0  0
   58.7009   26.9759   45.7692 C   0  0  0  0  0  0  0  0  0  0  0  0
   57.9763   25.9717   44.9114 C   0  0  0  0  0  0  0  0  0  0  0  0
   57.3204   24.9308   45.7624 C   0  0  0  0  0  0  0  0  0  0  0  0
   57.8917   23.7630   46.1057 N   0  0  0  0  0  0  0  0  0  0  0  0
   56.9261   23.1435   46.8185 C   0  0  0  0  0  0  0  0  0  0  0  0
   57.0836   22.0028   47.3263 O   0  0  0  0  0  0  0  0  0  0  0  0
   55.7747   23.8399   46.9405 N   0  0  0  0  0  0  0  0  0  0  0  0
   56.0416   24.9681   46.2616 C   0  0  0  0  0  0  0  0  0  0  0  0
   55.1338   26.0065   46.0996 O   0  0  0  0  0  0  0  0  0  0  0  0
 17 18  2  0
 18 19  1  0
 19 20  1  0
 20 21  1  0
 21 22  1  0
 22 23  2  0
 22 24  1  0
 24 25  1  0
 25 26  1  0
 18 16  1  0
 16  1  1  0
  1  2  2  0
  2  3  1  0
  3  4  2  0
  4  5  1  0
  5  7  1  0
  7  8  2  0
  7  9  2  0
  7 10  1  0
 10 11  1  0
 11 12  1  0
 12 13  1  0
 13 14  1  0
 14 15  1  0
  5  6  2  0
 25 20  2  0
  6  1  1  0
 15 10  1  0
M  CHG 1  16  -1
M  CHG 1  21  -1
M  CHG 1  24  -1
M  CHG 1  26  -1
M  END
> <UniqueID>
7

> <SMILES>
O=C(Cc1[n-]c(=O)[n-]c1[O-])[N-]c1cccc(S(=O)(=O)N2CCCCC2)c1

> <Energy>
78.48580454839035

> <Genealogy>
O=C(Cc1[n-]c(=O)[n-]c1[O-])[N-]c1cccc(S(=O)(=O)N2CCCCC2)c1 (protonated)
O=C(Cc1[n-]c(=O)[n-]c1[O-])[N-]c1cccc(S(=O)(=O)N2CCCCC2)c1 (3D coordinates assigned)
O=C(Cc1[n-]c(=O)[n-]c1[O-])[N-]c1cccc(S(=O)(=O)N2CCCCC2)c1 (nonaromatic ring conformer: 78.48580454839035 kcal/mol)

> <smiles>
O=C(Cc1[nH]c(=O)[nH]c1O)Nc1cccc(S(=O)(=O)N2CCCCC2)c1

> <score_type>
oracle

> <origin>
adg

> <m_score__min__energy>
-18.18

> <m_primary>
energy

> <minimizedAffinity>
-7.76536

> <minimizedRMSD>
1.91059

> <CNNscore>
0.4454551339

> <CNNaffinity>
6.8033962250

> <CNN_VS>
3.0306077003

> <CNNaffinity_variance>
0.4723688364

$$$$
9:0


 29 32  0  0  0  0  0  0  0  0999 V2000
   57.8072   29.8953   46.1645 N   0  0  0  0  0  0  0  0  0  0  0  0
   57.8791   30.9617   45.2077 C   0  0  0  0  0  0  0  0  0  0  0  0
   57.6334   30.7049   43.8485 C   0  0  0  0  0  0  0  0  0  0  0  0
   57.7642   31.7209   42.9002 C   0  0  0  0  0  0  0  0  0  0  0  0
   58.1598   32.9985   43.2970 C   0  0  0  0  0  0  0  0  0  0  0  0
   58.4337   33.2604   44.6403 C   0  0  0  0  0  0  0  0  0  0  0  0
   58.3117   32.2470   45.6073 C   0  0  0  0  0  0  0  0  0  0  0  0
   58.5922   32.5630   47.0296 C   0  0  0  0  0  0  0  0  0  0  0  0
   57.6486   32.9244   47.7843 O   0  0  0  0  0  0  0  0  0  0  0  0
   59.9317   32.5055   47.5519 N   0  0  0  0  0  0  0  0  0  0  0  0
   60.3166   33.3952   48.6508 C   0  0  0  0  0  0  0  0  0  0  0  0
   61.8328   33.6128   48.6298 C   0  0  0  0  0  0  0  0  0  0  0  0
   62.5189   32.3747   48.6114 O   0  0  0  0  0  0  0  0  0  0  0  0
   62.2374   31.6894   47.4062 C   0  0  0  0  0  0  0  0  0  0  0  0
   60.7545   31.3127   47.3289 C   0  0  0  0  0  0  0  0  0  0  0  0
   59.2884   28.4331   45.1455 O   0  0  0  0  0  0  0  0  0  0  0  0
   58.4073   28.6007   46.0302 C   0  0  0  0  0  0  0  0  0  0  0  0
   58.1469   27.5037   47.0299 C   0  0  0  0  0  0  0  0  0  0  0  0
   57.9014   26.2275   46.3559 N   0  0  0  0  0  0  0  0  0  0  0  0
   56.7032   25.7347   45.9712 C   0  0  0  0  0  0  0  0  0  0  0  0
   55.4925   26.3960   46.1435 O   0  0  0  0  0  0  0  0  0  0  0  0
   56.8576   24.4853   45.4039 C   0  0  0  0  0  0  0  0  0  0  0  0
   58.1986   24.1827   45.4845 C   0  0  0  0  0  0  0  0  0  0  0  0
   58.8141   25.2776   46.0547 C   0  0  0  0  0  0  0  0  0  0  0  0
   60.1790   25.3993   46.2909 O   0  0  0  0  0  0  0  0  0  0  0  0
   58.8093   22.9307   44.9341 C   0  0  0  0  0  0  0  0  0  0  0  0
   57.7271   21.8483   44.7395 C   0  0  0  0  0  0  0  0  0  0  0  0
   56.4599   22.4189   44.0657 C   0  0  0  0  0  0  0  0  0  0  0  0
   55.8121   23.5324   44.9125 C   0  0  0  0  0  0  0  0  0  0  0  0
 16 17  2  0
 17 18  1  0
 18 19  1  0
 19 20  1  0
 20 21  1  0
 20 22  2  0
 22 23  1  0
 23 24  2  0
 24 25  1  0
 23 26  1  0
 26 27  1  0
 27 28  1  0
 28 29  1  0
 17  1  1  0
  1  2  1  0
  2  3  2  0
  3  4  1  0
  4  5  2  0
  5  6  1  0
  6  7  2  0
  7  8  1  0
  8  9  2  0
  8 10  1  0
 10 11  1  0
 11 12  1  0
 12 13  1  0
 13 14  1  0
 14 15  1  0
 24 19  1  0
  7  2  1  0
 15 10  1  0
 29 22  1  0
M  CHG 1   1  -1
M  CHG 1  21  -1
M  CHG 1  25  -1
M  END
> <UniqueID>
10

> <SMILES>
O=C(Cn1c([O-])c2c(c1[O-])CCCC2)[N-]c1ccccc1C(=O)N1CCOCC1

> <Energy>
94.11211567327278

> <Genealogy>
O=C(Cn1c([O-])c2c(c1[O-])CCCC2)[N-]c1ccccc1C(=O)N1CCOCC1 (protonated)
O=C(Cn1c([O-])c2c(c1[O-])CCCC2)[N-]c1ccccc1C(=O)N1CCOCC1 (3D coordinates assigned)
O=C(Cn1c([O-])c2c(c1[O-])CCCC2)[N-]c1ccccc1C(=O)N1CCOCC1 (nonaromatic ring conformer: 94.11211567327278 kcal/mol)

> <smiles>
O=C(Cn1c(O)c2c(c1O)CCCC2)Nc1ccccc1C(=O)N1CCOCC1

> <score_type>
oracle

> <origin>
adg

> <m_score__min__energy>
-14.5

> <m_primary>
energy

> <minimizedAffinity>
-7.89141

> <minimizedRMSD>
0.57093

> <CNNscore>
0.2339683473

> <CNNaffinity>
6.1177172661

> <CNN_VS>
1.4313521385

> <CNNaffinity_variance>
0.0095944954

$$$$
50:0


 31 33  0  0  0  0  0  0  0  0999 V2000
   61.5070   32.0420   48.6436 C   0  0  0  0  0  0  0  0  0  0  0  0
   60.8627   31.2799   47.6591 C   0  0  0  0  0  0  0  0  0  0  0  0
   60.5658   29.9345   47.8941 C   0  0  0  0  0  0  0  0  0  0  0  0
   60.9232   29.3323   49.1133 C   0  0  0  0  0  0  0  0  0  0  0  0
   61.5435   30.1055   50.1023 C   0  0  0  0  0  0  0  0  0  0  0  0
   61.8442   31.4501   49.8656 C   0  0  0  0  0  0  0  0  0  0  0  0
   61.9422   33.7212   48.3364 S   0  0  0  0  0  0  0  0  0  0  0  0
   62.5579   34.3431   49.5593 O   0  0  0  0  0  0  0  0  0  0  0  0
   62.9437   33.7733   47.2172 O   0  0  0  0  0  0  0  0  0  0  0  0
   58.8414   33.4251   43.5672 C   0  0  0  0  0  0  0  0  0  0  0  0
   58.6729   33.5251   45.0502 C   0  0  0  0  0  0  0  0  0  0  0  0
   57.5007   33.0793   45.6664 C   0  0  0  0  0  0  0  0  0  0  0  0
   57.3981   33.1842   47.0541 C   0  0  0  0  0  0  0  0  0  0  0  0
   58.4268   33.7033   47.7749 N   0  0  0  0  0  0  0  0  0  0  0  0
   59.5666   34.1251   47.1654 C   0  0  0  0  0  0  0  0  0  0  0  0
   60.5289   34.6189   47.8837 N   0  0  0  0  0  0  0  0  0  0  0  0
   59.6812   34.0282   45.8117 N   0  0  0  0  0  0  0  0  0  0  0  0
   60.6302   27.9567   49.3965 N   0  0  0  0  0  0  0  0  0  0  0  0
   60.2173   26.9646   48.4498 C   0  0  0  0  0  0  0  0  0  0  0  0
   59.1885   26.2670   48.6639 O   0  0  0  0  0  0  0  0  0  0  0  0
   61.0206   26.7704   47.2298 C   0  0  0  0  0  0  0  0  0  0  0  0
   60.6591   27.1344   45.9903 C   0  0  0  0  0  0  0  0  0  0  0  0
   59.3946   27.8126   45.6358 C   0  0  0  0  0  0  0  0  0  0  0  0
   59.3961   29.0753   45.0171 C   0  0  0  0  0  0  0  0  0  0  0  0
   58.1909   29.6758   44.6402 C   0  0  0  0  0  0  0  0  0  0  0  0
   56.9774   29.0143   44.8550 C   0  0  0  0  0  0  0  0  0  0  0  0
   55.7888   29.6242   44.4716 O   0  0  0  0  0  0  0  0  0  0  0  0
   56.9690   27.7394   45.4471 C   0  0  0  0  0  0  0  0  0  0  0  0
   55.7745   27.0533   45.6640 O   0  0  0  0  0  0  0  0  0  0  0  0
   58.1774   27.1417   45.8243 C   0  0  0  0  0  0  0  0  0  0  0  0
   54.9590   27.4425   45.4160 H   0  0  0  0  0  0  0  0  0  0  0  0
 10 11  1  0
 11 12  1  0
 12 13  2  0
 13 14  1  0
 14 15  1  0
 15 16  2  0
 16  7  1  0
  7  8  2  0
  7  9  2  0
  7  1  1  0
  1  2  2  0
  2  3  1  0
  3  4  2  0
  4 18  1  0
 18 19  1  0
 19 20  2  0
 19 21  1  0
 21 22  2  0
 22 23  1  0
 23 24  2  0
 24 25  1  0
 25 26  2  0
 26 27  1  0
 26 28  1  0
 28 29  1  0
 28 30  2  0
  4  5  1  0
  5  6  2  0
 15 17  1  0
 17 11  2  0
  6  1  1  0
 30 23  1  0
 29 31  1  0
M  CHG 1  14  -1
M  CHG 1  18  -1
M  CHG 1  27  -1
M  END
> <UniqueID>
47

> <SMILES>
Cc1cc[n-]c(=NS(=O)(=O)c2ccc([N-]C(=O)C=Cc3ccc([O-])c(O)c3)cc2)n1

> <Energy>
60.91733089655283

> <Genealogy>
Cc1cc[n-]c(=NS(=O)(=O)c2ccc([N-]C(=O)C=Cc3ccc([O-])c(O)c3)cc2)n1 (protonated)
Cc1cc[n-]c(=NS(=O)(=O)c2ccc([N-]C(=O)C=Cc3ccc([O-])c(O)c3)cc2)n1 (3D coordinates assigned)
Cc1cc[n-]c(=NS(=O)(=O)c2ccc([N-]C(=O)C=Cc3ccc([O-])c(O)c3)cc2)n1 (optimized conformer: 60.91733089655283 kcal/mol)

> <smiles>
Cc1cc[nH]c(=NS(=O)(=O)c2ccc(NC(=O)C=Cc3ccc(O)c(O)c3)cc2)n1

> <score_type>
oracle

> <origin>
adg

> <m_score__min__energy>
-14.31

> <m_primary>
energy

> <minimizedAffinity>
-5.11723

> <minimizedRMSD>
0.67991

> <CNNscore>
0.3665833771

> <CNNaffinity>
6.4582099915

> <CNN_VS>
2.3674724102

> <CNNaffinity_variance>
0.1083122715

$$$$
59:0


 33 36  0  0  0  0  0  0  0  0999 V2000
   59.5009   30.0872   46.9904 C   0  0  0  0  0  0  0  0  0  0  0  0
   58.7198   30.7217   47.9643 C   0  0  0  0  0  0  0  0  0  0  0  0
   59.3112   31.5988   48.8816 C   0  0  0  0  0  0  0  0  0  0  0  0
   60.6997   31.8218   48.8546 C   0  0  0  0  0  0  0  0  0  0  0  0
   61.4814   31.1825   47.8793 C   0  0  0  0  0  0  0  0  0  0  0  0
   60.8835   30.3219   46.9499 C   0  0  0  0  0  0  0  0  0  0  0  0
   59.2677   27.1282   47.1780 C   0  0  0  0  0  0  0  0  0  0  0  0
   58.7852   27.8401   46.1475 C   0  0  0  0  0  0  0  0  0  0  0  0
   58.1434   27.3324   45.0097 C   0  0  0  0  0  0  0  0  0  0  0  0
   57.8557   26.0391   44.7504 C   0  0  0  0  0  0  0  0  0  0  0  0
   57.8570   28.4329   44.2073 C   0  0  0  0  0  0  0  0  0  0  0  0
   58.3232   29.5460   44.8765 C   0  0  0  0  0  0  0  0  0  0  0  0
   58.2331   30.9484   44.3498 C   0  0  0  0  0  0  0  0  0  0  0  0
   58.8961   29.1881   46.0462 N   0  0  0  0  0  0  0  0  0  0  0  0
   57.2811   25.0824   45.7212 C   0  0  0  0  0  0  0  0  0  0  0  0
   57.8930   23.9852   46.1967 N   0  0  0  0  0  0  0  0  0  0  0  0
   56.9980   23.4770   47.0715 C   0  0  0  0  0  0  0  0  0  0  0  0
   57.2147   22.4245   47.7273 O   0  0  0  0  0  0  0  0  0  0  0  0
   55.8536   24.1847   47.1845 N   0  0  0  0  0  0  0  0  0  0  0  0
   56.0507   25.2001   46.3276 C   0  0  0  0  0  0  0  0  0  0  0  0
   55.1220   26.2095   46.1013 O   0  0  0  0  0  0  0  0  0  0  0  0
   61.3212   32.7517   49.8156 C   0  0  0  0  0  0  0  0  0  0  0  0
   62.3964   33.3327   49.5057 O   0  0  0  0  0  0  0  0  0  0  0  0
   60.7385   33.0094   51.1000 N   0  0  0  0  0  0  0  0  0  0  0  0
   61.0197   32.2384   52.3130 C   0  0  0  0  0  0  0  0  0  0  0  0
   59.7161   31.9036   53.0514 C   0  0  0  0  0  0  0  0  0  0  0  0
   58.7120   31.3295   52.1230 N   0  0  0  0  0  0  0  0  0  0  0  0
   57.3449   31.8850   52.3132 C   0  0  0  0  0  0  0  0  0  0  0  0
   56.2767   30.8171   52.6026 C   0  0  0  0  0  0  0  0  0  0  0  0
   56.7350   29.8337   53.6021 N   0  0  0  0  0  0  0  0  0  0  0  0
   56.7318   30.3941   54.9618 C   0  0  0  0  0  0  0  0  0  0  0  0
   58.0350   29.2021   53.2655 C   0  0  0  0  0  0  0  0  0  0  0  0
   58.7498   29.8533   52.0634 C   0  0  0  0  0  0  0  0  0  0  0  0
  7  8  2  0
  8  9  1  0
  9 10  2  0
 10 15  1  0
 15 16  1  0
 16 17  1  0
 17 18  2  0
 17 19  1  0
 19 20  1  0
 20 21  1  0
  9 11  1  0
 11 12  2  0
 12 13  1  0
 12 14  1  0
 14  1  1  0
  1  2  2  0
  2  3  1  0
  3  4  2  0
  4 22  1  0
 22 23  2  0
 22 24  1  0
 24 25  1  0
 25 26  1  0
 26 27  1  0
 27 28  1  0
 28 29  1  0
 29 30  1  0
 30 31  1  0
 30 32  1  0
 32 33  1  0
  4  5  1  0
  5  6  2  0
 14  8  1  0
  6  1  1  0
 20 15  2  0
 33 27  1  0
M  CHG 1  16  -1
M  CHG 1  19  -1
M  CHG 1  21  -1
M  CHG 1  24  -1
M  END
> <UniqueID>
56

> <SMILES>
C=c1/c(=C/c2[n-]c(=O)[n-]c2[O-])cc(C)n1-c1ccc(C(=O)[N-]CCN2CCN(C)CC2)cc1

> <Energy>
147.68357107173222

> <Genealogy>
C=c1c(=Cc2[n-]c(=O)[n-]c2[O-])cc(C)n1-c1ccc(C(=O)[N-]CCN2CCN(C)CC2)cc1 (protonated)
C=c1/c(=C/c2[n-]c(=O)[n-]c2[O-])cc(C)n1-c1ccc(C(=O)[N-]CCN2CCN(C)CC2)cc1 (cis-trans isomerization)
C=c1/c(=C/c2[n-]c(=O)[n-]c2[O-])cc(C)n1-c1ccc(C(=O)[N-]CCN2CCN(C)CC2)cc1 (3D coordinates assigned)
C=c1/c(=C/c2[n-]c(=O)[n-]c2[O-])cc(C)n1-c1ccc(C(=O)[N-]CCN2CCN(C)CC2)cc1 (nonaromatic ring conformer: 147.68357107173222 kcal/mol)

> <smiles>
C=c1c(=Cc2[nH]c(=O)[nH]c2O)cc(C)n1-c1ccc(C(=O)NCCN2CCN(C)CC2)cc1

> <score_type>
oracle

> <origin>
adg

> <m_score__min__energy>
-16.600000000000001

> <m_primary>
energy

> <minimizedAffinity>
-7.27097

> <minimizedRMSD>
1.21771

> <CNNscore>
0.1035838574

> <CNNaffinity>
6.5266685486

> <CNN_VS>
0.6760575175

> <CNNaffinity_variance>
0.0342043377

$$$$
78:0


 25 26  0  0  0  0  0  0  0  0999 V2000
   59.6549   33.1719   48.0493 C   0  0  0  0  0  0  0  0  0  0  0  0
   60.0369   34.4627   47.6524 C   0  0  0  0  0  0  0  0  0  0  0  0
   59.5598   34.9998   46.4549 C   0  0  0  0  0  0  0  0  0  0  0  0
   58.6981   34.2538   45.6449 C   0  0  0  0  0  0  0  0  0  0  0  0
   58.3118   32.9576   46.0295 C   0  0  0  0  0  0  0  0  0  0  0  0
   58.7786   32.4315   47.2403 C   0  0  0  0  0  0  0  0  0  0  0  0
   60.2743   32.4795   49.5559 S   0  0  0  0  0  0  0  0  0  0  0  0
   60.0684   33.4682   50.6698 O   0  0  0  0  0  0  0  0  0  0  0  0
   59.4969   31.2357   49.8845 O   0  0  0  0  0  0  0  0  0  0  0  0
   61.9654   32.0343   49.4313 N   0  0  0  0  0  0  0  0  0  0  0  0
   63.6414   31.1926   51.0294 C   0  0  0  0  0  0  0  0  0  0  0  0
   62.2856   30.9471   50.3739 C   0  0  0  0  0  0  0  0  0  0  0  0
   62.3542   31.7267   48.0373 C   0  0  0  0  0  0  0  0  0  0  0  0
   63.3073   32.7993   47.5315 C   0  0  0  0  0  0  0  0  0  0  0  0
   57.4053   32.1781   45.2378 N   0  0  0  0  0  0  0  0  0  0  0  0
   57.7757   31.1185   44.3463 C   0  0  0  0  0  0  0  0  0  0  0  0
   57.7017   31.3155   43.1042 O   0  0  0  0  0  0  0  0  0  0  0  0
   58.2197   29.7984   44.8468 C   0  0  0  0  0  0  0  0  0  0  0  0
   59.5937   29.5354   44.9785 C   0  0  0  0  0  0  0  0  0  0  0  0
   60.0348   28.3065   45.4746 C   0  0  0  0  0  0  0  0  0  0  0  0
   59.1100   27.3244   45.8334 C   0  0  0  0  0  0  0  0  0  0  0  0
   57.7405   27.5613   45.6857 C   0  0  0  0  0  0  0  0  0  0  0  0
   56.8270   26.5711   46.0322 O   0  0  0  0  0  0  0  0  0  0  0  0
   57.2907   28.7922   45.1877 C   0  0  0  0  0  0  0  0  0  0  0  0
   55.9254   28.9962   45.0137 O   0  0  0  0  0  0  0  0  0  0  0  0
 11 12  1  0
 12 10  1  0
 10 13  1  0
 13 14  1  0
 10  7  1  0
  7  8  2  0
  7  9  2  0
  7  1  1  0
  1  2  2  0
  2  3  1  0
  3  4  2  0
  4  5  1  0
  5 15  1  0
 15 16  1  0
 16 17  2  0
 16 18  1  0
 18 19  2  0
 19 20  1  0
 20 21  2  0
 21 22  1  0
 22 23  1  0
 22 24  2  0
 24 25  1  0
  5  6  2  0
  6  1  1  0
 24 18  1  0
M  CHG 1  15  -1
M  CHG 1  23  -1
M  CHG 1  25  -1
M  END
> <UniqueID>
73

> <SMILES>
CCN(CC)S(=O)(=O)c1cccc([N-]C(=O)c2cccc([O-])c2[O-])c1

> <Energy>
49.5139663932042

> <Genealogy>
CCN(CC)S(=O)(=O)c1cccc([N-]C(=O)c2cccc([O-])c2[O-])c1 (protonated)
CCN(CC)S(=O)(=O)c1cccc([N-]C(=O)c2cccc([O-])c2[O-])c1 (3D coordinates assigned)
CCN(CC)S(=O)(=O)c1cccc([N-]C(=O)c2cccc([O-])c2[O-])c1 (optimized conformer: 49.5139663932042 kcal/mol)

> <smiles>
CCN(CC)S(=O)(=O)c1cccc(NC(=O)c2cccc(O)c2O)c1

> <score_type>
oracle

> <origin>
adg

> <m_score__min__energy>
-16.870000000000001

> <m_primary>
energy

> <minimizedAffinity>
-7.55458

> <minimizedRMSD>
1.31523

> <CNNscore>
0.8832067251

> <CNNaffinity>
6.7268576622

> <CNN_VS>
5.9412059784

> <CNNaffinity_variance>
0.0786319301

$$$$
81:0


 24 26  0  0  0  0  0  0  0  0999 V2000
   59.6023   30.6894   47.2284 C   0  0  0  0  0  0  0  0  0  0  0  0
   59.1750   31.6626   46.4076 C   0  0  0  0  0  0  0  0  0  0  0  0
   58.7282   31.5072   45.0824 C   0  0  0  0  0  0  0  0  0  0  0  0
   58.4613   30.4007   44.3582 C   0  0  0  0  0  0  0  0  0  0  0  0
   58.5479   32.7820   44.5810 C   0  0  0  0  0  0  0  0  0  0  0  0
   58.8315   33.6610   45.6044 C   0  0  0  0  0  0  0  0  0  0  0  0
   58.6826   35.1484   45.4994 C   0  0  0  0  0  0  0  0  0  0  0  0
   59.2092   32.9897   46.7178 N   0  0  0  0  0  0  0  0  0  0  0  0
   58.1746   29.0605   44.9072 C   0  0  0  0  0  0  0  0  0  0  0  0
   56.8582   28.6409   45.1595 C   0  0  0  0  0  0  0  0  0  0  0  0
   55.7841   29.4949   44.9323 O   0  0  0  0  0  0  0  0  0  0  0  0
   56.6233   27.3876   45.6251 N   0  0  0  0  0  0  0  0  0  0  0  0
   57.6429   26.5169   45.8375 C   0  0  0  0  0  0  0  0  0  0  0  0
   57.3318   25.0175   46.3994 S   0  0  0  0  0  0  0  0  0  0  0  0
   58.9222   26.8889   45.5720 N   0  0  0  0  0  0  0  0  0  0  0  0
   59.2085   28.1326   45.1056 C   0  0  0  0  0  0  0  0  0  0  0  0
   60.4063   28.4422   44.8653 O   0  0  0  0  0  0  0  0  0  0  0  0
   59.5296   33.6155   48.0130 C   0  0  0  0  0  0  0  0  0  0  0  0
   61.0108   33.5475   48.2817 C   0  0  0  0  0  0  0  0  0  0  0  0
   61.4996   33.6434   49.5956 C   0  0  0  0  0  0  0  0  0  0  0  0
   62.8745   33.5951   49.8415 C   0  0  0  0  0  0  0  0  0  0  0  0
   63.7723   33.4505   48.7803 C   0  0  0  0  0  0  0  0  0  0  0  0
   63.2961   33.3525   47.4710 C   0  0  0  0  0  0  0  0  0  0  0  0
   61.9203   33.3996   47.2198 C   0  0  0  0  0  0  0  0  0  0  0  0
  1  2  2  0
  2  3  1  0
  3  4  2  0
  4  9  1  0
  9 10  2  0
 10 11  1  0
 10 12  1  0
 12 13  1  0
 13 14  2  0
 13 15  1  0
 15 16  1  0
 16 17  2  0
  3  5  1  0
  5  6  2  0
  6  7  1  0
  6  8  1  0
  8 18  1  0
 18 19  1  0
 19 20  2  0
 20 21  1  0
 21 22  2  0
 22 23  1  0
 23 24  2  0
  8  2  1  0
 24 19  1  0
 16  9  1  0
M  CHG 1  11  -1
M  CHG 1  12  -1
M  CHG 1  15  -1
M  END
> <UniqueID>
76

> <SMILES>
C=c1/c(=C\c2c([O-])[n-]c(=S)[n-]c2=O)cc(C)n1Cc1ccccc1

> <Energy>
82.98167623709764

> <Genealogy>
C=c1c(=Cc2c([O-])[n-]c(=S)[n-]c2=O)cc(C)n1Cc1ccccc1 (protonated)
C=c1/c(=C\c2c([O-])[n-]c(=S)[n-]c2=O)cc(C)n1Cc1ccccc1 (cis-trans isomerization)
C=c1/c(=C\c2c([O-])[n-]c(=S)[n-]c2=O)cc(C)n1Cc1ccccc1 (3D coordinates assigned)
C=c1/c(=C\c2c([O-])[n-]c(=S)[n-]c2=O)cc(C)n1Cc1ccccc1 (optimized conformer: 82.98167623709764 kcal/mol)

> <smiles>
C=c1c(=Cc2c(O)[nH]c(=S)[nH]c2=O)cc(C)n1Cc1ccccc1

> <score_type>
oracle

> <origin>
adg

> <m_score__min__energy>
-15.210000000000001

> <m_primary>
energy

> <minimizedAffinity>
-7.40160

> <minimizedRMSD>
0.88410

> <CNNscore>
0.2497456968

> <CNNaffinity>
6.3454971313

> <CNN_VS>
1.5847605467

> <CNNaffinity_variance>
0.0536460280

$$$$
31:0


 28 30  0  0  0  0  0  0  0  0999 V2000
   59.3891   29.8793   47.9587 C   0  0  0  0  0  0  0  0  0  0  0  0
   59.0153   30.4457   46.7977 C   0  0  0  0  0  0  0  0  0  0  0  0
   58.8980   29.7862   45.5694 C   0  0  0  0  0  0  0  0  0  0  0  0
   59.1628   28.4914   45.3011 C   0  0  0  0  0  0  0  0  0  0  0  0
   58.5022   30.7429   44.6475 C   0  0  0  0  0  0  0  0  0  0  0  0
   58.3807   31.9306   45.3374 C   0  0  0  0  0  0  0  0  0  0  0  0
   58.0348   33.2404   44.6958 C   0  0  0  0  0  0  0  0  0  0  0  0
   58.6913   31.7582   46.6456 N   0  0  0  0  0  0  0  0  0  0  0  0
   58.3008   27.3734   45.7489 C   0  0  0  0  0  0  0  0  0  0  0  0
   56.9010   27.4299   45.6342 C   0  0  0  0  0  0  0  0  0  0  0  0
   56.2744   28.5450   45.0919 O   0  0  0  0  0  0  0  0  0  0  0  0
   56.1422   26.3936   46.0775 N   0  0  0  0  0  0  0  0  0  0  0  0
   56.7117   25.3024   46.6483 C   0  0  0  0  0  0  0  0  0  0  0  0
   55.9897   24.3532   47.0480 O   0  0  0  0  0  0  0  0  0  0  0  0
   58.0605   25.2364   46.7964 N   0  0  0  0  0  0  0  0  0  0  0  0
   58.8631   26.2458   46.3684 C   0  0  0  0  0  0  0  0  0  0  0  0
   60.1091   26.1518   46.5248 O   0  0  0  0  0  0  0  0  0  0  0  0
   58.7270   32.8293   47.6566 C   0  0  0  0  0  0  0  0  0  0  0  0
   60.1334   33.0401   48.1563 C   0  0  0  0  0  0  0  0  0  0  0  0
   61.2224   32.9592   47.2719 C   0  0  0  0  0  0  0  0  0  0  0  0
   62.5257   33.1395   47.7405 C   0  0  0  0  0  0  0  0  0  0  0  0
   62.7649   33.3843   49.0966 C   0  0  0  0  0  0  0  0  0  0  0  0
   61.6759   33.4998   49.9773 C   0  0  0  0  0  0  0  0  0  0  0  0
   60.3716   33.3193   49.5107 C   0  0  0  0  0  0  0  0  0  0  0  0
   64.1149   33.5886   49.5377 N   0  0  0  0  0  0  0  0  0  0  0  0
   64.9374   32.6470   50.2414 C   0  0  0  0  0  0  0  0  0  0  0  0
   64.3583   31.4724   50.9691 C   0  0  0  0  0  0  0  0  0  0  0  0
   66.1871   32.7933   50.2176 O   0  0  0  0  0  0  0  0  0  0  0  0
  1  2  2  0
  2  3  1  0
  3  4  2  0
  4  9  1  0
  9 10  2  0
 10 11  1  0
 10 12  1  0
 12 13  1  0
 13 14  2  0
 13 15  1  0
 15 16  1  0
 16 17  2  0
  3  5  1  0
  5  6  2  0
  6  7  1  0
  6  8  1  0
  8 18  1  0
 18 19  1  0
 19 20  2  0
 20 21  1  0
 21 22  2  0
 22 25  1  0
 25 26  1  0
 26 27  1  0
 26 28  2  0
 22 23  1  0
 23 24  2  0
  8  2  1  0
 24 19  1  0
 16  9  1  0
M  CHG 1  11  -1
M  CHG 1  12  -1
M  CHG 1  15  -1
M  CHG 1  25  -1
M  END
> <UniqueID>
30

> <SMILES>
C=c1c(=Cc2c([O-])[n-]c(=O)[n-]c2=O)cc(C)n1Cc1ccc([N-]C(C)=O)cc1

> <Energy>
88.02346829658035

> <Genealogy>
C=c1c(=Cc2c([O-])[n-]c(=O)[n-]c2=O)cc(C)n1Cc1ccc([N-]C(C)=O)cc1 (protonated)
C=c1c(=Cc2c([O-])[n-]c(=O)[n-]c2=O)cc(C)n1Cc1ccc([N-]C(C)=O)cc1 (3D coordinates assigned)
C=c1c(=Cc2c([O-])[n-]c(=O)[n-]c2=O)cc(C)n1Cc1ccc([N-]C(C)=O)cc1 (optimized conformer: 88.02346829658035 kcal/mol)

> <smiles>
C=c1c(=Cc2c(O)[nH]c(=O)[nH]c2=O)cc(C)n1Cc1ccc(NC(C)=O)cc1

> <score_type>
oracle

> <origin>
adg

> <m_score__min__energy>
-16.48

> <m_primary>
energy

> <minimizedAffinity>
-7.75270

> <minimizedRMSD>
0.83174

> <CNNscore>
0.5848149061

> <CNNaffinity>
7.1415181160

> <CNN_VS>
4.1764664650

> <CNNaffinity_variance>
0.2959547341

$$$$
59:0


 35 38  0  0  0  0  0  0  0  0999 V2000
   60.4289   31.5947   48.6101 C   0  0  0  0  0  0  0  0  0  0  0  0
   61.2218   30.6475   48.8499 O   0  0  0  0  0  0  0  0  0  0  0  0
   58.2193   33.0184   44.3730 C   0  0  0  0  0  0  0  0  0  0  0  0
   58.6544   32.1823   45.5426 C   0  0  0  0  0  0  0  0  0  0  0  0
   58.2205   30.8903   45.8210 C   0  0  0  0  0  0  0  0  0  0  0  0
   58.8550   30.5002   46.9861 C   0  0  0  0  0  0  0  0  0  0  0  0
   59.6665   31.5511   47.3589 C   0  0  0  0  0  0  0  0  0  0  0  0
   59.5370   32.5795   46.4906 N   0  0  0  0  0  0  0  0  0  0  0  0
   60.2125   33.8775   46.5618 C   0  0  0  0  0  0  0  0  0  0  0  0
   57.2316   30.0820   45.0825 C   0  0  0  0  0  0  0  0  0  0  0  0
   56.1285   30.5815   44.7392 O   0  0  0  0  0  0  0  0  0  0  0  0
   57.5672   28.7458   44.6823 N   0  0  0  0  0  0  0  0  0  0  0  0
   58.3292   27.8828   45.2926 C   0  0  0  0  0  0  0  0  0  0  0  0
   59.6675   28.1289   45.3172 N   0  0  0  0  0  0  0  0  0  0  0  0
   60.5523   27.3053   45.9367 C   0  0  0  0  0  0  0  0  0  0  0  0
   60.1029   26.1605   46.5864 C   0  0  0  0  0  0  0  0  0  0  0  0
   58.7392   25.8801   46.6020 C   0  0  0  0  0  0  0  0  0  0  0  0
   57.8366   26.7399   45.9741 C   0  0  0  0  0  0  0  0  0  0  0  0
   56.4802   26.4654   46.0837 O   0  0  0  0  0  0  0  0  0  0  0  0
   60.3326   32.6606   49.5676 N   0  0  0  0  0  0  0  0  0  0  0  0
   59.7147   32.7571   50.8631 C   0  0  0  0  0  0  0  0  0  0  0  0
   59.5158   33.9695   51.5541 C   0  0  0  0  0  0  0  0  0  0  0  0
   58.8532   33.9790   52.7844 C   0  0  0  0  0  0  0  0  0  0  0  0
   58.3942   32.7866   53.3490 C   0  0  0  0  0  0  0  0  0  0  0  0
   58.6073   31.5700   52.6899 C   0  0  0  0  0  0  0  0  0  0  0  0
   59.2592   31.5669   51.4459 C   0  0  0  0  0  0  0  0  0  0  0  0
   58.0689   30.0524   53.4235 S   0  0  0  0  0  0  0  0  0  0  0  0
   58.5904   29.9741   54.8332 O   0  0  0  0  0  0  0  0  0  0  0  0
   58.6567   28.9059   52.6489 O   0  0  0  0  0  0  0  0  0  0  0  0
   56.3260   29.9215   53.4795 N   0  0  0  0  0  0  0  0  0  0  0  0
   55.7110   30.4651   52.2620 C   0  0  0  0  0  0  0  0  0  0  0  0
   54.1727   30.4098   52.3805 C   0  0  0  0  0  0  0  0  0  0  0  0
   53.7426   29.6228   53.4783 O   0  0  0  0  0  0  0  0  0  0  0  0
   54.3912   28.3668   53.4547 C   0  0  0  0  0  0  0  0  0  0  0  0
   55.9048   28.5272   53.6970 C   0  0  0  0  0  0  0  0  0  0  0  0
  3  4  1  0
  4  5  2  0
  5 10  1  0
 10 11  2  0
 10 12  1  0
 12 13  2  0
 13 14  1  0
 14 15  1  0
 15 16  2  0
 16 17  1  0
 17 18  2  0
 18 19  1  0
  5  6  1  0
  6  7  2  0
  7  1  1  0
  1  2  2  0
  1 20  1  0
 20 21  1  0
 21 22  2  0
 22 23  1  0
 23 24  2  0
 24 25  1  0
 25 27  1  0
 27 28  2  0
 27 29  2  0
 27 30  1  0
 30 31  1  0
 31 32  1  0
 32 33  1  0
 33 34  1  0
 34 35  1  0
 25 26  2  0
  7  8  1  0
  8  9  1  0
  8  4  1  0
 18 13  1  0
 26 21  1  0
 35 30  1  0
M  CHG 1  14  -1
M  CHG 1  19  -1
M  CHG 1  20  -1
M  END
> <UniqueID>
57

> <SMILES>
Cc1c(C(=O)N=c2[n-]cccc2[O-])cc(C(=O)[N-]c2cccc(S(=O)(=O)N3CCOCC3)c2)n1C

> <Energy>
122.1068986141844

> <Genealogy>
Cc1c(C(=O)N=c2[n-]cccc2[O-])cc(C(=O)[N-]c2cccc(S(=O)(=O)N3CCOCC3)c2)n1C (protonated)
Cc1c(C(=O)N=c2[n-]cccc2[O-])cc(C(=O)[N-]c2cccc(S(=O)(=O)N3CCOCC3)c2)n1C (3D coordinates assigned)
Cc1c(C(=O)N=c2[n-]cccc2[O-])cc(C(=O)[N-]c2cccc(S(=O)(=O)N3CCOCC3)c2)n1C (nonaromatic ring conformer: 122.1068986141844 kcal/mol)

> <smiles>
Cc1c(C(=O)N=c2[nH]cccc2O)cc(C(=O)Nc2cccc(S(=O)(=O)N3CCOCC3)c2)n1C

> <score_type>
oracle

> <origin>
adg

> <m_score__min__energy>
-16.109999999999999

> <m_primary>
energy

> <minimizedAffinity>
-7.61541

> <minimizedRMSD>
1.54619

> <CNNscore>
0.5781118274

> <CNNaffinity>
6.9860405922

> <CNN_VS>
4.0387125015

> <CNNaffinity_variance>
0.1421206146

$$$$
1:0


 34 37  0  0  0  0  0  0  0  0999 V2000
   56.8607   24.2239   46.2973 C   0  0  0  0  0  0  0  0  0  0  0  0
   56.0993   25.3204   46.5195 N   0  0  0  0  0  0  0  0  0  0  0  0
   56.6965   26.4552   46.1673 N   0  0  0  0  0  0  0  0  0  0  0  0
   57.9368   26.2639   45.6631 C   0  0  0  0  0  0  0  0  0  0  0  0
   58.7296   27.2214   45.2836 N   0  0  0  0  0  0  0  0  0  0  0  0
   58.3637   24.6366   45.6543 S   0  0  0  0  0  0  0  0  0  0  0  0
   58.3254   28.5571   44.9450 C   0  0  0  0  0  0  0  0  0  0  0  0
   57.6093   28.7302   43.9267 O   0  0  0  0  0  0  0  0  0  0  0  0
   58.6810   29.7272   45.7780 C   0  0  0  0  0  0  0  0  0  0  0  0
   59.3734   29.5604   46.9903 C   0  0  0  0  0  0  0  0  0  0  0  0
   59.7072   30.6692   47.7704 C   0  0  0  0  0  0  0  0  0  0  0  0
   59.3431   31.9585   47.3573 C   0  0  0  0  0  0  0  0  0  0  0  0
   58.6420   32.1261   46.1559 C   0  0  0  0  0  0  0  0  0  0  0  0
   58.3029   31.0178   45.3766 C   0  0  0  0  0  0  0  0  0  0  0  0
   59.7983   33.3621   48.3282 S   0  0  0  0  0  0  0  0  0  0  0  0
   59.0844   34.5722   47.7975 O   0  0  0  0  0  0  0  0  0  0  0  0
   59.3488   33.1433   49.7466 O   0  0  0  0  0  0  0  0  0  0  0  0
   61.5172   33.6704   48.3194 N   0  0  0  0  0  0  0  0  0  0  0  0
   62.2339   32.8430   49.2860 C   0  0  0  0  0  0  0  0  0  0  0  0
   63.6635   32.7348   48.7778 C   0  0  0  0  0  0  0  0  0  0  0  0
   63.5943   33.1108   47.3024 C   0  0  0  0  0  0  0  0  0  0  0  0
   62.1226   33.3694   47.0266 C   0  0  0  0  0  0  0  0  0  0  0  0
   56.4390   22.8395   46.6761 C   0  0  0  0  0  0  0  0  0  0  0  0
   55.5281   22.2414   45.6475 C   0  0  0  0  0  0  0  0  0  0  0  0
   55.8213   21.1420   45.1022 O   0  0  0  0  0  0  0  0  0  0  0  0
   54.2664   22.8643   45.3880 N   0  0  0  0  0  0  0  0  0  0  0  0
   51.8312   23.0216   45.5573 C   0  0  0  0  0  0  0  0  0  0  0  0
   50.6371   22.8009   46.2736 C   0  0  0  0  0  0  0  0  0  0  0  0
   50.6720   22.2051   47.5373 C   0  0  0  0  0  0  0  0  0  0  0  0
   51.8885   21.8165   48.0942 C   0  0  0  0  0  0  0  0  0  0  0  0
   53.0782   22.0301   47.3958 C   0  0  0  0  0  0  0  0  0  0  0  0
   53.0583   22.6466   46.1308 C   0  0  0  0  0  0  0  0  0  0  0  0
   50.6703   24.0605   43.6000 C   0  0  0  0  0  0  0  0  0  0  0  0
   51.8363   23.6176   44.2875 O   0  0  0  0  0  0  0  0  0  0  0  0
 33 34  1  0
 34 27  1  0
 27 28  2  0
 28 29  1  0
 29 30  2  0
 30 31  1  0
 31 32  2  0
 32 26  1  0
 26 24  1  0
 24 25  2  0
 24 23  1  0
 23  1  1  0
  1  2  2  0
  2  3  1  0
  3  4  1  0
  4  5  2  0
  5  7  1  0
  7  8  2  0
  7  9  1  0
  9 10  2  0
 10 11  1  0
 11 12  2  0
 12 15  1  0
 15 16  2  0
 15 17  2  0
 15 18  1  0
 18 19  1  0
 19 20  1  0
 20 21  1  0
 21 22  1  0
 12 13  1  0
 13 14  2  0
  4  6  1  0
 32 27  1  0
  6  1  1  0
 14  9  1  0
 22 18  1  0
M  CHG 1   3  -1
M  CHG 1  26  -1
M  END
> <UniqueID>
2

> <SMILES>
COc1ccccc1[N-]C(=O)Cc1n[n-]c(=NC(=O)c2ccc(S(=O)(=O)N3CCCC3)cc2)s1

> <Energy>
102.5768191031831

> <Genealogy>
COc1ccccc1[N-]C(=O)Cc1n[n-]c(=NC(=O)c2ccc(S(=O)(=O)N3CCCC3)cc2)s1 (protonated)
COc1ccccc1[N-]C(=O)Cc1n[n-]c(=NC(=O)c2ccc(S(=O)(=O)N3CCCC3)cc2)s1 (3D coordinates assigned)
COc1ccccc1[N-]C(=O)Cc1n[n-]c(=NC(=O)c2ccc(S(=O)(=O)N3CCCC3)cc2)s1 (nonaromatic ring conformer: 102.5768191031831 kcal/mol)

> <smiles>
COc1ccccc1NC(=O)Cc1n[nH]c(=NC(=O)c2ccc(S(=O)(=O)N3CCCC3)cc2)s1

> <score_type>
oracle

> <origin>
adg

> <m_score__min__energy>
-14.43

> <m_primary>
energy

> <minimizedAffinity>
-8.06389

> <minimizedRMSD>
1.33570

> <CNNscore>
0.1941714138

> <CNNaffinity>
6.6399254799

> <CNN_VS>
1.2892837524

> <CNNaffinity_variance>
0.0952377990

$$$$
39:0


 32 34  0  0  0  0  0  0  0  0999 V2000
   58.2605   25.2715   46.7693 C   0  0  0  0  0  0  0  0  0  0  0  0
   58.2113   23.9138   46.8511 N   0  0  0  0  0  0  0  0  0  0  0  0
   57.0935   23.2230   46.5157 C   0  0  0  0  0  0  0  0  0  0  0  0
   57.0842   21.9672   46.5964 O   0  0  0  0  0  0  0  0  0  0  0  0
   55.9863   23.8837   46.0967 N   0  0  0  0  0  0  0  0  0  0  0  0
   55.9713   25.2373   46.0035 C   0  0  0  0  0  0  0  0  0  0  0  0
   54.8007   25.8768   45.6107 O   0  0  0  0  0  0  0  0  0  0  0  0
   57.1221   25.9774   46.3257 C   0  0  0  0  0  0  0  0  0  0  0  0
   60.1512   28.5542   47.0165 N   0  0  0  0  0  0  0  0  0  0  0  0
   60.6095   27.7509   45.8514 C   0  0  0  0  0  0  0  0  0  0  0  0
   60.4814   26.2313   46.0778 C   0  0  0  0  0  0  0  0  0  0  0  0
   59.4844   25.9478   47.1153 N   0  0  0  0  0  0  0  0  0  0  0  0
   59.6293   26.6090   48.4207 C   0  0  0  0  0  0  0  0  0  0  0  0
   60.4730   27.8838   48.2903 C   0  0  0  0  0  0  0  0  0  0  0  0
   60.7242   29.9139   46.9870 C   0  0  0  0  0  0  0  0  0  0  0  0
   61.7294   31.4657   48.6488 C   0  0  0  0  0  0  0  0  0  0  0  0
   60.9212   30.4350   48.3863 C   0  0  0  0  0  0  0  0  0  0  0  0
   57.0972   27.4574   46.3122 C   0  0  0  0  0  0  0  0  0  0  0  0
   57.3350   28.1988   45.2121 C   0  0  0  0  0  0  0  0  0  0  0  0
   57.2123   29.6780   45.2586 C   0  0  0  0  0  0  0  0  0  0  0  0
   56.1326   30.2304   44.9091 O   0  0  0  0  0  0  0  0  0  0  0  0
   58.3076   30.4909   45.7095 N   0  0  0  0  0  0  0  0  0  0  0  0
   59.0886   30.0517   46.1173 H   0  0  0  0  0  0  0  0  0  0  0  0
   58.3034   31.9207   45.5863 C   0  0  0  0  0  0  0  0  0  0  0  0
   58.5197   32.6977   46.7327 C   0  0  0  0  0  0  0  0  0  0  0  0
   58.5048   34.0917   46.6571 C   0  0  0  0  0  0  0  0  0  0  0  0
   58.2833   34.7228   45.4323 C   0  0  0  0  0  0  0  0  0  0  0  0
   58.0945   33.9619   44.2762 C   0  0  0  0  0  0  0  0  0  0  0  0
   58.1257   32.5577   44.3338 C   0  0  0  0  0  0  0  0  0  0  0  0
   57.9625   31.7724   43.0606 C   0  0  0  0  0  0  0  0  0  0  0  0
   57.7516   27.5695   43.9773 C   0  0  0  0  0  0  0  0  0  0  0  0
   58.0849   27.0651   42.9907 N   0  0  0  0  0  0  0  0  0  0  0  0
 16 17  2  0
 17 15  1  0
 15  9  1  0
  9 10  1  0
 10 11  1  0
 11 12  1  0
 12  1  1  0
  1  2  2  0
  2  3  1  0
  3  4  2  0
  3  5  1  0
  5  6  1  0
  6  7  1  0
  6  8  2  0
  8 18  1  0
 18 19  2  0
 19 31  1  0
 31 32  3  0
 19 20  1  0
 20 21  2  0
 20 22  1  0
 22 24  1  0
 24 25  2  0
 25 26  1  0
 26 27  2  0
 27 28  1  0
 28 29  2  0
 29 30  1  0
 12 13  1  0
 13 14  1  0
 14  9  1  0
  8  1  1  0
 29 24  1  0
 22 23  1  0
M  CHG 1   5  -1
M  CHG 1   7  -1
M  END
> <UniqueID>
38

> <SMILES>
C=CCN1CCN(c2nc(=O)[n-]c([O-])c2C=C(C#N)C(=O)Nc2ccccc2C)CC1

> <Energy>
77.79836361266895

> <Genealogy>
C=CCN1CCN(c2nc(=O)[n-]c([O-])c2C=C(C#N)C(=O)Nc2ccccc2C)CC1 (protonated)
C=CCN1CCN(c2nc(=O)[n-]c([O-])c2C=C(C#N)C(=O)Nc2ccccc2C)CC1 (3D coordinates assigned)
C=CCN1CCN(c2nc(=O)[n-]c([O-])c2C=C(C#N)C(=O)Nc2ccccc2C)CC1 (nonaromatic ring conformer: 77.79836361266895 kcal/mol)

> <smiles>
C=CCN1CCN(c2nc(=O)[nH]c(O)c2C=C(C#N)C(=O)Nc2ccccc2C)CC1

> <score_type>
oracle

> <origin>
adg

> <m_score__min__energy>
-14.210000000000001

> <m_primary>
energy

> <minimizedAffinity>
-4.76011

> <minimizedRMSD>
0.55880

> <CNNscore>
0.1272198111

> <CNNaffinity>
6.3138122559

> <CNN_VS>
0.8032420278

> <CNNaffinity_variance>
0.1485073119

$$$$
48:0


 28 29  0  0  0  0  0  0  0  0999 V2000
   58.6697   31.2277   45.6653 N   0  0  0  0  0  0  0  0  0  0  0  0
   59.4019   31.5900   46.8600 C   0  0  0  0  0  0  0  0  0  0  0  0
   59.8632   32.7567   46.9826 O   0  0  0  0  0  0  0  0  0  0  0  0
   57.9462   32.0933   43.4737 C   0  0  0  0  0  0  0  0  0  0  0  0
   57.8421   32.2385   44.9882 C   0  0  0  0  0  0  0  0  0  0  0  0
   58.7621   29.8749   45.0879 C   0  0  0  0  0  0  0  0  0  0  0  0
   57.5732   29.0263   45.4694 C   0  0  0  0  0  0  0  0  0  0  0  0
   56.4464   29.2451   44.9505 O   0  0  0  0  0  0  0  0  0  0  0  0
   57.6885   28.0000   46.4620 N   0  0  0  0  0  0  0  0  0  0  0  0
   57.8366   26.6074   46.1715 C   0  0  0  0  0  0  0  0  0  0  0  0
   59.1206   26.0555   46.1024 C   0  0  0  0  0  0  0  0  0  0  0  0
   59.2889   24.6932   45.8309 C   0  0  0  0  0  0  0  0  0  0  0  0
   58.1701   23.8749   45.6444 C   0  0  0  0  0  0  0  0  0  0  0  0
   56.8844   24.4124   45.7420 C   0  0  0  0  0  0  0  0  0  0  0  0
   56.7118   25.7734   46.0201 C   0  0  0  0  0  0  0  0  0  0  0  0
   55.4277   26.2814   46.1708 O   0  0  0  0  0  0  0  0  0  0  0  0
   59.5808   30.6351   48.0050 C   0  0  0  0  0  0  0  0  0  0  0  0
   60.7786   31.3332   49.1897 S   0  0  0  0  0  0  0  0  0  0  0  0
   59.5361   31.6717   50.4325 C   0  0  0  0  0  0  0  0  0  0  0  0
   59.5577   32.8475   51.1166 N   0  0  0  0  0  0  0  0  0  0  0  0
   58.6226   33.1222   52.0643 C   0  0  0  0  0  0  0  0  0  0  0  0
   58.6705   34.3600   52.7715 N   0  0  0  0  0  0  0  0  0  0  0  0
   57.6224   32.1854   52.3427 C   0  0  0  0  0  0  0  0  0  0  0  0
   57.6152   30.9870   51.6281 C   0  0  0  0  0  0  0  0  0  0  0  0
   56.7329   30.1193   51.8526 O   0  0  0  0  0  0  0  0  0  0  0  0
   58.5673   30.7537   50.6869 N   0  0  0  0  0  0  0  0  0  0  0  0
   59.3775   35.0149   52.5702 H   0  0  0  0  0  0  0  0  0  0  0  0
   57.9965   34.5595   53.4608 H   0  0  0  0  0  0  0  0  0  0  0  0
  4  5  1  0
  5  1  1  0
  1  6  1  0
  6  7  1  0
  7  8  2  0
  7  9  1  0
  9 10  1  0
 10 11  2  0
 11 12  1  0
 12 13  2  0
 13 14  1  0
 14 15  2  0
 15 16  1  0
  1  2  1  0
  2  3  2  0
  2 17  1  0
 17 18  1  0
 18 19  1  0
 19 20  2  0
 20 21  1  0
 21 22  1  0
 21 23  2  0
 23 24  1  0
 24 25  2  0
 24 26  1  0
 15 10  1  0
 26 19  1  0
 22 27  1  0
 22 28  1  0
M  CHG 1   9  -1
M  CHG 1  16  -1
M  CHG 1  26  -1
M  END
> <UniqueID>
46

> <SMILES>
CCN(CC(=O)[N-]c1ccccc1[O-])C(=O)CSc1nc(N)cc(=O)[n-]1

> <Energy>
39.99579064845418

> <Genealogy>
CCN(CC(=O)[N-]c1ccccc1[O-])C(=O)CSc1nc(N)cc(=O)[n-]1 (protonated)
CCN(CC(=O)[N-]c1ccccc1[O-])C(=O)CSc1nc(N)cc(=O)[n-]1 (3D coordinates assigned)
CCN(CC(=O)[N-]c1ccccc1[O-])C(=O)CSc1nc(N)cc(=O)[n-]1 (optimized conformer: 39.99579064845418 kcal/mol)

> <smiles>
CCN(CC(=O)Nc1ccccc1O)C(=O)CSc1nc(N)cc(=O)[nH]1

> <score_type>
oracle

> <origin>
adg

> <m_score__min__energy>
-14.380000000000001

> <m_primary>
energy

> <minimizedAffinity>
-6.53764

> <minimizedRMSD>
1.43916

> <CNNscore>
0.2318458855

> <CNNaffinity>
6.2416882515

> <CNN_VS>
1.4471096992

> <CNNaffinity_variance>
0.3010134995

$$$$
58:0


 27 28  0  0  0  0  0  0  0  0999 V2000
   57.6900   32.3312   44.5083 N   0  0  0  0  0  0  0  0  0  0  0  0
   57.6151   31.7883   43.1825 C   0  0  0  0  0  0  0  0  0  0  0  0
   58.1079   32.4170   42.2066 O   0  0  0  0  0  0  0  0  0  0  0  0
   57.2121   31.8707   45.2354 H   0  0  0  0  0  0  0  0  0  0  0  0
   58.4479   33.5411   44.8225 C   0  0  0  0  0  0  0  0  0  0  0  0
   57.7404   33.1580   47.0710 O   0  0  0  0  0  0  0  0  0  0  0  0
   58.5959   33.6838   46.3059 C   0  0  0  0  0  0  0  0  0  0  0  0
   59.6749   34.4650   46.8360 N   0  0  0  0  0  0  0  0  0  0  0  0
   60.8317   33.9805   47.5348 C   0  0  0  0  0  0  0  0  0  0  0  0
   61.9897   33.5491   46.8576 C   0  0  0  0  0  0  0  0  0  0  0  0
   63.1016   33.1010   47.5777 C   0  0  0  0  0  0  0  0  0  0  0  0
   63.0729   33.0866   48.9769 C   0  0  0  0  0  0  0  0  0  0  0  0
   64.5857   32.4626   49.9598 Br  0  0  0  0  0  0  0  0  0  0  0  0
   61.9348   33.5373   49.6569 C   0  0  0  0  0  0  0  0  0  0  0  0
   60.8219   33.9855   48.9387 C   0  0  0  0  0  0  0  0  0  0  0  0
   59.7211   34.4131   49.6109 F   0  0  0  0  0  0  0  0  0  0  0  0
   56.9454   30.4688   42.9482 C   0  0  0  0  0  0  0  0  0  0  0  0
   57.6019   29.4240   43.7257 N   0  0  0  0  0  0  0  0  0  0  0  0
   57.2081   29.0522   45.0533 C   0  0  0  0  0  0  0  0  0  0  0  0
   55.9844   29.0745   45.3656 O   0  0  0  0  0  0  0  0  0  0  0  0
   58.2184   28.6318   46.0624 C   0  0  0  0  0  0  0  0  0  0  0  0
   59.0933   29.5961   46.6072 C   0  0  0  0  0  0  0  0  0  0  0  0
   60.0470   29.2374   47.5654 C   0  0  0  0  0  0  0  0  0  0  0  0
   60.1436   27.9137   47.9939 C   0  0  0  0  0  0  0  0  0  0  0  0
   59.2929   26.9440   47.4629 C   0  0  0  0  0  0  0  0  0  0  0  0
   58.3335   27.2896   46.5019 C   0  0  0  0  0  0  0  0  0  0  0  0
   57.5140   26.2854   45.9960 O   0  0  0  0  0  0  0  0  0  0  0  0
  6  7  2  0
  7  5  1  0
  5  1  1  0
  1  2  1  0
  2  3  2  0
  2 17  1  0
 17 18  1  0
 18 19  1  0
 19 20  2  0
 19 21  1  0
 21 22  2  0
 22 23  1  0
 23 24  2  0
 24 25  1  0
 25 26  2  0
 26 27  1  0
  7  8  1  0
  8  9  1  0
  9 10  2  0
 10 11  1  0
 11 12  2  0
 12 13  1  0
 12 14  1  0
 14 15  2  0
 15 16  1  0
 26 21  1  0
 15  9  1  0
  1  4  1  0
M  CHG 1   8  -1
M  CHG 1  18  -1
M  CHG 1  27  -1
M  END
> <UniqueID>
56

> <SMILES>
O=C(CNC(=O)C[N-]C(=O)c1ccccc1[O-])[N-]c1ccc(Br)cc1F

> <Energy>
38.93892461880648

> <Genealogy>
O=C(CNC(=O)C[N-]C(=O)c1ccccc1[O-])[N-]c1ccc(Br)cc1F (protonated)
O=C(CNC(=O)C[N-]C(=O)c1ccccc1[O-])[N-]c1ccc(Br)cc1F (3D coordinates assigned)
O=C(CNC(=O)C[N-]C(=O)c1ccccc1[O-])[N-]c1ccc(Br)cc1F (optimized conformer: 38.93892461880648 kcal/mol)

> <smiles>
O=C(CNC(=O)c1ccccc1O)NCC(=O)Nc1ccc(Br)cc1F

> <score_type>
oracle

> <origin>
adg

> <m_score__min__energy>
-14.98

> <m_primary>
energy

> <minimizedAffinity>
-7.00201

> <minimizedRMSD>
1.44122

> <CNNscore>
0.6959511638

> <CNNaffinity>
6.8522639275

> <CNN_VS>
4.7688412666

> <CNNaffinity_variance>
0.0082296366

$$$$
61:0


 25 27  0  0  0  0  0  0  0  0999 V2000
   59.6730   32.6391   46.7616 N   0  0  0  0  0  0  0  0  0  0  0  0
   59.0821   31.7527   45.9552 N   0  0  0  0  0  0  0  0  0  0  0  0
   58.0575   32.0884   45.1269 C   0  0  0  0  0  0  0  0  0  0  0  0
   57.5975   33.4085   45.1214 C   0  0  0  0  0  0  0  0  0  0  0  0
   58.2023   34.3423   45.9585 C   0  0  0  0  0  0  0  0  0  0  0  0
   59.2540   33.9431   46.7821 C   0  0  0  0  0  0  0  0  0  0  0  0
   59.8162   34.7934   47.5268 O   0  0  0  0  0  0  0  0  0  0  0  0
   59.1030   30.9691   49.1124 C   0  0  0  0  0  0  0  0  0  0  0  0
   60.4998   31.3946   48.7482 C   0  0  0  0  0  0  0  0  0  0  0  0
   61.5723   31.0195   49.5745 C   0  0  0  0  0  0  0  0  0  0  0  0
   62.8780   31.4008   49.2586 C   0  0  0  0  0  0  0  0  0  0  0  0
   63.1273   32.1700   48.1223 C   0  0  0  0  0  0  0  0  0  0  0  0
   62.0692   32.5644   47.2993 C   0  0  0  0  0  0  0  0  0  0  0  0
   60.7504   32.1873   47.6022 C   0  0  0  0  0  0  0  0  0  0  0  0
   57.4687   31.0616   44.2505 C   0  0  0  0  0  0  0  0  0  0  0  0
   57.3546   31.2689   43.0113 O   0  0  0  0  0  0  0  0  0  0  0  0
   57.0294   29.8217   44.8147 N   0  0  0  0  0  0  0  0  0  0  0  0
   57.6055   28.5265   44.4722 C   0  0  0  0  0  0  0  0  0  0  0  0
   58.4023   27.9879   45.6343 C   0  0  0  0  0  0  0  0  0  0  0  0
   59.6543   28.5547   45.9282 C   0  0  0  0  0  0  0  0  0  0  0  0
   60.4230   28.0619   46.9870 C   0  0  0  0  0  0  0  0  0  0  0  0
   59.9507   26.9982   47.7587 C   0  0  0  0  0  0  0  0  0  0  0  0
   58.7099   26.4235   47.4727 C   0  0  0  0  0  0  0  0  0  0  0  0
   57.9348   26.9100   46.4145 C   0  0  0  0  0  0  0  0  0  0  0  0
   56.7034   26.3193   46.1498 O   0  0  0  0  0  0  0  0  0  0  0  0
  8  9  1  0
  9 10  2  0
 10 11  1  0
 11 12  2  0
 12 13  1  0
 13 14  2  0
 14  1  1  0
  1  2  1  0
  2  3  2  0
  3 15  1  0
 15 16  2  0
 15 17  1  0
 17 18  1  0
 18 19  1  0
 19 20  2  0
 20 21  1  0
 21 22  2  0
 22 23  1  0
 23 24  2  0
 24 25  1  0
  3  4  1  0
  4  5  2  0
  5  6  1  0
  6  7  2  0
 14  9  1  0
  6  1  1  0
 24 19  1  0
M  CHG 1  17  -1
M  CHG 1  25  -1
M  END
> <UniqueID>
59

> <SMILES>
Cc1ccccc1-n1nc(C(=O)[N-]Cc2ccccc2[O-])ccc1=O

> <Energy>
49.159490660700264

> <Genealogy>
Cc1ccccc1-n1nc(C(=O)[N-]Cc2ccccc2[O-])ccc1=O (protonated)
Cc1ccccc1-n1nc(C(=O)[N-]Cc2ccccc2[O-])ccc1=O (3D coordinates assigned)
Cc1ccccc1-n1nc(C(=O)[N-]Cc2ccccc2[O-])ccc1=O (optimized conformer: 49.159490660700264 kcal/mol)

> <smiles>
Cc1ccccc1-n1nc(C(=O)NCc2ccccc2O)ccc1=O

> <score_type>
oracle

> <origin>
adg

> <m_score__min__energy>
-14.300000000000001

> <m_primary>
energy

> <minimizedAffinity>
-7.90743

> <minimizedRMSD>
1.36698

> <CNNscore>
0.9055497050

> <CNNaffinity>
6.7573757172

> <CNN_VS>
6.1191396713

> <CNNaffinity_variance>
0.0719602033

$$$$
80:0


 29 33  0  0  0  0  0  0  0  0999 V2000
   56.9703   28.6328   44.0087 C   0  0  0  0  0  0  0  0  0  0  0  0
   56.8025   29.9050   44.1859 N   0  0  0  0  0  0  0  0  0  0  0  0
   58.0550   29.2228   45.9529 N   0  0  0  0  0  0  0  0  0  0  0  0
   59.1647   29.7089   46.5625 C   0  0  0  0  0  0  0  0  0  0  0  0
   59.8806   29.0803   47.4504 N   0  0  0  0  0  0  0  0  0  0  0  0
   59.3410   31.0295   46.3166 N   0  0  0  0  0  0  0  0  0  0  0  0
   58.2754   31.3192   45.5344 C   0  0  0  0  0  0  0  0  0  0  0  0
   58.0637   32.4587   44.9336 N   0  0  0  0  0  0  0  0  0  0  0  0
   57.4896   30.2456   45.3562 N   0  0  0  0  0  0  0  0  0  0  0  0
   57.8586   28.1149   45.0635 C   0  0  0  0  0  0  0  0  0  0  0  0
   58.5035   26.9387   45.0755 C   0  0  0  0  0  0  0  0  0  0  0  0
   60.5192   29.6494   48.5987 C   0  0  0  0  0  0  0  0  0  0  0  0
   61.4326   30.6277   48.3514 N   0  0  0  0  0  0  0  0  0  0  0  0
   62.1954   31.1809   49.3331 C   0  0  0  0  0  0  0  0  0  0  0  0
   63.1537   32.2759   48.9677 C   0  0  0  0  0  0  0  0  0  0  0  0
   62.0587   30.7233   50.6620 C   0  0  0  0  0  0  0  0  0  0  0  0
   62.8775   31.3045   51.7843 C   0  0  0  0  0  0  0  0  0  0  0  0
   61.1448   29.6919   50.9262 C   0  0  0  0  0  0  0  0  0  0  0  0
   60.3784   29.1485   49.8937 C   0  0  0  0  0  0  0  0  0  0  0  0
   57.9136   25.6944   45.5936 C   0  0  0  0  0  0  0  0  0  0  0  0
   58.5475   24.5094   45.5622 N   0  0  0  0  0  0  0  0  0  0  0  0
   57.6262   23.6480   46.0463 C   0  0  0  0  0  0  0  0  0  0  0  0
   57.8553   22.4178   46.1857 O   0  0  0  0  0  0  0  0  0  0  0  0
   56.4381   24.2054   46.3594 N   0  0  0  0  0  0  0  0  0  0  0  0
   56.6303   25.5000   46.0555 C   0  0  0  0  0  0  0  0  0  0  0  0
   55.6374   26.4673   46.1518 O   0  0  0  0  0  0  0  0  0  0  0  0
   57.7617   33.8021   45.4610 C   0  0  0  0  0  0  0  0  0  0  0  0
   58.7150   34.1970   46.5755 C   0  0  0  0  0  0  0  0  0  0  0  0
   59.1080   34.4154   45.1140 C   0  0  0  0  0  0  0  0  0  0  0  0
  1  2  2  0
  2  3  1  0
  3  4  1  0
  4  5  2  0
  5 27  1  0
 27 28  1  0
 28 29  1  0
  4  6  1  0
  6  7  1  0
  7  8  2  0
  8 12  1  0
 12 13  2  0
 13 14  1  0
 14 15  1  0
 14 16  2  0
 16 17  1  0
 16 18  1  0
 18 19  2  0
  7  9  1  0
  9 10  1  0
 10 11  2  0
 11 20  1  0
 20 21  1  0
 21 22  1  0
 22 23  2  0
 22 24  1  0
 24 25  1  0
 25 26  1  0
 10  1  1  0
 25 20  2  0
  9  3  1  0
 29 27  1  0
 19 12  1  0
M  CHG 1   6  -1
M  CHG 1  21  -1
M  CHG 1  24  -1
M  CHG 1  26  -1
M  END
> <UniqueID>
75

> <SMILES>
Cc1ccc(/N=c2/[n-]/c(=N\C3CC3)n3n2C(=Cc2[n-]c(=O)[n-]c2[O-])C=N3)nc1C

> <Energy>
461.96906577054807

> <Genealogy>
Cc1ccc(N=c2[n-]c(=NC3CC3)n3n2C(=Cc2[n-]c(=O)[n-]c2[O-])C=N3)nc1C (protonated)
Cc1ccc(/N=c2/[n-]/c(=N\C3CC3)n3n2C(=Cc2[n-]c(=O)[n-]c2[O-])C=N3)nc1C (cis-trans isomerization)
Cc1ccc(/N=c2/[n-]/c(=N\C3CC3)n3n2C(=Cc2[n-]c(=O)[n-]c2[O-])C=N3)nc1C (3D coordinates assigned)
Cc1ccc(/N=c2/[n-]/c(=N\C3CC3)n3n2C(=Cc2[n-]c(=O)[n-]c2[O-])C=N3)nc1C (nonaromatic ring conformer: 461.96906577054807 kcal/mol)

> <smiles>
Cc1ccc(N=c2[nH]c(=NC3CC3)n3n2C(=Cc2[nH]c(=O)[nH]c2O)C=N3)nc1C

> <score_type>
oracle

> <origin>
adg

> <m_score__min__energy>
-17.039999999999999

> <m_primary>
energy

> <minimizedAffinity>
-9.91082

> <minimizedRMSD>
1.04246

> <CNNscore>
0.5103728771

> <CNNaffinity>
6.9415073395

> <CNN_VS>
3.5427570343

> <CNNaffinity_variance>
0.1492984742

$$$$
91:0


 25 26  0  0  0  0  0  0  0  0999 V2000
   59.1717   32.1612   46.3331 N   0  0  0  0  0  0  0  0  0  0  0  0
   59.6407   32.8277   47.4013 C   0  0  0  0  0  0  0  0  0  0  0  0
   60.3434   31.9303   48.1832 C   0  0  0  0  0  0  0  0  0  0  0  0
   60.3297   30.7087   47.6096 N   0  0  0  0  0  0  0  0  0  0  0  0
   59.6171   30.8946   46.4767 C   0  0  0  0  0  0  0  0  0  0  0  0
   59.3451   29.9489   45.6233 N   0  0  0  0  0  0  0  0  0  0  0  0
   59.0473   28.5754   45.9310 C   0  0  0  0  0  0  0  0  0  0  0  0
   60.0618   27.6556   46.2501 C   0  0  0  0  0  0  0  0  0  0  0  0
   59.7467   26.3195   46.4932 C   0  0  0  0  0  0  0  0  0  0  0  0
   58.4234   25.8870   46.4156 C   0  0  0  0  0  0  0  0  0  0  0  0
   57.3944   26.7809   46.0935 C   0  0  0  0  0  0  0  0  0  0  0  0
   57.7195   28.1293   45.8156 C   0  0  0  0  0  0  0  0  0  0  0  0
   56.7488   29.0342   45.4061 O   0  0  0  0  0  0  0  0  0  0  0  0
   56.0587   26.2564   46.0270 N   0  0  0  0  0  0  0  0  0  0  0  0
   55.5742   24.5905   45.9512 S   0  0  0  0  0  0  0  0  0  0  0  0
   56.5118   23.7279   44.7078 C   0  0  0  0  0  0  0  0  0  0  0  0
   54.1023   24.4885   45.6698 O   0  0  0  0  0  0  0  0  0  0  0  0
   55.8451   23.9555   47.2854 O   0  0  0  0  0  0  0  0  0  0  0  0
   61.0220   32.2389   49.4518 C   0  0  0  0  0  0  0  0  0  0  0  0
   60.6845   33.2617   50.1063 O   0  0  0  0  0  0  0  0  0  0  0  0
   62.0621   31.3820   49.9434 N   0  0  0  0  0  0  0  0  0  0  0  0
   62.7535   31.6599   51.1967 C   0  0  0  0  0  0  0  0  0  0  0  0
   62.3154   30.5866   49.4215 H   0  0  0  0  0  0  0  0  0  0  0  0
   58.8116   34.1841   44.9981 C   0  0  0  0  0  0  0  0  0  0  0  0
   58.4206   32.7283   45.2138 C   0  0  0  0  0  0  0  0  0  0  0  0
 24 25  1  0
 25  1  1  0
  1  2  1  0
  2  3  2  0
  3 19  1  0
 19 20  2  0
 19 21  1  0
 21 22  1  0
  3  4  1  0
  4  5  1  0
  5  6  2  0
  6  7  1  0
  7  8  2  0
  8  9  1  0
  9 10  2  0
 10 11  1  0
 11 14  1  0
 14 15  1  0
 15 16  1  0
 15 17  2  0
 15 18  2  0
 11 12  2  0
 12 13  1  0
  5  1  1  0
 12  7  1  0
 21 23  1  0
M  CHG 1   4  -1
M  CHG 1  13  -1
M  CHG 1  14  -1
M  END
> <UniqueID>
86

> <SMILES>
CCn1cc(C(=O)NC)[n-]c1=Nc1cccc([N-]S(C)(=O)=O)c1[O-]

> <Energy>
71.82217530743235

> <Genealogy>
CCn1cc(C(=O)NC)[n-]c1=Nc1cccc([N-]S(C)(=O)=O)c1[O-] (protonated)
CCn1cc(C(=O)NC)[n-]c1=Nc1cccc([N-]S(C)(=O)=O)c1[O-] (3D coordinates assigned)
CCn1cc(C(=O)NC)[n-]c1=Nc1cccc([N-]S(C)(=O)=O)c1[O-] (optimized conformer: 71.82217530743235 kcal/mol)

> <smiles>
CCn1cc(C(=O)NC)[nH]c1=Nc1cccc(NS(C)(=O)=O)c1O

> <score_type>
oracle

> <origin>
adg

> <m_score__min__energy>
-14.75

> <m_primary>
energy

> <minimizedAffinity>
-7.07993

> <minimizedRMSD>
1.74635

> <CNNscore>
0.7158030272

> <CNNaffinity>
6.6088528633

> <CNN_VS>
4.7306370735

> <CNNaffinity_variance>
0.2606051862

$$$$
3:0


 32 35  0  0  0  0  0  0  0  0999 V2000
   56.0979   24.4760   47.0361 C   0  0  0  0  0  0  0  0  0  0  0  0
   55.5293   25.4466   46.1930 C   0  0  0  0  0  0  0  0  0  0  0  0
   54.2915   25.2330   45.5961 O   0  0  0  0  0  0  0  0  0  0  0  0
   56.1940   26.6039   45.9354 N   0  0  0  0  0  0  0  0  0  0  0  0
   57.4112   26.8730   46.4732 C   0  0  0  0  0  0  0  0  0  0  0  0
   58.0522   28.0798   46.1690 C   0  0  0  0  0  0  0  0  0  0  0  0
   59.3142   28.3763   46.7157 C   0  0  0  0  0  0  0  0  0  0  0  0
   59.9124   27.4514   47.5893 C   0  0  0  0  0  0  0  0  0  0  0  0
   59.2758   26.2454   47.8962 C   0  0  0  0  0  0  0  0  0  0  0  0
   58.0222   25.9420   47.3393 C   0  0  0  0  0  0  0  0  0  0  0  0
   57.3512   24.7392   47.6280 C   0  0  0  0  0  0  0  0  0  0  0  0
   57.8614   23.9026   48.4233 O   0  0  0  0  0  0  0  0  0  0  0  0
   60.0037   29.6509   46.4050 C   0  0  0  0  0  0  0  0  0  0  0  0
   59.6638   30.3016   45.3784 O   0  0  0  0  0  0  0  0  0  0  0  0
   61.0394   30.1659   47.2607 N   0  0  0  0  0  0  0  0  0  0  0  0
   61.2519   29.6839   48.0924 H   0  0  0  0  0  0  0  0  0  0  0  0
   61.7862   31.3787   46.9385 C   0  0  0  0  0  0  0  0  0  0  0  0
   61.0069   32.5971   47.3541 C   0  0  0  0  0  0  0  0  0  0  0  0
   60.8112   32.8728   48.7175 C   0  0  0  0  0  0  0  0  0  0  0  0
   60.0718   33.9936   49.1100 C   0  0  0  0  0  0  0  0  0  0  0  0
   59.5210   34.8411   48.1455 C   0  0  0  0  0  0  0  0  0  0  0  0
   59.7072   34.5710   46.7873 C   0  0  0  0  0  0  0  0  0  0  0  0
   60.4472   33.4523   46.3904 C   0  0  0  0  0  0  0  0  0  0  0  0
   55.3706   23.2104   47.3115 C   0  0  0  0  0  0  0  0  0  0  0  0
   54.4704   23.2026   48.1916 O   0  0  0  0  0  0  0  0  0  0  0  0
   58.4659   21.3093   44.4973 C   0  0  0  0  0  0  0  0  0  0  0  0
   57.7099   21.4465   45.6184 N   0  0  0  0  0  0  0  0  0  0  0  0
   56.4040   21.8381   45.5659 C   0  0  0  0  0  0  0  0  0  0  0  0
   55.6950   21.9754   46.6495 N   0  0  0  0  0  0  0  0  0  0  0  0
   55.8225   22.1256   44.3248 C   0  0  0  0  0  0  0  0  0  0  0  0
   56.5823   21.9907   43.1612 C   0  0  0  0  0  0  0  0  0  0  0  0
   57.9139   21.5776   43.2445 C   0  0  0  0  0  0  0  0  0  0  0  0
 26 27  1  0
 27 28  1  0
 28 29  2  0
 29 24  1  0
 24 25  2  0
 24  1  1  0
  1  2  2  0
  2  3  1  0
  2  4  1  0
  4  5  1  0
  5  6  2  0
  6  7  1  0
  7 13  1  0
 13 14  2  0
 13 15  1  0
 15 17  1  0
 17 18  1  0
 18 19  2  0
 19 20  1  0
 20 21  2  0
 21 22  1  0
 22 23  2  0
  7  8  2  0
  8  9  1  0
  9 10  2  0
 10 11  1  0
 11 12  2  0
 28 30  1  0
 30 31  2  0
 31 32  1  0
 32 26  2  0
 11  1  1  0
 10  5  1  0
 23 18  1  0
 15 16  1  0
M  CHG 1   3  -1
M  CHG 1   4  -1
M  CHG 1  27  -1
M  END
> <UniqueID>
4

> <SMILES>
O=C(NCc1ccccc1)c1ccc2c(=O)c(C(=O)/N=c3/cccc[n-]3)c([O-])[n-]c2c1

> <Energy>
67.08205485049257

> <Genealogy>
O=C(NCc1ccccc1)c1ccc2c(=O)c(C(=O)N=c3cccc[n-]3)c([O-])[n-]c2c1 (protonated)
O=C(NCc1ccccc1)c1ccc2c(=O)c(C(=O)/N=c3/cccc[n-]3)c([O-])[n-]c2c1 (cis-trans isomerization)
O=C(NCc1ccccc1)c1ccc2c(=O)c(C(=O)/N=c3/cccc[n-]3)c([O-])[n-]c2c1 (3D coordinates assigned)
O=C(NCc1ccccc1)c1ccc2c(=O)c(C(=O)/N=c3/cccc[n-]3)c([O-])[n-]c2c1 (optimized conformer: 67.08205485049257 kcal/mol)

> <smiles>
O=C(NCc1ccccc1)c1ccc2c(=O)c(C(=O)N=c3cccc[nH]3)c(O)[nH]c2c1

> <score_type>
oracle

> <origin>
adg

> <m_score__min__energy>
-15.199999999999999

> <m_primary>
energy

> <minimizedAffinity>
-4.09524

> <minimizedRMSD>
0.88782

> <CNNscore>
0.4310469329

> <CNNaffinity>
6.3428788185

> <CNN_VS>
2.7340784073

> <CNNaffinity_variance>
0.1656209379

$$$$
8:0


 34 37  0  0  0  0  0  0  0  0999 V2000
   59.9209   29.9344   50.2446 C   0  0  0  0  0  0  0  0  0  0  0  0
   58.9324   30.6782   51.0909 C   0  0  0  0  0  0  0  0  0  0  0  0
   59.2993   31.8612   51.7440 C   0  0  0  0  0  0  0  0  0  0  0  0
   58.3667   32.5135   52.5522 C   0  0  0  0  0  0  0  0  0  0  0  0
   57.0879   31.9791   52.7110 C   0  0  0  0  0  0  0  0  0  0  0  0
   56.7513   30.7843   52.0519 C   0  0  0  0  0  0  0  0  0  0  0  0
   57.6813   30.1720   51.2682 N   0  0  0  0  0  0  0  0  0  0  0  0
   55.4087   30.1820   52.2016 C   0  0  0  0  0  0  0  0  0  0  0  0
   55.2928   29.0234   52.6885 O   0  0  0  0  0  0  0  0  0  0  0  0
   54.2349   30.9058   51.7988 N   0  0  0  0  0  0  0  0  0  0  0  0
   54.3417   31.7979   51.3965 H   0  0  0  0  0  0  0  0  0  0  0  0
   52.8875   30.3640   51.9655 C   0  0  0  0  0  0  0  0  0  0  0  0
   52.1122   30.5115   50.6963 C   0  0  0  0  0  0  0  0  0  0  0  0
   51.9642   29.5196   49.7956 N   0  0  0  0  0  0  0  0  0  0  0  0
   51.2577   30.0195   48.7955 N   0  0  0  0  0  0  0  0  0  0  0  0
   51.0069   31.2986   49.1207 C   0  0  0  0  0  0  0  0  0  0  0  0
   50.3515   32.0807   48.3849 O   0  0  0  0  0  0  0  0  0  0  0  0
   51.5265   31.6621   50.3068 N   0  0  0  0  0  0  0  0  0  0  0  0
   60.6761   28.9916   51.0612 N   0  0  0  0  0  0  0  0  0  0  0  0
   61.6738   29.0163   53.1677 O   0  0  0  0  0  0  0  0  0  0  0  0
   61.7208   29.3809   51.9617 C   0  0  0  0  0  0  0  0  0  0  0  0
   62.8510   30.2073   51.4794 C   0  0  0  0  0  0  0  0  0  0  0  0
   64.1514   30.0030   51.9750 C   0  0  0  0  0  0  0  0  0  0  0  0
   65.2131   30.7917   51.5243 C   0  0  0  0  0  0  0  0  0  0  0  0
   64.9930   31.7851   50.5675 C   0  0  0  0  0  0  0  0  0  0  0  0
   63.7135   31.9909   50.0431 C   0  0  0  0  0  0  0  0  0  0  0  0
   62.6403   31.2131   50.5143 C   0  0  0  0  0  0  0  0  0  0  0  0
   63.5318   33.0029   49.0906 O   0  0  0  0  0  0  0  0  0  0  0  0
   62.3061   33.3620   48.5092 C   0  0  0  0  0  0  0  0  0  0  0  0
   61.2769   33.8244   49.3375 C   0  0  0  0  0  0  0  0  0  0  0  0
   60.0446   34.2035   48.7929 C   0  0  0  0  0  0  0  0  0  0  0  0
   59.8406   34.1338   47.4132 C   0  0  0  0  0  0  0  0  0  0  0  0
   60.8680   33.6928   46.5748 C   0  0  0  0  0  0  0  0  0  0  0  0
   62.1001   33.3150   47.1178 C   0  0  0  0  0  0  0  0  0  0  0  0
 20 21  2  0
 21 19  1  0
 19  1  1  0
  1  2  1  0
  2  3  2  0
  3  4  1  0
  4  5  2  0
  5  6  1  0
  6  8  1  0
  8  9  2  0
  8 10  1  0
 10 12  1  0
 12 13  1  0
 13 14  2  0
 14 15  1  0
 15 16  1  0
 16 17  2  0
 16 18  1  0
  6  7  2  0
 21 22  1  0
 22 23  2  0
 23 24  1  0
 24 25  2  0
 25 26  1  0
 26 28  1  0
 28 29  1  0
 29 30  2  0
 30 31  1  0
 31 32  2  0
 32 33  1  0
 33 34  2  0
 26 27  2  0
  7  2  1  0
 27 22  1  0
 18 13  1  0
 34 29  1  0
 10 11  1  0
M  CHG 1  15  -1
M  CHG 1  18  -1
M  CHG 1  19  -1
M  END
> <UniqueID>
9

> <SMILES>
O=C([N-]Cc1cccc(C(=O)NCc2n[n-]c(=O)[n-]2)n1)c1cccc(Oc2ccccc2)c1

> <Energy>
89.087801700824

> <Genealogy>
O=C([N-]Cc1cccc(C(=O)NCc2n[n-]c(=O)[n-]2)n1)c1cccc(Oc2ccccc2)c1 (protonated)
O=C([N-]Cc1cccc(C(=O)NCc2n[n-]c(=O)[n-]2)n1)c1cccc(Oc2ccccc2)c1 (3D coordinates assigned)
O=C([N-]Cc1cccc(C(=O)NCc2n[n-]c(=O)[n-]2)n1)c1cccc(Oc2ccccc2)c1 (optimized conformer: 89.087801700824 kcal/mol)

> <smiles>
O=C(NCc1cccc(C(=O)NCc2n[nH]c(=O)[nH]2)n1)c1cccc(Oc2ccccc2)c1

> <score_type>
oracle

> <origin>
adg

> <m_score__min__energy>
-16.07

> <m_primary>
energy

> <minimizedAffinity>
-6.87076

> <minimizedRMSD>
1.00290

> <CNNscore>
0.1855883002

> <CNNaffinity>
5.6844830513

> <CNN_VS>
1.0549736023

> <CNNaffinity_variance>
0.1961871535

$$$$
24:0


 27 29  0  0  0  0  0  0  0  0999 V2000
   59.9952   29.5518   47.4787 C   0  0  0  0  0  0  0  0  0  0  0  0
   60.4384   28.7170   48.3116 O   0  0  0  0  0  0  0  0  0  0  0  0
   59.6490   28.5766   45.1974 C   0  0  0  0  0  0  0  0  0  0  0  0
   60.2971   29.3974   46.0379 C   0  0  0  0  0  0  0  0  0  0  0  0
   56.9193   23.8749   46.8657 O   0  0  0  0  0  0  0  0  0  0  0  0
   57.5718   25.0353   46.4500 C   0  0  0  0  0  0  0  0  0  0  0  0
   58.9679   25.0492   46.4020 C   0  0  0  0  0  0  0  0  0  0  0  0
   59.6482   26.1961   45.9869 C   0  0  0  0  0  0  0  0  0  0  0  0
   58.9368   27.3423   45.5937 C   0  0  0  0  0  0  0  0  0  0  0  0
   57.5319   27.3358   45.6641 C   0  0  0  0  0  0  0  0  0  0  0  0
   56.8051   28.4694   45.3115 O   0  0  0  0  0  0  0  0  0  0  0  0
   56.8512   26.1838   46.0833 C   0  0  0  0  0  0  0  0  0  0  0  0
   55.4613   26.1850   46.1353 O   0  0  0  0  0  0  0  0  0  0  0  0
   57.4168   23.1183   47.1065 H   0  0  0  0  0  0  0  0  0  0  0  0
   59.3105   30.7112   47.9661 N   0  0  0  0  0  0  0  0  0  0  0  0
   59.8292   31.6720   48.8977 C   0  0  0  0  0  0  0  0  0  0  0  0
   60.4623   31.2608   50.0845 C   0  0  0  0  0  0  0  0  0  0  0  0
   61.0189   32.2039   50.9509 C   0  0  0  0  0  0  0  0  0  0  0  0
   60.9658   33.5623   50.6349 C   0  0  0  0  0  0  0  0  0  0  0  0
   60.3584   33.9810   49.4484 C   0  0  0  0  0  0  0  0  0  0  0  0
   59.7893   33.0418   48.5727 C   0  0  0  0  0  0  0  0  0  0  0  0
   59.1592   33.4820   47.3589 N   0  0  0  0  0  0  0  0  0  0  0  0
   57.7513   33.1588   47.1147 C   0  0  0  0  0  0  0  0  0  0  0  0
   57.4935   33.1091   45.6055 C   0  0  0  0  0  0  0  0  0  0  0  0
   57.9379   34.2992   44.9823 O   0  0  0  0  0  0  0  0  0  0  0  0
   59.3449   34.4090   45.1032 C   0  0  0  0  0  0  0  0  0  0  0  0
   59.7553   34.5621   46.5707 C   0  0  0  0  0  0  0  0  0  0  0  0
  5  6  1  0
  6  7  2  0
  7  8  1  0
  8  9  2  0
  9  3  1  0
  3  4  2  0
  4  1  1  0
  1  2  2  0
  1 15  1  0
 15 16  1  0
 16 17  2  0
 17 18  1  0
 18 19  2  0
 19 20  1  0
 20 21  2  0
 21 22  1  0
 22 23  1  0
 23 24  1  0
 24 25  1  0
 25 26  1  0
 26 27  1  0
  9 10  1  0
 10 11  1  0
 10 12  2  0
 12 13  1  0
 12  6  1  0
 21 16  1  0
 27 22  1  0
  5 14  1  0
M  CHG 1  11  -1
M  CHG 1  13  -1
M  CHG 1  15  -1
M  END
> <UniqueID>
25

> <SMILES>
O=C(/C=C\c1ccc(O)c([O-])c1[O-])[N-]c1ccccc1N1CCOCC1

> <Energy>
63.21282464595274

> <Genealogy>
O=C(C=Cc1ccc(O)c([O-])c1[O-])[N-]c1ccccc1N1CCOCC1 (protonated)
O=C(/C=C\c1ccc(O)c([O-])c1[O-])[N-]c1ccccc1N1CCOCC1 (cis-trans isomerization)
O=C(/C=C\c1ccc(O)c([O-])c1[O-])[N-]c1ccccc1N1CCOCC1 (3D coordinates assigned)
O=C(/C=C\c1ccc(O)c([O-])c1[O-])[N-]c1ccccc1N1CCOCC1 (nonaromatic ring conformer: 63.21282464595274 kcal/mol)

> <smiles>
O=C(C=Cc1ccc(O)c(O)c1O)Nc1ccccc1N1CCOCC1

> <score_type>
oracle

> <origin>
adg

> <m_score__min__energy>
-15.960000000000001

> <m_primary>
energy

> <minimizedAffinity>
-7.28363

> <minimizedRMSD>
0.96930

> <CNNscore>
0.6140295267

> <CNNaffinity>
6.2333540916

> <CNN_VS>
3.8274633884

> <CNNaffinity_variance>
0.0054306532

$$$$
38:0


 31 33  0  0  0  0  0  0  0  0999 V2000
   59.2116   32.8134   46.2415 C   0  0  0  0  0  0  0  0  0  0  0  0
   59.3678   31.5217   46.7599 C   0  0  0  0  0  0  0  0  0  0  0  0
   58.6710   30.4491   46.1978 C   0  0  0  0  0  0  0  0  0  0  0  0
   57.8017   30.6548   45.1124 C   0  0  0  0  0  0  0  0  0  0  0  0
   57.6647   31.9498   44.5845 C   0  0  0  0  0  0  0  0  0  0  0  0
   58.3608   33.0219   45.1497 C   0  0  0  0  0  0  0  0  0  0  0  0
   60.1128   34.1524   46.9513 S   0  0  0  0  0  0  0  0  0  0  0  0
   59.8601   35.3862   46.1323 O   0  0  0  0  0  0  0  0  0  0  0  0
   61.5873   33.8600   46.9232 O   0  0  0  0  0  0  0  0  0  0  0  0
   59.6107   34.4494   48.5914 N   0  0  0  0  0  0  0  0  0  0  0  0
   60.4311   33.7049   49.5507 C   0  0  0  0  0  0  0  0  0  0  0  0
   57.9551   31.5261   52.3469 C   0  0  0  0  0  0  0  0  0  0  0  0
   58.2955   32.8710   52.5934 C   0  0  0  0  0  0  0  0  0  0  0  0
   59.1008   33.5715   51.6941 C   0  0  0  0  0  0  0  0  0  0  0  0
   59.5763   32.9463   50.5309 C   0  0  0  0  0  0  0  0  0  0  0  0
   59.2438   31.6059   50.2871 C   0  0  0  0  0  0  0  0  0  0  0  0
   58.4346   30.8993   51.1879 C   0  0  0  0  0  0  0  0  0  0  0  0
   58.1039   29.5685   50.9374 O   0  0  0  0  0  0  0  0  0  0  0  0
   58.4213   29.1443   50.1646 H   0  0  0  0  0  0  0  0  0  0  0  0
   55.7633   30.5190   53.0112 C   0  0  0  0  0  0  0  0  0  0  0  0
   57.1460   30.7857   53.2229 O   0  0  0  0  0  0  0  0  0  0  0  0
   57.0750   29.5086   44.5136 C   0  0  0  0  0  0  0  0  0  0  0  0
   56.7598   29.5497   43.2951 O   0  0  0  0  0  0  0  0  0  0  0  0
   56.6621   28.3742   45.2925 N   0  0  0  0  0  0  0  0  0  0  0  0
   57.4214   27.3831   45.6638 C   0  0  0  0  0  0  0  0  0  0  0  0
   58.7813   27.4756   45.5960 N   0  0  0  0  0  0  0  0  0  0  0  0
   59.5931   26.4501   45.9657 C   0  0  0  0  0  0  0  0  0  0  0  0
   59.0403   25.2522   46.4236 C   0  0  0  0  0  0  0  0  0  0  0  0
   57.6528   25.1234   46.4920 C   0  0  0  0  0  0  0  0  0  0  0  0
   56.8339   26.1888   46.1088 C   0  0  0  0  0  0  0  0  0  0  0  0
   55.4504   26.0580   46.1753 O   0  0  0  0  0  0  0  0  0  0  0  0
 20 21  1  0
 21 12  1  0
 12 13  2  0
 13 14  1  0
 14 15  2  0
 15 11  1  0
 11 10  1  0
 10  7  1  0
  7  8  2  0
  7  9  2  0
  7  1  1  0
  1  2  2  0
  2  3  1  0
  3  4  2  0
  4 22  1  0
 22 23  2  0
 22 24  1  0
 24 25  2  0
 25 26  1  0
 26 27  1  0
 27 28  2  0
 28 29  1  0
 29 30  2  0
 30 31  1  0
  4  5  1  0
  5  6  2  0
 15 16  1  0
 16 17  2  0
 17 18  1  0
 17 12  1  0
  6  1  1  0
 30 25  1  0
 18 19  1  0
M  CHG 1  10  -1
M  CHG 1  26  -1
M  CHG 1  31  -1
M  END
> <UniqueID>
38

> <SMILES>
COc1ccc(C[N-]S(=O)(=O)c2ccc(C(=O)N=c3[n-]cccc3[O-])cc2)cc1O

> <Energy>
55.283870257844136

> <Genealogy>
COc1ccc(C[N-]S(=O)(=O)c2ccc(C(=O)N=c3[n-]cccc3[O-])cc2)cc1O (protonated)
COc1ccc(C[N-]S(=O)(=O)c2ccc(C(=O)N=c3[n-]cccc3[O-])cc2)cc1O (3D coordinates assigned)
COc1ccc(C[N-]S(=O)(=O)c2ccc(C(=O)N=c3[n-]cccc3[O-])cc2)cc1O (optimized conformer: 55.283870257844136 kcal/mol)

> <smiles>
COc1ccc(CNS(=O)(=O)c2ccc(C(=O)N=c3[nH]cccc3O)cc2)cc1O

> <score_type>
oracle

> <origin>
adg

> <m_score__min__energy>
-14.75

> <m_primary>
energy

> <minimizedAffinity>
-7.59657

> <minimizedRMSD>
0.73529

> <CNNscore>
0.6869662404

> <CNNaffinity>
6.7694244385

> <CNN_VS>
4.6503658295

> <CNNaffinity_variance>
0.0572134294

$$$$
43:0


 29 31  0  0  0  0  0  0  0  0999 V2000
   58.9093   27.3863   47.4174 C   0  0  0  0  0  0  0  0  0  0  0  0
   58.4001   27.9425   46.3050 C   0  0  0  0  0  0  0  0  0  0  0  0
   57.9882   27.2553   45.1537 C   0  0  0  0  0  0  0  0  0  0  0  0
   58.0261   25.9198   44.9514 C   0  0  0  0  0  0  0  0  0  0  0  0
   57.5541   28.2274   44.2624 C   0  0  0  0  0  0  0  0  0  0  0  0
   57.7209   29.4454   44.8859 C   0  0  0  0  0  0  0  0  0  0  0  0
   57.3649   30.7659   44.2685 C   0  0  0  0  0  0  0  0  0  0  0  0
   58.2241   29.2803   46.1317 N   0  0  0  0  0  0  0  0  0  0  0  0
   57.3622   24.8943   45.7868 C   0  0  0  0  0  0  0  0  0  0  0  0
   57.9059   23.7377   46.2071 N   0  0  0  0  0  0  0  0  0  0  0  0
   56.9279   23.1762   46.9495 C   0  0  0  0  0  0  0  0  0  0  0  0
   57.0629   22.0598   47.5157 O   0  0  0  0  0  0  0  0  0  0  0  0
   55.7942   23.9035   47.0323 N   0  0  0  0  0  0  0  0  0  0  0  0
   56.0870   24.9860   46.2946 C   0  0  0  0  0  0  0  0  0  0  0  0
   55.2047   26.0391   46.0903 O   0  0  0  0  0  0  0  0  0  0  0  0
   58.5909   30.3684   47.0539 C   0  0  0  0  0  0  0  0  0  0  0  0
   59.8218   31.1210   46.5453 C   0  0  0  0  0  0  0  0  0  0  0  0
   59.4340   32.4499   46.0545 N   0  0  0  0  0  0  0  0  0  0  0  0
   58.4253   32.4668   45.9040 H   0  0  0  0  0  0  0  0  0  0  0  0
   59.8572   33.6947   47.1928 S   0  0  0  0  0  0  0  0  0  0  0  0
   59.9722   35.0230   46.4967 O   0  0  0  0  0  0  0  0  0  0  0  0
   58.7767   33.7992   48.2320 O   0  0  0  0  0  0  0  0  0  0  0  0
   61.3786   33.2722   47.9862 C   0  0  0  0  0  0  0  0  0  0  0  0
   62.5842   33.4516   47.2926 C   0  0  0  0  0  0  0  0  0  0  0  0
   63.8026   33.1404   47.9037 C   0  0  0  0  0  0  0  0  0  0  0  0
   63.8265   32.6652   49.2154 C   0  0  0  0  0  0  0  0  0  0  0  0
   62.6301   32.4894   49.9168 C   0  0  0  0  0  0  0  0  0  0  0  0
   61.4072   32.7873   49.3059 C   0  0  0  0  0  0  0  0  0  0  0  0
   60.2614   32.6062   50.0098 F   0  0  0  0  0  0  0  0  0  0  0  0
  1  2  2  0
  2  3  1  0
  3  4  2  0
  4  9  1  0
  9 10  1  0
 10 11  1  0
 11 12  2  0
 11 13  1  0
 13 14  1  0
 14 15  1  0
  3  5  1  0
  5  6  2  0
  6  7  1  0
  6  8  1  0
  8 16  1  0
 16 17  1  0
 17 18  1  0
 18 20  1  0
 20 21  2  0
 20 22  2  0
 20 23  1  0
 23 24  2  0
 24 25  1  0
 25 26  2  0
 26 27  1  0
 27 28  2  0
 28 29  1  0
  8  2  1  0
 28 23  1  0
 14  9  2  0
 18 19  1  0
M  CHG 1  10  -1
M  CHG 1  13  -1
M  CHG 1  15  -1
M  END
> <UniqueID>
42

> <SMILES>
C=c1/c(=C/c2[n-]c(=O)[n-]c2[O-])cc(C)n1CCNS(=O)(=O)c1ccccc1F

> <Energy>
99.72159444893926

> <Genealogy>
C=c1c(=Cc2[n-]c(=O)[n-]c2[O-])cc(C)n1CCNS(=O)(=O)c1ccccc1F (protonated)
C=c1/c(=C/c2[n-]c(=O)[n-]c2[O-])cc(C)n1CCNS(=O)(=O)c1ccccc1F (cis-trans isomerization)
C=c1/c(=C/c2[n-]c(=O)[n-]c2[O-])cc(C)n1CCNS(=O)(=O)c1ccccc1F (3D coordinates assigned)
C=c1/c(=C/c2[n-]c(=O)[n-]c2[O-])cc(C)n1CCNS(=O)(=O)c1ccccc1F (optimized conformer: 99.72159444893926 kcal/mol)

> <smiles>
C=c1c(=Cc2[nH]c(=O)[nH]c2O)cc(C)n1CCNS(=O)(=O)c1ccccc1F

> <score_type>
oracle

> <origin>
adg

> <m_score__min__energy>
-16.289999999999999

> <m_primary>
energy

> <minimizedAffinity>
-7.78926

> <minimizedRMSD>
0.98354

> <CNNscore>
0.1450465471

> <CNNaffinity>
6.4766583443

> <CNN_VS>
0.9394169450

> <CNNaffinity_variance>
0.0073626586

$$$$
45:0


 33 36  0  0  0  0  0  0  0  0999 V2000
   59.4768   33.6421   46.6183 C   0  0  0  0  0  0  0  0  0  0  0  0
   62.6762   33.4346   49.5070 C   0  0  0  0  0  0  0  0  0  0  0  0
   62.9321   33.1661   48.1555 C   0  0  0  0  0  0  0  0  0  0  0  0
   61.9004   33.2435   47.2152 C   0  0  0  0  0  0  0  0  0  0  0  0
   60.6009   33.5897   47.6171 C   0  0  0  0  0  0  0  0  0  0  0  0
   60.3461   33.8513   48.9723 C   0  0  0  0  0  0  0  0  0  0  0  0
   61.3786   33.7709   49.9128 C   0  0  0  0  0  0  0  0  0  0  0  0
   63.9605   33.2984   50.7058 S   0  0  0  0  0  0  0  0  0  0  0  0
   65.2814   33.0823   50.0188 O   0  0  0  0  0  0  0  0  0  0  0  0
   64.0317   34.5797   51.4873 O   0  0  0  0  0  0  0  0  0  0  0  0
   62.0463   30.1940   53.8253 C   0  0  0  0  0  0  0  0  0  0  0  0
   63.3311   29.7207   53.2791 N   0  0  0  0  0  0  0  0  0  0  0  0
   63.2592   29.4856   51.8231 C   0  0  0  0  0  0  0  0  0  0  0  0
   63.1576   30.7975   51.0140 C   0  0  0  0  0  0  0  0  0  0  0  0
   63.6185   31.9690   51.7842 N   0  0  0  0  0  0  0  0  0  0  0  0
   64.8138   31.6405   52.5689 C   0  0  0  0  0  0  0  0  0  0  0  0
   64.4634   30.6028   53.6532 C   0  0  0  0  0  0  0  0  0  0  0  0
   58.8546   32.3265   46.4888 N   0  0  0  0  0  0  0  0  0  0  0  0
   58.1829   31.9069   45.2914 C   0  0  0  0  0  0  0  0  0  0  0  0
   58.0331   32.7135   44.3345 O   0  0  0  0  0  0  0  0  0  0  0  0
   58.8976   31.7047   47.2508 H   0  0  0  0  0  0  0  0  0  0  0  0
   57.6702   30.5335   45.1700 C   0  0  0  0  0  0  0  0  0  0  0  0
   56.5400   30.1447   44.4901 C   0  0  0  0  0  0  0  0  0  0  0  0
   56.4031   28.8123   44.5989 N   0  0  0  0  0  0  0  0  0  0  0  0
   57.4617   28.4268   45.3483 C   0  0  0  0  0  0  0  0  0  0  0  0
   58.2582   29.4553   45.7152 N   0  0  0  0  0  0  0  0  0  0  0  0
   57.7154   27.0130   45.7254 C   0  0  0  0  0  0  0  0  0  0  0  0
   59.0385   26.5259   45.7361 C   0  0  0  0  0  0  0  0  0  0  0  0
   59.3052   25.1993   46.0864 C   0  0  0  0  0  0  0  0  0  0  0  0
   58.2593   24.3415   46.4294 C   0  0  0  0  0  0  0  0  0  0  0  0
   56.9444   24.8073   46.4238 C   0  0  0  0  0  0  0  0  0  0  0  0
   56.6645   26.1342   46.0747 C   0  0  0  0  0  0  0  0  0  0  0  0
   55.3398   26.5591   46.0799 O   0  0  0  0  0  0  0  0  0  0  0  0
 11 12  1  0
 12 13  1  0
 13 14  1  0
 14 15  1  0
 15  8  1  0
  8  9  2  0
  8 10  2  0
  8  2  1  0
  2  3  2  0
  3  4  1  0
  4  5  2  0
  5  1  1  0
  1 18  1  0
 18 19  1  0
 19 20  2  0
 19 22  1  0
 22 23  2  0
 23 24  1  0
 24 25  1  0
 25 27  1  0
 27 28  2  0
 28 29  1  0
 29 30  2  0
 30 31  1  0
 31 32  2  0
 32 33  1  0
 25 26  2  0
  5  6  1  0
  6  7  2  0
 15 16  1  0
 16 17  1  0
 17 12  1  0
  7  2  1  0
 26 22  1  0
 32 27  1  0
 18 21  1  0
M  CHG 1  24  -1
M  CHG 1  33  -1
M  END
> <UniqueID>
44

> <SMILES>
CN1CCN(S(=O)(=O)c2ccc(CNC(=O)c3c[n-]c(-c4ccccc4[O-])n3)cc2)CC1

> <Energy>
92.95666634486044

> <Genealogy>
CN1CCN(S(=O)(=O)c2ccc(CNC(=O)c3c[n-]c(-c4ccccc4[O-])n3)cc2)CC1 (protonated)
CN1CCN(S(=O)(=O)c2ccc(CNC(=O)c3c[n-]c(-c4ccccc4[O-])n3)cc2)CC1 (3D coordinates assigned)
CN1CCN(S(=O)(=O)c2ccc(CNC(=O)c3c[n-]c(-c4ccccc4[O-])n3)cc2)CC1 (nonaromatic ring conformer: 92.95666634486044 kcal/mol)

> <smiles>
CN1CCN(S(=O)(=O)c2ccc(CNC(=O)c3c[nH]c(-c4ccccc4O)n3)cc2)CC1

> <score_type>
oracle

> <origin>
adg

> <m_score__min__energy>
-14.859999999999999

> <m_primary>
energy

> <minimizedAffinity>
-7.33347

> <minimizedRMSD>
1.19000

> <CNNscore>
0.1666688770

> <CNNaffinity>
6.1017117500

> <CNN_VS>
1.0169653893

> <CNNaffinity_variance>
0.0394408777

$$$$
56:0


 32 35  0  0  0  0  0  0  0  0999 V2000
   58.9654   29.0086   47.7586 C   0  0  0  0  0  0  0  0  0  0  0  0
   58.3471   28.7777   46.5900 C   0  0  0  0  0  0  0  0  0  0  0  0
   57.9888   27.5336   46.0415 C   0  0  0  0  0  0  0  0  0  0  0  0
   58.0604   26.2841   46.5460 C   0  0  0  0  0  0  0  0  0  0  0  0
   57.4784   27.7968   44.7806 C   0  0  0  0  0  0  0  0  0  0  0  0
   57.5079   29.1659   44.6143 C   0  0  0  0  0  0  0  0  0  0  0  0
   57.0365   29.8872   43.3874 C   0  0  0  0  0  0  0  0  0  0  0  0
   58.0229   29.7620   45.7119 N   0  0  0  0  0  0  0  0  0  0  0  0
   57.4790   25.0748   45.9359 C   0  0  0  0  0  0  0  0  0  0  0  0
   56.0891   24.9437   45.8115 C   0  0  0  0  0  0  0  0  0  0  0  0
   55.2422   25.9713   46.2121 O   0  0  0  0  0  0  0  0  0  0  0  0
   55.5590   23.8076   45.2875 N   0  0  0  0  0  0  0  0  0  0  0  0
   56.3550   22.7805   44.8924 C   0  0  0  0  0  0  0  0  0  0  0  0
   55.8414   21.7400   44.4061 O   0  0  0  0  0  0  0  0  0  0  0  0
   57.7020   22.8737   45.0279 N   0  0  0  0  0  0  0  0  0  0  0  0
   58.2811   23.9871   45.5458 C   0  0  0  0  0  0  0  0  0  0  0  0
   59.5332   24.0324   45.6752 O   0  0  0  0  0  0  0  0  0  0  0  0
   58.2564   31.1734   45.8567 C   0  0  0  0  0  0  0  0  0  0  0  0
   57.7832   32.0706   44.8902 C   0  0  0  0  0  0  0  0  0  0  0  0
   58.0228   33.4402   45.0260 C   0  0  0  0  0  0  0  0  0  0  0  0
   58.7319   33.9227   46.1298 C   0  0  0  0  0  0  0  0  0  0  0  0
   59.2037   33.0368   47.1137 C   0  0  0  0  0  0  0  0  0  0  0  0
   58.9785   31.6587   46.9572 C   0  0  0  0  0  0  0  0  0  0  0  0
   59.9528   33.5475   48.2848 C   0  0  0  0  0  0  0  0  0  0  0  0
   59.3845   34.3339   49.0905 O   0  0  0  0  0  0  0  0  0  0  0  0
   61.3265   33.1821   48.5076 N   0  0  0  0  0  0  0  0  0  0  0  0
   62.2652   34.1957   49.0029 C   0  0  0  0  0  0  0  0  0  0  0  0
   63.6964   33.6527   49.0080 C   0  0  0  0  0  0  0  0  0  0  0  0
   63.9128   32.8547   47.7968 N   0  0  0  0  0  0  0  0  0  0  0  0
   63.1209   31.6105   47.8111 C   0  0  0  0  0  0  0  0  0  0  0  0
   61.7396   31.7724   48.4823 C   0  0  0  0  0  0  0  0  0  0  0  0
   64.9022   32.6155   47.7315 H   0  0  0  0  0  0  0  0  0  0  0  0
  1  2  2  0
  2  3  1  0
  3  4  2  0
  4  9  1  0
  9 10  2  0
 10 11  1  0
 10 12  1  0
 12 13  1  0
 13 14  2  0
 13 15  1  0
 15 16  1  0
 16 17  2  0
  3  5  1  0
  5  6  2  0
  6  7  1  0
  6  8  1  0
  8 18  1  0
 18 19  2  0
 19 20  1  0
 20 21  2  0
 21 22  1  0
 22 24  1  0
 24 25  2  0
 24 26  1  0
 26 27  1  0
 27 28  1  0
 28 29  1  0
 29 30  1  0
 30 31  1  0
 22 23  2  0
  8  2  1  0
 23 18  1  0
 16  9  1  0
 31 26  1  0
 29 32  1  0
M  CHG 1  11  -1
M  CHG 1  12  -1
M  CHG 1  15  -1
M  END
> <UniqueID>
54

> <SMILES>
C=c1c(=Cc2c([O-])[n-]c(=O)[n-]c2=O)cc(C)n1-c1cccc(C(=O)N2CCNCC2)c1

> <Energy>
110.54106369536677

> <Genealogy>
C=c1c(=Cc2c([O-])[n-]c(=O)[n-]c2=O)cc(C)n1-c1cccc(C(=O)N2CCNCC2)c1 (protonated)
C=c1c(=Cc2c([O-])[n-]c(=O)[n-]c2=O)cc(C)n1-c1cccc(C(=O)N2CCNCC2)c1 (3D coordinates assigned)
C=c1c(=Cc2c([O-])[n-]c(=O)[n-]c2=O)cc(C)n1-c1cccc(C(=O)N2CCNCC2)c1 (nonaromatic ring conformer: 110.54106369536677 kcal/mol)

> <smiles>
C=c1c(=Cc2c(O)[nH]c(=O)[nH]c2=O)cc(C)n1-c1cccc(C(=O)N2CCNCC2)c1

> <score_type>
oracle

> <origin>
adg

> <m_score__min__energy>
-17.640000000000001

> <m_primary>
energy

> <minimizedAffinity>
-10.16600

> <minimizedRMSD>
0.75333

> <CNNscore>
0.3088908195

> <CNNaffinity>
6.9569511414

> <CNN_VS>
2.1489384174

> <CNNaffinity_variance>
0.0265540201

$$$$
81:0


 35 38  0  0  0  0  0  0  0  0999 V2000
   58.3571   32.9696   45.6590 C   0  0  0  0  0  0  0  0  0  0  0  0
   57.7353   34.0580   45.5131 O   0  0  0  0  0  0  0  0  0  0  0  0
   58.1043   31.8464   44.6982 C   0  0  0  0  0  0  0  0  0  0  0  0
   57.0510   30.9582   45.1879 N   0  0  0  0  0  0  0  0  0  0  0  0
   55.8434   29.1291   44.4331 O   0  0  0  0  0  0  0  0  0  0  0  0
   56.9282   29.5548   44.9136 C   0  0  0  0  0  0  0  0  0  0  0  0
   58.0272   28.5652   45.2113 C   0  0  0  0  0  0  0  0  0  0  0  0
   57.6947   27.6995   46.4364 C   0  0  0  0  0  0  0  0  0  0  0  0
   57.5288   26.2917   46.0582 N   0  0  0  0  0  0  0  0  0  0  0  0
   56.3622   25.6205   45.9230 C   0  0  0  0  0  0  0  0  0  0  0  0
   55.1045   26.1955   46.0665 O   0  0  0  0  0  0  0  0  0  0  0  0
   56.6026   24.2912   45.6388 C   0  0  0  0  0  0  0  0  0  0  0  0
   57.9683   24.1396   45.6058 C   0  0  0  0  0  0  0  0  0  0  0  0
   58.5105   25.3801   45.8748 C   0  0  0  0  0  0  0  0  0  0  0  0
   59.8695   25.6635   45.9706 O   0  0  0  0  0  0  0  0  0  0  0  0
   58.6592   22.8327   45.3754 C   0  0  0  0  0  0  0  0  0  0  0  0
   57.6723   21.7307   45.0382 C   0  0  0  0  0  0  0  0  0  0  0  0
   56.3276   21.8840   45.0642 C   0  0  0  0  0  0  0  0  0  0  0  0
   55.6281   23.1793   45.4341 C   0  0  0  0  0  0  0  0  0  0  0  0
   59.3560   32.8294   46.6760 N   0  0  0  0  0  0  0  0  0  0  0  0
   59.6326   31.6444   47.4327 C   0  0  0  0  0  0  0  0  0  0  0  0
   60.3881   30.5758   46.9046 C   0  0  0  0  0  0  0  0  0  0  0  0
   60.6601   29.4421   47.6863 C   0  0  0  0  0  0  0  0  0  0  0  0
   60.2074   29.3789   49.0059 C   0  0  0  0  0  0  0  0  0  0  0  0
   59.4829   30.4485   49.5530 C   0  0  0  0  0  0  0  0  0  0  0  0
   59.2000   31.5798   48.7647 C   0  0  0  0  0  0  0  0  0  0  0  0
   58.9618   30.3660   51.2350 S   0  0  0  0  0  0  0  0  0  0  0  0
   57.4646   30.2391   51.2635 O   0  0  0  0  0  0  0  0  0  0  0  0
   59.5655   29.1633   51.9085 O   0  0  0  0  0  0  0  0  0  0  0  0
   59.4462   31.8192   52.0710 N   0  0  0  0  0  0  0  0  0  0  0  0
   59.9588   31.4887   53.4147 C   0  0  0  0  0  0  0  0  0  0  0  0
   60.0193   32.7408   54.3094 C   0  0  0  0  0  0  0  0  0  0  0  0
   60.0079   33.9170   53.5247 O   0  0  0  0  0  0  0  0  0  0  0  0
   58.7579   34.0474   52.8660 C   0  0  0  0  0  0  0  0  0  0  0  0
   58.3082   32.7438   52.1693 C   0  0  0  0  0  0  0  0  0  0  0  0
  5  6  2  0
  6  7  1  0
  7  8  1  0
  8  9  1  0
  9 10  1  0
 10 11  1  0
 10 12  2  0
 12 13  1  0
 13 14  2  0
 14 15  1  0
 13 16  1  0
 16 17  1  0
 17 18  2  0
 18 19  1  0
  6  4  1  0
  4  3  1  0
  3  1  1  0
  1  2  2  0
  1 20  1  0
 20 21  1  0
 21 22  2  0
 22 23  1  0
 23 24  2  0
 24 25  1  0
 25 27  1  0
 27 28  2  0
 27 29  2  0
 27 30  1  0
 30 31  1  0
 31 32  1  0
 32 33  1  0
 33 34  1  0
 34 35  1  0
 25 26  2  0
 14  9  1  0
 26 21  1  0
 19 12  1  0
 35 30  1  0
M  CHG 1   4  -1
M  CHG 1  11  -1
M  CHG 1  15  -1
M  CHG 1  20  -1
M  END
> <UniqueID>
76

> <SMILES>
O=C(CCn1c([O-])c2c(c1[O-])CC=CC2)[N-]CC(=O)[N-]c1cccc(S(=O)(=O)N2CCOCC2)c1

> <Energy>
97.72227302881215

> <Genealogy>
O=C(CCn1c([O-])c2c(c1[O-])CC=CC2)[N-]CC(=O)[N-]c1cccc(S(=O)(=O)N2CCOCC2)c1 (protonated)
O=C(CCn1c([O-])c2c(c1[O-])CC=CC2)[N-]CC(=O)[N-]c1cccc(S(=O)(=O)N2CCOCC2)c1 (3D coordinates assigned)
O=C(CCn1c([O-])c2c(c1[O-])CC=CC2)[N-]CC(=O)[N-]c1cccc(S(=O)(=O)N2CCOCC2)c1 (nonaromatic ring conformer: 97.72227302881215 kcal/mol)

> <smiles>
O=C(CCn1c(O)c2c(c1O)CC=CC2)NCC(=O)Nc1cccc(S(=O)(=O)N2CCOCC2)c1

> <score_type>
oracle

> <origin>
adg

> <m_score__min__energy>
-17.5

> <m_primary>
energy

> <minimizedAffinity>
-7.26795

> <minimizedRMSD>
0.65065

> <CNNscore>
0.2189527750

> <CNNaffinity>
6.4078011513

> <CNN_VS>
1.4030058384

> <CNNaffinity_variance>
0.0322027393

$$$$
85:0


 31 34  0  0  0  0  0  0  0  0999 V2000
   58.5757   29.8270   44.4915 C   0  0  0  0  0  0  0  0  0  0  0  0
   58.5392   29.3228   45.7350 C   0  0  0  0  0  0  0  0  0  0  0  0
   58.1154   28.0383   46.1213 C   0  0  0  0  0  0  0  0  0  0  0  0
   57.4957   27.0641   45.4265 C   0  0  0  0  0  0  0  0  0  0  0  0
   58.4499   27.9060   47.4578 C   0  0  0  0  0  0  0  0  0  0  0  0
   58.9985   29.1068   47.8566 C   0  0  0  0  0  0  0  0  0  0  0  0
   59.5017   29.3891   49.2395 C   0  0  0  0  0  0  0  0  0  0  0  0
   59.0562   29.9664   46.8142 N   0  0  0  0  0  0  0  0  0  0  0  0
   57.2401   25.6933   45.9096 C   0  0  0  0  0  0  0  0  0  0  0  0
   55.9282   25.2624   46.1516 C   0  0  0  0  0  0  0  0  0  0  0  0
   54.8571   26.1378   45.9887 O   0  0  0  0  0  0  0  0  0  0  0  0
   55.6986   23.9844   46.5579 N   0  0  0  0  0  0  0  0  0  0  0  0
   56.7210   23.1067   46.7186 C   0  0  0  0  0  0  0  0  0  0  0  0
   56.4831   21.9308   47.0986 O   0  0  0  0  0  0  0  0  0  0  0  0
   57.9967   23.4925   46.4653 N   0  0  0  0  0  0  0  0  0  0  0  0
   58.2794   24.7556   46.0568 C   0  0  0  0  0  0  0  0  0  0  0  0
   59.4733   25.0739   45.8088 O   0  0  0  0  0  0  0  0  0  0  0  0
   55.0104   27.0189   45.7091 H   0  0  0  0  0  0  0  0  0  0  0  0
   59.5873   31.3038   46.8560 C   0  0  0  0  0  0  0  0  0  0  0  0
   58.7856   32.3904   46.4788 C   0  0  0  0  0  0  0  0  0  0  0  0
   59.3028   33.6875   46.5053 C   0  0  0  0  0  0  0  0  0  0  0  0
   60.6195   33.9094   46.9196 C   0  0  0  0  0  0  0  0  0  0  0  0
   61.4256   32.8345   47.3245 C   0  0  0  0  0  0  0  0  0  0  0  0
   60.9079   31.5295   47.2745 C   0  0  0  0  0  0  0  0  0  0  0  0
   62.8191   33.0776   47.7496 C   0  0  0  0  0  0  0  0  0  0  0  0
   63.6919   33.3110   46.8697 O   0  0  0  0  0  0  0  0  0  0  0  0
   63.1967   33.0778   49.1381 N   0  0  0  0  0  0  0  0  0  0  0  0
   62.2742   33.3345   50.2340 C   0  0  0  0  0  0  0  0  0  0  0  0
   63.1462   33.6942   51.4278 C   0  0  0  0  0  0  0  0  0  0  0  0
   64.5418   33.1819   51.0873 C   0  0  0  0  0  0  0  0  0  0  0  0
   64.5851   33.0892   49.5693 C   0  0  0  0  0  0  0  0  0  0  0  0
  1  2  2  0
  2  3  1  0
  3  4  2  0
  4  9  1  0
  9 10  2  0
 10 11  1  0
 10 12  1  0
 12 13  1  0
 13 14  2  0
 13 15  1  0
 15 16  1  0
 16 17  2  0
  3  5  1  0
  5  6  2  0
  6  7  1  0
  6  8  1  0
  8 19  1  0
 19 20  2  0
 20 21  1  0
 21 22  2  0
 22 23  1  0
 23 25  1  0
 25 26  2  0
 25 27  1  0
 27 28  1  0
 28 29  1  0
 29 30  1  0
 30 31  1  0
 23 24  2  0
  8  2  1  0
 24 19  1  0
 16  9  1  0
 31 27  1  0
 11 18  1  0
M  CHG 1  12  -1
M  CHG 1  15  -1
M  END
> <UniqueID>
80

> <SMILES>
C=c1c(=Cc2c(O)[n-]c(=O)[n-]c2=O)cc(C)n1-c1cccc(C(=O)N2CCCC2)c1

> <Energy>
104.66583412109914

> <Genealogy>
C=c1c(=Cc2c(O)[n-]c(=O)[n-]c2=O)cc(C)n1-c1cccc(C(=O)N2CCCC2)c1 (protonated)
C=c1c(=Cc2c(O)[n-]c(=O)[n-]c2=O)cc(C)n1-c1cccc(C(=O)N2CCCC2)c1 (3D coordinates assigned)
C=c1c(=Cc2c(O)[n-]c(=O)[n-]c2=O)cc(C)n1-c1cccc(C(=O)N2CCCC2)c1 (nonaromatic ring conformer: 104.66583412109914 kcal/mol)

> <smiles>
C=c1c(=Cc2c(O)[nH]c(=O)[nH]c2=O)cc(C)n1-c1cccc(C(=O)N2CCCC2)c1

> <score_type>
oracle

> <origin>
adg

> <m_score__min__energy>
-14.41

> <m_primary>
energy

> <minimizedAffinity>
-10.28311

> <minimizedRMSD>
0.57850

> <CNNscore>
0.4516585171

> <CNNaffinity>
7.0064444542

> <CNN_VS>
3.1645202637

> <CNNaffinity_variance>
0.0663782060

$$$$
87:0


 35 39  0  0  0  0  0  0  0  0999 V2000
   58.8807   30.1602   46.4018 C   0  0  0  0  0  0  0  0  0  0  0  0
   57.7693   30.4768   45.6279 C   0  0  0  0  0  0  0  0  0  0  0  0
   56.7736   29.5787   45.2633 O   0  0  0  0  0  0  0  0  0  0  0  0
   57.7356   31.7881   45.2913 N   0  0  0  0  0  0  0  0  0  0  0  0
   58.8311   32.3040   45.8818 C   0  0  0  0  0  0  0  0  0  0  0  0
   59.2394   33.6353   45.8533 C   0  0  0  0  0  0  0  0  0  0  0  0
   60.4050   33.9860   46.5584 C   0  0  0  0  0  0  0  0  0  0  0  0
   61.1358   33.0068   47.2735 C   0  0  0  0  0  0  0  0  0  0  0  0
   60.6931   31.6696   47.2905 C   0  0  0  0  0  0  0  0  0  0  0  0
   59.5375   31.3556   46.5772 C   0  0  0  0  0  0  0  0  0  0  0  0
   59.2295   29.8027   51.6189 C   0  0  0  0  0  0  0  0  0  0  0  0
   59.4741   29.1594   50.4769 C   0  0  0  0  0  0  0  0  0  0  0  0
   58.9740   29.5729   49.2919 N   0  0  0  0  0  0  0  0  0  0  0  0
   59.4761   28.7363   48.3586 C   0  0  0  0  0  0  0  0  0  0  0  0
   59.1930   28.8765   47.0545 C   0  0  0  0  0  0  0  0  0  0  0  0
   60.3155   27.8067   48.9575 C   0  0  0  0  0  0  0  0  0  0  0  0
   61.0743   26.8289   48.3251 O   0  0  0  0  0  0  0  0  0  0  0  0
   60.3000   28.0518   50.3115 C   0  0  0  0  0  0  0  0  0  0  0  0
   61.0567   27.3046   51.3371 C   0  0  0  0  0  0  0  0  0  0  0  0
   60.6174   26.1867   51.7209 O   0  0  0  0  0  0  0  0  0  0  0  0
   62.2702   27.8269   51.9121 N   0  0  0  0  0  0  0  0  0  0  0  0
   62.3679   29.2487   52.2799 C   0  0  0  0  0  0  0  0  0  0  0  0
   63.7561   29.8280   51.9477 C   0  0  0  0  0  0  0  0  0  0  0  0
   64.8951   28.7926   52.0268 C   0  0  0  0  0  0  0  0  0  0  0  0
   64.5338   27.6056   52.9217 C   0  0  0  0  0  0  0  0  0  0  0  0
   63.3031   26.8811   52.3615 C   0  0  0  0  0  0  0  0  0  0  0  0
   62.5811   33.4552   48.1760 S   0  0  0  0  0  0  0  0  0  0  0  0
   62.3696   34.7888   48.8398 O   0  0  0  0  0  0  0  0  0  0  0  0
   63.7230   33.5875   47.2077 O   0  0  0  0  0  0  0  0  0  0  0  0
   62.9707   32.2275   49.3650 N   0  0  0  0  0  0  0  0  0  0  0  0
   62.0558   32.2708   50.5198 C   0  0  0  0  0  0  0  0  0  0  0  0
   62.3408   33.4764   51.4487 C   0  0  0  0  0  0  0  0  0  0  0  0
   63.6305   34.0385   51.2719 O   0  0  0  0  0  0  0  0  0  0  0  0
   64.5909   33.0177   51.1191 C   0  0  0  0  0  0  0  0  0  0  0  0
   64.3921   32.2939   49.7749 C   0  0  0  0  0  0  0  0  0  0  0  0
 11 12  2  0
 12 13  1  0
 13 14  1  0
 14 15  2  0
 15  1  1  0
  1  2  2  0
  2  3  1  0
  2  4  1  0
  4  5  1  0
  5  6  2  0
  6  7  1  0
  7  8  2  0
  8 27  1  0
 27 28  2  0
 27 29  2  0
 27 30  1  0
 30 31  1  0
 31 32  1  0
 32 33  1  0
 33 34  1  0
 34 35  1  0
  8  9  1  0
  9 10  2  0
 14 16  1  0
 16 17  1  0
 16 18  2  0
 18 19  1  0
 19 20  2  0
 19 21  1  0
 21 22  1  0
 22 23  1  0
 23 24  1  0
 24 25  1  0
 25 26  1  0
 18 12  1  0
 26 21  1  0
 10  1  1  0
 10  5  1  0
 35 30  1  0
M  CHG 1   3  -1
M  CHG 1   4  -1
M  CHG 1  13  -1
M  CHG 1  17  -1
M  END
> <UniqueID>
82

> <SMILES>
C=c1[n-]/c(=C/c2c([O-])[n-]c3ccc(S(=O)(=O)N4CCOCC4)cc23)c([O-])c1C(=O)N1CCCCC1

> <Energy>
147.4055295263498

> <Genealogy>
C=c1[n-]c(=Cc2c([O-])[n-]c3ccc(S(=O)(=O)N4CCOCC4)cc23)c([O-])c1C(=O)N1CCCCC1 (protonated)
C=c1[n-]/c(=C/c2c([O-])[n-]c3ccc(S(=O)(=O)N4CCOCC4)cc23)c([O-])c1C(=O)N1CCCCC1 (cis-trans isomerization)
C=c1[n-]/c(=C/c2c([O-])[n-]c3ccc(S(=O)(=O)N4CCOCC4)cc23)c([O-])c1C(=O)N1CCCCC1 (3D coordinates assigned)
C=c1[n-]/c(=C/c2c([O-])[n-]c3ccc(S(=O)(=O)N4CCOCC4)cc23)c([O-])c1C(=O)N1CCCCC1 (nonaromatic ring conformer: 147.4055295263498 kcal/mol)

> <smiles>
C=c1[nH]c(=Cc2c(O)[nH]c3ccc(S(=O)(=O)N4CCOCC4)cc23)c(O)c1C(=O)N1CCCCC1

> <score_type>
oracle

> <origin>
adg

> <m_score__min__energy>
-17.989999999999998

> <m_primary>
energy

> <minimizedAffinity>
-7.77625

> <minimizedRMSD>
2.20910

> <CNNscore>
0.4911725819

> <CNNaffinity>
6.4949221611

> <CNN_VS>
3.1901276112

> <CNNaffinity_variance>
0.4029395878

$$$$
25:0


 26 28  0  0  0  0  0  0  0  0999 V2000
   58.8129   34.0640   45.0527 C   0  0  0  0  0  0  0  0  0  0  0  0
   58.0778   33.1540   44.3389 N   0  0  0  0  0  0  0  0  0  0  0  0
   57.8817   31.9270   44.7967 C   0  0  0  0  0  0  0  0  0  0  0  0
   57.1888   30.9989   44.1709 N   0  0  0  0  0  0  0  0  0  0  0  0
   58.4322   31.5617   46.0252 C   0  0  0  0  0  0  0  0  0  0  0  0
   59.1761   32.4423   46.7720 C   0  0  0  0  0  0  0  0  0  0  0  0
   59.3712   33.7068   46.2864 C   0  0  0  0  0  0  0  0  0  0  0  0
   57.4498   29.6774   44.3419 C   0  0  0  0  0  0  0  0  0  0  0  0
   55.9317   29.4650   44.7646 O   0  0  0  0  0  0  0  0  0  0  0  0
   57.7227   28.3002   44.5195 C   0  0  0  0  0  0  0  0  0  0  0  0
   57.8959   27.9060   46.0000 C   0  0  0  0  0  0  0  0  0  0  0  0
   57.2851   26.5672   46.1807 C   0  0  0  0  0  0  0  0  0  0  0  0
   55.9881   26.2428   46.1835 N   0  0  0  0  0  0  0  0  0  0  0  0
   55.9137   24.9421   46.3777 N   0  0  0  0  0  0  0  0  0  0  0  0
   57.1374   24.4056   46.5036 C   0  0  0  0  0  0  0  0  0  0  0  0
   57.4773   23.2059   46.6976 O   0  0  0  0  0  0  0  0  0  0  0  0
   58.0030   25.4303   46.3789 N   0  0  0  0  0  0  0  0  0  0  0  0
   59.6775   31.9687   47.9810 O   0  0  0  0  0  0  0  0  0  0  0  0
   60.7142   31.0037   48.0166 C   0  0  0  0  0  0  0  0  0  0  0  0
   61.9453   31.6777   48.4850 C   0  0  0  0  0  0  0  0  0  0  0  0
   62.6046   32.5980   47.6636 C   0  0  0  0  0  0  0  0  0  0  0  0
   63.7717   33.2161   48.1262 C   0  0  0  0  0  0  0  0  0  0  0  0
   64.2593   32.9077   49.3988 C   0  0  0  0  0  0  0  0  0  0  0  0
   63.6077   32.0002   50.2083 C   0  0  0  0  0  0  0  0  0  0  0  0
   64.2490   31.6280   51.8190 Cl  0  0  0  0  0  0  0  0  0  0  0  0
   62.4493   31.3893   49.7428 C   0  0  0  0  0  0  0  0  0  0  0  0
  1  2  1  0
  2  3  1  0
  3  4  2  0
  4  8  1  0
  8  9  2  0
  8 10  1  0
 10 11  1  0
 11 12  1  0
 12 13  2  0
 13 14  1  0
 14 15  1  0
 15 16  2  0
 15 17  1  0
  3  5  1  0
  5  6  2  0
  6 18  1  0
 18 19  1  0
 19 20  1  0
 20 21  2  0
 21 22  1  0
 22 23  2  0
 23 24  1  0
 24 25  1  0
 24 26  2  0
  6  7  1  0
  7  1  2  0
 17 12  1  0
 26 20  1  0
M  CHG 1   2  -1
M  CHG 1  14  -1
M  CHG 1  17  -1
M  END
> <UniqueID>
25

> <SMILES>
O=C(CCc1n[n-]c(=O)[n-]1)/N=c1\cc(OCc2cccc(Cl)c2)cc[n-]1

> <Energy>
340.9272789318938

> <Genealogy>
O=C(CCc1n[n-]c(=O)[n-]1)N=c1cc(OCc2cccc(Cl)c2)cc[n-]1 (protonated)
O=C(CCc1n[n-]c(=O)[n-]1)/N=c1\cc(OCc2cccc(Cl)c2)cc[n-]1 (cis-trans isomerization)
O=C(CCc1n[n-]c(=O)[n-]1)/N=c1\cc(OCc2cccc(Cl)c2)cc[n-]1 (3D coordinates assigned)
O=C(CCc1n[n-]c(=O)[n-]1)/N=c1\cc(OCc2cccc(Cl)c2)cc[n-]1 (optimized conformer: 340.9272789318938 kcal/mol)

> <smiles>
O=C(CCc1n[nH]c(=O)[nH]1)N=c1cc(OCc2cccc(Cl)c2)cc[nH]1

> <score_type>
oracle

> <origin>
adg

> <m_score__min__energy>
-14.550000000000001

> <m_primary>
energy

> <minimizedAffinity>
-7.92089

> <minimizedRMSD>
0.98780

> <CNNscore>
0.5166989565

> <CNNaffinity>
7.0002307892

> <CNN_VS>
3.6170120239

> <CNNaffinity_variance>
0.1796819121

$$$$
34:0


 24 26  0  0  0  0  0  0  0  0999 V2000
   59.8082   31.0467   50.4880 N   0  0  0  0  0  0  0  0  0  0  0  0
   58.9464   30.5253   51.3161 C   0  0  0  0  0  0  0  0  0  0  0  0
   59.3249   29.6466   52.3520 C   0  0  0  0  0  0  0  0  0  0  0  0
   58.3484   29.1249   53.2018 C   0  0  0  0  0  0  0  0  0  0  0  0
   57.0064   29.4657   53.0244 C   0  0  0  0  0  0  0  0  0  0  0  0
   56.6708   30.3775   52.0106 C   0  0  0  0  0  0  0  0  0  0  0  0
   57.6364   30.8739   51.1935 N   0  0  0  0  0  0  0  0  0  0  0  0
   60.1096   33.2958   50.9690 O   0  0  0  0  0  0  0  0  0  0  0  0
   59.8986   32.4220   50.0850 C   0  0  0  0  0  0  0  0  0  0  0  0
   59.6698   32.8414   48.6791 C   0  0  0  0  0  0  0  0  0  0  0  0
   59.9018   34.1736   48.2913 C   0  0  0  0  0  0  0  0  0  0  0  0
   59.6879   34.5722   46.9681 C   0  0  0  0  0  0  0  0  0  0  0  0
   59.2339   33.6509   46.0226 C   0  0  0  0  0  0  0  0  0  0  0  0
   58.9887   32.3284   46.3986 C   0  0  0  0  0  0  0  0  0  0  0  0
   59.2012   31.9239   47.7208 C   0  0  0  0  0  0  0  0  0  0  0  0
   56.0212   28.9400   53.9252 N   0  0  0  0  0  0  0  0  0  0  0  0
   54.8676   29.6351   54.4112 C   0  0  0  0  0  0  0  0  0  0  0  0
   54.9071   30.1494   55.5599 O   0  0  0  0  0  0  0  0  0  0  0  0
   53.6145   29.7001   53.6346 C   0  0  0  0  0  0  0  0  0  0  0  0
   52.5088   28.8912   53.8370 C   0  0  0  0  0  0  0  0  0  0  0  0
   51.5816   29.2584   52.8872 C   0  0  0  0  0  0  0  0  0  0  0  0
   52.1778   30.2615   52.1565 C   0  0  0  0  0  0  0  0  0  0  0  0
   51.5824   30.9178   51.0871 O   0  0  0  0  0  0  0  0  0  0  0  0
   53.4174   30.5397   52.5957 N   0  0  0  0  0  0  0  0  0  0  0  0
  8  9  2  0
  9  1  1  0
  1  2  2  0
  2  3  1  0
  3  4  2  0
  4  5  1  0
  5 16  1  0
 16 17  1  0
 17 18  2  0
 17 19  1  0
 19 20  2  0
 20 21  1  0
 21 22  2  0
 22 23  1  0
 22 24  1  0
  5  6  2  0
  6  7  1  0
  9 10  1  0
 10 11  2  0
 11 12  1  0
 12 13  2  0
 13 14  1  0
 14 15  2  0
  7  2  1  0
 15 10  1  0
 24 19  1  0
M  CHG 1   7  -1
M  CHG 1  16  -1
M  CHG 1  23  -1
M  CHG 1  24  -1
M  END
> <UniqueID>
32

> <SMILES>
O=C(N=c1ccc([N-]C(=O)c2ccc([O-])[n-]2)c[n-]1)c1ccccc1

> <Energy>
78.09054572683964

> <Genealogy>
O=C(N=c1ccc([N-]C(=O)c2ccc([O-])[n-]2)c[n-]1)c1ccccc1 (protonated)
O=C(N=c1ccc([N-]C(=O)c2ccc([O-])[n-]2)c[n-]1)c1ccccc1 (3D coordinates assigned)
O=C(N=c1ccc([N-]C(=O)c2ccc([O-])[n-]2)c[n-]1)c1ccccc1 (optimized conformer: 78.09054572683964 kcal/mol)

> <smiles>
O=C(N=c1ccc(NC(=O)c2ccc(O)[nH]2)c[nH]1)c1ccccc1

> <score_type>
oracle

> <origin>
adg

> <m_score__min__energy>
-15.710000000000001

> <m_primary>
energy

> <minimizedAffinity>
-5.81677

> <minimizedRMSD>
2.66405

> <CNNscore>
0.2976955473

> <CNNaffinity>
5.3505005836

> <CNN_VS>
1.5928201675

> <CNNaffinity_variance>
0.2744067311

$$$$
40:0


 30 33  0  0  0  0  0  0  0  0999 V2000
   61.0465   30.1376   47.3421 C   0  0  0  0  0  0  0  0  0  0  0  0
   60.2832   31.1681   46.9476 C   0  0  0  0  0  0  0  0  0  0  0  0
   59.4413   31.2348   45.8239 C   0  0  0  0  0  0  0  0  0  0  0  0
   59.0729   30.2936   44.9323 C   0  0  0  0  0  0  0  0  0  0  0  0
   58.9799   32.5415   45.7623 C   0  0  0  0  0  0  0  0  0  0  0  0
   59.5102   33.2045   46.8497 C   0  0  0  0  0  0  0  0  0  0  0  0
   59.2421   34.6355   47.2013 C   0  0  0  0  0  0  0  0  0  0  0  0
   60.2920   32.3745   47.5689 N   0  0  0  0  0  0  0  0  0  0  0  0
   58.4048   29.0183   45.2568 C   0  0  0  0  0  0  0  0  0  0  0  0
   57.0040   28.9080   45.2493 C   0  0  0  0  0  0  0  0  0  0  0  0
   56.2061   30.0138   44.9776 O   0  0  0  0  0  0  0  0  0  0  0  0
   56.4182   27.7093   45.5030 N   0  0  0  0  0  0  0  0  0  0  0  0
   57.1649   26.6023   45.7499 C   0  0  0  0  0  0  0  0  0  0  0  0
   56.6003   25.5042   45.9857 O   0  0  0  0  0  0  0  0  0  0  0  0
   58.5203   26.6801   45.7362 N   0  0  0  0  0  0  0  0  0  0  0  0
   59.1541   27.8552   45.4885 C   0  0  0  0  0  0  0  0  0  0  0  0
   60.4140   27.8894   45.4784 O   0  0  0  0  0  0  0  0  0  0  0  0
   61.0166   32.7353   48.7555 C   0  0  0  0  0  0  0  0  0  0  0  0
   62.3188   33.2292   48.6501 C   0  0  0  0  0  0  0  0  0  0  0  0
   63.0339   33.5729   49.7962 C   0  0  0  0  0  0  0  0  0  0  0  0
   62.4375   33.4128   51.0599 C   0  0  0  0  0  0  0  0  0  0  0  0
   61.1638   32.9349   51.1329 N   0  0  0  0  0  0  0  0  0  0  0  0
   60.4429   32.5914   50.0310 C   0  0  0  0  0  0  0  0  0  0  0  0
   59.0464   32.0726   50.2017 C   0  0  0  0  0  0  0  0  0  0  0  0
   63.1431   33.7484   52.2765 N   0  0  0  0  0  0  0  0  0  0  0  0
   64.3532   34.5815   52.2464 C   0  0  0  0  0  0  0  0  0  0  0  0
   65.2432   34.2732   53.4540 C   0  0  0  0  0  0  0  0  0  0  0  0
   64.5013   34.3355   54.6561 O   0  0  0  0  0  0  0  0  0  0  0  0
   63.5311   33.3073   54.6659 C   0  0  0  0  0  0  0  0  0  0  0  0
   62.4854   33.5375   53.5726 C   0  0  0  0  0  0  0  0  0  0  0  0
  1  2  2  0
  2  3  1  0
  3  4  2  0
  4  9  1  0
  9 10  2  0
 10 11  1  0
 10 12  1  0
 12 13  1  0
 13 14  2  0
 13 15  1  0
 15 16  1  0
 16 17  2  0
  3  5  1  0
  5  6  2  0
  6  7  1  0
  6  8  1  0
  8 18  1  0
 18 19  2  0
 19 20  1  0
 20 21  2  0
 21 25  1  0
 25 26  1  0
 26 27  1  0
 27 28  1  0
 28 29  1  0
 29 30  1  0
 21 22  1  0
 22 23  2  0
 23 24  1  0
  8  2  1  0
 23 18  1  0
 16  9  1  0
 30 25  1  0
M  CHG 1  11  -1
M  CHG 1  12  -1
M  CHG 1  15  -1
M  END
> <UniqueID>
38

> <SMILES>
C=c1c(=Cc2c([O-])[n-]c(=O)[n-]c2=O)cc(C)n1-c1ccc(N2CCOCC2)nc1C

> <Energy>
106.1173826774669

> <Genealogy>
C=c1c(=Cc2c([O-])[n-]c(=O)[n-]c2=O)cc(C)n1-c1ccc(N2CCOCC2)nc1C (protonated)
C=c1c(=Cc2c([O-])[n-]c(=O)[n-]c2=O)cc(C)n1-c1ccc(N2CCOCC2)nc1C (3D coordinates assigned)
C=c1c(=Cc2c([O-])[n-]c(=O)[n-]c2=O)cc(C)n1-c1ccc(N2CCOCC2)nc1C (nonaromatic ring conformer: 106.1173826774669 kcal/mol)

> <smiles>
C=c1c(=Cc2c(O)[nH]c(=O)[nH]c2=O)cc(C)n1-c1ccc(N2CCOCC2)nc1C

> <score_type>
oracle

> <origin>
adg

> <m_score__min__energy>
-15.33

> <m_primary>
energy

> <minimizedAffinity>
-6.85563

> <minimizedRMSD>
1.81644

> <CNNscore>
0.3550784588

> <CNNaffinity>
7.0463681221

> <CNN_VS>
2.5020134449

> <CNNaffinity_variance>
0.3808103502

$$$$
46:0


 29 32  0  0  0  0  0  0  0  0999 V2000
   59.9740   27.1830   47.0652 C   0  0  0  0  0  0  0  0  0  0  0  0
   59.2932   28.0981   46.3579 C   0  0  0  0  0  0  0  0  0  0  0  0
   58.3200   27.8632   45.3722 C   0  0  0  0  0  0  0  0  0  0  0  0
   57.9451   26.7283   44.7504 C   0  0  0  0  0  0  0  0  0  0  0  0
   57.7604   29.0970   45.0793 C   0  0  0  0  0  0  0  0  0  0  0  0
   58.4363   30.0335   45.8335 C   0  0  0  0  0  0  0  0  0  0  0  0
   58.1748   31.5083   45.8091 C   0  0  0  0  0  0  0  0  0  0  0  0
   59.3684   29.4308   46.6004 N   0  0  0  0  0  0  0  0  0  0  0  0
   57.6056   25.4589   45.4133 C   0  0  0  0  0  0  0  0  0  0  0  0
   58.3676   24.3503   45.3838 N   0  0  0  0  0  0  0  0  0  0  0  0
   57.5945   23.4245   45.9895 C   0  0  0  0  0  0  0  0  0  0  0  0
   57.9737   22.2371   46.1697 O   0  0  0  0  0  0  0  0  0  0  0  0
   56.3790   23.8651   46.3766 N   0  0  0  0  0  0  0  0  0  0  0  0
   56.3982   25.1512   45.9906 C   0  0  0  0  0  0  0  0  0  0  0  0
   55.3297   26.0244   46.1566 O   0  0  0  0  0  0  0  0  0  0  0  0
   60.2180   30.0986   47.5493 C   0  0  0  0  0  0  0  0  0  0  0  0
   61.3679   30.7620   47.1065 C   0  0  0  0  0  0  0  0  0  0  0  0
   62.1967   31.4218   48.0186 C   0  0  0  0  0  0  0  0  0  0  0  0
   61.8801   31.4331   49.3873 C   0  0  0  0  0  0  0  0  0  0  0  0
   60.7217   30.7681   49.8270 C   0  0  0  0  0  0  0  0  0  0  0  0
   59.8928   30.1084   48.9149 C   0  0  0  0  0  0  0  0  0  0  0  0
   58.7456   29.4668   49.3680 O   0  0  0  0  0  0  0  0  0  0  0  0
   62.7376   32.1018   50.3302 N   0  0  0  0  0  0  0  0  0  0  0  0
   62.7804   33.5762   50.3467 C   0  0  0  0  0  0  0  0  0  0  0  0
   63.8673   34.1211   51.2872 C   0  0  0  0  0  0  0  0  0  0  0  0
   65.1322   33.3131   51.1546 C   0  0  0  0  0  0  0  0  0  0  0  0
   66.2167   33.8745   51.1429 O   0  0  0  0  0  0  0  0  0  0  0  0
   65.0657   31.8128   51.0705 C   0  0  0  0  0  0  0  0  0  0  0  0
   63.6207   31.3238   51.2123 C   0  0  0  0  0  0  0  0  0  0  0  0
  1  2  2  0
  2  3  1  0
  3  4  2  0
  4  9  1  0
  9 10  1  0
 10 11  1  0
 11 12  2  0
 11 13  1  0
 13 14  1  0
 14 15  1  0
  3  5  1  0
  5  6  2  0
  6  7  1  0
  6  8  1  0
  8 16  1  0
 16 17  2  0
 17 18  1  0
 18 19  2  0
 19 23  1  0
 23 24  1  0
 24 25  1  0
 25 26  1  0
 26 27  2  0
 26 28  1  0
 28 29  1  0
 19 20  1  0
 20 21  2  0
 21 22  1  0
  8  2  1  0
 21 16  1  0
 14  9  2  0
 29 23  1  0
M  CHG 1  10  -1
M  CHG 1  13  -1
M  CHG 1  15  -1
M  CHG 1  22  -1
M  END
> <UniqueID>
44

> <SMILES>
C=c1/c(=C\c2[n-]c(=O)[n-]c2[O-])cc(C)n1-c1ccc(N2CCC(=O)CC2)cc1[O-]

> <Energy>
129.11708389347234

> <Genealogy>
C=c1c(=Cc2[n-]c(=O)[n-]c2[O-])cc(C)n1-c1ccc(N2CCC(=O)CC2)cc1[O-] (protonated)
C=c1/c(=C\c2[n-]c(=O)[n-]c2[O-])cc(C)n1-c1ccc(N2CCC(=O)CC2)cc1[O-] (cis-trans isomerization)
C=c1/c(=C\c2[n-]c(=O)[n-]c2[O-])cc(C)n1-c1ccc(N2CCC(=O)CC2)cc1[O-] (3D coordinates assigned)
C=c1/c(=C\c2[n-]c(=O)[n-]c2[O-])cc(C)n1-c1ccc(N2CCC(=O)CC2)cc1[O-] (nonaromatic ring conformer: 129.11708389347234 kcal/mol)

> <smiles>
C=c1c(=Cc2[nH]c(=O)[nH]c2O)cc(C)n1-c1ccc(N2CCC(=O)CC2)cc1O

> <score_type>
oracle

> <origin>
adg

> <m_score__min__energy>
-16.960000000000001

> <m_primary>
energy

> <minimizedAffinity>
-8.75990

> <minimizedRMSD>
0.91590

> <CNNscore>
0.2003477514

> <CNNaffinity>
6.4499835968

> <CNN_VS>
1.2922396660

> <CNNaffinity_variance>
0.0034893740

$$$$
55:0


 27 29  0  0  0  0  0  0  0  0999 V2000
   59.6955   30.0308   47.8692 C   0  0  0  0  0  0  0  0  0  0  0  0
   59.3233   30.7541   46.8006 C   0  0  0  0  0  0  0  0  0  0  0  0
   59.0201   30.2751   45.5137 C   0  0  0  0  0  0  0  0  0  0  0  0
   59.1122   29.0423   44.9769 C   0  0  0  0  0  0  0  0  0  0  0  0
   58.5946   31.3717   44.7846 C   0  0  0  0  0  0  0  0  0  0  0  0
   58.6845   32.4672   45.6143 C   0  0  0  0  0  0  0  0  0  0  0  0
   58.4002   33.8770   45.1824 C   0  0  0  0  0  0  0  0  0  0  0  0
   59.1200   32.1003   46.8416 N   0  0  0  0  0  0  0  0  0  0  0  0
   58.5912   27.7999   45.5770 C   0  0  0  0  0  0  0  0  0  0  0  0
   57.2111   27.5429   45.6306 C   0  0  0  0  0  0  0  0  0  0  0  0
   56.3002   28.4373   45.0817 O   0  0  0  0  0  0  0  0  0  0  0  0
   56.7559   26.4106   46.2287 N   0  0  0  0  0  0  0  0  0  0  0  0
   57.6150   25.5238   46.7935 C   0  0  0  0  0  0  0  0  0  0  0  0
   57.1715   24.4808   47.3380 O   0  0  0  0  0  0  0  0  0  0  0  0
   58.9521   25.7642   46.7772 N   0  0  0  0  0  0  0  0  0  0  0  0
   59.4558   26.8813   46.1915 C   0  0  0  0  0  0  0  0  0  0  0  0
   60.7003   27.0771   46.2012 O   0  0  0  0  0  0  0  0  0  0  0  0
   59.3211   32.9980   47.9933 C   0  0  0  0  0  0  0  0  0  0  0  0
   60.7590   32.9948   48.4599 C   0  0  0  0  0  0  0  0  0  0  0  0
   61.0712   32.5931   49.7695 C   0  0  0  0  0  0  0  0  0  0  0  0
   62.3621   32.5680   50.1931 N   0  0  0  0  0  0  0  0  0  0  0  0
   63.3912   32.9174   49.3766 C   0  0  0  0  0  0  0  0  0  0  0  0
   63.1342   33.3084   48.0608 C   0  0  0  0  0  0  0  0  0  0  0  0
   61.8172   33.3408   47.5983 C   0  0  0  0  0  0  0  0  0  0  0  0
   61.5805   33.7095   46.3158 F   0  0  0  0  0  0  0  0  0  0  0  0
   64.7387   32.8762   49.8742 C   0  0  0  0  0  0  0  0  0  0  0  0
   65.8228   32.8436   50.2760 N   0  0  0  0  0  0  0  0  0  0  0  0
  1  2  2  0
  2  3  1  0
  3  4  2  0
  4  9  1  0
  9 10  2  0
 10 11  1  0
 10 12  1  0
 12 13  1  0
 13 14  2  0
 13 15  1  0
 15 16  1  0
 16 17  2  0
  3  5  1  0
  5  6  2  0
  6  7  1  0
  6  8  1  0
  8 18  1  0
 18 19  1  0
 19 20  2  0
 20 21  1  0
 21 22  2  0
 22 26  1  0
 26 27  3  0
 22 23  1  0
 23 24  2  0
 24 25  1  0
  8  2  1  0
 24 19  1  0
 16  9  1  0
M  CHG 1  11  -1
M  CHG 1  12  -1
M  CHG 1  15  -1
M  END
> <UniqueID>
53

> <SMILES>
C=c1c(=Cc2c([O-])[n-]c(=O)[n-]c2=O)cc(C)n1Cc1cnc(C#N)cc1F

> <Energy>
84.05871746446759

> <Genealogy>
C=c1c(=Cc2c([O-])[n-]c(=O)[n-]c2=O)cc(C)n1Cc1cnc(C#N)cc1F (protonated)
C=c1c(=Cc2c([O-])[n-]c(=O)[n-]c2=O)cc(C)n1Cc1cnc(C#N)cc1F (3D coordinates assigned)
C=c1c(=Cc2c([O-])[n-]c(=O)[n-]c2=O)cc(C)n1Cc1cnc(C#N)cc1F (optimized conformer: 84.05871746446759 kcal/mol)

> <smiles>
C=c1c(=Cc2c(O)[nH]c(=O)[nH]c2=O)cc(C)n1Cc1cnc(C#N)cc1F

> <score_type>
oracle

> <origin>
adg

> <m_score__min__energy>
-15.369999999999999

> <m_primary>
energy

> <minimizedAffinity>
-7.75233

> <minimizedRMSD>
1.21987

> <CNNscore>
0.5322259665

> <CNNaffinity>
6.9734725952

> <CNN_VS>
3.7114632130

> <CNNaffinity_variance>
0.0590616651

$$$$
68:0


 22 23  0  0  0  0  0  0  0  0999 V2000
   57.3049   33.6602   45.4201 C   0  0  0  0  0  0  0  0  0  0  0  0
   58.5885   34.2870   45.8966 C   0  0  0  0  0  0  0  0  0  0  0  0
   59.3354   34.8379   45.0461 O   0  0  0  0  0  0  0  0  0  0  0  0
   62.4496   33.2244   47.4160 C   0  0  0  0  0  0  0  0  0  0  0  0
   61.2174   33.5320   46.9308 N   0  0  0  0  0  0  0  0  0  0  0  0
   60.2063   33.9588   47.7400 C   0  0  0  0  0  0  0  0  0  0  0  0
   59.0273   34.2460   47.2665 N   0  0  0  0  0  0  0  0  0  0  0  0
   60.4334   34.0724   49.1171 C   0  0  0  0  0  0  0  0  0  0  0  0
   61.6922   33.7631   49.6372 C   0  0  0  0  0  0  0  0  0  0  0  0
   62.7114   33.3369   48.7834 C   0  0  0  0  0  0  0  0  0  0  0  0
   64.2989   32.9476   49.4182 Cl  0  0  0  0  0  0  0  0  0  0  0  0
   57.3401   32.2436   45.5881 O   0  0  0  0  0  0  0  0  0  0  0  0
   57.8715   31.3653   44.6353 C   0  0  0  0  0  0  0  0  0  0  0  0
   57.9954   31.7433   43.4366 O   0  0  0  0  0  0  0  0  0  0  0  0
   58.2914   29.9952   45.0282 C   0  0  0  0  0  0  0  0  0  0  0  0
   59.6573   29.7182   45.2311 C   0  0  0  0  0  0  0  0  0  0  0  0
   60.0777   28.4396   45.6067 C   0  0  0  0  0  0  0  0  0  0  0  0
   59.1440   27.4197   45.7867 C   0  0  0  0  0  0  0  0  0  0  0  0
   57.7849   27.6745   45.5913 C   0  0  0  0  0  0  0  0  0  0  0  0
   56.8601   26.6523   45.7751 O   0  0  0  0  0  0  0  0  0  0  0  0
   57.3516   28.9540   45.2145 C   0  0  0  0  0  0  0  0  0  0  0  0
   55.9902   29.1719   45.0290 O   0  0  0  0  0  0  0  0  0  0  0  0
  4  5  1  0
  5  6  1  0
  6  7  2  0
  7  2  1  0
  2  3  2  0
  2  1  1  0
  1 12  1  0
 12 13  1  0
 13 14  2  0
 13 15  1  0
 15 16  2  0
 16 17  1  0
 17 18  2  0
 18 19  1  0
 19 20  1  0
 19 21  2  0
 21 22  1  0
  6  8  1  0
  8  9  2  0
  9 10  1  0
 10 11  1  0
 10  4  2  0
 21 15  1  0
M  CHG 1   5  -1
M  CHG 1  20  -1
M  CHG 1  22  -1
M  END
> <UniqueID>
64

> <SMILES>
O=C(COC(=O)c1cccc([O-])c1[O-])/N=c1/ccc(Cl)c[n-]1

> <Energy>
35.8300682556132

> <Genealogy>
O=C(COC(=O)c1cccc([O-])c1[O-])N=c1ccc(Cl)c[n-]1 (protonated)
O=C(COC(=O)c1cccc([O-])c1[O-])/N=c1/ccc(Cl)c[n-]1 (cis-trans isomerization)
O=C(COC(=O)c1cccc([O-])c1[O-])/N=c1/ccc(Cl)c[n-]1 (3D coordinates assigned)
O=C(COC(=O)c1cccc([O-])c1[O-])/N=c1/ccc(Cl)c[n-]1 (optimized conformer: 35.8300682556132 kcal/mol)

> <smiles>
O=C(COC(=O)c1cccc(O)c1O)N=c1ccc(Cl)c[nH]1

> <score_type>
oracle

> <origin>
adg

> <m_score__min__energy>
-15.65

> <m_primary>
energy

> <minimizedAffinity>
-7.82182

> <minimizedRMSD>
1.01720

> <CNNscore>
0.7495499849

> <CNNaffinity>
6.0478768349

> <CNN_VS>
4.5331859589

> <CNNaffinity_variance>
0.0351882912

$$$$
79:0


 32 35  0  0  0  0  0  0  0  0999 V2000
   59.6896   30.6551   47.5900 C   0  0  0  0  0  0  0  0  0  0  0  0
   60.1384   29.7544   48.5709 C   0  0  0  0  0  0  0  0  0  0  0  0
   60.4279   30.1982   49.8681 C   0  0  0  0  0  0  0  0  0  0  0  0
   60.2702   31.5528   50.1865 C   0  0  0  0  0  0  0  0  0  0  0  0
   59.8520   32.4589   49.2091 C   0  0  0  0  0  0  0  0  0  0  0  0
   59.5713   32.0195   47.9117 C   0  0  0  0  0  0  0  0  0  0  0  0
   59.1498   32.9715   46.9254 N   0  0  0  0  0  0  0  0  0  0  0  0
   60.1559   33.7900   46.2497 C   0  0  0  0  0  0  0  0  0  0  0  0
   59.6018   34.2787   44.9077 C   0  0  0  0  0  0  0  0  0  0  0  0
   58.3397   34.8969   45.0801 O   0  0  0  0  0  0  0  0  0  0  0  0
   57.3953   33.9406   45.5235 C   0  0  0  0  0  0  0  0  0  0  0  0
   57.7580   33.4235   46.9187 C   0  0  0  0  0  0  0  0  0  0  0  0
   61.0019   29.0566   51.0877 S   0  0  0  0  0  0  0  0  0  0  0  0
   60.8064   27.6537   50.5834 O   0  0  0  0  0  0  0  0  0  0  0  0
   62.4738   29.2694   51.3101 O   0  0  0  0  0  0  0  0  0  0  0  0
   60.1502   29.2478   52.6034 N   0  0  0  0  0  0  0  0  0  0  0  0
   58.6947   29.3074   52.3740 C   0  0  0  0  0  0  0  0  0  0  0  0
   57.9272   28.9628   53.6606 C   0  0  0  0  0  0  0  0  0  0  0  0
   58.2024   27.6621   54.1699 O   0  0  0  0  0  0  0  0  0  0  0  0
   59.4520   27.1341   53.7496 C   0  0  0  0  0  0  0  0  0  0  0  0
   60.5413   28.2100   53.5833 C   0  0  0  0  0  0  0  0  0  0  0  0
   59.4101   30.2210   46.2496 N   0  0  0  0  0  0  0  0  0  0  0  0
   57.4482   31.0162   45.3014 O   0  0  0  0  0  0  0  0  0  0  0  0
   58.1093   30.0169   45.6905 C   0  0  0  0  0  0  0  0  0  0  0  0
   57.4998   28.7181   45.7237 N   0  0  0  0  0  0  0  0  0  0  0  0
   58.0527   27.5631   45.9738 C   0  0  0  0  0  0  0  0  0  0  0  0
   59.4117   27.4903   45.9224 N   0  0  0  0  0  0  0  0  0  0  0  0
   60.0944   26.3414   46.1619 C   0  0  0  0  0  0  0  0  0  0  0  0
   59.4043   25.1715   46.4700 C   0  0  0  0  0  0  0  0  0  0  0  0
   58.0113   25.1938   46.5073 C   0  0  0  0  0  0  0  0  0  0  0  0
   57.3190   26.3786   46.2445 C   0  0  0  0  0  0  0  0  0  0  0  0
   55.9302   26.3365   46.2134 O   0  0  0  0  0  0  0  0  0  0  0  0
 23 24  2  0
 24 25  1  0
 25 26  2  0
 26 27  1  0
 27 28  1  0
 28 29  2  0
 29 30  1  0
 30 31  2  0
 31 32  1  0
 24 22  1  0
 22  1  1  0
  1  2  2  0
  2  3  1  0
  3 13  1  0
 13 14  2  0
 13 15  2  0
 13 16  1  0
 16 17  1  0
 17 18  1  0
 18 19  1  0
 19 20  1  0
 20 21  1  0
  3  4  2  0
  4  5  1  0
  5  6  2  0
  6  7  1  0
  7  8  1  0
  8  9  1  0
  9 10  1  0
 10 11  1  0
 11 12  1  0
 31 26  1  0
  6  1  1  0
 12  7  1  0
 21 16  1  0
M  CHG 1  22  -1
M  CHG 1  27  -1
M  CHG 1  32  -1
M  END
> <UniqueID>
75

> <SMILES>
O=C(N=c1[n-]cccc1[O-])[N-]c1cc(S(=O)(=O)N2CCOCC2)ccc1N1CCOCC1

> <Energy>
89.59982674897626

> <Genealogy>
O=C(N=c1[n-]cccc1[O-])[N-]c1cc(S(=O)(=O)N2CCOCC2)ccc1N1CCOCC1 (protonated)
O=C(N=c1[n-]cccc1[O-])[N-]c1cc(S(=O)(=O)N2CCOCC2)ccc1N1CCOCC1 (3D coordinates assigned)
O=C(N=c1[n-]cccc1[O-])[N-]c1cc(S(=O)(=O)N2CCOCC2)ccc1N1CCOCC1 (nonaromatic ring conformer: 89.59982674897626 kcal/mol)

> <smiles>
O=C(N=c1[nH]cccc1O)Nc1cc(S(=O)(=O)N2CCOCC2)ccc1N1CCOCC1

> <score_type>
oracle

> <origin>
adg

> <m_score__min__energy>
-14.27

> <m_primary>
energy

> <minimizedAffinity>
-6.17713

> <minimizedRMSD>
0.76767

> <CNNscore>
0.2555262148

> <CNNaffinity>
6.5106315613

> <CNN_VS>
1.6636370420

> <CNNaffinity_variance>
0.0764945224

$$$$
80:0


 29 31  0  0  0  0  0  0  0  0999 V2000
   60.4484   30.3106   50.6850 N   0  0  0  0  0  0  0  0  0  0  0  0
   60.0305   29.7890   51.8006 C   0  0  0  0  0  0  0  0  0  0  0  0
   58.7298   29.5944   52.1084 N   0  0  0  0  0  0  0  0  0  0  0  0
   58.5807   29.0501   53.3447 C   0  0  0  0  0  0  0  0  0  0  0  0
   59.7735   28.8235   54.0320 C   0  0  0  0  0  0  0  0  0  0  0  0
   61.0475   29.3210   53.0493 S   0  0  0  0  0  0  0  0  0  0  0  0
   57.2522   28.7175   53.8889 C   0  0  0  0  0  0  0  0  0  0  0  0
   56.9291   27.5098   54.0490 O   0  0  0  0  0  0  0  0  0  0  0  0
   56.3256   29.7613   54.2318 N   0  0  0  0  0  0  0  0  0  0  0  0
   56.6231   30.6980   54.1744 H   0  0  0  0  0  0  0  0  0  0  0  0
   54.9592   29.4817   54.6620 C   0  0  0  0  0  0  0  0  0  0  0  0
   53.9758   30.0247   53.6559 C   0  0  0  0  0  0  0  0  0  0  0  0
   54.3545   30.1891   52.3148 C   0  0  0  0  0  0  0  0  0  0  0  0
   53.4518   30.7200   51.3913 C   0  0  0  0  0  0  0  0  0  0  0  0
   52.1743   31.0873   51.8177 C   0  0  0  0  0  0  0  0  0  0  0  0
   51.2637   31.6175   50.9141 O   0  0  0  0  0  0  0  0  0  0  0  0
   51.8199   30.9297   53.1208 N   0  0  0  0  0  0  0  0  0  0  0  0
   52.6784   30.4149   54.0411 C   0  0  0  0  0  0  0  0  0  0  0  0
   52.3002   30.2931   55.2373 O   0  0  0  0  0  0  0  0  0  0  0  0
   60.2017   31.6557   50.2390 C   0  0  0  0  0  0  0  0  0  0  0  0
   59.3589   32.3506   50.8646 O   0  0  0  0  0  0  0  0  0  0  0  0
   60.2583   32.7918   47.9928 C   0  0  0  0  0  0  0  0  0  0  0  0
   60.9962   33.3726   46.9420 C   0  0  0  0  0  0  0  0  0  0  0  0
   62.3904   33.4263   47.0011 C   0  0  0  0  0  0  0  0  0  0  0  0
   63.0654   32.9073   48.1057 C   0  0  0  0  0  0  0  0  0  0  0  0
   62.3469   32.3357   49.1584 C   0  0  0  0  0  0  0  0  0  0  0  0
   60.9444   32.2641   49.1095 C   0  0  0  0  0  0  0  0  0  0  0  0
   58.0449   33.2408   46.9096 C   0  0  0  0  0  0  0  0  0  0  0  0
   58.8555   32.7093   47.9530 O   0  0  0  0  0  0  0  0  0  0  0  0
 28 29  1  0
 29 22  1  0
 22 23  2  0
 23 24  1  0
 24 25  2  0
 25 26  1  0
 26 27  2  0
 27 20  1  0
 20 21  2  0
 20  1  1  0
  1  2  2  0
  2  3  1  0
  3  4  1  0
  4  7  1  0
  7  8  2  0
  7  9  1  0
  9 11  1  0
 11 12  1  0
 12 13  2  0
 13 14  1  0
 14 15  2  0
 15 16  1  0
 15 17  1  0
 17 18  1  0
 18 19  2  0
  4  5  2  0
  5  6  1  0
 27 22  1  0
  6  2  1  0
 18 12  1  0
  9 10  1  0
M  CHG 1   3  -1
M  CHG 1  16  -1
M  CHG 1  17  -1
M  END
> <UniqueID>
76

> <SMILES>
COc1ccccc1C(=O)N=c1[n-]c(C(=O)NCc2ccc([O-])[n-]c2=O)cs1

> <Energy>
77.97141069133225

> <Genealogy>
COc1ccccc1C(=O)N=c1[n-]c(C(=O)NCc2ccc([O-])[n-]c2=O)cs1 (protonated)
COc1ccccc1C(=O)N=c1[n-]c(C(=O)NCc2ccc([O-])[n-]c2=O)cs1 (3D coordinates assigned)
COc1ccccc1C(=O)N=c1[n-]c(C(=O)NCc2ccc([O-])[n-]c2=O)cs1 (optimized conformer: 77.97141069133225 kcal/mol)

> <smiles>
COc1ccccc1C(=O)N=c1[nH]c(C(=O)NCc2ccc(O)[nH]c2=O)cs1

> <score_type>
oracle

> <origin>
adg

> <m_score__min__energy>
-15.630000000000001

> <m_primary>
energy

> <minimizedAffinity>
-6.15655

> <minimizedRMSD>
1.89471

> <CNNscore>
0.2265636027

> <CNNaffinity>
5.4290165901

> <CNN_VS>
1.2300175428

> <CNNaffinity_variance>
0.0477458127

$$$$
86:0


 34 37  0  0  0  0  0  0  0  0999 V2000
   58.6904   31.5360   45.8403 C   0  0  0  0  0  0  0  0  0  0  0  0
   58.6193   32.3380   44.6930 C   0  0  0  0  0  0  0  0  0  0  0  0
   58.4665   33.7214   44.8100 C   0  0  0  0  0  0  0  0  0  0  0  0
   58.3876   34.3131   46.0729 C   0  0  0  0  0  0  0  0  0  0  0  0
   58.4573   33.5219   47.2238 C   0  0  0  0  0  0  0  0  0  0  0  0
   58.6110   32.1308   47.1194 C   0  0  0  0  0  0  0  0  0  0  0  0
   56.8757   29.5666   44.6019 C   0  0  0  0  0  0  0  0  0  0  0  0
   58.0556   29.2218   45.1410 C   0  0  0  0  0  0  0  0  0  0  0  0
   58.6675   27.9569   45.1298 C   0  0  0  0  0  0  0  0  0  0  0  0
   58.2085   26.7560   44.7312 C   0  0  0  0  0  0  0  0  0  0  0  0
   59.9383   28.1368   45.6572 C   0  0  0  0  0  0  0  0  0  0  0  0
   60.0438   29.4676   46.0039 C   0  0  0  0  0  0  0  0  0  0  0  0
   61.2266   30.0854   46.6856 C   0  0  0  0  0  0  0  0  0  0  0  0
   58.9046   30.1219   45.6977 N   0  0  0  0  0  0  0  0  0  0  0  0
   57.6469   25.7191   45.6107 C   0  0  0  0  0  0  0  0  0  0  0  0
   58.2474   24.5427   45.8769 N   0  0  0  0  0  0  0  0  0  0  0  0
   57.3187   23.8735   46.5905 C   0  0  0  0  0  0  0  0  0  0  0  0
   57.5159   22.7150   47.0431 O   0  0  0  0  0  0  0  0  0  0  0  0
   56.1576   24.5373   46.7736 N   0  0  0  0  0  0  0  0  0  0  0  0
   56.3760   25.6991   46.1358 C   0  0  0  0  0  0  0  0  0  0  0  0
   55.4280   26.7152   46.0462 O   0  0  0  0  0  0  0  0  0  0  0  0
   54.5847   26.6053   46.4397 H   0  0  0  0  0  0  0  0  0  0  0  0
   58.6522   31.3074   48.3452 C   0  0  0  0  0  0  0  0  0  0  0  0
   58.7186   30.0547   48.2448 O   0  0  0  0  0  0  0  0  0  0  0  0
   58.6401   31.8944   49.6499 N   0  0  0  0  0  0  0  0  0  0  0  0
   59.6520   31.6561   50.6726 C   0  0  0  0  0  0  0  0  0  0  0  0
   60.9908   32.1274   50.1720 C   0  0  0  0  0  0  0  0  0  0  0  0
   61.1213   33.4200   49.6333 C   0  0  0  0  0  0  0  0  0  0  0  0
   62.3579   33.8646   49.1592 C   0  0  0  0  0  0  0  0  0  0  0  0
   63.4733   33.0295   49.2228 C   0  0  0  0  0  0  0  0  0  0  0  0
   63.3594   31.7466   49.7620 C   0  0  0  0  0  0  0  0  0  0  0  0
   62.1185   31.2844   50.2461 C   0  0  0  0  0  0  0  0  0  0  0  0
   61.9741   30.0049   50.8111 O   0  0  0  0  0  0  0  0  0  0  0  0
   61.1836   28.9594   50.2569 C   0  0  0  0  0  0  0  0  0  0  0  0
  7  8  2  0
  8  9  1  0
  9 10  2  0
 10 15  1  0
 15 16  1  0
 16 17  1  0
 17 18  2  0
 17 19  1  0
 19 20  1  0
 20 21  1  0
  9 11  1  0
 11 12  2  0
 12 13  1  0
 12 14  1  0
 14  1  1  0
  1  2  2  0
  2  3  1  0
  3  4  2  0
  4  5  1  0
  5  6  2  0
  6 23  1  0
 23 24  2  0
 23 25  1  0
 25 26  1  0
 26 27  1  0
 27 28  2  0
 28 29  1  0
 29 30  2  0
 30 31  1  0
 31 32  2  0
 32 33  1  0
 33 34  1  0
 14  8  1  0
  6  1  1  0
 32 27  1  0
 20 15  2  0
 21 22  1  0
M  CHG 1  16  -1
M  CHG 1  19  -1
M  CHG 1  25  -1
M  END
> <UniqueID>
81

> <SMILES>
C=c1c(=Cc2[n-]c(=O)[n-]c2O)cc(C)n1-c1ccccc1C(=O)[N-]Cc1ccccc1OC

> <Energy>
133.56360625644786

> <Genealogy>
C=c1c(=Cc2[n-]c(=O)[n-]c2O)cc(C)n1-c1ccccc1C(=O)[N-]Cc1ccccc1OC (protonated)
C=c1c(=Cc2[n-]c(=O)[n-]c2O)cc(C)n1-c1ccccc1C(=O)[N-]Cc1ccccc1OC (3D coordinates assigned)
C=c1c(=Cc2[n-]c(=O)[n-]c2O)cc(C)n1-c1ccccc1C(=O)[N-]Cc1ccccc1OC (optimized conformer: 133.56360625644786 kcal/mol)

> <smiles>
C=c1c(=Cc2[nH]c(=O)[nH]c2O)cc(C)n1-c1ccccc1C(=O)NCc1ccccc1OC

> <score_type>
oracle

> <origin>
adg

> <m_score__min__energy>
-14.92

> <m_primary>
energy

> <minimizedAffinity>
-8.39144

> <minimizedRMSD>
0.72743

> <CNNscore>
0.7448475957

> <CNNaffinity>
7.2961220741

> <CNN_VS>
5.4344987869

> <CNNaffinity_variance>
0.1163543984

$$$$
92:0


 32 34  0  0  0  0  0  0  0  0999 V2000
   61.2909   31.4215   48.4990 C   0  0  0  0  0  0  0  0  0  0  0  0
   62.3138   31.7306   47.8326 O   0  0  0  0  0  0  0  0  0  0  0  0
   60.2545   30.6302   47.9032 N   0  0  0  0  0  0  0  0  0  0  0  0
   59.4370   30.4522   48.4222 H   0  0  0  0  0  0  0  0  0  0  0  0
   63.3591   30.8563   50.8640 C   0  0  0  0  0  0  0  0  0  0  0  0
   62.0766   31.6193   50.9378 C   0  0  0  0  0  0  0  0  0  0  0  0
   61.6292   32.2049   52.0654 N   0  0  0  0  0  0  0  0  0  0  0  0
   60.4747   32.7876   51.7852 N   0  0  0  0  0  0  0  0  0  0  0  0
   59.7231   33.5743   52.7581 C   0  0  0  0  0  0  0  0  0  0  0  0
   60.1737   32.6126   50.4794 C   0  0  0  0  0  0  0  0  0  0  0  0
   61.1836   31.8583   49.9014 C   0  0  0  0  0  0  0  0  0  0  0  0
   58.9834   33.2186   49.7799 C   0  0  0  0  0  0  0  0  0  0  0  0
   59.4065   34.1232   48.7590 O   0  0  0  0  0  0  0  0  0  0  0  0
   59.0907   34.0135   47.3957 C   0  0  0  0  0  0  0  0  0  0  0  0
   59.7868   34.7206   46.3945 C   0  0  0  0  0  0  0  0  0  0  0  0
   59.4144   34.5893   45.0529 C   0  0  0  0  0  0  0  0  0  0  0  0
   58.3587   33.7457   44.6982 C   0  0  0  0  0  0  0  0  0  0  0  0
   57.6710   33.0332   45.6838 C   0  0  0  0  0  0  0  0  0  0  0  0
   58.0382   33.1659   47.0264 C   0  0  0  0  0  0  0  0  0  0  0  0
   60.3649   30.0783   46.5560 C   0  0  0  0  0  0  0  0  0  0  0  0
   59.8869   28.6455   46.5401 C   0  0  0  0  0  0  0  0  0  0  0  0
   60.8156   27.6147   46.7481 C   0  0  0  0  0  0  0  0  0  0  0  0
   60.4170   26.2799   46.6717 C   0  0  0  0  0  0  0  0  0  0  0  0
   59.0903   25.9576   46.3856 C   0  0  0  0  0  0  0  0  0  0  0  0
   58.1419   26.9758   46.1816 C   0  0  0  0  0  0  0  0  0  0  0  0
   58.5450   28.3189   46.2603 C   0  0  0  0  0  0  0  0  0  0  0  0
   57.6050   29.3245   46.0510 O   0  0  0  0  0  0  0  0  0  0  0  0
   56.7677   26.6871   45.8872 N   0  0  0  0  0  0  0  0  0  0  0  0
   56.0001   25.1380   46.0190 S   0  0  0  0  0  0  0  0  0  0  0  0
   56.5722   24.0639   44.7178 C   0  0  0  0  0  0  0  0  0  0  0  0
   56.2860   24.5320   47.3645 O   0  0  0  0  0  0  0  0  0  0  0  0
   54.5141   25.3210   45.8774 O   0  0  0  0  0  0  0  0  0  0  0  0
  5  6  1  0
  6  7  2  0
  7  8  1  0
  8  9  1  0
  8 10  1  0
 10 12  1  0
 12 13  1  0
 13 14  1  0
 14 15  2  0
 15 16  1  0
 16 17  2  0
 17 18  1  0
 18 19  2  0
 10 11  2  0
 11  1  1  0
  1  2  2  0
  1  3  1  0
  3 20  1  0
 20 21  1  0
 21 22  2  0
 22 23  1  0
 23 24  2  0
 24 25  1  0
 25 28  1  0
 28 29  1  0
 29 30  1  0
 29 31  2  0
 29 32  2  0
 25 26  2  0
 26 27  1  0
 11  6  1  0
 26 21  1  0
 19 14  1  0
  3  4  1  0
M  CHG 1  27  -1
M  CHG 1  28  -1
M  END
> <UniqueID>
87

> <SMILES>
Cc1nn(C)c(COc2ccccc2)c1C(=O)NCc1cccc([N-]S(C)(=O)=O)c1[O-]

> <Energy>
81.6488776917495

> <Genealogy>
Cc1nn(C)c(COc2ccccc2)c1C(=O)NCc1cccc([N-]S(C)(=O)=O)c1[O-] (protonated)
Cc1nn(C)c(COc2ccccc2)c1C(=O)NCc1cccc([N-]S(C)(=O)=O)c1[O-] (3D coordinates assigned)
Cc1nn(C)c(COc2ccccc2)c1C(=O)NCc1cccc([N-]S(C)(=O)=O)c1[O-] (optimized conformer: 81.6488776917495 kcal/mol)

> <smiles>
Cc1nn(C)c(COc2ccccc2)c1C(=O)NCc1cccc(NS(C)(=O)=O)c1O

> <score_type>
oracle

> <origin>
adg

> <m_score__min__energy>
-14.800000000000001

> <m_primary>
energy

> <minimizedAffinity>
-7.54631

> <minimizedRMSD>
2.09567

> <CNNscore>
0.5730443001

> <CNNaffinity>
6.9375052452

> <CNN_VS>
3.9754977226

> <CNNaffinity_variance>
0.1475247890

$$$$
8:0


 24 26  0  0  0  0  0  0  0  0999 V2000
   54.9755   28.6188   54.7872 N   0  0  0  0  0  0  0  0  0  0  0  0
   53.9955   29.4798   54.8662 C   0  0  0  0  0  0  0  0  0  0  0  0
   53.5582   29.7813   56.1181 N   0  0  0  0  0  0  0  0  0  0  0  0
   52.4586   30.5348   56.3589 C   0  0  0  0  0  0  0  0  0  0  0  0
   51.7033   31.0232   55.3018 C   0  0  0  0  0  0  0  0  0  0  0  0
   52.1396   30.8176   53.9852 C   0  0  0  0  0  0  0  0  0  0  0  0
   51.4232   31.3801   52.9081 C   0  0  0  0  0  0  0  0  0  0  0  0
   50.2223   32.0512   53.1222 O   0  0  0  0  0  0  0  0  0  0  0  0
   51.9229   31.2792   51.6071 C   0  0  0  0  0  0  0  0  0  0  0  0
   51.2157   31.8256   50.5420 O   0  0  0  0  0  0  0  0  0  0  0  0
   53.1444   30.6533   51.3755 C   0  0  0  0  0  0  0  0  0  0  0  0
   53.8590   30.0857   52.4315 C   0  0  0  0  0  0  0  0  0  0  0  0
   53.3362   30.0823   53.7452 C   0  0  0  0  0  0  0  0  0  0  0  0
   56.3895   28.8313   54.6996 C   0  0  0  0  0  0  0  0  0  0  0  0
   57.0522   28.2084   53.8289 O   0  0  0  0  0  0  0  0  0  0  0  0
   57.0569   29.9154   55.4985 C   0  0  0  0  0  0  0  0  0  0  0  0
   59.0489   33.9349   51.9745 O   0  0  0  0  0  0  0  0  0  0  0  0
   58.5516   32.9547   52.8302 C   0  0  0  0  0  0  0  0  0  0  0  0
   57.4863   32.1358   52.4361 C   0  0  0  0  0  0  0  0  0  0  0  0
   56.9962   31.1556   53.3047 C   0  0  0  0  0  0  0  0  0  0  0  0
   57.5624   30.9919   54.5802 C   0  0  0  0  0  0  0  0  0  0  0  0
   58.6387   31.8069   54.9649 C   0  0  0  0  0  0  0  0  0  0  0  0
   59.1266   32.7879   54.0951 C   0  0  0  0  0  0  0  0  0  0  0  0
   58.6691   34.0527   51.1261 H   0  0  0  0  0  0  0  0  0  0  0  0
 17 18  1  0
 18 19  2  0
 19 20  1  0
 20 21  2  0
 21 16  1  0
 16 14  1  0
 14 15  2  0
 14  1  1  0
  1  2  2  0
  2  3  1  0
  3  4  1  0
  4  5  2  0
  5  6  1  0
  6  7  2  0
  7  8  1  0
  7  9  1  0
  9 10  1  0
  9 11  2  0
 11 12  1  0
 12 13  2  0
 21 22  1  0
 22 23  2  0
 23 18  1  0
 13  2  1  0
 13  6  1  0
 17 24  1  0
M  CHG 1   3  -1
M  CHG 1   8  -1
M  CHG 1  10  -1
M  END
> <UniqueID>
9

> <SMILES>
O=C(Cc1ccc(O)cc1)/N=c1/[n-]ccc2c([O-])c([O-])ccc12

> <Energy>
60.46613359442825

> <Genealogy>
O=C(Cc1ccc(O)cc1)N=c1[n-]ccc2c([O-])c([O-])ccc12 (protonated)
O=C(Cc1ccc(O)cc1)/N=c1/[n-]ccc2c([O-])c([O-])ccc12 (cis-trans isomerization)
O=C(Cc1ccc(O)cc1)/N=c1/[n-]ccc2c([O-])c([O-])ccc12 (3D coordinates assigned)
O=C(Cc1ccc(O)cc1)/N=c1/[n-]ccc2c([O-])c([O-])ccc12 (optimized conformer: 60.46613359442825 kcal/mol)

> <smiles>
O=C(Cc1ccc(O)cc1)N=c1[nH]ccc2c(O)c(O)ccc12

> <score_type>
oracle

> <origin>
adg

> <m_score__min__energy>
-15.34

> <m_primary>
energy

> <minimizedAffinity>
-5.67120

> <minimizedRMSD>
1.21015

> <CNNscore>
0.2521874011

> <CNNaffinity>
4.5312323570

> <CNN_VS>
1.1427197456

> <CNNaffinity_variance>
0.2695328891

$$$$
12:0


 38 41  0  0  0  0  0  0  0  0999 V2000
   57.8433   32.3738   42.1516 C   0  0  0  0  0  0  0  0  0  0  0  0
   58.0372   31.9846   43.5615 N   0  0  0  0  0  0  0  0  0  0  0  0
   58.5056   32.8988   44.4615 C   0  0  0  0  0  0  0  0  0  0  0  0
   58.7679   34.0779   44.0878 O   0  0  0  0  0  0  0  0  0  0  0  0
   58.7017   32.5355   45.7993 C   0  0  0  0  0  0  0  0  0  0  0  0
   59.2175   33.4565   46.7300 C   0  0  0  0  0  0  0  0  0  0  0  0
   59.4402   33.0806   48.0504 C   0  0  0  0  0  0  0  0  0  0  0  0
   59.1716   31.7740   48.4702 C   0  0  0  0  0  0  0  0  0  0  0  0
   58.6374   30.8564   47.5507 C   0  0  0  0  0  0  0  0  0  0  0  0
   58.3742   31.2210   46.2049 C   0  0  0  0  0  0  0  0  0  0  0  0
   57.8117   30.3463   45.2928 N   0  0  0  0  0  0  0  0  0  0  0  0
   57.6678   30.7309   43.9778 C   0  0  0  0  0  0  0  0  0  0  0  0
   57.1830   29.9199   43.1369 O   0  0  0  0  0  0  0  0  0  0  0  0
   59.4358   31.3731   49.8729 C   0  0  0  0  0  0  0  0  0  0  0  0
   60.0859   32.1433   50.6309 O   0  0  0  0  0  0  0  0  0  0  0  0
   59.0082   30.0892   50.3537 N   0  0  0  0  0  0  0  0  0  0  0  0
   58.8793   29.3698   49.6941 H   0  0  0  0  0  0  0  0  0  0  0  0
   58.7563   29.7869   51.7373 C   0  0  0  0  0  0  0  0  0  0  0  0
   59.7919   29.4109   52.6087 C   0  0  0  0  0  0  0  0  0  0  0  0
   59.5229   29.1584   53.9556 C   0  0  0  0  0  0  0  0  0  0  0  0
   58.2239   29.2887   54.4491 C   0  0  0  0  0  0  0  0  0  0  0  0
   57.1754   29.6837   53.6000 C   0  0  0  0  0  0  0  0  0  0  0  0
   57.4557   29.9375   52.2443 C   0  0  0  0  0  0  0  0  0  0  0  0
   55.7940   29.8369   54.1255 C   0  0  0  0  0  0  0  0  0  0  0  0
   55.5552   29.8605   55.5127 C   0  0  0  0  0  0  0  0  0  0  0  0
   54.2548   30.0081   56.0041 C   0  0  0  0  0  0  0  0  0  0  0  0
   53.1809   30.1321   55.1213 C   0  0  0  0  0  0  0  0  0  0  0  0
   53.4034   30.1086   53.7411 C   0  0  0  0  0  0  0  0  0  0  0  0
   52.0534   30.2605   52.6319 Cl  0  0  0  0  0  0  0  0  0  0  0  0
   54.7040   29.9629   53.2449 C   0  0  0  0  0  0  0  0  0  0  0  0
   57.3422   28.9886   45.6732 C   0  0  0  0  0  0  0  0  0  0  0  0
   58.5004   27.9837   45.7253 C   0  0  0  0  0  0  0  0  0  0  0  0
   58.2533   26.9474   46.7300 N   0  0  0  0  0  0  0  0  0  0  0  0
   57.2620   25.6679   46.0919 S   0  0  0  0  0  0  0  0  0  0  0  0
   55.5967   26.1320   46.1134 N   0  0  0  0  0  0  0  0  0  0  0  0
   57.6785   25.3484   44.6824 O   0  0  0  0  0  0  0  0  0  0  0  0
   57.4409   24.4411   46.9403 O   0  0  0  0  0  0  0  0  0  0  0  0
   55.4685   26.9650   45.5388 H   0  0  0  0  0  0  0  0  0  0  0  0
  1  2  1  0
  2  3  1  0
  3  4  2  0
  3  5  1  0
  5  6  2  0
  6  7  1  0
  7  8  2  0
  8 14  1  0
 14 15  2  0
 14 16  1  0
 16 18  1  0
 18 19  2  0
 19 20  1  0
 20 21  2  0
 21 22  1  0
 22 24  1  0
 24 25  2  0
 25 26  1  0
 26 27  2  0
 27 28  1  0
 28 29  1  0
 28 30  2  0
 22 23  2  0
  8  9  1  0
  9 10  2  0
 10 11  1  0
 11 31  1  0
 31 32  1  0
 32 33  1  0
 33 34  1  0
 34 35  1  0
 34 36  2  0
 34 37  2  0
 11 12  1  0
 12 13  2  0
 12  2  1  0
 10  5  1  0
 23 18  1  0
 30 24  1  0
 16 17  1  0
 35 38  1  0
M  CHG 1  33  -1
M  CHG 1  35  -1
M  END
> <UniqueID>
13

> <SMILES>
Cn1c(=O)c2ccc(C(=O)Nc3cccc(-c4cccc(Cl)c4)c3)cc2n(CC[N-]S([NH-])(=O)=O)c1=O

> <Energy>
82.02781548779284

> <Genealogy>
Cn1c(=O)c2ccc(C(=O)Nc3cccc(-c4cccc(Cl)c4)c3)cc2n(CC[N-]S([NH-])(=O)=O)c1=O (protonated)
Cn1c(=O)c2ccc(C(=O)Nc3cccc(-c4cccc(Cl)c4)c3)cc2n(CC[N-]S([NH-])(=O)=O)c1=O (3D coordinates assigned)
Cn1c(=O)c2ccc(C(=O)Nc3cccc(-c4cccc(Cl)c4)c3)cc2n(CC[N-]S([NH-])(=O)=O)c1=O (optimized conformer: 82.02781548779284 kcal/mol)

> <smiles>
Cn1c(=O)c2ccc(C(=O)Nc3cccc(-c4cccc(Cl)c4)c3)cc2n(CCNS(N)(=O)=O)c1=O

> <score_type>
oracle

> <origin>
adg

> <m_score__min__energy>
-14.720000000000001

> <m_primary>
energy

> <minimizedAffinity>
-7.36799

> <minimizedRMSD>
0.90281

> <CNNscore>
0.3189842403

> <CNNaffinity>
7.1883454323

> <CNN_VS>
2.2929689884

> <CNNaffinity_variance>
0.2369460315

$$$$
19:0


 28 30  0  0  0  0  0  0  0  0999 V2000
   58.1670   29.7408   45.2848 C   0  0  0  0  0  0  0  0  0  0  0  0
   58.9672   30.3680   46.2548 C   0  0  0  0  0  0  0  0  0  0  0  0
   59.0432   31.7625   46.3335 C   0  0  0  0  0  0  0  0  0  0  0  0
   58.3114   32.5437   45.4222 C   0  0  0  0  0  0  0  0  0  0  0  0
   57.5134   31.9294   44.4538 C   0  0  0  0  0  0  0  0  0  0  0  0
   57.4344   30.5352   44.3780 C   0  0  0  0  0  0  0  0  0  0  0  0
   56.4533   29.8234   43.1013 Cl  0  0  0  0  0  0  0  0  0  0  0  0
   58.3083   27.6670   44.1465 O   0  0  0  0  0  0  0  0  0  0  0  0
   58.1034   28.2656   45.2364 C   0  0  0  0  0  0  0  0  0  0  0  0
   57.8580   27.4585   46.4778 C   0  0  0  0  0  0  0  0  0  0  0  0
   57.7058   26.0130   46.1166 C   0  0  0  0  0  0  0  0  0  0  0  0
   58.7364   25.1665   45.9401 N   0  0  0  0  0  0  0  0  0  0  0  0
   58.1283   23.9839   45.7026 C   0  0  0  0  0  0  0  0  0  0  0  0
   58.7707   22.9242   45.4790 O   0  0  0  0  0  0  0  0  0  0  0  0
   56.7779   24.0236   45.7295 N   0  0  0  0  0  0  0  0  0  0  0  0
   56.5282   25.3154   45.9983 C   0  0  0  0  0  0  0  0  0  0  0  0
   55.2499   25.8429   46.1423 O   0  0  0  0  0  0  0  0  0  0  0  0
   59.8519   32.3311   47.3303 O   0  0  0  0  0  0  0  0  0  0  0  0
   59.4299   32.5795   48.6668 C   0  0  0  0  0  0  0  0  0  0  0  0
   60.0761   33.8697   49.1711 C   0  0  0  0  0  0  0  0  0  0  0  0
   61.1430   33.5976   50.2393 C   0  0  0  0  0  0  0  0  0  0  0  0
   62.4356   34.2178   49.8591 N   0  0  0  0  0  0  0  0  0  0  0  0
   62.9131   33.8017   48.5228 C   0  0  0  0  0  0  0  0  0  0  0  0
   63.5293   32.3878   48.5265 C   0  0  0  0  0  0  0  0  0  0  0  0
   64.5710   32.2562   49.5530 N   0  0  0  0  0  0  0  0  0  0  0  0
   64.0404   32.6041   50.8757 C   0  0  0  0  0  0  0  0  0  0  0  0
   63.4837   34.0354   50.8839 C   0  0  0  0  0  0  0  0  0  0  0  0
   65.3447   32.8813   49.3273 H   0  0  0  0  0  0  0  0  0  0  0  0
  8  9  2  0
  9 10  1  0
 10 11  1  0
 11 12  1  0
 12 13  1  0
 13 14  2  0
 13 15  1  0
 15 16  1  0
 16 17  1  0
  9  1  1  0
  1  2  2  0
  2  3  1  0
  3 18  1  0
 18 19  1  0
 19 20  1  0
 20 21  1  0
 21 22  1  0
 22 23  1  0
 23 24  1  0
 24 25  1  0
 25 26  1  0
 26 27  1  0
  3  4  2  0
  4  5  1  0
  5  6  2  0
  6  7  1  0
 16 11  2  0
  6  1  1  0
 27 22  1  0
 25 28  1  0
M  CHG 1  12  -1
M  CHG 1  15  -1
M  CHG 1  17  -1
M  END
> <UniqueID>
20

> <SMILES>
O=C(Cc1[n-]c(=O)[n-]c1[O-])c1cc(OCCCN2CCNCC2)ccc1Cl

> <Energy>
80.57282798531442

> <Genealogy>
O=C(Cc1[n-]c(=O)[n-]c1[O-])c1cc(OCCCN2CCNCC2)ccc1Cl (protonated)
O=C(Cc1[n-]c(=O)[n-]c1[O-])c1cc(OCCCN2CCNCC2)ccc1Cl (3D coordinates assigned)
O=C(Cc1[n-]c(=O)[n-]c1[O-])c1cc(OCCCN2CCNCC2)ccc1Cl (nonaromatic ring conformer: 80.57282798531442 kcal/mol)

> <smiles>
O=C(Cc1[nH]c(=O)[nH]c1O)c1cc(OCCCN2CCNCC2)ccc1Cl

> <score_type>
oracle

> <origin>
adg

> <m_score__min__energy>
-16.57

> <m_primary>
energy

> <minimizedAffinity>
-7.73551

> <minimizedRMSD>
1.65341

> <CNNscore>
0.2209799588

> <CNNaffinity>
6.2277951241

> <CNN_VS>
1.3762179613

> <CNNaffinity_variance>
0.0571480133

$$$$
87:0


 25 27  0  0  0  0  0  0  0  0999 V2000
   59.6486   29.7014   45.1397 C   0  0  0  0  0  0  0  0  0  0  0  0
   59.5641   29.5687   46.4722 C   0  0  0  0  0  0  0  0  0  0  0  0
   59.3875   28.3820   47.2019 C   0  0  0  0  0  0  0  0  0  0  0  0
   59.4571   27.0918   46.8229 C   0  0  0  0  0  0  0  0  0  0  0  0
   59.1374   28.7656   48.5115 C   0  0  0  0  0  0  0  0  0  0  0  0
   59.2307   30.1423   48.5489 C   0  0  0  0  0  0  0  0  0  0  0  0
   59.0916   30.9802   49.7817 C   0  0  0  0  0  0  0  0  0  0  0  0
   59.5092   30.6257   47.3200 N   0  0  0  0  0  0  0  0  0  0  0  0
   58.3334   26.1418   46.8081 C   0  0  0  0  0  0  0  0  0  0  0  0
   58.2759   25.0120   47.5382 N   0  0  0  0  0  0  0  0  0  0  0  0
   57.0242   24.5592   47.3106 C   0  0  0  0  0  0  0  0  0  0  0  0
   56.5863   23.4937   47.8173 O   0  0  0  0  0  0  0  0  0  0  0  0
   56.2735   25.3432   46.5074 N   0  0  0  0  0  0  0  0  0  0  0  0
   57.1145   26.3472   46.2109 C   0  0  0  0  0  0  0  0  0  0  0  0
   56.7722   27.4325   45.4151 O   0  0  0  0  0  0  0  0  0  0  0  0
   59.6274   32.0181   46.9815 C   0  0  0  0  0  0  0  0  0  0  0  0
   58.5164   32.6713   46.4295 C   0  0  0  0  0  0  0  0  0  0  0  0
   58.5723   34.0326   46.1300 C   0  0  0  0  0  0  0  0  0  0  0  0
   59.7365   34.7546   46.3840 C   0  0  0  0  0  0  0  0  0  0  0  0
   60.8514   34.1185   46.9320 C   0  0  0  0  0  0  0  0  0  0  0  0
   60.8205   32.7427   47.2357 C   0  0  0  0  0  0  0  0  0  0  0  0
   62.0341   32.0965   47.7984 C   0  0  0  0  0  0  0  0  0  0  0  0
   62.8053   31.4432   47.0415 O   0  0  0  0  0  0  0  0  0  0  0  0
   62.3201   32.1891   49.1637 O   0  0  0  0  0  0  0  0  0  0  0  0
   63.5820   32.6133   49.6622 C   0  0  0  0  0  0  0  0  0  0  0  0
  1  2  2  0
  2  3  1  0
  3  4  2  0
  4  9  1  0
  9 10  1  0
 10 11  1  0
 11 12  2  0
 11 13  1  0
 13 14  1  0
 14 15  1  0
  3  5  1  0
  5  6  2  0
  6  7  1  0
  6  8  1  0
  8 16  1  0
 16 17  2  0
 17 18  1  0
 18 19  2  0
 19 20  1  0
 20 21  2  0
 21 22  1  0
 22 23  2  0
 22 24  1  0
 24 25  1  0
  8  2  1  0
 21 16  1  0
 14  9  2  0
M  CHG 1  10  -1
M  CHG 1  13  -1
M  CHG 1  15  -1
M  END
> <UniqueID>
82

> <SMILES>
C=c1/c(=C\c2[n-]c(=O)[n-]c2[O-])cc(C)n1-c1ccccc1C(=O)OC

> <Energy>
115.69060343274087

> <Genealogy>
C=c1c(=Cc2[n-]c(=O)[n-]c2[O-])cc(C)n1-c1ccccc1C(=O)OC (protonated)
C=c1/c(=C\c2[n-]c(=O)[n-]c2[O-])cc(C)n1-c1ccccc1C(=O)OC (cis-trans isomerization)
C=c1/c(=C\c2[n-]c(=O)[n-]c2[O-])cc(C)n1-c1ccccc1C(=O)OC (3D coordinates assigned)
C=c1/c(=C\c2[n-]c(=O)[n-]c2[O-])cc(C)n1-c1ccccc1C(=O)OC (optimized conformer: 115.69060343274087 kcal/mol)

> <smiles>
C=c1c(=Cc2[nH]c(=O)[nH]c2O)cc(C)n1-c1ccccc1C(=O)OC

> <score_type>
oracle

> <origin>
adg

> <m_score__min__energy>
-15.26

> <m_primary>
energy

> <minimizedAffinity>
-7.07434

> <minimizedRMSD>
1.39285

> <CNNscore>
0.5574074388

> <CNNaffinity>
6.5342488289

> <CNN_VS>
3.6422388554

> <CNNaffinity_variance>
0.1511435658

$$$$
25:0


 40 44  0  0  0  0  0  0  0  0999 V2000
   60.0246   29.7640   46.6192 C   0  0  0  0  0  0  0  0  0  0  0  0
   61.1023   30.5051   47.1245 C   0  0  0  0  0  0  0  0  0  0  0  0
   60.9635   31.2454   48.2997 C   0  0  0  0  0  0  0  0  0  0  0  0
   59.7466   31.2526   49.0098 C   0  0  0  0  0  0  0  0  0  0  0  0
   58.6730   30.4882   48.5076 C   0  0  0  0  0  0  0  0  0  0  0  0
   58.8118   29.7569   47.3250 C   0  0  0  0  0  0  0  0  0  0  0  0
   59.6374   32.0553   50.2630 C   0  0  0  0  0  0  0  0  0  0  0  0
   59.3470   33.2804   50.1784 O   0  0  0  0  0  0  0  0  0  0  0  0
   59.8282   31.4720   51.5659 N   0  0  0  0  0  0  0  0  0  0  0  0
   59.7518   30.4949   51.6595 H   0  0  0  0  0  0  0  0  0  0  0  0
   60.1263   32.2549   52.7392 C   0  0  0  0  0  0  0  0  0  0  0  0
   59.1109   32.5805   53.6594 C   0  0  0  0  0  0  0  0  0  0  0  0
   59.3902   33.3814   54.7699 C   0  0  0  0  0  0  0  0  0  0  0  0
   60.6761   33.8815   54.9675 C   0  0  0  0  0  0  0  0  0  0  0  0
   61.6897   33.5843   54.0558 C   0  0  0  0  0  0  0  0  0  0  0  0
   61.4266   32.7735   52.9371 C   0  0  0  0  0  0  0  0  0  0  0  0
   62.4868   32.4653   52.0168 N   0  0  0  0  0  0  0  0  0  0  0  0
   62.8194   33.4173   50.9554 C   0  0  0  0  0  0  0  0  0  0  0  0
   64.2800   33.2262   50.5312 C   0  0  0  0  0  0  0  0  0  0  0  0
   64.5408   31.8693   50.2177 O   0  0  0  0  0  0  0  0  0  0  0  0
   64.3905   31.0695   51.3748 C   0  0  0  0  0  0  0  0  0  0  0  0
   62.9380   31.0810   51.8600 C   0  0  0  0  0  0  0  0  0  0  0  0
   60.1706   28.9816   45.3393 C   0  0  0  0  0  0  0  0  0  0  0  0
   58.1538   27.5563   43.5685 C   0  0  0  0  0  0  0  0  0  0  0  0
   58.6637   27.0269   44.6939 C   0  0  0  0  0  0  0  0  0  0  0  0
   58.3248   25.7836   45.2381 C   0  0  0  0  0  0  0  0  0  0  0  0
   57.4179   24.9013   44.7732 C   0  0  0  0  0  0  0  0  0  0  0  0
   59.0651   25.6519   46.4035 C   0  0  0  0  0  0  0  0  0  0  0  0
   59.8291   26.7936   46.5195 C   0  0  0  0  0  0  0  0  0  0  0  0
   60.7289   27.0907   47.6816 C   0  0  0  0  0  0  0  0  0  0  0  0
   59.5895   27.6366   45.4843 N   0  0  0  0  0  0  0  0  0  0  0  0
   56.6398   23.9923   45.6452 C   0  0  0  0  0  0  0  0  0  0  0  0
   55.4265   24.3880   46.2330 C   0  0  0  0  0  0  0  0  0  0  0  0
   54.9160   25.6642   46.0247 O   0  0  0  0  0  0  0  0  0  0  0  0
   54.7492   23.5233   47.0326 N   0  0  0  0  0  0  0  0  0  0  0  0
   55.2327   22.2831   47.2937 C   0  0  0  0  0  0  0  0  0  0  0  0
   54.5837   21.4973   48.0313 O   0  0  0  0  0  0  0  0  0  0  0  0
   56.4203   21.8907   46.7668 N   0  0  0  0  0  0  0  0  0  0  0  0
   57.1354   22.7161   45.9597 C   0  0  0  0  0  0  0  0  0  0  0  0
   58.2367   22.3195   45.4922 O   0  0  0  0  0  0  0  0  0  0  0  0
 24 25  2  0
 25 26  1  0
 26 27  2  0
 27 32  1  0
 32 33  2  0
 33 34  1  0
 33 35  1  0
 35 36  1  0
 36 37  2  0
 36 38  1  0
 38 39  1  0
 39 40  2  0
 26 28  1  0
 28 29  2  0
 29 30  1  0
 29 31  1  0
 31 23  1  0
 23  1  1  0
  1  2  2  0
  2  3  1  0
  3  4  2  0
  4  7  1  0
  7  8  2  0
  7  9  1  0
  9 11  1  0
 11 12  2  0
 12 13  1  0
 13 14  2  0
 14 15  1  0
 15 16  2  0
 16 17  1  0
 17 18  1  0
 18 19  1  0
 19 20  1  0
 20 21  1  0
 21 22  1  0
  4  5  1  0
  5  6  2  0
 31 25  1  0
  6  1  1  0
 39 32  1  0
 16 11  1  0
 22 17  1  0
  9 10  1  0
M  CHG 1  34  -1
M  CHG 1  35  -1
M  CHG 1  38  -1
M  END
> <UniqueID>
24

> <SMILES>
C=c1/c(=C/c2c([O-])[n-]c(=O)[n-]c2=O)cc(C)n1Cc1ccc(C(=O)Nc2ccccc2N2CCOCC2)cc1

> <Energy>
121.47991016619653

> <Genealogy>
C=c1c(=Cc2c([O-])[n-]c(=O)[n-]c2=O)cc(C)n1Cc1ccc(C(=O)Nc2ccccc2N2CCOCC2)cc1 (protonated)
C=c1/c(=C/c2c([O-])[n-]c(=O)[n-]c2=O)cc(C)n1Cc1ccc(C(=O)Nc2ccccc2N2CCOCC2)cc1 (cis-trans isomerization)
C=c1/c(=C/c2c([O-])[n-]c(=O)[n-]c2=O)cc(C)n1Cc1ccc(C(=O)Nc2ccccc2N2CCOCC2)cc1 (3D coordinates assigned)
C=c1/c(=C/c2c([O-])[n-]c(=O)[n-]c2=O)cc(C)n1Cc1ccc(C(=O)Nc2ccccc2N2CCOCC2)cc1 (nonaromatic ring conformer: 121.47991016619653 kcal/mol)

> <smiles>
C=c1c(=Cc2c(O)[nH]c(=O)[nH]c2=O)cc(C)n1Cc1ccc(C(=O)Nc2ccccc2N2CCOCC2)cc1

> <score_type>
oracle

> <origin>
adg

> <m_score__min__energy>
-16.870000000000001

> <m_primary>
energy

> <minimizedAffinity>
-8.23701

> <minimizedRMSD>
1.65568

> <CNNscore>
0.1032441854

> <CNNaffinity>
6.3186111450

> <CNN_VS>
0.6523598433

> <CNNaffinity_variance>
0.1233452559

$$$$
50:0


 30 32  0  0  0  0  0  0  0  0999 V2000
   58.0942   28.8124   45.5999 C   0  0  0  0  0  0  0  0  0  0  0  0
   58.3667   28.4990   44.2550 C   0  0  0  0  0  0  0  0  0  0  0  0
   58.2986   27.1723   43.8156 C   0  0  0  0  0  0  0  0  0  0  0  0
   57.9781   26.1513   44.7158 C   0  0  0  0  0  0  0  0  0  0  0  0
   57.7386   26.4518   46.0641 C   0  0  0  0  0  0  0  0  0  0  0  0
   57.7914   27.7819   46.4977 C   0  0  0  0  0  0  0  0  0  0  0  0
   58.1765   30.1558   46.0952 N   0  0  0  0  0  0  0  0  0  0  0  0
   58.0319   31.3527   45.3236 C   0  0  0  0  0  0  0  0  0  0  0  0
   58.1521   31.3301   44.0685 O   0  0  0  0  0  0  0  0  0  0  0  0
   57.7253   32.6450   46.0167 C   0  0  0  0  0  0  0  0  0  0  0  0
   63.2817   33.3269   47.6700 C   0  0  0  0  0  0  0  0  0  0  0  0
   61.9578   33.2414   47.5756 C   0  0  0  0  0  0  0  0  0  0  0  0
   61.2682   33.5790   46.4589 N   0  0  0  0  0  0  0  0  0  0  0  0
   59.9839   33.3461   46.8057 C   0  0  0  0  0  0  0  0  0  0  0  0
   58.9301   33.5438   46.0039 C   0  0  0  0  0  0  0  0  0  0  0  0
   59.9584   32.8815   48.1019 C   0  0  0  0  0  0  0  0  0  0  0  0
   58.9368   32.5601   48.7650 O   0  0  0  0  0  0  0  0  0  0  0  0
   61.1838   32.8226   48.5573 O   0  0  0  0  0  0  0  0  0  0  0  0
   57.3281   25.1482   47.2244 S   0  0  0  0  0  0  0  0  0  0  0  0
   57.4164   23.8475   45.9842 C   0  0  0  0  0  0  0  0  0  0  0  0
   58.6520   23.3701   45.6677 N   0  0  0  0  0  0  0  0  0  0  0  0
   58.8392   22.3932   44.7424 C   0  0  0  0  0  0  0  0  0  0  0  0
   57.7457   21.8496   44.0731 C   0  0  0  0  0  0  0  0  0  0  0  0
   56.4646   22.3163   44.3679 C   0  0  0  0  0  0  0  0  0  0  0  0
   56.2781   23.3308   45.3193 C   0  0  0  0  0  0  0  0  0  0  0  0
   54.6251   23.8778   45.6404 S   0  0  0  0  0  0  0  0  0  0  0  0
   54.6053   25.6034   45.7524 N   0  0  0  0  0  0  0  0  0  0  0  0
   53.6843   23.4293   44.5555 O   0  0  0  0  0  0  0  0  0  0  0  0
   54.1478   23.2960   46.9449 O   0  0  0  0  0  0  0  0  0  0  0  0
   54.9276   26.0050   44.8719 H   0  0  0  0  0  0  0  0  0  0  0  0
 11 12  2  0
 12 13  1  0
 13 14  1  0
 14 15  2  0
 15 10  1  0
 10  8  1  0
  8  9  2  0
  8  7  1  0
  7  1  1  0
  1  2  2  0
  2  3  1  0
  3  4  2  0
  4  5  1  0
  5 19  1  0
 19 20  1  0
 20 21  2  0
 21 22  1  0
 22 23  2  0
 23 24  1  0
 24 25  2  0
 25 26  1  0
 26 27  1  0
 26 28  2  0
 26 29  2  0
  5  6  2  0
 14 16  1  0
 16 17  2  0
 16 18  1  0
 18 12  1  0
  6  1  1  0
 25 20  1  0
 27 30  1  0
M  CHG 1   7  -1
M  CHG 1  13  -1
M  CHG 1  27  -1
M  END
> <UniqueID>
48

> <SMILES>
C=c1[n-]c(=CCC(=O)[N-]c2cccc(Sc3ncccc3S([NH-])(=O)=O)c2)c(=O)o1

> <Energy>
75.85593349021563

> <Genealogy>
C=c1[n-]c(=CCC(=O)[N-]c2cccc(Sc3ncccc3S([NH-])(=O)=O)c2)c(=O)o1 (protonated)
C=c1[n-]c(=CCC(=O)[N-]c2cccc(Sc3ncccc3S([NH-])(=O)=O)c2)c(=O)o1 (3D coordinates assigned)
C=c1[n-]c(=CCC(=O)[N-]c2cccc(Sc3ncccc3S([NH-])(=O)=O)c2)c(=O)o1 (optimized conformer: 75.85593349021563 kcal/mol)

> <smiles>
C=c1[nH]c(=CCC(=O)Nc2cccc(Sc3ncccc3S(N)(=O)=O)c2)c(=O)o1

> <score_type>
oracle

> <origin>
adg

> <m_score__min__energy>
-14.06

> <m_primary>
energy

> <minimizedAffinity>
-8.53379

> <minimizedRMSD>
0.94369

> <CNNscore>
0.8345489502

> <CNNaffinity>
7.8583545685

> <CNN_VS>
6.5581817627

> <CNNaffinity_variance>
0.5468515158

$$$$
75:0


 29 31  0  0  0  0  0  0  0  0999 V2000
   58.7068   28.9997   46.7779 N   0  0  0  0  0  0  0  0  0  0  0  0
   58.2326   28.8745   45.5003 C   0  0  0  0  0  0  0  0  0  0  0  0
   57.9988   29.9999   44.7127 C   0  0  0  0  0  0  0  0  0  0  0  0
   58.2313   31.2662   45.2402 C   0  0  0  0  0  0  0  0  0  0  0  0
   58.6781   31.4031   46.5618 C   0  0  0  0  0  0  0  0  0  0  0  0
   58.9275   30.2449   47.3168 C   0  0  0  0  0  0  0  0  0  0  0  0
   59.3461   30.3616   48.5029 O   0  0  0  0  0  0  0  0  0  0  0  0
   58.9213   27.7847   47.5796 C   0  0  0  0  0  0  0  0  0  0  0  0
   59.5034   25.9634   46.1543 O   0  0  0  0  0  0  0  0  0  0  0  0
   58.5873   26.5723   46.7689 C   0  0  0  0  0  0  0  0  0  0  0  0
   57.2317   26.1089   46.7126 N   0  0  0  0  0  0  0  0  0  0  0  0
   56.6833   25.2113   45.7363 C   0  0  0  0  0  0  0  0  0  0  0  0
   57.4633   24.8687   44.6240 C   0  0  0  0  0  0  0  0  0  0  0  0
   56.9728   23.9805   43.6611 C   0  0  0  0  0  0  0  0  0  0  0  0
   55.7034   23.4148   43.8137 C   0  0  0  0  0  0  0  0  0  0  0  0
   54.9284   23.7290   44.9346 C   0  0  0  0  0  0  0  0  0  0  0  0
   53.6753   23.1523   45.0938 O   0  0  0  0  0  0  0  0  0  0  0  0
   55.4162   24.6195   45.8971 C   0  0  0  0  0  0  0  0  0  0  0  0
   58.9416   32.6919   47.1395 N   0  0  0  0  0  0  0  0  0  0  0  0
   60.1599   33.4384   47.0282 C   0  0  0  0  0  0  0  0  0  0  0  0
   60.3757   34.1554   46.0131 O   0  0  0  0  0  0  0  0  0  0  0  0
   61.1166   33.4664   48.1558 C   0  0  0  0  0  0  0  0  0  0  0  0
   60.6113   33.4967   49.4692 C   0  0  0  0  0  0  0  0  0  0  0  0
   61.4742   33.4530   50.5650 C   0  0  0  0  0  0  0  0  0  0  0  0
   62.8527   33.3832   50.3673 C   0  0  0  0  0  0  0  0  0  0  0  0
   63.3721   33.3766   49.0716 C   0  0  0  0  0  0  0  0  0  0  0  0
   62.5206   33.4397   47.9616 C   0  0  0  0  0  0  0  0  0  0  0  0
   63.1048   33.5124   46.6958 O   0  0  0  0  0  0  0  0  0  0  0  0
   64.0375   33.4916   46.6083 H   0  0  0  0  0  0  0  0  0  0  0  0
  9 10  2  0
 10  8  1  0
  8  1  1  0
  1  2  1  0
  2  3  2  0
  3  4  1  0
  4  5  2  0
  5 19  1  0
 19 20  1  0
 20 21  2  0
 20 22  1  0
 22 23  2  0
 23 24  1  0
 24 25  2  0
 25 26  1  0
 26 27  2  0
 27 28  1  0
  5  6  1  0
  6  7  2  0
 10 11  1  0
 11 12  1  0
 12 13  2  0
 13 14  1  0
 14 15  2  0
 15 16  1  0
 16 17  1  0
 16 18  2  0
  6  1  1  0
 18 12  1  0
 27 22  1  0
 28 29  1  0
M  CHG 1  11  -1
M  CHG 1  17  -1
M  CHG 1  19  -1
M  END
> <UniqueID>
70

> <SMILES>
O=C(Cn1cccc([N-]C(=O)c2ccccc2O)c1=O)[N-]c1cccc([O-])c1

> <Energy>
58.99086594388379

> <Genealogy>
O=C(Cn1cccc([N-]C(=O)c2ccccc2O)c1=O)[N-]c1cccc([O-])c1 (protonated)
O=C(Cn1cccc([N-]C(=O)c2ccccc2O)c1=O)[N-]c1cccc([O-])c1 (3D coordinates assigned)
O=C(Cn1cccc([N-]C(=O)c2ccccc2O)c1=O)[N-]c1cccc([O-])c1 (optimized conformer: 58.99086594388379 kcal/mol)

> <smiles>
O=C(Cn1cccc(NC(=O)c2ccccc2O)c1=O)Nc1cccc(O)c1

> <score_type>
oracle

> <origin>
adg

> <m_score__min__energy>
-14.5

> <m_primary>
energy

> <minimizedAffinity>
-7.94782

> <minimizedRMSD>
2.76845

> <CNNscore>
0.1240639612

> <CNNaffinity>
5.6364541054

> <CNN_VS>
0.6992807984

> <CNNaffinity_variance>
0.6641438007

$$$$
76:0


 36 39  0  0  0  0  0  0  0  0999 V2000
   59.3559   27.7898   45.7760 C   0  0  0  0  0  0  0  0  0  0  0  0
   58.9552   29.0700   45.6247 C   0  0  0  0  0  0  0  0  0  0  0  0
   58.5458   29.5751   44.4060 C   0  0  0  0  0  0  0  0  0  0  0  0
   58.2932   30.9170   44.5900 C   0  0  0  0  0  0  0  0  0  0  0  0
   57.7973   31.8221   43.5033 C   0  0  0  0  0  0  0  0  0  0  0  0
   58.4844   31.2663   45.8867 N   0  0  0  0  0  0  0  0  0  0  0  0
   58.8730   30.1341   46.5414 C   0  0  0  0  0  0  0  0  0  0  0  0
   59.0515   30.0600   47.8716 C   0  0  0  0  0  0  0  0  0  0  0  0
   56.4905   27.9820   45.5400 O   0  0  0  0  0  0  0  0  0  0  0  0
   57.0752   26.7351   45.7388 C   0  0  0  0  0  0  0  0  0  0  0  0
   56.2875   25.6315   45.8448 N   0  0  0  0  0  0  0  0  0  0  0  0
   56.8247   24.4051   46.0664 C   0  0  0  0  0  0  0  0  0  0  0  0
   56.0754   23.3977   46.1586 O   0  0  0  0  0  0  0  0  0  0  0  0
   58.1694   24.2636   46.1938 N   0  0  0  0  0  0  0  0  0  0  0  0
   59.0006   25.3339   46.0935 C   0  0  0  0  0  0  0  0  0  0  0  0
   60.2436   25.1673   46.2262 O   0  0  0  0  0  0  0  0  0  0  0  0
   58.4719   26.6083   45.8360 C   0  0  0  0  0  0  0  0  0  0  0  0
   55.5588   28.0577   45.4763 H   0  0  0  0  0  0  0  0  0  0  0  0
   58.2323   32.6019   46.4584 C   0  0  0  0  0  0  0  0  0  0  0  0
   59.4061   33.0681   47.2841 C   0  0  0  0  0  0  0  0  0  0  0  0
   60.6979   33.0919   46.7345 C   0  0  0  0  0  0  0  0  0  0  0  0
   61.7842   33.5348   47.4943 C   0  0  0  0  0  0  0  0  0  0  0  0
   61.5986   33.9426   48.8250 C   0  0  0  0  0  0  0  0  0  0  0  0
   60.3160   33.8944   49.3813 C   0  0  0  0  0  0  0  0  0  0  0  0
   59.2255   33.4750   48.6118 C   0  0  0  0  0  0  0  0  0  0  0  0
   62.6807   34.4191   49.6378 N   0  0  0  0  0  0  0  0  0  0  0  0
   63.6042   33.4516   50.7401 S   0  0  0  0  0  0  0  0  0  0  0  0
   63.9283   34.2698   51.9580 O   0  0  0  0  0  0  0  0  0  0  0  0
   64.8923   33.0440   50.0787 O   0  0  0  0  0  0  0  0  0  0  0  0
   62.6770   32.0396   51.2349 C   0  0  0  0  0  0  0  0  0  0  0  0
   62.0836   31.9808   52.5032 C   0  0  0  0  0  0  0  0  0  0  0  0
   61.3470   30.8536   52.8837 C   0  0  0  0  0  0  0  0  0  0  0  0
   61.1832   29.7794   51.9941 C   0  0  0  0  0  0  0  0  0  0  0  0
   60.4138   28.5616   52.4049 C   0  0  0  0  0  0  0  0  0  0  0  0
   61.7908   29.8350   50.7306 C   0  0  0  0  0  0  0  0  0  0  0  0
   62.5310   30.9606   50.3523 C   0  0  0  0  0  0  0  0  0  0  0  0
  9 10  1  0
 10 11  1  0
 11 12  1  0
 12 13  2  0
 12 14  1  0
 14 15  1  0
 15 16  2  0
 15 17  1  0
 17  1  1  0
  1  2  2  0
  2  3  1  0
  3  4  2  0
  4  5  1  0
  4  6  1  0
  6 19  1  0
 19 20  1  0
 20 21  2  0
 21 22  1  0
 22 23  2  0
 23 26  1  0
 26 27  1  0
 27 28  2  0
 27 29  2  0
 27 30  1  0
 30 31  2  0
 31 32  1  0
 32 33  2  0
 33 34  1  0
 33 35  1  0
 35 36  2  0
 23 24  1  0
 24 25  2  0
  6  7  1  0
  7  8  2  0
 17 10  2  0
  7  2  1  0
 25 20  1  0
 36 30  1  0
  9 18  1  0
M  CHG 1  11  -1
M  CHG 1  14  -1
M  CHG 1  26  -1
M  END
> <UniqueID>
71

> <SMILES>
C=c1/c(=C\c2c(O)[n-]c(=O)[n-]c2=O)cc(C)n1Cc1ccc([N-]S(=O)(=O)c2ccc(C)cc2)cc1

> <Energy>
105.15394745821452

> <Genealogy>
C=c1c(=Cc2c(O)[n-]c(=O)[n-]c2=O)cc(C)n1Cc1ccc([N-]S(=O)(=O)c2ccc(C)cc2)cc1 (protonated)
C=c1/c(=C\c2c(O)[n-]c(=O)[n-]c2=O)cc(C)n1Cc1ccc([N-]S(=O)(=O)c2ccc(C)cc2)cc1 (cis-trans isomerization)
C=c1/c(=C\c2c(O)[n-]c(=O)[n-]c2=O)cc(C)n1Cc1ccc([N-]S(=O)(=O)c2ccc(C)cc2)cc1 (3D coordinates assigned)
C=c1/c(=C\c2c(O)[n-]c(=O)[n-]c2=O)cc(C)n1Cc1ccc([N-]S(=O)(=O)c2ccc(C)cc2)cc1 (optimized conformer: 105.15394745821452 kcal/mol)

> <smiles>
C=c1c(=Cc2c(O)[nH]c(=O)[nH]c2=O)cc(C)n1Cc1ccc(NS(=O)(=O)c2ccc(C)cc2)cc1

> <score_type>
oracle

> <origin>
adg

> <m_score__min__energy>
-15.23

> <m_primary>
energy

> <minimizedAffinity>
-8.57272

> <minimizedRMSD>
1.16652

> <CNNscore>
0.4400489330

> <CNNaffinity>
7.3070864677

> <CNN_VS>
3.2154755592

> <CNNaffinity_variance>
0.1390222907

$$$$
88:0


 32 34  0  0  0  0  0  0  0  0999 V2000
   58.7037   33.1653   47.0481 C   0  0  0  0  0  0  0  0  0  0  0  0
   59.4200   34.3431   47.3299 C   0  0  0  0  0  0  0  0  0  0  0  0
   60.0288   34.5209   48.5769 C   0  0  0  0  0  0  0  0  0  0  0  0
   59.9279   33.5287   49.5554 C   0  0  0  0  0  0  0  0  0  0  0  0
   59.2114   32.3535   49.2910 C   0  0  0  0  0  0  0  0  0  0  0  0
   58.5924   32.1805   48.0462 C   0  0  0  0  0  0  0  0  0  0  0  0
   58.3890   31.8545   44.8987 N   0  0  0  0  0  0  0  0  0  0  0  0
   58.0632   32.9807   45.7250 C   0  0  0  0  0  0  0  0  0  0  0  0
   57.2241   33.8292   45.3165 O   0  0  0  0  0  0  0  0  0  0  0  0
   59.1593   31.2896   45.1370 H   0  0  0  0  0  0  0  0  0  0  0  0
   57.6030   31.5271   43.7107 C   0  0  0  0  0  0  0  0  0  0  0  0
   56.3458   29.6707   42.9006 O   0  0  0  0  0  0  0  0  0  0  0  0
   56.9173   30.2099   43.8880 C   0  0  0  0  0  0  0  0  0  0  0  0
   56.9903   29.5353   45.1510 N   0  0  0  0  0  0  0  0  0  0  0  0
   57.8864   28.6878   45.5796 C   0  0  0  0  0  0  0  0  0  0  0  0
   59.1615   29.1421   45.7292 N   0  0  0  0  0  0  0  0  0  0  0  0
   60.1798   28.3449   46.1460 C   0  0  0  0  0  0  0  0  0  0  0  0
   59.9414   27.0037   46.4379 C   0  0  0  0  0  0  0  0  0  0  0  0
   58.6454   26.5024   46.3275 C   0  0  0  0  0  0  0  0  0  0  0  0
   57.5995   27.3388   45.9227 C   0  0  0  0  0  0  0  0  0  0  0  0
   56.3091   26.8262   45.9349 O   0  0  0  0  0  0  0  0  0  0  0  0
   59.0908   31.0774   50.5019 S   0  0  0  0  0  0  0  0  0  0  0  0
   58.1027   31.4562   51.5700 O   0  0  0  0  0  0  0  0  0  0  0  0
   58.6294   29.8140   49.8336 O   0  0  0  0  0  0  0  0  0  0  0  0
   60.6472   30.8073   51.2281 N   0  0  0  0  0  0  0  0  0  0  0  0
   61.5382   30.1617   50.2677 C   0  0  0  0  0  0  0  0  0  0  0  0
   62.3035   31.2142   49.5188 C   0  0  0  0  0  0  0  0  0  0  0  0
   63.1720   32.0831   50.2010 C   0  0  0  0  0  0  0  0  0  0  0  0
   63.8958   33.0511   49.4987 C   0  0  0  0  0  0  0  0  0  0  0  0
   63.7596   33.1581   48.1104 C   0  0  0  0  0  0  0  0  0  0  0  0
   62.9048   32.2902   47.4249 C   0  0  0  0  0  0  0  0  0  0  0  0
   62.1881   31.3119   48.1222 C   0  0  0  0  0  0  0  0  0  0  0  0
 12 13  2  0
 13 11  1  0
 11  7  1  0
  7  8  1  0
  8  9  2  0
  8  1  1  0
  1  2  2  0
  2  3  1  0
  3  4  2  0
  4  5  1  0
  5 22  1  0
 22 23  2  0
 22 24  2  0
 22 25  1  0
 25 26  1  0
 26 27  1  0
 27 28  2  0
 28 29  1  0
 29 30  2  0
 30 31  1  0
 31 32  2  0
  5  6  2  0
 13 14  1  0
 14 15  2  0
 15 16  1  0
 16 17  1  0
 17 18  2  0
 18 19  1  0
 19 20  2  0
 20 21  1  0
  6  1  1  0
 20 15  1  0
 32 27  1  0
  7 10  1  0
M  CHG 1  16  -1
M  CHG 1  21  -1
M  CHG 1  25  -1
M  END
> <UniqueID>
83

> <SMILES>
O=C(CNC(=O)c1cccc(S(=O)(=O)[N-]Cc2ccccc2)c1)N=c1[n-]cccc1[O-]

> <Energy>
58.045932627107014

> <Genealogy>
O=C(CNC(=O)c1cccc(S(=O)(=O)[N-]Cc2ccccc2)c1)N=c1[n-]cccc1[O-] (protonated)
O=C(CNC(=O)c1cccc(S(=O)(=O)[N-]Cc2ccccc2)c1)N=c1[n-]cccc1[O-] (3D coordinates assigned)
O=C(CNC(=O)c1cccc(S(=O)(=O)[N-]Cc2ccccc2)c1)N=c1[n-]cccc1[O-] (optimized conformer: 58.045932627107014 kcal/mol)

> <smiles>
O=C(CNC(=O)c1cccc(S(=O)(=O)NCc2ccccc2)c1)N=c1[nH]cccc1O

> <score_type>
oracle

> <origin>
adg

> <m_score__min__energy>
-15.42

> <m_primary>
energy

> <minimizedAffinity>
-8.27461

> <minimizedRMSD>
1.01043

> <CNNscore>
0.6701477766

> <CNNaffinity>
6.5146565437

> <CNN_VS>
4.3657827377

> <CNNaffinity_variance>
0.1526291221

$$$$
16:0


 25 27  0  0  0  0  0  0  0  0999 V2000
   59.3201   27.8141   46.0644 C   0  0  0  0  0  0  0  0  0  0  0  0
   60.3124   28.1382   45.3564 O   0  0  0  0  0  0  0  0  0  0  0  0
   58.3640   28.8124   46.4511 N   0  0  0  0  0  0  0  0  0  0  0  0
   57.7362   28.6137   47.1829 H   0  0  0  0  0  0  0  0  0  0  0  0
   58.2952   30.0913   45.8035 C   0  0  0  0  0  0  0  0  0  0  0  0
   57.6355   30.1836   44.5720 C   0  0  0  0  0  0  0  0  0  0  0  0
   57.5314   31.4083   43.9142 C   0  0  0  0  0  0  0  0  0  0  0  0
   58.0965   32.5520   44.4740 C   0  0  0  0  0  0  0  0  0  0  0  0
   58.7794   32.4867   45.6979 C   0  0  0  0  0  0  0  0  0  0  0  0
   58.9090   31.2397   46.3632 C   0  0  0  0  0  0  0  0  0  0  0  0
   59.6546   31.1400   47.6804 C   0  0  0  0  0  0  0  0  0  0  0  0
   60.6105   32.3113   47.9145 C   0  0  0  0  0  0  0  0  0  0  0  0
   59.8889   33.6337   47.6697 C   0  0  0  0  0  0  0  0  0  0  0  0
   59.4598   33.7385   46.2053 C   0  0  0  0  0  0  0  0  0  0  0  0
   59.1963   26.4106   46.5028 C   0  0  0  0  0  0  0  0  0  0  0  0
   58.2770   26.0013   47.3865 C   0  0  0  0  0  0  0  0  0  0  0  0
   57.0499   25.2714   46.9856 C   0  0  0  0  0  0  0  0  0  0  0  0
   56.1289   25.7939   46.0542 C   0  0  0  0  0  0  0  0  0  0  0  0
   56.3170   27.0465   45.4821 O   0  0  0  0  0  0  0  0  0  0  0  0
   55.0180   25.0836   45.7281 N   0  0  0  0  0  0  0  0  0  0  0  0
   54.7638   23.8774   46.2953 C   0  0  0  0  0  0  0  0  0  0  0  0
   53.7287   23.2385   45.9727 O   0  0  0  0  0  0  0  0  0  0  0  0
   55.6183   23.3656   47.2144 N   0  0  0  0  0  0  0  0  0  0  0  0
   56.7453   24.0314   47.5753 C   0  0  0  0  0  0  0  0  0  0  0  0
   57.5156   23.5208   48.4327 O   0  0  0  0  0  0  0  0  0  0  0  0
 15  1  1  0
  1  2  2  0
  1  3  1  0
  3  5  1  0
  5  6  2  0
  6  7  1  0
  7  8  2  0
  8  9  1  0
  9 10  2  0
 10 11  1  0
 11 12  1  0
 12 13  1  0
 13 14  1  0
 15 16  2  0
 16 17  1  0
 17 18  2  0
 18 19  1  0
 18 20  1  0
 20 21  1  0
 21 22  2  0
 21 23  1  0
 23 24  1  0
 24 25  2  0
 10  5  1  0
 24 17  1  0
 14  9  1  0
  3  4  1  0
M  CHG 1  19  -1
M  CHG 1  20  -1
M  CHG 1  23  -1
M  END
> <UniqueID>
16

> <SMILES>
O=C(/C=C/c1c([O-])[n-]c(=O)[n-]c1=O)Nc1cccc2c1CCCC2

> <Energy>
52.79980539716219

> <Genealogy>
O=C(C=Cc1c([O-])[n-]c(=O)[n-]c1=O)Nc1cccc2c1CCCC2 (protonated)
O=C(/C=C/c1c([O-])[n-]c(=O)[n-]c1=O)Nc1cccc2c1CCCC2 (cis-trans isomerization)
O=C(/C=C/c1c([O-])[n-]c(=O)[n-]c1=O)Nc1cccc2c1CCCC2 (3D coordinates assigned)
O=C(/C=C/c1c([O-])[n-]c(=O)[n-]c1=O)Nc1cccc2c1CCCC2 (nonaromatic ring conformer: 52.79980539716219 kcal/mol)

> <smiles>
O=C(C=Cc1c(O)[nH]c(=O)[nH]c1=O)Nc1cccc2c1CCCC2

> <score_type>
oracle

> <origin>
adg

> <m_score__min__energy>
-15.65

> <m_primary>
energy

> <minimizedAffinity>
-7.40593

> <minimizedRMSD>
1.05423

> <CNNscore>
0.4056788683

> <CNNaffinity>
6.7790465355

> <CNN_VS>
2.7501158714

> <CNNaffinity_variance>
0.3835967481

$$$$
30:0


 29 31  0  0  0  0  0  0  0  0999 V2000
   58.8209   27.3677   48.0710 C   0  0  0  0  0  0  0  0  0  0  0  0
   58.5761   28.3036   47.1421 C   0  0  0  0  0  0  0  0  0  0  0  0
   57.9667   28.1344   45.8910 C   0  0  0  0  0  0  0  0  0  0  0  0
   57.6234   27.0187   45.2131 C   0  0  0  0  0  0  0  0  0  0  0  0
   57.7788   29.4329   45.4293 C   0  0  0  0  0  0  0  0  0  0  0  0
   57.1696   29.8455   44.1263 C   0  0  0  0  0  0  0  0  0  0  0  0
   58.2853   30.3130   46.3124 N   0  0  0  0  0  0  0  0  0  0  0  0
   58.7806   29.6326   47.3337 N   0  0  0  0  0  0  0  0  0  0  0  0
   57.3968   25.6892   45.8131 C   0  0  0  0  0  0  0  0  0  0  0  0
   56.1062   25.2929   46.1879 C   0  0  0  0  0  0  0  0  0  0  0  0
   55.0307   26.1658   46.0565 O   0  0  0  0  0  0  0  0  0  0  0  0
   55.8977   24.0504   46.6930 N   0  0  0  0  0  0  0  0  0  0  0  0
   56.9209   23.1694   46.8309 C   0  0  0  0  0  0  0  0  0  0  0  0
   56.7052   22.0234   47.3053 O   0  0  0  0  0  0  0  0  0  0  0  0
   58.1772   23.5193   46.4507 N   0  0  0  0  0  0  0  0  0  0  0  0
   58.4377   24.7498   45.9384 C   0  0  0  0  0  0  0  0  0  0  0  0
   59.6101   25.0317   45.5741 O   0  0  0  0  0  0  0  0  0  0  0  0
   59.3910   30.2957   48.4897 C   0  0  0  0  0  0  0  0  0  0  0  0
   60.7594   30.8392   48.1579 C   0  0  0  0  0  0  0  0  0  0  0  0
   61.6554   30.0164   47.8203 O   0  0  0  0  0  0  0  0  0  0  0  0
   61.0771   32.2484   48.2402 N   0  0  0  0  0  0  0  0  0  0  0  0
   62.4507   32.7290   48.0542 C   0  0  0  0  0  0  0  0  0  0  0  0
   60.0057   33.2223   48.4966 C   0  0  0  0  0  0  0  0  0  0  0  0
   59.2834   33.5540   47.2171 C   0  0  0  0  0  0  0  0  0  0  0  0
   57.9145   33.2671   47.0870 C   0  0  0  0  0  0  0  0  0  0  0  0
   57.2329   33.5961   45.9100 C   0  0  0  0  0  0  0  0  0  0  0  0
   57.9130   34.2153   44.8595 C   0  0  0  0  0  0  0  0  0  0  0  0
   59.2745   34.5071   44.9807 C   0  0  0  0  0  0  0  0  0  0  0  0
   59.9593   34.1793   46.1548 C   0  0  0  0  0  0  0  0  0  0  0  0
  1  2  2  0
  2  3  1  0
  3  4  2  0
  4  9  1  0
  9 10  2  0
 10 11  1  0
 10 12  1  0
 12 13  1  0
 13 14  2  0
 13 15  1  0
 15 16  1  0
 16 17  2  0
  3  5  1  0
  5  6  1  0
  5  7  2  0
  7  8  1  0
  8 18  1  0
 18 19  1  0
 19 20  2  0
 19 21  1  0
 21 22  1  0
 21 23  1  0
 23 24  1  0
 24 25  2  0
 25 26  1  0
 26 27  2  0
 27 28  1  0
 28 29  2  0
  8  2  1  0
 29 24  1  0
 16  9  1  0
M  CHG 1  11  -1
M  CHG 1  12  -1
M  CHG 1  15  -1
M  END
> <UniqueID>
29

> <SMILES>
C=c1/c(=C\c2c([O-])[n-]c(=O)[n-]c2=O)c(C)nn1CC(=O)N(C)Cc1ccccc1

> <Energy>
92.40203238964435

> <Genealogy>
C=c1c(=Cc2c([O-])[n-]c(=O)[n-]c2=O)c(C)nn1CC(=O)N(C)Cc1ccccc1 (protonated)
C=c1/c(=C\c2c([O-])[n-]c(=O)[n-]c2=O)c(C)nn1CC(=O)N(C)Cc1ccccc1 (cis-trans isomerization)
C=c1/c(=C\c2c([O-])[n-]c(=O)[n-]c2=O)c(C)nn1CC(=O)N(C)Cc1ccccc1 (3D coordinates assigned)
C=c1/c(=C\c2c([O-])[n-]c(=O)[n-]c2=O)c(C)nn1CC(=O)N(C)Cc1ccccc1 (optimized conformer: 92.40203238964435 kcal/mol)

> <smiles>
C=c1c(=Cc2c(O)[nH]c(=O)[nH]c2=O)c(C)nn1CC(=O)N(C)Cc1ccccc1

> <score_type>
oracle

> <origin>
adg

> <m_score__min__energy>
-16.800000000000001

> <m_primary>
energy

> <minimizedAffinity>
-7.19474

> <minimizedRMSD>
0.79094

> <CNNscore>
0.2140968591

> <CNNaffinity>
6.2839446068

> <CNN_VS>
1.3453727961

> <CNNaffinity_variance>
0.0572887771

$$$$
35:0


 25 26  0  0  0  0  0  0  0  0999 V2000
   58.1827   31.9230   45.2511 C   0  0  0  0  0  0  0  0  0  0  0  0
   57.5830   31.8002   46.3540 O   0  0  0  0  0  0  0  0  0  0  0  0
   58.3883   30.7833   44.4030 N   0  0  0  0  0  0  0  0  0  0  0  0
   58.6984   30.9282   43.4798 H   0  0  0  0  0  0  0  0  0  0  0  0
   58.1576   29.4381   44.8537 C   0  0  0  0  0  0  0  0  0  0  0  0
   59.2201   28.5886   45.2436 C   0  0  0  0  0  0  0  0  0  0  0  0
   60.6503   29.0575   45.2803 C   0  0  0  0  0  0  0  0  0  0  0  0
   58.9353   27.2651   45.6108 C   0  0  0  0  0  0  0  0  0  0  0  0
   57.6124   26.8234   45.6414 C   0  0  0  0  0  0  0  0  0  0  0  0
   57.3221   25.5170   46.0110 O   0  0  0  0  0  0  0  0  0  0  0  0
   56.6028   27.6730   45.3195 N   0  0  0  0  0  0  0  0  0  0  0  0
   56.8396   28.9557   44.9397 C   0  0  0  0  0  0  0  0  0  0  0  0
   55.8670   29.7037   44.6548 O   0  0  0  0  0  0  0  0  0  0  0  0
   58.7088   33.2690   44.8459 C   0  0  0  0  0  0  0  0  0  0  0  0
   59.0004   34.3332   46.3035 S   0  0  0  0  0  0  0  0  0  0  0  0
   61.2135   31.4941   48.0806 C   0  0  0  0  0  0  0  0  0  0  0  0
   62.5264   31.9144   47.8369 C   0  0  0  0  0  0  0  0  0  0  0  0
   62.7299   33.0902   47.1108 C   0  0  0  0  0  0  0  0  0  0  0  0
   63.8978   33.4914   46.8703 O   0  0  0  0  0  0  0  0  0  0  0  0
   61.6639   33.8021   46.6608 N   0  0  0  0  0  0  0  0  0  0  0  0
   60.3953   33.3877   46.9096 C   0  0  0  0  0  0  0  0  0  0  0  0
   60.1803   32.2486   47.6171 N   0  0  0  0  0  0  0  0  0  0  0  0
   60.9655   30.2166   48.8473 C   0  0  0  0  0  0  0  0  0  0  0  0
   58.8891   30.0811   50.3214 C   0  0  0  0  0  0  0  0  0  0  0  0
   59.4836   29.8087   48.9388 C   0  0  0  0  0  0  0  0  0  0  0  0
 24 25  1  0
 25 23  1  0
 23 16  1  0
 16 17  2  0
 17 18  1  0
 18 19  2  0
 18 20  1  0
 20 21  1  0
 21 15  1  0
 15 14  1  0
 14  1  1  0
  1  2  2  0
  1  3  1  0
  3  5  1  0
  5  6  2  0
  6  7  1  0
  6  8  1  0
  8  9  2  0
  9 10  1  0
  9 11  1  0
 11 12  1  0
 12 13  2  0
 21 22  2  0
 22 16  1  0
 12  5  1  0
  3  4  1  0
M  CHG 1  10  -1
M  CHG 1  11  -1
M  CHG 1  20  -1
M  END
> <UniqueID>
34

> <SMILES>
CCCc1cc(=O)[n-]c(SCC(=O)Nc2c(C)cc([O-])[n-]c2=O)n1

> <Energy>
36.94547528791998

> <Genealogy>
CCCc1cc(=O)[n-]c(SCC(=O)Nc2c(C)cc([O-])[n-]c2=O)n1 (protonated)
CCCc1cc(=O)[n-]c(SCC(=O)Nc2c(C)cc([O-])[n-]c2=O)n1 (3D coordinates assigned)
CCCc1cc(=O)[n-]c(SCC(=O)Nc2c(C)cc([O-])[n-]c2=O)n1 (optimized conformer: 36.94547528791998 kcal/mol)

> <smiles>
CCCc1cc(=O)[nH]c(SCC(=O)Nc2c(C)cc(O)[nH]c2=O)n1

> <score_type>
oracle

> <origin>
adg

> <m_score__min__energy>
-14.220000000000001

> <m_primary>
energy

> <minimizedAffinity>
-6.68474

> <minimizedRMSD>
0.94295

> <CNNscore>
0.7115699053

> <CNNaffinity>
6.9856486320

> <CNN_VS>
4.9707775116

> <CNNaffinity_variance>
0.2430842370

$$$$
57:0


 33 36  0  0  0  0  0  0  0  0999 V2000
   59.8069   33.4998   48.4508 C   0  0  0  0  0  0  0  0  0  0  0  0
   58.9120   32.2396   48.6782 C   0  0  0  0  0  0  0  0  0  0  0  0
   58.2856   31.6990   47.3736 C   0  0  0  0  0  0  0  0  0  0  0  0
   59.0315   32.1680   46.1884 N   0  0  0  0  0  0  0  0  0  0  0  0
   58.9212   33.6328   46.0321 C   0  0  0  0  0  0  0  0  0  0  0  0
   59.1363   34.3878   47.3639 C   0  0  0  0  0  0  0  0  0  0  0  0
   61.2849   32.8821   52.7454 C   0  0  0  0  0  0  0  0  0  0  0  0
   61.1963   33.3472   51.4703 N   0  0  0  0  0  0  0  0  0  0  0  0
   60.0242   33.8018   50.9456 C   0  0  0  0  0  0  0  0  0  0  0  0
   59.9481   34.2426   49.7190 N   0  0  0  0  0  0  0  0  0  0  0  0
   58.8701   33.7977   51.7381 C   0  0  0  0  0  0  0  0  0  0  0  0
   58.9386   33.3242   53.0508 C   0  0  0  0  0  0  0  0  0  0  0  0
   60.1517   32.8613   53.5610 C   0  0  0  0  0  0  0  0  0  0  0  0
   61.2417   33.1564   47.9927 C   0  0  0  0  0  0  0  0  0  0  0  0
   61.8080   31.9308   48.4070 C   0  0  0  0  0  0  0  0  0  0  0  0
   63.1112   31.5781   48.0465 C   0  0  0  0  0  0  0  0  0  0  0  0
   63.8784   32.4404   47.2656 C   0  0  0  0  0  0  0  0  0  0  0  0
   63.3451   33.6558   46.8428 C   0  0  0  0  0  0  0  0  0  0  0  0
   62.0413   34.0136   47.1963 C   0  0  0  0  0  0  0  0  0  0  0  0
   58.5977   31.4692   44.9622 C   0  0  0  0  0  0  0  0  0  0  0  0
   58.1485   30.0756   45.3020 C   0  0  0  0  0  0  0  0  0  0  0  0
   56.9821   29.5343   44.7515 C   0  0  0  0  0  0  0  0  0  0  0  0
   56.5976   28.2729   45.0749 N   0  0  0  0  0  0  0  0  0  0  0  0
   57.3027   27.4808   45.9307 C   0  0  0  0  0  0  0  0  0  0  0  0
   56.8513   26.2748   46.1486 N   0  0  0  0  0  0  0  0  0  0  0  0
   58.4572   28.0178   46.5546 C   0  0  0  0  0  0  0  0  0  0  0  0
   59.1567   27.3388   47.5433 O   0  0  0  0  0  0  0  0  0  0  0  0
   58.8808   29.3043   46.2115 C   0  0  0  0  0  0  0  0  0  0  0  0
   57.5726   25.0845   46.4953 C   0  0  0  0  0  0  0  0  0  0  0  0
   57.2517   24.4114   47.5112 O   0  0  0  0  0  0  0  0  0  0  0  0
   58.7327   24.7233   45.7494 N   0  0  0  0  0  0  0  0  0  0  0  0
   58.9891   25.2449   44.9548 H   0  0  0  0  0  0  0  0  0  0  0  0
   59.2773   23.9523   46.0290 H   0  0  0  0  0  0  0  0  0  0  0  0
  7  8  1  0
  8  9  1  0
  9 10  2  0
 10  1  1  0
  1 14  1  0
 14 15  2  0
 15 16  1  0
 16 17  2  0
 17 18  1  0
 18 19  2  0
  1  2  1  0
  2  3  1  0
  3  4  1  0
  4 20  1  0
 20 21  1  0
 21 22  2  0
 22 23  1  0
 23 24  1  0
 24 25  2  0
 25 29  1  0
 29 30  2  0
 29 31  1  0
 24 26  1  0
 26 27  1  0
 26 28  2  0
  4  5  1  0
  5  6  1  0
  9 11  1  0
 11 12  2  0
 12 13  1  0
 13  7  2  0
  6  1  1  0
 19 14  1  0
 28 21  1  0
 31 32  1  0
 31 33  1  0
M  CHG 1   8  -1
M  CHG 1  23  -1
M  CHG 1  27  -1
M  END
> <UniqueID>
54

> <SMILES>
NC(=O)N=c1[n-]cc(CN2CCC(/N=c3/cccc[n-]3)(c3ccccc3)CC2)cc1[O-]

> <Energy>
85.18174328160015

> <Genealogy>
NC(=O)N=c1[n-]cc(CN2CCC(N=c3cccc[n-]3)(c3ccccc3)CC2)cc1[O-] (protonated)
NC(=O)N=c1[n-]cc(CN2CCC(/N=c3/cccc[n-]3)(c3ccccc3)CC2)cc1[O-] (cis-trans isomerization)
NC(=O)N=c1[n-]cc(CN2CCC(/N=c3/cccc[n-]3)(c3ccccc3)CC2)cc1[O-] (3D coordinates assigned)
NC(=O)N=c1[n-]cc(CN2CCC(/N=c3/cccc[n-]3)(c3ccccc3)CC2)cc1[O-] (nonaromatic ring conformer: 85.18174328160015 kcal/mol)

> <smiles>
NC(=O)N=c1[nH]cc(CN2CCC(N=c3cccc[nH]3)(c3ccccc3)CC2)cc1O

> <score_type>
oracle

> <origin>
adg

> <m_score__min__energy>
-14.710000000000001

> <m_primary>
energy

> <minimizedAffinity>
-6.88102

> <minimizedRMSD>
1.04634

> <CNNscore>
0.2870008945

> <CNNaffinity>
6.8058471680

> <CNN_VS>
1.9532842636

> <CNNaffinity_variance>
0.0431893878

$$$$
67:0


 36 39  0  0  0  0  0  0  0  0999 V2000
   57.0238   24.3330   46.6848 C   0  0  0  0  0  0  0  0  0  0  0  0
   57.7130   25.2133   45.9298 C   0  0  0  0  0  0  0  0  0  0  0  0
   57.4358   25.4141   44.5903 C   0  0  0  0  0  0  0  0  0  0  0  0
   58.2783   26.4095   44.1496 C   0  0  0  0  0  0  0  0  0  0  0  0
   58.2615   26.9764   42.7613 C   0  0  0  0  0  0  0  0  0  0  0  0
   59.0736   26.8421   45.1547 N   0  0  0  0  0  0  0  0  0  0  0  0
   58.7608   26.0952   46.2520 C   0  0  0  0  0  0  0  0  0  0  0  0
   59.4242   26.1709   47.4186 C   0  0  0  0  0  0  0  0  0  0  0  0
   54.7738   26.0541   45.9375 O   0  0  0  0  0  0  0  0  0  0  0  0
   54.6117   24.6702   46.0246 C   0  0  0  0  0  0  0  0  0  0  0  0
   53.3938   24.1394   45.7372 N   0  0  0  0  0  0  0  0  0  0  0  0
   53.1790   22.8013   45.7831 C   0  0  0  0  0  0  0  0  0  0  0  0
   52.0407   22.3393   45.5132 O   0  0  0  0  0  0  0  0  0  0  0  0
   54.1926   21.9608   46.1154 N   0  0  0  0  0  0  0  0  0  0  0  0
   55.4281   22.4351   46.4147 C   0  0  0  0  0  0  0  0  0  0  0  0
   56.3447   21.6247   46.7179 O   0  0  0  0  0  0  0  0  0  0  0  0
   55.6724   23.8169   46.3960 C   0  0  0  0  0  0  0  0  0  0  0  0
   54.0510   26.5957   45.6882 H   0  0  0  0  0  0  0  0  0  0  0  0
   60.0805   27.9093   45.0317 C   0  0  0  0  0  0  0  0  0  0  0  0
   59.5169   29.2431   45.4602 C   0  0  0  0  0  0  0  0  0  0  0  0
   59.8806   29.7954   46.6985 C   0  0  0  0  0  0  0  0  0  0  0  0
   59.3864   31.0409   47.0930 C   0  0  0  0  0  0  0  0  0  0  0  0
   58.5203   31.7647   46.2515 C   0  0  0  0  0  0  0  0  0  0  0  0
   58.1622   31.2128   45.0109 C   0  0  0  0  0  0  0  0  0  0  0  0
   58.6605   29.9675   44.6164 C   0  0  0  0  0  0  0  0  0  0  0  0
   58.0019   33.0889   46.6691 C   0  0  0  0  0  0  0  0  0  0  0  0
   57.1571   33.1705   47.6032 O   0  0  0  0  0  0  0  0  0  0  0  0
   58.4627   34.2796   46.0202 N   0  0  0  0  0  0  0  0  0  0  0  0
   59.5085   35.1435   46.5602 C   0  0  0  0  0  0  0  0  0  0  0  0
   60.5082   34.3292   47.3373 C   0  0  0  0  0  0  0  0  0  0  0  0
   60.3544   34.1642   48.7219 C   0  0  0  0  0  0  0  0  0  0  0  0
   61.2676   33.3930   49.4468 C   0  0  0  0  0  0  0  0  0  0  0  0
   62.3382   32.7632   48.7921 C   0  0  0  0  0  0  0  0  0  0  0  0
   63.3378   31.9659   49.5759 C   0  0  0  0  0  0  0  0  0  0  0  0
   62.4972   32.9359   47.4091 C   0  0  0  0  0  0  0  0  0  0  0  0
   61.5854   33.7068   46.6859 C   0  0  0  0  0  0  0  0  0  0  0  0
  9 10  1  0
 10 11  1  0
 11 12  1  0
 12 13  2  0
 12 14  1  0
 14 15  1  0
 15 16  2  0
 15 17  1  0
 17  1  1  0
  1  2  2  0
  2  3  1  0
  3  4  2  0
  4  5  1  0
  4  6  1  0
  6 19  1  0
 19 20  1  0
 20 21  2  0
 21 22  1  0
 22 23  2  0
 23 26  1  0
 26 27  2  0
 26 28  1  0
 28 29  1  0
 29 30  1  0
 30 31  2  0
 31 32  1  0
 32 33  2  0
 33 34  1  0
 33 35  1  0
 35 36  2  0
 23 24  1  0
 24 25  2  0
  6  7  1  0
  7  8  2  0
 17 10  2  0
  7  2  1  0
 25 20  1  0
 36 30  1  0
  9 18  1  0
M  CHG 1  11  -1
M  CHG 1  14  -1
M  CHG 1  28  -1
M  END
> <UniqueID>
63

> <SMILES>
C=c1/c(=C\c2c(O)[n-]c(=O)[n-]c2=O)cc(C)n1Cc1ccc(C(=O)[N-]Cc2ccc(C)cc2)cc1

> <Energy>
103.38205151426821

> <Genealogy>
C=c1c(=Cc2c(O)[n-]c(=O)[n-]c2=O)cc(C)n1Cc1ccc(C(=O)[N-]Cc2ccc(C)cc2)cc1 (protonated)
C=c1/c(=C\c2c(O)[n-]c(=O)[n-]c2=O)cc(C)n1Cc1ccc(C(=O)[N-]Cc2ccc(C)cc2)cc1 (cis-trans isomerization)
C=c1/c(=C\c2c(O)[n-]c(=O)[n-]c2=O)cc(C)n1Cc1ccc(C(=O)[N-]Cc2ccc(C)cc2)cc1 (3D coordinates assigned)
C=c1/c(=C\c2c(O)[n-]c(=O)[n-]c2=O)cc(C)n1Cc1ccc(C(=O)[N-]Cc2ccc(C)cc2)cc1 (optimized conformer: 103.38205151426821 kcal/mol)

> <smiles>
C=c1c(=Cc2c(O)[nH]c(=O)[nH]c2=O)cc(C)n1Cc1ccc(C(=O)NCc2ccc(C)cc2)cc1

> <score_type>
oracle

> <origin>
adg

> <m_score__min__energy>
-15.34

> <m_primary>
energy

> <minimizedAffinity>
-8.58955

> <minimizedRMSD>
0.63620

> <CNNscore>
0.2063055485

> <CNNaffinity>
6.8097019196

> <CNN_VS>
1.4048793316

> <CNNaffinity_variance>
0.1069284976

$$$$
68:0


 24 25  0  0  0  0  0  0  0  0999 V2000
   58.2682   27.8133   45.8836 C   0  0  0  0  0  0  0  0  0  0  0  0
   59.0197   26.9890   46.6563 N   0  0  0  0  0  0  0  0  0  0  0  0
   58.4871   25.8674   47.2059 C   0  0  0  0  0  0  0  0  0  0  0  0
   59.2080   25.1259   47.9247 O   0  0  0  0  0  0  0  0  0  0  0  0
   57.1470   25.5365   46.9667 C   0  0  0  0  0  0  0  0  0  0  0  0
   56.3798   26.4236   46.1907 C   0  0  0  0  0  0  0  0  0  0  0  0
   55.0218   26.2081   45.9862 O   0  0  0  0  0  0  0  0  0  0  0  0
   56.9602   27.5308   45.6599 N   0  0  0  0  0  0  0  0  0  0  0  0
   58.9983   29.2865   45.1754 S   0  0  0  0  0  0  0  0  0  0  0  0
   57.7801   29.4243   43.8213 C   0  0  0  0  0  0  0  0  0  0  0  0
   55.2605   29.7445   43.9171 N   0  0  0  0  0  0  0  0  0  0  0  0
   56.5704   30.1831   44.2760 C   0  0  0  0  0  0  0  0  0  0  0  0
   56.7128   31.2335   44.9568 O   0  0  0  0  0  0  0  0  0  0  0  0
   54.4719   30.2497   44.2206 H   0  0  0  0  0  0  0  0  0  0  0  0
   55.1456   28.9368   43.3661 H   0  0  0  0  0  0  0  0  0  0  0  0
   56.5887   24.3584   47.5663 N   0  0  0  0  0  0  0  0  0  0  0  0
   56.7569   23.0192   47.0857 C   0  0  0  0  0  0  0  0  0  0  0  0
   56.9374   22.0720   47.8980 O   0  0  0  0  0  0  0  0  0  0  0  0
   56.6658   22.7517   45.6389 C   0  0  0  0  0  0  0  0  0  0  0  0
   55.6650   23.3436   44.8487 C   0  0  0  0  0  0  0  0  0  0  0  0
   55.6151   23.0610   43.4809 C   0  0  0  0  0  0  0  0  0  0  0  0
   56.5532   22.1987   42.9146 C   0  0  0  0  0  0  0  0  0  0  0  0
   57.5343   21.6278   43.7269 C   0  0  0  0  0  0  0  0  0  0  0  0
   57.5680   21.9131   45.0557 N   0  0  0  0  0  0  0  0  0  0  0  0
 11 12  1  0
 12 13  2  0
 12 10  1  0
 10  9  1  0
  9  1  1  0
  1  2  2  0
  2  3  1  0
  3  4  2  0
  3  5  1  0
  5 16  1  0
 16 17  1  0
 17 18  2  0
 17 19  1  0
 19 20  2  0
 20 21  1  0
 21 22  2  0
 22 23  1  0
 23 24  2  0
  5  6  2  0
  6  7  1  0
  6  8  1  0
  8  1  1  0
 24 19  1  0
 11 14  1  0
 11 15  1  0
M  CHG 1   7  -1
M  CHG 1   8  -1
M  CHG 1  16  -1
M  END
> <UniqueID>
64

> <SMILES>
NC(=O)CSc1nc(=O)c([N-]C(=O)c2ccccn2)c([O-])[n-]1

> <Energy>
31.867734979730997

> <Genealogy>
NC(=O)CSc1nc(=O)c([N-]C(=O)c2ccccn2)c([O-])[n-]1 (protonated)
NC(=O)CSc1nc(=O)c([N-]C(=O)c2ccccn2)c([O-])[n-]1 (3D coordinates assigned)
NC(=O)CSc1nc(=O)c([N-]C(=O)c2ccccn2)c([O-])[n-]1 (optimized conformer: 31.867734979730997 kcal/mol)

> <smiles>
NC(=O)CSc1nc(=O)c(NC(=O)c2ccccn2)c(O)[nH]1

> <score_type>
oracle

> <origin>
adg

> <m_score__min__energy>
-14.98

> <m_primary>
energy

> <minimizedAffinity>
-4.52529

> <minimizedRMSD>
0.71878

> <CNNscore>
0.2551929057

> <CNNaffinity>
5.1000385284

> <CNN_VS>
1.3014936447

> <CNNaffinity_variance>
0.3549847603

$$$$
72:0


 27 29  0  0  0  0  0  0  0  0999 V2000
   59.4004   27.0050   45.7900 C   0  0  0  0  0  0  0  0  0  0  0  0
   58.0451   27.1628   46.1226 C   0  0  0  0  0  0  0  0  0  0  0  0
   57.4454   28.3665   45.9186 N   0  0  0  0  0  0  0  0  0  0  0  0
   58.1192   29.4443   45.4249 C   0  0  0  0  0  0  0  0  0  0  0  0
   57.5278   30.5907   45.2457 N   0  0  0  0  0  0  0  0  0  0  0  0
   59.4748   29.3201   45.1051 C   0  0  0  0  0  0  0  0  0  0  0  0
   60.1137   28.0927   45.2855 C   0  0  0  0  0  0  0  0  0  0  0  0
   58.1353   31.8956   45.2649 C   0  0  0  0  0  0  0  0  0  0  0  0
   57.9878   32.6872   44.2923 O   0  0  0  0  0  0  0  0  0  0  0  0
   58.9445   32.3122   46.4344 C   0  0  0  0  0  0  0  0  0  0  0  0
   58.7636   31.7032   47.6868 C   0  0  0  0  0  0  0  0  0  0  0  0
   59.5266   32.0993   48.7889 C   0  0  0  0  0  0  0  0  0  0  0  0
   60.4956   33.1153   48.6715 C   0  0  0  0  0  0  0  0  0  0  0  0
   60.6732   33.7231   47.4118 C   0  0  0  0  0  0  0  0  0  0  0  0
   59.9087   33.3276   46.3115 C   0  0  0  0  0  0  0  0  0  0  0  0
   61.2889   33.5257   49.8165 N   0  0  0  0  0  0  0  0  0  0  0  0
   60.7892   33.3272   51.1826 C   0  0  0  0  0  0  0  0  0  0  0  0
   62.6077   34.1475   49.6276 C   0  0  0  0  0  0  0  0  0  0  0  0
   57.2739   26.1005   46.6161 O   0  0  0  0  0  0  0  0  0  0  0  0
   56.5240   25.2098   45.8361 C   0  0  0  0  0  0  0  0  0  0  0  0
   55.2078   25.0337   46.1280 N   0  0  0  0  0  0  0  0  0  0  0  0
   54.4352   24.1698   45.4177 C   0  0  0  0  0  0  0  0  0  0  0  0
   53.2181   24.0329   45.7037 O   0  0  0  0  0  0  0  0  0  0  0  0
   54.9775   23.4522   44.3997 N   0  0  0  0  0  0  0  0  0  0  0  0
   56.2908   23.5802   44.0804 C   0  0  0  0  0  0  0  0  0  0  0  0
   56.7768   22.8989   43.1387 O   0  0  0  0  0  0  0  0  0  0  0  0
   57.1010   24.4624   44.7974 C   0  0  0  0  0  0  0  0  0  0  0  0
  1  2  2  0
  2 19  1  0
 19 20  1  0
 20 21  1  0
 21 22  1  0
 22 23  2  0
 22 24  1  0
 24 25  1  0
 25 26  2  0
 25 27  1  0
  2  3  1  0
  3  4  1  0
  4  5  2  0
  5  8  1  0
  8  9  2  0
  8 10  1  0
 10 11  2  0
 11 12  1  0
 12 13  2  0
 13 16  1  0
 16 17  1  0
 16 18  1  0
 13 14  1  0
 14 15  2  0
  4  6  1  0
  6  7  2  0
  7  1  1  0
 27 20  2  0
 15 10  1  0
M  CHG 1   3  -1
M  CHG 1  21  -1
M  CHG 1  24  -1
M  END
> <UniqueID>
68

> <SMILES>
CN(C)c1ccc(C(=O)/N=c2/cccc(Oc3cc(=O)[n-]c(=O)[n-]3)[n-]2)cc1

> <Energy>
57.30884075078281

> <Genealogy>
CN(C)c1ccc(C(=O)N=c2cccc(Oc3cc(=O)[n-]c(=O)[n-]3)[n-]2)cc1 (protonated)
CN(C)c1ccc(C(=O)/N=c2/cccc(Oc3cc(=O)[n-]c(=O)[n-]3)[n-]2)cc1 (cis-trans isomerization)
CN(C)c1ccc(C(=O)/N=c2/cccc(Oc3cc(=O)[n-]c(=O)[n-]3)[n-]2)cc1 (3D coordinates assigned)
CN(C)c1ccc(C(=O)/N=c2/cccc(Oc3cc(=O)[n-]c(=O)[n-]3)[n-]2)cc1 (optimized conformer: 57.30884075078281 kcal/mol)

> <smiles>
CN(C)c1ccc(C(=O)N=c2cccc(Oc3cc(=O)[nH]c(=O)[nH]3)[nH]2)cc1

> <score_type>
oracle

> <origin>
adg

> <m_score__min__energy>
-14.58

> <m_primary>
energy

> <minimizedAffinity>
-8.76329

> <minimizedRMSD>
1.37391

> <CNNscore>
0.3833758533

> <CNNaffinity>
6.6799869537

> <CNN_VS>
2.5609457493

> <CNNaffinity_variance>
0.5883072019

$$$$
91:0


 26 28  0  0  0  0  0  0  0  0999 V2000
   57.6734   33.4849   45.8810 C   0  0  0  0  0  0  0  0  0  0  0  0
   57.5497   32.2103   44.7979 S   0  0  0  0  0  0  0  0  0  0  0  0
   58.3371   31.0589   45.7416 C   0  0  0  0  0  0  0  0  0  0  0  0
   58.7025   31.6728   46.9481 C   0  0  0  0  0  0  0  0  0  0  0  0
   58.3308   33.0258   47.0131 C   0  0  0  0  0  0  0  0  0  0  0  0
   59.4844   30.8682   48.3125 S   0  0  0  0  0  0  0  0  0  0  0  0
   60.9769   30.8802   48.1314 O   0  0  0  0  0  0  0  0  0  0  0  0
   59.0149   29.4430   48.3716 O   0  0  0  0  0  0  0  0  0  0  0  0
   59.0979   31.6654   49.8025 N   0  0  0  0  0  0  0  0  0  0  0  0
   58.6976   31.0412   50.8657 C   0  0  0  0  0  0  0  0  0  0  0  0
   59.3132   29.9685   51.4004 N   0  0  0  0  0  0  0  0  0  0  0  0
   58.6278   29.6487   52.4600 O   0  0  0  0  0  0  0  0  0  0  0  0
   57.6067   30.4605   52.6254 C   0  0  0  0  0  0  0  0  0  0  0  0
   56.6408   30.3848   53.7587 C   0  0  0  0  0  0  0  0  0  0  0  0
   57.5987   31.3956   51.6129 C   0  0  0  0  0  0  0  0  0  0  0  0
   58.5427   29.6636   45.3133 C   0  0  0  0  0  0  0  0  0  0  0  0
   59.6110   29.3502   44.7214 O   0  0  0  0  0  0  0  0  0  0  0  0
   57.5800   28.6521   45.6226 N   0  0  0  0  0  0  0  0  0  0  0  0
   57.8619   27.2592   45.8168 C   0  0  0  0  0  0  0  0  0  0  0  0
   59.2017   26.8552   45.8936 C   0  0  0  0  0  0  0  0  0  0  0  0
   59.5251   25.5116   46.1052 C   0  0  0  0  0  0  0  0  0  0  0  0
   60.8238   25.1268   46.1621 F   0  0  0  0  0  0  0  0  0  0  0  0
   58.5098   24.5640   46.2614 C   0  0  0  0  0  0  0  0  0  0  0  0
   57.1713   24.9617   46.2192 C   0  0  0  0  0  0  0  0  0  0  0  0
   56.8410   26.3047   46.0136 C   0  0  0  0  0  0  0  0  0  0  0  0
   55.5020   26.6816   46.0408 O   0  0  0  0  0  0  0  0  0  0  0  0
  1  2  1  0
  2  3  1  0
  3 16  1  0
 16 17  2  0
 16 18  1  0
 18 19  1  0
 19 20  2  0
 20 21  1  0
 21 22  1  0
 21 23  2  0
 23 24  1  0
 24 25  2  0
 25 26  1  0
  3  4  2  0
  4  6  1  0
  6  7  2  0
  6  8  2  0
  6  9  1  0
  9 10  2  0
 10 11  1  0
 11 12  1  0
 12 13  1  0
 13 14  1  0
 13 15  2  0
  4  5  1  0
  5  1  2  0
 25 19  1  0
 15 10  1  0
M  CHG 1  11  -1
M  CHG 1  18  -1
M  CHG 1  26  -1
M  END
> <UniqueID>
84

> <SMILES>
Cc1c/c(=N/S(=O)(=O)c2ccsc2C(=O)[N-]c2cc(F)ccc2[O-])[n-]o1

> <Energy>
101.35198269000495

> <Genealogy>
Cc1cc(=NS(=O)(=O)c2ccsc2C(=O)[N-]c2cc(F)ccc2[O-])[n-]o1 (protonated)
Cc1c/c(=N/S(=O)(=O)c2ccsc2C(=O)[N-]c2cc(F)ccc2[O-])[n-]o1 (cis-trans isomerization)
Cc1c/c(=N/S(=O)(=O)c2ccsc2C(=O)[N-]c2cc(F)ccc2[O-])[n-]o1 (3D coordinates assigned)
Cc1c/c(=N/S(=O)(=O)c2ccsc2C(=O)[N-]c2cc(F)ccc2[O-])[n-]o1 (optimized conformer: 101.35198269000495 kcal/mol)

> <smiles>
Cc1cc(=NS(=O)(=O)c2ccsc2C(=O)Nc2cc(F)ccc2O)[nH]o1

> <score_type>
oracle

> <origin>
adg

> <m_score__min__energy>
-14.43

> <m_primary>
energy

> <minimizedAffinity>
-6.10164

> <minimizedRMSD>
0.80767

> <CNNscore>
0.6622991562

> <CNNaffinity>
6.6079602242

> <CNN_VS>
4.3764462471

> <CNNaffinity_variance>
0.1254043728

$$$$
94:0


 33 36  0  0  0  0  0  0  0  0999 V2000
   56.8292   29.8821   45.2878 O   0  0  0  0  0  0  0  0  0  0  0  0
   57.8322   29.1573   45.5275 C   0  0  0  0  0  0  0  0  0  0  0  0
   59.0070   29.7315   46.1317 N   0  0  0  0  0  0  0  0  0  0  0  0
   59.8090   29.1667   46.2157 H   0  0  0  0  0  0  0  0  0  0  0  0
   59.0752   31.0829   46.6193 C   0  0  0  0  0  0  0  0  0  0  0  0
   58.8983   32.1460   45.7224 C   0  0  0  0  0  0  0  0  0  0  0  0
   58.9879   33.4673   46.1663 C   0  0  0  0  0  0  0  0  0  0  0  0
   59.2766   33.7402   47.5042 C   0  0  0  0  0  0  0  0  0  0  0  0
   59.4895   32.6894   48.4067 C   0  0  0  0  0  0  0  0  0  0  0  0
   59.3880   31.3627   47.9612 C   0  0  0  0  0  0  0  0  0  0  0  0
   59.9004   33.0322   50.0877 S   0  0  0  0  0  0  0  0  0  0  0  0
   59.8892   34.5227   50.2914 O   0  0  0  0  0  0  0  0  0  0  0  0
   58.8467   32.4415   50.9826 O   0  0  0  0  0  0  0  0  0  0  0  0
   61.4703   32.4026   50.5406 N   0  0  0  0  0  0  0  0  0  0  0  0
   62.1151   33.1864   51.6146 C   0  0  0  0  0  0  0  0  0  0  0  0
   63.2084   34.1321   51.0915 C   0  0  0  0  0  0  0  0  0  0  0  0
   62.9186   34.5405   49.7744 O   0  0  0  0  0  0  0  0  0  0  0  0
   63.0698   33.4460   48.8931 C   0  0  0  0  0  0  0  0  0  0  0  0
   62.3444   32.1669   49.3757 C   0  0  0  0  0  0  0  0  0  0  0  0
   57.7769   27.7190   45.1695 C   0  0  0  0  0  0  0  0  0  0  0  0
   57.9886   27.2826   43.8489 C   0  0  0  0  0  0  0  0  0  0  0  0
   57.9174   25.9233   43.5330 C   0  0  0  0  0  0  0  0  0  0  0  0
   57.6336   24.9842   44.5261 C   0  0  0  0  0  0  0  0  0  0  0  0
   57.4212   25.3987   45.8489 C   0  0  0  0  0  0  0  0  0  0  0  0
   57.4783   26.7662   46.1616 C   0  0  0  0  0  0  0  0  0  0  0  0
   57.0728   24.3932   46.9123 C   0  0  0  0  0  0  0  0  0  0  0  0
   56.1889   23.3274   46.3425 C   0  0  0  0  0  0  0  0  0  0  0  0
   56.5172   22.0245   46.2880 N   0  0  0  0  0  0  0  0  0  0  0  0
   55.4093   21.4466   45.7726 C   0  0  0  0  0  0  0  0  0  0  0  0
   55.3276   20.2095   45.5601 O   0  0  0  0  0  0  0  0  0  0  0  0
   54.3964   22.2991   45.5081 N   0  0  0  0  0  0  0  0  0  0  0  0
   54.9043   23.4847   45.8808 C   0  0  0  0  0  0  0  0  0  0  0  0
   54.2069   24.6828   45.8054 O   0  0  0  0  0  0  0  0  0  0  0  0
  1  2  2  0
  2  3  1  0
  3  5  1  0
  5  6  2  0
  6  7  1  0
  7  8  2  0
  8  9  1  0
  9 11  1  0
 11 12  2  0
 11 13  2  0
 11 14  1  0
 14 15  1  0
 15 16  1  0
 16 17  1  0
 17 18  1  0
 18 19  1  0
  9 10  2  0
  2 20  1  0
 20 21  2  0
 21 22  1  0
 22 23  2  0
 23 24  1  0
 24 26  1  0
 26 27  1  0
 27 28  1  0
 28 29  1  0
 29 30  2  0
 29 31  1  0
 31 32  1  0
 32 33  1  0
 24 25  2  0
 10  5  1  0
 25 20  1  0
 19 14  1  0
 32 27  2  0
  3  4  1  0
M  CHG 1  28  -1
M  CHG 1  31  -1
M  CHG 1  33  -1
M  END
> <UniqueID>
87

> <SMILES>
O=C(Nc1cccc(S(=O)(=O)N2CCOCC2)c1)c1cccc(Cc2[n-]c(=O)[n-]c2[O-])c1

> <Energy>
99.36199988402137

> <Genealogy>
O=C(Nc1cccc(S(=O)(=O)N2CCOCC2)c1)c1cccc(Cc2[n-]c(=O)[n-]c2[O-])c1 (protonated)
O=C(Nc1cccc(S(=O)(=O)N2CCOCC2)c1)c1cccc(Cc2[n-]c(=O)[n-]c2[O-])c1 (3D coordinates assigned)
O=C(Nc1cccc(S(=O)(=O)N2CCOCC2)c1)c1cccc(Cc2[n-]c(=O)[n-]c2[O-])c1 (nonaromatic ring conformer: 99.36199988402137 kcal/mol)

> <smiles>
O=C(Nc1cccc(S(=O)(=O)N2CCOCC2)c1)c1cccc(Cc2[nH]c(=O)[nH]c2O)c1

> <score_type>
oracle

> <origin>
adg

> <m_score__min__energy>
-19.77

> <m_primary>
energy

> <minimizedAffinity>
-7.76341

> <minimizedRMSD>
1.81956

> <CNNscore>
0.1684530228

> <CNNaffinity>
6.4387145042

> <CNN_VS>
1.0846209526

> <CNNaffinity_variance>
0.0788836703

$$$$
26:0


 33 36  0  0  0  0  0  0  0  0999 V2000
   59.0567   26.3774   46.0381 C   0  0  0  0  0  0  0  0  0  0  0  0
   58.2005   26.9283   45.0681 C   0  0  0  0  0  0  0  0  0  0  0  0
   57.8171   28.2695   45.1463 C   0  0  0  0  0  0  0  0  0  0  0  0
   58.2925   29.0766   46.1810 C   0  0  0  0  0  0  0  0  0  0  0  0
   59.1655   28.5485   47.1406 C   0  0  0  0  0  0  0  0  0  0  0  0
   59.5462   27.2020   47.0654 C   0  0  0  0  0  0  0  0  0  0  0  0
   59.7383   29.5639   48.4635 S   0  0  0  0  0  0  0  0  0  0  0  0
   58.5582   30.0626   49.2516 O   0  0  0  0  0  0  0  0  0  0  0  0
   60.6054   28.7244   49.3610 O   0  0  0  0  0  0  0  0  0  0  0  0
   60.6523   30.9232   47.8595 N   0  0  0  0  0  0  0  0  0  0  0  0
   62.0411   31.0557   48.3225 C   0  0  0  0  0  0  0  0  0  0  0  0
   62.8183   32.1026   47.5217 C   0  0  0  0  0  0  0  0  0  0  0  0
   62.0559   33.4237   47.4966 C   0  0  0  0  0  0  0  0  0  0  0  0
   60.6801   33.2215   46.9265 C   0  0  0  0  0  0  0  0  0  0  0  0
   60.0515   34.2713   46.2433 C   0  0  0  0  0  0  0  0  0  0  0  0
   58.7714   34.1002   45.7123 C   0  0  0  0  0  0  0  0  0  0  0  0
   58.1121   32.8811   45.8622 C   0  0  0  0  0  0  0  0  0  0  0  0
   58.7220   31.8332   46.5581 C   0  0  0  0  0  0  0  0  0  0  0  0
   60.0050   31.9939   47.1227 C   0  0  0  0  0  0  0  0  0  0  0  0
   59.4602   24.9536   45.9759 C   0  0  0  0  0  0  0  0  0  0  0  0
   60.6671   24.6640   45.7595 O   0  0  0  0  0  0  0  0  0  0  0  0
   58.5159   23.8860   46.1313 N   0  0  0  0  0  0  0  0  0  0  0  0
   56.1697   23.9446   45.1971 C   0  0  0  0  0  0  0  0  0  0  0  0
   55.5949   23.3958   44.0698 C   0  0  0  0  0  0  0  0  0  0  0  0
   56.5916   22.6666   43.4574 C   0  0  0  0  0  0  0  0  0  0  0  0
   56.4236   21.9360   42.2872 O   0  0  0  0  0  0  0  0  0  0  0  0
   57.7560   22.7356   44.1302 N   0  0  0  0  0  0  0  0  0  0  0  0
   57.4990   23.5306   45.1865 C   0  0  0  0  0  0  0  0  0  0  0  0
   55.5903   21.9223   41.8590 H   0  0  0  0  0  0  0  0  0  0  0  0
   54.8636   25.9618   45.9191 N   0  0  0  0  0  0  0  0  0  0  0  0
   55.4426   24.6978   46.2345 C   0  0  0  0  0  0  0  0  0  0  0  0
   55.2915   24.2201   47.3889 O   0  0  0  0  0  0  0  0  0  0  0  0
   54.3774   26.4668   46.6104 H   0  0  0  0  0  0  0  0  0  0  0  0
 30 31  1  0
 31 32  2  0
 31 23  1  0
 23 24  1  0
 24 25  2  0
 25 26  1  0
 25 27  1  0
 27 28  1  0
 28 22  1  0
 22 20  1  0
 20 21  2  0
 20  1  1  0
  1  2  2  0
  2  3  1  0
  3  4  2  0
  4  5  1  0
  5  7  1  0
  7  8  2  0
  7  9  2  0
  7 10  1  0
 10 11  1  0
 11 12  1  0
 12 13  1  0
 13 14  1  0
 14 15  2  0
 15 16  1  0
 16 17  2  0
 17 18  1  0
 18 19  2  0
  5  6  2  0
 28 23  2  0
  6  1  1  0
 19 10  1  0
 19 14  1  0
 30 33  1  0
 26 29  1  0
M  CHG 1  22  -1
M  CHG 1  27  -1
M  CHG 1  30  -1
M  END
> <UniqueID>
22

> <SMILES>
[NH-]C(=O)c1cc(O)[n-]c1[N-]C(=O)c1cccc(S(=O)(=O)N2CCCc3ccccc32)c1

> <Energy>
88.28071675719424

> <Genealogy>
[NH-]C(=O)c1cc(O)[n-]c1[N-]C(=O)c1cccc(S(=O)(=O)N2CCCc3ccccc32)c1 (protonated)
[NH-]C(=O)c1cc(O)[n-]c1[N-]C(=O)c1cccc(S(=O)(=O)N2CCCc3ccccc32)c1 (3D coordinates assigned)
[NH-]C(=O)c1cc(O)[n-]c1[N-]C(=O)c1cccc(S(=O)(=O)N2CCCc3ccccc32)c1 (nonaromatic ring conformer: 88.28071675719424 kcal/mol)

> <smiles>
NC(=O)c1cc(O)[nH]c1NC(=O)c1cccc(S(=O)(=O)N2CCCc3ccccc32)c1

> <score_type>
oracle

> <origin>
adg

> <m_score__min__energy>
-15.949999999999999

> <m_primary>
energy

> <minimizedAffinity>
-8.84954

> <minimizedRMSD>
0.37719

> <CNNscore>
0.3777090907

> <CNNaffinity>
6.8203525543

> <CNN_VS>
2.5761091709

> <CNNaffinity_variance>
0.0139414221

$$$$
50:0


 25 27  0  0  0  0  0  0  0  0999 V2000
   58.2671   27.0674   43.2169 C   0  0  0  0  0  0  0  0  0  0  0  0
   58.4890   26.5798   44.4496 C   0  0  0  0  0  0  0  0  0  0  0  0
   57.9507   25.3960   44.9675 C   0  0  0  0  0  0  0  0  0  0  0  0
   57.0960   24.5476   44.3620 C   0  0  0  0  0  0  0  0  0  0  0  0
   58.4271   25.2845   46.2634 C   0  0  0  0  0  0  0  0  0  0  0  0
   59.2388   26.3772   46.4835 C   0  0  0  0  0  0  0  0  0  0  0  0
   59.9071   26.6767   47.7919 C   0  0  0  0  0  0  0  0  0  0  0  0
   59.2810   27.1709   45.3853 N   0  0  0  0  0  0  0  0  0  0  0  0
   56.0934   23.7396   45.0937 C   0  0  0  0  0  0  0  0  0  0  0  0
   55.0883   24.3398   45.8696 C   0  0  0  0  0  0  0  0  0  0  0  0
   54.9997   25.7237   45.9762 O   0  0  0  0  0  0  0  0  0  0  0  0
   54.1996   23.5657   46.5445 N   0  0  0  0  0  0  0  0  0  0  0  0
   54.2735   22.2103   46.4978 C   0  0  0  0  0  0  0  0  0  0  0  0
   53.1913   21.3065   47.3195 S   0  0  0  0  0  0  0  0  0  0  0  0
   55.2541   21.6069   45.7790 N   0  0  0  0  0  0  0  0  0  0  0  0
   56.1651   22.3374   45.0857 C   0  0  0  0  0  0  0  0  0  0  0  0
   57.0646   21.7442   44.4309 O   0  0  0  0  0  0  0  0  0  0  0  0
   60.0016   28.4515   45.2898 C   0  0  0  0  0  0  0  0  0  0  0  0
   59.0348   29.6078   45.2936 C   0  0  0  0  0  0  0  0  0  0  0  0
   59.4032   30.8419   45.8560 C   0  0  0  0  0  0  0  0  0  0  0  0
   58.5001   31.9088   45.8685 C   0  0  0  0  0  0  0  0  0  0  0  0
   57.2243   31.7531   45.3183 C   0  0  0  0  0  0  0  0  0  0  0  0
   56.8504   30.5309   44.7533 C   0  0  0  0  0  0  0  0  0  0  0  0
   55.5834   30.3776   44.2055 O   0  0  0  0  0  0  0  0  0  0  0  0
   57.7527   29.4624   44.7391 C   0  0  0  0  0  0  0  0  0  0  0  0
  1  2  2  0
  2  3  1  0
  3  4  2  0
  4  9  1  0
  9 10  2  0
 10 11  1  0
 10 12  1  0
 12 13  1  0
 13 14  2  0
 13 15  1  0
 15 16  1  0
 16 17  2  0
  3  5  1  0
  5  6  2  0
  6  7  1  0
  6  8  1  0
  8 18  1  0
 18 19  1  0
 19 20  2  0
 20 21  1  0
 21 22  2  0
 22 23  1  0
 23 24  1  0
 23 25  2  0
  8  2  1  0
 25 19  1  0
 16  9  1  0
M  CHG 1  11  -1
M  CHG 1  12  -1
M  CHG 1  15  -1
M  CHG 1  24  -1
M  END
> <UniqueID>
44

> <SMILES>
C=c1/c(=C/c2c([O-])[n-]c(=S)[n-]c2=O)cc(C)n1Cc1cccc([O-])c1

> <Energy>
78.83461170709104

> <Genealogy>
C=c1c(=Cc2c([O-])[n-]c(=S)[n-]c2=O)cc(C)n1Cc1cccc([O-])c1 (protonated)
C=c1/c(=C/c2c([O-])[n-]c(=S)[n-]c2=O)cc(C)n1Cc1cccc([O-])c1 (cis-trans isomerization)
C=c1/c(=C/c2c([O-])[n-]c(=S)[n-]c2=O)cc(C)n1Cc1cccc([O-])c1 (3D coordinates assigned)
C=c1/c(=C/c2c([O-])[n-]c(=S)[n-]c2=O)cc(C)n1Cc1cccc([O-])c1 (optimized conformer: 78.83461170709104 kcal/mol)

> <smiles>
C=c1c(=Cc2c(O)[nH]c(=S)[nH]c2=O)cc(C)n1Cc1cccc(O)c1

> <score_type>
oracle

> <origin>
adg

> <m_score__min__energy>
-17.120000000000001

> <m_primary>
energy

> <minimizedAffinity>
-7.38070

> <minimizedRMSD>
0.89479

> <CNNscore>
0.1257205904

> <CNNaffinity>
5.6060471535

> <CNN_VS>
0.7047955394

> <CNNaffinity_variance>
0.0115324445

$$$$
51:0


 23 25  0  0  0  0  0  0  0  0999 V2000
   55.6415   29.3496   52.8863 N   0  0  0  0  0  0  0  0  0  0  0  0
   56.9269   29.4238   52.7158 C   0  0  0  0  0  0  0  0  0  0  0  0
   57.5235   29.8222   51.5711 N   0  0  0  0  0  0  0  0  0  0  0  0
   58.8828   29.8027   51.6711 C   0  0  0  0  0  0  0  0  0  0  0  0
   59.3620   29.3772   52.9145 C   0  0  0  0  0  0  0  0  0  0  0  0
   58.0436   29.0247   53.9003 S   0  0  0  0  0  0  0  0  0  0  0  0
   59.7465   30.1877   50.5257 C   0  0  0  0  0  0  0  0  0  0  0  0
   59.3292   29.9116   49.2084 C   0  0  0  0  0  0  0  0  0  0  0  0
   60.1256   30.2740   48.1165 C   0  0  0  0  0  0  0  0  0  0  0  0
   61.3464   30.9188   48.3250 C   0  0  0  0  0  0  0  0  0  0  0  0
   62.1157   31.2723   47.2661 F   0  0  0  0  0  0  0  0  0  0  0  0
   61.7732   31.2027   49.6240 C   0  0  0  0  0  0  0  0  0  0  0  0
   60.9793   30.8420   50.7203 C   0  0  0  0  0  0  0  0  0  0  0  0
   55.0319   31.3889   51.8904 O   0  0  0  0  0  0  0  0  0  0  0  0
   54.6794   30.3430   52.4983 C   0  0  0  0  0  0  0  0  0  0  0  0
   53.2322   30.1131   52.7888 C   0  0  0  0  0  0  0  0  0  0  0  0
   52.4145   30.3899   51.5648 C   0  0  0  0  0  0  0  0  0  0  0  0
   52.4040   29.6041   50.4717 N   0  0  0  0  0  0  0  0  0  0  0  0
   51.5870   30.2663   49.6220 C   0  0  0  0  0  0  0  0  0  0  0  0
   51.3170   29.8374   48.4706 O   0  0  0  0  0  0  0  0  0  0  0  0
   51.0898   31.4266   50.1032 N   0  0  0  0  0  0  0  0  0  0  0  0
   51.6292   31.4924   51.3305 C   0  0  0  0  0  0  0  0  0  0  0  0
   51.4121   32.5400   52.2176 O   0  0  0  0  0  0  0  0  0  0  0  0
 14 15  2  0
 15 16  1  0
 16 17  1  0
 17 18  1  0
 18 19  1  0
 19 20  2  0
 19 21  1  0
 21 22  1  0
 22 23  1  0
 15  1  1  0
  1  2  2  0
  2  3  1  0
  3  4  1  0
  4  7  1  0
  7  8  2  0
  8  9  1  0
  9 10  2  0
 10 11  1  0
 10 12  1  0
 12 13  2  0
  4  5  2  0
  5  6  1  0
 22 17  2  0
  6  2  1  0
 13  7  1  0
M  CHG 1   3  -1
M  CHG 1  18  -1
M  CHG 1  21  -1
M  CHG 1  23  -1
M  END
> <UniqueID>
45

> <SMILES>
O=C(Cc1[n-]c(=O)[n-]c1[O-])N=c1[n-]c(-c2ccc(F)cc2)cs1

> <Energy>
93.82858357986835

> <Genealogy>
O=C(Cc1[n-]c(=O)[n-]c1[O-])N=c1[n-]c(-c2ccc(F)cc2)cs1 (protonated)
O=C(Cc1[n-]c(=O)[n-]c1[O-])N=c1[n-]c(-c2ccc(F)cc2)cs1 (3D coordinates assigned)
O=C(Cc1[n-]c(=O)[n-]c1[O-])N=c1[n-]c(-c2ccc(F)cc2)cs1 (optimized conformer: 93.82858357986835 kcal/mol)

> <smiles>
O=C(Cc1[nH]c(=O)[nH]c1O)N=c1[nH]c(-c2ccc(F)cc2)cs1

> <score_type>
oracle

> <origin>
adg

> <m_score__min__energy>
-17.079999999999998

> <m_primary>
energy

> <minimizedAffinity>
-4.81458

> <minimizedRMSD>
1.19584

> <CNNscore>
0.0997020975

> <CNNaffinity>
4.4031600952

> <CNN_VS>
0.4390043020

> <CNNaffinity_variance>
0.1346049607

$$$$
54:0


 24 26  0  0  0  0  0  0  0  0999 V2000
   58.8206   28.2038   47.4466 C   0  0  0  0  0  0  0  0  0  0  0  0
   58.5367   28.9593   46.3748 C   0  0  0  0  0  0  0  0  0  0  0  0
   58.1924   28.4982   45.0903 C   0  0  0  0  0  0  0  0  0  0  0  0
   58.1755   27.2568   44.5641 C   0  0  0  0  0  0  0  0  0  0  0  0
   57.8860   29.6204   44.3463 C   0  0  0  0  0  0  0  0  0  0  0  0
   58.1027   30.7137   45.1560 C   0  0  0  0  0  0  0  0  0  0  0  0
   58.0317   32.1353   44.6799 C   0  0  0  0  0  0  0  0  0  0  0  0
   58.4662   30.3207   46.4028 N   0  0  0  0  0  0  0  0  0  0  0  0
   57.8669   26.0166   45.2911 C   0  0  0  0  0  0  0  0  0  0  0  0
   58.6120   24.8981   45.2630 N   0  0  0  0  0  0  0  0  0  0  0  0
   57.8774   23.9843   45.9287 C   0  0  0  0  0  0  0  0  0  0  0  0
   58.2599   22.7989   46.1145 O   0  0  0  0  0  0  0  0  0  0  0  0
   56.6855   24.4469   46.3645 N   0  0  0  0  0  0  0  0  0  0  0  0
   56.6890   25.7255   45.9403 C   0  0  0  0  0  0  0  0  0  0  0  0
   55.6330   26.6061   46.1350 O   0  0  0  0  0  0  0  0  0  0  0  0
   59.4965   24.7740   44.8488 H   0  0  0  0  0  0  0  0  0  0  0  0
   58.7930   31.2262   47.5218 C   0  0  0  0  0  0  0  0  0  0  0  0
   60.2040   31.7832   47.4449 C   0  0  0  0  0  0  0  0  0  0  0  0
   61.2864   30.8948   47.6010 C   0  0  0  0  0  0  0  0  0  0  0  0
   62.6031   31.3526   47.5268 C   0  0  0  0  0  0  0  0  0  0  0  0
   62.8619   32.7003   47.2812 C   0  0  0  0  0  0  0  0  0  0  0  0
   61.8043   33.5900   47.0956 C   0  0  0  0  0  0  0  0  0  0  0  0
   60.4780   33.1446   47.1653 C   0  0  0  0  0  0  0  0  0  0  0  0
   59.1083   34.4420   46.8351 Br  0  0  0  0  0  0  0  0  0  0  0  0
  1  2  2  0
  2  3  1  0
  3  4  2  0
  4  9  1  0
  9 10  1  0
 10 11  1  0
 11 12  2  0
 11 13  1  0
 13 14  1  0
 14 15  1  0
  3  5  1  0
  5  6  2  0
  6  7  1  0
  6  8  1  0
  8 17  1  0
 17 18  1  0
 18 19  2  0
 19 20  1  0
 20 21  2  0
 21 22  1  0
 22 23  2  0
 23 24  1  0
  8  2  1  0
 23 18  1  0
 14  9  2  0
 10 16  1  0
M  CHG 1  13  -1
M  CHG 1  15  -1
M  END
> <UniqueID>
48

> <SMILES>
C=c1c(=Cc2[nH]c(=O)[n-]c2[O-])cc(C)n1Cc1ccccc1Br

> <Energy>
113.22247975231086

> <Genealogy>
C=c1c(=Cc2[nH]c(=O)[n-]c2[O-])cc(C)n1Cc1ccccc1Br (protonated)
C=c1c(=Cc2[nH]c(=O)[n-]c2[O-])cc(C)n1Cc1ccccc1Br (3D coordinates assigned)
C=c1c(=Cc2[nH]c(=O)[n-]c2[O-])cc(C)n1Cc1ccccc1Br (optimized conformer: 113.22247975231086 kcal/mol)

> <smiles>
C=c1c(=Cc2[nH]c(=O)[nH]c2O)cc(C)n1Cc1ccccc1Br

> <score_type>
oracle

> <origin>
adg

> <m_score__min__energy>
-14.06

> <m_primary>
energy

> <minimizedAffinity>
-7.88474

> <minimizedRMSD>
0.84071

> <CNNscore>
0.4398803711

> <CNNaffinity>
6.7421145439

> <CNN_VS>
2.9657237530

> <CNNaffinity_variance>
0.1018094420

$$$$
61:0


 24 26  0  0  0  0  0  0  0  0999 V2000
   55.9920   25.2509   46.6943 N   0  0  0  0  0  0  0  0  0  0  0  0
   57.0312   25.9936   46.4420 C   0  0  0  0  0  0  0  0  0  0  0  0
   58.2942   25.5382   46.6813 N   0  0  0  0  0  0  0  0  0  0  0  0
   59.3957   26.2876   46.4096 C   0  0  0  0  0  0  0  0  0  0  0  0
   59.2549   27.5624   45.8556 C   0  0  0  0  0  0  0  0  0  0  0  0
   57.9730   28.0540   45.5975 C   0  0  0  0  0  0  0  0  0  0  0  0
   56.8537   27.2677   45.8832 C   0  0  0  0  0  0  0  0  0  0  0  0
   55.5786   27.7564   45.6173 O   0  0  0  0  0  0  0  0  0  0  0  0
   55.4154   24.2837   45.8033 C   0  0  0  0  0  0  0  0  0  0  0  0
   54.2029   24.3986   45.4871 O   0  0  0  0  0  0  0  0  0  0  0  0
   57.1500   20.8887   42.8173 O   0  0  0  0  0  0  0  0  0  0  0  0
   56.9216   21.6228   43.9757 C   0  0  0  0  0  0  0  0  0  0  0  0
   56.1336   22.7146   44.0188 N   0  0  0  0  0  0  0  0  0  0  0  0
   56.1800   23.1244   45.3037 C   0  0  0  0  0  0  0  0  0  0  0  0
   56.9773   22.2866   46.0656 C   0  0  0  0  0  0  0  0  0  0  0  0
   57.4594   21.3252   45.2068 C   0  0  0  0  0  0  0  0  0  0  0  0
   56.7502   21.1493   42.0110 H   0  0  0  0  0  0  0  0  0  0  0  0
   60.7005   28.5566   45.4898 S   0  0  0  0  0  0  0  0  0  0  0  0
   60.1298   29.9252   46.5000 C   0  0  0  0  0  0  0  0  0  0  0  0
   59.6369   31.0637   45.9706 N   0  0  0  0  0  0  0  0  0  0  0  0
   59.3059   31.8096   47.0447 C   0  0  0  0  0  0  0  0  0  0  0  0
   59.6000   31.1161   48.1989 C   0  0  0  0  0  0  0  0  0  0  0  0
   60.1342   29.9350   47.8492 N   0  0  0  0  0  0  0  0  0  0  0  0
   60.5146   28.8583   48.7562 C   0  0  0  0  0  0  0  0  0  0  0  0
 11 12  1  0
 12 13  1  0
 13 14  1  0
 14  9  1  0
  9 10  2  0
  9  1  1  0
  1  2  2  0
  2  3  1  0
  3  4  1  0
  4  5  2  0
  5 18  1  0
 18 19  1  0
 19 20  2  0
 20 21  1  0
 21 22  2  0
 22 23  1  0
 23 24  1  0
  5  6  1  0
  6  7  2  0
  7  8  1  0
 14 15  2  0
 15 16  1  0
 16 12  2  0
  7  2  1  0
 23 19  1  0
 11 17  1  0
M  CHG 1   3  -1
M  CHG 1   8  -1
M  CHG 1  13  -1
M  END
> <UniqueID>
55

> <SMILES>
Cn1ccnc1Sc1c[n-]/c(=N\C(=O)c2ccc(O)[n-]2)c([O-])c1

> <Energy>
91.24378119484743

> <Genealogy>
Cn1ccnc1Sc1c[n-]c(=NC(=O)c2ccc(O)[n-]2)c([O-])c1 (protonated)
Cn1ccnc1Sc1c[n-]/c(=N\C(=O)c2ccc(O)[n-]2)c([O-])c1 (cis-trans isomerization)
Cn1ccnc1Sc1c[n-]/c(=N\C(=O)c2ccc(O)[n-]2)c([O-])c1 (3D coordinates assigned)
Cn1ccnc1Sc1c[n-]/c(=N\C(=O)c2ccc(O)[n-]2)c([O-])c1 (optimized conformer: 91.24378119484743 kcal/mol)

> <smiles>
Cn1ccnc1Sc1c[nH]c(=NC(=O)c2ccc(O)[nH]2)c(O)c1

> <score_type>
oracle

> <origin>
adg

> <m_score__min__energy>
-14.199999999999999

> <m_primary>
energy

> <minimizedAffinity>
-4.63991

> <minimizedRMSD>
0.97085

> <CNNscore>
0.0475586578

> <CNNaffinity>
4.7716555595

> <CNN_VS>
0.2269335389

> <CNNaffinity_variance>
0.1384684294

$$$$
70:0


 26 28  0  0  0  0  0  0  0  0999 V2000
   58.7868   31.3602   50.4040 C   0  0  0  0  0  0  0  0  0  0  0  0
   57.5892   31.6704   50.9743 N   0  0  0  0  0  0  0  0  0  0  0  0
   57.3500   30.9491   52.0899 C   0  0  0  0  0  0  0  0  0  0  0  0
   56.2424   31.0680   52.7603 N   0  0  0  0  0  0  0  0  0  0  0  0
   58.6044   29.8702   52.4081 S   0  0  0  0  0  0  0  0  0  0  0  0
   59.5037   30.3480   51.0668 C   0  0  0  0  0  0  0  0  0  0  0  0
   60.2575   33.5399   47.0240 C   0  0  0  0  0  0  0  0  0  0  0  0
   59.6728   32.2838   46.8419 C   0  0  0  0  0  0  0  0  0  0  0  0
   59.1873   31.5693   47.9414 C   0  0  0  0  0  0  0  0  0  0  0  0
   59.2691   32.1177   49.2326 C   0  0  0  0  0  0  0  0  0  0  0  0
   59.8778   33.3697   49.4111 C   0  0  0  0  0  0  0  0  0  0  0  0
   60.3630   34.0808   48.3092 C   0  0  0  0  0  0  0  0  0  0  0  0
   60.7640   29.6884   50.6637 C   0  0  0  0  0  0  0  0  0  0  0  0
   60.7090   28.5704   50.0861 O   0  0  0  0  0  0  0  0  0  0  0  0
   62.1026   30.3242   50.8754 C   0  0  0  0  0  0  0  0  0  0  0  0
   55.0699   30.2476   52.6442 C   0  0  0  0  0  0  0  0  0  0  0  0
   55.1974   29.0687   52.2162 O   0  0  0  0  0  0  0  0  0  0  0  0
   53.6962   30.7659   52.9795 C   0  0  0  0  0  0  0  0  0  0  0  0
   52.7895   30.7030   51.7864 C   0  0  0  0  0  0  0  0  0  0  0  0
   51.7418   31.5462   51.4958 C   0  0  0  0  0  0  0  0  0  0  0  0
   51.2969   32.5928   52.2941 O   0  0  0  0  0  0  0  0  0  0  0  0
   51.1954   31.2279   50.3072 N   0  0  0  0  0  0  0  0  0  0  0  0
   51.9501   30.1841   49.9016 C   0  0  0  0  0  0  0  0  0  0  0  0
   51.7627   29.5869   48.8080 O   0  0  0  0  0  0  0  0  0  0  0  0
   52.9272   29.8428   50.7653 N   0  0  0  0  0  0  0  0  0  0  0  0
   53.5926   29.1237   50.6688 H   0  0  0  0  0  0  0  0  0  0  0  0
  7  8  2  0
  8  9  1  0
  9 10  2  0
 10  1  1  0
  1  2  1  0
  2  3  1  0
  3  4  2  0
  4 16  1  0
 16 17  2  0
 16 18  1  0
 18 19  1  0
 19 20  2  0
 20 21  1  0
 20 22  1  0
 22 23  1  0
 23 24  2  0
 23 25  1  0
  3  5  1  0
  5  6  1  0
  6 13  1  0
 13 14  2  0
 13 15  1  0
 10 11  1  0
 11 12  2  0
 12  7  1  0
  6  1  2  0
 25 19  1  0
 25 26  1  0
M  CHG 1   2  -1
M  CHG 1  21  -1
M  CHG 1  22  -1
M  END
> <UniqueID>
64

> <SMILES>
CC(=O)c1s/c(=N\C(=O)Cc2[nH]c(=O)[n-]c2[O-])[n-]c1-c1ccccc1

> <Energy>
111.27783638372449

> <Genealogy>
CC(=O)c1sc(=NC(=O)Cc2[nH]c(=O)[n-]c2[O-])[n-]c1-c1ccccc1 (protonated)
CC(=O)c1s/c(=N\C(=O)Cc2[nH]c(=O)[n-]c2[O-])[n-]c1-c1ccccc1 (cis-trans isomerization)
CC(=O)c1s/c(=N\C(=O)Cc2[nH]c(=O)[n-]c2[O-])[n-]c1-c1ccccc1 (3D coordinates assigned)
CC(=O)c1s/c(=N\C(=O)Cc2[nH]c(=O)[n-]c2[O-])[n-]c1-c1ccccc1 (optimized conformer: 111.27783638372449 kcal/mol)

> <smiles>
CC(=O)c1sc(=NC(=O)Cc2[nH]c(=O)[nH]c2O)[nH]c1-c1ccccc1

> <score_type>
oracle

> <origin>
adg

> <m_score__min__energy>
-15.470000000000001

> <m_primary>
energy

> <minimizedAffinity>
-5.96665

> <minimizedRMSD>
0.80436

> <CNNscore>
0.4379329681

> <CNNaffinity>
5.4813919067

> <CNN_VS>
2.4004821777

> <CNNaffinity_variance>
0.0081266956

$$$$
77:0


 30 33  0  0  0  0  0  0  0  0999 V2000
   59.4407   26.4650   46.5341 C   0  0  0  0  0  0  0  0  0  0  0  0
   59.8142   27.5821   47.1880 C   0  0  0  0  0  0  0  0  0  0  0  0
   59.8915   27.7420   48.5654 C   0  0  0  0  0  0  0  0  0  0  0  0
   60.3555   29.0220   48.7886 C   0  0  0  0  0  0  0  0  0  0  0  0
   60.6115   29.6104   50.1437 C   0  0  0  0  0  0  0  0  0  0  0  0
   60.5876   29.6531   47.6158 N   0  0  0  0  0  0  0  0  0  0  0  0
   60.2624   28.7819   46.6264 C   0  0  0  0  0  0  0  0  0  0  0  0
   60.3859   29.0524   45.3176 C   0  0  0  0  0  0  0  0  0  0  0  0
   56.7531   27.5957   45.4895 O   0  0  0  0  0  0  0  0  0  0  0  0
   56.9121   26.3769   46.1394 C   0  0  0  0  0  0  0  0  0  0  0  0
   55.9123   25.5008   46.3403 N   0  0  0  0  0  0  0  0  0  0  0  0
   56.5420   24.4633   46.9303 C   0  0  0  0  0  0  0  0  0  0  0  0
   55.9395   23.4150   47.2803 O   0  0  0  0  0  0  0  0  0  0  0  0
   57.8697   24.6317   47.1090 N   0  0  0  0  0  0  0  0  0  0  0  0
   58.0965   25.8657   46.6253 C   0  0  0  0  0  0  0  0  0  0  0  0
   55.9050   27.8612   45.1926 H   0  0  0  0  0  0  0  0  0  0  0  0
   61.0701   30.9993   47.4655 C   0  0  0  0  0  0  0  0  0  0  0  0
   62.4382   31.2780   47.5990 C   0  0  0  0  0  0  0  0  0  0  0  0
   62.9061   32.5857   47.4490 C   0  0  0  0  0  0  0  0  0  0  0  0
   62.0123   33.6226   47.1664 C   0  0  0  0  0  0  0  0  0  0  0  0
   60.6396   33.3600   47.0410 C   0  0  0  0  0  0  0  0  0  0  0  0
   60.1745   32.0434   47.1915 C   0  0  0  0  0  0  0  0  0  0  0  0
   59.6869   34.4735   46.7035 C   0  0  0  0  0  0  0  0  0  0  0  0
   59.2335   34.3470   45.3223 N   0  0  0  0  0  0  0  0  0  0  0  0
   58.1320   33.5254   44.9204 C   0  0  0  0  0  0  0  0  0  0  0  0
   56.9484   33.9034   45.1348 O   0  0  0  0  0  0  0  0  0  0  0  0
   58.3923   32.1633   44.3326 C   0  0  0  0  0  0  0  0  0  0  0  0
   57.5113   31.0494   44.8995 C   0  0  0  0  0  0  0  0  0  0  0  0
   56.9027   30.8268   43.5212 C   0  0  0  0  0  0  0  0  0  0  0  0
   57.7625   31.9484   42.9557 C   0  0  0  0  0  0  0  0  0  0  0  0
  9 10  1  0
 10 11  1  0
 11 12  1  0
 12 13  2  0
 12 14  1  0
 14 15  1  0
 15  1  1  0
  1  2  2  0
  2  3  1  0
  3  4  2  0
  4  5  1  0
  4  6  1  0
  6 17  1  0
 17 18  2  0
 18 19  1  0
 19 20  2  0
 20 21  1  0
 21 23  1  0
 23 24  1  0
 24 25  1  0
 25 26  2  0
 25 27  1  0
 27 28  1  0
 28 29  1  0
 29 30  1  0
 21 22  2  0
  6  7  1  0
  7  8  2  0
 15 10  2  0
  7  2  1  0
 22 17  1  0
 30 27  1  0
  9 16  1  0
M  CHG 1  11  -1
M  CHG 1  14  -1
M  CHG 1  24  -1
M  END
> <UniqueID>
70

> <SMILES>
C=c1/c(=C/c2[n-]c(=O)[n-]c2O)cc(C)n1-c1cccc(C[N-]C(=O)C2CCC2)c1

> <Energy>
179.83417926155255

> <Genealogy>
C=c1c(=Cc2[n-]c(=O)[n-]c2O)cc(C)n1-c1cccc(C[N-]C(=O)C2CCC2)c1 (protonated)
C=c1/c(=C/c2[n-]c(=O)[n-]c2O)cc(C)n1-c1cccc(C[N-]C(=O)C2CCC2)c1 (cis-trans isomerization)
C=c1/c(=C/c2[n-]c(=O)[n-]c2O)cc(C)n1-c1cccc(C[N-]C(=O)C2CCC2)c1 (3D coordinates assigned)
C=c1/c(=C/c2[n-]c(=O)[n-]c2O)cc(C)n1-c1cccc(C[N-]C(=O)C2CCC2)c1 (nonaromatic ring conformer: 179.83417926155255 kcal/mol)

> <smiles>
C=c1c(=Cc2[nH]c(=O)[nH]c2O)cc(C)n1-c1cccc(CNC(=O)C2CCC2)c1

> <score_type>
oracle

> <origin>
adg

> <m_score__min__energy>
-14.99

> <m_primary>
energy

> <minimizedAffinity>
-9.16662

> <minimizedRMSD>
0.77666

> <CNNscore>
0.5168305635

> <CNNaffinity>
6.9953193665

> <CNN_VS>
3.6153948307

> <CNNaffinity_variance>
0.0230724085

$$$$
84:0


 29 31  0  0  0  0  0  0  0  0999 V2000
   60.0170   31.0629   48.4882 C   0  0  0  0  0  0  0  0  0  0  0  0
   60.1860   32.3662   48.9810 C   0  0  0  0  0  0  0  0  0  0  0  0
   59.7172   32.7070   50.2513 C   0  0  0  0  0  0  0  0  0  0  0  0
   59.0916   31.7467   51.0542 C   0  0  0  0  0  0  0  0  0  0  0  0
   58.8956   30.4509   50.5584 C   0  0  0  0  0  0  0  0  0  0  0  0
   59.3480   30.1129   49.2793 C   0  0  0  0  0  0  0  0  0  0  0  0
   58.5677   32.1684   52.6829 S   0  0  0  0  0  0  0  0  0  0  0  0
   59.5646   33.1134   53.2915 O   0  0  0  0  0  0  0  0  0  0  0  0
   57.2189   32.8325   52.6346 O   0  0  0  0  0  0  0  0  0  0  0  0
   58.4682   30.7336   53.6577 N   0  0  0  0  0  0  0  0  0  0  0  0
   57.2816   30.7837   54.5115 C   0  0  0  0  0  0  0  0  0  0  0  0
   56.4170   29.5436   54.2769 C   0  0  0  0  0  0  0  0  0  0  0  0
   55.0801   29.9189   53.6912 C   0  0  0  0  0  0  0  0  0  0  0  0
   54.9706   30.2432   52.3280 C   0  0  0  0  0  0  0  0  0  0  0  0
   53.7203   30.5245   51.7695 C   0  0  0  0  0  0  0  0  0  0  0  0
   52.5699   30.4783   52.5621 C   0  0  0  0  0  0  0  0  0  0  0  0
   51.3283   30.7506   52.0026 O   0  0  0  0  0  0  0  0  0  0  0  0
   52.6704   30.1544   53.9189 C   0  0  0  0  0  0  0  0  0  0  0  0
   53.9197   29.8709   54.4826 C   0  0  0  0  0  0  0  0  0  0  0  0
   60.5197   30.6972   47.1449 C   0  0  0  0  0  0  0  0  0  0  0  0
   61.7453   30.8306   46.8872 O   0  0  0  0  0  0  0  0  0  0  0  0
   59.6857   26.5833   46.4238 C   0  0  0  0  0  0  0  0  0  0  0  0
   60.0887   27.8795   46.4430 N   0  0  0  0  0  0  0  0  0  0  0  0
   59.2584   28.9025   46.0837 C   0  0  0  0  0  0  0  0  0  0  0  0
   59.6587   30.1416   46.1392 N   0  0  0  0  0  0  0  0  0  0  0  0
   57.9428   28.6150   45.6917 C   0  0  0  0  0  0  0  0  0  0  0  0
   57.0687   29.6348   45.3306 O   0  0  0  0  0  0  0  0  0  0  0  0
   57.5121   27.2845   45.6635 C   0  0  0  0  0  0  0  0  0  0  0  0
   58.3860   26.2613   46.0322 C   0  0  0  0  0  0  0  0  0  0  0  0
 22 23  1  0
 23 24  1  0
 24 25  2  0
 25 20  1  0
 20 21  2  0
 20  1  1  0
  1  2  2  0
  2  3  1  0
  3  4  2  0
  4  7  1  0
  7  8  2  0
  7  9  2  0
  7 10  1  0
 10 11  1  0
 11 12  1  0
 12 13  1  0
 13 14  2  0
 14 15  1  0
 15 16  2  0
 16 17  1  0
 16 18  1  0
 18 19  2  0
  4  5  1  0
  5  6  2  0
 24 26  1  0
 26 27  1  0
 26 28  2  0
 28 29  1  0
 29 22  2  0
  6  1  1  0
 19 13  1  0
M  CHG 1  10  -1
M  CHG 1  17  -1
M  CHG 1  23  -1
M  CHG 1  27  -1
M  END
> <UniqueID>
76

> <SMILES>
O=C(/N=c1\[n-]cccc1[O-])c1ccc(S(=O)(=O)[N-]CCc2ccc([O-])cc2)cc1

> <Energy>
47.16508509118419

> <Genealogy>
O=C(N=c1[n-]cccc1[O-])c1ccc(S(=O)(=O)[N-]CCc2ccc([O-])cc2)cc1 (protonated)
O=C(/N=c1\[n-]cccc1[O-])c1ccc(S(=O)(=O)[N-]CCc2ccc([O-])cc2)cc1 (cis-trans isomerization)
O=C(/N=c1\[n-]cccc1[O-])c1ccc(S(=O)(=O)[N-]CCc2ccc([O-])cc2)cc1 (3D coordinates assigned)
O=C(/N=c1\[n-]cccc1[O-])c1ccc(S(=O)(=O)[N-]CCc2ccc([O-])cc2)cc1 (optimized conformer: 47.16508509118419 kcal/mol)

> <smiles>
O=C(N=c1[nH]cccc1O)c1ccc(S(=O)(=O)NCCc2ccc(O)cc2)cc1

> <score_type>
oracle

> <origin>
adg

> <m_score__min__energy>
-17.27

> <m_primary>
energy

> <minimizedAffinity>
-6.59131

> <minimizedRMSD>
1.48092

> <CNNscore>
0.1238622591

> <CNNaffinity>
5.5096964836

> <CNN_VS>
0.6824434400

> <CNNaffinity_variance>
0.2455228120

$$$$
0:0


 32 35  0  0  0  0  0  0  0  0999 V2000
   58.2124   26.2876   44.9181 C   0  0  0  0  0  0  0  0  0  0  0  0
   58.2680   27.6084   45.1790 C   0  0  0  0  0  0  0  0  0  0  0  0
   57.6145   28.5520   44.4023 C   0  0  0  0  0  0  0  0  0  0  0  0
   57.8232   29.7765   44.9996 C   0  0  0  0  0  0  0  0  0  0  0  0
   57.2833   31.0779   44.4875 C   0  0  0  0  0  0  0  0  0  0  0  0
   58.6105   29.6400   46.0891 N   0  0  0  0  0  0  0  0  0  0  0  0
   58.9167   28.3213   46.2006 C   0  0  0  0  0  0  0  0  0  0  0  0
   59.8133   27.8483   47.0814 C   0  0  0  0  0  0  0  0  0  0  0  0
   55.3207   26.3410   46.0516 O   0  0  0  0  0  0  0  0  0  0  0  0
   56.2397   25.3081   46.2154 C   0  0  0  0  0  0  0  0  0  0  0  0
   55.9545   24.1607   46.8519 N   0  0  0  0  0  0  0  0  0  0  0  0
   57.0970   23.4529   46.7217 C   0  0  0  0  0  0  0  0  0  0  0  0
   57.2316   22.2933   47.1887 O   0  0  0  0  0  0  0  0  0  0  0  0
   58.0793   24.0837   46.0427 N   0  0  0  0  0  0  0  0  0  0  0  0
   57.5387   25.2764   45.7463 C   0  0  0  0  0  0  0  0  0  0  0  0
   54.4590   26.2629   46.4114 H   0  0  0  0  0  0  0  0  0  0  0  0
   59.0614   30.7127   46.9350 C   0  0  0  0  0  0  0  0  0  0  0  0
   59.5241   31.9092   46.3701 C   0  0  0  0  0  0  0  0  0  0  0  0
   59.9507   32.9570   47.1892 C   0  0  0  0  0  0  0  0  0  0  0  0
   59.9046   32.8284   48.5868 C   0  0  0  0  0  0  0  0  0  0  0  0
   59.4630   31.6212   49.1512 C   0  0  0  0  0  0  0  0  0  0  0  0
   59.0355   30.5714   48.3320 C   0  0  0  0  0  0  0  0  0  0  0  0
   58.5842   29.4242   48.8962 F   0  0  0  0  0  0  0  0  0  0  0  0
   60.3567   33.9287   49.4594 C   0  0  0  0  0  0  0  0  0  0  0  0
   59.5070   34.5488   50.1525 O   0  0  0  0  0  0  0  0  0  0  0  0
   61.7315   34.3237   49.5460 N   0  0  0  0  0  0  0  0  0  0  0  0
   63.0269   33.3005   50.0803 S   0  0  0  0  0  0  0  0  0  0  0  0
   63.9202   34.0621   51.0178 O   0  0  0  0  0  0  0  0  0  0  0  0
   62.4699   32.0940   50.7870 O   0  0  0  0  0  0  0  0  0  0  0  0
   63.9782   32.8034   48.6457 C   0  0  0  0  0  0  0  0  0  0  0  0
   63.2414   31.9140   47.6597 C   0  0  0  0  0  0  0  0  0  0  0  0
   63.4867   33.3777   47.3276 C   0  0  0  0  0  0  0  0  0  0  0  0
  9 10  1  0
 10 11  1  0
 11 12  1  0
 12 13  2  0
 12 14  1  0
 14 15  1  0
 15  1  1  0
  1  2  2  0
  2  3  1  0
  3  4  2  0
  4  5  1  0
  4  6  1  0
  6 17  1  0
 17 18  2  0
 18 19  1  0
 19 20  2  0
 20 24  1  0
 24 25  2  0
 24 26  1  0
 26 27  1  0
 27 28  2  0
 27 29  2  0
 27 30  1  0
 30 31  1  0
 31 32  1  0
 20 21  1  0
 21 22  2  0
 22 23  1  0
  6  7  1  0
  7  8  2  0
 15 10  2  0
  7  2  1  0
 22 17  1  0
 32 30  1  0
  9 16  1  0
M  CHG 1  11  -1
M  CHG 1  14  -1
M  CHG 1  26  -1
M  END
> <UniqueID>
1

> <SMILES>
C=c1/c(=C\c2[n-]c(=O)[n-]c2O)cc(C)n1-c1ccc(C(=O)[N-]S(=O)(=O)C2CC2)cc1F

> <Energy>
394.0809019125506

> <Genealogy>
C=c1c(=Cc2[n-]c(=O)[n-]c2O)cc(C)n1-c1ccc(C(=O)[N-]S(=O)(=O)C2CC2)cc1F (protonated)
C=c1/c(=C\c2[n-]c(=O)[n-]c2O)cc(C)n1-c1ccc(C(=O)[N-]S(=O)(=O)C2CC2)cc1F (cis-trans isomerization)
C=c1/c(=C\c2[n-]c(=O)[n-]c2O)cc(C)n1-c1ccc(C(=O)[N-]S(=O)(=O)C2CC2)cc1F (3D coordinates assigned)
C=c1/c(=C\c2[n-]c(=O)[n-]c2O)cc(C)n1-c1ccc(C(=O)[N-]S(=O)(=O)C2CC2)cc1F (nonaromatic ring conformer: 394.0809019125506 kcal/mol)

> <smiles>
C=c1c(=Cc2[nH]c(=O)[nH]c2O)cc(C)n1-c1ccc(C(=O)NS(=O)(=O)C2CC2)cc1F

> <score_type>
oracle

> <origin>
adg

> <m_score__min__energy>
-14.26

> <m_primary>
energy

> <minimizedAffinity>
-9.02824

> <minimizedRMSD>
0.47806

> <CNNscore>
0.4597190917

> <CNNaffinity>
7.2489314079

> <CNN_VS>
3.3324720860

> <CNNaffinity_variance>
0.0586881153

$$$$
16:0


 33 35  0  0  0  0  0  0  0  0999 V2000
   58.7194   30.0468   47.0760 N   0  0  0  0  0  0  0  0  0  0  0  0
   58.1516   30.3105   45.7836 C   0  0  0  0  0  0  0  0  0  0  0  0
   57.8943   29.2146   44.9503 C   0  0  0  0  0  0  0  0  0  0  0  0
   57.2787   29.3944   43.7094 C   0  0  0  0  0  0  0  0  0  0  0  0
   56.9316   30.6770   43.2803 C   0  0  0  0  0  0  0  0  0  0  0  0
   57.2277   31.7855   44.0790 C   0  0  0  0  0  0  0  0  0  0  0  0
   57.8502   31.6234   45.3264 C   0  0  0  0  0  0  0  0  0  0  0  0
   58.2139   32.8323   46.0936 C   0  0  0  0  0  0  0  0  0  0  0  0
   57.4856   33.2205   47.0492 O   0  0  0  0  0  0  0  0  0  0  0  0
   59.4073   33.5559   45.7617 N   0  0  0  0  0  0  0  0  0  0  0  0
   60.1486   34.3855   46.7060 C   0  0  0  0  0  0  0  0  0  0  0  0
   61.2110   33.5850   47.4055 C   0  0  0  0  0  0  0  0  0  0  0  0
   62.4846   33.4389   46.8294 C   0  0  0  0  0  0  0  0  0  0  0  0
   63.4782   32.7076   47.4893 C   0  0  0  0  0  0  0  0  0  0  0  0
   63.2091   32.1178   48.7270 C   0  0  0  0  0  0  0  0  0  0  0  0
   61.9461   32.2624   49.3075 C   0  0  0  0  0  0  0  0  0  0  0  0
   60.9478   32.9948   48.6528 C   0  0  0  0  0  0  0  0  0  0  0  0
   60.0647   29.6157   47.3094 C   0  0  0  0  0  0  0  0  0  0  0  0
   61.0236   30.1275   46.6679 O   0  0  0  0  0  0  0  0  0  0  0  0
   60.3267   28.5584   48.2888 C   0  0  0  0  0  0  0  0  0  0  0  0
   60.3733   28.8388   49.5161 O   0  0  0  0  0  0  0  0  0  0  0  0
   60.5076   27.2432   47.8538 O   0  0  0  0  0  0  0  0  0  0  0  0
   60.1061   26.8020   46.5608 C   0  0  0  0  0  0  0  0  0  0  0  0
   58.2360   25.9918   47.7922 O   0  0  0  0  0  0  0  0  0  0  0  0
   58.7713   26.1491   46.6619 C   0  0  0  0  0  0  0  0  0  0  0  0
   58.1157   25.7080   45.4677 N   0  0  0  0  0  0  0  0  0  0  0  0
   57.3487   24.5032   45.3188 C   0  0  0  0  0  0  0  0  0  0  0  0
   57.9453   23.2883   44.9319 C   0  0  0  0  0  0  0  0  0  0  0  0
   57.1684   22.1303   44.8036 C   0  0  0  0  0  0  0  0  0  0  0  0
   55.7968   22.1790   45.0578 C   0  0  0  0  0  0  0  0  0  0  0  0
   55.2039   23.3736   45.4729 C   0  0  0  0  0  0  0  0  0  0  0  0
   55.9766   24.5329   45.6069 C   0  0  0  0  0  0  0  0  0  0  0  0
   55.3746   25.7162   46.0169 O   0  0  0  0  0  0  0  0  0  0  0  0
 24 25  2  0
 25 23  1  0
 23 22  1  0
 22 20  1  0
 20 21  2  0
 20 18  1  0
 18 19  2  0
 18  1  1  0
  1  2  1  0
  2  3  2  0
  3  4  1  0
  4  5  2  0
  5  6  1  0
  6  7  2  0
  7  8  1  0
  8  9  2  0
  8 10  1  0
 10 11  1  0
 11 12  1  0
 12 13  2  0
 13 14  1  0
 14 15  2  0
 15 16  1  0
 16 17  2  0
 25 26  1  0
 26 27  1  0
 27 28  2  0
 28 29  1  0
 29 30  2  0
 30 31  1  0
 31 32  2  0
 32 33  1  0
  7  2  1  0
 17 12  1  0
 32 27  1  0
M  CHG 1   1  -1
M  CHG 1  10  -1
M  CHG 1  26  -1
M  CHG 1  33  -1
M  END
> <UniqueID>
16

> <SMILES>
O=C(COC(=O)C(=O)[N-]c1ccccc1C(=O)[N-]Cc1ccccc1)[N-]c1ccccc1[O-]

> <Energy>
61.05448506024187

> <Genealogy>
O=C(COC(=O)C(=O)[N-]c1ccccc1C(=O)[N-]Cc1ccccc1)[N-]c1ccccc1[O-] (protonated)
O=C(COC(=O)C(=O)[N-]c1ccccc1C(=O)[N-]Cc1ccccc1)[N-]c1ccccc1[O-] (3D coordinates assigned)
O=C(COC(=O)C(=O)[N-]c1ccccc1C(=O)[N-]Cc1ccccc1)[N-]c1ccccc1[O-] (optimized conformer: 61.05448506024187 kcal/mol)

> <smiles>
O=C(COC(=O)C(=O)Nc1ccccc1C(=O)NCc1ccccc1)Nc1ccccc1O

> <score_type>
oracle

> <origin>
adg

> <m_score__min__energy>
-16.539999999999999

> <m_primary>
energy

> <minimizedAffinity>
-7.28009

> <minimizedRMSD>
1.46868

> <CNNscore>
0.3912021220

> <CNNaffinity>
6.6222529411

> <CNN_VS>
2.5906393528

> <CNNaffinity_variance>
0.0983443782

$$$$
28:0


 23 25  0  0  0  0  0  0  0  0999 V2000
   58.1529   29.9335   44.6285 C   0  0  0  0  0  0  0  0  0  0  0  0
   58.5026   29.3202   45.7720 C   0  0  0  0  0  0  0  0  0  0  0  0
   58.2867   27.9744   46.1129 C   0  0  0  0  0  0  0  0  0  0  0  0
   57.8740   26.9283   45.3689 C   0  0  0  0  0  0  0  0  0  0  0  0
   58.5980   27.8591   47.4566 C   0  0  0  0  0  0  0  0  0  0  0  0
   59.0421   29.0971   47.8732 C   0  0  0  0  0  0  0  0  0  0  0  0
   59.4988   29.4118   49.2653 C   0  0  0  0  0  0  0  0  0  0  0  0
   58.9956   29.9821   46.8524 N   0  0  0  0  0  0  0  0  0  0  0  0
   57.4557   25.6123   45.8929 C   0  0  0  0  0  0  0  0  0  0  0  0
   56.1124   25.3472   46.2145 C   0  0  0  0  0  0  0  0  0  0  0  0
   55.1412   26.3324   46.0788 O   0  0  0  0  0  0  0  0  0  0  0  0
   55.7535   24.1140   46.6538 N   0  0  0  0  0  0  0  0  0  0  0  0
   56.6685   23.1188   46.7754 C   0  0  0  0  0  0  0  0  0  0  0  0
   56.3129   21.9848   47.1894 O   0  0  0  0  0  0  0  0  0  0  0  0
   57.9659   23.3432   46.4437 N   0  0  0  0  0  0  0  0  0  0  0  0
   58.3764   24.5596   45.9996 C   0  0  0  0  0  0  0  0  0  0  0  0
   59.5879   24.7302   45.6951 O   0  0  0  0  0  0  0  0  0  0  0  0
   59.3735   31.3682   46.9386 C   0  0  0  0  0  0  0  0  0  0  0  0
   58.4021   32.3785   46.8652 C   0  0  0  0  0  0  0  0  0  0  0  0
   58.7987   33.7173   46.9269 C   0  0  0  0  0  0  0  0  0  0  0  0
   60.1531   34.0342   47.0517 C   0  0  0  0  0  0  0  0  0  0  0  0
   61.0933   33.0045   47.1084 C   0  0  0  0  0  0  0  0  0  0  0  0
   60.6883   31.7078   47.0475 N   0  0  0  0  0  0  0  0  0  0  0  0
  1  2  2  0
  2  3  1  0
  3  4  2  0
  4  9  1  0
  9 10  2  0
 10 11  1  0
 10 12  1  0
 12 13  1  0
 13 14  2  0
 13 15  1  0
 15 16  1  0
 16 17  2  0
  3  5  1  0
  5  6  2  0
  6  7  1  0
  6  8  1  0
  8 18  1  0
 18 19  2  0
 19 20  1  0
 20 21  2  0
 21 22  1  0
 22 23  2  0
  8  2  1  0
 23 18  1  0
 16  9  1  0
M  CHG 1  11  -1
M  CHG 1  12  -1
M  CHG 1  15  -1
M  END
> <UniqueID>
27

> <SMILES>
C=c1c(=Cc2c([O-])[n-]c(=O)[n-]c2=O)cc(C)n1-c1ccccn1

> <Energy>
86.24268458116954

> <Genealogy>
C=c1c(=Cc2c([O-])[n-]c(=O)[n-]c2=O)cc(C)n1-c1ccccn1 (protonated)
C=c1c(=Cc2c([O-])[n-]c(=O)[n-]c2=O)cc(C)n1-c1ccccn1 (3D coordinates assigned)
C=c1c(=Cc2c([O-])[n-]c(=O)[n-]c2=O)cc(C)n1-c1ccccn1 (optimized conformer: 86.24268458116954 kcal/mol)

> <smiles>
C=c1c(=Cc2c(O)[nH]c(=O)[nH]c2=O)cc(C)n1-c1ccccn1

> <score_type>
oracle

> <origin>
adg

> <m_score__min__energy>
-15.119999999999999

> <m_primary>
energy

> <minimizedAffinity>
-7.61104

> <minimizedRMSD>
1.38871

> <CNNscore>
0.3952730000

> <CNNaffinity>
6.5972251892

> <CNN_VS>
2.6077048779

> <CNNaffinity_variance>
0.8578756452

$$$$
29:0


 30 33  0  0  0  0  0  0  0  0999 V2000
   56.5639   29.2116   44.4461 C   0  0  0  0  0  0  0  0  0  0  0  0
   57.7678   28.7545   44.8237 C   0  0  0  0  0  0  0  0  0  0  0  0
   58.2512   27.4376   44.7234 C   0  0  0  0  0  0  0  0  0  0  0  0
   57.6338   26.2901   44.3777 C   0  0  0  0  0  0  0  0  0  0  0  0
   59.5892   27.4871   45.0812 C   0  0  0  0  0  0  0  0  0  0  0  0
   59.8630   28.7931   45.4323 C   0  0  0  0  0  0  0  0  0  0  0  0
   61.1912   29.2890   45.9136 C   0  0  0  0  0  0  0  0  0  0  0  0
   58.7599   29.5591   45.2870 N   0  0  0  0  0  0  0  0  0  0  0  0
   57.1540   25.2596   45.3103 C   0  0  0  0  0  0  0  0  0  0  0  0
   57.8501   24.1508   45.6160 N   0  0  0  0  0  0  0  0  0  0  0  0
   57.1082   23.5745   46.5879 C   0  0  0  0  0  0  0  0  0  0  0  0
   57.4307   22.4863   47.1297 O   0  0  0  0  0  0  0  0  0  0  0  0
   56.0012   24.2623   46.9389 N   0  0  0  0  0  0  0  0  0  0  0  0
   56.0525   25.3344   46.1321 C   0  0  0  0  0  0  0  0  0  0  0  0
   55.1291   26.3706   46.1658 O   0  0  0  0  0  0  0  0  0  0  0  0
   58.6990   30.9769   45.5110 C   0  0  0  0  0  0  0  0  0  0  0  0
   58.0421   31.8029   44.5894 C   0  0  0  0  0  0  0  0  0  0  0  0
   57.9672   33.1787   44.8082 C   0  0  0  0  0  0  0  0  0  0  0  0
   58.5540   33.7419   45.9436 C   0  0  0  0  0  0  0  0  0  0  0  0
   59.2274   32.9307   46.8726 C   0  0  0  0  0  0  0  0  0  0  0  0
   59.2755   31.5398   46.6613 C   0  0  0  0  0  0  0  0  0  0  0  0
   59.8461   30.7217   47.5849 F   0  0  0  0  0  0  0  0  0  0  0  0
   59.8581   33.5420   48.0654 C   0  0  0  0  0  0  0  0  0  0  0  0
   59.1812   34.3197   48.7921 O   0  0  0  0  0  0  0  0  0  0  0  0
   61.2262   33.2597   48.4108 N   0  0  0  0  0  0  0  0  0  0  0  0
   62.2802   33.4047   47.4010 C   0  0  0  0  0  0  0  0  0  0  0  0
   63.4652   32.5053   47.7645 C   0  0  0  0  0  0  0  0  0  0  0  0
   63.8917   32.7486   49.0920 O   0  0  0  0  0  0  0  0  0  0  0  0
   62.8688   32.3788   49.9994 C   0  0  0  0  0  0  0  0  0  0  0  0
   61.6317   33.2663   49.8179 C   0  0  0  0  0  0  0  0  0  0  0  0
  1  2  2  0
  2  3  1  0
  3  4  2  0
  4  9  1  0
  9 10  1  0
 10 11  1  0
 11 12  2  0
 11 13  1  0
 13 14  1  0
 14 15  1  0
  3  5  1  0
  5  6  2  0
  6  7  1  0
  6  8  1  0
  8 16  1  0
 16 17  2  0
 17 18  1  0
 18 19  2  0
 19 20  1  0
 20 23  1  0
 23 24  2  0
 23 25  1  0
 25 26  1  0
 26 27  1  0
 27 28  1  0
 28 29  1  0
 29 30  1  0
 20 21  2  0
 21 22  1  0
  8  2  1  0
 21 16  1  0
 14  9  2  0
 30 25  1  0
M  CHG 1  10  -1
M  CHG 1  13  -1
M  CHG 1  15  -1
M  END
> <UniqueID>
28

> <SMILES>
C=c1c(=Cc2[n-]c(=O)[n-]c2[O-])cc(C)n1-c1cccc(C(=O)N2CCOCC2)c1F

> <Energy>
133.30499074912555

> <Genealogy>
C=c1c(=Cc2[n-]c(=O)[n-]c2[O-])cc(C)n1-c1cccc(C(=O)N2CCOCC2)c1F (protonated)
C=c1c(=Cc2[n-]c(=O)[n-]c2[O-])cc(C)n1-c1cccc(C(=O)N2CCOCC2)c1F (3D coordinates assigned)
C=c1c(=Cc2[n-]c(=O)[n-]c2[O-])cc(C)n1-c1cccc(C(=O)N2CCOCC2)c1F (nonaromatic ring conformer: 133.30499074912555 kcal/mol)

> <smiles>
C=c1c(=Cc2[nH]c(=O)[nH]c2O)cc(C)n1-c1cccc(C(=O)N2CCOCC2)c1F

> <score_type>
oracle

> <origin>
adg

> <m_score__min__energy>
-16.719999999999999

> <m_primary>
energy

> <minimizedAffinity>
-8.44624

> <minimizedRMSD>
0.60791

> <CNNscore>
0.3548262417

> <CNNaffinity>
7.0214881897

> <CNN_VS>
2.4914083481

> <CNNaffinity_variance>
0.0275611412

$$$$
36:0


 31 33  0  0  0  0  0  0  0  0999 V2000
   61.2132   30.2828   49.4542 C   0  0  0  0  0  0  0  0  0  0  0  0
   59.9502   30.9453   49.9097 C   0  0  0  0  0  0  0  0  0  0  0  0
   59.1214   30.4845   50.9127 C   0  0  0  0  0  0  0  0  0  0  0  0
   58.1474   31.4581   51.0037 C   0  0  0  0  0  0  0  0  0  0  0  0
   57.1561   31.4270   51.8430 N   0  0  0  0  0  0  0  0  0  0  0  0
   58.3806   32.4538   50.1246 N   0  0  0  0  0  0  0  0  0  0  0  0
   59.4824   32.1339   49.4625 N   0  0  0  0  0  0  0  0  0  0  0  0
   57.0647   30.5908   53.0074 C   0  0  0  0  0  0  0  0  0  0  0  0
   57.7586   30.8272   54.0343 O   0  0  0  0  0  0  0  0  0  0  0  0
   56.1284   29.4253   53.0030 C   0  0  0  0  0  0  0  0  0  0  0  0
   54.7037   29.9034   53.0848 C   0  0  0  0  0  0  0  0  0  0  0  0
   54.0539   30.3943   51.9436 C   0  0  0  0  0  0  0  0  0  0  0  0
   52.7432   30.8724   52.0275 C   0  0  0  0  0  0  0  0  0  0  0  0
   52.0632   30.8764   53.2582 C   0  0  0  0  0  0  0  0  0  0  0  0
   52.7220   30.3933   54.4015 C   0  0  0  0  0  0  0  0  0  0  0  0
   54.0314   29.9128   54.3169 C   0  0  0  0  0  0  0  0  0  0  0  0
   50.6785   31.3906   53.3529 C   0  0  0  0  0  0  0  0  0  0  0  0
   50.3560   32.4692   52.7865 O   0  0  0  0  0  0  0  0  0  0  0  0
   49.7180   30.6942   54.0768 O   0  0  0  0  0  0  0  0  0  0  0  0
   60.0892   33.0023   48.4534 C   0  0  0  0  0  0  0  0  0  0  0  0
   59.3972   32.8291   47.1273 C   0  0  0  0  0  0  0  0  0  0  0  0
   59.2754   33.9203   46.2490 C   0  0  0  0  0  0  0  0  0  0  0  0
   58.6621   33.7560   45.0058 C   0  0  0  0  0  0  0  0  0  0  0  0
   58.1719   32.5039   44.6241 C   0  0  0  0  0  0  0  0  0  0  0  0
   58.3092   31.3981   45.4803 C   0  0  0  0  0  0  0  0  0  0  0  0
   58.9025   31.5733   46.7403 C   0  0  0  0  0  0  0  0  0  0  0  0
   57.8070   30.0652   45.0809 C   0  0  0  0  0  0  0  0  0  0  0  0
   56.5622   29.8957   44.9690 O   0  0  0  0  0  0  0  0  0  0  0  0
   58.6980   28.9545   44.8460 N   0  0  0  0  0  0  0  0  0  0  0  0
   58.2417   27.8403   44.0136 C   0  0  0  0  0  0  0  0  0  0  0  0
   59.9834   28.8654   45.5479 C   0  0  0  0  0  0  0  0  0  0  0  0
  1  2  1  0
  2  3  2  0
  3  4  1  0
  4  5  2  0
  5  8  1  0
  8  9  2  0
  8 10  1  0
 10 11  1  0
 11 12  2  0
 12 13  1  0
 13 14  2  0
 14 17  1  0
 17 18  2  0
 17 19  1  0
 14 15  1  0
 15 16  2  0
  4  6  1  0
  6  7  1  0
  7 20  1  0
 20 21  1  0
 21 22  2  0
 22 23  1  0
 23 24  2  0
 24 25  1  0
 25 27  1  0
 27 28  2  0
 27 29  1  0
 29 30  1  0
 29 31  1  0
 25 26  2  0
  7  2  1  0
 26 21  1  0
 16 11  1  0
M  CHG 1   6  -1
M  CHG 1  19  -1
M  END
> <UniqueID>
34

> <SMILES>
Cc1cc(=NC(=O)Cc2ccc(C(=O)[O-])cc2)[n-]n1Cc1cccc(C(=O)N(C)C)c1

> <Energy>
86.70679861197561

> <Genealogy>
Cc1cc(=NC(=O)Cc2ccc(C(=O)[O-])cc2)[n-]n1Cc1cccc(C(=O)N(C)C)c1 (protonated)
Cc1cc(=NC(=O)Cc2ccc(C(=O)[O-])cc2)[n-]n1Cc1cccc(C(=O)N(C)C)c1 (3D coordinates assigned)
Cc1cc(=NC(=O)Cc2ccc(C(=O)[O-])cc2)[n-]n1Cc1cccc(C(=O)N(C)C)c1 (optimized conformer: 86.70679861197561 kcal/mol)

> <smiles>
Cc1cc(=NC(=O)Cc2ccc(C(=O)O)cc2)[nH]n1Cc1cccc(C(=O)N(C)C)c1

> <score_type>
oracle

> <origin>
adg

> <m_score__min__energy>
-14.09

> <m_primary>
energy

> <minimizedAffinity>
-8.41277

> <minimizedRMSD>
1.23348

> <CNNscore>
0.3714410067

> <CNNaffinity>
6.1277432442

> <CNN_VS>
2.2760951519

> <CNNaffinity_variance>
0.0846535638

$$$$
37:0


 22 23  0  0  0  0  0  0  0  0999 V2000
   58.0654   28.1031   44.6553 C   0  0  0  0  0  0  0  0  0  0  0  0
   56.7577   29.5281   43.2517 O   0  0  0  0  0  0  0  0  0  0  0  0
   57.3312   29.3853   44.3634 C   0  0  0  0  0  0  0  0  0  0  0  0
   57.1233   30.3663   45.3875 N   0  0  0  0  0  0  0  0  0  0  0  0
   57.7369   31.5093   45.5164 C   0  0  0  0  0  0  0  0  0  0  0  0
   57.9154   32.4000   44.4387 C   0  0  0  0  0  0  0  0  0  0  0  0
   58.5777   33.6120   44.6509 C   0  0  0  0  0  0  0  0  0  0  0  0
   59.0463   33.9356   45.9254 C   0  0  0  0  0  0  0  0  0  0  0  0
   59.8763   35.4543   46.2065 Cl  0  0  0  0  0  0  0  0  0  0  0  0
   58.8330   33.0412   46.9761 C   0  0  0  0  0  0  0  0  0  0  0  0
   58.1878   31.8660   46.7495 N   0  0  0  0  0  0  0  0  0  0  0  0
   57.7250   27.5674   46.0533 C   0  0  0  0  0  0  0  0  0  0  0  0
   57.6727   26.0538   46.0753 C   0  0  0  0  0  0  0  0  0  0  0  0
   56.4407   25.3767   46.0393 C   0  0  0  0  0  0  0  0  0  0  0  0
   55.2446   26.0865   46.0246 O   0  0  0  0  0  0  0  0  0  0  0  0
   56.4106   24.0166   46.0172 N   0  0  0  0  0  0  0  0  0  0  0  0
   57.5599   23.2917   46.0228 C   0  0  0  0  0  0  0  0  0  0  0  0
   57.5145   22.0341   46.0014 O   0  0  0  0  0  0  0  0  0  0  0  0
   58.7610   23.9228   46.0506 N   0  0  0  0  0  0  0  0  0  0  0  0
   58.8449   25.2765   46.0745 C   0  0  0  0  0  0  0  0  0  0  0  0
   59.9818   25.8218   46.0901 O   0  0  0  0  0  0  0  0  0  0  0  0
   55.5435   23.5509   45.9969 H   0  0  0  0  0  0  0  0  0  0  0  0
  2  3  2  0
  3  1  1  0
  1 12  1  0
 12 13  1  0
 13 14  2  0
 14 15  1  0
 14 16  1  0
 16 17  1  0
 17 18  2  0
 17 19  1  0
 19 20  1  0
 20 21  2  0
  3  4  1  0
  4  5  2  0
  5  6  1  0
  6  7  2  0
  7  8  1  0
  8  9  1  0
  8 10  2  0
 10 11  1  0
 20 13  1  0
 11  5  1  0
 16 22  1  0
M  CHG 1  11  -1
M  CHG 1  15  -1
M  CHG 1  19  -1
M  END
> <UniqueID>
35

> <SMILES>
O=C(CCc1c([O-])[nH]c(=O)[n-]c1=O)N=c1ccc(Cl)c[n-]1

> <Energy>
38.603978238523

> <Genealogy>
O=C(CCc1c([O-])[nH]c(=O)[n-]c1=O)N=c1ccc(Cl)c[n-]1 (protonated)
O=C(CCc1c([O-])[nH]c(=O)[n-]c1=O)N=c1ccc(Cl)c[n-]1 (3D coordinates assigned)
O=C(CCc1c([O-])[nH]c(=O)[n-]c1=O)N=c1ccc(Cl)c[n-]1 (optimized conformer: 38.603978238523 kcal/mol)

> <smiles>
O=C(CCc1c(O)[nH]c(=O)[nH]c1=O)N=c1ccc(Cl)c[nH]1

> <score_type>
oracle

> <origin>
adg

> <m_score__min__energy>
-14.630000000000001

> <m_primary>
energy

> <minimizedAffinity>
-6.98903

> <minimizedRMSD>
0.96529

> <CNNscore>
0.3031199872

> <CNNaffinity>
6.0146231651

> <CNN_VS>
1.8231525421

> <CNNaffinity_variance>
0.1340472251

$$$$
41:0


 35 38  0  0  0  0  0  0  0  0999 V2000
   59.4350   33.2659   47.5057 C   0  0  0  0  0  0  0  0  0  0  0  0
   59.7919   34.6070   47.2401 C   0  0  0  0  0  0  0  0  0  0  0  0
   59.5252   35.1883   45.9843 C   0  0  0  0  0  0  0  0  0  0  0  0
   58.9118   34.4391   44.9683 C   0  0  0  0  0  0  0  0  0  0  0  0
   58.5778   33.1135   45.2416 C   0  0  0  0  0  0  0  0  0  0  0  0
   58.8384   32.5362   46.4682 C   0  0  0  0  0  0  0  0  0  0  0  0
   58.3550   31.1561   46.4084 C   0  0  0  0  0  0  0  0  0  0  0  0
   58.3958   30.3236   47.3535 O   0  0  0  0  0  0  0  0  0  0  0  0
   57.7957   30.8803   45.1193 N   0  0  0  0  0  0  0  0  0  0  0  0
   57.2198   29.6392   44.6767 C   0  0  0  0  0  0  0  0  0  0  0  0
   55.9635   29.5220   44.6320 O   0  0  0  0  0  0  0  0  0  0  0  0
   57.9424   32.1098   44.3960 C   0  0  0  0  0  0  0  0  0  0  0  0
   57.5872   32.2873   43.2010 O   0  0  0  0  0  0  0  0  0  0  0  0
   58.8697   32.3763   49.7742 C   0  0  0  0  0  0  0  0  0  0  0  0
   59.7572   32.6261   48.7993 C   0  0  0  0  0  0  0  0  0  0  0  0
   57.8881   30.3997   50.6677 O   0  0  0  0  0  0  0  0  0  0  0  0
   58.8764   31.1824   50.6385 C   0  0  0  0  0  0  0  0  0  0  0  0
   60.0418   30.8917   51.4098 N   0  0  0  0  0  0  0  0  0  0  0  0
   61.4293   30.1208   50.7214 S   0  0  0  0  0  0  0  0  0  0  0  0
   62.2968   29.5679   51.8197 O   0  0  0  0  0  0  0  0  0  0  0  0
   60.9830   28.9842   49.8459 O   0  0  0  0  0  0  0  0  0  0  0  0
   62.3211   31.2906   49.7530 C   0  0  0  0  0  0  0  0  0  0  0  0
   62.3246   31.2036   48.3523 C   0  0  0  0  0  0  0  0  0  0  0  0
   63.0720   32.1088   47.5935 C   0  0  0  0  0  0  0  0  0  0  0  0
   63.8194   33.1071   48.2284 C   0  0  0  0  0  0  0  0  0  0  0  0
   63.8234   33.1948   49.6226 C   0  0  0  0  0  0  0  0  0  0  0  0
   63.0783   32.2898   50.3844 C   0  0  0  0  0  0  0  0  0  0  0  0
   58.0961   28.4802   44.2738 C   0  0  0  0  0  0  0  0  0  0  0  0
   58.6931   27.7618   45.4604 C   0  0  0  0  0  0  0  0  0  0  0  0
   60.0457   27.9541   45.7834 C   0  0  0  0  0  0  0  0  0  0  0  0
   60.6189   27.2788   46.8655 C   0  0  0  0  0  0  0  0  0  0  0  0
   59.8461   26.4025   47.6312 C   0  0  0  0  0  0  0  0  0  0  0  0
   58.5048   26.1888   47.3077 C   0  0  0  0  0  0  0  0  0  0  0  0
   57.9256   26.8573   46.2232 C   0  0  0  0  0  0  0  0  0  0  0  0
   56.5919   26.6160   45.9088 O   0  0  0  0  0  0  0  0  0  0  0  0
 16 17  2  0
 17 14  1  0
 14 15  2  0
 15  1  1  0
  1  2  2  0
  2  3  1  0
  3  4  2  0
  4  5  1  0
  5  6  2  0
  6  7  1  0
  7  8  2  0
  7  9  1  0
  9 10  1  0
 10 11  2  0
 10 28  1  0
 28 29  1  0
 29 30  2  0
 30 31  1  0
 31 32  2  0
 32 33  1  0
 33 34  2  0
 34 35  1  0
  9 12  1  0
 12 13  2  0
 17 18  1  0
 18 19  1  0
 19 20  2  0
 19 21  2  0
 19 22  1  0
 22 23  2  0
 23 24  1  0
 24 25  2  0
 25 26  1  0
 26 27  2  0
  6  1  1  0
 34 29  1  0
 27 22  1  0
 12  5  1  0
M  CHG 1  18  -1
M  CHG 1  35  -1
M  END
> <UniqueID>
39

> <SMILES>
O=C(C=Cc1cccc2c1C(=O)N(C(=O)Cc1ccccc1[O-])C2=O)[N-]S(=O)(=O)c1ccccc1

> <Energy>
98.97910019899419

> <Genealogy>
O=C(C=Cc1cccc2c1C(=O)N(C(=O)Cc1ccccc1[O-])C2=O)[N-]S(=O)(=O)c1ccccc1 (protonated)
O=C(C=Cc1cccc2c1C(=O)N(C(=O)Cc1ccccc1[O-])C2=O)[N-]S(=O)(=O)c1ccccc1 (3D coordinates assigned)
O=C(C=Cc1cccc2c1C(=O)N(C(=O)Cc1ccccc1[O-])C2=O)[N-]S(=O)(=O)c1ccccc1 (nonaromatic ring conformer: 98.97910019899419 kcal/mol)

> <smiles>
O=C(C=Cc1cccc2c1C(=O)N(C(=O)Cc1ccccc1O)C2=O)NS(=O)(=O)c1ccccc1

> <score_type>
oracle

> <origin>
adg

> <m_score__min__energy>
-14.779999999999999

> <m_primary>
energy

> <minimizedAffinity>
-9.20246

> <minimizedRMSD>
0.90014

> <CNNscore>
0.9378937483

> <CNNaffinity>
7.1272168159

> <CNN_VS>
6.6845722198

> <CNNaffinity_variance>
0.0781982020

$$$$
60:0


 30 32  0  0  0  0  0  0  0  0999 V2000
   59.4591   29.5686   48.4310 C   0  0  0  0  0  0  0  0  0  0  0  0
   58.5469   29.0367   49.1236 O   0  0  0  0  0  0  0  0  0  0  0  0
   59.7898   30.9644   48.6146 N   0  0  0  0  0  0  0  0  0  0  0  0
   61.1584   31.3941   48.7379 C   0  0  0  0  0  0  0  0  0  0  0  0
   61.9204   31.6197   47.5824 C   0  0  0  0  0  0  0  0  0  0  0  0
   63.2493   32.0422   47.6893 C   0  0  0  0  0  0  0  0  0  0  0  0
   63.8246   32.2478   48.9450 C   0  0  0  0  0  0  0  0  0  0  0  0
   63.0777   32.0162   50.1002 C   0  0  0  0  0  0  0  0  0  0  0  0
   61.7478   31.5855   50.0071 C   0  0  0  0  0  0  0  0  0  0  0  0
   60.8581   31.2556   51.4939 Cl  0  0  0  0  0  0  0  0  0  0  0  0
   60.2331   28.6892   47.4919 C   0  0  0  0  0  0  0  0  0  0  0  0
   57.8931   28.7521   45.7698 O   0  0  0  0  0  0  0  0  0  0  0  0
   58.4756   27.6603   46.0090 C   0  0  0  0  0  0  0  0  0  0  0  0
   59.4016   27.5587   47.0977 N   0  0  0  0  0  0  0  0  0  0  0  0
   59.4778   26.7090   47.5889 H   0  0  0  0  0  0  0  0  0  0  0  0
   58.2739   26.4958   45.0910 C   0  0  0  0  0  0  0  0  0  0  0  0
   57.5453   25.4115   45.8212 C   0  0  0  0  0  0  0  0  0  0  0  0
   58.1176   24.2673   46.2435 N   0  0  0  0  0  0  0  0  0  0  0  0
   57.1181   23.6504   46.9112 C   0  0  0  0  0  0  0  0  0  0  0  0
   57.2633   22.5256   47.4569 O   0  0  0  0  0  0  0  0  0  0  0  0
   55.9533   24.3340   46.9488 N   0  0  0  0  0  0  0  0  0  0  0  0
   56.2420   25.4514   46.2630 C   0  0  0  0  0  0  0  0  0  0  0  0
   55.3415   26.4930   46.0639 O   0  0  0  0  0  0  0  0  0  0  0  0
   58.7345   31.9866   48.5934 C   0  0  0  0  0  0  0  0  0  0  0  0
   58.8546   32.8292   47.3514 C   0  0  0  0  0  0  0  0  0  0  0  0
   59.3988   34.1222   47.4161 C   0  0  0  0  0  0  0  0  0  0  0  0
   59.4296   34.9329   46.2715 C   0  0  0  0  0  0  0  0  0  0  0  0
   58.9224   34.4554   45.0601 C   0  0  0  0  0  0  0  0  0  0  0  0
   58.3873   33.1674   44.9844 C   0  0  0  0  0  0  0  0  0  0  0  0
   58.3558   32.3525   46.1266 C   0  0  0  0  0  0  0  0  0  0  0  0
 12 13  2  0
 13 16  1  0
 16 17  1  0
 17 18  1  0
 18 19  1  0
 19 20  2  0
 19 21  1  0
 21 22  1  0
 22 23  1  0
 13 14  1  0
 14 11  1  0
 11  1  1  0
  1  2  2  0
  1  3  1  0
  3 24  1  0
 24 25  1  0
 25 26  2  0
 26 27  1  0
 27 28  2  0
 28 29  1  0
 29 30  2  0
  3  4  1  0
  4  5  2  0
  5  6  1  0
  6  7  2  0
  7  8  1  0
  8  9  2  0
  9 10  1  0
 22 17  2  0
 30 25  1  0
  9  4  1  0
 14 15  1  0
M  CHG 1  18  -1
M  CHG 1  21  -1
M  CHG 1  23  -1
M  END
> <UniqueID>
58

> <SMILES>
O=C(Cc1[n-]c(=O)[n-]c1[O-])NCC(=O)N(Cc1ccccc1)c1ccccc1Cl

> <Energy>
75.40797677274733

> <Genealogy>
O=C(Cc1[n-]c(=O)[n-]c1[O-])NCC(=O)N(Cc1ccccc1)c1ccccc1Cl (protonated)
O=C(Cc1[n-]c(=O)[n-]c1[O-])NCC(=O)N(Cc1ccccc1)c1ccccc1Cl (3D coordinates assigned)
O=C(Cc1[n-]c(=O)[n-]c1[O-])NCC(=O)N(Cc1ccccc1)c1ccccc1Cl (optimized conformer: 75.40797677274733 kcal/mol)

> <smiles>
O=C(Cc1[nH]c(=O)[nH]c1O)NCC(=O)N(Cc1ccccc1)c1ccccc1Cl

> <score_type>
oracle

> <origin>
adg

> <m_score__min__energy>
-17.620000000000001

> <m_primary>
energy

> <minimizedAffinity>
-8.00062

> <minimizedRMSD>
0.95047

> <CNNscore>
0.4423834682

> <CNNaffinity>
6.6383347511

> <CNN_VS>
2.9366896152

> <CNNaffinity_variance>
0.0995452479

$$$$
66:0


 31 34  0  0  0  0  0  0  0  0999 V2000
   58.2843   25.4217   45.2828 C   0  0  0  0  0  0  0  0  0  0  0  0
   58.3607   26.7643   45.2290 C   0  0  0  0  0  0  0  0  0  0  0  0
   57.8360   27.5727   44.2280 C   0  0  0  0  0  0  0  0  0  0  0  0
   58.1646   28.8718   44.5599 C   0  0  0  0  0  0  0  0  0  0  0  0
   57.7891   30.0762   43.7510 C   0  0  0  0  0  0  0  0  0  0  0  0
   58.8585   28.9032   45.7208 N   0  0  0  0  0  0  0  0  0  0  0  0
   58.9892   27.6194   46.1395 C   0  0  0  0  0  0  0  0  0  0  0  0
   59.5973   27.2587   47.2796 C   0  0  0  0  0  0  0  0  0  0  0  0
   55.7840   26.5658   46.3259 O   0  0  0  0  0  0  0  0  0  0  0  0
   55.8114   25.2719   45.8027 C   0  0  0  0  0  0  0  0  0  0  0  0
   54.6580   24.5532   45.7895 N   0  0  0  0  0  0  0  0  0  0  0  0
   54.6249   23.2757   45.3343 C   0  0  0  0  0  0  0  0  0  0  0  0
   53.5425   22.6376   45.3323 O   0  0  0  0  0  0  0  0  0  0  0  0
   55.7614   22.6851   44.8857 N   0  0  0  0  0  0  0  0  0  0  0  0
   56.9412   23.3555   44.8710 C   0  0  0  0  0  0  0  0  0  0  0  0
   57.9760   22.7748   44.4459 O   0  0  0  0  0  0  0  0  0  0  0  0
   56.9988   24.6881   45.3115 C   0  0  0  0  0  0  0  0  0  0  0  0
   54.9795   26.9254   46.6444 H   0  0  0  0  0  0  0  0  0  0  0  0
   59.3693   30.0851   46.3610 C   0  0  0  0  0  0  0  0  0  0  0  0
   58.5290   31.1851   46.5892 C   0  0  0  0  0  0  0  0  0  0  0  0
   59.0289   32.3386   47.1968 C   0  0  0  0  0  0  0  0  0  0  0  0
   60.3742   32.4063   47.5906 C   0  0  0  0  0  0  0  0  0  0  0  0
   61.2173   31.3105   47.3491 C   0  0  0  0  0  0  0  0  0  0  0  0
   60.7174   30.1570   46.7415 C   0  0  0  0  0  0  0  0  0  0  0  0
   60.9233   33.6658   48.2057 C   0  0  0  0  0  0  0  0  0  0  0  0
   62.0434   33.3345   49.1552 C   0  0  0  0  0  0  0  0  0  0  0  0
   61.7776   33.1244   50.5181 C   0  0  0  0  0  0  0  0  0  0  0  0
   62.8240   32.8529   51.4047 C   0  0  0  0  0  0  0  0  0  0  0  0
   64.1417   32.7992   50.9409 C   0  0  0  0  0  0  0  0  0  0  0  0
   64.4140   33.0206   49.5871 C   0  0  0  0  0  0  0  0  0  0  0  0
   63.3708   33.2917   48.6972 C   0  0  0  0  0  0  0  0  0  0  0  0
  9 10  1  0
 10 11  1  0
 11 12  1  0
 12 13  2  0
 12 14  1  0
 14 15  1  0
 15 16  2  0
 15 17  1  0
 17  1  1  0
  1  2  2  0
  2  3  1  0
  3  4  2  0
  4  5  1  0
  4  6  1  0
  6 19  1  0
 19 20  2  0
 20 21  1  0
 21 22  2  0
 22 25  1  0
 25 26  1  0
 26 27  2  0
 27 28  1  0
 28 29  2  0
 29 30  1  0
 30 31  2  0
 22 23  1  0
 23 24  2  0
  6  7  1  0
  7  8  2  0
 17 10  2  0
  7  2  1  0
 24 19  1  0
 31 26  1  0
  9 18  1  0
M  CHG 1  11  -1
M  CHG 1  14  -1
M  END
> <UniqueID>
64

> <SMILES>
C=c1/c(=C/c2c(O)[n-]c(=O)[n-]c2=O)cc(C)n1-c1ccc(Cc2ccccc2)cc1

> <Energy>
97.5090296484659

> <Genealogy>
C=c1c(=Cc2c(O)[n-]c(=O)[n-]c2=O)cc(C)n1-c1ccc(Cc2ccccc2)cc1 (protonated)
C=c1/c(=C/c2c(O)[n-]c(=O)[n-]c2=O)cc(C)n1-c1ccc(Cc2ccccc2)cc1 (cis-trans isomerization)
C=c1/c(=C/c2c(O)[n-]c(=O)[n-]c2=O)cc(C)n1-c1ccc(Cc2ccccc2)cc1 (3D coordinates assigned)
C=c1/c(=C/c2c(O)[n-]c(=O)[n-]c2=O)cc(C)n1-c1ccc(Cc2ccccc2)cc1 (optimized conformer: 97.5090296484659 kcal/mol)

> <smiles>
C=c1c(=Cc2c(O)[nH]c(=O)[nH]c2=O)cc(C)n1-c1ccc(Cc2ccccc2)cc1

> <score_type>
oracle

> <origin>
adg

> <m_score__min__energy>
-14.050000000000001

> <m_primary>
energy

> <minimizedAffinity>
-9.40618

> <minimizedRMSD>
0.90084

> <CNNscore>
0.4296325743

> <CNNaffinity>
6.9144577980

> <CNN_VS>
2.9706764221

> <CNNaffinity_variance>
0.0463185273

$$$$
68:0


 35 38  0  0  0  0  0  0  0  0999 V2000
   60.8046   30.2434   47.9850 C   0  0  0  0  0  0  0  0  0  0  0  0
   60.6047   30.2608   46.5952 C   0  0  0  0  0  0  0  0  0  0  0  0
   60.0944   29.1366   45.9395 C   0  0  0  0  0  0  0  0  0  0  0  0
   59.7764   27.9772   46.6681 C   0  0  0  0  0  0  0  0  0  0  0  0
   59.9486   27.9701   48.0574 C   0  0  0  0  0  0  0  0  0  0  0  0
   60.4767   29.0882   48.7111 C   0  0  0  0  0  0  0  0  0  0  0  0
   61.3990   31.4416   48.6779 C   0  0  0  0  0  0  0  0  0  0  0  0
   60.3106   32.2504   49.3969 C   0  0  0  0  0  0  0  0  0  0  0  0
   61.3752   28.0737   52.6924 C   0  0  0  0  0  0  0  0  0  0  0  0
   60.3066   28.9894   52.6294 C   0  0  0  0  0  0  0  0  0  0  0  0
   60.5026   30.2871   52.1404 C   0  0  0  0  0  0  0  0  0  0  0  0
   61.7724   30.6663   51.6663 C   0  0  0  0  0  0  0  0  0  0  0  0
   62.8412   29.7605   51.7419 C   0  0  0  0  0  0  0  0  0  0  0  0
   62.6486   28.4634   52.2524 C   0  0  0  0  0  0  0  0  0  0  0  0
   62.0233   32.0705   51.1674 C   0  0  0  0  0  0  0  0  0  0  0  0
   60.7910   32.7477   50.7077 N   0  0  0  0  0  0  0  0  0  0  0  0
   59.7478   32.6709   51.7494 C   0  0  0  0  0  0  0  0  0  0  0  0
   59.3231   31.2221   52.0434 C   0  0  0  0  0  0  0  0  0  0  0  0
   60.7887   25.6566   52.3926 C   0  0  0  0  0  0  0  0  0  0  0  0
   61.2095   26.7694   53.1796 O   0  0  0  0  0  0  0  0  0  0  0  0
   63.6996   27.5357   52.3380 O   0  0  0  0  0  0  0  0  0  0  0  0
   65.0769   27.8809   52.4514 C   0  0  0  0  0  0  0  0  0  0  0  0
   59.2272   26.8157   46.0294 N   0  0  0  0  0  0  0  0  0  0  0  0
   57.9215   26.7268   45.4512 C   0  0  0  0  0  0  0  0  0  0  0  0
   57.1479   27.7227   45.4682 O   0  0  0  0  0  0  0  0  0  0  0  0
   57.5249   25.4789   44.7219 C   0  0  0  0  0  0  0  0  0  0  0  0
   57.0191   24.4232   45.6808 C   0  0  0  0  0  0  0  0  0  0  0  0
   55.7495   24.5384   46.2726 C   0  0  0  0  0  0  0  0  0  0  0  0
   54.9367   25.6325   45.9994 O   0  0  0  0  0  0  0  0  0  0  0  0
   55.3034   23.5737   47.1205 N   0  0  0  0  0  0  0  0  0  0  0  0
   56.0612   22.4842   47.4062 C   0  0  0  0  0  0  0  0  0  0  0  0
   55.6274   21.6050   48.1980 O   0  0  0  0  0  0  0  0  0  0  0  0
   57.2835   22.3390   46.8369 N   0  0  0  0  0  0  0  0  0  0  0  0
   57.7767   23.2745   45.9812 C   0  0  0  0  0  0  0  0  0  0  0  0
   58.9149   23.0983   45.4648 O   0  0  0  0  0  0  0  0  0  0  0  0
 19 20  1  0
 20  9  1  0
  9 10  2  0
 10 11  1  0
 11 12  2  0
 12 13  1  0
 13 14  2  0
 14 21  1  0
 21 22  1  0
 12 15  1  0
 15 16  1  0
 16  8  1  0
  8  7  1  0
  7  1  1  0
  1  2  2  0
  2  3  1  0
  3  4  2  0
  4 23  1  0
 23 24  1  0
 24 25  2  0
 24 26  1  0
 26 27  1  0
 27 28  2  0
 28 29  1  0
 28 30  1  0
 30 31  1  0
 31 32  2  0
 31 33  1  0
 33 34  1  0
 34 35  2  0
  4  5  1  0
  5  6  2  0
 16 17  1  0
 17 18  1  0
 14  9  1  0
  6  1  1  0
 18 11  1  0
 34 27  1  0
M  CHG 1  23  -1
M  CHG 1  29  -1
M  CHG 1  30  -1
M  CHG 1  33  -1
M  END
> <UniqueID>
66

> <SMILES>
COc1cc2c(cc1OC)CN(CCc1ccc([N-]C(=O)Cc3c([O-])[n-]c(=O)[n-]c3=O)cc1)CC2

> <Energy>
71.18179581145863

> <Genealogy>
COc1cc2c(cc1OC)CN(CCc1ccc([N-]C(=O)Cc3c([O-])[n-]c(=O)[n-]c3=O)cc1)CC2 (protonated)
COc1cc2c(cc1OC)CN(CCc1ccc([N-]C(=O)Cc3c([O-])[n-]c(=O)[n-]c3=O)cc1)CC2 (3D coordinates assigned)
COc1cc2c(cc1OC)CN(CCc1ccc([N-]C(=O)Cc3c([O-])[n-]c(=O)[n-]c3=O)cc1)CC2 (nonaromatic ring conformer: 71.18179581145863 kcal/mol)

> <smiles>
COc1cc2c(cc1OC)CN(CCc1ccc(NC(=O)Cc3c(O)[nH]c(=O)[nH]c3=O)cc1)CC2

> <score_type>
oracle

> <origin>
adg

> <m_score__min__energy>
-17.170000000000002

> <m_primary>
energy

> <minimizedAffinity>
-6.99713

> <minimizedRMSD>
2.37567

> <CNNscore>
0.1251838952

> <CNNaffinity>
6.0357441902

> <CNN_VS>
0.7555779815

> <CNNaffinity_variance>
0.0223343875

$$$$
71:0


 24 26  0  0  0  0  0  0  0  0999 V2000
   60.2115   28.3974   52.9305 N   0  0  0  0  0  0  0  0  0  0  0  0
   59.1835   27.9298   53.7196 C   0  0  0  0  0  0  0  0  0  0  0  0
   59.1984   26.7627   54.1991 O   0  0  0  0  0  0  0  0  0  0  0  0
   58.1164   28.7716   53.9735 C   0  0  0  0  0  0  0  0  0  0  0  0
   57.0157   28.5355   54.7024 N   0  0  0  0  0  0  0  0  0  0  0  0
   56.3335   29.7041   54.5756 C   0  0  0  0  0  0  0  0  0  0  0  0
   56.9600   30.6473   53.8238 N   0  0  0  0  0  0  0  0  0  0  0  0
   58.0848   30.0154   53.4571 C   0  0  0  0  0  0  0  0  0  0  0  0
   59.0840   30.5056   52.6726 N   0  0  0  0  0  0  0  0  0  0  0  0
   60.1479   29.6733   52.3924 C   0  0  0  0  0  0  0  0  0  0  0  0
   61.0720   30.0808   51.6312 O   0  0  0  0  0  0  0  0  0  0  0  0
   61.0821   26.7411   51.3262 C   0  0  0  0  0  0  0  0  0  0  0  0
   61.3518   27.5143   52.6115 C   0  0  0  0  0  0  0  0  0  0  0  0
   58.9872   31.8566   52.0970 C   0  0  0  0  0  0  0  0  0  0  0  0
   58.3073   31.8054   50.7319 C   0  0  0  0  0  0  0  0  0  0  0  0
   55.0362   29.9609   55.2714 C   0  0  0  0  0  0  0  0  0  0  0  0
   53.8979   29.4335   54.4443 C   0  0  0  0  0  0  0  0  0  0  0  0
   53.4337   28.1204   54.6318 C   0  0  0  0  0  0  0  0  0  0  0  0
   52.3509   27.6430   53.8891 C   0  0  0  0  0  0  0  0  0  0  0  0
   51.7144   28.4738   52.9610 C   0  0  0  0  0  0  0  0  0  0  0  0
   50.6382   27.9927   52.2253 O   0  0  0  0  0  0  0  0  0  0  0  0
   52.1618   29.7888   52.7780 C   0  0  0  0  0  0  0  0  0  0  0  0
   51.5281   30.6210   51.8633 O   0  0  0  0  0  0  0  0  0  0  0  0
   53.2467   30.2686   53.5208 C   0  0  0  0  0  0  0  0  0  0  0  0
 12 13  1  0
 13  1  1  0
  1  2  1  0
  2  3  2  0
  2  4  1  0
  4  5  1  0
  5  6  1  0
  6 16  1  0
 16 17  1  0
 17 18  2  0
 18 19  1  0
 19 20  2  0
 20 21  1  0
 20 22  1  0
 22 23  1  0
 22 24  2  0
  6  7  2  0
  7  8  1  0
  8  9  1  0
  9 14  1  0
 14 15  1  0
  9 10  1  0
 10 11  2  0
 10  1  1  0
  8  4  2  0
 24 17  1  0
M  CHG 1   5  -1
M  CHG 1  21  -1
M  CHG 1  23  -1
M  END
> <UniqueID>
69

> <SMILES>
CCn1c(=O)c2[n-]c(Cc3ccc([O-])c([O-])c3)nc2n(CC)c1=O

> <Energy>
76.04606117742647

> <Genealogy>
CCn1c(=O)c2[n-]c(Cc3ccc([O-])c([O-])c3)nc2n(CC)c1=O (protonated)
CCn1c(=O)c2[n-]c(Cc3ccc([O-])c([O-])c3)nc2n(CC)c1=O (3D coordinates assigned)
CCn1c(=O)c2[n-]c(Cc3ccc([O-])c([O-])c3)nc2n(CC)c1=O (optimized conformer: 76.04606117742647 kcal/mol)

> <smiles>
CCn1c(=O)c2[nH]c(Cc3ccc(O)c(O)c3)nc2n(CC)c1=O

> <score_type>
oracle

> <origin>
adg

> <m_score__min__energy>
-16.43

> <m_primary>
energy

> <minimizedAffinity>
-3.90392

> <minimizedRMSD>
2.69274

> <CNNscore>
0.2122306824

> <CNNaffinity>
4.4503874779

> <CNN_VS>
0.9445087910

> <CNNaffinity_variance>
0.1747082025

$$$$
75:0


 25 27  0  0  0  0  0  0  0  0999 V2000
   59.5572   30.3880   47.8043 C   0  0  0  0  0  0  0  0  0  0  0  0
   59.2225   31.1441   46.7450 C   0  0  0  0  0  0  0  0  0  0  0  0
   58.8780   30.6846   45.4605 C   0  0  0  0  0  0  0  0  0  0  0  0
   58.9286   29.4535   44.9122 C   0  0  0  0  0  0  0  0  0  0  0  0
   58.4421   31.7915   44.7560 C   0  0  0  0  0  0  0  0  0  0  0  0
   58.5862   32.8790   45.5877 C   0  0  0  0  0  0  0  0  0  0  0  0
   58.1952   34.2786   45.2165 C   0  0  0  0  0  0  0  0  0  0  0  0
   59.0621   32.4972   46.7972 N   0  0  0  0  0  0  0  0  0  0  0  0
   58.3547   28.2253   45.4931 C   0  0  0  0  0  0  0  0  0  0  0  0
   56.9671   28.0209   45.4861 C   0  0  0  0  0  0  0  0  0  0  0  0
   56.1123   28.9922   44.9788 O   0  0  0  0  0  0  0  0  0  0  0  0
   56.4491   26.8684   45.9849 N   0  0  0  0  0  0  0  0  0  0  0  0
   57.2527   25.8953   46.4803 C   0  0  0  0  0  0  0  0  0  0  0  0
   56.7499   24.8380   46.9413 O   0  0  0  0  0  0  0  0  0  0  0  0
   58.6011   26.0571   46.4734 N   0  0  0  0  0  0  0  0  0  0  0  0
   59.1687   27.1893   45.9854 C   0  0  0  0  0  0  0  0  0  0  0  0
   60.4249   27.2966   45.9748 O   0  0  0  0  0  0  0  0  0  0  0  0
   59.2772   33.3986   47.9436 C   0  0  0  0  0  0  0  0  0  0  0  0
   60.7026   33.3201   48.4267 C   0  0  0  0  0  0  0  0  0  0  0  0
   61.7662   33.3154   47.5086 C   0  0  0  0  0  0  0  0  0  0  0  0
   63.0879   33.2350   47.9584 C   0  0  0  0  0  0  0  0  0  0  0  0
   63.3589   33.1596   49.3283 C   0  0  0  0  0  0  0  0  0  0  0  0
   65.0171   33.0562   49.8905 Cl  0  0  0  0  0  0  0  0  0  0  0  0
   62.3061   33.1665   50.2482 C   0  0  0  0  0  0  0  0  0  0  0  0
   60.9842   33.2479   49.8014 C   0  0  0  0  0  0  0  0  0  0  0  0
  1  2  2  0
  2  3  1  0
  3  4  2  0
  4  9  1  0
  9 10  2  0
 10 11  1  0
 10 12  1  0
 12 13  1  0
 13 14  2  0
 13 15  1  0
 15 16  1  0
 16 17  2  0
  3  5  1  0
  5  6  2  0
  6  7  1  0
  6  8  1  0
  8 18  1  0
 18 19  1  0
 19 20  2  0
 20 21  1  0
 21 22  2  0
 22 23  1  0
 22 24  1  0
 24 25  2  0
  8  2  1  0
 25 19  1  0
 16  9  1  0
M  CHG 1  11  -1
M  CHG 1  12  -1
M  CHG 1  15  -1
M  END
> <UniqueID>
73

> <SMILES>
C=c1/c(=C\c2c([O-])[n-]c(=O)[n-]c2=O)cc(C)n1Cc1ccc(Cl)cc1

> <Energy>
83.3667155658118

> <Genealogy>
C=c1c(=Cc2c([O-])[n-]c(=O)[n-]c2=O)cc(C)n1Cc1ccc(Cl)cc1 (protonated)
C=c1/c(=C\c2c([O-])[n-]c(=O)[n-]c2=O)cc(C)n1Cc1ccc(Cl)cc1 (cis-trans isomerization)
C=c1/c(=C\c2c([O-])[n-]c(=O)[n-]c2=O)cc(C)n1Cc1ccc(Cl)cc1 (3D coordinates assigned)
C=c1/c(=C\c2c([O-])[n-]c(=O)[n-]c2=O)cc(C)n1Cc1ccc(Cl)cc1 (optimized conformer: 83.3667155658118 kcal/mol)

> <smiles>
C=c1c(=Cc2c(O)[nH]c(=O)[nH]c2=O)cc(C)n1Cc1ccc(Cl)cc1

> <score_type>
oracle

> <origin>
adg

> <m_score__min__energy>
-15.92

> <m_primary>
energy

> <minimizedAffinity>
-7.41663

> <minimizedRMSD>
0.95753

> <CNNscore>
0.6453659534

> <CNNaffinity>
6.9939308167

> <CNN_VS>
4.5136446953

> <CNNaffinity_variance>
0.2300571352

$$$$
4:0


 32 35  0  0  0  0  0  0  0  0999 V2000
   58.5488   26.7273   45.9057 C   0  0  0  0  0  0  0  0  0  0  0  0
   59.8587   27.0404   45.8322 N   0  0  0  0  0  0  0  0  0  0  0  0
   59.8616   28.2808   45.2974 C   0  0  0  0  0  0  0  0  0  0  0  0
   60.9223   28.9186   45.0617 O   0  0  0  0  0  0  0  0  0  0  0  0
   58.6268   28.7729   45.0547 N   0  0  0  0  0  0  0  0  0  0  0  0
   57.7967   27.7970   45.4647 C   0  0  0  0  0  0  0  0  0  0  0  0
   56.4045   27.8705   45.4693 O   0  0  0  0  0  0  0  0  0  0  0  0
   55.9748   28.6393   45.1495 H   0  0  0  0  0  0  0  0  0  0  0  0
   57.9330   22.6527   45.2312 C   0  0  0  0  0  0  0  0  0  0  0  0
   56.9463   23.5291   45.4404 C   0  0  0  0  0  0  0  0  0  0  0  0
   55.6671   23.2351   45.1406 N   0  0  0  0  0  0  0  0  0  0  0  0
   54.9757   24.2837   45.6233 C   0  0  0  0  0  0  0  0  0  0  0  0
   53.7233   24.3701   45.5384 O   0  0  0  0  0  0  0  0  0  0  0  0
   55.7314   25.2321   46.2106 N   0  0  0  0  0  0  0  0  0  0  0  0
   56.9923   24.7734   46.0793 C   0  0  0  0  0  0  0  0  0  0  0  0
   58.0415   25.4929   46.5184 C   0  0  0  0  0  0  0  0  0  0  0  0
   58.2785   30.0603   44.4474 C   0  0  0  0  0  0  0  0  0  0  0  0
   58.1864   31.1739   45.5026 C   0  0  0  0  0  0  0  0  0  0  0  0
   58.7161   30.7568   46.8837 C   0  0  0  0  0  0  0  0  0  0  0  0
   59.2768   31.9106   47.6269 N   0  0  0  0  0  0  0  0  0  0  0  0
   59.2798   31.6979   49.0868 C   0  0  0  0  0  0  0  0  0  0  0  0
   60.3747   30.7108   49.5200 C   0  0  0  0  0  0  0  0  0  0  0  0
   61.7143   31.1485   49.0824 N   0  0  0  0  0  0  0  0  0  0  0  0
   61.7444   31.3946   47.6247 C   0  0  0  0  0  0  0  0  0  0  0  0
   60.6111   32.3272   47.1468 C   0  0  0  0  0  0  0  0  0  0  0  0
   62.2288   32.2855   49.8780 C   0  0  0  0  0  0  0  0  0  0  0  0
   63.6331   32.0060   50.3439 C   0  0  0  0  0  0  0  0  0  0  0  0
   63.8978   30.9380   51.2178 C   0  0  0  0  0  0  0  0  0  0  0  0
   65.2040   30.6965   51.6586 C   0  0  0  0  0  0  0  0  0  0  0  0
   66.2498   31.5186   51.2328 C   0  0  0  0  0  0  0  0  0  0  0  0
   65.9932   32.5853   50.3664 C   0  0  0  0  0  0  0  0  0  0  0  0
   64.6894   32.8313   49.9238 C   0  0  0  0  0  0  0  0  0  0  0  0
  9 10  2  0
 10 11  1  0
 11 12  1  0
 12 13  2  0
 12 14  1  0
 14 15  1  0
 15 16  2  0
 16  1  1  0
  1  2  1  0
  2  3  1  0
  3  4  2  0
  3  5  1  0
  5 17  1  0
 17 18  1  0
 18 19  1  0
 19 20  1  0
 20 21  1  0
 21 22  1  0
 22 23  1  0
 23 26  1  0
 26 27  1  0
 27 28  2  0
 28 29  1  0
 29 30  2  0
 30 31  1  0
 31 32  2  0
 23 24  1  0
 24 25  1  0
  5  6  1  0
  6  7  1  0
 15 10  1  0
  6  1  2  0
 25 20  1  0
 32 27  1  0
  7  8  1  0
M  CHG 1   2  -1
M  CHG 1  11  -1
M  CHG 1  14  -1
M  END
> <UniqueID>
4

> <SMILES>
C=c1[n-]c(=O)[n-]c1=Cc1[n-]c(=O)n(CCCN2CCN(Cc3ccccc3)CC2)c1O

> <Energy>
134.45576820017143

> <Genealogy>
C=c1[n-]c(=O)[n-]c1=Cc1[n-]c(=O)n(CCCN2CCN(Cc3ccccc3)CC2)c1O (protonated)
C=c1[n-]c(=O)[n-]c1=Cc1[n-]c(=O)n(CCCN2CCN(Cc3ccccc3)CC2)c1O (3D coordinates assigned)
C=c1[n-]c(=O)[n-]c1=Cc1[n-]c(=O)n(CCCN2CCN(Cc3ccccc3)CC2)c1O (nonaromatic ring conformer: 134.45576820017143 kcal/mol)

> <smiles>
C=c1[nH]c(=O)[nH]c1=Cc1[nH]c(=O)n(CCCN2CCN(Cc3ccccc3)CC2)c1O

> <score_type>
oracle

> <origin>
adg

> <m_score__min__energy>
-15.25

> <m_primary>
energy

> <minimizedAffinity>
-8.38094

> <minimizedRMSD>
2.15778

> <CNNscore>
0.0829488039

> <CNNaffinity>
5.2965741158

> <CNN_VS>
0.4393444955

> <CNNaffinity_variance>
0.5019503236

$$$$
31:0


 23 25  0  0  0  0  0  0  0  0999 V2000
   57.4011   30.6110   53.1834 C   0  0  0  0  0  0  0  0  0  0  0  0
   57.1713   31.5779   52.1927 C   0  0  0  0  0  0  0  0  0  0  0  0
   58.0736   31.7358   51.1381 C   0  0  0  0  0  0  0  0  0  0  0  0
   59.2217   30.9465   51.0765 C   0  0  0  0  0  0  0  0  0  0  0  0
   59.4683   29.9941   52.0670 C   0  0  0  0  0  0  0  0  0  0  0  0
   58.5635   29.8143   53.1252 C   0  0  0  0  0  0  0  0  0  0  0  0
   58.8051   28.7758   54.0954 N   0  0  0  0  0  0  0  0  0  0  0  0
   59.6372   29.0310   55.2729 C   0  0  0  0  0  0  0  0  0  0  0  0
   60.5194   27.8122   55.5370 C   0  0  0  0  0  0  0  0  0  0  0  0
   59.7352   26.6366   55.6200 O   0  0  0  0  0  0  0  0  0  0  0  0
   59.1270   26.3676   54.3682 C   0  0  0  0  0  0  0  0  0  0  0  0
   58.1373   27.4763   53.9968 C   0  0  0  0  0  0  0  0  0  0  0  0
   56.5017   30.4881   54.2918 N   0  0  0  0  0  0  0  0  0  0  0  0
   54.6344   29.6156   55.3594 O   0  0  0  0  0  0  0  0  0  0  0  0
   55.2500   29.7896   54.2733 C   0  0  0  0  0  0  0  0  0  0  0  0
   54.7286   29.1382   53.0200 C   0  0  0  0  0  0  0  0  0  0  0  0
   53.4426   29.7696   52.5777 C   0  0  0  0  0  0  0  0  0  0  0  0
   53.3734   30.9053   51.8591 N   0  0  0  0  0  0  0  0  0  0  0  0
   52.0445   31.1219   51.7416 C   0  0  0  0  0  0  0  0  0  0  0  0
   51.5689   32.1111   51.1207 O   0  0  0  0  0  0  0  0  0  0  0  0
   51.2645   30.2011   52.3461 N   0  0  0  0  0  0  0  0  0  0  0  0
   52.1666   29.3548   52.8746 C   0  0  0  0  0  0  0  0  0  0  0  0
   51.8291   28.2417   53.6293 O   0  0  0  0  0  0  0  0  0  0  0  0
 14 15  2  0
 15 16  1  0
 16 17  1  0
 17 18  1  0
 18 19  1  0
 19 20  2  0
 19 21  1  0
 21 22  1  0
 22 23  1  0
 15 13  1  0
 13  1  1  0
  1  2  2  0
  2  3  1  0
  3  4  2  0
  4  5  1  0
  5  6  2  0
  6  7  1  0
  7  8  1  0
  8  9  1  0
  9 10  1  0
 10 11  1  0
 11 12  1  0
 22 17  2  0
  6  1  1  0
 12  7  1  0
M  CHG 1  13  -1
M  CHG 1  18  -1
M  CHG 1  21  -1
M  CHG 1  23  -1
M  END
> <UniqueID>
31

> <SMILES>
O=C(Cc1[n-]c(=O)[n-]c1[O-])[N-]c1ccccc1N1CCOCC1

> <Energy>
78.27654614444512

> <Genealogy>
O=C(Cc1[n-]c(=O)[n-]c1[O-])[N-]c1ccccc1N1CCOCC1 (protonated)
O=C(Cc1[n-]c(=O)[n-]c1[O-])[N-]c1ccccc1N1CCOCC1 (3D coordinates assigned)
O=C(Cc1[n-]c(=O)[n-]c1[O-])[N-]c1ccccc1N1CCOCC1 (nonaromatic ring conformer: 78.27654614444512 kcal/mol)

> <smiles>
O=C(Cc1[nH]c(=O)[nH]c1O)Nc1ccccc1N1CCOCC1

> <score_type>
oracle

> <origin>
adg

> <m_score__min__energy>
-16.149999999999999

> <m_primary>
energy

> <minimizedAffinity>
-4.24723

> <minimizedRMSD>
4.38037

> <CNNscore>
0.2214846164

> <CNNaffinity>
3.8770301342

> <CNN_VS>
0.8587025404

> <CNNaffinity_variance>
0.5325875878

$$$$
36:0


 33 36  0  0  0  0  0  0  0  0999 V2000
   60.2050   29.4329   46.3437 C   0  0  0  0  0  0  0  0  0  0  0  0
   60.2889   30.3169   47.3577 C   0  0  0  0  0  0  0  0  0  0  0  0
   60.1312   31.6795   47.1766 C   0  0  0  0  0  0  0  0  0  0  0  0
   60.1686   32.2580   48.4290 C   0  0  0  0  0  0  0  0  0  0  0  0
   59.9790   33.7217   48.6899 C   0  0  0  0  0  0  0  0  0  0  0  0
   60.3771   31.3168   49.3791 N   0  0  0  0  0  0  0  0  0  0  0  0
   60.4873   30.1233   48.7353 C   0  0  0  0  0  0  0  0  0  0  0  0
   60.8303   28.9810   49.3512 C   0  0  0  0  0  0  0  0  0  0  0  0
   59.2217   28.3350   46.2469 C   0  0  0  0  0  0  0  0  0  0  0  0
   57.8972   28.5777   45.8430 C   0  0  0  0  0  0  0  0  0  0  0  0
   57.4653   29.8674   45.5554 O   0  0  0  0  0  0  0  0  0  0  0  0
   57.0273   27.5413   45.7217 N   0  0  0  0  0  0  0  0  0  0  0  0
   57.4174   26.2651   45.9693 C   0  0  0  0  0  0  0  0  0  0  0  0
   56.5928   25.3219   45.8541 O   0  0  0  0  0  0  0  0  0  0  0  0
   58.6992   26.0039   46.3330 N   0  0  0  0  0  0  0  0  0  0  0  0
   59.6083   27.0046   46.4677 C   0  0  0  0  0  0  0  0  0  0  0  0
   60.7916   26.7257   46.7988 O   0  0  0  0  0  0  0  0  0  0  0  0
   60.4292   31.5488   50.8328 C   0  0  0  0  0  0  0  0  0  0  0  0
   59.1777   31.0335   51.4995 C   0  0  0  0  0  0  0  0  0  0  0  0
   57.9561   31.7012   51.3248 C   0  0  0  0  0  0  0  0  0  0  0  0
   56.8017   31.2431   51.9668 C   0  0  0  0  0  0  0  0  0  0  0  0
   56.8535   30.1125   52.7992 C   0  0  0  0  0  0  0  0  0  0  0  0
   58.0687   29.4235   52.9424 C   0  0  0  0  0  0  0  0  0  0  0  0
   59.2192   29.8751   52.2914 C   0  0  0  0  0  0  0  0  0  0  0  0
   55.6392   29.6575   53.5190 C   0  0  0  0  0  0  0  0  0  0  0  0
   55.6450   29.6010   54.7766 O   0  0  0  0  0  0  0  0  0  0  0  0
   54.4238   29.3442   52.8182 N   0  0  0  0  0  0  0  0  0  0  0  0
   53.3646   30.0967   52.7087 C   0  0  0  0  0  0  0  0  0  0  0  0
   52.4405   30.0638   53.7071 N   0  0  0  0  0  0  0  0  0  0  0  0
   51.3056   30.8139   53.6716 C   0  0  0  0  0  0  0  0  0  0  0  0
   51.0513   31.6467   52.5820 C   0  0  0  0  0  0  0  0  0  0  0  0
   51.9680   31.6915   51.5301 C   0  0  0  0  0  0  0  0  0  0  0  0
   53.1282   30.9169   51.5836 C   0  0  0  0  0  0  0  0  0  0  0  0
  1  9  1  0
  9 10  2  0
 10 11  1  0
 10 12  1  0
 12 13  1  0
 13 14  2  0
 13 15  1  0
 15 16  1  0
 16 17  2  0
  1  2  2  0
  2  3  1  0
  3  4  2  0
  4  5  1  0
  4  6  1  0
  6 18  1  0
 18 19  1  0
 19 20  2  0
 20 21  1  0
 21 22  2  0
 22 25  1  0
 25 26  2  0
 25 27  1  0
 27 28  2  0
 28 29  1  0
 29 30  1  0
 30 31  2  0
 31 32  1  0
 32 33  2  0
 22 23  1  0
 23 24  2  0
  6  7  1  0
  7  8  2  0
 16  9  1  0
  7  2  1  0
 24 19  1  0
 33 28  1  0
M  CHG 1  11  -1
M  CHG 1  12  -1
M  CHG 1  15  -1
M  CHG 1  29  -1
M  END
> <UniqueID>
35

> <SMILES>
C=c1c(=Cc2c([O-])[n-]c(=O)[n-]c2=O)cc(C)n1Cc1ccc(C(=O)/N=c2\cccc[n-]2)cc1

> <Energy>
107.01869236975323

> <Genealogy>
C=c1c(=Cc2c([O-])[n-]c(=O)[n-]c2=O)cc(C)n1Cc1ccc(C(=O)N=c2cccc[n-]2)cc1 (protonated)
C=c1c(=Cc2c([O-])[n-]c(=O)[n-]c2=O)cc(C)n1Cc1ccc(C(=O)/N=c2\cccc[n-]2)cc1 (cis-trans isomerization)
C=c1c(=Cc2c([O-])[n-]c(=O)[n-]c2=O)cc(C)n1Cc1ccc(C(=O)/N=c2\cccc[n-]2)cc1 (3D coordinates assigned)
C=c1c(=Cc2c([O-])[n-]c(=O)[n-]c2=O)cc(C)n1Cc1ccc(C(=O)/N=c2\cccc[n-]2)cc1 (optimized conformer: 107.01869236975323 kcal/mol)

> <smiles>
C=c1c(=Cc2c(O)[nH]c(=O)[nH]c2=O)cc(C)n1Cc1ccc(C(=O)N=c2cccc[nH]2)cc1

> <score_type>
oracle

> <origin>
adg

> <m_score__min__energy>
-17.739999999999998

> <m_primary>
energy

> <minimizedAffinity>
-8.75980

> <minimizedRMSD>
1.62381

> <CNNscore>
0.4274852872

> <CNNaffinity>
6.9096531868

> <CNN_VS>
2.9537751675

> <CNNaffinity_variance>
0.0245590061

$$$$
43:0


 29 31  0  0  0  0  0  0  0  0999 V2000
   59.1481   32.9749   54.0526 C   0  0  0  0  0  0  0  0  0  0  0  0
   59.0165   32.6403   52.7602 C   0  0  0  0  0  0  0  0  0  0  0  0
   59.2381   33.6271   51.8587 N   0  0  0  0  0  0  0  0  0  0  0  0
   59.3298   33.3959   50.5302 C   0  0  0  0  0  0  0  0  0  0  0  0
   59.5229   34.3745   49.7574 O   0  0  0  0  0  0  0  0  0  0  0  0
   59.2475   32.1203   50.0428 N   0  0  0  0  0  0  0  0  0  0  0  0
   58.9844   31.0805   50.9020 C   0  0  0  0  0  0  0  0  0  0  0  0
   58.8912   29.9081   50.4404 O   0  0  0  0  0  0  0  0  0  0  0  0
   58.7819   31.3117   52.2895 C   0  0  0  0  0  0  0  0  0  0  0  0
   58.3481   30.2773   53.0662 C   0  0  0  0  0  0  0  0  0  0  0  0
   56.9801   29.7188   53.1068 C   0  0  0  0  0  0  0  0  0  0  0  0
   55.9213   30.4754   52.5807 C   0  0  0  0  0  0  0  0  0  0  0  0
   54.6073   29.9939   52.6199 C   0  0  0  0  0  0  0  0  0  0  0  0
   54.3497   28.7455   53.2156 C   0  0  0  0  0  0  0  0  0  0  0  0
   55.3943   28.0025   53.7716 C   0  0  0  0  0  0  0  0  0  0  0  0
   56.7030   28.4868   53.7326 C   0  0  0  0  0  0  0  0  0  0  0  0
   57.7193   27.7468   54.3289 O   0  0  0  0  0  0  0  0  0  0  0  0
   53.5933   30.7847   52.0600 O   0  0  0  0  0  0  0  0  0  0  0  0
   52.2152   30.6949   52.4115 C   0  0  0  0  0  0  0  0  0  0  0  0
   51.4837   31.8550   51.8260 C   0  0  0  0  0  0  0  0  0  0  0  0
   50.8042   32.6132   52.5654 O   0  0  0  0  0  0  0  0  0  0  0  0
   51.5035   32.0682   50.4534 O   0  0  0  0  0  0  0  0  0  0  0  0
   59.3790   31.8678   48.5925 C   0  0  0  0  0  0  0  0  0  0  0  0
   60.7628   32.2303   48.1143 C   0  0  0  0  0  0  0  0  0  0  0  0
   61.8916   31.6131   48.6803 C   0  0  0  0  0  0  0  0  0  0  0  0
   63.1761   31.9695   48.2572 C   0  0  0  0  0  0  0  0  0  0  0  0
   63.3439   32.9447   47.2715 C   0  0  0  0  0  0  0  0  0  0  0  0
   62.2271   33.5643   46.7048 C   0  0  0  0  0  0  0  0  0  0  0  0
   60.9413   33.2116   47.1246 C   0  0  0  0  0  0  0  0  0  0  0  0
  1  2  2  0
  2  3  1  0
  3  4  1  0
  4  5  2  0
  4  6  1  0
  6 23  1  0
 23 24  1  0
 24 25  2  0
 25 26  1  0
 26 27  2  0
 27 28  1  0
 28 29  2  0
  6  7  1  0
  7  8  2  0
  7  9  1  0
  9 10  2  0
 10 11  1  0
 11 12  2  0
 12 13  1  0
 13 18  1  0
 18 19  1  0
 19 20  1  0
 20 21  2  0
 20 22  1  0
 13 14  2  0
 14 15  1  0
 15 16  2  0
 16 17  1  0
  9  2  1  0
 16 11  1  0
 29 24  1  0
M  CHG 1   3  -1
M  CHG 1  17  -1
M  CHG 1  22  -1
M  END
> <UniqueID>
42

> <SMILES>
C=c1[n-]c(=O)n(Cc2ccccc2)c(=O)c1=Cc1cc(OCC(=O)[O-])ccc1[O-]

> <Energy>
72.6594492478076

> <Genealogy>
C=c1[n-]c(=O)n(Cc2ccccc2)c(=O)c1=Cc1cc(OCC(=O)[O-])ccc1[O-] (protonated)
C=c1[n-]c(=O)n(Cc2ccccc2)c(=O)c1=Cc1cc(OCC(=O)[O-])ccc1[O-] (3D coordinates assigned)
C=c1[n-]c(=O)n(Cc2ccccc2)c(=O)c1=Cc1cc(OCC(=O)[O-])ccc1[O-] (optimized conformer: 72.6594492478076 kcal/mol)

> <smiles>
C=c1[nH]c(=O)n(Cc2ccccc2)c(=O)c1=Cc1cc(OCC(=O)O)ccc1O

> <score_type>
oracle

> <origin>
adg

> <m_score__min__energy>
-14.42

> <m_primary>
energy

> <minimizedAffinity>
-7.16616

> <minimizedRMSD>
0.78897

> <CNNscore>
0.2967239618

> <CNNaffinity>
5.4405608177

> <CNN_VS>
1.6143447161

> <CNNaffinity_variance>
0.0447371788

$$$$
63:0


 28 30  0  0  0  0  0  0  0  0999 V2000
   59.3124   29.1085   44.9587 C   0  0  0  0  0  0  0  0  0  0  0  0
   58.8240   30.3457   45.2608 C   0  0  0  0  0  0  0  0  0  0  0  0
   57.8548   31.0506   44.4827 C   0  0  0  0  0  0  0  0  0  0  0  0
   57.5371   30.7501   43.2162 C   0  0  0  0  0  0  0  0  0  0  0  0
   57.2852   32.1678   44.9981 N   0  0  0  0  0  0  0  0  0  0  0  0
   57.6524   32.6932   46.1869 C   0  0  0  0  0  0  0  0  0  0  0  0
   57.0524   33.7201   46.6061 O   0  0  0  0  0  0  0  0  0  0  0  0
   58.6699   32.1282   46.9067 N   0  0  0  0  0  0  0  0  0  0  0  0
   59.2673   30.9774   46.4545 C   0  0  0  0  0  0  0  0  0  0  0  0
   60.1989   30.4568   47.1326 O   0  0  0  0  0  0  0  0  0  0  0  0
   57.5133   24.1617   47.1013 O   0  0  0  0  0  0  0  0  0  0  0  0
   57.9493   25.3769   46.5771 C   0  0  0  0  0  0  0  0  0  0  0  0
   59.3166   25.6762   46.5199 C   0  0  0  0  0  0  0  0  0  0  0  0
   59.7487   26.8934   45.9902 C   0  0  0  0  0  0  0  0  0  0  0  0
   58.8214   27.8188   45.4898 C   0  0  0  0  0  0  0  0  0  0  0  0
   57.4427   27.5335   45.5804 C   0  0  0  0  0  0  0  0  0  0  0  0
   56.4974   28.4645   45.1593 O   0  0  0  0  0  0  0  0  0  0  0  0
   57.0145   26.3096   46.1113 C   0  0  0  0  0  0  0  0  0  0  0  0
   55.6545   26.0234   46.1812 O   0  0  0  0  0  0  0  0  0  0  0  0
   58.1365   23.5356   47.4138 H   0  0  0  0  0  0  0  0  0  0  0  0
   59.0772   32.7093   48.2055 C   0  0  0  0  0  0  0  0  0  0  0  0
   59.9975   33.9242   48.0134 C   0  0  0  0  0  0  0  0  0  0  0  0
   61.4206   33.6146   48.3971 C   0  0  0  0  0  0  0  0  0  0  0  0
   62.3464   33.2191   47.4174 C   0  0  0  0  0  0  0  0  0  0  0  0
   63.6798   32.9788   47.7646 C   0  0  0  0  0  0  0  0  0  0  0  0
   64.0993   33.1396   49.0895 C   0  0  0  0  0  0  0  0  0  0  0  0
   63.1842   33.5420   50.0672 C   0  0  0  0  0  0  0  0  0  0  0  0
   61.8510   33.7810   49.7245 C   0  0  0  0  0  0  0  0  0  0  0  0
 11 12  1  0
 12 13  2  0
 13 14  1  0
 14 15  2  0
 15  1  1  0
  1  2  2  0
  2  3  1  0
  3  4  2  0
  3  5  1  0
  5  6  1  0
  6  7  2  0
  6  8  1  0
  8 21  1  0
 21 22  1  0
 22 23  1  0
 23 24  2  0
 24 25  1  0
 25 26  2  0
 26 27  1  0
 27 28  2  0
  8  9  1  0
  9 10  2  0
 15 16  1  0
 16 17  1  0
 16 18  2  0
 18 19  1  0
 18 12  1  0
  9  2  1  0
 28 23  1  0
 11 20  1  0
M  CHG 1   5  -1
M  CHG 1  17  -1
M  CHG 1  19  -1
M  END
> <UniqueID>
60

> <SMILES>
C=c1[n-]c(=O)n(CCc2ccccc2)c(=O)/c1=C/c1ccc(O)c([O-])c1[O-]

> <Energy>
69.14033997590701

> <Genealogy>
C=c1[n-]c(=O)n(CCc2ccccc2)c(=O)c1=Cc1ccc(O)c([O-])c1[O-] (protonated)
C=c1[n-]c(=O)n(CCc2ccccc2)c(=O)/c1=C/c1ccc(O)c([O-])c1[O-] (cis-trans isomerization)
C=c1[n-]c(=O)n(CCc2ccccc2)c(=O)/c1=C/c1ccc(O)c([O-])c1[O-] (3D coordinates assigned)
C=c1[n-]c(=O)n(CCc2ccccc2)c(=O)/c1=C/c1ccc(O)c([O-])c1[O-] (optimized conformer: 69.14033997590701 kcal/mol)

> <smiles>
C=c1[nH]c(=O)n(CCc2ccccc2)c(=O)c1=Cc1ccc(O)c(O)c1O

> <score_type>
oracle

> <origin>
adg

> <m_score__min__energy>
-17.48

> <m_primary>
energy

> <minimizedAffinity>
-8.75243

> <minimizedRMSD>
1.05880

> <CNNscore>
0.6758343577

> <CNNaffinity>
6.7544512749

> <CNN_VS>
4.5648903847

> <CNNaffinity_variance>
0.1067021862

$$$$
71:0


 28 30  0  0  0  0  0  0  0  0999 V2000
   59.4052   31.6830   49.5894 C   0  0  0  0  0  0  0  0  0  0  0  0
   59.8059   30.3722   49.8840 C   0  0  0  0  0  0  0  0  0  0  0  0
   59.1758   29.6572   50.9037 C   0  0  0  0  0  0  0  0  0  0  0  0
   58.1343   30.2427   51.6354 C   0  0  0  0  0  0  0  0  0  0  0  0
   57.7733   31.5717   51.3845 C   0  0  0  0  0  0  0  0  0  0  0  0
   58.3982   32.2853   50.3581 C   0  0  0  0  0  0  0  0  0  0  0  0
   60.1366   32.5519   48.2377 S   0  0  0  0  0  0  0  0  0  0  0  0
   61.5430   32.9433   48.5981 O   0  0  0  0  0  0  0  0  0  0  0  0
   59.3577   33.8122   47.9800 O   0  0  0  0  0  0  0  0  0  0  0  0
   58.6505   28.3285   44.8012 C   0  0  0  0  0  0  0  0  0  0  0  0
   59.1362   28.8698   46.0783 N   0  0  0  0  0  0  0  0  0  0  0  0
   60.5556   29.2757   45.9615 C   0  0  0  0  0  0  0  0  0  0  0  0
   60.9210   30.3349   47.0054 C   0  0  0  0  0  0  0  0  0  0  0  0
   60.1510   31.5773   46.7856 N   0  0  0  0  0  0  0  0  0  0  0  0
   58.7811   31.3528   46.2598 C   0  0  0  0  0  0  0  0  0  0  0  0
   58.2446   29.9459   46.5825 C   0  0  0  0  0  0  0  0  0  0  0  0
   57.4644   29.5053   52.6613 N   0  0  0  0  0  0  0  0  0  0  0  0
   56.1582   29.8310   53.1591 C   0  0  0  0  0  0  0  0  0  0  0  0
   56.0345   30.7935   53.9644 O   0  0  0  0  0  0  0  0  0  0  0  0
   54.9269   29.1000   52.6904 C   0  0  0  0  0  0  0  0  0  0  0  0
   53.6729   29.9251   52.8474 C   0  0  0  0  0  0  0  0  0  0  0  0
   52.9681   29.9199   54.0621 C   0  0  0  0  0  0  0  0  0  0  0  0
   51.7927   30.6624   54.2003 C   0  0  0  0  0  0  0  0  0  0  0  0
   51.2980   31.4007   53.1234 C   0  0  0  0  0  0  0  0  0  0  0  0
   50.1220   32.1276   53.2617 O   0  0  0  0  0  0  0  0  0  0  0  0
   51.9858   31.4054   51.9054 C   0  0  0  0  0  0  0  0  0  0  0  0
   51.5019   32.1437   50.8334 O   0  0  0  0  0  0  0  0  0  0  0  0
   53.1652   30.6649   51.7658 C   0  0  0  0  0  0  0  0  0  0  0  0
 10 11  1  0
 11 12  1  0
 12 13  1  0
 13 14  1  0
 14  7  1  0
  7  8  2  0
  7  9  2  0
  7  1  1  0
  1  2  2  0
  2  3  1  0
  3  4  2  0
  4 17  1  0
 17 18  1  0
 18 19  2  0
 18 20  1  0
 20 21  1  0
 21 22  2  0
 22 23  1  0
 23 24  2  0
 24 25  1  0
 24 26  1  0
 26 27  1  0
 26 28  2  0
  4  5  1  0
  5  6  2  0
 14 15  1  0
 15 16  1  0
 16 11  1  0
  6  1  1  0
 28 21  1  0
M  CHG 1  17  -1
M  CHG 1  25  -1
M  CHG 1  27  -1
M  END
> <UniqueID>
68

> <SMILES>
CN1CCN(S(=O)(=O)c2ccc([N-]C(=O)Cc3ccc([O-])c([O-])c3)cc2)CC1

> <Energy>
62.12410262241421

> <Genealogy>
CN1CCN(S(=O)(=O)c2ccc([N-]C(=O)Cc3ccc([O-])c([O-])c3)cc2)CC1 (protonated)
CN1CCN(S(=O)(=O)c2ccc([N-]C(=O)Cc3ccc([O-])c([O-])c3)cc2)CC1 (3D coordinates assigned)
CN1CCN(S(=O)(=O)c2ccc([N-]C(=O)Cc3ccc([O-])c([O-])c3)cc2)CC1 (nonaromatic ring conformer: 62.12410262241421 kcal/mol)

> <smiles>
CN1CCN(S(=O)(=O)c2ccc(NC(=O)Cc3ccc(O)c(O)c3)cc2)CC1

> <score_type>
oracle

> <origin>
adg

> <m_score__min__energy>
-18.32

> <m_primary>
energy

> <minimizedAffinity>
-6.35648

> <minimizedRMSD>
0.88880

> <CNNscore>
0.1469135135

> <CNNaffinity>
5.5718350410

> <CNN_VS>
0.8185778856

> <CNNaffinity_variance>
0.0089290952

$$$$
76:0


 32 35  0  0  0  0  0  0  0  0999 V2000
   57.7250   31.1505   43.4639 C   0  0  0  0  0  0  0  0  0  0  0  0
   58.1052   31.2559   44.7443 C   0  0  0  0  0  0  0  0  0  0  0  0
   57.7808   32.4081   45.3792 N   0  0  0  0  0  0  0  0  0  0  0  0
   58.2754   32.7398   46.5925 C   0  0  0  0  0  0  0  0  0  0  0  0
   57.9115   33.8254   47.1185 O   0  0  0  0  0  0  0  0  0  0  0  0
   59.1765   31.9216   47.2167 N   0  0  0  0  0  0  0  0  0  0  0  0
   59.5188   30.7215   46.6413 C   0  0  0  0  0  0  0  0  0  0  0  0
   60.3424   29.9655   47.2308 O   0  0  0  0  0  0  0  0  0  0  0  0
   58.9281   30.3042   45.4178 C   0  0  0  0  0  0  0  0  0  0  0  0
   59.1646   29.0366   44.9786 C   0  0  0  0  0  0  0  0  0  0  0  0
   58.3673   27.8384   45.3029 C   0  0  0  0  0  0  0  0  0  0  0  0
   58.8965   26.6519   45.5171 O   0  0  0  0  0  0  0  0  0  0  0  0
   57.9319   25.8106   45.8281 C   0  0  0  0  0  0  0  0  0  0  0  0
   56.7150   26.4688   45.8150 C   0  0  0  0  0  0  0  0  0  0  0  0
   55.4553   25.9286   46.0428 O   0  0  0  0  0  0  0  0  0  0  0  0
   56.9975   27.7719   45.4944 C   0  0  0  0  0  0  0  0  0  0  0  0
   56.0832   28.8142   45.4021 O   0  0  0  0  0  0  0  0  0  0  0  0
   58.1564   24.4197   46.0920 N   0  0  0  0  0  0  0  0  0  0  0  0
   58.7523   24.1835   46.8393 H   0  0  0  0  0  0  0  0  0  0  0  0
   57.5687   23.3481   45.3373 C   0  0  0  0  0  0  0  0  0  0  0  0
   57.1467   23.5825   44.0195 C   0  0  0  0  0  0  0  0  0  0  0  0
   56.6001   22.5449   43.2574 C   0  0  0  0  0  0  0  0  0  0  0  0
   56.4860   21.2628   43.8007 C   0  0  0  0  0  0  0  0  0  0  0  0
   56.9271   21.0132   45.1034 C   0  0  0  0  0  0  0  0  0  0  0  0
   57.4746   22.0489   45.8664 C   0  0  0  0  0  0  0  0  0  0  0  0
   59.7961   32.3340   48.4942 C   0  0  0  0  0  0  0  0  0  0  0  0
   61.2707   32.5845   48.3068 C   0  0  0  0  0  0  0  0  0  0  0  0
   61.7307   33.3470   47.2198 C   0  0  0  0  0  0  0  0  0  0  0  0
   63.0982   33.6021   47.0672 C   0  0  0  0  0  0  0  0  0  0  0  0
   64.0124   33.1043   47.9990 C   0  0  0  0  0  0  0  0  0  0  0  0
   63.5615   32.3493   49.0861 C   0  0  0  0  0  0  0  0  0  0  0  0
   62.1953   32.0919   49.2413 C   0  0  0  0  0  0  0  0  0  0  0  0
  1  2  2  0
  2  3  1  0
  3  4  1  0
  4  5  2  0
  4  6  1  0
  6 26  1  0
 26 27  1  0
 27 28  2  0
 28 29  1  0
 29 30  2  0
 30 31  1  0
 31 32  2  0
  6  7  1  0
  7  8  2  0
  7  9  1  0
  9 10  2  0
 10 11  1  0
 11 12  1  0
 12 13  1  0
 13 18  1  0
 18 20  1  0
 20 21  2  0
 21 22  1  0
 22 23  2  0
 23 24  1  0
 24 25  2  0
 13 14  2  0
 14 15  1  0
 14 16  1  0
 16 17  1  0
  9  2  1  0
 16 11  2  0
 32 27  1  0
 25 20  1  0
 18 19  1  0
M  CHG 1   3  -1
M  CHG 1  15  -1
M  CHG 1  17  -1
M  END
> <UniqueID>
72

> <SMILES>
C=c1[n-]c(=O)n(Cc2ccccc2)c(=O)/c1=C/c1oc(Nc2ccccc2)c([O-])c1[O-]

> <Energy>
114.31153811839513

> <Genealogy>
C=c1[n-]c(=O)n(Cc2ccccc2)c(=O)c1=Cc1oc(Nc2ccccc2)c([O-])c1[O-] (protonated)
C=c1[n-]c(=O)n(Cc2ccccc2)c(=O)/c1=C/c1oc(Nc2ccccc2)c([O-])c1[O-] (cis-trans isomerization)
C=c1[n-]c(=O)n(Cc2ccccc2)c(=O)/c1=C/c1oc(Nc2ccccc2)c([O-])c1[O-] (3D coordinates assigned)
C=c1[n-]c(=O)n(Cc2ccccc2)c(=O)/c1=C/c1oc(Nc2ccccc2)c([O-])c1[O-] (optimized conformer: 114.31153811839513 kcal/mol)

> <smiles>
C=c1[nH]c(=O)n(Cc2ccccc2)c(=O)c1=Cc1oc(Nc2ccccc2)c(O)c1O

> <score_type>
oracle

> <origin>
adg

> <m_score__min__energy>
-17.210000000000001

> <m_primary>
energy

> <minimizedAffinity>
-8.91007

> <minimizedRMSD>
0.92795

> <CNNscore>
0.2358492464

> <CNNaffinity>
6.5728206635

> <CNN_VS>
1.5501948595

> <CNNaffinity_variance>
0.1163299009

$$$$
13:0


 34 38  0  0  0  0  0  0  0  0999 V2000
   59.6484   29.8241   47.2855 C   0  0  0  0  0  0  0  0  0  0  0  0
   60.7744   30.6030   46.9908 C   0  0  0  0  0  0  0  0  0  0  0  0
   61.3107   31.4620   47.9498 C   0  0  0  0  0  0  0  0  0  0  0  0
   60.7300   31.5568   49.2246 C   0  0  0  0  0  0  0  0  0  0  0  0
   59.5867   30.7899   49.5104 C   0  0  0  0  0  0  0  0  0  0  0  0
   59.0605   29.9153   48.5537 C   0  0  0  0  0  0  0  0  0  0  0  0
   61.2958   32.5109   50.2102 C   0  0  0  0  0  0  0  0  0  0  0  0
   60.5858   33.4957   50.5592 O   0  0  0  0  0  0  0  0  0  0  0  0
   62.6157   32.3656   50.7767 N   0  0  0  0  0  0  0  0  0  0  0  0
   63.6655   31.5781   50.1138 C   0  0  0  0  0  0  0  0  0  0  0  0
   64.9825   32.3607   50.0730 C   0  0  0  0  0  0  0  0  0  0  0  0
   65.2665   33.0184   51.3504 N   0  0  0  0  0  0  0  0  0  0  0  0
   66.4254   33.8617   51.4600 C   0  0  0  0  0  0  0  0  0  0  0  0
   66.3308   34.9941   52.0062 O   0  0  0  0  0  0  0  0  0  0  0  0
   64.3604   32.8440   52.4892 C   0  0  0  0  0  0  0  0  0  0  0  0
   62.9126   33.0551   52.0409 C   0  0  0  0  0  0  0  0  0  0  0  0
   67.7327   33.4317   50.8737 C   0  0  0  0  0  0  0  0  0  0  0  0
   68.8720   34.4217   51.0166 C   0  0  0  0  0  0  0  0  0  0  0  0
   68.8107   33.2018   51.9176 C   0  0  0  0  0  0  0  0  0  0  0  0
   59.7753   26.8506   47.1484 C   0  0  0  0  0  0  0  0  0  0  0  0
   59.0814   27.5986   46.2779 C   0  0  0  0  0  0  0  0  0  0  0  0
   58.3446   27.1416   45.1706 C   0  0  0  0  0  0  0  0  0  0  0  0
   57.9443   25.9033   44.8196 C   0  0  0  0  0  0  0  0  0  0  0  0
   57.9992   28.2722   44.4474 C   0  0  0  0  0  0  0  0  0  0  0  0
   58.4552   29.3622   45.1626 C   0  0  0  0  0  0  0  0  0  0  0  0
   58.2558   30.7930   44.7625 C   0  0  0  0  0  0  0  0  0  0  0  0
   59.1006   28.9565   46.2775 N   0  0  0  0  0  0  0  0  0  0  0  0
   57.2974   24.9164   45.7073 C   0  0  0  0  0  0  0  0  0  0  0  0
   57.9042   23.8249   46.2135 N   0  0  0  0  0  0  0  0  0  0  0  0
   56.9863   23.3237   47.0684 C   0  0  0  0  0  0  0  0  0  0  0  0
   57.1800   22.2701   47.7303 O   0  0  0  0  0  0  0  0  0  0  0  0
   55.8539   24.0473   47.1712 N   0  0  0  0  0  0  0  0  0  0  0  0
   56.0744   25.0596   46.3161 C   0  0  0  0  0  0  0  0  0  0  0  0
   55.1835   26.1020   46.1061 O   0  0  0  0  0  0  0  0  0  0  0  0
 20 21  2  0
 21 22  1  0
 22 23  2  0
 23 28  1  0
 28 29  1  0
 29 30  1  0
 30 31  2  0
 30 32  1  0
 32 33  1  0
 33 34  1  0
 22 24  1  0
 24 25  2  0
 25 26  1  0
 25 27  1  0
 27  1  1  0
  1  2  2  0
  2  3  1  0
  3  4  2  0
  4  7  1  0
  7  8  2  0
  7  9  1  0
  9 10  1  0
 10 11  1  0
 11 12  1  0
 12 13  1  0
 13 14  2  0
 13 17  1  0
 17 18  1  0
 18 19  1  0
 12 15  1  0
 15 16  1  0
  4  5  1  0
  5  6  2  0
 27 21  1  0
  6  1  1  0
 33 28  2  0
 16  9  1  0
 19 17  1  0
M  CHG 1  29  -1
M  CHG 1  32  -1
M  CHG 1  34  -1
M  END
> <UniqueID>
14

> <SMILES>
C=c1/c(=C\c2[n-]c(=O)[n-]c2[O-])cc(C)n1-c1ccc(C(=O)N2CCN(C(=O)C3CC3)CC2)cc1

> <Energy>
408.5142400073379

> <Genealogy>
C=c1c(=Cc2[n-]c(=O)[n-]c2[O-])cc(C)n1-c1ccc(C(=O)N2CCN(C(=O)C3CC3)CC2)cc1 (protonated)
C=c1/c(=C\c2[n-]c(=O)[n-]c2[O-])cc(C)n1-c1ccc(C(=O)N2CCN(C(=O)C3CC3)CC2)cc1 (cis-trans isomerization)
C=c1/c(=C\c2[n-]c(=O)[n-]c2[O-])cc(C)n1-c1ccc(C(=O)N2CCN(C(=O)C3CC3)CC2)cc1 (3D coordinates assigned)
C=c1/c(=C\c2[n-]c(=O)[n-]c2[O-])cc(C)n1-c1ccc(C(=O)N2CCN(C(=O)C3CC3)CC2)cc1 (nonaromatic ring conformer: 408.5142400073379 kcal/mol)

> <smiles>
C=c1c(=Cc2[nH]c(=O)[nH]c2O)cc(C)n1-c1ccc(C(=O)N2CCN(C(=O)C3CC3)CC2)cc1

> <score_type>
oracle

> <origin>
adg

> <m_score__min__energy>
-16.239999999999998

> <m_primary>
energy

> <minimizedAffinity>
-9.65874

> <minimizedRMSD>
1.29049

> <CNNscore>
0.1895861924

> <CNNaffinity>
6.5561027527

> <CNN_VS>
1.2429465055

> <CNNaffinity_variance>
0.0660145357

$$$$
16:0


 29 31  0  0  0  0  0  0  0  0999 V2000
   58.0542   30.6825   45.2304 C   0  0  0  0  0  0  0  0  0  0  0  0
   57.7559   31.6418   44.2448 C   0  0  0  0  0  0  0  0  0  0  0  0
   58.1031   32.9818   44.4333 C   0  0  0  0  0  0  0  0  0  0  0  0
   58.7520   33.3806   45.6020 C   0  0  0  0  0  0  0  0  0  0  0  0
   59.0510   32.4389   46.5983 C   0  0  0  0  0  0  0  0  0  0  0  0
   58.6956   31.0941   46.4150 C   0  0  0  0  0  0  0  0  0  0  0  0
   59.8988   32.9304   48.0608 S   0  0  0  0  0  0  0  0  0  0  0  0
   60.2067   34.3992   47.9673 O   0  0  0  0  0  0  0  0  0  0  0  0
   59.0362   32.6966   49.2717 O   0  0  0  0  0  0  0  0  0  0  0  0
   61.3789   32.0501   48.2487 N   0  0  0  0  0  0  0  0  0  0  0  0
   62.1313   32.2348   47.6412 H   0  0  0  0  0  0  0  0  0  0  0  0
   61.5284   31.0575   49.2725 C   0  0  0  0  0  0  0  0  0  0  0  0
   60.7626   29.8789   49.2314 C   0  0  0  0  0  0  0  0  0  0  0  0
   60.9201   28.9009   50.2155 C   0  0  0  0  0  0  0  0  0  0  0  0
   61.8371   29.0927   51.2507 C   0  0  0  0  0  0  0  0  0  0  0  0
   62.6060   30.2608   51.3026 C   0  0  0  0  0  0  0  0  0  0  0  0
   62.4604   31.2539   50.3120 C   0  0  0  0  0  0  0  0  0  0  0  0
   63.2072   32.4452   50.3374 O   0  0  0  0  0  0  0  0  0  0  0  0
   64.5823   32.5492   49.9686 C   0  0  0  0  0  0  0  0  0  0  0  0
   57.7141   29.2599   45.0074 C   0  0  0  0  0  0  0  0  0  0  0  0
   57.2207   28.8913   43.9044 O   0  0  0  0  0  0  0  0  0  0  0  0
   59.3946   25.1597   45.9909 C   0  0  0  0  0  0  0  0  0  0  0  0
   59.1647   26.4995   46.0124 N   0  0  0  0  0  0  0  0  0  0  0  0
   57.9120   27.0323   46.0786 C   0  0  0  0  0  0  0  0  0  0  0  0
   57.8099   28.3329   46.0987 N   0  0  0  0  0  0  0  0  0  0  0  0
   56.7965   26.1478   46.0861 C   0  0  0  0  0  0  0  0  0  0  0  0
   55.4817   26.5991   46.0598 O   0  0  0  0  0  0  0  0  0  0  0  0
   57.0230   24.7672   46.0712 C   0  0  0  0  0  0  0  0  0  0  0  0
   58.3240   24.2682   46.0320 C   0  0  0  0  0  0  0  0  0  0  0  0
 22 23  1  0
 23 24  1  0
 24 25  2  0
 25 20  1  0
 20 21  2  0
 20  1  1  0
  1  2  2  0
  2  3  1  0
  3  4  2  0
  4  5  1  0
  5  7  1  0
  7  8  2  0
  7  9  2  0
  7 10  1  0
 10 12  1  0
 12 13  2  0
 13 14  1  0
 14 15  2  0
 15 16  1  0
 16 17  2  0
 17 18  1  0
 18 19  1  0
  5  6  2  0
 24 26  1  0
 26 27  1  0
 26 28  2  0
 28 29  1  0
 29 22  2  0
  6  1  1  0
 17 12  1  0
 10 11  1  0
M  CHG 1  23  -1
M  CHG 1  27  -1
M  END
> <UniqueID>
17

> <SMILES>
COc1ccccc1NS(=O)(=O)c1cccc(C(=O)/N=c2/[n-]cccc2[O-])c1

> <Energy>
65.25284735009748

> <Genealogy>
COc1ccccc1NS(=O)(=O)c1cccc(C(=O)N=c2[n-]cccc2[O-])c1 (protonated)
COc1ccccc1NS(=O)(=O)c1cccc(C(=O)/N=c2/[n-]cccc2[O-])c1 (cis-trans isomerization)
COc1ccccc1NS(=O)(=O)c1cccc(C(=O)/N=c2/[n-]cccc2[O-])c1 (3D coordinates assigned)
COc1ccccc1NS(=O)(=O)c1cccc(C(=O)/N=c2/[n-]cccc2[O-])c1 (optimized conformer: 65.25284735009748 kcal/mol)

> <smiles>
COc1ccccc1NS(=O)(=O)c1cccc(C(=O)N=c2[nH]cccc2O)c1

> <score_type>
oracle

> <origin>
adg

> <m_score__min__energy>
-14.380000000000001

> <m_primary>
energy

> <minimizedAffinity>
-7.51708

> <minimizedRMSD>
2.35694

> <CNNscore>
0.2417028099

> <CNNaffinity>
6.2454533577

> <CNN_VS>
1.5095436573

> <CNNaffinity_variance>
0.1058847904

$$$$
20:0


 27 29  0  0  0  0  0  0  0  0999 V2000
   58.5721   27.7967   46.4733 C   0  0  0  0  0  0  0  0  0  0  0  0
   59.8960   27.4735   46.7858 C   0  0  0  0  0  0  0  0  0  0  0  0
   60.3802   26.1851   46.5612 C   0  0  0  0  0  0  0  0  0  0  0  0
   59.5440   25.2041   46.0284 C   0  0  0  0  0  0  0  0  0  0  0  0
   58.2053   25.5003   45.7144 C   0  0  0  0  0  0  0  0  0  0  0  0
   57.7101   26.7962   45.9774 C   0  0  0  0  0  0  0  0  0  0  0  0
   56.3587   27.0717   45.7921 O   0  0  0  0  0  0  0  0  0  0  0  0
   58.1128   29.1302   46.7360 N   0  0  0  0  0  0  0  0  0  0  0  0
   58.3013   30.2563   45.8710 C   0  0  0  0  0  0  0  0  0  0  0  0
   59.2111   31.0980   46.1058 O   0  0  0  0  0  0  0  0  0  0  0  0
   57.4009   30.4611   44.7337 C   0  0  0  0  0  0  0  0  0  0  0  0
   56.1666   30.2340   44.8612 O   0  0  0  0  0  0  0  0  0  0  0  0
   57.9184   30.9076   43.5128 O   0  0  0  0  0  0  0  0  0  0  0  0
   57.7339   32.3509   41.5970 C   0  0  0  0  0  0  0  0  0  0  0  0
   57.8670   32.2711   43.1096 C   0  0  0  0  0  0  0  0  0  0  0  0
   57.3068   24.4174   45.1622 C   0  0  0  0  0  0  0  0  0  0  0  0
   56.5853   23.6667   46.2588 C   0  0  0  0  0  0  0  0  0  0  0  0
   57.3196   23.2328   47.3174 N   0  0  0  0  0  0  0  0  0  0  0  0
   56.7788   22.5551   48.3265 N   0  0  0  0  0  0  0  0  0  0  0  0
   55.4604   22.2459   48.3490 C   0  0  0  0  0  0  0  0  0  0  0  0
   54.9939   21.6089   49.3317 O   0  0  0  0  0  0  0  0  0  0  0  0
   54.6342   22.6366   47.2839 C   0  0  0  0  0  0  0  0  0  0  0  0
   55.1950   23.3975   46.2284 C   0  0  0  0  0  0  0  0  0  0  0  0
   54.3505   23.8079   45.0357 C   0  0  0  0  0  0  0  0  0  0  0  0
   52.8446   23.7414   45.3036 C   0  0  0  0  0  0  0  0  0  0  0  0
   52.4806   22.4188   45.9656 C   0  0  0  0  0  0  0  0  0  0  0  0
   53.1523   22.3186   47.3354 C   0  0  0  0  0  0  0  0  0  0  0  0
 14 15  1  0
 15 13  1  0
 13 11  1  0
 11 12  2  0
 11  9  1  0
  9 10  2  0
  9  8  1  0
  8  1  1  0
  1  2  2  0
  2  3  1  0
  3  4  2  0
  4  5  1  0
  5 16  1  0
 16 17  1  0
 17 18  2  0
 18 19  1  0
 19 20  1  0
 20 21  2  0
 20 22  1  0
 22 23  2  0
 23 24  1  0
 24 25  1  0
 25 26  1  0
 26 27  1  0
  5  6  2  0
  6  7  1  0
  6  1  1  0
 23 17  1  0
 27 22  1  0
M  CHG 1   7  -1
M  CHG 1   8  -1
M  CHG 1  19  -1
M  END
> <UniqueID>
21

> <SMILES>
CCOC(=O)C(=O)[N-]c1cccc(Cc2n[n-]c(=O)c3c2CCCC3)c1[O-]

> <Energy>
48.745951565269976

> <Genealogy>
CCOC(=O)C(=O)[N-]c1cccc(Cc2n[n-]c(=O)c3c2CCCC3)c1[O-] (protonated)
CCOC(=O)C(=O)[N-]c1cccc(Cc2n[n-]c(=O)c3c2CCCC3)c1[O-] (3D coordinates assigned)
CCOC(=O)C(=O)[N-]c1cccc(Cc2n[n-]c(=O)c3c2CCCC3)c1[O-] (nonaromatic ring conformer: 48.745951565269976 kcal/mol)

> <smiles>
CCOC(=O)C(=O)Nc1cccc(Cc2n[nH]c(=O)c3c2CCCC3)c1O

> <score_type>
oracle

> <origin>
adg

> <m_score__min__energy>
-14.859999999999999

> <m_primary>
energy

> <minimizedAffinity>
-6.12741

> <minimizedRMSD>
2.37412

> <CNNscore>
0.2061125338

> <CNNaffinity>
5.5320034027

> <CNN_VS>
1.1402152777

> <CNNaffinity_variance>
0.0442026109

$$$$
27:0


 31 34  0  0  0  0  0  0  0  0999 V2000
   60.3685   30.1407   46.6212 C   0  0  0  0  0  0  0  0  0  0  0  0
   60.2492   29.1202   47.4868 C   0  0  0  0  0  0  0  0  0  0  0  0
   59.8517   27.8064   47.1892 C   0  0  0  0  0  0  0  0  0  0  0  0
   59.3142   27.2754   46.0734 C   0  0  0  0  0  0  0  0  0  0  0  0
   60.1179   27.0567   48.3206 C   0  0  0  0  0  0  0  0  0  0  0  0
   60.5927   27.9276   49.2783 C   0  0  0  0  0  0  0  0  0  0  0  0
   61.1058   27.4976   50.6203 C   0  0  0  0  0  0  0  0  0  0  0  0
   60.6428   29.1902   48.7880 N   0  0  0  0  0  0  0  0  0  0  0  0
   58.2449   26.2598   46.0358 C   0  0  0  0  0  0  0  0  0  0  0  0
   56.9005   26.6512   45.9536 C   0  0  0  0  0  0  0  0  0  0  0  0
   56.5547   27.9987   45.9550 O   0  0  0  0  0  0  0  0  0  0  0  0
   55.9234   25.7112   45.8808 N   0  0  0  0  0  0  0  0  0  0  0  0
   56.2221   24.3872   45.8695 C   0  0  0  0  0  0  0  0  0  0  0  0
   55.2988   23.5346   45.8058 O   0  0  0  0  0  0  0  0  0  0  0  0
   57.5168   23.9821   45.9193 N   0  0  0  0  0  0  0  0  0  0  0  0
   58.5316   24.8819   45.9914 C   0  0  0  0  0  0  0  0  0  0  0  0
   59.7233   24.4720   46.0114 O   0  0  0  0  0  0  0  0  0  0  0  0
   61.1638   30.3661   49.5025 C   0  0  0  0  0  0  0  0  0  0  0  0
   60.0643   31.2808   49.9849 C   0  0  0  0  0  0  0  0  0  0  0  0
   59.0850   30.9645   50.9101 C   0  0  0  0  0  0  0  0  0  0  0  0
   58.9708   29.6940   51.6883 C   0  0  0  0  0  0  0  0  0  0  0  0
   58.2169   31.9869   51.0208 N   0  0  0  0  0  0  0  0  0  0  0  0
   58.6115   32.9113   50.1935 O   0  0  0  0  0  0  0  0  0  0  0  0
   59.6956   32.5473   49.5455 C   0  0  0  0  0  0  0  0  0  0  0  0
   60.3565   33.4163   48.5129 C   0  0  0  0  0  0  0  0  0  0  0  0
   59.5145   33.6402   47.2810 C   0  0  0  0  0  0  0  0  0  0  0  0
   60.0149   34.3319   46.1604 C   0  0  0  0  0  0  0  0  0  0  0  0
   59.2296   34.4736   45.0108 C   0  0  0  0  0  0  0  0  0  0  0  0
   57.9553   33.9058   44.9580 C   0  0  0  0  0  0  0  0  0  0  0  0
   57.4640   33.1874   46.0496 C   0  0  0  0  0  0  0  0  0  0  0  0
   58.2435   33.0465   47.2027 C   0  0  0  0  0  0  0  0  0  0  0  0
  1  2  2  0
  2  3  1  0
  3  4  2  0
  4  9  1  0
  9 10  2  0
 10 11  1  0
 10 12  1  0
 12 13  1  0
 13 14  2  0
 13 15  1  0
 15 16  1  0
 16 17  2  0
  3  5  1  0
  5  6  2  0
  6  7  1  0
  6  8  1  0
  8 18  1  0
 18 19  1  0
 19 20  1  0
 20 21  1  0
 20 22  2  0
 22 23  1  0
 23 24  1  0
 24 25  1  0
 25 26  1  0
 26 27  2  0
 27 28  1  0
 28 29  2  0
 29 30  1  0
 30 31  2  0
  8  2  1  0
 24 19  2  0
 31 26  1  0
 16  9  1  0
M  CHG 1  11  -1
M  CHG 1  12  -1
M  CHG 1  15  -1
M  END
> <UniqueID>
28

> <SMILES>
C=c1c(=Cc2c([O-])[n-]c(=O)[n-]c2=O)cc(C)n1Cc1c(C)noc1Cc1ccccc1

> <Energy>
123.9380675088918

> <Genealogy>
C=c1c(=Cc2c([O-])[n-]c(=O)[n-]c2=O)cc(C)n1Cc1c(C)noc1Cc1ccccc1 (protonated)
C=c1c(=Cc2c([O-])[n-]c(=O)[n-]c2=O)cc(C)n1Cc1c(C)noc1Cc1ccccc1 (3D coordinates assigned)
C=c1c(=Cc2c([O-])[n-]c(=O)[n-]c2=O)cc(C)n1Cc1c(C)noc1Cc1ccccc1 (optimized conformer: 123.9380675088918 kcal/mol)

> <smiles>
C=c1c(=Cc2c(O)[nH]c(=O)[nH]c2=O)cc(C)n1Cc1c(C)noc1Cc1ccccc1

> <score_type>
oracle

> <origin>
adg

> <m_score__min__energy>
-17.210000000000001

> <m_primary>
energy

> <minimizedAffinity>
-7.73714

> <minimizedRMSD>
0.84205

> <CNNscore>
0.3154075444

> <CNNaffinity>
6.6593742371

> <CNN_VS>
2.1004168987

> <CNNaffinity_variance>
0.1481410265

$$$$
37:0


 26 28  0  0  0  0  0  0  0  0999 V2000
   59.7560   33.0133   46.7780 C   0  0  0  0  0  0  0  0  0  0  0  0
   59.2799   31.8378   46.3217 C   0  0  0  0  0  0  0  0  0  0  0  0
   58.2992   31.7562   45.3473 C   0  0  0  0  0  0  0  0  0  0  0  0
   58.0063   30.4193   45.1839 C   0  0  0  0  0  0  0  0  0  0  0  0
   56.9795   29.8846   44.2321 C   0  0  0  0  0  0  0  0  0  0  0  0
   58.7900   29.6644   45.9846 N   0  0  0  0  0  0  0  0  0  0  0  0
   59.5950   30.5148   46.6740 C   0  0  0  0  0  0  0  0  0  0  0  0
   60.6057   30.0988   47.4548 C   0  0  0  0  0  0  0  0  0  0  0  0
   59.5722   34.6600   49.3605 O   0  0  0  0  0  0  0  0  0  0  0  0
   60.7090   33.9557   48.9707 C   0  0  0  0  0  0  0  0  0  0  0  0
   61.8514   34.0033   49.7058 N   0  0  0  0  0  0  0  0  0  0  0  0
   62.8414   33.2923   49.1272 C   0  0  0  0  0  0  0  0  0  0  0  0
   64.3429   33.1671   49.7561 S   0  0  0  0  0  0  0  0  0  0  0  0
   62.3583   32.5870   47.6803 S   0  0  0  0  0  0  0  0  0  0  0  0
   60.7879   33.1782   47.8104 C   0  0  0  0  0  0  0  0  0  0  0  0
   59.5813   35.1641   50.1503 H   0  0  0  0  0  0  0  0  0  0  0  0
   58.7706   28.2278   46.0671 C   0  0  0  0  0  0  0  0  0  0  0  0
   59.9563   27.4962   45.9263 C   0  0  0  0  0  0  0  0  0  0  0  0
   59.9343   26.1044   46.0001 C   0  0  0  0  0  0  0  0  0  0  0  0
   58.7311   25.4242   46.2130 C   0  0  0  0  0  0  0  0  0  0  0  0
   58.7548   24.0355   46.2806 O   0  0  0  0  0  0  0  0  0  0  0  0
   57.5237   26.1454   46.3557 C   0  0  0  0  0  0  0  0  0  0  0  0
   57.5612   27.5507   46.2786 C   0  0  0  0  0  0  0  0  0  0  0  0
   56.2265   25.4567   46.5840 C   0  0  0  0  0  0  0  0  0  0  0  0
   56.1595   24.4691   47.3627 O   0  0  0  0  0  0  0  0  0  0  0  0
   55.0667   25.8830   45.9486 O   0  0  0  0  0  0  0  0  0  0  0  0
  9 10  1  0
 10 11  1  0
 11 12  1  0
 12 13  2  0
 12 14  1  0
 14 15  1  0
 15  1  1  0
  1  2  2  0
  2  3  1  0
  3  4  2  0
  4  5  1  0
  4  6  1  0
  6 17  1  0
 17 18  2  0
 18 19  1  0
 19 20  2  0
 20 21  1  0
 20 22  1  0
 22 24  1  0
 24 25  2  0
 24 26  1  0
 22 23  2  0
  6  7  1  0
  7  8  2  0
 15 10  2  0
  7  2  1  0
 23 17  1  0
  9 16  1  0
M  CHG 1  11  -1
M  CHG 1  21  -1
M  CHG 1  26  -1
M  END
> <UniqueID>
36

> <SMILES>
C=c1/c(=C\c2sc(=S)[n-]c2O)cc(C)n1-c1ccc([O-])c(C(=O)[O-])c1

> <Energy>
116.99901640100938

> <Genealogy>
C=c1c(=Cc2sc(=S)[n-]c2O)cc(C)n1-c1ccc([O-])c(C(=O)[O-])c1 (protonated)
C=c1/c(=C\c2sc(=S)[n-]c2O)cc(C)n1-c1ccc([O-])c(C(=O)[O-])c1 (cis-trans isomerization)
C=c1/c(=C\c2sc(=S)[n-]c2O)cc(C)n1-c1ccc([O-])c(C(=O)[O-])c1 (3D coordinates assigned)
C=c1/c(=C\c2sc(=S)[n-]c2O)cc(C)n1-c1ccc([O-])c(C(=O)[O-])c1 (optimized conformer: 116.99901640100938 kcal/mol)

> <smiles>
C=c1c(=Cc2sc(=S)[nH]c2O)cc(C)n1-c1ccc(O)c(C(=O)O)c1

> <score_type>
oracle

> <origin>
adg

> <m_score__min__energy>
-14.210000000000001

> <m_primary>
energy

> <minimizedAffinity>
-8.25767

> <minimizedRMSD>
0.50971

> <CNNscore>
0.5349729061

> <CNNaffinity>
7.0106964111

> <CNN_VS>
3.7505326271

> <CNNaffinity_variance>
0.3825586736

$$$$
44:0


 26 28  0  0  0  0  0  0  0  0999 V2000
   57.7893   30.5419   51.5422 C   0  0  0  0  0  0  0  0  0  0  0  0
   58.7587   30.5853   52.4825 C   0  0  0  0  0  0  0  0  0  0  0  0
   58.5180   30.0199   53.7586 C   0  0  0  0  0  0  0  0  0  0  0  0
   57.3871   29.5234   54.0267 O   0  0  0  0  0  0  0  0  0  0  0  0
   59.5437   30.0553   54.7299 C   0  0  0  0  0  0  0  0  0  0  0  0
   59.4447   29.5310   55.9709 C   0  0  0  0  0  0  0  0  0  0  0  0
   60.7060   30.6821   54.4177 N   0  0  0  0  0  0  0  0  0  0  0  0
   60.9333   31.2353   53.2045 C   0  0  0  0  0  0  0  0  0  0  0  0
   62.0430   31.7946   52.9891 O   0  0  0  0  0  0  0  0  0  0  0  0
   59.9767   31.1834   52.2268 N   0  0  0  0  0  0  0  0  0  0  0  0
   58.6483   28.3469   56.3552 C   0  0  0  0  0  0  0  0  0  0  0  0
   59.0533   27.0617   55.9575 C   0  0  0  0  0  0  0  0  0  0  0  0
   58.3310   25.9372   56.3646 C   0  0  0  0  0  0  0  0  0  0  0  0
   57.2115   26.0848   57.1880 C   0  0  0  0  0  0  0  0  0  0  0  0
   56.8169   27.3583   57.6134 C   0  0  0  0  0  0  0  0  0  0  0  0
   55.7103   27.4958   58.4420 O   0  0  0  0  0  0  0  0  0  0  0  0
   57.5376   28.4885   57.2052 C   0  0  0  0  0  0  0  0  0  0  0  0
   57.1434   29.7504   57.6421 O   0  0  0  0  0  0  0  0  0  0  0  0
   60.2797   31.7696   50.9451 C   0  0  0  0  0  0  0  0  0  0  0  0
   60.8958   30.9990   49.9471 C   0  0  0  0  0  0  0  0  0  0  0  0
   61.1920   31.5653   48.7040 C   0  0  0  0  0  0  0  0  0  0  0  0
   60.8700   32.9037   48.4492 C   0  0  0  0  0  0  0  0  0  0  0  0
   61.2743   33.6750   46.7505 Br  0  0  0  0  0  0  0  0  0  0  0  0
   60.2524   33.6744   49.4402 C   0  0  0  0  0  0  0  0  0  0  0  0
   59.9551   33.1107   50.6841 C   0  0  0  0  0  0  0  0  0  0  0  0
   59.3568   33.8663   51.6393 F   0  0  0  0  0  0  0  0  0  0  0  0
  1  2  2  0
  2  3  1  0
  3  4  2  0
  3  5  1  0
  5  6  2  0
  6 11  1  0
 11 12  2  0
 12 13  1  0
 13 14  2  0
 14 15  1  0
 15 16  1  0
 15 17  2  0
 17 18  1  0
  5  7  1  0
  7  8  1  0
  8  9  2  0
  8 10  1  0
 10 19  1  0
 19 20  2  0
 20 21  1  0
 21 22  2  0
 22 23  1  0
 22 24  1  0
 24 25  2  0
 25 26  1  0
 10  2  1  0
 25 19  1  0
 17 11  1  0
M  CHG 1   7  -1
M  CHG 1  16  -1
M  CHG 1  18  -1
M  END
> <UniqueID>
43

> <SMILES>
C=c1c(=O)/c(=C\c2cccc([O-])c2[O-])[n-]c(=O)n1-c1ccc(Br)cc1F

> <Energy>
67.51690383474157

> <Genealogy>
C=c1c(=O)c(=Cc2cccc([O-])c2[O-])[n-]c(=O)n1-c1ccc(Br)cc1F (protonated)
C=c1c(=O)/c(=C\c2cccc([O-])c2[O-])[n-]c(=O)n1-c1ccc(Br)cc1F (cis-trans isomerization)
C=c1c(=O)/c(=C\c2cccc([O-])c2[O-])[n-]c(=O)n1-c1ccc(Br)cc1F (3D coordinates assigned)
C=c1c(=O)/c(=C\c2cccc([O-])c2[O-])[n-]c(=O)n1-c1ccc(Br)cc1F (optimized conformer: 67.51690383474157 kcal/mol)

> <smiles>
C=c1c(=O)c(=Cc2cccc(O)c2O)[nH]c(=O)n1-c1ccc(Br)cc1F

> <score_type>
oracle

> <origin>
adg

> <m_score__min__energy>
-15.69

> <m_primary>
energy

> <minimizedAffinity>
-3.87038

> <minimizedRMSD>
8.05002

> <CNNscore>
0.4581300616

> <CNNaffinity>
6.0496840477

> <CNN_VS>
2.7715420723

> <CNNaffinity_variance>
0.8631904721

$$$$
49:0


 33 35  0  0  0  0  0  0  0  0999 V2000
   57.0289   30.0653   44.1500 C   0  0  0  0  0  0  0  0  0  0  0  0
   56.5056   29.8722   43.0219 O   0  0  0  0  0  0  0  0  0  0  0  0
   56.5655   26.0757   46.7077 N   0  0  0  0  0  0  0  0  0  0  0  0
   57.3378   26.9614   46.1478 C   0  0  0  0  0  0  0  0  0  0  0  0
   56.8251   27.9915   45.4211 N   0  0  0  0  0  0  0  0  0  0  0  0
   57.6304   28.9297   44.8608 C   0  0  0  0  0  0  0  0  0  0  0  0
   59.0169   28.8270   45.0029 C   0  0  0  0  0  0  0  0  0  0  0  0
   59.5309   27.7486   45.7246 C   0  0  0  0  0  0  0  0  0  0  0  0
   60.7746   27.6162   45.8653 O   0  0  0  0  0  0  0  0  0  0  0  0
   58.6855   26.8428   46.2801 N   0  0  0  0  0  0  0  0  0  0  0  0
   57.4045   22.6863   45.3828 C   0  0  0  0  0  0  0  0  0  0  0  0
   57.0400   21.8600   46.4513 C   0  0  0  0  0  0  0  0  0  0  0  0
   56.4937   22.4169   47.6109 C   0  0  0  0  0  0  0  0  0  0  0  0
   56.3056   23.7995   47.7030 C   0  0  0  0  0  0  0  0  0  0  0  0
   56.6583   24.6403   46.6279 C   0  0  0  0  0  0  0  0  0  0  0  0
   57.2270   24.0717   45.4791 C   0  0  0  0  0  0  0  0  0  0  0  0
   56.5254   21.8351   43.0453 C   0  0  0  0  0  0  0  0  0  0  0  0
   58.1258   21.9762   43.9021 S   0  0  0  0  0  0  0  0  0  0  0  0
   56.9860   31.3770   44.7264 N   0  0  0  0  0  0  0  0  0  0  0  0
   57.9111   32.4636   44.4033 C   0  0  0  0  0  0  0  0  0  0  0  0
   58.6372   32.9266   45.6384 C   0  0  0  0  0  0  0  0  0  0  0  0
   59.3829   34.1144   45.6278 C   0  0  0  0  0  0  0  0  0  0  0  0
   60.1131   34.5015   46.7531 C   0  0  0  0  0  0  0  0  0  0  0  0
   60.1075   33.7094   47.9166 C   0  0  0  0  0  0  0  0  0  0  0  0
   59.3332   32.5353   47.9328 C   0  0  0  0  0  0  0  0  0  0  0  0
   59.3037   31.7455   49.0370 F   0  0  0  0  0  0  0  0  0  0  0  0
   58.6077   32.1477   46.8039 C   0  0  0  0  0  0  0  0  0  0  0  0
   60.8853   34.0623   49.0751 N   0  0  0  0  0  0  0  0  0  0  0  0
   60.4669   34.6387   49.7549 H   0  0  0  0  0  0  0  0  0  0  0  0
   62.5163   33.5332   49.3465 S   0  0  0  0  0  0  0  0  0  0  0  0
   62.5089   31.7905   49.7139 C   0  0  0  0  0  0  0  0  0  0  0  0
   63.3433   33.7646   48.1129 O   0  0  0  0  0  0  0  0  0  0  0  0
   63.1048   34.2817   50.5084 O   0  0  0  0  0  0  0  0  0  0  0  0
 17 18  1  0
 18 11  1  0
 11 12  2  0
 12 13  1  0
 13 14  2  0
 14 15  1  0
 15  3  1  0
  3  4  2  0
  4  5  1  0
  5  6  1  0
  6  1  1  0
  1  2  2  0
  1 19  1  0
 19 20  1  0
 20 21  1  0
 21 22  2  0
 22 23  1  0
 23 24  2  0
 24 28  1  0
 28 30  1  0
 30 31  1  0
 30 32  2  0
 30 33  2  0
 24 25  1  0
 25 26  1  0
 25 27  2  0
  6  7  2  0
  7  8  1  0
  8  9  2  0
  8 10  1  0
 15 16  2  0
 16 11  1  0
 10  4  1  0
 27 21  1  0
 28 29  1  0
M  CHG 1   5  -1
M  CHG 1  10  -1
M  CHG 1  19  -1
M  END
> <UniqueID>
48

> <SMILES>
CSc1cccc(N=c2[n-]c(C(=O)[N-]Cc3ccc(NS(C)(=O)=O)c(F)c3)cc(=O)[n-]2)c1

> <Energy>
51.90415710004046

> <Genealogy>
CSc1cccc(N=c2[n-]c(C(=O)[N-]Cc3ccc(NS(C)(=O)=O)c(F)c3)cc(=O)[n-]2)c1 (protonated)
CSc1cccc(N=c2[n-]c(C(=O)[N-]Cc3ccc(NS(C)(=O)=O)c(F)c3)cc(=O)[n-]2)c1 (3D coordinates assigned)
CSc1cccc(N=c2[n-]c(C(=O)[N-]Cc3ccc(NS(C)(=O)=O)c(F)c3)cc(=O)[n-]2)c1 (optimized conformer: 51.90415710004046 kcal/mol)

> <smiles>
CSc1cccc(N=c2[nH]c(C(=O)NCc3ccc(NS(C)(=O)=O)c(F)c3)cc(=O)[nH]2)c1

> <score_type>
oracle

> <origin>
adg

> <m_score__min__energy>
-14.039999999999999

> <m_primary>
energy

> <minimizedAffinity>
-7.89191

> <minimizedRMSD>
1.47760

> <CNNscore>
0.2696928382

> <CNNaffinity>
6.9208407402

> <CNN_VS>
1.8665012121

> <CNNaffinity_variance>
0.0242241994

$$$$
68:0


 26 28  0  0  0  0  0  0  0  0999 V2000
   56.9075   30.1604   43.6125 C   0  0  0  0  0  0  0  0  0  0  0  0
   57.6776   31.0403   44.5593 C   0  0  0  0  0  0  0  0  0  0  0  0
   57.9064   32.3808   44.2101 C   0  0  0  0  0  0  0  0  0  0  0  0
   58.5809   33.2365   45.0808 C   0  0  0  0  0  0  0  0  0  0  0  0
   59.0508   32.7688   46.3175 C   0  0  0  0  0  0  0  0  0  0  0  0
   58.8300   31.4273   46.6680 C   0  0  0  0  0  0  0  0  0  0  0  0
   58.1802   30.5532   45.7878 C   0  0  0  0  0  0  0  0  0  0  0  0
   59.7416   33.6905   47.2507 C   0  0  0  0  0  0  0  0  0  0  0  0
   59.2244   34.8099   47.5141 O   0  0  0  0  0  0  0  0  0  0  0  0
   60.9802   33.3210   47.8795 N   0  0  0  0  0  0  0  0  0  0  0  0
   61.2523   33.7520   49.2512 C   0  0  0  0  0  0  0  0  0  0  0  0
   62.2493   32.7880   49.9034 C   0  0  0  0  0  0  0  0  0  0  0  0
   63.4027   32.6320   49.0961 O   0  0  0  0  0  0  0  0  0  0  0  0
   63.0511   32.0199   47.8688 C   0  0  0  0  0  0  0  0  0  0  0  0
   62.1282   32.9301   47.0547 C   0  0  0  0  0  0  0  0  0  0  0  0
   57.9914   29.1908   46.1931 N   0  0  0  0  0  0  0  0  0  0  0  0
   58.7848   28.0825   45.7507 C   0  0  0  0  0  0  0  0  0  0  0  0
   59.9459   27.9419   46.2151 O   0  0  0  0  0  0  0  0  0  0  0  0
   58.2981   27.1240   44.6980 C   0  0  0  0  0  0  0  0  0  0  0  0
   57.8560   25.8408   45.3273 C   0  0  0  0  0  0  0  0  0  0  0  0
   58.5759   24.7048   45.3175 N   0  0  0  0  0  0  0  0  0  0  0  0
   57.7776   23.8275   45.9629 C   0  0  0  0  0  0  0  0  0  0  0  0
   58.1101   22.6307   46.1629 O   0  0  0  0  0  0  0  0  0  0  0  0
   56.5947   24.3317   46.3762 N   0  0  0  0  0  0  0  0  0  0  0  0
   56.6603   25.6074   45.9625 C   0  0  0  0  0  0  0  0  0  0  0  0
   55.6460   26.5351   46.1532 O   0  0  0  0  0  0  0  0  0  0  0  0
  1  2  1  0
  2  3  2  0
  3  4  1  0
  4  5  2  0
  5  8  1  0
  8  9  2  0
  8 10  1  0
 10 11  1  0
 11 12  1  0
 12 13  1  0
 13 14  1  0
 14 15  1  0
  5  6  1  0
  6  7  2  0
  7 16  1  0
 16 17  1  0
 17 18  2  0
 17 19  1  0
 19 20  1  0
 20 21  1  0
 21 22  1  0
 22 23  2  0
 22 24  1  0
 24 25  1  0
 25 26  1  0
  7  2  1  0
 25 20  2  0
 15 10  1  0
M  CHG 1  16  -1
M  CHG 1  21  -1
M  CHG 1  24  -1
M  CHG 1  26  -1
M  END
> <UniqueID>
65

> <SMILES>
Cc1ccc(C(=O)N2CCOCC2)cc1[N-]C(=O)Cc1[n-]c(=O)[n-]c1[O-]

> <Energy>
82.66678657258353

> <Genealogy>
Cc1ccc(C(=O)N2CCOCC2)cc1[N-]C(=O)Cc1[n-]c(=O)[n-]c1[O-] (protonated)
Cc1ccc(C(=O)N2CCOCC2)cc1[N-]C(=O)Cc1[n-]c(=O)[n-]c1[O-] (3D coordinates assigned)
Cc1ccc(C(=O)N2CCOCC2)cc1[N-]C(=O)Cc1[n-]c(=O)[n-]c1[O-] (nonaromatic ring conformer: 82.66678657258353 kcal/mol)

> <smiles>
Cc1ccc(C(=O)N2CCOCC2)cc1NC(=O)Cc1[nH]c(=O)[nH]c1O

> <score_type>
oracle

> <origin>
adg

> <m_score__min__energy>
-17.27

> <m_primary>
energy

> <minimizedAffinity>
-8.02322

> <minimizedRMSD>
1.07210

> <CNNscore>
0.4519477785

> <CNNaffinity>
6.3197879791

> <CNN_VS>
2.8562140465

> <CNNaffinity_variance>
0.1194710433

$$$$
80:0


 22 24  0  0  0  0  0  0  0  0999 V2000
   56.8581   30.7454   55.6309 C   0  0  0  0  0  0  0  0  0  0  0  0
   55.6465   30.1582   56.6413 S   0  0  0  0  0  0  0  0  0  0  0  0
   54.7331   29.5622   55.3700 C   0  0  0  0  0  0  0  0  0  0  0  0
   53.5922   28.9584   55.5289 N   0  0  0  0  0  0  0  0  0  0  0  0
   55.3201   29.7957   54.1776 N   0  0  0  0  0  0  0  0  0  0  0  0
   56.5061   30.4551   54.3073 C   0  0  0  0  0  0  0  0  0  0  0  0
   57.3269   30.8070   53.1181 C   0  0  0  0  0  0  0  0  0  0  0  0
   57.7008   32.1473   52.9010 C   0  0  0  0  0  0  0  0  0  0  0  0
   58.4736   32.4987   51.7901 C   0  0  0  0  0  0  0  0  0  0  0  0
   58.8856   31.5207   50.8844 C   0  0  0  0  0  0  0  0  0  0  0  0
   58.5279   30.1872   51.0896 C   0  0  0  0  0  0  0  0  0  0  0  0
   57.7551   29.8277   52.1986 C   0  0  0  0  0  0  0  0  0  0  0  0
   52.2727   29.4589   55.2464 C   0  0  0  0  0  0  0  0  0  0  0  0
   51.2906   28.7101   55.5000 O   0  0  0  0  0  0  0  0  0  0  0  0
   52.0337   30.8355   54.6681 C   0  0  0  0  0  0  0  0  0  0  0  0
   51.9380   30.8190   53.1698 C   0  0  0  0  0  0  0  0  0  0  0  0
   52.4888   29.5752   52.1753 S   0  0  0  0  0  0  0  0  0  0  0  0
   51.9212   30.3275   50.7835 C   0  0  0  0  0  0  0  0  0  0  0  0
   52.0440   29.8574   49.6229 O   0  0  0  0  0  0  0  0  0  0  0  0
   51.3076   31.5031   51.0391 N   0  0  0  0  0  0  0  0  0  0  0  0
   51.3115   31.7723   52.3712 C   0  0  0  0  0  0  0  0  0  0  0  0
   50.7222   32.9215   52.8844 O   0  0  0  0  0  0  0  0  0  0  0  0
  1  2  1  0
  2  3  1  0
  3  4  2  0
  4 13  1  0
 13 14  2  0
 13 15  1  0
 15 16  1  0
 16 17  1  0
 17 18  1  0
 18 19  2  0
 18 20  1  0
 20 21  1  0
 21 22  1  0
  3  5  1  0
  5  6  1  0
  6  7  1  0
  7  8  2  0
  8  9  1  0
  9 10  2  0
 10 11  1  0
 11 12  2  0
  6  1  2  0
 12  7  1  0
 21 16  2  0
M  CHG 1   5  -1
M  CHG 1  20  -1
M  CHG 1  22  -1
M  END
> <UniqueID>
74

> <SMILES>
O=C(Cc1sc(=O)[n-]c1[O-])/N=c1\[n-]c(-c2ccccc2)cs1

> <Energy>
98.68510084448707

> <Genealogy>
O=C(Cc1sc(=O)[n-]c1[O-])N=c1[n-]c(-c2ccccc2)cs1 (protonated)
O=C(Cc1sc(=O)[n-]c1[O-])/N=c1\[n-]c(-c2ccccc2)cs1 (cis-trans isomerization)
O=C(Cc1sc(=O)[n-]c1[O-])/N=c1\[n-]c(-c2ccccc2)cs1 (3D coordinates assigned)
O=C(Cc1sc(=O)[n-]c1[O-])/N=c1\[n-]c(-c2ccccc2)cs1 (optimized conformer: 98.68510084448707 kcal/mol)

> <smiles>
O=C(Cc1sc(=O)[nH]c1O)N=c1[nH]c(-c2ccccc2)cs1

> <score_type>
oracle

> <origin>
adg

> <m_score__min__energy>
-15.699999999999999

> <m_primary>
energy

> <minimizedAffinity>
-4.58564

> <minimizedRMSD>
2.62163

> <CNNscore>
0.1537967026

> <CNNaffinity>
4.5938220024

> <CNN_VS>
0.7065146565

> <CNNaffinity_variance>
0.0535968654

$$$$
81:0


 29 31  0  0  0  0  0  0  0  0999 V2000
   61.1587   30.4367   47.0744 C   0  0  0  0  0  0  0  0  0  0  0  0
   59.9969   30.8884   46.5735 C   0  0  0  0  0  0  0  0  0  0  0  0
   59.1868   30.2434   45.6217 C   0  0  0  0  0  0  0  0  0  0  0  0
   59.2427   28.9976   45.1082 C   0  0  0  0  0  0  0  0  0  0  0  0
   58.1940   31.1427   45.2817 C   0  0  0  0  0  0  0  0  0  0  0  0
   58.3869   32.2645   46.0569 C   0  0  0  0  0  0  0  0  0  0  0  0
   57.4742   33.4548   46.0573 C   0  0  0  0  0  0  0  0  0  0  0  0
   59.4760   32.1176   46.8489 N   0  0  0  0  0  0  0  0  0  0  0  0
   58.6453   27.7887   45.7113 C   0  0  0  0  0  0  0  0  0  0  0  0
   57.2583   27.5925   45.6707 C   0  0  0  0  0  0  0  0  0  0  0  0
   56.4345   28.5072   45.0195 O   0  0  0  0  0  0  0  0  0  0  0  0
   56.7120   26.4970   46.2637 N   0  0  0  0  0  0  0  0  0  0  0  0
   57.4876   25.5908   46.9122 C   0  0  0  0  0  0  0  0  0  0  0  0
   56.9594   24.5826   47.4484 O   0  0  0  0  0  0  0  0  0  0  0  0
   58.8296   25.7738   46.9886 N   0  0  0  0  0  0  0  0  0  0  0  0
   59.4249   26.8513   46.4143 C   0  0  0  0  0  0  0  0  0  0  0  0
   60.6713   27.0014   46.5237 O   0  0  0  0  0  0  0  0  0  0  0  0
   56.8062   29.2634   44.6095 H   0  0  0  0  0  0  0  0  0  0  0  0
   59.9277   33.0950   47.8538 C   0  0  0  0  0  0  0  0  0  0  0  0
   59.9307   32.4744   49.2270 C   0  0  0  0  0  0  0  0  0  0  0  0
   61.1225   32.3837   49.9640 C   0  0  0  0  0  0  0  0  0  0  0  0
   61.1194   31.8238   51.2409 C   0  0  0  0  0  0  0  0  0  0  0  0
   59.9306   31.3487   51.7995 C   0  0  0  0  0  0  0  0  0  0  0  0
   58.7245   31.4263   51.0782 C   0  0  0  0  0  0  0  0  0  0  0  0
   58.7380   31.9885   49.7892 C   0  0  0  0  0  0  0  0  0  0  0  0
   57.4612   30.9282   51.6711 C   0  0  0  0  0  0  0  0  0  0  0  0
   56.4576   31.8397   52.1122 N   0  0  0  0  0  0  0  0  0  0  0  0
   57.2625   29.6884   51.7946 O   0  0  0  0  0  0  0  0  0  0  0  0
   56.5996   32.8097   52.0218 H   0  0  0  0  0  0  0  0  0  0  0  0
  1  2  2  0
  2  3  1  0
  3  4  2  0
  4  9  1  0
  9 10  2  0
 10 11  1  0
 10 12  1  0
 12 13  1  0
 13 14  2  0
 13 15  1  0
 15 16  1  0
 16 17  2  0
  3  5  1  0
  5  6  2  0
  6  7  1  0
  6  8  1  0
  8 19  1  0
 19 20  1  0
 20 21  2  0
 21 22  1  0
 22 23  2  0
 23 24  1  0
 24 26  1  0
 26 27  1  0
 26 28  2  0
 24 25  2  0
  8  2  1  0
 25 20  1  0
 16  9  1  0
 11 18  1  0
 27 29  1  0
M  CHG 1  12  -1
M  CHG 1  15  -1
M  CHG 1  27  -1
M  END
> <UniqueID>
75

> <SMILES>
C=c1c(=Cc2c(O)[n-]c(=O)[n-]c2=O)cc(C)n1Cc1cccc(C([NH-])=O)c1

> <Energy>
86.45177897443368

> <Genealogy>
C=c1c(=Cc2c(O)[n-]c(=O)[n-]c2=O)cc(C)n1Cc1cccc(C([NH-])=O)c1 (protonated)
C=c1c(=Cc2c(O)[n-]c(=O)[n-]c2=O)cc(C)n1Cc1cccc(C([NH-])=O)c1 (3D coordinates assigned)
C=c1c(=Cc2c(O)[n-]c(=O)[n-]c2=O)cc(C)n1Cc1cccc(C([NH-])=O)c1 (optimized conformer: 86.45177897443368 kcal/mol)

> <smiles>
C=c1c(=Cc2c(O)[nH]c(=O)[nH]c2=O)cc(C)n1Cc1cccc(C(N)=O)c1

> <score_type>
oracle

> <origin>
adg

> <m_score__min__energy>
-14.27

> <m_primary>
energy

> <minimizedAffinity>
-8.03296

> <minimizedRMSD>
1.04023

> <CNNscore>
0.7815901041

> <CNNaffinity>
7.1947903633

> <CNN_VS>
5.6233768463

> <CNNaffinity_variance>
0.3696454465

$$$$
83:0


 32 36  0  0  0  0  0  0  0  0999 V2000
   59.3931   29.6347   47.0459 S   0  0  0  0  0  0  0  0  0  0  0  0
   60.8889   29.4933   47.0866 O   0  0  0  0  0  0  0  0  0  0  0  0
   58.9090   29.9129   48.4390 O   0  0  0  0  0  0  0  0  0  0  0  0
   58.9786   30.9569   45.9923 N   0  0  0  0  0  0  0  0  0  0  0  0
   58.1517   30.8138   44.9287 C   0  0  0  0  0  0  0  0  0  0  0  0
   57.8001   32.0439   44.4033 C   0  0  0  0  0  0  0  0  0  0  0  0
   58.4368   32.9688   45.1964 C   0  0  0  0  0  0  0  0  0  0  0  0
   58.3762   34.3586   45.1424 C   0  0  0  0  0  0  0  0  0  0  0  0
   59.0951   35.0847   46.1006 C   0  0  0  0  0  0  0  0  0  0  0  0
   59.8640   34.4150   47.0710 C   0  0  0  0  0  0  0  0  0  0  0  0
   59.9198   33.0052   47.1091 C   0  0  0  0  0  0  0  0  0  0  0  0
   59.1623   32.2925   46.1525 C   0  0  0  0  0  0  0  0  0  0  0  0
   60.8348   32.3735   48.0120 N   0  0  0  0  0  0  0  0  0  0  0  0
   60.5058   32.2961   49.4392 C   0  0  0  0  0  0  0  0  0  0  0  0
   61.5366   33.0947   50.2448 C   0  0  0  0  0  0  0  0  0  0  0  0
   62.9358   32.6958   49.9700 N   0  0  0  0  0  0  0  0  0  0  0  0
   63.1201   31.8403   48.7826 C   0  0  0  0  0  0  0  0  0  0  0  0
   62.2445   32.2937   47.6082 C   0  0  0  0  0  0  0  0  0  0  0  0
   63.2851   32.1880   50.7828 H   0  0  0  0  0  0  0  0  0  0  0  0
   57.6162   25.7036   45.5131 C   0  0  0  0  0  0  0  0  0  0  0  0
   58.0473   26.6899   44.6091 C   0  0  0  0  0  0  0  0  0  0  0  0
   58.6038   27.8851   45.0719 C   0  0  0  0  0  0  0  0  0  0  0  0
   58.7215   28.1225   46.4466 C   0  0  0  0  0  0  0  0  0  0  0  0
   58.2994   27.1441   47.3541 C   0  0  0  0  0  0  0  0  0  0  0  0
   57.7440   25.9470   46.8934 C   0  0  0  0  0  0  0  0  0  0  0  0
   57.0905   21.4982   43.4481 O   0  0  0  0  0  0  0  0  0  0  0  0
   56.8059   22.5538   44.0685 C   0  0  0  0  0  0  0  0  0  0  0  0
   55.5622   22.8205   44.5183 N   0  0  0  0  0  0  0  0  0  0  0  0
   55.7096   24.0193   45.1063 C   0  0  0  0  0  0  0  0  0  0  0  0
   54.6741   24.6787   45.7554 O   0  0  0  0  0  0  0  0  0  0  0  0
   57.0174   24.4503   44.9976 C   0  0  0  0  0  0  0  0  0  0  0  0
   57.7213   23.5083   44.3396 N   0  0  0  0  0  0  0  0  0  0  0  0
 26 27  2  0
 27 28  1  0
 28 29  1  0
 29 30  1  0
 29 31  2  0
 31 20  1  0
 20 21  2  0
 21 22  1  0
 22 23  2  0
 23  1  1  0
  1  2  2  0
  1  3  2  0
  1  4  1  0
  4  5  1  0
  5  6  2  0
  6  7  1  0
  7  8  2  0
  8  9  1  0
  9 10  2  0
 10 11  1  0
 11 13  1  0
 13 14  1  0
 14 15  1  0
 15 16  1  0
 16 17  1  0
 17 18  1  0
 11 12  2  0
 23 24  1  0
 24 25  2  0
 31 32  1  0
 32 27  1  0
 25 20  1  0
 12  4  1  0
 12  7  1  0
 18 13  1  0
 16 19  1  0
M  CHG 1  28  -1
M  CHG 1  30  -1
M  CHG 1  32  -1
M  END
> <UniqueID>
77

> <SMILES>
O=c1[n-]c([O-])c(-c2ccc(S(=O)(=O)n3ccc4cccc(N5CCNCC5)c43)cc2)[n-]1

> <Energy>
135.74999990170926

> <Genealogy>
O=c1[n-]c([O-])c(-c2ccc(S(=O)(=O)n3ccc4cccc(N5CCNCC5)c43)cc2)[n-]1 (protonated)
O=c1[n-]c([O-])c(-c2ccc(S(=O)(=O)n3ccc4cccc(N5CCNCC5)c43)cc2)[n-]1 (3D coordinates assigned)
O=c1[n-]c([O-])c(-c2ccc(S(=O)(=O)n3ccc4cccc(N5CCNCC5)c43)cc2)[n-]1 (nonaromatic ring conformer: 135.74999990170926 kcal/mol)

> <smiles>
O=c1[nH]c(O)c(-c2ccc(S(=O)(=O)n3ccc4cccc(N5CCNCC5)c43)cc2)[nH]1

> <score_type>
oracle

> <origin>
adg

> <m_score__min__energy>
-15.25

> <m_primary>
energy

> <minimizedAffinity>
-9.68605

> <minimizedRMSD>
1.08318

> <CNNscore>
0.3191685081

> <CNNaffinity>
6.5877089500

> <CNN_VS>
2.1025891304

> <CNNaffinity_variance>
0.0711480603

$$$$
7:0


 28 30  0  0  0  0  0  0  0  0999 V2000
   58.4001   29.4854   45.7506 C   0  0  0  0  0  0  0  0  0  0  0  0
   57.1500   29.7980   45.1893 C   0  0  0  0  0  0  0  0  0  0  0  0
   56.2510   28.7944   44.8368 O   0  0  0  0  0  0  0  0  0  0  0  0
   56.8108   31.0912   44.9724 N   0  0  0  0  0  0  0  0  0  0  0  0
   57.6521   32.1118   45.2684 C   0  0  0  0  0  0  0  0  0  0  0  0
   57.2711   33.2936   45.0559 O   0  0  0  0  0  0  0  0  0  0  0  0
   58.8932   31.8544   45.7917 N   0  0  0  0  0  0  0  0  0  0  0  0
   59.2674   30.5599   46.0537 C   0  0  0  0  0  0  0  0  0  0  0  0
   60.3881   30.3251   46.5874 O   0  0  0  0  0  0  0  0  0  0  0  0
   56.4722   27.8954   44.9810 H   0  0  0  0  0  0  0  0  0  0  0  0
   59.9743   27.6959   45.7916 O   0  0  0  0  0  0  0  0  0  0  0  0
   58.7916   28.0746   46.0135 C   0  0  0  0  0  0  0  0  0  0  0  0
   57.8426   27.1576   46.5779 N   0  0  0  0  0  0  0  0  0  0  0  0
   57.6086   25.8026   46.1634 C   0  0  0  0  0  0  0  0  0  0  0  0
   58.6688   24.9132   45.9018 C   0  0  0  0  0  0  0  0  0  0  0  0
   58.4024   23.6077   45.4766 C   0  0  0  0  0  0  0  0  0  0  0  0
   57.0839   23.1856   45.2941 C   0  0  0  0  0  0  0  0  0  0  0  0
   56.0279   24.0688   45.5267 C   0  0  0  0  0  0  0  0  0  0  0  0
   56.2873   25.3762   45.9539 C   0  0  0  0  0  0  0  0  0  0  0  0
   55.2274   26.2491   46.1746 O   0  0  0  0  0  0  0  0  0  0  0  0
   59.7964   32.9730   46.1311 C   0  0  0  0  0  0  0  0  0  0  0  0
   59.7158   33.2877   47.6266 C   0  0  0  0  0  0  0  0  0  0  0  0
   61.0924   33.3769   48.2267 C   0  0  0  0  0  0  0  0  0  0  0  0
   62.2269   33.1287   47.4359 C   0  0  0  0  0  0  0  0  0  0  0  0
   63.5051   33.1790   48.0024 C   0  0  0  0  0  0  0  0  0  0  0  0
   63.6570   33.4686   49.3613 C   0  0  0  0  0  0  0  0  0  0  0  0
   62.5321   33.7033   50.1572 C   0  0  0  0  0  0  0  0  0  0  0  0
   61.2536   33.6526   49.5947 C   0  0  0  0  0  0  0  0  0  0  0  0
 11 12  2  0
 12 13  1  0
 13 14  1  0
 14 15  2  0
 15 16  1  0
 16 17  2  0
 17 18  1  0
 18 19  2  0
 19 20  1  0
 12  1  1  0
  1  2  2  0
  2  3  1  0
  2  4  1  0
  4  5  1  0
  5  6  2  0
  5  7  1  0
  7 21  1  0
 21 22  1  0
 22 23  1  0
 23 24  2  0
 24 25  1  0
 25 26  2  0
 26 27  1  0
 27 28  2  0
  7  8  1  0
  8  9  2  0
 19 14  1  0
  8  1  1  0
 28 23  1  0
  3 10  1  0
M  CHG 1   4  -1
M  CHG 1  13  -1
M  CHG 1  20  -1
M  END
> <UniqueID>
8

> <SMILES>
O=C([N-]c1ccccc1[O-])c1c(O)[n-]c(=O)n(CCc2ccccc2)c1=O

> <Energy>
53.396729615083515

> <Genealogy>
O=C([N-]c1ccccc1[O-])c1c(O)[n-]c(=O)n(CCc2ccccc2)c1=O (protonated)
O=C([N-]c1ccccc1[O-])c1c(O)[n-]c(=O)n(CCc2ccccc2)c1=O (3D coordinates assigned)
O=C([N-]c1ccccc1[O-])c1c(O)[n-]c(=O)n(CCc2ccccc2)c1=O (optimized conformer: 53.396729615083515 kcal/mol)

> <smiles>
O=C(Nc1ccccc1O)c1c(O)[nH]c(=O)n(CCc2ccccc2)c1=O

> <score_type>
oracle

> <origin>
adg

> <m_score__min__energy>
-15.68

> <m_primary>
energy

> <minimizedAffinity>
-8.69005

> <minimizedRMSD>
0.93314

> <CNNscore>
0.8378311992

> <CNNaffinity>
6.7402749062

> <CNN_VS>
5.6472125053

> <CNNaffinity_variance>
0.2861603200

$$$$
24:0


 29 31  0  0  0  0  0  0  0  0999 V2000
   60.2056   32.1512   48.4289 C   0  0  0  0  0  0  0  0  0  0  0  0
   59.8143   33.0500   47.4282 C   0  0  0  0  0  0  0  0  0  0  0  0
   58.9958   32.6219   46.3786 C   0  0  0  0  0  0  0  0  0  0  0  0
   58.5729   31.2881   46.3082 C   0  0  0  0  0  0  0  0  0  0  0  0
   58.9427   30.3944   47.3290 C   0  0  0  0  0  0  0  0  0  0  0  0
   59.7582   30.8237   48.3803 C   0  0  0  0  0  0  0  0  0  0  0  0
   61.2246   32.7063   49.7529 S   0  0  0  0  0  0  0  0  0  0  0  0
   61.1071   34.1997   49.8805 O   0  0  0  0  0  0  0  0  0  0  0  0
   62.6467   32.3184   49.4588 O   0  0  0  0  0  0  0  0  0  0  0  0
   58.5748   32.6398   52.1756 C   0  0  0  0  0  0  0  0  0  0  0  0
   57.3306   32.2326   52.5535 N   0  0  0  0  0  0  0  0  0  0  0  0
   56.9204   30.9480   52.4146 C   0  0  0  0  0  0  0  0  0  0  0  0
   57.7925   30.0108   51.8712 C   0  0  0  0  0  0  0  0  0  0  0  0
   59.0355   30.4025   51.4900 N   0  0  0  0  0  0  0  0  0  0  0  0
   59.4672   31.6853   51.6200 C   0  0  0  0  0  0  0  0  0  0  0  0
   60.6812   31.9543   51.2220 N   0  0  0  0  0  0  0  0  0  0  0  0
   59.2058   34.5581   53.6151 C   0  0  0  0  0  0  0  0  0  0  0  0
   58.9367   33.9788   52.3444 O   0  0  0  0  0  0  0  0  0  0  0  0
   57.7220   30.8873   45.2238 N   0  0  0  0  0  0  0  0  0  0  0  0
   57.6935   29.5942   44.6034 C   0  0  0  0  0  0  0  0  0  0  0  0
   57.1223   29.4764   43.4869 O   0  0  0  0  0  0  0  0  0  0  0  0
   58.3734   28.4202   45.2045 C   0  0  0  0  0  0  0  0  0  0  0  0
   59.7787   28.3590   45.2255 C   0  0  0  0  0  0  0  0  0  0  0  0
   60.4305   27.2564   45.7812 C   0  0  0  0  0  0  0  0  0  0  0  0
   59.6913   26.1998   46.3136 C   0  0  0  0  0  0  0  0  0  0  0  0
   58.2948   26.2409   46.2939 C   0  0  0  0  0  0  0  0  0  0  0  0
   57.3056   24.7804   47.0365 Br  0  0  0  0  0  0  0  0  0  0  0  0
   57.6307   27.3467   45.7409 C   0  0  0  0  0  0  0  0  0  0  0  0
   56.2403   27.3801   45.7401 O   0  0  0  0  0  0  0  0  0  0  0  0
 17 18  1  0
 18 10  1  0
 10 11  2  0
 11 12  1  0
 12 13  2  0
 13 14  1  0
 14 15  1  0
 15 16  2  0
 16  7  1  0
  7  8  2  0
  7  9  2  0
  7  1  1  0
  1  2  2  0
  2  3  1  0
  3  4  2  0
  4 19  1  0
 19 20  1  0
 20 21  2  0
 20 22  1  0
 22 23  2  0
 23 24  1  0
 24 25  2  0
 25 26  1  0
 26 27  1  0
 26 28  2  0
 28 29  1  0
  4  5  1  0
  5  6  2  0
 15 10  1  0
  6  1  1  0
 28 22  1  0
M  CHG 1  14  -1
M  CHG 1  19  -1
M  CHG 1  29  -1
M  END
> <UniqueID>
24

> <SMILES>
COc1ncc[n-]c1=NS(=O)(=O)c1ccc([N-]C(=O)c2cccc(Br)c2[O-])cc1

> <Energy>
62.224881383315164

> <Genealogy>
COc1ncc[n-]c1=NS(=O)(=O)c1ccc([N-]C(=O)c2cccc(Br)c2[O-])cc1 (protonated)
COc1ncc[n-]c1=NS(=O)(=O)c1ccc([N-]C(=O)c2cccc(Br)c2[O-])cc1 (3D coordinates assigned)
COc1ncc[n-]c1=NS(=O)(=O)c1ccc([N-]C(=O)c2cccc(Br)c2[O-])cc1 (optimized conformer: 62.224881383315164 kcal/mol)

> <smiles>
COc1ncc[nH]c1=NS(=O)(=O)c1ccc(NC(=O)c2cccc(Br)c2O)cc1

> <score_type>
oracle

> <origin>
adg

> <m_score__min__energy>
-15

> <m_primary>
energy

> <minimizedAffinity>
-6.82116

> <minimizedRMSD>
1.14555

> <CNNscore>
0.3776472211

> <CNNaffinity>
6.6613097191

> <CNN_VS>
2.5156250000

> <CNNaffinity_variance>
0.0802373439

$$$$
47:0


 32 35  0  0  0  0  0  0  0  0999 V2000
   58.4699   26.0540   47.6411 C   0  0  0  0  0  0  0  0  0  0  0  0
   59.1011   27.1490   47.1718 C   0  0  0  0  0  0  0  0  0  0  0  0
   59.6936   27.1827   45.9233 C   0  0  0  0  0  0  0  0  0  0  0  0
   60.2171   28.4480   45.7545 C   0  0  0  0  0  0  0  0  0  0  0  0
   60.9342   28.9155   44.5219 C   0  0  0  0  0  0  0  0  0  0  0  0
   59.9695   29.2073   46.8441 N   0  0  0  0  0  0  0  0  0  0  0  0
   59.3033   28.4229   47.7341 C   0  0  0  0  0  0  0  0  0  0  0  0
   58.9450   28.8430   48.9568 C   0  0  0  0  0  0  0  0  0  0  0  0
   56.7661   27.4674   45.7662 O   0  0  0  0  0  0  0  0  0  0  0  0
   56.4161   26.1919   46.2081 C   0  0  0  0  0  0  0  0  0  0  0  0
   55.2497   25.6457   45.7711 N   0  0  0  0  0  0  0  0  0  0  0  0
   54.8527   24.4137   46.1739 C   0  0  0  0  0  0  0  0  0  0  0  0
   53.7654   23.9361   45.7553 O   0  0  0  0  0  0  0  0  0  0  0  0
   55.6226   23.6990   47.0332 N   0  0  0  0  0  0  0  0  0  0  0  0
   56.7973   24.1936   47.5013 C   0  0  0  0  0  0  0  0  0  0  0  0
   57.4814   23.5088   48.3105 O   0  0  0  0  0  0  0  0  0  0  0  0
   57.2378   25.4630   47.0864 C   0  0  0  0  0  0  0  0  0  0  0  0
   56.2008   27.9320   45.1809 H   0  0  0  0  0  0  0  0  0  0  0  0
   60.4032   30.5705   47.0210 C   0  0  0  0  0  0  0  0  0  0  0  0
   61.7122   30.8511   47.4378 C   0  0  0  0  0  0  0  0  0  0  0  0
   62.1395   32.1756   47.5575 C   0  0  0  0  0  0  0  0  0  0  0  0
   61.2757   33.2264   47.2349 C   0  0  0  0  0  0  0  0  0  0  0  0
   59.9715   32.9582   46.7941 C   0  0  0  0  0  0  0  0  0  0  0  0
   59.5326   31.6289   46.7127 C   0  0  0  0  0  0  0  0  0  0  0  0
   59.0755   34.0628   46.3929 C   0  0  0  0  0  0  0  0  0  0  0  0
   59.1553   35.1649   46.9962 O   0  0  0  0  0  0  0  0  0  0  0  0
   58.1420   33.9356   45.3072 N   0  0  0  0  0  0  0  0  0  0  0  0
   57.7773   32.8336   44.7187 C   0  0  0  0  0  0  0  0  0  0  0  0
   57.0126   31.9063   45.3361 N   0  0  0  0  0  0  0  0  0  0  0  0
   56.8187   30.8109   44.5535 C   0  0  0  0  0  0  0  0  0  0  0  0
   57.4425   30.8498   43.3131 C   0  0  0  0  0  0  0  0  0  0  0  0
   58.2649   32.3101   43.1915 S   0  0  0  0  0  0  0  0  0  0  0  0
  9 10  1  0
 10 11  1  0
 11 12  1  0
 12 13  2  0
 12 14  1  0
 14 15  1  0
 15 16  2  0
 15 17  1  0
 17  1  1  0
  1  2  2  0
  2  3  1  0
  3  4  2  0
  4  5  1  0
  4  6  1  0
  6 19  1  0
 19 20  2  0
 20 21  1  0
 21 22  2  0
 22 23  1  0
 23 25  1  0
 25 26  2  0
 25 27  1  0
 27 28  2  0
 28 29  1  0
 29 30  1  0
 30 31  2  0
 31 32  1  0
 23 24  2  0
  6  7  1  0
  7  8  2  0
 17 10  2  0
  7  2  1  0
 24 19  1  0
 32 28  1  0
  9 18  1  0
M  CHG 1  11  -1
M  CHG 1  14  -1
M  CHG 1  29  -1
M  END
> <UniqueID>
45

> <SMILES>
C=c1c(=Cc2c(O)[n-]c(=O)[n-]c2=O)cc(C)n1-c1cccc(C(=O)/N=c2/[n-]ccs2)c1

> <Energy>
138.43302697376387

> <Genealogy>
C=c1c(=Cc2c(O)[n-]c(=O)[n-]c2=O)cc(C)n1-c1cccc(C(=O)N=c2[n-]ccs2)c1 (protonated)
C=c1c(=Cc2c(O)[n-]c(=O)[n-]c2=O)cc(C)n1-c1cccc(C(=O)/N=c2/[n-]ccs2)c1 (cis-trans isomerization)
C=c1c(=Cc2c(O)[n-]c(=O)[n-]c2=O)cc(C)n1-c1cccc(C(=O)/N=c2/[n-]ccs2)c1 (3D coordinates assigned)
C=c1c(=Cc2c(O)[n-]c(=O)[n-]c2=O)cc(C)n1-c1cccc(C(=O)/N=c2/[n-]ccs2)c1 (optimized conformer: 138.43302697376387 kcal/mol)

> <smiles>
C=c1c(=Cc2c(O)[nH]c(=O)[nH]c2=O)cc(C)n1-c1cccc(C(=O)N=c2[nH]ccs2)c1

> <score_type>
oracle

> <origin>
adg

> <m_score__min__energy>
-14.619999999999999

> <m_primary>
energy

> <minimizedAffinity>
-7.82259

> <minimizedRMSD>
0.72008

> <CNNscore>
0.5251978040

> <CNNaffinity>
6.9995512962

> <CNN_VS>
3.6761488914

> <CNNaffinity_variance>
0.0324216448

$$$$
83:0


 27 29  0  0  0  0  0  0  0  0999 V2000
   57.9027   30.5012   44.7903 C   0  0  0  0  0  0  0  0  0  0  0  0
   58.9923   30.1298   45.5920 C   0  0  0  0  0  0  0  0  0  0  0  0
   59.0520   28.8515   46.1549 C   0  0  0  0  0  0  0  0  0  0  0  0
   58.0218   27.9279   45.9199 C   0  0  0  0  0  0  0  0  0  0  0  0
   56.9021   28.3177   45.1774 C   0  0  0  0  0  0  0  0  0  0  0  0
   56.8414   29.5951   44.6136 C   0  0  0  0  0  0  0  0  0  0  0  0
   58.0391   26.6374   46.5445 N   0  0  0  0  0  0  0  0  0  0  0  0
   57.6699   25.4893   46.0429 C   0  0  0  0  0  0  0  0  0  0  0  0
   58.6457   24.5867   45.7462 N   0  0  0  0  0  0  0  0  0  0  0  0
   58.3778   23.3664   45.2132 C   0  0  0  0  0  0  0  0  0  0  0  0
   57.0614   22.9936   44.9502 C   0  0  0  0  0  0  0  0  0  0  0  0
   56.0300   23.8783   45.2596 C   0  0  0  0  0  0  0  0  0  0  0  0
   56.3151   25.1259   45.8225 C   0  0  0  0  0  0  0  0  0  0  0  0
   55.2540   25.9471   46.1840 O   0  0  0  0  0  0  0  0  0  0  0  0
   58.5002   32.9360   44.7354 C   0  0  0  0  0  0  0  0  0  0  0  0
   57.8409   31.8728   44.2463 C   0  0  0  0  0  0  0  0  0  0  0  0
   58.5503   33.3413   46.1590 C   0  0  0  0  0  0  0  0  0  0  0  0
   57.5010   33.3704   46.8555 O   0  0  0  0  0  0  0  0  0  0  0  0
   59.4839   31.7353   48.6047 O   0  0  0  0  0  0  0  0  0  0  0  0
   60.7051   32.1868   48.1082 C   0  0  0  0  0  0  0  0  0  0  0  0
   61.8870   31.5784   48.5533 C   0  0  0  0  0  0  0  0  0  0  0  0
   63.1257   32.0659   48.1406 C   0  0  0  0  0  0  0  0  0  0  0  0
   63.1764   33.1648   47.2870 C   0  0  0  0  0  0  0  0  0  0  0  0
   62.0249   33.7343   46.8470 N   0  0  0  0  0  0  0  0  0  0  0  0
   60.7921   33.2766   47.2025 C   0  0  0  0  0  0  0  0  0  0  0  0
   59.7529   33.8945   46.7077 N   0  0  0  0  0  0  0  0  0  0  0  0
   59.4589   31.0133   49.2014 H   0  0  0  0  0  0  0  0  0  0  0  0
 19 20  1  0
 20 21  2  0
 21 22  1  0
 22 23  2  0
 23 24  1  0
 24 25  1  0
 25 26  2  0
 26 17  1  0
 17 18  2  0
 17 15  1  0
 15 16  2  0
 16  1  1  0
  1  2  2  0
  2  3  1  0
  3  4  2  0
  4  7  1  0
  7  8  2  0
  8  9  1  0
  9 10  1  0
 10 11  2  0
 11 12  1  0
 12 13  2  0
 13 14  1  0
  4  5  1  0
  5  6  2  0
 25 20  1  0
  6  1  1  0
 13  8  1  0
 19 27  1  0
M  CHG 1   9  -1
M  CHG 1  14  -1
M  CHG 1  24  -1
M  END
> <UniqueID>
78

> <SMILES>
O=C(C=Cc1ccc(/N=c2/[n-]cccc2[O-])cc1)N=c1[n-]cccc1O

> <Energy>
76.04330169408644

> <Genealogy>
O=C(C=Cc1ccc(N=c2[n-]cccc2[O-])cc1)N=c1[n-]cccc1O (protonated)
O=C(C=Cc1ccc(/N=c2/[n-]cccc2[O-])cc1)N=c1[n-]cccc1O (cis-trans isomerization)
O=C(C=Cc1ccc(/N=c2/[n-]cccc2[O-])cc1)N=c1[n-]cccc1O (3D coordinates assigned)
O=C(C=Cc1ccc(/N=c2/[n-]cccc2[O-])cc1)N=c1[n-]cccc1O (optimized conformer: 76.04330169408644 kcal/mol)

> <smiles>
O=C(C=Cc1ccc(N=c2[nH]cccc2O)cc1)N=c1[nH]cccc1O

> <score_type>
oracle

> <origin>
adg

> <m_score__min__energy>
-14.050000000000001

> <m_primary>
energy

> <minimizedAffinity>
-8.70969

> <minimizedRMSD>
0.89201

> <CNNscore>
0.1359934360

> <CNNaffinity>
6.1296043396

> <CNN_VS>
0.8335859776

> <CNNaffinity_variance>
0.0128641510

$$$$
23:0


 32 34  0  0  0  0  0  0  0  0999 V2000
   59.2811   26.3497   46.3678 C   0  0  0  0  0  0  0  0  0  0  0  0
   59.9437   26.4039   47.6020 C   0  0  0  0  0  0  0  0  0  0  0  0
   60.3597   27.6263   48.1300 C   0  0  0  0  0  0  0  0  0  0  0  0
   60.1235   28.8298   47.4421 C   0  0  0  0  0  0  0  0  0  0  0  0
   59.4559   28.7892   46.1931 C   0  0  0  0  0  0  0  0  0  0  0  0
   59.0510   27.5447   45.6677 C   0  0  0  0  0  0  0  0  0  0  0  0
   60.5807   30.1054   48.0520 C   0  0  0  0  0  0  0  0  0  0  0  0
   60.2044   30.4508   49.2034 O   0  0  0  0  0  0  0  0  0  0  0  0
   61.4406   30.9469   47.3540 O   0  0  0  0  0  0  0  0  0  0  0  0
   58.8326   25.0509   45.8119 C   0  0  0  0  0  0  0  0  0  0  0  0
   59.6283   24.0718   45.7779 O   0  0  0  0  0  0  0  0  0  0  0  0
   55.9786   21.7548   45.4569 C   0  0  0  0  0  0  0  0  0  0  0  0
   56.8772   22.7499   45.2316 N   0  0  0  0  0  0  0  0  0  0  0  0
   56.5918   24.0627   45.4488 C   0  0  0  0  0  0  0  0  0  0  0  0
   57.5344   24.9341   45.2107 N   0  0  0  0  0  0  0  0  0  0  0  0
   55.2853   24.4114   45.8815 C   0  0  0  0  0  0  0  0  0  0  0  0
   54.8665   25.7307   46.0096 O   0  0  0  0  0  0  0  0  0  0  0  0
   54.3593   23.3942   46.1374 C   0  0  0  0  0  0  0  0  0  0  0  0
   54.7056   22.0606   45.9298 C   0  0  0  0  0  0  0  0  0  0  0  0
   59.2205   29.9930   45.5021 O   0  0  0  0  0  0  0  0  0  0  0  0
   58.3710   30.1706   44.3671 C   0  0  0  0  0  0  0  0  0  0  0  0
   57.1521   30.9660   44.7243 C   0  0  0  0  0  0  0  0  0  0  0  0
   56.0323   30.3903   44.7704 O   0  0  0  0  0  0  0  0  0  0  0  0
   57.2810   32.3409   45.1075 N   0  0  0  0  0  0  0  0  0  0  0  0
   58.2225   32.8898   46.0411 C   0  0  0  0  0  0  0  0  0  0  0  0
   59.2939   33.6412   45.5470 C   0  0  0  0  0  0  0  0  0  0  0  0
   60.2244   34.2115   46.4219 C   0  0  0  0  0  0  0  0  0  0  0  0
   60.0847   34.0452   47.8125 C   0  0  0  0  0  0  0  0  0  0  0  0
   58.9994   33.3125   48.3052 C   0  0  0  0  0  0  0  0  0  0  0  0
   58.0690   32.7432   47.4302 C   0  0  0  0  0  0  0  0  0  0  0  0
   60.9922   34.5926   48.7314 O   0  0  0  0  0  0  0  0  0  0  0  0
   62.0466   33.8624   49.3510 C   0  0  0  0  0  0  0  0  0  0  0  0
 12 13  1  0
 13 14  1  0
 14 15  2  0
 15 10  1  0
 10 11  2  0
 10  1  1  0
  1  2  2  0
  2  3  1  0
  3  4  2  0
  4  7  1  0
  7  8  2  0
  7  9  1  0
  4  5  1  0
  5 20  1  0
 20 21  1  0
 21 22  1  0
 22 23  2  0
 22 24  1  0
 24 25  1  0
 25 26  2  0
 26 27  1  0
 27 28  2  0
 28 31  1  0
 31 32  1  0
 28 29  1  0
 29 30  2  0
  5  6  2  0
 14 16  1  0
 16 17  1  0
 16 18  2  0
 18 19  1  0
 19 12  2  0
  6  1  1  0
 30 25  1  0
M  CHG 1   9  -1
M  CHG 1  13  -1
M  CHG 1  17  -1
M  CHG 1  24  -1
M  END
> <UniqueID>
22

> <SMILES>
COc1ccc([N-]C(=O)COc2cc(C(=O)/N=c3/[n-]cccc3[O-])ccc2C(=O)[O-])cc1

> <Energy>
68.68806252369764

> <Genealogy>
COc1ccc([N-]C(=O)COc2cc(C(=O)N=c3[n-]cccc3[O-])ccc2C(=O)[O-])cc1 (protonated)
COc1ccc([N-]C(=O)COc2cc(C(=O)/N=c3/[n-]cccc3[O-])ccc2C(=O)[O-])cc1 (cis-trans isomerization)
COc1ccc([N-]C(=O)COc2cc(C(=O)/N=c3/[n-]cccc3[O-])ccc2C(=O)[O-])cc1 (3D coordinates assigned)
COc1ccc([N-]C(=O)COc2cc(C(=O)/N=c3/[n-]cccc3[O-])ccc2C(=O)[O-])cc1 (optimized conformer: 68.68806252369764 kcal/mol)

> <smiles>
COc1ccc(NC(=O)COc2cc(C(=O)N=c3[nH]cccc3O)ccc2C(=O)O)cc1

> <score_type>
oracle

> <origin>
adg

> <m_score__min__energy>
-14.550000000000001

> <m_primary>
energy

> <minimizedAffinity>
-7.85696

> <minimizedRMSD>
0.58971

> <CNNscore>
0.5212961435

> <CNNaffinity>
6.7848572731

> <CNN_VS>
3.5369198322

> <CNNaffinity_variance>
0.1045139357

$$$$
34:0


 20 21  0  0  0  0  0  0  0  0999 V2000
   57.8883   26.8875   46.1823 C   0  0  0  0  0  0  0  0  0  0  0  0
   57.9220   27.2043   47.4003 O   0  0  0  0  0  0  0  0  0  0  0  0
   55.7731   28.8484   44.9573 O   0  0  0  0  0  0  0  0  0  0  0  0
   56.9242   29.6336   44.9319 C   0  0  0  0  0  0  0  0  0  0  0  0
   56.7982   31.0211   44.7743 C   0  0  0  0  0  0  0  0  0  0  0  0
   57.9264   31.8384   44.8120 C   0  0  0  0  0  0  0  0  0  0  0  0
   59.1787   31.2611   45.0102 C   0  0  0  0  0  0  0  0  0  0  0  0
   59.2912   29.9142   45.1455 N   0  0  0  0  0  0  0  0  0  0  0  0
   58.2201   29.0759   45.0953 C   0  0  0  0  0  0  0  0  0  0  0  0
   58.4452   27.7969   45.2233 N   0  0  0  0  0  0  0  0  0  0  0  0
   54.9320   29.2463   44.8465 H   0  0  0  0  0  0  0  0  0  0  0  0
   57.3797   25.5496   45.7736 C   0  0  0  0  0  0  0  0  0  0  0  0
   58.2878   24.5464   45.3869 C   0  0  0  0  0  0  0  0  0  0  0  0
   57.8320   23.2852   44.9974 C   0  0  0  0  0  0  0  0  0  0  0  0
   56.4656   23.0044   44.9889 C   0  0  0  0  0  0  0  0  0  0  0  0
   56.0269   21.7443   44.5985 O   0  0  0  0  0  0  0  0  0  0  0  0
   55.5449   23.9878   45.3704 C   0  0  0  0  0  0  0  0  0  0  0  0
   53.6673   23.5993   45.3533 Br  0  0  0  0  0  0  0  0  0  0  0  0
   55.9975   25.2589   45.7619 C   0  0  0  0  0  0  0  0  0  0  0  0
   55.0653   26.2298   46.1193 O   0  0  0  0  0  0  0  0  0  0  0  0
  3  4  1  0
  4  5  2  0
  5  6  1  0
  6  7  2  0
  7  8  1  0
  8  9  1  0
  9 10  2  0
 10  1  1  0
  1  2  2  0
  1 12  1  0
 12 13  2  0
 13 14  1  0
 14 15  2  0
 15 16  1  0
 15 17  1  0
 17 18  1  0
 17 19  2  0
 19 20  1  0
  9  4  1  0
 19 12  1  0
  3 11  1  0
M  CHG 1   8  -1
M  CHG 1  16  -1
M  CHG 1  20  -1
M  END
> <UniqueID>
32

> <SMILES>
O=C(/N=c1/[n-]cccc1O)c1ccc([O-])c(Br)c1[O-]

> <Energy>
42.67061841460442

> <Genealogy>
O=C(N=c1[n-]cccc1O)c1ccc([O-])c(Br)c1[O-] (protonated)
O=C(/N=c1/[n-]cccc1O)c1ccc([O-])c(Br)c1[O-] (cis-trans isomerization)
O=C(/N=c1/[n-]cccc1O)c1ccc([O-])c(Br)c1[O-] (3D coordinates assigned)
O=C(/N=c1/[n-]cccc1O)c1ccc([O-])c(Br)c1[O-] (optimized conformer: 42.67061841460442 kcal/mol)

> <smiles>
O=C(N=c1[nH]cccc1O)c1ccc(O)c(Br)c1O

> <score_type>
oracle

> <origin>
adg

> <m_score__min__energy>
-14.23

> <m_primary>
energy

> <minimizedAffinity>
-6.29868

> <minimizedRMSD>
0.71654

> <CNNscore>
0.1740109473

> <CNNaffinity>
4.9972519875

> <CNN_VS>
0.8695765734

> <CNNaffinity_variance>
0.0734009296

$$$$
44:0


 38 42  0  0  0  0  0  0  0  0999 V2000
   58.5949   30.5282   45.5529 C   0  0  0  0  0  0  0  0  0  0  0  0
   58.0397   31.3378   44.5538 C   0  0  0  0  0  0  0  0  0  0  0  0
   58.0136   32.7229   44.7111 C   0  0  0  0  0  0  0  0  0  0  0  0
   58.5383   33.3124   45.8635 C   0  0  0  0  0  0  0  0  0  0  0  0
   59.0954   32.5173   46.8889 C   0  0  0  0  0  0  0  0  0  0  0  0
   59.1155   31.1177   46.7133 C   0  0  0  0  0  0  0  0  0  0  0  0
   56.3684   28.6395   44.9434 C   0  0  0  0  0  0  0  0  0  0  0  0
   57.6507   28.2591   45.0660 C   0  0  0  0  0  0  0  0  0  0  0  0
   58.1437   26.9553   44.9457 C   0  0  0  0  0  0  0  0  0  0  0  0
   57.4525   25.8455   44.6237 C   0  0  0  0  0  0  0  0  0  0  0  0
   59.5088   27.0306   45.1865 C   0  0  0  0  0  0  0  0  0  0  0  0
   59.7946   28.3580   45.4373 C   0  0  0  0  0  0  0  0  0  0  0  0
   61.1602   28.8915   45.7510 C   0  0  0  0  0  0  0  0  0  0  0  0
   58.6675   29.1032   45.3702 N   0  0  0  0  0  0  0  0  0  0  0  0
   57.0435   24.8186   45.6088 C   0  0  0  0  0  0  0  0  0  0  0  0
   55.8229   24.9472   46.2880 C   0  0  0  0  0  0  0  0  0  0  0  0
   54.9711   26.0114   46.0173 O   0  0  0  0  0  0  0  0  0  0  0  0
   55.4586   24.0206   47.2122 N   0  0  0  0  0  0  0  0  0  0  0  0
   56.2647   22.9710   47.5069 C   0  0  0  0  0  0  0  0  0  0  0  0
   55.9055   22.1224   48.3661 O   0  0  0  0  0  0  0  0  0  0  0  0
   57.4630   22.8362   46.8830 N   0  0  0  0  0  0  0  0  0  0  0  0
   57.8746   23.7362   45.9520 C   0  0  0  0  0  0  0  0  0  0  0  0
   59.0086   23.5989   45.4206 O   0  0  0  0  0  0  0  0  0  0  0  0
   59.6892   33.1107   48.1270 C   0  0  0  0  0  0  0  0  0  0  0  0
   59.1190   32.8796   49.2313 O   0  0  0  0  0  0  0  0  0  0  0  0
   60.9307   33.8704   48.1052 N   0  0  0  0  0  0  0  0  0  0  0  0
   61.4714   34.1351   49.4745 C   0  0  0  0  0  0  0  0  0  0  0  0
   62.8105   33.4280   49.7707 C   0  0  0  0  0  0  0  0  0  0  0  0
   62.8185   31.9511   49.2992 C   0  0  0  0  0  0  0  0  0  0  0  0
   62.4317   31.8854   47.7887 C   0  0  0  0  0  0  0  0  0  0  0  0
   61.9133   33.2183   47.2100 C   0  0  0  0  0  0  0  0  0  0  0  0
   61.3024   33.0699   48.5415 H   0  0  0  0  0  0  0  0  0  0  0  0
   61.9378   31.0489   50.1048 N   0  0  0  0  0  0  0  0  0  0  0  0
   61.2518   30.0651   49.2341 C   0  0  0  0  0  0  0  0  0  0  0  0
   60.2308   29.2502   50.0570 C   0  0  0  0  0  0  0  0  0  0  0  0
   60.4242   29.3897   51.4529 O   0  0  0  0  0  0  0  0  0  0  0  0
   61.7847   29.1847   51.7681 C   0  0  0  0  0  0  0  0  0  0  0  0
   62.6574   30.3063   51.1690 C   0  0  0  0  0  0  0  0  0  0  0  0
  7  8  2  0
  8  9  1  0
  9 10  2  0
 10 15  1  0
 15 16  2  0
 16 17  1  0
 16 18  1  0
 18 19  1  0
 19 20  2  0
 19 21  1  0
 21 22  1  0
 22 23  2  0
  9 11  1  0
 11 12  2  0
 12 13  1  0
 12 14  1  0
 14  1  1  0
  1  2  2  0
  2  3  1  0
  3  4  2  0
  4  5  1  0
  5 24  1  0
 24 25  2  0
 26 24  1  0
 26 27  1  0
 27 28  1  0
 28 29  1  0
 29 33  1  0
 33 34  1  0
 34 35  1  0
 35 36  1  0
 36 37  1  0
 37 38  1  0
 29 30  1  0
 30 31  1  0
  5  6  2  0
 14  8  1  0
  6  1  1  0
 22 15  1  0
 31 26  1  0
 38 33  1  0
 26 32  1  0
M  CHG 1  17  -1
M  CHG 1  18  -1
M  CHG 1  21  -1
M  CHG 1  26   1
M  END
> <UniqueID>
42

> <SMILES>
C=c1c(=Cc2c([O-])[n-]c(=O)[n-]c2=O)cc(C)n1-c1cccc(C(=O)[NH+]2CCC(N3CCOCC3)CC2)c1

> <Energy>
146.73159260152056

> <Genealogy>
C=c1c(=Cc2c([O-])[n-]c(=O)[n-]c2=O)cc(C)n1-c1cccc(C(=O)[NH+]2CCC(N3CCOCC3)CC2)c1 (protonated)
C=c1c(=Cc2c([O-])[n-]c(=O)[n-]c2=O)cc(C)n1-c1cccc(C(=O)[NH+]2CCC(N3CCOCC3)CC2)c1 (3D coordinates assigned)
C=c1c(=Cc2c([O-])[n-]c(=O)[n-]c2=O)cc(C)n1-c1cccc(C(=O)[NH+]2CCC(N3CCOCC3)CC2)c1 (nonaromatic ring conformer: 146.73159260152056 kcal/mol)

> <smiles>
C=c1c(=Cc2c(O)[nH]c(=O)[nH]c2=O)cc(C)n1-c1cccc(C(=O)N2CCC(N3CCOCC3)CC2)c1

> <score_type>
oracle

> <origin>
adg

> <m_score__min__energy>
-16

> <m_primary>
energy

> <minimizedAffinity>
-8.51908

> <minimizedRMSD>
0.69104

> <CNNscore>
0.1157708764

> <CNNaffinity>
6.8413124084

> <CNN_VS>
0.7920247316

> <CNNaffinity_variance>
0.1331563145

$$$$
59:0


 30 33  0  0  0  0  0  0  0  0999 V2000
   59.9288   28.5270   47.0415 C   0  0  0  0  0  0  0  0  0  0  0  0
   58.9594   28.6611   46.1221 C   0  0  0  0  0  0  0  0  0  0  0  0
   58.4540   27.6624   45.2744 C   0  0  0  0  0  0  0  0  0  0  0  0
   58.6102   26.3236   45.2924 C   0  0  0  0  0  0  0  0  0  0  0  0
   57.6761   28.3119   44.3295 C   0  0  0  0  0  0  0  0  0  0  0  0
   57.6708   29.6490   44.6683 C   0  0  0  0  0  0  0  0  0  0  0  0
   56.9024   30.7104   43.9410 C   0  0  0  0  0  0  0  0  0  0  0  0
   58.4440   29.8623   45.7565 N   0  0  0  0  0  0  0  0  0  0  0  0
   57.7108   25.3661   45.9573 C   0  0  0  0  0  0  0  0  0  0  0  0
   58.1023   24.2032   46.5091 N   0  0  0  0  0  0  0  0  0  0  0  0
   56.9794   23.7495   47.1075 C   0  0  0  0  0  0  0  0  0  0  0  0
   56.9380   22.6562   47.7299 O   0  0  0  0  0  0  0  0  0  0  0  0
   55.9087   24.5634   46.9956 N   0  0  0  0  0  0  0  0  0  0  0  0
   56.3938   25.5903   46.2752 C   0  0  0  0  0  0  0  0  0  0  0  0
   55.6528   26.7108   45.9214 O   0  0  0  0  0  0  0  0  0  0  0  0
   54.7556   26.7807   46.1823 H   0  0  0  0  0  0  0  0  0  0  0  0
   58.7013   31.1387   46.3675 C   0  0  0  0  0  0  0  0  0  0  0  0
   58.3995   32.3222   45.6808 C   0  0  0  0  0  0  0  0  0  0  0  0
   58.6418   33.5627   46.2768 C   0  0  0  0  0  0  0  0  0  0  0  0
   59.1886   33.6275   47.5624 C   0  0  0  0  0  0  0  0  0  0  0  0
   59.4979   32.4503   48.2573 C   0  0  0  0  0  0  0  0  0  0  0  0
   59.2483   31.2069   47.6578 C   0  0  0  0  0  0  0  0  0  0  0  0
   60.1965   32.5312   49.8765 S   0  0  0  0  0  0  0  0  0  0  0  0
   59.8328   31.2826   50.6323 O   0  0  0  0  0  0  0  0  0  0  0  0
   59.6064   33.7032   50.6099 O   0  0  0  0  0  0  0  0  0  0  0  0
   61.9399   32.6877   49.8339 N   0  0  0  0  0  0  0  0  0  0  0  0
   62.5592   31.5178   49.2025 C   0  0  0  0  0  0  0  0  0  0  0  0
   62.8399   31.8565   47.7471 C   0  0  0  0  0  0  0  0  0  0  0  0
   62.7717   33.3668   47.6568 C   0  0  0  0  0  0  0  0  0  0  0  0
   62.3511   33.8493   49.0394 C   0  0  0  0  0  0  0  0  0  0  0  0
  1  2  2  0
  2  3  1  0
  3  4  2  0
  4  9  1  0
  9 10  1  0
 10 11  1  0
 11 12  2  0
 11 13  1  0
 13 14  1  0
 14 15  1  0
  3  5  1  0
  5  6  2  0
  6  7  1  0
  6  8  1  0
  8 17  1  0
 17 18  2  0
 18 19  1  0
 19 20  2  0
 20 21  1  0
 21 23  1  0
 23 24  2  0
 23 25  2  0
 23 26  1  0
 26 27  1  0
 27 28  1  0
 28 29  1  0
 29 30  1  0
 21 22  2  0
  8  2  1  0
 22 17  1  0
 14  9  2  0
 30 26  1  0
 15 16  1  0
M  CHG 1  10  -1
M  CHG 1  13  -1
M  END
> <UniqueID>
55

> <SMILES>
C=c1c(=Cc2[n-]c(=O)[n-]c2O)cc(C)n1-c1cccc(S(=O)(=O)N2CCCC2)c1

> <Energy>
124.5596516765822

> <Genealogy>
C=c1c(=Cc2[n-]c(=O)[n-]c2O)cc(C)n1-c1cccc(S(=O)(=O)N2CCCC2)c1 (protonated)
C=c1c(=Cc2[n-]c(=O)[n-]c2O)cc(C)n1-c1cccc(S(=O)(=O)N2CCCC2)c1 (3D coordinates assigned)
C=c1c(=Cc2[n-]c(=O)[n-]c2O)cc(C)n1-c1cccc(S(=O)(=O)N2CCCC2)c1 (nonaromatic ring conformer: 124.5596516765822 kcal/mol)

> <smiles>
C=c1c(=Cc2[nH]c(=O)[nH]c2O)cc(C)n1-c1cccc(S(=O)(=O)N2CCCC2)c1

> <score_type>
oracle

> <origin>
adg

> <m_score__min__energy>
-14.25

> <m_primary>
energy

> <minimizedAffinity>
-9.71782

> <minimizedRMSD>
1.01679

> <CNNscore>
0.8709328771

> <CNNaffinity>
7.3998379707

> <CNN_VS>
6.4447622299

> <CNNaffinity_variance>
0.0739774778

$$$$
65:0


 31 33  0  0  0  0  0  0  0  0999 V2000
   58.4450   32.6754   47.0988 N   0  0  0  0  0  0  0  0  0  0  0  0
   57.9483   31.6411   46.4129 N   0  0  0  0  0  0  0  0  0  0  0  0
   57.7296   31.6914   45.0701 C   0  0  0  0  0  0  0  0  0  0  0  0
   58.0289   32.8709   44.3805 C   0  0  0  0  0  0  0  0  0  0  0  0
   58.5360   33.9580   45.0851 C   0  0  0  0  0  0  0  0  0  0  0  0
   58.7389   33.8517   46.4600 C   0  0  0  0  0  0  0  0  0  0  0  0
   59.1874   34.8428   47.0988 O   0  0  0  0  0  0  0  0  0  0  0  0
   57.1806   30.5110   44.3780 C   0  0  0  0  0  0  0  0  0  0  0  0
   56.9647   30.5661   43.1384 O   0  0  0  0  0  0  0  0  0  0  0  0
   56.9482   29.2949   45.1013 N   0  0  0  0  0  0  0  0  0  0  0  0
   57.9432   28.3649   45.5587 C   0  0  0  0  0  0  0  0  0  0  0  0
   59.3174   28.6690   45.5208 C   0  0  0  0  0  0  0  0  0  0  0  0
   60.2585   27.7302   45.9523 C   0  0  0  0  0  0  0  0  0  0  0  0
   59.8403   26.4779   46.4096 C   0  0  0  0  0  0  0  0  0  0  0  0
   58.4808   26.1601   46.4284 C   0  0  0  0  0  0  0  0  0  0  0  0
   57.5345   27.0959   45.9975 C   0  0  0  0  0  0  0  0  0  0  0  0
   56.1839   26.7621   46.0150 O   0  0  0  0  0  0  0  0  0  0  0  0
   58.5962   32.5295   48.5494 C   0  0  0  0  0  0  0  0  0  0  0  0
   60.5456   31.2668   48.0065 O   0  0  0  0  0  0  0  0  0  0  0  0
   59.9521   31.9779   48.8638 C   0  0  0  0  0  0  0  0  0  0  0  0
   60.5487   32.2149   50.1474 N   0  0  0  0  0  0  0  0  0  0  0  0
   60.0796   32.7947   50.7901 H   0  0  0  0  0  0  0  0  0  0  0  0
   61.8050   31.6359   50.5255 C   0  0  0  0  0  0  0  0  0  0  0  0
   61.7932   30.4407   51.2579 C   0  0  0  0  0  0  0  0  0  0  0  0
   62.9869   29.8738   51.7091 C   0  0  0  0  0  0  0  0  0  0  0  0
   64.2034   30.4914   51.4249 C   0  0  0  0  0  0  0  0  0  0  0  0
   64.2356   31.6663   50.6724 C   0  0  0  0  0  0  0  0  0  0  0  0
   63.0445   32.2450   50.1940 C   0  0  0  0  0  0  0  0  0  0  0  0
   63.1369   33.4374   49.3166 C   0  0  0  0  0  0  0  0  0  0  0  0
   63.8677   33.4325   48.2911 O   0  0  0  0  0  0  0  0  0  0  0  0
   62.4472   34.5996   49.6430 O   0  0  0  0  0  0  0  0  0  0  0  0
 19 20  2  0
 20 18  1  0
 18  1  1  0
  1  2  1  0
  2  3  2  0
  3  8  1  0
  8  9  2  0
  8 10  1  0
 10 11  1  0
 11 12  2  0
 12 13  1  0
 13 14  2  0
 14 15  1  0
 15 16  2  0
 16 17  1  0
  3  4  1  0
  4  5  2  0
  5  6  1  0
  6  7  2  0
 20 21  1  0
 21 23  1  0
 23 24  2  0
 24 25  1  0
 25 26  2  0
 26 27  1  0
 27 28  2  0
 28 29  1  0
 29 30  2  0
 29 31  1  0
  6  1  1  0
 28 23  1  0
 16 11  1  0
 21 22  1  0
M  CHG 1  10  -1
M  CHG 1  17  -1
M  CHG 1  31  -1
M  END
> <UniqueID>
61

> <SMILES>
O=C(Cn1nc(C(=O)[N-]c2ccccc2[O-])ccc1=O)Nc1ccccc1C(=O)[O-]

> <Energy>
57.954665904483235

> <Genealogy>
O=C(Cn1nc(C(=O)[N-]c2ccccc2[O-])ccc1=O)Nc1ccccc1C(=O)[O-] (protonated)
O=C(Cn1nc(C(=O)[N-]c2ccccc2[O-])ccc1=O)Nc1ccccc1C(=O)[O-] (3D coordinates assigned)
O=C(Cn1nc(C(=O)[N-]c2ccccc2[O-])ccc1=O)Nc1ccccc1C(=O)[O-] (optimized conformer: 57.954665904483235 kcal/mol)

> <smiles>
O=C(Cn1nc(C(=O)Nc2ccccc2O)ccc1=O)Nc1ccccc1C(=O)O

> <score_type>
oracle

> <origin>
adg

> <m_score__min__energy>
-16.260000000000002

> <m_primary>
energy

> <minimizedAffinity>
-8.56221

> <minimizedRMSD>
1.95219

> <CNNscore>
0.6291199923

> <CNNaffinity>
6.4499645233

> <CNN_VS>
4.0578017235

> <CNNaffinity_variance>
0.1926058531

$$$$
73:0


 27 29  0  0  0  0  0  0  0  0999 V2000
   59.4941   26.6015   47.0960 C   0  0  0  0  0  0  0  0  0  0  0  0
   58.9064   27.3623   46.1591 C   0  0  0  0  0  0  0  0  0  0  0  0
   58.1846   26.9041   45.0519 C   0  0  0  0  0  0  0  0  0  0  0  0
   57.8730   25.6277   44.7516 C   0  0  0  0  0  0  0  0  0  0  0  0
   57.8017   28.0350   44.3417 C   0  0  0  0  0  0  0  0  0  0  0  0
   58.2976   29.1225   45.0314 C   0  0  0  0  0  0  0  0  0  0  0  0
   58.1103   30.5510   44.6165 C   0  0  0  0  0  0  0  0  0  0  0  0
   58.9746   28.7173   46.1291 N   0  0  0  0  0  0  0  0  0  0  0  0
   57.2512   24.6863   45.6996 C   0  0  0  0  0  0  0  0  0  0  0  0
   57.8096   23.5134   46.0486 N   0  0  0  0  0  0  0  0  0  0  0  0
   56.8800   22.9489   46.8488 C   0  0  0  0  0  0  0  0  0  0  0  0
   57.0467   21.8251   47.3927 O   0  0  0  0  0  0  0  0  0  0  0  0
   55.7547   23.6753   47.0108 N   0  0  0  0  0  0  0  0  0  0  0  0
   55.9981   24.7662   46.2680 C   0  0  0  0  0  0  0  0  0  0  0  0
   55.0747   25.7878   46.0783 O   0  0  0  0  0  0  0  0  0  0  0  0
   59.6114   29.5800   47.0880 C   0  0  0  0  0  0  0  0  0  0  0  0
   60.8188   30.2186   46.7720 C   0  0  0  0  0  0  0  0  0  0  0  0
   61.4304   31.0672   47.6978 C   0  0  0  0  0  0  0  0  0  0  0  0
   60.8525   31.2807   48.9551 C   0  0  0  0  0  0  0  0  0  0  0  0
   59.6295   30.6577   49.2645 C   0  0  0  0  0  0  0  0  0  0  0  0
   59.0180   29.8100   48.3376 C   0  0  0  0  0  0  0  0  0  0  0  0
   61.4997   32.1483   49.8481 O   0  0  0  0  0  0  0  0  0  0  0  0
   62.8109   31.9939   50.3237 C   0  0  0  0  0  0  0  0  0  0  0  0
   63.0691   31.1474   51.2220 O   0  0  0  0  0  0  0  0  0  0  0  0
   63.8745   32.7658   49.7385 N   0  0  0  0  0  0  0  0  0  0  0  0
   65.2492   32.5915   50.2143 C   0  0  0  0  0  0  0  0  0  0  0  0
   63.5631   33.7260   48.6772 C   0  0  0  0  0  0  0  0  0  0  0  0
  1  2  2  0
  2  3  1  0
  3  4  2  0
  4  9  1  0
  9 10  1  0
 10 11  1  0
 11 12  2  0
 11 13  1  0
 13 14  1  0
 14 15  1  0
  3  5  1  0
  5  6  2  0
  6  7  1  0
  6  8  1  0
  8 16  1  0
 16 17  2  0
 17 18  1  0
 18 19  2  0
 19 22  1  0
 22 23  1  0
 23 24  2  0
 23 25  1  0
 25 26  1  0
 25 27  1  0
 19 20  1  0
 20 21  2  0
  8  2  1  0
 21 16  1  0
 14  9  2  0
M  CHG 1  10  -1
M  CHG 1  13  -1
M  CHG 1  15  -1
M  END
> <UniqueID>
69

> <SMILES>
C=c1/c(=C/c2[n-]c(=O)[n-]c2[O-])cc(C)n1-c1ccc(OC(=O)N(C)C)cc1

> <Energy>
117.82681585542517

> <Genealogy>
C=c1c(=Cc2[n-]c(=O)[n-]c2[O-])cc(C)n1-c1ccc(OC(=O)N(C)C)cc1 (protonated)
C=c1/c(=C/c2[n-]c(=O)[n-]c2[O-])cc(C)n1-c1ccc(OC(=O)N(C)C)cc1 (cis-trans isomerization)
C=c1/c(=C/c2[n-]c(=O)[n-]c2[O-])cc(C)n1-c1ccc(OC(=O)N(C)C)cc1 (3D coordinates assigned)
C=c1/c(=C/c2[n-]c(=O)[n-]c2[O-])cc(C)n1-c1ccc(OC(=O)N(C)C)cc1 (optimized conformer: 117.82681585542517 kcal/mol)

> <smiles>
C=c1c(=Cc2[nH]c(=O)[nH]c2O)cc(C)n1-c1ccc(OC(=O)N(C)C)cc1

> <score_type>
oracle

> <origin>
adg

> <m_score__min__energy>
-15.18

> <m_primary>
energy

> <minimizedAffinity>
-7.93835

> <minimizedRMSD>
1.44750

> <CNNscore>
0.1573815942

> <CNNaffinity>
6.1688323021

> <CNN_VS>
0.9708606601

> <CNNaffinity_variance>
0.0036820546

$$$$
76:0


 32 34  0  0  0  0  0  0  0  0999 V2000
   58.0738   32.5800   44.7318 C   0  0  0  0  0  0  0  0  0  0  0  0
   58.9575   32.8373   45.8878 N   0  0  0  0  0  0  0  0  0  0  0  0
   59.5683   34.1721   45.8234 C   0  0  0  0  0  0  0  0  0  0  0  0
   60.7012   34.2350   46.8504 C   0  0  0  0  0  0  0  0  0  0  0  0
   60.3442   33.6145   48.1494 N   0  0  0  0  0  0  0  0  0  0  0  0
   58.9028   33.3740   48.3561 C   0  0  0  0  0  0  0  0  0  0  0  0
   58.2032   32.6931   47.1519 C   0  0  0  0  0  0  0  0  0  0  0  0
   61.3195   32.2179   48.5592 S   0  0  0  0  0  0  0  0  0  0  0  0
   61.9022   31.6569   47.2907 O   0  0  0  0  0  0  0  0  0  0  0  0
   60.4672   31.1475   49.1818 O   0  0  0  0  0  0  0  0  0  0  0  0
   62.6367   32.6218   49.6611 C   0  0  0  0  0  0  0  0  0  0  0  0
   63.9698   32.4319   49.2647 C   0  0  0  0  0  0  0  0  0  0  0  0
   65.0152   32.7735   50.1275 C   0  0  0  0  0  0  0  0  0  0  0  0
   64.7354   33.3019   51.3912 C   0  0  0  0  0  0  0  0  0  0  0  0
   63.4094   33.4855   51.7926 C   0  0  0  0  0  0  0  0  0  0  0  0
   63.1453   33.9961   53.0193 F   0  0  0  0  0  0  0  0  0  0  0  0
   62.3606   33.1475   50.9312 C   0  0  0  0  0  0  0  0  0  0  0  0
   57.6176   31.1489   44.6898 C   0  0  0  0  0  0  0  0  0  0  0  0
   56.3923   30.8870   44.8360 O   0  0  0  0  0  0  0  0  0  0  0  0
   58.5718   30.0889   44.5626 N   0  0  0  0  0  0  0  0  0  0  0  0
   58.0175   27.0377   46.7085 C   0  0  0  0  0  0  0  0  0  0  0  0
   59.2576   26.9687   47.3531 C   0  0  0  0  0  0  0  0  0  0  0  0
   60.2578   27.8929   47.0536 C   0  0  0  0  0  0  0  0  0  0  0  0
   60.0182   28.9059   46.1251 C   0  0  0  0  0  0  0  0  0  0  0  0
   58.7651   29.0311   45.5133 C   0  0  0  0  0  0  0  0  0  0  0  0
   57.7554   28.0839   45.7970 C   0  0  0  0  0  0  0  0  0  0  0  0
   56.5127   28.1867   45.1666 O   0  0  0  0  0  0  0  0  0  0  0  0
   56.3497   28.8850   44.5635 H   0  0  0  0  0  0  0  0  0  0  0  0
   57.0397   26.0306   46.9920 N   0  0  0  0  0  0  0  0  0  0  0  0
   57.3194   24.4824   44.9726 C   0  0  0  0  0  0  0  0  0  0  0  0
   56.4680   25.1684   45.9992 C   0  0  0  0  0  0  0  0  0  0  0  0
   55.2231   24.9890   45.9893 O   0  0  0  0  0  0  0  0  0  0  0  0
 30 31  1  0
 31 32  2  0
 31 29  1  0
 29 21  1  0
 21 22  2  0
 22 23  1  0
 23 24  2  0
 24 25  1  0
 25 20  1  0
 20 18  1  0
 18 19  2  0
 18  1  1  0
  1  2  1  0
  2  3  1  0
  3  4  1  0
  4  5  1  0
  5  8  1  0
  8  9  2  0
  8 10  2  0
  8 11  1  0
 11 12  2  0
 12 13  1  0
 13 14  2  0
 14 15  1  0
 15 16  1  0
 15 17  2  0
  5  6  1  0
  6  7  1  0
 25 26  2  0
 26 27  1  0
 26 21  1  0
  7  2  1  0
 17 11  1  0
 27 28  1  0
M  CHG 1  20  -1
M  CHG 1  29  -1
M  END
> <UniqueID>
72

> <SMILES>
CC(=O)[N-]c1cccc([N-]C(=O)CN2CCN(S(=O)(=O)c3cccc(F)c3)CC2)c1O

> <Energy>
73.84056779770623

> <Genealogy>
CC(=O)[N-]c1cccc([N-]C(=O)CN2CCN(S(=O)(=O)c3cccc(F)c3)CC2)c1O (protonated)
CC(=O)[N-]c1cccc([N-]C(=O)CN2CCN(S(=O)(=O)c3cccc(F)c3)CC2)c1O (3D coordinates assigned)
CC(=O)[N-]c1cccc([N-]C(=O)CN2CCN(S(=O)(=O)c3cccc(F)c3)CC2)c1O (nonaromatic ring conformer: 73.84056779770623 kcal/mol)

> <smiles>
CC(=O)Nc1cccc(NC(=O)CN2CCN(S(=O)(=O)c3cccc(F)c3)CC2)c1O

> <score_type>
oracle

> <origin>
adg

> <m_score__min__energy>
-14.119999999999999

> <m_primary>
energy

> <minimizedAffinity>
-7.99502

> <minimizedRMSD>
1.59684

> <CNNscore>
0.6517735720

> <CNNaffinity>
6.9258313179

> <CNN_VS>
4.5140738487

> <CNNaffinity_variance>
0.1227746084

$$$$
78:0


 34 37  0  0  0  0  0  0  0  0999 V2000
   61.2012   29.3980   49.8512 C   0  0  0  0  0  0  0  0  0  0  0  0
   60.7882   30.4880   49.1830 C   0  0  0  0  0  0  0  0  0  0  0  0
   60.5456   30.5843   47.8018 C   0  0  0  0  0  0  0  0  0  0  0  0
   60.5038   29.6412   46.8379 C   0  0  0  0  0  0  0  0  0  0  0  0
   60.2932   31.9198   47.5439 C   0  0  0  0  0  0  0  0  0  0  0  0
   60.3294   32.5757   48.7542 C   0  0  0  0  0  0  0  0  0  0  0  0
   60.0841   34.0445   48.9273 C   0  0  0  0  0  0  0  0  0  0  0  0
   60.6351   31.7159   49.7550 N   0  0  0  0  0  0  0  0  0  0  0  0
   59.4388   28.6336   46.6711 C   0  0  0  0  0  0  0  0  0  0  0  0
   58.2646   28.9534   45.9789 C   0  0  0  0  0  0  0  0  0  0  0  0
   58.0998   30.2102   45.4065 O   0  0  0  0  0  0  0  0  0  0  0  0
   57.2794   28.0276   45.8535 N   0  0  0  0  0  0  0  0  0  0  0  0
   57.4054   26.7898   46.3990 C   0  0  0  0  0  0  0  0  0  0  0  0
   56.4818   25.9481   46.2651 O   0  0  0  0  0  0  0  0  0  0  0  0
   58.5243   26.4651   47.0953 N   0  0  0  0  0  0  0  0  0  0  0  0
   59.5340   27.3572   47.2551 C   0  0  0  0  0  0  0  0  0  0  0  0
   60.5484   27.0290   47.9257 O   0  0  0  0  0  0  0  0  0  0  0  0
   60.7507   32.0836   51.1759 C   0  0  0  0  0  0  0  0  0  0  0  0
   59.5141   31.6736   51.9323 C   0  0  0  0  0  0  0  0  0  0  0  0
   58.2933   32.3323   51.7140 C   0  0  0  0  0  0  0  0  0  0  0  0
   57.1510   31.9595   52.4290 C   0  0  0  0  0  0  0  0  0  0  0  0
   57.2047   30.9229   53.3673 C   0  0  0  0  0  0  0  0  0  0  0  0
   58.4208   30.2461   53.5718 C   0  0  0  0  0  0  0  0  0  0  0  0
   59.5651   30.6213   52.8632 C   0  0  0  0  0  0  0  0  0  0  0  0
   56.0283   30.5990   54.0601 O   0  0  0  0  0  0  0  0  0  0  0  0
   54.8371   29.5058   53.5008 S   0  0  0  0  0  0  0  0  0  0  0  0
   54.6027   28.4545   54.5506 O   0  0  0  0  0  0  0  0  0  0  0  0
   55.3243   28.8440   52.2436 O   0  0  0  0  0  0  0  0  0  0  0  0
   53.3423   30.3708   53.1575 C   0  0  0  0  0  0  0  0  0  0  0  0
   53.0988   30.8932   51.8778 C   0  0  0  0  0  0  0  0  0  0  0  0
   51.9069   31.5765   51.6140 C   0  0  0  0  0  0  0  0  0  0  0  0
   50.9505   31.7312   52.6200 C   0  0  0  0  0  0  0  0  0  0  0  0
   51.1911   31.2134   53.8959 C   0  0  0  0  0  0  0  0  0  0  0  0
   52.3874   30.5400   54.1690 C   0  0  0  0  0  0  0  0  0  0  0  0
  1  2  2  0
  2  3  1  0
  3  4  2  0
  4  9  1  0
  9 10  2  0
 10 11  1  0
 10 12  1  0
 12 13  1  0
 13 14  2  0
 13 15  1  0
 15 16  1  0
 16 17  2  0
  3  5  1  0
  5  6  2  0
  6  7  1  0
  6  8  1  0
  8 18  1  0
 18 19  1  0
 19 20  2  0
 20 21  1  0
 21 22  2  0
 22 25  1  0
 25 26  1  0
 26 27  2  0
 26 28  2  0
 26 29  1  0
 29 30  2  0
 30 31  1  0
 31 32  2  0
 32 33  1  0
 33 34  2  0
 22 23  1  0
 23 24  2  0
  8  2  1  0
 24 19  1  0
 16  9  1  0
 34 29  1  0
M  CHG 1  11  -1
M  CHG 1  12  -1
M  CHG 1  15  -1
M  END
> <UniqueID>
74

> <SMILES>
C=c1c(=Cc2c([O-])[n-]c(=O)[n-]c2=O)cc(C)n1Cc1ccc(OS(=O)(=O)c2ccccc2)cc1

> <Energy>
99.19546633187625

> <Genealogy>
C=c1c(=Cc2c([O-])[n-]c(=O)[n-]c2=O)cc(C)n1Cc1ccc(OS(=O)(=O)c2ccccc2)cc1 (protonated)
C=c1c(=Cc2c([O-])[n-]c(=O)[n-]c2=O)cc(C)n1Cc1ccc(OS(=O)(=O)c2ccccc2)cc1 (3D coordinates assigned)
C=c1c(=Cc2c([O-])[n-]c(=O)[n-]c2=O)cc(C)n1Cc1ccc(OS(=O)(=O)c2ccccc2)cc1 (optimized conformer: 99.19546633187625 kcal/mol)

> <smiles>
C=c1c(=Cc2c(O)[nH]c(=O)[nH]c2=O)cc(C)n1Cc1ccc(OS(=O)(=O)c2ccccc2)cc1

> <score_type>
oracle

> <origin>
adg

> <m_score__min__energy>
-17.109999999999999

> <m_primary>
energy

> <minimizedAffinity>
-8.09509

> <minimizedRMSD>
2.06116

> <CNNscore>
0.4602734149

> <CNNaffinity>
6.8666024208

> <CNN_VS>
3.1605145931

> <CNNaffinity_variance>
0.0531003661

$$$$
14:0


 30 32  0  0  0  0  0  0  0  0999 V2000
   59.4007   27.7270   47.0477 C   0  0  0  0  0  0  0  0  0  0  0  0
   59.0403   26.3871   47.2667 C   0  0  0  0  0  0  0  0  0  0  0  0
   57.8219   25.8992   46.7933 C   0  0  0  0  0  0  0  0  0  0  0  0
   56.9604   26.7337   46.0766 C   0  0  0  0  0  0  0  0  0  0  0  0
   55.7461   26.2346   45.6194 O   0  0  0  0  0  0  0  0  0  0  0  0
   57.3210   28.0626   45.8132 C   0  0  0  0  0  0  0  0  0  0  0  0
   58.5386   28.5590   46.3137 C   0  0  0  0  0  0  0  0  0  0  0  0
   60.7097   28.2633   47.5909 C   0  0  0  0  0  0  0  0  0  0  0  0
   60.5545   29.2824   48.6592 N   0  0  0  0  0  0  0  0  0  0  0  0
   60.4102   28.6747   49.9909 C   0  0  0  0  0  0  0  0  0  0  0  0
   61.6190   30.3124   48.6629 C   0  0  0  0  0  0  0  0  0  0  0  0
   59.8171   33.7146   48.4055 C   0  0  0  0  0  0  0  0  0  0  0  0
   60.0680   34.2249   49.6907 C   0  0  0  0  0  0  0  0  0  0  0  0
   60.8411   33.5021   50.5948 C   0  0  0  0  0  0  0  0  0  0  0  0
   61.3476   32.2524   50.2432 C   0  0  0  0  0  0  0  0  0  0  0  0
   61.0687   31.6911   48.9829 C   0  0  0  0  0  0  0  0  0  0  0  0
   60.3377   32.4617   48.0393 C   0  0  0  0  0  0  0  0  0  0  0  0
   60.1159   32.0319   46.7265 O   0  0  0  0  0  0  0  0  0  0  0  0
   60.4467   31.2023   46.4429 H   0  0  0  0  0  0  0  0  0  0  0  0
   59.6181   35.2849   46.4653 C   0  0  0  0  0  0  0  0  0  0  0  0
   59.0639   34.4264   47.4573 O   0  0  0  0  0  0  0  0  0  0  0  0
   56.4044   28.8986   45.0894 N   0  0  0  0  0  0  0  0  0  0  0  0
   56.7280   29.7951   44.0178 C   0  0  0  0  0  0  0  0  0  0  0  0
   56.5025   29.4742   42.8215 O   0  0  0  0  0  0  0  0  0  0  0  0
   57.2778   31.1250   44.3168 C   0  0  0  0  0  0  0  0  0  0  0  0
   57.3556   31.6654   45.5464 N   0  0  0  0  0  0  0  0  0  0  0  0
   57.8955   32.8431   45.3830 O   0  0  0  0  0  0  0  0  0  0  0  0
   58.1825   33.1272   44.1424 N   0  0  0  0  0  0  0  0  0  0  0  0
   57.7976   32.0490   43.4465 C   0  0  0  0  0  0  0  0  0  0  0  0
   57.9075   31.9324   42.1974 O   0  0  0  0  0  0  0  0  0  0  0  0
 20 21  1  0
 21 12  1  0
 12 13  2  0
 13 14  1  0
 14 15  2  0
 15 16  1  0
 16 11  1  0
 11  9  1  0
  9 10  1  0
  9  8  1  0
  8  1  1  0
  1  2  2  0
  2  3  1  0
  3  4  2  0
  4  5  1  0
  4  6  1  0
  6 22  1  0
 22 23  1  0
 23 24  2  0
 23 25  1  0
 25 26  2  0
 26 27  1  0
 27 28  1  0
 28 29  1  0
 29 30  2  0
  6  7  2  0
 16 17  2  0
 17 18  1  0
 17 12  1  0
  7  1  1  0
 29 25  1  0
 18 19  1  0
M  CHG 1   5  -1
M  CHG 1  22  -1
M  CHG 1  28  -1
M  END
> <UniqueID>
15

> <SMILES>
COc1cccc(CN(C)Cc2ccc([O-])c([N-]C(=O)c3no[n-]c3=O)c2)c1O

> <Energy>
94.13624623797557

> <Genealogy>
COc1cccc(CN(C)Cc2ccc([O-])c([N-]C(=O)c3no[n-]c3=O)c2)c1O (protonated)
COc1cccc(CN(C)Cc2ccc([O-])c([N-]C(=O)c3no[n-]c3=O)c2)c1O (3D coordinates assigned)
COc1cccc(CN(C)Cc2ccc([O-])c([N-]C(=O)c3no[n-]c3=O)c2)c1O (optimized conformer: 94.13624623797557 kcal/mol)

> <smiles>
COc1cccc(CN(C)Cc2ccc(O)c(NC(=O)c3no[nH]c3=O)c2)c1O

> <score_type>
oracle

> <origin>
adg

> <m_score__min__energy>
-14.27

> <m_primary>
energy

> <minimizedAffinity>
-5.68074

> <minimizedRMSD>
0.82852

> <CNNscore>
0.1688190848

> <CNNaffinity>
5.7828426361

> <CNN_VS>
0.9762542248

> <CNNaffinity_variance>
0.0934399143

$$$$
18:0


 29 31  0  0  0  0  0  0  0  0999 V2000
   59.3160   33.0472   46.0226 C   0  0  0  0  0  0  0  0  0  0  0  0
   59.4372   31.7644   46.5854 C   0  0  0  0  0  0  0  0  0  0  0  0
   58.7165   30.6884   46.0613 C   0  0  0  0  0  0  0  0  0  0  0  0
   57.8838   30.8725   44.9499 C   0  0  0  0  0  0  0  0  0  0  0  0
   57.7969   32.1360   44.3529 C   0  0  0  0  0  0  0  0  0  0  0  0
   58.5019   33.2174   44.8891 C   0  0  0  0  0  0  0  0  0  0  0  0
   56.9489   29.5291   44.2963 S   0  0  0  0  0  0  0  0  0  0  0  0
   55.6193   29.4827   44.9948 O   0  0  0  0  0  0  0  0  0  0  0  0
   56.7129   29.7251   42.8245 O   0  0  0  0  0  0  0  0  0  0  0  0
   57.7762   28.0192   44.5470 N   0  0  0  0  0  0  0  0  0  0  0  0
   57.4670   27.4490   45.8595 C   0  0  0  0  0  0  0  0  0  0  0  0
   57.4486   25.9426   45.7905 C   0  0  0  0  0  0  0  0  0  0  0  0
   58.6444   25.2282   45.5964 C   0  0  0  0  0  0  0  0  0  0  0  0
   58.6328   23.8310   45.5512 C   0  0  0  0  0  0  0  0  0  0  0  0
   57.4314   23.1350   45.6922 C   0  0  0  0  0  0  0  0  0  0  0  0
   56.2357   23.8331   45.8691 C   0  0  0  0  0  0  0  0  0  0  0  0
   56.2370   25.2324   45.9140 C   0  0  0  0  0  0  0  0  0  0  0  0
   55.0333   25.9078   46.0829 O   0  0  0  0  0  0  0  0  0  0  0  0
   59.5335   35.3387   46.5831 O   0  0  0  0  0  0  0  0  0  0  0  0
   60.0714   34.2004   46.5765 C   0  0  0  0  0  0  0  0  0  0  0  0
   61.4244   34.0829   47.0447 N   0  0  0  0  0  0  0  0  0  0  0  0
   61.8217   33.4609   48.1180 C   0  0  0  0  0  0  0  0  0  0  0  0
   62.8591   32.5758   48.0697 N   0  0  0  0  0  0  0  0  0  0  0  0
   63.2915   31.9060   49.1703 C   0  0  0  0  0  0  0  0  0  0  0  0
   62.6614   32.1055   50.3989 C   0  0  0  0  0  0  0  0  0  0  0  0
   61.5896   32.9926   50.4811 C   0  0  0  0  0  0  0  0  0  0  0  0
   61.1568   33.6776   49.3412 C   0  0  0  0  0  0  0  0  0  0  0  0
   60.0800   34.5599   49.4468 O   0  0  0  0  0  0  0  0  0  0  0  0
   59.6561   34.6850   50.2729 H   0  0  0  0  0  0  0  0  0  0  0  0
 19 20  2  0
 20 21  1  0
 21 22  2  0
 22 23  1  0
 23 24  1  0
 24 25  2  0
 25 26  1  0
 26 27  2  0
 27 28  1  0
 20  1  1  0
  1  2  2  0
  2  3  1  0
  3  4  2  0
  4  7  1  0
  7  8  2  0
  7  9  2  0
  7 10  1  0
 10 11  1  0
 11 12  1  0
 12 13  2  0
 13 14  1  0
 14 15  2  0
 15 16  1  0
 16 17  2  0
 17 18  1  0
  4  5  1  0
  5  6  2  0
 27 22  1  0
  6  1  1  0
 17 12  1  0
 28 29  1  0
M  CHG 1  10  -1
M  CHG 1  18  -1
M  CHG 1  23  -1
M  END
> <UniqueID>
19

> <SMILES>
O=C(N=c1[n-]cccc1O)c1ccc(S(=O)(=O)[N-]Cc2ccccc2[O-])cc1

> <Energy>
50.081753896882525

> <Genealogy>
O=C(N=c1[n-]cccc1O)c1ccc(S(=O)(=O)[N-]Cc2ccccc2[O-])cc1 (protonated)
O=C(N=c1[n-]cccc1O)c1ccc(S(=O)(=O)[N-]Cc2ccccc2[O-])cc1 (3D coordinates assigned)
O=C(N=c1[n-]cccc1O)c1ccc(S(=O)(=O)[N-]Cc2ccccc2[O-])cc1 (optimized conformer: 50.081753896882525 kcal/mol)

> <smiles>
O=C(N=c1[nH]cccc1O)c1ccc(S(=O)(=O)NCc2ccccc2O)cc1

> <score_type>
oracle

> <origin>
adg

> <m_score__min__energy>
-15.19

> <m_primary>
energy

> <minimizedAffinity>
-8.18176

> <minimizedRMSD>
0.95608

> <CNNscore>
0.3138327301

> <CNNaffinity>
6.3033022881

> <CNN_VS>
1.9781825542

> <CNNaffinity_variance>
0.0723586679

$$$$
22:0


 35 38  0  0  0  0  0  0  0  0999 V2000
   57.4596   29.8494   45.1804 C   0  0  0  0  0  0  0  0  0  0  0  0
   56.3455   29.7666   44.5953 O   0  0  0  0  0  0  0  0  0  0  0  0
   58.0384   31.1890   45.4532 C   0  0  0  0  0  0  0  0  0  0  0  0
   57.9872   32.1988   44.4825 C   0  0  0  0  0  0  0  0  0  0  0  0
   58.5077   33.4649   44.7516 C   0  0  0  0  0  0  0  0  0  0  0  0
   59.0901   33.7517   45.9964 C   0  0  0  0  0  0  0  0  0  0  0  0
   59.6034   35.1447   46.2524 C   0  0  0  0  0  0  0  0  0  0  0  0
   59.1219   32.7463   46.9933 C   0  0  0  0  0  0  0  0  0  0  0  0
   58.5948   31.4755   46.7095 C   0  0  0  0  0  0  0  0  0  0  0  0
   59.7973   33.0539   48.6034 S   0  0  0  0  0  0  0  0  0  0  0  0
   59.2128   34.3184   49.1781 O   0  0  0  0  0  0  0  0  0  0  0  0
   59.4399   31.9089   49.5102 O   0  0  0  0  0  0  0  0  0  0  0  0
   61.5326   33.2117   48.4930 N   0  0  0  0  0  0  0  0  0  0  0  0
   62.1363   33.0762   49.8277 C   0  0  0  0  0  0  0  0  0  0  0  0
   63.6742   33.1294   49.7266 C   0  0  0  0  0  0  0  0  0  0  0  0
   64.1112   33.2803   48.3884 O   0  0  0  0  0  0  0  0  0  0  0  0
   63.6166   32.2152   47.6002 C   0  0  0  0  0  0  0  0  0  0  0  0
   62.0743   32.1869   47.5873 C   0  0  0  0  0  0  0  0  0  0  0  0
   57.0153   25.3862   46.7761 C   0  0  0  0  0  0  0  0  0  0  0  0
   55.9818   26.0081   46.1673 N   0  0  0  0  0  0  0  0  0  0  0  0
   56.3031   27.2068   45.6855 N   0  0  0  0  0  0  0  0  0  0  0  0
   57.5953   27.5358   45.9142 C   0  0  0  0  0  0  0  0  0  0  0  0
   58.1536   28.6360   45.5057 N   0  0  0  0  0  0  0  0  0  0  0  0
   58.4182   26.3204   46.7363 S   0  0  0  0  0  0  0  0  0  0  0  0
   56.8971   23.7884   47.4901 S   0  0  0  0  0  0  0  0  0  0  0  0
   57.3883   23.8555   48.9089 O   0  0  0  0  0  0  0  0  0  0  0  0
   57.7627   22.8250   46.7274 O   0  0  0  0  0  0  0  0  0  0  0  0
   55.2423   23.2549   47.4916 N   0  0  0  0  0  0  0  0  0  0  0  0
   55.1312   21.9588   46.8300 C   0  0  0  0  0  0  0  0  0  0  0  0
   56.4650   22.2710   42.7484 C   0  0  0  0  0  0  0  0  0  0  0  0
   56.8475   21.1745   43.5275 C   0  0  0  0  0  0  0  0  0  0  0  0
   56.4257   21.0760   44.8568 C   0  0  0  0  0  0  0  0  0  0  0  0
   55.6231   22.0833   45.4195 C   0  0  0  0  0  0  0  0  0  0  0  0
   55.2302   23.1731   44.6242 C   0  0  0  0  0  0  0  0  0  0  0  0
   55.6546   23.2685   43.2966 C   0  0  0  0  0  0  0  0  0  0  0  0
 30 31  2  0
 31 32  1  0
 32 33  2  0
 33 29  1  0
 29 28  1  0
 28 25  1  0
 25 26  2  0
 25 27  2  0
 25 19  1  0
 19 20  2  0
 20 21  1  0
 21 22  1  0
 22 23  2  0
 23  1  1  0
  1  2  2  0
  1  3  1  0
  3  4  2  0
  4  5  1  0
  5  6  2  0
  6  7  1  0
  6  8  1  0
  8 10  1  0
 10 11  2  0
 10 12  2  0
 10 13  1  0
 13 14  1  0
 14 15  1  0
 15 16  1  0
 16 17  1  0
 17 18  1  0
  8  9  2  0
 22 24  1  0
 33 34  1  0
 34 35  2  0
 35 30  1  0
 24 19  1  0
  9  3  1  0
 18 13  1  0
M  CHG 1  21  -1
M  CHG 1  28  -1
M  END
> <UniqueID>
23

> <SMILES>
Cc1ccc(C(=O)/N=c2\[n-]nc(S(=O)(=O)[N-]Cc3ccccc3)s2)cc1S(=O)(=O)N1CCOCC1

> <Energy>
107.1808267247641

> <Genealogy>
Cc1ccc(C(=O)N=c2[n-]nc(S(=O)(=O)[N-]Cc3ccccc3)s2)cc1S(=O)(=O)N1CCOCC1 (protonated)
Cc1ccc(C(=O)/N=c2\[n-]nc(S(=O)(=O)[N-]Cc3ccccc3)s2)cc1S(=O)(=O)N1CCOCC1 (cis-trans isomerization)
Cc1ccc(C(=O)/N=c2\[n-]nc(S(=O)(=O)[N-]Cc3ccccc3)s2)cc1S(=O)(=O)N1CCOCC1 (3D coordinates assigned)
Cc1ccc(C(=O)/N=c2\[n-]nc(S(=O)(=O)[N-]Cc3ccccc3)s2)cc1S(=O)(=O)N1CCOCC1 (nonaromatic ring conformer: 107.1808267247641 kcal/mol)

> <smiles>
Cc1ccc(C(=O)N=c2[nH]nc(S(=O)(=O)NCc3ccccc3)s2)cc1S(=O)(=O)N1CCOCC1

> <score_type>
oracle

> <origin>
adg

> <m_score__min__energy>
-14.44

> <m_primary>
energy

> <minimizedAffinity>
-7.66375

> <minimizedRMSD>
1.00081

> <CNNscore>
0.7080891132

> <CNNaffinity>
7.1951365471

> <CNN_VS>
5.0947980881

> <CNNaffinity_variance>
0.0672637448

$$$$
23:0


 30 32  0  0  0  0  0  0  0  0999 V2000
   58.0698   25.8812   45.1597 C   0  0  0  0  0  0  0  0  0  0  0  0
   58.1991   26.1296   43.7826 C   0  0  0  0  0  0  0  0  0  0  0  0
   58.1056   27.4325   43.2876 C   0  0  0  0  0  0  0  0  0  0  0  0
   57.8920   28.5007   44.1603 C   0  0  0  0  0  0  0  0  0  0  0  0
   57.7890   28.2807   45.5383 C   0  0  0  0  0  0  0  0  0  0  0  0
   57.8601   26.9669   46.0343 C   0  0  0  0  0  0  0  0  0  0  0  0
   58.1504   24.4965   45.6836 C   0  0  0  0  0  0  0  0  0  0  0  0
   59.1135   24.1575   46.4236 O   0  0  0  0  0  0  0  0  0  0  0  0
   56.3006   22.0875   42.3169 C   0  0  0  0  0  0  0  0  0  0  0  0
   61.0042   30.7035   49.7897 N   0  0  0  0  0  0  0  0  0  0  0  0
   61.1254   29.4817   50.3794 C   0  0  0  0  0  0  0  0  0  0  0  0
   62.0509   29.2555   51.2641 N   0  0  0  0  0  0  0  0  0  0  0  0
   60.2463   28.4536   50.0258 C   0  0  0  0  0  0  0  0  0  0  0  0
   54.4754   24.3580   45.2920 O   0  0  0  0  0  0  0  0  0  0  0  0
   59.2616   28.6912   49.0664 C   0  0  0  0  0  0  0  0  0  0  0  0
   55.0096   22.5740   42.1249 C   0  0  0  0  0  0  0  0  0  0  0  0
   57.5325   29.4062   46.3917 N   0  0  0  0  0  0  0  0  0  0  0  0
   58.0137   30.7477   46.2236 C   0  0  0  0  0  0  0  0  0  0  0  0
   57.4794   31.5121   45.3733 O   0  0  0  0  0  0  0  0  0  0  0  0
   59.1095   31.2526   47.0828 C   0  0  0  0  0  0  0  0  0  0  0  0
   59.9314   32.3090   46.6580 C   0  0  0  0  0  0  0  0  0  0  0  0
   57.4070   22.1609   48.2839 N   0  0  0  0  0  0  0  0  0  0  0  0
   56.8613   23.3738   48.5800 C   0  0  0  0  0  0  0  0  0  0  0  0
   57.6350   24.2615   49.1463 N   0  0  0  0  0  0  0  0  0  0  0  0
   55.4879   23.5888   48.2919 C   0  0  0  0  0  0  0  0  0  0  0  0
   54.7610   22.5790   47.6550 C   0  0  0  0  0  0  0  0  0  0  0  0
   63.3250   31.8237   49.8142 C   0  0  0  0  0  0  0  0  0  0  0  0
   63.9360   32.2252   48.4725 C   0  0  0  0  0  0  0  0  0  0  0  0
   62.9165   32.4900   47.5267 O   0  0  0  0  0  0  0  0  0  0  0  0
   63.2005   33.6749   46.8148 C   0  0  0  0  0  0  0  0  0  0  0  0
  9 10  1  0
 10 11  1  0
 11 12  2  0
 12  7  1  0
  7  8  2  0
  7  1  1  0
  1  2  2  0
  2  3  1  0
  3  4  2  0
  4  5  1  0
  5 17  1  0
 17 18  1  0
 18 19  2  0
 18 20  1  0
 20 21  2  0
 21 22  1  0
 22 23  1  0
 23 24  2  0
 24 27  1  0
 27 28  1  0
 28 29  1  0
 29 30  1  0
 23 25  1  0
 25 26  2  0
  5  6  2  0
 11 13  1  0
 13 14  1  0
 13 15  2  0
 15 16  1  0
 16  9  2  0
  6  1  1  0
 26 20  1  0
M  CHG 1  10  -1
M  CHG 1  14  -1
M  CHG 1  17  -1
M  CHG 1  22  -1
M  END
> <UniqueID>
24

> <SMILES>
COCC/N=c1/ccc(C(=O)[N-]c2cccc(C(=O)/N=c3/[n-]cccc3[O-])c2)c[n-]1

> <Energy>
67.52921389573426

> <Genealogy>
COCCN=c1ccc(C(=O)[N-]c2cccc(C(=O)N=c3[n-]cccc3[O-])c2)c[n-]1 (protonated)
COCC/N=c1/ccc(C(=O)[N-]c2cccc(C(=O)/N=c3/[n-]cccc3[O-])c2)c[n-]1 (cis-trans isomerization)
COCC/N=c1/ccc(C(=O)[N-]c2cccc(C(=O)/N=c3/[n-]cccc3[O-])c2)c[n-]1 (3D coordinates assigned)
COCC/N=c1/ccc(C(=O)[N-]c2cccc(C(=O)/N=c3/[n-]cccc3[O-])c2)c[n-]1 (optimized conformer: 67.52921389573426 kcal/mol)

> <smiles>
COCCN=c1ccc(C(=O)Nc2cccc(C(=O)N=c3[nH]cccc3O)c2)c[nH]1

> <score_type>
oracle

> <origin>
adg

> <m_score__min__energy>
-15.33

> <m_primary>
energy

> <minimizedAffinity>
0.80496

> <minimizedRMSD>
3.06368

> <CNNscore>
0.2506003678

> <CNNaffinity>
5.7218766212

> <CNN_VS>
1.4339044094

> <CNNaffinity_variance>
0.1620168537

$$$$
44:0


 27 29  0  0  0  0  0  0  0  0999 V2000
   58.9790   27.6856   45.7956 N   0  0  0  0  0  0  0  0  0  0  0  0
   59.6660   26.6525   46.3725 C   0  0  0  0  0  0  0  0  0  0  0  0
   58.9935   25.5323   46.8621 C   0  0  0  0  0  0  0  0  0  0  0  0
   57.5951   25.4722   46.7868 C   0  0  0  0  0  0  0  0  0  0  0  0
   56.9044   26.5306   46.1897 C   0  0  0  0  0  0  0  0  0  0  0  0
   55.5168   26.4862   46.0834 O   0  0  0  0  0  0  0  0  0  0  0  0
   57.6098   27.6414   45.7059 C   0  0  0  0  0  0  0  0  0  0  0  0
   56.9694   28.5998   45.1921 O   0  0  0  0  0  0  0  0  0  0  0  0
   59.7345   28.8556   45.3116 C   0  0  0  0  0  0  0  0  0  0  0  0
   60.7809   29.7630   47.2721 O   0  0  0  0  0  0  0  0  0  0  0  0
   59.8883   29.8944   46.3937 C   0  0  0  0  0  0  0  0  0  0  0  0
   59.0033   31.0163   46.4761 N   0  0  0  0  0  0  0  0  0  0  0  0
   59.3840   32.3848   46.1483 C   0  0  0  0  0  0  0  0  0  0  0  0
   60.2237   32.9481   47.2578 C   0  0  0  0  0  0  0  0  0  0  0  0
   61.6065   33.1219   47.0777 C   0  0  0  0  0  0  0  0  0  0  0  0
   62.3958   33.6176   48.1194 C   0  0  0  0  0  0  0  0  0  0  0  0
   61.8126   33.9338   49.3507 C   0  0  0  0  0  0  0  0  0  0  0  0
   60.4400   33.7510   49.5415 C   0  0  0  0  0  0  0  0  0  0  0  0
   59.6472   33.2543   48.5019 C   0  0  0  0  0  0  0  0  0  0  0  0
   56.8574   24.3321   47.2517 N   0  0  0  0  0  0  0  0  0  0  0  0
   56.9894   22.9816   46.7914 C   0  0  0  0  0  0  0  0  0  0  0  0
   57.2048   22.0428   47.6062 O   0  0  0  0  0  0  0  0  0  0  0  0
   56.8197   22.6805   45.3646 C   0  0  0  0  0  0  0  0  0  0  0  0
   57.5235   21.7255   44.6393 C   0  0  0  0  0  0  0  0  0  0  0  0
   57.1445   21.6644   43.2923 C   0  0  0  0  0  0  0  0  0  0  0  0
   56.1465   22.5688   42.9531 C   0  0  0  0  0  0  0  0  0  0  0  0
   55.7357   23.4448   44.3286 S   0  0  0  0  0  0  0  0  0  0  0  0
 10 11  2  0
 11  9  1  0
  9  1  1  0
  1  2  1  0
  2  3  2  0
  3  4  1  0
  4 20  1  0
 20 21  1  0
 21 22  2  0
 21 23  1  0
 23 24  2  0
 24 25  1  0
 25 26  2  0
 26 27  1  0
  4  5  2  0
  5  6  1  0
  5  7  1  0
  7  8  2  0
 11 12  1  0
 12 13  1  0
 13 14  1  0
 14 15  2  0
 15 16  1  0
 16 17  2  0
 17 18  1  0
 18 19  2  0
  7  1  1  0
 19 14  1  0
 27 23  1  0
M  CHG 1   6  -1
M  CHG 1  12  -1
M  CHG 1  20  -1
M  END
> <UniqueID>
40

> <SMILES>
O=C(Cn1ccc([N-]C(=O)c2cccs2)c([O-])c1=O)[N-]Cc1ccccc1

> <Energy>
72.77908898700663

> <Genealogy>
O=C(Cn1ccc([N-]C(=O)c2cccs2)c([O-])c1=O)[N-]Cc1ccccc1 (protonated)
O=C(Cn1ccc([N-]C(=O)c2cccs2)c([O-])c1=O)[N-]Cc1ccccc1 (3D coordinates assigned)
O=C(Cn1ccc([N-]C(=O)c2cccs2)c([O-])c1=O)[N-]Cc1ccccc1 (optimized conformer: 72.77908898700663 kcal/mol)

> <smiles>
O=C(Cn1ccc(NC(=O)c2cccs2)c(O)c1=O)NCc1ccccc1

> <score_type>
oracle

> <origin>
adg

> <m_score__min__energy>
-15.51

> <m_primary>
energy

> <minimizedAffinity>
-6.74569

> <minimizedRMSD>
1.87422

> <CNNscore>
0.4295809567

> <CNNaffinity>
6.4199013710

> <CNN_VS>
2.7578673363

> <CNNaffinity_variance>
0.1560862660

$$$$
47:0


 31 34  0  0  0  0  0  0  0  0999 V2000
   58.6129   30.7933   45.1575 C   0  0  0  0  0  0  0  0  0  0  0  0
   58.1631   31.4139   43.9852 C   0  0  0  0  0  0  0  0  0  0  0  0
   58.0872   32.8052   43.9106 C   0  0  0  0  0  0  0  0  0  0  0  0
   58.4570   33.5879   45.0083 C   0  0  0  0  0  0  0  0  0  0  0  0
   58.8998   32.9832   46.1972 C   0  0  0  0  0  0  0  0  0  0  0  0
   58.9873   31.5802   46.2575 C   0  0  0  0  0  0  0  0  0  0  0  0
   59.3012   33.8062   47.3634 C   0  0  0  0  0  0  0  0  0  0  0  0
   58.7371   34.9162   47.5621 O   0  0  0  0  0  0  0  0  0  0  0  0
   60.3182   33.3572   48.2779 N   0  0  0  0  0  0  0  0  0  0  0  0
   61.7258   33.3290   47.8690 C   0  0  0  0  0  0  0  0  0  0  0  0
   62.2536   31.9251   47.9336 C   0  0  0  0  0  0  0  0  0  0  0  0
   63.3076   31.6263   47.3106 O   0  0  0  0  0  0  0  0  0  0  0  0
   61.6108   30.9429   48.7565 N   0  0  0  0  0  0  0  0  0  0  0  0
   60.2607   31.1375   49.2876 C   0  0  0  0  0  0  0  0  0  0  0  0
   59.9557   32.6228   49.4933 C   0  0  0  0  0  0  0  0  0  0  0  0
   62.0924   30.1116   48.9712 H   0  0  0  0  0  0  0  0  0  0  0  0
   56.5573   28.7889   44.3684 C   0  0  0  0  0  0  0  0  0  0  0  0
   57.7482   28.4565   44.8923 C   0  0  0  0  0  0  0  0  0  0  0  0
   58.2188   27.1576   45.1328 C   0  0  0  0  0  0  0  0  0  0  0  0
   57.5453   26.0037   44.9353 C   0  0  0  0  0  0  0  0  0  0  0  0
   59.5072   27.3038   45.6346 C   0  0  0  0  0  0  0  0  0  0  0  0
   59.7642   28.6590   45.6869 C   0  0  0  0  0  0  0  0  0  0  0  0
   61.0502   29.2620   46.1687 C   0  0  0  0  0  0  0  0  0  0  0  0
   58.7037   29.3600   45.2300 N   0  0  0  0  0  0  0  0  0  0  0  0
   57.0397   25.1084   46.0008 C   0  0  0  0  0  0  0  0  0  0  0  0
   57.7699   24.2199   46.6980 N   0  0  0  0  0  0  0  0  0  0  0  0
   56.8611   23.6254   47.5015 C   0  0  0  0  0  0  0  0  0  0  0  0
   57.1720   22.7240   48.3221 O   0  0  0  0  0  0  0  0  0  0  0  0
   55.5966   24.0718   47.3535 N   0  0  0  0  0  0  0  0  0  0  0  0
   55.7272   25.0066   46.3989 C   0  0  0  0  0  0  0  0  0  0  0  0
   54.6662   25.7537   45.9020 O   0  0  0  0  0  0  0  0  0  0  0  0
 17 18  2  0
 18 19  1  0
 19 20  2  0
 20 25  1  0
 25 26  1  0
 26 27  1  0
 27 28  2  0
 27 29  1  0
 29 30  1  0
 30 31  1  0
 19 21  1  0
 21 22  2  0
 22 23  1  0
 22 24  1  0
 24  1  1  0
  1  2  2  0
  2  3  1  0
  3  4  2  0
  4  5  1  0
  5  7  1  0
  7  8  2  0
  7  9  1  0
  9 10  1  0
 10 11  1  0
 11 12  2  0
 11 13  1  0
 13 14  1  0
 14 15  1  0
  5  6  2  0
 24 18  1  0
  6  1  1  0
 30 25  2  0
 15  9  1  0
 13 16  1  0
M  CHG 1  26  -1
M  CHG 1  29  -1
M  CHG 1  31  -1
M  END
> <UniqueID>
42

> <SMILES>
C=c1/c(=C/c2[n-]c(=O)[n-]c2[O-])cc(C)n1-c1cccc(C(=O)N2CCNC(=O)C2)c1

> <Energy>
124.22457473202788

> <Genealogy>
C=c1c(=Cc2[n-]c(=O)[n-]c2[O-])cc(C)n1-c1cccc(C(=O)N2CCNC(=O)C2)c1 (protonated)
C=c1/c(=C/c2[n-]c(=O)[n-]c2[O-])cc(C)n1-c1cccc(C(=O)N2CCNC(=O)C2)c1 (cis-trans isomerization)
C=c1/c(=C/c2[n-]c(=O)[n-]c2[O-])cc(C)n1-c1cccc(C(=O)N2CCNC(=O)C2)c1 (3D coordinates assigned)
C=c1/c(=C/c2[n-]c(=O)[n-]c2[O-])cc(C)n1-c1cccc(C(=O)N2CCNC(=O)C2)c1 (nonaromatic ring conformer: 124.22457473202788 kcal/mol)

> <smiles>
C=c1c(=Cc2[nH]c(=O)[nH]c2O)cc(C)n1-c1cccc(C(=O)N2CCNC(=O)C2)c1

> <score_type>
oracle

> <origin>
adg

> <m_score__min__energy>
-16.82

> <m_primary>
energy

> <minimizedAffinity>
-8.32621

> <minimizedRMSD>
0.69524

> <CNNscore>
0.1438329369

> <CNNaffinity>
6.2957992554

> <CNN_VS>
0.9055432677

> <CNNaffinity_variance>
0.2306068093

$$$$
52:0


 34 37  0  0  0  0  0  0  0  0999 V2000
   60.3037   31.9522   47.6329 C   0  0  0  0  0  0  0  0  0  0  0  0
   60.5416   33.0984   48.4068 C   0  0  0  0  0  0  0  0  0  0  0  0
   61.8458   33.4490   48.7677 C   0  0  0  0  0  0  0  0  0  0  0  0
   62.9369   32.6634   48.3640 C   0  0  0  0  0  0  0  0  0  0  0  0
   62.6944   31.5146   47.5870 C   0  0  0  0  0  0  0  0  0  0  0  0
   61.3902   31.1631   47.2281 C   0  0  0  0  0  0  0  0  0  0  0  0
   64.2642   33.0596   48.7551 N   0  0  0  0  0  0  0  0  0  0  0  0
   64.8372   33.4787   48.0730 H   0  0  0  0  0  0  0  0  0  0  0  0
   64.9238   32.8494   50.3464 S   0  0  0  0  0  0  0  0  0  0  0  0
   66.4253   32.8314   50.2768 O   0  0  0  0  0  0  0  0  0  0  0  0
   64.4961   34.0070   51.2043 O   0  0  0  0  0  0  0  0  0  0  0  0
   64.2985   31.3390   51.0680 C   0  0  0  0  0  0  0  0  0  0  0  0
   63.0394   31.6106   51.8402 C   0  0  0  0  0  0  0  0  0  0  0  0
   63.0914   32.3015   53.0631 C   0  0  0  0  0  0  0  0  0  0  0  0
   61.9203   32.5258   53.7943 C   0  0  0  0  0  0  0  0  0  0  0  0
   60.6952   32.0547   53.3167 C   0  0  0  0  0  0  0  0  0  0  0  0
   60.6377   31.3554   52.1078 C   0  0  0  0  0  0  0  0  0  0  0  0
   61.8043   31.1294   51.3721 C   0  0  0  0  0  0  0  0  0  0  0  0
   58.9000   31.5792   47.2309 C   0  0  0  0  0  0  0  0  0  0  0  0
   58.2725   30.1349   44.6341 C   0  0  0  0  0  0  0  0  0  0  0  0
   58.4962   29.5067   45.8021 C   0  0  0  0  0  0  0  0  0  0  0  0
   58.4521   28.1226   46.0052 C   0  0  0  0  0  0  0  0  0  0  0  0
   58.1431   27.1701   45.1013 C   0  0  0  0  0  0  0  0  0  0  0  0
   58.7254   27.9179   47.3481 C   0  0  0  0  0  0  0  0  0  0  0  0
   58.9395   29.1609   47.9048 C   0  0  0  0  0  0  0  0  0  0  0  0
   59.1907   29.3950   49.3641 C   0  0  0  0  0  0  0  0  0  0  0  0
   58.8009   30.1336   46.9719 N   0  0  0  0  0  0  0  0  0  0  0  0
   57.7180   25.8041   45.4550 C   0  0  0  0  0  0  0  0  0  0  0  0
   58.5530   24.7505   45.4611 N   0  0  0  0  0  0  0  0  0  0  0  0
   57.7828   23.7402   45.9196 C   0  0  0  0  0  0  0  0  0  0  0  0
   58.2147   22.5667   46.0546 O   0  0  0  0  0  0  0  0  0  0  0  0
   56.5169   24.0905   46.2294 N   0  0  0  0  0  0  0  0  0  0  0  0
   56.4931   25.4008   45.9430 C   0  0  0  0  0  0  0  0  0  0  0  0
   55.3925   26.2181   46.1675 O   0  0  0  0  0  0  0  0  0  0  0  0
 20 21  2  0
 21 22  1  0
 22 23  2  0
 23 28  1  0
 28 29  1  0
 29 30  1  0
 30 31  2  0
 30 32  1  0
 32 33  1  0
 33 34  1  0
 22 24  1  0
 24 25  2  0
 25 26  1  0
 25 27  1  0
 27 19  1  0
 19  1  1  0
  1  2  2  0
  2  3  1  0
  3  4  2  0
  4  7  1  0
  7  9  1  0
  9 10  2  0
  9 11  2  0
  9 12  1  0
 12 13  1  0
 13 14  2  0
 14 15  1  0
 15 16  2  0
 16 17  1  0
 17 18  2  0
  4  5  1  0
  5  6  2  0
 27 21  1  0
  6  1  1  0
 33 28  2  0
 18 13  1  0
  7  8  1  0
M  CHG 1  29  -1
M  CHG 1  32  -1
M  CHG 1  34  -1
M  END
> <UniqueID>
47

> <SMILES>
C=c1/c(=C/c2[n-]c(=O)[n-]c2[O-])cc(C)n1Cc1ccc(NS(=O)(=O)Cc2ccccc2)cc1

> <Energy>
120.69603111764285

> <Genealogy>
C=c1c(=Cc2[n-]c(=O)[n-]c2[O-])cc(C)n1Cc1ccc(NS(=O)(=O)Cc2ccccc2)cc1 (protonated)
C=c1/c(=C/c2[n-]c(=O)[n-]c2[O-])cc(C)n1Cc1ccc(NS(=O)(=O)Cc2ccccc2)cc1 (cis-trans isomerization)
C=c1/c(=C/c2[n-]c(=O)[n-]c2[O-])cc(C)n1Cc1ccc(NS(=O)(=O)Cc2ccccc2)cc1 (3D coordinates assigned)
C=c1/c(=C/c2[n-]c(=O)[n-]c2[O-])cc(C)n1Cc1ccc(NS(=O)(=O)Cc2ccccc2)cc1 (optimized conformer: 120.69603111764285 kcal/mol)

> <smiles>
C=c1c(=Cc2[nH]c(=O)[nH]c2O)cc(C)n1Cc1ccc(NS(=O)(=O)Cc2ccccc2)cc1

> <score_type>
oracle

> <origin>
adg

> <m_score__min__energy>
-18.539999999999999

> <m_primary>
energy

> <minimizedAffinity>
-7.98166

> <minimizedRMSD>
0.93682

> <CNNscore>
0.2268722951

> <CNNaffinity>
6.6475830078

> <CNN_VS>
1.5081523657

> <CNNaffinity_variance>
0.1651920229

$$$$
74:0


 27 29  0  0  0  0  0  0  0  0999 V2000
   59.0417   32.6425   47.3933 C   0  0  0  0  0  0  0  0  0  0  0  0
   59.3196   34.0004   47.1574 C   0  0  0  0  0  0  0  0  0  0  0  0
   59.0878   34.5647   45.9053 C   0  0  0  0  0  0  0  0  0  0  0  0
   58.6042   33.7793   44.8598 C   0  0  0  0  0  0  0  0  0  0  0  0
   58.3530   32.4129   45.0555 C   0  0  0  0  0  0  0  0  0  0  0  0
   57.8947   31.5840   43.8844 C   0  0  0  0  0  0  0  0  0  0  0  0
   58.5394   31.8460   46.3385 C   0  0  0  0  0  0  0  0  0  0  0  0
   59.2920   32.0768   48.7399 C   0  0  0  0  0  0  0  0  0  0  0  0
   58.3613   32.0692   49.5930 O   0  0  0  0  0  0  0  0  0  0  0  0
   60.5187   33.4054   51.0889 O   0  0  0  0  0  0  0  0  0  0  0  0
   61.6754   33.0810   50.3797 C   0  0  0  0  0  0  0  0  0  0  0  0
   62.8731   33.7249   50.7040 C   0  0  0  0  0  0  0  0  0  0  0  0
   64.0382   33.4369   49.9934 C   0  0  0  0  0  0  0  0  0  0  0  0
   63.9925   32.5013   48.9603 C   0  0  0  0  0  0  0  0  0  0  0  0
   62.8247   31.8739   48.6601 N   0  0  0  0  0  0  0  0  0  0  0  0
   61.6687   32.1324   49.3371 C   0  0  0  0  0  0  0  0  0  0  0  0
   60.5704   31.4931   49.0513 N   0  0  0  0  0  0  0  0  0  0  0  0
   60.5538   34.0402   51.7773 H   0  0  0  0  0  0  0  0  0  0  0  0
   58.2933   30.4858   46.5661 O   0  0  0  0  0  0  0  0  0  0  0  0
   59.2359   29.4778   46.3317 C   0  0  0  0  0  0  0  0  0  0  0  0
   60.4462   29.7623   46.1204 O   0  0  0  0  0  0  0  0  0  0  0  0
   58.7990   28.0789   46.2834 C   0  0  0  0  0  0  0  0  0  0  0  0
   57.5237   27.7050   46.0572 N   0  0  0  0  0  0  0  0  0  0  0  0
   57.5465   26.3598   46.1262 C   0  0  0  0  0  0  0  0  0  0  0  0
   56.4194   25.5698   45.9472 O   0  0  0  0  0  0  0  0  0  0  0  0
   58.8063   25.8754   46.3947 C   0  0  0  0  0  0  0  0  0  0  0  0
   59.6172   26.9827   46.4974 C   0  0  0  0  0  0  0  0  0  0  0  0
 10 11  1  0
 11 12  2  0
 12 13  1  0
 13 14  2  0
 14 15  1  0
 15 16  1  0
 16 17  2  0
 17  8  1  0
  8  9  2  0
  8  1  1  0
  1  2  2  0
  2  3  1  0
  3  4  2  0
  4  5  1  0
  5  6  1  0
  5  7  2  0
  7 19  1  0
 19 20  1  0
 20 21  2  0
 20 22  1  0
 22 23  1  0
 23 24  1  0
 24 25  1  0
 24 26  2  0
 26 27  1  0
 16 11  1  0
  7  1  1  0
 27 22  2  0
 10 18  1  0
M  CHG 1  15  -1
M  CHG 1  23  -1
M  CHG 1  25  -1
M  END
> <UniqueID>
69

> <SMILES>
Cc1cccc(C(=O)/N=c2\[n-]cccc2O)c1OC(=O)c1ccc([O-])[n-]1

> <Energy>
77.29724967615314

> <Genealogy>
Cc1cccc(C(=O)N=c2[n-]cccc2O)c1OC(=O)c1ccc([O-])[n-]1 (protonated)
Cc1cccc(C(=O)/N=c2\[n-]cccc2O)c1OC(=O)c1ccc([O-])[n-]1 (cis-trans isomerization)
Cc1cccc(C(=O)/N=c2\[n-]cccc2O)c1OC(=O)c1ccc([O-])[n-]1 (3D coordinates assigned)
Cc1cccc(C(=O)/N=c2\[n-]cccc2O)c1OC(=O)c1ccc([O-])[n-]1 (optimized conformer: 77.29724967615314 kcal/mol)

> <smiles>
Cc1cccc(C(=O)N=c2[nH]cccc2O)c1OC(=O)c1ccc(O)[nH]1

> <score_type>
oracle

> <origin>
adg

> <m_score__min__energy>
-14.58

> <m_primary>
energy

> <minimizedAffinity>
-7.99058

> <minimizedRMSD>
1.47424

> <CNNscore>
0.7693638206

> <CNNaffinity>
6.9255080223

> <CNN_VS>
5.3282351494

> <CNNaffinity_variance>
0.6525995731

$$$$
86:0


 31 33  0  0  0  0  0  0  0  0999 V2000
   57.4680   30.4981   44.7887 C   0  0  0  0  0  0  0  0  0  0  0  0
   56.2148   30.4939   44.6616 O   0  0  0  0  0  0  0  0  0  0  0  0
   58.1344   31.7091   45.2807 C   0  0  0  0  0  0  0  0  0  0  0  0
   58.1224   32.8796   44.5072 C   0  0  0  0  0  0  0  0  0  0  0  0
   58.7170   34.0473   44.9926 C   0  0  0  0  0  0  0  0  0  0  0  0
   59.3430   34.0477   46.2416 C   0  0  0  0  0  0  0  0  0  0  0  0
   59.3882   32.8728   47.0095 C   0  0  0  0  0  0  0  0  0  0  0  0
   58.7697   31.7077   46.5301 C   0  0  0  0  0  0  0  0  0  0  0  0
   60.2443   32.8534   48.5523 S   0  0  0  0  0  0  0  0  0  0  0  0
   60.9951   34.1457   48.7174 O   0  0  0  0  0  0  0  0  0  0  0  0
   61.2418   31.7315   48.5493 O   0  0  0  0  0  0  0  0  0  0  0  0
   59.1499   32.6511   49.8946 N   0  0  0  0  0  0  0  0  0  0  0  0
   58.9889   31.2267   50.2111 C   0  0  0  0  0  0  0  0  0  0  0  0
   58.0466   31.0524   51.4188 C   0  0  0  0  0  0  0  0  0  0  0  0
   57.6488   32.2971   51.9673 O   0  0  0  0  0  0  0  0  0  0  0  0
   58.7887   33.0545   52.3156 C   0  0  0  0  0  0  0  0  0  0  0  0
   59.6394   33.3819   51.0750 C   0  0  0  0  0  0  0  0  0  0  0  0
   58.2084   29.3187   44.4630 N   0  0  0  0  0  0  0  0  0  0  0  0
   59.4449   28.9065   45.1189 C   0  0  0  0  0  0  0  0  0  0  0  0
   60.2916   26.9181   46.1383 O   0  0  0  0  0  0  0  0  0  0  0  0
   59.2729   27.5849   45.8094 C   0  0  0  0  0  0  0  0  0  0  0  0
   57.9595   27.0882   46.0934 N   0  0  0  0  0  0  0  0  0  0  0  0
   57.1829   27.5808   45.7420 H   0  0  0  0  0  0  0  0  0  0  0  0
   57.7245   25.8821   46.8821 C   0  0  0  0  0  0  0  0  0  0  0  0
   57.2707   24.7528   45.9965 C   0  0  0  0  0  0  0  0  0  0  0  0
   58.1977   23.7996   45.5413 C   0  0  0  0  0  0  0  0  0  0  0  0
   57.7805   22.7518   44.7166 C   0  0  0  0  0  0  0  0  0  0  0  0
   56.4386   22.6416   44.3433 C   0  0  0  0  0  0  0  0  0  0  0  0
   55.5126   23.5831   44.7880 C   0  0  0  0  0  0  0  0  0  0  0  0
   55.9231   24.6405   45.6081 C   0  0  0  0  0  0  0  0  0  0  0  0
   54.9862   25.5755   46.0332 O   0  0  0  0  0  0  0  0  0  0  0  0
 20 21  2  0
 21 19  1  0
 19 18  1  0
 18  1  1  0
  1  2  2  0
  1  3  1  0
  3  4  2  0
  4  5  1  0
  5  6  2  0
  6  7  1  0
  7  9  1  0
  9 10  2  0
  9 11  2  0
  9 12  1  0
 12 13  1  0
 13 14  1  0
 14 15  1  0
 15 16  1  0
 16 17  1  0
  7  8  2  0
 21 22  1  0
 22 24  1  0
 24 25  1  0
 25 26  2  0
 26 27  1  0
 27 28  2  0
 28 29  1  0
 29 30  2  0
 30 31  1  0
  8  3  1  0
 30 25  1  0
 17 12  1  0
 22 23  1  0
M  CHG 1  18  -1
M  CHG 1  31  -1
M  END
> <UniqueID>
81

> <SMILES>
O=C(C[N-]C(=O)c1cccc(S(=O)(=O)N2CCOCC2)c1)NCc1ccccc1[O-]

> <Energy>
60.46890155479432

> <Genealogy>
O=C(C[N-]C(=O)c1cccc(S(=O)(=O)N2CCOCC2)c1)NCc1ccccc1[O-] (protonated)
O=C(C[N-]C(=O)c1cccc(S(=O)(=O)N2CCOCC2)c1)NCc1ccccc1[O-] (3D coordinates assigned)
O=C(C[N-]C(=O)c1cccc(S(=O)(=O)N2CCOCC2)c1)NCc1ccccc1[O-] (nonaromatic ring conformer: 60.46890155479432 kcal/mol)

> <smiles>
O=C(CNC(=O)c1cccc(S(=O)(=O)N2CCOCC2)c1)NCc1ccccc1O

> <score_type>
oracle

> <origin>
adg

> <m_score__min__energy>
-15.5

> <m_primary>
energy

> <minimizedAffinity>
-8.69618

> <minimizedRMSD>
1.11723

> <CNNscore>
0.5883092284

> <CNNaffinity>
6.5954113007

> <CNN_VS>
3.8801412582

> <CNNaffinity_variance>
0.0124592101

$$$$
88:0


 35 38  0  0  0  0  0  0  0  0999 V2000
   60.6030   34.1343   49.5935 C   0  0  0  0  0  0  0  0  0  0  0  0
   60.0237   33.5428   48.3349 C   0  0  0  0  0  0  0  0  0  0  0  0
   59.3597   34.3841   47.4274 C   0  0  0  0  0  0  0  0  0  0  0  0
   58.7710   33.8669   46.2719 C   0  0  0  0  0  0  0  0  0  0  0  0
   58.8358   32.4948   46.0004 C   0  0  0  0  0  0  0  0  0  0  0  0
   59.5214   31.6511   46.8856 C   0  0  0  0  0  0  0  0  0  0  0  0
   60.1241   32.1625   48.0462 C   0  0  0  0  0  0  0  0  0  0  0  0
   60.8385   31.2262   48.9379 C   0  0  0  0  0  0  0  0  0  0  0  0
   60.2652   30.1600   49.2925 O   0  0  0  0  0  0  0  0  0  0  0  0
   62.1802   31.5014   49.3879 N   0  0  0  0  0  0  0  0  0  0  0  0
   63.1919   31.9166   48.4060 C   0  0  0  0  0  0  0  0  0  0  0  0
   64.2901   32.7527   49.0691 C   0  0  0  0  0  0  0  0  0  0  0  0
   64.7381   32.1152   50.3091 N   0  0  0  0  0  0  0  0  0  0  0  0
   66.1050   32.2692   50.7305 C   0  0  0  0  0  0  0  0  0  0  0  0
   66.7130   33.3467   50.4833 O   0  0  0  0  0  0  0  0  0  0  0  0
   63.7133   31.7577   51.2934 C   0  0  0  0  0  0  0  0  0  0  0  0
   62.6414   30.8885   50.6383 C   0  0  0  0  0  0  0  0  0  0  0  0
   66.8130   31.1777   51.4376 C   0  0  0  0  0  0  0  0  0  0  0  0
   66.6388   29.8416   51.0344 C   0  0  0  0  0  0  0  0  0  0  0  0
   67.3072   28.8063   51.7001 C   0  0  0  0  0  0  0  0  0  0  0  0
   68.1411   29.0976   52.7842 C   0  0  0  0  0  0  0  0  0  0  0  0
   68.3070   30.4200   53.2019 C   0  0  0  0  0  0  0  0  0  0  0  0
   67.6445   31.4583   52.5354 C   0  0  0  0  0  0  0  0  0  0  0  0
   58.2229   31.9277   44.7507 C   0  0  0  0  0  0  0  0  0  0  0  0
   57.0412   31.1406   45.0921 N   0  0  0  0  0  0  0  0  0  0  0  0
   56.7760   29.7836   44.7043 C   0  0  0  0  0  0  0  0  0  0  0  0
   55.5767   29.4157   44.5731 O   0  0  0  0  0  0  0  0  0  0  0  0
   57.8686   28.8142   44.3514 C   0  0  0  0  0  0  0  0  0  0  0  0
   58.3242   28.0919   45.5818 C   0  0  0  0  0  0  0  0  0  0  0  0
   59.5104   28.2925   46.1813 N   0  0  0  0  0  0  0  0  0  0  0  0
   59.5278   27.3619   47.1601 C   0  0  0  0  0  0  0  0  0  0  0  0
   60.4947   27.2315   47.9527 O   0  0  0  0  0  0  0  0  0  0  0  0
   58.4312   26.5766   47.2139 N   0  0  0  0  0  0  0  0  0  0  0  0
   57.6828   27.0478   46.2039 C   0  0  0  0  0  0  0  0  0  0  0  0
   56.4446   26.5265   45.8532 O   0  0  0  0  0  0  0  0  0  0  0  0
  1  2  1  0
  2  3  2  0
  3  4  1  0
  4  5  2  0
  5 24  1  0
 24 25  1  0
 25 26  1  0
 26 27  2  0
 26 28  1  0
 28 29  1  0
 29 30  1  0
 30 31  1  0
 31 32  2  0
 31 33  1  0
 33 34  1  0
 34 35  1  0
  5  6  1  0
  6  7  2  0
  7  8  1  0
  8  9  2  0
  8 10  1  0
 10 11  1  0
 11 12  1  0
 12 13  1  0
 13 14  1  0
 14 15  2  0
 14 18  1  0
 18 19  2  0
 19 20  1  0
 20 21  2  0
 21 22  1  0
 22 23  2  0
 13 16  1  0
 16 17  1  0
  7  2  1  0
 17 10  1  0
 34 29  2  0
 23 18  1  0
M  CHG 1  25  -1
M  CHG 1  30  -1
M  CHG 1  33  -1
M  CHG 1  35  -1
M  END
> <UniqueID>
83

> <SMILES>
Cc1ccc(C[N-]C(=O)Cc2[n-]c(=O)[n-]c2[O-])cc1C(=O)N1CCN(C(=O)c2ccccc2)CC1

> <Energy>
98.87700930494772

> <Genealogy>
Cc1ccc(C[N-]C(=O)Cc2[n-]c(=O)[n-]c2[O-])cc1C(=O)N1CCN(C(=O)c2ccccc2)CC1 (protonated)
Cc1ccc(C[N-]C(=O)Cc2[n-]c(=O)[n-]c2[O-])cc1C(=O)N1CCN(C(=O)c2ccccc2)CC1 (3D coordinates assigned)
Cc1ccc(C[N-]C(=O)Cc2[n-]c(=O)[n-]c2[O-])cc1C(=O)N1CCN(C(=O)c2ccccc2)CC1 (nonaromatic ring conformer: 98.87700930494772 kcal/mol)

> <smiles>
Cc1ccc(CNC(=O)Cc2[nH]c(=O)[nH]c2O)cc1C(=O)N1CCN(C(=O)c2ccccc2)CC1

> <score_type>
oracle

> <origin>
adg

> <m_score__min__energy>
-18.949999999999999

> <m_primary>
energy

> <minimizedAffinity>
-8.32126

> <minimizedRMSD>
1.16245

> <CNNscore>
0.5871090889

> <CNNaffinity>
6.9944343567

> <CNN_VS>
4.1064958572

> <CNNaffinity_variance>
0.0990542397

$$$$
92:0


 26 27  0  0  0  0  0  0  0  0999 V2000
   57.9487   31.9085   43.2394 O   0  0  0  0  0  0  0  0  0  0  0  0
   57.7304   31.8832   44.4823 C   0  0  0  0  0  0  0  0  0  0  0  0
   57.6879   33.1626   45.2552 C   0  0  0  0  0  0  0  0  0  0  0  0
   57.5513   32.8904   46.6461 O   0  0  0  0  0  0  0  0  0  0  0  0
   58.6193   32.9421   47.5477 C   0  0  0  0  0  0  0  0  0  0  0  0
   58.9631   31.9205   48.1998 O   0  0  0  0  0  0  0  0  0  0  0  0
   59.3890   34.2127   47.7093 C   0  0  0  0  0  0  0  0  0  0  0  0
   60.8526   33.9117   47.8908 C   0  0  0  0  0  0  0  0  0  0  0  0
   61.6635   33.6607   46.7696 C   0  0  0  0  0  0  0  0  0  0  0  0
   63.0220   33.3647   46.9305 C   0  0  0  0  0  0  0  0  0  0  0  0
   63.5745   33.3000   48.2125 C   0  0  0  0  0  0  0  0  0  0  0  0
   62.7738   33.5349   49.3351 C   0  0  0  0  0  0  0  0  0  0  0  0
   61.4179   33.8390   49.1772 C   0  0  0  0  0  0  0  0  0  0  0  0
   60.6549   34.0536   50.2823 F   0  0  0  0  0  0  0  0  0  0  0  0
   57.5705   30.6384   45.1680 N   0  0  0  0  0  0  0  0  0  0  0  0
   58.6357   29.6517   45.3087 C   0  0  0  0  0  0  0  0  0  0  0  0
   58.2337   28.5918   46.2848 C   0  0  0  0  0  0  0  0  0  0  0  0
   58.7180   28.5999   47.4491 O   0  0  0  0  0  0  0  0  0  0  0  0
   57.2645   27.6115   45.8983 N   0  0  0  0  0  0  0  0  0  0  0  0
   57.4487   26.1879   45.8858 C   0  0  0  0  0  0  0  0  0  0  0  0
   58.7205   25.6079   45.7288 C   0  0  0  0  0  0  0  0  0  0  0  0
   58.8605   24.2180   45.6889 C   0  0  0  0  0  0  0  0  0  0  0  0
   57.7335   23.3959   45.7893 C   0  0  0  0  0  0  0  0  0  0  0  0
   56.4652   23.9639   45.9238 C   0  0  0  0  0  0  0  0  0  0  0  0
   56.3196   25.3570   45.9644 C   0  0  0  0  0  0  0  0  0  0  0  0
   55.0506   25.9125   46.0924 O   0  0  0  0  0  0  0  0  0  0  0  0
  1  2  2  0
  2  3  1  0
  3  4  1  0
  4  5  1  0
  5  6  2  0
  5  7  1  0
  7  8  1  0
  8  9  2  0
  9 10  1  0
 10 11  2  0
 11 12  1  0
 12 13  2  0
 13 14  1  0
  2 15  1  0
 15 16  1  0
 16 17  1  0
 17 18  2  0
 17 19  1  0
 19 20  1  0
 20 21  2  0
 21 22  1  0
 22 23  2  0
 23 24  1  0
 24 25  2  0
 25 26  1  0
 13  8  1  0
 25 20  1  0
M  CHG 1  15  -1
M  CHG 1  19  -1
M  CHG 1  26  -1
M  END
> <UniqueID>
87

> <SMILES>
O=C(COC(=O)Cc1ccccc1F)[N-]CC(=O)[N-]c1ccccc1[O-]

> <Energy>
34.31870496598744

> <Genealogy>
O=C(COC(=O)Cc1ccccc1F)[N-]CC(=O)[N-]c1ccccc1[O-] (protonated)
O=C(COC(=O)Cc1ccccc1F)[N-]CC(=O)[N-]c1ccccc1[O-] (3D coordinates assigned)
O=C(COC(=O)Cc1ccccc1F)[N-]CC(=O)[N-]c1ccccc1[O-] (optimized conformer: 34.31870496598744 kcal/mol)

> <smiles>
O=C(COC(=O)Cc1ccccc1F)NCC(=O)Nc1ccccc1O

> <score_type>
oracle

> <origin>
adg

> <m_score__min__energy>
-14.81

> <m_primary>
energy

> <minimizedAffinity>
-7.43309

> <minimizedRMSD>
1.53136

> <CNNscore>
0.9160295129

> <CNNaffinity>
6.7593607903

> <CNN_VS>
6.1917738914

> <CNNaffinity_variance>
0.0906851068

$$$$
93:0


 28 30  0  0  0  0  0  0  0  0999 V2000
   57.5626   31.1700   51.6996 C   0  0  0  0  0  0  0  0  0  0  0  0
   57.4800   32.3101   52.5135 C   0  0  0  0  0  0  0  0  0  0  0  0
   58.4112   33.3399   52.3760 C   0  0  0  0  0  0  0  0  0  0  0  0
   59.4468   33.2292   51.4477 C   0  0  0  0  0  0  0  0  0  0  0  0
   59.5734   32.0745   50.6616 C   0  0  0  0  0  0  0  0  0  0  0  0
   58.6231   31.0441   50.7890 C   0  0  0  0  0  0  0  0  0  0  0  0
   58.7167   29.8990   50.0033 O   0  0  0  0  0  0  0  0  0  0  0  0
   60.8995   31.9449   49.5022 S   0  0  0  0  0  0  0  0  0  0  0  0
   61.4285   30.5380   49.5366 O   0  0  0  0  0  0  0  0  0  0  0  0
   61.9992   32.9004   49.8755 O   0  0  0  0  0  0  0  0  0  0  0  0
   60.3342   32.3225   47.8910 N   0  0  0  0  0  0  0  0  0  0  0  0
   59.0097   32.9657   47.9630 C   0  0  0  0  0  0  0  0  0  0  0  0
   58.2913   32.8746   46.6072 C   0  0  0  0  0  0  0  0  0  0  0  0
   58.0827   31.5463   46.1395 O   0  0  0  0  0  0  0  0  0  0  0  0
   58.9326   30.5848   46.7476 C   0  0  0  0  0  0  0  0  0  0  0  0
   60.3488   31.1210   47.0235 C   0  0  0  0  0  0  0  0  0  0  0  0
   56.6156   30.1050   51.8357 N   0  0  0  0  0  0  0  0  0  0  0  0
   56.2426   30.1916   54.1221 O   0  0  0  0  0  0  0  0  0  0  0  0
   55.8039   29.8563   52.9893 C   0  0  0  0  0  0  0  0  0  0  0  0
   54.5045   29.0988   52.8983 C   0  0  0  0  0  0  0  0  0  0  0  0
   53.3063   30.0162   52.9074 C   0  0  0  0  0  0  0  0  0  0  0  0
   52.5988   30.2514   54.0998 C   0  0  0  0  0  0  0  0  0  0  0  0
   51.4996   31.1151   54.1101 C   0  0  0  0  0  0  0  0  0  0  0  0
   51.1048   31.7647   52.9385 C   0  0  0  0  0  0  0  0  0  0  0  0
   50.0122   32.6237   52.9563 O   0  0  0  0  0  0  0  0  0  0  0  0
   51.8141   31.5528   51.7494 C   0  0  0  0  0  0  0  0  0  0  0  0
   51.4343   32.2060   50.5833 O   0  0  0  0  0  0  0  0  0  0  0  0
   52.9129   30.6872   51.7359 C   0  0  0  0  0  0  0  0  0  0  0  0
 18 19  2  0
 19 20  1  0
 20 21  1  0
 21 22  2  0
 22 23  1  0
 23 24  2  0
 24 25  1  0
 24 26  1  0
 26 27  1  0
 26 28  2  0
 19 17  1  0
 17  1  1  0
  1  2  2  0
  2  3  1  0
  3  4  2  0
  4  5  1  0
  5  8  1  0
  8  9  2  0
  8 10  2  0
  8 11  1  0
 11 12  1  0
 12 13  1  0
 13 14  1  0
 14 15  1  0
 15 16  1  0
  5  6  2  0
  6  7  1  0
 28 21  1  0
  6  1  1  0
 16 11  1  0
M  CHG 1   7  -1
M  CHG 1  17  -1
M  CHG 1  25  -1
M  CHG 1  27  -1
M  END
> <UniqueID>
88

> <SMILES>
O=C(Cc1ccc([O-])c([O-])c1)[N-]c1cccc(S(=O)(=O)N2CCOCC2)c1[O-]

> <Energy>
64.09073246805106

> <Genealogy>
O=C(Cc1ccc([O-])c([O-])c1)[N-]c1cccc(S(=O)(=O)N2CCOCC2)c1[O-] (protonated)
O=C(Cc1ccc([O-])c([O-])c1)[N-]c1cccc(S(=O)(=O)N2CCOCC2)c1[O-] (3D coordinates assigned)
O=C(Cc1ccc([O-])c([O-])c1)[N-]c1cccc(S(=O)(=O)N2CCOCC2)c1[O-] (nonaromatic ring conformer: 64.09073246805106 kcal/mol)

> <smiles>
O=C(Cc1ccc(O)c(O)c1)Nc1cccc(S(=O)(=O)N2CCOCC2)c1O

> <score_type>
oracle

> <origin>
adg

> <m_score__min__energy>
-19.579999999999998

> <m_primary>
energy

> <minimizedAffinity>
-7.68409

> <minimizedRMSD>
0.75098

> <CNNscore>
0.3423487544

> <CNNaffinity>
5.0412764549

> <CNN_VS>
1.7258746624

> <CNNaffinity_variance>
0.2375465631

$$$$
9:0


 25 27  0  0  0  0  0  0  0  0999 V2000
   56.2596   30.1157   44.7906 O   0  0  0  0  0  0  0  0  0  0  0  0
   56.8299   29.0352   45.1033 C   0  0  0  0  0  0  0  0  0  0  0  0
   56.0714   28.0012   45.5426 N   0  0  0  0  0  0  0  0  0  0  0  0
   56.6200   26.8163   45.8983 C   0  0  0  0  0  0  0  0  0  0  0  0
   55.7896   25.7924   46.3398 O   0  0  0  0  0  0  0  0  0  0  0  0
   58.0061   26.6366   45.8206 C   0  0  0  0  0  0  0  0  0  0  0  0
   58.7848   27.7147   45.3568 C   0  0  0  0  0  0  0  0  0  0  0  0
   60.0378   27.5808   45.2704 O   0  0  0  0  0  0  0  0  0  0  0  0
   58.1921   28.9030   45.0012 N   0  0  0  0  0  0  0  0  0  0  0  0
   58.6385   25.3087   46.1794 C   0  0  0  0  0  0  0  0  0  0  0  0
   58.0557   24.2019   45.3412 C   0  0  0  0  0  0  0  0  0  0  0  0
   58.2745   22.8567   45.6857 C   0  0  0  0  0  0  0  0  0  0  0  0
   57.7584   21.8308   44.8894 C   0  0  0  0  0  0  0  0  0  0  0  0
   57.0242   22.1370   43.7385 C   0  0  0  0  0  0  0  0  0  0  0  0
   56.5124   21.1170   42.9487 O   0  0  0  0  0  0  0  0  0  0  0  0
   56.8047   23.4724   43.3863 C   0  0  0  0  0  0  0  0  0  0  0  0
   57.3199   24.5016   44.1813 C   0  0  0  0  0  0  0  0  0  0  0  0
   59.0198   30.0416   44.5510 C   0  0  0  0  0  0  0  0  0  0  0  0
   58.7451   31.2602   45.3957 C   0  0  0  0  0  0  0  0  0  0  0  0
   59.1098   31.2812   46.7529 C   0  0  0  0  0  0  0  0  0  0  0  0
   58.8242   32.4003   47.5420 C   0  0  0  0  0  0  0  0  0  0  0  0
   58.1694   33.5017   46.9854 C   0  0  0  0  0  0  0  0  0  0  0  0
   57.8001   33.4880   45.6380 C   0  0  0  0  0  0  0  0  0  0  0  0
   57.1643   34.5563   45.0973 F   0  0  0  0  0  0  0  0  0  0  0  0
   58.0845   32.3702   44.8451 C   0  0  0  0  0  0  0  0  0  0  0  0
  1  2  2  0
  2  3  1  0
  3  4  1  0
  4  5  1  0
  4  6  2  0
  6 10  1  0
 10 11  1  0
 11 12  2  0
 12 13  1  0
 13 14  2  0
 14 15  1  0
 14 16  1  0
 16 17  2  0
  6  7  1  0
  7  8  2  0
  7  9  1  0
  9 18  1  0
 18 19  1  0
 19 20  2  0
 20 21  1  0
 21 22  2  0
 22 23  1  0
 23 24  1  0
 23 25  2  0
  9  2  1  0
 25 19  1  0
 17 11  1  0
M  CHG 1   3  -1
M  CHG 1   5  -1
M  CHG 1  15  -1
M  END
> <UniqueID>
10

> <SMILES>
O=c1[n-]c([O-])c(Cc2ccc([O-])cc2)c(=O)n1Cc1cccc(F)c1

> <Energy>
44.48635754779374

> <Genealogy>
O=c1[n-]c([O-])c(Cc2ccc([O-])cc2)c(=O)n1Cc1cccc(F)c1 (protonated)
O=c1[n-]c([O-])c(Cc2ccc([O-])cc2)c(=O)n1Cc1cccc(F)c1 (3D coordinates assigned)
O=c1[n-]c([O-])c(Cc2ccc([O-])cc2)c(=O)n1Cc1cccc(F)c1 (optimized conformer: 44.48635754779374 kcal/mol)

> <smiles>
O=c1[nH]c(O)c(Cc2ccc(O)cc2)c(=O)n1Cc1cccc(F)c1

> <score_type>
oracle

> <origin>
adg

> <m_score__min__energy>
-15.029999999999999

> <m_primary>
energy

> <minimizedAffinity>
-7.22644

> <minimizedRMSD>
0.78220

> <CNNscore>
0.4490528107

> <CNNaffinity>
6.2190651894

> <CNN_VS>
2.7926886082

> <CNNaffinity_variance>
0.0725854337

$$$$
12:0


 27 29  0  0  0  0  0  0  0  0999 V2000
   58.3560   27.4046   47.2200 C   0  0  0  0  0  0  0  0  0  0  0  0
   58.0543   26.7673   46.0768 C   0  0  0  0  0  0  0  0  0  0  0  0
   58.2698   27.2334   44.7694 C   0  0  0  0  0  0  0  0  0  0  0  0
   58.6367   28.4465   44.3102 C   0  0  0  0  0  0  0  0  0  0  0  0
   58.0101   26.1653   43.9304 C   0  0  0  0  0  0  0  0  0  0  0  0
   57.5931   25.1200   44.7281 C   0  0  0  0  0  0  0  0  0  0  0  0
   57.2354   23.7577   44.2119 C   0  0  0  0  0  0  0  0  0  0  0  0
   57.5997   25.4858   46.0322 N   0  0  0  0  0  0  0  0  0  0  0  0
   58.9381   29.6263   45.1445 C   0  0  0  0  0  0  0  0  0  0  0  0
   60.0996   29.6814   45.9235 C   0  0  0  0  0  0  0  0  0  0  0  0
   61.0155   28.6340   45.9145 O   0  0  0  0  0  0  0  0  0  0  0  0
   60.3410   30.7662   46.6966 N   0  0  0  0  0  0  0  0  0  0  0  0
   59.4656   31.8010   46.7624 C   0  0  0  0  0  0  0  0  0  0  0  0
   59.7517   32.7961   47.4821 O   0  0  0  0  0  0  0  0  0  0  0  0
   58.2892   31.7592   46.0577 N   0  0  0  0  0  0  0  0  0  0  0  0
   57.3504   32.8920   46.1170 C   0  0  0  0  0  0  0  0  0  0  0  0
   58.0256   30.6892   45.2382 C   0  0  0  0  0  0  0  0  0  0  0  0
   56.9641   30.6554   44.5539 O   0  0  0  0  0  0  0  0  0  0  0  0
   57.2307   24.6282   47.1729 C   0  0  0  0  0  0  0  0  0  0  0  0
   56.0494   23.7435   46.8378 C   0  0  0  0  0  0  0  0  0  0  0  0
   56.1284   22.3588   47.0691 C   0  0  0  0  0  0  0  0  0  0  0  0
   55.0506   21.5255   46.7589 C   0  0  0  0  0  0  0  0  0  0  0  0
   53.8865   22.0622   46.2050 C   0  0  0  0  0  0  0  0  0  0  0  0
   52.8142   21.2319   45.8989 O   0  0  0  0  0  0  0  0  0  0  0  0
   53.8015   23.4341   45.9551 C   0  0  0  0  0  0  0  0  0  0  0  0
   54.8761   24.2748   46.2618 C   0  0  0  0  0  0  0  0  0  0  0  0
   54.7684   25.6335   45.9888 O   0  0  0  0  0  0  0  0  0  0  0  0
  1  2  2  0
  2  3  1  0
  3  4  2  0
  4  9  1  0
  9 10  2  0
 10 11  1  0
 10 12  1  0
 12 13  1  0
 13 14  2  0
 13 15  1  0
 15 16  1  0
 15 17  1  0
 17 18  2  0
  3  5  1  0
  5  6  2  0
  6  7  1  0
  6  8  1  0
  8 19  1  0
 19 20  1  0
 20 21  2  0
 21 22  1  0
 22 23  2  0
 23 24  1  0
 23 25  1  0
 25 26  2  0
 26 27  1  0
  8  2  1  0
 26 20  1  0
 17  9  1  0
M  CHG 1  11  -1
M  CHG 1  12  -1
M  CHG 1  24  -1
M  CHG 1  27  -1
M  END
> <UniqueID>
13

> <SMILES>
C=c1c(=Cc2c([O-])[n-]c(=O)n(C)c2=O)cc(C)n1Cc1ccc([O-])cc1[O-]

> <Energy>
91.03562461098966

> <Genealogy>
C=c1c(=Cc2c([O-])[n-]c(=O)n(C)c2=O)cc(C)n1Cc1ccc([O-])cc1[O-] (protonated)
C=c1c(=Cc2c([O-])[n-]c(=O)n(C)c2=O)cc(C)n1Cc1ccc([O-])cc1[O-] (3D coordinates assigned)
C=c1c(=Cc2c([O-])[n-]c(=O)n(C)c2=O)cc(C)n1Cc1ccc([O-])cc1[O-] (optimized conformer: 91.03562461098966 kcal/mol)

> <smiles>
C=c1c(=Cc2c(O)[nH]c(=O)n(C)c2=O)cc(C)n1Cc1ccc(O)cc1O

> <score_type>
oracle

> <origin>
adg

> <m_score__min__energy>
-15.84

> <m_primary>
energy

> <minimizedAffinity>
-7.20392

> <minimizedRMSD>
0.87800

> <CNNscore>
0.0861636326

> <CNNaffinity>
5.4014039040

> <CNN_VS>
0.4654045701

> <CNNaffinity_variance>
0.1008382663

$$$$
27:0


 26 28  0  0  0  0  0  0  0  0999 V2000
   57.5982   25.2573   46.3123 N   0  0  0  0  0  0  0  0  0  0  0  0
   57.0986   26.4862   46.1086 C   0  0  0  0  0  0  0  0  0  0  0  0
   55.7511   26.8150   46.2068 O   0  0  0  0  0  0  0  0  0  0  0  0
   58.1268   27.3449   45.7876 C   0  0  0  0  0  0  0  0  0  0  0  0
   59.2908   26.6553   45.7687 N   0  0  0  0  0  0  0  0  0  0  0  0
   58.9202   25.3907   46.0671 C   0  0  0  0  0  0  0  0  0  0  0  0
   59.7328   24.4300   46.0950 O   0  0  0  0  0  0  0  0  0  0  0  0
   56.3225   23.5563   43.4682 C   0  0  0  0  0  0  0  0  0  0  0  0
   55.4552   23.6128   44.4839 C   0  0  0  0  0  0  0  0  0  0  0  0
   54.1380   23.3945   44.3209 N   0  0  0  0  0  0  0  0  0  0  0  0
   53.6304   23.3870   45.5649 C   0  0  0  0  0  0  0  0  0  0  0  0
   52.4134   23.1858   45.8108 O   0  0  0  0  0  0  0  0  0  0  0  0
   54.5472   23.6052   46.5293 N   0  0  0  0  0  0  0  0  0  0  0  0
   55.7049   23.7717   45.8521 C   0  0  0  0  0  0  0  0  0  0  0  0
   56.8524   24.0491   46.4950 C   0  0  0  0  0  0  0  0  0  0  0  0
   53.6517   23.2677   43.4743 H   0  0  0  0  0  0  0  0  0  0  0  0
   57.9868   28.8006   45.5695 C   0  0  0  0  0  0  0  0  0  0  0  0
   57.5994   29.3873   44.4277 C   0  0  0  0  0  0  0  0  0  0  0  0
   57.8364   30.8083   44.0942 C   0  0  0  0  0  0  0  0  0  0  0  0
   57.3398   31.8320   44.8037 C   0  0  0  0  0  0  0  0  0  0  0  0
   58.1465   32.7885   45.5947 C   0  0  0  0  0  0  0  0  0  0  0  0
   58.4558   32.5513   46.9460 C   0  0  0  0  0  0  0  0  0  0  0  0
   59.2523   33.4541   47.6563 C   0  0  0  0  0  0  0  0  0  0  0  0
   59.7627   34.5896   47.0200 C   0  0  0  0  0  0  0  0  0  0  0  0
   59.4843   34.8166   45.6702 C   0  0  0  0  0  0  0  0  0  0  0  0
   58.6874   33.9153   44.9561 C   0  0  0  0  0  0  0  0  0  0  0  0
  8  9  2  0
  9 10  1  0
 10 11  1  0
 11 12  2  0
 11 13  1  0
 13 14  1  0
 14 15  2  0
 15  1  1  0
  1  2  1  0
  2  3  1  0
  2  4  2  0
  4 17  1  0
 17 18  2  0
 18 19  1  0
 19 20  2  0
 20 21  1  0
 21 22  2  0
 22 23  1  0
 23 24  2  0
 24 25  1  0
 25 26  2  0
  4  5  1  0
  5  6  1  0
  6  7  2  0
 14  9  1  0
  6  1  1  0
 26 21  1  0
 10 16  1  0
M  CHG 1   3  -1
M  CHG 1   5  -1
M  CHG 1  13  -1
M  END
> <UniqueID>
27

> <SMILES>
C=c1[nH]c(=O)[n-]c1=Cn1c([O-])c(C=CC=Cc2ccccc2)[n-]c1=O

> <Energy>
123.84551731552646

> <Genealogy>
C=c1[nH]c(=O)[n-]c1=Cn1c([O-])c(C=CC=Cc2ccccc2)[n-]c1=O (protonated)
C=c1[nH]c(=O)[n-]c1=Cn1c([O-])c(C=CC=Cc2ccccc2)[n-]c1=O (3D coordinates assigned)
C=c1[nH]c(=O)[n-]c1=Cn1c([O-])c(C=CC=Cc2ccccc2)[n-]c1=O (optimized conformer: 123.84551731552646 kcal/mol)

> <smiles>
C=c1[nH]c(=O)[nH]c1=Cn1c(O)c(C=CC=Cc2ccccc2)[nH]c1=O

> <score_type>
oracle

> <origin>
adg

> <m_score__min__energy>
-15.31

> <m_primary>
energy

> <minimizedAffinity>
-7.73777

> <minimizedRMSD>
0.62062

> <CNNscore>
0.1668791324

> <CNNaffinity>
5.8973011971

> <CNN_VS>
0.9841365218

> <CNNaffinity_variance>
0.1603398621

$$$$
33:0


 32 34  0  0  0  0  0  0  0  0999 V2000
   61.5227   30.5016   50.7857 S   0  0  0  0  0  0  0  0  0  0  0  0
   61.9973   29.4507   51.7473 O   0  0  0  0  0  0  0  0  0  0  0  0
   62.7159   31.2136   50.2077 O   0  0  0  0  0  0  0  0  0  0  0  0
   60.4839   31.6415   51.6500 C   0  0  0  0  0  0  0  0  0  0  0  0
   60.1541   31.3996   52.9925 C   0  0  0  0  0  0  0  0  0  0  0  0
   59.3471   32.2958   53.6939 C   0  0  0  0  0  0  0  0  0  0  0  0
   58.8598   33.4400   53.0603 C   0  0  0  0  0  0  0  0  0  0  0  0
   59.1783   33.6907   51.7231 C   0  0  0  0  0  0  0  0  0  0  0  0
   59.9903   32.7919   51.0019 C   0  0  0  0  0  0  0  0  0  0  0  0
   60.3292   33.0089   49.6538 O   0  0  0  0  0  0  0  0  0  0  0  0
   60.0905   34.2108   48.9207 C   0  0  0  0  0  0  0  0  0  0  0  0
   59.4942   33.9038   47.5713 C   0  0  0  0  0  0  0  0  0  0  0  0
   59.8482   34.6911   46.4612 C   0  0  0  0  0  0  0  0  0  0  0  0
   59.2816   34.4419   45.2092 C   0  0  0  0  0  0  0  0  0  0  0  0
   58.3537   33.4091   45.0539 C   0  0  0  0  0  0  0  0  0  0  0  0
   57.9883   32.6260   46.1510 C   0  0  0  0  0  0  0  0  0  0  0  0
   58.5477   32.8727   47.4082 C   0  0  0  0  0  0  0  0  0  0  0  0
   58.1640   32.1093   48.4627 F   0  0  0  0  0  0  0  0  0  0  0  0
   60.6328   29.7431   49.5002 N   0  0  0  0  0  0  0  0  0  0  0  0
   60.9802   30.3401   48.2123 C   0  0  0  0  0  0  0  0  0  0  0  0
   60.5654   29.7836   45.9306 O   0  0  0  0  0  0  0  0  0  0  0  0
   60.2348   29.6221   47.1362 C   0  0  0  0  0  0  0  0  0  0  0  0
   59.1539   28.7445   47.4866 N   0  0  0  0  0  0  0  0  0  0  0  0
   58.6831   28.9084   48.3355 H   0  0  0  0  0  0  0  0  0  0  0  0
   58.7151   27.6389   46.6735 C   0  0  0  0  0  0  0  0  0  0  0  0
   59.1768   26.3316   46.9074 C   0  0  0  0  0  0  0  0  0  0  0  0
   58.7037   25.2712   46.1325 C   0  0  0  0  0  0  0  0  0  0  0  0
   57.7625   25.5200   45.1340 C   0  0  0  0  0  0  0  0  0  0  0  0
   57.2818   24.4762   44.3534 O   0  0  0  0  0  0  0  0  0  0  0  0
   57.3087   26.7846   44.9269 N   0  0  0  0  0  0  0  0  0  0  0  0
   57.7504   27.8372   45.6676 C   0  0  0  0  0  0  0  0  0  0  0  0
   57.2905   28.9882   45.4385 O   0  0  0  0  0  0  0  0  0  0  0  0
 21 22  2  0
 22 20  1  0
 20 19  1  0
 19  1  1  0
  1  2  2  0
  1  3  2  0
  1  4  1  0
  4  5  2  0
  5  6  1  0
  6  7  2  0
  7  8  1  0
  8  9  2  0
  9 10  1  0
 10 11  1  0
 11 12  1  0
 12 13  2  0
 13 14  1  0
 14 15  2  0
 15 16  1  0
 16 17  2  0
 17 18  1  0
 22 23  1  0
 23 25  1  0
 25 26  2  0
 26 27  1  0
 27 28  2  0
 28 29  1  0
 28 30  1  0
 30 31  1  0
 31 32  2  0
  9  4  1  0
 17 12  1  0
 31 25  1  0
 23 24  1  0
M  CHG 1  19  -1
M  CHG 1  29  -1
M  CHG 1  30  -1
M  END
> <UniqueID>
33

> <SMILES>
O=C(C[N-]S(=O)(=O)c1ccccc1OCc1ccccc1F)Nc1ccc([O-])[n-]c1=O

> <Energy>
49.68636010600881

> <Genealogy>
O=C(C[N-]S(=O)(=O)c1ccccc1OCc1ccccc1F)Nc1ccc([O-])[n-]c1=O (protonated)
O=C(C[N-]S(=O)(=O)c1ccccc1OCc1ccccc1F)Nc1ccc([O-])[n-]c1=O (3D coordinates assigned)
O=C(C[N-]S(=O)(=O)c1ccccc1OCc1ccccc1F)Nc1ccc([O-])[n-]c1=O (optimized conformer: 49.68636010600881 kcal/mol)

> <smiles>
O=C(CNS(=O)(=O)c1ccccc1OCc1ccccc1F)Nc1ccc(O)[nH]c1=O

> <score_type>
oracle

> <origin>
adg

> <m_score__min__energy>
-14.699999999999999

> <m_primary>
energy

> <minimizedAffinity>
-7.35628

> <minimizedRMSD>
1.63532

> <CNNscore>
0.4816121757

> <CNNaffinity>
6.6465344429

> <CNN_VS>
3.2010519505

> <CNNaffinity_variance>
0.0104988962

$$$$
35:0


 19 20  0  0  0  0  0  0  0  0999 V2000
   54.1540   30.0697   51.6196 O   0  0  0  0  0  0  0  0  0  0  0  0
   54.4539   29.8005   52.8132 C   0  0  0  0  0  0  0  0  0  0  0  0
   53.4416   29.9846   53.8960 C   0  0  0  0  0  0  0  0  0  0  0  0
   52.2284   29.1691   53.5776 C   0  0  0  0  0  0  0  0  0  0  0  0
   52.2119   27.8238   53.5461 N   0  0  0  0  0  0  0  0  0  0  0  0
   50.9079   27.5356   53.3395 C   0  0  0  0  0  0  0  0  0  0  0  0
   50.4824   26.3554   53.2443 O   0  0  0  0  0  0  0  0  0  0  0  0
   50.0939   28.6096   53.2535 N   0  0  0  0  0  0  0  0  0  0  0  0
   50.9457   29.6347   53.4137 C   0  0  0  0  0  0  0  0  0  0  0  0
   50.5574   30.9679   53.4273 O   0  0  0  0  0  0  0  0  0  0  0  0
   55.7253   29.2264   53.1311 N   0  0  0  0  0  0  0  0  0  0  0  0
   56.0835   28.7793   54.4714 C   0  0  0  0  0  0  0  0  0  0  0  0
   56.1472   27.2748   54.5091 C   0  0  0  0  0  0  0  0  0  0  0  0
   55.0206   26.5186   54.8735 C   0  0  0  0  0  0  0  0  0  0  0  0
   55.1011   25.1248   54.9440 C   0  0  0  0  0  0  0  0  0  0  0  0
   56.3063   24.4767   54.6546 C   0  0  0  0  0  0  0  0  0  0  0  0
   57.4312   25.2215   54.2898 C   0  0  0  0  0  0  0  0  0  0  0  0
   59.0830   24.3373   53.9150 Br  0  0  0  0  0  0  0  0  0  0  0  0
   57.3519   26.6156   54.2101 C   0  0  0  0  0  0  0  0  0  0  0  0
  1  2  2  0
  2  3  1  0
  3  4  1  0
  4  5  1  0
  5  6  1  0
  6  7  2  0
  6  8  1  0
  8  9  1  0
  9 10  1  0
  2 11  1  0
 11 12  1  0
 12 13  1  0
 13 14  2  0
 14 15  1  0
 15 16  2  0
 16 17  1  0
 17 18  1  0
 17 19  2  0
  9  4  2  0
 19 13  1  0
M  CHG 1   5  -1
M  CHG 1   8  -1
M  CHG 1  10  -1
M  CHG 1  11  -1
M  END
> <UniqueID>
35

> <SMILES>
O=C(Cc1[n-]c(=O)[n-]c1[O-])[N-]Cc1cccc(Br)c1

> <Energy>
50.727546683951005

> <Genealogy>
O=C(Cc1[n-]c(=O)[n-]c1[O-])[N-]Cc1cccc(Br)c1 (protonated)
O=C(Cc1[n-]c(=O)[n-]c1[O-])[N-]Cc1cccc(Br)c1 (3D coordinates assigned)
O=C(Cc1[n-]c(=O)[n-]c1[O-])[N-]Cc1cccc(Br)c1 (optimized conformer: 50.727546683951005 kcal/mol)

> <smiles>
O=C(Cc1[nH]c(=O)[nH]c1O)NCc1cccc(Br)c1

> <score_type>
oracle

> <origin>
adg

> <m_score__min__energy>
-16.66

> <m_primary>
energy

> <minimizedAffinity>
-3.51686

> <minimizedRMSD>
4.38835

> <CNNscore>
0.1570621431

> <CNNaffinity>
3.3974964619

> <CNN_VS>
0.5336180925

> <CNNaffinity_variance>
0.4192884862

$$$$
61:0


 40 43  0  0  0  0  0  0  0  0999 V2000
   57.6445   28.5439   45.4471 C   0  0  0  0  0  0  0  0  0  0  0  0
   56.9079   29.2650   44.4942 C   0  0  0  0  0  0  0  0  0  0  0  0
   57.1972   30.5704   44.2465 N   0  0  0  0  0  0  0  0  0  0  0  0
   58.2027   31.2284   44.8854 C   0  0  0  0  0  0  0  0  0  0  0  0
   58.4001   32.4846   44.5982 N   0  0  0  0  0  0  0  0  0  0  0  0
   58.9675   30.5385   45.8480 C   0  0  0  0  0  0  0  0  0  0  0  0
   58.6895   29.1969   46.1162 C   0  0  0  0  0  0  0  0  0  0  0  0
   57.3450   27.1189   45.7307 C   0  0  0  0  0  0  0  0  0  0  0  0
   56.1892   26.7932   46.1101 O   0  0  0  0  0  0  0  0  0  0  0  0
   57.3722   22.9943   44.5080 C   0  0  0  0  0  0  0  0  0  0  0  0
   57.1240   24.3550   44.5494 C   0  0  0  0  0  0  0  0  0  0  0  0
   58.1650   24.8589   45.3161 C   0  0  0  0  0  0  0  0  0  0  0  0
   58.3547   26.1006   45.6565 N   0  0  0  0  0  0  0  0  0  0  0  0
   58.9770   23.8655   45.7199 N   0  0  0  0  0  0  0  0  0  0  0  0
   58.4960   22.7368   45.2213 N   0  0  0  0  0  0  0  0  0  0  0  0
   59.1252   21.4389   45.4477 C   0  0  0  0  0  0  0  0  0  0  0  0
   55.9211   20.9447   44.5300 N   0  0  0  0  0  0  0  0  0  0  0  0
   56.5349   22.0046   43.8003 C   0  0  0  0  0  0  0  0  0  0  0  0
   56.3527   22.0824   42.5563 O   0  0  0  0  0  0  0  0  0  0  0  0
   55.3624   20.2833   44.0613 H   0  0  0  0  0  0  0  0  0  0  0  0
   58.3993   33.5894   45.5160 C   0  0  0  0  0  0  0  0  0  0  0  0
   57.5921   34.5354   45.3173 O   0  0  0  0  0  0  0  0  0  0  0  0
   59.3743   33.6780   46.6334 C   0  0  0  0  0  0  0  0  0  0  0  0
   58.9468   33.9788   47.9328 C   0  0  0  0  0  0  0  0  0  0  0  0
   59.8613   34.0438   48.9791 C   0  0  0  0  0  0  0  0  0  0  0  0
   61.2288   33.7934   48.7645 C   0  0  0  0  0  0  0  0  0  0  0  0
   61.6848   33.5133   47.4456 C   0  0  0  0  0  0  0  0  0  0  0  0
   60.7385   33.4453   46.4002 C   0  0  0  0  0  0  0  0  0  0  0  0
   63.1537   33.2909   47.1335 C   0  0  0  0  0  0  0  0  0  0  0  0
   63.4171   31.9339   47.0645 F   0  0  0  0  0  0  0  0  0  0  0  0
   63.4702   33.8850   45.9267 F   0  0  0  0  0  0  0  0  0  0  0  0
   63.9792   33.8314   48.1029 F   0  0  0  0  0  0  0  0  0  0  0  0
   62.1509   33.8686   49.9698 C   0  0  0  0  0  0  0  0  0  0  0  0
   61.9636   32.7019   50.8607 N   0  0  0  0  0  0  0  0  0  0  0  0
   60.6157   32.7123   51.4816 C   0  0  0  0  0  0  0  0  0  0  0  0
   60.2345   31.3241   52.0160 C   0  0  0  0  0  0  0  0  0  0  0  0
   60.2068   30.2960   50.9446 N   0  0  0  0  0  0  0  0  0  0  0  0
   58.8283   29.9792   50.5415 C   0  0  0  0  0  0  0  0  0  0  0  0
   61.0221   30.6513   49.7612 C   0  0  0  0  0  0  0  0  0  0  0  0
   62.2821   31.4267   50.1682 C   0  0  0  0  0  0  0  0  0  0  0  0
 17 18  1  0
 18 19  2  0
 18 10  1  0
 10 11  2  0
 11 12  1  0
 12 13  2  0
 13  8  1  0
  8  9  2  0
  8  1  1  0
  1  2  2  0
  2  3  1  0
  3  4  1  0
  4  5  2  0
  5 21  1  0
 21 22  2  0
 21 23  1  0
 23 24  2  0
 24 25  1  0
 25 26  2  0
 26 33  1  0
 33 34  1  0
 34 35  1  0
 35 36  1  0
 36 37  1  0
 37 38  1  0
 37 39  1  0
 39 40  1  0
 26 27  1  0
 27 29  1  0
 29 30  1  0
 29 31  1  0
 29 32  1  0
 27 28  2  0
  4  6  1  0
  6  7  2  0
 12 14  1  0
 14 15  1  0
 15 16  1  0
 15 10  1  0
  7  1  1  0
 28 23  1  0
 40 34  1  0
 17 20  1  0
M  CHG 1   3  -1
M  CHG 1  14  -1
M  CHG 1  17  -1
M  END
> <UniqueID>
60

> <SMILES>
CN1CCN(Cc2ccc(C(=O)/N=c3\ccc(C(=O)N=c4cc(C([NH-])=O)n(C)[n-]4)c[n-]3)cc2C(F)(F)F)CC1

> <Energy>
132.52077877963544

> <Genealogy>
CN1CCN(Cc2ccc(C(=O)N=c3ccc(C(=O)N=c4cc(C([NH-])=O)n(C)[n-]4)c[n-]3)cc2C(F)(F)F)CC1 (protonated)
CN1CCN(Cc2ccc(C(=O)/N=c3\ccc(C(=O)N=c4cc(C([NH-])=O)n(C)[n-]4)c[n-]3)cc2C(F)(F)F)CC1 (cis-trans isomerization)
CN1CCN(Cc2ccc(C(=O)/N=c3\ccc(C(=O)N=c4cc(C([NH-])=O)n(C)[n-]4)c[n-]3)cc2C(F)(F)F)CC1 (3D coordinates assigned)
CN1CCN(Cc2ccc(C(=O)/N=c3\ccc(C(=O)N=c4cc(C([NH-])=O)n(C)[n-]4)c[n-]3)cc2C(F)(F)F)CC1 (nonaromatic ring conformer: 132.52077877963544 kcal/mol)

> <smiles>
CN1CCN(Cc2ccc(C(=O)N=c3ccc(C(=O)N=c4cc(C(N)=O)n(C)[nH]4)c[nH]3)cc2C(F)(F)F)CC1

> <score_type>
oracle

> <origin>
adg

> <m_score__min__energy>
-15.51

> <m_primary>
energy

> <minimizedAffinity>
-9.17112

> <minimizedRMSD>
1.31723

> <CNNscore>
0.1326943189

> <CNNaffinity>
6.8228049278

> <CNN_VS>
0.9053474665

> <CNNaffinity_variance>
0.1520389467

$$$$
63:0


 25 27  0  0  0  0  0  0  0  0999 V2000
   55.6024   30.2482   53.5224 N   0  0  0  0  0  0  0  0  0  0  0  0
   56.6099   30.4818   52.7338 C   0  0  0  0  0  0  0  0  0  0  0  0
   57.2209   29.5010   52.0387 N   0  0  0  0  0  0  0  0  0  0  0  0
   58.2025   29.9473   51.2556 N   0  0  0  0  0  0  0  0  0  0  0  0
   58.3730   31.2875   51.3153 C   0  0  0  0  0  0  0  0  0  0  0  0
   57.2702   31.9969   52.3767 S   0  0  0  0  0  0  0  0  0  0  0  0
   59.3855   32.0186   50.5398 C   0  0  0  0  0  0  0  0  0  0  0  0
   59.6960   33.1910   50.8821 O   0  0  0  0  0  0  0  0  0  0  0  0
   60.0393   31.3919   49.4235 N   0  0  0  0  0  0  0  0  0  0  0  0
   59.8943   30.4291   49.2776 H   0  0  0  0  0  0  0  0  0  0  0  0
   60.8943   32.0994   48.5089 C   0  0  0  0  0  0  0  0  0  0  0  0
   62.2930   32.0127   48.6371 C   0  0  0  0  0  0  0  0  0  0  0  0
   63.1316   32.7260   47.7771 C   0  0  0  0  0  0  0  0  0  0  0  0
   62.5855   33.5438   46.7890 C   0  0  0  0  0  0  0  0  0  0  0  0
   61.2000   33.6539   46.6564 C   0  0  0  0  0  0  0  0  0  0  0  0
   60.3434   32.9337   47.5057 C   0  0  0  0  0  0  0  0  0  0  0  0
   58.8539   33.0718   47.3434 C   0  0  0  0  0  0  0  0  0  0  0  0
   54.3879   29.5807   53.1511 C   0  0  0  0  0  0  0  0  0  0  0  0
   54.3215   28.3292   53.2697 O   0  0  0  0  0  0  0  0  0  0  0  0
   51.2399   31.3616   52.7401 C   0  0  0  0  0  0  0  0  0  0  0  0
   51.8577   31.4828   51.5162 C   0  0  0  0  0  0  0  0  0  0  0  0
   51.3251   32.1609   50.4279 O   0  0  0  0  0  0  0  0  0  0  0  0
   53.0528   30.8645   51.4874 N   0  0  0  0  0  0  0  0  0  0  0  0
   53.1953   30.3333   52.7196 C   0  0  0  0  0  0  0  0  0  0  0  0
   52.1038   30.6258   53.5198 C   0  0  0  0  0  0  0  0  0  0  0  0
 20 21  2  0
 21 22  1  0
 21 23  1  0
 23 24  1  0
 24 18  1  0
 18 19  2  0
 18  1  1  0
  1  2  2  0
  2  3  1  0
  3  4  1  0
  4  5  2  0
  5  7  1  0
  7  8  2  0
  7  9  1  0
  9 11  1  0
 11 12  2  0
 12 13  1  0
 13 14  2  0
 14 15  1  0
 15 16  2  0
 16 17  1  0
  5  6  1  0
 24 25  2  0
 25 20  1  0
  6  2  1  0
 16 11  1  0
  9 10  1  0
M  CHG 1   3  -1
M  CHG 1  22  -1
M  CHG 1  23  -1
M  END
> <UniqueID>
62

> <SMILES>
Cc1ccccc1NC(=O)c1n[n-]/c(=N/C(=O)c2ccc([O-])[n-]2)s1

> <Energy>
105.88858806692247

> <Genealogy>
Cc1ccccc1NC(=O)c1n[n-]c(=NC(=O)c2ccc([O-])[n-]2)s1 (protonated)
Cc1ccccc1NC(=O)c1n[n-]/c(=N/C(=O)c2ccc([O-])[n-]2)s1 (cis-trans isomerization)
Cc1ccccc1NC(=O)c1n[n-]/c(=N/C(=O)c2ccc([O-])[n-]2)s1 (3D coordinates assigned)
Cc1ccccc1NC(=O)c1n[n-]/c(=N/C(=O)c2ccc([O-])[n-]2)s1 (optimized conformer: 105.88858806692247 kcal/mol)

> <smiles>
Cc1ccccc1NC(=O)c1n[nH]c(=NC(=O)c2ccc(O)[nH]2)s1

> <score_type>
oracle

> <origin>
adg

> <m_score__min__energy>
-15.23

> <m_primary>
energy

> <minimizedAffinity>
-7.17186

> <minimizedRMSD>
0.66195

> <CNNscore>
0.3532764614

> <CNNaffinity>
5.6569614410

> <CNN_VS>
1.9984713793

> <CNNaffinity_variance>
0.1234744787

$$$$
67:0


 27 29  0  0  0  0  0  0  0  0999 V2000
   58.4821   26.9323   43.5202 C   0  0  0  0  0  0  0  0  0  0  0  0
   58.7951   26.7462   44.8138 C   0  0  0  0  0  0  0  0  0  0  0  0
   58.4201   25.6546   45.6174 C   0  0  0  0  0  0  0  0  0  0  0  0
   57.8335   24.4807   45.3056 C   0  0  0  0  0  0  0  0  0  0  0  0
   58.8161   25.9672   46.9053 C   0  0  0  0  0  0  0  0  0  0  0  0
   59.4572   27.1858   46.8442 C   0  0  0  0  0  0  0  0  0  0  0  0
   60.1138   27.8508   48.0166 C   0  0  0  0  0  0  0  0  0  0  0  0
   59.4528   27.6635   45.5772 N   0  0  0  0  0  0  0  0  0  0  0  0
   56.3893   24.1870   45.4034 C   0  0  0  0  0  0  0  0  0  0  0  0
   55.4704   25.1705   45.8107 C   0  0  0  0  0  0  0  0  0  0  0  0
   55.9021   26.4415   46.1707 O   0  0  0  0  0  0  0  0  0  0  0  0
   54.1442   24.8813   45.8501 N   0  0  0  0  0  0  0  0  0  0  0  0
   53.6818   23.6587   45.4843 C   0  0  0  0  0  0  0  0  0  0  0  0
   52.4484   23.4132   45.5313 O   0  0  0  0  0  0  0  0  0  0  0  0
   54.5478   22.7022   45.0589 N   0  0  0  0  0  0  0  0  0  0  0  0
   55.8839   22.9414   45.0027 C   0  0  0  0  0  0  0  0  0  0  0  0
   56.6589   22.0326   44.5979 O   0  0  0  0  0  0  0  0  0  0  0  0
   60.1105   28.9084   45.1432 C   0  0  0  0  0  0  0  0  0  0  0  0
   59.1843   30.0837   45.3230 C   0  0  0  0  0  0  0  0  0  0  0  0
   58.0515   30.2255   44.5057 C   0  0  0  0  0  0  0  0  0  0  0  0
   57.1854   31.3060   44.6861 C   0  0  0  0  0  0  0  0  0  0  0  0
   57.4387   32.2526   45.6802 C   0  0  0  0  0  0  0  0  0  0  0  0
   58.5690   32.1294   46.5081 C   0  0  0  0  0  0  0  0  0  0  0  0
   59.4381   31.0411   46.3186 C   0  0  0  0  0  0  0  0  0  0  0  0
   58.8400   33.1276   47.5661 C   0  0  0  0  0  0  0  0  0  0  0  0
   59.0180   32.7647   48.7596 O   0  0  0  0  0  0  0  0  0  0  0  0
   58.9066   34.4815   47.2565 O   0  0  0  0  0  0  0  0  0  0  0  0
  1  2  2  0
  2  3  1  0
  3  4  2  0
  4  9  1  0
  9 10  2  0
 10 11  1  0
 10 12  1  0
 12 13  1  0
 13 14  2  0
 13 15  1  0
 15 16  1  0
 16 17  2  0
  3  5  1  0
  5  6  2  0
  6  7  1  0
  6  8  1  0
  8 18  1  0
 18 19  1  0
 19 20  2  0
 20 21  1  0
 21 22  2  0
 22 23  1  0
 23 25  1  0
 25 26  2  0
 25 27  1  0
 23 24  2  0
  8  2  1  0
 24 19  1  0
 16  9  1  0
M  CHG 1  11  -1
M  CHG 1  12  -1
M  CHG 1  15  -1
M  CHG 1  27  -1
M  END
> <UniqueID>
66

> <SMILES>
C=c1/c(=C\c2c([O-])[n-]c(=O)[n-]c2=O)cc(C)n1Cc1cccc(C(=O)[O-])c1

> <Energy>
85.83132885805435

> <Genealogy>
C=c1c(=Cc2c([O-])[n-]c(=O)[n-]c2=O)cc(C)n1Cc1cccc(C(=O)[O-])c1 (protonated)
C=c1/c(=C\c2c([O-])[n-]c(=O)[n-]c2=O)cc(C)n1Cc1cccc(C(=O)[O-])c1 (cis-trans isomerization)
C=c1/c(=C\c2c([O-])[n-]c(=O)[n-]c2=O)cc(C)n1Cc1cccc(C(=O)[O-])c1 (3D coordinates assigned)
C=c1/c(=C\c2c([O-])[n-]c(=O)[n-]c2=O)cc(C)n1Cc1cccc(C(=O)[O-])c1 (optimized conformer: 85.83132885805435 kcal/mol)

> <smiles>
C=c1c(=Cc2c(O)[nH]c(=O)[nH]c2=O)cc(C)n1Cc1cccc(C(=O)O)c1

> <score_type>
oracle

> <origin>
adg

> <m_score__min__energy>
-16.469999999999999

> <m_primary>
energy

> <minimizedAffinity>
-7.57288

> <minimizedRMSD>
0.85873

> <CNNscore>
0.0685460344

> <CNNaffinity>
5.6513142586

> <CNN_VS>
0.3873751760

> <CNNaffinity_variance>
0.1021951735

$$$$
76:0


 23 24  0  0  0  0  0  0  0  0999 V2000
   58.4115   25.8971   46.3571 C   0  0  0  0  0  0  0  0  0  0  0  0
   59.8054   25.9201   46.5435 C   0  0  0  0  0  0  0  0  0  0  0  0
   60.5279   27.0905   46.3105 C   0  0  0  0  0  0  0  0  0  0  0  0
   59.8733   28.2498   45.8911 C   0  0  0  0  0  0  0  0  0  0  0  0
   58.4849   28.2475   45.7030 C   0  0  0  0  0  0  0  0  0  0  0  0
   57.7559   27.0668   45.9378 C   0  0  0  0  0  0  0  0  0  0  0  0
   56.3769   27.0502   45.7543 O   0  0  0  0  0  0  0  0  0  0  0  0
   57.6570   29.7125   45.1744 S   0  0  0  0  0  0  0  0  0  0  0  0
   56.1970   29.4073   44.9855 O   0  0  0  0  0  0  0  0  0  0  0  0
   58.2612   30.1742   43.8788 O   0  0  0  0  0  0  0  0  0  0  0  0
   57.8312   30.9613   46.3659 N   0  0  0  0  0  0  0  0  0  0  0  0
   58.5870   32.1681   46.1976 C   0  0  0  0  0  0  0  0  0  0  0  0
   58.1461   33.2140   45.3626 C   0  0  0  0  0  0  0  0  0  0  0  0
   58.9117   34.3759   45.2244 C   0  0  0  0  0  0  0  0  0  0  0  0
   60.1190   34.5054   45.9141 C   0  0  0  0  0  0  0  0  0  0  0  0
   60.5640   33.4741   46.7444 C   0  0  0  0  0  0  0  0  0  0  0  0
   59.8022   32.3088   46.8871 C   0  0  0  0  0  0  0  0  0  0  0  0
   60.2565   31.2901   47.7158 O   0  0  0  0  0  0  0  0  0  0  0  0
   57.6317   24.7149   46.5847 N   0  0  0  0  0  0  0  0  0  0  0  0
   56.8238   23.8372   43.9611 C   0  0  0  0  0  0  0  0  0  0  0  0
   57.5227   23.3473   45.5229 S   0  0  0  0  0  0  0  0  0  0  0  0
   58.8825   22.7396   45.3227 O   0  0  0  0  0  0  0  0  0  0  0  0
   56.6232   22.3205   46.1512 O   0  0  0  0  0  0  0  0  0  0  0  0
 20 21  1  0
 21 22  2  0
 21 23  2  0
 21 19  1  0
 19  1  1  0
  1  2  2  0
  2  3  1  0
  3  4  2  0
  4  5  1  0
  5  8  1  0
  8  9  2  0
  8 10  2  0
  8 11  1  0
 11 12  1  0
 12 13  2  0
 13 14  1  0
 14 15  2  0
 15 16  1  0
 16 17  2  0
 17 18  1  0
  5  6  2  0
  6  7  1  0
  6  1  1  0
 17 12  1  0
M  CHG 1   7  -1
M  CHG 1  11  -1
M  CHG 1  18  -1
M  CHG 1  19  -1
M  END
> <UniqueID>
74

> <SMILES>
CS(=O)(=O)[N-]c1cccc(S(=O)(=O)[N-]c2ccccc2[O-])c1[O-]

> <Energy>
38.36163122340165

> <Genealogy>
CS(=O)(=O)[N-]c1cccc(S(=O)(=O)[N-]c2ccccc2[O-])c1[O-] (protonated)
CS(=O)(=O)[N-]c1cccc(S(=O)(=O)[N-]c2ccccc2[O-])c1[O-] (3D coordinates assigned)
CS(=O)(=O)[N-]c1cccc(S(=O)(=O)[N-]c2ccccc2[O-])c1[O-] (optimized conformer: 38.36163122340165 kcal/mol)

> <smiles>
CS(=O)(=O)Nc1cccc(S(=O)(=O)Nc2ccccc2O)c1O

> <score_type>
oracle

> <origin>
adg

> <m_score__min__energy>
-17.440000000000001

> <m_primary>
energy

> <minimizedAffinity>
-7.22526

> <minimizedRMSD>
2.10325

> <CNNscore>
0.8022228479

> <CNNaffinity>
6.3515968323

> <CNN_VS>
5.0953960419

> <CNNaffinity_variance>
0.0218235310

$$$$
83:0


 25 26  0  0  0  0  0  0  0  0999 V2000
   57.6782   28.8513   45.5494 C   0  0  0  0  0  0  0  0  0  0  0  0
   56.8767   29.6087   44.9415 O   0  0  0  0  0  0  0  0  0  0  0  0
   57.2498   27.5206   45.8840 N   0  0  0  0  0  0  0  0  0  0  0  0
   57.5759   26.4039   45.3004 C   0  0  0  0  0  0  0  0  0  0  0  0
   57.1402   25.0682   45.7626 C   0  0  0  0  0  0  0  0  0  0  0  0
   55.7997   24.8082   46.0928 C   0  0  0  0  0  0  0  0  0  0  0  0
   54.8322   25.7989   45.9763 O   0  0  0  0  0  0  0  0  0  0  0  0
   55.4384   23.5777   46.5416 N   0  0  0  0  0  0  0  0  0  0  0  0
   56.3583   22.5915   46.6987 C   0  0  0  0  0  0  0  0  0  0  0  0
   55.8942   21.1227   47.2360 S   0  0  0  0  0  0  0  0  0  0  0  0
   57.6654   22.8302   46.4202 N   0  0  0  0  0  0  0  0  0  0  0  0
   58.0769   24.0417   45.9675 C   0  0  0  0  0  0  0  0  0  0  0  0
   59.2992   24.2314   45.7254 O   0  0  0  0  0  0  0  0  0  0  0  0
   59.0162   29.4044   45.9687 C   0  0  0  0  0  0  0  0  0  0  0  0
   58.8914   30.2882   47.0832 O   0  0  0  0  0  0  0  0  0  0  0  0
   60.2895   33.6295   48.0339 C   0  0  0  0  0  0  0  0  0  0  0  0
   59.8198   34.3921   46.9587 C   0  0  0  0  0  0  0  0  0  0  0  0
   59.0327   33.8045   45.9667 C   0  0  0  0  0  0  0  0  0  0  0  0
   58.7262   32.4440   46.0294 C   0  0  0  0  0  0  0  0  0  0  0  0
   59.2137   31.6540   47.0787 C   0  0  0  0  0  0  0  0  0  0  0  0
   60.0053   32.2528   48.0783 C   0  0  0  0  0  0  0  0  0  0  0  0
   61.1154   34.2611   49.0224 N   0  0  0  0  0  0  0  0  0  0  0  0
   63.4204   33.4585   48.2264 C   0  0  0  0  0  0  0  0  0  0  0  0
   62.4990   33.9900   49.2827 C   0  0  0  0  0  0  0  0  0  0  0  0
   62.9464   34.1714   50.4452 O   0  0  0  0  0  0  0  0  0  0  0  0
 23 24  1  0
 24 25  2  0
 24 22  1  0
 22 16  1  0
 16 17  2  0
 17 18  1  0
 18 19  2  0
 19 20  1  0
 20 15  1  0
 15 14  1  0
 14  1  1  0
  1  2  2  0
  1  3  1  0
  3  4  2  0
  4  5  1  0
  5  6  2  0
  6  7  1  0
  6  8  1  0
  8  9  1  0
  9 10  2  0
  9 11  1  0
 11 12  1  0
 12 13  2  0
 20 21  2  0
 21 16  1  0
 12  5  1  0
M  CHG 1   7  -1
M  CHG 1   8  -1
M  CHG 1  11  -1
M  CHG 1  22  -1
M  END
> <UniqueID>
80

> <SMILES>
CC(=O)[N-]c1cccc(OCC(=O)N=Cc2c([O-])[n-]c(=S)[n-]c2=O)c1

> <Energy>
51.50588926193572

> <Genealogy>
CC(=O)[N-]c1cccc(OCC(=O)N=Cc2c([O-])[n-]c(=S)[n-]c2=O)c1 (protonated)
CC(=O)[N-]c1cccc(OCC(=O)N=Cc2c([O-])[n-]c(=S)[n-]c2=O)c1 (3D coordinates assigned)
CC(=O)[N-]c1cccc(OCC(=O)N=Cc2c([O-])[n-]c(=S)[n-]c2=O)c1 (optimized conformer: 51.50588926193572 kcal/mol)

> <smiles>
CC(=O)Nc1cccc(OCC(=O)N=Cc2c(O)[nH]c(=S)[nH]c2=O)c1

> <score_type>
oracle

> <origin>
adg

> <m_score__min__energy>
-16.199999999999999

> <m_primary>
energy

> <minimizedAffinity>
-7.17354

> <minimizedRMSD>
1.43032

> <CNNscore>
0.6661058664

> <CNNaffinity>
6.8938260078

> <CNN_VS>
4.5920181274

> <CNNaffinity_variance>
1.2856554985

$$$$
9:0


 27 29  0  0  0  0  0  0  0  0999 V2000
   59.4343   26.4213   47.4198 C   0  0  0  0  0  0  0  0  0  0  0  0
   58.8710   26.2760   46.2085 C   0  0  0  0  0  0  0  0  0  0  0  0
   57.8736   25.3520   45.8775 C   0  0  0  0  0  0  0  0  0  0  0  0
   57.2666   24.4697   46.6955 C   0  0  0  0  0  0  0  0  0  0  0  0
   57.5818   25.5543   44.5376 C   0  0  0  0  0  0  0  0  0  0  0  0
   58.4099   26.5669   44.1003 C   0  0  0  0  0  0  0  0  0  0  0  0
   58.3685   27.1443   42.7170 C   0  0  0  0  0  0  0  0  0  0  0  0
   59.1961   27.0124   45.1101 N   0  0  0  0  0  0  0  0  0  0  0  0
   55.9563   23.8469   46.3974 C   0  0  0  0  0  0  0  0  0  0  0  0
   54.8463   24.6518   46.1028 C   0  0  0  0  0  0  0  0  0  0  0  0
   54.9699   26.0374   46.0533 O   0  0  0  0  0  0  0  0  0  0  0  0
   53.6394   24.0824   45.8538 N   0  0  0  0  0  0  0  0  0  0  0  0
   53.4786   22.7344   45.8975 C   0  0  0  0  0  0  0  0  0  0  0  0
   52.3522   22.2284   45.6565 O   0  0  0  0  0  0  0  0  0  0  0  0
   54.5302   21.9345   46.2053 N   0  0  0  0  0  0  0  0  0  0  0  0
   55.7568   22.4552   46.4645 C   0  0  0  0  0  0  0  0  0  0  0  0
   56.7002   21.6827   46.7821 O   0  0  0  0  0  0  0  0  0  0  0  0
   60.1548   28.1262   45.0111 C   0  0  0  0  0  0  0  0  0  0  0  0
   59.4814   29.4360   45.3321 C   0  0  0  0  0  0  0  0  0  0  0  0
   59.8982   30.2004   46.4329 C   0  0  0  0  0  0  0  0  0  0  0  0
   59.2830   31.4200   46.7224 C   0  0  0  0  0  0  0  0  0  0  0  0
   58.2372   31.9004   45.9162 C   0  0  0  0  0  0  0  0  0  0  0  0
   57.8181   31.1328   44.8165 C   0  0  0  0  0  0  0  0  0  0  0  0
   58.4342   29.9119   44.5278 C   0  0  0  0  0  0  0  0  0  0  0  0
   57.5837   33.1928   46.2153 C   0  0  0  0  0  0  0  0  0  0  0  0
   57.2800   33.4989   47.3998 O   0  0  0  0  0  0  0  0  0  0  0  0
   57.2938   34.0913   45.1945 O   0  0  0  0  0  0  0  0  0  0  0  0
  1  2  2  0
  2  3  1  0
  3  4  2  0
  4  9  1  0
  9 10  2  0
 10 11  1  0
 10 12  1  0
 12 13  1  0
 13 14  2  0
 13 15  1  0
 15 16  1  0
 16 17  2  0
  3  5  1  0
  5  6  2  0
  6  7  1  0
  6  8  1  0
  8 18  1  0
 18 19  1  0
 19 20  2  0
 20 21  1  0
 21 22  2  0
 22 25  1  0
 25 26  2  0
 25 27  1  0
 22 23  1  0
 23 24  2  0
  8  2  1  0
 24 19  1  0
 16  9  1  0
M  CHG 1  11  -1
M  CHG 1  12  -1
M  CHG 1  15  -1
M  CHG 1  27  -1
M  END
> <UniqueID>
10

> <SMILES>
C=c1c(=Cc2c([O-])[n-]c(=O)[n-]c2=O)cc(C)n1Cc1ccc(C(=O)[O-])cc1

> <Energy>
81.7729252595162

> <Genealogy>
C=c1c(=Cc2c([O-])[n-]c(=O)[n-]c2=O)cc(C)n1Cc1ccc(C(=O)[O-])cc1 (protonated)
C=c1c(=Cc2c([O-])[n-]c(=O)[n-]c2=O)cc(C)n1Cc1ccc(C(=O)[O-])cc1 (3D coordinates assigned)
C=c1c(=Cc2c([O-])[n-]c(=O)[n-]c2=O)cc(C)n1Cc1ccc(C(=O)[O-])cc1 (optimized conformer: 81.7729252595162 kcal/mol)

> <smiles>
C=c1c(=Cc2c(O)[nH]c(=O)[nH]c2=O)cc(C)n1Cc1ccc(C(=O)O)cc1

> <score_type>
oracle

> <origin>
adg

> <m_score__min__energy>
-16.210000000000001

> <m_primary>
energy

> <minimizedAffinity>
-6.69373

> <minimizedRMSD>
0.63903

> <CNNscore>
0.0683068633

> <CNNaffinity>
5.2761120796

> <CNN_VS>
0.3603946567

> <CNNaffinity_variance>
0.0886497721

$$$$
11:0


 28 31  0  0  0  0  0  0  0  0999 V2000
   58.5198   29.7992   44.4580 C   0  0  0  0  0  0  0  0  0  0  0  0
   58.7119   29.1311   45.6062 C   0  0  0  0  0  0  0  0  0  0  0  0
   58.3742   27.7948   45.8805 C   0  0  0  0  0  0  0  0  0  0  0  0
   57.9529   26.8023   45.0714 C   0  0  0  0  0  0  0  0  0  0  0  0
   58.5843   27.6132   47.2376 C   0  0  0  0  0  0  0  0  0  0  0  0
   59.0899   28.7990   47.7273 C   0  0  0  0  0  0  0  0  0  0  0  0
   59.4974   29.0315   49.1517 C   0  0  0  0  0  0  0  0  0  0  0  0
   59.1784   29.7156   46.7395 N   0  0  0  0  0  0  0  0  0  0  0  0
   57.4702   25.4829   45.5107 C   0  0  0  0  0  0  0  0  0  0  0  0
   58.2417   24.3868   45.6348 N   0  0  0  0  0  0  0  0  0  0  0  0
   57.4108   23.4836   46.1970 C   0  0  0  0  0  0  0  0  0  0  0  0
   57.7678   22.3054   46.4599 O   0  0  0  0  0  0  0  0  0  0  0  0
   56.1708   23.9445   46.4656 N   0  0  0  0  0  0  0  0  0  0  0  0
   56.2308   25.2153   46.0384 C   0  0  0  0  0  0  0  0  0  0  0  0
   55.1770   26.1156   46.1365 O   0  0  0  0  0  0  0  0  0  0  0  0
   59.6119   31.0769   46.9093 C   0  0  0  0  0  0  0  0  0  0  0  0
   58.7092   32.1344   46.7333 C   0  0  0  0  0  0  0  0  0  0  0  0
   59.1325   33.4523   46.9064 C   0  0  0  0  0  0  0  0  0  0  0  0
   60.4540   33.7239   47.2680 C   0  0  0  0  0  0  0  0  0  0  0  0
   61.3690   32.6749   47.4706 C   0  0  0  0  0  0  0  0  0  0  0  0
   60.9376   31.3497   47.2789 C   0  0  0  0  0  0  0  0  0  0  0  0
   62.7678   32.9731   47.8567 C   0  0  0  0  0  0  0  0  0  0  0  0
   63.5685   33.4212   46.9909 O   0  0  0  0  0  0  0  0  0  0  0  0
   63.2222   32.7757   49.2033 N   0  0  0  0  0  0  0  0  0  0  0  0
   62.5743   32.5175   49.8982 H   0  0  0  0  0  0  0  0  0  0  0  0
   64.6265   32.9502   49.5636 C   0  0  0  0  0  0  0  0  0  0  0  0
   64.8459   33.3230   51.0196 C   0  0  0  0  0  0  0  0  0  0  0  0
   65.1270   31.9053   50.5464 C   0  0  0  0  0  0  0  0  0  0  0  0
  1  2  2  0
  2  3  1  0
  3  4  2  0
  4  9  1  0
  9 10  1  0
 10 11  1  0
 11 12  2  0
 11 13  1  0
 13 14  1  0
 14 15  1  0
  3  5  1  0
  5  6  2  0
  6  7  1  0
  6  8  1  0
  8 16  1  0
 16 17  2  0
 17 18  1  0
 18 19  2  0
 19 20  1  0
 20 22  1  0
 22 23  2  0
 22 24  1  0
 24 26  1  0
 26 27  1  0
 27 28  1  0
 20 21  2  0
  8  2  1  0
 21 16  1  0
 14  9  2  0
 28 26  1  0
 24 25  1  0
M  CHG 1  10  -1
M  CHG 1  13  -1
M  CHG 1  15  -1
M  END
> <UniqueID>
12

> <SMILES>
C=c1c(=Cc2[n-]c(=O)[n-]c2[O-])cc(C)n1-c1cccc(C(=O)NC2CC2)c1

> <Energy>
386.96801750149433

> <Genealogy>
C=c1c(=Cc2[n-]c(=O)[n-]c2[O-])cc(C)n1-c1cccc(C(=O)NC2CC2)c1 (protonated)
C=c1c(=Cc2[n-]c(=O)[n-]c2[O-])cc(C)n1-c1cccc(C(=O)NC2CC2)c1 (3D coordinates assigned)
C=c1c(=Cc2[n-]c(=O)[n-]c2[O-])cc(C)n1-c1cccc(C(=O)NC2CC2)c1 (nonaromatic ring conformer: 386.96801750149433 kcal/mol)

> <smiles>
C=c1c(=Cc2[nH]c(=O)[nH]c2O)cc(C)n1-c1cccc(C(=O)NC2CC2)c1

> <score_type>
oracle

> <origin>
adg

> <m_score__min__energy>
-16.210000000000001

> <m_primary>
energy

> <minimizedAffinity>
-8.78527

> <minimizedRMSD>
0.75557

> <CNNscore>
0.3712483346

> <CNNaffinity>
6.9139142036

> <CNN_VS>
2.5667791367

> <CNNaffinity_variance>
0.2144766301

$$$$
30:0


 33 36  0  0  0  0  0  0  0  0999 V2000
   59.7620   27.4929   47.6804 C   0  0  0  0  0  0  0  0  0  0  0  0
   59.1596   27.5502   46.4832 C   0  0  0  0  0  0  0  0  0  0  0  0
   58.7049   26.4623   45.7312 C   0  0  0  0  0  0  0  0  0  0  0  0
   58.8354   25.1529   46.0228 C   0  0  0  0  0  0  0  0  0  0  0  0
   58.1149   26.9932   44.5923 C   0  0  0  0  0  0  0  0  0  0  0  0
   58.2329   28.3654   44.6888 C   0  0  0  0  0  0  0  0  0  0  0  0
   57.7244   29.3377   43.6677 C   0  0  0  0  0  0  0  0  0  0  0  0
   58.8603   28.7052   45.8372 N   0  0  0  0  0  0  0  0  0  0  0  0
   57.7073   24.1945   45.9991 C   0  0  0  0  0  0  0  0  0  0  0  0
   56.4323   24.6003   46.4234 C   0  0  0  0  0  0  0  0  0  0  0  0
   56.2225   25.8878   46.9021 O   0  0  0  0  0  0  0  0  0  0  0  0
   55.3924   23.7279   46.3768 N   0  0  0  0  0  0  0  0  0  0  0  0
   55.5570   22.4635   45.9118 C   0  0  0  0  0  0  0  0  0  0  0  0
   54.5805   21.6705   45.8849 O   0  0  0  0  0  0  0  0  0  0  0  0
   56.7745   22.0548   45.4709 N   0  0  0  0  0  0  0  0  0  0  0  0
   57.8467   22.8886   45.4932 C   0  0  0  0  0  0  0  0  0  0  0  0
   58.9515   22.4853   45.0435 O   0  0  0  0  0  0  0  0  0  0  0  0
   59.1629   30.0452   46.2646 C   0  0  0  0  0  0  0  0  0  0  0  0
   60.4329   30.3553   46.7700 C   0  0  0  0  0  0  0  0  0  0  0  0
   60.7292   31.6584   47.1788 C   0  0  0  0  0  0  0  0  0  0  0  0
   59.7576   32.6696   47.0953 C   0  0  0  0  0  0  0  0  0  0  0  0
   58.4923   32.3578   46.5664 C   0  0  0  0  0  0  0  0  0  0  0  0
   58.1970   31.0548   46.1578 C   0  0  0  0  0  0  0  0  0  0  0  0
   60.0802   34.0477   47.5374 C   0  0  0  0  0  0  0  0  0  0  0  0
   59.8218   35.0167   46.7762 O   0  0  0  0  0  0  0  0  0  0  0  0
   60.6355   34.3207   48.8321 N   0  0  0  0  0  0  0  0  0  0  0  0
   61.7477   33.6446   49.4356 C   0  0  0  0  0  0  0  0  0  0  0  0
   62.9894   33.6811   48.7870 C   0  0  0  0  0  0  0  0  0  0  0  0
   64.0966   33.0339   49.3420 C   0  0  0  0  0  0  0  0  0  0  0  0
   63.9672   32.3306   50.5424 C   0  0  0  0  0  0  0  0  0  0  0  0
   62.7263   32.2619   51.1814 C   0  0  0  0  0  0  0  0  0  0  0  0
   61.6144   32.9076   50.6293 C   0  0  0  0  0  0  0  0  0  0  0  0
   60.4093   32.7728   51.2386 F   0  0  0  0  0  0  0  0  0  0  0  0
  1  2  2  0
  2  3  1  0
  3  4  2  0
  4  9  1  0
  9 10  2  0
 10 11  1  0
 10 12  1  0
 12 13  1  0
 13 14  2  0
 13 15  1  0
 15 16  1  0
 16 17  2  0
  3  5  1  0
  5  6  2  0
  6  7  1  0
  6  8  1  0
  8 18  1  0
 18 19  2  0
 19 20  1  0
 20 21  2  0
 21 24  1  0
 24 25  2  0
 24 26  1  0
 26 27  1  0
 27 28  2  0
 28 29  1  0
 29 30  2  0
 30 31  1  0
 31 32  2  0
 32 33  1  0
 21 22  1  0
 22 23  2  0
  8  2  1  0
 23 18  1  0
 16  9  1  0
 32 27  1  0
M  CHG 1  11  -1
M  CHG 1  12  -1
M  CHG 1  15  -1
M  CHG 1  26  -1
M  END
> <UniqueID>
30

> <SMILES>
C=c1c(=Cc2c([O-])[n-]c(=O)[n-]c2=O)cc(C)n1-c1ccc(C(=O)[N-]c2ccccc2F)cc1

> <Energy>
106.04466586837633

> <Genealogy>
C=c1c(=Cc2c([O-])[n-]c(=O)[n-]c2=O)cc(C)n1-c1ccc(C(=O)[N-]c2ccccc2F)cc1 (protonated)
C=c1c(=Cc2c([O-])[n-]c(=O)[n-]c2=O)cc(C)n1-c1ccc(C(=O)[N-]c2ccccc2F)cc1 (3D coordinates assigned)
C=c1c(=Cc2c([O-])[n-]c(=O)[n-]c2=O)cc(C)n1-c1ccc(C(=O)[N-]c2ccccc2F)cc1 (optimized conformer: 106.04466586837633 kcal/mol)

> <smiles>
C=c1c(=Cc2c(O)[nH]c(=O)[nH]c2=O)cc(C)n1-c1ccc(C(=O)Nc2ccccc2F)cc1

> <score_type>
oracle

> <origin>
adg

> <m_score__min__energy>
-17.390000000000001

> <m_primary>
energy

> <minimizedAffinity>
-9.43175

> <minimizedRMSD>
1.22656

> <CNNscore>
0.1666279137

> <CNNaffinity>
6.8900089264

> <CNN_VS>
1.1480678320

> <CNNaffinity_variance>
0.0235330090

$$$$
52:0


 31 34  0  0  0  0  0  0  0  0999 V2000
   57.7677   33.2460   44.3601 N   0  0  0  0  0  0  0  0  0  0  0  0
   58.7277   33.5397   45.3842 C   0  0  0  0  0  0  0  0  0  0  0  0
   59.0299   34.8624   45.7531 C   0  0  0  0  0  0  0  0  0  0  0  0
   59.9831   35.1149   46.7409 C   0  0  0  0  0  0  0  0  0  0  0  0
   60.6514   34.0561   47.3593 C   0  0  0  0  0  0  0  0  0  0  0  0
   60.3706   32.7350   46.9884 C   0  0  0  0  0  0  0  0  0  0  0  0
   59.4179   32.4823   45.9906 C   0  0  0  0  0  0  0  0  0  0  0  0
   61.2411   31.4112   47.7587 S   0  0  0  0  0  0  0  0  0  0  0  0
   62.7164   31.7029   47.7595 O   0  0  0  0  0  0  0  0  0  0  0  0
   61.0014   30.1575   46.9620 O   0  0  0  0  0  0  0  0  0  0  0  0
   60.6509   31.2114   49.3947 N   0  0  0  0  0  0  0  0  0  0  0  0
   61.5174   30.3126   50.1891 C   0  0  0  0  0  0  0  0  0  0  0  0
   60.9603   28.8812   50.2853 C   0  0  0  0  0  0  0  0  0  0  0  0
   60.2577   28.5492   49.1088 O   0  0  0  0  0  0  0  0  0  0  0  0
   59.0630   29.3054   49.0221 C   0  0  0  0  0  0  0  0  0  0  0  0
   59.2394   30.7915   49.4172 C   0  0  0  0  0  0  0  0  0  0  0  0
   57.9847   32.0732   42.3707 O   0  0  0  0  0  0  0  0  0  0  0  0
   57.6966   32.0360   43.5960 C   0  0  0  0  0  0  0  0  0  0  0  0
   57.3560   30.7402   44.2126 C   0  0  0  0  0  0  0  0  0  0  0  0
   58.2348   29.7346   44.5634 C   0  0  0  0  0  0  0  0  0  0  0  0
   57.4191   28.7385   45.0605 C   0  0  0  0  0  0  0  0  0  0  0  0
   56.1354   29.1434   45.0191 N   0  0  0  0  0  0  0  0  0  0  0  0
   56.0951   30.3561   44.4877 N   0  0  0  0  0  0  0  0  0  0  0  0
   57.8589   27.4633   45.6639 C   0  0  0  0  0  0  0  0  0  0  0  0
   59.2355   27.2567   45.8608 C   0  0  0  0  0  0  0  0  0  0  0  0
   59.7077   26.0386   46.3550 C   0  0  0  0  0  0  0  0  0  0  0  0
   58.8122   25.0145   46.6641 C   0  0  0  0  0  0  0  0  0  0  0  0
   57.4410   25.2122   46.4973 C   0  0  0  0  0  0  0  0  0  0  0  0
   56.9504   26.4354   46.0225 C   0  0  0  0  0  0  0  0  0  0  0  0
   55.5659   26.6043   45.9583 O   0  0  0  0  0  0  0  0  0  0  0  0
   54.9964   25.9018   46.2035 H   0  0  0  0  0  0  0  0  0  0  0  0
 17 18  2  0
 18  1  1  0
  1  2  1  0
  2  3  2  0
  3  4  1  0
  4  5  2  0
  5  6  1  0
  6  8  1  0
  8  9  2  0
  8 10  2  0
  8 11  1  0
 11 12  1  0
 12 13  1  0
 13 14  1  0
 14 15  1  0
 15 16  1  0
  6  7  2  0
 18 19  1  0
 19 20  1  0
 20 21  2  0
 21 24  1  0
 24 25  2  0
 25 26  1  0
 26 27  2  0
 27 28  1  0
 28 29  2  0
 29 30  1  0
 21 22  1  0
 22 23  1  0
  7  2  1  0
 23 19  2  0
 16 11  1  0
 29 24  1  0
 30 31  1  0
M  CHG 1   1  -1
M  CHG 1  22  -1
M  END
> <UniqueID>
48

> <SMILES>
O=C([N-]c1cccc(S(=O)(=O)N2CCOCC2)c1)c1cc(-c2ccccc2O)[n-]n1

> <Energy>
102.93073474033189

> <Genealogy>
O=C([N-]c1cccc(S(=O)(=O)N2CCOCC2)c1)c1cc(-c2ccccc2O)[n-]n1 (protonated)
O=C([N-]c1cccc(S(=O)(=O)N2CCOCC2)c1)c1cc(-c2ccccc2O)[n-]n1 (3D coordinates assigned)
O=C([N-]c1cccc(S(=O)(=O)N2CCOCC2)c1)c1cc(-c2ccccc2O)[n-]n1 (nonaromatic ring conformer: 102.93073474033189 kcal/mol)

> <smiles>
O=C(Nc1cccc(S(=O)(=O)N2CCOCC2)c1)c1cc(-c2ccccc2O)[nH]n1

> <score_type>
oracle

> <origin>
adg

> <m_score__min__energy>
-14.539999999999999

> <m_primary>
energy

> <minimizedAffinity>
-8.69423

> <minimizedRMSD>
0.42212

> <CNNscore>
0.7750136852

> <CNNaffinity>
6.9742946625

> <CNN_VS>
5.4051737785

> <CNNaffinity_variance>
0.0137284053

$$$$
56:0


 37 40  0  0  0  0  0  0  0  0999 V2000
   58.9932   29.2192   46.7789 C   0  0  0  0  0  0  0  0  0  0  0  0
   60.0496   29.9211   46.1784 C   0  0  0  0  0  0  0  0  0  0  0  0
   61.0487   30.4996   46.9673 C   0  0  0  0  0  0  0  0  0  0  0  0
   61.0070   30.3748   48.3576 C   0  0  0  0  0  0  0  0  0  0  0  0
   59.9674   29.6572   48.9672 C   0  0  0  0  0  0  0  0  0  0  0  0
   58.9723   29.0706   48.1747 C   0  0  0  0  0  0  0  0  0  0  0  0
   59.8748   29.5112   50.7201 S   0  0  0  0  0  0  0  0  0  0  0  0
   58.4310   29.6199   51.1178 O   0  0  0  0  0  0  0  0  0  0  0  0
   60.4058   28.1811   51.1743 O   0  0  0  0  0  0  0  0  0  0  0  0
   60.8161   30.7846   51.4548 N   0  0  0  0  0  0  0  0  0  0  0  0
   62.2564   30.6022   51.6564 C   0  0  0  0  0  0  0  0  0  0  0  0
   62.5889   30.8149   53.1314 C   0  0  0  0  0  0  0  0  0  0  0  0
   62.2066   32.2349   53.5630 C   0  0  0  0  0  0  0  0  0  0  0  0
   60.8195   32.6262   53.1072 C   0  0  0  0  0  0  0  0  0  0  0  0
   60.1919   33.7308   53.7025 C   0  0  0  0  0  0  0  0  0  0  0  0
   58.9289   34.1430   53.2752 C   0  0  0  0  0  0  0  0  0  0  0  0
   58.2935   33.4731   52.2288 C   0  0  0  0  0  0  0  0  0  0  0  0
   58.9149   32.3859   51.6096 C   0  0  0  0  0  0  0  0  0  0  0  0
   60.1776   31.9397   52.0478 C   0  0  0  0  0  0  0  0  0  0  0  0
   57.9492   28.5994   45.9406 C   0  0  0  0  0  0  0  0  0  0  0  0
   57.9535   27.3502   45.7787 O   0  0  0  0  0  0  0  0  0  0  0  0
   56.9271   29.3718   45.3000 N   0  0  0  0  0  0  0  0  0  0  0  0
   57.0471   29.9967   43.9860 C   0  0  0  0  0  0  0  0  0  0  0  0
   57.9690   32.0397   43.1701 O   0  0  0  0  0  0  0  0  0  0  0  0
   57.4396   31.4312   44.1375 C   0  0  0  0  0  0  0  0  0  0  0  0
   57.1629   32.1218   45.3597 N   0  0  0  0  0  0  0  0  0  0  0  0
   57.6941   33.4445   45.6609 C   0  0  0  0  0  0  0  0  0  0  0  0
   58.4481   33.4148   46.9624 C   0  0  0  0  0  0  0  0  0  0  0  0
   58.1283   32.5615   47.8320 O   0  0  0  0  0  0  0  0  0  0  0  0
   59.4872   34.3612   47.2687 N   0  0  0  0  0  0  0  0  0  0  0  0
   60.8074   34.0488   47.7297 C   0  0  0  0  0  0  0  0  0  0  0  0
   61.8421   33.7373   46.8313 C   0  0  0  0  0  0  0  0  0  0  0  0
   63.1238   33.4442   47.3112 C   0  0  0  0  0  0  0  0  0  0  0  0
   63.3756   33.4385   48.6861 C   0  0  0  0  0  0  0  0  0  0  0  0
   64.6188   33.1571   49.1499 F   0  0  0  0  0  0  0  0  0  0  0  0
   62.3381   33.7119   49.5854 C   0  0  0  0  0  0  0  0  0  0  0  0
   61.0564   34.0063   49.1073 C   0  0  0  0  0  0  0  0  0  0  0  0
 24 25  2  0
 25 23  1  0
 23 22  1  0
 22 20  1  0
 20 21  2  0
 20  1  1  0
  1  2  2  0
  2  3  1  0
  3  4  2  0
  4  5  1  0
  5  7  1  0
  7  8  2  0
  7  9  2  0
  7 10  1  0
 10 11  1  0
 11 12  1  0
 12 13  1  0
 13 14  1  0
 14 15  2  0
 15 16  1  0
 16 17  2  0
 17 18  1  0
 18 19  2  0
  5  6  2  0
 25 26  1  0
 26 27  1  0
 27 28  1  0
 28 29  2  0
 28 30  1  0
 30 31  1  0
 31 32  2  0
 32 33  1  0
 33 34  2  0
 34 35  1  0
 34 36  1  0
 36 37  2  0
  6  1  1  0
 37 31  1  0
 19 10  1  0
 19 14  1  0
M  CHG 1  22  -1
M  CHG 1  26  -1
M  CHG 1  30  -1
M  END
> <UniqueID>
52

> <SMILES>
O=C(C[N-]C(=O)c1cccc(S(=O)(=O)N2CCCc3ccccc32)c1)[N-]CC(=O)[N-]c1ccc(F)cc1

> <Energy>
65.83305572036669

> <Genealogy>
O=C(C[N-]C(=O)c1cccc(S(=O)(=O)N2CCCc3ccccc32)c1)[N-]CC(=O)[N-]c1ccc(F)cc1 (protonated)
O=C(C[N-]C(=O)c1cccc(S(=O)(=O)N2CCCc3ccccc32)c1)[N-]CC(=O)[N-]c1ccc(F)cc1 (3D coordinates assigned)
O=C(C[N-]C(=O)c1cccc(S(=O)(=O)N2CCCc3ccccc32)c1)[N-]CC(=O)[N-]c1ccc(F)cc1 (nonaromatic ring conformer: 65.83305572036669 kcal/mol)

> <smiles>
O=C(CNC(=O)c1cccc(S(=O)(=O)N2CCCc3ccccc32)c1)NCC(=O)Nc1ccc(F)cc1

> <score_type>
oracle

> <origin>
adg

> <m_score__min__energy>
-15.5

> <m_primary>
energy

> <minimizedAffinity>
-8.24322

> <minimizedRMSD>
1.23984

> <CNNscore>
0.9463271499

> <CNNaffinity>
7.4695458412

> <CNN_VS>
7.0686340332

> <CNNaffinity_variance>
0.1671742201

$$$$
75:0


 29 31  0  0  0  0  0  0  0  0999 V2000
   57.0808   29.7065   44.6113 C   0  0  0  0  0  0  0  0  0  0  0  0
   55.8902   29.3891   44.8772 O   0  0  0  0  0  0  0  0  0  0  0  0
   57.6694   30.9376   45.1611 C   0  0  0  0  0  0  0  0  0  0  0  0
   57.2348   32.2049   44.7474 C   0  0  0  0  0  0  0  0  0  0  0  0
   57.8324   33.3356   45.3029 C   0  0  0  0  0  0  0  0  0  0  0  0
   57.4724   34.4851   44.9402 O   0  0  0  0  0  0  0  0  0  0  0  0
   58.8364   33.1830   46.2601 C   0  0  0  0  0  0  0  0  0  0  0  0
   59.2195   31.8862   46.6460 C   0  0  0  0  0  0  0  0  0  0  0  0
   58.6296   30.8358   46.0766 O   0  0  0  0  0  0  0  0  0  0  0  0
   60.2721   31.6441   47.6656 C   0  0  0  0  0  0  0  0  0  0  0  0
   61.5783   32.1186   47.4359 C   0  0  0  0  0  0  0  0  0  0  0  0
   62.5915   31.8911   48.3714 C   0  0  0  0  0  0  0  0  0  0  0  0
   62.3169   31.1832   49.5429 C   0  0  0  0  0  0  0  0  0  0  0  0
   61.0314   30.6951   49.7783 C   0  0  0  0  0  0  0  0  0  0  0  0
   60.0135   30.9182   48.8456 C   0  0  0  0  0  0  0  0  0  0  0  0
   57.8812   28.8679   43.7742 N   0  0  0  0  0  0  0  0  0  0  0  0
   58.1715   27.4679   44.0612 C   0  0  0  0  0  0  0  0  0  0  0  0
   58.3147   26.4412   46.4148 C   0  0  0  0  0  0  0  0  0  0  0  0
   58.9860   26.3446   47.6467 C   0  0  0  0  0  0  0  0  0  0  0  0
   60.1225   27.1132   47.9030 C   0  0  0  0  0  0  0  0  0  0  0  0
   60.7726   27.0049   49.1265 O   0  0  0  0  0  0  0  0  0  0  0  0
   60.6080   27.9879   46.9328 C   0  0  0  0  0  0  0  0  0  0  0  0
   59.9580   28.0970   45.7033 C   0  0  0  0  0  0  0  0  0  0  0  0
   58.8077   27.3348   45.4253 C   0  0  0  0  0  0  0  0  0  0  0  0
   55.4665   26.4263   46.0042 N   0  0  0  0  0  0  0  0  0  0  0  0
   56.8736   25.4358   46.1571 S   0  0  0  0  0  0  0  0  0  0  0  0
   56.7020   24.4839   47.3062 O   0  0  0  0  0  0  0  0  0  0  0  0
   57.0243   24.6307   44.8967 O   0  0  0  0  0  0  0  0  0  0  0  0
   54.6487   25.8349   45.8569 H   0  0  0  0  0  0  0  0  0  0  0  0
 25 26  1  0
 26 27  2  0
 26 28  2  0
 26 18  1  0
 18 19  2  0
 19 20  1  0
 20 21  1  0
 20 22  2  0
 22 23  1  0
 23 24  2  0
 24 17  1  0
 17 16  1  0
 16  1  1  0
  1  2  2  0
  1  3  1  0
  3  4  2  0
  4  5  1  0
  5  6  2  0
  5  7  1  0
  7  8  2  0
  8 10  1  0
 10 11  2  0
 11 12  1  0
 12 13  2  0
 13 14  1  0
 14 15  2  0
  8  9  1  0
 24 18  1  0
  9  3  1  0
 15 10  1  0
 25 29  1  0
M  CHG 1  16  -1
M  CHG 1  21  -1
M  CHG 1  25  -1
M  END
> <UniqueID>
68

> <SMILES>
[NH-]S(=O)(=O)c1cc([O-])ccc1C[N-]C(=O)c1cc(=O)cc(-c2ccccc2)o1

> <Energy>
47.921797427457264

> <Genealogy>
[NH-]S(=O)(=O)c1cc([O-])ccc1C[N-]C(=O)c1cc(=O)cc(-c2ccccc2)o1 (protonated)
[NH-]S(=O)(=O)c1cc([O-])ccc1C[N-]C(=O)c1cc(=O)cc(-c2ccccc2)o1 (3D coordinates assigned)
[NH-]S(=O)(=O)c1cc([O-])ccc1C[N-]C(=O)c1cc(=O)cc(-c2ccccc2)o1 (optimized conformer: 47.921797427457264 kcal/mol)

> <smiles>
NS(=O)(=O)c1cc(O)ccc1CNC(=O)c1cc(=O)cc(-c2ccccc2)o1

> <score_type>
oracle

> <origin>
adg

> <m_score__min__energy>
-16.030000000000001

> <m_primary>
energy

> <minimizedAffinity>
-8.19857

> <minimizedRMSD>
0.97246

> <CNNscore>
0.9130827785

> <CNNaffinity>
7.2135834694

> <CNN_VS>
6.5865988731

> <CNNaffinity_variance>
0.0712187961

$$$$
76:0


 28 30  0  0  0  0  0  0  0  0999 V2000
   59.1529   31.4530   47.0943 C   0  0  0  0  0  0  0  0  0  0  0  0
   58.4760   32.6776   47.1187 C   0  0  0  0  0  0  0  0  0  0  0  0
   57.2770   32.8432   46.4335 O   0  0  0  0  0  0  0  0  0  0  0  0
   58.9994   33.7252   47.8001 N   0  0  0  0  0  0  0  0  0  0  0  0
   60.1821   33.6239   48.4569 C   0  0  0  0  0  0  0  0  0  0  0  0
   60.6146   34.6228   49.0934 O   0  0  0  0  0  0  0  0  0  0  0  0
   60.8884   32.4490   48.4314 N   0  0  0  0  0  0  0  0  0  0  0  0
   60.3919   31.3680   47.7500 C   0  0  0  0  0  0  0  0  0  0  0  0
   61.0451   30.2877   47.7059 O   0  0  0  0  0  0  0  0  0  0  0  0
   62.1515   32.3515   49.1224 C   0  0  0  0  0  0  0  0  0  0  0  0
   62.2274   31.7312   50.3812 C   0  0  0  0  0  0  0  0  0  0  0  0
   63.4521   31.6386   51.0489 C   0  0  0  0  0  0  0  0  0  0  0  0
   64.6079   32.1657   50.4664 C   0  0  0  0  0  0  0  0  0  0  0  0
   64.5422   32.7851   49.2161 C   0  0  0  0  0  0  0  0  0  0  0  0
   63.3189   32.8795   48.5434 C   0  0  0  0  0  0  0  0  0  0  0  0
   58.3986   31.4729   44.1486 C   0  0  0  0  0  0  0  0  0  0  0  0
   58.0286   30.3864   45.1307 C   0  0  0  0  0  0  0  0  0  0  0  0
   58.6208   30.2959   46.3419 C   0  0  0  0  0  0  0  0  0  0  0  0
   57.0091   29.3840   44.7274 C   0  0  0  0  0  0  0  0  0  0  0  0
   56.4479   29.4709   43.5989 O   0  0  0  0  0  0  0  0  0  0  0  0
   56.6625   28.3226   45.6347 N   0  0  0  0  0  0  0  0  0  0  0  0
   57.2906   27.1925   45.8037 C   0  0  0  0  0  0  0  0  0  0  0  0
   58.6532   27.1283   45.7699 N   0  0  0  0  0  0  0  0  0  0  0  0
   59.3254   25.9591   45.9453 C   0  0  0  0  0  0  0  0  0  0  0  0
   58.6195   24.7746   46.1654 C   0  0  0  0  0  0  0  0  0  0  0  0
   57.2264   24.8083   46.2033 C   0  0  0  0  0  0  0  0  0  0  0  0
   56.5527   26.0203   46.0227 C   0  0  0  0  0  0  0  0  0  0  0  0
   55.1614   26.0516   46.0612 O   0  0  0  0  0  0  0  0  0  0  0  0
 16 17  1  0
 17 18  2  0
 18  1  1  0
  1  2  2  0
  2  3  1  0
  2  4  1  0
  4  5  1  0
  5  6  2  0
  5  7  1  0
  7 10  1  0
 10 11  2  0
 11 12  1  0
 12 13  2  0
 13 14  1  0
 14 15  2  0
  7  8  1  0
  8  9  2  0
 17 19  1  0
 19 20  2  0
 19 21  1  0
 21 22  2  0
 22 23  1  0
 23 24  1  0
 24 25  2  0
 25 26  1  0
 26 27  2  0
 27 28  1  0
  8  1  1  0
 27 22  1  0
 15 10  1  0
M  CHG 1   3  -1
M  CHG 1   4  -1
M  CHG 1  23  -1
M  CHG 1  28  -1
M  END
> <UniqueID>
69

> <SMILES>
CC(=Cc1c([O-])[n-]c(=O)n(-c2ccccc2)c1=O)C(=O)N=c1[n-]cccc1[O-]

> <Energy>
66.57599597486386

> <Genealogy>
CC(=Cc1c([O-])[n-]c(=O)n(-c2ccccc2)c1=O)C(=O)N=c1[n-]cccc1[O-] (protonated)
CC(=Cc1c([O-])[n-]c(=O)n(-c2ccccc2)c1=O)C(=O)N=c1[n-]cccc1[O-] (3D coordinates assigned)
CC(=Cc1c([O-])[n-]c(=O)n(-c2ccccc2)c1=O)C(=O)N=c1[n-]cccc1[O-] (optimized conformer: 66.57599597486386 kcal/mol)

> <smiles>
CC(=Cc1c(O)[nH]c(=O)n(-c2ccccc2)c1=O)C(=O)N=c1[nH]cccc1O

> <score_type>
oracle

> <origin>
adg

> <m_score__min__energy>
-16.800000000000001

> <m_primary>
energy

> <minimizedAffinity>
-7.71123

> <minimizedRMSD>
1.55518

> <CNNscore>
0.3187137842

> <CNNaffinity>
6.2544131279

> <CNN_VS>
1.9933676720

> <CNNaffinity_variance>
0.0346520506

$$$$
29:0


 32 35  0  0  0  0  0  0  0  0999 V2000
   59.5784   29.9824   45.3825 C   0  0  0  0  0  0  0  0  0  0  0  0
   59.4945   29.2820   46.5261 C   0  0  0  0  0  0  0  0  0  0  0  0
   58.8273   28.0627   46.7309 C   0  0  0  0  0  0  0  0  0  0  0  0
   57.9674   27.3852   45.9462 C   0  0  0  0  0  0  0  0  0  0  0  0
   59.1987   27.6258   47.9924 C   0  0  0  0  0  0  0  0  0  0  0  0
   60.0086   28.6041   48.5326 C   0  0  0  0  0  0  0  0  0  0  0  0
   60.6219   28.5460   49.8981 C   0  0  0  0  0  0  0  0  0  0  0  0
   60.1866   29.6076   47.6470 N   0  0  0  0  0  0  0  0  0  0  0  0
   57.6506   25.9479   46.0729 C   0  0  0  0  0  0  0  0  0  0  0  0
   56.3180   25.5222   46.1622 C   0  0  0  0  0  0  0  0  0  0  0  0
   55.2793   26.4456   46.1683 O   0  0  0  0  0  0  0  0  0  0  0  0
   56.0351   24.1964   46.2547 N   0  0  0  0  0  0  0  0  0  0  0  0
   57.0244   23.2663   46.2465 C   0  0  0  0  0  0  0  0  0  0  0  0
   56.7379   22.0457   46.3400 O   0  0  0  0  0  0  0  0  0  0  0  0
   58.3209   23.6519   46.1324 N   0  0  0  0  0  0  0  0  0  0  0  0
   58.6557   24.9644   46.0354 C   0  0  0  0  0  0  0  0  0  0  0  0
   59.8673   25.2862   45.9059 O   0  0  0  0  0  0  0  0  0  0  0  0
   60.9683   30.7957   47.8680 C   0  0  0  0  0  0  0  0  0  0  0  0
   62.3025   30.8476   47.4486 C   0  0  0  0  0  0  0  0  0  0  0  0
   63.0426   32.0139   47.6287 C   0  0  0  0  0  0  0  0  0  0  0  0
   62.4398   33.1198   48.2272 C   0  0  0  0  0  0  0  0  0  0  0  0
   61.1428   33.0595   48.6361 N   0  0  0  0  0  0  0  0  0  0  0  0
   60.3939   31.9256   48.4757 C   0  0  0  0  0  0  0  0  0  0  0  0
   60.7341   33.8500   49.0571 H   0  0  0  0  0  0  0  0  0  0  0  0
   59.0619   31.8466   48.9135 O   0  0  0  0  0  0  0  0  0  0  0  0
   58.0143   32.7367   48.5322 C   0  0  0  0  0  0  0  0  0  0  0  0
   58.3423   33.3926   47.2241 C   0  0  0  0  0  0  0  0  0  0  0  0
   57.9170   32.8194   46.0181 C   0  0  0  0  0  0  0  0  0  0  0  0
   58.2710   33.4232   44.8105 C   0  0  0  0  0  0  0  0  0  0  0  0
   59.0418   34.5874   44.8159 C   0  0  0  0  0  0  0  0  0  0  0  0
   59.4507   35.1291   46.0363 C   0  0  0  0  0  0  0  0  0  0  0  0
   59.0988   34.5241   47.2032 N   0  0  0  0  0  0  0  0  0  0  0  0
  1  2  2  0
  2  3  1  0
  3  4  2  0
  4  9  1  0
  9 10  2  0
 10 11  1  0
 10 12  1  0
 12 13  1  0
 13 14  2  0
 13 15  1  0
 15 16  1  0
 16 17  2  0
  3  5  1  0
  5  6  2  0
  6  7  1  0
  6  8  1  0
  8 18  1  0
 18 19  2  0
 19 20  1  0
 20 21  2  0
 21 22  1  0
 22 23  2  0
 23 25  1  0
 25 26  1  0
 26 27  1  0
 27 28  2  0
 28 29  1  0
 29 30  2  0
 30 31  1  0
 31 32  2  0
  8  2  1  0
 23 18  1  0
 32 27  1  0
 16  9  1  0
 22 24  1  0
M  CHG 1  11  -1
M  CHG 1  12  -1
M  CHG 1  15  -1
M  CHG 1  22   1
M  END
> <UniqueID>
27

> <SMILES>
C=c1c(=Cc2c([O-])[n-]c(=O)[n-]c2=O)cc(C)n1-c1ccc[nH+]c1OCc1ccccn1

> <Energy>
99.48203665885231

> <Genealogy>
C=c1c(=Cc2c([O-])[n-]c(=O)[n-]c2=O)cc(C)n1-c1ccc[nH+]c1OCc1ccccn1 (protonated)
C=c1c(=Cc2c([O-])[n-]c(=O)[n-]c2=O)cc(C)n1-c1ccc[nH+]c1OCc1ccccn1 (3D coordinates assigned)
C=c1c(=Cc2c([O-])[n-]c(=O)[n-]c2=O)cc(C)n1-c1ccc[nH+]c1OCc1ccccn1 (optimized conformer: 99.48203665885231 kcal/mol)

> <smiles>
C=c1c(=Cc2c(O)[nH]c(=O)[nH]c2=O)cc(C)n1-c1cccnc1OCc1ccccn1

> <score_type>
oracle

> <origin>
adg

> <m_score__min__energy>
-15.16

> <m_primary>
energy

> <minimizedAffinity>
-7.52916

> <minimizedRMSD>
0.55835

> <CNNscore>
0.2762380242

> <CNNaffinity>
6.7012391090

> <CNN_VS>
1.8511370420

> <CNNaffinity_variance>
0.1565811485

$$$$
30:0


 30 33  0  0  0  0  0  0  0  0999 V2000
   59.5489   27.0357   47.4250 C   0  0  0  0  0  0  0  0  0  0  0  0
   58.9882   27.9715   46.6434 C   0  0  0  0  0  0  0  0  0  0  0  0
   58.3189   27.7744   45.4229 C   0  0  0  0  0  0  0  0  0  0  0  0
   57.9379   26.6451   44.7932 C   0  0  0  0  0  0  0  0  0  0  0  0
   58.0628   29.0366   44.9128 C   0  0  0  0  0  0  0  0  0  0  0  0
   58.5276   29.9459   45.8398 C   0  0  0  0  0  0  0  0  0  0  0  0
   58.4329   31.4343   45.6976 C   0  0  0  0  0  0  0  0  0  0  0  0
   59.0766   29.3033   46.8934 N   0  0  0  0  0  0  0  0  0  0  0  0
   57.4923   25.4056   45.4447 C   0  0  0  0  0  0  0  0  0  0  0  0
   58.2012   24.2645   45.4347 N   0  0  0  0  0  0  0  0  0  0  0  0
   57.3722   23.3752   46.0223 C   0  0  0  0  0  0  0  0  0  0  0  0
   57.6915   22.1732   46.2136 O   0  0  0  0  0  0  0  0  0  0  0  0
   56.1675   23.8725   46.3774 N   0  0  0  0  0  0  0  0  0  0  0  0
   56.2526   25.1559   45.9899 C   0  0  0  0  0  0  0  0  0  0  0  0
   55.2158   26.0756   46.1112 O   0  0  0  0  0  0  0  0  0  0  0  0
   54.4023   25.8164   46.4972 H   0  0  0  0  0  0  0  0  0  0  0  0
   59.7222   29.9420   48.0096 C   0  0  0  0  0  0  0  0  0  0  0  0
   59.1350   29.9000   49.2803 C   0  0  0  0  0  0  0  0  0  0  0  0
   59.7539   30.5336   50.3600 C   0  0  0  0  0  0  0  0  0  0  0  0
   60.9655   31.2074   50.1778 C   0  0  0  0  0  0  0  0  0  0  0  0
   61.5720   31.2488   48.9106 C   0  0  0  0  0  0  0  0  0  0  0  0
   60.9301   30.6297   47.8256 C   0  0  0  0  0  0  0  0  0  0  0  0
   62.8551   31.9621   48.7166 C   0  0  0  0  0  0  0  0  0  0  0  0
   63.4235   31.9175   47.5915 O   0  0  0  0  0  0  0  0  0  0  0  0
   63.4773   32.6868   49.7936 N   0  0  0  0  0  0  0  0  0  0  0  0
   64.9404   32.6286   49.9345 C   0  0  0  0  0  0  0  0  0  0  0  0
   65.4194   33.3928   51.1767 C   0  0  0  0  0  0  0  0  0  0  0  0
   64.4984   33.0997   52.3638 C   0  0  0  0  0  0  0  0  0  0  0  0
   63.0393   33.5209   52.0902 C   0  0  0  0  0  0  0  0  0  0  0  0
   62.7039   33.6469   50.5936 C   0  0  0  0  0  0  0  0  0  0  0  0
  1  2  2  0
  2  3  1  0
  3  4  2  0
  4  9  1  0
  9 10  1  0
 10 11  1  0
 11 12  2  0
 11 13  1  0
 13 14  1  0
 14 15  1  0
  3  5  1  0
  5  6  2  0
  6  7  1  0
  6  8  1  0
  8 17  1  0
 17 18  2  0
 18 19  1  0
 19 20  2  0
 20 21  1  0
 21 23  1  0
 23 24  2  0
 23 25  1  0
 25 26  1  0
 26 27  1  0
 27 28  1  0
 28 29  1  0
 29 30  1  0
 21 22  2  0
  8  2  1  0
 22 17  1  0
 14  9  2  0
 30 25  1  0
 15 16  1  0
M  CHG 1  10  -1
M  CHG 1  13  -1
M  END
> <UniqueID>
28

> <SMILES>
C=c1c(=Cc2[n-]c(=O)[n-]c2O)cc(C)n1-c1cccc(C(=O)N2CCCCC2)c1

> <Energy>
133.0323678360988

> <Genealogy>
C=c1c(=Cc2[n-]c(=O)[n-]c2O)cc(C)n1-c1cccc(C(=O)N2CCCCC2)c1 (protonated)
C=c1c(=Cc2[n-]c(=O)[n-]c2O)cc(C)n1-c1cccc(C(=O)N2CCCCC2)c1 (3D coordinates assigned)
C=c1c(=Cc2[n-]c(=O)[n-]c2O)cc(C)n1-c1cccc(C(=O)N2CCCCC2)c1 (nonaromatic ring conformer: 133.0323678360988 kcal/mol)

> <smiles>
C=c1c(=Cc2[nH]c(=O)[nH]c2O)cc(C)n1-c1cccc(C(=O)N2CCCCC2)c1

> <score_type>
oracle

> <origin>
adg

> <m_score__min__energy>
-14.76

> <m_primary>
energy

> <minimizedAffinity>
-9.58859

> <minimizedRMSD>
1.29971

> <CNNscore>
0.2844077349

> <CNNaffinity>
6.7613062859

> <CNN_VS>
1.9229677916

> <CNNaffinity_variance>
0.1414963603

$$$$
33:0


 25 27  0  0  0  0  0  0  0  0999 V2000
   58.1633   26.2317   45.6824 C   0  0  0  0  0  0  0  0  0  0  0  0
   59.3000   25.6236   46.2447 C   0  0  0  0  0  0  0  0  0  0  0  0
   60.3473   26.3819   46.6619 N   0  0  0  0  0  0  0  0  0  0  0  0
   60.3429   27.7360   46.5564 C   0  0  0  0  0  0  0  0  0  0  0  0
   59.2342   28.3977   46.0023 C   0  0  0  0  0  0  0  0  0  0  0  0
   59.1828   29.7984   45.8763 C   0  0  0  0  0  0  0  0  0  0  0  0
   60.1503   30.5006   46.2823 O   0  0  0  0  0  0  0  0  0  0  0  0
   58.0422   30.4169   45.3123 C   0  0  0  0  0  0  0  0  0  0  0  0
   56.9778   29.5924   44.8861 C   0  0  0  0  0  0  0  0  0  0  0  0
   55.8391   30.1351   44.3000 O   0  0  0  0  0  0  0  0  0  0  0  0
   57.0552   28.2446   45.0250 N   0  0  0  0  0  0  0  0  0  0  0  0
   58.1385   27.6280   45.5637 C   0  0  0  0  0  0  0  0  0  0  0  0
   57.1416   24.3475   44.3918 C   0  0  0  0  0  0  0  0  0  0  0  0
   57.0574   25.4903   45.2380 O   0  0  0  0  0  0  0  0  0  0  0  0
   57.9646   31.8963   45.1710 C   0  0  0  0  0  0  0  0  0  0  0  0
   58.1955   32.4385   44.0560 O   0  0  0  0  0  0  0  0  0  0  0  0
   57.6382   32.7169   46.2991 N   0  0  0  0  0  0  0  0  0  0  0  0
   58.3521   33.9405   46.6452 C   0  0  0  0  0  0  0  0  0  0  0  0
   59.6710   33.6092   47.2899 C   0  0  0  0  0  0  0  0  0  0  0  0
   60.8732   33.7683   46.5821 C   0  0  0  0  0  0  0  0  0  0  0  0
   62.0916   33.4369   47.1823 C   0  0  0  0  0  0  0  0  0  0  0  0
   62.1197   32.9429   48.4898 C   0  0  0  0  0  0  0  0  0  0  0  0
   63.6499   32.5268   49.2403 Cl  0  0  0  0  0  0  0  0  0  0  0  0
   60.9250   32.7764   49.1986 C   0  0  0  0  0  0  0  0  0  0  0  0
   59.7047   33.1062   48.6018 C   0  0  0  0  0  0  0  0  0  0  0  0
 13 14  1  0
 14  1  1  0
  1  2  2  0
  2  3  1  0
  3  4  2  0
  4  5  1  0
  5  6  1  0
  6  7  2  0
  6  8  1  0
  8 15  1  0
 15 16  2  0
 15 17  1  0
 17 18  1  0
 18 19  1  0
 19 20  2  0
 20 21  1  0
 21 22  2  0
 22 23  1  0
 22 24  1  0
 24 25  2  0
  8  9  2  0
  9 10  1  0
  9 11  1  0
 11 12  1  0
 12  1  1  0
 12  5  2  0
 25 19  1  0
M  CHG 1  10  -1
M  CHG 1  11  -1
M  CHG 1  17  -1
M  END
> <UniqueID>
30

> <SMILES>
COc1cncc2c(=O)c(C(=O)[N-]Cc3ccc(Cl)cc3)c([O-])[n-]c12

> <Energy>
46.521430328006105

> <Genealogy>
COc1cncc2c(=O)c(C(=O)[N-]Cc3ccc(Cl)cc3)c([O-])[n-]c12 (protonated)
COc1cncc2c(=O)c(C(=O)[N-]Cc3ccc(Cl)cc3)c([O-])[n-]c12 (3D coordinates assigned)
COc1cncc2c(=O)c(C(=O)[N-]Cc3ccc(Cl)cc3)c([O-])[n-]c12 (optimized conformer: 46.521430328006105 kcal/mol)

> <smiles>
COc1cncc2c(=O)c(C(=O)NCc3ccc(Cl)cc3)c(O)[nH]c12

> <score_type>
oracle

> <origin>
adg

> <m_score__min__energy>
-14.94

> <m_primary>
energy

> <minimizedAffinity>
-8.00049

> <minimizedRMSD>
1.69453

> <CNNscore>
0.7465376258

> <CNNaffinity>
6.6800351143

> <CNN_VS>
4.9868974686

> <CNNaffinity_variance>
0.0344438888

$$$$
51:0


 34 37  0  0  0  0  0  0  0  0999 V2000
   59.7805   29.9789   47.2509 C   0  0  0  0  0  0  0  0  0  0  0  0
   60.9852   30.6382   46.9614 C   0  0  0  0  0  0  0  0  0  0  0  0
   61.6588   31.3456   47.9630 C   0  0  0  0  0  0  0  0  0  0  0  0
   61.1073   31.4342   49.2475 C   0  0  0  0  0  0  0  0  0  0  0  0
   59.8742   30.8253   49.5235 C   0  0  0  0  0  0  0  0  0  0  0  0
   59.2151   30.0992   48.5295 C   0  0  0  0  0  0  0  0  0  0  0  0
   59.9704   27.0277   46.9633 C   0  0  0  0  0  0  0  0  0  0  0  0
   59.1992   27.7969   46.1774 C   0  0  0  0  0  0  0  0  0  0  0  0
   58.2959   27.3477   45.2033 C   0  0  0  0  0  0  0  0  0  0  0  0
   58.0145   26.0583   44.8966 C   0  0  0  0  0  0  0  0  0  0  0  0
   57.7172   28.4905   44.6615 C   0  0  0  0  0  0  0  0  0  0  0  0
   58.2493   29.5687   45.3386 C   0  0  0  0  0  0  0  0  0  0  0  0
   57.9598   31.0037   45.0111 C   0  0  0  0  0  0  0  0  0  0  0  0
   59.1419   29.1495   46.2638 N   0  0  0  0  0  0  0  0  0  0  0  0
   57.4197   25.0562   45.8128 C   0  0  0  0  0  0  0  0  0  0  0  0
   57.9926   23.8996   46.1963 N   0  0  0  0  0  0  0  0  0  0  0  0
   57.0372   23.3053   46.9400 C   0  0  0  0  0  0  0  0  0  0  0  0
   57.1981   22.1744   47.4705 O   0  0  0  0  0  0  0  0  0  0  0  0
   55.8869   24.0016   47.0466 N   0  0  0  0  0  0  0  0  0  0  0  0
   56.1445   25.1024   46.3247 C   0  0  0  0  0  0  0  0  0  0  0  0
   55.2233   26.1138   46.1083 O   0  0  0  0  0  0  0  0  0  0  0  0
   61.8770   32.0626   50.3327 C   0  0  0  0  0  0  0  0  0  0  0  0
   61.3781   33.0864   50.8848 O   0  0  0  0  0  0  0  0  0  0  0  0
   63.1951   31.5940   50.7322 N   0  0  0  0  0  0  0  0  0  0  0  0
   64.2779   32.5068   50.3139 C   0  0  0  0  0  0  0  0  0  0  0  0
   65.6652   31.9192   50.6438 C   0  0  0  0  0  0  0  0  0  0  0  0
   65.5810   30.7786   51.5852 N   0  0  0  0  0  0  0  0  0  0  0  0
   64.6682   31.1008   52.7022 C   0  0  0  0  0  0  0  0  0  0  0  0
   63.2328   31.3661   52.1907 C   0  0  0  0  0  0  0  0  0  0  0  0
   63.6181   32.2673   51.3127 H   0  0  0  0  0  0  0  0  0  0  0  0
   66.9128   30.4200   52.1175 C   0  0  0  0  0  0  0  0  0  0  0  0
   67.3348   29.0034   51.6967 C   0  0  0  0  0  0  0  0  0  0  0  0
   66.2264   28.1472   51.7112 O   0  0  0  0  0  0  0  0  0  0  0  0
   65.8565   28.1124   52.6072 H   0  0  0  0  0  0  0  0  0  0  0  0
  7  8  2  0
  8  9  1  0
  9 10  2  0
 10 15  1  0
 15 16  1  0
 16 17  1  0
 17 18  2  0
 17 19  1  0
 19 20  1  0
 20 21  1  0
  9 11  1  0
 11 12  2  0
 12 13  1  0
 12 14  1  0
 14  1  1  0
  1  2  2  0
  2  3  1  0
  3  4  2  0
  4 22  1  0
 22 23  2  0
 22 24  1  0
 24 25  1  0
 25 26  1  0
 26 27  1  0
 27 31  1  0
 31 32  1  0
 32 33  1  0
 27 28  1  0
 28 29  1  0
  4  5  1  0
  5  6  2  0
 14  8  1  0
  6  1  1  0
 20 15  2  0
 29 24  1  0
 24 30  1  0
 33 34  1  0
M  CHG 1  16  -1
M  CHG 1  19  -1
M  CHG 1  21  -1
M  CHG 1  24   1
M  END
> <UniqueID>
46

> <SMILES>
C=c1c(=Cc2[n-]c(=O)[n-]c2[O-])cc(C)n1-c1ccc(C(=O)[NH+]2CCN(CCO)CC2)cc1

> <Energy>
149.2125120189494

> <Genealogy>
C=c1c(=Cc2[n-]c(=O)[n-]c2[O-])cc(C)n1-c1ccc(C(=O)[NH+]2CCN(CCO)CC2)cc1 (protonated)
C=c1c(=Cc2[n-]c(=O)[n-]c2[O-])cc(C)n1-c1ccc(C(=O)[NH+]2CCN(CCO)CC2)cc1 (3D coordinates assigned)
C=c1c(=Cc2[n-]c(=O)[n-]c2[O-])cc(C)n1-c1ccc(C(=O)[NH+]2CCN(CCO)CC2)cc1 (nonaromatic ring conformer: 149.2125120189494 kcal/mol)

> <smiles>
C=c1c(=Cc2[nH]c(=O)[nH]c2O)cc(C)n1-c1ccc(C(=O)N2CCN(CCO)CC2)cc1

> <score_type>
oracle

> <origin>
adg

> <m_score__min__energy>
-14.69

> <m_primary>
energy

> <minimizedAffinity>
-7.99772

> <minimizedRMSD>
1.66316

> <CNNscore>
0.1750494242

> <CNNaffinity>
6.5524334908

> <CNN_VS>
1.1469997168

> <CNNaffinity_variance>
0.1310676485

$$$$
56:0


 35 38  0  0  0  0  0  0  0  0999 V2000
   58.2891   26.9884   42.9473 C   0  0  0  0  0  0  0  0  0  0  0  0
   58.5653   26.5071   44.1702 C   0  0  0  0  0  0  0  0  0  0  0  0
   57.9769   25.3915   44.7693 C   0  0  0  0  0  0  0  0  0  0  0  0
   57.0553   24.5637   44.2387 C   0  0  0  0  0  0  0  0  0  0  0  0
   58.5509   25.2734   46.0262 C   0  0  0  0  0  0  0  0  0  0  0  0
   59.4538   26.3098   46.1481 C   0  0  0  0  0  0  0  0  0  0  0  0
   60.2667   26.5806   47.3780 C   0  0  0  0  0  0  0  0  0  0  0  0
   59.4678   27.0634   45.0224 N   0  0  0  0  0  0  0  0  0  0  0  0
   55.9053   24.0316   45.0014 C   0  0  0  0  0  0  0  0  0  0  0  0
   55.1285   24.8766   45.8207 C   0  0  0  0  0  0  0  0  0  0  0  0
   55.3758   26.2466   45.9086 O   0  0  0  0  0  0  0  0  0  0  0  0
   54.1003   24.3548   46.5383 N   0  0  0  0  0  0  0  0  0  0  0  0
   53.8032   23.0318   46.4903 C   0  0  0  0  0  0  0  0  0  0  0  0
   52.8407   22.5778   47.1601 O   0  0  0  0  0  0  0  0  0  0  0  0
   54.5465   22.1968   45.7227 N   0  0  0  0  0  0  0  0  0  0  0  0
   55.5900   22.6602   44.9879 C   0  0  0  0  0  0  0  0  0  0  0  0
   56.2781   21.8471   44.3148 O   0  0  0  0  0  0  0  0  0  0  0  0
   56.0801   26.6277   45.4221 H   0  0  0  0  0  0  0  0  0  0  0  0
   60.3215   28.2358   44.7690 C   0  0  0  0  0  0  0  0  0  0  0  0
   59.7377   29.4710   45.4079 C   0  0  0  0  0  0  0  0  0  0  0  0
   60.1793   29.8955   46.6704 C   0  0  0  0  0  0  0  0  0  0  0  0
   59.6422   31.0429   47.2593 C   0  0  0  0  0  0  0  0  0  0  0  0
   58.6587   31.7969   46.5922 C   0  0  0  0  0  0  0  0  0  0  0  0
   58.2288   31.3764   45.3212 C   0  0  0  0  0  0  0  0  0  0  0  0
   58.7650   30.2271   44.7344 C   0  0  0  0  0  0  0  0  0  0  0  0
   58.0901   33.0149   47.2166 C   0  0  0  0  0  0  0  0  0  0  0  0
   56.8466   33.2184   47.1774 O   0  0  0  0  0  0  0  0  0  0  0  0
   58.9588   33.9852   47.8164 N   0  0  0  0  0  0  0  0  0  0  0  0
   60.3854   33.8995   47.9493 C   0  0  0  0  0  0  0  0  0  0  0  0
   61.1582   33.7374   46.7920 C   0  0  0  0  0  0  0  0  0  0  0  0
   62.5468   33.6279   46.8771 C   0  0  0  0  0  0  0  0  0  0  0  0
   63.1768   33.6545   48.1240 C   0  0  0  0  0  0  0  0  0  0  0  0
   62.4173   33.7920   49.2958 C   0  0  0  0  0  0  0  0  0  0  0  0
   63.0782   33.7881   50.6422 C   0  0  0  0  0  0  0  0  0  0  0  0
   61.0201   33.9044   49.2058 C   0  0  0  0  0  0  0  0  0  0  0  0
  1  2  2  0
  2  3  1  0
  3  4  2  0
  4  9  1  0
  9 10  2  0
 10 11  1  0
 10 12  1  0
 12 13  1  0
 13 14  2  0
 13 15  1  0
 15 16  1  0
 16 17  2  0
  3  5  1  0
  5  6  2  0
  6  7  1  0
  6  8  1  0
  8 19  1  0
 19 20  1  0
 20 21  2  0
 21 22  1  0
 22 23  2  0
 23 26  1  0
 26 27  2  0
 26 28  1  0
 28 29  1  0
 29 30  2  0
 30 31  1  0
 31 32  2  0
 32 33  1  0
 33 34  1  0
 33 35  2  0
 23 24  1  0
 24 25  2  0
  8  2  1  0
 25 20  1  0
 16  9  1  0
 35 29  1  0
 11 18  1  0
M  CHG 1  12  -1
M  CHG 1  15  -1
M  CHG 1  28  -1
M  END
> <UniqueID>
47

> <SMILES>
C=c1c(=Cc2c(O)[n-]c(=O)[n-]c2=O)cc(C)n1Cc1ccc(C(=O)[N-]c2cccc(C)c2)cc1

> <Energy>
101.51784327335427

> <Genealogy>
C=c1c(=Cc2c(O)[n-]c(=O)[n-]c2=O)cc(C)n1Cc1ccc(C(=O)[N-]c2cccc(C)c2)cc1 (protonated)
C=c1c(=Cc2c(O)[n-]c(=O)[n-]c2=O)cc(C)n1Cc1ccc(C(=O)[N-]c2cccc(C)c2)cc1 (3D coordinates assigned)
C=c1c(=Cc2c(O)[n-]c(=O)[n-]c2=O)cc(C)n1Cc1ccc(C(=O)[N-]c2cccc(C)c2)cc1 (optimized conformer: 101.51784327335427 kcal/mol)

> <smiles>
C=c1c(=Cc2c(O)[nH]c(=O)[nH]c2=O)cc(C)n1Cc1ccc(C(=O)Nc2cccc(C)c2)cc1

> <score_type>
oracle

> <origin>
adg

> <m_score__min__energy>
-14.85

> <m_primary>
energy

> <minimizedAffinity>
-8.11301

> <minimizedRMSD>
0.43917

> <CNNscore>
0.2233948559

> <CNNaffinity>
6.7570724487

> <CNN_VS>
1.5094952583

> <CNNaffinity_variance>
0.0930179134

$$$$
78:0


 26 27  0  0  0  0  0  0  0  0999 V2000
   59.8392   33.7673   48.0157 N   0  0  0  0  0  0  0  0  0  0  0  0
   59.0895   33.8756   46.7933 C   0  0  0  0  0  0  0  0  0  0  0  0
   59.6032   34.4131   45.7740 O   0  0  0  0  0  0  0  0  0  0  0  0
   59.3508   33.6133   48.8565 H   0  0  0  0  0  0  0  0  0  0  0  0
   61.2956   33.8763   48.0620 C   0  0  0  0  0  0  0  0  0  0  0  0
   61.9603   32.5783   47.5936 C   0  0  0  0  0  0  0  0  0  0  0  0
   62.7044   30.2603   52.0014 C   0  0  0  0  0  0  0  0  0  0  0  0
   62.0508   30.2963   50.6524 C   0  0  0  0  0  0  0  0  0  0  0  0
   61.1043   29.3215   50.2935 C   0  0  0  0  0  0  0  0  0  0  0  0
   60.4548   29.3944   49.0567 C   0  0  0  0  0  0  0  0  0  0  0  0
   60.7355   30.4431   48.1744 C   0  0  0  0  0  0  0  0  0  0  0  0
   61.6715   31.4296   48.5259 C   0  0  0  0  0  0  0  0  0  0  0  0
   62.3218   31.3538   49.7701 C   0  0  0  0  0  0  0  0  0  0  0  0
   57.6933   33.3260   46.7194 C   0  0  0  0  0  0  0  0  0  0  0  0
   57.3197   33.0152   45.3409 N   0  0  0  0  0  0  0  0  0  0  0  0
   57.5893   31.7576   44.7069 C   0  0  0  0  0  0  0  0  0  0  0  0
   57.9583   31.7359   43.5030 O   0  0  0  0  0  0  0  0  0  0  0  0
   57.4824   30.5409   45.4514 N   0  0  0  0  0  0  0  0  0  0  0  0
   57.1269   29.2534   44.8704 C   0  0  0  0  0  0  0  0  0  0  0  0
   58.0808   28.2124   45.3846 C   0  0  0  0  0  0  0  0  0  0  0  0
   59.4640   28.4682   45.3686 C   0  0  0  0  0  0  0  0  0  0  0  0
   60.3600   27.5472   45.9170 C   0  0  0  0  0  0  0  0  0  0  0  0
   59.8864   26.3696   46.4974 C   0  0  0  0  0  0  0  0  0  0  0  0
   58.5126   26.1079   46.5276 C   0  0  0  0  0  0  0  0  0  0  0  0
   57.6083   27.0250   45.9807 C   0  0  0  0  0  0  0  0  0  0  0  0
   56.2444   26.7541   46.0370 O   0  0  0  0  0  0  0  0  0  0  0  0
  7  8  1  0
  8  9  2  0
  9 10  1  0
 10 11  2  0
 11 12  1  0
 12  6  1  0
  6  5  1  0
  5  1  1  0
  1  2  1  0
  2  3  2  0
  2 14  1  0
 14 15  1  0
 15 16  1  0
 16 17  2  0
 16 18  1  0
 18 19  1  0
 19 20  1  0
 20 21  2  0
 21 22  1  0
 22 23  2  0
 23 24  1  0
 24 25  2  0
 25 26  1  0
 12 13  2  0
 13  8  1  0
 25 20  1  0
  1  4  1  0
M  CHG 1  15  -1
M  CHG 1  18  -1
M  CHG 1  26  -1
M  END
> <UniqueID>
64

> <SMILES>
Cc1cccc(CCNC(=O)C[N-]C(=O)[N-]Cc2ccccc2[O-])c1

> <Energy>
33.65183227531526

> <Genealogy>
Cc1cccc(CCNC(=O)C[N-]C(=O)[N-]Cc2ccccc2[O-])c1 (protonated)
Cc1cccc(CCNC(=O)C[N-]C(=O)[N-]Cc2ccccc2[O-])c1 (3D coordinates assigned)
Cc1cccc(CCNC(=O)C[N-]C(=O)[N-]Cc2ccccc2[O-])c1 (optimized conformer: 33.65183227531526 kcal/mol)

> <smiles>
Cc1cccc(CCNC(=O)CNC(=O)NCc2ccccc2O)c1

> <score_type>
oracle

> <origin>
adg

> <m_score__min__energy>
-14.380000000000001

> <m_primary>
energy

> <minimizedAffinity>
-7.14805

> <minimizedRMSD>
1.94415

> <CNNscore>
0.2711294889

> <CNNaffinity>
5.7628121376

> <CNN_VS>
1.5624682903

> <CNNaffinity_variance>
0.1205657721

$$$$
2:0


 25 26  0  0  0  0  0  0  0  0999 V2000
   58.7092   28.4503   45.5964 C   0  0  0  0  0  0  0  0  0  0  0  0
   58.5822   27.2147   45.0812 N   0  0  0  0  0  0  0  0  0  0  0  0
   58.6493   26.4170   46.1678 C   0  0  0  0  0  0  0  0  0  0  0  0
   58.5688   25.1625   46.0942 O   0  0  0  0  0  0  0  0  0  0  0  0
   58.8080   27.0674   47.3384 N   0  0  0  0  0  0  0  0  0  0  0  0
   58.8441   28.3588   46.9604 C   0  0  0  0  0  0  0  0  0  0  0  0
   58.6878   29.7085   44.7844 C   0  0  0  0  0  0  0  0  0  0  0  0
   57.3406   30.3677   44.8644 C   0  0  0  0  0  0  0  0  0  0  0  0
   56.3041   29.6547   44.7900 O   0  0  0  0  0  0  0  0  0  0  0  0
   57.1953   31.7781   45.0644 N   0  0  0  0  0  0  0  0  0  0  0  0
   57.9383   32.7996   44.3358 C   0  0  0  0  0  0  0  0  0  0  0  0
   58.0449   34.0734   45.1731 C   0  0  0  0  0  0  0  0  0  0  0  0
   58.6034   32.5467   47.5484 N   0  0  0  0  0  0  0  0  0  0  0  0
   59.1411   33.8657   46.5699 S   0  0  0  0  0  0  0  0  0  0  0  0
   59.1354   35.1262   47.3875 O   0  0  0  0  0  0  0  0  0  0  0  0
   60.5394   33.5960   46.0893 O   0  0  0  0  0  0  0  0  0  0  0  0
   59.2330   32.4340   48.3429 H   0  0  0  0  0  0  0  0  0  0  0  0
   58.9970   29.4396   47.8330 O   0  0  0  0  0  0  0  0  0  0  0  0
   59.6968   29.3434   49.0702 C   0  0  0  0  0  0  0  0  0  0  0  0
   60.9180   30.2203   49.0426 C   0  0  0  0  0  0  0  0  0  0  0  0
   61.3496   30.7797   47.8284 C   0  0  0  0  0  0  0  0  0  0  0  0
   62.4634   31.6255   47.7974 C   0  0  0  0  0  0  0  0  0  0  0  0
   63.1471   31.9254   48.9803 C   0  0  0  0  0  0  0  0  0  0  0  0
   62.7187   31.3797   50.1945 C   0  0  0  0  0  0  0  0  0  0  0  0
   61.6064   30.5319   50.2270 C   0  0  0  0  0  0  0  0  0  0  0  0
 13 14  1  0
 14 15  2  0
 14 16  2  0
 14 12  1  0
 12 11  1  0
 11 10  1  0
 10  8  1  0
  8  9  2  0
  8  7  1  0
  7  1  1  0
  1  2  1  0
  2  3  1  0
  3  4  2  0
  3  5  1  0
  5  6  1  0
  6 18  1  0
 18 19  1  0
 19 20  1  0
 20 21  2  0
 21 22  1  0
 22 23  2  0
 23 24  1  0
 24 25  2  0
  6  1  2  0
 25 20  1  0
 13 17  1  0
M  CHG 1   2  -1
M  CHG 1   5  -1
M  CHG 1  10  -1
M  CHG 1  13  -1
M  END
> <UniqueID>
3

> <SMILES>
[NH-]S(=O)(=O)CC[N-]C(=O)Cc1[n-]c(=O)[n-]c1OCc1ccccc1

> <Energy>
53.69294559641584

> <Genealogy>
[NH-]S(=O)(=O)CC[N-]C(=O)Cc1[n-]c(=O)[n-]c1OCc1ccccc1 (protonated)
[NH-]S(=O)(=O)CC[N-]C(=O)Cc1[n-]c(=O)[n-]c1OCc1ccccc1 (3D coordinates assigned)
[NH-]S(=O)(=O)CC[N-]C(=O)Cc1[n-]c(=O)[n-]c1OCc1ccccc1 (optimized conformer: 53.69294559641584 kcal/mol)

> <smiles>
NS(=O)(=O)CCNC(=O)Cc1[nH]c(=O)[nH]c1OCc1ccccc1

> <score_type>
oracle

> <origin>
adg

> <m_score__min__energy>
-14.67

> <m_primary>
energy

> <minimizedAffinity>
-6.68558

> <minimizedRMSD>
2.77775

> <CNNscore>
0.6493918896

> <CNNaffinity>
6.2923331261

> <CNN_VS>
4.0861902237

> <CNNaffinity_variance>
0.2433833331

$$$$
3:0


 26 28  0  0  0  0  0  0  0  0999 V2000
   59.4474   27.5169   47.0315 C   0  0  0  0  0  0  0  0  0  0  0  0
   60.2445   27.3939   45.8790 C   0  0  0  0  0  0  0  0  0  0  0  0
   60.8596   28.5168   45.3193 C   0  0  0  0  0  0  0  0  0  0  0  0
   60.6888   29.7745   45.9009 C   0  0  0  0  0  0  0  0  0  0  0  0
   59.9055   29.9173   47.0558 C   0  0  0  0  0  0  0  0  0  0  0  0
   59.2793   28.7891   47.6100 C   0  0  0  0  0  0  0  0  0  0  0  0
   58.7831   26.3290   47.6176 C   0  0  0  0  0  0  0  0  0  0  0  0
   59.2811   25.7684   48.6331 O   0  0  0  0  0  0  0  0  0  0  0  0
   58.1475   23.0945   45.0029 C   0  0  0  0  0  0  0  0  0  0  0  0
   58.2879   24.1000   45.9076 N   0  0  0  0  0  0  0  0  0  0  0  0
   57.2708   24.9468   46.2291 C   0  0  0  0  0  0  0  0  0  0  0  0
   57.5199   25.8828   47.1041 N   0  0  0  0  0  0  0  0  0  0  0  0
   56.0008   24.7414   45.6304 C   0  0  0  0  0  0  0  0  0  0  0  0
   54.8784   25.4809   45.9847 O   0  0  0  0  0  0  0  0  0  0  0  0
   55.8502   23.7221   44.6859 C   0  0  0  0  0  0  0  0  0  0  0  0
   56.9263   22.8955   44.3658 C   0  0  0  0  0  0  0  0  0  0  0  0
   59.6875   31.2804   47.6612 C   0  0  0  0  0  0  0  0  0  0  0  0
   58.4710   31.9737   47.0469 C   0  0  0  0  0  0  0  0  0  0  0  0
   57.7982   31.0744   46.1121 N   0  0  0  0  0  0  0  0  0  0  0  0
   57.6567   31.3119   44.8410 C   0  0  0  0  0  0  0  0  0  0  0  0
   58.4430   32.2327   44.2127 N   0  0  0  0  0  0  0  0  0  0  0  0
   58.3149   32.5002   42.8859 C   0  0  0  0  0  0  0  0  0  0  0  0
   57.3574   31.8269   42.1256 C   0  0  0  0  0  0  0  0  0  0  0  0
   56.5380   30.8805   42.7438 C   0  0  0  0  0  0  0  0  0  0  0  0
   56.6838   30.6175   44.1083 C   0  0  0  0  0  0  0  0  0  0  0  0
   55.8664   29.6759   44.7234 O   0  0  0  0  0  0  0  0  0  0  0  0
  9 10  1  0
 10 11  1  0
 11 12  2  0
 12  7  1  0
  7  8  2  0
  7  1  1  0
  1  2  2  0
  2  3  1  0
  3  4  2  0
  4  5  1  0
  5 17  1  0
 17 18  1  0
 18 19  1  0
 19 20  2  0
 20 21  1  0
 21 22  1  0
 22 23  2  0
 23 24  1  0
 24 25  2  0
 25 26  1  0
  5  6  2  0
 11 13  1  0
 13 14  1  0
 13 15  2  0
 15 16  1  0
 16  9  2  0
  6  1  1  0
 25 20  1  0
M  CHG 1  10  -1
M  CHG 1  14  -1
M  CHG 1  21  -1
M  CHG 1  26  -1
M  END
> <UniqueID>
4

> <SMILES>
O=C(N=c1[n-]cccc1[O-])c1cccc(CC/N=c2/[n-]cccc2[O-])c1

> <Energy>
53.957380281818416

> <Genealogy>
O=C(N=c1[n-]cccc1[O-])c1cccc(CCN=c2[n-]cccc2[O-])c1 (protonated)
O=C(N=c1[n-]cccc1[O-])c1cccc(CC/N=c2/[n-]cccc2[O-])c1 (cis-trans isomerization)
O=C(N=c1[n-]cccc1[O-])c1cccc(CC/N=c2/[n-]cccc2[O-])c1 (3D coordinates assigned)
O=C(N=c1[n-]cccc1[O-])c1cccc(CC/N=c2/[n-]cccc2[O-])c1 (optimized conformer: 53.957380281818416 kcal/mol)

> <smiles>
O=C(N=c1[nH]cccc1O)c1cccc(CCN=c2[nH]cccc2O)c1

> <score_type>
oracle

> <origin>
adg

> <m_score__min__energy>
-16.27

> <m_primary>
energy

> <minimizedAffinity>
-4.54039

> <minimizedRMSD>
0.82638

> <CNNscore>
0.3894370198

> <CNNaffinity>
6.0741295815

> <CNN_VS>
2.3654909134

> <CNNaffinity_variance>
0.0061726752

$$$$
4:0


 25 27  0  0  0  0  0  0  0  0999 V2000
   58.7911   31.0046   47.0627 C   0  0  0  0  0  0  0  0  0  0  0  0
   58.4857   31.7111   45.9634 C   0  0  0  0  0  0  0  0  0  0  0  0
   58.3385   31.2431   44.6491 C   0  0  0  0  0  0  0  0  0  0  0  0
   58.3304   29.9912   44.1445 C   0  0  0  0  0  0  0  0  0  0  0  0
   58.1776   32.4022   43.8967 C   0  0  0  0  0  0  0  0  0  0  0  0
   57.9799   32.4924   42.4157 C   0  0  0  0  0  0  0  0  0  0  0  0
   58.1868   33.4798   44.7019 N   0  0  0  0  0  0  0  0  0  0  0  0
   58.3611   33.0633   45.9455 N   0  0  0  0  0  0  0  0  0  0  0  0
   58.1954   28.7531   44.9344 C   0  0  0  0  0  0  0  0  0  0  0  0
   56.9341   28.2596   45.3041 C   0  0  0  0  0  0  0  0  0  0  0  0
   55.7747   28.9511   44.9682 O   0  0  0  0  0  0  0  0  0  0  0  0
   56.8369   27.0956   45.9960 N   0  0  0  0  0  0  0  0  0  0  0  0
   57.9457   26.3827   46.3244 C   0  0  0  0  0  0  0  0  0  0  0  0
   57.7987   24.9867   47.1575 S   0  0  0  0  0  0  0  0  0  0  0  0
   59.1734   26.8239   45.9509 N   0  0  0  0  0  0  0  0  0  0  0  0
   59.3233   27.9837   45.2599 C   0  0  0  0  0  0  0  0  0  0  0  0
   60.4780   28.3601   44.9239 O   0  0  0  0  0  0  0  0  0  0  0  0
   58.4940   33.9969   47.0674 C   0  0  0  0  0  0  0  0  0  0  0  0
   59.8393   33.8422   47.7259 C   0  0  0  0  0  0  0  0  0  0  0  0
   59.9422   33.8688   49.1263 C   0  0  0  0  0  0  0  0  0  0  0  0
   61.1884   33.7467   49.7445 C   0  0  0  0  0  0  0  0  0  0  0  0
   62.3420   33.5871   48.9724 C   0  0  0  0  0  0  0  0  0  0  0  0
   62.2524   33.5346   47.5724 C   0  0  0  0  0  0  0  0  0  0  0  0
   63.4946   33.4019   46.7418 C   0  0  0  0  0  0  0  0  0  0  0  0
   61.0002   33.6755   46.9531 C   0  0  0  0  0  0  0  0  0  0  0  0
  1  2  2  0
  2  3  1  0
  3  4  2  0
  4  9  1  0
  9 10  2  0
 10 11  1  0
 10 12  1  0
 12 13  1  0
 13 14  2  0
 13 15  1  0
 15 16  1  0
 16 17  2  0
  3  5  1  0
  5  6  1  0
  5  7  2  0
  7  8  1  0
  8 18  1  0
 18 19  1  0
 19 20  2  0
 20 21  1  0
 21 22  2  0
 22 23  1  0
 23 24  1  0
 23 25  2  0
  8  2  1  0
 25 19  1  0
 16  9  1  0
M  CHG 1  11  -1
M  CHG 1  12  -1
M  CHG 1  15  -1
M  END
> <UniqueID>
5

> <SMILES>
C=c1/c(=C\c2c([O-])[n-]c(=S)[n-]c2=O)c(C)nn1Cc1cccc(C)c1

> <Energy>
86.41030973407639

> <Genealogy>
C=c1c(=Cc2c([O-])[n-]c(=S)[n-]c2=O)c(C)nn1Cc1cccc(C)c1 (protonated)
C=c1/c(=C\c2c([O-])[n-]c(=S)[n-]c2=O)c(C)nn1Cc1cccc(C)c1 (cis-trans isomerization)
C=c1/c(=C\c2c([O-])[n-]c(=S)[n-]c2=O)c(C)nn1Cc1cccc(C)c1 (3D coordinates assigned)
C=c1/c(=C\c2c([O-])[n-]c(=S)[n-]c2=O)c(C)nn1Cc1cccc(C)c1 (optimized conformer: 86.41030973407639 kcal/mol)

> <smiles>
C=c1c(=Cc2c(O)[nH]c(=S)[nH]c2=O)c(C)nn1Cc1cccc(C)c1

> <score_type>
oracle

> <origin>
adg

> <m_score__min__energy>
-16.079999999999998

> <m_primary>
energy

> <minimizedAffinity>
-7.11270

> <minimizedRMSD>
0.60865

> <CNNscore>
0.4296155870

> <CNNaffinity>
6.6594023705

> <CNN_VS>
2.8609831333

> <CNNaffinity_variance>
0.0677593723

$$$$
11:0


 26 28  0  0  0  0  0  0  0  0999 V2000
   59.4862   29.8350   50.1330 C   0  0  0  0  0  0  0  0  0  0  0  0
   60.5820   30.0166   50.9945 C   0  0  0  0  0  0  0  0  0  0  0  0
   60.3757   30.0952   52.3350 N   0  0  0  0  0  0  0  0  0  0  0  0
   59.1287   30.0025   52.8655 C   0  0  0  0  0  0  0  0  0  0  0  0
   58.0323   29.8282   52.0183 C   0  0  0  0  0  0  0  0  0  0  0  0
   56.8352   29.7396   52.5208 N   0  0  0  0  0  0  0  0  0  0  0  0
   58.2405   29.7510   50.6738 N   0  0  0  0  0  0  0  0  0  0  0  0
   58.9146   28.9715   46.4698 C   0  0  0  0  0  0  0  0  0  0  0  0
   59.9896   29.6390   45.8709 C   0  0  0  0  0  0  0  0  0  0  0  0
   60.8843   30.3706   46.6549 C   0  0  0  0  0  0  0  0  0  0  0  0
   60.7162   30.4324   48.0397 C   0  0  0  0  0  0  0  0  0  0  0  0
   59.6528   29.7558   48.6603 C   0  0  0  0  0  0  0  0  0  0  0  0
   58.7499   29.0263   47.8604 C   0  0  0  0  0  0  0  0  0  0  0  0
   56.4160   29.0269   45.1016 N   0  0  0  0  0  0  0  0  0  0  0  0
   57.7874   28.0467   45.4814 S   0  0  0  0  0  0  0  0  0  0  0  0
   57.3370   26.8225   46.2278 O   0  0  0  0  0  0  0  0  0  0  0  0
   58.4622   27.6157   44.2105 O   0  0  0  0  0  0  0  0  0  0  0  0
   55.7633   28.4913   44.5293 H   0  0  0  0  0  0  0  0  0  0  0  0
   55.9278   30.8680   52.7254 C   0  0  0  0  0  0  0  0  0  0  0  0
   54.4911   30.4131   52.7144 C   0  0  0  0  0  0  0  0  0  0  0  0
   53.9239   29.8204   53.8541 C   0  0  0  0  0  0  0  0  0  0  0  0
   52.5928   29.3916   53.8350 C   0  0  0  0  0  0  0  0  0  0  0  0
   51.8191   29.5561   52.6838 C   0  0  0  0  0  0  0  0  0  0  0  0
   52.3736   30.1539   51.5486 C   0  0  0  0  0  0  0  0  0  0  0  0
   51.6033   30.3198   50.4048 O   0  0  0  0  0  0  0  0  0  0  0  0
   53.7061   30.5834   51.5620 C   0  0  0  0  0  0  0  0  0  0  0  0
 14 15  1  0
 15 16  2  0
 15 17  2  0
 15  8  1  0
  8  9  2  0
  9 10  1  0
 10 11  2  0
 11 12  1  0
 12  1  1  0
  1  2  2  0
  2  3  1  0
  3  4  2  0
  4  5  1  0
  5  6  2  0
  6 19  1  0
 19 20  1  0
 20 21  2  0
 21 22  1  0
 22 23  2  0
 23 24  1  0
 24 25  1  0
 24 26  2  0
  5  7  1  0
 12 13  2  0
 13  8  1  0
  7  1  1  0
 26 20  1  0
 14 18  1  0
M  CHG 1   7  -1
M  CHG 1  14  -1
M  CHG 1  25  -1
M  END
> <UniqueID>
12

> <SMILES>
[NH-]S(=O)(=O)c1cccc(-c2cncc(=NCc3cccc([O-])c3)[n-]2)c1

> <Energy>
44.449322579342756

> <Genealogy>
[NH-]S(=O)(=O)c1cccc(-c2cncc(=NCc3cccc([O-])c3)[n-]2)c1 (protonated)
[NH-]S(=O)(=O)c1cccc(-c2cncc(=NCc3cccc([O-])c3)[n-]2)c1 (3D coordinates assigned)
[NH-]S(=O)(=O)c1cccc(-c2cncc(=NCc3cccc([O-])c3)[n-]2)c1 (optimized conformer: 44.449322579342756 kcal/mol)

> <smiles>
NS(=O)(=O)c1cccc(-c2cncc(=NCc3cccc(O)c3)[nH]2)c1

> <score_type>
oracle

> <origin>
adg

> <m_score__min__energy>
-15.56

> <m_primary>
energy

> <minimizedAffinity>
-7.45283

> <minimizedRMSD>
1.03291

> <CNNscore>
0.1931579709

> <CNNaffinity>
4.9671101570

> <CNN_VS>
0.9594368935

> <CNNaffinity_variance>
0.4197776318

$$$$
27:0


 22 24  0  0  0  0  0  0  0  0999 V2000
   57.5334   25.8339   45.9656 C   0  0  0  0  0  0  0  0  0  0  0  0
   58.6310   25.5558   46.7908 C   0  0  0  0  0  0  0  0  0  0  0  0
   59.2745   27.0170   47.3256 S   0  0  0  0  0  0  0  0  0  0  0  0
   58.1346   27.9397   46.5149 C   0  0  0  0  0  0  0  0  0  0  0  0
   58.1351   29.2414   46.5238 N   0  0  0  0  0  0  0  0  0  0  0  0
   57.2722   27.1641   45.8179 N   0  0  0  0  0  0  0  0  0  0  0  0
   56.5386   27.5201   45.2662 H   0  0  0  0  0  0  0  0  0  0  0  0
   56.8134   22.2491   42.8038 O   0  0  0  0  0  0  0  0  0  0  0  0
   56.3789   23.0145   43.7041 C   0  0  0  0  0  0  0  0  0  0  0  0
   57.2242   23.9616   44.2882 C   0  0  0  0  0  0  0  0  0  0  0  0
   56.7077   24.8010   45.2899 C   0  0  0  0  0  0  0  0  0  0  0  0
   55.4018   24.6620   45.6517 N   0  0  0  0  0  0  0  0  0  0  0  0
   54.5967   23.7352   45.0734 C   0  0  0  0  0  0  0  0  0  0  0  0
   53.0384   23.6039   45.5406 S   0  0  0  0  0  0  0  0  0  0  0  0
   55.0871   22.9190   44.1062 N   0  0  0  0  0  0  0  0  0  0  0  0
   57.8799   30.0987   45.3994 C   0  0  0  0  0  0  0  0  0  0  0  0
   58.8255   31.0519   44.9832 C   0  0  0  0  0  0  0  0  0  0  0  0
   58.5803   31.8418   43.8553 C   0  0  0  0  0  0  0  0  0  0  0  0
   57.4031   31.6703   43.1237 C   0  0  0  0  0  0  0  0  0  0  0  0
   56.4743   30.7003   43.5109 C   0  0  0  0  0  0  0  0  0  0  0  0
   56.7147   29.9077   44.6404 C   0  0  0  0  0  0  0  0  0  0  0  0
   55.7895   28.9376   45.0075 O   0  0  0  0  0  0  0  0  0  0  0  0
  8  9  2  0
  9 10  1  0
 10 11  2  0
 11  1  1  0
  1  2  2  0
  2  3  1  0
  3  4  1  0
  4  5  2  0
  5 16  1  0
 16 17  2  0
 17 18  1  0
 18 19  2  0
 19 20  1  0
 20 21  2  0
 21 22  1  0
  4  6  1  0
 11 12  1  0
 12 13  1  0
 13 14  2  0
 13 15  1  0
 15  9  1  0
  6  1  1  0
 21 16  1  0
  6  7  1  0
M  CHG 1  12  -1
M  CHG 1  15  -1
M  CHG 1  22  -1
M  END
> <UniqueID>
28

> <SMILES>
O=c1cc(-c2csc(=Nc3ccccc3[O-])[nH]2)[n-]c(=S)[n-]1

> <Energy>
70.95840795188849

> <Genealogy>
O=c1cc(-c2csc(=Nc3ccccc3[O-])[nH]2)[n-]c(=S)[n-]1 (protonated)
O=c1cc(-c2csc(=Nc3ccccc3[O-])[nH]2)[n-]c(=S)[n-]1 (3D coordinates assigned)
O=c1cc(-c2csc(=Nc3ccccc3[O-])[nH]2)[n-]c(=S)[n-]1 (optimized conformer: 70.95840795188849 kcal/mol)

> <smiles>
O=c1cc(-c2csc(=Nc3ccccc3O)[nH]2)[nH]c(=S)[nH]1

> <score_type>
oracle

> <origin>
adg

> <m_score__min__energy>
-14.289999999999999

> <m_primary>
energy

> <minimizedAffinity>
-5.80101

> <minimizedRMSD>
0.71909

> <CNNscore>
0.0660830438

> <CNNaffinity>
4.9530663490

> <CNN_VS>
0.3273136914

> <CNNaffinity_variance>
0.1886143237

$$$$
44:0


 24 25  0  0  0  0  0  0  0  0999 V2000
   58.3047   26.8736   46.1799 C   0  0  0  0  0  0  0  0  0  0  0  0
   59.6933   27.0539   46.1654 C   0  0  0  0  0  0  0  0  0  0  0  0
   60.2597   28.1511   45.5131 C   0  0  0  0  0  0  0  0  0  0  0  0
   59.4413   29.0825   44.8734 C   0  0  0  0  0  0  0  0  0  0  0  0
   58.0516   28.9080   44.8561 C   0  0  0  0  0  0  0  0  0  0  0  0
   57.4832   27.7784   45.4740 C   0  0  0  0  0  0  0  0  0  0  0  0
   56.1187   27.5471   45.3541 O   0  0  0  0  0  0  0  0  0  0  0  0
   57.0270   30.1315   44.1007 S   0  0  0  0  0  0  0  0  0  0  0  0
   56.6664   29.7325   42.6966 O   0  0  0  0  0  0  0  0  0  0  0  0
   55.7679   30.2742   44.9075 O   0  0  0  0  0  0  0  0  0  0  0  0
   57.8515   31.6619   44.0593 N   0  0  0  0  0  0  0  0  0  0  0  0
   58.2868   32.3373   45.0834 C   0  0  0  0  0  0  0  0  0  0  0  0
   58.7033   33.6799   44.9887 C   0  0  0  0  0  0  0  0  0  0  0  0
   59.2077   34.3262   46.1187 C   0  0  0  0  0  0  0  0  0  0  0  0
   59.2776   33.6492   47.3414 C   0  0  0  0  0  0  0  0  0  0  0  0
   59.8704   34.3142   48.5478 C   0  0  0  0  0  0  0  0  0  0  0  0
   58.8524   32.3170   47.3990 C   0  0  0  0  0  0  0  0  0  0  0  0
   58.3697   31.7051   46.2853 N   0  0  0  0  0  0  0  0  0  0  0  0
   57.7786   25.7627   46.9192 N   0  0  0  0  0  0  0  0  0  0  0  0
   56.9650   24.3844   46.2441 S   0  0  0  0  0  0  0  0  0  0  0  0
   55.4879   24.5517   46.4588 O   0  0  0  0  0  0  0  0  0  0  0  0
   57.4152   23.1321   46.9429 O   0  0  0  0  0  0  0  0  0  0  0  0
   56.1120   23.5416   43.7828 C   0  0  0  0  0  0  0  0  0  0  0  0
   57.2639   24.2475   44.4837 C   0  0  0  0  0  0  0  0  0  0  0  0
 23 24  1  0
 24 20  1  0
 20 21  2  0
 20 22  2  0
 20 19  1  0
 19  1  1  0
  1  2  2  0
  2  3  1  0
  3  4  2  0
  4  5  1  0
  5  8  1  0
  8  9  2  0
  8 10  2  0
  8 11  1  0
 11 12  2  0
 12 13  1  0
 13 14  2  0
 14 15  1  0
 15 16  1  0
 15 17  2  0
 17 18  1  0
  5  6  2  0
  6  7  1  0
  6  1  1  0
 18 12  1  0
M  CHG 1   7  -1
M  CHG 1  18  -1
M  CHG 1  19  -1
M  END
> <UniqueID>
42

> <SMILES>
CCS(=O)(=O)[N-]c1cccc(S(=O)(=O)N=c2ccc(C)c[n-]2)c1[O-]

> <Energy>
41.70654755873302

> <Genealogy>
CCS(=O)(=O)[N-]c1cccc(S(=O)(=O)N=c2ccc(C)c[n-]2)c1[O-] (protonated)
CCS(=O)(=O)[N-]c1cccc(S(=O)(=O)N=c2ccc(C)c[n-]2)c1[O-] (3D coordinates assigned)
CCS(=O)(=O)[N-]c1cccc(S(=O)(=O)N=c2ccc(C)c[n-]2)c1[O-] (optimized conformer: 41.70654755873302 kcal/mol)

> <smiles>
CCS(=O)(=O)Nc1cccc(S(=O)(=O)N=c2ccc(C)c[nH]2)c1O

> <score_type>
oracle

> <origin>
adg

> <m_score__min__energy>
-15.75

> <m_primary>
energy

> <minimizedAffinity>
-7.89626

> <minimizedRMSD>
0.72836

> <CNNscore>
0.8835279346

> <CNNaffinity>
6.7726712227

> <CNN_VS>
5.9838442802

> <CNNaffinity_variance>
0.0955131575

$$$$
54:0


 23 25  0  0  0  0  0  0  0  0999 V2000
   60.4909   30.4012   47.6921 C   0  0  0  0  0  0  0  0  0  0  0  0
   60.3682   29.4521   46.7228 N   0  0  0  0  0  0  0  0  0  0  0  0
   60.1816   28.2241   47.2485 C   0  0  0  0  0  0  0  0  0  0  0  0
   60.0724   27.1634   46.5045 N   0  0  0  0  0  0  0  0  0  0  0  0
   60.1974   28.2616   48.9359 S   0  0  0  0  0  0  0  0  0  0  0  0
   60.4284   29.9259   49.0005 C   0  0  0  0  0  0  0  0  0  0  0  0
   59.0145   26.8906   45.5734 C   0  0  0  0  0  0  0  0  0  0  0  0
   58.9207   27.6093   44.5442 O   0  0  0  0  0  0  0  0  0  0  0  0
   57.9850   25.8549   45.8376 C   0  0  0  0  0  0  0  0  0  0  0  0
   56.6421   26.2321   46.0241 C   0  0  0  0  0  0  0  0  0  0  0  0
   55.6601   25.2664   46.2602 C   0  0  0  0  0  0  0  0  0  0  0  0
   56.0044   23.9132   46.3054 C   0  0  0  0  0  0  0  0  0  0  0  0
   55.0263   22.9545   46.5407 O   0  0  0  0  0  0  0  0  0  0  0  0
   57.3328   23.5240   46.1131 C   0  0  0  0  0  0  0  0  0  0  0  0
   58.3222   24.4851   45.8800 C   0  0  0  0  0  0  0  0  0  0  0  0
   59.6395   24.0702   45.7062 O   0  0  0  0  0  0  0  0  0  0  0  0
   60.7500   31.8366   47.3574 C   0  0  0  0  0  0  0  0  0  0  0  0
   57.9247   33.7310   45.3898 C   0  0  0  0  0  0  0  0  0  0  0  0
   59.3361   34.0126   46.2586 S   0  0  0  0  0  0  0  0  0  0  0  0
   59.6270   32.3780   46.5365 C   0  0  0  0  0  0  0  0  0  0  0  0
   58.6561   31.6062   45.9991 N   0  0  0  0  0  0  0  0  0  0  0  0
   57.7204   32.3568   45.3584 C   0  0  0  0  0  0  0  0  0  0  0  0
   56.6312   31.7781   44.7223 O   0  0  0  0  0  0  0  0  0  0  0  0
 18 19  1  0
 19 20  1  0
 20 17  1  0
 17  1  1  0
  1  2  1  0
  2  3  1  0
  3  4  2  0
  4  7  1  0
  7  8  2  0
  7  9  1  0
  9 10  2  0
 10 11  1  0
 11 12  2  0
 12 13  1  0
 12 14  1  0
 14 15  2  0
 15 16  1  0
  3  5  1  0
  5  6  1  0
 20 21  2  0
 21 22  1  0
 22 23  1  0
 22 18  2  0
  6  1  2  0
 15  9  1  0
M  CHG 1   2  -1
M  CHG 1  13  -1
M  CHG 1  16  -1
M  CHG 1  23  -1
M  END
> <UniqueID>
50

> <SMILES>
O=C(/N=c1/[n-]c(Cc2nc([O-])cs2)cs1)c1ccc([O-])cc1[O-]

> <Energy>
99.60709054900387

> <Genealogy>
O=C(N=c1[n-]c(Cc2nc([O-])cs2)cs1)c1ccc([O-])cc1[O-] (protonated)
O=C(/N=c1/[n-]c(Cc2nc([O-])cs2)cs1)c1ccc([O-])cc1[O-] (cis-trans isomerization)
O=C(/N=c1/[n-]c(Cc2nc([O-])cs2)cs1)c1ccc([O-])cc1[O-] (3D coordinates assigned)
O=C(/N=c1/[n-]c(Cc2nc([O-])cs2)cs1)c1ccc([O-])cc1[O-] (optimized conformer: 99.60709054900387 kcal/mol)

> <smiles>
O=C(N=c1[nH]c(Cc2nc(O)cs2)cs1)c1ccc(O)cc1O

> <score_type>
oracle

> <origin>
adg

> <m_score__min__energy>
-16.969999999999999

> <m_primary>
energy

> <minimizedAffinity>
-6.35840

> <minimizedRMSD>
2.37621

> <CNNscore>
0.4521737397

> <CNNaffinity>
6.4135966301

> <CNN_VS>
2.9000599384

> <CNNaffinity_variance>
0.1625512391

$$$$
70:0


 34 38  0  0  0  0  0  0  0  0999 V2000
   58.5430   31.3517   45.7020 C   0  0  0  0  0  0  0  0  0  0  0  0
   58.3368   32.3071   44.6970 C   0  0  0  0  0  0  0  0  0  0  0  0
   58.5152   33.6649   44.9713 C   0  0  0  0  0  0  0  0  0  0  0  0
   58.9039   34.0771   46.2491 C   0  0  0  0  0  0  0  0  0  0  0  0
   59.1292   33.1323   47.2626 C   0  0  0  0  0  0  0  0  0  0  0  0
   58.9332   31.7685   46.9836 C   0  0  0  0  0  0  0  0  0  0  0  0
   59.5325   33.5624   48.6186 C   0  0  0  0  0  0  0  0  0  0  0  0
   59.0874   34.6482   49.0816 O   0  0  0  0  0  0  0  0  0  0  0  0
   60.3976   32.7481   49.4279 N   0  0  0  0  0  0  0  0  0  0  0  0
   60.0114   32.2102   50.7372 C   0  0  0  0  0  0  0  0  0  0  0  0
   61.3250   31.7995   51.4437 C   0  0  0  0  0  0  0  0  0  0  0  0
   62.3760   32.1595   50.4524 C   0  0  0  0  0  0  0  0  0  0  0  0
   63.7589   31.9943   50.5630 C   0  0  0  0  0  0  0  0  0  0  0  0
   64.3064   31.4616   51.6829 F   0  0  0  0  0  0  0  0  0  0  0  0
   64.5703   32.3887   49.4881 C   0  0  0  0  0  0  0  0  0  0  0  0
   63.9900   32.9297   48.3250 C   0  0  0  0  0  0  0  0  0  0  0  0
   62.5965   33.0838   48.2347 C   0  0  0  0  0  0  0  0  0  0  0  0
   61.8127   32.6978   49.3288 C   0  0  0  0  0  0  0  0  0  0  0  0
   59.6613   29.0276   47.1646 C   0  0  0  0  0  0  0  0  0  0  0  0
   58.9110   28.8998   46.0587 C   0  0  0  0  0  0  0  0  0  0  0  0
   58.4666   27.7053   45.4660 C   0  0  0  0  0  0  0  0  0  0  0  0
   58.7952   26.4209   45.7074 C   0  0  0  0  0  0  0  0  0  0  0  0
   57.5554   28.0739   44.4889 C   0  0  0  0  0  0  0  0  0  0  0  0
   57.5240   29.4519   44.4699 C   0  0  0  0  0  0  0  0  0  0  0  0
   56.6747   30.2701   43.5433 C   0  0  0  0  0  0  0  0  0  0  0  0
   58.3434   29.9546   45.4190 N   0  0  0  0  0  0  0  0  0  0  0  0
   57.8526   25.3339   46.0034 C   0  0  0  0  0  0  0  0  0  0  0  0
   58.2370   24.0691   46.2508 N   0  0  0  0  0  0  0  0  0  0  0  0
   57.0807   23.4473   46.5644 C   0  0  0  0  0  0  0  0  0  0  0  0
   57.0262   22.2221   46.8503 O   0  0  0  0  0  0  0  0  0  0  0  0
   55.9890   24.2403   46.5591 N   0  0  0  0  0  0  0  0  0  0  0  0
   56.4930   25.4385   46.2172 C   0  0  0  0  0  0  0  0  0  0  0  0
   55.7229   26.5952   46.1315 O   0  0  0  0  0  0  0  0  0  0  0  0
   54.8013   26.5578   46.2968 H   0  0  0  0  0  0  0  0  0  0  0  0
 19 20  2  0
 20 21  1  0
 21 22  2  0
 22 27  1  0
 27 28  1  0
 28 29  1  0
 29 30  2  0
 29 31  1  0
 31 32  1  0
 32 33  1  0
 21 23  1  0
 23 24  2  0
 24 25  1  0
 24 26  1  0
 26  1  1  0
  1  2  2  0
  2  3  1  0
  3  4  2  0
  4  5  1  0
  5  7  1  0
  7  8  2  0
  7  9  1  0
  9 10  1  0
 10 11  1  0
 11 12  1  0
 12 13  2  0
 13 14  1  0
 13 15  1  0
 15 16  2  0
 16 17  1  0
 17 18  2  0
  5  6  2  0
 26 20  1  0
  6  1  1  0
 32 27  2  0
 18  9  1  0
 18 12  1  0
 33 34  1  0
M  CHG 1  28  -1
M  CHG 1  31  -1
M  END
> <UniqueID>
66

> <SMILES>
C=c1c(=Cc2[n-]c(=O)[n-]c2O)cc(C)n1-c1cccc(C(=O)N2CCc3c(F)cccc32)c1

> <Energy>
153.13968144466114

> <Genealogy>
C=c1c(=Cc2[n-]c(=O)[n-]c2O)cc(C)n1-c1cccc(C(=O)N2CCc3c(F)cccc32)c1 (protonated)
C=c1c(=Cc2[n-]c(=O)[n-]c2O)cc(C)n1-c1cccc(C(=O)N2CCc3c(F)cccc32)c1 (3D coordinates assigned)
C=c1c(=Cc2[n-]c(=O)[n-]c2O)cc(C)n1-c1cccc(C(=O)N2CCc3c(F)cccc32)c1 (nonaromatic ring conformer: 153.13968144466114 kcal/mol)

> <smiles>
C=c1c(=Cc2[nH]c(=O)[nH]c2O)cc(C)n1-c1cccc(C(=O)N2CCc3c(F)cccc32)c1

> <score_type>
oracle

> <origin>
adg

> <m_score__min__energy>
-15.390000000000001

> <m_primary>
energy

> <minimizedAffinity>
-10.32074

> <minimizedRMSD>
0.97252

> <CNNscore>
0.5338507891

> <CNNaffinity>
7.3818321228

> <CNN_VS>
3.9407968521

> <CNNaffinity_variance>
0.0687354505

$$$$
77:0


 32 35  0  0  0  0  0  0  0  0999 V2000
   55.3979   29.4471   53.0951 C   0  0  0  0  0  0  0  0  0  0  0  0
   56.1662   29.8941   52.0649 N   0  0  0  0  0  0  0  0  0  0  0  0
   57.5230   29.9659   52.1347 C   0  0  0  0  0  0  0  0  0  0  0  0
   58.1693   29.5872   53.3211 C   0  0  0  0  0  0  0  0  0  0  0  0
   57.4084   29.1294   54.3980 C   0  0  0  0  0  0  0  0  0  0  0  0
   56.0189   29.0536   54.2910 C   0  0  0  0  0  0  0  0  0  0  0  0
   58.2771   30.4567   50.9662 C   0  0  0  0  0  0  0  0  0  0  0  0
   59.1622   29.7330   50.4352 O   0  0  0  0  0  0  0  0  0  0  0  0
   57.9952   31.7560   50.4264 N   0  0  0  0  0  0  0  0  0  0  0  0
   57.1241   32.1697   50.6246 H   0  0  0  0  0  0  0  0  0  0  0  0
   58.9288   32.4784   49.6099 C   0  0  0  0  0  0  0  0  0  0  0  0
   58.7466   32.4877   48.2201 C   0  0  0  0  0  0  0  0  0  0  0  0
   59.6468   33.1636   47.3924 C   0  0  0  0  0  0  0  0  0  0  0  0
   60.7287   33.8469   47.9488 C   0  0  0  0  0  0  0  0  0  0  0  0
   60.9069   33.8716   49.3334 C   0  0  0  0  0  0  0  0  0  0  0  0
   60.0058   33.2014   50.1779 C   0  0  0  0  0  0  0  0  0  0  0  0
   60.1544   33.3095   51.6055 N   0  0  0  0  0  0  0  0  0  0  0  0
   59.0733   33.9042   52.4040 C   0  0  0  0  0  0  0  0  0  0  0  0
   59.0646   33.3593   53.8510 C   0  0  0  0  0  0  0  0  0  0  0  0
   60.0989   32.4246   54.1016 O   0  0  0  0  0  0  0  0  0  0  0  0
   61.3427   32.9866   53.7414 C   0  0  0  0  0  0  0  0  0  0  0  0
   61.4614   33.0396   52.2176 C   0  0  0  0  0  0  0  0  0  0  0  0
   53.9285   29.3977   52.9321 C   0  0  0  0  0  0  0  0  0  0  0  0
   53.2768   28.4061   53.3574 O   0  0  0  0  0  0  0  0  0  0  0  0
   52.0687   29.6039   49.1739 C   0  0  0  0  0  0  0  0  0  0  0  0
   52.7464   29.6389   50.3517 N   0  0  0  0  0  0  0  0  0  0  0  0
   52.5357   30.6021   51.2905 C   0  0  0  0  0  0  0  0  0  0  0  0
   53.2140   30.5227   52.4028 N   0  0  0  0  0  0  0  0  0  0  0  0
   51.6114   31.6409   51.0044 C   0  0  0  0  0  0  0  0  0  0  0  0
   51.4209   32.7230   51.8566 O   0  0  0  0  0  0  0  0  0  0  0  0
   50.8944   31.6025   49.8063 C   0  0  0  0  0  0  0  0  0  0  0  0
   51.1170   30.5794   48.8868 C   0  0  0  0  0  0  0  0  0  0  0  0
 25 26  1  0
 26 27  1  0
 27 28  2  0
 28 23  1  0
 23 24  2  0
 23  1  1  0
  1  2  2  0
  2  3  1  0
  3  7  1  0
  7  8  2  0
  7  9  1  0
  9 11  1  0
 11 12  2  0
 12 13  1  0
 13 14  2  0
 14 15  1  0
 15 16  2  0
 16 17  1  0
 17 18  1  0
 18 19  1  0
 19 20  1  0
 20 21  1  0
 21 22  1  0
  3  4  2  0
  4  5  1  0
  5  6  2  0
 27 29  1  0
 29 30  1  0
 29 31  2  0
 31 32  1  0
 32 25  2  0
  6  1  1  0
 16 11  1  0
 22 17  1  0
  9 10  1  0
M  CHG 1  26  -1
M  CHG 1  30  -1
M  END
> <UniqueID>
73

> <SMILES>
O=C(/N=c1/[n-]cccc1[O-])c1cccc(C(=O)Nc2ccccc2N2CCOCC2)n1

> <Energy>
80.79950069488838

> <Genealogy>
O=C(N=c1[n-]cccc1[O-])c1cccc(C(=O)Nc2ccccc2N2CCOCC2)n1 (protonated)
O=C(/N=c1/[n-]cccc1[O-])c1cccc(C(=O)Nc2ccccc2N2CCOCC2)n1 (cis-trans isomerization)
O=C(/N=c1/[n-]cccc1[O-])c1cccc(C(=O)Nc2ccccc2N2CCOCC2)n1 (3D coordinates assigned)
O=C(/N=c1/[n-]cccc1[O-])c1cccc(C(=O)Nc2ccccc2N2CCOCC2)n1 (nonaromatic ring conformer: 80.79950069488838 kcal/mol)

> <smiles>
O=C(N=c1[nH]cccc1O)c1cccc(C(=O)Nc2ccccc2N2CCOCC2)n1

> <score_type>
oracle

> <origin>
adg

> <m_score__min__energy>
-14.789999999999999

> <m_primary>
energy

> <minimizedAffinity>
-3.80267

> <minimizedRMSD>
0.56848

> <CNNscore>
0.2716638446

> <CNNaffinity>
5.4120087624

> <CNN_VS>
1.4702471495

> <CNNaffinity_variance>
0.3128378391

$$$$
80:0


 25 27  0  0  0  0  0  0  0  0999 V2000
   58.0994   29.5088   45.3748 C   0  0  0  0  0  0  0  0  0  0  0  0
   56.9510   30.2281   44.9856 C   0  0  0  0  0  0  0  0  0  0  0  0
   55.8336   29.5634   44.4869 O   0  0  0  0  0  0  0  0  0  0  0  0
   56.9142   31.5794   45.1154 N   0  0  0  0  0  0  0  0  0  0  0  0
   57.9541   32.2880   45.6246 C   0  0  0  0  0  0  0  0  0  0  0  0
   57.8617   33.6804   45.7355 C   0  0  0  0  0  0  0  0  0  0  0  0
   58.9263   34.4145   46.2633 C   0  0  0  0  0  0  0  0  0  0  0  0
   60.0881   33.7610   46.6834 C   0  0  0  0  0  0  0  0  0  0  0  0
   60.1918   32.3699   46.5782 C   0  0  0  0  0  0  0  0  0  0  0  0
   59.1247   31.6194   46.0469 C   0  0  0  0  0  0  0  0  0  0  0  0
   59.1908   30.2187   45.9199 C   0  0  0  0  0  0  0  0  0  0  0  0
   60.2314   29.5981   46.2780 O   0  0  0  0  0  0  0  0  0  0  0  0
   55.8463   28.6312   44.3925 H   0  0  0  0  0  0  0  0  0  0  0  0
   58.1545   28.0318   45.2404 C   0  0  0  0  0  0  0  0  0  0  0  0
   58.4511   27.5284   44.1239 O   0  0  0  0  0  0  0  0  0  0  0  0
   58.4413   27.2463   47.4580 O   0  0  0  0  0  0  0  0  0  0  0  0
   57.8131   27.1380   46.3706 C   0  0  0  0  0  0  0  0  0  0  0  0
   56.7229   26.2105   46.2984 N   0  0  0  0  0  0  0  0  0  0  0  0
   56.7860   24.8603   45.8168 C   0  0  0  0  0  0  0  0  0  0  0  0
   58.0395   24.2993   45.5470 C   0  0  0  0  0  0  0  0  0  0  0  0
   58.1417   22.9906   45.0671 C   0  0  0  0  0  0  0  0  0  0  0  0
   56.9890   22.2386   44.8353 C   0  0  0  0  0  0  0  0  0  0  0  0
   55.7303   22.8000   45.0696 C   0  0  0  0  0  0  0  0  0  0  0  0
   55.6209   24.1111   45.5455 C   0  0  0  0  0  0  0  0  0  0  0  0
   54.3576   24.6664   45.7166 O   0  0  0  0  0  0  0  0  0  0  0  0
 16 17  2  0
 17 18  1  0
 18 19  1  0
 19 20  2  0
 20 21  1  0
 21 22  2  0
 22 23  1  0
 23 24  2  0
 24 25  1  0
 17 14  1  0
 14 15  2  0
 14  1  1  0
  1  2  2  0
  2  3  1  0
  2  4  1  0
  4  5  1  0
  5  6  2  0
  6  7  1  0
  7  8  2  0
  8  9  1  0
  9 10  2  0
 10 11  1  0
 11 12  2  0
 24 19  1  0
 11  1  1  0
 10  5  1  0
  3 13  1  0
M  CHG 1   4  -1
M  CHG 1  18  -1
M  CHG 1  25  -1
M  END
> <UniqueID>
76

> <SMILES>
O=C([N-]c1ccccc1[O-])C(=O)c1c(O)[n-]c2ccccc2c1=O

> <Energy>
53.63392444262738

> <Genealogy>
O=C([N-]c1ccccc1[O-])C(=O)c1c(O)[n-]c2ccccc2c1=O (protonated)
O=C([N-]c1ccccc1[O-])C(=O)c1c(O)[n-]c2ccccc2c1=O (3D coordinates assigned)
O=C([N-]c1ccccc1[O-])C(=O)c1c(O)[n-]c2ccccc2c1=O (optimized conformer: 53.63392444262738 kcal/mol)

> <smiles>
O=C(Nc1ccccc1O)C(=O)c1c(O)[nH]c2ccccc2c1=O

> <score_type>
oracle

> <origin>
adg

> <m_score__min__energy>
-15.359999999999999

> <m_primary>
energy

> <minimizedAffinity>
-9.13785

> <minimizedRMSD>
1.05722

> <CNNscore>
0.7789667249

> <CNNaffinity>
6.4348816872

> <CNN_VS>
5.0125589371

> <CNNaffinity_variance>
0.1725701690

$$$$
81:0


 35 38  0  0  0  0  0  0  0  0999 V2000
   58.4398   30.7086   45.5089 C   0  0  0  0  0  0  0  0  0  0  0  0
   57.8204   31.1005   44.3149 C   0  0  0  0  0  0  0  0  0  0  0  0
   57.7570   32.4506   43.9680 C   0  0  0  0  0  0  0  0  0  0  0  0
   58.3044   33.4193   44.8113 C   0  0  0  0  0  0  0  0  0  0  0  0
   58.9140   33.0445   46.0216 C   0  0  0  0  0  0  0  0  0  0  0  0
   58.9869   31.6825   46.3575 C   0  0  0  0  0  0  0  0  0  0  0  0
   57.8082   28.3416   43.8122 C   0  0  0  0  0  0  0  0  0  0  0  0
   58.2192   28.2487   45.0870 C   0  0  0  0  0  0  0  0  0  0  0  0
   58.4062   27.0687   45.8160 C   0  0  0  0  0  0  0  0  0  0  0  0
   58.1940   25.8070   45.3939 C   0  0  0  0  0  0  0  0  0  0  0  0
   58.7952   27.4570   47.0921 C   0  0  0  0  0  0  0  0  0  0  0  0
   58.8505   28.8350   47.0873 C   0  0  0  0  0  0  0  0  0  0  0  0
   59.2075   29.6760   48.2754 C   0  0  0  0  0  0  0  0  0  0  0  0
   58.4959   29.3187   45.8750 N   0  0  0  0  0  0  0  0  0  0  0  0
   57.3351   24.8362   46.0952 C   0  0  0  0  0  0  0  0  0  0  0  0
   57.8008   23.7015   46.6455 N   0  0  0  0  0  0  0  0  0  0  0  0
   56.7118   23.1716   47.2420 C   0  0  0  0  0  0  0  0  0  0  0  0
   56.7457   22.0774   47.8644 O   0  0  0  0  0  0  0  0  0  0  0  0
   55.5879   23.9090   47.1292 N   0  0  0  0  0  0  0  0  0  0  0  0
   56.0002   24.9655   46.4112 C   0  0  0  0  0  0  0  0  0  0  0  0
   55.1838   26.0457   46.0966 O   0  0  0  0  0  0  0  0  0  0  0  0
   59.4944   34.0650   46.9258 C   0  0  0  0  0  0  0  0  0  0  0  0
   59.6607   35.2405   46.5060 O   0  0  0  0  0  0  0  0  0  0  0  0
   59.8292   33.7701   48.2891 N   0  0  0  0  0  0  0  0  0  0  0  0
   61.0487   33.1654   48.7492 C   0  0  0  0  0  0  0  0  0  0  0  0
   62.0328   32.7300   47.8424 C   0  0  0  0  0  0  0  0  0  0  0  0
   63.2173   32.1574   48.3096 C   0  0  0  0  0  0  0  0  0  0  0  0
   63.4372   32.0299   49.6809 C   0  0  0  0  0  0  0  0  0  0  0  0
   62.4774   32.4794   50.5911 C   0  0  0  0  0  0  0  0  0  0  0  0
   61.2773   33.0566   50.1313 C   0  0  0  0  0  0  0  0  0  0  0  0
   60.2859   33.5253   51.0081 O   0  0  0  0  0  0  0  0  0  0  0  0
   59.0549   32.5598   51.6988 S   0  0  0  0  0  0  0  0  0  0  0  0
   58.1870   33.3991   52.5945 O   0  0  0  0  0  0  0  0  0  0  0  0
   58.2153   31.9456   50.6142 O   0  0  0  0  0  0  0  0  0  0  0  0
   59.8068   31.2662   52.6590 C   0  0  0  0  0  0  0  0  0  0  0  0
  7  8  2  0
  8  9  1  0
  9 10  2  0
 10 15  1  0
 15 16  1  0
 16 17  1  0
 17 18  2  0
 17 19  1  0
 19 20  1  0
 20 21  1  0
  9 11  1  0
 11 12  2  0
 12 13  1  0
 12 14  1  0
 14  1  1  0
  1  2  2  0
  2  3  1  0
  3  4  2  0
  4  5  1  0
  5 22  1  0
 22 23  2  0
 22 24  1  0
 24 25  1  0
 25 26  2  0
 26 27  1  0
 27 28  2  0
 28 29  1  0
 29 30  2  0
 30 31  1  0
 31 32  1  0
 32 33  2  0
 32 34  2  0
 32 35  1  0
  5  6  2  0
 14  8  1  0
  6  1  1  0
 20 15  2  0
 30 25  1  0
M  CHG 1  16  -1
M  CHG 1  19  -1
M  CHG 1  21  -1
M  CHG 1  24  -1
M  END
> <UniqueID>
77

> <SMILES>
C=c1/c(=C/c2[n-]c(=O)[n-]c2[O-])cc(C)n1-c1cccc(C(=O)[N-]c2ccccc2OS(C)(=O)=O)c1

> <Energy>
130.90585295236414

> <Genealogy>
C=c1c(=Cc2[n-]c(=O)[n-]c2[O-])cc(C)n1-c1cccc(C(=O)[N-]c2ccccc2OS(C)(=O)=O)c1 (protonated)
C=c1/c(=C/c2[n-]c(=O)[n-]c2[O-])cc(C)n1-c1cccc(C(=O)[N-]c2ccccc2OS(C)(=O)=O)c1 (cis-trans isomerization)
C=c1/c(=C/c2[n-]c(=O)[n-]c2[O-])cc(C)n1-c1cccc(C(=O)[N-]c2ccccc2OS(C)(=O)=O)c1 (3D coordinates assigned)
C=c1/c(=C/c2[n-]c(=O)[n-]c2[O-])cc(C)n1-c1cccc(C(=O)[N-]c2ccccc2OS(C)(=O)=O)c1 (optimized conformer: 130.90585295236414 kcal/mol)

> <smiles>
C=c1c(=Cc2[nH]c(=O)[nH]c2O)cc(C)n1-c1cccc(C(=O)Nc2ccccc2OS(C)(=O)=O)c1

> <score_type>
oracle

> <origin>
adg

> <m_score__min__energy>
-18.140000000000001

> <m_primary>
energy

> <minimizedAffinity>
-9.75295

> <minimizedRMSD>
1.08558

> <CNNscore>
0.5602149367

> <CNNaffinity>
7.3113555908

> <CNN_VS>
4.0959305763

> <CNNaffinity_variance>
0.1122896746

$$$$
88:0


 30 33  0  0  0  0  0  0  0  0999 V2000
   60.0832   27.2156   47.2011 C   0  0  0  0  0  0  0  0  0  0  0  0
   59.1938   28.0591   46.6540 C   0  0  0  0  0  0  0  0  0  0  0  0
   58.1620   27.7464   45.7540 C   0  0  0  0  0  0  0  0  0  0  0  0
   57.6665   26.5583   45.3539 C   0  0  0  0  0  0  0  0  0  0  0  0
   57.6580   28.9570   45.3052 C   0  0  0  0  0  0  0  0  0  0  0  0
   58.3365   29.9492   45.9839 C   0  0  0  0  0  0  0  0  0  0  0  0
   58.1058   31.4193   45.8170 C   0  0  0  0  0  0  0  0  0  0  0  0
   59.2595   29.4056   46.8047 N   0  0  0  0  0  0  0  0  0  0  0  0
   57.1829   25.4891   46.2412 C   0  0  0  0  0  0  0  0  0  0  0  0
   57.9594   24.7729   47.0751 N   0  0  0  0  0  0  0  0  0  0  0  0
   57.0711   24.0349   47.7732 C   0  0  0  0  0  0  0  0  0  0  0  0
   57.4204   23.2103   48.6568 O   0  0  0  0  0  0  0  0  0  0  0  0
   55.7776   24.2574   47.4580 N   0  0  0  0  0  0  0  0  0  0  0  0
   55.8655   25.1924   46.4975 C   0  0  0  0  0  0  0  0  0  0  0  0
   54.7664   25.7664   45.8730 O   0  0  0  0  0  0  0  0  0  0  0  0
   60.1857   30.1459   47.6150 C   0  0  0  0  0  0  0  0  0  0  0  0
   61.3252   30.7100   47.0298 C   0  0  0  0  0  0  0  0  0  0  0  0
   62.2308   31.4341   47.8041 C   0  0  0  0  0  0  0  0  0  0  0  0
   62.0069   31.6100   49.1784 C   0  0  0  0  0  0  0  0  0  0  0  0
   60.8648   31.0388   49.7658 C   0  0  0  0  0  0  0  0  0  0  0  0
   59.9501   30.2996   48.9911 C   0  0  0  0  0  0  0  0  0  0  0  0
   62.9495   32.3550   49.9736 N   0  0  0  0  0  0  0  0  0  0  0  0
   62.5425   32.9288   51.2594 C   0  0  0  0  0  0  0  0  0  0  0  0
   63.7602   33.0392   52.1808 C   0  0  0  0  0  0  0  0  0  0  0  0
   64.8156   33.7303   51.5389 O   0  0  0  0  0  0  0  0  0  0  0  0
   65.2739   32.9805   50.4289 C   0  0  0  0  0  0  0  0  0  0  0  0
   64.1806   32.8636   49.3614 C   0  0  0  0  0  0  0  0  0  0  0  0
   58.7991   29.7087   49.5398 O   0  0  0  0  0  0  0  0  0  0  0  0
   58.1725   30.0834   50.7657 C   0  0  0  0  0  0  0  0  0  0  0  0
   58.8960   29.4631   51.9548 C   0  0  0  0  0  0  0  0  0  0  0  0
  1  2  2  0
  2  3  1  0
  3  4  2  0
  4  9  1  0
  9 10  1  0
 10 11  1  0
 11 12  2  0
 11 13  1  0
 13 14  1  0
 14 15  1  0
  3  5  1  0
  5  6  2  0
  6  7  1  0
  6  8  1  0
  8 16  1  0
 16 17  2  0
 17 18  1  0
 18 19  2  0
 19 22  1  0
 22 23  1  0
 23 24  1  0
 24 25  1  0
 25 26  1  0
 26 27  1  0
 19 20  1  0
 20 21  2  0
 21 28  1  0
 28 29  1  0
 29 30  1  0
  8  2  1  0
 21 16  1  0
 14  9  2  0
 27 22  1  0
M  CHG 1  10  -1
M  CHG 1  13  -1
M  CHG 1  15  -1
M  END
> <UniqueID>
84

> <SMILES>
C=c1c(=Cc2[n-]c(=O)[n-]c2[O-])cc(C)n1-c1ccc(N2CCOCC2)cc1OCC

> <Energy>
133.66923101871444

> <Genealogy>
C=c1c(=Cc2[n-]c(=O)[n-]c2[O-])cc(C)n1-c1ccc(N2CCOCC2)cc1OCC (protonated)
C=c1c(=Cc2[n-]c(=O)[n-]c2[O-])cc(C)n1-c1ccc(N2CCOCC2)cc1OCC (3D coordinates assigned)
C=c1c(=Cc2[n-]c(=O)[n-]c2[O-])cc(C)n1-c1ccc(N2CCOCC2)cc1OCC (nonaromatic ring conformer: 133.66923101871444 kcal/mol)

> <smiles>
C=c1c(=Cc2[nH]c(=O)[nH]c2O)cc(C)n1-c1ccc(N2CCOCC2)cc1OCC

> <score_type>
oracle

> <origin>
adg

> <m_score__min__energy>
-15.140000000000001

> <m_primary>
energy

> <minimizedAffinity>
-6.92862

> <minimizedRMSD>
0.88273

> <CNNscore>
0.1073389724

> <CNNaffinity>
5.9722046852

> <CNN_VS>
0.6410503387

> <CNNaffinity_variance>
0.2242060453

$$$$
22:0


 23 25  0  0  0  0  0  0  0  0999 V2000
   59.0185   29.3915   44.7498 C   0  0  0  0  0  0  0  0  0  0  0  0
   58.8272   28.2652   45.4737 C   0  0  0  0  0  0  0  0  0  0  0  0
   59.1623   28.2594   46.9171 C   0  0  0  0  0  0  0  0  0  0  0  0
   59.7414   29.2420   47.4549 O   0  0  0  0  0  0  0  0  0  0  0  0
   58.8083   27.1412   47.7269 N   0  0  0  0  0  0  0  0  0  0  0  0
   58.1598   25.9952   47.1788 C   0  0  0  0  0  0  0  0  0  0  0  0
   57.8351   25.0481   47.9442 O   0  0  0  0  0  0  0  0  0  0  0  0
   57.9088   25.9127   45.7633 N   0  0  0  0  0  0  0  0  0  0  0  0
   58.3238   26.9876   44.8964 C   0  0  0  0  0  0  0  0  0  0  0  0
   58.3008   26.8181   43.6464 O   0  0  0  0  0  0  0  0  0  0  0  0
   57.2655   24.7467   45.2170 C   0  0  0  0  0  0  0  0  0  0  0  0
   58.0300   23.6552   44.7754 C   0  0  0  0  0  0  0  0  0  0  0  0
   57.4009   22.5221   44.2478 C   0  0  0  0  0  0  0  0  0  0  0  0
   56.0067   22.4732   44.1608 C   0  0  0  0  0  0  0  0  0  0  0  0
   55.2391   23.5554   44.6033 C   0  0  0  0  0  0  0  0  0  0  0  0
   53.8531   23.5041   44.5152 O   0  0  0  0  0  0  0  0  0  0  0  0
   55.8661   24.6897   45.1306 C   0  0  0  0  0  0  0  0  0  0  0  0
   58.5384   30.7360   45.1142 C   0  0  0  0  0  0  0  0  0  0  0  0
   59.2864   31.6401   45.7038 O   0  0  0  0  0  0  0  0  0  0  0  0
   58.5558   32.7106   45.9388 C   0  0  0  0  0  0  0  0  0  0  0  0
   57.2609   32.5064   45.4988 C   0  0  0  0  0  0  0  0  0  0  0  0
   57.2576   31.2333   44.9821 C   0  0  0  0  0  0  0  0  0  0  0  0
   56.1567   30.5661   44.4583 O   0  0  0  0  0  0  0  0  0  0  0  0
  1  2  2  0
  2  3  1  0
  3  4  2  0
  3  5  1  0
  5  6  1  0
  6  7  2  0
  6  8  1  0
  8 11  1  0
 11 12  2  0
 12 13  1  0
 13 14  2  0
 14 15  1  0
 15 16  1  0
 15 17  2  0
  8  9  1  0
  9 10  2  0
  1 18  1  0
 18 19  1  0
 19 20  1  0
 20 21  2  0
 21 22  1  0
 22 23  1  0
  9  2  1  0
 22 18  2  0
 17 11  1  0
M  CHG 1   5  -1
M  CHG 1  16  -1
M  CHG 1  23  -1
M  END
> <UniqueID>
21

> <SMILES>
O=C1[N-]C(=O)N(c2cccc([O-])c2)C(=O)/C1=C\c1occc1[O-]

> <Energy>
76.92683453846598

> <Genealogy>
O=C1[N-]C(=O)N(c2cccc([O-])c2)C(=O)C1=Cc1occc1[O-] (protonated)
O=C1[N-]C(=O)N(c2cccc([O-])c2)C(=O)/C1=C\c1occc1[O-] (cis-trans isomerization)
O=C1[N-]C(=O)N(c2cccc([O-])c2)C(=O)/C1=C\c1occc1[O-] (3D coordinates assigned)
O=C1[N-]C(=O)N(c2cccc([O-])c2)C(=O)/C1=C\c1occc1[O-] (nonaromatic ring conformer: 76.92683453846598 kcal/mol)

> <smiles>
O=C1NC(=O)N(c2cccc(O)c2)C(=O)C1=Cc1occc1O

> <score_type>
oracle

> <origin>
adg

> <m_score__min__energy>
-14.109999999999999

> <m_primary>
energy

> <minimizedAffinity>
-6.47149

> <minimizedRMSD>
1.81815

> <CNNscore>
0.1651170999

> <CNNaffinity>
5.5013804436

> <CNN_VS>
0.9083719850

> <CNNaffinity_variance>
0.0702890083

$$$$
26:0


 34 38  0  0  0  0  0  0  0  0999 V2000
   58.1025   26.2233   46.5169 N   0  0  0  0  0  0  0  0  0  0  0  0
   56.9425   25.7915   46.0003 C   0  0  0  0  0  0  0  0  0  0  0  0
   55.7140   26.4170   46.1839 O   0  0  0  0  0  0  0  0  0  0  0  0
   57.1783   24.6568   45.2560 C   0  0  0  0  0  0  0  0  0  0  0  0
   58.4990   24.3772   45.2705 N   0  0  0  0  0  0  0  0  0  0  0  0
   59.0221   25.3509   46.0486 C   0  0  0  0  0  0  0  0  0  0  0  0
   60.2543   25.4387   46.2979 O   0  0  0  0  0  0  0  0  0  0  0  0
   58.3262   27.4254   47.3190 C   0  0  0  0  0  0  0  0  0  0  0  0
   59.8772   28.4939   45.8538 O   0  0  0  0  0  0  0  0  0  0  0  0
   58.7663   28.5589   46.4470 C   0  0  0  0  0  0  0  0  0  0  0  0
   57.9317   29.7171   46.3174 N   0  0  0  0  0  0  0  0  0  0  0  0
   57.8649   30.5982   45.1862 C   0  0  0  0  0  0  0  0  0  0  0  0
   57.2422   30.1990   43.9890 C   0  0  0  0  0  0  0  0  0  0  0  0
   57.1808   31.0695   42.8995 C   0  0  0  0  0  0  0  0  0  0  0  0
   57.7295   32.3493   42.9941 C   0  0  0  0  0  0  0  0  0  0  0  0
   58.3310   32.7655   44.1817 C   0  0  0  0  0  0  0  0  0  0  0  0
   58.3985   31.9009   45.2867 C   0  0  0  0  0  0  0  0  0  0  0  0
   59.0227   32.3563   46.5012 N   0  0  0  0  0  0  0  0  0  0  0  0
   58.4283   33.4522   47.2751 C   0  0  0  0  0  0  0  0  0  0  0  0
   59.5055   34.1307   48.1252 C   0  0  0  0  0  0  0  0  0  0  0  0
   60.6950   34.2408   47.3738 O   0  0  0  0  0  0  0  0  0  0  0  0
   61.3100   32.9703   47.2108 C   0  0  0  0  0  0  0  0  0  0  0  0
   60.3194   31.8197   46.9173 C   0  0  0  0  0  0  0  0  0  0  0  0
   56.1708   23.8992   44.4509 C   0  0  0  0  0  0  0  0  0  0  0  0
   56.2012   22.4514   44.8271 C   0  0  0  0  0  0  0  0  0  0  0  0
   56.8714   21.4335   44.1556 C   0  0  0  0  0  0  0  0  0  0  0  0
   56.7134   20.2567   44.8040 N   0  0  0  0  0  0  0  0  0  0  0  0
   55.9614   20.5265   45.8856 C   0  0  0  0  0  0  0  0  0  0  0  0
   55.5348   19.6298   46.8632 C   0  0  0  0  0  0  0  0  0  0  0  0
   54.7673   20.1343   47.9303 C   0  0  0  0  0  0  0  0  0  0  0  0
   54.4348   21.5069   47.9850 C   0  0  0  0  0  0  0  0  0  0  0  0
   54.8740   22.3875   46.9791 C   0  0  0  0  0  0  0  0  0  0  0  0
   55.6389   21.8579   45.9396 C   0  0  0  0  0  0  0  0  0  0  0  0
   57.0755   19.3807   44.5379 H   0  0  0  0  0  0  0  0  0  0  0  0
  9 10  2  0
 10  8  1  0
  8  1  1  0
  1  2  1  0
  2  3  1  0
  2  4  2  0
  4 24  1  0
 24 25  1  0
 25 26  2  0
 26 27  1  0
 27 28  1  0
 28 29  2  0
 29 30  1  0
 30 31  2  0
 31 32  1  0
 32 33  2  0
  4  5  1  0
  5  6  1  0
  6  7  2  0
 10 11  1  0
 11 12  1  0
 12 13  2  0
 13 14  1  0
 14 15  2  0
 15 16  1  0
 16 17  2  0
 17 18  1  0
 18 19  1  0
 19 20  1  0
 20 21  1  0
 21 22  1  0
 22 23  1  0
  6  1  1  0
 17 12  1  0
 23 18  1  0
 33 25  1  0
 33 28  1  0
 27 34  1  0
M  CHG 1   3  -1
M  CHG 1   5  -1
M  CHG 1  11  -1
M  END
> <UniqueID>
24

> <SMILES>
O=C(Cn1c([O-])c(Cc2c[nH]c3ccccc23)[n-]c1=O)[N-]c1ccccc1N1CCOCC1

> <Energy>
131.67893179208357

> <Genealogy>
O=C(Cn1c([O-])c(Cc2c[nH]c3ccccc23)[n-]c1=O)[N-]c1ccccc1N1CCOCC1 (protonated)
O=C(Cn1c([O-])c(Cc2c[nH]c3ccccc23)[n-]c1=O)[N-]c1ccccc1N1CCOCC1 (3D coordinates assigned)
O=C(Cn1c([O-])c(Cc2c[nH]c3ccccc23)[n-]c1=O)[N-]c1ccccc1N1CCOCC1 (nonaromatic ring conformer: 131.67893179208357 kcal/mol)

> <smiles>
O=C(Cn1c(O)c(Cc2c[nH]c3ccccc23)[nH]c1=O)Nc1ccccc1N1CCOCC1

> <score_type>
oracle

> <origin>
adg

> <m_score__min__energy>
-15.140000000000001

> <m_primary>
energy

> <minimizedAffinity>
-7.33990

> <minimizedRMSD>
0.95639

> <CNNscore>
0.0502142683

> <CNNaffinity>
5.5090098381

> <CNN_VS>
0.2766309083

> <CNNaffinity_variance>
0.5157048106

$$$$
46:0


 24 26  0  0  0  0  0  0  0  0999 V2000
   56.9046   29.6408   52.8944 C   0  0  0  0  0  0  0  0  0  0  0  0
   56.3964   28.6766   53.7536 C   0  0  0  0  0  0  0  0  0  0  0  0
   55.0247   28.8195   53.9869 C   0  0  0  0  0  0  0  0  0  0  0  0
   54.4593   29.8927   53.3069 C   0  0  0  0  0  0  0  0  0  0  0  0
   55.6625   30.6874   52.4379 S   0  0  0  0  0  0  0  0  0  0  0  0
   58.2553   29.7400   52.5430 O   0  0  0  0  0  0  0  0  0  0  0  0
   59.7620   32.2689   49.5153 C   0  0  0  0  0  0  0  0  0  0  0  0
   59.5955   32.7612   50.8215 C   0  0  0  0  0  0  0  0  0  0  0  0
   59.0974   31.9338   51.8324 C   0  0  0  0  0  0  0  0  0  0  0  0
   58.7692   30.5964   51.5583 C   0  0  0  0  0  0  0  0  0  0  0  0
   58.9112   30.1098   50.2552 C   0  0  0  0  0  0  0  0  0  0  0  0
   59.4104   30.9340   49.2418 C   0  0  0  0  0  0  0  0  0  0  0  0
   60.1530   34.5585   48.5239 N   0  0  0  0  0  0  0  0  0  0  0  0
   60.2906   33.1412   48.4403 C   0  0  0  0  0  0  0  0  0  0  0  0
   60.8691   32.6396   47.4385 O   0  0  0  0  0  0  0  0  0  0  0  0
   60.5071   35.1307   47.8052 H   0  0  0  0  0  0  0  0  0  0  0  0
   53.0381   30.3435   53.4177 C   0  0  0  0  0  0  0  0  0  0  0  0
   52.4514   30.5272   52.0528 C   0  0  0  0  0  0  0  0  0  0  0  0
   52.6008   29.6514   51.0440 N   0  0  0  0  0  0  0  0  0  0  0  0
   51.8544   30.1901   50.0545 C   0  0  0  0  0  0  0  0  0  0  0  0
   51.7447   29.6538   48.9207 O   0  0  0  0  0  0  0  0  0  0  0  0
   51.2326   31.3438   50.3760 N   0  0  0  0  0  0  0  0  0  0  0  0
   51.6163   31.5394   51.6470 C   0  0  0  0  0  0  0  0  0  0  0  0
   51.2072   32.6179   52.4233 O   0  0  0  0  0  0  0  0  0  0  0  0
 13 14  1  0
 14 15  2  0
 14  7  1  0
  7  8  2  0
  8  9  1  0
  9 10  2  0
 10  6  1  0
  6  1  1  0
  1  2  2  0
  2  3  1  0
  3  4  2  0
  4 17  1  0
 17 18  1  0
 18 19  1  0
 19 20  1  0
 20 21  2  0
 20 22  1  0
 22 23  1  0
 23 24  1  0
  4  5  1  0
 10 11  1  0
 11 12  2  0
 12  7  1  0
  5  1  1  0
 23 18  2  0
 13 16  1  0
M  CHG 1  13  -1
M  CHG 1  19  -1
M  CHG 1  22  -1
M  CHG 1  24  -1
M  END
> <UniqueID>
42

> <SMILES>
[NH-]C(=O)c1ccc(Oc2ccc(Cc3[n-]c(=O)[n-]c3[O-])s2)cc1

> <Energy>
93.81226682870992

> <Genealogy>
[NH-]C(=O)c1ccc(Oc2ccc(Cc3[n-]c(=O)[n-]c3[O-])s2)cc1 (protonated)
[NH-]C(=O)c1ccc(Oc2ccc(Cc3[n-]c(=O)[n-]c3[O-])s2)cc1 (3D coordinates assigned)
[NH-]C(=O)c1ccc(Oc2ccc(Cc3[n-]c(=O)[n-]c3[O-])s2)cc1 (optimized conformer: 93.81226682870992 kcal/mol)

> <smiles>
NC(=O)c1ccc(Oc2ccc(Cc3[nH]c(=O)[nH]c3O)s2)cc1

> <score_type>
oracle

> <origin>
adg

> <m_score__min__energy>
-16.52

> <m_primary>
energy

> <minimizedAffinity>
-5.14200

> <minimizedRMSD>
0.88560

> <CNNscore>
0.1380976140

> <CNNaffinity>
4.9356517792

> <CNN_VS>
0.6816017628

> <CNNaffinity_variance>
0.3444638252

$$$$
50:0


 27 30  0  0  0  0  0  0  0  0999 V2000
   56.3518   28.5092   53.3630 C   0  0  0  0  0  0  0  0  0  0  0  0
   56.5718   29.7671   52.9505 C   0  0  0  0  0  0  0  0  0  0  0  0
   55.6152   30.7829   52.8417 C   0  0  0  0  0  0  0  0  0  0  0  0
   54.2884   30.6809   53.0525 C   0  0  0  0  0  0  0  0  0  0  0  0
   56.2972   31.9164   52.4188 C   0  0  0  0  0  0  0  0  0  0  0  0
   57.6237   31.5547   52.2887 C   0  0  0  0  0  0  0  0  0  0  0  0
   58.7180   32.4771   51.8448 C   0  0  0  0  0  0  0  0  0  0  0  0
   57.7934   30.2540   52.6161 N   0  0  0  0  0  0  0  0  0  0  0  0
   53.2838   30.6318   51.9749 C   0  0  0  0  0  0  0  0  0  0  0  0
   53.3866   29.8194   50.9084 N   0  0  0  0  0  0  0  0  0  0  0  0
   52.2326   30.0338   50.2382 C   0  0  0  0  0  0  0  0  0  0  0  0
   51.9596   29.4525   49.1563 O   0  0  0  0  0  0  0  0  0  0  0  0
   51.3931   30.9136   50.8234 N   0  0  0  0  0  0  0  0  0  0  0  0
   52.0664   31.2744   51.9285 C   0  0  0  0  0  0  0  0  0  0  0  0
   51.5540   32.1328   52.8928 O   0  0  0  0  0  0  0  0  0  0  0  0
   59.0387   29.5355   52.5826 C   0  0  0  0  0  0  0  0  0  0  0  0
   59.6840   29.1815   53.7754 C   0  0  0  0  0  0  0  0  0  0  0  0
   60.8879   28.4733   53.7440 C   0  0  0  0  0  0  0  0  0  0  0  0
   61.4659   28.1002   52.5181 C   0  0  0  0  0  0  0  0  0  0  0  0
   60.8099   28.4534   51.3233 C   0  0  0  0  0  0  0  0  0  0  0  0
   59.6077   29.1649   51.3582 C   0  0  0  0  0  0  0  0  0  0  0  0
   62.7448   27.3456   52.4837 C   0  0  0  0  0  0  0  0  0  0  0  0
   64.0141   27.8902   52.6039 C   0  0  0  0  0  0  0  0  0  0  0  0
   64.9020   26.8382   52.5173 C   0  0  0  0  0  0  0  0  0  0  0  0
   64.1456   25.6968   52.3512 C   0  0  0  0  0  0  0  0  0  0  0  0
   62.8380   26.0084   52.3298 N   0  0  0  0  0  0  0  0  0  0  0  0
   62.0888   25.3788   52.2220 H   0  0  0  0  0  0  0  0  0  0  0  0
  1  2  2  0
  2  3  1  0
  3  4  2  0
  4  9  1  0
  9 10  1  0
 10 11  1  0
 11 12  2  0
 11 13  1  0
 13 14  1  0
 14 15  1  0
  3  5  1  0
  5  6  2  0
  6  7  1  0
  6  8  1  0
  8 16  1  0
 16 17  2  0
 17 18  1  0
 18 19  2  0
 19 22  1  0
 22 23  2  0
 23 24  1  0
 24 25  2  0
 25 26  1  0
 19 20  1  0
 20 21  2  0
  8  2  1  0
 21 16  1  0
 14  9  2  0
 26 22  1  0
 26 27  1  0
M  CHG 1  10  -1
M  CHG 1  13  -1
M  CHG 1  15  -1
M  END
> <UniqueID>
46

> <SMILES>
C=c1/c(=C/c2[n-]c(=O)[n-]c2[O-])cc(C)n1-c1ccc(-c2ccc[nH]2)cc1

> <Energy>
143.96949227412847

> <Genealogy>
C=c1c(=Cc2[n-]c(=O)[n-]c2[O-])cc(C)n1-c1ccc(-c2ccc[nH]2)cc1 (protonated)
C=c1/c(=C/c2[n-]c(=O)[n-]c2[O-])cc(C)n1-c1ccc(-c2ccc[nH]2)cc1 (cis-trans isomerization)
C=c1/c(=C/c2[n-]c(=O)[n-]c2[O-])cc(C)n1-c1ccc(-c2ccc[nH]2)cc1 (3D coordinates assigned)
C=c1/c(=C/c2[n-]c(=O)[n-]c2[O-])cc(C)n1-c1ccc(-c2ccc[nH]2)cc1 (optimized conformer: 143.96949227412847 kcal/mol)

> <smiles>
C=c1c(=Cc2[nH]c(=O)[nH]c2O)cc(C)n1-c1ccc(-c2ccc[nH]2)cc1

> <score_type>
oracle

> <origin>
adg

> <m_score__min__energy>
-15.210000000000001

> <m_primary>
energy

> <minimizedAffinity>
-3.89713

> <minimizedRMSD>
1.58996

> <CNNscore>
0.1478511244

> <CNNaffinity>
4.4283671379

> <CNN_VS>
0.6547390819

> <CNNaffinity_variance>
1.2814011574

$$$$
51:0


 30 32  0  0  0  0  0  0  0  0999 V2000
   59.7722   32.1603   46.9239 N   0  0  0  0  0  0  0  0  0  0  0  0
   58.7809   32.9982   46.4800 C   0  0  0  0  0  0  0  0  0  0  0  0
   58.7952   34.2256   46.7736 O   0  0  0  0  0  0  0  0  0  0  0  0
   57.7630   32.5148   45.7248 N   0  0  0  0  0  0  0  0  0  0  0  0
   57.6873   31.2034   45.3941 C   0  0  0  0  0  0  0  0  0  0  0  0
   56.6389   30.7611   44.5937 O   0  0  0  0  0  0  0  0  0  0  0  0
   58.6674   30.3143   45.8438 C   0  0  0  0  0  0  0  0  0  0  0  0
   59.7281   30.8256   46.6089 C   0  0  0  0  0  0  0  0  0  0  0  0
   60.6429   30.0489   47.0029 O   0  0  0  0  0  0  0  0  0  0  0  0
   61.7870   33.2550   49.9060 C   0  0  0  0  0  0  0  0  0  0  0  0
   62.9617   33.6961   49.2697 C   0  0  0  0  0  0  0  0  0  0  0  0
   63.0813   33.6316   47.8787 C   0  0  0  0  0  0  0  0  0  0  0  0
   62.0337   33.1272   47.1067 C   0  0  0  0  0  0  0  0  0  0  0  0
   60.8535   32.6818   47.7216 C   0  0  0  0  0  0  0  0  0  0  0  0
   60.7361   32.7485   49.1199 C   0  0  0  0  0  0  0  0  0  0  0  0
   62.8153   33.3758   52.2110 N   0  0  0  0  0  0  0  0  0  0  0  0
   61.6558   33.3237   51.3802 C   0  0  0  0  0  0  0  0  0  0  0  0
   60.5157   33.3359   51.9196 O   0  0  0  0  0  0  0  0  0  0  0  0
   62.7180   33.4213   53.1897 H   0  0  0  0  0  0  0  0  0  0  0  0
   58.6055   28.8810   45.4954 C   0  0  0  0  0  0  0  0  0  0  0  0
   59.2810   28.4546   44.5213 O   0  0  0  0  0  0  0  0  0  0  0  0
   57.8163   27.9564   46.2523 N   0  0  0  0  0  0  0  0  0  0  0  0
   58.3581   26.7783   46.9190 C   0  0  0  0  0  0  0  0  0  0  0  0
   57.6993   25.5480   46.3656 C   0  0  0  0  0  0  0  0  0  0  0  0
   57.7004   25.3060   44.9824 C   0  0  0  0  0  0  0  0  0  0  0  0
   57.1159   24.1437   44.4709 C   0  0  0  0  0  0  0  0  0  0  0  0
   56.5371   23.2101   45.3362 C   0  0  0  0  0  0  0  0  0  0  0  0
   55.9737   22.0827   44.8384 F   0  0  0  0  0  0  0  0  0  0  0  0
   56.5472   23.4370   46.7154 C   0  0  0  0  0  0  0  0  0  0  0  0
   57.1310   24.5987   47.2315 C   0  0  0  0  0  0  0  0  0  0  0  0
 16 17  1  0
 17 18  2  0
 17 10  1  0
 10 11  2  0
 11 12  1  0
 12 13  2  0
 13 14  1  0
 14  1  1  0
  1  2  1  0
  2  3  2  0
  2  4  1  0
  4  5  1  0
  5  6  1  0
  5  7  2  0
  7 20  1  0
 20 21  2  0
 20 22  1  0
 22 23  1  0
 23 24  1  0
 24 25  2  0
 25 26  1  0
 26 27  2  0
 27 28  1  0
 27 29  1  0
 29 30  2  0
  7  8  1  0
  8  9  2  0
 14 15  2  0
 15 10  1  0
  8  1  1  0
 30 24  1  0
 16 19  1  0
M  CHG 1   4  -1
M  CHG 1   6  -1
M  CHG 1  16  -1
M  CHG 1  22  -1
M  END
> <UniqueID>
47

> <SMILES>
[NH-]C(=O)c1cccc(-n2c(=O)[n-]c([O-])c(C(=O)[N-]Cc3ccc(F)cc3)c2=O)c1

> <Energy>
59.65845550784994

> <Genealogy>
[NH-]C(=O)c1cccc(-n2c(=O)[n-]c([O-])c(C(=O)[N-]Cc3ccc(F)cc3)c2=O)c1 (protonated)
[NH-]C(=O)c1cccc(-n2c(=O)[n-]c([O-])c(C(=O)[N-]Cc3ccc(F)cc3)c2=O)c1 (3D coordinates assigned)
[NH-]C(=O)c1cccc(-n2c(=O)[n-]c([O-])c(C(=O)[N-]Cc3ccc(F)cc3)c2=O)c1 (optimized conformer: 59.65845550784994 kcal/mol)

> <smiles>
NC(=O)c1cccc(-n2c(=O)[nH]c(O)c(C(=O)NCc3ccc(F)cc3)c2=O)c1

> <score_type>
oracle

> <origin>
adg

> <m_score__min__energy>
-14.15

> <m_primary>
energy

> <minimizedAffinity>
-8.51060

> <minimizedRMSD>
2.45780

> <CNNscore>
0.3521477580

> <CNNaffinity>
6.4701275826

> <CNN_VS>
2.2784409523

> <CNNaffinity_variance>
0.1056525484

$$$$
82:0


 27 29  0  0  0  0  0  0  0  0999 V2000
   57.3101   27.7983   45.3420 C   0  0  0  0  0  0  0  0  0  0  0  0
   58.5986   27.2693   45.4759 C   0  0  0  0  0  0  0  0  0  0  0  0
   59.7161   28.1016   45.4149 C   0  0  0  0  0  0  0  0  0  0  0  0
   59.5578   29.4720   45.2080 C   0  0  0  0  0  0  0  0  0  0  0  0
   58.2779   30.0230   45.0469 C   0  0  0  0  0  0  0  0  0  0  0  0
   57.1503   29.1770   45.0877 C   0  0  0  0  0  0  0  0  0  0  0  0
   55.8821   29.6976   44.8437 O   0  0  0  0  0  0  0  0  0  0  0  0
   58.1169   31.7706   44.8015 S   0  0  0  0  0  0  0  0  0  0  0  0
   56.7873   32.2418   45.3176 O   0  0  0  0  0  0  0  0  0  0  0  0
   58.1663   32.0656   43.3285 O   0  0  0  0  0  0  0  0  0  0  0  0
   59.3969   32.6501   45.6063 N   0  0  0  0  0  0  0  0  0  0  0  0
   59.0838   34.0955   45.6499 C   0  0  0  0  0  0  0  0  0  0  0  0
   59.9625   34.8258   46.6690 C   0  0  0  0  0  0  0  0  0  0  0  0
   59.7266   34.2917   48.0931 C   0  0  0  0  0  0  0  0  0  0  0  0
   59.1856   32.8521   48.1067 C   0  0  0  0  0  0  0  0  0  0  0  0
   59.7345   32.0477   46.9208 C   0  0  0  0  0  0  0  0  0  0  0  0
   56.1959   26.8993   45.4008 N   0  0  0  0  0  0  0  0  0  0  0  0
   56.5962   25.5970   47.3048 O   0  0  0  0  0  0  0  0  0  0  0  0
   56.1556   25.6641   46.1256 C   0  0  0  0  0  0  0  0  0  0  0  0
   55.6678   24.4261   45.4471 C   0  0  0  0  0  0  0  0  0  0  0  0
   56.8209   23.5339   45.1140 C   0  0  0  0  0  0  0  0  0  0  0  0
   58.3349   23.5926   45.8518 S   0  0  0  0  0  0  0  0  0  0  0  0
   58.9549   22.3862   44.8579 C   0  0  0  0  0  0  0  0  0  0  0  0
   60.1317   21.9472   44.9289 O   0  0  0  0  0  0  0  0  0  0  0  0
   58.0535   21.9351   43.9618 N   0  0  0  0  0  0  0  0  0  0  0  0
   56.8639   22.5797   44.1006 C   0  0  0  0  0  0  0  0  0  0  0  0
   55.7814   22.2974   43.2773 O   0  0  0  0  0  0  0  0  0  0  0  0
 18 19  2  0
 19 20  1  0
 20 21  1  0
 21 22  1  0
 22 23  1  0
 23 24  2  0
 23 25  1  0
 25 26  1  0
 26 27  1  0
 19 17  1  0
 17  1  1  0
  1  2  2  0
  2  3  1  0
  3  4  2  0
  4  5  1  0
  5  8  1  0
  8  9  2  0
  8 10  2  0
  8 11  1  0
 11 12  1  0
 12 13  1  0
 13 14  1  0
 14 15  1  0
 15 16  1  0
  5  6  2  0
  6  7  1  0
 26 21  2  0
  6  1  1  0
 16 11  1  0
M  CHG 1   7  -1
M  CHG 1  17  -1
M  CHG 1  25  -1
M  CHG 1  27  -1
M  END
> <UniqueID>
77

> <SMILES>
O=C(Cc1sc(=O)[n-]c1[O-])[N-]c1cccc(S(=O)(=O)N2CCCCC2)c1[O-]

> <Energy>
82.98271690288753

> <Genealogy>
O=C(Cc1sc(=O)[n-]c1[O-])[N-]c1cccc(S(=O)(=O)N2CCCCC2)c1[O-] (protonated)
O=C(Cc1sc(=O)[n-]c1[O-])[N-]c1cccc(S(=O)(=O)N2CCCCC2)c1[O-] (3D coordinates assigned)
O=C(Cc1sc(=O)[n-]c1[O-])[N-]c1cccc(S(=O)(=O)N2CCCCC2)c1[O-] (nonaromatic ring conformer: 82.98271690288753 kcal/mol)

> <smiles>
O=C(Cc1sc(=O)[nH]c1O)Nc1cccc(S(=O)(=O)N2CCCCC2)c1O

> <score_type>
oracle

> <origin>
adg

> <m_score__min__energy>
-18.670000000000002

> <m_primary>
energy

> <minimizedAffinity>
-6.85131

> <minimizedRMSD>
1.01644

> <CNNscore>
0.5986906886

> <CNNaffinity>
6.6920037270

> <CNN_VS>
4.0064401627

> <CNNaffinity_variance>
0.1411213279

$$$$
8:0


 23 25  0  0  0  0  0  0  0  0999 V2000
   58.3208   28.7214   44.9365 C   0  0  0  0  0  0  0  0  0  0  0  0
   58.1740   29.9130   45.5743 N   0  0  0  0  0  0  0  0  0  0  0  0
   57.2985   30.7188   44.9375 C   0  0  0  0  0  0  0  0  0  0  0  0
   57.0373   31.9402   45.2973 N   0  0  0  0  0  0  0  0  0  0  0  0
   56.6660   29.9920   43.5645 S   0  0  0  0  0  0  0  0  0  0  0  0
   57.5411   28.5691   43.7906 C   0  0  0  0  0  0  0  0  0  0  0  0
   57.9989   32.9024   45.7645 C   0  0  0  0  0  0  0  0  0  0  0  0
   58.5931   33.7659   44.8366 C   0  0  0  0  0  0  0  0  0  0  0  0
   59.5289   34.7194   45.2555 C   0  0  0  0  0  0  0  0  0  0  0  0
   59.8573   34.8303   46.6097 C   0  0  0  0  0  0  0  0  0  0  0  0
   59.2462   33.9936   47.5458 C   0  0  0  0  0  0  0  0  0  0  0  0
   58.3158   33.0358   47.1312 C   0  0  0  0  0  0  0  0  0  0  0  0
   59.2320   27.6524   45.4628 C   0  0  0  0  0  0  0  0  0  0  0  0
   58.4278   26.5245   46.0335 C   0  0  0  0  0  0  0  0  0  0  0  0
   58.0902   26.5429   47.2481 O   0  0  0  0  0  0  0  0  0  0  0  0
   56.8693   22.0921   45.4545 C   0  0  0  0  0  0  0  0  0  0  0  0
   57.6539   23.1794   45.2326 N   0  0  0  0  0  0  0  0  0  0  0  0
   57.2251   24.4529   45.4529 C   0  0  0  0  0  0  0  0  0  0  0  0
   58.0569   25.4241   45.1943 N   0  0  0  0  0  0  0  0  0  0  0  0
   55.8932   24.6539   45.9045 C   0  0  0  0  0  0  0  0  0  0  0  0
   55.3489   25.9192   46.0892 O   0  0  0  0  0  0  0  0  0  0  0  0
   55.0789   23.5406   46.1389 C   0  0  0  0  0  0  0  0  0  0  0  0
   55.5659   22.2548   45.9174 C   0  0  0  0  0  0  0  0  0  0  0  0
 16 17  1  0
 17 18  1  0
 18 19  2  0
 19 14  1  0
 14 15  2  0
 14 13  1  0
 13  1  1  0
  1  2  1  0
  2  3  1  0
  3  4  2  0
  4  7  1  0
  7  8  2  0
  8  9  1  0
  9 10  2  0
 10 11  1  0
 11 12  2  0
  3  5  1  0
  5  6  1  0
 18 20  1  0
 20 21  1  0
 20 22  2  0
 22 23  1  0
 23 16  2  0
  6  1  2  0
 12  7  1  0
M  CHG 1   2  -1
M  CHG 1  17  -1
M  CHG 1  21  -1
M  END
> <UniqueID>
8

> <SMILES>
O=C(Cc1csc(=Nc2ccccc2)[n-]1)/N=c1/[n-]cccc1[O-]

> <Energy>
79.0024835952437

> <Genealogy>
O=C(Cc1csc(=Nc2ccccc2)[n-]1)N=c1[n-]cccc1[O-] (protonated)
O=C(Cc1csc(=Nc2ccccc2)[n-]1)/N=c1/[n-]cccc1[O-] (cis-trans isomerization)
O=C(Cc1csc(=Nc2ccccc2)[n-]1)/N=c1/[n-]cccc1[O-] (3D coordinates assigned)
O=C(Cc1csc(=Nc2ccccc2)[n-]1)/N=c1/[n-]cccc1[O-] (optimized conformer: 79.0024835952437 kcal/mol)

> <smiles>
O=C(Cc1csc(=Nc2ccccc2)[nH]1)N=c1[nH]cccc1O

> <score_type>
oracle

> <origin>
adg

> <m_score__min__energy>
-14.69

> <m_primary>
energy

> <minimizedAffinity>
-7.73241

> <minimizedRMSD>
0.86884

> <CNNscore>
0.4820145369

> <CNNaffinity>
6.2252345085

> <CNN_VS>
3.0006535053

> <CNNaffinity_variance>
0.0054867901

$$$$
21:0


 22 24  0  0  0  0  0  0  0  0999 V2000
   56.4757   29.3373   44.6747 C   0  0  0  0  0  0  0  0  0  0  0  0
   57.7541   29.0147   44.9298 C   0  0  0  0  0  0  0  0  0  0  0  0
   58.3343   27.7367   44.8706 C   0  0  0  0  0  0  0  0  0  0  0  0
   57.8776   26.5819   44.3519 C   0  0  0  0  0  0  0  0  0  0  0  0
   59.5800   27.8497   45.4704 C   0  0  0  0  0  0  0  0  0  0  0  0
   59.7477   29.1795   45.7956 C   0  0  0  0  0  0  0  0  0  0  0  0
   60.9575   29.7469   46.4729 C   0  0  0  0  0  0  0  0  0  0  0  0
   58.6455   29.8870   45.4645 N   0  0  0  0  0  0  0  0  0  0  0  0
   57.4375   25.4104   45.1282 C   0  0  0  0  0  0  0  0  0  0  0  0
   58.1371   24.2668   45.2536 N   0  0  0  0  0  0  0  0  0  0  0  0
   57.4183   23.5596   46.1516 C   0  0  0  0  0  0  0  0  0  0  0  0
   57.7485   22.4034   46.5261 O   0  0  0  0  0  0  0  0  0  0  0  0
   56.3211   24.1899   46.6233 N   0  0  0  0  0  0  0  0  0  0  0  0
   56.3588   25.3662   45.9758 C   0  0  0  0  0  0  0  0  0  0  0  0
   55.4277   26.3792   46.1602 O   0  0  0  0  0  0  0  0  0  0  0  0
   58.4406   31.2860   45.7276 C   0  0  0  0  0  0  0  0  0  0  0  0
   58.1046   32.1777   44.6926 C   0  0  0  0  0  0  0  0  0  0  0  0
   57.9524   31.6270   43.0321 Cl  0  0  0  0  0  0  0  0  0  0  0  0
   57.9138   33.4949   44.9693 N   0  0  0  0  0  0  0  0  0  0  0  0
   58.0395   33.9906   46.2287 C   0  0  0  0  0  0  0  0  0  0  0  0
   58.3763   33.1404   47.2838 C   0  0  0  0  0  0  0  0  0  0  0  0
   58.5791   31.7846   47.0291 C   0  0  0  0  0  0  0  0  0  0  0  0
  1  2  2  0
  2  3  1  0
  3  4  2  0
  4  9  1  0
  9 10  1  0
 10 11  1  0
 11 12  2  0
 11 13  1  0
 13 14  1  0
 14 15  1  0
  3  5  1  0
  5  6  2  0
  6  7  1  0
  6  8  1  0
  8 16  1  0
 16 17  2  0
 17 18  1  0
 17 19  1  0
 19 20  2  0
 20 21  1  0
 21 22  2  0
  8  2  1  0
 22 16  1  0
 14  9  2  0
M  CHG 1  10  -1
M  CHG 1  13  -1
M  CHG 1  15  -1
M  END
> <UniqueID>
21

> <SMILES>
C=c1/c(=C\c2[n-]c(=O)[n-]c2[O-])cc(C)n1-c1cccnc1Cl

> <Energy>
110.21856494642985

> <Genealogy>
C=c1c(=Cc2[n-]c(=O)[n-]c2[O-])cc(C)n1-c1cccnc1Cl (protonated)
C=c1/c(=C\c2[n-]c(=O)[n-]c2[O-])cc(C)n1-c1cccnc1Cl (cis-trans isomerization)
C=c1/c(=C\c2[n-]c(=O)[n-]c2[O-])cc(C)n1-c1cccnc1Cl (3D coordinates assigned)
C=c1/c(=C\c2[n-]c(=O)[n-]c2[O-])cc(C)n1-c1cccnc1Cl (optimized conformer: 110.21856494642985 kcal/mol)

> <smiles>
C=c1c(=Cc2[nH]c(=O)[nH]c2O)cc(C)n1-c1cccnc1Cl

> <score_type>
oracle

> <origin>
adg

> <m_score__min__energy>
-15.16

> <m_primary>
energy

> <minimizedAffinity>
-7.26595

> <minimizedRMSD>
0.83910

> <CNNscore>
0.5906555057

> <CNNaffinity>
6.6489143372

> <CNN_VS>
3.9272179604

> <CNNaffinity_variance>
0.0386601351

$$$$
29:0


 25 27  0  0  0  0  0  0  0  0999 V2000
   59.1293   28.2623   44.1813 C   0  0  0  0  0  0  0  0  0  0  0  0
   58.9496   28.1077   45.5018 C   0  0  0  0  0  0  0  0  0  0  0  0
   59.0033   26.9110   46.2349 C   0  0  0  0  0  0  0  0  0  0  0  0
   59.0350   25.6278   45.8264 C   0  0  0  0  0  0  0  0  0  0  0  0
   59.0086   27.2745   47.5725 C   0  0  0  0  0  0  0  0  0  0  0  0
   58.8833   28.6471   47.6141 C   0  0  0  0  0  0  0  0  0  0  0  0
   58.8617   29.4677   48.8674 C   0  0  0  0  0  0  0  0  0  0  0  0
   58.8389   29.1519   46.3619 N   0  0  0  0  0  0  0  0  0  0  0  0
   57.8554   24.7857   45.5669 C   0  0  0  0  0  0  0  0  0  0  0  0
   57.8684   23.6188   44.9015 N   0  0  0  0  0  0  0  0  0  0  0  0
   56.5687   23.2847   44.7752 C   0  0  0  0  0  0  0  0  0  0  0  0
   56.1824   22.2342   44.2017 O   0  0  0  0  0  0  0  0  0  0  0  0
   55.7144   24.1871   45.3061 N   0  0  0  0  0  0  0  0  0  0  0  0
   56.5424   25.1341   45.7872 C   0  0  0  0  0  0  0  0  0  0  0  0
   56.1072   26.2964   46.4097 O   0  0  0  0  0  0  0  0  0  0  0  0
   58.6525   23.1190   44.5781 H   0  0  0  0  0  0  0  0  0  0  0  0
   58.8111   30.5515   46.0267 C   0  0  0  0  0  0  0  0  0  0  0  0
   59.7536   31.4053   46.6195 C   0  0  0  0  0  0  0  0  0  0  0  0
   59.8002   32.7574   46.2812 C   0  0  0  0  0  0  0  0  0  0  0  0
   58.9063   33.2704   45.3432 C   0  0  0  0  0  0  0  0  0  0  0  0
   57.9569   32.4361   44.7470 C   0  0  0  0  0  0  0  0  0  0  0  0
   57.8868   31.0703   45.0832 C   0  0  0  0  0  0  0  0  0  0  0  0
   56.8374   30.2259   44.4569 C   0  0  0  0  0  0  0  0  0  0  0  0
   56.7032   30.2069   43.2049 O   0  0  0  0  0  0  0  0  0  0  0  0
   55.9677   29.4689   45.2326 O   0  0  0  0  0  0  0  0  0  0  0  0
  1  2  2  0
  2  3  1  0
  3  4  2  0
  4  9  1  0
  9 10  1  0
 10 11  1  0
 11 12  2  0
 11 13  1  0
 13 14  1  0
 14 15  1  0
  3  5  1  0
  5  6  2  0
  6  7  1  0
  6  8  1  0
  8 17  1  0
 17 18  2  0
 18 19  1  0
 19 20  2  0
 20 21  1  0
 21 22  2  0
 22 23  1  0
 23 24  2  0
 23 25  1  0
  8  2  1  0
 22 17  1  0
 14  9  2  0
 10 16  1  0
M  CHG 1  13  -1
M  CHG 1  15  -1
M  CHG 1  25  -1
M  END
> <UniqueID>
29

> <SMILES>
C=c1c(=Cc2[nH]c(=O)[n-]c2[O-])cc(C)n1-c1ccccc1C(=O)[O-]

> <Energy>
117.37533559443985

> <Genealogy>
C=c1c(=Cc2[nH]c(=O)[n-]c2[O-])cc(C)n1-c1ccccc1C(=O)[O-] (protonated)
C=c1c(=Cc2[nH]c(=O)[n-]c2[O-])cc(C)n1-c1ccccc1C(=O)[O-] (3D coordinates assigned)
C=c1c(=Cc2[nH]c(=O)[n-]c2[O-])cc(C)n1-c1ccccc1C(=O)[O-] (optimized conformer: 117.37533559443985 kcal/mol)

> <smiles>
C=c1c(=Cc2[nH]c(=O)[nH]c2O)cc(C)n1-c1ccccc1C(=O)O

> <score_type>
oracle

> <origin>
adg

> <m_score__min__energy>
-15.289999999999999

> <m_primary>
energy

> <minimizedAffinity>
-7.64742

> <minimizedRMSD>
1.25583

> <CNNscore>
0.1858129799

> <CNNaffinity>
5.9610247612

> <CNN_VS>
1.1076357365

> <CNNaffinity_variance>
0.0255247038

$$$$
37:0


 29 31  0  0  0  0  0  0  0  0999 V2000
   60.2354   26.5111   46.4078 C   0  0  0  0  0  0  0  0  0  0  0  0
   59.3850   27.3808   45.8407 C   0  0  0  0  0  0  0  0  0  0  0  0
   58.2693   27.0555   45.0626 C   0  0  0  0  0  0  0  0  0  0  0  0
   57.8545   25.8273   44.6971 C   0  0  0  0  0  0  0  0  0  0  0  0
   57.6822   28.2581   44.7014 C   0  0  0  0  0  0  0  0  0  0  0  0
   58.4498   29.2599   45.2630 C   0  0  0  0  0  0  0  0  0  0  0  0
   58.1490   30.7225   45.1391 C   0  0  0  0  0  0  0  0  0  0  0  0
   59.4844   28.7310   45.9587 N   0  0  0  0  0  0  0  0  0  0  0  0
   57.2792   24.8457   45.6441 C   0  0  0  0  0  0  0  0  0  0  0  0
   56.0624   25.0868   46.3079 C   0  0  0  0  0  0  0  0  0  0  0  0
   55.3558   26.2645   46.0953 O   0  0  0  0  0  0  0  0  0  0  0  0
   55.5782   24.1707   47.1862 N   0  0  0  0  0  0  0  0  0  0  0  0
   56.2551   23.0249   47.4509 C   0  0  0  0  0  0  0  0  0  0  0  0
   55.6460   21.9443   48.5109 S   0  0  0  0  0  0  0  0  0  0  0  0
   57.4464   22.7844   46.8453 N   0  0  0  0  0  0  0  0  0  0  0  0
   57.9732   23.6662   45.9584 C   0  0  0  0  0  0  0  0  0  0  0  0
   59.0827   23.4100   45.4166 O   0  0  0  0  0  0  0  0  0  0  0  0
   60.5279   29.4859   46.6714 C   0  0  0  0  0  0  0  0  0  0  0  0
   60.1279   29.7374   48.1035 C   0  0  0  0  0  0  0  0  0  0  0  0
   59.4278   30.9041   48.4494 C   0  0  0  0  0  0  0  0  0  0  0  0
   59.0670   31.1425   49.7776 C   0  0  0  0  0  0  0  0  0  0  0  0
   59.4026   30.2276   50.7828 C   0  0  0  0  0  0  0  0  0  0  0  0
   60.1183   29.0665   50.4409 C   0  0  0  0  0  0  0  0  0  0  0  0
   60.4803   28.8273   49.1118 C   0  0  0  0  0  0  0  0  0  0  0  0
   59.0051   30.5145   52.1311 N   0  0  0  0  0  0  0  0  0  0  0  0
   57.6375   29.8352   52.9517 S   0  0  0  0  0  0  0  0  0  0  0  0
   57.2223   30.8242   54.3728 C   0  0  0  0  0  0  0  0  0  0  0  0
   57.9914   28.4503   53.4151 O   0  0  0  0  0  0  0  0  0  0  0  0
   56.4668   29.7451   52.0144 O   0  0  0  0  0  0  0  0  0  0  0  0
  1  2  2  0
  2  3  1  0
  3  4  2  0
  4  9  1  0
  9 10  2  0
 10 11  1  0
 10 12  1  0
 12 13  1  0
 13 14  2  0
 13 15  1  0
 15 16  1  0
 16 17  2  0
  3  5  1  0
  5  6  2  0
  6  7  1  0
  6  8  1  0
  8 18  1  0
 18 19  1  0
 19 20  2  0
 20 21  1  0
 21 22  2  0
 22 25  1  0
 25 26  1  0
 26 27  1  0
 26 28  2  0
 26 29  2  0
 22 23  1  0
 23 24  2  0
  8  2  1  0
 24 19  1  0
 16  9  1  0
M  CHG 1  11  -1
M  CHG 1  12  -1
M  CHG 1  15  -1
M  CHG 1  25  -1
M  END
> <UniqueID>
37

> <SMILES>
C=c1c(=Cc2c([O-])[n-]c(=S)[n-]c2=O)cc(C)n1Cc1ccc([N-]S(C)(=O)=O)cc1

> <Energy>
83.88254964247689

> <Genealogy>
C=c1c(=Cc2c([O-])[n-]c(=S)[n-]c2=O)cc(C)n1Cc1ccc([N-]S(C)(=O)=O)cc1 (protonated)
C=c1c(=Cc2c([O-])[n-]c(=S)[n-]c2=O)cc(C)n1Cc1ccc([N-]S(C)(=O)=O)cc1 (3D coordinates assigned)
C=c1c(=Cc2c([O-])[n-]c(=S)[n-]c2=O)cc(C)n1Cc1ccc([N-]S(C)(=O)=O)cc1 (optimized conformer: 83.88254964247689 kcal/mol)

> <smiles>
C=c1c(=Cc2c(O)[nH]c(=S)[nH]c2=O)cc(C)n1Cc1ccc(NS(C)(=O)=O)cc1

> <score_type>
oracle

> <origin>
adg

> <m_score__min__energy>
-16.350000000000001

> <m_primary>
energy

> <minimizedAffinity>
-7.61508

> <minimizedRMSD>
1.23377

> <CNNscore>
0.1887987852

> <CNNaffinity>
6.0950226784

> <CNN_VS>
1.1507328749

> <CNNaffinity_variance>
0.0653200671

$$$$
53:0


 29 31  0  0  0  0  0  0  0  0999 V2000
   59.7002   28.6741   47.5827 C   0  0  0  0  0  0  0  0  0  0  0  0
   59.1441   28.8638   46.3752 C   0  0  0  0  0  0  0  0  0  0  0  0
   58.8148   27.8713   45.4482 C   0  0  0  0  0  0  0  0  0  0  0  0
   58.9908   26.5408   45.5743 C   0  0  0  0  0  0  0  0  0  0  0  0
   58.3081   28.5274   44.3351 C   0  0  0  0  0  0  0  0  0  0  0  0
   58.3297   29.8762   44.6278 C   0  0  0  0  0  0  0  0  0  0  0  0
   57.8838   30.9574   43.6903 C   0  0  0  0  0  0  0  0  0  0  0  0
   58.8429   30.0831   45.8615 N   0  0  0  0  0  0  0  0  0  0  0  0
   57.8834   25.5905   45.8210 C   0  0  0  0  0  0  0  0  0  0  0  0
   56.5703   26.0343   46.0635 C   0  0  0  0  0  0  0  0  0  0  0  0
   56.2689   27.3911   46.0775 O   0  0  0  0  0  0  0  0  0  0  0  0
   55.5853   25.1326   46.3070 N   0  0  0  0  0  0  0  0  0  0  0  0
   55.8454   23.8002   46.3402 C   0  0  0  0  0  0  0  0  0  0  0  0
   54.6395   22.7411   46.6358 S   0  0  0  0  0  0  0  0  0  0  0  0
   57.1098   23.3497   46.1401 N   0  0  0  0  0  0  0  0  0  0  0  0
   58.1312   24.2101   45.8900 C   0  0  0  0  0  0  0  0  0  0  0  0
   59.2929   23.7556   45.7128 O   0  0  0  0  0  0  0  0  0  0  0  0
   59.0143   31.3631   46.4959 C   0  0  0  0  0  0  0  0  0  0  0  0
   58.1394   32.4171   46.2042 C   0  0  0  0  0  0  0  0  0  0  0  0
   58.2986   33.6538   46.8313 C   0  0  0  0  0  0  0  0  0  0  0  0
   59.3322   33.8494   47.7507 C   0  0  0  0  0  0  0  0  0  0  0  0
   60.2258   32.8032   48.0515 C   0  0  0  0  0  0  0  0  0  0  0  0
   60.0483   31.5572   47.4234 C   0  0  0  0  0  0  0  0  0  0  0  0
   61.3290   32.9828   49.0341 C   0  0  0  0  0  0  0  0  0  0  0  0
   61.0570   32.9317   50.2667 O   0  0  0  0  0  0  0  0  0  0  0  0
   62.6918   33.2415   48.6106 N   0  0  0  0  0  0  0  0  0  0  0  0
   63.5672   32.1437   49.0487 C   0  0  0  0  0  0  0  0  0  0  0  0
   62.7601   33.4041   47.1482 C   0  0  0  0  0  0  0  0  0  0  0  0
   62.6148   33.9500   49.2898 H   0  0  0  0  0  0  0  0  0  0  0  0
  1  2  2  0
  2  3  1  0
  3  4  2  0
  4  9  1  0
  9 10  2  0
 10 11  1  0
 10 12  1  0
 12 13  1  0
 13 14  2  0
 13 15  1  0
 15 16  1  0
 16 17  2  0
  3  5  1  0
  5  6  2  0
  6  7  1  0
  6  8  1  0
  8 18  1  0
 18 19  2  0
 19 20  1  0
 20 21  2  0
 21 22  1  0
 22 24  1  0
 24 25  2  0
 24 26  1  0
 26 27  1  0
 26 28  1  0
 22 23  2  0
  8  2  1  0
 23 18  1  0
 16  9  1  0
 26 29  1  0
M  CHG 1  11  -1
M  CHG 1  12  -1
M  CHG 1  15  -1
M  CHG 1  26   1
M  END
> <UniqueID>
52

> <SMILES>
C=c1c(=Cc2c([O-])[n-]c(=S)[n-]c2=O)cc(C)n1-c1cccc(C(=O)[NH+](C)C)c1

> <Energy>
96.5029089174656

> <Genealogy>
C=c1c(=Cc2c([O-])[n-]c(=S)[n-]c2=O)cc(C)n1-c1cccc(C(=O)[NH+](C)C)c1 (protonated)
C=c1c(=Cc2c([O-])[n-]c(=S)[n-]c2=O)cc(C)n1-c1cccc(C(=O)[NH+](C)C)c1 (3D coordinates assigned)
C=c1c(=Cc2c([O-])[n-]c(=S)[n-]c2=O)cc(C)n1-c1cccc(C(=O)[NH+](C)C)c1 (optimized conformer: 96.5029089174656 kcal/mol)

> <smiles>
C=c1c(=Cc2c(O)[nH]c(=S)[nH]c2=O)cc(C)n1-c1cccc(C(=O)N(C)C)c1

> <score_type>
oracle

> <origin>
adg

> <m_score__min__energy>
-14.699999999999999

> <m_primary>
energy

> <minimizedAffinity>
-7.84177

> <minimizedRMSD>
0.91514

> <CNNscore>
0.2253835350

> <CNNaffinity>
6.6976265907

> <CNN_VS>
1.5095347166

> <CNNaffinity_variance>
0.0654906780

$$$$
73:0


 27 29  0  0  0  0  0  0  0  0999 V2000
   59.5428   31.2344   51.8325 C   0  0  0  0  0  0  0  0  0  0  0  0
   59.4969   29.9210   52.6441 C   0  0  0  0  0  0  0  0  0  0  0  0
   58.9554   30.1594   54.0621 C   0  0  0  0  0  0  0  0  0  0  0  0
   57.5871   30.7321   54.0671 N   0  0  0  0  0  0  0  0  0  0  0  0
   57.2405   31.5259   52.8678 C   0  0  0  0  0  0  0  0  0  0  0  0
   58.4633   32.2470   52.2885 C   0  0  0  0  0  0  0  0  0  0  0  0
   56.3754   29.5011   54.3548 S   0  0  0  0  0  0  0  0  0  0  0  0
   56.2224   29.2802   55.8343 O   0  0  0  0  0  0  0  0  0  0  0  0
   56.8272   28.2081   53.7356 O   0  0  0  0  0  0  0  0  0  0  0  0
   54.8133   29.9594   53.6700 C   0  0  0  0  0  0  0  0  0  0  0  0
   54.6748   30.1462   52.2872 C   0  0  0  0  0  0  0  0  0  0  0  0
   53.4265   30.4590   51.7417 C   0  0  0  0  0  0  0  0  0  0  0  0
   52.3110   30.5989   52.5738 C   0  0  0  0  0  0  0  0  0  0  0  0
   51.0730   30.9096   52.0259 O   0  0  0  0  0  0  0  0  0  0  0  0
   52.4465   30.4242   53.9569 C   0  0  0  0  0  0  0  0  0  0  0  0
   51.3421   30.5634   54.7897 O   0  0  0  0  0  0  0  0  0  0  0  0
   53.6945   30.1078   54.5029 C   0  0  0  0  0  0  0  0  0  0  0  0
   59.4350   30.9266   50.3623 C   0  0  0  0  0  0  0  0  0  0  0  0
   58.6442   30.0295   49.9586 O   0  0  0  0  0  0  0  0  0  0  0  0
   58.1839   32.8653   46.7479 C   0  0  0  0  0  0  0  0  0  0  0  0
   58.7064   32.1064   47.7457 N   0  0  0  0  0  0  0  0  0  0  0  0
   59.7712   32.5057   48.4952 C   0  0  0  0  0  0  0  0  0  0  0  0
   60.1990   31.6927   49.4209 N   0  0  0  0  0  0  0  0  0  0  0  0
   60.3253   33.7926   48.2567 C   0  0  0  0  0  0  0  0  0  0  0  0
   61.3331   34.3324   49.0483 O   0  0  0  0  0  0  0  0  0  0  0  0
   59.8052   34.5752   47.2209 C   0  0  0  0  0  0  0  0  0  0  0  0
   58.7344   34.1115   46.4602 C   0  0  0  0  0  0  0  0  0  0  0  0
 20 21  1  0
 21 22  1  0
 22 23  2  0
 23 18  1  0
 18 19  2  0
 18  1  1  0
  1  2  1  0
  2  3  1  0
  3  4  1  0
  4  7  1  0
  7  8  2  0
  7  9  2  0
  7 10  1  0
 10 11  2  0
 11 12  1  0
 12 13  2  0
 13 14  1  0
 13 15  1  0
 15 16  1  0
 15 17  2  0
  4  5  1  0
  5  6  1  0
 22 24  1  0
 24 25  1  0
 24 26  2  0
 26 27  1  0
 27 20  2  0
  6  1  1  0
 17 10  1  0
M  CHG 1  14  -1
M  CHG 1  16  -1
M  CHG 1  21  -1
M  CHG 1  25  -1
M  END
> <UniqueID>
71

> <SMILES>
O=C(/N=c1/[n-]cccc1[O-])C1CCN(S(=O)(=O)c2ccc([O-])c([O-])c2)CC1

> <Energy>
61.37426393644367

> <Genealogy>
O=C(N=c1[n-]cccc1[O-])C1CCN(S(=O)(=O)c2ccc([O-])c([O-])c2)CC1 (protonated)
O=C(/N=c1/[n-]cccc1[O-])C1CCN(S(=O)(=O)c2ccc([O-])c([O-])c2)CC1 (cis-trans isomerization)
O=C(/N=c1/[n-]cccc1[O-])C1CCN(S(=O)(=O)c2ccc([O-])c([O-])c2)CC1 (3D coordinates assigned)
O=C(/N=c1/[n-]cccc1[O-])C1CCN(S(=O)(=O)c2ccc([O-])c([O-])c2)CC1 (nonaromatic ring conformer: 61.37426393644367 kcal/mol)

> <smiles>
O=C(N=c1[nH]cccc1O)C1CCN(S(=O)(=O)c2ccc(O)c(O)c2)CC1

> <score_type>
oracle

> <origin>
adg

> <m_score__min__energy>
-17.719999999999999

> <m_primary>
energy

> <minimizedAffinity>
-6.64093

> <minimizedRMSD>
2.09703

> <CNNscore>
0.5466580391

> <CNNaffinity>
5.5933403969

> <CNN_VS>
3.0576446056

> <CNNaffinity_variance>
0.0449039377

$$$$
85:0


 26 28  0  0  0  0  0  0  0  0999 V2000
   59.6688   28.6683   44.9227 C   0  0  0  0  0  0  0  0  0  0  0  0
   59.7904   28.1848   46.1693 C   0  0  0  0  0  0  0  0  0  0  0  0
   59.5444   26.8665   46.5687 C   0  0  0  0  0  0  0  0  0  0  0  0
   59.0779   25.8568   45.8091 C   0  0  0  0  0  0  0  0  0  0  0  0
   59.8132   26.8151   47.9278 C   0  0  0  0  0  0  0  0  0  0  0  0
   60.2129   28.0809   48.3020 C   0  0  0  0  0  0  0  0  0  0  0  0
   60.6199   28.4584   49.6951 C   0  0  0  0  0  0  0  0  0  0  0  0
   60.1980   28.9203   47.2378 N   0  0  0  0  0  0  0  0  0  0  0  0
   57.8752   25.0685   46.1322 C   0  0  0  0  0  0  0  0  0  0  0  0
   57.9161   23.7757   46.4995 N   0  0  0  0  0  0  0  0  0  0  0  0
   56.6265   23.4864   46.7764 C   0  0  0  0  0  0  0  0  0  0  0  0
   56.2529   22.3439   47.1496 O   0  0  0  0  0  0  0  0  0  0  0  0
   55.7704   24.5203   46.6357 N   0  0  0  0  0  0  0  0  0  0  0  0
   56.5761   25.5182   46.2401 C   0  0  0  0  0  0  0  0  0  0  0  0
   56.1405   26.8207   46.0270 O   0  0  0  0  0  0  0  0  0  0  0  0
   60.5252   30.3544   47.2600 C   0  0  0  0  0  0  0  0  0  0  0  0
   59.3273   31.2017   47.7183 C   0  0  0  0  0  0  0  0  0  0  0  0
   59.1362   32.4276   46.8492 C   0  0  0  0  0  0  0  0  0  0  0  0
   58.3442   32.2879   45.6944 C   0  0  0  0  0  0  0  0  0  0  0  0
   58.2210   33.3333   44.7793 C   0  0  0  0  0  0  0  0  0  0  0  0
   58.8985   34.5309   44.9927 C   0  0  0  0  0  0  0  0  0  0  0  0
   59.6899   34.6936   46.1294 C   0  0  0  0  0  0  0  0  0  0  0  0
   59.8103   33.6610   47.0778 C   0  0  0  0  0  0  0  0  0  0  0  0
   60.6402   33.9234   48.2740 C   0  0  0  0  0  0  0  0  0  0  0  0
   60.1038   34.3608   49.3271 O   0  0  0  0  0  0  0  0  0  0  0  0
   61.9951   33.6171   48.2866 O   0  0  0  0  0  0  0  0  0  0  0  0
  1  2  2  0
  2  3  1  0
  3  4  2  0
  4  9  1  0
  9 10  1  0
 10 11  1  0
 11 12  2  0
 11 13  1  0
 13 14  1  0
 14 15  1  0
  3  5  1  0
  5  6  2  0
  6  7  1  0
  6  8  1  0
  8 16  1  0
 16 17  1  0
 17 18  1  0
 18 19  2  0
 19 20  1  0
 20 21  2  0
 21 22  1  0
 22 23  2  0
 23 24  1  0
 24 25  2  0
 24 26  1  0
  8  2  1  0
 23 18  1  0
 14  9  2  0
M  CHG 1  10  -1
M  CHG 1  13  -1
M  CHG 1  15  -1
M  CHG 1  26  -1
M  END
> <UniqueID>
81

> <SMILES>
C=c1c(=Cc2[n-]c(=O)[n-]c2[O-])cc(C)n1CCc1ccccc1C(=O)[O-]

> <Energy>
110.15265708682921

> <Genealogy>
C=c1c(=Cc2[n-]c(=O)[n-]c2[O-])cc(C)n1CCc1ccccc1C(=O)[O-] (protonated)
C=c1c(=Cc2[n-]c(=O)[n-]c2[O-])cc(C)n1CCc1ccccc1C(=O)[O-] (3D coordinates assigned)
C=c1c(=Cc2[n-]c(=O)[n-]c2[O-])cc(C)n1CCc1ccccc1C(=O)[O-] (optimized conformer: 110.15265708682921 kcal/mol)

> <smiles>
C=c1c(=Cc2[nH]c(=O)[nH]c2O)cc(C)n1CCc1ccccc1C(=O)O

> <score_type>
oracle

> <origin>
adg

> <m_score__min__energy>
-17.280000000000001

> <m_primary>
energy

> <minimizedAffinity>
-8.53609

> <minimizedRMSD>
1.52697

> <CNNscore>
0.4566779435

> <CNNaffinity>
6.5797028542

> <CNN_VS>
3.0048050880

> <CNNaffinity_variance>
0.0047990512

$$$$
23:0


 28 31  0  0  0  0  0  0  0  0999 V2000
   57.9244   32.8797   44.6289 C   0  0  0  0  0  0  0  0  0  0  0  0
   58.1945   32.9712   43.2532 C   0  0  0  0  0  0  0  0  0  0  0  0
   57.8666   31.9178   42.3958 C   0  0  0  0  0  0  0  0  0  0  0  0
   57.2724   30.7584   42.9023 C   0  0  0  0  0  0  0  0  0  0  0  0
   56.9952   30.6493   44.2740 C   0  0  0  0  0  0  0  0  0  0  0  0
   57.3367   31.7073   45.1319 C   0  0  0  0  0  0  0  0  0  0  0  0
   58.1273   35.1801   45.1769 O   0  0  0  0  0  0  0  0  0  0  0  0
   58.2933   33.9848   45.5426 C   0  0  0  0  0  0  0  0  0  0  0  0
   58.8581   33.7170   46.8352 N   0  0  0  0  0  0  0  0  0  0  0  0
   58.1042   32.9324   47.8184 C   0  0  0  0  0  0  0  0  0  0  0  0
   59.0441   31.9663   48.5357 C   0  0  0  0  0  0  0  0  0  0  0  0
   60.2285   32.6957   49.2208 C   0  0  0  0  0  0  0  0  0  0  0  0
   60.4966   34.1358   48.6788 C   0  0  0  0  0  0  0  0  0  0  0  0
   60.1245   34.3628   47.2028 C   0  0  0  0  0  0  0  0  0  0  0  0
   61.4287   31.8157   49.2619 N   0  0  0  0  0  0  0  0  0  0  0  0
   62.5847   32.4248   49.9433 C   0  0  0  0  0  0  0  0  0  0  0  0
   63.7799   32.3717   48.9988 C   0  0  0  0  0  0  0  0  0  0  0  0
   63.2104   32.0035   47.6466 C   0  0  0  0  0  0  0  0  0  0  0  0
   61.8959   31.3201   47.9577 C   0  0  0  0  0  0  0  0  0  0  0  0
   56.4030   29.3848   44.8316 C   0  0  0  0  0  0  0  0  0  0  0  0
   57.4905   28.4579   45.2785 C   0  0  0  0  0  0  0  0  0  0  0  0
   58.7970   28.7756   45.2856 N   0  0  0  0  0  0  0  0  0  0  0  0
   59.3790   27.6769   45.8154 C   0  0  0  0  0  0  0  0  0  0  0  0
   60.6237   27.5858   45.9816 O   0  0  0  0  0  0  0  0  0  0  0  0
   58.5247   26.6889   46.1543 N   0  0  0  0  0  0  0  0  0  0  0  0
   57.3316   27.2020   45.8130 C   0  0  0  0  0  0  0  0  0  0  0  0
   56.1217   26.5413   45.9908 O   0  0  0  0  0  0  0  0  0  0  0  0
   56.1076   25.6824   46.3650 H   0  0  0  0  0  0  0  0  0  0  0  0
  7  8  2  0
  8  1  1  0
  1  2  2  0
  2  3  1  0
  3  4  2  0
  4  5  1  0
  5 20  1  0
 20 21  1  0
 21 22  1  0
 22 23  1  0
 23 24  2  0
 23 25  1  0
 25 26  1  0
 26 27  1  0
  5  6  2  0
  8  9  1  0
  9 10  1  0
 10 11  1  0
 11 12  1  0
 12 15  1  0
 15 16  1  0
 16 17  1  0
 17 18  1  0
 18 19  1  0
 12 13  1  0
 13 14  1  0
  6  1  1  0
 14  9  1  0
 26 21  2  0
 19 15  1  0
 27 28  1  0
M  CHG 1  22  -1
M  CHG 1  25  -1
M  END
> <UniqueID>
23

> <SMILES>
O=C(c1cccc(Cc2[n-]c(=O)[n-]c2O)c1)N1CCC(N2CCCC2)CC1

> <Energy>
94.4378803311384

> <Genealogy>
O=C(c1cccc(Cc2[n-]c(=O)[n-]c2O)c1)N1CCC(N2CCCC2)CC1 (protonated)
O=C(c1cccc(Cc2[n-]c(=O)[n-]c2O)c1)N1CCC(N2CCCC2)CC1 (3D coordinates assigned)
O=C(c1cccc(Cc2[n-]c(=O)[n-]c2O)c1)N1CCC(N2CCCC2)CC1 (nonaromatic ring conformer: 94.4378803311384 kcal/mol)

> <smiles>
O=C(c1cccc(Cc2[nH]c(=O)[nH]c2O)c1)N1CCC(N2CCCC2)CC1

> <score_type>
oracle

> <origin>
adg

> <m_score__min__energy>
-14.44

> <m_primary>
energy

> <minimizedAffinity>
-7.01772

> <minimizedRMSD>
0.68142

> <CNNscore>
0.1718024462

> <CNNaffinity>
5.9215908051

> <CNN_VS>
1.0173437595

> <CNNaffinity_variance>
0.0660361722

$$$$
47:0


 31 34  0  0  0  0  0  0  0  0999 V2000
   58.7827   26.7078   47.7311 C   0  0  0  0  0  0  0  0  0  0  0  0
   58.6291   27.5449   46.6924 C   0  0  0  0  0  0  0  0  0  0  0  0
   58.0635   27.2506   45.4415 C   0  0  0  0  0  0  0  0  0  0  0  0
   57.7145   26.0749   44.8825 C   0  0  0  0  0  0  0  0  0  0  0  0
   57.9256   28.4628   44.7830 C   0  0  0  0  0  0  0  0  0  0  0  0
   58.4621   29.4297   45.6072 C   0  0  0  0  0  0  0  0  0  0  0  0
   58.5551   30.8841   45.2603 C   0  0  0  0  0  0  0  0  0  0  0  0
   58.8883   28.8776   46.7644 N   0  0  0  0  0  0  0  0  0  0  0  0
   57.2377   24.8850   45.6163 C   0  0  0  0  0  0  0  0  0  0  0  0
   55.9571   24.8504   46.1969 C   0  0  0  0  0  0  0  0  0  0  0  0
   55.0863   25.9268   46.0672 O   0  0  0  0  0  0  0  0  0  0  0  0
   55.5612   23.7550   46.8973 N   0  0  0  0  0  0  0  0  0  0  0  0
   56.3914   22.6941   47.0668 C   0  0  0  0  0  0  0  0  0  0  0  0
   56.0015   21.6910   47.7158 O   0  0  0  0  0  0  0  0  0  0  0  0
   57.6417   22.7181   46.5407 N   0  0  0  0  0  0  0  0  0  0  0  0
   58.0850   23.7871   45.8302 C   0  0  0  0  0  0  0  0  0  0  0  0
   59.2552   23.7789   45.3611 O   0  0  0  0  0  0  0  0  0  0  0  0
   59.5354   29.5763   47.8446 C   0  0  0  0  0  0  0  0  0  0  0  0
   59.0185   29.5139   49.1456 C   0  0  0  0  0  0  0  0  0  0  0  0
   59.6527   30.1965   50.1861 C   0  0  0  0  0  0  0  0  0  0  0  0
   60.8142   30.9341   49.9398 C   0  0  0  0  0  0  0  0  0  0  0  0
   61.3543   30.9926   48.6429 C   0  0  0  0  0  0  0  0  0  0  0  0
   60.6942   30.3264   47.5972 C   0  0  0  0  0  0  0  0  0  0  0  0
   62.5928   31.7605   48.3762 C   0  0  0  0  0  0  0  0  0  0  0  0
   63.1483   31.6766   47.2467 O   0  0  0  0  0  0  0  0  0  0  0  0
   63.1850   32.5818   49.3969 N   0  0  0  0  0  0  0  0  0  0  0  0
   62.4009   33.6394   50.0378 C   0  0  0  0  0  0  0  0  0  0  0  0
   62.9324   33.8772   51.4539 C   0  0  0  0  0  0  0  0  0  0  0  0
   64.3260   34.1245   51.4294 O   0  0  0  0  0  0  0  0  0  0  0  0
   65.0120   32.9727   50.9732 C   0  0  0  0  0  0  0  0  0  0  0  0
   64.6418   32.6530   49.5206 C   0  0  0  0  0  0  0  0  0  0  0  0
  1  2  2  0
  2  3  1  0
  3  4  2  0
  4  9  1  0
  9 10  2  0
 10 11  1  0
 10 12  1  0
 12 13  1  0
 13 14  2  0
 13 15  1  0
 15 16  1  0
 16 17  2  0
  3  5  1  0
  5  6  2  0
  6  7  1  0
  6  8  1  0
  8 18  1  0
 18 19  2  0
 19 20  1  0
 20 21  2  0
 21 22  1  0
 22 24  1  0
 24 25  2  0
 24 26  1  0
 26 27  1  0
 27 28  1  0
 28 29  1  0
 29 30  1  0
 30 31  1  0
 22 23  2  0
  8  2  1  0
 23 18  1  0
 16  9  1  0
 31 26  1  0
M  CHG 1  11  -1
M  CHG 1  12  -1
M  CHG 1  15  -1
M  END
> <UniqueID>
44

> <SMILES>
C=c1c(=Cc2c([O-])[n-]c(=O)[n-]c2=O)cc(C)n1-c1cccc(C(=O)N2CCOCC2)c1

> <Energy>
106.73283433654319

> <Genealogy>
C=c1c(=Cc2c([O-])[n-]c(=O)[n-]c2=O)cc(C)n1-c1cccc(C(=O)N2CCOCC2)c1 (protonated)
C=c1c(=Cc2c([O-])[n-]c(=O)[n-]c2=O)cc(C)n1-c1cccc(C(=O)N2CCOCC2)c1 (3D coordinates assigned)
C=c1c(=Cc2c([O-])[n-]c(=O)[n-]c2=O)cc(C)n1-c1cccc(C(=O)N2CCOCC2)c1 (nonaromatic ring conformer: 106.73283433654319 kcal/mol)

> <smiles>
C=c1c(=Cc2c(O)[nH]c(=O)[nH]c2=O)cc(C)n1-c1cccc(C(=O)N2CCOCC2)c1

> <score_type>
oracle

> <origin>
adg

> <m_score__min__energy>
-17.149999999999999

> <m_primary>
energy

> <minimizedAffinity>
-8.83969

> <minimizedRMSD>
1.85160

> <CNNscore>
0.1164912879

> <CNNaffinity>
6.0362429619

> <CNN_VS>
0.7031697035

> <CNNaffinity_variance>
0.0066975374

$$$$
53:0


 30 32  0  0  0  0  0  0  0  0999 V2000
   59.6796   29.2991   50.1014 C   0  0  0  0  0  0  0  0  0  0  0  0
   60.8074   29.2942   50.6676 O   0  0  0  0  0  0  0  0  0  0  0  0
   59.5796   29.0464   48.6445 C   0  0  0  0  0  0  0  0  0  0  0  0
   60.1399   27.8856   48.0801 C   0  0  0  0  0  0  0  0  0  0  0  0
   60.0354   27.6446   46.7077 C   0  0  0  0  0  0  0  0  0  0  0  0
   59.3763   28.5573   45.8827 C   0  0  0  0  0  0  0  0  0  0  0  0
   58.8224   29.7224   46.4254 C   0  0  0  0  0  0  0  0  0  0  0  0
   58.9195   29.9627   47.8036 C   0  0  0  0  0  0  0  0  0  0  0  0
   57.9675   30.8568   45.3793 S   0  0  0  0  0  0  0  0  0  0  0  0
   58.6913   30.9830   44.0673 O   0  0  0  0  0  0  0  0  0  0  0  0
   56.5879   30.3223   45.1143 O   0  0  0  0  0  0  0  0  0  0  0  0
   57.8553   32.4178   46.1555 N   0  0  0  0  0  0  0  0  0  0  0  0
   59.0041   32.6099   47.0692 C   0  0  0  0  0  0  0  0  0  0  0  0
   59.2077   34.0877   47.4129 C   0  0  0  0  0  0  0  0  0  0  0  0
   59.5306   34.9103   46.1534 C   0  0  0  0  0  0  0  0  0  0  0  0
   58.9721   34.2731   44.8694 C   0  0  0  0  0  0  0  0  0  0  0  0
   57.6770   33.4983   45.1532 C   0  0  0  0  0  0  0  0  0  0  0  0
   58.5008   29.5502   50.8721 N   0  0  0  0  0  0  0  0  0  0  0  0
   58.4725   30.4711   51.9988 C   0  0  0  0  0  0  0  0  0  0  0  0
   56.8219   32.1223   52.4670 O   0  0  0  0  0  0  0  0  0  0  0  0
   57.0641   30.9046   52.2496 C   0  0  0  0  0  0  0  0  0  0  0  0
   55.9936   29.9521   52.1459 N   0  0  0  0  0  0  0  0  0  0  0  0
   56.2049   29.0587   51.7903 H   0  0  0  0  0  0  0  0  0  0  0  0
   54.6337   30.2196   52.5277 C   0  0  0  0  0  0  0  0  0  0  0  0
   54.2083   29.8961   53.8257 C   0  0  0  0  0  0  0  0  0  0  0  0
   52.8959   30.1666   54.2280 C   0  0  0  0  0  0  0  0  0  0  0  0
   52.0033   30.7733   53.3420 C   0  0  0  0  0  0  0  0  0  0  0  0
   52.4220   31.1216   52.0547 C   0  0  0  0  0  0  0  0  0  0  0  0
   51.5380   31.7414   51.1805 O   0  0  0  0  0  0  0  0  0  0  0  0
   53.7350   30.8516   51.6479 C   0  0  0  0  0  0  0  0  0  0  0  0
 20 21  2  0
 21 19  1  0
 19 18  1  0
 18  1  1  0
  1  2  2  0
  1  3  1  0
  3  4  2  0
  4  5  1  0
  5  6  2  0
  6  7  1  0
  7  9  1  0
  9 10  2  0
  9 11  2  0
  9 12  1  0
 12 13  1  0
 13 14  1  0
 14 15  1  0
 15 16  1  0
 16 17  1  0
  7  8  2  0
 21 22  1  0
 22 24  1  0
 24 25  2  0
 25 26  1  0
 26 27  2  0
 27 28  1  0
 28 29  1  0
 28 30  2  0
  8  3  1  0
 30 24  1  0
 17 12  1  0
 22 23  1  0
M  CHG 1  18  -1
M  CHG 1  29  -1
M  END
> <UniqueID>
49

> <SMILES>
O=C(C[N-]C(=O)c1cccc(S(=O)(=O)N2CCCCC2)c1)Nc1cccc([O-])c1

> <Energy>
56.701255746892

> <Genealogy>
O=C(C[N-]C(=O)c1cccc(S(=O)(=O)N2CCCCC2)c1)Nc1cccc([O-])c1 (protonated)
O=C(C[N-]C(=O)c1cccc(S(=O)(=O)N2CCCCC2)c1)Nc1cccc([O-])c1 (3D coordinates assigned)
O=C(C[N-]C(=O)c1cccc(S(=O)(=O)N2CCCCC2)c1)Nc1cccc([O-])c1 (nonaromatic ring conformer: 56.701255746892 kcal/mol)

> <smiles>
O=C(CNC(=O)c1cccc(S(=O)(=O)N2CCCCC2)c1)Nc1cccc(O)c1

> <score_type>
oracle

> <origin>
adg

> <m_score__min__energy>
-15.18

> <m_primary>
energy

> <minimizedAffinity>
-7.85765

> <minimizedRMSD>
0.66841

> <CNNscore>
0.4327493012

> <CNNaffinity>
6.1393179893

> <CNN_VS>
2.6567854881

> <CNNaffinity_variance>
0.0664713010

$$$$
65:0


 29 31  0  0  0  0  0  0  0  0999 V2000
   59.9663   28.2740   45.6244 S   0  0  0  0  0  0  0  0  0  0  0  0
   58.8235   29.5903   45.2125 C   0  0  0  0  0  0  0  0  0  0  0  0
   59.1510   30.8824   45.4747 N   0  0  0  0  0  0  0  0  0  0  0  0
   58.2892   31.8945   45.1944 C   0  0  0  0  0  0  0  0  0  0  0  0
   57.0609   31.6072   44.5866 C   0  0  0  0  0  0  0  0  0  0  0  0
   56.7512   30.2751   44.3081 C   0  0  0  0  0  0  0  0  0  0  0  0
   55.6580   29.9796   43.7556 O   0  0  0  0  0  0  0  0  0  0  0  0
   57.6293   29.2937   44.6358 N   0  0  0  0  0  0  0  0  0  0  0  0
   58.6921   33.3112   45.4794 C   0  0  0  0  0  0  0  0  0  0  0  0
   59.5285   33.3671   46.7293 C   0  0  0  0  0  0  0  0  0  0  0  0
   60.9091   33.6139   46.6487 C   0  0  0  0  0  0  0  0  0  0  0  0
   61.6914   33.6172   47.8080 C   0  0  0  0  0  0  0  0  0  0  0  0
   61.1027   33.3686   49.0511 C   0  0  0  0  0  0  0  0  0  0  0  0
   59.7297   33.1158   49.1368 C   0  0  0  0  0  0  0  0  0  0  0  0
   58.9458   33.1066   47.9797 C   0  0  0  0  0  0  0  0  0  0  0  0
   58.7320   26.9413   45.4401 C   0  0  0  0  0  0  0  0  0  0  0  0
   58.4867   26.2403   46.7482 C   0  0  0  0  0  0  0  0  0  0  0  0
   59.1616   26.5804   47.7550 O   0  0  0  0  0  0  0  0  0  0  0  0
   57.5800   25.1346   46.8643 N   0  0  0  0  0  0  0  0  0  0  0  0
   56.1182   23.8085   45.3656 C   0  0  0  0  0  0  0  0  0  0  0  0
   55.9832   22.7628   44.4277 C   0  0  0  0  0  0  0  0  0  0  0  0
   57.0909   22.0137   44.0278 C   0  0  0  0  0  0  0  0  0  0  0  0
   58.3532   22.3048   44.5383 C   0  0  0  0  0  0  0  0  0  0  0  0
   58.5104   23.3335   45.4675 C   0  0  0  0  0  0  0  0  0  0  0  0
   57.3986   24.0673   45.9182 C   0  0  0  0  0  0  0  0  0  0  0  0
   55.0068   26.0127   45.9197 N   0  0  0  0  0  0  0  0  0  0  0  0
   54.9148   24.5978   45.7408 C   0  0  0  0  0  0  0  0  0  0  0  0
   53.7972   24.0348   45.9003 O   0  0  0  0  0  0  0  0  0  0  0  0
   54.2071   26.5304   46.1681 H   0  0  0  0  0  0  0  0  0  0  0  0
 26 27  1  0
 27 28  2  0
 27 20  1  0
 20 21  2  0
 21 22  1  0
 22 23  2  0
 23 24  1  0
 24 25  2  0
 25 19  1  0
 19 17  1  0
 17 18  2  0
 17 16  1  0
 16  1  1  0
  1  2  1  0
  2  3  2  0
  3  4  1  0
  4  9  1  0
  9 10  1  0
 10 11  2  0
 11 12  1  0
 12 13  2  0
 13 14  1  0
 14 15  2  0
  4  5  2  0
  5  6  1  0
  6  7  2  0
  6  8  1  0
 25 20  1  0
  8  2  1  0
 15 10  1  0
 26 29  1  0
M  CHG 1   8  -1
M  CHG 1  19  -1
M  CHG 1  26  -1
M  END
> <UniqueID>
61

> <SMILES>
[NH-]C(=O)c1ccccc1[N-]C(=O)CSc1nc(Cc2ccccc2)cc(=O)[n-]1

> <Energy>
46.17402602077896

> <Genealogy>
[NH-]C(=O)c1ccccc1[N-]C(=O)CSc1nc(Cc2ccccc2)cc(=O)[n-]1 (protonated)
[NH-]C(=O)c1ccccc1[N-]C(=O)CSc1nc(Cc2ccccc2)cc(=O)[n-]1 (3D coordinates assigned)
[NH-]C(=O)c1ccccc1[N-]C(=O)CSc1nc(Cc2ccccc2)cc(=O)[n-]1 (optimized conformer: 46.17402602077896 kcal/mol)

> <smiles>
NC(=O)c1ccccc1NC(=O)CSc1nc(Cc2ccccc2)cc(=O)[nH]1

> <score_type>
oracle

> <origin>
adg

> <m_score__min__energy>
-15.48

> <m_primary>
energy

> <minimizedAffinity>
-8.07898

> <minimizedRMSD>
1.73276

> <CNNscore>
0.7794061899

> <CNNaffinity>
7.1549758911

> <CNN_VS>
5.5766324997

> <CNNaffinity_variance>
0.0833629072

$$$$
71:0


 23 25  0  0  0  0  0  0  0  0999 V2000
   58.5845   27.4105   44.8493 C   0  0  0  0  0  0  0  0  0  0  0  0
   59.6122   28.2613   45.2969 C   0  0  0  0  0  0  0  0  0  0  0  0
   60.4867   27.8518   46.3037 C   0  0  0  0  0  0  0  0  0  0  0  0
   60.3398   26.5954   46.8914 C   0  0  0  0  0  0  0  0  0  0  0  0
   59.3207   25.7415   46.4687 C   0  0  0  0  0  0  0  0  0  0  0  0
   58.4437   26.1300   45.4440 C   0  0  0  0  0  0  0  0  0  0  0  0
   57.3779   25.1936   45.0425 C   0  0  0  0  0  0  0  0  0  0  0  0
   57.4766   24.2118   44.0826 C   0  0  0  0  0  0  0  0  0  0  0  0
   56.2261   23.6313   44.0245 C   0  0  0  0  0  0  0  0  0  0  0  0
   55.8863   22.5787   43.1856 O   0  0  0  0  0  0  0  0  0  0  0  0
   55.3552   24.2068   44.8773 N   0  0  0  0  0  0  0  0  0  0  0  0
   56.0712   25.1681   45.4889 C   0  0  0  0  0  0  0  0  0  0  0  0
   55.5322   26.0355   46.4325 O   0  0  0  0  0  0  0  0  0  0  0  0
   57.6045   27.9298   43.8222 C   0  0  0  0  0  0  0  0  0  0  0  0
   56.5326   29.9984   43.3073 O   0  0  0  0  0  0  0  0  0  0  0  0
   57.2084   29.3373   44.1433 C   0  0  0  0  0  0  0  0  0  0  0  0
   57.5979   29.9064   45.4037 N   0  0  0  0  0  0  0  0  0  0  0  0
   57.9211   31.1442   45.6359 C   0  0  0  0  0  0  0  0  0  0  0  0
   57.1612   32.1757   45.1713 N   0  0  0  0  0  0  0  0  0  0  0  0
   57.4994   33.4670   45.4216 C   0  0  0  0  0  0  0  0  0  0  0  0
   58.6423   33.7534   46.1668 C   0  0  0  0  0  0  0  0  0  0  0  0
   59.4104   32.6904   46.6361 C   0  0  0  0  0  0  0  0  0  0  0  0
   59.0369   31.4121   46.3644 N   0  0  0  0  0  0  0  0  0  0  0  0
 15 16  2  0
 16 14  1  0
 14  1  1  0
  1  2  2  0
  2  3  1  0
  3  4  2  0
  4  5  1  0
  5  6  2  0
  6  7  1  0
  7  8  1  0
  8  9  2  0
  9 10  1  0
  9 11  1  0
 11 12  1  0
 12 13  1  0
 16 17  1  0
 17 18  2  0
 18 19  1  0
 19 20  2  0
 20 21  1  0
 21 22  2  0
 22 23  1  0
  6  1  1  0
 12  7  2  0
 23 18  1  0
M  CHG 1  10  -1
M  CHG 1  11  -1
M  CHG 1  13  -1
M  CHG 1  23  -1
M  END
> <UniqueID>
66

> <SMILES>
O=C(Cc1ccccc1-c1cc([O-])[n-]c1[O-])N=c1nccc[n-]1

> <Energy>
71.95744615199057

> <Genealogy>
O=C(Cc1ccccc1-c1cc([O-])[n-]c1[O-])N=c1nccc[n-]1 (protonated)
O=C(Cc1ccccc1-c1cc([O-])[n-]c1[O-])N=c1nccc[n-]1 (3D coordinates assigned)
O=C(Cc1ccccc1-c1cc([O-])[n-]c1[O-])N=c1nccc[n-]1 (optimized conformer: 71.95744615199057 kcal/mol)

> <smiles>
O=C(Cc1ccccc1-c1cc(O)[nH]c1O)N=c1nccc[nH]1

> <score_type>
oracle

> <origin>
adg

> <m_score__min__energy>
-16.640000000000001

> <m_primary>
energy

> <minimizedAffinity>
-8.00625

> <minimizedRMSD>
1.87647

> <CNNscore>
0.4593787193

> <CNNaffinity>
6.5273723602

> <CNN_VS>
2.9985358715

> <CNNaffinity_variance>
0.3796476424

$$$$
76:0


 24 26  0  0  0  0  0  0  0  0999 V2000
   54.7853   28.6560   52.7735 O   0  0  0  0  0  0  0  0  0  0  0  0
   55.0536   29.8042   52.3245 C   0  0  0  0  0  0  0  0  0  0  0  0
   56.3945   30.3299   52.4686 N   0  0  0  0  0  0  0  0  0  0  0  0
   56.7121   31.7518   52.2732 C   0  0  0  0  0  0  0  0  0  0  0  0
   58.0397   31.9330   51.5076 C   0  0  0  0  0  0  0  0  0  0  0  0
   59.0170   30.8294   51.7056 N   0  0  0  0  0  0  0  0  0  0  0  0
   58.8123   30.1178   52.9809 C   0  0  0  0  0  0  0  0  0  0  0  0
   57.4308   29.4532   53.0332 C   0  0  0  0  0  0  0  0  0  0  0  0
   53.9439   30.5802   51.6599 C   0  0  0  0  0  0  0  0  0  0  0  0
   52.7760   30.7958   52.5826 C   0  0  0  0  0  0  0  0  0  0  0  0
   52.6712   30.3001   53.8310 N   0  0  0  0  0  0  0  0  0  0  0  0
   51.4451   30.7116   54.2272 C   0  0  0  0  0  0  0  0  0  0  0  0
   50.9765   30.4487   55.3658 O   0  0  0  0  0  0  0  0  0  0  0  0
   50.7597   31.4278   53.3071 N   0  0  0  0  0  0  0  0  0  0  0  0
   51.6164   31.4675   52.2720 C   0  0  0  0  0  0  0  0  0  0  0  0
   51.3387   32.0962   51.0629 O   0  0  0  0  0  0  0  0  0  0  0  0
   59.0666   29.9038   50.5501 C   0  0  0  0  0  0  0  0  0  0  0  0
   59.9965   30.4437   49.4948 C   0  0  0  0  0  0  0  0  0  0  0  0
   61.2455   30.9638   49.8625 C   0  0  0  0  0  0  0  0  0  0  0  0
   62.0888   31.4850   48.8777 C   0  0  0  0  0  0  0  0  0  0  0  0
   61.6970   31.4910   47.5730 N   0  0  0  0  0  0  0  0  0  0  0  0
   60.4898   30.9916   47.1905 C   0  0  0  0  0  0  0  0  0  0  0  0
   59.6171   30.4592   48.1432 C   0  0  0  0  0  0  0  0  0  0  0  0
   62.3007   31.8651   46.8913 H   0  0  0  0  0  0  0  0  0  0  0  0
  1  2  2  0
  2  9  1  0
  9 10  1  0
 10 11  1  0
 11 12  1  0
 12 13  2  0
 12 14  1  0
 14 15  1  0
 15 16  1  0
  2  3  1  0
  3  4  1  0
  4  5  1  0
  5  6  1  0
  6 17  1  0
 17 18  1  0
 18 19  2  0
 19 20  1  0
 20 21  2  0
 21 22  1  0
 22 23  2  0
  6  7  1  0
  7  8  1  0
 15 10  2  0
  8  3  1  0
 23 18  1  0
 21 24  1  0
M  CHG 1  11  -1
M  CHG 1  14  -1
M  CHG 1  16  -1
M  CHG 1  21   1
M  END
> <UniqueID>
71

> <SMILES>
O=C(Cc1[n-]c(=O)[n-]c1[O-])N1CCN(Cc2cc[nH+]cc2)CC1

> <Energy>
78.63260327078365

> <Genealogy>
O=C(Cc1[n-]c(=O)[n-]c1[O-])N1CCN(Cc2cc[nH+]cc2)CC1 (protonated)
O=C(Cc1[n-]c(=O)[n-]c1[O-])N1CCN(Cc2cc[nH+]cc2)CC1 (3D coordinates assigned)
O=C(Cc1[n-]c(=O)[n-]c1[O-])N1CCN(Cc2cc[nH+]cc2)CC1 (nonaromatic ring conformer: 78.63260327078365 kcal/mol)

> <smiles>
O=C(Cc1[nH]c(=O)[nH]c1O)N1CCN(Cc2ccncc2)CC1

> <score_type>
oracle

> <origin>
adg

> <m_score__min__energy>
-14.029999999999999

> <m_primary>
energy

> <minimizedAffinity>
-5.46444

> <minimizedRMSD>
1.41544

> <CNNscore>
0.1620391756

> <CNNaffinity>
4.5728831291

> <CNN_VS>
0.7409862280

> <CNNaffinity_variance>
0.2552184165

$$$$
8:0


 33 35  0  0  0  0  0  0  0  0999 V2000
   59.0458   29.0047   47.4063 C   0  0  0  0  0  0  0  0  0  0  0  0
   59.2227   29.0577   48.7941 C   0  0  0  0  0  0  0  0  0  0  0  0
   59.2138   30.2537   49.4418 N   0  0  0  0  0  0  0  0  0  0  0  0
   59.0270   31.4251   48.7786 C   0  0  0  0  0  0  0  0  0  0  0  0
   58.8312   31.4243   47.3937 C   0  0  0  0  0  0  0  0  0  0  0  0
   58.8518   30.2055   46.7065 C   0  0  0  0  0  0  0  0  0  0  0  0
   58.5029   32.9297   46.5346 S   0  0  0  0  0  0  0  0  0  0  0  0
   59.1552   32.8615   45.1837 O   0  0  0  0  0  0  0  0  0  0  0  0
   57.0204   33.0770   46.3298 O   0  0  0  0  0  0  0  0  0  0  0  0
   59.1006   34.3353   47.3766 N   0  0  0  0  0  0  0  0  0  0  0  0
   60.4912   34.6464   47.0365 C   0  0  0  0  0  0  0  0  0  0  0  0
   61.4749   33.7890   47.7954 C   0  0  0  0  0  0  0  0  0  0  0  0
   62.2589   32.8409   47.1114 C   0  0  0  0  0  0  0  0  0  0  0  0
   63.1716   32.0434   47.8078 C   0  0  0  0  0  0  0  0  0  0  0  0
   63.3312   32.2051   49.1863 C   0  0  0  0  0  0  0  0  0  0  0  0
   62.5866   33.1710   49.8683 C   0  0  0  0  0  0  0  0  0  0  0  0
   61.6692   33.9662   49.1764 C   0  0  0  0  0  0  0  0  0  0  0  0
   58.9631   27.7282   46.7587 N   0  0  0  0  0  0  0  0  0  0  0  0
   57.8288   27.2312   46.0359 C   0  0  0  0  0  0  0  0  0  0  0  0
   57.0265   28.0428   45.4988 O   0  0  0  0  0  0  0  0  0  0  0  0
   56.1622   23.8124   45.7451 C   0  0  0  0  0  0  0  0  0  0  0  0
   57.2730   23.0045   45.4822 C   0  0  0  0  0  0  0  0  0  0  0  0
   58.5470   23.5649   45.4135 C   0  0  0  0  0  0  0  0  0  0  0  0
   58.7210   24.9379   45.6017 C   0  0  0  0  0  0  0  0  0  0  0  0
   57.6177   25.7712   45.8732 C   0  0  0  0  0  0  0  0  0  0  0  0
   56.3282   25.1942   45.9415 C   0  0  0  0  0  0  0  0  0  0  0  0
   55.2030   25.9834   46.1700 O   0  0  0  0  0  0  0  0  0  0  0  0
   53.7782   23.8284   45.0014 C   0  0  0  0  0  0  0  0  0  0  0  0
   54.8549   23.2300   45.7871 N   0  0  0  0  0  0  0  0  0  0  0  0
   54.5464   21.8723   46.8260 S   0  0  0  0  0  0  0  0  0  0  0  0
   54.4195   22.4112   48.5210 C   0  0  0  0  0  0  0  0  0  0  0  0
   55.6804   20.8884   46.7240 O   0  0  0  0  0  0  0  0  0  0  0  0
   53.2646   21.2044   46.4164 O   0  0  0  0  0  0  0  0  0  0  0  0
 28 29  1  0
 29 21  1  0
 21 22  2  0
 22 23  1  0
 23 24  2  0
 24 25  1  0
 25 19  1  0
 19 20  2  0
 19 18  1  0
 18  1  1  0
  1  2  2  0
  2  3  1  0
  3  4  2  0
  4  5  1  0
  5  7  1  0
  7  8  2  0
  7  9  2  0
  7 10  1  0
 10 11  1  0
 11 12  1  0
 12 13  2  0
 13 14  1  0
 14 15  2  0
 15 16  1  0
 16 17  2  0
  5  6  2  0
 25 26  2  0
 26 27  1  0
 29 30  1  0
 30 31  1  0
 30 32  2  0
 30 33  2  0
 26 21  1  0
  6  1  1  0
 17 12  1  0
M  CHG 1  10  -1
M  CHG 1  18  -1
M  CHG 1  27  -1
M  END
> <UniqueID>
8

> <SMILES>
CN(c1cccc(C(=O)[N-]c2cncc(S(=O)(=O)[N-]Cc3ccccc3)c2)c1[O-])S(C)(=O)=O

> <Energy>
60.77682344041453

> <Genealogy>
CN(c1cccc(C(=O)[N-]c2cncc(S(=O)(=O)[N-]Cc3ccccc3)c2)c1[O-])S(C)(=O)=O (protonated)
CN(c1cccc(C(=O)[N-]c2cncc(S(=O)(=O)[N-]Cc3ccccc3)c2)c1[O-])S(C)(=O)=O (3D coordinates assigned)
CN(c1cccc(C(=O)[N-]c2cncc(S(=O)(=O)[N-]Cc3ccccc3)c2)c1[O-])S(C)(=O)=O (optimized conformer: 60.77682344041453 kcal/mol)

> <smiles>
CN(c1cccc(C(=O)Nc2cncc(S(=O)(=O)NCc3ccccc3)c2)c1O)S(C)(=O)=O

> <score_type>
oracle

> <origin>
adg

> <m_score__min__energy>
-15.66

> <m_primary>
energy

> <minimizedAffinity>
-7.71775

> <minimizedRMSD>
1.16254

> <CNNscore>
0.2340518832

> <CNNaffinity>
6.3492598534

> <CNN_VS>
1.4860562086

> <CNNaffinity_variance>
0.0600877963

$$$$
16:0


 31 34  0  0  0  0  0  0  0  0999 V2000
   59.3899   31.1356   46.8791 C   0  0  0  0  0  0  0  0  0  0  0  0
   58.4811   32.1884   46.7054 C   0  0  0  0  0  0  0  0  0  0  0  0
   58.9138   33.5135   46.8061 C   0  0  0  0  0  0  0  0  0  0  0  0
   60.2545   33.7945   47.0830 C   0  0  0  0  0  0  0  0  0  0  0  0
   61.1688   32.7501   47.2648 C   0  0  0  0  0  0  0  0  0  0  0  0
   60.7353   31.4209   47.1574 C   0  0  0  0  0  0  0  0  0  0  0  0
   58.5208   29.7076   44.4290 C   0  0  0  0  0  0  0  0  0  0  0  0
   58.4818   29.1510   45.6495 C   0  0  0  0  0  0  0  0  0  0  0  0
   58.1485   27.8226   45.9621 C   0  0  0  0  0  0  0  0  0  0  0  0
   57.5789   26.8558   45.2174 C   0  0  0  0  0  0  0  0  0  0  0  0
   58.5075   27.6353   47.2861 C   0  0  0  0  0  0  0  0  0  0  0  0
   58.9645   28.8483   47.7547 C   0  0  0  0  0  0  0  0  0  0  0  0
   59.4340   29.0981   49.1551 C   0  0  0  0  0  0  0  0  0  0  0  0
   58.9520   29.7696   46.7631 N   0  0  0  0  0  0  0  0  0  0  0  0
   57.3179   25.4753   45.6594 C   0  0  0  0  0  0  0  0  0  0  0  0
   58.2267   24.4828   45.6498 N   0  0  0  0  0  0  0  0  0  0  0  0
   57.5040   23.3975   45.9997 C   0  0  0  0  0  0  0  0  0  0  0  0
   58.0134   22.2527   46.1182 O   0  0  0  0  0  0  0  0  0  0  0  0
   56.1899   23.6313   46.2027 N   0  0  0  0  0  0  0  0  0  0  0  0
   56.0885   24.9499   45.9695 C   0  0  0  0  0  0  0  0  0  0  0  0
   54.8934   25.6556   46.0318 O   0  0  0  0  0  0  0  0  0  0  0  0
   62.8621   33.1163   47.5906 S   0  0  0  0  0  0  0  0  0  0  0  0
   63.3702   34.0972   46.5702 O   0  0  0  0  0  0  0  0  0  0  0  0
   63.6560   31.8457   47.4663 O   0  0  0  0  0  0  0  0  0  0  0  0
   63.0142   33.7685   49.2103 N   0  0  0  0  0  0  0  0  0  0  0  0
   61.7936   33.5305   50.0048 C   0  0  0  0  0  0  0  0  0  0  0  0
   61.6540   32.0501   50.4383 C   0  0  0  0  0  0  0  0  0  0  0  0
   62.8651   31.3181   50.3529 O   0  0  0  0  0  0  0  0  0  0  0  0
   63.9365   32.0885   50.8437 C   0  0  0  0  0  0  0  0  0  0  0  0
   64.2317   33.2656   49.8948 C   0  0  0  0  0  0  0  0  0  0  0  0
   63.1228   34.7789   49.1229 H   0  0  0  0  0  0  0  0  0  0  0  0
  7  8  2  0
  8  9  1  0
  9 10  2  0
 10 15  1  0
 15 16  1  0
 16 17  1  0
 17 18  2  0
 17 19  1  0
 19 20  1  0
 20 21  1  0
  9 11  1  0
 11 12  2  0
 12 13  1  0
 12 14  1  0
 14  1  1  0
  1  2  2  0
  2  3  1  0
  3  4  2  0
  4  5  1  0
  5 22  1  0
 22 23  2  0
 22 24  2  0
 22 25  1  0
 25 26  1  0
 26 27  1  0
 27 28  1  0
 28 29  1  0
 29 30  1  0
  5  6  2  0
 14  8  1  0
  6  1  1  0
 20 15  2  0
 30 25  1  0
 25 31  1  0
M  CHG 1  16  -1
M  CHG 1  19  -1
M  CHG 1  21  -1
M  CHG 1  25   1
M  END
> <UniqueID>
14

> <SMILES>
C=c1c(=Cc2[n-]c(=O)[n-]c2[O-])cc(C)n1-c1cccc(S(=O)(=O)[NH+]2CCOCC2)c1

> <Energy>
137.8628016356485

> <Genealogy>
C=c1c(=Cc2[n-]c(=O)[n-]c2[O-])cc(C)n1-c1cccc(S(=O)(=O)[NH+]2CCOCC2)c1 (protonated)
C=c1c(=Cc2[n-]c(=O)[n-]c2[O-])cc(C)n1-c1cccc(S(=O)(=O)[NH+]2CCOCC2)c1 (3D coordinates assigned)
C=c1c(=Cc2[n-]c(=O)[n-]c2[O-])cc(C)n1-c1cccc(S(=O)(=O)[NH+]2CCOCC2)c1 (nonaromatic ring conformer: 137.8628016356485 kcal/mol)

> <smiles>
C=c1c(=Cc2[nH]c(=O)[nH]c2O)cc(C)n1-c1cccc(S(=O)(=O)N2CCOCC2)c1

> <score_type>
oracle

> <origin>
adg

> <m_score__min__energy>
-15.74

> <m_primary>
energy

> <minimizedAffinity>
-8.97034

> <minimizedRMSD>
0.92980

> <CNNscore>
0.3074814975

> <CNNaffinity>
6.8618912697

> <CNN_VS>
2.1099045277

> <CNNaffinity_variance>
0.1362651736

$$$$
36:0


 29 32  0  0  0  0  0  0  0  0999 V2000
   61.1258   30.8360   46.5548 C   0  0  0  0  0  0  0  0  0  0  0  0
   60.8207   30.0308   47.5837 C   0  0  0  0  0  0  0  0  0  0  0  0
   60.1395   28.8040   47.5250 C   0  0  0  0  0  0  0  0  0  0  0  0
   59.8365   28.0132   46.4779 C   0  0  0  0  0  0  0  0  0  0  0  0
   59.8157   28.4786   48.8330 C   0  0  0  0  0  0  0  0  0  0  0  0
   60.3726   29.4521   49.6373 C   0  0  0  0  0  0  0  0  0  0  0  0
   60.2732   29.4853   51.1313 C   0  0  0  0  0  0  0  0  0  0  0  0
   60.9862   30.3887   48.8810 N   0  0  0  0  0  0  0  0  0  0  0  0
   58.7353   27.0370   46.4380 C   0  0  0  0  0  0  0  0  0  0  0  0
   58.7417   25.8477   47.0670 N   0  0  0  0  0  0  0  0  0  0  0  0
   57.4915   25.3785   46.8601 C   0  0  0  0  0  0  0  0  0  0  0  0
   57.1081   24.2607   47.2910 O   0  0  0  0  0  0  0  0  0  0  0  0
   56.6842   26.2065   46.1631 N   0  0  0  0  0  0  0  0  0  0  0  0
   57.4827   27.2569   45.9180 C   0  0  0  0  0  0  0  0  0  0  0  0
   57.0751   28.3964   45.2361 O   0  0  0  0  0  0  0  0  0  0  0  0
   61.6404   31.5711   49.3784 C   0  0  0  0  0  0  0  0  0  0  0  0
   62.9959   31.5049   49.7391 C   0  0  0  0  0  0  0  0  0  0  0  0
   63.6413   32.6230   50.2710 C   0  0  0  0  0  0  0  0  0  0  0  0
   62.9397   33.8162   50.4491 C   0  0  0  0  0  0  0  0  0  0  0  0
   61.5938   33.8982   50.0900 C   0  0  0  0  0  0  0  0  0  0  0  0
   60.9290   32.7823   49.5496 C   0  0  0  0  0  0  0  0  0  0  0  0
   59.5103   32.9126   49.1388 C   0  0  0  0  0  0  0  0  0  0  0  0
   58.6009   32.5903   49.9494 O   0  0  0  0  0  0  0  0  0  0  0  0
   59.1584   33.3682   47.8182 N   0  0  0  0  0  0  0  0  0  0  0  0
   59.8089   34.5625   47.2612 C   0  0  0  0  0  0  0  0  0  0  0  0
   59.9584   34.4262   45.7441 C   0  0  0  0  0  0  0  0  0  0  0  0
   58.6150   34.0821   45.0938 C   0  0  0  0  0  0  0  0  0  0  0  0
   58.0303   32.8051   45.7030 C   0  0  0  0  0  0  0  0  0  0  0  0
   57.8880   32.9380   47.2224 C   0  0  0  0  0  0  0  0  0  0  0  0
  1  2  2  0
  2  3  1  0
  3  4  2  0
  4  9  1  0
  9 10  1  0
 10 11  1  0
 11 12  2  0
 11 13  1  0
 13 14  1  0
 14 15  1  0
  3  5  1  0
  5  6  2  0
  6  7  1  0
  6  8  1  0
  8 16  1  0
 16 17  2  0
 17 18  1  0
 18 19  2  0
 19 20  1  0
 20 21  2  0
 21 22  1  0
 22 23  2  0
 22 24  1  0
 24 25  1  0
 25 26  1  0
 26 27  1  0
 27 28  1  0
 28 29  1  0
  8  2  1  0
 21 16  1  0
 29 24  1  0
 14  9  2  0
M  CHG 1  10  -1
M  CHG 1  13  -1
M  CHG 1  15  -1
M  END
> <UniqueID>
31

> <SMILES>
C=c1c(=Cc2[n-]c(=O)[n-]c2[O-])cc(C)n1-c1ccccc1C(=O)N1CCCCC1

> <Energy>
127.16395989980943

> <Genealogy>
C=c1c(=Cc2[n-]c(=O)[n-]c2[O-])cc(C)n1-c1ccccc1C(=O)N1CCCCC1 (protonated)
C=c1c(=Cc2[n-]c(=O)[n-]c2[O-])cc(C)n1-c1ccccc1C(=O)N1CCCCC1 (3D coordinates assigned)
C=c1c(=Cc2[n-]c(=O)[n-]c2[O-])cc(C)n1-c1ccccc1C(=O)N1CCCCC1 (nonaromatic ring conformer: 127.16395989980943 kcal/mol)

> <smiles>
C=c1c(=Cc2[nH]c(=O)[nH]c2O)cc(C)n1-c1ccccc1C(=O)N1CCCCC1

> <score_type>
oracle

> <origin>
adg

> <m_score__min__energy>
-16.27

> <m_primary>
energy

> <minimizedAffinity>
-8.17155

> <minimizedRMSD>
1.11005

> <CNNscore>
0.3954985440

> <CNNaffinity>
6.7087912560

> <CNN_VS>
2.6533172131

> <CNNaffinity_variance>
0.0189991705

$$$$
44:0


 30 32  0  0  0  0  0  0  0  0999 V2000
   57.8402   31.1503   52.1146 C   0  0  0  0  0  0  0  0  0  0  0  0
   57.7760   31.9117   53.1158 O   0  0  0  0  0  0  0  0  0  0  0  0
   58.8007   31.4104   51.0775 N   0  0  0  0  0  0  0  0  0  0  0  0
   59.2798   32.7282   50.7669 C   0  0  0  0  0  0  0  0  0  0  0  0
   58.7961   33.7322   51.3564 O   0  0  0  0  0  0  0  0  0  0  0  0
   59.1461   30.6501   50.5560 H   0  0  0  0  0  0  0  0  0  0  0  0
   53.5304   29.9468   52.5261 C   0  0  0  0  0  0  0  0  0  0  0  0
   53.7458   29.8203   53.8981 C   0  0  0  0  0  0  0  0  0  0  0  0
   55.4076   29.7821   54.1614 S   0  0  0  0  0  0  0  0  0  0  0  0
   55.7725   29.9295   52.5309 C   0  0  0  0  0  0  0  0  0  0  0  0
   56.9852   29.9974   52.0697 N   0  0  0  0  0  0  0  0  0  0  0  0
   54.6596   30.0225   51.7710 N   0  0  0  0  0  0  0  0  0  0  0  0
   52.1695   30.0540   51.9143 C   0  0  0  0  0  0  0  0  0  0  0  0
   51.6983   32.2964   51.2381 O   0  0  0  0  0  0  0  0  0  0  0  0
   51.6138   31.4221   52.1405 C   0  0  0  0  0  0  0  0  0  0  0  0
   50.9607   31.7207   53.3286 O   0  0  0  0  0  0  0  0  0  0  0  0
   60.3401   32.9127   49.7478 C   0  0  0  0  0  0  0  0  0  0  0  0
   61.5277   33.5593   50.1292 C   0  0  0  0  0  0  0  0  0  0  0  0
   62.5596   33.7565   49.2103 C   0  0  0  0  0  0  0  0  0  0  0  0
   62.4235   33.3029   47.8998 C   0  0  0  0  0  0  0  0  0  0  0  0
   61.2557   32.6506   47.5034 C   0  0  0  0  0  0  0  0  0  0  0  0
   60.2026   32.4446   48.4132 C   0  0  0  0  0  0  0  0  0  0  0  0
   58.9704   31.7036   47.9390 C   0  0  0  0  0  0  0  0  0  0  0  0
   58.2789   32.4598   46.8954 N   0  0  0  0  0  0  0  0  0  0  0  0
   57.9880   32.0110   45.7093 C   0  0  0  0  0  0  0  0  0  0  0  0
   58.2546   32.8060   44.5872 C   0  0  0  0  0  0  0  0  0  0  0  0
   57.9413   32.3247   43.3157 C   0  0  0  0  0  0  0  0  0  0  0  0
   57.3650   31.0605   43.1726 C   0  0  0  0  0  0  0  0  0  0  0  0
   57.1060   30.2964   44.3133 C   0  0  0  0  0  0  0  0  0  0  0  0
   57.4204   30.7832   45.5433 N   0  0  0  0  0  0  0  0  0  0  0  0
 14 15  2  0
 15 16  1  0
 15 13  1  0
 13  7  1  0
  7  8  2  0
  8  9  1  0
  9 10  1  0
 10 11  2  0
 11  1  1  0
  1  2  2  0
  1  3  1  0
  3  4  1  0
  4  5  2  0
  4 17  1  0
 17 18  2  0
 18 19  1  0
 19 20  2  0
 20 21  1  0
 21 22  2  0
 22 23  1  0
 23 24  1  0
 24 25  2  0
 25 26  1  0
 26 27  2  0
 27 28  1  0
 28 29  2  0
 29 30  1  0
 10 12  1  0
 12  7  1  0
 22 17  1  0
 30 25  1  0
  3  6  1  0
M  CHG 1  12  -1
M  CHG 1  16  -1
M  CHG 1  30  -1
M  END
> <UniqueID>
38

> <SMILES>
O=C([O-])Cc1csc(=NC(=O)NC(=O)c2ccccc2CN=c2cccc[n-]2)[n-]1

> <Energy>
83.27116596193785

> <Genealogy>
O=C([O-])Cc1csc(=NC(=O)NC(=O)c2ccccc2CN=c2cccc[n-]2)[n-]1 (protonated)
O=C([O-])Cc1csc(=NC(=O)NC(=O)c2ccccc2CN=c2cccc[n-]2)[n-]1 (3D coordinates assigned)
O=C([O-])Cc1csc(=NC(=O)NC(=O)c2ccccc2CN=c2cccc[n-]2)[n-]1 (optimized conformer: 83.27116596193785 kcal/mol)

> <smiles>
O=C(O)Cc1csc(=NC(=O)NC(=O)c2ccccc2CN=c2cccc[nH]2)[nH]1

> <score_type>
oracle

> <origin>
adg

> <m_score__min__energy>
-15.1

> <m_primary>
energy

> <minimizedAffinity>
-7.80168

> <minimizedRMSD>
1.05615

> <CNNscore>
0.2718050778

> <CNNaffinity>
5.9869060516

> <CNN_VS>
1.6272714138

> <CNNaffinity_variance>
0.0352629982

$$$$
53:0


 31 33  0  0  0  0  0  0  0  0999 V2000
   60.4615   26.9526   48.8581 N   0  0  0  0  0  0  0  0  0  0  0  0
   60.3995   28.0253   49.5881 C   0  0  0  0  0  0  0  0  0  0  0  0
   61.0602   28.1801   50.7587 N   0  0  0  0  0  0  0  0  0  0  0  0
   60.8116   29.4010   51.3006 C   0  0  0  0  0  0  0  0  0  0  0  0
   61.3941   29.8016   52.4964 O   0  0  0  0  0  0  0  0  0  0  0  0
   59.9464   30.2114   50.5682 C   0  0  0  0  0  0  0  0  0  0  0  0
   59.4962   29.3796   49.1747 S   0  0  0  0  0  0  0  0  0  0  0  0
   60.7091   26.9449   47.4159 C   0  0  0  0  0  0  0  0  0  0  0  0
   59.4181   26.7002   46.6234 C   0  0  0  0  0  0  0  0  0  0  0  0
   58.0450   30.2886   44.6344 C   0  0  0  0  0  0  0  0  0  0  0  0
   59.4120   30.0827   44.8715 C   0  0  0  0  0  0  0  0  0  0  0  0
   59.8550   28.9312   45.5258 C   0  0  0  0  0  0  0  0  0  0  0  0
   58.9375   27.9578   45.9468 C   0  0  0  0  0  0  0  0  0  0  0  0
   57.5735   28.1397   45.6792 C   0  0  0  0  0  0  0  0  0  0  0  0
   57.1239   29.2880   45.0189 C   0  0  0  0  0  0  0  0  0  0  0  0
   55.7701   29.4050   44.7235 O   0  0  0  0  0  0  0  0  0  0  0  0
   57.2214   31.5438   42.6646 C   0  0  0  0  0  0  0  0  0  0  0  0
   57.6321   31.5272   43.9365 C   0  0  0  0  0  0  0  0  0  0  0  0
   57.9758   32.2692   41.6362 C   0  0  0  0  0  0  0  0  0  0  0  0
   57.3990   32.6433   40.5803 O   0  0  0  0  0  0  0  0  0  0  0  0
   59.5799   31.6268   50.8830 C   0  0  0  0  0  0  0  0  0  0  0  0
   60.0130   32.5250   49.7684 C   0  0  0  0  0  0  0  0  0  0  0  0
   60.6003   33.6088   50.0350 O   0  0  0  0  0  0  0  0  0  0  0  0
   59.7721   32.1190   48.4113 N   0  0  0  0  0  0  0  0  0  0  0  0
   59.3234   32.8572   47.4353 C   0  0  0  0  0  0  0  0  0  0  0  0
   57.9864   32.9508   47.1846 N   0  0  0  0  0  0  0  0  0  0  0  0
   57.4885   33.7154   46.1776 C   0  0  0  0  0  0  0  0  0  0  0  0
   58.3546   34.4391   45.3584 C   0  0  0  0  0  0  0  0  0  0  0  0
   59.7293   34.3677   45.5851 C   0  0  0  0  0  0  0  0  0  0  0  0
   60.2320   33.5769   46.6297 C   0  0  0  0  0  0  0  0  0  0  0  0
   61.7152   33.5035   46.8744 C   0  0  0  0  0  0  0  0  0  0  0  0
 19 20  2  0
 19 17  1  0
 17 18  2  0
 18 10  1  0
 10 11  2  0
 11 12  1  0
 12 13  2  0
 13  9  1  0
  9  8  1  0
  8  1  1  0
  1  2  2  0
  2  3  1  0
  3  4  1  0
  4  5  1  0
  4  6  2  0
  6 21  1  0
 21 22  1  0
 22 23  2  0
 22 24  1  0
 24 25  2  0
 25 26  1  0
 26 27  1  0
 27 28  2  0
 28 29  1  0
 29 30  2  0
 30 31  1  0
  6  7  1  0
 13 14  1  0
 14 15  2  0
 15 16  1  0
 15 10  1  0
  7  2  1  0
 30 25  1  0
M  CHG 1   3  -1
M  CHG 1   5  -1
M  CHG 1  16  -1
M  CHG 1  26  -1
M  END
> <UniqueID>
46

> <SMILES>
Cc1ccc[n-]c1=NC(=O)Cc1sc(=NCCc2ccc(/C=C/C=O)c([O-])c2)[n-]c1[O-]

> <Energy>
81.8237346673722

> <Genealogy>
Cc1ccc[n-]c1=NC(=O)Cc1sc(=NCCc2ccc(C=CC=O)c([O-])c2)[n-]c1[O-] (protonated)
Cc1ccc[n-]c1=NC(=O)Cc1sc(=NCCc2ccc(/C=C/C=O)c([O-])c2)[n-]c1[O-] (cis-trans isomerization)
Cc1ccc[n-]c1=NC(=O)Cc1sc(=NCCc2ccc(/C=C/C=O)c([O-])c2)[n-]c1[O-] (3D coordinates assigned)
Cc1ccc[n-]c1=NC(=O)Cc1sc(=NCCc2ccc(/C=C/C=O)c([O-])c2)[n-]c1[O-] (optimized conformer: 81.8237346673722 kcal/mol)

> <smiles>
Cc1ccc[nH]c1=NC(=O)Cc1sc(=NCCc2ccc(C=CC=O)c(O)c2)[nH]c1O

> <score_type>
oracle

> <origin>
adg

> <m_score__min__energy>
-18.27

> <m_primary>
energy

> <minimizedAffinity>
-7.20605

> <minimizedRMSD>
0.66433

> <CNNscore>
0.2685602903

> <CNNaffinity>
6.7832908630

> <CNN_VS>
1.8217225075

> <CNNaffinity_variance>
0.2249076962

$$$$
63:0


 31 33  0  0  0  0  0  0  0  0999 V2000
   58.1323   25.5553   46.4933 C   0  0  0  0  0  0  0  0  0  0  0  0
   59.7254   26.1034   46.4066 S   0  0  0  0  0  0  0  0  0  0  0  0
   59.2617   27.6798   46.0522 C   0  0  0  0  0  0  0  0  0  0  0  0
   60.0705   28.6245   45.8505 O   0  0  0  0  0  0  0  0  0  0  0  0
   57.9141   27.8147   45.9915 N   0  0  0  0  0  0  0  0  0  0  0  0
   57.2838   26.6274   46.2226 C   0  0  0  0  0  0  0  0  0  0  0  0
   55.8983   26.4991   46.1798 O   0  0  0  0  0  0  0  0  0  0  0  0
   57.7265   24.1312   46.7068 C   0  0  0  0  0  0  0  0  0  0  0  0
   59.0453   22.8250   45.2522 O   0  0  0  0  0  0  0  0  0  0  0  0
   57.9536   23.3360   45.4510 C   0  0  0  0  0  0  0  0  0  0  0  0
   56.8681   23.1894   44.4217 C   0  0  0  0  0  0  0  0  0  0  0  0
   55.5396   22.9790   45.0946 C   0  0  0  0  0  0  0  0  0  0  0  0
   54.4622   23.8384   44.8226 C   0  0  0  0  0  0  0  0  0  0  0  0
   53.2205   23.6201   45.4242 C   0  0  0  0  0  0  0  0  0  0  0  0
   53.0393   22.5405   46.2932 C   0  0  0  0  0  0  0  0  0  0  0  0
   51.8005   22.3321   46.8873 O   0  0  0  0  0  0  0  0  0  0  0  0
   54.1028   21.6703   46.5611 C   0  0  0  0  0  0  0  0  0  0  0  0
   53.9142   20.5918   47.4228 O   0  0  0  0  0  0  0  0  0  0  0  0
   55.3497   21.8881   45.9581 C   0  0  0  0  0  0  0  0  0  0  0  0
   53.0783   20.4521   47.8224 H   0  0  0  0  0  0  0  0  0  0  0  0
   57.2161   29.0554   45.6376 C   0  0  0  0  0  0  0  0  0  0  0  0
   57.5746   29.4810   44.2482 C   0  0  0  0  0  0  0  0  0  0  0  0
   57.4299   28.6730   43.2902 O   0  0  0  0  0  0  0  0  0  0  0  0
   58.0455   30.8120   44.0070 N   0  0  0  0  0  0  0  0  0  0  0  0
   57.4429   31.9999   44.5990 C   0  0  0  0  0  0  0  0  0  0  0  0
   58.4524   32.7345   45.4388 C   0  0  0  0  0  0  0  0  0  0  0  0
   59.1838   32.0436   46.4190 C   0  0  0  0  0  0  0  0  0  0  0  0
   60.1142   32.7221   47.2125 C   0  0  0  0  0  0  0  0  0  0  0  0
   60.3158   34.0940   47.0366 C   0  0  0  0  0  0  0  0  0  0  0  0
   59.5841   34.7899   46.0692 C   0  0  0  0  0  0  0  0  0  0  0  0
   58.6527   34.1148   45.2735 C   0  0  0  0  0  0  0  0  0  0  0  0
  9 10  2  0
 10 11  1  0
 11 12  1  0
 12 13  2  0
 13 14  1  0
 14 15  2  0
 15 16  1  0
 15 17  1  0
 17 18  1  0
 17 19  2  0
 10  8  1  0
  8  1  1  0
  1  2  1  0
  2  3  1  0
  3  4  2  0
  3  5  1  0
  5 21  1  0
 21 22  1  0
 22 23  2  0
 22 24  1  0
 24 25  1  0
 25 26  1  0
 26 27  2  0
 27 28  1  0
 28 29  2  0
 29 30  1  0
 30 31  2  0
  5  6  1  0
  6  7  1  0
 19 12  1  0
  6  1  2  0
 31 26  1  0
 18 20  1  0
M  CHG 1   7  -1
M  CHG 1  16  -1
M  CHG 1  24  -1
M  END
> <UniqueID>
55

> <SMILES>
O=C(Cc1ccc([O-])c(O)c1)Cc1sc(=O)n(CC(=O)[N-]Cc2ccccc2)c1[O-]

> <Energy>
72.5346506677432

> <Genealogy>
O=C(Cc1ccc([O-])c(O)c1)Cc1sc(=O)n(CC(=O)[N-]Cc2ccccc2)c1[O-] (protonated)
O=C(Cc1ccc([O-])c(O)c1)Cc1sc(=O)n(CC(=O)[N-]Cc2ccccc2)c1[O-] (3D coordinates assigned)
O=C(Cc1ccc([O-])c(O)c1)Cc1sc(=O)n(CC(=O)[N-]Cc2ccccc2)c1[O-] (optimized conformer: 72.5346506677432 kcal/mol)

> <smiles>
O=C(Cc1ccc(O)c(O)c1)Cc1sc(=O)n(CC(=O)NCc2ccccc2)c1O

> <score_type>
oracle

> <origin>
adg

> <m_score__min__energy>
-14.19

> <m_primary>
energy

> <minimizedAffinity>
-6.75001

> <minimizedRMSD>
1.70799

> <CNNscore>
0.3600022793

> <CNNaffinity>
6.1631469727

> <CNN_VS>
2.2187469006

> <CNNaffinity_variance>
0.0765927806

$$$$
70:0


 28 30  0  0  0  0  0  0  0  0999 V2000
   56.8000   27.6767   45.7360 C   0  0  0  0  0  0  0  0  0  0  0  0
   58.0847   28.1054   46.1166 C   0  0  0  0  0  0  0  0  0  0  0  0
   58.8863   27.3025   46.9386 C   0  0  0  0  0  0  0  0  0  0  0  0
   58.4128   26.0545   47.3624 C   0  0  0  0  0  0  0  0  0  0  0  0
   57.1510   25.6111   46.9614 C   0  0  0  0  0  0  0  0  0  0  0  0
   56.3481   26.4140   46.1463 C   0  0  0  0  0  0  0  0  0  0  0  0
   55.0948   25.9577   45.7540 O   0  0  0  0  0  0  0  0  0  0  0  0
   60.4876   27.8608   47.4304 S   0  0  0  0  0  0  0  0  0  0  0  0
   61.1218   28.6021   46.2879 O   0  0  0  0  0  0  0  0  0  0  0  0
   61.3517   26.6722   47.7501 O   0  0  0  0  0  0  0  0  0  0  0  0
   60.4081   28.9082   48.8267 N   0  0  0  0  0  0  0  0  0  0  0  0
   60.7572   28.1647   50.0471 C   0  0  0  0  0  0  0  0  0  0  0  0
   60.5547   29.0493   51.2945 C   0  0  0  0  0  0  0  0  0  0  0  0
   60.2095   30.3759   50.9409 O   0  0  0  0  0  0  0  0  0  0  0  0
   58.9907   30.3778   50.2204 C   0  0  0  0  0  0  0  0  0  0  0  0
   59.0655   29.4938   48.9578 C   0  0  0  0  0  0  0  0  0  0  0  0
   55.9619   28.4743   44.8863 N   0  0  0  0  0  0  0  0  0  0  0  0
   56.9240   29.3456   42.9364 O   0  0  0  0  0  0  0  0  0  0  0  0
   56.3977   29.5630   44.0619 C   0  0  0  0  0  0  0  0  0  0  0  0
   56.3235   30.9589   44.5944 C   0  0  0  0  0  0  0  0  0  0  0  0
   57.6268   31.3966   45.0854 N   0  0  0  0  0  0  0  0  0  0  0  0
   57.9025   32.6048   45.8080 C   0  0  0  0  0  0  0  0  0  0  0  0
   57.0481   33.5290   45.7798 O   0  0  0  0  0  0  0  0  0  0  0  0
   59.1612   32.8319   46.5416 C   0  0  0  0  0  0  0  0  0  0  0  0
   60.1813   31.9146   46.7693 C   0  0  0  0  0  0  0  0  0  0  0  0
   61.2156   32.4199   47.5650 C   0  0  0  0  0  0  0  0  0  0  0  0
   61.0093   33.7263   47.9851 C   0  0  0  0  0  0  0  0  0  0  0  0
   59.5344   34.2476   47.3697 S   0  0  0  0  0  0  0  0  0  0  0  0
 18 19  2  0
 19 20  1  0
 20 21  1  0
 21 22  1  0
 22 23  2  0
 22 24  1  0
 24 25  2  0
 25 26  1  0
 26 27  2  0
 27 28  1  0
 19 17  1  0
 17  1  1  0
  1  2  2  0
  2  3  1  0
  3  8  1  0
  8  9  2  0
  8 10  2  0
  8 11  1  0
 11 12  1  0
 12 13  1  0
 13 14  1  0
 14 15  1  0
 15 16  1  0
  3  4  2  0
  4  5  1  0
  5  6  2  0
  6  7  1  0
 28 24  1  0
  6  1  1  0
 16 11  1  0
M  CHG 1   7  -1
M  CHG 1  17  -1
M  CHG 1  21  -1
M  END
> <UniqueID>
61

> <SMILES>
O=C(C[N-]C(=O)c1cccs1)[N-]c1cc(S(=O)(=O)N2CCOCC2)ccc1[O-]

> <Energy>
83.80105935666167

> <Genealogy>
O=C(C[N-]C(=O)c1cccs1)[N-]c1cc(S(=O)(=O)N2CCOCC2)ccc1[O-] (protonated)
O=C(C[N-]C(=O)c1cccs1)[N-]c1cc(S(=O)(=O)N2CCOCC2)ccc1[O-] (3D coordinates assigned)
O=C(C[N-]C(=O)c1cccs1)[N-]c1cc(S(=O)(=O)N2CCOCC2)ccc1[O-] (nonaromatic ring conformer: 83.80105935666167 kcal/mol)

> <smiles>
O=C(CNC(=O)c1cccs1)Nc1cc(S(=O)(=O)N2CCOCC2)ccc1O

> <score_type>
oracle

> <origin>
adg

> <m_score__min__energy>
-15.18

> <m_primary>
energy

> <minimizedAffinity>
-3.13493

> <minimizedRMSD>
0.84471

> <CNNscore>
0.5520316958

> <CNNaffinity>
6.4551234245

> <CNN_VS>
3.5634326935

> <CNNaffinity_variance>
0.1122846976

$$$$
72:0


 30 32  0  0  0  0  0  0  0  0999 V2000
   60.2596   26.6946   46.5015 C   0  0  0  0  0  0  0  0  0  0  0  0
   59.3852   27.5666   45.9722 C   0  0  0  0  0  0  0  0  0  0  0  0
   58.3269   27.2586   45.0991 C   0  0  0  0  0  0  0  0  0  0  0  0
   57.7942   26.0753   44.7344 C   0  0  0  0  0  0  0  0  0  0  0  0
   57.8509   28.4665   44.6254 C   0  0  0  0  0  0  0  0  0  0  0  0
   58.5605   29.4569   45.2677 C   0  0  0  0  0  0  0  0  0  0  0  0
   58.3708   30.9230   45.0160 C   0  0  0  0  0  0  0  0  0  0  0  0
   59.4924   28.9201   46.0910 N   0  0  0  0  0  0  0  0  0  0  0  0
   57.1994   25.0843   45.6460 C   0  0  0  0  0  0  0  0  0  0  0  0
   57.8334   24.0077   46.1409 N   0  0  0  0  0  0  0  0  0  0  0  0
   56.9686   23.4843   47.0324 C   0  0  0  0  0  0  0  0  0  0  0  0
   57.2158   22.4486   47.7027 O   0  0  0  0  0  0  0  0  0  0  0  0
   55.8168   24.1798   47.1560 N   0  0  0  0  0  0  0  0  0  0  0  0
   55.9861   25.1937   46.2849 C   0  0  0  0  0  0  0  0  0  0  0  0
   55.0521   26.2026   46.0853 O   0  0  0  0  0  0  0  0  0  0  0  0
   58.7296   23.6755   45.9049 H   0  0  0  0  0  0  0  0  0  0  0  0
   60.4691   29.6920   46.8800 C   0  0  0  0  0  0  0  0  0  0  0  0
   59.9017   30.0549   48.2281 C   0  0  0  0  0  0  0  0  0  0  0  0
   59.3695   31.3364   48.4528 C   0  0  0  0  0  0  0  0  0  0  0  0
   58.8578   31.6785   49.7078 C   0  0  0  0  0  0  0  0  0  0  0  0
   58.8646   30.7451   50.7509 C   0  0  0  0  0  0  0  0  0  0  0  0
   59.3908   29.4660   50.5320 C   0  0  0  0  0  0  0  0  0  0  0  0
   59.9042   29.1215   49.2780 C   0  0  0  0  0  0  0  0  0  0  0  0
   58.2416   31.2020   52.3336 S   0  0  0  0  0  0  0  0  0  0  0  0
   57.3477   32.4072   52.2278 O   0  0  0  0  0  0  0  0  0  0  0  0
   59.3939   31.5373   53.2376 O   0  0  0  0  0  0  0  0  0  0  0  0
   57.3496   29.8812   53.0075 N   0  0  0  0  0  0  0  0  0  0  0  0
   55.9691   29.6584   52.7155 C   0  0  0  0  0  0  0  0  0  0  0  0
   55.1312   30.7832   52.2118 C   0  0  0  0  0  0  0  0  0  0  0  0
   55.4667   28.5095   52.8426 O   0  0  0  0  0  0  0  0  0  0  0  0
  1  2  2  0
  2  3  1  0
  3  4  2  0
  4  9  1  0
  9 10  1  0
 10 11  1  0
 11 12  2  0
 11 13  1  0
 13 14  1  0
 14 15  1  0
  3  5  1  0
  5  6  2  0
  6  7  1  0
  6  8  1  0
  8 17  1  0
 17 18  1  0
 18 19  2  0
 19 20  1  0
 20 21  2  0
 21 24  1  0
 24 25  2  0
 24 26  2  0
 24 27  1  0
 27 28  1  0
 28 29  1  0
 28 30  2  0
 21 22  1  0
 22 23  2  0
  8  2  1  0
 23 18  1  0
 14  9  2  0
 10 16  1  0
M  CHG 1  13  -1
M  CHG 1  15  -1
M  CHG 1  27  -1
M  END
> <UniqueID>
63

> <SMILES>
C=c1c(=Cc2[nH]c(=O)[n-]c2[O-])cc(C)n1Cc1ccc(S(=O)(=O)[N-]C(C)=O)cc1

> <Energy>
117.8424141066207

> <Genealogy>
C=c1c(=Cc2[nH]c(=O)[n-]c2[O-])cc(C)n1Cc1ccc(S(=O)(=O)[N-]C(C)=O)cc1 (protonated)
C=c1c(=Cc2[nH]c(=O)[n-]c2[O-])cc(C)n1Cc1ccc(S(=O)(=O)[N-]C(C)=O)cc1 (3D coordinates assigned)
C=c1c(=Cc2[nH]c(=O)[n-]c2[O-])cc(C)n1Cc1ccc(S(=O)(=O)[N-]C(C)=O)cc1 (optimized conformer: 117.8424141066207 kcal/mol)

> <smiles>
C=c1c(=Cc2[nH]c(=O)[nH]c2O)cc(C)n1Cc1ccc(S(=O)(=O)NC(C)=O)cc1

> <score_type>
oracle

> <origin>
adg

> <m_score__min__energy>
-15.57

> <m_primary>
energy

> <minimizedAffinity>
-7.00547

> <minimizedRMSD>
1.06885

> <CNNscore>
0.1586748958

> <CNNaffinity>
6.1081519127

> <CNN_VS>
0.9692103863

> <CNNaffinity_variance>
0.0259906258

$$$$
84:0


 30 33  0  0  0  0  0  0  0  0999 V2000
   59.2546   28.4435   47.5284 C   0  0  0  0  0  0  0  0  0  0  0  0
   58.7871   28.7285   46.3016 C   0  0  0  0  0  0  0  0  0  0  0  0
   58.3374   27.8128   45.3378 C   0  0  0  0  0  0  0  0  0  0  0  0
   58.4670   26.4738   45.2646 C   0  0  0  0  0  0  0  0  0  0  0  0
   57.6980   28.5597   44.3623 C   0  0  0  0  0  0  0  0  0  0  0  0
   57.8483   29.8856   44.7104 C   0  0  0  0  0  0  0  0  0  0  0  0
   57.3349   31.0391   43.9015 C   0  0  0  0  0  0  0  0  0  0  0  0
   58.5060   29.9916   45.8878 N   0  0  0  0  0  0  0  0  0  0  0  0
   57.6802   25.4974   46.0360 C   0  0  0  0  0  0  0  0  0  0  0  0
   58.1409   24.3066   46.4626 N   0  0  0  0  0  0  0  0  0  0  0  0
   57.0460   23.7201   46.9939 C   0  0  0  0  0  0  0  0  0  0  0  0
   57.0766   22.5776   47.5207 O   0  0  0  0  0  0  0  0  0  0  0  0
   55.9135   24.4508   46.9055 N   0  0  0  0  0  0  0  0  0  0  0  0
   56.3310   25.5670   46.2843 C   0  0  0  0  0  0  0  0  0  0  0  0
   55.4973   26.6267   45.9446 O   0  0  0  0  0  0  0  0  0  0  0  0
   54.5845   26.5902   46.1532 H   0  0  0  0  0  0  0  0  0  0  0  0
   58.8361   31.2185   46.5659 C   0  0  0  0  0  0  0  0  0  0  0  0
   58.9999   32.4098   45.8447 C   0  0  0  0  0  0  0  0  0  0  0  0
   59.3193   33.5941   46.5108 C   0  0  0  0  0  0  0  0  0  0  0  0
   59.4605   33.6024   47.9005 C   0  0  0  0  0  0  0  0  0  0  0  0
   59.2779   32.4221   48.6416 C   0  0  0  0  0  0  0  0  0  0  0  0
   58.9914   31.2276   47.9603 C   0  0  0  0  0  0  0  0  0  0  0  0
   59.3953   32.4474   50.1145 C   0  0  0  0  0  0  0  0  0  0  0  0
   58.4303   32.0557   50.8227 O   0  0  0  0  0  0  0  0  0  0  0  0
   60.6055   32.8589   50.7598 N   0  0  0  0  0  0  0  0  0  0  0  0
   61.9963   33.2074   50.4049 C   0  0  0  0  0  0  0  0  0  0  0  0
   62.5071   33.2767   51.8106 C   0  0  0  0  0  0  0  0  0  0  0  0
   61.0915   32.9296   52.1496 C   0  0  0  0  0  0  0  0  0  0  0  0
   63.3885   32.2177   52.1236 O   0  0  0  0  0  0  0  0  0  0  0  0
   64.5464   32.7479   52.7295 C   0  0  0  0  0  0  0  0  0  0  0  0
  1  2  2  0
  2  3  1  0
  3  4  2  0
  4  9  1  0
  9 10  1  0
 10 11  1  0
 11 12  2  0
 11 13  1  0
 13 14  1  0
 14 15  1  0
  3  5  1  0
  5  6  2  0
  6  7  1  0
  6  8  1  0
  8 17  1  0
 17 18  2  0
 18 19  1  0
 19 20  2  0
 20 21  1  0
 21 23  1  0
 23 24  2  0
 23 25  1  0
 25 26  1  0
 26 27  1  0
 27 29  1  0
 29 30  1  0
 27 28  1  0
 21 22  2  0
  8  2  1  0
 22 17  1  0
 14  9  2  0
 28 25  1  0
 15 16  1  0
M  CHG 1  10  -1
M  CHG 1  13  -1
M  END
> <UniqueID>
75

> <SMILES>
C=c1c(=Cc2[n-]c(=O)[n-]c2O)cc(C)n1-c1cccc(C(=O)N2CC(OC)C2)c1

> <Energy>
172.89082799452729

> <Genealogy>
C=c1c(=Cc2[n-]c(=O)[n-]c2O)cc(C)n1-c1cccc(C(=O)N2CC(OC)C2)c1 (protonated)
C=c1c(=Cc2[n-]c(=O)[n-]c2O)cc(C)n1-c1cccc(C(=O)N2CC(OC)C2)c1 (3D coordinates assigned)
C=c1c(=Cc2[n-]c(=O)[n-]c2O)cc(C)n1-c1cccc(C(=O)N2CC(OC)C2)c1 (nonaromatic ring conformer: 172.89082799452729 kcal/mol)

> <smiles>
C=c1c(=Cc2[nH]c(=O)[nH]c2O)cc(C)n1-c1cccc(C(=O)N2CC(OC)C2)c1

> <score_type>
oracle

> <origin>
adg

> <m_score__min__energy>
-14.26

> <m_primary>
energy

> <minimizedAffinity>
-8.86678

> <minimizedRMSD>
2.30837

> <CNNscore>
0.7058574557

> <CNNaffinity>
7.0798773766

> <CNN_VS>
4.9973840714

> <CNNaffinity_variance>
0.1983765811

$$$$
87:0


 27 30  0  0  0  0  0  0  0  0999 V2000
   59.6649   30.4522   48.2214 C   0  0  0  0  0  0  0  0  0  0  0  0
   59.2318   30.6378   46.9637 C   0  0  0  0  0  0  0  0  0  0  0  0
   59.4483   29.7763   45.8778 C   0  0  0  0  0  0  0  0  0  0  0  0
   59.8708   28.4978   45.8397 C   0  0  0  0  0  0  0  0  0  0  0  0
   59.0662   30.4737   44.7464 C   0  0  0  0  0  0  0  0  0  0  0  0
   58.5521   31.6792   45.1770 C   0  0  0  0  0  0  0  0  0  0  0  0
   57.9692   32.7212   44.2687 C   0  0  0  0  0  0  0  0  0  0  0  0
   58.6419   31.7826   46.5236 N   0  0  0  0  0  0  0  0  0  0  0  0
   58.9923   27.3151   45.8349 C   0  0  0  0  0  0  0  0  0  0  0  0
   59.3836   26.0688   46.1624 N   0  0  0  0  0  0  0  0  0  0  0  0
   58.2324   25.3646   46.1409 C   0  0  0  0  0  0  0  0  0  0  0  0
   58.1879   24.1306   46.3835 O   0  0  0  0  0  0  0  0  0  0  0  0
   57.1308   26.0887   45.8491 N   0  0  0  0  0  0  0  0  0  0  0  0
   57.6286   27.3231   45.6717 C   0  0  0  0  0  0  0  0  0  0  0  0
   56.8520   28.4357   45.3727 O   0  0  0  0  0  0  0  0  0  0  0  0
   58.0988   32.8889   47.3315 C   0  0  0  0  0  0  0  0  0  0  0  0
   59.0730   34.0767   47.3832 C   0  0  0  0  0  0  0  0  0  0  0  0
   60.1017   33.9187   48.4632 C   0  0  0  0  0  0  0  0  0  0  0  0
   59.8628   33.9087   49.8352 C   0  0  0  0  0  0  0  0  0  0  0  0
   60.9965   33.6145   50.5111 N   0  0  0  0  0  0  0  0  0  0  0  0
   61.9472   33.4279   49.5782 C   0  0  0  0  0  0  0  0  0  0  0  0
   63.2739   33.0578   49.7887 C   0  0  0  0  0  0  0  0  0  0  0  0
   64.0915   32.8727   48.6583 C   0  0  0  0  0  0  0  0  0  0  0  0
   63.5672   33.0530   47.3592 C   0  0  0  0  0  0  0  0  0  0  0  0
   62.2218   33.4211   47.1771 C   0  0  0  0  0  0  0  0  0  0  0  0
   61.4388   33.6056   48.3166 C   0  0  0  0  0  0  0  0  0  0  0  0
   61.1041   33.5500   51.4876 H   0  0  0  0  0  0  0  0  0  0  0  0
  1  2  2  0
  2  3  1  0
  3  4  2  0
  4  9  1  0
  9 10  1  0
 10 11  1  0
 11 12  2  0
 11 13  1  0
 13 14  1  0
 14 15  1  0
  3  5  1  0
  5  6  2  0
  6  7  1  0
  6  8  1  0
  8 16  1  0
 16 17  1  0
 17 18  1  0
 18 19  2  0
 19 20  1  0
 20 21  1  0
 21 22  2  0
 22 23  1  0
 23 24  2  0
 24 25  1  0
 25 26  2  0
  8  2  1  0
 26 18  1  0
 14  9  2  0
 26 21  1  0
 20 27  1  0
M  CHG 1  10  -1
M  CHG 1  13  -1
M  CHG 1  15  -1
M  END
> <UniqueID>
78

> <SMILES>
C=c1/c(=C\c2[n-]c(=O)[n-]c2[O-])cc(C)n1CCc1c[nH]c2ccccc12

> <Energy>
142.77660268469575

> <Genealogy>
C=c1c(=Cc2[n-]c(=O)[n-]c2[O-])cc(C)n1CCc1c[nH]c2ccccc12 (protonated)
C=c1/c(=C\c2[n-]c(=O)[n-]c2[O-])cc(C)n1CCc1c[nH]c2ccccc12 (cis-trans isomerization)
C=c1/c(=C\c2[n-]c(=O)[n-]c2[O-])cc(C)n1CCc1c[nH]c2ccccc12 (3D coordinates assigned)
C=c1/c(=C\c2[n-]c(=O)[n-]c2[O-])cc(C)n1CCc1c[nH]c2ccccc12 (optimized conformer: 142.77660268469575 kcal/mol)

> <smiles>
C=c1c(=Cc2[nH]c(=O)[nH]c2O)cc(C)n1CCc1c[nH]c2ccccc12

> <score_type>
oracle

> <origin>
adg

> <m_score__min__energy>
-16.399999999999999

> <m_primary>
energy

> <minimizedAffinity>
-8.09269

> <minimizedRMSD>
1.25981

> <CNNscore>
0.4656383991

> <CNNaffinity>
6.8972039223

> <CNN_VS>
3.2116029263

> <CNNaffinity_variance>
0.0577367358

$$$$
94:0


 29 31  0  0  0  0  0  0  0  0999 V2000
   60.8840   29.7957   47.6012 C   0  0  0  0  0  0  0  0  0  0  0  0
   60.1510   30.7003   46.9347 C   0  0  0  0  0  0  0  0  0  0  0  0
   59.3145   30.4785   45.8248 C   0  0  0  0  0  0  0  0  0  0  0  0
   59.0882   29.3732   45.0877 C   0  0  0  0  0  0  0  0  0  0  0  0
   58.6929   31.6880   45.5614 C   0  0  0  0  0  0  0  0  0  0  0  0
   59.1786   32.5988   46.4735 C   0  0  0  0  0  0  0  0  0  0  0  0
   58.7744   34.0402   46.5438 C   0  0  0  0  0  0  0  0  0  0  0  0
   60.0685   32.0082   47.3003 N   0  0  0  0  0  0  0  0  0  0  0  0
   58.5259   28.1033   45.5837 C   0  0  0  0  0  0  0  0  0  0  0  0
   57.1390   27.9007   45.5952 C   0  0  0  0  0  0  0  0  0  0  0  0
   56.2741   28.9059   45.1766 O   0  0  0  0  0  0  0  0  0  0  0  0
   56.6300   26.7167   46.0213 N   0  0  0  0  0  0  0  0  0  0  0  0
   57.4443   25.7068   46.4218 C   0  0  0  0  0  0  0  0  0  0  0  0
   56.9497   24.6208   46.8177 O   0  0  0  0  0  0  0  0  0  0  0  0
   58.7917   25.8660   46.3892 N   0  0  0  0  0  0  0  0  0  0  0  0
   59.3504   27.0314   45.9712 C   0  0  0  0  0  0  0  0  0  0  0  0
   60.6056   27.1387   45.9341 O   0  0  0  0  0  0  0  0  0  0  0  0
   60.7093   32.6445   48.4211 C   0  0  0  0  0  0  0  0  0  0  0  0
   61.9640   33.2507   48.2558 C   0  0  0  0  0  0  0  0  0  0  0  0
   62.5906   33.8752   49.3351 C   0  0  0  0  0  0  0  0  0  0  0  0
   61.9698   33.9031   50.5846 C   0  0  0  0  0  0  0  0  0  0  0  0
   60.7171   33.3080   50.7598 C   0  0  0  0  0  0  0  0  0  0  0  0
   60.0754   32.6773   49.6770 C   0  0  0  0  0  0  0  0  0  0  0  0
   58.8152   32.0741   49.8021 O   0  0  0  0  0  0  0  0  0  0  0  0
   58.1712   31.7884   51.0406 C   0  0  0  0  0  0  0  0  0  0  0  0
   58.2705   30.2881   51.3276 C   0  0  0  0  0  0  0  0  0  0  0  0
   57.0663   29.7988   52.0351 N   0  0  0  0  0  0  0  0  0  0  0  0
   57.4218   29.1509   53.3083 C   0  0  0  0  0  0  0  0  0  0  0  0
   56.1440   30.9154   52.2945 C   0  0  0  0  0  0  0  0  0  0  0  0
  1  2  2  0
  2  3  1  0
  3  4  2  0
  4  9  1  0
  9 10  2  0
 10 11  1  0
 10 12  1  0
 12 13  1  0
 13 14  2  0
 13 15  1  0
 15 16  1  0
 16 17  2  0
  3  5  1  0
  5  6  2  0
  6  7  1  0
  6  8  1  0
  8 18  1  0
 18 19  2  0
 19 20  1  0
 20 21  2  0
 21 22  1  0
 22 23  2  0
 23 24  1  0
 24 25  1  0
 25 26  1  0
 26 27  1  0
 27 28  1  0
 27 29  1  0
  8  2  1  0
 23 18  1  0
 16  9  1  0
M  CHG 1  11  -1
M  CHG 1  12  -1
M  CHG 1  15  -1
M  END
> <UniqueID>
85

> <SMILES>
C=c1c(=Cc2c([O-])[n-]c(=O)[n-]c2=O)cc(C)n1-c1ccccc1OCCN(C)C

> <Energy>
96.6614398672026

> <Genealogy>
C=c1c(=Cc2c([O-])[n-]c(=O)[n-]c2=O)cc(C)n1-c1ccccc1OCCN(C)C (protonated)
C=c1c(=Cc2c([O-])[n-]c(=O)[n-]c2=O)cc(C)n1-c1ccccc1OCCN(C)C (3D coordinates assigned)
C=c1c(=Cc2c([O-])[n-]c(=O)[n-]c2=O)cc(C)n1-c1ccccc1OCCN(C)C (optimized conformer: 96.6614398672026 kcal/mol)

> <smiles>
C=c1c(=Cc2c(O)[nH]c(=O)[nH]c2=O)cc(C)n1-c1ccccc1OCCN(C)C

> <score_type>
oracle

> <origin>
adg

> <m_score__min__energy>
-15.699999999999999

> <m_primary>
energy

> <minimizedAffinity>
-6.95429

> <minimizedRMSD>
1.16752

> <CNNscore>
0.4196116030

> <CNNaffinity>
6.9968848228

> <CNN_VS>
2.9359741211

> <CNNaffinity_variance>
0.2304169983

$$$$
0:0


 29 31  0  0  0  0  0  0  0  0999 V2000
   59.3624   26.1671   45.8033 C   0  0  0  0  0  0  0  0  0  0  0  0
   59.6849   27.2206   46.5789 C   0  0  0  0  0  0  0  0  0  0  0  0
   59.5148   27.2981   47.9518 C   0  0  0  0  0  0  0  0  0  0  0  0
   59.9943   28.5311   48.3402 C   0  0  0  0  0  0  0  0  0  0  0  0
   60.0554   28.9963   49.7652 C   0  0  0  0  0  0  0  0  0  0  0  0
   60.4635   29.2209   47.2724 N   0  0  0  0  0  0  0  0  0  0  0  0
   60.2813   28.4224   46.1845 C   0  0  0  0  0  0  0  0  0  0  0  0
   60.6268   28.7505   44.9282 C   0  0  0  0  0  0  0  0  0  0  0  0
   56.7911   27.5910   45.9034 O   0  0  0  0  0  0  0  0  0  0  0  0
   56.8351   26.1973   45.9395 C   0  0  0  0  0  0  0  0  0  0  0  0
   55.6629   25.5140   46.0201 N   0  0  0  0  0  0  0  0  0  0  0  0
   55.6337   24.1578   46.0171 C   0  0  0  0  0  0  0  0  0  0  0  0
   54.2053   23.3730   46.1131 S   0  0  0  0  0  0  0  0  0  0  0  0
   56.7895   23.4527   45.9212 N   0  0  0  0  0  0  0  0  0  0  0  0
   57.9903   24.0812   45.8447 C   0  0  0  0  0  0  0  0  0  0  0  0
   59.0422   23.3936   45.7601 O   0  0  0  0  0  0  0  0  0  0  0  0
   58.0514   25.4847   45.8740 C   0  0  0  0  0  0  0  0  0  0  0  0
   55.9673   28.0351   45.9488 H   0  0  0  0  0  0  0  0  0  0  0  0
   61.1013   30.5469   47.3316 C   0  0  0  0  0  0  0  0  0  0  0  0
   60.0936   31.6350   47.0604 C   0  0  0  0  0  0  0  0  0  0  0  0
   60.2483   32.9033   47.6410 C   0  0  0  0  0  0  0  0  0  0  0  0
   59.2995   33.9021   47.4103 C   0  0  0  0  0  0  0  0  0  0  0  0
   58.1945   33.6481   46.5955 C   0  0  0  0  0  0  0  0  0  0  0  0
   58.0388   32.3908   45.9868 C   0  0  0  0  0  0  0  0  0  0  0  0
   58.9826   31.3854   46.2387 C   0  0  0  0  0  0  0  0  0  0  0  0
   56.9076   32.0790   45.1602 N   0  0  0  0  0  0  0  0  0  0  0  0
   56.7554   30.9282   44.3191 C   0  0  0  0  0  0  0  0  0  0  0  0
   56.0439   29.9538   44.6800 O   0  0  0  0  0  0  0  0  0  0  0  0
   57.3551   30.9360   42.9532 C   0  0  0  0  0  0  0  0  0  0  0  0
  9 10  1  0
 10 11  1  0
 11 12  1  0
 12 13  2  0
 12 14  1  0
 14 15  1  0
 15 16  2  0
 15 17  1  0
 17  1  1  0
  1  2  2  0
  2  3  1  0
  3  4  2  0
  4  5  1  0
  4  6  1  0
  6 19  1  0
 19 20  1  0
 20 21  2  0
 21 22  1  0
 22 23  2  0
 23 24  1  0
 24 26  1  0
 26 27  1  0
 27 28  2  0
 27 29  1  0
 24 25  2  0
  6  7  1  0
  7  8  2  0
 17 10  2  0
  7  2  1  0
 25 20  1  0
  9 18  1  0
M  CHG 1  11  -1
M  CHG 1  14  -1
M  CHG 1  26  -1
M  END
> <UniqueID>
1

> <SMILES>
C=c1/c(=C/c2c(O)[n-]c(=S)[n-]c2=O)cc(C)n1Cc1cccc([N-]C(C)=O)c1

> <Energy>
87.41043441006288

> <Genealogy>
C=c1c(=Cc2c(O)[n-]c(=S)[n-]c2=O)cc(C)n1Cc1cccc([N-]C(C)=O)c1 (protonated)
C=c1/c(=C/c2c(O)[n-]c(=S)[n-]c2=O)cc(C)n1Cc1cccc([N-]C(C)=O)c1 (cis-trans isomerization)
C=c1/c(=C/c2c(O)[n-]c(=S)[n-]c2=O)cc(C)n1Cc1cccc([N-]C(C)=O)c1 (3D coordinates assigned)
C=c1/c(=C/c2c(O)[n-]c(=S)[n-]c2=O)cc(C)n1Cc1cccc([N-]C(C)=O)c1 (optimized conformer: 87.41043441006288 kcal/mol)

> <smiles>
C=c1c(=Cc2c(O)[nH]c(=S)[nH]c2=O)cc(C)n1Cc1cccc(NC(C)=O)c1

> <score_type>
oracle

> <origin>
adg

> <m_score__min__energy>
-14.859999999999999

> <m_primary>
energy

> <minimizedAffinity>
-8.67769

> <minimizedRMSD>
0.86929

> <CNNscore>
0.6099805236

> <CNNaffinity>
6.9868474007

> <CNN_VS>
4.2618408203

> <CNNaffinity_variance>
0.0605649166

$$$$
4:0


 30 33  0  0  0  0  0  0  0  0999 V2000
   59.8303   26.8827   47.0547 C   0  0  0  0  0  0  0  0  0  0  0  0
   59.0496   27.6166   46.2468 C   0  0  0  0  0  0  0  0  0  0  0  0
   58.2649   27.1607   45.1747 C   0  0  0  0  0  0  0  0  0  0  0  0
   57.9301   25.9138   44.7913 C   0  0  0  0  0  0  0  0  0  0  0  0
   57.8141   28.2930   44.5153 C   0  0  0  0  0  0  0  0  0  0  0  0
   58.2756   29.3812   45.2270 C   0  0  0  0  0  0  0  0  0  0  0  0
   57.9852   30.8127   44.8912 C   0  0  0  0  0  0  0  0  0  0  0  0
   59.0118   28.9732   46.2826 N   0  0  0  0  0  0  0  0  0  0  0  0
   57.2916   24.8967   45.6422 C   0  0  0  0  0  0  0  0  0  0  0  0
   57.9014   23.7838   46.0962 N   0  0  0  0  0  0  0  0  0  0  0  0
   56.9935   23.2554   46.9430 C   0  0  0  0  0  0  0  0  0  0  0  0
   57.1941   22.1815   47.5680 O   0  0  0  0  0  0  0  0  0  0  0  0
   55.8590   23.9755   47.0812 N   0  0  0  0  0  0  0  0  0  0  0  0
   56.0722   25.0183   46.2615 C   0  0  0  0  0  0  0  0  0  0  0  0
   55.1751   26.0646   46.0940 O   0  0  0  0  0  0  0  0  0  0  0  0
   59.7045   29.8420   47.1931 C   0  0  0  0  0  0  0  0  0  0  0  0
   59.1387   30.1508   48.4361 C   0  0  0  0  0  0  0  0  0  0  0  0
   59.7940   31.0219   49.3094 C   0  0  0  0  0  0  0  0  0  0  0  0
   61.0120   31.6164   48.9382 C   0  0  0  0  0  0  0  0  0  0  0  0
   61.5822   31.2942   47.6944 C   0  0  0  0  0  0  0  0  0  0  0  0
   60.9301   30.4121   46.8271 C   0  0  0  0  0  0  0  0  0  0  0  0
   61.6800   32.5642   49.8585 C   0  0  0  0  0  0  0  0  0  0  0  0
   61.2223   33.7357   49.9606 O   0  0  0  0  0  0  0  0  0  0  0  0
   62.8714   32.1873   50.5928 N   0  0  0  0  0  0  0  0  0  0  0  0
   64.0671   32.3120   49.7347 C   0  0  0  0  0  0  0  0  0  0  0  0
   65.3613   32.1070   50.5479 C   0  0  0  0  0  0  0  0  0  0  0  0
   65.1437   31.2436   51.8045 C   0  0  0  0  0  0  0  0  0  0  0  0
   64.0661   30.1833   51.5685 C   0  0  0  0  0  0  0  0  0  0  0  0
   62.7228   30.8079   51.1194 C   0  0  0  0  0  0  0  0  0  0  0  0
   62.6081   32.5994   51.4472 H   0  0  0  0  0  0  0  0  0  0  0  0
  1  2  2  0
  2  3  1  0
  3  4  2  0
  4  9  1  0
  9 10  1  0
 10 11  1  0
 11 12  2  0
 11 13  1  0
 13 14  1  0
 14 15  1  0
  3  5  1  0
  5  6  2  0
  6  7  1  0
  6  8  1  0
  8 16  1  0
 16 17  2  0
 17 18  1  0
 18 19  2  0
 19 22  1  0
 22 23  2  0
 22 24  1  0
 24 25  1  0
 25 26  1  0
 26 27  1  0
 27 28  1  0
 28 29  1  0
 19 20  1  0
 20 21  2  0
  8  2  1  0
 21 16  1  0
 14  9  2  0
 29 24  1  0
 24 30  1  0
M  CHG 1  10  -1
M  CHG 1  13  -1
M  CHG 1  15  -1
M  CHG 1  24   1
M  END
> <UniqueID>
4

> <SMILES>
C=c1/c(=C\c2[n-]c(=O)[n-]c2[O-])cc(C)n1-c1ccc(C(=O)[NH+]2CCCCC2)cc1

> <Energy>
139.84557812570006

> <Genealogy>
C=c1c(=Cc2[n-]c(=O)[n-]c2[O-])cc(C)n1-c1ccc(C(=O)[NH+]2CCCCC2)cc1 (protonated)
C=c1/c(=C\c2[n-]c(=O)[n-]c2[O-])cc(C)n1-c1ccc(C(=O)[NH+]2CCCCC2)cc1 (cis-trans isomerization)
C=c1/c(=C\c2[n-]c(=O)[n-]c2[O-])cc(C)n1-c1ccc(C(=O)[NH+]2CCCCC2)cc1 (3D coordinates assigned)
C=c1/c(=C\c2[n-]c(=O)[n-]c2[O-])cc(C)n1-c1ccc(C(=O)[NH+]2CCCCC2)cc1 (nonaromatic ring conformer: 139.84557812570006 kcal/mol)

> <smiles>
C=c1c(=Cc2[nH]c(=O)[nH]c2O)cc(C)n1-c1ccc(C(=O)N2CCCCC2)cc1

> <score_type>
oracle

> <origin>
adg

> <m_score__min__energy>
-14.970000000000001

> <m_primary>
energy

> <minimizedAffinity>
-8.69965

> <minimizedRMSD>
1.00302

> <CNNscore>
0.1758944243

> <CNNaffinity>
6.4753108025

> <CNN_VS>
1.1389710903

> <CNNaffinity_variance>
0.0911446810

$$$$
7:0


 36 39  0  0  0  0  0  0  0  0999 V2000
   55.2009   29.6050   44.7581 O   0  0  0  0  0  0  0  0  0  0  0  0
   56.4034   29.2691   44.5895 C   0  0  0  0  0  0  0  0  0  0  0  0
   57.0250   29.4557   43.2293 C   0  0  0  0  0  0  0  0  0  0  0  0
   56.9187   30.8397   42.7818 N   0  0  0  0  0  0  0  0  0  0  0  0
   57.8119   31.9055   43.1215 C   0  0  0  0  0  0  0  0  0  0  0  0
   58.2889   32.6151   42.2012 O   0  0  0  0  0  0  0  0  0  0  0  0
   58.1839   32.2106   44.5102 C   0  0  0  0  0  0  0  0  0  0  0  0
   58.8795   31.2692   45.2825 C   0  0  0  0  0  0  0  0  0  0  0  0
   59.3249   31.6020   46.5670 C   0  0  0  0  0  0  0  0  0  0  0  0
   59.1040   32.8872   47.0801 C   0  0  0  0  0  0  0  0  0  0  0  0
   58.4065   33.8265   46.3076 C   0  0  0  0  0  0  0  0  0  0  0  0
   57.9501   33.4913   45.0296 C   0  0  0  0  0  0  0  0  0  0  0  0
   59.8199   33.3603   48.6254 S   0  0  0  0  0  0  0  0  0  0  0  0
   59.2691   34.7052   49.0272 O   0  0  0  0  0  0  0  0  0  0  0  0
   59.4021   32.3564   49.6707 O   0  0  0  0  0  0  0  0  0  0  0  0
   61.5678   33.4575   48.5871 N   0  0  0  0  0  0  0  0  0  0  0  0
   62.1918   32.2852   49.1914 C   0  0  0  0  0  0  0  0  0  0  0  0
   63.6001   32.2168   48.6149 C   0  0  0  0  0  0  0  0  0  0  0  0
   63.5425   33.0338   47.3286 C   0  0  0  0  0  0  0  0  0  0  0  0
   62.0972   33.5098   47.2313 C   0  0  0  0  0  0  0  0  0  0  0  0
   57.1745   28.9027   45.7433 N   0  0  0  0  0  0  0  0  0  0  0  0
   57.8132   27.6454   46.0051 C   0  0  0  0  0  0  0  0  0  0  0  0
   59.2137   27.5084   46.0005 C   0  0  0  0  0  0  0  0  0  0  0  0
   59.8047   26.2663   46.2334 C   0  0  0  0  0  0  0  0  0  0  0  0
   59.0054   25.1410   46.4330 C   0  0  0  0  0  0  0  0  0  0  0  0
   57.6076   25.2538   46.3932 C   0  0  0  0  0  0  0  0  0  0  0  0
   57.0149   26.5073   46.1740 C   0  0  0  0  0  0  0  0  0  0  0  0
   56.6059   23.8226   46.5920 S   0  0  0  0  0  0  0  0  0  0  0  0
   55.2096   24.2490   46.9378 O   0  0  0  0  0  0  0  0  0  0  0  0
   57.1407   23.0055   47.7310 O   0  0  0  0  0  0  0  0  0  0  0  0
   56.5703   22.8444   45.1527 N   0  0  0  0  0  0  0  0  0  0  0  0
   57.9062   22.2967   44.8657 C   0  0  0  0  0  0  0  0  0  0  0  0
   57.9217   21.6098   43.4811 C   0  0  0  0  0  0  0  0  0  0  0  0
   56.6064   21.4406   42.9835 O   0  0  0  0  0  0  0  0  0  0  0  0
   56.0062   22.7087   42.7636 C   0  0  0  0  0  0  0  0  0  0  0  0
   56.0902   23.6219   44.0048 C   0  0  0  0  0  0  0  0  0  0  0  0
  1  2  2  0
  2  3  1  0
  3  4  1  0
  4  5  1  0
  5  6  2  0
  5  7  1  0
  7  8  2  0
  8  9  1  0
  9 10  2  0
 10 13  1  0
 13 14  2  0
 13 15  2  0
 13 16  1  0
 16 17  1  0
 17 18  1  0
 18 19  1  0
 19 20  1  0
 10 11  1  0
 11 12  2  0
  2 21  1  0
 21 22  1  0
 22 23  2  0
 23 24  1  0
 24 25  2  0
 25 26  1  0
 26 28  1  0
 28 29  2  0
 28 30  2  0
 28 31  1  0
 31 32  1  0
 32 33  1  0
 33 34  1  0
 34 35  1  0
 35 36  1  0
 26 27  2  0
 12  7  1  0
 27 22  1  0
 20 16  1  0
 36 31  1  0
M  CHG 1   4  -1
M  CHG 1  21  -1
M  END
> <UniqueID>
7

> <SMILES>
O=C(C[N-]C(=O)c1ccc(S(=O)(=O)N2CCCC2)cc1)[N-]c1cccc(S(=O)(=O)N2CCOCC2)c1

> <Energy>
79.64311835218008

> <Genealogy>
O=C(C[N-]C(=O)c1ccc(S(=O)(=O)N2CCCC2)cc1)[N-]c1cccc(S(=O)(=O)N2CCOCC2)c1 (protonated)
O=C(C[N-]C(=O)c1ccc(S(=O)(=O)N2CCCC2)cc1)[N-]c1cccc(S(=O)(=O)N2CCOCC2)c1 (3D coordinates assigned)
O=C(C[N-]C(=O)c1ccc(S(=O)(=O)N2CCCC2)cc1)[N-]c1cccc(S(=O)(=O)N2CCOCC2)c1 (nonaromatic ring conformer: 79.64311835218008 kcal/mol)

> <smiles>
O=C(CNC(=O)c1ccc(S(=O)(=O)N2CCCC2)cc1)Nc1cccc(S(=O)(=O)N2CCOCC2)c1

> <score_type>
oracle

> <origin>
adg

> <m_score__min__energy>
-15.24

> <m_primary>
energy

> <minimizedAffinity>
-7.13729

> <minimizedRMSD>
0.37207

> <CNNscore>
0.6725513935

> <CNNaffinity>
7.2479033470

> <CNN_VS>
4.8745875359

> <CNNaffinity_variance>
0.0343393721

$$$$
12:0


 35 39  0  0  0  0  0  0  0  0999 V2000
   58.9580   32.1628   46.6631 C   0  0  0  0  0  0  0  0  0  0  0  0
   59.0718   33.3719   45.9549 C   0  0  0  0  0  0  0  0  0  0  0  0
   59.5018   34.5316   46.6009 C   0  0  0  0  0  0  0  0  0  0  0  0
   59.8399   34.4984   47.9556 C   0  0  0  0  0  0  0  0  0  0  0  0
   59.7649   33.2952   48.6733 C   0  0  0  0  0  0  0  0  0  0  0  0
   59.3067   32.1348   48.0241 C   0  0  0  0  0  0  0  0  0  0  0  0
   58.1324   28.6683   45.6054 N   0  0  0  0  0  0  0  0  0  0  0  0
   57.2756   29.3924   44.6694 C   0  0  0  0  0  0  0  0  0  0  0  0
   57.5299   30.8970   44.9327 C   0  0  0  0  0  0  0  0  0  0  0  0
   58.5236   30.9573   46.0021 N   0  0  0  0  0  0  0  0  0  0  0  0
   58.8740   29.6266   46.3389 C   0  0  0  0  0  0  0  0  0  0  0  0
   59.8230   29.3309   47.1126 O   0  0  0  0  0  0  0  0  0  0  0  0
   56.9296   25.1182   45.9405 C   0  0  0  0  0  0  0  0  0  0  0  0
   58.1430   24.4487   46.1440 C   0  0  0  0  0  0  0  0  0  0  0  0
   59.3417   25.1635   46.1715 C   0  0  0  0  0  0  0  0  0  0  0  0
   59.3369   26.5497   45.9971 C   0  0  0  0  0  0  0  0  0  0  0  0
   58.1295   27.2396   45.7998 C   0  0  0  0  0  0  0  0  0  0  0  0
   56.9269   26.5079   45.7584 C   0  0  0  0  0  0  0  0  0  0  0  0
   54.1068   25.3185   45.6122 N   0  0  0  0  0  0  0  0  0  0  0  0
   55.4164   24.2215   45.8739 S   0  0  0  0  0  0  0  0  0  0  0  0
   55.4592   23.2212   44.7532 O   0  0  0  0  0  0  0  0  0  0  0  0
   55.2063   23.4868   47.1677 O   0  0  0  0  0  0  0  0  0  0  0  0
   53.2302   24.7985   45.5737 H   0  0  0  0  0  0  0  0  0  0  0  0
   60.1271   33.2573   50.1384 C   0  0  0  0  0  0  0  0  0  0  0  0
   59.3931   32.1559   50.8610 C   0  0  0  0  0  0  0  0  0  0  0  0
   58.0486   32.2846   51.0252 N   0  0  0  0  0  0  0  0  0  0  0  0
   57.3156   31.3517   51.6329 N   0  0  0  0  0  0  0  0  0  0  0  0
   57.8719   30.2139   52.1160 C   0  0  0  0  0  0  0  0  0  0  0  0
   57.1421   29.3661   52.6951 O   0  0  0  0  0  0  0  0  0  0  0  0
   59.2486   30.0000   51.9644 C   0  0  0  0  0  0  0  0  0  0  0  0
   60.0275   30.9838   51.3322 C   0  0  0  0  0  0  0  0  0  0  0  0
   61.5176   30.7400   51.2445 C   0  0  0  0  0  0  0  0  0  0  0  0
   61.8016   29.3046   50.7770 C   0  0  0  0  0  0  0  0  0  0  0  0
   60.9633   28.2213   51.5030 C   0  0  0  0  0  0  0  0  0  0  0  0
   59.9402   28.7734   52.5112 C   0  0  0  0  0  0  0  0  0  0  0  0
 19 20  1  0
 20 21  2  0
 20 22  2  0
 20 13  1  0
 13 14  2  0
 14 15  1  0
 15 16  2  0
 16 17  1  0
 17  7  1  0
  7  8  1  0
  8  9  1  0
  9 10  1  0
 10  1  1  0
  1  2  2  0
  2  3  1  0
  3  4  2  0
  4  5  1  0
  5 24  1  0
 24 25  1  0
 25 26  2  0
 26 27  1  0
 27 28  1  0
 28 29  2  0
 28 30  1  0
 30 31  2  0
 31 32  1  0
 32 33  1  0
 33 34  1  0
 34 35  1  0
  5  6  2  0
 10 11  1  0
 11 12  2  0
 17 18  2  0
 18 13  1  0
 11  7  1  0
  6  1  1  0
 31 25  1  0
 35 30  1  0
 19 23  1  0
M  CHG 1  19  -1
M  CHG 1  27  -1
M  END
> <UniqueID>
12

> <SMILES>
[NH-]S(=O)(=O)c1cccc(N2CCN(c3cccc(Cc4n[n-]c(=O)c5c4CCCC5)c3)C2=O)c1

> <Energy>
89.85826815541607

> <Genealogy>
[NH-]S(=O)(=O)c1cccc(N2CCN(c3cccc(Cc4n[n-]c(=O)c5c4CCCC5)c3)C2=O)c1 (protonated)
[NH-]S(=O)(=O)c1cccc(N2CCN(c3cccc(Cc4n[n-]c(=O)c5c4CCCC5)c3)C2=O)c1 (3D coordinates assigned)
[NH-]S(=O)(=O)c1cccc(N2CCN(c3cccc(Cc4n[n-]c(=O)c5c4CCCC5)c3)C2=O)c1 (nonaromatic ring conformer: 89.85826815541607 kcal/mol)

> <smiles>
NS(=O)(=O)c1cccc(N2CCN(c3cccc(Cc4n[nH]c(=O)c5c4CCCC5)c3)C2=O)c1

> <score_type>
oracle

> <origin>
adg

> <m_score__min__energy>
-14.43

> <m_primary>
energy

> <minimizedAffinity>
-9.37816

> <minimizedRMSD>
0.69274

> <CNNscore>
0.5618146062

> <CNNaffinity>
7.2626814842

> <CNN_VS>
4.0802803040

> <CNNaffinity_variance>
0.0480072238

$$$$
47:0


 33 36  0  0  0  0  0  0  0  0999 V2000
   61.8460   30.3072   48.8064 O   0  0  0  0  0  0  0  0  0  0  0  0
   60.8400   30.6776   48.1424 C   0  0  0  0  0  0  0  0  0  0  0  0
   60.3929   32.0406   48.2435 N   0  0  0  0  0  0  0  0  0  0  0  0
   59.2995   32.3708   49.1721 C   0  0  0  0  0  0  0  0  0  0  0  0
   57.9419   32.4032   48.4555 C   0  0  0  0  0  0  0  0  0  0  0  0
   57.8907   33.3543   47.2511 C   0  0  0  0  0  0  0  0  0  0  0  0
   58.6987   32.8463   46.1316 N   0  0  0  0  0  0  0  0  0  0  0  0
   60.1354   33.1558   45.9852 C   0  0  0  0  0  0  0  0  0  0  0  0
   60.9469   33.0189   47.2881 C   0  0  0  0  0  0  0  0  0  0  0  0
   58.0631   32.0501   45.1154 C   0  0  0  0  0  0  0  0  0  0  0  0
   58.3591   32.2669   43.7610 C   0  0  0  0  0  0  0  0  0  0  0  0
   57.7367   31.4994   42.7719 C   0  0  0  0  0  0  0  0  0  0  0  0
   56.8156   30.5108   43.1270 C   0  0  0  0  0  0  0  0  0  0  0  0
   56.5122   30.2850   44.4736 C   0  0  0  0  0  0  0  0  0  0  0  0
   55.5938   29.2938   44.8137 O   0  0  0  0  0  0  0  0  0  0  0  0
   57.1344   31.0534   45.4666 C   0  0  0  0  0  0  0  0  0  0  0  0
   55.1831   28.7853   44.1423 H   0  0  0  0  0  0  0  0  0  0  0  0
   60.1429   29.6982   47.2843 C   0  0  0  0  0  0  0  0  0  0  0  0
   60.5116   29.5088   45.9434 C   0  0  0  0  0  0  0  0  0  0  0  0
   59.8200   28.5789   45.1654 C   0  0  0  0  0  0  0  0  0  0  0  0
   58.7646   27.8436   45.7197 C   0  0  0  0  0  0  0  0  0  0  0  0
   58.4115   28.0784   47.0568 C   0  0  0  0  0  0  0  0  0  0  0  0
   59.0992   28.9884   47.7965 N   0  0  0  0  0  0  0  0  0  0  0  0
   57.9959   26.8528   44.8852 C   0  0  0  0  0  0  0  0  0  0  0  0
   57.5458   25.6808   45.7273 C   0  0  0  0  0  0  0  0  0  0  0  0
   56.2390   25.6148   46.2456 C   0  0  0  0  0  0  0  0  0  0  0  0
   55.3298   26.6413   46.0190 O   0  0  0  0  0  0  0  0  0  0  0  0
   55.8533   24.5405   46.9811 N   0  0  0  0  0  0  0  0  0  0  0  0
   56.7062   23.5138   47.2247 C   0  0  0  0  0  0  0  0  0  0  0  0
   56.3242   22.5280   47.9090 O   0  0  0  0  0  0  0  0  0  0  0  0
   57.9697   23.5474   46.7309 N   0  0  0  0  0  0  0  0  0  0  0  0
   58.4076   24.5986   45.9900 C   0  0  0  0  0  0  0  0  0  0  0  0
   59.5864   24.5893   45.5460 O   0  0  0  0  0  0  0  0  0  0  0  0
  1  2  2  0
  2 18  1  0
 18 19  2  0
 19 20  1  0
 20 21  2  0
 21 24  1  0
 24 25  1  0
 25 26  2  0
 26 27  1  0
 26 28  1  0
 28 29  1  0
 29 30  2  0
 29 31  1  0
 31 32  1  0
 32 33  2  0
 21 22  1  0
 22 23  2  0
  2  3  1  0
  3  4  1  0
  4  5  1  0
  5  6  1  0
  6  7  1  0
  7 10  1  0
 10 11  2  0
 11 12  1  0
 12 13  2  0
 13 14  1  0
 14 15  1  0
 14 16  2  0
  7  8  1  0
  8  9  1  0
 23 18  1  0
  9  3  1  0
 32 25  1  0
 16 10  1  0
 15 17  1  0
M  CHG 1  27  -1
M  CHG 1  28  -1
M  CHG 1  31  -1
M  END
> <UniqueID>
44

> <SMILES>
O=C(c1ccc(Cc2c([O-])[n-]c(=O)[n-]c2=O)cn1)N1CCCN(c2cccc(O)c2)CC1

> <Energy>
70.78858553163738

> <Genealogy>
O=C(c1ccc(Cc2c([O-])[n-]c(=O)[n-]c2=O)cn1)N1CCCN(c2cccc(O)c2)CC1 (protonated)
O=C(c1ccc(Cc2c([O-])[n-]c(=O)[n-]c2=O)cn1)N1CCCN(c2cccc(O)c2)CC1 (3D coordinates assigned)
O=C(c1ccc(Cc2c([O-])[n-]c(=O)[n-]c2=O)cn1)N1CCCN(c2cccc(O)c2)CC1 (nonaromatic ring conformer: 70.78858553163738 kcal/mol)

> <smiles>
O=C(c1ccc(Cc2c(O)[nH]c(=O)[nH]c2=O)cn1)N1CCCN(c2cccc(O)c2)CC1

> <score_type>
oracle

> <origin>
adg

> <m_score__min__energy>
-14.48

> <m_primary>
energy

> <minimizedAffinity>
-7.12065

> <minimizedRMSD>
0.57444

> <CNNscore>
0.3404021859

> <CNNaffinity>
6.6224808693

> <CNN_VS>
2.2543070316

> <CNNaffinity_variance>
0.0651762709

$$$$
56:0


 34 37  0  0  0  0  0  0  0  0999 V2000
   59.5221   29.5628   50.9427 O   0  0  0  0  0  0  0  0  0  0  0  0
   59.5112   29.9003   49.7265 C   0  0  0  0  0  0  0  0  0  0  0  0
   60.4824   29.2379   48.7791 C   0  0  0  0  0  0  0  0  0  0  0  0
   59.8515   28.4457   47.7012 N   0  0  0  0  0  0  0  0  0  0  0  0
   60.1440   26.9924   47.7851 C   0  0  0  0  0  0  0  0  0  0  0  0
   60.0398   26.2759   46.4259 C   0  0  0  0  0  0  0  0  0  0  0  0
   59.0072   26.9021   45.5881 N   0  0  0  0  0  0  0  0  0  0  0  0
   58.1224   26.0987   44.7851 C   0  0  0  0  0  0  0  0  0  0  0  0
   57.8600   26.4583   43.6049 O   0  0  0  0  0  0  0  0  0  0  0  0
   59.0175   28.3584   45.3984 C   0  0  0  0  0  0  0  0  0  0  0  0
   60.0063   29.0295   46.3552 C   0  0  0  0  0  0  0  0  0  0  0  0
   57.4760   24.8805   45.3315 C   0  0  0  0  0  0  0  0  0  0  0  0
   58.0958   23.6275   45.1735 C   0  0  0  0  0  0  0  0  0  0  0  0
   57.5133   22.4748   45.7105 C   0  0  0  0  0  0  0  0  0  0  0  0
   56.3064   22.5610   46.4101 C   0  0  0  0  0  0  0  0  0  0  0  0
   55.6790   23.7999   46.5720 C   0  0  0  0  0  0  0  0  0  0  0  0
   56.2570   24.9586   46.0395 C   0  0  0  0  0  0  0  0  0  0  0  0
   55.6015   26.1783   46.2005 O   0  0  0  0  0  0  0  0  0  0  0  0
   58.6249   30.9344   49.2794 N   0  0  0  0  0  0  0  0  0  0  0  0
   59.0697   32.0938   48.5657 C   0  0  0  0  0  0  0  0  0  0  0  0
   58.8829   32.1360   47.1787 C   0  0  0  0  0  0  0  0  0  0  0  0
   59.2241   33.2797   46.4530 C   0  0  0  0  0  0  0  0  0  0  0  0
   59.7595   34.3889   47.1095 C   0  0  0  0  0  0  0  0  0  0  0  0
   59.9769   34.3491   48.4906 C   0  0  0  0  0  0  0  0  0  0  0  0
   59.6563   33.1987   49.2320 C   0  0  0  0  0  0  0  0  0  0  0  0
   59.9961   33.1477   50.6716 C   0  0  0  0  0  0  0  0  0  0  0  0
   59.0829   33.2247   51.5390 O   0  0  0  0  0  0  0  0  0  0  0  0
   61.3655   33.0613   51.0788 N   0  0  0  0  0  0  0  0  0  0  0  0
   62.2858   32.0447   50.5893 C   0  0  0  0  0  0  0  0  0  0  0  0
   62.7764   32.4440   49.2353 C   0  0  0  0  0  0  0  0  0  0  0  0
   62.7176   31.6768   48.0892 C   0  0  0  0  0  0  0  0  0  0  0  0
   63.2326   32.4719   47.0851 C   0  0  0  0  0  0  0  0  0  0  0  0
   63.5769   33.6693   47.6805 C   0  0  0  0  0  0  0  0  0  0  0  0
   63.2890   33.6233   48.9622 O   0  0  0  0  0  0  0  0  0  0  0  0
  1  2  2  0
  2  3  1  0
  3  4  1  0
  4  5  1  0
  5  6  1  0
  6  7  1  0
  7  8  1  0
  8  9  2  0
  8 12  1  0
 12 13  2  0
 13 14  1  0
 14 15  2  0
 15 16  1  0
 16 17  2  0
 17 18  1  0
  7 10  1  0
 10 11  1  0
  2 19  1  0
 19 20  1  0
 20 21  2  0
 21 22  1  0
 22 23  2  0
 23 24  1  0
 24 25  2  0
 25 26  1  0
 26 27  2  0
 26 28  1  0
 28 29  1  0
 29 30  1  0
 30 31  2  0
 31 32  1  0
 32 33  2  0
 33 34  1  0
 11  4  1  0
 25 20  1  0
 34 30  1  0
 17 12  1  0
M  CHG 1  18  -1
M  CHG 1  19  -1
M  CHG 1  28  -1
M  END
> <UniqueID>
53

> <SMILES>
O=C(CN1CCN(C(=O)c2ccccc2[O-])CC1)[N-]c1ccccc1C(=O)[N-]Cc1ccco1

> <Energy>
105.08049062258898

> <Genealogy>
O=C(CN1CCN(C(=O)c2ccccc2[O-])CC1)[N-]c1ccccc1C(=O)[N-]Cc1ccco1 (protonated)
O=C(CN1CCN(C(=O)c2ccccc2[O-])CC1)[N-]c1ccccc1C(=O)[N-]Cc1ccco1 (3D coordinates assigned)
O=C(CN1CCN(C(=O)c2ccccc2[O-])CC1)[N-]c1ccccc1C(=O)[N-]Cc1ccco1 (nonaromatic ring conformer: 105.08049062258898 kcal/mol)

> <smiles>
O=C(CN1CCN(C(=O)c2ccccc2O)CC1)Nc1ccccc1C(=O)NCc1ccco1

> <score_type>
oracle

> <origin>
adg

> <m_score__min__energy>
-15.220000000000001

> <m_primary>
energy

> <minimizedAffinity>
-7.59654

> <minimizedRMSD>
0.75564

> <CNNscore>
0.1852052212

> <CNNaffinity>
6.2132048607

> <CNN_VS>
1.1507179737

> <CNNaffinity_variance>
0.1246367469

$$$$
82:0


 22 23  0  0  0  0  0  0  0  0999 V2000
   60.0558   28.0089   48.8249 C   0  0  0  0  0  0  0  0  0  0  0  0
   59.0164   27.8026   49.5077 O   0  0  0  0  0  0  0  0  0  0  0  0
   60.7625   29.2571   48.9125 N   0  0  0  0  0  0  0  0  0  0  0  0
   60.5024   30.3616   48.2761 C   0  0  0  0  0  0  0  0  0  0  0  0
   61.4332   30.9898   47.5263 N   0  0  0  0  0  0  0  0  0  0  0  0
   60.9847   32.1095   46.9599 N   0  0  0  0  0  0  0  0  0  0  0  0
   59.6949   32.3755   47.2557 C   0  0  0  0  0  0  0  0  0  0  0  0
   59.0333   31.2026   48.2672 S   0  0  0  0  0  0  0  0  0  0  0  0
   58.8308   33.7792   46.6656 S   0  0  0  0  0  0  0  0  0  0  0  0
   59.1884   34.9757   47.5014 O   0  0  0  0  0  0  0  0  0  0  0  0
   57.3510   33.5349   46.7666 O   0  0  0  0  0  0  0  0  0  0  0  0
   59.2619   34.0754   44.9663 C   0  0  0  0  0  0  0  0  0  0  0  0
   60.5324   27.0009   47.8576 C   0  0  0  0  0  0  0  0  0  0  0  0
   60.1950   26.9427   46.5604 C   0  0  0  0  0  0  0  0  0  0  0  0
   59.4587   27.9889   45.8187 C   0  0  0  0  0  0  0  0  0  0  0  0
   60.1356   29.0419   45.1772 C   0  0  0  0  0  0  0  0  0  0  0  0
   59.4175   30.0446   44.5200 C   0  0  0  0  0  0  0  0  0  0  0  0
   58.0192   30.0193   44.5197 C   0  0  0  0  0  0  0  0  0  0  0  0
   57.3098   31.0197   43.8645 O   0  0  0  0  0  0  0  0  0  0  0  0
   57.3376   28.9916   45.1834 C   0  0  0  0  0  0  0  0  0  0  0  0
   55.9480   28.9683   45.1936 O   0  0  0  0  0  0  0  0  0  0  0  0
   58.0559   27.9865   45.8402 C   0  0  0  0  0  0  0  0  0  0  0  0
 13  1  1  0
  1  2  2  0
  1  3  1  0
  3  4  2  0
  4  5  1  0
  5  6  1  0
  6  7  2  0
  7  9  1  0
  9 10  2  0
  9 11  2  0
  9 12  1  0
  7  8  1  0
 13 14  2  0
 14 15  1  0
 15 16  2  0
 16 17  1  0
 17 18  2  0
 18 19  1  0
 18 20  1  0
 20 21  1  0
 20 22  2  0
  8  4  1  0
 22 15  1  0
M  CHG 1   5  -1
M  CHG 1  19  -1
M  CHG 1  21  -1
M  END
> <UniqueID>
77

> <SMILES>
CS(=O)(=O)c1n[n-]/c(=N/C(=O)C=Cc2ccc([O-])c([O-])c2)s1

> <Energy>
73.11312337299137

> <Genealogy>
CS(=O)(=O)c1n[n-]c(=NC(=O)C=Cc2ccc([O-])c([O-])c2)s1 (protonated)
CS(=O)(=O)c1n[n-]/c(=N/C(=O)C=Cc2ccc([O-])c([O-])c2)s1 (cis-trans isomerization)
CS(=O)(=O)c1n[n-]/c(=N/C(=O)C=Cc2ccc([O-])c([O-])c2)s1 (3D coordinates assigned)
CS(=O)(=O)c1n[n-]/c(=N/C(=O)C=Cc2ccc([O-])c([O-])c2)s1 (optimized conformer: 73.11312337299137 kcal/mol)

> <smiles>
CS(=O)(=O)c1n[nH]c(=NC(=O)C=Cc2ccc(O)c(O)c2)s1

> <score_type>
oracle

> <origin>
adg

> <m_score__min__energy>
-16.739999999999998

> <m_primary>
energy

> <minimizedAffinity>
-4.99270

> <minimizedRMSD>
1.36422

> <CNNscore>
0.3890357614

> <CNNaffinity>
5.4409470558

> <CNN_VS>
2.1167230606

> <CNNaffinity_variance>
0.2456750125

$$$$
0:0


 37 41  0  0  0  0  0  0  0  0999 V2000
   58.0108   26.2243   45.7733 C   0  0  0  0  0  0  0  0  0  0  0  0
   59.3742   26.5321   45.6621 C   0  0  0  0  0  0  0  0  0  0  0  0
   59.7861   27.8544   45.4778 C   0  0  0  0  0  0  0  0  0  0  0  0
   58.8392   28.8872   45.4104 C   0  0  0  0  0  0  0  0  0  0  0  0
   57.4741   28.5783   45.5063 C   0  0  0  0  0  0  0  0  0  0  0  0
   57.0594   27.2544   45.6888 C   0  0  0  0  0  0  0  0  0  0  0  0
   55.7012   26.9653   45.7766 O   0  0  0  0  0  0  0  0  0  0  0  0
   55.8920   19.6996   43.4030 O   0  0  0  0  0  0  0  0  0  0  0  0
   56.1936   20.5101   44.3193 C   0  0  0  0  0  0  0  0  0  0  0  0
   56.2123   20.0812   45.6060 N   0  0  0  0  0  0  0  0  0  0  0  0
   56.5147   20.9112   46.6332 C   0  0  0  0  0  0  0  0  0  0  0  0
   56.8457   22.2431   46.3847 C   0  0  0  0  0  0  0  0  0  0  0  0
   57.1626   23.0523   47.4227 N   0  0  0  0  0  0  0  0  0  0  0  0
   57.5219   24.3423   47.2302 C   0  0  0  0  0  0  0  0  0  0  0  0
   57.8058   25.0551   48.2324 O   0  0  0  0  0  0  0  0  0  0  0  0
   57.5946   24.8560   45.9640 N   0  0  0  0  0  0  0  0  0  0  0  0
   57.2938   24.0733   44.8782 C   0  0  0  0  0  0  0  0  0  0  0  0
   57.4280   24.5543   43.7203 O   0  0  0  0  0  0  0  0  0  0  0  0
   56.8649   22.7345   45.0599 C   0  0  0  0  0  0  0  0  0  0  0  0
   56.4862   21.8475   44.0070 C   0  0  0  0  0  0  0  0  0  0  0  0
   56.3578   22.2347   42.6680 O   0  0  0  0  0  0  0  0  0  0  0  0
   56.5432   23.1179   42.4159 H   0  0  0  0  0  0  0  0  0  0  0  0
   59.2795   30.3074   45.1755 C   0  0  0  0  0  0  0  0  0  0  0  0
   58.6702   31.2436   46.2258 C   0  0  0  0  0  0  0  0  0  0  0  0
   59.7161   31.7364   47.1459 N   0  0  0  0  0  0  0  0  0  0  0  0
   59.6699   31.0601   48.4703 C   0  0  0  0  0  0  0  0  0  0  0  0
   59.0258   31.9349   49.5601 C   0  0  0  0  0  0  0  0  0  0  0  0
   59.7160   33.2390   49.7068 N   0  0  0  0  0  0  0  0  0  0  0  0
   60.4132   33.7061   48.4890 C   0  0  0  0  0  0  0  0  0  0  0  0
   59.6909   33.2150   47.2325 C   0  0  0  0  0  0  0  0  0  0  0  0
   60.5121   33.3841   50.9460 C   0  0  0  0  0  0  0  0  0  0  0  0
   61.9429   32.8974   50.8196 C   0  0  0  0  0  0  0  0  0  0  0  0
   62.9787   33.7919   50.4937 C   0  0  0  0  0  0  0  0  0  0  0  0
   64.2957   33.3372   50.3788 C   0  0  0  0  0  0  0  0  0  0  0  0
   64.5901   31.9854   50.5730 C   0  0  0  0  0  0  0  0  0  0  0  0
   63.5657   31.0844   50.8717 C   0  0  0  0  0  0  0  0  0  0  0  0
   62.2471   31.5345   50.9861 C   0  0  0  0  0  0  0  0  0  0  0  0
  8  9  2  0
  9 10  1  0
 10 11  1  0
 11 12  2  0
 12 13  1  0
 13 14  1  0
 14 15  2  0
 14 16  1  0
 16  1  1  0
  1  2  2  0
  2  3  1  0
  3  4  2  0
  4 23  1  0
 23 24  1  0
 24 25  1  0
 25 26  1  0
 26 27  1  0
 27 28  1  0
 28 31  1  0
 31 32  1  0
 32 33  2  0
 33 34  1  0
 34 35  2  0
 35 36  1  0
 36 37  2  0
 28 29  1  0
 29 30  1  0
  4  5  1  0
  5  6  2  0
  6  7  1  0
 16 17  1  0
 17 18  2  0
 17 19  1  0
 19 20  2  0
 20 21  1  0
 20  9  1  0
 19 12  1  0
  6  1  1  0
 30 25  1  0
 37 32  1  0
 21 22  1  0
M  CHG 1   7  -1
M  CHG 1  10  -1
M  CHG 1  13  -1
M  END
> <UniqueID>
1

> <SMILES>
O=c1[n-]cc2[n-]c(=O)n(-c3ccc(CCN4CCN(Cc5ccccc5)CC4)cc3[O-])c(=O)c2c1O

> <Energy>
102.43903466905337

> <Genealogy>
O=c1[n-]cc2[n-]c(=O)n(-c3ccc(CCN4CCN(Cc5ccccc5)CC4)cc3[O-])c(=O)c2c1O (protonated)
O=c1[n-]cc2[n-]c(=O)n(-c3ccc(CCN4CCN(Cc5ccccc5)CC4)cc3[O-])c(=O)c2c1O (3D coordinates assigned)
O=c1[n-]cc2[n-]c(=O)n(-c3ccc(CCN4CCN(Cc5ccccc5)CC4)cc3[O-])c(=O)c2c1O (nonaromatic ring conformer: 102.43903466905337 kcal/mol)

> <smiles>
O=c1[nH]cc2[nH]c(=O)n(-c3ccc(CCN4CCN(Cc5ccccc5)CC4)cc3O)c(=O)c2c1O

> <score_type>
oracle

> <origin>
adg

> <m_score__min__energy>
-16.260000000000002

> <m_primary>
energy

> <minimizedAffinity>
-6.76386

> <minimizedRMSD>
1.13877

> <CNNscore>
0.0227345079

> <CNNaffinity>
5.4408378601

> <CNN_VS>
0.1236947700

> <CNNaffinity_variance>
0.2032043785

$$$$
9:0


 26 28  0  0  0  0  0  0  0  0999 V2000
   58.6041   29.3895   45.9462 C   0  0  0  0  0  0  0  0  0  0  0  0
   58.3842   29.9209   47.1786 N   0  0  0  0  0  0  0  0  0  0  0  0
   59.3978   30.2735   48.0163 C   0  0  0  0  0  0  0  0  0  0  0  0
   60.7266   30.1073   47.5966 C   0  0  0  0  0  0  0  0  0  0  0  0
   60.9818   29.5858   46.3271 C   0  0  0  0  0  0  0  0  0  0  0  0
   59.9232   29.2257   45.4942 C   0  0  0  0  0  0  0  0  0  0  0  0
   57.4476   29.0210   45.1055 C   0  0  0  0  0  0  0  0  0  0  0  0
   57.1339   29.7658   44.1406 O   0  0  0  0  0  0  0  0  0  0  0  0
   59.0487   25.1948   45.8205 C   0  0  0  0  0  0  0  0  0  0  0  0
   58.5138   26.4102   45.5253 N   0  0  0  0  0  0  0  0  0  0  0  0
   57.1715   26.6466   45.5955 C   0  0  0  0  0  0  0  0  0  0  0  0
   56.6849   27.8242   45.3283 N   0  0  0  0  0  0  0  0  0  0  0  0
   56.3109   25.6134   45.9974 C   0  0  0  0  0  0  0  0  0  0  0  0
   54.9397   25.8268   46.0921 O   0  0  0  0  0  0  0  0  0  0  0  0
   56.8424   24.3592   46.3049 C   0  0  0  0  0  0  0  0  0  0  0  0
   58.2190   24.1446   46.2158 C   0  0  0  0  0  0  0  0  0  0  0  0
   59.0740   30.7792   49.3626 C   0  0  0  0  0  0  0  0  0  0  0  0
   59.0503   30.0021   50.3543 O   0  0  0  0  0  0  0  0  0  0  0  0
   58.7536   32.1597   49.5454 N   0  0  0  0  0  0  0  0  0  0  0  0
   59.6209   33.2177   49.0447 C   0  0  0  0  0  0  0  0  0  0  0  0
   59.2210   33.5911   47.6436 C   0  0  0  0  0  0  0  0  0  0  0  0
   57.9341   33.2890   47.1666 C   0  0  0  0  0  0  0  0  0  0  0  0
   57.5910   33.5662   45.8398 C   0  0  0  0  0  0  0  0  0  0  0  0
   58.5313   34.1394   44.9779 C   0  0  0  0  0  0  0  0  0  0  0  0
   59.8167   34.4304   45.4409 C   0  0  0  0  0  0  0  0  0  0  0  0
   60.1641   34.1549   46.7675 C   0  0  0  0  0  0  0  0  0  0  0  0
  9 10  1  0
 10 11  1  0
 11 12  2  0
 12  7  1  0
  7  8  2  0
  7  1  1  0
  1  2  2  0
  2  3  1  0
  3 17  1  0
 17 18  2  0
 17 19  1  0
 19 20  1  0
 20 21  1  0
 21 22  2  0
 22 23  1  0
 23 24  2  0
 24 25  1  0
 25 26  2  0
  3  4  2  0
  4  5  1  0
  5  6  2  0
 11 13  1  0
 13 14  1  0
 13 15  2  0
 15 16  1  0
 16  9  2  0
  6  1  1  0
 26 21  1  0
M  CHG 1  10  -1
M  CHG 1  14  -1
M  CHG 1  19  -1
M  END
> <UniqueID>
9

> <SMILES>
O=C(/N=c1\[n-]cccc1[O-])c1cccc(C(=O)[N-]Cc2ccccc2)n1

> <Energy>
52.30766114735908

> <Genealogy>
O=C(N=c1[n-]cccc1[O-])c1cccc(C(=O)[N-]Cc2ccccc2)n1 (protonated)
O=C(/N=c1\[n-]cccc1[O-])c1cccc(C(=O)[N-]Cc2ccccc2)n1 (cis-trans isomerization)
O=C(/N=c1\[n-]cccc1[O-])c1cccc(C(=O)[N-]Cc2ccccc2)n1 (3D coordinates assigned)
O=C(/N=c1\[n-]cccc1[O-])c1cccc(C(=O)[N-]Cc2ccccc2)n1 (optimized conformer: 52.30766114735908 kcal/mol)

> <smiles>
O=C(N=c1[nH]cccc1O)c1cccc(C(=O)NCc2ccccc2)n1

> <score_type>
oracle

> <origin>
adg

> <m_score__min__energy>
-15.56

> <m_primary>
energy

> <minimizedAffinity>
-6.92178

> <minimizedRMSD>
0.71207

> <CNNscore>
0.6568126082

> <CNNaffinity>
6.5007586479

> <CNN_VS>
4.2697801590

> <CNNaffinity_variance>
0.2056512088

$$$$
13:0


 40 44  0  0  0  0  0  0  0  0999 V2000
   59.3975   28.3276   47.9854 C   0  0  0  0  0  0  0  0  0  0  0  0
   60.3558   27.6985   48.7927 C   0  0  0  0  0  0  0  0  0  0  0  0
   60.7736   28.2955   49.9851 C   0  0  0  0  0  0  0  0  0  0  0  0
   60.2326   29.5269   50.3911 C   0  0  0  0  0  0  0  0  0  0  0  0
   59.2896   30.1656   49.5679 C   0  0  0  0  0  0  0  0  0  0  0  0
   58.8704   29.5657   48.3775 C   0  0  0  0  0  0  0  0  0  0  0  0
   58.8257   25.4541   47.5319 C   0  0  0  0  0  0  0  0  0  0  0  0
   58.6318   26.3937   46.5917 C   0  0  0  0  0  0  0  0  0  0  0  0
   58.2147   26.1970   45.2634 C   0  0  0  0  0  0  0  0  0  0  0  0
   57.7454   25.1009   44.6339 C   0  0  0  0  0  0  0  0  0  0  0  0
   58.3549   27.4198   44.6285 C   0  0  0  0  0  0  0  0  0  0  0  0
   58.7856   28.3188   45.5809 C   0  0  0  0  0  0  0  0  0  0  0  0
   59.0473   29.7737   45.3242 C   0  0  0  0  0  0  0  0  0  0  0  0
   58.9541   27.7004   46.7691 N   0  0  0  0  0  0  0  0  0  0  0  0
   56.5503   24.3275   45.0277 C   0  0  0  0  0  0  0  0  0  0  0  0
   55.4760   24.9349   45.7016 C   0  0  0  0  0  0  0  0  0  0  0  0
   55.5246   26.2800   46.0504 O   0  0  0  0  0  0  0  0  0  0  0  0
   54.3750   24.2043   46.0164 N   0  0  0  0  0  0  0  0  0  0  0  0
   54.2799   22.8945   45.6702 C   0  0  0  0  0  0  0  0  0  0  0  0
   53.2516   22.2377   45.9756 O   0  0  0  0  0  0  0  0  0  0  0  0
   55.2891   22.2971   44.9884 N   0  0  0  0  0  0  0  0  0  0  0  0
   56.4131   22.9824   44.6532 C   0  0  0  0  0  0  0  0  0  0  0  0
   57.3272   22.3969   44.0135 O   0  0  0  0  0  0  0  0  0  0  0  0
   60.6691   30.1601   51.6549 C   0  0  0  0  0  0  0  0  0  0  0  0
   59.9092   30.1196   52.6600 O   0  0  0  0  0  0  0  0  0  0  0  0
   61.9489   30.8098   51.7636 N   0  0  0  0  0  0  0  0  0  0  0  0
   62.0390   32.1482   52.3522 C   0  0  0  0  0  0  0  0  0  0  0  0
   63.3051   32.2632   53.2089 C   0  0  0  0  0  0  0  0  0  0  0  0
   64.5183   31.8343   52.4796 N   0  0  0  0  0  0  0  0  0  0  0  0
   64.3800   30.4458   51.9838 C   0  0  0  0  0  0  0  0  0  0  0  0
   63.1331   30.2424   51.1101 C   0  0  0  0  0  0  0  0  0  0  0  0
   64.9124   32.7940   51.4247 C   0  0  0  0  0  0  0  0  0  0  0  0
   64.0554   34.0296   51.4889 C   0  0  0  0  0  0  0  0  0  0  0  0
   63.3783   34.5356   50.4469 C   0  0  0  0  0  0  0  0  0  0  0  0
   62.7318   33.7288   49.3891 C   0  0  0  0  0  0  0  0  0  0  0  0
   61.3585   33.8409   49.1116 C   0  0  0  0  0  0  0  0  0  0  0  0
   60.7798   33.0738   48.0936 C   0  0  0  0  0  0  0  0  0  0  0  0
   61.5700   32.2044   47.3386 C   0  0  0  0  0  0  0  0  0  0  0  0
   62.9410   32.1082   47.5899 C   0  0  0  0  0  0  0  0  0  0  0  0
   63.5230   32.8741   48.6052 C   0  0  0  0  0  0  0  0  0  0  0  0
  7  8  2  0
  8  9  1  0
  9 10  2  0
 10 15  1  0
 15 16  2  0
 16 17  1  0
 16 18  1  0
 18 19  1  0
 19 20  2  0
 19 21  1  0
 21 22  1  0
 22 23  2  0
  9 11  1  0
 11 12  2  0
 12 13  1  0
 12 14  1  0
 14  1  1  0
  1  2  2  0
  2  3  1  0
  3  4  2  0
  4 24  1  0
 24 25  2  0
 24 26  1  0
 26 27  1  0
 27 28  1  0
 28 29  1  0
 29 32  1  0
 32 33  1  0
 33 34  2  0
 34 35  1  0
 35 36  2  0
 36 37  1  0
 37 38  2  0
 38 39  1  0
 39 40  2  0
 29 30  1  0
 30 31  1  0
  4  5  1  0
  5  6  2  0
 14  8  1  0
  6  1  1  0
 22 15  1  0
 31 26  1  0
 40 35  1  0
M  CHG 1  17  -1
M  CHG 1  18  -1
M  CHG 1  21  -1
M  END
> <UniqueID>
13

> <SMILES>
C=c1c(=Cc2c([O-])[n-]c(=O)[n-]c2=O)cc(C)n1-c1ccc(C(=O)N2CCN(CC=Cc3ccccc3)CC2)cc1

> <Energy>
136.18156008166895

> <Genealogy>
C=c1c(=Cc2c([O-])[n-]c(=O)[n-]c2=O)cc(C)n1-c1ccc(C(=O)N2CCN(CC=Cc3ccccc3)CC2)cc1 (protonated)
C=c1c(=Cc2c([O-])[n-]c(=O)[n-]c2=O)cc(C)n1-c1ccc(C(=O)N2CCN(CC=Cc3ccccc3)CC2)cc1 (3D coordinates assigned)
C=c1c(=Cc2c([O-])[n-]c(=O)[n-]c2=O)cc(C)n1-c1ccc(C(=O)N2CCN(CC=Cc3ccccc3)CC2)cc1 (nonaromatic ring conformer: 136.18156008166895 kcal/mol)

> <smiles>
C=c1c(=Cc2c(O)[nH]c(=O)[nH]c2=O)cc(C)n1-c1ccc(C(=O)N2CCN(CC=Cc3ccccc3)CC2)cc1

> <score_type>
oracle

> <origin>
adg

> <m_score__min__energy>
-16.969999999999999

> <m_primary>
energy

> <minimizedAffinity>
-9.00715

> <minimizedRMSD>
0.78352

> <CNNscore>
0.1115037426

> <CNNaffinity>
6.5352158546

> <CNN_VS>
0.7287010550

> <CNNaffinity_variance>
0.2812547386

$$$$
61:0


 25 27  0  0  0  0  0  0  0  0999 V2000
   59.3721   27.6728   47.1298 C   0  0  0  0  0  0  0  0  0  0  0  0
   58.9773   28.3119   46.0180 C   0  0  0  0  0  0  0  0  0  0  0  0
   58.2622   27.7755   44.9348 C   0  0  0  0  0  0  0  0  0  0  0  0
   57.9513   26.5033   44.6216 C   0  0  0  0  0  0  0  0  0  0  0  0
   57.9018   28.8515   44.1373 C   0  0  0  0  0  0  0  0  0  0  0  0
   58.4485   29.9788   44.7143 C   0  0  0  0  0  0  0  0  0  0  0  0
   58.3309   31.3673   44.1654 C   0  0  0  0  0  0  0  0  0  0  0  0
   59.1128   29.6518   45.8436 N   0  0  0  0  0  0  0  0  0  0  0  0
   57.4677   25.4813   45.5640 C   0  0  0  0  0  0  0  0  0  0  0  0
   58.0844   24.3089   45.8080 N   0  0  0  0  0  0  0  0  0  0  0  0
   57.2127   23.6598   46.6095 C   0  0  0  0  0  0  0  0  0  0  0  0
   57.4441   22.5124   47.0740 O   0  0  0  0  0  0  0  0  0  0  0  0
   56.0707   24.3326   46.8688 N   0  0  0  0  0  0  0  0  0  0  0  0
   56.2438   25.4758   46.1864 C   0  0  0  0  0  0  0  0  0  0  0  0
   55.2969   26.4917   46.1282 O   0  0  0  0  0  0  0  0  0  0  0  0
   59.7509   30.5843   46.7312 C   0  0  0  0  0  0  0  0  0  0  0  0
   61.0791   30.3823   47.1226 C   0  0  0  0  0  0  0  0  0  0  0  0
   61.7024   31.2772   47.9947 C   0  0  0  0  0  0  0  0  0  0  0  0
   61.0055   32.3932   48.4943 C   0  0  0  0  0  0  0  0  0  0  0  0
   59.6681   32.5904   48.0948 C   0  0  0  0  0  0  0  0  0  0  0  0
   59.0461   31.6937   47.2207 C   0  0  0  0  0  0  0  0  0  0  0  0
   57.7281   31.9117   46.8350 O   0  0  0  0  0  0  0  0  0  0  0  0
   61.6820   33.3386   49.4240 C   0  0  0  0  0  0  0  0  0  0  0  0
   62.5154   34.1716   48.9732 O   0  0  0  0  0  0  0  0  0  0  0  0
   61.4058   33.3357   50.8980 C   0  0  0  0  0  0  0  0  0  0  0  0
  1  2  2  0
  2  3  1  0
  3  4  2  0
  4  9  1  0
  9 10  1  0
 10 11  1  0
 11 12  2  0
 11 13  1  0
 13 14  1  0
 14 15  1  0
  3  5  1  0
  5  6  2  0
  6  7  1  0
  6  8  1  0
  8 16  1  0
 16 17  2  0
 17 18  1  0
 18 19  2  0
 19 23  1  0
 23 24  2  0
 23 25  1  0
 19 20  1  0
 20 21  2  0
 21 22  1  0
  8  2  1  0
 21 16  1  0
 14  9  2  0
M  CHG 1  10  -1
M  CHG 1  13  -1
M  CHG 1  15  -1
M  CHG 1  22  -1
M  END
> <UniqueID>
56

> <SMILES>
C=c1/c(=C\c2[n-]c(=O)[n-]c2[O-])cc(C)n1-c1ccc(C(C)=O)cc1[O-]

> <Energy>
116.23502199742927

> <Genealogy>
C=c1c(=Cc2[n-]c(=O)[n-]c2[O-])cc(C)n1-c1ccc(C(C)=O)cc1[O-] (protonated)
C=c1/c(=C\c2[n-]c(=O)[n-]c2[O-])cc(C)n1-c1ccc(C(C)=O)cc1[O-] (cis-trans isomerization)
C=c1/c(=C\c2[n-]c(=O)[n-]c2[O-])cc(C)n1-c1ccc(C(C)=O)cc1[O-] (3D coordinates assigned)
C=c1/c(=C\c2[n-]c(=O)[n-]c2[O-])cc(C)n1-c1ccc(C(C)=O)cc1[O-] (optimized conformer: 116.23502199742927 kcal/mol)

> <smiles>
C=c1c(=Cc2[nH]c(=O)[nH]c2O)cc(C)n1-c1ccc(C(C)=O)cc1O

> <score_type>
oracle

> <origin>
adg

> <m_score__min__energy>
-16.420000000000002

> <m_primary>
energy

> <minimizedAffinity>
-7.48004

> <minimizedRMSD>
0.56839

> <CNNscore>
0.2825449109

> <CNNaffinity>
6.7803778648

> <CNN_VS>
1.9157612324

> <CNNaffinity_variance>
0.4592375755

$$$$
65:0


 24 26  0  0  0  0  0  0  0  0999 V2000
   58.3119   27.5986   43.9930 C   0  0  0  0  0  0  0  0  0  0  0  0
   58.4025   27.4441   45.3232 C   0  0  0  0  0  0  0  0  0  0  0  0
   58.4067   26.2283   46.0184 C   0  0  0  0  0  0  0  0  0  0  0  0
   58.2430   24.9921   45.5059 C   0  0  0  0  0  0  0  0  0  0  0  0
   58.5779   26.5415   47.3612 C   0  0  0  0  0  0  0  0  0  0  0  0
   58.6697   27.9128   47.4244 C   0  0  0  0  0  0  0  0  0  0  0  0
   58.8273   28.6405   48.5972 O   0  0  0  0  0  0  0  0  0  0  0  0
   58.5615   28.4682   46.2000 N   0  0  0  0  0  0  0  0  0  0  0  0
   57.1076   24.1078   45.8511 C   0  0  0  0  0  0  0  0  0  0  0  0
   55.8304   24.6520   46.0556 C   0  0  0  0  0  0  0  0  0  0  0  0
   55.6236   26.0247   45.9720 O   0  0  0  0  0  0  0  0  0  0  0  0
   54.7841   23.8381   46.3478 N   0  0  0  0  0  0  0  0  0  0  0  0
   54.9453   22.4927   46.4342 C   0  0  0  0  0  0  0  0  0  0  0  0
   53.9621   21.7584   46.7116 O   0  0  0  0  0  0  0  0  0  0  0  0
   56.1645   21.9387   46.2146 N   0  0  0  0  0  0  0  0  0  0  0  0
   57.2422   22.7076   45.9166 C   0  0  0  0  0  0  0  0  0  0  0  0
   58.3502   22.1545   45.6845 O   0  0  0  0  0  0  0  0  0  0  0  0
   58.5824   29.8811   45.9256 C   0  0  0  0  0  0  0  0  0  0  0  0
   57.6545   30.4481   45.0378 C   0  0  0  0  0  0  0  0  0  0  0  0
   57.6674   31.8237   44.7886 C   0  0  0  0  0  0  0  0  0  0  0  0
   58.6022   32.6440   45.4293 C   0  0  0  0  0  0  0  0  0  0  0  0
   58.6172   34.3694   45.1159 Cl  0  0  0  0  0  0  0  0  0  0  0  0
   59.5223   32.0860   46.3234 C   0  0  0  0  0  0  0  0  0  0  0  0
   59.5102   30.7110   46.5756 C   0  0  0  0  0  0  0  0  0  0  0  0
  1  2  2  0
  2  3  1  0
  3  4  2  0
  4  9  1  0
  9 10  2  0
 10 11  1  0
 10 12  1  0
 12 13  1  0
 13 14  2  0
 13 15  1  0
 15 16  1  0
 16 17  2  0
  3  5  1  0
  5  6  2  0
  6  7  1  0
  6  8  1  0
  8 18  1  0
 18 19  2  0
 19 20  1  0
 20 21  2  0
 21 22  1  0
 21 23  1  0
 23 24  2  0
  8  2  1  0
 24 18  1  0
 16  9  1  0
M  CHG 1   7  -1
M  CHG 1  11  -1
M  CHG 1  12  -1
M  CHG 1  15  -1
M  END
> <UniqueID>
60

> <SMILES>
C=c1c(=Cc2c([O-])[n-]c(=O)[n-]c2=O)cc([O-])n1-c1ccc(Cl)cc1

> <Energy>
81.87590116459403

> <Genealogy>
C=c1c(=Cc2c([O-])[n-]c(=O)[n-]c2=O)cc([O-])n1-c1ccc(Cl)cc1 (protonated)
C=c1c(=Cc2c([O-])[n-]c(=O)[n-]c2=O)cc([O-])n1-c1ccc(Cl)cc1 (3D coordinates assigned)
C=c1c(=Cc2c([O-])[n-]c(=O)[n-]c2=O)cc([O-])n1-c1ccc(Cl)cc1 (optimized conformer: 81.87590116459403 kcal/mol)

> <smiles>
C=c1c(=Cc2c(O)[nH]c(=O)[nH]c2=O)cc(O)n1-c1ccc(Cl)cc1

> <score_type>
oracle

> <origin>
adg

> <m_score__min__energy>
-16.23

> <m_primary>
energy

> <minimizedAffinity>
-8.69435

> <minimizedRMSD>
1.21499

> <CNNscore>
0.4296978116

> <CNNaffinity>
6.4399914742

> <CNN_VS>
2.7672502995

> <CNNaffinity_variance>
0.1981685907

$$$$
66:0


 30 33  0  0  0  0  0  0  0  0999 V2000
   59.6012   26.9362   46.9277 C   0  0  0  0  0  0  0  0  0  0  0  0
   58.8895   27.7644   46.1433 C   0  0  0  0  0  0  0  0  0  0  0  0
   58.1246   27.4215   45.0159 C   0  0  0  0  0  0  0  0  0  0  0  0
   57.7689   26.2217   44.5179 C   0  0  0  0  0  0  0  0  0  0  0  0
   57.7362   28.6177   44.4333 C   0  0  0  0  0  0  0  0  0  0  0  0
   58.2141   29.6310   45.2394 C   0  0  0  0  0  0  0  0  0  0  0  0
   58.0359   31.0962   44.9718 C   0  0  0  0  0  0  0  0  0  0  0  0
   58.9036   29.1156   46.2805 N   0  0  0  0  0  0  0  0  0  0  0  0
   57.2847   25.0786   45.3057 C   0  0  0  0  0  0  0  0  0  0  0  0
   58.1487   23.6605   45.6156 S   0  0  0  0  0  0  0  0  0  0  0  0
   57.0006   23.1046   46.7097 C   0  0  0  0  0  0  0  0  0  0  0  0
   57.0720   22.0037   47.3145 O   0  0  0  0  0  0  0  0  0  0  0  0
   55.9834   23.9755   46.8859 N   0  0  0  0  0  0  0  0  0  0  0  0
   56.1539   25.0834   46.1180 C   0  0  0  0  0  0  0  0  0  0  0  0
   55.2582   26.1449   46.1603 O   0  0  0  0  0  0  0  0  0  0  0  0
   59.6014   29.8832   47.2752 C   0  0  0  0  0  0  0  0  0  0  0  0
   60.8576   30.4294   46.9864 C   0  0  0  0  0  0  0  0  0  0  0  0
   61.5355   31.1766   47.9508 C   0  0  0  0  0  0  0  0  0  0  0  0
   60.9664   31.3890   49.2114 C   0  0  0  0  0  0  0  0  0  0  0  0
   61.8462   32.3884   50.3637 Cl  0  0  0  0  0  0  0  0  0  0  0  0
   59.7007   30.8412   49.5133 C   0  0  0  0  0  0  0  0  0  0  0  0
   59.0345   30.0767   48.5410 C   0  0  0  0  0  0  0  0  0  0  0  0
   59.0737   31.0273   50.8431 C   0  0  0  0  0  0  0  0  0  0  0  0
   58.1186   31.8431   50.9536 O   0  0  0  0  0  0  0  0  0  0  0  0
   59.5399   30.3143   52.0084 N   0  0  0  0  0  0  0  0  0  0  0  0
   60.3345   29.0845   51.8852 C   0  0  0  0  0  0  0  0  0  0  0  0
   60.0249   28.1460   53.0554 C   0  0  0  0  0  0  0  0  0  0  0  0
   60.1721   28.8226   54.2901 O   0  0  0  0  0  0  0  0  0  0  0  0
   59.1960   29.8411   54.3955 C   0  0  0  0  0  0  0  0  0  0  0  0
   59.4269   30.9258   53.3383 C   0  0  0  0  0  0  0  0  0  0  0  0
  1  2  2  0
  2  3  1  0
  3  4  2  0
  4  9  1  0
  9 10  1  0
 10 11  1  0
 11 12  2  0
 11 13  1  0
 13 14  1  0
 14 15  1  0
  3  5  1  0
  5  6  2  0
  6  7  1  0
  6  8  1  0
  8 16  1  0
 16 17  2  0
 17 18  1  0
 18 19  2  0
 19 20  1  0
 19 21  1  0
 21 23  1  0
 23 24  2  0
 23 25  1  0
 25 26  1  0
 26 27  1  0
 27 28  1  0
 28 29  1  0
 29 30  1  0
 21 22  2  0
  8  2  1  0
 22 16  1  0
 14  9  2  0
 30 25  1  0
M  CHG 1  13  -1
M  CHG 1  15  -1
M  END
> <UniqueID>
61

> <SMILES>
C=c1c(=Cc2sc(=O)[n-]c2[O-])cc(C)n1-c1ccc(Cl)c(C(=O)N2CCOCC2)c1

> <Energy>
136.64370235385215

> <Genealogy>
C=c1c(=Cc2sc(=O)[n-]c2[O-])cc(C)n1-c1ccc(Cl)c(C(=O)N2CCOCC2)c1 (protonated)
C=c1c(=Cc2sc(=O)[n-]c2[O-])cc(C)n1-c1ccc(Cl)c(C(=O)N2CCOCC2)c1 (3D coordinates assigned)
C=c1c(=Cc2sc(=O)[n-]c2[O-])cc(C)n1-c1ccc(Cl)c(C(=O)N2CCOCC2)c1 (nonaromatic ring conformer: 136.64370235385215 kcal/mol)

> <smiles>
C=c1c(=Cc2sc(=O)[nH]c2O)cc(C)n1-c1ccc(Cl)c(C(=O)N2CCOCC2)c1

> <score_type>
oracle

> <origin>
adg

> <m_score__min__energy>
-15.27

> <m_primary>
energy

> <minimizedAffinity>
-8.19385

> <minimizedRMSD>
2.24717

> <CNNscore>
0.1696903110

> <CNNaffinity>
6.4294433594

> <CNN_VS>
1.0910142660

> <CNNaffinity_variance>
0.0616635829

$$$$
76:0


 29 31  0  0  0  0  0  0  0  0999 V2000
   58.3644   31.0053   45.9030 C   0  0  0  0  0  0  0  0  0  0  0  0
   59.1050   30.3291   46.8804 C   0  0  0  0  0  0  0  0  0  0  0  0
   59.1690   28.9326   46.8741 C   0  0  0  0  0  0  0  0  0  0  0  0
   58.4957   28.1938   45.8855 C   0  0  0  0  0  0  0  0  0  0  0  0
   57.7348   28.8773   44.9225 C   0  0  0  0  0  0  0  0  0  0  0  0
   57.6729   30.2729   44.9297 C   0  0  0  0  0  0  0  0  0  0  0  0
   58.2559   32.7642   45.9183 S   0  0  0  0  0  0  0  0  0  0  0  0
   59.1233   33.3464   44.8362 O   0  0  0  0  0  0  0  0  0  0  0  0
   56.8329   33.1709   45.6555 O   0  0  0  0  0  0  0  0  0  0  0  0
   58.7519   33.3869   47.4633 N   0  0  0  0  0  0  0  0  0  0  0  0
   57.9567   33.8347   47.9189 H   0  0  0  0  0  0  0  0  0  0  0  0
   59.8241   34.3678   47.2827 C   0  0  0  0  0  0  0  0  0  0  0  0
   64.7397   32.5755   49.8216 C   0  0  0  0  0  0  0  0  0  0  0  0
   63.4570   33.0003   49.1714 C   0  0  0  0  0  0  0  0  0  0  0  0
   63.3253   32.9584   47.7742 C   0  0  0  0  0  0  0  0  0  0  0  0
   62.1453   33.3898   47.1638 C   0  0  0  0  0  0  0  0  0  0  0  0
   61.0792   33.8690   47.9419 C   0  0  0  0  0  0  0  0  0  0  0  0
   61.2236   33.9425   49.3359 C   0  0  0  0  0  0  0  0  0  0  0  0
   62.4046   33.5111   49.9474 C   0  0  0  0  0  0  0  0  0  0  0  0
   58.5495   26.7111   45.8778 C   0  0  0  0  0  0  0  0  0  0  0  0
   59.1850   26.1147   46.7882 O   0  0  0  0  0  0  0  0  0  0  0  0
   57.9523   25.9275   44.8327 N   0  0  0  0  0  0  0  0  0  0  0  0
   57.2544   24.8406   44.9937 C   0  0  0  0  0  0  0  0  0  0  0  0
   57.6597   23.6579   44.4469 N   0  0  0  0  0  0  0  0  0  0  0  0
   56.9404   22.5126   44.5897 C   0  0  0  0  0  0  0  0  0  0  0  0
   55.7425   22.5255   45.3064 C   0  0  0  0  0  0  0  0  0  0  0  0
   55.2963   23.7232   45.8681 C   0  0  0  0  0  0  0  0  0  0  0  0
   56.0511   24.8892   45.7127 C   0  0  0  0  0  0  0  0  0  0  0  0
   55.6039   26.0821   46.2710 O   0  0  0  0  0  0  0  0  0  0  0  0
 13 14  1  0
 14 15  2  0
 15 16  1  0
 16 17  2  0
 17 12  1  0
 12 10  1  0
 10  7  1  0
  7  8  2  0
  7  9  2  0
  7  1  1  0
  1  2  2  0
  2  3  1  0
  3  4  2  0
  4 20  1  0
 20 21  2  0
 20 22  1  0
 22 23  2  0
 23 24  1  0
 24 25  1  0
 25 26  2  0
 26 27  1  0
 27 28  2  0
 28 29  1  0
  4  5  1  0
  5  6  2  0
 17 18  1  0
 18 19  2  0
 19 14  1  0
  6  1  1  0
 28 23  1  0
 10 11  1  0
M  CHG 1  24  -1
M  CHG 1  29  -1
M  END
> <UniqueID>
70

> <SMILES>
Cc1ccc(CNS(=O)(=O)c2ccc(C(=O)N=c3[n-]cccc3[O-])cc2)cc1

> <Energy>
52.781222675734995

> <Genealogy>
Cc1ccc(CNS(=O)(=O)c2ccc(C(=O)N=c3[n-]cccc3[O-])cc2)cc1 (protonated)
Cc1ccc(CNS(=O)(=O)c2ccc(C(=O)N=c3[n-]cccc3[O-])cc2)cc1 (3D coordinates assigned)
Cc1ccc(CNS(=O)(=O)c2ccc(C(=O)N=c3[n-]cccc3[O-])cc2)cc1 (optimized conformer: 52.781222675734995 kcal/mol)

> <smiles>
Cc1ccc(CNS(=O)(=O)c2ccc(C(=O)N=c3[nH]cccc3O)cc2)cc1

> <score_type>
oracle

> <origin>
adg

> <m_score__min__energy>
-14.890000000000001

> <m_primary>
energy

> <minimizedAffinity>
-8.56727

> <minimizedRMSD>
0.77874

> <CNNscore>
0.4216147661

> <CNNaffinity>
6.6357684135

> <CNN_VS>
2.7977378368

> <CNNaffinity_variance>
0.2600637376

$$$$
84:0


 25 27  0  0  0  0  0  0  0  0999 V2000
   56.0323   29.4047   53.6332 C   0  0  0  0  0  0  0  0  0  0  0  0
   55.3228   29.9441   52.5525 C   0  0  0  0  0  0  0  0  0  0  0  0
   53.9830   30.3312   52.6897 C   0  0  0  0  0  0  0  0  0  0  0  0
   53.2841   30.8767   51.6053 C   0  0  0  0  0  0  0  0  0  0  0  0
   51.9508   31.2567   51.7682 C   0  0  0  0  0  0  0  0  0  0  0  0
   51.2465   31.7989   50.7024 O   0  0  0  0  0  0  0  0  0  0  0  0
   51.3376   31.0940   52.9700 N   0  0  0  0  0  0  0  0  0  0  0  0
   51.9823   30.5685   54.0454 C   0  0  0  0  0  0  0  0  0  0  0  0
   51.3605   30.4433   55.1343 O   0  0  0  0  0  0  0  0  0  0  0  0
   53.3294   30.1699   53.9310 C   0  0  0  0  0  0  0  0  0  0  0  0
   54.0340   29.6166   55.0136 C   0  0  0  0  0  0  0  0  0  0  0  0
   55.3750   29.2264   54.8717 C   0  0  0  0  0  0  0  0  0  0  0  0
   56.0273   28.6526   55.9608 O   0  0  0  0  0  0  0  0  0  0  0  0
   55.5743   28.5430   56.7737 H   0  0  0  0  0  0  0  0  0  0  0  0
   57.4049   29.0455   53.4014 N   0  0  0  0  0  0  0  0  0  0  0  0
   58.5536   29.8262   52.3609 S   0  0  0  0  0  0  0  0  0  0  0  0
   58.0205   29.8256   50.9554 O   0  0  0  0  0  0  0  0  0  0  0  0
   59.8643   29.0945   52.4273 O   0  0  0  0  0  0  0  0  0  0  0  0
   59.0112   32.3162   50.4800 C   0  0  0  0  0  0  0  0  0  0  0  0
   59.0158   32.5528   51.9679 C   0  0  0  0  0  0  0  0  0  0  0  0
   59.1984   33.8623   52.4465 C   0  0  0  0  0  0  0  0  0  0  0  0
   59.1983   34.1231   53.8170 C   0  0  0  0  0  0  0  0  0  0  0  0
   59.0122   33.0843   54.7270 C   0  0  0  0  0  0  0  0  0  0  0  0
   58.8186   31.7801   54.2693 C   0  0  0  0  0  0  0  0  0  0  0  0
   58.8086   31.4975   52.8925 C   0  0  0  0  0  0  0  0  0  0  0  0
 19 20  1  0
 20 21  2  0
 21 22  1  0
 22 23  2  0
 23 24  1  0
 24 25  2  0
 25 16  1  0
 16 17  2  0
 16 18  2  0
 16 15  1  0
 15  1  1  0
  1  2  2  0
  2  3  1  0
  3  4  1  0
  4  5  2  0
  5  6  1  0
  5  7  1  0
  7  8  1  0
  8  9  2  0
  8 10  1  0
 10 11  1  0
 11 12  2  0
 12 13  1  0
 25 20  1  0
 12  1  1  0
 10  3  2  0
 13 14  1  0
M  CHG 1   6  -1
M  CHG 1   7  -1
M  CHG 1  15  -1
M  END
> <UniqueID>
77

> <SMILES>
Cc1ccccc1S(=O)(=O)[N-]c1cc2cc([O-])[n-]c(=O)c2cc1O

> <Energy>
51.84928402778185

> <Genealogy>
Cc1ccccc1S(=O)(=O)[N-]c1cc2cc([O-])[n-]c(=O)c2cc1O (protonated)
Cc1ccccc1S(=O)(=O)[N-]c1cc2cc([O-])[n-]c(=O)c2cc1O (3D coordinates assigned)
Cc1ccccc1S(=O)(=O)[N-]c1cc2cc([O-])[n-]c(=O)c2cc1O (optimized conformer: 51.84928402778185 kcal/mol)

> <smiles>
Cc1ccccc1S(=O)(=O)Nc1cc2cc(O)[nH]c(=O)c2cc1O

> <score_type>
oracle

> <origin>
adg

> <m_score__min__energy>
-14.32

> <m_primary>
energy

> <minimizedAffinity>
-5.90037

> <minimizedRMSD>
1.36436

> <CNNscore>
0.3720241785

> <CNNaffinity>
4.8480648994

> <CNN_VS>
1.8035973310

> <CNNaffinity_variance>
0.1555001885

$$$$
0:0


 29 31  0  0  0  0  0  0  0  0999 V2000
   58.5425   30.9381   51.5261 C   0  0  0  0  0  0  0  0  0  0  0  0
   59.6837   30.4549   52.1837 C   0  0  0  0  0  0  0  0  0  0  0  0
   60.6915   29.8102   51.4641 C   0  0  0  0  0  0  0  0  0  0  0  0
   60.5629   29.6300   50.0850 C   0  0  0  0  0  0  0  0  0  0  0  0
   59.4174   30.0879   49.4179 C   0  0  0  0  0  0  0  0  0  0  0  0
   58.4056   30.7313   50.1437 C   0  0  0  0  0  0  0  0  0  0  0  0
   59.2589   29.8624   47.6744 S   0  0  0  0  0  0  0  0  0  0  0  0
   60.6098   29.5495   47.0934 O   0  0  0  0  0  0  0  0  0  0  0  0
   58.3537   28.6927   47.4041 O   0  0  0  0  0  0  0  0  0  0  0  0
   58.6135   31.2882   46.8996 N   0  0  0  0  0  0  0  0  0  0  0  0
   59.5521   32.4197   47.0472 C   0  0  0  0  0  0  0  0  0  0  0  0
   59.1711   33.6213   46.1513 C   0  0  0  0  0  0  0  0  0  0  0  0
   57.7388   33.5039   45.6223 C   0  0  0  0  0  0  0  0  0  0  0  0
   57.5369   32.1820   44.8610 C   0  0  0  0  0  0  0  0  0  0  0  0
   58.3335   31.0181   45.4804 C   0  0  0  0  0  0  0  0  0  0  0  0
   57.4671   31.6106   52.2780 C   0  0  0  0  0  0  0  0  0  0  0  0
   57.5660   32.8444   52.5161 O   0  0  0  0  0  0  0  0  0  0  0  0
   56.3218   30.9031   52.7674 N   0  0  0  0  0  0  0  0  0  0  0  0
   55.1714   30.5237   51.9543 C   0  0  0  0  0  0  0  0  0  0  0  0
   54.2320   30.0573   54.0815 O   0  0  0  0  0  0  0  0  0  0  0  0
   54.0125   30.1950   52.8499 C   0  0  0  0  0  0  0  0  0  0  0  0
   52.6602   30.0338   52.3781 N   0  0  0  0  0  0  0  0  0  0  0  0
   52.1476   30.3247   51.2141 C   0  0  0  0  0  0  0  0  0  0  0  0
   52.1692   29.4355   50.1820 N   0  0  0  0  0  0  0  0  0  0  0  0
   51.6462   29.7275   48.9623 C   0  0  0  0  0  0  0  0  0  0  0  0
   51.0645   30.9760   48.7334 C   0  0  0  0  0  0  0  0  0  0  0  0
   51.0286   31.9098   49.7680 C   0  0  0  0  0  0  0  0  0  0  0  0
   51.5733   31.5898   51.0158 C   0  0  0  0  0  0  0  0  0  0  0  0
   51.5391   32.5251   52.0453 O   0  0  0  0  0  0  0  0  0  0  0  0
 20 21  2  0
 21 19  1  0
 19 18  1  0
 18 16  1  0
 16 17  2  0
 16  1  1  0
  1  2  2  0
  2  3  1  0
  3  4  2  0
  4  5  1  0
  5  7  1  0
  7  8  2  0
  7  9  2  0
  7 10  1  0
 10 11  1  0
 11 12  1  0
 12 13  1  0
 13 14  1  0
 14 15  1  0
  5  6  2  0
 21 22  1  0
 22 23  2  0
 23 24  1  0
 24 25  1  0
 25 26  2  0
 26 27  1  0
 27 28  2  0
 28 29  1  0
  6  1  1  0
 28 23  1  0
 15 10  1  0
M  CHG 1  18  -1
M  CHG 1  24  -1
M  CHG 1  29  -1
M  END
> <UniqueID>
1

> <SMILES>
O=C(C[N-]C(=O)c1cccc(S(=O)(=O)N2CCCCC2)c1)N=c1[n-]cccc1[O-]

> <Energy>
59.71011545679245

> <Genealogy>
O=C(C[N-]C(=O)c1cccc(S(=O)(=O)N2CCCCC2)c1)N=c1[n-]cccc1[O-] (protonated)
O=C(C[N-]C(=O)c1cccc(S(=O)(=O)N2CCCCC2)c1)N=c1[n-]cccc1[O-] (3D coordinates assigned)
O=C(C[N-]C(=O)c1cccc(S(=O)(=O)N2CCCCC2)c1)N=c1[n-]cccc1[O-] (nonaromatic ring conformer: 59.71011545679245 kcal/mol)

> <smiles>
O=C(CNC(=O)c1cccc(S(=O)(=O)N2CCCCC2)c1)N=c1[nH]cccc1O

> <score_type>
oracle

> <origin>
adg

> <m_score__min__energy>
-16.050000000000001

> <m_primary>
energy

> <minimizedAffinity>
-4.32029

> <minimizedRMSD>
0.62449

> <CNNscore>
0.2739047408

> <CNNaffinity>
5.9728164673

> <CNN_VS>
1.6359827518

> <CNNaffinity_variance>
0.0192499962

$$$$
3:0


 33 36  0  0  0  0  0  0  0  0999 V2000
   59.9410   30.3914   47.2824 C   0  0  0  0  0  0  0  0  0  0  0  0
   59.6830   31.5145   46.5928 C   0  0  0  0  0  0  0  0  0  0  0  0
   58.8786   31.6539   45.4477 C   0  0  0  0  0  0  0  0  0  0  0  0
   58.2828   30.7324   44.6661 C   0  0  0  0  0  0  0  0  0  0  0  0
   58.7903   33.0161   45.2018 C   0  0  0  0  0  0  0  0  0  0  0  0
   59.5749   33.6461   46.1432 C   0  0  0  0  0  0  0  0  0  0  0  0
   59.7635   35.1284   46.2494 C   0  0  0  0  0  0  0  0  0  0  0  0
   60.1088   32.7400   46.9870 N   0  0  0  0  0  0  0  0  0  0  0  0
   58.2377   29.2790   44.9234 C   0  0  0  0  0  0  0  0  0  0  0  0
   57.0303   28.6305   45.2354 C   0  0  0  0  0  0  0  0  0  0  0  0
   55.8323   29.3364   45.2671 O   0  0  0  0  0  0  0  0  0  0  0  0
   57.0260   27.3006   45.5102 N   0  0  0  0  0  0  0  0  0  0  0  0
   58.1802   26.5823   45.5105 C   0  0  0  0  0  0  0  0  0  0  0  0
   58.1433   24.9832   45.8265 S   0  0  0  0  0  0  0  0  0  0  0  0
   59.3611   27.1895   45.2307 N   0  0  0  0  0  0  0  0  0  0  0  0
   59.4175   28.5199   44.9545 C   0  0  0  0  0  0  0  0  0  0  0  0
   60.5317   29.0569   44.7213 O   0  0  0  0  0  0  0  0  0  0  0  0
   60.9688   33.0389   48.0969 C   0  0  0  0  0  0  0  0  0  0  0  0
   60.4209   33.1697   49.3843 C   0  0  0  0  0  0  0  0  0  0  0  0
   61.2588   33.4209   50.4753 C   0  0  0  0  0  0  0  0  0  0  0  0
   62.6464   33.5682   50.2814 C   0  0  0  0  0  0  0  0  0  0  0  0
   63.1902   33.4631   48.9872 C   0  0  0  0  0  0  0  0  0  0  0  0
   62.3545   33.1793   47.9013 C   0  0  0  0  0  0  0  0  0  0  0  0
   63.5300   33.8106   51.4309 C   0  0  0  0  0  0  0  0  0  0  0  0
   63.7927   35.0026   51.7462 O   0  0  0  0  0  0  0  0  0  0  0  0
   64.1670   32.6993   52.1191 N   0  0  0  0  0  0  0  0  0  0  0  0
   65.1375   33.1673   53.1363 C   0  0  0  0  0  0  0  0  0  0  0  0
   66.4486   33.7139   52.5257 C   0  0  0  0  0  0  0  0  0  0  0  0
   66.6564   33.2732   51.1320 N   0  0  0  0  0  0  0  0  0  0  0  0
   68.0612   33.4652   50.7438 C   0  0  0  0  0  0  0  0  0  0  0  0
   66.2725   31.8620   50.9871 C   0  0  0  0  0  0  0  0  0  0  0  0
   64.7473   31.7241   51.1541 C   0  0  0  0  0  0  0  0  0  0  0  0
   64.3371   32.3358   51.2201 H   0  0  0  0  0  0  0  0  0  0  0  0
  1  2  2  0
  2  3  1  0
  3  4  2  0
  4  9  1  0
  9 10  2  0
 10 11  1  0
 10 12  1  0
 12 13  1  0
 13 14  2  0
 13 15  1  0
 15 16  1  0
 16 17  2  0
  3  5  1  0
  5  6  2  0
  6  7  1  0
  6  8  1  0
  8 18  1  0
 18 19  2  0
 19 20  1  0
 20 21  2  0
 21 24  1  0
 24 25  2  0
 24 26  1  0
 26 27  1  0
 27 28  1  0
 28 29  1  0
 29 30  1  0
 29 31  1  0
 31 32  1  0
 21 22  1  0
 22 23  2  0
  8  2  1  0
 23 18  1  0
 16  9  1  0
 32 26  1  0
 26 33  1  0
M  CHG 1  11  -1
M  CHG 1  12  -1
M  CHG 1  15  -1
M  CHG 1  26   1
M  END
> <UniqueID>
3

> <SMILES>
C=c1c(=Cc2c([O-])[n-]c(=S)[n-]c2=O)cc(C)n1-c1ccc(C(=O)[NH+]2CCN(C)CC2)cc1

> <Energy>
126.48208331216621

> <Genealogy>
C=c1c(=Cc2c([O-])[n-]c(=S)[n-]c2=O)cc(C)n1-c1ccc(C(=O)[NH+]2CCN(C)CC2)cc1 (protonated)
C=c1c(=Cc2c([O-])[n-]c(=S)[n-]c2=O)cc(C)n1-c1ccc(C(=O)[NH+]2CCN(C)CC2)cc1 (3D coordinates assigned)
C=c1c(=Cc2c([O-])[n-]c(=S)[n-]c2=O)cc(C)n1-c1ccc(C(=O)[NH+]2CCN(C)CC2)cc1 (nonaromatic ring conformer: 126.48208331216621 kcal/mol)

> <smiles>
C=c1c(=Cc2c(O)[nH]c(=S)[nH]c2=O)cc(C)n1-c1ccc(C(=O)N2CCN(C)CC2)cc1

> <score_type>
oracle

> <origin>
adg

> <m_score__min__energy>
-14.56

> <m_primary>
energy

> <minimizedAffinity>
-7.92027

> <minimizedRMSD>
1.04102

> <CNNscore>
0.3113172054

> <CNNaffinity>
6.9792160988

> <CNN_VS>
2.1727499962

> <CNNaffinity_variance>
0.0165908057

$$$$
14:0


 35 39  0  0  0  0  0  0  0  0999 V2000
   58.8996   29.0802   47.7207 C   0  0  0  0  0  0  0  0  0  0  0  0
   58.3747   28.8397   46.5097 C   0  0  0  0  0  0  0  0  0  0  0  0
   58.0392   27.5864   45.9850 C   0  0  0  0  0  0  0  0  0  0  0  0
   58.1661   26.3866   46.5846 C   0  0  0  0  0  0  0  0  0  0  0  0
   57.4951   27.8213   44.7294 C   0  0  0  0  0  0  0  0  0  0  0  0
   57.5367   29.1875   44.5308 C   0  0  0  0  0  0  0  0  0  0  0  0
   57.0279   29.8835   43.3040 C   0  0  0  0  0  0  0  0  0  0  0  0
   58.0639   29.8064   45.6111 N   0  0  0  0  0  0  0  0  0  0  0  0
   57.5353   25.1496   46.0718 C   0  0  0  0  0  0  0  0  0  0  0  0
   56.1422   25.0368   45.9258 C   0  0  0  0  0  0  0  0  0  0  0  0
   55.3073   26.0981   46.2611 O   0  0  0  0  0  0  0  0  0  0  0  0
   55.6010   23.8900   45.4336 N   0  0  0  0  0  0  0  0  0  0  0  0
   56.3910   22.8514   45.0546 C   0  0  0  0  0  0  0  0  0  0  0  0
   55.8748   21.7974   44.5981 O   0  0  0  0  0  0  0  0  0  0  0  0
   57.7401   22.9500   45.1601 N   0  0  0  0  0  0  0  0  0  0  0  0
   58.3279   24.0698   45.6499 C   0  0  0  0  0  0  0  0  0  0  0  0
   59.5851   24.1261   45.7306 O   0  0  0  0  0  0  0  0  0  0  0  0
   54.6232   23.8113   45.3509 H   0  0  0  0  0  0  0  0  0  0  0  0
   58.2579   31.2251   45.7528 C   0  0  0  0  0  0  0  0  0  0  0  0
   57.6401   32.1135   44.8608 C   0  0  0  0  0  0  0  0  0  0  0  0
   57.8227   33.4904   45.0050 C   0  0  0  0  0  0  0  0  0  0  0  0
   58.6138   33.9898   46.0413 C   0  0  0  0  0  0  0  0  0  0  0  0
   59.2249   33.1141   46.9540 C   0  0  0  0  0  0  0  0  0  0  0  0
   59.0532   31.7277   46.7937 C   0  0  0  0  0  0  0  0  0  0  0  0
   60.0708   33.6355   48.0495 C   0  0  0  0  0  0  0  0  0  0  0  0
   59.5922   34.4833   48.8511 O   0  0  0  0  0  0  0  0  0  0  0  0
   61.4381   33.2154   48.1937 N   0  0  0  0  0  0  0  0  0  0  0  0
   62.4388   33.3391   47.1281 C   0  0  0  0  0  0  0  0  0  0  0  0
   63.8217   33.2084   47.8133 C   0  0  0  0  0  0  0  0  0  0  0  0
   63.4777   33.0264   49.2495 C   0  0  0  0  0  0  0  0  0  0  0  0
   64.3485   32.8463   50.3240 C   0  0  0  0  0  0  0  0  0  0  0  0
   63.8027   32.6705   51.6068 C   0  0  0  0  0  0  0  0  0  0  0  0
   62.4065   32.6721   51.7878 C   0  0  0  0  0  0  0  0  0  0  0  0
   61.5502   32.8531   50.6891 C   0  0  0  0  0  0  0  0  0  0  0  0
   62.1208   33.0431   49.4251 C   0  0  0  0  0  0  0  0  0  0  0  0
  1  2  2  0
  2  3  1  0
  3  4  2  0
  4  9  1  0
  9 10  2  0
 10 11  1  0
 10 12  1  0
 12 13  1  0
 13 14  2  0
 13 15  1  0
 15 16  1  0
 16 17  2  0
  3  5  1  0
  5  6  2  0
  6  7  1  0
  6  8  1  0
  8 19  1  0
 19 20  2  0
 20 21  1  0
 21 22  2  0
 22 23  1  0
 23 25  1  0
 25 26  2  0
 25 27  1  0
 27 28  1  0
 28 29  1  0
 29 30  1  0
 30 31  2  0
 31 32  1  0
 32 33  2  0
 33 34  1  0
 34 35  2  0
 23 24  2  0
  8  2  1  0
 24 19  1  0
 16  9  1  0
 35 27  1  0
 35 30  1  0
 12 18  1  0
M  CHG 1  11  -1
M  CHG 1  15  -1
M  END
> <UniqueID>
13

> <SMILES>
C=c1c(=Cc2c([O-])[nH]c(=O)[n-]c2=O)cc(C)n1-c1cccc(C(=O)N2CCc3ccccc32)c1

> <Energy>
124.93829330899624

> <Genealogy>
C=c1c(=Cc2c([O-])[nH]c(=O)[n-]c2=O)cc(C)n1-c1cccc(C(=O)N2CCc3ccccc32)c1 (protonated)
C=c1c(=Cc2c([O-])[nH]c(=O)[n-]c2=O)cc(C)n1-c1cccc(C(=O)N2CCc3ccccc32)c1 (3D coordinates assigned)
C=c1c(=Cc2c([O-])[nH]c(=O)[n-]c2=O)cc(C)n1-c1cccc(C(=O)N2CCc3ccccc32)c1 (nonaromatic ring conformer: 124.93829330899624 kcal/mol)

> <smiles>
C=c1c(=Cc2c(O)[nH]c(=O)[nH]c2=O)cc(C)n1-c1cccc(C(=O)N2CCc3ccccc32)c1

> <score_type>
oracle

> <origin>
adg

> <m_score__min__energy>
-16.239999999999998

> <m_primary>
energy

> <minimizedAffinity>
-11.06861

> <minimizedRMSD>
0.76298

> <CNNscore>
0.6570807099

> <CNNaffinity>
7.5217652321

> <CNN_VS>
4.9424066544

> <CNNaffinity_variance>
0.0279521178

$$$$
17:0


 24 25  0  0  0  0  0  0  0  0999 V2000
   56.0819   29.7898   44.7041 O   0  0  0  0  0  0  0  0  0  0  0  0
   57.3085   29.5316   44.8366 C   0  0  0  0  0  0  0  0  0  0  0  0
   58.2836   30.6139   45.0982 C   0  0  0  0  0  0  0  0  0  0  0  0
   57.9699   31.8629   45.4767 C   0  0  0  0  0  0  0  0  0  0  0  0
   58.7375   32.6719   46.4441 C   0  0  0  0  0  0  0  0  0  0  0  0
   58.9221   32.1809   47.7449 C   0  0  0  0  0  0  0  0  0  0  0  0
   59.6266   32.9340   48.6914 C   0  0  0  0  0  0  0  0  0  0  0  0
   59.8906   32.2460   50.4531 Br  0  0  0  0  0  0  0  0  0  0  0  0
   60.1322   34.1905   48.3475 C   0  0  0  0  0  0  0  0  0  0  0  0
   59.9276   34.7011   47.0635 C   0  0  0  0  0  0  0  0  0  0  0  0
   59.2215   33.9550   46.1144 C   0  0  0  0  0  0  0  0  0  0  0  0
   58.9946   34.4998   44.8538 O   0  0  0  0  0  0  0  0  0  0  0  0
   57.7811   28.1179   44.6529 C   0  0  0  0  0  0  0  0  0  0  0  0
   57.7811   27.3792   45.9644 C   0  0  0  0  0  0  0  0  0  0  0  0
   57.8729   28.0485   47.0300 O   0  0  0  0  0  0  0  0  0  0  0  0
   57.6413   25.8995   46.0448 C   0  0  0  0  0  0  0  0  0  0  0  0
   56.3649   25.3101   46.1252 C   0  0  0  0  0  0  0  0  0  0  0  0
   55.2159   26.0913   46.1106 O   0  0  0  0  0  0  0  0  0  0  0  0
   56.2412   23.9605   46.2028 N   0  0  0  0  0  0  0  0  0  0  0  0
   57.3308   23.1544   46.2071 C   0  0  0  0  0  0  0  0  0  0  0  0
   57.1886   21.9058   46.2763 O   0  0  0  0  0  0  0  0  0  0  0  0
   58.5731   23.6922   46.1396 N   0  0  0  0  0  0  0  0  0  0  0  0
   58.7566   25.0359   46.0632 C   0  0  0  0  0  0  0  0  0  0  0  0
   59.9308   25.4875   46.0328 O   0  0  0  0  0  0  0  0  0  0  0  0
  1  2  2  0
  2  3  1  0
  3  4  2  0
  4  5  1  0
  5  6  2  0
  6  7  1  0
  7  8  1  0
  7  9  2  0
  9 10  1  0
 10 11  2  0
 11 12  1  0
  2 13  1  0
 13 14  1  0
 14 15  2  0
 14 16  1  0
 16 17  2  0
 17 18  1  0
 17 19  1  0
 19 20  1  0
 20 21  2  0
 20 22  1  0
 22 23  1  0
 23 24  2  0
 11  5  1  0
 23 16  1  0
M  CHG 1  12  -1
M  CHG 1  18  -1
M  CHG 1  19  -1
M  CHG 1  22  -1
M  END
> <UniqueID>
16

> <SMILES>
O=C(C=Cc1cc(Br)ccc1[O-])CC(=O)c1c([O-])[n-]c(=O)[n-]c1=O

> <Energy>
45.956445319169084

> <Genealogy>
O=C(C=Cc1cc(Br)ccc1[O-])CC(=O)c1c([O-])[n-]c(=O)[n-]c1=O (protonated)
O=C(C=Cc1cc(Br)ccc1[O-])CC(=O)c1c([O-])[n-]c(=O)[n-]c1=O (3D coordinates assigned)
O=C(C=Cc1cc(Br)ccc1[O-])CC(=O)c1c([O-])[n-]c(=O)[n-]c1=O (optimized conformer: 45.956445319169084 kcal/mol)

> <smiles>
O=C(C=Cc1cc(Br)ccc1O)CC(=O)c1c(O)[nH]c(=O)[nH]c1=O

> <score_type>
oracle

> <origin>
adg

> <m_score__min__energy>
-17.260000000000002

> <m_primary>
energy

> <minimizedAffinity>
-7.55944

> <minimizedRMSD>
0.89954

> <CNNscore>
0.6496583819

> <CNNaffinity>
6.8263721466

> <CNN_VS>
4.4348096848

> <CNNaffinity_variance>
0.6560910344

$$$$
35:0


 29 32  0  0  0  0  0  0  0  0999 V2000
   54.6059   28.6551   55.2378 C   0  0  0  0  0  0  0  0  0  0  0  0
   55.0785   29.2013   54.1062 C   0  0  0  0  0  0  0  0  0  0  0  0
   54.3781   30.0268   53.2124 C   0  0  0  0  0  0  0  0  0  0  0  0
   53.0642   30.3089   53.1118 C   0  0  0  0  0  0  0  0  0  0  0  0
   55.3225   30.5486   52.3437 C   0  0  0  0  0  0  0  0  0  0  0  0
   56.5311   29.9745   52.6762 C   0  0  0  0  0  0  0  0  0  0  0  0
   57.8128   30.2234   51.9397 C   0  0  0  0  0  0  0  0  0  0  0  0
   56.3901   29.1641   53.7504 N   0  0  0  0  0  0  0  0  0  0  0  0
   52.3121   30.4507   51.8543 C   0  0  0  0  0  0  0  0  0  0  0  0
   52.3987   29.6042   50.8100 N   0  0  0  0  0  0  0  0  0  0  0  0
   51.6910   30.2279   49.8429 C   0  0  0  0  0  0  0  0  0  0  0  0
   51.5237   29.7346   48.6961 O   0  0  0  0  0  0  0  0  0  0  0  0
   51.1770   31.4253   50.1994 N   0  0  0  0  0  0  0  0  0  0  0  0
   51.5924   31.5542   51.4718 C   0  0  0  0  0  0  0  0  0  0  0  0
   51.2961   32.6506   52.2775 O   0  0  0  0  0  0  0  0  0  0  0  0
   57.4445   28.4135   54.3818 C   0  0  0  0  0  0  0  0  0  0  0  0
   57.5976   27.0479   54.1057 C   0  0  0  0  0  0  0  0  0  0  0  0
   58.6321   26.3171   54.6947 C   0  0  0  0  0  0  0  0  0  0  0  0
   59.5400   26.9455   55.5692 C   0  0  0  0  0  0  0  0  0  0  0  0
   59.3894   28.3187   55.8308 C   0  0  0  0  0  0  0  0  0  0  0  0
   58.3467   29.0457   55.2476 C   0  0  0  0  0  0  0  0  0  0  0  0
   60.6435   26.1890   56.2224 C   0  0  0  0  0  0  0  0  0  0  0  0
   60.3429   25.3207   57.0936 O   0  0  0  0  0  0  0  0  0  0  0  0
   62.0261   26.3606   55.7995 N   0  0  0  0  0  0  0  0  0  0  0  0
   62.8649   25.1786   56.0576 C   0  0  0  0  0  0  0  0  0  0  0  0
   62.7535   24.2714   54.8397 C   0  0  0  0  0  0  0  0  0  0  0  0
   62.3167   25.1863   53.7044 C   0  0  0  0  0  0  0  0  0  0  0  0
   62.0969   26.5554   54.3406 C   0  0  0  0  0  0  0  0  0  0  0  0
   62.3498   26.6288   56.6897 H   0  0  0  0  0  0  0  0  0  0  0  0
  1  2  2  0
  2  3  1  0
  3  4  2  0
  4  9  1  0
  9 10  1  0
 10 11  1  0
 11 12  2  0
 11 13  1  0
 13 14  1  0
 14 15  1  0
  3  5  1  0
  5  6  2  0
  6  7  1  0
  6  8  1  0
  8 16  1  0
 16 17  2  0
 17 18  1  0
 18 19  2  0
 19 22  1  0
 22 23  2  0
 22 24  1  0
 24 25  1  0
 25 26  1  0
 26 27  1  0
 27 28  1  0
 19 20  1  0
 20 21  2  0
  8  2  1  0
 21 16  1  0
 14  9  2  0
 28 24  1  0
 24 29  1  0
M  CHG 1  10  -1
M  CHG 1  13  -1
M  CHG 1  15  -1
M  CHG 1  24   1
M  END
> <UniqueID>
32

> <SMILES>
C=c1c(=Cc2[n-]c(=O)[n-]c2[O-])cc(C)n1-c1ccc(C(=O)[NH+]2CCCC2)cc1

> <Energy>
135.85632699767322

> <Genealogy>
C=c1c(=Cc2[n-]c(=O)[n-]c2[O-])cc(C)n1-c1ccc(C(=O)[NH+]2CCCC2)cc1 (protonated)
C=c1c(=Cc2[n-]c(=O)[n-]c2[O-])cc(C)n1-c1ccc(C(=O)[NH+]2CCCC2)cc1 (3D coordinates assigned)
C=c1c(=Cc2[n-]c(=O)[n-]c2[O-])cc(C)n1-c1ccc(C(=O)[NH+]2CCCC2)cc1 (nonaromatic ring conformer: 135.85632699767322 kcal/mol)

> <smiles>
C=c1c(=Cc2[nH]c(=O)[nH]c2O)cc(C)n1-c1ccc(C(=O)N2CCCC2)cc1

> <score_type>
oracle

> <origin>
adg

> <m_score__min__energy>
-14.5

> <m_primary>
energy

> <minimizedAffinity>
-3.93465

> <minimizedRMSD>
1.60940

> <CNNscore>
0.1644489467

> <CNNaffinity>
4.7838702202

> <CNN_VS>
0.7867023945

> <CNNaffinity_variance>
0.2958641648

$$$$
37:0


 31 33  0  0  0  0  0  0  0  0999 V2000
   58.4430   29.8257   45.0393 C   0  0  0  0  0  0  0  0  0  0  0  0
   59.7423   29.3003   45.0214 C   0  0  0  0  0  0  0  0  0  0  0  0
   59.9613   27.9448   45.2658 C   0  0  0  0  0  0  0  0  0  0  0  0
   58.8817   27.0930   45.5053 C   0  0  0  0  0  0  0  0  0  0  0  0
   57.5707   27.5868   45.4806 C   0  0  0  0  0  0  0  0  0  0  0  0
   57.3513   28.9640   45.2670 C   0  0  0  0  0  0  0  0  0  0  0  0
   56.0559   29.4714   45.3068 O   0  0  0  0  0  0  0  0  0  0  0  0
   56.4804   26.6838   45.7245 N   0  0  0  0  0  0  0  0  0  0  0  0
   56.5596   25.5953   46.6619 C   0  0  0  0  0  0  0  0  0  0  0  0
   57.5359   25.5099   47.4516 O   0  0  0  0  0  0  0  0  0  0  0  0
   55.6408   26.8158   45.2276 H   0  0  0  0  0  0  0  0  0  0  0  0
   55.5253   24.6090   46.7358 N   0  0  0  0  0  0  0  0  0  0  0  0
   54.7549   24.1446   45.5898 C   0  0  0  0  0  0  0  0  0  0  0  0
   55.5491   23.1116   44.8413 C   0  0  0  0  0  0  0  0  0  0  0  0
   55.9327   23.3474   43.5105 C   0  0  0  0  0  0  0  0  0  0  0  0
   56.6423   22.3765   42.7969 C   0  0  0  0  0  0  0  0  0  0  0  0
   56.9650   21.1599   43.4026 C   0  0  0  0  0  0  0  0  0  0  0  0
   56.5741   20.9091   44.7210 C   0  0  0  0  0  0  0  0  0  0  0  0
   55.8631   21.8765   45.4388 C   0  0  0  0  0  0  0  0  0  0  0  0
   55.4779   21.6067   46.7121 F   0  0  0  0  0  0  0  0  0  0  0  0
   58.2160   31.5533   44.7395 S   0  0  0  0  0  0  0  0  0  0  0  0
   58.1662   31.7619   43.2523 O   0  0  0  0  0  0  0  0  0  0  0  0
   56.9215   32.0243   45.3396 O   0  0  0  0  0  0  0  0  0  0  0  0
   59.0993   33.5062   48.1147 N   0  0  0  0  0  0  0  0  0  0  0  0
   59.3431   32.0700   47.8855 C   0  0  0  0  0  0  0  0  0  0  0  0
   60.1528   31.8167   46.6032 C   0  0  0  0  0  0  0  0  0  0  0  0
   59.5603   32.4557   45.4152 N   0  0  0  0  0  0  0  0  0  0  0  0
   59.2410   33.8785   45.6289 C   0  0  0  0  0  0  0  0  0  0  0  0
   58.4653   34.1331   46.9361 C   0  0  0  0  0  0  0  0  0  0  0  0
   60.8745   33.5445   49.8265 C   0  0  0  0  0  0  0  0  0  0  0  0
   60.3014   34.2292   48.5898 C   0  0  0  0  0  0  0  0  0  0  0  0
 30 31  1  0
 31 24  1  0
 24 25  1  0
 25 26  1  0
 26 27  1  0
 27 21  1  0
 21 22  2  0
 21 23  2  0
 21  1  1  0
  1  2  2  0
  2  3  1  0
  3  4  2  0
  4  5  1  0
  5  8  1  0
  8  9  1  0
  9 10  2  0
  9 12  1  0
 12 13  1  0
 13 14  1  0
 14 15  2  0
 15 16  1  0
 16 17  2  0
 17 18  1  0
 18 19  2  0
 19 20  1  0
  5  6  2  0
  6  7  1  0
 27 28  1  0
 28 29  1  0
 29 24  1  0
  6  1  1  0
 19 14  1  0
  8 11  1  0
M  CHG 1   7  -1
M  CHG 1  12  -1
M  END
> <UniqueID>
34

> <SMILES>
CCN1CCN(S(=O)(=O)c2cccc(NC(=O)[N-]Cc3ccccc3F)c2[O-])CC1

> <Energy>
64.53092919035569

> <Genealogy>
CCN1CCN(S(=O)(=O)c2cccc(NC(=O)[N-]Cc3ccccc3F)c2[O-])CC1 (protonated)
CCN1CCN(S(=O)(=O)c2cccc(NC(=O)[N-]Cc3ccccc3F)c2[O-])CC1 (3D coordinates assigned)
CCN1CCN(S(=O)(=O)c2cccc(NC(=O)[N-]Cc3ccccc3F)c2[O-])CC1 (nonaromatic ring conformer: 64.53092919035569 kcal/mol)

> <smiles>
CCN1CCN(S(=O)(=O)c2cccc(NC(=O)NCc3ccccc3F)c2O)CC1

> <score_type>
oracle

> <origin>
adg

> <m_score__min__energy>
-15.449999999999999

> <m_primary>
energy

> <minimizedAffinity>
-7.50157

> <minimizedRMSD>
1.17335

> <CNNscore>
0.3346440792

> <CNNaffinity>
6.4515604973

> <CNN_VS>
2.1589765549

> <CNNaffinity_variance>
0.0451534204

$$$$
52:0


 32 35  0  0  0  0  0  0  0  0999 V2000
   59.7884   29.9497   47.6147 C   0  0  0  0  0  0  0  0  0  0  0  0
   59.2536   30.1023   48.8973 C   0  0  0  0  0  0  0  0  0  0  0  0
   59.9203   30.8723   49.8497 C   0  0  0  0  0  0  0  0  0  0  0  0
   61.1297   31.5100   49.5316 C   0  0  0  0  0  0  0  0  0  0  0  0
   61.6741   31.3797   48.2282 C   0  0  0  0  0  0  0  0  0  0  0  0
   60.9947   30.5818   47.2871 C   0  0  0  0  0  0  0  0  0  0  0  0
   59.5928   26.9921   47.5247 C   0  0  0  0  0  0  0  0  0  0  0  0
   59.0841   27.7844   46.5694 C   0  0  0  0  0  0  0  0  0  0  0  0
   58.3072   27.3894   45.4683 C   0  0  0  0  0  0  0  0  0  0  0  0
   58.0608   26.1701   44.9521 C   0  0  0  0  0  0  0  0  0  0  0  0
   57.7874   28.5519   44.9224 C   0  0  0  0  0  0  0  0  0  0  0  0
   58.3163   29.6031   45.6433 C   0  0  0  0  0  0  0  0  0  0  0  0
   58.0294   31.0483   45.3708 C   0  0  0  0  0  0  0  0  0  0  0  0
   59.1022   29.1406   46.6409 N   0  0  0  0  0  0  0  0  0  0  0  0
   57.4988   25.0246   45.6871 C   0  0  0  0  0  0  0  0  0  0  0  0
   58.1129   23.8381   45.8452 N   0  0  0  0  0  0  0  0  0  0  0  0
   57.1743   23.0794   46.4510 C   0  0  0  0  0  0  0  0  0  0  0  0
   57.3791   21.8831   46.7836 O   0  0  0  0  0  0  0  0  0  0  0  0
   55.9934   23.7005   46.6631 N   0  0  0  0  0  0  0  0  0  0  0  0
   56.2137   24.9264   46.1603 C   0  0  0  0  0  0  0  0  0  0  0  0
   55.2554   25.9322   46.1283 O   0  0  0  0  0  0  0  0  0  0  0  0
   61.8080   32.2883   50.5867 C   0  0  0  0  0  0  0  0  0  0  0  0
   61.5314   33.5107   50.7193 O   0  0  0  0  0  0  0  0  0  0  0  0
   62.7745   31.6744   51.4583 N   0  0  0  0  0  0  0  0  0  0  0  0
   63.4947   32.4125   52.4789 C   0  0  0  0  0  0  0  0  0  0  0  0
   64.1698   31.3599   53.3496 C   0  0  0  0  0  0  0  0  0  0  0  0
   64.1278   30.0614   52.5498 C   0  0  0  0  0  0  0  0  0  0  0  0
   63.0332   30.2447   51.5079 C   0  0  0  0  0  0  0  0  0  0  0  0
   62.9759   32.0563   47.8455 C   0  0  0  0  0  0  0  0  0  0  0  0
   63.5175   31.4503   46.7251 F   0  0  0  0  0  0  0  0  0  0  0  0
   62.7377   33.3905   47.5715 F   0  0  0  0  0  0  0  0  0  0  0  0
   63.9105   31.9783   48.8635 F   0  0  0  0  0  0  0  0  0  0  0  0
  7  8  2  0
  8  9  1  0
  9 10  2  0
 10 15  1  0
 15 16  1  0
 16 17  1  0
 17 18  2  0
 17 19  1  0
 19 20  1  0
 20 21  1  0
  9 11  1  0
 11 12  2  0
 12 13  1  0
 12 14  1  0
 14  1  1  0
  1  2  2  0
  2  3  1  0
  3  4  2  0
  4 22  1  0
 22 23  2  0
 22 24  1  0
 24 25  1  0
 25 26  1  0
 26 27  1  0
 27 28  1  0
  4  5  1  0
  5 29  1  0
 29 30  1  0
 29 31  1  0
 29 32  1  0
  5  6  2  0
 14  8  1  0
  6  1  1  0
 20 15  2  0
 28 24  1  0
M  CHG 1  16  -1
M  CHG 1  19  -1
M  CHG 1  21  -1
M  END
> <UniqueID>
49

> <SMILES>
C=c1c(=Cc2[n-]c(=O)[n-]c2[O-])cc(C)n1-c1ccc(C(=O)N2CCCC2)c(C(F)(F)F)c1

> <Energy>
135.09565425789665

> <Genealogy>
C=c1c(=Cc2[n-]c(=O)[n-]c2[O-])cc(C)n1-c1ccc(C(=O)N2CCCC2)c(C(F)(F)F)c1 (protonated)
C=c1c(=Cc2[n-]c(=O)[n-]c2[O-])cc(C)n1-c1ccc(C(=O)N2CCCC2)c(C(F)(F)F)c1 (3D coordinates assigned)
C=c1c(=Cc2[n-]c(=O)[n-]c2[O-])cc(C)n1-c1ccc(C(=O)N2CCCC2)c(C(F)(F)F)c1 (nonaromatic ring conformer: 135.09565425789665 kcal/mol)

> <smiles>
C=c1c(=Cc2[nH]c(=O)[nH]c2O)cc(C)n1-c1ccc(C(=O)N2CCCC2)c(C(F)(F)F)c1

> <score_type>
oracle

> <origin>
adg

> <m_score__min__energy>
-15.76

> <m_primary>
energy

> <minimizedAffinity>
-9.35132

> <minimizedRMSD>
1.68027

> <CNNscore>
0.2050085366

> <CNNaffinity>
6.7575302124

> <CNN_VS>
1.3853514194

> <CNNaffinity_variance>
0.0440142862

$$$$
72:0


 29 32  0  0  0  0  0  0  0  0999 V2000
   56.5744   26.6350   46.1828 O   0  0  0  0  0  0  0  0  0  0  0  0
   57.8005   26.4516   45.9390 C   0  0  0  0  0  0  0  0  0  0  0  0
   58.7601   27.4322   46.3794 N   0  0  0  0  0  0  0  0  0  0  0  0
   60.0560   27.5962   45.7047 C   0  0  0  0  0  0  0  0  0  0  0  0
   60.4253   29.0828   45.6641 C   0  0  0  0  0  0  0  0  0  0  0  0
   60.4860   29.6832   47.0189 N   0  0  0  0  0  0  0  0  0  0  0  0
   59.6563   29.0174   48.0545 C   0  0  0  0  0  0  0  0  0  0  0  0
   58.4009   28.3470   47.4709 C   0  0  0  0  0  0  0  0  0  0  0  0
   58.2243   25.2551   45.1215 C   0  0  0  0  0  0  0  0  0  0  0  0
   57.0426   24.5047   44.4956 C   0  0  0  0  0  0  0  0  0  0  0  0
   56.4810   23.5269   45.4274 N   0  0  0  0  0  0  0  0  0  0  0  0
   55.2421   23.5340   45.9713 C   0  0  0  0  0  0  0  0  0  0  0  0
   54.2778   24.4985   45.7144 O   0  0  0  0  0  0  0  0  0  0  0  0
   55.0733   22.4433   46.7998 C   0  0  0  0  0  0  0  0  0  0  0  0
   56.2436   21.7195   46.7357 C   0  0  0  0  0  0  0  0  0  0  0  0
   57.0923   22.4212   45.9018 C   0  0  0  0  0  0  0  0  0  0  0  0
   58.3930   22.0505   45.5809 O   0  0  0  0  0  0  0  0  0  0  0  0
   56.5025   20.4770   47.5379 C   0  0  0  0  0  0  0  0  0  0  0  0
   55.1719   19.8377   47.9874 C   0  0  0  0  0  0  0  0  0  0  0  0
   54.2019   20.8940   48.5674 C   0  0  0  0  0  0  0  0  0  0  0  0
   53.8432   21.9839   47.5272 C   0  0  0  0  0  0  0  0  0  0  0  0
   60.4116   31.1647   47.0200 C   0  0  0  0  0  0  0  0  0  0  0  0
   61.6118   31.8407   47.6567 C   0  0  0  0  0  0  0  0  0  0  0  0
   62.2406   32.9306   47.0225 C   0  0  0  0  0  0  0  0  0  0  0  0
   63.3357   33.5667   47.6190 C   0  0  0  0  0  0  0  0  0  0  0  0
   63.8211   33.1136   48.8487 C   0  0  0  0  0  0  0  0  0  0  0  0
   63.2247   32.0148   49.4741 C   0  0  0  0  0  0  0  0  0  0  0  0
   63.7135   31.5606   50.6911 O   0  0  0  0  0  0  0  0  0  0  0  0
   62.1341   31.3711   48.8761 C   0  0  0  0  0  0  0  0  0  0  0  0
  1  2  2  0
  2  9  1  0
  9 10  1  0
 10 11  1  0
 11 12  1  0
 12 13  1  0
 12 14  2  0
 14 15  1  0
 15 16  2  0
 16 17  1  0
 15 18  1  0
 18 19  1  0
 19 20  1  0
 20 21  1  0
  2  3  1  0
  3  4  1  0
  4  5  1  0
  5  6  1  0
  6 22  1  0
 22 23  1  0
 23 24  2  0
 24 25  1  0
 25 26  2  0
 26 27  1  0
 27 28  1  0
 27 29  2  0
  6  7  1  0
  7  8  1  0
 16 11  1  0
  8  3  1  0
 21 14  1  0
 29 23  1  0
M  CHG 1  13  -1
M  CHG 1  17  -1
M  CHG 1  28  -1
M  END
> <UniqueID>
65

> <SMILES>
O=C(CCn1c([O-])c2c(c1[O-])CCCC2)N1CCN(Cc2cccc([O-])c2)CC1

> <Energy>
94.01657469120504

> <Genealogy>
O=C(CCn1c([O-])c2c(c1[O-])CCCC2)N1CCN(Cc2cccc([O-])c2)CC1 (protonated)
O=C(CCn1c([O-])c2c(c1[O-])CCCC2)N1CCN(Cc2cccc([O-])c2)CC1 (3D coordinates assigned)
O=C(CCn1c([O-])c2c(c1[O-])CCCC2)N1CCN(Cc2cccc([O-])c2)CC1 (nonaromatic ring conformer: 94.01657469120504 kcal/mol)

> <smiles>
O=C(CCn1c(O)c2c(c1O)CCCC2)N1CCN(Cc2cccc(O)c2)CC1

> <score_type>
oracle

> <origin>
adg

> <m_score__min__energy>
-14.800000000000001

> <m_primary>
energy

> <minimizedAffinity>
-7.31025

> <minimizedRMSD>
4.08780

> <CNNscore>
0.0774302334

> <CNNaffinity>
5.4001784325

> <CNN_VS>
0.4181370735

> <CNNaffinity_variance>
0.2912863493

$$$$
4:0


 24 26  0  0  0  0  0  0  0  0999 V2000
   60.3094   28.5483   49.0665 C   0  0  0  0  0  0  0  0  0  0  0  0
   60.1430   29.7124   48.4142 C   0  0  0  0  0  0  0  0  0  0  0  0
   60.0758   29.9003   47.0223 C   0  0  0  0  0  0  0  0  0  0  0  0
   60.0032   29.0140   46.0076 C   0  0  0  0  0  0  0  0  0  0  0  0
   60.0827   31.2677   46.8158 C   0  0  0  0  0  0  0  0  0  0  0  0
   60.1044   31.8626   48.0592 C   0  0  0  0  0  0  0  0  0  0  0  0
   60.1069   33.3438   48.2902 C   0  0  0  0  0  0  0  0  0  0  0  0
   60.1221   30.9238   49.0341 N   0  0  0  0  0  0  0  0  0  0  0  0
   59.1272   27.8274   45.9621 C   0  0  0  0  0  0  0  0  0  0  0  0
   57.7766   27.9312   45.5873 C   0  0  0  0  0  0  0  0  0  0  0  0
   57.2159   29.1668   45.2834 O   0  0  0  0  0  0  0  0  0  0  0  0
   57.0063   26.8156   45.5137 N   0  0  0  0  0  0  0  0  0  0  0  0
   57.5239   25.5878   45.7799 C   0  0  0  0  0  0  0  0  0  0  0  0
   56.7900   24.5692   45.7094 O   0  0  0  0  0  0  0  0  0  0  0  0
   58.8322   25.4603   46.1166 N   0  0  0  0  0  0  0  0  0  0  0  0
   59.6442   26.5450   46.2057 C   0  0  0  0  0  0  0  0  0  0  0  0
   60.8564   26.3895   46.5140 O   0  0  0  0  0  0  0  0  0  0  0  0
   60.2164   31.1946   50.4760 C   0  0  0  0  0  0  0  0  0  0  0  0
   58.9233   30.8644   51.1510 C   0  0  0  0  0  0  0  0  0  0  0  0
   58.6468   29.7031   51.7029 O   0  0  0  0  0  0  0  0  0  0  0  0
   57.4575   29.7046   52.2331 N   0  0  0  0  0  0  0  0  0  0  0  0
   56.9521   30.9297   52.0102 C   0  0  0  0  0  0  0  0  0  0  0  0
   55.8087   31.2942   52.3876 O   0  0  0  0  0  0  0  0  0  0  0  0
   57.8492   31.7135   51.3217 C   0  0  0  0  0  0  0  0  0  0  0  0
  1  2  2  0
  2  3  1  0
  3  4  2  0
  4  9  1  0
  9 10  2  0
 10 11  1  0
 10 12  1  0
 12 13  1  0
 13 14  2  0
 13 15  1  0
 15 16  1  0
 16 17  2  0
  3  5  1  0
  5  6  2  0
  6  7  1  0
  6  8  1  0
  8 18  1  0
 18 19  1  0
 19 20  1  0
 20 21  1  0
 21 22  1  0
 22 23  2  0
 22 24  1  0
  8  2  1  0
 24 19  2  0
 16  9  1  0
M  CHG 1  11  -1
M  CHG 1  12  -1
M  CHG 1  15  -1
M  CHG 1  21  -1
M  END
> <UniqueID>
3

> <SMILES>
C=c1/c(=C\c2c([O-])[n-]c(=O)[n-]c2=O)cc(C)n1Cc1cc(=O)[n-]o1

> <Energy>
109.42731552217909

> <Genealogy>
C=c1c(=Cc2c([O-])[n-]c(=O)[n-]c2=O)cc(C)n1Cc1cc(=O)[n-]o1 (protonated)
C=c1/c(=C\c2c([O-])[n-]c(=O)[n-]c2=O)cc(C)n1Cc1cc(=O)[n-]o1 (cis-trans isomerization)
C=c1/c(=C\c2c([O-])[n-]c(=O)[n-]c2=O)cc(C)n1Cc1cc(=O)[n-]o1 (3D coordinates assigned)
C=c1/c(=C\c2c([O-])[n-]c(=O)[n-]c2=O)cc(C)n1Cc1cc(=O)[n-]o1 (optimized conformer: 109.42731552217909 kcal/mol)

> <smiles>
C=c1c(=Cc2c(O)[nH]c(=O)[nH]c2=O)cc(C)n1Cc1cc(=O)[nH]o1

> <score_type>
oracle

> <origin>
adg

> <m_score__min__energy>
-16.379999999999999

> <m_primary>
energy

> <minimizedAffinity>
-6.74981

> <minimizedRMSD>
1.59577

> <CNNscore>
0.3810846806

> <CNNaffinity>
6.7033181190

> <CNN_VS>
2.5545318127

> <CNNaffinity_variance>
0.9818397164

$$$$
24:0


 28 30  0  0  0  0  0  0  0  0999 V2000
   58.5495   29.0902   44.9575 C   0  0  0  0  0  0  0  0  0  0  0  0
   57.3957   29.3922   44.2167 C   0  0  0  0  0  0  0  0  0  0  0  0
   56.9413   30.7085   44.1165 C   0  0  0  0  0  0  0  0  0  0  0  0
   57.6388   31.7419   44.7442 C   0  0  0  0  0  0  0  0  0  0  0  0
   58.7985   31.4704   45.4748 C   0  0  0  0  0  0  0  0  0  0  0  0
   59.2535   30.1422   45.5805 C   0  0  0  0  0  0  0  0  0  0  0  0
   58.1920   26.6222   44.8796 C   0  0  0  0  0  0  0  0  0  0  0  0
   59.0064   27.6787   45.0161 C   0  0  0  0  0  0  0  0  0  0  0  0
   57.7991   25.7774   46.0290 C   0  0  0  0  0  0  0  0  0  0  0  0
   58.0116   26.1750   47.2061 O   0  0  0  0  0  0  0  0  0  0  0  0
   57.1169   24.4767   45.8168 C   0  0  0  0  0  0  0  0  0  0  0  0
   55.7115   24.3942   45.8414 C   0  0  0  0  0  0  0  0  0  0  0  0
   54.9346   25.5286   46.0474 O   0  0  0  0  0  0  0  0  0  0  0  0
   55.0963   23.1993   45.6447 N   0  0  0  0  0  0  0  0  0  0  0  0
   55.8129   22.0683   45.4277 C   0  0  0  0  0  0  0  0  0  0  0  0
   55.2189   20.9745   45.2444 O   0  0  0  0  0  0  0  0  0  0  0  0
   57.1688   22.1151   45.4101 N   0  0  0  0  0  0  0  0  0  0  0  0
   57.8350   23.2831   45.6028 C   0  0  0  0  0  0  0  0  0  0  0  0
   59.0947   23.2745   45.6101 O   0  0  0  0  0  0  0  0  0  0  0  0
   59.4973   32.5671   46.0841 N   0  0  0  0  0  0  0  0  0  0  0  0
   58.9225   33.4981   47.4292 S   0  0  0  0  0  0  0  0  0  0  0  0
   57.4322   33.3338   47.5452 O   0  0  0  0  0  0  0  0  0  0  0  0
   59.2389   34.9483   47.2006 O   0  0  0  0  0  0  0  0  0  0  0  0
   59.7103   32.9689   48.9035 C   0  0  0  0  0  0  0  0  0  0  0  0
   59.4626   31.4825   49.6451 S   0  0  0  0  0  0  0  0  0  0  0  0
   60.4809   31.7711   50.9541 C   0  0  0  0  0  0  0  0  0  0  0  0
   61.0202   33.0446   50.8204 C   0  0  0  0  0  0  0  0  0  0  0  0
   60.5897   33.7180   49.6715 C   0  0  0  0  0  0  0  0  0  0  0  0
  7  9  1  0
  9 10  2  0
  9 11  1  0
 11 12  2  0
 12 13  1  0
 12 14  1  0
 14 15  1  0
 15 16  2  0
 15 17  1  0
 17 18  1  0
 18 19  2  0
  7  8  2  0
  8  1  1  0
  1  2  2  0
  2  3  1  0
  3  4  2  0
  4  5  1  0
  5 20  1  0
 20 21  1  0
 21 22  2  0
 21 23  2  0
 21 24  1  0
 24 25  1  0
 25 26  1  0
 26 27  2  0
 27 28  1  0
  5  6  2  0
 18 11  1  0
  6  1  1  0
 28 24  2  0
M  CHG 1  13  -1
M  CHG 1  14  -1
M  CHG 1  17  -1
M  CHG 1  20  -1
M  END
> <UniqueID>
20

> <SMILES>
O=C(/C=C/c1cccc([N-]S(=O)(=O)c2cccs2)c1)c1c([O-])[n-]c(=O)[n-]c1=O

> <Energy>
77.64110479581653

> <Genealogy>
O=C(C=Cc1cccc([N-]S(=O)(=O)c2cccs2)c1)c1c([O-])[n-]c(=O)[n-]c1=O (protonated)
O=C(/C=C/c1cccc([N-]S(=O)(=O)c2cccs2)c1)c1c([O-])[n-]c(=O)[n-]c1=O (cis-trans isomerization)
O=C(/C=C/c1cccc([N-]S(=O)(=O)c2cccs2)c1)c1c([O-])[n-]c(=O)[n-]c1=O (3D coordinates assigned)
O=C(/C=C/c1cccc([N-]S(=O)(=O)c2cccs2)c1)c1c([O-])[n-]c(=O)[n-]c1=O (optimized conformer: 77.64110479581653 kcal/mol)

> <smiles>
O=C(C=Cc1cccc(NS(=O)(=O)c2cccs2)c1)c1c(O)[nH]c(=O)[nH]c1=O

> <score_type>
oracle

> <origin>
adg

> <m_score__min__energy>
-17.829999999999998

> <m_primary>
energy

> <minimizedAffinity>
-8.02076

> <minimizedRMSD>
1.76240

> <CNNscore>
0.3995847106

> <CNNaffinity>
6.5813560486

> <CNN_VS>
2.6298091412

> <CNNaffinity_variance>
0.3083987534

$$$$
30:0


 26 28  0  0  0  0  0  0  0  0999 V2000
   58.8811   31.9943   46.7206 N   0  0  0  0  0  0  0  0  0  0  0  0
   58.4110   32.3532   45.5016 C   0  0  0  0  0  0  0  0  0  0  0  0
   57.9135   33.7199   45.1340 C   0  0  0  0  0  0  0  0  0  0  0  0
   58.4048   31.2708   44.6449 C   0  0  0  0  0  0  0  0  0  0  0  0
   58.8771   30.1880   45.3702 C   0  0  0  0  0  0  0  0  0  0  0  0
   59.0562   28.9361   44.9036 C   0  0  0  0  0  0  0  0  0  0  0  0
   59.1565   30.6638   46.6547 C   0  0  0  0  0  0  0  0  0  0  0  0
   59.5917   29.9309   47.6918 C   0  0  0  0  0  0  0  0  0  0  0  0
   58.5253   27.7293   45.5775 C   0  0  0  0  0  0  0  0  0  0  0  0
   57.1436   27.4874   45.5966 C   0  0  0  0  0  0  0  0  0  0  0  0
   56.2579   28.3895   45.0177 O   0  0  0  0  0  0  0  0  0  0  0  0
   56.6597   26.3679   46.1945 N   0  0  0  0  0  0  0  0  0  0  0  0
   57.4938   25.4630   46.7672 C   0  0  0  0  0  0  0  0  0  0  0  0
   56.8807   24.1292   47.4818 S   0  0  0  0  0  0  0  0  0  0  0  0
   58.8351   25.6599   46.7377 N   0  0  0  0  0  0  0  0  0  0  0  0
   59.3696   26.7615   46.1506 C   0  0  0  0  0  0  0  0  0  0  0  0
   60.6225   26.8934   46.1124 O   0  0  0  0  0  0  0  0  0  0  0  0
   59.0289   32.8793   47.8889 C   0  0  0  0  0  0  0  0  0  0  0  0
   60.0277   33.6213   50.5164 O   0  0  0  0  0  0  0  0  0  0  0  0
   60.9264   33.5588   49.4532 C   0  0  0  0  0  0  0  0  0  0  0  0
   62.2821   33.8444   49.6716 C   0  0  0  0  0  0  0  0  0  0  0  0
   63.1977   33.7711   48.6207 C   0  0  0  0  0  0  0  0  0  0  0  0
   62.7668   33.4078   47.3435 C   0  0  0  0  0  0  0  0  0  0  0  0
   61.4181   33.1219   47.1145 C   0  0  0  0  0  0  0  0  0  0  0  0
   60.4807   33.2079   48.1601 C   0  0  0  0  0  0  0  0  0  0  0  0
   60.3298   33.8547   51.3721 H   0  0  0  0  0  0  0  0  0  0  0  0
 19 20  1  0
 20 21  2  0
 21 22  1  0
 22 23  2  0
 23 24  1  0
 24 25  2  0
 25 18  1  0
 18  1  1  0
  1  2  1  0
  2  3  1  0
  2  4  2  0
  4  5  1  0
  5  6  2  0
  6  9  1  0
  9 10  2  0
 10 11  1  0
 10 12  1  0
 12 13  1  0
 13 14  2  0
 13 15  1  0
 15 16  1  0
 16 17  2  0
  5  7  1  0
  7  8  2  0
 25 20  1  0
  7  1  1  0
 16  9  1  0
 19 26  1  0
M  CHG 1  11  -1
M  CHG 1  12  -1
M  CHG 1  15  -1
M  END
> <UniqueID>
26

> <SMILES>
C=c1/c(=C/c2c([O-])[n-]c(=S)[n-]c2=O)cc(C)n1Cc1ccccc1O

> <Energy>
80.28924064215701

> <Genealogy>
C=c1c(=Cc2c([O-])[n-]c(=S)[n-]c2=O)cc(C)n1Cc1ccccc1O (protonated)
C=c1/c(=C/c2c([O-])[n-]c(=S)[n-]c2=O)cc(C)n1Cc1ccccc1O (cis-trans isomerization)
C=c1/c(=C/c2c([O-])[n-]c(=S)[n-]c2=O)cc(C)n1Cc1ccccc1O (3D coordinates assigned)
C=c1/c(=C/c2c([O-])[n-]c(=S)[n-]c2=O)cc(C)n1Cc1ccccc1O (optimized conformer: 80.28924064215701 kcal/mol)

> <smiles>
C=c1c(=Cc2c(O)[nH]c(=S)[nH]c2=O)cc(C)n1Cc1ccccc1O

> <score_type>
oracle

> <origin>
adg

> <m_score__min__energy>
-14.67

> <m_primary>
energy

> <minimizedAffinity>
-8.05037

> <minimizedRMSD>
1.12655

> <CNNscore>
0.6784166694

> <CNNaffinity>
6.9922156334

> <CNN_VS>
4.7436356544

> <CNNaffinity_variance>
0.2776297331

$$$$
33:0


 27 29  0  0  0  0  0  0  0  0999 V2000
   57.8892   29.3169   45.3360 C   0  0  0  0  0  0  0  0  0  0  0  0
   58.4786   28.0322   45.2535 C   0  0  0  0  0  0  0  0  0  0  0  0
   59.4212   27.6341   46.2039 C   0  0  0  0  0  0  0  0  0  0  0  0
   59.7431   28.4856   47.2522 C   0  0  0  0  0  0  0  0  0  0  0  0
   59.1899   29.7204   47.3160 N   0  0  0  0  0  0  0  0  0  0  0  0
   58.3101   30.1890   46.3910 C   0  0  0  0  0  0  0  0  0  0  0  0
   57.9237   31.4304   46.5256 N   0  0  0  0  0  0  0  0  0  0  0  0
   58.6784   32.6433   46.4029 C   0  0  0  0  0  0  0  0  0  0  0  0
   58.6511   33.3504   45.1942 C   0  0  0  0  0  0  0  0  0  0  0  0
   59.3404   34.5607   45.0709 C   0  0  0  0  0  0  0  0  0  0  0  0
   60.0390   35.0829   46.1632 C   0  0  0  0  0  0  0  0  0  0  0  0
   60.0371   34.4025   47.3857 C   0  0  0  0  0  0  0  0  0  0  0  0
   59.3471   33.1929   47.5122 C   0  0  0  0  0  0  0  0  0  0  0  0
   59.3224   32.5601   48.7131 F   0  0  0  0  0  0  0  0  0  0  0  0
   55.4252   29.3764   44.8169 N   0  0  0  0  0  0  0  0  0  0  0  0
   56.7711   29.6459   44.4296 C   0  0  0  0  0  0  0  0  0  0  0  0
   57.0034   30.1832   43.3131 O   0  0  0  0  0  0  0  0  0  0  0  0
   54.6840   29.5981   44.2080 H   0  0  0  0  0  0  0  0  0  0  0  0
   58.0323   26.8393   43.9760 S   0  0  0  0  0  0  0  0  0  0  0  0
   57.6360   25.5461   45.1574 C   0  0  0  0  0  0  0  0  0  0  0  0
   58.4167   24.4370   45.2252 N   0  0  0  0  0  0  0  0  0  0  0  0
   58.1517   23.4566   46.0901 N   0  0  0  0  0  0  0  0  0  0  0  0
   57.0863   23.5405   46.9277 C   0  0  0  0  0  0  0  0  0  0  0  0
   56.8495   22.6121   47.7428 O   0  0  0  0  0  0  0  0  0  0  0  0
   56.2761   24.6270   46.8777 N   0  0  0  0  0  0  0  0  0  0  0  0
   56.5264   25.6347   46.0040 C   0  0  0  0  0  0  0  0  0  0  0  0
   55.7518   26.6259   45.9552 O   0  0  0  0  0  0  0  0  0  0  0  0
 15 16  1  0
 16 17  2  0
 16  1  1  0
  1  2  2  0
  2 19  1  0
 19 20  1  0
 20 21  2  0
 21 22  1  0
 22 23  1  0
 23 24  2  0
 23 25  1  0
 25 26  1  0
 26 27  2  0
  2  3  1  0
  3  4  2  0
  4  5  1  0
  5  6  1  0
  6  7  2  0
  7  8  1  0
  8  9  2  0
  9 10  1  0
 10 11  2  0
 11 12  1  0
 12 13  2  0
 13 14  1  0
  6  1  1  0
 13  8  1  0
 26 20  1  0
 15 18  1  0
M  CHG 1   5  -1
M  CHG 1  15  -1
M  CHG 1  22  -1
M  CHG 1  25  -1
M  END
> <UniqueID>
29

> <SMILES>
[NH-]C(=O)c1c(Sc2n[n-]c(=O)[n-]c2=O)cc[n-]/c1=N/c1ccccc1F

> <Energy>
59.13452405651088

> <Genealogy>
[NH-]C(=O)c1c(Sc2n[n-]c(=O)[n-]c2=O)cc[n-]c1=Nc1ccccc1F (protonated)
[NH-]C(=O)c1c(Sc2n[n-]c(=O)[n-]c2=O)cc[n-]/c1=N/c1ccccc1F (cis-trans isomerization)
[NH-]C(=O)c1c(Sc2n[n-]c(=O)[n-]c2=O)cc[n-]/c1=N/c1ccccc1F (3D coordinates assigned)
[NH-]C(=O)c1c(Sc2n[n-]c(=O)[n-]c2=O)cc[n-]/c1=N/c1ccccc1F (optimized conformer: 59.13452405651088 kcal/mol)

> <smiles>
NC(=O)c1c(Sc2n[nH]c(=O)[nH]c2=O)cc[nH]c1=Nc1ccccc1F

> <score_type>
oracle

> <origin>
adg

> <m_score__min__energy>
-16.460000000000001

> <m_primary>
energy

> <minimizedAffinity>
-8.50116

> <minimizedRMSD>
0.43735

> <CNNscore>
0.7581110001

> <CNNaffinity>
6.9485549927

> <CNN_VS>
5.2677760124

> <CNNaffinity_variance>
0.0254312456

$$$$
47:0


 30 32  0  0  0  0  0  0  0  0999 V2000
   57.8065   29.5551   45.1660 C   0  0  0  0  0  0  0  0  0  0  0  0
   57.4737   29.1453   43.8706 C   0  0  0  0  0  0  0  0  0  0  0  0
   57.8148   27.8653   43.4275 C   0  0  0  0  0  0  0  0  0  0  0  0
   58.4616   26.9740   44.2876 C   0  0  0  0  0  0  0  0  0  0  0  0
   58.7535   27.3520   45.6082 C   0  0  0  0  0  0  0  0  0  0  0  0
   58.4272   28.6469   46.0404 C   0  0  0  0  0  0  0  0  0  0  0  0
   57.8453   32.5230   43.3764 C   0  0  0  0  0  0  0  0  0  0  0  0
   58.2917   32.8345   44.5963 C   0  0  0  0  0  0  0  0  0  0  0  0
   58.9522   34.0869   44.7843 N   0  0  0  0  0  0  0  0  0  0  0  0
   59.4399   34.4988   46.0611 C   0  0  0  0  0  0  0  0  0  0  0  0
   59.9816   35.6307   46.1750 O   0  0  0  0  0  0  0  0  0  0  0  0
   59.3215   33.6268   47.2010 N   0  0  0  0  0  0  0  0  0  0  0  0
   59.8839   34.0318   48.4937 C   0  0  0  0  0  0  0  0  0  0  0  0
   58.8012   32.2950   47.0214 C   0  0  0  0  0  0  0  0  0  0  0  0
   59.0001   31.4236   47.9117 O   0  0  0  0  0  0  0  0  0  0  0  0
   58.1063   31.9309   45.7581 C   0  0  0  0  0  0  0  0  0  0  0  0
   57.3847   30.8504   45.6192 N   0  0  0  0  0  0  0  0  0  0  0  0
   59.4221   26.4159   46.5326 C   0  0  0  0  0  0  0  0  0  0  0  0
   60.6805   26.4002   46.5849 O   0  0  0  0  0  0  0  0  0  0  0  0
   58.6850   25.5546   47.4082 N   0  0  0  0  0  0  0  0  0  0  0  0
   57.3047   25.1342   47.1873 C   0  0  0  0  0  0  0  0  0  0  0  0
   57.2458   24.0554   46.1053 C   0  0  0  0  0  0  0  0  0  0  0  0
   56.1082   23.0921   46.3480 C   0  0  0  0  0  0  0  0  0  0  0  0
   56.3879   21.7741   46.7491 C   0  0  0  0  0  0  0  0  0  0  0  0
   55.3509   20.8566   46.9410 C   0  0  0  0  0  0  0  0  0  0  0  0
   54.0243   21.2472   46.7380 C   0  0  0  0  0  0  0  0  0  0  0  0
   52.9930   20.3376   46.9366 O   0  0  0  0  0  0  0  0  0  0  0  0
   53.7348   22.5540   46.3350 C   0  0  0  0  0  0  0  0  0  0  0  0
   54.7683   23.4757   46.1344 C   0  0  0  0  0  0  0  0  0  0  0  0
   54.4548   24.7686   45.7244 O   0  0  0  0  0  0  0  0  0  0  0  0
  7  8  2  0
  8  9  1  0
  9 10  1  0
 10 11  2  0
 10 12  1  0
 12 13  1  0
 12 14  1  0
 14 15  2  0
 14 16  1  0
 16 17  2  0
 17  1  1  0
  1  2  2  0
  2  3  1  0
  3  4  2  0
  4  5  1  0
  5 18  1  0
 18 19  2  0
 18 20  1  0
 20 21  1  0
 21 22  1  0
 22 23  1  0
 23 24  2  0
 24 25  1  0
 25 26  2  0
 26 27  1  0
 26 28  1  0
 28 29  2  0
 29 30  1  0
  5  6  2  0
 16  8  1  0
  6  1  1  0
 29 23  1  0
M  CHG 1   9  -1
M  CHG 1  20  -1
M  CHG 1  27  -1
M  CHG 1  30  -1
M  END
> <UniqueID>
42

> <SMILES>
C=C1[N-]C(=O)N(C)C(=O)C1=Nc1cccc(C(=O)[N-]CCc2ccc([O-])cc2[O-])c1

> <Energy>
59.2490562739288

> <Genealogy>
C=C1[N-]C(=O)N(C)C(=O)C1=Nc1cccc(C(=O)[N-]CCc2ccc([O-])cc2[O-])c1 (protonated)
C=C1[N-]C(=O)N(C)C(=O)C1=Nc1cccc(C(=O)[N-]CCc2ccc([O-])cc2[O-])c1 (3D coordinates assigned)
C=C1[N-]C(=O)N(C)C(=O)C1=Nc1cccc(C(=O)[N-]CCc2ccc([O-])cc2[O-])c1 (nonaromatic ring conformer: 59.2490562739288 kcal/mol)

> <smiles>
C=C1NC(=O)N(C)C(=O)C1=Nc1cccc(C(=O)NCCc2ccc(O)cc2O)c1

> <score_type>
oracle

> <origin>
adg

> <m_score__min__energy>
-17.390000000000001

> <m_primary>
energy

> <minimizedAffinity>
-6.81464

> <minimizedRMSD>
1.10912

> <CNNscore>
0.0948479623

> <CNNaffinity>
5.8352026939

> <CNN_VS>
0.5534570813

> <CNNaffinity_variance>
0.2308423519

$$$$
54:0


 31 34  0  0  0  0  0  0  0  0999 V2000
   56.9383   31.1875   51.9812 C   0  0  0  0  0  0  0  0  0  0  0  0
   57.7912   30.1866   51.4811 C   0  0  0  0  0  0  0  0  0  0  0  0
   59.1592   30.4326   51.3342 C   0  0  0  0  0  0  0  0  0  0  0  0
   59.7021   31.6744   51.7005 C   0  0  0  0  0  0  0  0  0  0  0  0
   58.8536   32.6649   52.2219 C   0  0  0  0  0  0  0  0  0  0  0  0
   57.4854   32.4203   52.3645 C   0  0  0  0  0  0  0  0  0  0  0  0
   61.1155   31.9216   51.5597 N   0  0  0  0  0  0  0  0  0  0  0  0
   61.6212   33.2914   51.7305 C   0  0  0  0  0  0  0  0  0  0  0  0
   63.1349   33.3486   51.5313 C   0  0  0  0  0  0  0  0  0  0  0  0
   63.4788   32.5304   50.3592 N   0  0  0  0  0  0  0  0  0  0  0  0
   63.2630   31.0856   50.5896 C   0  0  0  0  0  0  0  0  0  0  0  0
   62.0548   30.7918   51.5083 C   0  0  0  0  0  0  0  0  0  0  0  0
   64.8040   32.8436   49.7797 C   0  0  0  0  0  0  0  0  0  0  0  0
   65.9625   32.6154   50.7291 C   0  0  0  0  0  0  0  0  0  0  0  0
   66.3191   31.3107   51.1144 C   0  0  0  0  0  0  0  0  0  0  0  0
   67.3976   31.0984   51.9790 C   0  0  0  0  0  0  0  0  0  0  0  0
   68.1328   32.1842   52.4610 C   0  0  0  0  0  0  0  0  0  0  0  0
   67.7950   33.4846   52.0743 C   0  0  0  0  0  0  0  0  0  0  0  0
   66.7189   33.6998   51.2076 C   0  0  0  0  0  0  0  0  0  0  0  0
   55.7128   29.4971   54.0041 O   0  0  0  0  0  0  0  0  0  0  0  0
   54.9767   30.2162   53.2742 C   0  0  0  0  0  0  0  0  0  0  0  0
   55.5312   30.9528   52.1726 N   0  0  0  0  0  0  0  0  0  0  0  0
   54.9082   31.3210   51.5051 H   0  0  0  0  0  0  0  0  0  0  0  0
   53.5118   30.3044   53.5670 C   0  0  0  0  0  0  0  0  0  0  0  0
   52.7447   30.4536   52.2900 C   0  0  0  0  0  0  0  0  0  0  0  0
   52.9344   29.6864   51.2001 N   0  0  0  0  0  0  0  0  0  0  0  0
   52.0563   30.1923   50.3079 C   0  0  0  0  0  0  0  0  0  0  0  0
   51.9381   29.7366   49.1393 O   0  0  0  0  0  0  0  0  0  0  0  0
   51.3172   31.2323   50.7617 N   0  0  0  0  0  0  0  0  0  0  0  0
   51.7696   31.3861   52.0165 C   0  0  0  0  0  0  0  0  0  0  0  0
   51.3004   32.3599   52.8919 O   0  0  0  0  0  0  0  0  0  0  0  0
 20 21  2  0
 21 24  1  0
 24 25  1  0
 25 26  1  0
 26 27  1  0
 27 28  2  0
 27 29  1  0
 29 30  1  0
 30 31  1  0
 21 22  1  0
 22  1  1  0
  1  2  2  0
  2  3  1  0
  3  4  2  0
  4  7  1  0
  7  8  1  0
  8  9  1  0
  9 10  1  0
 10 13  1  0
 13 14  1  0
 14 15  2  0
 15 16  1  0
 16 17  2  0
 17 18  1  0
 18 19  2  0
 10 11  1  0
 11 12  1  0
  4  5  1  0
  5  6  2  0
 30 25  2  0
  6  1  1  0
 12  7  1  0
 19 14  1  0
 22 23  1  0
M  CHG 1  26  -1
M  CHG 1  29  -1
M  CHG 1  31  -1
M  END
> <UniqueID>
49

> <SMILES>
O=C(Cc1[n-]c(=O)[n-]c1[O-])Nc1ccc(N2CCN(Cc3ccccc3)CC2)cc1

> <Energy>
98.38497369008246

> <Genealogy>
O=C(Cc1[n-]c(=O)[n-]c1[O-])Nc1ccc(N2CCN(Cc3ccccc3)CC2)cc1 (protonated)
O=C(Cc1[n-]c(=O)[n-]c1[O-])Nc1ccc(N2CCN(Cc3ccccc3)CC2)cc1 (3D coordinates assigned)
O=C(Cc1[n-]c(=O)[n-]c1[O-])Nc1ccc(N2CCN(Cc3ccccc3)CC2)cc1 (nonaromatic ring conformer: 98.38497369008246 kcal/mol)

> <smiles>
O=C(Cc1[nH]c(=O)[nH]c1O)Nc1ccc(N2CCN(Cc3ccccc3)CC2)cc1

> <score_type>
oracle

> <origin>
adg

> <m_score__min__energy>
-16.559999999999999

> <m_primary>
energy

> <minimizedAffinity>
-5.87835

> <minimizedRMSD>
1.30151

> <CNNscore>
0.1617633551

> <CNNaffinity>
4.5970726013

> <CNN_VS>
0.7436378598

> <CNNaffinity_variance>
0.8893814087

$$$$
58:0


 32 35  0  0  0  0  0  0  0  0999 V2000
   59.5893   26.3096   47.7494 C   0  0  0  0  0  0  0  0  0  0  0  0
   59.0292   26.8267   46.6434 C   0  0  0  0  0  0  0  0  0  0  0  0
   58.3117   26.1393   45.6510 C   0  0  0  0  0  0  0  0  0  0  0  0
   58.1311   24.8196   45.4385 C   0  0  0  0  0  0  0  0  0  0  0  0
   57.7636   27.1088   44.8271 C   0  0  0  0  0  0  0  0  0  0  0  0
   58.2034   28.3282   45.2952 C   0  0  0  0  0  0  0  0  0  0  0  0
   57.8551   29.6509   44.6810 C   0  0  0  0  0  0  0  0  0  0  0  0
   58.9702   28.1615   46.3965 N   0  0  0  0  0  0  0  0  0  0  0  0
   56.8545   24.0937   45.5794 C   0  0  0  0  0  0  0  0  0  0  0  0
   56.3097   23.8625   46.8494 C   0  0  0  0  0  0  0  0  0  0  0  0
   56.9866   24.2676   47.9951 O   0  0  0  0  0  0  0  0  0  0  0  0
   55.1132   23.2302   46.9705 N   0  0  0  0  0  0  0  0  0  0  0  0
   54.4198   22.8257   45.8763 C   0  0  0  0  0  0  0  0  0  0  0  0
   53.3164   22.2384   46.0132 O   0  0  0  0  0  0  0  0  0  0  0  0
   54.9136   23.0626   44.6335 N   0  0  0  0  0  0  0  0  0  0  0  0
   56.1040   23.6924   44.4582 C   0  0  0  0  0  0  0  0  0  0  0  0
   56.5200   23.9147   43.2905 O   0  0  0  0  0  0  0  0  0  0  0  0
   59.5841   29.2153   47.1585 C   0  0  0  0  0  0  0  0  0  0  0  0
   60.6672   29.9375   46.6385 C   0  0  0  0  0  0  0  0  0  0  0  0
   61.2430   30.9280   47.3709 N   0  0  0  0  0  0  0  0  0  0  0  0
   60.7989   31.2493   48.6191 C   0  0  0  0  0  0  0  0  0  0  0  0
   59.7228   30.5527   49.1730 C   0  0  0  0  0  0  0  0  0  0  0  0
   59.1144   29.5328   48.4397 C   0  0  0  0  0  0  0  0  0  0  0  0
   61.4094   32.2704   49.3541 O   0  0  0  0  0  0  0  0  0  0  0  0
   60.8907   33.5958   49.4080 C   0  0  0  0  0  0  0  0  0  0  0  0
   60.8144   34.1656   47.9868 C   0  0  0  0  0  0  0  0  0  0  0  0
   59.4417   34.5164   47.5555 N   0  0  0  0  0  0  0  0  0  0  0  0
   59.3564   35.2135   46.2550 C   0  0  0  0  0  0  0  0  0  0  0  0
   59.1362   34.2515   45.0618 C   0  0  0  0  0  0  0  0  0  0  0  0
   58.8772   32.9180   45.4550 O   0  0  0  0  0  0  0  0  0  0  0  0
   57.8744   32.9051   46.4450 C   0  0  0  0  0  0  0  0  0  0  0  0
   58.4307   33.4546   47.7643 C   0  0  0  0  0  0  0  0  0  0  0  0
  1  2  2  0
  2  3  1  0
  3  4  2  0
  4  9  1  0
  9 10  2  0
 10 11  1  0
 10 12  1  0
 12 13  1  0
 13 14  2  0
 13 15  1  0
 15 16  1  0
 16 17  2  0
  3  5  1  0
  5  6  2  0
  6  7  1  0
  6  8  1  0
  8 18  1  0
 18 19  2  0
 19 20  1  0
 20 21  2  0
 21 24  1  0
 24 25  1  0
 25 26  1  0
 26 27  1  0
 27 28  1  0
 28 29  1  0
 29 30  1  0
 30 31  1  0
 31 32  1  0
 21 22  1  0
 22 23  2  0
  8  2  1  0
 23 18  1  0
 16  9  1  0
 32 27  1  0
M  CHG 1  11  -1
M  CHG 1  12  -1
M  CHG 1  15  -1
M  END
> <UniqueID>
53

> <SMILES>
C=c1/c(=C\c2c([O-])[n-]c(=O)[n-]c2=O)cc(C)n1-c1ccc(OCCN2CCOCC2)nc1

> <Energy>
119.1765927171703

> <Genealogy>
C=c1c(=Cc2c([O-])[n-]c(=O)[n-]c2=O)cc(C)n1-c1ccc(OCCN2CCOCC2)nc1 (protonated)
C=c1/c(=C\c2c([O-])[n-]c(=O)[n-]c2=O)cc(C)n1-c1ccc(OCCN2CCOCC2)nc1 (cis-trans isomerization)
C=c1/c(=C\c2c([O-])[n-]c(=O)[n-]c2=O)cc(C)n1-c1ccc(OCCN2CCOCC2)nc1 (3D coordinates assigned)
C=c1/c(=C\c2c([O-])[n-]c(=O)[n-]c2=O)cc(C)n1-c1ccc(OCCN2CCOCC2)nc1 (nonaromatic ring conformer: 119.1765927171703 kcal/mol)

> <smiles>
C=c1c(=Cc2c(O)[nH]c(=O)[nH]c2=O)cc(C)n1-c1ccc(OCCN2CCOCC2)nc1

> <score_type>
oracle

> <origin>
adg

> <m_score__min__energy>
-15.66

> <m_primary>
energy

> <minimizedAffinity>
-8.04132

> <minimizedRMSD>
1.13981

> <CNNscore>
0.0787266865

> <CNNaffinity>
6.0810704231

> <CNN_VS>
0.4787425399

> <CNNaffinity_variance>
0.3380270898

$$$$
61:0


 32 35  0  0  0  0  0  0  0  0999 V2000
   59.0446   27.4967   47.3126 C   0  0  0  0  0  0  0  0  0  0  0  0
   58.5670   27.9934   46.1599 C   0  0  0  0  0  0  0  0  0  0  0  0
   58.0153   27.2743   45.0856 C   0  0  0  0  0  0  0  0  0  0  0  0
   57.9668   25.9502   44.8372 C   0  0  0  0  0  0  0  0  0  0  0  0
   57.4830   28.2175   44.2211 C   0  0  0  0  0  0  0  0  0  0  0  0
   57.7713   29.4565   44.7521 C   0  0  0  0  0  0  0  0  0  0  0  0
   57.3845   30.7613   44.1240 C   0  0  0  0  0  0  0  0  0  0  0  0
   58.4266   29.3238   45.9266 N   0  0  0  0  0  0  0  0  0  0  0  0
   57.3905   24.9278   45.7318 C   0  0  0  0  0  0  0  0  0  0  0  0
   56.1208   25.1151   46.2939 C   0  0  0  0  0  0  0  0  0  0  0  0
   55.4087   26.2865   46.0588 O   0  0  0  0  0  0  0  0  0  0  0  0
   55.5789   24.1516   47.0824 N   0  0  0  0  0  0  0  0  0  0  0  0
   56.2413   22.9917   47.3279 C   0  0  0  0  0  0  0  0  0  0  0  0
   55.7211   22.1162   48.0650 O   0  0  0  0  0  0  0  0  0  0  0  0
   57.4607   22.7757   46.7721 N   0  0  0  0  0  0  0  0  0  0  0  0
   58.0453   23.7073   45.9756 C   0  0  0  0  0  0  0  0  0  0  0  0
   59.1684   23.4626   45.4587 O   0  0  0  0  0  0  0  0  0  0  0  0
   58.8667   30.4062   46.7675 C   0  0  0  0  0  0  0  0  0  0  0  0
   59.1706   30.1760   48.1163 C   0  0  0  0  0  0  0  0  0  0  0  0
   59.5961   31.2280   48.9330 C   0  0  0  0  0  0  0  0  0  0  0  0
   59.7135   32.5260   48.4102 C   0  0  0  0  0  0  0  0  0  0  0  0
   59.4179   32.7537   47.0561 C   0  0  0  0  0  0  0  0  0  0  0  0
   58.9927   31.6999   46.2422 C   0  0  0  0  0  0  0  0  0  0  0  0
   60.2127   33.6507   49.2766 C   0  0  0  0  0  0  0  0  0  0  0  0
   61.6785   33.4707   49.5642 C   0  0  0  0  0  0  0  0  0  0  0  0
   62.1398   33.4176   50.8903 C   0  0  0  0  0  0  0  0  0  0  0  0
   63.4958   33.2125   51.1583 C   0  0  0  0  0  0  0  0  0  0  0  0
   64.4038   33.0506   50.1031 C   0  0  0  0  0  0  0  0  0  0  0  0
   63.9479   33.0907   48.7806 C   0  0  0  0  0  0  0  0  0  0  0  0
   62.5909   33.2949   48.5105 C   0  0  0  0  0  0  0  0  0  0  0  0
   65.7998   32.8378   50.3802 C   0  0  0  0  0  0  0  0  0  0  0  0
   66.9234   32.6660   50.6018 N   0  0  0  0  0  0  0  0  0  0  0  0
  1  2  2  0
  2  3  1  0
  3  4  2  0
  4  9  1  0
  9 10  2  0
 10 11  1  0
 10 12  1  0
 12 13  1  0
 13 14  2  0
 13 15  1  0
 15 16  1  0
 16 17  2  0
  3  5  1  0
  5  6  2  0
  6  7  1  0
  6  8  1  0
  8 18  1  0
 18 19  2  0
 19 20  1  0
 20 21  2  0
 21 24  1  0
 24 25  1  0
 25 26  2  0
 26 27  1  0
 27 28  2  0
 28 31  1  0
 31 32  3  0
 28 29  1  0
 29 30  2  0
 21 22  1  0
 22 23  2  0
  8  2  1  0
 23 18  1  0
 16  9  1  0
 30 25  1  0
M  CHG 1  11  -1
M  CHG 1  12  -1
M  CHG 1  15  -1
M  END
> <UniqueID>
56

> <SMILES>
C=c1c(=Cc2c([O-])[n-]c(=O)[n-]c2=O)cc(C)n1-c1ccc(Cc2ccc(C#N)cc2)cc1

> <Energy>
100.36683511185235

> <Genealogy>
C=c1c(=Cc2c([O-])[n-]c(=O)[n-]c2=O)cc(C)n1-c1ccc(Cc2ccc(C#N)cc2)cc1 (protonated)
C=c1c(=Cc2c([O-])[n-]c(=O)[n-]c2=O)cc(C)n1-c1ccc(Cc2ccc(C#N)cc2)cc1 (3D coordinates assigned)
C=c1c(=Cc2c([O-])[n-]c(=O)[n-]c2=O)cc(C)n1-c1ccc(Cc2ccc(C#N)cc2)cc1 (optimized conformer: 100.36683511185235 kcal/mol)

> <smiles>
C=c1c(=Cc2c(O)[nH]c(=O)[nH]c2=O)cc(C)n1-c1ccc(Cc2ccc(C#N)cc2)cc1

> <score_type>
oracle

> <origin>
adg

> <m_score__min__energy>
-16.690000000000001

> <m_primary>
energy

> <minimizedAffinity>
-9.19177

> <minimizedRMSD>
0.75220

> <CNNscore>
0.5315775275

> <CNNaffinity>
7.2846589088

> <CNN_VS>
3.8723609447

> <CNNaffinity_variance>
0.0710441545

$$$$
62:0


 30 33  0  0  0  0  0  0  0  0999 V2000
   55.1459   30.5763   52.0617 C   0  0  0  0  0  0  0  0  0  0  0  0
   55.0319   30.3537   53.3804 C   0  0  0  0  0  0  0  0  0  0  0  0
   53.8540   30.0796   54.0930 C   0  0  0  0  0  0  0  0  0  0  0  0
   52.5595   30.1859   53.7374 C   0  0  0  0  0  0  0  0  0  0  0  0
   54.2518   29.6546   55.3511 C   0  0  0  0  0  0  0  0  0  0  0  0
   55.6261   29.7570   55.3914 C   0  0  0  0  0  0  0  0  0  0  0  0
   56.4688   29.4203   56.5838 C   0  0  0  0  0  0  0  0  0  0  0  0
   56.1028   30.1804   54.1994 N   0  0  0  0  0  0  0  0  0  0  0  0
   52.0620   30.3900   52.3668 C   0  0  0  0  0  0  0  0  0  0  0  0
   52.2472   29.5298   51.3472 N   0  0  0  0  0  0  0  0  0  0  0  0
   51.7490   30.1959   50.2834 C   0  0  0  0  0  0  0  0  0  0  0  0
   51.7272   29.7043   49.1251 O   0  0  0  0  0  0  0  0  0  0  0  0
   51.2859   31.4344   50.5566 N   0  0  0  0  0  0  0  0  0  0  0  0
   51.5055   31.5453   51.8753 C   0  0  0  0  0  0  0  0  0  0  0  0
   51.2080   32.6828   52.6165 O   0  0  0  0  0  0  0  0  0  0  0  0
   57.4899   30.3669   53.8652 C   0  0  0  0  0  0  0  0  0  0  0  0
   58.1097   31.6071   54.0746 C   0  0  0  0  0  0  0  0  0  0  0  0
   59.4550   31.7869   53.7431 C   0  0  0  0  0  0  0  0  0  0  0  0
   60.2036   30.7267   53.2052 C   0  0  0  0  0  0  0  0  0  0  0  0
   59.5759   29.4897   52.9841 C   0  0  0  0  0  0  0  0  0  0  0  0
   58.2294   29.3105   53.3162 C   0  0  0  0  0  0  0  0  0  0  0  0
   61.6247   30.9176   52.8375 C   0  0  0  0  0  0  0  0  0  0  0  0
   61.9826   31.9934   52.2868 O   0  0  0  0  0  0  0  0  0  0  0  0
   62.6054   29.8976   53.0955 N   0  0  0  0  0  0  0  0  0  0  0  0
   62.3644   28.5258   52.6131 C   0  0  0  0  0  0  0  0  0  0  0  0
   63.5725   27.6060   52.8446 C   0  0  0  0  0  0  0  0  0  0  0  0
   64.8448   28.3091   52.4592 C   0  0  0  0  0  0  0  0  0  0  0  0
   65.7237   27.7014   51.8689 O   0  0  0  0  0  0  0  0  0  0  0  0
   65.0517   29.7538   52.8256 C   0  0  0  0  0  0  0  0  0  0  0  0
   63.8983   30.2672   53.6918 C   0  0  0  0  0  0  0  0  0  0  0  0
  1  2  2  0
  2  3  1  0
  3  4  2  0
  4  9  1  0
  9 10  1  0
 10 11  1  0
 11 12  2  0
 11 13  1  0
 13 14  1  0
 14 15  1  0
  3  5  1  0
  5  6  2  0
  6  7  1  0
  6  8  1  0
  8 16  1  0
 16 17  2  0
 17 18  1  0
 18 19  2  0
 19 22  1  0
 22 23  2  0
 22 24  1  0
 24 25  1  0
 25 26  1  0
 26 27  1  0
 27 28  2  0
 27 29  1  0
 29 30  1  0
 19 20  1  0
 20 21  2  0
  8  2  1  0
 21 16  1  0
 14  9  2  0
 30 24  1  0
M  CHG 1  10  -1
M  CHG 1  13  -1
M  CHG 1  15  -1
M  END
> <UniqueID>
57

> <SMILES>
C=c1/c(=C\c2[n-]c(=O)[n-]c2[O-])cc(C)n1-c1ccc(C(=O)N2CCC(=O)CC2)cc1

> <Energy>
131.44539638168777

> <Genealogy>
C=c1c(=Cc2[n-]c(=O)[n-]c2[O-])cc(C)n1-c1ccc(C(=O)N2CCC(=O)CC2)cc1 (protonated)
C=c1/c(=C\c2[n-]c(=O)[n-]c2[O-])cc(C)n1-c1ccc(C(=O)N2CCC(=O)CC2)cc1 (cis-trans isomerization)
C=c1/c(=C\c2[n-]c(=O)[n-]c2[O-])cc(C)n1-c1ccc(C(=O)N2CCC(=O)CC2)cc1 (3D coordinates assigned)
C=c1/c(=C\c2[n-]c(=O)[n-]c2[O-])cc(C)n1-c1ccc(C(=O)N2CCC(=O)CC2)cc1 (nonaromatic ring conformer: 131.44539638168777 kcal/mol)

> <smiles>
C=c1c(=Cc2[nH]c(=O)[nH]c2O)cc(C)n1-c1ccc(C(=O)N2CCC(=O)CC2)cc1

> <score_type>
oracle

> <origin>
adg

> <m_score__min__energy>
-16.02

> <m_primary>
energy

> <minimizedAffinity>
-5.10052

> <minimizedRMSD>
1.89058

> <CNNscore>
0.1537756473

> <CNNaffinity>
4.7409453392

> <CNN_VS>
0.7290419340

> <CNNaffinity_variance>
0.4361020327

$$$$
71:0


 24 26  0  0  0  0  0  0  0  0999 V2000
   60.7954   29.8713   47.5515 C   0  0  0  0  0  0  0  0  0  0  0  0
   60.1050   30.8086   46.8842 C   0  0  0  0  0  0  0  0  0  0  0  0
   59.2829   30.6323   45.7567 C   0  0  0  0  0  0  0  0  0  0  0  0
   59.0698   29.5571   44.9737 C   0  0  0  0  0  0  0  0  0  0  0  0
   58.6627   31.8526   45.5345 C   0  0  0  0  0  0  0  0  0  0  0  0
   59.1570   32.7305   46.4769 C   0  0  0  0  0  0  0  0  0  0  0  0
   58.7477   34.1660   46.6106 C   0  0  0  0  0  0  0  0  0  0  0  0
   60.0233   32.0985   47.2948 N   0  0  0  0  0  0  0  0  0  0  0  0
   58.4447   28.2906   45.4044 C   0  0  0  0  0  0  0  0  0  0  0  0
   57.0479   28.1500   45.4561 C   0  0  0  0  0  0  0  0  0  0  0  0
   56.2137   29.1904   45.0643 O   0  0  0  0  0  0  0  0  0  0  0  0
   56.5011   26.9884   45.8963 N   0  0  0  0  0  0  0  0  0  0  0  0
   57.2827   25.9568   46.3080 C   0  0  0  0  0  0  0  0  0  0  0  0
   56.7532   24.8876   46.7088 O   0  0  0  0  0  0  0  0  0  0  0  0
   58.6347   26.0806   46.2929 N   0  0  0  0  0  0  0  0  0  0  0  0
   59.2309   27.2225   45.8607 C   0  0  0  0  0  0  0  0  0  0  0  0
   60.4885   27.3047   45.8666 O   0  0  0  0  0  0  0  0  0  0  0  0
   60.6958   32.6933   48.4176 C   0  0  0  0  0  0  0  0  0  0  0  0
   61.9427   33.3009   48.2421 C   0  0  0  0  0  0  0  0  0  0  0  0
   62.5954   33.8815   49.3302 C   0  0  0  0  0  0  0  0  0  0  0  0
   61.9900   33.8426   50.5886 C   0  0  0  0  0  0  0  0  0  0  0  0
   60.7798   33.2424   50.7449 N   0  0  0  0  0  0  0  0  0  0  0  0
   60.1220   32.6717   49.7008 C   0  0  0  0  0  0  0  0  0  0  0  0
   58.5737   31.8960   49.9906 Cl  0  0  0  0  0  0  0  0  0  0  0  0
  1  2  2  0
  2  3  1  0
  3  4  2  0
  4  9  1  0
  9 10  2  0
 10 11  1  0
 10 12  1  0
 12 13  1  0
 13 14  2  0
 13 15  1  0
 15 16  1  0
 16 17  2  0
  3  5  1  0
  5  6  2  0
  6  7  1  0
  6  8  1  0
  8 18  1  0
 18 19  2  0
 19 20  1  0
 20 21  2  0
 21 22  1  0
 22 23  2  0
 23 24  1  0
  8  2  1  0
 23 18  1  0
 16  9  1  0
M  CHG 1  11  -1
M  CHG 1  12  -1
M  CHG 1  15  -1
M  END
> <UniqueID>
65

> <SMILES>
C=c1c(=Cc2c([O-])[n-]c(=O)[n-]c2=O)cc(C)n1-c1cccnc1Cl

> <Energy>
87.22984827338587

> <Genealogy>
C=c1c(=Cc2c([O-])[n-]c(=O)[n-]c2=O)cc(C)n1-c1cccnc1Cl (protonated)
C=c1c(=Cc2c([O-])[n-]c(=O)[n-]c2=O)cc(C)n1-c1cccnc1Cl (3D coordinates assigned)
C=c1c(=Cc2c([O-])[n-]c(=O)[n-]c2=O)cc(C)n1-c1cccnc1Cl (optimized conformer: 87.22984827338587 kcal/mol)

> <smiles>
C=c1c(=Cc2c(O)[nH]c(=O)[nH]c2=O)cc(C)n1-c1cccnc1Cl

> <score_type>
oracle

> <origin>
adg

> <m_score__min__energy>
-15.210000000000001

> <m_primary>
energy

> <minimizedAffinity>
-7.01832

> <minimizedRMSD>
1.16440

> <CNNscore>
0.4672826827

> <CNNaffinity>
6.9987983704

> <CNN_VS>
3.2704172134

> <CNNaffinity_variance>
0.5843460560

$$$$
77:0


 22 23  0  0  0  0  0  0  0  0999 V2000
   57.8774   27.2754   45.7495 C   0  0  0  0  0  0  0  0  0  0  0  0
   59.2622   27.0878   45.8980 C   0  0  0  0  0  0  0  0  0  0  0  0
   60.1420   28.1480   45.6751 C   0  0  0  0  0  0  0  0  0  0  0  0
   59.6514   29.4024   45.3119 C   0  0  0  0  0  0  0  0  0  0  0  0
   58.2723   29.6083   45.1642 C   0  0  0  0  0  0  0  0  0  0  0  0
   57.3832   28.5436   45.4077 C   0  0  0  0  0  0  0  0  0  0  0  0
   56.0078   28.7350   45.3110 O   0  0  0  0  0  0  0  0  0  0  0  0
   57.6833   31.2152   44.7176 S   0  0  0  0  0  0  0  0  0  0  0  0
   56.2803   31.0672   44.1979 O   0  0  0  0  0  0  0  0  0  0  0  0
   58.5466   31.7961   43.6327 O   0  0  0  0  0  0  0  0  0  0  0  0
   57.6873   32.2594   46.1252 N   0  0  0  0  0  0  0  0  0  0  0  0
   58.8052   31.9810   47.0528 C   0  0  0  0  0  0  0  0  0  0  0  0
   60.1398   32.6009   46.6061 C   0  0  0  0  0  0  0  0  0  0  0  0
   59.9815   34.0878   46.2947 C   0  0  0  0  0  0  0  0  0  0  0  0
   58.8603   34.3089   45.2811 C   0  0  0  0  0  0  0  0  0  0  0  0
   57.5514   33.6884   45.7842 C   0  0  0  0  0  0  0  0  0  0  0  0
   56.9488   26.2086   46.0018 N   0  0  0  0  0  0  0  0  0  0  0  0
   57.2748   24.8188   46.1466 C   0  0  0  0  0  0  0  0  0  0  0  0
   57.2965   24.3238   47.3043 O   0  0  0  0  0  0  0  0  0  0  0  0
   56.8341   24.0741   43.8502 C   0  0  0  0  0  0  0  0  0  0  0  0
   57.5359   23.9411   44.9805 C   0  0  0  0  0  0  0  0  0  0  0  0
   58.5009   22.7968   45.1188 C   0  0  0  0  0  0  0  0  0  0  0  0
 20 21  2  0
 21 22  1  0
 21 18  1  0
 18 19  2  0
 18 17  1  0
 17  1  1  0
  1  2  2  0
  2  3  1  0
  3  4  2  0
  4  5  1  0
  5  8  1  0
  8  9  2  0
  8 10  2  0
  8 11  1  0
 11 12  1  0
 12 13  1  0
 13 14  1  0
 14 15  1  0
 15 16  1  0
  5  6  2  0
  6  7  1  0
  6  1  1  0
 16 11  1  0
M  CHG 1   7  -1
M  CHG 1  17  -1
M  END
> <UniqueID>
71

> <SMILES>
C=C(C)C(=O)[N-]c1cccc(S(=O)(=O)N2CCCCC2)c1[O-]

> <Energy>
44.91283283803415

> <Genealogy>
C=C(C)C(=O)[N-]c1cccc(S(=O)(=O)N2CCCCC2)c1[O-] (protonated)
C=C(C)C(=O)[N-]c1cccc(S(=O)(=O)N2CCCCC2)c1[O-] (3D coordinates assigned)
C=C(C)C(=O)[N-]c1cccc(S(=O)(=O)N2CCCCC2)c1[O-] (nonaromatic ring conformer: 44.91283283803415 kcal/mol)

> <smiles>
C=C(C)C(=O)Nc1cccc(S(=O)(=O)N2CCCCC2)c1O

> <score_type>
oracle

> <origin>
adg

> <m_score__min__energy>
-14.92

> <m_primary>
energy

> <minimizedAffinity>
-7.10983

> <minimizedRMSD>
1.22788

> <CNNscore>
0.7620504498

> <CNNaffinity>
6.4610686302

> <CNN_VS>
4.9236602783

> <CNNaffinity_variance>
0.1768577099

$$$$
79:0


 29 31  0  0  0  0  0  0  0  0999 V2000
   57.8649   30.7094   45.3854 C   0  0  0  0  0  0  0  0  0  0  0  0
   58.6225   30.4977   46.4766 C   0  0  0  0  0  0  0  0  0  0  0  0
   59.4415   31.5904   47.0981 C   0  0  0  0  0  0  0  0  0  0  0  0
   58.8211   32.9023   46.8685 N   0  0  0  0  0  0  0  0  0  0  0  0
   58.6637   33.1259   45.4297 C   0  0  0  0  0  0  0  0  0  0  0  0
   57.6697   32.1157   44.8438 C   0  0  0  0  0  0  0  0  0  0  0  0
   59.8200   34.1568   47.5570 S   0  0  0  0  0  0  0  0  0  0  0  0
   59.9865   35.2709   46.5620 O   0  0  0  0  0  0  0  0  0  0  0  0
   59.1391   34.7208   48.7737 O   0  0  0  0  0  0  0  0  0  0  0  0
   61.4117   33.5445   48.0120 C   0  0  0  0  0  0  0  0  0  0  0  0
   62.4063   33.3801   47.0391 C   0  0  0  0  0  0  0  0  0  0  0  0
   63.6690   32.8951   47.3967 C   0  0  0  0  0  0  0  0  0  0  0  0
   63.9433   32.5768   48.7278 C   0  0  0  0  0  0  0  0  0  0  0  0
   62.9579   32.7396   49.7029 C   0  0  0  0  0  0  0  0  0  0  0  0
   61.6944   33.2231   49.3480 C   0  0  0  0  0  0  0  0  0  0  0  0
   57.0632   29.5886   44.8298 C   0  0  0  0  0  0  0  0  0  0  0  0
   55.8305   29.7449   44.6298 O   0  0  0  0  0  0  0  0  0  0  0  0
   57.6595   28.3432   44.4498 N   0  0  0  0  0  0  0  0  0  0  0  0
   57.6234   25.3890   46.7914 C   0  0  0  0  0  0  0  0  0  0  0  0
   58.9952   25.2976   47.0754 C   0  0  0  0  0  0  0  0  0  0  0  0
   59.8959   26.1931   46.5000 C   0  0  0  0  0  0  0  0  0  0  0  0
   59.4409   27.1898   45.6387 C   0  0  0  0  0  0  0  0  0  0  0  0
   58.0795   27.3025   45.3433 C   0  0  0  0  0  0  0  0  0  0  0  0
   57.1690   26.3687   45.8875 C   0  0  0  0  0  0  0  0  0  0  0  0
   55.8356   26.3753   45.4889 O   0  0  0  0  0  0  0  0  0  0  0  0
   56.7031   24.3914   47.3701 C   0  0  0  0  0  0  0  0  0  0  0  0
   55.4924   24.4061   47.0228 O   0  0  0  0  0  0  0  0  0  0  0  0
   56.4172   22.1498   48.5847 C   0  0  0  0  0  0  0  0  0  0  0  0
   57.1501   23.3701   48.2701 N   0  0  0  0  0  0  0  0  0  0  0  0
 28 29  1  0
 29 26  1  0
 26 27  2  0
 26 19  1  0
 19 20  2  0
 20 21  1  0
 21 22  2  0
 22 23  1  0
 23 18  1  0
 18 16  1  0
 16 17  2  0
 16  1  1  0
  1  2  2  0
  2  3  1  0
  3  4  1  0
  4  7  1  0
  7  8  2  0
  7  9  2  0
  7 10  1  0
 10 11  2  0
 11 12  1  0
 12 13  2  0
 13 14  1  0
 14 15  2  0
  4  5  1  0
  5  6  1  0
 23 24  2  0
 24 25  1  0
 24 19  1  0
  6  1  1  0
 15 10  1  0
M  CHG 1  18  -1
M  CHG 1  25  -1
M  CHG 1  29  -1
M  END
> <UniqueID>
73

> <SMILES>
C[N-]C(=O)c1cccc([N-]C(=O)C2=CCN(S(=O)(=O)c3ccccc3)CC2)c1[O-]

> <Energy>
59.760895697453236

> <Genealogy>
C[N-]C(=O)c1cccc([N-]C(=O)C2=CCN(S(=O)(=O)c3ccccc3)CC2)c1[O-] (protonated)
C[N-]C(=O)c1cccc([N-]C(=O)C2=CCN(S(=O)(=O)c3ccccc3)CC2)c1[O-] (3D coordinates assigned)
C[N-]C(=O)c1cccc([N-]C(=O)C2=CCN(S(=O)(=O)c3ccccc3)CC2)c1[O-] (nonaromatic ring conformer: 59.760895697453236 kcal/mol)

> <smiles>
CNC(=O)c1cccc(NC(=O)C2=CCN(S(=O)(=O)c3ccccc3)CC2)c1O

> <score_type>
oracle

> <origin>
adg

> <m_score__min__energy>
-18.02

> <m_primary>
energy

> <minimizedAffinity>
-7.13410

> <minimizedRMSD>
0.74833

> <CNNscore>
0.6496409178

> <CNNaffinity>
6.9201788902

> <CNN_VS>
4.4956312180

> <CNNaffinity_variance>
0.1717800349

$$$$
1:0


 27 29  0  0  0  0  0  0  0  0999 V2000
   58.5317   30.9008   45.3240 C   0  0  0  0  0  0  0  0  0  0  0  0
   58.0661   31.3884   44.0943 C   0  0  0  0  0  0  0  0  0  0  0  0
   57.9722   32.7644   43.8934 C   0  0  0  0  0  0  0  0  0  0  0  0
   58.3558   33.6466   44.9032 C   0  0  0  0  0  0  0  0  0  0  0  0
   58.8536   33.1327   46.1185 C   0  0  0  0  0  0  0  0  0  0  0  0
   59.2321   33.9012   47.1021 N   0  0  0  0  0  0  0  0  0  0  0  0
   58.9179   31.7841   46.2869 N   0  0  0  0  0  0  0  0  0  0  0  0
   57.7061   27.2080   45.8310 C   0  0  0  0  0  0  0  0  0  0  0  0
   58.9930   26.7016   46.0492 C   0  0  0  0  0  0  0  0  0  0  0  0
   60.0963   27.5519   46.0734 C   0  0  0  0  0  0  0  0  0  0  0  0
   59.9318   28.9188   45.8545 C   0  0  0  0  0  0  0  0  0  0  0  0
   58.6613   29.4487   45.5807 C   0  0  0  0  0  0  0  0  0  0  0  0
   57.5401   28.5879   45.5741 C   0  0  0  0  0  0  0  0  0  0  0  0
   56.2785   29.1052   45.3076 O   0  0  0  0  0  0  0  0  0  0  0  0
   56.6125   26.2779   45.8480 N   0  0  0  0  0  0  0  0  0  0  0  0
   57.0988   24.1734   43.9318 C   0  0  0  0  0  0  0  0  0  0  0  0
   56.7182   24.5595   45.6280 S   0  0  0  0  0  0  0  0  0  0  0  0
   57.7545   23.9790   46.5481 O   0  0  0  0  0  0  0  0  0  0  0  0
   55.3837   23.9535   45.9557 O   0  0  0  0  0  0  0  0  0  0  0  0
   60.0568   33.5286   48.2163 C   0  0  0  0  0  0  0  0  0  0  0  0
   60.7714   34.4094   48.7619 O   0  0  0  0  0  0  0  0  0  0  0  0
   60.0467   32.1621   48.7839 C   0  0  0  0  0  0  0  0  0  0  0  0
   61.0701   31.3120   48.6137 C   0  0  0  0  0  0  0  0  0  0  0  0
   60.9867   30.0110   49.1255 O   0  0  0  0  0  0  0  0  0  0  0  0
   59.7498   29.4654   49.5857 C   0  0  0  0  0  0  0  0  0  0  0  0
   58.9427   30.5498   50.2974 C   0  0  0  0  0  0  0  0  0  0  0  0
   58.9198   31.7350   49.4998 O   0  0  0  0  0  0  0  0  0  0  0  0
 16 17  1  0
 17 18  2  0
 17 19  2  0
 17 15  1  0
 15  8  1  0
  8  9  2  0
  9 10  1  0
 10 11  2  0
 11 12  1  0
 12  1  1  0
  1  2  2  0
  2  3  1  0
  3  4  2  0
  4  5  1  0
  5  6  2  0
  6 20  1  0
 20 21  2  0
 20 22  1  0
 22 23  2  0
 23 24  1  0
 24 25  1  0
 25 26  1  0
 26 27  1  0
  5  7  1  0
 12 13  2  0
 13 14  1  0
 13  8  1  0
  7  1  1  0
 27 22  1  0
M  CHG 1   7  -1
M  CHG 1  14  -1
M  CHG 1  15  -1
M  END
> <UniqueID>
1

> <SMILES>
CS(=O)(=O)[N-]c1cccc(-c2cccc(=NC(=O)C3=COCCO3)[n-]2)c1[O-]

> <Energy>
62.484220549069285

> <Genealogy>
CS(=O)(=O)[N-]c1cccc(-c2cccc(=NC(=O)C3=COCCO3)[n-]2)c1[O-] (protonated)
CS(=O)(=O)[N-]c1cccc(-c2cccc(=NC(=O)C3=COCCO3)[n-]2)c1[O-] (3D coordinates assigned)
CS(=O)(=O)[N-]c1cccc(-c2cccc(=NC(=O)C3=COCCO3)[n-]2)c1[O-] (nonaromatic ring conformer: 62.484220549069285 kcal/mol)

> <smiles>
CS(=O)(=O)Nc1cccc(-c2cccc(=NC(=O)C3=COCCO3)[nH]2)c1O

> <score_type>
oracle

> <origin>
adg

> <m_score__min__energy>
-15.970000000000001

> <m_primary>
energy

> <minimizedAffinity>
-8.14497

> <minimizedRMSD>
1.55710

> <CNNscore>
0.8197244406

> <CNNaffinity>
6.7937569618

> <CNN_VS>
5.5690088272

> <CNNaffinity_variance>
0.1538730413

$$$$
9:0


 26 27  0  0  0  0  0  0  0  0999 V2000
   58.2662   32.3019   46.3381 N   0  0  0  0  0  0  0  0  0  0  0  0
   58.2081   32.7123   44.9692 C   0  0  0  0  0  0  0  0  0  0  0  0
   58.6807   33.8279   44.6162 O   0  0  0  0  0  0  0  0  0  0  0  0
   57.5014   31.8413   43.9766 C   0  0  0  0  0  0  0  0  0  0  0  0
   57.9617   30.4557   44.0512 N   0  0  0  0  0  0  0  0  0  0  0  0
   57.3855   29.4190   44.8579 C   0  0  0  0  0  0  0  0  0  0  0  0
   56.1332   29.3640   44.9709 O   0  0  0  0  0  0  0  0  0  0  0  0
   58.2083   28.3899   45.5215 C   0  0  0  0  0  0  0  0  0  0  0  0
   59.5982   28.5700   45.5988 C   0  0  0  0  0  0  0  0  0  0  0  0
   60.4032   27.5936   46.1911 C   0  0  0  0  0  0  0  0  0  0  0  0
   59.8279   26.4372   46.7194 C   0  0  0  0  0  0  0  0  0  0  0  0
   58.4472   26.2415   46.6327 C   0  0  0  0  0  0  0  0  0  0  0  0
   57.6370   27.2019   46.0174 C   0  0  0  0  0  0  0  0  0  0  0  0
   56.2753   26.9548   45.8744 O   0  0  0  0  0  0  0  0  0  0  0  0
   59.5090   32.0230   47.0468 C   0  0  0  0  0  0  0  0  0  0  0  0
   58.6674   30.5402   51.0097 C   0  0  0  0  0  0  0  0  0  0  0  0
   59.0905   29.6642   50.0015 C   0  0  0  0  0  0  0  0  0  0  0  0
   59.3727   30.1488   48.7216 C   0  0  0  0  0  0  0  0  0  0  0  0
   59.2194   31.5128   48.4313 C   0  0  0  0  0  0  0  0  0  0  0  0
   58.8078   32.3901   49.4459 C   0  0  0  0  0  0  0  0  0  0  0  0
   58.5285   31.9054   50.7270 C   0  0  0  0  0  0  0  0  0  0  0  0
   56.6741   29.3838   52.6914 N   0  0  0  0  0  0  0  0  0  0  0  0
   58.3158   29.9240   52.6204 S   0  0  0  0  0  0  0  0  0  0  0  0
   59.2184   28.7654   52.9352 O   0  0  0  0  0  0  0  0  0  0  0  0
   58.5305   31.0154   53.6309 O   0  0  0  0  0  0  0  0  0  0  0  0
   56.4735   29.0273   53.6258 H   0  0  0  0  0  0  0  0  0  0  0  0
 22 23  1  0
 23 24  2  0
 23 25  2  0
 23 16  1  0
 16 17  2  0
 17 18  1  0
 18 19  2  0
 19 15  1  0
 15  1  1  0
  1  2  1  0
  2  3  2  0
  2  4  1  0
  4  5  1  0
  5  6  1  0
  6  7  2  0
  6  8  1  0
  8  9  2  0
  9 10  1  0
 10 11  2  0
 11 12  1  0
 12 13  2  0
 13 14  1  0
 19 20  1  0
 20 21  2  0
 21 16  1  0
 13  8  1  0
 22 26  1  0
M  CHG 1   1  -1
M  CHG 1   5  -1
M  CHG 1  14  -1
M  CHG 1  22  -1
M  END
> <UniqueID>
6

> <SMILES>
[NH-]S(=O)(=O)c1ccc(C[N-]C(=O)C[N-]C(=O)c2ccccc2[O-])cc1

> <Energy>
36.046049747374305

> <Genealogy>
[NH-]S(=O)(=O)c1ccc(C[N-]C(=O)C[N-]C(=O)c2ccccc2[O-])cc1 (protonated)
[NH-]S(=O)(=O)c1ccc(C[N-]C(=O)C[N-]C(=O)c2ccccc2[O-])cc1 (3D coordinates assigned)
[NH-]S(=O)(=O)c1ccc(C[N-]C(=O)C[N-]C(=O)c2ccccc2[O-])cc1 (optimized conformer: 36.046049747374305 kcal/mol)

> <smiles>
NS(=O)(=O)c1ccc(CNC(=O)CNC(=O)c2ccccc2O)cc1

> <score_type>
oracle

> <origin>
adg

> <m_score__min__energy>
-15.84

> <m_primary>
energy

> <minimizedAffinity>
-5.91828

> <minimizedRMSD>
1.36262

> <CNNscore>
0.5675426722

> <CNNaffinity>
6.3364543915

> <CNN_VS>
3.5962083340

> <CNNaffinity_variance>
0.1796076149

$$$$
14:0


 32 35  0  0  0  0  0  0  0  0999 V2000
   61.0899   31.0366   47.6161 C   0  0  0  0  0  0  0  0  0  0  0  0
   62.4634   31.1028   47.3412 C   0  0  0  0  0  0  0  0  0  0  0  0
   63.1679   32.2904   47.5485 C   0  0  0  0  0  0  0  0  0  0  0  0
   62.5037   33.4239   48.0228 C   0  0  0  0  0  0  0  0  0  0  0  0
   61.1347   33.3719   48.2950 C   0  0  0  0  0  0  0  0  0  0  0  0
   60.4171   32.1799   48.1052 C   0  0  0  0  0  0  0  0  0  0  0  0
   60.0217   29.9452   45.0622 C   0  0  0  0  0  0  0  0  0  0  0  0
   59.9293   29.3009   46.2342 C   0  0  0  0  0  0  0  0  0  0  0  0
   59.3326   28.0561   46.4553 C   0  0  0  0  0  0  0  0  0  0  0  0
   58.8019   27.2309   45.5323 C   0  0  0  0  0  0  0  0  0  0  0  0
   59.4453   27.8054   47.8180 C   0  0  0  0  0  0  0  0  0  0  0  0
   60.0926   28.8942   48.3676 C   0  0  0  0  0  0  0  0  0  0  0  0
   60.4631   29.0357   49.8127 C   0  0  0  0  0  0  0  0  0  0  0  0
   60.3903   29.7974   47.4098 N   0  0  0  0  0  0  0  0  0  0  0  0
   58.1789   25.9332   45.8477 C   0  0  0  0  0  0  0  0  0  0  0  0
   58.8390   24.7637   45.7933 N   0  0  0  0  0  0  0  0  0  0  0  0
   57.8842   23.8492   46.0660 C   0  0  0  0  0  0  0  0  0  0  0  0
   58.1225   22.6143   46.1203 O   0  0  0  0  0  0  0  0  0  0  0  0
   56.6502   24.3608   46.2661 N   0  0  0  0  0  0  0  0  0  0  0  0
   56.8507   25.6796   46.1129 C   0  0  0  0  0  0  0  0  0  0  0  0
   55.8323   26.6228   46.1708 O   0  0  0  0  0  0  0  0  0  0  0  0
   58.9604   32.1496   48.3612 C   0  0  0  0  0  0  0  0  0  0  0  0
   58.5413   31.7301   49.4721 O   0  0  0  0  0  0  0  0  0  0  0  0
   58.0104   32.6173   47.3968 N   0  0  0  0  0  0  0  0  0  0  0  0
   58.3525   33.2401   46.1236 C   0  0  0  0  0  0  0  0  0  0  0  0
   57.8742   32.3662   45.0018 C   0  0  0  0  0  0  0  0  0  0  0  0
   58.1863   32.6949   43.6735 C   0  0  0  0  0  0  0  0  0  0  0  0
   57.7180   31.9018   42.6222 C   0  0  0  0  0  0  0  0  0  0  0  0
   56.9277   30.7790   42.8894 C   0  0  0  0  0  0  0  0  0  0  0  0
   56.6005   30.4529   44.2091 C   0  0  0  0  0  0  0  0  0  0  0  0
   55.8299   29.3682   44.4679 F   0  0  0  0  0  0  0  0  0  0  0  0
   57.0667   31.2463   45.2626 C   0  0  0  0  0  0  0  0  0  0  0  0
  7  8  2  0
  8  9  1  0
  9 10  2  0
 10 15  1  0
 15 16  1  0
 16 17  1  0
 17 18  2  0
 17 19  1  0
 19 20  1  0
 20 21  1  0
  9 11  1  0
 11 12  2  0
 12 13  1  0
 12 14  1  0
 14  1  1  0
  1  2  2  0
  2  3  1  0
  3  4  2  0
  4  5  1  0
  5  6  2  0
  6 22  1  0
 22 23  2  0
 22 24  1  0
 24 25  1  0
 25 26  1  0
 26 27  2  0
 27 28  1  0
 28 29  2  0
 29 30  1  0
 30 31  1  0
 30 32  2  0
 14  8  1  0
  6  1  1  0
 32 26  1  0
 20 15  2  0
M  CHG 1  16  -1
M  CHG 1  19  -1
M  CHG 1  21  -1
M  CHG 1  24  -1
M  END
> <UniqueID>
10

> <SMILES>
C=c1c(=Cc2[n-]c(=O)[n-]c2[O-])cc(C)n1-c1ccccc1C(=O)[N-]Cc1cccc(F)c1

> <Energy>
127.27976949789753

> <Genealogy>
C=c1c(=Cc2[n-]c(=O)[n-]c2[O-])cc(C)n1-c1ccccc1C(=O)[N-]Cc1cccc(F)c1 (protonated)
C=c1c(=Cc2[n-]c(=O)[n-]c2[O-])cc(C)n1-c1ccccc1C(=O)[N-]Cc1cccc(F)c1 (3D coordinates assigned)
C=c1c(=Cc2[n-]c(=O)[n-]c2[O-])cc(C)n1-c1ccccc1C(=O)[N-]Cc1cccc(F)c1 (optimized conformer: 127.27976949789753 kcal/mol)

> <smiles>
C=c1c(=Cc2[nH]c(=O)[nH]c2O)cc(C)n1-c1ccccc1C(=O)NCc1cccc(F)c1

> <score_type>
oracle

> <origin>
adg

> <m_score__min__energy>
-17.84

> <m_primary>
energy

> <minimizedAffinity>
-7.66855

> <minimizedRMSD>
0.99701

> <CNNscore>
0.2655015290

> <CNNaffinity>
6.9480648041

> <CNN_VS>
1.8447217941

> <CNNaffinity_variance>
0.0377731435

$$$$
31:0


 33 36  0  0  0  0  0  0  0  0999 V2000
   58.5793   29.7991   44.4694 C   0  0  0  0  0  0  0  0  0  0  0  0
   58.6388   29.3457   45.7302 C   0  0  0  0  0  0  0  0  0  0  0  0
   58.5049   28.0156   46.1428 C   0  0  0  0  0  0  0  0  0  0  0  0
   58.3230   26.9306   45.3654 C   0  0  0  0  0  0  0  0  0  0  0  0
   58.6492   28.0202   47.5245 C   0  0  0  0  0  0  0  0  0  0  0  0
   58.8445   29.3360   47.8977 C   0  0  0  0  0  0  0  0  0  0  0  0
   59.0974   29.7833   49.3032 C   0  0  0  0  0  0  0  0  0  0  0  0
   58.8563   30.1379   46.8092 N   0  0  0  0  0  0  0  0  0  0  0  0
   57.7169   25.6719   45.8545 C   0  0  0  0  0  0  0  0  0  0  0  0
   56.3528   25.6288   46.1745 C   0  0  0  0  0  0  0  0  0  0  0  0
   55.5514   26.7539   46.0160 O   0  0  0  0  0  0  0  0  0  0  0  0
   55.7996   24.4758   46.6308 N   0  0  0  0  0  0  0  0  0  0  0  0
   56.5490   23.3554   46.7984 C   0  0  0  0  0  0  0  0  0  0  0  0
   55.8546   21.9854   47.3454 S   0  0  0  0  0  0  0  0  0  0  0  0
   57.8773   23.3805   46.5243 N   0  0  0  0  0  0  0  0  0  0  0  0
   58.4796   24.5096   46.0678 C   0  0  0  0  0  0  0  0  0  0  0  0
   59.7214   24.5035   45.8547 O   0  0  0  0  0  0  0  0  0  0  0  0
   59.0202   31.5671   46.8044 C   0  0  0  0  0  0  0  0  0  0  0  0
   57.9336   32.3707   46.4294 C   0  0  0  0  0  0  0  0  0  0  0  0
   58.0726   33.7557   46.3502 C   0  0  0  0  0  0  0  0  0  0  0  0
   59.3043   34.3486   46.6292 C   0  0  0  0  0  0  0  0  0  0  0  0
   60.3951   33.5611   47.0027 C   0  0  0  0  0  0  0  0  0  0  0  0
   60.2621   32.1661   47.1307 C   0  0  0  0  0  0  0  0  0  0  0  0
   61.4343   31.3231   47.4955 C   0  0  0  0  0  0  0  0  0  0  0  0
   61.7884   30.4294   46.6779 O   0  0  0  0  0  0  0  0  0  0  0  0
   62.2025   31.4783   48.7219 N   0  0  0  0  0  0  0  0  0  0  0  0
   61.4345   32.0352   49.8595 C   0  0  0  0  0  0  0  0  0  0  0  0
   62.3184   32.2192   51.1136 C   0  0  0  0  0  0  0  0  0  0  0  0
   63.6792   31.6927   50.8949 N   0  0  0  0  0  0  0  0  0  0  0  0
   64.4991   31.8929   52.1009 C   0  0  0  0  0  0  0  0  0  0  0  0
   64.3069   32.3622   49.7397 C   0  0  0  0  0  0  0  0  0  0  0  0
   63.4262   32.2657   48.4732 C   0  0  0  0  0  0  0  0  0  0  0  0
   61.7191   32.0997   49.3131 H   0  0  0  0  0  0  0  0  0  0  0  0
  1  2  2  0
  2  3  1  0
  3  4  2  0
  4  9  1  0
  9 10  2  0
 10 11  1  0
 10 12  1  0
 12 13  1  0
 13 14  2  0
 13 15  1  0
 15 16  1  0
 16 17  2  0
  3  5  1  0
  5  6  2  0
  6  7  1  0
  6  8  1  0
  8 18  1  0
 18 19  2  0
 19 20  1  0
 20 21  2  0
 21 22  1  0
 22 23  2  0
 23 24  1  0
 24 25  2  0
 24 26  1  0
 26 27  1  0
 27 28  1  0
 28 29  1  0
 29 30  1  0
 29 31  1  0
 31 32  1  0
  8  2  1  0
 23 18  1  0
 32 26  1  0
 16  9  1  0
 26 33  1  0
M  CHG 1  11  -1
M  CHG 1  12  -1
M  CHG 1  15  -1
M  CHG 1  26   1
M  END
> <UniqueID>
26

> <SMILES>
C=c1c(=Cc2c([O-])[n-]c(=S)[n-]c2=O)cc(C)n1-c1ccccc1C(=O)[NH+]1CCN(C)CC1

> <Energy>
121.60226378794829

> <Genealogy>
C=c1c(=Cc2c([O-])[n-]c(=S)[n-]c2=O)cc(C)n1-c1ccccc1C(=O)[NH+]1CCN(C)CC1 (protonated)
C=c1c(=Cc2c([O-])[n-]c(=S)[n-]c2=O)cc(C)n1-c1ccccc1C(=O)[NH+]1CCN(C)CC1 (3D coordinates assigned)
C=c1c(=Cc2c([O-])[n-]c(=S)[n-]c2=O)cc(C)n1-c1ccccc1C(=O)[NH+]1CCN(C)CC1 (nonaromatic ring conformer: 121.60226378794829 kcal/mol)

> <smiles>
C=c1c(=Cc2c(O)[nH]c(=S)[nH]c2=O)cc(C)n1-c1ccccc1C(=O)N1CCN(C)CC1

> <score_type>
oracle

> <origin>
adg

> <m_score__min__energy>
-15.44

> <m_primary>
energy

> <minimizedAffinity>
-7.94317

> <minimizedRMSD>
0.93805

> <CNNscore>
0.1748954654

> <CNNaffinity>
6.6545963287

> <CNN_VS>
1.1638587713

> <CNNaffinity_variance>
0.0105596632

$$$$
39:0


 34 37  0  0  0  0  0  0  0  0999 V2000
   60.0079   29.2548   47.4474 C   0  0  0  0  0  0  0  0  0  0  0  0
   59.3002   29.6921   46.3945 C   0  0  0  0  0  0  0  0  0  0  0  0
   58.7424   28.9193   45.3601 C   0  0  0  0  0  0  0  0  0  0  0  0
   58.8839   27.6141   45.0542 C   0  0  0  0  0  0  0  0  0  0  0  0
   57.9527   29.7790   44.6156 C   0  0  0  0  0  0  0  0  0  0  0  0
   58.0910   31.0335   45.1694 C   0  0  0  0  0  0  0  0  0  0  0  0
   57.4063   32.2673   44.6628 C   0  0  0  0  0  0  0  0  0  0  0  0
   58.9053   30.9845   46.2478 N   0  0  0  0  0  0  0  0  0  0  0  0
   58.1214   26.5030   45.6539 C   0  0  0  0  0  0  0  0  0  0  0  0
   56.7271   26.5795   45.8147 C   0  0  0  0  0  0  0  0  0  0  0  0
   56.0217   27.6938   45.3780 O   0  0  0  0  0  0  0  0  0  0  0  0
   56.0579   25.5565   46.4073 N   0  0  0  0  0  0  0  0  0  0  0  0
   56.7152   24.4612   46.8674 C   0  0  0  0  0  0  0  0  0  0  0  0
   56.0726   23.5243   47.4084 O   0  0  0  0  0  0  0  0  0  0  0  0
   58.0645   24.3779   46.7483 N   0  0  0  0  0  0  0  0  0  0  0  0
   58.7798   25.3728   46.1626 C   0  0  0  0  0  0  0  0  0  0  0  0
   60.0329   25.2666   46.0769 O   0  0  0  0  0  0  0  0  0  0  0  0
   59.2428   32.0984   47.0956 C   0  0  0  0  0  0  0  0  0  0  0  0
   59.5230   33.3518   46.5327 C   0  0  0  0  0  0  0  0  0  0  0  0
   59.8459   34.4341   47.3544 C   0  0  0  0  0  0  0  0  0  0  0  0
   59.8984   34.2725   48.7406 C   0  0  0  0  0  0  0  0  0  0  0  0
   59.6381   33.0181   49.3149 C   0  0  0  0  0  0  0  0  0  0  0  0
   59.2914   31.9384   48.4890 C   0  0  0  0  0  0  0  0  0  0  0  0
   59.7162   32.8538   50.7783 C   0  0  0  0  0  0  0  0  0  0  0  0
   58.9867   33.5698   51.5136 O   0  0  0  0  0  0  0  0  0  0  0  0
   60.6314   31.9374   51.3976 N   0  0  0  0  0  0  0  0  0  0  0  0
   62.0918   32.0222   51.3677 C   0  0  0  0  0  0  0  0  0  0  0  0
   62.5904   32.3450   49.9810 C   0  0  0  0  0  0  0  0  0  0  0  0
   62.5385   31.3718   48.9685 C   0  0  0  0  0  0  0  0  0  0  0  0
   62.9702   31.6748   47.6740 C   0  0  0  0  0  0  0  0  0  0  0  0
   63.4684   32.9474   47.3836 C   0  0  0  0  0  0  0  0  0  0  0  0
   63.5400   33.9165   48.3869 C   0  0  0  0  0  0  0  0  0  0  0  0
   63.1077   33.6193   49.6830 C   0  0  0  0  0  0  0  0  0  0  0  0
   63.1876   34.5738   50.6458 F   0  0  0  0  0  0  0  0  0  0  0  0
  1  2  2  0
  2  3  1  0
  3  4  2  0
  4  9  1  0
  9 10  2  0
 10 11  1  0
 10 12  1  0
 12 13  1  0
 13 14  2  0
 13 15  1  0
 15 16  1  0
 16 17  2  0
  3  5  1  0
  5  6  2  0
  6  7  1  0
  6  8  1  0
  8 18  1  0
 18 19  2  0
 19 20  1  0
 20 21  2  0
 21 22  1  0
 22 24  1  0
 24 25  2  0
 24 26  1  0
 26 27  1  0
 27 28  1  0
 28 29  2  0
 29 30  1  0
 30 31  2  0
 31 32  1  0
 32 33  2  0
 33 34  1  0
 22 23  2  0
  8  2  1  0
 23 18  1  0
 16  9  1  0
 33 28  1  0
M  CHG 1  11  -1
M  CHG 1  12  -1
M  CHG 1  15  -1
M  CHG 1  26  -1
M  END
> <UniqueID>
33

> <SMILES>
C=c1c(=Cc2c([O-])[n-]c(=O)[n-]c2=O)cc(C)n1-c1cccc(C(=O)[N-]Cc2ccccc2F)c1

> <Energy>
105.98820926966962

> <Genealogy>
C=c1c(=Cc2c([O-])[n-]c(=O)[n-]c2=O)cc(C)n1-c1cccc(C(=O)[N-]Cc2ccccc2F)c1 (protonated)
C=c1c(=Cc2c([O-])[n-]c(=O)[n-]c2=O)cc(C)n1-c1cccc(C(=O)[N-]Cc2ccccc2F)c1 (3D coordinates assigned)
C=c1c(=Cc2c([O-])[n-]c(=O)[n-]c2=O)cc(C)n1-c1cccc(C(=O)[N-]Cc2ccccc2F)c1 (optimized conformer: 105.98820926966962 kcal/mol)

> <smiles>
C=c1c(=Cc2c(O)[nH]c(=O)[nH]c2=O)cc(C)n1-c1cccc(C(=O)NCc2ccccc2F)c1

> <score_type>
oracle

> <origin>
adg

> <m_score__min__energy>
-17.77

> <m_primary>
energy

> <minimizedAffinity>
-8.31651

> <minimizedRMSD>
0.69703

> <CNNscore>
0.3808116019

> <CNNaffinity>
7.0828919411

> <CNN_VS>
2.6972475052

> <CNNaffinity_variance>
0.0404603630

$$$$
55:0


 34 37  0  0  0  0  0  0  0  0999 V2000
   61.3129   31.0740   47.6928 C   0  0  0  0  0  0  0  0  0  0  0  0
   62.6807   31.3053   47.4938 C   0  0  0  0  0  0  0  0  0  0  0  0
   63.1614   32.6128   47.4414 C   0  0  0  0  0  0  0  0  0  0  0  0
   62.3083   33.6569   47.5852 N   0  0  0  0  0  0  0  0  0  0  0  0
   60.9777   33.4704   47.7854 C   0  0  0  0  0  0  0  0  0  0  0  0
   60.4401   32.1764   47.8549 C   0  0  0  0  0  0  0  0  0  0  0  0
   60.4958   29.3145   45.4458 C   0  0  0  0  0  0  0  0  0  0  0  0
   60.5278   28.8994   46.7202 C   0  0  0  0  0  0  0  0  0  0  0  0
   60.1642   27.6369   47.2209 C   0  0  0  0  0  0  0  0  0  0  0  0
   59.8115   26.4983   46.5930 C   0  0  0  0  0  0  0  0  0  0  0  0
   60.2495   27.7267   48.6003 C   0  0  0  0  0  0  0  0  0  0  0  0
   60.6858   29.0008   48.8934 C   0  0  0  0  0  0  0  0  0  0  0  0
   60.9900   29.5030   50.2722 C   0  0  0  0  0  0  0  0  0  0  0  0
   60.8484   29.7142   47.7571 N   0  0  0  0  0  0  0  0  0  0  0  0
   58.4480   25.9550   46.5003 C   0  0  0  0  0  0  0  0  0  0  0  0
   58.1157   24.6837   46.7942 N   0  0  0  0  0  0  0  0  0  0  0  0
   56.7681   24.6867   46.7109 C   0  0  0  0  0  0  0  0  0  0  0  0
   56.0748   23.6553   46.9067 O   0  0  0  0  0  0  0  0  0  0  0  0
   56.2223   25.8847   46.4109 N   0  0  0  0  0  0  0  0  0  0  0  0
   57.2972   26.6798   46.2939 C   0  0  0  0  0  0  0  0  0  0  0  0
   57.2187   28.0400   46.0052 O   0  0  0  0  0  0  0  0  0  0  0  0
   56.3830   28.4450   45.8807 H   0  0  0  0  0  0  0  0  0  0  0  0
   58.6960   32.0042   48.1118 S   0  0  0  0  0  0  0  0  0  0  0  0
   58.3885   32.2122   49.5681 O   0  0  0  0  0  0  0  0  0  0  0  0
   58.2586   30.6176   47.7268 O   0  0  0  0  0  0  0  0  0  0  0  0
   57.7869   33.1448   47.1798 N   0  0  0  0  0  0  0  0  0  0  0  0
   58.0761   33.4433   45.8123 C   0  0  0  0  0  0  0  0  0  0  0  0
   58.6421   34.5303   45.5136 O   0  0  0  0  0  0  0  0  0  0  0  0
   57.6823   32.4922   44.7477 C   0  0  0  0  0  0  0  0  0  0  0  0
   58.0713   32.7126   43.4128 C   0  0  0  0  0  0  0  0  0  0  0  0
   57.7295   31.7943   42.4153 C   0  0  0  0  0  0  0  0  0  0  0  0
   56.9929   30.6528   42.7368 C   0  0  0  0  0  0  0  0  0  0  0  0
   56.5972   30.4254   44.0565 C   0  0  0  0  0  0  0  0  0  0  0  0
   56.9398   31.3385   45.0589 C   0  0  0  0  0  0  0  0  0  0  0  0
  7  8  2  0
  8  9  1  0
  9 10  2  0
 10 15  1  0
 15 16  1  0
 16 17  1  0
 17 18  2  0
 17 19  1  0
 19 20  1  0
 20 21  1  0
  9 11  1  0
 11 12  2  0
 12 13  1  0
 12 14  1  0
 14  1  1  0
  1  2  2  0
  2  3  1  0
  3  4  2  0
  4  5  1  0
  5  6  2  0
  6 23  1  0
 23 24  2  0
 23 25  2  0
 23 26  1  0
 26 27  1  0
 27 28  2  0
 27 29  1  0
 29 30  2  0
 30 31  1  0
 31 32  2  0
 32 33  1  0
 33 34  2  0
 14  8  1  0
  6  1  1  0
 34 29  1  0
 20 15  2  0
 21 22  1  0
M  CHG 1  16  -1
M  CHG 1  19  -1
M  CHG 1  26  -1
M  END
> <UniqueID>
47

> <SMILES>
C=c1c(=Cc2[n-]c(=O)[n-]c2O)cc(C)n1-c1ccncc1S(=O)(=O)[N-]C(=O)c1ccccc1

> <Energy>
128.76976998993402

> <Genealogy>
C=c1c(=Cc2[n-]c(=O)[n-]c2O)cc(C)n1-c1ccncc1S(=O)(=O)[N-]C(=O)c1ccccc1 (protonated)
C=c1c(=Cc2[n-]c(=O)[n-]c2O)cc(C)n1-c1ccncc1S(=O)(=O)[N-]C(=O)c1ccccc1 (3D coordinates assigned)
C=c1c(=Cc2[n-]c(=O)[n-]c2O)cc(C)n1-c1ccncc1S(=O)(=O)[N-]C(=O)c1ccccc1 (optimized conformer: 128.76976998993402 kcal/mol)

> <smiles>
C=c1c(=Cc2[nH]c(=O)[nH]c2O)cc(C)n1-c1ccncc1S(=O)(=O)NC(=O)c1ccccc1

> <score_type>
oracle

> <origin>
adg

> <m_score__min__energy>
-14.76

> <m_primary>
energy

> <minimizedAffinity>
-7.41674

> <minimizedRMSD>
0.78027

> <CNNscore>
0.4731032848

> <CNNaffinity>
6.9200615883

> <CNN_VS>
3.2739038467

> <CNNaffinity_variance>
0.3171963990

$$$$
62:0


 28 30  0  0  0  0  0  0  0  0999 V2000
   58.0280   32.0176   45.9024 N   0  0  0  0  0  0  0  0  0  0  0  0
   58.3239   30.7529   45.8229 C   0  0  0  0  0  0  0  0  0  0  0  0
   58.1101   30.0483   44.6907 N   0  0  0  0  0  0  0  0  0  0  0  0
   58.4722   28.7448   44.8211 C   0  0  0  0  0  0  0  0  0  0  0  0
   58.9609   28.4002   46.0756 C   0  0  0  0  0  0  0  0  0  0  0  0
   58.9625   29.7761   47.0430 S   0  0  0  0  0  0  0  0  0  0  0  0
   58.5606   33.1473   45.1858 C   0  0  0  0  0  0  0  0  0  0  0  0
   58.2186   33.2957   43.9825 O   0  0  0  0  0  0  0  0  0  0  0  0
   59.5618   34.1135   45.7578 C   0  0  0  0  0  0  0  0  0  0  0  0
   59.3949   34.2795   47.5709 S   0  0  0  0  0  0  0  0  0  0  0  0
   63.1532   32.9456   47.2131 C   0  0  0  0  0  0  0  0  0  0  0  0
   61.9581   33.5688   47.0465 N   0  0  0  0  0  0  0  0  0  0  0  0
   60.9495   33.4604   47.9544 C   0  0  0  0  0  0  0  0  0  0  0  0
   61.1414   32.6908   49.1293 C   0  0  0  0  0  0  0  0  0  0  0  0
   62.3714   32.0286   49.2935 C   0  0  0  0  0  0  0  0  0  0  0  0
   63.3774   32.1567   48.3373 C   0  0  0  0  0  0  0  0  0  0  0  0
   60.1128   32.5690   50.1941 C   0  0  0  0  0  0  0  0  0  0  0  0
   60.0565   33.4236   51.1177 O   0  0  0  0  0  0  0  0  0  0  0  0
   59.1743   31.5446   50.1742 O   0  0  0  0  0  0  0  0  0  0  0  0
   59.5303   27.0718   46.4622 C   0  0  0  0  0  0  0  0  0  0  0  0
   58.5390   25.9824   46.1546 C   0  0  0  0  0  0  0  0  0  0  0  0
   58.9834   24.6793   45.8775 C   0  0  0  0  0  0  0  0  0  0  0  0
   58.0596   23.6547   45.6406 C   0  0  0  0  0  0  0  0  0  0  0  0
   58.5057   22.3708   45.3555 O   0  0  0  0  0  0  0  0  0  0  0  0
   56.6883   23.9241   45.6893 C   0  0  0  0  0  0  0  0  0  0  0  0
   56.2378   25.2150   45.9799 C   0  0  0  0  0  0  0  0  0  0  0  0
   54.8754   25.4805   46.0358 O   0  0  0  0  0  0  0  0  0  0  0  0
   57.1596   26.2415   46.2156 C   0  0  0  0  0  0  0  0  0  0  0  0
 11 12  2  0
 12 13  1  0
 13 10  1  0
 10  9  1  0
  9  7  1  0
  7  8  2  0
  7  1  1  0
  1  2  2  0
  2  3  1  0
  3  4  1  0
  4  5  2  0
  5 20  1  0
 20 21  1  0
 21 22  2  0
 22 23  1  0
 23 24  1  0
 23 25  2  0
 25 26  1  0
 26 27  1  0
 26 28  2  0
  5  6  1  0
 13 14  2  0
 14 17  1  0
 17 18  2  0
 17 19  1  0
 14 15  1  0
 15 16  2  0
 16 11  1  0
  6  2  1  0
 28 21  1  0
M  CHG 1   3  -1
M  CHG 1  19  -1
M  CHG 1  24  -1
M  CHG 1  27  -1
M  END
> <UniqueID>
52

> <SMILES>
O=C(CSc1ncccc1C(=O)[O-])/N=c1/[n-]cc(Cc2cc([O-])cc([O-])c2)s1

> <Energy>
77.11044150898792

> <Genealogy>
O=C(CSc1ncccc1C(=O)[O-])N=c1[n-]cc(Cc2cc([O-])cc([O-])c2)s1 (protonated)
O=C(CSc1ncccc1C(=O)[O-])/N=c1/[n-]cc(Cc2cc([O-])cc([O-])c2)s1 (cis-trans isomerization)
O=C(CSc1ncccc1C(=O)[O-])/N=c1/[n-]cc(Cc2cc([O-])cc([O-])c2)s1 (3D coordinates assigned)
O=C(CSc1ncccc1C(=O)[O-])/N=c1/[n-]cc(Cc2cc([O-])cc([O-])c2)s1 (optimized conformer: 77.11044150898792 kcal/mol)

> <smiles>
O=C(CSc1ncccc1C(=O)O)N=c1[nH]cc(Cc2cc(O)cc(O)c2)s1

> <score_type>
oracle

> <origin>
adg

> <m_score__min__energy>
-17.73

> <m_primary>
energy

> <minimizedAffinity>
-8.06746

> <minimizedRMSD>
1.16327

> <CNNscore>
0.6889253855

> <CNNaffinity>
7.1471290588

> <CNN_VS>
4.9238386154

> <CNNaffinity_variance>
0.2131508142

$$$$
64:0


 33 36  0  0  0  0  0  0  0  0999 V2000
   58.2306   32.3193   46.7225 C   0  0  0  0  0  0  0  0  0  0  0  0
   58.9814   29.7273   48.1000 C   0  0  0  0  0  0  0  0  0  0  0  0
   58.9101   29.8569   46.7644 C   0  0  0  0  0  0  0  0  0  0  0  0
   59.0753   28.8342   45.8144 C   0  0  0  0  0  0  0  0  0  0  0  0
   59.5071   27.5639   45.9457 C   0  0  0  0  0  0  0  0  0  0  0  0
   58.6999   29.3703   44.5963 C   0  0  0  0  0  0  0  0  0  0  0  0
   58.3871   30.6938   44.8201 C   0  0  0  0  0  0  0  0  0  0  0  0
   57.9386   31.6508   43.7556 C   0  0  0  0  0  0  0  0  0  0  0  0
   58.5235   31.0017   46.1325 N   0  0  0  0  0  0  0  0  0  0  0  0
   58.6700   26.3595   45.8586 C   0  0  0  0  0  0  0  0  0  0  0  0
   59.1474   25.1091   45.9829 N   0  0  0  0  0  0  0  0  0  0  0  0
   58.0316   24.3461   45.9514 C   0  0  0  0  0  0  0  0  0  0  0  0
   58.0683   23.0914   46.0312 O   0  0  0  0  0  0  0  0  0  0  0  0
   56.8760   25.0336   45.8421 N   0  0  0  0  0  0  0  0  0  0  0  0
   57.2963   26.3099   45.7992 C   0  0  0  0  0  0  0  0  0  0  0  0
   56.4421   27.4070   45.7292 O   0  0  0  0  0  0  0  0  0  0  0  0
   55.5149   27.2772   45.6919 H   0  0  0  0  0  0  0  0  0  0  0  0
   59.4258   32.8547   47.4718 C   0  0  0  0  0  0  0  0  0  0  0  0
   60.6817   32.9358   46.8528 C   0  0  0  0  0  0  0  0  0  0  0  0
   61.7876   33.4308   47.5512 C   0  0  0  0  0  0  0  0  0  0  0  0
   61.6500   33.8588   48.8825 C   0  0  0  0  0  0  0  0  0  0  0  0
   60.3923   33.8021   49.4908 C   0  0  0  0  0  0  0  0  0  0  0  0
   59.2869   33.3043   48.7956 C   0  0  0  0  0  0  0  0  0  0  0  0
   62.7588   34.3587   49.6427 N   0  0  0  0  0  0  0  0  0  0  0  0
   63.6792   33.4422   50.7910 S   0  0  0  0  0  0  0  0  0  0  0  0
   64.9651   32.9933   50.1531 O   0  0  0  0  0  0  0  0  0  0  0  0
   64.0063   34.3147   51.9695 O   0  0  0  0  0  0  0  0  0  0  0  0
   62.7351   32.0642   51.3513 C   0  0  0  0  0  0  0  0  0  0  0  0
   62.7052   30.8693   50.6180 C   0  0  0  0  0  0  0  0  0  0  0  0
   61.9527   29.7821   51.0789 C   0  0  0  0  0  0  0  0  0  0  0  0
   61.2322   29.8849   52.2745 C   0  0  0  0  0  0  0  0  0  0  0  0
   61.2597   31.0736   53.0075 C   0  0  0  0  0  0  0  0  0  0  0  0
   62.0085   32.1647   52.5474 C   0  0  0  0  0  0  0  0  0  0  0  0
  2  3  2  0
  3  4  1  0
  4  5  2  0
  5 10  1  0
 10 11  1  0
 11 12  1  0
 12 13  2  0
 12 14  1  0
 14 15  1  0
 15 16  1  0
  4  6  1  0
  6  7  2  0
  7  8  1  0
  7  9  1  0
  9  1  1  0
  1 18  1  0
 18 19  2  0
 19 20  1  0
 20 21  2  0
 21 24  1  0
 24 25  1  0
 25 26  2  0
 25 27  2  0
 25 28  1  0
 28 29  2  0
 29 30  1  0
 30 31  2  0
 31 32  1  0
 32 33  2  0
 21 22  1  0
 22 23  2  0
  9  3  1  0
 23 18  1  0
 15 10  2  0
 33 28  1  0
 16 17  1  0
M  CHG 1  11  -1
M  CHG 1  14  -1
M  CHG 1  24  -1
M  END
> <UniqueID>
54

> <SMILES>
C=c1c(=Cc2[n-]c(=O)[n-]c2O)cc(C)n1Cc1ccc([N-]S(=O)(=O)c2ccccc2)cc1

> <Energy>
126.85186106450516

> <Genealogy>
C=c1c(=Cc2[n-]c(=O)[n-]c2O)cc(C)n1Cc1ccc([N-]S(=O)(=O)c2ccccc2)cc1 (protonated)
C=c1c(=Cc2[n-]c(=O)[n-]c2O)cc(C)n1Cc1ccc([N-]S(=O)(=O)c2ccccc2)cc1 (3D coordinates assigned)
C=c1c(=Cc2[n-]c(=O)[n-]c2O)cc(C)n1Cc1ccc([N-]S(=O)(=O)c2ccccc2)cc1 (optimized conformer: 126.85186106450516 kcal/mol)

> <smiles>
C=c1c(=Cc2[nH]c(=O)[nH]c2O)cc(C)n1Cc1ccc(NS(=O)(=O)c2ccccc2)cc1

> <score_type>
oracle

> <origin>
adg

> <m_score__min__energy>
-15.19

> <m_primary>
energy

> <minimizedAffinity>
-8.60932

> <minimizedRMSD>
1.36371

> <CNNscore>
0.4821255803

> <CNNaffinity>
7.2061257362

> <CNN_VS>
3.4742574692

> <CNNaffinity_variance>
0.2402363271

$$$$
70:0


 27 29  0  0  0  0  0  0  0  0999 V2000
   56.7942   26.1848   46.3820 C   0  0  0  0  0  0  0  0  0  0  0  0
   57.9280   25.7605   47.0984 C   0  0  0  0  0  0  0  0  0  0  0  0
   57.9551   24.5090   47.6325 N   0  0  0  0  0  0  0  0  0  0  0  0
   56.9115   23.6556   47.4856 C   0  0  0  0  0  0  0  0  0  0  0  0
   56.9683   22.5017   47.9827 O   0  0  0  0  0  0  0  0  0  0  0  0
   55.8038   24.0481   46.8081 N   0  0  0  0  0  0  0  0  0  0  0  0
   55.7148   25.2889   46.2655 C   0  0  0  0  0  0  0  0  0  0  0  0
   54.5442   25.6639   45.6164 O   0  0  0  0  0  0  0  0  0  0  0  0
   59.0586   26.6257   47.2774 N   0  0  0  0  0  0  0  0  0  0  0  0
   60.2636   26.4378   46.4614 C   0  0  0  0  0  0  0  0  0  0  0  0
   61.0092   27.7766   46.2515 C   0  0  0  0  0  0  0  0  0  0  0  0
   60.5097   28.8430   47.0416 O   0  0  0  0  0  0  0  0  0  0  0  0
   60.3261   28.4188   48.3766 C   0  0  0  0  0  0  0  0  0  0  0  0
   59.1059   27.5003   48.4518 C   0  0  0  0  0  0  0  0  0  0  0  0
   57.4667   28.0807   44.8914 C   0  0  0  0  0  0  0  0  0  0  0  0
   56.6992   27.5730   45.8734 C   0  0  0  0  0  0  0  0  0  0  0  0
   58.1113   26.5362   42.9041 N   0  0  0  0  0  0  0  0  0  0  0  0
   57.8245   27.2239   43.7888 C   0  0  0  0  0  0  0  0  0  0  0  0
   57.9340   29.4843   44.8618 C   0  0  0  0  0  0  0  0  0  0  0  0
   59.1341   29.7551   44.5788 O   0  0  0  0  0  0  0  0  0  0  0  0
   57.0219   30.5426   45.1800 N   0  0  0  0  0  0  0  0  0  0  0  0
   57.0687   31.8561   44.5509 C   0  0  0  0  0  0  0  0  0  0  0  0
   57.8514   32.8045   45.4037 C   0  0  0  0  0  0  0  0  0  0  0  0
   58.6946   33.7946   44.9418 C   0  0  0  0  0  0  0  0  0  0  0  0
   59.2249   34.3830   46.0703 C   0  0  0  0  0  0  0  0  0  0  0  0
   58.6735   33.7156   47.1460 C   0  0  0  0  0  0  0  0  0  0  0  0
   57.8610   32.7790   46.7160 O   0  0  0  0  0  0  0  0  0  0  0  0
 17 18  3  0
 18 15  1  0
 15 16  2  0
 16  1  1  0
  1  2  1  0
  2  9  1  0
  9 10  1  0
 10 11  1  0
 11 12  1  0
 12 13  1  0
 13 14  1  0
  2  3  2  0
  3  4  1  0
  4  5  2  0
  4  6  1  0
  6  7  1  0
  7  8  1  0
 15 19  1  0
 19 20  2  0
 19 21  1  0
 21 22  1  0
 22 23  1  0
 23 24  2  0
 24 25  1  0
 25 26  2  0
 26 27  1  0
  7  1  2  0
 27 23  1  0
 14  9  1  0
M  CHG 1   6  -1
M  CHG 1   8  -1
M  CHG 1  21  -1
M  END
> <UniqueID>
58

> <SMILES>
N#CC(=Cc1c(N2CCOCC2)nc(=O)[n-]c1[O-])C(=O)[N-]Cc1ccco1

> <Energy>
84.71910707127662

> <Genealogy>
N#CC(=Cc1c(N2CCOCC2)nc(=O)[n-]c1[O-])C(=O)[N-]Cc1ccco1 (protonated)
N#CC(=Cc1c(N2CCOCC2)nc(=O)[n-]c1[O-])C(=O)[N-]Cc1ccco1 (3D coordinates assigned)
N#CC(=Cc1c(N2CCOCC2)nc(=O)[n-]c1[O-])C(=O)[N-]Cc1ccco1 (nonaromatic ring conformer: 84.71910707127662 kcal/mol)

> <smiles>
N#CC(=Cc1c(N2CCOCC2)nc(=O)[nH]c1O)C(=O)NCc1ccco1

> <score_type>
oracle

> <origin>
adg

> <m_score__min__energy>
-14.33

> <m_primary>
energy

> <minimizedAffinity>
-4.21956

> <minimizedRMSD>
0.99376

> <CNNscore>
0.1663781852

> <CNNaffinity>
5.7694525719

> <CNN_VS>
0.9599110484

> <CNNaffinity_variance>
0.0266119763

$$$$
83:0


 24 26  0  0  0  0  0  0  0  0999 V2000
   59.9198   28.9387   45.9917 C   0  0  0  0  0  0  0  0  0  0  0  0
   58.7003   28.8937   45.4331 C   0  0  0  0  0  0  0  0  0  0  0  0
   57.9309   27.7616   45.1281 C   0  0  0  0  0  0  0  0  0  0  0  0
   58.2769   26.4611   45.0944 C   0  0  0  0  0  0  0  0  0  0  0  0
   56.6742   28.1539   44.8222 N   0  0  0  0  0  0  0  0  0  0  0  0
   56.7149   29.4977   44.8958 C   0  0  0  0  0  0  0  0  0  0  0  0
   55.7142   30.2240   44.6518 O   0  0  0  0  0  0  0  0  0  0  0  0
   57.9237   29.9849   45.2405 N   0  0  0  0  0  0  0  0  0  0  0  0
   57.5446   25.3609   45.7399 C   0  0  0  0  0  0  0  0  0  0  0  0
   58.1214   24.2077   46.1189 N   0  0  0  0  0  0  0  0  0  0  0  0
   57.1266   23.5577   46.7630 C   0  0  0  0  0  0  0  0  0  0  0  0
   57.2768   22.4105   47.2603 O   0  0  0  0  0  0  0  0  0  0  0  0
   55.9637   24.2382   46.8437 N   0  0  0  0  0  0  0  0  0  0  0  0
   56.2479   25.3845   46.2044 C   0  0  0  0  0  0  0  0  0  0  0  0
   55.3529   26.4409   46.0686 O   0  0  0  0  0  0  0  0  0  0  0  0
   54.4864   26.3685   46.4177 H   0  0  0  0  0  0  0  0  0  0  0  0
   58.2694   31.3727   45.4038 C   0  0  0  0  0  0  0  0  0  0  0  0
   58.6278   31.8574   46.6711 C   0  0  0  0  0  0  0  0  0  0  0  0
   58.9684   33.2006   46.8422 C   0  0  0  0  0  0  0  0  0  0  0  0
   58.9478   34.0713   45.7528 C   0  0  0  0  0  0  0  0  0  0  0  0
   58.5812   33.6034   44.4882 C   0  0  0  0  0  0  0  0  0  0  0  0
   58.2316   32.2510   44.3026 C   0  0  0  0  0  0  0  0  0  0  0  0
   57.8342   31.7506   43.0530 O   0  0  0  0  0  0  0  0  0  0  0  0
   57.9768   32.4478   41.8195 C   0  0  0  0  0  0  0  0  0  0  0  0
  1  2  2  0
  2  3  1  0
  3  4  2  0
  4  9  1  0
  9 10  1  0
 10 11  1  0
 11 12  2  0
 11 13  1  0
 13 14  1  0
 14 15  1  0
  3  5  1  0
  5  6  1  0
  6  7  2  0
  6  8  1  0
  8 17  1  0
 17 18  2  0
 18 19  1  0
 19 20  2  0
 20 21  1  0
 21 22  2  0
 22 23  1  0
 23 24  1  0
  8  2  1  0
 22 17  1  0
 14  9  2  0
 15 16  1  0
M  CHG 1   5  -1
M  CHG 1  10  -1
M  CHG 1  13  -1
M  END
> <UniqueID>
70

> <SMILES>
C=c1c(=Cc2[n-]c(=O)[n-]c2O)[n-]c(=O)n1-c1ccccc1OC

> <Energy>
115.50739346955392

> <Genealogy>
C=c1c(=Cc2[n-]c(=O)[n-]c2O)[n-]c(=O)n1-c1ccccc1OC (protonated)
C=c1c(=Cc2[n-]c(=O)[n-]c2O)[n-]c(=O)n1-c1ccccc1OC (3D coordinates assigned)
C=c1c(=Cc2[n-]c(=O)[n-]c2O)[n-]c(=O)n1-c1ccccc1OC (optimized conformer: 115.50739346955392 kcal/mol)

> <smiles>
C=c1c(=Cc2[nH]c(=O)[nH]c2O)[nH]c(=O)n1-c1ccccc1OC

> <score_type>
oracle

> <origin>
adg

> <m_score__min__energy>
-14.220000000000001

> <m_primary>
energy

> <minimizedAffinity>
-8.30168

> <minimizedRMSD>
0.59199

> <CNNscore>
0.6825585365

> <CNNaffinity>
6.3153929710

> <CNN_VS>
4.3106255531

> <CNNaffinity_variance>
0.0948695913

$$$$
87:0


 30 32  0  0  0  0  0  0  0  0999 V2000
   57.7396   27.3195   45.5443 C   0  0  0  0  0  0  0  0  0  0  0  0
   59.1303   27.4489   45.5396 C   0  0  0  0  0  0  0  0  0  0  0  0
   59.9139   28.5489   45.2051 C   0  0  0  0  0  0  0  0  0  0  0  0
   61.1633   28.3870   45.2676 O   0  0  0  0  0  0  0  0  0  0  0  0
   59.4711   29.8064   44.8064 C   0  0  0  0  0  0  0  0  0  0  0  0
   58.1709   30.2978   44.6583 C   0  0  0  0  0  0  0  0  0  0  0  0
   56.9705   29.5942   44.8539 C   0  0  0  0  0  0  0  0  0  0  0  0
   55.8870   30.2110   44.6640 O   0  0  0  0  0  0  0  0  0  0  0  0
   56.8652   28.3031   45.2389 N   0  0  0  0  0  0  0  0  0  0  0  0
   55.9661   25.9519   46.3330 O   0  0  0  0  0  0  0  0  0  0  0  0
   57.1655   26.0093   45.9525 C   0  0  0  0  0  0  0  0  0  0  0  0
   57.9254   24.7927   45.9339 N   0  0  0  0  0  0  0  0  0  0  0  0
   57.8504   23.7529   44.9160 C   0  0  0  0  0  0  0  0  0  0  0  0
   57.4021   22.4765   45.5458 C   0  0  0  0  0  0  0  0  0  0  0  0
   57.1306   22.3640   46.8625 N   0  0  0  0  0  0  0  0  0  0  0  0
   56.7177   21.0931   46.9965 C   0  0  0  0  0  0  0  0  0  0  0  0
   56.7380   20.4772   45.7674 C   0  0  0  0  0  0  0  0  0  0  0  0
   57.1646   21.3507   44.8404 N   0  0  0  0  0  0  0  0  0  0  0  0
   58.0704   31.7127   44.2246 C   0  0  0  0  0  0  0  0  0  0  0  0
   57.8717   31.9722   43.0080 O   0  0  0  0  0  0  0  0  0  0  0  0
   58.1771   32.7949   45.1552 N   0  0  0  0  0  0  0  0  0  0  0  0
   58.2091   32.6276   46.6034 C   0  0  0  0  0  0  0  0  0  0  0  0
   59.6332   32.4793   47.0567 C   0  0  0  0  0  0  0  0  0  0  0  0
   60.5829   33.4617   46.7252 C   0  0  0  0  0  0  0  0  0  0  0  0
   61.9168   33.3130   47.1168 C   0  0  0  0  0  0  0  0  0  0  0  0
   62.3152   32.1800   47.8327 C   0  0  0  0  0  0  0  0  0  0  0  0
   63.6103   32.0370   48.2090 F   0  0  0  0  0  0  0  0  0  0  0  0
   61.3803   31.1913   48.1523 C   0  0  0  0  0  0  0  0  0  0  0  0
   60.0451   31.3332   47.7629 C   0  0  0  0  0  0  0  0  0  0  0  0
   59.1556   30.3547   48.0693 F   0  0  0  0  0  0  0  0  0  0  0  0
 10 11  2  0
 11 12  1  0
 12 13  1  0
 13 14  1  0
 14 15  2  0
 15 16  1  0
 16 17  2  0
 17 18  1  0
 11  1  1  0
  1  2  2  0
  2  3  1  0
  3  4  2  0
  3  5  1  0
  5  6  2  0
  6 19  1  0
 19 20  2  0
 19 21  1  0
 21 22  1  0
 22 23  1  0
 23 24  2  0
 24 25  1  0
 25 26  2  0
 26 27  1  0
 26 28  1  0
 28 29  2  0
 29 30  1  0
  6  7  1  0
  7  8  2  0
  7  9  1  0
 18 14  1  0
  9  1  1  0
 29 23  1  0
M  CHG 1   9  -1
M  CHG 1  12  -1
M  CHG 1  18  -1
M  CHG 1  21  -1
M  END
> <UniqueID>
73

> <SMILES>
O=C([N-]Cc1ncc[n-]1)c1cc(=O)cc(C(=O)[N-]Cc2ccc(F)cc2F)c(=O)[n-]1

> <Energy>
99.39266091903022

> <Genealogy>
O=C([N-]Cc1ncc[n-]1)c1cc(=O)cc(C(=O)[N-]Cc2ccc(F)cc2F)c(=O)[n-]1 (protonated)
O=C([N-]Cc1ncc[n-]1)c1cc(=O)cc(C(=O)[N-]Cc2ccc(F)cc2F)c(=O)[n-]1 (3D coordinates assigned)
O=C([N-]Cc1ncc[n-]1)c1cc(=O)cc(C(=O)[N-]Cc2ccc(F)cc2F)c(=O)[n-]1 (optimized conformer: 99.39266091903022 kcal/mol)

> <smiles>
O=C(NCc1ncc[nH]1)c1cc(=O)cc(C(=O)NCc2ccc(F)cc2F)c(=O)[nH]1

> <score_type>
oracle

> <origin>
adg

> <m_score__min__energy>
-15.720000000000001

> <m_primary>
energy

> <minimizedAffinity>
-8.06230

> <minimizedRMSD>
1.52323

> <CNNscore>
0.3481222391

> <CNNaffinity>
6.6856193542

> <CNN_VS>
2.3274128437

> <CNNaffinity_variance>
0.0288640577

$$$$
88:0


 26 29  0  0  0  0  0  0  0  0999 V2000
   59.1547   27.4870   47.4596 C   0  0  0  0  0  0  0  0  0  0  0  0
   58.7037   28.0455   46.3257 C   0  0  0  0  0  0  0  0  0  0  0  0
   58.2819   27.3798   45.1612 C   0  0  0  0  0  0  0  0  0  0  0  0
   58.0612   26.0736   44.9161 C   0  0  0  0  0  0  0  0  0  0  0  0
   58.0734   28.3628   44.2079 C   0  0  0  0  0  0  0  0  0  0  0  0
   58.3076   29.5747   44.8226 C   0  0  0  0  0  0  0  0  0  0  0  0
   58.1700   30.9105   44.1584 C   0  0  0  0  0  0  0  0  0  0  0  0
   58.6865   29.3860   46.1061 N   0  0  0  0  0  0  0  0  0  0  0  0
   57.3728   25.1344   45.8148 C   0  0  0  0  0  0  0  0  0  0  0  0
   57.9505   24.0674   46.3983 N   0  0  0  0  0  0  0  0  0  0  0  0
   56.9896   23.6086   47.2294 C   0  0  0  0  0  0  0  0  0  0  0  0
   57.1495   22.5904   47.9519 O   0  0  0  0  0  0  0  0  0  0  0  0
   55.8506   24.3322   47.2337 N   0  0  0  0  0  0  0  0  0  0  0  0
   56.1166   25.3026   46.3437 C   0  0  0  0  0  0  0  0  0  0  0  0
   55.2302   26.3245   46.0266 O   0  0  0  0  0  0  0  0  0  0  0  0
   59.0669   30.4356   47.0128 C   0  0  0  0  0  0  0  0  0  0  0  0
   60.2887   30.3802   47.6923 C   0  0  0  0  0  0  0  0  0  0  0  0
   60.6356   31.4381   48.5486 C   0  0  0  0  0  0  0  0  0  0  0  0
   59.7783   32.4887   48.6799 N   0  0  0  0  0  0  0  0  0  0  0  0
   58.6042   32.5324   47.9992 C   0  0  0  0  0  0  0  0  0  0  0  0
   58.2578   31.5148   47.1715 N   0  0  0  0  0  0  0  0  0  0  0  0
   61.8733   31.4335   49.2851 N   0  0  0  0  0  0  0  0  0  0  0  0
   63.1100   32.0458   48.8259 C   0  0  0  0  0  0  0  0  0  0  0  0
   64.0892   31.9208   49.9860 C   0  0  0  0  0  0  0  0  0  0  0  0
   63.4959   30.8723   50.9230 C   0  0  0  0  0  0  0  0  0  0  0  0
   62.0121   30.8027   50.5865 C   0  0  0  0  0  0  0  0  0  0  0  0
  1  2  2  0
  2  3  1  0
  3  4  2  0
  4  9  1  0
  9 10  1  0
 10 11  1  0
 11 12  2  0
 11 13  1  0
 13 14  1  0
 14 15  1  0
  3  5  1  0
  5  6  2  0
  6  7  1  0
  6  8  1  0
  8 16  1  0
 16 17  2  0
 17 18  1  0
 18 22  1  0
 22 23  1  0
 23 24  1  0
 24 25  1  0
 25 26  1  0
 18 19  2  0
 19 20  1  0
 20 21  2  0
  8  2  1  0
 21 16  1  0
 14  9  2  0
 26 22  1  0
M  CHG 1  10  -1
M  CHG 1  13  -1
M  CHG 1  15  -1
M  END
> <UniqueID>
74

> <SMILES>
C=c1c(=Cc2[n-]c(=O)[n-]c2[O-])cc(C)n1-c1cc(N2CCCC2)ncn1

> <Energy>
121.95370536226305

> <Genealogy>
C=c1c(=Cc2[n-]c(=O)[n-]c2[O-])cc(C)n1-c1cc(N2CCCC2)ncn1 (protonated)
C=c1c(=Cc2[n-]c(=O)[n-]c2[O-])cc(C)n1-c1cc(N2CCCC2)ncn1 (3D coordinates assigned)
C=c1c(=Cc2[n-]c(=O)[n-]c2[O-])cc(C)n1-c1cc(N2CCCC2)ncn1 (nonaromatic ring conformer: 121.95370536226305 kcal/mol)

> <smiles>
C=c1c(=Cc2[nH]c(=O)[nH]c2O)cc(C)n1-c1cc(N2CCCC2)ncn1

> <score_type>
oracle

> <origin>
adg

> <m_score__min__energy>
-15.720000000000001

> <m_primary>
energy

> <minimizedAffinity>
-7.79430

> <minimizedRMSD>
1.97869

> <CNNscore>
0.0642530173

> <CNNaffinity>
5.8509902954

> <CNN_VS>
0.3759437799

> <CNNaffinity_variance>
0.0824519172

$$$$
90:0


 31 34  0  0  0  0  0  0  0  0999 V2000
   58.7075   30.6976   45.3316 C   0  0  0  0  0  0  0  0  0  0  0  0
   58.2034   31.3928   44.2223 C   0  0  0  0  0  0  0  0  0  0  0  0
   58.1231   32.7881   44.2457 C   0  0  0  0  0  0  0  0  0  0  0  0
   58.5410   33.4953   45.3750 C   0  0  0  0  0  0  0  0  0  0  0  0
   59.0412   32.8109   46.4923 C   0  0  0  0  0  0  0  0  0  0  0  0
   59.1311   31.4119   46.4625 C   0  0  0  0  0  0  0  0  0  0  0  0
   56.5611   28.7762   44.6244 C   0  0  0  0  0  0  0  0  0  0  0  0
   57.8144   28.3950   44.9172 C   0  0  0  0  0  0  0  0  0  0  0  0
   58.2897   27.0795   45.0432 C   0  0  0  0  0  0  0  0  0  0  0  0
   57.7326   25.9023   44.7020 C   0  0  0  0  0  0  0  0  0  0  0  0
   59.5504   27.1762   45.6119 C   0  0  0  0  0  0  0  0  0  0  0  0
   59.8304   28.5206   45.7361 C   0  0  0  0  0  0  0  0  0  0  0  0
   61.1119   29.0744   46.2815 C   0  0  0  0  0  0  0  0  0  0  0  0
   58.7798   29.2608   45.3186 N   0  0  0  0  0  0  0  0  0  0  0  0
   57.1488   24.9268   45.6380 C   0  0  0  0  0  0  0  0  0  0  0  0
   57.8051   23.8691   46.1507 N   0  0  0  0  0  0  0  0  0  0  0  0
   56.9281   23.3618   47.0439 C   0  0  0  0  0  0  0  0  0  0  0  0
   57.1749   22.3364   47.7309 O   0  0  0  0  0  0  0  0  0  0  0  0
   55.7691   24.0466   47.1529 N   0  0  0  0  0  0  0  0  0  0  0  0
   55.9326   25.0412   46.2656 C   0  0  0  0  0  0  0  0  0  0  0  0
   54.9919   26.0376   46.0384 O   0  0  0  0  0  0  0  0  0  0  0  0
   59.5349   33.7013   47.9348 S   0  0  0  0  0  0  0  0  0  0  0  0
   58.9675   33.0255   49.1516 O   0  0  0  0  0  0  0  0  0  0  0  0
   58.9746   35.0954   47.8718 O   0  0  0  0  0  0  0  0  0  0  0  0
   61.2764   33.7771   48.0782 N   0  0  0  0  0  0  0  0  0  0  0  0
   61.9117   33.6024   46.7568 C   0  0  0  0  0  0  0  0  0  0  0  0
   63.3833   33.1950   46.9045 C   0  0  0  0  0  0  0  0  0  0  0  0
   63.5270   31.8992   47.5950 N   0  0  0  0  0  0  0  0  0  0  0  0
   62.4136   31.5793   48.5073 C   0  0  0  0  0  0  0  0  0  0  0  0
   61.7810   32.8433   49.1131 C   0  0  0  0  0  0  0  0  0  0  0  0
   64.3906   31.9187   48.1373 H   0  0  0  0  0  0  0  0  0  0  0  0
  7  8  2  0
  8  9  1  0
  9 10  2  0
 10 15  1  0
 15 16  1  0
 16 17  1  0
 17 18  2  0
 17 19  1  0
 19 20  1  0
 20 21  1  0
  9 11  1  0
 11 12  2  0
 12 13  1  0
 12 14  1  0
 14  1  1  0
  1  2  2  0
  2  3  1  0
  3  4  2  0
  4  5  1  0
  5 22  1  0
 22 23  2  0
 22 24  2  0
 22 25  1  0
 25 26  1  0
 26 27  1  0
 27 28  1  0
 28 29  1  0
 29 30  1  0
  5  6  2  0
 14  8  1  0
  6  1  1  0
 20 15  2  0
 30 25  1  0
 28 31  1  0
M  CHG 1  16  -1
M  CHG 1  19  -1
M  CHG 1  21  -1
M  END
> <UniqueID>
76

> <SMILES>
C=c1c(=Cc2[n-]c(=O)[n-]c2[O-])cc(C)n1-c1cccc(S(=O)(=O)N2CCNCC2)c1

> <Energy>
134.95269929390997

> <Genealogy>
C=c1c(=Cc2[n-]c(=O)[n-]c2[O-])cc(C)n1-c1cccc(S(=O)(=O)N2CCNCC2)c1 (protonated)
C=c1c(=Cc2[n-]c(=O)[n-]c2[O-])cc(C)n1-c1cccc(S(=O)(=O)N2CCNCC2)c1 (3D coordinates assigned)
C=c1c(=Cc2[n-]c(=O)[n-]c2[O-])cc(C)n1-c1cccc(S(=O)(=O)N2CCNCC2)c1 (nonaromatic ring conformer: 134.95269929390997 kcal/mol)

> <smiles>
C=c1c(=Cc2[nH]c(=O)[nH]c2O)cc(C)n1-c1cccc(S(=O)(=O)N2CCNCC2)c1

> <score_type>
oracle

> <origin>
adg

> <m_score__min__energy>
-17.27

> <m_primary>
energy

> <minimizedAffinity>
-7.95376

> <minimizedRMSD>
0.62252

> <CNNscore>
0.1626718640

> <CNNaffinity>
6.6499133110

> <CNN_VS>
1.0817538500

> <CNNaffinity_variance>
0.0505271368

$$$$
7:0


 24 26  0  0  0  0  0  0  0  0999 V2000
   58.9983   29.3685   45.2328 C   0  0  0  0  0  0  0  0  0  0  0  0
   56.6915   29.1084   44.6957 O   0  0  0  0  0  0  0  0  0  0  0  0
   57.6646   28.6899   45.3746 C   0  0  0  0  0  0  0  0  0  0  0  0
   57.4388   27.6461   46.3324 N   0  0  0  0  0  0  0  0  0  0  0  0
   57.6337   26.2385   46.1319 C   0  0  0  0  0  0  0  0  0  0  0  0
   58.9191   25.6969   45.9623 C   0  0  0  0  0  0  0  0  0  0  0  0
   59.0824   24.3260   45.7346 C   0  0  0  0  0  0  0  0  0  0  0  0
   57.9635   23.4924   45.6534 C   0  0  0  0  0  0  0  0  0  0  0  0
   58.1266   22.1308   45.4268 O   0  0  0  0  0  0  0  0  0  0  0  0
   56.6811   24.0294   45.7911 C   0  0  0  0  0  0  0  0  0  0  0  0
   56.5135   25.4002   46.0207 C   0  0  0  0  0  0  0  0  0  0  0  0
   55.2329   25.9240   46.1466 O   0  0  0  0  0  0  0  0  0  0  0  0
   58.9980   30.9577   46.1430 S   0  0  0  0  0  0  0  0  0  0  0  0
   59.2333   30.2705   47.8213 C   0  0  0  0  0  0  0  0  0  0  0  0
   60.0112   31.2201   48.6815 C   0  0  0  0  0  0  0  0  0  0  0  0
   59.3580   32.0020   49.6540 C   0  0  0  0  0  0  0  0  0  0  0  0
   60.1217   32.8519   50.4642 C   0  0  0  0  0  0  0  0  0  0  0  0
   59.5628   33.5615   51.3432 O   0  0  0  0  0  0  0  0  0  0  0  0
   61.4713   32.8935   50.2846 N   0  0  0  0  0  0  0  0  0  0  0  0
   62.3635   33.6522   50.9802 C   0  0  0  0  0  0  0  0  0  0  0  0
   63.6875   33.4820   50.5779 C   0  0  0  0  0  0  0  0  0  0  0  0
   63.7338   32.3505   49.3198 S   0  0  0  0  0  0  0  0  0  0  0  0
   62.0704   32.1326   49.3451 C   0  0  0  0  0  0  0  0  0  0  0  0
   61.3655   31.2981   48.5451 N   0  0  0  0  0  0  0  0  0  0  0  0
  2  3  2  0
  3  1  1  0
  1 13  1  0
 13 14  1  0
 14 15  1  0
 15 16  2  0
 16 17  1  0
 17 18  2  0
 17 19  1  0
 19 20  1  0
 20 21  2  0
 21 22  1  0
 22 23  1  0
 23 24  2  0
  3  4  1  0
  4  5  1  0
  5  6  2  0
  6  7  1  0
  7  8  2  0
  8  9  1  0
  8 10  1  0
 10 11  2  0
 11 12  1  0
 24 15  1  0
 11  5  1  0
 23 19  1  0
M  CHG 1   4  -1
M  CHG 1   9  -1
M  CHG 1  12  -1
M  END
> <UniqueID>
8

> <SMILES>
O=C(CSCc1cc(=O)n2ccsc2n1)[N-]c1ccc([O-])cc1[O-]

> <Energy>
73.24729628677558

> <Genealogy>
O=C(CSCc1cc(=O)n2ccsc2n1)[N-]c1ccc([O-])cc1[O-] (protonated)
O=C(CSCc1cc(=O)n2ccsc2n1)[N-]c1ccc([O-])cc1[O-] (3D coordinates assigned)
O=C(CSCc1cc(=O)n2ccsc2n1)[N-]c1ccc([O-])cc1[O-] (optimized conformer: 73.24729628677558 kcal/mol)

> <smiles>
O=C(CSCc1cc(=O)n2ccsc2n1)Nc1ccc(O)cc1O

> <score_type>
oracle

> <origin>
adg

> <m_score__min__energy>
-15.52

> <m_primary>
energy

> <minimizedAffinity>
-5.90740

> <minimizedRMSD>
2.11020

> <CNNscore>
0.2133745551

> <CNNaffinity>
6.1157517433

> <CNN_VS>
1.3049458265

> <CNNaffinity_variance>
0.2187875062

$$$$
33:0


 37 40  0  0  0  0  0  0  0  0999 V2000
   59.1666   30.0525   49.5339 C   0  0  0  0  0  0  0  0  0  0  0  0
   59.1976   29.9287   50.8941 C   0  0  0  0  0  0  0  0  0  0  0  0
   60.3262   29.3678   51.5692 C   0  0  0  0  0  0  0  0  0  0  0  0
   61.4261   28.8939   50.9586 C   0  0  0  0  0  0  0  0  0  0  0  0
   60.3060   29.2686   52.9212 N   0  0  0  0  0  0  0  0  0  0  0  0
   59.2603   29.6722   53.6728 C   0  0  0  0  0  0  0  0  0  0  0  0
   59.3208   29.5208   54.9223 O   0  0  0  0  0  0  0  0  0  0  0  0
   58.1610   30.2282   53.0830 N   0  0  0  0  0  0  0  0  0  0  0  0
   58.1175   30.3745   51.7184 C   0  0  0  0  0  0  0  0  0  0  0  0
   57.1103   30.9338   51.2024 O   0  0  0  0  0  0  0  0  0  0  0  0
   57.5056   32.2950   48.8865 O   0  0  0  0  0  0  0  0  0  0  0  0
   58.8307   32.2874   48.4577 C   0  0  0  0  0  0  0  0  0  0  0  0
   59.3147   33.3351   47.7467 N   0  0  0  0  0  0  0  0  0  0  0  0
   60.5984   33.3657   47.3093 C   0  0  0  0  0  0  0  0  0  0  0  0
   60.9967   34.3733   46.6651 O   0  0  0  0  0  0  0  0  0  0  0  0
   61.4464   32.3168   47.5677 N   0  0  0  0  0  0  0  0  0  0  0  0
   60.9862   31.2339   48.2799 C   0  0  0  0  0  0  0  0  0  0  0  0
   61.7479   30.2571   48.5235 O   0  0  0  0  0  0  0  0  0  0  0  0
   59.6688   31.2098   48.7597 C   0  0  0  0  0  0  0  0  0  0  0  0
   56.9504   33.0210   48.6799 H   0  0  0  0  0  0  0  0  0  0  0  0
   62.8575   32.3839   47.1335 C   0  0  0  0  0  0  0  0  0  0  0  0
   63.6290   33.4612   47.9093 C   0  0  0  0  0  0  0  0  0  0  0  0
   63.6037   33.2016   49.3975 C   0  0  0  0  0  0  0  0  0  0  0  0
   64.3501   32.2248   49.9414 C   0  0  0  0  0  0  0  0  0  0  0  0
   64.3032   31.9980   51.4283 C   0  0  0  0  0  0  0  0  0  0  0  0
   62.8489   32.0236   51.9327 C   0  0  0  0  0  0  0  0  0  0  0  0
   61.9833   33.1517   51.3081 C   0  0  0  0  0  0  0  0  0  0  0  0
   62.7474   34.0449   50.3135 C   0  0  0  0  0  0  0  0  0  0  0  0
   56.9987   30.6352   53.9034 C   0  0  0  0  0  0  0  0  0  0  0  0
   56.0207   29.4693   54.1095 C   0  0  0  0  0  0  0  0  0  0  0  0
   54.6137   29.8504   53.7319 C   0  0  0  0  0  0  0  0  0  0  0  0
   53.6234   29.9696   54.7225 C   0  0  0  0  0  0  0  0  0  0  0  0
   52.3297   30.3727   54.3779 C   0  0  0  0  0  0  0  0  0  0  0  0
   52.0167   30.6636   53.0458 C   0  0  0  0  0  0  0  0  0  0  0  0
   50.7311   31.0663   52.7065 O   0  0  0  0  0  0  0  0  0  0  0  0
   52.9999   30.5532   52.0579 C   0  0  0  0  0  0  0  0  0  0  0  0
   54.2949   30.1512   52.3991 C   0  0  0  0  0  0  0  0  0  0  0  0
 11 12  1  0
 12 13  1  0
 13 14  1  0
 14 15  2  0
 14 16  1  0
 16 21  1  0
 21 22  1  0
 22 23  1  0
 23 24  2  0
 24 25  1  0
 25 26  1  0
 26 27  1  0
 27 28  1  0
 16 17  1  0
 17 18  2  0
 17 19  1  0
 19  1  1  0
  1  2  2  0
  2  3  1  0
  3  4  2  0
  3  5  1  0
  5  6  1  0
  6  7  2  0
  6  8  1  0
  8 29  1  0
 29 30  1  0
 30 31  1  0
 31 32  2  0
 32 33  1  0
 33 34  2  0
 34 35  1  0
 34 36  1  0
 36 37  2  0
  8  9  1  0
  9 10  2  0
 19 12  2  0
  9  2  1  0
 28 23  1  0
 37 31  1  0
 11 20  1  0
M  CHG 1   5  -1
M  CHG 1  13  -1
M  CHG 1  35  -1
M  END
> <UniqueID>
33

> <SMILES>
C=c1[n-]c(=O)n(CCc2ccc([O-])cc2)c(=O)/c1=C\c1c(O)[n-]c(=O)n(CCC2=CCCCC2)c1=O

> <Energy>
85.7837945961297

> <Genealogy>
C=c1[n-]c(=O)n(CCc2ccc([O-])cc2)c(=O)c1=Cc1c(O)[n-]c(=O)n(CCC2=CCCCC2)c1=O (protonated)
C=c1[n-]c(=O)n(CCc2ccc([O-])cc2)c(=O)/c1=C\c1c(O)[n-]c(=O)n(CCC2=CCCCC2)c1=O (cis-trans isomerization)
C=c1[n-]c(=O)n(CCc2ccc([O-])cc2)c(=O)/c1=C\c1c(O)[n-]c(=O)n(CCC2=CCCCC2)c1=O (3D coordinates assigned)
C=c1[n-]c(=O)n(CCc2ccc([O-])cc2)c(=O)/c1=C\c1c(O)[n-]c(=O)n(CCC2=CCCCC2)c1=O (nonaromatic ring conformer: 85.7837945961297 kcal/mol)

> <smiles>
C=c1[nH]c(=O)n(CCc2ccc(O)cc2)c(=O)c1=Cc1c(O)[nH]c(=O)n(CCC2=CCCCC2)c1=O

> <score_type>
oracle

> <origin>
adg

> <m_score__min__energy>
-15.01

> <m_primary>
energy

> <minimizedAffinity>
-6.45479

> <minimizedRMSD>
0.93634

> <CNNscore>
0.0650255755

> <CNNaffinity>
5.4197387695

> <CNN_VS>
0.3524216413

> <CNNaffinity_variance>
0.6007084250

$$$$
43:0


 27 29  0  0  0  0  0  0  0  0999 V2000
   60.5608   29.5907   46.3051 C   0  0  0  0  0  0  0  0  0  0  0  0
   59.3725   29.1757   45.8147 C   0  0  0  0  0  0  0  0  0  0  0  0
   59.1725   27.7995   45.5455 C   0  0  0  0  0  0  0  0  0  0  0  0
   60.0851   26.9648   45.8041 O   0  0  0  0  0  0  0  0  0  0  0  0
   57.9330   27.3778   45.0121 C   0  0  0  0  0  0  0  0  0  0  0  0
   57.6308   26.1000   44.6960 C   0  0  0  0  0  0  0  0  0  0  0  0
   56.9637   28.3067   44.8205 N   0  0  0  0  0  0  0  0  0  0  0  0
   57.1475   29.6202   45.0892 C   0  0  0  0  0  0  0  0  0  0  0  0
   56.1974   30.4232   44.8795 O   0  0  0  0  0  0  0  0  0  0  0  0
   58.3464   30.0670   45.5773 N   0  0  0  0  0  0  0  0  0  0  0  0
   57.1893   25.0536   45.6426 C   0  0  0  0  0  0  0  0  0  0  0  0
   55.9515   25.1410   46.2996 C   0  0  0  0  0  0  0  0  0  0  0  0
   55.0906   26.2033   46.0506 O   0  0  0  0  0  0  0  0  0  0  0  0
   55.5899   24.1851   47.1947 N   0  0  0  0  0  0  0  0  0  0  0  0
   56.4146   23.1457   47.4786 C   0  0  0  0  0  0  0  0  0  0  0  0
   55.9529   22.0104   48.5570 S   0  0  0  0  0  0  0  0  0  0  0  0
   57.6269   23.0522   46.8753 N   0  0  0  0  0  0  0  0  0  0  0  0
   58.0346   23.9831   45.9729 C   0  0  0  0  0  0  0  0  0  0  0  0
   59.1694   23.8706   45.4364 O   0  0  0  0  0  0  0  0  0  0  0  0
   58.4928   31.4826   45.8338 C   0  0  0  0  0  0  0  0  0  0  0  0
   58.7112   31.9455   47.1523 C   0  0  0  0  0  0  0  0  0  0  0  0
   58.7910   30.9759   48.2995 C   0  0  0  0  0  0  0  0  0  0  0  0
   58.8501   33.3208   47.3888 C   0  0  0  0  0  0  0  0  0  0  0  0
   58.7749   34.2303   46.3346 C   0  0  0  0  0  0  0  0  0  0  0  0
   58.5604   33.7800   45.0314 C   0  0  0  0  0  0  0  0  0  0  0  0
   58.4173   32.4086   44.7681 C   0  0  0  0  0  0  0  0  0  0  0  0
   58.1824   31.9388   43.3581 C   0  0  0  0  0  0  0  0  0  0  0  0
  1  2  2  0
  2  3  1  0
  3  4  2  0
  3  5  1  0
  5  6  2  0
  6 11  1  0
 11 12  2  0
 12 13  1  0
 12 14  1  0
 14 15  1  0
 15 16  2  0
 15 17  1  0
 17 18  1  0
 18 19  2  0
  5  7  1  0
  7  8  1  0
  8  9  2  0
  8 10  1  0
 10 20  1  0
 20 21  2  0
 21 22  1  0
 21 23  1  0
 23 24  2  0
 24 25  1  0
 25 26  2  0
 26 27  1  0
 10  2  1  0
 26 20  1  0
 18 11  1  0
M  CHG 1   7  -1
M  CHG 1  13  -1
M  CHG 1  14  -1
M  CHG 1  17  -1
M  END
> <UniqueID>
43

> <SMILES>
C=c1c(=O)c(=Cc2c([O-])[n-]c(=S)[n-]c2=O)[n-]c(=O)n1-c1c(C)cccc1C

> <Energy>
71.29316655486906

> <Genealogy>
C=c1c(=O)c(=Cc2c([O-])[n-]c(=S)[n-]c2=O)[n-]c(=O)n1-c1c(C)cccc1C (protonated)
C=c1c(=O)c(=Cc2c([O-])[n-]c(=S)[n-]c2=O)[n-]c(=O)n1-c1c(C)cccc1C (3D coordinates assigned)
C=c1c(=O)c(=Cc2c([O-])[n-]c(=S)[n-]c2=O)[n-]c(=O)n1-c1c(C)cccc1C (optimized conformer: 71.29316655486906 kcal/mol)

> <smiles>
C=c1c(=O)c(=Cc2c(O)[nH]c(=S)[nH]c2=O)[nH]c(=O)n1-c1c(C)cccc1C

> <score_type>
oracle

> <origin>
adg

> <m_score__min__energy>
-17.5

> <m_primary>
energy

> <minimizedAffinity>
-8.64324

> <minimizedRMSD>
0.55756

> <CNNscore>
0.3348114789

> <CNNaffinity>
6.6169753075

> <CNN_VS>
2.2154393196

> <CNNaffinity_variance>
0.0087055741

$$$$
57:0


 33 36  0  0  0  0  0  0  0  0999 V2000
   60.2206   30.0208   47.2484 C   0  0  0  0  0  0  0  0  0  0  0  0
   59.6705   31.0655   46.6080 C   0  0  0  0  0  0  0  0  0  0  0  0
   58.9031   31.0407   45.4298 C   0  0  0  0  0  0  0  0  0  0  0  0
   58.6038   30.0346   44.5850 C   0  0  0  0  0  0  0  0  0  0  0  0
   58.4684   32.3406   45.2238 C   0  0  0  0  0  0  0  0  0  0  0  0
   59.0017   33.1076   46.2378 C   0  0  0  0  0  0  0  0  0  0  0  0
   58.8015   34.5858   46.3845 C   0  0  0  0  0  0  0  0  0  0  0  0
   59.7373   32.3410   47.0708 N   0  0  0  0  0  0  0  0  0  0  0  0
   58.1905   28.6742   44.9799 C   0  0  0  0  0  0  0  0  0  0  0  0
   56.8421   28.3634   45.2162 C   0  0  0  0  0  0  0  0  0  0  0  0
   55.8525   29.3288   45.0422 O   0  0  0  0  0  0  0  0  0  0  0  0
   56.4969   27.1121   45.6201 N   0  0  0  0  0  0  0  0  0  0  0  0
   57.4385   26.1544   45.8185 C   0  0  0  0  0  0  0  0  0  0  0  0
   57.0956   25.0019   46.1882 O   0  0  0  0  0  0  0  0  0  0  0  0
   58.7514   26.4402   45.6222 N   0  0  0  0  0  0  0  0  0  0  0  0
   59.1482   27.6754   45.2175 C   0  0  0  0  0  0  0  0  0  0  0  0
   60.3754   27.9086   45.0513 O   0  0  0  0  0  0  0  0  0  0  0  0
   56.0846   30.1929   44.7640 H   0  0  0  0  0  0  0  0  0  0  0  0
   60.3979   32.8044   48.2606 C   0  0  0  0  0  0  0  0  0  0  0  0
   61.6452   33.4362   48.1734 C   0  0  0  0  0  0  0  0  0  0  0  0
   62.2870   33.8843   49.3309 C   0  0  0  0  0  0  0  0  0  0  0  0
   61.6878   33.7035   50.5801 C   0  0  0  0  0  0  0  0  0  0  0  0
   60.4367   33.0770   50.6778 C   0  0  0  0  0  0  0  0  0  0  0  0
   59.7909   32.6380   49.5140 C   0  0  0  0  0  0  0  0  0  0  0  0
   59.6863   32.8295   52.2566 S   0  0  0  0  0  0  0  0  0  0  0  0
   60.7568   32.5372   53.2715 O   0  0  0  0  0  0  0  0  0  0  0  0
   58.9836   34.0915   52.6729 O   0  0  0  0  0  0  0  0  0  0  0  0
   58.5433   31.5094   52.2298 N   0  0  0  0  0  0  0  0  0  0  0  0
   58.8490   30.5383   53.2934 C   0  0  0  0  0  0  0  0  0  0  0  0
   57.7192   29.4968   53.4221 C   0  0  0  0  0  0  0  0  0  0  0  0
   56.8217   29.5794   52.3322 O   0  0  0  0  0  0  0  0  0  0  0  0
   56.1712   30.8393   52.3392 C   0  0  0  0  0  0  0  0  0  0  0  0
   57.1722   32.0133   52.3830 C   0  0  0  0  0  0  0  0  0  0  0  0
  1  2  2  0
  2  3  1  0
  3  4  2  0
  4  9  1  0
  9 10  2  0
 10 11  1  0
 10 12  1  0
 12 13  1  0
 13 14  2  0
 13 15  1  0
 15 16  1  0
 16 17  2  0
  3  5  1  0
  5  6  2  0
  6  7  1  0
  6  8  1  0
  8 19  1  0
 19 20  2  0
 20 21  1  0
 21 22  2  0
 22 23  1  0
 23 25  1  0
 25 26  2  0
 25 27  2  0
 25 28  1  0
 28 29  1  0
 29 30  1  0
 30 31  1  0
 31 32  1  0
 32 33  1  0
 23 24  2  0
  8  2  1  0
 24 19  1  0
 16  9  1  0
 33 28  1  0
 11 18  1  0
M  CHG 1  12  -1
M  CHG 1  15  -1
M  END
> <UniqueID>
57

> <SMILES>
C=c1c(=Cc2c(O)[n-]c(=O)[n-]c2=O)cc(C)n1-c1cccc(S(=O)(=O)N2CCOCC2)c1

> <Energy>
110.11013548513202

> <Genealogy>
C=c1c(=Cc2c(O)[n-]c(=O)[n-]c2=O)cc(C)n1-c1cccc(S(=O)(=O)N2CCOCC2)c1 (protonated)
C=c1c(=Cc2c(O)[n-]c(=O)[n-]c2=O)cc(C)n1-c1cccc(S(=O)(=O)N2CCOCC2)c1 (3D coordinates assigned)
C=c1c(=Cc2c(O)[n-]c(=O)[n-]c2=O)cc(C)n1-c1cccc(S(=O)(=O)N2CCOCC2)c1 (nonaromatic ring conformer: 110.11013548513202 kcal/mol)

> <smiles>
C=c1c(=Cc2c(O)[nH]c(=O)[nH]c2=O)cc(C)n1-c1cccc(S(=O)(=O)N2CCOCC2)c1

> <score_type>
oracle

> <origin>
adg

> <m_score__min__energy>
-14.77

> <m_primary>
energy

> <minimizedAffinity>
-8.55263

> <minimizedRMSD>
0.84510

> <CNNscore>
0.6455739737

> <CNNaffinity>
7.1801452637

> <CNN_VS>
4.6353149414

> <CNNaffinity_variance>
0.1279935241

$$$$
72:0


 38 42  0  0  0  0  0  0  0  0999 V2000
   59.3858   31.1714   46.5728 C   0  0  0  0  0  0  0  0  0  0  0  0
   60.6511   31.5831   47.0195 C   0  0  0  0  0  0  0  0  0  0  0  0
   60.9842   32.9515   47.0578 C   0  0  0  0  0  0  0  0  0  0  0  0
   60.0194   33.8999   46.6700 C   0  0  0  0  0  0  0  0  0  0  0  0
   58.7582   33.4869   46.2281 C   0  0  0  0  0  0  0  0  0  0  0  0
   58.4427   32.1281   46.1744 C   0  0  0  0  0  0  0  0  0  0  0  0
   57.2120   31.7421   45.7592 F   0  0  0  0  0  0  0  0  0  0  0  0
   57.8931   26.6803   45.1843 C   0  0  0  0  0  0  0  0  0  0  0  0
   58.3179   27.7546   45.8782 C   0  0  0  0  0  0  0  0  0  0  0  0
   58.4531   27.7411   47.2574 C   0  0  0  0  0  0  0  0  0  0  0  0
   58.9347   28.9815   47.6232 C   0  0  0  0  0  0  0  0  0  0  0  0
   59.1958   29.4153   49.0319 C   0  0  0  0  0  0  0  0  0  0  0  0
   59.0584   29.7738   46.5393 N   0  0  0  0  0  0  0  0  0  0  0  0
   58.6726   29.0488   45.4591 C   0  0  0  0  0  0  0  0  0  0  0  0
   58.5628   29.5738   44.2295 C   0  0  0  0  0  0  0  0  0  0  0  0
   54.9855   26.2303   46.0114 O   0  0  0  0  0  0  0  0  0  0  0  0
   56.0027   25.2844   46.1413 C   0  0  0  0  0  0  0  0  0  0  0  0
   55.8353   24.0474   46.6487 N   0  0  0  0  0  0  0  0  0  0  0  0
   57.0787   23.5196   46.5590 C   0  0  0  0  0  0  0  0  0  0  0  0
   57.3495   22.3507   46.9403 O   0  0  0  0  0  0  0  0  0  0  0  0
   58.0084   24.3430   46.0290 N   0  0  0  0  0  0  0  0  0  0  0  0
   57.3154   25.4691   45.7832 C   0  0  0  0  0  0  0  0  0  0  0  0
   54.1133   26.0205   46.2820 H   0  0  0  0  0  0  0  0  0  0  0  0
   62.3307   33.3946   47.5001 C   0  0  0  0  0  0  0  0  0  0  0  0
   63.0823   34.0233   46.7094 O   0  0  0  0  0  0  0  0  0  0  0  0
   62.8322   33.0240   48.7937 N   0  0  0  0  0  0  0  0  0  0  0  0
   63.2261   34.0779   49.7309 C   0  0  0  0  0  0  0  0  0  0  0  0
   63.9443   33.4910   50.9512 C   0  0  0  0  0  0  0  0  0  0  0  0
   63.1849   32.3363   51.4674 N   0  0  0  0  0  0  0  0  0  0  0  0
   63.0522   31.2251   50.4786 C   0  0  0  0  0  0  0  0  0  0  0  0
   63.2665   31.6462   49.0189 C   0  0  0  0  0  0  0  0  0  0  0  0
   63.7690   31.8621   52.7430 C   0  0  0  0  0  0  0  0  0  0  0  0
   64.7119   30.7101   52.4937 C   0  0  0  0  0  0  0  0  0  0  0  0
   64.2648   29.3819   52.6267 C   0  0  0  0  0  0  0  0  0  0  0  0
   65.1265   28.3086   52.3660 C   0  0  0  0  0  0  0  0  0  0  0  0
   66.4406   28.5515   51.9567 C   0  0  0  0  0  0  0  0  0  0  0  0
   66.8894   29.8702   51.8075 C   0  0  0  0  0  0  0  0  0  0  0  0
   66.0329   30.9498   52.0724 C   0  0  0  0  0  0  0  0  0  0  0  0
 16 17  1  0
 17 18  1  0
 18 19  1  0
 19 20  2  0
 19 21  1  0
 21 22  1  0
 22  8  1  0
  8  9  2  0
  9 10  1  0
 10 11  2  0
 11 12  1  0
 11 13  1  0
 13  1  1  0
  1  2  2  0
  2  3  1  0
  3 24  1  0
 24 25  2  0
 24 26  1  0
 26 27  1  0
 27 28  1  0
 28 29  1  0
 29 32  1  0
 32 33  1  0
 33 34  2  0
 34 35  1  0
 35 36  2  0
 36 37  1  0
 37 38  2  0
 29 30  1  0
 30 31  1  0
  3  4  2  0
  4  5  1  0
  5  6  2  0
  6  7  1  0
 13 14  1  0
 14 15  2  0
 22 17  2  0
 14  9  1  0
  6  1  1  0
 31 26  1  0
 38 33  1  0
 16 23  1  0
M  CHG 1  18  -1
M  CHG 1  21  -1
M  END
> <UniqueID>
71

> <SMILES>
C=c1/c(=C\c2[n-]c(=O)[n-]c2O)cc(C)n1-c1cc(C(=O)N2CCN(Cc3ccccc3)CC2)ccc1F

> <Energy>
154.90965082275014

> <Genealogy>
C=c1c(=Cc2[n-]c(=O)[n-]c2O)cc(C)n1-c1cc(C(=O)N2CCN(Cc3ccccc3)CC2)ccc1F (protonated)
C=c1/c(=C\c2[n-]c(=O)[n-]c2O)cc(C)n1-c1cc(C(=O)N2CCN(Cc3ccccc3)CC2)ccc1F (cis-trans isomerization)
C=c1/c(=C\c2[n-]c(=O)[n-]c2O)cc(C)n1-c1cc(C(=O)N2CCN(Cc3ccccc3)CC2)ccc1F (3D coordinates assigned)
C=c1/c(=C\c2[n-]c(=O)[n-]c2O)cc(C)n1-c1cc(C(=O)N2CCN(Cc3ccccc3)CC2)ccc1F (nonaromatic ring conformer: 154.90965082275014 kcal/mol)

> <smiles>
C=c1c(=Cc2[nH]c(=O)[nH]c2O)cc(C)n1-c1cc(C(=O)N2CCN(Cc3ccccc3)CC2)ccc1F

> <score_type>
oracle

> <origin>
adg

> <m_score__min__energy>
-14.800000000000001

> <m_primary>
energy

> <minimizedAffinity>
-9.94555

> <minimizedRMSD>
0.54384

> <CNNscore>
0.2587145269

> <CNNaffinity>
7.2128748894

> <CNN_VS>
1.8660755157

> <CNNaffinity_variance>
0.0056994539

$$$$
77:0


 26 28  0  0  0  0  0  0  0  0999 V2000
   59.7934   29.5266   47.6273 C   0  0  0  0  0  0  0  0  0  0  0  0
   60.8782   29.9181   46.8566 C   0  0  0  0  0  0  0  0  0  0  0  0
   61.3569   31.0734   47.4418 C   0  0  0  0  0  0  0  0  0  0  0  0
   62.4681   31.7834   47.0022 O   0  0  0  0  0  0  0  0  0  0  0  0
   60.6124   31.4216   48.5119 N   0  0  0  0  0  0  0  0  0  0  0  0
   59.6572   30.4776   48.6221 C   0  0  0  0  0  0  0  0  0  0  0  0
   58.6798   30.4741   49.6117 O   0  0  0  0  0  0  0  0  0  0  0  0
   58.9163   28.3303   47.3972 C   0  0  0  0  0  0  0  0  0  0  0  0
   57.9563   28.5653   46.2589 C   0  0  0  0  0  0  0  0  0  0  0  0
   57.7107   29.7526   45.9196 O   0  0  0  0  0  0  0  0  0  0  0  0
   58.7977   24.2372   45.7463 C   0  0  0  0  0  0  0  0  0  0  0  0
   58.6713   25.5767   45.5564 N   0  0  0  0  0  0  0  0  0  0  0  0
   57.4713   26.2152   45.6619 C   0  0  0  0  0  0  0  0  0  0  0  0
   57.3672   27.5013   45.4869 N   0  0  0  0  0  0  0  0  0  0  0  0
   56.3272   25.4717   45.9950 C   0  0  0  0  0  0  0  0  0  0  0  0
   55.0901   26.0922   46.1232 O   0  0  0  0  0  0  0  0  0  0  0  0
   56.4371   24.0933   46.1940 C   0  0  0  0  0  0  0  0  0  0  0  0
   57.6794   23.4688   46.0673 C   0  0  0  0  0  0  0  0  0  0  0  0
   60.8584   32.5324   49.4336 C   0  0  0  0  0  0  0  0  0  0  0  0
   59.7864   33.6183   49.2847 C   0  0  0  0  0  0  0  0  0  0  0  0
   59.3595   33.7843   47.8499 C   0  0  0  0  0  0  0  0  0  0  0  0
   58.1539   33.2221   47.3987 C   0  0  0  0  0  0  0  0  0  0  0  0
   57.7801   33.3430   46.0558 C   0  0  0  0  0  0  0  0  0  0  0  0
   58.6102   34.0173   45.1555 C   0  0  0  0  0  0  0  0  0  0  0  0
   59.8165   34.5712   45.5953 C   0  0  0  0  0  0  0  0  0  0  0  0
   60.1916   34.4526   46.9367 C   0  0  0  0  0  0  0  0  0  0  0  0
 11 12  1  0
 12 13  1  0
 13 14  2  0
 14  9  1  0
  9 10  2  0
  9  8  1  0
  8  1  1  0
  1  2  1  0
  2  3  2  0
  3  4  1  0
  3  5  1  0
  5 19  1  0
 19 20  1  0
 20 21  1  0
 21 22  2  0
 22 23  1  0
 23 24  2  0
 24 25  1  0
 25 26  2  0
  5  6  1  0
  6  7  1  0
 13 15  1  0
 15 16  1  0
 15 17  2  0
 17 18  1  0
 18 11  2  0
  6  1  2  0
 26 21  1  0
M  CHG 1   4  -1
M  CHG 1   7  -1
M  CHG 1  12  -1
M  CHG 1  16  -1
M  END
> <UniqueID>
76

> <SMILES>
O=C(Cc1cc([O-])n(CCc2ccccc2)c1[O-])/N=c1\[n-]cccc1[O-]

> <Energy>
68.9133555192792

> <Genealogy>
O=C(Cc1cc([O-])n(CCc2ccccc2)c1[O-])N=c1[n-]cccc1[O-] (protonated)
O=C(Cc1cc([O-])n(CCc2ccccc2)c1[O-])/N=c1\[n-]cccc1[O-] (cis-trans isomerization)
O=C(Cc1cc([O-])n(CCc2ccccc2)c1[O-])/N=c1\[n-]cccc1[O-] (3D coordinates assigned)
O=C(Cc1cc([O-])n(CCc2ccccc2)c1[O-])/N=c1\[n-]cccc1[O-] (optimized conformer: 68.9133555192792 kcal/mol)

> <smiles>
O=C(Cc1cc(O)n(CCc2ccccc2)c1O)N=c1[nH]cccc1O

> <score_type>
oracle

> <origin>
adg

> <m_score__min__energy>
-17

> <m_primary>
energy

> <minimizedAffinity>
-7.22921

> <minimizedRMSD>
0.70025

> <CNNscore>
0.6212063432

> <CNNaffinity>
6.7447142601

> <CNN_VS>
4.1898593903

> <CNNaffinity_variance>
0.2116505951

$$$$
7:0


 25 27  0  0  0  0  0  0  0  0999 V2000
   59.6840   29.0701   44.5217 C   0  0  0  0  0  0  0  0  0  0  0  0
   59.2789   28.6868   45.7438 C   0  0  0  0  0  0  0  0  0  0  0  0
   58.7256   27.4475   46.1117 C   0  0  0  0  0  0  0  0  0  0  0  0
   58.3153   26.4027   45.3653 C   0  0  0  0  0  0  0  0  0  0  0  0
   58.6429   27.4566   47.4951 C   0  0  0  0  0  0  0  0  0  0  0  0
   59.0858   28.6928   47.9159 C   0  0  0  0  0  0  0  0  0  0  0  0
   59.1658   29.1275   49.3470 C   0  0  0  0  0  0  0  0  0  0  0  0
   59.4706   29.4399   46.8576 N   0  0  0  0  0  0  0  0  0  0  0  0
   57.5335   25.2510   45.8576 C   0  0  0  0  0  0  0  0  0  0  0  0
   56.1561   25.3689   46.1206 C   0  0  0  0  0  0  0  0  0  0  0  0
   55.4835   26.5847   45.9863 O   0  0  0  0  0  0  0  0  0  0  0  0
   55.4555   24.2786   46.5269 N   0  0  0  0  0  0  0  0  0  0  0  0
   56.0538   23.0698   46.6758 C   0  0  0  0  0  0  0  0  0  0  0  0
   55.3795   22.0788   47.0588 O   0  0  0  0  0  0  0  0  0  0  0  0
   57.3761   22.9274   46.4079 N   0  0  0  0  0  0  0  0  0  0  0  0
   58.1252   23.9815   45.9956 C   0  0  0  0  0  0  0  0  0  0  0  0
   59.3465   23.8088   45.7373 O   0  0  0  0  0  0  0  0  0  0  0  0
   55.9483   27.3489   45.7073 H   0  0  0  0  0  0  0  0  0  0  0  0
   60.0165   30.7685   46.9276 C   0  0  0  0  0  0  0  0  0  0  0  0
   61.3382   30.9694   47.3449 C   0  0  0  0  0  0  0  0  0  0  0  0
   61.8591   32.2622   47.4117 C   0  0  0  0  0  0  0  0  0  0  0  0
   61.0506   33.3448   47.0616 C   0  0  0  0  0  0  0  0  0  0  0  0
   59.7688   33.1346   46.6628 N   0  0  0  0  0  0  0  0  0  0  0  0
   59.2359   31.8858   46.5888 C   0  0  0  0  0  0  0  0  0  0  0  0
   57.9149   31.7262   46.1877 O   0  0  0  0  0  0  0  0  0  0  0  0
  1  2  2  0
  2  3  1  0
  3  4  2  0
  4  9  1  0
  9 10  2  0
 10 11  1  0
 10 12  1  0
 12 13  1  0
 13 14  2  0
 13 15  1  0
 15 16  1  0
 16 17  2  0
  3  5  1  0
  5  6  2  0
  6  7  1  0
  6  8  1  0
  8 19  1  0
 19 20  2  0
 20 21  1  0
 21 22  2  0
 22 23  1  0
 23 24  2  0
 24 25  1  0
  8  2  1  0
 24 19  1  0
 16  9  1  0
 11 18  1  0
M  CHG 1  12  -1
M  CHG 1  15  -1
M  CHG 1  25  -1
M  END
> <UniqueID>
8

> <SMILES>
C=c1c(=Cc2c(O)[n-]c(=O)[n-]c2=O)cc(C)n1-c1cccnc1[O-]

> <Energy>
88.31375197443516

> <Genealogy>
C=c1c(=Cc2c(O)[n-]c(=O)[n-]c2=O)cc(C)n1-c1cccnc1[O-] (protonated)
C=c1c(=Cc2c(O)[n-]c(=O)[n-]c2=O)cc(C)n1-c1cccnc1[O-] (3D coordinates assigned)
C=c1c(=Cc2c(O)[n-]c(=O)[n-]c2=O)cc(C)n1-c1cccnc1[O-] (optimized conformer: 88.31375197443516 kcal/mol)

> <smiles>
C=c1c(=Cc2c(O)[nH]c(=O)[nH]c2=O)cc(C)n1-c1cccnc1O

> <score_type>
oracle

> <origin>
adg

> <m_score__min__energy>
-14.16

> <m_primary>
energy

> <minimizedAffinity>
-8.60515

> <minimizedRMSD>
1.76536

> <CNNscore>
0.3651753068

> <CNNaffinity>
6.3381786346

> <CNN_VS>
2.3145463467

> <CNNaffinity_variance>
0.2986132801

$$$$
9:0


 23 24  0  0  0  0  0  0  0  0999 V2000
   56.4742   24.3753   45.8481 C   0  0  0  0  0  0  0  0  0  0  0  0
   55.1174   24.6158   45.8215 C   0  0  0  0  0  0  0  0  0  0  0  0
   54.5138   25.8672   45.8662 O   0  0  0  0  0  0  0  0  0  0  0  0
   54.4290   23.4600   45.7448 N   0  0  0  0  0  0  0  0  0  0  0  0
   55.4052   22.5255   45.7368 C   0  0  0  0  0  0  0  0  0  0  0  0
   55.1606   21.2911   45.7065 O   0  0  0  0  0  0  0  0  0  0  0  0
   56.6560   23.0382   45.7878 N   0  0  0  0  0  0  0  0  0  0  0  0
   58.2401   27.7231   46.0325 C   0  0  0  0  0  0  0  0  0  0  0  0
   59.5608   27.3101   46.2835 C   0  0  0  0  0  0  0  0  0  0  0  0
   59.8615   25.9508   46.4029 C   0  0  0  0  0  0  0  0  0  0  0  0
   58.8532   24.9935   46.2653 C   0  0  0  0  0  0  0  0  0  0  0  0
   57.5346   25.3909   45.9980 C   0  0  0  0  0  0  0  0  0  0  0  0
   57.2338   26.7568   45.8974 C   0  0  0  0  0  0  0  0  0  0  0  0
   57.8825   29.1059   45.9162 N   0  0  0  0  0  0  0  0  0  0  0  0
   57.7603   31.4874   44.3405 C   0  0  0  0  0  0  0  0  0  0  0  0
   57.1386   29.8317   44.5282 S   0  0  0  0  0  0  0  0  0  0  0  0
   57.4725   29.0388   43.2968 O   0  0  0  0  0  0  0  0  0  0  0  0
   55.6490   29.8864   44.7168 O   0  0  0  0  0  0  0  0  0  0  0  0
   57.9001   22.2839   45.9621 C   0  0  0  0  0  0  0  0  0  0  0  0
   58.5092   21.9794   44.6311 C   0  0  0  0  0  0  0  0  0  0  0  0
   59.9270   21.9788   44.4777 N   0  0  0  0  0  0  0  0  0  0  0  0
   57.7708   21.6843   43.6533 O   0  0  0  0  0  0  0  0  0  0  0  0
   60.5047   22.2092   45.2408 H   0  0  0  0  0  0  0  0  0  0  0  0
 15 16  1  0
 16 17  2  0
 16 18  2  0
 16 14  1  0
 14  8  1  0
  8  9  2  0
  9 10  1  0
 10 11  2  0
 11 12  1  0
 12  1  1  0
  1  2  2  0
  2  3  1  0
  2  4  1  0
  4  5  1  0
  5  6  2  0
  5  7  1  0
  7 19  1  0
 19 20  1  0
 20 21  1  0
 20 22  2  0
 12 13  2  0
 13  8  1  0
  7  1  1  0
 21 23  1  0
M  CHG 1   3  -1
M  CHG 1   4  -1
M  CHG 1  14  -1
M  CHG 1  21  -1
M  END
> <UniqueID>
10

> <SMILES>
CS(=O)(=O)[N-]c1cccc(-c2c([O-])[n-]c(=O)n2CC([NH-])=O)c1

> <Energy>
66.56500491023611

> <Genealogy>
CS(=O)(=O)[N-]c1cccc(-c2c([O-])[n-]c(=O)n2CC([NH-])=O)c1 (protonated)
CS(=O)(=O)[N-]c1cccc(-c2c([O-])[n-]c(=O)n2CC([NH-])=O)c1 (3D coordinates assigned)
CS(=O)(=O)[N-]c1cccc(-c2c([O-])[n-]c(=O)n2CC([NH-])=O)c1 (optimized conformer: 66.56500491023611 kcal/mol)

> <smiles>
CS(=O)(=O)Nc1cccc(-c2c(O)[nH]c(=O)n2CC(N)=O)c1

> <score_type>
oracle

> <origin>
adg

> <m_score__min__energy>
-15.359999999999999

> <m_primary>
energy

> <minimizedAffinity>
-5.99562

> <minimizedRMSD>
0.84956

> <CNNscore>
0.1499356627

> <CNNaffinity>
4.7373452187

> <CNN_VS>
0.7102969885

> <CNNaffinity_variance>
0.2190399915

$$$$
26:0


 30 32  0  0  0  0  0  0  0  0999 V2000
   60.1634   28.6234   49.9656 N   0  0  0  0  0  0  0  0  0  0  0  0
   60.9742   29.7985   50.1054 C   0  0  0  0  0  0  0  0  0  0  0  0
   62.1719   29.7034   50.8257 C   0  0  0  0  0  0  0  0  0  0  0  0
   62.9853   30.8272   50.9965 C   0  0  0  0  0  0  0  0  0  0  0  0
   62.5989   32.0596   50.4644 C   0  0  0  0  0  0  0  0  0  0  0  0
   61.3887   32.1760   49.7683 C   0  0  0  0  0  0  0  0  0  0  0  0
   60.5765   31.0471   49.5928 C   0  0  0  0  0  0  0  0  0  0  0  0
   60.8896   33.7235   49.0886 S   0  0  0  0  0  0  0  0  0  0  0  0
   62.0919   34.5995   48.8667 O   0  0  0  0  0  0  0  0  0  0  0  0
   59.9733   34.4056   50.0664 O   0  0  0  0  0  0  0  0  0  0  0  0
   60.0520   33.4609   47.5815 N   0  0  0  0  0  0  0  0  0  0  0  0
   60.3735   34.5491   46.6335 C   0  0  0  0  0  0  0  0  0  0  0  0
   59.4156   34.5851   45.4216 C   0  0  0  0  0  0  0  0  0  0  0  0
   58.6538   33.2670   45.2673 C   0  0  0  0  0  0  0  0  0  0  0  0
   57.8670   32.9326   46.5451 C   0  0  0  0  0  0  0  0  0  0  0  0
   58.6018   33.3818   47.8229 C   0  0  0  0  0  0  0  0  0  0  0  0
   60.5970   27.3247   49.5382 C   0  0  0  0  0  0  0  0  0  0  0  0
   61.0133   26.4810   50.3751 O   0  0  0  0  0  0  0  0  0  0  0  0
   60.5621   26.9675   48.1526 N   0  0  0  0  0  0  0  0  0  0  0  0
   57.8555   27.7099   45.6485 C   0  0  0  0  0  0  0  0  0  0  0  0
   57.0392   26.5845   45.8219 C   0  0  0  0  0  0  0  0  0  0  0  0
   57.3853   25.6060   46.7581 C   0  0  0  0  0  0  0  0  0  0  0  0
   58.5499   25.7424   47.5184 C   0  0  0  0  0  0  0  0  0  0  0  0
   59.3866   26.8510   47.3398 C   0  0  0  0  0  0  0  0  0  0  0  0
   59.0189   27.8502   46.4186 C   0  0  0  0  0  0  0  0  0  0  0  0
   55.8119   29.5328   44.8611 N   0  0  0  0  0  0  0  0  0  0  0  0
   57.4028   28.9656   44.4991 S   0  0  0  0  0  0  0  0  0  0  0  0
   57.4307   28.4113   43.1025 O   0  0  0  0  0  0  0  0  0  0  0  0
   58.3760   30.1080   44.5839 O   0  0  0  0  0  0  0  0  0  0  0  0
   55.5504   30.2599   44.1951 H   0  0  0  0  0  0  0  0  0  0  0  0
 26 27  1  0
 27 28  2  0
 27 29  2  0
 27 20  1  0
 20 21  2  0
 21 22  1  0
 22 23  2  0
 23 24  1  0
 24 19  1  0
 19 17  1  0
 17 18  2  0
 17  1  1  0
  1  2  1  0
  2  3  2  0
  3  4  1  0
  4  5  2  0
  5  6  1  0
  6  8  1  0
  8  9  2  0
  8 10  2  0
  8 11  1  0
 11 12  1  0
 12 13  1  0
 13 14  1  0
 14 15  1  0
 15 16  1  0
  6  7  2  0
 24 25  2  0
 25 20  1  0
  7  2  1  0
 16 11  1  0
 26 30  1  0
M  CHG 1   1  -1
M  CHG 1  19  -1
M  CHG 1  26  -1
M  END
> <UniqueID>
24

> <SMILES>
[NH-]S(=O)(=O)c1cccc([N-]C(=O)[N-]c2cccc(S(=O)(=O)N3CCCCC3)c2)c1

> <Energy>
58.002721262760154

> <Genealogy>
[NH-]S(=O)(=O)c1cccc([N-]C(=O)[N-]c2cccc(S(=O)(=O)N3CCCCC3)c2)c1 (protonated)
[NH-]S(=O)(=O)c1cccc([N-]C(=O)[N-]c2cccc(S(=O)(=O)N3CCCCC3)c2)c1 (3D coordinates assigned)
[NH-]S(=O)(=O)c1cccc([N-]C(=O)[N-]c2cccc(S(=O)(=O)N3CCCCC3)c2)c1 (nonaromatic ring conformer: 58.002721262760154 kcal/mol)

> <smiles>
NS(=O)(=O)c1cccc(NC(=O)Nc2cccc(S(=O)(=O)N3CCCCC3)c2)c1

> <score_type>
oracle

> <origin>
adg

> <m_score__min__energy>
-15.300000000000001

> <m_primary>
energy

> <minimizedAffinity>
-6.55594

> <minimizedRMSD>
0.91277

> <CNNscore>
0.8417156339

> <CNNaffinity>
7.3244557381

> <CNN_VS>
6.1651086807

> <CNNaffinity_variance>
0.1354704201

$$$$
36:0


 36 39  0  0  0  0  0  0  0  0999 V2000
   61.3314   31.2272   48.2975 C   0  0  0  0  0  0  0  0  0  0  0  0
   60.8894   29.9335   47.9802 C   0  0  0  0  0  0  0  0  0  0  0  0
   59.8423   29.7583   47.0592 C   0  0  0  0  0  0  0  0  0  0  0  0
   59.2904   30.8534   46.4700 N   0  0  0  0  0  0  0  0  0  0  0  0
   59.7073   32.1222   46.7383 C   0  0  0  0  0  0  0  0  0  0  0  0
   59.1499   33.1467   46.1618 N   0  0  0  0  0  0  0  0  0  0  0  0
   60.7304   32.3281   47.6666 C   0  0  0  0  0  0  0  0  0  0  0  0
   63.6753   32.7842   47.6642 O   0  0  0  0  0  0  0  0  0  0  0  0
   63.5823   32.1780   48.9160 C   0  0  0  0  0  0  0  0  0  0  0  0
   64.6200   32.3330   49.8441 C   0  0  0  0  0  0  0  0  0  0  0  0
   64.5283   31.7584   51.1131 C   0  0  0  0  0  0  0  0  0  0  0  0
   63.3892   31.0151   51.4729 C   0  0  0  0  0  0  0  0  0  0  0  0
   62.3548   30.8563   50.5442 C   0  0  0  0  0  0  0  0  0  0  0  0
   62.4409   31.4247   49.2618 C   0  0  0  0  0  0  0  0  0  0  0  0
   64.4362   33.2833   47.4407 H   0  0  0  0  0  0  0  0  0  0  0  0
   63.2491   30.4202   52.7362 O   0  0  0  0  0  0  0  0  0  0  0  0
   62.6407   29.1542   52.9654 C   0  0  0  0  0  0  0  0  0  0  0  0
   59.3428   28.4091   46.6897 C   0  0  0  0  0  0  0  0  0  0  0  0
   60.2130   27.3103   46.5723 C   0  0  0  0  0  0  0  0  0  0  0  0
   59.7197   26.0478   46.2309 C   0  0  0  0  0  0  0  0  0  0  0  0
   58.3502   25.8611   45.9942 C   0  0  0  0  0  0  0  0  0  0  0  0
   57.4695   26.9453   46.1455 C   0  0  0  0  0  0  0  0  0  0  0  0
   56.1003   26.7738   45.9815 O   0  0  0  0  0  0  0  0  0  0  0  0
   57.9659   28.2089   46.4837 C   0  0  0  0  0  0  0  0  0  0  0  0
   57.8524   24.5226   45.6309 C   0  0  0  0  0  0  0  0  0  0  0  0
   57.8011   23.6260   46.5133 O   0  0  0  0  0  0  0  0  0  0  0  0
   57.4579   24.2024   44.2913 N   0  0  0  0  0  0  0  0  0  0  0  0
   56.1689   23.6242   43.9349 C   0  0  0  0  0  0  0  0  0  0  0  0
   57.8867   33.1412   45.4760 C   0  0  0  0  0  0  0  0  0  0  0  0
   57.1648   34.1707   45.5341 O   0  0  0  0  0  0  0  0  0  0  0  0
   57.4187   31.9915   44.6752 C   0  0  0  0  0  0  0  0  0  0  0  0
   56.5538   31.0896   45.1638 C   0  0  0  0  0  0  0  0  0  0  0  0
   56.1780   29.9899   44.3823 O   0  0  0  0  0  0  0  0  0  0  0  0
   56.8817   29.6410   43.1897 C   0  0  0  0  0  0  0  0  0  0  0  0
   57.3173   30.9097   42.4552 C   0  0  0  0  0  0  0  0  0  0  0  0
   57.9208   31.8175   43.3773 O   0  0  0  0  0  0  0  0  0  0  0  0
  8  9  1  0
  9 10  2  0
 10 11  1  0
 11 12  2  0
 12 16  1  0
 16 17  1  0
 12 13  1  0
 13 14  2  0
 14  1  1  0
  1  2  1  0
  2  3  2  0
  3 18  1  0
 18 19  2  0
 19 20  1  0
 20 21  2  0
 21 25  1  0
 25 26  2  0
 25 27  1  0
 27 28  1  0
 21 22  1  0
 22 23  1  0
 22 24  2  0
  3  4  1  0
  4  5  1  0
  5  6  2  0
  6 29  1  0
 29 30  2  0
 29 31  1  0
 31 32  2  0
 32 33  1  0
 33 34  1  0
 34 35  1  0
 35 36  1  0
  5  7  1  0
 14  9  1  0
  7  1  2  0
 24 18  1  0
 36 31  1  0
  8 15  1  0
M  CHG 1   4  -1
M  CHG 1  23  -1
M  CHG 1  27  -1
M  END
> <UniqueID>
34

> <SMILES>
C[N-]C(=O)c1ccc(-c2cc(-c3cc(OC)ccc3O)c/c(=N/C(=O)C3=COCCO3)[n-]2)cc1[O-]

> <Energy>
79.13549905016572

> <Genealogy>
C[N-]C(=O)c1ccc(-c2cc(-c3cc(OC)ccc3O)cc(=NC(=O)C3=COCCO3)[n-]2)cc1[O-] (protonated)
C[N-]C(=O)c1ccc(-c2cc(-c3cc(OC)ccc3O)c/c(=N/C(=O)C3=COCCO3)[n-]2)cc1[O-] (cis-trans isomerization)
C[N-]C(=O)c1ccc(-c2cc(-c3cc(OC)ccc3O)c/c(=N/C(=O)C3=COCCO3)[n-]2)cc1[O-] (3D coordinates assigned)
C[N-]C(=O)c1ccc(-c2cc(-c3cc(OC)ccc3O)c/c(=N/C(=O)C3=COCCO3)[n-]2)cc1[O-] (nonaromatic ring conformer: 79.13549905016572 kcal/mol)

> <smiles>
CNC(=O)c1ccc(-c2cc(-c3cc(OC)ccc3O)cc(=NC(=O)C3=COCCO3)[nH]2)cc1O

> <score_type>
oracle

> <origin>
adg

> <m_score__min__energy>
-14.93

> <m_primary>
energy

> <minimizedAffinity>
-7.71252

> <minimizedRMSD>
1.38904

> <CNNscore>
0.1275810003

> <CNNaffinity>
6.0356354713

> <CNN_VS>
0.7700324059

> <CNNaffinity_variance>
0.1004322395

$$$$
65:0


 27 29  0  0  0  0  0  0  0  0999 V2000
   58.7493   28.8127   47.2713 C   0  0  0  0  0  0  0  0  0  0  0  0
   58.4741   27.4933   47.1080 N   0  0  0  0  0  0  0  0  0  0  0  0
   57.8523   27.0327   45.9872 C   0  0  0  0  0  0  0  0  0  0  0  0
   57.4962   27.9463   44.9817 C   0  0  0  0  0  0  0  0  0  0  0  0
   57.7916   29.2978   45.1682 C   0  0  0  0  0  0  0  0  0  0  0  0
   57.4865   30.1410   44.2855 O   0  0  0  0  0  0  0  0  0  0  0  0
   58.4096   29.7052   46.3056 N   0  0  0  0  0  0  0  0  0  0  0  0
   57.5514   25.5851   45.8574 C   0  0  0  0  0  0  0  0  0  0  0  0
   58.5909   24.6613   45.6346 C   0  0  0  0  0  0  0  0  0  0  0  0
   58.3132   23.2988   45.4934 C   0  0  0  0  0  0  0  0  0  0  0  0
   56.9974   22.8419   45.5663 C   0  0  0  0  0  0  0  0  0  0  0  0
   55.9553   23.7455   45.7806 C   0  0  0  0  0  0  0  0  0  0  0  0
   56.2234   25.1109   45.9265 C   0  0  0  0  0  0  0  0  0  0  0  0
   55.1641   25.9835   46.1578 O   0  0  0  0  0  0  0  0  0  0  0  0
   59.5071   29.3893   48.7892 S   0  0  0  0  0  0  0  0  0  0  0  0
   58.5240   30.9302   48.8829 C   0  0  0  0  0  0  0  0  0  0  0  0
   61.2181   33.2215   47.4590 C   0  0  0  0  0  0  0  0  0  0  0  0
   60.4377   34.2104   46.8457 C   0  0  0  0  0  0  0  0  0  0  0  0
   59.0428   34.1265   46.8814 C   0  0  0  0  0  0  0  0  0  0  0  0
   58.4203   33.0553   47.5291 C   0  0  0  0  0  0  0  0  0  0  0  0
   59.1921   32.0518   48.1332 C   0  0  0  0  0  0  0  0  0  0  0  0
   60.5934   32.1372   48.0879 C   0  0  0  0  0  0  0  0  0  0  0  0
   63.6527   31.7453   47.3693 N   0  0  0  0  0  0  0  0  0  0  0  0
   62.9755   33.3319   47.4431 S   0  0  0  0  0  0  0  0  0  0  0  0
   63.4492   34.0254   48.6897 O   0  0  0  0  0  0  0  0  0  0  0  0
   63.4297   34.1245   46.2501 O   0  0  0  0  0  0  0  0  0  0  0  0
   64.6706   31.8101   47.3601 H   0  0  0  0  0  0  0  0  0  0  0  0
 23 24  1  0
 24 25  2  0
 24 26  2  0
 24 17  1  0
 17 18  2  0
 18 19  1  0
 19 20  2  0
 20 21  1  0
 21 16  1  0
 16 15  1  0
 15  1  1  0
  1  2  2  0
  2  3  1  0
  3  8  1  0
  8  9  2  0
  9 10  1  0
 10 11  2  0
 11 12  1  0
 12 13  2  0
 13 14  1  0
  3  4  2  0
  4  5  1  0
  5  6  2  0
  5  7  1  0
 21 22  2  0
 22 17  1  0
  7  1  1  0
 13  8  1  0
 23 27  1  0
M  CHG 1   7  -1
M  CHG 1  14  -1
M  CHG 1  23  -1
M  END
> <UniqueID>
61

> <SMILES>
[NH-]S(=O)(=O)c1cccc(CSc2nc(-c3ccccc3[O-])cc(=O)[n-]2)c1

> <Energy>
40.94562513030107

> <Genealogy>
[NH-]S(=O)(=O)c1cccc(CSc2nc(-c3ccccc3[O-])cc(=O)[n-]2)c1 (protonated)
[NH-]S(=O)(=O)c1cccc(CSc2nc(-c3ccccc3[O-])cc(=O)[n-]2)c1 (3D coordinates assigned)
[NH-]S(=O)(=O)c1cccc(CSc2nc(-c3ccccc3[O-])cc(=O)[n-]2)c1 (optimized conformer: 40.94562513030107 kcal/mol)

> <smiles>
NS(=O)(=O)c1cccc(CSc2nc(-c3ccccc3O)cc(=O)[nH]2)c1

> <score_type>
oracle

> <origin>
adg

> <m_score__min__energy>
-14.779999999999999

> <m_primary>
energy

> <minimizedAffinity>
-7.50032

> <minimizedRMSD>
0.68943

> <CNNscore>
0.3682729602

> <CNNaffinity>
6.5180974007

> <CNN_VS>
2.4004390240

> <CNNaffinity_variance>
0.7023745179

$$$$
86:0


 34 37  0  0  0  0  0  0  0  0999 V2000
   59.4911   28.9797   45.3769 C   0  0  0  0  0  0  0  0  0  0  0  0
   59.3812   30.2353   45.8540 C   0  0  0  0  0  0  0  0  0  0  0  0
   58.3924   31.1081   45.4361 C   0  0  0  0  0  0  0  0  0  0  0  0
   58.6270   32.3129   46.0600 C   0  0  0  0  0  0  0  0  0  0  0  0
   57.7807   33.5369   45.8784 C   0  0  0  0  0  0  0  0  0  0  0  0
   59.7048   32.2233   46.8734 N   0  0  0  0  0  0  0  0  0  0  0  0
   60.1681   30.9470   46.7767 C   0  0  0  0  0  0  0  0  0  0  0  0
   61.1709   30.4670   47.5312 C   0  0  0  0  0  0  0  0  0  0  0  0
   60.7832   26.9234   47.0097 O   0  0  0  0  0  0  0  0  0  0  0  0
   59.4302   26.8238   46.6836 C   0  0  0  0  0  0  0  0  0  0  0  0
   58.7306   25.7516   47.1349 N   0  0  0  0  0  0  0  0  0  0  0  0
   57.4189   25.5851   46.8304 C   0  0  0  0  0  0  0  0  0  0  0  0
   56.7955   24.5821   47.2650 O   0  0  0  0  0  0  0  0  0  0  0  0
   56.7798   26.4954   46.0535 N   0  0  0  0  0  0  0  0  0  0  0  0
   57.4278   27.5894   45.5779 C   0  0  0  0  0  0  0  0  0  0  0  0
   56.8032   28.4132   44.8582 O   0  0  0  0  0  0  0  0  0  0  0  0
   58.7783   27.7986   45.8990 C   0  0  0  0  0  0  0  0  0  0  0  0
   61.1891   26.2603   47.5327 H   0  0  0  0  0  0  0  0  0  0  0  0
   60.2603   33.3113   47.6975 C   0  0  0  0  0  0  0  0  0  0  0  0
   59.9811   33.0680   49.1580 C   0  0  0  0  0  0  0  0  0  0  0  0
   58.8044   32.4106   49.5563 C   0  0  0  0  0  0  0  0  0  0  0  0
   58.5403   32.1946   50.9104 C   0  0  0  0  0  0  0  0  0  0  0  0
   59.4342   32.6585   51.8867 C   0  0  0  0  0  0  0  0  0  0  0  0
   60.6347   33.2611   51.4907 C   0  0  0  0  0  0  0  0  0  0  0  0
   60.9030   33.4737   50.1354 C   0  0  0  0  0  0  0  0  0  0  0  0
   59.1816   32.3894   53.3093 C   0  0  0  0  0  0  0  0  0  0  0  0
   59.0235   33.3693   54.0832 O   0  0  0  0  0  0  0  0  0  0  0  0
   59.0999   31.0631   53.8560 N   0  0  0  0  0  0  0  0  0  0  0  0
   57.9336   30.1941   54.0532 C   0  0  0  0  0  0  0  0  0  0  0  0
   56.6663   30.7382   53.3480 C   0  0  0  0  0  0  0  0  0  0  0  0
   55.6844   29.6221   52.9349 C   0  0  0  0  0  0  0  0  0  0  0  0
   55.6745   28.4761   53.9570 C   0  0  0  0  0  0  0  0  0  0  0  0
   57.0637   27.8193   54.1177 C   0  0  0  0  0  0  0  0  0  0  0  0
   58.2265   28.7322   53.6839 C   0  0  0  0  0  0  0  0  0  0  0  0
  9 10  1  0
 10 11  1  0
 11 12  1  0
 12 13  2  0
 12 14  1  0
 14 15  1  0
 15 16  2  0
 15 17  1  0
 17  1  1  0
  1  2  2  0
  2  3  1  0
  3  4  2  0
  4  5  1  0
  4  6  1  0
  6 19  1  0
 19 20  1  0
 20 21  2  0
 21 22  1  0
 22 23  2  0
 23 26  1  0
 26 27  2  0
 26 28  1  0
 28 29  1  0
 29 30  1  0
 30 31  1  0
 31 32  1  0
 32 33  1  0
 33 34  1  0
 23 24  1  0
 24 25  2  0
  6  7  1  0
  7  8  2  0
 17 10  2  0
  7  2  1  0
 25 20  1  0
 34 29  1  0
  9 18  1  0
M  CHG 1  11  -1
M  CHG 1  14  -1
M  CHG 1  28  -1
M  END
> <UniqueID>
78

> <SMILES>
C=c1/c(=C\c2c(O)[n-]c(=O)[n-]c2=O)cc(C)n1Cc1ccc(C(=O)[N-]C2CCCCC2)cc1

> <Energy>
111.07641247068622

> <Genealogy>
C=c1c(=Cc2c(O)[n-]c(=O)[n-]c2=O)cc(C)n1Cc1ccc(C(=O)[N-]C2CCCCC2)cc1 (protonated)
C=c1/c(=C\c2c(O)[n-]c(=O)[n-]c2=O)cc(C)n1Cc1ccc(C(=O)[N-]C2CCCCC2)cc1 (cis-trans isomerization)
C=c1/c(=C\c2c(O)[n-]c(=O)[n-]c2=O)cc(C)n1Cc1ccc(C(=O)[N-]C2CCCCC2)cc1 (3D coordinates assigned)
C=c1/c(=C\c2c(O)[n-]c(=O)[n-]c2=O)cc(C)n1Cc1ccc(C(=O)[N-]C2CCCCC2)cc1 (nonaromatic ring conformer: 111.07641247068622 kcal/mol)

> <smiles>
C=c1c(=Cc2c(O)[nH]c(=O)[nH]c2=O)cc(C)n1Cc1ccc(C(=O)NC2CCCCC2)cc1

> <score_type>
oracle

> <origin>
adg

> <m_score__min__energy>
-14.619999999999999

> <m_primary>
energy

> <minimizedAffinity>
-7.61018

> <minimizedRMSD>
1.37470

> <CNNscore>
0.3032269776

> <CNNaffinity>
6.9239811897

> <CNN_VS>
2.0995378494

> <CNNaffinity_variance>
0.0105793215

$$$$
18:0


 37 41  0  0  0  0  0  0  0  0999 V2000
   58.0316   29.1893   53.6436 C   0  0  0  0  0  0  0  0  0  0  0  0
   58.7385   29.0030   54.8362 C   0  0  0  0  0  0  0  0  0  0  0  0
   60.1328   28.9849   54.8279 C   0  0  0  0  0  0  0  0  0  0  0  0
   60.8305   29.1653   53.6307 C   0  0  0  0  0  0  0  0  0  0  0  0
   60.1345   29.3813   52.4299 C   0  0  0  0  0  0  0  0  0  0  0  0
   58.7299   29.3726   52.4433 C   0  0  0  0  0  0  0  0  0  0  0  0
   56.2402   31.3064   52.6226 C   0  0  0  0  0  0  0  0  0  0  0  0
   55.7837   30.2033   53.2324 C   0  0  0  0  0  0  0  0  0  0  0  0
   54.4446   29.8070   53.3772 C   0  0  0  0  0  0  0  0  0  0  0  0
   53.2945   30.4759   53.1693 C   0  0  0  0  0  0  0  0  0  0  0  0
   54.4777   28.4956   53.8231 C   0  0  0  0  0  0  0  0  0  0  0  0
   55.8039   28.1669   54.0024 C   0  0  0  0  0  0  0  0  0  0  0  0
   56.2968   26.8353   54.4859 C   0  0  0  0  0  0  0  0  0  0  0  0
   56.5956   29.2004   53.6514 N   0  0  0  0  0  0  0  0  0  0  0  0
   52.5311   30.5031   51.9110 C   0  0  0  0  0  0  0  0  0  0  0  0
   52.7305   29.6724   50.8725 N   0  0  0  0  0  0  0  0  0  0  0  0
   51.9050   30.1593   49.9202 C   0  0  0  0  0  0  0  0  0  0  0  0
   51.7941   29.6314   48.7841 O   0  0  0  0  0  0  0  0  0  0  0  0
   51.2164   31.2632   50.2783 N   0  0  0  0  0  0  0  0  0  0  0  0
   51.6350   31.4767   51.5358 C   0  0  0  0  0  0  0  0  0  0  0  0
   51.2201   32.5434   52.3174 O   0  0  0  0  0  0  0  0  0  0  0  0
   60.8764   29.5968   51.1644 C   0  0  0  0  0  0  0  0  0  0  0  0
   62.1185   29.3735   51.1328 O   0  0  0  0  0  0  0  0  0  0  0  0
   60.2092   30.0533   49.9696 N   0  0  0  0  0  0  0  0  0  0  0  0
   59.1502   31.0731   50.0294 C   0  0  0  0  0  0  0  0  0  0  0  0
   59.4978   32.2427   49.1056 C   0  0  0  0  0  0  0  0  0  0  0  0
   59.9071   31.7339   47.7929 N   0  0  0  0  0  0  0  0  0  0  0  0
   60.9851   30.7363   47.7536 C   0  0  0  0  0  0  0  0  0  0  0  0
   60.6183   29.5573   48.6514 C   0  0  0  0  0  0  0  0  0  0  0  0
   59.2962   32.2188   46.5822 C   0  0  0  0  0  0  0  0  0  0  0  0
   59.4453   33.5620   46.1973 C   0  0  0  0  0  0  0  0  0  0  0  0
   58.8568   34.0311   45.0233 C   0  0  0  0  0  0  0  0  0  0  0  0
   58.1174   33.1619   44.2176 C   0  0  0  0  0  0  0  0  0  0  0  0
   57.9652   31.8177   44.5760 C   0  0  0  0  0  0  0  0  0  0  0  0
   58.5571   31.3521   45.7654 C   0  0  0  0  0  0  0  0  0  0  0  0
   57.2300   30.9845   43.7269 O   0  0  0  0  0  0  0  0  0  0  0  0
   56.2596   30.0451   44.1730 C   0  0  0  0  0  0  0  0  0  0  0  0
  7  8  2  0
  8  9  1  0
  9 10  2  0
 10 15  1  0
 15 16  1  0
 16 17  1  0
 17 18  2  0
 17 19  1  0
 19 20  1  0
 20 21  1  0
  9 11  1  0
 11 12  2  0
 12 13  1  0
 12 14  1  0
 14  1  1  0
  1  2  2  0
  2  3  1  0
  3  4  2  0
  4  5  1  0
  5 22  1  0
 22 23  2  0
 22 24  1  0
 24 25  1  0
 25 26  1  0
 26 27  1  0
 27 30  1  0
 30 31  2  0
 31 32  1  0
 32 33  2  0
 33 34  1  0
 34 36  1  0
 36 37  1  0
 34 35  2  0
 27 28  1  0
 28 29  1  0
  5  6  2  0
 14  8  1  0
  6  1  1  0
 20 15  2  0
 29 24  1  0
 35 30  1  0
M  CHG 1  16  -1
M  CHG 1  19  -1
M  CHG 1  21  -1
M  END
> <UniqueID>
17

> <SMILES>
C=c1c(=Cc2[n-]c(=O)[n-]c2[O-])cc(C)n1-c1cccc(C(=O)N2CCN(c3cccc(OC)c3)CC2)c1

> <Energy>
150.5283148708139

> <Genealogy>
C=c1c(=Cc2[n-]c(=O)[n-]c2[O-])cc(C)n1-c1cccc(C(=O)N2CCN(c3cccc(OC)c3)CC2)c1 (protonated)
C=c1c(=Cc2[n-]c(=O)[n-]c2[O-])cc(C)n1-c1cccc(C(=O)N2CCN(c3cccc(OC)c3)CC2)c1 (3D coordinates assigned)
C=c1c(=Cc2[n-]c(=O)[n-]c2[O-])cc(C)n1-c1cccc(C(=O)N2CCN(c3cccc(OC)c3)CC2)c1 (nonaromatic ring conformer: 150.5283148708139 kcal/mol)

> <smiles>
C=c1c(=Cc2[nH]c(=O)[nH]c2O)cc(C)n1-c1cccc(C(=O)N2CCN(c3cccc(OC)c3)CC2)c1

> <score_type>
oracle

> <origin>
adg

> <m_score__min__energy>
-18.670000000000002

> <m_primary>
energy

> <minimizedAffinity>
-8.41809

> <minimizedRMSD>
1.22350

> <CNNscore>
0.0482955240

> <CNNaffinity>
5.5788092613

> <CNN_VS>
0.2694315016

> <CNNaffinity_variance>
1.5498403311

$$$$
57:0


 25 27  0  0  0  0  0  0  0  0999 V2000
   59.1791   32.0708   46.2388 C   0  0  0  0  0  0  0  0  0  0  0  0
   58.8955   33.1304   45.3642 C   0  0  0  0  0  0  0  0  0  0  0  0
   59.1870   34.4459   45.7351 C   0  0  0  0  0  0  0  0  0  0  0  0
   59.7729   34.7124   46.9748 C   0  0  0  0  0  0  0  0  0  0  0  0
   60.0592   33.6630   47.8601 C   0  0  0  0  0  0  0  0  0  0  0  0
   59.7288   32.3481   47.5016 C   0  0  0  0  0  0  0  0  0  0  0  0
   60.7073   33.9254   49.1578 C   0  0  0  0  0  0  0  0  0  0  0  0
   60.0109   34.3804   50.1059 O   0  0  0  0  0  0  0  0  0  0  0  0
   62.1002   33.6319   49.3741 N   0  0  0  0  0  0  0  0  0  0  0  0
   62.8927   32.7736   48.5079 C   0  0  0  0  0  0  0  0  0  0  0  0
   64.1137   32.3800   49.3290 C   0  0  0  0  0  0  0  0  0  0  0  0
   64.1940   33.4016   50.4605 C   0  0  0  0  0  0  0  0  0  0  0  0
   62.7845   33.9575   50.6130 C   0  0  0  0  0  0  0  0  0  0  0  0
   58.9269   30.6479   45.8117 C   0  0  0  0  0  0  0  0  0  0  0  0
   57.5811   30.5014   45.2622 N   0  0  0  0  0  0  0  0  0  0  0  0
   55.8505   29.2919   44.3067 O   0  0  0  0  0  0  0  0  0  0  0  0
   56.8901   29.2669   45.0164 C   0  0  0  0  0  0  0  0  0  0  0  0
   57.3645   27.9709   45.5494 C   0  0  0  0  0  0  0  0  0  0  0  0
   58.7355   27.7253   45.7048 C   0  0  0  0  0  0  0  0  0  0  0  0
   59.1393   26.4886   46.2139 C   0  0  0  0  0  0  0  0  0  0  0  0
   60.3625   26.2416   46.3783 O   0  0  0  0  0  0  0  0  0  0  0  0
   58.2110   25.5512   46.5323 N   0  0  0  0  0  0  0  0  0  0  0  0
   56.8855   25.7976   46.3621 C   0  0  0  0  0  0  0  0  0  0  0  0
   56.0398   24.9160   46.6614 O   0  0  0  0  0  0  0  0  0  0  0  0
   56.4735   26.9957   45.8708 N   0  0  0  0  0  0  0  0  0  0  0  0
 16 17  2  0
 17 15  1  0
 15 14  1  0
 14  1  1  0
  1  2  2  0
  2  3  1  0
  3  4  2  0
  4  5  1  0
  5  7  1  0
  7  8  2  0
  7  9  1  0
  9 10  1  0
 10 11  1  0
 11 12  1  0
 12 13  1  0
  5  6  2  0
 17 18  1  0
 18 19  2  0
 19 20  1  0
 20 21  2  0
 20 22  1  0
 22 23  1  0
 23 24  2  0
 23 25  1  0
  6  1  1  0
 25 18  1  0
 13  9  1  0
M  CHG 1  15  -1
M  CHG 1  22  -1
M  CHG 1  25  -1
M  END
> <UniqueID>
55

> <SMILES>
O=C([N-]Cc1cccc(C(=O)N2CCCC2)c1)c1cc(=O)[n-]c(=O)[n-]1

> <Energy>
45.74414091684065

> <Genealogy>
O=C([N-]Cc1cccc(C(=O)N2CCCC2)c1)c1cc(=O)[n-]c(=O)[n-]1 (protonated)
O=C([N-]Cc1cccc(C(=O)N2CCCC2)c1)c1cc(=O)[n-]c(=O)[n-]1 (3D coordinates assigned)
O=C([N-]Cc1cccc(C(=O)N2CCCC2)c1)c1cc(=O)[n-]c(=O)[n-]1 (nonaromatic ring conformer: 45.74414091684065 kcal/mol)

> <smiles>
O=C(NCc1cccc(C(=O)N2CCCC2)c1)c1cc(=O)[nH]c(=O)[nH]1

> <score_type>
oracle

> <origin>
adg

> <m_score__min__energy>
-14.65

> <m_primary>
energy

> <minimizedAffinity>
-7.42094

> <minimizedRMSD>
1.12744

> <CNNscore>
0.4682147205

> <CNNaffinity>
6.3040308952

> <CNN_VS>
2.9516401291

> <CNNaffinity_variance>
0.2188301235

$$$$
63:0


 27 29  0  0  0  0  0  0  0  0999 V2000
   59.3292   30.5187   47.5170 C   0  0  0  0  0  0  0  0  0  0  0  0
   59.1269   31.6274   46.7845 C   0  0  0  0  0  0  0  0  0  0  0  0
   58.7925   31.6826   45.4188 C   0  0  0  0  0  0  0  0  0  0  0  0
   58.4521   30.7130   44.5462 C   0  0  0  0  0  0  0  0  0  0  0  0
   58.8564   33.0162   45.0574 C   0  0  0  0  0  0  0  0  0  0  0  0
   59.1623   33.7269   46.1966 C   0  0  0  0  0  0  0  0  0  0  0  0
   59.3561   35.2141   46.2319 C   0  0  0  0  0  0  0  0  0  0  0  0
   59.3245   32.8935   47.2514 N   0  0  0  0  0  0  0  0  0  0  0  0
   58.2346   29.2916   44.8762 C   0  0  0  0  0  0  0  0  0  0  0  0
   56.9414   28.8137   45.1251 C   0  0  0  0  0  0  0  0  0  0  0  0
   55.8446   29.6633   45.0159 O   0  0  0  0  0  0  0  0  0  0  0  0
   56.7495   27.5119   45.4675 N   0  0  0  0  0  0  0  0  0  0  0  0
   57.8042   26.6586   45.5899 C   0  0  0  0  0  0  0  0  0  0  0  0
   57.5627   25.0947   45.9988 S   0  0  0  0  0  0  0  0  0  0  0  0
   59.0679   27.1089   45.3816 N   0  0  0  0  0  0  0  0  0  0  0  0
   59.3089   28.3997   45.0382 C   0  0  0  0  0  0  0  0  0  0  0  0
   60.4973   28.7858   44.8728 O   0  0  0  0  0  0  0  0  0  0  0  0
   55.8362   27.1817   45.6291 H   0  0  0  0  0  0  0  0  0  0  0  0
   59.7179   33.3162   48.6071 C   0  0  0  0  0  0  0  0  0  0  0  0
   61.1641   32.9846   48.8737 C   0  0  0  0  0  0  0  0  0  0  0  0
   62.1745   33.5087   48.0519 C   0  0  0  0  0  0  0  0  0  0  0  0
   63.5143   33.1952   48.2922 C   0  0  0  0  0  0  0  0  0  0  0  0
   63.8600   32.3587   49.3562 C   0  0  0  0  0  0  0  0  0  0  0  0
   62.8646   31.8295   50.1912 C   0  0  0  0  0  0  0  0  0  0  0  0
   61.5164   32.1483   49.9467 C   0  0  0  0  0  0  0  0  0  0  0  0
   63.2471   30.9489   51.3110 C   0  0  0  0  0  0  0  0  0  0  0  0
   64.4367   30.5615   51.4588 O   0  0  0  0  0  0  0  0  0  0  0  0
  1  2  2  0
  2  3  1  0
  3  4  2  0
  4  9  1  0
  9 10  2  0
 10 11  1  0
 10 12  1  0
 12 13  1  0
 13 14  2  0
 13 15  1  0
 15 16  1  0
 16 17  2  0
  3  5  1  0
  5  6  2  0
  6  7  1  0
  6  8  1  0
  8 19  1  0
 19 20  1  0
 20 21  2  0
 21 22  1  0
 22 23  2  0
 23 24  1  0
 24 26  1  0
 26 27  2  0
 24 25  2  0
  8  2  1  0
 25 20  1  0
 16  9  1  0
 12 18  1  0
M  CHG 1  11  -1
M  CHG 1  15  -1
M  END
> <UniqueID>
61

> <SMILES>
C=c1c(=Cc2c([O-])[nH]c(=S)[n-]c2=O)cc(C)n1Cc1cccc(C=O)c1

> <Energy>
85.58263315844694

> <Genealogy>
C=c1c(=Cc2c([O-])[nH]c(=S)[n-]c2=O)cc(C)n1Cc1cccc(C=O)c1 (protonated)
C=c1c(=Cc2c([O-])[nH]c(=S)[n-]c2=O)cc(C)n1Cc1cccc(C=O)c1 (3D coordinates assigned)
C=c1c(=Cc2c([O-])[nH]c(=S)[n-]c2=O)cc(C)n1Cc1cccc(C=O)c1 (optimized conformer: 85.58263315844694 kcal/mol)

> <smiles>
C=c1c(=Cc2c(O)[nH]c(=S)[nH]c2=O)cc(C)n1Cc1cccc(C=O)c1

> <score_type>
oracle

> <origin>
adg

> <m_score__min__energy>
-14.06

> <m_primary>
energy

> <minimizedAffinity>
-8.29823

> <minimizedRMSD>
1.36102

> <CNNscore>
0.2770459950

> <CNNaffinity>
6.4058966637

> <CNN_VS>
1.7747280598

> <CNNaffinity_variance>
0.0525643528

$$$$
78:0


 28 30  0  0  0  0  0  0  0  0999 V2000
   58.6140   31.5287   46.6103 C   0  0  0  0  0  0  0  0  0  0  0  0
   58.2574   31.2780   45.2818 C   0  0  0  0  0  0  0  0  0  0  0  0
   58.1038   29.9639   44.8319 C   0  0  0  0  0  0  0  0  0  0  0  0
   58.2869   28.9044   45.7255 C   0  0  0  0  0  0  0  0  0  0  0  0
   58.1619   27.6802   45.2994 N   0  0  0  0  0  0  0  0  0  0  0  0
   58.6204   29.1701   47.0209 N   0  0  0  0  0  0  0  0  0  0  0  0
   58.7757   30.4394   47.4817 C   0  0  0  0  0  0  0  0  0  0  0  0
   57.1105   26.7625   45.6422 C   0  0  0  0  0  0  0  0  0  0  0  0
   56.0011   27.2310   46.0107 O   0  0  0  0  0  0  0  0  0  0  0  0
   57.3141   25.2924   45.6456 C   0  0  0  0  0  0  0  0  0  0  0  0
   58.6097   24.7630   45.5079 C   0  0  0  0  0  0  0  0  0  0  0  0
   58.8162   23.3806   45.5223 C   0  0  0  0  0  0  0  0  0  0  0  0
   57.7342   22.5118   45.6867 C   0  0  0  0  0  0  0  0  0  0  0  0
   57.9418   21.1386   45.7018 O   0  0  0  0  0  0  0  0  0  0  0  0
   56.4425   23.0267   45.8363 C   0  0  0  0  0  0  0  0  0  0  0  0
   56.2277   24.4095   45.8185 C   0  0  0  0  0  0  0  0  0  0  0  0
   54.9306   24.8936   45.9566 O   0  0  0  0  0  0  0  0  0  0  0  0
   58.7494   32.8861   47.0546 N   0  0  0  0  0  0  0  0  0  0  0  0
   59.8561   33.7573   46.7867 C   0  0  0  0  0  0  0  0  0  0  0  0
   59.7391   34.6140   45.8706 O   0  0  0  0  0  0  0  0  0  0  0  0
   61.2173   33.7736   48.9081 C   0  0  0  0  0  0  0  0  0  0  0  0
   62.4650   33.6529   49.5534 C   0  0  0  0  0  0  0  0  0  0  0  0
   63.6216   33.3907   48.8150 C   0  0  0  0  0  0  0  0  0  0  0  0
   63.5512   33.2504   47.4306 C   0  0  0  0  0  0  0  0  0  0  0  0
   62.3234   33.3712   46.7755 C   0  0  0  0  0  0  0  0  0  0  0  0
   61.1477   33.6270   47.5036 C   0  0  0  0  0  0  0  0  0  0  0  0
   59.6599   33.3348   50.8207 C   0  0  0  0  0  0  0  0  0  0  0  0
   60.0358   34.0177   49.6298 O   0  0  0  0  0  0  0  0  0  0  0  0
 27 28  1  0
 28 21  1  0
 21 22  2  0
 22 23  1  0
 23 24  2  0
 24 25  1  0
 25 26  2  0
 26 19  1  0
 19 20  2  0
 19 18  1  0
 18  1  1  0
  1  2  1  0
  2  3  2  0
  3  4  1  0
  4  5  2  0
  5  8  1  0
  8  9  2  0
  8 10  1  0
 10 11  2  0
 11 12  1  0
 12 13  2  0
 13 14  1  0
 13 15  1  0
 15 16  2  0
 16 17  1  0
  4  6  1  0
  6  7  1  0
 26 21  1  0
  7  1  2  0
 16 10  1  0
M  CHG 1   6  -1
M  CHG 1  14  -1
M  CHG 1  17  -1
M  CHG 1  18  -1
M  END
> <UniqueID>
75

> <SMILES>
COc1ccccc1C(=O)[N-]c1ccc(=NC(=O)c2ccc([O-])cc2[O-])[n-]c1

> <Energy>
61.221839755360854

> <Genealogy>
COc1ccccc1C(=O)[N-]c1ccc(=NC(=O)c2ccc([O-])cc2[O-])[n-]c1 (protonated)
COc1ccccc1C(=O)[N-]c1ccc(=NC(=O)c2ccc([O-])cc2[O-])[n-]c1 (3D coordinates assigned)
COc1ccccc1C(=O)[N-]c1ccc(=NC(=O)c2ccc([O-])cc2[O-])[n-]c1 (optimized conformer: 61.221839755360854 kcal/mol)

> <smiles>
COc1ccccc1C(=O)Nc1ccc(=NC(=O)c2ccc(O)cc2O)[nH]c1

> <score_type>
oracle

> <origin>
adg

> <m_score__min__energy>
-16.109999999999999

> <m_primary>
energy

> <minimizedAffinity>
-7.40914

> <minimizedRMSD>
1.39467

> <CNNscore>
0.4067955017

> <CNNaffinity>
6.5193195343

> <CNN_VS>
2.6520297527

> <CNNaffinity_variance>
0.3932263851

$$$$
85:0


 33 36  0  0  0  0  0  0  0  0999 V2000
   59.9715   26.9314   47.7531 C   0  0  0  0  0  0  0  0  0  0  0  0
   59.3110   27.4126   46.6885 C   0  0  0  0  0  0  0  0  0  0  0  0
   58.6363   26.6836   45.6911 C   0  0  0  0  0  0  0  0  0  0  0  0
   58.4011   25.3626   45.5580 C   0  0  0  0  0  0  0  0  0  0  0  0
   58.1852   27.6136   44.7684 C   0  0  0  0  0  0  0  0  0  0  0  0
   58.5640   28.8558   45.2320 C   0  0  0  0  0  0  0  0  0  0  0  0
   58.2682   30.1532   44.5403 C   0  0  0  0  0  0  0  0  0  0  0  0
   59.2381   28.7369   46.3960 N   0  0  0  0  0  0  0  0  0  0  0  0
   57.0770   24.7409   45.3783 C   0  0  0  0  0  0  0  0  0  0  0  0
   55.9518   25.2630   46.0333 C   0  0  0  0  0  0  0  0  0  0  0  0
   56.0593   26.3986   46.8291 O   0  0  0  0  0  0  0  0  0  0  0  0
   54.7426   24.6633   45.8827 N   0  0  0  0  0  0  0  0  0  0  0  0
   54.6013   23.5525   45.1153 C   0  0  0  0  0  0  0  0  0  0  0  0
   53.4697   23.0218   44.9833 O   0  0  0  0  0  0  0  0  0  0  0  0
   55.6819   23.0127   44.4917 N   0  0  0  0  0  0  0  0  0  0  0  0
   56.9129   23.5750   44.6115 C   0  0  0  0  0  0  0  0  0  0  0  0
   57.8958   23.0414   44.0313 O   0  0  0  0  0  0  0  0  0  0  0  0
   59.8290   29.8239   47.1294 C   0  0  0  0  0  0  0  0  0  0  0  0
   61.0966   30.3076   46.7737 C   0  0  0  0  0  0  0  0  0  0  0  0
   61.6743   31.3605   47.4895 C   0  0  0  0  0  0  0  0  0  0  0  0
   60.9883   31.9396   48.5647 C   0  0  0  0  0  0  0  0  0  0  0  0
   59.7129   31.4695   48.9112 C   0  0  0  0  0  0  0  0  0  0  0  0
   59.1380   30.4145   48.1966 C   0  0  0  0  0  0  0  0  0  0  0  0
   61.6017   33.0418   49.3320 C   0  0  0  0  0  0  0  0  0  0  0  0
   61.1043   34.1945   49.1950 O   0  0  0  0  0  0  0  0  0  0  0  0
   62.7891   32.8656   50.1541 N   0  0  0  0  0  0  0  0  0  0  0  0
   64.0511   32.9923   49.3919 C   0  0  0  0  0  0  0  0  0  0  0  0
   65.2839   32.9065   50.3210 C   0  0  0  0  0  0  0  0  0  0  0  0
   65.0033   32.2130   51.5899 N   0  0  0  0  0  0  0  0  0  0  0  0
   64.0939   31.0819   51.3836 C   0  0  0  0  0  0  0  0  0  0  0  0
   62.7249   31.5503   50.8429 C   0  0  0  0  0  0  0  0  0  0  0  0
   62.2334   33.6721   50.0544 H   0  0  0  0  0  0  0  0  0  0  0  0
   64.5745   32.8706   52.2411 H   0  0  0  0  0  0  0  0  0  0  0  0
  1  2  2  0
  2  3  1  0
  3  4  2  0
  4  9  1  0
  9 10  2  0
 10 11  1  0
 10 12  1  0
 12 13  1  0
 13 14  2  0
 13 15  1  0
 15 16  1  0
 16 17  2  0
  3  5  1  0
  5  6  2  0
  6  7  1  0
  6  8  1  0
  8 18  1  0
 18 19  2  0
 19 20  1  0
 20 21  2  0
 21 24  1  0
 24 25  2  0
 24 26  1  0
 26 27  1  0
 27 28  1  0
 28 29  1  0
 29 30  1  0
 30 31  1  0
 21 22  1  0
 22 23  2  0
  8  2  1  0
 23 18  1  0
 16  9  1  0
 31 26  1  0
 26 32  1  0
 29 33  1  0
M  CHG 1  11  -1
M  CHG 1  12  -1
M  CHG 1  15  -1
M  CHG 1  26   1
M  END
> <UniqueID>
82

> <SMILES>
C=c1/c(=C\c2c([O-])[n-]c(=O)[n-]c2=O)cc(C)n1-c1ccc(C(=O)[NH+]2CCNCC2)cc1

> <Energy>
124.63616849284769

> <Genealogy>
C=c1c(=Cc2c([O-])[n-]c(=O)[n-]c2=O)cc(C)n1-c1ccc(C(=O)[NH+]2CCNCC2)cc1 (protonated)
C=c1/c(=C\c2c([O-])[n-]c(=O)[n-]c2=O)cc(C)n1-c1ccc(C(=O)[NH+]2CCNCC2)cc1 (cis-trans isomerization)
C=c1/c(=C\c2c([O-])[n-]c(=O)[n-]c2=O)cc(C)n1-c1ccc(C(=O)[NH+]2CCNCC2)cc1 (3D coordinates assigned)
C=c1/c(=C\c2c([O-])[n-]c(=O)[n-]c2=O)cc(C)n1-c1ccc(C(=O)[NH+]2CCNCC2)cc1 (nonaromatic ring conformer: 124.63616849284769 kcal/mol)

> <smiles>
C=c1c(=Cc2c(O)[nH]c(=O)[nH]c2=O)cc(C)n1-c1ccc(C(=O)N2CCNCC2)cc1

> <score_type>
oracle

> <origin>
adg

> <m_score__min__energy>
-14.890000000000001

> <m_primary>
energy

> <minimizedAffinity>
-8.46663

> <minimizedRMSD>
0.98719

> <CNNscore>
0.0927599519

> <CNNaffinity>
6.1876239777

> <CNN_VS>
0.5739637017

> <CNNaffinity_variance>
0.0228809025

$$$$
13:0


 33 36  0  0  0  0  0  0  0  0999 V2000
   59.6875   29.0872   47.1945 C   0  0  0  0  0  0  0  0  0  0  0  0
   58.9049   29.8464   48.0748 C   0  0  0  0  0  0  0  0  0  0  0  0
   59.1753   31.2054   48.2627 C   0  0  0  0  0  0  0  0  0  0  0  0
   60.2235   31.8237   47.5707 C   0  0  0  0  0  0  0  0  0  0  0  0
   61.0232   31.0539   46.7052 C   0  0  0  0  0  0  0  0  0  0  0  0
   60.7541   29.6950   46.5180 C   0  0  0  0  0  0  0  0  0  0  0  0
   58.2550   27.7756   44.9484 C   0  0  0  0  0  0  0  0  0  0  0  0
   58.7364   27.0973   46.0009 C   0  0  0  0  0  0  0  0  0  0  0  0
   58.7297   25.7059   46.1941 C   0  0  0  0  0  0  0  0  0  0  0  0
   58.1260   24.7185   45.5035 C   0  0  0  0  0  0  0  0  0  0  0  0
   59.4934   25.4672   47.3256 C   0  0  0  0  0  0  0  0  0  0  0  0
   59.8869   26.6969   47.8103 C   0  0  0  0  0  0  0  0  0  0  0  0
   60.7075   26.9059   49.0470 C   0  0  0  0  0  0  0  0  0  0  0  0
   59.4208   27.6858   47.0165 N   0  0  0  0  0  0  0  0  0  0  0  0
   56.7413   24.2609   45.6944 C   0  0  0  0  0  0  0  0  0  0  0  0
   55.6446   25.0623   45.9194 C   0  0  0  0  0  0  0  0  0  0  0  0
   55.6731   26.4339   46.1317 O   0  0  0  0  0  0  0  0  0  0  0  0
   54.5127   24.3312   45.8971 N   0  0  0  0  0  0  0  0  0  0  0  0
   54.9647   23.0875   45.6291 C   0  0  0  0  0  0  0  0  0  0  0  0
   54.2021   22.0932   45.5096 O   0  0  0  0  0  0  0  0  0  0  0  0
   56.3029   23.0069   45.4853 N   0  0  0  0  0  0  0  0  0  0  0  0
   56.8391   22.2086   45.2743 H   0  0  0  0  0  0  0  0  0  0  0  0
   60.4674   33.1842   47.8035 O   0  0  0  0  0  0  0  0  0  0  0  0
   59.8229   34.2399   47.1481 C   0  0  0  0  0  0  0  0  0  0  0  0
   59.2770   35.1718   47.8004 O   0  0  0  0  0  0  0  0  0  0  0  0
   59.8216   34.2840   45.6506 C   0  0  0  0  0  0  0  0  0  0  0  0
   58.3947   34.3427   45.0889 C   0  0  0  0  0  0  0  0  0  0  0  0
   57.9643   33.0172   44.5113 C   0  0  0  0  0  0  0  0  0  0  0  0
   58.0798   32.7744   43.1326 C   0  0  0  0  0  0  0  0  0  0  0  0
   57.6426   31.5603   42.5936 C   0  0  0  0  0  0  0  0  0  0  0  0
   57.0814   30.5868   43.4224 C   0  0  0  0  0  0  0  0  0  0  0  0
   56.9549   30.8234   44.7944 C   0  0  0  0  0  0  0  0  0  0  0  0
   57.3939   32.0338   45.3383 C   0  0  0  0  0  0  0  0  0  0  0  0
  7  8  2  0
  8  9  1  0
  9 10  2  0
 10 15  1  0
 15 16  2  0
 16 17  1  0
 16 18  1  0
 18 19  1  0
 19 20  2  0
 19 21  1  0
  9 11  1  0
 11 12  2  0
 12 13  1  0
 12 14  1  0
 14  1  1  0
  1  2  2  0
  2  3  1  0
  3  4  2  0
  4 23  1  0
 23 24  1  0
 24 25  2  0
 24 26  1  0
 26 27  1  0
 27 28  1  0
 28 29  2  0
 29 30  1  0
 30 31  2  0
 31 32  1  0
 32 33  2  0
  4  5  1  0
  5  6  2  0
 14  8  1  0
  6  1  1  0
 21 15  1  0
 33 28  1  0
 21 22  1  0
M  CHG 1  17  -1
M  CHG 1  18  -1
M  END
> <UniqueID>
13

> <SMILES>
C=c1/c(=C\c2[nH]c(=O)[n-]c2[O-])cc(C)n1-c1ccc(OC(=O)CCc2ccccc2)cc1

> <Energy>
133.46181311229446

> <Genealogy>
C=c1c(=Cc2[nH]c(=O)[n-]c2[O-])cc(C)n1-c1ccc(OC(=O)CCc2ccccc2)cc1 (protonated)
C=c1/c(=C\c2[nH]c(=O)[n-]c2[O-])cc(C)n1-c1ccc(OC(=O)CCc2ccccc2)cc1 (cis-trans isomerization)
C=c1/c(=C\c2[nH]c(=O)[n-]c2[O-])cc(C)n1-c1ccc(OC(=O)CCc2ccccc2)cc1 (3D coordinates assigned)
C=c1/c(=C\c2[nH]c(=O)[n-]c2[O-])cc(C)n1-c1ccc(OC(=O)CCc2ccccc2)cc1 (optimized conformer: 133.46181311229446 kcal/mol)

> <smiles>
C=c1c(=Cc2[nH]c(=O)[nH]c2O)cc(C)n1-c1ccc(OC(=O)CCc2ccccc2)cc1

> <score_type>
oracle

> <origin>
adg

> <m_score__min__energy>
-14.529999999999999

> <m_primary>
energy

> <minimizedAffinity>
-6.54854

> <minimizedRMSD>
0.65669

> <CNNscore>
0.0789938346

> <CNNaffinity>
5.8603959084

> <CNN_VS>
0.4629351497

> <CNNaffinity_variance>
0.7654173374

$$$$
38:0


 30 33  0  0  0  0  0  0  0  0999 V2000
   58.9072   28.6438   47.5028 C   0  0  0  0  0  0  0  0  0  0  0  0
   58.5541   29.5282   46.5565 C   0  0  0  0  0  0  0  0  0  0  0  0
   57.6634   29.3227   45.4878 C   0  0  0  0  0  0  0  0  0  0  0  0
   57.0740   28.2009   45.0270 C   0  0  0  0  0  0  0  0  0  0  0  0
   57.4647   30.5642   44.9058 C   0  0  0  0  0  0  0  0  0  0  0  0
   58.2666   31.4588   45.5830 C   0  0  0  0  0  0  0  0  0  0  0  0
   58.3664   32.9205   45.2664 C   0  0  0  0  0  0  0  0  0  0  0  0
   58.9265   30.8343   46.5826 N   0  0  0  0  0  0  0  0  0  0  0  0
   57.3226   26.8339   45.5236 C   0  0  0  0  0  0  0  0  0  0  0  0
   56.2669   26.0628   46.0295 C   0  0  0  0  0  0  0  0  0  0  0  0
   54.9842   26.5916   46.1181 O   0  0  0  0  0  0  0  0  0  0  0  0
   56.4954   24.7903   46.4454 N   0  0  0  0  0  0  0  0  0  0  0  0
   57.7331   24.2382   46.3661 C   0  0  0  0  0  0  0  0  0  0  0  0
   57.9209   23.0586   46.7627 O   0  0  0  0  0  0  0  0  0  0  0  0
   58.7667   24.9546   45.8552 N   0  0  0  0  0  0  0  0  0  0  0  0
   58.5908   26.2308   45.4252 C   0  0  0  0  0  0  0  0  0  0  0  0
   59.5664   26.8588   44.9353 O   0  0  0  0  0  0  0  0  0  0  0  0
   59.8367   31.4595   47.5063 C   0  0  0  0  0  0  0  0  0  0  0  0
   59.3519   32.0579   48.6776 C   0  0  0  0  0  0  0  0  0  0  0  0
   60.2342   32.6583   49.5794 C   0  0  0  0  0  0  0  0  0  0  0  0
   61.6162   32.6547   49.3294 C   0  0  0  0  0  0  0  0  0  0  0  0
   62.0975   32.0736   48.1463 C   0  0  0  0  0  0  0  0  0  0  0  0
   61.2142   31.4733   47.2443 C   0  0  0  0  0  0  0  0  0  0  0  0
   62.5528   33.3024   50.2687 C   0  0  0  0  0  0  0  0  0  0  0  0
   62.7351   34.5480   50.1829 O   0  0  0  0  0  0  0  0  0  0  0  0
   63.2649   32.5491   51.2658 N   0  0  0  0  0  0  0  0  0  0  0  0
   63.6386   31.1521   51.1093 C   0  0  0  0  0  0  0  0  0  0  0  0
   64.4462   30.7983   52.3511 C   0  0  0  0  0  0  0  0  0  0  0  0
   64.8625   32.1288   52.9727 C   0  0  0  0  0  0  0  0  0  0  0  0
   63.9120   33.1751   52.4079 C   0  0  0  0  0  0  0  0  0  0  0  0
  1  2  2  0
  2  3  1  0
  3  4  2  0
  4  9  1  0
  9 10  2  0
 10 11  1  0
 10 12  1  0
 12 13  1  0
 13 14  2  0
 13 15  1  0
 15 16  1  0
 16 17  2  0
  3  5  1  0
  5  6  2  0
  6  7  1  0
  6  8  1  0
  8 18  1  0
 18 19  2  0
 19 20  1  0
 20 21  2  0
 21 24  1  0
 24 25  2  0
 24 26  1  0
 26 27  1  0
 27 28  1  0
 28 29  1  0
 29 30  1  0
 21 22  1  0
 22 23  2  0
  8  2  1  0
 23 18  1  0
 16  9  1  0
 30 26  1  0
M  CHG 1  11  -1
M  CHG 1  12  -1
M  CHG 1  15  -1
M  END
> <UniqueID>
37

> <SMILES>
C=c1/c(=C\c2c([O-])[n-]c(=O)[n-]c2=O)cc(C)n1-c1ccc(C(=O)N2CCCC2)cc1

> <Energy>
105.90190120552533

> <Genealogy>
C=c1c(=Cc2c([O-])[n-]c(=O)[n-]c2=O)cc(C)n1-c1ccc(C(=O)N2CCCC2)cc1 (protonated)
C=c1/c(=C\c2c([O-])[n-]c(=O)[n-]c2=O)cc(C)n1-c1ccc(C(=O)N2CCCC2)cc1 (cis-trans isomerization)
C=c1/c(=C\c2c([O-])[n-]c(=O)[n-]c2=O)cc(C)n1-c1ccc(C(=O)N2CCCC2)cc1 (3D coordinates assigned)
C=c1/c(=C\c2c([O-])[n-]c(=O)[n-]c2=O)cc(C)n1-c1ccc(C(=O)N2CCCC2)cc1 (nonaromatic ring conformer: 105.90190120552533 kcal/mol)

> <smiles>
C=c1c(=Cc2c(O)[nH]c(=O)[nH]c2=O)cc(C)n1-c1ccc(C(=O)N2CCCC2)cc1

> <score_type>
oracle

> <origin>
adg

> <m_score__min__energy>
-16.239999999999998

> <m_primary>
energy

> <minimizedAffinity>
-6.77968

> <minimizedRMSD>
1.00426

> <CNNscore>
0.2713721097

> <CNNaffinity>
6.9344305992

> <CNN_VS>
1.8818110228

> <CNNaffinity_variance>
0.2157580107

$$$$
53:0


 30 33  0  0  0  0  0  0  0  0999 V2000
   58.0641   26.2071   45.1486 C   0  0  0  0  0  0  0  0  0  0  0  0
   58.3058   27.4985   45.4425 C   0  0  0  0  0  0  0  0  0  0  0  0
   57.6678   28.5992   44.8874 C   0  0  0  0  0  0  0  0  0  0  0  0
   58.1962   29.7162   45.5033 C   0  0  0  0  0  0  0  0  0  0  0  0
   57.7959   31.1266   45.1932 C   0  0  0  0  0  0  0  0  0  0  0  0
   59.1357   29.3565   46.4073 N   0  0  0  0  0  0  0  0  0  0  0  0
   59.2094   28.0010   46.3839 C   0  0  0  0  0  0  0  0  0  0  0  0
   60.0643   27.2814   47.1277 C   0  0  0  0  0  0  0  0  0  0  0  0
   55.0371   26.2452   45.8988 O   0  0  0  0  0  0  0  0  0  0  0  0
   55.9813   25.3315   46.3584 C   0  0  0  0  0  0  0  0  0  0  0  0
   55.6754   24.3039   47.1675 N   0  0  0  0  0  0  0  0  0  0  0  0
   56.8540   23.6581   47.2928 C   0  0  0  0  0  0  0  0  0  0  0  0
   56.9849   22.6141   47.9829 O   0  0  0  0  0  0  0  0  0  0  0  0
   57.8802   24.2145   46.6141 N   0  0  0  0  0  0  0  0  0  0  0  0
   57.3230   25.2952   46.0373 C   0  0  0  0  0  0  0  0  0  0  0  0
   54.1460   26.1800   46.1809 H   0  0  0  0  0  0  0  0  0  0  0  0
   59.8910   30.2578   47.2350 C   0  0  0  0  0  0  0  0  0  0  0  0
   61.2288   30.5459   46.9307 C   0  0  0  0  0  0  0  0  0  0  0  0
   61.9641   31.4086   47.7455 C   0  0  0  0  0  0  0  0  0  0  0  0
   61.3739   31.9808   48.8760 C   0  0  0  0  0  0  0  0  0  0  0  0
   60.0397   31.6886   49.2064 C   0  0  0  0  0  0  0  0  0  0  0  0
   59.2998   30.8350   48.3675 C   0  0  0  0  0  0  0  0  0  0  0  0
   59.4146   32.2935   50.4053 C   0  0  0  0  0  0  0  0  0  0  0  0
   59.4915   33.5390   50.5844 O   0  0  0  0  0  0  0  0  0  0  0  0
   58.7020   31.4863   51.3592 N   0  0  0  0  0  0  0  0  0  0  0  0
   57.5182   32.0333   52.0238 C   0  0  0  0  0  0  0  0  0  0  0  0
   56.6081   30.8850   52.4750 C   0  0  0  0  0  0  0  0  0  0  0  0
   57.3314   29.9408   53.2442 O   0  0  0  0  0  0  0  0  0  0  0  0
   58.3213   29.3249   52.4417 C   0  0  0  0  0  0  0  0  0  0  0  0
   59.3710   30.3484   51.9973 C   0  0  0  0  0  0  0  0  0  0  0  0
  9 10  1  0
 10 11  1  0
 11 12  1  0
 12 13  2  0
 12 14  1  0
 14 15  1  0
 15  1  1  0
  1  2  2  0
  2  3  1  0
  3  4  2  0
  4  5  1  0
  4  6  1  0
  6 17  1  0
 17 18  2  0
 18 19  1  0
 19 20  2  0
 20 21  1  0
 21 23  1  0
 23 24  2  0
 23 25  1  0
 25 26  1  0
 26 27  1  0
 27 28  1  0
 28 29  1  0
 29 30  1  0
 21 22  2  0
  6  7  1  0
  7  8  2  0
 15 10  2  0
  7  2  1  0
 22 17  1  0
 30 25  1  0
  9 16  1  0
M  CHG 1  11  -1
M  CHG 1  14  -1
M  END
> <UniqueID>
52

> <SMILES>
C=c1/c(=C/c2[n-]c(=O)[n-]c2O)cc(C)n1-c1cccc(C(=O)N2CCOCC2)c1

> <Energy>
127.23887285189144

> <Genealogy>
C=c1c(=Cc2[n-]c(=O)[n-]c2O)cc(C)n1-c1cccc(C(=O)N2CCOCC2)c1 (protonated)
C=c1/c(=C/c2[n-]c(=O)[n-]c2O)cc(C)n1-c1cccc(C(=O)N2CCOCC2)c1 (cis-trans isomerization)
C=c1/c(=C/c2[n-]c(=O)[n-]c2O)cc(C)n1-c1cccc(C(=O)N2CCOCC2)c1 (3D coordinates assigned)
C=c1/c(=C/c2[n-]c(=O)[n-]c2O)cc(C)n1-c1cccc(C(=O)N2CCOCC2)c1 (nonaromatic ring conformer: 127.23887285189144 kcal/mol)

> <smiles>
C=c1c(=Cc2[nH]c(=O)[nH]c2O)cc(C)n1-c1cccc(C(=O)N2CCOCC2)c1

> <score_type>
oracle

> <origin>
adg

> <m_score__min__energy>
-14.470000000000001

> <m_primary>
energy

> <minimizedAffinity>
-8.91184

> <minimizedRMSD>
0.45914

> <CNNscore>
0.3651592731

> <CNNaffinity>
6.5918765068

> <CNN_VS>
2.4070849419

> <CNNaffinity_variance>
0.0440612733

$$$$
60:0


 31 34  0  0  0  0  0  0  0  0999 V2000
   56.9933   27.7943   45.2174 C   0  0  0  0  0  0  0  0  0  0  0  0
   57.9851   26.9548   45.5536 C   0  0  0  0  0  0  0  0  0  0  0  0
   58.0599   25.5929   45.2446 C   0  0  0  0  0  0  0  0  0  0  0  0
   57.1951   24.8726   44.5038 C   0  0  0  0  0  0  0  0  0  0  0  0
   59.2325   25.1251   45.8258 C   0  0  0  0  0  0  0  0  0  0  0  0
   59.8197   26.2040   46.4541 C   0  0  0  0  0  0  0  0  0  0  0  0
   61.1060   26.1488   47.2203 C   0  0  0  0  0  0  0  0  0  0  0  0
   59.0621   27.3122   46.2955 N   0  0  0  0  0  0  0  0  0  0  0  0
   56.2271   23.9137   45.0822 C   0  0  0  0  0  0  0  0  0  0  0  0
   55.1367   24.3820   45.8291 C   0  0  0  0  0  0  0  0  0  0  0  0
   54.9305   25.7459   46.0030 O   0  0  0  0  0  0  0  0  0  0  0  0
   54.2620   23.5012   46.3798 N   0  0  0  0  0  0  0  0  0  0  0  0
   54.4309   22.1620   46.2356 C   0  0  0  0  0  0  0  0  0  0  0  0
   53.6049   21.3645   46.7499 O   0  0  0  0  0  0  0  0  0  0  0  0
   55.4936   21.6814   45.5410 N   0  0  0  0  0  0  0  0  0  0  0  0
   56.3980   22.5205   44.9719 C   0  0  0  0  0  0  0  0  0  0  0  0
   57.3908   22.0377   44.3657 O   0  0  0  0  0  0  0  0  0  0  0  0
   59.3671   28.6175   46.8179 C   0  0  0  0  0  0  0  0  0  0  0  0
   58.8679   29.0066   48.0677 C   0  0  0  0  0  0  0  0  0  0  0  0
   59.1733   30.2668   48.5862 C   0  0  0  0  0  0  0  0  0  0  0  0
   59.9807   31.1557   47.8599 C   0  0  0  0  0  0  0  0  0  0  0  0
   60.4897   30.7599   46.6122 C   0  0  0  0  0  0  0  0  0  0  0  0
   60.1843   29.4988   46.0926 C   0  0  0  0  0  0  0  0  0  0  0  0
   60.6998   29.1271   44.8941 F   0  0  0  0  0  0  0  0  0  0  0  0
   60.3330   32.5017   48.4405 C   0  0  0  0  0  0  0  0  0  0  0  0
   59.6331   33.5866   47.7187 N   0  0  0  0  0  0  0  0  0  0  0  0
   60.3654   33.9812   46.4915 C   0  0  0  0  0  0  0  0  0  0  0  0
   59.4237   34.6555   45.4810 C   0  0  0  0  0  0  0  0  0  0  0  0
   58.3588   33.8207   45.0447 O   0  0  0  0  0  0  0  0  0  0  0  0
   58.0000   32.8145   45.9811 C   0  0  0  0  0  0  0  0  0  0  0  0
   58.2182   33.2356   47.4466 C   0  0  0  0  0  0  0  0  0  0  0  0
  1  2  2  0
  2  3  1  0
  3  4  2  0
  4  9  1  0
  9 10  2  0
 10 11  1  0
 10 12  1  0
 12 13  1  0
 13 14  2  0
 13 15  1  0
 15 16  1  0
 16 17  2  0
  3  5  1  0
  5  6  2  0
  6  7  1  0
  6  8  1  0
  8 18  1  0
 18 19  2  0
 19 20  1  0
 20 21  2  0
 21 25  1  0
 25 26  1  0
 26 27  1  0
 27 28  1  0
 28 29  1  0
 29 30  1  0
 30 31  1  0
 21 22  1  0
 22 23  2  0
 23 24  1  0
  8  2  1  0
 23 18  1  0
 16  9  1  0
 31 26  1  0
M  CHG 1  11  -1
M  CHG 1  12  -1
M  CHG 1  15  -1
M  END
> <UniqueID>
59

> <SMILES>
C=c1/c(=C/c2c([O-])[n-]c(=O)[n-]c2=O)cc(C)n1-c1ccc(CN2CCOCC2)cc1F

> <Energy>
113.67445454854526

> <Genealogy>
C=c1c(=Cc2c([O-])[n-]c(=O)[n-]c2=O)cc(C)n1-c1ccc(CN2CCOCC2)cc1F (protonated)
C=c1/c(=C/c2c([O-])[n-]c(=O)[n-]c2=O)cc(C)n1-c1ccc(CN2CCOCC2)cc1F (cis-trans isomerization)
C=c1/c(=C/c2c([O-])[n-]c(=O)[n-]c2=O)cc(C)n1-c1ccc(CN2CCOCC2)cc1F (3D coordinates assigned)
C=c1/c(=C/c2c([O-])[n-]c(=O)[n-]c2=O)cc(C)n1-c1ccc(CN2CCOCC2)cc1F (nonaromatic ring conformer: 113.67445454854526 kcal/mol)

> <smiles>
C=c1c(=Cc2c(O)[nH]c(=O)[nH]c2=O)cc(C)n1-c1ccc(CN2CCOCC2)cc1F

> <score_type>
oracle

> <origin>
adg

> <m_score__min__energy>
-15.59

> <m_primary>
energy

> <minimizedAffinity>
-7.72799

> <minimizedRMSD>
1.03318

> <CNNscore>
0.0606157631

> <CNNaffinity>
5.8393764496

> <CNN_VS>
0.3539582491

> <CNNaffinity_variance>
0.1851754636

$$$$
67:0


 32 35  0  0  0  0  0  0  0  0999 V2000
   59.5340   29.9820   47.0129 C   0  0  0  0  0  0  0  0  0  0  0  0
   58.8085   30.5212   48.0826 C   0  0  0  0  0  0  0  0  0  0  0  0
   59.4148   31.4183   48.9663 C   0  0  0  0  0  0  0  0  0  0  0  0
   60.7617   31.7906   48.7953 C   0  0  0  0  0  0  0  0  0  0  0  0
   61.4788   31.2552   47.7095 C   0  0  0  0  0  0  0  0  0  0  0  0
   60.8705   30.3577   46.8284 C   0  0  0  0  0  0  0  0  0  0  0  0
   59.3837   27.0115   47.2003 C   0  0  0  0  0  0  0  0  0  0  0  0
   58.8648   27.7149   46.1809 C   0  0  0  0  0  0  0  0  0  0  0  0
   58.1677   27.1961   45.0846 C   0  0  0  0  0  0  0  0  0  0  0  0
   57.9491   25.8986   44.7967 C   0  0  0  0  0  0  0  0  0  0  0  0
   57.7855   28.2871   44.3148 C   0  0  0  0  0  0  0  0  0  0  0  0
   58.2555   29.4122   44.9614 C   0  0  0  0  0  0  0  0  0  0  0  0
   58.0705   30.8169   44.4695 C   0  0  0  0  0  0  0  0  0  0  0  0
   58.9043   29.0684   46.0965 N   0  0  0  0  0  0  0  0  0  0  0  0
   57.2898   24.9501   45.7132 C   0  0  0  0  0  0  0  0  0  0  0  0
   57.9006   23.8609   46.2122 N   0  0  0  0  0  0  0  0  0  0  0  0
   56.9794   23.3418   47.0530 C   0  0  0  0  0  0  0  0  0  0  0  0
   57.1796   22.2884   47.7100 O   0  0  0  0  0  0  0  0  0  0  0  0
   55.8313   24.0460   47.1405 N   0  0  0  0  0  0  0  0  0  0  0  0
   56.0474   25.0680   46.2969 C   0  0  0  0  0  0  0  0  0  0  0  0
   55.1463   26.1084   46.1048 O   0  0  0  0  0  0  0  0  0  0  0  0
   61.4285   32.7517   49.7154 C   0  0  0  0  0  0  0  0  0  0  0  0
   61.3343   33.9881   49.4723 O   0  0  0  0  0  0  0  0  0  0  0  0
   62.1515   32.3109   50.8951 N   0  0  0  0  0  0  0  0  0  0  0  0
   61.1964   31.9545   51.9867 C   0  0  0  0  0  0  0  0  0  0  0  0
   60.9245   30.4802   52.0563 C   0  0  0  0  0  0  0  0  0  0  0  0
   59.7616   30.0513   52.2831 O   0  0  0  0  0  0  0  0  0  0  0  0
   62.0270   29.5810   51.9046 N   0  0  0  0  0  0  0  0  0  0  0  0
   61.8377   28.1330   51.9739 C   0  0  0  0  0  0  0  0  0  0  0  0
   63.3239   30.1797   51.5965 C   0  0  0  0  0  0  0  0  0  0  0  0
   63.1307   31.2476   50.5115 C   0  0  0  0  0  0  0  0  0  0  0  0
   61.8307   32.1895   51.8179 H   0  0  0  0  0  0  0  0  0  0  0  0
  7  8  2  0
  8  9  1  0
  9 10  2  0
 10 15  1  0
 15 16  1  0
 16 17  1  0
 17 18  2  0
 17 19  1  0
 19 20  1  0
 20 21  1  0
  9 11  1  0
 11 12  2  0
 12 13  1  0
 12 14  1  0
 14  1  1  0
  1  2  2  0
  2  3  1  0
  3  4  2  0
  4 22  1  0
 22 23  2  0
 24 22  1  0
 24 25  1  0
 25 26  1  0
 26 27  2  0
 26 28  1  0
 28 29  1  0
 28 30  1  0
 30 31  1  0
  4  5  1  0
  5  6  2  0
 14  8  1  0
  6  1  1  0
 20 15  2  0
 31 24  1  0
 24 32  1  0
M  CHG 1  16  -1
M  CHG 1  19  -1
M  CHG 1  21  -1
M  CHG 1  24   1
M  END
> <UniqueID>
65

> <SMILES>
C=c1/c(=C/c2[n-]c(=O)[n-]c2[O-])cc(C)n1-c1ccc(C(=O)[N@@H+]2CCN(C)C(=O)C2)cc1

> <Energy>
138.39130925383552

> <Genealogy>
C=c1c(=Cc2[n-]c(=O)[n-]c2[O-])cc(C)n1-c1ccc(C(=O)[NH+]2CCN(C)C(=O)C2)cc1 (protonated)
C=c1c(=Cc2[n-]c(=O)[n-]c2[O-])cc(C)n1-c1ccc(C(=O)[N@@H+]2CCN(C)C(=O)C2)cc1 (chirality)
C=c1/c(=C/c2[n-]c(=O)[n-]c2[O-])cc(C)n1-c1ccc(C(=O)[N@@H+]2CCN(C)C(=O)C2)cc1 (cis-trans isomerization)
C=c1/c(=C/c2[n-]c(=O)[n-]c2[O-])cc(C)n1-c1ccc(C(=O)[N@@H+]2CCN(C)C(=O)C2)cc1 (3D coordinates assigned)
C=c1/c(=C/c2[n-]c(=O)[n-]c2[O-])cc(C)n1-c1ccc(C(=O)[N@@H+]2CCN(C)C(=O)C2)cc1 (nonaromatic ring conformer: 138.39130925383552 kcal/mol)

> <smiles>
C=c1c(=Cc2[nH]c(=O)[nH]c2O)cc(C)n1-c1ccc(C(=O)N2CCN(C)C(=O)C2)cc1

> <score_type>
oracle

> <origin>
adg

> <m_score__min__energy>
-14.68

> <m_primary>
energy

> <minimizedAffinity>
-8.23672

> <minimizedRMSD>
2.29803

> <CNNscore>
0.1270973682

> <CNNaffinity>
6.4961171150

> <CNN_VS>
0.8256393671

> <CNNaffinity_variance>
0.0246401224

$$$$
79:0


 25 27  0  0  0  0  0  0  0  0999 V2000
   58.5260   30.9902   45.8088 C   0  0  0  0  0  0  0  0  0  0  0  0
   58.7383   29.6744   46.0307 C   0  0  0  0  0  0  0  0  0  0  0  0
   58.0995   28.7169   45.2071 C   0  0  0  0  0  0  0  0  0  0  0  0
   57.3292   29.0816   44.2716 O   0  0  0  0  0  0  0  0  0  0  0  0
   58.3343   27.3486   45.4397 C   0  0  0  0  0  0  0  0  0  0  0  0
   57.7377   26.3952   44.6954 C   0  0  0  0  0  0  0  0  0  0  0  0
   59.1581   26.9913   46.4575 N   0  0  0  0  0  0  0  0  0  0  0  0
   59.7700   27.9036   47.2474 C   0  0  0  0  0  0  0  0  0  0  0  0
   60.5261   27.4982   48.1723 O   0  0  0  0  0  0  0  0  0  0  0  0
   59.5679   29.2437   47.0458 N   0  0  0  0  0  0  0  0  0  0  0  0
   57.3827   25.0550   45.2134 C   0  0  0  0  0  0  0  0  0  0  0  0
   58.2928   24.0003   45.0407 C   0  0  0  0  0  0  0  0  0  0  0  0
   57.9974   22.7253   45.5267 C   0  0  0  0  0  0  0  0  0  0  0  0
   56.7989   22.4932   46.2048 C   0  0  0  0  0  0  0  0  0  0  0  0
   56.5041   21.2217   46.6840 O   0  0  0  0  0  0  0  0  0  0  0  0
   55.8976   23.5419   46.4079 C   0  0  0  0  0  0  0  0  0  0  0  0
   56.1887   24.8243   45.9291 C   0  0  0  0  0  0  0  0  0  0  0  0
   55.3008   25.8627   46.1918 O   0  0  0  0  0  0  0  0  0  0  0  0
   60.2440   30.1729   47.9191 C   0  0  0  0  0  0  0  0  0  0  0  0
   61.4002   30.8338   47.4790 C   0  0  0  0  0  0  0  0  0  0  0  0
   62.0564   31.7348   48.3251 C   0  0  0  0  0  0  0  0  0  0  0  0
   61.5613   31.9777   49.6097 C   0  0  0  0  0  0  0  0  0  0  0  0
   60.4100   31.3189   50.0511 C   0  0  0  0  0  0  0  0  0  0  0  0
   59.7509   30.4173   49.2102 C   0  0  0  0  0  0  0  0  0  0  0  0
   58.6346   29.7821   49.6475 F   0  0  0  0  0  0  0  0  0  0  0  0
  1  2  2  0
  2  3  1  0
  3  4  2  0
  3  5  1  0
  5  6  2  0
  6 11  1  0
 11 12  2  0
 12 13  1  0
 13 14  2  0
 14 15  1  0
 14 16  1  0
 16 17  2  0
 17 18  1  0
  5  7  1  0
  7  8  1  0
  8  9  2  0
  8 10  1  0
 10 19  1  0
 19 20  2  0
 20 21  1  0
 21 22  2  0
 22 23  1  0
 23 24  2  0
 24 25  1  0
 10  2  1  0
 24 19  1  0
 17 11  1  0
M  CHG 1   7  -1
M  CHG 1  15  -1
M  CHG 1  18  -1
M  END
> <UniqueID>
77

> <SMILES>
C=c1c(=O)/c(=C/c2ccc([O-])cc2[O-])[n-]c(=O)n1-c1ccccc1F

> <Energy>
63.685220997261425

> <Genealogy>
C=c1c(=O)c(=Cc2ccc([O-])cc2[O-])[n-]c(=O)n1-c1ccccc1F (protonated)
C=c1c(=O)/c(=C/c2ccc([O-])cc2[O-])[n-]c(=O)n1-c1ccccc1F (cis-trans isomerization)
C=c1c(=O)/c(=C/c2ccc([O-])cc2[O-])[n-]c(=O)n1-c1ccccc1F (3D coordinates assigned)
C=c1c(=O)/c(=C/c2ccc([O-])cc2[O-])[n-]c(=O)n1-c1ccccc1F (optimized conformer: 63.685220997261425 kcal/mol)

> <smiles>
C=c1c(=O)c(=Cc2ccc(O)cc2O)[nH]c(=O)n1-c1ccccc1F

> <score_type>
oracle

> <origin>
adg

> <m_score__min__energy>
-15.289999999999999

> <m_primary>
energy

> <minimizedAffinity>
-7.99893

> <minimizedRMSD>
2.00933

> <CNNscore>
0.2309094369

> <CNNaffinity>
6.0765700340

> <CNN_VS>
1.4031373262

> <CNNaffinity_variance>
0.2796952724

$$$$
6:0


 33 36  0  0  0  0  0  0  0  0999 V2000
   60.5303   29.2265   47.2972 C   0  0  0  0  0  0  0  0  0  0  0  0
   59.7558   29.9545   46.4771 C   0  0  0  0  0  0  0  0  0  0  0  0
   59.0557   29.4887   45.3605 C   0  0  0  0  0  0  0  0  0  0  0  0
   59.0029   28.2248   44.8954 C   0  0  0  0  0  0  0  0  0  0  0  0
   58.3818   30.5863   44.8361 C   0  0  0  0  0  0  0  0  0  0  0  0
   58.7087   31.6678   45.6308 C   0  0  0  0  0  0  0  0  0  0  0  0
   58.1654   33.0548   45.4567 C   0  0  0  0  0  0  0  0  0  0  0  0
   59.5365   31.2842   46.6275 N   0  0  0  0  0  0  0  0  0  0  0  0
   58.4407   27.1033   45.6771 C   0  0  0  0  0  0  0  0  0  0  0  0
   57.0557   26.9961   45.8661 C   0  0  0  0  0  0  0  0  0  0  0  0
   56.1945   27.9419   45.3236 O   0  0  0  0  0  0  0  0  0  0  0  0
   56.5452   25.9514   46.5685 N   0  0  0  0  0  0  0  0  0  0  0  0
   57.3554   25.0078   47.1116 C   0  0  0  0  0  0  0  0  0  0  0  0
   56.8583   24.0367   47.7426 O   0  0  0  0  0  0  0  0  0  0  0  0
   58.7008   25.1060   46.9744 N   0  0  0  0  0  0  0  0  0  0  0  0
   59.2603   26.1347   46.2866 C   0  0  0  0  0  0  0  0  0  0  0  0
   60.5147   26.2149   46.2109 O   0  0  0  0  0  0  0  0  0  0  0  0
   60.0841   32.1502   47.6358 C   0  0  0  0  0  0  0  0  0  0  0  0
   61.1360   33.0249   47.3180 C   0  0  0  0  0  0  0  0  0  0  0  0
   61.6331   33.9082   48.2838 C   0  0  0  0  0  0  0  0  0  0  0  0
   61.0885   33.9133   49.5702 C   0  0  0  0  0  0  0  0  0  0  0  0
   60.0590   33.0125   49.9086 C   0  0  0  0  0  0  0  0  0  0  0  0
   59.5502   32.1433   48.9311 C   0  0  0  0  0  0  0  0  0  0  0  0
   59.5467   32.9645   51.2942 C   0  0  0  0  0  0  0  0  0  0  0  0
   58.8801   33.9445   51.7294 O   0  0  0  0  0  0  0  0  0  0  0  0
   59.9385   31.8943   52.1889 N   0  0  0  0  0  0  0  0  0  0  0  0
   58.8781   30.8494   52.2297 C   0  0  0  0  0  0  0  0  0  0  0  0
   59.2885   29.5687   51.4891 C   0  0  0  0  0  0  0  0  0  0  0  0
   60.5088   28.9868   52.0954 N   0  0  0  0  0  0  0  0  0  0  0  0
   61.0863   27.9590   51.2132 C   0  0  0  0  0  0  0  0  0  0  0  0
   61.5226   30.0011   52.4910 C   0  0  0  0  0  0  0  0  0  0  0  0
   61.2785   31.3685   51.8307 C   0  0  0  0  0  0  0  0  0  0  0  0
   59.4571   32.7485   52.2769 H   0  0  0  0  0  0  0  0  0  0  0  0
  1  2  2  0
  2  3  1  0
  3  4  2  0
  4  9  1  0
  9 10  2  0
 10 11  1  0
 10 12  1  0
 12 13  1  0
 13 14  2  0
 13 15  1  0
 15 16  1  0
 16 17  2  0
  3  5  1  0
  5  6  2  0
  6  7  1  0
  6  8  1  0
  8 18  1  0
 18 19  2  0
 19 20  1  0
 20 21  2  0
 21 22  1  0
 22 24  1  0
 24 25  2  0
 24 26  1  0
 26 27  1  0
 27 28  1  0
 28 29  1  0
 29 30  1  0
 29 31  1  0
 31 32  1  0
 22 23  2  0
  8  2  1  0
 23 18  1  0
 16  9  1  0
 32 26  1  0
 26 33  1  0
M  CHG 1  11  -1
M  CHG 1  12  -1
M  CHG 1  15  -1
M  CHG 1  26   1
M  END
> <UniqueID>
7

> <SMILES>
C=c1/c(=C/c2c([O-])[n-]c(=O)[n-]c2=O)cc(C)n1-c1cccc(C(=O)[NH+]2CCN(C)CC2)c1

> <Energy>
122.75773461118972

> <Genealogy>
C=c1c(=Cc2c([O-])[n-]c(=O)[n-]c2=O)cc(C)n1-c1cccc(C(=O)[NH+]2CCN(C)CC2)c1 (protonated)
C=c1/c(=C/c2c([O-])[n-]c(=O)[n-]c2=O)cc(C)n1-c1cccc(C(=O)[NH+]2CCN(C)CC2)c1 (cis-trans isomerization)
C=c1/c(=C/c2c([O-])[n-]c(=O)[n-]c2=O)cc(C)n1-c1cccc(C(=O)[NH+]2CCN(C)CC2)c1 (3D coordinates assigned)
C=c1/c(=C/c2c([O-])[n-]c(=O)[n-]c2=O)cc(C)n1-c1cccc(C(=O)[NH+]2CCN(C)CC2)c1 (nonaromatic ring conformer: 122.75773461118972 kcal/mol)

> <smiles>
C=c1c(=Cc2c(O)[nH]c(=O)[nH]c2=O)cc(C)n1-c1cccc(C(=O)N2CCN(C)CC2)c1

> <score_type>
oracle

> <origin>
adg

> <m_score__min__energy>
-15.51

> <m_primary>
energy

> <minimizedAffinity>
-7.34847

> <minimizedRMSD>
1.50379

> <CNNscore>
0.2960765958

> <CNNaffinity>
6.9645867348

> <CNN_VS>
2.0620510578

> <CNNaffinity_variance>
0.2324417830

$$$$
16:0


 26 28  0  0  0  0  0  0  0  0999 V2000
   58.8653   33.0678   51.7799 C   0  0  0  0  0  0  0  0  0  0  0  0
   57.7572   32.6880   52.4683 N   0  0  0  0  0  0  0  0  0  0  0  0
   57.1591   31.4793   52.2636 C   0  0  0  0  0  0  0  0  0  0  0  0
   56.0990   31.1258   52.9325 N   0  0  0  0  0  0  0  0  0  0  0  0
   57.6954   30.5974   51.3172 C   0  0  0  0  0  0  0  0  0  0  0  0
   58.8346   30.9671   50.5895 C   0  0  0  0  0  0  0  0  0  0  0  0
   59.4253   32.2156   50.8289 C   0  0  0  0  0  0  0  0  0  0  0  0
   55.2130   30.0352   52.6315 C   0  0  0  0  0  0  0  0  0  0  0  0
   55.4012   28.8839   53.1124 O   0  0  0  0  0  0  0  0  0  0  0  0
   54.0155   30.2842   51.7715 C   0  0  0  0  0  0  0  0  0  0  0  0
   52.8436   30.6581   52.6226 C   0  0  0  0  0  0  0  0  0  0  0  0
   52.7418   30.3774   53.9333 N   0  0  0  0  0  0  0  0  0  0  0  0
   51.5136   30.8365   54.2548 C   0  0  0  0  0  0  0  0  0  0  0  0
   51.0434   30.7591   55.4208 O   0  0  0  0  0  0  0  0  0  0  0  0
   50.8244   31.3792   53.2289 N   0  0  0  0  0  0  0  0  0  0  0  0
   51.6797   31.2540   52.2016 C   0  0  0  0  0  0  0  0  0  0  0  0
   51.3984   31.6663   50.9057 O   0  0  0  0  0  0  0  0  0  0  0  0
   59.4275   30.0184   49.5822 C   0  0  0  0  0  0  0  0  0  0  0  0
   59.9602   30.7304   48.4811 O   0  0  0  0  0  0  0  0  0  0  0  0
   59.1417   30.5830   47.3351 C   0  0  0  0  0  0  0  0  0  0  0  0
   59.0851   31.8704   46.5558 C   0  0  0  0  0  0  0  0  0  0  0  0
   59.8554   32.9778   46.9468 C   0  0  0  0  0  0  0  0  0  0  0  0
   59.7834   34.1748   46.2285 C   0  0  0  0  0  0  0  0  0  0  0  0
   58.9401   34.2750   45.1173 C   0  0  0  0  0  0  0  0  0  0  0  0
   58.1680   33.1786   44.7255 C   0  0  0  0  0  0  0  0  0  0  0  0
   58.2358   31.9804   45.4421 C   0  0  0  0  0  0  0  0  0  0  0  0
  1  2  1  0
  2  3  1  0
  3  4  2  0
  4  8  1  0
  8  9  2  0
  8 10  1  0
 10 11  1  0
 11 12  1  0
 12 13  1  0
 13 14  2  0
 13 15  1  0
 15 16  1  0
 16 17  1  0
  3  5  1  0
  5  6  2  0
  6 18  1  0
 18 19  1  0
 19 20  1  0
 20 21  1  0
 21 22  2  0
 22 23  1  0
 23 24  2  0
 24 25  1  0
 25 26  2  0
  6  7  1  0
  7  1  2  0
 16 11  2  0
 26 21  1  0
M  CHG 1   2  -1
M  CHG 1  12  -1
M  CHG 1  15  -1
M  CHG 1  17  -1
M  END
> <UniqueID>
17

> <SMILES>
O=C(Cc1[n-]c(=O)[n-]c1[O-])/N=c1/cc(COCc2ccccc2)cc[n-]1

> <Energy>
74.90807908239697

> <Genealogy>
O=C(Cc1[n-]c(=O)[n-]c1[O-])N=c1cc(COCc2ccccc2)cc[n-]1 (protonated)
O=C(Cc1[n-]c(=O)[n-]c1[O-])/N=c1/cc(COCc2ccccc2)cc[n-]1 (cis-trans isomerization)
O=C(Cc1[n-]c(=O)[n-]c1[O-])/N=c1/cc(COCc2ccccc2)cc[n-]1 (3D coordinates assigned)
O=C(Cc1[n-]c(=O)[n-]c1[O-])/N=c1/cc(COCc2ccccc2)cc[n-]1 (optimized conformer: 74.90807908239697 kcal/mol)

> <smiles>
O=C(Cc1[nH]c(=O)[nH]c1O)N=c1cc(COCc2ccccc2)cc[nH]1

> <score_type>
oracle

> <origin>
adg

> <m_score__min__energy>
-18.550000000000001

> <m_primary>
energy

> <minimizedAffinity>
-6.80033

> <minimizedRMSD>
1.16364

> <CNNscore>
0.4102247953

> <CNNaffinity>
5.5967803001

> <CNN_VS>
2.2959380150

> <CNNaffinity_variance>
0.0495321453

$$$$
18:0


 27 29  0  0  0  0  0  0  0  0999 V2000
   59.9043   29.3878   49.8836 C   0  0  0  0  0  0  0  0  0  0  0  0
   59.7555   29.3261   51.2799 C   0  0  0  0  0  0  0  0  0  0  0  0
   59.0975   30.3480   51.9651 C   0  0  0  0  0  0  0  0  0  0  0  0
   58.5737   31.4339   51.2641 C   0  0  0  0  0  0  0  0  0  0  0  0
   58.7010   31.5027   49.8748 C   0  0  0  0  0  0  0  0  0  0  0  0
   59.3636   30.4777   49.1710 C   0  0  0  0  0  0  0  0  0  0  0  0
   60.5528   28.2466   49.1441 C   0  0  0  0  0  0  0  0  0  0  0  0
   61.2725   26.4685   47.0376 O   0  0  0  0  0  0  0  0  0  0  0  0
   60.0630   26.8114   47.1162 C   0  0  0  0  0  0  0  0  0  0  0  0
   59.6264   27.6941   48.1557 N   0  0  0  0  0  0  0  0  0  0  0  0
   58.6737   27.9367   48.2068 H   0  0  0  0  0  0  0  0  0  0  0  0
   59.0714   26.2520   46.1420 C   0  0  0  0  0  0  0  0  0  0  0  0
   58.1986   27.3477   45.6166 C   0  0  0  0  0  0  0  0  0  0  0  0
   58.6608   28.4373   44.9777 N   0  0  0  0  0  0  0  0  0  0  0  0
   57.5337   29.0993   44.6374 C   0  0  0  0  0  0  0  0  0  0  0  0
   57.5499   30.1926   44.0151 O   0  0  0  0  0  0  0  0  0  0  0  0
   56.3870   28.4921   45.0089 N   0  0  0  0  0  0  0  0  0  0  0  0
   56.8258   27.3805   45.6223 C   0  0  0  0  0  0  0  0  0  0  0  0
   55.9889   26.4160   46.1710 O   0  0  0  0  0  0  0  0  0  0  0  0
   59.5017   30.5041   47.7719 O   0  0  0  0  0  0  0  0  0  0  0  0
   60.4515   31.2874   47.0528 C   0  0  0  0  0  0  0  0  0  0  0  0
   59.7948   32.5201   46.4975 C   0  0  0  0  0  0  0  0  0  0  0  0
   58.5297   32.4278   45.8940 C   0  0  0  0  0  0  0  0  0  0  0  0
   57.9039   33.5718   45.3895 C   0  0  0  0  0  0  0  0  0  0  0  0
   58.5355   34.8133   45.4853 C   0  0  0  0  0  0  0  0  0  0  0  0
   59.7947   34.9138   46.0843 C   0  0  0  0  0  0  0  0  0  0  0  0
   60.4256   33.7715   46.5863 C   0  0  0  0  0  0  0  0  0  0  0  0
  8  9  2  0
  9 12  1  0
 12 13  1  0
 13 14  1  0
 14 15  1  0
 15 16  2  0
 15 17  1  0
 17 18  1  0
 18 19  1  0
  9 10  1  0
 10  7  1  0
  7  1  1  0
  1  2  2  0
  2  3  1  0
  3  4  2  0
  4  5  1  0
  5  6  2  0
  6 20  1  0
 20 21  1  0
 21 22  1  0
 22 23  2  0
 23 24  1  0
 24 25  2  0
 25 26  1  0
 26 27  2  0
 18 13  2  0
  6  1  1  0
 27 22  1  0
 10 11  1  0
M  CHG 1  14  -1
M  CHG 1  17  -1
M  CHG 1  19  -1
M  END
> <UniqueID>
19

> <SMILES>
O=C(Cc1[n-]c(=O)[n-]c1[O-])NCc1ccccc1OCc1ccccc1

> <Energy>
68.05460852043637

> <Genealogy>
O=C(Cc1[n-]c(=O)[n-]c1[O-])NCc1ccccc1OCc1ccccc1 (protonated)
O=C(Cc1[n-]c(=O)[n-]c1[O-])NCc1ccccc1OCc1ccccc1 (3D coordinates assigned)
O=C(Cc1[n-]c(=O)[n-]c1[O-])NCc1ccccc1OCc1ccccc1 (optimized conformer: 68.05460852043637 kcal/mol)

> <smiles>
O=C(Cc1[nH]c(=O)[nH]c1O)NCc1ccccc1OCc1ccccc1

> <score_type>
oracle

> <origin>
adg

> <m_score__min__energy>
-17.260000000000002

> <m_primary>
energy

> <minimizedAffinity>
-5.54918

> <minimizedRMSD>
0.99347

> <CNNscore>
0.5633541942

> <CNNaffinity>
6.3576564789

> <CNN_VS>
3.5816123486

> <CNNaffinity_variance>
0.0916950703

$$$$
23:0


 29 31  0  0  0  0  0  0  0  0999 V2000
   57.2048   30.5962   43.9947 C   0  0  0  0  0  0  0  0  0  0  0  0
   56.4443   30.1394   43.1033 O   0  0  0  0  0  0  0  0  0  0  0  0
   57.2721   29.8995   45.2485 N   0  0  0  0  0  0  0  0  0  0  0  0
   58.4614   29.5917   46.0312 C   0  0  0  0  0  0  0  0  0  0  0  0
   57.5840   25.8847   46.1592 C   0  0  0  0  0  0  0  0  0  0  0  0
   58.8539   25.3105   46.3067 C   0  0  0  0  0  0  0  0  0  0  0  0
   59.9903   26.1219   46.3595 C   0  0  0  0  0  0  0  0  0  0  0  0
   59.8646   27.5114   46.2766 C   0  0  0  0  0  0  0  0  0  0  0  0
   58.5961   28.1010   46.1527 C   0  0  0  0  0  0  0  0  0  0  0  0
   57.4579   27.2797   46.0837 C   0  0  0  0  0  0  0  0  0  0  0  0
   54.7530   25.8496   45.8440 N   0  0  0  0  0  0  0  0  0  0  0  0
   56.1500   24.8652   46.0951 S   0  0  0  0  0  0  0  0  0  0  0  0
   56.0016   24.1090   47.3858 O   0  0  0  0  0  0  0  0  0  0  0  0
   56.2791   23.8767   44.9698 O   0  0  0  0  0  0  0  0  0  0  0  0
   53.9227   25.2584   45.8070 H   0  0  0  0  0  0  0  0  0  0  0  0
   57.9543   31.7854   43.7002 N   0  0  0  0  0  0  0  0  0  0  0  0
   57.6957   33.1392   44.1709 C   0  0  0  0  0  0  0  0  0  0  0  0
   58.4105   33.3520   45.4730 C   0  0  0  0  0  0  0  0  0  0  0  0
   59.6576   33.9963   45.4997 C   0  0  0  0  0  0  0  0  0  0  0  0
   60.3068   34.2277   46.7156 C   0  0  0  0  0  0  0  0  0  0  0  0
   59.7183   33.8165   47.9222 C   0  0  0  0  0  0  0  0  0  0  0  0
   58.4584   33.2018   47.8986 C   0  0  0  0  0  0  0  0  0  0  0  0
   57.8073   32.9706   46.6821 C   0  0  0  0  0  0  0  0  0  0  0  0
   60.3958   34.1062   49.2319 C   0  0  0  0  0  0  0  0  0  0  0  0
   61.6869   33.4294   49.2824 N   0  0  0  0  0  0  0  0  0  0  0  0
   61.8890   32.1034   49.1787 C   0  0  0  0  0  0  0  0  0  0  0  0
   63.2477   31.8709   49.2017 C   0  0  0  0  0  0  0  0  0  0  0  0
   63.8170   33.1255   49.3138 C   0  0  0  0  0  0  0  0  0  0  0  0
   62.8481   34.0599   49.3538 N   0  0  0  0  0  0  0  0  0  0  0  0
 11 12  1  0
 12 13  2  0
 12 14  2  0
 12  5  1  0
  5  6  2  0
  6  7  1  0
  7  8  2  0
  8  9  1  0
  9  4  1  0
  4  3  1  0
  3  1  1  0
  1  2  2  0
  1 16  1  0
 16 17  1  0
 17 18  1  0
 18 19  2  0
 19 20  1  0
 20 21  2  0
 21 24  1  0
 24 25  1  0
 25 26  1  0
 26 27  2  0
 27 28  1  0
 28 29  2  0
 21 22  1  0
 22 23  2  0
  9 10  2  0
 10  5  1  0
 23 18  1  0
 29 25  1  0
 11 15  1  0
M  CHG 1   3  -1
M  CHG 1  11  -1
M  CHG 1  16  -1
M  END
> <UniqueID>
23

> <SMILES>
[NH-]S(=O)(=O)c1cccc(C[N-]C(=O)[N-]Cc2ccc(Cn3cccn3)cc2)c1

> <Energy>
75.24342138497131

> <Genealogy>
[NH-]S(=O)(=O)c1cccc(C[N-]C(=O)[N-]Cc2ccc(Cn3cccn3)cc2)c1 (protonated)
[NH-]S(=O)(=O)c1cccc(C[N-]C(=O)[N-]Cc2ccc(Cn3cccn3)cc2)c1 (3D coordinates assigned)
[NH-]S(=O)(=O)c1cccc(C[N-]C(=O)[N-]Cc2ccc(Cn3cccn3)cc2)c1 (optimized conformer: 75.24342138497131 kcal/mol)

> <smiles>
NS(=O)(=O)c1cccc(CNC(=O)NCc2ccc(Cn3cccn3)cc2)c1

> <score_type>
oracle

> <origin>
adg

> <m_score__min__energy>
-15.25

> <m_primary>
energy

> <minimizedAffinity>
-8.28440

> <minimizedRMSD>
0.78876

> <CNNscore>
0.8622102737

> <CNNaffinity>
7.3058872223

> <CNN_VS>
6.2992110252

> <CNNaffinity_variance>
0.0700891316

$$$$
24:0


 27 29  0  0  0  0  0  0  0  0999 V2000
   59.8569   30.6130   47.3610 C   0  0  0  0  0  0  0  0  0  0  0  0
   59.3932   31.6870   46.7020 C   0  0  0  0  0  0  0  0  0  0  0  0
   58.9757   31.7271   45.3632 C   0  0  0  0  0  0  0  0  0  0  0  0
   58.6996   30.7342   44.4940 C   0  0  0  0  0  0  0  0  0  0  0  0
   58.8673   33.0643   45.0303 C   0  0  0  0  0  0  0  0  0  0  0  0
   59.1468   33.7840   46.1724 C   0  0  0  0  0  0  0  0  0  0  0  0
   59.1932   35.2832   46.2288 C   0  0  0  0  0  0  0  0  0  0  0  0
   59.4192   32.9515   47.2074 N   0  0  0  0  0  0  0  0  0  0  0  0
   58.3264   29.3530   44.8621 C   0  0  0  0  0  0  0  0  0  0  0  0
   56.9848   29.0260   45.1025 C   0  0  0  0  0  0  0  0  0  0  0  0
   55.9886   29.9854   44.9499 O   0  0  0  0  0  0  0  0  0  0  0  0
   56.6471   27.7625   45.4761 N   0  0  0  0  0  0  0  0  0  0  0  0
   57.6002   26.8055   45.6394 C   0  0  0  0  0  0  0  0  0  0  0  0
   57.2719   25.6379   45.9816 O   0  0  0  0  0  0  0  0  0  0  0  0
   58.9084   27.1067   45.4404 N   0  0  0  0  0  0  0  0  0  0  0  0
   59.2940   28.3523   45.0684 C   0  0  0  0  0  0  0  0  0  0  0  0
   60.5204   28.5997   44.9179 O   0  0  0  0  0  0  0  0  0  0  0  0
   55.7011   27.5377   45.6304 H   0  0  0  0  0  0  0  0  0  0  0  0
   59.7660   33.3739   48.5781 C   0  0  0  0  0  0  0  0  0  0  0  0
   61.2643   33.3215   48.8395 C   0  0  0  0  0  0  0  0  0  0  0  0
   62.1266   33.4417   47.7362 C   0  0  0  0  0  0  0  0  0  0  0  0
   63.5064   33.3537   47.8947 C   0  0  0  0  0  0  0  0  0  0  0  0
   64.0527   33.1365   49.1562 C   0  0  0  0  0  0  0  0  0  0  0  0
   63.2264   33.0293   50.2844 C   0  0  0  0  0  0  0  0  0  0  0  0
   63.8721   32.7841   51.6251 C   0  0  0  0  0  0  0  0  0  0  0  0
   61.8202   33.1814   50.1442 C   0  0  0  0  0  0  0  0  0  0  0  0
   60.9259   33.1417   51.3630 C   0  0  0  0  0  0  0  0  0  0  0  0
  1  2  2  0
  2  3  1  0
  3  4  2  0
  4  9  1  0
  9 10  2  0
 10 11  1  0
 10 12  1  0
 12 13  1  0
 13 14  2  0
 13 15  1  0
 15 16  1  0
 16 17  2  0
  3  5  1  0
  5  6  2  0
  6  7  1  0
  6  8  1  0
  8 19  1  0
 19 20  1  0
 20 21  2  0
 21 22  1  0
 22 23  2  0
 23 24  1  0
 24 25  1  0
 24 26  2  0
 26 27  1  0
  8  2  1  0
 26 20  1  0
 16  9  1  0
 12 18  1  0
M  CHG 1  11  -1
M  CHG 1  15  -1
M  END
> <UniqueID>
24

> <SMILES>
C=c1/c(=C\c2c([O-])[nH]c(=O)[n-]c2=O)cc(C)n1Cc1cccc(C)c1C

> <Energy>
93.44920399709157

> <Genealogy>
C=c1c(=Cc2c([O-])[nH]c(=O)[n-]c2=O)cc(C)n1Cc1cccc(C)c1C (protonated)
C=c1/c(=C\c2c([O-])[nH]c(=O)[n-]c2=O)cc(C)n1Cc1cccc(C)c1C (cis-trans isomerization)
C=c1/c(=C\c2c([O-])[nH]c(=O)[n-]c2=O)cc(C)n1Cc1cccc(C)c1C (3D coordinates assigned)
C=c1/c(=C\c2c([O-])[nH]c(=O)[n-]c2=O)cc(C)n1Cc1cccc(C)c1C (optimized conformer: 93.44920399709157 kcal/mol)

> <smiles>
C=c1c(=Cc2c(O)[nH]c(=O)[nH]c2=O)cc(C)n1Cc1cccc(C)c1C

> <score_type>
oracle

> <origin>
adg

> <m_score__min__energy>
-14.43

> <m_primary>
energy

> <minimizedAffinity>
-8.60844

> <minimizedRMSD>
1.48126

> <CNNscore>
0.1850141883

> <CNNaffinity>
6.5389251709

> <CNN_VS>
1.2097939253

> <CNNaffinity_variance>
0.0339932479

$$$$
55:0


 33 36  0  0  0  0  0  0  0  0999 V2000
   58.3472   26.9855   45.3426 C   0  0  0  0  0  0  0  0  0  0  0  0
   58.5355   28.1197   46.0437 C   0  0  0  0  0  0  0  0  0  0  0  0
   58.6367   28.2241   47.4260 C   0  0  0  0  0  0  0  0  0  0  0  0
   58.7907   29.5659   47.7106 C   0  0  0  0  0  0  0  0  0  0  0  0
   58.8927   30.1306   49.0945 C   0  0  0  0  0  0  0  0  0  0  0  0
   58.7649   30.2949   46.5728 N   0  0  0  0  0  0  0  0  0  0  0  0
   58.6170   29.4233   45.5448 C   0  0  0  0  0  0  0  0  0  0  0  0
   58.5463   29.7917   44.2566 C   0  0  0  0  0  0  0  0  0  0  0  0
   55.5671   26.7989   45.9336 O   0  0  0  0  0  0  0  0  0  0  0  0
   56.3815   25.6963   46.1837 C   0  0  0  0  0  0  0  0  0  0  0  0
   55.8378   24.5597   46.6942 N   0  0  0  0  0  0  0  0  0  0  0  0
   56.6032   23.4678   46.9451 C   0  0  0  0  0  0  0  0  0  0  0  0
   56.0775   22.4271   47.4216 O   0  0  0  0  0  0  0  0  0  0  0  0
   57.9333   23.4918   46.6755 N   0  0  0  0  0  0  0  0  0  0  0  0
   58.5246   24.6028   46.1643 C   0  0  0  0  0  0  0  0  0  0  0  0
   59.7548   24.5751   45.8939 O   0  0  0  0  0  0  0  0  0  0  0  0
   57.7579   25.7573   45.9221 C   0  0  0  0  0  0  0  0  0  0  0  0
   54.6482   26.7523   46.1104 H   0  0  0  0  0  0  0  0  0  0  0  0
   58.8917   31.7255   46.4825 C   0  0  0  0  0  0  0  0  0  0  0  0
   57.8397   32.4715   45.9314 C   0  0  0  0  0  0  0  0  0  0  0  0
   57.9436   33.8579   45.8061 C   0  0  0  0  0  0  0  0  0  0  0  0
   59.0987   34.5112   46.2373 C   0  0  0  0  0  0  0  0  0  0  0  0
   60.1531   33.7822   46.7913 C   0  0  0  0  0  0  0  0  0  0  0  0
   60.0668   32.3841   46.9137 C   0  0  0  0  0  0  0  0  0  0  0  0
   61.1837   31.6360   47.5345 C   0  0  0  0  0  0  0  0  0  0  0  0
   61.7092   30.6852   46.8936 O   0  0  0  0  0  0  0  0  0  0  0  0
   61.6769   31.9621   48.8494 N   0  0  0  0  0  0  0  0  0  0  0  0
   61.5112   33.3080   49.4156 C   0  0  0  0  0  0  0  0  0  0  0  0
   62.7620   33.6838   50.2132 C   0  0  0  0  0  0  0  0  0  0  0  0
   63.0338   32.7296   51.3160 N   0  0  0  0  0  0  0  0  0  0  0  0
   64.4587   32.7525   51.6785 C   0  0  0  0  0  0  0  0  0  0  0  0
   62.5597   31.3437   51.0715 C   0  0  0  0  0  0  0  0  0  0  0  0
   62.4900   30.9823   49.5807 C   0  0  0  0  0  0  0  0  0  0  0  0
  9 10  1  0
 10 11  1  0
 11 12  1  0
 12 13  2  0
 12 14  1  0
 14 15  1  0
 15 16  2  0
 15 17  1  0
 17  1  1  0
  1  2  2  0
  2  3  1  0
  3  4  2  0
  4  5  1  0
  4  6  1  0
  6 19  1  0
 19 20  2  0
 20 21  1  0
 21 22  2  0
 22 23  1  0
 23 24  2  0
 24 25  1  0
 25 26  2  0
 25 27  1  0
 27 28  1  0
 28 29  1  0
 29 30  1  0
 30 31  1  0
 30 32  1  0
 32 33  1  0
  6  7  1  0
  7  8  2  0
 17 10  2  0
  7  2  1  0
 24 19  1  0
 33 27  1  0
  9 18  1  0
M  CHG 1  11  -1
M  CHG 1  14  -1
M  END
> <UniqueID>
54

> <SMILES>
C=c1/c(=C/c2c(O)[n-]c(=O)[n-]c2=O)cc(C)n1-c1ccccc1C(=O)N1CCN(C)CC1

> <Energy>
112.98354954280859

> <Genealogy>
C=c1c(=Cc2c(O)[n-]c(=O)[n-]c2=O)cc(C)n1-c1ccccc1C(=O)N1CCN(C)CC1 (protonated)
C=c1/c(=C/c2c(O)[n-]c(=O)[n-]c2=O)cc(C)n1-c1ccccc1C(=O)N1CCN(C)CC1 (cis-trans isomerization)
C=c1/c(=C/c2c(O)[n-]c(=O)[n-]c2=O)cc(C)n1-c1ccccc1C(=O)N1CCN(C)CC1 (3D coordinates assigned)
C=c1/c(=C/c2c(O)[n-]c(=O)[n-]c2=O)cc(C)n1-c1ccccc1C(=O)N1CCN(C)CC1 (nonaromatic ring conformer: 112.98354954280859 kcal/mol)

> <smiles>
C=c1c(=Cc2c(O)[nH]c(=O)[nH]c2=O)cc(C)n1-c1ccccc1C(=O)N1CCN(C)CC1

> <score_type>
oracle

> <origin>
adg

> <m_score__min__energy>
-14.460000000000001

> <m_primary>
energy

> <minimizedAffinity>
-9.03910

> <minimizedRMSD>
0.71527

> <CNNscore>
0.4226050973

> <CNNaffinity>
6.8157920837

> <CNN_VS>
2.8803884983

> <CNNaffinity_variance>
0.0055641434

$$$$
71:0


 25 27  0  0  0  0  0  0  0  0999 V2000
   56.3589   23.3107   47.0930 S   0  0  0  0  0  0  0  0  0  0  0  0
   57.2183   22.5794   48.0848 O   0  0  0  0  0  0  0  0  0  0  0  0
   55.0668   23.6848   47.7644 O   0  0  0  0  0  0  0  0  0  0  0  0
   56.0058   22.2774   45.7326 N   0  0  0  0  0  0  0  0  0  0  0  0
   56.1826   22.7747   44.3633 C   0  0  0  0  0  0  0  0  0  0  0  0
   56.9645   21.7461   43.5437 C   0  0  0  0  0  0  0  0  0  0  0  0
   56.3429   20.4640   43.6377 O   0  0  0  0  0  0  0  0  0  0  0  0
   55.7641   20.0121   44.8310 C   0  0  0  0  0  0  0  0  0  0  0  0
   55.3460   18.6817   44.9428 C   0  0  0  0  0  0  0  0  0  0  0  0
   54.7619   18.2304   46.1293 C   0  0  0  0  0  0  0  0  0  0  0  0
   54.5868   19.1086   47.2017 C   0  0  0  0  0  0  0  0  0  0  0  0
   54.9959   20.4418   47.0932 C   0  0  0  0  0  0  0  0  0  0  0  0
   55.5934   20.9040   45.9062 C   0  0  0  0  0  0  0  0  0  0  0  0
   57.1714   27.0704   45.7551 C   0  0  0  0  0  0  0  0  0  0  0  0
   58.5704   27.0554   45.7015 C   0  0  0  0  0  0  0  0  0  0  0  0
   59.2846   25.9247   46.0992 C   0  0  0  0  0  0  0  0  0  0  0  0
   58.6083   24.7874   46.5391 C   0  0  0  0  0  0  0  0  0  0  0  0
   57.2069   24.7656   46.5637 C   0  0  0  0  0  0  0  0  0  0  0  0
   56.4838   25.9053   46.1607 C   0  0  0  0  0  0  0  0  0  0  0  0
   55.0954   25.8554   46.1401 O   0  0  0  0  0  0  0  0  0  0  0  0
   56.5006   28.2720   45.3498 N   0  0  0  0  0  0  0  0  0  0  0  0
   58.9376   29.7750   44.9793 C   0  0  0  0  0  0  0  0  0  0  0  0
   57.2175   29.6292   44.5401 S   0  0  0  0  0  0  0  0  0  0  0  0
   56.4765   30.8909   44.8801 O   0  0  0  0  0  0  0  0  0  0  0  0
   57.1328   29.4003   43.0576 O   0  0  0  0  0  0  0  0  0  0  0  0
 22 23  1  0
 23 24  2  0
 23 25  2  0
 23 21  1  0
 21 14  1  0
 14 15  2  0
 15 16  1  0
 16 17  2  0
 17 18  1  0
 18  1  1  0
  1  2  2  0
  1  3  2  0
  1  4  1  0
  4  5  1  0
  5  6  1  0
  6  7  1  0
  7  8  1  0
  8  9  2  0
  9 10  1  0
 10 11  2  0
 11 12  1  0
 12 13  2  0
 18 19  2  0
 19 20  1  0
 19 14  1  0
 13  4  1  0
 13  8  1  0
M  CHG 1  20  -1
M  CHG 1  21  -1
M  END
> <UniqueID>
70

> <SMILES>
CS(=O)(=O)[N-]c1cccc(S(=O)(=O)N2CCOc3ccccc32)c1[O-]

> <Energy>
48.74550321084339

> <Genealogy>
CS(=O)(=O)[N-]c1cccc(S(=O)(=O)N2CCOc3ccccc32)c1[O-] (protonated)
CS(=O)(=O)[N-]c1cccc(S(=O)(=O)N2CCOc3ccccc32)c1[O-] (3D coordinates assigned)
CS(=O)(=O)[N-]c1cccc(S(=O)(=O)N2CCOc3ccccc32)c1[O-] (nonaromatic ring conformer: 48.74550321084339 kcal/mol)

> <smiles>
CS(=O)(=O)Nc1cccc(S(=O)(=O)N2CCOc3ccccc32)c1O

> <score_type>
oracle

> <origin>
adg

> <m_score__min__energy>
-14.619999999999999

> <m_primary>
energy

> <minimizedAffinity>
-5.44997

> <minimizedRMSD>
1.31564

> <CNNscore>
0.2901749313

> <CNNaffinity>
5.0000901222

> <CNN_VS>
1.4509007931

> <CNNaffinity_variance>
0.1487893909

$$$$
79:0


 32 34  0  0  0  0  0  0  0  0999 V2000
   58.3431   31.7544   44.9628 C   0  0  0  0  0  0  0  0  0  0  0  0
   57.9904   33.0501   44.5585 C   0  0  0  0  0  0  0  0  0  0  0  0
   57.9661   34.0937   45.4847 C   0  0  0  0  0  0  0  0  0  0  0  0
   58.2809   33.8530   46.8254 C   0  0  0  0  0  0  0  0  0  0  0  0
   58.6266   32.5599   47.2536 C   0  0  0  0  0  0  0  0  0  0  0  0
   58.6588   31.5161   46.3109 C   0  0  0  0  0  0  0  0  0  0  0  0
   58.9258   32.2923   48.6816 C   0  0  0  0  0  0  0  0  0  0  0  0
   58.0564   32.5392   49.5612 O   0  0  0  0  0  0  0  0  0  0  0  0
   60.2069   31.7491   49.0487 N   0  0  0  0  0  0  0  0  0  0  0  0
   61.3806   32.2388   48.7675 C   0  0  0  0  0  0  0  0  0  0  0  0
   62.2907   31.5260   48.0435 N   0  0  0  0  0  0  0  0  0  0  0  0
   63.5133   32.0275   47.7254 C   0  0  0  0  0  0  0  0  0  0  0  0
   63.8691   33.3124   48.1379 C   0  0  0  0  0  0  0  0  0  0  0  0
   62.9592   34.0678   48.8768 C   0  0  0  0  0  0  0  0  0  0  0  0
   61.7045   33.5346   49.1987 C   0  0  0  0  0  0  0  0  0  0  0  0
   60.7854   34.2838   49.9320 O   0  0  0  0  0  0  0  0  0  0  0  0
   61.0071   35.1483   50.2173 H   0  0  0  0  0  0  0  0  0  0  0  0
   58.3219   30.6159   43.9762 C   0  0  0  0  0  0  0  0  0  0  0  0
   58.9796   27.3805   45.8702 N   0  0  0  0  0  0  0  0  0  0  0  0
   57.6942   26.9710   46.1264 C   0  0  0  0  0  0  0  0  0  0  0  0
   57.4713   25.9076   46.7664 O   0  0  0  0  0  0  0  0  0  0  0  0
   56.6414   27.7079   45.6951 N   0  0  0  0  0  0  0  0  0  0  0  0
   56.8132   28.8587   45.0022 C   0  0  0  0  0  0  0  0  0  0  0  0
   55.6956   29.5820   44.6037 O   0  0  0  0  0  0  0  0  0  0  0  0
   58.1053   29.3017   44.6944 C   0  0  0  0  0  0  0  0  0  0  0  0
   59.1922   28.5255   45.1411 C   0  0  0  0  0  0  0  0  0  0  0  0
   60.3675   28.8925   44.8616 O   0  0  0  0  0  0  0  0  0  0  0  0
   60.1199   26.6078   46.4125 C   0  0  0  0  0  0  0  0  0  0  0  0
   60.3186   26.8639   47.9179 C   0  0  0  0  0  0  0  0  0  0  0  0
   60.3179   28.3531   48.3169 C   0  0  0  0  0  0  0  0  0  0  0  0
   61.1943   28.7018   50.6930 C   0  0  0  0  0  0  0  0  0  0  0  0
   59.9653   28.6193   49.7898 C   0  0  0  0  0  0  0  0  0  0  0  0
 31 32  1  0
 32 30  1  0
 30 29  1  0
 29 28  1  0
 28 19  1  0
 19 20  1  0
 20 21  2  0
 20 22  1  0
 22 23  1  0
 23 24  1  0
 23 25  2  0
 25 18  1  0
 18  1  1  0
  1  2  2  0
  2  3  1  0
  3  4  2  0
  4  5  1  0
  5  7  1  0
  7  8  2  0
  7  9  1  0
  9 10  2  0
 10 11  1  0
 11 12  1  0
 12 13  2  0
 13 14  1  0
 14 15  2  0
 15 16  1  0
  5  6  2  0
 25 26  1  0
 26 27  2  0
 26 19  1  0
  6  1  1  0
 15 10  1  0
 16 17  1  0
M  CHG 1  11  -1
M  CHG 1  22  -1
M  CHG 1  24  -1
M  END
> <UniqueID>
78

> <SMILES>
CCCCCn1c(=O)[n-]c([O-])c(Cc2cccc(C(=O)N=c3[n-]cccc3O)c2)c1=O

> <Energy>
53.85118534803877

> <Genealogy>
CCCCCn1c(=O)[n-]c([O-])c(Cc2cccc(C(=O)N=c3[n-]cccc3O)c2)c1=O (protonated)
CCCCCn1c(=O)[n-]c([O-])c(Cc2cccc(C(=O)N=c3[n-]cccc3O)c2)c1=O (3D coordinates assigned)
CCCCCn1c(=O)[n-]c([O-])c(Cc2cccc(C(=O)N=c3[n-]cccc3O)c2)c1=O (optimized conformer: 53.85118534803877 kcal/mol)

> <smiles>
CCCCCn1c(=O)[nH]c(O)c(Cc2cccc(C(=O)N=c3[nH]cccc3O)c2)c1=O

> <score_type>
oracle

> <origin>
adg

> <m_score__min__energy>
-15.02

> <m_primary>
energy

> <minimizedAffinity>
-7.01420

> <minimizedRMSD>
0.72852

> <CNNscore>
0.2737570107

> <CNNaffinity>
6.6223297119

> <CNN_VS>
1.8129091263

> <CNNaffinity_variance>
0.2290812582

$$$$
7:0


 26 28  0  0  0  0  0  0  0  0999 V2000
   58.8788   33.0525   44.9175 C   0  0  0  0  0  0  0  0  0  0  0  0
   58.8794   32.3214   46.0422 C   0  0  0  0  0  0  0  0  0  0  0  0
   58.7665   30.9282   46.1198 C   0  0  0  0  0  0  0  0  0  0  0  0
   58.5804   30.0640   45.1036 C   0  0  0  0  0  0  0  0  0  0  0  0
   58.8472   30.6040   47.4664 C   0  0  0  0  0  0  0  0  0  0  0  0
   59.0149   31.7905   48.1490 C   0  0  0  0  0  0  0  0  0  0  0  0
   59.1411   31.9004   49.6391 C   0  0  0  0  0  0  0  0  0  0  0  0
   59.0166   32.8375   47.2919 N   0  0  0  0  0  0  0  0  0  0  0  0
   58.2963   28.6243   45.3013 C   0  0  0  0  0  0  0  0  0  0  0  0
   56.9816   28.1264   45.3128 C   0  0  0  0  0  0  0  0  0  0  0  0
   55.8991   28.9839   45.1385 O   0  0  0  0  0  0  0  0  0  0  0  0
   56.7559   26.8002   45.5142 N   0  0  0  0  0  0  0  0  0  0  0  0
   57.7905   25.9429   45.7324 C   0  0  0  0  0  0  0  0  0  0  0  0
   57.5088   24.3505   45.9797 S   0  0  0  0  0  0  0  0  0  0  0  0
   59.0653   26.4077   45.7558 N   0  0  0  0  0  0  0  0  0  0  0  0
   59.3400   27.7211   45.5533 C   0  0  0  0  0  0  0  0  0  0  0  0
   60.5366   28.1147   45.5841 O   0  0  0  0  0  0  0  0  0  0  0  0
   55.8335   26.4564   45.5019 H   0  0  0  0  0  0  0  0  0  0  0  0
   59.2060   34.2480   47.6599 C   0  0  0  0  0  0  0  0  0  0  0  0
   60.6110   34.7138   47.2689 C   0  0  0  0  0  0  0  0  0  0  0  0
   61.6560   33.8590   47.9313 C   0  0  0  0  0  0  0  0  0  0  0  0
   62.3760   32.9125   47.1826 C   0  0  0  0  0  0  0  0  0  0  0  0
   63.3715   32.1422   47.7923 C   0  0  0  0  0  0  0  0  0  0  0  0
   63.6626   32.3187   49.1482 C   0  0  0  0  0  0  0  0  0  0  0  0
   62.9604   33.2683   49.8958 C   0  0  0  0  0  0  0  0  0  0  0  0
   61.9642   34.0407   49.2901 C   0  0  0  0  0  0  0  0  0  0  0  0
  1  2  2  0
  2  3  1  0
  3  4  2  0
  4  9  1  0
  9 10  2  0
 10 11  1  0
 10 12  1  0
 12 13  1  0
 13 14  2  0
 13 15  1  0
 15 16  1  0
 16 17  2  0
  3  5  1  0
  5  6  2  0
  6  7  1  0
  6  8  1  0
  8 19  1  0
 19 20  1  0
 20 21  1  0
 21 22  2  0
 22 23  1  0
 23 24  2  0
 24 25  1  0
 25 26  2  0
  8  2  1  0
 26 21  1  0
 16  9  1  0
 12 18  1  0
M  CHG 1  11  -1
M  CHG 1  15  -1
M  END
> <UniqueID>
8

> <SMILES>
C=c1/c(=C/c2c([O-])[nH]c(=S)[n-]c2=O)cc(C)n1CCc1ccccc1

> <Energy>
79.06867813843297

> <Genealogy>
C=c1c(=Cc2c([O-])[nH]c(=S)[n-]c2=O)cc(C)n1CCc1ccccc1 (protonated)
C=c1/c(=C/c2c([O-])[nH]c(=S)[n-]c2=O)cc(C)n1CCc1ccccc1 (cis-trans isomerization)
C=c1/c(=C/c2c([O-])[nH]c(=S)[n-]c2=O)cc(C)n1CCc1ccccc1 (3D coordinates assigned)
C=c1/c(=C/c2c([O-])[nH]c(=S)[n-]c2=O)cc(C)n1CCc1ccccc1 (optimized conformer: 79.06867813843297 kcal/mol)

> <smiles>
C=c1c(=Cc2c(O)[nH]c(=S)[nH]c2=O)cc(C)n1CCc1ccccc1

> <score_type>
oracle

> <origin>
adg

> <m_score__min__energy>
-14.300000000000001

> <m_primary>
energy

> <minimizedAffinity>
-7.00038

> <minimizedRMSD>
0.84981

> <CNNscore>
0.1322393119

> <CNNaffinity>
6.2381205559

> <CNN_VS>
0.8249247670

> <CNNaffinity_variance>
0.0008394842

$$$$
20:0


 22 23  0  0  0  0  0  0  0  0999 V2000
   58.0387   27.2369   43.7483 O   0  0  0  0  0  0  0  0  0  0  0  0
   58.3479   27.7570   44.8536 C   0  0  0  0  0  0  0  0  0  0  0  0
   57.7634   27.2006   46.1294 C   0  0  0  0  0  0  0  0  0  0  0  0
   57.5352   25.7068   46.0396 C   0  0  0  0  0  0  0  0  0  0  0  0
   56.2328   25.1759   46.0282 C   0  0  0  0  0  0  0  0  0  0  0  0
   55.1237   26.0115   46.0769 O   0  0  0  0  0  0  0  0  0  0  0  0
   56.0471   23.8315   45.9729 N   0  0  0  0  0  0  0  0  0  0  0  0
   57.1010   22.9786   45.9346 C   0  0  0  0  0  0  0  0  0  0  0  0
   56.8455   21.3688   45.8688 S   0  0  0  0  0  0  0  0  0  0  0  0
   58.3683   23.4627   45.9577 N   0  0  0  0  0  0  0  0  0  0  0  0
   58.6100   24.7985   46.0116 C   0  0  0  0  0  0  0  0  0  0  0  0
   59.8005   25.2080   46.0354 O   0  0  0  0  0  0  0  0  0  0  0  0
   59.3865   28.7455   44.8763 N   0  0  0  0  0  0  0  0  0  0  0  0
   59.4768   29.8552   45.7793 C   0  0  0  0  0  0  0  0  0  0  0  0
   60.3797   29.8074   46.8549 C   0  0  0  0  0  0  0  0  0  0  0  0
   60.4352   30.8456   47.7844 C   0  0  0  0  0  0  0  0  0  0  0  0
   59.5717   31.9340   47.6660 C   0  0  0  0  0  0  0  0  0  0  0  0
   58.6476   31.9826   46.6193 C   0  0  0  0  0  0  0  0  0  0  0  0
   58.5821   30.9492   45.6675 C   0  0  0  0  0  0  0  0  0  0  0  0
   57.6157   31.0353   44.5981 N   0  0  0  0  0  0  0  0  0  0  0  0
   57.8955   31.5924   43.5181 O   0  0  0  0  0  0  0  0  0  0  0  0
   56.3338   30.5686   44.7846 O   0  0  0  0  0  0  0  0  0  0  0  0
  1  2  2  0
  2  3  1  0
  3  4  1  0
  4  5  2  0
  5  6  1  0
  5  7  1  0
  7  8  1  0
  8  9  2  0
  8 10  1  0
 10 11  1  0
 11 12  2  0
  2 13  1  0
 13 14  1  0
 14 15  2  0
 15 16  1  0
 16 17  2  0
 17 18  1  0
 18 19  2  0
 19 20  1  0
 20 21  2  0
 20 22  1  0
 11  4  1  0
 19 14  1  0
M  CHG 1   6  -1
M  CHG 1   7  -1
M  CHG 1  10  -1
M  CHG 1  13  -1
M  CHG 1  20   1
M  CHG 1  22  -1
M  END
> <UniqueID>
19

> <SMILES>
O=C(Cc1c([O-])[n-]c(=S)[n-]c1=O)[N-]c1ccccc1[N+](=O)[O-]

> <Energy>
40.57571170847445

> <Genealogy>
O=C(Cc1c([O-])[n-]c(=S)[n-]c1=O)[N-]c1ccccc1[N+](=O)[O-] (protonated)
O=C(Cc1c([O-])[n-]c(=S)[n-]c1=O)[N-]c1ccccc1[N+](=O)[O-] (3D coordinates assigned)
O=C(Cc1c([O-])[n-]c(=S)[n-]c1=O)[N-]c1ccccc1[N+](=O)[O-] (optimized conformer: 40.57571170847445 kcal/mol)

> <smiles>
O=C(Cc1c(O)[nH]c(=S)[nH]c1=O)Nc1ccccc1[N+](=O)[O-]

> <score_type>
oracle

> <origin>
adg

> <m_score__min__energy>
-15.65

> <m_primary>
energy

> <minimizedAffinity>
-7.11242

> <minimizedRMSD>
1.54067

> <CNNscore>
0.1975439638

> <CNNaffinity>
6.0000133514

> <CNN_VS>
1.1852663755

> <CNNaffinity_variance>
0.5433702469

$$$$
23:0


 24 26  0  0  0  0  0  0  0  0999 V2000
   61.0530   29.5787   46.8350 C   0  0  0  0  0  0  0  0  0  0  0  0
   60.0407   30.3258   46.3685 C   0  0  0  0  0  0  0  0  0  0  0  0
   59.0918   29.9357   45.4182 C   0  0  0  0  0  0  0  0  0  0  0  0
   58.9638   28.7278   44.8352 C   0  0  0  0  0  0  0  0  0  0  0  0
   58.2690   31.0363   45.2119 C   0  0  0  0  0  0  0  0  0  0  0  0
   58.7402   32.0405   46.0350 C   0  0  0  0  0  0  0  0  0  0  0  0
   58.1426   33.4121   46.1315 C   0  0  0  0  0  0  0  0  0  0  0  0
   59.8169   31.6140   46.7325 N   0  0  0  0  0  0  0  0  0  0  0  0
   58.4573   27.5306   45.5415 C   0  0  0  0  0  0  0  0  0  0  0  0
   57.0762   27.3393   45.6984 C   0  0  0  0  0  0  0  0  0  0  0  0
   56.1698   28.2495   45.1657 O   0  0  0  0  0  0  0  0  0  0  0  0
   56.6133   26.2521   46.3686 N   0  0  0  0  0  0  0  0  0  0  0  0
   57.4666   25.3431   46.9053 C   0  0  0  0  0  0  0  0  0  0  0  0
   57.0141   24.3407   47.5155 O   0  0  0  0  0  0  0  0  0  0  0  0
   58.8073   25.5184   46.7897 N   0  0  0  0  0  0  0  0  0  0  0  0
   59.3219   26.5899   46.1319 C   0  0  0  0  0  0  0  0  0  0  0  0
   60.5728   26.7374   46.0776 O   0  0  0  0  0  0  0  0  0  0  0  0
   60.5566   32.3896   47.6919 C   0  0  0  0  0  0  0  0  0  0  0  0
   61.7649   33.0042   47.3258 C   0  0  0  0  0  0  0  0  0  0  0  0
   62.4890   33.7483   48.2628 C   0  0  0  0  0  0  0  0  0  0  0  0
   62.0126   33.8810   49.5707 C   0  0  0  0  0  0  0  0  0  0  0  0
   62.7320   34.6208   50.5006 O   0  0  0  0  0  0  0  0  0  0  0  0
   60.8115   33.2682   49.9424 C   0  0  0  0  0  0  0  0  0  0  0  0
   60.0854   32.5245   49.0066 C   0  0  0  0  0  0  0  0  0  0  0  0
  1  2  2  0
  2  3  1  0
  3  4  2  0
  4  9  1  0
  9 10  2  0
 10 11  1  0
 10 12  1  0
 12 13  1  0
 13 14  2  0
 13 15  1  0
 15 16  1  0
 16 17  2  0
  3  5  1  0
  5  6  2  0
  6  7  1  0
  6  8  1  0
  8 18  1  0
 18 19  2  0
 19 20  1  0
 20 21  2  0
 21 22  1  0
 21 23  1  0
 23 24  2  0
  8  2  1  0
 24 18  1  0
 16  9  1  0
M  CHG 1  11  -1
M  CHG 1  12  -1
M  CHG 1  15  -1
M  CHG 1  22  -1
M  END
> <UniqueID>
22

> <SMILES>
C=c1/c(=C/c2c([O-])[n-]c(=O)[n-]c2=O)cc(C)n1-c1ccc([O-])cc1

> <Energy>
82.91769044607716

> <Genealogy>
C=c1c(=Cc2c([O-])[n-]c(=O)[n-]c2=O)cc(C)n1-c1ccc([O-])cc1 (protonated)
C=c1/c(=C/c2c([O-])[n-]c(=O)[n-]c2=O)cc(C)n1-c1ccc([O-])cc1 (cis-trans isomerization)
C=c1/c(=C/c2c([O-])[n-]c(=O)[n-]c2=O)cc(C)n1-c1ccc([O-])cc1 (3D coordinates assigned)
C=c1/c(=C/c2c([O-])[n-]c(=O)[n-]c2=O)cc(C)n1-c1ccc([O-])cc1 (optimized conformer: 82.91769044607716 kcal/mol)

> <smiles>
C=c1c(=Cc2c(O)[nH]c(=O)[nH]c2=O)cc(C)n1-c1ccc(O)cc1

> <score_type>
oracle

> <origin>
adg

> <m_score__min__energy>
-15.9

> <m_primary>
energy

> <minimizedAffinity>
-6.78283

> <minimizedRMSD>
1.20515

> <CNNscore>
0.4852929115

> <CNNaffinity>
6.7846550941

> <CNN_VS>
3.2925450802

> <CNNaffinity_variance>
0.4907789528

$$$$
35:0


 31 33  0  0  0  0  0  0  0  0999 V2000
   60.3643   28.9699   48.4316 C   0  0  0  0  0  0  0  0  0  0  0  0
   60.8212   28.8510   49.7542 C   0  0  0  0  0  0  0  0  0  0  0  0
   61.4561   29.9270   50.3803 C   0  0  0  0  0  0  0  0  0  0  0  0
   61.6522   31.1265   49.6922 C   0  0  0  0  0  0  0  0  0  0  0  0
   61.2211   31.2543   48.3620 C   0  0  0  0  0  0  0  0  0  0  0  0
   60.5598   30.1831   47.7468 C   0  0  0  0  0  0  0  0  0  0  0  0
   59.3853   26.0480   46.6484 C   0  0  0  0  0  0  0  0  0  0  0  0
   60.3512   26.8785   47.0780 N   0  0  0  0  0  0  0  0  0  0  0  0
   59.6884   27.8353   47.7642 C   0  0  0  0  0  0  0  0  0  0  0  0
   58.3486   27.6580   47.7760 N   0  0  0  0  0  0  0  0  0  0  0  0
   58.1509   26.5314   47.0672 C   0  0  0  0  0  0  0  0  0  0  0  0
   56.8075   25.9706   46.8234 C   0  0  0  0  0  0  0  0  0  0  0  0
   55.8837   26.6125   45.9470 N   0  0  0  0  0  0  0  0  0  0  0  0
   56.4715   24.9015   47.3936 O   0  0  0  0  0  0  0  0  0  0  0  0
   56.1349   27.4501   45.4947 H   0  0  0  0  0  0  0  0  0  0  0  0
   58.3888   24.2454   45.2372 C   0  0  0  0  0  0  0  0  0  0  0  0
   59.6763   24.8455   45.7965 C   0  0  0  0  0  0  0  0  0  0  0  0
   61.3853   32.4740   47.6252 N   0  0  0  0  0  0  0  0  0  0  0  0
   60.8094   33.7440   47.9485 C   0  0  0  0  0  0  0  0  0  0  0  0
   61.1521   34.3589   48.9957 O   0  0  0  0  0  0  0  0  0  0  0  0
   59.8470   34.3794   46.9947 C   0  0  0  0  0  0  0  0  0  0  0  0
   59.0835   33.3270   46.2365 C   0  0  0  0  0  0  0  0  0  0  0  0
   58.6322   32.1673   46.8878 C   0  0  0  0  0  0  0  0  0  0  0  0
   57.9377   31.1844   46.1754 C   0  0  0  0  0  0  0  0  0  0  0  0
   57.6964   31.3440   44.8014 C   0  0  0  0  0  0  0  0  0  0  0  0
   58.1609   32.4930   44.1484 C   0  0  0  0  0  0  0  0  0  0  0  0
   58.8543   33.4769   44.8589 C   0  0  0  0  0  0  0  0  0  0  0  0
   56.8214   30.1148   43.8931 S   0  0  0  0  0  0  0  0  0  0  0  0
   57.7299   28.5865   43.9264 C   0  0  0  0  0  0  0  0  0  0  0  0
   55.4658   29.9121   44.5081 O   0  0  0  0  0  0  0  0  0  0  0  0
   56.6491   30.5472   42.4631 O   0  0  0  0  0  0  0  0  0  0  0  0
 16 17  1  0
 17  7  1  0
  7  8  1  0
  8  9  1  0
  9  1  1  0
  1  2  2  0
  2  3  1  0
  3  4  2  0
  4  5  1  0
  5 18  1  0
 18 19  1  0
 19 20  2  0
 19 21  1  0
 21 22  1  0
 22 23  2  0
 23 24  1  0
 24 25  2  0
 25 28  1  0
 28 29  1  0
 28 30  2  0
 28 31  2  0
 25 26  1  0
 26 27  2  0
  5  6  2  0
  9 10  2  0
 10 11  1  0
 11 12  1  0
 12 13  1  0
 12 14  2  0
 11  7  2  0
  6  1  1  0
 27 22  1  0
 13 15  1  0
M  CHG 1   8  -1
M  CHG 1  13  -1
M  CHG 1  18  -1
M  END
> <UniqueID>
33

> <SMILES>
CCc1[n-]c(-c2cccc([N-]C(=O)Cc3ccc(S(C)(=O)=O)cc3)c2)nc1C([NH-])=O

> <Energy>
75.13875363135766

> <Genealogy>
CCc1[n-]c(-c2cccc([N-]C(=O)Cc3ccc(S(C)(=O)=O)cc3)c2)nc1C([NH-])=O (protonated)
CCc1[n-]c(-c2cccc([N-]C(=O)Cc3ccc(S(C)(=O)=O)cc3)c2)nc1C([NH-])=O (3D coordinates assigned)
CCc1[n-]c(-c2cccc([N-]C(=O)Cc3ccc(S(C)(=O)=O)cc3)c2)nc1C([NH-])=O (optimized conformer: 75.13875363135766 kcal/mol)

> <smiles>
CCc1[nH]c(-c2cccc(NC(=O)Cc3ccc(S(C)(=O)=O)cc3)c2)nc1C(N)=O

> <score_type>
oracle

> <origin>
adg

> <m_score__min__energy>
-14.73

> <m_primary>
energy

> <minimizedAffinity>
-7.52949

> <minimizedRMSD>
0.79649

> <CNNscore>
0.7982006073

> <CNNaffinity>
7.4209556580

> <CNN_VS>
5.9234113693

> <CNNaffinity_variance>
0.0475572161

$$$$
50:0


 29 32  0  0  0  0  0  0  0  0999 V2000
   60.3867   33.5079   48.6531 C   0  0  0  0  0  0  0  0  0  0  0  0
   61.7854   33.6431   48.6828 C   0  0  0  0  0  0  0  0  0  0  0  0
   62.4730   33.6251   49.8960 C   0  0  0  0  0  0  0  0  0  0  0  0
   61.7799   33.4722   51.0985 C   0  0  0  0  0  0  0  0  0  0  0  0
   60.3807   33.3389   51.0989 C   0  0  0  0  0  0  0  0  0  0  0  0
   59.6970   33.3465   49.8695 C   0  0  0  0  0  0  0  0  0  0  0  0
   59.7648   34.5020   46.3868 C   0  0  0  0  0  0  0  0  0  0  0  0
   58.7228   34.1233   45.1204 S   0  0  0  0  0  0  0  0  0  0  0  0
   58.1462   32.7302   45.8707 C   0  0  0  0  0  0  0  0  0  0  0  0
   57.2548   31.9060   45.4017 N   0  0  0  0  0  0  0  0  0  0  0  0
   58.7293   32.5411   47.0725 N   0  0  0  0  0  0  0  0  0  0  0  0
   59.6333   33.5171   47.3714 C   0  0  0  0  0  0  0  0  0  0  0  0
   57.4688   30.7829   44.5330 C   0  0  0  0  0  0  0  0  0  0  0  0
   57.1035   30.8080   43.3272 O   0  0  0  0  0  0  0  0  0  0  0  0
   58.1268   29.5814   45.0654 C   0  0  0  0  0  0  0  0  0  0  0  0
   57.4504   28.5338   45.5787 N   0  0  0  0  0  0  0  0  0  0  0  0
   58.4035   27.6568   45.9473 C   0  0  0  0  0  0  0  0  0  0  0  0
   58.1245   26.4285   46.5294 O   0  0  0  0  0  0  0  0  0  0  0  0
   59.6705   28.1272   45.6804 C   0  0  0  0  0  0  0  0  0  0  0  0
   59.4936   29.3671   45.1104 C   0  0  0  0  0  0  0  0  0  0  0  0
   59.6176   33.1634   52.3655 C   0  0  0  0  0  0  0  0  0  0  0  0
   59.2863   34.1920   53.0213 O   0  0  0  0  0  0  0  0  0  0  0  0
   59.2256   31.8518   52.8501 N   0  0  0  0  0  0  0  0  0  0  0  0
   59.6266   30.8169   51.8675 C   0  0  0  0  0  0  0  0  0  0  0  0
   58.7533   29.5581   52.0100 C   0  0  0  0  0  0  0  0  0  0  0  0
   57.3675   29.7902   51.7888 O   0  0  0  0  0  0  0  0  0  0  0  0
   56.9626   31.1272   52.0480 C   0  0  0  0  0  0  0  0  0  0  0  0
   57.7729   31.8066   53.1676 C   0  0  0  0  0  0  0  0  0  0  0  0
   59.0569   32.0284   51.8964 H   0  0  0  0  0  0  0  0  0  0  0  0
  7  8  1  0
  8  9  1  0
  9 10  2  0
 10 13  1  0
 13 14  2  0
 13 15  1  0
 15 16  1  0
 16 17  1  0
 17 18  1  0
 17 19  2  0
 19 20  1  0
  9 11  1  0
 11 12  1  0
 12  1  1  0
  1  2  2  0
  2  3  1  0
  3  4  2  0
  4  5  1  0
  5 21  1  0
 21 22  2  0
 21 23  1  0
 23 24  1  0
 24 25  1  0
 25 26  1  0
 26 27  1  0
 27 28  1  0
  5  6  2  0
 12  7  2  0
  6  1  1  0
 20 15  2  0
 28 23  1  0
 23 29  1  0
M  CHG 1  11  -1
M  CHG 1  16  -1
M  CHG 1  18  -1
M  CHG 1  23   1
M  END
> <UniqueID>
46

> <SMILES>
O=C(/N=c1/[n-]c(-c2cccc(C(=O)[NH+]3CCOCC3)c2)cs1)c1ccc([O-])[n-]1

> <Energy>
126.43848516889962

> <Genealogy>
O=C(N=c1[n-]c(-c2cccc(C(=O)[NH+]3CCOCC3)c2)cs1)c1ccc([O-])[n-]1 (protonated)
O=C(/N=c1/[n-]c(-c2cccc(C(=O)[NH+]3CCOCC3)c2)cs1)c1ccc([O-])[n-]1 (cis-trans isomerization)
O=C(/N=c1/[n-]c(-c2cccc(C(=O)[NH+]3CCOCC3)c2)cs1)c1ccc([O-])[n-]1 (3D coordinates assigned)
O=C(/N=c1/[n-]c(-c2cccc(C(=O)[NH+]3CCOCC3)c2)cs1)c1ccc([O-])[n-]1 (nonaromatic ring conformer: 126.43848516889962 kcal/mol)

> <smiles>
O=C(N=c1[nH]c(-c2cccc(C(=O)N3CCOCC3)c2)cs1)c1ccc(O)[nH]1

> <score_type>
oracle

> <origin>
adg

> <m_score__min__energy>
-15.06

> <m_primary>
energy

> <minimizedAffinity>
-7.97891

> <minimizedRMSD>
1.16588

> <CNNscore>
0.9056155086

> <CNNaffinity>
7.2909455299

> <CNN_VS>
6.6027932167

> <CNNaffinity_variance>
0.1939158589

$$$$
68:0


 25 27  0  0  0  0  0  0  0  0999 V2000
   60.5120   29.8601   44.5845 O   0  0  0  0  0  0  0  0  0  0  0  0
   59.7785   28.9672   45.0908 C   0  0  0  0  0  0  0  0  0  0  0  0
   60.3662   27.9340   45.7431 N   0  0  0  0  0  0  0  0  0  0  0  0
   59.6367   26.9472   46.3148 C   0  0  0  0  0  0  0  0  0  0  0  0
   60.2940   25.9175   46.9759 O   0  0  0  0  0  0  0  0  0  0  0  0
   58.2393   26.9726   46.2338 C   0  0  0  0  0  0  0  0  0  0  0  0
   57.6389   28.0467   45.5463 C   0  0  0  0  0  0  0  0  0  0  0  0
   56.3813   28.0949   45.4477 O   0  0  0  0  0  0  0  0  0  0  0  0
   58.4117   29.0347   44.9843 N   0  0  0  0  0  0  0  0  0  0  0  0
   57.4065   25.9083   46.9170 C   0  0  0  0  0  0  0  0  0  0  0  0
   57.0728   24.7918   45.9559 C   0  0  0  0  0  0  0  0  0  0  0  0
   58.0985   23.9514   45.4859 C   0  0  0  0  0  0  0  0  0  0  0  0
   57.8185   22.9290   44.5749 C   0  0  0  0  0  0  0  0  0  0  0  0
   56.5113   22.7329   44.1238 C   0  0  0  0  0  0  0  0  0  0  0  0
   56.2351   21.7161   43.2185 O   0  0  0  0  0  0  0  0  0  0  0  0
   55.4826   23.5568   44.5848 C   0  0  0  0  0  0  0  0  0  0  0  0
   55.7548   24.5829   45.4967 C   0  0  0  0  0  0  0  0  0  0  0  0
   54.7084   25.3839   45.9441 O   0  0  0  0  0  0  0  0  0  0  0  0
   57.7701   30.1888   44.3214 C   0  0  0  0  0  0  0  0  0  0  0  0
   58.1011   31.4633   45.0540 C   0  0  0  0  0  0  0  0  0  0  0  0
   58.0904   32.6970   44.3792 C   0  0  0  0  0  0  0  0  0  0  0  0
   58.3586   33.8812   45.0722 C   0  0  0  0  0  0  0  0  0  0  0  0
   58.6346   33.8458   46.4413 C   0  0  0  0  0  0  0  0  0  0  0  0
   58.6445   32.6254   47.1201 C   0  0  0  0  0  0  0  0  0  0  0  0
   58.3760   31.4371   46.4312 C   0  0  0  0  0  0  0  0  0  0  0  0
  1  2  2  0
  2  3  1  0
  3  4  1  0
  4  5  1  0
  4  6  2  0
  6 10  1  0
 10 11  1  0
 11 12  2  0
 12 13  1  0
 13 14  2  0
 14 15  1  0
 14 16  1  0
 16 17  2  0
 17 18  1  0
  6  7  1  0
  7  8  2  0
  7  9  1  0
  9 19  1  0
 19 20  1  0
 20 21  2  0
 21 22  1  0
 22 23  2  0
 23 24  1  0
 24 25  2  0
  9  2  1  0
 25 20  1  0
 17 11  1  0
M  CHG 1   3  -1
M  CHG 1   5  -1
M  CHG 1  15  -1
M  CHG 1  18  -1
M  END
> <UniqueID>
63

> <SMILES>
O=c1[n-]c([O-])c(Cc2ccc([O-])cc2[O-])c(=O)n1Cc1ccccc1

> <Energy>
45.48157485267933

> <Genealogy>
O=c1[n-]c([O-])c(Cc2ccc([O-])cc2[O-])c(=O)n1Cc1ccccc1 (protonated)
O=c1[n-]c([O-])c(Cc2ccc([O-])cc2[O-])c(=O)n1Cc1ccccc1 (3D coordinates assigned)
O=c1[n-]c([O-])c(Cc2ccc([O-])cc2[O-])c(=O)n1Cc1ccccc1 (optimized conformer: 45.48157485267933 kcal/mol)

> <smiles>
O=c1[nH]c(O)c(Cc2ccc(O)cc2O)c(=O)n1Cc1ccccc1

> <score_type>
oracle

> <origin>
adg

> <m_score__min__energy>
-16.98

> <m_primary>
energy

> <minimizedAffinity>
-6.91043

> <minimizedRMSD>
0.70141

> <CNNscore>
0.2515196502

> <CNNaffinity>
5.8157849312

> <CNN_VS>
1.4627841711

> <CNNaffinity_variance>
0.0308336150

$$$$
69:0


 29 31  0  0  0  0  0  0  0  0999 V2000
   61.4798   30.9453   47.2406 N   0  0  0  0  0  0  0  0  0  0  0  0
   60.1934   31.3282   46.7162 C   0  0  0  0  0  0  0  0  0  0  0  0
   59.3562   30.3399   46.1478 C   0  0  0  0  0  0  0  0  0  0  0  0
   58.0864   30.7159   45.7020 C   0  0  0  0  0  0  0  0  0  0  0  0
   57.3079   29.8705   45.1829 O   0  0  0  0  0  0  0  0  0  0  0  0
   57.6877   32.0005   45.8139 N   0  0  0  0  0  0  0  0  0  0  0  0
   58.4959   32.9552   46.3329 C   0  0  0  0  0  0  0  0  0  0  0  0
   58.0673   34.1389   46.3888 O   0  0  0  0  0  0  0  0  0  0  0  0
   59.7595   32.6403   46.7776 N   0  0  0  0  0  0  0  0  0  0  0  0
   61.7730   30.0070   47.1887 H   0  0  0  0  0  0  0  0  0  0  0  0
   62.0654   31.6221   47.6508 H   0  0  0  0  0  0  0  0  0  0  0  0
   59.8138   28.9445   45.9758 C   0  0  0  0  0  0  0  0  0  0  0  0
   60.6075   28.6712   45.0383 O   0  0  0  0  0  0  0  0  0  0  0  0
   59.3907   27.8961   46.8581 N   0  0  0  0  0  0  0  0  0  0  0  0
   59.7852   26.4942   46.7492 C   0  0  0  0  0  0  0  0  0  0  0  0
   58.6447   25.6463   46.2490 C   0  0  0  0  0  0  0  0  0  0  0  0
   58.8964   24.3983   45.6561 C   0  0  0  0  0  0  0  0  0  0  0  0
   57.8355   23.6061   45.2072 C   0  0  0  0  0  0  0  0  0  0  0  0
   56.5207   24.0580   45.3341 C   0  0  0  0  0  0  0  0  0  0  0  0
   56.2600   25.2975   45.9252 C   0  0  0  0  0  0  0  0  0  0  0  0
   54.9518   25.7453   46.0498 O   0  0  0  0  0  0  0  0  0  0  0  0
   57.3173   26.0857   46.3933 C   0  0  0  0  0  0  0  0  0  0  0  0
   60.6447   33.7174   47.2743 C   0  0  0  0  0  0  0  0  0  0  0  0
   60.8611   33.6248   48.7678 C   0  0  0  0  0  0  0  0  0  0  0  0
   62.1450   33.7971   49.3159 C   0  0  0  0  0  0  0  0  0  0  0  0
   62.3534   33.6407   50.6896 C   0  0  0  0  0  0  0  0  0  0  0  0
   61.2863   33.3116   51.5282 C   0  0  0  0  0  0  0  0  0  0  0  0
   60.0093   33.1274   50.9926 C   0  0  0  0  0  0  0  0  0  0  0  0
   59.7976   33.2721   49.6176 C   0  0  0  0  0  0  0  0  0  0  0  0
  1  2  1  0
  2  3  2  0
  3 12  1  0
 12 13  2  0
 12 14  1  0
 14 15  1  0
 15 16  1  0
 16 17  2  0
 17 18  1  0
 18 19  2  0
 19 20  1  0
 20 21  1  0
 20 22  2  0
  3  4  1  0
  4  5  2  0
  4  6  1  0
  6  7  1  0
  7  8  2  0
  7  9  1  0
  9 23  1  0
 23 24  1  0
 24 25  2  0
 25 26  1  0
 26 27  2  0
 27 28  1  0
 28 29  2  0
  9  2  1  0
 29 24  1  0
 22 16  1  0
  1 10  1  0
  1 11  1  0
M  CHG 1   6  -1
M  CHG 1  14  -1
M  CHG 1  21  -1
M  END
> <UniqueID>
64

> <SMILES>
Nc1c(C(=O)[N-]Cc2cccc([O-])c2)c(=O)[n-]c(=O)n1Cc1ccccc1

> <Energy>
52.967887481441664

> <Genealogy>
Nc1c(C(=O)[N-]Cc2cccc([O-])c2)c(=O)[n-]c(=O)n1Cc1ccccc1 (protonated)
Nc1c(C(=O)[N-]Cc2cccc([O-])c2)c(=O)[n-]c(=O)n1Cc1ccccc1 (3D coordinates assigned)
Nc1c(C(=O)[N-]Cc2cccc([O-])c2)c(=O)[n-]c(=O)n1Cc1ccccc1 (optimized conformer: 52.967887481441664 kcal/mol)

> <smiles>
Nc1c(C(=O)NCc2cccc(O)c2)c(=O)[nH]c(=O)n1Cc1ccccc1

> <score_type>
oracle

> <origin>
adg

> <m_score__min__energy>
-14.42

> <m_primary>
energy

> <minimizedAffinity>
-8.31230

> <minimizedRMSD>
0.91792

> <CNNscore>
0.2346859276

> <CNNaffinity>
6.3094553947

> <CNN_VS>
1.4807404280

> <CNNaffinity_variance>
0.3082430661

$$$$
86:0


 23 24  0  0  0  0  0  0  0  0999 V2000
   56.0110   30.8238   52.1294 N   0  0  0  0  0  0  0  0  0  0  0  0
   54.8193   30.0543   52.3630 C   0  0  0  0  0  0  0  0  0  0  0  0
   54.8912   28.9728   53.0091 O   0  0  0  0  0  0  0  0  0  0  0  0
   56.0129   31.4590   51.3772 H   0  0  0  0  0  0  0  0  0  0  0  0
   53.5125   30.4888   51.8125 C   0  0  0  0  0  0  0  0  0  0  0  0
   52.7494   31.4617   52.4824 C   0  0  0  0  0  0  0  0  0  0  0  0
   51.5218   31.8674   51.9510 C   0  0  0  0  0  0  0  0  0  0  0  0
   50.7591   32.8213   52.6114 O   0  0  0  0  0  0  0  0  0  0  0  0
   51.0719   31.3295   50.7875 N   0  0  0  0  0  0  0  0  0  0  0  0
   51.7879   30.3952   50.1107 C   0  0  0  0  0  0  0  0  0  0  0  0
   51.3396   29.9242   49.0316 O   0  0  0  0  0  0  0  0  0  0  0  0
   53.0203   29.9586   50.6073 C   0  0  0  0  0  0  0  0  0  0  0  0
   59.5988   30.3162   53.0696 C   0  0  0  0  0  0  0  0  0  0  0  0
   59.5581   30.5522   54.4491 C   0  0  0  0  0  0  0  0  0  0  0  0
   58.3508   30.8895   55.0655 C   0  0  0  0  0  0  0  0  0  0  0  0
   57.1780   30.9805   54.3126 C   0  0  0  0  0  0  0  0  0  0  0  0
   57.1998   30.7194   52.9306 C   0  0  0  0  0  0  0  0  0  0  0  0
   58.4209   30.4007   52.3151 C   0  0  0  0  0  0  0  0  0  0  0  0
   62.0940   28.9755   53.3828 N   0  0  0  0  0  0  0  0  0  0  0  0
   61.1174   29.8874   52.2869 S   0  0  0  0  0  0  0  0  0  0  0  0
   61.8537   31.1341   51.8818 O   0  0  0  0  0  0  0  0  0  0  0  0
   60.8430   29.0682   51.0570 O   0  0  0  0  0  0  0  0  0  0  0  0
   62.9732   28.7274   52.9291 H   0  0  0  0  0  0  0  0  0  0  0  0
 19 20  1  0
 20 21  2  0
 20 22  2  0
 20 13  1  0
 13 14  2  0
 14 15  1  0
 15 16  2  0
 16 17  1  0
 17  1  1  0
  1  2  1  0
  2  3  2  0
  2  5  1  0
  5  6  1  0
  6  7  2  0
  7  8  1  0
  7  9  1  0
  9 10  1  0
 10 11  2  0
 10 12  1  0
 17 18  2  0
 18 13  1  0
 12  5  2  0
 19 23  1  0
  1  4  1  0
M  CHG 1   8  -1
M  CHG 1   9  -1
M  CHG 1  19  -1
M  END
> <UniqueID>
81

> <SMILES>
[NH-]S(=O)(=O)c1cccc(NC(=O)c2cc([O-])[n-]c(=O)c2)c1

> <Energy>
36.07210976969563

> <Genealogy>
[NH-]S(=O)(=O)c1cccc(NC(=O)c2cc([O-])[n-]c(=O)c2)c1 (protonated)
[NH-]S(=O)(=O)c1cccc(NC(=O)c2cc([O-])[n-]c(=O)c2)c1 (3D coordinates assigned)
[NH-]S(=O)(=O)c1cccc(NC(=O)c2cc([O-])[n-]c(=O)c2)c1 (optimized conformer: 36.07210976969563 kcal/mol)

> <smiles>
NS(=O)(=O)c1cccc(NC(=O)c2cc(O)[nH]c(=O)c2)c1

> <score_type>
oracle

> <origin>
adg

> <m_score__min__energy>
-14.15

> <m_primary>
energy

> <minimizedAffinity>
-3.35615

> <minimizedRMSD>
0.76893

> <CNNscore>
0.2503674626

> <CNNaffinity>
4.2839503288

> <CNN_VS>
1.0725617409

> <CNNaffinity_variance>
0.0556200854

$$$$
16:0


 25 26  0  0  0  0  0  0  0  0999 V2000
   57.8449   31.9732   51.4304 C   0  0  0  0  0  0  0  0  0  0  0  0
   58.5843   31.6878   50.2016 N   0  0  0  0  0  0  0  0  0  0  0  0
   59.5908   32.5827   49.7109 C   0  0  0  0  0  0  0  0  0  0  0  0
   59.8164   33.6732   50.3020 O   0  0  0  0  0  0  0  0  0  0  0  0
   58.3868   30.8636   49.7008 H   0  0  0  0  0  0  0  0  0  0  0  0
   60.4193   32.2014   48.5225 C   0  0  0  0  0  0  0  0  0  0  0  0
   59.7286   32.6321   47.2540 C   0  0  0  0  0  0  0  0  0  0  0  0
   59.9118   33.9369   46.7649 C   0  0  0  0  0  0  0  0  0  0  0  0
   59.2581   34.3551   45.6027 C   0  0  0  0  0  0  0  0  0  0  0  0
   58.4103   33.4777   44.9222 C   0  0  0  0  0  0  0  0  0  0  0  0
   58.2066   32.1845   45.4081 C   0  0  0  0  0  0  0  0  0  0  0  0
   58.8569   31.7589   46.5719 C   0  0  0  0  0  0  0  0  0  0  0  0
   58.6320   30.4698   47.0432 O   0  0  0  0  0  0  0  0  0  0  0  0
   57.5694   30.7084   52.1947 C   0  0  0  0  0  0  0  0  0  0  0  0
   58.4293   30.3048   53.0210 O   0  0  0  0  0  0  0  0  0  0  0  0
   53.7552   30.0888   54.2067 C   0  0  0  0  0  0  0  0  0  0  0  0
   55.0538   29.9062   53.8469 N   0  0  0  0  0  0  0  0  0  0  0  0
   55.2278   30.0093   52.5125 C   0  0  0  0  0  0  0  0  0  0  0  0
   56.4038   29.9009   51.9647 N   0  0  0  0  0  0  0  0  0  0  0  0
   53.7755   30.3554   51.7210 S   0  0  0  0  0  0  0  0  0  0  0  0
   52.8918   30.3629   53.1526 C   0  0  0  0  0  0  0  0  0  0  0  0
   51.4134   30.5559   53.2559 C   0  0  0  0  0  0  0  0  0  0  0  0
   51.0373   31.9114   52.7499 C   0  0  0  0  0  0  0  0  0  0  0  0
   50.4067   32.7097   53.4899 O   0  0  0  0  0  0  0  0  0  0  0  0
   51.3371   32.2735   51.4426 O   0  0  0  0  0  0  0  0  0  0  0  0
 16 17  1  0
 17 18  1  0
 18 19  2  0
 19 14  1  0
 14 15  2  0
 14  1  1  0
  1  2  1  0
  2  3  1  0
  3  4  2  0
  3  6  1  0
  6  7  1  0
  7  8  2  0
  8  9  1  0
  9 10  2  0
 10 11  1  0
 11 12  2  0
 12 13  1  0
 18 20  1  0
 20 21  1  0
 21 22  1  0
 22 23  1  0
 23 24  2  0
 23 25  1  0
 21 16  2  0
 12  7  1  0
  2  5  1  0
M  CHG 1  13  -1
M  CHG 1  17  -1
M  CHG 1  25  -1
M  END
> <UniqueID>
17

> <SMILES>
O=C([O-])Cc1c[n-]/c(=N/C(=O)CNC(=O)Cc2ccccc2[O-])s1

> <Energy>
62.86556155367707

> <Genealogy>
O=C([O-])Cc1c[n-]c(=NC(=O)CNC(=O)Cc2ccccc2[O-])s1 (protonated)
O=C([O-])Cc1c[n-]/c(=N/C(=O)CNC(=O)Cc2ccccc2[O-])s1 (cis-trans isomerization)
O=C([O-])Cc1c[n-]/c(=N/C(=O)CNC(=O)Cc2ccccc2[O-])s1 (3D coordinates assigned)
O=C([O-])Cc1c[n-]/c(=N/C(=O)CNC(=O)Cc2ccccc2[O-])s1 (optimized conformer: 62.86556155367707 kcal/mol)

> <smiles>
O=C(O)Cc1c[nH]c(=NC(=O)CNC(=O)Cc2ccccc2O)s1

> <score_type>
oracle

> <origin>
adg

> <m_score__min__energy>
-14.789999999999999

> <m_primary>
energy

> <minimizedAffinity>
-6.59837

> <minimizedRMSD>
0.74435

> <CNNscore>
0.4097714424

> <CNNaffinity>
5.4934844971

> <CNN_VS>
2.2510731220

> <CNNaffinity_variance>
0.0336622410

$$$$
17:0


 37 41  0  0  0  0  0  0  0  0999 V2000
   59.5978   27.7406   47.8812 C   0  0  0  0  0  0  0  0  0  0  0  0
   60.4456   27.0412   48.7485 C   0  0  0  0  0  0  0  0  0  0  0  0
   61.0292   27.6929   49.8333 C   0  0  0  0  0  0  0  0  0  0  0  0
   60.7806   29.0489   50.0598 C   0  0  0  0  0  0  0  0  0  0  0  0
   59.9297   29.7756   49.2013 C   0  0  0  0  0  0  0  0  0  0  0  0
   59.3371   29.0994   48.1143 C   0  0  0  0  0  0  0  0  0  0  0  0
   58.0067   25.2308   47.8639 C   0  0  0  0  0  0  0  0  0  0  0  0
   58.3604   25.8803   46.7426 C   0  0  0  0  0  0  0  0  0  0  0  0
   57.9694   25.5698   45.4300 C   0  0  0  0  0  0  0  0  0  0  0  0
   57.3777   24.4712   44.9199 C   0  0  0  0  0  0  0  0  0  0  0  0
   58.3336   26.6548   44.6487 C   0  0  0  0  0  0  0  0  0  0  0  0
   58.9966   27.5362   45.4759 C   0  0  0  0  0  0  0  0  0  0  0  0
   59.5872   28.8382   45.0243 C   0  0  0  0  0  0  0  0  0  0  0  0
   59.0138   27.0718   46.7460 N   0  0  0  0  0  0  0  0  0  0  0  0
   56.1216   23.8750   45.4033 C   0  0  0  0  0  0  0  0  0  0  0  0
   55.8130   22.5671   45.3293 N   0  0  0  0  0  0  0  0  0  0  0  0
   54.5313   22.5250   45.7532 C   0  0  0  0  0  0  0  0  0  0  0  0
   53.8809   21.4509   45.8374 O   0  0  0  0  0  0  0  0  0  0  0  0
   53.9957   23.7244   46.0627 N   0  0  0  0  0  0  0  0  0  0  0  0
   55.0128   24.5687   45.8227 C   0  0  0  0  0  0  0  0  0  0  0  0
   54.9285   25.9464   45.9784 O   0  0  0  0  0  0  0  0  0  0  0  0
   59.6611   31.2346   49.3904 C   0  0  0  0  0  0  0  0  0  0  0  0
   58.5402   31.5818   49.8592 O   0  0  0  0  0  0  0  0  0  0  0  0
   60.6194   32.2595   48.9961 N   0  0  0  0  0  0  0  0  0  0  0  0
   60.0335   33.6294   49.0190 C   0  0  0  0  0  0  0  0  0  0  0  0
   59.5457   34.1316   47.6425 C   0  0  0  0  0  0  0  0  0  0  0  0
   59.1803   33.0094   46.7700 N   0  0  0  0  0  0  0  0  0  0  0  0
   57.8734   32.9522   46.1529 C   0  0  0  0  0  0  0  0  0  0  0  0
   56.9215   33.6181   46.6456 O   0  0  0  0  0  0  0  0  0  0  0  0
   60.1693   31.9442   46.5590 C   0  0  0  0  0  0  0  0  0  0  0  0
   61.2205   31.9366   47.6819 C   0  0  0  0  0  0  0  0  0  0  0  0
   60.0560   31.4896   49.2391 H   0  0  0  0  0  0  0  0  0  0  0  0
   57.6031   32.1256   44.9575 C   0  0  0  0  0  0  0  0  0  0  0  0
   58.0669   32.3855   43.6806 C   0  0  0  0  0  0  0  0  0  0  0  0
   57.5845   31.3642   42.8910 C   0  0  0  0  0  0  0  0  0  0  0  0
   56.8631   30.5420   43.7301 C   0  0  0  0  0  0  0  0  0  0  0  0
   56.8938   31.0193   44.9518 O   0  0  0  0  0  0  0  0  0  0  0  0
  7  8  2  0
  8  9  1  0
  9 10  2  0
 10 15  1  0
 15 16  1  0
 16 17  1  0
 17 18  2  0
 17 19  1  0
 19 20  1  0
 20 21  1  0
  9 11  1  0
 11 12  2  0
 12 13  1  0
 12 14  1  0
 14  1  1  0
  1  2  2  0
  2  3  1  0
  3  4  2  0
  4  5  1  0
  5 22  1  0
 22 23  2  0
 22 24  1  0
 24 25  1  0
 25 26  1  0
 26 27  1  0
 27 28  1  0
 28 29  2  0
 28 33  1  0
 33 34  2  0
 34 35  1  0
 35 36  2  0
 36 37  1  0
 27 30  1  0
 30 31  1  0
  5  6  2  0
 14  8  1  0
  6  1  1  0
 20 15  2  0
 31 24  1  0
 37 33  1  0
 24 32  1  0
M  CHG 1  16  -1
M  CHG 1  19  -1
M  CHG 1  21  -1
M  CHG 1  24   1
M  END
> <UniqueID>
18

> <SMILES>
C=c1c(=Cc2[n-]c(=O)[n-]c2[O-])cc(C)n1-c1cccc(C(=O)[NH+]2CCN(C(=O)c3ccco3)CC2)c1

> <Energy>
179.54456638502154

> <Genealogy>
C=c1c(=Cc2[n-]c(=O)[n-]c2[O-])cc(C)n1-c1cccc(C(=O)[NH+]2CCN(C(=O)c3ccco3)CC2)c1 (protonated)
C=c1c(=Cc2[n-]c(=O)[n-]c2[O-])cc(C)n1-c1cccc(C(=O)[NH+]2CCN(C(=O)c3ccco3)CC2)c1 (3D coordinates assigned)
C=c1c(=Cc2[n-]c(=O)[n-]c2[O-])cc(C)n1-c1cccc(C(=O)[NH+]2CCN(C(=O)c3ccco3)CC2)c1 (nonaromatic ring conformer: 179.54456638502154 kcal/mol)

> <smiles>
C=c1c(=Cc2[nH]c(=O)[nH]c2O)cc(C)n1-c1cccc(C(=O)N2CCN(C(=O)c3ccco3)CC2)c1

> <score_type>
oracle

> <origin>
adg

> <m_score__min__energy>
-17.48

> <m_primary>
energy

> <minimizedAffinity>
-9.38870

> <minimizedRMSD>
0.70303

> <CNNscore>
0.0974766687

> <CNNaffinity>
6.2925724983

> <CNN_VS>
0.6133790016

> <CNNaffinity_variance>
0.5368576050

$$$$
18:0


 26 28  0  0  0  0  0  0  0  0999 V2000
   57.8431   31.1040   45.1827 C   0  0  0  0  0  0  0  0  0  0  0  0
   57.2670   29.8476   45.0554 C   0  0  0  0  0  0  0  0  0  0  0  0
   57.0745   30.0808   43.7047 C   0  0  0  0  0  0  0  0  0  0  0  0
   56.5527   29.4452   42.7517 O   0  0  0  0  0  0  0  0  0  0  0  0
   57.7042   31.3014   43.8230 C   0  0  0  0  0  0  0  0  0  0  0  0
   58.0085   32.2258   43.0241 O   0  0  0  0  0  0  0  0  0  0  0  0
   58.4072   31.8784   46.2451 N   0  0  0  0  0  0  0  0  0  0  0  0
   58.0603   32.7873   46.3958 H   0  0  0  0  0  0  0  0  0  0  0  0
   61.7719   31.5375   47.8612 C   0  0  0  0  0  0  0  0  0  0  0  0
   61.5042   30.5282   48.8085 C   0  0  0  0  0  0  0  0  0  0  0  0
   60.2226   29.9843   48.9187 C   0  0  0  0  0  0  0  0  0  0  0  0
   59.1975   30.4238   48.0790 C   0  0  0  0  0  0  0  0  0  0  0  0
   59.4528   31.3982   47.1023 C   0  0  0  0  0  0  0  0  0  0  0  0
   60.7350   31.9614   47.0118 C   0  0  0  0  0  0  0  0  0  0  0  0
   63.3238   33.3702   47.2005 C   0  0  0  0  0  0  0  0  0  0  0  0
   63.1117   32.1528   47.7020 C   0  0  0  0  0  0  0  0  0  0  0  0
   56.9844   28.7742   45.9615 N   0  0  0  0  0  0  0  0  0  0  0  0
   56.2797   28.9057   46.6363 H   0  0  0  0  0  0  0  0  0  0  0  0
   57.6760   27.5176   45.9355 C   0  0  0  0  0  0  0  0  0  0  0  0
   59.0772   27.4604   45.9230 C   0  0  0  0  0  0  0  0  0  0  0  0
   59.7283   26.2255   45.9269 C   0  0  0  0  0  0  0  0  0  0  0  0
   58.9690   25.0528   45.9605 C   0  0  0  0  0  0  0  0  0  0  0  0
   59.5378   23.9301   45.9638 O   0  0  0  0  0  0  0  0  0  0  0  0
   57.6130   25.1229   45.9942 N   0  0  0  0  0  0  0  0  0  0  0  0
   56.9537   26.3140   45.9890 C   0  0  0  0  0  0  0  0  0  0  0  0
   55.5650   26.3265   46.0282 O   0  0  0  0  0  0  0  0  0  0  0  0
 15 16  2  0
 16  9  1  0
  9 10  2  0
 10 11  1  0
 11 12  2  0
 12 13  1  0
 13  7  1  0
  7  1  1  0
  1  2  2  0
  2 17  1  0
 17 19  1  0
 19 20  1  0
 20 21  2  0
 21 22  1  0
 22 23  2  0
 22 24  1  0
 24 25  1  0
 25 26  1  0
  2  3  1  0
  3  4  2  0
  3  5  1  0
  5  6  2  0
 13 14  2  0
 14  9  1  0
  5  1  1  0
 25 19  2  0
  7  8  1  0
 17 18  1  0
M  CHG 1  24  -1
M  CHG 1  26  -1
M  END
> <UniqueID>
19

> <SMILES>
C=Cc1cccc(Nc2c(Nc3ccc(=O)[n-]c3[O-])c(=O)c2=O)c1

> <Energy>
37.89409392919116

> <Genealogy>
C=Cc1cccc(Nc2c(Nc3ccc(=O)[n-]c3[O-])c(=O)c2=O)c1 (protonated)
C=Cc1cccc(Nc2c(Nc3ccc(=O)[n-]c3[O-])c(=O)c2=O)c1 (3D coordinates assigned)
C=Cc1cccc(Nc2c(Nc3ccc(=O)[n-]c3[O-])c(=O)c2=O)c1 (optimized conformer: 37.89409392919116 kcal/mol)

> <smiles>
C=Cc1cccc(Nc2c(Nc3ccc(=O)[nH]c3O)c(=O)c2=O)c1

> <score_type>
oracle

> <origin>
adg

> <m_score__min__energy>
-14.16

> <m_primary>
energy

> <minimizedAffinity>
-7.03563

> <minimizedRMSD>
1.03077

> <CNNscore>
0.3334992528

> <CNNaffinity>
5.9339280128

> <CNN_VS>
1.9789605141

> <CNNaffinity_variance>
0.0380908363

$$$$
33:0


 25 27  0  0  0  0  0  0  0  0999 V2000
   56.3526   29.9448   42.9704 C   0  0  0  0  0  0  0  0  0  0  0  0
   56.9789   29.6676   44.1124 C   0  0  0  0  0  0  0  0  0  0  0  0
   57.8019   30.5376   44.8013 C   0  0  0  0  0  0  0  0  0  0  0  0
   58.2466   29.8447   45.9122 C   0  0  0  0  0  0  0  0  0  0  0  0
   57.6761   28.5748   45.8471 C   0  0  0  0  0  0  0  0  0  0  0  0
   57.8866   27.5757   46.7204 C   0  0  0  0  0  0  0  0  0  0  0  0
   56.9029   28.4791   44.7423 N   0  0  0  0  0  0  0  0  0  0  0  0
   56.3847   27.6932   44.4540 H   0  0  0  0  0  0  0  0  0  0  0  0
   57.9836   26.1529   46.3246 C   0  0  0  0  0  0  0  0  0  0  0  0
   56.8371   25.3721   46.0963 C   0  0  0  0  0  0  0  0  0  0  0  0
   55.5652   25.9173   46.2268 O   0  0  0  0  0  0  0  0  0  0  0  0
   56.9663   24.0620   45.7609 N   0  0  0  0  0  0  0  0  0  0  0  0
   58.1900   23.4811   45.6596 C   0  0  0  0  0  0  0  0  0  0  0  0
   58.2857   22.2671   45.3448 O   0  0  0  0  0  0  0  0  0  0  0  0
   59.3103   24.2084   45.9050 N   0  0  0  0  0  0  0  0  0  0  0  0
   59.2350   25.5223   46.2418 C   0  0  0  0  0  0  0  0  0  0  0  0
   60.2950   26.1637   46.4674 O   0  0  0  0  0  0  0  0  0  0  0  0
   59.2414   30.3661   46.9134 C   0  0  0  0  0  0  0  0  0  0  0  0
   59.4220   31.8527   46.7517 C   0  0  0  0  0  0  0  0  0  0  0  0
   58.3260   32.6805   46.4544 C   0  0  0  0  0  0  0  0  0  0  0  0
   58.4990   34.0614   46.3295 C   0  0  0  0  0  0  0  0  0  0  0  0
   59.7658   34.6284   46.5000 C   0  0  0  0  0  0  0  0  0  0  0  0
   59.9316   35.9678   46.3782 F   0  0  0  0  0  0  0  0  0  0  0  0
   60.8618   33.8113   46.7941 C   0  0  0  0  0  0  0  0  0  0  0  0
   60.6927   32.4303   46.9198 C   0  0  0  0  0  0  0  0  0  0  0  0
  1  2  2  0
  2  3  1  0
  3  4  2  0
  4 18  1  0
 18 19  1  0
 19 20  2  0
 20 21  1  0
 21 22  2  0
 22 23  1  0
 22 24  1  0
 24 25  2  0
  4  5  1  0
  5  6  2  0
  6  9  1  0
  9 10  2  0
 10 11  1  0
 10 12  1  0
 12 13  1  0
 13 14  2  0
 13 15  1  0
 15 16  1  0
 16 17  2  0
  5  7  1  0
  7  2  1  0
 25 19  1  0
 16  9  1  0
  7  8  1  0
M  CHG 1  11  -1
M  CHG 1  12  -1
M  CHG 1  15  -1
M  END
> <UniqueID>
33

> <SMILES>
C=c1cc(Cc2ccc(F)cc2)/c(=C/c2c([O-])[n-]c(=O)[n-]c2=O)[nH]1

> <Energy>
71.26150342654557

> <Genealogy>
C=c1cc(Cc2ccc(F)cc2)c(=Cc2c([O-])[n-]c(=O)[n-]c2=O)[nH]1 (protonated)
C=c1cc(Cc2ccc(F)cc2)/c(=C/c2c([O-])[n-]c(=O)[n-]c2=O)[nH]1 (cis-trans isomerization)
C=c1cc(Cc2ccc(F)cc2)/c(=C/c2c([O-])[n-]c(=O)[n-]c2=O)[nH]1 (3D coordinates assigned)
C=c1cc(Cc2ccc(F)cc2)/c(=C/c2c([O-])[n-]c(=O)[n-]c2=O)[nH]1 (optimized conformer: 71.26150342654557 kcal/mol)

> <smiles>
C=c1cc(Cc2ccc(F)cc2)c(=Cc2c(O)[nH]c(=O)[nH]c2=O)[nH]1

> <score_type>
oracle

> <origin>
adg

> <m_score__min__energy>
-15.25

> <m_primary>
energy

> <minimizedAffinity>
-8.64882

> <minimizedRMSD>
0.84453

> <CNNscore>
0.6081740856

> <CNNaffinity>
6.4736342430

> <CNN_VS>
3.9370965958

> <CNNaffinity_variance>
0.0518908091

$$$$
37:0


 24 26  0  0  0  0  0  0  0  0999 V2000
   57.0706   31.1068   52.4299 C   0  0  0  0  0  0  0  0  0  0  0  0
   57.5297   32.4325   52.3298 C   0  0  0  0  0  0  0  0  0  0  0  0
   58.5876   32.7482   51.4715 C   0  0  0  0  0  0  0  0  0  0  0  0
   59.2150   31.7427   50.7204 C   0  0  0  0  0  0  0  0  0  0  0  0
   58.7637   30.4191   50.8297 C   0  0  0  0  0  0  0  0  0  0  0  0
   57.7069   30.1037   51.6889 C   0  0  0  0  0  0  0  0  0  0  0  0
   56.0024   30.7350   53.3121 N   0  0  0  0  0  0  0  0  0  0  0  0
   54.9183   28.7931   52.5688 O   0  0  0  0  0  0  0  0  0  0  0  0
   54.8290   29.9860   52.9657 C   0  0  0  0  0  0  0  0  0  0  0  0
   53.4815   30.5940   53.1827 C   0  0  0  0  0  0  0  0  0  0  0  0
   52.7317   30.6507   51.8887 C   0  0  0  0  0  0  0  0  0  0  0  0
   52.8981   29.7778   50.8797 N   0  0  0  0  0  0  0  0  0  0  0  0
   51.9838   30.1781   49.9687 C   0  0  0  0  0  0  0  0  0  0  0  0
   51.8343   29.6011   48.8607 O   0  0  0  0  0  0  0  0  0  0  0  0
   51.2395   31.2414   50.3410 N   0  0  0  0  0  0  0  0  0  0  0  0
   51.7223   31.5242   51.5625 C   0  0  0  0  0  0  0  0  0  0  0  0
   51.2459   32.5538   52.3621 O   0  0  0  0  0  0  0  0  0  0  0  0
   60.3280   32.0897   49.7672 C   0  0  0  0  0  0  0  0  0  0  0  0
   59.7701   32.7453   48.5346 C   0  0  0  0  0  0  0  0  0  0  0  0
   58.9478   32.0239   47.6555 C   0  0  0  0  0  0  0  0  0  0  0  0
   58.4112   32.6617   46.5356 C   0  0  0  0  0  0  0  0  0  0  0  0
   58.6771   33.9753   46.3048 N   0  0  0  0  0  0  0  0  0  0  0  0
   59.4623   34.7010   47.1444 C   0  0  0  0  0  0  0  0  0  0  0  0
   60.0189   34.1020   48.2767 C   0  0  0  0  0  0  0  0  0  0  0  0
  8  9  2  0
  9 10  1  0
 10 11  1  0
 11 12  1  0
 12 13  1  0
 13 14  2  0
 13 15  1  0
 15 16  1  0
 16 17  1  0
  9  7  1  0
  7  1  1  0
  1  2  2  0
  2  3  1  0
  3  4  2  0
  4 18  1  0
 18 19  1  0
 19 20  2  0
 20 21  1  0
 21 22  2  0
 22 23  1  0
 23 24  2  0
  4  5  1  0
  5  6  2  0
 16 11  2  0
  6  1  1  0
 24 19  1  0
M  CHG 1   7  -1
M  CHG 1  12  -1
M  CHG 1  15  -1
M  CHG 1  17  -1
M  END
> <UniqueID>
36

> <SMILES>
O=C(Cc1[n-]c(=O)[n-]c1[O-])[N-]c1ccc(Cc2ccncc2)cc1

> <Energy>
68.33436395478891

> <Genealogy>
O=C(Cc1[n-]c(=O)[n-]c1[O-])[N-]c1ccc(Cc2ccncc2)cc1 (protonated)
O=C(Cc1[n-]c(=O)[n-]c1[O-])[N-]c1ccc(Cc2ccncc2)cc1 (3D coordinates assigned)
O=C(Cc1[n-]c(=O)[n-]c1[O-])[N-]c1ccc(Cc2ccncc2)cc1 (optimized conformer: 68.33436395478891 kcal/mol)

> <smiles>
O=C(Cc1[nH]c(=O)[nH]c1O)Nc1ccc(Cc2ccncc2)cc1

> <score_type>
oracle

> <origin>
adg

> <m_score__min__energy>
-17.539999999999999

> <m_primary>
energy

> <minimizedAffinity>
-5.67744

> <minimizedRMSD>
0.90127

> <CNNscore>
0.4405841231

> <CNNaffinity>
5.6599617004

> <CNN_VS>
2.4936892986

> <CNNaffinity_variance>
0.0117237763

$$$$
48:0


 31 34  0  0  0  0  0  0  0  0999 V2000
   58.4890   31.2027   45.3205 C   0  0  0  0  0  0  0  0  0  0  0  0
   58.0567   31.9614   44.2237 C   0  0  0  0  0  0  0  0  0  0  0  0
   58.1486   33.3542   44.2545 C   0  0  0  0  0  0  0  0  0  0  0  0
   58.6807   33.9989   45.3738 C   0  0  0  0  0  0  0  0  0  0  0  0
   59.1358   33.2513   46.4721 C   0  0  0  0  0  0  0  0  0  0  0  0
   59.0208   31.8518   46.4445 C   0  0  0  0  0  0  0  0  0  0  0  0
   59.6962   33.9254   47.6640 C   0  0  0  0  0  0  0  0  0  0  0  0
   58.9951   34.7899   48.2587 O   0  0  0  0  0  0  0  0  0  0  0  0
   61.0134   33.6151   48.1633 N   0  0  0  0  0  0  0  0  0  0  0  0
   62.1308   33.5803   47.2024 C   0  0  0  0  0  0  0  0  0  0  0  0
   63.4090   33.0916   47.8257 C   0  0  0  0  0  0  0  0  0  0  0  0
   64.2946   32.5709   47.0943 O   0  0  0  0  0  0  0  0  0  0  0  0
   63.6316   33.2537   49.2342 N   0  0  0  0  0  0  0  0  0  0  0  0
   64.8479   32.7290   49.8579 C   0  0  0  0  0  0  0  0  0  0  0  0
   62.6049   33.9283   50.0289 C   0  0  0  0  0  0  0  0  0  0  0  0
   61.2253   33.4256   49.6094 C   0  0  0  0  0  0  0  0  0  0  0  0
   60.1942   29.2395   46.7472 C   0  0  0  0  0  0  0  0  0  0  0  0
   59.1258   28.8820   46.0169 C   0  0  0  0  0  0  0  0  0  0  0  0
   58.7067   27.5756   45.7161 C   0  0  0  0  0  0  0  0  0  0  0  0
   59.0792   26.3881   46.2319 C   0  0  0  0  0  0  0  0  0  0  0  0
   57.7445   27.6949   44.7272 C   0  0  0  0  0  0  0  0  0  0  0  0
   57.5532   29.0446   44.5158 C   0  0  0  0  0  0  0  0  0  0  0  0
   56.5749   29.6208   43.5362 C   0  0  0  0  0  0  0  0  0  0  0  0
   58.3886   29.7669   45.2965 N   0  0  0  0  0  0  0  0  0  0  0  0
   58.4004   25.1035   45.9987 C   0  0  0  0  0  0  0  0  0  0  0  0
   59.0159   23.9676   45.6209 N   0  0  0  0  0  0  0  0  0  0  0  0
   58.0294   23.0459   45.6739 C   0  0  0  0  0  0  0  0  0  0  0  0
   58.2131   21.8390   45.3687 O   0  0  0  0  0  0  0  0  0  0  0  0
   56.8342   23.5180   46.0895 N   0  0  0  0  0  0  0  0  0  0  0  0
   57.0922   24.8185   46.3037 C   0  0  0  0  0  0  0  0  0  0  0  0
   56.1506   25.7251   46.7749 O   0  0  0  0  0  0  0  0  0  0  0  0
 17 18  2  0
 18 19  1  0
 19 20  2  0
 20 25  1  0
 25 26  1  0
 26 27  1  0
 27 28  2  0
 27 29  1  0
 29 30  1  0
 30 31  1  0
 19 21  1  0
 21 22  2  0
 22 23  1  0
 22 24  1  0
 24  1  1  0
  1  2  2  0
  2  3  1  0
  3  4  2  0
  4  5  1  0
  5  7  1  0
  7  8  2  0
  7  9  1  0
  9 10  1  0
 10 11  1  0
 11 12  2  0
 11 13  1  0
 13 14  1  0
 13 15  1  0
 15 16  1  0
  5  6  2  0
 24 18  1  0
  6  1  1  0
 30 25  2  0
 16  9  1  0
M  CHG 1  26  -1
M  CHG 1  29  -1
M  CHG 1  31  -1
M  END
> <UniqueID>
46

> <SMILES>
C=c1/c(=C\c2[n-]c(=O)[n-]c2[O-])cc(C)n1-c1cccc(C(=O)N2CCN(C)C(=O)C2)c1

> <Energy>
131.9504900202611

> <Genealogy>
C=c1c(=Cc2[n-]c(=O)[n-]c2[O-])cc(C)n1-c1cccc(C(=O)N2CCN(C)C(=O)C2)c1 (protonated)
C=c1/c(=C\c2[n-]c(=O)[n-]c2[O-])cc(C)n1-c1cccc(C(=O)N2CCN(C)C(=O)C2)c1 (cis-trans isomerization)
C=c1/c(=C\c2[n-]c(=O)[n-]c2[O-])cc(C)n1-c1cccc(C(=O)N2CCN(C)C(=O)C2)c1 (3D coordinates assigned)
C=c1/c(=C\c2[n-]c(=O)[n-]c2[O-])cc(C)n1-c1cccc(C(=O)N2CCN(C)C(=O)C2)c1 (nonaromatic ring conformer: 131.9504900202611 kcal/mol)

> <smiles>
C=c1c(=Cc2[nH]c(=O)[nH]c2O)cc(C)n1-c1cccc(C(=O)N2CCN(C)C(=O)C2)c1

> <score_type>
oracle

> <origin>
adg

> <m_score__min__energy>
-17.219999999999999

> <m_primary>
energy

> <minimizedAffinity>
-9.40885

> <minimizedRMSD>
1.06513

> <CNNscore>
0.2983012497

> <CNNaffinity>
6.7891335487

> <CNN_VS>
2.0252070427

> <CNNaffinity_variance>
0.0840383992

$$$$
51:0


 31 34  0  0  0  0  0  0  0  0999 V2000
   59.9095   27.2454   46.4710 C   0  0  0  0  0  0  0  0  0  0  0  0
   60.0575   28.5758   46.0503 C   0  0  0  0  0  0  0  0  0  0  0  0
   60.2246   29.5981   46.9855 C   0  0  0  0  0  0  0  0  0  0  0  0
   60.2384   29.3087   48.3608 C   0  0  0  0  0  0  0  0  0  0  0  0
   60.1792   27.9686   48.7757 C   0  0  0  0  0  0  0  0  0  0  0  0
   60.0139   26.9452   47.8384 C   0  0  0  0  0  0  0  0  0  0  0  0
   60.3163   30.4124   49.3409 C   0  0  0  0  0  0  0  0  0  0  0  0
   61.1020   30.3079   50.3204 O   0  0  0  0  0  0  0  0  0  0  0  0
   59.5135   31.5950   49.2336 N   0  0  0  0  0  0  0  0  0  0  0  0
   59.5707   32.6002   48.2104 C   0  0  0  0  0  0  0  0  0  0  0  0
   58.4013   32.8369   47.4735 C   0  0  0  0  0  0  0  0  0  0  0  0
   58.3839   33.7785   46.4453 C   0  0  0  0  0  0  0  0  0  0  0  0
   59.5317   34.5129   46.1536 C   0  0  0  0  0  0  0  0  0  0  0  0
   60.6944   34.3195   46.8984 C   0  0  0  0  0  0  0  0  0  0  0  0
   60.7352   33.3727   47.9392 C   0  0  0  0  0  0  0  0  0  0  0  0
   61.9307   33.2667   48.7391 N   0  0  0  0  0  0  0  0  0  0  0  0
   61.9344   33.8889   50.0781 C   0  0  0  0  0  0  0  0  0  0  0  0
   63.2891   33.7845   50.7985 C   0  0  0  0  0  0  0  0  0  0  0  0
   64.3549   33.5706   49.8984 O   0  0  0  0  0  0  0  0  0  0  0  0
   64.1723   32.3244   49.2685 C   0  0  0  0  0  0  0  0  0  0  0  0
   63.0240   32.4049   48.2623 C   0  0  0  0  0  0  0  0  0  0  0  0
   59.5820   26.1656   45.4727 C   0  0  0  0  0  0  0  0  0  0  0  0
   57.0455   27.8006   45.8071 C   0  0  0  0  0  0  0  0  0  0  0  0
   57.0550   26.3040   45.9233 C   0  0  0  0  0  0  0  0  0  0  0  0
   55.8678   25.6758   46.1338 N   0  0  0  0  0  0  0  0  0  0  0  0
   55.7822   24.3272   46.2303 C   0  0  0  0  0  0  0  0  0  0  0  0
   54.6682   23.7799   46.4254 O   0  0  0  0  0  0  0  0  0  0  0  0
   56.8984   23.5689   46.1136 N   0  0  0  0  0  0  0  0  0  0  0  0
   58.1149   24.1329   45.8980 C   0  0  0  0  0  0  0  0  0  0  0  0
   59.1221   23.3847   45.7906 O   0  0  0  0  0  0  0  0  0  0  0  0
   58.2383   25.5342   45.7904 C   0  0  0  0  0  0  0  0  0  0  0  0
 23 24  1  0
 24 25  1  0
 25 26  1  0
 26 27  2  0
 26 28  1  0
 28 29  1  0
 29 30  2  0
 29 31  1  0
 31 22  1  0
 22  1  1  0
  1  2  2  0
  2  3  1  0
  3  4  2  0
  4  7  1  0
  7  8  2  0
  7  9  1  0
  9 10  1  0
 10 11  2  0
 11 12  1  0
 12 13  2  0
 13 14  1  0
 14 15  2  0
 15 16  1  0
 16 17  1  0
 17 18  1  0
 18 19  1  0
 19 20  1  0
 20 21  1  0
  4  5  1  0
  5  6  2  0
 31 24  2  0
  6  1  1  0
 15 10  1  0
 21 16  1  0
M  CHG 1   9  -1
M  CHG 1  25  -1
M  CHG 1  28  -1
M  END
> <UniqueID>
49

> <SMILES>
Cc1[n-]c(=O)[n-]c(=O)c1Cc1ccc(C(=O)[N-]c2ccccc2N2CCOCC2)cc1

> <Energy>
72.23836941363587

> <Genealogy>
Cc1[n-]c(=O)[n-]c(=O)c1Cc1ccc(C(=O)[N-]c2ccccc2N2CCOCC2)cc1 (protonated)
Cc1[n-]c(=O)[n-]c(=O)c1Cc1ccc(C(=O)[N-]c2ccccc2N2CCOCC2)cc1 (3D coordinates assigned)
Cc1[n-]c(=O)[n-]c(=O)c1Cc1ccc(C(=O)[N-]c2ccccc2N2CCOCC2)cc1 (nonaromatic ring conformer: 72.23836941363587 kcal/mol)

> <smiles>
Cc1[nH]c(=O)[nH]c(=O)c1Cc1ccc(C(=O)Nc2ccccc2N2CCOCC2)cc1

> <score_type>
oracle

> <origin>
adg

> <m_score__min__energy>
-14.32

> <m_primary>
energy

> <minimizedAffinity>
-7.93516

> <minimizedRMSD>
1.40814

> <CNNscore>
0.2211768478

> <CNNaffinity>
6.5047879219

> <CNN_VS>
1.4387085438

> <CNNaffinity_variance>
0.4759212732

$$$$
54:0


 27 29  0  0  0  0  0  0  0  0999 V2000
   60.0033   31.7124   47.3394 N   0  0  0  0  0  0  0  0  0  0  0  0
   58.8657   32.0854   46.7152 C   0  0  0  0  0  0  0  0  0  0  0  0
   58.2037   33.4202   46.8736 C   0  0  0  0  0  0  0  0  0  0  0  0
   58.4170   31.0732   45.8931 C   0  0  0  0  0  0  0  0  0  0  0  0
   59.3219   30.0290   46.0095 C   0  0  0  0  0  0  0  0  0  0  0  0
   59.2160   28.8912   45.2937 C   0  0  0  0  0  0  0  0  0  0  0  0
   60.2808   30.4426   46.9505 C   0  0  0  0  0  0  0  0  0  0  0  0
   61.2828   29.7196   47.4757 C   0  0  0  0  0  0  0  0  0  0  0  0
   58.3991   27.7194   45.6609 C   0  0  0  0  0  0  0  0  0  0  0  0
   57.0047   27.7204   45.4905 C   0  0  0  0  0  0  0  0  0  0  0  0
   56.3581   28.8188   44.9342 O   0  0  0  0  0  0  0  0  0  0  0  0
   56.2746   26.6432   45.8778 N   0  0  0  0  0  0  0  0  0  0  0  0
   56.8677   25.5609   46.4443 C   0  0  0  0  0  0  0  0  0  0  0  0
   56.1702   24.5720   46.7905 O   0  0  0  0  0  0  0  0  0  0  0  0
   58.2093   25.5485   46.6446 N   0  0  0  0  0  0  0  0  0  0  0  0
   58.9848   26.6004   46.2750 C   0  0  0  0  0  0  0  0  0  0  0  0
   60.2266   26.5581   46.4819 O   0  0  0  0  0  0  0  0  0  0  0  0
   60.4012   32.4156   49.6985 C   0  0  0  0  0  0  0  0  0  0  0  0
   61.1846   33.1518   50.6095 C   0  0  0  0  0  0  0  0  0  0  0  0
   62.2311   33.9609   50.1625 C   0  0  0  0  0  0  0  0  0  0  0  0
   62.5187   34.0451   48.8015 C   0  0  0  0  0  0  0  0  0  0  0  0
   61.7636   33.3155   47.8824 C   0  0  0  0  0  0  0  0  0  0  0  0
   60.7091   32.4974   48.3168 C   0  0  0  0  0  0  0  0  0  0  0  0
   58.0305   32.1855   50.5705 N   0  0  0  0  0  0  0  0  0  0  0  0
   59.2787   31.5929   50.2187 C   0  0  0  0  0  0  0  0  0  0  0  0
   59.4308   30.3522   50.3836 O   0  0  0  0  0  0  0  0  0  0  0  0
   57.2983   31.6239   50.9136 H   0  0  0  0  0  0  0  0  0  0  0  0
 24 25  1  0
 25 26  2  0
 25 18  1  0
 18 19  2  0
 19 20  1  0
 20 21  2  0
 21 22  1  0
 22 23  2  0
 23  1  1  0
  1  2  1  0
  2  3  1  0
  2  4  2  0
  4  5  1  0
  5  6  2  0
  6  9  1  0
  9 10  2  0
 10 11  1  0
 10 12  1  0
 12 13  1  0
 13 14  2  0
 13 15  1  0
 15 16  1  0
 16 17  2  0
  5  7  1  0
  7  8  2  0
 23 18  1  0
  7  1  1  0
 16  9  1  0
 24 27  1  0
M  CHG 1  11  -1
M  CHG 1  12  -1
M  CHG 1  15  -1
M  CHG 1  24  -1
M  END
> <UniqueID>
52

> <SMILES>
C=c1/c(=C\c2c([O-])[n-]c(=O)[n-]c2=O)cc(C)n1-c1ccccc1C([NH-])=O

> <Energy>
92.54360004941782

> <Genealogy>
C=c1c(=Cc2c([O-])[n-]c(=O)[n-]c2=O)cc(C)n1-c1ccccc1C([NH-])=O (protonated)
C=c1/c(=C\c2c([O-])[n-]c(=O)[n-]c2=O)cc(C)n1-c1ccccc1C([NH-])=O (cis-trans isomerization)
C=c1/c(=C\c2c([O-])[n-]c(=O)[n-]c2=O)cc(C)n1-c1ccccc1C([NH-])=O (3D coordinates assigned)
C=c1/c(=C\c2c([O-])[n-]c(=O)[n-]c2=O)cc(C)n1-c1ccccc1C([NH-])=O (optimized conformer: 92.54360004941782 kcal/mol)

> <smiles>
C=c1c(=Cc2c(O)[nH]c(=O)[nH]c2=O)cc(C)n1-c1ccccc1C(N)=O

> <score_type>
oracle

> <origin>
adg

> <m_score__min__energy>
-18.75

> <m_primary>
energy

> <minimizedAffinity>
-6.61363

> <minimizedRMSD>
1.23949

> <CNNscore>
0.4108130038

> <CNNaffinity>
6.8078022003

> <CNN_VS>
2.7967336178

> <CNNaffinity_variance>
0.4576558173

$$$$
59:0


 30 33  0  0  0  0  0  0  0  0999 V2000
   57.9923   28.0592   44.9396 C   0  0  0  0  0  0  0  0  0  0  0  0
   58.5351   27.2927   45.8980 C   0  0  0  0  0  0  0  0  0  0  0  0
   58.5680   25.8892   45.9392 C   0  0  0  0  0  0  0  0  0  0  0  0
   57.9074   24.9672   45.2132 C   0  0  0  0  0  0  0  0  0  0  0  0
   59.4547   25.5525   46.9497 C   0  0  0  0  0  0  0  0  0  0  0  0
   59.8657   26.7344   47.5326 C   0  0  0  0  0  0  0  0  0  0  0  0
   60.8159   26.8266   48.6871 C   0  0  0  0  0  0  0  0  0  0  0  0
   59.3086   27.7904   46.8977 N   0  0  0  0  0  0  0  0  0  0  0  0
   56.5489   24.4720   45.4900 C   0  0  0  0  0  0  0  0  0  0  0  0
   56.1307   23.2116   45.2686 N   0  0  0  0  0  0  0  0  0  0  0  0
   54.8086   23.2720   45.5319 C   0  0  0  0  0  0  0  0  0  0  0  0
   54.0559   22.2660   45.4507 O   0  0  0  0  0  0  0  0  0  0  0  0
   54.3533   24.4945   45.8791 N   0  0  0  0  0  0  0  0  0  0  0  0
   55.4662   25.2437   45.8334 C   0  0  0  0  0  0  0  0  0  0  0  0
   55.4899   26.6082   46.0936 O   0  0  0  0  0  0  0  0  0  0  0  0
   59.5395   29.1765   47.2098 C   0  0  0  0  0  0  0  0  0  0  0  0
   58.8399   29.7941   48.2565 C   0  0  0  0  0  0  0  0  0  0  0  0
   59.0584   31.1429   48.5495 C   0  0  0  0  0  0  0  0  0  0  0  0
   59.9831   31.8863   47.8039 C   0  0  0  0  0  0  0  0  0  0  0  0
   60.6821   31.2696   46.7550 C   0  0  0  0  0  0  0  0  0  0  0  0
   60.4617   29.9218   46.4607 C   0  0  0  0  0  0  0  0  0  0  0  0
   60.2321   33.5912   48.1732 S   0  0  0  0  0  0  0  0  0  0  0  0
   60.0928   33.7806   49.6583 O   0  0  0  0  0  0  0  0  0  0  0  0
   61.6176   34.0086   47.7644 O   0  0  0  0  0  0  0  0  0  0  0  0
   59.0381   34.5601   47.3383 N   0  0  0  0  0  0  0  0  0  0  0  0
   57.9816   33.7200   46.7615 C   0  0  0  0  0  0  0  0  0  0  0  0
   58.3714   33.4098   45.3228 C   0  0  0  0  0  0  0  0  0  0  0  0
   59.4457   34.4212   44.9625 C   0  0  0  0  0  0  0  0  0  0  0  0
   59.6388   35.2770   46.2066 C   0  0  0  0  0  0  0  0  0  0  0  0
   58.6620   35.2054   48.0329 H   0  0  0  0  0  0  0  0  0  0  0  0
  1  2  2  0
  2  3  1  0
  3  4  2  0
  4  9  1  0
  9 10  1  0
 10 11  1  0
 11 12  2  0
 11 13  1  0
 13 14  1  0
 14 15  1  0
  3  5  1  0
  5  6  2  0
  6  7  1  0
  6  8  1  0
  8 16  1  0
 16 17  2  0
 17 18  1  0
 18 19  2  0
 19 22  1  0
 22 23  2  0
 22 24  2  0
 22 25  1  0
 25 26  1  0
 26 27  1  0
 27 28  1  0
 28 29  1  0
 19 20  1  0
 20 21  2  0
  8  2  1  0
 21 16  1  0
 14  9  2  0
 29 25  1  0
 25 30  1  0
M  CHG 1  10  -1
M  CHG 1  13  -1
M  CHG 1  15  -1
M  CHG 1  25   1
M  END
> <UniqueID>
57

> <SMILES>
C=c1/c(=C\c2[n-]c(=O)[n-]c2[O-])cc(C)n1-c1ccc(S(=O)(=O)[NH+]2CCCC2)cc1

> <Energy>
127.66747784759761

> <Genealogy>
C=c1c(=Cc2[n-]c(=O)[n-]c2[O-])cc(C)n1-c1ccc(S(=O)(=O)[NH+]2CCCC2)cc1 (protonated)
C=c1/c(=C\c2[n-]c(=O)[n-]c2[O-])cc(C)n1-c1ccc(S(=O)(=O)[NH+]2CCCC2)cc1 (cis-trans isomerization)
C=c1/c(=C\c2[n-]c(=O)[n-]c2[O-])cc(C)n1-c1ccc(S(=O)(=O)[NH+]2CCCC2)cc1 (3D coordinates assigned)
C=c1/c(=C\c2[n-]c(=O)[n-]c2[O-])cc(C)n1-c1ccc(S(=O)(=O)[NH+]2CCCC2)cc1 (nonaromatic ring conformer: 127.66747784759761 kcal/mol)

> <smiles>
C=c1c(=Cc2[nH]c(=O)[nH]c2O)cc(C)n1-c1ccc(S(=O)(=O)N2CCCC2)cc1

> <score_type>
oracle

> <origin>
adg

> <m_score__min__energy>
-14.66

> <m_primary>
energy

> <minimizedAffinity>
-7.31760

> <minimizedRMSD>
0.52263

> <CNNscore>
0.1037519127

> <CNNaffinity>
6.1849060059

> <CNN_VS>
0.6416958570

> <CNNaffinity_variance>
0.2629505694

$$$$
67:0


 32 35  0  0  0  0  0  0  0  0999 V2000
   59.4357   29.0758   46.9389 C   0  0  0  0  0  0  0  0  0  0  0  0
   59.0370   29.2192   48.2736 C   0  0  0  0  0  0  0  0  0  0  0  0
   59.6821   30.1376   49.1044 C   0  0  0  0  0  0  0  0  0  0  0  0
   60.7274   30.9362   48.6090 C   0  0  0  0  0  0  0  0  0  0  0  0
   61.1302   30.7794   47.2730 C   0  0  0  0  0  0  0  0  0  0  0  0
   60.4856   29.8589   46.4430 C   0  0  0  0  0  0  0  0  0  0  0  0
   59.7364   26.1254   46.8489 C   0  0  0  0  0  0  0  0  0  0  0  0
   58.8785   26.7944   46.0638 C   0  0  0  0  0  0  0  0  0  0  0  0
   58.0769   26.2696   45.0358 C   0  0  0  0  0  0  0  0  0  0  0  0
   57.8119   24.9982   44.6814 C   0  0  0  0  0  0  0  0  0  0  0  0
   57.5249   27.3592   44.3809 C   0  0  0  0  0  0  0  0  0  0  0  0
   57.9436   28.4868   45.0561 C   0  0  0  0  0  0  0  0  0  0  0  0
   57.5838   29.8925   44.6833 C   0  0  0  0  0  0  0  0  0  0  0  0
   58.7559   28.1471   46.0795 N   0  0  0  0  0  0  0  0  0  0  0  0
   56.6247   24.2249   45.0801 C   0  0  0  0  0  0  0  0  0  0  0  0
   56.4868   22.8955   44.9212 N   0  0  0  0  0  0  0  0  0  0  0  0
   55.3237   22.6261   45.5536 C   0  0  0  0  0  0  0  0  0  0  0  0
   54.8367   21.4675   45.6116 O   0  0  0  0  0  0  0  0  0  0  0  0
   54.7290   23.6941   46.1267 N   0  0  0  0  0  0  0  0  0  0  0  0
   55.5735   24.6946   45.8300 C   0  0  0  0  0  0  0  0  0  0  0  0
   55.3902   26.0096   46.2409 O   0  0  0  0  0  0  0  0  0  0  0  0
   61.3974   31.9575   49.5113 C   0  0  0  0  0  0  0  0  0  0  0  0
   61.4659   33.3510   48.9662 N   0  0  0  0  0  0  0  0  0  0  0  0
   62.5010   34.2170   49.5665 C   0  0  0  0  0  0  0  0  0  0  0  0
   61.7797   33.2056   48.0066 H   0  0  0  0  0  0  0  0  0  0  0  0
   60.1430   34.0242   48.8900 C   0  0  0  0  0  0  0  0  0  0  0  0
   59.4651   33.9298   47.5395 C   0  0  0  0  0  0  0  0  0  0  0  0
   58.2346   33.2643   47.3998 C   0  0  0  0  0  0  0  0  0  0  0  0
   57.6024   33.2025   46.1539 C   0  0  0  0  0  0  0  0  0  0  0  0
   58.1788   33.8238   45.0436 C   0  0  0  0  0  0  0  0  0  0  0  0
   59.3847   34.5182   45.1792 C   0  0  0  0  0  0  0  0  0  0  0  0
   60.0217   34.5781   46.4224 C   0  0  0  0  0  0  0  0  0  0  0  0
  7  8  2  0
  8  9  1  0
  9 10  2  0
 10 15  1  0
 15 16  1  0
 16 17  1  0
 17 18  2  0
 17 19  1  0
 19 20  1  0
 20 21  1  0
  9 11  1  0
 11 12  2  0
 12 13  1  0
 12 14  1  0
 14  1  1  0
  1  2  2  0
  2  3  1  0
  3  4  2  0
  4 22  1  0
 22 23  1  0
 23 24  1  0
 23 26  1  0
 26 27  1  0
 27 28  2  0
 28 29  1  0
 29 30  2  0
 30 31  1  0
 31 32  2  0
  4  5  1  0
  5  6  2  0
 14  8  1  0
  6  1  1  0
 20 15  2  0
 32 27  1  0
 23 25  1  0
M  CHG 1  16  -1
M  CHG 1  19  -1
M  CHG 1  21  -1
M  CHG 1  23   1
M  END
> <UniqueID>
64

> <SMILES>
C=c1/c(=C\c2[n-]c(=O)[n-]c2[O-])cc(C)n1-c1ccc(C[N@H+](C)Cc2ccccc2)cc1

> <Energy>
144.67890829297698

> <Genealogy>
C=c1c(=Cc2[n-]c(=O)[n-]c2[O-])cc(C)n1-c1ccc(C[NH+](C)Cc2ccccc2)cc1 (protonated)
C=c1c(=Cc2[n-]c(=O)[n-]c2[O-])cc(C)n1-c1ccc(C[N@H+](C)Cc2ccccc2)cc1 (chirality)
C=c1/c(=C\c2[n-]c(=O)[n-]c2[O-])cc(C)n1-c1ccc(C[N@H+](C)Cc2ccccc2)cc1 (cis-trans isomerization)
C=c1/c(=C\c2[n-]c(=O)[n-]c2[O-])cc(C)n1-c1ccc(C[N@H+](C)Cc2ccccc2)cc1 (3D coordinates assigned)
C=c1/c(=C\c2[n-]c(=O)[n-]c2[O-])cc(C)n1-c1ccc(C[N@H+](C)Cc2ccccc2)cc1 (optimized conformer: 144.67890829297698 kcal/mol)

> <smiles>
C=c1c(=Cc2[nH]c(=O)[nH]c2O)cc(C)n1-c1ccc(CN(C)Cc2ccccc2)cc1

> <score_type>
oracle

> <origin>
adg

> <m_score__min__energy>
-14.9

> <m_primary>
energy

> <minimizedAffinity>
-9.51866

> <minimizedRMSD>
0.70182

> <CNNscore>
0.2064758390

> <CNNaffinity>
6.5482215881

> <CNN_VS>
1.3520495892

> <CNNaffinity_variance>
0.1710836440

$$$$
68:0


 29 32  0  0  0  0  0  0  0  0999 V2000
   59.3930   30.4125   48.0313 C   0  0  0  0  0  0  0  0  0  0  0  0
   58.9279   30.8396   46.8453 C   0  0  0  0  0  0  0  0  0  0  0  0
   58.9882   30.1598   45.6174 C   0  0  0  0  0  0  0  0  0  0  0  0
   59.3573   28.8983   45.3172 C   0  0  0  0  0  0  0  0  0  0  0  0
   58.5566   31.0566   44.6554 C   0  0  0  0  0  0  0  0  0  0  0  0
   58.2091   32.2164   45.3155 C   0  0  0  0  0  0  0  0  0  0  0  0
   57.6714   33.4443   44.6451 C   0  0  0  0  0  0  0  0  0  0  0  0
   58.4118   32.0834   46.6459 N   0  0  0  0  0  0  0  0  0  0  0  0
   58.7163   27.6693   45.8249 C   0  0  0  0  0  0  0  0  0  0  0  0
   57.3350   27.4567   45.6850 C   0  0  0  0  0  0  0  0  0  0  0  0
   56.5240   28.4189   45.0944 O   0  0  0  0  0  0  0  0  0  0  0  0
   56.7808   26.2970   46.1246 N   0  0  0  0  0  0  0  0  0  0  0  0
   57.5439   25.3236   46.6850 C   0  0  0  0  0  0  0  0  0  0  0  0
   57.0075   24.2591   47.0887 O   0  0  0  0  0  0  0  0  0  0  0  0
   58.8860   25.4955   46.8056 N   0  0  0  0  0  0  0  0  0  0  0  0
   59.4872   26.6370   46.3822 C   0  0  0  0  0  0  0  0  0  0  0  0
   60.7358   26.7588   46.5028 O   0  0  0  0  0  0  0  0  0  0  0  0
   58.2095   33.1407   47.6483 C   0  0  0  0  0  0  0  0  0  0  0  0
   59.4152   34.0835   47.6817 C   0  0  0  0  0  0  0  0  0  0  0  0
   60.3251   33.7325   48.8193 C   0  0  0  0  0  0  0  0  0  0  0  0
   60.0045   33.7475   50.1730 C   0  0  0  0  0  0  0  0  0  0  0  0
   61.0928   33.4492   50.9180 N   0  0  0  0  0  0  0  0  0  0  0  0
   62.0994   33.2611   50.0480 C   0  0  0  0  0  0  0  0  0  0  0  0
   63.4276   32.9551   50.3444 C   0  0  0  0  0  0  0  0  0  0  0  0
   64.3281   32.8227   49.2713 C   0  0  0  0  0  0  0  0  0  0  0  0
   63.8865   33.0025   47.9415 C   0  0  0  0  0  0  0  0  0  0  0  0
   62.5409   33.3138   47.6720 C   0  0  0  0  0  0  0  0  0  0  0  0
   61.6711   33.4311   48.7560 C   0  0  0  0  0  0  0  0  0  0  0  0
   61.1384   33.3831   51.8992 H   0  0  0  0  0  0  0  0  0  0  0  0
  1  2  2  0
  2  3  1  0
  3  4  2  0
  4  9  1  0
  9 10  2  0
 10 11  1  0
 10 12  1  0
 12 13  1  0
 13 14  2  0
 13 15  1  0
 15 16  1  0
 16 17  2  0
  3  5  1  0
  5  6  2  0
  6  7  1  0
  6  8  1  0
  8 18  1  0
 18 19  1  0
 19 20  1  0
 20 21  2  0
 21 22  1  0
 22 23  1  0
 23 24  2  0
 24 25  1  0
 25 26  2  0
 26 27  1  0
 27 28  2  0
  8  2  1  0
 28 20  1  0
 16  9  1  0
 28 23  1  0
 22 29  1  0
M  CHG 1  11  -1
M  CHG 1  12  -1
M  CHG 1  15  -1
M  END
> <UniqueID>
65

> <SMILES>
C=c1/c(=C\c2c([O-])[n-]c(=O)[n-]c2=O)cc(C)n1CCc1c[nH]c2ccccc12

> <Energy>
120.9796672070883

> <Genealogy>
C=c1c(=Cc2c([O-])[n-]c(=O)[n-]c2=O)cc(C)n1CCc1c[nH]c2ccccc12 (protonated)
C=c1/c(=C\c2c([O-])[n-]c(=O)[n-]c2=O)cc(C)n1CCc1c[nH]c2ccccc12 (cis-trans isomerization)
C=c1/c(=C\c2c([O-])[n-]c(=O)[n-]c2=O)cc(C)n1CCc1c[nH]c2ccccc12 (3D coordinates assigned)
C=c1/c(=C\c2c([O-])[n-]c(=O)[n-]c2=O)cc(C)n1CCc1c[nH]c2ccccc12 (optimized conformer: 120.9796672070883 kcal/mol)

> <smiles>
C=c1c(=Cc2c(O)[nH]c(=O)[nH]c2=O)cc(C)n1CCc1c[nH]c2ccccc12

> <score_type>
oracle

> <origin>
adg

> <m_score__min__energy>
-16.91

> <m_primary>
energy

> <minimizedAffinity>
-8.08632

> <minimizedRMSD>
1.05952

> <CNNscore>
0.3982441425

> <CNNaffinity>
6.8323597908

> <CNN_VS>
2.7209472656

> <CNNaffinity_variance>
0.0101632206

$$$$
78:0


 36 40  0  0  0  0  0  0  0  0999 V2000
   58.3019   31.0683   45.5782 C   0  0  0  0  0  0  0  0  0  0  0  0
   57.2548   31.8524   45.0804 C   0  0  0  0  0  0  0  0  0  0  0  0
   57.2341   33.2267   45.3182 C   0  0  0  0  0  0  0  0  0  0  0  0
   58.2541   33.8277   46.0600 C   0  0  0  0  0  0  0  0  0  0  0  0
   59.3101   33.0542   46.5816 C   0  0  0  0  0  0  0  0  0  0  0  0
   59.3256   31.6713   46.3227 C   0  0  0  0  0  0  0  0  0  0  0  0
   59.5063   28.9522   47.2883 C   0  0  0  0  0  0  0  0  0  0  0  0
   58.8818   28.6934   46.1275 C   0  0  0  0  0  0  0  0  0  0  0  0
   58.6808   27.4317   45.5501 C   0  0  0  0  0  0  0  0  0  0  0  0
   59.0828   26.2416   46.0473 C   0  0  0  0  0  0  0  0  0  0  0  0
   57.9564   27.6542   44.3838 C   0  0  0  0  0  0  0  0  0  0  0  0
   57.7611   29.0175   44.2883 C   0  0  0  0  0  0  0  0  0  0  0  0
   57.0065   29.6957   43.1864 C   0  0  0  0  0  0  0  0  0  0  0  0
   58.3161   29.6479   45.3471 N   0  0  0  0  0  0  0  0  0  0  0  0
   58.3205   24.9752   45.9773 C   0  0  0  0  0  0  0  0  0  0  0  0
   58.8299   23.7568   45.7197 N   0  0  0  0  0  0  0  0  0  0  0  0
   57.7595   22.9397   45.8073 C   0  0  0  0  0  0  0  0  0  0  0  0
   57.8382   21.6976   45.6226 O   0  0  0  0  0  0  0  0  0  0  0  0
   56.5994   23.5574   46.1140 N   0  0  0  0  0  0  0  0  0  0  0  0
   56.9735   24.8434   46.2219 C   0  0  0  0  0  0  0  0  0  0  0  0
   56.0991   25.8744   46.5385 O   0  0  0  0  0  0  0  0  0  0  0  0
   60.4294   33.6545   47.3662 C   0  0  0  0  0  0  0  0  0  0  0  0
   60.5554   34.9117   47.3490 O   0  0  0  0  0  0  0  0  0  0  0  0
   61.3800   32.8750   48.1415 N   0  0  0  0  0  0  0  0  0  0  0  0
   62.7833   33.1222   47.7068 C   0  0  0  0  0  0  0  0  0  0  0  0
   63.7922   33.2037   48.8679 C   0  0  0  0  0  0  0  0  0  0  0  0
   63.4772   32.2232   49.9151 N   0  0  0  0  0  0  0  0  0  0  0  0
   62.0849   32.0656   50.3636 C   0  0  0  0  0  0  0  0  0  0  0  0
   61.1532   33.0093   49.5981 C   0  0  0  0  0  0  0  0  0  0  0  0
   60.6486   33.5198   48.0052 H   0  0  0  0  0  0  0  0  0  0  0  0
   64.5354   31.5829   50.6592 C   0  0  0  0  0  0  0  0  0  0  0  0
   65.8623   32.0371   50.5454 C   0  0  0  0  0  0  0  0  0  0  0  0
   66.8877   31.4138   51.2641 C   0  0  0  0  0  0  0  0  0  0  0  0
   66.6024   30.3320   52.0997 C   0  0  0  0  0  0  0  0  0  0  0  0
   65.2896   29.8695   52.2178 C   0  0  0  0  0  0  0  0  0  0  0  0
   64.2603   30.4897   51.5032 C   0  0  0  0  0  0  0  0  0  0  0  0
  7  8  2  0
  8  9  1  0
  9 10  2  0
 10 15  1  0
 15 16  1  0
 16 17  1  0
 17 18  2  0
 17 19  1  0
 19 20  1  0
 20 21  1  0
  9 11  1  0
 11 12  2  0
 12 13  1  0
 12 14  1  0
 14  1  1  0
  1  2  2  0
  2  3  1  0
  3  4  2  0
  4  5  1  0
  5 22  1  0
 22 23  2  0
 22 24  1  0
 24 25  1  0
 25 26  1  0
 26 27  1  0
 27 31  1  0
 31 32  2  0
 32 33  1  0
 33 34  2  0
 34 35  1  0
 35 36  2  0
 27 28  1  0
 28 29  1  0
  5  6  2  0
 14  8  1  0
  6  1  1  0
 20 15  2  0
 29 24  1  0
 36 31  1  0
 24 30  1  0
M  CHG 1  16  -1
M  CHG 1  19  -1
M  CHG 1  21  -1
M  CHG 1  24   1
M  END
> <UniqueID>
74

> <SMILES>
C=c1/c(=C/c2[n-]c(=O)[n-]c2[O-])cc(C)n1-c1cccc(C(=O)[NH+]2CCN(c3ccccc3)CC2)c1

> <Energy>
151.1806308493476

> <Genealogy>
C=c1c(=Cc2[n-]c(=O)[n-]c2[O-])cc(C)n1-c1cccc(C(=O)[NH+]2CCN(c3ccccc3)CC2)c1 (protonated)
C=c1/c(=C/c2[n-]c(=O)[n-]c2[O-])cc(C)n1-c1cccc(C(=O)[NH+]2CCN(c3ccccc3)CC2)c1 (cis-trans isomerization)
C=c1/c(=C/c2[n-]c(=O)[n-]c2[O-])cc(C)n1-c1cccc(C(=O)[NH+]2CCN(c3ccccc3)CC2)c1 (3D coordinates assigned)
C=c1/c(=C/c2[n-]c(=O)[n-]c2[O-])cc(C)n1-c1cccc(C(=O)[NH+]2CCN(c3ccccc3)CC2)c1 (nonaromatic ring conformer: 151.1806308493476 kcal/mol)

> <smiles>
C=c1c(=Cc2[nH]c(=O)[nH]c2O)cc(C)n1-c1cccc(C(=O)N2CCN(c3ccccc3)CC2)c1

> <score_type>
oracle

> <origin>
adg

> <m_score__min__energy>
-17.199999999999999

> <m_primary>
energy

> <minimizedAffinity>
-9.24251

> <minimizedRMSD>
1.11558

> <CNNscore>
0.2182365954

> <CNNaffinity>
6.9961414337

> <CNN_VS>
1.5268141031

> <CNNaffinity_variance>
0.0951951817

$$$$
2:0


 27 29  0  0  0  0  0  0  0  0999 V2000
   60.6491   30.2559   47.1710 C   0  0  0  0  0  0  0  0  0  0  0  0
   59.9853   31.3586   46.7908 C   0  0  0  0  0  0  0  0  0  0  0  0
   59.2004   31.5355   45.6387 C   0  0  0  0  0  0  0  0  0  0  0  0
   58.7880   30.6571   44.7028 C   0  0  0  0  0  0  0  0  0  0  0  0
   58.8599   32.8795   45.6030 C   0  0  0  0  0  0  0  0  0  0  0  0
   59.3941   33.4562   46.7365 C   0  0  0  0  0  0  0  0  0  0  0  0
   59.2893   34.9072   47.0933 C   0  0  0  0  0  0  0  0  0  0  0  0
   60.0644   32.5355   47.4597 N   0  0  0  0  0  0  0  0  0  0  0  0
   58.4369   29.2447   44.9483 C   0  0  0  0  0  0  0  0  0  0  0  0
   57.1040   28.8742   45.1713 C   0  0  0  0  0  0  0  0  0  0  0  0
   56.0919   29.8280   45.1110 O   0  0  0  0  0  0  0  0  0  0  0  0
   56.7910   27.5791   45.4372 N   0  0  0  0  0  0  0  0  0  0  0  0
   57.7631   26.6269   45.5086 C   0  0  0  0  0  0  0  0  0  0  0  0
   57.3754   25.0706   45.8272 S   0  0  0  0  0  0  0  0  0  0  0  0
   59.0633   26.9688   45.3254 N   0  0  0  0  0  0  0  0  0  0  0  0
   59.4238   28.2492   45.0571 C   0  0  0  0  0  0  0  0  0  0  0  0
   60.6426   28.5316   44.9128 O   0  0  0  0  0  0  0  0  0  0  0  0
   55.8504   27.3256   45.5800 H   0  0  0  0  0  0  0  0  0  0  0  0
   60.8247   32.8085   48.6479 C   0  0  0  0  0  0  0  0  0  0  0  0
   62.0447   33.4899   48.5177 C   0  0  0  0  0  0  0  0  0  0  0  0
   62.8021   33.8088   49.6455 C   0  0  0  0  0  0  0  0  0  0  0  0
   62.3466   33.4533   50.9140 C   0  0  0  0  0  0  0  0  0  0  0  0
   61.1347   32.7737   51.0604 C   0  0  0  0  0  0  0  0  0  0  0  0
   60.3564   32.4362   49.9339 C   0  0  0  0  0  0  0  0  0  0  0  0
   59.0810   31.6980   50.1333 C   0  0  0  0  0  0  0  0  0  0  0  0
   58.0208   32.3249   50.3986 O   0  0  0  0  0  0  0  0  0  0  0  0
   59.0282   30.3113   50.0517 O   0  0  0  0  0  0  0  0  0  0  0  0
  1  2  2  0
  2  3  1  0
  3  4  2  0
  4  9  1  0
  9 10  2  0
 10 11  1  0
 10 12  1  0
 12 13  1  0
 13 14  2  0
 13 15  1  0
 15 16  1  0
 16 17  2  0
  3  5  1  0
  5  6  2  0
  6  7  1  0
  6  8  1  0
  8 19  1  0
 19 20  2  0
 20 21  1  0
 21 22  2  0
 22 23  1  0
 23 24  2  0
 24 25  1  0
 25 26  2  0
 25 27  1  0
  8  2  1  0
 24 19  1  0
 16  9  1  0
 12 18  1  0
M  CHG 1  11  -1
M  CHG 1  15  -1
M  CHG 1  27  -1
M  END
> <UniqueID>
3

> <SMILES>
C=c1c(=Cc2c([O-])[nH]c(=S)[n-]c2=O)cc(C)n1-c1ccccc1C(=O)[O-]

> <Energy>
92.29616946201314

> <Genealogy>
C=c1c(=Cc2c([O-])[nH]c(=S)[n-]c2=O)cc(C)n1-c1ccccc1C(=O)[O-] (protonated)
C=c1c(=Cc2c([O-])[nH]c(=S)[n-]c2=O)cc(C)n1-c1ccccc1C(=O)[O-] (3D coordinates assigned)
C=c1c(=Cc2c([O-])[nH]c(=S)[n-]c2=O)cc(C)n1-c1ccccc1C(=O)[O-] (optimized conformer: 92.29616946201314 kcal/mol)

> <smiles>
C=c1c(=Cc2c(O)[nH]c(=S)[nH]c2=O)cc(C)n1-c1ccccc1C(=O)O

> <score_type>
oracle

> <origin>
adg

> <m_score__min__energy>
-15.199999999999999

> <m_primary>
energy

> <minimizedAffinity>
-8.03900

> <minimizedRMSD>
1.64573

> <CNNscore>
0.3362464905

> <CNNaffinity>
6.4432396889

> <CNN_VS>
2.1665167809

> <CNNaffinity_variance>
0.0579683781

$$$$
6:0


 35 38  0  0  0  0  0  0  0  0999 V2000
   56.9286   24.2068   44.6812 C   0  0  0  0  0  0  0  0  0  0  0  0
   57.7510   25.1615   45.1683 C   0  0  0  0  0  0  0  0  0  0  0  0
   58.2101   25.2852   46.4753 C   0  0  0  0  0  0  0  0  0  0  0  0
   59.0041   26.4145   46.5123 C   0  0  0  0  0  0  0  0  0  0  0  0
   59.7069   26.9253   47.7345 C   0  0  0  0  0  0  0  0  0  0  0  0
   59.0540   26.9974   45.2962 N   0  0  0  0  0  0  0  0  0  0  0  0
   59.7965   28.1881   44.9730 C   0  0  0  0  0  0  0  0  0  0  0  0
   60.9120   28.0764   44.3960 O   0  0  0  0  0  0  0  0  0  0  0  0
   58.2991   26.2397   44.4605 C   0  0  0  0  0  0  0  0  0  0  0  0
   58.1591   26.4870   43.1480 C   0  0  0  0  0  0  0  0  0  0  0  0
   54.8626   26.1228   45.9515 O   0  0  0  0  0  0  0  0  0  0  0  0
   54.6815   24.7549   45.7598 C   0  0  0  0  0  0  0  0  0  0  0  0
   53.5466   24.1143   46.0841 N   0  0  0  0  0  0  0  0  0  0  0  0
   53.8109   22.8403   45.7331 C   0  0  0  0  0  0  0  0  0  0  0  0
   52.9760   21.9083   45.8769 O   0  0  0  0  0  0  0  0  0  0  0  0
   55.0374   22.6428   45.2048 N   0  0  0  0  0  0  0  0  0  0  0  0
   55.5981   23.8659   45.2328 C   0  0  0  0  0  0  0  0  0  0  0  0
   54.1729   26.6398   46.3190 H   0  0  0  0  0  0  0  0  0  0  0  0
   59.2801   29.5317   45.3240 C   0  0  0  0  0  0  0  0  0  0  0  0
   59.7617   30.2047   46.4582 C   0  0  0  0  0  0  0  0  0  0  0  0
   59.2873   31.4777   46.7839 C   0  0  0  0  0  0  0  0  0  0  0  0
   58.3123   32.1040   45.9866 C   0  0  0  0  0  0  0  0  0  0  0  0
   57.8188   31.4227   44.8606 C   0  0  0  0  0  0  0  0  0  0  0  0
   58.2963   30.1499   44.5332 C   0  0  0  0  0  0  0  0  0  0  0  0
   57.8241   33.4626   46.3183 C   0  0  0  0  0  0  0  0  0  0  0  0
   56.8782   33.9734   45.6576 O   0  0  0  0  0  0  0  0  0  0  0  0
   58.4338   34.2061   47.3762 N   0  0  0  0  0  0  0  0  0  0  0  0
   59.8496   34.5528   47.3878 C   0  0  0  0  0  0  0  0  0  0  0  0
   60.4939   34.1782   48.7314 C   0  0  0  0  0  0  0  0  0  0  0  0
   61.4125   33.0188   48.6748 N   0  0  0  0  0  0  0  0  0  0  0  0
   61.4852   32.2007   49.9049 C   0  0  0  0  0  0  0  0  0  0  0  0
   62.6776   32.5812   50.8160 C   0  0  0  0  0  0  0  0  0  0  0  0
   63.5337   33.5486   50.2397 O   0  0  0  0  0  0  0  0  0  0  0  0
   63.9024   33.1394   48.9434 C   0  0  0  0  0  0  0  0  0  0  0  0
   62.7039   33.2518   47.9900 C   0  0  0  0  0  0  0  0  0  0  0  0
 11 12  1  0
 12 13  1  0
 13 14  1  0
 14 15  2  0
 14 16  1  0
 16 17  1  0
 17  1  1  0
  1  2  2  0
  2  3  1  0
  3  4  2  0
  4  5  1  0
  4  6  1  0
  6  7  1  0
  7  8  2  0
  7 19  1  0
 19 20  2  0
 20 21  1  0
 21 22  2  0
 22 25  1  0
 25 26  2  0
 25 27  1  0
 27 28  1  0
 28 29  1  0
 29 30  1  0
 30 31  1  0
 31 32  1  0
 32 33  1  0
 33 34  1  0
 34 35  1  0
 22 23  1  0
 23 24  2  0
  6  9  1  0
  9 10  2  0
 17 12  2  0
  9  2  1  0
 24 19  1  0
 35 30  1  0
 11 18  1  0
M  CHG 1  13  -1
M  CHG 1  16  -1
M  CHG 1  27  -1
M  END
> <UniqueID>
7

> <SMILES>
C=c1/c(=C/c2[n-]c(=O)[n-]c2O)cc(C)n1C(=O)c1ccc(C(=O)[N-]CCN2CCOCC2)cc1

> <Energy>
142.5345009893762

> <Genealogy>
C=c1c(=Cc2[n-]c(=O)[n-]c2O)cc(C)n1C(=O)c1ccc(C(=O)[N-]CCN2CCOCC2)cc1 (protonated)
C=c1/c(=C/c2[n-]c(=O)[n-]c2O)cc(C)n1C(=O)c1ccc(C(=O)[N-]CCN2CCOCC2)cc1 (cis-trans isomerization)
C=c1/c(=C/c2[n-]c(=O)[n-]c2O)cc(C)n1C(=O)c1ccc(C(=O)[N-]CCN2CCOCC2)cc1 (3D coordinates assigned)
C=c1/c(=C/c2[n-]c(=O)[n-]c2O)cc(C)n1C(=O)c1ccc(C(=O)[N-]CCN2CCOCC2)cc1 (nonaromatic ring conformer: 142.5345009893762 kcal/mol)

> <smiles>
C=c1c(=Cc2[nH]c(=O)[nH]c2O)cc(C)n1C(=O)c1ccc(C(=O)NCCN2CCOCC2)cc1

> <score_type>
oracle

> <origin>
adg

> <m_score__min__energy>
-15.279999999999999

> <m_primary>
energy

> <minimizedAffinity>
-8.26642

> <minimizedRMSD>
0.74267

> <CNNscore>
0.1325871348

> <CNNaffinity>
6.2766318321

> <CNN_VS>
0.8322006464

> <CNNaffinity_variance>
0.1760757118

$$$$
16:0


 31 33  0  0  0  0  0  0  0  0999 V2000
   56.1702   29.8365   44.8586 O   0  0  0  0  0  0  0  0  0  0  0  0
   57.2829   29.2843   44.6433 C   0  0  0  0  0  0  0  0  0  0  0  0
   58.5045   29.9030   45.0769 N   0  0  0  0  0  0  0  0  0  0  0  0
   59.3286   29.3651   45.0494 H   0  0  0  0  0  0  0  0  0  0  0  0
   58.6004   31.2570   45.5484 C   0  0  0  0  0  0  0  0  0  0  0  0
   58.0682   32.3298   44.8120 C   0  0  0  0  0  0  0  0  0  0  0  0
   58.1996   33.6410   45.2801 C   0  0  0  0  0  0  0  0  0  0  0  0
   58.8719   33.8923   46.4784 C   0  0  0  0  0  0  0  0  0  0  0  0
   59.4182   32.8356   47.2147 C   0  0  0  0  0  0  0  0  0  0  0  0
   59.2920   31.5216   46.7403 C   0  0  0  0  0  0  0  0  0  0  0  0
   60.2782   33.1707   48.7149 S   0  0  0  0  0  0  0  0  0  0  0  0
   59.5792   32.5090   49.8723 O   0  0  0  0  0  0  0  0  0  0  0  0
   60.2827   34.6578   48.9445 O   0  0  0  0  0  0  0  0  0  0  0  0
   61.9173   32.5816   48.5929 N   0  0  0  0  0  0  0  0  0  0  0  0
   62.0738   31.2856   49.2922 C   0  0  0  0  0  0  0  0  0  0  0  0
   62.8370   31.4302   50.6214 C   0  0  0  0  0  0  0  0  0  0  0  0
   64.1316   31.9892   50.4614 O   0  0  0  0  0  0  0  0  0  0  0  0
   64.2071   32.9808   49.4450 C   0  0  0  0  0  0  0  0  0  0  0  0
   62.8564   33.6127   49.0726 C   0  0  0  0  0  0  0  0  0  0  0  0
   57.3206   27.9320   44.0081 C   0  0  0  0  0  0  0  0  0  0  0  0
   58.5918   27.2886   44.3329 N   0  0  0  0  0  0  0  0  0  0  0  0
   58.4231   26.3357   45.7761 S   0  0  0  0  0  0  0  0  0  0  0  0
   57.7367   27.1567   46.8332 O   0  0  0  0  0  0  0  0  0  0  0  0
   59.7882   25.9442   46.2649 O   0  0  0  0  0  0  0  0  0  0  0  0
   57.4956   24.8699   45.4394 C   0  0  0  0  0  0  0  0  0  0  0  0
   58.1582   23.7196   44.9815 C   0  0  0  0  0  0  0  0  0  0  0  0
   57.4420   22.5504   44.7144 C   0  0  0  0  0  0  0  0  0  0  0  0
   56.0603   22.5159   44.9092 C   0  0  0  0  0  0  0  0  0  0  0  0
   55.3920   23.6501   45.3796 C   0  0  0  0  0  0  0  0  0  0  0  0
   56.1052   24.8239   45.6530 C   0  0  0  0  0  0  0  0  0  0  0  0
   55.4216   25.9345   46.1385 O   0  0  0  0  0  0  0  0  0  0  0  0
  1  2  2  0
  2 20  1  0
 20 21  1  0
 21 22  1  0
 22 23  2  0
 22 24  2  0
 22 25  1  0
 25 26  2  0
 26 27  1  0
 27 28  2  0
 28 29  1  0
 29 30  2  0
 30 31  1  0
  2  3  1  0
  3  5  1  0
  5  6  2  0
  6  7  1  0
  7  8  2  0
  8  9  1  0
  9 11  1  0
 11 12  2  0
 11 13  2  0
 11 14  1  0
 14 15  1  0
 15 16  1  0
 16 17  1  0
 17 18  1  0
 18 19  1  0
  9 10  2  0
 30 25  1  0
 10  5  1  0
 19 14  1  0
  3  4  1  0
M  CHG 1  21  -1
M  CHG 1  31  -1
M  END
> <UniqueID>
16

> <SMILES>
O=C(C[N-]S(=O)(=O)c1ccccc1[O-])Nc1cccc(S(=O)(=O)N2CCOCC2)c1

> <Energy>
63.66400233422362

> <Genealogy>
O=C(C[N-]S(=O)(=O)c1ccccc1[O-])Nc1cccc(S(=O)(=O)N2CCOCC2)c1 (protonated)
O=C(C[N-]S(=O)(=O)c1ccccc1[O-])Nc1cccc(S(=O)(=O)N2CCOCC2)c1 (3D coordinates assigned)
O=C(C[N-]S(=O)(=O)c1ccccc1[O-])Nc1cccc(S(=O)(=O)N2CCOCC2)c1 (nonaromatic ring conformer: 63.66400233422362 kcal/mol)

> <smiles>
O=C(CNS(=O)(=O)c1ccccc1O)Nc1cccc(S(=O)(=O)N2CCOCC2)c1

> <score_type>
oracle

> <origin>
adg

> <m_score__min__energy>
-15.449999999999999

> <m_primary>
energy

> <minimizedAffinity>
-7.92991

> <minimizedRMSD>
1.40760

> <CNNscore>
0.6568691730

> <CNNaffinity>
6.7849659920

> <CNN_VS>
4.4568347931

> <CNNaffinity_variance>
0.2222271562

$$$$
20:0


 33 36  0  0  0  0  0  0  0  0999 V2000
   58.6252   30.8283   45.3072 C   0  0  0  0  0  0  0  0  0  0  0  0
   58.1030   31.3643   44.1218 C   0  0  0  0  0  0  0  0  0  0  0  0
   58.0153   32.7479   43.9548 C   0  0  0  0  0  0  0  0  0  0  0  0
   58.4593   33.6062   44.9636 C   0  0  0  0  0  0  0  0  0  0  0  0
   59.0117   33.0850   46.1466 C   0  0  0  0  0  0  0  0  0  0  0  0
   59.0782   31.6916   46.3164 C   0  0  0  0  0  0  0  0  0  0  0  0
   59.4734   33.9988   47.2121 C   0  0  0  0  0  0  0  0  0  0  0  0
   58.8486   35.0777   47.4099 O   0  0  0  0  0  0  0  0  0  0  0  0
   60.6286   33.6933   48.0173 N   0  0  0  0  0  0  0  0  0  0  0  0
   60.6991   34.2034   49.3923 C   0  0  0  0  0  0  0  0  0  0  0  0
   61.5045   33.2441   50.2754 C   0  0  0  0  0  0  0  0  0  0  0  0
   62.7669   32.8336   49.6372 N   0  0  0  0  0  0  0  0  0  0  0  0
   63.7417   32.0743   50.3867 C   0  0  0  0  0  0  0  0  0  0  0  0
   64.8980   31.8878   49.9130 O   0  0  0  0  0  0  0  0  0  0  0  0
   63.4211   31.5069   51.7410 C   0  0  0  0  0  0  0  0  0  0  0  0
   63.0676   33.2817   48.2693 C   0  0  0  0  0  0  0  0  0  0  0  0
   61.8296   33.1347   47.3784 C   0  0  0  0  0  0  0  0  0  0  0  0
   57.8274   25.9991   44.9172 C   0  0  0  0  0  0  0  0  0  0  0  0
   58.3439   27.1851   45.2996 C   0  0  0  0  0  0  0  0  0  0  0  0
   59.4728   27.3781   46.0834 C   0  0  0  0  0  0  0  0  0  0  0  0
   59.6688   28.7424   46.1671 C   0  0  0  0  0  0  0  0  0  0  0  0
   60.7855   29.3939   46.9249 C   0  0  0  0  0  0  0  0  0  0  0  0
   58.7073   29.4009   45.4810 N   0  0  0  0  0  0  0  0  0  0  0  0
   57.8936   28.4592   44.9405 C   0  0  0  0  0  0  0  0  0  0  0  0
   56.8016   28.7396   44.2111 C   0  0  0  0  0  0  0  0  0  0  0  0
   54.9075   26.0712   45.9542 O   0  0  0  0  0  0  0  0  0  0  0  0
   55.8479   25.0941   46.2652 C   0  0  0  0  0  0  0  0  0  0  0  0
   55.5781   24.0110   47.0134 N   0  0  0  0  0  0  0  0  0  0  0  0
   56.7464   23.3333   46.9861 C   0  0  0  0  0  0  0  0  0  0  0  0
   56.9064   22.2327   47.5774 O   0  0  0  0  0  0  0  0  0  0  0  0
   57.7250   23.9200   46.2671 N   0  0  0  0  0  0  0  0  0  0  0  0
   57.1534   25.0574   45.8292 C   0  0  0  0  0  0  0  0  0  0  0  0
   54.0385   26.0119   46.2996 H   0  0  0  0  0  0  0  0  0  0  0  0
 26 27  1  0
 27 28  1  0
 28 29  1  0
 29 30  2  0
 29 31  1  0
 31 32  1  0
 32 18  1  0
 18 19  2  0
 19 20  1  0
 20 21  2  0
 21 22  1  0
 21 23  1  0
 23  1  1  0
  1  2  2  0
  2  3  1  0
  3  4  2  0
  4  5  1  0
  5  7  1  0
  7  8  2  0
  7  9  1  0
  9 10  1  0
 10 11  1  0
 11 12  1  0
 12 13  1  0
 13 14  2  0
 13 15  1  0
 12 16  1  0
 16 17  1  0
  5  6  2  0
 23 24  1  0
 24 25  2  0
 32 27  2  0
 24 19  1  0
  6  1  1  0
 17  9  1  0
 26 33  1  0
M  CHG 1  28  -1
M  CHG 1  31  -1
M  END
> <UniqueID>
20

> <SMILES>
C=c1/c(=C/c2[n-]c(=O)[n-]c2O)cc(C)n1-c1cccc(C(=O)N2CCN(C(C)=O)CC2)c1

> <Energy>
130.93525530369155

> <Genealogy>
C=c1c(=Cc2[n-]c(=O)[n-]c2O)cc(C)n1-c1cccc(C(=O)N2CCN(C(C)=O)CC2)c1 (protonated)
C=c1/c(=C/c2[n-]c(=O)[n-]c2O)cc(C)n1-c1cccc(C(=O)N2CCN(C(C)=O)CC2)c1 (cis-trans isomerization)
C=c1/c(=C/c2[n-]c(=O)[n-]c2O)cc(C)n1-c1cccc(C(=O)N2CCN(C(C)=O)CC2)c1 (3D coordinates assigned)
C=c1/c(=C/c2[n-]c(=O)[n-]c2O)cc(C)n1-c1cccc(C(=O)N2CCN(C(C)=O)CC2)c1 (nonaromatic ring conformer: 130.93525530369155 kcal/mol)

> <smiles>
C=c1c(=Cc2[nH]c(=O)[nH]c2O)cc(C)n1-c1cccc(C(=O)N2CCN(C(C)=O)CC2)c1

> <score_type>
oracle

> <origin>
adg

> <m_score__min__energy>
-14.949999999999999

> <m_primary>
energy

> <minimizedAffinity>
-10.20070

> <minimizedRMSD>
0.46351

> <CNNscore>
0.3503894806

> <CNNaffinity>
6.8811492920

> <CNN_VS>
2.4110822678

> <CNNaffinity_variance>
0.0935506225

$$$$
21:0


 28 30  0  0  0  0  0  0  0  0999 V2000
   57.9399   30.6111   45.3013 C   0  0  0  0  0  0  0  0  0  0  0  0
   57.6397   31.5175   44.2674 C   0  0  0  0  0  0  0  0  0  0  0  0
   58.0488   32.8509   44.3539 C   0  0  0  0  0  0  0  0  0  0  0  0
   58.7580   33.2970   45.4698 C   0  0  0  0  0  0  0  0  0  0  0  0
   59.0632   32.4102   46.5113 C   0  0  0  0  0  0  0  0  0  0  0  0
   58.6613   31.0694   46.4193 C   0  0  0  0  0  0  0  0  0  0  0  0
   59.9411   32.9794   47.9342 S   0  0  0  0  0  0  0  0  0  0  0  0
   59.3468   32.3562   49.1669 O   0  0  0  0  0  0  0  0  0  0  0  0
   59.7880   34.4707   48.0471 O   0  0  0  0  0  0  0  0  0  0  0  0
   61.6410   32.5776   47.8388 N   0  0  0  0  0  0  0  0  0  0  0  0
   62.4604   33.6823   48.3798 C   0  0  0  0  0  0  0  0  0  0  0  0
   63.8681   33.2189   48.7669 C   0  0  0  0  0  0  0  0  0  0  0  0
   63.7857   32.1415   49.7619 N   0  0  0  0  0  0  0  0  0  0  0  0
   64.8793   31.9278   50.6796 C   0  0  0  0  0  0  0  0  0  0  0  0
   65.9978   32.4678   50.4594 O   0  0  0  0  0  0  0  0  0  0  0  0
   64.7309   31.0511   51.8851 C   0  0  0  0  0  0  0  0  0  0  0  0
   62.5749   31.3132   49.8137 C   0  0  0  0  0  0  0  0  0  0  0  0
   61.9191   31.2448   48.4267 C   0  0  0  0  0  0  0  0  0  0  0  0
   57.5071   29.1982   45.2113 C   0  0  0  0  0  0  0  0  0  0  0  0
   56.6570   28.8519   44.3447 O   0  0  0  0  0  0  0  0  0  0  0  0
   59.3334   24.9791   45.9489 C   0  0  0  0  0  0  0  0  0  0  0  0
   59.1943   26.3287   46.0187 N   0  0  0  0  0  0  0  0  0  0  0  0
   57.9801   26.9394   46.1101 C   0  0  0  0  0  0  0  0  0  0  0  0
   57.9650   28.2424   46.1815 N   0  0  0  0  0  0  0  0  0  0  0  0
   56.8105   26.1353   46.0835 C   0  0  0  0  0  0  0  0  0  0  0  0
   55.5303   26.6761   46.0542 O   0  0  0  0  0  0  0  0  0  0  0  0
   56.9430   24.7440   46.0297 C   0  0  0  0  0  0  0  0  0  0  0  0
   58.2054   24.1596   45.9647 C   0  0  0  0  0  0  0  0  0  0  0  0
 21 22  1  0
 22 23  1  0
 23 24  2  0
 24 19  1  0
 19 20  2  0
 19  1  1  0
  1  2  2  0
  2  3  1  0
  3  4  2  0
  4  5  1  0
  5  7  1  0
  7  8  2  0
  7  9  2  0
  7 10  1  0
 10 11  1  0
 11 12  1  0
 12 13  1  0
 13 14  1  0
 14 15  2  0
 14 16  1  0
 13 17  1  0
 17 18  1  0
  5  6  2  0
 23 25  1  0
 25 26  1  0
 25 27  2  0
 27 28  1  0
 28 21  2  0
  6  1  1  0
 18 10  1  0
M  CHG 1  22  -1
M  CHG 1  26  -1
M  END
> <UniqueID>
21

> <SMILES>
CC(=O)N1CCN(S(=O)(=O)c2cccc(C(=O)/N=c3/[n-]cccc3[O-])c2)CC1

> <Energy>
64.48820488905172

> <Genealogy>
CC(=O)N1CCN(S(=O)(=O)c2cccc(C(=O)N=c3[n-]cccc3[O-])c2)CC1 (protonated)
CC(=O)N1CCN(S(=O)(=O)c2cccc(C(=O)/N=c3/[n-]cccc3[O-])c2)CC1 (cis-trans isomerization)
CC(=O)N1CCN(S(=O)(=O)c2cccc(C(=O)/N=c3/[n-]cccc3[O-])c2)CC1 (3D coordinates assigned)
CC(=O)N1CCN(S(=O)(=O)c2cccc(C(=O)/N=c3/[n-]cccc3[O-])c2)CC1 (nonaromatic ring conformer: 64.48820488905172 kcal/mol)

> <smiles>
CC(=O)N1CCN(S(=O)(=O)c2cccc(C(=O)N=c3[nH]cccc3O)c2)CC1

> <score_type>
oracle

> <origin>
adg

> <m_score__min__energy>
-15.15

> <m_primary>
energy

> <minimizedAffinity>
-7.86448

> <minimizedRMSD>
1.93475

> <CNNscore>
0.3556867838

> <CNNaffinity>
6.2755827904

> <CNN_VS>
2.2321419716

> <CNNaffinity_variance>
0.0647875592

$$$$
60:0


 28 31  0  0  0  0  0  0  0  0999 V2000
   56.6996   29.3391   44.2953 C   0  0  0  0  0  0  0  0  0  0  0  0
   57.8199   28.8935   44.8873 C   0  0  0  0  0  0  0  0  0  0  0  0
   58.3356   27.5880   44.8530 C   0  0  0  0  0  0  0  0  0  0  0  0
   57.7906   26.4330   44.4235 C   0  0  0  0  0  0  0  0  0  0  0  0
   59.6109   27.6609   45.3881 C   0  0  0  0  0  0  0  0  0  0  0  0
   59.8022   28.9660   45.7912 C   0  0  0  0  0  0  0  0  0  0  0  0
   61.0467   29.4786   46.4513 C   0  0  0  0  0  0  0  0  0  0  0  0
   58.7190   29.7159   45.4886 N   0  0  0  0  0  0  0  0  0  0  0  0
   57.2817   25.3530   45.2811 C   0  0  0  0  0  0  0  0  0  0  0  0
   57.9608   24.2208   45.5330 N   0  0  0  0  0  0  0  0  0  0  0  0
   57.1922   23.5920   46.4493 C   0  0  0  0  0  0  0  0  0  0  0  0
   57.4928   22.4694   46.9294 O   0  0  0  0  0  0  0  0  0  0  0  0
   56.0828   24.2677   46.8194 N   0  0  0  0  0  0  0  0  0  0  0  0
   56.1613   25.3865   46.0825 C   0  0  0  0  0  0  0  0  0  0  0  0
   55.2461   26.4288   46.1618 O   0  0  0  0  0  0  0  0  0  0  0  0
   58.5737   31.1234   45.7476 C   0  0  0  0  0  0  0  0  0  0  0  0
   57.7278   31.9077   44.9500 C   0  0  0  0  0  0  0  0  0  0  0  0
   57.5837   33.2719   45.2091 C   0  0  0  0  0  0  0  0  0  0  0  0
   58.2901   33.8647   46.2595 C   0  0  0  0  0  0  0  0  0  0  0  0
   59.1576   33.0963   47.0528 C   0  0  0  0  0  0  0  0  0  0  0  0
   59.2790   31.7208   46.8015 C   0  0  0  0  0  0  0  0  0  0  0  0
   59.8889   33.7257   48.1701 C   0  0  0  0  0  0  0  0  0  0  0  0
   59.2599   34.4710   48.9679 O   0  0  0  0  0  0  0  0  0  0  0  0
   61.2992   33.5095   48.3639 N   0  0  0  0  0  0  0  0  0  0  0  0
   61.9661   33.7800   49.6270 C   0  0  0  0  0  0  0  0  0  0  0  0
   63.4563   33.8124   49.3104 C   0  0  0  0  0  0  0  0  0  0  0  0
   63.6092   33.1839   47.9295 C   0  0  0  0  0  0  0  0  0  0  0  0
   62.2354   33.2633   47.2778 C   0  0  0  0  0  0  0  0  0  0  0  0
  1  2  2  0
  2  3  1  0
  3  4  2  0
  4  9  1  0
  9 10  1  0
 10 11  1  0
 11 12  2  0
 11 13  1  0
 13 14  1  0
 14 15  1  0
  3  5  1  0
  5  6  2  0
  6  7  1  0
  6  8  1  0
  8 16  1  0
 16 17  2  0
 17 18  1  0
 18 19  2  0
 19 20  1  0
 20 22  1  0
 22 23  2  0
 22 24  1  0
 24 25  1  0
 25 26  1  0
 26 27  1  0
 27 28  1  0
 20 21  2  0
  8  2  1  0
 21 16  1  0
 14  9  2  0
 28 24  1  0
M  CHG 1  10  -1
M  CHG 1  13  -1
M  CHG 1  15  -1
M  END
> <UniqueID>
57

> <SMILES>
C=c1c(=Cc2[n-]c(=O)[n-]c2[O-])cc(C)n1-c1cccc(C(=O)N2CCCC2)c1

> <Energy>
129.7678205365689

> <Genealogy>
C=c1c(=Cc2[n-]c(=O)[n-]c2[O-])cc(C)n1-c1cccc(C(=O)N2CCCC2)c1 (protonated)
C=c1c(=Cc2[n-]c(=O)[n-]c2[O-])cc(C)n1-c1cccc(C(=O)N2CCCC2)c1 (3D coordinates assigned)
C=c1c(=Cc2[n-]c(=O)[n-]c2[O-])cc(C)n1-c1cccc(C(=O)N2CCCC2)c1 (nonaromatic ring conformer: 129.7678205365689 kcal/mol)

> <smiles>
C=c1c(=Cc2[nH]c(=O)[nH]c2O)cc(C)n1-c1cccc(C(=O)N2CCCC2)c1

> <score_type>
oracle

> <origin>
adg

> <m_score__min__energy>
-17.100000000000001

> <m_primary>
energy

> <minimizedAffinity>
-8.96873

> <minimizedRMSD>
0.60703

> <CNNscore>
0.5670632124

> <CNNaffinity>
7.1569533348

> <CNN_VS>
4.0584449768

> <CNNaffinity_variance>
0.0361645706

$$$$
68:0


 30 33  0  0  0  0  0  0  0  0999 V2000
   57.0623   28.3759   54.5640 C   0  0  0  0  0  0  0  0  0  0  0  0
   57.0433   29.4399   53.7449 C   0  0  0  0  0  0  0  0  0  0  0  0
   55.9440   30.2655   53.4548 C   0  0  0  0  0  0  0  0  0  0  0  0
   54.6328   30.1214   53.7289 C   0  0  0  0  0  0  0  0  0  0  0  0
   56.4513   31.3589   52.7711 C   0  0  0  0  0  0  0  0  0  0  0  0
   57.8014   31.1360   52.6049 C   0  0  0  0  0  0  0  0  0  0  0  0
   58.7356   32.0690   51.8945 C   0  0  0  0  0  0  0  0  0  0  0  0
   58.1632   29.9733   53.1935 N   0  0  0  0  0  0  0  0  0  0  0  0
   59.4978   29.4356   53.2438 C   0  0  0  0  0  0  0  0  0  0  0  0
   59.9153   28.4805   52.3109 C   0  0  0  0  0  0  0  0  0  0  0  0
   61.2088   27.9471   52.3755 C   0  0  0  0  0  0  0  0  0  0  0  0
   61.6442   26.9298   51.3566 C   0  0  0  0  0  0  0  0  0  0  0  0
   62.0877   28.4197   53.3727 C   0  0  0  0  0  0  0  0  0  0  0  0
   61.6538   29.3451   54.2753 N   0  0  0  0  0  0  0  0  0  0  0  0
   60.3939   29.8546   54.2316 C   0  0  0  0  0  0  0  0  0  0  0  0
   62.2702   29.6531   54.9785 H   0  0  0  0  0  0  0  0  0  0  0  0
   63.4320   27.9322   53.4666 N   0  0  0  0  0  0  0  0  0  0  0  0
   64.5374   28.7307   52.9361 C   0  0  0  0  0  0  0  0  0  0  0  0
   65.4738   27.8708   52.0591 C   0  0  0  0  0  0  0  0  0  0  0  0
   65.4841   26.4350   52.4076 N   0  0  0  0  0  0  0  0  0  0  0  0
   65.1318   26.1856   53.8106 C   0  0  0  0  0  0  0  0  0  0  0  0
   63.6908   26.6277   54.0821 C   0  0  0  0  0  0  0  0  0  0  0  0
   66.4190   26.0650   52.2359 H   0  0  0  0  0  0  0  0  0  0  0  0
   53.5326   30.2730   52.7655 C   0  0  0  0  0  0  0  0  0  0  0  0
   53.6227   29.9140   51.4733 N   0  0  0  0  0  0  0  0  0  0  0  0
   52.3674   30.1055   51.0085 C   0  0  0  0  0  0  0  0  0  0  0  0
   52.0488   29.8895   49.8107 O   0  0  0  0  0  0  0  0  0  0  0  0
   51.4800   30.5344   51.9317 N   0  0  0  0  0  0  0  0  0  0  0  0
   52.2300   30.6210   53.0414 C   0  0  0  0  0  0  0  0  0  0  0  0
   51.7260   30.9805   54.2857 O   0  0  0  0  0  0  0  0  0  0  0  0
  1  2  2  0
  2  3  1  0
  3  4  2  0
  4 24  1  0
 24 25  1  0
 25 26  1  0
 26 27  2  0
 26 28  1  0
 28 29  1  0
 29 30  1  0
  3  5  1  0
  5  6  2  0
  6  7  1  0
  6  8  1  0
  8  9  1  0
  9 10  2  0
 10 11  1  0
 11 12  1  0
 11 13  2  0
 13 17  1  0
 17 18  1  0
 18 19  1  0
 19 20  1  0
 20 21  1  0
 21 22  1  0
 13 14  1  0
 14 15  2  0
  8  2  1  0
 15  9  1  0
 29 24  2  0
 22 17  1  0
 20 23  1  0
 14 16  1  0
M  CHG 1  14   1
M  CHG 1  25  -1
M  CHG 1  28  -1
M  CHG 1  30  -1
M  END
> <UniqueID>
63

> <SMILES>
C=c1/c(=C\c2[n-]c(=O)[n-]c2[O-])cc(C)n1-c1c[nH+]c(N2CCNCC2)c(C)c1

> <Energy>
137.96137880014047

> <Genealogy>
C=c1c(=Cc2[n-]c(=O)[n-]c2[O-])cc(C)n1-c1c[nH+]c(N2CCNCC2)c(C)c1 (protonated)
C=c1/c(=C\c2[n-]c(=O)[n-]c2[O-])cc(C)n1-c1c[nH+]c(N2CCNCC2)c(C)c1 (cis-trans isomerization)
C=c1/c(=C\c2[n-]c(=O)[n-]c2[O-])cc(C)n1-c1c[nH+]c(N2CCNCC2)c(C)c1 (3D coordinates assigned)
C=c1/c(=C\c2[n-]c(=O)[n-]c2[O-])cc(C)n1-c1c[nH+]c(N2CCNCC2)c(C)c1 (nonaromatic ring conformer: 137.96137880014047 kcal/mol)

> <smiles>
C=c1c(=Cc2[nH]c(=O)[nH]c2O)cc(C)n1-c1cnc(N2CCNCC2)c(C)c1

> <score_type>
oracle

> <origin>
adg

> <m_score__min__energy>
-14.699999999999999

> <m_primary>
energy

> <minimizedAffinity>
-4.91464

> <minimizedRMSD>
2.53003

> <CNNscore>
0.1691306382

> <CNNaffinity>
5.6453566551

> <CNN_VS>
0.9548027515

> <CNNaffinity_variance>
0.1032094583

$$$$
77:0


 31 34  0  0  0  0  0  0  0  0999 V2000
   60.3476   27.8715   48.6154 C   0  0  0  0  0  0  0  0  0  0  0  0
   60.2290   29.2066   48.1971 C   0  0  0  0  0  0  0  0  0  0  0  0
   60.5382   30.2517   49.0716 C   0  0  0  0  0  0  0  0  0  0  0  0
   60.9549   29.9767   50.3835 C   0  0  0  0  0  0  0  0  0  0  0  0
   61.0620   28.6420   50.8057 C   0  0  0  0  0  0  0  0  0  0  0  0
   60.7583   27.5964   49.9286 C   0  0  0  0  0  0  0  0  0  0  0  0
   59.9557   26.7554   47.6920 C   0  0  0  0  0  0  0  0  0  0  0  0
   59.6865   27.2967   46.3689 N   0  0  0  0  0  0  0  0  0  0  0  0
   57.4060   26.7901   46.3740 O   0  0  0  0  0  0  0  0  0  0  0  0
   58.3696   27.3900   45.8206 C   0  0  0  0  0  0  0  0  0  0  0  0
   58.1616   28.1341   44.5371 C   0  0  0  0  0  0  0  0  0  0  0  0
   57.9862   29.6062   44.7807 C   0  0  0  0  0  0  0  0  0  0  0  0
   59.2131   30.6678   45.2447 S   0  0  0  0  0  0  0  0  0  0  0  0
   58.1579   31.9765   45.3244 C   0  0  0  0  0  0  0  0  0  0  0  0
   58.5047   33.1454   45.6311 O   0  0  0  0  0  0  0  0  0  0  0  0
   56.8858   31.6420   45.0186 N   0  0  0  0  0  0  0  0  0  0  0  0
   56.7904   30.3197   44.7206 C   0  0  0  0  0  0  0  0  0  0  0  0
   55.5737   29.7330   44.3818 O   0  0  0  0  0  0  0  0  0  0  0  0
   61.2456   31.0981   51.3467 C   0  0  0  0  0  0  0  0  0  0  0  0
   62.2043   32.0547   50.7552 N   0  0  0  0  0  0  0  0  0  0  0  0
   63.4570   31.3911   50.3021 C   0  0  0  0  0  0  0  0  0  0  0  0
   64.6930   31.7500   51.1399 C   0  0  0  0  0  0  0  0  0  0  0  0
   64.8351   33.2079   51.2444 N   0  0  0  0  0  0  0  0  0  0  0  0
   63.6274   34.0398   51.2509 C   0  0  0  0  0  0  0  0  0  0  0  0
   62.4110   33.2060   51.6610 C   0  0  0  0  0  0  0  0  0  0  0  0
   66.1304   33.8324   51.3782 C   0  0  0  0  0  0  0  0  0  0  0  0
   66.3094   34.9967   52.1506 C   0  0  0  0  0  0  0  0  0  0  0  0
   67.5808   35.5663   52.2547 C   0  0  0  0  0  0  0  0  0  0  0  0
   68.6587   34.9869   51.5883 C   0  0  0  0  0  0  0  0  0  0  0  0
   68.4489   33.8426   50.8173 C   0  0  0  0  0  0  0  0  0  0  0  0
   67.2053   33.2983   50.7308 N   0  0  0  0  0  0  0  0  0  0  0  0
  9 10  2  0
 10 11  1  0
 11 12  1  0
 12 13  1  0
 13 14  1  0
 14 15  2  0
 14 16  1  0
 16 17  1  0
 17 18  1  0
 10  8  1  0
  8  7  1  0
  7  1  1  0
  1  2  2  0
  2  3  1  0
  3  4  2  0
  4 19  1  0
 19 20  1  0
 20 21  1  0
 21 22  1  0
 22 23  1  0
 23 26  1  0
 26 27  2  0
 27 28  1  0
 28 29  2  0
 29 30  1  0
 30 31  2  0
 23 24  1  0
 24 25  1  0
  4  5  1  0
  5  6  2  0
 17 12  2  0
  6  1  1  0
 25 20  1  0
 31 26  1  0
M  CHG 1   8  -1
M  CHG 1  16  -1
M  CHG 1  18  -1
M  END
> <UniqueID>
71

> <SMILES>
O=C(Cc1sc(=O)[n-]c1[O-])[N-]Cc1ccc(CN2CCN(c3ccccn3)CC2)cc1

> <Energy>
93.21259068642755

> <Genealogy>
O=C(Cc1sc(=O)[n-]c1[O-])[N-]Cc1ccc(CN2CCN(c3ccccn3)CC2)cc1 (protonated)
O=C(Cc1sc(=O)[n-]c1[O-])[N-]Cc1ccc(CN2CCN(c3ccccn3)CC2)cc1 (3D coordinates assigned)
O=C(Cc1sc(=O)[n-]c1[O-])[N-]Cc1ccc(CN2CCN(c3ccccn3)CC2)cc1 (nonaromatic ring conformer: 93.21259068642755 kcal/mol)

> <smiles>
O=C(Cc1sc(=O)[nH]c1O)NCc1ccc(CN2CCN(c3ccccn3)CC2)cc1

> <score_type>
oracle

> <origin>
adg

> <m_score__min__energy>
-17.949999999999999

> <m_primary>
energy

> <minimizedAffinity>
-6.69933

> <minimizedRMSD>
1.87389

> <CNNscore>
0.1185750887

> <CNNaffinity>
5.8201899529

> <CNN_VS>
0.6901295185

> <CNNaffinity_variance>
0.0292187240

$$$$
79:0


 27 29  0  0  0  0  0  0  0  0999 V2000
   59.4685   26.3444   46.0928 C   0  0  0  0  0  0  0  0  0  0  0  0
   60.4592   26.9385   46.5971 O   0  0  0  0  0  0  0  0  0  0  0  0
   59.0731   25.0487   46.5591 N   0  0  0  0  0  0  0  0  0  0  0  0
   56.0529   23.3664   45.1490 C   0  0  0  0  0  0  0  0  0  0  0  0
   56.6316   22.3187   44.4193 C   0  0  0  0  0  0  0  0  0  0  0  0
   58.0201   22.1716   44.3829 C   0  0  0  0  0  0  0  0  0  0  0  0
   58.8383   23.0587   45.0894 C   0  0  0  0  0  0  0  0  0  0  0  0
   58.2692   24.0996   45.8426 C   0  0  0  0  0  0  0  0  0  0  0  0
   56.8756   24.2585   45.8519 C   0  0  0  0  0  0  0  0  0  0  0  0
   53.6203   22.2083   46.0658 N   0  0  0  0  0  0  0  0  0  0  0  0
   54.3013   23.5364   45.1970 S   0  0  0  0  0  0  0  0  0  0  0  0
   53.7569   23.5566   43.7946 O   0  0  0  0  0  0  0  0  0  0  0  0
   53.9247   24.8218   45.8786 O   0  0  0  0  0  0  0  0  0  0  0  0
   52.6054   22.3054   46.0945 H   0  0  0  0  0  0  0  0  0  0  0  0
   58.6837   27.0088   45.0067 C   0  0  0  0  0  0  0  0  0  0  0  0
   57.4434   27.6889   45.5873 C   0  0  0  0  0  0  0  0  0  0  0  0
   57.5862   29.1789   45.5366 C   0  0  0  0  0  0  0  0  0  0  0  0
   58.7261   30.0739   46.3920 S   0  0  0  0  0  0  0  0  0  0  0  0
   58.2406   31.5314   45.6952 C   0  0  0  0  0  0  0  0  0  0  0  0
   57.2362   31.3580   44.8053 N   0  0  0  0  0  0  0  0  0  0  0  0
   56.8737   30.0513   44.7156 C   0  0  0  0  0  0  0  0  0  0  0  0
   55.8660   29.6311   43.8565 O   0  0  0  0  0  0  0  0  0  0  0  0
   58.8290   32.8099   45.9761 N   0  0  0  0  0  0  0  0  0  0  0  0
   58.7257   33.9543   45.0906 C   0  0  0  0  0  0  0  0  0  0  0  0
   59.6173   35.0249   45.7072 C   0  0  0  0  0  0  0  0  0  0  0  0
   59.8638   34.5865   47.1495 C   0  0  0  0  0  0  0  0  0  0  0  0
   59.5688   33.0933   47.1919 C   0  0  0  0  0  0  0  0  0  0  0  0
 10 11  1  0
 11 12  2  0
 11 13  2  0
 11  4  1  0
  4  5  2  0
  5  6  1  0
  6  7  2  0
  7  8  1  0
  8  3  1  0
  3  1  1  0
  1  2  2  0
  1 15  1  0
 15 16  1  0
 16 17  1  0
 17 18  1  0
 18 19  1  0
 19 23  1  0
 23 24  1  0
 24 25  1  0
 25 26  1  0
 26 27  1  0
 19 20  2  0
 20 21  1  0
 21 22  1  0
  8  9  2  0
  9  4  1  0
 21 17  2  0
 27 23  1  0
 10 14  1  0
M  CHG 1   3  -1
M  CHG 1  10  -1
M  CHG 1  22  -1
M  END
> <UniqueID>
73

> <SMILES>
[NH-]S(=O)(=O)c1cccc([N-]C(=O)CCc2sc(N3CCCC3)nc2[O-])c1

> <Energy>
71.62042173914898

> <Genealogy>
[NH-]S(=O)(=O)c1cccc([N-]C(=O)CCc2sc(N3CCCC3)nc2[O-])c1 (protonated)
[NH-]S(=O)(=O)c1cccc([N-]C(=O)CCc2sc(N3CCCC3)nc2[O-])c1 (3D coordinates assigned)
[NH-]S(=O)(=O)c1cccc([N-]C(=O)CCc2sc(N3CCCC3)nc2[O-])c1 (nonaromatic ring conformer: 71.62042173914898 kcal/mol)

> <smiles>
NS(=O)(=O)c1cccc(NC(=O)CCc2sc(N3CCCC3)nc2O)c1

> <score_type>
oracle

> <origin>
adg

> <m_score__min__energy>
-16

> <m_primary>
energy

> <minimizedAffinity>
-7.06627

> <minimizedRMSD>
0.74374

> <CNNscore>
0.2717382908

> <CNNaffinity>
6.2616691589

> <CNN_VS>
1.7015352249

> <CNNaffinity_variance>
0.0066746455

$$$$
86:0


 27 29  0  0  0  0  0  0  0  0999 V2000
   59.2754   27.1072   47.5337 C   0  0  0  0  0  0  0  0  0  0  0  0
   58.6978   27.8230   46.5536 C   0  0  0  0  0  0  0  0  0  0  0  0
   58.1210   27.3106   45.3831 C   0  0  0  0  0  0  0  0  0  0  0  0
   58.0397   26.0112   45.0205 C   0  0  0  0  0  0  0  0  0  0  0  0
   57.6811   28.4105   44.6583 C   0  0  0  0  0  0  0  0  0  0  0  0
   57.9998   29.5301   45.3990 C   0  0  0  0  0  0  0  0  0  0  0  0
   57.7084   30.9386   44.9774 C   0  0  0  0  0  0  0  0  0  0  0  0
   58.5981   29.1778   46.5603 N   0  0  0  0  0  0  0  0  0  0  0  0
   57.3752   24.9405   45.7967 C   0  0  0  0  0  0  0  0  0  0  0  0
   57.9125   23.7513   46.1256 N   0  0  0  0  0  0  0  0  0  0  0  0
   56.9118   23.1208   46.7780 C   0  0  0  0  0  0  0  0  0  0  0  0
   57.0365   21.9618   47.2506 O   0  0  0  0  0  0  0  0  0  0  0  0
   55.7657   23.8288   46.8763 N   0  0  0  0  0  0  0  0  0  0  0  0
   56.0760   24.9736   46.2470 C   0  0  0  0  0  0  0  0  0  0  0  0
   55.1866   26.0282   46.0860 O   0  0  0  0  0  0  0  0  0  0  0  0
   59.1150   30.1098   47.5749 C   0  0  0  0  0  0  0  0  0  0  0  0
   60.4738   30.6615   47.1442 C   0  0  0  0  0  0  0  0  0  0  0  0
   60.3895   32.1112   46.9531 N   0  0  0  0  0  0  0  0  0  0  0  0
   59.4921   32.3459   46.5288 H   0  0  0  0  0  0  0  0  0  0  0  0
   60.5297   32.9117   48.4886 S   0  0  0  0  0  0  0  0  0  0  0  0
   60.4011   34.3954   48.2882 O   0  0  0  0  0  0  0  0  0  0  0  0
   59.4294   32.4542   49.4057 O   0  0  0  0  0  0  0  0  0  0  0  0
   62.0869   32.5679   49.2217 C   0  0  0  0  0  0  0  0  0  0  0  0
   62.3237   31.6413   50.2256 C   0  0  0  0  0  0  0  0  0  0  0  0
   63.6753   31.5534   50.5768 C   0  0  0  0  0  0  0  0  0  0  0  0
   64.4970   32.4044   49.8477 C   0  0  0  0  0  0  0  0  0  0  0  0
   63.5432   33.2652   48.7624 S   0  0  0  0  0  0  0  0  0  0  0  0
  1  2  2  0
  2  3  1  0
  3  4  2  0
  4  9  1  0
  9 10  1  0
 10 11  1  0
 11 12  2  0
 11 13  1  0
 13 14  1  0
 14 15  1  0
  3  5  1  0
  5  6  2  0
  6  7  1  0
  6  8  1  0
  8 16  1  0
 16 17  1  0
 17 18  1  0
 18 20  1  0
 20 21  2  0
 20 22  2  0
 20 23  1  0
 23 24  2  0
 24 25  1  0
 25 26  2  0
 26 27  1  0
  8  2  1  0
 27 23  1  0
 14  9  2  0
 18 19  1  0
M  CHG 1  10  -1
M  CHG 1  13  -1
M  CHG 1  15  -1
M  END
> <UniqueID>
80

> <SMILES>
C=c1c(=Cc2[n-]c(=O)[n-]c2[O-])cc(C)n1CCNS(=O)(=O)c1cccs1

> <Energy>
125.38015801110002

> <Genealogy>
C=c1c(=Cc2[n-]c(=O)[n-]c2[O-])cc(C)n1CCNS(=O)(=O)c1cccs1 (protonated)
C=c1c(=Cc2[n-]c(=O)[n-]c2[O-])cc(C)n1CCNS(=O)(=O)c1cccs1 (3D coordinates assigned)
C=c1c(=Cc2[n-]c(=O)[n-]c2[O-])cc(C)n1CCNS(=O)(=O)c1cccs1 (optimized conformer: 125.38015801110002 kcal/mol)

> <smiles>
C=c1c(=Cc2[nH]c(=O)[nH]c2O)cc(C)n1CCNS(=O)(=O)c1cccs1

> <score_type>
oracle

> <origin>
adg

> <m_score__min__energy>
-16.379999999999999

> <m_primary>
energy

> <minimizedAffinity>
-7.44967

> <minimizedRMSD>
1.80407

> <CNNscore>
0.1219100654

> <CNNaffinity>
6.3006815910

> <CNN_VS>
0.7681165338

> <CNNaffinity_variance>
0.1517400742

$$$$
88:0


 27 30  0  0  0  0  0  0  0  0999 V2000
   60.3313   28.3574   47.6224 C   0  0  0  0  0  0  0  0  0  0  0  0
   59.5163   28.6019   46.5843 C   0  0  0  0  0  0  0  0  0  0  0  0
   58.9938   27.6633   45.6792 C   0  0  0  0  0  0  0  0  0  0  0  0
   58.9839   26.3167   45.7078 C   0  0  0  0  0  0  0  0  0  0  0  0
   58.4208   28.3944   44.6512 C   0  0  0  0  0  0  0  0  0  0  0  0
   58.5451   29.7253   44.9882 C   0  0  0  0  0  0  0  0  0  0  0  0
   58.0369   30.8648   44.1559 C   0  0  0  0  0  0  0  0  0  0  0  0
   59.2100   29.8536   46.1590 N   0  0  0  0  0  0  0  0  0  0  0  0
   57.9402   25.4783   46.3162 C   0  0  0  0  0  0  0  0  0  0  0  0
   58.1642   24.2422   46.7959 N   0  0  0  0  0  0  0  0  0  0  0  0
   56.9291   23.8088   47.1309 C   0  0  0  0  0  0  0  0  0  0  0  0
   56.7235   22.6761   47.6389 O   0  0  0  0  0  0  0  0  0  0  0  0
   55.9314   24.6783   46.8667 N   0  0  0  0  0  0  0  0  0  0  0  0
   56.5848   25.7248   46.3386 C   0  0  0  0  0  0  0  0  0  0  0  0
   55.9556   26.8669   45.8589 O   0  0  0  0  0  0  0  0  0  0  0  0
   59.5436   31.0967   46.8037 C   0  0  0  0  0  0  0  0  0  0  0  0
   58.5335   31.9844   47.1986 C   0  0  0  0  0  0  0  0  0  0  0  0
   58.8627   33.1898   47.8224 C   0  0  0  0  0  0  0  0  0  0  0  0
   60.2009   33.5127   48.0649 C   0  0  0  0  0  0  0  0  0  0  0  0
   61.2253   32.6264   47.6916 C   0  0  0  0  0  0  0  0  0  0  0  0
   60.8864   31.4233   47.0481 C   0  0  0  0  0  0  0  0  0  0  0  0
   62.6454   32.9540   47.9378 C   0  0  0  0  0  0  0  0  0  0  0  0
   63.3052   33.5543   47.0485 O   0  0  0  0  0  0  0  0  0  0  0  0
   63.3070   32.5639   49.1441 N   0  0  0  0  0  0  0  0  0  0  0  0
   63.0654   31.7135   50.3256 C   0  0  0  0  0  0  0  0  0  0  0  0
   64.4472   31.8128   50.8788 C   0  0  0  0  0  0  0  0  0  0  0  0
   64.6747   32.6758   49.6829 C   0  0  0  0  0  0  0  0  0  0  0  0
  1  2  2  0
  2  3  1  0
  3  4  2  0
  4  9  1  0
  9 10  1  0
 10 11  1  0
 11 12  2  0
 11 13  1  0
 13 14  1  0
 14 15  1  0
  3  5  1  0
  5  6  2  0
  6  7  1  0
  6  8  1  0
  8 16  1  0
 16 17  2  0
 17 18  1  0
 18 19  2  0
 19 20  1  0
 20 22  1  0
 22 23  2  0
 22 24  1  0
 24 25  1  0
 25 26  1  0
 26 27  1  0
 20 21  2  0
  8  2  1  0
 21 16  1  0
 14  9  2  0
 27 24  1  0
M  CHG 1  10  -1
M  CHG 1  13  -1
M  CHG 1  15  -1
M  END
> <UniqueID>
82

> <SMILES>
C=c1c(=Cc2[n-]c(=O)[n-]c2[O-])cc(C)n1-c1cccc(C(=O)N2CCC2)c1

> <Energy>
168.95107455810472

> <Genealogy>
C=c1c(=Cc2[n-]c(=O)[n-]c2[O-])cc(C)n1-c1cccc(C(=O)N2CCC2)c1 (protonated)
C=c1c(=Cc2[n-]c(=O)[n-]c2[O-])cc(C)n1-c1cccc(C(=O)N2CCC2)c1 (3D coordinates assigned)
C=c1c(=Cc2[n-]c(=O)[n-]c2[O-])cc(C)n1-c1cccc(C(=O)N2CCC2)c1 (nonaromatic ring conformer: 168.95107455810472 kcal/mol)

> <smiles>
C=c1c(=Cc2[nH]c(=O)[nH]c2O)cc(C)n1-c1cccc(C(=O)N2CCC2)c1

> <score_type>
oracle

> <origin>
adg

> <m_score__min__energy>
-16.449999999999999

> <m_primary>
energy

> <minimizedAffinity>
-7.98338

> <minimizedRMSD>
1.37862

> <CNNscore>
0.3874666095

> <CNNaffinity>
6.8558135033

> <CNN_VS>
2.6563987732

> <CNNaffinity_variance>
0.1873179227

$$$$
91:0


 28 30  0  0  0  0  0  0  0  0999 V2000
   56.8325   30.3773   53.4074 N   0  0  0  0  0  0  0  0  0  0  0  0
   55.6290   29.5926   53.5890 C   0  0  0  0  0  0  0  0  0  0  0  0
   55.6689   28.3455   53.3975 O   0  0  0  0  0  0  0  0  0  0  0  0
   58.5435   28.6986   53.9744 C   0  0  0  0  0  0  0  0  0  0  0  0
   58.0522   30.1272   54.1903 C   0  0  0  0  0  0  0  0  0  0  0  0
   56.8458   31.4660   52.4208 C   0  0  0  0  0  0  0  0  0  0  0  0
   57.8877   31.2044   51.3811 C   0  0  0  0  0  0  0  0  0  0  0  0
   58.0786   30.0035   50.8050 N   0  0  0  0  0  0  0  0  0  0  0  0
   59.0428   30.1619   49.9169 N   0  0  0  0  0  0  0  0  0  0  0  0
   59.3991   31.4590   49.9646 C   0  0  0  0  0  0  0  0  0  0  0  0
   58.6989   32.1554   50.8802 N   0  0  0  0  0  0  0  0  0  0  0  0
   60.5042   32.0441   49.1463 C   0  0  0  0  0  0  0  0  0  0  0  0
   59.9363   32.7384   47.9388 C   0  0  0  0  0  0  0  0  0  0  0  0
   60.0643   34.1309   47.7985 C   0  0  0  0  0  0  0  0  0  0  0  0
   59.5070   34.7815   46.6927 C   0  0  0  0  0  0  0  0  0  0  0  0
   58.8100   34.0482   45.7275 C   0  0  0  0  0  0  0  0  0  0  0  0
   58.6667   32.6646   45.8677 C   0  0  0  0  0  0  0  0  0  0  0  0
   57.9843   31.9567   44.9351 F   0  0  0  0  0  0  0  0  0  0  0  0
   59.2233   32.0109   46.9722 C   0  0  0  0  0  0  0  0  0  0  0  0
   54.3406   30.2164   54.0773 C   0  0  0  0  0  0  0  0  0  0  0  0
   53.2851   30.2472   53.0093 C   0  0  0  0  0  0  0  0  0  0  0  0
   52.9713   31.3420   52.2951 N   0  0  0  0  0  0  0  0  0  0  0  0
   51.9627   30.9175   51.5028 C   0  0  0  0  0  0  0  0  0  0  0  0
   51.3927   31.6690   50.6694 O   0  0  0  0  0  0  0  0  0  0  0  0
   51.6113   29.6245   51.6747 N   0  0  0  0  0  0  0  0  0  0  0  0
   52.4531   29.2131   52.6360 C   0  0  0  0  0  0  0  0  0  0  0  0
   52.4504   27.9237   53.1600 O   0  0  0  0  0  0  0  0  0  0  0  0
   51.8419   27.2883   52.8376 H   0  0  0  0  0  0  0  0  0  0  0  0
  4  5  1  0
  5  1  1  0
  1  6  1  0
  6  7  1  0
  7  8  2  0
  8  9  1  0
  9 10  1  0
 10 12  1  0
 12 13  1  0
 13 14  2  0
 14 15  1  0
 15 16  2  0
 16 17  1  0
 17 18  1  0
 17 19  2  0
 10 11  2  0
  1  2  1  0
  2  3  2  0
  2 20  1  0
 20 21  1  0
 21 22  1  0
 22 23  1  0
 23 24  2  0
 23 25  1  0
 25 26  1  0
 26 27  1  0
 11  7  1  0
 26 21  2  0
 19 13  1  0
 27 28  1  0
M  CHG 1   9  -1
M  CHG 1  22  -1
M  CHG 1  25  -1
M  END
> <UniqueID>
85

> <SMILES>
CCN(Cc1n[n-]c(Cc2cccc(F)c2)n1)C(=O)Cc1[n-]c(=O)[n-]c1O

> <Energy>
98.4860643603485

> <Genealogy>
CCN(Cc1n[n-]c(Cc2cccc(F)c2)n1)C(=O)Cc1[n-]c(=O)[n-]c1O (protonated)
CCN(Cc1n[n-]c(Cc2cccc(F)c2)n1)C(=O)Cc1[n-]c(=O)[n-]c1O (3D coordinates assigned)
CCN(Cc1n[n-]c(Cc2cccc(F)c2)n1)C(=O)Cc1[n-]c(=O)[n-]c1O (optimized conformer: 98.4860643603485 kcal/mol)

> <smiles>
CCN(Cc1n[nH]c(Cc2cccc(F)c2)n1)C(=O)Cc1[nH]c(=O)[nH]c1O

> <score_type>
oracle

> <origin>
adg

> <m_score__min__energy>
-14.630000000000001

> <m_primary>
energy

> <minimizedAffinity>
-6.30132

> <minimizedRMSD>
2.10828

> <CNNscore>
0.3555454016

> <CNNaffinity>
5.7103691101

> <CNN_VS>
2.0302953720

> <CNNaffinity_variance>
0.0802390352

$$$$
8:0


 26 28  0  0  0  0  0  0  0  0999 V2000
   59.1596   30.9339   47.1335 C   0  0  0  0  0  0  0  0  0  0  0  0
   58.8784   31.6630   46.0418 C   0  0  0  0  0  0  0  0  0  0  0  0
   58.5470   31.2028   44.7586 C   0  0  0  0  0  0  0  0  0  0  0  0
   58.5388   29.9613   44.2313 C   0  0  0  0  0  0  0  0  0  0  0  0
   58.2069   32.3611   44.0659 C   0  0  0  0  0  0  0  0  0  0  0  0
   57.7668   32.4578   42.6384 C   0  0  0  0  0  0  0  0  0  0  0  0
   58.3619   33.4357   44.8590 N   0  0  0  0  0  0  0  0  0  0  0  0
   58.7770   33.0167   46.0443 N   0  0  0  0  0  0  0  0  0  0  0  0
   58.3798   28.7093   44.9943 C   0  0  0  0  0  0  0  0  0  0  0  0
   57.1119   28.2589   45.3987 C   0  0  0  0  0  0  0  0  0  0  0  0
   55.9653   28.9668   45.0570 O   0  0  0  0  0  0  0  0  0  0  0  0
   57.0001   27.1245   46.1361 N   0  0  0  0  0  0  0  0  0  0  0  0
   58.0980   26.4192   46.5079 C   0  0  0  0  0  0  0  0  0  0  0  0
   57.9693   25.3685   47.1879 O   0  0  0  0  0  0  0  0  0  0  0  0
   59.3366   26.8476   46.1518 N   0  0  0  0  0  0  0  0  0  0  0  0
   59.5021   27.9771   45.4138 C   0  0  0  0  0  0  0  0  0  0  0  0
   60.6645   28.3502   45.1061 O   0  0  0  0  0  0  0  0  0  0  0  0
   58.9747   33.9349   47.1691 C   0  0  0  0  0  0  0  0  0  0  0  0
   60.3355   33.7306   47.7825 C   0  0  0  0  0  0  0  0  0  0  0  0
   60.4851   33.7360   49.1793 C   0  0  0  0  0  0  0  0  0  0  0  0
   61.7444   33.5395   49.7555 C   0  0  0  0  0  0  0  0  0  0  0  0
   62.8660   33.3407   48.9414 C   0  0  0  0  0  0  0  0  0  0  0  0
   62.7248   33.3425   47.5477 C   0  0  0  0  0  0  0  0  0  0  0  0
   61.4646   33.5381   46.9709 C   0  0  0  0  0  0  0  0  0  0  0  0
   64.1622   33.1386   49.5344 C   0  0  0  0  0  0  0  0  0  0  0  0
   65.2020   32.9758   50.0112 N   0  0  0  0  0  0  0  0  0  0  0  0
  1  2  2  0
  2  3  1  0
  3  4  2  0
  4  9  1  0
  9 10  2  0
 10 11  1  0
 10 12  1  0
 12 13  1  0
 13 14  2  0
 13 15  1  0
 15 16  1  0
 16 17  2  0
  3  5  1  0
  5  6  1  0
  5  7  2  0
  7  8  1  0
  8 18  1  0
 18 19  1  0
 19 20  2  0
 20 21  1  0
 21 22  2  0
 22 25  1  0
 25 26  3  0
 22 23  1  0
 23 24  2  0
  8  2  1  0
 24 19  1  0
 16  9  1  0
M  CHG 1  11  -1
M  CHG 1  12  -1
M  CHG 1  15  -1
M  END
> <UniqueID>
9

> <SMILES>
C=c1c(=Cc2c([O-])[n-]c(=O)[n-]c2=O)c(C)nn1Cc1ccc(C#N)cc1

> <Energy>
85.12248469826805

> <Genealogy>
C=c1c(=Cc2c([O-])[n-]c(=O)[n-]c2=O)c(C)nn1Cc1ccc(C#N)cc1 (protonated)
C=c1c(=Cc2c([O-])[n-]c(=O)[n-]c2=O)c(C)nn1Cc1ccc(C#N)cc1 (3D coordinates assigned)
C=c1c(=Cc2c([O-])[n-]c(=O)[n-]c2=O)c(C)nn1Cc1ccc(C#N)cc1 (optimized conformer: 85.12248469826805 kcal/mol)

> <smiles>
C=c1c(=Cc2c(O)[nH]c(=O)[nH]c2=O)c(C)nn1Cc1ccc(C#N)cc1

> <score_type>
oracle

> <origin>
adg

> <m_score__min__energy>
-15.69

> <m_primary>
energy

> <minimizedAffinity>
-7.46873

> <minimizedRMSD>
0.86250

> <CNNscore>
0.1970113218

> <CNNaffinity>
6.4309883118

> <CNN_VS>
1.2669775486

> <CNNaffinity_variance>
0.0333216228

$$$$
23:0


 27 29  0  0  0  0  0  0  0  0999 V2000
   60.2865   29.5525   47.8744 C   0  0  0  0  0  0  0  0  0  0  0  0
   59.6755   30.4857   47.1285 C   0  0  0  0  0  0  0  0  0  0  0  0
   59.1885   30.3507   45.8173 C   0  0  0  0  0  0  0  0  0  0  0  0
   59.0567   29.2666   45.0276 C   0  0  0  0  0  0  0  0  0  0  0  0
   58.8095   31.6208   45.4111 C   0  0  0  0  0  0  0  0  0  0  0  0
   59.0183   32.4635   46.4819 C   0  0  0  0  0  0  0  0  0  0  0  0
   58.7367   33.9357   46.4765 C   0  0  0  0  0  0  0  0  0  0  0  0
   59.5479   31.7796   47.5213 N   0  0  0  0  0  0  0  0  0  0  0  0
   58.6348   27.9243   45.4746 C   0  0  0  0  0  0  0  0  0  0  0  0
   57.2740   27.6113   45.5867 C   0  0  0  0  0  0  0  0  0  0  0  0
   56.3026   28.5390   45.2309 O   0  0  0  0  0  0  0  0  0  0  0  0
   56.8938   26.3880   46.0395 N   0  0  0  0  0  0  0  0  0  0  0  0
   57.8147   25.4582   46.4029 C   0  0  0  0  0  0  0  0  0  0  0  0
   57.4399   24.3300   46.8146 O   0  0  0  0  0  0  0  0  0  0  0  0
   59.1387   25.7476   46.3292 N   0  0  0  0  0  0  0  0  0  0  0  0
   59.5703   26.9566   45.8844 C   0  0  0  0  0  0  0  0  0  0  0  0
   60.8065   27.1987   45.8497 O   0  0  0  0  0  0  0  0  0  0  0  0
   59.9195   32.3397   48.7916 C   0  0  0  0  0  0  0  0  0  0  0  0
   59.0043   32.3108   49.8534 C   0  0  0  0  0  0  0  0  0  0  0  0
   59.3442   32.8605   51.1028 C   0  0  0  0  0  0  0  0  0  0  0  0
   60.6059   33.4372   51.2745 C   0  0  0  0  0  0  0  0  0  0  0  0
   61.5240   33.4659   50.2225 C   0  0  0  0  0  0  0  0  0  0  0  0
   61.1911   32.9122   48.9718 C   0  0  0  0  0  0  0  0  0  0  0  0
   58.4604   32.8531   52.1932 O   0  0  0  0  0  0  0  0  0  0  0  0
   57.3626   31.9580   52.3307 C   0  0  0  0  0  0  0  0  0  0  0  0
   62.0929   32.9023   47.8974 O   0  0  0  0  0  0  0  0  0  0  0  0
   63.4189   33.4202   47.9505 C   0  0  0  0  0  0  0  0  0  0  0  0
  1  2  2  0
  2  3  1  0
  3  4  2  0
  4  9  1  0
  9 10  2  0
 10 11  1  0
 10 12  1  0
 12 13  1  0
 13 14  2  0
 13 15  1  0
 15 16  1  0
 16 17  2  0
  3  5  1  0
  5  6  2  0
  6  7  1  0
  6  8  1  0
  8 18  1  0
 18 19  2  0
 19 20  1  0
 20 24  1  0
 24 25  1  0
 20 21  2  0
 21 22  1  0
 22 23  2  0
 23 26  1  0
 26 27  1  0
  8  2  1  0
 23 18  1  0
 16  9  1  0
M  CHG 1  11  -1
M  CHG 1  12  -1
M  CHG 1  15  -1
M  END
> <UniqueID>
24

> <SMILES>
C=c1c(=Cc2c([O-])[n-]c(=O)[n-]c2=O)cc(C)n1-c1cc(OC)ccc1OC

> <Energy>
93.06574091037177

> <Genealogy>
C=c1c(=Cc2c([O-])[n-]c(=O)[n-]c2=O)cc(C)n1-c1cc(OC)ccc1OC (protonated)
C=c1c(=Cc2c([O-])[n-]c(=O)[n-]c2=O)cc(C)n1-c1cc(OC)ccc1OC (3D coordinates assigned)
C=c1c(=Cc2c([O-])[n-]c(=O)[n-]c2=O)cc(C)n1-c1cc(OC)ccc1OC (optimized conformer: 93.06574091037177 kcal/mol)

> <smiles>
C=c1c(=Cc2c(O)[nH]c(=O)[nH]c2=O)cc(C)n1-c1cc(OC)ccc1OC

> <score_type>
oracle

> <origin>
adg

> <m_score__min__energy>
-15.039999999999999

> <m_primary>
energy

> <minimizedAffinity>
-6.99011

> <minimizedRMSD>
1.26460

> <CNNscore>
0.4806904793

> <CNNaffinity>
6.8519973755

> <CNN_VS>
3.2936899662

> <CNNaffinity_variance>
0.2005507499

$$$$
24:0


 35 38  0  0  0  0  0  0  0  0999 V2000
   60.2750   32.7455   49.1621 C   0  0  0  0  0  0  0  0  0  0  0  0
   60.3567   34.0487   48.6419 C   0  0  0  0  0  0  0  0  0  0  0  0
   59.8297   34.3453   47.3805 C   0  0  0  0  0  0  0  0  0  0  0  0
   59.1977   33.3431   46.6237 C   0  0  0  0  0  0  0  0  0  0  0  0
   58.6535   33.5985   45.3512 C   0  0  0  0  0  0  0  0  0  0  0  0
   58.7258   34.7466   44.8333 O   0  0  0  0  0  0  0  0  0  0  0  0
   58.0254   32.5675   44.6458 C   0  0  0  0  0  0  0  0  0  0  0  0
   57.9279   31.2892   45.2195 C   0  0  0  0  0  0  0  0  0  0  0  0
   58.4720   31.0632   46.4442 N   0  0  0  0  0  0  0  0  0  0  0  0
   59.0976   32.0384   47.1538 C   0  0  0  0  0  0  0  0  0  0  0  0
   59.6347   31.7469   48.4111 C   0  0  0  0  0  0  0  0  0  0  0  0
   61.1569   33.3854   51.2684 O   0  0  0  0  0  0  0  0  0  0  0  0
   60.8289   32.4412   50.4998 C   0  0  0  0  0  0  0  0  0  0  0  0
   61.0048   31.0817   50.9276 N   0  0  0  0  0  0  0  0  0  0  0  0
   61.0554   30.3719   50.2473 H   0  0  0  0  0  0  0  0  0  0  0  0
   61.1110   30.7165   52.3366 C   0  0  0  0  0  0  0  0  0  0  0  0
   59.7456   30.7222   52.9673 C   0  0  0  0  0  0  0  0  0  0  0  0
   59.4744   31.5424   54.0753 C   0  0  0  0  0  0  0  0  0  0  0  0
   58.1883   31.5815   54.6226 C   0  0  0  0  0  0  0  0  0  0  0  0
   57.1640   30.8112   54.0643 C   0  0  0  0  0  0  0  0  0  0  0  0
   57.4242   30.0005   52.9562 C   0  0  0  0  0  0  0  0  0  0  0  0
   56.4289   29.2606   52.4092 F   0  0  0  0  0  0  0  0  0  0  0  0
   58.7105   29.9570   52.4074 C   0  0  0  0  0  0  0  0  0  0  0  0
   57.2909   30.1776   44.4887 C   0  0  0  0  0  0  0  0  0  0  0  0
   56.6936   30.4041   43.4032 O   0  0  0  0  0  0  0  0  0  0  0  0
   57.3915   28.8253   44.9502 N   0  0  0  0  0  0  0  0  0  0  0  0
   58.4889   27.9198   44.6200 C   0  0  0  0  0  0  0  0  0  0  0  0
   58.7824   26.9856   45.7990 C   0  0  0  0  0  0  0  0  0  0  0  0
   57.5519   26.3947   46.3307 N   0  0  0  0  0  0  0  0  0  0  0  0
   56.8456   25.4682   45.7558 C   0  0  0  0  0  0  0  0  0  0  0  0
   55.5656   25.2594   46.1619 N   0  0  0  0  0  0  0  0  0  0  0  0
   54.7968   24.2954   45.5922 C   0  0  0  0  0  0  0  0  0  0  0  0
   55.3213   23.4976   44.5770 C   0  0  0  0  0  0  0  0  0  0  0  0
   56.6332   23.7261   44.1642 C   0  0  0  0  0  0  0  0  0  0  0  0
   57.3667   24.7050   44.7552 N   0  0  0  0  0  0  0  0  0  0  0  0
 12 13  2  0
 13 14  1  0
 14 16  1  0
 16 17  1  0
 17 18  2  0
 18 19  1  0
 19 20  2  0
 20 21  1  0
 21 22  1  0
 21 23  2  0
 13  1  1  0
  1  2  2  0
  2  3  1  0
  3  4  2  0
  4  5  1  0
  5  6  2  0
  5  7  1  0
  7  8  2  0
  8 24  1  0
 24 25  2  0
 24 26  1  0
 26 27  1  0
 27 28  1  0
 28 29  1  0
 29 30  2  0
 30 31  1  0
 31 32  2  0
 32 33  1  0
 33 34  2  0
 34 35  1  0
  8  9  1  0
  9 10  1  0
 10 11  2  0
 23 17  1  0
 11  1  1  0
 10  4  1  0
 35 30  1  0
 14 15  1  0
M  CHG 1   9  -1
M  CHG 1  26  -1
M  CHG 1  35  -1
M  END
> <UniqueID>
25

> <SMILES>
O=C(NCc1cccc(F)c1)c1ccc2c(=O)cc(C(=O)[N-]CCN=c3nccc[n-]3)[n-]c2c1

> <Energy>
61.84982144339831

> <Genealogy>
O=C(NCc1cccc(F)c1)c1ccc2c(=O)cc(C(=O)[N-]CCN=c3nccc[n-]3)[n-]c2c1 (protonated)
O=C(NCc1cccc(F)c1)c1ccc2c(=O)cc(C(=O)[N-]CCN=c3nccc[n-]3)[n-]c2c1 (3D coordinates assigned)
O=C(NCc1cccc(F)c1)c1ccc2c(=O)cc(C(=O)[N-]CCN=c3nccc[n-]3)[n-]c2c1 (optimized conformer: 61.84982144339831 kcal/mol)

> <smiles>
O=C(NCc1cccc(F)c1)c1ccc2c(=O)cc(C(=O)NCCN=c3nccc[nH]3)[nH]c2c1

> <score_type>
oracle

> <origin>
adg

> <m_score__min__energy>
-14.609999999999999

> <m_primary>
energy

> <minimizedAffinity>
-8.48147

> <minimizedRMSD>
2.45323

> <CNNscore>
0.2807054818

> <CNNaffinity>
6.8791441917

> <CNN_VS>
1.9310134649

> <CNNaffinity_variance>
0.2296686023

$$$$
34:0


 30 33  0  0  0  0  0  0  0  0999 V2000
   59.5101   26.8745   47.1464 C   0  0  0  0  0  0  0  0  0  0  0  0
   58.9204   27.6437   46.2179 C   0  0  0  0  0  0  0  0  0  0  0  0
   58.1823   27.1964   45.1167 C   0  0  0  0  0  0  0  0  0  0  0  0
   57.9354   25.9209   44.7617 C   0  0  0  0  0  0  0  0  0  0  0  0
   57.8031   28.3343   44.4150 C   0  0  0  0  0  0  0  0  0  0  0  0
   58.2984   29.4153   45.1154 C   0  0  0  0  0  0  0  0  0  0  0  0
   58.1418   30.8449   44.6935 C   0  0  0  0  0  0  0  0  0  0  0  0
   58.9809   28.9993   46.2052 N   0  0  0  0  0  0  0  0  0  0  0  0
   57.2958   24.9262   45.6418 C   0  0  0  0  0  0  0  0  0  0  0  0
   57.9188   23.8203   46.0807 N   0  0  0  0  0  0  0  0  0  0  0  0
   57.0131   23.2549   46.9077 C   0  0  0  0  0  0  0  0  0  0  0  0
   57.2306   22.1738   47.5143 O   0  0  0  0  0  0  0  0  0  0  0  0
   55.8616   23.9460   47.0439 N   0  0  0  0  0  0  0  0  0  0  0  0
   56.0590   25.0086   46.2454 C   0  0  0  0  0  0  0  0  0  0  0  0
   55.1489   26.0482   46.1130 O   0  0  0  0  0  0  0  0  0  0  0  0
   59.6353   29.8506   47.1636 C   0  0  0  0  0  0  0  0  0  0  0  0
   59.0055   30.1631   48.3741 C   0  0  0  0  0  0  0  0  0  0  0  0
   59.6328   31.0001   49.2997 C   0  0  0  0  0  0  0  0  0  0  0  0
   60.9058   31.5416   49.0330 C   0  0  0  0  0  0  0  0  0  0  0  0
   61.5272   31.2289   47.8065 C   0  0  0  0  0  0  0  0  0  0  0  0
   60.8957   30.3910   46.8828 C   0  0  0  0  0  0  0  0  0  0  0  0
   61.5504   32.4361   50.0365 C   0  0  0  0  0  0  0  0  0  0  0  0
   61.1594   33.6343   50.1127 O   0  0  0  0  0  0  0  0  0  0  0  0
   62.6278   31.9736   50.8981 N   0  0  0  0  0  0  0  0  0  0  0  0
   62.6112   32.6895   52.1907 C   0  0  0  0  0  0  0  0  0  0  0  0
   61.4476   32.2302   53.1035 C   0  0  0  0  0  0  0  0  0  0  0  0
   60.8599   31.0070   52.6968 O   0  0  0  0  0  0  0  0  0  0  0  0
   61.8634   30.0725   52.3712 C   0  0  0  0  0  0  0  0  0  0  0  0
   62.6055   30.4983   51.0891 C   0  0  0  0  0  0  0  0  0  0  0  0
   63.4530   32.4834   51.0668 H   0  0  0  0  0  0  0  0  0  0  0  0
  1  2  2  0
  2  3  1  0
  3  4  2  0
  4  9  1  0
  9 10  1  0
 10 11  1  0
 11 12  2  0
 11 13  1  0
 13 14  1  0
 14 15  1  0
  3  5  1  0
  5  6  2  0
  6  7  1  0
  6  8  1  0
  8 16  1  0
 16 17  2  0
 17 18  1  0
 18 19  2  0
 19 22  1  0
 22 23  2  0
 22 24  1  0
 24 25  1  0
 25 26  1  0
 26 27  1  0
 27 28  1  0
 28 29  1  0
 19 20  1  0
 20 21  2  0
  8  2  1  0
 21 16  1  0
 14  9  2  0
 29 24  1  0
 24 30  1  0
M  CHG 1  10  -1
M  CHG 1  13  -1
M  CHG 1  15  -1
M  CHG 1  24   1
M  END
> <UniqueID>
34

> <SMILES>
C=c1/c(=C/c2[n-]c(=O)[n-]c2[O-])cc(C)n1-c1ccc(C(=O)[NH+]2CCOCC2)cc1

> <Energy>
139.85604176936752

> <Genealogy>
C=c1c(=Cc2[n-]c(=O)[n-]c2[O-])cc(C)n1-c1ccc(C(=O)[NH+]2CCOCC2)cc1 (protonated)
C=c1/c(=C/c2[n-]c(=O)[n-]c2[O-])cc(C)n1-c1ccc(C(=O)[NH+]2CCOCC2)cc1 (cis-trans isomerization)
C=c1/c(=C/c2[n-]c(=O)[n-]c2[O-])cc(C)n1-c1ccc(C(=O)[NH+]2CCOCC2)cc1 (3D coordinates assigned)
C=c1/c(=C/c2[n-]c(=O)[n-]c2[O-])cc(C)n1-c1ccc(C(=O)[NH+]2CCOCC2)cc1 (nonaromatic ring conformer: 139.85604176936752 kcal/mol)

> <smiles>
C=c1c(=Cc2[nH]c(=O)[nH]c2O)cc(C)n1-c1ccc(C(=O)N2CCOCC2)cc1

> <score_type>
oracle

> <origin>
adg

> <m_score__min__energy>
-14.710000000000001

> <m_primary>
energy

> <minimizedAffinity>
-7.97002

> <minimizedRMSD>
2.16824

> <CNNscore>
0.1690927893

> <CNNaffinity>
6.4299144745

> <CNN_VS>
1.0872521400

> <CNNaffinity_variance>
0.0678341985

$$$$
37:0


 28 30  0  0  0  0  0  0  0  0999 V2000
   58.4212   28.6659   45.4347 C   0  0  0  0  0  0  0  0  0  0  0  0
   57.3227   29.1869   45.7617 O   0  0  0  0  0  0  0  0  0  0  0  0
   58.6352   26.2417   45.7461 C   0  0  0  0  0  0  0  0  0  0  0  0
   58.4464   27.2789   44.9069 C   0  0  0  0  0  0  0  0  0  0  0  0
   57.7083   25.0936   45.8893 C   0  0  0  0  0  0  0  0  0  0  0  0
   56.3501   25.3165   46.1716 C   0  0  0  0  0  0  0  0  0  0  0  0
   55.8519   26.6117   46.2725 O   0  0  0  0  0  0  0  0  0  0  0  0
   55.5049   24.2633   46.3379 N   0  0  0  0  0  0  0  0  0  0  0  0
   55.9340   22.9773   46.2538 C   0  0  0  0  0  0  0  0  0  0  0  0
   55.1134   22.0335   46.4132 O   0  0  0  0  0  0  0  0  0  0  0  0
   57.2813   22.7060   46.0003 C   0  0  0  0  0  0  0  0  0  0  0  0
   57.7397   21.3954   45.9256 O   0  0  0  0  0  0  0  0  0  0  0  0
   58.1710   23.7686   45.8244 C   0  0  0  0  0  0  0  0  0  0  0  0
   58.2401   27.0721   43.4895 C   0  0  0  0  0  0  0  0  0  0  0  0
   58.0761   26.9097   42.3557 N   0  0  0  0  0  0  0  0  0  0  0  0
   59.6257   29.4143   45.6517 N   0  0  0  0  0  0  0  0  0  0  0  0
   60.1524   29.8164   46.9248 C   0  0  0  0  0  0  0  0  0  0  0  0
   60.0344   28.9451   48.0122 C   0  0  0  0  0  0  0  0  0  0  0  0
   60.5240   29.3130   49.2698 C   0  0  0  0  0  0  0  0  0  0  0  0
   61.1232   30.5691   49.4604 C   0  0  0  0  0  0  0  0  0  0  0  0
   61.2214   31.4505   48.3713 C   0  0  0  0  0  0  0  0  0  0  0  0
   60.7319   31.0825   47.1147 C   0  0  0  0  0  0  0  0  0  0  0  0
   61.6350   30.9512   50.7519 N   0  0  0  0  0  0  0  0  0  0  0  0
   60.8033   31.7417   51.6661 C   0  0  0  0  0  0  0  0  0  0  0  0
   61.6988   32.5787   52.5836 C   0  0  0  0  0  0  0  0  0  0  0  0
   62.6633   31.7638   53.2233 O   0  0  0  0  0  0  0  0  0  0  0  0
   63.5468   31.2191   52.2604 C   0  0  0  0  0  0  0  0  0  0  0  0
   62.8040   30.2716   51.3148 C   0  0  0  0  0  0  0  0  0  0  0  0
  3  4  2  0
  4 14  1  0
 14 15  3  0
  4  1  1  0
  1  2  2  0
  1 16  1  0
 16 17  1  0
 17 18  2  0
 18 19  1  0
 19 20  2  0
 20 23  1  0
 23 24  1  0
 24 25  1  0
 25 26  1  0
 26 27  1  0
 27 28  1  0
 20 21  1  0
 21 22  2  0
  3  5  1  0
  5  6  2  0
  6  7  1  0
  6  8  1  0
  8  9  1  0
  9 10  2  0
  9 11  1  0
 11 12  1  0
 11 13  2  0
 22 17  1  0
 13  5  1  0
 28 23  1  0
M  CHG 1   7  -1
M  CHG 1   8  -1
M  CHG 1  12  -1
M  CHG 1  16  -1
M  END
> <UniqueID>
37

> <SMILES>
N#C/C(=C\c1cc([O-])c(=O)[n-]c1[O-])C(=O)[N-]c1ccc(N2CCOCC2)cc1

> <Energy>
62.58354695135562

> <Genealogy>
N#CC(=Cc1cc([O-])c(=O)[n-]c1[O-])C(=O)[N-]c1ccc(N2CCOCC2)cc1 (protonated)
N#C/C(=C\c1cc([O-])c(=O)[n-]c1[O-])C(=O)[N-]c1ccc(N2CCOCC2)cc1 (cis-trans isomerization)
N#C/C(=C\c1cc([O-])c(=O)[n-]c1[O-])C(=O)[N-]c1ccc(N2CCOCC2)cc1 (3D coordinates assigned)
N#C/C(=C\c1cc([O-])c(=O)[n-]c1[O-])C(=O)[N-]c1ccc(N2CCOCC2)cc1 (nonaromatic ring conformer: 62.58354695135562 kcal/mol)

> <smiles>
N#CC(=Cc1cc(O)c(=O)[nH]c1O)C(=O)Nc1ccc(N2CCOCC2)cc1

> <score_type>
oracle

> <origin>
adg

> <m_score__min__energy>
-16.93

> <m_primary>
energy

> <minimizedAffinity>
-6.27434

> <minimizedRMSD>
2.07059

> <CNNscore>
0.2978997231

> <CNNaffinity>
6.4104671478

> <CNN_VS>
1.9096764326

> <CNNaffinity_variance>
0.6986780167

$$$$
54:0


 31 33  0  0  0  0  0  0  0  0999 V2000
   59.1954   27.9110   46.6483 C   0  0  0  0  0  0  0  0  0  0  0  0
   57.9763   27.3316   46.6549 C   0  0  0  0  0  0  0  0  0  0  0  0
   57.7160   25.9199   46.3061 C   0  0  0  0  0  0  0  0  0  0  0  0
   58.6843   25.0227   46.0626 N   0  0  0  0  0  0  0  0  0  0  0  0
   58.0287   23.8915   45.7418 C   0  0  0  0  0  0  0  0  0  0  0  0
   58.6163   22.8151   45.4570 O   0  0  0  0  0  0  0  0  0  0  0  0
   56.6840   24.0120   45.7445 N   0  0  0  0  0  0  0  0  0  0  0  0
   56.5001   25.3008   46.0933 C   0  0  0  0  0  0  0  0  0  0  0  0
   55.2515   25.9011   46.1798 O   0  0  0  0  0  0  0  0  0  0  0  0
   59.6579   25.1613   46.1085 H   0  0  0  0  0  0  0  0  0  0  0  0
   60.1093   27.7292   47.8009 C   0  0  0  0  0  0  0  0  0  0  0  0
   60.9029   26.7485   47.8402 O   0  0  0  0  0  0  0  0  0  0  0  0
   60.0706   28.6590   48.8845 N   0  0  0  0  0  0  0  0  0  0  0  0
   59.3190   30.2136   48.7778 S   0  0  0  0  0  0  0  0  0  0  0  0
   58.8715   30.6313   50.1495 O   0  0  0  0  0  0  0  0  0  0  0  0
   58.1274   30.1560   47.8628 O   0  0  0  0  0  0  0  0  0  0  0  0
   58.6364   33.0848   47.6332 C   0  0  0  0  0  0  0  0  0  0  0  0
   60.0798   32.6521   47.6453 C   0  0  0  0  0  0  0  0  0  0  0  0
   61.0479   33.5223   47.1119 C   0  0  0  0  0  0  0  0  0  0  0  0
   62.3936   33.1519   47.0749 C   0  0  0  0  0  0  0  0  0  0  0  0
   62.7899   31.9088   47.5657 C   0  0  0  0  0  0  0  0  0  0  0  0
   61.8411   31.0263   48.0859 C   0  0  0  0  0  0  0  0  0  0  0  0
   60.4813   31.3759   48.1201 C   0  0  0  0  0  0  0  0  0  0  0  0
   59.6300   28.8115   45.5526 C   0  0  0  0  0  0  0  0  0  0  0  0
   60.8588   28.8772   45.2785 O   0  0  0  0  0  0  0  0  0  0  0  0
   58.6676   29.6527   44.7995 C   0  0  0  0  0  0  0  0  0  0  0  0
   57.5604   29.0615   44.1628 C   0  0  0  0  0  0  0  0  0  0  0  0
   56.6460   29.8495   43.4598 C   0  0  0  0  0  0  0  0  0  0  0  0
   56.8290   31.2317   43.3735 C   0  0  0  0  0  0  0  0  0  0  0  0
   57.9306   31.8286   43.9908 C   0  0  0  0  0  0  0  0  0  0  0  0
   58.8487   31.0464   44.6976 C   0  0  0  0  0  0  0  0  0  0  0  0
 17 18  1  0
 18 19  2  0
 19 20  1  0
 20 21  2  0
 21 22  1  0
 22 23  2  0
 23 14  1  0
 14 15  2  0
 14 16  2  0
 14 13  1  0
 13 11  1  0
 11 12  2  0
 11  1  1  0
  1  2  2  0
  2  3  1  0
  3  4  1  0
  4  5  1  0
  5  6  2  0
  5  7  1  0
  7  8  1  0
  8  9  1  0
  1 24  1  0
 24 25  2  0
 24 26  1  0
 26 27  2  0
 27 28  1  0
 28 29  2  0
 29 30  1  0
 30 31  2  0
 23 18  1  0
  8  3  2  0
 31 26  1  0
  4 10  1  0
M  CHG 1   7  -1
M  CHG 1   9  -1
M  CHG 1  13  -1
M  END
> <UniqueID>
53

> <SMILES>
Cc1ccccc1S(=O)(=O)[N-]C(=O)C(=Cc1[nH]c(=O)[n-]c1[O-])C(=O)c1ccccc1

> <Energy>
93.036697357602

> <Genealogy>
Cc1ccccc1S(=O)(=O)[N-]C(=O)C(=Cc1[nH]c(=O)[n-]c1[O-])C(=O)c1ccccc1 (protonated)
Cc1ccccc1S(=O)(=O)[N-]C(=O)C(=Cc1[nH]c(=O)[n-]c1[O-])C(=O)c1ccccc1 (3D coordinates assigned)
Cc1ccccc1S(=O)(=O)[N-]C(=O)C(=Cc1[nH]c(=O)[n-]c1[O-])C(=O)c1ccccc1 (optimized conformer: 93.036697357602 kcal/mol)

> <smiles>
Cc1ccccc1S(=O)(=O)NC(=O)C(=Cc1[nH]c(=O)[nH]c1O)C(=O)c1ccccc1

> <score_type>
oracle

> <origin>
adg

> <m_score__min__energy>
-17.09

> <m_primary>
energy

> <minimizedAffinity>
-7.44102

> <minimizedRMSD>
0.85129

> <CNNscore>
0.1933365017

> <CNNaffinity>
5.9142470360

> <CNN_VS>
1.1434398890

> <CNNaffinity_variance>
0.1942688078

$$$$
69:0


 31 34  0  0  0  0  0  0  0  0999 V2000
   58.8580   30.4033   50.1062 O   0  0  0  0  0  0  0  0  0  0  0  0
   59.3499   31.1598   49.2277 C   0  0  0  0  0  0  0  0  0  0  0  0
   60.3301   30.6557   48.3083 N   0  0  0  0  0  0  0  0  0  0  0  0
   60.9103   31.2953   47.8355 H   0  0  0  0  0  0  0  0  0  0  0  0
   58.9202   32.5961   49.1659 C   0  0  0  0  0  0  0  0  0  0  0  0
   58.9758   33.1156   47.7481 C   0  0  0  0  0  0  0  0  0  0  0  0
   57.8159   33.0537   46.9516 C   0  0  0  0  0  0  0  0  0  0  0  0
   57.8119   33.5650   45.6510 C   0  0  0  0  0  0  0  0  0  0  0  0
   58.9680   34.1399   45.1239 C   0  0  0  0  0  0  0  0  0  0  0  0
   60.1300   34.2059   45.8958 C   0  0  0  0  0  0  0  0  0  0  0  0
   60.1455   33.7046   47.2083 C   0  0  0  0  0  0  0  0  0  0  0  0
   61.3636   33.8010   47.9650 N   0  0  0  0  0  0  0  0  0  0  0  0
   62.5980   33.2957   47.3431 C   0  0  0  0  0  0  0  0  0  0  0  0
   63.6783   32.8880   48.3697 C   0  0  0  0  0  0  0  0  0  0  0  0
   63.1210   32.6311   49.6421 O   0  0  0  0  0  0  0  0  0  0  0  0
   62.5540   33.8226   50.1353 C   0  0  0  0  0  0  0  0  0  0  0  0
   61.2581   34.1238   49.3941 C   0  0  0  0  0  0  0  0  0  0  0  0
   60.4981   29.2287   48.0487 C   0  0  0  0  0  0  0  0  0  0  0  0
   59.5008   28.7763   47.0160 C   0  0  0  0  0  0  0  0  0  0  0  0
   58.8853   29.7234   46.1809 C   0  0  0  0  0  0  0  0  0  0  0  0
   57.9170   29.3214   45.2591 C   0  0  0  0  0  0  0  0  0  0  0  0
   57.5375   27.9789   45.1823 C   0  0  0  0  0  0  0  0  0  0  0  0
   58.1157   27.0198   46.0352 C   0  0  0  0  0  0  0  0  0  0  0  0
   59.1208   27.4275   46.9346 C   0  0  0  0  0  0  0  0  0  0  0  0
   57.6441   25.6161   45.9769 C   0  0  0  0  0  0  0  0  0  0  0  0
   58.4722   24.5613   45.8152 N   0  0  0  0  0  0  0  0  0  0  0  0
   57.6367   23.4982   45.7982 C   0  0  0  0  0  0  0  0  0  0  0  0
   58.0508   22.3181   45.6547 O   0  0  0  0  0  0  0  0  0  0  0  0
   56.3234   23.8039   45.9268 N   0  0  0  0  0  0  0  0  0  0  0  0
   56.3395   25.1431   46.0337 C   0  0  0  0  0  0  0  0  0  0  0  0
   55.1787   25.9079   46.1384 O   0  0  0  0  0  0  0  0  0  0  0  0
  1  2  2  0
  2  5  1  0
  5  6  1  0
  6  7  2  0
  7  8  1  0
  8  9  2  0
  9 10  1  0
 10 11  2  0
 11 12  1  0
 12 13  1  0
 13 14  1  0
 14 15  1  0
 15 16  1  0
 16 17  1  0
  2  3  1  0
  3 18  1  0
 18 19  1  0
 19 20  2  0
 20 21  1  0
 21 22  2  0
 22 23  1  0
 23 25  1  0
 25 26  1  0
 26 27  1  0
 27 28  2  0
 27 29  1  0
 29 30  1  0
 30 31  1  0
 23 24  2  0
 11  6  1  0
 17 12  1  0
 24 19  1  0
 30 25  2  0
  3  4  1  0
M  CHG 1  26  -1
M  CHG 1  29  -1
M  CHG 1  31  -1
M  END
> <UniqueID>
65

> <SMILES>
O=C(Cc1ccccc1N1CCOCC1)NCc1cccc(-c2[n-]c(=O)[n-]c2[O-])c1

> <Energy>
89.4067681626771

> <Genealogy>
O=C(Cc1ccccc1N1CCOCC1)NCc1cccc(-c2[n-]c(=O)[n-]c2[O-])c1 (protonated)
O=C(Cc1ccccc1N1CCOCC1)NCc1cccc(-c2[n-]c(=O)[n-]c2[O-])c1 (3D coordinates assigned)
O=C(Cc1ccccc1N1CCOCC1)NCc1cccc(-c2[n-]c(=O)[n-]c2[O-])c1 (nonaromatic ring conformer: 89.4067681626771 kcal/mol)

> <smiles>
O=C(Cc1ccccc1N1CCOCC1)NCc1cccc(-c2[nH]c(=O)[nH]c2O)c1

> <score_type>
oracle

> <origin>
adg

> <m_score__min__energy>
-17.66

> <m_primary>
energy

> <minimizedAffinity>
-8.66345

> <minimizedRMSD>
0.80716

> <CNNscore>
0.4144598842

> <CNNaffinity>
6.7618980408

> <CNN_VS>
2.8025355339

> <CNNaffinity_variance>
0.0070407898

$$$$
77:0


 23 25  0  0  0  0  0  0  0  0999 V2000
   58.2565   29.1645   44.7263 C   0  0  0  0  0  0  0  0  0  0  0  0
   58.6861   28.5016   45.8118 C   0  0  0  0  0  0  0  0  0  0  0  0
   58.5108   27.1375   46.0685 C   0  0  0  0  0  0  0  0  0  0  0  0
   57.8928   26.2279   45.2886 C   0  0  0  0  0  0  0  0  0  0  0  0
   59.0571   26.9026   47.3216 C   0  0  0  0  0  0  0  0  0  0  0  0
   59.5545   28.1087   47.7693 C   0  0  0  0  0  0  0  0  0  0  0  0
   60.2344   28.3037   49.0914 C   0  0  0  0  0  0  0  0  0  0  0  0
   59.3298   29.0837   46.8569 N   0  0  0  0  0  0  0  0  0  0  0  0
   57.3372   24.9552   45.8012 C   0  0  0  0  0  0  0  0  0  0  0  0
   55.9893   24.8783   46.1778 C   0  0  0  0  0  0  0  0  0  0  0  0
   55.1703   25.9998   46.1100 O   0  0  0  0  0  0  0  0  0  0  0  0
   55.4744   23.7036   46.6251 N   0  0  0  0  0  0  0  0  0  0  0  0
   56.2411   22.5872   46.7011 C   0  0  0  0  0  0  0  0  0  0  0  0
   55.7431   21.5107   47.1227 O   0  0  0  0  0  0  0  0  0  0  0  0
   57.5414   22.6266   46.3166 N   0  0  0  0  0  0  0  0  0  0  0  0
   58.1035   23.7764   45.8605 C   0  0  0  0  0  0  0  0  0  0  0  0
   59.3053   23.7669   45.4798 O   0  0  0  0  0  0  0  0  0  0  0  0
   59.7306   30.4593   46.9809 C   0  0  0  0  0  0  0  0  0  0  0  0
   58.9028   31.5619   47.0652 C   0  0  0  0  0  0  0  0  0  0  0  0
   59.6655   32.6649   47.2014 N   0  0  0  0  0  0  0  0  0  0  0  0
   60.9336   32.2785   47.2257 N   0  0  0  0  0  0  0  0  0  0  0  0
   62.0618   33.1951   47.3074 C   0  0  0  0  0  0  0  0  0  0  0  0
   61.0163   30.9422   47.0854 C   0  0  0  0  0  0  0  0  0  0  0  0
  1  2  2  0
  2  3  1  0
  3  4  2  0
  4  9  1  0
  9 10  2  0
 10 11  1  0
 10 12  1  0
 12 13  1  0
 13 14  2  0
 13 15  1  0
 15 16  1  0
 16 17  2  0
  3  5  1  0
  5  6  2  0
  6  7  1  0
  6  8  1  0
  8 18  1  0
 18 19  1  0
 19 20  2  0
 20 21  1  0
 21 22  1  0
 21 23  1  0
  8  2  1  0
 23 18  2  0
 16  9  1  0
M  CHG 1  11  -1
M  CHG 1  12  -1
M  CHG 1  15  -1
M  END
> <UniqueID>
71

> <SMILES>
C=c1/c(=C/c2c([O-])[n-]c(=O)[n-]c2=O)cc(C)n1-c1cnn(C)c1

> <Energy>
111.75612534969723

> <Genealogy>
C=c1c(=Cc2c([O-])[n-]c(=O)[n-]c2=O)cc(C)n1-c1cnn(C)c1 (protonated)
C=c1/c(=C/c2c([O-])[n-]c(=O)[n-]c2=O)cc(C)n1-c1cnn(C)c1 (cis-trans isomerization)
C=c1/c(=C/c2c([O-])[n-]c(=O)[n-]c2=O)cc(C)n1-c1cnn(C)c1 (3D coordinates assigned)
C=c1/c(=C/c2c([O-])[n-]c(=O)[n-]c2=O)cc(C)n1-c1cnn(C)c1 (optimized conformer: 111.75612534969723 kcal/mol)

> <smiles>
C=c1c(=Cc2c(O)[nH]c(=O)[nH]c2=O)cc(C)n1-c1cnn(C)c1

> <score_type>
oracle

> <origin>
adg

> <m_score__min__energy>
-14.98

> <m_primary>
energy

> <minimizedAffinity>
-7.65126

> <minimizedRMSD>
2.31750

> <CNNscore>
0.1957421005

> <CNNaffinity>
6.0288810730

> <CNN_VS>
1.1801058054

> <CNNaffinity_variance>
0.5119538903

$$$$
88:0


 21 22  0  0  0  0  0  0  0  0999 V2000
   56.9206   26.0310   46.0911 C   0  0  0  0  0  0  0  0  0  0  0  0
   55.6903   26.2925   46.1842 O   0  0  0  0  0  0  0  0  0  0  0  0
   57.7704   26.8279   45.2602 N   0  0  0  0  0  0  0  0  0  0  0  0
   60.3819   26.6974   46.6476 C   0  0  0  0  0  0  0  0  0  0  0  0
   59.6755   27.9933   46.3543 C   0  0  0  0  0  0  0  0  0  0  0  0
   60.2799   29.2024   46.7407 C   0  0  0  0  0  0  0  0  0  0  0  0
   59.6292   30.4205   46.5328 C   0  0  0  0  0  0  0  0  0  0  0  0
   60.3898   31.9193   47.0353 Cl  0  0  0  0  0  0  0  0  0  0  0  0
   58.3652   30.4439   45.9378 C   0  0  0  0  0  0  0  0  0  0  0  0
   57.7603   29.2545   45.5277 C   0  0  0  0  0  0  0  0  0  0  0  0
   56.5042   29.2953   44.9322 O   0  0  0  0  0  0  0  0  0  0  0  0
   58.4183   28.0271   45.7042 C   0  0  0  0  0  0  0  0  0  0  0  0
   57.4898   24.8608   46.8243 C   0  0  0  0  0  0  0  0  0  0  0  0
   57.1832   23.6000   46.0757 C   0  0  0  0  0  0  0  0  0  0  0  0
   56.7392   23.6450   44.7480 C   0  0  0  0  0  0  0  0  0  0  0  0
   56.5212   22.4410   44.0769 C   0  0  0  0  0  0  0  0  0  0  0  0
   56.1187   22.4451   42.8839 O   0  0  0  0  0  0  0  0  0  0  0  0
   56.7482   21.2613   44.7104 N   0  0  0  0  0  0  0  0  0  0  0  0
   57.1894   21.2332   45.9949 C   0  0  0  0  0  0  0  0  0  0  0  0
   57.3979   20.1312   46.5638 O   0  0  0  0  0  0  0  0  0  0  0  0
   57.4082   22.3950   46.6642 N   0  0  0  0  0  0  0  0  0  0  0  0
  4  5  1  0
  5  6  2  0
  6  7  1  0
  7  8  1  0
  7  9  2  0
  9 10  1  0
 10 11  1  0
 10 12  2  0
 12  3  1  0
  3  1  1  0
  1  2  2  0
  1 13  1  0
 13 14  1  0
 14 15  2  0
 15 16  1  0
 16 17  2  0
 16 18  1  0
 18 19  1  0
 19 20  2  0
 19 21  1  0
 12  5  1  0
 21 14  1  0
M  CHG 1   3  -1
M  CHG 1  11  -1
M  CHG 1  18  -1
M  CHG 1  21  -1
M  END
> <UniqueID>
80

> <SMILES>
Cc1cc(Cl)cc([O-])c1[N-]C(=O)Cc1cc(=O)[n-]c(=O)[n-]1

> <Energy>
34.67321485905095

> <Genealogy>
Cc1cc(Cl)cc([O-])c1[N-]C(=O)Cc1cc(=O)[n-]c(=O)[n-]1 (protonated)
Cc1cc(Cl)cc([O-])c1[N-]C(=O)Cc1cc(=O)[n-]c(=O)[n-]1 (3D coordinates assigned)
Cc1cc(Cl)cc([O-])c1[N-]C(=O)Cc1cc(=O)[n-]c(=O)[n-]1 (optimized conformer: 34.67321485905095 kcal/mol)

> <smiles>
Cc1cc(Cl)cc(O)c1NC(=O)Cc1cc(=O)[nH]c(=O)[nH]1

> <score_type>
oracle

> <origin>
adg

> <m_score__min__energy>
-15.42

> <m_primary>
energy

> <minimizedAffinity>
-7.27745

> <minimizedRMSD>
1.54871

> <CNNscore>
0.2928203046

> <CNNaffinity>
5.8162918091

> <CNN_VS>
1.7031283379

> <CNNaffinity_variance>
0.6547358632

$$$$
89:0


 30 32  0  0  0  0  0  0  0  0999 V2000
   58.6751   28.9838   47.0741 N   0  0  0  0  0  0  0  0  0  0  0  0
   58.5433   27.6828   46.7517 C   0  0  0  0  0  0  0  0  0  0  0  0
   57.7667   27.6155   45.6135 C   0  0  0  0  0  0  0  0  0  0  0  0
   57.4700   28.9286   45.2920 C   0  0  0  0  0  0  0  0  0  0  0  0
   56.7079   29.4046   44.0990 C   0  0  0  0  0  0  0  0  0  0  0  0
   58.0416   29.7477   46.1980 N   0  0  0  0  0  0  0  0  0  0  0  0
   57.4250   26.4497   44.8473 N   0  0  0  0  0  0  0  0  0  0  0  0
   56.7644   25.3012   45.4040 C   0  0  0  0  0  0  0  0  0  0  0  0
   56.0931   25.4188   46.4669 O   0  0  0  0  0  0  0  0  0  0  0  0
   57.6556   26.4366   43.8903 H   0  0  0  0  0  0  0  0  0  0  0  0
   56.8220   23.9848   44.7236 C   0  0  0  0  0  0  0  0  0  0  0  0
   57.8478   23.0626   44.9970 C   0  0  0  0  0  0  0  0  0  0  0  0
   57.8732   21.8265   44.3480 C   0  0  0  0  0  0  0  0  0  0  0  0
   56.8670   21.5132   43.4324 C   0  0  0  0  0  0  0  0  0  0  0  0
   56.8741   20.4036   42.8382 O   0  0  0  0  0  0  0  0  0  0  0  0
   55.8738   22.4050   43.1833 N   0  0  0  0  0  0  0  0  0  0  0  0
   55.8255   23.6163   43.8014 C   0  0  0  0  0  0  0  0  0  0  0  0
   59.6072   29.6039   48.3930 S   0  0  0  0  0  0  0  0  0  0  0  0
   58.6862   29.9024   49.5435 O   0  0  0  0  0  0  0  0  0  0  0  0
   60.6023   28.5592   48.8200 O   0  0  0  0  0  0  0  0  0  0  0  0
   60.4258   33.3671   47.0580 C   0  0  0  0  0  0  0  0  0  0  0  0
   61.8283   33.4037   47.1715 C   0  0  0  0  0  0  0  0  0  0  0  0
   62.5337   32.3018   47.6549 C   0  0  0  0  0  0  0  0  0  0  0  0
   61.8545   31.1443   48.0312 C   0  0  0  0  0  0  0  0  0  0  0  0
   60.4593   31.0755   47.9211 C   0  0  0  0  0  0  0  0  0  0  0  0
   59.7432   32.1820   47.4237 C   0  0  0  0  0  0  0  0  0  0  0  0
   58.3631   32.0833   47.2772 O   0  0  0  0  0  0  0  0  0  0  0  0
   59.4725   34.8096   45.0909 C   0  0  0  0  0  0  0  0  0  0  0  0
   59.7186   34.5743   46.5512 C   0  0  0  0  0  0  0  0  0  0  0  0
   59.3070   35.4396   47.3711 O   0  0  0  0  0  0  0  0  0  0  0  0
 28 29  1  0
 29 30  2  0
 29 21  1  0
 21 22  2  0
 22 23  1  0
 23 24  2  0
 24 25  1  0
 25 18  1  0
 18 19  2  0
 18 20  2  0
 18  1  1  0
  1  2  1  0
  2  3  2  0
  3  7  1  0
  7  8  1  0
  8  9  2  0
  8 11  1  0
 11 12  1  0
 12 13  2  0
 13 14  1  0
 14 15  2  0
 14 16  1  0
 16 17  1  0
  3  4  1  0
  4  5  1  0
  4  6  2  0
 25 26  2  0
 26 27  1  0
 26 21  1  0
  6  1  1  0
 17 11  2  0
  7 10  1  0
M  CHG 1  16  -1
M  CHG 1  27  -1
M  END
> <UniqueID>
81

> <SMILES>
CC(=O)c1cccc(S(=O)(=O)n2cc(NC(=O)c3ccc(=O)[n-]c3)c(C)n2)c1[O-]

> <Energy>
86.28138774309774

> <Genealogy>
CC(=O)c1cccc(S(=O)(=O)n2cc(NC(=O)c3ccc(=O)[n-]c3)c(C)n2)c1[O-] (protonated)
CC(=O)c1cccc(S(=O)(=O)n2cc(NC(=O)c3ccc(=O)[n-]c3)c(C)n2)c1[O-] (3D coordinates assigned)
CC(=O)c1cccc(S(=O)(=O)n2cc(NC(=O)c3ccc(=O)[n-]c3)c(C)n2)c1[O-] (optimized conformer: 86.28138774309774 kcal/mol)

> <smiles>
CC(=O)c1cccc(S(=O)(=O)n2cc(NC(=O)c3ccc(=O)[nH]c3)c(C)n2)c1O

> <score_type>
oracle

> <origin>
adg

> <m_score__min__energy>
-14.44

> <m_primary>
energy

> <minimizedAffinity>
-8.76669

> <minimizedRMSD>
0.56456

> <CNNscore>
0.4229558408

> <CNNaffinity>
6.4846916199

> <CNN_VS>
2.7427382469

> <CNNaffinity_variance>
0.0714995191

$$$$
24:0


 30 33  0  0  0  0  0  0  0  0999 V2000
   59.7581   26.8543   47.1461 C   0  0  0  0  0  0  0  0  0  0  0  0
   58.9978   27.5188   46.2615 C   0  0  0  0  0  0  0  0  0  0  0  0
   58.2673   26.9694   45.1957 C   0  0  0  0  0  0  0  0  0  0  0  0
   57.9419   25.6928   44.9123 C   0  0  0  0  0  0  0  0  0  0  0  0
   57.8742   28.0364   44.4048 C   0  0  0  0  0  0  0  0  0  0  0  0
   58.2984   29.1842   45.0407 C   0  0  0  0  0  0  0  0  0  0  0  0
   58.0614   30.5745   44.5331 C   0  0  0  0  0  0  0  0  0  0  0  0
   58.9793   28.8743   46.1677 N   0  0  0  0  0  0  0  0  0  0  0  0
   57.2540   24.7618   45.8209 C   0  0  0  0  0  0  0  0  0  0  0  0
   57.8184   23.6751   46.3796 N   0  0  0  0  0  0  0  0  0  0  0  0
   56.8646   23.2284   47.2254 C   0  0  0  0  0  0  0  0  0  0  0  0
   57.0160   22.1994   47.9327 O   0  0  0  0  0  0  0  0  0  0  0  0
   55.7427   23.9784   47.2618 N   0  0  0  0  0  0  0  0  0  0  0  0
   56.0118   24.9518   46.3784 C   0  0  0  0  0  0  0  0  0  0  0  0
   55.1432   25.9956   46.0891 O   0  0  0  0  0  0  0  0  0  0  0  0
   59.5987   29.8161   47.0620 C   0  0  0  0  0  0  0  0  0  0  0  0
   60.8224   30.4097   46.7230 C   0  0  0  0  0  0  0  0  0  0  0  0
   61.4300   31.3183   47.5936 C   0  0  0  0  0  0  0  0  0  0  0  0
   60.8262   31.6389   48.8213 C   0  0  0  0  0  0  0  0  0  0  0  0
   59.5907   31.0572   49.1493 C   0  0  0  0  0  0  0  0  0  0  0  0
   58.9839   30.1482   48.2773 C   0  0  0  0  0  0  0  0  0  0  0  0
   61.4730   32.6079   49.7356 C   0  0  0  0  0  0  0  0  0  0  0  0
   61.3259   33.8421   49.5190 O   0  0  0  0  0  0  0  0  0  0  0  0
   62.2611   32.1769   50.8612 N   0  0  0  0  0  0  0  0  0  0  0  0
   63.1059   30.9744   50.7727 C   0  0  0  0  0  0  0  0  0  0  0  0
   64.4524   31.2350   51.4516 C   0  0  0  0  0  0  0  0  0  0  0  0
   64.2862   31.6291   52.9412 C   0  0  0  0  0  0  0  0  0  0  0  0
   65.4364   32.5420   53.3856 C   0  0  0  0  0  0  0  0  0  0  0  0
   62.9097   32.2737   53.2508 C   0  0  0  0  0  0  0  0  0  0  0  0
   62.3372   33.0379   52.0508 C   0  0  0  0  0  0  0  0  0  0  0  0
  1  2  2  0
  2  3  1  0
  3  4  2  0
  4  9  1  0
  9 10  1  0
 10 11  1  0
 11 12  2  0
 11 13  1  0
 13 14  1  0
 14 15  1  0
  3  5  1  0
  5  6  2  0
  6  7  1  0
  6  8  1  0
  8 16  1  0
 16 17  2  0
 17 18  1  0
 18 19  2  0
 19 22  1  0
 22 23  2  0
 22 24  1  0
 24 25  1  0
 25 26  1  0
 26 27  1  0
 27 28  1  0
 27 29  1  0
 29 30  1  0
 19 20  1  0
 20 21  2  0
  8  2  1  0
 21 16  1  0
 14  9  2  0
 30 24  1  0
M  CHG 1  10  -1
M  CHG 1  13  -1
M  CHG 1  15  -1
M  END
> <UniqueID>
23

> <SMILES>
C=c1c(=Cc2[n-]c(=O)[n-]c2[O-])cc(C)n1-c1ccc(C(=O)N2CCC(C)CC2)cc1

> <Energy>
134.99206739539255

> <Genealogy>
C=c1c(=Cc2[n-]c(=O)[n-]c2[O-])cc(C)n1-c1ccc(C(=O)N2CCC(C)CC2)cc1 (protonated)
C=c1c(=Cc2[n-]c(=O)[n-]c2[O-])cc(C)n1-c1ccc(C(=O)N2CCC(C)CC2)cc1 (3D coordinates assigned)
C=c1c(=Cc2[n-]c(=O)[n-]c2[O-])cc(C)n1-c1ccc(C(=O)N2CCC(C)CC2)cc1 (nonaromatic ring conformer: 134.99206739539255 kcal/mol)

> <smiles>
C=c1c(=Cc2[nH]c(=O)[nH]c2O)cc(C)n1-c1ccc(C(=O)N2CCC(C)CC2)cc1

> <score_type>
oracle

> <origin>
adg

> <m_score__min__energy>
-16.030000000000001

> <m_primary>
energy

> <minimizedAffinity>
-8.69345

> <minimizedRMSD>
1.54715

> <CNNscore>
0.1838044524

> <CNNaffinity>
6.5656523705

> <CNN_VS>
1.2067961693

> <CNNaffinity_variance>
0.0787627101

$$$$
71:0


 30 33  0  0  0  0  0  0  0  0999 V2000
   58.8614   29.9637   53.1366 C   0  0  0  0  0  0  0  0  0  0  0  0
   57.3909   29.8476   53.1665 N   0  0  0  0  0  0  0  0  0  0  0  0
   56.6902   28.7346   53.4987 C   0  0  0  0  0  0  0  0  0  0  0  0
   57.2843   27.4551   54.0098 C   0  0  0  0  0  0  0  0  0  0  0  0
   55.3358   28.9669   53.3892 C   0  0  0  0  0  0  0  0  0  0  0  0
   55.1788   30.2928   53.0271 C   0  0  0  0  0  0  0  0  0  0  0  0
   53.9645   30.8712   52.9226 C   0  0  0  0  0  0  0  0  0  0  0  0
   56.4743   30.8129   52.8683 C   0  0  0  0  0  0  0  0  0  0  0  0
   56.8002   32.0272   52.4033 C   0  0  0  0  0  0  0  0  0  0  0  0
   52.9943   30.6574   51.8380 C   0  0  0  0  0  0  0  0  0  0  0  0
   53.1607   29.8019   50.8139 N   0  0  0  0  0  0  0  0  0  0  0  0
   52.1083   30.0660   50.0110 C   0  0  0  0  0  0  0  0  0  0  0  0
   51.9017   29.4413   48.9389 O   0  0  0  0  0  0  0  0  0  0  0  0
   51.3000   31.0566   50.4435 N   0  0  0  0  0  0  0  0  0  0  0  0
   51.8861   31.4322   51.5915 C   0  0  0  0  0  0  0  0  0  0  0  0
   51.4228   32.4689   52.3915 O   0  0  0  0  0  0  0  0  0  0  0  0
   59.9519   29.7973   49.3048 C   0  0  0  0  0  0  0  0  0  0  0  0
   59.0478   30.6725   50.4197 S   0  0  0  0  0  0  0  0  0  0  0  0
   59.4213   29.7206   51.7583 C   0  0  0  0  0  0  0  0  0  0  0  0
   60.3127   28.7233   51.3505 C   0  0  0  0  0  0  0  0  0  0  0  0
   60.9074   27.6931   52.2594 C   0  0  0  0  0  0  0  0  0  0  0  0
   60.6087   28.7737   49.9791 C   0  0  0  0  0  0  0  0  0  0  0  0
   60.0734   30.1108   47.8334 C   0  0  0  0  0  0  0  0  0  0  0  0
   58.1646   32.6197   45.7475 C   0  0  0  0  0  0  0  0  0  0  0  0
   58.8937   33.6697   45.8951 N   0  0  0  0  0  0  0  0  0  0  0  0
   60.2647   33.5449   46.3483 C   0  0  0  0  0  0  0  0  0  0  0  0
   60.3525   32.5680   47.5433 C   0  0  0  0  0  0  0  0  0  0  0  0
   59.4311   31.3890   47.4313 N   0  0  0  0  0  0  0  0  0  0  0  0
   58.7389   31.2821   46.1220 C   0  0  0  0  0  0  0  0  0  0  0  0
   58.6948   31.5749   48.1122 H   0  0  0  0  0  0  0  0  0  0  0  0
 24 25  2  0
 25 26  1  0
 26 27  1  0
 27 28  1  0
 28 23  1  0
 23 17  1  0
 17 18  1  0
 18 19  1  0
 19  1  1  0
  1  2  1  0
  2  3  1  0
  3  4  1  0
  3  5  2  0
  5  6  1  0
  6  7  2  0
  7 10  1  0
 10 11  1  0
 11 12  1  0
 12 13  2  0
 12 14  1  0
 14 15  1  0
 15 16  1  0
  6  8  1  0
  8  9  2  0
 19 20  2  0
 20 21  1  0
 20 22  1  0
 28 29  1  0
 29 24  1  0
 22 17  2  0
  8  2  1  0
 15 10  2  0
 28 30  1  0
M  CHG 1  11  -1
M  CHG 1  14  -1
M  CHG 1  16  -1
M  CHG 1  28   1
M  END
> <UniqueID>
67

> <SMILES>
C=c1/c(=C\c2[n-]c(=O)[n-]c2[O-])cc(C)n1Cc1sc(C[N@@H+]2CC=NCC2)cc1C

> <Energy>
158.5486287256236

> <Genealogy>
C=c1c(=Cc2[n-]c(=O)[n-]c2[O-])cc(C)n1Cc1sc(C[NH+]2CC=NCC2)cc1C (protonated)
C=c1c(=Cc2[n-]c(=O)[n-]c2[O-])cc(C)n1Cc1sc(C[N@@H+]2CC=NCC2)cc1C (chirality)
C=c1/c(=C\c2[n-]c(=O)[n-]c2[O-])cc(C)n1Cc1sc(C[N@@H+]2CC=NCC2)cc1C (cis-trans isomerization)
C=c1/c(=C\c2[n-]c(=O)[n-]c2[O-])cc(C)n1Cc1sc(C[N@@H+]2CC=NCC2)cc1C (3D coordinates assigned)
C=c1/c(=C\c2[n-]c(=O)[n-]c2[O-])cc(C)n1Cc1sc(C[N@@H+]2CC=NCC2)cc1C (nonaromatic ring conformer: 158.5486287256236 kcal/mol)

> <smiles>
C=c1c(=Cc2[nH]c(=O)[nH]c2O)cc(C)n1Cc1sc(CN2CC=NCC2)cc1C

> <score_type>
oracle

> <origin>
adg

> <m_score__min__energy>
-15.23

> <m_primary>
energy

> <minimizedAffinity>
-5.70003

> <minimizedRMSD>
1.02993

> <CNNscore>
0.0393634960

> <CNNaffinity>
5.1559147835

> <CNN_VS>
0.2029548287

> <CNNaffinity_variance>
0.4999960363

$$$$
89:0


 27 29  0  0  0  0  0  0  0  0999 V2000
   58.1154   27.6836   45.6123 C   0  0  0  0  0  0  0  0  0  0  0  0
   56.8638   27.2379   45.3939 N   0  0  0  0  0  0  0  0  0  0  0  0
   56.7444   26.2014   46.2456 C   0  0  0  0  0  0  0  0  0  0  0  0
   55.6953   25.5138   46.3347 O   0  0  0  0  0  0  0  0  0  0  0  0
   57.8350   25.9650   47.0003 N   0  0  0  0  0  0  0  0  0  0  0  0
   58.7077   26.9073   46.6007 C   0  0  0  0  0  0  0  0  0  0  0  0
   60.0535   27.0463   47.1799 C   0  0  0  0  0  0  0  0  0  0  0  0
   61.0483   26.4989   46.6330 O   0  0  0  0  0  0  0  0  0  0  0  0
   60.2253   27.8112   48.3784 N   0  0  0  0  0  0  0  0  0  0  0  0
   59.6808   29.1509   48.5643 C   0  0  0  0  0  0  0  0  0  0  0  0
   60.7844   30.1716   48.5375 C   0  0  0  0  0  0  0  0  0  0  0  0
   61.3620   30.6128   49.7387 C   0  0  0  0  0  0  0  0  0  0  0  0
   62.4046   31.5450   49.7189 C   0  0  0  0  0  0  0  0  0  0  0  0
   62.8799   32.0380   48.4994 C   0  0  0  0  0  0  0  0  0  0  0  0
   62.3136   31.5989   47.2995 C   0  0  0  0  0  0  0  0  0  0  0  0
   61.2705   30.6665   47.3152 C   0  0  0  0  0  0  0  0  0  0  0  0
   58.6793   28.8983   44.9334 C   0  0  0  0  0  0  0  0  0  0  0  0
   56.8970   29.6220   43.5170 O   0  0  0  0  0  0  0  0  0  0  0  0
   57.5796   29.8382   44.5541 C   0  0  0  0  0  0  0  0  0  0  0  0
   57.3183   30.9890   45.3650 N   0  0  0  0  0  0  0  0  0  0  0  0
   57.6525   32.3442   44.9489 C   0  0  0  0  0  0  0  0  0  0  0  0
   58.5027   32.9998   46.0033 C   0  0  0  0  0  0  0  0  0  0  0  0
   58.3207   32.6947   47.3634 C   0  0  0  0  0  0  0  0  0  0  0  0
   59.0778   33.3503   48.3394 C   0  0  0  0  0  0  0  0  0  0  0  0
   60.0131   34.3198   47.9669 C   0  0  0  0  0  0  0  0  0  0  0  0
   60.1910   34.6375   46.6170 C   0  0  0  0  0  0  0  0  0  0  0  0
   59.4382   33.9830   45.6387 C   0  0  0  0  0  0  0  0  0  0  0  0
 18 19  2  0
 19 17  1  0
 17  1  1  0
  1  2  1  0
  2  3  1  0
  3  4  2  0
  3  5  1  0
  5  6  1  0
  6  7  1  0
  7  8  2  0
  7  9  1  0
  9 10  1  0
 10 11  1  0
 11 12  2  0
 12 13  1  0
 13 14  2  0
 14 15  1  0
 15 16  2  0
 19 20  1  0
 20 21  1  0
 21 22  1  0
 22 23  2  0
 23 24  1  0
 24 25  2  0
 25 26  1  0
 26 27  2  0
  6  1  2  0
 16 11  1  0
 27 22  1  0
M  CHG 1   2  -1
M  CHG 1   5  -1
M  CHG 1   9  -1
M  CHG 1  20  -1
M  END
> <UniqueID>
85

> <SMILES>
O=C(Cc1[n-]c(=O)[n-]c1C(=O)[N-]Cc1ccccc1)[N-]Cc1ccccc1

> <Energy>
63.921701406498464

> <Genealogy>
O=C(Cc1[n-]c(=O)[n-]c1C(=O)[N-]Cc1ccccc1)[N-]Cc1ccccc1 (protonated)
O=C(Cc1[n-]c(=O)[n-]c1C(=O)[N-]Cc1ccccc1)[N-]Cc1ccccc1 (3D coordinates assigned)
O=C(Cc1[n-]c(=O)[n-]c1C(=O)[N-]Cc1ccccc1)[N-]Cc1ccccc1 (optimized conformer: 63.921701406498464 kcal/mol)

> <smiles>
O=C(Cc1[nH]c(=O)[nH]c1C(=O)NCc1ccccc1)NCc1ccccc1

> <score_type>
oracle

> <origin>
adg

> <m_score__min__energy>
-14.84

> <m_primary>
energy

> <minimizedAffinity>
-7.22794

> <minimizedRMSD>
0.91919

> <CNNscore>
0.7700359821

> <CNNaffinity>
6.9286665916

> <CNN_VS>
5.3353223801

> <CNNaffinity_variance>
0.0978524610

$$$$
90:0


 38 42  0  0  0  0  0  0  0  0999 V2000
   61.3018   32.9406   48.1611 C   0  0  0  0  0  0  0  0  0  0  0  0
   62.6191   33.3118   47.8568 C   0  0  0  0  0  0  0  0  0  0  0  0
   63.5143   33.6476   48.8743 C   0  0  0  0  0  0  0  0  0  0  0  0
   63.0976   33.6203   50.2053 C   0  0  0  0  0  0  0  0  0  0  0  0
   61.7890   33.2520   50.5226 C   0  0  0  0  0  0  0  0  0  0  0  0
   60.8745   32.9063   49.5104 C   0  0  0  0  0  0  0  0  0  0  0  0
   60.6721   30.2147   47.1892 C   0  0  0  0  0  0  0  0  0  0  0  0
   60.1581   31.3214   46.6301 C   0  0  0  0  0  0  0  0  0  0  0  0
   59.2105   31.3960   45.5967 C   0  0  0  0  0  0  0  0  0  0  0  0
   58.6850   30.4388   44.8075 C   0  0  0  0  0  0  0  0  0  0  0  0
   58.8691   32.7337   45.4799 C   0  0  0  0  0  0  0  0  0  0  0  0
   59.6453   33.4258   46.3860 C   0  0  0  0  0  0  0  0  0  0  0  0
   59.6294   34.9104   46.5790 C   0  0  0  0  0  0  0  0  0  0  0  0
   60.4179   32.5728   47.0873 N   0  0  0  0  0  0  0  0  0  0  0  0
   58.3349   29.0769   45.2361 C   0  0  0  0  0  0  0  0  0  0  0  0
   59.2282   28.0921   45.4476 N   0  0  0  0  0  0  0  0  0  0  0  0
   58.4517   27.0030   45.6340 C   0  0  0  0  0  0  0  0  0  0  0  0
   58.9296   25.8608   45.8659 O   0  0  0  0  0  0  0  0  0  0  0  0
   57.1245   27.2296   45.5272 N   0  0  0  0  0  0  0  0  0  0  0  0
   57.0705   28.5444   45.2611 C   0  0  0  0  0  0  0  0  0  0  0  0
   55.8907   29.2445   45.0392 O   0  0  0  0  0  0  0  0  0  0  0  0
   59.4786   32.5431   49.8695 C   0  0  0  0  0  0  0  0  0  0  0  0
   58.5401   32.8658   49.0854 O   0  0  0  0  0  0  0  0  0  0  0  0
   59.1777   31.8428   51.1016 N   0  0  0  0  0  0  0  0  0  0  0  0
   58.1744   32.6001   51.8687 C   0  0  0  0  0  0  0  0  0  0  0  0
   57.8888   31.9653   53.2428 C   0  0  0  0  0  0  0  0  0  0  0  0
   58.2568   30.4576   53.3776 C   0  0  0  0  0  0  0  0  0  0  0  0
   58.5004   29.6519   52.0701 C   0  0  0  0  0  0  0  0  0  0  0  0
   58.6518   30.5000   50.8017 C   0  0  0  0  0  0  0  0  0  0  0  0
   58.5860   31.0633   50.9945 H   0  0  0  0  0  0  0  0  0  0  0  0
   57.2850   29.7348   54.2921 C   0  0  0  0  0  0  0  0  0  0  0  0
   57.7522   29.1681   55.3201 O   0  0  0  0  0  0  0  0  0  0  0  0
   55.8567   29.6856   54.0401 N   0  0  0  0  0  0  0  0  0  0  0  0
   54.9633   29.1794   55.0930 C   0  0  0  0  0  0  0  0  0  0  0  0
   53.5673   29.7887   54.9387 C   0  0  0  0  0  0  0  0  0  0  0  0
   53.0777   29.6030   53.6271 O   0  0  0  0  0  0  0  0  0  0  0  0
   53.8815   30.3234   52.7117 C   0  0  0  0  0  0  0  0  0  0  0  0
   55.3074   29.7643   52.6764 C   0  0  0  0  0  0  0  0  0  0  0  0
  7  8  2  0
  8  9  1  0
  9 10  2  0
 10 15  1  0
 15 16  1  0
 16 17  1  0
 17 18  2  0
 17 19  1  0
 19 20  1  0
 20 21  1  0
  9 11  1  0
 11 12  2  0
 12 13  1  0
 12 14  1  0
 14  1  1  0
  1  2  2  0
  2  3  1  0
  3  4  2  0
  4  5  1  0
  5  6  2  0
  6 22  1  0
 22 23  2  0
 24 22  1  0
 24 25  1  0
 25 26  1  0
 26 27  1  0
 27 31  1  0
 31 32  2  0
 31 33  1  0
 33 34  1  0
 34 35  1  0
 35 36  1  0
 36 37  1  0
 37 38  1  0
 27 28  1  0
 28 29  1  0
 14  8  1  0
  6  1  1  0
 29 24  1  0
 20 15  2  0
 38 33  1  0
 24 30  1  0
M  CHG 1  16  -1
M  CHG 1  19  -1
M  CHG 1  21  -1
M  CHG 1  24   1
M  END
> <UniqueID>
86

> <SMILES>
C=c1/c(=C\c2[n-]c(=O)[n-]c2[O-])cc(C)n1-c1ccccc1C(=O)[NH+]1CCC(C(=O)N2CCOCC2)CC1

> <Energy>
164.09787985492807

> <Genealogy>
C=c1c(=Cc2[n-]c(=O)[n-]c2[O-])cc(C)n1-c1ccccc1C(=O)[NH+]1CCC(C(=O)N2CCOCC2)CC1 (protonated)
C=c1/c(=C\c2[n-]c(=O)[n-]c2[O-])cc(C)n1-c1ccccc1C(=O)[NH+]1CCC(C(=O)N2CCOCC2)CC1 (cis-trans isomerization)
C=c1/c(=C\c2[n-]c(=O)[n-]c2[O-])cc(C)n1-c1ccccc1C(=O)[NH+]1CCC(C(=O)N2CCOCC2)CC1 (3D coordinates assigned)
C=c1/c(=C\c2[n-]c(=O)[n-]c2[O-])cc(C)n1-c1ccccc1C(=O)[NH+]1CCC(C(=O)N2CCOCC2)CC1 (nonaromatic ring conformer: 164.09787985492807 kcal/mol)

> <smiles>
C=c1c(=Cc2[nH]c(=O)[nH]c2O)cc(C)n1-c1ccccc1C(=O)N1CCC(C(=O)N2CCOCC2)CC1

> <score_type>
oracle

> <origin>
adg

> <m_score__min__energy>
-16.23

> <m_primary>
energy

> <minimizedAffinity>
-8.23982

> <minimizedRMSD>
1.12126

> <CNNscore>
0.3418278098

> <CNNaffinity>
7.1410393715

> <CNN_VS>
2.4410059452

> <CNNaffinity_variance>
0.1005145013

$$$$
5:0


 31 34  0  0  0  0  0  0  0  0999 V2000
   60.4923   26.7402   49.5500 O   0  0  0  0  0  0  0  0  0  0  0  0
   60.3893   27.0576   48.3343 C   0  0  0  0  0  0  0  0  0  0  0  0
   60.5860   28.4144   47.9064 N   0  0  0  0  0  0  0  0  0  0  0  0
   60.7088   28.5821   46.9441 H   0  0  0  0  0  0  0  0  0  0  0  0
   60.6147   29.5427   48.7968 C   0  0  0  0  0  0  0  0  0  0  0  0
   60.2692   29.4222   50.1537 C   0  0  0  0  0  0  0  0  0  0  0  0
   60.3081   30.5399   50.9909 C   0  0  0  0  0  0  0  0  0  0  0  0
   60.7040   31.7830   50.4891 C   0  0  0  0  0  0  0  0  0  0  0  0
   61.0720   31.9124   49.1425 C   0  0  0  0  0  0  0  0  0  0  0  0
   61.0346   30.7885   48.3051 C   0  0  0  0  0  0  0  0  0  0  0  0
   61.6035   33.4733   48.5100 S   0  0  0  0  0  0  0  0  0  0  0  0
   62.0081   34.3621   49.6544 O   0  0  0  0  0  0  0  0  0  0  0  0
   62.8096   33.2681   47.6342 O   0  0  0  0  0  0  0  0  0  0  0  0
   60.3419   34.2599   47.5900 N   0  0  0  0  0  0  0  0  0  0  0  0
   58.9898   33.8976   48.0902 C   0  0  0  0  0  0  0  0  0  0  0  0
   58.1956   33.0216   47.1114 C   0  0  0  0  0  0  0  0  0  0  0  0
   58.0606   33.7120   45.7444 C   0  0  0  0  0  0  0  0  0  0  0  0
   59.3262   34.4938   45.3410 C   0  0  0  0  0  0  0  0  0  0  0  0
   60.5482   34.0381   46.1427 C   0  0  0  0  0  0  0  0  0  0  0  0
   59.9832   26.0117   47.3410 C   0  0  0  0  0  0  0  0  0  0  0  0
   58.1685   26.0011   47.1146 S   0  0  0  0  0  0  0  0  0  0  0  0
   58.1319   27.4792   46.1039 C   0  0  0  0  0  0  0  0  0  0  0  0
   59.3050   28.0172   45.6341 N   0  0  0  0  0  0  0  0  0  0  0  0
   59.3075   29.1306   44.8440 C   0  0  0  0  0  0  0  0  0  0  0  0
   60.3874   29.6150   44.4166 O   0  0  0  0  0  0  0  0  0  0  0  0
   58.0824   29.7005   44.5270 C   0  0  0  0  0  0  0  0  0  0  0  0
   57.6847   30.7693   43.7630 C   0  0  0  0  0  0  0  0  0  0  0  0
   56.3297   30.8292   43.8085 N   0  0  0  0  0  0  0  0  0  0  0  0
   55.8685   29.8410   44.5698 N   0  0  0  0  0  0  0  0  0  0  0  0
   56.9380   29.1591   45.0063 C   0  0  0  0  0  0  0  0  0  0  0  0
   56.9326   28.0581   45.7938 N   0  0  0  0  0  0  0  0  0  0  0  0
  1  2  2  0
  2 20  1  0
 20 21  1  0
 21 22  1  0
 22 23  2  0
 23 24  1  0
 24 25  2  0
 24 26  1  0
 26 27  2  0
 27 28  1  0
 28 29  1  0
 29 30  2  0
 30 31  1  0
  2  3  1  0
  3  5  1  0
  5  6  2  0
  6  7  1  0
  7  8  2  0
  8  9  1  0
  9 11  1  0
 11 12  2  0
 11 13  2  0
 11 14  1  0
 14 15  1  0
 15 16  1  0
 16 17  1  0
 17 18  1  0
 18 19  1  0
  9 10  2  0
 31 22  1  0
 10  5  1  0
 30 26  1  0
 19 14  1  0
  3  4  1  0
M  CHG 1  28  -1
M  CHG 1  31  -1
M  END
> <UniqueID>
6

> <SMILES>
O=C(CSc1nc(=O)c2c[n-]nc2[n-]1)Nc1cccc(S(=O)(=O)N2CCCCC2)c1

> <Energy>
94.98506490211429

> <Genealogy>
O=C(CSc1nc(=O)c2c[n-]nc2[n-]1)Nc1cccc(S(=O)(=O)N2CCCCC2)c1 (protonated)
O=C(CSc1nc(=O)c2c[n-]nc2[n-]1)Nc1cccc(S(=O)(=O)N2CCCCC2)c1 (3D coordinates assigned)
O=C(CSc1nc(=O)c2c[n-]nc2[n-]1)Nc1cccc(S(=O)(=O)N2CCCCC2)c1 (nonaromatic ring conformer: 94.98506490211429 kcal/mol)

> <smiles>
O=C(CSc1nc(=O)c2c[nH]nc2[nH]1)Nc1cccc(S(=O)(=O)N2CCCCC2)c1

> <score_type>
oracle

> <origin>
adg

> <m_score__min__energy>
-15.08

> <m_primary>
energy

> <minimizedAffinity>
-5.60165

> <minimizedRMSD>
0.91899

> <CNNscore>
0.3037686944

> <CNNaffinity>
6.6509513855

> <CNN_VS>
2.0203509331

> <CNNaffinity_variance>
0.1015001610

$$$$
9:0


 32 34  0  0  0  0  0  0  0  0999 V2000
   60.9048   30.1755   48.3213 C   0  0  0  0  0  0  0  0  0  0  0  0
   59.9838   29.3339   48.9645 C   0  0  0  0  0  0  0  0  0  0  0  0
   58.9504   28.7371   48.2403 C   0  0  0  0  0  0  0  0  0  0  0  0
   58.8301   28.9660   46.8584 C   0  0  0  0  0  0  0  0  0  0  0  0
   59.7789   29.7628   46.2083 C   0  0  0  0  0  0  0  0  0  0  0  0
   60.7984   30.3820   46.9369 C   0  0  0  0  0  0  0  0  0  0  0  0
   61.9318   30.9250   49.1250 C   0  0  0  0  0  0  0  0  0  0  0  0
   61.1211   33.3612   49.2316 N   0  0  0  0  0  0  0  0  0  0  0  0
   61.2676   32.0641   49.8445 C   0  0  0  0  0  0  0  0  0  0  0  0
   60.9111   31.8962   51.0445 O   0  0  0  0  0  0  0  0  0  0  0  0
   62.3077   34.2256   49.1256 C   0  0  0  0  0  0  0  0  0  0  0  0
   63.1940   33.5109   46.8525 C   0  0  0  0  0  0  0  0  0  0  0  0
   63.4443   33.5386   48.3577 C   0  0  0  0  0  0  0  0  0  0  0  0
   59.7782   33.9407   49.0669 C   0  0  0  0  0  0  0  0  0  0  0  0
   59.3016   33.8290   47.6409 C   0  0  0  0  0  0  0  0  0  0  0  0
   58.3077   32.9004   47.2933 C   0  0  0  0  0  0  0  0  0  0  0  0
   57.9139   32.7787   45.9584 C   0  0  0  0  0  0  0  0  0  0  0  0
   58.4843   33.5620   45.0062 N   0  0  0  0  0  0  0  0  0  0  0  0
   59.4393   34.4794   45.3150 C   0  0  0  0  0  0  0  0  0  0  0  0
   59.8653   34.6310   46.6374 C   0  0  0  0  0  0  0  0  0  0  0  0
   57.7596   28.3875   46.1003 N   0  0  0  0  0  0  0  0  0  0  0  0
   57.8779   27.2108   45.2901 C   0  0  0  0  0  0  0  0  0  0  0  0
   58.2083   27.3376   44.0818 O   0  0  0  0  0  0  0  0  0  0  0  0
   57.5738   25.8616   45.8269 C   0  0  0  0  0  0  0  0  0  0  0  0
   56.2574   25.4961   46.1594 C   0  0  0  0  0  0  0  0  0  0  0  0
   55.2042   26.3840   45.9731 O   0  0  0  0  0  0  0  0  0  0  0  0
   55.9986   24.2572   46.6510 N   0  0  0  0  0  0  0  0  0  0  0  0
   56.9941   23.3552   46.8383 C   0  0  0  0  0  0  0  0  0  0  0  0
   56.7309   22.2110   47.2895 O   0  0  0  0  0  0  0  0  0  0  0  0
   58.2748   23.6850   46.5350 N   0  0  0  0  0  0  0  0  0  0  0  0
   58.5888   24.9078   46.0409 C   0  0  0  0  0  0  0  0  0  0  0  0
   59.7920   25.1801   45.8020 O   0  0  0  0  0  0  0  0  0  0  0  0
 12 13  1  0
 13 11  1  0
 11  8  1  0
  8 14  1  0
 14 15  1  0
 15 16  2  0
 16 17  1  0
 17 18  2  0
 18 19  1  0
 19 20  2  0
  8  9  1  0
  9 10  2  0
  9  7  1  0
  7  1  1  0
  1  2  2  0
  2  3  1  0
  3  4  2  0
  4 21  1  0
 21 22  1  0
 22 23  2  0
 22 24  1  0
 24 25  2  0
 25 26  1  0
 25 27  1  0
 27 28  1  0
 28 29  2  0
 28 30  1  0
 30 31  1  0
 31 32  2  0
  4  5  1  0
  5  6  2  0
 20 15  1  0
  6  1  1  0
 31 24  1  0
M  CHG 1  21  -1
M  CHG 1  26  -1
M  CHG 1  27  -1
M  CHG 1  30  -1
M  END
> <UniqueID>
10

> <SMILES>
CCCN(Cc1ccncc1)C(=O)Cc1ccc([N-]C(=O)c2c([O-])[n-]c(=O)[n-]c2=O)cc1

> <Energy>
56.747359909002384

> <Genealogy>
CCCN(Cc1ccncc1)C(=O)Cc1ccc([N-]C(=O)c2c([O-])[n-]c(=O)[n-]c2=O)cc1 (protonated)
CCCN(Cc1ccncc1)C(=O)Cc1ccc([N-]C(=O)c2c([O-])[n-]c(=O)[n-]c2=O)cc1 (3D coordinates assigned)
CCCN(Cc1ccncc1)C(=O)Cc1ccc([N-]C(=O)c2c([O-])[n-]c(=O)[n-]c2=O)cc1 (optimized conformer: 56.747359909002384 kcal/mol)

> <smiles>
CCCN(Cc1ccncc1)C(=O)Cc1ccc(NC(=O)c2c(O)[nH]c(=O)[nH]c2=O)cc1

> <score_type>
oracle

> <origin>
adg

> <m_score__min__energy>
-17.16

> <m_primary>
energy

> <minimizedAffinity>
-7.74895

> <minimizedRMSD>
0.62527

> <CNNscore>
0.3327224851

> <CNNaffinity>
6.8413081169

> <CNN_VS>
2.2762570381

> <CNNaffinity_variance>
0.0285472777

$$$$
21:0


 32 35  0  0  0  0  0  0  0  0999 V2000
   58.9870   32.8884   46.3159 C   0  0  0  0  0  0  0  0  0  0  0  0
   58.3482   33.5118   45.2308 C   0  0  0  0  0  0  0  0  0  0  0  0
   57.8739   32.7514   44.1585 C   0  0  0  0  0  0  0  0  0  0  0  0
   58.0207   31.3630   44.1631 C   0  0  0  0  0  0  0  0  0  0  0  0
   58.6407   30.7252   45.2471 C   0  0  0  0  0  0  0  0  0  0  0  0
   59.1179   31.4887   46.3214 C   0  0  0  0  0  0  0  0  0  0  0  0
   62.5578   32.8066   50.2862 N   0  0  0  0  0  0  0  0  0  0  0  0
   62.6786   32.5828   48.8177 C   0  0  0  0  0  0  0  0  0  0  0  0
   61.3652   32.1613   48.1497 C   0  0  0  0  0  0  0  0  0  0  0  0
   60.3231   33.1413   48.4764 N   0  0  0  0  0  0  0  0  0  0  0  0
   59.4718   33.6991   47.4567 C   0  0  0  0  0  0  0  0  0  0  0  0
   59.1209   34.9078   47.5389 O   0  0  0  0  0  0  0  0  0  0  0  0
   60.2421   33.6661   49.8430 C   0  0  0  0  0  0  0  0  0  0  0  0
   61.1623   32.8763   50.7850 C   0  0  0  0  0  0  0  0  0  0  0  0
   63.3490   33.9724   50.7296 C   0  0  0  0  0  0  0  0  0  0  0  0
   65.6971   33.1569   50.7554 C   0  0  0  0  0  0  0  0  0  0  0  0
   64.6041   33.5218   51.4302 C   0  0  0  0  0  0  0  0  0  0  0  0
   58.7632   29.2906   45.2659 N   0  0  0  0  0  0  0  0  0  0  0  0
   59.8376   28.5957   45.7032 C   0  0  0  0  0  0  0  0  0  0  0  0
   61.1102   29.2084   46.2024 C   0  0  0  0  0  0  0  0  0  0  0  0
   59.6132   27.2388   45.5892 C   0  0  0  0  0  0  0  0  0  0  0  0
   58.3311   27.0888   45.0749 C   0  0  0  0  0  0  0  0  0  0  0  0
   57.7207   25.9260   44.7771 C   0  0  0  0  0  0  0  0  0  0  0  0
   57.8350   28.3817   44.8736 C   0  0  0  0  0  0  0  0  0  0  0  0
   56.6421   28.7066   44.3471 C   0  0  0  0  0  0  0  0  0  0  0  0
   57.1515   25.0111   45.7847 C   0  0  0  0  0  0  0  0  0  0  0  0
   57.8064   23.9352   46.2536 N   0  0  0  0  0  0  0  0  0  0  0  0
   56.9070   23.3534   47.0756 C   0  0  0  0  0  0  0  0  0  0  0  0
   57.1596   22.3057   47.7239 O   0  0  0  0  0  0  0  0  0  0  0  0
   55.7129   23.9776   47.1387 N   0  0  0  0  0  0  0  0  0  0  0  0
   55.8768   25.0177   46.3062 C   0  0  0  0  0  0  0  0  0  0  0  0
   54.8680   25.9193   45.9959 O   0  0  0  0  0  0  0  0  0  0  0  0
 16 17  2  0
 17 15  1  0
 15  7  1  0
  7  8  1  0
  8  9  1  0
  9 10  1  0
 10 11  1  0
 11 12  2  0
 11  1  1  0
  1  2  2  0
  2  3  1  0
  3  4  2  0
  4  5  1  0
  5 18  1  0
 18 19  1  0
 19 20  1  0
 19 21  2  0
 21 22  1  0
 22 23  2  0
 23 26  1  0
 26 27  1  0
 27 28  1  0
 28 29  2  0
 28 30  1  0
 30 31  1  0
 31 32  1  0
 22 24  1  0
 24 25  2  0
  5  6  2  0
 10 13  1  0
 13 14  1  0
 14  7  1  0
  6  1  1  0
 24 18  1  0
 31 26  2  0
M  CHG 1  27  -1
M  CHG 1  30  -1
M  CHG 1  32  -1
M  END
> <UniqueID>
22

> <SMILES>
C=CCN1CCN(C(=O)c2cccc(-n3c(C)cc(=Cc4[n-]c(=O)[n-]c4[O-])c3=C)c2)CC1

> <Energy>
140.22320507479506

> <Genealogy>
C=CCN1CCN(C(=O)c2cccc(-n3c(C)cc(=Cc4[n-]c(=O)[n-]c4[O-])c3=C)c2)CC1 (protonated)
C=CCN1CCN(C(=O)c2cccc(-n3c(C)cc(=Cc4[n-]c(=O)[n-]c4[O-])c3=C)c2)CC1 (3D coordinates assigned)
C=CCN1CCN(C(=O)c2cccc(-n3c(C)cc(=Cc4[n-]c(=O)[n-]c4[O-])c3=C)c2)CC1 (nonaromatic ring conformer: 140.22320507479506 kcal/mol)

> <smiles>
C=CCN1CCN(C(=O)c2cccc(-n3c(C)cc(=Cc4[nH]c(=O)[nH]c4O)c3=C)c2)CC1

> <score_type>
oracle

> <origin>
adg

> <m_score__min__energy>
-17.32

> <m_primary>
energy

> <minimizedAffinity>
-8.53381

> <minimizedRMSD>
0.59177

> <CNNscore>
0.1489845365

> <CNNaffinity>
6.5761661530

> <CNN_VS>
0.9797470570

> <CNNaffinity_variance>
0.1201228723

$$$$
30:0


 29 31  0  0  0  0  0  0  0  0999 V2000
   57.7352   28.4968   44.3012 N   0  0  0  0  0  0  0  0  0  0  0  0
   58.5591   27.8688   45.0960 C   0  0  0  0  0  0  0  0  0  0  0  0
   59.8721   28.3518   45.1653 C   0  0  0  0  0  0  0  0  0  0  0  0
   60.8310   27.6783   45.9209 C   0  0  0  0  0  0  0  0  0  0  0  0
   60.4937   26.5584   46.6079 N   0  0  0  0  0  0  0  0  0  0  0  0
   59.2258   26.0728   46.6000 C   0  0  0  0  0  0  0  0  0  0  0  0
   58.2151   26.7240   45.8752 C   0  0  0  0  0  0  0  0  0  0  0  0
   57.0646   29.7422   44.5233 C   0  0  0  0  0  0  0  0  0  0  0  0
   56.1176   30.0798   43.7692 O   0  0  0  0  0  0  0  0  0  0  0  0
   57.4042   30.5752   45.6356 N   0  0  0  0  0  0  0  0  0  0  0  0
   57.9934   32.1948   45.4645 S   0  0  0  0  0  0  0  0  0  0  0  0
   57.0228   33.1693   46.0709 O   0  0  0  0  0  0  0  0  0  0  0  0
   58.1746   32.5236   44.0092 O   0  0  0  0  0  0  0  0  0  0  0  0
   63.3190   32.6463   48.3420 C   0  0  0  0  0  0  0  0  0  0  0  0
   62.0207   32.5231   47.6022 C   0  0  0  0  0  0  0  0  0  0  0  0
   61.4749   33.6385   46.9463 C   0  0  0  0  0  0  0  0  0  0  0  0
   60.2468   33.5364   46.2856 C   0  0  0  0  0  0  0  0  0  0  0  0
   59.5477   32.3211   46.2803 C   0  0  0  0  0  0  0  0  0  0  0  0
   60.0791   31.2152   46.9571 C   0  0  0  0  0  0  0  0  0  0  0  0
   61.3066   31.3154   47.6178 C   0  0  0  0  0  0  0  0  0  0  0  0
   56.8335   26.2414   46.0719 C   0  0  0  0  0  0  0  0  0  0  0  0
   55.8741   27.0364   45.8968 O   0  0  0  0  0  0  0  0  0  0  0  0
   56.5546   24.8709   46.3891 N   0  0  0  0  0  0  0  0  0  0  0  0
   55.6303   24.0135   45.6522 C   0  0  0  0  0  0  0  0  0  0  0  0
   56.3776   23.0571   44.7770 C   0  0  0  0  0  0  0  0  0  0  0  0
   57.7284   22.7827   44.8494 C   0  0  0  0  0  0  0  0  0  0  0  0
   57.9652   21.8388   43.8738 C   0  0  0  0  0  0  0  0  0  0  0  0
   56.7482   21.5986   43.2674 C   0  0  0  0  0  0  0  0  0  0  0  0
   55.8211   22.3419   43.8283 O   0  0  0  0  0  0  0  0  0  0  0  0
 14 15  1  0
 15 16  2  0
 16 17  1  0
 17 18  2  0
 18 11  1  0
 11 12  2  0
 11 13  2  0
 11 10  1  0
 10  8  1  0
  8  9  2  0
  8  1  1  0
  1  2  2  0
  2  3  1  0
  3  4  2  0
  4  5  1  0
  5  6  1  0
  6  7  2  0
  7 21  1  0
 21 22  2  0
 21 23  1  0
 23 24  1  0
 24 25  1  0
 25 26  2  0
 26 27  1  0
 27 28  2  0
 28 29  1  0
 18 19  1  0
 19 20  2  0
 20 15  1  0
  7  2  1  0
 29 25  1  0
M  CHG 1   5  -1
M  CHG 1  10  -1
M  CHG 1  23  -1
M  END
> <UniqueID>
31

> <SMILES>
Cc1ccc(S(=O)(=O)[N-]C(=O)N=c2cc[n-]cc2C(=O)[N-]Cc2ccco2)cc1

> <Energy>
92.52418023220471

> <Genealogy>
Cc1ccc(S(=O)(=O)[N-]C(=O)N=c2cc[n-]cc2C(=O)[N-]Cc2ccco2)cc1 (protonated)
Cc1ccc(S(=O)(=O)[N-]C(=O)N=c2cc[n-]cc2C(=O)[N-]Cc2ccco2)cc1 (3D coordinates assigned)
Cc1ccc(S(=O)(=O)[N-]C(=O)N=c2cc[n-]cc2C(=O)[N-]Cc2ccco2)cc1 (optimized conformer: 92.52418023220471 kcal/mol)

> <smiles>
Cc1ccc(S(=O)(=O)NC(=O)N=c2cc[nH]cc2C(=O)NCc2ccco2)cc1

> <score_type>
oracle

> <origin>
adg

> <m_score__min__energy>
-14.08

> <m_primary>
energy

> <minimizedAffinity>
-7.93379

> <minimizedRMSD>
0.87479

> <CNNscore>
0.4274341464

> <CNNaffinity>
6.6158542633

> <CNN_VS>
2.8278419971

> <CNNaffinity_variance>
0.0317780450

$$$$
36:0


 30 33  0  0  0  0  0  0  0  0999 V2000
   56.0271   29.0318   53.3591 C   0  0  0  0  0  0  0  0  0  0  0  0
   54.8618   28.8571   54.0035 C   0  0  0  0  0  0  0  0  0  0  0  0
   53.6929   29.6130   53.8380 C   0  0  0  0  0  0  0  0  0  0  0  0
   53.5156   30.6513   52.9923 C   0  0  0  0  0  0  0  0  0  0  0  0
   52.7700   29.0950   54.7414 C   0  0  0  0  0  0  0  0  0  0  0  0
   53.3953   28.0534   55.3973 C   0  0  0  0  0  0  0  0  0  0  0  0
   52.7676   27.2297   56.4816 C   0  0  0  0  0  0  0  0  0  0  0  0
   54.6628   27.9103   54.9554 N   0  0  0  0  0  0  0  0  0  0  0  0
   55.6083   26.9322   55.4240 C   0  0  0  0  0  0  0  0  0  0  0  0
   55.6118   25.6339   54.9021 C   0  0  0  0  0  0  0  0  0  0  0  0
   54.7155   25.2748   53.9478 F   0  0  0  0  0  0  0  0  0  0  0  0
   56.5303   24.6964   55.3752 C   0  0  0  0  0  0  0  0  0  0  0  0
   57.4395   25.0609   56.3803 C   0  0  0  0  0  0  0  0  0  0  0  0
   57.4192   26.3355   56.8739 N   0  0  0  0  0  0  0  0  0  0  0  0
   56.5308   27.2638   56.4230 C   0  0  0  0  0  0  0  0  0  0  0  0
   58.0637   26.5889   57.5736 H   0  0  0  0  0  0  0  0  0  0  0  0
   58.3960   24.1065   56.8797 N   0  0  0  0  0  0  0  0  0  0  0  0
   58.9083   24.2050   58.2528 C   0  0  0  0  0  0  0  0  0  0  0  0
   60.4476   24.0944   58.2725 C   0  0  0  0  0  0  0  0  0  0  0  0
   60.9985   23.4083   57.0868 N   0  0  0  0  0  0  0  0  0  0  0  0
   60.1071   22.3517   56.5999 C   0  0  0  0  0  0  0  0  0  0  0  0
   58.8308   22.9852   56.0371 C   0  0  0  0  0  0  0  0  0  0  0  0
   61.8967   22.9931   57.3344 H   0  0  0  0  0  0  0  0  0  0  0  0
   52.6887   30.6334   51.7645 C   0  0  0  0  0  0  0  0  0  0  0  0
   52.8176   29.7753   50.7355 N   0  0  0  0  0  0  0  0  0  0  0  0
   51.8781   30.1885   49.8584 C   0  0  0  0  0  0  0  0  0  0  0  0
   51.6862   29.6192   48.7531 O   0  0  0  0  0  0  0  0  0  0  0  0
   51.1639   31.2604   50.2587 N   0  0  0  0  0  0  0  0  0  0  0  0
   51.6919   31.5316   51.4628 C   0  0  0  0  0  0  0  0  0  0  0  0
   51.2711   32.5807   52.2704 O   0  0  0  0  0  0  0  0  0  0  0  0
  1  2  2  0
  2  3  1  0
  3  4  2  0
  4 24  1  0
 24 25  1  0
 25 26  1  0
 26 27  2  0
 26 28  1  0
 28 29  1  0
 29 30  1  0
  3  5  1  0
  5  6  2  0
  6  7  1  0
  6  8  1  0
  8  9  1  0
  9 10  2  0
 10 11  1  0
 10 12  1  0
 12 13  2  0
 13 17  1  0
 17 18  1  0
 18 19  1  0
 19 20  1  0
 20 21  1  0
 21 22  1  0
 13 14  1  0
 14 15  2  0
  8  2  1  0
 15  9  1  0
 29 24  2  0
 22 17  1  0
 20 23  1  0
 14 16  1  0
M  CHG 1  14   1
M  CHG 1  25  -1
M  CHG 1  28  -1
M  CHG 1  30  -1
M  END
> <UniqueID>
36

> <SMILES>
C=c1/c(=C/c2[n-]c(=O)[n-]c2[O-])cc(C)n1-c1c[nH+]c(N2CCNCC2)cc1F

> <Energy>
126.28705352260465

> <Genealogy>
C=c1c(=Cc2[n-]c(=O)[n-]c2[O-])cc(C)n1-c1c[nH+]c(N2CCNCC2)cc1F (protonated)
C=c1/c(=C/c2[n-]c(=O)[n-]c2[O-])cc(C)n1-c1c[nH+]c(N2CCNCC2)cc1F (cis-trans isomerization)
C=c1/c(=C/c2[n-]c(=O)[n-]c2[O-])cc(C)n1-c1c[nH+]c(N2CCNCC2)cc1F (3D coordinates assigned)
C=c1/c(=C/c2[n-]c(=O)[n-]c2[O-])cc(C)n1-c1c[nH+]c(N2CCNCC2)cc1F (nonaromatic ring conformer: 126.28705352260465 kcal/mol)

> <smiles>
C=c1c(=Cc2[nH]c(=O)[nH]c2O)cc(C)n1-c1cnc(N2CCNCC2)cc1F

> <score_type>
oracle

> <origin>
adg

> <m_score__min__energy>
-14.23

> <m_primary>
energy

> <minimizedAffinity>
-3.25202

> <minimizedRMSD>
2.37865

> <CNNscore>
0.1233731657

> <CNNaffinity>
4.3788433075

> <CNN_VS>
0.5402317643

> <CNNaffinity_variance>
0.5116815567

$$$$
50:0


 28 30  0  0  0  0  0  0  0  0999 V2000
   60.2743   27.9394   47.9435 C   0  0  0  0  0  0  0  0  0  0  0  0
   60.7865   27.0572   48.9137 C   0  0  0  0  0  0  0  0  0  0  0  0
   60.6926   27.3636   50.2685 C   0  0  0  0  0  0  0  0  0  0  0  0
   60.1188   28.5692   50.6559 C   0  0  0  0  0  0  0  0  0  0  0  0
   59.6561   29.4332   49.7159 N   0  0  0  0  0  0  0  0  0  0  0  0
   59.7080   29.1708   48.3811 C   0  0  0  0  0  0  0  0  0  0  0  0
   59.2355   30.0833   47.5737 N   0  0  0  0  0  0  0  0  0  0  0  0
   59.8335   31.3329   47.2074 C   0  0  0  0  0  0  0  0  0  0  0  0
   61.1623   31.5954   47.5551 C   0  0  0  0  0  0  0  0  0  0  0  0
   61.7570   32.8233   47.2062 C   0  0  0  0  0  0  0  0  0  0  0  0
   60.9996   33.7822   46.5214 C   0  0  0  0  0  0  0  0  0  0  0  0
   59.6539   33.5327   46.1918 C   0  0  0  0  0  0  0  0  0  0  0  0
   59.0765   32.3116   46.5516 C   0  0  0  0  0  0  0  0  0  0  0  0
   63.0911   33.1263   47.5163 O   0  0  0  0  0  0  0  0  0  0  0  0
   63.6349   33.1100   48.8320 C   0  0  0  0  0  0  0  0  0  0  0  0
   58.8590   34.4690   45.5131 O   0  0  0  0  0  0  0  0  0  0  0  0
   57.5248   34.2275   45.0790 C   0  0  0  0  0  0  0  0  0  0  0  0
   59.5484   27.4477   45.6388 C   0  0  0  0  0  0  0  0  0  0  0  0
   60.4611   27.6540   46.5449 N   0  0  0  0  0  0  0  0  0  0  0  0
   58.3693   26.5688   45.8231 C   0  0  0  0  0  0  0  0  0  0  0  0
   57.0803   27.1234   45.8326 C   0  0  0  0  0  0  0  0  0  0  0  0
   56.8957   28.4865   45.6389 O   0  0  0  0  0  0  0  0  0  0  0  0
   55.9977   26.3233   46.0182 N   0  0  0  0  0  0  0  0  0  0  0  0
   56.1381   24.9879   46.2118 C   0  0  0  0  0  0  0  0  0  0  0  0
   55.1201   24.2667   46.3754 O   0  0  0  0  0  0  0  0  0  0  0  0
   57.3741   24.4307   46.2368 N   0  0  0  0  0  0  0  0  0  0  0  0
   58.4888   25.1858   46.0582 C   0  0  0  0  0  0  0  0  0  0  0  0
   59.6206   24.6364   46.1259 O   0  0  0  0  0  0  0  0  0  0  0  0
 18 19  2  0
 19  1  1  0
  1  2  2  0
  2  3  1  0
  3  4  2  0
  4  5  1  0
  5  6  1  0
  6  7  2  0
  7  8  1  0
  8  9  2  0
  9 10  1  0
 10 14  1  0
 14 15  1  0
 10 11  2  0
 11 12  1  0
 12 16  1  0
 16 17  1  0
 12 13  2  0
 18 20  1  0
 20 21  2  0
 21 22  1  0
 21 23  1  0
 23 24  1  0
 24 25  2  0
 24 26  1  0
 26 27  1  0
 27 28  2  0
  6  1  1  0
 13  8  1  0
 27 20  1  0
M  CHG 1   5  -1
M  CHG 1  22  -1
M  CHG 1  23  -1
M  CHG 1  26  -1
M  END
> <UniqueID>
50

> <SMILES>
COc1cc(/N=c2/[n-]cccc2N=Cc2c([O-])[n-]c(=O)[n-]c2=O)cc(OC)c1

> <Energy>
70.88070607986423

> <Genealogy>
COc1cc(N=c2[n-]cccc2N=Cc2c([O-])[n-]c(=O)[n-]c2=O)cc(OC)c1 (protonated)
COc1cc(/N=c2/[n-]cccc2N=Cc2c([O-])[n-]c(=O)[n-]c2=O)cc(OC)c1 (cis-trans isomerization)
COc1cc(/N=c2/[n-]cccc2N=Cc2c([O-])[n-]c(=O)[n-]c2=O)cc(OC)c1 (3D coordinates assigned)
COc1cc(/N=c2/[n-]cccc2N=Cc2c([O-])[n-]c(=O)[n-]c2=O)cc(OC)c1 (optimized conformer: 70.88070607986423 kcal/mol)

> <smiles>
COc1cc(N=c2[nH]cccc2N=Cc2c(O)[nH]c(=O)[nH]c2=O)cc(OC)c1

> <score_type>
oracle

> <origin>
adg

> <m_score__min__energy>
-15.58

> <m_primary>
energy

> <minimizedAffinity>
-6.47783

> <minimizedRMSD>
0.90220

> <CNNscore>
0.5135391951

> <CNNaffinity>
6.5113940239

> <CNN_VS>
3.3438560963

> <CNNaffinity_variance>
0.2431023121

$$$$
74:0


 35 38  0  0  0  0  0  0  0  0999 V2000
   58.2691   33.5821   47.1169 N   0  0  0  0  0  0  0  0  0  0  0  0
   59.4016   34.5340   47.2679 C   0  0  0  0  0  0  0  0  0  0  0  0
   60.3147   34.1765   48.4478 C   0  0  0  0  0  0  0  0  0  0  0  0
   60.7884   32.7947   48.3305 N   0  0  0  0  0  0  0  0  0  0  0  0
   60.1128   31.8803   47.4103 C   0  0  0  0  0  0  0  0  0  0  0  0
   58.6075   32.1654   47.4314 C   0  0  0  0  0  0  0  0  0  0  0  0
   61.8655   32.3258   49.1585 C   0  0  0  0  0  0  0  0  0  0  0  0
   63.0698   32.9048   49.0763 C   0  0  0  0  0  0  0  0  0  0  0  0
   64.1915   32.4526   49.9115 C   0  0  0  0  0  0  0  0  0  0  0  0
   65.2917   33.0653   49.8494 O   0  0  0  0  0  0  0  0  0  0  0  0
   64.0285   31.2754   50.7964 C   0  0  0  0  0  0  0  0  0  0  0  0
   65.1060   30.8116   51.5676 C   0  0  0  0  0  0  0  0  0  0  0  0
   64.9577   29.6950   52.3871 C   0  0  0  0  0  0  0  0  0  0  0  0
   66.4280   29.0805   53.4398 Br  0  0  0  0  0  0  0  0  0  0  0  0
   63.7450   29.0087   52.4182 C   0  0  0  0  0  0  0  0  0  0  0  0
   62.6631   29.4312   51.6378 C   0  0  0  0  0  0  0  0  0  0  0  0
   61.5181   28.6292   51.6509 O   0  0  0  0  0  0  0  0  0  0  0  0
   62.7782   30.6117   50.8544 C   0  0  0  0  0  0  0  0  0  0  0  0
   61.6319   31.2211   50.1184 C   0  0  0  0  0  0  0  0  0  0  0  0
   60.4461   30.8755   50.3586 O   0  0  0  0  0  0  0  0  0  0  0  0
   61.4911   27.8597   52.1849 H   0  0  0  0  0  0  0  0  0  0  0  0
   57.6400   33.6986   45.7792 C   0  0  0  0  0  0  0  0  0  0  0  0
   58.5258   33.1299   44.6583 C   0  0  0  0  0  0  0  0  0  0  0  0
   57.8193   32.0144   43.8759 C   0  0  0  0  0  0  0  0  0  0  0  0
   56.9979   31.2001   44.7674 N   0  0  0  0  0  0  0  0  0  0  0  0
   55.8097   29.2647   44.2943 O   0  0  0  0  0  0  0  0  0  0  0  0
   56.8807   29.7720   44.7210 C   0  0  0  0  0  0  0  0  0  0  0  0
   57.9746   28.8800   45.1531 C   0  0  0  0  0  0  0  0  0  0  0  0
   59.3104   29.2988   45.0414 C   0  0  0  0  0  0  0  0  0  0  0  0
   60.3496   28.4653   45.4645 C   0  0  0  0  0  0  0  0  0  0  0  0
   60.0627   27.2123   46.0123 C   0  0  0  0  0  0  0  0  0  0  0  0
   58.7366   26.7916   46.1451 C   0  0  0  0  0  0  0  0  0  0  0  0
   58.4593   25.5470   46.6989 O   0  0  0  0  0  0  0  0  0  0  0  0
   57.6895   27.6228   45.7208 C   0  0  0  0  0  0  0  0  0  0  0  0
   56.3734   27.1904   45.8535 O   0  0  0  0  0  0  0  0  0  0  0  0
 26 27  2  0
 27 25  1  0
 25 24  1  0
 24 23  1  0
 23 22  1  0
 22  1  1  0
  1  2  1  0
  2  3  1  0
  3  4  1  0
  4  7  1  0
  7  8  2  0
  8  9  1  0
  9 10  2  0
  9 11  1  0
 11 12  2  0
 12 13  1  0
 13 14  1  0
 13 15  2  0
 15 16  1  0
 16 17  1  0
 16 18  2  0
 18 19  1  0
 19 20  2  0
  4  5  1  0
  5  6  1  0
 27 28  1  0
 28 29  2  0
 29 30  1  0
 30 31  2  0
 31 32  1  0
 32 33  1  0
 32 34  2  0
 34 35  1  0
  6  1  1  0
 34 28  1  0
 19  7  1  0
 18 11  1  0
 17 21  1  0
M  CHG 1  25  -1
M  CHG 1  33  -1
M  CHG 1  35  -1
M  END
> <UniqueID>
73

> <SMILES>
O=C([N-]CCCN1CCN(C2=CC(=O)c3cc(Br)cc(O)c3C2=O)CC1)c1cccc([O-])c1[O-]

> <Energy>
80.58400414494056

> <Genealogy>
O=C([N-]CCCN1CCN(C2=CC(=O)c3cc(Br)cc(O)c3C2=O)CC1)c1cccc([O-])c1[O-] (protonated)
O=C([N-]CCCN1CCN(C2=CC(=O)c3cc(Br)cc(O)c3C2=O)CC1)c1cccc([O-])c1[O-] (3D coordinates assigned)
O=C([N-]CCCN1CCN(C2=CC(=O)c3cc(Br)cc(O)c3C2=O)CC1)c1cccc([O-])c1[O-] (nonaromatic ring conformer: 80.58400414494056 kcal/mol)

> <smiles>
O=C(NCCCN1CCN(C2=CC(=O)c3cc(Br)cc(O)c3C2=O)CC1)c1cccc(O)c1O

> <score_type>
oracle

> <origin>
adg

> <m_score__min__energy>
-17.149999999999999

> <m_primary>
energy

> <minimizedAffinity>
-8.38890

> <minimizedRMSD>
0.91262

> <CNNscore>
0.1688409597

> <CNNaffinity>
6.0960898399

> <CNN_VS>
1.0292696953

> <CNNaffinity_variance>
0.4013691843

$$$$
88:0


 29 31  0  0  0  0  0  0  0  0999 V2000
   57.6163   28.4698   45.4893 C   0  0  0  0  0  0  0  0  0  0  0  0
   58.9591   28.8598   45.6146 C   0  0  0  0  0  0  0  0  0  0  0  0
   59.9426   27.9123   45.8914 C   0  0  0  0  0  0  0  0  0  0  0  0
   59.6021   26.5672   46.0583 C   0  0  0  0  0  0  0  0  0  0  0  0
   60.6092   25.6528   46.3461 O   0  0  0  0  0  0  0  0  0  0  0  0
   58.2575   26.1596   45.9427 C   0  0  0  0  0  0  0  0  0  0  0  0
   57.2672   27.1243   45.6748 C   0  0  0  0  0  0  0  0  0  0  0  0
   55.9284   26.7499   45.5914 O   0  0  0  0  0  0  0  0  0  0  0  0
   57.7811   24.4668   46.1712 S   0  0  0  0  0  0  0  0  0  0  0  0
   58.9330   23.5953   45.7511 O   0  0  0  0  0  0  0  0  0  0  0  0
   57.4871   24.1811   47.6157 O   0  0  0  0  0  0  0  0  0  0  0  0
   56.3870   24.0927   45.1780 N   0  0  0  0  0  0  0  0  0  0  0  0
   55.4714   23.1507   45.8469 C   0  0  0  0  0  0  0  0  0  0  0  0
   56.0219   21.7032   45.8600 C   0  0  0  0  0  0  0  0  0  0  0  0
   57.0546   21.4818   44.9161 O   0  0  0  0  0  0  0  0  0  0  0  0
   56.7343   22.0958   43.6888 C   0  0  0  0  0  0  0  0  0  0  0  0
   56.7802   23.6291   43.8292 C   0  0  0  0  0  0  0  0  0  0  0  0
   56.5835   29.4335   45.2368 N   0  0  0  0  0  0  0  0  0  0  0  0
   56.4623   29.9682   42.9812 O   0  0  0  0  0  0  0  0  0  0  0  0
   56.5882   30.3821   44.1625 C   0  0  0  0  0  0  0  0  0  0  0  0
   56.7919   31.7791   44.3935 N   0  0  0  0  0  0  0  0  0  0  0  0
   58.0322   32.4875   44.0954 C   0  0  0  0  0  0  0  0  0  0  0  0
   58.5603   33.1104   45.3538 C   0  0  0  0  0  0  0  0  0  0  0  0
   59.2034   34.3593   45.3096 C   0  0  0  0  0  0  0  0  0  0  0  0
   59.7252   34.9246   46.4768 C   0  0  0  0  0  0  0  0  0  0  0  0
   59.6197   34.2428   47.6924 C   0  0  0  0  0  0  0  0  0  0  0  0
   58.9962   32.9930   47.7424 C   0  0  0  0  0  0  0  0  0  0  0  0
   58.9022   32.3302   48.9219 F   0  0  0  0  0  0  0  0  0  0  0  0
   58.4722   32.4240   46.5768 C   0  0  0  0  0  0  0  0  0  0  0  0
 19 20  2  0
 20 21  1  0
 21 22  1  0
 22 23  1  0
 23 24  2  0
 24 25  1  0
 25 26  2  0
 26 27  1  0
 27 28  1  0
 27 29  2  0
 20 18  1  0
 18  1  1  0
  1  2  2  0
  2  3  1  0
  3  4  2  0
  4  5  1  0
  4  6  1  0
  6  9  1  0
  9 10  2  0
  9 11  2  0
  9 12  1  0
 12 13  1  0
 13 14  1  0
 14 15  1  0
 15 16  1  0
 16 17  1  0
  6  7  2  0
  7  8  1  0
 29 23  1  0
  7  1  1  0
 17 12  1  0
M  CHG 1   5  -1
M  CHG 1   8  -1
M  CHG 1  18  -1
M  CHG 1  21  -1
M  END
> <UniqueID>
87

> <SMILES>
O=C([N-]Cc1cccc(F)c1)[N-]c1ccc([O-])c(S(=O)(=O)N2CCOCC2)c1[O-]

> <Energy>
64.1614057383606

> <Genealogy>
O=C([N-]Cc1cccc(F)c1)[N-]c1ccc([O-])c(S(=O)(=O)N2CCOCC2)c1[O-] (protonated)
O=C([N-]Cc1cccc(F)c1)[N-]c1ccc([O-])c(S(=O)(=O)N2CCOCC2)c1[O-] (3D coordinates assigned)
O=C([N-]Cc1cccc(F)c1)[N-]c1ccc([O-])c(S(=O)(=O)N2CCOCC2)c1[O-] (nonaromatic ring conformer: 64.1614057383606 kcal/mol)

> <smiles>
O=C(NCc1cccc(F)c1)Nc1ccc(O)c(S(=O)(=O)N2CCOCC2)c1O

> <score_type>
oracle

> <origin>
adg

> <m_score__min__energy>
-18.170000000000002

> <m_primary>
energy

> <minimizedAffinity>
-7.69374

> <minimizedRMSD>
1.45586

> <CNNscore>
0.7399635315

> <CNNaffinity>
6.7542414665

> <CNN_VS>
4.9978923798

> <CNNaffinity_variance>
0.0343293808

$$$$
90:0


 26 28  0  0  0  0  0  0  0  0999 V2000
   57.1846   29.5773   53.1828 N   0  0  0  0  0  0  0  0  0  0  0  0
   56.4188   28.5805   53.6791 C   0  0  0  0  0  0  0  0  0  0  0  0
   56.9311   27.2549   54.1558 C   0  0  0  0  0  0  0  0  0  0  0  0
   55.0945   28.9656   53.7140 C   0  0  0  0  0  0  0  0  0  0  0  0
   55.0302   30.2373   53.1690 C   0  0  0  0  0  0  0  0  0  0  0  0
   53.8670   30.8874   52.9724 C   0  0  0  0  0  0  0  0  0  0  0  0
   56.3557   30.6122   52.8932 C   0  0  0  0  0  0  0  0  0  0  0  0
   56.7953   31.8389   52.5702 C   0  0  0  0  0  0  0  0  0  0  0  0
   53.0222   30.7865   51.7712 C   0  0  0  0  0  0  0  0  0  0  0  0
   53.1621   29.8544   50.8108 N   0  0  0  0  0  0  0  0  0  0  0  0
   52.0972   30.0707   50.0082 C   0  0  0  0  0  0  0  0  0  0  0  0
   51.8833   29.3947   48.9689 O   0  0  0  0  0  0  0  0  0  0  0  0
   51.2757   31.0638   50.4117 N   0  0  0  0  0  0  0  0  0  0  0  0
   51.8691   31.4951   51.5373 C   0  0  0  0  0  0  0  0  0  0  0  0
   51.3632   32.5109   52.3373 O   0  0  0  0  0  0  0  0  0  0  0  0
   61.4113   29.4879   52.7500 C   0  0  0  0  0  0  0  0  0  0  0  0
   60.5854   29.2659   51.6399 C   0  0  0  0  0  0  0  0  0  0  0  0
   59.1949   29.2901   51.7813 C   0  0  0  0  0  0  0  0  0  0  0  0
   58.6165   29.5444   53.0340 C   0  0  0  0  0  0  0  0  0  0  0  0
   59.4445   29.7747   54.1430 C   0  0  0  0  0  0  0  0  0  0  0  0
   60.8351   29.7491   54.0013 C   0  0  0  0  0  0  0  0  0  0  0  0
   63.6180   30.4951   51.2565 N   0  0  0  0  0  0  0  0  0  0  0  0
   63.1628   29.4715   52.5714 S   0  0  0  0  0  0  0  0  0  0  0  0
   63.8087   29.9618   53.8376 O   0  0  0  0  0  0  0  0  0  0  0  0
   63.6340   28.0718   52.3003 O   0  0  0  0  0  0  0  0  0  0  0  0
   64.6328   30.4852   51.1535 H   0  0  0  0  0  0  0  0  0  0  0  0
 22 23  1  0
 23 24  2  0
 23 25  2  0
 23 16  1  0
 16 17  2  0
 17 18  1  0
 18 19  2  0
 19  1  1  0
  1  2  1  0
  2  3  1  0
  2  4  2  0
  4  5  1  0
  5  6  2  0
  6  9  1  0
  9 10  1  0
 10 11  1  0
 11 12  2  0
 11 13  1  0
 13 14  1  0
 14 15  1  0
  5  7  1  0
  7  8  2  0
 19 20  1  0
 20 21  2  0
 21 16  1  0
  7  1  1  0
 14  9  2  0
 22 26  1  0
M  CHG 1  10  -1
M  CHG 1  13  -1
M  CHG 1  15  -1
M  CHG 1  22  -1
M  END
> <UniqueID>
89

> <SMILES>
C=c1/c(=C\c2[n-]c(=O)[n-]c2[O-])cc(C)n1-c1ccc(S([NH-])(=O)=O)cc1

> <Energy>
113.64635832691013

> <Genealogy>
C=c1c(=Cc2[n-]c(=O)[n-]c2[O-])cc(C)n1-c1ccc(S([NH-])(=O)=O)cc1 (protonated)
C=c1/c(=C\c2[n-]c(=O)[n-]c2[O-])cc(C)n1-c1ccc(S([NH-])(=O)=O)cc1 (cis-trans isomerization)
C=c1/c(=C\c2[n-]c(=O)[n-]c2[O-])cc(C)n1-c1ccc(S([NH-])(=O)=O)cc1 (3D coordinates assigned)
C=c1/c(=C\c2[n-]c(=O)[n-]c2[O-])cc(C)n1-c1ccc(S([NH-])(=O)=O)cc1 (optimized conformer: 113.64635832691013 kcal/mol)

> <smiles>
C=c1c(=Cc2[nH]c(=O)[nH]c2O)cc(C)n1-c1ccc(S(N)(=O)=O)cc1

> <score_type>
oracle

> <origin>
adg

> <m_score__min__energy>
-15.67

> <m_primary>
energy

> <minimizedAffinity>
-3.94745

> <minimizedRMSD>
1.12084

> <CNNscore>
0.1265760362

> <CNNaffinity>
4.2775197029

> <CNN_VS>
0.5414314866

> <CNNaffinity_variance>
0.7873935103

$$$$
11:0


 25 27  0  0  0  0  0  0  0  0999 V2000
   60.5348   30.9033   47.8499 N   0  0  0  0  0  0  0  0  0  0  0  0
   60.8518   29.8172   46.9145 C   0  0  0  0  0  0  0  0  0  0  0  0
   60.0001   29.9561   45.6546 C   0  0  0  0  0  0  0  0  0  0  0  0
   58.5935   30.1715   46.0196 N   0  0  0  0  0  0  0  0  0  0  0  0
   57.5318   29.5992   45.2286 C   0  0  0  0  0  0  0  0  0  0  0  0
   56.5973   30.3382   44.7966 O   0  0  0  0  0  0  0  0  0  0  0  0
   58.2985   31.2736   46.9423 C   0  0  0  0  0  0  0  0  0  0  0  0
   59.1344   31.1309   48.2092 C   0  0  0  0  0  0  0  0  0  0  0  0
   61.9121   32.9549   48.1513 C   0  0  0  0  0  0  0  0  0  0  0  0
   62.9641   33.6168   48.8025 C   0  0  0  0  0  0  0  0  0  0  0  0
   63.6811   32.9733   49.8170 C   0  0  0  0  0  0  0  0  0  0  0  0
   63.3541   31.6668   50.1887 C   0  0  0  0  0  0  0  0  0  0  0  0
   62.3083   31.0018   49.5446 C   0  0  0  0  0  0  0  0  0  0  0  0
   61.5767   31.6341   48.5242 C   0  0  0  0  0  0  0  0  0  0  0  0
   60.6834   34.1679   46.2065 N   0  0  0  0  0  0  0  0  0  0  0  0
   61.2296   33.6263   47.0726 C   0  0  0  0  0  0  0  0  0  0  0  0
   57.4497   28.1116   44.9996 C   0  0  0  0  0  0  0  0  0  0  0  0
   57.7136   27.3393   46.2958 C   0  0  0  0  0  0  0  0  0  0  0  0
   57.5804   25.8595   46.0905 C   0  0  0  0  0  0  0  0  0  0  0  0
   58.6221   25.0263   45.9209 N   0  0  0  0  0  0  0  0  0  0  0  0
   58.0280   23.8264   45.7357 C   0  0  0  0  0  0  0  0  0  0  0  0
   58.6857   22.7702   45.5454 O   0  0  0  0  0  0  0  0  0  0  0  0
   56.6788   23.8468   45.7746 N   0  0  0  0  0  0  0  0  0  0  0  0
   56.4118   25.1429   45.9963 C   0  0  0  0  0  0  0  0  0  0  0  0
   55.1239   25.6522   46.1261 O   0  0  0  0  0  0  0  0  0  0  0  0
 15 16  3  0
 16  9  1  0
  9 10  2  0
 10 11  1  0
 11 12  2  0
 12 13  1  0
 13 14  2  0
 14  1  1  0
  1  2  1  0
  2  3  1  0
  3  4  1  0
  4  5  1  0
  5  6  2  0
  5 17  1  0
 17 18  1  0
 18 19  1  0
 19 20  1  0
 20 21  1  0
 21 22  2  0
 21 23  1  0
 23 24  1  0
 24 25  1  0
  4  7  1  0
  7  8  1  0
 14  9  1  0
  8  1  1  0
 24 19  2  0
M  CHG 1  20  -1
M  CHG 1  23  -1
M  CHG 1  25  -1
M  END
> <UniqueID>
11

> <SMILES>
N#Cc1ccccc1N1CCN(C(=O)CCc2[n-]c(=O)[n-]c2[O-])CC1

> <Energy>
74.88926099967401

> <Genealogy>
N#Cc1ccccc1N1CCN(C(=O)CCc2[n-]c(=O)[n-]c2[O-])CC1 (protonated)
N#Cc1ccccc1N1CCN(C(=O)CCc2[n-]c(=O)[n-]c2[O-])CC1 (3D coordinates assigned)
N#Cc1ccccc1N1CCN(C(=O)CCc2[n-]c(=O)[n-]c2[O-])CC1 (nonaromatic ring conformer: 74.88926099967401 kcal/mol)

> <smiles>
N#Cc1ccccc1N1CCN(C(=O)CCc2[nH]c(=O)[nH]c2O)CC1

> <score_type>
oracle

> <origin>
adg

> <m_score__min__energy>
-16.420000000000002

> <m_primary>
energy

> <minimizedAffinity>
-6.72703

> <minimizedRMSD>
1.12154

> <CNNscore>
0.1305215061

> <CNNaffinity>
6.3282771111

> <CNN_VS>
0.8259762526

> <CNNaffinity_variance>
1.0816940069

$$$$
16:0


 26 28  0  0  0  0  0  0  0  0999 V2000
   58.9114   33.2979   48.1231 C   0  0  0  0  0  0  0  0  0  0  0  0
   59.5470   34.4641   47.6862 C   0  0  0  0  0  0  0  0  0  0  0  0
   59.3709   34.8639   46.3636 C   0  0  0  0  0  0  0  0  0  0  0  0
   59.9116   35.9202   45.9440 O   0  0  0  0  0  0  0  0  0  0  0  0
   58.6112   34.1156   45.5257 N   0  0  0  0  0  0  0  0  0  0  0  0
   58.0176   32.9650   45.9467 C   0  0  0  0  0  0  0  0  0  0  0  0
   57.2906   32.2456   45.1399 N   0  0  0  0  0  0  0  0  0  0  0  0
   58.1819   32.5572   47.2371 N   0  0  0  0  0  0  0  0  0  0  0  0
   57.7681   31.7151   47.5352 H   0  0  0  0  0  0  0  0  0  0  0  0
   60.2660   32.6275   50.1210 C   0  0  0  0  0  0  0  0  0  0  0  0
   59.0857   32.8619   49.5264 C   0  0  0  0  0  0  0  0  0  0  0  0
   61.5845   32.6495   49.4461 C   0  0  0  0  0  0  0  0  0  0  0  0
   61.8186   31.7691   48.3784 C   0  0  0  0  0  0  0  0  0  0  0  0
   63.0495   31.7770   47.7138 C   0  0  0  0  0  0  0  0  0  0  0  0
   64.0478   32.6749   48.0981 C   0  0  0  0  0  0  0  0  0  0  0  0
   63.8140   33.5745   49.1416 C   0  0  0  0  0  0  0  0  0  0  0  0
   62.5840   33.5729   49.8064 C   0  0  0  0  0  0  0  0  0  0  0  0
   57.7428   31.2241   44.2325 C   0  0  0  0  0  0  0  0  0  0  0  0
   57.7872   31.4530   42.9930 O   0  0  0  0  0  0  0  0  0  0  0  0
   58.1611   29.8898   44.7457 C   0  0  0  0  0  0  0  0  0  0  0  0
   59.5335   29.6173   44.9208 C   0  0  0  0  0  0  0  0  0  0  0  0
   59.9598   28.3741   45.3958 C   0  0  0  0  0  0  0  0  0  0  0  0
   59.0274   27.3842   45.7039 C   0  0  0  0  0  0  0  0  0  0  0  0
   57.6648   27.6348   45.5374 C   0  0  0  0  0  0  0  0  0  0  0  0
   57.2237   28.8753   45.0622 C   0  0  0  0  0  0  0  0  0  0  0  0
   55.8551   29.0773   44.9129 O   0  0  0  0  0  0  0  0  0  0  0  0
 10 11  2  0
 11  1  1  0
  1  2  2  0
  2  3  1  0
  3  4  2  0
  3  5  1  0
  5  6  1  0
  6  7  2  0
  7 18  1  0
 18 19  2  0
 18 20  1  0
 20 21  2  0
 21 22  1  0
 22 23  2  0
 23 24  1  0
 24 25  2  0
 25 26  1  0
  6  8  1  0
 10 12  1  0
 12 13  2  0
 13 14  1  0
 14 15  2  0
 15 16  1  0
 16 17  2  0
  8  1  1  0
 17 12  1  0
 25 20  1  0
  8  9  1  0
M  CHG 1   5  -1
M  CHG 1  26  -1
M  END
> <UniqueID>
15

> <SMILES>
O=C(/N=c1\[n-]c(=O)cc(/C=C\c2ccccc2)[nH]1)c1ccccc1[O-]

> <Energy>
56.028406884628964

> <Genealogy>
O=C(N=c1[n-]c(=O)cc(C=Cc2ccccc2)[nH]1)c1ccccc1[O-] (protonated)
O=C(/N=c1\[n-]c(=O)cc(/C=C\c2ccccc2)[nH]1)c1ccccc1[O-] (cis-trans isomerization)
O=C(/N=c1\[n-]c(=O)cc(/C=C\c2ccccc2)[nH]1)c1ccccc1[O-] (3D coordinates assigned)
O=C(/N=c1\[n-]c(=O)cc(/C=C\c2ccccc2)[nH]1)c1ccccc1[O-] (optimized conformer: 56.028406884628964 kcal/mol)

> <smiles>
O=C(N=c1[nH]c(C=Cc2ccccc2)cc(=O)[nH]1)c1ccccc1O

> <score_type>
oracle

> <origin>
adg

> <m_score__min__energy>
-14.33

> <m_primary>
energy

> <minimizedAffinity>
-7.46489

> <minimizedRMSD>
0.86509

> <CNNscore>
0.3328187168

> <CNNaffinity>
6.4897418022

> <CNN_VS>
2.1599075794

> <CNNaffinity_variance>
0.1468606144

$$$$
25:0


 27 29  0  0  0  0  0  0  0  0999 V2000
   58.7285   30.6379   47.0419 N   0  0  0  0  0  0  0  0  0  0  0  0
   58.6703   31.9134   46.3933 C   0  0  0  0  0  0  0  0  0  0  0  0
   58.1795   32.0095   45.0821 C   0  0  0  0  0  0  0  0  0  0  0  0
   58.1457   33.2433   44.4300 C   0  0  0  0  0  0  0  0  0  0  0  0
   58.6090   34.3894   45.0791 C   0  0  0  0  0  0  0  0  0  0  0  0
   59.1089   34.3037   46.3812 C   0  0  0  0  0  0  0  0  0  0  0  0
   59.1413   33.0691   47.0523 C   0  0  0  0  0  0  0  0  0  0  0  0
   59.6784   33.0023   48.4620 C   0  0  0  0  0  0  0  0  0  0  0  0
   61.1769   32.8676   48.4511 C   0  0  0  0  0  0  0  0  0  0  0  0
   61.9294   33.3403   47.3613 C   0  0  0  0  0  0  0  0  0  0  0  0
   63.3233   33.2308   47.3661 C   0  0  0  0  0  0  0  0  0  0  0  0
   63.9754   32.6546   48.4589 C   0  0  0  0  0  0  0  0  0  0  0  0
   63.2372   32.1876   49.5489 C   0  0  0  0  0  0  0  0  0  0  0  0
   61.8429   32.2938   49.5480 C   0  0  0  0  0  0  0  0  0  0  0  0
   60.6460   29.5007   47.6797 O   0  0  0  0  0  0  0  0  0  0  0  0
   59.7446   29.6552   46.8133 C   0  0  0  0  0  0  0  0  0  0  0  0
   59.7239   28.7568   45.6042 C   0  0  0  0  0  0  0  0  0  0  0  0
   58.9089   27.5077   45.8654 C   0  0  0  0  0  0  0  0  0  0  0  0
   57.5162   27.5053   45.6644 C   0  0  0  0  0  0  0  0  0  0  0  0
   56.8593   28.6629   45.2554 O   0  0  0  0  0  0  0  0  0  0  0  0
   56.8023   26.3660   45.8653 N   0  0  0  0  0  0  0  0  0  0  0  0
   57.4064   25.2213   46.2697 C   0  0  0  0  0  0  0  0  0  0  0  0
   56.7250   24.1786   46.4438 O   0  0  0  0  0  0  0  0  0  0  0  0
   58.7446   25.2003   46.4892 N   0  0  0  0  0  0  0  0  0  0  0  0
   59.5063   26.3101   46.3036 C   0  0  0  0  0  0  0  0  0  0  0  0
   60.7438   26.2481   46.5295 O   0  0  0  0  0  0  0  0  0  0  0  0
   57.3444   29.4521   45.1149 H   0  0  0  0  0  0  0  0  0  0  0  0
 15 16  2  0
 16 17  1  0
 17 18  1  0
 18 19  2  0
 19 20  1  0
 19 21  1  0
 21 22  1  0
 22 23  2  0
 22 24  1  0
 24 25  1  0
 25 26  2  0
 16  1  1  0
  1  2  1  0
  2  3  2  0
  3  4  1  0
  4  5  2  0
  5  6  1  0
  6  7  2  0
  7  8  1  0
  8  9  1  0
  9 10  2  0
 10 11  1  0
 11 12  2  0
 12 13  1  0
 13 14  2  0
 25 18  1  0
  7  2  1  0
 14  9  1  0
 20 27  1  0
M  CHG 1   1  -1
M  CHG 1  21  -1
M  CHG 1  24  -1
M  END
> <UniqueID>
23

> <SMILES>
O=C(Cc1c(O)[n-]c(=O)[n-]c1=O)[N-]c1ccccc1Cc1ccccc1

> <Energy>
46.82372318860858

> <Genealogy>
O=C(Cc1c(O)[n-]c(=O)[n-]c1=O)[N-]c1ccccc1Cc1ccccc1 (protonated)
O=C(Cc1c(O)[n-]c(=O)[n-]c1=O)[N-]c1ccccc1Cc1ccccc1 (3D coordinates assigned)
O=C(Cc1c(O)[n-]c(=O)[n-]c1=O)[N-]c1ccccc1Cc1ccccc1 (optimized conformer: 46.82372318860858 kcal/mol)

> <smiles>
O=C(Cc1c(O)[nH]c(=O)[nH]c1=O)Nc1ccccc1Cc1ccccc1

> <score_type>
oracle

> <origin>
adg

> <m_score__min__energy>
-14.470000000000001

> <m_primary>
energy

> <minimizedAffinity>
-8.33017

> <minimizedRMSD>
1.92189

> <CNNscore>
0.9184724689

> <CNNaffinity>
6.8985047340

> <CNN_VS>
6.3360867500

> <CNNaffinity_variance>
0.1720127314

$$$$
32:0


 26 28  0  0  0  0  0  0  0  0999 V2000
   59.6407   31.6656   49.2481 C   0  0  0  0  0  0  0  0  0  0  0  0
   59.7979   30.5453   48.4895 N   0  0  0  0  0  0  0  0  0  0  0  0
   60.1682   29.3593   49.0390 C   0  0  0  0  0  0  0  0  0  0  0  0
   60.3379   28.3284   48.2648 N   0  0  0  0  0  0  0  0  0  0  0  0
   60.3957   29.2849   50.3795 N   0  0  0  0  0  0  0  0  0  0  0  0
   60.2374   30.3706   51.1800 C   0  0  0  0  0  0  0  0  0  0  0  0
   59.8480   31.5902   50.6286 C   0  0  0  0  0  0  0  0  0  0  0  0
   59.6134   28.0227   47.0607 C   0  0  0  0  0  0  0  0  0  0  0  0
   60.0868   28.3980   45.7883 C   0  0  0  0  0  0  0  0  0  0  0  0
   59.3696   28.0488   44.6395 C   0  0  0  0  0  0  0  0  0  0  0  0
   58.1889   27.3080   44.7481 C   0  0  0  0  0  0  0  0  0  0  0  0
   57.7302   26.9039   46.0063 C   0  0  0  0  0  0  0  0  0  0  0  0
   56.5653   26.1555   46.1129 O   0  0  0  0  0  0  0  0  0  0  0  0
   58.4461   27.2516   47.1561 C   0  0  0  0  0  0  0  0  0  0  0  0
   59.2185   32.9024   48.6503 N   0  0  0  0  0  0  0  0  0  0  0  0
   59.1172   33.6877   49.2353 H   0  0  0  0  0  0  0  0  0  0  0  0
   58.0330   32.2166   45.1390 C   0  0  0  0  0  0  0  0  0  0  0  0
   58.4519   33.3985   44.5054 C   0  0  0  0  0  0  0  0  0  0  0  0
   59.1187   34.3918   45.2275 C   0  0  0  0  0  0  0  0  0  0  0  0
   59.3660   34.2211   46.5908 C   0  0  0  0  0  0  0  0  0  0  0  0
   58.9350   33.0626   47.2498 C   0  0  0  0  0  0  0  0  0  0  0  0
   58.2883   32.0520   46.5143 C   0  0  0  0  0  0  0  0  0  0  0  0
   56.5034   30.2069   45.0289 N   0  0  0  0  0  0  0  0  0  0  0  0
   57.3402   31.1562   44.3684 C   0  0  0  0  0  0  0  0  0  0  0  0
   57.4811   31.0836   43.1178 O   0  0  0  0  0  0  0  0  0  0  0  0
   56.0475   29.5065   44.5086 H   0  0  0  0  0  0  0  0  0  0  0  0
 23 24  1  0
 24 25  2  0
 24 17  1  0
 17 18  2  0
 18 19  1  0
 19 20  2  0
 20 21  1  0
 21 15  1  0
 15  1  1  0
  1  2  2  0
  2  3  1  0
  3  4  2  0
  4  8  1  0
  8  9  2  0
  9 10  1  0
 10 11  2  0
 11 12  1  0
 12 13  1  0
 12 14  2  0
  3  5  1  0
  5  6  1  0
  6  7  2  0
 21 22  2  0
 22 17  1  0
  7  1  1  0
 14  8  1  0
 23 26  1  0
 15 16  1  0
M  CHG 1   5  -1
M  CHG 1  13  -1
M  CHG 1  23  -1
M  END
> <UniqueID>
29

> <SMILES>
[NH-]C(=O)c1cccc(Nc2cc[n-]/c(=N\c3cccc([O-])c3)n2)c1

> <Energy>
50.248772043570206

> <Genealogy>
[NH-]C(=O)c1cccc(Nc2cc[n-]c(=Nc3cccc([O-])c3)n2)c1 (protonated)
[NH-]C(=O)c1cccc(Nc2cc[n-]/c(=N\c3cccc([O-])c3)n2)c1 (cis-trans isomerization)
[NH-]C(=O)c1cccc(Nc2cc[n-]/c(=N\c3cccc([O-])c3)n2)c1 (3D coordinates assigned)
[NH-]C(=O)c1cccc(Nc2cc[n-]/c(=N\c3cccc([O-])c3)n2)c1 (optimized conformer: 50.248772043570206 kcal/mol)

> <smiles>
NC(=O)c1cccc(Nc2cc[nH]c(=Nc3cccc(O)c3)n2)c1

> <score_type>
oracle

> <origin>
adg

> <m_score__min__energy>
-15.27

> <m_primary>
energy

> <minimizedAffinity>
-8.12943

> <minimizedRMSD>
1.60019

> <CNNscore>
0.7129176855

> <CNNaffinity>
6.2059006691

> <CNN_VS>
4.4242963791

> <CNNaffinity_variance>
0.1823410243

$$$$
51:0


 31 34  0  0  0  0  0  0  0  0999 V2000
   59.6636   30.1091   47.0213 C   0  0  0  0  0  0  0  0  0  0  0  0
   60.9846   30.5160   46.7869 C   0  0  0  0  0  0  0  0  0  0  0  0
   61.6006   31.4379   47.6366 C   0  0  0  0  0  0  0  0  0  0  0  0
   60.9070   31.9617   48.7415 C   0  0  0  0  0  0  0  0  0  0  0  0
   59.5778   31.5622   48.9656 C   0  0  0  0  0  0  0  0  0  0  0  0
   58.9630   30.6393   48.1134 C   0  0  0  0  0  0  0  0  0  0  0  0
   61.5526   32.9469   49.6407 C   0  0  0  0  0  0  0  0  0  0  0  0
   61.0848   34.1159   49.7120 O   0  0  0  0  0  0  0  0  0  0  0  0
   62.7103   32.6009   50.4222 N   0  0  0  0  0  0  0  0  0  0  0  0
   64.0519   32.8683   49.8879 C   0  0  0  0  0  0  0  0  0  0  0  0
   64.9770   33.3178   51.0177 C   0  0  0  0  0  0  0  0  0  0  0  0
   64.9140   32.3863   52.1393 N   0  0  0  0  0  0  0  0  0  0  0  0
   63.7125   31.6809   52.4678 C   0  0  0  0  0  0  0  0  0  0  0  0
   63.6326   31.0619   53.5617 O   0  0  0  0  0  0  0  0  0  0  0  0
   62.5668   31.6130   51.4971 C   0  0  0  0  0  0  0  0  0  0  0  0
   65.7200   32.2390   52.6850 H   0  0  0  0  0  0  0  0  0  0  0  0
   59.8128   27.1495   47.1617 C   0  0  0  0  0  0  0  0  0  0  0  0
   59.0516   27.8000   46.2661 C   0  0  0  0  0  0  0  0  0  0  0  0
   58.3039   27.2345   45.2216 C   0  0  0  0  0  0  0  0  0  0  0  0
   57.9834   25.9523   44.9547 C   0  0  0  0  0  0  0  0  0  0  0  0
   57.8923   28.2899   44.4229 C   0  0  0  0  0  0  0  0  0  0  0  0
   58.3297   29.4471   45.0336 C   0  0  0  0  0  0  0  0  0  0  0  0
   58.0830   30.8303   44.5094 C   0  0  0  0  0  0  0  0  0  0  0  0
   59.0343   29.1540   46.1488 N   0  0  0  0  0  0  0  0  0  0  0  0
   57.3501   25.0142   45.8936 C   0  0  0  0  0  0  0  0  0  0  0  0
   57.9179   23.8625   46.2901 N   0  0  0  0  0  0  0  0  0  0  0  0
   56.9510   23.2740   47.0267 C   0  0  0  0  0  0  0  0  0  0  0  0
   57.1126   22.1629   47.5939 O   0  0  0  0  0  0  0  0  0  0  0  0
   55.7920   23.9653   47.0991 N   0  0  0  0  0  0  0  0  0  0  0  0
   56.0551   25.0558   46.3618 C   0  0  0  0  0  0  0  0  0  0  0  0
   55.1253   26.0545   46.1031 O   0  0  0  0  0  0  0  0  0  0  0  0
 17 18  2  0
 18 19  1  0
 19 20  2  0
 20 25  1  0
 25 26  1  0
 26 27  1  0
 27 28  2  0
 27 29  1  0
 29 30  1  0
 30 31  1  0
 19 21  1  0
 21 22  2  0
 22 23  1  0
 22 24  1  0
 24  1  1  0
  1  2  2  0
  2  3  1  0
  3  4  2  0
  4  7  1  0
  7  8  2  0
  7  9  1  0
  9 10  1  0
 10 11  1  0
 11 12  1  0
 12 13  1  0
 13 14  2  0
 13 15  1  0
  4  5  1  0
  5  6  2  0
 24 18  1  0
  6  1  1  0
 30 25  2  0
 15  9  1  0
 12 16  1  0
M  CHG 1  26  -1
M  CHG 1  29  -1
M  CHG 1  31  -1
M  END
> <UniqueID>
47

> <SMILES>
C=c1c(=Cc2[n-]c(=O)[n-]c2[O-])cc(C)n1-c1ccc(C(=O)N2CCNC(=O)C2)cc1

> <Energy>
130.28094352104208

> <Genealogy>
C=c1c(=Cc2[n-]c(=O)[n-]c2[O-])cc(C)n1-c1ccc(C(=O)N2CCNC(=O)C2)cc1 (protonated)
C=c1c(=Cc2[n-]c(=O)[n-]c2[O-])cc(C)n1-c1ccc(C(=O)N2CCNC(=O)C2)cc1 (3D coordinates assigned)
C=c1c(=Cc2[n-]c(=O)[n-]c2[O-])cc(C)n1-c1ccc(C(=O)N2CCNC(=O)C2)cc1 (nonaromatic ring conformer: 130.28094352104208 kcal/mol)

> <smiles>
C=c1c(=Cc2[nH]c(=O)[nH]c2O)cc(C)n1-c1ccc(C(=O)N2CCNC(=O)C2)cc1

> <score_type>
oracle

> <origin>
adg

> <m_score__min__energy>
-15.49

> <m_primary>
energy

> <minimizedAffinity>
-8.66447

> <minimizedRMSD>
1.00146

> <CNNscore>
0.1732046902

> <CNNaffinity>
6.5098032951

> <CNN_VS>
1.1275284290

> <CNNaffinity_variance>
0.0356799103

$$$$
55:0


 33 36  0  0  0  0  0  0  0  0999 V2000
   58.1166   29.9449   45.7080 N   0  0  0  0  0  0  0  0  0  0  0  0
   57.5031   29.3374   44.6672 C   0  0  0  0  0  0  0  0  0  0  0  0
   57.0343   30.0287   43.4239 C   0  0  0  0  0  0  0  0  0  0  0  0
   57.3813   27.9824   44.9054 C   0  0  0  0  0  0  0  0  0  0  0  0
   57.9346   27.7460   46.1555 C   0  0  0  0  0  0  0  0  0  0  0  0
   57.9923   26.5590   46.7879 C   0  0  0  0  0  0  0  0  0  0  0  0
   58.3814   28.9834   46.6286 C   0  0  0  0  0  0  0  0  0  0  0  0
   59.0192   29.2089   47.7895 C   0  0  0  0  0  0  0  0  0  0  0  0
   57.5932   25.2794   46.1593 C   0  0  0  0  0  0  0  0  0  0  0  0
   56.2464   24.9789   45.8898 C   0  0  0  0  0  0  0  0  0  0  0  0
   55.2374   25.8805   46.2086 O   0  0  0  0  0  0  0  0  0  0  0  0
   55.9211   23.8037   45.2912 N   0  0  0  0  0  0  0  0  0  0  0  0
   56.8786   22.9123   44.9291 C   0  0  0  0  0  0  0  0  0  0  0  0
   56.4561   21.5090   44.2128 S   0  0  0  0  0  0  0  0  0  0  0  0
   58.1875   23.1928   45.1525 N   0  0  0  0  0  0  0  0  0  0  0  0
   58.5656   24.3531   45.7488 C   0  0  0  0  0  0  0  0  0  0  0  0
   59.7906   24.5807   45.9376 O   0  0  0  0  0  0  0  0  0  0  0  0
   59.3873   33.2235   47.0224 C   0  0  0  0  0  0  0  0  0  0  0  0
   58.9798   34.0888   45.9930 C   0  0  0  0  0  0  0  0  0  0  0  0
   58.2813   33.5925   44.8882 C   0  0  0  0  0  0  0  0  0  0  0  0
   57.9907   32.2305   44.7966 C   0  0  0  0  0  0  0  0  0  0  0  0
   58.3994   31.3518   45.8096 C   0  0  0  0  0  0  0  0  0  0  0  0
   59.1056   31.8515   46.9153 C   0  0  0  0  0  0  0  0  0  0  0  0
   64.9431   33.2724   50.1363 O   0  0  0  0  0  0  0  0  0  0  0  0
   64.0551   32.3557   49.5479 C   0  0  0  0  0  0  0  0  0  0  0  0
   63.7243   32.8269   48.1131 C   0  0  0  0  0  0  0  0  0  0  0  0
   62.2878   32.4881   47.7060 C   0  0  0  0  0  0  0  0  0  0  0  0
   61.3434   33.0979   48.6547 N   0  0  0  0  0  0  0  0  0  0  0  0
   60.1401   33.7381   48.1883 C   0  0  0  0  0  0  0  0  0  0  0  0
   59.7124   34.7629   48.7880 O   0  0  0  0  0  0  0  0  0  0  0  0
   61.6929   33.1860   50.0804 C   0  0  0  0  0  0  0  0  0  0  0  0
   62.8016   32.1886   50.4393 C   0  0  0  0  0  0  0  0  0  0  0  0
   65.7259   33.3719   49.5722 H   0  0  0  0  0  0  0  0  0  0  0  0
 24 25  1  0
 25 26  1  0
 26 27  1  0
 27 28  1  0
 28 29  1  0
 29 30  2  0
 29 18  1  0
 18 19  2  0
 19 20  1  0
 20 21  2  0
 21 22  1  0
 22  1  1  0
  1  2  1  0
  2  3  1  0
  2  4  2  0
  4  5  1  0
  5  6  2  0
  6  9  1  0
  9 10  2  0
 10 11  1  0
 10 12  1  0
 12 13  1  0
 13 14  2  0
 13 15  1  0
 15 16  1  0
 16 17  2  0
  5  7  1  0
  7  8  2  0
 22 23  2  0
 28 31  1  0
 31 32  1  0
 32 25  1  0
 23 18  1  0
  7  1  1  0
 16  9  1  0
 24 33  1  0
M  CHG 1  11  -1
M  CHG 1  12  -1
M  CHG 1  15  -1
M  END
> <UniqueID>
51

> <SMILES>
C=c1/c(=C/c2c([O-])[n-]c(=S)[n-]c2=O)cc(C)n1-c1cccc(C(=O)N2CCC(O)CC2)c1

> <Energy>
107.27987477318017

> <Genealogy>
C=c1c(=Cc2c([O-])[n-]c(=S)[n-]c2=O)cc(C)n1-c1cccc(C(=O)N2CCC(O)CC2)c1 (protonated)
C=c1/c(=C/c2c([O-])[n-]c(=S)[n-]c2=O)cc(C)n1-c1cccc(C(=O)N2CCC(O)CC2)c1 (cis-trans isomerization)
C=c1/c(=C/c2c([O-])[n-]c(=S)[n-]c2=O)cc(C)n1-c1cccc(C(=O)N2CCC(O)CC2)c1 (3D coordinates assigned)
C=c1/c(=C/c2c([O-])[n-]c(=S)[n-]c2=O)cc(C)n1-c1cccc(C(=O)N2CCC(O)CC2)c1 (nonaromatic ring conformer: 107.27987477318017 kcal/mol)

> <smiles>
C=c1c(=Cc2c(O)[nH]c(=S)[nH]c2=O)cc(C)n1-c1cccc(C(=O)N2CCC(O)CC2)c1

> <score_type>
oracle

> <origin>
adg

> <m_score__min__energy>
-17.559999999999999

> <m_primary>
energy

> <minimizedAffinity>
-10.45618

> <minimizedRMSD>
0.84145

> <CNNscore>
0.6281209588

> <CNNaffinity>
7.2569947243

> <CNN_VS>
4.5582704544

> <CNNaffinity_variance>
0.0162621606

$$$$
56:0


 29 32  0  0  0  0  0  0  0  0999 V2000
   60.2543   28.6470   44.4216 C   0  0  0  0  0  0  0  0  0  0  0  0
   59.7492   28.4055   45.6426 C   0  0  0  0  0  0  0  0  0  0  0  0
   58.8006   27.4225   45.9751 C   0  0  0  0  0  0  0  0  0  0  0  0
   58.0387   26.6262   45.1981 C   0  0  0  0  0  0  0  0  0  0  0  0
   58.7230   27.4080   47.3555 C   0  0  0  0  0  0  0  0  0  0  0  0
   59.5579   28.4025   47.8151 C   0  0  0  0  0  0  0  0  0  0  0  0
   59.6959   28.7869   49.2573 C   0  0  0  0  0  0  0  0  0  0  0  0
   60.1823   29.0167   46.7820 N   0  0  0  0  0  0  0  0  0  0  0  0
   57.5473   25.2885   45.5606 C   0  0  0  0  0  0  0  0  0  0  0  0
   58.3382   24.2034   45.6429 N   0  0  0  0  0  0  0  0  0  0  0  0
   57.5101   23.2507   46.1235 C   0  0  0  0  0  0  0  0  0  0  0  0
   57.8854   22.0658   46.3256 O   0  0  0  0  0  0  0  0  0  0  0  0
   56.2518   23.6685   46.3808 N   0  0  0  0  0  0  0  0  0  0  0  0
   56.2957   24.9647   46.0331 C   0  0  0  0  0  0  0  0  0  0  0  0
   55.2238   25.8382   46.1732 O   0  0  0  0  0  0  0  0  0  0  0  0
   61.1189   30.1451   46.9185 C   0  0  0  0  0  0  0  0  0  0  0  0
   60.4751   31.2822   47.6892 C   0  0  0  0  0  0  0  0  0  0  0  0
   61.0821   31.7003   48.8886 C   0  0  0  0  0  0  0  0  0  0  0  0
   60.5774   32.7880   49.6021 C   0  0  0  0  0  0  0  0  0  0  0  0
   59.4605   33.4737   49.1345 C   0  0  0  0  0  0  0  0  0  0  0  0
   58.8299   33.0641   47.9589 C   0  0  0  0  0  0  0  0  0  0  0  0
   59.3139   31.9630   47.2318 C   0  0  0  0  0  0  0  0  0  0  0  0
   58.5686   31.5385   46.0285 C   0  0  0  0  0  0  0  0  0  0  0  0
   57.6127   30.5718   46.1222 N   0  0  0  0  0  0  0  0  0  0  0  0
   56.9088   30.1771   45.0603 N   0  0  0  0  0  0  0  0  0  0  0  0
   57.1108   30.7258   43.8343 C   0  0  0  0  0  0  0  0  0  0  0  0
   56.4336   30.3316   42.8493 O   0  0  0  0  0  0  0  0  0  0  0  0
   58.0671   31.7286   43.6785 C   0  0  0  0  0  0  0  0  0  0  0  0
   58.8005   32.1446   44.7880 C   0  0  0  0  0  0  0  0  0  0  0  0
  1  2  2  0
  2  3  1  0
  3  4  2  0
  4  9  1  0
  9 10  1  0
 10 11  1  0
 11 12  2  0
 11 13  1  0
 13 14  1  0
 14 15  1  0
  3  5  1  0
  5  6  2  0
  6  7  1  0
  6  8  1  0
  8 16  1  0
 16 17  1  0
 17 18  2  0
 18 19  1  0
 19 20  2  0
 20 21  1  0
 21 22  2  0
 22 23  1  0
 23 24  2  0
 24 25  1  0
 25 26  1  0
 26 27  2  0
 26 28  1  0
 28 29  2  0
  8  2  1  0
 22 17  1  0
 29 23  1  0
 14  9  2  0
M  CHG 1  10  -1
M  CHG 1  13  -1
M  CHG 1  15  -1
M  CHG 1  25  -1
M  END
> <UniqueID>
52

> <SMILES>
C=c1/c(=C\c2[n-]c(=O)[n-]c2[O-])cc(C)n1Cc1ccccc1-c1ccc(=O)[n-]n1

> <Energy>
127.19844453468062

> <Genealogy>
C=c1c(=Cc2[n-]c(=O)[n-]c2[O-])cc(C)n1Cc1ccccc1-c1ccc(=O)[n-]n1 (protonated)
C=c1/c(=C\c2[n-]c(=O)[n-]c2[O-])cc(C)n1Cc1ccccc1-c1ccc(=O)[n-]n1 (cis-trans isomerization)
C=c1/c(=C\c2[n-]c(=O)[n-]c2[O-])cc(C)n1Cc1ccccc1-c1ccc(=O)[n-]n1 (3D coordinates assigned)
C=c1/c(=C\c2[n-]c(=O)[n-]c2[O-])cc(C)n1Cc1ccccc1-c1ccc(=O)[n-]n1 (optimized conformer: 127.19844453468062 kcal/mol)

> <smiles>
C=c1c(=Cc2[nH]c(=O)[nH]c2O)cc(C)n1Cc1ccccc1-c1ccc(=O)[nH]n1

> <score_type>
oracle

> <origin>
adg

> <m_score__min__energy>
-18.280000000000001

> <m_primary>
energy

> <minimizedAffinity>
-7.96659

> <minimizedRMSD>
1.35332

> <CNNscore>
0.3117816448

> <CNNaffinity>
6.8429145813

> <CNN_VS>
2.1334950924

> <CNNaffinity_variance>
0.0286211912

$$$$
0:0


 32 34  0  0  0  0  0  0  0  0999 V2000
   58.6087   26.8553   45.5042 C   0  0  0  0  0  0  0  0  0  0  0  0
   59.0328   27.7905   46.3794 C   0  0  0  0  0  0  0  0  0  0  0  0
   58.7217   27.8721   47.7330 C   0  0  0  0  0  0  0  0  0  0  0  0
   59.3540   28.9989   48.2190 C   0  0  0  0  0  0  0  0  0  0  0  0
   59.2618   29.4923   49.6306 C   0  0  0  0  0  0  0  0  0  0  0  0
   60.0305   29.6218   47.2329 N   0  0  0  0  0  0  0  0  0  0  0  0
   59.8410   28.9007   46.0995 C   0  0  0  0  0  0  0  0  0  0  0  0
   60.3511   29.2418   44.9074 C   0  0  0  0  0  0  0  0  0  0  0  0
   55.6218   26.3527   46.1187 O   0  0  0  0  0  0  0  0  0  0  0  0
   56.6187   25.3795   46.1132 C   0  0  0  0  0  0  0  0  0  0  0  0
   56.3762   24.0809   46.3547 N   0  0  0  0  0  0  0  0  0  0  0  0
   57.6000   23.5235   46.2481 C   0  0  0  0  0  0  0  0  0  0  0  0
   57.7997   22.2908   46.4074 O   0  0  0  0  0  0  0  0  0  0  0  0
   58.5918   24.3887   45.9522 N   0  0  0  0  0  0  0  0  0  0  0  0
   57.9651   25.5774   45.8771 C   0  0  0  0  0  0  0  0  0  0  0  0
   54.7329   26.1118   46.2913 H   0  0  0  0  0  0  0  0  0  0  0  0
   60.7984   30.8285   47.3776 C   0  0  0  0  0  0  0  0  0  0  0  0
   62.1798   30.7385   47.5975 C   0  0  0  0  0  0  0  0  0  0  0  0
   62.9474   31.8950   47.7482 C   0  0  0  0  0  0  0  0  0  0  0  0
   62.3425   33.1504   47.6683 C   0  0  0  0  0  0  0  0  0  0  0  0
   60.9667   33.2523   47.4440 C   0  0  0  0  0  0  0  0  0  0  0  0
   60.1791   32.0975   47.3109 C   0  0  0  0  0  0  0  0  0  0  0  0
   58.7323   32.2211   47.0359 C   0  0  0  0  0  0  0  0  0  0  0  0
   58.0070   31.1929   47.0889 O   0  0  0  0  0  0  0  0  0  0  0  0
   58.1194   33.4815   46.7350 N   0  0  0  0  0  0  0  0  0  0  0  0
   57.5365   33.8378   45.4474 C   0  0  0  0  0  0  0  0  0  0  0  0
   58.5623   33.6119   44.3424 C   0  0  0  0  0  0  0  0  0  0  0  0
   57.8320   32.6439   42.9734 S   0  0  0  0  0  0  0  0  0  0  0  0
   57.8738   31.0063   43.7992 C   0  0  0  0  0  0  0  0  0  0  0  0
   56.5079   30.3011   43.7109 C   0  0  0  0  0  0  0  0  0  0  0  0
   56.4687   29.3727   42.4899 C   0  0  0  0  0  0  0  0  0  0  0  0
   56.2020   29.5040   44.9857 C   0  0  0  0  0  0  0  0  0  0  0  0
  9 10  1  0
 10 11  1  0
 11 12  1  0
 12 13  2  0
 12 14  1  0
 14 15  1  0
 15  1  1  0
  1  2  2  0
  2  3  1  0
  3  4  2  0
  4  5  1  0
  4  6  1  0
  6 17  1  0
 17 18  2  0
 18 19  1  0
 19 20  2  0
 20 21  1  0
 21 22  2  0
 22 23  1  0
 23 24  2  0
 23 25  1  0
 25 26  1  0
 26 27  1  0
 27 28  1  0
 28 29  1  0
 29 30  1  0
 30 31  1  0
 30 32  1  0
  6  7  1  0
  7  8  2  0
 15 10  2  0
  7  2  1  0
 22 17  1  0
  9 16  1  0
M  CHG 1  11  -1
M  CHG 1  14  -1
M  CHG 1  25  -1
M  END
> <UniqueID>
1

> <SMILES>
C=c1/c(=C/c2[n-]c(=O)[n-]c2O)cc(C)n1-c1ccccc1C(=O)[N-]CCSCC(C)C

> <Energy>
119.43937304924758

> <Genealogy>
C=c1c(=Cc2[n-]c(=O)[n-]c2O)cc(C)n1-c1ccccc1C(=O)[N-]CCSCC(C)C (protonated)
C=c1/c(=C/c2[n-]c(=O)[n-]c2O)cc(C)n1-c1ccccc1C(=O)[N-]CCSCC(C)C (cis-trans isomerization)
C=c1/c(=C/c2[n-]c(=O)[n-]c2O)cc(C)n1-c1ccccc1C(=O)[N-]CCSCC(C)C (3D coordinates assigned)
C=c1/c(=C/c2[n-]c(=O)[n-]c2O)cc(C)n1-c1ccccc1C(=O)[N-]CCSCC(C)C (optimized conformer: 119.43937304924758 kcal/mol)

> <smiles>
C=c1c(=Cc2[nH]c(=O)[nH]c2O)cc(C)n1-c1ccccc1C(=O)NCCSCC(C)C

> <score_type>
oracle

> <origin>
adg

> <m_score__min__energy>
-14.59

> <m_primary>
energy

> <minimizedAffinity>
-5.94610

> <minimizedRMSD>
0.61086

> <CNNscore>
0.1944786012

> <CNNaffinity>
7.1964077950

> <CNN_VS>
1.3995473385

> <CNNaffinity_variance>
0.1740054339

$$$$
6:0


 25 28  0  0  0  0  0  0  0  0999 V2000
   59.7410   26.9479   46.9209 C   0  0  0  0  0  0  0  0  0  0  0  0
   59.0678   27.8246   46.1586 C   0  0  0  0  0  0  0  0  0  0  0  0
   58.2434   27.5205   45.0662 C   0  0  0  0  0  0  0  0  0  0  0  0
   57.9796   26.2922   44.5700 C   0  0  0  0  0  0  0  0  0  0  0  0
   57.7316   28.7359   44.6214 C   0  0  0  0  0  0  0  0  0  0  0  0
   58.2677   29.7145   45.4335 C   0  0  0  0  0  0  0  0  0  0  0  0
   57.9647   31.1784   45.3142 C   0  0  0  0  0  0  0  0  0  0  0  0
   59.0717   29.1649   46.3683 N   0  0  0  0  0  0  0  0  0  0  0  0
   59.7978   29.8872   47.3803 C   0  0  0  0  0  0  0  0  0  0  0  0
   59.3223   29.9197   48.7007 C   0  0  0  0  0  0  0  0  0  0  0  0
   60.0272   30.6082   49.6903 C   0  0  0  0  0  0  0  0  0  0  0  0
   61.2202   31.2713   49.3684 C   0  0  0  0  0  0  0  0  0  0  0  0
   61.9503   31.9701   50.3389 C   0  0  0  0  0  0  0  0  0  0  0  0
   63.1346   32.6193   49.9818 C   0  0  0  0  0  0  0  0  0  0  0  0
   63.5775   32.5624   48.6583 C   0  0  0  0  0  0  0  0  0  0  0  0
   62.8607   31.8806   47.7242 N   0  0  0  0  0  0  0  0  0  0  0  0
   61.7035   31.2388   48.0417 C   0  0  0  0  0  0  0  0  0  0  0  0
   60.9922   30.5469   47.0565 C   0  0  0  0  0  0  0  0  0  0  0  0
   57.4828   25.1334   45.3470 C   0  0  0  0  0  0  0  0  0  0  0  0
   58.1252   23.9640   45.5222 N   0  0  0  0  0  0  0  0  0  0  0  0
   57.2949   23.2630   46.3230 C   0  0  0  0  0  0  0  0  0  0  0  0
   57.5533   22.0942   46.7126 O   0  0  0  0  0  0  0  0  0  0  0  0
   56.1662   23.9147   46.6759 N   0  0  0  0  0  0  0  0  0  0  0  0
   56.3039   25.0950   46.0539 C   0  0  0  0  0  0  0  0  0  0  0  0
   55.3696   26.1205   46.1313 O   0  0  0  0  0  0  0  0  0  0  0  0
  1  2  2  0
  2  3  1  0
  3  4  2  0
  4 19  1  0
 19 20  1  0
 20 21  1  0
 21 22  2  0
 21 23  1  0
 23 24  1  0
 24 25  1  0
  3  5  1  0
  5  6  2  0
  6  7  1  0
  6  8  1  0
  8  9  1  0
  9 10  2  0
 10 11  1  0
 11 12  2  0
 12 13  1  0
 13 14  2  0
 14 15  1  0
 15 16  2  0
 16 17  1  0
 17 18  2  0
  8  2  1  0
 18  9  1  0
 24 19  2  0
 17 12  1  0
M  CHG 1  20  -1
M  CHG 1  23  -1
M  CHG 1  25  -1
M  END
> <UniqueID>
7

> <SMILES>
C=c1/c(=C/c2[n-]c(=O)[n-]c2[O-])cc(C)n1-c1ccc2cccnc2c1

> <Energy>
114.04881559673309

> <Genealogy>
C=c1c(=Cc2[n-]c(=O)[n-]c2[O-])cc(C)n1-c1ccc2cccnc2c1 (protonated)
C=c1/c(=C/c2[n-]c(=O)[n-]c2[O-])cc(C)n1-c1ccc2cccnc2c1 (cis-trans isomerization)
C=c1/c(=C/c2[n-]c(=O)[n-]c2[O-])cc(C)n1-c1ccc2cccnc2c1 (3D coordinates assigned)
C=c1/c(=C/c2[n-]c(=O)[n-]c2[O-])cc(C)n1-c1ccc2cccnc2c1 (optimized conformer: 114.04881559673309 kcal/mol)

> <smiles>
C=c1c(=Cc2[nH]c(=O)[nH]c2O)cc(C)n1-c1ccc2cccnc2c1

> <score_type>
oracle

> <origin>
adg

> <m_score__min__energy>
-15.65

> <m_primary>
energy

> <minimizedAffinity>
-8.54054

> <minimizedRMSD>
1.49644

> <CNNscore>
0.2072252333

> <CNNaffinity>
6.5307469368

> <CNN_VS>
1.3533354998

> <CNNaffinity_variance>
0.1060827747

$$$$
13:0


 28 31  0  0  0  0  0  0  0  0999 V2000
   60.6434   29.9019   48.8669 C   0  0  0  0  0  0  0  0  0  0  0  0
   60.0517   30.7883   48.0475 C   0  0  0  0  0  0  0  0  0  0  0  0
   59.7757   30.6018   46.6829 C   0  0  0  0  0  0  0  0  0  0  0  0
   59.8127   29.4958   45.9124 C   0  0  0  0  0  0  0  0  0  0  0  0
   59.4054   31.8390   46.1906 C   0  0  0  0  0  0  0  0  0  0  0  0
   59.3850   32.7071   47.2605 C   0  0  0  0  0  0  0  0  0  0  0  0
   59.0525   34.1652   47.1535 C   0  0  0  0  0  0  0  0  0  0  0  0
   59.7731   32.0759   48.3939 N   0  0  0  0  0  0  0  0  0  0  0  0
   58.9213   28.3316   46.0386 C   0  0  0  0  0  0  0  0  0  0  0  0
   59.1712   27.2531   46.8062 N   0  0  0  0  0  0  0  0  0  0  0  0
   58.0314   26.5340   46.7117 C   0  0  0  0  0  0  0  0  0  0  0  0
   57.8793   25.4279   47.2912 O   0  0  0  0  0  0  0  0  0  0  0  0
   57.0641   27.1008   45.9591 N   0  0  0  0  0  0  0  0  0  0  0  0
   57.6394   28.2428   45.5530 C   0  0  0  0  0  0  0  0  0  0  0  0
   57.0049   29.1887   44.7594 O   0  0  0  0  0  0  0  0  0  0  0  0
   59.9287   32.7212   49.7101 C   0  0  0  0  0  0  0  0  0  0  0  0
   61.3878   32.9118   50.0439 C   0  0  0  0  0  0  0  0  0  0  0  0
   61.9029   32.4497   51.2646 C   0  0  0  0  0  0  0  0  0  0  0  0
   63.2524   32.6333   51.5792 C   0  0  0  0  0  0  0  0  0  0  0  0
   64.1112   33.2879   50.6809 C   0  0  0  0  0  0  0  0  0  0  0  0
   63.5976   33.7304   49.4501 C   0  0  0  0  0  0  0  0  0  0  0  0
   62.2483   33.5464   49.1364 C   0  0  0  0  0  0  0  0  0  0  0  0
   65.5049   33.4665   51.0047 N   0  0  0  0  0  0  0  0  0  0  0  0
   66.5811   32.6142   50.5243 C   0  0  0  0  0  0  0  0  0  0  0  0
   67.8931   33.3129   50.9277 C   0  0  0  0  0  0  0  0  0  0  0  0
   67.5236   34.4190   51.9268 C   0  0  0  0  0  0  0  0  0  0  0  0
   66.0511   34.4672   51.8495 C   0  0  0  0  0  0  0  0  0  0  0  0
   65.3485   35.2688   52.5214 O   0  0  0  0  0  0  0  0  0  0  0  0
  1  2  2  0
  2  3  1  0
  3  4  2  0
  4  9  1  0
  9 10  1  0
 10 11  1  0
 11 12  2  0
 11 13  1  0
 13 14  1  0
 14 15  1  0
  3  5  1  0
  5  6  2  0
  6  7  1  0
  6  8  1  0
  8 16  1  0
 16 17  1  0
 17 18  2  0
 18 19  1  0
 19 20  2  0
 20 23  1  0
 23 24  1  0
 24 25  1  0
 25 26  1  0
 26 27  1  0
 27 28  2  0
 20 21  1  0
 21 22  2  0
  8  2  1  0
 22 17  1  0
 14  9  2  0
 27 23  1  0
M  CHG 1  10  -1
M  CHG 1  13  -1
M  CHG 1  15  -1
M  END
> <UniqueID>
11

> <SMILES>
C=c1c(=Cc2[n-]c(=O)[n-]c2[O-])cc(C)n1Cc1ccc(N2CCCC2=O)cc1

> <Energy>
128.9222361114682

> <Genealogy>
C=c1c(=Cc2[n-]c(=O)[n-]c2[O-])cc(C)n1Cc1ccc(N2CCCC2=O)cc1 (protonated)
C=c1c(=Cc2[n-]c(=O)[n-]c2[O-])cc(C)n1Cc1ccc(N2CCCC2=O)cc1 (3D coordinates assigned)
C=c1c(=Cc2[n-]c(=O)[n-]c2[O-])cc(C)n1Cc1ccc(N2CCCC2=O)cc1 (nonaromatic ring conformer: 128.9222361114682 kcal/mol)

> <smiles>
C=c1c(=Cc2[nH]c(=O)[nH]c2O)cc(C)n1Cc1ccc(N2CCCC2=O)cc1

> <score_type>
oracle

> <origin>
adg

> <m_score__min__energy>
-16.93

> <m_primary>
energy

> <minimizedAffinity>
-7.57878

> <minimizedRMSD>
1.99118

> <CNNscore>
0.7496137619

> <CNNaffinity>
7.1069674492

> <CNN_VS>
5.3274807930

> <CNNaffinity_variance>
0.4005318582

$$$$
15:0


 30 32  0  0  0  0  0  0  0  0999 V2000
   60.4114   29.5356   47.7985 N   0  0  0  0  0  0  0  0  0  0  0  0
   60.8732   29.4057   46.3977 C   0  0  0  0  0  0  0  0  0  0  0  0
   60.1443   28.2859   45.6278 C   0  0  0  0  0  0  0  0  0  0  0  0
   59.8634   27.1294   46.4854 N   0  0  0  0  0  0  0  0  0  0  0  0
   60.5823   27.0267   47.7551 C   0  0  0  0  0  0  0  0  0  0  0  0
   60.3128   28.2837   48.5885 C   0  0  0  0  0  0  0  0  0  0  0  0
   58.7642   26.2422   46.1730 C   0  0  0  0  0  0  0  0  0  0  0  0
   59.0180   24.9083   45.7987 C   0  0  0  0  0  0  0  0  0  0  0  0
   57.9635   24.0230   45.5150 C   0  0  0  0  0  0  0  0  0  0  0  0
   56.6421   24.4784   45.6310 C   0  0  0  0  0  0  0  0  0  0  0  0
   56.3749   25.8016   45.9994 C   0  0  0  0  0  0  0  0  0  0  0  0
   55.0603   26.2520   46.1020 O   0  0  0  0  0  0  0  0  0  0  0  0
   57.4293   26.6843   46.2618 C   0  0  0  0  0  0  0  0  0  0  0  0
   57.1390   28.0026   46.5896 O   0  0  0  0  0  0  0  0  0  0  0  0
   54.3496   25.6667   45.9278 H   0  0  0  0  0  0  0  0  0  0  0  0
   58.2451   22.6300   45.0955 C   0  0  0  0  0  0  0  0  0  0  0  0
   57.2129   21.8148   44.5447 N   0  0  0  0  0  0  0  0  0  0  0  0
   59.4060   22.1508   45.2198 O   0  0  0  0  0  0  0  0  0  0  0  0
   56.3027   22.1757   44.4420 H   0  0  0  0  0  0  0  0  0  0  0  0
   59.3288   30.5190   48.0309 C   0  0  0  0  0  0  0  0  0  0  0  0
   57.4633   31.0748   44.7271 C   0  0  0  0  0  0  0  0  0  0  0  0
   57.9200   32.3579   44.3835 C   0  0  0  0  0  0  0  0  0  0  0  0
   58.7829   33.0519   45.2317 C   0  0  0  0  0  0  0  0  0  0  0  0
   59.2196   32.4661   46.4214 C   0  0  0  0  0  0  0  0  0  0  0  0
   58.8143   31.1664   46.7631 C   0  0  0  0  0  0  0  0  0  0  0  0
   57.9136   30.4872   45.9231 C   0  0  0  0  0  0  0  0  0  0  0  0
   55.4265   29.6178   44.4021 N   0  0  0  0  0  0  0  0  0  0  0  0
   56.5146   30.3539   43.8474 C   0  0  0  0  0  0  0  0  0  0  0  0
   56.6598   30.3860   42.5953 O   0  0  0  0  0  0  0  0  0  0  0  0
   54.8010   29.1418   43.8092 H   0  0  0  0  0  0  0  0  0  0  0  0
 27 28  1  0
 28 29  2  0
 28 21  1  0
 21 22  2  0
 22 23  1  0
 23 24  2  0
 24 25  1  0
 25 20  1  0
 20  1  1  0
  1  2  1  0
  2  3  1  0
  3  4  1  0
  4  7  1  0
  7  8  2  0
  8  9  1  0
  9 16  1  0
 16 17  1  0
 16 18  2  0
  9 10  2  0
 10 11  1  0
 11 12  1  0
 11 13  2  0
 13 14  1  0
  4  5  1  0
  5  6  1  0
 25 26  2  0
 26 21  1  0
  6  1  1  0
 13  7  1  0
 27 30  1  0
 17 19  1  0
 12 15  1  0
M  CHG 1  14  -1
M  CHG 1  17  -1
M  CHG 1  27  -1
M  END
> <UniqueID>
13

> <SMILES>
[NH-]C(=O)c1cccc(CN2CCN(c3cc(C([NH-])=O)cc(O)c3[O-])CC2)c1

> <Energy>
61.74522383253139

> <Genealogy>
[NH-]C(=O)c1cccc(CN2CCN(c3cc(C([NH-])=O)cc(O)c3[O-])CC2)c1 (protonated)
[NH-]C(=O)c1cccc(CN2CCN(c3cc(C([NH-])=O)cc(O)c3[O-])CC2)c1 (3D coordinates assigned)
[NH-]C(=O)c1cccc(CN2CCN(c3cc(C([NH-])=O)cc(O)c3[O-])CC2)c1 (nonaromatic ring conformer: 61.74522383253139 kcal/mol)

> <smiles>
NC(=O)c1cccc(CN2CCN(c3cc(C(N)=O)cc(O)c3O)CC2)c1

> <score_type>
oracle

> <origin>
adg

> <m_score__min__energy>
-15

> <m_primary>
energy

> <minimizedAffinity>
-8.72230

> <minimizedRMSD>
1.05402

> <CNNscore>
0.6288712025

> <CNNaffinity>
6.5078091621

> <CNN_VS>
4.0925736427

> <CNNaffinity_variance>
0.0545656197

$$$$
19:0


 33 36  0  0  0  0  0  0  0  0999 V2000
   56.9610   28.7289   43.8421 C   0  0  0  0  0  0  0  0  0  0  0  0
   57.8550   28.4450   44.8017 C   0  0  0  0  0  0  0  0  0  0  0  0
   58.2054   27.1717   45.2572 C   0  0  0  0  0  0  0  0  0  0  0  0
   57.7622   25.9848   44.7998 C   0  0  0  0  0  0  0  0  0  0  0  0
   59.1269   27.3601   46.2803 C   0  0  0  0  0  0  0  0  0  0  0  0
   59.3049   28.7232   46.4036 C   0  0  0  0  0  0  0  0  0  0  0  0
   60.2143   29.3752   47.4006 C   0  0  0  0  0  0  0  0  0  0  0  0
   58.5316   29.3841   45.5124 N   0  0  0  0  0  0  0  0  0  0  0  0
   57.1579   24.9577   45.6751 C   0  0  0  0  0  0  0  0  0  0  0  0
   55.8534   25.0891   46.2008 C   0  0  0  0  0  0  0  0  0  0  0  0
   55.0407   26.1815   45.8952 O   0  0  0  0  0  0  0  0  0  0  0  0
   55.3582   24.1192   47.0132 N   0  0  0  0  0  0  0  0  0  0  0  0
   56.0820   23.0125   47.3140 C   0  0  0  0  0  0  0  0  0  0  0  0
   55.5972   22.1318   48.0709 O   0  0  0  0  0  0  0  0  0  0  0  0
   57.3251   22.8494   46.7961 N   0  0  0  0  0  0  0  0  0  0  0  0
   57.8742   23.7892   45.9835 C   0  0  0  0  0  0  0  0  0  0  0  0
   59.0324   23.6043   45.5215 O   0  0  0  0  0  0  0  0  0  0  0  0
   55.3613   26.8623   45.3369 H   0  0  0  0  0  0  0  0  0  0  0  0
   58.4656   30.8114   45.3536 C   0  0  0  0  0  0  0  0  0  0  0  0
   57.9993   31.3672   44.1553 C   0  0  0  0  0  0  0  0  0  0  0  0
   57.9476   32.7531   43.9961 C   0  0  0  0  0  0  0  0  0  0  0  0
   58.3659   33.5941   45.0301 C   0  0  0  0  0  0  0  0  0  0  0  0
   58.8426   33.0554   46.2398 C   0  0  0  0  0  0  0  0  0  0  0  0
   58.8877   31.6573   46.3908 C   0  0  0  0  0  0  0  0  0  0  0  0
   59.2862   33.9469   47.3376 C   0  0  0  0  0  0  0  0  0  0  0  0
   59.1663   35.1962   47.2190 O   0  0  0  0  0  0  0  0  0  0  0  0
   59.9030   33.3912   48.5081 N   0  0  0  0  0  0  0  0  0  0  0  0
   61.3100   33.2477   48.7478 C   0  0  0  0  0  0  0  0  0  0  0  0
   62.2034   32.8393   47.7393 C   0  0  0  0  0  0  0  0  0  0  0  0
   63.5712   32.7361   48.0120 C   0  0  0  0  0  0  0  0  0  0  0  0
   64.0595   33.0514   49.2830 C   0  0  0  0  0  0  0  0  0  0  0  0
   63.1819   33.4803   50.2813 C   0  0  0  0  0  0  0  0  0  0  0  0
   61.8125   33.5859   50.0123 C   0  0  0  0  0  0  0  0  0  0  0  0
  1  2  2  0
  2  3  1  0
  3  4  2  0
  4  9  1  0
  9 10  2  0
 10 11  1  0
 10 12  1  0
 12 13  1  0
 13 14  2  0
 13 15  1  0
 15 16  1  0
 16 17  2  0
  3  5  1  0
  5  6  2  0
  6  7  1  0
  6  8  1  0
  8 19  1  0
 19 20  2  0
 20 21  1  0
 21 22  2  0
 22 23  1  0
 23 25  1  0
 25 26  2  0
 25 27  1  0
 27 28  1  0
 28 29  2  0
 29 30  1  0
 30 31  2  0
 31 32  1  0
 32 33  2  0
 23 24  2  0
  8  2  1  0
 24 19  1  0
 16  9  1  0
 33 28  1  0
 11 18  1  0
M  CHG 1  12  -1
M  CHG 1  15  -1
M  CHG 1  27  -1
M  END
> <UniqueID>
17

> <SMILES>
C=c1c(=Cc2c(O)[n-]c(=O)[n-]c2=O)cc(C)n1-c1cccc(C(=O)[N-]c2ccccc2)c1

> <Energy>
103.50013325072756

> <Genealogy>
C=c1c(=Cc2c(O)[n-]c(=O)[n-]c2=O)cc(C)n1-c1cccc(C(=O)[N-]c2ccccc2)c1 (protonated)
C=c1c(=Cc2c(O)[n-]c(=O)[n-]c2=O)cc(C)n1-c1cccc(C(=O)[N-]c2ccccc2)c1 (3D coordinates assigned)
C=c1c(=Cc2c(O)[n-]c(=O)[n-]c2=O)cc(C)n1-c1cccc(C(=O)[N-]c2ccccc2)c1 (optimized conformer: 103.50013325072756 kcal/mol)

> <smiles>
C=c1c(=Cc2c(O)[nH]c(=O)[nH]c2=O)cc(C)n1-c1cccc(C(=O)Nc2ccccc2)c1

> <score_type>
oracle

> <origin>
adg

> <m_score__min__energy>
-15.6

> <m_primary>
energy

> <minimizedAffinity>
-10.48320

> <minimizedRMSD>
0.72028

> <CNNscore>
0.6808715463

> <CNNaffinity>
7.3403644562

> <CNN_VS>
4.9978451729

> <CNNaffinity_variance>
0.0209851936

$$$$
24:0


 28 30  0  0  0  0  0  0  0  0999 V2000
   59.6277   29.1031   48.1823 C   0  0  0  0  0  0  0  0  0  0  0  0
   59.2223   29.6146   47.0073 C   0  0  0  0  0  0  0  0  0  0  0  0
   59.1466   28.9201   45.7911 C   0  0  0  0  0  0  0  0  0  0  0  0
   59.4815   27.6294   45.5716 C   0  0  0  0  0  0  0  0  0  0  0  0
   58.6929   29.8366   44.8527 C   0  0  0  0  0  0  0  0  0  0  0  0
   58.5005   31.0290   45.5175 C   0  0  0  0  0  0  0  0  0  0  0  0
   58.0767   32.3039   44.8499 C   0  0  0  0  0  0  0  0  0  0  0  0
   58.8190   30.9040   46.8275 N   0  0  0  0  0  0  0  0  0  0  0  0
   58.6078   26.4591   45.8153 C   0  0  0  0  0  0  0  0  0  0  0  0
   59.0187   25.1911   46.0001 N   0  0  0  0  0  0  0  0  0  0  0  0
   57.8657   24.5009   46.1297 C   0  0  0  0  0  0  0  0  0  0  0  0
   57.8384   23.2573   46.3245 O   0  0  0  0  0  0  0  0  0  0  0  0
   56.7456   25.2453   46.0295 N   0  0  0  0  0  0  0  0  0  0  0  0
   57.2332   26.4801   45.8262 C   0  0  0  0  0  0  0  0  0  0  0  0
   56.4351   27.6047   45.6525 O   0  0  0  0  0  0  0  0  0  0  0  0
   58.7867   31.9953   47.8165 C   0  0  0  0  0  0  0  0  0  0  0  0
   60.1841   32.4015   48.2065 C   0  0  0  0  0  0  0  0  0  0  0  0
   60.4477   32.8926   49.4927 C   0  0  0  0  0  0  0  0  0  0  0  0
   61.7460   33.2574   49.8620 C   0  0  0  0  0  0  0  0  0  0  0  0
   62.8071   33.1437   48.9439 C   0  0  0  0  0  0  0  0  0  0  0  0
   62.5383   32.6491   47.6575 C   0  0  0  0  0  0  0  0  0  0  0  0
   61.2408   32.2846   47.2897 C   0  0  0  0  0  0  0  0  0  0  0  0
   64.1582   33.5050   49.2847 N   0  0  0  0  0  0  0  0  0  0  0  0
   64.6188   34.1536   48.7047 H   0  0  0  0  0  0  0  0  0  0  0  0
   65.0327   32.8768   50.6473 S   0  0  0  0  0  0  0  0  0  0  0  0
   64.8495   33.8098   51.8104 O   0  0  0  0  0  0  0  0  0  0  0  0
   66.4979   32.7894   50.3245 O   0  0  0  0  0  0  0  0  0  0  0  0
   64.3979   31.2765   51.1012 C   0  0  0  0  0  0  0  0  0  0  0  0
  1  2  2  0
  2  3  1  0
  3  4  2  0
  4  9  1  0
  9 10  1  0
 10 11  1  0
 11 12  2  0
 11 13  1  0
 13 14  1  0
 14 15  1  0
  3  5  1  0
  5  6  2  0
  6  7  1  0
  6  8  1  0
  8 16  1  0
 16 17  1  0
 17 18  2  0
 18 19  1  0
 19 20  2  0
 20 23  1  0
 23 25  1  0
 25 26  2  0
 25 27  2  0
 25 28  1  0
 20 21  1  0
 21 22  2  0
  8  2  1  0
 22 17  1  0
 14  9  2  0
 23 24  1  0
M  CHG 1  10  -1
M  CHG 1  13  -1
M  CHG 1  15  -1
M  END
> <UniqueID>
22

> <SMILES>
C=c1/c(=C/c2[n-]c(=O)[n-]c2[O-])cc(C)n1Cc1ccc(NS(C)(=O)=O)cc1

> <Energy>
106.55449052865272

> <Genealogy>
C=c1c(=Cc2[n-]c(=O)[n-]c2[O-])cc(C)n1Cc1ccc(NS(C)(=O)=O)cc1 (protonated)
C=c1/c(=C/c2[n-]c(=O)[n-]c2[O-])cc(C)n1Cc1ccc(NS(C)(=O)=O)cc1 (cis-trans isomerization)
C=c1/c(=C/c2[n-]c(=O)[n-]c2[O-])cc(C)n1Cc1ccc(NS(C)(=O)=O)cc1 (3D coordinates assigned)
C=c1/c(=C/c2[n-]c(=O)[n-]c2[O-])cc(C)n1Cc1ccc(NS(C)(=O)=O)cc1 (optimized conformer: 106.55449052865272 kcal/mol)

> <smiles>
C=c1c(=Cc2[nH]c(=O)[nH]c2O)cc(C)n1Cc1ccc(NS(C)(=O)=O)cc1

> <score_type>
oracle

> <origin>
adg

> <m_score__min__energy>
-16.109999999999999

> <m_primary>
energy

> <minimizedAffinity>
-7.25303

> <minimizedRMSD>
1.23731

> <CNNscore>
0.5050621033

> <CNNaffinity>
7.0444560051

> <CNN_VS>
3.5578877926

> <CNNaffinity_variance>
0.3948640525

$$$$
40:0


 25 27  0  0  0  0  0  0  0  0999 V2000
   58.3977   28.8712   46.4158 N   0  0  0  0  0  0  0  0  0  0  0  0
   58.6736   30.1428   46.4210 C   0  0  0  0  0  0  0  0  0  0  0  0
   57.7881   31.0664   45.9885 N   0  0  0  0  0  0  0  0  0  0  0  0
   58.3039   32.3234   46.0349 C   0  0  0  0  0  0  0  0  0  0  0  0
   59.6100   32.4008   46.5064 C   0  0  0  0  0  0  0  0  0  0  0  0
   60.1490   30.8447   46.8514 S   0  0  0  0  0  0  0  0  0  0  0  0
   57.7684   28.1287   45.3599 C   0  0  0  0  0  0  0  0  0  0  0  0
   56.7194   28.5934   44.8384 O   0  0  0  0  0  0  0  0  0  0  0  0
   58.2981   26.7982   44.8962 C   0  0  0  0  0  0  0  0  0  0  0  0
   55.3878   26.6128   45.9763 O   0  0  0  0  0  0  0  0  0  0  0  0
   56.3508   25.6147   46.0973 C   0  0  0  0  0  0  0  0  0  0  0  0
   56.1194   24.4299   46.6862 N   0  0  0  0  0  0  0  0  0  0  0  0
   57.3050   23.7973   46.5596 C   0  0  0  0  0  0  0  0  0  0  0  0
   57.5014   22.6319   46.9943 O   0  0  0  0  0  0  0  0  0  0  0  0
   58.2653   24.5081   45.9282 N   0  0  0  0  0  0  0  0  0  0  0  0
   57.6504   25.6702   45.6434 C   0  0  0  0  0  0  0  0  0  0  0  0
   54.5269   26.4774   46.3205 H   0  0  0  0  0  0  0  0  0  0  0  0
   60.4435   33.6401   46.5799 C   0  0  0  0  0  0  0  0  0  0  0  0
   61.4705   33.5085   47.6700 C   0  0  0  0  0  0  0  0  0  0  0  0
   62.8024   33.1912   47.3553 C   0  0  0  0  0  0  0  0  0  0  0  0
   63.7651   33.1063   48.3665 C   0  0  0  0  0  0  0  0  0  0  0  0
   63.4078   33.3500   49.6963 C   0  0  0  0  0  0  0  0  0  0  0  0
   64.6163   33.2468   50.9628 Cl  0  0  0  0  0  0  0  0  0  0  0  0
   62.0857   33.6808   50.0152 C   0  0  0  0  0  0  0  0  0  0  0  0
   61.1216   33.7651   49.0060 C   0  0  0  0  0  0  0  0  0  0  0  0
 10 11  1  0
 11 12  1  0
 12 13  1  0
 13 14  2  0
 13 15  1  0
 15 16  1  0
 16  9  1  0
  9  7  1  0
  7  8  2  0
  7  1  1  0
  1  2  2  0
  2  3  1  0
  3  4  1  0
  4  5  2  0
  5 18  1  0
 18 19  1  0
 19 20  2  0
 20 21  1  0
 21 22  2  0
 22 23  1  0
 22 24  1  0
 24 25  2  0
  5  6  1  0
 16 11  2  0
  6  2  1  0
 25 19  1  0
 10 17  1  0
M  CHG 1   3  -1
M  CHG 1  12  -1
M  CHG 1  15  -1
M  END
> <UniqueID>
36

> <SMILES>
O=C(Cc1[n-]c(=O)[n-]c1O)/N=c1/[n-]cc(Cc2ccc(Cl)cc2)s1

> <Energy>
98.30227525328289

> <Genealogy>
O=C(Cc1[n-]c(=O)[n-]c1O)N=c1[n-]cc(Cc2ccc(Cl)cc2)s1 (protonated)
O=C(Cc1[n-]c(=O)[n-]c1O)/N=c1/[n-]cc(Cc2ccc(Cl)cc2)s1 (cis-trans isomerization)
O=C(Cc1[n-]c(=O)[n-]c1O)/N=c1/[n-]cc(Cc2ccc(Cl)cc2)s1 (3D coordinates assigned)
O=C(Cc1[n-]c(=O)[n-]c1O)/N=c1/[n-]cc(Cc2ccc(Cl)cc2)s1 (optimized conformer: 98.30227525328289 kcal/mol)

> <smiles>
O=C(Cc1[nH]c(=O)[nH]c1O)N=c1[nH]cc(Cc2ccc(Cl)cc2)s1

> <score_type>
oracle

> <origin>
adg

> <m_score__min__energy>
-14.41

> <m_primary>
energy

> <minimizedAffinity>
-8.18040

> <minimizedRMSD>
0.72170

> <CNNscore>
0.6546965837

> <CNNaffinity>
7.0532646179

> <CNN_VS>
4.6177482605

> <CNNaffinity_variance>
0.7084875107

$$$$
41:0


 30 32  0  0  0  0  0  0  0  0999 V2000
   57.9711   27.7976   46.2864 C   0  0  0  0  0  0  0  0  0  0  0  0
   58.8136   28.6628   47.0056 C   0  0  0  0  0  0  0  0  0  0  0  0
   59.6674   28.1671   48.0000 C   0  0  0  0  0  0  0  0  0  0  0  0
   59.6740   26.7964   48.2781 C   0  0  0  0  0  0  0  0  0  0  0  0
   58.8200   25.9334   47.5900 C   0  0  0  0  0  0  0  0  0  0  0  0
   57.9565   26.4210   46.5942 C   0  0  0  0  0  0  0  0  0  0  0  0
   57.0654   25.4820   45.8701 C   0  0  0  0  0  0  0  0  0  0  0  0
   57.5343   24.7464   44.7668 C   0  0  0  0  0  0  0  0  0  0  0  0
   56.6660   23.8741   44.1035 C   0  0  0  0  0  0  0  0  0  0  0  0
   57.0736   23.2163   43.1082 O   0  0  0  0  0  0  0  0  0  0  0  0
   55.3470   23.7337   44.5447 C   0  0  0  0  0  0  0  0  0  0  0  0
   54.9145   24.4757   45.6481 C   0  0  0  0  0  0  0  0  0  0  0  0
   55.7726   25.3254   46.2774 N   0  0  0  0  0  0  0  0  0  0  0  0
   57.1349   28.3108   45.2375 N   0  0  0  0  0  0  0  0  0  0  0  0
   58.2979   30.4207   44.3414 C   0  0  0  0  0  0  0  0  0  0  0  0
   57.0768   29.6787   44.8070 C   0  0  0  0  0  0  0  0  0  0  0  0
   55.9617   30.2612   44.7821 O   0  0  0  0  0  0  0  0  0  0  0  0
   60.6507   29.0771   48.6797 C   0  0  0  0  0  0  0  0  0  0  0  0
   60.8926   30.2374   47.8313 N   0  0  0  0  0  0  0  0  0  0  0  0
   60.6774   31.5880   48.2598 C   0  0  0  0  0  0  0  0  0  0  0  0
   61.1784   31.9837   49.3461 O   0  0  0  0  0  0  0  0  0  0  0  0
   59.7967   32.4989   47.4768 C   0  0  0  0  0  0  0  0  0  0  0  0
   58.4126   32.3105   47.5728 C   0  0  0  0  0  0  0  0  0  0  0  0
   57.5471   33.0309   46.7658 C   0  0  0  0  0  0  0  0  0  0  0  0
   58.0574   33.9297   45.8311 C   0  0  0  0  0  0  0  0  0  0  0  0
   57.2444   34.5516   45.0826 O   0  0  0  0  0  0  0  0  0  0  0  0
   59.4132   34.1364   45.7243 N   0  0  0  0  0  0  0  0  0  0  0  0
   59.9175   35.0791   44.6994 C   0  0  0  0  0  0  0  0  0  0  0  0
   60.2868   33.4994   46.5891 C   0  0  0  0  0  0  0  0  0  0  0  0
   61.7564   33.8685   46.6038 C   0  0  0  0  0  0  0  0  0  0  0  0
 15 16  1  0
 16 17  2  0
 16 14  1  0
 14  1  1  0
  1  2  2  0
  2  3  1  0
  3 18  1  0
 18 19  1  0
 19 20  1  0
 20 21  2  0
 20 22  1  0
 22 23  1  0
 23 24  2  0
 24 25  1  0
 25 26  2  0
 25 27  1  0
 27 28  1  0
 27 29  1  0
 29 30  1  0
  3  4  2  0
  4  5  1  0
  5  6  2  0
  6  7  1  0
  7  8  2  0
  8  9  1  0
  9 10  2  0
  9 11  1  0
 11 12  2  0
 12 13  1  0
  6  1  1  0
 13  7  1  0
 29 22  2  0
M  CHG 1  13  -1
M  CHG 1  14  -1
M  CHG 1  19  -1
M  END
> <UniqueID>
37

> <SMILES>
CC(=O)[N-]c1cc(C[N-]C(=O)c2ccc(=O)n(C)c2C)ccc1-c1cc(=O)cc[n-]1

> <Energy>
71.37897730467337

> <Genealogy>
CC(=O)[N-]c1cc(C[N-]C(=O)c2ccc(=O)n(C)c2C)ccc1-c1cc(=O)cc[n-]1 (protonated)
CC(=O)[N-]c1cc(C[N-]C(=O)c2ccc(=O)n(C)c2C)ccc1-c1cc(=O)cc[n-]1 (3D coordinates assigned)
CC(=O)[N-]c1cc(C[N-]C(=O)c2ccc(=O)n(C)c2C)ccc1-c1cc(=O)cc[n-]1 (optimized conformer: 71.37897730467337 kcal/mol)

> <smiles>
CC(=O)Nc1cc(CNC(=O)c2ccc(=O)n(C)c2C)ccc1-c1cc(=O)cc[nH]1

> <score_type>
oracle

> <origin>
adg

> <m_score__min__energy>
-14.300000000000001

> <m_primary>
energy

> <minimizedAffinity>
-6.41084

> <minimizedRMSD>
1.15538

> <CNNscore>
0.2622830570

> <CNNaffinity>
6.6904640198

> <CNN_VS>
1.7547953129

> <CNNaffinity_variance>
0.0082576657

$$$$
53:0


 32 35  0  0  0  0  0  0  0  0999 V2000
   56.3696   28.6495   45.2115 O   0  0  0  0  0  0  0  0  0  0  0  0
   57.7038   28.8693   45.5502 C   0  0  0  0  0  0  0  0  0  0  0  0
   58.1467   30.1568   45.8858 C   0  0  0  0  0  0  0  0  0  0  0  0
   59.4937   30.3860   46.2168 C   0  0  0  0  0  0  0  0  0  0  0  0
   60.3904   29.3054   46.2190 C   0  0  0  0  0  0  0  0  0  0  0  0
   59.9513   28.0220   45.8875 C   0  0  0  0  0  0  0  0  0  0  0  0
   58.6102   27.7980   45.5506 C   0  0  0  0  0  0  0  0  0  0  0  0
   55.7627   29.3634   45.2106 H   0  0  0  0  0  0  0  0  0  0  0  0
   58.1675   26.4735   45.2099 N   0  0  0  0  0  0  0  0  0  0  0  0
   57.9027   26.0375   43.9606 C   0  0  0  0  0  0  0  0  0  0  0  0
   58.0600   26.8608   42.7174 C   0  0  0  0  0  0  0  0  0  0  0  0
   57.4144   24.7473   43.9977 C   0  0  0  0  0  0  0  0  0  0  0  0
   57.4079   24.3571   45.3278 C   0  0  0  0  0  0  0  0  0  0  0  0
   57.0538   23.1174   45.7210 C   0  0  0  0  0  0  0  0  0  0  0  0
   57.8391   25.4727   46.0659 C   0  0  0  0  0  0  0  0  0  0  0  0
   57.8244   25.6212   47.3993 C   0  0  0  0  0  0  0  0  0  0  0  0
   55.7788   22.7506   46.3552 C   0  0  0  0  0  0  0  0  0  0  0  0
   55.5190   21.5563   46.9206 N   0  0  0  0  0  0  0  0  0  0  0  0
   54.2064   21.6374   47.2286 C   0  0  0  0  0  0  0  0  0  0  0  0
   53.5859   20.7016   47.7982 O   0  0  0  0  0  0  0  0  0  0  0  0
   53.6085   22.7936   46.8684 N   0  0  0  0  0  0  0  0  0  0  0  0
   54.6156   23.4790   46.3030 C   0  0  0  0  0  0  0  0  0  0  0  0
   54.4707   24.7423   45.7454 O   0  0  0  0  0  0  0  0  0  0  0  0
   59.9455   31.7087   46.5597 N   0  0  0  0  0  0  0  0  0  0  0  0
   59.1390   32.8887   46.2206 C   0  0  0  0  0  0  0  0  0  0  0  0
   58.8708   33.7055   47.4904 C   0  0  0  0  0  0  0  0  0  0  0  0
   60.1482   33.9935   48.3517 C   0  0  0  0  0  0  0  0  0  0  0  0
   61.4108   33.3504   47.6978 C   0  0  0  0  0  0  0  0  0  0  0  0
   61.1792   31.8769   47.3418 C   0  0  0  0  0  0  0  0  0  0  0  0
   59.9114   33.5615   49.7648 N   0  0  0  0  0  0  0  0  0  0  0  0
   61.2007   33.3361   50.4555 C   0  0  0  0  0  0  0  0  0  0  0  0
   59.1126   32.3254   49.8784 C   0  0  0  0  0  0  0  0  0  0  0  0
  1  2  1  0
  2  3  2  0
  3  4  1  0
  4 24  1  0
 24 25  1  0
 25 26  1  0
 26 27  1  0
 27 30  1  0
 30 31  1  0
 30 32  1  0
 27 28  1  0
 28 29  1  0
  4  5  2  0
  5  6  1  0
  6  7  2  0
  7  9  1  0
  9 10  1  0
 10 11  1  0
 10 12  2  0
 12 13  1  0
 13 14  2  0
 14 17  1  0
 17 18  1  0
 18 19  1  0
 19 20  2  0
 19 21  1  0
 21 22  1  0
 22 23  1  0
 13 15  1  0
 15 16  2  0
  7  2  1  0
 15  9  1  0
 29 24  1  0
 22 17  2  0
  1  8  1  0
M  CHG 1  18  -1
M  CHG 1  21  -1
M  CHG 1  23  -1
M  END
> <UniqueID>
48

> <SMILES>
C=c1/c(=C\c2[n-]c(=O)[n-]c2[O-])cc(C)n1-c1ccc(N2CCC(N(C)C)CC2)cc1O

> <Energy>
148.95582990020225

> <Genealogy>
C=c1c(=Cc2[n-]c(=O)[n-]c2[O-])cc(C)n1-c1ccc(N2CCC(N(C)C)CC2)cc1O (protonated)
C=c1/c(=C\c2[n-]c(=O)[n-]c2[O-])cc(C)n1-c1ccc(N2CCC(N(C)C)CC2)cc1O (cis-trans isomerization)
C=c1/c(=C\c2[n-]c(=O)[n-]c2[O-])cc(C)n1-c1ccc(N2CCC(N(C)C)CC2)cc1O (3D coordinates assigned)
C=c1/c(=C\c2[n-]c(=O)[n-]c2[O-])cc(C)n1-c1ccc(N2CCC(N(C)C)CC2)cc1O (nonaromatic ring conformer: 148.95582990020225 kcal/mol)

> <smiles>
C=c1c(=Cc2[nH]c(=O)[nH]c2O)cc(C)n1-c1ccc(N2CCC(N(C)C)CC2)cc1O

> <score_type>
oracle

> <origin>
adg

> <m_score__min__energy>
-15.529999999999999

> <m_primary>
energy

> <minimizedAffinity>
-8.67899

> <minimizedRMSD>
1.33918

> <CNNscore>
0.1152963713

> <CNNaffinity>
6.3510322571

> <CNN_VS>
0.7322509885

> <CNNaffinity_variance>
0.0483127944

$$$$
56:0


 35 38  0  0  0  0  0  0  0  0999 V2000
   58.9670   27.3629   46.0475 C   0  0  0  0  0  0  0  0  0  0  0  0
   58.6795   27.9190   47.3020 C   0  0  0  0  0  0  0  0  0  0  0  0
   59.3703   29.0483   47.7488 C   0  0  0  0  0  0  0  0  0  0  0  0
   60.3512   29.6428   46.9406 C   0  0  0  0  0  0  0  0  0  0  0  0
   60.6418   29.0849   45.6852 C   0  0  0  0  0  0  0  0  0  0  0  0
   59.9543   27.9499   45.2436 C   0  0  0  0  0  0  0  0  0  0  0  0
   58.2856   24.9110   47.5772 C   0  0  0  0  0  0  0  0  0  0  0  0
   57.8601   25.1320   46.3237 C   0  0  0  0  0  0  0  0  0  0  0  0
   57.1413   24.2423   45.5083 C   0  0  0  0  0  0  0  0  0  0  0  0
   56.4907   23.1015   45.8076 C   0  0  0  0  0  0  0  0  0  0  0  0
   57.1746   24.7749   44.2305 C   0  0  0  0  0  0  0  0  0  0  0  0
   57.8250   25.9868   44.3187 C   0  0  0  0  0  0  0  0  0  0  0  0
   58.0493   26.9151   43.1629 C   0  0  0  0  0  0  0  0  0  0  0  0
   58.2421   26.2066   45.5861 N   0  0  0  0  0  0  0  0  0  0  0  0
   55.0327   22.9020   45.7351 C   0  0  0  0  0  0  0  0  0  0  0  0
   54.4187   21.7056   45.7872 N   0  0  0  0  0  0  0  0  0  0  0  0
   53.1080   22.0301   45.8336 C   0  0  0  0  0  0  0  0  0  0  0  0
   52.1970   21.1632   45.8753 O   0  0  0  0  0  0  0  0  0  0  0  0
   52.8521   23.3546   45.8445 N   0  0  0  0  0  0  0  0  0  0  0  0
   54.0827   23.8917   45.7961 C   0  0  0  0  0  0  0  0  0  0  0  0
   54.3312   25.2576   45.8166 O   0  0  0  0  0  0  0  0  0  0  0  0
   61.0938   30.8564   47.4295 C   0  0  0  0  0  0  0  0  0  0  0  0
   60.7584   31.1410   48.8246 N   0  0  0  0  0  0  0  0  0  0  0  0
   61.4400   32.6588   49.3362 S   0  0  0  0  0  0  0  0  0  0  0  0
   62.7203   32.9324   48.5969 O   0  0  0  0  0  0  0  0  0  0  0  0
   61.7145   32.6270   50.8144 O   0  0  0  0  0  0  0  0  0  0  0  0
   60.2785   33.9729   48.9977 C   0  0  0  0  0  0  0  0  0  0  0  0
   60.2732   34.3242   47.5048 C   0  0  0  0  0  0  0  0  0  0  0  0
   58.8925   34.3758   46.9684 N   0  0  0  0  0  0  0  0  0  0  0  0
   58.0730   33.2485   47.4819 C   0  0  0  0  0  0  0  0  0  0  0  0
   58.0397   32.0714   46.4964 C   0  0  0  0  0  0  0  0  0  0  0  0
   57.4150   32.4603   45.2113 N   0  0  0  0  0  0  0  0  0  0  0  0
   57.8785   31.5803   44.1256 C   0  0  0  0  0  0  0  0  0  0  0  0
   57.6057   33.8919   44.8678 C   0  0  0  0  0  0  0  0  0  0  0  0
   58.8893   34.4702   45.4848 C   0  0  0  0  0  0  0  0  0  0  0  0
  7  8  2  0
  8  9  1  0
  9 10  2  0
 10 15  1  0
 15 16  1  0
 16 17  1  0
 17 18  2  0
 17 19  1  0
 19 20  1  0
 20 21  1  0
  9 11  1  0
 11 12  2  0
 12 13  1  0
 12 14  1  0
 14  1  1  0
  1  2  2  0
  2  3  1  0
  3  4  2  0
  4 22  1  0
 22 23  1  0
 23 24  1  0
 24 25  2  0
 24 26  2  0
 24 27  1  0
 27 28  1  0
 28 29  1  0
 29 30  1  0
 30 31  1  0
 31 32  1  0
 32 33  1  0
 32 34  1  0
 34 35  1  0
  4  5  1  0
  5  6  2  0
 14  8  1  0
  6  1  1  0
 20 15  2  0
 35 29  1  0
M  CHG 1  16  -1
M  CHG 1  19  -1
M  CHG 1  21  -1
M  CHG 1  23  -1
M  END
> <UniqueID>
51

> <SMILES>
C=c1/c(=C\c2[n-]c(=O)[n-]c2[O-])cc(C)n1-c1ccc(C[N-]S(=O)(=O)CCN2CCN(C)CC2)cc1

> <Energy>
145.86192201233246

> <Genealogy>
C=c1c(=Cc2[n-]c(=O)[n-]c2[O-])cc(C)n1-c1ccc(C[N-]S(=O)(=O)CCN2CCN(C)CC2)cc1 (protonated)
C=c1/c(=C\c2[n-]c(=O)[n-]c2[O-])cc(C)n1-c1ccc(C[N-]S(=O)(=O)CCN2CCN(C)CC2)cc1 (cis-trans isomerization)
C=c1/c(=C\c2[n-]c(=O)[n-]c2[O-])cc(C)n1-c1ccc(C[N-]S(=O)(=O)CCN2CCN(C)CC2)cc1 (3D coordinates assigned)
C=c1/c(=C\c2[n-]c(=O)[n-]c2[O-])cc(C)n1-c1ccc(C[N-]S(=O)(=O)CCN2CCN(C)CC2)cc1 (nonaromatic ring conformer: 145.86192201233246 kcal/mol)

> <smiles>
C=c1c(=Cc2[nH]c(=O)[nH]c2O)cc(C)n1-c1ccc(CNS(=O)(=O)CCN2CCN(C)CC2)cc1

> <score_type>
oracle

> <origin>
adg

> <m_score__min__energy>
-17.710000000000001

> <m_primary>
energy

> <minimizedAffinity>
-7.33831

> <minimizedRMSD>
1.05813

> <CNNscore>
0.0842099339

> <CNNaffinity>
6.3353819847

> <CNN_VS>
0.5335021019

> <CNNaffinity_variance>
0.4135388434

$$$$
61:0


 27 29  0  0  0  0  0  0  0  0999 V2000
   58.1499   29.8843   45.3576 C   0  0  0  0  0  0  0  0  0  0  0  0
   57.0529   30.6446   44.9293 C   0  0  0  0  0  0  0  0  0  0  0  0
   55.9904   30.0529   44.2565 O   0  0  0  0  0  0  0  0  0  0  0  0
   57.0071   31.9709   45.1904 N   0  0  0  0  0  0  0  0  0  0  0  0
   58.0010   32.6008   45.8614 C   0  0  0  0  0  0  0  0  0  0  0  0
   57.8896   33.8363   46.0884 O   0  0  0  0  0  0  0  0  0  0  0  0
   59.1043   31.9019   46.2846 N   0  0  0  0  0  0  0  0  0  0  0  0
   59.1925   30.5555   46.0290 C   0  0  0  0  0  0  0  0  0  0  0  0
   60.2208   29.9140   46.3841 O   0  0  0  0  0  0  0  0  0  0  0  0
   58.9911   27.9434   44.2643 O   0  0  0  0  0  0  0  0  0  0  0  0
   58.1949   28.4150   45.1195 C   0  0  0  0  0  0  0  0  0  0  0  0
   57.4142   27.5050   45.9061 N   0  0  0  0  0  0  0  0  0  0  0  0
   57.4387   26.1998   45.8944 C   0  0  0  0  0  0  0  0  0  0  0  0
   58.6460   25.5925   45.7295 N   0  0  0  0  0  0  0  0  0  0  0  0
   58.7920   24.2411   45.7207 C   0  0  0  0  0  0  0  0  0  0  0  0
   57.6795   23.4182   45.8816 C   0  0  0  0  0  0  0  0  0  0  0  0
   56.4217   23.9969   46.0248 C   0  0  0  0  0  0  0  0  0  0  0  0
   56.2810   25.3892   46.0191 C   0  0  0  0  0  0  0  0  0  0  0  0
   55.0001   25.9229   46.0910 O   0  0  0  0  0  0  0  0  0  0  0  0
   60.1769   32.5820   47.0457 C   0  0  0  0  0  0  0  0  0  0  0  0
   59.8727   32.5982   48.5522 C   0  0  0  0  0  0  0  0  0  0  0  0
   61.1339   32.5673   49.3815 C   0  0  0  0  0  0  0  0  0  0  0  0
   61.3318   33.4584   50.3681 C   0  0  0  0  0  0  0  0  0  0  0  0
   62.6105   33.4119   51.1578 C   0  0  0  0  0  0  0  0  0  0  0  0
   63.8187   33.2529   50.2167 C   0  0  0  0  0  0  0  0  0  0  0  0
   63.6009   32.2114   49.0859 C   0  0  0  0  0  0  0  0  0  0  0  0
   62.2125   31.5458   49.1078 C   0  0  0  0  0  0  0  0  0  0  0  0
 10 11  2  0
 11 12  1  0
 12 13  2  0
 13 14  1  0
 14 15  1  0
 15 16  2  0
 16 17  1  0
 17 18  2  0
 18 19  1  0
 11  1  1  0
  1  2  2  0
  2  3  1  0
  2  4  1  0
  4  5  1  0
  5  6  2  0
  5  7  1  0
  7 20  1  0
 20 21  1  0
 21 22  1  0
 22 23  2  0
 23 24  1  0
 24 25  1  0
 25 26  1  0
 26 27  1  0
  7  8  1  0
  8  9  2  0
 18 13  1  0
  8  1  1  0
 27 22  1  0
M  CHG 1   3  -1
M  CHG 1   4  -1
M  CHG 1  14  -1
M  CHG 1  19  -1
M  END
> <UniqueID>
55

> <SMILES>
O=C(N=c1[n-]cccc1[O-])c1c([O-])[n-]c(=O)n(CCC2=CCCCC2)c1=O

> <Energy>
62.07631619885992

> <Genealogy>
O=C(N=c1[n-]cccc1[O-])c1c([O-])[n-]c(=O)n(CCC2=CCCCC2)c1=O (protonated)
O=C(N=c1[n-]cccc1[O-])c1c([O-])[n-]c(=O)n(CCC2=CCCCC2)c1=O (3D coordinates assigned)
O=C(N=c1[n-]cccc1[O-])c1c([O-])[n-]c(=O)n(CCC2=CCCCC2)c1=O (nonaromatic ring conformer: 62.07631619885992 kcal/mol)

> <smiles>
O=C(N=c1[nH]cccc1O)c1c(O)[nH]c(=O)n(CCC2=CCCCC2)c1=O

> <score_type>
oracle

> <origin>
adg

> <m_score__min__energy>
-18.059999999999999

> <m_primary>
energy

> <minimizedAffinity>
-8.18649

> <minimizedRMSD>
1.50620

> <CNNscore>
0.3425534964

> <CNNaffinity>
6.4273114204

> <CNN_VS>
2.2016980648

> <CNNaffinity_variance>
0.1495538801

$$$$
62:0


 26 30  0  0  0  0  0  0  0  0999 V2000
   55.3220   30.8381   52.3012 C   0  0  0  0  0  0  0  0  0  0  0  0
   56.4839   30.7787   52.8776 N   0  0  0  0  0  0  0  0  0  0  0  0
   56.3241   30.1073   54.0988 N   0  0  0  0  0  0  0  0  0  0  0  0
   57.1439   29.1907   54.6656 C   0  0  0  0  0  0  0  0  0  0  0  0
   58.4425   29.2630   54.8122 N   0  0  0  0  0  0  0  0  0  0  0  0
   56.4397   28.1391   55.1473 N   0  0  0  0  0  0  0  0  0  0  0  0
   55.1618   28.4584   54.8342 C   0  0  0  0  0  0  0  0  0  0  0  0
   55.0949   29.6760   54.2492 N   0  0  0  0  0  0  0  0  0  0  0  0
   54.3380   30.1639   53.1483 C   0  0  0  0  0  0  0  0  0  0  0  0
   53.0080   30.1928   53.0004 C   0  0  0  0  0  0  0  0  0  0  0  0
   52.3174   30.4343   51.7224 C   0  0  0  0  0  0  0  0  0  0  0  0
   52.4015   29.6005   50.6717 N   0  0  0  0  0  0  0  0  0  0  0  0
   51.6725   30.2196   49.7187 C   0  0  0  0  0  0  0  0  0  0  0  0
   51.4985   29.7293   48.5724 O   0  0  0  0  0  0  0  0  0  0  0  0
   51.1487   31.4074   50.0883 N   0  0  0  0  0  0  0  0  0  0  0  0
   51.5733   31.5362   51.3555 C   0  0  0  0  0  0  0  0  0  0  0  0
   51.3153   32.6521   52.1413 O   0  0  0  0  0  0  0  0  0  0  0  0
   54.0794   27.4662   54.8803 C   0  0  0  0  0  0  0  0  0  0  0  0
   53.9655   26.5113   53.8586 C   0  0  0  0  0  0  0  0  0  0  0  0
   52.9368   25.5649   53.8953 C   0  0  0  0  0  0  0  0  0  0  0  0
   52.0079   25.5783   54.9392 C   0  0  0  0  0  0  0  0  0  0  0  0
   52.0998   26.5452   55.9449 C   0  0  0  0  0  0  0  0  0  0  0  0
   53.1275   27.4925   55.9132 C   0  0  0  0  0  0  0  0  0  0  0  0
   59.6168   29.3332   53.9244 C   0  0  0  0  0  0  0  0  0  0  0  0
   59.8074   30.5579   53.0508 C   0  0  0  0  0  0  0  0  0  0  0  0
   59.3250   29.2374   52.4413 C   0  0  0  0  0  0  0  0  0  0  0  0
  1  2  2  0
  2  3  1  0
  3  4  1  0
  4  5  2  0
  5 24  1  0
 24 25  1  0
 25 26  1  0
  4  6  1  0
  6  7  2  0
  7 18  1  0
 18 19  2  0
 19 20  1  0
 20 21  2  0
 21 22  1  0
 22 23  2  0
  7  8  1  0
  8  9  1  0
  9 10  2  0
 10 11  1  0
 11 12  1  0
 12 13  1  0
 13 14  2  0
 13 15  1  0
 15 16  1  0
 16 17  1  0
  9  1  1  0
 16 11  2  0
  8  3  1  0
 26 24  1  0
 23 18  1  0
M  CHG 1  12  -1
M  CHG 1  15  -1
M  CHG 1  17  -1
M  END
> <UniqueID>
56

> <SMILES>
O=c1[n-]c([O-])c(/C=C2/C=Nn3/c(=N\C4CC4)nc(-c4ccccc4)n32)[n-]1

> <Energy>
458.8462390409439

> <Genealogy>
O=c1[n-]c([O-])c(C=C2C=Nn3c(=NC4CC4)nc(-c4ccccc4)n32)[n-]1 (protonated)
O=c1[n-]c([O-])c(/C=C2/C=Nn3/c(=N\C4CC4)nc(-c4ccccc4)n32)[n-]1 (cis-trans isomerization)
O=c1[n-]c([O-])c(/C=C2/C=Nn3/c(=N\C4CC4)nc(-c4ccccc4)n32)[n-]1 (3D coordinates assigned)
O=c1[n-]c([O-])c(/C=C2/C=Nn3/c(=N\C4CC4)nc(-c4ccccc4)n32)[n-]1 (nonaromatic ring conformer: 458.8462390409439 kcal/mol)

> <smiles>
O=c1[nH]c(O)c(C=C2C=Nn3c(=NC4CC4)nc(-c4ccccc4)n32)[nH]1

> <score_type>
oracle

> <origin>
adg

> <m_score__min__energy>
-15.27

> <m_primary>
energy

> <minimizedAffinity>
-3.86021

> <minimizedRMSD>
1.22653

> <CNNscore>
0.0728809610

> <CNNaffinity>
4.3818874359

> <CNN_VS>
0.3193561733

> <CNNaffinity_variance>
0.1750785559

$$$$
63:0


 24 26  0  0  0  0  0  0  0  0999 V2000
   54.4652   29.4746   55.3739 C   0  0  0  0  0  0  0  0  0  0  0  0
   54.9753   29.9123   54.2126 C   0  0  0  0  0  0  0  0  0  0  0  0
   54.2581   30.1079   53.0274 C   0  0  0  0  0  0  0  0  0  0  0  0
   52.9473   29.8747   52.8124 C   0  0  0  0  0  0  0  0  0  0  0  0
   55.1451   30.6720   52.1245 C   0  0  0  0  0  0  0  0  0  0  0  0
   56.3573   30.7807   52.7747 C   0  0  0  0  0  0  0  0  0  0  0  0
   57.5622   31.4569   52.1874 C   0  0  0  0  0  0  0  0  0  0  0  0
   56.2734   30.2836   54.0337 N   0  0  0  0  0  0  0  0  0  0  0  0
   52.2243   30.2876   51.5964 C   0  0  0  0  0  0  0  0  0  0  0  0
   52.2019   29.5573   50.4684 N   0  0  0  0  0  0  0  0  0  0  0  0
   51.5136   30.3341   49.6032 C   0  0  0  0  0  0  0  0  0  0  0  0
   51.2697   29.9788   48.4208 O   0  0  0  0  0  0  0  0  0  0  0  0
   51.1194   31.5245   50.1017 N   0  0  0  0  0  0  0  0  0  0  0  0
   51.5860   31.4853   51.3611 C   0  0  0  0  0  0  0  0  0  0  0  0
   51.4724   32.5445   52.2536 O   0  0  0  0  0  0  0  0  0  0  0  0
   57.3679   30.2626   55.0228 C   0  0  0  0  0  0  0  0  0  0  0  0
   58.5170   29.3544   54.6080 C   0  0  0  0  0  0  0  0  0  0  0  0
   58.2577   27.9872   54.3641 C   0  0  0  0  0  0  0  0  0  0  0  0
   57.0034   27.4817   54.4903 F   0  0  0  0  0  0  0  0  0  0  0  0
   59.2831   27.1258   53.9717 C   0  0  0  0  0  0  0  0  0  0  0  0
   60.5827   27.6010   53.8309 C   0  0  0  0  0  0  0  0  0  0  0  0
   60.8699   28.9396   54.0970 C   0  0  0  0  0  0  0  0  0  0  0  0
   59.8567   29.8228   54.5072 C   0  0  0  0  0  0  0  0  0  0  0  0
   60.2325   31.2475   54.8144 C   0  0  0  0  0  0  0  0  0  0  0  0
  1  2  2  0
  2  3  1  0
  3  4  2  0
  4  9  1  0
  9 10  1  0
 10 11  1  0
 11 12  2  0
 11 13  1  0
 13 14  1  0
 14 15  1  0
  3  5  1  0
  5  6  2  0
  6  7  1  0
  6  8  1  0
  8 16  1  0
 16 17  1  0
 17 18  2  0
 18 19  1  0
 18 20  1  0
 20 21  2  0
 21 22  1  0
 22 23  2  0
 23 24  1  0
  8  2  1  0
 23 17  1  0
 14  9  2  0
M  CHG 1  10  -1
M  CHG 1  13  -1
M  CHG 1  15  -1
M  END
> <UniqueID>
57

> <SMILES>
C=c1/c(=C/c2[n-]c(=O)[n-]c2[O-])cc(C)n1Cc1c(C)cccc1F

> <Energy>
109.0601437889244

> <Genealogy>
C=c1c(=Cc2[n-]c(=O)[n-]c2[O-])cc(C)n1Cc1c(C)cccc1F (protonated)
C=c1/c(=C/c2[n-]c(=O)[n-]c2[O-])cc(C)n1Cc1c(C)cccc1F (cis-trans isomerization)
C=c1/c(=C/c2[n-]c(=O)[n-]c2[O-])cc(C)n1Cc1c(C)cccc1F (3D coordinates assigned)
C=c1/c(=C/c2[n-]c(=O)[n-]c2[O-])cc(C)n1Cc1c(C)cccc1F (optimized conformer: 109.0601437889244 kcal/mol)

> <smiles>
C=c1c(=Cc2[nH]c(=O)[nH]c2O)cc(C)n1Cc1c(C)cccc1F

> <score_type>
oracle

> <origin>
adg

> <m_score__min__energy>
-15.52

> <m_primary>
energy

> <minimizedAffinity>
-3.89748

> <minimizedRMSD>
0.94110

> <CNNscore>
0.1081390083

> <CNNaffinity>
4.1394653320

> <CNN_VS>
0.4476376772

> <CNNaffinity_variance>
0.6396710873

$$$$
68:0


 26 28  0  0  0  0  0  0  0  0999 V2000
   60.0973   27.6979   48.1752 C   0  0  0  0  0  0  0  0  0  0  0  0
   59.7587   27.7765   46.8780 C   0  0  0  0  0  0  0  0  0  0  0  0
   59.1751   26.7722   46.0863 C   0  0  0  0  0  0  0  0  0  0  0  0
   58.9708   25.4602   46.3255 C   0  0  0  0  0  0  0  0  0  0  0  0
   58.8218   27.4255   44.9104 C   0  0  0  0  0  0  0  0  0  0  0  0
   58.1486   26.8283   43.7133 C   0  0  0  0  0  0  0  0  0  0  0  0
   59.2169   28.7076   44.9799 N   0  0  0  0  0  0  0  0  0  0  0  0
   59.8072   28.9226   46.1469 N   0  0  0  0  0  0  0  0  0  0  0  0
   59.0881   29.3819   44.2742 H   0  0  0  0  0  0  0  0  0  0  0  0
   57.7567   24.7037   45.9625 C   0  0  0  0  0  0  0  0  0  0  0  0
   56.4732   25.2118   46.2281 C   0  0  0  0  0  0  0  0  0  0  0  0
   56.3108   26.4627   46.8127 O   0  0  0  0  0  0  0  0  0  0  0  0
   55.3759   24.4727   45.9202 N   0  0  0  0  0  0  0  0  0  0  0  0
   55.4944   23.2363   45.3724 C   0  0  0  0  0  0  0  0  0  0  0  0
   54.4629   22.5716   45.0925 O   0  0  0  0  0  0  0  0  0  0  0  0
   56.7231   22.7126   45.1333 N   0  0  0  0  0  0  0  0  0  0  0  0
   57.8516   23.4103   45.4234 C   0  0  0  0  0  0  0  0  0  0  0  0
   58.9767   22.8919   45.1939 O   0  0  0  0  0  0  0  0  0  0  0  0
   60.2962   30.2426   46.5775 C   0  0  0  0  0  0  0  0  0  0  0  0
   59.2806   31.3239   46.2899 C   0  0  0  0  0  0  0  0  0  0  0  0
   58.5364   31.2779   45.0968 C   0  0  0  0  0  0  0  0  0  0  0  0
   57.6089   32.2797   44.8041 C   0  0  0  0  0  0  0  0  0  0  0  0
   57.4172   33.3391   45.6927 C   0  0  0  0  0  0  0  0  0  0  0  0
   58.1536   33.4005   46.8770 C   0  0  0  0  0  0  0  0  0  0  0  0
   59.0871   32.4011   47.1812 C   0  0  0  0  0  0  0  0  0  0  0  0
   60.0004   32.5340   48.6812 Cl  0  0  0  0  0  0  0  0  0  0  0  0
  1  2  2  0
  2  3  1  0
  3  4  2  0
  4 10  1  0
 10 11  2  0
 11 12  1  0
 11 13  1  0
 13 14  1  0
 14 15  2  0
 14 16  1  0
 16 17  1  0
 17 18  2  0
  3  5  1  0
  5  6  1  0
  5  7  2  0
  7  8  1  0
  8 19  1  0
 19 20  1  0
 20 21  2  0
 21 22  1  0
 22 23  2  0
 23 24  1  0
 24 25  2  0
 25 26  1  0
  8  2  1  0
 25 20  1  0
 17 10  1  0
  7  9  1  0
M  CHG 1   7   1
M  CHG 1  12  -1
M  CHG 1  13  -1
M  CHG 1  16  -1
M  END
> <UniqueID>
62

> <SMILES>
C=c1/c(=C\c2c([O-])[n-]c(=O)[n-]c2=O)c(C)[nH+]n1Cc1ccccc1Cl

> <Energy>
89.08478490022806

> <Genealogy>
C=c1c(=Cc2c([O-])[n-]c(=O)[n-]c2=O)c(C)[nH+]n1Cc1ccccc1Cl (protonated)
C=c1/c(=C\c2c([O-])[n-]c(=O)[n-]c2=O)c(C)[nH+]n1Cc1ccccc1Cl (cis-trans isomerization)
C=c1/c(=C\c2c([O-])[n-]c(=O)[n-]c2=O)c(C)[nH+]n1Cc1ccccc1Cl (3D coordinates assigned)
C=c1/c(=C\c2c([O-])[n-]c(=O)[n-]c2=O)c(C)[nH+]n1Cc1ccccc1Cl (optimized conformer: 89.08478490022806 kcal/mol)

> <smiles>
C=c1c(=Cc2c(O)[nH]c(=O)[nH]c2=O)c(C)nn1Cc1ccccc1Cl

> <score_type>
oracle

> <origin>
adg

> <m_score__min__energy>
-14.369999999999999

> <m_primary>
energy

> <minimizedAffinity>
-8.26745

> <minimizedRMSD>
1.35156

> <CNNscore>
0.3021131456

> <CNNaffinity>
6.5852942467

> <CNN_VS>
1.9895039797

> <CNNaffinity_variance>
0.2566982806

$$$$
74:0


 27 29  0  0  0  0  0  0  0  0999 V2000
   58.7567   31.7797   45.6605 C   0  0  0  0  0  0  0  0  0  0  0  0
   57.9887   32.7081   44.9350 C   0  0  0  0  0  0  0  0  0  0  0  0
   58.2510   34.0761   45.0276 C   0  0  0  0  0  0  0  0  0  0  0  0
   59.2839   34.5338   45.8443 C   0  0  0  0  0  0  0  0  0  0  0  0
   60.0595   33.6250   46.5687 C   0  0  0  0  0  0  0  0  0  0  0  0
   59.8121   32.2424   46.4808 C   0  0  0  0  0  0  0  0  0  0  0  0
   56.2808   30.5928   44.8014 O   0  0  0  0  0  0  0  0  0  0  0  0
   57.2887   29.8496   44.9512 C   0  0  0  0  0  0  0  0  0  0  0  0
   58.4995   30.3715   45.5195 N   0  0  0  0  0  0  0  0  0  0  0  0
   59.1856   29.7359   45.8270 H   0  0  0  0  0  0  0  0  0  0  0  0
   57.2273   28.4223   44.4986 C   0  0  0  0  0  0  0  0  0  0  0  0
   57.9983   27.5602   45.4471 C   0  0  0  0  0  0  0  0  0  0  0  0
   59.3360   27.5976   45.5882 N   0  0  0  0  0  0  0  0  0  0  0  0
   59.5859   26.5926   46.4600 C   0  0  0  0  0  0  0  0  0  0  0  0
   60.7492   26.3076   46.8506 O   0  0  0  0  0  0  0  0  0  0  0  0
   58.4936   25.9121   46.8676 N   0  0  0  0  0  0  0  0  0  0  0  0
   57.4978   26.5310   46.2096 C   0  0  0  0  0  0  0  0  0  0  0  0
   56.1647   26.1409   46.2849 O   0  0  0  0  0  0  0  0  0  0  0  0
   60.6459   31.2891   47.3107 C   0  0  0  0  0  0  0  0  0  0  0  0
   60.2782   31.3241   48.7788 C   0  0  0  0  0  0  0  0  0  0  0  0
   59.2434   30.7107   49.1699 O   0  0  0  0  0  0  0  0  0  0  0  0
   61.0634   32.0811   49.7322 N   0  0  0  0  0  0  0  0  0  0  0  0
   60.8706   31.8370   51.1710 C   0  0  0  0  0  0  0  0  0  0  0  0
   61.3204   33.0500   51.9897 C   0  0  0  0  0  0  0  0  0  0  0  0
   62.6295   33.4433   51.6235 O   0  0  0  0  0  0  0  0  0  0  0  0
   62.6180   33.9211   50.2946 C   0  0  0  0  0  0  0  0  0  0  0  0
   62.2759   32.7969   49.3083 C   0  0  0  0  0  0  0  0  0  0  0  0
  7  8  2  0
  8 11  1  0
 11 12  1  0
 12 13  1  0
 13 14  1  0
 14 15  2  0
 14 16  1  0
 16 17  1  0
 17 18  1  0
  8  9  1  0
  9  1  1  0
  1  2  2  0
  2  3  1  0
  3  4  2  0
  4  5  1  0
  5  6  2  0
  6 19  1  0
 19 20  1  0
 20 21  2  0
 20 22  1  0
 22 23  1  0
 23 24  1  0
 24 25  1  0
 25 26  1  0
 26 27  1  0
 17 12  2  0
  6  1  1  0
 27 22  1  0
  9 10  1  0
M  CHG 1  13  -1
M  CHG 1  16  -1
M  CHG 1  18  -1
M  END
> <UniqueID>
68

> <SMILES>
O=C(Cc1[n-]c(=O)[n-]c1[O-])Nc1ccccc1CC(=O)N1CCOCC1

> <Energy>
78.0034123680597

> <Genealogy>
O=C(Cc1[n-]c(=O)[n-]c1[O-])Nc1ccccc1CC(=O)N1CCOCC1 (protonated)
O=C(Cc1[n-]c(=O)[n-]c1[O-])Nc1ccccc1CC(=O)N1CCOCC1 (3D coordinates assigned)
O=C(Cc1[n-]c(=O)[n-]c1[O-])Nc1ccccc1CC(=O)N1CCOCC1 (nonaromatic ring conformer: 78.0034123680597 kcal/mol)

> <smiles>
O=C(Cc1[nH]c(=O)[nH]c1O)Nc1ccccc1CC(=O)N1CCOCC1

> <score_type>
oracle

> <origin>
adg

> <m_score__min__energy>
-15.93

> <m_primary>
energy

> <minimizedAffinity>
-7.85577

> <minimizedRMSD>
1.61908

> <CNNscore>
0.4183738530

> <CNNaffinity>
6.2256112099

> <CNN_VS>
2.6046328545

> <CNNaffinity_variance>
0.2459498644

$$$$
75:0


 34 37  0  0  0  0  0  0  0  0999 V2000
   58.8675   27.8812   46.2628 C   0  0  0  0  0  0  0  0  0  0  0  0
   58.1763   28.2737   45.1020 C   0  0  0  0  0  0  0  0  0  0  0  0
   58.0907   29.5822   44.7515 N   0  0  0  0  0  0  0  0  0  0  0  0
   58.6520   30.5738   45.4868 C   0  0  0  0  0  0  0  0  0  0  0  0
   58.5281   31.7998   45.0672 N   0  0  0  0  0  0  0  0  0  0  0  0
   59.3477   30.2392   46.6612 C   0  0  0  0  0  0  0  0  0  0  0  0
   59.4824   28.8940   47.0467 C   0  0  0  0  0  0  0  0  0  0  0  0
   60.2917   28.5815   48.2823 C   0  0  0  0  0  0  0  0  0  0  0  0
   58.4119   33.2310   46.0478 S   0  0  0  0  0  0  0  0  0  0  0  0
   58.3413   34.4403   45.1563 O   0  0  0  0  0  0  0  0  0  0  0  0
   57.1556   33.1612   46.8672 O   0  0  0  0  0  0  0  0  0  0  0  0
   59.7933   33.3309   47.1341 C   0  0  0  0  0  0  0  0  0  0  0  0
   61.0870   33.3961   46.6133 C   0  0  0  0  0  0  0  0  0  0  0  0
   62.1933   33.4425   47.4663 C   0  0  0  0  0  0  0  0  0  0  0  0
   62.0342   33.4203   48.8729 C   0  0  0  0  0  0  0  0  0  0  0  0
   60.7110   33.3768   49.3786 C   0  0  0  0  0  0  0  0  0  0  0  0
   59.6103   33.3277   48.5182 C   0  0  0  0  0  0  0  0  0  0  0  0
   63.1894   33.4445   49.7708 N   0  0  0  0  0  0  0  0  0  0  0  0
   64.4062   32.6921   49.3908 C   0  0  0  0  0  0  0  0  0  0  0  0
   65.5948   32.8624   50.3459 C   0  0  0  0  0  0  0  0  0  0  0  0
   65.1916   32.9751   51.7518 N   0  0  0  0  0  0  0  0  0  0  0  0
   64.5820   31.7420   52.2754 C   0  0  0  0  0  0  0  0  0  0  0  0
   64.3398   34.1541   51.9275 C   0  0  0  0  0  0  0  0  0  0  0  0
   63.0539   34.1046   51.0900 C   0  0  0  0  0  0  0  0  0  0  0  0
   58.9239   26.4313   46.5984 C   0  0  0  0  0  0  0  0  0  0  0  0
   59.9755   25.7782   46.3503 O   0  0  0  0  0  0  0  0  0  0  0  0
   57.2295   22.4829   45.7337 C   0  0  0  0  0  0  0  0  0  0  0  0
   57.7949   23.5805   46.3016 N   0  0  0  0  0  0  0  0  0  0  0  0
   57.1130   24.7474   46.4866 C   0  0  0  0  0  0  0  0  0  0  0  0
   57.7527   25.7356   47.0513 N   0  0  0  0  0  0  0  0  0  0  0  0
   55.7714   24.8345   46.0219 C   0  0  0  0  0  0  0  0  0  0  0  0
   55.0409   26.0199   46.0541 O   0  0  0  0  0  0  0  0  0  0  0  0
   55.1727   23.7021   45.4572 C   0  0  0  0  0  0  0  0  0  0  0  0
   55.8996   22.5197   45.3139 C   0  0  0  0  0  0  0  0  0  0  0  0
 27 28  1  0
 28 29  1  0
 29 30  2  0
 30 25  1  0
 25 26  2  0
 25  1  1  0
  1  2  2  0
  2  3  1  0
  3  4  1  0
  4  5  2  0
  5  9  1  0
  9 10  2  0
  9 11  2  0
  9 12  1  0
 12 13  2  0
 13 14  1  0
 14 15  2  0
 15 18  1  0
 18 19  1  0
 19 20  1  0
 20 21  1  0
 21 22  1  0
 21 23  1  0
 23 24  1  0
 15 16  1  0
 16 17  2  0
  4  6  1  0
  6  7  2  0
  7  8  1  0
 29 31  1  0
 31 32  1  0
 31 33  2  0
 33 34  1  0
 34 27  2  0
  7  1  1  0
 17 12  1  0
 24 18  1  0
M  CHG 1   3  -1
M  CHG 1  28  -1
M  CHG 1  32  -1
M  END
> <UniqueID>
69

> <SMILES>
Cc1cc(=NS(=O)(=O)c2ccc(N3CCN(C)CC3)cc2)[n-]cc1C(=O)/N=c1/[n-]cccc1[O-]

> <Energy>
94.52412584180512

> <Genealogy>
Cc1cc(=NS(=O)(=O)c2ccc(N3CCN(C)CC3)cc2)[n-]cc1C(=O)N=c1[n-]cccc1[O-] (protonated)
Cc1cc(=NS(=O)(=O)c2ccc(N3CCN(C)CC3)cc2)[n-]cc1C(=O)/N=c1/[n-]cccc1[O-] (cis-trans isomerization)
Cc1cc(=NS(=O)(=O)c2ccc(N3CCN(C)CC3)cc2)[n-]cc1C(=O)/N=c1/[n-]cccc1[O-] (3D coordinates assigned)
Cc1cc(=NS(=O)(=O)c2ccc(N3CCN(C)CC3)cc2)[n-]cc1C(=O)/N=c1/[n-]cccc1[O-] (nonaromatic ring conformer: 94.52412584180512 kcal/mol)

> <smiles>
Cc1cc(=NS(=O)(=O)c2ccc(N3CCN(C)CC3)cc2)[nH]cc1C(=O)N=c1[nH]cccc1O

> <score_type>
oracle

> <origin>
adg

> <m_score__min__energy>
-16.190000000000001

> <m_primary>
energy

> <minimizedAffinity>
-9.53123

> <minimizedRMSD>
0.75535

> <CNNscore>
0.2808583081

> <CNNaffinity>
7.0808110237

> <CNN_VS>
1.9887045622

> <CNNaffinity_variance>
0.0096852835

$$$$
80:0


 26 28  0  0  0  0  0  0  0  0999 V2000
   57.3273   29.3212   44.4308 C   0  0  0  0  0  0  0  0  0  0  0  0
   58.1981   28.8909   45.3601 C   0  0  0  0  0  0  0  0  0  0  0  0
   58.4775   27.5531   45.6592 C   0  0  0  0  0  0  0  0  0  0  0  0
   57.9662   26.4535   45.0677 C   0  0  0  0  0  0  0  0  0  0  0  0
   59.4344   27.5661   46.6605 C   0  0  0  0  0  0  0  0  0  0  0  0
   59.6921   28.8911   46.9449 C   0  0  0  0  0  0  0  0  0  0  0  0
   60.7239   29.3537   47.9295 C   0  0  0  0  0  0  0  0  0  0  0  0
   58.9459   29.7036   46.1574 N   0  0  0  0  0  0  0  0  0  0  0  0
   57.4098   25.3072   45.8221 C   0  0  0  0  0  0  0  0  0  0  0  0
   56.0864   25.3083   46.2978 C   0  0  0  0  0  0  0  0  0  0  0  0
   55.2515   26.3982   46.0773 O   0  0  0  0  0  0  0  0  0  0  0  0
   55.6063   24.2283   46.9651 N   0  0  0  0  0  0  0  0  0  0  0  0
   56.3767   23.1304   47.1693 C   0  0  0  0  0  0  0  0  0  0  0  0
   55.7705   21.8477   47.9754 S   0  0  0  0  0  0  0  0  0  0  0  0
   57.6459   23.0927   46.6921 N   0  0  0  0  0  0  0  0  0  0  0  0
   58.1763   24.1475   46.0205 C   0  0  0  0  0  0  0  0  0  0  0  0
   59.3586   24.0764   45.5900 O   0  0  0  0  0  0  0  0  0  0  0  0
   59.0132   31.1748   46.1494 C   0  0  0  0  0  0  0  0  0  0  0  0
   59.3241   31.6990   47.5280 C   0  0  0  0  0  0  0  0  0  0  0  0
   58.4913   31.3831   48.6149 C   0  0  0  0  0  0  0  0  0  0  0  0
   58.7895   31.8597   49.8932 C   0  0  0  0  0  0  0  0  0  0  0  0
   59.9191   32.6563   50.1013 C   0  0  0  0  0  0  0  0  0  0  0  0
   60.2056   33.1245   51.3793 O   0  0  0  0  0  0  0  0  0  0  0  0
   60.7536   32.9807   49.0242 C   0  0  0  0  0  0  0  0  0  0  0  0
   62.1766   33.9806   49.2650 Cl  0  0  0  0  0  0  0  0  0  0  0  0
   60.4562   32.5047   47.7418 C   0  0  0  0  0  0  0  0  0  0  0  0
  1  2  2  0
  2  3  1  0
  3  4  2  0
  4  9  1  0
  9 10  2  0
 10 11  1  0
 10 12  1  0
 12 13  1  0
 13 14  2  0
 13 15  1  0
 15 16  1  0
 16 17  2  0
  3  5  1  0
  5  6  2  0
  6  7  1  0
  6  8  1  0
  8 18  1  0
 18 19  1  0
 19 20  2  0
 20 21  1  0
 21 22  2  0
 22 23  1  0
 22 24  1  0
 24 25  1  0
 24 26  2  0
  8  2  1  0
 26 19  1  0
 16  9  1  0
M  CHG 1  11  -1
M  CHG 1  12  -1
M  CHG 1  15  -1
M  CHG 1  23  -1
M  END
> <UniqueID>
74

> <SMILES>
C=c1/c(=C/c2c([O-])[n-]c(=S)[n-]c2=O)cc(C)n1Cc1ccc([O-])c(Cl)c1

> <Energy>
79.10490695358888

> <Genealogy>
C=c1c(=Cc2c([O-])[n-]c(=S)[n-]c2=O)cc(C)n1Cc1ccc([O-])c(Cl)c1 (protonated)
C=c1/c(=C/c2c([O-])[n-]c(=S)[n-]c2=O)cc(C)n1Cc1ccc([O-])c(Cl)c1 (cis-trans isomerization)
C=c1/c(=C/c2c([O-])[n-]c(=S)[n-]c2=O)cc(C)n1Cc1ccc([O-])c(Cl)c1 (3D coordinates assigned)
C=c1/c(=C/c2c([O-])[n-]c(=S)[n-]c2=O)cc(C)n1Cc1ccc([O-])c(Cl)c1 (optimized conformer: 79.10490695358888 kcal/mol)

> <smiles>
C=c1c(=Cc2c(O)[nH]c(=S)[nH]c2=O)cc(C)n1Cc1ccc(O)c(Cl)c1

> <score_type>
oracle

> <origin>
adg

> <m_score__min__energy>
-15.890000000000001

> <m_primary>
energy

> <minimizedAffinity>
-6.96103

> <minimizedRMSD>
0.79478

> <CNNscore>
0.1539160013

> <CNNaffinity>
6.4330000877

> <CNN_VS>
0.9901416302

> <CNNaffinity_variance>
0.2477016598

$$$$
82:0


 39 43  0  0  0  0  0  0  0  0999 V2000
   59.8700   32.1631   46.9389 C   0  0  0  0  0  0  0  0  0  0  0  0
   61.2515   32.2923   47.1477 C   0  0  0  0  0  0  0  0  0  0  0  0
   61.7422   33.2298   48.0716 C   0  0  0  0  0  0  0  0  0  0  0  0
   60.8416   34.0801   48.7363 C   0  0  0  0  0  0  0  0  0  0  0  0
   59.4684   33.9675   48.5091 C   0  0  0  0  0  0  0  0  0  0  0  0
   58.9809   33.0096   47.6162 C   0  0  0  0  0  0  0  0  0  0  0  0
   57.6442   32.8819   47.4352 F   0  0  0  0  0  0  0  0  0  0  0  0
   60.3186   29.2576   47.2705 C   0  0  0  0  0  0  0  0  0  0  0  0
   59.6093   29.7713   46.2548 C   0  0  0  0  0  0  0  0  0  0  0  0
   58.9381   29.0754   45.2301 C   0  0  0  0  0  0  0  0  0  0  0  0
   58.8999   27.7647   44.9192 C   0  0  0  0  0  0  0  0  0  0  0  0
   58.2498   30.0321   44.4998 C   0  0  0  0  0  0  0  0  0  0  0  0
   58.5433   31.2571   45.0645 C   0  0  0  0  0  0  0  0  0  0  0  0
   57.9952   32.5715   44.5997 C   0  0  0  0  0  0  0  0  0  0  0  0
   59.3682   31.0986   46.1208 N   0  0  0  0  0  0  0  0  0  0  0  0
   58.1353   26.7393   45.6479 C   0  0  0  0  0  0  0  0  0  0  0  0
   56.7391   26.8275   45.7403 C   0  0  0  0  0  0  0  0  0  0  0  0
   56.0540   27.8754   45.1355 O   0  0  0  0  0  0  0  0  0  0  0  0
   56.0463   25.8879   46.4346 N   0  0  0  0  0  0  0  0  0  0  0  0
   56.6821   24.8474   47.0330 C   0  0  0  0  0  0  0  0  0  0  0  0
   56.0209   23.9962   47.6834 O   0  0  0  0  0  0  0  0  0  0  0  0
   58.0297   24.7210   46.9268 N   0  0  0  0  0  0  0  0  0  0  0  0
   58.7686   25.6342   46.2423 C   0  0  0  0  0  0  0  0  0  0  0  0
   60.0164   25.4823   46.1529 O   0  0  0  0  0  0  0  0  0  0  0  0
   63.1910   33.3464   48.3547 C   0  0  0  0  0  0  0  0  0  0  0  0
   63.8912   34.0075   47.5366 O   0  0  0  0  0  0  0  0  0  0  0  0
   63.8303   32.6403   49.4643 N   0  0  0  0  0  0  0  0  0  0  0  0
   63.7501   33.4072   50.7354 C   0  0  0  0  0  0  0  0  0  0  0  0
   62.3016   33.5174   51.2650 C   0  0  0  0  0  0  0  0  0  0  0  0
   61.6697   32.1134   51.4267 C   0  0  0  0  0  0  0  0  0  0  0  0
   61.8259   31.2952   50.1348 C   0  0  0  0  0  0  0  0  0  0  0  0
   63.2953   31.2742   49.6894 C   0  0  0  0  0  0  0  0  0  0  0  0
   63.8886   33.4596   50.0071 H   0  0  0  0  0  0  0  0  0  0  0  0
   60.2565   32.1209   51.8970 N   0  0  0  0  0  0  0  0  0  0  0  0
   59.7557   33.4751   52.1917 C   0  0  0  0  0  0  0  0  0  0  0  0
   58.4053   33.3790   52.9373 C   0  0  0  0  0  0  0  0  0  0  0  0
   57.8123   32.0923   52.8453 O   0  0  0  0  0  0  0  0  0  0  0  0
   57.8416   31.6425   51.5070 C   0  0  0  0  0  0  0  0  0  0  0  0
   59.2910   31.3585   51.0685 C   0  0  0  0  0  0  0  0  0  0  0  0
  8  9  2  0
  9 10  1  0
 10 11  2  0
 11 16  1  0
 16 17  2  0
 17 18  1  0
 17 19  1  0
 19 20  1  0
 20 21  2  0
 20 22  1  0
 22 23  1  0
 23 24  2  0
 10 12  1  0
 12 13  2  0
 13 14  1  0
 13 15  1  0
 15  1  1  0
  1  2  2  0
  2  3  1  0
  3 25  1  0
 25 26  2  0
 27 25  1  0
 27 28  1  0
 28 29  1  0
 29 30  1  0
 30 34  1  0
 34 35  1  0
 35 36  1  0
 36 37  1  0
 37 38  1  0
 38 39  1  0
 30 31  1  0
 31 32  1  0
  3  4  2  0
  4  5  1  0
  5  6  2  0
  6  7  1  0
 15  9  1  0
  6  1  1  0
 23 16  1  0
 32 27  1  0
 39 34  1  0
 27 33  1  0
M  CHG 1  18  -1
M  CHG 1  19  -1
M  CHG 1  22  -1
M  CHG 1  27   1
M  END
> <UniqueID>
76

> <SMILES>
C=c1c(=Cc2c([O-])[n-]c(=O)[n-]c2=O)cc(C)n1-c1cc(C(=O)[NH+]2CCC(N3CCOCC3)CC2)ccc1F

> <Energy>
144.72516224818298

> <Genealogy>
C=c1c(=Cc2c([O-])[n-]c(=O)[n-]c2=O)cc(C)n1-c1cc(C(=O)[NH+]2CCC(N3CCOCC3)CC2)ccc1F (protonated)
C=c1c(=Cc2c([O-])[n-]c(=O)[n-]c2=O)cc(C)n1-c1cc(C(=O)[NH+]2CCC(N3CCOCC3)CC2)ccc1F (3D coordinates assigned)
C=c1c(=Cc2c([O-])[n-]c(=O)[n-]c2=O)cc(C)n1-c1cc(C(=O)[NH+]2CCC(N3CCOCC3)CC2)ccc1F (nonaromatic ring conformer: 144.72516224818298 kcal/mol)

> <smiles>
C=c1c(=Cc2c(O)[nH]c(=O)[nH]c2=O)cc(C)n1-c1cc(C(=O)N2CCC(N3CCOCC3)CC2)ccc1F

> <score_type>
oracle

> <origin>
adg

> <m_score__min__energy>
-16.620000000000001

> <m_primary>
energy

> <minimizedAffinity>
-8.39900

> <minimizedRMSD>
0.82530

> <CNNscore>
0.2676394880

> <CNNaffinity>
7.2627263069

> <CNN_VS>
1.9437923431

> <CNNaffinity_variance>
0.2930014133

$$$$
0:0


 25 27  0  0  0  0  0  0  0  0999 V2000
   58.3830   29.9178   44.6244 C   0  0  0  0  0  0  0  0  0  0  0  0
   58.5037   29.3572   45.8377 C   0  0  0  0  0  0  0  0  0  0  0  0
   58.2025   28.0335   46.1731 C   0  0  0  0  0  0  0  0  0  0  0  0
   57.6756   27.0845   45.3729 C   0  0  0  0  0  0  0  0  0  0  0  0
   58.5198   27.8870   47.5170 C   0  0  0  0  0  0  0  0  0  0  0  0
   58.9925   29.1113   47.9460 C   0  0  0  0  0  0  0  0  0  0  0  0
   59.4529   29.4043   49.3417 C   0  0  0  0  0  0  0  0  0  0  0  0
   58.9900   30.0024   46.9280 N   0  0  0  0  0  0  0  0  0  0  0  0
   57.3686   25.7103   45.8291 C   0  0  0  0  0  0  0  0  0  0  0  0
   56.0586   25.3191   46.1602 C   0  0  0  0  0  0  0  0  0  0  0  0
   55.0017   26.2163   46.0668 O   0  0  0  0  0  0  0  0  0  0  0  0
   55.8202   24.0561   46.5977 N   0  0  0  0  0  0  0  0  0  0  0  0
   56.8302   23.1599   46.7403 C   0  0  0  0  0  0  0  0  0  0  0  0
   56.5839   21.9942   47.1439 O   0  0  0  0  0  0  0  0  0  0  0  0
   58.1071   23.5229   46.4544 N   0  0  0  0  0  0  0  0  0  0  0  0
   58.3979   24.7742   46.0116 C   0  0  0  0  0  0  0  0  0  0  0  0
   59.5949   25.0774   45.7601 O   0  0  0  0  0  0  0  0  0  0  0  0
   59.4072   31.3764   47.0152 C   0  0  0  0  0  0  0  0  0  0  0  0
   58.4533   32.4037   47.0291 C   0  0  0  0  0  0  0  0  0  0  0  0
   58.8580   33.7395   47.1015 C   0  0  0  0  0  0  0  0  0  0  0  0
   60.2184   34.0572   47.1587 C   0  0  0  0  0  0  0  0  0  0  0  0
   61.1781   33.0373   47.1422 C   0  0  0  0  0  0  0  0  0  0  0  0
   60.7714   31.6985   47.0686 C   0  0  0  0  0  0  0  0  0  0  0  0
   62.5783   33.3639   47.1982 C   0  0  0  0  0  0  0  0  0  0  0  0
   63.7045   33.6273   47.2427 N   0  0  0  0  0  0  0  0  0  0  0  0
  1  2  2  0
  2  3  1  0
  3  4  2  0
  4  9  1  0
  9 10  2  0
 10 11  1  0
 10 12  1  0
 12 13  1  0
 13 14  2  0
 13 15  1  0
 15 16  1  0
 16 17  2  0
  3  5  1  0
  5  6  2  0
  6  7  1  0
  6  8  1  0
  8 18  1  0
 18 19  2  0
 19 20  1  0
 20 21  2  0
 21 22  1  0
 22 24  1  0
 24 25  3  0
 22 23  2  0
  8  2  1  0
 23 18  1  0
 16  9  1  0
M  CHG 1  11  -1
M  CHG 1  12  -1
M  CHG 1  15  -1
M  END
> <UniqueID>
1

> <SMILES>
C=c1c(=Cc2c([O-])[n-]c(=O)[n-]c2=O)cc(C)n1-c1cccc(C#N)c1

> <Energy>
82.96059631256696

> <Genealogy>
C=c1c(=Cc2c([O-])[n-]c(=O)[n-]c2=O)cc(C)n1-c1cccc(C#N)c1 (protonated)
C=c1c(=Cc2c([O-])[n-]c(=O)[n-]c2=O)cc(C)n1-c1cccc(C#N)c1 (3D coordinates assigned)
C=c1c(=Cc2c([O-])[n-]c(=O)[n-]c2=O)cc(C)n1-c1cccc(C#N)c1 (optimized conformer: 82.96059631256696 kcal/mol)

> <smiles>
C=c1c(=Cc2c(O)[nH]c(=O)[nH]c2=O)cc(C)n1-c1cccc(C#N)c1

> <score_type>
oracle

> <origin>
adg

> <m_score__min__energy>
-15.619999999999999

> <m_primary>
energy

> <minimizedAffinity>
-8.07618

> <minimizedRMSD>
0.66600

> <CNNscore>
0.4759353697

> <CNNaffinity>
6.9065260887

> <CNN_VS>
3.2870600224

> <CNNaffinity_variance>
0.5565123558

$$$$
7:0


 33 37  0  0  0  0  0  0  0  0999 V2000
   57.6262   29.6567   54.0521 C   0  0  0  0  0  0  0  0  0  0  0  0
   58.2262   28.5335   53.4703 C   0  0  0  0  0  0  0  0  0  0  0  0
   59.6117   28.4914   53.2866 C   0  0  0  0  0  0  0  0  0  0  0  0
   60.4145   29.5722   53.6874 C   0  0  0  0  0  0  0  0  0  0  0  0
   59.8089   30.6910   54.2839 C   0  0  0  0  0  0  0  0  0  0  0  0
   58.4240   30.7327   54.4621 C   0  0  0  0  0  0  0  0  0  0  0  0
   55.5470   30.8659   52.3116 C   0  0  0  0  0  0  0  0  0  0  0  0
   55.2577   30.2219   53.4533 C   0  0  0  0  0  0  0  0  0  0  0  0
   53.9975   30.0881   54.0605 C   0  0  0  0  0  0  0  0  0  0  0  0
   52.7636   30.3991   53.6200 C   0  0  0  0  0  0  0  0  0  0  0  0
   54.2248   29.5135   55.3018 C   0  0  0  0  0  0  0  0  0  0  0  0
   55.5785   29.2682   55.3873 C   0  0  0  0  0  0  0  0  0  0  0  0
   56.2586   28.6173   56.5538 C   0  0  0  0  0  0  0  0  0  0  0  0
   56.2046   29.6857   54.2663 N   0  0  0  0  0  0  0  0  0  0  0  0
   52.3734   30.5674   52.2122 C   0  0  0  0  0  0  0  0  0  0  0  0
   52.5651   29.6469   51.2483 N   0  0  0  0  0  0  0  0  0  0  0  0
   51.9135   30.1664   50.1863 C   0  0  0  0  0  0  0  0  0  0  0  0
   51.8745   29.5909   49.0677 O   0  0  0  0  0  0  0  0  0  0  0  0
   51.2961   31.3445   50.4213 N   0  0  0  0  0  0  0  0  0  0  0  0
   51.5856   31.5758   51.7117 C   0  0  0  0  0  0  0  0  0  0  0  0
   51.1352   32.6827   52.4201 O   0  0  0  0  0  0  0  0  0  0  0  0
   61.8439   29.5186   53.5173 N   0  0  0  0  0  0  0  0  0  0  0  0
   62.7475   29.8736   54.6172 C   0  0  0  0  0  0  0  0  0  0  0  0
   63.8355   30.8623   54.1421 C   0  0  0  0  0  0  0  0  0  0  0  0
   64.0135   30.8695   52.6677 N   0  0  0  0  0  0  0  0  0  0  0  0
   63.8671   29.5146   52.0942 C   0  0  0  0  0  0  0  0  0  0  0  0
   62.4196   29.0231   52.2580 C   0  0  0  0  0  0  0  0  0  0  0  0
   63.2386   31.3028   53.0930 H   0  0  0  0  0  0  0  0  0  0  0  0
   65.3162   31.4238   52.3259 C   0  0  0  0  0  0  0  0  0  0  0  0
   66.0750   31.7659   53.2245 O   0  0  0  0  0  0  0  0  0  0  0  0
   65.8054   31.6248   50.9005 C   0  0  0  0  0  0  0  0  0  0  0  0
   65.2409   32.8284   50.1608 C   0  0  0  0  0  0  0  0  0  0  0  0
   66.7048   32.8127   50.5872 C   0  0  0  0  0  0  0  0  0  0  0  0
  7  8  2  0
  8  9  1  0
  9 10  2  0
 10 15  1  0
 15 16  1  0
 16 17  1  0
 17 18  2  0
 17 19  1  0
 19 20  1  0
 20 21  1  0
  9 11  1  0
 11 12  2  0
 12 13  1  0
 12 14  1  0
 14  1  1  0
  1  2  2  0
  2  3  1  0
  3  4  2  0
  4 22  1  0
 22 23  1  0
 23 24  1  0
 24 25  1  0
 25 29  1  0
 29 30  2  0
 29 31  1  0
 31 32  1  0
 32 33  1  0
 25 26  1  0
 26 27  1  0
  4  5  1  0
  5  6  2  0
 14  8  1  0
  6  1  1  0
 20 15  2  0
 27 22  1  0
 33 31  1  0
 25 28  1  0
M  CHG 1  16  -1
M  CHG 1  19  -1
M  CHG 1  21  -1
M  CHG 1  25   1
M  END
> <UniqueID>
8

> <SMILES>
C=c1c(=Cc2[n-]c(=O)[n-]c2[O-])cc(C)n1-c1ccc(N2CC[NH+](C(=O)C3CC3)CC2)cc1

> <Energy>
414.1555636376154

> <Genealogy>
C=c1c(=Cc2[n-]c(=O)[n-]c2[O-])cc(C)n1-c1ccc(N2CC[NH+](C(=O)C3CC3)CC2)cc1 (protonated)
C=c1c(=Cc2[n-]c(=O)[n-]c2[O-])cc(C)n1-c1ccc(N2CC[NH+](C(=O)C3CC3)CC2)cc1 (3D coordinates assigned)
C=c1c(=Cc2[n-]c(=O)[n-]c2[O-])cc(C)n1-c1ccc(N2CC[NH+](C(=O)C3CC3)CC2)cc1 (nonaromatic ring conformer: 414.1555636376154 kcal/mol)

> <smiles>
C=c1c(=Cc2[nH]c(=O)[nH]c2O)cc(C)n1-c1ccc(N2CCN(C(=O)C3CC3)CC2)cc1

> <score_type>
oracle

> <origin>
adg

> <m_score__min__energy>
-15.279999999999999

> <m_primary>
energy

> <minimizedAffinity>
-5.22618

> <minimizedRMSD>
0.87725

> <CNNscore>
0.1625376046

> <CNNaffinity>
4.9522838593

> <CNN_VS>
0.8049323559

> <CNNaffinity_variance>
0.4155830145

$$$$
8:0


 33 36  0  0  0  0  0  0  0  0999 V2000
   55.6678   28.9551   44.8484 O   0  0  0  0  0  0  0  0  0  0  0  0
   56.8811   28.8342   44.5291 C   0  0  0  0  0  0  0  0  0  0  0  0
   57.5297   27.5554   44.5670 N   0  0  0  0  0  0  0  0  0  0  0  0
   58.2342   27.0760   45.5524 C   0  0  0  0  0  0  0  0  0  0  0  0
   59.1517   27.7932   46.2412 N   0  0  0  0  0  0  0  0  0  0  0  0
   59.5961   26.9148   47.1606 C   0  0  0  0  0  0  0  0  0  0  0  0
   60.5693   27.2152   48.1054 O   0  0  0  0  0  0  0  0  0  0  0  0
   58.9623   25.7035   47.0309 C   0  0  0  0  0  0  0  0  0  0  0  0
   58.0963   25.8074   46.0078 N   0  0  0  0  0  0  0  0  0  0  0  0
   57.2386   24.7682   45.4969 C   0  0  0  0  0  0  0  0  0  0  0  0
   57.7978   23.6158   44.9185 C   0  0  0  0  0  0  0  0  0  0  0  0
   56.9755   22.5963   44.4316 C   0  0  0  0  0  0  0  0  0  0  0  0
   55.5884   22.7135   44.5216 C   0  0  0  0  0  0  0  0  0  0  0  0
   55.0190   23.8526   45.0956 C   0  0  0  0  0  0  0  0  0  0  0  0
   55.8362   24.8835   45.5814 C   0  0  0  0  0  0  0  0  0  0  0  0
   55.2581   26.0283   46.1299 O   0  0  0  0  0  0  0  0  0  0  0  0
   54.3257   26.1020   46.1848 H   0  0  0  0  0  0  0  0  0  0  0  0
   57.6257   29.9680   44.0692 N   0  0  0  0  0  0  0  0  0  0  0  0
   58.1675   31.0230   44.8784 C   0  0  0  0  0  0  0  0  0  0  0  0
   58.1492   32.3305   44.3773 C   0  0  0  0  0  0  0  0  0  0  0  0
   58.6849   33.3839   45.1238 C   0  0  0  0  0  0  0  0  0  0  0  0
   59.2619   33.1381   46.3760 C   0  0  0  0  0  0  0  0  0  0  0  0
   59.3018   31.8293   46.8735 C   0  0  0  0  0  0  0  0  0  0  0  0
   58.7659   30.7750   46.1272 C   0  0  0  0  0  0  0  0  0  0  0  0
   59.9433   34.4689   47.3146 S   0  0  0  0  0  0  0  0  0  0  0  0
   59.9321   35.7187   46.4792 O   0  0  0  0  0  0  0  0  0  0  0  0
   59.0833   34.7122   48.5241 O   0  0  0  0  0  0  0  0  0  0  0  0
   61.5790   34.1341   47.8278 N   0  0  0  0  0  0  0  0  0  0  0  0
   62.1963   33.1205   46.9590 C   0  0  0  0  0  0  0  0  0  0  0  0
   63.6339   32.8198   47.4334 C   0  0  0  0  0  0  0  0  0  0  0  0
   63.9609   33.5249   48.6169 O   0  0  0  0  0  0  0  0  0  0  0  0
   63.0181   33.2274   49.6293 C   0  0  0  0  0  0  0  0  0  0  0  0
   61.5988   33.6810   49.2273 C   0  0  0  0  0  0  0  0  0  0  0  0
  1  2  2  0
  2  3  1  0
  3  4  2  0
  4  5  1  0
  5  6  1  0
  6  7  1  0
  6  8  2  0
  8  9  1  0
  9 10  1  0
 10 11  2  0
 11 12  1  0
 12 13  2  0
 13 14  1  0
 14 15  2  0
 15 16  1  0
  2 18  1  0
 18 19  1  0
 19 20  2  0
 20 21  1  0
 21 22  2  0
 22 25  1  0
 25 26  2  0
 25 27  2  0
 25 28  1  0
 28 29  1  0
 29 30  1  0
 30 31  1  0
 31 32  1  0
 32 33  1  0
 22 23  1  0
 23 24  2  0
  9  4  1  0
 15 10  1  0
 24 19  1  0
 33 28  1  0
 16 17  1  0
M  CHG 1   5  -1
M  CHG 1   7  -1
M  CHG 1  18  -1
M  END
> <UniqueID>
9

> <SMILES>
O=C(N=c1[n-]c([O-])cn1-c1ccccc1O)[N-]c1ccc(S(=O)(=O)N2CCOCC2)cc1

> <Energy>
102.78636686978103

> <Genealogy>
O=C(N=c1[n-]c([O-])cn1-c1ccccc1O)[N-]c1ccc(S(=O)(=O)N2CCOCC2)cc1 (protonated)
O=C(N=c1[n-]c([O-])cn1-c1ccccc1O)[N-]c1ccc(S(=O)(=O)N2CCOCC2)cc1 (3D coordinates assigned)
O=C(N=c1[n-]c([O-])cn1-c1ccccc1O)[N-]c1ccc(S(=O)(=O)N2CCOCC2)cc1 (nonaromatic ring conformer: 102.78636686978103 kcal/mol)

> <smiles>
O=C(N=c1[nH]c(O)cn1-c1ccccc1O)Nc1ccc(S(=O)(=O)N2CCOCC2)cc1

> <score_type>
oracle

> <origin>
adg

> <m_score__min__energy>
-14.880000000000001

> <m_primary>
energy

> <minimizedAffinity>
-7.25993

> <minimizedRMSD>
0.76720

> <CNNscore>
0.5485303998

> <CNNaffinity>
7.1237015724

> <CNN_VS>
3.9075667858

> <CNNaffinity_variance>
0.1525669694

$$$$
9:0


 30 33  0  0  0  0  0  0  0  0999 V2000
   60.4138   27.2002   46.6765 C   0  0  0  0  0  0  0  0  0  0  0  0
   59.4782   28.0422   46.2147 C   0  0  0  0  0  0  0  0  0  0  0  0
   58.4846   27.7736   45.2580 C   0  0  0  0  0  0  0  0  0  0  0  0
   58.0719   26.6121   44.7153 C   0  0  0  0  0  0  0  0  0  0  0  0
   57.9212   28.9965   44.9305 C   0  0  0  0  0  0  0  0  0  0  0  0
   58.5232   29.9433   45.7348 C   0  0  0  0  0  0  0  0  0  0  0  0
   58.2141   31.4086   45.7161 C   0  0  0  0  0  0  0  0  0  0  0  0
   59.4655   29.3659   46.5084 N   0  0  0  0  0  0  0  0  0  0  0  0
   57.4815   25.4833   45.4532 C   0  0  0  0  0  0  0  0  0  0  0  0
   58.1189   24.3323   45.7321 N   0  0  0  0  0  0  0  0  0  0  0  0
   57.2463   23.6790   46.5305 C   0  0  0  0  0  0  0  0  0  0  0  0
   57.4802   22.5336   46.9956 O   0  0  0  0  0  0  0  0  0  0  0  0
   56.1096   24.3554   46.8012 N   0  0  0  0  0  0  0  0  0  0  0  0
   56.2822   25.5016   46.1224 C   0  0  0  0  0  0  0  0  0  0  0  0
   55.3639   26.5434   46.1191 O   0  0  0  0  0  0  0  0  0  0  0  0
   60.3337   30.0592   47.4207 C   0  0  0  0  0  0  0  0  0  0  0  0
   61.3850   30.8308   46.9189 C   0  0  0  0  0  0  0  0  0  0  0  0
   62.2449   31.5055   47.7887 C   0  0  0  0  0  0  0  0  0  0  0  0
   62.0694   31.4260   49.1860 C   0  0  0  0  0  0  0  0  0  0  0  0
   60.9999   30.6479   49.6772 C   0  0  0  0  0  0  0  0  0  0  0  0
   60.1371   29.9732   48.8068 C   0  0  0  0  0  0  0  0  0  0  0  0
   58.8018   29.0433   49.4735 Cl  0  0  0  0  0  0  0  0  0  0  0  0
   62.9711   32.1229   50.1667 C   0  0  0  0  0  0  0  0  0  0  0  0
   62.4686   33.0294   50.8876 O   0  0  0  0  0  0  0  0  0  0  0  0
   64.3805   31.8169   50.3497 N   0  0  0  0  0  0  0  0  0  0  0  0
   64.7166   31.2583   51.6726 C   0  0  0  0  0  0  0  0  0  0  0  0
   65.9665   31.9712   52.1785 C   0  0  0  0  0  0  0  0  0  0  0  0
   66.4509   32.8300   51.0241 C   0  0  0  0  0  0  0  0  0  0  0  0
   65.2577   32.9691   50.0967 C   0  0  0  0  0  0  0  0  0  0  0  0
   63.9355   31.5622   51.1902 H   0  0  0  0  0  0  0  0  0  0  0  0
  1  2  2  0
  2  3  1  0
  3  4  2  0
  4  9  1  0
  9 10  1  0
 10 11  1  0
 11 12  2  0
 11 13  1  0
 13 14  1  0
 14 15  1  0
  3  5  1  0
  5  6  2  0
  6  7  1  0
  6  8  1  0
  8 16  1  0
 16 17  2  0
 17 18  1  0
 18 19  2  0
 19 23  1  0
 23 24  2  0
 23 25  1  0
 25 26  1  0
 26 27  1  0
 27 28  1  0
 28 29  1  0
 19 20  1  0
 20 21  2  0
 21 22  1  0
  8  2  1  0
 21 16  1  0
 14  9  2  0
 29 25  1  0
 25 30  1  0
M  CHG 1  10  -1
M  CHG 1  13  -1
M  CHG 1  15  -1
M  CHG 1  25   1
M  END
> <UniqueID>
10

> <SMILES>
C=c1c(=Cc2[n-]c(=O)[n-]c2[O-])cc(C)n1-c1ccc(C(=O)[NH+]2CCCC2)cc1Cl

> <Energy>
137.26815917941738

> <Genealogy>
C=c1c(=Cc2[n-]c(=O)[n-]c2[O-])cc(C)n1-c1ccc(C(=O)[NH+]2CCCC2)cc1Cl (protonated)
C=c1c(=Cc2[n-]c(=O)[n-]c2[O-])cc(C)n1-c1ccc(C(=O)[NH+]2CCCC2)cc1Cl (3D coordinates assigned)
C=c1c(=Cc2[n-]c(=O)[n-]c2[O-])cc(C)n1-c1ccc(C(=O)[NH+]2CCCC2)cc1Cl (nonaromatic ring conformer: 137.26815917941738 kcal/mol)

> <smiles>
C=c1c(=Cc2[nH]c(=O)[nH]c2O)cc(C)n1-c1ccc(C(=O)N2CCCC2)cc1Cl

> <score_type>
oracle

> <origin>
adg

> <m_score__min__energy>
-14.58

> <m_primary>
energy

> <minimizedAffinity>
-7.60084

> <minimizedRMSD>
0.81188

> <CNNscore>
0.1521700323

> <CNNaffinity>
6.4877166748

> <CNN_VS>
0.9872360826

> <CNNaffinity_variance>
0.0562986173

$$$$
11:0


 28 30  0  0  0  0  0  0  0  0999 V2000
   57.4246   27.2892   45.5533 C   0  0  0  0  0  0  0  0  0  0  0  0
   56.3093   26.9825   46.0507 O   0  0  0  0  0  0  0  0  0  0  0  0
   57.8344   28.7084   45.5248 C   0  0  0  0  0  0  0  0  0  0  0  0
   59.0575   29.0986   46.0911 C   0  0  0  0  0  0  0  0  0  0  0  0
   59.4597   30.4369   46.0548 C   0  0  0  0  0  0  0  0  0  0  0  0
   58.6457   31.4031   45.4461 C   0  0  0  0  0  0  0  0  0  0  0  0
   57.4358   31.0106   44.8563 C   0  0  0  0  0  0  0  0  0  0  0  0
   57.0294   29.6719   44.8919 C   0  0  0  0  0  0  0  0  0  0  0  0
   55.8204   29.3121   44.3073 O   0  0  0  0  0  0  0  0  0  0  0  0
   59.0874   32.8390   45.3748 C   0  0  0  0  0  0  0  0  0  0  0  0
   59.6758   33.2475   46.6474 N   0  0  0  0  0  0  0  0  0  0  0  0
   61.0769   33.5697   46.8748 C   0  0  0  0  0  0  0  0  0  0  0  0
   61.1630   33.9550   48.3720 C   0  0  0  0  0  0  0  0  0  0  0  0
   59.8343   33.8491   48.8750 O   0  0  0  0  0  0  0  0  0  0  0  0
   58.9944   33.4421   47.8669 C   0  0  0  0  0  0  0  0  0  0  0  0
   57.7557   33.2696   48.0179 O   0  0  0  0  0  0  0  0  0  0  0  0
   58.2682   26.2438   45.0549 N   0  0  0  0  0  0  0  0  0  0  0  0
   58.7675   25.1318   45.8527 C   0  0  0  0  0  0  0  0  0  0  0  0
   57.6508   23.5799   44.4329 O   0  0  0  0  0  0  0  0  0  0  0  0
   57.9129   23.9306   45.6150 C   0  0  0  0  0  0  0  0  0  0  0  0
   57.3039   23.2605   46.7283 N   0  0  0  0  0  0  0  0  0  0  0  0
   56.6971   22.1058   46.7637 C   0  0  0  0  0  0  0  0  0  0  0  0
   57.4229   21.0028   46.4303 N   0  0  0  0  0  0  0  0  0  0  0  0
   56.9018   19.7487   46.4416 C   0  0  0  0  0  0  0  0  0  0  0  0
   55.5711   19.5495   46.8025 C   0  0  0  0  0  0  0  0  0  0  0  0
   54.7828   20.6541   47.1231 C   0  0  0  0  0  0  0  0  0  0  0  0
   55.3245   21.9426   47.0902 C   0  0  0  0  0  0  0  0  0  0  0  0
   54.4784   23.0188   47.3240 O   0  0  0  0  0  0  0  0  0  0  0  0
 19 20  2  0
 20 18  1  0
 18 17  1  0
 17  1  1  0
  1  2  2  0
  1  3  1  0
  3  4  2  0
  4  5  1  0
  5  6  2  0
  6 10  1  0
 10 11  1  0
 11 12  1  0
 12 13  1  0
 13 14  1  0
 14 15  1  0
 15 16  2  0
  6  7  1  0
  7  8  2  0
  8  9  1  0
 20 21  1  0
 21 22  2  0
 22 23  1  0
 23 24  1  0
 24 25  2  0
 25 26  1  0
 26 27  2  0
 27 28  1  0
  8  3  1  0
 27 22  1  0
 15 11  1  0
M  CHG 1   9  -1
M  CHG 1  17  -1
M  CHG 1  23  -1
M  CHG 1  28  -1
M  END
> <UniqueID>
12

> <SMILES>
O=C(C[N-]C(=O)c1ccc(CN2CCOC2=O)cc1[O-])N=c1[n-]cccc1[O-]

> <Energy>
71.89608069423143

> <Genealogy>
O=C(C[N-]C(=O)c1ccc(CN2CCOC2=O)cc1[O-])N=c1[n-]cccc1[O-] (protonated)
O=C(C[N-]C(=O)c1ccc(CN2CCOC2=O)cc1[O-])N=c1[n-]cccc1[O-] (3D coordinates assigned)
O=C(C[N-]C(=O)c1ccc(CN2CCOC2=O)cc1[O-])N=c1[n-]cccc1[O-] (nonaromatic ring conformer: 71.89608069423143 kcal/mol)

> <smiles>
O=C(CNC(=O)c1ccc(CN2CCOC2=O)cc1O)N=c1[nH]cccc1O

> <score_type>
oracle

> <origin>
adg

> <m_score__min__energy>
-16.280000000000001

> <m_primary>
energy

> <minimizedAffinity>
-6.29724

> <minimizedRMSD>
2.16200

> <CNNscore>
0.1284419596

> <CNNaffinity>
5.7687492371

> <CNN_VS>
0.7409494519

> <CNNaffinity_variance>
0.3979318440

$$$$
21:0


 35 38  0  0  0  0  0  0  0  0999 V2000
   59.1340   30.5890   47.5297 C   0  0  0  0  0  0  0  0  0  0  0  0
   59.1008   31.6179   46.6618 C   0  0  0  0  0  0  0  0  0  0  0  0
   58.7113   31.5583   45.3129 C   0  0  0  0  0  0  0  0  0  0  0  0
   58.4463   30.5108   44.5039 C   0  0  0  0  0  0  0  0  0  0  0  0
   58.6316   32.8649   44.8759 C   0  0  0  0  0  0  0  0  0  0  0  0
   59.0005   33.6671   45.9306 C   0  0  0  0  0  0  0  0  0  0  0  0
   58.9974   35.1655   45.8666 C   0  0  0  0  0  0  0  0  0  0  0  0
   59.3443   32.9163   47.0095 N   0  0  0  0  0  0  0  0  0  0  0  0
   58.2665   29.1088   44.9276 C   0  0  0  0  0  0  0  0  0  0  0  0
   56.9909   28.5612   45.1784 C   0  0  0  0  0  0  0  0  0  0  0  0
   55.8261   29.3115   45.0354 O   0  0  0  0  0  0  0  0  0  0  0  0
   56.8865   27.2660   45.5797 N   0  0  0  0  0  0  0  0  0  0  0  0
   57.9859   26.4931   45.7625 C   0  0  0  0  0  0  0  0  0  0  0  0
   57.8204   24.9428   46.2463 S   0  0  0  0  0  0  0  0  0  0  0  0
   59.2234   27.0074   45.5501 N   0  0  0  0  0  0  0  0  0  0  0  0
   59.3886   28.2922   45.1431 C   0  0  0  0  0  0  0  0  0  0  0  0
   60.5523   28.7369   44.9576 O   0  0  0  0  0  0  0  0  0  0  0  0
   55.8757   30.2058   44.7600 H   0  0  0  0  0  0  0  0  0  0  0  0
   59.7407   33.4355   48.3363 C   0  0  0  0  0  0  0  0  0  0  0  0
   61.1779   33.0997   48.6966 C   0  0  0  0  0  0  0  0  0  0  0  0
   62.1263   33.1052   47.6552 C   0  0  0  0  0  0  0  0  0  0  0  0
   63.4526   32.7508   47.8926 C   0  0  0  0  0  0  0  0  0  0  0  0
   63.8564   32.3923   49.1744 C   0  0  0  0  0  0  0  0  0  0  0  0
   62.9428   32.4121   50.2276 C   0  0  0  0  0  0  0  0  0  0  0  0
   61.6032   32.7926   50.0241 C   0  0  0  0  0  0  0  0  0  0  0  0
   60.4841   32.8459   51.4182 S   0  0  0  0  0  0  0  0  0  0  0  0
   59.6951   34.1195   51.3308 O   0  0  0  0  0  0  0  0  0  0  0  0
   61.2854   32.8604   52.6883 O   0  0  0  0  0  0  0  0  0  0  0  0
   59.3655   31.5042   51.5581 N   0  0  0  0  0  0  0  0  0  0  0  0
   59.5089   30.7854   52.8349 C   0  0  0  0  0  0  0  0  0  0  0  0
   58.6046   29.5425   52.8664 C   0  0  0  0  0  0  0  0  0  0  0  0
   57.2789   29.7495   52.2289 N   0  0  0  0  0  0  0  0  0  0  0  0
   56.2248   29.0544   52.9868 C   0  0  0  0  0  0  0  0  0  0  0  0
   56.9343   31.1714   52.0749 C   0  0  0  0  0  0  0  0  0  0  0  0
   57.9790   31.8691   51.1941 C   0  0  0  0  0  0  0  0  0  0  0  0
  1  2  2  0
  2  3  1  0
  3  4  2  0
  4  9  1  0
  9 10  2  0
 10 11  1  0
 10 12  1  0
 12 13  1  0
 13 14  2  0
 13 15  1  0
 15 16  1  0
 16 17  2  0
  3  5  1  0
  5  6  2  0
  6  7  1  0
  6  8  1  0
  8 19  1  0
 19 20  1  0
 20 21  2  0
 21 22  1  0
 22 23  2  0
 23 24  1  0
 24 25  2  0
 25 26  1  0
 26 27  2  0
 26 28  2  0
 26 29  1  0
 29 30  1  0
 30 31  1  0
 31 32  1  0
 32 33  1  0
 32 34  1  0
 34 35  1  0
  8  2  1  0
 25 20  1  0
 35 29  1  0
 16  9  1  0
 11 18  1  0
M  CHG 1  12  -1
M  CHG 1  15  -1
M  END
> <UniqueID>
22

> <SMILES>
C=c1c(=Cc2c(O)[n-]c(=S)[n-]c2=O)cc(C)n1Cc1ccccc1S(=O)(=O)N1CCN(C)CC1

> <Energy>
123.05991406737168

> <Genealogy>
C=c1c(=Cc2c(O)[n-]c(=S)[n-]c2=O)cc(C)n1Cc1ccccc1S(=O)(=O)N1CCN(C)CC1 (protonated)
C=c1c(=Cc2c(O)[n-]c(=S)[n-]c2=O)cc(C)n1Cc1ccccc1S(=O)(=O)N1CCN(C)CC1 (3D coordinates assigned)
C=c1c(=Cc2c(O)[n-]c(=S)[n-]c2=O)cc(C)n1Cc1ccccc1S(=O)(=O)N1CCN(C)CC1 (nonaromatic ring conformer: 123.05991406737168 kcal/mol)

> <smiles>
C=c1c(=Cc2c(O)[nH]c(=S)[nH]c2=O)cc(C)n1Cc1ccccc1S(=O)(=O)N1CCN(C)CC1

> <score_type>
oracle

> <origin>
adg

> <m_score__min__energy>
-14.390000000000001

> <m_primary>
energy

> <minimizedAffinity>
-9.02548

> <minimizedRMSD>
0.83583

> <CNNscore>
0.4658869505

> <CNNaffinity>
7.3094372749

> <CNN_VS>
3.4053714275

> <CNNaffinity_variance>
0.0222776141

$$$$
28:0


 28 30  0  0  0  0  0  0  0  0999 V2000
   58.2412   33.4489   46.4809 N   0  0  0  0  0  0  0  0  0  0  0  0
   58.1779   32.7748   45.2196 C   0  0  0  0  0  0  0  0  0  0  0  0
   58.4942   33.3761   44.1580 O   0  0  0  0  0  0  0  0  0  0  0  0
   57.7416   31.3739   45.1653 C   0  0  0  0  0  0  0  0  0  0  0  0
   58.4905   30.2746   45.5343 C   0  0  0  0  0  0  0  0  0  0  0  0
   57.6406   29.2049   45.3133 C   0  0  0  0  0  0  0  0  0  0  0  0
   56.4621   29.6612   44.8391 N   0  0  0  0  0  0  0  0  0  0  0  0
   56.5234   30.9810   44.7516 N   0  0  0  0  0  0  0  0  0  0  0  0
   57.9313   27.7703   45.5535 C   0  0  0  0  0  0  0  0  0  0  0  0
   59.2133   27.3679   45.9640 C   0  0  0  0  0  0  0  0  0  0  0  0
   59.4889   26.0174   46.1867 C   0  0  0  0  0  0  0  0  0  0  0  0
   58.4801   25.0717   45.9956 C   0  0  0  0  0  0  0  0  0  0  0  0
   58.7122   23.8497   46.1884 O   0  0  0  0  0  0  0  0  0  0  0  0
   57.2435   25.4707   45.5993 N   0  0  0  0  0  0  0  0  0  0  0  0
   56.9476   26.7800   45.3782 C   0  0  0  0  0  0  0  0  0  0  0  0
   59.1712   34.5342   46.7695 C   0  0  0  0  0  0  0  0  0  0  0  0
   62.3310   33.0686   49.3167 C   0  0  0  0  0  0  0  0  0  0  0  0
   61.1494   33.5720   49.8741 C   0  0  0  0  0  0  0  0  0  0  0  0
   60.1311   34.0550   49.0474 C   0  0  0  0  0  0  0  0  0  0  0  0
   60.2845   34.0447   47.6531 C   0  0  0  0  0  0  0  0  0  0  0  0
   61.4677   33.5322   47.0960 C   0  0  0  0  0  0  0  0  0  0  0  0
   62.4854   33.0486   47.9233 C   0  0  0  0  0  0  0  0  0  0  0  0
   65.1381   32.6589   49.6186 N   0  0  0  0  0  0  0  0  0  0  0  0
   63.5962   32.4450   50.3724 S   0  0  0  0  0  0  0  0  0  0  0  0
   63.5890   33.1757   51.6854 O   0  0  0  0  0  0  0  0  0  0  0  0
   63.3566   30.9829   50.6288 O   0  0  0  0  0  0  0  0  0  0  0  0
   65.8692   32.2973   50.2312 H   0  0  0  0  0  0  0  0  0  0  0  0
   65.2981   33.6516   49.4475 H   0  0  0  0  0  0  0  0  0  0  0  0
 23 24  1  0
 24 25  2  0
 24 26  2  0
 24 17  1  0
 17 18  2  0
 18 19  1  0
 19 20  2  0
 20 16  1  0
 16  1  1  0
  1  2  1  0
  2  3  2  0
  2  4  1  0
  4  5  1  0
  5  6  2  0
  6  9  1  0
  9 10  1  0
 10 11  2  0
 11 12  1  0
 12 13  2  0
 12 14  1  0
 14 15  1  0
  6  7  1  0
  7  8  1  0
 20 21  1  0
 21 22  2  0
 22 17  1  0
  8  4  2  0
 15  9  2  0
 23 27  1  0
 23 28  1  0
M  CHG 1   1  -1
M  CHG 1   7  -1
M  CHG 1  14  -1
M  END
> <UniqueID>
28

> <SMILES>
NS(=O)(=O)c1ccc(C[N-]C(=O)c2cc(-c3ccc(=O)[n-]c3)[n-]n2)cc1

> <Energy>
67.66225198522218

> <Genealogy>
NS(=O)(=O)c1ccc(C[N-]C(=O)c2cc(-c3ccc(=O)[n-]c3)[n-]n2)cc1 (protonated)
NS(=O)(=O)c1ccc(C[N-]C(=O)c2cc(-c3ccc(=O)[n-]c3)[n-]n2)cc1 (3D coordinates assigned)
NS(=O)(=O)c1ccc(C[N-]C(=O)c2cc(-c3ccc(=O)[n-]c3)[n-]n2)cc1 (optimized conformer: 67.66225198522218 kcal/mol)

> <smiles>
NS(=O)(=O)c1ccc(CNC(=O)c2cc(-c3ccc(=O)[nH]c3)[nH]n2)cc1

> <score_type>
oracle

> <origin>
adg

> <m_score__min__energy>
-14.27

> <m_primary>
energy

> <minimizedAffinity>
-8.10299

> <minimizedRMSD>
1.86197

> <CNNscore>
0.6666863561

> <CNNaffinity>
6.7189197540

> <CNN_VS>
4.4794120789

> <CNNaffinity_variance>
0.0963285640

$$$$
43:0


 32 34  0  0  0  0  0  0  0  0999 V2000
   59.0896   26.6304   46.1953 C   0  0  0  0  0  0  0  0  0  0  0  0
   58.5621   25.5031   46.8420 C   0  0  0  0  0  0  0  0  0  0  0  0
   57.1970   25.2171   46.7792 C   0  0  0  0  0  0  0  0  0  0  0  0
   56.3356   26.0646   46.0836 C   0  0  0  0  0  0  0  0  0  0  0  0
   54.9726   25.7910   46.0470 O   0  0  0  0  0  0  0  0  0  0  0  0
   56.8401   27.1968   45.4410 C   0  0  0  0  0  0  0  0  0  0  0  0
   58.2162   27.5021   45.4891 C   0  0  0  0  0  0  0  0  0  0  0  0
   61.1132   26.9254   47.5691 C   0  0  0  0  0  0  0  0  0  0  0  0
   60.5289   26.9011   46.3659 C   0  0  0  0  0  0  0  0  0  0  0  0
   60.4710   27.5464   48.7402 C   0  0  0  0  0  0  0  0  0  0  0  0
   60.0930   26.8166   49.6969 O   0  0  0  0  0  0  0  0  0  0  0  0
   60.2657   28.9634   48.7892 N   0  0  0  0  0  0  0  0  0  0  0  0
   60.9823   29.9786   49.9992 S   0  0  0  0  0  0  0  0  0  0  0  0
   59.8921   30.6082   50.8227 O   0  0  0  0  0  0  0  0  0  0  0  0
   61.8823   29.1516   50.8752 O   0  0  0  0  0  0  0  0  0  0  0  0
   61.9279   31.2480   49.2280 C   0  0  0  0  0  0  0  0  0  0  0  0
   61.8881   31.4260   47.8359 C   0  0  0  0  0  0  0  0  0  0  0  0
   62.6369   32.4431   47.2362 C   0  0  0  0  0  0  0  0  0  0  0  0
   63.4245   33.2894   48.0232 C   0  0  0  0  0  0  0  0  0  0  0  0
   63.4727   33.1159   49.4104 C   0  0  0  0  0  0  0  0  0  0  0  0
   62.7254   32.0961   50.0122 C   0  0  0  0  0  0  0  0  0  0  0  0
   58.6819   28.8149   44.8968 C   0  0  0  0  0  0  0  0  0  0  0  0
   57.6413   29.8731   45.1058 C   0  0  0  0  0  0  0  0  0  0  0  0
   56.6643   29.9562   44.3113 O   0  0  0  0  0  0  0  0  0  0  0  0
   57.7860   30.8134   46.1798 N   0  0  0  0  0  0  0  0  0  0  0  0
   58.2486   32.0344   46.1256 C   0  0  0  0  0  0  0  0  0  0  0  0
   58.4049   32.5987   44.8935 N   0  0  0  0  0  0  0  0  0  0  0  0
   58.8757   33.8638   44.7204 C   0  0  0  0  0  0  0  0  0  0  0  0
   59.2289   34.6348   45.8282 C   0  0  0  0  0  0  0  0  0  0  0  0
   59.1128   34.0866   47.1066 C   0  0  0  0  0  0  0  0  0  0  0  0
   58.6326   32.7830   47.2732 C   0  0  0  0  0  0  0  0  0  0  0  0
   58.5926   32.2514   48.5614 O   0  0  0  0  0  0  0  0  0  0  0  0
  8 10  1  0
 10 11  2  0
 10 12  1  0
 12 13  1  0
 13 14  2  0
 13 15  2  0
 13 16  1  0
 16 17  2  0
 17 18  1  0
 18 19  2  0
 19 20  1  0
 20 21  2  0
  8  9  2  0
  9  1  1  0
  1  2  2  0
  2  3  1  0
  3  4  2  0
  4  5  1  0
  4  6  1  0
  6  7  2  0
  7 22  1  0
 22 23  1  0
 23 24  2  0
 23 25  1  0
 25 26  2  0
 26 27  1  0
 27 28  1  0
 28 29  2  0
 29 30  1  0
 30 31  2  0
 31 32  1  0
 21 16  1  0
  7  1  1  0
 31 26  1  0
M  CHG 1   5  -1
M  CHG 1  12  -1
M  CHG 1  27  -1
M  CHG 1  32  -1
M  END
> <UniqueID>
43

> <SMILES>
O=C(Cc1cc([O-])ccc1/C=C/C(=O)[N-]S(=O)(=O)c1ccccc1)N=c1[n-]cccc1[O-]

> <Energy>
64.89129943717535

> <Genealogy>
O=C(Cc1cc([O-])ccc1C=CC(=O)[N-]S(=O)(=O)c1ccccc1)N=c1[n-]cccc1[O-] (protonated)
O=C(Cc1cc([O-])ccc1/C=C/C(=O)[N-]S(=O)(=O)c1ccccc1)N=c1[n-]cccc1[O-] (cis-trans isomerization)
O=C(Cc1cc([O-])ccc1/C=C/C(=O)[N-]S(=O)(=O)c1ccccc1)N=c1[n-]cccc1[O-] (3D coordinates assigned)
O=C(Cc1cc([O-])ccc1/C=C/C(=O)[N-]S(=O)(=O)c1ccccc1)N=c1[n-]cccc1[O-] (optimized conformer: 64.89129943717535 kcal/mol)

> <smiles>
O=C(Cc1cc(O)ccc1C=CC(=O)NS(=O)(=O)c1ccccc1)N=c1[nH]cccc1O

> <score_type>
oracle

> <origin>
adg

> <m_score__min__energy>
-18.210000000000001

> <m_primary>
energy

> <minimizedAffinity>
-7.22964

> <minimizedRMSD>
1.01050

> <CNNscore>
0.7655493617

> <CNNaffinity>
6.8664956093

> <CNN_VS>
5.2566413879

> <CNNaffinity_variance>
0.0727928355

$$$$
62:0


 26 28  0  0  0  0  0  0  0  0999 V2000
   59.1400   27.2128   47.4844 C   0  0  0  0  0  0  0  0  0  0  0  0
   58.7599   27.8794   46.3829 C   0  0  0  0  0  0  0  0  0  0  0  0
   58.1440   27.3453   45.2390 C   0  0  0  0  0  0  0  0  0  0  0  0
   57.9578   26.0681   44.8501 C   0  0  0  0  0  0  0  0  0  0  0  0
   57.7197   28.4275   44.4867 C   0  0  0  0  0  0  0  0  0  0  0  0
   58.1430   29.5633   45.1427 C   0  0  0  0  0  0  0  0  0  0  0  0
   57.9067   30.9629   44.6587 C   0  0  0  0  0  0  0  0  0  0  0  0
   58.7736   29.2346   46.2930 N   0  0  0  0  0  0  0  0  0  0  0  0
   57.3145   25.0133   45.6480 C   0  0  0  0  0  0  0  0  0  0  0  0
   57.9525   23.9056   46.0655 N   0  0  0  0  0  0  0  0  0  0  0  0
   57.0394   23.2982   46.8531 C   0  0  0  0  0  0  0  0  0  0  0  0
   57.2628   22.2013   47.4279 O   0  0  0  0  0  0  0  0  0  0  0  0
   55.8719   23.9647   46.9873 N   0  0  0  0  0  0  0  0  0  0  0  0
   56.0688   25.0556   46.2301 C   0  0  0  0  0  0  0  0  0  0  0  0
   55.1390   26.0803   46.0970 O   0  0  0  0  0  0  0  0  0  0  0  0
   59.3208   30.1638   47.2458 C   0  0  0  0  0  0  0  0  0  0  0  0
   59.1113   29.9696   48.6188 C   0  0  0  0  0  0  0  0  0  0  0  0
   59.6625   30.8585   49.5459 C   0  0  0  0  0  0  0  0  0  0  0  0
   60.4242   31.9448   49.1103 C   0  0  0  0  0  0  0  0  0  0  0  0
   60.6334   32.1563   47.7381 C   0  0  0  0  0  0  0  0  0  0  0  0
   60.0817   31.2593   46.8092 C   0  0  0  0  0  0  0  0  0  0  0  0
   61.4826   33.3078   47.2626 C   0  0  0  0  0  0  0  0  0  0  0  0
   62.8175   33.3762   48.0121 C   0  0  0  0  0  0  0  0  0  0  0  0
   63.9136   32.9106   47.1658 N   0  0  0  0  0  0  0  0  0  0  0  0
   63.7474   31.9407   46.8973 H   0  0  0  0  0  0  0  0  0  0  0  0
   64.7917   32.9751   47.6807 H   0  0  0  0  0  0  0  0  0  0  0  0
  1  2  2  0
  2  3  1  0
  3  4  2  0
  4  9  1  0
  9 10  1  0
 10 11  1  0
 11 12  2  0
 11 13  1  0
 13 14  1  0
 14 15  1  0
  3  5  1  0
  5  6  2  0
  6  7  1  0
  6  8  1  0
  8 16  1  0
 16 17  2  0
 17 18  1  0
 18 19  2  0
 19 20  1  0
 20 22  1  0
 22 23  1  0
 23 24  1  0
 20 21  2  0
  8  2  1  0
 21 16  1  0
 14  9  2  0
 24 25  1  0
 24 26  1  0
M  CHG 1  10  -1
M  CHG 1  13  -1
M  CHG 1  15  -1
M  END
> <UniqueID>
58

> <SMILES>
C=c1/c(=C\c2[n-]c(=O)[n-]c2[O-])cc(C)n1-c1cccc(CCN)c1

> <Energy>
114.48398491920908

> <Genealogy>
C=c1c(=Cc2[n-]c(=O)[n-]c2[O-])cc(C)n1-c1cccc(CCN)c1 (protonated)
C=c1/c(=C\c2[n-]c(=O)[n-]c2[O-])cc(C)n1-c1cccc(CCN)c1 (cis-trans isomerization)
C=c1/c(=C\c2[n-]c(=O)[n-]c2[O-])cc(C)n1-c1cccc(CCN)c1 (3D coordinates assigned)
C=c1/c(=C\c2[n-]c(=O)[n-]c2[O-])cc(C)n1-c1cccc(CCN)c1 (optimized conformer: 114.48398491920908 kcal/mol)

> <smiles>
C=c1c(=Cc2[nH]c(=O)[nH]c2O)cc(C)n1-c1cccc(CCN)c1

> <score_type>
oracle

> <origin>
adg

> <m_score__min__energy>
-16.109999999999999

> <m_primary>
energy

> <minimizedAffinity>
-8.14427

> <minimizedRMSD>
0.95012

> <CNNscore>
0.1451909840

> <CNNaffinity>
6.4231829643

> <CNN_VS>
0.9325882792

> <CNNaffinity_variance>
0.2068604976

$$$$
63:0


 27 29  0  0  0  0  0  0  0  0999 V2000
   58.7304   30.3407   45.7435 C   0  0  0  0  0  0  0  0  0  0  0  0
   57.6736   31.1580   45.3176 C   0  0  0  0  0  0  0  0  0  0  0  0
   56.6880   30.6660   44.4691 O   0  0  0  0  0  0  0  0  0  0  0  0
   57.5947   32.4420   45.7448 N   0  0  0  0  0  0  0  0  0  0  0  0
   58.5196   32.9703   46.5818 C   0  0  0  0  0  0  0  0  0  0  0  0
   58.4020   34.1738   46.9404 O   0  0  0  0  0  0  0  0  0  0  0  0
   59.5736   32.2098   47.0161 N   0  0  0  0  0  0  0  0  0  0  0  0
   59.6938   30.9066   46.6028 C   0  0  0  0  0  0  0  0  0  0  0  0
   60.6778   30.2133   46.9832 O   0  0  0  0  0  0  0  0  0  0  0  0
   60.5582   32.7826   47.9009 C   0  0  0  0  0  0  0  0  0  0  0  0
   61.7972   33.2147   47.3981 C   0  0  0  0  0  0  0  0  0  0  0  0
   62.7499   33.7706   48.2581 C   0  0  0  0  0  0  0  0  0  0  0  0
   62.4742   33.8971   49.6218 C   0  0  0  0  0  0  0  0  0  0  0  0
   61.2445   33.4678   50.1296 C   0  0  0  0  0  0  0  0  0  0  0  0
   60.2883   32.9126   49.2737 C   0  0  0  0  0  0  0  0  0  0  0  0
   58.8232   28.9355   45.2803 C   0  0  0  0  0  0  0  0  0  0  0  0
   59.8380   28.5681   44.6265 O   0  0  0  0  0  0  0  0  0  0  0  0
   57.7280   27.9769   45.5430 C   0  0  0  0  0  0  0  0  0  0  0  0
   57.8641   26.9557   46.3997 C   0  0  0  0  0  0  0  0  0  0  0  0
   57.4965   25.5639   46.0550 C   0  0  0  0  0  0  0  0  0  0  0  0
   58.5296   24.6511   45.7797 C   0  0  0  0  0  0  0  0  0  0  0  0
   58.2358   23.3237   45.4501 C   0  0  0  0  0  0  0  0  0  0  0  0
   59.2664   22.4284   45.1936 O   0  0  0  0  0  0  0  0  0  0  0  0
   56.9079   22.8994   45.3786 C   0  0  0  0  0  0  0  0  0  0  0  0
   55.8705   23.8022   45.6226 C   0  0  0  0  0  0  0  0  0  0  0  0
   56.1546   25.1327   45.9475 C   0  0  0  0  0  0  0  0  0  0  0  0
   55.0982   26.0191   46.1274 O   0  0  0  0  0  0  0  0  0  0  0  0
 18 16  1  0
 16 17  2  0
 16  1  1  0
  1  2  2  0
  2  3  1  0
  2  4  1  0
  4  5  1  0
  5  6  2  0
  5  7  1  0
  7 10  1  0
 10 11  2  0
 11 12  1  0
 12 13  2  0
 13 14  1  0
 14 15  2  0
  7  8  1  0
  8  9  2  0
 18 19  2  0
 19 20  1  0
 20 21  2  0
 21 22  1  0
 22 23  1  0
 22 24  2  0
 24 25  1  0
 25 26  2  0
 26 27  1  0
  8  1  1  0
 26 20  1  0
 15 10  1  0
M  CHG 1   3  -1
M  CHG 1   4  -1
M  CHG 1  23  -1
M  CHG 1  27  -1
M  END
> <UniqueID>
59

> <SMILES>
O=C(/C=C/c1cc([O-])ccc1[O-])c1c([O-])[n-]c(=O)n(-c2ccccc2)c1=O

> <Energy>
61.72913955115778

> <Genealogy>
O=C(C=Cc1cc([O-])ccc1[O-])c1c([O-])[n-]c(=O)n(-c2ccccc2)c1=O (protonated)
O=C(/C=C/c1cc([O-])ccc1[O-])c1c([O-])[n-]c(=O)n(-c2ccccc2)c1=O (cis-trans isomerization)
O=C(/C=C/c1cc([O-])ccc1[O-])c1c([O-])[n-]c(=O)n(-c2ccccc2)c1=O (3D coordinates assigned)
O=C(/C=C/c1cc([O-])ccc1[O-])c1c([O-])[n-]c(=O)n(-c2ccccc2)c1=O (optimized conformer: 61.72913955115778 kcal/mol)

> <smiles>
O=C(C=Cc1cc(O)ccc1O)c1c(O)[nH]c(=O)n(-c2ccccc2)c1=O

> <score_type>
oracle

> <origin>
adg

> <m_score__min__energy>
-17.34

> <m_primary>
energy

> <minimizedAffinity>
-9.51403

> <minimizedRMSD>
0.73340

> <CNNscore>
0.6430583596

> <CNNaffinity>
6.7102856636

> <CNN_VS>
4.3151054382

> <CNNaffinity_variance>
0.3518769443

$$$$
70:0


 29 32  0  0  0  0  0  0  0  0999 V2000
   59.1591   26.4801   47.2800 C   0  0  0  0  0  0  0  0  0  0  0  0
   58.7199   27.2668   46.2840 C   0  0  0  0  0  0  0  0  0  0  0  0
   58.0890   26.8636   45.0935 C   0  0  0  0  0  0  0  0  0  0  0  0
   57.6139   25.6628   44.7040 C   0  0  0  0  0  0  0  0  0  0  0  0
   58.0035   27.9946   44.2980 C   0  0  0  0  0  0  0  0  0  0  0  0
   58.5179   29.0417   45.0329 C   0  0  0  0  0  0  0  0  0  0  0  0
   58.6040   30.4581   44.5495 C   0  0  0  0  0  0  0  0  0  0  0  0
   58.9543   28.6040   46.2347 N   0  0  0  0  0  0  0  0  0  0  0  0
   57.1538   24.5876   45.6040 C   0  0  0  0  0  0  0  0  0  0  0  0
   55.9461   24.7217   46.3032 C   0  0  0  0  0  0  0  0  0  0  0  0
   55.1424   25.8404   46.1200 O   0  0  0  0  0  0  0  0  0  0  0  0
   55.5486   23.7484   47.1626 N   0  0  0  0  0  0  0  0  0  0  0  0
   56.3112   22.6451   47.3734 C   0  0  0  0  0  0  0  0  0  0  0  0
   55.9200   21.7535   48.1707 O   0  0  0  0  0  0  0  0  0  0  0  0
   57.4976   22.5043   46.7285 N   0  0  0  0  0  0  0  0  0  0  0  0
   57.9402   23.4507   45.8606 C   0  0  0  0  0  0  0  0  0  0  0  0
   59.0566   23.2978   45.2979 O   0  0  0  0  0  0  0  0  0  0  0  0
   59.5673   29.4165   47.2523 C   0  0  0  0  0  0  0  0  0  0  0  0
   59.0252   29.4552   48.5439 C   0  0  0  0  0  0  0  0  0  0  0  0
   59.6134   30.2503   49.5312 C   0  0  0  0  0  0  0  0  0  0  0  0
   60.7605   31.0112   49.2445 C   0  0  0  0  0  0  0  0  0  0  0  0
   61.2896   30.9822   47.9434 C   0  0  0  0  0  0  0  0  0  0  0  0
   60.6993   30.1884   46.9563 C   0  0  0  0  0  0  0  0  0  0  0  0
   61.3714   31.8478   50.2987 C   0  0  0  0  0  0  0  0  0  0  0  0
   60.9128   33.0011   50.5179 O   0  0  0  0  0  0  0  0  0  0  0  0
   62.4420   31.3641   51.1146 N   0  0  0  0  0  0  0  0  0  0  0  0
   63.1505   30.1001   51.3933 C   0  0  0  0  0  0  0  0  0  0  0  0
   63.9457   30.6137   52.5465 C   0  0  0  0  0  0  0  0  0  0  0  0
   63.2275   31.8870   52.2466 C   0  0  0  0  0  0  0  0  0  0  0  0
  1  2  2  0
  2  3  1  0
  3  4  2  0
  4  9  1  0
  9 10  2  0
 10 11  1  0
 10 12  1  0
 12 13  1  0
 13 14  2  0
 13 15  1  0
 15 16  1  0
 16 17  2  0
  3  5  1  0
  5  6  2  0
  6  7  1  0
  6  8  1  0
  8 18  1  0
 18 19  2  0
 19 20  1  0
 20 21  2  0
 21 24  1  0
 24 25  2  0
 24 26  1  0
 26 27  1  0
 27 28  1  0
 28 29  1  0
 21 22  1  0
 22 23  2  0
  8  2  1  0
 23 18  1  0
 16  9  1  0
 29 26  1  0
M  CHG 1  11  -1
M  CHG 1  12  -1
M  CHG 1  15  -1
M  END
> <UniqueID>
66

> <SMILES>
C=c1c(=Cc2c([O-])[n-]c(=O)[n-]c2=O)cc(C)n1-c1ccc(C(=O)N2CCC2)cc1

> <Energy>
144.80737775380442

> <Genealogy>
C=c1c(=Cc2c([O-])[n-]c(=O)[n-]c2=O)cc(C)n1-c1ccc(C(=O)N2CCC2)cc1 (protonated)
C=c1c(=Cc2c([O-])[n-]c(=O)[n-]c2=O)cc(C)n1-c1ccc(C(=O)N2CCC2)cc1 (3D coordinates assigned)
C=c1c(=Cc2c([O-])[n-]c(=O)[n-]c2=O)cc(C)n1-c1ccc(C(=O)N2CCC2)cc1 (nonaromatic ring conformer: 144.80737775380442 kcal/mol)

> <smiles>
C=c1c(=Cc2c(O)[nH]c(=O)[nH]c2=O)cc(C)n1-c1ccc(C(=O)N2CCC2)cc1

> <score_type>
oracle

> <origin>
adg

> <m_score__min__energy>
-15.98

> <m_primary>
energy

> <minimizedAffinity>
-8.37472

> <minimizedRMSD>
1.99835

> <CNNscore>
0.1615628153

> <CNNaffinity>
6.1222152710

> <CNN_VS>
0.9891223311

> <CNNaffinity_variance>
0.0904826596

$$$$
87:0


 29 31  0  0  0  0  0  0  0  0999 V2000
   58.4253   33.3329   46.1515 C   0  0  0  0  0  0  0  0  0  0  0  0
   58.6861   34.0429   44.9719 C   0  0  0  0  0  0  0  0  0  0  0  0
   58.4881   33.4442   43.7255 C   0  0  0  0  0  0  0  0  0  0  0  0
   58.0104   32.1337   43.6460 C   0  0  0  0  0  0  0  0  0  0  0  0
   57.7148   31.4209   44.8139 C   0  0  0  0  0  0  0  0  0  0  0  0
   57.9128   32.0235   46.0653 C   0  0  0  0  0  0  0  0  0  0  0  0
   60.5636   33.9291   50.3826 C   0  0  0  0  0  0  0  0  0  0  0  0
   59.4933   34.0394   49.5563 N   0  0  0  0  0  0  0  0  0  0  0  0
   59.6289   33.9099   48.2075 C   0  0  0  0  0  0  0  0  0  0  0  0
   58.6043   33.9996   47.4118 N   0  0  0  0  0  0  0  0  0  0  0  0
   60.8536   33.6423   47.6814 N   0  0  0  0  0  0  0  0  0  0  0  0
   61.9578   33.5192   48.4677 C   0  0  0  0  0  0  0  0  0  0  0  0
   61.8262   33.6682   49.8563 C   0  0  0  0  0  0  0  0  0  0  0  0
   63.2715   33.2373   47.8509 C   0  0  0  0  0  0  0  0  0  0  0  0
   63.4656   33.4941   46.6324 O   0  0  0  0  0  0  0  0  0  0  0  0
   64.3352   32.6719   48.6207 N   0  0  0  0  0  0  0  0  0  0  0  0
   64.1978   32.4662   49.5736 H   0  0  0  0  0  0  0  0  0  0  0  0
   65.2051   32.4882   48.1978 H   0  0  0  0  0  0  0  0  0  0  0  0
   57.0774   29.7846   44.6944 S   0  0  0  0  0  0  0  0  0  0  0  0
   57.6718   29.0580   43.5208 O   0  0  0  0  0  0  0  0  0  0  0  0
   55.5873   29.8571   44.5118 O   0  0  0  0  0  0  0  0  0  0  0  0
   57.4285   28.9074   46.1495 N   0  0  0  0  0  0  0  0  0  0  0  0
   58.1343   27.6602   46.2177 C   0  0  0  0  0  0  0  0  0  0  0  0
   59.5408   27.6026   46.2861 C   0  0  0  0  0  0  0  0  0  0  0  0
   60.1920   26.3678   46.3528 C   0  0  0  0  0  0  0  0  0  0  0  0
   59.4530   25.1831   46.3468 C   0  0  0  0  0  0  0  0  0  0  0  0
   58.0584   25.2315   46.2715 C   0  0  0  0  0  0  0  0  0  0  0  0
   57.4001   26.4646   46.2070 C   0  0  0  0  0  0  0  0  0  0  0  0
   56.0121   26.4976   46.1357 O   0  0  0  0  0  0  0  0  0  0  0  0
  7  8  1  0
  8  9  1  0
  9 10  2  0
 10  1  1  0
  1  2  2  0
  2  3  1  0
  3  4  2  0
  4  5  1  0
  5 19  1  0
 19 20  2  0
 19 21  2  0
 19 22  1  0
 22 23  1  0
 23 24  2  0
 24 25  1  0
 25 26  2  0
 26 27  1  0
 27 28  2  0
 28 29  1  0
  5  6  2  0
  9 11  1  0
 11 12  2  0
 12 14  1  0
 14 15  2  0
 14 16  1  0
 12 13  1  0
 13  7  2  0
  6  1  1  0
 28 23  1  0
 16 17  1  0
 16 18  1  0
M  CHG 1   8  -1
M  CHG 1  22  -1
M  CHG 1  29  -1
M  END
> <UniqueID>
81

> <SMILES>
NC(=O)c1cc[n-]/c(=N\c2cccc(S(=O)(=O)[N-]c3ccccc3[O-])c2)n1

> <Energy>
51.45296019806338

> <Genealogy>
NC(=O)c1cc[n-]c(=Nc2cccc(S(=O)(=O)[N-]c3ccccc3[O-])c2)n1 (protonated)
NC(=O)c1cc[n-]/c(=N\c2cccc(S(=O)(=O)[N-]c3ccccc3[O-])c2)n1 (cis-trans isomerization)
NC(=O)c1cc[n-]/c(=N\c2cccc(S(=O)(=O)[N-]c3ccccc3[O-])c2)n1 (3D coordinates assigned)
NC(=O)c1cc[n-]/c(=N\c2cccc(S(=O)(=O)[N-]c3ccccc3[O-])c2)n1 (optimized conformer: 51.45296019806338 kcal/mol)

> <smiles>
NC(=O)c1cc[nH]c(=Nc2cccc(S(=O)(=O)Nc3ccccc3O)c2)n1

> <score_type>
oracle

> <origin>
adg

> <m_score__min__energy>
-15.960000000000001

> <m_primary>
energy

> <minimizedAffinity>
-7.33601

> <minimizedRMSD>
1.00334

> <CNNscore>
0.2859581709

> <CNNaffinity>
5.7898917198

> <CNN_VS>
1.6556668282

> <CNNaffinity_variance>
0.2042733878

$$$$
2:0


 32 35  0  0  0  0  0  0  0  0999 V2000
   57.8885   32.0671   43.7920 C   0  0  0  0  0  0  0  0  0  0  0  0
   58.4479   31.8069   44.9753 C   0  0  0  0  0  0  0  0  0  0  0  0
   58.7533   32.7747   46.0012 C   0  0  0  0  0  0  0  0  0  0  0  0
   58.5549   34.0176   45.9377 O   0  0  0  0  0  0  0  0  0  0  0  0
   59.3334   32.0483   47.1197 C   0  0  0  0  0  0  0  0  0  0  0  0
   59.7861   32.6298   48.2393 C   0  0  0  0  0  0  0  0  0  0  0  0
   59.4143   30.6343   46.8613 N   0  0  0  0  0  0  0  0  0  0  0  0
   58.8714   30.5116   45.5279 C   0  0  0  0  0  0  0  0  0  0  0  0
   58.8352   29.3446   44.8613 C   0  0  0  0  0  0  0  0  0  0  0  0
   59.7565   29.9234   47.4502 H   0  0  0  0  0  0  0  0  0  0  0  0
   59.3200   29.8924   46.2210 H   0  0  0  0  0  0  0  0  0  0  0  0
   58.4588   28.0761   45.5135 C   0  0  0  0  0  0  0  0  0  0  0  0
   57.1198   27.6546   45.5688 C   0  0  0  0  0  0  0  0  0  0  0  0
   56.1122   28.4154   44.9898 O   0  0  0  0  0  0  0  0  0  0  0  0
   56.8053   26.4815   46.1774 N   0  0  0  0  0  0  0  0  0  0  0  0
   57.7656   25.6948   46.7238 C   0  0  0  0  0  0  0  0  0  0  0  0
   57.4487   24.6150   47.2852 O   0  0  0  0  0  0  0  0  0  0  0  0
   59.0685   26.0703   46.6624 N   0  0  0  0  0  0  0  0  0  0  0  0
   59.4363   27.2349   46.0678 C   0  0  0  0  0  0  0  0  0  0  0  0
   60.6551   27.5529   46.0267 O   0  0  0  0  0  0  0  0  0  0  0  0
   61.2216   32.8439   48.4822 C   0  0  0  0  0  0  0  0  0  0  0  0
   62.0233   33.2840   47.4175 C   0  0  0  0  0  0  0  0  0  0  0  0
   63.3979   33.4520   47.5920 C   0  0  0  0  0  0  0  0  0  0  0  0
   63.9836   33.1903   48.8306 C   0  0  0  0  0  0  0  0  0  0  0  0
   63.1945   32.7701   49.9037 C   0  0  0  0  0  0  0  0  0  0  0  0
   61.8087   32.5972   49.7461 C   0  0  0  0  0  0  0  0  0  0  0  0
   61.0091   32.2267   50.8865 N   0  0  0  0  0  0  0  0  0  0  0  0
   60.5182   30.8510   51.0284 C   0  0  0  0  0  0  0  0  0  0  0  0
   59.2071   30.8435   51.8191 C   0  0  0  0  0  0  0  0  0  0  0  0
   58.4211   31.9552   51.4381 O   0  0  0  0  0  0  0  0  0  0  0  0
   58.9756   33.1613   51.9434 C   0  0  0  0  0  0  0  0  0  0  0  0
   60.5142   33.2458   51.8172 C   0  0  0  0  0  0  0  0  0  0  0  0
  1  2  2  0
  2  3  1  0
  3  4  2  0
  3  5  1  0
  5  6  2  0
  6 21  1  0
 21 22  2  0
 22 23  1  0
 23 24  2  0
 24 25  1  0
 25 26  2  0
 26 27  1  0
 27 28  1  0
 28 29  1  0
 29 30  1  0
 30 31  1  0
 31 32  1  0
  5  7  1  0
  7  8  1  0
  8  9  2  0
  9 12  1  0
 12 13  2  0
 13 14  1  0
 13 15  1  0
 15 16  1  0
 16 17  2  0
 16 18  1  0
 18 19  1  0
 19 20  2  0
  8  2  1  0
 19 12  1  0
 26 21  1  0
 32 27  1  0
  7 10  1  0
  7 11  1  0
M  CHG 1   7   1
M  CHG 1  14  -1
M  CHG 1  15  -1
M  CHG 1  18  -1
M  END
> <UniqueID>
2

> <SMILES>
C=C1C(=O)/C(=C/c2ccccc2N2CCOCC2)[NH2+]C1=Cc1c([O-])[n-]c(=O)[n-]c1=O

> <Energy>
97.0274098536032

> <Genealogy>
C=C1C(=O)C(=Cc2ccccc2N2CCOCC2)[NH2+]C1=Cc1c([O-])[n-]c(=O)[n-]c1=O (protonated)
C=C1C(=O)/C(=C/c2ccccc2N2CCOCC2)[NH2+]C1=Cc1c([O-])[n-]c(=O)[n-]c1=O (cis-trans isomerization)
C=C1C(=O)/C(=C/c2ccccc2N2CCOCC2)[NH2+]C1=Cc1c([O-])[n-]c(=O)[n-]c1=O (3D coordinates assigned)
C=C1C(=O)/C(=C/c2ccccc2N2CCOCC2)[NH2+]C1=Cc1c([O-])[n-]c(=O)[n-]c1=O (nonaromatic ring conformer: 97.0274098536032 kcal/mol)

> <smiles>
C=C1C(=O)C(=Cc2ccccc2N2CCOCC2)NC1=Cc1c(O)[nH]c(=O)[nH]c1=O

> <score_type>
oracle

> <origin>
adg

> <m_score__min__energy>
-14.640000000000001

> <m_primary>
energy

> <minimizedAffinity>
-8.15060

> <minimizedRMSD>
2.04047

> <CNNscore>
0.1345962584

> <CNNaffinity>
6.2553615570

> <CNN_VS>
0.8419482708

> <CNNaffinity_variance>
0.1727554351

$$$$
7:0


 23 24  0  0  0  0  0  0  0  0999 V2000
   58.1399   29.5568   44.7144 C   0  0  0  0  0  0  0  0  0  0  0  0
   60.0405   32.4030   47.3535 C   0  0  0  0  0  0  0  0  0  0  0  0
   60.5192   31.0833   47.2709 C   0  0  0  0  0  0  0  0  0  0  0  0
   59.9070   30.1623   46.4157 C   0  0  0  0  0  0  0  0  0  0  0  0
   58.8132   30.5474   45.6259 C   0  0  0  0  0  0  0  0  0  0  0  0
   58.3351   31.8631   45.7096 C   0  0  0  0  0  0  0  0  0  0  0  0
   58.9464   32.7829   46.5667 C   0  0  0  0  0  0  0  0  0  0  0  0
   60.6319   33.3815   48.2208 N   0  0  0  0  0  0  0  0  0  0  0  0
   63.3774   33.4486   47.3534 C   0  0  0  0  0  0  0  0  0  0  0  0
   62.2823   33.3940   48.7543 S   0  0  0  0  0  0  0  0  0  0  0  0
   62.5227   34.5737   49.6542 O   0  0  0  0  0  0  0  0  0  0  0  0
   62.5499   32.1358   49.5300 O   0  0  0  0  0  0  0  0  0  0  0  0
   57.3699   28.5902   45.4875 N   0  0  0  0  0  0  0  0  0  0  0  0
   57.8330   27.2702   45.7940 C   0  0  0  0  0  0  0  0  0  0  0  0
   58.3401   27.0125   46.9185 O   0  0  0  0  0  0  0  0  0  0  0  0
   57.7546   26.1997   44.7533 C   0  0  0  0  0  0  0  0  0  0  0  0
   57.2832   24.9214   45.3710 C   0  0  0  0  0  0  0  0  0  0  0  0
   58.2077   23.5208   45.5286 S   0  0  0  0  0  0  0  0  0  0  0  0
   56.9852   22.7084   46.3485 C   0  0  0  0  0  0  0  0  0  0  0  0
   57.0727   21.5234   46.7601 O   0  0  0  0  0  0  0  0  0  0  0  0
   55.8848   23.4692   46.5284 N   0  0  0  0  0  0  0  0  0  0  0  0
   56.0531   24.7059   45.9890 C   0  0  0  0  0  0  0  0  0  0  0  0
   55.0595   25.6733   46.0573 O   0  0  0  0  0  0  0  0  0  0  0  0
  9 10  1  0
 10 11  2  0
 10 12  2  0
 10  8  1  0
  8  2  1  0
  2  3  2  0
  3  4  1  0
  4  5  2  0
  5  1  1  0
  1 13  1  0
 13 14  1  0
 14 15  2  0
 14 16  1  0
 16 17  1  0
 17 18  1  0
 18 19  1  0
 19 20  2  0
 19 21  1  0
 21 22  1  0
 22 23  1  0
  5  6  1  0
  6  7  2  0
  7  2  1  0
 22 17  2  0
M  CHG 1   8  -1
M  CHG 1  13  -1
M  CHG 1  21  -1
M  CHG 1  23  -1
M  END
> <UniqueID>
7

> <SMILES>
CS(=O)(=O)[N-]c1ccc(C[N-]C(=O)Cc2sc(=O)[n-]c2[O-])cc1

> <Energy>
59.40043523529119

> <Genealogy>
CS(=O)(=O)[N-]c1ccc(C[N-]C(=O)Cc2sc(=O)[n-]c2[O-])cc1 (protonated)
CS(=O)(=O)[N-]c1ccc(C[N-]C(=O)Cc2sc(=O)[n-]c2[O-])cc1 (3D coordinates assigned)
CS(=O)(=O)[N-]c1ccc(C[N-]C(=O)Cc2sc(=O)[n-]c2[O-])cc1 (optimized conformer: 59.40043523529119 kcal/mol)

> <smiles>
CS(=O)(=O)Nc1ccc(CNC(=O)Cc2sc(=O)[nH]c2O)cc1

> <score_type>
oracle

> <origin>
adg

> <m_score__min__energy>
-15.81

> <m_primary>
energy

> <minimizedAffinity>
-6.61199

> <minimizedRMSD>
1.24249

> <CNNscore>
0.7283487916

> <CNNaffinity>
6.6481976509

> <CNN_VS>
4.8422069550

> <CNNaffinity_variance>
0.6652002931

$$$$
12:0


 28 30  0  0  0  0  0  0  0  0999 V2000
   60.8012   30.0681   48.3580 N   0  0  0  0  0  0  0  0  0  0  0  0
   60.1504   29.2604   47.5670 C   0  0  0  0  0  0  0  0  0  0  0  0
   59.2524   28.2833   48.0467 C   0  0  0  0  0  0  0  0  0  0  0  0
   58.5928   27.4493   47.1425 C   0  0  0  0  0  0  0  0  0  0  0  0
   58.8137   27.5892   45.7672 C   0  0  0  0  0  0  0  0  0  0  0  0
   59.6808   28.5971   45.3248 C   0  0  0  0  0  0  0  0  0  0  0  0
   60.3187   29.3948   46.2231 N   0  0  0  0  0  0  0  0  0  0  0  0
   60.2674   31.4523   50.1483 O   0  0  0  0  0  0  0  0  0  0  0  0
   60.3317   31.3122   48.8985 C   0  0  0  0  0  0  0  0  0  0  0  0
   59.8653   32.3967   48.0163 C   0  0  0  0  0  0  0  0  0  0  0  0
   59.6111   33.5285   48.5087 O   0  0  0  0  0  0  0  0  0  0  0  0
   59.6525   32.1583   46.6180 N   0  0  0  0  0  0  0  0  0  0  0  0
   60.1130   31.4039   46.1844 H   0  0  0  0  0  0  0  0  0  0  0  0
   58.7694   33.0068   45.8207 C   0  0  0  0  0  0  0  0  0  0  0  0
   58.0125   32.1660   44.8252 C   0  0  0  0  0  0  0  0  0  0  0  0
   58.1092   32.4480   43.4521 C   0  0  0  0  0  0  0  0  0  0  0  0
   57.4739   31.6260   42.5173 C   0  0  0  0  0  0  0  0  0  0  0  0
   56.7426   30.5145   42.9462 C   0  0  0  0  0  0  0  0  0  0  0  0
   56.6436   30.2251   44.3089 C   0  0  0  0  0  0  0  0  0  0  0  0
   57.2771   31.0458   45.2477 C   0  0  0  0  0  0  0  0  0  0  0  0
   58.0761   26.7244   44.7837 C   0  0  0  0  0  0  0  0  0  0  0  0
   57.6283   25.4583   45.4434 C   0  0  0  0  0  0  0  0  0  0  0  0
   58.5187   24.0294   45.5065 S   0  0  0  0  0  0  0  0  0  0  0  0
   57.2813   23.1975   46.2826 C   0  0  0  0  0  0  0  0  0  0  0  0
   57.3506   21.9896   46.6309 O   0  0  0  0  0  0  0  0  0  0  0  0
   56.1905   23.9633   46.4925 N   0  0  0  0  0  0  0  0  0  0  0  0
   56.3811   25.2215   46.0186 C   0  0  0  0  0  0  0  0  0  0  0  0
   55.3900   26.1920   46.1062 O   0  0  0  0  0  0  0  0  0  0  0  0
  8  9  2  0
  9  1  1  0
  1  2  2  0
  2  3  1  0
  3  4  2  0
  4  5  1  0
  5 21  1  0
 21 22  1  0
 22 23  1  0
 23 24  1  0
 24 25  2  0
 24 26  1  0
 26 27  1  0
 27 28  1  0
  5  6  2  0
  6  7  1  0
  9 10  1  0
 10 11  2  0
 10 12  1  0
 12 14  1  0
 14 15  1  0
 15 16  2  0
 16 17  1  0
 17 18  2  0
 18 19  1  0
 19 20  2  0
  7  2  1  0
 20 15  1  0
 27 22  2  0
 12 13  1  0
M  CHG 1   7  -1
M  CHG 1  26  -1
M  CHG 1  28  -1
M  END
> <UniqueID>
11

> <SMILES>
O=C(N=c1ccc(Cc2sc(=O)[n-]c2[O-])c[n-]1)C(=O)NCc1ccccc1

> <Energy>
77.40600058123204

> <Genealogy>
O=C(N=c1ccc(Cc2sc(=O)[n-]c2[O-])c[n-]1)C(=O)NCc1ccccc1 (protonated)
O=C(N=c1ccc(Cc2sc(=O)[n-]c2[O-])c[n-]1)C(=O)NCc1ccccc1 (3D coordinates assigned)
O=C(N=c1ccc(Cc2sc(=O)[n-]c2[O-])c[n-]1)C(=O)NCc1ccccc1 (optimized conformer: 77.40600058123204 kcal/mol)

> <smiles>
O=C(N=c1ccc(Cc2sc(=O)[nH]c2O)c[nH]1)C(=O)NCc1ccccc1

> <score_type>
oracle

> <origin>
adg

> <m_score__min__energy>
-16.300000000000001

> <m_primary>
energy

> <minimizedAffinity>
-7.03321

> <minimizedRMSD>
0.98133

> <CNNscore>
0.1313937306

> <CNNaffinity>
6.0360236168

> <CNN_VS>
0.7930956483

> <CNNaffinity_variance>
0.0427125357

$$$$
14:0


 26 30  0  0  0  0  0  0  0  0999 V2000
   60.1516   26.9652   46.5432 C   0  0  0  0  0  0  0  0  0  0  0  0
   60.2627   27.6062   47.7162 C   0  0  0  0  0  0  0  0  0  0  0  0
   60.6281   27.1084   48.9672 C   0  0  0  0  0  0  0  0  0  0  0  0
   60.6543   28.1164   49.8721 N   0  0  0  0  0  0  0  0  0  0  0  0
   60.3217   29.2262   49.2309 N   0  0  0  0  0  0  0  0  0  0  0  0
   60.2131   30.4978   49.7105 C   0  0  0  0  0  0  0  0  0  0  0  0
   60.4259   30.8117   50.9570 N   0  0  0  0  0  0  0  0  0  0  0  0
   59.8583   31.4794   48.8351 N   0  0  0  0  0  0  0  0  0  0  0  0
   59.6218   31.1994   47.5168 C   0  0  0  0  0  0  0  0  0  0  0  0
   59.7395   29.9183   47.0626 N   0  0  0  0  0  0  0  0  0  0  0  0
   60.0896   28.9534   47.9430 C   0  0  0  0  0  0  0  0  0  0  0  0
   59.0831   26.0001   46.2325 C   0  0  0  0  0  0  0  0  0  0  0  0
   59.2738   24.6694   46.2166 N   0  0  0  0  0  0  0  0  0  0  0  0
   58.0804   24.1835   45.8153 C   0  0  0  0  0  0  0  0  0  0  0  0
   57.8574   22.9523   45.6865 O   0  0  0  0  0  0  0  0  0  0  0  0
   57.1477   25.1234   45.5502 N   0  0  0  0  0  0  0  0  0  0  0  0
   57.7997   26.2677   45.8070 C   0  0  0  0  0  0  0  0  0  0  0  0
   57.2477   27.5274   45.6062 O   0  0  0  0  0  0  0  0  0  0  0  0
   59.2412   32.2804   46.5892 C   0  0  0  0  0  0  0  0  0  0  0  0
   58.2112   32.1638   45.6591 C   0  0  0  0  0  0  0  0  0  0  0  0
   58.1088   33.6094   44.8079 S   0  0  0  0  0  0  0  0  0  0  0  0
   59.3608   34.3974   45.6016 C   0  0  0  0  0  0  0  0  0  0  0  0
   59.8822   33.5318   46.5526 C   0  0  0  0  0  0  0  0  0  0  0  0
   61.4557   31.7141   51.4629 C   0  0  0  0  0  0  0  0  0  0  0  0
   62.1647   32.4647   50.3514 C   0  0  0  0  0  0  0  0  0  0  0  0
   61.1557   33.1840   51.2312 C   0  0  0  0  0  0  0  0  0  0  0  0
  1 12  1  0
 12 13  1  0
 13 14  1  0
 14 15  2  0
 14 16  1  0
 16 17  1  0
 17 18  1  0
  1  2  2  0
  2  3  1  0
  3  4  2  0
  4  5  1  0
  5  6  1  0
  6  7  2  0
  7 24  1  0
 24 25  1  0
 25 26  1  0
  6  8  1  0
  8  9  2  0
  9 19  1  0
 19 20  2  0
 20 21  1  0
 21 22  1  0
 22 23  2  0
  9 10  1  0
 10 11  2  0
 17 12  2  0
 11  2  1  0
 11  5  1  0
 26 24  1  0
 23 19  1  0
M  CHG 1  13  -1
M  CHG 1  16  -1
M  CHG 1  18  -1
M  END
> <UniqueID>
13

> <SMILES>
O=c1[n-]c([O-])c(C=c2cnn3/c(=N\C4CC4)nc(-c4ccsc4)nc23)[n-]1

> <Energy>
407.8816305945884

> <Genealogy>
O=c1[n-]c([O-])c(C=c2cnn3c(=NC4CC4)nc(-c4ccsc4)nc23)[n-]1 (protonated)
O=c1[n-]c([O-])c(C=c2cnn3/c(=N\C4CC4)nc(-c4ccsc4)nc23)[n-]1 (cis-trans isomerization)
O=c1[n-]c([O-])c(C=c2cnn3/c(=N\C4CC4)nc(-c4ccsc4)nc23)[n-]1 (3D coordinates assigned)
O=c1[n-]c([O-])c(C=c2cnn3/c(=N\C4CC4)nc(-c4ccsc4)nc23)[n-]1 (nonaromatic ring conformer: 407.8816305945884 kcal/mol)

> <smiles>
O=c1[nH]c(O)c(C=c2cnn3c(=NC4CC4)nc(-c4ccsc4)nc23)[nH]1

> <score_type>
oracle

> <origin>
adg

> <m_score__min__energy>
-15.75

> <m_primary>
energy

> <minimizedAffinity>
-7.49493

> <minimizedRMSD>
1.97840

> <CNNscore>
0.5434596539

> <CNNaffinity>
6.6673736572

> <CNN_VS>
3.6234486103

> <CNNaffinity_variance>
0.0483206920

$$$$
21:0


 26 28  0  0  0  0  0  0  0  0999 V2000
   57.6041   28.9170   45.5235 C   0  0  0  0  0  0  0  0  0  0  0  0
   57.2489   27.6013   45.2028 C   0  0  0  0  0  0  0  0  0  0  0  0
   57.6871   26.5603   46.0346 C   0  0  0  0  0  0  0  0  0  0  0  0
   58.4767   26.8549   47.1023 N   0  0  0  0  0  0  0  0  0  0  0  0
   58.8323   28.1343   47.3870 C   0  0  0  0  0  0  0  0  0  0  0  0
   59.5643   28.3756   48.3810 O   0  0  0  0  0  0  0  0  0  0  0  0
   58.3992   29.1521   46.5991 N   0  0  0  0  0  0  0  0  0  0  0  0
   57.3532   25.1453   45.7469 C   0  0  0  0  0  0  0  0  0  0  0  0
   58.3951   24.2351   45.4910 C   0  0  0  0  0  0  0  0  0  0  0  0
   58.1164   22.8955   45.2115 C   0  0  0  0  0  0  0  0  0  0  0  0
   56.7954   22.4410   45.1912 C   0  0  0  0  0  0  0  0  0  0  0  0
   56.5326   21.1031   44.9078 O   0  0  0  0  0  0  0  0  0  0  0  0
   55.7503   23.3331   45.4603 C   0  0  0  0  0  0  0  0  0  0  0  0
   56.0215   24.6760   45.7457 C   0  0  0  0  0  0  0  0  0  0  0  0
   54.9619   25.5220   46.0545 O   0  0  0  0  0  0  0  0  0  0  0  0
   57.2394   20.5145   44.7290 H   0  0  0  0  0  0  0  0  0  0  0  0
   55.9451   30.1459   44.3946 O   0  0  0  0  0  0  0  0  0  0  0  0
   57.1640   30.0483   44.6930 C   0  0  0  0  0  0  0  0  0  0  0  0
   58.0835   31.0193   44.1717 N   0  0  0  0  0  0  0  0  0  0  0  0
   57.8510   32.4603   44.0987 C   0  0  0  0  0  0  0  0  0  0  0  0
   58.4561   33.1588   45.2880 C   0  0  0  0  0  0  0  0  0  0  0  0
   59.1194   34.3862   45.1207 C   0  0  0  0  0  0  0  0  0  0  0  0
   59.7059   35.0253   46.2161 C   0  0  0  0  0  0  0  0  0  0  0  0
   59.6347   34.4468   47.4862 C   0  0  0  0  0  0  0  0  0  0  0  0
   58.9743   33.2270   47.6631 C   0  0  0  0  0  0  0  0  0  0  0  0
   58.3830   32.5857   46.5699 C   0  0  0  0  0  0  0  0  0  0  0  0
 17 18  2  0
 18 19  1  0
 19 20  1  0
 20 21  1  0
 21 22  2  0
 22 23  1  0
 23 24  2  0
 24 25  1  0
 25 26  2  0
 18  1  1  0
  1  2  1  0
  2  3  2  0
  3  8  1  0
  8  9  2  0
  9 10  1  0
 10 11  2  0
 11 12  1  0
 11 13  1  0
 13 14  2  0
 14 15  1  0
  3  4  1  0
  4  5  1  0
  5  6  2  0
  5  7  1  0
 26 21  1  0
  7  1  2  0
 14  8  1  0
 12 16  1  0
M  CHG 1   4  -1
M  CHG 1  15  -1
M  CHG 1  19  -1
M  END
> <UniqueID>
19

> <SMILES>
O=C([N-]Cc1ccccc1)c1cc(-c2ccc(O)cc2[O-])[n-]c(=O)n1

> <Energy>
47.927969352200535

> <Genealogy>
O=C([N-]Cc1ccccc1)c1cc(-c2ccc(O)cc2[O-])[n-]c(=O)n1 (protonated)
O=C([N-]Cc1ccccc1)c1cc(-c2ccc(O)cc2[O-])[n-]c(=O)n1 (3D coordinates assigned)
O=C([N-]Cc1ccccc1)c1cc(-c2ccc(O)cc2[O-])[n-]c(=O)n1 (optimized conformer: 47.927969352200535 kcal/mol)

> <smiles>
O=C(NCc1ccccc1)c1cc(-c2ccc(O)cc2O)[nH]c(=O)n1

> <score_type>
oracle

> <origin>
adg

> <m_score__min__energy>
-14.85

> <m_primary>
energy

> <minimizedAffinity>
-8.62802

> <minimizedRMSD>
0.72463

> <CNNscore>
0.5759794116

> <CNNaffinity>
6.2253813744

> <CNN_VS>
3.5856914520

> <CNNaffinity_variance>
0.0147211142

$$$$
25:0


 23 24  0  0  0  0  0  0  0  0999 V2000
   56.7886   29.4094   44.8502 C   0  0  0  0  0  0  0  0  0  0  0  0
   56.0188   30.3204   44.4474 O   0  0  0  0  0  0  0  0  0  0  0  0
   58.2481   29.7165   45.0281 C   0  0  0  0  0  0  0  0  0  0  0  0
   58.4476   31.3936   45.7239 S   0  0  0  0  0  0  0  0  0  0  0  0
   60.5787   31.6240   47.5286 N   0  0  0  0  0  0  0  0  0  0  0  0
   59.5345   30.9035   47.0683 C   0  0  0  0  0  0  0  0  0  0  0  0
   59.3591   29.7726   47.7811 N   0  0  0  0  0  0  0  0  0  0  0  0
   60.2940   29.7526   48.7204 N   0  0  0  0  0  0  0  0  0  0  0  0
   61.0144   30.8764   48.5616 C   0  0  0  0  0  0  0  0  0  0  0  0
   61.9736   31.1970   49.3121 O   0  0  0  0  0  0  0  0  0  0  0  0
   61.0565   32.9389   47.0905 C   0  0  0  0  0  0  0  0  0  0  0  0
   59.4811   34.8793   46.6141 C   0  0  0  0  0  0  0  0  0  0  0  0
   60.2159   34.0796   47.6855 C   0  0  0  0  0  0  0  0  0  0  0  0
   56.2230   28.1502   45.2360 N   0  0  0  0  0  0  0  0  0  0  0  0
   56.9473   27.0052   45.7044 C   0  0  0  0  0  0  0  0  0  0  0  0
   58.3513   27.0027   45.7469 C   0  0  0  0  0  0  0  0  0  0  0  0
   59.0502   25.8699   46.2106 C   0  0  0  0  0  0  0  0  0  0  0  0
   58.3290   24.7319   46.5878 C   0  0  0  0  0  0  0  0  0  0  0  0
   56.9355   24.7144   46.5030 C   0  0  0  0  0  0  0  0  0  0  0  0
   56.2449   25.8442   46.0582 C   0  0  0  0  0  0  0  0  0  0  0  0
   54.8567   25.8168   45.9813 O   0  0  0  0  0  0  0  0  0  0  0  0
   60.4485   25.8363   46.3086 O   0  0  0  0  0  0  0  0  0  0  0  0
   61.2703   26.9886   46.4679 C   0  0  0  0  0  0  0  0  0  0  0  0
 12 13  1  0
 13 11  1  0
 11  5  1  0
  5  6  1  0
  6  4  1  0
  4  3  1  0
  3  1  1  0
  1  2  2  0
  1 14  1  0
 14 15  1  0
 15 16  2  0
 16 17  1  0
 17 22  1  0
 22 23  1  0
 17 18  2  0
 18 19  1  0
 19 20  2  0
 20 21  1  0
  6  7  2  0
  7  8  1  0
  8  9  1  0
  9 10  2  0
  9  5  1  0
 20 15  1  0
M  CHG 1   8  -1
M  CHG 1  14  -1
M  CHG 1  21  -1
M  END
> <UniqueID>
23

> <SMILES>
CCCn1c(SCC(=O)[N-]c2cc(OC)ccc2[O-])n[n-]c1=O

> <Energy>
68.71483315407396

> <Genealogy>
CCCn1c(SCC(=O)[N-]c2cc(OC)ccc2[O-])n[n-]c1=O (protonated)
CCCn1c(SCC(=O)[N-]c2cc(OC)ccc2[O-])n[n-]c1=O (3D coordinates assigned)
CCCn1c(SCC(=O)[N-]c2cc(OC)ccc2[O-])n[n-]c1=O (optimized conformer: 68.71483315407396 kcal/mol)

> <smiles>
CCCn1c(SCC(=O)Nc2cc(OC)ccc2O)n[nH]c1=O

> <score_type>
oracle

> <origin>
adg

> <m_score__min__energy>
-14.16

> <m_primary>
energy

> <minimizedAffinity>
-4.62984

> <minimizedRMSD>
1.37412

> <CNNscore>
0.5493277907

> <CNNaffinity>
6.3845772743

> <CNN_VS>
3.5072257519

> <CNNaffinity_variance>
0.2338012904

$$$$
54:0


 26 28  0  0  0  0  0  0  0  0999 V2000
   57.2832   31.4945   44.7906 C   0  0  0  0  0  0  0  0  0  0  0  0
   58.4125   31.7311   45.4755 C   0  0  0  0  0  0  0  0  0  0  0  0
   58.5865   32.9928   45.9301 N   0  0  0  0  0  0  0  0  0  0  0  0
   59.5668   33.3358   46.7936 C   0  0  0  0  0  0  0  0  0  0  0  0
   59.6664   34.5446   47.1349 O   0  0  0  0  0  0  0  0  0  0  0  0
   60.4139   32.3797   47.3009 N   0  0  0  0  0  0  0  0  0  0  0  0
   60.3185   31.0876   46.8314 C   0  0  0  0  0  0  0  0  0  0  0  0
   61.1181   30.2070   47.2609 O   0  0  0  0  0  0  0  0  0  0  0  0
   59.3600   30.7307   45.8412 C   0  0  0  0  0  0  0  0  0  0  0  0
   59.4249   29.4845   45.2901 C   0  0  0  0  0  0  0  0  0  0  0  0
   58.8455   28.2435   45.8484 C   0  0  0  0  0  0  0  0  0  0  0  0
   59.6872   27.3503   46.5279 C   0  0  0  0  0  0  0  0  0  0  0  0
   59.1789   26.1581   47.0460 C   0  0  0  0  0  0  0  0  0  0  0  0
   57.8300   25.8345   46.8763 C   0  0  0  0  0  0  0  0  0  0  0  0
   57.3335   24.6490   47.4021 O   0  0  0  0  0  0  0  0  0  0  0  0
   56.9827   26.7014   46.1728 C   0  0  0  0  0  0  0  0  0  0  0  0
   55.6424   26.3533   46.0014 O   0  0  0  0  0  0  0  0  0  0  0  0
   57.4921   27.9009   45.6443 C   0  0  0  0  0  0  0  0  0  0  0  0
   56.6602   28.7397   44.9098 O   0  0  0  0  0  0  0  0  0  0  0  0
   55.3173   25.5507   46.3594 H   0  0  0  0  0  0  0  0  0  0  0  0
   61.4436   32.7322   48.3213 C   0  0  0  0  0  0  0  0  0  0  0  0
   62.8742   32.6774   47.7404 C   0  0  0  0  0  0  0  0  0  0  0  0
   63.9127   33.1894   48.7579 C   0  0  0  0  0  0  0  0  0  0  0  0
   63.5530   32.8650   50.2245 C   0  0  0  0  0  0  0  0  0  0  0  0
   62.6299   31.6463   50.3385 C   0  0  0  0  0  0  0  0  0  0  0  0
   61.2910   31.8847   49.6136 C   0  0  0  0  0  0  0  0  0  0  0  0
  1  2  2  0
  2  3  1  0
  3  4  1  0
  4  5  2  0
  4  6  1  0
  6 21  1  0
 21 22  1  0
 22 23  1  0
 23 24  1  0
 24 25  1  0
 25 26  1  0
  6  7  1  0
  7  8  2  0
  7  9  1  0
  9 10  2  0
 10 11  1  0
 11 12  2  0
 12 13  1  0
 13 14  2  0
 14 15  1  0
 14 16  1  0
 16 17  1  0
 16 18  2  0
 18 19  1  0
  9  2  1  0
 18 11  1  0
 26 21  1  0
 17 20  1  0
M  CHG 1   3  -1
M  CHG 1  15  -1
M  CHG 1  19  -1
M  END
> <UniqueID>
47

> <SMILES>
C=c1[n-]c(=O)n(C2CCCCC2)c(=O)c1=Cc1ccc([O-])c(O)c1[O-]

> <Energy>
78.4854460222414

> <Genealogy>
C=c1[n-]c(=O)n(C2CCCCC2)c(=O)c1=Cc1ccc([O-])c(O)c1[O-] (protonated)
C=c1[n-]c(=O)n(C2CCCCC2)c(=O)c1=Cc1ccc([O-])c(O)c1[O-] (3D coordinates assigned)
C=c1[n-]c(=O)n(C2CCCCC2)c(=O)c1=Cc1ccc([O-])c(O)c1[O-] (nonaromatic ring conformer: 78.4854460222414 kcal/mol)

> <smiles>
C=c1[nH]c(=O)n(C2CCCCC2)c(=O)c1=Cc1ccc(O)c(O)c1O

> <score_type>
oracle

> <origin>
adg

> <m_score__min__energy>
-15.35

> <m_primary>
energy

> <minimizedAffinity>
-9.19756

> <minimizedRMSD>
2.17635

> <CNNscore>
0.7887014747

> <CNNaffinity>
6.9686508179

> <CNN_VS>
5.4961853027

> <CNNaffinity_variance>
0.2522372305

$$$$
56:0


 29 31  0  0  0  0  0  0  0  0999 V2000
   60.0130   30.2517   47.7397 C   0  0  0  0  0  0  0  0  0  0  0  0
   59.3270   30.8130   46.7293 C   0  0  0  0  0  0  0  0  0  0  0  0
   59.0004   30.2135   45.5002 C   0  0  0  0  0  0  0  0  0  0  0  0
   59.1413   28.9462   45.0592 C   0  0  0  0  0  0  0  0  0  0  0  0
   58.4445   31.2089   44.7186 C   0  0  0  0  0  0  0  0  0  0  0  0
   58.3961   32.3475   45.4920 C   0  0  0  0  0  0  0  0  0  0  0  0
   57.8873   33.6710   45.0061 C   0  0  0  0  0  0  0  0  0  0  0  0
   58.9257   32.1162   46.7157 N   0  0  0  0  0  0  0  0  0  0  0  0
   58.5610   27.7442   45.6891 C   0  0  0  0  0  0  0  0  0  0  0  0
   57.1795   27.4900   45.6407 C   0  0  0  0  0  0  0  0  0  0  0  0
   56.3129   28.3913   45.0340 O   0  0  0  0  0  0  0  0  0  0  0  0
   56.6813   26.3517   46.1864 N   0  0  0  0  0  0  0  0  0  0  0  0
   57.4999   25.4373   46.7680 C   0  0  0  0  0  0  0  0  0  0  0  0
   57.0158   24.3893   47.2699 O   0  0  0  0  0  0  0  0  0  0  0  0
   58.8413   25.6477   46.8025 N   0  0  0  0  0  0  0  0  0  0  0  0
   59.3890   26.7713   46.2716 C   0  0  0  0  0  0  0  0  0  0  0  0
   60.6373   26.9320   46.3156 O   0  0  0  0  0  0  0  0  0  0  0  0
   59.0863   33.1316   47.7705 C   0  0  0  0  0  0  0  0  0  0  0  0
   60.5173   33.1978   48.2403 C   0  0  0  0  0  0  0  0  0  0  0  0
   60.8132   33.2709   49.6118 C   0  0  0  0  0  0  0  0  0  0  0  0
   62.1389   33.3405   50.0463 C   0  0  0  0  0  0  0  0  0  0  0  0
   63.1922   33.3322   49.1234 C   0  0  0  0  0  0  0  0  0  0  0  0
   62.8989   33.2529   47.7498 C   0  0  0  0  0  0  0  0  0  0  0  0
   61.5722   33.1861   47.3139 C   0  0  0  0  0  0  0  0  0  0  0  0
   64.5364   33.4024   49.6185 N   0  0  0  0  0  0  0  0  0  0  0  0
   65.1838   32.4678   50.9281 S   0  0  0  0  0  0  0  0  0  0  0  0
   64.2045   31.0028   51.1856 C   0  0  0  0  0  0  0  0  0  0  0  0
   66.5856   32.0536   50.5776 O   0  0  0  0  0  0  0  0  0  0  0  0
   65.2262   33.2968   52.1805 O   0  0  0  0  0  0  0  0  0  0  0  0
  1  2  2  0
  2  3  1  0
  3  4  2  0
  4  9  1  0
  9 10  2  0
 10 11  1  0
 10 12  1  0
 12 13  1  0
 13 14  2  0
 13 15  1  0
 15 16  1  0
 16 17  2  0
  3  5  1  0
  5  6  2  0
  6  7  1  0
  6  8  1  0
  8 18  1  0
 18 19  1  0
 19 20  2  0
 20 21  1  0
 21 22  2  0
 22 25  1  0
 25 26  1  0
 26 27  1  0
 26 28  2  0
 26 29  2  0
 22 23  1  0
 23 24  2  0
  8  2  1  0
 24 19  1  0
 16  9  1  0
M  CHG 1  11  -1
M  CHG 1  12  -1
M  CHG 1  15  -1
M  CHG 1  25  -1
M  END
> <UniqueID>
49

> <SMILES>
C=c1c(=Cc2c([O-])[n-]c(=O)[n-]c2=O)cc(C)n1Cc1ccc([N-]S(C)(=O)=O)cc1

> <Energy>
89.11312190619142

> <Genealogy>
C=c1c(=Cc2c([O-])[n-]c(=O)[n-]c2=O)cc(C)n1Cc1ccc([N-]S(C)(=O)=O)cc1 (protonated)
C=c1c(=Cc2c([O-])[n-]c(=O)[n-]c2=O)cc(C)n1Cc1ccc([N-]S(C)(=O)=O)cc1 (3D coordinates assigned)
C=c1c(=Cc2c([O-])[n-]c(=O)[n-]c2=O)cc(C)n1Cc1ccc([N-]S(C)(=O)=O)cc1 (optimized conformer: 89.11312190619142 kcal/mol)

> <smiles>
C=c1c(=Cc2c(O)[nH]c(=O)[nH]c2=O)cc(C)n1Cc1ccc(NS(C)(=O)=O)cc1

> <score_type>
oracle

> <origin>
adg

> <m_score__min__energy>
-16.800000000000001

> <m_primary>
energy

> <minimizedAffinity>
-7.74424

> <minimizedRMSD>
1.21866

> <CNNscore>
0.6646237969

> <CNNaffinity>
7.1531910896

> <CNN_VS>
4.7541809082

> <CNNaffinity_variance>
0.1884231567

$$$$
63:0


 24 26  0  0  0  0  0  0  0  0999 V2000
   59.8278   28.0306   48.1303 C   0  0  0  0  0  0  0  0  0  0  0  0
   59.2203   28.4050   46.9941 C   0  0  0  0  0  0  0  0  0  0  0  0
   59.0189   27.6065   45.8575 C   0  0  0  0  0  0  0  0  0  0  0  0
   59.1158   26.2745   45.6843 C   0  0  0  0  0  0  0  0  0  0  0  0
   58.6615   28.4697   44.8379 C   0  0  0  0  0  0  0  0  0  0  0  0
   58.5772   29.7308   45.3906 C   0  0  0  0  0  0  0  0  0  0  0  0
   58.2572   30.9714   44.6111 C   0  0  0  0  0  0  0  0  0  0  0  0
   58.8811   29.6928   46.7106 N   0  0  0  0  0  0  0  0  0  0  0  0
   58.0718   25.2919   46.0224 C   0  0  0  0  0  0  0  0  0  0  0  0
   58.3022   24.0051   46.3408 N   0  0  0  0  0  0  0  0  0  0  0  0
   57.0824   23.5483   46.6975 C   0  0  0  0  0  0  0  0  0  0  0  0
   56.8814   22.3586   47.0533 O   0  0  0  0  0  0  0  0  0  0  0  0
   56.0970   24.4701   46.6532 N   0  0  0  0  0  0  0  0  0  0  0  0
   56.7436   25.5702   46.2372 C   0  0  0  0  0  0  0  0  0  0  0  0
   56.1344   26.8064   46.0630 O   0  0  0  0  0  0  0  0  0  0  0  0
   58.9444   30.8565   47.6126 C   0  0  0  0  0  0  0  0  0  0  0  0
   60.2442   31.6247   47.4600 C   0  0  0  0  0  0  0  0  0  0  0  0
   61.4524   30.9893   47.8076 C   0  0  0  0  0  0  0  0  0  0  0  0
   62.6721   31.6547   47.6718 C   0  0  0  0  0  0  0  0  0  0  0  0
   62.7080   32.9565   47.1748 C   0  0  0  0  0  0  0  0  0  0  0  0
   61.5243   33.5953   46.8035 C   0  0  0  0  0  0  0  0  0  0  0  0
   60.2913   32.9399   46.9340 C   0  0  0  0  0  0  0  0  0  0  0  0
   59.1022   33.6391   46.5144 C   0  0  0  0  0  0  0  0  0  0  0  0
   58.1530   34.2059   46.1702 N   0  0  0  0  0  0  0  0  0  0  0  0
  1  2  2  0
  2  3  1  0
  3  4  2  0
  4  9  1  0
  9 10  1  0
 10 11  1  0
 11 12  2  0
 11 13  1  0
 13 14  1  0
 14 15  1  0
  3  5  1  0
  5  6  2  0
  6  7  1  0
  6  8  1  0
  8 16  1  0
 16 17  1  0
 17 18  2  0
 18 19  1  0
 19 20  2  0
 20 21  1  0
 21 22  2  0
 22 23  1  0
 23 24  3  0
  8  2  1  0
 22 17  1  0
 14  9  2  0
M  CHG 1  10  -1
M  CHG 1  13  -1
M  CHG 1  15  -1
M  END
> <UniqueID>
55

> <SMILES>
C=c1/c(=C\c2[n-]c(=O)[n-]c2[O-])cc(C)n1Cc1ccccc1C#N

> <Energy>
108.74319881028944

> <Genealogy>
C=c1c(=Cc2[n-]c(=O)[n-]c2[O-])cc(C)n1Cc1ccccc1C#N (protonated)
C=c1/c(=C\c2[n-]c(=O)[n-]c2[O-])cc(C)n1Cc1ccccc1C#N (cis-trans isomerization)
C=c1/c(=C\c2[n-]c(=O)[n-]c2[O-])cc(C)n1Cc1ccccc1C#N (3D coordinates assigned)
C=c1/c(=C\c2[n-]c(=O)[n-]c2[O-])cc(C)n1Cc1ccccc1C#N (optimized conformer: 108.74319881028944 kcal/mol)

> <smiles>
C=c1c(=Cc2[nH]c(=O)[nH]c2O)cc(C)n1Cc1ccccc1C#N

> <score_type>
oracle

> <origin>
adg

> <m_score__min__energy>
-15.529999999999999

> <m_primary>
energy

> <minimizedAffinity>
-7.86690

> <minimizedRMSD>
1.54635

> <CNNscore>
0.2849117219

> <CNNaffinity>
6.3975486755

> <CNN_VS>
1.8227366209

> <CNNaffinity_variance>
0.1658974737

$$$$
66:0


 30 32  0  0  0  0  0  0  0  0999 V2000
   59.0888   31.0525   52.3414 N   0  0  0  0  0  0  0  0  0  0  0  0
   59.8137   30.9268   51.1083 C   0  0  0  0  0  0  0  0  0  0  0  0
   60.9835   31.6754   50.9403 C   0  0  0  0  0  0  0  0  0  0  0  0
   61.7279   31.5685   49.7620 C   0  0  0  0  0  0  0  0  0  0  0  0
   61.3160   30.7012   48.7490 C   0  0  0  0  0  0  0  0  0  0  0  0
   60.1572   29.9318   48.9107 C   0  0  0  0  0  0  0  0  0  0  0  0
   59.4139   30.0345   50.0958 C   0  0  0  0  0  0  0  0  0  0  0  0
   59.6563   28.8235   47.6352 S   0  0  0  0  0  0  0  0  0  0  0  0
   58.2374   28.3875   47.8757 O   0  0  0  0  0  0  0  0  0  0  0  0
   60.5549   27.6196   47.6714 O   0  0  0  0  0  0  0  0  0  0  0  0
   59.7858   29.6283   46.0841 N   0  0  0  0  0  0  0  0  0  0  0  0
   58.6062   30.4774   45.8044 C   0  0  0  0  0  0  0  0  0  0  0  0
   57.5999   29.8057   44.8530 C   0  0  0  0  0  0  0  0  0  0  0  0
   57.5926   28.4120   45.0574 O   0  0  0  0  0  0  0  0  0  0  0  0
   58.8123   27.8436   44.6108 C   0  0  0  0  0  0  0  0  0  0  0  0
   60.0613   28.6719   44.9978 C   0  0  0  0  0  0  0  0  0  0  0  0
   58.0110   29.1291   53.1367 O   0  0  0  0  0  0  0  0  0  0  0  0
   57.9210   30.3149   52.7226 C   0  0  0  0  0  0  0  0  0  0  0  0
   56.5735   30.9242   52.5202 C   0  0  0  0  0  0  0  0  0  0  0  0
   55.6565   29.9057   52.0209 N   0  0  0  0  0  0  0  0  0  0  0  0
   54.4883   29.4479   52.7128 C   0  0  0  0  0  0  0  0  0  0  0  0
   54.5288   28.3343   53.2982 O   0  0  0  0  0  0  0  0  0  0  0  0
   53.2530   30.2528   52.7908 C   0  0  0  0  0  0  0  0  0  0  0  0
   52.8112   30.9656   51.6653 C   0  0  0  0  0  0  0  0  0  0  0  0
   51.6503   31.7422   51.7326 C   0  0  0  0  0  0  0  0  0  0  0  0
   50.9304   31.8261   52.9285 C   0  0  0  0  0  0  0  0  0  0  0  0
   49.7778   32.6006   52.9891 O   0  0  0  0  0  0  0  0  0  0  0  0
   51.3771   31.1377   54.0627 C   0  0  0  0  0  0  0  0  0  0  0  0
   50.6752   31.2304   55.2586 O   0  0  0  0  0  0  0  0  0  0  0  0
   52.5374   30.3582   53.9958 C   0  0  0  0  0  0  0  0  0  0  0  0
 17 18  2  0
 18 19  1  0
 19 20  1  0
 20 21  1  0
 21 22  2  0
 21 23  1  0
 23 24  2  0
 24 25  1  0
 25 26  2  0
 26 27  1  0
 26 28  1  0
 28 29  1  0
 28 30  2  0
 18  1  1  0
  1  2  1  0
  2  3  2  0
  3  4  1  0
  4  5  2  0
  5  6  1  0
  6  8  1  0
  8  9  2  0
  8 10  2  0
  8 11  1  0
 11 12  1  0
 12 13  1  0
 13 14  1  0
 14 15  1  0
 15 16  1  0
  6  7  2  0
 30 23  1  0
  7  2  1  0
 16 11  1  0
M  CHG 1   1  -1
M  CHG 1  20  -1
M  CHG 1  27  -1
M  CHG 1  29  -1
M  END
> <UniqueID>
58

> <SMILES>
O=C(C[N-]C(=O)c1ccc([O-])c([O-])c1)[N-]c1cccc(S(=O)(=O)N2CCOCC2)c1

> <Energy>
65.54968586070459

> <Genealogy>
O=C(C[N-]C(=O)c1ccc([O-])c([O-])c1)[N-]c1cccc(S(=O)(=O)N2CCOCC2)c1 (protonated)
O=C(C[N-]C(=O)c1ccc([O-])c([O-])c1)[N-]c1cccc(S(=O)(=O)N2CCOCC2)c1 (3D coordinates assigned)
O=C(C[N-]C(=O)c1ccc([O-])c([O-])c1)[N-]c1cccc(S(=O)(=O)N2CCOCC2)c1 (nonaromatic ring conformer: 65.54968586070459 kcal/mol)

> <smiles>
O=C(CNC(=O)c1ccc(O)c(O)c1)Nc1cccc(S(=O)(=O)N2CCOCC2)c1

> <score_type>
oracle

> <origin>
adg

> <m_score__min__energy>
-19.370000000000001

> <m_primary>
energy

> <minimizedAffinity>
-6.96394

> <minimizedRMSD>
1.99192

> <CNNscore>
0.4334231615

> <CNNaffinity>
5.7364783287

> <CNN_VS>
2.4863226414

> <CNNaffinity_variance>
0.0031521234

$$$$
68:0


 28 31  0  0  0  0  0  0  0  0999 V2000
   57.8423   28.2068   44.6848 O   0  0  0  0  0  0  0  0  0  0  0  0
   58.1737   28.4249   45.8797 C   0  0  0  0  0  0  0  0  0  0  0  0
   57.8825   27.3716   46.9140 C   0  0  0  0  0  0  0  0  0  0  0  0
   57.7112   26.0707   46.2703 N   0  0  0  0  0  0  0  0  0  0  0  0
   56.5404   25.4751   45.9524 C   0  0  0  0  0  0  0  0  0  0  0  0
   55.2900   26.0482   46.1538 O   0  0  0  0  0  0  0  0  0  0  0  0
   56.7696   24.2213   45.4207 C   0  0  0  0  0  0  0  0  0  0  0  0
   58.1297   24.0350   45.4259 C   0  0  0  0  0  0  0  0  0  0  0  0
   58.6817   25.1821   45.9630 C   0  0  0  0  0  0  0  0  0  0  0  0
   60.0383   25.3976   46.1765 O   0  0  0  0  0  0  0  0  0  0  0  0
   58.8033   22.7747   44.9921 C   0  0  0  0  0  0  0  0  0  0  0  0
   57.8174   21.7890   44.3993 C   0  0  0  0  0  0  0  0  0  0  0  0
   56.4773   21.9715   44.3929 C   0  0  0  0  0  0  0  0  0  0  0  0
   55.7855   23.1904   44.9709 C   0  0  0  0  0  0  0  0  0  0  0  0
   58.8146   29.6677   46.1981 N   0  0  0  0  0  0  0  0  0  0  0  0
   60.2336   29.8583   46.4849 C   0  0  0  0  0  0  0  0  0  0  0  0
   60.4764   31.1977   47.1325 C   0  0  0  0  0  0  0  0  0  0  0  0
   59.6655   32.2960   46.8167 C   0  0  0  0  0  0  0  0  0  0  0  0
   59.8996   33.5223   47.4386 C   0  0  0  0  0  0  0  0  0  0  0  0
   60.9037   33.6471   48.3449 N   0  0  0  0  0  0  0  0  0  0  0  0
   61.7106   32.6038   48.6879 C   0  0  0  0  0  0  0  0  0  0  0  0
   61.4927   31.3480   48.0869 C   0  0  0  0  0  0  0  0  0  0  0  0
   62.7626   32.8051   49.6589 N   0  0  0  0  0  0  0  0  0  0  0  0
   64.0348   32.0752   49.5612 C   0  0  0  0  0  0  0  0  0  0  0  0
   65.1590   32.8697   50.2323 C   0  0  0  0  0  0  0  0  0  0  0  0
   64.7898   33.2601   51.5398 O   0  0  0  0  0  0  0  0  0  0  0  0
   63.7135   34.1729   51.4731 C   0  0  0  0  0  0  0  0  0  0  0  0
   62.4572   33.4944   50.9206 C   0  0  0  0  0  0  0  0  0  0  0  0
  1  2  2  0
  2  3  1  0
  3  4  1  0
  4  5  1  0
  5  6  1  0
  5  7  2  0
  7  8  1  0
  8  9  2  0
  9 10  1  0
  8 11  1  0
 11 12  1  0
 12 13  2  0
 13 14  1  0
  2 15  1  0
 15 16  1  0
 16 17  1  0
 17 18  2  0
 18 19  1  0
 19 20  2  0
 20 21  1  0
 21 23  1  0
 23 24  1  0
 24 25  1  0
 25 26  1  0
 26 27  1  0
 27 28  1  0
 21 22  2  0
  9  4  1  0
 22 17  1  0
 14  7  1  0
 28 23  1  0
M  CHG 1   6  -1
M  CHG 1  10  -1
M  CHG 1  15  -1
M  END
> <UniqueID>
60

> <SMILES>
O=C(Cn1c([O-])c2c(c1[O-])CC=CC2)[N-]Cc1ccnc(N2CCOCC2)c1

> <Energy>
86.35648374455428

> <Genealogy>
O=C(Cn1c([O-])c2c(c1[O-])CC=CC2)[N-]Cc1ccnc(N2CCOCC2)c1 (protonated)
O=C(Cn1c([O-])c2c(c1[O-])CC=CC2)[N-]Cc1ccnc(N2CCOCC2)c1 (3D coordinates assigned)
O=C(Cn1c([O-])c2c(c1[O-])CC=CC2)[N-]Cc1ccnc(N2CCOCC2)c1 (nonaromatic ring conformer: 86.35648374455428 kcal/mol)

> <smiles>
O=C(Cn1c(O)c2c(c1O)CC=CC2)NCc1ccnc(N2CCOCC2)c1

> <score_type>
oracle

> <origin>
adg

> <m_score__min__energy>
-15.380000000000001

> <m_primary>
energy

> <minimizedAffinity>
-7.43184

> <minimizedRMSD>
1.86098

> <CNNscore>
0.1134908870

> <CNNaffinity>
5.7828307152

> <CNN_VS>
0.6562985778

> <CNNaffinity_variance>
0.0013181936

$$$$
72:0


 26 28  0  0  0  0  0  0  0  0999 V2000
   59.1531   28.0892   46.5483 C   0  0  0  0  0  0  0  0  0  0  0  0
   60.2859   27.9313   47.0749 O   0  0  0  0  0  0  0  0  0  0  0  0
   59.0326   28.9865   45.4370 N   0  0  0  0  0  0  0  0  0  0  0  0
   57.5965   30.9760   44.9947 C   0  0  0  0  0  0  0  0  0  0  0  0
   57.3557   32.3442   45.2293 C   0  0  0  0  0  0  0  0  0  0  0  0
   58.2675   33.1167   45.9513 C   0  0  0  0  0  0  0  0  0  0  0  0
   59.4405   32.5424   46.4377 C   0  0  0  0  0  0  0  0  0  0  0  0
   59.6925   31.1874   46.2246 C   0  0  0  0  0  0  0  0  0  0  0  0
   58.7681   30.3902   45.5369 C   0  0  0  0  0  0  0  0  0  0  0  0
   55.7335   29.2771   44.7573 N   0  0  0  0  0  0  0  0  0  0  0  0
   56.6350   30.2076   44.1642 C   0  0  0  0  0  0  0  0  0  0  0  0
   56.6372   30.3415   42.9105 O   0  0  0  0  0  0  0  0  0  0  0  0
   55.1019   28.7754   44.1928 H   0  0  0  0  0  0  0  0  0  0  0  0
   57.9756   27.3353   47.1130 C   0  0  0  0  0  0  0  0  0  0  0  0
   57.7648   26.0649   46.4136 N   0  0  0  0  0  0  0  0  0  0  0  0
   56.5814   25.5762   45.9766 C   0  0  0  0  0  0  0  0  0  0  0  0
   55.3635   26.2367   46.1009 O   0  0  0  0  0  0  0  0  0  0  0  0
   56.7559   24.3360   45.3963 C   0  0  0  0  0  0  0  0  0  0  0  0
   58.0970   24.0633   45.4534 C   0  0  0  0  0  0  0  0  0  0  0  0
   58.6977   25.1452   46.0656 C   0  0  0  0  0  0  0  0  0  0  0  0
   60.0679   25.2739   46.2819 O   0  0  0  0  0  0  0  0  0  0  0  0
   58.7213   22.8263   44.8950 C   0  0  0  0  0  0  0  0  0  0  0  0
   57.6722   21.8133   44.4806 C   0  0  0  0  0  0  0  0  0  0  0  0
   56.3472   22.0803   44.4333 C   0  0  0  0  0  0  0  0  0  0  0  0
   55.7407   23.4215   44.7942 C   0  0  0  0  0  0  0  0  0  0  0  0
   60.6509   24.5919   46.0117 H   0  0  0  0  0  0  0  0  0  0  0  0
 10 11  1  0
 11 12  2  0
 11  4  1  0
  4  5  2  0
  5  6  1  0
  6  7  2  0
  7  8  1  0
  8  9  2  0
  9  3  1  0
  3  1  1  0
  1  2  2  0
  1 14  1  0
 14 15  1  0
 15 16  1  0
 16 17  1  0
 16 18  2  0
 18 19  1  0
 19 20  2  0
 20 21  1  0
 19 22  1  0
 22 23  1  0
 23 24  2  0
 24 25  1  0
  9  4  1  0
 20 15  1  0
 25 18  1  0
 10 13  1  0
 21 26  1  0
M  CHG 1   3  -1
M  CHG 1  10  -1
M  CHG 1  17  -1
M  END
> <UniqueID>
64

> <SMILES>
[NH-]C(=O)c1ccccc1[N-]C(=O)Cn1c([O-])c2c(c1O)CC=CC2

> <Energy>
78.0648207209724

> <Genealogy>
[NH-]C(=O)c1ccccc1[N-]C(=O)Cn1c([O-])c2c(c1O)CC=CC2 (protonated)
[NH-]C(=O)c1ccccc1[N-]C(=O)Cn1c([O-])c2c(c1O)CC=CC2 (3D coordinates assigned)
[NH-]C(=O)c1ccccc1[N-]C(=O)Cn1c([O-])c2c(c1O)CC=CC2 (nonaromatic ring conformer: 78.0648207209724 kcal/mol)

> <smiles>
NC(=O)c1ccccc1NC(=O)Cn1c(O)c2c(c1O)CC=CC2

> <score_type>
oracle

> <origin>
adg

> <m_score__min__energy>
-14.48

> <m_primary>
energy

> <minimizedAffinity>
-7.82600

> <minimizedRMSD>
0.72010

> <CNNscore>
0.3706436753

> <CNNaffinity>
6.1349539757

> <CNN_VS>
2.2738819122

> <CNNaffinity_variance>
0.0211943369

$$$$
78:0


 27 29  0  0  0  0  0  0  0  0999 V2000
   59.2447   27.0264   47.5333 C   0  0  0  0  0  0  0  0  0  0  0  0
   58.8880   27.2880   46.2664 C   0  0  0  0  0  0  0  0  0  0  0  0
   58.4529   26.3794   45.2843 C   0  0  0  0  0  0  0  0  0  0  0  0
   58.1395   25.0694   45.3632 C   0  0  0  0  0  0  0  0  0  0  0  0
   58.3888   27.1403   44.1198 C   0  0  0  0  0  0  0  0  0  0  0  0
   57.9817   26.6709   42.7559 C   0  0  0  0  0  0  0  0  0  0  0  0
   58.7171   28.4128   44.4014 N   0  0  0  0  0  0  0  0  0  0  0  0
   59.0061   28.5111   45.6878 N   0  0  0  0  0  0  0  0  0  0  0  0
   58.7388   29.1535   43.7533 H   0  0  0  0  0  0  0  0  0  0  0  0
   56.7724   24.5161   45.3755 C   0  0  0  0  0  0  0  0  0  0  0  0
   55.7107   25.2679   45.8970 C   0  0  0  0  0  0  0  0  0  0  0  0
   55.9197   26.5613   46.3626 O   0  0  0  0  0  0  0  0  0  0  0  0
   54.4605   24.7364   45.9417 N   0  0  0  0  0  0  0  0  0  0  0  0
   54.2193   23.4753   45.5012 C   0  0  0  0  0  0  0  0  0  0  0  0
   52.7070   22.8658   45.5643 S   0  0  0  0  0  0  0  0  0  0  0  0
   55.2369   22.7167   45.0180 N   0  0  0  0  0  0  0  0  0  0  0  0
   56.5033   23.2016   44.9534 C   0  0  0  0  0  0  0  0  0  0  0  0
   57.4271   22.4636   44.5177 O   0  0  0  0  0  0  0  0  0  0  0  0
   59.4644   29.7587   46.3108 C   0  0  0  0  0  0  0  0  0  0  0  0
   58.5496   30.9045   45.9671 C   0  0  0  0  0  0  0  0  0  0  0  0
   57.3925   30.6574   45.5282 O   0  0  0  0  0  0  0  0  0  0  0  0
   58.9613   32.2747   46.1586 N   0  0  0  0  0  0  0  0  0  0  0  0
   58.1818   33.3484   45.5323 C   0  0  0  0  0  0  0  0  0  0  0  0
   59.0535   34.5933   45.3457 C   0  0  0  0  0  0  0  0  0  0  0  0
   59.6789   34.9541   46.5624 O   0  0  0  0  0  0  0  0  0  0  0  0
   60.5893   33.9426   46.9451 C   0  0  0  0  0  0  0  0  0  0  0  0
   59.8510   32.6396   47.2702 C   0  0  0  0  0  0  0  0  0  0  0  0
  1  2  2  0
  2  3  1  0
  3  4  2  0
  4 10  1  0
 10 11  2  0
 11 12  1  0
 11 13  1  0
 13 14  1  0
 14 15  2  0
 14 16  1  0
 16 17  1  0
 17 18  2  0
  3  5  1  0
  5  6  1  0
  5  7  2  0
  7  8  1  0
  8 19  1  0
 19 20  1  0
 20 21  2  0
 20 22  1  0
 22 23  1  0
 23 24  1  0
 24 25  1  0
 25 26  1  0
 26 27  1  0
  8  2  1  0
 27 22  1  0
 17 10  1  0
  7  9  1  0
M  CHG 1   7   1
M  CHG 1  12  -1
M  CHG 1  13  -1
M  CHG 1  16  -1
M  END
> <UniqueID>
70

> <SMILES>
C=c1/c(=C\c2c([O-])[n-]c(=S)[n-]c2=O)c(C)[nH+]n1CC(=O)N1CCOCC1

> <Energy>
92.61750866537508

> <Genealogy>
C=c1c(=Cc2c([O-])[n-]c(=S)[n-]c2=O)c(C)[nH+]n1CC(=O)N1CCOCC1 (protonated)
C=c1/c(=C\c2c([O-])[n-]c(=S)[n-]c2=O)c(C)[nH+]n1CC(=O)N1CCOCC1 (cis-trans isomerization)
C=c1/c(=C\c2c([O-])[n-]c(=S)[n-]c2=O)c(C)[nH+]n1CC(=O)N1CCOCC1 (3D coordinates assigned)
C=c1/c(=C\c2c([O-])[n-]c(=S)[n-]c2=O)c(C)[nH+]n1CC(=O)N1CCOCC1 (nonaromatic ring conformer: 92.61750866537508 kcal/mol)

> <smiles>
C=c1c(=Cc2c(O)[nH]c(=S)[nH]c2=O)c(C)nn1CC(=O)N1CCOCC1

> <score_type>
oracle

> <origin>
adg

> <m_score__min__energy>
-14.51

> <m_primary>
energy

> <minimizedAffinity>
-7.96698

> <minimizedRMSD>
0.77921

> <CNNscore>
0.1799512208

> <CNNaffinity>
6.1644301414

> <CNN_VS>
1.1092966795

> <CNNaffinity_variance>
0.0544791408

$$$$
80:0


 26 28  0  0  0  0  0  0  0  0999 V2000
   58.3844   32.2366   44.1910 C   0  0  0  0  0  0  0  0  0  0  0  0
   58.6606   33.2827   44.9178 N   0  0  0  0  0  0  0  0  0  0  0  0
   58.1581   30.8816   44.7410 C   0  0  0  0  0  0  0  0  0  0  0  0
   57.1075   30.0959   44.2401 C   0  0  0  0  0  0  0  0  0  0  0  0
   56.2566   30.5972   43.2608 O   0  0  0  0  0  0  0  0  0  0  0  0
   56.9051   28.8401   44.7151 N   0  0  0  0  0  0  0  0  0  0  0  0
   57.7018   28.2923   45.6684 C   0  0  0  0  0  0  0  0  0  0  0  0
   57.4480   26.9946   46.1276 C   0  0  0  0  0  0  0  0  0  0  0  0
   58.2690   26.4217   47.1029 C   0  0  0  0  0  0  0  0  0  0  0  0
   58.0125   25.1333   47.5573 O   0  0  0  0  0  0  0  0  0  0  0  0
   59.3481   27.1415   47.6221 C   0  0  0  0  0  0  0  0  0  0  0  0
   59.6125   28.4385   47.1699 C   0  0  0  0  0  0  0  0  0  0  0  0
   58.7908   29.0275   46.1900 C   0  0  0  0  0  0  0  0  0  0  0  0
   59.0230   30.3292   45.7059 C   0  0  0  0  0  0  0  0  0  0  0  0
   60.0097   30.9979   46.1253 O   0  0  0  0  0  0  0  0  0  0  0  0
   58.2403   33.5484   46.2656 C   0  0  0  0  0  0  0  0  0  0  0  0
   57.1407   33.1087   46.7006 O   0  0  0  0  0  0  0  0  0  0  0  0
   59.0937   34.3937   47.1167 C   0  0  0  0  0  0  0  0  0  0  0  0
   59.6696   33.9352   48.2358 C   0  0  0  0  0  0  0  0  0  0  0  0
   61.1165   33.6311   48.3286 C   0  0  0  0  0  0  0  0  0  0  0  0
   61.8668   33.5932   47.1408 C   0  0  0  0  0  0  0  0  0  0  0  0
   63.2354   33.3103   47.1745 C   0  0  0  0  0  0  0  0  0  0  0  0
   63.8718   33.0790   48.3946 C   0  0  0  0  0  0  0  0  0  0  0  0
   63.1457   33.1395   49.5852 C   0  0  0  0  0  0  0  0  0  0  0  0
   61.7765   33.4282   49.5619 C   0  0  0  0  0  0  0  0  0  0  0  0
   61.0942   33.5397   50.7690 O   0  0  0  0  0  0  0  0  0  0  0  0
  1  2  2  0
  2 16  1  0
 16 17  2  0
 16 18  1  0
 18 19  2  0
 19 20  1  0
 20 21  2  0
 21 22  1  0
 22 23  2  0
 23 24  1  0
 24 25  2  0
 25 26  1  0
  1  3  1  0
  3  4  2  0
  4  5  1  0
  4  6  1  0
  6  7  1  0
  7  8  2  0
  8  9  1  0
  9 10  1  0
  9 11  2  0
 11 12  1  0
 12 13  2  0
 13 14  1  0
 14 15  2  0
 25 20  1  0
 14  3  1  0
 13  7  1  0
M  CHG 1   5  -1
M  CHG 1   6  -1
M  CHG 1  10  -1
M  CHG 1  26  -1
M  END
> <UniqueID>
72

> <SMILES>
O=C(/C=C/c1ccccc1[O-])/N=C\c1c([O-])[n-]c2cc([O-])ccc2c1=O

> <Energy>
58.79981812186359

> <Genealogy>
O=C(C=Cc1ccccc1[O-])N=Cc1c([O-])[n-]c2cc([O-])ccc2c1=O (protonated)
O=C(/C=C/c1ccccc1[O-])/N=C\c1c([O-])[n-]c2cc([O-])ccc2c1=O (cis-trans isomerization)
O=C(/C=C/c1ccccc1[O-])/N=C\c1c([O-])[n-]c2cc([O-])ccc2c1=O (3D coordinates assigned)
O=C(/C=C/c1ccccc1[O-])/N=C\c1c([O-])[n-]c2cc([O-])ccc2c1=O (optimized conformer: 58.79981812186359 kcal/mol)

> <smiles>
O=C(C=Cc1ccccc1O)N=Cc1c(O)[nH]c2cc(O)ccc2c1=O

> <score_type>
oracle

> <origin>
adg

> <m_score__min__energy>
-15.9

> <m_primary>
energy

> <minimizedAffinity>
-8.35231

> <minimizedRMSD>
1.93755

> <CNNscore>
0.7200150490

> <CNNaffinity>
6.6292781830

> <CNN_VS>
4.7731800079

> <CNNaffinity_variance>
0.0241692215

$$$$
88:0


 31 34  0  0  0  0  0  0  0  0999 V2000
   59.3663   27.5763   47.3417 C   0  0  0  0  0  0  0  0  0  0  0  0
   60.2368   26.8521   48.1632 C   0  0  0  0  0  0  0  0  0  0  0  0
   60.8023   27.4532   49.2849 C   0  0  0  0  0  0  0  0  0  0  0  0
   60.5040   28.7810   49.5968 C   0  0  0  0  0  0  0  0  0  0  0  0
   59.6204   29.5361   48.7948 C   0  0  0  0  0  0  0  0  0  0  0  0
   59.0583   28.9097   47.6595 C   0  0  0  0  0  0  0  0  0  0  0  0
   58.5538   24.7383   47.0313 C   0  0  0  0  0  0  0  0  0  0  0  0
   58.3114   25.6732   46.1001 C   0  0  0  0  0  0  0  0  0  0  0  0
   57.7356   25.4760   44.8343 C   0  0  0  0  0  0  0  0  0  0  0  0
   57.0568   24.4331   44.3138 C   0  0  0  0  0  0  0  0  0  0  0  0
   57.9601   26.6458   44.1236 C   0  0  0  0  0  0  0  0  0  0  0  0
   58.5711   27.5288   44.9876 C   0  0  0  0  0  0  0  0  0  0  0  0
   58.9696   28.9307   44.6314 C   0  0  0  0  0  0  0  0  0  0  0  0
   58.7821   26.9447   46.1884 N   0  0  0  0  0  0  0  0  0  0  0  0
   55.8605   23.7970   44.8996 C   0  0  0  0  0  0  0  0  0  0  0  0
   55.6106   22.4746   44.8976 N   0  0  0  0  0  0  0  0  0  0  0  0
   54.5049   22.3621   45.6664 C   0  0  0  0  0  0  0  0  0  0  0  0
   53.9426   21.2581   45.8905 O   0  0  0  0  0  0  0  0  0  0  0  0
   54.0610   23.5223   46.1932 N   0  0  0  0  0  0  0  0  0  0  0  0
   54.9388   24.4170   45.7080 C   0  0  0  0  0  0  0  0  0  0  0  0
   54.8963   25.7773   45.9948 O   0  0  0  0  0  0  0  0  0  0  0  0
   59.2524   30.9624   49.0941 C   0  0  0  0  0  0  0  0  0  0  0  0
   58.8089   31.2232   50.2497 O   0  0  0  0  0  0  0  0  0  0  0  0
   59.3990   32.0675   48.1570 N   0  0  0  0  0  0  0  0  0  0  0  0
   59.4667   33.3608   48.8741 C   0  0  0  0  0  0  0  0  0  0  0  0
   59.5126   34.5719   47.9112 C   0  0  0  0  0  0  0  0  0  0  0  0
   60.3062   34.3075   46.6078 C   0  0  0  0  0  0  0  0  0  0  0  0
   59.3723   34.1327   45.3999 C   0  0  0  0  0  0  0  0  0  0  0  0
   61.2482   33.1059   46.7704 C   0  0  0  0  0  0  0  0  0  0  0  0
   60.4739   31.8294   47.1524 C   0  0  0  0  0  0  0  0  0  0  0  0
   58.8567   32.8889   48.1347 H   0  0  0  0  0  0  0  0  0  0  0  0
  7  8  2  0
  8  9  1  0
  9 10  2  0
 10 15  1  0
 15 16  1  0
 16 17  1  0
 17 18  2  0
 17 19  1  0
 19 20  1  0
 20 21  1  0
  9 11  1  0
 11 12  2  0
 12 13  1  0
 12 14  1  0
 14  1  1  0
  1  2  2  0
  2  3  1  0
  3  4  2  0
  4  5  1  0
  5 22  1  0
 22 23  2  0
 24 22  1  0
 24 25  1  0
 25 26  1  0
 26 27  1  0
 27 28  1  0
 27 29  1  0
 29 30  1  0
  5  6  2  0
 14  8  1  0
  6  1  1  0
 20 15  2  0
 30 24  1  0
 24 31  1  0
M  CHG 1  16  -1
M  CHG 1  19  -1
M  CHG 1  21  -1
M  CHG 1  24   1
M  END
> <UniqueID>
79

> <SMILES>
C=c1c(=Cc2[n-]c(=O)[n-]c2[O-])cc(C)n1-c1cccc(C(=O)[NH+]2CCC(C)CC2)c1

> <Energy>
147.32004262554386

> <Genealogy>
C=c1c(=Cc2[n-]c(=O)[n-]c2[O-])cc(C)n1-c1cccc(C(=O)[NH+]2CCC(C)CC2)c1 (protonated)
C=c1c(=Cc2[n-]c(=O)[n-]c2[O-])cc(C)n1-c1cccc(C(=O)[NH+]2CCC(C)CC2)c1 (3D coordinates assigned)
C=c1c(=Cc2[n-]c(=O)[n-]c2[O-])cc(C)n1-c1cccc(C(=O)[NH+]2CCC(C)CC2)c1 (nonaromatic ring conformer: 147.32004262554386 kcal/mol)

> <smiles>
C=c1c(=Cc2[nH]c(=O)[nH]c2O)cc(C)n1-c1cccc(C(=O)N2CCC(C)CC2)c1

> <score_type>
oracle

> <origin>
adg

> <m_score__min__energy>
-16.199999999999999

> <m_primary>
energy

> <minimizedAffinity>
-8.44129

> <minimizedRMSD>
0.75844

> <CNNscore>
0.1039534658

> <CNNaffinity>
6.1929192543

> <CNN_VS>
0.6437754035

> <CNNaffinity_variance>
0.1189692095

$$$$
2:0


 27 29  0  0  0  0  0  0  0  0999 V2000
   58.0155   30.5278   45.3434 C   0  0  0  0  0  0  0  0  0  0  0  0
   59.1067   29.8333   45.9191 C   0  0  0  0  0  0  0  0  0  0  0  0
   59.9783   30.4764   46.6914 O   0  0  0  0  0  0  0  0  0  0  0  0
   59.8886   31.7688   46.9720 C   0  0  0  0  0  0  0  0  0  0  0  0
   60.8501   32.3653   47.7958 C   0  0  0  0  0  0  0  0  0  0  0  0
   60.7667   33.7278   48.0996 C   0  0  0  0  0  0  0  0  0  0  0  0
   61.7241   34.3160   48.9167 O   0  0  0  0  0  0  0  0  0  0  0  0
   59.7219   34.4984   47.5822 C   0  0  0  0  0  0  0  0  0  0  0  0
   58.7566   33.9110   46.7582 C   0  0  0  0  0  0  0  0  0  0  0  0
   58.8318   32.5404   46.4465 C   0  0  0  0  0  0  0  0  0  0  0  0
   57.8896   31.9065   45.6205 C   0  0  0  0  0  0  0  0  0  0  0  0
   56.9467   32.5757   45.1146 O   0  0  0  0  0  0  0  0  0  0  0  0
   55.7011   29.5908   44.9148 N   0  0  0  0  0  0  0  0  0  0  0  0
   57.0351   29.8278   44.4672 C   0  0  0  0  0  0  0  0  0  0  0  0
   57.3713   29.4348   43.3181 O   0  0  0  0  0  0  0  0  0  0  0  0
   55.0602   29.1273   44.3286 H   0  0  0  0  0  0  0  0  0  0  0  0
   59.2700   28.4275   45.6901 N   0  0  0  0  0  0  0  0  0  0  0  0
   59.2552   27.4146   46.7019 C   0  0  0  0  0  0  0  0  0  0  0  0
   58.9421   27.6916   47.8920 O   0  0  0  0  0  0  0  0  0  0  0  0
   59.6616   26.0206   46.3481 C   0  0  0  0  0  0  0  0  0  0  0  0
   58.4525   25.2141   45.9637 C   0  0  0  0  0  0  0  0  0  0  0  0
   58.5989   23.9002   45.4852 C   0  0  0  0  0  0  0  0  0  0  0  0
   57.4724   23.1375   45.1634 C   0  0  0  0  0  0  0  0  0  0  0  0
   56.1929   23.6759   45.3238 C   0  0  0  0  0  0  0  0  0  0  0  0
   56.0371   24.9772   45.8123 C   0  0  0  0  0  0  0  0  0  0  0  0
   54.7644   25.5083   45.9789 O   0  0  0  0  0  0  0  0  0  0  0  0
   57.1632   25.7428   46.1363 C   0  0  0  0  0  0  0  0  0  0  0  0
 13 14  1  0
 14 15  2  0
 14  1  1  0
  1  2  2  0
  2 17  1  0
 17 18  1  0
 18 19  2  0
 18 20  1  0
 20 21  1  0
 21 22  2  0
 22 23  1  0
 23 24  2  0
 24 25  1  0
 25 26  1  0
 25 27  2  0
  2  3  1  0
  3  4  1  0
  4  5  2  0
  5  6  1  0
  6  7  1  0
  6  8  2  0
  8  9  1  0
  9 10  2  0
 10 11  1  0
 11 12  2  0
 11  1  1  0
 27 21  1  0
 10  4  1  0
 13 16  1  0
M  CHG 1   7  -1
M  CHG 1  13  -1
M  CHG 1  17  -1
M  CHG 1  26  -1
M  END
> <UniqueID>
3

> <SMILES>
[NH-]C(=O)c1c([N-]C(=O)Cc2cccc([O-])c2)oc2cc([O-])ccc2c1=O

> <Energy>
46.49859843155771

> <Genealogy>
[NH-]C(=O)c1c([N-]C(=O)Cc2cccc([O-])c2)oc2cc([O-])ccc2c1=O (protonated)
[NH-]C(=O)c1c([N-]C(=O)Cc2cccc([O-])c2)oc2cc([O-])ccc2c1=O (3D coordinates assigned)
[NH-]C(=O)c1c([N-]C(=O)Cc2cccc([O-])c2)oc2cc([O-])ccc2c1=O (optimized conformer: 46.49859843155771 kcal/mol)

> <smiles>
NC(=O)c1c(NC(=O)Cc2cccc(O)c2)oc2cc(O)ccc2c1=O

> <score_type>
oracle

> <origin>
adg

> <m_score__min__energy>
-16.530000000000001

> <m_primary>
energy

> <minimizedAffinity>
-9.24757

> <minimizedRMSD>
0.62167

> <CNNscore>
0.9094285369

> <CNNaffinity>
7.1325607300

> <CNN_VS>
6.4865541458

> <CNNaffinity_variance>
0.4708913863

$$$$
5:0


 32 35  0  0  0  0  0  0  0  0999 V2000
   57.1729   30.8979   44.8007 N   0  0  0  0  0  0  0  0  0  0  0  0
   57.8038   29.8274   45.1844 C   0  0  0  0  0  0  0  0  0  0  0  0
   57.2119   28.7210   45.6783 N   0  0  0  0  0  0  0  0  0  0  0  0
   58.1167   27.7465   45.9637 C   0  0  0  0  0  0  0  0  0  0  0  0
   59.4463   28.0934   45.7104 C   0  0  0  0  0  0  0  0  0  0  0  0
   59.4682   29.6542   45.0833 S   0  0  0  0  0  0  0  0  0  0  0  0
   58.1315   32.7035   43.7064 O   0  0  0  0  0  0  0  0  0  0  0  0
   57.6526   32.2547   44.7832 C   0  0  0  0  0  0  0  0  0  0  0  0
   57.6937   33.1346   46.0053 C   0  0  0  0  0  0  0  0  0  0  0  0
   58.8900   32.8134   46.8455 C   0  0  0  0  0  0  0  0  0  0  0  0
   58.7462   32.0722   47.9783 N   0  0  0  0  0  0  0  0  0  0  0  0
   59.8079   31.7741   48.7708 C   0  0  0  0  0  0  0  0  0  0  0  0
   59.6271   31.0859   49.8110 O   0  0  0  0  0  0  0  0  0  0  0  0
   61.0873   32.2367   48.4217 C   0  0  0  0  0  0  0  0  0  0  0  0
   62.2271   31.9648   49.2007 C   0  0  0  0  0  0  0  0  0  0  0  0
   63.4764   32.4548   48.8050 C   0  0  0  0  0  0  0  0  0  0  0  0
   63.5985   33.2129   47.6363 C   0  0  0  0  0  0  0  0  0  0  0  0
   62.4707   33.4861   46.8559 C   0  0  0  0  0  0  0  0  0  0  0  0
   61.2167   33.0008   47.2420 C   0  0  0  0  0  0  0  0  0  0  0  0
   60.1191   33.2677   46.4867 N   0  0  0  0  0  0  0  0  0  0  0  0
   57.6891   26.4653   46.5560 C   0  0  0  0  0  0  0  0  0  0  0  0
   58.4972   25.8461   47.2955 O   0  0  0  0  0  0  0  0  0  0  0  0
   56.3767   25.9193   46.3701 N   0  0  0  0  0  0  0  0  0  0  0  0
   55.9344   24.6020   46.8108 C   0  0  0  0  0  0  0  0  0  0  0  0
   56.2468   23.5934   45.7444 C   0  0  0  0  0  0  0  0  0  0  0  0
   56.9170   22.4036   46.0747 C   0  0  0  0  0  0  0  0  0  0  0  0
   57.2409   21.4773   45.0779 C   0  0  0  0  0  0  0  0  0  0  0  0
   56.9103   21.7378   43.7403 C   0  0  0  0  0  0  0  0  0  0  0  0
   57.2282   20.8220   42.7399 O   0  0  0  0  0  0  0  0  0  0  0  0
   56.2574   22.9290   43.4064 C   0  0  0  0  0  0  0  0  0  0  0  0
   55.9321   23.8565   44.4007 C   0  0  0  0  0  0  0  0  0  0  0  0
   57.6655   20.0226   42.9582 H   0  0  0  0  0  0  0  0  0  0  0  0
  7  8  2  0
  8  9  1  0
  9 10  1  0
 10 11  2  0
 11 12  1  0
 12 13  2  0
 12 14  1  0
 14 15  2  0
 15 16  1  0
 16 17  2  0
 17 18  1  0
 18 19  2  0
 19 20  1  0
  8  1  1  0
  1  2  2  0
  2  3  1  0
  3  4  1  0
  4 21  1  0
 21 22  2  0
 21 23  1  0
 23 24  1  0
 24 25  1  0
 25 26  2  0
 26 27  1  0
 27 28  2  0
 28 29  1  0
 28 30  1  0
 30 31  2  0
  4  5  2  0
  5  6  1  0
 20 10  1  0
  6  2  1  0
 19 14  1  0
 31 25  1  0
 29 32  1  0
M  CHG 1   3  -1
M  CHG 1  20  -1
M  CHG 1  23  -1
M  END
> <UniqueID>
6

> <SMILES>
O=C(Cc1nc(=O)c2ccccc2[n-]1)N=c1[n-]c(C(=O)[N-]Cc2ccc(O)cc2)cs1

> <Energy>
87.25450981996082

> <Genealogy>
O=C(Cc1nc(=O)c2ccccc2[n-]1)N=c1[n-]c(C(=O)[N-]Cc2ccc(O)cc2)cs1 (protonated)
O=C(Cc1nc(=O)c2ccccc2[n-]1)N=c1[n-]c(C(=O)[N-]Cc2ccc(O)cc2)cs1 (3D coordinates assigned)
O=C(Cc1nc(=O)c2ccccc2[n-]1)N=c1[n-]c(C(=O)[N-]Cc2ccc(O)cc2)cs1 (optimized conformer: 87.25450981996082 kcal/mol)

> <smiles>
O=C(Cc1nc(=O)c2ccccc2[nH]1)N=c1[nH]c(C(=O)NCc2ccc(O)cc2)cs1

> <score_type>
oracle

> <origin>
adg

> <m_score__min__energy>
-14.58

> <m_primary>
energy

> <minimizedAffinity>
-8.67982

> <minimizedRMSD>
1.50555

> <CNNscore>
0.7013249993

> <CNNaffinity>
6.9074001312

> <CNN_VS>
4.8443322182

> <CNNaffinity_variance>
0.0345833190

$$$$
17:0


 34 37  0  0  0  0  0  0  0  0999 V2000
   60.2890   26.6948   46.6206 C   0  0  0  0  0  0  0  0  0  0  0  0
   58.7027   24.1289   46.9137 C   0  0  0  0  0  0  0  0  0  0  0  0
   58.4897   25.0221   45.9350 C   0  0  0  0  0  0  0  0  0  0  0  0
   57.5092   24.9420   44.9320 C   0  0  0  0  0  0  0  0  0  0  0  0
   56.7070   23.9260   44.5584 C   0  0  0  0  0  0  0  0  0  0  0  0
   57.5115   26.1647   44.2866 C   0  0  0  0  0  0  0  0  0  0  0  0
   58.5201   26.9151   44.8531 C   0  0  0  0  0  0  0  0  0  0  0  0
   58.9217   28.2788   44.3788 C   0  0  0  0  0  0  0  0  0  0  0  0
   59.1236   26.2260   45.8524 N   0  0  0  0  0  0  0  0  0  0  0  0
   55.3410   23.6884   45.0472 C   0  0  0  0  0  0  0  0  0  0  0  0
   54.7690   22.4729   45.0972 N   0  0  0  0  0  0  0  0  0  0  0  0
   53.5906   22.7071   45.7147 C   0  0  0  0  0  0  0  0  0  0  0  0
   52.7488   21.7968   45.9343 O   0  0  0  0  0  0  0  0  0  0  0  0
   53.3896   23.9890   46.0884 N   0  0  0  0  0  0  0  0  0  0  0  0
   54.5134   24.5954   45.6735 C   0  0  0  0  0  0  0  0  0  0  0  0
   54.7908   25.9426   45.8818 O   0  0  0  0  0  0  0  0  0  0  0  0
   54.1662   26.4873   46.3191 H   0  0  0  0  0  0  0  0  0  0  0  0
   60.0562   28.0972   47.1240 C   0  0  0  0  0  0  0  0  0  0  0  0
   59.2084   28.3266   48.2183 C   0  0  0  0  0  0  0  0  0  0  0  0
   59.0140   29.6218   48.7050 C   0  0  0  0  0  0  0  0  0  0  0  0
   59.6530   30.7135   48.0902 C   0  0  0  0  0  0  0  0  0  0  0  0
   60.5131   30.4813   47.0091 C   0  0  0  0  0  0  0  0  0  0  0  0
   60.7067   29.1859   46.5230 C   0  0  0  0  0  0  0  0  0  0  0  0
   59.5063   32.0550   48.5770 N   0  0  0  0  0  0  0  0  0  0  0  0
   59.2965   33.2310   47.7860 C   0  0  0  0  0  0  0  0  0  0  0  0
   60.2178   34.0764   47.6266 O   0  0  0  0  0  0  0  0  0  0  0  0
   57.9625   33.4605   47.1503 C   0  0  0  0  0  0  0  0  0  0  0  0
   57.9373   32.8476   45.7804 C   0  0  0  0  0  0  0  0  0  0  0  0
   57.3749   31.6191   45.6120 N   0  0  0  0  0  0  0  0  0  0  0  0
   57.2925   31.0264   44.3892 C   0  0  0  0  0  0  0  0  0  0  0  0
   57.7841   31.6849   43.2609 C   0  0  0  0  0  0  0  0  0  0  0  0
   58.3541   32.9503   43.4017 C   0  0  0  0  0  0  0  0  0  0  0  0
   58.4316   33.5434   44.6636 C   0  0  0  0  0  0  0  0  0  0  0  0
   58.9763   34.7783   44.7954 F   0  0  0  0  0  0  0  0  0  0  0  0
  2  3  2  0
  3  4  1  0
  4  5  2  0
  5 10  1  0
 10 11  1  0
 11 12  1  0
 12 13  2  0
 12 14  1  0
 14 15  1  0
 15 16  1  0
  4  6  1  0
  6  7  2  0
  7  8  1  0
  7  9  1  0
  9  1  1  0
  1 18  1  0
 18 19  2  0
 19 20  1  0
 20 21  2  0
 21 24  1  0
 24 25  1  0
 25 26  2  0
 25 27  1  0
 27 28  1  0
 28 29  2  0
 29 30  1  0
 30 31  2  0
 31 32  1  0
 32 33  2  0
 33 34  1  0
 21 22  1  0
 22 23  2  0
  9  3  1  0
 23 18  1  0
 15 10  2  0
 33 28  1  0
 16 17  1  0
M  CHG 1  11  -1
M  CHG 1  14  -1
M  CHG 1  24  -1
M  END
> <UniqueID>
17

> <SMILES>
C=c1c(=Cc2[n-]c(=O)[n-]c2O)cc(C)n1Cc1ccc([N-]C(=O)Cc2ncccc2F)cc1

> <Energy>
126.5987156192748

> <Genealogy>
C=c1c(=Cc2[n-]c(=O)[n-]c2O)cc(C)n1Cc1ccc([N-]C(=O)Cc2ncccc2F)cc1 (protonated)
C=c1c(=Cc2[n-]c(=O)[n-]c2O)cc(C)n1Cc1ccc([N-]C(=O)Cc2ncccc2F)cc1 (3D coordinates assigned)
C=c1c(=Cc2[n-]c(=O)[n-]c2O)cc(C)n1Cc1ccc([N-]C(=O)Cc2ncccc2F)cc1 (optimized conformer: 126.5987156192748 kcal/mol)

> <smiles>
C=c1c(=Cc2[nH]c(=O)[nH]c2O)cc(C)n1Cc1ccc(NC(=O)Cc2ncccc2F)cc1

> <score_type>
oracle

> <origin>
adg

> <m_score__min__energy>
-14.710000000000001

> <m_primary>
energy

> <minimizedAffinity>
-7.38734

> <minimizedRMSD>
1.24905

> <CNNscore>
0.1104857177

> <CNNaffinity>
6.5688004494

> <CNN_VS>
0.7257586122

> <CNNaffinity_variance>
0.2335960269

$$$$
18:0


 31 34  0  0  0  0  0  0  0  0999 V2000
   60.4685   30.1245   46.5587 C   0  0  0  0  0  0  0  0  0  0  0  0
   59.4125   27.9936   44.6619 C   0  0  0  0  0  0  0  0  0  0  0  0
   59.5185   27.8213   45.9924 C   0  0  0  0  0  0  0  0  0  0  0  0
   59.2451   26.6328   46.6889 C   0  0  0  0  0  0  0  0  0  0  0  0
   58.8694   25.4472   46.1550 C   0  0  0  0  0  0  0  0  0  0  0  0
   59.4630   26.9142   48.0304 C   0  0  0  0  0  0  0  0  0  0  0  0
   59.8615   28.2300   48.1037 C   0  0  0  0  0  0  0  0  0  0  0  0
   60.3034   28.8908   49.3762 C   0  0  0  0  0  0  0  0  0  0  0  0
   59.9164   28.7887   46.8674 N   0  0  0  0  0  0  0  0  0  0  0  0
   57.5795   24.7566   46.3940 C   0  0  0  0  0  0  0  0  0  0  0  0
   57.4174   23.4474   46.6632 N   0  0  0  0  0  0  0  0  0  0  0  0
   56.0775   23.2848   46.6542 C   0  0  0  0  0  0  0  0  0  0  0  0
   55.5316   22.1627   46.8174 O   0  0  0  0  0  0  0  0  0  0  0  0
   55.3724   24.4054   46.3916 N   0  0  0  0  0  0  0  0  0  0  0  0
   56.3376   25.3273   46.2329 C   0  0  0  0  0  0  0  0  0  0  0  0
   56.0902   26.6668   45.9560 O   0  0  0  0  0  0  0  0  0  0  0  0
   59.3724   31.1472   46.3253 C   0  0  0  0  0  0  0  0  0  0  0  0
   58.6279   31.0891   45.1300 C   0  0  0  0  0  0  0  0  0  0  0  0
   57.6144   32.0146   44.8746 C   0  0  0  0  0  0  0  0  0  0  0  0
   57.3633   33.0462   45.7771 C   0  0  0  0  0  0  0  0  0  0  0  0
   58.1253   33.1534   46.9422 C   0  0  0  0  0  0  0  0  0  0  0  0
   59.1257   32.2114   47.2333 C   0  0  0  0  0  0  0  0  0  0  0  0
   59.8867   32.3938   48.4889 C   0  0  0  0  0  0  0  0  0  0  0  0
   59.2548   32.3286   49.5825 O   0  0  0  0  0  0  0  0  0  0  0  0
   61.3295   32.5923   48.4573 N   0  0  0  0  0  0  0  0  0  0  0  0
   61.7747   33.3683   47.2761 C   0  0  0  0  0  0  0  0  0  0  0  0
   63.2658   33.7550   47.3866 C   0  0  0  0  0  0  0  0  0  0  0  0
   63.9011   33.0620   48.4415 O   0  0  0  0  0  0  0  0  0  0  0  0
   63.3276   33.4452   49.6798 C   0  0  0  0  0  0  0  0  0  0  0  0
   61.7916   33.2573   49.6946 C   0  0  0  0  0  0  0  0  0  0  0  0
   61.7691   33.2575   49.0348 H   0  0  0  0  0  0  0  0  0  0  0  0
  2  3  2  0
  3  4  1  0
  4  5  2  0
  5 10  1  0
 10 11  1  0
 11 12  1  0
 12 13  2  0
 12 14  1  0
 14 15  1  0
 15 16  1  0
  4  6  1  0
  6  7  2  0
  7  8  1  0
  7  9  1  0
  9  1  1  0
  1 17  1  0
 17 18  2  0
 18 19  1  0
 19 20  2  0
 20 21  1  0
 21 22  2  0
 22 23  1  0
 23 24  2  0
 23 25  1  0
 25 26  1  0
 26 27  1  0
 27 28  1  0
 28 29  1  0
 29 30  1  0
  9  3  1  0
 22 17  1  0
 30 25  1  0
 15 10  2  0
 25 31  1  0
M  CHG 1  11  -1
M  CHG 1  14  -1
M  CHG 1  16  -1
M  CHG 1  25   1
M  END
> <UniqueID>
18

> <SMILES>
C=c1c(=Cc2[n-]c(=O)[n-]c2[O-])cc(C)n1Cc1ccccc1C(=O)[NH+]1CCOCC1

> <Energy>
141.03089260799956

> <Genealogy>
C=c1c(=Cc2[n-]c(=O)[n-]c2[O-])cc(C)n1Cc1ccccc1C(=O)[NH+]1CCOCC1 (protonated)
C=c1c(=Cc2[n-]c(=O)[n-]c2[O-])cc(C)n1Cc1ccccc1C(=O)[NH+]1CCOCC1 (3D coordinates assigned)
C=c1c(=Cc2[n-]c(=O)[n-]c2[O-])cc(C)n1Cc1ccccc1C(=O)[NH+]1CCOCC1 (nonaromatic ring conformer: 141.03089260799956 kcal/mol)

> <smiles>
C=c1c(=Cc2[nH]c(=O)[nH]c2O)cc(C)n1Cc1ccccc1C(=O)N1CCOCC1

> <score_type>
oracle

> <origin>
adg

> <m_score__min__energy>
-14.93

> <m_primary>
energy

> <minimizedAffinity>
-8.49765

> <minimizedRMSD>
1.14105

> <CNNscore>
0.3040995002

> <CNNaffinity>
6.7234687805

> <CNN_VS>
2.0446035862

> <CNNaffinity_variance>
0.0177433025

$$$$
25:0


 38 42  0  0  0  0  0  0  0  0999 V2000
   57.6058   27.1248   45.9007 C   0  0  0  0  0  0  0  0  0  0  0  0
   57.2877   28.3927   45.4606 C   0  0  0  0  0  0  0  0  0  0  0  0
   56.0097   28.8913   45.2312 O   0  0  0  0  0  0  0  0  0  0  0  0
   58.4709   29.0834   45.3008 C   0  0  0  0  0  0  0  0  0  0  0  0
   58.5743   30.3578   44.9021 C   0  0  0  0  0  0  0  0  0  0  0  0
   59.5220   28.3027   45.6303 N   0  0  0  0  0  0  0  0  0  0  0  0
   58.9975   27.1118   45.9947 C   0  0  0  0  0  0  0  0  0  0  0  0
   59.7642   26.0794   46.3489 C   0  0  0  0  0  0  0  0  0  0  0  0
   59.1394   31.4136   45.7594 C   0  0  0  0  0  0  0  0  0  0  0  0
   58.7586   32.7402   45.7219 C   0  0  0  0  0  0  0  0  0  0  0  0
   59.5410   33.3943   46.6549 C   0  0  0  0  0  0  0  0  0  0  0  0
   59.4817   34.8620   46.9492 C   0  0  0  0  0  0  0  0  0  0  0  0
   60.3986   32.5257   47.2372 N   0  0  0  0  0  0  0  0  0  0  0  0
   60.1662   31.3097   46.6911 C   0  0  0  0  0  0  0  0  0  0  0  0
   60.9582   30.0751   47.0201 C   0  0  0  0  0  0  0  0  0  0  0  0
   61.3877   32.8494   48.2260 C   0  0  0  0  0  0  0  0  0  0  0  0
   61.0274   32.9711   49.5743 C   0  0  0  0  0  0  0  0  0  0  0  0
   61.9975   33.2532   50.5395 C   0  0  0  0  0  0  0  0  0  0  0  0
   63.3439   33.4091   50.1704 C   0  0  0  0  0  0  0  0  0  0  0  0
   63.7001   33.2990   48.8144 C   0  0  0  0  0  0  0  0  0  0  0  0
   62.7289   33.0165   47.8512 C   0  0  0  0  0  0  0  0  0  0  0  0
   64.3421   33.6932   51.1683 N   0  0  0  0  0  0  0  0  0  0  0  0
   65.7528   33.3677   50.9223 C   0  0  0  0  0  0  0  0  0  0  0  0
   66.4572   32.9036   52.2207 C   0  0  0  0  0  0  0  0  0  0  0  0
   65.6807   33.0901   53.3938 O   0  0  0  0  0  0  0  0  0  0  0  0
   65.1111   34.3806   53.4025 C   0  0  0  0  0  0  0  0  0  0  0  0
   63.9744   34.4369   52.3811 C   0  0  0  0  0  0  0  0  0  0  0  0
   56.6426   26.0354   46.1867 C   0  0  0  0  0  0  0  0  0  0  0  0
   55.4042   26.2648   46.1513 O   0  0  0  0  0  0  0  0  0  0  0  0
   55.0232   24.1398   44.4368 O   0  0  0  0  0  0  0  0  0  0  0  0
   56.2082   23.4105   44.5361 C   0  0  0  0  0  0  0  0  0  0  0  0
   56.4305   22.3466   43.6534 C   0  0  0  0  0  0  0  0  0  0  0  0
   57.6364   21.6516   43.6788 C   0  0  0  0  0  0  0  0  0  0  0  0
   58.6232   22.0322   44.5870 C   0  0  0  0  0  0  0  0  0  0  0  0
   58.3910   23.0536   45.4536 N   0  0  0  0  0  0  0  0  0  0  0  0
   57.2165   23.7419   45.4820 C   0  0  0  0  0  0  0  0  0  0  0  0
   57.0913   24.6866   46.3750 N   0  0  0  0  0  0  0  0  0  0  0  0
   54.3761   23.8984   43.8037 H   0  0  0  0  0  0  0  0  0  0  0  0
 30 31  1  0
 31 32  2  0
 32 33  1  0
 33 34  2  0
 34 35  1  0
 35 36  1  0
 36 37  2  0
 37 28  1  0
 28 29  2  0
 28  1  1  0
  1  2  2  0
  2  3  1  0
  2  4  1  0
  4  5  2  0
  5  9  1  0
  9 10  1  0
 10 11  2  0
 11 12  1  0
 11 13  1  0
 13 16  1  0
 16 17  2  0
 17 18  1  0
 18 19  2  0
 19 22  1  0
 22 23  1  0
 23 24  1  0
 24 25  1  0
 25 26  1  0
 26 27  1  0
 19 20  1  0
 20 21  2  0
 13 14  1  0
 14 15  1  0
  4  6  1  0
  6  7  1  0
  7  8  2  0
 36 31  1  0
  7  1  1  0
 14  9  2  0
 21 16  1  0
 27 22  1  0
 30 38  1  0
M  CHG 1   3  -1
M  CHG 1   6  -1
M  CHG 1  35  -1
M  END
> <UniqueID>
23

> <SMILES>
C=c1[n-]/c(=C\c2cc(C)n(-c3ccc(N4CCOCC4)cc3)c2C)c([O-])c1C(=O)/N=c1/[n-]cccc1O

> <Energy>
158.25296521625626

> <Genealogy>
C=c1[n-]c(=Cc2cc(C)n(-c3ccc(N4CCOCC4)cc3)c2C)c([O-])c1C(=O)N=c1[n-]cccc1O (protonated)
C=c1[n-]/c(=C\c2cc(C)n(-c3ccc(N4CCOCC4)cc3)c2C)c([O-])c1C(=O)/N=c1/[n-]cccc1O (cis-trans isomerization)
C=c1[n-]/c(=C\c2cc(C)n(-c3ccc(N4CCOCC4)cc3)c2C)c([O-])c1C(=O)/N=c1/[n-]cccc1O (3D coordinates assigned)
C=c1[n-]/c(=C\c2cc(C)n(-c3ccc(N4CCOCC4)cc3)c2C)c([O-])c1C(=O)/N=c1/[n-]cccc1O (nonaromatic ring conformer: 158.25296521625626 kcal/mol)

> <smiles>
C=c1[nH]c(=Cc2cc(C)n(-c3ccc(N4CCOCC4)cc3)c2C)c(O)c1C(=O)N=c1[nH]cccc1O

> <score_type>
oracle

> <origin>
adg

> <m_score__min__energy>
-16.449999999999999

> <m_primary>
energy

> <minimizedAffinity>
-9.66755

> <minimizedRMSD>
0.87947

> <CNNscore>
0.4291910529

> <CNNaffinity>
7.3788256645

> <CNN_VS>
3.1669259071

> <CNNaffinity_variance>
0.0664244890

$$$$
31:0


 29 31  0  0  0  0  0  0  0  0999 V2000
   59.9385   28.5065   44.6690 C   0  0  0  0  0  0  0  0  0  0  0  0
   59.8185   28.0126   45.9136 C   0  0  0  0  0  0  0  0  0  0  0  0
   59.1050   26.8633   46.2713 C   0  0  0  0  0  0  0  0  0  0  0  0
   58.4500   26.0183   45.4501 C   0  0  0  0  0  0  0  0  0  0  0  0
   59.2630   26.7176   47.6419 C   0  0  0  0  0  0  0  0  0  0  0  0
   60.0362   27.7759   48.0673 C   0  0  0  0  0  0  0  0  0  0  0  0
   60.5221   27.9433   49.4753 C   0  0  0  0  0  0  0  0  0  0  0  0
   60.3801   28.5697   47.0232 N   0  0  0  0  0  0  0  0  0  0  0  0
   57.5576   24.9374   45.9144 C   0  0  0  0  0  0  0  0  0  0  0  0
   57.9287   23.6776   46.1985 N   0  0  0  0  0  0  0  0  0  0  0  0
   56.8143   23.0965   46.6856 C   0  0  0  0  0  0  0  0  0  0  0  0
   56.7769   21.8964   47.0673 O   0  0  0  0  0  0  0  0  0  0  0  0
   55.7432   23.9186   46.7439 N   0  0  0  0  0  0  0  0  0  0  0  0
   56.2340   25.0778   46.2665 C   0  0  0  0  0  0  0  0  0  0  0  0
   55.4856   26.2437   46.1579 O   0  0  0  0  0  0  0  0  0  0  0  0
   58.8167   23.2699   46.0778 H   0  0  0  0  0  0  0  0  0  0  0  0
   61.2595   29.7486   47.1035 C   0  0  0  0  0  0  0  0  0  0  0  0
   60.4422   31.0095   47.2188 C   0  0  0  0  0  0  0  0  0  0  0  0
   60.5987   31.8548   48.3281 C   0  0  0  0  0  0  0  0  0  0  0  0
   59.8234   33.0181   48.4519 C   0  0  0  0  0  0  0  0  0  0  0  0
   59.9691   33.8945   49.6607 C   0  0  0  0  0  0  0  0  0  0  0  0
   58.8617   33.3140   47.4767 C   0  0  0  0  0  0  0  0  0  0  0  0
   58.6939   32.4754   46.3668 C   0  0  0  0  0  0  0  0  0  0  0  0
   59.4950   31.3326   46.2353 C   0  0  0  0  0  0  0  0  0  0  0  0
   57.7040   32.7846   45.3688 N   0  0  0  0  0  0  0  0  0  0  0  0
   57.2568   34.1716   45.2185 C   0  0  0  0  0  0  0  0  0  0  0  0
   57.2642   31.7878   44.4235 C   0  0  0  0  0  0  0  0  0  0  0  0
   57.7785   31.7598   43.0142 C   0  0  0  0  0  0  0  0  0  0  0  0
   56.4357   30.9053   44.7789 O   0  0  0  0  0  0  0  0  0  0  0  0
  1  2  2  0
  2  3  1  0
  3  4  2  0
  4  9  1  0
  9 10  1  0
 10 11  1  0
 11 12  2  0
 11 13  1  0
 13 14  1  0
 14 15  1  0
  3  5  1  0
  5  6  2  0
  6  7  1  0
  6  8  1  0
  8 17  1  0
 17 18  1  0
 18 19  2  0
 19 20  1  0
 20 21  1  0
 20 22  2  0
 22 23  1  0
 23 25  1  0
 25 26  1  0
 25 27  1  0
 27 28  1  0
 27 29  2  0
 23 24  2  0
  8  2  1  0
 24 18  1  0
 14  9  2  0
 10 16  1  0
M  CHG 1  13  -1
M  CHG 1  15  -1
M  END
> <UniqueID>
29

> <SMILES>
C=c1c(=Cc2[nH]c(=O)[n-]c2[O-])cc(C)n1Cc1cc(C)cc(N(C)C(C)=O)c1

> <Energy>
119.04589467938376

> <Genealogy>
C=c1c(=Cc2[nH]c(=O)[n-]c2[O-])cc(C)n1Cc1cc(C)cc(N(C)C(C)=O)c1 (protonated)
C=c1c(=Cc2[nH]c(=O)[n-]c2[O-])cc(C)n1Cc1cc(C)cc(N(C)C(C)=O)c1 (3D coordinates assigned)
C=c1c(=Cc2[nH]c(=O)[n-]c2[O-])cc(C)n1Cc1cc(C)cc(N(C)C(C)=O)c1 (optimized conformer: 119.04589467938376 kcal/mol)

> <smiles>
C=c1c(=Cc2[nH]c(=O)[nH]c2O)cc(C)n1Cc1cc(C)cc(N(C)C(C)=O)c1

> <score_type>
oracle

> <origin>
adg

> <m_score__min__energy>
-14.17

> <m_primary>
energy

> <minimizedAffinity>
-7.65374

> <minimizedRMSD>
0.53662

> <CNNscore>
0.2039584816

> <CNNaffinity>
6.7423672676

> <CNN_VS>
1.3751629591

> <CNNaffinity_variance>
0.0148107288

$$$$
37:0


 28 30  0  0  0  0  0  0  0  0999 V2000
   59.2173   30.6090   47.0847 C   0  0  0  0  0  0  0  0  0  0  0  0
   58.6457   29.5020   46.4440 C   0  0  0  0  0  0  0  0  0  0  0  0
   57.9156   29.9878   45.0108 S   0  0  0  0  0  0  0  0  0  0  0  0
   58.2496   31.6207   45.2091 C   0  0  0  0  0  0  0  0  0  0  0  0
   59.0013   31.8037   46.3669 C   0  0  0  0  0  0  0  0  0  0  0  0
   59.4453   33.1751   46.8126 C   0  0  0  0  0  0  0  0  0  0  0  0
   59.4050   34.1915   45.6581 C   0  0  0  0  0  0  0  0  0  0  0  0
   58.0879   34.0887   44.8681 C   0  0  0  0  0  0  0  0  0  0  0  0
   57.9442   32.7028   44.2189 C   0  0  0  0  0  0  0  0  0  0  0  0
   60.0909   30.5255   48.3082 C   0  0  0  0  0  0  0  0  0  0  0  0
   59.1272   31.8021   50.2800 N   0  0  0  0  0  0  0  0  0  0  0  0
   59.2680   30.6729   49.5546 C   0  0  0  0  0  0  0  0  0  0  0  0
   58.5818   29.6530   50.1194 N   0  0  0  0  0  0  0  0  0  0  0  0
   58.0266   30.1195   51.2323 N   0  0  0  0  0  0  0  0  0  0  0  0
   58.3807   31.4161   51.3273 C   0  0  0  0  0  0  0  0  0  0  0  0
   57.9129   32.3980   52.5481 S   0  0  0  0  0  0  0  0  0  0  0  0
   59.7053   33.0686   50.0725 N   0  0  0  0  0  0  0  0  0  0  0  0
   62.0282   33.9096   49.3902 C   0  0  0  0  0  0  0  0  0  0  0  0
   61.0607   33.3924   50.4088 C   0  0  0  0  0  0  0  0  0  0  0  0
   61.4415   33.2612   51.6020 O   0  0  0  0  0  0  0  0  0  0  0  0
   58.7723   28.1319   46.8373 N   0  0  0  0  0  0  0  0  0  0  0  0
   57.9960   27.0400   46.3281 C   0  0  0  0  0  0  0  0  0  0  0  0
   56.8692   27.2891   45.8221 O   0  0  0  0  0  0  0  0  0  0  0  0
   58.4319   25.6041   46.4848 C   0  0  0  0  0  0  0  0  0  0  0  0
   57.5436   24.8507   47.4852 C   0  0  0  0  0  0  0  0  0  0  0  0
   56.7327   23.7956   46.7974 C   0  0  0  0  0  0  0  0  0  0  0  0
   57.2688   22.7087   46.4480 O   0  0  0  0  0  0  0  0  0  0  0  0
   55.3911   24.0243   46.5111 O   0  0  0  0  0  0  0  0  0  0  0  0
 18 19  1  0
 19 20  2  0
 19 17  1  0
 17 11  1  0
 11 12  1  0
 12 10  1  0
 10  1  1  0
  1  2  2  0
  2 21  1  0
 21 22  1  0
 22 23  2  0
 22 24  1  0
 24 25  1  0
 25 26  1  0
 26 27  2  0
 26 28  1  0
  2  3  1  0
  3  4  1  0
  4  5  2  0
  5  6  1  0
  6  7  1  0
  7  8  1  0
  8  9  1  0
 12 13  2  0
 13 14  1  0
 14 15  1  0
 15 16  2  0
 15 11  1  0
  5  1  1  0
  9  4  1  0
M  CHG 1  14  -1
M  CHG 1  17  -1
M  CHG 1  21  -1
M  CHG 1  28  -1
M  END
> <UniqueID>
34

> <SMILES>
CC(=O)[N-]n1c(Cc2c([N-]C(=O)CCC(=O)[O-])sc3c2CCCC3)n[n-]c1=S

> <Energy>
113.88391676667796

> <Genealogy>
CC(=O)[N-]n1c(Cc2c([N-]C(=O)CCC(=O)[O-])sc3c2CCCC3)n[n-]c1=S (protonated)
CC(=O)[N-]n1c(Cc2c([N-]C(=O)CCC(=O)[O-])sc3c2CCCC3)n[n-]c1=S (3D coordinates assigned)
CC(=O)[N-]n1c(Cc2c([N-]C(=O)CCC(=O)[O-])sc3c2CCCC3)n[n-]c1=S (nonaromatic ring conformer: 113.88391676667796 kcal/mol)

> <smiles>
CC(=O)Nn1c(Cc2c(NC(=O)CCC(=O)O)sc3c2CCCC3)n[nH]c1=S

> <score_type>
oracle

> <origin>
adg

> <m_score__min__energy>
-14.779999999999999

> <m_primary>
energy

> <minimizedAffinity>
-7.32501

> <minimizedRMSD>
1.51624

> <CNNscore>
0.5918517709

> <CNNaffinity>
7.0480690002

> <CNN_VS>
4.1714119911

> <CNNaffinity_variance>
0.1193234324

$$$$
42:0


 25 27  0  0  0  0  0  0  0  0999 V2000
   60.4323   28.9493   44.7350 C   0  0  0  0  0  0  0  0  0  0  0  0
   59.8580   28.6649   45.9156 C   0  0  0  0  0  0  0  0  0  0  0  0
   58.8610   27.7056   46.1540 C   0  0  0  0  0  0  0  0  0  0  0  0
   58.3758   26.7183   45.3745 C   0  0  0  0  0  0  0  0  0  0  0  0
   58.4335   27.9048   47.4551 C   0  0  0  0  0  0  0  0  0  0  0  0
   59.2204   28.9043   47.9849 C   0  0  0  0  0  0  0  0  0  0  0  0
   59.1329   29.3921   49.3999 C   0  0  0  0  0  0  0  0  0  0  0  0
   60.0796   29.3785   47.0542 N   0  0  0  0  0  0  0  0  0  0  0  0
   57.6576   25.5255   45.8523 C   0  0  0  0  0  0  0  0  0  0  0  0
   58.2428   24.3590   46.1824 N   0  0  0  0  0  0  0  0  0  0  0  0
   57.2233   23.6322   46.6904 C   0  0  0  0  0  0  0  0  0  0  0  0
   57.3722   22.4527   47.1036 O   0  0  0  0  0  0  0  0  0  0  0  0
   56.0349   24.2731   46.7315 N   0  0  0  0  0  0  0  0  0  0  0  0
   56.3329   25.4744   46.2105 C   0  0  0  0  0  0  0  0  0  0  0  0
   55.4118   26.5055   46.0710 O   0  0  0  0  0  0  0  0  0  0  0  0
   61.0854   30.4287   47.2814 C   0  0  0  0  0  0  0  0  0  0  0  0
   60.4147   31.7745   47.3879 C   0  0  0  0  0  0  0  0  0  0  0  0
   59.4447   32.0836   46.4854 N   0  0  0  0  0  0  0  0  0  0  0  0
   58.7921   33.2726   46.5227 C   0  0  0  0  0  0  0  0  0  0  0  0
   59.0967   34.1860   47.4768 N   0  0  0  0  0  0  0  0  0  0  0  0
   60.0507   33.9271   48.4075 C   0  0  0  0  0  0  0  0  0  0  0  0
   60.7376   32.7096   48.3905 C   0  0  0  0  0  0  0  0  0  0  0  0
   61.9595   32.4133   49.6230 Cl  0  0  0  0  0  0  0  0  0  0  0  0
   57.5309   33.6346   45.3053 S   0  0  0  0  0  0  0  0  0  0  0  0
   57.7495   32.0482   44.4428 C   0  0  0  0  0  0  0  0  0  0  0  0
  1  2  2  0
  2  3  1  0
  3  4  2  0
  4  9  1  0
  9 10  1  0
 10 11  1  0
 11 12  2  0
 11 13  1  0
 13 14  1  0
 14 15  1  0
  3  5  1  0
  5  6  2  0
  6  7  1  0
  6  8  1  0
  8 16  1  0
 16 17  1  0
 17 18  2  0
 18 19  1  0
 19 24  1  0
 24 25  1  0
 19 20  2  0
 20 21  1  0
 21 22  2  0
 22 23  1  0
  8  2  1  0
 22 17  1  0
 14  9  2  0
M  CHG 1  10  -1
M  CHG 1  13  -1
M  CHG 1  15  -1
M  END
> <UniqueID>
39

> <SMILES>
C=c1c(=Cc2[n-]c(=O)[n-]c2[O-])cc(C)n1Cc1nc(SC)ncc1Cl

> <Energy>
106.11844447416054

> <Genealogy>
C=c1c(=Cc2[n-]c(=O)[n-]c2[O-])cc(C)n1Cc1nc(SC)ncc1Cl (protonated)
C=c1c(=Cc2[n-]c(=O)[n-]c2[O-])cc(C)n1Cc1nc(SC)ncc1Cl (3D coordinates assigned)
C=c1c(=Cc2[n-]c(=O)[n-]c2[O-])cc(C)n1Cc1nc(SC)ncc1Cl (optimized conformer: 106.11844447416054 kcal/mol)

> <smiles>
C=c1c(=Cc2[nH]c(=O)[nH]c2O)cc(C)n1Cc1nc(SC)ncc1Cl

> <score_type>
oracle

> <origin>
adg

> <m_score__min__energy>
-15.640000000000001

> <m_primary>
energy

> <minimizedAffinity>
-7.46231

> <minimizedRMSD>
0.89757

> <CNNscore>
0.2757834494

> <CNNaffinity>
6.7216811180

> <CNN_VS>
1.8537284136

> <CNNaffinity_variance>
0.0075828247

$$$$
43:0


 32 35  0  0  0  0  0  0  0  0999 V2000
   56.6454   28.7598   44.6019 C   0  0  0  0  0  0  0  0  0  0  0  0
   57.8928   28.4784   45.0109 C   0  0  0  0  0  0  0  0  0  0  0  0
   58.4471   27.2094   45.2560 C   0  0  0  0  0  0  0  0  0  0  0  0
   57.9631   25.9712   45.0355 C   0  0  0  0  0  0  0  0  0  0  0  0
   59.7044   27.4339   45.7961 C   0  0  0  0  0  0  0  0  0  0  0  0
   59.8932   28.7990   45.8191 C   0  0  0  0  0  0  0  0  0  0  0  0
   61.1324   29.4834   46.3116 C   0  0  0  0  0  0  0  0  0  0  0  0
   58.8038   29.4326   45.3333 N   0  0  0  0  0  0  0  0  0  0  0  0
   57.2405   25.1456   46.0115 C   0  0  0  0  0  0  0  0  0  0  0  0
   57.7799   24.0745   46.6190 N   0  0  0  0  0  0  0  0  0  0  0  0
   56.7505   23.5682   47.3329 C   0  0  0  0  0  0  0  0  0  0  0  0
   56.8677   22.5493   48.0603 O   0  0  0  0  0  0  0  0  0  0  0  0
   55.5836   24.2343   47.1943 N   0  0  0  0  0  0  0  0  0  0  0  0
   55.9033   25.2216   46.3428 C   0  0  0  0  0  0  0  0  0  0  0  0
   54.9804   26.1513   45.8689 O   0  0  0  0  0  0  0  0  0  0  0  0
   54.0898   26.1166   46.1579 H   0  0  0  0  0  0  0  0  0  0  0  0
   58.6355   30.8591   45.2670 C   0  0  0  0  0  0  0  0  0  0  0  0
   57.9339   31.4350   44.1996 C   0  0  0  0  0  0  0  0  0  0  0  0
   57.7753   32.8213   44.1309 C   0  0  0  0  0  0  0  0  0  0  0  0
   58.3273   33.6400   45.1200 C   0  0  0  0  0  0  0  0  0  0  0  0
   59.0553   33.0778   46.1837 C   0  0  0  0  0  0  0  0  0  0  0  0
   59.1925   31.6818   46.2555 C   0  0  0  0  0  0  0  0  0  0  0  0
   59.6413   33.9423   47.2315 C   0  0  0  0  0  0  0  0  0  0  0  0
   59.0210   34.9746   47.6071 O   0  0  0  0  0  0  0  0  0  0  0  0
   60.8983   33.6142   47.8414 N   0  0  0  0  0  0  0  0  0  0  0  0
   62.0903   33.4635   46.9917 C   0  0  0  0  0  0  0  0  0  0  0  0
   63.3318   33.1195   47.8238 C   0  0  0  0  0  0  0  0  0  0  0  0
   62.9923   32.0443   48.8631 C   0  0  0  0  0  0  0  0  0  0  0  0
   61.8851   32.5275   49.8379 C   0  0  0  0  0  0  0  0  0  0  0  0
   61.0396   33.6961   49.2995 C   0  0  0  0  0  0  0  0  0  0  0  0
   64.1716   31.7273   49.5829 O   0  0  0  0  0  0  0  0  0  0  0  0
   64.8046   32.9046   50.0385 C   0  0  0  0  0  0  0  0  0  0  0  0
  1  2  2  0
  2  3  1  0
  3  4  2  0
  4  9  1  0
  9 10  1  0
 10 11  1  0
 11 12  2  0
 11 13  1  0
 13 14  1  0
 14 15  1  0
  3  5  1  0
  5  6  2  0
  6  7  1  0
  6  8  1  0
  8 17  1  0
 17 18  2  0
 18 19  1  0
 19 20  2  0
 20 21  1  0
 21 23  1  0
 23 24  2  0
 23 25  1  0
 25 26  1  0
 26 27  1  0
 27 28  1  0
 28 31  1  0
 31 32  1  0
 28 29  1  0
 29 30  1  0
 21 22  2  0
  8  2  1  0
 22 17  1  0
 14  9  2  0
 30 25  1  0
 15 16  1  0
M  CHG 1  10  -1
M  CHG 1  13  -1
M  END
> <UniqueID>
40

> <SMILES>
C=c1c(=Cc2[n-]c(=O)[n-]c2O)cc(C)n1-c1cccc(C(=O)N2CCC(OC)CC2)c1

> <Energy>
141.26428619560807

> <Genealogy>
C=c1c(=Cc2[n-]c(=O)[n-]c2O)cc(C)n1-c1cccc(C(=O)N2CCC(OC)CC2)c1 (protonated)
C=c1c(=Cc2[n-]c(=O)[n-]c2O)cc(C)n1-c1cccc(C(=O)N2CCC(OC)CC2)c1 (3D coordinates assigned)
C=c1c(=Cc2[n-]c(=O)[n-]c2O)cc(C)n1-c1cccc(C(=O)N2CCC(OC)CC2)c1 (nonaromatic ring conformer: 141.26428619560807 kcal/mol)

> <smiles>
C=c1c(=Cc2[nH]c(=O)[nH]c2O)cc(C)n1-c1cccc(C(=O)N2CCC(OC)CC2)c1

> <score_type>
oracle

> <origin>
adg

> <m_score__min__energy>
-15.19

> <m_primary>
energy

> <minimizedAffinity>
-9.92570

> <minimizedRMSD>
0.50375

> <CNNscore>
0.5814923644

> <CNNaffinity>
7.0709757805

> <CNN_VS>
4.1117186546

> <CNNaffinity_variance>
0.0208787024

$$$$
48:0


 24 26  0  0  0  0  0  0  0  0999 V2000
   60.9539   26.5219   46.3519 C   0  0  0  0  0  0  0  0  0  0  0  0
   60.1032   27.4874   46.7260 C   0  0  0  0  0  0  0  0  0  0  0  0
   60.5135   28.3026   47.7271 N   0  0  0  0  0  0  0  0  0  0  0  0
   59.8617   29.4389   48.0583 C   0  0  0  0  0  0  0  0  0  0  0  0
   60.3031   30.1337   49.0136 O   0  0  0  0  0  0  0  0  0  0  0  0
   58.7632   29.8376   47.3465 N   0  0  0  0  0  0  0  0  0  0  0  0
   58.2791   29.0363   46.3407 C   0  0  0  0  0  0  0  0  0  0  0  0
   57.2570   29.4049   45.6924 O   0  0  0  0  0  0  0  0  0  0  0  0
   58.8829   27.7837   46.0494 C   0  0  0  0  0  0  0  0  0  0  0  0
   58.2640   26.9472   45.1696 C   0  0  0  0  0  0  0  0  0  0  0  0
   57.6878   25.6267   45.4896 C   0  0  0  0  0  0  0  0  0  0  0  0
   58.5229   24.1572   45.5163 S   0  0  0  0  0  0  0  0  0  0  0  0
   57.2054   23.3246   46.1452 C   0  0  0  0  0  0  0  0  0  0  0  0
   57.1976   22.0924   46.3937 O   0  0  0  0  0  0  0  0  0  0  0  0
   56.1431   24.1257   46.3697 N   0  0  0  0  0  0  0  0  0  0  0  0
   56.4181   25.4107   46.0199 C   0  0  0  0  0  0  0  0  0  0  0  0
   55.4868   26.4268   46.1863 O   0  0  0  0  0  0  0  0  0  0  0  0
   58.1146   31.1322   47.6405 C   0  0  0  0  0  0  0  0  0  0  0  0
   58.6678   32.2133   46.7488 C   0  0  0  0  0  0  0  0  0  0  0  0
   57.9602   32.6193   45.6060 C   0  0  0  0  0  0  0  0  0  0  0  0
   58.4576   33.6448   44.7954 C   0  0  0  0  0  0  0  0  0  0  0  0
   59.6621   34.2739   45.1211 C   0  0  0  0  0  0  0  0  0  0  0  0
   60.3704   33.8787   46.2597 C   0  0  0  0  0  0  0  0  0  0  0  0
   59.8764   32.8545   47.0723 C   0  0  0  0  0  0  0  0  0  0  0  0
  1  2  2  0
  2  3  1  0
  3  4  1  0
  4  5  2  0
  4  6  1  0
  6 18  1  0
 18 19  1  0
 19 20  2  0
 20 21  1  0
 21 22  2  0
 22 23  1  0
 23 24  2  0
  6  7  1  0
  7  8  2  0
  7  9  1  0
  9 10  2  0
 10 11  1  0
 11 12  1  0
 12 13  1  0
 13 14  2  0
 13 15  1  0
 15 16  1  0
 16 17  1  0
  9  2  1  0
 16 11  2  0
 24 19  1  0
M  CHG 1   3  -1
M  CHG 1  15  -1
M  CHG 1  17  -1
M  END
> <UniqueID>
45

> <SMILES>
C=c1[n-]c(=O)n(Cc2ccccc2)c(=O)c1=Cc1sc(=O)[n-]c1[O-]

> <Energy>
94.05903674098707

> <Genealogy>
C=c1[n-]c(=O)n(Cc2ccccc2)c(=O)c1=Cc1sc(=O)[n-]c1[O-] (protonated)
C=c1[n-]c(=O)n(Cc2ccccc2)c(=O)c1=Cc1sc(=O)[n-]c1[O-] (3D coordinates assigned)
C=c1[n-]c(=O)n(Cc2ccccc2)c(=O)c1=Cc1sc(=O)[n-]c1[O-] (optimized conformer: 94.05903674098707 kcal/mol)

> <smiles>
C=c1[nH]c(=O)n(Cc2ccccc2)c(=O)c1=Cc1sc(=O)[nH]c1O

> <score_type>
oracle

> <origin>
adg

> <m_score__min__energy>
-15.25

> <m_primary>
energy

> <minimizedAffinity>
-6.24988

> <minimizedRMSD>
0.83448

> <CNNscore>
0.4446018934

> <CNNaffinity>
6.3243451118

> <CNN_VS>
2.8118157387

> <CNNaffinity_variance>
0.0784917697

$$$$
61:0


 35 38  0  0  0  0  0  0  0  0999 V2000
   61.3107   32.6583   48.2348 C   0  0  0  0  0  0  0  0  0  0  0  0
   60.8880   32.7087   49.5702 C   0  0  0  0  0  0  0  0  0  0  0  0
   61.8005   32.9972   50.5881 C   0  0  0  0  0  0  0  0  0  0  0  0
   63.1534   33.2292   50.2863 C   0  0  0  0  0  0  0  0  0  0  0  0
   63.5699   33.1926   48.9454 C   0  0  0  0  0  0  0  0  0  0  0  0
   62.6559   32.9061   47.9270 C   0  0  0  0  0  0  0  0  0  0  0  0
   60.7735   30.0401   46.9499 C   0  0  0  0  0  0  0  0  0  0  0  0
   60.1769   31.1779   46.5607 C   0  0  0  0  0  0  0  0  0  0  0  0
   59.1808   31.3250   45.5790 C   0  0  0  0  0  0  0  0  0  0  0  0
   58.6906   30.4525   44.6763 C   0  0  0  0  0  0  0  0  0  0  0  0
   58.7367   32.6339   45.6715 C   0  0  0  0  0  0  0  0  0  0  0  0
   59.4997   33.2492   46.6414 C   0  0  0  0  0  0  0  0  0  0  0  0
   59.3575   34.6844   47.0501 C   0  0  0  0  0  0  0  0  0  0  0  0
   60.3703   32.3684   47.1837 N   0  0  0  0  0  0  0  0  0  0  0  0
   58.2844   29.0631   44.9585 C   0  0  0  0  0  0  0  0  0  0  0  0
   56.9399   28.7293   45.1926 C   0  0  0  0  0  0  0  0  0  0  0  0
   55.9459   29.6993   45.1315 O   0  0  0  0  0  0  0  0  0  0  0  0
   56.6008   27.4472   45.4870 N   0  0  0  0  0  0  0  0  0  0  0  0
   57.5459   26.4760   45.5765 C   0  0  0  0  0  0  0  0  0  0  0  0
   57.1069   24.9447   45.9301 S   0  0  0  0  0  0  0  0  0  0  0  0
   58.8542   26.7798   45.3829 N   0  0  0  0  0  0  0  0  0  0  0  0
   59.2450   28.0468   45.0858 C   0  0  0  0  0  0  0  0  0  0  0  0
   60.4693   28.2943   44.9172 O   0  0  0  0  0  0  0  0  0  0  0  0
   64.1156   33.5476   51.3657 C   0  0  0  0  0  0  0  0  0  0  0  0
   64.1487   34.7149   51.8442 O   0  0  0  0  0  0  0  0  0  0  0  0
   65.0248   32.5548   51.8668 N   0  0  0  0  0  0  0  0  0  0  0  0
   64.4810   31.2970   52.4004 C   0  0  0  0  0  0  0  0  0  0  0  0
   65.6039   30.3536   52.8307 C   0  0  0  0  0  0  0  0  0  0  0  0
   66.7025   30.4538   51.8551 N   0  0  0  0  0  0  0  0  0  0  0  0
   67.3899   31.7577   51.9899 C   0  0  0  0  0  0  0  0  0  0  0  0
   66.4094   32.9407   52.1666 C   0  0  0  0  0  0  0  0  0  0  0  0
   67.6571   29.3282   51.9845 C   0  0  0  0  0  0  0  0  0  0  0  0
   67.2000   28.1467   51.1310 C   0  0  0  0  0  0  0  0  0  0  0  0
   67.9576   28.0663   49.9566 O   0  0  0  0  0  0  0  0  0  0  0  0
   67.8435   28.8805   49.4418 H   0  0  0  0  0  0  0  0  0  0  0  0
  7  8  2  0
  8  9  1  0
  9 10  2  0
 10 15  1  0
 15 16  2  0
 16 17  1  0
 16 18  1  0
 18 19  1  0
 19 20  2  0
 19 21  1  0
 21 22  1  0
 22 23  2  0
  9 11  1  0
 11 12  2  0
 12 13  1  0
 12 14  1  0
 14  1  1  0
  1  2  2  0
  2  3  1  0
  3  4  2  0
  4 24  1  0
 24 25  2  0
 24 26  1  0
 26 27  1  0
 27 28  1  0
 28 29  1  0
 29 32  1  0
 32 33  1  0
 33 34  1  0
 29 30  1  0
 30 31  1  0
  4  5  1  0
  5  6  2  0
 14  8  1  0
  6  1  1  0
 22 15  1  0
 31 26  1  0
 34 35  1  0
M  CHG 1  17  -1
M  CHG 1  18  -1
M  CHG 1  21  -1
M  END
> <UniqueID>
57

> <SMILES>
C=c1c(=Cc2c([O-])[n-]c(=S)[n-]c2=O)cc(C)n1-c1ccc(C(=O)N2CCN(CCO)CC2)cc1

> <Energy>
119.57982969045457

> <Genealogy>
C=c1c(=Cc2c([O-])[n-]c(=S)[n-]c2=O)cc(C)n1-c1ccc(C(=O)N2CCN(CCO)CC2)cc1 (protonated)
C=c1c(=Cc2c([O-])[n-]c(=S)[n-]c2=O)cc(C)n1-c1ccc(C(=O)N2CCN(CCO)CC2)cc1 (3D coordinates assigned)
C=c1c(=Cc2c([O-])[n-]c(=S)[n-]c2=O)cc(C)n1-c1ccc(C(=O)N2CCN(CCO)CC2)cc1 (nonaromatic ring conformer: 119.57982969045457 kcal/mol)

> <smiles>
C=c1c(=Cc2c(O)[nH]c(=S)[nH]c2=O)cc(C)n1-c1ccc(C(=O)N2CCN(CCO)CC2)cc1

> <score_type>
oracle

> <origin>
adg

> <m_score__min__energy>
-15.800000000000001

> <m_primary>
energy

> <minimizedAffinity>
-7.54755

> <minimizedRMSD>
1.50071

> <CNNscore>
0.3240664303

> <CNNaffinity>
7.1058506966

> <CNN_VS>
2.3027677536

> <CNNaffinity_variance>
0.1439368576

$$$$
76:0


 24 26  0  0  0  0  0  0  0  0999 V2000
   54.7114   30.7570   52.0096 C   0  0  0  0  0  0  0  0  0  0  0  0
   55.4975   29.8621   52.6281 C   0  0  0  0  0  0  0  0  0  0  0  0
   55.0928   28.7519   53.3901 C   0  0  0  0  0  0  0  0  0  0  0  0
   53.8813   28.1902   53.5576 C   0  0  0  0  0  0  0  0  0  0  0  0
   56.2363   28.2675   54.0059 C   0  0  0  0  0  0  0  0  0  0  0  0
   57.2886   29.0375   53.5565 C   0  0  0  0  0  0  0  0  0  0  0  0
   58.7113   28.8906   54.0025 C   0  0  0  0  0  0  0  0  0  0  0  0
   56.8463   29.9887   52.7060 N   0  0  0  0  0  0  0  0  0  0  0  0
   52.7477   28.7964   54.2716 C   0  0  0  0  0  0  0  0  0  0  0  0
   52.6078   28.7640   55.6081 N   0  0  0  0  0  0  0  0  0  0  0  0
   51.3894   29.3119   55.8093 C   0  0  0  0  0  0  0  0  0  0  0  0
   50.8996   29.4726   56.9558 O   0  0  0  0  0  0  0  0  0  0  0  0
   50.7333   29.6638   54.6818 N   0  0  0  0  0  0  0  0  0  0  0  0
   51.6001   29.3179   53.7180 C   0  0  0  0  0  0  0  0  0  0  0  0
   51.3351   29.4479   52.3589 O   0  0  0  0  0  0  0  0  0  0  0  0
   57.6450   31.0664   52.1907 C   0  0  0  0  0  0  0  0  0  0  0  0
   57.6913   32.2644   52.9133 C   0  0  0  0  0  0  0  0  0  0  0  0
   58.5186   33.3053   52.5024 C   0  0  0  0  0  0  0  0  0  0  0  0
   59.3086   33.1373   51.3694 C   0  0  0  0  0  0  0  0  0  0  0  0
   59.2607   31.9736   50.6680 N   0  0  0  0  0  0  0  0  0  0  0  0
   58.4476   30.9369   51.0253 C   0  0  0  0  0  0  0  0  0  0  0  0
   59.8333   31.8749   49.8733 H   0  0  0  0  0  0  0  0  0  0  0  0
   58.4630   29.7966   50.2014 O   0  0  0  0  0  0  0  0  0  0  0  0
   59.2654   29.5996   49.0436 C   0  0  0  0  0  0  0  0  0  0  0  0
  1  2  2  0
  2  3  1  0
  3  4  2  0
  4  9  1  0
  9 10  1  0
 10 11  1  0
 11 12  2  0
 11 13  1  0
 13 14  1  0
 14 15  1  0
  3  5  1  0
  5  6  2  0
  6  7  1  0
  6  8  1  0
  8 16  1  0
 16 17  2  0
 17 18  1  0
 18 19  2  0
 19 20  1  0
 20 21  2  0
 21 23  1  0
 23 24  1  0
  8  2  1  0
 21 16  1  0
 14  9  2  0
 20 22  1  0
M  CHG 1  10  -1
M  CHG 1  13  -1
M  CHG 1  15  -1
M  CHG 1  20   1
M  END
> <UniqueID>
72

> <SMILES>
C=c1c(=Cc2[n-]c(=O)[n-]c2[O-])cc(C)n1-c1ccc[nH+]c1OC

> <Energy>
118.3482470859376

> <Genealogy>
C=c1c(=Cc2[n-]c(=O)[n-]c2[O-])cc(C)n1-c1ccc[nH+]c1OC (protonated)
C=c1c(=Cc2[n-]c(=O)[n-]c2[O-])cc(C)n1-c1ccc[nH+]c1OC (3D coordinates assigned)
C=c1c(=Cc2[n-]c(=O)[n-]c2[O-])cc(C)n1-c1ccc[nH+]c1OC (optimized conformer: 118.3482470859376 kcal/mol)

> <smiles>
C=c1c(=Cc2[nH]c(=O)[nH]c2O)cc(C)n1-c1cccnc1OC

> <score_type>
oracle

> <origin>
adg

> <m_score__min__energy>
-14.18

> <m_primary>
energy

> <minimizedAffinity>
-5.00777

> <minimizedRMSD>
3.32693

> <CNNscore>
0.2452684939

> <CNNaffinity>
5.0079731941

> <CNN_VS>
1.2282980680

> <CNNaffinity_variance>
0.1796682030

$$$$
77:0


 28 30  0  0  0  0  0  0  0  0999 V2000
   57.0162   31.1796   44.9848 N   0  0  0  0  0  0  0  0  0  0  0  0
   57.7053   32.2611   45.2080 C   0  0  0  0  0  0  0  0  0  0  0  0
   58.0659   33.1349   44.2418 N   0  0  0  0  0  0  0  0  0  0  0  0
   58.7211   34.0985   44.9113 C   0  0  0  0  0  0  0  0  0  0  0  0
   58.7355   33.7791   46.2501 C   0  0  0  0  0  0  0  0  0  0  0  0
   58.0793   32.6228   46.4512 N   0  0  0  0  0  0  0  0  0  0  0  0
   57.5466   29.8534   44.8316 C   0  0  0  0  0  0  0  0  0  0  0  0
   57.2970   29.2274   43.7685 O   0  0  0  0  0  0  0  0  0  0  0  0
   60.5407   27.3627   49.0490 C   0  0  0  0  0  0  0  0  0  0  0  0
   59.8389   27.9505   48.0702 C   0  0  0  0  0  0  0  0  0  0  0  0
   60.0512   29.3644   47.7138 C   0  0  0  0  0  0  0  0  0  0  0  0
   60.8988   30.0702   48.3241 O   0  0  0  0  0  0  0  0  0  0  0  0
   59.2732   29.9429   46.6608 N   0  0  0  0  0  0  0  0  0  0  0  0
   58.3039   29.1798   45.9162 C   0  0  0  0  0  0  0  0  0  0  0  0
   58.0757   27.8837   46.2173 C   0  0  0  0  0  0  0  0  0  0  0  0
   57.1430   27.1449   45.4932 O   0  0  0  0  0  0  0  0  0  0  0  0
   58.8191   27.2087   47.3000 C   0  0  0  0  0  0  0  0  0  0  0  0
   58.5735   25.9983   47.5558 O   0  0  0  0  0  0  0  0  0  0  0  0
   59.4046   30.8928   46.4381 H   0  0  0  0  0  0  0  0  0  0  0  0
   59.2985   34.6244   47.3484 C   0  0  0  0  0  0  0  0  0  0  0  0
   60.5755   34.0178   47.8616 C   0  0  0  0  0  0  0  0  0  0  0  0
   60.7902   33.8815   49.2414 C   0  0  0  0  0  0  0  0  0  0  0  0
   61.9614   33.2829   49.7185 C   0  0  0  0  0  0  0  0  0  0  0  0
   62.9321   32.8047   48.8175 C   0  0  0  0  0  0  0  0  0  0  0  0
   62.7079   32.9307   47.4416 C   0  0  0  0  0  0  0  0  0  0  0  0
   61.5383   33.5279   46.9650 C   0  0  0  0  0  0  0  0  0  0  0  0
   64.1222   32.1982   49.2459 O   0  0  0  0  0  0  0  0  0  0  0  0
   65.0371   32.7853   50.1660 C   0  0  0  0  0  0  0  0  0  0  0  0
  9 10  2  0
 10 11  1  0
 11 12  2  0
 11 13  1  0
 13 14  1  0
 14  7  1  0
  7  8  2  0
  7  1  1  0
  1  2  2  0
  2  3  1  0
  3  4  1  0
  4  5  2  0
  5 20  1  0
 20 21  1  0
 21 22  2  0
 22 23  1  0
 23 24  2  0
 24 27  1  0
 27 28  1  0
 24 25  1  0
 25 26  2  0
  5  6  1  0
 14 15  2  0
 15 16  1  0
 15 17  1  0
 17 18  2  0
 17 10  1  0
  6  2  1  0
 26 21  1  0
 13 19  1  0
M  CHG 1   3  -1
M  CHG 1   6  -1
M  CHG 1  16  -1
M  END
> <UniqueID>
73

> <SMILES>
C=C1C(=O)NC(C(=O)N=c2[n-]cc(Cc3ccc(OC)cc3)[n-]2)=C([O-])C1=O

> <Energy>
74.40363666045755

> <Genealogy>
C=C1C(=O)NC(C(=O)N=c2[n-]cc(Cc3ccc(OC)cc3)[n-]2)=C([O-])C1=O (protonated)
C=C1C(=O)NC(C(=O)N=c2[n-]cc(Cc3ccc(OC)cc3)[n-]2)=C([O-])C1=O (3D coordinates assigned)
C=C1C(=O)NC(C(=O)N=c2[n-]cc(Cc3ccc(OC)cc3)[n-]2)=C([O-])C1=O (nonaromatic ring conformer: 74.40363666045755 kcal/mol)

> <smiles>
C=C1C(=O)NC(C(=O)N=c2[nH]cc(Cc3ccc(OC)cc3)[nH]2)=C(O)C1=O

> <score_type>
oracle

> <origin>
adg

> <m_score__min__energy>
-14.949999999999999

> <m_primary>
energy

> <minimizedAffinity>
-8.70135

> <minimizedRMSD>
1.43680

> <CNNscore>
0.8658494353

> <CNNaffinity>
6.7712740898

> <CNN_VS>
5.8629040718

> <CNNaffinity_variance>
0.0908574089

$$$$
0:0


 23 24  0  0  0  0  0  0  0  0999 V2000
   59.1534   28.0579   45.8479 C   0  0  0  0  0  0  0  0  0  0  0  0
   60.4636   28.4823   44.9403 S   0  0  0  0  0  0  0  0  0  0  0  0
   58.2292   26.3393   47.3459 C   0  0  0  0  0  0  0  0  0  0  0  0
   59.1010   26.7665   46.4768 N   0  0  0  0  0  0  0  0  0  0  0  0
   57.0569   25.5050   47.0016 C   0  0  0  0  0  0  0  0  0  0  0  0
   56.1416   25.9404   46.0314 C   0  0  0  0  0  0  0  0  0  0  0  0
   56.3065   27.1695   45.4041 O   0  0  0  0  0  0  0  0  0  0  0  0
   55.0764   25.1642   45.7063 N   0  0  0  0  0  0  0  0  0  0  0  0
   54.8840   23.9560   46.2963 C   0  0  0  0  0  0  0  0  0  0  0  0
   53.8855   23.2574   45.9839 O   0  0  0  0  0  0  0  0  0  0  0  0
   55.7704   23.4988   47.2167 N   0  0  0  0  0  0  0  0  0  0  0  0
   56.8544   24.2362   47.5736 C   0  0  0  0  0  0  0  0  0  0  0  0
   57.6752   23.7639   48.4036 O   0  0  0  0  0  0  0  0  0  0  0  0
   58.2334   29.0644   46.2957 N   0  0  0  0  0  0  0  0  0  0  0  0
   57.4503   28.7808   46.8206 H   0  0  0  0  0  0  0  0  0  0  0  0
   58.3965   30.4657   46.0171 C   0  0  0  0  0  0  0  0  0  0  0  0
   59.1727   31.2627   46.8871 C   0  0  0  0  0  0  0  0  0  0  0  0
   59.8299   30.6598   48.0975 C   0  0  0  0  0  0  0  0  0  0  0  0
   59.3368   32.6290   46.6118 C   0  0  0  0  0  0  0  0  0  0  0  0
   58.7436   33.1988   45.4856 C   0  0  0  0  0  0  0  0  0  0  0  0
   57.9679   32.4172   44.6298 C   0  0  0  0  0  0  0  0  0  0  0  0
   57.7683   31.0542   44.8958 C   0  0  0  0  0  0  0  0  0  0  0  0
   56.9121   30.2406   43.9642 C   0  0  0  0  0  0  0  0  0  0  0  0
  3  4  2  0
  4  1  1  0
  1  2  2  0
  1 14  1  0
 14 16  1  0
 16 17  2  0
 17 18  1  0
 17 19  1  0
 19 20  2  0
 20 21  1  0
 21 22  2  0
 22 23  1  0
  3  5  1  0
  5  6  2  0
  6  7  1  0
  6  8  1  0
  8  9  1  0
  9 10  2  0
  9 11  1  0
 11 12  1  0
 12 13  2  0
 22 16  1  0
 12  5  1  0
 14 15  1  0
M  CHG 1   7  -1
M  CHG 1   8  -1
M  CHG 1  11  -1
M  END
> <UniqueID>
1

> <SMILES>
Cc1cccc(C)c1NC(=S)/N=C\c1c([O-])[n-]c(=O)[n-]c1=O

> <Energy>
54.318104573935344

> <Genealogy>
Cc1cccc(C)c1NC(=S)N=Cc1c([O-])[n-]c(=O)[n-]c1=O (protonated)
Cc1cccc(C)c1NC(=S)/N=C\c1c([O-])[n-]c(=O)[n-]c1=O (cis-trans isomerization)
Cc1cccc(C)c1NC(=S)/N=C\c1c([O-])[n-]c(=O)[n-]c1=O (3D coordinates assigned)
Cc1cccc(C)c1NC(=S)/N=C\c1c([O-])[n-]c(=O)[n-]c1=O (optimized conformer: 54.318104573935344 kcal/mol)

> <smiles>
Cc1cccc(C)c1NC(=S)N=Cc1c(O)[nH]c(=O)[nH]c1=O

> <score_type>
oracle

> <origin>
adg

> <m_score__min__energy>
-14.68

> <m_primary>
energy

> <minimizedAffinity>
-5.56160

> <minimizedRMSD>
0.84960

> <CNNscore>
0.3626638353

> <CNNaffinity>
6.1847720146

> <CNN_VS>
2.2429931164

> <CNNaffinity_variance>
0.1074350253

$$$$
10:0


 34 37  0  0  0  0  0  0  0  0999 V2000
   60.3030   32.2315   48.9530 C   0  0  0  0  0  0  0  0  0  0  0  0
   61.0671   31.0977   48.6202 C   0  0  0  0  0  0  0  0  0  0  0  0
   60.5854   30.1651   47.6975 C   0  0  0  0  0  0  0  0  0  0  0  0
   59.3256   30.3355   47.1097 C   0  0  0  0  0  0  0  0  0  0  0  0
   58.5526   31.4561   47.4496 C   0  0  0  0  0  0  0  0  0  0  0  0
   59.0365   32.3944   48.3658 C   0  0  0  0  0  0  0  0  0  0  0  0
   66.2044   32.4587   51.1453 C   0  0  0  0  0  0  0  0  0  0  0  0
   66.7347   31.5782   50.4121 O   0  0  0  0  0  0  0  0  0  0  0  0
   64.9233   33.0159   50.7721 N   0  0  0  0  0  0  0  0  0  0  0  0
   64.4526   32.8258   49.3896 C   0  0  0  0  0  0  0  0  0  0  0  0
   63.1531   33.5904   49.1161 C   0  0  0  0  0  0  0  0  0  0  0  0
   62.2032   33.3716   50.2136 N   0  0  0  0  0  0  0  0  0  0  0  0
   60.7974   33.2148   49.9444 C   0  0  0  0  0  0  0  0  0  0  0  0
   59.9674   33.9135   50.5869 O   0  0  0  0  0  0  0  0  0  0  0  0
   62.6486   33.5056   51.6075 C   0  0  0  0  0  0  0  0  0  0  0  0
   64.1407   33.8472   51.7030 C   0  0  0  0  0  0  0  0  0  0  0  0
   68.3067   32.8379   52.2395 O   0  0  0  0  0  0  0  0  0  0  0  0
   66.9148   32.8794   52.4060 C   0  0  0  0  0  0  0  0  0  0  0  0
   68.7392   33.1125   53.0632 H   0  0  0  0  0  0  0  0  0  0  0  0
   58.8161   29.3634   46.1781 N   0  0  0  0  0  0  0  0  0  0  0  0
   58.3377   29.6281   44.9408 C   0  0  0  0  0  0  0  0  0  0  0  0
   58.2662   30.9898   44.3163 C   0  0  0  0  0  0  0  0  0  0  0  0
   57.9129   28.4667   44.3308 C   0  0  0  0  0  0  0  0  0  0  0  0
   58.1864   27.4292   45.2068 C   0  0  0  0  0  0  0  0  0  0  0  0
   57.9829   26.1359   44.8920 C   0  0  0  0  0  0  0  0  0  0  0  0
   58.7011   28.0236   46.3705 C   0  0  0  0  0  0  0  0  0  0  0  0
   58.8895   27.4348   47.5615 C   0  0  0  0  0  0  0  0  0  0  0  0
   57.4148   25.1154   45.7889 C   0  0  0  0  0  0  0  0  0  0  0  0
   58.0128   23.9513   46.1022 N   0  0  0  0  0  0  0  0  0  0  0  0
   57.0696   23.2983   46.8137 C   0  0  0  0  0  0  0  0  0  0  0  0
   57.2619   22.1553   47.3053 O   0  0  0  0  0  0  0  0  0  0  0  0
   55.8993   23.9589   46.9469 N   0  0  0  0  0  0  0  0  0  0  0  0
   56.1318   25.0999   46.2786 C   0  0  0  0  0  0  0  0  0  0  0  0
   55.1857   26.1029   46.1118 O   0  0  0  0  0  0  0  0  0  0  0  0
 17 18  1  0
 18  7  1  0
  7  8  2  0
  7  9  1  0
  9 10  1  0
 10 11  1  0
 11 12  1  0
 12 13  1  0
 13 14  2  0
 13  1  1  0
  1  2  2  0
  2  3  1  0
  3  4  2  0
  4 20  1  0
 20 21  1  0
 21 22  1  0
 21 23  2  0
 23 24  1  0
 24 25  2  0
 25 28  1  0
 28 29  1  0
 29 30  1  0
 30 31  2  0
 30 32  1  0
 32 33  1  0
 33 34  1  0
 24 26  1  0
 26 27  2  0
  4  5  1  0
  5  6  2  0
 12 15  1  0
 15 16  1  0
 16  9  1  0
  6  1  1  0
 26 20  1  0
 33 28  2  0
 17 19  1  0
M  CHG 1  29  -1
M  CHG 1  32  -1
M  CHG 1  34  -1
M  END
> <UniqueID>
9

> <SMILES>
C=c1/c(=C\c2[n-]c(=O)[n-]c2[O-])cc(C)n1-c1ccc(C(=O)N2CCN(C(=O)CO)CC2)cc1

> <Energy>
138.00390899977756

> <Genealogy>
C=c1c(=Cc2[n-]c(=O)[n-]c2[O-])cc(C)n1-c1ccc(C(=O)N2CCN(C(=O)CO)CC2)cc1 (protonated)
C=c1/c(=C\c2[n-]c(=O)[n-]c2[O-])cc(C)n1-c1ccc(C(=O)N2CCN(C(=O)CO)CC2)cc1 (cis-trans isomerization)
C=c1/c(=C\c2[n-]c(=O)[n-]c2[O-])cc(C)n1-c1ccc(C(=O)N2CCN(C(=O)CO)CC2)cc1 (3D coordinates assigned)
C=c1/c(=C\c2[n-]c(=O)[n-]c2[O-])cc(C)n1-c1ccc(C(=O)N2CCN(C(=O)CO)CC2)cc1 (nonaromatic ring conformer: 138.00390899977756 kcal/mol)

> <smiles>
C=c1c(=Cc2[nH]c(=O)[nH]c2O)cc(C)n1-c1ccc(C(=O)N2CCN(C(=O)CO)CC2)cc1

> <score_type>
oracle

> <origin>
adg

> <m_score__min__energy>
-15.77

> <m_primary>
energy

> <minimizedAffinity>
-8.71676

> <minimizedRMSD>
0.91767

> <CNNscore>
0.2022660673

> <CNNaffinity>
6.6948261261

> <CNN_VS>
1.3541361094

> <CNNaffinity_variance>
0.2035589963

$$$$
11:0


 32 35  0  0  0  0  0  0  0  0999 V2000
   60.1832   26.6982   47.7241 C   0  0  0  0  0  0  0  0  0  0  0  0
   59.3456   27.2115   46.8086 C   0  0  0  0  0  0  0  0  0  0  0  0
   58.5218   26.5089   45.9111 C   0  0  0  0  0  0  0  0  0  0  0  0
   58.4152   25.1921   45.6466 C   0  0  0  0  0  0  0  0  0  0  0  0
   57.7663   27.4645   45.2498 C   0  0  0  0  0  0  0  0  0  0  0  0
   58.1670   28.6946   45.7266 C   0  0  0  0  0  0  0  0  0  0  0  0
   57.6258   30.0107   45.2570 C   0  0  0  0  0  0  0  0  0  0  0  0
   59.1300   28.5439   46.6618 N   0  0  0  0  0  0  0  0  0  0  0  0
   57.1619   24.4134   45.6386 C   0  0  0  0  0  0  0  0  0  0  0  0
   56.5233   24.0849   46.8423 C   0  0  0  0  0  0  0  0  0  0  0  0
   57.0868   24.4431   48.0612 O   0  0  0  0  0  0  0  0  0  0  0  0
   55.3490   23.4042   46.8232 N   0  0  0  0  0  0  0  0  0  0  0  0
   54.7657   23.0451   45.6499 C   0  0  0  0  0  0  0  0  0  0  0  0
   53.6799   22.4106   45.6583 O   0  0  0  0  0  0  0  0  0  0  0  0
   55.3514   23.3731   44.4703 N   0  0  0  0  0  0  0  0  0  0  0  0
   56.5263   24.0544   44.4365 C   0  0  0  0  0  0  0  0  0  0  0  0
   57.0313   24.3617   43.3232 O   0  0  0  0  0  0  0  0  0  0  0  0
   59.7482   29.6155   47.3951 C   0  0  0  0  0  0  0  0  0  0  0  0
   60.8502   30.2909   46.8590 C   0  0  0  0  0  0  0  0  0  0  0  0
   61.4453   31.3420   47.5626 C   0  0  0  0  0  0  0  0  0  0  0  0
   60.9360   31.7426   48.8121 C   0  0  0  0  0  0  0  0  0  0  0  0
   59.8324   31.0555   49.3489 C   0  0  0  0  0  0  0  0  0  0  0  0
   59.2415   30.0043   48.6434 C   0  0  0  0  0  0  0  0  0  0  0  0
   61.5802   32.8535   49.5527 C   0  0  0  0  0  0  0  0  0  0  0  0
   61.2596   34.0440   49.2843 O   0  0  0  0  0  0  0  0  0  0  0  0
   62.5545   32.5954   50.5772 N   0  0  0  0  0  0  0  0  0  0  0  0
   62.6847   31.6719   50.8925 H   0  0  0  0  0  0  0  0  0  0  0  0
   63.3619   33.6729   51.1671 C   0  0  0  0  0  0  0  0  0  0  0  0
   64.8420   33.4442   50.8814 C   0  0  0  0  0  0  0  0  0  0  0  0
   65.3590   32.5753   52.0231 C   0  0  0  0  0  0  0  0  0  0  0  0
   64.3493   32.6979   53.1639 C   0  0  0  0  0  0  0  0  0  0  0  0
   63.2668   33.6601   52.6886 C   0  0  0  0  0  0  0  0  0  0  0  0
  1  2  2  0
  2  3  1  0
  3  4  2  0
  4  9  1  0
  9 10  2  0
 10 11  1  0
 10 12  1  0
 12 13  1  0
 13 14  2  0
 13 15  1  0
 15 16  1  0
 16 17  2  0
  3  5  1  0
  5  6  2  0
  6  7  1  0
  6  8  1  0
  8 18  1  0
 18 19  2  0
 19 20  1  0
 20 21  2  0
 21 24  1  0
 24 25  2  0
 24 26  1  0
 26 28  1  0
 28 29  1  0
 29 30  1  0
 30 31  1  0
 31 32  1  0
 21 22  1  0
 22 23  2  0
  8  2  1  0
 23 18  1  0
 16  9  1  0
 32 28  1  0
 26 27  1  0
M  CHG 1  11  -1
M  CHG 1  12  -1
M  CHG 1  15  -1
M  END
> <UniqueID>
10

> <SMILES>
C=c1c(=Cc2c([O-])[n-]c(=O)[n-]c2=O)cc(C)n1-c1ccc(C(=O)NC2CCCC2)cc1

> <Energy>
105.7915898430737

> <Genealogy>
C=c1c(=Cc2c([O-])[n-]c(=O)[n-]c2=O)cc(C)n1-c1ccc(C(=O)NC2CCCC2)cc1 (protonated)
C=c1c(=Cc2c([O-])[n-]c(=O)[n-]c2=O)cc(C)n1-c1ccc(C(=O)NC2CCCC2)cc1 (3D coordinates assigned)
C=c1c(=Cc2c([O-])[n-]c(=O)[n-]c2=O)cc(C)n1-c1ccc(C(=O)NC2CCCC2)cc1 (nonaromatic ring conformer: 105.7915898430737 kcal/mol)

> <smiles>
C=c1c(=Cc2c(O)[nH]c(=O)[nH]c2=O)cc(C)n1-c1ccc(C(=O)NC2CCCC2)cc1

> <score_type>
oracle

> <origin>
adg

> <m_score__min__energy>
-15.949999999999999

> <m_primary>
energy

> <minimizedAffinity>
-8.44935

> <minimizedRMSD>
1.56996

> <CNNscore>
0.1244510263

> <CNNaffinity>
6.3194108009

> <CNN_VS>
0.7864571810

> <CNNaffinity_variance>
0.0139166238

$$$$
20:0


 25 27  0  0  0  0  0  0  0  0999 V2000
   57.9331   31.3120   44.9799 C   0  0  0  0  0  0  0  0  0  0  0  0
   57.7618   32.6463   44.5732 C   0  0  0  0  0  0  0  0  0  0  0  0
   58.4243   33.6814   45.2402 C   0  0  0  0  0  0  0  0  0  0  0  0
   59.2622   33.3974   46.3189 C   0  0  0  0  0  0  0  0  0  0  0  0
   59.4510   32.0722   46.7372 C   0  0  0  0  0  0  0  0  0  0  0  0
   58.7761   31.0353   46.0737 C   0  0  0  0  0  0  0  0  0  0  0  0
   56.8123   30.3952   43.0916 O   0  0  0  0  0  0  0  0  0  0  0  0
   57.2275   30.2151   44.2681 C   0  0  0  0  0  0  0  0  0  0  0  0
   56.9312   28.9715   44.9183 N   0  0  0  0  0  0  0  0  0  0  0  0
   57.7696   28.0859   45.3814 C   0  0  0  0  0  0  0  0  0  0  0  0
   59.1001   28.3469   45.2541 N   0  0  0  0  0  0  0  0  0  0  0  0
   60.0607   27.4879   45.6870 C   0  0  0  0  0  0  0  0  0  0  0  0
   59.6993   26.2862   46.2934 C   0  0  0  0  0  0  0  0  0  0  0  0
   58.3485   25.9893   46.4630 C   0  0  0  0  0  0  0  0  0  0  0  0
   57.3696   26.8848   46.0239 C   0  0  0  0  0  0  0  0  0  0  0  0
   56.0355   26.5775   46.2632 O   0  0  0  0  0  0  0  0  0  0  0  0
   60.3279   31.7649   47.9221 C   0  0  0  0  0  0  0  0  0  0  0  0
   59.4860   31.4218   49.1256 C   0  0  0  0  0  0  0  0  0  0  0  0
   58.9981   32.4385   49.9590 C   0  0  0  0  0  0  0  0  0  0  0  0
   58.2676   32.1259   51.0602 N   0  0  0  0  0  0  0  0  0  0  0  0
   58.0031   30.8344   51.3797 C   0  0  0  0  0  0  0  0  0  0  0  0
   57.3232   30.5664   52.4043 O   0  0  0  0  0  0  0  0  0  0  0  0
   58.4724   29.8296   50.5963 N   0  0  0  0  0  0  0  0  0  0  0  0
   59.2067   30.0913   49.4835 C   0  0  0  0  0  0  0  0  0  0  0  0
   59.6304   29.1337   48.7836 O   0  0  0  0  0  0  0  0  0  0  0  0
  7  8  2  0
  8  9  1  0
  9 10  2  0
 10 11  1  0
 11 12  1  0
 12 13  2  0
 13 14  1  0
 14 15  2  0
 15 16  1  0
  8  1  1  0
  1  2  2  0
  2  3  1  0
  3  4  2  0
  4  5  1  0
  5 17  1  0
 17 18  1  0
 18 19  2  0
 19 20  1  0
 20 21  1  0
 21 22  2  0
 21 23  1  0
 23 24  1  0
 24 25  2  0
  5  6  2  0
 15 10  1  0
  6  1  1  0
 24 18  1  0
M  CHG 1  11  -1
M  CHG 1  16  -1
M  CHG 1  20  -1
M  CHG 1  23  -1
M  END
> <UniqueID>
17

> <SMILES>
O=C(N=c1[n-]cccc1[O-])c1cccc(Cc2c[n-]c(=O)[n-]c2=O)c1

> <Energy>
53.26657451952067

> <Genealogy>
O=C(N=c1[n-]cccc1[O-])c1cccc(Cc2c[n-]c(=O)[n-]c2=O)c1 (protonated)
O=C(N=c1[n-]cccc1[O-])c1cccc(Cc2c[n-]c(=O)[n-]c2=O)c1 (3D coordinates assigned)
O=C(N=c1[n-]cccc1[O-])c1cccc(Cc2c[n-]c(=O)[n-]c2=O)c1 (optimized conformer: 53.26657451952067 kcal/mol)

> <smiles>
O=C(N=c1[nH]cccc1O)c1cccc(Cc2c[nH]c(=O)[nH]c2=O)c1

> <score_type>
oracle

> <origin>
adg

> <m_score__min__energy>
-15.470000000000001

> <m_primary>
energy

> <minimizedAffinity>
-7.99092

> <minimizedRMSD>
0.90029

> <CNNscore>
0.7383852601

> <CNNaffinity>
6.7380089760

> <CNN_VS>
4.9752464294

> <CNNaffinity_variance>
0.1364365220

$$$$
21:0


 37 40  0  0  0  0  0  0  0  0999 V2000
   60.2820   31.1509   50.4036 C   0  0  0  0  0  0  0  0  0  0  0  0
   61.2888   32.1065   50.1957 C   0  0  0  0  0  0  0  0  0  0  0  0
   61.4528   33.1714   51.0819 C   0  0  0  0  0  0  0  0  0  0  0  0
   60.6203   33.2855   52.1942 C   0  0  0  0  0  0  0  0  0  0  0  0
   59.6136   32.3428   52.4190 C   0  0  0  0  0  0  0  0  0  0  0  0
   59.4193   31.2742   51.5241 C   0  0  0  0  0  0  0  0  0  0  0  0
   59.2308   28.3179   46.5362 C   0  0  0  0  0  0  0  0  0  0  0  0
   59.7193   28.7269   47.7260 C   0  0  0  0  0  0  0  0  0  0  0  0
   60.3742   27.9525   48.6794 C   0  0  0  0  0  0  0  0  0  0  0  0
   60.6670   28.7870   49.7383 C   0  0  0  0  0  0  0  0  0  0  0  0
   61.3432   28.3469   51.0019 C   0  0  0  0  0  0  0  0  0  0  0  0
   60.1926   30.0306   49.5035 N   0  0  0  0  0  0  0  0  0  0  0  0
   59.6263   30.0153   48.2718 C   0  0  0  0  0  0  0  0  0  0  0  0
   59.0523   31.0868   47.7032 C   0  0  0  0  0  0  0  0  0  0  0  0
   60.0643   25.3561   46.2146 O   0  0  0  0  0  0  0  0  0  0  0  0
   58.7521   25.8306   46.2201 C   0  0  0  0  0  0  0  0  0  0  0  0
   57.6822   25.0239   46.1035 N   0  0  0  0  0  0  0  0  0  0  0  0
   56.6485   25.8881   46.1526 C   0  0  0  0  0  0  0  0  0  0  0  0
   55.4498   25.5158   46.0728 O   0  0  0  0  0  0  0  0  0  0  0  0
   57.0032   27.1826   46.2978 N   0  0  0  0  0  0  0  0  0  0  0  0
   58.3479   27.1455   46.3343 C   0  0  0  0  0  0  0  0  0  0  0  0
   60.2300   24.4376   46.1312 H   0  0  0  0  0  0  0  0  0  0  0  0
   58.3135   30.3180   51.7754 C   0  0  0  0  0  0  0  0  0  0  0  0
   57.2689   30.3695   51.0685 O   0  0  0  0  0  0  0  0  0  0  0  0
   58.4282   29.3254   52.8009 N   0  0  0  0  0  0  0  0  0  0  0  0
   57.6157   29.3426   54.0102 C   0  0  0  0  0  0  0  0  0  0  0  0
   56.4004   28.4263   53.8491 C   0  0  0  0  0  0  0  0  0  0  0  0
   55.1118   29.1733   54.0903 C   0  0  0  0  0  0  0  0  0  0  0  0
   54.6492   29.3846   55.3946 C   0  0  0  0  0  0  0  0  0  0  0  0
   53.4238   30.0130   55.6180 C   0  0  0  0  0  0  0  0  0  0  0  0
   52.6364   30.4478   54.5343 C   0  0  0  0  0  0  0  0  0  0  0  0
   53.0982   30.2556   53.2223 C   0  0  0  0  0  0  0  0  0  0  0  0
   54.3363   29.6179   53.0070 C   0  0  0  0  0  0  0  0  0  0  0  0
   51.3903   31.0671   54.7197 O   0  0  0  0  0  0  0  0  0  0  0  0
   50.6401   31.0217   55.9278 C   0  0  0  0  0  0  0  0  0  0  0  0
   52.2970   30.7038   52.1611 O   0  0  0  0  0  0  0  0  0  0  0  0
   52.4176   30.2565   50.8132 C   0  0  0  0  0  0  0  0  0  0  0  0
 15 16  1  0
 16 17  1  0
 17 18  1  0
 18 19  2  0
 18 20  1  0
 20 21  1  0
 21  7  1  0
  7  8  2  0
  8  9  1  0
  9 10  2  0
 10 11  1  0
 10 12  1  0
 12  1  1  0
  1  2  2  0
  2  3  1  0
  3  4  2  0
  4  5  1  0
  5  6  2  0
  6 23  1  0
 23 24  2  0
 23 25  1  0
 25 26  1  0
 26 27  1  0
 27 28  1  0
 28 29  2  0
 29 30  1  0
 30 31  2  0
 31 34  1  0
 34 35  1  0
 31 32  1  0
 32 36  1  0
 36 37  1  0
 32 33  2  0
 12 13  1  0
 13 14  2  0
 21 16  2  0
 13  8  1  0
  6  1  1  0
 33 28  1  0
 15 22  1  0
M  CHG 1  17  -1
M  CHG 1  20  -1
M  CHG 1  25  -1
M  END
> <UniqueID>
18

> <SMILES>
C=c1/c(=C/c2[n-]c(=O)[n-]c2O)cc(C)n1-c1ccccc1C(=O)[N-]CCc1ccc(OC)c(OC)c1

> <Energy>
126.31298853605237

> <Genealogy>
C=c1c(=Cc2[n-]c(=O)[n-]c2O)cc(C)n1-c1ccccc1C(=O)[N-]CCc1ccc(OC)c(OC)c1 (protonated)
C=c1/c(=C/c2[n-]c(=O)[n-]c2O)cc(C)n1-c1ccccc1C(=O)[N-]CCc1ccc(OC)c(OC)c1 (cis-trans isomerization)
C=c1/c(=C/c2[n-]c(=O)[n-]c2O)cc(C)n1-c1ccccc1C(=O)[N-]CCc1ccc(OC)c(OC)c1 (3D coordinates assigned)
C=c1/c(=C/c2[n-]c(=O)[n-]c2O)cc(C)n1-c1ccccc1C(=O)[N-]CCc1ccc(OC)c(OC)c1 (optimized conformer: 126.31298853605237 kcal/mol)

> <smiles>
C=c1c(=Cc2[nH]c(=O)[nH]c2O)cc(C)n1-c1ccccc1C(=O)NCCc1ccc(OC)c(OC)c1

> <score_type>
oracle

> <origin>
adg

> <m_score__min__energy>
-14.630000000000001

> <m_primary>
energy

> <minimizedAffinity>
-6.29378

> <minimizedRMSD>
1.60425

> <CNNscore>
0.1985698938

> <CNNaffinity>
6.1705436707

> <CNN_VS>
1.2252842188

> <CNNaffinity_variance>
0.1749117225

$$$$
22:0


 28 30  0  0  0  0  0  0  0  0999 V2000
   58.2223   32.5743   45.4282 S   0  0  0  0  0  0  0  0  0  0  0  0
   58.7951   33.6031   44.4966 O   0  0  0  0  0  0  0  0  0  0  0  0
   56.8472   33.0187   45.8436 O   0  0  0  0  0  0  0  0  0  0  0  0
   59.2858   32.4137   46.8247 C   0  0  0  0  0  0  0  0  0  0  0  0
   58.9160   31.6298   47.9241 C   0  0  0  0  0  0  0  0  0  0  0  0
   59.7785   31.4989   49.0162 C   0  0  0  0  0  0  0  0  0  0  0  0
   61.0129   32.1689   49.0310 C   0  0  0  0  0  0  0  0  0  0  0  0
   61.3786   32.9562   47.9258 C   0  0  0  0  0  0  0  0  0  0  0  0
   60.5214   33.0726   46.8295 C   0  0  0  0  0  0  0  0  0  0  0  0
   61.9085   32.0129   50.1481 N   0  0  0  0  0  0  0  0  0  0  0  0
   61.5008   31.7628   51.5265 C   0  0  0  0  0  0  0  0  0  0  0  0
   62.8049   31.4404   52.2956 C   0  0  0  0  0  0  0  0  0  0  0  0
   63.8989   31.6061   51.3452 N   0  0  0  0  0  0  0  0  0  0  0  0
   63.3187   31.9329   50.1015 C   0  0  0  0  0  0  0  0  0  0  0  0
   64.0021   32.1871   49.0734 O   0  0  0  0  0  0  0  0  0  0  0  0
   58.1081   31.0570   44.5992 N   0  0  0  0  0  0  0  0  0  0  0  0
   58.2211   27.5636   45.9418 C   0  0  0  0  0  0  0  0  0  0  0  0
   59.6079   27.3435   45.9915 C   0  0  0  0  0  0  0  0  0  0  0  0
   60.4976   28.3425   45.5998 C   0  0  0  0  0  0  0  0  0  0  0  0
   60.0181   29.5729   45.1551 C   0  0  0  0  0  0  0  0  0  0  0  0
   58.6366   29.8095   45.0714 C   0  0  0  0  0  0  0  0  0  0  0  0
   57.7396   28.7950   45.4484 C   0  0  0  0  0  0  0  0  0  0  0  0
   56.3728   29.0132   45.3023 O   0  0  0  0  0  0  0  0  0  0  0  0
   55.9757   26.3811   45.8742 N   0  0  0  0  0  0  0  0  0  0  0  0
   57.3038   26.4890   46.3914 C   0  0  0  0  0  0  0  0  0  0  0  0
   57.6813   25.6822   47.2828 O   0  0  0  0  0  0  0  0  0  0  0  0
   55.3829   25.6598   46.1865 H   0  0  0  0  0  0  0  0  0  0  0  0
   55.6537   27.0282   45.2057 H   0  0  0  0  0  0  0  0  0  0  0  0
 24 25  1  0
 25 26  2  0
 25 17  1  0
 17 18  2  0
 18 19  1  0
 19 20  2  0
 20 21  1  0
 21 16  1  0
 16  1  1  0
  1  2  2  0
  1  3  2  0
  1  4  1  0
  4  5  2  0
  5  6  1  0
  6  7  2  0
  7 10  1  0
 10 11  1  0
 11 12  1  0
 12 13  1  0
 13 14  1  0
 14 15  2  0
  7  8  1  0
  8  9  2  0
 21 22  2  0
 22 23  1  0
 22 17  1  0
  9  4  1  0
 14 10  1  0
 24 27  1  0
 24 28  1  0
M  CHG 1  13  -1
M  CHG 1  16  -1
M  CHG 1  23  -1
M  END
> <UniqueID>
19

> <SMILES>
NC(=O)c1cccc([N-]S(=O)(=O)c2ccc(N3CC[N-]C3=O)cc2)c1[O-]

> <Energy>
65.59705962649413

> <Genealogy>
NC(=O)c1cccc([N-]S(=O)(=O)c2ccc(N3CC[N-]C3=O)cc2)c1[O-] (protonated)
NC(=O)c1cccc([N-]S(=O)(=O)c2ccc(N3CC[N-]C3=O)cc2)c1[O-] (3D coordinates assigned)
NC(=O)c1cccc([N-]S(=O)(=O)c2ccc(N3CC[N-]C3=O)cc2)c1[O-] (nonaromatic ring conformer: 65.59705962649413 kcal/mol)

> <smiles>
NC(=O)c1cccc(NS(=O)(=O)c2ccc(N3CCNC3=O)cc2)c1O

> <score_type>
oracle

> <origin>
adg

> <m_score__min__energy>
-14.710000000000001

> <m_primary>
energy

> <minimizedAffinity>
-7.24803

> <minimizedRMSD>
1.32056

> <CNNscore>
0.6492841244

> <CNNaffinity>
7.0442414284

> <CNN_VS>
4.5737142563

> <CNNaffinity_variance>
0.4304571152

$$$$
43:0


 25 27  0  0  0  0  0  0  0  0999 V2000
   60.7171   29.7410   46.8400 C   0  0  0  0  0  0  0  0  0  0  0  0
   59.5618   29.5775   46.1591 C   0  0  0  0  0  0  0  0  0  0  0  0
   59.2189   28.2932   45.6689 C   0  0  0  0  0  0  0  0  0  0  0  0
   60.0102   27.3225   45.8310 O   0  0  0  0  0  0  0  0  0  0  0  0
   58.0005   28.1282   44.9702 C   0  0  0  0  0  0  0  0  0  0  0  0
   57.5558   26.9541   44.4726 C   0  0  0  0  0  0  0  0  0  0  0  0
   57.2250   29.2209   44.7601 N   0  0  0  0  0  0  0  0  0  0  0  0
   57.5553   30.4501   45.2182 C   0  0  0  0  0  0  0  0  0  0  0  0
   56.7769   31.4159   44.9863 O   0  0  0  0  0  0  0  0  0  0  0  0
   58.7112   30.6389   45.9267 N   0  0  0  0  0  0  0  0  0  0  0  0
   57.4637   25.6795   45.2116 C   0  0  0  0  0  0  0  0  0  0  0  0
   58.4398   24.6941   45.0034 C   0  0  0  0  0  0  0  0  0  0  0  0
   58.3538   23.4654   45.6646 C   0  0  0  0  0  0  0  0  0  0  0  0
   57.2812   23.2063   46.5245 C   0  0  0  0  0  0  0  0  0  0  0  0
   57.1980   21.9855   47.1829 O   0  0  0  0  0  0  0  0  0  0  0  0
   56.2900   24.1738   46.7177 C   0  0  0  0  0  0  0  0  0  0  0  0
   56.3714   25.4052   46.0575 C   0  0  0  0  0  0  0  0  0  0  0  0
   55.3637   26.3467   46.2402 O   0  0  0  0  0  0  0  0  0  0  0  0
   59.0071   31.9671   46.4068 C   0  0  0  0  0  0  0  0  0  0  0  0
   59.3283   32.9855   45.4948 C   0  0  0  0  0  0  0  0  0  0  0  0
   59.6158   34.2738   45.9560 C   0  0  0  0  0  0  0  0  0  0  0  0
   59.5830   34.5521   47.3247 C   0  0  0  0  0  0  0  0  0  0  0  0
   59.2608   33.5417   48.2372 C   0  0  0  0  0  0  0  0  0  0  0  0
   58.9721   32.2510   47.7828 C   0  0  0  0  0  0  0  0  0  0  0  0
   58.6528   31.2535   48.6962 O   0  0  0  0  0  0  0  0  0  0  0  0
  1  2  2  0
  2  3  1  0
  3  4  2  0
  3  5  1  0
  5  6  2  0
  6 11  1  0
 11 12  2  0
 12 13  1  0
 13 14  2  0
 14 15  1  0
 14 16  1  0
 16 17  2  0
 17 18  1  0
  5  7  1  0
  7  8  1  0
  8  9  2  0
  8 10  1  0
 10 19  1  0
 19 20  2  0
 20 21  1  0
 21 22  2  0
 22 23  1  0
 23 24  2  0
 24 25  1  0
 10  2  1  0
 24 19  1  0
 17 11  1  0
M  CHG 1   7  -1
M  CHG 1  15  -1
M  CHG 1  18  -1
M  CHG 1  25  -1
M  END
> <UniqueID>
37

> <SMILES>
C=c1c(=O)c(=Cc2ccc([O-])cc2[O-])[n-]c(=O)n1-c1ccccc1[O-]

> <Energy>
67.76825307416819

> <Genealogy>
C=c1c(=O)c(=Cc2ccc([O-])cc2[O-])[n-]c(=O)n1-c1ccccc1[O-] (protonated)
C=c1c(=O)c(=Cc2ccc([O-])cc2[O-])[n-]c(=O)n1-c1ccccc1[O-] (3D coordinates assigned)
C=c1c(=O)c(=Cc2ccc([O-])cc2[O-])[n-]c(=O)n1-c1ccccc1[O-] (optimized conformer: 67.76825307416819 kcal/mol)

> <smiles>
C=c1c(=O)c(=Cc2ccc(O)cc2O)[nH]c(=O)n1-c1ccccc1O

> <score_type>
oracle

> <origin>
adg

> <m_score__min__energy>
-16.140000000000001

> <m_primary>
energy

> <minimizedAffinity>
-7.86532

> <minimizedRMSD>
0.77977

> <CNNscore>
0.6767603755

> <CNNaffinity>
6.8451676369

> <CNN_VS>
4.6325383186

> <CNNaffinity_variance>
0.6722913384

$$$$
58:0


 30 33  0  0  0  0  0  0  0  0999 V2000
   58.1308   26.7757   45.3748 C   0  0  0  0  0  0  0  0  0  0  0  0
   58.7790   27.6641   46.1550 C   0  0  0  0  0  0  0  0  0  0  0  0
   58.4057   27.9189   47.4622 C   0  0  0  0  0  0  0  0  0  0  0  0
   59.2260   28.9245   47.9256 C   0  0  0  0  0  0  0  0  0  0  0  0
   59.1659   29.4867   49.3153 C   0  0  0  0  0  0  0  0  0  0  0  0
   60.0997   29.3068   46.9642 N   0  0  0  0  0  0  0  0  0  0  0  0
   59.8696   28.5073   45.8856 C   0  0  0  0  0  0  0  0  0  0  0  0
   60.6584   28.4898   44.7995 C   0  0  0  0  0  0  0  0  0  0  0  0
   55.2904   26.4742   46.0460 O   0  0  0  0  0  0  0  0  0  0  0  0
   56.1650   25.3912   46.1477 C   0  0  0  0  0  0  0  0  0  0  0  0
   55.6732   24.1985   46.5729 N   0  0  0  0  0  0  0  0  0  0  0  0
   56.4756   23.1153   46.7201 C   0  0  0  0  0  0  0  0  0  0  0  0
   55.9920   22.0236   47.1136 O   0  0  0  0  0  0  0  0  0  0  0  0
   57.8021   23.2095   46.4495 N   0  0  0  0  0  0  0  0  0  0  0  0
   58.3487   24.3746   46.0180 C   0  0  0  0  0  0  0  0  0  0  0  0
   59.5847   24.4254   45.7771 O   0  0  0  0  0  0  0  0  0  0  0  0
   57.5357   25.5041   45.8304 C   0  0  0  0  0  0  0  0  0  0  0  0
   54.3853   26.3676   46.2639 H   0  0  0  0  0  0  0  0  0  0  0  0
   61.1418   30.3409   47.1005 C   0  0  0  0  0  0  0  0  0  0  0  0
   60.5326   31.7324   47.2546 C   0  0  0  0  0  0  0  0  0  0  0  0
   61.0782   32.5933   48.2383 C   0  0  0  0  0  0  0  0  0  0  0  0
   62.1811   32.2074   48.9926 O   0  0  0  0  0  0  0  0  0  0  0  0
   60.5247   33.8486   48.4773 C   0  0  0  0  0  0  0  0  0  0  0  0
   59.4366   34.2933   47.7384 C   0  0  0  0  0  0  0  0  0  0  0  0
   58.9004   33.4977   46.7206 C   0  0  0  0  0  0  0  0  0  0  0  0
   57.8199   33.9836   45.9669 C   0  0  0  0  0  0  0  0  0  0  0  0
   57.2876   33.2230   44.9294 C   0  0  0  0  0  0  0  0  0  0  0  0
   57.8333   31.9785   44.6264 C   0  0  0  0  0  0  0  0  0  0  0  0
   58.9051   31.4769   45.3667 C   0  0  0  0  0  0  0  0  0  0  0  0
   59.4540   32.2135   46.4460 C   0  0  0  0  0  0  0  0  0  0  0  0
  9 10  1  0
 10 11  1  0
 11 12  1  0
 12 13  2  0
 12 14  1  0
 14 15  1  0
 15 16  2  0
 15 17  1  0
 17  1  1  0
  1  2  2  0
  2  3  1  0
  3  4  2  0
  4  5  1  0
  4  6  1  0
  6 19  1  0
 19 20  1  0
 20 21  2  0
 21 22  1  0
 21 23  1  0
 23 24  2  0
 24 25  1  0
 25 26  2  0
 26 27  1  0
 27 28  2  0
 28 29  1  0
 29 30  2  0
  6  7  1  0
  7  8  2  0
 17 10  2  0
  7  2  1  0
 30 20  1  0
 30 25  1  0
  9 18  1  0
M  CHG 1  11  -1
M  CHG 1  14  -1
M  CHG 1  22  -1
M  END
> <UniqueID>
52

> <SMILES>
C=c1/c(=C\c2c(O)[n-]c(=O)[n-]c2=O)cc(C)n1Cc1c([O-])ccc2ccccc12

> <Energy>
102.51412442327616

> <Genealogy>
C=c1c(=Cc2c(O)[n-]c(=O)[n-]c2=O)cc(C)n1Cc1c([O-])ccc2ccccc12 (protonated)
C=c1/c(=C\c2c(O)[n-]c(=O)[n-]c2=O)cc(C)n1Cc1c([O-])ccc2ccccc12 (cis-trans isomerization)
C=c1/c(=C\c2c(O)[n-]c(=O)[n-]c2=O)cc(C)n1Cc1c([O-])ccc2ccccc12 (3D coordinates assigned)
C=c1/c(=C\c2c(O)[n-]c(=O)[n-]c2=O)cc(C)n1Cc1c([O-])ccc2ccccc12 (optimized conformer: 102.51412442327616 kcal/mol)

> <smiles>
C=c1c(=Cc2c(O)[nH]c(=O)[nH]c2=O)cc(C)n1Cc1c(O)ccc2ccccc12

> <score_type>
oracle

> <origin>
adg

> <m_score__min__energy>
-14.640000000000001

> <m_primary>
energy

> <minimizedAffinity>
-9.76231

> <minimizedRMSD>
0.28933

> <CNNscore>
0.5792960525

> <CNNaffinity>
6.9546504021

> <CNN_VS>
4.0288014412

> <CNNaffinity_variance>
0.0054772436

$$$$
75:0


 26 28  0  0  0  0  0  0  0  0999 V2000
   57.9939   29.7776   45.1751 C   0  0  0  0  0  0  0  0  0  0  0  0
   58.6601   30.8244   45.8827 C   0  0  0  0  0  0  0  0  0  0  0  0
   59.8166   30.3841   46.5288 C   0  0  0  0  0  0  0  0  0  0  0  0
   60.0167   28.7432   46.2588 S   0  0  0  0  0  0  0  0  0  0  0  0
   58.6271   28.5437   45.3408 C   0  0  0  0  0  0  0  0  0  0  0  0
   58.2552   32.2872   45.9837 C   0  0  0  0  0  0  0  0  0  0  0  0
   58.9195   33.0191   47.1458 C   0  0  0  0  0  0  0  0  0  0  0  0
   59.0325   34.4657   46.6958 C   0  0  0  0  0  0  0  0  0  0  0  0
   59.1286   34.4327   45.1760 C   0  0  0  0  0  0  0  0  0  0  0  0
   58.4947   33.1201   44.7192 C   0  0  0  0  0  0  0  0  0  0  0  0
   55.5414   29.3358   44.8055 N   0  0  0  0  0  0  0  0  0  0  0  0
   56.7657   29.9123   44.3562 C   0  0  0  0  0  0  0  0  0  0  0  0
   56.7863   30.5153   43.2520 O   0  0  0  0  0  0  0  0  0  0  0  0
   54.7260   29.4256   44.2612 H   0  0  0  0  0  0  0  0  0  0  0  0
   58.2736   27.3481   44.6350 N   0  0  0  0  0  0  0  0  0  0  0  0
   58.1043   26.0410   45.1955 C   0  0  0  0  0  0  0  0  0  0  0  0
   58.5108   25.8355   46.3702 O   0  0  0  0  0  0  0  0  0  0  0  0
   57.6338   24.8736   44.3674 C   0  0  0  0  0  0  0  0  0  0  0  0
   56.4291   24.2207   44.9752 C   0  0  0  0  0  0  0  0  0  0  0  0
   56.0979   22.5684   44.9297 S   0  0  0  0  0  0  0  0  0  0  0  0
   54.7057   22.7371   45.8551 C   0  0  0  0  0  0  0  0  0  0  0  0
   53.9535   21.7839   46.1847 O   0  0  0  0  0  0  0  0  0  0  0  0
   54.4740   24.0165   46.2184 N   0  0  0  0  0  0  0  0  0  0  0  0
   55.4380   24.8438   45.7317 C   0  0  0  0  0  0  0  0  0  0  0  0
   55.4234   26.2113   45.9806 O   0  0  0  0  0  0  0  0  0  0  0  0
   54.7361   26.5865   46.4953 H   0  0  0  0  0  0  0  0  0  0  0  0
 11 12  1  0
 12 13  2  0
 12  1  1  0
  1  2  1  0
  2  6  1  0
  6  7  1  0
  7  8  1  0
  8  9  1  0
  9 10  1  0
  2  3  2  0
  3  4  1  0
  4  5  1  0
  5 15  1  0
 15 16  1  0
 16 17  2  0
 16 18  1  0
 18 19  1  0
 19 20  1  0
 20 21  1  0
 21 22  2  0
 21 23  1  0
 23 24  1  0
 24 25  1  0
  5  1  2  0
 24 19  2  0
 10  6  1  0
 11 14  1  0
 25 26  1  0
M  CHG 1  11  -1
M  CHG 1  15  -1
M  CHG 1  23  -1
M  END
> <UniqueID>
66

> <SMILES>
[NH-]C(=O)c1c(C2CCCC2)csc1[N-]C(=O)Cc1sc(=O)[n-]c1O

> <Energy>
106.59828556065719

> <Genealogy>
[NH-]C(=O)c1c(C2CCCC2)csc1[N-]C(=O)Cc1sc(=O)[n-]c1O (protonated)
[NH-]C(=O)c1c(C2CCCC2)csc1[N-]C(=O)Cc1sc(=O)[n-]c1O (3D coordinates assigned)
[NH-]C(=O)c1c(C2CCCC2)csc1[N-]C(=O)Cc1sc(=O)[n-]c1O (nonaromatic ring conformer: 106.59828556065719 kcal/mol)

> <smiles>
NC(=O)c1c(C2CCCC2)csc1NC(=O)Cc1sc(=O)[nH]c1O

> <score_type>
oracle

> <origin>
adg

> <m_score__min__energy>
-16.100000000000001

> <m_primary>
energy

> <minimizedAffinity>
-9.11257

> <minimizedRMSD>
0.74918

> <CNNscore>
0.8676392436

> <CNNaffinity>
7.4070944786

> <CNN_VS>
6.4266858101

> <CNNaffinity_variance>
0.3729897439

$$$$
82:0


 34 37  0  0  0  0  0  0  0  0999 V2000
   58.5386   28.6737   47.2069 C   0  0  0  0  0  0  0  0  0  0  0  0
   58.2931   29.1663   45.9835 C   0  0  0  0  0  0  0  0  0  0  0  0
   57.7262   28.4961   44.8859 C   0  0  0  0  0  0  0  0  0  0  0  0
   57.3883   27.2020   44.7119 C   0  0  0  0  0  0  0  0  0  0  0  0
   57.5593   29.4488   43.8925 C   0  0  0  0  0  0  0  0  0  0  0  0
   58.0523   30.6361   44.3896 C   0  0  0  0  0  0  0  0  0  0  0  0
   58.0904   31.9308   43.6350 C   0  0  0  0  0  0  0  0  0  0  0  0
   58.5112   30.4639   45.6485 N   0  0  0  0  0  0  0  0  0  0  0  0
   57.3860   26.1650   45.7613 C   0  0  0  0  0  0  0  0  0  0  0  0
   56.1843   25.6998   46.3201 C   0  0  0  0  0  0  0  0  0  0  0  0
   54.9586   26.1765   45.8686 O   0  0  0  0  0  0  0  0  0  0  0  0
   56.2147   24.7765   47.3160 N   0  0  0  0  0  0  0  0  0  0  0  0
   57.3921   24.3029   47.7968 C   0  0  0  0  0  0  0  0  0  0  0  0
   57.3961   23.4447   48.7168 O   0  0  0  0  0  0  0  0  0  0  0  0
   58.5672   24.7586   47.2907 N   0  0  0  0  0  0  0  0  0  0  0  0
   58.5910   25.6813   46.2938 C   0  0  0  0  0  0  0  0  0  0  0  0
   59.6986   26.0880   45.8529 O   0  0  0  0  0  0  0  0  0  0  0  0
   59.0488   31.5016   46.4860 C   0  0  0  0  0  0  0  0  0  0  0  0
   60.3351   31.3690   47.0263 C   0  0  0  0  0  0  0  0  0  0  0  0
   60.8713   32.3738   47.8532 C   0  0  0  0  0  0  0  0  0  0  0  0
   60.1006   33.5211   48.1149 C   0  0  0  0  0  0  0  0  0  0  0  0
   58.8175   33.6510   47.5803 C   0  0  0  0  0  0  0  0  0  0  0  0
   58.2883   32.6451   46.7686 C   0  0  0  0  0  0  0  0  0  0  0  0
   57.0470   32.7912   46.2423 F   0  0  0  0  0  0  0  0  0  0  0  0
   62.2389   32.2553   48.4217 C   0  0  0  0  0  0  0  0  0  0  0  0
   63.1763   31.8778   47.6630 O   0  0  0  0  0  0  0  0  0  0  0  0
   62.5011   32.4988   49.8280 N   0  0  0  0  0  0  0  0  0  0  0  0
   62.9254   33.9044   50.0531 C   0  0  0  0  0  0  0  0  0  0  0  0
   63.6580   34.0459   51.3937 C   0  0  0  0  0  0  0  0  0  0  0  0
   64.8945   33.2414   51.4319 N   0  0  0  0  0  0  0  0  0  0  0  0
   64.8787   32.0739   50.5312 C   0  0  0  0  0  0  0  0  0  0  0  0
   63.4639   31.4962   50.3617 C   0  0  0  0  0  0  0  0  0  0  0  0
   63.3004   32.1402   49.3787 H   0  0  0  0  0  0  0  0  0  0  0  0
   65.0311   32.9083   52.3863 H   0  0  0  0  0  0  0  0  0  0  0  0
  1  2  2  0
  2  3  1  0
  3  4  2  0
  4  9  1  0
  9 10  2  0
 10 11  1  0
 10 12  1  0
 12 13  1  0
 13 14  2  0
 13 15  1  0
 15 16  1  0
 16 17  2  0
  3  5  1  0
  5  6  2  0
  6  7  1  0
  6  8  1  0
  8 18  1  0
 18 19  2  0
 19 20  1  0
 20 25  1  0
 25 26  2  0
 25 27  1  0
 27 28  1  0
 28 29  1  0
 29 30  1  0
 30 31  1  0
 31 32  1  0
 20 21  2  0
 21 22  1  0
 22 23  2  0
 23 24  1  0
  8  2  1  0
 23 18  1  0
 16  9  1  0
 32 27  1  0
 27 33  1  0
 30 34  1  0
M  CHG 1  11  -1
M  CHG 1  12  -1
M  CHG 1  15  -1
M  CHG 1  27   1
M  END
> <UniqueID>
73

> <SMILES>
C=c1c(=Cc2c([O-])[n-]c(=O)[n-]c2=O)cc(C)n1-c1cc(C(=O)[NH+]2CCNCC2)ccc1F

> <Energy>
120.09688380400145

> <Genealogy>
C=c1c(=Cc2c([O-])[n-]c(=O)[n-]c2=O)cc(C)n1-c1cc(C(=O)[NH+]2CCNCC2)ccc1F (protonated)
C=c1c(=Cc2c([O-])[n-]c(=O)[n-]c2=O)cc(C)n1-c1cc(C(=O)[NH+]2CCNCC2)ccc1F (3D coordinates assigned)
C=c1c(=Cc2c([O-])[n-]c(=O)[n-]c2=O)cc(C)n1-c1cc(C(=O)[NH+]2CCNCC2)ccc1F (nonaromatic ring conformer: 120.09688380400145 kcal/mol)

> <smiles>
C=c1c(=Cc2c(O)[nH]c(=O)[nH]c2=O)cc(C)n1-c1cc(C(=O)N2CCNCC2)ccc1F

> <score_type>
oracle

> <origin>
adg

> <m_score__min__energy>
-15.720000000000001

> <m_primary>
energy

> <minimizedAffinity>
-7.01575

> <minimizedRMSD>
0.56768

> <CNNscore>
0.2161138803

> <CNNaffinity>
6.8309440613

> <CNN_VS>
1.4762618542

> <CNNaffinity_variance>
0.1654675156

$$$$
88:0


 42 46  0  0  0  0  0  0  0  0999 V2000
   58.2439   28.3927   54.1271 C   0  0  0  0  0  0  0  0  0  0  0  0
   58.9665   27.7286   53.1288 C   0  0  0  0  0  0  0  0  0  0  0  0
   60.1762   27.0987   53.4318 C   0  0  0  0  0  0  0  0  0  0  0  0
   60.6856   27.1296   54.7414 C   0  0  0  0  0  0  0  0  0  0  0  0
   59.9503   27.7895   55.7442 C   0  0  0  0  0  0  0  0  0  0  0  0
   58.7407   28.4185   55.4367 C   0  0  0  0  0  0  0  0  0  0  0  0
   61.9614   26.4471   55.0633 C   0  0  0  0  0  0  0  0  0  0  0  0
   61.9365   25.3453   55.6785 O   0  0  0  0  0  0  0  0  0  0  0  0
   63.2271   27.0208   54.6962 N   0  0  0  0  0  0  0  0  0  0  0  0
   64.3750   26.8438   55.5976 C   0  0  0  0  0  0  0  0  0  0  0  0
   65.3453   28.0171   55.4524 C   0  0  0  0  0  0  0  0  0  0  0  0
   65.6290   28.2419   54.0332 N   0  0  0  0  0  0  0  0  0  0  0  0
   66.8953   27.8445   53.4712 C   0  0  0  0  0  0  0  0  0  0  0  0
   67.5492   26.9091   54.0083 O   0  0  0  0  0  0  0  0  0  0  0  0
   64.4704   28.5032   53.1725 C   0  0  0  0  0  0  0  0  0  0  0  0
   63.4922   27.3315   53.2837 C   0  0  0  0  0  0  0  0  0  0  0  0
   67.4221   28.4955   52.2166 C   0  0  0  0  0  0  0  0  0  0  0  0
   67.7697   29.9842   52.4046 C   0  0  0  0  0  0  0  0  0  0  0  0
   66.6009   30.9458   52.0755 C   0  0  0  0  0  0  0  0  0  0  0  0
   66.2221   31.7656   53.3321 C   0  0  0  0  0  0  0  0  0  0  0  0
   64.8468   32.4277   53.1862 C   0  0  0  0  0  0  0  0  0  0  0  0
   64.7152   33.2782   51.6235 S   0  0  0  0  0  0  0  0  0  0  0  0
   63.7301   32.5716   50.7365 O   0  0  0  0  0  0  0  0  0  0  0  0
   64.2684   34.6963   51.8463 O   0  0  0  0  0  0  0  0  0  0  0  0
   66.3266   33.2634   50.8691 C   0  0  0  0  0  0  0  0  0  0  0  0
   66.9311   31.8477   50.8444 C   0  0  0  0  0  0  0  0  0  0  0  0
   53.4965   29.3214   53.1643 C   0  0  0  0  0  0  0  0  0  0  0  0
   54.8172   29.4331   53.4007 C   0  0  0  0  0  0  0  0  0  0  0  0
   55.5158   30.6141   53.2111 C   0  0  0  0  0  0  0  0  0  0  0  0
   56.8486   30.3306   53.4360 C   0  0  0  0  0  0  0  0  0  0  0  0
   57.9639   31.3188   53.2901 C   0  0  0  0  0  0  0  0  0  0  0  0
   56.9982   29.0372   53.8055 N   0  0  0  0  0  0  0  0  0  0  0  0
   55.7590   28.4811   53.8204 C   0  0  0  0  0  0  0  0  0  0  0  0
   55.5051   27.2663   54.3308 C   0  0  0  0  0  0  0  0  0  0  0  0
   52.8378   29.9050   50.2136 O   0  0  0  0  0  0  0  0  0  0  0  0
   52.3065   30.5854   51.3054 C   0  0  0  0  0  0  0  0  0  0  0  0
   51.3765   31.5490   51.1959 N   0  0  0  0  0  0  0  0  0  0  0  0
   51.1572   31.8983   52.4807 C   0  0  0  0  0  0  0  0  0  0  0  0
   50.3310   32.7900   52.8091 O   0  0  0  0  0  0  0  0  0  0  0  0
   51.8834   31.2119   53.3863 N   0  0  0  0  0  0  0  0  0  0  0  0
   52.6339   30.3903   52.6280 C   0  0  0  0  0  0  0  0  0  0  0  0
   52.5483   30.1116   49.3467 H   0  0  0  0  0  0  0  0  0  0  0  0
 35 36  1  0
 36 37  1  0
 37 38  1  0
 38 39  2  0
 38 40  1  0
 40 41  1  0
 41 27  1  0
 27 28  2  0
 28 29  1  0
 29 30  2  0
 30 31  1  0
 30 32  1  0
 32  1  1  0
  1  2  2  0
  2  3  1  0
  3  4  2  0
  4  7  1  0
  7  8  2  0
  7  9  1  0
  9 10  1  0
 10 11  1  0
 11 12  1  0
 12 13  1  0
 13 14  2  0
 13 17  1  0
 17 18  1  0
 18 19  1  0
 19 20  1  0
 20 21  1  0
 21 22  1  0
 22 23  2  0
 22 24  2  0
 22 25  1  0
 25 26  1  0
 12 15  1  0
 15 16  1  0
  4  5  1  0
  5  6  2  0
 32 33  1  0
 33 34  2  0
 41 36  2  0
 33 28  1  0
  6  1  1  0
 16  9  1  0
 26 19  1  0
 35 42  1  0
M  CHG 1  37  -1
M  CHG 1  40  -1
M  END
> <UniqueID>
79

> <SMILES>
C=c1/c(=C\c2[n-]c(=O)[n-]c2O)cc(C)n1-c1ccc(C(=O)N2CCN(C(=O)CCC3CCS(=O)(=O)CC3)CC2)cc1

> <Energy>
153.13755077838778

> <Genealogy>
C=c1c(=Cc2[n-]c(=O)[n-]c2O)cc(C)n1-c1ccc(C(=O)N2CCN(C(=O)CCC3CCS(=O)(=O)CC3)CC2)cc1 (protonated)
C=c1/c(=C\c2[n-]c(=O)[n-]c2O)cc(C)n1-c1ccc(C(=O)N2CCN(C(=O)CCC3CCS(=O)(=O)CC3)CC2)cc1 (cis-trans isomerization)
C=c1/c(=C\c2[n-]c(=O)[n-]c2O)cc(C)n1-c1ccc(C(=O)N2CCN(C(=O)CCC3CCS(=O)(=O)CC3)CC2)cc1 (3D coordinates assigned)
C=c1/c(=C\c2[n-]c(=O)[n-]c2O)cc(C)n1-c1ccc(C(=O)N2CCN(C(=O)CCC3CCS(=O)(=O)CC3)CC2)cc1 (nonaromatic ring conformer: 153.13755077838778 kcal/mol)

> <smiles>
C=c1c(=Cc2[nH]c(=O)[nH]c2O)cc(C)n1-c1ccc(C(=O)N2CCN(C(=O)CCC3CCS(=O)(=O)CC3)CC2)cc1

> <score_type>
oracle

> <origin>
adg

> <m_score__min__energy>
-15.48

> <m_primary>
energy

> <minimizedAffinity>
-6.20621

> <minimizedRMSD>
1.72671

> <CNNscore>
0.1741759181

> <CNNaffinity>
5.0965003967

> <CNN_VS>
0.8876876235

> <CNNaffinity_variance>
0.7130940557

$$$$
1:0


 29 31  0  0  0  0  0  0  0  0999 V2000
   57.2554   29.8620   44.8748 C   0  0  0  0  0  0  0  0  0  0  0  0
   56.0456   29.7821   44.5368 O   0  0  0  0  0  0  0  0  0  0  0  0
   57.8250   31.1832   45.1913 C   0  0  0  0  0  0  0  0  0  0  0  0
   57.8173   32.1982   44.2235 C   0  0  0  0  0  0  0  0  0  0  0  0
   58.3870   33.4430   44.5064 C   0  0  0  0  0  0  0  0  0  0  0  0
   58.9870   33.6734   45.7467 C   0  0  0  0  0  0  0  0  0  0  0  0
   59.0158   32.6620   46.7151 C   0  0  0  0  0  0  0  0  0  0  0  0
   58.4319   31.4174   46.4353 C   0  0  0  0  0  0  0  0  0  0  0  0
   59.8613   32.9281   48.2351 S   0  0  0  0  0  0  0  0  0  0  0  0
   59.8582   34.3969   48.5510 O   0  0  0  0  0  0  0  0  0  0  0  0
   59.1581   32.1952   49.3452 O   0  0  0  0  0  0  0  0  0  0  0  0
   61.5075   32.3674   48.0802 N   0  0  0  0  0  0  0  0  0  0  0  0
   62.1746   32.3083   49.3812 C   0  0  0  0  0  0  0  0  0  0  0  0
   63.6590   32.5148   49.1190 C   0  0  0  0  0  0  0  0  0  0  0  0
   63.7437   33.1432   47.7379 C   0  0  0  0  0  0  0  0  0  0  0  0
   62.3039   33.2888   47.2712 C   0  0  0  0  0  0  0  0  0  0  0  0
   58.0311   28.6595   44.9706 N   0  0  0  0  0  0  0  0  0  0  0  0
   58.0626   27.7777   46.1357 C   0  0  0  0  0  0  0  0  0  0  0  0
   56.0183   26.5189   46.1690 O   0  0  0  0  0  0  0  0  0  0  0  0
   57.2494   26.5288   45.9030 C   0  0  0  0  0  0  0  0  0  0  0  0
   57.8379   25.3446   45.3501 N   0  0  0  0  0  0  0  0  0  0  0  0
   57.1021   24.2662   44.6969 C   0  0  0  0  0  0  0  0  0  0  0  0
   56.3010   23.4744   45.7005 C   0  0  0  0  0  0  0  0  0  0  0  0
   56.8892   23.1057   46.9247 C   0  0  0  0  0  0  0  0  0  0  0  0
   56.1468   22.4181   47.8893 C   0  0  0  0  0  0  0  0  0  0  0  0
   54.8091   22.1008   47.6452 C   0  0  0  0  0  0  0  0  0  0  0  0
   54.2128   22.4593   46.4334 C   0  0  0  0  0  0  0  0  0  0  0  0
   54.9492   23.1460   45.4614 C   0  0  0  0  0  0  0  0  0  0  0  0
   54.3278   23.4963   44.2673 O   0  0  0  0  0  0  0  0  0  0  0  0
 19 20  2  0
 20 18  1  0
 18 17  1  0
 17  1  1  0
  1  2  2  0
  1  3  1  0
  3  4  2  0
  4  5  1  0
  5  6  2  0
  6  7  1  0
  7  9  1  0
  9 10  2  0
  9 11  2  0
  9 12  1  0
 12 13  1  0
 13 14  1  0
 14 15  1  0
 15 16  1  0
  7  8  2  0
 20 21  1  0
 21 22  1  0
 22 23  1  0
 23 24  2  0
 24 25  1  0
 25 26  2  0
 26 27  1  0
 27 28  2  0
 28 29  1  0
  8  3  1  0
 28 23  1  0
 16 12  1  0
M  CHG 1  17  -1
M  CHG 1  21  -1
M  CHG 1  29  -1
M  END
> <UniqueID>
2

> <SMILES>
O=C(C[N-]C(=O)c1cccc(S(=O)(=O)N2CCCC2)c1)[N-]Cc1ccccc1[O-]

> <Energy>
50.53830512038097

> <Genealogy>
O=C(C[N-]C(=O)c1cccc(S(=O)(=O)N2CCCC2)c1)[N-]Cc1ccccc1[O-] (protonated)
O=C(C[N-]C(=O)c1cccc(S(=O)(=O)N2CCCC2)c1)[N-]Cc1ccccc1[O-] (3D coordinates assigned)
O=C(C[N-]C(=O)c1cccc(S(=O)(=O)N2CCCC2)c1)[N-]Cc1ccccc1[O-] (nonaromatic ring conformer: 50.53830512038097 kcal/mol)

> <smiles>
O=C(CNC(=O)c1cccc(S(=O)(=O)N2CCCC2)c1)NCc1ccccc1O

> <score_type>
oracle

> <origin>
adg

> <m_score__min__energy>
-15.199999999999999

> <m_primary>
energy

> <minimizedAffinity>
-7.65973

> <minimizedRMSD>
1.68839

> <CNNscore>
0.5260584354

> <CNNaffinity>
6.5116076469

> <CNN_VS>
3.4254860878

> <CNNaffinity_variance>
0.0809894875

$$$$
4:0


 35 39  0  0  0  0  0  0  0  0999 V2000
   59.8210   29.5486   46.1852 C   0  0  0  0  0  0  0  0  0  0  0  0
   58.5832   29.7351   46.8170 C   0  0  0  0  0  0  0  0  0  0  0  0
   58.4904   30.4981   47.9843 C   0  0  0  0  0  0  0  0  0  0  0  0
   59.6370   31.0887   48.5444 C   0  0  0  0  0  0  0  0  0  0  0  0
   60.8760   30.9039   47.9050 C   0  0  0  0  0  0  0  0  0  0  0  0
   60.9671   30.1434   46.7372 C   0  0  0  0  0  0  0  0  0  0  0  0
   59.5409   31.8761   49.7499 N   0  0  0  0  0  0  0  0  0  0  0  0
   60.2921   33.1364   49.8713 C   0  0  0  0  0  0  0  0  0  0  0  0
   60.7524   33.3601   51.3193 C   0  0  0  0  0  0  0  0  0  0  0  0
   59.6888   33.0547   52.2859 N   0  0  0  0  0  0  0  0  0  0  0  0
   58.3707   32.6207   51.8055 C   0  0  0  0  0  0  0  0  0  0  0  0
   58.5504   31.5051   50.7748 C   0  0  0  0  0  0  0  0  0  0  0  0
   59.9767   33.1002   53.6967 C   0  0  0  0  0  0  0  0  0  0  0  0
   59.4393   34.1236   54.4994 C   0  0  0  0  0  0  0  0  0  0  0  0
   59.7082   34.1585   55.8710 C   0  0  0  0  0  0  0  0  0  0  0  0
   60.5112   33.1756   56.4535 C   0  0  0  0  0  0  0  0  0  0  0  0
   61.0446   32.1523   55.6655 C   0  0  0  0  0  0  0  0  0  0  0  0
   60.7769   32.1108   54.2931 C   0  0  0  0  0  0  0  0  0  0  0  0
   59.9213   28.7096   44.9379 C   0  0  0  0  0  0  0  0  0  0  0  0
   57.9725   27.1097   43.2447 C   0  0  0  0  0  0  0  0  0  0  0  0
   58.4852   26.6703   44.4061 C   0  0  0  0  0  0  0  0  0  0  0  0
   58.1823   25.4508   45.0221 C   0  0  0  0  0  0  0  0  0  0  0  0
   57.3758   24.4760   44.5572 C   0  0  0  0  0  0  0  0  0  0  0  0
   58.9183   25.4116   46.1963 C   0  0  0  0  0  0  0  0  0  0  0  0
   59.6321   26.5905   46.2556 C   0  0  0  0  0  0  0  0  0  0  0  0
   60.5305   26.9715   47.3942 C   0  0  0  0  0  0  0  0  0  0  0  0
   59.3737   27.3630   45.1726 N   0  0  0  0  0  0  0  0  0  0  0  0
   56.1225   24.0599   45.2147 C   0  0  0  0  0  0  0  0  0  0  0  0
   55.2067   24.8513   45.8801 C   0  0  0  0  0  0  0  0  0  0  0  0
   55.3128   26.2192   46.0948 O   0  0  0  0  0  0  0  0  0  0  0  0
   54.1410   24.1196   46.2609 N   0  0  0  0  0  0  0  0  0  0  0  0
   54.4373   22.8905   45.7895 C   0  0  0  0  0  0  0  0  0  0  0  0
   53.6739   21.9006   45.9352 O   0  0  0  0  0  0  0  0  0  0  0  0
   55.6149   22.8188   45.1399 N   0  0  0  0  0  0  0  0  0  0  0  0
   56.0151   22.0309   44.7060 H   0  0  0  0  0  0  0  0  0  0  0  0
 20 21  2  0
 21 22  1  0
 22 23  2  0
 23 28  1  0
 28 29  2  0
 29 30  1  0
 29 31  1  0
 31 32  1  0
 32 33  2  0
 32 34  1  0
 22 24  1  0
 24 25  2  0
 25 26  1  0
 25 27  1  0
 27 19  1  0
 19  1  1  0
  1  2  2  0
  2  3  1  0
  3  4  2  0
  4  7  1  0
  7  8  1  0
  8  9  1  0
  9 10  1  0
 10 13  1  0
 13 14  2  0
 14 15  1  0
 15 16  2  0
 16 17  1  0
 17 18  2  0
 10 11  1  0
 11 12  1  0
  4  5  1  0
  5  6  2  0
 27 21  1  0
  6  1  1  0
 34 28  1  0
 12  7  1  0
 18 13  1  0
 34 35  1  0
M  CHG 1  30  -1
M  CHG 1  31  -1
M  END
> <UniqueID>
5

> <SMILES>
C=c1/c(=C/c2[nH]c(=O)[n-]c2[O-])cc(C)n1Cc1ccc(N2CCN(c3ccccc3)CC2)cc1

> <Energy>
140.23456593763555

> <Genealogy>
C=c1c(=Cc2[nH]c(=O)[n-]c2[O-])cc(C)n1Cc1ccc(N2CCN(c3ccccc3)CC2)cc1 (protonated)
C=c1/c(=C/c2[nH]c(=O)[n-]c2[O-])cc(C)n1Cc1ccc(N2CCN(c3ccccc3)CC2)cc1 (cis-trans isomerization)
C=c1/c(=C/c2[nH]c(=O)[n-]c2[O-])cc(C)n1Cc1ccc(N2CCN(c3ccccc3)CC2)cc1 (3D coordinates assigned)
C=c1/c(=C/c2[nH]c(=O)[n-]c2[O-])cc(C)n1Cc1ccc(N2CCN(c3ccccc3)CC2)cc1 (nonaromatic ring conformer: 140.23456593763555 kcal/mol)

> <smiles>
C=c1c(=Cc2[nH]c(=O)[nH]c2O)cc(C)n1Cc1ccc(N2CCN(c3ccccc3)CC2)cc1

> <score_type>
oracle

> <origin>
adg

> <m_score__min__energy>
-14.279999999999999

> <m_primary>
energy

> <minimizedAffinity>
-7.29393

> <minimizedRMSD>
1.00434

> <CNNscore>
0.0918936655

> <CNNaffinity>
5.7313361168

> <CNN_VS>
0.5266734958

> <CNNaffinity_variance>
0.4241988659

$$$$
9:0


 32 35  0  0  0  0  0  0  0  0999 V2000
   58.0725   25.5939   45.0618 C   0  0  0  0  0  0  0  0  0  0  0  0
   58.3684   26.8546   45.4326 C   0  0  0  0  0  0  0  0  0  0  0  0
   59.2036   27.2319   46.4774 C   0  0  0  0  0  0  0  0  0  0  0  0
   59.2534   28.6119   46.4664 C   0  0  0  0  0  0  0  0  0  0  0  0
   60.0665   29.4399   47.4144 C   0  0  0  0  0  0  0  0  0  0  0  0
   58.5061   29.1029   45.4536 N   0  0  0  0  0  0  0  0  0  0  0  0
   57.9597   28.0400   44.8102 C   0  0  0  0  0  0  0  0  0  0  0  0
   57.1699   28.1416   43.7290 C   0  0  0  0  0  0  0  0  0  0  0  0
   55.1652   25.8558   46.0973 O   0  0  0  0  0  0  0  0  0  0  0  0
   56.0069   24.7740   46.3320 C   0  0  0  0  0  0  0  0  0  0  0  0
   55.6318   23.6665   46.9949 N   0  0  0  0  0  0  0  0  0  0  0  0
   56.7297   22.8868   46.9148 C   0  0  0  0  0  0  0  0  0  0  0  0
   56.7827   21.7350   47.4201 O   0  0  0  0  0  0  0  0  0  0  0  0
   57.7657   23.4333   46.2420 N   0  0  0  0  0  0  0  0  0  0  0  0
   57.3066   24.6475   45.8929 C   0  0  0  0  0  0  0  0  0  0  0  0
   54.2924   25.8528   46.4380 H   0  0  0  0  0  0  0  0  0  0  0  0
   58.3309   30.4957   45.1374 C   0  0  0  0  0  0  0  0  0  0  0  0
   58.0959   30.8945   43.8149 C   0  0  0  0  0  0  0  0  0  0  0  0
   57.9469   32.2482   43.5076 C   0  0  0  0  0  0  0  0  0  0  0  0
   58.0247   33.2112   44.5170 C   0  0  0  0  0  0  0  0  0  0  0  0
   58.2414   32.8216   45.8523 C   0  0  0  0  0  0  0  0  0  0  0  0
   58.4129   31.4637   46.1496 C   0  0  0  0  0  0  0  0  0  0  0  0
   58.3618   33.7766   46.9157 N   0  0  0  0  0  0  0  0  0  0  0  0
   59.5296   34.5283   47.2660 C   0  0  0  0  0  0  0  0  0  0  0  0
   59.9198   35.4881   46.5488 O   0  0  0  0  0  0  0  0  0  0  0  0
   60.2677   34.1988   48.5317 C   0  0  0  0  0  0  0  0  0  0  0  0
   61.0014   32.9166   48.4635 N   0  0  0  0  0  0  0  0  0  0  0  0
   61.6841   32.5254   49.7191 C   0  0  0  0  0  0  0  0  0  0  0  0
   63.2133   32.5514   49.5876 C   0  0  0  0  0  0  0  0  0  0  0  0
   63.6039   33.5967   48.7289 O   0  0  0  0  0  0  0  0  0  0  0  0
   63.2605   33.2714   47.3954 C   0  0  0  0  0  0  0  0  0  0  0  0
   61.8142   32.7408   47.2403 C   0  0  0  0  0  0  0  0  0  0  0  0
  9 10  1  0
 10 11  1  0
 11 12  1  0
 12 13  2  0
 12 14  1  0
 14 15  1  0
 15  1  1  0
  1  2  2  0
  2  3  1  0
  3  4  2  0
  4  5  1  0
  4  6  1  0
  6 17  1  0
 17 18  2  0
 18 19  1  0
 19 20  2  0
 20 21  1  0
 21 23  1  0
 23 24  1  0
 24 25  2  0
 24 26  1  0
 26 27  1  0
 27 28  1  0
 28 29  1  0
 29 30  1  0
 30 31  1  0
 31 32  1  0
 21 22  2  0
  6  7  1  0
  7  8  2  0
 15 10  2  0
  7  2  1  0
 22 17  1  0
 32 27  1  0
  9 16  1  0
M  CHG 1  11  -1
M  CHG 1  14  -1
M  CHG 1  23  -1
M  END
> <UniqueID>
10

> <SMILES>
C=c1/c(=C/c2[n-]c(=O)[n-]c2O)cc(C)n1-c1cccc([N-]C(=O)CN2CCOCC2)c1

> <Energy>
142.65097311410807

> <Genealogy>
C=c1c(=Cc2[n-]c(=O)[n-]c2O)cc(C)n1-c1cccc([N-]C(=O)CN2CCOCC2)c1 (protonated)
C=c1/c(=C/c2[n-]c(=O)[n-]c2O)cc(C)n1-c1cccc([N-]C(=O)CN2CCOCC2)c1 (cis-trans isomerization)
C=c1/c(=C/c2[n-]c(=O)[n-]c2O)cc(C)n1-c1cccc([N-]C(=O)CN2CCOCC2)c1 (3D coordinates assigned)
C=c1/c(=C/c2[n-]c(=O)[n-]c2O)cc(C)n1-c1cccc([N-]C(=O)CN2CCOCC2)c1 (nonaromatic ring conformer: 142.65097311410807 kcal/mol)

> <smiles>
C=c1c(=Cc2[nH]c(=O)[nH]c2O)cc(C)n1-c1cccc(NC(=O)CN2CCOCC2)c1

> <score_type>
oracle

> <origin>
adg

> <m_score__min__energy>
-14.74

> <m_primary>
energy

> <minimizedAffinity>
-8.70152

> <minimizedRMSD>
0.64938

> <CNNscore>
0.2572019398

> <CNNaffinity>
6.7047691345

> <CNN_VS>
1.7244796753

> <CNNaffinity_variance>
0.0970723256

$$$$
13:0


 31 34  0  0  0  0  0  0  0  0999 V2000
   59.4025   28.5704   46.6431 C   0  0  0  0  0  0  0  0  0  0  0  0
   58.8632   29.0506   47.8446 C   0  0  0  0  0  0  0  0  0  0  0  0
   59.1562   30.3456   48.2790 C   0  0  0  0  0  0  0  0  0  0  0  0
   59.9842   31.1773   47.5131 C   0  0  0  0  0  0  0  0  0  0  0  0
   60.5373   30.6908   46.3197 C   0  0  0  0  0  0  0  0  0  0  0  0
   60.2462   29.3948   45.8865 C   0  0  0  0  0  0  0  0  0  0  0  0
   57.2859   27.7574   44.7331 C   0  0  0  0  0  0  0  0  0  0  0  0
   58.0715   26.8740   45.3697 C   0  0  0  0  0  0  0  0  0  0  0  0
   58.1059   25.4809   45.1839 C   0  0  0  0  0  0  0  0  0  0  0  0
   57.2766   24.6574   44.5132 C   0  0  0  0  0  0  0  0  0  0  0  0
   59.2248   25.0262   45.8629 C   0  0  0  0  0  0  0  0  0  0  0  0
   59.7852   26.1202   46.4888 C   0  0  0  0  0  0  0  0  0  0  0  0
   61.0114   26.0713   47.3487 C   0  0  0  0  0  0  0  0  0  0  0  0
   59.0890   27.2400   46.1923 N   0  0  0  0  0  0  0  0  0  0  0  0
   56.1068   23.9692   45.0797 C   0  0  0  0  0  0  0  0  0  0  0  0
   55.9811   22.6322   45.1234 N   0  0  0  0  0  0  0  0  0  0  0  0
   54.8424   22.4483   45.8288 C   0  0  0  0  0  0  0  0  0  0  0  0
   54.3742   21.3066   46.0728 O   0  0  0  0  0  0  0  0  0  0  0  0
   54.2534   23.5842   46.2610 N   0  0  0  0  0  0  0  0  0  0  0  0
   55.0751   24.5373   45.7930 C   0  0  0  0  0  0  0  0  0  0  0  0
   54.8979   25.8943   46.0348 O   0  0  0  0  0  0  0  0  0  0  0  0
   60.3251   32.8258   48.0403 S   0  0  0  0  0  0  0  0  0  0  0  0
   60.4890   32.8371   49.5353 O   0  0  0  0  0  0  0  0  0  0  0  0
   61.6301   33.2613   47.4347 O   0  0  0  0  0  0  0  0  0  0  0  0
   59.0718   33.9675   47.5861 N   0  0  0  0  0  0  0  0  0  0  0  0
   59.5625   34.9914   46.6305 C   0  0  0  0  0  0  0  0  0  0  0  0
   59.1730   34.6915   45.1736 C   0  0  0  0  0  0  0  0  0  0  0  0
   59.0541   33.3043   44.9668 O   0  0  0  0  0  0  0  0  0  0  0  0
   57.9198   32.8154   45.6541 C   0  0  0  0  0  0  0  0  0  0  0  0
   57.8409   33.2897   47.1245 C   0  0  0  0  0  0  0  0  0  0  0  0
   58.8138   34.4756   48.4321 H   0  0  0  0  0  0  0  0  0  0  0  0
  7  8  2  0
  8  9  1  0
  9 10  2  0
 10 15  1  0
 15 16  1  0
 16 17  1  0
 17 18  2  0
 17 19  1  0
 19 20  1  0
 20 21  1  0
  9 11  1  0
 11 12  2  0
 12 13  1  0
 12 14  1  0
 14  1  1  0
  1  2  2  0
  2  3  1  0
  3  4  2  0
  4 22  1  0
 22 23  2  0
 22 24  2  0
 22 25  1  0
 25 26  1  0
 26 27  1  0
 27 28  1  0
 28 29  1  0
 29 30  1  0
  4  5  1  0
  5  6  2  0
 14  8  1  0
  6  1  1  0
 20 15  2  0
 30 25  1  0
 25 31  1  0
M  CHG 1  16  -1
M  CHG 1  19  -1
M  CHG 1  21  -1
M  CHG 1  25   1
M  END
> <UniqueID>
14

> <SMILES>
C=c1c(=Cc2[n-]c(=O)[n-]c2[O-])cc(C)n1-c1ccc(S(=O)(=O)[NH+]2CCOCC2)cc1

> <Energy>
139.02104827761153

> <Genealogy>
C=c1c(=Cc2[n-]c(=O)[n-]c2[O-])cc(C)n1-c1ccc(S(=O)(=O)[NH+]2CCOCC2)cc1 (protonated)
C=c1c(=Cc2[n-]c(=O)[n-]c2[O-])cc(C)n1-c1ccc(S(=O)(=O)[NH+]2CCOCC2)cc1 (3D coordinates assigned)
C=c1c(=Cc2[n-]c(=O)[n-]c2[O-])cc(C)n1-c1ccc(S(=O)(=O)[NH+]2CCOCC2)cc1 (nonaromatic ring conformer: 139.02104827761153 kcal/mol)

> <smiles>
C=c1c(=Cc2[nH]c(=O)[nH]c2O)cc(C)n1-c1ccc(S(=O)(=O)N2CCOCC2)cc1

> <score_type>
oracle

> <origin>
adg

> <m_score__min__energy>
-14.609999999999999

> <m_primary>
energy

> <minimizedAffinity>
-6.73835

> <minimizedRMSD>
0.82776

> <CNNscore>
0.1091528684

> <CNNaffinity>
6.0360894203

> <CNN_VS>
0.6588564515

> <CNNaffinity_variance>
0.5654492974

$$$$
14:0


 31 34  0  0  0  0  0  0  0  0999 V2000
   58.0715   25.7224   45.0955 C   0  0  0  0  0  0  0  0  0  0  0  0
   58.5149   26.8951   45.5883 C   0  0  0  0  0  0  0  0  0  0  0  0
   59.3063   27.0659   46.7183 C   0  0  0  0  0  0  0  0  0  0  0  0
   59.4819   28.4262   46.8760 C   0  0  0  0  0  0  0  0  0  0  0  0
   60.2510   29.0593   47.9955 C   0  0  0  0  0  0  0  0  0  0  0  0
   58.8243   29.1028   45.9094 N   0  0  0  0  0  0  0  0  0  0  0  0
   58.2256   28.1787   45.1162 C   0  0  0  0  0  0  0  0  0  0  0  0
   57.4550   28.4835   44.0587 C   0  0  0  0  0  0  0  0  0  0  0  0
   55.1525   26.0409   46.0846 O   0  0  0  0  0  0  0  0  0  0  0  0
   55.9589   24.9285   46.3034 C   0  0  0  0  0  0  0  0  0  0  0  0
   55.5819   23.8668   47.0375 N   0  0  0  0  0  0  0  0  0  0  0  0
   56.6878   23.0927   47.0279 C   0  0  0  0  0  0  0  0  0  0  0  0
   56.7454   21.9855   47.6225 O   0  0  0  0  0  0  0  0  0  0  0  0
   57.7319   23.6039   46.3378 N   0  0  0  0  0  0  0  0  0  0  0  0
   57.2519   24.7637   45.8586 C   0  0  0  0  0  0  0  0  0  0  0  0
   54.2810   26.0627   46.4283 H   0  0  0  0  0  0  0  0  0  0  0  0
   58.7823   30.5331   45.7650 C   0  0  0  0  0  0  0  0  0  0  0  0
   58.2136   31.1108   44.6247 C   0  0  0  0  0  0  0  0  0  0  0  0
   58.1845   32.4993   44.4775 C   0  0  0  0  0  0  0  0  0  0  0  0
   58.7304   33.3343   45.4667 C   0  0  0  0  0  0  0  0  0  0  0  0
   58.6982   34.8258   45.2599 C   0  0  0  0  0  0  0  0  0  0  0  0
   59.2769   32.7530   46.6357 C   0  0  0  0  0  0  0  0  0  0  0  0
   59.3167   31.3571   46.7649 C   0  0  0  0  0  0  0  0  0  0  0  0
   59.8128   33.5783   47.7345 C   0  0  0  0  0  0  0  0  0  0  0  0
   59.0647   34.4433   48.2624 O   0  0  0  0  0  0  0  0  0  0  0  0
   61.1702   33.4234   48.1930 N   0  0  0  0  0  0  0  0  0  0  0  0
   62.1885   32.8074   47.3331 C   0  0  0  0  0  0  0  0  0  0  0  0
   63.5653   33.3934   47.6557 C   0  0  0  0  0  0  0  0  0  0  0  0
   63.8326   33.3166   49.0429 O   0  0  0  0  0  0  0  0  0  0  0  0
   62.9287   34.1443   49.7491 C   0  0  0  0  0  0  0  0  0  0  0  0
   61.4925   33.6269   49.6087 C   0  0  0  0  0  0  0  0  0  0  0  0
  9 10  1  0
 10 11  1  0
 11 12  1  0
 12 13  2  0
 12 14  1  0
 14 15  1  0
 15  1  1  0
  1  2  2  0
  2  3  1  0
  3  4  2  0
  4  5  1  0
  4  6  1  0
  6 17  1  0
 17 18  2  0
 18 19  1  0
 19 20  2  0
 20 21  1  0
 20 22  1  0
 22 24  1  0
 24 25  2  0
 24 26  1  0
 26 27  1  0
 27 28  1  0
 28 29  1  0
 29 30  1  0
 30 31  1  0
 22 23  2  0
  6  7  1  0
  7  8  2  0
 15 10  2  0
  7  2  1  0
 23 17  1  0
 31 26  1  0
  9 16  1  0
M  CHG 1  11  -1
M  CHG 1  14  -1
M  END
> <UniqueID>
15

> <SMILES>
C=c1/c(=C/c2[n-]c(=O)[n-]c2O)cc(C)n1-c1ccc(C)c(C(=O)N2CCOCC2)c1

> <Energy>
133.72953733268102

> <Genealogy>
C=c1c(=Cc2[n-]c(=O)[n-]c2O)cc(C)n1-c1ccc(C)c(C(=O)N2CCOCC2)c1 (protonated)
C=c1/c(=C/c2[n-]c(=O)[n-]c2O)cc(C)n1-c1ccc(C)c(C(=O)N2CCOCC2)c1 (cis-trans isomerization)
C=c1/c(=C/c2[n-]c(=O)[n-]c2O)cc(C)n1-c1ccc(C)c(C(=O)N2CCOCC2)c1 (3D coordinates assigned)
C=c1/c(=C/c2[n-]c(=O)[n-]c2O)cc(C)n1-c1ccc(C)c(C(=O)N2CCOCC2)c1 (nonaromatic ring conformer: 133.72953733268102 kcal/mol)

> <smiles>
C=c1c(=Cc2[nH]c(=O)[nH]c2O)cc(C)n1-c1ccc(C)c(C(=O)N2CCOCC2)c1

> <score_type>
oracle

> <origin>
adg

> <m_score__min__energy>
-14.18

> <m_primary>
energy

> <minimizedAffinity>
-10.58424

> <minimizedRMSD>
0.70760

> <CNNscore>
0.7139653563

> <CNNaffinity>
7.2220702171

> <CNN_VS>
5.1563081741

> <CNNaffinity_variance>
0.0004664126

$$$$
20:0


 28 30  0  0  0  0  0  0  0  0999 V2000
   59.8970   31.8034   48.7397 N   0  0  0  0  0  0  0  0  0  0  0  0
   59.1381   32.4683   47.6721 C   0  0  0  0  0  0  0  0  0  0  0  0
   58.7287   31.4837   46.5541 C   0  0  0  0  0  0  0  0  0  0  0  0
   59.4747   30.2087   46.6122 N   0  0  0  0  0  0  0  0  0  0  0  0
   60.8903   30.4156   46.9529 C   0  0  0  0  0  0  0  0  0  0  0  0
   60.9756   30.8601   48.4133 C   0  0  0  0  0  0  0  0  0  0  0  0
   58.5101   32.1113   52.2268 C   0  0  0  0  0  0  0  0  0  0  0  0
   59.4124   33.0343   52.7696 C   0  0  0  0  0  0  0  0  0  0  0  0
   60.4686   33.5320   52.0033 C   0  0  0  0  0  0  0  0  0  0  0  0
   60.6284   33.1171   50.6808 C   0  0  0  0  0  0  0  0  0  0  0  0
   59.7210   32.2139   50.1062 C   0  0  0  0  0  0  0  0  0  0  0  0
   58.6442   31.7286   50.8748 C   0  0  0  0  0  0  0  0  0  0  0  0
   57.6936   30.9151   50.2706 O   0  0  0  0  0  0  0  0  0  0  0  0
   57.4572   31.6270   53.0739 N   0  0  0  0  0  0  0  0  0  0  0  0
   56.5704   29.8202   55.1460 C   0  0  0  0  0  0  0  0  0  0  0  0
   57.1409   29.9665   53.4637 S   0  0  0  0  0  0  0  0  0  0  0  0
   58.3749   29.1367   53.2508 O   0  0  0  0  0  0  0  0  0  0  0  0
   56.0537   29.4626   52.5579 O   0  0  0  0  0  0  0  0  0  0  0  0
   59.2676   29.3488   45.4253 C   0  0  0  0  0  0  0  0  0  0  0  0
   58.7878   27.9452   45.7513 C   0  0  0  0  0  0  0  0  0  0  0  0
   59.7178   26.9652   46.1408 C   0  0  0  0  0  0  0  0  0  0  0  0
   59.2967   25.6676   46.4411 C   0  0  0  0  0  0  0  0  0  0  0  0
   57.9439   25.3361   46.3681 C   0  0  0  0  0  0  0  0  0  0  0  0
   57.0028   26.3010   46.0024 C   0  0  0  0  0  0  0  0  0  0  0  0
   55.6585   25.9533   45.9439 O   0  0  0  0  0  0  0  0  0  0  0  0
   57.4162   27.6103   45.6974 C   0  0  0  0  0  0  0  0  0  0  0  0
   56.4760   28.5817   45.3441 O   0  0  0  0  0  0  0  0  0  0  0  0
   55.5660   28.3616   45.3077 H   0  0  0  0  0  0  0  0  0  0  0  0
 15 16  1  0
 16 17  2  0
 16 18  2  0
 16 14  1  0
 14  7  1  0
  7  8  2  0
  8  9  1  0
  9 10  2  0
 10 11  1  0
 11  1  1  0
  1  2  1  0
  2  3  1  0
  3  4  1  0
  4 19  1  0
 19 20  1  0
 20 21  2  0
 21 22  1  0
 22 23  2  0
 23 24  1  0
 24 25  1  0
 24 26  2  0
 26 27  1  0
  4  5  1  0
  5  6  1  0
 11 12  2  0
 12 13  1  0
 12  7  1  0
  6  1  1  0
 26 20  1  0
 27 28  1  0
M  CHG 1  13  -1
M  CHG 1  14  -1
M  CHG 1  25  -1
M  END
> <UniqueID>
20

> <SMILES>
CS(=O)(=O)[N-]c1cccc(N2CCN(Cc3cccc([O-])c3O)CC2)c1[O-]

> <Energy>
65.8883389871811

> <Genealogy>
CS(=O)(=O)[N-]c1cccc(N2CCN(Cc3cccc([O-])c3O)CC2)c1[O-] (protonated)
CS(=O)(=O)[N-]c1cccc(N2CCN(Cc3cccc([O-])c3O)CC2)c1[O-] (3D coordinates assigned)
CS(=O)(=O)[N-]c1cccc(N2CCN(Cc3cccc([O-])c3O)CC2)c1[O-] (nonaromatic ring conformer: 65.8883389871811 kcal/mol)

> <smiles>
CS(=O)(=O)Nc1cccc(N2CCN(Cc3cccc(O)c3O)CC2)c1O

> <score_type>
oracle

> <origin>
adg

> <m_score__min__energy>
-14.31

> <m_primary>
energy

> <minimizedAffinity>
-6.63435

> <minimizedRMSD>
0.99223

> <CNNscore>
0.3828403354

> <CNNaffinity>
6.0974216461

> <CNN_VS>
2.3343389034

> <CNNaffinity_variance>
0.6521686912

$$$$
23:0


 30 32  0  0  0  0  0  0  0  0999 V2000
   60.9673   30.4398   47.3057 C   0  0  0  0  0  0  0  0  0  0  0  0
   60.0081   31.0155   46.5592 C   0  0  0  0  0  0  0  0  0  0  0  0
   59.2070   30.3855   45.5898 C   0  0  0  0  0  0  0  0  0  0  0  0
   59.2640   29.1493   45.0533 C   0  0  0  0  0  0  0  0  0  0  0  0
   58.2546   31.3127   45.2111 C   0  0  0  0  0  0  0  0  0  0  0  0
   58.5295   32.4748   45.8977 C   0  0  0  0  0  0  0  0  0  0  0  0
   57.7062   33.7245   45.7963 C   0  0  0  0  0  0  0  0  0  0  0  0
   59.5944   32.3047   46.7168 N   0  0  0  0  0  0  0  0  0  0  0  0
   58.7132   27.9200   45.6577 C   0  0  0  0  0  0  0  0  0  0  0  0
   57.3313   27.6667   45.6618 C   0  0  0  0  0  0  0  0  0  0  0  0
   56.4442   28.5534   45.0621 O   0  0  0  0  0  0  0  0  0  0  0  0
   56.8507   26.5476   46.2637 N   0  0  0  0  0  0  0  0  0  0  0  0
   57.6822   25.6710   46.8804 C   0  0  0  0  0  0  0  0  0  0  0  0
   57.2148   24.6393   47.4275 O   0  0  0  0  0  0  0  0  0  0  0  0
   59.0184   25.9079   46.9124 N   0  0  0  0  0  0  0  0  0  0  0  0
   59.5504   27.0129   46.3254 C   0  0  0  0  0  0  0  0  0  0  0  0
   60.7935   27.2057   46.3813 O   0  0  0  0  0  0  0  0  0  0  0  0
   60.1201   33.3264   47.6402 C   0  0  0  0  0  0  0  0  0  0  0  0
   59.8218   32.9587   49.0718 C   0  0  0  0  0  0  0  0  0  0  0  0
   58.6737   32.2159   49.3906 C   0  0  0  0  0  0  0  0  0  0  0  0
   58.3918   31.8853   50.7191 C   0  0  0  0  0  0  0  0  0  0  0  0
   59.2583   32.2865   51.7438 C   0  0  0  0  0  0  0  0  0  0  0  0
   60.4034   33.0300   51.4307 C   0  0  0  0  0  0  0  0  0  0  0  0
   60.6866   33.3607   50.1033 C   0  0  0  0  0  0  0  0  0  0  0  0
   58.8904   31.8880   53.4198 S   0  0  0  0  0  0  0  0  0  0  0  0
   57.4461   31.4888   53.5423 O   0  0  0  0  0  0  0  0  0  0  0  0
   59.7466   30.7383   53.8692 O   0  0  0  0  0  0  0  0  0  0  0  0
   59.1967   33.2609   54.4243 N   0  0  0  0  0  0  0  0  0  0  0  0
   58.6155   34.0417   54.1194 H   0  0  0  0  0  0  0  0  0  0  0  0
   60.1803   33.5213   54.3535 H   0  0  0  0  0  0  0  0  0  0  0  0
  1  2  2  0
  2  3  1  0
  3  4  2  0
  4  9  1  0
  9 10  2  0
 10 11  1  0
 10 12  1  0
 12 13  1  0
 13 14  2  0
 13 15  1  0
 15 16  1  0
 16 17  2  0
  3  5  1  0
  5  6  2  0
  6  7  1  0
  6  8  1  0
  8 18  1  0
 18 19  1  0
 19 20  2  0
 20 21  1  0
 21 22  2  0
 22 25  1  0
 25 26  2  0
 25 27  2  0
 25 28  1  0
 22 23  1  0
 23 24  2  0
  8  2  1  0
 24 19  1  0
 16  9  1  0
 28 29  1  0
 28 30  1  0
M  CHG 1  11  -1
M  CHG 1  12  -1
M  CHG 1  15  -1
M  END
> <UniqueID>
23

> <SMILES>
C=c1/c(=C\c2c([O-])[n-]c(=O)[n-]c2=O)cc(C)n1Cc1ccc(S(N)(=O)=O)cc1

> <Energy>
86.79125901035059

> <Genealogy>
C=c1c(=Cc2c([O-])[n-]c(=O)[n-]c2=O)cc(C)n1Cc1ccc(S(N)(=O)=O)cc1 (protonated)
C=c1/c(=C\c2c([O-])[n-]c(=O)[n-]c2=O)cc(C)n1Cc1ccc(S(N)(=O)=O)cc1 (cis-trans isomerization)
C=c1/c(=C\c2c([O-])[n-]c(=O)[n-]c2=O)cc(C)n1Cc1ccc(S(N)(=O)=O)cc1 (3D coordinates assigned)
C=c1/c(=C\c2c([O-])[n-]c(=O)[n-]c2=O)cc(C)n1Cc1ccc(S(N)(=O)=O)cc1 (optimized conformer: 86.79125901035059 kcal/mol)

> <smiles>
C=c1c(=Cc2c(O)[nH]c(=O)[nH]c2=O)cc(C)n1Cc1ccc(S(N)(=O)=O)cc1

> <score_type>
oracle

> <origin>
adg

> <m_score__min__energy>
-15.82

> <m_primary>
energy

> <minimizedAffinity>
-7.17905

> <minimizedRMSD>
1.37086

> <CNNscore>
0.6088419557

> <CNNaffinity>
6.9910278320

> <CNN_VS>
4.2564311028

> <CNNaffinity_variance>
0.2222817689

$$$$
26:0


 30 32  0  0  0  0  0  0  0  0999 V2000
   58.3851   25.0511   47.5917 C   0  0  0  0  0  0  0  0  0  0  0  0
   58.4904   25.8647   46.5306 C   0  0  0  0  0  0  0  0  0  0  0  0
   58.0015   25.6623   45.2320 C   0  0  0  0  0  0  0  0  0  0  0  0
   57.4048   24.5967   44.6589 C   0  0  0  0  0  0  0  0  0  0  0  0
   58.2646   26.8666   44.5840 C   0  0  0  0  0  0  0  0  0  0  0  0
   57.9415   27.2125   43.1648 C   0  0  0  0  0  0  0  0  0  0  0  0
   58.8905   27.7139   45.4208 N   0  0  0  0  0  0  0  0  0  0  0  0
   59.0378   27.1065   46.5852 N   0  0  0  0  0  0  0  0  0  0  0  0
   56.2205   23.8939   45.1862 C   0  0  0  0  0  0  0  0  0  0  0  0
   55.1725   24.6167   45.7724 C   0  0  0  0  0  0  0  0  0  0  0  0
   55.2547   25.9979   45.9100 O   0  0  0  0  0  0  0  0  0  0  0  0
   54.0672   23.9660   46.2198 N   0  0  0  0  0  0  0  0  0  0  0  0
   53.9504   22.6181   46.0973 C   0  0  0  0  0  0  0  0  0  0  0  0
   52.6148   21.8632   46.6520 S   0  0  0  0  0  0  0  0  0  0  0  0
   54.9429   21.9000   45.5111 N   0  0  0  0  0  0  0  0  0  0  0  0
   56.0653   22.5036   45.0459 C   0  0  0  0  0  0  0  0  0  0  0  0
   56.9579   21.8072   44.4933 O   0  0  0  0  0  0  0  0  0  0  0  0
   59.6191   27.7794   47.7479 C   0  0  0  0  0  0  0  0  0  0  0  0
   59.2565   29.2342   47.7362 C   0  0  0  0  0  0  0  0  0  0  0  0
   58.7223   29.7474   48.7570 O   0  0  0  0  0  0  0  0  0  0  0  0
   59.5001   30.0299   46.5689 N   0  0  0  0  0  0  0  0  0  0  0  0
   59.6447   29.5692   45.7109 H   0  0  0  0  0  0  0  0  0  0  0  0
   59.5438   31.4644   46.5880 C   0  0  0  0  0  0  0  0  0  0  0  0
   58.4773   32.1918   46.0371 C   0  0  0  0  0  0  0  0  0  0  0  0
   58.5044   33.5886   46.0281 C   0  0  0  0  0  0  0  0  0  0  0  0
   59.6053   34.2725   46.5509 C   0  0  0  0  0  0  0  0  0  0  0  0
   59.6354   35.6284   46.5309 F   0  0  0  0  0  0  0  0  0  0  0  0
   60.6836   33.5587   47.0780 C   0  0  0  0  0  0  0  0  0  0  0  0
   60.6598   32.1601   47.0953 C   0  0  0  0  0  0  0  0  0  0  0  0
   61.7442   31.4889   47.5611 F   0  0  0  0  0  0  0  0  0  0  0  0
  1  2  2  0
  2  3  1  0
  3  4  2  0
  4  9  1  0
  9 10  2  0
 10 11  1  0
 10 12  1  0
 12 13  1  0
 13 14  2  0
 13 15  1  0
 15 16  1  0
 16 17  2  0
  3  5  1  0
  5  6  1  0
  5  7  2  0
  7  8  1  0
  8 18  1  0
 18 19  1  0
 19 20  2  0
 19 21  1  0
 21 23  1  0
 23 24  2  0
 24 25  1  0
 25 26  2  0
 26 27  1  0
 26 28  1  0
 28 29  2  0
 29 30  1  0
  8  2  1  0
 29 23  1  0
 16  9  1  0
 21 22  1  0
M  CHG 1  11  -1
M  CHG 1  12  -1
M  CHG 1  15  -1
M  END
> <UniqueID>
25

> <SMILES>
C=c1/c(=C\c2c([O-])[n-]c(=S)[n-]c2=O)c(C)nn1CC(=O)Nc1ccc(F)cc1F

> <Energy>
92.22533770511146

> <Genealogy>
C=c1c(=Cc2c([O-])[n-]c(=S)[n-]c2=O)c(C)nn1CC(=O)Nc1ccc(F)cc1F (protonated)
C=c1/c(=C\c2c([O-])[n-]c(=S)[n-]c2=O)c(C)nn1CC(=O)Nc1ccc(F)cc1F (cis-trans isomerization)
C=c1/c(=C\c2c([O-])[n-]c(=S)[n-]c2=O)c(C)nn1CC(=O)Nc1ccc(F)cc1F (3D coordinates assigned)
C=c1/c(=C\c2c([O-])[n-]c(=S)[n-]c2=O)c(C)nn1CC(=O)Nc1ccc(F)cc1F (optimized conformer: 92.22533770511146 kcal/mol)

> <smiles>
C=c1c(=Cc2c(O)[nH]c(=S)[nH]c2=O)c(C)nn1CC(=O)Nc1ccc(F)cc1F

> <score_type>
oracle

> <origin>
adg

> <m_score__min__energy>
-15.58

> <m_primary>
energy

> <minimizedAffinity>
-8.20946

> <minimizedRMSD>
0.75529

> <CNNscore>
0.1181693003

> <CNNaffinity>
6.4715943336

> <CNN_VS>
0.7647437453

> <CNNaffinity_variance>
0.1141657531

$$$$
33:0


 24 26  0  0  0  0  0  0  0  0999 V2000
   57.3600   29.3637   44.9768 C   0  0  0  0  0  0  0  0  0  0  0  0
   58.1869   28.7831   45.8648 C   0  0  0  0  0  0  0  0  0  0  0  0
   58.5664   27.4363   45.8686 C   0  0  0  0  0  0  0  0  0  0  0  0
   58.1435   26.4632   45.0358 C   0  0  0  0  0  0  0  0  0  0  0  0
   59.4286   27.2781   46.9426 C   0  0  0  0  0  0  0  0  0  0  0  0
   59.5465   28.5145   47.5410 C   0  0  0  0  0  0  0  0  0  0  0  0
   60.4255   28.7972   48.7248 C   0  0  0  0  0  0  0  0  0  0  0  0
   58.7954   29.4353   46.8925 N   0  0  0  0  0  0  0  0  0  0  0  0
   57.5276   25.2018   45.4867 C   0  0  0  0  0  0  0  0  0  0  0  0
   58.2008   24.0420   45.5739 N   0  0  0  0  0  0  0  0  0  0  0  0
   57.2952   23.1904   46.1006 C   0  0  0  0  0  0  0  0  0  0  0  0
   57.5532   21.9796   46.3243 O   0  0  0  0  0  0  0  0  0  0  0  0
   56.0952   23.7415   46.3793 N   0  0  0  0  0  0  0  0  0  0  0  0
   56.2604   25.0185   45.9966 C   0  0  0  0  0  0  0  0  0  0  0  0
   55.2915   26.0001   46.1578 O   0  0  0  0  0  0  0  0  0  0  0  0
   58.6739   30.8543   47.2664 C   0  0  0  0  0  0  0  0  0  0  0  0
   59.7774   31.7127   46.6269 C   0  0  0  0  0  0  0  0  0  0  0  0
   59.5949   33.2137   46.8941 C   0  0  0  0  0  0  0  0  0  0  0  0
   60.6264   33.7185   47.8275 N   0  0  0  0  0  0  0  0  0  0  0  0
   61.9142   33.0434   47.5799 C   0  0  0  0  0  0  0  0  0  0  0  0
   63.0046   33.6115   48.5148 C   0  0  0  0  0  0  0  0  0  0  0  0
   62.4687   34.3961   49.5653 O   0  0  0  0  0  0  0  0  0  0  0  0
   61.4190   33.6944   50.1969 C   0  0  0  0  0  0  0  0  0  0  0  0
   60.2208   33.5371   49.2404 C   0  0  0  0  0  0  0  0  0  0  0  0
  1  2  2  0
  2  3  1  0
  3  4  2  0
  4  9  1  0
  9 10  1  0
 10 11  1  0
 11 12  2  0
 11 13  1  0
 13 14  1  0
 14 15  1  0
  3  5  1  0
  5  6  2  0
  6  7  1  0
  6  8  1  0
  8 16  1  0
 16 17  1  0
 17 18  1  0
 18 19  1  0
 19 20  1  0
 20 21  1  0
 21 22  1  0
 22 23  1  0
 23 24  1  0
  8  2  1  0
 24 19  1  0
 14  9  2  0
M  CHG 1  10  -1
M  CHG 1  13  -1
M  CHG 1  15  -1
M  END
> <UniqueID>
30

> <SMILES>
C=c1/c(=C/c2[n-]c(=O)[n-]c2[O-])cc(C)n1CCCN1CCOCC1

> <Energy>
117.13067628821845

> <Genealogy>
C=c1c(=Cc2[n-]c(=O)[n-]c2[O-])cc(C)n1CCCN1CCOCC1 (protonated)
C=c1/c(=C/c2[n-]c(=O)[n-]c2[O-])cc(C)n1CCCN1CCOCC1 (cis-trans isomerization)
C=c1/c(=C/c2[n-]c(=O)[n-]c2[O-])cc(C)n1CCCN1CCOCC1 (3D coordinates assigned)
C=c1/c(=C/c2[n-]c(=O)[n-]c2[O-])cc(C)n1CCCN1CCOCC1 (nonaromatic ring conformer: 117.13067628821845 kcal/mol)

> <smiles>
C=c1c(=Cc2[nH]c(=O)[nH]c2O)cc(C)n1CCCN1CCOCC1

> <score_type>
oracle

> <origin>
adg

> <m_score__min__energy>
-15.23

> <m_primary>
energy

> <minimizedAffinity>
-7.37819

> <minimizedRMSD>
1.85617

> <CNNscore>
0.1192606613

> <CNNaffinity>
5.7702121735

> <CNN_VS>
0.6881593466

> <CNNaffinity_variance>
0.2491289526

$$$$
49:0


 30 33  0  0  0  0  0  0  0  0999 V2000
   62.8205   32.4169   48.1154 N   0  0  0  0  0  0  0  0  0  0  0  0
   62.8907   32.2816   49.4058 C   0  0  0  0  0  0  0  0  0  0  0  0
   61.7541   32.3623   50.1459 N   0  0  0  0  0  0  0  0  0  0  0  0
   61.7796   32.2085   51.4961 C   0  0  0  0  0  0  0  0  0  0  0  0
   62.9995   31.9964   52.1450 C   0  0  0  0  0  0  0  0  0  0  0  0
   64.1557   31.9128   51.3724 C   0  0  0  0  0  0  0  0  0  0  0  0
   64.0828   32.0539   50.0240 N   0  0  0  0  0  0  0  0  0  0  0  0
   60.5343   32.3109   52.2660 C   0  0  0  0  0  0  0  0  0  0  0  0
   59.5080   31.3853   52.3943 C   0  0  0  0  0  0  0  0  0  0  0  0
   58.5741   31.8927   53.2219 N   0  0  0  0  0  0  0  0  0  0  0  0
   58.9623   33.0967   53.6180 N   0  0  0  0  0  0  0  0  0  0  0  0
   60.1542   33.3726   53.0553 C   0  0  0  0  0  0  0  0  0  0  0  0
   59.4156   29.9954   51.8072 C   0  0  0  0  0  0  0  0  0  0  0  0
   60.6755   29.1616   52.0651 C   0  0  0  0  0  0  0  0  0  0  0  0
   60.9149   28.3710   50.7926 C   0  0  0  0  0  0  0  0  0  0  0  0
   60.3409   29.2206   49.6740 C   0  0  0  0  0  0  0  0  0  0  0  0
   59.1778   29.9865   50.2903 C   0  0  0  0  0  0  0  0  0  0  0  0
   62.1518   33.5191   47.4238 C   0  0  0  0  0  0  0  0  0  0  0  0
   58.3660   32.2308   45.7840 C   0  0  0  0  0  0  0  0  0  0  0  0
   58.8040   33.5570   45.6104 C   0  0  0  0  0  0  0  0  0  0  0  0
   60.0240   33.9725   46.1513 C   0  0  0  0  0  0  0  0  0  0  0  0
   60.8253   33.0718   46.8682 C   0  0  0  0  0  0  0  0  0  0  0  0
   60.3850   31.7504   47.0440 C   0  0  0  0  0  0  0  0  0  0  0  0
   59.1642   31.3376   46.5078 C   0  0  0  0  0  0  0  0  0  0  0  0
   57.1239   31.7614   45.2422 N   0  0  0  0  0  0  0  0  0  0  0  0
   55.4471   29.5541   44.6633 N   0  0  0  0  0  0  0  0  0  0  0  0
   56.9334   30.3424   44.2663 S   0  0  0  0  0  0  0  0  0  0  0  0
   58.0888   29.4077   44.4944 O   0  0  0  0  0  0  0  0  0  0  0  0
   56.9048   30.7437   42.8181 O   0  0  0  0  0  0  0  0  0  0  0  0
   55.3400   28.7199   44.0863 H   0  0  0  0  0  0  0  0  0  0  0  0
 26 27  1  0
 27 28  2  0
 27 29  2  0
 27 25  1  0
 25 19  1  0
 19 20  2  0
 20 21  1  0
 21 22  2  0
 22 18  1  0
 18  1  1  0
  1  2  2  0
  2  3  1  0
  3  4  2  0
  4  8  1  0
  8  9  1  0
  9 13  1  0
 13 14  1  0
 14 15  1  0
 15 16  1  0
 16 17  1  0
  9 10  2  0
 10 11  1  0
 11 12  1  0
  4  5  1  0
  5  6  2  0
  6  7  1  0
 22 23  1  0
 23 24  2  0
 24 19  1  0
  7  2  1  0
 12  8  2  0
 17 13  1  0
 26 30  1  0
M  CHG 1   7  -1
M  CHG 1  11  -1
M  CHG 1  25  -1
M  CHG 1  26  -1
M  END
> <UniqueID>
45

> <SMILES>
[NH-]S(=O)(=O)[N-]c1ccc(C/N=c2/nc(-c3c[n-]nc3C3CCCC3)cc[n-]2)cc1

> <Energy>
89.39783231943484

> <Genealogy>
[NH-]S(=O)(=O)[N-]c1ccc(CN=c2nc(-c3c[n-]nc3C3CCCC3)cc[n-]2)cc1 (protonated)
[NH-]S(=O)(=O)[N-]c1ccc(C/N=c2/nc(-c3c[n-]nc3C3CCCC3)cc[n-]2)cc1 (cis-trans isomerization)
[NH-]S(=O)(=O)[N-]c1ccc(C/N=c2/nc(-c3c[n-]nc3C3CCCC3)cc[n-]2)cc1 (3D coordinates assigned)
[NH-]S(=O)(=O)[N-]c1ccc(C/N=c2/nc(-c3c[n-]nc3C3CCCC3)cc[n-]2)cc1 (nonaromatic ring conformer: 89.39783231943484 kcal/mol)

> <smiles>
NS(=O)(=O)Nc1ccc(CN=c2nc(-c3c[nH]nc3C3CCCC3)cc[nH]2)cc1

> <score_type>
oracle

> <origin>
adg

> <m_score__min__energy>
-15.52

> <m_primary>
energy

> <minimizedAffinity>
-8.28917

> <minimizedRMSD>
2.60882

> <CNNscore>
0.4339703918

> <CNNaffinity>
6.5820846558

> <CNN_VS>
2.8564298153

> <CNNaffinity_variance>
0.1425409466

$$$$
62:0


 31 34  0  0  0  0  0  0  0  0999 V2000
   60.3476   29.3830   49.0124 C   0  0  0  0  0  0  0  0  0  0  0  0
   59.8293   30.2592   48.1380 C   0  0  0  0  0  0  0  0  0  0  0  0
   59.7007   30.1104   46.7460 C   0  0  0  0  0  0  0  0  0  0  0  0
   59.9249   29.0513   45.9438 C   0  0  0  0  0  0  0  0  0  0  0  0
   59.2362   31.3248   46.2665 C   0  0  0  0  0  0  0  0  0  0  0  0
   59.0659   32.1490   47.3597 C   0  0  0  0  0  0  0  0  0  0  0  0
   58.5128   33.5397   47.2976 C   0  0  0  0  0  0  0  0  0  0  0  0
   59.4037   31.4983   48.4940 N   0  0  0  0  0  0  0  0  0  0  0  0
   59.1076   27.8240   45.8928 C   0  0  0  0  0  0  0  0  0  0  0  0
   57.7677   27.8825   45.4849 C   0  0  0  0  0  0  0  0  0  0  0  0
   57.2043   29.0855   45.0738 O   0  0  0  0  0  0  0  0  0  0  0  0
   57.0098   26.7547   45.4811 N   0  0  0  0  0  0  0  0  0  0  0  0
   57.5242   25.5640   45.8824 C   0  0  0  0  0  0  0  0  0  0  0  0
   56.8049   24.5313   45.8662 O   0  0  0  0  0  0  0  0  0  0  0  0
   58.8120   25.4863   46.3070 N   0  0  0  0  0  0  0  0  0  0  0  0
   59.6099   26.5849   46.3303 C   0  0  0  0  0  0  0  0  0  0  0  0
   60.7933   26.4820   46.7497 O   0  0  0  0  0  0  0  0  0  0  0  0
   59.3802   32.0604   49.8194 C   0  0  0  0  0  0  0  0  0  0  0  0
   58.2546   31.8433   50.6268 C   0  0  0  0  0  0  0  0  0  0  0  0
   58.2129   32.3398   51.9292 C   0  0  0  0  0  0  0  0  0  0  0  0
   59.2960   33.0557   52.4360 C   0  0  0  0  0  0  0  0  0  0  0  0
   60.4237   33.2802   51.6430 C   0  0  0  0  0  0  0  0  0  0  0  0
   60.4873   32.7839   50.3263 C   0  0  0  0  0  0  0  0  0  0  0  0
   61.6800   33.0423   49.4668 C   0  0  0  0  0  0  0  0  0  0  0  0
   61.6755   34.0797   48.7470 O   0  0  0  0  0  0  0  0  0  0  0  0
   62.8540   32.1869   49.4333 N   0  0  0  0  0  0  0  0  0  0  0  0
   62.9604   31.2197   50.5484 C   0  0  0  0  0  0  0  0  0  0  0  0
   64.3022   31.4396   51.2316 C   0  0  0  0  0  0  0  0  0  0  0  0
   65.1226   32.2382   50.2428 C   0  0  0  0  0  0  0  0  0  0  0  0
   64.1025   32.9669   49.3868 C   0  0  0  0  0  0  0  0  0  0  0  0
   63.6513   32.7324   49.2438 H   0  0  0  0  0  0  0  0  0  0  0  0
  1  2  2  0
  2  3  1  0
  3  4  2  0
  4  9  1  0
  9 10  2  0
 10 11  1  0
 10 12  1  0
 12 13  1  0
 13 14  2  0
 13 15  1  0
 15 16  1  0
 16 17  2  0
  3  5  1  0
  5  6  2  0
  6  7  1  0
  6  8  1  0
  8 18  1  0
 18 19  2  0
 19 20  1  0
 20 21  2  0
 21 22  1  0
 22 23  2  0
 23 24  1  0
 24 25  2  0
 24 26  1  0
 26 27  1  0
 27 28  1  0
 28 29  1  0
 29 30  1  0
  8  2  1  0
 23 18  1  0
 30 26  1  0
 16  9  1  0
 26 31  1  0
M  CHG 1  11  -1
M  CHG 1  12  -1
M  CHG 1  15  -1
M  CHG 1  26   1
M  END
> <UniqueID>
58

> <SMILES>
C=c1c(=Cc2c([O-])[n-]c(=O)[n-]c2=O)cc(C)n1-c1ccccc1C(=O)[NH+]1CCCC1

> <Energy>
114.03210516818886

> <Genealogy>
C=c1c(=Cc2c([O-])[n-]c(=O)[n-]c2=O)cc(C)n1-c1ccccc1C(=O)[NH+]1CCCC1 (protonated)
C=c1c(=Cc2c([O-])[n-]c(=O)[n-]c2=O)cc(C)n1-c1ccccc1C(=O)[NH+]1CCCC1 (3D coordinates assigned)
C=c1c(=Cc2c([O-])[n-]c(=O)[n-]c2=O)cc(C)n1-c1ccccc1C(=O)[NH+]1CCCC1 (nonaromatic ring conformer: 114.03210516818886 kcal/mol)

> <smiles>
C=c1c(=Cc2c(O)[nH]c(=O)[nH]c2=O)cc(C)n1-c1ccccc1C(=O)N1CCCC1

> <score_type>
oracle

> <origin>
adg

> <m_score__min__energy>
-15.42

> <m_primary>
energy

> <minimizedAffinity>
-8.35422

> <minimizedRMSD>
2.03349

> <CNNscore>
0.4963935614

> <CNNaffinity>
7.2952022552

> <CNN_VS>
3.6212913990

> <CNNaffinity_variance>
0.3385562003

$$$$
72:0


 31 34  0  0  0  0  0  0  0  0999 V2000
   61.6322   29.7470   46.0713 O   0  0  0  0  0  0  0  0  0  0  0  0
   60.7523   30.4336   46.9093 C   0  0  0  0  0  0  0  0  0  0  0  0
   61.2689   31.3788   47.8008 C   0  0  0  0  0  0  0  0  0  0  0  0
   60.4225   32.0736   48.6803 C   0  0  0  0  0  0  0  0  0  0  0  0
   59.0412   31.8303   48.6352 C   0  0  0  0  0  0  0  0  0  0  0  0
   58.5178   30.8916   47.7423 C   0  0  0  0  0  0  0  0  0  0  0  0
   59.3654   30.1888   46.8768 C   0  0  0  0  0  0  0  0  0  0  0  0
   62.5513   29.9257   46.1096 H   0  0  0  0  0  0  0  0  0  0  0  0
   60.9731   33.0738   49.6221 C   0  0  0  0  0  0  0  0  0  0  0  0
   60.4869   34.2380   49.6344 O   0  0  0  0  0  0  0  0  0  0  0  0
   62.0581   32.7505   50.5116 N   0  0  0  0  0  0  0  0  0  0  0  0
   63.0537   33.7900   50.8088 C   0  0  0  0  0  0  0  0  0  0  0  0
   64.1790   33.2714   51.7035 C   0  0  0  0  0  0  0  0  0  0  0  0
   64.8468   31.7227   51.0181 S   0  0  0  0  0  0  0  0  0  0  0  0
   63.3223   30.7123   51.1886 C   0  0  0  0  0  0  0  0  0  0  0  0
   62.0166   31.5157   51.3101 C   0  0  0  0  0  0  0  0  0  0  0  0
   58.8047   29.2384   45.9562 N   0  0  0  0  0  0  0  0  0  0  0  0
   58.2407   29.5353   44.7681 C   0  0  0  0  0  0  0  0  0  0  0  0
   58.1336   30.9157   44.1964 C   0  0  0  0  0  0  0  0  0  0  0  0
   57.7924   28.3856   44.1479 C   0  0  0  0  0  0  0  0  0  0  0  0
   58.0831   27.3268   45.0058 C   0  0  0  0  0  0  0  0  0  0  0  0
   57.8054   26.0194   44.8154 C   0  0  0  0  0  0  0  0  0  0  0  0
   58.7094   27.8966   46.1225 C   0  0  0  0  0  0  0  0  0  0  0  0
   59.1734   27.2481   47.2024 C   0  0  0  0  0  0  0  0  0  0  0  0
   57.2392   25.1004   45.8274 C   0  0  0  0  0  0  0  0  0  0  0  0
   57.8767   24.0614   46.3981 N   0  0  0  0  0  0  0  0  0  0  0  0
   56.9675   23.5714   47.2687 C   0  0  0  0  0  0  0  0  0  0  0  0
   57.1986   22.5748   48.0016 O   0  0  0  0  0  0  0  0  0  0  0  0
   55.7944   24.2377   47.2957 N   0  0  0  0  0  0  0  0  0  0  0  0
   55.9837   25.2024   46.3811 C   0  0  0  0  0  0  0  0  0  0  0  0
   55.0283   26.1578   46.0584 O   0  0  0  0  0  0  0  0  0  0  0  0
  1  2  1  0
  2  3  2  0
  3  4  1  0
  4  9  1  0
  9 10  2  0
  9 11  1  0
 11 12  1  0
 12 13  1  0
 13 14  1  0
 14 15  1  0
 15 16  1  0
  4  5  2  0
  5  6  1  0
  6  7  2  0
  7 17  1  0
 17 18  1  0
 18 19  1  0
 18 20  2  0
 20 21  1  0
 21 22  2  0
 22 25  1  0
 25 26  1  0
 26 27  1  0
 27 28  2  0
 27 29  1  0
 29 30  1  0
 30 31  1  0
 21 23  1  0
 23 24  2  0
  7  2  1  0
 23 17  1  0
 16 11  1  0
 30 25  2  0
  1  8  1  0
M  CHG 1  26  -1
M  CHG 1  29  -1
M  CHG 1  31  -1
M  END
> <UniqueID>
67

> <SMILES>
C=c1/c(=C/c2[n-]c(=O)[n-]c2[O-])cc(C)n1-c1ccc(C(=O)N2CCSCC2)cc1O

> <Energy>
126.44806432794533

> <Genealogy>
C=c1c(=Cc2[n-]c(=O)[n-]c2[O-])cc(C)n1-c1ccc(C(=O)N2CCSCC2)cc1O (protonated)
C=c1/c(=C/c2[n-]c(=O)[n-]c2[O-])cc(C)n1-c1ccc(C(=O)N2CCSCC2)cc1O (cis-trans isomerization)
C=c1/c(=C/c2[n-]c(=O)[n-]c2[O-])cc(C)n1-c1ccc(C(=O)N2CCSCC2)cc1O (3D coordinates assigned)
C=c1/c(=C/c2[n-]c(=O)[n-]c2[O-])cc(C)n1-c1ccc(C(=O)N2CCSCC2)cc1O (nonaromatic ring conformer: 126.44806432794533 kcal/mol)

> <smiles>
C=c1c(=Cc2[nH]c(=O)[nH]c2O)cc(C)n1-c1ccc(C(=O)N2CCSCC2)cc1O

> <score_type>
oracle

> <origin>
adg

> <m_score__min__energy>
-15.81

> <m_primary>
energy

> <minimizedAffinity>
-7.02090

> <minimizedRMSD>
0.95426

> <CNNscore>
0.0528132245

> <CNNaffinity>
6.2156066895

> <CNN_VS>
0.3282662332

> <CNNaffinity_variance>
0.0410047434

$$$$
5:0


 33 36  0  0  0  0  0  0  0  0999 V2000
   59.4898   30.4528   49.3046 C   0  0  0  0  0  0  0  0  0  0  0  0
   59.3470   29.8731   48.0339 C   0  0  0  0  0  0  0  0  0  0  0  0
   59.9135   28.6203   47.7544 C   0  0  0  0  0  0  0  0  0  0  0  0
   60.5566   27.9103   48.7775 C   0  0  0  0  0  0  0  0  0  0  0  0
   60.6846   28.4723   50.0493 C   0  0  0  0  0  0  0  0  0  0  0  0
   60.1643   29.7417   50.3151 C   0  0  0  0  0  0  0  0  0  0  0  0
   60.2902   30.2576   51.5629 F   0  0  0  0  0  0  0  0  0  0  0  0
   59.8114   27.9449   46.1264 S   0  0  0  0  0  0  0  0  0  0  0  0
   60.5084   28.8730   45.1712 O   0  0  0  0  0  0  0  0  0  0  0  0
   60.5530   26.6375   46.1141 O   0  0  0  0  0  0  0  0  0  0  0  0
   58.1683   27.6513   45.5837 N   0  0  0  0  0  0  0  0  0  0  0  0
   58.0719   26.9053   44.3139 C   0  0  0  0  0  0  0  0  0  0  0  0
   58.1284   25.3791   44.4874 C   0  0  0  0  0  0  0  0  0  0  0  0
   57.2976   24.9383   45.6063 N   0  0  0  0  0  0  0  0  0  0  0  0
   57.3846   25.6625   46.8727 C   0  0  0  0  0  0  0  0  0  0  0  0
   57.2515   27.1646   46.6305 C   0  0  0  0  0  0  0  0  0  0  0  0
   56.8220   23.5860   45.6033 C   0  0  0  0  0  0  0  0  0  0  0  0
   57.7344   22.5353   45.4291 C   0  0  0  0  0  0  0  0  0  0  0  0
   57.2955   21.2094   45.4589 C   0  0  0  0  0  0  0  0  0  0  0  0
   55.9438   20.9244   45.6714 C   0  0  0  0  0  0  0  0  0  0  0  0
   55.0278   21.9665   45.8527 C   0  0  0  0  0  0  0  0  0  0  0  0
   55.4617   23.2963   45.8221 C   0  0  0  0  0  0  0  0  0  0  0  0
   54.5457   24.3191   46.0346 O   0  0  0  0  0  0  0  0  0  0  0  0
   58.9261   31.7955   49.5694 C   0  0  0  0  0  0  0  0  0  0  0  0
   58.0883   31.9410   50.4980 O   0  0  0  0  0  0  0  0  0  0  0  0
   57.4087   33.5309   45.8782 C   0  0  0  0  0  0  0  0  0  0  0  0
   57.7449   33.2498   47.1651 N   0  0  0  0  0  0  0  0  0  0  0  0
   59.0447   33.1940   47.5774 C   0  0  0  0  0  0  0  0  0  0  0  0
   59.3410   32.9506   48.8223 N   0  0  0  0  0  0  0  0  0  0  0  0
   60.0718   33.4415   46.6544 C   0  0  0  0  0  0  0  0  0  0  0  0
   61.4047   33.4130   47.0482 O   0  0  0  0  0  0  0  0  0  0  0  0
   59.7440   33.7197   45.3244 C   0  0  0  0  0  0  0  0  0  0  0  0
   58.4063   33.7669   44.9309 C   0  0  0  0  0  0  0  0  0  0  0  0
 26 27  1  0
 27 28  1  0
 28 29  2  0
 29 24  1  0
 24 25  2  0
 24  1  1  0
  1  2  2  0
  2  3  1  0
  3  8  1  0
  8  9  2  0
  8 10  2  0
  8 11  1  0
 11 12  1  0
 12 13  1  0
 13 14  1  0
 14 17  1  0
 17 18  2  0
 18 19  1  0
 19 20  2  0
 20 21  1  0
 21 22  2  0
 22 23  1  0
 14 15  1  0
 15 16  1  0
  3  4  2  0
  4  5  1  0
  5  6  2  0
  6  7  1  0
 28 30  1  0
 30 31  1  0
 30 32  2  0
 32 33  1  0
 33 26  2  0
  6  1  1  0
 16 11  1  0
 22 17  1  0
M  CHG 1  23  -1
M  CHG 1  27  -1
M  CHG 1  31  -1
M  END
> <UniqueID>
6

> <SMILES>
O=C(/N=c1\[n-]cccc1[O-])c1cc(S(=O)(=O)N2CCN(c3ccccc3[O-])CC2)ccc1F

> <Energy>
71.98286988007749

> <Genealogy>
O=C(N=c1[n-]cccc1[O-])c1cc(S(=O)(=O)N2CCN(c3ccccc3[O-])CC2)ccc1F (protonated)
O=C(/N=c1\[n-]cccc1[O-])c1cc(S(=O)(=O)N2CCN(c3ccccc3[O-])CC2)ccc1F (cis-trans isomerization)
O=C(/N=c1\[n-]cccc1[O-])c1cc(S(=O)(=O)N2CCN(c3ccccc3[O-])CC2)ccc1F (3D coordinates assigned)
O=C(/N=c1\[n-]cccc1[O-])c1cc(S(=O)(=O)N2CCN(c3ccccc3[O-])CC2)ccc1F (nonaromatic ring conformer: 71.98286988007749 kcal/mol)

> <smiles>
O=C(N=c1[nH]cccc1O)c1cc(S(=O)(=O)N2CCN(c3ccccc3O)CC2)ccc1F

> <score_type>
oracle

> <origin>
adg

> <m_score__min__energy>
-15.6

> <m_primary>
energy

> <minimizedAffinity>
-8.08819

> <minimizedRMSD>
1.59459

> <CNNscore>
0.2091544271

> <CNNaffinity>
6.2590413094

> <CNN_VS>
1.3091062307

> <CNNaffinity_variance>
0.0721218958

$$$$
7:0


 31 33  0  0  0  0  0  0  0  0999 V2000
   58.2455   28.5655   46.0095 C   0  0  0  0  0  0  0  0  0  0  0  0
   57.4963   27.3807   46.0242 C   0  0  0  0  0  0  0  0  0  0  0  0
   58.1263   26.1405   46.1865 C   0  0  0  0  0  0  0  0  0  0  0  0
   59.5175   26.0874   46.3484 C   0  0  0  0  0  0  0  0  0  0  0  0
   60.2678   27.2649   46.3692 C   0  0  0  0  0  0  0  0  0  0  0  0
   59.6387   28.5044   46.2142 C   0  0  0  0  0  0  0  0  0  0  0  0
   60.4003   29.6639   46.2977 O   0  0  0  0  0  0  0  0  0  0  0  0
   57.1629   24.6668   46.1473 S   0  0  0  0  0  0  0  0  0  0  0  0
   57.3530   23.8966   47.4249 O   0  0  0  0  0  0  0  0  0  0  0  0
   55.7139   25.0496   46.0271 O   0  0  0  0  0  0  0  0  0  0  0  0
   57.6543   23.7059   44.7682 N   0  0  0  0  0  0  0  0  0  0  0  0
   57.8236   22.2786   45.1212 C   0  0  0  0  0  0  0  0  0  0  0  0
   56.6069   21.4208   44.7311 C   0  0  0  0  0  0  0  0  0  0  0  0
   55.4218   22.1799   44.8252 O   0  0  0  0  0  0  0  0  0  0  0  0
   55.3950   23.1731   43.8149 C   0  0  0  0  0  0  0  0  0  0  0  0
   56.7489   23.8952   43.6206 C   0  0  0  0  0  0  0  0  0  0  0  0
   57.5561   29.8114   45.8502 N   0  0  0  0  0  0  0  0  0  0  0  0
   55.6807   29.7443   44.4507 O   0  0  0  0  0  0  0  0  0  0  0  0
   56.8300   30.2082   44.6811 C   0  0  0  0  0  0  0  0  0  0  0  0
   57.4357   31.1920   43.7327 C   0  0  0  0  0  0  0  0  0  0  0  0
   58.4803   31.9579   44.4021 N   0  0  0  0  0  0  0  0  0  0  0  0
   58.2216   32.9100   45.4414 C   0  0  0  0  0  0  0  0  0  0  0  0
   57.1569   33.5843   45.4274 O   0  0  0  0  0  0  0  0  0  0  0  0
   59.2386   33.1427   46.4903 C   0  0  0  0  0  0  0  0  0  0  0  0
   60.2428   34.0988   46.2518 C   0  0  0  0  0  0  0  0  0  0  0  0
   61.1840   34.4052   47.2378 C   0  0  0  0  0  0  0  0  0  0  0  0
   61.1346   33.7615   48.4735 C   0  0  0  0  0  0  0  0  0  0  0  0
   60.1589   32.7961   48.7207 C   0  0  0  0  0  0  0  0  0  0  0  0
   59.2189   32.4623   47.7354 C   0  0  0  0  0  0  0  0  0  0  0  0
   58.3143   31.4363   48.0184 O   0  0  0  0  0  0  0  0  0  0  0  0
   58.3338   31.0116   48.8534 H   0  0  0  0  0  0  0  0  0  0  0  0
 18 19  2  0
 19 20  1  0
 20 21  1  0
 21 22  1  0
 22 23  2  0
 22 24  1  0
 24 25  2  0
 25 26  1  0
 26 27  2  0
 27 28  1  0
 28 29  2  0
 29 30  1  0
 19 17  1  0
 17  1  1  0
  1  2  2  0
  2  3  1  0
  3  8  1  0
  8  9  2  0
  8 10  2  0
  8 11  1  0
 11 12  1  0
 12 13  1  0
 13 14  1  0
 14 15  1  0
 15 16  1  0
  3  4  2  0
  4  5  1  0
  5  6  2  0
  6  7  1  0
 29 24  1  0
  6  1  1  0
 16 11  1  0
 30 31  1  0
M  CHG 1   7  -1
M  CHG 1  17  -1
M  CHG 1  21  -1
M  END
> <UniqueID>
8

> <SMILES>
O=C(C[N-]C(=O)c1ccccc1O)[N-]c1cc(S(=O)(=O)N2CCOCC2)ccc1[O-]

> <Energy>
67.83489381930539

> <Genealogy>
O=C(C[N-]C(=O)c1ccccc1O)[N-]c1cc(S(=O)(=O)N2CCOCC2)ccc1[O-] (protonated)
O=C(C[N-]C(=O)c1ccccc1O)[N-]c1cc(S(=O)(=O)N2CCOCC2)ccc1[O-] (3D coordinates assigned)
O=C(C[N-]C(=O)c1ccccc1O)[N-]c1cc(S(=O)(=O)N2CCOCC2)ccc1[O-] (nonaromatic ring conformer: 67.83489381930539 kcal/mol)

> <smiles>
O=C(CNC(=O)c1ccccc1O)Nc1cc(S(=O)(=O)N2CCOCC2)ccc1O

> <score_type>
oracle

> <origin>
adg

> <m_score__min__energy>
-14.35

> <m_primary>
energy

> <minimizedAffinity>
-7.86016

> <minimizedRMSD>
1.29952

> <CNNscore>
0.4925053418

> <CNNaffinity>
6.2850270271

> <CNN_VS>
3.0954093933

> <CNNaffinity_variance>
0.0019115843

$$$$
25:0


 27 29  0  0  0  0  0  0  0  0999 V2000
   56.3111   28.7069   45.0965 O   0  0  0  0  0  0  0  0  0  0  0  0
   57.0543   27.7398   45.7680 C   0  0  0  0  0  0  0  0  0  0  0  0
   58.3548   27.8692   46.2183 C   0  0  0  0  0  0  0  0  0  0  0  0
   58.6697   26.6717   46.8412 C   0  0  0  0  0  0  0  0  0  0  0  0
   57.6098   25.8361   46.7968 N   0  0  0  0  0  0  0  0  0  0  0  0
   56.6244   26.4888   46.1472 C   0  0  0  0  0  0  0  0  0  0  0  0
   55.3511   25.9734   45.9328 O   0  0  0  0  0  0  0  0  0  0  0  0
   56.6999   29.5323   44.8834 H   0  0  0  0  0  0  0  0  0  0  0  0
   59.2024   29.0763   46.1665 C   0  0  0  0  0  0  0  0  0  0  0  0
   60.3360   29.0218   45.6204 O   0  0  0  0  0  0  0  0  0  0  0  0
   58.7917   30.2925   46.8053 N   0  0  0  0  0  0  0  0  0  0  0  0
   58.9190   31.5171   46.3711 C   0  0  0  0  0  0  0  0  0  0  0  0
   59.9923   32.2353   46.8033 N   0  0  0  0  0  0  0  0  0  0  0  0
   60.2071   33.5267   46.4394 C   0  0  0  0  0  0  0  0  0  0  0  0
   59.3113   34.1690   45.5871 C   0  0  0  0  0  0  0  0  0  0  0  0
   58.2122   33.4650   45.1001 C   0  0  0  0  0  0  0  0  0  0  0  0
   58.0130   32.1306   45.4636 C   0  0  0  0  0  0  0  0  0  0  0  0
   56.9569   31.4389   44.8826 O   0  0  0  0  0  0  0  0  0  0  0  0
   57.5034   24.5632   47.5060 C   0  0  0  0  0  0  0  0  0  0  0  0
   57.3421   23.4471   46.5086 C   0  0  0  0  0  0  0  0  0  0  0  0
   58.2187   23.3420   45.4189 C   0  0  0  0  0  0  0  0  0  0  0  0
   58.0102   22.3668   44.4420 C   0  0  0  0  0  0  0  0  0  0  0  0
   56.9176   21.4999   44.5364 C   0  0  0  0  0  0  0  0  0  0  0  0
   56.0247   21.5982   45.6084 C   0  0  0  0  0  0  0  0  0  0  0  0
   56.2421   22.5776   46.5981 C   0  0  0  0  0  0  0  0  0  0  0  0
   54.9345   20.7162   45.6509 O   0  0  0  0  0  0  0  0  0  0  0  0
   53.9797   20.6693   46.7069 C   0  0  0  0  0  0  0  0  0  0  0  0
  1  2  1  0
  2  3  1  0
  3  9  1  0
  9 10  2  0
  9 11  1  0
 11 12  2  0
 12 13  1  0
 13 14  1  0
 14 15  2  0
 15 16  1  0
 16 17  2  0
 17 18  1  0
  3  4  2  0
  4  5  1  0
  5 19  1  0
 19 20  1  0
 20 21  2  0
 21 22  1  0
 22 23  2  0
 23 24  1  0
 24 26  1  0
 26 27  1  0
 24 25  2  0
  5  6  1  0
  6  7  1  0
  6  2  2  0
 17 12  1  0
 25 20  1  0
  1  8  1  0
M  CHG 1   7  -1
M  CHG 1  13  -1
M  CHG 1  18  -1
M  END
> <UniqueID>
26

> <SMILES>
COc1cccc(Cn2cc(C(=O)/N=c3/[n-]cccc3[O-])c(O)c2[O-])c1

> <Energy>
79.54141895594736

> <Genealogy>
COc1cccc(Cn2cc(C(=O)N=c3[n-]cccc3[O-])c(O)c2[O-])c1 (protonated)
COc1cccc(Cn2cc(C(=O)/N=c3/[n-]cccc3[O-])c(O)c2[O-])c1 (cis-trans isomerization)
COc1cccc(Cn2cc(C(=O)/N=c3/[n-]cccc3[O-])c(O)c2[O-])c1 (3D coordinates assigned)
COc1cccc(Cn2cc(C(=O)/N=c3/[n-]cccc3[O-])c(O)c2[O-])c1 (optimized conformer: 79.54141895594736 kcal/mol)

> <smiles>
COc1cccc(Cn2cc(C(=O)N=c3[nH]cccc3O)c(O)c2O)c1

> <score_type>
oracle

> <origin>
adg

> <m_score__min__energy>
-14.470000000000001

> <m_primary>
energy

> <minimizedAffinity>
-8.19979

> <minimizedRMSD>
1.36606

> <CNNscore>
0.4466090202

> <CNNaffinity>
6.0307350159

> <CNN_VS>
2.6933805943

> <CNNaffinity_variance>
0.0148883713

$$$$
39:0


 29 32  0  0  0  0  0  0  0  0999 V2000
   60.9714   28.8435   45.0370 C   0  0  0  0  0  0  0  0  0  0  0  0
   60.4508   28.5711   46.2419 C   0  0  0  0  0  0  0  0  0  0  0  0
   59.8918   27.3585   46.6557 C   0  0  0  0  0  0  0  0  0  0  0  0
   59.7003   26.2530   45.9108 C   0  0  0  0  0  0  0  0  0  0  0  0
   59.5147   27.5353   47.9831 C   0  0  0  0  0  0  0  0  0  0  0  0
   59.8654   28.8263   48.3242 C   0  0  0  0  0  0  0  0  0  0  0  0
   59.6036   29.4677   49.6525 C   0  0  0  0  0  0  0  0  0  0  0  0
   60.4165   29.4576   47.2664 N   0  0  0  0  0  0  0  0  0  0  0  0
   58.5440   25.3498   46.0565 C   0  0  0  0  0  0  0  0  0  0  0  0
   58.6635   24.0296   46.2786 N   0  0  0  0  0  0  0  0  0  0  0  0
   57.3872   23.6180   46.4291 C   0  0  0  0  0  0  0  0  0  0  0  0
   57.0813   22.4157   46.6432 O   0  0  0  0  0  0  0  0  0  0  0  0
   56.4628   24.5986   46.3417 N   0  0  0  0  0  0  0  0  0  0  0  0
   57.2107   25.6908   46.1194 C   0  0  0  0  0  0  0  0  0  0  0  0
   56.6859   26.9739   46.0230 O   0  0  0  0  0  0  0  0  0  0  0  0
   60.9029   30.8084   47.2643 C   0  0  0  0  0  0  0  0  0  0  0  0
   62.1473   31.0672   47.7598 N   0  0  0  0  0  0  0  0  0  0  0  0
   62.6669   32.3231   47.7742 C   0  0  0  0  0  0  0  0  0  0  0  0
   61.9272   33.3918   47.2728 C   0  0  0  0  0  0  0  0  0  0  0  0
   60.6498   33.1626   46.7657 C   0  0  0  0  0  0  0  0  0  0  0  0
   60.1139   31.8675   46.7640 C   0  0  0  0  0  0  0  0  0  0  0  0
   62.6842   30.3232   48.1169 H   0  0  0  0  0  0  0  0  0  0  0  0
   58.4812   31.6084   46.1350 S   0  0  0  0  0  0  0  0  0  0  0  0
   57.7010   32.8962   46.1693 O   0  0  0  0  0  0  0  0  0  0  0  0
   57.7851   30.5847   46.9849 O   0  0  0  0  0  0  0  0  0  0  0  0
   58.5749   31.0190   44.4896 N   0  0  0  0  0  0  0  0  0  0  0  0
   57.7100   31.8050   43.6017 C   0  0  0  0  0  0  0  0  0  0  0  0
   56.7490   30.6548   43.3810 C   0  0  0  0  0  0  0  0  0  0  0  0
   57.6751   29.8750   44.2910 C   0  0  0  0  0  0  0  0  0  0  0  0
  1  2  2  0
  2  3  1  0
  3  4  2  0
  4  9  1  0
  9 10  1  0
 10 11  1  0
 11 12  2  0
 11 13  1  0
 13 14  1  0
 14 15  1  0
  3  5  1  0
  5  6  2  0
  6  7  1  0
  6  8  1  0
  8 16  1  0
 16 17  2  0
 17 18  1  0
 18 19  2  0
 19 20  1  0
 20 21  2  0
 21 23  1  0
 23 24  2  0
 23 25  2  0
 23 26  1  0
 26 27  1  0
 27 28  1  0
 28 29  1  0
  8  2  1  0
 21 16  1  0
 29 26  1  0
 14  9  2  0
 17 22  1  0
M  CHG 1  10  -1
M  CHG 1  13  -1
M  CHG 1  15  -1
M  CHG 1  17   1
M  END
> <UniqueID>
39

> <SMILES>
C=c1c(=Cc2[n-]c(=O)[n-]c2[O-])cc(C)n1-c1[nH+]cccc1S(=O)(=O)N1CCC1

> <Energy>
186.32459827154383

> <Genealogy>
C=c1c(=Cc2[n-]c(=O)[n-]c2[O-])cc(C)n1-c1[nH+]cccc1S(=O)(=O)N1CCC1 (protonated)
C=c1c(=Cc2[n-]c(=O)[n-]c2[O-])cc(C)n1-c1[nH+]cccc1S(=O)(=O)N1CCC1 (3D coordinates assigned)
C=c1c(=Cc2[n-]c(=O)[n-]c2[O-])cc(C)n1-c1[nH+]cccc1S(=O)(=O)N1CCC1 (nonaromatic ring conformer: 186.32459827154383 kcal/mol)

> <smiles>
C=c1c(=Cc2[nH]c(=O)[nH]c2O)cc(C)n1-c1ncccc1S(=O)(=O)N1CCC1

> <score_type>
oracle

> <origin>
adg

> <m_score__min__energy>
-14.35

> <m_primary>
energy

> <minimizedAffinity>
-6.89700

> <minimizedRMSD>
1.48661

> <CNNscore>
0.3238106370

> <CNNaffinity>
6.6050949097

> <CNN_VS>
2.1387999058

> <CNNaffinity_variance>
0.0623185597

$$$$
47:0


 34 37  0  0  0  0  0  0  0  0999 V2000
   59.8770   26.2419   47.2269 C   0  0  0  0  0  0  0  0  0  0  0  0
   59.0900   27.0529   46.5024 C   0  0  0  0  0  0  0  0  0  0  0  0
   58.3412   26.7181   45.3597 C   0  0  0  0  0  0  0  0  0  0  0  0
   58.0761   25.5266   44.7887 C   0  0  0  0  0  0  0  0  0  0  0  0
   57.8542   27.9120   44.8534 C   0  0  0  0  0  0  0  0  0  0  0  0
   58.2621   28.9090   45.7146 C   0  0  0  0  0  0  0  0  0  0  0  0
   57.9432   30.3634   45.5435 C   0  0  0  0  0  0  0  0  0  0  0  0
   59.0094   28.3904   46.7131 N   0  0  0  0  0  0  0  0  0  0  0  0
   56.9346   24.6492   45.1137 C   0  0  0  0  0  0  0  0  0  0  0  0
   55.8115   25.1388   45.8038 C   0  0  0  0  0  0  0  0  0  0  0  0
   55.7584   26.4618   46.2280 O   0  0  0  0  0  0  0  0  0  0  0  0
   54.7616   24.3149   46.0563 N   0  0  0  0  0  0  0  0  0  0  0  0
   54.7649   23.0240   45.6362 C   0  0  0  0  0  0  0  0  0  0  0  0
   53.7824   22.2791   45.8834 O   0  0  0  0  0  0  0  0  0  0  0  0
   55.8254   22.5388   44.9402 N   0  0  0  0  0  0  0  0  0  0  0  0
   56.9009   23.3206   44.6624 C   0  0  0  0  0  0  0  0  0  0  0  0
   57.8642   22.8402   44.0058 O   0  0  0  0  0  0  0  0  0  0  0  0
   59.6221   29.1419   47.7765 C   0  0  0  0  0  0  0  0  0  0  0  0
   59.1349   29.0333   49.0863 C   0  0  0  0  0  0  0  0  0  0  0  0
   59.7272   29.7630   50.1195 C   0  0  0  0  0  0  0  0  0  0  0  0
   60.8092   30.6068   49.8526 C   0  0  0  0  0  0  0  0  0  0  0  0
   61.3098   30.7227   48.5424 C   0  0  0  0  0  0  0  0  0  0  0  0
   60.7087   29.9912   47.5114 C   0  0  0  0  0  0  0  0  0  0  0  0
   62.4276   31.5628   48.2241 N   0  0  0  0  0  0  0  0  0  0  0  0
   62.3273   33.2457   47.8150 S   0  0  0  0  0  0  0  0  0  0  0  0
   62.4207   34.0646   49.0704 O   0  0  0  0  0  0  0  0  0  0  0  0
   63.4748   33.5987   46.9096 O   0  0  0  0  0  0  0  0  0  0  0  0
   60.7870   33.5809   47.0296 C   0  0  0  0  0  0  0  0  0  0  0  0
   60.7631   34.0756   45.7191 C   0  0  0  0  0  0  0  0  0  0  0  0
   59.5447   34.3572   45.0965 C   0  0  0  0  0  0  0  0  0  0  0  0
   58.3413   34.1412   45.7786 C   0  0  0  0  0  0  0  0  0  0  0  0
   56.8124   34.4912   44.9962 Cl  0  0  0  0  0  0  0  0  0  0  0  0
   58.3616   33.6401   47.0855 C   0  0  0  0  0  0  0  0  0  0  0  0
   59.5810   33.3586   47.7091 C   0  0  0  0  0  0  0  0  0  0  0  0
  1  2  2  0
  2  3  1  0
  3  4  2  0
  4  9  1  0
  9 10  2  0
 10 11  1  0
 10 12  1  0
 12 13  1  0
 13 14  2  0
 13 15  1  0
 15 16  1  0
 16 17  2  0
  3  5  1  0
  5  6  2  0
  6  7  1  0
  6  8  1  0
  8 18  1  0
 18 19  2  0
 19 20  1  0
 20 21  2  0
 21 22  1  0
 22 24  1  0
 24 25  1  0
 25 26  2  0
 25 27  2  0
 25 28  1  0
 28 29  2  0
 29 30  1  0
 30 31  2  0
 31 32  1  0
 31 33  1  0
 33 34  2  0
 22 23  2  0
  8  2  1  0
 23 18  1  0
 16  9  1  0
 34 28  1  0
M  CHG 1  11  -1
M  CHG 1  12  -1
M  CHG 1  15  -1
M  CHG 1  24  -1
M  END
> <UniqueID>
47

> <SMILES>
C=c1/c(=C\c2c([O-])[n-]c(=O)[n-]c2=O)cc(C)n1-c1cccc([N-]S(=O)(=O)c2ccc(Cl)cc2)c1

> <Energy>
105.66410691103732

> <Genealogy>
C=c1c(=Cc2c([O-])[n-]c(=O)[n-]c2=O)cc(C)n1-c1cccc([N-]S(=O)(=O)c2ccc(Cl)cc2)c1 (protonated)
C=c1/c(=C\c2c([O-])[n-]c(=O)[n-]c2=O)cc(C)n1-c1cccc([N-]S(=O)(=O)c2ccc(Cl)cc2)c1 (cis-trans isomerization)
C=c1/c(=C\c2c([O-])[n-]c(=O)[n-]c2=O)cc(C)n1-c1cccc([N-]S(=O)(=O)c2ccc(Cl)cc2)c1 (3D coordinates assigned)
C=c1/c(=C\c2c([O-])[n-]c(=O)[n-]c2=O)cc(C)n1-c1cccc([N-]S(=O)(=O)c2ccc(Cl)cc2)c1 (optimized conformer: 105.66410691103732 kcal/mol)

> <smiles>
C=c1c(=Cc2c(O)[nH]c(=O)[nH]c2=O)cc(C)n1-c1cccc(NS(=O)(=O)c2ccc(Cl)cc2)c1

> <score_type>
oracle

> <origin>
adg

> <m_score__min__energy>
-18.260000000000002

> <m_primary>
energy

> <minimizedAffinity>
-8.71208

> <minimizedRMSD>
0.52898

> <CNNscore>
0.2565064132

> <CNNaffinity>
7.1165904999

> <CNN_VS>
1.8254511356

> <CNNaffinity_variance>
0.0552289225

$$$$
55:0


 34 36  0  0  0  0  0  0  0  0999 V2000
   57.9863   28.2990   44.6768 C   0  0  0  0  0  0  0  0  0  0  0  0
   58.9427   27.7843   44.0339 O   0  0  0  0  0  0  0  0  0  0  0  0
   57.3900   27.5426   45.7944 C   0  0  0  0  0  0  0  0  0  0  0  0
   56.1994   27.1316   45.7235 O   0  0  0  0  0  0  0  0  0  0  0  0
   58.1673   27.3064   46.9736 N   0  0  0  0  0  0  0  0  0  0  0  0
   58.9173   26.0827   47.2334 C   0  0  0  0  0  0  0  0  0  0  0  0
   58.1263   24.8468   46.7822 C   0  0  0  0  0  0  0  0  0  0  0  0
   57.3362   24.3020   47.8831 N   0  0  0  0  0  0  0  0  0  0  0  0
   55.1184   23.5783   48.0754 O   0  0  0  0  0  0  0  0  0  0  0  0
   56.2933   23.3358   47.6875 C   0  0  0  0  0  0  0  0  0  0  0  0
   56.5946   22.0294   47.0185 C   0  0  0  0  0  0  0  0  0  0  0  0
   56.4515   22.1642   45.5221 C   0  0  0  0  0  0  0  0  0  0  0  0
   57.1394   21.2829   44.6653 C   0  0  0  0  0  0  0  0  0  0  0  0
   57.0451   21.4331   43.2765 C   0  0  0  0  0  0  0  0  0  0  0  0
   56.2635   22.4602   42.7320 C   0  0  0  0  0  0  0  0  0  0  0  0
   55.5792   23.3406   43.5767 C   0  0  0  0  0  0  0  0  0  0  0  0
   55.6746   23.1969   44.9671 C   0  0  0  0  0  0  0  0  0  0  0  0
   57.5813   29.6382   44.3503 N   0  0  0  0  0  0  0  0  0  0  0  0
   58.0367   30.8514   44.9668 C   0  0  0  0  0  0  0  0  0  0  0  0
   57.8038   32.0620   44.3132 C   0  0  0  0  0  0  0  0  0  0  0  0
   58.1993   33.2667   44.8976 C   0  0  0  0  0  0  0  0  0  0  0  0
   58.8254   33.2794   46.1495 C   0  0  0  0  0  0  0  0  0  0  0  0
   59.2791   34.8462   46.8142 Cl  0  0  0  0  0  0  0  0  0  0  0  0
   59.0570   32.0620   46.8279 C   0  0  0  0  0  0  0  0  0  0  0  0
   58.6346   30.8592   46.2383 C   0  0  0  0  0  0  0  0  0  0  0  0
   59.8166   31.9764   48.4264 S   0  0  0  0  0  0  0  0  0  0  0  0
   58.8158   32.4426   49.4473 O   0  0  0  0  0  0  0  0  0  0  0  0
   60.2121   30.5695   48.7743 O   0  0  0  0  0  0  0  0  0  0  0  0
   61.2138   33.0223   48.4764 N   0  0  0  0  0  0  0  0  0  0  0  0
   62.1488   32.6652   47.3981 C   0  0  0  0  0  0  0  0  0  0  0  0
   63.4909   33.3941   47.5942 C   0  0  0  0  0  0  0  0  0  0  0  0
   64.0939   33.2378   48.8769 O   0  0  0  0  0  0  0  0  0  0  0  0
   63.2971   32.5154   49.7936 C   0  0  0  0  0  0  0  0  0  0  0  0
   61.8428   33.0185   49.8178 C   0  0  0  0  0  0  0  0  0  0  0  0
  9 10  2  0
 10 11  1  0
 11 12  1  0
 12 13  2  0
 13 14  1  0
 14 15  2  0
 15 16  1  0
 16 17  2  0
 10  8  1  0
  8  7  1  0
  7  6  1  0
  6  5  1  0
  5  3  1  0
  3  4  2  0
  3  1  1  0
  1  2  2  0
  1 18  1  0
 18 19  1  0
 19 20  2  0
 20 21  1  0
 21 22  2  0
 22 23  1  0
 22 24  1  0
 24 26  1  0
 26 27  2  0
 26 28  2  0
 26 29  1  0
 29 30  1  0
 30 31  1  0
 31 32  1  0
 32 33  1  0
 33 34  1  0
 24 25  2  0
 17 12  1  0
 25 19  1  0
 34 29  1  0
M  CHG 1   5  -1
M  CHG 1   8  -1
M  CHG 1  18  -1
M  END
> <UniqueID>
53

> <SMILES>
O=C(Cc1ccccc1)[N-]CC[N-]C(=O)C(=O)[N-]c1ccc(Cl)c(S(=O)(=O)N2CCOCC2)c1

> <Energy>
65.89740708296678

> <Genealogy>
O=C(Cc1ccccc1)[N-]CC[N-]C(=O)C(=O)[N-]c1ccc(Cl)c(S(=O)(=O)N2CCOCC2)c1 (protonated)
O=C(Cc1ccccc1)[N-]CC[N-]C(=O)C(=O)[N-]c1ccc(Cl)c(S(=O)(=O)N2CCOCC2)c1 (3D coordinates assigned)
O=C(Cc1ccccc1)[N-]CC[N-]C(=O)C(=O)[N-]c1ccc(Cl)c(S(=O)(=O)N2CCOCC2)c1 (nonaromatic ring conformer: 65.89740708296678 kcal/mol)

> <smiles>
O=C(Cc1ccccc1)NCCNC(=O)C(=O)Nc1ccc(Cl)c(S(=O)(=O)N2CCOCC2)c1

> <score_type>
oracle

> <origin>
adg

> <m_score__min__energy>
-14.039999999999999

> <m_primary>
energy

> <minimizedAffinity>
-6.86988

> <minimizedRMSD>
1.56224

> <CNNscore>
0.7563353777

> <CNNaffinity>
7.5324702263

> <CNN_VS>
5.6970739365

> <CNNaffinity_variance>
0.0455000661

$$$$
76:0


 31 34  0  0  0  0  0  0  0  0999 V2000
   58.6741   32.5234   49.9533 C   0  0  0  0  0  0  0  0  0  0  0  0
   59.0546   31.1057   49.6263 C   0  0  0  0  0  0  0  0  0  0  0  0
   58.7786   30.0252   50.4793 C   0  0  0  0  0  0  0  0  0  0  0  0
   59.2821   28.6036   49.7319 S   0  0  0  0  0  0  0  0  0  0  0  0
   59.8081   29.3258   48.3097 C   0  0  0  0  0  0  0  0  0  0  0  0
   59.6624   30.7050   48.4121 C   0  0  0  0  0  0  0  0  0  0  0  0
   58.1673   30.0752   51.8212 C   0  0  0  0  0  0  0  0  0  0  0  0
   57.0049   29.6188   51.9974 O   0  0  0  0  0  0  0  0  0  0  0  0
   58.8614   30.6883   52.9200 N   0  0  0  0  0  0  0  0  0  0  0  0
   60.2422   30.3047   53.2398 C   0  0  0  0  0  0  0  0  0  0  0  0
   61.0371   31.5152   53.7852 C   0  0  0  0  0  0  0  0  0  0  0  0
   60.2270   32.6317   54.1230 O   0  0  0  0  0  0  0  0  0  0  0  0
   59.0786   32.2146   54.8323 C   0  0  0  0  0  0  0  0  0  0  0  0
   58.1140   31.5169   53.8704 C   0  0  0  0  0  0  0  0  0  0  0  0
   60.0843   31.6245   47.3379 C   0  0  0  0  0  0  0  0  0  0  0  0
   59.3726   31.7085   46.3005 O   0  0  0  0  0  0  0  0  0  0  0  0
   61.3010   32.3917   47.4357 N   0  0  0  0  0  0  0  0  0  0  0  0
   61.3962   33.7122   46.8027 C   0  0  0  0  0  0  0  0  0  0  0  0
   62.8238   33.9426   46.2985 C   0  0  0  0  0  0  0  0  0  0  0  0
   63.7676   33.7070   47.3276 O   0  0  0  0  0  0  0  0  0  0  0  0
   63.7379   32.3426   47.6988 C   0  0  0  0  0  0  0  0  0  0  0  0
   62.3905   31.9793   48.3282 C   0  0  0  0  0  0  0  0  0  0  0  0
   60.4377   28.6489   47.2141 N   0  0  0  0  0  0  0  0  0  0  0  0
   59.7621   28.1493   46.0544 C   0  0  0  0  0  0  0  0  0  0  0  0
   60.0081   28.6735   44.9359 O   0  0  0  0  0  0  0  0  0  0  0  0
   58.7475   27.0828   46.1428 C   0  0  0  0  0  0  0  0  0  0  0  0
   59.0203   25.7332   46.2823 C   0  0  0  0  0  0  0  0  0  0  0  0
   57.8012   25.0933   46.3113 C   0  0  0  0  0  0  0  0  0  0  0  0
   56.8577   26.0858   46.1761 C   0  0  0  0  0  0  0  0  0  0  0  0
   55.4868   25.8739   46.1562 O   0  0  0  0  0  0  0  0  0  0  0  0
   57.4175   27.3039   46.0662 N   0  0  0  0  0  0  0  0  0  0  0  0
  1  2  1  0
  2  3  2  0
  3  7  1  0
  7  8  2  0
  7  9  1  0
  9 10  1  0
 10 11  1  0
 11 12  1  0
 12 13  1  0
 13 14  1  0
  3  4  1  0
  4  5  1  0
  5 23  1  0
 23 24  1  0
 24 25  2  0
 24 26  1  0
 26 27  2  0
 27 28  1  0
 28 29  2  0
 29 30  1  0
 29 31  1  0
  5  6  2  0
  6 15  1  0
 15 16  2  0
 15 17  1  0
 17 18  1  0
 18 19  1  0
 19 20  1  0
 20 21  1  0
 21 22  1  0
  6  2  1  0
 22 17  1  0
 14  9  1  0
 31 26  1  0
M  CHG 1  23  -1
M  CHG 1  30  -1
M  CHG 1  31  -1
M  END
> <UniqueID>
72

> <SMILES>
Cc1c(C(=O)N2CCOCC2)sc([N-]C(=O)c2ccc([O-])[n-]2)c1C(=O)N1CCOCC1

> <Energy>
126.81758287694703

> <Genealogy>
Cc1c(C(=O)N2CCOCC2)sc([N-]C(=O)c2ccc([O-])[n-]2)c1C(=O)N1CCOCC1 (protonated)
Cc1c(C(=O)N2CCOCC2)sc([N-]C(=O)c2ccc([O-])[n-]2)c1C(=O)N1CCOCC1 (3D coordinates assigned)
Cc1c(C(=O)N2CCOCC2)sc([N-]C(=O)c2ccc([O-])[n-]2)c1C(=O)N1CCOCC1 (nonaromatic ring conformer: 126.81758287694703 kcal/mol)

> <smiles>
Cc1c(C(=O)N2CCOCC2)sc(NC(=O)c2ccc(O)[nH]2)c1C(=O)N1CCOCC1

> <score_type>
oracle

> <origin>
adg

> <m_score__min__energy>
-14.619999999999999

> <m_primary>
energy

> <minimizedAffinity>
-6.03853

> <minimizedRMSD>
0.96955

> <CNNscore>
0.2438358665

> <CNNaffinity>
6.4556827545

> <CNN_VS>
1.5741269588

> <CNNaffinity_variance>
0.1301121563

$$$$
78:0


 25 27  0  0  0  0  0  0  0  0999 V2000
   59.0863   26.1577   48.1535 C   0  0  0  0  0  0  0  0  0  0  0  0
   58.8205   26.0826   46.8392 C   0  0  0  0  0  0  0  0  0  0  0  0
   57.9481   25.1811   46.2091 C   0  0  0  0  0  0  0  0  0  0  0  0
   57.3418   24.0678   46.6678 C   0  0  0  0  0  0  0  0  0  0  0  0
   57.7977   25.6321   44.9102 C   0  0  0  0  0  0  0  0  0  0  0  0
   58.6173   26.7313   44.7696 C   0  0  0  0  0  0  0  0  0  0  0  0
   58.7880   27.5054   43.4982 C   0  0  0  0  0  0  0  0  0  0  0  0
   59.2596   26.9969   45.9321 N   0  0  0  0  0  0  0  0  0  0  0  0
   55.9320   23.7069   46.4495 C   0  0  0  0  0  0  0  0  0  0  0  0
   55.4682   22.4464   46.3599 N   0  0  0  0  0  0  0  0  0  0  0  0
   54.1724   22.6138   46.0226 C   0  0  0  0  0  0  0  0  0  0  0  0
   53.3831   21.6474   45.8589 O   0  0  0  0  0  0  0  0  0  0  0  0
   53.7890   23.8999   45.8648 N   0  0  0  0  0  0  0  0  0  0  0  0
   54.9206   24.5762   46.1251 C   0  0  0  0  0  0  0  0  0  0  0  0
   55.0252   25.9585   46.0617 O   0  0  0  0  0  0  0  0  0  0  0  0
   60.1527   28.1396   46.1693 C   0  0  0  0  0  0  0  0  0  0  0  0
   59.6300   29.3893   45.4477 C   0  0  0  0  0  0  0  0  0  0  0  0
   58.7241   30.2398   46.3517 C   0  0  0  0  0  0  0  0  0  0  0  0
   57.4827   30.6610   45.6630 N   0  0  0  0  0  0  0  0  0  0  0  0
   57.7277   31.8175   44.7624 C   0  0  0  0  0  0  0  0  0  0  0  0
   57.9018   31.3852   43.3003 C   0  0  0  0  0  0  0  0  0  0  0  0
   56.7029   30.7014   42.7822 N   0  0  0  0  0  0  0  0  0  0  0  0
   55.9321   29.9872   43.8173 C   0  0  0  0  0  0  0  0  0  0  0  0
   56.8220   29.5199   44.9779 C   0  0  0  0  0  0  0  0  0  0  0  0
   56.9973   30.0259   42.0769 H   0  0  0  0  0  0  0  0  0  0  0  0
  1  2  2  0
  2  3  1  0
  3  4  2  0
  4  9  1  0
  9 10  1  0
 10 11  1  0
 11 12  2  0
 11 13  1  0
 13 14  1  0
 14 15  1  0
  3  5  1  0
  5  6  2  0
  6  7  1  0
  6  8  1  0
  8 16  1  0
 16 17  1  0
 17 18  1  0
 18 19  1  0
 19 20  1  0
 20 21  1  0
 21 22  1  0
 22 23  1  0
 23 24  1  0
  8  2  1  0
 24 19  1  0
 14  9  2  0
 22 25  1  0
M  CHG 1  10  -1
M  CHG 1  13  -1
M  CHG 1  15  -1
M  END
> <UniqueID>
74

> <SMILES>
C=c1/c(=C\c2[n-]c(=O)[n-]c2[O-])cc(C)n1CCCN1CCNCC1

> <Energy>
121.63765272898326

> <Genealogy>
C=c1c(=Cc2[n-]c(=O)[n-]c2[O-])cc(C)n1CCCN1CCNCC1 (protonated)
C=c1/c(=C\c2[n-]c(=O)[n-]c2[O-])cc(C)n1CCCN1CCNCC1 (cis-trans isomerization)
C=c1/c(=C\c2[n-]c(=O)[n-]c2[O-])cc(C)n1CCCN1CCNCC1 (3D coordinates assigned)
C=c1/c(=C\c2[n-]c(=O)[n-]c2[O-])cc(C)n1CCCN1CCNCC1 (nonaromatic ring conformer: 121.63765272898326 kcal/mol)

> <smiles>
C=c1c(=Cc2[nH]c(=O)[nH]c2O)cc(C)n1CCCN1CCNCC1

> <score_type>
oracle

> <origin>
adg

> <m_score__min__energy>
-15.08

> <m_primary>
energy

> <minimizedAffinity>
-5.26914

> <minimizedRMSD>
0.97272

> <CNNscore>
0.0492355227

> <CNNaffinity>
4.7951769829

> <CNN_VS>
0.2360930443

> <CNNaffinity_variance>
0.4460743368

$$$$
83:0


 31 34  0  0  0  0  0  0  0  0999 V2000
   58.6582   30.6716   45.2781 C   0  0  0  0  0  0  0  0  0  0  0  0
   57.9341   31.3413   44.2858 C   0  0  0  0  0  0  0  0  0  0  0  0
   57.8310   32.7328   44.3146 C   0  0  0  0  0  0  0  0  0  0  0  0
   58.4510   33.4604   45.3342 C   0  0  0  0  0  0  0  0  0  0  0  0
   59.1879   32.8073   46.3409 C   0  0  0  0  0  0  0  0  0  0  0  0
   59.2705   31.4010   46.3081 C   0  0  0  0  0  0  0  0  0  0  0  0
   56.5235   28.7107   44.6301 C   0  0  0  0  0  0  0  0  0  0  0  0
   57.7809   28.3490   44.9273 C   0  0  0  0  0  0  0  0  0  0  0  0
   58.2830   27.0433   45.0627 C   0  0  0  0  0  0  0  0  0  0  0  0
   57.7309   25.8475   44.7752 C   0  0  0  0  0  0  0  0  0  0  0  0
   59.5709   27.1718   45.5584 C   0  0  0  0  0  0  0  0  0  0  0  0
   59.8309   28.5220   45.6520 C   0  0  0  0  0  0  0  0  0  0  0  0
   61.1310   29.1150   46.1064 C   0  0  0  0  0  0  0  0  0  0  0  0
   58.7526   29.2369   45.2617 N   0  0  0  0  0  0  0  0  0  0  0  0
   57.1069   24.9353   45.7472 C   0  0  0  0  0  0  0  0  0  0  0  0
   57.7399   23.9112   46.3526 N   0  0  0  0  0  0  0  0  0  0  0  0
   56.8306   23.4708   47.2480 C   0  0  0  0  0  0  0  0  0  0  0  0
   57.0493   22.4933   48.0119 O   0  0  0  0  0  0  0  0  0  0  0  0
   55.6730   24.1665   47.2714 N   0  0  0  0  0  0  0  0  0  0  0  0
   55.8737   25.0985   46.3252 C   0  0  0  0  0  0  0  0  0  0  0  0
   54.9471   26.0825   46.0018 O   0  0  0  0  0  0  0  0  0  0  0  0
   59.8157   33.6291   47.4220 C   0  0  0  0  0  0  0  0  0  0  0  0
   59.2650   34.7256   47.7227 O   0  0  0  0  0  0  0  0  0  0  0  0
   61.0233   33.2475   48.1349 N   0  0  0  0  0  0  0  0  0  0  0  0
   61.2108   34.0104   49.3888 C   0  0  0  0  0  0  0  0  0  0  0  0
   62.4093   33.4594   50.1932 C   0  0  0  0  0  0  0  0  0  0  0  0
   63.4778   32.8982   49.3454 N   0  0  0  0  0  0  0  0  0  0  0  0
   63.5181   33.5264   48.0202 C   0  0  0  0  0  0  0  0  0  0  0  0
   62.2119   33.2622   47.2467 C   0  0  0  0  0  0  0  0  0  0  0  0
   61.7739   33.8813   48.1997 H   0  0  0  0  0  0  0  0  0  0  0  0
   63.3152   31.8979   49.2304 H   0  0  0  0  0  0  0  0  0  0  0  0
  7  8  2  0
  8  9  1  0
  9 10  2  0
 10 15  1  0
 15 16  1  0
 16 17  1  0
 17 18  2  0
 17 19  1  0
 19 20  1  0
 20 21  1  0
  9 11  1  0
 11 12  2  0
 12 13  1  0
 12 14  1  0
 14  1  1  0
  1  2  2  0
  2  3  1  0
  3  4  2  0
  4  5  1  0
  5 22  1  0
 22 23  2  0
 22 24  1  0
 24 25  1  0
 25 26  1  0
 26 27  1  0
 27 28  1  0
 28 29  1  0
  5  6  2  0
 14  8  1  0
  6  1  1  0
 20 15  2  0
 29 24  1  0
 24 30  1  0
 27 31  1  0
M  CHG 1  16  -1
M  CHG 1  19  -1
M  CHG 1  21  -1
M  CHG 1  24   1
M  END
> <UniqueID>
78

> <SMILES>
C=c1c(=Cc2[n-]c(=O)[n-]c2[O-])cc(C)n1-c1cccc(C(=O)[NH+]2CCNCC2)c1

> <Energy>
144.28135932557493

> <Genealogy>
C=c1c(=Cc2[n-]c(=O)[n-]c2[O-])cc(C)n1-c1cccc(C(=O)[NH+]2CCNCC2)c1 (protonated)
C=c1c(=Cc2[n-]c(=O)[n-]c2[O-])cc(C)n1-c1cccc(C(=O)[NH+]2CCNCC2)c1 (3D coordinates assigned)
C=c1c(=Cc2[n-]c(=O)[n-]c2[O-])cc(C)n1-c1cccc(C(=O)[NH+]2CCNCC2)c1 (nonaromatic ring conformer: 144.28135932557493 kcal/mol)

> <smiles>
C=c1c(=Cc2[nH]c(=O)[nH]c2O)cc(C)n1-c1cccc(C(=O)N2CCNCC2)c1

> <score_type>
oracle

> <origin>
adg

> <m_score__min__energy>
-15.43

> <m_primary>
energy

> <minimizedAffinity>
-8.46116

> <minimizedRMSD>
0.66529

> <CNNscore>
0.1854806840

> <CNNaffinity>
6.5632476807

> <CNN_VS>
1.2173557281

> <CNNaffinity_variance>
0.0124378093

$$$$
88:0


 25 27  0  0  0  0  0  0  0  0999 V2000
   60.4830   29.7452   47.8094 C   0  0  0  0  0  0  0  0  0  0  0  0
   59.6311   30.3972   47.0044 C   0  0  0  0  0  0  0  0  0  0  0  0
   59.0567   29.9181   45.8244 C   0  0  0  0  0  0  0  0  0  0  0  0
   59.2417   28.7008   45.2698 C   0  0  0  0  0  0  0  0  0  0  0  0
   58.2662   30.9826   45.3781 C   0  0  0  0  0  0  0  0  0  0  0  0
   57.4049   31.0559   44.1554 C   0  0  0  0  0  0  0  0  0  0  0  0
   58.3748   32.0154   46.2350 N   0  0  0  0  0  0  0  0  0  0  0  0
   59.1914   31.6615   47.2141 N   0  0  0  0  0  0  0  0  0  0  0  0
   58.6245   27.4608   45.7717 C   0  0  0  0  0  0  0  0  0  0  0  0
   57.2392   27.2604   45.6799 C   0  0  0  0  0  0  0  0  0  0  0  0
   56.4153   28.2463   45.1489 O   0  0  0  0  0  0  0  0  0  0  0  0
   56.6944   26.0973   46.1168 N   0  0  0  0  0  0  0  0  0  0  0  0
   57.4703   25.1094   46.6342 C   0  0  0  0  0  0  0  0  0  0  0  0
   56.9422   24.0413   47.0358 O   0  0  0  0  0  0  0  0  0  0  0  0
   58.8154   25.2736   46.7136 N   0  0  0  0  0  0  0  0  0  0  0  0
   59.4086   26.4193   46.2896 C   0  0  0  0  0  0  0  0  0  0  0  0
   60.6603   26.5367   46.3718 O   0  0  0  0  0  0  0  0  0  0  0  0
   59.5597   32.5744   48.2982 C   0  0  0  0  0  0  0  0  0  0  0  0
   61.0491   32.8192   48.3017 C   0  0  0  0  0  0  0  0  0  0  0  0
   61.8125   32.4434   49.4209 C   0  0  0  0  0  0  0  0  0  0  0  0
   63.1935   32.6614   49.4410 C   0  0  0  0  0  0  0  0  0  0  0  0
   63.8249   33.2480   48.3421 C   0  0  0  0  0  0  0  0  0  0  0  0
   63.0781   33.6148   47.2201 C   0  0  0  0  0  0  0  0  0  0  0  0
   61.6952   33.4001   47.1932 C   0  0  0  0  0  0  0  0  0  0  0  0
   60.9971   33.7552   46.0858 F   0  0  0  0  0  0  0  0  0  0  0  0
  1  2  2  0
  2  3  1  0
  3  4  2  0
  4  9  1  0
  9 10  2  0
 10 11  1  0
 10 12  1  0
 12 13  1  0
 13 14  2  0
 13 15  1  0
 15 16  1  0
 16 17  2  0
  3  5  1  0
  5  6  1  0
  5  7  2  0
  7  8  1  0
  8 18  1  0
 18 19  1  0
 19 20  2  0
 20 21  1  0
 21 22  2  0
 22 23  1  0
 23 24  2  0
 24 25  1  0
  8  2  1  0
 24 19  1  0
 16  9  1  0
M  CHG 1  11  -1
M  CHG 1  12  -1
M  CHG 1  15  -1
M  END
> <UniqueID>
83

> <SMILES>
C=c1c(=Cc2c([O-])[n-]c(=O)[n-]c2=O)c(C)nn1Cc1ccccc1F

> <Energy>
84.4730416322373

> <Genealogy>
C=c1c(=Cc2c([O-])[n-]c(=O)[n-]c2=O)c(C)nn1Cc1ccccc1F (protonated)
C=c1c(=Cc2c([O-])[n-]c(=O)[n-]c2=O)c(C)nn1Cc1ccccc1F (3D coordinates assigned)
C=c1c(=Cc2c([O-])[n-]c(=O)[n-]c2=O)c(C)nn1Cc1ccccc1F (optimized conformer: 84.4730416322373 kcal/mol)

> <smiles>
C=c1c(=Cc2c(O)[nH]c(=O)[nH]c2=O)c(C)nn1Cc1ccccc1F

> <score_type>
oracle

> <origin>
adg

> <m_score__min__energy>
-15.85

> <m_primary>
energy

> <minimizedAffinity>
-8.13659

> <minimizedRMSD>
1.04414

> <CNNscore>
0.6362087131

> <CNNaffinity>
6.9260125160

> <CNN_VS>
4.4063897133

> <CNNaffinity_variance>
0.3214606047

$$$$
89:0


 30 32  0  0  0  0  0  0  0  0999 V2000
   58.9698   30.6033   51.6875 N   0  0  0  0  0  0  0  0  0  0  0  0
   58.0936   29.8711   52.3942 C   0  0  0  0  0  0  0  0  0  0  0  0
   58.3153   28.5534   52.7882 O   0  0  0  0  0  0  0  0  0  0  0  0
   56.9747   30.6450   52.6514 C   0  0  0  0  0  0  0  0  0  0  0  0
   57.1460   31.8689   52.1073 N   0  0  0  0  0  0  0  0  0  0  0  0
   58.3618   31.7943   51.5244 C   0  0  0  0  0  0  0  0  0  0  0  0
   58.8732   32.7543   50.8868 O   0  0  0  0  0  0  0  0  0  0  0  0
   59.1152   28.1236   52.5572 H   0  0  0  0  0  0  0  0  0  0  0  0
   60.2601   30.1700   51.1533 C   0  0  0  0  0  0  0  0  0  0  0  0
   60.5659   30.9138   49.8529 C   0  0  0  0  0  0  0  0  0  0  0  0
   58.5470   29.0895   46.5014 C   0  0  0  0  0  0  0  0  0  0  0  0
   58.9873   28.3017   47.5732 C   0  0  0  0  0  0  0  0  0  0  0  0
   59.6370   28.8922   48.6614 C   0  0  0  0  0  0  0  0  0  0  0  0
   59.8391   30.2811   48.6960 C   0  0  0  0  0  0  0  0  0  0  0  0
   59.4032   31.0677   47.6182 C   0  0  0  0  0  0  0  0  0  0  0  0
   58.7554   30.4763   46.5306 C   0  0  0  0  0  0  0  0  0  0  0  0
   56.5141   27.2591   45.7109 N   0  0  0  0  0  0  0  0  0  0  0  0
   57.7164   28.3561   45.1341 S   0  0  0  0  0  0  0  0  0  0  0  0
   58.6981   27.6115   44.2746 O   0  0  0  0  0  0  0  0  0  0  0  0
   57.0657   29.4273   44.3050 O   0  0  0  0  0  0  0  0  0  0  0  0
   56.0330   26.8343   44.9181 H   0  0  0  0  0  0  0  0  0  0  0  0
   55.7863   30.2679   53.4886 C   0  0  0  0  0  0  0  0  0  0  0  0
   54.7037   29.5729   52.6515 C   0  0  0  0  0  0  0  0  0  0  0  0
   53.3885   30.3050   52.7185 C   0  0  0  0  0  0  0  0  0  0  0  0
   52.9058   31.0011   51.5965 C   0  0  0  0  0  0  0  0  0  0  0  0
   51.7137   31.7268   51.6770 C   0  0  0  0  0  0  0  0  0  0  0  0
   50.9985   31.7677   52.8776 C   0  0  0  0  0  0  0  0  0  0  0  0
   49.8174   32.4946   52.9571 O   0  0  0  0  0  0  0  0  0  0  0  0
   51.4732   31.0794   53.9981 C   0  0  0  0  0  0  0  0  0  0  0  0
   52.6641   30.3522   53.9209 C   0  0  0  0  0  0  0  0  0  0  0  0
 17 18  1  0
 18 19  2  0
 18 20  2  0
 18 11  1  0
 11 12  2  0
 12 13  1  0
 13 14  2  0
 14 10  1  0
 10  9  1  0
  9  1  1  0
  1  2  1  0
  2  3  1  0
  2  4  2  0
  4 22  1  0
 22 23  1  0
 23 24  1  0
 24 25  2  0
 25 26  1  0
 26 27  2  0
 27 28  1  0
 27 29  1  0
 29 30  2  0
  4  5  1  0
  5  6  1  0
  6  7  2  0
 14 15  1  0
 15 16  2  0
 16 11  1  0
  6  1  1  0
 30 24  1  0
 17 21  1  0
  3  8  1  0
M  CHG 1   5  -1
M  CHG 1  17  -1
M  CHG 1  28  -1
M  END
> <UniqueID>
84

> <SMILES>
[NH-]S(=O)(=O)c1ccc(CCn2c(O)c(CCc3ccc([O-])cc3)[n-]c2=O)cc1

> <Energy>
71.63102884021575

> <Genealogy>
[NH-]S(=O)(=O)c1ccc(CCn2c(O)c(CCc3ccc([O-])cc3)[n-]c2=O)cc1 (protonated)
[NH-]S(=O)(=O)c1ccc(CCn2c(O)c(CCc3ccc([O-])cc3)[n-]c2=O)cc1 (3D coordinates assigned)
[NH-]S(=O)(=O)c1ccc(CCn2c(O)c(CCc3ccc([O-])cc3)[n-]c2=O)cc1 (optimized conformer: 71.63102884021575 kcal/mol)

> <smiles>
NS(=O)(=O)c1ccc(CCn2c(O)c(CCc3ccc(O)cc3)[nH]c2=O)cc1

> <score_type>
oracle

> <origin>
adg

> <m_score__min__energy>
-15.66

> <m_primary>
energy

> <minimizedAffinity>
-7.22318

> <minimizedRMSD>
1.02302

> <CNNscore>
0.3574483991

> <CNNaffinity>
6.0542359352

> <CNN_VS>
2.1640770435

> <CNNaffinity_variance>
0.0084706703

$$$$
9:0


 34 37  0  0  0  0  0  0  0  0999 V2000
   56.3977   28.9841   53.3196 C   0  0  0  0  0  0  0  0  0  0  0  0
   56.8968   30.0357   52.5387 C   0  0  0  0  0  0  0  0  0  0  0  0
   58.2725   30.2795   52.4822 C   0  0  0  0  0  0  0  0  0  0  0  0
   59.1656   29.4790   53.2119 C   0  0  0  0  0  0  0  0  0  0  0  0
   58.6639   28.4125   53.9767 C   0  0  0  0  0  0  0  0  0  0  0  0
   57.2880   28.1719   54.0349 C   0  0  0  0  0  0  0  0  0  0  0  0
   60.6221   29.7222   53.1445 C   0  0  0  0  0  0  0  0  0  0  0  0
   61.3413   29.4272   54.1383 O   0  0  0  0  0  0  0  0  0  0  0  0
   61.2341   30.2857   51.9698 N   0  0  0  0  0  0  0  0  0  0  0  0
   62.1297   31.4468   52.1155 C   0  0  0  0  0  0  0  0  0  0  0  0
   63.0123   31.6421   50.8788 C   0  0  0  0  0  0  0  0  0  0  0  0
   62.1744   31.6319   49.6629 N   0  0  0  0  0  0  0  0  0  0  0  0
   61.3441   30.4538   49.5319 C   0  0  0  0  0  0  0  0  0  0  0  0
   60.8072   30.1486   48.4338 O   0  0  0  0  0  0  0  0  0  0  0  0
   61.1570   29.5372   50.7067 C   0  0  0  0  0  0  0  0  0  0  0  0
   62.1375   32.7393   48.6553 C   0  0  0  0  0  0  0  0  0  0  0  0
   62.5213   34.0752   49.3290 C   0  0  0  0  0  0  0  0  0  0  0  0
   60.7385   32.9303   48.0194 C   0  0  0  0  0  0  0  0  0  0  0  0
   63.1197   32.4304   47.5016 C   0  0  0  0  0  0  0  0  0  0  0  0
   54.2190   30.6321   52.1623 C   0  0  0  0  0  0  0  0  0  0  0  0
   53.9891   29.5426   52.9108 C   0  0  0  0  0  0  0  0  0  0  0  0
   52.7450   28.9509   53.1892 C   0  0  0  0  0  0  0  0  0  0  0  0
   51.4891   29.3848   52.9684 C   0  0  0  0  0  0  0  0  0  0  0  0
   53.0208   27.7323   53.7879 C   0  0  0  0  0  0  0  0  0  0  0  0
   54.3915   27.6504   53.9184 C   0  0  0  0  0  0  0  0  0  0  0  0
   55.1186   26.4941   54.5353 C   0  0  0  0  0  0  0  0  0  0  0  0
   54.9802   28.7449   53.3877 N   0  0  0  0  0  0  0  0  0  0  0  0
   50.9943   30.7483   53.2036 C   0  0  0  0  0  0  0  0  0  0  0  0
   50.6534   31.2166   54.4164 N   0  0  0  0  0  0  0  0  0  0  0  0
   50.4017   32.5244   54.1897 C   0  0  0  0  0  0  0  0  0  0  0  0
   50.0333   33.3109   55.0997 O   0  0  0  0  0  0  0  0  0  0  0  0
   50.5934   32.9262   52.9145 N   0  0  0  0  0  0  0  0  0  0  0  0
   50.9842   31.7944   52.3058 C   0  0  0  0  0  0  0  0  0  0  0  0
   51.3514   31.7262   50.9679 O   0  0  0  0  0  0  0  0  0  0  0  0
 20 21  2  0
 21 22  1  0
 22 23  2  0
 23 28  1  0
 28 29  1  0
 29 30  1  0
 30 31  2  0
 30 32  1  0
 32 33  1  0
 33 34  1  0
 22 24  1  0
 24 25  2  0
 25 26  1  0
 25 27  1  0
 27  1  1  0
  1  2  2  0
  2  3  1  0
  3  4  2  0
  4  7  1  0
  7  8  2  0
  7  9  1  0
  9 10  1  0
 10 11  1  0
 11 12  1  0
 12 16  1  0
 16 17  1  0
 16 18  1  0
 16 19  1  0
 12 13  1  0
 13 14  2  0
 13 15  1  0
  4  5  1  0
  5  6  2  0
 27 21  1  0
  6  1  1  0
 33 28  2  0
 15  9  1  0
M  CHG 1  29  -1
M  CHG 1  32  -1
M  CHG 1  34  -1
M  END
> <UniqueID>
9

> <SMILES>
C=c1c(=Cc2[n-]c(=O)[n-]c2[O-])cc(C)n1-c1ccc(C(=O)N2CCN(C(C)(C)C)C(=O)C2)cc1

> <Energy>
146.93188617729876

> <Genealogy>
C=c1c(=Cc2[n-]c(=O)[n-]c2[O-])cc(C)n1-c1ccc(C(=O)N2CCN(C(C)(C)C)C(=O)C2)cc1 (protonated)
C=c1c(=Cc2[n-]c(=O)[n-]c2[O-])cc(C)n1-c1ccc(C(=O)N2CCN(C(C)(C)C)C(=O)C2)cc1 (3D coordinates assigned)
C=c1c(=Cc2[n-]c(=O)[n-]c2[O-])cc(C)n1-c1ccc(C(=O)N2CCN(C(C)(C)C)C(=O)C2)cc1 (nonaromatic ring conformer: 146.93188617729876 kcal/mol)

> <smiles>
C=c1c(=Cc2[nH]c(=O)[nH]c2O)cc(C)n1-c1ccc(C(=O)N2CCN(C(C)(C)C)C(=O)C2)cc1

> <score_type>
oracle

> <origin>
adg

> <m_score__min__energy>
-16.34

> <m_primary>
energy

> <minimizedAffinity>
-7.70249

> <minimizedRMSD>
0.73118

> <CNNscore>
0.1667181104

> <CNNaffinity>
5.5919899940

> <CNN_VS>
0.9322860241

> <CNNaffinity_variance>
0.1815356016

$$$$
11:0


 21 22  0  0  0  0  0  0  0  0999 V2000
   58.4425   29.4474   46.1603 C   0  0  0  0  0  0  0  0  0  0  0  0
   59.7423   29.1986   46.6332 C   0  0  0  0  0  0  0  0  0  0  0  0
   60.3539   27.9701   46.3922 C   0  0  0  0  0  0  0  0  0  0  0  0
   59.6805   26.9760   45.6856 C   0  0  0  0  0  0  0  0  0  0  0  0
   58.3759   27.1948   45.2121 C   0  0  0  0  0  0  0  0  0  0  0  0
   57.7580   28.4500   45.4449 C   0  0  0  0  0  0  0  0  0  0  0  0
   56.4729   28.7371   44.9755 O   0  0  0  0  0  0  0  0  0  0  0  0
   55.9941   28.0903   44.4956 H   0  0  0  0  0  0  0  0  0  0  0  0
   57.7884   30.7058   46.3840 N   0  0  0  0  0  0  0  0  0  0  0  0
   57.9803   31.7970   43.7503 C   0  0  0  0  0  0  0  0  0  0  0  0
   58.0797   32.1615   45.4875 S   0  0  0  0  0  0  0  0  0  0  0  0
   59.4510   32.6891   45.8006 O   0  0  0  0  0  0  0  0  0  0  0  0
   57.0410   33.1907   45.8335 O   0  0  0  0  0  0  0  0  0  0  0  0
   57.6895   26.0970   44.4342 C   0  0  0  0  0  0  0  0  0  0  0  0
   57.2059   25.0130   45.3518 C   0  0  0  0  0  0  0  0  0  0  0  0
   58.0206   23.5696   45.6708 S   0  0  0  0  0  0  0  0  0  0  0  0
   56.8627   23.0639   46.7788 C   0  0  0  0  0  0  0  0  0  0  0  0
   56.9089   21.9725   47.4034 O   0  0  0  0  0  0  0  0  0  0  0  0
   55.8663   23.9610   46.9364 N   0  0  0  0  0  0  0  0  0  0  0  0
   56.0616   25.0491   46.1477 C   0  0  0  0  0  0  0  0  0  0  0  0
   55.1735   26.1170   46.1501 O   0  0  0  0  0  0  0  0  0  0  0  0
 10 11  1  0
 11 12  2  0
 11 13  2  0
 11  9  1  0
  9  1  1  0
  1  2  2  0
  2  3  1  0
  3  4  2  0
  4  5  1  0
  5 14  1  0
 14 15  1  0
 15 16  1  0
 16 17  1  0
 17 18  2  0
 17 19  1  0
 19 20  1  0
 20 21  1  0
  5  6  2  0
  6  7  1  0
  6  1  1  0
 20 15  2  0
  7  8  1  0
M  CHG 1   9  -1
M  CHG 1  19  -1
M  CHG 1  21  -1
M  END
> <UniqueID>
11

> <SMILES>
CS(=O)(=O)[N-]c1cccc(Cc2sc(=O)[n-]c2[O-])c1O

> <Energy>
60.00995981359464

> <Genealogy>
CS(=O)(=O)[N-]c1cccc(Cc2sc(=O)[n-]c2[O-])c1O (protonated)
CS(=O)(=O)[N-]c1cccc(Cc2sc(=O)[n-]c2[O-])c1O (3D coordinates assigned)
CS(=O)(=O)[N-]c1cccc(Cc2sc(=O)[n-]c2[O-])c1O (optimized conformer: 60.00995981359464 kcal/mol)

> <smiles>
CS(=O)(=O)Nc1cccc(Cc2sc(=O)[nH]c2O)c1O

> <score_type>
oracle

> <origin>
adg

> <m_score__min__energy>
-14.880000000000001

> <m_primary>
energy

> <minimizedAffinity>
-6.55525

> <minimizedRMSD>
1.20306

> <CNNscore>
0.4974513650

> <CNNaffinity>
5.3501052856

> <CNN_VS>
2.6614172459

> <CNNaffinity_variance>
0.0266592056

$$$$
12:0


 29 32  0  0  0  0  0  0  0  0999 V2000
   60.8734   31.7164   52.1253 C   0  0  0  0  0  0  0  0  0  0  0  0
   59.5941   31.3169   52.2155 C   0  0  0  0  0  0  0  0  0  0  0  0
   58.2694   31.8950   51.2793 S   0  0  0  0  0  0  0  0  0  0  0  0
   57.2019   30.8386   52.0276 C   0  0  0  0  0  0  0  0  0  0  0  0
   57.7995   30.0750   52.9328 N   0  0  0  0  0  0  0  0  0  0  0  0
   59.1236   30.3049   53.0738 C   0  0  0  0  0  0  0  0  0  0  0  0
   59.8423   29.6704   53.8919 O   0  0  0  0  0  0  0  0  0  0  0  0
   56.8076   29.2574   53.5007 C   0  0  0  0  0  0  0  0  0  0  0  0
   56.9660   28.4795   54.4776 O   0  0  0  0  0  0  0  0  0  0  0  0
   55.5766   29.6340   52.7978 C   0  0  0  0  0  0  0  0  0  0  0  0
   54.3252   29.1956   52.9787 C   0  0  0  0  0  0  0  0  0  0  0  0
   55.9229   30.6772   51.8671 N   0  0  0  0  0  0  0  0  0  0  0  0
   53.1288   30.0609   52.9604 C   0  0  0  0  0  0  0  0  0  0  0  0
   52.7230   30.7188   51.7854 C   0  0  0  0  0  0  0  0  0  0  0  0
   51.6124   31.5674   51.8009 C   0  0  0  0  0  0  0  0  0  0  0  0
   50.9122   31.7841   52.9915 C   0  0  0  0  0  0  0  0  0  0  0  0
   49.8082   32.6297   53.0002 O   0  0  0  0  0  0  0  0  0  0  0  0
   51.3280   31.1567   54.1715 C   0  0  0  0  0  0  0  0  0  0  0  0
   50.6422   31.3772   55.3601 O   0  0  0  0  0  0  0  0  0  0  0  0
   52.4404   30.3062   54.1577 C   0  0  0  0  0  0  0  0  0  0  0  0
   62.7253   34.4133   54.9311 C   0  0  0  0  0  0  0  0  0  0  0  0
   61.3558   34.0870   55.0206 C   0  0  0  0  0  0  0  0  0  0  0  0
   60.7682   33.2076   54.1072 C   0  0  0  0  0  0  0  0  0  0  0  0
   61.5334   32.6160   53.0949 C   0  0  0  0  0  0  0  0  0  0  0  0
   62.8903   32.9577   52.9771 C   0  0  0  0  0  0  0  0  0  0  0  0
   63.4802   33.8378   53.8882 C   0  0  0  0  0  0  0  0  0  0  0  0
   64.4242   36.2206   55.4586 C   0  0  0  0  0  0  0  0  0  0  0  0
   63.3384   35.3256   55.8795 N   0  0  0  0  0  0  0  0  0  0  0  0
   62.8842   35.3682   57.2751 C   0  0  0  0  0  0  0  0  0  0  0  0
 27 28  1  0
 28 29  1  0
 28 21  1  0
 21 22  2  0
 22 23  1  0
 23 24  2  0
 24  1  1  0
  1  2  2  0
  2  3  1  0
  3  4  1  0
  4  5  1  0
  5  6  1  0
  6  7  2  0
  5  8  1  0
  8  9  2  0
  8 10  1  0
 10 11  2  0
 11 13  1  0
 13 14  2  0
 14 15  1  0
 15 16  2  0
 16 17  1  0
 16 18  1  0
 18 19  1  0
 18 20  2  0
 10 12  1  0
 24 25  1  0
 25 26  2  0
 26 21  1  0
  6  2  1  0
 20 13  1  0
 12  4  2  0
M  CHG 1  17  -1
M  CHG 1  19  -1
M  END
> <UniqueID>
12

> <SMILES>
CN(C)c1ccc(C=c2sc3n(c2=O)C(=O)C(=Cc2ccc([O-])c([O-])c2)N=3)cc1

> <Energy>
141.8867776221945

> <Genealogy>
CN(C)c1ccc(C=c2sc3n(c2=O)C(=O)C(=Cc2ccc([O-])c([O-])c2)N=3)cc1 (protonated)
CN(C)c1ccc(C=c2sc3n(c2=O)C(=O)C(=Cc2ccc([O-])c([O-])c2)N=3)cc1 (3D coordinates assigned)
CN(C)c1ccc(C=c2sc3n(c2=O)C(=O)C(=Cc2ccc([O-])c([O-])c2)N=3)cc1 (nonaromatic ring conformer: 141.8867776221945 kcal/mol)

> <smiles>
CN(C)c1ccc(C=c2sc3n(c2=O)C(=O)C(=Cc2ccc(O)c(O)c2)N=3)cc1

> <score_type>
oracle

> <origin>
adg

> <m_score__min__energy>
-15.59

> <m_primary>
energy

> <minimizedAffinity>
-5.89985

> <minimizedRMSD>
2.24096

> <CNNscore>
0.3969428539

> <CNNaffinity>
5.1713280678

> <CNN_VS>
2.0527217388

> <CNNaffinity_variance>
0.1769724935

$$$$
24:0


 35 38  0  0  0  0  0  0  0  0999 V2000
   59.9477   33.0880   46.5141 C   0  0  0  0  0  0  0  0  0  0  0  0
   59.7860   34.4785   46.3800 C   0  0  0  0  0  0  0  0  0  0  0  0
   58.7329   35.0013   45.6282 C   0  0  0  0  0  0  0  0  0  0  0  0
   57.8313   34.1449   44.9977 C   0  0  0  0  0  0  0  0  0  0  0  0
   57.9806   32.7616   45.1155 C   0  0  0  0  0  0  0  0  0  0  0  0
   59.0370   32.2190   45.8680 C   0  0  0  0  0  0  0  0  0  0  0  0
   59.1858   30.7923   45.9512 N   0  0  0  0  0  0  0  0  0  0  0  0
   58.0901   29.8877   45.7358 C   0  0  0  0  0  0  0  0  0  0  0  0
   56.9860   30.3316   45.3147 O   0  0  0  0  0  0  0  0  0  0  0  0
   60.0722   30.4203   46.1638 H   0  0  0  0  0  0  0  0  0  0  0  0
   58.2550   28.4382   45.9797 C   0  0  0  0  0  0  0  0  0  0  0  0
   59.5271   27.8693   46.1384 C   0  0  0  0  0  0  0  0  0  0  0  0
   59.6222   26.4951   46.3671 C   0  0  0  0  0  0  0  0  0  0  0  0
   60.7484   25.9548   46.5156 O   0  0  0  0  0  0  0  0  0  0  0  0
   58.4956   25.7384   46.4294 N   0  0  0  0  0  0  0  0  0  0  0  0
   57.2704   26.3007   46.2730 C   0  0  0  0  0  0  0  0  0  0  0  0
   56.2372   25.5848   46.3345 O   0  0  0  0  0  0  0  0  0  0  0  0
   57.1573   27.6361   46.0520 N   0  0  0  0  0  0  0  0  0  0  0  0
   61.1056   32.5760   47.2815 C   0  0  0  0  0  0  0  0  0  0  0  0
   62.2207   33.1499   47.1847 O   0  0  0  0  0  0  0  0  0  0  0  0
   61.0147   31.3798   48.0695 N   0  0  0  0  0  0  0  0  0  0  0  0
   58.2398   30.5732   51.1951 C   0  0  0  0  0  0  0  0  0  0  0  0
   58.9804   29.5385   50.5925 C   0  0  0  0  0  0  0  0  0  0  0  0
   59.8915   29.8182   49.5713 C   0  0  0  0  0  0  0  0  0  0  0  0
   60.0701   31.1308   49.1207 C   0  0  0  0  0  0  0  0  0  0  0  0
   59.3618   32.1724   49.7411 C   0  0  0  0  0  0  0  0  0  0  0  0
   58.4487   31.8947   50.7614 C   0  0  0  0  0  0  0  0  0  0  0  0
   55.3762   29.7548   54.3941 N   0  0  0  0  0  0  0  0  0  0  0  0
   56.8502   29.7120   54.5925 C   0  0  0  0  0  0  0  0  0  0  0  0
   57.6221   29.3455   53.3182 C   0  0  0  0  0  0  0  0  0  0  0  0
   57.2860   30.2844   52.2402 N   0  0  0  0  0  0  0  0  0  0  0  0
   55.9682   30.9296   52.2529 C   0  0  0  0  0  0  0  0  0  0  0  0
   54.9582   30.0500   52.9977 C   0  0  0  0  0  0  0  0  0  0  0  0
   54.2941   27.5996   53.7740 C   0  0  0  0  0  0  0  0  0  0  0  0
   54.7288   28.5283   54.9090 C   0  0  0  0  0  0  0  0  0  0  0  0
 34 35  1  0
 35 28  1  0
 28 29  1  0
 29 30  1  0
 30 31  1  0
 31 22  1  0
 22 23  2  0
 23 24  1  0
 24 25  2  0
 25 21  1  0
 21 19  1  0
 19 20  2  0
 19  1  1  0
  1  2  2  0
  2  3  1  0
  3  4  2  0
  4  5  1  0
  5  6  2  0
  6  7  1  0
  7  8  1  0
  8  9  2  0
  8 11  1  0
 11 12  2  0
 12 13  1  0
 13 14  2  0
 13 15  1  0
 15 16  1  0
 16 17  2  0
 16 18  1  0
 25 26  1  0
 26 27  2  0
 31 32  1  0
 32 33  1  0
 33 28  1  0
 27 22  1  0
  6  1  1  0
 18 11  1  0
  7 10  1  0
M  CHG 1  15  -1
M  CHG 1  18  -1
M  CHG 1  21  -1
M  END
> <UniqueID>
24

> <SMILES>
CCN1CCN(c2ccc([N-]C(=O)c3ccccc3NC(=O)c3cc(=O)[n-]c(=O)[n-]3)cc2)CC1

> <Energy>
84.65987481098628

> <Genealogy>
CCN1CCN(c2ccc([N-]C(=O)c3ccccc3NC(=O)c3cc(=O)[n-]c(=O)[n-]3)cc2)CC1 (protonated)
CCN1CCN(c2ccc([N-]C(=O)c3ccccc3NC(=O)c3cc(=O)[n-]c(=O)[n-]3)cc2)CC1 (3D coordinates assigned)
CCN1CCN(c2ccc([N-]C(=O)c3ccccc3NC(=O)c3cc(=O)[n-]c(=O)[n-]3)cc2)CC1 (nonaromatic ring conformer: 84.65987481098628 kcal/mol)

> <smiles>
CCN1CCN(c2ccc(NC(=O)c3ccccc3NC(=O)c3cc(=O)[nH]c(=O)[nH]3)cc2)CC1

> <score_type>
oracle

> <origin>
adg

> <m_score__min__energy>
-14.51

> <m_primary>
energy

> <minimizedAffinity>
-7.94146

> <minimizedRMSD>
0.84114

> <CNNscore>
0.6652511954

> <CNNaffinity>
7.4160499573

> <CNN_VS>
4.9335360527

> <CNNaffinity_variance>
0.0705149099

$$$$
27:0


 25 27  0  0  0  0  0  0  0  0999 V2000
   58.2751   26.8012   43.2153 C   0  0  0  0  0  0  0  0  0  0  0  0
   57.9808   27.7547   44.1192 C   0  0  0  0  0  0  0  0  0  0  0  0
   58.4052   27.6830   45.4893 C   0  0  0  0  0  0  0  0  0  0  0  0
   58.7014   26.5066   46.1162 C   0  0  0  0  0  0  0  0  0  0  0  0
   58.4578   28.9105   46.2251 C   0  0  0  0  0  0  0  0  0  0  0  0
   57.8013   30.0376   45.6965 C   0  0  0  0  0  0  0  0  0  0  0  0
   57.2349   29.9950   44.4301 C   0  0  0  0  0  0  0  0  0  0  0  0
   56.6357   31.0078   43.9768 O   0  0  0  0  0  0  0  0  0  0  0  0
   57.3540   28.8812   43.6667 N   0  0  0  0  0  0  0  0  0  0  0  0
   56.9769   28.8841   42.7573 H   0  0  0  0  0  0  0  0  0  0  0  0
   57.9717   25.2333   45.9603 C   0  0  0  0  0  0  0  0  0  0  0  0
   58.5816   24.0395   45.8630 N   0  0  0  0  0  0  0  0  0  0  0  0
   57.5541   23.1620   45.8396 C   0  0  0  0  0  0  0  0  0  0  0  0
   57.7256   21.9199   45.7401 O   0  0  0  0  0  0  0  0  0  0  0  0
   56.3295   23.7207   45.9438 N   0  0  0  0  0  0  0  0  0  0  0  0
   56.6104   25.0309   46.0336 C   0  0  0  0  0  0  0  0  0  0  0  0
   55.6443   26.0143   46.2123 O   0  0  0  0  0  0  0  0  0  0  0  0
   59.0840   28.9937   47.6175 C   0  0  0  0  0  0  0  0  0  0  0  0
   60.0319   30.1535   47.8084 C   0  0  0  0  0  0  0  0  0  0  0  0
   60.0057   31.2484   46.9298 C   0  0  0  0  0  0  0  0  0  0  0  0
   60.9039   32.3073   47.0967 C   0  0  0  0  0  0  0  0  0  0  0  0
   61.8365   32.2788   48.1400 C   0  0  0  0  0  0  0  0  0  0  0  0
   62.9627   33.6074   48.3468 Cl  0  0  0  0  0  0  0  0  0  0  0  0
   61.8704   31.1893   49.0143 C   0  0  0  0  0  0  0  0  0  0  0  0
   60.9751   30.1285   48.8500 C   0  0  0  0  0  0  0  0  0  0  0  0
  1  2  2  0
  2  3  1  0
  3  4  2  0
  4 11  1  0
 11 12  1  0
 12 13  1  0
 13 14  2  0
 13 15  1  0
 15 16  1  0
 16 17  1  0
  3  5  1  0
  5 18  1  0
 18 19  1  0
 19 20  2  0
 20 21  1  0
 21 22  2  0
 22 23  1  0
 22 24  1  0
 24 25  2  0
  5  6  2  0
  6  7  1  0
  7  8  2  0
  7  9  1  0
  9  2  1  0
 16 11  2  0
 25 19  1  0
  9 10  1  0
M  CHG 1  12  -1
M  CHG 1  15  -1
M  CHG 1  17  -1
M  END
> <UniqueID>
27

> <SMILES>
C=c1[nH]c(=O)cc(Cc2ccc(Cl)cc2)/c1=C/c1[n-]c(=O)[n-]c1[O-]

> <Energy>
96.37366191055143

> <Genealogy>
C=c1[nH]c(=O)cc(Cc2ccc(Cl)cc2)c1=Cc1[n-]c(=O)[n-]c1[O-] (protonated)
C=c1[nH]c(=O)cc(Cc2ccc(Cl)cc2)/c1=C/c1[n-]c(=O)[n-]c1[O-] (cis-trans isomerization)
C=c1[nH]c(=O)cc(Cc2ccc(Cl)cc2)/c1=C/c1[n-]c(=O)[n-]c1[O-] (3D coordinates assigned)
C=c1[nH]c(=O)cc(Cc2ccc(Cl)cc2)/c1=C/c1[n-]c(=O)[n-]c1[O-] (optimized conformer: 96.37366191055143 kcal/mol)

> <smiles>
C=c1[nH]c(=O)cc(Cc2ccc(Cl)cc2)c1=Cc1[nH]c(=O)[nH]c1O

> <score_type>
oracle

> <origin>
adg

> <m_score__min__energy>
-15.890000000000001

> <m_primary>
energy

> <minimizedAffinity>
-8.21794

> <minimizedRMSD>
1.25907

> <CNNscore>
0.2751721740

> <CNNaffinity>
6.5530800819

> <CNN_VS>
1.8032252789

> <CNNaffinity_variance>
0.1634910852

$$$$
40:0


 25 27  0  0  0  0  0  0  0  0999 V2000
   57.8779   32.9211   45.5457 C   0  0  0  0  0  0  0  0  0  0  0  0
   57.5181   34.0426   45.1000 O   0  0  0  0  0  0  0  0  0  0  0  0
   58.9016   30.5778   47.1993 O   0  0  0  0  0  0  0  0  0  0  0  0
   59.6153   31.7656   47.0488 C   0  0  0  0  0  0  0  0  0  0  0  0
   59.1607   32.8277   46.2596 C   0  0  0  0  0  0  0  0  0  0  0  0
   60.3507   34.0264   46.2061 S   0  0  0  0  0  0  0  0  0  0  0  0
   61.4089   33.2411   47.2459 C   0  0  0  0  0  0  0  0  0  0  0  0
   62.6370   33.6944   47.7179 C   0  0  0  0  0  0  0  0  0  0  0  0
   63.3487   32.8762   48.6075 C   0  0  0  0  0  0  0  0  0  0  0  0
   62.8239   31.6303   48.9999 C   0  0  0  0  0  0  0  0  0  0  0  0
   61.5827   31.1922   48.5093 C   0  0  0  0  0  0  0  0  0  0  0  0
   60.8729   32.0175   47.6269 C   0  0  0  0  0  0  0  0  0  0  0  0
   58.0671   30.4770   46.7853 H   0  0  0  0  0  0  0  0  0  0  0  0
   56.9851   31.8064   45.3990 N   0  0  0  0  0  0  0  0  0  0  0  0
   56.9774   30.8150   44.3241 C   0  0  0  0  0  0  0  0  0  0  0  0
   57.8438   29.6401   44.6574 C   0  0  0  0  0  0  0  0  0  0  0  0
   59.0352   29.6129   44.2514 O   0  0  0  0  0  0  0  0  0  0  0  0
   57.3426   28.6384   45.5552 N   0  0  0  0  0  0  0  0  0  0  0  0
   57.8226   27.4685   45.8788 C   0  0  0  0  0  0  0  0  0  0  0  0
   59.1670   27.3826   46.0835 N   0  0  0  0  0  0  0  0  0  0  0  0
   59.7835   26.2303   46.4556 C   0  0  0  0  0  0  0  0  0  0  0  0
   59.0364   25.0721   46.6459 C   0  0  0  0  0  0  0  0  0  0  0  0
   57.6562   25.1155   46.4616 C   0  0  0  0  0  0  0  0  0  0  0  0
   57.0297   26.3097   46.0919 C   0  0  0  0  0  0  0  0  0  0  0  0
   55.6448   26.3188   46.0017 O   0  0  0  0  0  0  0  0  0  0  0  0
  3  4  1  0
  4  5  2  0
  5  1  1  0
  1  2  2  0
  1 14  1  0
 14 15  1  0
 15 16  1  0
 16 17  2  0
 16 18  1  0
 18 19  2  0
 19 20  1  0
 20 21  1  0
 21 22  2  0
 22 23  1  0
 23 24  2  0
 24 25  1  0
  5  6  1  0
  6  7  1  0
  7  8  2  0
  8  9  1  0
  9 10  2  0
 10 11  1  0
 11 12  2  0
 12  4  1  0
 24 19  1  0
 12  7  1  0
  3 13  1  0
M  CHG 1  14  -1
M  CHG 1  20  -1
M  CHG 1  25  -1
M  END
> <UniqueID>
39

> <SMILES>
O=C(C[N-]C(=O)c1sc2ccccc2c1O)/N=c1/[n-]cccc1[O-]

> <Energy>
79.6309701151265

> <Genealogy>
O=C(C[N-]C(=O)c1sc2ccccc2c1O)N=c1[n-]cccc1[O-] (protonated)
O=C(C[N-]C(=O)c1sc2ccccc2c1O)/N=c1/[n-]cccc1[O-] (cis-trans isomerization)
O=C(C[N-]C(=O)c1sc2ccccc2c1O)/N=c1/[n-]cccc1[O-] (3D coordinates assigned)
O=C(C[N-]C(=O)c1sc2ccccc2c1O)/N=c1/[n-]cccc1[O-] (optimized conformer: 79.6309701151265 kcal/mol)

> <smiles>
O=C(CNC(=O)c1sc2ccccc2c1O)N=c1[nH]cccc1O

> <score_type>
oracle

> <origin>
adg

> <m_score__min__energy>
-14.140000000000001

> <m_primary>
energy

> <minimizedAffinity>
-6.87991

> <minimizedRMSD>
0.80413

> <CNNscore>
0.3762305677

> <CNNaffinity>
6.0891461372

> <CNN_VS>
2.2909228802

> <CNNaffinity_variance>
0.3133389652

$$$$
46:0


 31 33  0  0  0  0  0  0  0  0999 V2000
   58.7662   27.1553   47.8751 N   0  0  0  0  0  0  0  0  0  0  0  0
   59.9469   27.7084   48.4846 C   0  0  0  0  0  0  0  0  0  0  0  0
   61.0084   27.0293   48.5000 O   0  0  0  0  0  0  0  0  0  0  0  0
   57.9773   27.7331   47.7609 H   0  0  0  0  0  0  0  0  0  0  0  0
   59.9385   29.0541   49.1186 C   0  0  0  0  0  0  0  0  0  0  0  0
   59.1014   29.3437   50.2117 C   0  0  0  0  0  0  0  0  0  0  0  0
   59.0854   30.6340   50.7666 C   0  0  0  0  0  0  0  0  0  0  0  0
   59.8935   31.6494   50.2344 C   0  0  0  0  0  0  0  0  0  0  0  0
   60.7255   31.3827   49.1394 C   0  0  0  0  0  0  0  0  0  0  0  0
   60.7536   30.0829   48.5956 C   0  0  0  0  0  0  0  0  0  0  0  0
   61.6857   32.6794   48.4119 S   0  0  0  0  0  0  0  0  0  0  0  0
   62.6237   32.0921   47.3900 O   0  0  0  0  0  0  0  0  0  0  0  0
   62.5163   33.3417   49.4771 O   0  0  0  0  0  0  0  0  0  0  0  0
   60.6587   33.8822   47.6505 N   0  0  0  0  0  0  0  0  0  0  0  0
   60.6920   33.7384   46.1740 C   0  0  0  0  0  0  0  0  0  0  0  0
   59.4980   34.4329   45.5034 C   0  0  0  0  0  0  0  0  0  0  0  0
   58.1619   33.8299   45.9720 C   0  0  0  0  0  0  0  0  0  0  0  0
   58.2640   33.1605   47.3552 C   0  0  0  0  0  0  0  0  0  0  0  0
   59.2977   33.8817   48.2402 C   0  0  0  0  0  0  0  0  0  0  0  0
   58.6936   25.7666   47.4186 C   0  0  0  0  0  0  0  0  0  0  0  0
   57.2456   25.3245   47.1902 C   0  0  0  0  0  0  0  0  0  0  0  0
   56.6189   26.0846   46.0530 C   0  0  0  0  0  0  0  0  0  0  0  0
   55.3592   26.0835   45.9169 O   0  0  0  0  0  0  0  0  0  0  0  0
   60.1082   29.0563   44.9711 C   0  0  0  0  0  0  0  0  0  0  0  0
   59.3977   27.8865   44.9726 N   0  0  0  0  0  0  0  0  0  0  0  0
   58.0342   27.8451   45.0507 C   0  0  0  0  0  0  0  0  0  0  0  0
   57.4438   26.6713   45.0357 N   0  0  0  0  0  0  0  0  0  0  0  0
   57.3238   29.0737   45.0993 C   0  0  0  0  0  0  0  0  0  0  0  0
   55.9281   29.1229   45.0722 O   0  0  0  0  0  0  0  0  0  0  0  0
   58.0419   30.2813   45.0970 C   0  0  0  0  0  0  0  0  0  0  0  0
   59.4382   30.2763   45.0314 C   0  0  0  0  0  0  0  0  0  0  0  0
 24 25  1  0
 25 26  1  0
 26 27  2  0
 27 22  1  0
 22 23  2  0
 22 21  1  0
 21 20  1  0
 20  1  1  0
  1  2  1  0
  2  3  2  0
  2  5  1  0
  5  6  2  0
  6  7  1  0
  7  8  2  0
  8  9  1  0
  9 11  1  0
 11 12  2  0
 11 13  2  0
 11 14  1  0
 14 15  1  0
 15 16  1  0
 16 17  1  0
 17 18  1  0
 18 19  1  0
  9 10  2  0
 26 28  1  0
 28 29  1  0
 28 30  2  0
 30 31  1  0
 31 24  2  0
 10  5  1  0
 19 14  1  0
  1  4  1  0
M  CHG 1  25  -1
M  CHG 1  29  -1
M  END
> <UniqueID>
45

> <SMILES>
O=C(CCNC(=O)c1cccc(S(=O)(=O)N2CCCCC2)c1)/N=c1/[n-]cccc1[O-]

> <Energy>
67.6290186684417

> <Genealogy>
O=C(CCNC(=O)c1cccc(S(=O)(=O)N2CCCCC2)c1)N=c1[n-]cccc1[O-] (protonated)
O=C(CCNC(=O)c1cccc(S(=O)(=O)N2CCCCC2)c1)/N=c1/[n-]cccc1[O-] (cis-trans isomerization)
O=C(CCNC(=O)c1cccc(S(=O)(=O)N2CCCCC2)c1)/N=c1/[n-]cccc1[O-] (3D coordinates assigned)
O=C(CCNC(=O)c1cccc(S(=O)(=O)N2CCCCC2)c1)/N=c1/[n-]cccc1[O-] (nonaromatic ring conformer: 67.6290186684417 kcal/mol)

> <smiles>
O=C(CCNC(=O)c1cccc(S(=O)(=O)N2CCCCC2)c1)N=c1[nH]cccc1O

> <score_type>
oracle

> <origin>
adg

> <m_score__min__energy>
-14.15

> <m_primary>
energy

> <minimizedAffinity>
-6.17583

> <minimizedRMSD>
0.83235

> <CNNscore>
0.2791436613

> <CNNaffinity>
6.4611535072

> <CNN_VS>
1.8035900593

> <CNNaffinity_variance>
0.1138732955

$$$$
47:0


 23 24  0  0  0  0  0  0  0  0999 V2000
   55.8269   29.2052   54.1702 C   0  0  0  0  0  0  0  0  0  0  0  0
   55.9615   27.9907   53.8669 O   0  0  0  0  0  0  0  0  0  0  0  0
   56.6939   30.1929   53.5757 N   0  0  0  0  0  0  0  0  0  0  0  0
   56.1386   31.1732   52.6344 C   0  0  0  0  0  0  0  0  0  0  0  0
   54.7952   29.5690   55.1604 C   0  0  0  0  0  0  0  0  0  0  0  0
   53.4820   29.6638   54.8967 C   0  0  0  0  0  0  0  0  0  0  0  0
   52.9060   30.2226   53.6525 C   0  0  0  0  0  0  0  0  0  0  0  0
   53.2539   29.7165   52.3870 C   0  0  0  0  0  0  0  0  0  0  0  0
   52.6831   30.2566   51.2310 C   0  0  0  0  0  0  0  0  0  0  0  0
   51.7441   31.2877   51.3274 C   0  0  0  0  0  0  0  0  0  0  0  0
   51.1829   31.8221   50.1741 O   0  0  0  0  0  0  0  0  0  0  0  0
   51.3663   31.7734   52.5853 C   0  0  0  0  0  0  0  0  0  0  0  0
   50.4259   32.7915   52.6869 O   0  0  0  0  0  0  0  0  0  0  0  0
   51.9378   31.2346   53.7422 C   0  0  0  0  0  0  0  0  0  0  0  0
   58.1165   30.2498   53.9449 C   0  0  0  0  0  0  0  0  0  0  0  0
   58.8455   31.3160   53.1604 C   0  0  0  0  0  0  0  0  0  0  0  0
   58.8855   32.6351   53.6461 C   0  0  0  0  0  0  0  0  0  0  0  0
   59.5759   33.6279   52.9478 C   0  0  0  0  0  0  0  0  0  0  0  0
   60.2326   33.3178   51.7554 C   0  0  0  0  0  0  0  0  0  0  0  0
   60.1961   32.0130   51.2558 C   0  0  0  0  0  0  0  0  0  0  0  0
   60.8474   31.7131   50.0653 O   0  0  0  0  0  0  0  0  0  0  0  0
   59.5039   31.0114   51.9509 C   0  0  0  0  0  0  0  0  0  0  0  0
   59.4667   29.7236   51.4285 O   0  0  0  0  0  0  0  0  0  0  0  0
  5  1  1  0
  1  2  2  0
  1  3  1  0
  3  4  1  0
  3 15  1  0
 15 16  1  0
 16 17  2  0
 17 18  1  0
 18 19  2  0
 19 20  1  0
 20 21  1  0
 20 22  2  0
 22 23  1  0
  5  6  2  0
  6  7  1  0
  7  8  2  0
  8  9  1  0
  9 10  2  0
 10 11  1  0
 10 12  1  0
 12 13  1  0
 12 14  2  0
 22 16  1  0
 14  7  1  0
M  CHG 1  11  -1
M  CHG 1  13  -1
M  CHG 1  21  -1
M  CHG 1  23  -1
M  END
> <UniqueID>
46

> <SMILES>
CN(Cc1cccc([O-])c1[O-])C(=O)/C=C\c1ccc([O-])c([O-])c1

> <Energy>
46.445256284126394

> <Genealogy>
CN(Cc1cccc([O-])c1[O-])C(=O)C=Cc1ccc([O-])c([O-])c1 (protonated)
CN(Cc1cccc([O-])c1[O-])C(=O)/C=C\c1ccc([O-])c([O-])c1 (cis-trans isomerization)
CN(Cc1cccc([O-])c1[O-])C(=O)/C=C\c1ccc([O-])c([O-])c1 (3D coordinates assigned)
CN(Cc1cccc([O-])c1[O-])C(=O)/C=C\c1ccc([O-])c([O-])c1 (optimized conformer: 46.445256284126394 kcal/mol)

> <smiles>
CN(Cc1cccc(O)c1O)C(=O)C=Cc1ccc(O)c(O)c1

> <score_type>
oracle

> <origin>
adg

> <m_score__min__energy>
-16.859999999999999

> <m_primary>
energy

> <minimizedAffinity>
-4.95346

> <minimizedRMSD>
1.29679

> <CNNscore>
0.2394242436

> <CNNaffinity>
4.1881194115

> <CNN_VS>
1.0027372837

> <CNNaffinity_variance>
0.3598455489

$$$$
58:0


 36 39  0  0  0  0  0  0  0  0999 V2000
   58.7363   30.9816   46.0900 C   0  0  0  0  0  0  0  0  0  0  0  0
   58.6409   32.1415   45.3119 C   0  0  0  0  0  0  0  0  0  0  0  0
   58.9829   33.3811   45.8597 C   0  0  0  0  0  0  0  0  0  0  0  0
   59.4011   33.4718   47.1915 C   0  0  0  0  0  0  0  0  0  0  0  0
   59.4788   32.3171   47.9892 C   0  0  0  0  0  0  0  0  0  0  0  0
   59.1666   31.0712   47.4202 C   0  0  0  0  0  0  0  0  0  0  0  0
   59.8887   32.4090   49.4100 C   0  0  0  0  0  0  0  0  0  0  0  0
   59.0115   32.3394   50.3136 O   0  0  0  0  0  0  0  0  0  0  0  0
   61.2689   32.5912   49.7762 N   0  0  0  0  0  0  0  0  0  0  0  0
   62.2942   31.6853   49.2364 C   0  0  0  0  0  0  0  0  0  0  0  0
   63.5965   32.4511   49.0055 C   0  0  0  0  0  0  0  0  0  0  0  0
   63.9342   33.2041   50.2168 N   0  0  0  0  0  0  0  0  0  0  0  0
   65.0349   32.7942   51.0464 C   0  0  0  0  0  0  0  0  0  0  0  0
   64.8387   32.5498   52.2664 O   0  0  0  0  0  0  0  0  0  0  0  0
   62.9231   34.1309   50.7359 C   0  0  0  0  0  0  0  0  0  0  0  0
   61.6066   33.3851   50.9624 C   0  0  0  0  0  0  0  0  0  0  0  0
   66.4306   32.6780   50.4778 C   0  0  0  0  0  0  0  0  0  0  0  0
   67.2490   31.6378   51.1359 N   0  0  0  0  0  0  0  0  0  0  0  0
   66.4790   30.4192   51.4402 C   0  0  0  0  0  0  0  0  0  0  0  0
   67.9400   32.1426   52.3345 C   0  0  0  0  0  0  0  0  0  0  0  0
   58.3641   26.1484   45.1884 C   0  0  0  0  0  0  0  0  0  0  0  0
   58.2228   27.4879   45.1644 C   0  0  0  0  0  0  0  0  0  0  0  0
   57.2037   28.1189   44.4695 C   0  0  0  0  0  0  0  0  0  0  0  0
   57.3057   29.4664   44.7467 C   0  0  0  0  0  0  0  0  0  0  0  0
   56.3661   30.5150   44.2373 C   0  0  0  0  0  0  0  0  0  0  0  0
   58.3674   29.7033   45.5459 N   0  0  0  0  0  0  0  0  0  0  0  0
   58.9586   28.5070   45.7919 C   0  0  0  0  0  0  0  0  0  0  0  0
   60.1321   28.3889   46.4328 C   0  0  0  0  0  0  0  0  0  0  0  0
   55.3783   26.4226   46.0342 O   0  0  0  0  0  0  0  0  0  0  0  0
   56.2097   25.3431   46.3169 C   0  0  0  0  0  0  0  0  0  0  0  0
   55.7937   24.2446   46.9699 N   0  0  0  0  0  0  0  0  0  0  0  0
   56.8916   23.4614   46.9685 C   0  0  0  0  0  0  0  0  0  0  0  0
   56.9068   22.3110   47.4884 O   0  0  0  0  0  0  0  0  0  0  0  0
   57.9724   23.9989   46.3581 N   0  0  0  0  0  0  0  0  0  0  0  0
   57.5421   25.2112   45.9714 C   0  0  0  0  0  0  0  0  0  0  0  0
   54.4846   26.4118   46.3155 H   0  0  0  0  0  0  0  0  0  0  0  0
 29 30  1  0
 30 31  1  0
 31 32  1  0
 32 33  2  0
 32 34  1  0
 34 35  1  0
 35 21  1  0
 21 22  2  0
 22 23  1  0
 23 24  2  0
 24 25  1  0
 24 26  1  0
 26  1  1  0
  1  2  2  0
  2  3  1  0
  3  4  2  0
  4  5  1  0
  5  7  1  0
  7  8  2  0
  7  9  1  0
  9 10  1  0
 10 11  1  0
 11 12  1  0
 12 13  1  0
 13 14  2  0
 13 17  1  0
 17 18  1  0
 18 19  1  0
 18 20  1  0
 12 15  1  0
 15 16  1  0
  5  6  2  0
 26 27  1  0
 27 28  2  0
 35 30  2  0
 27 22  1  0
  6  1  1  0
 16  9  1  0
 29 36  1  0
M  CHG 1  31  -1
M  CHG 1  34  -1
M  END
> <UniqueID>
56

> <SMILES>
C=c1/c(=C\c2[n-]c(=O)[n-]c2O)cc(C)n1-c1cccc(C(=O)N2CCN(C(=O)CN(C)C)CC2)c1

> <Energy>
148.5871670794481

> <Genealogy>
C=c1c(=Cc2[n-]c(=O)[n-]c2O)cc(C)n1-c1cccc(C(=O)N2CCN(C(=O)CN(C)C)CC2)c1 (protonated)
C=c1/c(=C\c2[n-]c(=O)[n-]c2O)cc(C)n1-c1cccc(C(=O)N2CCN(C(=O)CN(C)C)CC2)c1 (cis-trans isomerization)
C=c1/c(=C\c2[n-]c(=O)[n-]c2O)cc(C)n1-c1cccc(C(=O)N2CCN(C(=O)CN(C)C)CC2)c1 (3D coordinates assigned)
C=c1/c(=C\c2[n-]c(=O)[n-]c2O)cc(C)n1-c1cccc(C(=O)N2CCN(C(=O)CN(C)C)CC2)c1 (nonaromatic ring conformer: 148.5871670794481 kcal/mol)

> <smiles>
C=c1c(=Cc2[nH]c(=O)[nH]c2O)cc(C)n1-c1cccc(C(=O)N2CCN(C(=O)CN(C)C)CC2)c1

> <score_type>
oracle

> <origin>
adg

> <m_score__min__energy>
-14.130000000000001

> <m_primary>
energy

> <minimizedAffinity>
-9.50936

> <minimizedRMSD>
0.64929

> <CNNscore>
0.4354079664

> <CNNaffinity>
7.0757293701

> <CNN_VS>
3.0808289051

> <CNNaffinity_variance>
0.0700322166

$$$$
60:0


 29 31  0  0  0  0  0  0  0  0999 V2000
   60.4015   29.2265   48.0894 C   0  0  0  0  0  0  0  0  0  0  0  0
   59.8420   30.0300   47.1716 C   0  0  0  0  0  0  0  0  0  0  0  0
   59.2799   29.6575   45.9381 C   0  0  0  0  0  0  0  0  0  0  0  0
   59.2783   28.4788   45.2820 C   0  0  0  0  0  0  0  0  0  0  0  0
   58.6652   30.7931   45.4352 C   0  0  0  0  0  0  0  0  0  0  0  0
   58.9136   31.8145   46.3283 C   0  0  0  0  0  0  0  0  0  0  0  0
   58.4352   33.2252   46.1632 C   0  0  0  0  0  0  0  0  0  0  0  0
   59.6257   31.3559   47.3802 N   0  0  0  0  0  0  0  0  0  0  0  0
   58.6639   27.2250   45.7635 C   0  0  0  0  0  0  0  0  0  0  0  0
   57.2756   27.0492   45.6957 C   0  0  0  0  0  0  0  0  0  0  0  0
   56.4527   28.0632   45.2140 O   0  0  0  0  0  0  0  0  0  0  0  0
   56.7185   25.8837   46.1124 N   0  0  0  0  0  0  0  0  0  0  0  0
   57.4890   24.8705   46.5833 C   0  0  0  0  0  0  0  0  0  0  0  0
   56.9524   23.8018   46.9698 O   0  0  0  0  0  0  0  0  0  0  0  0
   58.8402   25.0071   46.6333 N   0  0  0  0  0  0  0  0  0  0  0  0
   59.4443   26.1533   46.2284 C   0  0  0  0  0  0  0  0  0  0  0  0
   60.7023   26.2406   46.2705 O   0  0  0  0  0  0  0  0  0  0  0  0
   60.0628   32.1408   48.5055 C   0  0  0  0  0  0  0  0  0  0  0  0
   61.2122   32.9379   48.4101 C   0  0  0  0  0  0  0  0  0  0  0  0
   61.6286   33.7019   49.5026 C   0  0  0  0  0  0  0  0  0  0  0  0
   60.9035   33.6746   50.6975 C   0  0  0  0  0  0  0  0  0  0  0  0
   59.7549   32.8704   50.8155 C   0  0  0  0  0  0  0  0  0  0  0  0
   59.3410   32.1081   49.7090 C   0  0  0  0  0  0  0  0  0  0  0  0
   59.0010   32.8496   52.0454 N   0  0  0  0  0  0  0  0  0  0  0  0
   58.7678   34.0919   52.7841 C   0  0  0  0  0  0  0  0  0  0  0  0
   58.3698   31.3546   52.6823 S   0  0  0  0  0  0  0  0  0  0  0  0
   58.0925   31.5149   54.4354 C   0  0  0  0  0  0  0  0  0  0  0  0
   59.3525   30.2501   52.4296 O   0  0  0  0  0  0  0  0  0  0  0  0
   57.0743   31.0050   51.9981 O   0  0  0  0  0  0  0  0  0  0  0  0
  1  2  2  0
  2  3  1  0
  3  4  2  0
  4  9  1  0
  9 10  2  0
 10 11  1  0
 10 12  1  0
 12 13  1  0
 13 14  2  0
 13 15  1  0
 15 16  1  0
 16 17  2  0
  3  5  1  0
  5  6  2  0
  6  7  1  0
  6  8  1  0
  8 18  1  0
 18 19  2  0
 19 20  1  0
 20 21  2  0
 21 22  1  0
 22 24  1  0
 24 25  1  0
 24 26  1  0
 26 27  1  0
 26 28  2  0
 26 29  2  0
 22 23  2  0
  8  2  1  0
 23 18  1  0
 16  9  1  0
M  CHG 1  11  -1
M  CHG 1  12  -1
M  CHG 1  15  -1
M  END
> <UniqueID>
58

> <SMILES>
C=c1c(=Cc2c([O-])[n-]c(=O)[n-]c2=O)cc(C)n1-c1cccc(N(C)S(C)(=O)=O)c1

> <Energy>
96.82216639635045

> <Genealogy>
C=c1c(=Cc2c([O-])[n-]c(=O)[n-]c2=O)cc(C)n1-c1cccc(N(C)S(C)(=O)=O)c1 (protonated)
C=c1c(=Cc2c([O-])[n-]c(=O)[n-]c2=O)cc(C)n1-c1cccc(N(C)S(C)(=O)=O)c1 (3D coordinates assigned)
C=c1c(=Cc2c([O-])[n-]c(=O)[n-]c2=O)cc(C)n1-c1cccc(N(C)S(C)(=O)=O)c1 (optimized conformer: 96.82216639635045 kcal/mol)

> <smiles>
C=c1c(=Cc2c(O)[nH]c(=O)[nH]c2=O)cc(C)n1-c1cccc(N(C)S(C)(=O)=O)c1

> <score_type>
oracle

> <origin>
adg

> <m_score__min__energy>
-16.41

> <m_primary>
energy

> <minimizedAffinity>
-7.16156

> <minimizedRMSD>
1.24493

> <CNNscore>
0.5612791181

> <CNNaffinity>
7.0784640312

> <CNN_VS>
3.9729940891

> <CNNaffinity_variance>
0.2944386303

$$$$
61:0


 30 33  0  0  0  0  0  0  0  0999 V2000
   55.7383   27.6114   53.9015 C   0  0  0  0  0  0  0  0  0  0  0  0
   55.7620   28.7739   54.5745 C   0  0  0  0  0  0  0  0  0  0  0  0
   54.6455   29.4534   55.0930 C   0  0  0  0  0  0  0  0  0  0  0  0
   53.3259   29.2738   54.8906 C   0  0  0  0  0  0  0  0  0  0  0  0
   55.1439   30.4592   55.8986 C   0  0  0  0  0  0  0  0  0  0  0  0
   56.5177   30.4100   55.7993 C   0  0  0  0  0  0  0  0  0  0  0  0
   57.4388   31.3991   56.4504 C   0  0  0  0  0  0  0  0  0  0  0  0
   56.9027   29.3992   54.9841 N   0  0  0  0  0  0  0  0  0  0  0  0
   52.5676   29.7417   53.7190 C   0  0  0  0  0  0  0  0  0  0  0  0
   51.6613   30.7772   53.6971 C   0  0  0  0  0  0  0  0  0  0  0  0
   51.2123   31.4830   54.8046 O   0  0  0  0  0  0  0  0  0  0  0  0
   51.2634   31.0296   52.4351 N   0  0  0  0  0  0  0  0  0  0  0  0
   51.9728   30.1366   51.7124 C   0  0  0  0  0  0  0  0  0  0  0  0
   51.8956   30.0569   50.4590 O   0  0  0  0  0  0  0  0  0  0  0  0
   52.7821   29.3517   52.4499 N   0  0  0  0  0  0  0  0  0  0  0  0
   53.3939   28.6494   52.1311 H   0  0  0  0  0  0  0  0  0  0  0  0
   58.2991   29.0877   54.6278 C   0  0  0  0  0  0  0  0  0  0  0  0
   58.7382   29.8957   53.4336 C   0  0  0  0  0  0  0  0  0  0  0  0
   58.1208   29.7063   52.1873 C   0  0  0  0  0  0  0  0  0  0  0  0
   58.5332   30.4391   51.0720 C   0  0  0  0  0  0  0  0  0  0  0  0
   59.5701   31.3787   51.1817 C   0  0  0  0  0  0  0  0  0  0  0  0
   60.1784   31.5806   52.4312 C   0  0  0  0  0  0  0  0  0  0  0  0
   59.7697   30.8463   53.5489 C   0  0  0  0  0  0  0  0  0  0  0  0
   60.3785   31.0681   54.7386 F   0  0  0  0  0  0  0  0  0  0  0  0
   59.9858   32.1374   50.0309 N   0  0  0  0  0  0  0  0  0  0  0  0
   59.3837   31.8822   48.7157 C   0  0  0  0  0  0  0  0  0  0  0  0
   59.2449   33.1873   47.8956 C   0  0  0  0  0  0  0  0  0  0  0  0
   59.8803   34.3074   48.4932 O   0  0  0  0  0  0  0  0  0  0  0  0
   61.1862   33.9645   48.8991 C   0  0  0  0  0  0  0  0  0  0  0  0
   61.1138   33.0706   50.1394 C   0  0  0  0  0  0  0  0  0  0  0  0
  1  2  2  0
  2  3  1  0
  3  4  2  0
  4  9  1  0
  9 10  2  0
 10 11  1  0
 10 12  1  0
 12 13  1  0
 13 14  2  0
 13 15  1  0
  3  5  1  0
  5  6  2  0
  6  7  1  0
  6  8  1  0
  8 17  1  0
 17 18  1  0
 18 19  2  0
 19 20  1  0
 20 21  2  0
 21 25  1  0
 25 26  1  0
 26 27  1  0
 27 28  1  0
 28 29  1  0
 29 30  1  0
 21 22  1  0
 22 23  2  0
 23 24  1  0
  8  2  1  0
 23 18  1  0
 15  9  1  0
 30 25  1  0
 15 16  1  0
M  CHG 1  11  -1
M  CHG 1  12  -1
M  END
> <UniqueID>
59

> <SMILES>
C=c1/c(=C\c2[nH]c(=O)[n-]c2[O-])cc(C)n1Cc1ccc(N2CCOCC2)cc1F

> <Energy>
134.68479882144334

> <Genealogy>
C=c1c(=Cc2[nH]c(=O)[n-]c2[O-])cc(C)n1Cc1ccc(N2CCOCC2)cc1F (protonated)
C=c1/c(=C\c2[nH]c(=O)[n-]c2[O-])cc(C)n1Cc1ccc(N2CCOCC2)cc1F (cis-trans isomerization)
C=c1/c(=C\c2[nH]c(=O)[n-]c2[O-])cc(C)n1Cc1ccc(N2CCOCC2)cc1F (3D coordinates assigned)
C=c1/c(=C\c2[nH]c(=O)[n-]c2[O-])cc(C)n1Cc1ccc(N2CCOCC2)cc1F (nonaromatic ring conformer: 134.68479882144334 kcal/mol)

> <smiles>
C=c1c(=Cc2[nH]c(=O)[nH]c2O)cc(C)n1Cc1ccc(N2CCOCC2)cc1F

> <score_type>
oracle

> <origin>
adg

> <m_score__min__energy>
-14.25

> <m_primary>
energy

> <minimizedAffinity>
-5.86204

> <minimizedRMSD>
2.75818

> <CNNscore>
0.0771206990

> <CNNaffinity>
5.1247887611

> <CNN_VS>
0.3952272832

> <CNNaffinity_variance>
0.1032897905

$$$$
63:0


 28 30  0  0  0  0  0  0  0  0999 V2000
   60.1854   28.9592   44.6907 C   0  0  0  0  0  0  0  0  0  0  0  0
   59.6217   28.6905   45.8781 C   0  0  0  0  0  0  0  0  0  0  0  0
   58.9052   27.5363   46.2134 C   0  0  0  0  0  0  0  0  0  0  0  0
   58.5622   26.5241   45.3945 C   0  0  0  0  0  0  0  0  0  0  0  0
   58.5765   27.6587   47.5579 C   0  0  0  0  0  0  0  0  0  0  0  0
   59.0927   28.8654   47.9839 C   0  0  0  0  0  0  0  0  0  0  0  0
   59.0014   29.3799   49.3873 C   0  0  0  0  0  0  0  0  0  0  0  0
   59.7234   29.4937   46.9664 N   0  0  0  0  0  0  0  0  0  0  0  0
   57.8054   25.3343   45.8263 C   0  0  0  0  0  0  0  0  0  0  0  0
   58.3798   24.1431   46.0697 N   0  0  0  0  0  0  0  0  0  0  0  0
   57.3540   23.3848   46.5147 C   0  0  0  0  0  0  0  0  0  0  0  0
   57.4945   22.1776   46.8377 O   0  0  0  0  0  0  0  0  0  0  0  0
   56.1675   24.0254   46.5940 N   0  0  0  0  0  0  0  0  0  0  0  0
   56.4721   25.2624   46.1673 C   0  0  0  0  0  0  0  0  0  0  0  0
   55.5601   26.3104   46.1397 O   0  0  0  0  0  0  0  0  0  0  0  0
   60.3834   30.7691   47.0506 C   0  0  0  0  0  0  0  0  0  0  0  0
   59.8054   32.0257   46.9781 C   0  0  0  0  0  0  0  0  0  0  0  0
   60.7622   32.9559   47.1810 N   0  0  0  0  0  0  0  0  0  0  0  0
   61.9049   32.3154   47.3826 N   0  0  0  0  0  0  0  0  0  0  0  0
   63.1817   32.9821   47.5995 C   0  0  0  0  0  0  0  0  0  0  0  0
   61.7169   30.9839   47.3119 C   0  0  0  0  0  0  0  0  0  0  0  0
   58.3488   32.3539   46.8373 C   0  0  0  0  0  0  0  0  0  0  0  0
   58.0440   32.7851   45.4567 N   0  0  0  0  0  0  0  0  0  0  0  0
   58.8050   34.0011   45.1294 C   0  0  0  0  0  0  0  0  0  0  0  0
   58.3080   31.7116   44.4653 C   0  0  0  0  0  0  0  0  0  0  0  0
   57.4148   31.9134   43.2449 C   0  0  0  0  0  0  0  0  0  0  0  0
   58.2139   32.2960   42.1460 O   0  0  0  0  0  0  0  0  0  0  0  0
   57.3962   32.4584   41.0084 C   0  0  0  0  0  0  0  0  0  0  0  0
  1  2  2  0
  2  3  1  0
  3  4  2  0
  4  9  1  0
  9 10  1  0
 10 11  1  0
 11 12  2  0
 11 13  1  0
 13 14  1  0
 14 15  1  0
  3  5  1  0
  5  6  2  0
  6  7  1  0
  6  8  1  0
  8 16  1  0
 16 17  1  0
 17 22  1  0
 22 23  1  0
 23 24  1  0
 23 25  1  0
 25 26  1  0
 26 27  1  0
 27 28  1  0
 17 18  2  0
 18 19  1  0
 19 20  1  0
 19 21  1  0
  8  2  1  0
 21 16  2  0
 14  9  2  0
M  CHG 1  10  -1
M  CHG 1  13  -1
M  CHG 1  15  -1
M  END
> <UniqueID>
61

> <SMILES>
C=c1/c(=C/c2[n-]c(=O)[n-]c2[O-])cc(C)n1-c1cn(C)nc1CN(C)CCOC

> <Energy>
150.9267834952987

> <Genealogy>
C=c1c(=Cc2[n-]c(=O)[n-]c2[O-])cc(C)n1-c1cn(C)nc1CN(C)CCOC (protonated)
C=c1/c(=C/c2[n-]c(=O)[n-]c2[O-])cc(C)n1-c1cn(C)nc1CN(C)CCOC (cis-trans isomerization)
C=c1/c(=C/c2[n-]c(=O)[n-]c2[O-])cc(C)n1-c1cn(C)nc1CN(C)CCOC (3D coordinates assigned)
C=c1/c(=C/c2[n-]c(=O)[n-]c2[O-])cc(C)n1-c1cn(C)nc1CN(C)CCOC (optimized conformer: 150.9267834952987 kcal/mol)

> <smiles>
C=c1c(=Cc2[nH]c(=O)[nH]c2O)cc(C)n1-c1cn(C)nc1CN(C)CCOC

> <score_type>
oracle

> <origin>
adg

> <m_score__min__energy>
-15.119999999999999

> <m_primary>
energy

> <minimizedAffinity>
-6.32141

> <minimizedRMSD>
0.58723

> <CNNscore>
0.1160491779

> <CNNaffinity>
6.3049693108

> <CNN_VS>
0.7316865325

> <CNNaffinity_variance>
0.1795566529

$$$$
64:0


 37 41  0  0  0  0  0  0  0  0999 V2000
   58.4610   30.5471   45.8716 C   0  0  0  0  0  0  0  0  0  0  0  0
   57.4934   30.8062   44.8916 C   0  0  0  0  0  0  0  0  0  0  0  0
   57.2784   32.1127   44.4438 C   0  0  0  0  0  0  0  0  0  0  0  0
   58.0147   33.1700   44.9843 C   0  0  0  0  0  0  0  0  0  0  0  0
   58.9675   32.9246   45.9789 C   0  0  0  0  0  0  0  0  0  0  0  0
   59.1892   31.6129   46.4225 C   0  0  0  0  0  0  0  0  0  0  0  0
   59.7294   34.0419   46.5543 C   0  0  0  0  0  0  0  0  0  0  0  0
   59.3974   35.2183   46.2425 O   0  0  0  0  0  0  0  0  0  0  0  0
   60.8489   33.8101   47.4368 N   0  0  0  0  0  0  0  0  0  0  0  0
   60.6371   33.8267   48.8963 C   0  0  0  0  0  0  0  0  0  0  0  0
   61.9582   33.8791   49.6745 C   0  0  0  0  0  0  0  0  0  0  0  0
   62.8831   32.8553   49.1760 N   0  0  0  0  0  0  0  0  0  0  0  0
   63.0169   32.7236   47.7508 C   0  0  0  0  0  0  0  0  0  0  0  0
   63.8099   31.8796   47.2500 O   0  0  0  0  0  0  0  0  0  0  0  0
   62.1912   33.5978   46.8565 C   0  0  0  0  0  0  0  0  0  0  0  0
   63.6960   32.0948   50.0891 C   0  0  0  0  0  0  0  0  0  0  0  0
   63.1459   31.0023   50.7826 C   0  0  0  0  0  0  0  0  0  0  0  0
   63.9300   30.2671   51.6736 C   0  0  0  0  0  0  0  0  0  0  0  0
   65.2693   30.6156   51.8772 C   0  0  0  0  0  0  0  0  0  0  0  0
   65.8231   31.7021   51.1927 C   0  0  0  0  0  0  0  0  0  0  0  0
   65.0406   32.4423   50.3040 C   0  0  0  0  0  0  0  0  0  0  0  0
   58.2453   28.0335   44.2993 C   0  0  0  0  0  0  0  0  0  0  0  0
   58.5985   28.0555   45.5958 C   0  0  0  0  0  0  0  0  0  0  0  0
   58.8433   26.9505   46.4314 C   0  0  0  0  0  0  0  0  0  0  0  0
   58.9025   25.6292   46.1696 C   0  0  0  0  0  0  0  0  0  0  0  0
   59.0443   27.4669   47.7004 C   0  0  0  0  0  0  0  0  0  0  0  0
   58.9553   28.8385   47.5990 C   0  0  0  0  0  0  0  0  0  0  0  0
   59.1110   29.7916   48.7457 C   0  0  0  0  0  0  0  0  0  0  0  0
   58.6955   29.2008   46.3218 N   0  0  0  0  0  0  0  0  0  0  0  0
   57.7525   24.7241   46.0423 C   0  0  0  0  0  0  0  0  0  0  0  0
   57.8636   23.4070   45.7948 N   0  0  0  0  0  0  0  0  0  0  0  0
   56.5805   23.0066   45.6541 C   0  0  0  0  0  0  0  0  0  0  0  0
   56.2643   21.8063   45.4237 O   0  0  0  0  0  0  0  0  0  0  0  0
   55.6634   23.9907   45.7671 N   0  0  0  0  0  0  0  0  0  0  0  0
   56.4229   25.0753   45.9974 C   0  0  0  0  0  0  0  0  0  0  0  0
   55.9173   26.3603   46.1473 O   0  0  0  0  0  0  0  0  0  0  0  0
   54.9932   26.5084   46.1021 H   0  0  0  0  0  0  0  0  0  0  0  0
 22 23  2  0
 23 24  1  0
 24 25  2  0
 25 30  1  0
 30 31  1  0
 31 32  1  0
 32 33  2  0
 32 34  1  0
 34 35  1  0
 35 36  1  0
 24 26  1  0
 26 27  2  0
 27 28  1  0
 27 29  1  0
 29  1  1  0
  1  2  2  0
  2  3  1  0
  3  4  2  0
  4  5  1  0
  5  7  1  0
  7  8  2  0
  7  9  1  0
  9 10  1  0
 10 11  1  0
 11 12  1  0
 12 16  1  0
 16 17  2  0
 17 18  1  0
 18 19  2  0
 19 20  1  0
 20 21  2  0
 12 13  1  0
 13 14  2  0
 13 15  1  0
  5  6  2  0
 29 23  1  0
  6  1  1  0
 35 30  2  0
 15  9  1  0
 21 16  1  0
 36 37  1  0
M  CHG 1  31  -1
M  CHG 1  34  -1
M  END
> <UniqueID>
62

> <SMILES>
C=c1c(=Cc2[n-]c(=O)[n-]c2O)cc(C)n1-c1cccc(C(=O)N2CCN(c3ccccc3)C(=O)C2)c1

> <Energy>
153.8762309275497

> <Genealogy>
C=c1c(=Cc2[n-]c(=O)[n-]c2O)cc(C)n1-c1cccc(C(=O)N2CCN(c3ccccc3)C(=O)C2)c1 (protonated)
C=c1c(=Cc2[n-]c(=O)[n-]c2O)cc(C)n1-c1cccc(C(=O)N2CCN(c3ccccc3)C(=O)C2)c1 (3D coordinates assigned)
C=c1c(=Cc2[n-]c(=O)[n-]c2O)cc(C)n1-c1cccc(C(=O)N2CCN(c3ccccc3)C(=O)C2)c1 (nonaromatic ring conformer: 153.8762309275497 kcal/mol)

> <smiles>
C=c1c(=Cc2[nH]c(=O)[nH]c2O)cc(C)n1-c1cccc(C(=O)N2CCN(c3ccccc3)C(=O)C2)c1

> <score_type>
oracle

> <origin>
adg

> <m_score__min__energy>
-15.73

> <m_primary>
energy

> <minimizedAffinity>
-11.36833

> <minimizedRMSD>
0.76675

> <CNNscore>
0.5542437434

> <CNNaffinity>
7.4801731110

> <CNN_VS>
4.1458392143

> <CNNaffinity_variance>
0.0080792708

$$$$
70:0


 30 33  0  0  0  0  0  0  0  0999 V2000
   56.5766   29.2460   44.3962 C   0  0  0  0  0  0  0  0  0  0  0  0
   57.7616   28.7778   44.8148 C   0  0  0  0  0  0  0  0  0  0  0  0
   58.2221   27.4515   44.7674 C   0  0  0  0  0  0  0  0  0  0  0  0
   57.5774   26.3012   44.4961 C   0  0  0  0  0  0  0  0  0  0  0  0
   59.5714   27.4987   45.0884 C   0  0  0  0  0  0  0  0  0  0  0  0
   59.8661   28.8132   45.3835 C   0  0  0  0  0  0  0  0  0  0  0  0
   61.2178   29.3253   45.7731 C   0  0  0  0  0  0  0  0  0  0  0  0
   58.7703   29.5851   45.2262 N   0  0  0  0  0  0  0  0  0  0  0  0
   58.7378   31.0143   45.3623 C   0  0  0  0  0  0  0  0  0  0  0  0
   59.2341   31.6074   46.5325 C   0  0  0  0  0  0  0  0  0  0  0  0
   59.1896   33.0003   46.6988 C   0  0  0  0  0  0  0  0  0  0  0  0
   58.6741   33.7983   45.6677 C   0  0  0  0  0  0  0  0  0  0  0  0
   58.1807   33.2111   44.4999 C   0  0  0  0  0  0  0  0  0  0  0  0
   58.2052   31.8230   44.3408 C   0  0  0  0  0  0  0  0  0  0  0  0
   57.7063   31.2699   43.1613 O   0  0  0  0  0  0  0  0  0  0  0  0
   57.3562   31.8269   42.4941 H   0  0  0  0  0  0  0  0  0  0  0  0
   59.7311   33.6123   47.9276 C   0  0  0  0  0  0  0  0  0  0  0  0
   58.9566   34.2753   48.6691 O   0  0  0  0  0  0  0  0  0  0  0  0
   61.1189   33.4798   48.2891 N   0  0  0  0  0  0  0  0  0  0  0  0
   62.1924   33.3011   47.3242 C   0  0  0  0  0  0  0  0  0  0  0  0
   63.4803   33.3045   48.1344 C   0  0  0  0  0  0  0  0  0  0  0  0
   63.1231   33.9070   49.4910 C   0  0  0  0  0  0  0  0  0  0  0  0
   61.6113   33.7764   49.6237 C   0  0  0  0  0  0  0  0  0  0  0  0
   57.1940   25.2786   45.4840 C   0  0  0  0  0  0  0  0  0  0  0  0
   57.8953   24.1582   45.7380 N   0  0  0  0  0  0  0  0  0  0  0  0
   57.0971   23.4785   46.5892 C   0  0  0  0  0  0  0  0  0  0  0  0
   57.4181   22.3640   47.0778 O   0  0  0  0  0  0  0  0  0  0  0  0
   55.9206   24.0822   46.8688 N   0  0  0  0  0  0  0  0  0  0  0  0
   55.9947   25.2120   46.1472 C   0  0  0  0  0  0  0  0  0  0  0  0
   54.9813   26.1621   46.0933 O   0  0  0  0  0  0  0  0  0  0  0  0
  1  2  2  0
  2  3  1  0
  3  4  2  0
  4 24  1  0
 24 25  1  0
 25 26  1  0
 26 27  2  0
 26 28  1  0
 28 29  1  0
 29 30  1  0
  3  5  1  0
  5  6  2  0
  6  7  1  0
  6  8  1  0
  8  9  1  0
  9 10  2  0
 10 11  1  0
 11 17  1  0
 17 18  2  0
 17 19  1  0
 19 20  1  0
 20 21  1  0
 21 22  1  0
 22 23  1  0
 11 12  2  0
 12 13  1  0
 13 14  2  0
 14 15  1  0
  8  2  1  0
 14  9  1  0
 29 24  2  0
 23 19  1  0
 15 16  1  0
M  CHG 1  25  -1
M  CHG 1  28  -1
M  CHG 1  30  -1
M  END
> <UniqueID>
68

> <SMILES>
C=c1c(=Cc2[n-]c(=O)[n-]c2[O-])cc(C)n1-c1cc(C(=O)N2CCCC2)ccc1O

> <Energy>
130.64997486896198

> <Genealogy>
C=c1c(=Cc2[n-]c(=O)[n-]c2[O-])cc(C)n1-c1cc(C(=O)N2CCCC2)ccc1O (protonated)
C=c1c(=Cc2[n-]c(=O)[n-]c2[O-])cc(C)n1-c1cc(C(=O)N2CCCC2)ccc1O (3D coordinates assigned)
C=c1c(=Cc2[n-]c(=O)[n-]c2[O-])cc(C)n1-c1cc(C(=O)N2CCCC2)ccc1O (nonaromatic ring conformer: 130.64997486896198 kcal/mol)

> <smiles>
C=c1c(=Cc2[nH]c(=O)[nH]c2O)cc(C)n1-c1cc(C(=O)N2CCCC2)ccc1O

> <score_type>
oracle

> <origin>
adg

> <m_score__min__energy>
-16.52

> <m_primary>
energy

> <minimizedAffinity>
-8.83560

> <minimizedRMSD>
0.52089

> <CNNscore>
0.3407776356

> <CNNaffinity>
7.0227093697

> <CNN_VS>
2.3931822777

> <CNNaffinity_variance>
0.0595645718

$$$$
71:0


 33 36  0  0  0  0  0  0  0  0999 V2000
   59.5000   27.8172   47.4759 C   0  0  0  0  0  0  0  0  0  0  0  0
   60.3452   27.1955   48.4007 C   0  0  0  0  0  0  0  0  0  0  0  0
   60.8738   27.9160   49.4734 C   0  0  0  0  0  0  0  0  0  0  0  0
   60.5539   29.2782   49.6506 C   0  0  0  0  0  0  0  0  0  0  0  0
   59.7035   29.8983   48.7130 C   0  0  0  0  0  0  0  0  0  0  0  0
   59.1789   29.1766   47.6313 C   0  0  0  0  0  0  0  0  0  0  0  0
   57.8400   25.3748   47.6056 C   0  0  0  0  0  0  0  0  0  0  0  0
   58.2512   25.9108   46.4450 C   0  0  0  0  0  0  0  0  0  0  0  0
   57.9002   25.5081   45.1447 C   0  0  0  0  0  0  0  0  0  0  0  0
   57.2568   24.4109   44.7020 C   0  0  0  0  0  0  0  0  0  0  0  0
   58.3723   26.4956   44.2930 C   0  0  0  0  0  0  0  0  0  0  0  0
   59.0320   27.4197   45.0767 C   0  0  0  0  0  0  0  0  0  0  0  0
   59.7445   28.6331   44.5631 C   0  0  0  0  0  0  0  0  0  0  0  0
   58.9721   27.0577   46.3756 N   0  0  0  0  0  0  0  0  0  0  0  0
   56.0737   23.7979   45.3300 C   0  0  0  0  0  0  0  0  0  0  0  0
   55.8100   22.4773   45.3453 N   0  0  0  0  0  0  0  0  0  0  0  0
   54.5773   22.4119   45.8958 C   0  0  0  0  0  0  0  0  0  0  0  0
   53.9814   21.3213   46.0974 O   0  0  0  0  0  0  0  0  0  0  0  0
   54.0310   23.6091   46.2042 N   0  0  0  0  0  0  0  0  0  0  0  0
   54.9860   24.4744   45.8251 C   0  0  0  0  0  0  0  0  0  0  0  0
   54.8605   25.8551   45.9210 O   0  0  0  0  0  0  0  0  0  0  0  0
   61.1062   30.0786   50.7842 C   0  0  0  0  0  0  0  0  0  0  0  0
   61.9019   31.0270   50.5206 O   0  0  0  0  0  0  0  0  0  0  0  0
   60.7804   29.7730   52.1722 N   0  0  0  0  0  0  0  0  0  0  0  0
   60.9775   30.9616   53.0315 C   0  0  0  0  0  0  0  0  0  0  0  0
   59.9216   32.0642   52.7816 C   0  0  0  0  0  0  0  0  0  0  0  0
   58.6863   31.5361   52.1621 N   0  0  0  0  0  0  0  0  0  0  0  0
   57.5731   32.4802   52.3470 C   0  0  0  0  0  0  0  0  0  0  0  0
   58.3436   30.2176   52.7141 C   0  0  0  0  0  0  0  0  0  0  0  0
   59.4205   29.1833   52.3233 C   0  0  0  0  0  0  0  0  0  0  0  0
   61.5025   30.2767   51.7316 H   0  0  0  0  0  0  0  0  0  0  0  0
   58.3063   29.8412   46.6924 C   0  0  0  0  0  0  0  0  0  0  0  0
   57.6065   30.3758   45.9411 N   0  0  0  0  0  0  0  0  0  0  0  0
  7  8  2  0
  8  9  1  0
  9 10  2  0
 10 15  1  0
 15 16  1  0
 16 17  1  0
 17 18  2  0
 17 19  1  0
 19 20  1  0
 20 21  1  0
  9 11  1  0
 11 12  2  0
 12 13  1  0
 12 14  1  0
 14  1  1  0
  1  2  2  0
  2  3  1  0
  3  4  2  0
  4 22  1  0
 22 23  2  0
 22 24  1  0
 24 25  1  0
 25 26  1  0
 26 27  1  0
 27 28  1  0
 27 29  1  0
 29 30  1  0
  4  5  1  0
  5  6  2  0
  6 32  1  0
 32 33  3  0
 14  8  1  0
  6  1  1  0
 20 15  2  0
 30 24  1  0
 24 31  1  0
M  CHG 1  16  -1
M  CHG 1  19  -1
M  CHG 1  21  -1
M  CHG 1  24   1
M  END
> <UniqueID>
69

> <SMILES>
C=c1c(=Cc2[n-]c(=O)[n-]c2[O-])cc(C)n1-c1ccc(C(=O)[NH+]2CCN(C)CC2)cc1C#N

> <Energy>
147.12609278618547

> <Genealogy>
C=c1c(=Cc2[n-]c(=O)[n-]c2[O-])cc(C)n1-c1ccc(C(=O)[NH+]2CCN(C)CC2)cc1C#N (protonated)
C=c1c(=Cc2[n-]c(=O)[n-]c2[O-])cc(C)n1-c1ccc(C(=O)[NH+]2CCN(C)CC2)cc1C#N (3D coordinates assigned)
C=c1c(=Cc2[n-]c(=O)[n-]c2[O-])cc(C)n1-c1ccc(C(=O)[NH+]2CCN(C)CC2)cc1C#N (nonaromatic ring conformer: 147.12609278618547 kcal/mol)

> <smiles>
C=c1c(=Cc2[nH]c(=O)[nH]c2O)cc(C)n1-c1ccc(C(=O)N2CCN(C)CC2)cc1C#N

> <score_type>
oracle

> <origin>
adg

> <m_score__min__energy>
-14.390000000000001

> <m_primary>
energy

> <minimizedAffinity>
-6.95910

> <minimizedRMSD>
0.80186

> <CNNscore>
0.0718372762

> <CNNaffinity>
5.6686096191

> <CNN_VS>
0.4072174728

> <CNNaffinity_variance>
0.2236786038

$$$$
73:0


 37 41  0  0  0  0  0  0  0  0999 V2000
   59.2711   28.3482   47.6452 C   0  0  0  0  0  0  0  0  0  0  0  0
   60.2564   27.7978   48.4648 C   0  0  0  0  0  0  0  0  0  0  0  0
   60.8140   28.5585   49.4944 C   0  0  0  0  0  0  0  0  0  0  0  0
   60.3953   29.8732   49.7182 C   0  0  0  0  0  0  0  0  0  0  0  0
   59.3785   30.4256   48.9027 C   0  0  0  0  0  0  0  0  0  0  0  0
   58.8286   29.6533   47.8700 C   0  0  0  0  0  0  0  0  0  0  0  0
   58.9194   31.8174   49.0813 C   0  0  0  0  0  0  0  0  0  0  0  0
   58.3745   32.1397   50.1749 O   0  0  0  0  0  0  0  0  0  0  0  0
   59.0870   32.8094   48.0440 N   0  0  0  0  0  0  0  0  0  0  0  0
   58.1080   32.8258   46.9443 C   0  0  0  0  0  0  0  0  0  0  0  0
   58.3607   33.9185   45.9459 C   0  0  0  0  0  0  0  0  0  0  0  0
   57.4599   34.2411   45.1293 O   0  0  0  0  0  0  0  0  0  0  0  0
   59.6192   34.5881   45.9076 N   0  0  0  0  0  0  0  0  0  0  0  0
   60.7060   34.1624   46.7689 C   0  0  0  0  0  0  0  0  0  0  0  0
   60.1577   33.8165   48.1473 C   0  0  0  0  0  0  0  0  0  0  0  0
   57.4760   24.7350   44.8173 C   0  0  0  0  0  0  0  0  0  0  0  0
   57.9744   25.9001   45.2746 C   0  0  0  0  0  0  0  0  0  0  0  0
   58.0870   27.0326   44.4825 C   0  0  0  0  0  0  0  0  0  0  0  0
   58.5361   28.0492   45.3024 C   0  0  0  0  0  0  0  0  0  0  0  0
   58.8242   29.4500   44.8591 C   0  0  0  0  0  0  0  0  0  0  0  0
   58.7352   27.5873   46.5533 N   0  0  0  0  0  0  0  0  0  0  0  0
   58.4411   26.2635   46.5473 C   0  0  0  0  0  0  0  0  0  0  0  0
   58.7287   25.4475   47.5735 C   0  0  0  0  0  0  0  0  0  0  0  0
   55.0490   26.2202   45.9225 O   0  0  0  0  0  0  0  0  0  0  0  0
   55.1157   24.8400   45.7393 C   0  0  0  0  0  0  0  0  0  0  0  0
   54.1306   23.9904   46.0724 N   0  0  0  0  0  0  0  0  0  0  0  0
   54.6522   22.7901   45.7360 C   0  0  0  0  0  0  0  0  0  0  0  0
   54.0233   21.7140   45.8911 O   0  0  0  0  0  0  0  0  0  0  0  0
   55.8976   22.8394   45.2216 N   0  0  0  0  0  0  0  0  0  0  0  0
   56.1757   24.1540   45.1996 C   0  0  0  0  0  0  0  0  0  0  0  0
   54.2832   26.6062   46.3001 H   0  0  0  0  0  0  0  0  0  0  0  0
   61.0015   30.6391   50.7701 N   0  0  0  0  0  0  0  0  0  0  0  0
   60.5190   30.4199   52.1405 C   0  0  0  0  0  0  0  0  0  0  0  0
   61.2397   31.2948   53.1746 C   0  0  0  0  0  0  0  0  0  0  0  0
   62.5721   31.5540   52.8090 O   0  0  0  0  0  0  0  0  0  0  0  0
   62.5791   32.3417   51.6431 C   0  0  0  0  0  0  0  0  0  0  0  0
   62.1428   31.4991   50.4464 C   0  0  0  0  0  0  0  0  0  0  0  0
 24 25  1  0
 25 26  1  0
 26 27  1  0
 27 28  2  0
 27 29  1  0
 29 30  1  0
 30 16  1  0
 16 17  2  0
 17 18  1  0
 18 19  2  0
 19 20  1  0
 19 21  1  0
 21  1  1  0
  1  2  2  0
  2  3  1  0
  3  4  2  0
  4 32  1  0
 32 33  1  0
 33 34  1  0
 34 35  1  0
 35 36  1  0
 36 37  1  0
  4  5  1  0
  5  7  1  0
  7  8  2  0
  7  9  1  0
  9 10  1  0
 10 11  1  0
 11 12  2  0
 11 13  1  0
 13 14  1  0
 14 15  1  0
  5  6  2  0
 21 22  1  0
 22 23  2  0
 30 25  2  0
 22 17  1  0
  6  1  1  0
 37 32  1  0
 15  9  1  0
 24 31  1  0
M  CHG 1  13  -1
M  CHG 1  26  -1
M  CHG 1  29  -1
M  END
> <UniqueID>
71

> <SMILES>
C=c1/c(=C\c2[n-]c(=O)[n-]c2O)cc(C)n1-c1ccc(N2CCOCC2)c(C(=O)N2CC[N-]C(=O)C2)c1

> <Energy>
152.9730294821469

> <Genealogy>
C=c1c(=Cc2[n-]c(=O)[n-]c2O)cc(C)n1-c1ccc(N2CCOCC2)c(C(=O)N2CC[N-]C(=O)C2)c1 (protonated)
C=c1/c(=C\c2[n-]c(=O)[n-]c2O)cc(C)n1-c1ccc(N2CCOCC2)c(C(=O)N2CC[N-]C(=O)C2)c1 (cis-trans isomerization)
C=c1/c(=C\c2[n-]c(=O)[n-]c2O)cc(C)n1-c1ccc(N2CCOCC2)c(C(=O)N2CC[N-]C(=O)C2)c1 (3D coordinates assigned)
C=c1/c(=C\c2[n-]c(=O)[n-]c2O)cc(C)n1-c1ccc(N2CCOCC2)c(C(=O)N2CC[N-]C(=O)C2)c1 (nonaromatic ring conformer: 152.9730294821469 kcal/mol)

> <smiles>
C=c1c(=Cc2[nH]c(=O)[nH]c2O)cc(C)n1-c1ccc(N2CCOCC2)c(C(=O)N2CCNC(=O)C2)c1

> <score_type>
oracle

> <origin>
adg

> <m_score__min__energy>
-14.199999999999999

> <m_primary>
energy

> <minimizedAffinity>
-9.54235

> <minimizedRMSD>
0.63230

> <CNNscore>
0.0957456380

> <CNNaffinity>
6.1565136909

> <CNN_VS>
0.5894593596

> <CNNaffinity_variance>
0.2872627378

$$$$
74:0


 27 29  0  0  0  0  0  0  0  0999 V2000
   58.3204   31.5848   46.1290 C   0  0  0  0  0  0  0  0  0  0  0  0
   58.7978   32.4416   47.0697 N   0  0  0  0  0  0  0  0  0  0  0  0
   59.0990   33.7388   46.7791 C   0  0  0  0  0  0  0  0  0  0  0  0
   59.5507   34.5464   47.6951 N   0  0  0  0  0  0  0  0  0  0  0  0
   58.8873   34.2222   45.4828 C   0  0  0  0  0  0  0  0  0  0  0  0
   58.4038   33.3575   44.4988 C   0  0  0  0  0  0  0  0  0  0  0  0
   58.1371   32.0190   44.8124 C   0  0  0  0  0  0  0  0  0  0  0  0
   60.0807   34.1463   48.9684 C   0  0  0  0  0  0  0  0  0  0  0  0
   59.3286   34.1915   49.9771 O   0  0  0  0  0  0  0  0  0  0  0  0
   61.4911   33.7378   49.1425 C   0  0  0  0  0  0  0  0  0  0  0  0
   62.1442   34.0635   50.2920 N   0  0  0  0  0  0  0  0  0  0  0  0
   63.4242   33.7400   50.4885 N   0  0  0  0  0  0  0  0  0  0  0  0
   64.1384   33.0758   49.5437 C   0  0  0  0  0  0  0  0  0  0  0  0
   65.3432   32.7822   49.7579 O   0  0  0  0  0  0  0  0  0  0  0  0
   63.5307   32.7305   48.3391 C   0  0  0  0  0  0  0  0  0  0  0  0
   62.1944   33.0662   48.1328 C   0  0  0  0  0  0  0  0  0  0  0  0
   57.6236   31.1041   43.7796 C   0  0  0  0  0  0  0  0  0  0  0  0
   57.1738   31.5866   42.7069 O   0  0  0  0  0  0  0  0  0  0  0  0
   57.6601   29.6801   43.9371 N   0  0  0  0  0  0  0  0  0  0  0  0
   57.0559   28.9279   45.0339 C   0  0  0  0  0  0  0  0  0  0  0  0
   58.0420   27.9632   45.6418 C   0  0  0  0  0  0  0  0  0  0  0  0
   59.4127   28.2763   45.6584 C   0  0  0  0  0  0  0  0  0  0  0  0
   60.3361   27.3793   46.2022 C   0  0  0  0  0  0  0  0  0  0  0  0
   59.9050   26.1580   46.7218 C   0  0  0  0  0  0  0  0  0  0  0  0
   58.5491   25.8257   46.6893 C   0  0  0  0  0  0  0  0  0  0  0  0
   57.6175   26.7156   46.1449 C   0  0  0  0  0  0  0  0  0  0  0  0
   56.2752   26.3527   46.1030 O   0  0  0  0  0  0  0  0  0  0  0  0
  1  2  1  0
  2  3  1  0
  3  4  2  0
  4  8  1  0
  8  9  2  0
  8 10  1  0
 10 11  2  0
 11 12  1  0
 12 13  1  0
 13 14  2  0
 13 15  1  0
 15 16  2  0
  3  5  1  0
  5  6  2  0
  6  7  1  0
  7 17  1  0
 17 18  2  0
 17 19  1  0
 19 20  1  0
 20 21  1  0
 21 22  2  0
 22 23  1  0
 23 24  2  0
 24 25  1  0
 25 26  2  0
 26 27  1  0
  7  1  2  0
 26 21  1  0
 16 10  1  0
M  CHG 1   2  -1
M  CHG 1  12  -1
M  CHG 1  19  -1
M  CHG 1  27  -1
M  END
> <UniqueID>
72

> <SMILES>
O=C([N-]Cc1ccccc1[O-])c1cc/c(=N/C(=O)c2ccc(=O)[n-]n2)[n-]c1

> <Energy>
54.02960869130803

> <Genealogy>
O=C([N-]Cc1ccccc1[O-])c1ccc(=NC(=O)c2ccc(=O)[n-]n2)[n-]c1 (protonated)
O=C([N-]Cc1ccccc1[O-])c1cc/c(=N/C(=O)c2ccc(=O)[n-]n2)[n-]c1 (cis-trans isomerization)
O=C([N-]Cc1ccccc1[O-])c1cc/c(=N/C(=O)c2ccc(=O)[n-]n2)[n-]c1 (3D coordinates assigned)
O=C([N-]Cc1ccccc1[O-])c1cc/c(=N/C(=O)c2ccc(=O)[n-]n2)[n-]c1 (optimized conformer: 54.02960869130803 kcal/mol)

> <smiles>
O=C(NCc1ccccc1O)c1ccc(=NC(=O)c2ccc(=O)[nH]n2)[nH]c1

> <score_type>
oracle

> <origin>
adg

> <m_score__min__energy>
-15.1

> <m_primary>
energy

> <minimizedAffinity>
-8.00006

> <minimizedRMSD>
0.74667

> <CNNscore>
0.7549012899

> <CNNaffinity>
6.7908577919

> <CNN_VS>
5.1264271736

> <CNNaffinity_variance>
0.1967028230

$$$$
76:0


 34 37  0  0  0  0  0  0  0  0999 V2000
   59.3909   26.4027   47.5030 C   0  0  0  0  0  0  0  0  0  0  0  0
   58.5907   25.7154   48.1926 O   0  0  0  0  0  0  0  0  0  0  0  0
   60.4801   27.0549   48.1669 N   0  0  0  0  0  0  0  0  0  0  0  0
   61.4613   26.3660   51.0991 C   0  0  0  0  0  0  0  0  0  0  0  0
   60.7597   27.6045   50.6266 C   0  0  0  0  0  0  0  0  0  0  0  0
   60.3502   27.8810   49.3275 C   0  0  0  0  0  0  0  0  0  0  0  0
   59.9490   29.1947   49.3473 C   0  0  0  0  0  0  0  0  0  0  0  0
   59.5155   29.8482   48.3609 O   0  0  0  0  0  0  0  0  0  0  0  0
   60.0638   29.6798   50.6021 N   0  0  0  0  0  0  0  0  0  0  0  0
   60.5734   28.7222   51.3755 N   0  0  0  0  0  0  0  0  0  0  0  0
   60.9056   28.8735   52.7972 C   0  0  0  0  0  0  0  0  0  0  0  0
   59.7329   31.0139   51.0228 C   0  0  0  0  0  0  0  0  0  0  0  0
   60.6919   32.0394   50.9516 C   0  0  0  0  0  0  0  0  0  0  0  0
   60.3643   33.3380   51.3543 C   0  0  0  0  0  0  0  0  0  0  0  0
   59.0813   33.6192   51.8317 C   0  0  0  0  0  0  0  0  0  0  0  0
   58.1256   32.6008   51.9151 C   0  0  0  0  0  0  0  0  0  0  0  0
   58.4511   31.3006   51.5168 C   0  0  0  0  0  0  0  0  0  0  0  0
   59.2790   26.3924   45.9982 C   0  0  0  0  0  0  0  0  0  0  0  0
   58.9708   27.7304   45.4827 N   0  0  0  0  0  0  0  0  0  0  0  0
   57.7591   28.2563   45.2403 C   0  0  0  0  0  0  0  0  0  0  0  0
   56.5506   27.6257   45.5143 O   0  0  0  0  0  0  0  0  0  0  0  0
   57.9170   29.5084   44.6881 C   0  0  0  0  0  0  0  0  0  0  0  0
   59.2338   29.7843   44.5707 N   0  0  0  0  0  0  0  0  0  0  0  0
   59.8364   28.6797   45.0646 C   0  0  0  0  0  0  0  0  0  0  0  0
   61.0890   28.5530   45.1218 O   0  0  0  0  0  0  0  0  0  0  0  0
   56.8185   30.4381   44.2632 C   0  0  0  0  0  0  0  0  0  0  0  0
   57.3312   31.8242   44.0088 C   0  0  0  0  0  0  0  0  0  0  0  0
   57.7462   32.1537   42.8606 O   0  0  0  0  0  0  0  0  0  0  0  0
   57.4201   32.7473   45.0996 N   0  0  0  0  0  0  0  0  0  0  0  0
   58.6618   33.0366   45.8117 C   0  0  0  0  0  0  0  0  0  0  0  0
   58.4258   33.1821   47.3095 C   0  0  0  0  0  0  0  0  0  0  0  0
   59.5149   34.1275   47.7946 C   0  0  0  0  0  0  0  0  0  0  0  0
   59.9276   34.9736   46.5901 C   0  0  0  0  0  0  0  0  0  0  0  0
   59.2391   34.3751   45.3656 C   0  0  0  0  0  0  0  0  0  0  0  0
  4  5  1  0
  5  6  2  0
  6  3  1  0
  3  1  1  0
  1  2  2  0
  1 18  1  0
 18 19  1  0
 19 20  1  0
 20 21  1  0
 20 22  2  0
 22 26  1  0
 26 27  1  0
 27 28  2  0
 27 29  1  0
 29 30  1  0
 30 31  1  0
 31 32  1  0
 32 33  1  0
 33 34  1  0
 22 23  1  0
 23 24  1  0
 24 25  2  0
  6  7  1  0
  7  8  2  0
  7  9  1  0
  9 12  1  0
 12 13  2  0
 13 14  1  0
 14 15  2  0
 15 16  1  0
 16 17  2  0
  9 10  1  0
 10 11  1  0
 10  5  1  0
 24 19  1  0
 17 12  1  0
 34 30  1  0
M  CHG 1   3  -1
M  CHG 1  21  -1
M  CHG 1  23  -1
M  CHG 1  29  -1
M  END
> <UniqueID>
74

> <SMILES>
Cc1c([N-]C(=O)Cn2c([O-])c(CC(=O)[N-]C3CCCC3)[n-]c2=O)c(=O)n(-c2ccccc2)n1C

> <Energy>
137.03654079405112

> <Genealogy>
Cc1c([N-]C(=O)Cn2c([O-])c(CC(=O)[N-]C3CCCC3)[n-]c2=O)c(=O)n(-c2ccccc2)n1C (protonated)
Cc1c([N-]C(=O)Cn2c([O-])c(CC(=O)[N-]C3CCCC3)[n-]c2=O)c(=O)n(-c2ccccc2)n1C (3D coordinates assigned)
Cc1c([N-]C(=O)Cn2c([O-])c(CC(=O)[N-]C3CCCC3)[n-]c2=O)c(=O)n(-c2ccccc2)n1C (nonaromatic ring conformer: 137.03654079405112 kcal/mol)

> <smiles>
Cc1c(NC(=O)Cn2c(O)c(CC(=O)NC3CCCC3)[nH]c2=O)c(=O)n(-c2ccccc2)n1C

> <score_type>
oracle

> <origin>
adg

> <m_score__min__energy>
-17.510000000000002

> <m_primary>
energy

> <minimizedAffinity>
-6.02937

> <minimizedRMSD>
1.95530

> <CNNscore>
0.5347421169

> <CNNaffinity>
6.8203849792

> <CNN_VS>
3.6471471786

> <CNNaffinity_variance>
0.2346150428

$$$$
80:0


 23 25  0  0  0  0  0  0  0  0999 V2000
   58.0749   28.9312   45.0371 C   0  0  0  0  0  0  0  0  0  0  0  0
   57.4625   27.7348   45.0619 N   0  0  0  0  0  0  0  0  0  0  0  0
   57.7817   27.2347   46.2748 C   0  0  0  0  0  0  0  0  0  0  0  0
   57.3611   26.0867   46.7187 N   0  0  0  0  0  0  0  0  0  0  0  0
   58.5460   28.0524   47.0246 N   0  0  0  0  0  0  0  0  0  0  0  0
   58.7355   29.1271   46.2353 C   0  0  0  0  0  0  0  0  0  0  0  0
   59.5335   30.3128   46.6371 C   0  0  0  0  0  0  0  0  0  0  0  0
   59.0427   31.6052   46.3834 C   0  0  0  0  0  0  0  0  0  0  0  0
   59.7800   32.7332   46.7555 C   0  0  0  0  0  0  0  0  0  0  0  0
   61.0283   32.5891   47.3765 C   0  0  0  0  0  0  0  0  0  0  0  0
   61.8007   33.7998   47.8116 C   0  0  0  0  0  0  0  0  0  0  0  0
   61.5158   31.3028   47.6502 C   0  0  0  0  0  0  0  0  0  0  0  0
   60.7789   30.1754   47.2794 C   0  0  0  0  0  0  0  0  0  0  0  0
   56.3413   25.2783   46.1129 C   0  0  0  0  0  0  0  0  0  0  0  0
   55.1522   25.6959   46.1304 O   0  0  0  0  0  0  0  0  0  0  0  0
   56.6351   23.9438   45.5428 C   0  0  0  0  0  0  0  0  0  0  0  0
   57.2075   22.9852   46.3230 N   0  0  0  0  0  0  0  0  0  0  0  0
   57.4732   21.7448   45.8373 C   0  0  0  0  0  0  0  0  0  0  0  0
   58.0100   20.8817   46.5778 O   0  0  0  0  0  0  0  0  0  0  0  0
   57.1587   21.4362   44.5531 N   0  0  0  0  0  0  0  0  0  0  0  0
   56.5764   22.3532   43.7378 C   0  0  0  0  0  0  0  0  0  0  0  0
   56.2907   22.0465   42.5519 O   0  0  0  0  0  0  0  0  0  0  0  0
   56.2954   23.6337   44.2189 C   0  0  0  0  0  0  0  0  0  0  0  0
  1  2  1  0
  2  3  1  0
  3  4  2  0
  4 14  1  0
 14 15  2  0
 14 16  1  0
 16 17  1  0
 17 18  1  0
 18 19  2  0
 18 20  1  0
 20 21  1  0
 21 22  2  0
 21 23  1  0
  3  5  1  0
  5  6  1  0
  6  7  1  0
  7  8  2  0
  8  9  1  0
  9 10  2  0
 10 11  1  0
 10 12  1  0
 12 13  2  0
  6  1  2  0
 13  7  1  0
 23 16  2  0
M  CHG 1   2  -1
M  CHG 1   5  -1
M  CHG 1  17  -1
M  CHG 1  20  -1
M  END
> <UniqueID>
77

> <SMILES>
Cc1ccc(-c2c[n-]/c(=N\C(=O)c3cc(=O)[n-]c(=O)[n-]3)[n-]2)cc1

> <Energy>
71.0325848989172

> <Genealogy>
Cc1ccc(-c2c[n-]c(=NC(=O)c3cc(=O)[n-]c(=O)[n-]3)[n-]2)cc1 (protonated)
Cc1ccc(-c2c[n-]/c(=N\C(=O)c3cc(=O)[n-]c(=O)[n-]3)[n-]2)cc1 (cis-trans isomerization)
Cc1ccc(-c2c[n-]/c(=N\C(=O)c3cc(=O)[n-]c(=O)[n-]3)[n-]2)cc1 (3D coordinates assigned)
Cc1ccc(-c2c[n-]/c(=N\C(=O)c3cc(=O)[n-]c(=O)[n-]3)[n-]2)cc1 (optimized conformer: 71.0325848989172 kcal/mol)

> <smiles>
Cc1ccc(-c2c[nH]c(=NC(=O)c3cc(=O)[nH]c(=O)[nH]3)[nH]2)cc1

> <score_type>
oracle

> <origin>
adg

> <m_score__min__energy>
-14.300000000000001

> <m_primary>
energy

> <minimizedAffinity>
-8.51006

> <minimizedRMSD>
2.01338

> <CNNscore>
0.2568782568

> <CNNaffinity>
5.6916880608

> <CNN_VS>
1.4620709419

> <CNNaffinity_variance>
0.5380226374

$$$$
86:0


 34 37  0  0  0  0  0  0  0  0999 V2000
   58.1788   25.1863   47.7767 C   0  0  0  0  0  0  0  0  0  0  0  0
   58.4753   25.8984   46.6762 C   0  0  0  0  0  0  0  0  0  0  0  0
   58.0968   25.6157   45.3526 C   0  0  0  0  0  0  0  0  0  0  0  0
   57.5227   24.5229   44.8118 C   0  0  0  0  0  0  0  0  0  0  0  0
   58.4544   26.7245   44.6032 C   0  0  0  0  0  0  0  0  0  0  0  0
   59.0807   27.6036   45.4600 C   0  0  0  0  0  0  0  0  0  0  0  0
   59.6470   28.9292   45.0516 C   0  0  0  0  0  0  0  0  0  0  0  0
   59.0936   27.1071   46.7172 N   0  0  0  0  0  0  0  0  0  0  0  0
   56.1895   23.9952   45.1601 C   0  0  0  0  0  0  0  0  0  0  0  0
   55.2013   24.8220   45.7206 C   0  0  0  0  0  0  0  0  0  0  0  0
   55.4406   26.1756   45.9271 O   0  0  0  0  0  0  0  0  0  0  0  0
   53.9996   24.2978   46.0737 N   0  0  0  0  0  0  0  0  0  0  0  0
   53.7375   22.9756   45.9121 C   0  0  0  0  0  0  0  0  0  0  0  0
   52.6170   22.5120   46.2471 O   0  0  0  0  0  0  0  0  0  0  0  0
   54.6854   22.1519   45.3964 N   0  0  0  0  0  0  0  0  0  0  0  0
   55.9027   22.6274   45.0257 C   0  0  0  0  0  0  0  0  0  0  0  0
   56.7615   21.8330   44.5575 O   0  0  0  0  0  0  0  0  0  0  0  0
   59.6602   27.7545   47.8713 C   0  0  0  0  0  0  0  0  0  0  0  0
   60.4370   27.0247   48.7816 C   0  0  0  0  0  0  0  0  0  0  0  0
   60.9881   27.6567   49.8977 C   0  0  0  0  0  0  0  0  0  0  0  0
   60.7700   29.0208   50.1117 C   0  0  0  0  0  0  0  0  0  0  0  0
   59.9918   29.7688   49.2098 C   0  0  0  0  0  0  0  0  0  0  0  0
   59.4359   29.1207   48.0921 C   0  0  0  0  0  0  0  0  0  0  0  0
   59.7691   31.2171   49.4279 C   0  0  0  0  0  0  0  0  0  0  0  0
   60.4872   31.8511   50.2499 O   0  0  0  0  0  0  0  0  0  0  0  0
   58.7457   31.9035   48.7014 N   0  0  0  0  0  0  0  0  0  0  0  0
   58.9845   33.1398   47.9703 C   0  0  0  0  0  0  0  0  0  0  0  0
   58.6866   32.9231   46.5153 C   0  0  0  0  0  0  0  0  0  0  0  0
   58.0568   31.7399   46.0962 C   0  0  0  0  0  0  0  0  0  0  0  0
   57.7622   31.5426   44.7442 C   0  0  0  0  0  0  0  0  0  0  0  0
   58.0850   32.5251   43.8031 C   0  0  0  0  0  0  0  0  0  0  0  0
   57.7168   32.2715   42.1075 Cl  0  0  0  0  0  0  0  0  0  0  0  0
   58.7032   33.7089   44.2162 C   0  0  0  0  0  0  0  0  0  0  0  0
   58.9962   33.9122   45.5666 C   0  0  0  0  0  0  0  0  0  0  0  0
  1  2  2  0
  2  3  1  0
  3  4  2  0
  4  9  1  0
  9 10  2  0
 10 11  1  0
 10 12  1  0
 12 13  1  0
 13 14  2  0
 13 15  1  0
 15 16  1  0
 16 17  2  0
  3  5  1  0
  5  6  2  0
  6  7  1  0
  6  8  1  0
  8 18  1  0
 18 19  2  0
 19 20  1  0
 20 21  2  0
 21 22  1  0
 22 24  1  0
 24 25  2  0
 24 26  1  0
 26 27  1  0
 27 28  1  0
 28 29  2  0
 29 30  1  0
 30 31  2  0
 31 32  1  0
 31 33  1  0
 33 34  2  0
 22 23  2  0
  8  2  1  0
 23 18  1  0
 16  9  1  0
 34 28  1  0
M  CHG 1  11  -1
M  CHG 1  12  -1
M  CHG 1  15  -1
M  CHG 1  26  -1
M  END
> <UniqueID>
83

> <SMILES>
C=c1c(=Cc2c([O-])[n-]c(=O)[n-]c2=O)cc(C)n1-c1cccc(C(=O)[N-]Cc2ccc(Cl)cc2)c1

> <Energy>
102.25370651329132

> <Genealogy>
C=c1c(=Cc2c([O-])[n-]c(=O)[n-]c2=O)cc(C)n1-c1cccc(C(=O)[N-]Cc2ccc(Cl)cc2)c1 (protonated)
C=c1c(=Cc2c([O-])[n-]c(=O)[n-]c2=O)cc(C)n1-c1cccc(C(=O)[N-]Cc2ccc(Cl)cc2)c1 (3D coordinates assigned)
C=c1c(=Cc2c([O-])[n-]c(=O)[n-]c2=O)cc(C)n1-c1cccc(C(=O)[N-]Cc2ccc(Cl)cc2)c1 (optimized conformer: 102.25370651329132 kcal/mol)

> <smiles>
C=c1c(=Cc2c(O)[nH]c(=O)[nH]c2=O)cc(C)n1-c1cccc(C(=O)NCc2ccc(Cl)cc2)c1

> <score_type>
oracle

> <origin>
adg

> <m_score__min__energy>
-17.600000000000001

> <m_primary>
energy

> <minimizedAffinity>
-8.14081

> <minimizedRMSD>
0.63663

> <CNNscore>
0.1416364014

> <CNNaffinity>
6.7064476013

> <CNN_VS>
0.9498770833

> <CNNaffinity_variance>
0.1698540896

$$$$
19:0


 30 32  0  0  0  0  0  0  0  0999 V2000
   58.4649   29.3701   44.5610 C   0  0  0  0  0  0  0  0  0  0  0  0
   57.0991   29.1707   44.2968 C   0  0  0  0  0  0  0  0  0  0  0  0
   56.2224   30.2585   44.2502 C   0  0  0  0  0  0  0  0  0  0  0  0
   56.6943   31.5513   44.4823 C   0  0  0  0  0  0  0  0  0  0  0  0
   58.0501   31.7673   44.7710 C   0  0  0  0  0  0  0  0  0  0  0  0
   58.9319   30.6741   44.8018 C   0  0  0  0  0  0  0  0  0  0  0  0
   59.4156   28.1994   44.6381 C   0  0  0  0  0  0  0  0  0  0  0  0
   58.6226   26.3093   46.2062 C   0  0  0  0  0  0  0  0  0  0  0  0
   59.3383   27.5150   45.9808 C   0  0  0  0  0  0  0  0  0  0  0  0
   60.0108   28.0909   47.0145 N   0  0  0  0  0  0  0  0  0  0  0  0
   60.0035   27.5567   48.2590 C   0  0  0  0  0  0  0  0  0  0  0  0
   60.6341   28.1273   49.1870 O   0  0  0  0  0  0  0  0  0  0  0  0
   59.3149   26.4138   48.5055 N   0  0  0  0  0  0  0  0  0  0  0  0
   58.6241   25.7869   47.5173 C   0  0  0  0  0  0  0  0  0  0  0  0
   57.9827   24.7350   47.7871 O   0  0  0  0  0  0  0  0  0  0  0  0
   59.3158   26.0332   49.4134 H   0  0  0  0  0  0  0  0  0  0  0  0
   57.8178   25.6186   45.1221 C   0  0  0  0  0  0  0  0  0  0  0  0
   55.7633   26.3594   46.0968 O   0  0  0  0  0  0  0  0  0  0  0  0
   56.4035   25.4137   45.5685 C   0  0  0  0  0  0  0  0  0  0  0  0
   55.7847   24.1828   45.3879 O   0  0  0  0  0  0  0  0  0  0  0  0
   58.5670   33.1645   44.9720 C   0  0  0  0  0  0  0  0  0  0  0  0
   58.9134   33.4543   46.6990 S   0  0  0  0  0  0  0  0  0  0  0  0
   58.8175   34.9265   46.9901 O   0  0  0  0  0  0  0  0  0  0  0  0
   57.9000   32.7329   47.5420 O   0  0  0  0  0  0  0  0  0  0  0  0
   60.5273   32.8689   47.0908 C   0  0  0  0  0  0  0  0  0  0  0  0
   60.6961   31.6433   47.7509 C   0  0  0  0  0  0  0  0  0  0  0  0
   61.9785   31.2048   48.0971 C   0  0  0  0  0  0  0  0  0  0  0  0
   63.0929   31.9902   47.7951 C   0  0  0  0  0  0  0  0  0  0  0  0
   62.9280   33.2184   47.1478 C   0  0  0  0  0  0  0  0  0  0  0  0
   61.6482   33.6592   46.7970 C   0  0  0  0  0  0  0  0  0  0  0  0
 18 19  2  0
 19 20  1  0
 19 17  1  0
 17  8  1  0
  8  9  2  0
  9  7  1  0
  7  1  1  0
  1  2  2  0
  2  3  1  0
  3  4  2  0
  4  5  1  0
  5 21  1  0
 21 22  1  0
 22 23  2  0
 22 24  2  0
 22 25  1  0
 25 26  2  0
 26 27  1  0
 27 28  2  0
 28 29  1  0
 29 30  2  0
  5  6  2  0
  9 10  1  0
 10 11  1  0
 11 12  2  0
 11 13  1  0
 13 14  1  0
 14 15  2  0
 14  8  1  0
  6  1  1  0
 30 25  1  0
 13 16  1  0
M  CHG 1  10  -1
M  CHG 1  20  -1
M  END
> <UniqueID>
20

> <SMILES>
O=C([O-])Cc1c(Cc2cccc(CS(=O)(=O)c3ccccc3)c2)[n-]c(=O)[nH]c1=O

> <Energy>
43.53371379123481

> <Genealogy>
O=C([O-])Cc1c(Cc2cccc(CS(=O)(=O)c3ccccc3)c2)[n-]c(=O)[nH]c1=O (protonated)
O=C([O-])Cc1c(Cc2cccc(CS(=O)(=O)c3ccccc3)c2)[n-]c(=O)[nH]c1=O (3D coordinates assigned)
O=C([O-])Cc1c(Cc2cccc(CS(=O)(=O)c3ccccc3)c2)[n-]c(=O)[nH]c1=O (optimized conformer: 43.53371379123481 kcal/mol)

> <smiles>
O=C(O)Cc1c(Cc2cccc(CS(=O)(=O)c3ccccc3)c2)[nH]c(=O)[nH]c1=O

> <score_type>
oracle

> <origin>
adg

> <m_score__min__energy>
-14.32

> <m_primary>
energy

> <minimizedAffinity>
-6.47892

> <minimizedRMSD>
1.28041

> <CNNscore>
0.2109617889

> <CNNaffinity>
5.9930152893

> <CNN_VS>
1.2642972469

> <CNNaffinity_variance>
0.1415096223

$$$$
30:0


 25 27  0  0  0  0  0  0  0  0999 V2000
   57.5645   24.8211   43.8266 C   0  0  0  0  0  0  0  0  0  0  0  0
   57.8394   25.0197   45.1265 C   0  0  0  0  0  0  0  0  0  0  0  0
   57.2587   24.3419   46.2130 C   0  0  0  0  0  0  0  0  0  0  0  0
   56.4928   23.2343   46.2601 C   0  0  0  0  0  0  0  0  0  0  0  0
   57.6391   25.0319   47.3475 C   0  0  0  0  0  0  0  0  0  0  0  0
   58.4894   26.0378   46.9401 C   0  0  0  0  0  0  0  0  0  0  0  0
   59.1138   27.0373   47.8682 C   0  0  0  0  0  0  0  0  0  0  0  0
   58.6194   26.0355   45.5928 N   0  0  0  0  0  0  0  0  0  0  0  0
   55.0463   23.1789   45.9913 C   0  0  0  0  0  0  0  0  0  0  0  0
   54.3040   22.0563   46.0124 N   0  0  0  0  0  0  0  0  0  0  0  0
   53.0426   22.5143   45.8541 C   0  0  0  0  0  0  0  0  0  0  0  0
   52.0456   21.7478   45.8048 O   0  0  0  0  0  0  0  0  0  0  0  0
   52.9343   23.8565   45.7633 N   0  0  0  0  0  0  0  0  0  0  0  0
   54.2097   24.2620   45.8673 C   0  0  0  0  0  0  0  0  0  0  0  0
   54.6015   25.5952   45.8548 O   0  0  0  0  0  0  0  0  0  0  0  0
   59.3993   27.0171   44.8172 C   0  0  0  0  0  0  0  0  0  0  0  0
   58.8810   28.4143   45.0426 C   0  0  0  0  0  0  0  0  0  0  0  0
   59.6844   29.3779   45.6735 C   0  0  0  0  0  0  0  0  0  0  0  0
   59.2021   30.6711   45.8900 C   0  0  0  0  0  0  0  0  0  0  0  0
   57.9126   31.0268   45.4779 C   0  0  0  0  0  0  0  0  0  0  0  0
   57.1060   30.0646   44.8392 C   0  0  0  0  0  0  0  0  0  0  0  0
   57.5886   28.7705   44.6248 C   0  0  0  0  0  0  0  0  0  0  0  0
   57.4571   32.3677   45.7213 N   0  0  0  0  0  0  0  0  0  0  0  0
   58.1938   33.2931   46.1935 C   0  0  0  0  0  0  0  0  0  0  0  0
   59.1261   34.4643   46.7910 S   0  0  0  0  0  0  0  0  0  0  0  0
  1  2  2  0
  2  3  1  0
  3  4  2  0
  4  9  1  0
  9 10  1  0
 10 11  1  0
 11 12  2  0
 11 13  1  0
 13 14  1  0
 14 15  1  0
  3  5  1  0
  5  6  2  0
  6  7  1  0
  6  8  1  0
  8 16  1  0
 16 17  1  0
 17 18  2  0
 18 19  1  0
 19 20  2  0
 20 23  1  0
 23 24  2  0
 24 25  2  0
 20 21  1  0
 21 22  2  0
  8  2  1  0
 22 17  1  0
 14  9  2  0
M  CHG 1  10  -1
M  CHG 1  13  -1
M  CHG 1  15  -1
M  END
> <UniqueID>
30

> <SMILES>
C=c1c(=Cc2[n-]c(=O)[n-]c2[O-])cc(C)n1Cc1ccc(N=C=S)cc1

> <Energy>
109.58515886831042

> <Genealogy>
C=c1c(=Cc2[n-]c(=O)[n-]c2[O-])cc(C)n1Cc1ccc(N=C=S)cc1 (protonated)
C=c1c(=Cc2[n-]c(=O)[n-]c2[O-])cc(C)n1Cc1ccc(N=C=S)cc1 (3D coordinates assigned)
C=c1c(=Cc2[n-]c(=O)[n-]c2[O-])cc(C)n1Cc1ccc(N=C=S)cc1 (optimized conformer: 109.58515886831042 kcal/mol)

> <smiles>
C=c1c(=Cc2[nH]c(=O)[nH]c2O)cc(C)n1Cc1ccc(N=C=S)cc1

> <score_type>
oracle

> <origin>
adg

> <m_score__min__energy>
-15.73

> <m_primary>
energy

> <minimizedAffinity>
-6.23084

> <minimizedRMSD>
0.81936

> <CNNscore>
0.0890698135

> <CNNaffinity>
5.7305331230

> <CNN_VS>
0.5104175210

> <CNNaffinity_variance>
0.0336562023

$$$$
62:0


 29 32  0  0  0  0  0  0  0  0999 V2000
   59.7914   33.9787   46.6866 C   0  0  0  0  0  0  0  0  0  0  0  0
   59.3854   34.2508   47.9568 N   0  0  0  0  0  0  0  0  0  0  0  0
   60.2398   34.1513   49.0084 C   0  0  0  0  0  0  0  0  0  0  0  0
   59.8231   34.4198   50.1685 O   0  0  0  0  0  0  0  0  0  0  0  0
   61.5683   33.7484   48.7925 C   0  0  0  0  0  0  0  0  0  0  0  0
   62.4987   33.6187   49.8393 C   0  0  0  0  0  0  0  0  0  0  0  0
   63.8179   33.2109   49.5695 C   0  0  0  0  0  0  0  0  0  0  0  0
   64.1946   32.9279   48.2469 C   0  0  0  0  0  0  0  0  0  0  0  0
   63.2736   33.0535   47.2038 C   0  0  0  0  0  0  0  0  0  0  0  0
   61.9651   33.4633   47.4695 C   0  0  0  0  0  0  0  0  0  0  0  0
   61.0704   33.5821   46.4546 N   0  0  0  0  0  0  0  0  0  0  0  0
   64.7735   33.0685   50.6365 N   0  0  0  0  0  0  0  0  0  0  0  0
   65.7591   31.9856   50.6106 C   0  0  0  0  0  0  0  0  0  0  0  0
   67.0198   32.4213   51.3649 C   0  0  0  0  0  0  0  0  0  0  0  0
   66.6954   32.8895   52.6611 O   0  0  0  0  0  0  0  0  0  0  0  0
   65.9086   34.0629   52.5649 C   0  0  0  0  0  0  0  0  0  0  0  0
   64.5567   33.7586   51.9112 C   0  0  0  0  0  0  0  0  0  0  0  0
   58.8148   34.0561   45.5561 C   0  0  0  0  0  0  0  0  0  0  0  0
   57.0571   33.2912   46.9717 O   0  0  0  0  0  0  0  0  0  0  0  0
   57.6220   33.1910   45.8501 C   0  0  0  0  0  0  0  0  0  0  0  0
   57.1430   32.2095   44.9235 N   0  0  0  0  0  0  0  0  0  0  0  0
   57.9911   31.4047   44.0522 C   0  0  0  0  0  0  0  0  0  0  0  0
   58.2808   30.0892   44.7173 C   0  0  0  0  0  0  0  0  0  0  0  0
   59.5949   29.7763   45.1069 C   0  0  0  0  0  0  0  0  0  0  0  0
   59.8714   28.5673   45.7533 C   0  0  0  0  0  0  0  0  0  0  0  0
   58.8384   27.6676   46.0279 C   0  0  0  0  0  0  0  0  0  0  0  0
   57.5259   27.9756   45.6605 C   0  0  0  0  0  0  0  0  0  0  0  0
   57.2423   29.1833   45.0127 C   0  0  0  0  0  0  0  0  0  0  0  0
   55.9264   29.4796   44.6690 O   0  0  0  0  0  0  0  0  0  0  0  0
 19 20  2  0
 20 18  1  0
 18  1  1  0
  1  2  2  0
  2  3  1  0
  3  4  2  0
  3  5  1  0
  5  6  2  0
  6  7  1  0
  7 12  1  0
 12 13  1  0
 13 14  1  0
 14 15  1  0
 15 16  1  0
 16 17  1  0
  7  8  2  0
  8  9  1  0
  9 10  2  0
 10 11  1  0
 20 21  1  0
 21 22  1  0
 22 23  1  0
 23 24  2  0
 24 25  1  0
 25 26  2  0
 26 27  1  0
 27 28  2  0
 28 29  1  0
 11  1  1  0
 28 23  1  0
 10  5  1  0
 17 12  1  0
M  CHG 1  11  -1
M  CHG 1  21  -1
M  CHG 1  29  -1
M  END
> <UniqueID>
62

> <SMILES>
O=C(Cc1nc(=O)c2cc(N3CCOCC3)ccc2[n-]1)[N-]Cc1ccccc1[O-]

> <Energy>
57.39601933874816

> <Genealogy>
O=C(Cc1nc(=O)c2cc(N3CCOCC3)ccc2[n-]1)[N-]Cc1ccccc1[O-] (protonated)
O=C(Cc1nc(=O)c2cc(N3CCOCC3)ccc2[n-]1)[N-]Cc1ccccc1[O-] (3D coordinates assigned)
O=C(Cc1nc(=O)c2cc(N3CCOCC3)ccc2[n-]1)[N-]Cc1ccccc1[O-] (nonaromatic ring conformer: 57.39601933874816 kcal/mol)

> <smiles>
O=C(Cc1nc(=O)c2cc(N3CCOCC3)ccc2[nH]1)NCc1ccccc1O

> <score_type>
oracle

> <origin>
adg

> <m_score__min__energy>
-15.119999999999999

> <m_primary>
energy

> <minimizedAffinity>
-8.39840

> <minimizedRMSD>
0.73110

> <CNNscore>
0.4473150969

> <CNNaffinity>
6.4570469856

> <CNN_VS>
2.8883345127

> <CNNaffinity_variance>
0.2804621458

$$$$
66:0


 29 31  0  0  0  0  0  0  0  0999 V2000
   57.6944   28.5287   45.2397 S   0  0  0  0  0  0  0  0  0  0  0  0
   56.3019   29.0724   45.0784 O   0  0  0  0  0  0  0  0  0  0  0  0
   58.1837   28.0302   43.9090 O   0  0  0  0  0  0  0  0  0  0  0  0
   58.7367   29.8056   45.8575 C   0  0  0  0  0  0  0  0  0  0  0  0
   58.3291   31.1407   45.7514 C   0  0  0  0  0  0  0  0  0  0  0  0
   59.1075   32.1614   46.3046 C   0  0  0  0  0  0  0  0  0  0  0  0
   60.3061   31.8540   46.9663 C   0  0  0  0  0  0  0  0  0  0  0  0
   60.7205   30.5164   47.0585 C   0  0  0  0  0  0  0  0  0  0  0  0
   59.9405   29.4979   46.5039 C   0  0  0  0  0  0  0  0  0  0  0  0
   61.1010   32.9523   47.6270 C   0  0  0  0  0  0  0  0  0  0  0  0
   62.0090   32.3995   48.6550 N   0  0  0  0  0  0  0  0  0  0  0  0
   61.5837   32.7840   50.0246 C   0  0  0  0  0  0  0  0  0  0  0  0
   62.5619   33.7690   50.6891 C   0  0  0  0  0  0  0  0  0  0  0  0
   63.8812   33.2579   50.7730 O   0  0  0  0  0  0  0  0  0  0  0  0
   64.2884   32.5250   49.6240 C   0  0  0  0  0  0  0  0  0  0  0  0
   63.4189   32.7507   48.3770 C   0  0  0  0  0  0  0  0  0  0  0  0
   57.6637   27.2122   46.3688 N   0  0  0  0  0  0  0  0  0  0  0  0
   57.2044   23.0975   45.3699 C   0  0  0  0  0  0  0  0  0  0  0  0
   58.4889   23.6543   45.4803 C   0  0  0  0  0  0  0  0  0  0  0  0
   58.6527   25.0080   45.7903 C   0  0  0  0  0  0  0  0  0  0  0  0
   57.5324   25.8268   46.0139 C   0  0  0  0  0  0  0  0  0  0  0  0
   56.2504   25.2747   45.9056 C   0  0  0  0  0  0  0  0  0  0  0  0
   55.1274   26.0654   46.1242 O   0  0  0  0  0  0  0  0  0  0  0  0
   56.0856   23.9210   45.5874 C   0  0  0  0  0  0  0  0  0  0  0  0
   57.7839   20.6514   45.7575 N   0  0  0  0  0  0  0  0  0  0  0  0
   57.0495   21.6562   45.0522 C   0  0  0  0  0  0  0  0  0  0  0  0
   56.2414   21.2987   44.1518 O   0  0  0  0  0  0  0  0  0  0  0  0
   57.6635   19.7016   45.5281 H   0  0  0  0  0  0  0  0  0  0  0  0
   58.4096   20.9097   46.4724 H   0  0  0  0  0  0  0  0  0  0  0  0
 25 26  1  0
 26 27  2  0
 26 18  1  0
 18 19  2  0
 19 20  1  0
 20 21  2  0
 21 17  1  0
 17  1  1  0
  1  2  2  0
  1  3  2  0
  1  4  1  0
  4  5  2  0
  5  6  1  0
  6  7  2  0
  7 10  1  0
 10 11  1  0
 11 12  1  0
 12 13  1  0
 13 14  1  0
 14 15  1  0
 15 16  1  0
  7  8  1  0
  8  9  2  0
 21 22  1  0
 22 23  1  0
 22 24  2  0
 24 18  1  0
  9  4  1  0
 16 11  1  0
 25 28  1  0
 25 29  1  0
M  CHG 1  17  -1
M  CHG 1  23  -1
M  END
> <UniqueID>
65

> <SMILES>
NC(=O)c1ccc([N-]S(=O)(=O)c2ccc(CN3CCOCC3)cc2)c([O-])c1

> <Energy>
65.95981274778666

> <Genealogy>
NC(=O)c1ccc([N-]S(=O)(=O)c2ccc(CN3CCOCC3)cc2)c([O-])c1 (protonated)
NC(=O)c1ccc([N-]S(=O)(=O)c2ccc(CN3CCOCC3)cc2)c([O-])c1 (3D coordinates assigned)
NC(=O)c1ccc([N-]S(=O)(=O)c2ccc(CN3CCOCC3)cc2)c([O-])c1 (nonaromatic ring conformer: 65.95981274778666 kcal/mol)

> <smiles>
NC(=O)c1ccc(NS(=O)(=O)c2ccc(CN3CCOCC3)cc2)c(O)c1

> <score_type>
oracle

> <origin>
adg

> <m_score__min__energy>
-14.75

> <m_primary>
energy

> <minimizedAffinity>
-8.00175

> <minimizedRMSD>
1.22312

> <CNNscore>
0.1600503027

> <CNNaffinity>
5.8582024574

> <CNN_VS>
0.9376070499

> <CNNaffinity_variance>
0.1114464402

$$$$
67:0


 32 35  0  0  0  0  0  0  0  0999 V2000
   59.5270   29.8235   47.2341 C   0  0  0  0  0  0  0  0  0  0  0  0
   60.6892   30.5412   46.9187 C   0  0  0  0  0  0  0  0  0  0  0  0
   61.2504   31.4179   47.8519 C   0  0  0  0  0  0  0  0  0  0  0  0
   60.6470   31.6033   49.1053 C   0  0  0  0  0  0  0  0  0  0  0  0
   59.4887   30.8730   49.4224 C   0  0  0  0  0  0  0  0  0  0  0  0
   58.9299   29.9945   48.4897 C   0  0  0  0  0  0  0  0  0  0  0  0
   59.5020   26.8520   47.2502 C   0  0  0  0  0  0  0  0  0  0  0  0
   58.8995   27.5824   46.2981 C   0  0  0  0  0  0  0  0  0  0  0  0
   58.2532   27.1095   45.1436 C   0  0  0  0  0  0  0  0  0  0  0  0
   57.9115   25.8614   44.7673 C   0  0  0  0  0  0  0  0  0  0  0  0
   57.9610   28.2265   44.3784 C   0  0  0  0  0  0  0  0  0  0  0  0
   58.3760   29.3268   45.0986 C   0  0  0  0  0  0  0  0  0  0  0  0
   58.2169   30.7485   44.6550 C   0  0  0  0  0  0  0  0  0  0  0  0
   58.9338   28.9405   46.2666 N   0  0  0  0  0  0  0  0  0  0  0  0
   57.2874   24.8450   45.6293 C   0  0  0  0  0  0  0  0  0  0  0  0
   57.9030   23.7315   46.0687 N   0  0  0  0  0  0  0  0  0  0  0  0
   57.0053   23.1982   46.9263 C   0  0  0  0  0  0  0  0  0  0  0  0
   57.2147   22.1205   47.5407 O   0  0  0  0  0  0  0  0  0  0  0  0
   55.8745   23.9176   47.0834 N   0  0  0  0  0  0  0  0  0  0  0  0
   56.0758   24.9630   46.2664 C   0  0  0  0  0  0  0  0  0  0  0  0
   55.1750   26.0088   46.1094 O   0  0  0  0  0  0  0  0  0  0  0  0
   61.2364   32.5285   50.1005 C   0  0  0  0  0  0  0  0  0  0  0  0
   60.5183   33.4483   50.5787 O   0  0  0  0  0  0  0  0  0  0  0  0
   62.6057   32.4032   50.5330 N   0  0  0  0  0  0  0  0  0  0  0  0
   62.9749   32.8650   51.8783 C   0  0  0  0  0  0  0  0  0  0  0  0
   64.3252   32.2765   52.3061 C   0  0  0  0  0  0  0  0  0  0  0  0
   65.4606   32.5845   51.2933 C   0  0  0  0  0  0  0  0  0  0  0  0
   64.9371   32.7843   49.8477 C   0  0  0  0  0  0  0  0  0  0  0  0
   63.6559   31.9900   49.5877 C   0  0  0  0  0  0  0  0  0  0  0  0
   66.2979   33.8022   51.7276 C   0  0  0  0  0  0  0  0  0  0  0  0
   66.0741   34.0927   53.0839 O   0  0  0  0  0  0  0  0  0  0  0  0
   65.1358   34.2973   53.2203 H   0  0  0  0  0  0  0  0  0  0  0  0
  7  8  2  0
  8  9  1  0
  9 10  2  0
 10 15  1  0
 15 16  1  0
 16 17  1  0
 17 18  2  0
 17 19  1  0
 19 20  1  0
 20 21  1  0
  9 11  1  0
 11 12  2  0
 12 13  1  0
 12 14  1  0
 14  1  1  0
  1  2  2  0
  2  3  1  0
  3  4  2  0
  4 22  1  0
 22 23  2  0
 22 24  1  0
 24 25  1  0
 25 26  1  0
 26 27  1  0
 27 30  1  0
 30 31  1  0
 27 28  1  0
 28 29  1  0
  4  5  1  0
  5  6  2  0
 14  8  1  0
  6  1  1  0
 20 15  2  0
 29 24  1  0
 31 32  1  0
M  CHG 1  16  -1
M  CHG 1  19  -1
M  CHG 1  21  -1
M  END
> <UniqueID>
66

> <SMILES>
C=c1c(=Cc2[n-]c(=O)[n-]c2[O-])cc(C)n1-c1ccc(C(=O)N2CCC(CO)CC2)cc1

> <Energy>
137.95725154109542

> <Genealogy>
C=c1c(=Cc2[n-]c(=O)[n-]c2[O-])cc(C)n1-c1ccc(C(=O)N2CCC(CO)CC2)cc1 (protonated)
C=c1c(=Cc2[n-]c(=O)[n-]c2[O-])cc(C)n1-c1ccc(C(=O)N2CCC(CO)CC2)cc1 (3D coordinates assigned)
C=c1c(=Cc2[n-]c(=O)[n-]c2[O-])cc(C)n1-c1ccc(C(=O)N2CCC(CO)CC2)cc1 (nonaromatic ring conformer: 137.95725154109542 kcal/mol)

> <smiles>
C=c1c(=Cc2[nH]c(=O)[nH]c2O)cc(C)n1-c1ccc(C(=O)N2CCC(CO)CC2)cc1

> <score_type>
oracle

> <origin>
adg

> <m_score__min__energy>
-15.5

> <m_primary>
energy

> <minimizedAffinity>
-8.66349

> <minimizedRMSD>
1.24845

> <CNNscore>
0.2038363516

> <CNNaffinity>
6.6042723656

> <CNN_VS>
1.3461908102

> <CNNaffinity_variance>
0.0234844144

$$$$
70:0


 28 30  0  0  0  0  0  0  0  0999 V2000
   58.8819   33.1125   47.3738 C   0  0  0  0  0  0  0  0  0  0  0  0
   59.4393   34.3928   47.4584 C   0  0  0  0  0  0  0  0  0  0  0  0
   59.4888   35.0575   46.2392 C   0  0  0  0  0  0  0  0  0  0  0  0
   58.8599   34.0397   45.0571 S   0  0  0  0  0  0  0  0  0  0  0  0
   58.5226   32.7444   46.0756 C   0  0  0  0  0  0  0  0  0  0  0  0
   57.9956   31.4475   45.6311 C   0  0  0  0  0  0  0  0  0  0  0  0
   58.6718   30.2885   45.7312 N   0  0  0  0  0  0  0  0  0  0  0  0
   57.7882   29.4214   45.1967 C   0  0  0  0  0  0  0  0  0  0  0  0
   56.6505   30.0191   44.7947 N   0  0  0  0  0  0  0  0  0  0  0  0
   56.8163   31.2741   45.0865 O   0  0  0  0  0  0  0  0  0  0  0  0
   58.0762   27.9707   44.9839 C   0  0  0  0  0  0  0  0  0  0  0  0
   57.6558   27.2011   46.1484 N   0  0  0  0  0  0  0  0  0  0  0  0
   57.0043   25.9297   46.0658 C   0  0  0  0  0  0  0  0  0  0  0  0
   55.5821   25.8425   46.0220 N   0  0  0  0  0  0  0  0  0  0  0  0
   57.6968   24.8800   46.0288 O   0  0  0  0  0  0  0  0  0  0  0  0
   55.0376   26.6621   46.0508 H   0  0  0  0  0  0  0  0  0  0  0  0
   58.7081   32.2860   48.5292 N   0  0  0  0  0  0  0  0  0  0  0  0
   59.6061   31.2506   48.9546 C   0  0  0  0  0  0  0  0  0  0  0  0
   59.1726   30.0697   49.0206 O   0  0  0  0  0  0  0  0  0  0  0  0
   65.8258   31.1117   51.3223 C   0  0  0  0  0  0  0  0  0  0  0  0
   64.9975   32.1095   50.5687 C   0  0  0  0  0  0  0  0  0  0  0  0
   65.5863   33.0821   50.0222 O   0  0  0  0  0  0  0  0  0  0  0  0
   63.5624   31.9808   50.4478 N   0  0  0  0  0  0  0  0  0  0  0  0
   62.8491   30.7888   50.9421 C   0  0  0  0  0  0  0  0  0  0  0  0
   61.7201   30.3507   49.9844 C   0  0  0  0  0  0  0  0  0  0  0  0
   61.0787   31.5156   49.1951 C   0  0  0  0  0  0  0  0  0  0  0  0
   61.2971   32.8611   49.9028 C   0  0  0  0  0  0  0  0  0  0  0  0
   62.7982   33.1522   49.9865 C   0  0  0  0  0  0  0  0  0  0  0  0
 20 21  1  0
 21 22  2  0
 21 23  1  0
 23 24  1  0
 24 25  1  0
 25 26  1  0
 26 18  1  0
 18 19  2  0
 18 17  1  0
 17  1  1  0
  1  2  1  0
  2  3  2  0
  3  4  1  0
  4  5  1  0
  5  6  1  0
  6  7  2  0
  7  8  1  0
  8 11  1  0
 11 12  1  0
 12 13  1  0
 13 14  1  0
 13 15  2  0
  8  9  2  0
  9 10  1  0
 26 27  1  0
 27 28  1  0
 28 23  1  0
  5  1  2  0
 10  6  1  0
 14 16  1  0
M  CHG 1  12  -1
M  CHG 1  14  -1
M  CHG 1  17  -1
M  END
> <UniqueID>
69

> <SMILES>
CC(=O)N1CCC(C(=O)[N-]c2ccsc2-c2nc(C[N-]C([NH-])=O)no2)CC1

> <Energy>
105.55936282806695

> <Genealogy>
CC(=O)N1CCC(C(=O)[N-]c2ccsc2-c2nc(C[N-]C([NH-])=O)no2)CC1 (protonated)
CC(=O)N1CCC(C(=O)[N-]c2ccsc2-c2nc(C[N-]C([NH-])=O)no2)CC1 (3D coordinates assigned)
CC(=O)N1CCC(C(=O)[N-]c2ccsc2-c2nc(C[N-]C([NH-])=O)no2)CC1 (nonaromatic ring conformer: 105.55936282806695 kcal/mol)

> <smiles>
CC(=O)N1CCC(C(=O)Nc2ccsc2-c2nc(CNC(N)=O)no2)CC1

> <score_type>
oracle

> <origin>
adg

> <m_score__min__energy>
-14.67

> <m_primary>
energy

> <minimizedAffinity>
-7.73937

> <minimizedRMSD>
1.04643

> <CNNscore>
0.7385421991

> <CNNaffinity>
7.0345635414

> <CNN_VS>
5.1953220367

> <CNNaffinity_variance>
0.2287482023

$$$$
80:0


 35 39  0  0  0  0  0  0  0  0999 V2000
   57.2093   30.0158   54.1800 C   0  0  0  0  0  0  0  0  0  0  0  0
   57.9419   31.2030   54.3201 C   0  0  0  0  0  0  0  0  0  0  0  0
   59.3110   31.2221   54.0445 C   0  0  0  0  0  0  0  0  0  0  0  0
   59.9713   30.0529   53.6231 C   0  0  0  0  0  0  0  0  0  0  0  0
   59.2277   28.8673   53.4810 C   0  0  0  0  0  0  0  0  0  0  0  0
   57.8568   28.8496   53.7551 C   0  0  0  0  0  0  0  0  0  0  0  0
   61.4273   30.0669   53.3491 C   0  0  0  0  0  0  0  0  0  0  0  0
   62.2330   29.5413   54.1648 O   0  0  0  0  0  0  0  0  0  0  0  0
   61.9416   30.7076   52.1767 N   0  0  0  0  0  0  0  0  0  0  0  0
   62.0211   29.9606   50.9176 C   0  0  0  0  0  0  0  0  0  0  0  0
   61.6022   30.8572   49.7421 C   0  0  0  0  0  0  0  0  0  0  0  0
   62.1360   32.2258   49.8694 N   0  0  0  0  0  0  0  0  0  0  0  0
   61.7308   33.2553   48.9409 C   0  0  0  0  0  0  0  0  0  0  0  0
   61.8795   34.4706   49.2448 O   0  0  0  0  0  0  0  0  0  0  0  0
   63.0756   32.5342   50.9574 C   0  0  0  0  0  0  0  0  0  0  0  0
   62.4972   32.0593   52.2920 C   0  0  0  0  0  0  0  0  0  0  0  0
   61.1666   32.9258   47.5811 C   0  0  0  0  0  0  0  0  0  0  0  0
   59.7174   33.4202   47.3359 C   0  0  0  0  0  0  0  0  0  0  0  0
   59.6572   34.7302   46.5651 C   0  0  0  0  0  0  0  0  0  0  0  0
   59.1277   33.4556   45.9268 C   0  0  0  0  0  0  0  0  0  0  0  0
   54.9803   30.4116   52.2612 C   0  0  0  0  0  0  0  0  0  0  0  0
   54.7866   30.2111   53.5756 C   0  0  0  0  0  0  0  0  0  0  0  0
   53.5570   30.0627   54.2403 C   0  0  0  0  0  0  0  0  0  0  0  0
   52.2922   30.2512   53.8141 C   0  0  0  0  0  0  0  0  0  0  0  0
   53.8630   29.6872   55.5387 C   0  0  0  0  0  0  0  0  0  0  0  0
   55.2393   29.6805   55.6396 C   0  0  0  0  0  0  0  0  0  0  0  0
   56.0084   29.3482   56.8826 C   0  0  0  0  0  0  0  0  0  0  0  0
   55.7993   29.9994   54.4551 N   0  0  0  0  0  0  0  0  0  0  0  0
   51.8746   30.4426   52.4130 C   0  0  0  0  0  0  0  0  0  0  0  0
   52.0868   29.5497   51.4263 N   0  0  0  0  0  0  0  0  0  0  0  0
   51.7059   30.2178   50.3166 C   0  0  0  0  0  0  0  0  0  0  0  0
   51.7479   29.6996   49.1703 O   0  0  0  0  0  0  0  0  0  0  0  0
   51.2920   31.4872   50.5312 N   0  0  0  0  0  0  0  0  0  0  0  0
   51.4198   31.6165   51.8603 C   0  0  0  0  0  0  0  0  0  0  0  0
   51.1346   32.7877   52.5555 O   0  0  0  0  0  0  0  0  0  0  0  0
 21 22  2  0
 22 23  1  0
 23 24  2  0
 24 29  1  0
 29 30  1  0
 30 31  1  0
 31 32  2  0
 31 33  1  0
 33 34  1  0
 34 35  1  0
 23 25  1  0
 25 26  2  0
 26 27  1  0
 26 28  1  0
 28  1  1  0
  1  2  2  0
  2  3  1  0
  3  4  2  0
  4  7  1  0
  7  8  2  0
  7  9  1  0
  9 10  1  0
 10 11  1  0
 11 12  1  0
 12 13  1  0
 13 14  2  0
 13 17  1  0
 17 18  1  0
 18 19  1  0
 19 20  1  0
 12 15  1  0
 15 16  1  0
  4  5  1  0
  5  6  2  0
 28 22  1  0
  6  1  1  0
 34 29  2  0
 16  9  1  0
 20 18  1  0
M  CHG 1  30  -1
M  CHG 1  33  -1
M  CHG 1  35  -1
M  END
> <UniqueID>
79

> <SMILES>
C=c1/c(=C\c2[n-]c(=O)[n-]c2[O-])cc(C)n1-c1ccc(C(=O)N2CCN(C(=O)CC3CC3)CC2)cc1

> <Energy>
413.35667102893444

> <Genealogy>
C=c1c(=Cc2[n-]c(=O)[n-]c2[O-])cc(C)n1-c1ccc(C(=O)N2CCN(C(=O)CC3CC3)CC2)cc1 (protonated)
C=c1/c(=C\c2[n-]c(=O)[n-]c2[O-])cc(C)n1-c1ccc(C(=O)N2CCN(C(=O)CC3CC3)CC2)cc1 (cis-trans isomerization)
C=c1/c(=C\c2[n-]c(=O)[n-]c2[O-])cc(C)n1-c1ccc(C(=O)N2CCN(C(=O)CC3CC3)CC2)cc1 (3D coordinates assigned)
C=c1/c(=C\c2[n-]c(=O)[n-]c2[O-])cc(C)n1-c1ccc(C(=O)N2CCN(C(=O)CC3CC3)CC2)cc1 (nonaromatic ring conformer: 413.35667102893444 kcal/mol)

> <smiles>
C=c1c(=Cc2[nH]c(=O)[nH]c2O)cc(C)n1-c1ccc(C(=O)N2CCN(C(=O)CC3CC3)CC2)cc1

> <score_type>
oracle

> <origin>
adg

> <m_score__min__energy>
-17.489999999999998

> <m_primary>
energy

> <minimizedAffinity>
-7.21169

> <minimizedRMSD>
1.24789

> <CNNscore>
0.1159610599

> <CNNaffinity>
5.8128890991

> <CNN_VS>
0.6740688086

> <CNNaffinity_variance>
0.1719307154

$$$$
86:0


 30 32  0  0  0  0  0  0  0  0999 V2000
   57.0432   29.9800   55.1211 C   0  0  0  0  0  0  0  0  0  0  0  0
   55.9385   29.8922   54.1502 N   0  0  0  0  0  0  0  0  0  0  0  0
   56.0926   29.7719   52.8096 C   0  0  0  0  0  0  0  0  0  0  0  0
   57.4080   29.7093   52.0932 C   0  0  0  0  0  0  0  0  0  0  0  0
   54.8678   29.7830   52.1783 C   0  0  0  0  0  0  0  0  0  0  0  0
   53.9048   29.8718   53.1664 C   0  0  0  0  0  0  0  0  0  0  0  0
   52.5845   29.8352   52.8959 C   0  0  0  0  0  0  0  0  0  0  0  0
   54.5978   29.9885   54.3830 C   0  0  0  0  0  0  0  0  0  0  0  0
   54.0649   30.2850   55.5801 C   0  0  0  0  0  0  0  0  0  0  0  0
   51.6138   30.8959   53.2041 C   0  0  0  0  0  0  0  0  0  0  0  0
   51.1087   31.1066   54.4320 N   0  0  0  0  0  0  0  0  0  0  0  0
   50.3808   32.2349   54.2801 C   0  0  0  0  0  0  0  0  0  0  0  0
   49.7292   32.7536   55.2238 O   0  0  0  0  0  0  0  0  0  0  0  0
   50.4185   32.7735   53.0421 N   0  0  0  0  0  0  0  0  0  0  0  0
   51.2152   31.9215   52.3759 C   0  0  0  0  0  0  0  0  0  0  0  0
   51.5911   32.0943   51.0495 O   0  0  0  0  0  0  0  0  0  0  0  0
   58.7429   32.9996   53.5015 C   0  0  0  0  0  0  0  0  0  0  0  0
   59.2688   33.6434   54.6316 C   0  0  0  0  0  0  0  0  0  0  0  0
   59.0504   33.1219   55.9078 C   0  0  0  0  0  0  0  0  0  0  0  0
   58.3195   31.9437   56.0696 C   0  0  0  0  0  0  0  0  0  0  0  0
   57.8087   31.2676   54.9502 C   0  0  0  0  0  0  0  0  0  0  0  0
   58.0270   31.7995   53.6679 C   0  0  0  0  0  0  0  0  0  0  0  0
   60.0071   33.0532   51.3020 C   0  0  0  0  0  0  0  0  0  0  0  0
   60.5798   31.9500   51.5225 O   0  0  0  0  0  0  0  0  0  0  0  0
   58.9974   33.5461   52.1968 N   0  0  0  0  0  0  0  0  0  0  0  0
   58.4459   34.3049   51.8980 H   0  0  0  0  0  0  0  0  0  0  0  0
   60.3209   33.8013   50.0418 C   0  0  0  0  0  0  0  0  0  0  0  0
   59.6458   33.1321   48.8401 C   0  0  0  0  0  0  0  0  0  0  0  0
   58.7057   34.0194   46.7201 C   0  0  0  0  0  0  0  0  0  0  0  0
   59.6859   34.0238   47.6282 C   0  0  0  0  0  0  0  0  0  0  0  0
 29 30  2  0
 30 28  1  0
 28 27  1  0
 27 23  1  0
 23 24  2  0
 23 25  1  0
 25 17  1  0
 17 18  2  0
 18 19  1  0
 19 20  2  0
 20 21  1  0
 21  1  1  0
  1  2  1  0
  2  3  1  0
  3  4  1  0
  3  5  2  0
  5  6  1  0
  6  7  2  0
  7 10  1  0
 10 11  1  0
 11 12  1  0
 12 13  2  0
 12 14  1  0
 14 15  1  0
 15 16  1  0
  6  8  1  0
  8  9  2  0
 21 22  2  0
 22 17  1  0
  8  2  1  0
 15 10  2  0
 25 26  1  0
M  CHG 1  11  -1
M  CHG 1  14  -1
M  CHG 1  16  -1
M  END
> <UniqueID>
85

> <SMILES>
C=CCCC(=O)Nc1cccc(Cn2c(C)c/c(=C/c3[n-]c(=O)[n-]c3[O-])c2=C)c1

> <Energy>
117.51317677212107

> <Genealogy>
C=CCCC(=O)Nc1cccc(Cn2c(C)cc(=Cc3[n-]c(=O)[n-]c3[O-])c2=C)c1 (protonated)
C=CCCC(=O)Nc1cccc(Cn2c(C)c/c(=C/c3[n-]c(=O)[n-]c3[O-])c2=C)c1 (cis-trans isomerization)
C=CCCC(=O)Nc1cccc(Cn2c(C)c/c(=C/c3[n-]c(=O)[n-]c3[O-])c2=C)c1 (3D coordinates assigned)
C=CCCC(=O)Nc1cccc(Cn2c(C)c/c(=C/c3[n-]c(=O)[n-]c3[O-])c2=C)c1 (optimized conformer: 117.51317677212107 kcal/mol)

> <smiles>
C=CCCC(=O)Nc1cccc(Cn2c(C)cc(=Cc3[nH]c(=O)[nH]c3O)c2=C)c1

> <score_type>
oracle

> <origin>
adg

> <m_score__min__energy>
-16.719999999999999

> <m_primary>
energy

> <minimizedAffinity>
-6.14640

> <minimizedRMSD>
0.79804

> <CNNscore>
0.3573732376

> <CNNaffinity>
6.1691966057

> <CNN_VS>
2.2047057152

> <CNNaffinity_variance>
0.6373977661

$$$$
87:0


 31 33  0  0  0  0  0  0  0  0999 V2000
   58.5574   31.0860   46.4192 C   0  0  0  0  0  0  0  0  0  0  0  0
   58.3708   32.1009   45.4717 C   0  0  0  0  0  0  0  0  0  0  0  0
   57.8649   31.7942   44.2062 C   0  0  0  0  0  0  0  0  0  0  0  0
   57.5267   30.4761   43.8873 C   0  0  0  0  0  0  0  0  0  0  0  0
   57.6780   29.4551   44.8357 C   0  0  0  0  0  0  0  0  0  0  0  0
   58.2142   29.7652   46.0980 C   0  0  0  0  0  0  0  0  0  0  0  0
   57.3298   28.1066   44.4812 N   0  0  0  0  0  0  0  0  0  0  0  0
   58.1372   26.9621   44.7962 C   0  0  0  0  0  0  0  0  0  0  0  0
   59.1201   27.0660   45.5808 O   0  0  0  0  0  0  0  0  0  0  0  0
   56.4876   27.9589   43.9933 H   0  0  0  0  0  0  0  0  0  0  0  0
   57.7652   25.6114   44.2652 C   0  0  0  0  0  0  0  0  0  0  0  0
   57.3114   24.7127   45.3925 C   0  0  0  0  0  0  0  0  0  0  0  0
   56.2608   25.0889   46.2491 C   0  0  0  0  0  0  0  0  0  0  0  0
   55.5871   26.2909   46.0669 O   0  0  0  0  0  0  0  0  0  0  0  0
   55.8902   24.2724   47.2692 N   0  0  0  0  0  0  0  0  0  0  0  0
   56.5232   23.0921   47.4895 C   0  0  0  0  0  0  0  0  0  0  0  0
   56.0530   22.1340   48.7243 S   0  0  0  0  0  0  0  0  0  0  0  0
   57.5468   22.7102   46.6860 N   0  0  0  0  0  0  0  0  0  0  0  0
   57.9554   23.4877   45.6502 C   0  0  0  0  0  0  0  0  0  0  0  0
   58.9144   23.1011   44.9290 O   0  0  0  0  0  0  0  0  0  0  0  0
   59.1929   31.4864   48.0127 S   0  0  0  0  0  0  0  0  0  0  0  0
   58.0754   31.5894   49.0122 O   0  0  0  0  0  0  0  0  0  0  0  0
   60.1256   30.3868   48.4366 O   0  0  0  0  0  0  0  0  0  0  0  0
   59.3476   34.1932   47.4675 C   0  0  0  0  0  0  0  0  0  0  0  0
   60.0494   33.0012   47.9432 N   0  0  0  0  0  0  0  0  0  0  0  0
   61.4245   33.0887   48.3710 C   0  0  0  0  0  0  0  0  0  0  0  0
   62.4729   32.8755   47.4578 C   0  0  0  0  0  0  0  0  0  0  0  0
   63.8041   32.9721   47.8717 C   0  0  0  0  0  0  0  0  0  0  0  0
   64.1029   33.2872   49.1992 C   0  0  0  0  0  0  0  0  0  0  0  0
   63.0722   33.5101   50.1129 C   0  0  0  0  0  0  0  0  0  0  0  0
   61.7393   33.4155   49.7024 C   0  0  0  0  0  0  0  0  0  0  0  0
 24 25  1  0
 25 26  1  0
 26 27  2  0
 27 28  1  0
 28 29  2  0
 29 30  1  0
 30 31  2  0
 25 21  1  0
 21 22  2  0
 21 23  2  0
 21  1  1  0
  1  2  2  0
  2  3  1  0
  3  4  2  0
  4  5  1  0
  5  7  1  0
  7  8  1  0
  8  9  2  0
  8 11  1  0
 11 12  1  0
 12 13  2  0
 13 14  1  0
 13 15  1  0
 15 16  1  0
 16 17  2  0
 16 18  1  0
 18 19  1  0
 19 20  2  0
  5  6  2  0
 31 26  1  0
  6  1  1  0
 19 12  1  0
  7 10  1  0
M  CHG 1  14  -1
M  CHG 1  15  -1
M  CHG 1  18  -1
M  END
> <UniqueID>
86

> <SMILES>
CN(c1ccccc1)S(=O)(=O)c1cccc(NC(=O)Cc2c([O-])[n-]c(=S)[n-]c2=O)c1

> <Energy>
56.18394692382622

> <Genealogy>
CN(c1ccccc1)S(=O)(=O)c1cccc(NC(=O)Cc2c([O-])[n-]c(=S)[n-]c2=O)c1 (protonated)
CN(c1ccccc1)S(=O)(=O)c1cccc(NC(=O)Cc2c([O-])[n-]c(=S)[n-]c2=O)c1 (3D coordinates assigned)
CN(c1ccccc1)S(=O)(=O)c1cccc(NC(=O)Cc2c([O-])[n-]c(=S)[n-]c2=O)c1 (optimized conformer: 56.18394692382622 kcal/mol)

> <smiles>
CN(c1ccccc1)S(=O)(=O)c1cccc(NC(=O)Cc2c(O)[nH]c(=S)[nH]c2=O)c1

> <score_type>
oracle

> <origin>
adg

> <m_score__min__energy>
-16.870000000000001

> <m_primary>
energy

> <minimizedAffinity>
-8.06408

> <minimizedRMSD>
0.71420

> <CNNscore>
0.6050649881

> <CNNaffinity>
7.0788936615

> <CNN_VS>
4.2831907272

> <CNNaffinity_variance>
0.1953251362

$$$$
89:0


 25 27  0  0  0  0  0  0  0  0999 V2000
   60.7443   29.5972   47.3281 C   0  0  0  0  0  0  0  0  0  0  0  0
   60.0481   30.5071   46.6279 C   0  0  0  0  0  0  0  0  0  0  0  0
   59.1593   30.2662   45.5638 C   0  0  0  0  0  0  0  0  0  0  0  0
   58.8947   29.1430   44.8676 C   0  0  0  0  0  0  0  0  0  0  0  0
   58.5377   31.4746   45.2979 C   0  0  0  0  0  0  0  0  0  0  0  0
   59.0956   32.4094   46.1454 C   0  0  0  0  0  0  0  0  0  0  0  0
   58.7167   33.8589   46.1805 C   0  0  0  0  0  0  0  0  0  0  0  0
   60.0088   31.8246   46.9535 N   0  0  0  0  0  0  0  0  0  0  0  0
   58.1930   27.9544   45.3868 C   0  0  0  0  0  0  0  0  0  0  0  0
   56.7906   27.9106   45.4618 C   0  0  0  0  0  0  0  0  0  0  0  0
   56.0198   28.9767   45.0134 O   0  0  0  0  0  0  0  0  0  0  0  0
   56.1741   26.8180   45.9844 N   0  0  0  0  0  0  0  0  0  0  0  0
   56.8924   25.7658   46.4548 C   0  0  0  0  0  0  0  0  0  0  0  0
   56.2992   24.7635   46.9308 O   0  0  0  0  0  0  0  0  0  0  0  0
   58.2490   25.7976   46.4192 N   0  0  0  0  0  0  0  0  0  0  0  0
   58.9127   26.8667   45.9060 C   0  0  0  0  0  0  0  0  0  0  0  0
   60.1728   26.8654   45.8951 O   0  0  0  0  0  0  0  0  0  0  0  0
   60.7738   32.4910   47.9746 C   0  0  0  0  0  0  0  0  0  0  0  0
   60.1662   32.8538   49.1869 C   0  0  0  0  0  0  0  0  0  0  0  0
   60.9102   33.4955   50.1810 C   0  0  0  0  0  0  0  0  0  0  0  0
   62.2649   33.7766   49.9733 C   0  0  0  0  0  0  0  0  0  0  0  0
   63.0012   34.4140   50.9655 O   0  0  0  0  0  0  0  0  0  0  0  0
   62.8760   33.4155   48.7665 C   0  0  0  0  0  0  0  0  0  0  0  0
   64.1880   33.6880   48.5594 F   0  0  0  0  0  0  0  0  0  0  0  0
   62.1331   32.7750   47.7706 C   0  0  0  0  0  0  0  0  0  0  0  0
  1  2  2  0
  2  3  1  0
  3  4  2  0
  4  9  1  0
  9 10  2  0
 10 11  1  0
 10 12  1  0
 12 13  1  0
 13 14  2  0
 13 15  1  0
 15 16  1  0
 16 17  2  0
  3  5  1  0
  5  6  2  0
  6  7  1  0
  6  8  1  0
  8 18  1  0
 18 19  2  0
 19 20  1  0
 20 21  2  0
 21 22  1  0
 21 23  1  0
 23 24  1  0
 23 25  2  0
  8  2  1  0
 25 18  1  0
 16  9  1  0
M  CHG 1  11  -1
M  CHG 1  12  -1
M  CHG 1  15  -1
M  CHG 1  22  -1
M  END
> <UniqueID>
88

> <SMILES>
C=c1c(=Cc2c([O-])[n-]c(=O)[n-]c2=O)cc(C)n1-c1ccc([O-])c(F)c1

> <Energy>
87.10095418845444

> <Genealogy>
C=c1c(=Cc2c([O-])[n-]c(=O)[n-]c2=O)cc(C)n1-c1ccc([O-])c(F)c1 (protonated)
C=c1c(=Cc2c([O-])[n-]c(=O)[n-]c2=O)cc(C)n1-c1ccc([O-])c(F)c1 (3D coordinates assigned)
C=c1c(=Cc2c([O-])[n-]c(=O)[n-]c2=O)cc(C)n1-c1ccc([O-])c(F)c1 (optimized conformer: 87.10095418845444 kcal/mol)

> <smiles>
C=c1c(=Cc2c(O)[nH]c(=O)[nH]c2=O)cc(C)n1-c1ccc(O)c(F)c1

> <score_type>
oracle

> <origin>
adg

> <m_score__min__energy>
-15.859999999999999

> <m_primary>
energy

> <minimizedAffinity>
-6.99643

> <minimizedRMSD>
1.03413

> <CNNscore>
0.4636860490

> <CNNaffinity>
6.9380240440

> <CNN_VS>
3.2170648575

> <CNNaffinity_variance>
0.4411599636

$$$$
29:0


 36 40  0  0  0  0  0  0  0  0999 V2000
   59.2695   28.6554   46.2590 C   0  0  0  0  0  0  0  0  0  0  0  0
   58.3069   29.6622   46.0995 C   0  0  0  0  0  0  0  0  0  0  0  0
   58.6135   30.9898   46.4130 C   0  0  0  0  0  0  0  0  0  0  0  0
   59.8847   31.3274   46.9066 C   0  0  0  0  0  0  0  0  0  0  0  0
   60.8509   30.3162   47.0559 C   0  0  0  0  0  0  0  0  0  0  0  0
   60.5441   28.9903   46.7350 C   0  0  0  0  0  0  0  0  0  0  0  0
   56.8277   27.6341   44.9198 C   0  0  0  0  0  0  0  0  0  0  0  0
   57.8675   26.8480   45.2404 C   0  0  0  0  0  0  0  0  0  0  0  0
   57.9431   25.4517   45.1116 C   0  0  0  0  0  0  0  0  0  0  0  0
   57.1603   24.5810   44.4430 C   0  0  0  0  0  0  0  0  0  0  0  0
   59.0662   25.0564   45.8196 C   0  0  0  0  0  0  0  0  0  0  0  0
   59.6745   26.2064   46.2781 C   0  0  0  0  0  0  0  0  0  0  0  0
   60.9373   26.2373   47.0836 C   0  0  0  0  0  0  0  0  0  0  0  0
   58.9511   27.2931   45.9265 N   0  0  0  0  0  0  0  0  0  0  0  0
   55.9495   23.9294   44.9746 C   0  0  0  0  0  0  0  0  0  0  0  0
   55.7128   22.6033   44.9456 N   0  0  0  0  0  0  0  0  0  0  0  0
   54.5763   22.4725   45.6646 C   0  0  0  0  0  0  0  0  0  0  0  0
   54.0183   21.3603   45.8536 O   0  0  0  0  0  0  0  0  0  0  0  0
   54.0924   23.6271   46.1754 N   0  0  0  0  0  0  0  0  0  0  0  0
   54.9826   24.5351   45.7414 C   0  0  0  0  0  0  0  0  0  0  0  0
   54.9265   25.8871   46.0599 O   0  0  0  0  0  0  0  0  0  0  0  0
   60.2069   32.7313   47.2527 C   0  0  0  0  0  0  0  0  0  0  0  0
   59.8366   33.6630   46.4878 O   0  0  0  0  0  0  0  0  0  0  0  0
   60.9377   33.0483   48.4467 N   0  0  0  0  0  0  0  0  0  0  0  0
   60.4340   32.5888   49.7459 C   0  0  0  0  0  0  0  0  0  0  0  0
   61.6076   32.2882   50.6722 C   0  0  0  0  0  0  0  0  0  0  0  0
   62.4122   33.5693   50.9428 C   0  0  0  0  0  0  0  0  0  0  0  0
   62.5859   34.4844   49.6967 C   0  0  0  0  0  0  0  0  0  0  0  0
   62.1604   33.8618   48.3486 C   0  0  0  0  0  0  0  0  0  0  0  0
   63.7032   33.2388   51.5848 N   0  0  0  0  0  0  0  0  0  0  0  0
   63.9570   33.7168   52.9550 C   0  0  0  0  0  0  0  0  0  0  0  0
   64.7452   32.6766   53.7481 C   0  0  0  0  0  0  0  0  0  0  0  0
   66.1005   32.4507   53.0806 C   0  0  0  0  0  0  0  0  0  0  0  0
   65.9763   31.9956   51.6112 C   0  0  0  0  0  0  0  0  0  0  0  0
   64.7037   32.4267   50.9205 C   0  0  0  0  0  0  0  0  0  0  0  0
   64.5200   32.0301   49.7400 O   0  0  0  0  0  0  0  0  0  0  0  0
  7  8  2  0
  8  9  1  0
  9 10  2  0
 10 15  1  0
 15 16  1  0
 16 17  1  0
 17 18  2  0
 17 19  1  0
 19 20  1  0
 20 21  1  0
  9 11  1  0
 11 12  2  0
 12 13  1  0
 12 14  1  0
 14  1  1  0
  1  2  2  0
  2  3  1  0
  3  4  2  0
  4 22  1  0
 22 23  2  0
 22 24  1  0
 24 25  1  0
 25 26  1  0
 26 27  1  0
 27 30  1  0
 30 31  1  0
 31 32  1  0
 32 33  1  0
 33 34  1  0
 34 35  1  0
 35 36  2  0
 27 28  1  0
 28 29  1  0
  4  5  1  0
  5  6  2  0
 14  8  1  0
  6  1  1  0
 20 15  2  0
 29 24  1  0
 35 30  1  0
M  CHG 1  16  -1
M  CHG 1  19  -1
M  CHG 1  21  -1
M  END
> <UniqueID>
28

> <SMILES>
C=c1c(=Cc2[n-]c(=O)[n-]c2[O-])cc(C)n1-c1ccc(C(=O)N2CCC(N3CCCCC3=O)CC2)cc1

> <Energy>
152.29513803821467

> <Genealogy>
C=c1c(=Cc2[n-]c(=O)[n-]c2[O-])cc(C)n1-c1ccc(C(=O)N2CCC(N3CCCCC3=O)CC2)cc1 (protonated)
C=c1c(=Cc2[n-]c(=O)[n-]c2[O-])cc(C)n1-c1ccc(C(=O)N2CCC(N3CCCCC3=O)CC2)cc1 (3D coordinates assigned)
C=c1c(=Cc2[n-]c(=O)[n-]c2[O-])cc(C)n1-c1ccc(C(=O)N2CCC(N3CCCCC3=O)CC2)cc1 (nonaromatic ring conformer: 152.29513803821467 kcal/mol)

> <smiles>
C=c1c(=Cc2[nH]c(=O)[nH]c2O)cc(C)n1-c1ccc(C(=O)N2CCC(N3CCCCC3=O)CC2)cc1

> <score_type>
oracle

> <origin>
adg

> <m_score__min__energy>
-16.899999999999999

> <m_primary>
energy

> <minimizedAffinity>
-7.85263

> <minimizedRMSD>
0.80056

> <CNNscore>
0.0428838655

> <CNNaffinity>
6.2337017059

> <CNN_VS>
0.2673252225

> <CNNaffinity_variance>
0.0332746767

$$$$
34:0


 24 26  0  0  0  0  0  0  0  0999 V2000
   59.0750   29.1690   44.6373 C   0  0  0  0  0  0  0  0  0  0  0  0
   59.2444   28.5709   45.8270 C   0  0  0  0  0  0  0  0  0  0  0  0
   58.9587   27.2375   46.1362 C   0  0  0  0  0  0  0  0  0  0  0  0
   58.4809   26.2892   45.3075 C   0  0  0  0  0  0  0  0  0  0  0  0
   59.3116   27.0619   47.4684 C   0  0  0  0  0  0  0  0  0  0  0  0
   59.7745   28.2816   47.9186 C   0  0  0  0  0  0  0  0  0  0  0  0
   60.2843   28.5404   49.3046 C   0  0  0  0  0  0  0  0  0  0  0  0
   59.7462   29.1935   46.9226 N   0  0  0  0  0  0  0  0  0  0  0  0
   57.6556   25.1473   45.7642 C   0  0  0  0  0  0  0  0  0  0  0  0
   56.3296   25.3573   46.1671 C   0  0  0  0  0  0  0  0  0  0  0  0
   55.7643   26.6260   46.1097 O   0  0  0  0  0  0  0  0  0  0  0  0
   55.5798   24.3140   46.6072 N   0  0  0  0  0  0  0  0  0  0  0  0
   56.0969   23.0615   46.6811 C   0  0  0  0  0  0  0  0  0  0  0  0
   55.1711   21.8271   47.2126 S   0  0  0  0  0  0  0  0  0  0  0  0
   57.3868   22.8363   46.3232 N   0  0  0  0  0  0  0  0  0  0  0  0
   58.1780   23.8450   45.8782 C   0  0  0  0  0  0  0  0  0  0  0  0
   59.3814   23.6043   45.5888 O   0  0  0  0  0  0  0  0  0  0  0  0
   60.1538   30.5679   47.0283 C   0  0  0  0  0  0  0  0  0  0  0  0
   61.4871   30.8890   47.3109 C   0  0  0  0  0  0  0  0  0  0  0  0
   61.8783   32.2250   47.4008 C   0  0  0  0  0  0  0  0  0  0  0  0
   60.9292   33.2294   47.2066 C   0  0  0  0  0  0  0  0  0  0  0  0
   59.6368   32.9036   46.9369 N   0  0  0  0  0  0  0  0  0  0  0  0
   59.2281   31.6086   46.8456 C   0  0  0  0  0  0  0  0  0  0  0  0
   57.8936   31.3277   46.5825 O   0  0  0  0  0  0  0  0  0  0  0  0
  1  2  2  0
  2  3  1  0
  3  4  2  0
  4  9  1  0
  9 10  2  0
 10 11  1  0
 10 12  1  0
 12 13  1  0
 13 14  2  0
 13 15  1  0
 15 16  1  0
 16 17  2  0
  3  5  1  0
  5  6  2  0
  6  7  1  0
  6  8  1  0
  8 18  1  0
 18 19  2  0
 19 20  1  0
 20 21  2  0
 21 22  1  0
 22 23  2  0
 23 24  1  0
  8  2  1  0
 23 18  1  0
 16  9  1  0
M  CHG 1  11  -1
M  CHG 1  12  -1
M  CHG 1  15  -1
M  CHG 1  24  -1
M  END
> <UniqueID>
32

> <SMILES>
C=c1c(=Cc2c([O-])[n-]c(=S)[n-]c2=O)cc(C)n1-c1cccnc1[O-]

> <Energy>
82.9465892544172

> <Genealogy>
C=c1c(=Cc2c([O-])[n-]c(=S)[n-]c2=O)cc(C)n1-c1cccnc1[O-] (protonated)
C=c1c(=Cc2c([O-])[n-]c(=S)[n-]c2=O)cc(C)n1-c1cccnc1[O-] (3D coordinates assigned)
C=c1c(=Cc2c([O-])[n-]c(=S)[n-]c2=O)cc(C)n1-c1cccnc1[O-] (optimized conformer: 82.9465892544172 kcal/mol)

> <smiles>
C=c1c(=Cc2c(O)[nH]c(=S)[nH]c2=O)cc(C)n1-c1cccnc1O

> <score_type>
oracle

> <origin>
adg

> <m_score__min__energy>
-16.289999999999999

> <m_primary>
energy

> <minimizedAffinity>
-7.84968

> <minimizedRMSD>
1.94207

> <CNNscore>
0.3452963829

> <CNNaffinity>
6.5920929909

> <CNN_VS>
2.2762258053

> <CNNaffinity_variance>
0.6987475753

$$$$
49:0


 29 32  0  0  0  0  0  0  0  0999 V2000
   55.8884   28.3677   53.5470 C   0  0  0  0  0  0  0  0  0  0  0  0
   56.0147   29.6537   53.1818 C   0  0  0  0  0  0  0  0  0  0  0  0
   54.9897   30.5268   52.7849 C   0  0  0  0  0  0  0  0  0  0  0  0
   53.6493   30.4049   52.8469 C   0  0  0  0  0  0  0  0  0  0  0  0
   55.6149   31.6527   52.2708 C   0  0  0  0  0  0  0  0  0  0  0  0
   56.9714   31.4646   52.4349 C   0  0  0  0  0  0  0  0  0  0  0  0
   58.0231   32.4488   52.0203 C   0  0  0  0  0  0  0  0  0  0  0  0
   57.2160   30.2553   52.9878 N   0  0  0  0  0  0  0  0  0  0  0  0
   52.7285   30.4617   51.7018 C   0  0  0  0  0  0  0  0  0  0  0  0
   52.8285   29.6589   50.6280 N   0  0  0  0  0  0  0  0  0  0  0  0
   51.8821   30.1376   49.7907 C   0  0  0  0  0  0  0  0  0  0  0  0
   51.6530   29.6280   48.6631 O   0  0  0  0  0  0  0  0  0  0  0  0
   51.2090   31.2136   50.2521 N   0  0  0  0  0  0  0  0  0  0  0  0
   51.7662   31.4152   51.4566 C   0  0  0  0  0  0  0  0  0  0  0  0
   51.4235   32.4651   52.2992 O   0  0  0  0  0  0  0  0  0  0  0  0
   58.5180   29.7079   53.2635 C   0  0  0  0  0  0  0  0  0  0  0  0
   58.9717   29.6069   54.5855 C   0  0  0  0  0  0  0  0  0  0  0  0
   60.2333   29.0737   54.8591 C   0  0  0  0  0  0  0  0  0  0  0  0
   61.0612   28.6240   53.8149 C   0  0  0  0  0  0  0  0  0  0  0  0
   60.6035   28.7356   52.4879 C   0  0  0  0  0  0  0  0  0  0  0  0
   59.3405   29.2699   52.2164 C   0  0  0  0  0  0  0  0  0  0  0  0
   58.9147   29.3568   50.9301 F   0  0  0  0  0  0  0  0  0  0  0  0
   62.4015   28.0649   54.1181 C   0  0  0  0  0  0  0  0  0  0  0  0
   63.4082   28.8253   54.0939 O   0  0  0  0  0  0  0  0  0  0  0  0
   62.5698   26.6787   54.4499 N   0  0  0  0  0  0  0  0  0  0  0  0
   61.7747   26.1078   54.5560 H   0  0  0  0  0  0  0  0  0  0  0  0
   63.8963   26.0987   54.6329 C   0  0  0  0  0  0  0  0  0  0  0  0
   63.9688   24.6158   54.3105 C   0  0  0  0  0  0  0  0  0  0  0  0
   64.5320   25.6359   53.3331 C   0  0  0  0  0  0  0  0  0  0  0  0
  1  2  2  0
  2  3  1  0
  3  4  2  0
  4  9  1  0
  9 10  1  0
 10 11  1  0
 11 12  2  0
 11 13  1  0
 13 14  1  0
 14 15  1  0
  3  5  1  0
  5  6  2  0
  6  7  1  0
  6  8  1  0
  8 16  1  0
 16 17  2  0
 17 18  1  0
 18 19  2  0
 19 23  1  0
 23 24  2  0
 23 25  1  0
 25 27  1  0
 27 28  1  0
 28 29  1  0
 19 20  1  0
 20 21  2  0
 21 22  1  0
  8  2  1  0
 21 16  1  0
 14  9  2  0
 29 27  1  0
 25 26  1  0
M  CHG 1  10  -1
M  CHG 1  13  -1
M  CHG 1  15  -1
M  END
> <UniqueID>
47

> <SMILES>
C=c1c(=Cc2[n-]c(=O)[n-]c2[O-])cc(C)n1-c1ccc(C(=O)NC2CC2)cc1F

> <Energy>
388.05312329125064

> <Genealogy>
C=c1c(=Cc2[n-]c(=O)[n-]c2[O-])cc(C)n1-c1ccc(C(=O)NC2CC2)cc1F (protonated)
C=c1c(=Cc2[n-]c(=O)[n-]c2[O-])cc(C)n1-c1ccc(C(=O)NC2CC2)cc1F (3D coordinates assigned)
C=c1c(=Cc2[n-]c(=O)[n-]c2[O-])cc(C)n1-c1ccc(C(=O)NC2CC2)cc1F (nonaromatic ring conformer: 388.05312329125064 kcal/mol)

> <smiles>
C=c1c(=Cc2[nH]c(=O)[nH]c2O)cc(C)n1-c1ccc(C(=O)NC2CC2)cc1F

> <score_type>
oracle

> <origin>
adg

> <m_score__min__energy>
-15.300000000000001

> <m_primary>
energy

> <minimizedAffinity>
-3.67927

> <minimizedRMSD>
1.53736

> <CNNscore>
0.1187040880

> <CNNaffinity>
4.7705760002

> <CNN_VS>
0.5662868619

> <CNNaffinity_variance>
0.4254127443

$$$$
56:0


 32 35  0  0  0  0  0  0  0  0999 V2000
   56.9244   23.8118   46.1444 C   0  0  0  0  0  0  0  0  0  0  0  0
   57.6370   24.9541   46.1083 C   0  0  0  0  0  0  0  0  0  0  0  0
   58.0480   25.6108   47.2538 C   0  0  0  0  0  0  0  0  0  0  0  0
   58.8089   26.6862   46.8494 C   0  0  0  0  0  0  0  0  0  0  0  0
   59.4051   27.6923   47.7874 C   0  0  0  0  0  0  0  0  0  0  0  0
   58.8546   26.7567   45.4973 N   0  0  0  0  0  0  0  0  0  0  0  0
   58.1111   25.7156   45.0261 C   0  0  0  0  0  0  0  0  0  0  0  0
   57.7719   25.5609   43.7358 C   0  0  0  0  0  0  0  0  0  0  0  0
   54.8941   26.0748   45.9205 O   0  0  0  0  0  0  0  0  0  0  0  0
   54.5818   24.7227   45.8260 C   0  0  0  0  0  0  0  0  0  0  0  0
   53.3341   24.2466   45.6840 N   0  0  0  0  0  0  0  0  0  0  0  0
   53.5281   22.9096   45.6703 C   0  0  0  0  0  0  0  0  0  0  0  0
   52.5808   22.0895   45.5563 O   0  0  0  0  0  0  0  0  0  0  0  0
   54.8151   22.5219   45.7965 N   0  0  0  0  0  0  0  0  0  0  0  0
   55.4851   23.6880   45.8681 C   0  0  0  0  0  0  0  0  0  0  0  0
   54.2127   26.7168   45.8823 H   0  0  0  0  0  0  0  0  0  0  0  0
   59.4654   27.8627   44.7358 C   0  0  0  0  0  0  0  0  0  0  0  0
   58.6405   29.1167   44.8758 C   0  0  0  0  0  0  0  0  0  0  0  0
   57.3914   29.2259   44.2455 C   0  0  0  0  0  0  0  0  0  0  0  0
   56.6565   30.4123   44.3360 C   0  0  0  0  0  0  0  0  0  0  0  0
   57.1730   31.5041   45.0409 C   0  0  0  0  0  0  0  0  0  0  0  0
   58.4264   31.4162   45.6643 C   0  0  0  0  0  0  0  0  0  0  0  0
   59.1331   30.2055   45.6116 C   0  0  0  0  0  0  0  0  0  0  0  0
   58.9926   32.5788   46.3803 C   0  0  0  0  0  0  0  0  0  0  0  0
   58.7824   33.7397   45.9318 O   0  0  0  0  0  0  0  0  0  0  0  0
   59.7924   32.4095   47.5686 N   0  0  0  0  0  0  0  0  0  0  0  0
   59.7750   33.4228   48.6260 C   0  0  0  0  0  0  0  0  0  0  0  0
   61.1784   34.0299   48.8053 C   0  0  0  0  0  0  0  0  0  0  0  0
   62.2879   33.0561   48.6142 N   0  0  0  0  0  0  0  0  0  0  0  0
   63.0514   33.3308   47.3833 C   0  0  0  0  0  0  0  0  0  0  0  0
   61.8622   31.6419   48.6908 C   0  0  0  0  0  0  0  0  0  0  0  0
   60.7700   31.3166   47.6583 C   0  0  0  0  0  0  0  0  0  0  0  0
  9 10  1  0
 10 11  1  0
 11 12  1  0
 12 13  2  0
 12 14  1  0
 14 15  1  0
 15  1  1  0
  1  2  2  0
  2  3  1  0
  3  4  2  0
  4  5  1  0
  4  6  1  0
  6 17  1  0
 17 18  1  0
 18 19  2  0
 19 20  1  0
 20 21  2  0
 21 22  1  0
 22 24  1  0
 24 25  2  0
 24 26  1  0
 26 27  1  0
 27 28  1  0
 28 29  1  0
 29 30  1  0
 29 31  1  0
 31 32  1  0
 22 23  2  0
  6  7  1  0
  7  8  2  0
 15 10  2  0
  7  2  1  0
 23 18  1  0
 32 26  1  0
  9 16  1  0
M  CHG 1  11  -1
M  CHG 1  14  -1
M  END
> <UniqueID>
54

> <SMILES>
C=c1/c(=C\c2[n-]c(=O)[n-]c2O)cc(C)n1Cc1cccc(C(=O)N2CCN(C)CC2)c1

> <Energy>
137.35413947402438

> <Genealogy>
C=c1c(=Cc2[n-]c(=O)[n-]c2O)cc(C)n1Cc1cccc(C(=O)N2CCN(C)CC2)c1 (protonated)
C=c1/c(=C\c2[n-]c(=O)[n-]c2O)cc(C)n1Cc1cccc(C(=O)N2CCN(C)CC2)c1 (cis-trans isomerization)
C=c1/c(=C\c2[n-]c(=O)[n-]c2O)cc(C)n1Cc1cccc(C(=O)N2CCN(C)CC2)c1 (3D coordinates assigned)
C=c1/c(=C\c2[n-]c(=O)[n-]c2O)cc(C)n1Cc1cccc(C(=O)N2CCN(C)CC2)c1 (nonaromatic ring conformer: 137.35413947402438 kcal/mol)

> <smiles>
C=c1c(=Cc2[nH]c(=O)[nH]c2O)cc(C)n1Cc1cccc(C(=O)N2CCN(C)CC2)c1

> <score_type>
oracle

> <origin>
adg

> <m_score__min__energy>
-14.34

> <m_primary>
energy

> <minimizedAffinity>
-8.98876

> <minimizedRMSD>
1.29238

> <CNNscore>
0.1935969293

> <CNNaffinity>
6.3807315826

> <CNN_VS>
1.2352900505

> <CNNaffinity_variance>
0.0769723579

$$$$
63:0


 29 31  0  0  0  0  0  0  0  0999 V2000
   58.5246   26.6559   46.7789 C   0  0  0  0  0  0  0  0  0  0  0  0
   59.2063   26.4046   47.9814 C   0  0  0  0  0  0  0  0  0  0  0  0
   60.2446   27.2418   48.4117 C   0  0  0  0  0  0  0  0  0  0  0  0
   60.6261   28.3271   47.6162 C   0  0  0  0  0  0  0  0  0  0  0  0
   59.9620   28.5886   46.4192 C   0  0  0  0  0  0  0  0  0  0  0  0
   58.9088   27.7669   45.9823 C   0  0  0  0  0  0  0  0  0  0  0  0
   55.7572   26.4644   46.0532 N   0  0  0  0  0  0  0  0  0  0  0  0
   57.2071   25.5620   46.3128 S   0  0  0  0  0  0  0  0  0  0  0  0
   57.5794   24.8166   45.0625 O   0  0  0  0  0  0  0  0  0  0  0  0
   56.9526   24.5610   47.4046 O   0  0  0  0  0  0  0  0  0  0  0  0
   55.0050   25.8296   45.7858 H   0  0  0  0  0  0  0  0  0  0  0  0
   60.9505   26.9816   49.7180 C   0  0  0  0  0  0  0  0  0  0  0  0
   60.5360   27.9545   50.7294 N   0  0  0  0  0  0  0  0  0  0  0  0
   60.2947   27.6148   51.6214 H   0  0  0  0  0  0  0  0  0  0  0  0
   60.4571   29.3768   50.5077 C   0  0  0  0  0  0  0  0  0  0  0  0
   61.6107   30.1719   50.3578 C   0  0  0  0  0  0  0  0  0  0  0  0
   61.4957   31.5515   50.1553 C   0  0  0  0  0  0  0  0  0  0  0  0
   60.2350   32.1483   50.0943 C   0  0  0  0  0  0  0  0  0  0  0  0
   59.0852   31.3681   50.2322 C   0  0  0  0  0  0  0  0  0  0  0  0
   59.1942   29.9886   50.4360 C   0  0  0  0  0  0  0  0  0  0  0  0
   58.1939   28.1475   44.7047 C   0  0  0  0  0  0  0  0  0  0  0  0
   57.8137   29.6011   44.6958 C   0  0  0  0  0  0  0  0  0  0  0  0
   58.8837   30.9042   44.6119 S   0  0  0  0  0  0  0  0  0  0  0  0
   57.6410   32.0300   44.5292 C   0  0  0  0  0  0  0  0  0  0  0  0
   57.8160   33.2745   44.4544 O   0  0  0  0  0  0  0  0  0  0  0  0
   56.4196   31.4589   44.5405 N   0  0  0  0  0  0  0  0  0  0  0  0
   56.5148   30.1045   44.6225 C   0  0  0  0  0  0  0  0  0  0  0  0
   55.3889   29.2887   44.6304 O   0  0  0  0  0  0  0  0  0  0  0  0
   54.5342   29.6693   44.5793 H   0  0  0  0  0  0  0  0  0  0  0  0
  7  8  1  0
  8  9  2  0
  8 10  2  0
  8  1  1  0
  1  2  2  0
  2  3  1  0
  3 12  1  0
 12 13  1  0
 13 15  1  0
 15 16  2  0
 16 17  1  0
 17 18  2  0
 18 19  1  0
 19 20  2  0
  3  4  2  0
  4  5  1  0
  5  6  2  0
  6 21  1  0
 21 22  1  0
 22 23  1  0
 23 24  1  0
 24 25  2  0
 24 26  1  0
 26 27  1  0
 27 28  1  0
  6  1  1  0
 27 22  2  0
 20 15  1  0
  7 11  1  0
 13 14  1  0
 28 29  1  0
M  CHG 1   7  -1
M  CHG 1  26  -1
M  END
> <UniqueID>
61

> <SMILES>
[NH-]S(=O)(=O)c1cc(CNc2ccccc2)ccc1Cc1sc(=O)[n-]c1O

> <Energy>
73.66463252915477

> <Genealogy>
[NH-]S(=O)(=O)c1cc(CNc2ccccc2)ccc1Cc1sc(=O)[n-]c1O (protonated)
[NH-]S(=O)(=O)c1cc(CNc2ccccc2)ccc1Cc1sc(=O)[n-]c1O (3D coordinates assigned)
[NH-]S(=O)(=O)c1cc(CNc2ccccc2)ccc1Cc1sc(=O)[n-]c1O (optimized conformer: 73.66463252915477 kcal/mol)

> <smiles>
NS(=O)(=O)c1cc(CNc2ccccc2)ccc1Cc1sc(=O)[nH]c1O

> <score_type>
oracle

> <origin>
adg

> <m_score__min__energy>
-15.76

> <m_primary>
energy

> <minimizedAffinity>
-6.50918

> <minimizedRMSD>
0.62987

> <CNNscore>
0.6771323085

> <CNNaffinity>
6.5951819420

> <CNN_VS>
4.4658107758

> <CNNaffinity_variance>
0.2072858065

$$$$
64:0


 29 31  0  0  0  0  0  0  0  0999 V2000
   56.9769   32.3076   45.2319 O   0  0  0  0  0  0  0  0  0  0  0  0
   58.0516   31.4841   45.5620 C   0  0  0  0  0  0  0  0  0  0  0  0
   58.1887   30.2513   44.9082 C   0  0  0  0  0  0  0  0  0  0  0  0
   59.2035   29.3608   45.2736 C   0  0  0  0  0  0  0  0  0  0  0  0
   60.0593   29.7139   46.3216 C   0  0  0  0  0  0  0  0  0  0  0  0
   59.9288   30.9193   46.9334 N   0  0  0  0  0  0  0  0  0  0  0  0
   58.9795   31.8285   46.5788 C   0  0  0  0  0  0  0  0  0  0  0  0
   58.9590   32.9610   47.2290 N   0  0  0  0  0  0  0  0  0  0  0  0
   56.3813   32.0520   44.5553 H   0  0  0  0  0  0  0  0  0  0  0  0
   59.9366   34.0100   47.2539 C   0  0  0  0  0  0  0  0  0  0  0  0
   59.6931   35.1224   46.7127 O   0  0  0  0  0  0  0  0  0  0  0  0
   61.2720   33.7457   47.8064 C   0  0  0  0  0  0  0  0  0  0  0  0
   61.6597   33.7191   49.4431 S   0  0  0  0  0  0  0  0  0  0  0  0
   63.2939   33.3773   49.2397 C   0  0  0  0  0  0  0  0  0  0  0  0
   63.5532   33.2805   47.8787 C   0  0  0  0  0  0  0  0  0  0  0  0
   62.4253   33.4868   47.0750 C   0  0  0  0  0  0  0  0  0  0  0  0
   59.3187   28.0148   44.6127 C   0  0  0  0  0  0  0  0  0  0  0  0
   58.5938   26.9734   45.4213 C   0  0  0  0  0  0  0  0  0  0  0  0
   59.3040   26.1290   46.2864 C   0  0  0  0  0  0  0  0  0  0  0  0
   58.6288   25.1885   47.0697 C   0  0  0  0  0  0  0  0  0  0  0  0
   57.2275   25.0855   47.0061 C   0  0  0  0  0  0  0  0  0  0  0  0
   56.5174   25.9374   46.1478 C   0  0  0  0  0  0  0  0  0  0  0  0
   55.1318   25.8565   46.0705 O   0  0  0  0  0  0  0  0  0  0  0  0
   57.1949   26.8772   45.3638 C   0  0  0  0  0  0  0  0  0  0  0  0
   56.4955   24.1363   47.7951 N   0  0  0  0  0  0  0  0  0  0  0  0
   56.4333   22.4237   47.5265 S   0  0  0  0  0  0  0  0  0  0  0  0
   57.3658   22.0793   46.4002 O   0  0  0  0  0  0  0  0  0  0  0  0
   56.8776   21.6910   48.7616 O   0  0  0  0  0  0  0  0  0  0  0  0
   54.7840   21.9337   47.0701 C   0  0  0  0  0  0  0  0  0  0  0  0
  1  2  1  0
  2  3  2  0
  3  4  1  0
  4 17  1  0
 17 18  1  0
 18 19  2  0
 19 20  1  0
 20 21  2  0
 21 25  1  0
 25 26  1  0
 26 27  2  0
 26 28  2  0
 26 29  1  0
 21 22  1  0
 22 23  1  0
 22 24  2  0
  4  5  2  0
  5  6  1  0
  6  7  1  0
  7  8  2  0
  8 10  1  0
 10 11  2  0
 10 12  1  0
 12 13  1  0
 13 14  1  0
 14 15  2  0
 15 16  1  0
  7  2  1  0
 16 12  2  0
 24 18  1  0
  1  9  1  0
M  CHG 1   6  -1
M  CHG 1  23  -1
M  CHG 1  25  -1
M  END
> <UniqueID>
62

> <SMILES>
CS(=O)(=O)[N-]c1ccc(Cc2c[n-]/c(=N/C(=O)c3cccs3)c(O)c2)cc1[O-]

> <Energy>
79.71775632597912

> <Genealogy>
CS(=O)(=O)[N-]c1ccc(Cc2c[n-]c(=NC(=O)c3cccs3)c(O)c2)cc1[O-] (protonated)
CS(=O)(=O)[N-]c1ccc(Cc2c[n-]/c(=N/C(=O)c3cccs3)c(O)c2)cc1[O-] (cis-trans isomerization)
CS(=O)(=O)[N-]c1ccc(Cc2c[n-]/c(=N/C(=O)c3cccs3)c(O)c2)cc1[O-] (3D coordinates assigned)
CS(=O)(=O)[N-]c1ccc(Cc2c[n-]/c(=N/C(=O)c3cccs3)c(O)c2)cc1[O-] (optimized conformer: 79.71775632597912 kcal/mol)

> <smiles>
CS(=O)(=O)Nc1ccc(Cc2c[nH]c(=NC(=O)c3cccs3)c(O)c2)cc1O

> <score_type>
oracle

> <origin>
adg

> <m_score__min__energy>
-14.73

> <m_primary>
energy

> <minimizedAffinity>
-8.38988

> <minimizedRMSD>
0.77245

> <CNNscore>
0.2547435164

> <CNNaffinity>
6.4125933647

> <CNN_VS>
1.6335666180

> <CNNaffinity_variance>
0.3954558074

$$$$
72:0


 25 28  0  0  0  0  0  0  0  0999 V2000
   55.1893   28.0851   53.8306 C   0  0  0  0  0  0  0  0  0  0  0  0
   55.3959   29.2525   53.2012 C   0  0  0  0  0  0  0  0  0  0  0  0
   54.4195   30.1703   52.7784 C   0  0  0  0  0  0  0  0  0  0  0  0
   53.0827   30.0507   52.6696 C   0  0  0  0  0  0  0  0  0  0  0  0
   55.0987   31.3294   52.4390 C   0  0  0  0  0  0  0  0  0  0  0  0
   56.4442   31.0625   52.5852 C   0  0  0  0  0  0  0  0  0  0  0  0
   57.5410   32.0443   52.2986 C   0  0  0  0  0  0  0  0  0  0  0  0
   56.6276   29.8057   53.0463 N   0  0  0  0  0  0  0  0  0  0  0  0
   57.8966   29.1971   53.3506 C   0  0  0  0  0  0  0  0  0  0  0  0
   58.1844   28.7746   54.6585 C   0  0  0  0  0  0  0  0  0  0  0  0
   59.4175   28.1881   54.9563 C   0  0  0  0  0  0  0  0  0  0  0  0
   60.3745   28.0177   53.9509 C   0  0  0  0  0  0  0  0  0  0  0  0
   61.5751   27.4470   54.2386 N   0  0  0  0  0  0  0  0  0  0  0  0
   62.5275   27.2659   53.2840 C   0  0  0  0  0  0  0  0  0  0  0  0
   62.2885   27.6687   51.9678 C   0  0  0  0  0  0  0  0  0  0  0  0
   61.0653   28.2590   51.6412 C   0  0  0  0  0  0  0  0  0  0  0  0
   60.0932   28.4399   52.6324 C   0  0  0  0  0  0  0  0  0  0  0  0
   58.8547   29.0287   52.3389 C   0  0  0  0  0  0  0  0  0  0  0  0
   52.2971   30.2881   51.4473 C   0  0  0  0  0  0  0  0  0  0  0  0
   52.2965   29.4834   50.3678 N   0  0  0  0  0  0  0  0  0  0  0  0
   51.5563   30.1698   49.4696 C   0  0  0  0  0  0  0  0  0  0  0  0
   51.3090   29.7289   48.3172 O   0  0  0  0  0  0  0  0  0  0  0  0
   51.1115   31.3702   49.8999 N   0  0  0  0  0  0  0  0  0  0  0  0
   51.6029   31.4337   51.1492 C   0  0  0  0  0  0  0  0  0  0  0  0
   51.4229   32.5196   51.9957 O   0  0  0  0  0  0  0  0  0  0  0  0
  1  2  2  0
  2  3  1  0
  3  4  2  0
  4 19  1  0
 19 20  1  0
 20 21  1  0
 21 22  2  0
 21 23  1  0
 23 24  1  0
 24 25  1  0
  3  5  1  0
  5  6  2  0
  6  7  1  0
  6  8  1  0
  8  9  1  0
  9 10  2  0
 10 11  1  0
 11 12  2  0
 12 13  1  0
 13 14  2  0
 14 15  1  0
 15 16  2  0
 16 17  1  0
 17 18  2  0
  8  2  1  0
 18  9  1  0
 24 19  2  0
 17 12  1  0
M  CHG 1  20  -1
M  CHG 1  23  -1
M  CHG 1  25  -1
M  END
> <UniqueID>
70

> <SMILES>
C=c1c(=Cc2[n-]c(=O)[n-]c2[O-])cc(C)n1-c1ccc2ncccc2c1

> <Energy>
120.29242096745288

> <Genealogy>
C=c1c(=Cc2[n-]c(=O)[n-]c2[O-])cc(C)n1-c1ccc2ncccc2c1 (protonated)
C=c1c(=Cc2[n-]c(=O)[n-]c2[O-])cc(C)n1-c1ccc2ncccc2c1 (3D coordinates assigned)
C=c1c(=Cc2[n-]c(=O)[n-]c2[O-])cc(C)n1-c1ccc2ncccc2c1 (optimized conformer: 120.29242096745288 kcal/mol)

> <smiles>
C=c1c(=Cc2[nH]c(=O)[nH]c2O)cc(C)n1-c1ccc2ncccc2c1

> <score_type>
oracle

> <origin>
adg

> <m_score__min__energy>
-15.779999999999999

> <m_primary>
energy

> <minimizedAffinity>
-3.88910

> <minimizedRMSD>
0.91629

> <CNNscore>
0.1243305057

> <CNNaffinity>
4.4368748665

> <CNN_VS>
0.5516389012

> <CNNaffinity_variance>
0.4573574066

$$$$
75:0


 33 36  0  0  0  0  0  0  0  0999 V2000
   59.4069   26.8216   47.1569 C   0  0  0  0  0  0  0  0  0  0  0  0
   58.8223   27.5297   46.1776 C   0  0  0  0  0  0  0  0  0  0  0  0
   58.1132   27.0348   45.0691 C   0  0  0  0  0  0  0  0  0  0  0  0
   57.7392   25.7819   44.7368 C   0  0  0  0  0  0  0  0  0  0  0  0
   57.7989   28.1355   44.2872 C   0  0  0  0  0  0  0  0  0  0  0  0
   58.2813   29.2457   44.9448 C   0  0  0  0  0  0  0  0  0  0  0  0
   58.1482   30.6553   44.4539 C   0  0  0  0  0  0  0  0  0  0  0  0
   58.8935   28.8836   46.0929 N   0  0  0  0  0  0  0  0  0  0  0  0
   57.2204   24.7648   45.6707 C   0  0  0  0  0  0  0  0  0  0  0  0
   56.0136   24.9795   46.3511 C   0  0  0  0  0  0  0  0  0  0  0  0
   55.2642   26.1270   46.1183 O   0  0  0  0  0  0  0  0  0  0  0  0
   55.5643   24.0571   47.2413 N   0  0  0  0  0  0  0  0  0  0  0  0
   56.2738   22.9294   47.4998 C   0  0  0  0  0  0  0  0  0  0  0  0
   55.8354   22.0866   48.3242 O   0  0  0  0  0  0  0  0  0  0  0  0
   57.4572   22.7099   46.8715 N   0  0  0  0  0  0  0  0  0  0  0  0
   57.9508   23.6018   45.9735 C   0  0  0  0  0  0  0  0  0  0  0  0
   59.0616   23.3772   45.4241 O   0  0  0  0  0  0  0  0  0  0  0  0
   59.5512   29.7844   47.0029 C   0  0  0  0  0  0  0  0  0  0  0  0
   58.8886   30.2277   48.1541 C   0  0  0  0  0  0  0  0  0  0  0  0
   59.5170   31.1155   49.0308 C   0  0  0  0  0  0  0  0  0  0  0  0
   60.8142   31.5840   48.7598 C   0  0  0  0  0  0  0  0  0  0  0  0
   61.4809   31.1238   47.6114 C   0  0  0  0  0  0  0  0  0  0  0  0
   60.8509   30.2371   46.7362 C   0  0  0  0  0  0  0  0  0  0  0  0
   61.4782   32.5153   49.6986 C   0  0  0  0  0  0  0  0  0  0  0  0
   60.9510   33.6410   49.9138 O   0  0  0  0  0  0  0  0  0  0  0  0
   62.7076   32.1712   50.3699 N   0  0  0  0  0  0  0  0  0  0  0  0
   62.7047   31.1667   51.4496 C   0  0  0  0  0  0  0  0  0  0  0  0
   63.9635   30.3081   51.3822 C   0  0  0  0  0  0  0  0  0  0  0  0
   65.1368   31.1671   51.4407 N   0  0  0  0  0  0  0  0  0  0  0  0
   65.1505   32.4027   50.7241 C   0  0  0  0  0  0  0  0  0  0  0  0
   66.1815   33.1269   50.7401 O   0  0  0  0  0  0  0  0  0  0  0  0
   63.9506   32.8279   49.9226 C   0  0  0  0  0  0  0  0  0  0  0  0
   65.9196   30.8971   51.9731 H   0  0  0  0  0  0  0  0  0  0  0  0
  1  2  2  0
  2  3  1  0
  3  4  2  0
  4  9  1  0
  9 10  2  0
 10 11  1  0
 10 12  1  0
 12 13  1  0
 13 14  2  0
 13 15  1  0
 15 16  1  0
 16 17  2  0
  3  5  1  0
  5  6  2  0
  6  7  1  0
  6  8  1  0
  8 18  1  0
 18 19  2  0
 19 20  1  0
 20 21  2  0
 21 24  1  0
 24 25  2  0
 24 26  1  0
 26 27  1  0
 27 28  1  0
 28 29  1  0
 29 30  1  0
 30 31  2  0
 30 32  1  0
 21 22  1  0
 22 23  2  0
  8  2  1  0
 23 18  1  0
 16  9  1  0
 32 26  1  0
 29 33  1  0
M  CHG 1  11  -1
M  CHG 1  12  -1
M  CHG 1  15  -1
M  END
> <UniqueID>
73

> <SMILES>
C=c1c(=Cc2c([O-])[n-]c(=O)[n-]c2=O)cc(C)n1-c1ccc(C(=O)N2CCNC(=O)C2)cc1

> <Energy>
106.9188066909918

> <Genealogy>
C=c1c(=Cc2c([O-])[n-]c(=O)[n-]c2=O)cc(C)n1-c1ccc(C(=O)N2CCNC(=O)C2)cc1 (protonated)
C=c1c(=Cc2c([O-])[n-]c(=O)[n-]c2=O)cc(C)n1-c1ccc(C(=O)N2CCNC(=O)C2)cc1 (3D coordinates assigned)
C=c1c(=Cc2c([O-])[n-]c(=O)[n-]c2=O)cc(C)n1-c1ccc(C(=O)N2CCNC(=O)C2)cc1 (nonaromatic ring conformer: 106.9188066909918 kcal/mol)

> <smiles>
C=c1c(=Cc2c(O)[nH]c(=O)[nH]c2=O)cc(C)n1-c1ccc(C(=O)N2CCNC(=O)C2)cc1

> <score_type>
oracle

> <origin>
adg

> <m_score__min__energy>
-15.85

> <m_primary>
energy

> <minimizedAffinity>
-9.00883

> <minimizedRMSD>
1.46994

> <CNNscore>
0.1605238616

> <CNNaffinity>
6.5728478432

> <CNN_VS>
1.0550988913

> <CNNaffinity_variance>
0.0347910933

$$$$
77:0


 29 31  0  0  0  0  0  0  0  0999 V2000
   57.1587   29.6060   45.0845 C   0  0  0  0  0  0  0  0  0  0  0  0
   55.9526   29.5885   44.7224 O   0  0  0  0  0  0  0  0  0  0  0  0
   57.7510   30.8607   45.4337 N   0  0  0  0  0  0  0  0  0  0  0  0
   57.4950   32.1097   44.7240 C   0  0  0  0  0  0  0  0  0  0  0  0
   57.4748   33.2822   45.7052 C   0  0  0  0  0  0  0  0  0  0  0  0
   61.0904   33.3240   48.0675 C   0  0  0  0  0  0  0  0  0  0  0  0
   61.1144   33.7503   46.7335 C   0  0  0  0  0  0  0  0  0  0  0  0
   59.9428   33.7459   45.9710 C   0  0  0  0  0  0  0  0  0  0  0  0
   58.7294   33.3224   46.5388 C   0  0  0  0  0  0  0  0  0  0  0  0
   58.7103   32.8923   47.8745 C   0  0  0  0  0  0  0  0  0  0  0  0
   59.8828   32.8986   48.6365 C   0  0  0  0  0  0  0  0  0  0  0  0
   62.6980   31.8704   49.9154 N   0  0  0  0  0  0  0  0  0  0  0  0
   62.5684   33.3433   49.0231 S   0  0  0  0  0  0  0  0  0  0  0  0
   62.5424   34.5087   49.9729 O   0  0  0  0  0  0  0  0  0  0  0  0
   63.7629   33.4844   48.1213 O   0  0  0  0  0  0  0  0  0  0  0  0
   63.5547   31.8823   50.4688 H   0  0  0  0  0  0  0  0  0  0  0  0
   57.9578   28.3281   45.1480 C   0  0  0  0  0  0  0  0  0  0  0  0
   57.7535   27.5540   46.4569 C   0  0  0  0  0  0  0  0  0  0  0  0
   57.5639   26.1314   46.1730 N   0  0  0  0  0  0  0  0  0  0  0  0
   56.3892   25.4936   45.9824 C   0  0  0  0  0  0  0  0  0  0  0  0
   55.1428   26.0999   46.0893 O   0  0  0  0  0  0  0  0  0  0  0  0
   56.6085   24.1709   45.6532 C   0  0  0  0  0  0  0  0  0  0  0  0
   57.9695   23.9945   45.6251 C   0  0  0  0  0  0  0  0  0  0  0  0
   58.5300   25.2166   45.9381 C   0  0  0  0  0  0  0  0  0  0  0  0
   59.8924   25.4881   45.9910 O   0  0  0  0  0  0  0  0  0  0  0  0
   58.6419   22.7121   45.2558 C   0  0  0  0  0  0  0  0  0  0  0  0
   57.6371   21.5996   45.0320 C   0  0  0  0  0  0  0  0  0  0  0  0
   56.2967   21.7718   45.0619 C   0  0  0  0  0  0  0  0  0  0  0  0
   55.6178   23.1024   45.3219 C   0  0  0  0  0  0  0  0  0  0  0  0
 12 13  1  0
 13 14  2  0
 13 15  2  0
 13  6  1  0
  6  7  2  0
  7  8  1  0
  8  9  2  0
  9  5  1  0
  5  4  1  0
  4  3  1  0
  3  1  1  0
  1  2  2  0
  1 17  1  0
 17 18  1  0
 18 19  1  0
 19 20  1  0
 20 21  1  0
 20 22  2  0
 22 23  1  0
 23 24  2  0
 24 25  1  0
 23 26  1  0
 26 27  1  0
 27 28  2  0
 28 29  1  0
  9 10  1  0
 10 11  2  0
 11  6  1  0
 24 19  1  0
 29 22  1  0
 12 16  1  0
M  CHG 1   3  -1
M  CHG 1  12  -1
M  CHG 1  21  -1
M  CHG 1  25  -1
M  END
> <UniqueID>
75

> <SMILES>
[NH-]S(=O)(=O)c1ccc(CC[N-]C(=O)CCn2c([O-])c3c(c2[O-])CC=CC3)cc1

> <Energy>
73.68879627051794

> <Genealogy>
[NH-]S(=O)(=O)c1ccc(CC[N-]C(=O)CCn2c([O-])c3c(c2[O-])CC=CC3)cc1 (protonated)
[NH-]S(=O)(=O)c1ccc(CC[N-]C(=O)CCn2c([O-])c3c(c2[O-])CC=CC3)cc1 (3D coordinates assigned)
[NH-]S(=O)(=O)c1ccc(CC[N-]C(=O)CCn2c([O-])c3c(c2[O-])CC=CC3)cc1 (nonaromatic ring conformer: 73.68879627051794 kcal/mol)

> <smiles>
NS(=O)(=O)c1ccc(CCNC(=O)CCn2c(O)c3c(c2O)CC=CC3)cc1

> <score_type>
oracle

> <origin>
adg

> <m_score__min__energy>
-15.91

> <m_primary>
energy

> <minimizedAffinity>
-8.01730

> <minimizedRMSD>
1.12395

> <CNNscore>
0.6282315254

> <CNNaffinity>
6.8861637115

> <CNN_VS>
4.3261051178

> <CNNaffinity_variance>
0.1518608332

$$$$
11:0


 29 32  0  0  0  0  0  0  0  0999 V2000
   57.8766   30.9406   45.0148 C   0  0  0  0  0  0  0  0  0  0  0  0
   58.5842   30.9456   46.2281 C   0  0  0  0  0  0  0  0  0  0  0  0
   59.1971   32.1148   46.6860 C   0  0  0  0  0  0  0  0  0  0  0  0
   59.0966   33.3057   45.9491 C   0  0  0  0  0  0  0  0  0  0  0  0
   58.3856   33.3029   44.7392 C   0  0  0  0  0  0  0  0  0  0  0  0
   57.7718   32.1327   44.2802 C   0  0  0  0  0  0  0  0  0  0  0  0
   57.2113   29.7066   44.5288 C   0  0  0  0  0  0  0  0  0  0  0  0
   56.8868   29.6208   43.3139 O   0  0  0  0  0  0  0  0  0  0  0  0
   59.8204   26.7157   46.0367 C   0  0  0  0  0  0  0  0  0  0  0  0
   58.9961   27.7521   45.7229 N   0  0  0  0  0  0  0  0  0  0  0  0
   57.6374   27.6228   45.7257 C   0  0  0  0  0  0  0  0  0  0  0  0
   56.8688   28.6243   45.4084 N   0  0  0  0  0  0  0  0  0  0  0  0
   57.0662   26.3815   46.0436 C   0  0  0  0  0  0  0  0  0  0  0  0
   55.6846   26.2140   46.0416 O   0  0  0  0  0  0  0  0  0  0  0  0
   57.8954   25.3045   46.3661 C   0  0  0  0  0  0  0  0  0  0  0  0
   59.2813   25.4708   46.3660 C   0  0  0  0  0  0  0  0  0  0  0  0
   59.7602   34.5739   46.4440 C   0  0  0  0  0  0  0  0  0  0  0  0
   60.6698   34.3687   47.5930 N   0  0  0  0  0  0  0  0  0  0  0  0
   61.8108   33.4862   47.2922 C   0  0  0  0  0  0  0  0  0  0  0  0
   62.8423   33.5411   48.4375 C   0  0  0  0  0  0  0  0  0  0  0  0
   62.3042   34.2379   49.6264 N   0  0  0  0  0  0  0  0  0  0  0  0
   60.9705   33.6997   49.9731 C   0  0  0  0  0  0  0  0  0  0  0  0
   59.9735   33.9318   48.8187 C   0  0  0  0  0  0  0  0  0  0  0  0
   63.2413   34.1119   50.7598 C   0  0  0  0  0  0  0  0  0  0  0  0
   63.6267   32.6775   50.9631 C   0  0  0  0  0  0  0  0  0  0  0  0
   64.8751   32.1265   50.7572 C   0  0  0  0  0  0  0  0  0  0  0  0
   64.8377   30.8502   51.0700 O   0  0  0  0  0  0  0  0  0  0  0  0
   63.6250   30.5432   51.4735 C   0  0  0  0  0  0  0  0  0  0  0  0
   62.8190   31.6626   51.4271 C   0  0  0  0  0  0  0  0  0  0  0  0
  9 10  1  0
 10 11  1  0
 11 12  2  0
 12  7  1  0
  7  8  2  0
  7  1  1  0
  1  2  2  0
  2  3  1  0
  3  4  2  0
  4 17  1  0
 17 18  1  0
 18 19  1  0
 19 20  1  0
 20 21  1  0
 21 24  1  0
 24 25  1  0
 25 26  2  0
 26 27  1  0
 27 28  1  0
 28 29  2  0
 21 22  1  0
 22 23  1  0
  4  5  1  0
  5  6  2  0
 11 13  1  0
 13 14  1  0
 13 15  2  0
 15 16  1  0
 16  9  2  0
  6  1  1  0
 23 18  1  0
 29 25  1  0
M  CHG 1  10  -1
M  CHG 1  14  -1
M  END
> <UniqueID>
12

> <SMILES>
O=C(/N=c1\[n-]cccc1[O-])c1ccc(CN2CCN(Cc3ccoc3)CC2)cc1

> <Energy>
99.97870658638564

> <Genealogy>
O=C(N=c1[n-]cccc1[O-])c1ccc(CN2CCN(Cc3ccoc3)CC2)cc1 (protonated)
O=C(/N=c1\[n-]cccc1[O-])c1ccc(CN2CCN(Cc3ccoc3)CC2)cc1 (cis-trans isomerization)
O=C(/N=c1\[n-]cccc1[O-])c1ccc(CN2CCN(Cc3ccoc3)CC2)cc1 (3D coordinates assigned)
O=C(/N=c1\[n-]cccc1[O-])c1ccc(CN2CCN(Cc3ccoc3)CC2)cc1 (nonaromatic ring conformer: 99.97870658638564 kcal/mol)

> <smiles>
O=C(N=c1[nH]cccc1O)c1ccc(CN2CCN(Cc3ccoc3)CC2)cc1

> <score_type>
oracle

> <origin>
adg

> <m_score__min__energy>
-14.050000000000001

> <m_primary>
energy

> <minimizedAffinity>
-8.15921

> <minimizedRMSD>
0.80721

> <CNNscore>
0.2113175839

> <CNNaffinity>
5.7169671059

> <CNN_VS>
1.2080956697

> <CNNaffinity_variance>
0.2686767876

$$$$
18:0


 33 36  0  0  0  0  0  0  0  0999 V2000
   57.9203   31.7150   46.1582 C   0  0  0  0  0  0  0  0  0  0  0  0
   58.6860   32.0209   47.4157 C   0  0  0  0  0  0  0  0  0  0  0  0
   58.9913   30.9966   48.3260 C   0  0  0  0  0  0  0  0  0  0  0  0
   59.7300   31.2752   49.4793 C   0  0  0  0  0  0  0  0  0  0  0  0
   60.1829   32.5773   49.7303 C   0  0  0  0  0  0  0  0  0  0  0  0
   59.8883   33.5993   48.8179 C   0  0  0  0  0  0  0  0  0  0  0  0
   59.1504   33.3230   47.6638 C   0  0  0  0  0  0  0  0  0  0  0  0
   61.0919   32.9465   51.1939 S   0  0  0  0  0  0  0  0  0  0  0  0
   60.2002   33.6435   52.1843 O   0  0  0  0  0  0  0  0  0  0  0  0
   61.5513   31.6516   51.8039 O   0  0  0  0  0  0  0  0  0  0  0  0
   62.4896   33.9346   50.8198 N   0  0  0  0  0  0  0  0  0  0  0  0
   63.6805   33.5301   51.5899 C   0  0  0  0  0  0  0  0  0  0  0  0
   64.2680   32.1831   51.1162 C   0  0  0  0  0  0  0  0  0  0  0  0
   63.9311   31.8754   49.7161 N   0  0  0  0  0  0  0  0  0  0  0  0
   63.8952   33.0896   48.9002 C   0  0  0  0  0  0  0  0  0  0  0  0
   62.7440   34.0026   49.3612 C   0  0  0  0  0  0  0  0  0  0  0  0
   63.0156   31.4268   49.6852 H   0  0  0  0  0  0  0  0  0  0  0  0
   58.8602   31.1869   45.0704 C   0  0  0  0  0  0  0  0  0  0  0  0
   56.9474   29.3371   43.6888 C   0  0  0  0  0  0  0  0  0  0  0  0
   57.9564   28.8940   44.4571 C   0  0  0  0  0  0  0  0  0  0  0  0
   58.3392   27.5564   44.6585 C   0  0  0  0  0  0  0  0  0  0  0  0
   57.7351   26.4016   44.3170 C   0  0  0  0  0  0  0  0  0  0  0  0
   59.5463   27.5975   45.3340 C   0  0  0  0  0  0  0  0  0  0  0  0
   59.8303   28.9264   45.5701 C   0  0  0  0  0  0  0  0  0  0  0  0
   61.0365   29.4169   46.3111 C   0  0  0  0  0  0  0  0  0  0  0  0
   58.8564   29.7166   45.0598 N   0  0  0  0  0  0  0  0  0  0  0  0
   57.2970   25.3549   45.2516 C   0  0  0  0  0  0  0  0  0  0  0  0
   58.1862   23.9737   45.6186 S   0  0  0  0  0  0  0  0  0  0  0  0
   57.1022   23.4894   46.8070 C   0  0  0  0  0  0  0  0  0  0  0  0
   57.2178   22.4381   47.4876 O   0  0  0  0  0  0  0  0  0  0  0  0
   56.0841   24.3618   46.9693 N   0  0  0  0  0  0  0  0  0  0  0  0
   56.2024   25.4103   46.1142 C   0  0  0  0  0  0  0  0  0  0  0  0
   55.2986   26.4656   46.1287 O   0  0  0  0  0  0  0  0  0  0  0  0
 19 20  2  0
 20 21  1  0
 21 22  2  0
 22 27  1  0
 27 28  1  0
 28 29  1  0
 29 30  2  0
 29 31  1  0
 31 32  1  0
 32 33  1  0
 21 23  1  0
 23 24  2  0
 24 25  1  0
 24 26  1  0
 26 18  1  0
 18  1  1  0
  1  2  1  0
  2  3  2  0
  3  4  1  0
  4  5  2  0
  5  8  1  0
  8  9  2  0
  8 10  2  0
  8 11  1  0
 11 12  1  0
 12 13  1  0
 13 14  1  0
 14 15  1  0
 15 16  1  0
  5  6  1  0
  6  7  2  0
 26 20  1  0
  7  2  1  0
 32 27  2  0
 16 11  1  0
 14 17  1  0
M  CHG 1  31  -1
M  CHG 1  33  -1
M  END
> <UniqueID>
19

> <SMILES>
C=c1/c(=C\c2sc(=O)[n-]c2[O-])cc(C)n1CCc1ccc(S(=O)(=O)N2CCNCC2)cc1

> <Energy>
134.6514826891872

> <Genealogy>
C=c1c(=Cc2sc(=O)[n-]c2[O-])cc(C)n1CCc1ccc(S(=O)(=O)N2CCNCC2)cc1 (protonated)
C=c1/c(=C\c2sc(=O)[n-]c2[O-])cc(C)n1CCc1ccc(S(=O)(=O)N2CCNCC2)cc1 (cis-trans isomerization)
C=c1/c(=C\c2sc(=O)[n-]c2[O-])cc(C)n1CCc1ccc(S(=O)(=O)N2CCNCC2)cc1 (3D coordinates assigned)
C=c1/c(=C\c2sc(=O)[n-]c2[O-])cc(C)n1CCc1ccc(S(=O)(=O)N2CCNCC2)cc1 (nonaromatic ring conformer: 134.6514826891872 kcal/mol)

> <smiles>
C=c1c(=Cc2sc(=O)[nH]c2O)cc(C)n1CCc1ccc(S(=O)(=O)N2CCNCC2)cc1

> <score_type>
oracle

> <origin>
adg

> <m_score__min__energy>
-16.960000000000001

> <m_primary>
energy

> <minimizedAffinity>
-6.48493

> <minimizedRMSD>
0.94443

> <CNNscore>
0.2456992418

> <CNNaffinity>
6.9337005615

> <CNN_VS>
1.7036049366

> <CNNaffinity_variance>
0.0202484224

$$$$
19:0


 30 32  0  0  0  0  0  0  0  0999 V2000
   59.8746   29.3804   47.6427 C   0  0  0  0  0  0  0  0  0  0  0  0
   60.9750   29.1565   46.8054 C   0  0  0  0  0  0  0  0  0  0  0  0
   60.7806   28.8077   45.4665 C   0  0  0  0  0  0  0  0  0  0  0  0
   59.4882   28.6867   44.9525 C   0  0  0  0  0  0  0  0  0  0  0  0
   58.3709   28.9172   45.7743 C   0  0  0  0  0  0  0  0  0  0  0  0
   58.5770   29.2773   47.1189 C   0  0  0  0  0  0  0  0  0  0  0  0
   60.1167   29.7921   49.3434 S   0  0  0  0  0  0  0  0  0  0  0  0
   61.2741   28.9998   49.8863 O   0  0  0  0  0  0  0  0  0  0  0  0
   58.8890   29.3931   50.1141 O   0  0  0  0  0  0  0  0  0  0  0  0
   58.2896   33.0332   46.4700 C   0  0  0  0  0  0  0  0  0  0  0  0
   57.1569   33.5529   46.6678 O   0  0  0  0  0  0  0  0  0  0  0  0
   59.2505   32.9554   47.5384 N   0  0  0  0  0  0  0  0  0  0  0  0
   60.5946   32.4363   47.2704 C   0  0  0  0  0  0  0  0  0  0  0  0
   61.3297   32.0757   48.5711 C   0  0  0  0  0  0  0  0  0  0  0  0
   60.4359   31.4977   49.5961 N   0  0  0  0  0  0  0  0  0  0  0  0
   59.2123   32.2797   49.8953 C   0  0  0  0  0  0  0  0  0  0  0  0
   58.9341   33.4074   48.8936 C   0  0  0  0  0  0  0  0  0  0  0  0
   58.6085   32.5052   45.2122 O   0  0  0  0  0  0  0  0  0  0  0  0
   57.8909   31.9042   42.9731 C   0  0  0  0  0  0  0  0  0  0  0  0
   58.0975   33.0248   43.9853 C   0  0  0  0  0  0  0  0  0  0  0  0
   56.9960   28.7816   45.2290 C   0  0  0  0  0  0  0  0  0  0  0  0
   56.3827   29.7975   44.8057 O   0  0  0  0  0  0  0  0  0  0  0  0
   56.3138   27.5198   45.2446 N   0  0  0  0  0  0  0  0  0  0  0  0
   56.8030   26.3525   45.5652 C   0  0  0  0  0  0  0  0  0  0  0  0
   58.1577   26.2207   45.6020 N   0  0  0  0  0  0  0  0  0  0  0  0
   58.7697   25.0415   45.8865 C   0  0  0  0  0  0  0  0  0  0  0  0
   58.0073   23.9054   46.1559 C   0  0  0  0  0  0  0  0  0  0  0  0
   56.6178   24.0049   46.1555 C   0  0  0  0  0  0  0  0  0  0  0  0
   55.9995   25.2280   45.8822 C   0  0  0  0  0  0  0  0  0  0  0  0
   54.6160   25.3050   45.9731 O   0  0  0  0  0  0  0  0  0  0  0  0
 19 20  1  0
 20 18  1  0
 18 10  1  0
 10 11  2  0
 10 12  1  0
 12 13  1  0
 13 14  1  0
 14 15  1  0
 15  7  1  0
  7  8  2  0
  7  9  2  0
  7  1  1  0
  1  2  2  0
  2  3  1  0
  3  4  2  0
  4  5  1  0
  5 21  1  0
 21 22  2  0
 21 23  1  0
 23 24  2  0
 24 25  1  0
 25 26  1  0
 26 27  2  0
 27 28  1  0
 28 29  2  0
 29 30  1  0
  5  6  2  0
 15 16  1  0
 16 17  1  0
 17 12  1  0
  6  1  1  0
 29 24  1  0
M  CHG 1  25  -1
M  CHG 1  30  -1
M  END
> <UniqueID>
20

> <SMILES>
CCOC(=O)N1CCN(S(=O)(=O)c2cccc(C(=O)N=c3[n-]cccc3[O-])c2)CC1

> <Energy>
64.68243614078041

> <Genealogy>
CCOC(=O)N1CCN(S(=O)(=O)c2cccc(C(=O)N=c3[n-]cccc3[O-])c2)CC1 (protonated)
CCOC(=O)N1CCN(S(=O)(=O)c2cccc(C(=O)N=c3[n-]cccc3[O-])c2)CC1 (3D coordinates assigned)
CCOC(=O)N1CCN(S(=O)(=O)c2cccc(C(=O)N=c3[n-]cccc3[O-])c2)CC1 (nonaromatic ring conformer: 64.68243614078041 kcal/mol)

> <smiles>
CCOC(=O)N1CCN(S(=O)(=O)c2cccc(C(=O)N=c3[nH]cccc3O)c2)CC1

> <score_type>
oracle

> <origin>
adg

> <m_score__min__energy>
-14.82

> <m_primary>
energy

> <minimizedAffinity>
-5.79921

> <minimizedRMSD>
1.18475

> <CNNscore>
0.5316064358

> <CNNaffinity>
6.4280929565

> <CNN_VS>
3.4172155857

> <CNNaffinity_variance>
0.0280345883

$$$$
32:0


 30 32  0  0  0  0  0  0  0  0999 V2000
   58.6232   28.5700   45.1658 C   0  0  0  0  0  0  0  0  0  0  0  0
   57.4782   27.8683   45.5968 C   0  0  0  0  0  0  0  0  0  0  0  0
   56.2094   28.3564   45.2985 O   0  0  0  0  0  0  0  0  0  0  0  0
   57.6300   26.6933   46.3542 C   0  0  0  0  0  0  0  0  0  0  0  0
   58.9102   26.2873   46.7285 C   0  0  0  0  0  0  0  0  0  0  0  0
   60.0248   27.0061   46.2938 C   0  0  0  0  0  0  0  0  0  0  0  0
   61.1795   26.6209   46.6242 O   0  0  0  0  0  0  0  0  0  0  0  0
   59.8694   28.1151   45.5133 N   0  0  0  0  0  0  0  0  0  0  0  0
   60.9952   28.7829   45.0831 O   0  0  0  0  0  0  0  0  0  0  0  0
   58.4639   29.7982   44.2951 C   0  0  0  0  0  0  0  0  0  0  0  0
   58.5787   32.1935   47.2777 C   0  0  0  0  0  0  0  0  0  0  0  0
   58.0506   33.3572   46.7027 C   0  0  0  0  0  0  0  0  0  0  0  0
   57.6674   33.3737   45.3603 C   0  0  0  0  0  0  0  0  0  0  0  0
   57.8051   32.2265   44.5779 C   0  0  0  0  0  0  0  0  0  0  0  0
   58.3197   31.0436   45.1360 C   0  0  0  0  0  0  0  0  0  0  0  0
   58.7217   31.0409   46.4828 C   0  0  0  0  0  0  0  0  0  0  0  0
   58.9539   32.2220   48.6650 N   0  0  0  0  0  0  0  0  0  0  0  0
   61.2756   30.5172   48.8733 C   0  0  0  0  0  0  0  0  0  0  0  0
   59.6735   30.9085   49.5449 S   0  0  0  0  0  0  0  0  0  0  0  0
   59.7840   31.2692   50.9972 O   0  0  0  0  0  0  0  0  0  0  0  0
   58.7934   29.6996   49.4145 O   0  0  0  0  0  0  0  0  0  0  0  0
   56.5094   25.9175   46.8009 N   0  0  0  0  0  0  0  0  0  0  0  0
   55.7193   25.0370   45.9891 C   0  0  0  0  0  0  0  0  0  0  0  0
   54.4923   25.2673   45.8241 O   0  0  0  0  0  0  0  0  0  0  0  0
   56.3626   23.9261   45.2491 C   0  0  0  0  0  0  0  0  0  0  0  0
   55.9725   23.6162   43.9315 C   0  0  0  0  0  0  0  0  0  0  0  0
   56.5398   22.5299   43.2576 C   0  0  0  0  0  0  0  0  0  0  0  0
   57.5073   21.7428   43.8904 C   0  0  0  0  0  0  0  0  0  0  0  0
   57.9177   22.0529   45.1897 C   0  0  0  0  0  0  0  0  0  0  0  0
   57.3548   23.1378   45.8674 C   0  0  0  0  0  0  0  0  0  0  0  0
 18 19  1  0
 19 20  2  0
 19 21  2  0
 19 17  1  0
 17 11  1  0
 11 12  2  0
 12 13  1  0
 13 14  2  0
 14 15  1  0
 15 10  1  0
 10  1  1  0
  1  2  2  0
  2  3  1  0
  2  4  1  0
  4 22  1  0
 22 23  1  0
 23 24  2  0
 23 25  1  0
 25 26  2  0
 26 27  1  0
 27 28  2  0
 28 29  1  0
 29 30  2  0
  4  5  2  0
  5  6  1  0
  6  7  2  0
  6  8  1  0
  8  9  1  0
 15 16  2  0
 16 11  1  0
  8  1  1  0
 30 25  1  0
M  CHG 1   3  -1
M  CHG 1   9  -1
M  CHG 1  17  -1
M  CHG 1  22  -1
M  END
> <UniqueID>
33

> <SMILES>
CS(=O)(=O)[N-]c1cccc(Cc2c([O-])c([N-]C(=O)c3ccccc3)cc(=O)n2[O-])c1

> <Energy>
55.608387704361064

> <Genealogy>
CS(=O)(=O)[N-]c1cccc(Cc2c([O-])c([N-]C(=O)c3ccccc3)cc(=O)n2[O-])c1 (protonated)
CS(=O)(=O)[N-]c1cccc(Cc2c([O-])c([N-]C(=O)c3ccccc3)cc(=O)n2[O-])c1 (3D coordinates assigned)
CS(=O)(=O)[N-]c1cccc(Cc2c([O-])c([N-]C(=O)c3ccccc3)cc(=O)n2[O-])c1 (optimized conformer: 55.608387704361064 kcal/mol)

> <smiles>
CS(=O)(=O)Nc1cccc(Cc2c(O)c(NC(=O)c3ccccc3)cc(=O)n2O)c1

> <score_type>
oracle

> <origin>
adg

> <m_score__min__energy>
-16.370000000000001

> <m_primary>
energy

> <minimizedAffinity>
-7.83666

> <minimizedRMSD>
1.09409

> <CNNscore>
0.6156116724

> <CNNaffinity>
6.7017121315

> <CNN_VS>
4.1256523132

> <CNNaffinity_variance>
0.0264315251

$$$$
34:0


 37 41  0  0  0  0  0  0  0  0999 V2000
   59.0759   28.7864   46.5171 C   0  0  0  0  0  0  0  0  0  0  0  0
   59.3117   29.7606   45.5422 C   0  0  0  0  0  0  0  0  0  0  0  0
   59.4719   31.0975   45.9080 C   0  0  0  0  0  0  0  0  0  0  0  0
   59.3894   31.4833   47.2550 C   0  0  0  0  0  0  0  0  0  0  0  0
   59.1823   30.4992   48.2512 C   0  0  0  0  0  0  0  0  0  0  0  0
   59.1397   30.8495   49.7154 C   0  0  0  0  0  0  0  0  0  0  0  0
   59.0095   29.1584   47.8674 C   0  0  0  0  0  0  0  0  0  0  0  0
   56.9202   27.6387   44.8098 C   0  0  0  0  0  0  0  0  0  0  0  0
   57.9107   26.9047   45.3444 C   0  0  0  0  0  0  0  0  0  0  0  0
   58.0902   25.5243   45.2034 C   0  0  0  0  0  0  0  0  0  0  0  0
   57.3043   24.6640   44.5273 C   0  0  0  0  0  0  0  0  0  0  0  0
   59.2126   25.1990   45.9536 C   0  0  0  0  0  0  0  0  0  0  0  0
   59.6792   26.3790   46.4997 C   0  0  0  0  0  0  0  0  0  0  0  0
   60.8680   26.4855   47.4044 C   0  0  0  0  0  0  0  0  0  0  0  0
   58.8878   27.4116   46.1358 N   0  0  0  0  0  0  0  0  0  0  0  0
   56.1254   23.9942   45.1066 C   0  0  0  0  0  0  0  0  0  0  0  0
   55.9775   22.6586   45.1426 N   0  0  0  0  0  0  0  0  0  0  0  0
   54.8225   22.4874   45.8213 C   0  0  0  0  0  0  0  0  0  0  0  0
   54.3344   21.3515   46.0524 O   0  0  0  0  0  0  0  0  0  0  0  0
   54.2384   23.6290   46.2424 N   0  0  0  0  0  0  0  0  0  0  0  0
   55.0807   24.5743   45.7944 C   0  0  0  0  0  0  0  0  0  0  0  0
   54.9208   25.9299   46.0504 O   0  0  0  0  0  0  0  0  0  0  0  0
   59.5152   32.9188   47.5790 C   0  0  0  0  0  0  0  0  0  0  0  0
   58.4705   33.6289   47.6099 O   0  0  0  0  0  0  0  0  0  0  0  0
   60.7874   33.4707   47.9953 N   0  0  0  0  0  0  0  0  0  0  0  0
   61.8743   32.5736   47.5637 C   0  0  0  0  0  0  0  0  0  0  0  0
   63.2496   33.1919   47.8592 C   0  0  0  0  0  0  0  0  0  0  0  0
   63.4138   33.6901   49.3206 C   0  0  0  0  0  0  0  0  0  0  0  0
   62.1291   34.3275   49.9056 C   0  0  0  0  0  0  0  0  0  0  0  0
   60.8221   33.6570   49.4588 C   0  0  0  0  0  0  0  0  0  0  0  0
   61.4131   34.1656   47.6873 H   0  0  0  0  0  0  0  0  0  0  0  0
   64.0265   32.7116   50.2669 N   0  0  0  0  0  0  0  0  0  0  0  0
   63.3379   31.4054   50.3728 C   0  0  0  0  0  0  0  0  0  0  0  0
   63.9509   30.5215   51.4807 C   0  0  0  0  0  0  0  0  0  0  0  0
   65.1343   31.1947   52.1792 C   0  0  0  0  0  0  0  0  0  0  0  0
   66.1441   31.7176   51.1529 C   0  0  0  0  0  0  0  0  0  0  0  0
   65.4708   32.5105   50.0110 C   0  0  0  0  0  0  0  0  0  0  0  0
  8  9  2  0
  9 10  1  0
 10 11  2  0
 11 16  1  0
 16 17  1  0
 17 18  1  0
 18 19  2  0
 18 20  1  0
 20 21  1  0
 21 22  1  0
 10 12  1  0
 12 13  2  0
 13 14  1  0
 13 15  1  0
 15  1  1  0
  1  2  2  0
  2  3  1  0
  3  4  2  0
  4 23  1  0
 23 24  2  0
 25 23  1  0
 25 26  1  0
 26 27  1  0
 27 28  1  0
 28 32  1  0
 32 33  1  0
 33 34  1  0
 34 35  1  0
 35 36  1  0
 36 37  1  0
 28 29  1  0
 29 30  1  0
  4  5  1  0
  5  6  1  0
  5  7  2  0
 15  9  1  0
  7  1  1  0
 21 16  2  0
 30 25  1  0
 37 32  1  0
 25 31  1  0
M  CHG 1  17  -1
M  CHG 1  20  -1
M  CHG 1  22  -1
M  CHG 1  25   1
M  END
> <UniqueID>
35

> <SMILES>
C=c1/c(=C/c2[n-]c(=O)[n-]c2[O-])cc(C)n1-c1ccc(C(=O)[NH+]2CCC(N3CCCCC3)CC2)c(C)c1

> <Energy>
166.08666805622164

> <Genealogy>
C=c1c(=Cc2[n-]c(=O)[n-]c2[O-])cc(C)n1-c1ccc(C(=O)[NH+]2CCC(N3CCCCC3)CC2)c(C)c1 (protonated)
C=c1/c(=C/c2[n-]c(=O)[n-]c2[O-])cc(C)n1-c1ccc(C(=O)[NH+]2CCC(N3CCCCC3)CC2)c(C)c1 (cis-trans isomerization)
C=c1/c(=C/c2[n-]c(=O)[n-]c2[O-])cc(C)n1-c1ccc(C(=O)[NH+]2CCC(N3CCCCC3)CC2)c(C)c1 (3D coordinates assigned)
C=c1/c(=C/c2[n-]c(=O)[n-]c2[O-])cc(C)n1-c1ccc(C(=O)[NH+]2CCC(N3CCCCC3)CC2)c(C)c1 (nonaromatic ring conformer: 166.08666805622164 kcal/mol)

> <smiles>
C=c1c(=Cc2[nH]c(=O)[nH]c2O)cc(C)n1-c1ccc(C(=O)N2CCC(N3CCCCC3)CC2)c(C)c1

> <score_type>
oracle

> <origin>
adg

> <m_score__min__energy>
-17.489999999999998

> <m_primary>
energy

> <minimizedAffinity>
-8.40416

> <minimizedRMSD>
0.69166

> <CNNscore>
0.0444586128

> <CNNaffinity>
6.4412770271

> <CNN_VS>
0.2863702476

> <CNNaffinity_variance>
0.1485340744

$$$$
66:0


 30 33  0  0  0  0  0  0  0  0999 V2000
   60.5971   29.9535   45.5357 C   0  0  0  0  0  0  0  0  0  0  0  0
   59.8894   29.7103   46.6493 C   0  0  0  0  0  0  0  0  0  0  0  0
   58.8286   28.8080   46.7798 C   0  0  0  0  0  0  0  0  0  0  0  0
   58.3080   28.0127   45.8263 C   0  0  0  0  0  0  0  0  0  0  0  0
   58.4352   28.8569   48.1111 C   0  0  0  0  0  0  0  0  0  0  0  0
   59.2463   29.7883   48.7286 C   0  0  0  0  0  0  0  0  0  0  0  0
   59.1861   30.1413   50.1832 C   0  0  0  0  0  0  0  0  0  0  0  0
   60.1252   30.3086   47.8442 N   0  0  0  0  0  0  0  0  0  0  0  0
   58.0853   26.5602   46.0063 C   0  0  0  0  0  0  0  0  0  0  0  0
   56.7809   26.0559   46.1022 C   0  0  0  0  0  0  0  0  0  0  0  0
   55.6869   26.9085   45.9918 O   0  0  0  0  0  0  0  0  0  0  0  0
   56.5775   24.7255   46.2935 N   0  0  0  0  0  0  0  0  0  0  0  0
   57.6270   23.8680   46.4086 C   0  0  0  0  0  0  0  0  0  0  0  0
   57.4231   22.6371   46.5788 O   0  0  0  0  0  0  0  0  0  0  0  0
   58.8992   24.3369   46.3461 N   0  0  0  0  0  0  0  0  0  0  0  0
   59.1533   25.6576   46.1589 C   0  0  0  0  0  0  0  0  0  0  0  0
   60.3477   26.0584   46.1433 O   0  0  0  0  0  0  0  0  0  0  0  0
   55.6581   24.3779   46.3496 H   0  0  0  0  0  0  0  0  0  0  0  0
   61.1141   31.3139   48.1364 C   0  0  0  0  0  0  0  0  0  0  0  0
   62.2444   30.9630   48.8887 C   0  0  0  0  0  0  0  0  0  0  0  0
   63.2404   31.9041   49.1522 C   0  0  0  0  0  0  0  0  0  0  0  0
   63.1190   33.2053   48.6632 C   0  0  0  0  0  0  0  0  0  0  0  0
   61.9962   33.5718   47.9178 C   0  0  0  0  0  0  0  0  0  0  0  0
   60.9784   32.6387   47.6539 C   0  0  0  0  0  0  0  0  0  0  0  0
   59.7880   33.0641   46.8806 C   0  0  0  0  0  0  0  0  0  0  0  0
   58.4942   32.8970   47.4060 C   0  0  0  0  0  0  0  0  0  0  0  0
   57.3763   33.2795   46.6617 C   0  0  0  0  0  0  0  0  0  0  0  0
   57.5370   33.8424   45.3931 C   0  0  0  0  0  0  0  0  0  0  0  0
   58.8199   34.0271   44.8687 C   0  0  0  0  0  0  0  0  0  0  0  0
   59.9411   33.6442   45.6097 C   0  0  0  0  0  0  0  0  0  0  0  0
  1  2  2  0
  2  3  1  0
  3  4  2  0
  4  9  1  0
  9 10  2  0
 10 11  1  0
 10 12  1  0
 12 13  1  0
 13 14  2  0
 13 15  1  0
 15 16  1  0
 16 17  2  0
  3  5  1  0
  5  6  2  0
  6  7  1  0
  6  8  1  0
  8 19  1  0
 19 20  2  0
 20 21  1  0
 21 22  2  0
 22 23  1  0
 23 24  2  0
 24 25  1  0
 25 26  2  0
 26 27  1  0
 27 28  2  0
 28 29  1  0
 29 30  2  0
  8  2  1  0
 24 19  1  0
 30 25  1  0
 16  9  1  0
 12 18  1  0
M  CHG 1  11  -1
M  CHG 1  15  -1
M  END
> <UniqueID>
66

> <SMILES>
C=c1/c(=C/c2c([O-])[nH]c(=O)[n-]c2=O)cc(C)n1-c1ccccc1-c1ccccc1

> <Energy>
99.98786928857415

> <Genealogy>
C=c1c(=Cc2c([O-])[nH]c(=O)[n-]c2=O)cc(C)n1-c1ccccc1-c1ccccc1 (protonated)
C=c1/c(=C/c2c([O-])[nH]c(=O)[n-]c2=O)cc(C)n1-c1ccccc1-c1ccccc1 (cis-trans isomerization)
C=c1/c(=C/c2c([O-])[nH]c(=O)[n-]c2=O)cc(C)n1-c1ccccc1-c1ccccc1 (3D coordinates assigned)
C=c1/c(=C/c2c([O-])[nH]c(=O)[n-]c2=O)cc(C)n1-c1ccccc1-c1ccccc1 (optimized conformer: 99.98786928857415 kcal/mol)

> <smiles>
C=c1c(=Cc2c(O)[nH]c(=O)[nH]c2=O)cc(C)n1-c1ccccc1-c1ccccc1

> <score_type>
oracle

> <origin>
adg

> <m_score__min__energy>
-14.18

> <m_primary>
energy

> <minimizedAffinity>
-7.12055

> <minimizedRMSD>
0.90713

> <CNNscore>
0.1635569334

> <CNNaffinity>
6.3202586174

> <CNN_VS>
1.0337221622

> <CNNaffinity_variance>
0.1306147128

$$$$
70:0


 32 35  0  0  0  0  0  0  0  0999 V2000
   58.1492   27.9727   44.1634 C   0  0  0  0  0  0  0  0  0  0  0  0
   58.5146   27.5782   45.3942 C   0  0  0  0  0  0  0  0  0  0  0  0
   58.6464   26.2584   45.8538 C   0  0  0  0  0  0  0  0  0  0  0  0
   58.2369   25.0920   45.3184 C   0  0  0  0  0  0  0  0  0  0  0  0
   59.3064   26.3366   47.0692 C   0  0  0  0  0  0  0  0  0  0  0  0
   59.4779   27.6766   47.3461 C   0  0  0  0  0  0  0  0  0  0  0  0
   60.1286   28.2114   48.5868 C   0  0  0  0  0  0  0  0  0  0  0  0
   58.9991   28.4324   46.3321 N   0  0  0  0  0  0  0  0  0  0  0  0
   56.9175   24.4729   45.5314 C   0  0  0  0  0  0  0  0  0  0  0  0
   56.6268   23.1828   45.2821 N   0  0  0  0  0  0  0  0  0  0  0  0
   55.2955   23.1159   45.4987 C   0  0  0  0  0  0  0  0  0  0  0  0
   54.6434   22.0469   45.3833 O   0  0  0  0  0  0  0  0  0  0  0  0
   54.7181   24.2883   45.8428 N   0  0  0  0  0  0  0  0  0  0  0  0
   55.7575   25.1381   45.8439 C   0  0  0  0  0  0  0  0  0  0  0  0
   55.6513   26.4975   46.1240 O   0  0  0  0  0  0  0  0  0  0  0  0
   54.8161   26.8698   46.3284 H   0  0  0  0  0  0  0  0  0  0  0  0
   59.0331   29.8692   46.2644 C   0  0  0  0  0  0  0  0  0  0  0  0
   58.1088   30.5640   45.4709 C   0  0  0  0  0  0  0  0  0  0  0  0
   58.1431   31.9590   45.4095 C   0  0  0  0  0  0  0  0  0  0  0  0
   59.0985   32.6703   46.1405 C   0  0  0  0  0  0  0  0  0  0  0  0
   60.0285   31.9888   46.9433 C   0  0  0  0  0  0  0  0  0  0  0  0
   59.9913   30.5864   46.9970 C   0  0  0  0  0  0  0  0  0  0  0  0
   61.0154   32.7185   47.6918 N   0  0  0  0  0  0  0  0  0  0  0  0
   60.8669   32.8694   49.1449 C   0  0  0  0  0  0  0  0  0  0  0  0
   61.8463   33.9193   49.6968 C   0  0  0  0  0  0  0  0  0  0  0  0
   63.2471   33.7213   49.2520 N   0  0  0  0  0  0  0  0  0  0  0  0
   63.4152   33.0167   47.9614 C   0  0  0  0  0  0  0  0  0  0  0  0
   62.2196   33.2308   47.0347 C   0  0  0  0  0  0  0  0  0  0  0  0
   64.2247   32.9768   50.4966 S   0  0  0  0  0  0  0  0  0  0  0  0
   64.1024   33.8547   52.0448 C   0  0  0  0  0  0  0  0  0  0  0  0
   63.7764   31.5572   50.7071 O   0  0  0  0  0  0  0  0  0  0  0  0
   65.6610   32.9684   50.0571 O   0  0  0  0  0  0  0  0  0  0  0  0
  1  2  2  0
  2  3  1  0
  3  4  2  0
  4  9  1  0
  9 10  1  0
 10 11  1  0
 11 12  2  0
 11 13  1  0
 13 14  1  0
 14 15  1  0
  3  5  1  0
  5  6  2  0
  6  7  1  0
  6  8  1  0
  8 17  1  0
 17 18  2  0
 18 19  1  0
 19 20  2  0
 20 21  1  0
 21 23  1  0
 23 24  1  0
 24 25  1  0
 25 26  1  0
 26 29  1  0
 29 30  1  0
 29 31  2  0
 29 32  2  0
 26 27  1  0
 27 28  1  0
 21 22  2  0
  8  2  1  0
 22 17  1  0
 14  9  2  0
 28 23  1  0
 15 16  1  0
M  CHG 1  10  -1
M  CHG 1  13  -1
M  END
> <UniqueID>
70

> <SMILES>
C=c1c(=Cc2[n-]c(=O)[n-]c2O)cc(C)n1-c1cccc(N2CCN(S(C)(=O)=O)CC2)c1

> <Energy>
136.68590283353882

> <Genealogy>
C=c1c(=Cc2[n-]c(=O)[n-]c2O)cc(C)n1-c1cccc(N2CCN(S(C)(=O)=O)CC2)c1 (protonated)
C=c1c(=Cc2[n-]c(=O)[n-]c2O)cc(C)n1-c1cccc(N2CCN(S(C)(=O)=O)CC2)c1 (3D coordinates assigned)
C=c1c(=Cc2[n-]c(=O)[n-]c2O)cc(C)n1-c1cccc(N2CCN(S(C)(=O)=O)CC2)c1 (nonaromatic ring conformer: 136.68590283353882 kcal/mol)

> <smiles>
C=c1c(=Cc2[nH]c(=O)[nH]c2O)cc(C)n1-c1cccc(N2CCN(S(C)(=O)=O)CC2)c1

> <score_type>
oracle

> <origin>
adg

> <m_score__min__energy>
-14.94

> <m_primary>
energy

> <minimizedAffinity>
-9.95652

> <minimizedRMSD>
0.66932

> <CNNscore>
0.4710623622

> <CNNaffinity>
7.0174088478

> <CNN_VS>
3.3056371212

> <CNNaffinity_variance>
0.1724145412

$$$$
77:0


 33 36  0  0  0  0  0  0  0  0999 V2000
   60.4492   33.1492   49.2397 C   0  0  0  0  0  0  0  0  0  0  0  0
   60.8848   34.1801   49.8147 O   0  0  0  0  0  0  0  0  0  0  0  0
   58.0832   31.4186   51.5473 C   0  0  0  0  0  0  0  0  0  0  0  0
   58.8686   30.0157   51.0405 S   0  0  0  0  0  0  0  0  0  0  0  0
   59.9363   30.7789   49.9906 C   0  0  0  0  0  0  0  0  0  0  0  0
   59.6829   32.1530   50.0195 C   0  0  0  0  0  0  0  0  0  0  0  0
   58.6503   32.5080   50.9039 C   0  0  0  0  0  0  0  0  0  0  0  0
   53.9076   30.0260   52.0367 C   0  0  0  0  0  0  0  0  0  0  0  0
   54.8765   30.9352   51.7488 N   0  0  0  0  0  0  0  0  0  0  0  0
   55.9451   30.7953   52.5645 C   0  0  0  0  0  0  0  0  0  0  0  0
   57.0193   31.5248   52.5061 N   0  0  0  0  0  0  0  0  0  0  0  0
   55.7287   29.5539   53.6741 S   0  0  0  0  0  0  0  0  0  0  0  0
   54.1974   29.1647   53.0942 C   0  0  0  0  0  0  0  0  0  0  0  0
   52.6092   29.9996   51.2925 C   0  0  0  0  0  0  0  0  0  0  0  0
   51.4604   32.1173   50.5134 N   0  0  0  0  0  0  0  0  0  0  0  0
   51.8225   31.2391   51.5791 C   0  0  0  0  0  0  0  0  0  0  0  0
   51.4534   31.4950   52.7578 O   0  0  0  0  0  0  0  0  0  0  0  0
   50.9426   32.9331   50.7022 H   0  0  0  0  0  0  0  0  0  0  0  0
   60.7558   32.9556   47.8532 N   0  0  0  0  0  0  0  0  0  0  0  0
   59.8009   32.8632   46.7849 C   0  0  0  0  0  0  0  0  0  0  0  0
   59.4844   33.9724   45.9827 C   0  0  0  0  0  0  0  0  0  0  0  0
   58.5747   33.8395   44.9304 C   0  0  0  0  0  0  0  0  0  0  0  0
   57.9794   32.6029   44.6672 C   0  0  0  0  0  0  0  0  0  0  0  0
   58.2863   31.4842   45.4605 C   0  0  0  0  0  0  0  0  0  0  0  0
   59.2193   31.6212   46.5028 C   0  0  0  0  0  0  0  0  0  0  0  0
   57.6591   30.1739   45.1716 C   0  0  0  0  0  0  0  0  0  0  0  0
   56.4596   30.1397   44.7862 O   0  0  0  0  0  0  0  0  0  0  0  0
   58.3825   28.9370   45.3335 N   0  0  0  0  0  0  0  0  0  0  0  0
   59.3587   28.7556   46.4128 C   0  0  0  0  0  0  0  0  0  0  0  0
   59.2028   27.3528   47.0049 C   0  0  0  0  0  0  0  0  0  0  0  0
   59.2772   26.3706   45.9887 O   0  0  0  0  0  0  0  0  0  0  0  0
   58.1742   26.5033   45.1097 C   0  0  0  0  0  0  0  0  0  0  0  0
   58.2191   27.8453   44.3686 C   0  0  0  0  0  0  0  0  0  0  0  0
 15 16  1  0
 16 17  2  0
 16 14  1  0
 14  8  1  0
  8  9  1  0
  9 10  1  0
 10 11  2  0
 11  3  1  0
  3  4  1  0
  4  5  1  0
  5  6  2  0
  6  1  1  0
  1  2  2  0
  1 19  1  0
 19 20  1  0
 20 21  2  0
 21 22  1  0
 22 23  2  0
 23 24  1  0
 24 26  1  0
 26 27  2  0
 26 28  1  0
 28 29  1  0
 29 30  1  0
 30 31  1  0
 31 32  1  0
 32 33  1  0
 24 25  2  0
  6  7  1  0
 10 12  1  0
 12 13  1  0
 13  8  2  0
  7  3  2  0
 25 20  1  0
 33 28  1  0
 15 18  1  0
M  CHG 1   9  -1
M  CHG 1  15  -1
M  CHG 1  19  -1
M  END
> <UniqueID>
77

> <SMILES>
[NH-]C(=O)Cc1cs/c(=N/c2cc(C(=O)[N-]c3cccc(C(=O)N4CCOCC4)c3)cs2)[n-]1

> <Energy>
121.7123819630111

> <Genealogy>
[NH-]C(=O)Cc1csc(=Nc2cc(C(=O)[N-]c3cccc(C(=O)N4CCOCC4)c3)cs2)[n-]1 (protonated)
[NH-]C(=O)Cc1cs/c(=N/c2cc(C(=O)[N-]c3cccc(C(=O)N4CCOCC4)c3)cs2)[n-]1 (cis-trans isomerization)
[NH-]C(=O)Cc1cs/c(=N/c2cc(C(=O)[N-]c3cccc(C(=O)N4CCOCC4)c3)cs2)[n-]1 (3D coordinates assigned)
[NH-]C(=O)Cc1cs/c(=N/c2cc(C(=O)[N-]c3cccc(C(=O)N4CCOCC4)c3)cs2)[n-]1 (nonaromatic ring conformer: 121.7123819630111 kcal/mol)

> <smiles>
NC(=O)Cc1csc(=Nc2cc(C(=O)Nc3cccc(C(=O)N4CCOCC4)c3)cs2)[nH]1

> <score_type>
oracle

> <origin>
adg

> <m_score__min__energy>
-14.98

> <m_primary>
energy

> <minimizedAffinity>
-8.95586

> <minimizedRMSD>
0.83181

> <CNNscore>
0.8828467727

> <CNNaffinity>
7.3413357735

> <CNN_VS>
6.4812746048

> <CNNaffinity_variance>
0.0658401102

$$$$
80:0


 30 33  0  0  0  0  0  0  0  0999 V2000
   58.8845   27.8485   47.3116 C   0  0  0  0  0  0  0  0  0  0  0  0
   58.6495   28.4205   46.1202 C   0  0  0  0  0  0  0  0  0  0  0  0
   58.1422   27.7979   44.9688 C   0  0  0  0  0  0  0  0  0  0  0  0
   57.9799   26.4949   44.6676 C   0  0  0  0  0  0  0  0  0  0  0  0
   57.8140   28.8169   44.0890 C   0  0  0  0  0  0  0  0  0  0  0  0
   58.1984   29.9996   44.6853 C   0  0  0  0  0  0  0  0  0  0  0  0
   58.0374   31.3556   44.0698 C   0  0  0  0  0  0  0  0  0  0  0  0
   58.7073   29.7616   45.9167 N   0  0  0  0  0  0  0  0  0  0  0  0
   57.4659   25.4617   45.5829 C   0  0  0  0  0  0  0  0  0  0  0  0
   58.0798   24.2940   45.8442 N   0  0  0  0  0  0  0  0  0  0  0  0
   57.1843   23.6346   46.6101 C   0  0  0  0  0  0  0  0  0  0  0  0
   57.4055   22.4878   47.0770 O   0  0  0  0  0  0  0  0  0  0  0  0
   56.0287   24.2982   46.8279 N   0  0  0  0  0  0  0  0  0  0  0  0
   56.2182   25.4472   46.1581 C   0  0  0  0  0  0  0  0  0  0  0  0
   55.2720   26.4614   46.0682 O   0  0  0  0  0  0  0  0  0  0  0  0
   54.4425   26.3674   46.4939 H   0  0  0  0  0  0  0  0  0  0  0  0
   59.1650   30.7629   46.8440 C   0  0  0  0  0  0  0  0  0  0  0  0
   58.2681   31.7148   47.3471 C   0  0  0  0  0  0  0  0  0  0  0  0
   58.7091   32.6887   48.2413 C   0  0  0  0  0  0  0  0  0  0  0  0
   60.0448   32.7168   48.6436 C   0  0  0  0  0  0  0  0  0  0  0  0
   60.9586   31.7723   48.1593 C   0  0  0  0  0  0  0  0  0  0  0  0
   60.5126   30.7913   47.2438 C   0  0  0  0  0  0  0  0  0  0  0  0
   61.3633   29.8827   46.7085 F   0  0  0  0  0  0  0  0  0  0  0  0
   62.3150   31.8603   48.6218 N   0  0  0  0  0  0  0  0  0  0  0  0
   63.3047   33.2851   48.7135 S   0  0  0  0  0  0  0  0  0  0  0  0
   62.5369   34.3945   49.3736 O   0  0  0  0  0  0  0  0  0  0  0  0
   63.7218   33.7017   47.3314 O   0  0  0  0  0  0  0  0  0  0  0  0
   64.7839   32.9718   49.6731 C   0  0  0  0  0  0  0  0  0  0  0  0
   64.6879   33.3505   51.1413 C   0  0  0  0  0  0  0  0  0  0  0  0
   64.6455   31.8877   50.7273 C   0  0  0  0  0  0  0  0  0  0  0  0
  1  2  2  0
  2  3  1  0
  3  4  2  0
  4  9  1  0
  9 10  1  0
 10 11  1  0
 11 12  2  0
 11 13  1  0
 13 14  1  0
 14 15  1  0
  3  5  1  0
  5  6  2  0
  6  7  1  0
  6  8  1  0
  8 17  1  0
 17 18  2  0
 18 19  1  0
 19 20  2  0
 20 21  1  0
 21 24  1  0
 24 25  1  0
 25 26  2  0
 25 27  2  0
 25 28  1  0
 28 29  1  0
 29 30  1  0
 21 22  2  0
 22 23  1  0
  8  2  1  0
 22 17  1  0
 14  9  2  0
 30 28  1  0
 15 16  1  0
M  CHG 1  10  -1
M  CHG 1  13  -1
M  CHG 1  24  -1
M  END
> <UniqueID>
80

> <SMILES>
C=c1c(=Cc2[n-]c(=O)[n-]c2O)cc(C)n1-c1cccc([N-]S(=O)(=O)C2CC2)c1F

> <Energy>
388.4840582350524

> <Genealogy>
C=c1c(=Cc2[n-]c(=O)[n-]c2O)cc(C)n1-c1cccc([N-]S(=O)(=O)C2CC2)c1F (protonated)
C=c1c(=Cc2[n-]c(=O)[n-]c2O)cc(C)n1-c1cccc([N-]S(=O)(=O)C2CC2)c1F (3D coordinates assigned)
C=c1c(=Cc2[n-]c(=O)[n-]c2O)cc(C)n1-c1cccc([N-]S(=O)(=O)C2CC2)c1F (nonaromatic ring conformer: 388.4840582350524 kcal/mol)

> <smiles>
C=c1c(=Cc2[nH]c(=O)[nH]c2O)cc(C)n1-c1cccc(NS(=O)(=O)C2CC2)c1F

> <score_type>
oracle

> <origin>
adg

> <m_score__min__energy>
-14.09

> <m_primary>
energy

> <minimizedAffinity>
-8.41528

> <minimizedRMSD>
0.62731

> <CNNscore>
0.3987253308

> <CNNaffinity>
6.9806303978

> <CNN_VS>
2.7833542824

> <CNNaffinity_variance>
0.1661279052

$$$$
81:0


 35 38  0  0  0  0  0  0  0  0999 V2000
   61.4175   29.3036   46.0045 C   0  0  0  0  0  0  0  0  0  0  0  0
   60.4924   29.0764   46.9515 C   0  0  0  0  0  0  0  0  0  0  0  0
   59.3015   28.3403   46.8169 C   0  0  0  0  0  0  0  0  0  0  0  0
   58.8383   27.5768   45.8066 C   0  0  0  0  0  0  0  0  0  0  0  0
   58.6061   28.5109   48.0014 C   0  0  0  0  0  0  0  0  0  0  0  0
   59.3927   29.2919   48.8225 C   0  0  0  0  0  0  0  0  0  0  0  0
   59.0243   29.6921   50.2186 C   0  0  0  0  0  0  0  0  0  0  0  0
   60.5428   29.6310   48.1918 N   0  0  0  0  0  0  0  0  0  0  0  0
   58.0444   26.3425   45.9568 C   0  0  0  0  0  0  0  0  0  0  0  0
   56.6404   26.3717   45.8918 C   0  0  0  0  0  0  0  0  0  0  0  0
   55.9644   27.5777   45.7218 O   0  0  0  0  0  0  0  0  0  0  0  0
   55.9359   25.2129   45.9919 N   0  0  0  0  0  0  0  0  0  0  0  0
   56.5655   24.0202   46.1385 C   0  0  0  0  0  0  0  0  0  0  0  0
   55.6896   22.6479   46.2559 S   0  0  0  0  0  0  0  0  0  0  0  0
   57.9219   23.9657   46.1777 N   0  0  0  0  0  0  0  0  0  0  0  0
   58.6727   25.0952   46.0825 C   0  0  0  0  0  0  0  0  0  0  0  0
   59.9283   25.0088   46.1172 O   0  0  0  0  0  0  0  0  0  0  0  0
   56.4455   28.3787   45.6524 H   0  0  0  0  0  0  0  0  0  0  0  0
   61.5965   30.5035   48.7335 C   0  0  0  0  0  0  0  0  0  0  0  0
   61.7572   31.7546   47.9054 C   0  0  0  0  0  0  0  0  0  0  0  0
   63.0422   32.2115   47.5702 C   0  0  0  0  0  0  0  0  0  0  0  0
   63.2048   33.3945   46.8460 C   0  0  0  0  0  0  0  0  0  0  0  0
   62.0884   34.1459   46.4683 C   0  0  0  0  0  0  0  0  0  0  0  0
   60.7995   33.7247   46.8275 C   0  0  0  0  0  0  0  0  0  0  0  0
   60.6389   32.5201   47.5283 C   0  0  0  0  0  0  0  0  0  0  0  0
   59.6273   34.5392   46.4461 C   0  0  0  0  0  0  0  0  0  0  0  0
   59.8038   35.7340   46.0918 O   0  0  0  0  0  0  0  0  0  0  0  0
   58.2869   34.0283   46.5064 N   0  0  0  0  0  0  0  0  0  0  0  0
   57.8991   32.6203   46.5835 C   0  0  0  0  0  0  0  0  0  0  0  0
   57.6691   32.0468   45.2091 C   0  0  0  0  0  0  0  0  0  0  0  0
   57.0811   30.7779   45.0656 C   0  0  0  0  0  0  0  0  0  0  0  0
   56.8833   30.2309   43.7946 C   0  0  0  0  0  0  0  0  0  0  0  0
   57.2673   30.9479   42.6577 C   0  0  0  0  0  0  0  0  0  0  0  0
   57.8461   32.2139   42.7908 C   0  0  0  0  0  0  0  0  0  0  0  0
   58.0430   32.7651   44.0604 C   0  0  0  0  0  0  0  0  0  0  0  0
  1  2  2  0
  2  3  1  0
  3  4  2  0
  4  9  1  0
  9 10  2  0
 10 11  1  0
 10 12  1  0
 12 13  1  0
 13 14  2  0
 13 15  1  0
 15 16  1  0
 16 17  2  0
  3  5  1  0
  5  6  2  0
  6  7  1  0
  6  8  1  0
  8 19  1  0
 19 20  1  0
 20 21  2  0
 21 22  1  0
 22 23  2  0
 23 24  1  0
 24 26  1  0
 26 27  2  0
 26 28  1  0
 28 29  1  0
 29 30  1  0
 30 31  2  0
 31 32  1  0
 32 33  2  0
 33 34  1  0
 34 35  2  0
 24 25  2  0
  8  2  1  0
 25 20  1  0
 16  9  1  0
 35 30  1  0
 11 18  1  0
M  CHG 1  12  -1
M  CHG 1  15  -1
M  CHG 1  28  -1
M  END
> <UniqueID>
81

> <SMILES>
C=c1c(=Cc2c(O)[n-]c(=S)[n-]c2=O)cc(C)n1Cc1cccc(C(=O)[N-]Cc2ccccc2)c1

> <Energy>
101.64616411256732

> <Genealogy>
C=c1c(=Cc2c(O)[n-]c(=S)[n-]c2=O)cc(C)n1Cc1cccc(C(=O)[N-]Cc2ccccc2)c1 (protonated)
C=c1c(=Cc2c(O)[n-]c(=S)[n-]c2=O)cc(C)n1Cc1cccc(C(=O)[N-]Cc2ccccc2)c1 (3D coordinates assigned)
C=c1c(=Cc2c(O)[n-]c(=S)[n-]c2=O)cc(C)n1Cc1cccc(C(=O)[N-]Cc2ccccc2)c1 (optimized conformer: 101.64616411256732 kcal/mol)

> <smiles>
C=c1c(=Cc2c(O)[nH]c(=S)[nH]c2=O)cc(C)n1Cc1cccc(C(=O)NCc2ccccc2)c1

> <score_type>
oracle

> <origin>
adg

> <m_score__min__energy>
-15.52

> <m_primary>
energy

> <minimizedAffinity>
-6.85942

> <minimizedRMSD>
0.69053

> <CNNscore>
0.2416712344

> <CNNaffinity>
6.8508415222

> <CNN_VS>
1.6556513309

> <CNNaffinity_variance>
0.1250067502

$$$$
84:0


 32 35  0  0  0  0  0  0  0  0999 V2000
   59.4985   34.3081   45.7770 N   0  0  0  0  0  0  0  0  0  0  0  0
   62.8582   31.4383   49.4704 C   0  0  0  0  0  0  0  0  0  0  0  0
   61.9606   32.1640   48.5032 C   0  0  0  0  0  0  0  0  0  0  0  0
   62.4971   33.2181   47.7442 C   0  0  0  0  0  0  0  0  0  0  0  0
   61.7025   33.9236   46.8400 C   0  0  0  0  0  0  0  0  0  0  0  0
   60.3554   33.5785   46.6654 C   0  0  0  0  0  0  0  0  0  0  0  0
   59.8095   32.5407   47.4276 C   0  0  0  0  0  0  0  0  0  0  0  0
   60.6023   31.8048   48.3220 C   0  0  0  0  0  0  0  0  0  0  0  0
   59.8522   30.4767   49.2291 S   0  0  0  0  0  0  0  0  0  0  0  0
   60.7656   29.2838   49.1785 O   0  0  0  0  0  0  0  0  0  0  0  0
   58.5262   30.1151   48.6182 O   0  0  0  0  0  0  0  0  0  0  0  0
   59.6042   30.9419   50.8967 N   0  0  0  0  0  0  0  0  0  0  0  0
   58.9676   32.2650   51.0025 C   0  0  0  0  0  0  0  0  0  0  0  0
   57.7122   32.1222   51.8492 C   0  0  0  0  0  0  0  0  0  0  0  0
   57.8623   30.7851   52.5337 C   0  0  0  0  0  0  0  0  0  0  0  0
   58.7259   29.9860   51.5805 C   0  0  0  0  0  0  0  0  0  0  0  0
   58.3790   33.7815   45.0528 C   0  0  0  0  0  0  0  0  0  0  0  0
   57.2557   34.3329   45.1955 O   0  0  0  0  0  0  0  0  0  0  0  0
   58.5063   32.5429   44.2504 C   0  0  0  0  0  0  0  0  0  0  0  0
   57.6095   31.5470   44.2174 C   0  0  0  0  0  0  0  0  0  0  0  0
   57.8226   30.1991   44.7764 C   0  0  0  0  0  0  0  0  0  0  0  0
   59.0862   29.8156   45.0841 N   0  0  0  0  0  0  0  0  0  0  0  0
   59.3583   28.5789   45.5758 C   0  0  0  0  0  0  0  0  0  0  0  0
   60.6801   28.2478   45.8896 C   0  0  0  0  0  0  0  0  0  0  0  0
   60.9679   26.9846   46.4013 C   0  0  0  0  0  0  0  0  0  0  0  0
   59.9413   26.0666   46.5935 C   0  0  0  0  0  0  0  0  0  0  0  0
   58.6297   26.4217   46.2705 C   0  0  0  0  0  0  0  0  0  0  0  0
   58.3432   27.6654   45.7663 N   0  0  0  0  0  0  0  0  0  0  0  0
   57.0549   28.0107   45.4375 C   0  0  0  0  0  0  0  0  0  0  0  0
   56.1063   27.1902   45.5841 O   0  0  0  0  0  0  0  0  0  0  0  0
   56.7738   29.2817   44.9238 C   0  0  0  0  0  0  0  0  0  0  0  0
   55.4748   29.6141   44.5501 O   0  0  0  0  0  0  0  0  0  0  0  0
  2  3  1  0
  3  4  2  0
  4  5  1  0
  5  6  2  0
  6  1  1  0
  1 17  1  0
 17 18  2  0
 17 19  1  0
 19 20  2  0
 20 21  1  0
 21 22  1  0
 22 23  2  0
 23 24  1  0
 24 25  2  0
 25 26  1  0
 26 27  2  0
 27 28  1  0
 28 29  1  0
 29 30  2  0
 29 31  1  0
 31 32  1  0
  6  7  1  0
  7  8  2  0
  8  9  1  0
  9 10  2  0
  9 11  2  0
  9 12  1  0
 12 13  1  0
 13 14  1  0
 14 15  1  0
 15 16  1  0
  8  3  1  0
 16 12  1  0
 31 21  2  0
 28 23  1  0
M  CHG 1   1  -1
M  CHG 1  32  -1
M  END
> <UniqueID>
83

> <SMILES>
Cc1ccc([N-]C(=O)C=Cc2nc3ccccn3c(=O)c2[O-])cc1S(=O)(=O)N1CCCC1

> <Energy>
76.60792218496476

> <Genealogy>
Cc1ccc([N-]C(=O)C=Cc2nc3ccccn3c(=O)c2[O-])cc1S(=O)(=O)N1CCCC1 (protonated)
Cc1ccc([N-]C(=O)C=Cc2nc3ccccn3c(=O)c2[O-])cc1S(=O)(=O)N1CCCC1 (3D coordinates assigned)
Cc1ccc([N-]C(=O)C=Cc2nc3ccccn3c(=O)c2[O-])cc1S(=O)(=O)N1CCCC1 (nonaromatic ring conformer: 76.60792218496476 kcal/mol)

> <smiles>
Cc1ccc(NC(=O)C=Cc2nc3ccccn3c(=O)c2O)cc1S(=O)(=O)N1CCCC1

> <score_type>
oracle

> <origin>
adg

> <m_score__min__energy>
-15.83

> <m_primary>
energy

> <minimizedAffinity>
-7.17340

> <minimizedRMSD>
0.57449

> <CNNscore>
0.2251819372

> <CNNaffinity>
6.3388543129

> <CNN_VS>
1.4273954630

> <CNNaffinity_variance>
0.4358951151

$$$$
86:0


 33 37  0  0  0  0  0  0  0  0999 V2000
   58.6490   28.3353   47.2492 C   0  0  0  0  0  0  0  0  0  0  0  0
   58.2393   28.9047   46.1025 C   0  0  0  0  0  0  0  0  0  0  0  0
   57.6960   28.2595   44.9776 C   0  0  0  0  0  0  0  0  0  0  0  0
   57.2917   26.9865   44.7952 C   0  0  0  0  0  0  0  0  0  0  0  0
   57.6154   29.2203   43.9828 C   0  0  0  0  0  0  0  0  0  0  0  0
   58.0443   30.4081   44.5348 C   0  0  0  0  0  0  0  0  0  0  0  0
   58.1005   31.7143   43.8023 C   0  0  0  0  0  0  0  0  0  0  0  0
   58.4244   30.2196   45.8182 N   0  0  0  0  0  0  0  0  0  0  0  0
   57.2306   25.9462   45.8388 C   0  0  0  0  0  0  0  0  0  0  0  0
   56.0020   25.5068   46.3615 C   0  0  0  0  0  0  0  0  0  0  0  0
   54.8066   26.0692   45.9316 O   0  0  0  0  0  0  0  0  0  0  0  0
   55.9764   24.5188   47.2931 N   0  0  0  0  0  0  0  0  0  0  0  0
   57.1230   23.9297   47.7206 C   0  0  0  0  0  0  0  0  0  0  0  0
   57.0747   23.0190   48.5868 O   0  0  0  0  0  0  0  0  0  0  0  0
   58.3200   24.3176   47.2098 N   0  0  0  0  0  0  0  0  0  0  0  0
   58.3986   25.3008   46.2765 C   0  0  0  0  0  0  0  0  0  0  0  0
   59.5251   25.6317   45.8191 O   0  0  0  0  0  0  0  0  0  0  0  0
   58.9386   31.2354   46.6998 C   0  0  0  0  0  0  0  0  0  0  0  0
   58.2084   32.4100   46.9297 C   0  0  0  0  0  0  0  0  0  0  0  0
   58.7093   33.3909   47.7891 C   0  0  0  0  0  0  0  0  0  0  0  0
   59.9407   33.2061   48.4237 C   0  0  0  0  0  0  0  0  0  0  0  0
   60.6828   32.0341   48.2049 C   0  0  0  0  0  0  0  0  0  0  0  0
   60.1734   31.0508   47.3407 C   0  0  0  0  0  0  0  0  0  0  0  0
   61.9541   31.8485   48.8541 N   0  0  0  0  0  0  0  0  0  0  0  0
   62.0658   30.8476   49.9291 C   0  0  0  0  0  0  0  0  0  0  0  0
   63.2959   31.0471   50.6896 N   0  0  0  0  0  0  0  0  0  0  0  0
   63.7095   30.3896   51.7880 C   0  0  0  0  0  0  0  0  0  0  0  0
   64.9340   30.9123   52.1601 C   0  0  0  0  0  0  0  0  0  0  0  0
   65.2741   31.8858   51.2911 N   0  0  0  0  0  0  0  0  0  0  0  0
   64.2635   31.9333   50.4034 C   0  0  0  0  0  0  0  0  0  0  0  0
   64.1496   32.9110   49.2809 C   0  0  0  0  0  0  0  0  0  0  0  0
   63.1794   32.3685   48.2240 C   0  0  0  0  0  0  0  0  0  0  0  0
   66.0864   32.4419   51.3033 H   0  0  0  0  0  0  0  0  0  0  0  0
  1  2  2  0
  2  3  1  0
  3  4  2  0
  4  9  1  0
  9 10  2  0
 10 11  1  0
 10 12  1  0
 12 13  1  0
 13 14  2  0
 13 15  1  0
 15 16  1  0
 16 17  2  0
  3  5  1  0
  5  6  2  0
  6  7  1  0
  6  8  1  0
  8 18  1  0
 18 19  2  0
 19 20  1  0
 20 21  2  0
 21 22  1  0
 22 24  1  0
 24 25  1  0
 25 26  1  0
 26 27  1  0
 27 28  2  0
 28 29  1  0
 29 30  2  0
 30 31  1  0
 31 32  1  0
 22 23  2  0
  8  2  1  0
 23 18  1  0
 16  9  1  0
 32 24  1  0
 30 26  1  0
 29 33  1  0
M  CHG 1  11  -1
M  CHG 1  12  -1
M  CHG 1  15  -1
M  CHG 1  29   1
M  END
> <UniqueID>
85

> <SMILES>
C=c1/c(=C\c2c([O-])[n-]c(=O)[n-]c2=O)cc(C)n1-c1cccc(N2CCc3[nH+]ccn3C2)c1

> <Energy>
141.95482977587355

> <Genealogy>
C=c1c(=Cc2c([O-])[n-]c(=O)[n-]c2=O)cc(C)n1-c1cccc(N2CCc3[nH+]ccn3C2)c1 (protonated)
C=c1/c(=C\c2c([O-])[n-]c(=O)[n-]c2=O)cc(C)n1-c1cccc(N2CCc3[nH+]ccn3C2)c1 (cis-trans isomerization)
C=c1/c(=C\c2c([O-])[n-]c(=O)[n-]c2=O)cc(C)n1-c1cccc(N2CCc3[nH+]ccn3C2)c1 (3D coordinates assigned)
C=c1/c(=C\c2c([O-])[n-]c(=O)[n-]c2=O)cc(C)n1-c1cccc(N2CCc3[nH+]ccn3C2)c1 (nonaromatic ring conformer: 141.95482977587355 kcal/mol)

> <smiles>
C=c1c(=Cc2c(O)[nH]c(=O)[nH]c2=O)cc(C)n1-c1cccc(N2CCc3nccn3C2)c1

> <score_type>
oracle

> <origin>
adg

> <m_score__min__energy>
-15.640000000000001

> <m_primary>
energy

> <minimizedAffinity>
-7.42295

> <minimizedRMSD>
0.85837

> <CNNscore>
0.1955318600

> <CNNaffinity>
6.7690129280

> <CNN_VS>
1.3235577345

> <CNNaffinity_variance>
0.2183225304

$$$$
14:0


 26 28  0  0  0  0  0  0  0  0999 V2000
   58.6057   30.4210   53.0703 S   0  0  0  0  0  0  0  0  0  0  0  0
   58.5257   31.7373   53.7936 O   0  0  0  0  0  0  0  0  0  0  0  0
   59.7109   29.5975   53.6674 O   0  0  0  0  0  0  0  0  0  0  0  0
   59.2961   34.9614   47.1610 O   0  0  0  0  0  0  0  0  0  0  0  0
   59.2307   33.7734   47.5724 C   0  0  0  0  0  0  0  0  0  0  0  0
   58.9087   32.6641   46.6188 C   0  0  0  0  0  0  0  0  0  0  0  0
   60.0345   31.2704   46.9292 S   0  0  0  0  0  0  0  0  0  0  0  0
   59.5172   31.0527   48.6405 C   0  0  0  0  0  0  0  0  0  0  0  0
   59.3266   29.7626   49.1450 C   0  0  0  0  0  0  0  0  0  0  0  0
   59.0431   29.5734   50.4993 C   0  0  0  0  0  0  0  0  0  0  0  0
   58.9432   30.6740   51.3603 C   0  0  0  0  0  0  0  0  0  0  0  0
   59.1117   31.9701   50.8517 C   0  0  0  0  0  0  0  0  0  0  0  0
   59.3761   32.1660   49.4911 C   0  0  0  0  0  0  0  0  0  0  0  0
   59.4059   33.4964   48.9669 N   0  0  0  0  0  0  0  0  0  0  0  0
   57.1025   29.5831   53.2587 N   0  0  0  0  0  0  0  0  0  0  0  0
   55.8709   30.0883   52.7419 C   0  0  0  0  0  0  0  0  0  0  0  0
   55.7986   31.2666   52.3003 O   0  0  0  0  0  0  0  0  0  0  0  0
   54.6520   29.2239   52.7601 C   0  0  0  0  0  0  0  0  0  0  0  0
   53.4161   30.0777   52.8028 C   0  0  0  0  0  0  0  0  0  0  0  0
   52.7508   30.2995   54.0204 C   0  0  0  0  0  0  0  0  0  0  0  0
   51.6175   31.1171   54.0656 C   0  0  0  0  0  0  0  0  0  0  0  0
   51.1465   31.7294   52.8998 C   0  0  0  0  0  0  0  0  0  0  0  0
   50.0194   32.5427   52.9512 O   0  0  0  0  0  0  0  0  0  0  0  0
   51.8121   31.5248   51.6841 C   0  0  0  0  0  0  0  0  0  0  0  0
   51.3506   32.1323   50.5229 O   0  0  0  0  0  0  0  0  0  0  0  0
   52.9460   30.7043   51.6369 C   0  0  0  0  0  0  0  0  0  0  0  0
  4  5  2  0
  5  6  1  0
  6  7  1  0
  7  8  1  0
  8  9  2  0
  9 10  1  0
 10 11  2  0
 11  1  1  0
  1  2  2  0
  1  3  2  0
  1 15  1  0
 15 16  1  0
 16 17  2  0
 16 18  1  0
 18 19  1  0
 19 20  2  0
 20 21  1  0
 21 22  2  0
 22 23  1  0
 22 24  1  0
 24 25  1  0
 24 26  2  0
 11 12  1  0
 12 13  2  0
 13 14  1  0
 14  5  1  0
 13  8  1  0
 26 19  1  0
M  CHG 1  14  -1
M  CHG 1  15  -1
M  CHG 1  23  -1
M  CHG 1  25  -1
M  END
> <UniqueID>
12

> <SMILES>
O=C1CSc2ccc(S(=O)(=O)[N-]C(=O)Cc3ccc([O-])c([O-])c3)cc2[N-]1

> <Energy>
42.653385685201044

> <Genealogy>
O=C1CSc2ccc(S(=O)(=O)[N-]C(=O)Cc3ccc([O-])c([O-])c3)cc2[N-]1 (protonated)
O=C1CSc2ccc(S(=O)(=O)[N-]C(=O)Cc3ccc([O-])c([O-])c3)cc2[N-]1 (3D coordinates assigned)
O=C1CSc2ccc(S(=O)(=O)[N-]C(=O)Cc3ccc([O-])c([O-])c3)cc2[N-]1 (nonaromatic ring conformer: 42.653385685201044 kcal/mol)

> <smiles>
O=C1CSc2ccc(S(=O)(=O)NC(=O)Cc3ccc(O)c(O)c3)cc2N1

> <score_type>
oracle

> <origin>
adg

> <m_score__min__energy>
-18.530000000000001

> <m_primary>
energy

> <minimizedAffinity>
-6.51891

> <minimizedRMSD>
0.92703

> <CNNscore>
0.1805895269

> <CNNaffinity>
4.9787864685

> <CNN_VS>
0.8991166949

> <CNNaffinity_variance>
0.0794169605

$$$$
16:0


 34 37  0  0  0  0  0  0  0  0999 V2000
   58.9254   27.1703   46.9828 C   0  0  0  0  0  0  0  0  0  0  0  0
   58.4231   28.4783   47.0381 C   0  0  0  0  0  0  0  0  0  0  0  0
   58.9708   29.4054   47.9294 C   0  0  0  0  0  0  0  0  0  0  0  0
   60.0261   29.0361   48.7786 C   0  0  0  0  0  0  0  0  0  0  0  0
   60.5362   27.7297   48.7115 C   0  0  0  0  0  0  0  0  0  0  0  0
   59.9839   26.8007   47.8247 C   0  0  0  0  0  0  0  0  0  0  0  0
   57.6628   24.5768   47.6999 C   0  0  0  0  0  0  0  0  0  0  0  0
   57.7677   25.0115   46.4347 C   0  0  0  0  0  0  0  0  0  0  0  0
   57.2367   24.4107   45.2813 C   0  0  0  0  0  0  0  0  0  0  0  0
   56.6532   23.2100   45.0932 C   0  0  0  0  0  0  0  0  0  0  0  0
   57.4333   25.3125   44.2486 C   0  0  0  0  0  0  0  0  0  0  0  0
   58.1164   26.3864   44.7792 C   0  0  0  0  0  0  0  0  0  0  0  0
   58.5303   27.6017   44.0048 C   0  0  0  0  0  0  0  0  0  0  0  0
   58.3265   26.2041   46.1009 N   0  0  0  0  0  0  0  0  0  0  0  0
   55.3441   22.7935   45.6202 C   0  0  0  0  0  0  0  0  0  0  0  0
   54.9365   21.5150   45.7353 N   0  0  0  0  0  0  0  0  0  0  0  0
   53.6373   21.6337   46.0880 C   0  0  0  0  0  0  0  0  0  0  0  0
   52.9005   20.6366   46.3068 O   0  0  0  0  0  0  0  0  0  0  0  0
   53.1851   22.9041   46.1713 N   0  0  0  0  0  0  0  0  0  0  0  0
   54.2761   23.6216   45.8567 C   0  0  0  0  0  0  0  0  0  0  0  0
   54.2896   25.0082   45.7797 O   0  0  0  0  0  0  0  0  0  0  0  0
   60.6072   30.0379   49.7374 C   0  0  0  0  0  0  0  0  0  0  0  0
   59.8754   31.3031   49.6417 N   0  0  0  0  0  0  0  0  0  0  0  0
   59.5176   31.5539   50.5633 H   0  0  0  0  0  0  0  0  0  0  0  0
   60.9204   32.5740   49.0678 S   0  0  0  0  0  0  0  0  0  0  0  0
   61.5957   32.1193   47.8051 O   0  0  0  0  0  0  0  0  0  0  0  0
   61.9757   32.9040   50.0867 O   0  0  0  0  0  0  0  0  0  0  0  0
   59.9671   34.0369   48.7002 C   0  0  0  0  0  0  0  0  0  0  0  0
   59.3139   33.9279   47.3521 C   0  0  0  0  0  0  0  0  0  0  0  0
   58.2501   33.0354   47.1517 C   0  0  0  0  0  0  0  0  0  0  0  0
   57.6741   32.9027   45.8850 C   0  0  0  0  0  0  0  0  0  0  0  0
   58.1577   33.6565   44.8126 C   0  0  0  0  0  0  0  0  0  0  0  0
   59.2163   34.5445   45.0043 C   0  0  0  0  0  0  0  0  0  0  0  0
   59.7949   34.6809   46.2685 C   0  0  0  0  0  0  0  0  0  0  0  0
  7  8  2  0
  8  9  1  0
  9 10  2  0
 10 15  1  0
 15 16  1  0
 16 17  1  0
 17 18  2  0
 17 19  1  0
 19 20  1  0
 20 21  1  0
  9 11  1  0
 11 12  2  0
 12 13  1  0
 12 14  1  0
 14  1  1  0
  1  2  2  0
  2  3  1  0
  3  4  2  0
  4 22  1  0
 22 23  1  0
 23 25  1  0
 25 26  2  0
 25 27  2  0
 25 28  1  0
 28 29  1  0
 29 30  2  0
 30 31  1  0
 31 32  2  0
 32 33  1  0
 33 34  2  0
  4  5  1  0
  5  6  2  0
 14  8  1  0
  6  1  1  0
 20 15  2  0
 34 29  1  0
 23 24  1  0
M  CHG 1  16  -1
M  CHG 1  19  -1
M  CHG 1  21  -1
M  END
> <UniqueID>
14

> <SMILES>
C=c1/c(=C\c2[n-]c(=O)[n-]c2[O-])cc(C)n1-c1ccc(CNS(=O)(=O)Cc2ccccc2)cc1

> <Energy>
124.6317703000548

> <Genealogy>
C=c1c(=Cc2[n-]c(=O)[n-]c2[O-])cc(C)n1-c1ccc(CNS(=O)(=O)Cc2ccccc2)cc1 (protonated)
C=c1/c(=C\c2[n-]c(=O)[n-]c2[O-])cc(C)n1-c1ccc(CNS(=O)(=O)Cc2ccccc2)cc1 (cis-trans isomerization)
C=c1/c(=C\c2[n-]c(=O)[n-]c2[O-])cc(C)n1-c1ccc(CNS(=O)(=O)Cc2ccccc2)cc1 (3D coordinates assigned)
C=c1/c(=C\c2[n-]c(=O)[n-]c2[O-])cc(C)n1-c1ccc(CNS(=O)(=O)Cc2ccccc2)cc1 (optimized conformer: 124.6317703000548 kcal/mol)

> <smiles>
C=c1c(=Cc2[nH]c(=O)[nH]c2O)cc(C)n1-c1ccc(CNS(=O)(=O)Cc2ccccc2)cc1

> <score_type>
oracle

> <origin>
adg

> <m_score__min__energy>
-16.530000000000001

> <m_primary>
energy

> <minimizedAffinity>
-8.59157

> <minimizedRMSD>
1.59645

> <CNNscore>
0.1467712522

> <CNNaffinity>
6.2997450829

> <CNN_VS>
0.9246214628

> <CNNaffinity_variance>
0.2625415325

$$$$
23:0


 36 39  0  0  0  0  0  0  0  0999 V2000
   55.9473   29.5669   44.9716 O   0  0  0  0  0  0  0  0  0  0  0  0
   57.1802   29.7770   44.8074 C   0  0  0  0  0  0  0  0  0  0  0  0
   57.6953   31.1642   44.7396 C   0  0  0  0  0  0  0  0  0  0  0  0
   57.7760   31.8326   43.5051 C   0  0  0  0  0  0  0  0  0  0  0  0
   58.2632   33.1392   43.4391 C   0  0  0  0  0  0  0  0  0  0  0  0
   58.6780   33.7942   44.5988 C   0  0  0  0  0  0  0  0  0  0  0  0
   58.6107   33.1478   45.8441 C   0  0  0  0  0  0  0  0  0  0  0  0
   58.1082   31.8348   45.9060 C   0  0  0  0  0  0  0  0  0  0  0  0
   59.0465   33.8312   47.0845 C   0  0  0  0  0  0  0  0  0  0  0  0
   59.1783   35.0848   47.0848 O   0  0  0  0  0  0  0  0  0  0  0  0
   59.2842   33.0921   48.2933 N   0  0  0  0  0  0  0  0  0  0  0  0
   59.1395   32.1183   48.2889 H   0  0  0  0  0  0  0  0  0  0  0  0
   59.7336   33.7315   49.5319 C   0  0  0  0  0  0  0  0  0  0  0  0
   61.2002   33.4774   49.7741 C   0  0  0  0  0  0  0  0  0  0  0  0
   62.1486   33.8148   48.7929 C   0  0  0  0  0  0  0  0  0  0  0  0
   63.5099   33.5717   49.0146 C   0  0  0  0  0  0  0  0  0  0  0  0
   63.9327   32.9813   50.2117 C   0  0  0  0  0  0  0  0  0  0  0  0
   62.9947   32.6265   51.1842 C   0  0  0  0  0  0  0  0  0  0  0  0
   61.6329   32.8618   50.9662 C   0  0  0  0  0  0  0  0  0  0  0  0
   58.0796   28.6669   44.6831 N   0  0  0  0  0  0  0  0  0  0  0  0
   58.5372   27.8652   45.8132 C   0  0  0  0  0  0  0  0  0  0  0  0
   59.2249   28.7384   46.8207 C   0  0  0  0  0  0  0  0  0  0  0  0
   60.3718   29.4605   46.4761 C   0  0  0  0  0  0  0  0  0  0  0  0
   60.9548   30.2817   47.4445 C   0  0  0  0  0  0  0  0  0  0  0  0
   61.9883   30.9444   47.1702 O   0  0  0  0  0  0  0  0  0  0  0  0
   60.4072   30.3663   48.6855 N   0  0  0  0  0  0  0  0  0  0  0  0
   59.2878   29.6649   49.0050 C   0  0  0  0  0  0  0  0  0  0  0  0
   58.7904   29.7660   50.2009 N   0  0  0  0  0  0  0  0  0  0  0  0
   58.7045   28.8648   48.0715 N   0  0  0  0  0  0  0  0  0  0  0  0
   59.4623   29.3326   51.4267 C   0  0  0  0  0  0  0  0  0  0  0  0
   58.7999   29.9293   52.6382 C   0  0  0  0  0  0  0  0  0  0  0  0
   58.8482   31.3122   52.8780 C   0  0  0  0  0  0  0  0  0  0  0  0
   58.2053   31.8353   54.0013 C   0  0  0  0  0  0  0  0  0  0  0  0
   57.5255   30.9816   54.8737 C   0  0  0  0  0  0  0  0  0  0  0  0
   57.4981   29.6107   54.6031 C   0  0  0  0  0  0  0  0  0  0  0  0
   58.1283   29.1190   53.5031 N   0  0  0  0  0  0  0  0  0  0  0  0
  1  2  2  0
  2 20  1  0
 20 21  1  0
 21 22  1  0
 22 23  2  0
 23 24  1  0
 24 25  2  0
 24 26  1  0
 26 27  1  0
 27 28  2  0
 28 30  1  0
 30 31  1  0
 31 32  2  0
 32 33  1  0
 33 34  2  0
 34 35  1  0
 35 36  2  0
 27 29  1  0
  2  3  1  0
  3  4  2  0
  4  5  1  0
  5  6  2  0
  6  7  1  0
  7  9  1  0
  9 10  2  0
  9 11  1  0
 11 13  1  0
 13 14  1  0
 14 15  2  0
 15 16  1  0
 16 17  2  0
 17 18  1  0
 18 19  2  0
  7  8  2  0
 29 22  1  0
  8  3  1  0
 36 31  1  0
 19 14  1  0
 11 12  1  0
M  CHG 1  20  -1
M  CHG 1  26  -1
M  CHG 1  29  -1
M  END
> <UniqueID>
20

> <SMILES>
O=C([N-]Cc1cc(=O)[n-]c(=NCc2ccccn2)[n-]1)c1cccc(C(=O)NCc2ccccc2)c1

> <Energy>
59.68174526592678

> <Genealogy>
O=C([N-]Cc1cc(=O)[n-]c(=NCc2ccccn2)[n-]1)c1cccc(C(=O)NCc2ccccc2)c1 (protonated)
O=C([N-]Cc1cc(=O)[n-]c(=NCc2ccccn2)[n-]1)c1cccc(C(=O)NCc2ccccc2)c1 (3D coordinates assigned)
O=C([N-]Cc1cc(=O)[n-]c(=NCc2ccccn2)[n-]1)c1cccc(C(=O)NCc2ccccc2)c1 (optimized conformer: 59.68174526592678 kcal/mol)

> <smiles>
O=C(NCc1ccccc1)c1cccc(C(=O)NCc2cc(=O)[nH]c(=NCc3ccccn3)[nH]2)c1

> <score_type>
oracle

> <origin>
adg

> <m_score__min__energy>
-15.630000000000001

> <m_primary>
energy

> <minimizedAffinity>
-7.53499

> <minimizedRMSD>
1.73552

> <CNNscore>
0.3530127704

> <CNNaffinity>
6.6509699821

> <CNN_VS>
2.3478772640

> <CNNaffinity_variance>
0.1758160591

$$$$
41:0


 32 35  0  0  0  0  0  0  0  0999 V2000
   57.3699   24.5539   45.4082 N   0  0  0  0  0  0  0  0  0  0  0  0
   57.1529   25.7139   46.0504 C   0  0  0  0  0  0  0  0  0  0  0  0
   55.9247   26.3631   46.1160 O   0  0  0  0  0  0  0  0  0  0  0  0
   58.3290   26.1400   46.6286 C   0  0  0  0  0  0  0  0  0  0  0  0
   59.3018   25.2402   46.3605 N   0  0  0  0  0  0  0  0  0  0  0  0
   58.6801   24.3028   45.6147 C   0  0  0  0  0  0  0  0  0  0  0  0
   59.2731   23.2885   45.1590 O   0  0  0  0  0  0  0  0  0  0  0  0
   58.4782   27.3568   47.4580 C   0  0  0  0  0  0  0  0  0  0  0  0
   58.5506   28.6227   46.9933 C   0  0  0  0  0  0  0  0  0  0  0  0
   58.2459   29.0629   45.7113 C   0  0  0  0  0  0  0  0  0  0  0  0
   58.4375   30.4289   45.7014 C   0  0  0  0  0  0  0  0  0  0  0  0
   58.1855   31.3086   44.5128 C   0  0  0  0  0  0  0  0  0  0  0  0
   58.8539   30.8622   46.9134 N   0  0  0  0  0  0  0  0  0  0  0  0
   58.9137   29.7670   47.7182 C   0  0  0  0  0  0  0  0  0  0  0  0
   59.2662   29.8032   49.0142 C   0  0  0  0  0  0  0  0  0  0  0  0
   59.1024   32.2644   47.2814 C   0  0  0  0  0  0  0  0  0  0  0  0
   60.5464   32.4609   47.6407 C   0  0  0  0  0  0  0  0  0  0  0  0
   61.4843   31.6002   47.1539 N   0  0  0  0  0  0  0  0  0  0  0  0
   62.8022   31.7215   47.4628 C   0  0  0  0  0  0  0  0  0  0  0  0
   63.2314   32.7502   48.3043 C   0  0  0  0  0  0  0  0  0  0  0  0
   62.2945   33.6449   48.8200 C   0  0  0  0  0  0  0  0  0  0  0  0
   60.9438   33.5044   48.4913 C   0  0  0  0  0  0  0  0  0  0  0  0
   56.4173   23.7742   44.6170 C   0  0  0  0  0  0  0  0  0  0  0  0
   57.4368   21.0743   44.4654 O   0  0  0  0  0  0  0  0  0  0  0  0
   56.3959   21.3444   45.3523 C   0  0  0  0  0  0  0  0  0  0  0  0
   55.8801   20.3170   46.1587 C   0  0  0  0  0  0  0  0  0  0  0  0
   54.8409   20.5782   47.0529 C   0  0  0  0  0  0  0  0  0  0  0  0
   54.3093   21.8656   47.1523 C   0  0  0  0  0  0  0  0  0  0  0  0
   53.2778   22.1230   48.0463 O   0  0  0  0  0  0  0  0  0  0  0  0
   54.8164   22.8954   46.3532 C   0  0  0  0  0  0  0  0  0  0  0  0
   55.8577   22.6442   45.4432 C   0  0  0  0  0  0  0  0  0  0  0  0
   57.7913   20.2088   44.4085 H   0  0  0  0  0  0  0  0  0  0  0  0
 24 25  1  0
 25 26  2  0
 26 27  1  0
 27 28  2  0
 28 29  1  0
 28 30  1  0
 30 31  2  0
 31 23  1  0
 23  1  1  0
  1  2  1  0
  2  3  1  0
  2  4  2  0
  4  8  1  0
  8  9  2  0
  9 10  1  0
 10 11  2  0
 11 12  1  0
 11 13  1  0
 13 16  1  0
 16 17  1  0
 17 18  2  0
 18 19  1  0
 19 20  2  0
 20 21  1  0
 21 22  2  0
 13 14  1  0
 14 15  2  0
  4  5  1  0
  5  6  1  0
  6  7  2  0
 31 25  1  0
  6  1  1  0
 14  9  1  0
 22 17  1  0
 24 32  1  0
M  CHG 1   3  -1
M  CHG 1   5  -1
M  CHG 1  29  -1
M  END
> <UniqueID>
35

> <SMILES>
C=c1/c(=C/c2[n-]c(=O)n(Cc3cc([O-])ccc3O)c2[O-])cc(C)n1Cc1ccccn1

> <Energy>
118.16598463283445

> <Genealogy>
C=c1c(=Cc2[n-]c(=O)n(Cc3cc([O-])ccc3O)c2[O-])cc(C)n1Cc1ccccn1 (protonated)
C=c1/c(=C/c2[n-]c(=O)n(Cc3cc([O-])ccc3O)c2[O-])cc(C)n1Cc1ccccn1 (cis-trans isomerization)
C=c1/c(=C/c2[n-]c(=O)n(Cc3cc([O-])ccc3O)c2[O-])cc(C)n1Cc1ccccn1 (3D coordinates assigned)
C=c1/c(=C/c2[n-]c(=O)n(Cc3cc([O-])ccc3O)c2[O-])cc(C)n1Cc1ccccn1 (optimized conformer: 118.16598463283445 kcal/mol)

> <smiles>
C=c1c(=Cc2[nH]c(=O)n(Cc3cc(O)ccc3O)c2O)cc(C)n1Cc1ccccn1

> <score_type>
oracle

> <origin>
adg

> <m_score__min__energy>
-16.219999999999999

> <m_primary>
energy

> <minimizedAffinity>
-8.00411

> <minimizedRMSD>
1.83923

> <CNNscore>
0.1062595993

> <CNNaffinity>
6.1841487885

> <CNN_VS>
0.6571251750

> <CNNaffinity_variance>
0.2065962553

$$$$
47:0


 35 38  0  0  0  0  0  0  0  0999 V2000
   61.1232   32.4744   48.0622 C   0  0  0  0  0  0  0  0  0  0  0  0
   62.2010   33.1955   47.5258 C   0  0  0  0  0  0  0  0  0  0  0  0
   63.0354   33.9432   48.3575 C   0  0  0  0  0  0  0  0  0  0  0  0
   62.8015   33.9793   49.7328 C   0  0  0  0  0  0  0  0  0  0  0  0
   61.7352   33.2622   50.2821 C   0  0  0  0  0  0  0  0  0  0  0  0
   60.8846   32.5001   49.4577 C   0  0  0  0  0  0  0  0  0  0  0  0
   61.3400   29.6467   47.2320 C   0  0  0  0  0  0  0  0  0  0  0  0
   60.3926   30.4690   46.7557 C   0  0  0  0  0  0  0  0  0  0  0  0
   59.3387   30.1509   45.8820 C   0  0  0  0  0  0  0  0  0  0  0  0
   59.0716   29.0254   45.1882 C   0  0  0  0  0  0  0  0  0  0  0  0
   58.5333   31.2768   45.8190 C   0  0  0  0  0  0  0  0  0  0  0  0
   59.1363   32.2454   46.5934 C   0  0  0  0  0  0  0  0  0  0  0  0
   58.5899   33.6233   46.8167 C   0  0  0  0  0  0  0  0  0  0  0  0
   60.2557   31.7542   47.1677 N   0  0  0  0  0  0  0  0  0  0  0  0
   58.3355   27.8552   45.7010 C   0  0  0  0  0  0  0  0  0  0  0  0
   56.9437   27.7715   45.5489 C   0  0  0  0  0  0  0  0  0  0  0  0
   56.2333   28.8131   44.9595 O   0  0  0  0  0  0  0  0  0  0  0  0
   56.2786   26.6712   45.9855 N   0  0  0  0  0  0  0  0  0  0  0  0
   56.9404   25.6338   46.5582 C   0  0  0  0  0  0  0  0  0  0  0  0
   56.3016   24.6267   46.9600 O   0  0  0  0  0  0  0  0  0  0  0  0
   58.2905   25.6787   46.6918 N   0  0  0  0  0  0  0  0  0  0  0  0
   59.0026   26.7558   46.2711 C   0  0  0  0  0  0  0  0  0  0  0  0
   60.2561   26.7538   46.3931 O   0  0  0  0  0  0  0  0  0  0  0  0
   59.7899   31.7136   50.0724 C   0  0  0  0  0  0  0  0  0  0  0  0
   59.8848   30.4580   50.1414 O   0  0  0  0  0  0  0  0  0  0  0  0
   58.6248   32.3696   50.5953 N   0  0  0  0  0  0  0  0  0  0  0  0
   58.5171   33.3366   50.4454 H   0  0  0  0  0  0  0  0  0  0  0  0
   57.5930   31.6529   51.3420 C   0  0  0  0  0  0  0  0  0  0  0  0
   57.8569   31.7537   52.8199 C   0  0  0  0  0  0  0  0  0  0  0  0
   57.2595   30.8531   53.7174 C   0  0  0  0  0  0  0  0  0  0  0  0
   57.5305   30.9391   55.0864 C   0  0  0  0  0  0  0  0  0  0  0  0
   58.4028   31.9190   55.5679 C   0  0  0  0  0  0  0  0  0  0  0  0
   58.6664   31.9995   56.8950 F   0  0  0  0  0  0  0  0  0  0  0  0
   59.0065   32.8144   54.6793 C   0  0  0  0  0  0  0  0  0  0  0  0
   58.7366   32.7324   53.3109 C   0  0  0  0  0  0  0  0  0  0  0  0
  7  8  2  0
  8  9  1  0
  9 10  2  0
 10 15  1  0
 15 16  2  0
 16 17  1  0
 16 18  1  0
 18 19  1  0
 19 20  2  0
 19 21  1  0
 21 22  1  0
 22 23  2  0
  9 11  1  0
 11 12  2  0
 12 13  1  0
 12 14  1  0
 14  1  1  0
  1  2  2  0
  2  3  1  0
  3  4  2  0
  4  5  1  0
  5  6  2  0
  6 24  1  0
 24 25  2  0
 24 26  1  0
 26 28  1  0
 28 29  1  0
 29 30  2  0
 30 31  1  0
 31 32  2  0
 32 33  1  0
 32 34  1  0
 34 35  2  0
 14  8  1  0
  6  1  1  0
 35 29  1  0
 22 15  1  0
 26 27  1  0
M  CHG 1  17  -1
M  CHG 1  18  -1
M  CHG 1  21  -1
M  END
> <UniqueID>
40

> <SMILES>
C=c1c(=Cc2c([O-])[n-]c(=O)[n-]c2=O)cc(C)n1-c1ccccc1C(=O)NCc1ccc(F)cc1

> <Energy>
106.48406848445472

> <Genealogy>
C=c1c(=Cc2c([O-])[n-]c(=O)[n-]c2=O)cc(C)n1-c1ccccc1C(=O)NCc1ccc(F)cc1 (protonated)
C=c1c(=Cc2c([O-])[n-]c(=O)[n-]c2=O)cc(C)n1-c1ccccc1C(=O)NCc1ccc(F)cc1 (3D coordinates assigned)
C=c1c(=Cc2c([O-])[n-]c(=O)[n-]c2=O)cc(C)n1-c1ccccc1C(=O)NCc1ccc(F)cc1 (optimized conformer: 106.48406848445472 kcal/mol)

> <smiles>
C=c1c(=Cc2c(O)[nH]c(=O)[nH]c2=O)cc(C)n1-c1ccccc1C(=O)NCc1ccc(F)cc1

> <score_type>
oracle

> <origin>
adg

> <m_score__min__energy>
-16.329999999999998

> <m_primary>
energy

> <minimizedAffinity>
-7.26040

> <minimizedRMSD>
2.18030

> <CNNscore>
0.3615708053

> <CNNaffinity>
7.0412945747

> <CNN_VS>
2.5459265709

> <CNNaffinity_variance>
0.1413417906

$$$$
48:0


 31 34  0  0  0  0  0  0  0  0999 V2000
   58.5361   29.3581   53.4863 C   0  0  0  0  0  0  0  0  0  0  0  0
   59.2753   29.1831   54.6612 C   0  0  0  0  0  0  0  0  0  0  0  0
   60.6634   29.0680   54.5971 C   0  0  0  0  0  0  0  0  0  0  0  0
   61.2985   29.1201   53.3549 C   0  0  0  0  0  0  0  0  0  0  0  0
   60.5684   29.2832   52.2163 N   0  0  0  0  0  0  0  0  0  0  0  0
   59.2081   29.4023   52.2547 C   0  0  0  0  0  0  0  0  0  0  0  0
   61.0307   29.3159   51.3477 H   0  0  0  0  0  0  0  0  0  0  0  0
   56.8197   31.7440   52.9947 C   0  0  0  0  0  0  0  0  0  0  0  0
   56.3300   30.5186   53.2420 C   0  0  0  0  0  0  0  0  0  0  0  0
   54.9820   30.1467   53.2432 C   0  0  0  0  0  0  0  0  0  0  0  0
   53.9165   30.9393   53.0146 C   0  0  0  0  0  0  0  0  0  0  0  0
   54.9506   28.7960   53.5655 C   0  0  0  0  0  0  0  0  0  0  0  0
   56.2625   28.3961   53.7222 C   0  0  0  0  0  0  0  0  0  0  0  0
   56.6970   26.9999   54.0473 C   0  0  0  0  0  0  0  0  0  0  0  0
   57.0994   29.4393   53.5307 N   0  0  0  0  0  0  0  0  0  0  0  0
   53.0367   30.8170   51.8387 C   0  0  0  0  0  0  0  0  0  0  0  0
   53.2003   29.8790   50.8898 N   0  0  0  0  0  0  0  0  0  0  0  0
   52.1409   30.0712   50.0719 C   0  0  0  0  0  0  0  0  0  0  0  0
   51.9489   29.3793   49.0392 O   0  0  0  0  0  0  0  0  0  0  0  0
   51.3007   31.0558   50.4556 N   0  0  0  0  0  0  0  0  0  0  0  0
   51.8738   31.5105   51.5820 C   0  0  0  0  0  0  0  0  0  0  0  0
   51.3183   32.5028   52.3803 O   0  0  0  0  0  0  0  0  0  0  0  0
   58.4452   29.5610   51.0916 O   0  0  0  0  0  0  0  0  0  0  0  0
   58.5240   30.6665   50.2004 C   0  0  0  0  0  0  0  0  0  0  0  0
   59.5802   30.3645   49.1414 C   0  0  0  0  0  0  0  0  0  0  0  0
   60.8089   31.1414   49.4195 N   0  0  0  0  0  0  0  0  0  0  0  0
   60.5821   32.3258   50.2843 C   0  0  0  0  0  0  0  0  0  0  0  0
   60.6082   33.6677   49.5329 C   0  0  0  0  0  0  0  0  0  0  0  0
   59.7290   33.5441   47.9458 S   0  0  0  0  0  0  0  0  0  0  0  0
   60.8566   32.3092   47.1918 C   0  0  0  0  0  0  0  0  0  0  0  0
   61.6064   31.4283   48.2111 C   0  0  0  0  0  0  0  0  0  0  0  0
  8  9  2  0
  9 10  1  0
 10 11  2  0
 11 16  1  0
 16 17  1  0
 17 18  1  0
 18 19  2  0
 18 20  1  0
 20 21  1  0
 21 22  1  0
 10 12  1  0
 12 13  2  0
 13 14  1  0
 13 15  1  0
 15  1  1  0
  1  2  2  0
  2  3  1  0
  3  4  2  0
  4  5  1  0
  5  6  2  0
  6 23  1  0
 23 24  1  0
 24 25  1  0
 25 26  1  0
 26 27  1  0
 27 28  1  0
 28 29  1  0
 29 30  1  0
 30 31  1  0
 15  9  1  0
  6  1  1  0
 31 26  1  0
 21 16  2  0
  5  7  1  0
M  CHG 1   5   1
M  CHG 1  17  -1
M  CHG 1  20  -1
M  CHG 1  22  -1
M  END
> <UniqueID>
41

> <SMILES>
C=c1/c(=C/c2[n-]c(=O)[n-]c2[O-])cc(C)n1-c1ccc[nH+]c1OCCN1CCSCC1

> <Energy>
131.03218805660453

> <Genealogy>
C=c1c(=Cc2[n-]c(=O)[n-]c2[O-])cc(C)n1-c1ccc[nH+]c1OCCN1CCSCC1 (protonated)
C=c1/c(=C/c2[n-]c(=O)[n-]c2[O-])cc(C)n1-c1ccc[nH+]c1OCCN1CCSCC1 (cis-trans isomerization)
C=c1/c(=C/c2[n-]c(=O)[n-]c2[O-])cc(C)n1-c1ccc[nH+]c1OCCN1CCSCC1 (3D coordinates assigned)
C=c1/c(=C/c2[n-]c(=O)[n-]c2[O-])cc(C)n1-c1ccc[nH+]c1OCCN1CCSCC1 (nonaromatic ring conformer: 131.03218805660453 kcal/mol)

> <smiles>
C=c1c(=Cc2[nH]c(=O)[nH]c2O)cc(C)n1-c1cccnc1OCCN1CCSCC1

> <score_type>
oracle

> <origin>
adg

> <m_score__min__energy>
-15.68

> <m_primary>
energy

> <minimizedAffinity>
-4.50239

> <minimizedRMSD>
0.88113

> <CNNscore>
0.0464054421

> <CNNaffinity>
5.1216588020

> <CNN_VS>
0.2376728356

> <CNNaffinity_variance>
0.2500540018

$$$$
52:0


 29 32  0  0  0  0  0  0  0  0999 V2000
   58.9321   28.4580   45.8050 C   0  0  0  0  0  0  0  0  0  0  0  0
   60.0701   27.7385   46.2060 C   0  0  0  0  0  0  0  0  0  0  0  0
   59.9725   26.3873   46.5378 C   0  0  0  0  0  0  0  0  0  0  0  0
   58.7440   25.7317   46.4575 C   0  0  0  0  0  0  0  0  0  0  0  0
   57.6028   26.4191   46.0295 C   0  0  0  0  0  0  0  0  0  0  0  0
   57.6871   27.7972   45.7380 C   0  0  0  0  0  0  0  0  0  0  0  0
   56.5401   28.5027   45.3882 O   0  0  0  0  0  0  0  0  0  0  0  0
   60.4699   32.7981   49.9056 C   0  0  0  0  0  0  0  0  0  0  0  0
   61.6940   32.2180   50.1819 C   0  0  0  0  0  0  0  0  0  0  0  0
   62.0108   31.3593   49.1879 N   0  0  0  0  0  0  0  0  0  0  0  0
   60.9637   31.4420   48.3364 C   0  0  0  0  0  0  0  0  0  0  0  0
   60.0287   32.3210   48.7349 N   0  0  0  0  0  0  0  0  0  0  0  0
   58.7463   32.5576   48.0786 C   0  0  0  0  0  0  0  0  0  0  0  0
   58.8260   32.1387   46.6041 C   0  0  0  0  0  0  0  0  0  0  0  0
   59.5066   30.8397   46.4786 N   0  0  0  0  0  0  0  0  0  0  0  0
   59.0546   29.9002   45.4868 C   0  0  0  0  0  0  0  0  0  0  0  0
   58.7352   30.3158   44.3392 O   0  0  0  0  0  0  0  0  0  0  0  0
   60.8538   30.6805   47.0531 C   0  0  0  0  0  0  0  0  0  0  0  0
   59.2751   33.4122   51.9856 C   0  0  0  0  0  0  0  0  0  0  0  0
   59.7705   33.7219   50.6890 O   0  0  0  0  0  0  0  0  0  0  0  0
   56.3616   25.7054   45.9470 N   0  0  0  0  0  0  0  0  0  0  0  0
   56.2088   24.3225   45.5987 C   0  0  0  0  0  0  0  0  0  0  0  0
   56.2178   24.0006   44.3812 O   0  0  0  0  0  0  0  0  0  0  0  0
   55.9825   23.2813   46.6215 C   0  0  0  0  0  0  0  0  0  0  0  0
   56.6116   22.0565   46.6795 C   0  0  0  0  0  0  0  0  0  0  0  0
   56.1380   21.3695   47.7345 N   0  0  0  0  0  0  0  0  0  0  0  0
   55.2311   22.2075   48.2744 C   0  0  0  0  0  0  0  0  0  0  0  0
   54.5620   21.9156   49.2992 O   0  0  0  0  0  0  0  0  0  0  0  0
   55.0977   23.3833   47.6290 N   0  0  0  0  0  0  0  0  0  0  0  0
 19 20  1  0
 20  8  1  0
  8  9  2  0
  9 10  1  0
 10 11  2  0
 11 12  1  0
 12 13  1  0
 13 14  1  0
 14 15  1  0
 15 16  1  0
 16 17  2  0
 16  1  1  0
  1  2  2  0
  2  3  1  0
  3  4  2  0
  4  5  1  0
  5 21  1  0
 21 22  1  0
 22 23  2  0
 22 24  1  0
 24 25  2  0
 25 26  1  0
 26 27  1  0
 27 28  2  0
 27 29  1  0
  5  6  2  0
  6  7  1  0
 15 18  1  0
 12  8  1  0
  6  1  1  0
 18 11  1  0
 29 24  1  0
M  CHG 1   7  -1
M  CHG 1  21  -1
M  CHG 1  26  -1
M  CHG 1  29  -1
M  END
> <UniqueID>
45

> <SMILES>
COc1cnc2n1CCN(C(=O)c1cccc([N-]C(=O)c3c[n-]c(=O)[n-]3)c1[O-])C2

> <Energy>
116.81032329821159

> <Genealogy>
COc1cnc2n1CCN(C(=O)c1cccc([N-]C(=O)c3c[n-]c(=O)[n-]3)c1[O-])C2 (protonated)
COc1cnc2n1CCN(C(=O)c1cccc([N-]C(=O)c3c[n-]c(=O)[n-]3)c1[O-])C2 (3D coordinates assigned)
COc1cnc2n1CCN(C(=O)c1cccc([N-]C(=O)c3c[n-]c(=O)[n-]3)c1[O-])C2 (nonaromatic ring conformer: 116.81032329821159 kcal/mol)

> <smiles>
COc1cnc2n1CCN(C(=O)c1cccc(NC(=O)c3c[nH]c(=O)[nH]3)c1O)C2

> <score_type>
oracle

> <origin>
adg

> <m_score__min__energy>
-17.34

> <m_primary>
energy

> <minimizedAffinity>
-7.29025

> <minimizedRMSD>
1.55619

> <CNNscore>
0.1151516810

> <CNNaffinity>
5.9403624535

> <CNN_VS>
0.6840427518

> <CNNaffinity_variance>
0.0536938310

$$$$
53:0


 30 32  0  0  0  0  0  0  0  0999 V2000
   58.2911   32.0325   45.2706 N   0  0  0  0  0  0  0  0  0  0  0  0
   58.3978   32.2187   46.6980 C   0  0  0  0  0  0  0  0  0  0  0  0
   57.5203   32.8843   47.3103 O   0  0  0  0  0  0  0  0  0  0  0  0
   59.5046   31.6199   47.4769 C   0  0  0  0  0  0  0  0  0  0  0  0
   59.2346   30.4766   48.2441 C   0  0  0  0  0  0  0  0  0  0  0  0
   60.2621   29.8600   48.9606 C   0  0  0  0  0  0  0  0  0  0  0  0
   60.0259   28.8239   49.6361 O   0  0  0  0  0  0  0  0  0  0  0  0
   61.5184   30.3733   48.9307 N   0  0  0  0  0  0  0  0  0  0  0  0
   61.8208   31.4922   48.2216 C   0  0  0  0  0  0  0  0  0  0  0  0
   63.1290   31.9888   48.2399 C   0  0  0  0  0  0  0  0  0  0  0  0
   63.4473   33.1541   47.5387 C   0  0  0  0  0  0  0  0  0  0  0  0
   62.4593   33.8331   46.8245 C   0  0  0  0  0  0  0  0  0  0  0  0
   61.1496   33.3467   46.7953 C   0  0  0  0  0  0  0  0  0  0  0  0
   60.8135   32.1605   47.4796 C   0  0  0  0  0  0  0  0  0  0  0  0
   58.9253   34.3854   44.8676 C   0  0  0  0  0  0  0  0  0  0  0  0
   58.1311   33.1830   44.3651 C   0  0  0  0  0  0  0  0  0  0  0  0
   58.4275   30.6878   44.6990 C   0  0  0  0  0  0  0  0  0  0  0  0
   57.1419   29.9254   44.8622 C   0  0  0  0  0  0  0  0  0  0  0  0
   56.0493   30.5333   44.7217 O   0  0  0  0  0  0  0  0  0  0  0  0
   57.1226   28.5614   45.3028 N   0  0  0  0  0  0  0  0  0  0  0  0
   58.2448   27.8213   45.8065 C   0  0  0  0  0  0  0  0  0  0  0  0
   59.5445   28.3304   45.6362 C   0  0  0  0  0  0  0  0  0  0  0  0
   60.6543   27.6008   46.0607 C   0  0  0  0  0  0  0  0  0  0  0  0
   60.4838   26.3464   46.6388 C   0  0  0  0  0  0  0  0  0  0  0  0
   59.2039   25.8126   46.7916 C   0  0  0  0  0  0  0  0  0  0  0  0
   58.0655   26.5351   46.3769 C   0  0  0  0  0  0  0  0  0  0  0  0
   56.7213   25.9247   46.5691 C   0  0  0  0  0  0  0  0  0  0  0  0
   55.5577   26.4860   45.9632 N   0  0  0  0  0  0  0  0  0  0  0  0
   56.5905   24.9005   47.2933 O   0  0  0  0  0  0  0  0  0  0  0  0
   55.6362   27.2854   45.3939 H   0  0  0  0  0  0  0  0  0  0  0  0
 15 16  1  0
 16  1  1  0
  1 17  1  0
 17 18  1  0
 18 19  2  0
 18 20  1  0
 20 21  1  0
 21 22  2  0
 22 23  1  0
 23 24  2  0
 24 25  1  0
 25 26  2  0
 26 27  1  0
 27 28  1  0
 27 29  2  0
  1  2  1  0
  2  3  2  0
  2  4  1  0
  4  5  2  0
  5  6  1  0
  6  7  2  0
  6  8  1  0
  8  9  1  0
  9 10  2  0
 10 11  1  0
 11 12  2  0
 12 13  1  0
 13 14  2  0
 26 21  1  0
 14  4  1  0
 14  9  1  0
 28 30  1  0
M  CHG 1   8  -1
M  CHG 1  20  -1
M  CHG 1  28  -1
M  END
> <UniqueID>
46

> <SMILES>
CCN(CC(=O)[N-]c1ccccc1C([NH-])=O)C(=O)c1cc(=O)[n-]c2ccccc12

> <Energy>
62.268960733607116

> <Genealogy>
CCN(CC(=O)[N-]c1ccccc1C([NH-])=O)C(=O)c1cc(=O)[n-]c2ccccc12 (protonated)
CCN(CC(=O)[N-]c1ccccc1C([NH-])=O)C(=O)c1cc(=O)[n-]c2ccccc12 (3D coordinates assigned)
CCN(CC(=O)[N-]c1ccccc1C([NH-])=O)C(=O)c1cc(=O)[n-]c2ccccc12 (optimized conformer: 62.268960733607116 kcal/mol)

> <smiles>
CCN(CC(=O)Nc1ccccc1C(N)=O)C(=O)c1cc(=O)[nH]c2ccccc12

> <score_type>
oracle

> <origin>
adg

> <m_score__min__energy>
-14.84

> <m_primary>
energy

> <minimizedAffinity>
-8.95959

> <minimizedRMSD>
0.52085

> <CNNscore>
0.9400528669

> <CNNaffinity>
7.1584734917

> <CNN_VS>
6.7293434143

> <CNNaffinity_variance>
0.0541343503

$$$$
57:0


 29 32  0  0  0  0  0  0  0  0999 V2000
   59.0758   28.6388   47.8964 C   0  0  0  0  0  0  0  0  0  0  0  0
   58.8370   28.6356   46.5763 C   0  0  0  0  0  0  0  0  0  0  0  0
   58.5955   27.5230   45.7541 C   0  0  0  0  0  0  0  0  0  0  0  0
   58.7191   26.2035   45.9939 C   0  0  0  0  0  0  0  0  0  0  0  0
   58.1844   28.0273   44.5302 C   0  0  0  0  0  0  0  0  0  0  0  0
   58.2578   29.4032   44.6198 C   0  0  0  0  0  0  0  0  0  0  0  0
   57.8705   30.3575   43.5329 C   0  0  0  0  0  0  0  0  0  0  0  0
   58.6575   29.7690   45.8556 N   0  0  0  0  0  0  0  0  0  0  0  0
   57.6171   25.2919   46.3434 C   0  0  0  0  0  0  0  0  0  0  0  0
   57.7727   23.9878   46.6395 N   0  0  0  0  0  0  0  0  0  0  0  0
   56.5041   23.5382   46.7496 C   0  0  0  0  0  0  0  0  0  0  0  0
   56.2314   22.3442   47.0370 O   0  0  0  0  0  0  0  0  0  0  0  0
   55.5520   24.4664   46.5158 N   0  0  0  0  0  0  0  0  0  0  0  0
   56.2708   25.5686   46.2475 C   0  0  0  0  0  0  0  0  0  0  0  0
   55.6997   26.7962   45.9216 O   0  0  0  0  0  0  0  0  0  0  0  0
   54.7677   26.8836   45.8820 H   0  0  0  0  0  0  0  0  0  0  0  0
   58.7548   31.1235   46.3282 C   0  0  0  0  0  0  0  0  0  0  0  0
   57.6495   31.9725   46.1885 C   0  0  0  0  0  0  0  0  0  0  0  0
   57.7192   33.2974   46.6160 C   0  0  0  0  0  0  0  0  0  0  0  0
   58.8994   33.7903   47.1702 C   0  0  0  0  0  0  0  0  0  0  0  0
   60.0225   32.9619   47.3109 C   0  0  0  0  0  0  0  0  0  0  0  0
   59.9479   31.6044   46.9171 C   0  0  0  0  0  0  0  0  0  0  0  0
   61.1330   30.6885   47.0921 C   0  0  0  0  0  0  0  0  0  0  0  0
   61.2340   33.5209   47.8434 N   0  0  0  0  0  0  0  0  0  0  0  0
   61.3868   33.7359   49.2871 C   0  0  0  0  0  0  0  0  0  0  0  0
   62.7784   33.3858   49.7535 C   0  0  0  0  0  0  0  0  0  0  0  0
   63.7883   33.1328   48.9033 C   0  0  0  0  0  0  0  0  0  0  0  0
   63.5837   33.0345   47.4126 C   0  0  0  0  0  0  0  0  0  0  0  0
   62.3609   33.8300   46.9602 C   0  0  0  0  0  0  0  0  0  0  0  0
  1  2  2  0
  2  3  1  0
  3  4  2  0
  4  9  1  0
  9 10  1  0
 10 11  1  0
 11 12  2  0
 11 13  1  0
 13 14  1  0
 14 15  1  0
  3  5  1  0
  5  6  2  0
  6  7  1  0
  6  8  1  0
  8 17  1  0
 17 18  2  0
 18 19  1  0
 19 20  2  0
 20 21  1  0
 21 24  1  0
 24 25  1  0
 25 26  1  0
 26 27  2  0
 27 28  1  0
 28 29  1  0
 21 22  2  0
 22 23  1  0
  8  2  1  0
 22 17  1  0
 14  9  2  0
 29 24  1  0
 15 16  1  0
M  CHG 1  10  -1
M  CHG 1  13  -1
M  END
> <UniqueID>
50

> <SMILES>
C=c1c(=Cc2[n-]c(=O)[n-]c2O)cc(C)n1-c1cccc(N2CC=CCC2)c1C

> <Energy>
133.53438299635226

> <Genealogy>
C=c1c(=Cc2[n-]c(=O)[n-]c2O)cc(C)n1-c1cccc(N2CC=CCC2)c1C (protonated)
C=c1c(=Cc2[n-]c(=O)[n-]c2O)cc(C)n1-c1cccc(N2CC=CCC2)c1C (3D coordinates assigned)
C=c1c(=Cc2[n-]c(=O)[n-]c2O)cc(C)n1-c1cccc(N2CC=CCC2)c1C (nonaromatic ring conformer: 133.53438299635226 kcal/mol)

> <smiles>
C=c1c(=Cc2[nH]c(=O)[nH]c2O)cc(C)n1-c1cccc(N2CC=CCC2)c1C

> <score_type>
oracle

> <origin>
adg

> <m_score__min__energy>
-14.33

> <m_primary>
energy

> <minimizedAffinity>
-9.11797

> <minimizedRMSD>
1.33306

> <CNNscore>
0.2111063451

> <CNNaffinity>
6.5786128044

> <CNN_VS>
1.3887869120

> <CNNaffinity_variance>
0.0616453104

$$$$
58:0


 25 27  0  0  0  0  0  0  0  0999 V2000
   59.5733   29.1707   45.8227 N   0  0  0  0  0  0  0  0  0  0  0  0
   58.5385   29.6802   45.1118 C   0  0  0  0  0  0  0  0  0  0  0  0
   58.2541   31.1405   44.9218 C   0  0  0  0  0  0  0  0  0  0  0  0
   57.7307   28.6697   44.6381 C   0  0  0  0  0  0  0  0  0  0  0  0
   58.3089   27.4756   45.0297 C   0  0  0  0  0  0  0  0  0  0  0  0
   57.8207   26.2766   44.6581 C   0  0  0  0  0  0  0  0  0  0  0  0
   59.4248   27.8161   45.8128 C   0  0  0  0  0  0  0  0  0  0  0  0
   60.1544   26.9767   46.5661 C   0  0  0  0  0  0  0  0  0  0  0  0
   57.3536   25.2180   45.5690 C   0  0  0  0  0  0  0  0  0  0  0  0
   58.0002   24.0587   45.7934 N   0  0  0  0  0  0  0  0  0  0  0  0
   57.1381   23.3682   46.5707 C   0  0  0  0  0  0  0  0  0  0  0  0
   57.3961   22.2172   47.0115 O   0  0  0  0  0  0  0  0  0  0  0  0
   55.9741   24.0013   46.8300 N   0  0  0  0  0  0  0  0  0  0  0  0
   56.1226   25.1645   46.1751 C   0  0  0  0  0  0  0  0  0  0  0  0
   55.1502   26.1557   46.1309 O   0  0  0  0  0  0  0  0  0  0  0  0
   60.5906   29.9721   46.5271 C   0  0  0  0  0  0  0  0  0  0  0  0
   58.8857   30.6016   49.8870 C   0  0  0  0  0  0  0  0  0  0  0  0
   58.8720   32.0077   49.9227 C   0  0  0  0  0  0  0  0  0  0  0  0
   59.4251   32.7415   48.8711 C   0  0  0  0  0  0  0  0  0  0  0  0
   59.9848   32.0853   47.7726 C   0  0  0  0  0  0  0  0  0  0  0  0
   59.9886   30.6829   47.7126 C   0  0  0  0  0  0  0  0  0  0  0  0
   59.4237   29.9509   48.7706 C   0  0  0  0  0  0  0  0  0  0  0  0
   58.3100   29.8083   50.9345 N   0  0  0  0  0  0  0  0  0  0  0  0
   57.4530   30.2714   51.9843 C   0  0  0  0  0  0  0  0  0  0  0  0
   56.2381   29.9412   52.0325 O   0  0  0  0  0  0  0  0  0  0  0  0
 24 25  2  0
 24 23  1  0
 23 17  1  0
 17 18  2  0
 18 19  1  0
 19 20  2  0
 20 21  1  0
 21 16  1  0
 16  1  1  0
  1  2  1  0
  2  3  1  0
  2  4  2  0
  4  5  1  0
  5  6  2  0
  6  9  1  0
  9 10  1  0
 10 11  1  0
 11 12  2  0
 11 13  1  0
 13 14  1  0
 14 15  1  0
  5  7  1  0
  7  8  2  0
 21 22  2  0
 22 17  1  0
  7  1  1  0
 14  9  2  0
M  CHG 1  10  -1
M  CHG 1  13  -1
M  CHG 1  15  -1
M  CHG 1  23  -1
M  END
> <UniqueID>
51

> <SMILES>
C=c1/c(=C\c2[n-]c(=O)[n-]c2[O-])cc(C)n1Cc1cccc([N-]C=O)c1

> <Energy>
113.02775679840398

> <Genealogy>
C=c1c(=Cc2[n-]c(=O)[n-]c2[O-])cc(C)n1Cc1cccc([N-]C=O)c1 (protonated)
C=c1/c(=C\c2[n-]c(=O)[n-]c2[O-])cc(C)n1Cc1cccc([N-]C=O)c1 (cis-trans isomerization)
C=c1/c(=C\c2[n-]c(=O)[n-]c2[O-])cc(C)n1Cc1cccc([N-]C=O)c1 (3D coordinates assigned)
C=c1/c(=C\c2[n-]c(=O)[n-]c2[O-])cc(C)n1Cc1cccc([N-]C=O)c1 (optimized conformer: 113.02775679840398 kcal/mol)

> <smiles>
C=c1c(=Cc2[nH]c(=O)[nH]c2O)cc(C)n1Cc1cccc(NC=O)c1

> <score_type>
oracle

> <origin>
adg

> <m_score__min__energy>
-16.190000000000001

> <m_primary>
energy

> <minimizedAffinity>
-7.46089

> <minimizedRMSD>
0.75678

> <CNNscore>
0.1851579845

> <CNNaffinity>
6.3378372192

> <CNN_VS>
1.1735011339

> <CNNaffinity_variance>
0.1018590406

$$$$
64:0


 29 31  0  0  0  0  0  0  0  0999 V2000
   58.4511   29.8150   46.4985 C   0  0  0  0  0  0  0  0  0  0  0  0
   58.6675   30.5624   47.6019 C   0  0  0  0  0  0  0  0  0  0  0  0
   58.0172   30.4281   45.2146 C   0  0  0  0  0  0  0  0  0  0  0  0
   58.8195   31.4002   44.5944 C   0  0  0  0  0  0  0  0  0  0  0  0
   58.4319   31.9613   43.3746 C   0  0  0  0  0  0  0  0  0  0  0  0
   57.2364   31.5650   42.7703 C   0  0  0  0  0  0  0  0  0  0  0  0
   56.4246   30.6085   43.3847 C   0  0  0  0  0  0  0  0  0  0  0  0
   56.8087   30.0382   44.6037 C   0  0  0  0  0  0  0  0  0  0  0  0
   55.9946   29.0759   45.1927 O   0  0  0  0  0  0  0  0  0  0  0  0
   58.1901   27.4848   45.6679 C   0  0  0  0  0  0  0  0  0  0  0  0
   58.6153   28.3407   46.6076 C   0  0  0  0  0  0  0  0  0  0  0  0
   55.4419   26.5454   45.9712 O   0  0  0  0  0  0  0  0  0  0  0  0
   56.4993   25.6530   46.1242 C   0  0  0  0  0  0  0  0  0  0  0  0
   56.2319   24.3481   46.3976 N   0  0  0  0  0  0  0  0  0  0  0  0
   57.2283   23.4344   46.5084 C   0  0  0  0  0  0  0  0  0  0  0  0
   56.9538   22.2340   46.7644 O   0  0  0  0  0  0  0  0  0  0  0  0
   58.5191   23.8129   46.3369 N   0  0  0  0  0  0  0  0  0  0  0  0
   58.8436   25.1033   46.0672 C   0  0  0  0  0  0  0  0  0  0  0  0
   60.0557   25.4140   45.9160 O   0  0  0  0  0  0  0  0  0  0  0  0
   57.8333   26.0779   45.9715 C   0  0  0  0  0  0  0  0  0  0  0  0
   54.5593   26.2485   46.0758 H   0  0  0  0  0  0  0  0  0  0  0  0
   59.1678   31.9552   47.5956 C   0  0  0  0  0  0  0  0  0  0  0  0
   58.3329   32.8886   47.7342 O   0  0  0  0  0  0  0  0  0  0  0  0
   60.6057   32.2870   47.4754 C   0  0  0  0  0  0  0  0  0  0  0  0
   61.0197   33.5016   46.9001 C   0  0  0  0  0  0  0  0  0  0  0  0
   62.3791   33.8156   46.8148 C   0  0  0  0  0  0  0  0  0  0  0  0
   63.3369   32.9164   47.2893 C   0  0  0  0  0  0  0  0  0  0  0  0
   62.9362   31.6983   47.8447 C   0  0  0  0  0  0  0  0  0  0  0  0
   61.5783   31.3807   47.9325 C   0  0  0  0  0  0  0  0  0  0  0  0
 12 13  1  0
 13 14  1  0
 14 15  1  0
 15 16  2  0
 15 17  1  0
 17 18  1  0
 18 19  2  0
 18 20  1  0
 20 10  1  0
 10 11  2  0
 11  1  1  0
  1  2  2  0
  2 22  1  0
 22 23  2  0
 22 24  1  0
 24 25  2  0
 25 26  1  0
 26 27  2  0
 27 28  1  0
 28 29  2  0
  1  3  1  0
  3  4  2  0
  4  5  1  0
  5  6  2  0
  6  7  1  0
  7  8  2  0
  8  9  1  0
 20 13  2  0
 29 24  1  0
  8  3  1  0
 12 21  1  0
M  CHG 1   9  -1
M  CHG 1  14  -1
M  CHG 1  17  -1
M  END
> <UniqueID>
57

> <SMILES>
O=C(C=C(/C=C/c1c(O)[n-]c(=O)[n-]c1=O)c1ccccc1[O-])c1ccccc1

> <Energy>
62.79792548488908

> <Genealogy>
O=C(C=C(C=Cc1c(O)[n-]c(=O)[n-]c1=O)c1ccccc1[O-])c1ccccc1 (protonated)
O=C(C=C(/C=C/c1c(O)[n-]c(=O)[n-]c1=O)c1ccccc1[O-])c1ccccc1 (cis-trans isomerization)
O=C(C=C(/C=C/c1c(O)[n-]c(=O)[n-]c1=O)c1ccccc1[O-])c1ccccc1 (3D coordinates assigned)
O=C(C=C(/C=C/c1c(O)[n-]c(=O)[n-]c1=O)c1ccccc1[O-])c1ccccc1 (optimized conformer: 62.79792548488908 kcal/mol)

> <smiles>
O=C(C=C(C=Cc1c(O)[nH]c(=O)[nH]c1=O)c1ccccc1O)c1ccccc1

> <score_type>
oracle

> <origin>
adg

> <m_score__min__energy>
-16.27

> <m_primary>
energy

> <minimizedAffinity>
-7.48575

> <minimizedRMSD>
0.72039

> <CNNscore>
0.2754818797

> <CNNaffinity>
6.4763717651

> <CNN_VS>
1.7841230631

> <CNNaffinity_variance>
0.0997445658

$$$$
66:0


 23 25  0  0  0  0  0  0  0  0999 V2000
   57.6332   25.8740   43.1580 O   0  0  0  0  0  0  0  0  0  0  0  0
   57.9684   25.7038   44.3644 C   0  0  0  0  0  0  0  0  0  0  0  0
   58.4594   26.8216   45.1340 N   0  0  0  0  0  0  0  0  0  0  0  0
   58.1288   28.1924   44.7102 C   0  0  0  0  0  0  0  0  0  0  0  0
   58.0489   29.1142   45.9306 C   0  0  0  0  0  0  0  0  0  0  0  0
   59.3590   29.1146   46.7625 C   0  0  0  0  0  0  0  0  0  0  0  0
   60.2295   27.8564   46.5241 C   0  0  0  0  0  0  0  0  0  0  0  0
   59.3725   26.6114   46.2712 C   0  0  0  0  0  0  0  0  0  0  0  0
   57.8145   24.3305   44.9640 C   0  0  0  0  0  0  0  0  0  0  0  0
   56.3709   24.0556   45.2562 C   0  0  0  0  0  0  0  0  0  0  0  0
   55.4491   23.7766   44.3153 N   0  0  0  0  0  0  0  0  0  0  0  0
   54.3081   23.6571   45.0291 C   0  0  0  0  0  0  0  0  0  0  0  0
   53.2008   23.3908   44.4948 O   0  0  0  0  0  0  0  0  0  0  0  0
   54.4443   23.8531   46.3594 N   0  0  0  0  0  0  0  0  0  0  0  0
   55.7581   24.1086   46.4844 C   0  0  0  0  0  0  0  0  0  0  0  0
   56.3789   24.3896   47.6955 O   0  0  0  0  0  0  0  0  0  0  0  0
   60.1695   30.4291   46.6215 C   0  0  0  0  0  0  0  0  0  0  0  0
   61.0439   30.7621   47.8116 C   0  0  0  0  0  0  0  0  0  0  0  0
   60.7833   30.1987   49.0728 C   0  0  0  0  0  0  0  0  0  0  0  0
   61.5867   30.5220   50.1699 C   0  0  0  0  0  0  0  0  0  0  0  0
   62.6666   31.3922   50.0149 C   0  0  0  0  0  0  0  0  0  0  0  0
   62.9454   31.9431   48.7622 C   0  0  0  0  0  0  0  0  0  0  0  0
   62.1426   31.6263   47.6623 C   0  0  0  0  0  0  0  0  0  0  0  0
  1  2  2  0
  2  9  1  0
  9 10  1  0
 10 11  1  0
 11 12  1  0
 12 13  2  0
 12 14  1  0
 14 15  1  0
 15 16  1  0
  2  3  1  0
  3  4  1  0
  4  5  1  0
  5  6  1  0
  6 17  1  0
 17 18  1  0
 18 19  2  0
 19 20  1  0
 20 21  2  0
 21 22  1  0
 22 23  2  0
  6  7  1  0
  7  8  1  0
 15 10  2  0
  8  3  1  0
 23 18  1  0
M  CHG 1  11  -1
M  CHG 1  14  -1
M  CHG 1  16  -1
M  END
> <UniqueID>
59

> <SMILES>
O=C(Cc1[n-]c(=O)[n-]c1[O-])N1CCC(Cc2ccccc2)CC1

> <Energy>
73.18665866688413

> <Genealogy>
O=C(Cc1[n-]c(=O)[n-]c1[O-])N1CCC(Cc2ccccc2)CC1 (protonated)
O=C(Cc1[n-]c(=O)[n-]c1[O-])N1CCC(Cc2ccccc2)CC1 (3D coordinates assigned)
O=C(Cc1[n-]c(=O)[n-]c1[O-])N1CCC(Cc2ccccc2)CC1 (nonaromatic ring conformer: 73.18665866688413 kcal/mol)

> <smiles>
O=C(Cc1[nH]c(=O)[nH]c1O)N1CCC(Cc2ccccc2)CC1

> <score_type>
oracle

> <origin>
adg

> <m_score__min__energy>
-15.25

> <m_primary>
energy

> <minimizedAffinity>
-7.14536

> <minimizedRMSD>
3.09221

> <CNNscore>
0.0743919685

> <CNNaffinity>
5.3904509544

> <CNN_VS>
0.4010062516

> <CNNaffinity_variance>
0.4402908385

$$$$
71:0


 26 28  0  0  0  0  0  0  0  0999 V2000
   58.7394   29.7375   44.4803 C   0  0  0  0  0  0  0  0  0  0  0  0
   58.7339   29.1733   45.6982 C   0  0  0  0  0  0  0  0  0  0  0  0
   58.4609   27.8311   46.0135 C   0  0  0  0  0  0  0  0  0  0  0  0
   57.9757   26.8248   45.2614 C   0  0  0  0  0  0  0  0  0  0  0  0
   58.7711   27.6779   47.3555 C   0  0  0  0  0  0  0  0  0  0  0  0
   59.1556   28.9174   47.8219 C   0  0  0  0  0  0  0  0  0  0  0  0
   59.5609   29.2140   49.2332 C   0  0  0  0  0  0  0  0  0  0  0  0
   59.1227   29.8263   46.8232 N   0  0  0  0  0  0  0  0  0  0  0  0
   57.5129   25.5212   45.7651 C   0  0  0  0  0  0  0  0  0  0  0  0
   58.2621   24.4032   45.7981 N   0  0  0  0  0  0  0  0  0  0  0  0
   57.3851   23.4539   46.1917 C   0  0  0  0  0  0  0  0  0  0  0  0
   57.7191   22.2505   46.3574 O   0  0  0  0  0  0  0  0  0  0  0  0
   56.1223   23.8912   46.3823 N   0  0  0  0  0  0  0  0  0  0  0  0
   56.2191   25.1988   46.0931 C   0  0  0  0  0  0  0  0  0  0  0  0
   55.1447   26.0782   46.1224 O   0  0  0  0  0  0  0  0  0  0  0  0
   59.5285   31.1993   46.9403 C   0  0  0  0  0  0  0  0  0  0  0  0
   58.6031   32.2276   46.7217 C   0  0  0  0  0  0  0  0  0  0  0  0
   58.9962   33.5632   46.8381 C   0  0  0  0  0  0  0  0  0  0  0  0
   60.3115   33.8789   47.1878 C   0  0  0  0  0  0  0  0  0  0  0  0
   61.2423   32.8573   47.4382 C   0  0  0  0  0  0  0  0  0  0  0  0
   60.8474   31.5177   47.2963 C   0  0  0  0  0  0  0  0  0  0  0  0
   62.6342   33.1979   47.8021 C   0  0  0  0  0  0  0  0  0  0  0  0
   63.4571   33.4571   46.8813 O   0  0  0  0  0  0  0  0  0  0  0  0
   63.0672   33.2481   49.1764 N   0  0  0  0  0  0  0  0  0  0  0  0
   62.1410   33.6707   50.2325 C   0  0  0  0  0  0  0  0  0  0  0  0
   64.4823   33.0283   49.4840 C   0  0  0  0  0  0  0  0  0  0  0  0
  1  2  2  0
  2  3  1  0
  3  4  2  0
  4  9  1  0
  9 10  1  0
 10 11  1  0
 11 12  2  0
 11 13  1  0
 13 14  1  0
 14 15  1  0
  3  5  1  0
  5  6  2  0
  6  7  1  0
  6  8  1  0
  8 16  1  0
 16 17  2  0
 17 18  1  0
 18 19  2  0
 19 20  1  0
 20 22  1  0
 22 23  2  0
 22 24  1  0
 24 25  1  0
 24 26  1  0
 20 21  2  0
  8  2  1  0
 21 16  1  0
 14  9  2  0
M  CHG 1  10  -1
M  CHG 1  13  -1
M  CHG 1  15  -1
M  END
> <UniqueID>
64

> <SMILES>
C=c1/c(=C\c2[n-]c(=O)[n-]c2[O-])cc(C)n1-c1cccc(C(=O)N(C)C)c1

> <Energy>
122.87261982560324

> <Genealogy>
C=c1c(=Cc2[n-]c(=O)[n-]c2[O-])cc(C)n1-c1cccc(C(=O)N(C)C)c1 (protonated)
C=c1/c(=C\c2[n-]c(=O)[n-]c2[O-])cc(C)n1-c1cccc(C(=O)N(C)C)c1 (cis-trans isomerization)
C=c1/c(=C\c2[n-]c(=O)[n-]c2[O-])cc(C)n1-c1cccc(C(=O)N(C)C)c1 (3D coordinates assigned)
C=c1/c(=C\c2[n-]c(=O)[n-]c2[O-])cc(C)n1-c1cccc(C(=O)N(C)C)c1 (optimized conformer: 122.87261982560324 kcal/mol)

> <smiles>
C=c1c(=Cc2[nH]c(=O)[nH]c2O)cc(C)n1-c1cccc(C(=O)N(C)C)c1

> <score_type>
oracle

> <origin>
adg

> <m_score__min__energy>
-16.050000000000001

> <m_primary>
energy

> <minimizedAffinity>
-9.02564

> <minimizedRMSD>
0.73991

> <CNNscore>
0.4969375134

> <CNNaffinity>
6.8896369934

> <CNN_VS>
3.4237191677

> <CNNaffinity_variance>
0.3876013756

$$$$
77:0


 23 25  0  0  0  0  0  0  0  0999 V2000
   54.6628   28.4742   54.9828 C   0  0  0  0  0  0  0  0  0  0  0  0
   55.2761   29.2852   54.1069 C   0  0  0  0  0  0  0  0  0  0  0  0
   54.6695   30.1190   53.1529 C   0  0  0  0  0  0  0  0  0  0  0  0
   53.3882   30.5015   53.0028 C   0  0  0  0  0  0  0  0  0  0  0  0
   55.6853   30.5471   52.3118 C   0  0  0  0  0  0  0  0  0  0  0  0
   56.8640   30.0359   52.8164 C   0  0  0  0  0  0  0  0  0  0  0  0
   58.2170   30.2450   52.2072 C   0  0  0  0  0  0  0  0  0  0  0  0
   56.6189   29.2778   53.9057 N   0  0  0  0  0  0  0  0  0  0  0  0
   57.6013   28.5259   54.6396 C   0  0  0  0  0  0  0  0  0  0  0  0
   57.9231   27.2226   54.2439 C   0  0  0  0  0  0  0  0  0  0  0  0
   58.8726   26.4924   54.9564 C   0  0  0  0  0  0  0  0  0  0  0  0
   59.4956   27.0747   56.0606 C   0  0  0  0  0  0  0  0  0  0  0  0
   59.1802   28.3452   56.4343 N   0  0  0  0  0  0  0  0  0  0  0  0
   58.2552   29.0810   55.7543 C   0  0  0  0  0  0  0  0  0  0  0  0
   57.8923   30.8767   56.3179 Br  0  0  0  0  0  0  0  0  0  0  0  0
   59.6309   28.7423   57.2143 H   0  0  0  0  0  0  0  0  0  0  0  0
   52.6764   30.6229   51.7193 C   0  0  0  0  0  0  0  0  0  0  0  0
   52.7658   29.7416   50.7067 N   0  0  0  0  0  0  0  0  0  0  0  0
   51.8478   30.1899   49.8220 C   0  0  0  0  0  0  0  0  0  0  0  0
   51.6415   29.6257   48.7172 O   0  0  0  0  0  0  0  0  0  0  0  0
   51.1613   31.2816   50.2223 N   0  0  0  0  0  0  0  0  0  0  0  0
   51.6894   31.5329   51.4310 C   0  0  0  0  0  0  0  0  0  0  0  0
   51.2721   32.5693   52.2558 O   0  0  0  0  0  0  0  0  0  0  0  0
  1  2  2  0
  2  3  1  0
  3  4  2  0
  4 17  1  0
 17 18  1  0
 18 19  1  0
 19 20  2  0
 19 21  1  0
 21 22  1  0
 22 23  1  0
  3  5  1  0
  5  6  2  0
  6  7  1  0
  6  8  1  0
  8  9  1  0
  9 10  2  0
 10 11  1  0
 11 12  2  0
 12 13  1  0
 13 14  2  0
 14 15  1  0
  8  2  1  0
 14  9  1  0
 22 17  2  0
 13 16  1  0
M  CHG 1  13   1
M  CHG 1  18  -1
M  CHG 1  21  -1
M  CHG 1  23  -1
M  END
> <UniqueID>
70

> <SMILES>
C=c1/c(=C\c2[n-]c(=O)[n-]c2[O-])cc(C)n1-c1ccc[nH+]c1Br

> <Energy>
110.39842430085677

> <Genealogy>
C=c1c(=Cc2[n-]c(=O)[n-]c2[O-])cc(C)n1-c1ccc[nH+]c1Br (protonated)
C=c1/c(=C\c2[n-]c(=O)[n-]c2[O-])cc(C)n1-c1ccc[nH+]c1Br (cis-trans isomerization)
C=c1/c(=C\c2[n-]c(=O)[n-]c2[O-])cc(C)n1-c1ccc[nH+]c1Br (3D coordinates assigned)
C=c1/c(=C\c2[n-]c(=O)[n-]c2[O-])cc(C)n1-c1ccc[nH+]c1Br (optimized conformer: 110.39842430085677 kcal/mol)

> <smiles>
C=c1c(=Cc2[nH]c(=O)[nH]c2O)cc(C)n1-c1cccnc1Br

> <score_type>
oracle

> <origin>
adg

> <m_score__min__energy>
-14.49

> <m_primary>
energy

> <minimizedAffinity>
-4.08345

> <minimizedRMSD>
1.00955

> <CNNscore>
0.1166235805

> <CNNaffinity>
4.2614703178

> <CNN_VS>
0.4969879389

> <CNNaffinity_variance>
0.4378226697

$$$$
84:0


 26 27  0  0  0  0  0  0  0  0999 V2000
   59.2288   31.3463   47.0832 C   0  0  0  0  0  0  0  0  0  0  0  0
   60.1924   30.3405   47.2520 C   0  0  0  0  0  0  0  0  0  0  0  0
   60.2124   29.2309   46.4022 C   0  0  0  0  0  0  0  0  0  0  0  0
   59.2561   29.1035   45.3873 C   0  0  0  0  0  0  0  0  0  0  0  0
   58.3244   30.1346   45.1828 C   0  0  0  0  0  0  0  0  0  0  0  0
   58.2977   31.2455   46.0351 C   0  0  0  0  0  0  0  0  0  0  0  0
   57.3526   32.2503   45.8421 O   0  0  0  0  0  0  0  0  0  0  0  0
   56.7323   32.1821   45.1431 H   0  0  0  0  0  0  0  0  0  0  0  0
   59.2533   27.8927   44.5404 C   0  0  0  0  0  0  0  0  0  0  0  0
   58.3203   26.9292   44.5831 C   0  0  0  0  0  0  0  0  0  0  0  0
   57.7939   26.2922   45.8141 C   0  0  0  0  0  0  0  0  0  0  0  0
   57.9027   26.9207   46.8990 O   0  0  0  0  0  0  0  0  0  0  0  0
   57.1060   24.9750   45.8133 C   0  0  0  0  0  0  0  0  0  0  0  0
   55.7048   24.8988   45.9125 C   0  0  0  0  0  0  0  0  0  0  0  0
   54.9337   26.0530   45.9959 O   0  0  0  0  0  0  0  0  0  0  0  0
   55.0902   23.6892   45.9533 N   0  0  0  0  0  0  0  0  0  0  0  0
   55.8041   22.5371   45.8921 C   0  0  0  0  0  0  0  0  0  0  0  0
   55.2132   21.4275   45.9408 O   0  0  0  0  0  0  0  0  0  0  0  0
   57.1543   22.5794   45.7740 N   0  0  0  0  0  0  0  0  0  0  0  0
   57.8192   23.7633   45.7255 C   0  0  0  0  0  0  0  0  0  0  0  0
   59.0721   23.7594   45.5914 O   0  0  0  0  0  0  0  0  0  0  0  0
   59.1811   32.4564   47.9955 N   0  0  0  0  0  0  0  0  0  0  0  0
   60.7866   33.7834   46.6881 C   0  0  0  0  0  0  0  0  0  0  0  0
   59.5047   33.8059   47.5142 C   0  0  0  0  0  0  0  0  0  0  0  0
   59.0139   32.1993   49.4322 C   0  0  0  0  0  0  0  0  0  0  0  0
   59.9219   33.0990   50.2669 C   0  0  0  0  0  0  0  0  0  0  0  0
 23 24  1  0
 24 22  1  0
 22 25  1  0
 25 26  1  0
 22  1  1  0
  1  2  2  0
  2  3  1  0
  3  4  2  0
  4  9  1  0
  9 10  2  0
 10 11  1  0
 11 12  2  0
 11 13  1  0
 13 14  2  0
 14 15  1  0
 14 16  1  0
 16 17  1  0
 17 18  2  0
 17 19  1  0
 19 20  1  0
 20 21  2  0
  4  5  1  0
  5  6  2  0
  6  7  1  0
  6  1  1  0
 20 13  1  0
  7  8  1  0
M  CHG 1  15  -1
M  CHG 1  16  -1
M  CHG 1  19  -1
M  END
> <UniqueID>
77

> <SMILES>
CCN(CC)c1ccc(C=CC(=O)c2c([O-])[n-]c(=O)[n-]c2=O)cc1O

> <Energy>
52.8384851616798

> <Genealogy>
CCN(CC)c1ccc(C=CC(=O)c2c([O-])[n-]c(=O)[n-]c2=O)cc1O (protonated)
CCN(CC)c1ccc(C=CC(=O)c2c([O-])[n-]c(=O)[n-]c2=O)cc1O (3D coordinates assigned)
CCN(CC)c1ccc(C=CC(=O)c2c([O-])[n-]c(=O)[n-]c2=O)cc1O (optimized conformer: 52.8384851616798 kcal/mol)

> <smiles>
CCN(CC)c1ccc(C=CC(=O)c2c(O)[nH]c(=O)[nH]c2=O)cc1O

> <score_type>
oracle

> <origin>
adg

> <m_score__min__energy>
-15.41

> <m_primary>
energy

> <minimizedAffinity>
-7.48930

> <minimizedRMSD>
2.11791

> <CNNscore>
0.4070406854

> <CNNaffinity>
6.8585534096

> <CNN_VS>
2.7917103767

> <CNNaffinity_variance>
2.1136715412

$$$$
21:0


 32 35  0  0  0  0  0  0  0  0999 V2000
   59.3591   25.8812   47.1335 C   0  0  0  0  0  0  0  0  0  0  0  0
   59.7807   27.0346   47.6866 C   0  0  0  0  0  0  0  0  0  0  0  0
   60.2279   27.2072   48.9914 C   0  0  0  0  0  0  0  0  0  0  0  0
   60.6002   28.5312   49.1113 C   0  0  0  0  0  0  0  0  0  0  0  0
   61.1787   29.1445   50.3497 C   0  0  0  0  0  0  0  0  0  0  0  0
   60.4202   29.1796   47.9381 N   0  0  0  0  0  0  0  0  0  0  0  0
   59.9235   28.2766   47.0566 C   0  0  0  0  0  0  0  0  0  0  0  0
   59.6468   28.5545   45.7729 C   0  0  0  0  0  0  0  0  0  0  0  0
   57.6681   23.6619   48.4809 O   0  0  0  0  0  0  0  0  0  0  0  0
   57.2010   24.5628   47.5290 C   0  0  0  0  0  0  0  0  0  0  0  0
   55.9221   24.6183   47.1197 N   0  0  0  0  0  0  0  0  0  0  0  0
   55.9300   25.6640   46.2670 C   0  0  0  0  0  0  0  0  0  0  0  0
   54.8963   26.0525   45.6623 O   0  0  0  0  0  0  0  0  0  0  0  0
   57.1291   26.2667   46.1190 N   0  0  0  0  0  0  0  0  0  0  0  0
   57.9422   25.5442   46.9092 C   0  0  0  0  0  0  0  0  0  0  0  0
   57.0868   23.0258   48.8490 H   0  0  0  0  0  0  0  0  0  0  0  0
   60.7184   30.5645   47.6891 C   0  0  0  0  0  0  0  0  0  0  0  0
   62.0455   31.0114   47.6856 C   0  0  0  0  0  0  0  0  0  0  0  0
   62.3325   32.3553   47.4371 C   0  0  0  0  0  0  0  0  0  0  0  0
   61.2965   33.2611   47.1961 C   0  0  0  0  0  0  0  0  0  0  0  0
   59.9584   32.8311   47.2058 C   0  0  0  0  0  0  0  0  0  0  0  0
   59.6794   31.4725   47.4382 C   0  0  0  0  0  0  0  0  0  0  0  0
   58.8595   33.8002   46.9635 C   0  0  0  0  0  0  0  0  0  0  0  0
   58.9979   35.0002   47.3257 O   0  0  0  0  0  0  0  0  0  0  0  0
   57.6665   33.4317   46.2551 N   0  0  0  0  0  0  0  0  0  0  0  0
   57.5833   32.6972   45.1798 C   0  0  0  0  0  0  0  0  0  0  0  0
   56.9848   31.4785   45.2722 N   0  0  0  0  0  0  0  0  0  0  0  0
   56.8557   30.6434   44.2048 C   0  0  0  0  0  0  0  0  0  0  0  0
   56.1777   29.3208   44.3699 C   0  0  0  0  0  0  0  0  0  0  0  0
   57.3501   31.0334   42.9556 C   0  0  0  0  0  0  0  0  0  0  0  0
   57.9831   32.2685   42.8268 C   0  0  0  0  0  0  0  0  0  0  0  0
   58.1119   33.1063   43.9367 C   0  0  0  0  0  0  0  0  0  0  0  0
  9 10  1  0
 10 11  1  0
 11 12  1  0
 12 13  2  0
 12 14  1  0
 14 15  1  0
 15  1  1  0
  1  2  2  0
  2  3  1  0
  3  4  2  0
  4  5  1  0
  4  6  1  0
  6 17  1  0
 17 18  2  0
 18 19  1  0
 19 20  2  0
 20 21  1  0
 21 23  1  0
 23 24  2  0
 23 25  1  0
 25 26  2  0
 26 27  1  0
 27 28  1  0
 28 29  1  0
 28 30  2  0
 30 31  1  0
 31 32  2  0
 21 22  2  0
  6  7  1  0
  7  8  2  0
 15 10  2  0
  7  2  1  0
 22 17  1  0
 32 26  1  0
  9 16  1  0
M  CHG 1  11  -1
M  CHG 1  14  -1
M  CHG 1  27  -1
M  END
> <UniqueID>
22

> <SMILES>
C=c1/c(=C/c2[n-]c(=O)[n-]c2O)cc(C)n1-c1cccc(C(=O)N=c2cccc(C)[n-]2)c1

> <Energy>
132.57205031992126

> <Genealogy>
C=c1c(=Cc2[n-]c(=O)[n-]c2O)cc(C)n1-c1cccc(C(=O)N=c2cccc(C)[n-]2)c1 (protonated)
C=c1/c(=C/c2[n-]c(=O)[n-]c2O)cc(C)n1-c1cccc(C(=O)N=c2cccc(C)[n-]2)c1 (cis-trans isomerization)
C=c1/c(=C/c2[n-]c(=O)[n-]c2O)cc(C)n1-c1cccc(C(=O)N=c2cccc(C)[n-]2)c1 (3D coordinates assigned)
C=c1/c(=C/c2[n-]c(=O)[n-]c2O)cc(C)n1-c1cccc(C(=O)N=c2cccc(C)[n-]2)c1 (optimized conformer: 132.57205031992126 kcal/mol)

> <smiles>
C=c1c(=Cc2[nH]c(=O)[nH]c2O)cc(C)n1-c1cccc(C(=O)N=c2cccc(C)[nH]2)c1

> <score_type>
oracle

> <origin>
adg

> <m_score__min__energy>
-15.33

> <m_primary>
energy

> <minimizedAffinity>
-8.31881

> <minimizedRMSD>
0.30873

> <CNNscore>
0.4714920223

> <CNNaffinity>
6.9877266884

> <CNN_VS>
3.2946574688

> <CNNaffinity_variance>
0.0549061336

$$$$
26:0


 29 32  0  0  0  0  0  0  0  0999 V2000
   57.2940   25.6154   47.2770 C   0  0  0  0  0  0  0  0  0  0  0  0
   57.3193   25.5632   45.9396 C   0  0  0  0  0  0  0  0  0  0  0  0
   56.7893   24.5443   45.1383 C   0  0  0  0  0  0  0  0  0  0  0  0
   56.0716   23.4764   45.5421 C   0  0  0  0  0  0  0  0  0  0  0  0
   57.0791   24.8884   43.8269 C   0  0  0  0  0  0  0  0  0  0  0  0
   57.7514   26.0932   43.8754 C   0  0  0  0  0  0  0  0  0  0  0  0
   58.2385   26.8424   42.6734 C   0  0  0  0  0  0  0  0  0  0  0  0
   57.9136   26.4964   45.1557 N   0  0  0  0  0  0  0  0  0  0  0  0
   56.5833   22.4634   46.4761 C   0  0  0  0  0  0  0  0  0  0  0  0
   56.5317   22.5966   47.8142 N   0  0  0  0  0  0  0  0  0  0  0  0
   57.1397   21.4759   48.2577 C   0  0  0  0  0  0  0  0  0  0  0  0
   57.2547   21.2101   49.4826 O   0  0  0  0  0  0  0  0  0  0  0  0
   57.5982   20.6560   47.2848 N   0  0  0  0  0  0  0  0  0  0  0  0
   57.2509   21.3048   46.1609 C   0  0  0  0  0  0  0  0  0  0  0  0
   57.5665   20.8729   44.8750 O   0  0  0  0  0  0  0  0  0  0  0  0
   58.0261   20.0658   44.7514 H   0  0  0  0  0  0  0  0  0  0  0  0
   58.5174   27.7318   45.5747 C   0  0  0  0  0  0  0  0  0  0  0  0
   59.8485   27.7448   46.0003 C   0  0  0  0  0  0  0  0  0  0  0  0
   60.4237   28.9267   46.4784 C   0  0  0  0  0  0  0  0  0  0  0  0
   59.6750   30.1163   46.5216 C   0  0  0  0  0  0  0  0  0  0  0  0
   58.3430   30.1046   46.0626 C   0  0  0  0  0  0  0  0  0  0  0  0
   57.7664   28.9189   45.5965 C   0  0  0  0  0  0  0  0  0  0  0  0
   56.4444   28.9235   45.1664 O   0  0  0  0  0  0  0  0  0  0  0  0
   60.2569   31.3186   47.0642 N   0  0  0  0  0  0  0  0  0  0  0  0
   59.6718   32.6196   46.7136 C   0  0  0  0  0  0  0  0  0  0  0  0
   60.5600   33.7530   47.2205 C   0  0  0  0  0  0  0  0  0  0  0  0
   60.8647   33.5202   48.5809 O   0  0  0  0  0  0  0  0  0  0  0  0
   61.7717   32.4340   48.7210 C   0  0  0  0  0  0  0  0  0  0  0  0
   61.5747   31.2727   47.7126 C   0  0  0  0  0  0  0  0  0  0  0  0
  1  2  2  0
  2  3  1  0
  3  4  2  0
  4  9  1  0
  9 10  1  0
 10 11  1  0
 11 12  2  0
 11 13  1  0
 13 14  1  0
 14 15  1  0
  3  5  1  0
  5  6  2  0
  6  7  1  0
  6  8  1  0
  8 17  1  0
 17 18  2  0
 18 19  1  0
 19 20  2  0
 20 24  1  0
 24 25  1  0
 25 26  1  0
 26 27  1  0
 27 28  1  0
 28 29  1  0
 20 21  1  0
 21 22  2  0
 22 23  1  0
  8  2  1  0
 22 17  1  0
 14  9  2  0
 29 24  1  0
 15 16  1  0
M  CHG 1  10  -1
M  CHG 1  13  -1
M  CHG 1  23  -1
M  END
> <UniqueID>
27

> <SMILES>
C=c1c(=Cc2[n-]c(=O)[n-]c2O)cc(C)n1-c1ccc(N2CCOCC2)cc1[O-]

> <Energy>
131.58010486363872

> <Genealogy>
C=c1c(=Cc2[n-]c(=O)[n-]c2O)cc(C)n1-c1ccc(N2CCOCC2)cc1[O-] (protonated)
C=c1c(=Cc2[n-]c(=O)[n-]c2O)cc(C)n1-c1ccc(N2CCOCC2)cc1[O-] (3D coordinates assigned)
C=c1c(=Cc2[n-]c(=O)[n-]c2O)cc(C)n1-c1ccc(N2CCOCC2)cc1[O-] (nonaromatic ring conformer: 131.58010486363872 kcal/mol)

> <smiles>
C=c1c(=Cc2[nH]c(=O)[nH]c2O)cc(C)n1-c1ccc(N2CCOCC2)cc1O

> <score_type>
oracle

> <origin>
adg

> <m_score__min__energy>
-15.58

> <m_primary>
energy

> <minimizedAffinity>
-6.84170

> <minimizedRMSD>
1.56099

> <CNNscore>
0.0822593793

> <CNNaffinity>
5.6317939758

> <CNN_VS>
0.4632678628

> <CNNaffinity_variance>
0.0386538692

$$$$
27:0


 27 29  0  0  0  0  0  0  0  0999 V2000
   56.5732   26.1195   46.0705 C   0  0  0  0  0  0  0  0  0  0  0  0
   57.7584   26.6463   46.4070 C   0  0  0  0  0  0  0  0  0  0  0  0
   58.4476   27.6756   45.7554 C   0  0  0  0  0  0  0  0  0  0  0  0
   58.0096   28.3422   44.6647 C   0  0  0  0  0  0  0  0  0  0  0  0
   59.6270   27.8688   46.4972 C   0  0  0  0  0  0  0  0  0  0  0  0
   59.5943   26.9276   47.5218 C   0  0  0  0  0  0  0  0  0  0  0  0
   60.6180   26.7553   48.6013 C   0  0  0  0  0  0  0  0  0  0  0  0
   58.4654   26.2002   47.4614 N   0  0  0  0  0  0  0  0  0  0  0  0
   58.2043   25.4757   48.0747 H   0  0  0  0  0  0  0  0  0  0  0  0
   57.6966   29.7779   44.6145 C   0  0  0  0  0  0  0  0  0  0  0  0
   58.6172   30.7521   44.5091 N   0  0  0  0  0  0  0  0  0  0  0  0
   57.8717   31.8654   44.3360 C   0  0  0  0  0  0  0  0  0  0  0  0
   58.3807   33.0096   44.2140 O   0  0  0  0  0  0  0  0  0  0  0  0
   56.5381   31.6535   44.2910 N   0  0  0  0  0  0  0  0  0  0  0  0
   56.4485   30.3236   44.4513 C   0  0  0  0  0  0  0  0  0  0  0  0
   55.2498   29.6232   44.4450 O   0  0  0  0  0  0  0  0  0  0  0  0
   60.6244   29.0077   46.4218 C   0  0  0  0  0  0  0  0  0  0  0  0
   60.5859   29.9097   47.6649 C   0  0  0  0  0  0  0  0  0  0  0  0
   61.0725   31.3075   47.3648 C   0  0  0  0  0  0  0  0  0  0  0  0
   62.2490   31.5803   47.5679 O   0  0  0  0  0  0  0  0  0  0  0  0
   60.1587   32.3321   46.8887 N   0  0  0  0  0  0  0  0  0  0  0  0
   59.0544   32.5526   47.8608 C   0  0  0  0  0  0  0  0  0  0  0  0
   59.2310   33.8639   48.6459 C   0  0  0  0  0  0  0  0  0  0  0  0
   59.2901   35.0103   47.8097 O   0  0  0  0  0  0  0  0  0  0  0  0
   59.9515   34.7843   46.5684 C   0  0  0  0  0  0  0  0  0  0  0  0
   60.9013   33.5741   46.5744 C   0  0  0  0  0  0  0  0  0  0  0  0
   60.0381   31.9651   47.7943 H   0  0  0  0  0  0  0  0  0  0  0  0
  1  2  2  0
  2  3  1  0
  3  4  2  0
  4 10  1  0
 10 11  1  0
 11 12  1  0
 12 13  2  0
 12 14  1  0
 14 15  1  0
 15 16  1  0
  3  5  1  0
  5 17  1  0
 17 18  1  0
 18 19  1  0
 19 20  2  0
 19 21  1  0
 21 22  1  0
 22 23  1  0
 23 24  1  0
 24 25  1  0
 25 26  1  0
  5  6  2  0
  6  7  1  0
  6  8  1  0
  8  2  1  0
 15 10  2  0
 26 21  1  0
 21 27  1  0
  8  9  1  0
M  CHG 1  11  -1
M  CHG 1  14  -1
M  CHG 1  16  -1
M  CHG 1  21   1
M  END
> <UniqueID>
28

> <SMILES>
C=c1[nH]c(C)c(CCC(=O)[NH+]2CCOCC2)/c1=C\c1[n-]c(=O)[n-]c1[O-]

> <Energy>
123.90534755363461

> <Genealogy>
C=c1[nH]c(C)c(CCC(=O)[NH+]2CCOCC2)c1=Cc1[n-]c(=O)[n-]c1[O-] (protonated)
C=c1[nH]c(C)c(CCC(=O)[NH+]2CCOCC2)/c1=C\c1[n-]c(=O)[n-]c1[O-] (cis-trans isomerization)
C=c1[nH]c(C)c(CCC(=O)[NH+]2CCOCC2)/c1=C\c1[n-]c(=O)[n-]c1[O-] (3D coordinates assigned)
C=c1[nH]c(C)c(CCC(=O)[NH+]2CCOCC2)/c1=C\c1[n-]c(=O)[n-]c1[O-] (nonaromatic ring conformer: 123.90534755363461 kcal/mol)

> <smiles>
C=c1[nH]c(C)c(CCC(=O)N2CCOCC2)c1=Cc1[nH]c(=O)[nH]c1O

> <score_type>
oracle

> <origin>
adg

> <m_score__min__energy>
-14.58

> <m_primary>
energy

> <minimizedAffinity>
-6.38503

> <minimizedRMSD>
0.69969

> <CNNscore>
0.1173268780

> <CNNaffinity>
5.3875808716

> <CNN_VS>
0.6321080327

> <CNNaffinity_variance>
0.2004177421

$$$$
28:0


 27 29  0  0  0  0  0  0  0  0999 V2000
   56.8677   30.0957   43.2537 C   0  0  0  0  0  0  0  0  0  0  0  0
   57.5478   31.0487   44.1979 C   0  0  0  0  0  0  0  0  0  0  0  0
   57.8404   32.3559   43.7820 C   0  0  0  0  0  0  0  0  0  0  0  0
   58.4792   33.2475   44.6472 C   0  0  0  0  0  0  0  0  0  0  0  0
   58.8225   32.8474   45.9436 C   0  0  0  0  0  0  0  0  0  0  0  0
   58.5309   31.5438   46.3656 C   0  0  0  0  0  0  0  0  0  0  0  0
   57.9162   30.6291   45.4922 C   0  0  0  0  0  0  0  0  0  0  0  0
   59.6173   33.9811   47.0401 S   0  0  0  0  0  0  0  0  0  0  0  0
   59.5839   35.3562   46.4361 O   0  0  0  0  0  0  0  0  0  0  0  0
   58.8610   34.0251   48.3392 O   0  0  0  0  0  0  0  0  0  0  0  0
   61.2756   33.5282   47.3506 N   0  0  0  0  0  0  0  0  0  0  0  0
   61.4190   32.0652   47.3481 C   0  0  0  0  0  0  0  0  0  0  0  0
   62.8857   31.6772   47.6334 C   0  0  0  0  0  0  0  0  0  0  0  0
   63.6889   32.8075   47.9258 O   0  0  0  0  0  0  0  0  0  0  0  0
   63.1236   33.5298   49.0019 C   0  0  0  0  0  0  0  0  0  0  0  0
   61.7286   34.0795   48.6376 C   0  0  0  0  0  0  0  0  0  0  0  0
   57.6106   29.2893   45.9114 N   0  0  0  0  0  0  0  0  0  0  0  0
   58.4806   28.1535   45.8398 C   0  0  0  0  0  0  0  0  0  0  0  0
   59.4782   28.0528   46.6035 O   0  0  0  0  0  0  0  0  0  0  0  0
   58.2629   27.1337   44.7700 C   0  0  0  0  0  0  0  0  0  0  0  0
   57.8369   25.8367   45.3806 C   0  0  0  0  0  0  0  0  0  0  0  0
   58.5800   24.7150   45.3674 N   0  0  0  0  0  0  0  0  0  0  0  0
   57.7769   23.8035   45.9609 C   0  0  0  0  0  0  0  0  0  0  0  0
   58.1279   22.6101   46.1446 O   0  0  0  0  0  0  0  0  0  0  0  0
   56.5678   24.2733   46.3379 N   0  0  0  0  0  0  0  0  0  0  0  0
   56.6194   25.5591   45.9571 C   0  0  0  0  0  0  0  0  0  0  0  0
   55.5747   26.4590   46.1243 O   0  0  0  0  0  0  0  0  0  0  0  0
  1  2  1  0
  2  3  2  0
  3  4  1  0
  4  5  2  0
  5  8  1  0
  8  9  2  0
  8 10  2  0
  8 11  1  0
 11 12  1  0
 12 13  1  0
 13 14  1  0
 14 15  1  0
 15 16  1  0
  5  6  1  0
  6  7  2  0
  7 17  1  0
 17 18  1  0
 18 19  2  0
 18 20  1  0
 20 21  1  0
 21 22  1  0
 22 23  1  0
 23 24  2  0
 23 25  1  0
 25 26  1  0
 26 27  1  0
  7  2  1  0
 26 21  2  0
 16 11  1  0
M  CHG 1  17  -1
M  CHG 1  22  -1
M  CHG 1  25  -1
M  CHG 1  27  -1
M  END
> <UniqueID>
29

> <SMILES>
Cc1ccc(S(=O)(=O)N2CCOCC2)cc1[N-]C(=O)Cc1[n-]c(=O)[n-]c1[O-]

> <Energy>
81.01233651136664

> <Genealogy>
Cc1ccc(S(=O)(=O)N2CCOCC2)cc1[N-]C(=O)Cc1[n-]c(=O)[n-]c1[O-] (protonated)
Cc1ccc(S(=O)(=O)N2CCOCC2)cc1[N-]C(=O)Cc1[n-]c(=O)[n-]c1[O-] (3D coordinates assigned)
Cc1ccc(S(=O)(=O)N2CCOCC2)cc1[N-]C(=O)Cc1[n-]c(=O)[n-]c1[O-] (nonaromatic ring conformer: 81.01233651136664 kcal/mol)

> <smiles>
Cc1ccc(S(=O)(=O)N2CCOCC2)cc1NC(=O)Cc1[nH]c(=O)[nH]c1O

> <score_type>
oracle

> <origin>
adg

> <m_score__min__energy>
-18.18

> <m_primary>
energy

> <minimizedAffinity>
-7.49800

> <minimizedRMSD>
0.80063

> <CNNscore>
0.4668024778

> <CNNaffinity>
6.5563216209

> <CNN_VS>
3.0605070591

> <CNNaffinity_variance>
0.1093737260

$$$$
39:0


 25 27  0  0  0  0  0  0  0  0999 V2000
   57.2820   29.3403   53.0818 O   0  0  0  0  0  0  0  0  0  0  0  0
   56.9772   29.8407   54.1980 C   0  0  0  0  0  0  0  0  0  0  0  0
   55.8178   29.5833   54.8432 N   0  0  0  0  0  0  0  0  0  0  0  0
   55.8714   30.3016   55.9850 C   0  0  0  0  0  0  0  0  0  0  0  0
   57.0816   30.9634   56.0065 C   0  0  0  0  0  0  0  0  0  0  0  0
   57.5326   31.7939   57.0258 O   0  0  0  0  0  0  0  0  0  0  0  0
   57.7750   30.6843   54.8860 N   0  0  0  0  0  0  0  0  0  0  0  0
   54.6991   28.7686   54.3774 C   0  0  0  0  0  0  0  0  0  0  0  0
   53.7904   29.5941   53.5095 C   0  0  0  0  0  0  0  0  0  0  0  0
   54.1721   29.9210   52.1975 C   0  0  0  0  0  0  0  0  0  0  0  0
   53.3106   30.6536   51.3757 C   0  0  0  0  0  0  0  0  0  0  0  0
   52.0587   31.0552   51.8517 C   0  0  0  0  0  0  0  0  0  0  0  0
   51.2069   31.7841   51.0292 O   0  0  0  0  0  0  0  0  0  0  0  0
   51.6647   30.7206   53.1540 C   0  0  0  0  0  0  0  0  0  0  0  0
   50.4195   31.1119   53.6290 O   0  0  0  0  0  0  0  0  0  0  0  0
   52.5267   29.9877   53.9779 C   0  0  0  0  0  0  0  0  0  0  0  0
   59.1289   31.1215   54.5434 C   0  0  0  0  0  0  0  0  0  0  0  0
   59.1293   32.5722   54.0476 C   0  0  0  0  0  0  0  0  0  0  0  0
   59.4275   32.6522   52.5735 C   0  0  0  0  0  0  0  0  0  0  0  0
   58.5111   32.1454   51.6381 C   0  0  0  0  0  0  0  0  0  0  0  0
   58.8084   32.1743   50.2723 C   0  0  0  0  0  0  0  0  0  0  0  0
   60.0262   32.7014   49.8306 C   0  0  0  0  0  0  0  0  0  0  0  0
   60.3213   32.7258   48.4739 O   0  0  0  0  0  0  0  0  0  0  0  0
   60.9465   33.2006   50.7568 C   0  0  0  0  0  0  0  0  0  0  0  0
   60.6516   33.1762   52.1234 C   0  0  0  0  0  0  0  0  0  0  0  0
  1  2  2  0
  2  3  1  0
  3  8  1  0
  8  9  1  0
  9 10  2  0
 10 11  1  0
 11 12  2  0
 12 13  1  0
 12 14  1  0
 14 15  1  0
 14 16  2  0
  3  4  1  0
  4  5  2  0
  5  6  1  0
  5  7  1  0
  7 17  1  0
 17 18  1  0
 18 19  1  0
 19 20  2  0
 20 21  1  0
 21 22  2  0
 22 23  1  0
 22 24  1  0
 24 25  2  0
  7  2  1  0
 25 19  1  0
 16  9  1  0
M  CHG 1   6  -1
M  CHG 1  13  -1
M  CHG 1  15  -1
M  CHG 1  23  -1
M  END
> <UniqueID>
39

> <SMILES>
O=c1n(Cc2ccc([O-])c([O-])c2)cc([O-])n1CCc1ccc([O-])cc1

> <Energy>
70.0933553641695

> <Genealogy>
O=c1n(Cc2ccc([O-])c([O-])c2)cc([O-])n1CCc1ccc([O-])cc1 (protonated)
O=c1n(Cc2ccc([O-])c([O-])c2)cc([O-])n1CCc1ccc([O-])cc1 (3D coordinates assigned)
O=c1n(Cc2ccc([O-])c([O-])c2)cc([O-])n1CCc1ccc([O-])cc1 (optimized conformer: 70.0933553641695 kcal/mol)

> <smiles>
O=c1n(Cc2ccc(O)c(O)c2)cc(O)n1CCc1ccc(O)cc1

> <score_type>
oracle

> <origin>
adg

> <m_score__min__energy>
-17.010000000000002

> <m_primary>
energy

> <minimizedAffinity>
-5.04759

> <minimizedRMSD>
2.47949

> <CNNscore>
0.4210897386

> <CNNaffinity>
4.9231677055

> <CNN_VS>
2.0730953217

> <CNNaffinity_variance>
0.0542076714

$$$$
41:0


 24 26  0  0  0  0  0  0  0  0999 V2000
   60.4563   30.0679   48.0075 C   0  0  0  0  0  0  0  0  0  0  0  0
   59.7257   30.6479   47.0427 C   0  0  0  0  0  0  0  0  0  0  0  0
   59.1563   30.0444   45.9110 C   0  0  0  0  0  0  0  0  0  0  0  0
   59.2770   28.7976   45.4087 C   0  0  0  0  0  0  0  0  0  0  0  0
   58.3877   31.0560   45.3436 C   0  0  0  0  0  0  0  0  0  0  0  0
   57.5532   30.9638   44.1044 C   0  0  0  0  0  0  0  0  0  0  0  0
   58.5170   32.1895   46.0570 N   0  0  0  0  0  0  0  0  0  0  0  0
   59.3304   31.9464   47.0722 N   0  0  0  0  0  0  0  0  0  0  0  0
   58.4413   27.6415   45.7858 C   0  0  0  0  0  0  0  0  0  0  0  0
   57.0568   27.6353   45.5458 C   0  0  0  0  0  0  0  0  0  0  0  0
   56.4416   28.7066   44.9082 O   0  0  0  0  0  0  0  0  0  0  0  0
   56.3058   26.5757   45.9434 N   0  0  0  0  0  0  0  0  0  0  0  0
   56.8673   25.5211   46.5883 C   0  0  0  0  0  0  0  0  0  0  0  0
   56.1530   24.5490   46.9445 O   0  0  0  0  0  0  0  0  0  0  0  0
   58.1986   25.5172   46.8560 N   0  0  0  0  0  0  0  0  0  0  0  0
   58.9930   26.5527   46.4785 C   0  0  0  0  0  0  0  0  0  0  0  0
   60.2233   26.5188   46.7493 O   0  0  0  0  0  0  0  0  0  0  0  0
   59.6285   32.9563   48.0900 C   0  0  0  0  0  0  0  0  0  0  0  0
   61.1161   33.1217   48.2496 C   0  0  0  0  0  0  0  0  0  0  0  0
   61.7075   33.1082   49.5244 C   0  0  0  0  0  0  0  0  0  0  0  0
   63.0901   33.2693   49.6619 C   0  0  0  0  0  0  0  0  0  0  0  0
   63.8902   33.4435   48.5303 C   0  0  0  0  0  0  0  0  0  0  0  0
   63.3124   33.4544   47.2593 C   0  0  0  0  0  0  0  0  0  0  0  0
   61.9309   33.2920   47.1163 C   0  0  0  0  0  0  0  0  0  0  0  0
  1  2  2  0
  2  3  1  0
  3  4  2  0
  4  9  1  0
  9 10  2  0
 10 11  1  0
 10 12  1  0
 12 13  1  0
 13 14  2  0
 13 15  1  0
 15 16  1  0
 16 17  2  0
  3  5  1  0
  5  6  1  0
  5  7  2  0
  7  8  1  0
  8 18  1  0
 18 19  1  0
 19 20  2  0
 20 21  1  0
 21 22  2  0
 22 23  1  0
 23 24  2  0
  8  2  1  0
 24 19  1  0
 16  9  1  0
M  CHG 1  11  -1
M  CHG 1  12  -1
M  CHG 1  15  -1
M  END
> <UniqueID>
41

> <SMILES>
C=c1/c(=C\c2c([O-])[n-]c(=O)[n-]c2=O)c(C)nn1Cc1ccccc1

> <Energy>
84.87833219900531

> <Genealogy>
C=c1c(=Cc2c([O-])[n-]c(=O)[n-]c2=O)c(C)nn1Cc1ccccc1 (protonated)
C=c1/c(=C\c2c([O-])[n-]c(=O)[n-]c2=O)c(C)nn1Cc1ccccc1 (cis-trans isomerization)
C=c1/c(=C\c2c([O-])[n-]c(=O)[n-]c2=O)c(C)nn1Cc1ccccc1 (3D coordinates assigned)
C=c1/c(=C\c2c([O-])[n-]c(=O)[n-]c2=O)c(C)nn1Cc1ccccc1 (optimized conformer: 84.87833219900531 kcal/mol)

> <smiles>
C=c1c(=Cc2c(O)[nH]c(=O)[nH]c2=O)c(C)nn1Cc1ccccc1

> <score_type>
oracle

> <origin>
adg

> <m_score__min__energy>
-15.970000000000001

> <m_primary>
energy

> <minimizedAffinity>
-7.77664

> <minimizedRMSD>
1.33111

> <CNNscore>
0.5161955357

> <CNNaffinity>
6.6854882240

> <CNN_VS>
3.4510192871

> <CNNaffinity_variance>
0.3923999369

$$$$
43:0


 28 30  0  0  0  0  0  0  0  0999 V2000
   58.1366   30.5777   45.4472 C   0  0  0  0  0  0  0  0  0  0  0  0
   57.7662   31.5530   44.5027 C   0  0  0  0  0  0  0  0  0  0  0  0
   58.0796   32.8973   44.7148 C   0  0  0  0  0  0  0  0  0  0  0  0
   58.7629   33.2861   45.8694 C   0  0  0  0  0  0  0  0  0  0  0  0
   59.1405   32.3297   46.8190 C   0  0  0  0  0  0  0  0  0  0  0  0
   58.8294   30.9791   46.6039 C   0  0  0  0  0  0  0  0  0  0  0  0
   59.9997   32.8367   48.2707 S   0  0  0  0  0  0  0  0  0  0  0  0
   59.0943   32.7007   49.4638 O   0  0  0  0  0  0  0  0  0  0  0  0
   60.3975   34.2799   48.1327 O   0  0  0  0  0  0  0  0  0  0  0  0
   61.4286   31.8676   48.5137 N   0  0  0  0  0  0  0  0  0  0  0  0
   62.6223   32.1679   47.7208 C   0  0  0  0  0  0  0  0  0  0  0  0
   61.4222   30.7492   49.4273 C   0  0  0  0  0  0  0  0  0  0  0  0
   62.2160   30.7704   50.5900 C   0  0  0  0  0  0  0  0  0  0  0  0
   62.2238   29.6791   51.4661 C   0  0  0  0  0  0  0  0  0  0  0  0
   61.4431   28.5540   51.1913 C   0  0  0  0  0  0  0  0  0  0  0  0
   61.4512   27.4722   52.0626 O   0  0  0  0  0  0  0  0  0  0  0  0
   60.6540   28.5183   50.0394 C   0  0  0  0  0  0  0  0  0  0  0  0
   60.6423   29.6063   49.1616 C   0  0  0  0  0  0  0  0  0  0  0  0
   57.7963   29.1504   45.2325 C   0  0  0  0  0  0  0  0  0  0  0  0
   57.2143   28.7982   44.1697 O   0  0  0  0  0  0  0  0  0  0  0  0
   59.2998   24.8159   45.9842 C   0  0  0  0  0  0  0  0  0  0  0  0
   59.2867   26.1709   46.1073 N   0  0  0  0  0  0  0  0  0  0  0  0
   58.1242   26.8830   46.1244 C   0  0  0  0  0  0  0  0  0  0  0  0
   58.1285   28.1805   46.2423 N   0  0  0  0  0  0  0  0  0  0  0  0
   56.9000   26.2063   46.0106 C   0  0  0  0  0  0  0  0  0  0  0  0
   55.6971   26.9063   46.0203 O   0  0  0  0  0  0  0  0  0  0  0  0
   56.8926   24.8155   45.8849 C   0  0  0  0  0  0  0  0  0  0  0  0
   58.0993   24.1128   45.8704 C   0  0  0  0  0  0  0  0  0  0  0  0
 21 22  1  0
 22 23  1  0
 23 24  2  0
 24 19  1  0
 19 20  2  0
 19  1  1  0
  1  2  2  0
  2  3  1  0
  3  4  2  0
  4  5  1  0
  5  7  1  0
  7  8  2  0
  7  9  2  0
  7 10  1  0
 10 12  1  0
 12 13  2  0
 13 14  1  0
 14 15  2  0
 15 16  1  0
 15 17  1  0
 17 18  2  0
 10 11  1  0
  5  6  2  0
 23 25  1  0
 25 26  1  0
 25 27  2  0
 27 28  1  0
 28 21  2  0
  6  1  1  0
 18 12  1  0
M  CHG 1  16  -1
M  CHG 1  22  -1
M  CHG 1  26  -1
M  END
> <UniqueID>
43

> <SMILES>
CN(c1ccc([O-])cc1)S(=O)(=O)c1cccc(C(=O)/N=c2\[n-]cccc2[O-])c1

> <Energy>
53.144325764983016

> <Genealogy>
CN(c1ccc([O-])cc1)S(=O)(=O)c1cccc(C(=O)N=c2[n-]cccc2[O-])c1 (protonated)
CN(c1ccc([O-])cc1)S(=O)(=O)c1cccc(C(=O)/N=c2\[n-]cccc2[O-])c1 (cis-trans isomerization)
CN(c1ccc([O-])cc1)S(=O)(=O)c1cccc(C(=O)/N=c2\[n-]cccc2[O-])c1 (3D coordinates assigned)
CN(c1ccc([O-])cc1)S(=O)(=O)c1cccc(C(=O)/N=c2\[n-]cccc2[O-])c1 (optimized conformer: 53.144325764983016 kcal/mol)

> <smiles>
CN(c1ccc(O)cc1)S(=O)(=O)c1cccc(C(=O)N=c2[nH]cccc2O)c1

> <score_type>
oracle

> <origin>
adg

> <m_score__min__energy>
-15.51

> <m_primary>
energy

> <minimizedAffinity>
-7.48127

> <minimizedRMSD>
2.50827

> <CNNscore>
0.4634493291

> <CNNaffinity>
6.4514222145

> <CNN_VS>
2.9899072647

> <CNNaffinity_variance>
0.0972786769

$$$$
69:0


 34 37  0  0  0  0  0  0  0  0999 V2000
   58.6912   29.6895   53.1983 C   0  0  0  0  0  0  0  0  0  0  0  0
   59.3941   29.7266   54.4080 C   0  0  0  0  0  0  0  0  0  0  0  0
   60.7522   29.6764   54.4176 N   0  0  0  0  0  0  0  0  0  0  0  0
   61.4725   29.5640   53.2636 C   0  0  0  0  0  0  0  0  0  0  0  0
   60.8051   29.5410   52.0300 C   0  0  0  0  0  0  0  0  0  0  0  0
   59.4029   29.6093   51.9921 C   0  0  0  0  0  0  0  0  0  0  0  0
   61.2282   29.7223   55.2781 H   0  0  0  0  0  0  0  0  0  0  0  0
   56.9838   32.0399   52.6479 C   0  0  0  0  0  0  0  0  0  0  0  0
   56.4811   30.8193   52.8881 C   0  0  0  0  0  0  0  0  0  0  0  0
   55.1285   30.4660   53.0177 C   0  0  0  0  0  0  0  0  0  0  0  0
   54.0031   31.1642   52.7638 C   0  0  0  0  0  0  0  0  0  0  0  0
   55.1102   29.1620   53.4852 C   0  0  0  0  0  0  0  0  0  0  0  0
   56.4220   28.7441   53.5569 C   0  0  0  0  0  0  0  0  0  0  0  0
   56.8569   27.3837   54.0135 C   0  0  0  0  0  0  0  0  0  0  0  0
   57.2541   29.7485   53.2010 N   0  0  0  0  0  0  0  0  0  0  0  0
   53.0014   30.8320   51.7403 C   0  0  0  0  0  0  0  0  0  0  0  0
   53.2090   29.9325   50.7618 N   0  0  0  0  0  0  0  0  0  0  0  0
   52.1027   30.0456   49.9944 C   0  0  0  0  0  0  0  0  0  0  0  0
   51.9143   29.3410   48.9696 O   0  0  0  0  0  0  0  0  0  0  0  0
   51.2197   30.9815   50.4052 N   0  0  0  0  0  0  0  0  0  0  0  0
   51.8104   31.4814   51.5020 C   0  0  0  0  0  0  0  0  0  0  0  0
   51.2857   32.5256   52.2528 O   0  0  0  0  0  0  0  0  0  0  0  0
   62.9506   29.5020   53.3203 C   0  0  0  0  0  0  0  0  0  0  0  0
   63.5754   30.4171   53.9208 O   0  0  0  0  0  0  0  0  0  0  0  0
   63.6868   28.4179   52.7202 N   0  0  0  0  0  0  0  0  0  0  0  0
   63.1582   27.0504   52.7001 C   0  0  0  0  0  0  0  0  0  0  0  0
   64.2928   26.0630   52.9882 C   0  0  0  0  0  0  0  0  0  0  0  0
   65.3837   26.2813   52.1123 O   0  0  0  0  0  0  0  0  0  0  0  0
   65.9508   27.5553   52.3602 C   0  0  0  0  0  0  0  0  0  0  0  0
   64.9539   28.6711   52.0291 C   0  0  0  0  0  0  0  0  0  0  0  0
   58.6890   29.5517   50.7851 O   0  0  0  0  0  0  0  0  0  0  0  0
   59.0322   30.2293   49.6102 C   0  0  0  0  0  0  0  0  0  0  0  0
   59.0856   31.7191   49.6195 C   0  0  0  0  0  0  0  0  0  0  0  0
   59.3972   29.6016   48.5791 O   0  0  0  0  0  0  0  0  0  0  0  0
  8  9  2  0
  9 10  1  0
 10 11  2  0
 11 16  1  0
 16 17  1  0
 17 18  1  0
 18 19  2  0
 18 20  1  0
 20 21  1  0
 21 22  1  0
 10 12  1  0
 12 13  2  0
 13 14  1  0
 13 15  1  0
 15  1  1  0
  1  2  2  0
  2  3  1  0
  3  4  2  0
  4 23  1  0
 23 24  2  0
 23 25  1  0
 25 26  1  0
 26 27  1  0
 27 28  1  0
 28 29  1  0
 29 30  1  0
  4  5  1  0
  5  6  2  0
  6 31  1  0
 31 32  1  0
 32 33  1  0
 32 34  2  0
 15  9  1  0
  6  1  1  0
 21 16  2  0
 30 25  1  0
  3  7  1  0
M  CHG 1   3   1
M  CHG 1  17  -1
M  CHG 1  20  -1
M  CHG 1  22  -1
M  END
> <UniqueID>
66

> <SMILES>
C=c1c(=Cc2[n-]c(=O)[n-]c2[O-])cc(C)n1-c1c[nH+]c(C(=O)N2CCOCC2)cc1OC(C)=O

> <Energy>
141.47865138680643

> <Genealogy>
C=c1c(=Cc2[n-]c(=O)[n-]c2[O-])cc(C)n1-c1c[nH+]c(C(=O)N2CCOCC2)cc1OC(C)=O (protonated)
C=c1c(=Cc2[n-]c(=O)[n-]c2[O-])cc(C)n1-c1c[nH+]c(C(=O)N2CCOCC2)cc1OC(C)=O (3D coordinates assigned)
C=c1c(=Cc2[n-]c(=O)[n-]c2[O-])cc(C)n1-c1c[nH+]c(C(=O)N2CCOCC2)cc1OC(C)=O (nonaromatic ring conformer: 141.47865138680643 kcal/mol)

> <smiles>
C=c1c(=Cc2[nH]c(=O)[nH]c2O)cc(C)n1-c1cnc(C(=O)N2CCOCC2)cc1OC(C)=O

> <score_type>
oracle

> <origin>
adg

> <m_score__min__energy>
-15.24

> <m_primary>
energy

> <minimizedAffinity>
-4.39205

> <minimizedRMSD>
1.63513

> <CNNscore>
0.0905725658

> <CNNaffinity>
5.0801877975

> <CNN_VS>
0.4601256549

> <CNNaffinity_variance>
0.3639903367

$$$$
70:0


 32 35  0  0  0  0  0  0  0  0999 V2000
   57.5988   28.2677   45.6435 N   0  0  0  0  0  0  0  0  0  0  0  0
   57.8765   29.5382   45.6763 C   0  0  0  0  0  0  0  0  0  0  0  0
   57.5749   30.3633   44.6497 N   0  0  0  0  0  0  0  0  0  0  0  0
   58.0163   31.6291   44.8729 C   0  0  0  0  0  0  0  0  0  0  0  0
   58.6895   31.8042   46.0762 C   0  0  0  0  0  0  0  0  0  0  0  0
   58.7314   30.3377   46.8953 S   0  0  0  0  0  0  0  0  0  0  0  0
   59.4375   33.2934   46.6365 S   0  0  0  0  0  0  0  0  0  0  0  0
   59.8414   34.1220   45.4464 O   0  0  0  0  0  0  0  0  0  0  0  0
   58.4267   34.0717   47.4345 O   0  0  0  0  0  0  0  0  0  0  0  0
   60.8283   32.9726   47.6456 N   0  0  0  0  0  0  0  0  0  0  0  0
   62.0656   33.3218   46.9328 C   0  0  0  0  0  0  0  0  0  0  0  0
   63.2512   32.7346   47.6969 C   0  0  0  0  0  0  0  0  0  0  0  0
   63.0696   32.8842   49.1462 N   0  0  0  0  0  0  0  0  0  0  0  0
   62.0642   33.8169   49.6747 C   0  0  0  0  0  0  0  0  0  0  0  0
   60.7187   33.7063   48.9236 C   0  0  0  0  0  0  0  0  0  0  0  0
   64.0758   32.3599   50.0291 C   0  0  0  0  0  0  0  0  0  0  0  0
   65.3438   32.9623   50.0804 C   0  0  0  0  0  0  0  0  0  0  0  0
   66.3330   32.4487   50.9246 C   0  0  0  0  0  0  0  0  0  0  0  0
   66.0627   31.3364   51.7269 C   0  0  0  0  0  0  0  0  0  0  0  0
   64.8036   30.7320   51.6813 C   0  0  0  0  0  0  0  0  0  0  0  0
   63.8078   31.2411   50.8400 C   0  0  0  0  0  0  0  0  0  0  0  0
   62.5524   30.6428   50.8247 O   0  0  0  0  0  0  0  0  0  0  0  0
   59.6743   27.2310   45.5957 O   0  0  0  0  0  0  0  0  0  0  0  0
   58.4863   27.2045   46.0119 C   0  0  0  0  0  0  0  0  0  0  0  0
   58.0200   26.0451   46.8542 C   0  0  0  0  0  0  0  0  0  0  0  0
   57.4894   24.9297   45.9888 C   0  0  0  0  0  0  0  0  0  0  0  0
   58.3681   23.9384   45.5186 C   0  0  0  0  0  0  0  0  0  0  0  0
   57.8889   22.8805   44.7388 C   0  0  0  0  0  0  0  0  0  0  0  0
   56.5300   22.8001   44.4266 C   0  0  0  0  0  0  0  0  0  0  0  0
   55.6464   23.7725   44.8995 C   0  0  0  0  0  0  0  0  0  0  0  0
   56.1158   24.8334   45.6831 C   0  0  0  0  0  0  0  0  0  0  0  0
   55.2135   25.7823   46.1534 O   0  0  0  0  0  0  0  0  0  0  0  0
 23 24  2  0
 24 25  1  0
 25 26  1  0
 26 27  2  0
 27 28  1  0
 28 29  2  0
 29 30  1  0
 30 31  2  0
 31 32  1  0
 24  1  1  0
  1  2  2  0
  2  3  1  0
  3  4  1  0
  4  5  2  0
  5  7  1  0
  7  8  2  0
  7  9  2  0
  7 10  1  0
 10 11  1  0
 11 12  1  0
 12 13  1  0
 13 16  1  0
 16 17  2  0
 17 18  1  0
 18 19  2  0
 19 20  1  0
 20 21  2  0
 21 22  1  0
 13 14  1  0
 14 15  1  0
  5  6  1  0
 31 26  1  0
  6  2  1  0
 15 10  1  0
 21 16  1  0
M  CHG 1   3  -1
M  CHG 1  22  -1
M  CHG 1  32  -1
M  END
> <UniqueID>
67

> <SMILES>
O=C(Cc1ccccc1[O-])N=c1[n-]cc(S(=O)(=O)N2CCN(c3ccccc3[O-])CC2)s1

> <Energy>
100.59244730160572

> <Genealogy>
O=C(Cc1ccccc1[O-])N=c1[n-]cc(S(=O)(=O)N2CCN(c3ccccc3[O-])CC2)s1 (protonated)
O=C(Cc1ccccc1[O-])N=c1[n-]cc(S(=O)(=O)N2CCN(c3ccccc3[O-])CC2)s1 (3D coordinates assigned)
O=C(Cc1ccccc1[O-])N=c1[n-]cc(S(=O)(=O)N2CCN(c3ccccc3[O-])CC2)s1 (nonaromatic ring conformer: 100.59244730160572 kcal/mol)

> <smiles>
O=C(Cc1ccccc1O)N=c1[nH]cc(S(=O)(=O)N2CCN(c3ccccc3O)CC2)s1

> <score_type>
oracle

> <origin>
adg

> <m_score__min__energy>
-16.460000000000001

> <m_primary>
energy

> <minimizedAffinity>
-8.93002

> <minimizedRMSD>
0.94508

> <CNNscore>
0.4068006575

> <CNNaffinity>
6.7633690834

> <CNN_VS>
2.7513430119

> <CNNaffinity_variance>
0.0185007602

$$$$
71:0


 35 38  0  0  0  0  0  0  0  0999 V2000
   59.6959   29.8504   47.3274 C   0  0  0  0  0  0  0  0  0  0  0  0
   60.9207   30.4476   47.0016 C   0  0  0  0  0  0  0  0  0  0  0  0
   61.5771   31.2604   47.9310 C   0  0  0  0  0  0  0  0  0  0  0  0
   61.0151   31.4910   49.1975 C   0  0  0  0  0  0  0  0  0  0  0  0
   59.7901   30.8835   49.5214 C   0  0  0  0  0  0  0  0  0  0  0  0
   59.1339   30.0740   48.5910 C   0  0  0  0  0  0  0  0  0  0  0  0
   59.6383   26.8769   47.1840 C   0  0  0  0  0  0  0  0  0  0  0  0
   58.9855   27.6698   46.3193 C   0  0  0  0  0  0  0  0  0  0  0  0
   58.2082   27.2542   45.2328 C   0  0  0  0  0  0  0  0  0  0  0  0
   57.9761   25.9877   44.8335 C   0  0  0  0  0  0  0  0  0  0  0  0
   57.7743   28.4110   44.5997 C   0  0  0  0  0  0  0  0  0  0  0  0
   58.2747   29.4727   45.3270 C   0  0  0  0  0  0  0  0  0  0  0  0
   58.0679   30.9160   44.9780 C   0  0  0  0  0  0  0  0  0  0  0  0
   59.0141   29.0256   46.3658 N   0  0  0  0  0  0  0  0  0  0  0  0
   57.3175   24.9666   45.6678 C   0  0  0  0  0  0  0  0  0  0  0  0
   57.9407   23.8564   46.1007 N   0  0  0  0  0  0  0  0  0  0  0  0
   57.0158   23.2637   46.8867 C   0  0  0  0  0  0  0  0  0  0  0  0
   57.2275   22.1711   47.4751 O   0  0  0  0  0  0  0  0  0  0  0  0
   55.8534   23.9390   47.0042 N   0  0  0  0  0  0  0  0  0  0  0  0
   56.0643   25.0217   46.2379 C   0  0  0  0  0  0  0  0  0  0  0  0
   55.1479   26.0589   46.1081 O   0  0  0  0  0  0  0  0  0  0  0  0
   61.6996   32.3137   50.1606 N   0  0  0  0  0  0  0  0  0  0  0  0
   61.6112   31.9807   51.5924 C   0  0  0  0  0  0  0  0  0  0  0  0
   62.6372   32.7702   52.4133 C   0  0  0  0  0  0  0  0  0  0  0  0
   63.9244   32.7947   51.7032 N   0  0  0  0  0  0  0  0  0  0  0  0
   65.1500   32.4422   52.3641 C   0  0  0  0  0  0  0  0  0  0  0  0
   66.1754   33.1549   52.1933 O   0  0  0  0  0  0  0  0  0  0  0  0
   63.9740   33.2311   50.3006 C   0  0  0  0  0  0  0  0  0  0  0  0
   62.5652   33.4201   49.7248 C   0  0  0  0  0  0  0  0  0  0  0  0
   65.2587   31.1952   53.2018 C   0  0  0  0  0  0  0  0  0  0  0  0
   65.6173   29.9851   52.3716 C   0  0  0  0  0  0  0  0  0  0  0  0
   64.6950   29.3285   51.8089 O   0  0  0  0  0  0  0  0  0  0  0  0
   66.9812   29.5191   52.2687 N   0  0  0  0  0  0  0  0  0  0  0  0
   68.0605   30.1796   53.0112 C   0  0  0  0  0  0  0  0  0  0  0  0
   67.2757   28.3561   51.4251 C   0  0  0  0  0  0  0  0  0  0  0  0
  7  8  2  0
  8  9  1  0
  9 10  2  0
 10 15  1  0
 15 16  1  0
 16 17  1  0
 17 18  2  0
 17 19  1  0
 19 20  1  0
 20 21  1  0
  9 11  1  0
 11 12  2  0
 12 13  1  0
 12 14  1  0
 14  1  1  0
  1  2  2  0
  2  3  1  0
  3  4  2  0
  4 22  1  0
 22 23  1  0
 23 24  1  0
 24 25  1  0
 25 26  1  0
 26 27  2  0
 26 30  1  0
 30 31  1  0
 31 32  2  0
 31 33  1  0
 33 34  1  0
 33 35  1  0
 25 28  1  0
 28 29  1  0
  4  5  1  0
  5  6  2  0
 14  8  1  0
  6  1  1  0
 20 15  2  0
 29 22  1  0
M  CHG 1  16  -1
M  CHG 1  19  -1
M  CHG 1  21  -1
M  END
> <UniqueID>
68

> <SMILES>
C=c1/c(=C/c2[n-]c(=O)[n-]c2[O-])cc(C)n1-c1ccc(N2CCN(C(=O)CC(=O)N(C)C)CC2)cc1

> <Energy>
140.78621261208988

> <Genealogy>
C=c1c(=Cc2[n-]c(=O)[n-]c2[O-])cc(C)n1-c1ccc(N2CCN(C(=O)CC(=O)N(C)C)CC2)cc1 (protonated)
C=c1/c(=C/c2[n-]c(=O)[n-]c2[O-])cc(C)n1-c1ccc(N2CCN(C(=O)CC(=O)N(C)C)CC2)cc1 (cis-trans isomerization)
C=c1/c(=C/c2[n-]c(=O)[n-]c2[O-])cc(C)n1-c1ccc(N2CCN(C(=O)CC(=O)N(C)C)CC2)cc1 (3D coordinates assigned)
C=c1/c(=C/c2[n-]c(=O)[n-]c2[O-])cc(C)n1-c1ccc(N2CCN(C(=O)CC(=O)N(C)C)CC2)cc1 (nonaromatic ring conformer: 140.78621261208988 kcal/mol)

> <smiles>
C=c1c(=Cc2[nH]c(=O)[nH]c2O)cc(C)n1-c1ccc(N2CCN(C(=O)CC(=O)N(C)C)CC2)cc1

> <score_type>
oracle

> <origin>
adg

> <m_score__min__energy>
-16.890000000000001

> <m_primary>
energy

> <minimizedAffinity>
-8.47920

> <minimizedRMSD>
1.19696

> <CNNscore>
0.1554099321

> <CNNaffinity>
6.4587073326

> <CNN_VS>
1.0037472248

> <CNNaffinity_variance>
0.3106673658

$$$$
73:0


 33 36  0  0  0  0  0  0  0  0999 V2000
   58.7345   28.5759   45.6117 C   0  0  0  0  0  0  0  0  0  0  0  0
   60.0233   28.9004   46.0509 C   0  0  0  0  0  0  0  0  0  0  0  0
   60.3505   30.2220   46.3631 C   0  0  0  0  0  0  0  0  0  0  0  0
   59.3820   31.2357   46.2675 C   0  0  0  0  0  0  0  0  0  0  0  0
   58.1051   30.9140   45.7746 C   0  0  0  0  0  0  0  0  0  0  0  0
   57.7776   29.5915   45.4621 C   0  0  0  0  0  0  0  0  0  0  0  0
   56.4940   29.2876   45.0203 O   0  0  0  0  0  0  0  0  0  0  0  0
   57.5713   23.8443   46.1762 C   0  0  0  0  0  0  0  0  0  0  0  0
   57.8711   25.0309   45.6128 C   0  0  0  0  0  0  0  0  0  0  0  0
   57.8501   25.3286   44.2545 C   0  0  0  0  0  0  0  0  0  0  0  0
   58.1821   26.6637   44.1381 C   0  0  0  0  0  0  0  0  0  0  0  0
   58.2515   27.4211   42.8463 C   0  0  0  0  0  0  0  0  0  0  0  0
   58.3879   27.2055   45.3577 N   0  0  0  0  0  0  0  0  0  0  0  0
   58.1998   26.2209   46.2708 C   0  0  0  0  0  0  0  0  0  0  0  0
   58.3072   26.3998   47.5964 C   0  0  0  0  0  0  0  0  0  0  0  0
   54.9038   25.3925   45.8777 O   0  0  0  0  0  0  0  0  0  0  0  0
   55.0188   24.0469   46.2182 C   0  0  0  0  0  0  0  0  0  0  0  0
   53.9686   23.2307   46.4010 N   0  0  0  0  0  0  0  0  0  0  0  0
   54.5565   22.0391   46.6409 C   0  0  0  0  0  0  0  0  0  0  0  0
   53.8970   20.9905   46.8605 O   0  0  0  0  0  0  0  0  0  0  0  0
   55.9059   22.0592   46.6161 N   0  0  0  0  0  0  0  0  0  0  0  0
   56.1968   23.3477   46.3706 C   0  0  0  0  0  0  0  0  0  0  0  0
   54.0566   25.7844   45.7964 H   0  0  0  0  0  0  0  0  0  0  0  0
   59.7054   32.6533   46.6911 C   0  0  0  0  0  0  0  0  0  0  0  0
   59.4126   32.9311   48.1179 N   0  0  0  0  0  0  0  0  0  0  0  0
   60.1944   34.0444   48.7099 C   0  0  0  0  0  0  0  0  0  0  0  0
   61.3314   33.5384   49.6127 C   0  0  0  0  0  0  0  0  0  0  0  0
   60.8361   32.6315   50.7820 C   0  0  0  0  0  0  0  0  0  0  0  0
   59.4252   32.0561   50.4442 C   0  0  0  0  0  0  0  0  0  0  0  0
   59.3171   31.7130   48.9561 C   0  0  0  0  0  0  0  0  0  0  0  0
   61.8483   31.5698   51.0761 N   0  0  0  0  0  0  0  0  0  0  0  0
   62.1109   31.4199   52.5235 C   0  0  0  0  0  0  0  0  0  0  0  0
   63.1329   31.8682   50.4037 C   0  0  0  0  0  0  0  0  0  0  0  0
 16 17  1  0
 17 18  1  0
 18 19  1  0
 19 20  2  0
 19 21  1  0
 21 22  1  0
 22  8  1  0
  8  9  2  0
  9 10  1  0
 10 11  2  0
 11 12  1  0
 11 13  1  0
 13  1  1  0
  1  2  2  0
  2  3  1  0
  3  4  2  0
  4 24  1  0
 24 25  1  0
 25 26  1  0
 26 27  1  0
 27 28  1  0
 28 31  1  0
 31 32  1  0
 31 33  1  0
 28 29  1  0
 29 30  1  0
  4  5  1  0
  5  6  2  0
  6  7  1  0
 13 14  1  0
 14 15  2  0
 22 17  2  0
 14  9  1  0
  6  1  1  0
 30 25  1  0
 16 23  1  0
M  CHG 1   7  -1
M  CHG 1  18  -1
M  CHG 1  21  -1
M  END
> <UniqueID>
70

> <SMILES>
C=c1/c(=C/c2[n-]c(=O)[n-]c2O)cc(C)n1-c1ccc(CN2CCC(N(C)C)CC2)cc1[O-]

> <Energy>
150.41947706762062

> <Genealogy>
C=c1c(=Cc2[n-]c(=O)[n-]c2O)cc(C)n1-c1ccc(CN2CCC(N(C)C)CC2)cc1[O-] (protonated)
C=c1/c(=C/c2[n-]c(=O)[n-]c2O)cc(C)n1-c1ccc(CN2CCC(N(C)C)CC2)cc1[O-] (cis-trans isomerization)
C=c1/c(=C/c2[n-]c(=O)[n-]c2O)cc(C)n1-c1ccc(CN2CCC(N(C)C)CC2)cc1[O-] (3D coordinates assigned)
C=c1/c(=C/c2[n-]c(=O)[n-]c2O)cc(C)n1-c1ccc(CN2CCC(N(C)C)CC2)cc1[O-] (nonaromatic ring conformer: 150.41947706762062 kcal/mol)

> <smiles>
C=c1c(=Cc2[nH]c(=O)[nH]c2O)cc(C)n1-c1ccc(CN2CCC(N(C)C)CC2)cc1O

> <score_type>
oracle

> <origin>
adg

> <m_score__min__energy>
-16.210000000000001

> <m_primary>
energy

> <minimizedAffinity>
-7.63884

> <minimizedRMSD>
2.51075

> <CNNscore>
0.0868183896

> <CNNaffinity>
6.2472481728

> <CNN_VS>
0.5423760414

> <CNNaffinity_variance>
0.0061269053

$$$$
80:0


 32 34  0  0  0  0  0  0  0  0999 V2000
   57.7916   31.4961   43.2175 C   0  0  0  0  0  0  0  0  0  0  0  0
   58.1733   31.7133   44.4869 C   0  0  0  0  0  0  0  0  0  0  0  0
   57.9170   32.9472   44.9840 N   0  0  0  0  0  0  0  0  0  0  0  0
   58.2642   33.3241   46.2334 C   0  0  0  0  0  0  0  0  0  0  0  0
   58.0101   34.5019   46.6045 O   0  0  0  0  0  0  0  0  0  0  0  0
   58.8799   32.4409   47.0728 N   0  0  0  0  0  0  0  0  0  0  0  0
   59.1750   31.1723   46.6370 C   0  0  0  0  0  0  0  0  0  0  0  0
   59.7107   30.3633   47.4447 O   0  0  0  0  0  0  0  0  0  0  0  0
   58.8516   30.7571   45.3091 C   0  0  0  0  0  0  0  0  0  0  0  0
   59.1478   29.5033   44.8514 C   0  0  0  0  0  0  0  0  0  0  0  0
   58.7069   28.2309   45.4617 C   0  0  0  0  0  0  0  0  0  0  0  0
   59.6556   27.4007   46.0747 C   0  0  0  0  0  0  0  0  0  0  0  0
   59.2584   26.2103   46.6864 C   0  0  0  0  0  0  0  0  0  0  0  0
   57.9082   25.8456   46.7086 C   0  0  0  0  0  0  0  0  0  0  0  0
   57.5322   24.6547   47.3185 O   0  0  0  0  0  0  0  0  0  0  0  0
   56.9448   26.6831   46.1221 C   0  0  0  0  0  0  0  0  0  0  0  0
   55.5923   26.3435   46.1425 O   0  0  0  0  0  0  0  0  0  0  0  0
   57.3430   27.8796   45.5088 C   0  0  0  0  0  0  0  0  0  0  0  0
   56.3828   28.7175   44.9507 O   0  0  0  0  0  0  0  0  0  0  0  0
   55.3155   25.5463   46.5497 H   0  0  0  0  0  0  0  0  0  0  0  0
   59.2728   32.8674   48.4323 C   0  0  0  0  0  0  0  0  0  0  0  0
   60.3629   33.9405   48.3552 C   0  0  0  0  0  0  0  0  0  0  0  0
   61.6539   33.4290   48.9381 C   0  0  0  0  0  0  0  0  0  0  0  0
   62.4878   32.5959   48.1807 C   0  0  0  0  0  0  0  0  0  0  0  0
   63.7019   32.1486   48.7066 C   0  0  0  0  0  0  0  0  0  0  0  0
   64.1052   32.5363   49.9978 C   0  0  0  0  0  0  0  0  0  0  0  0
   63.2820   33.3825   50.7563 C   0  0  0  0  0  0  0  0  0  0  0  0
   62.0589   33.8301   50.2188 C   0  0  0  0  0  0  0  0  0  0  0  0
   65.3172   32.1063   50.5600 O   0  0  0  0  0  0  0  0  0  0  0  0
   66.5525   32.8035   50.4423 C   0  0  0  0  0  0  0  0  0  0  0  0
   63.7146   33.7590   52.0386 O   0  0  0  0  0  0  0  0  0  0  0  0
   63.1812   33.2449   53.2541 C   0  0  0  0  0  0  0  0  0  0  0  0
  1  2  2  0
  2  3  1  0
  3  4  1  0
  4  5  2  0
  4  6  1  0
  6 21  1  0
 21 22  1  0
 22 23  1  0
 23 24  2  0
 24 25  1  0
 25 26  2  0
 26 29  1  0
 29 30  1  0
 26 27  1  0
 27 31  1  0
 31 32  1  0
 27 28  2  0
  6  7  1  0
  7  8  2  0
  7  9  1  0
  9 10  2  0
 10 11  1  0
 11 12  2  0
 12 13  1  0
 13 14  2  0
 14 15  1  0
 14 16  1  0
 16 17  1  0
 16 18  2  0
 18 19  1  0
  9  2  1  0
 18 11  1  0
 28 23  1  0
 17 20  1  0
M  CHG 1   3  -1
M  CHG 1  15  -1
M  CHG 1  19  -1
M  END
> <UniqueID>
77

> <SMILES>
C=c1[n-]c(=O)n(CCc2ccc(OC)c(OC)c2)c(=O)c1=Cc1ccc([O-])c(O)c1[O-]

> <Energy>
74.70919378642056

> <Genealogy>
C=c1[n-]c(=O)n(CCc2ccc(OC)c(OC)c2)c(=O)c1=Cc1ccc([O-])c(O)c1[O-] (protonated)
C=c1[n-]c(=O)n(CCc2ccc(OC)c(OC)c2)c(=O)c1=Cc1ccc([O-])c(O)c1[O-] (3D coordinates assigned)
C=c1[n-]c(=O)n(CCc2ccc(OC)c(OC)c2)c(=O)c1=Cc1ccc([O-])c(O)c1[O-] (optimized conformer: 74.70919378642056 kcal/mol)

> <smiles>
C=c1[nH]c(=O)n(CCc2ccc(OC)c(OC)c2)c(=O)c1=Cc1ccc(O)c(O)c1O

> <score_type>
oracle

> <origin>
adg

> <m_score__min__energy>
-15.92

> <m_primary>
energy

> <minimizedAffinity>
-8.58984

> <minimizedRMSD>
1.25774

> <CNNscore>
0.7777183652

> <CNNaffinity>
7.1381893158

> <CNN_VS>
5.5515007973

> <CNNaffinity_variance>
0.1614991128

$$$$
81:0


 30 32  0  0  0  0  0  0  0  0999 V2000
   59.3513   32.1984   48.6197 C   0  0  0  0  0  0  0  0  0  0  0  0
   59.3917   33.4187   47.9264 C   0  0  0  0  0  0  0  0  0  0  0  0
   59.1211   33.4623   46.5560 C   0  0  0  0  0  0  0  0  0  0  0  0
   58.8166   32.2873   45.8638 C   0  0  0  0  0  0  0  0  0  0  0  0
   58.7939   31.0595   46.5375 C   0  0  0  0  0  0  0  0  0  0  0  0
   59.0655   31.0175   47.9120 C   0  0  0  0  0  0  0  0  0  0  0  0
   58.4740   29.8504   45.8285 N   0  0  0  0  0  0  0  0  0  0  0  0
   57.7724   29.7761   44.6754 C   0  0  0  0  0  0  0  0  0  0  0  0
   57.2427   30.9555   43.9168 C   0  0  0  0  0  0  0  0  0  0  0  0
   57.6528   28.4628   44.2680 C   0  0  0  0  0  0  0  0  0  0  0  0
   58.2984   27.6845   45.2247 C   0  0  0  0  0  0  0  0  0  0  0  0
   58.4481   26.3420   45.2168 C   0  0  0  0  0  0  0  0  0  0  0  0
   58.7998   28.5810   46.1791 C   0  0  0  0  0  0  0  0  0  0  0  0
   59.5169   28.2682   47.2692 C   0  0  0  0  0  0  0  0  0  0  0  0
   57.6591   25.3860   46.0230 C   0  0  0  0  0  0  0  0  0  0  0  0
   58.1018   24.2149   46.5150 N   0  0  0  0  0  0  0  0  0  0  0  0
   57.0144   23.6948   47.1219 C   0  0  0  0  0  0  0  0  0  0  0  0
   57.0342   22.5872   47.7164 O   0  0  0  0  0  0  0  0  0  0  0  0
   55.9015   24.4571   47.0411 N   0  0  0  0  0  0  0  0  0  0  0  0
   56.3260   25.5185   46.3385 C   0  0  0  0  0  0  0  0  0  0  0  0
   55.5115   26.5919   45.9949 O   0  0  0  0  0  0  0  0  0  0  0  0
   60.9412   32.4769   50.5936 N   0  0  0  0  0  0  0  0  0  0  0  0
   59.6379   32.1563   50.0720 C   0  0  0  0  0  0  0  0  0  0  0  0
   58.7118   31.8437   50.8680 O   0  0  0  0  0  0  0  0  0  0  0  0
   61.2642   32.0951   51.9697 C   0  0  0  0  0  0  0  0  0  0  0  0
   62.0018   33.0049   49.7197 C   0  0  0  0  0  0  0  0  0  0  0  0
   62.8532   31.8740   49.1223 C   0  0  0  0  0  0  0  0  0  0  0  0
   63.9510   32.8203   47.1983 O   0  0  0  0  0  0  0  0  0  0  0  0
   62.9419   31.9323   47.5942 C   0  0  0  0  0  0  0  0  0  0  0  0
   63.9961   32.8474   46.2298 H   0  0  0  0  0  0  0  0  0  0  0  0
 28 29  1  0
 29 27  1  0
 27 26  1  0
 26 22  1  0
 22 23  1  0
 23 24  2  0
 23  1  1  0
  1  2  2  0
  2  3  1  0
  3  4  2  0
  4  5  1  0
  5  7  1  0
  7  8  1  0
  8  9  1  0
  8 10  2  0
 10 11  1  0
 11 12  2  0
 12 15  1  0
 15 16  1  0
 16 17  1  0
 17 18  2  0
 17 19  1  0
 19 20  1  0
 20 21  1  0
 11 13  1  0
 13 14  2  0
  5  6  2  0
 22 25  1  0
  6  1  1  0
 13  7  1  0
 20 15  2  0
 28 30  1  0
M  CHG 1  16  -1
M  CHG 1  19  -1
M  CHG 1  21  -1
M  END
> <UniqueID>
78

> <SMILES>
C=c1/c(=C/c2[n-]c(=O)[n-]c2[O-])cc(C)n1-c1cccc(C(=O)N(C)CCCO)c1

> <Energy>
118.33604872543894

> <Genealogy>
C=c1c(=Cc2[n-]c(=O)[n-]c2[O-])cc(C)n1-c1cccc(C(=O)N(C)CCCO)c1 (protonated)
C=c1/c(=C/c2[n-]c(=O)[n-]c2[O-])cc(C)n1-c1cccc(C(=O)N(C)CCCO)c1 (cis-trans isomerization)
C=c1/c(=C/c2[n-]c(=O)[n-]c2[O-])cc(C)n1-c1cccc(C(=O)N(C)CCCO)c1 (3D coordinates assigned)
C=c1/c(=C/c2[n-]c(=O)[n-]c2[O-])cc(C)n1-c1cccc(C(=O)N(C)CCCO)c1 (optimized conformer: 118.33604872543894 kcal/mol)

> <smiles>
C=c1c(=Cc2[nH]c(=O)[nH]c2O)cc(C)n1-c1cccc(C(=O)N(C)CCCO)c1

> <score_type>
oracle

> <origin>
adg

> <m_score__min__energy>
-15.93

> <m_primary>
energy

> <minimizedAffinity>
-7.98478

> <minimizedRMSD>
0.74613

> <CNNscore>
0.3649008274

> <CNNaffinity>
6.8735470772

> <CNN_VS>
2.5081629753

> <CNNaffinity_variance>
0.1279088706

$$$$
2:0


 29 32  0  0  0  0  0  0  0  0999 V2000
   56.9445   27.9818   45.2840 C   0  0  0  0  0  0  0  0  0  0  0  0
   57.8923   27.0686   45.5492 C   0  0  0  0  0  0  0  0  0  0  0  0
   57.8799   25.6993   45.2237 C   0  0  0  0  0  0  0  0  0  0  0  0
   57.0137   24.9664   44.4979 C   0  0  0  0  0  0  0  0  0  0  0  0
   59.0173   25.1551   45.7988 C   0  0  0  0  0  0  0  0  0  0  0  0
   59.6923   26.1886   46.4122 C   0  0  0  0  0  0  0  0  0  0  0  0
   60.9986   26.0461   47.1335 C   0  0  0  0  0  0  0  0  0  0  0  0
   59.0196   27.3487   46.2542 N   0  0  0  0  0  0  0  0  0  0  0  0
   56.2235   23.8243   44.9944 C   0  0  0  0  0  0  0  0  0  0  0  0
   55.0037   24.0205   45.6645 C   0  0  0  0  0  0  0  0  0  0  0  0
   54.5296   25.3036   45.9122 O   0  0  0  0  0  0  0  0  0  0  0  0
   54.2761   22.9503   46.0722 N   0  0  0  0  0  0  0  0  0  0  0  0
   54.6982   21.6823   45.8301 C   0  0  0  0  0  0  0  0  0  0  0  0
   54.0087   20.7047   46.2206 O   0  0  0  0  0  0  0  0  0  0  0  0
   55.8600   21.4672   45.1598 N   0  0  0  0  0  0  0  0  0  0  0  0
   56.6247   22.5051   44.7318 C   0  0  0  0  0  0  0  0  0  0  0  0
   57.6937   22.2707   44.1067 O   0  0  0  0  0  0  0  0  0  0  0  0
   59.4162   28.6197   46.7979 C   0  0  0  0  0  0  0  0  0  0  0  0
   59.0500   28.9704   48.1033 C   0  0  0  0  0  0  0  0  0  0  0  0
   59.4215   30.2116   48.6311 C   0  0  0  0  0  0  0  0  0  0  0  0
   60.1675   31.1242   47.8589 C   0  0  0  0  0  0  0  0  0  0  0  0
   60.5197   30.7656   46.5443 C   0  0  0  0  0  0  0  0  0  0  0  0
   60.1470   29.5257   46.0199 C   0  0  0  0  0  0  0  0  0  0  0  0
   60.5572   32.4122   48.3858 N   0  0  0  0  0  0  0  0  0  0  0  0
   60.4160   32.7488   49.8109 C   0  0  0  0  0  0  0  0  0  0  0  0
   61.2215   34.0152   50.1195 C   0  0  0  0  0  0  0  0  0  0  0  0
   62.5930   33.9631   49.4235 C   0  0  0  0  0  0  0  0  0  0  0  0
   62.4884   33.4383   47.9717 C   0  0  0  0  0  0  0  0  0  0  0  0
   61.1410   33.3315   47.5649 O   0  0  0  0  0  0  0  0  0  0  0  0
  1  2  2  0
  2  3  1  0
  3  4  2  0
  4  9  1  0
  9 10  2  0
 10 11  1  0
 10 12  1  0
 12 13  1  0
 13 14  2  0
 13 15  1  0
 15 16  1  0
 16 17  2  0
  3  5  1  0
  5  6  2  0
  6  7  1  0
  6  8  1  0
  8 18  1  0
 18 19  2  0
 19 20  1  0
 20 21  2  0
 21 24  1  0
 24 25  1  0
 25 26  1  0
 26 27  1  0
 27 28  1  0
 28 29  1  0
 21 22  1  0
 22 23  2  0
  8  2  1  0
 23 18  1  0
 16  9  1  0
 29 24  1  0
M  CHG 1  11  -1
M  CHG 1  12  -1
M  CHG 1  15  -1
M  END
> <UniqueID>
2

> <SMILES>
C=c1c(=Cc2c([O-])[n-]c(=O)[n-]c2=O)cc(C)n1-c1ccc(N2CCCCO2)cc1

> <Energy>
105.50719770769142

> <Genealogy>
C=c1c(=Cc2c([O-])[n-]c(=O)[n-]c2=O)cc(C)n1-c1ccc(N2CCCCO2)cc1 (protonated)
C=c1c(=Cc2c([O-])[n-]c(=O)[n-]c2=O)cc(C)n1-c1ccc(N2CCCCO2)cc1 (3D coordinates assigned)
C=c1c(=Cc2c([O-])[n-]c(=O)[n-]c2=O)cc(C)n1-c1ccc(N2CCCCO2)cc1 (nonaromatic ring conformer: 105.50719770769142 kcal/mol)

> <smiles>
C=c1c(=Cc2c(O)[nH]c(=O)[nH]c2=O)cc(C)n1-c1ccc(N2CCCCO2)cc1

> <score_type>
oracle

> <origin>
adg

> <m_score__min__energy>
-15.890000000000001

> <m_primary>
energy

> <minimizedAffinity>
-6.78098

> <minimizedRMSD>
1.34642

> <CNNscore>
0.0948029757

> <CNNaffinity>
6.1610183716

> <CNN_VS>
0.5840829015

> <CNNaffinity_variance>
0.4270926416

$$$$
3:0


 33 36  0  0  0  0  0  0  0  0999 V2000
   58.9504   26.8338   47.7411 C   0  0  0  0  0  0  0  0  0  0  0  0
   58.7306   27.6903   46.7305 C   0  0  0  0  0  0  0  0  0  0  0  0
   58.1277   27.4101   45.4909 C   0  0  0  0  0  0  0  0  0  0  0  0
   57.7635   26.2416   44.9256 C   0  0  0  0  0  0  0  0  0  0  0  0
   57.9475   28.6316   44.8623 C   0  0  0  0  0  0  0  0  0  0  0  0
   58.4864   29.5925   45.6906 C   0  0  0  0  0  0  0  0  0  0  0  0
   58.5139   31.0598   45.3833 C   0  0  0  0  0  0  0  0  0  0  0  0
   58.9572   29.0274   46.8245 N   0  0  0  0  0  0  0  0  0  0  0  0
   57.2954   25.0476   45.6559 C   0  0  0  0  0  0  0  0  0  0  0  0
   56.0121   25.0029   46.2253 C   0  0  0  0  0  0  0  0  0  0  0  0
   55.1380   26.0749   46.0878 O   0  0  0  0  0  0  0  0  0  0  0  0
   55.6173   23.9063   46.9214 N   0  0  0  0  0  0  0  0  0  0  0  0
   56.4536   22.8491   47.0959 C   0  0  0  0  0  0  0  0  0  0  0  0
   56.0661   21.8427   47.7416 O   0  0  0  0  0  0  0  0  0  0  0  0
   57.7084   22.8829   46.5797 N   0  0  0  0  0  0  0  0  0  0  0  0
   58.1493   23.9569   45.8748 C   0  0  0  0  0  0  0  0  0  0  0  0
   59.3236   23.9571   45.4162 O   0  0  0  0  0  0  0  0  0  0  0  0
   59.5592   29.7320   47.9258 C   0  0  0  0  0  0  0  0  0  0  0  0
   58.8854   29.8367   49.1505 C   0  0  0  0  0  0  0  0  0  0  0  0
   59.4685   30.5247   50.2157 C   0  0  0  0  0  0  0  0  0  0  0  0
   60.7248   31.1179   50.0657 C   0  0  0  0  0  0  0  0  0  0  0  0
   61.4096   31.0340   48.8402 C   0  0  0  0  0  0  0  0  0  0  0  0
   60.8221   30.3233   47.7785 C   0  0  0  0  0  0  0  0  0  0  0  0
   62.7488   31.6511   48.6912 C   0  0  0  0  0  0  0  0  0  0  0  0
   63.1427   31.9952   47.5432 O   0  0  0  0  0  0  0  0  0  0  0  0
   63.6001   31.8897   49.8264 N   0  0  0  0  0  0  0  0  0  0  0  0
   63.8452   30.8388   50.8208 C   0  0  0  0  0  0  0  0  0  0  0  0
   63.8712   31.4292   52.2463 C   0  0  0  0  0  0  0  0  0  0  0  0
   64.3703   32.8283   52.3170 N   0  0  0  0  0  0  0  0  0  0  0  0
   65.2221   33.1916   51.1654 C   0  0  0  0  0  0  0  0  0  0  0  0
   64.4488   33.0857   49.8425 C   0  0  0  0  0  0  0  0  0  0  0  0
   63.2868   33.8121   52.5374 C   0  0  0  0  0  0  0  0  0  0  0  0
   62.0268   33.1074   53.0304 C   0  0  0  0  0  0  0  0  0  0  0  0
  1  2  2  0
  2  3  1  0
  3  4  2  0
  4  9  1  0
  9 10  2  0
 10 11  1  0
 10 12  1  0
 12 13  1  0
 13 14  2  0
 13 15  1  0
 15 16  1  0
 16 17  2  0
  3  5  1  0
  5  6  2  0
  6  7  1  0
  6  8  1  0
  8 18  1  0
 18 19  2  0
 19 20  1  0
 20 21  2  0
 21 22  1  0
 22 24  1  0
 24 25  2  0
 24 26  1  0
 26 27  1  0
 27 28  1  0
 28 29  1  0
 29 32  1  0
 32 33  1  0
 29 30  1  0
 30 31  1  0
 22 23  2  0
  8  2  1  0
 23 18  1  0
 16  9  1  0
 31 26  1  0
M  CHG 1  11  -1
M  CHG 1  12  -1
M  CHG 1  15  -1
M  END
> <UniqueID>
3

> <SMILES>
C=c1c(=Cc2c([O-])[n-]c(=O)[n-]c2=O)cc(C)n1-c1cccc(C(=O)N2CCN(CC)CC2)c1

> <Energy>
117.62338330376221

> <Genealogy>
C=c1c(=Cc2c([O-])[n-]c(=O)[n-]c2=O)cc(C)n1-c1cccc(C(=O)N2CCN(CC)CC2)c1 (protonated)
C=c1c(=Cc2c([O-])[n-]c(=O)[n-]c2=O)cc(C)n1-c1cccc(C(=O)N2CCN(CC)CC2)c1 (3D coordinates assigned)
C=c1c(=Cc2c([O-])[n-]c(=O)[n-]c2=O)cc(C)n1-c1cccc(C(=O)N2CCN(CC)CC2)c1 (nonaromatic ring conformer: 117.62338330376221 kcal/mol)

> <smiles>
C=c1c(=Cc2c(O)[nH]c(=O)[nH]c2=O)cc(C)n1-c1cccc(C(=O)N2CCN(CC)CC2)c1

> <score_type>
oracle

> <origin>
adg

> <m_score__min__energy>
-17.52

> <m_primary>
energy

> <minimizedAffinity>
-8.21183

> <minimizedRMSD>
1.74356

> <CNNscore>
0.0926986709

> <CNNaffinity>
6.2179560661

> <CNN_VS>
0.5763962865

> <CNNaffinity_variance>
0.0422232486

$$$$
10:0


 33 36  0  0  0  0  0  0  0  0999 V2000
   59.8584   29.5690   47.8409 C   0  0  0  0  0  0  0  0  0  0  0  0
   60.9218   30.4478   47.5922 C   0  0  0  0  0  0  0  0  0  0  0  0
   61.6595   30.9885   48.6533 C   0  0  0  0  0  0  0  0  0  0  0  0
   61.2832   30.6957   49.9731 C   0  0  0  0  0  0  0  0  0  0  0  0
   60.2150   29.8313   50.2254 C   0  0  0  0  0  0  0  0  0  0  0  0
   59.5088   29.2598   49.1646 C   0  0  0  0  0  0  0  0  0  0  0  0
   58.4751   28.4192   49.4221 F   0  0  0  0  0  0  0  0  0  0  0  0
   59.9189   26.7430   46.9645 C   0  0  0  0  0  0  0  0  0  0  0  0
   59.1318   27.6656   46.3872 C   0  0  0  0  0  0  0  0  0  0  0  0
   58.3369   27.5041   45.2414 C   0  0  0  0  0  0  0  0  0  0  0  0
   57.9679   26.3944   44.5727 C   0  0  0  0  0  0  0  0  0  0  0  0
   57.9356   28.7757   44.8654 C   0  0  0  0  0  0  0  0  0  0  0  0
   58.4220   29.6465   45.8182 C   0  0  0  0  0  0  0  0  0  0  0  0
   58.2263   31.1320   45.7949 C   0  0  0  0  0  0  0  0  0  0  0  0
   59.1426   28.9761   46.7436 N   0  0  0  0  0  0  0  0  0  0  0  0
   57.5219   25.1319   45.1858 C   0  0  0  0  0  0  0  0  0  0  0  0
   58.2612   24.0099   45.2558 N   0  0  0  0  0  0  0  0  0  0  0  0
   57.5043   23.1858   46.0116 C   0  0  0  0  0  0  0  0  0  0  0  0
   57.8569   22.0103   46.2942 O   0  0  0  0  0  0  0  0  0  0  0  0
   56.3462   23.7232   46.4529 N   0  0  0  0  0  0  0  0  0  0  0  0
   56.3821   24.9602   45.9316 C   0  0  0  0  0  0  0  0  0  0  0  0
   55.3941   25.9141   46.1381 O   0  0  0  0  0  0  0  0  0  0  0  0
   63.0232   32.0648   48.3228 S   0  0  0  0  0  0  0  0  0  0  0  0
   63.6238   31.7060   46.9916 O   0  0  0  0  0  0  0  0  0  0  0  0
   64.0684   31.8290   49.3755 O   0  0  0  0  0  0  0  0  0  0  0  0
   62.5944   33.7659   48.3291 N   0  0  0  0  0  0  0  0  0  0  0  0
   62.0579   34.2525   47.0453 C   0  0  0  0  0  0  0  0  0  0  0  0
   60.6430   33.7351   46.7503 C   0  0  0  0  0  0  0  0  0  0  0  0
   59.7795   33.8016   47.9251 N   0  0  0  0  0  0  0  0  0  0  0  0
   60.3043   33.8725   49.2526 C   0  0  0  0  0  0  0  0  0  0  0  0
   59.5300   33.7596   50.2391 O   0  0  0  0  0  0  0  0  0  0  0  0
   61.7622   34.1506   49.4808 C   0  0  0  0  0  0  0  0  0  0  0  0
   58.8031   33.7975   47.7989 H   0  0  0  0  0  0  0  0  0  0  0  0
  8  9  2  0
  9 10  1  0
 10 11  2  0
 11 16  1  0
 16 17  1  0
 17 18  1  0
 18 19  2  0
 18 20  1  0
 20 21  1  0
 21 22  1  0
 10 12  1  0
 12 13  2  0
 13 14  1  0
 13 15  1  0
 15  1  1  0
  1  2  2  0
  2  3  1  0
  3 23  1  0
 23 24  2  0
 23 25  2  0
 23 26  1  0
 26 27  1  0
 27 28  1  0
 28 29  1  0
 29 30  1  0
 30 31  2  0
 30 32  1  0
  3  4  2  0
  4  5  1  0
  5  6  2  0
  6  7  1  0
 15  9  1  0
  6  1  1  0
 21 16  2  0
 32 26  1  0
 29 33  1  0
M  CHG 1  17  -1
M  CHG 1  20  -1
M  CHG 1  22  -1
M  END
> <UniqueID>
10

> <SMILES>
C=c1c(=Cc2[n-]c(=O)[n-]c2[O-])cc(C)n1-c1cc(S(=O)(=O)N2CCNC(=O)C2)ccc1F

> <Energy>
128.92953709145036

> <Genealogy>
C=c1c(=Cc2[n-]c(=O)[n-]c2[O-])cc(C)n1-c1cc(S(=O)(=O)N2CCNC(=O)C2)ccc1F (protonated)
C=c1c(=Cc2[n-]c(=O)[n-]c2[O-])cc(C)n1-c1cc(S(=O)(=O)N2CCNC(=O)C2)ccc1F (3D coordinates assigned)
C=c1c(=Cc2[n-]c(=O)[n-]c2[O-])cc(C)n1-c1cc(S(=O)(=O)N2CCNC(=O)C2)ccc1F (nonaromatic ring conformer: 128.92953709145036 kcal/mol)

> <smiles>
C=c1c(=Cc2[nH]c(=O)[nH]c2O)cc(C)n1-c1cc(S(=O)(=O)N2CCNC(=O)C2)ccc1F

> <score_type>
oracle

> <origin>
adg

> <m_score__min__energy>
-16.949999999999999

> <m_primary>
energy

> <minimizedAffinity>
-7.81690

> <minimizedRMSD>
0.80482

> <CNNscore>
0.1598716974

> <CNNaffinity>
6.7759366035

> <CNN_VS>
1.0832804441

> <CNNaffinity_variance>
0.0201637298

$$$$
18:0


 26 28  0  0  0  0  0  0  0  0999 V2000
   57.9719   28.5898   45.7491 C   0  0  0  0  0  0  0  0  0  0  0  0
   57.5709   29.5860   44.8355 C   0  0  0  0  0  0  0  0  0  0  0  0
   56.7438   29.2729   43.7596 O   0  0  0  0  0  0  0  0  0  0  0  0
   58.0226   30.9000   44.9946 C   0  0  0  0  0  0  0  0  0  0  0  0
   57.6704   31.7941   44.1816 O   0  0  0  0  0  0  0  0  0  0  0  0
   58.8492   31.2176   46.0222 N   0  0  0  0  0  0  0  0  0  0  0  0
   59.2575   30.2955   46.9300 C   0  0  0  0  0  0  0  0  0  0  0  0
   60.1010   30.6902   47.9754 C   0  0  0  0  0  0  0  0  0  0  0  0
   60.5208   29.7625   48.9384 C   0  0  0  0  0  0  0  0  0  0  0  0
   60.0506   28.4441   48.8735 C   0  0  0  0  0  0  0  0  0  0  0  0
   59.2110   28.0395   47.8325 C   0  0  0  0  0  0  0  0  0  0  0  0
   58.8194   28.9510   46.8293 C   0  0  0  0  0  0  0  0  0  0  0  0
   56.1919   26.8114   45.8863 N   0  0  0  0  0  0  0  0  0  0  0  0
   57.5181   27.1966   45.5330 C   0  0  0  0  0  0  0  0  0  0  0  0
   58.2900   26.3506   45.0068 O   0  0  0  0  0  0  0  0  0  0  0  0
   55.8934   25.8845   45.7413 H   0  0  0  0  0  0  0  0  0  0  0  0
   61.3985   30.1757   50.0514 C   0  0  0  0  0  0  0  0  0  0  0  0
   61.2428   29.6447   51.1833 O   0  0  0  0  0  0  0  0  0  0  0  0
   62.4504   31.1341   49.8792 N   0  0  0  0  0  0  0  0  0  0  0  0
   62.3238   32.5637   50.1357 C   0  0  0  0  0  0  0  0  0  0  0  0
   61.6406   33.2173   48.9697 C   0  0  0  0  0  0  0  0  0  0  0  0
   60.3764   33.8101   49.1325 C   0  0  0  0  0  0  0  0  0  0  0  0
   59.7252   34.3894   48.0384 C   0  0  0  0  0  0  0  0  0  0  0  0
   60.3242   34.3717   46.7763 C   0  0  0  0  0  0  0  0  0  0  0  0
   61.5746   33.7700   46.6040 C   0  0  0  0  0  0  0  0  0  0  0  0
   62.2295   33.1895   47.6949 C   0  0  0  0  0  0  0  0  0  0  0  0
 13 14  1  0
 14 15  2  0
 14  1  1  0
  1  2  2  0
  2  3  1  0
  2  4  1  0
  4  5  2  0
  4  6  1  0
  6  7  1  0
  7  8  2  0
  8  9  1  0
  9 17  1  0
 17 18  2  0
 17 19  1  0
 19 20  1  0
 20 21  1  0
 21 22  2  0
 22 23  1  0
 23 24  2  0
 24 25  1  0
 25 26  2  0
  9 10  2  0
 10 11  1  0
 11 12  2  0
 12  1  1  0
 12  7  1  0
 26 21  1  0
 13 16  1  0
M  CHG 1   3  -1
M  CHG 1   6  -1
M  CHG 1  13  -1
M  CHG 1  19  -1
M  END
> <UniqueID>
17

> <SMILES>
[NH-]C(=O)c1c([O-])c(=O)[n-]c2cc(C(=O)[N-]Cc3ccccc3)ccc12

> <Energy>
53.71355159080507

> <Genealogy>
[NH-]C(=O)c1c([O-])c(=O)[n-]c2cc(C(=O)[N-]Cc3ccccc3)ccc12 (protonated)
[NH-]C(=O)c1c([O-])c(=O)[n-]c2cc(C(=O)[N-]Cc3ccccc3)ccc12 (3D coordinates assigned)
[NH-]C(=O)c1c([O-])c(=O)[n-]c2cc(C(=O)[N-]Cc3ccccc3)ccc12 (optimized conformer: 53.71355159080507 kcal/mol)

> <smiles>
NC(=O)c1c(O)c(=O)[nH]c2cc(C(=O)NCc3ccccc3)ccc12

> <score_type>
oracle

> <origin>
adg

> <m_score__min__energy>
-15.16

> <m_primary>
energy

> <minimizedAffinity>
-7.92746

> <minimizedRMSD>
1.56177

> <CNNscore>
0.5837877989

> <CNNaffinity>
6.4611096382

> <CNN_VS>
3.7719168663

> <CNNaffinity_variance>
0.1731650382

$$$$
27:0


 34 37  0  0  0  0  0  0  0  0999 V2000
   59.6030   31.1995   46.9696 C   0  0  0  0  0  0  0  0  0  0  0  0
   58.5796   32.1489   46.8624 C   0  0  0  0  0  0  0  0  0  0  0  0
   58.8708   33.5087   46.9775 C   0  0  0  0  0  0  0  0  0  0  0  0
   60.1847   33.9302   47.1995 C   0  0  0  0  0  0  0  0  0  0  0  0
   61.2284   32.9917   47.3031 C   0  0  0  0  0  0  0  0  0  0  0  0
   60.9209   31.6226   47.1959 C   0  0  0  0  0  0  0  0  0  0  0  0
   58.5997   29.7079   44.5929 C   0  0  0  0  0  0  0  0  0  0  0  0
   58.8297   29.1323   45.7841 C   0  0  0  0  0  0  0  0  0  0  0  0
   58.6572   27.7798   46.1000 C   0  0  0  0  0  0  0  0  0  0  0  0
   58.2484   26.7950   45.2762 C   0  0  0  0  0  0  0  0  0  0  0  0
   59.0564   27.6346   47.4217 C   0  0  0  0  0  0  0  0  0  0  0  0
   59.4315   28.8874   47.8627 C   0  0  0  0  0  0  0  0  0  0  0  0
   59.9582   29.1827   49.2344 C   0  0  0  0  0  0  0  0  0  0  0  0
   59.3007   29.7960   46.8703 N   0  0  0  0  0  0  0  0  0  0  0  0
   57.6633   25.5222   45.7383 C   0  0  0  0  0  0  0  0  0  0  0  0
   58.3383   24.3596   45.7418 N   0  0  0  0  0  0  0  0  0  0  0  0
   57.4153   23.4623   46.1510 C   0  0  0  0  0  0  0  0  0  0  0  0
   57.6751   22.2391   46.2952 O   0  0  0  0  0  0  0  0  0  0  0  0
   56.1878   23.9767   46.3831 N   0  0  0  0  0  0  0  0  0  0  0  0
   56.3575   25.2792   46.1046 C   0  0  0  0  0  0  0  0  0  0  0  0
   55.3286   26.2118   46.1411 O   0  0  0  0  0  0  0  0  0  0  0  0
   62.6348   33.4101   47.5497 C   0  0  0  0  0  0  0  0  0  0  0  0
   63.3814   33.6369   46.5567 O   0  0  0  0  0  0  0  0  0  0  0  0
   63.1735   33.5392   48.8916 N   0  0  0  0  0  0  0  0  0  0  0  0
   62.0881   33.9189   49.8309 C   0  0  0  0  0  0  0  0  0  0  0  0
   62.4399   33.5310   51.2745 C   0  0  0  0  0  0  0  0  0  0  0  0
   62.6122   32.0628   51.4343 N   0  0  0  0  0  0  0  0  0  0  0  0
   63.0394   31.3858   50.1816 C   0  0  0  0  0  0  0  0  0  0  0  0
   63.9003   32.3054   49.3008 C   0  0  0  0  0  0  0  0  0  0  0  0
   63.5226   33.2660   48.0126 H   0  0  0  0  0  0  0  0  0  0  0  0
   61.3997   31.4374   52.0044 C   0  0  0  0  0  0  0  0  0  0  0  0
   61.6737   30.0057   52.4815 C   0  0  0  0  0  0  0  0  0  0  0  0
   62.6371   30.0093   53.5003 O   0  0  0  0  0  0  0  0  0  0  0  0
   63.4633   30.3893   53.1627 H   0  0  0  0  0  0  0  0  0  0  0  0
  7  8  2  0
  8  9  1  0
  9 10  2  0
 10 15  1  0
 15 16  1  0
 16 17  1  0
 17 18  2  0
 17 19  1  0
 19 20  1  0
 20 21  1  0
  9 11  1  0
 11 12  2  0
 12 13  1  0
 12 14  1  0
 14  1  1  0
  1  2  2  0
  2  3  1  0
  3  4  2  0
  4  5  1  0
  5 22  1  0
 22 23  2  0
 22 24  1  0
 24 25  1  0
 25 26  1  0
 26 27  1  0
 27 31  1  0
 31 32  1  0
 32 33  1  0
 27 28  1  0
 28 29  1  0
  5  6  2  0
 14  8  1  0
  6  1  1  0
 20 15  2  0
 29 24  1  0
 24 30  1  0
 33 34  1  0
M  CHG 1  16  -1
M  CHG 1  19  -1
M  CHG 1  21  -1
M  CHG 1  24   1
M  END
> <UniqueID>
25

> <SMILES>
C=c1c(=Cc2[n-]c(=O)[n-]c2[O-])cc(C)n1-c1cccc(C(=O)[NH+]2CCN(CCO)CC2)c1

> <Energy>
147.28837607299954

> <Genealogy>
C=c1c(=Cc2[n-]c(=O)[n-]c2[O-])cc(C)n1-c1cccc(C(=O)[NH+]2CCN(CCO)CC2)c1 (protonated)
C=c1c(=Cc2[n-]c(=O)[n-]c2[O-])cc(C)n1-c1cccc(C(=O)[NH+]2CCN(CCO)CC2)c1 (3D coordinates assigned)
C=c1c(=Cc2[n-]c(=O)[n-]c2[O-])cc(C)n1-c1cccc(C(=O)[NH+]2CCN(CCO)CC2)c1 (nonaromatic ring conformer: 147.28837607299954 kcal/mol)

> <smiles>
C=c1c(=Cc2[nH]c(=O)[nH]c2O)cc(C)n1-c1cccc(C(=O)N2CCN(CCO)CC2)c1

> <score_type>
oracle

> <origin>
adg

> <m_score__min__energy>
-14.960000000000001

> <m_primary>
energy

> <minimizedAffinity>
-8.70821

> <minimizedRMSD>
1.06281

> <CNNscore>
0.1940590590

> <CNNaffinity>
6.6941351891

> <CNN_VS>
1.2990576029

> <CNNaffinity_variance>
0.0145620173

$$$$
32:0


 39 43  0  0  0  0  0  0  0  0999 V2000
   57.6993   29.9606   53.6004 C   0  0  0  0  0  0  0  0  0  0  0  0
   58.2449   30.5024   54.7718 C   0  0  0  0  0  0  0  0  0  0  0  0
   59.4722   31.1664   54.7319 C   0  0  0  0  0  0  0  0  0  0  0  0
   60.1656   31.2909   53.5250 C   0  0  0  0  0  0  0  0  0  0  0  0
   59.6400   30.7403   52.3442 C   0  0  0  0  0  0  0  0  0  0  0  0
   58.3978   30.0856   52.3897 C   0  0  0  0  0  0  0  0  0  0  0  0
   55.1937   30.7483   52.1980 C   0  0  0  0  0  0  0  0  0  0  0  0
   55.2922   29.6565   52.9720 C   0  0  0  0  0  0  0  0  0  0  0  0
   54.2684   28.7452   53.2630 C   0  0  0  0  0  0  0  0  0  0  0  0
   53.0095   28.7556   52.7757 C   0  0  0  0  0  0  0  0  0  0  0  0
   54.8200   27.8091   54.1314 C   0  0  0  0  0  0  0  0  0  0  0  0
   56.1355   28.1773   54.3299 C   0  0  0  0  0  0  0  0  0  0  0  0
   57.1073   27.4293   55.1908 C   0  0  0  0  0  0  0  0  0  0  0  0
   56.4231   29.2992   53.6338 N   0  0  0  0  0  0  0  0  0  0  0  0
   52.2225   29.9758   52.5000 C   0  0  0  0  0  0  0  0  0  0  0  0
   51.7444   30.8155   53.4375 N   0  0  0  0  0  0  0  0  0  0  0  0
   51.1733   31.8044   52.7195 C   0  0  0  0  0  0  0  0  0  0  0  0
   50.6036   32.7899   53.2558 O   0  0  0  0  0  0  0  0  0  0  0  0
   51.2639   31.6558   51.3828 N   0  0  0  0  0  0  0  0  0  0  0  0
   51.9364   30.5005   51.2551 C   0  0  0  0  0  0  0  0  0  0  0  0
   52.2737   29.9482   50.0225 O   0  0  0  0  0  0  0  0  0  0  0  0
   52.0312   30.3865   49.2306 H   0  0  0  0  0  0  0  0  0  0  0  0
   60.3556   30.8823   51.0535 C   0  0  0  0  0  0  0  0  0  0  0  0
   61.6166   30.8550   51.0477 O   0  0  0  0  0  0  0  0  0  0  0  0
   59.6493   31.0428   49.8088 N   0  0  0  0  0  0  0  0  0  0  0  0
   58.4378   31.8649   49.7201 C   0  0  0  0  0  0  0  0  0  0  0  0
   58.5279   32.7679   48.4818 C   0  0  0  0  0  0  0  0  0  0  0  0
   58.7982   32.0228   47.2183 N   0  0  0  0  0  0  0  0  0  0  0  0
   59.2350   30.6193   47.4149 C   0  0  0  0  0  0  0  0  0  0  0  0
   60.2174   30.4727   48.5842 C   0  0  0  0  0  0  0  0  0  0  0  0
   59.7216   32.7625   46.3285 C   0  0  0  0  0  0  0  0  0  0  0  0
   60.2405   34.0343   47.0136 C   0  0  0  0  0  0  0  0  0  0  0  0
   61.5314   33.7576   47.7358 C   0  0  0  0  0  0  0  0  0  0  0  0
   62.6055   33.1524   47.0609 C   0  0  0  0  0  0  0  0  0  0  0  0
   63.7912   32.8594   47.7418 C   0  0  0  0  0  0  0  0  0  0  0  0
   63.9106   33.1622   49.1015 C   0  0  0  0  0  0  0  0  0  0  0  0
   65.0603   32.8746   49.7611 F   0  0  0  0  0  0  0  0  0  0  0  0
   62.8434   33.7552   49.7818 C   0  0  0  0  0  0  0  0  0  0  0  0
   61.6557   34.0468   49.1042 C   0  0  0  0  0  0  0  0  0  0  0  0
  7  8  2  0
  8  9  1  0
  9 10  2  0
 10 15  1  0
 15 16  1  0
 16 17  1  0
 17 18  2  0
 17 19  1  0
 19 20  1  0
 20 21  1  0
  9 11  1  0
 11 12  2  0
 12 13  1  0
 12 14  1  0
 14  1  1  0
  1  2  2  0
  2  3  1  0
  3  4  2  0
  4  5  1  0
  5 23  1  0
 23 24  2  0
 23 25  1  0
 25 26  1  0
 26 27  1  0
 27 28  1  0
 28 31  1  0
 31 32  1  0
 32 33  1  0
 33 34  2  0
 34 35  1  0
 35 36  2  0
 36 37  1  0
 36 38  1  0
 38 39  2  0
 28 29  1  0
 29 30  1  0
  5  6  2  0
 14  8  1  0
  6  1  1  0
 20 15  2  0
 30 25  1  0
 39 33  1  0
 21 22  1  0
M  CHG 1  16  -1
M  CHG 1  19  -1
M  END
> <UniqueID>
30

> <SMILES>
C=c1c(=Cc2[n-]c(=O)[n-]c2O)cc(C)n1-c1cccc(C(=O)N2CCN(CCc3ccc(F)cc3)CC2)c1

> <Energy>
149.72984777864832

> <Genealogy>
C=c1c(=Cc2[n-]c(=O)[n-]c2O)cc(C)n1-c1cccc(C(=O)N2CCN(CCc3ccc(F)cc3)CC2)c1 (protonated)
C=c1c(=Cc2[n-]c(=O)[n-]c2O)cc(C)n1-c1cccc(C(=O)N2CCN(CCc3ccc(F)cc3)CC2)c1 (3D coordinates assigned)
C=c1c(=Cc2[n-]c(=O)[n-]c2O)cc(C)n1-c1cccc(C(=O)N2CCN(CCc3ccc(F)cc3)CC2)c1 (nonaromatic ring conformer: 149.72984777864832 kcal/mol)

> <smiles>
C=c1c(=Cc2[nH]c(=O)[nH]c2O)cc(C)n1-c1cccc(C(=O)N2CCN(CCc3ccc(F)cc3)CC2)c1

> <score_type>
oracle

> <origin>
adg

> <m_score__min__energy>
-14.880000000000001

> <m_primary>
energy

> <minimizedAffinity>
-8.43934

> <minimizedRMSD>
0.82901

> <CNNscore>
0.0899523720

> <CNNaffinity>
5.5833988190

> <CNN_VS>
0.5022399426

> <CNNaffinity_variance>
1.0158557892

$$$$
34:0


 30 33  0  0  0  0  0  0  0  0999 V2000
   58.8897   29.3732   47.3396 C   0  0  0  0  0  0  0  0  0  0  0  0
   58.5159   30.0690   46.2544 C   0  0  0  0  0  0  0  0  0  0  0  0
   57.7025   29.6284   45.1974 C   0  0  0  0  0  0  0  0  0  0  0  0
   57.2493   28.3994   44.8827 C   0  0  0  0  0  0  0  0  0  0  0  0
   57.4211   30.7483   44.4315 C   0  0  0  0  0  0  0  0  0  0  0  0
   58.1089   31.8029   44.9963 C   0  0  0  0  0  0  0  0  0  0  0  0
   58.0927   33.2111   44.4853 C   0  0  0  0  0  0  0  0  0  0  0  0
   58.7817   31.3902   46.0906 N   0  0  0  0  0  0  0  0  0  0  0  0
   57.6716   27.1405   45.5168 C   0  0  0  0  0  0  0  0  0  0  0  0
   58.9247   26.6505   45.4891 N   0  0  0  0  0  0  0  0  0  0  0  0
   58.7965   25.4359   46.0677 C   0  0  0  0  0  0  0  0  0  0  0  0
   59.7739   24.6627   46.2420 O   0  0  0  0  0  0  0  0  0  0  0  0
   57.5381   25.1135   46.4348 N   0  0  0  0  0  0  0  0  0  0  0  0
   56.8376   26.1957   46.0648 C   0  0  0  0  0  0  0  0  0  0  0  0
   55.4623   26.3160   46.2169 O   0  0  0  0  0  0  0  0  0  0  0  0
   59.5420   32.2405   46.9657 C   0  0  0  0  0  0  0  0  0  0  0  0
   60.9397   32.1366   47.0036 C   0  0  0  0  0  0  0  0  0  0  0  0
   61.6956   32.9575   47.8600 C   0  0  0  0  0  0  0  0  0  0  0  0
   61.0268   33.8980   48.6635 C   0  0  0  0  0  0  0  0  0  0  0  0
   59.6339   34.0000   48.6290 C   0  0  0  0  0  0  0  0  0  0  0  0
   58.8910   33.1720   47.7846 C   0  0  0  0  0  0  0  0  0  0  0  0
   57.5399   33.2874   47.7508 F   0  0  0  0  0  0  0  0  0  0  0  0
   63.1768   32.8681   47.9036 C   0  0  0  0  0  0  0  0  0  0  0  0
   63.8448   33.3878   46.9643 O   0  0  0  0  0  0  0  0  0  0  0  0
   63.8584   32.1369   48.9576 N   0  0  0  0  0  0  0  0  0  0  0  0
   64.6241   33.0589   49.8248 C   0  0  0  0  0  0  0  0  0  0  0  0
   64.0086   32.9589   51.1723 C   0  0  0  0  0  0  0  0  0  0  0  0
   63.0537   32.0541   51.1825 C   0  0  0  0  0  0  0  0  0  0  0  0
   62.9143   31.4213   49.8487 C   0  0  0  0  0  0  0  0  0  0  0  0
   64.4600   32.3330   48.2033 H   0  0  0  0  0  0  0  0  0  0  0  0
  1  2  2  0
  2  3  1  0
  3  4  2  0
  4  9  1  0
  9 10  1  0
 10 11  1  0
 11 12  2  0
 11 13  1  0
 13 14  1  0
 14 15  1  0
  3  5  1  0
  5  6  2  0
  6  7  1  0
  6  8  1  0
  8 16  1  0
 16 17  2  0
 17 18  1  0
 18 23  1  0
 23 24  2  0
 23 25  1  0
 25 26  1  0
 26 27  1  0
 27 28  2  0
 28 29  1  0
 18 19  2  0
 19 20  1  0
 20 21  2  0
 21 22  1  0
  8  2  1  0
 21 16  1  0
 14  9  2  0
 29 25  1  0
 25 30  1  0
M  CHG 1  10  -1
M  CHG 1  13  -1
M  CHG 1  15  -1
M  CHG 1  25   1
M  END
> <UniqueID>
32

> <SMILES>
C=c1c(=Cc2[n-]c(=O)[n-]c2[O-])cc(C)n1-c1cc(C(=O)[NH+]2CC=CC2)ccc1F

> <Energy>
137.612913271039

> <Genealogy>
C=c1c(=Cc2[n-]c(=O)[n-]c2[O-])cc(C)n1-c1cc(C(=O)[NH+]2CC=CC2)ccc1F (protonated)
C=c1c(=Cc2[n-]c(=O)[n-]c2[O-])cc(C)n1-c1cc(C(=O)[NH+]2CC=CC2)ccc1F (3D coordinates assigned)
C=c1c(=Cc2[n-]c(=O)[n-]c2[O-])cc(C)n1-c1cc(C(=O)[NH+]2CC=CC2)ccc1F (nonaromatic ring conformer: 137.612913271039 kcal/mol)

> <smiles>
C=c1c(=Cc2[nH]c(=O)[nH]c2O)cc(C)n1-c1cc(C(=O)N2CC=CC2)ccc1F

> <score_type>
oracle

> <origin>
adg

> <m_score__min__energy>
-15.25

> <m_primary>
energy

> <minimizedAffinity>
-8.82582

> <minimizedRMSD>
0.78546

> <CNNscore>
0.4853613675

> <CNNaffinity>
7.0161738396

> <CNN_VS>
3.4053797722

> <CNNaffinity_variance>
0.0237784926

$$$$
51:0


 34 37  0  0  0  0  0  0  0  0999 V2000
   58.0988   27.9920   46.8413 C   0  0  0  0  0  0  0  0  0  0  0  0
   59.2080   28.7070   47.1249 C   0  0  0  0  0  0  0  0  0  0  0  0
   60.1669   29.2300   46.2512 C   0  0  0  0  0  0  0  0  0  0  0  0
   60.2480   29.0999   44.7622 C   0  0  0  0  0  0  0  0  0  0  0  0
   61.0811   29.9242   46.9531 N   0  0  0  0  0  0  0  0  0  0  0  0
   60.7733   29.8506   48.2397 N   0  0  0  0  0  0  0  0  0  0  0  0
   59.6488   29.1049   48.3898 C   0  0  0  0  0  0  0  0  0  0  0  0
   59.0812   28.7963   49.5670 C   0  0  0  0  0  0  0  0  0  0  0  0
   55.6720   26.5461   46.0769 O   0  0  0  0  0  0  0  0  0  0  0  0
   56.9102   25.8995   46.0900 C   0  0  0  0  0  0  0  0  0  0  0  0
   56.9600   24.5822   45.7592 N   0  0  0  0  0  0  0  0  0  0  0  0
   58.1303   23.8960   45.7615 C   0  0  0  0  0  0  0  0  0  0  0  0
   58.1461   22.6768   45.4466 O   0  0  0  0  0  0  0  0  0  0  0  0
   59.2849   24.5217   46.1069 N   0  0  0  0  0  0  0  0  0  0  0  0
   59.2957   25.8365   46.4463 C   0  0  0  0  0  0  0  0  0  0  0  0
   60.3846   26.3831   46.7703 O   0  0  0  0  0  0  0  0  0  0  0  0
   58.1019   26.5748   46.4300 C   0  0  0  0  0  0  0  0  0  0  0  0
   54.8978   26.0711   45.8469 H   0  0  0  0  0  0  0  0  0  0  0  0
   61.5037   30.6314   49.2433 C   0  0  0  0  0  0  0  0  0  0  0  0
   62.0665   31.8633   48.5949 C   0  0  0  0  0  0  0  0  0  0  0  0
   63.3127   31.9555   48.4309 O   0  0  0  0  0  0  0  0  0  0  0  0
   61.2007   32.8778   48.0570 N   0  0  0  0  0  0  0  0  0  0  0  0
   60.1749   33.4922   48.9062 C   0  0  0  0  0  0  0  0  0  0  0  0
   59.4598   34.6285   48.1607 C   0  0  0  0  0  0  0  0  0  0  0  0
   59.0716   34.2205   46.7931 N   0  0  0  0  0  0  0  0  0  0  0  0
   60.2195   33.7515   45.9641 C   0  0  0  0  0  0  0  0  0  0  0  0
   61.5128   33.4800   46.7581 C   0  0  0  0  0  0  0  0  0  0  0  0
   57.9580   33.2457   46.8149 C   0  0  0  0  0  0  0  0  0  0  0  0
   57.8064   32.5712   45.4759 C   0  0  0  0  0  0  0  0  0  0  0  0
   58.1981   33.2326   44.2971 C   0  0  0  0  0  0  0  0  0  0  0  0
   58.0646   32.5987   43.0586 C   0  0  0  0  0  0  0  0  0  0  0  0
   57.5453   31.3017   42.9875 C   0  0  0  0  0  0  0  0  0  0  0  0
   57.1621   30.6348   44.1548 C   0  0  0  0  0  0  0  0  0  0  0  0
   57.2950   31.2651   45.3960 C   0  0  0  0  0  0  0  0  0  0  0  0
  9 10  1  0
 10 11  1  0
 11 12  1  0
 12 13  2  0
 12 14  1  0
 14 15  1  0
 15 16  2  0
 15 17  1  0
 17  1  1  0
  1  2  2  0
  2  3  1  0
  3  4  1  0
  3  5  2  0
  5  6  1  0
  6 19  1  0
 19 20  1  0
 20 21  2  0
 20 22  1  0
 22 23  1  0
 23 24  1  0
 24 25  1  0
 25 28  1  0
 28 29  1  0
 29 30  2  0
 30 31  1  0
 31 32  2  0
 32 33  1  0
 33 34  2  0
 25 26  1  0
 26 27  1  0
  6  7  1  0
  7  8  2  0
 17 10  2  0
  7  2  1  0
 27 22  1  0
 34 29  1  0
  9 18  1  0
M  CHG 1  11  -1
M  CHG 1  14  -1
M  END
> <UniqueID>
48

> <SMILES>
C=c1/c(=C/c2c(O)[n-]c(=O)[n-]c2=O)c(C)nn1CC(=O)N1CCN(Cc2ccccc2)CC1

> <Energy>
112.57372274285764

> <Genealogy>
C=c1c(=Cc2c(O)[n-]c(=O)[n-]c2=O)c(C)nn1CC(=O)N1CCN(Cc2ccccc2)CC1 (protonated)
C=c1/c(=C/c2c(O)[n-]c(=O)[n-]c2=O)c(C)nn1CC(=O)N1CCN(Cc2ccccc2)CC1 (cis-trans isomerization)
C=c1/c(=C/c2c(O)[n-]c(=O)[n-]c2=O)c(C)nn1CC(=O)N1CCN(Cc2ccccc2)CC1 (3D coordinates assigned)
C=c1/c(=C/c2c(O)[n-]c(=O)[n-]c2=O)c(C)nn1CC(=O)N1CCN(Cc2ccccc2)CC1 (nonaromatic ring conformer: 112.57372274285764 kcal/mol)

> <smiles>
C=c1c(=Cc2c(O)[nH]c(=O)[nH]c2=O)c(C)nn1CC(=O)N1CCN(Cc2ccccc2)CC1

> <score_type>
oracle

> <origin>
adg

> <m_score__min__energy>
-14.43

> <m_primary>
energy

> <minimizedAffinity>
-8.10914

> <minimizedRMSD>
1.22253

> <CNNscore>
0.1921466887

> <CNNaffinity>
6.3100128174

> <CNN_VS>
1.2124481201

> <CNNaffinity_variance>
0.4784019887

$$$$
55:0


 34 37  0  0  0  0  0  0  0  0999 V2000
   60.0402   29.8165   47.4232 C   0  0  0  0  0  0  0  0  0  0  0  0
   61.1110   30.5655   46.9264 C   0  0  0  0  0  0  0  0  0  0  0  0
   61.8606   31.3673   47.7871 C   0  0  0  0  0  0  0  0  0  0  0  0
   61.5370   31.4135   49.1524 C   0  0  0  0  0  0  0  0  0  0  0  0
   60.4837   30.6747   49.6147 N   0  0  0  0  0  0  0  0  0  0  0  0
   59.7483   29.8817   48.7899 C   0  0  0  0  0  0  0  0  0  0  0  0
   60.2512   30.7178   50.5704 H   0  0  0  0  0  0  0  0  0  0  0  0
   60.2033   26.8695   47.0720 C   0  0  0  0  0  0  0  0  0  0  0  0
   59.3168   27.6365   46.4183 C   0  0  0  0  0  0  0  0  0  0  0  0
   58.3836   27.2213   45.4530 C   0  0  0  0  0  0  0  0  0  0  0  0
   58.0222   25.9911   45.0394 C   0  0  0  0  0  0  0  0  0  0  0  0
   57.8069   28.3765   44.9520 C   0  0  0  0  0  0  0  0  0  0  0  0
   58.3550   29.4348   45.6461 C   0  0  0  0  0  0  0  0  0  0  0  0
   57.9761   30.8708   45.4515 C   0  0  0  0  0  0  0  0  0  0  0  0
   59.2608   28.9869   46.5422 N   0  0  0  0  0  0  0  0  0  0  0  0
   57.3515   24.9707   45.8587 C   0  0  0  0  0  0  0  0  0  0  0  0
   57.9016   23.7821   46.1642 N   0  0  0  0  0  0  0  0  0  0  0  0
   56.9070   23.1343   46.8097 C   0  0  0  0  0  0  0  0  0  0  0  0
   57.0456   21.9736   47.2759 O   0  0  0  0  0  0  0  0  0  0  0  0
   55.7507   23.8241   46.9058 N   0  0  0  0  0  0  0  0  0  0  0  0
   56.0438   24.9775   46.2843 C   0  0  0  0  0  0  0  0  0  0  0  0
   55.1289   26.0064   46.0938 O   0  0  0  0  0  0  0  0  0  0  0  0
   62.2880   32.2534   50.0514 N   0  0  0  0  0  0  0  0  0  0  0  0
   63.1939   33.2900   49.5431 C   0  0  0  0  0  0  0  0  0  0  0  0
   64.5962   33.1359   50.1688 C   0  0  0  0  0  0  0  0  0  0  0  0
   64.5820   32.3691   51.4393 N   0  0  0  0  0  0  0  0  0  0  0  0
   63.3721   32.6721   52.2299 C   0  0  0  0  0  0  0  0  0  0  0  0
   62.1477   32.0997   51.5052 C   0  0  0  0  0  0  0  0  0  0  0  0
   65.8190   32.6171   52.2110 C   0  0  0  0  0  0  0  0  0  0  0  0
   66.3991   31.3111   52.7792 C   0  0  0  0  0  0  0  0  0  0  0  0
   66.6349   30.2620   51.6839 C   0  0  0  0  0  0  0  0  0  0  0  0
   65.9005   28.9948   51.9955 C   0  0  0  0  0  0  0  0  0  0  0  0
   66.5403   27.9343   52.2345 O   0  0  0  0  0  0  0  0  0  0  0  0
   64.5106   28.9800   52.0071 O   0  0  0  0  0  0  0  0  0  0  0  0
  8  9  2  0
  9 10  1  0
 10 11  2  0
 11 16  1  0
 16 17  1  0
 17 18  1  0
 18 19  2  0
 18 20  1  0
 20 21  1  0
 21 22  1  0
 10 12  1  0
 12 13  2  0
 13 14  1  0
 13 15  1  0
 15  1  1  0
  1  2  2  0
  2  3  1  0
  3  4  2  0
  4 23  1  0
 23 24  1  0
 24 25  1  0
 25 26  1  0
 26 29  1  0
 29 30  1  0
 30 31  1  0
 31 32  1  0
 32 33  2  0
 32 34  1  0
 26 27  1  0
 27 28  1  0
  4  5  1  0
  5  6  2  0
 15  9  1  0
  6  1  1  0
 21 16  2  0
 28 23  1  0
  5  7  1  0
M  CHG 1   5   1
M  CHG 1  17  -1
M  CHG 1  20  -1
M  CHG 1  22  -1
M  CHG 1  34  -1
M  END
> <UniqueID>
52

> <SMILES>
C=c1c(=Cc2[n-]c(=O)[n-]c2[O-])cc(C)n1-c1ccc(N2CCN(CCCC(=O)[O-])CC2)[nH+]c1

> <Energy>
142.5652426488323

> <Genealogy>
C=c1c(=Cc2[n-]c(=O)[n-]c2[O-])cc(C)n1-c1ccc(N2CCN(CCCC(=O)[O-])CC2)[nH+]c1 (protonated)
C=c1c(=Cc2[n-]c(=O)[n-]c2[O-])cc(C)n1-c1ccc(N2CCN(CCCC(=O)[O-])CC2)[nH+]c1 (3D coordinates assigned)
C=c1c(=Cc2[n-]c(=O)[n-]c2[O-])cc(C)n1-c1ccc(N2CCN(CCCC(=O)[O-])CC2)[nH+]c1 (nonaromatic ring conformer: 142.5652426488323 kcal/mol)

> <smiles>
C=c1c(=Cc2[nH]c(=O)[nH]c2O)cc(C)n1-c1ccc(N2CCN(CCCC(=O)O)CC2)nc1

> <score_type>
oracle

> <origin>
adg

> <m_score__min__energy>
-15.029999999999999

> <m_primary>
energy

> <minimizedAffinity>
-7.67207

> <minimizedRMSD>
1.19947

> <CNNscore>
0.0986463502

> <CNNaffinity>
5.9678435326

> <CNN_VS>
0.5887059569

> <CNNaffinity_variance>
0.2374512404

$$$$
62:0


 29 32  0  0  0  0  0  0  0  0999 V2000
   56.8079   31.3613   44.8783 N   0  0  0  0  0  0  0  0  0  0  0  0
   57.8302   32.2195   45.3846 C   0  0  0  0  0  0  0  0  0  0  0  0
   58.0657   33.4897   44.8260 C   0  0  0  0  0  0  0  0  0  0  0  0
   59.1780   34.2420   45.2293 C   0  0  0  0  0  0  0  0  0  0  0  0
   60.0643   33.7314   46.1822 C   0  0  0  0  0  0  0  0  0  0  0  0
   59.8244   32.4640   46.7483 C   0  0  0  0  0  0  0  0  0  0  0  0
   58.7261   31.7117   46.3301 C   0  0  0  0  0  0  0  0  0  0  0  0
   60.7637   31.8725   47.7161 C   0  0  0  0  0  0  0  0  0  0  0  0
   61.6728   31.1051   47.2823 O   0  0  0  0  0  0  0  0  0  0  0  0
   60.5838   32.0569   49.1347 N   0  0  0  0  0  0  0  0  0  0  0  0
   59.9454   33.2997   49.6184 C   0  0  0  0  0  0  0  0  0  0  0  0
   59.7277   33.3048   51.1385 C   0  0  0  0  0  0  0  0  0  0  0  0
   60.8021   32.6924   51.8215 O   0  0  0  0  0  0  0  0  0  0  0  0
   60.8135   31.3175   51.5144 C   0  0  0  0  0  0  0  0  0  0  0  0
   61.2063   31.0838   50.0489 C   0  0  0  0  0  0  0  0  0  0  0  0
   56.9692   29.9608   44.6191 C   0  0  0  0  0  0  0  0  0  0  0  0
   57.1142   29.5361   43.4335 O   0  0  0  0  0  0  0  0  0  0  0  0
   55.0465   26.3830   45.8799 O   0  0  0  0  0  0  0  0  0  0  0  0
   56.2893   26.0181   46.3813 C   0  0  0  0  0  0  0  0  0  0  0  0
   56.5062   24.7915   46.9138 N   0  0  0  0  0  0  0  0  0  0  0  0
   57.8438   24.6776   47.0627 C   0  0  0  0  0  0  0  0  0  0  0  0
   58.4539   25.8244   46.6123 C   0  0  0  0  0  0  0  0  0  0  0  0
   59.7731   26.0406   46.4065 N   0  0  0  0  0  0  0  0  0  0  0  0
   60.1702   27.2064   45.8236 C   0  0  0  0  0  0  0  0  0  0  0  0
   59.2281   28.2095   45.5040 C   0  0  0  0  0  0  0  0  0  0  0  0
   57.8572   28.0258   45.8097 C   0  0  0  0  0  0  0  0  0  0  0  0
   57.0430   29.0388   45.7189 N   0  0  0  0  0  0  0  0  0  0  0  0
   57.4893   26.7264   46.2557 C   0  0  0  0  0  0  0  0  0  0  0  0
   54.3031   25.8309   46.0228 H   0  0  0  0  0  0  0  0  0  0  0  0
 18 19  1  0
 19 20  1  0
 20 21  1  0
 21 22  2  0
 22 23  1  0
 23 24  1  0
 24 25  2  0
 25 26  1  0
 26 27  2  0
 27 16  1  0
 16 17  2  0
 16  1  1  0
  1  2  1  0
  2  3  2  0
  3  4  1  0
  4  5  2  0
  5  6  1  0
  6  8  1  0
  8  9  2  0
  8 10  1  0
 10 11  1  0
 11 12  1  0
 12 13  1  0
 13 14  1  0
 14 15  1  0
  6  7  2  0
 26 28  1  0
 28 19  2  0
 28 22  1  0
  7  2  1  0
 15 10  1  0
 18 29  1  0
M  CHG 1   1  -1
M  CHG 1  20  -1
M  CHG 1  23  -1
M  END
> <UniqueID>
58

> <SMILES>
O=C(/N=c1/cc[n-]c2c[n-]c(O)c12)[N-]c1cccc(C(=O)N2CCOCC2)c1

> <Energy>
121.90709634798961

> <Genealogy>
O=C(N=c1cc[n-]c2c[n-]c(O)c12)[N-]c1cccc(C(=O)N2CCOCC2)c1 (protonated)
O=C(/N=c1/cc[n-]c2c[n-]c(O)c12)[N-]c1cccc(C(=O)N2CCOCC2)c1 (cis-trans isomerization)
O=C(/N=c1/cc[n-]c2c[n-]c(O)c12)[N-]c1cccc(C(=O)N2CCOCC2)c1 (3D coordinates assigned)
O=C(/N=c1/cc[n-]c2c[n-]c(O)c12)[N-]c1cccc(C(=O)N2CCOCC2)c1 (nonaromatic ring conformer: 121.90709634798961 kcal/mol)

> <smiles>
O=C(N=c1cc[nH]c2c[nH]c(O)c12)Nc1cccc(C(=O)N2CCOCC2)c1

> <score_type>
oracle

> <origin>
adg

> <m_score__min__energy>
-14.619999999999999

> <m_primary>
energy

> <minimizedAffinity>
-8.97127

> <minimizedRMSD>
0.98966

> <CNNscore>
0.7865972519

> <CNNaffinity>
6.8753542900

> <CNN_VS>
5.4081349373

> <CNNaffinity_variance>
0.0463312827

$$$$
66:0


 33 36  0  0  0  0  0  0  0  0999 V2000
   57.7358   27.3757   45.0963 C   0  0  0  0  0  0  0  0  0  0  0  0
   57.9280   28.5907   45.6529 C   0  0  0  0  0  0  0  0  0  0  0  0
   57.5847   29.7990   45.0544 C   0  0  0  0  0  0  0  0  0  0  0  0
   56.9601   29.9893   43.7071 C   0  0  0  0  0  0  0  0  0  0  0  0
   57.8590   30.8211   45.8841 N   0  0  0  0  0  0  0  0  0  0  0  0
   58.3864   30.3213   46.9900 N   0  0  0  0  0  0  0  0  0  0  0  0
   58.4587   28.9685   46.8961 C   0  0  0  0  0  0  0  0  0  0  0  0
   59.0034   28.1853   47.8409 C   0  0  0  0  0  0  0  0  0  0  0  0
   55.0663   26.5155   45.9194 O   0  0  0  0  0  0  0  0  0  0  0  0
   56.1848   25.7352   46.2154 C   0  0  0  0  0  0  0  0  0  0  0  0
   56.0048   24.5659   46.8815 N   0  0  0  0  0  0  0  0  0  0  0  0
   57.0518   23.7572   47.1822 C   0  0  0  0  0  0  0  0  0  0  0  0
   56.8553   22.6800   47.8022 O   0  0  0  0  0  0  0  0  0  0  0  0
   58.3110   24.1049   46.8114 N   0  0  0  0  0  0  0  0  0  0  0  0
   58.5493   25.2628   46.1456 C   0  0  0  0  0  0  0  0  0  0  0  0
   59.7296   25.5531   45.8138 O   0  0  0  0  0  0  0  0  0  0  0  0
   57.4873   26.1285   45.8402 C   0  0  0  0  0  0  0  0  0  0  0  0
   54.2132   26.2297   46.1808 H   0  0  0  0  0  0  0  0  0  0  0  0
   58.7898   31.1671   48.1168 C   0  0  0  0  0  0  0  0  0  0  0  0
   59.4688   32.4234   47.6385 C   0  0  0  0  0  0  0  0  0  0  0  0
   58.7637   33.4329   47.3601 O   0  0  0  0  0  0  0  0  0  0  0  0
   60.9002   32.4905   47.4719 N   0  0  0  0  0  0  0  0  0  0  0  0
   61.5509   33.8091   47.4845 C   0  0  0  0  0  0  0  0  0  0  0  0
   63.0834   33.6949   47.4421 C   0  0  0  0  0  0  0  0  0  0  0  0
   63.6201   32.5832   48.3706 C   0  0  0  0  0  0  0  0  0  0  0  0
   62.8911   31.2201   48.1788 C   0  0  0  0  0  0  0  0  0  0  0  0
   61.7097   31.2943   47.2022 C   0  0  0  0  0  0  0  0  0  0  0  0
   63.6369   33.0449   49.8220 C   0  0  0  0  0  0  0  0  0  0  0  0
   62.4501   33.0129   50.5779 C   0  0  0  0  0  0  0  0  0  0  0  0
   62.4537   33.3994   51.9218 C   0  0  0  0  0  0  0  0  0  0  0  0
   63.6415   33.8088   52.5308 C   0  0  0  0  0  0  0  0  0  0  0  0
   64.8288   33.8312   51.7967 C   0  0  0  0  0  0  0  0  0  0  0  0
   64.8308   33.4477   50.4529 C   0  0  0  0  0  0  0  0  0  0  0  0
  9 10  1  0
 10 11  1  0
 11 12  1  0
 12 13  2  0
 12 14  1  0
 14 15  1  0
 15 16  2  0
 15 17  1  0
 17  1  1  0
  1  2  2  0
  2  3  1  0
  3  4  1  0
  3  5  2  0
  5  6  1  0
  6 19  1  0
 19 20  1  0
 20 21  2  0
 20 22  1  0
 22 23  1  0
 23 24  1  0
 24 25  1  0
 25 28  1  0
 28 29  2  0
 29 30  1  0
 30 31  2  0
 31 32  1  0
 32 33  2  0
 25 26  1  0
 26 27  1  0
  6  7  1  0
  7  8  2  0
 17 10  2  0
  7  2  1  0
 27 22  1  0
 33 28  1  0
  9 18  1  0
M  CHG 1  11  -1
M  CHG 1  14  -1
M  END
> <UniqueID>
62

> <SMILES>
C=c1/c(=C\c2c(O)[n-]c(=O)[n-]c2=O)c(C)nn1CC(=O)N1CCC(c2ccccc2)CC1

> <Energy>
109.10799692918265

> <Genealogy>
C=c1c(=Cc2c(O)[n-]c(=O)[n-]c2=O)c(C)nn1CC(=O)N1CCC(c2ccccc2)CC1 (protonated)
C=c1/c(=C\c2c(O)[n-]c(=O)[n-]c2=O)c(C)nn1CC(=O)N1CCC(c2ccccc2)CC1 (cis-trans isomerization)
C=c1/c(=C\c2c(O)[n-]c(=O)[n-]c2=O)c(C)nn1CC(=O)N1CCC(c2ccccc2)CC1 (3D coordinates assigned)
C=c1/c(=C\c2c(O)[n-]c(=O)[n-]c2=O)c(C)nn1CC(=O)N1CCC(c2ccccc2)CC1 (nonaromatic ring conformer: 109.10799692918265 kcal/mol)

> <smiles>
C=c1c(=Cc2c(O)[nH]c(=O)[nH]c2=O)c(C)nn1CC(=O)N1CCC(c2ccccc2)CC1

> <score_type>
oracle

> <origin>
adg

> <m_score__min__energy>
-14.49

> <m_primary>
energy

> <minimizedAffinity>
-8.14685

> <minimizedRMSD>
0.85346

> <CNNscore>
0.1052293256

> <CNNaffinity>
6.3543114662

> <CNN_VS>
0.6686599255

> <CNNaffinity_variance>
0.1073545441

$$$$
78:0


 26 28  0  0  0  0  0  0  0  0999 V2000
   60.0857   28.9259   47.4729 C   0  0  0  0  0  0  0  0  0  0  0  0
   59.3129   28.9667   46.3761 C   0  0  0  0  0  0  0  0  0  0  0  0
   58.9678   27.8911   45.5401 C   0  0  0  0  0  0  0  0  0  0  0  0
   59.1438   26.5635   45.6851 C   0  0  0  0  0  0  0  0  0  0  0  0
   58.3275   28.4452   44.4426 C   0  0  0  0  0  0  0  0  0  0  0  0
   58.2531   29.8038   44.6657 C   0  0  0  0  0  0  0  0  0  0  0  0
   57.6076   30.7873   43.7364 C   0  0  0  0  0  0  0  0  0  0  0  0
   58.8368   30.1206   45.8415 N   0  0  0  0  0  0  0  0  0  0  0  0
   58.0948   25.5923   46.0368 C   0  0  0  0  0  0  0  0  0  0  0  0
   58.3227   24.3160   46.3980 N   0  0  0  0  0  0  0  0  0  0  0  0
   57.0992   23.8719   46.7594 C   0  0  0  0  0  0  0  0  0  0  0  0
   56.8933   22.6937   47.1523 O   0  0  0  0  0  0  0  0  0  0  0  0
   56.1153   24.7931   46.6799 N   0  0  0  0  0  0  0  0  0  0  0  0
   56.7664   25.8797   46.2350 C   0  0  0  0  0  0  0  0  0  0  0  0
   56.1606   27.1113   46.0187 O   0  0  0  0  0  0  0  0  0  0  0  0
   58.9991   31.4552   46.3541 C   0  0  0  0  0  0  0  0  0  0  0  0
   57.9725   32.3969   46.2012 C   0  0  0  0  0  0  0  0  0  0  0  0
   58.1350   33.6954   46.6857 C   0  0  0  0  0  0  0  0  0  0  0  0
   59.3226   34.0621   47.3236 C   0  0  0  0  0  0  0  0  0  0  0  0
   60.3588   33.1342   47.4832 C   0  0  0  0  0  0  0  0  0  0  0  0
   60.1953   31.8291   46.9847 C   0  0  0  0  0  0  0  0  0  0  0  0
   61.5573   33.5536   48.1510 N   0  0  0  0  0  0  0  0  0  0  0  0
   62.8826   32.5250   48.5895 S   0  0  0  0  0  0  0  0  0  0  0  0
   62.3830   31.3861   49.8636 C   0  0  0  0  0  0  0  0  0  0  0  0
   63.9997   33.3786   49.1218 O   0  0  0  0  0  0  0  0  0  0  0  0
   63.3774   31.7785   47.3833 O   0  0  0  0  0  0  0  0  0  0  0  0
  1  2  2  0
  2  3  1  0
  3  4  2  0
  4  9  1  0
  9 10  1  0
 10 11  1  0
 11 12  2  0
 11 13  1  0
 13 14  1  0
 14 15  1  0
  3  5  1  0
  5  6  2  0
  6  7  1  0
  6  8  1  0
  8 16  1  0
 16 17  2  0
 17 18  1  0
 18 19  2  0
 19 20  1  0
 20 22  1  0
 22 23  1  0
 23 24  1  0
 23 25  2  0
 23 26  2  0
 20 21  2  0
  8  2  1  0
 21 16  1  0
 14  9  2  0
M  CHG 1  10  -1
M  CHG 1  13  -1
M  CHG 1  15  -1
M  CHG 1  22  -1
M  END
> <UniqueID>
73

> <SMILES>
C=c1c(=Cc2[n-]c(=O)[n-]c2[O-])cc(C)n1-c1cccc([N-]S(C)(=O)=O)c1

> <Energy>
115.63148266698376

> <Genealogy>
C=c1c(=Cc2[n-]c(=O)[n-]c2[O-])cc(C)n1-c1cccc([N-]S(C)(=O)=O)c1 (protonated)
C=c1c(=Cc2[n-]c(=O)[n-]c2[O-])cc(C)n1-c1cccc([N-]S(C)(=O)=O)c1 (3D coordinates assigned)
C=c1c(=Cc2[n-]c(=O)[n-]c2[O-])cc(C)n1-c1cccc([N-]S(C)(=O)=O)c1 (optimized conformer: 115.63148266698376 kcal/mol)

> <smiles>
C=c1c(=Cc2[nH]c(=O)[nH]c2O)cc(C)n1-c1cccc(NS(C)(=O)=O)c1

> <score_type>
oracle

> <origin>
adg

> <m_score__min__energy>
-16.969999999999999

> <m_primary>
energy

> <minimizedAffinity>
-7.72336

> <minimizedRMSD>
1.39056

> <CNNscore>
0.3040765524

> <CNNaffinity>
6.5555520058

> <CNN_VS>
1.9933896065

> <CNNaffinity_variance>
0.0475386865

$$$$
14:0


 25 27  0  0  0  0  0  0  0  0999 V2000
   58.1510   30.4194   44.5093 C   0  0  0  0  0  0  0  0  0  0  0  0
   58.4155   29.8397   45.6923 C   0  0  0  0  0  0  0  0  0  0  0  0
   58.1699   28.5069   46.0670 C   0  0  0  0  0  0  0  0  0  0  0  0
   57.7645   27.4426   45.3457 C   0  0  0  0  0  0  0  0  0  0  0  0
   58.4405   28.4307   47.4242 C   0  0  0  0  0  0  0  0  0  0  0  0
   58.8890   29.6735   47.8147 C   0  0  0  0  0  0  0  0  0  0  0  0
   59.2941   30.0343   49.2121 C   0  0  0  0  0  0  0  0  0  0  0  0
   58.8690   30.5298   46.7692 N   0  0  0  0  0  0  0  0  0  0  0  0
   57.5814   26.0730   45.8636 C   0  0  0  0  0  0  0  0  0  0  0  0
   56.3039   25.6149   46.2121 C   0  0  0  0  0  0  0  0  0  0  0  0
   55.1860   26.4212   46.0252 O   0  0  0  0  0  0  0  0  0  0  0  0
   56.1480   24.3677   46.7272 N   0  0  0  0  0  0  0  0  0  0  0  0
   57.2165   23.5548   46.9320 C   0  0  0  0  0  0  0  0  0  0  0  0
   57.0474   22.4018   47.4067 O   0  0  0  0  0  0  0  0  0  0  0  0
   58.4669   23.9867   46.6277 N   0  0  0  0  0  0  0  0  0  0  0  0
   58.6757   25.2248   46.1102 C   0  0  0  0  0  0  0  0  0  0  0  0
   59.8531   25.6013   45.8615 O   0  0  0  0  0  0  0  0  0  0  0  0
   59.2383   31.9185   46.8154 C   0  0  0  0  0  0  0  0  0  0  0  0
   58.2502   32.9021   46.6605 C   0  0  0  0  0  0  0  0  0  0  0  0
   58.5931   34.2557   46.6931 C   0  0  0  0  0  0  0  0  0  0  0  0
   59.9241   34.6346   46.8819 C   0  0  0  0  0  0  0  0  0  0  0  0
   60.9148   33.6622   47.0433 C   0  0  0  0  0  0  0  0  0  0  0  0
   60.5797   32.2925   47.0166 C   0  0  0  0  0  0  0  0  0  0  0  0
   61.5421   31.2866   47.1943 O   0  0  0  0  0  0  0  0  0  0  0  0
   62.8443   31.4996   47.7268 C   0  0  0  0  0  0  0  0  0  0  0  0
  1  2  2  0
  2  3  1  0
  3  4  2  0
  4  9  1  0
  9 10  2  0
 10 11  1  0
 10 12  1  0
 12 13  1  0
 13 14  2  0
 13 15  1  0
 15 16  1  0
 16 17  2  0
  3  5  1  0
  5  6  2  0
  6  7  1  0
  6  8  1  0
  8 18  1  0
 18 19  2  0
 19 20  1  0
 20 21  2  0
 21 22  1  0
 22 23  2  0
 23 24  1  0
 24 25  1  0
  8  2  1  0
 23 18  1  0
 16  9  1  0
M  CHG 1  11  -1
M  CHG 1  12  -1
M  CHG 1  15  -1
M  END
> <UniqueID>
15

> <SMILES>
C=c1/c(=C\c2c([O-])[n-]c(=O)[n-]c2=O)cc(C)n1-c1ccccc1OC

> <Energy>
90.08298318915492

> <Genealogy>
C=c1c(=Cc2c([O-])[n-]c(=O)[n-]c2=O)cc(C)n1-c1ccccc1OC (protonated)
C=c1/c(=C\c2c([O-])[n-]c(=O)[n-]c2=O)cc(C)n1-c1ccccc1OC (cis-trans isomerization)
C=c1/c(=C\c2c([O-])[n-]c(=O)[n-]c2=O)cc(C)n1-c1ccccc1OC (3D coordinates assigned)
C=c1/c(=C\c2c([O-])[n-]c(=O)[n-]c2=O)cc(C)n1-c1ccccc1OC (optimized conformer: 90.08298318915492 kcal/mol)

> <smiles>
C=c1c(=Cc2c(O)[nH]c(=O)[nH]c2=O)cc(C)n1-c1ccccc1OC

> <score_type>
oracle

> <origin>
adg

> <m_score__min__energy>
-15.09

> <m_primary>
energy

> <minimizedAffinity>
-7.33197

> <minimizedRMSD>
0.75401

> <CNNscore>
0.3123881519

> <CNNaffinity>
6.5012698174

> <CNN_VS>
2.0309195518

> <CNNaffinity_variance>
0.2033960372

$$$$
17:0


 33 36  0  0  0  0  0  0  0  0999 V2000
   60.0919   29.1643   47.2080 C   0  0  0  0  0  0  0  0  0  0  0  0
   59.4165   29.8174   46.2500 C   0  0  0  0  0  0  0  0  0  0  0  0
   58.8034   29.2760   45.1070 C   0  0  0  0  0  0  0  0  0  0  0  0
   58.6017   27.9983   44.7297 C   0  0  0  0  0  0  0  0  0  0  0  0
   58.3761   30.3561   44.3477 C   0  0  0  0  0  0  0  0  0  0  0  0
   58.6872   31.4945   45.0611 C   0  0  0  0  0  0  0  0  0  0  0  0
   58.3919   32.8956   44.6194 C   0  0  0  0  0  0  0  0  0  0  0  0
   59.3197   31.1706   46.2066 N   0  0  0  0  0  0  0  0  0  0  0  0
   58.2414   26.8845   45.6270 C   0  0  0  0  0  0  0  0  0  0  0  0
   56.9035   26.6695   45.9853 C   0  0  0  0  0  0  0  0  0  0  0  0
   55.8925   27.4659   45.4585 O   0  0  0  0  0  0  0  0  0  0  0  0
   56.5834   25.6680   46.8451 N   0  0  0  0  0  0  0  0  0  0  0  0
   57.5438   24.8743   47.3840 C   0  0  0  0  0  0  0  0  0  0  0  0
   57.2244   23.9503   48.1763 O   0  0  0  0  0  0  0  0  0  0  0  0
   58.8504   25.0798   47.0744 N   0  0  0  0  0  0  0  0  0  0  0  0
   59.2212   26.0672   46.2197 C   0  0  0  0  0  0  0  0  0  0  0  0
   60.4441   26.2427   45.9689 O   0  0  0  0  0  0  0  0  0  0  0  0
   59.8018   32.1047   47.1849 C   0  0  0  0  0  0  0  0  0  0  0  0
   61.1827   32.2830   47.3387 C   0  0  0  0  0  0  0  0  0  0  0  0
   61.6871   33.1673   48.3063 C   0  0  0  0  0  0  0  0  0  0  0  0
   60.7870   33.8969   49.0997 C   0  0  0  0  0  0  0  0  0  0  0  0
   59.4089   33.7281   48.9433 C   0  0  0  0  0  0  0  0  0  0  0  0
   58.9073   32.8344   47.9910 C   0  0  0  0  0  0  0  0  0  0  0  0
   57.5263   32.6960   47.8573 O   0  0  0  0  0  0  0  0  0  0  0  0
   56.9505   33.1923   48.4051 H   0  0  0  0  0  0  0  0  0  0  0  0
   63.1478   33.3500   48.4706 C   0  0  0  0  0  0  0  0  0  0  0  0
   63.8648   33.5600   47.4549 O   0  0  0  0  0  0  0  0  0  0  0  0
   63.7684   33.2621   49.7653 N   0  0  0  0  0  0  0  0  0  0  0  0
   63.2681   34.0682   50.8862 C   0  0  0  0  0  0  0  0  0  0  0  0
   63.4726   33.3332   52.2320 C   0  0  0  0  0  0  0  0  0  0  0  0
   64.2977   32.1827   52.1390 O   0  0  0  0  0  0  0  0  0  0  0  0
   65.4471   32.4629   51.3705 C   0  0  0  0  0  0  0  0  0  0  0  0
   65.0559   32.5741   49.8964 C   0  0  0  0  0  0  0  0  0  0  0  0
  1  2  2  0
  2  3  1  0
  3  4  2  0
  4  9  1  0
  9 10  2  0
 10 11  1  0
 10 12  1  0
 12 13  1  0
 13 14  2  0
 13 15  1  0
 15 16  1  0
 16 17  2  0
  3  5  1  0
  5  6  2  0
  6  7  1  0
  6  8  1  0
  8 18  1  0
 18 19  2  0
 19 20  1  0
 20 26  1  0
 26 27  2  0
 26 28  1  0
 28 29  1  0
 29 30  1  0
 30 31  1  0
 31 32  1  0
 32 33  1  0
 20 21  2  0
 21 22  1  0
 22 23  2  0
 23 24  1  0
  8  2  1  0
 23 18  1  0
 16  9  1  0
 33 28  1  0
 24 25  1  0
M  CHG 1  11  -1
M  CHG 1  12  -1
M  CHG 1  15  -1
M  END
> <UniqueID>
18

> <SMILES>
C=c1c(=Cc2c([O-])[n-]c(=O)[n-]c2=O)cc(C)n1-c1cc(C(=O)N2CCOCC2)ccc1O

> <Energy>
114.27155537082018

> <Genealogy>
C=c1c(=Cc2c([O-])[n-]c(=O)[n-]c2=O)cc(C)n1-c1cc(C(=O)N2CCOCC2)ccc1O (protonated)
C=c1c(=Cc2c([O-])[n-]c(=O)[n-]c2=O)cc(C)n1-c1cc(C(=O)N2CCOCC2)ccc1O (3D coordinates assigned)
C=c1c(=Cc2c([O-])[n-]c(=O)[n-]c2=O)cc(C)n1-c1cc(C(=O)N2CCOCC2)ccc1O (nonaromatic ring conformer: 114.27155537082018 kcal/mol)

> <smiles>
C=c1c(=Cc2c(O)[nH]c(=O)[nH]c2=O)cc(C)n1-c1cc(C(=O)N2CCOCC2)ccc1O

> <score_type>
oracle

> <origin>
adg

> <m_score__min__energy>
-16.710000000000001

> <m_primary>
energy

> <minimizedAffinity>
-7.23143

> <minimizedRMSD>
1.19520

> <CNNscore>
0.1131780297

> <CNNaffinity>
6.0501484871

> <CNN_VS>
0.6847438812

> <CNNaffinity_variance>
0.0955050662

$$$$
21:0


 40 44  0  0  0  0  0  0  0  0999 V2000
   61.5376   31.6465   49.4838 C   0  0  0  0  0  0  0  0  0  0  0  0
   62.9332   31.6405   49.6390 C   0  0  0  0  0  0  0  0  0  0  0  0
   63.7229   32.5978   49.0020 C   0  0  0  0  0  0  0  0  0  0  0  0
   63.1268   33.5803   48.2128 C   0  0  0  0  0  0  0  0  0  0  0  0
   61.7403   33.6003   48.0467 C   0  0  0  0  0  0  0  0  0  0  0  0
   60.9351   32.6297   48.6625 C   0  0  0  0  0  0  0  0  0  0  0  0
   60.3653   31.9647   52.1890 C   0  0  0  0  0  0  0  0  0  0  0  0
   60.1425   30.8863   51.4216 C   0  0  0  0  0  0  0  0  0  0  0  0
   59.3907   29.7473   51.7569 C   0  0  0  0  0  0  0  0  0  0  0  0
   58.5875   29.4938   52.8094 C   0  0  0  0  0  0  0  0  0  0  0  0
   59.6031   28.8325   50.7420 C   0  0  0  0  0  0  0  0  0  0  0  0
   60.4014   29.4499   49.8034 C   0  0  0  0  0  0  0  0  0  0  0  0
   60.7556   28.8346   48.4813 C   0  0  0  0  0  0  0  0  0  0  0  0
   60.7492   30.6890   50.2209 N   0  0  0  0  0  0  0  0  0  0  0  0
   57.1542   29.8059   52.8901 C   0  0  0  0  0  0  0  0  0  0  0  0
   56.2415   28.9670   53.4117 N   0  0  0  0  0  0  0  0  0  0  0  0
   55.0696   29.5910   53.1631 C   0  0  0  0  0  0  0  0  0  0  0  0
   53.9606   29.1179   53.5252 O   0  0  0  0  0  0  0  0  0  0  0  0
   55.1774   30.7565   52.4897 N   0  0  0  0  0  0  0  0  0  0  0  0
   56.5022   30.8699   52.3091 C   0  0  0  0  0  0  0  0  0  0  0  0
   57.1042   31.9108   51.6087 O   0  0  0  0  0  0  0  0  0  0  0  0
   56.5789   32.5964   51.2454 H   0  0  0  0  0  0  0  0  0  0  0  0
   59.4761   32.6800   48.4559 C   0  0  0  0  0  0  0  0  0  0  0  0
   58.7150   32.3127   49.3921 O   0  0  0  0  0  0  0  0  0  0  0  0
   58.9133   33.1560   47.2203 N   0  0  0  0  0  0  0  0  0  0  0  0
   59.3559   34.4382   46.6669 C   0  0  0  0  0  0  0  0  0  0  0  0
   59.2917   34.4226   45.1310 C   0  0  0  0  0  0  0  0  0  0  0  0
   58.0856   33.7598   44.5666 N   0  0  0  0  0  0  0  0  0  0  0  0
   57.0742   33.3755   45.5780 C   0  0  0  0  0  0  0  0  0  0  0  0
   57.6760   32.5494   46.7211 C   0  0  0  0  0  0  0  0  0  0  0  0
   58.4337   32.6495   43.6542 C   0  0  0  0  0  0  0  0  0  0  0  0
   58.1676   31.3142   44.2950 C   0  0  0  0  0  0  0  0  0  0  0  0
   56.9193   30.6940   44.1388 C   0  0  0  0  0  0  0  0  0  0  0  0
   56.6669   29.4530   44.7323 C   0  0  0  0  0  0  0  0  0  0  0  0
   57.6624   28.8060   45.4832 C   0  0  0  0  0  0  0  0  0  0  0  0
   58.9166   29.4272   45.6284 C   0  0  0  0  0  0  0  0  0  0  0  0
   59.1669   30.6698   45.0399 C   0  0  0  0  0  0  0  0  0  0  0  0
   57.3919   27.4939   46.1096 C   0  0  0  0  0  0  0  0  0  0  0  0
   56.3382   26.8601   45.8366 O   0  0  0  0  0  0  0  0  0  0  0  0
   58.2958   26.9417   47.0100 O   0  0  0  0  0  0  0  0  0  0  0  0
  7  8  2  0
  8  9  1  0
  9 10  2  0
 10 15  1  0
 15 16  1  0
 16 17  1  0
 17 18  2  0
 17 19  1  0
 19 20  1  0
 20 21  1  0
  9 11  1  0
 11 12  2  0
 12 13  1  0
 12 14  1  0
 14  1  1  0
  1  2  2  0
  2  3  1  0
  3  4  2  0
  4  5  1  0
  5  6  2  0
  6 23  1  0
 23 24  2  0
 23 25  1  0
 25 26  1  0
 26 27  1  0
 27 28  1  0
 28 31  1  0
 31 32  1  0
 32 33  2  0
 33 34  1  0
 34 35  2  0
 35 38  1  0
 38 39  2  0
 38 40  1  0
 35 36  1  0
 36 37  2  0
 28 29  1  0
 29 30  1  0
 14  8  1  0
  6  1  1  0
 30 25  1  0
 20 15  2  0
 37 32  1  0
 21 22  1  0
M  CHG 1  16  -1
M  CHG 1  19  -1
M  CHG 1  40  -1
M  END
> <UniqueID>
21

> <SMILES>
C=c1c(=Cc2[n-]c(=O)[n-]c2O)cc(C)n1-c1ccccc1C(=O)N1CCN(Cc2ccc(C(=O)[O-])cc2)CC1

> <Energy>
157.34457573102748

> <Genealogy>
C=c1c(=Cc2[n-]c(=O)[n-]c2O)cc(C)n1-c1ccccc1C(=O)N1CCN(Cc2ccc(C(=O)[O-])cc2)CC1 (protonated)
C=c1c(=Cc2[n-]c(=O)[n-]c2O)cc(C)n1-c1ccccc1C(=O)N1CCN(Cc2ccc(C(=O)[O-])cc2)CC1 (3D coordinates assigned)
C=c1c(=Cc2[n-]c(=O)[n-]c2O)cc(C)n1-c1ccccc1C(=O)N1CCN(Cc2ccc(C(=O)[O-])cc2)CC1 (nonaromatic ring conformer: 157.34457573102748 kcal/mol)

> <smiles>
C=c1c(=Cc2[nH]c(=O)[nH]c2O)cc(C)n1-c1ccccc1C(=O)N1CCN(Cc2ccc(C(=O)O)cc2)CC1

> <score_type>
oracle

> <origin>
adg

> <m_score__min__energy>
-15.69

> <m_primary>
energy

> <minimizedAffinity>
-7.62848

> <minimizedRMSD>
0.60449

> <CNNscore>
0.0793495551

> <CNNaffinity>
6.1729869843

> <CNN_VS>
0.4898237586

> <CNNaffinity_variance>
1.4980286360

$$$$
43:0


 35 39  0  0  0  0  0  0  0  0999 V2000
   59.5234   30.2153   47.1667 C   0  0  0  0  0  0  0  0  0  0  0  0
   58.7964   30.6060   48.3001 C   0  0  0  0  0  0  0  0  0  0  0  0
   59.3727   31.4557   49.2473 C   0  0  0  0  0  0  0  0  0  0  0  0
   60.6819   31.9305   49.0684 C   0  0  0  0  0  0  0  0  0  0  0  0
   61.4107   31.5332   47.9345 C   0  0  0  0  0  0  0  0  0  0  0  0
   60.8308   30.6870   46.9863 C   0  0  0  0  0  0  0  0  0  0  0  0
   59.4805   27.2407   47.2003 C   0  0  0  0  0  0  0  0  0  0  0  0
   58.9018   27.9762   46.2371 C   0  0  0  0  0  0  0  0  0  0  0  0
   58.2019   27.4919   45.1273 C   0  0  0  0  0  0  0  0  0  0  0  0
   57.9898   26.2027   44.7960 C   0  0  0  0  0  0  0  0  0  0  0  0
   57.8177   28.6077   44.3918 C   0  0  0  0  0  0  0  0  0  0  0  0
   58.2726   29.7130   45.0833 C   0  0  0  0  0  0  0  0  0  0  0  0
   58.1048   31.1318   44.6315 C   0  0  0  0  0  0  0  0  0  0  0  0
   58.9304   29.3325   46.2004 N   0  0  0  0  0  0  0  0  0  0  0  0
   57.4367   25.1921   45.7169 C   0  0  0  0  0  0  0  0  0  0  0  0
   56.1728   25.2027   46.2636 C   0  0  0  0  0  0  0  0  0  0  0  0
   55.2400   26.2209   46.1255 O   0  0  0  0  0  0  0  0  0  0  0  0
   55.9476   24.0720   46.9600 N   0  0  0  0  0  0  0  0  0  0  0  0
   57.0985   23.3868   46.7955 C   0  0  0  0  0  0  0  0  0  0  0  0
   57.2869   22.2424   47.2839 O   0  0  0  0  0  0  0  0  0  0  0  0
   58.0178   24.0262   46.0458 N   0  0  0  0  0  0  0  0  0  0  0  0
   58.9156   23.7095   45.7950 H   0  0  0  0  0  0  0  0  0  0  0  0
   61.3246   32.7958   50.1188 C   0  0  0  0  0  0  0  0  0  0  0  0
   62.6037   32.1637   50.5962 C   0  0  0  0  0  0  0  0  0  0  0  0
   62.6286   30.8149   50.9735 C   0  0  0  0  0  0  0  0  0  0  0  0
   63.8055   30.2431   51.4601 C   0  0  0  0  0  0  0  0  0  0  0  0
   64.9617   31.0164   51.5890 C   0  0  0  0  0  0  0  0  0  0  0  0
   64.9552   32.3772   51.2335 C   0  0  0  0  0  0  0  0  0  0  0  0
   63.7670   32.9409   50.7326 C   0  0  0  0  0  0  0  0  0  0  0  0
   66.1460   33.1833   51.3824 N   0  0  0  0  0  0  0  0  0  0  0  0
   66.2074   34.2082   52.4379 C   0  0  0  0  0  0  0  0  0  0  0  0
   67.2498   35.3161   52.1384 C   0  0  0  0  0  0  0  0  0  0  0  0
   68.0309   35.0844   50.9817 O   0  0  0  0  0  0  0  0  0  0  0  0
   68.5075   33.7589   50.9780 C   0  0  0  0  0  0  0  0  0  0  0  0
   67.3583   32.8224   50.6303 C   0  0  0  0  0  0  0  0  0  0  0  0
  7  8  2  0
  8  9  1  0
  9 10  2  0
 10 15  1  0
 15 16  2  0
 16 17  1  0
 16 18  1  0
 18 19  1  0
 19 20  2  0
 19 21  1  0
  9 11  1  0
 11 12  2  0
 12 13  1  0
 12 14  1  0
 14  1  1  0
  1  2  2  0
  2  3  1  0
  3  4  2  0
  4 23  1  0
 23 24  1  0
 24 25  2  0
 25 26  1  0
 26 27  2  0
 27 28  1  0
 28 30  1  0
 30 31  1  0
 31 32  1  0
 32 33  1  0
 33 34  1  0
 34 35  1  0
 28 29  2  0
  4  5  1  0
  5  6  2  0
 14  8  1  0
  6  1  1  0
 21 15  1  0
 29 24  1  0
 35 30  1  0
 21 22  1  0
M  CHG 1  17  -1
M  CHG 1  18  -1
M  END
> <UniqueID>
42

> <SMILES>
C=c1/c(=C/c2[nH]c(=O)[n-]c2[O-])cc(C)n1-c1ccc(Cc2cccc(N3CCOCC3)c2)cc1

> <Energy>
144.49439820874395

> <Genealogy>
C=c1c(=Cc2[nH]c(=O)[n-]c2[O-])cc(C)n1-c1ccc(Cc2cccc(N3CCOCC3)c2)cc1 (protonated)
C=c1/c(=C/c2[nH]c(=O)[n-]c2[O-])cc(C)n1-c1ccc(Cc2cccc(N3CCOCC3)c2)cc1 (cis-trans isomerization)
C=c1/c(=C/c2[nH]c(=O)[n-]c2[O-])cc(C)n1-c1ccc(Cc2cccc(N3CCOCC3)c2)cc1 (3D coordinates assigned)
C=c1/c(=C/c2[nH]c(=O)[n-]c2[O-])cc(C)n1-c1ccc(Cc2cccc(N3CCOCC3)c2)cc1 (nonaromatic ring conformer: 144.49439820874395 kcal/mol)

> <smiles>
C=c1c(=Cc2[nH]c(=O)[nH]c2O)cc(C)n1-c1ccc(Cc2cccc(N3CCOCC3)c2)cc1

> <score_type>
oracle

> <origin>
adg

> <m_score__min__energy>
-15.51

> <m_primary>
energy

> <minimizedAffinity>
-8.87014

> <minimizedRMSD>
2.13627

> <CNNscore>
0.2503058016

> <CNNaffinity>
6.6686916351

> <CNN_VS>
1.6692122221

> <CNNaffinity_variance>
0.5522893667

$$$$
52:0


 33 37  0  0  0  0  0  0  0  0999 V2000
   61.2815   31.1956   47.5171 C   0  0  0  0  0  0  0  0  0  0  0  0
   62.6620   31.2626   47.2727 C   0  0  0  0  0  0  0  0  0  0  0  0
   63.3340   32.4844   47.3447 C   0  0  0  0  0  0  0  0  0  0  0  0
   62.6320   33.6499   47.6567 C   0  0  0  0  0  0  0  0  0  0  0  0
   61.2570   33.5984   47.8947 C   0  0  0  0  0  0  0  0  0  0  0  0
   60.5671   32.3757   47.8295 C   0  0  0  0  0  0  0  0  0  0  0  0
   59.1019   32.3536   48.0502 C   0  0  0  0  0  0  0  0  0  0  0  0
   58.6607   32.0662   49.1965 O   0  0  0  0  0  0  0  0  0  0  0  0
   58.1759   32.6412   46.9813 N   0  0  0  0  0  0  0  0  0  0  0  0
   57.3642   31.5711   46.3687 C   0  0  0  0  0  0  0  0  0  0  0  0
   57.5617   31.5981   44.8875 C   0  0  0  0  0  0  0  0  0  0  0  0
   57.2115   30.6819   44.0173 O   0  0  0  0  0  0  0  0  0  0  0  0
   57.5793   31.1306   42.8319 C   0  0  0  0  0  0  0  0  0  0  0  0
   58.1690   32.3440   42.9093 N   0  0  0  0  0  0  0  0  0  0  0  0
   58.1397   32.6410   44.2172 C   0  0  0  0  0  0  0  0  0  0  0  0
   58.7456   33.8359   44.8874 C   0  0  0  0  0  0  0  0  0  0  0  0
   58.1889   33.9613   46.3175 C   0  0  0  0  0  0  0  0  0  0  0  0
   58.5361   32.8861   42.1741 H   0  0  0  0  0  0  0  0  0  0  0  0
   60.3434   29.7074   45.1145 C   0  0  0  0  0  0  0  0  0  0  0  0
   60.2215   29.2388   46.3662 C   0  0  0  0  0  0  0  0  0  0  0  0
   59.6458   28.0227   46.7466 C   0  0  0  0  0  0  0  0  0  0  0  0
   59.1677   27.0581   45.9380 C   0  0  0  0  0  0  0  0  0  0  0  0
   59.7112   27.9784   48.1345 C   0  0  0  0  0  0  0  0  0  0  0  0
   60.3151   29.1526   48.5391 C   0  0  0  0  0  0  0  0  0  0  0  0
   60.6034   29.5233   49.9614 C   0  0  0  0  0  0  0  0  0  0  0  0
   60.6242   29.9165   47.4688 N   0  0  0  0  0  0  0  0  0  0  0  0
   58.1543   26.0681   46.3441 C   0  0  0  0  0  0  0  0  0  0  0  0
   58.4614   24.8344   46.7816 N   0  0  0  0  0  0  0  0  0  0  0  0
   57.2557   24.2515   46.9523 C   0  0  0  0  0  0  0  0  0  0  0  0
   57.1264   23.0728   47.3728 O   0  0  0  0  0  0  0  0  0  0  0  0
   56.1997   25.0269   46.6267 N   0  0  0  0  0  0  0  0  0  0  0  0
   56.7850   26.1697   46.2312 C   0  0  0  0  0  0  0  0  0  0  0  0
   56.0804   27.2591   45.7336 O   0  0  0  0  0  0  0  0  0  0  0  0
 19 20  2  0
 20 21  1  0
 21 22  2  0
 22 27  1  0
 27 28  1  0
 28 29  1  0
 29 30  2  0
 29 31  1  0
 31 32  1  0
 32 33  1  0
 21 23  1  0
 23 24  2  0
 24 25  1  0
 24 26  1  0
 26  1  1  0
  1  2  2  0
  2  3  1  0
  3  4  2  0
  4  5  1  0
  5  6  2  0
  6  7  1  0
  7  8  2  0
  7  9  1  0
  9 10  1  0
 10 11  1  0
 11 12  1  0
 12 13  1  0
 13 14  2  0
 14 15  1  0
 15 16  1  0
 16 17  1  0
 26 20  1  0
  6  1  1  0
 17  9  1  0
 32 27  2  0
 15 11  2  0
 14 18  1  0
M  CHG 1  14   1
M  CHG 1  28  -1
M  CHG 1  31  -1
M  CHG 1  33  -1
M  END
> <UniqueID>
51

> <SMILES>
C=c1/c(=C/c2[n-]c(=O)[n-]c2[O-])cc(C)n1-c1ccccc1C(=O)N1CCc2[nH+]coc2C1

> <Energy>
166.6241929145453

> <Genealogy>
C=c1c(=Cc2[n-]c(=O)[n-]c2[O-])cc(C)n1-c1ccccc1C(=O)N1CCc2[nH+]coc2C1 (protonated)
C=c1/c(=C/c2[n-]c(=O)[n-]c2[O-])cc(C)n1-c1ccccc1C(=O)N1CCc2[nH+]coc2C1 (cis-trans isomerization)
C=c1/c(=C/c2[n-]c(=O)[n-]c2[O-])cc(C)n1-c1ccccc1C(=O)N1CCc2[nH+]coc2C1 (3D coordinates assigned)
C=c1/c(=C/c2[n-]c(=O)[n-]c2[O-])cc(C)n1-c1ccccc1C(=O)N1CCc2[nH+]coc2C1 (nonaromatic ring conformer: 166.6241929145453 kcal/mol)

> <smiles>
C=c1c(=Cc2[nH]c(=O)[nH]c2O)cc(C)n1-c1ccccc1C(=O)N1CCc2ncoc2C1

> <score_type>
oracle

> <origin>
adg

> <m_score__min__energy>
-15.49

> <m_primary>
energy

> <minimizedAffinity>
-7.18116

> <minimizedRMSD>
1.00772

> <CNNscore>
0.2429107577

> <CNNaffinity>
7.0103530884

> <CNN_VS>
1.7028901577

> <CNNaffinity_variance>
0.0563189052

$$$$
56:0


 32 35  0  0  0  0  0  0  0  0999 V2000
   57.5294   29.9695   44.4050 C   0  0  0  0  0  0  0  0  0  0  0  0
   58.1116   30.9883   45.0682 C   0  0  0  0  0  0  0  0  0  0  0  0
   58.0309   32.3032   44.6393 C   0  0  0  0  0  0  0  0  0  0  0  0
   58.6658   33.0734   45.5910 C   0  0  0  0  0  0  0  0  0  0  0  0
   58.7971   34.5662   45.5262 C   0  0  0  0  0  0  0  0  0  0  0  0
   59.1758   32.2914   46.5670 N   0  0  0  0  0  0  0  0  0  0  0  0
   58.8704   31.0070   46.2500 C   0  0  0  0  0  0  0  0  0  0  0  0
   59.3760   29.9479   46.9035 C   0  0  0  0  0  0  0  0  0  0  0  0
   59.7926   27.8936   44.1628 O   0  0  0  0  0  0  0  0  0  0  0  0
   58.5543   27.6610   44.7552 C   0  0  0  0  0  0  0  0  0  0  0  0
   58.2184   26.5108   45.3612 N   0  0  0  0  0  0  0  0  0  0  0  0
   56.9729   26.7709   45.8161 C   0  0  0  0  0  0  0  0  0  0  0  0
   56.2978   25.9258   46.4607 O   0  0  0  0  0  0  0  0  0  0  0  0
   56.5135   28.0099   45.5375 N   0  0  0  0  0  0  0  0  0  0  0  0
   57.5168   28.5626   44.8341 C   0  0  0  0  0  0  0  0  0  0  0  0
   60.4426   27.2187   44.1553 H   0  0  0  0  0  0  0  0  0  0  0  0
   59.9293   32.7490   47.7048 C   0  0  0  0  0  0  0  0  0  0  0  0
   59.2696   33.3187   48.8010 C   0  0  0  0  0  0  0  0  0  0  0  0
   59.9992   33.7708   49.9031 C   0  0  0  0  0  0  0  0  0  0  0  0
   61.3913   33.6531   49.9182 C   0  0  0  0  0  0  0  0  0  0  0  0
   62.0687   33.0703   48.8318 C   0  0  0  0  0  0  0  0  0  0  0  0
   61.3273   32.6316   47.7220 C   0  0  0  0  0  0  0  0  0  0  0  0
   63.5454   32.9510   48.8374 C   0  0  0  0  0  0  0  0  0  0  0  0
   64.1935   33.3028   47.8134 O   0  0  0  0  0  0  0  0  0  0  0  0
   64.2575   32.4691   49.9911 N   0  0  0  0  0  0  0  0  0  0  0  0
   65.5791   33.0236   50.2993 C   0  0  0  0  0  0  0  0  0  0  0  0
   66.0758   32.5218   51.6637 C   0  0  0  0  0  0  0  0  0  0  0  0
   64.9706   32.3983   52.6419 N   0  0  0  0  0  0  0  0  0  0  0  0
   63.9591   31.3976   52.2098 C   0  0  0  0  0  0  0  0  0  0  0  0
   63.8304   31.2457   50.6791 C   0  0  0  0  0  0  0  0  0  0  0  0
   64.3493   33.6942   53.0054 C   0  0  0  0  0  0  0  0  0  0  0  0
   62.8858   33.5285   53.4173 C   0  0  0  0  0  0  0  0  0  0  0  0
  9 10  1  0
 10 11  1  0
 11 12  1  0
 12 13  2  0
 12 14  1  0
 14 15  1  0
 15  1  1  0
  1  2  2  0
  2  3  1  0
  3  4  2  0
  4  5  1  0
  4  6  1  0
  6 17  1  0
 17 18  2  0
 18 19  1  0
 19 20  2  0
 20 21  1  0
 21 23  1  0
 23 24  2  0
 23 25  1  0
 25 26  1  0
 26 27  1  0
 27 28  1  0
 28 31  1  0
 31 32  1  0
 28 29  1  0
 29 30  1  0
 21 22  2  0
  6  7  1  0
  7  8  2  0
 15 10  2  0
  7  2  1  0
 22 17  1  0
 30 25  1  0
  9 16  1  0
M  CHG 1  11  -1
M  CHG 1  14  -1
M  END
> <UniqueID>
55

> <SMILES>
C=c1/c(=C\c2[n-]c(=O)[n-]c2O)cc(C)n1-c1cccc(C(=O)N2CCN(CC)CC2)c1

> <Energy>
144.9361898678688

> <Genealogy>
C=c1c(=Cc2[n-]c(=O)[n-]c2O)cc(C)n1-c1cccc(C(=O)N2CCN(CC)CC2)c1 (protonated)
C=c1/c(=C\c2[n-]c(=O)[n-]c2O)cc(C)n1-c1cccc(C(=O)N2CCN(CC)CC2)c1 (cis-trans isomerization)
C=c1/c(=C\c2[n-]c(=O)[n-]c2O)cc(C)n1-c1cccc(C(=O)N2CCN(CC)CC2)c1 (3D coordinates assigned)
C=c1/c(=C\c2[n-]c(=O)[n-]c2O)cc(C)n1-c1cccc(C(=O)N2CCN(CC)CC2)c1 (nonaromatic ring conformer: 144.9361898678688 kcal/mol)

> <smiles>
C=c1c(=Cc2[nH]c(=O)[nH]c2O)cc(C)n1-c1cccc(C(=O)N2CCN(CC)CC2)c1

> <score_type>
oracle

> <origin>
adg

> <m_score__min__energy>
-14.619999999999999

> <m_primary>
energy

> <minimizedAffinity>
-7.52042

> <minimizedRMSD>
0.70909

> <CNNscore>
0.2769291699

> <CNNaffinity>
6.6884479523

> <CNN_VS>
1.8522263765

> <CNNaffinity_variance>
0.0753500685

$$$$
60:0


 31 33  0  0  0  0  0  0  0  0999 V2000
   58.7732   30.6755   50.6854 C   0  0  0  0  0  0  0  0  0  0  0  0
   58.8566   31.8530   49.7650 C   0  0  0  0  0  0  0  0  0  0  0  0
   58.7189   33.0173   50.2294 O   0  0  0  0  0  0  0  0  0  0  0  0
   59.0216   31.6403   48.3582 N   0  0  0  0  0  0  0  0  0  0  0  0
   58.9908   32.6439   47.3305 C   0  0  0  0  0  0  0  0  0  0  0  0
   57.8126   32.9017   46.6004 C   0  0  0  0  0  0  0  0  0  0  0  0
   57.7956   33.8827   45.6068 C   0  0  0  0  0  0  0  0  0  0  0  0
   58.9482   34.6212   45.3320 C   0  0  0  0  0  0  0  0  0  0  0  0
   60.1168   34.3928   46.0630 C   0  0  0  0  0  0  0  0  0  0  0  0
   60.1471   33.4193   47.0770 C   0  0  0  0  0  0  0  0  0  0  0  0
   61.3969   33.2226   47.8531 C   0  0  0  0  0  0  0  0  0  0  0  0
   61.6791   34.0439   48.9585 C   0  0  0  0  0  0  0  0  0  0  0  0
   62.8589   33.8628   49.6900 C   0  0  0  0  0  0  0  0  0  0  0  0
   63.7589   32.8557   49.3309 C   0  0  0  0  0  0  0  0  0  0  0  0
   63.4812   32.0290   48.2403 C   0  0  0  0  0  0  0  0  0  0  0  0
   62.3032   32.2046   47.5061 C   0  0  0  0  0  0  0  0  0  0  0  0
   60.0713   30.0179   50.8055 N   0  0  0  0  0  0  0  0  0  0  0  0
   61.0875   27.9314   50.8329 O   0  0  0  0  0  0  0  0  0  0  0  0
   60.4404   28.7856   50.1685 C   0  0  0  0  0  0  0  0  0  0  0  0
   60.1225   28.5199   48.7214 C   0  0  0  0  0  0  0  0  0  0  0  0
   60.3650   27.1154   48.3959 N   0  0  0  0  0  0  0  0  0  0  0  0
   59.3982   26.6545   47.0265 S   0  0  0  0  0  0  0  0  0  0  0  0
   60.1908   25.7272   46.1498 O   0  0  0  0  0  0  0  0  0  0  0  0
   58.1707   25.9280   47.4982 O   0  0  0  0  0  0  0  0  0  0  0  0
   58.9355   28.0777   46.0937 C   0  0  0  0  0  0  0  0  0  0  0  0
   59.9141   28.9593   45.6078 C   0  0  0  0  0  0  0  0  0  0  0  0
   59.5426   30.0576   44.8264 C   0  0  0  0  0  0  0  0  0  0  0  0
   58.1940   30.2843   44.5296 C   0  0  0  0  0  0  0  0  0  0  0  0
   57.2162   29.4065   45.0073 C   0  0  0  0  0  0  0  0  0  0  0  0
   55.8768   29.6259   44.7058 O   0  0  0  0  0  0  0  0  0  0  0  0
   57.5866   28.3022   45.7859 C   0  0  0  0  0  0  0  0  0  0  0  0
 18 19  2  0
 19 20  1  0
 20 21  1  0
 21 22  1  0
 22 23  2  0
 22 24  2  0
 22 25  1  0
 25 26  2  0
 26 27  1  0
 27 28  2  0
 28 29  1  0
 29 30  1  0
 29 31  2  0
 19 17  1  0
 17  1  1  0
  1  2  1  0
  2  3  2  0
  2  4  1  0
  4  5  1  0
  5  6  2  0
  6  7  1  0
  7  8  2  0
  8  9  1  0
  9 10  2  0
 10 11  1  0
 11 12  2  0
 12 13  1  0
 13 14  2  0
 14 15  1  0
 15 16  2  0
 31 25  1  0
 10  5  1  0
 16 11  1  0
M  CHG 1   4  -1
M  CHG 1  17  -1
M  CHG 1  21  -1
M  CHG 1  30  -1
M  END
> <UniqueID>
59

> <SMILES>
O=C(C[N-]S(=O)(=O)c1cccc([O-])c1)[N-]CC(=O)[N-]c1ccccc1-c1ccccc1

> <Energy>
55.532717959686636

> <Genealogy>
O=C(C[N-]S(=O)(=O)c1cccc([O-])c1)[N-]CC(=O)[N-]c1ccccc1-c1ccccc1 (protonated)
O=C(C[N-]S(=O)(=O)c1cccc([O-])c1)[N-]CC(=O)[N-]c1ccccc1-c1ccccc1 (3D coordinates assigned)
O=C(C[N-]S(=O)(=O)c1cccc([O-])c1)[N-]CC(=O)[N-]c1ccccc1-c1ccccc1 (optimized conformer: 55.532717959686636 kcal/mol)

> <smiles>
O=C(CNS(=O)(=O)c1cccc(O)c1)NCC(=O)Nc1ccccc1-c1ccccc1

> <score_type>
oracle

> <origin>
adg

> <m_score__min__energy>
-16.079999999999998

> <m_primary>
energy

> <minimizedAffinity>
-7.29872

> <minimizedRMSD>
0.85817

> <CNNscore>
0.9067043662

> <CNNaffinity>
6.8642692566

> <CNN_VS>
6.2238631248

> <CNNaffinity_variance>
0.0418646522

$$$$
62:0


 35 38  0  0  0  0  0  0  0  0999 V2000
   55.9392   29.9680   53.0676 C   0  0  0  0  0  0  0  0  0  0  0  0
   56.6109   29.7952   51.9016 N   0  0  0  0  0  0  0  0  0  0  0  0
   57.9588   29.9238   51.8038 C   0  0  0  0  0  0  0  0  0  0  0  0
   58.5005   29.7429   50.6285 N   0  0  0  0  0  0  0  0  0  0  0  0
   58.6947   30.2102   52.9811 C   0  0  0  0  0  0  0  0  0  0  0  0
   59.9555   30.2320   52.9697 O   0  0  0  0  0  0  0  0  0  0  0  0
   58.0254   30.4264   54.1597 N   0  0  0  0  0  0  0  0  0  0  0  0
   58.7732   30.7345   55.3854 C   0  0  0  0  0  0  0  0  0  0  0  0
   56.6662   30.3065   54.2164 C   0  0  0  0  0  0  0  0  0  0  0  0
   52.2502   30.7077   52.5079 C   0  0  0  0  0  0  0  0  0  0  0  0
   51.6593   29.5735   53.0922 C   0  0  0  0  0  0  0  0  0  0  0  0
   52.4525   28.5738   53.6563 C   0  0  0  0  0  0  0  0  0  0  0  0
   53.8430   28.6936   53.6532 C   0  0  0  0  0  0  0  0  0  0  0  0
   54.4602   29.8232   53.0864 C   0  0  0  0  0  0  0  0  0  0  0  0
   53.6528   30.8205   52.5064 C   0  0  0  0  0  0  0  0  0  0  0  0
   50.4744   32.4942   52.7068 N   0  0  0  0  0  0  0  0  0  0  0  0
   51.4048   31.7677   51.9076 C   0  0  0  0  0  0  0  0  0  0  0  0
   51.4980   32.0362   50.6796 O   0  0  0  0  0  0  0  0  0  0  0  0
   49.9176   33.1961   52.2987 H   0  0  0  0  0  0  0  0  0  0  0  0
   59.2762   30.6645   49.8481 C   0  0  0  0  0  0  0  0  0  0  0  0
   60.3395   30.1871   49.0735 C   0  0  0  0  0  0  0  0  0  0  0  0
   61.0602   31.0575   48.2521 C   0  0  0  0  0  0  0  0  0  0  0  0
   60.7131   32.4181   48.1829 C   0  0  0  0  0  0  0  0  0  0  0  0
   59.6171   32.8863   48.9258 C   0  0  0  0  0  0  0  0  0  0  0  0
   58.8982   32.0136   49.7467 C   0  0  0  0  0  0  0  0  0  0  0  0
   61.4647   33.3462   47.2654 C   0  0  0  0  0  0  0  0  0  0  0  0
   62.9338   33.3778   47.5968 C   0  0  0  0  0  0  0  0  0  0  0  0
   63.7814   33.3438   46.6635 O   0  0  0  0  0  0  0  0  0  0  0  0
   63.3888   33.4636   48.9615 N   0  0  0  0  0  0  0  0  0  0  0  0
   64.6927   32.8968   49.3196 C   0  0  0  0  0  0  0  0  0  0  0  0
   64.8547   32.8180   50.8469 C   0  0  0  0  0  0  0  0  0  0  0  0
   63.5949   32.4240   51.5121 N   0  0  0  0  0  0  0  0  0  0  0  0
   63.2218   31.0319   51.2027 C   0  0  0  0  0  0  0  0  0  0  0  0
   62.4733   33.3651   51.2548 C   0  0  0  0  0  0  0  0  0  0  0  0
   62.6476   34.2146   49.9808 C   0  0  0  0  0  0  0  0  0  0  0  0
 16 17  1  0
 17 18  2  0
 17 10  1  0
 10 11  2  0
 11 12  1  0
 12 13  2  0
 13 14  1  0
 14  1  1  0
  1  2  1  0
  2  3  1  0
  3  4  2  0
  4 20  1  0
 20 21  2  0
 21 22  1  0
 22 23  2  0
 23 26  1  0
 26 27  1  0
 27 28  2  0
 27 29  1  0
 29 30  1  0
 30 31  1  0
 31 32  1  0
 32 33  1  0
 32 34  1  0
 34 35  1  0
 23 24  1  0
 24 25  2  0
  3  5  1  0
  5  6  2  0
  5  7  1  0
  7  8  1  0
  7  9  1  0
 14 15  2  0
 15 10  1  0
  9  1  2  0
 25 20  1  0
 35 29  1  0
 16 19  1  0
M  CHG 1   2  -1
M  CHG 1  16  -1
M  END
> <UniqueID>
61

> <SMILES>
CN1CCN(C(=O)Cc2ccc(/N=c3/[n-]c(-c4cccc(C([NH-])=O)c4)cn(C)c3=O)cc2)CC1

> <Energy>
92.13679336999758

> <Genealogy>
CN1CCN(C(=O)Cc2ccc(N=c3[n-]c(-c4cccc(C([NH-])=O)c4)cn(C)c3=O)cc2)CC1 (protonated)
CN1CCN(C(=O)Cc2ccc(/N=c3/[n-]c(-c4cccc(C([NH-])=O)c4)cn(C)c3=O)cc2)CC1 (cis-trans isomerization)
CN1CCN(C(=O)Cc2ccc(/N=c3/[n-]c(-c4cccc(C([NH-])=O)c4)cn(C)c3=O)cc2)CC1 (3D coordinates assigned)
CN1CCN(C(=O)Cc2ccc(/N=c3/[n-]c(-c4cccc(C([NH-])=O)c4)cn(C)c3=O)cc2)CC1 (nonaromatic ring conformer: 92.13679336999758 kcal/mol)

> <smiles>
CN1CCN(C(=O)Cc2ccc(N=c3[nH]c(-c4cccc(C(N)=O)c4)cn(C)c3=O)cc2)CC1

> <score_type>
oracle

> <origin>
adg

> <m_score__min__energy>
-14.09

> <m_primary>
energy

> <minimizedAffinity>
-8.40760

> <minimizedRMSD>
0.55854

> <CNNscore>
0.1027698368

> <CNNaffinity>
5.0216403008

> <CNN_VS>
0.5160731673

> <CNNaffinity_variance>
0.9004532695

$$$$
72:0


 34 37  0  0  0  0  0  0  0  0999 V2000
   58.7737   30.2629   47.6850 C   0  0  0  0  0  0  0  0  0  0  0  0
   58.8884   31.6409   47.4557 C   0  0  0  0  0  0  0  0  0  0  0  0
   59.1508   32.5118   48.5180 C   0  0  0  0  0  0  0  0  0  0  0  0
   59.3062   32.0124   49.8204 C   0  0  0  0  0  0  0  0  0  0  0  0
   59.1915   30.6320   50.0490 C   0  0  0  0  0  0  0  0  0  0  0  0
   58.9293   29.7625   48.9864 C   0  0  0  0  0  0  0  0  0  0  0  0
   58.9743   27.2948   47.6678 C   0  0  0  0  0  0  0  0  0  0  0  0
   58.6194   28.0144   46.5905 C   0  0  0  0  0  0  0  0  0  0  0  0
   58.2799   27.5120   45.3265 C   0  0  0  0  0  0  0  0  0  0  0  0
   58.2546   26.2158   44.9508 C   0  0  0  0  0  0  0  0  0  0  0  0
   57.9471   28.6195   44.5524 C   0  0  0  0  0  0  0  0  0  0  0  0
   58.1076   29.7315   45.3541 C   0  0  0  0  0  0  0  0  0  0  0  0
   57.8351   31.1392   44.9220 C   0  0  0  0  0  0  0  0  0  0  0  0
   58.5092   29.3657   46.5920 N   0  0  0  0  0  0  0  0  0  0  0  0
   57.5596   25.1227   45.6664 C   0  0  0  0  0  0  0  0  0  0  0  0
   58.0847   23.9251   45.9833 N   0  0  0  0  0  0  0  0  0  0  0  0
   57.0885   23.3112   46.6567 C   0  0  0  0  0  0  0  0  0  0  0  0
   57.2014   22.1463   47.1195 O   0  0  0  0  0  0  0  0  0  0  0  0
   55.9642   24.0436   46.7974 N   0  0  0  0  0  0  0  0  0  0  0  0
   56.2810   25.1881   46.1699 C   0  0  0  0  0  0  0  0  0  0  0  0
   55.4174   26.2705   46.0587 O   0  0  0  0  0  0  0  0  0  0  0  0
   59.5646   32.9452   50.9735 C   0  0  0  0  0  0  0  0  0  0  0  0
   60.9603   33.3773   50.9738 N   0  0  0  0  0  0  0  0  0  0  0  0
   61.8930   32.9530   51.9829 C   0  0  0  0  0  0  0  0  0  0  0  0
   61.5444   32.0898   52.8314 O   0  0  0  0  0  0  0  0  0  0  0  0
   61.2726   33.9787   50.2596 H   0  0  0  0  0  0  0  0  0  0  0  0
   63.2733   33.4760   52.0465 C   0  0  0  0  0  0  0  0  0  0  0  0
   64.0896   33.5343   50.9822 C   0  0  0  0  0  0  0  0  0  0  0  0
   63.6808   33.1494   49.6080 C   0  0  0  0  0  0  0  0  0  0  0  0
   63.6366   34.0705   48.5412 C   0  0  0  0  0  0  0  0  0  0  0  0
   63.2325   33.6571   47.2674 C   0  0  0  0  0  0  0  0  0  0  0  0
   62.8609   32.3307   47.0456 C   0  0  0  0  0  0  0  0  0  0  0  0
   62.8849   31.4131   48.0972 C   0  0  0  0  0  0  0  0  0  0  0  0
   63.2871   31.8201   49.3735 C   0  0  0  0  0  0  0  0  0  0  0  0
  7  8  2  0
  8  9  1  0
  9 10  2  0
 10 15  1  0
 15 16  1  0
 16 17  1  0
 17 18  2  0
 17 19  1  0
 19 20  1  0
 20 21  1  0
  9 11  1  0
 11 12  2  0
 12 13  1  0
 12 14  1  0
 14  1  1  0
  1  2  2  0
  2  3  1  0
  3  4  2  0
  4 22  1  0
 22 23  1  0
 23 24  1  0
 24 25  2  0
 24 27  1  0
 27 28  2  0
 28 29  1  0
 29 30  2  0
 30 31  1  0
 31 32  2  0
 32 33  1  0
 33 34  2  0
  4  5  1  0
  5  6  2  0
 14  8  1  0
  6  1  1  0
 20 15  2  0
 34 29  1  0
 23 26  1  0
M  CHG 1  16  -1
M  CHG 1  19  -1
M  CHG 1  21  -1
M  END
> <UniqueID>
71

> <SMILES>
C=c1/c(=C/c2[n-]c(=O)[n-]c2[O-])cc(C)n1-c1ccc(CNC(=O)/C=C/c2ccccc2)cc1

> <Energy>
127.52270799072753

> <Genealogy>
C=c1c(=Cc2[n-]c(=O)[n-]c2[O-])cc(C)n1-c1ccc(CNC(=O)C=Cc2ccccc2)cc1 (protonated)
C=c1/c(=C/c2[n-]c(=O)[n-]c2[O-])cc(C)n1-c1ccc(CNC(=O)/C=C/c2ccccc2)cc1 (cis-trans isomerization)
C=c1/c(=C/c2[n-]c(=O)[n-]c2[O-])cc(C)n1-c1ccc(CNC(=O)/C=C/c2ccccc2)cc1 (3D coordinates assigned)
C=c1/c(=C/c2[n-]c(=O)[n-]c2[O-])cc(C)n1-c1ccc(CNC(=O)/C=C/c2ccccc2)cc1 (optimized conformer: 127.52270799072753 kcal/mol)

> <smiles>
C=c1c(=Cc2[nH]c(=O)[nH]c2O)cc(C)n1-c1ccc(CNC(=O)C=Cc2ccccc2)cc1

> <score_type>
oracle

> <origin>
adg

> <m_score__min__energy>
-17.440000000000001

> <m_primary>
energy

> <minimizedAffinity>
-8.10253

> <minimizedRMSD>
2.00044

> <CNNscore>
0.1705493927

> <CNNaffinity>
6.7123966217

> <CNN_VS>
1.1447951794

> <CNNaffinity_variance>
0.0674622506

$$$$
85:0


 30 32  0  0  0  0  0  0  0  0999 V2000
   58.0738   32.6102   45.5204 C   0  0  0  0  0  0  0  0  0  0  0  0
   58.3549   33.1600   44.2584 C   0  0  0  0  0  0  0  0  0  0  0  0
   58.0218   32.4414   43.1084 C   0  0  0  0  0  0  0  0  0  0  0  0
   57.4189   31.1884   43.2190 C   0  0  0  0  0  0  0  0  0  0  0  0
   57.1584   30.6632   44.4917 C   0  0  0  0  0  0  0  0  0  0  0  0
   57.4821   31.3852   45.5986 N   0  0  0  0  0  0  0  0  0  0  0  0
   57.6082   33.3046   47.7337 O   0  0  0  0  0  0  0  0  0  0  0  0
   58.4099   33.3305   46.7626 C   0  0  0  0  0  0  0  0  0  0  0  0
   59.6403   34.0550   46.8705 N   0  0  0  0  0  0  0  0  0  0  0  0
   60.9408   33.4008   46.9015 C   0  0  0  0  0  0  0  0  0  0  0  0
   61.1587   32.7554   48.2683 C   0  0  0  0  0  0  0  0  0  0  0  0
   60.8681   31.2812   48.2132 C   0  0  0  0  0  0  0  0  0  0  0  0
   60.6390   30.5567   49.3971 C   0  0  0  0  0  0  0  0  0  0  0  0
   60.3378   29.1922   49.3414 C   0  0  0  0  0  0  0  0  0  0  0  0
   60.2557   28.5429   48.1058 C   0  0  0  0  0  0  0  0  0  0  0  0
   59.9647   27.2195   48.0530 F   0  0  0  0  0  0  0  0  0  0  0  0
   60.4696   29.2587   46.9235 C   0  0  0  0  0  0  0  0  0  0  0  0
   60.7682   30.6237   46.9751 C   0  0  0  0  0  0  0  0  0  0  0  0
   56.4863   29.3337   44.6431 C   0  0  0  0  0  0  0  0  0  0  0  0
   57.2868   28.4839   45.5173 N   0  0  0  0  0  0  0  0  0  0  0  0
   58.0485   27.3461   45.0920 C   0  0  0  0  0  0  0  0  0  0  0  0
   59.0524   27.5328   44.3562 O   0  0  0  0  0  0  0  0  0  0  0  0
   57.6727   25.9646   45.4429 C   0  0  0  0  0  0  0  0  0  0  0  0
   58.5737   24.9022   45.3000 C   0  0  0  0  0  0  0  0  0  0  0  0
   58.1439   23.6138   45.6234 C   0  0  0  0  0  0  0  0  0  0  0  0
   58.9298   22.6362   45.5099 O   0  0  0  0  0  0  0  0  0  0  0  0
   56.8716   23.4113   46.0524 N   0  0  0  0  0  0  0  0  0  0  0  0
   56.0012   24.4488   46.1649 C   0  0  0  0  0  0  0  0  0  0  0  0
   54.8229   24.2407   46.5561 O   0  0  0  0  0  0  0  0  0  0  0  0
   56.4016   25.7094   45.8549 N   0  0  0  0  0  0  0  0  0  0  0  0
  7  8  2  0
  8  9  1  0
  9 10  1  0
 10 11  1  0
 11 12  1  0
 12 13  2  0
 13 14  1  0
 14 15  2  0
 15 16  1  0
 15 17  1  0
 17 18  2  0
  8  1  1  0
  1  2  2  0
  2  3  1  0
  3  4  2  0
  4  5  1  0
  5 19  1  0
 19 20  1  0
 20 21  1  0
 21 22  2  0
 21 23  1  0
 23 24  2  0
 24 25  1  0
 25 26  2  0
 25 27  1  0
 27 28  1  0
 28 29  2  0
 28 30  1  0
  5  6  2  0
 18 12  1  0
  6  1  1  0
 30 23  1  0
M  CHG 1   9  -1
M  CHG 1  20  -1
M  CHG 1  27  -1
M  CHG 1  30  -1
M  END
> <UniqueID>
83

> <SMILES>
O=C([N-]CCc1ccc(F)cc1)c1cccc(C[N-]C(=O)c2cc(=O)[n-]c(=O)[n-]2)n1

> <Energy>
45.94193382696681

> <Genealogy>
O=C([N-]CCc1ccc(F)cc1)c1cccc(C[N-]C(=O)c2cc(=O)[n-]c(=O)[n-]2)n1 (protonated)
O=C([N-]CCc1ccc(F)cc1)c1cccc(C[N-]C(=O)c2cc(=O)[n-]c(=O)[n-]2)n1 (3D coordinates assigned)
O=C([N-]CCc1ccc(F)cc1)c1cccc(C[N-]C(=O)c2cc(=O)[n-]c(=O)[n-]2)n1 (optimized conformer: 45.94193382696681 kcal/mol)

> <smiles>
O=C(NCCc1ccc(F)cc1)c1cccc(CNC(=O)c2cc(=O)[nH]c(=O)[nH]2)n1

> <score_type>
oracle

> <origin>
adg

> <m_score__min__energy>
-16.510000000000002

> <m_primary>
energy

> <minimizedAffinity>
-7.54659

> <minimizedRMSD>
1.47207

> <CNNscore>
0.5165942907

> <CNNaffinity>
7.0642809868

> <CNN_VS>
3.6493673325

> <CNNaffinity_variance>
0.0414879955

$$$$
4:0


 28 30  0  0  0  0  0  0  0  0999 V2000
   60.4275   29.3038   47.7470 C   0  0  0  0  0  0  0  0  0  0  0  0
   59.7001   30.0543   46.9025 C   0  0  0  0  0  0  0  0  0  0  0  0
   59.0968   29.6208   45.7183 C   0  0  0  0  0  0  0  0  0  0  0  0
   59.1272   28.3840   45.1868 C   0  0  0  0  0  0  0  0  0  0  0  0
   58.4904   30.7385   45.1571 C   0  0  0  0  0  0  0  0  0  0  0  0
   58.7274   31.7915   46.0190 C   0  0  0  0  0  0  0  0  0  0  0  0
   58.2626   33.1975   45.7909 C   0  0  0  0  0  0  0  0  0  0  0  0
   59.4671   31.3807   47.0733 N   0  0  0  0  0  0  0  0  0  0  0  0
   58.3330   27.2506   45.7128 C   0  0  0  0  0  0  0  0  0  0  0  0
   56.9291   27.2511   45.6723 C   0  0  0  0  0  0  0  0  0  0  0  0
   56.2318   28.3262   45.1316 O   0  0  0  0  0  0  0  0  0  0  0  0
   56.2343   26.2025   46.1845 N   0  0  0  0  0  0  0  0  0  0  0  0
   56.8743   25.1499   46.7564 C   0  0  0  0  0  0  0  0  0  0  0  0
   56.2123   24.1881   47.2227 O   0  0  0  0  0  0  0  0  0  0  0  0
   58.2294   25.1405   46.8339 N   0  0  0  0  0  0  0  0  0  0  0  0
   58.9697   26.1632   46.3344 C   0  0  0  0  0  0  0  0  0  0  0  0
   60.2258   26.1211   46.4276 O   0  0  0  0  0  0  0  0  0  0  0  0
   59.8983   32.2061   48.1689 C   0  0  0  0  0  0  0  0  0  0  0  0
   60.9704   33.0952   48.0052 C   0  0  0  0  0  0  0  0  0  0  0  0
   61.3912   33.8929   49.0725 C   0  0  0  0  0  0  0  0  0  0  0  0
   60.7437   33.8100   50.3069 C   0  0  0  0  0  0  0  0  0  0  0  0
   59.6641   32.9331   50.4794 C   0  0  0  0  0  0  0  0  0  0  0  0
   59.2453   32.1320   49.4084 C   0  0  0  0  0  0  0  0  0  0  0  0
   58.8676   32.8107   52.0472 S   0  0  0  0  0  0  0  0  0  0  0  0
   58.6124   34.1845   52.6021 O   0  0  0  0  0  0  0  0  0  0  0  0
   59.7678   32.0752   52.9999 O   0  0  0  0  0  0  0  0  0  0  0  0
   57.3692   31.9452   51.8985 N   0  0  0  0  0  0  0  0  0  0  0  0
   57.5587   30.5565   52.3059 C   0  0  0  0  0  0  0  0  0  0  0  0
  1  2  2  0
  2  3  1  0
  3  4  2  0
  4  9  1  0
  9 10  2  0
 10 11  1  0
 10 12  1  0
 12 13  1  0
 13 14  2  0
 13 15  1  0
 15 16  1  0
 16 17  2  0
  3  5  1  0
  5  6  2  0
  6  7  1  0
  6  8  1  0
  8 18  1  0
 18 19  2  0
 19 20  1  0
 20 21  2  0
 21 22  1  0
 22 24  1  0
 24 25  2  0
 24 26  2  0
 24 27  1  0
 27 28  1  0
 22 23  2  0
  8  2  1  0
 23 18  1  0
 16  9  1  0
M  CHG 1  11  -1
M  CHG 1  12  -1
M  CHG 1  15  -1
M  CHG 1  27  -1
M  END
> <UniqueID>
5

> <SMILES>
C=c1c(=Cc2c([O-])[n-]c(=O)[n-]c2=O)cc(C)n1-c1cccc(S(=O)(=O)[N-]C)c1

> <Energy>
86.97202935270776

> <Genealogy>
C=c1c(=Cc2c([O-])[n-]c(=O)[n-]c2=O)cc(C)n1-c1cccc(S(=O)(=O)[N-]C)c1 (protonated)
C=c1c(=Cc2c([O-])[n-]c(=O)[n-]c2=O)cc(C)n1-c1cccc(S(=O)(=O)[N-]C)c1 (3D coordinates assigned)
C=c1c(=Cc2c([O-])[n-]c(=O)[n-]c2=O)cc(C)n1-c1cccc(S(=O)(=O)[N-]C)c1 (optimized conformer: 86.97202935270776 kcal/mol)

> <smiles>
C=c1c(=Cc2c(O)[nH]c(=O)[nH]c2=O)cc(C)n1-c1cccc(S(=O)(=O)NC)c1

> <score_type>
oracle

> <origin>
adg

> <m_score__min__energy>
-16.75

> <m_primary>
energy

> <minimizedAffinity>
-7.24889

> <minimizedRMSD>
0.80748

> <CNNscore>
0.5429859161

> <CNNaffinity>
6.9347119331

> <CNN_VS>
3.7654509544

> <CNNaffinity_variance>
0.2924306691

$$$$
19:0


 28 31  0  0  0  0  0  0  0  0999 V2000
   60.2822   26.7903   46.9245 C   0  0  0  0  0  0  0  0  0  0  0  0
   59.3536   27.5908   46.3790 C   0  0  0  0  0  0  0  0  0  0  0  0
   58.3713   27.2317   45.4402 C   0  0  0  0  0  0  0  0  0  0  0  0
   57.9670   26.0234   45.0011 C   0  0  0  0  0  0  0  0  0  0  0  0
   57.8148   28.4163   44.9889 C   0  0  0  0  0  0  0  0  0  0  0  0
   58.4092   29.4359   45.7041 C   0  0  0  0  0  0  0  0  0  0  0  0
   58.0825   30.8891   45.5412 C   0  0  0  0  0  0  0  0  0  0  0  0
   59.3422   28.9380   46.5463 N   0  0  0  0  0  0  0  0  0  0  0  0
   57.3323   24.9798   45.8209 C   0  0  0  0  0  0  0  0  0  0  0  0
   57.9176   23.8048   46.1101 N   0  0  0  0  0  0  0  0  0  0  0  0
   56.9463   23.1251   46.7582 C   0  0  0  0  0  0  0  0  0  0  0  0
   57.1190   21.9632   47.2106 O   0  0  0  0  0  0  0  0  0  0  0  0
   55.7716   23.7822   46.8720 N   0  0  0  0  0  0  0  0  0  0  0  0
   56.0280   24.9493   46.2595 C   0  0  0  0  0  0  0  0  0  0  0  0
   55.0824   25.9520   46.0840 O   0  0  0  0  0  0  0  0  0  0  0  0
   60.1801   29.7128   47.4245 C   0  0  0  0  0  0  0  0  0  0  0  0
   60.1048   29.5391   48.8110 C   0  0  0  0  0  0  0  0  0  0  0  0
   60.9221   30.2883   49.6615 C   0  0  0  0  0  0  0  0  0  0  0  0
   61.8368   31.2194   49.1363 C   0  0  0  0  0  0  0  0  0  0  0  0
   61.8991   31.3967   47.7419 C   0  0  0  0  0  0  0  0  0  0  0  0
   61.0790   30.6476   46.8949 C   0  0  0  0  0  0  0  0  0  0  0  0
   62.6944   32.0122   50.0496 C   0  0  0  0  0  0  0  0  0  0  0  0
   62.1758   32.5806   51.0502 O   0  0  0  0  0  0  0  0  0  0  0  0
   64.1061   32.1349   49.8219 N   0  0  0  0  0  0  0  0  0  0  0  0
   64.5239   31.6206   49.0938 H   0  0  0  0  0  0  0  0  0  0  0  0
   64.9350   33.0074   50.6489 C   0  0  0  0  0  0  0  0  0  0  0  0
   66.4230   32.7432   50.4923 C   0  0  0  0  0  0  0  0  0  0  0  0
   65.6944   32.2777   51.7428 C   0  0  0  0  0  0  0  0  0  0  0  0
  1  2  2  0
  2  3  1  0
  3  4  2  0
  4  9  1  0
  9 10  1  0
 10 11  1  0
 11 12  2  0
 11 13  1  0
 13 14  1  0
 14 15  1  0
  3  5  1  0
  5  6  2  0
  6  7  1  0
  6  8  1  0
  8 16  1  0
 16 17  2  0
 17 18  1  0
 18 19  2  0
 19 22  1  0
 22 23  2  0
 22 24  1  0
 24 26  1  0
 26 27  1  0
 27 28  1  0
 19 20  1  0
 20 21  2  0
  8  2  1  0
 21 16  1  0
 14  9  2  0
 28 26  1  0
 24 25  1  0
M  CHG 1  10  -1
M  CHG 1  13  -1
M  CHG 1  15  -1
M  END
> <UniqueID>
18

> <SMILES>
C=c1c(=Cc2[n-]c(=O)[n-]c2[O-])cc(C)n1-c1ccc(C(=O)NC2CC2)cc1

> <Energy>
387.75210491297395

> <Genealogy>
C=c1c(=Cc2[n-]c(=O)[n-]c2[O-])cc(C)n1-c1ccc(C(=O)NC2CC2)cc1 (protonated)
C=c1c(=Cc2[n-]c(=O)[n-]c2[O-])cc(C)n1-c1ccc(C(=O)NC2CC2)cc1 (3D coordinates assigned)
C=c1c(=Cc2[n-]c(=O)[n-]c2[O-])cc(C)n1-c1ccc(C(=O)NC2CC2)cc1 (nonaromatic ring conformer: 387.75210491297395 kcal/mol)

> <smiles>
C=c1c(=Cc2[nH]c(=O)[nH]c2O)cc(C)n1-c1ccc(C(=O)NC2CC2)cc1

> <score_type>
oracle

> <origin>
adg

> <m_score__min__energy>
-15.27

> <m_primary>
energy

> <minimizedAffinity>
-8.60170

> <minimizedRMSD>
1.16908

> <CNNscore>
0.2048163861

> <CNNaffinity>
6.3925957680

> <CNN_VS>
1.3093084097

> <CNNaffinity_variance>
0.0922849253

$$$$
23:0


 27 29  0  0  0  0  0  0  0  0999 V2000
   57.3706   30.8759   44.3887 C   0  0  0  0  0  0  0  0  0  0  0  0
   57.8367   31.8431   43.5162 C   0  0  0  0  0  0  0  0  0  0  0  0
   58.1381   32.9382   44.2967 C   0  0  0  0  0  0  0  0  0  0  0  0
   57.8390   32.5670   45.5936 C   0  0  0  0  0  0  0  0  0  0  0  0
   57.3819   31.3353   45.6193 O   0  0  0  0  0  0  0  0  0  0  0  0
   56.9214   29.5274   44.0267 C   0  0  0  0  0  0  0  0  0  0  0  0
   56.5873   29.2809   42.8361 O   0  0  0  0  0  0  0  0  0  0  0  0
   58.0905   25.5097   46.5177 C   0  0  0  0  0  0  0  0  0  0  0  0
   59.4260   25.7671   46.4803 N   0  0  0  0  0  0  0  0  0  0  0  0
   59.9169   26.9329   45.9871 C   0  0  0  0  0  0  0  0  0  0  0  0
   59.0491   27.9097   45.4960 C   0  0  0  0  0  0  0  0  0  0  0  0
   57.6583   27.6719   45.4994 C   0  0  0  0  0  0  0  0  0  0  0  0
   56.7837   28.5386   45.0602 N   0  0  0  0  0  0  0  0  0  0  0  0
   57.1854   26.4610   46.0331 C   0  0  0  0  0  0  0  0  0  0  0  0
   55.8198   26.1979   46.0790 O   0  0  0  0  0  0  0  0  0  0  0  0
   57.2878   23.1844   46.2259 C   0  0  0  0  0  0  0  0  0  0  0  0
   57.6115   24.3041   47.0422 O   0  0  0  0  0  0  0  0  0  0  0  0
   57.9558   33.4374   46.8015 C   0  0  0  0  0  0  0  0  0  0  0  0
   59.4688   34.3795   46.7296 S   0  0  0  0  0  0  0  0  0  0  0  0
   59.6405   34.9582   45.3526 O   0  0  0  0  0  0  0  0  0  0  0  0
   59.4010   35.5065   47.7224 O   0  0  0  0  0  0  0  0  0  0  0  0
   60.8328   33.3443   47.1182 C   0  0  0  0  0  0  0  0  0  0  0  0
   62.1466   33.8051   46.9515 C   0  0  0  0  0  0  0  0  0  0  0  0
   63.2110   32.9482   47.2383 C   0  0  0  0  0  0  0  0  0  0  0  0
   62.9566   31.6493   47.6835 C   0  0  0  0  0  0  0  0  0  0  0  0
   61.6337   31.2251   47.8337 C   0  0  0  0  0  0  0  0  0  0  0  0
   60.6112   32.0731   47.5467 N   0  0  0  0  0  0  0  0  0  0  0  0
 16 17  1  0
 17  8  1  0
  8  9  1  0
  9 10  1  0
 10 11  2  0
 11 12  1  0
 12 13  2  0
 13  6  1  0
  6  7  2  0
  6  1  1  0
  1  2  2  0
  2  3  1  0
  3  4  2  0
  4 18  1  0
 18 19  1  0
 19 20  2  0
 19 21  2  0
 19 22  1  0
 22 23  2  0
 23 24  1  0
 24 25  2  0
 25 26  1  0
 26 27  2  0
  4  5  1  0
 12 14  1  0
 14 15  1  0
 14  8  2  0
  5  1  1  0
 27 22  1  0
M  CHG 1   9  -1
M  CHG 1  15  -1
M  END
> <UniqueID>
22

> <SMILES>
COc1[n-]ccc(=NC(=O)c2ccc(CS(=O)(=O)c3ccccn3)o2)c1[O-]

> <Energy>
69.96697302782252

> <Genealogy>
COc1[n-]ccc(=NC(=O)c2ccc(CS(=O)(=O)c3ccccn3)o2)c1[O-] (protonated)
COc1[n-]ccc(=NC(=O)c2ccc(CS(=O)(=O)c3ccccn3)o2)c1[O-] (3D coordinates assigned)
COc1[n-]ccc(=NC(=O)c2ccc(CS(=O)(=O)c3ccccn3)o2)c1[O-] (optimized conformer: 69.96697302782252 kcal/mol)

> <smiles>
COc1[nH]ccc(=NC(=O)c2ccc(CS(=O)(=O)c3ccccn3)o2)c1O

> <score_type>
oracle

> <origin>
adg

> <m_score__min__energy>
-14.48

> <m_primary>
energy

> <minimizedAffinity>
-7.38754

> <minimizedRMSD>
0.87978

> <CNNscore>
0.6692820191

> <CNNaffinity>
6.4358172417

> <CNN_VS>
4.3073768616

> <CNNaffinity_variance>
0.1657220274

$$$$
34:0


 30 33  0  0  0  0  0  0  0  0999 V2000
   58.7626   26.5984   47.4183 C   0  0  0  0  0  0  0  0  0  0  0  0
   58.5965   27.3260   46.3031 C   0  0  0  0  0  0  0  0  0  0  0  0
   58.0004   26.9216   45.0950 C   0  0  0  0  0  0  0  0  0  0  0  0
   57.5450   25.7206   44.6868 C   0  0  0  0  0  0  0  0  0  0  0  0
   57.9622   28.0465   44.2864 C   0  0  0  0  0  0  0  0  0  0  0  0
   58.5530   29.0710   44.9944 C   0  0  0  0  0  0  0  0  0  0  0  0
   58.7499   30.4630   44.4770 C   0  0  0  0  0  0  0  0  0  0  0  0
   58.9480   28.6355   46.2102 N   0  0  0  0  0  0  0  0  0  0  0  0
   57.1152   24.6177   45.5672 C   0  0  0  0  0  0  0  0  0  0  0  0
   55.8859   24.6692   46.2465 C   0  0  0  0  0  0  0  0  0  0  0  0
   55.0223   25.7452   46.0715 O   0  0  0  0  0  0  0  0  0  0  0  0
   55.5341   23.6618   47.0855 N   0  0  0  0  0  0  0  0  0  0  0  0
   56.3604   22.6050   47.2955 C   0  0  0  0  0  0  0  0  0  0  0  0
   56.0120   21.6806   48.0753 O   0  0  0  0  0  0  0  0  0  0  0  0
   57.5642   22.5475   46.6710 N   0  0  0  0  0  0  0  0  0  0  0  0
   57.9616   23.5293   45.8223 C   0  0  0  0  0  0  0  0  0  0  0  0
   59.0899   23.4490   45.2656 O   0  0  0  0  0  0  0  0  0  0  0  0
   59.5657   29.4482   47.2238 C   0  0  0  0  0  0  0  0  0  0  0  0
   60.7205   30.1873   46.9309 C   0  0  0  0  0  0  0  0  0  0  0  0
   61.3285   30.9640   47.9207 C   0  0  0  0  0  0  0  0  0  0  0  0
   60.7881   31.0185   49.2114 C   0  0  0  0  0  0  0  0  0  0  0  0
   59.6442   30.2554   49.5114 C   0  0  0  0  0  0  0  0  0  0  0  0
   59.0363   29.4798   48.5206 C   0  0  0  0  0  0  0  0  0  0  0  0
   61.4353   31.7979   50.1805 O   0  0  0  0  0  0  0  0  0  0  0  0
   62.8208   31.8489   50.3906 C   0  0  0  0  0  0  0  0  0  0  0  0
   63.6242   32.8563   49.8216 C   0  0  0  0  0  0  0  0  0  0  0  0
   65.0051   32.8616   50.0422 C   0  0  0  0  0  0  0  0  0  0  0  0
   65.5949   31.8611   50.8183 C   0  0  0  0  0  0  0  0  0  0  0  0
   64.8065   30.8486   51.3692 C   0  0  0  0  0  0  0  0  0  0  0  0
   63.4243   30.8388   51.1500 C   0  0  0  0  0  0  0  0  0  0  0  0
  1  2  2  0
  2  3  1  0
  3  4  2  0
  4  9  1  0
  9 10  2  0
 10 11  1  0
 10 12  1  0
 12 13  1  0
 13 14  2  0
 13 15  1  0
 15 16  1  0
 16 17  2  0
  3  5  1  0
  5  6  2  0
  6  7  1  0
  6  8  1  0
  8 18  1  0
 18 19  2  0
 19 20  1  0
 20 21  2  0
 21 24  1  0
 24 25  1  0
 25 26  2  0
 26 27  1  0
 27 28  2  0
 28 29  1  0
 29 30  2  0
 21 22  1  0
 22 23  2  0
  8  2  1  0
 23 18  1  0
 16  9  1  0
 30 25  1  0
M  CHG 1  11  -1
M  CHG 1  12  -1
M  CHG 1  15  -1
M  END
> <UniqueID>
32

> <SMILES>
C=c1/c(=C\c2c([O-])[n-]c(=O)[n-]c2=O)cc(C)n1-c1ccc(Oc2ccccc2)cc1

> <Energy>
106.72312720011114

> <Genealogy>
C=c1c(=Cc2c([O-])[n-]c(=O)[n-]c2=O)cc(C)n1-c1ccc(Oc2ccccc2)cc1 (protonated)
C=c1/c(=C\c2c([O-])[n-]c(=O)[n-]c2=O)cc(C)n1-c1ccc(Oc2ccccc2)cc1 (cis-trans isomerization)
C=c1/c(=C\c2c([O-])[n-]c(=O)[n-]c2=O)cc(C)n1-c1ccc(Oc2ccccc2)cc1 (3D coordinates assigned)
C=c1/c(=C\c2c([O-])[n-]c(=O)[n-]c2=O)cc(C)n1-c1ccc(Oc2ccccc2)cc1 (optimized conformer: 106.72312720011114 kcal/mol)

> <smiles>
C=c1c(=Cc2c(O)[nH]c(=O)[nH]c2=O)cc(C)n1-c1ccc(Oc2ccccc2)cc1

> <score_type>
oracle

> <origin>
adg

> <m_score__min__energy>
-15.98

> <m_primary>
energy

> <minimizedAffinity>
-8.41301

> <minimizedRMSD>
2.28651

> <CNNscore>
0.1554912776

> <CNNaffinity>
6.3092613220

> <CNN_VS>
0.9810351133

> <CNNaffinity_variance>
0.0039300355

$$$$
35:0


 37 40  0  0  0  0  0  0  0  0999 V2000
   59.4209   30.3977   46.8787 C   0  0  0  0  0  0  0  0  0  0  0  0
   58.5492   31.1981   47.6288 C   0  0  0  0  0  0  0  0  0  0  0  0
   59.0536   32.1909   48.4726 C   0  0  0  0  0  0  0  0  0  0  0  0
   60.4402   32.3896   48.5873 C   0  0  0  0  0  0  0  0  0  0  0  0
   61.3109   31.5919   47.8276 C   0  0  0  0  0  0  0  0  0  0  0  0
   60.8047   30.5954   46.9867 C   0  0  0  0  0  0  0  0  0  0  0  0
   59.4522   27.4639   47.3654 C   0  0  0  0  0  0  0  0  0  0  0  0
   58.9380   28.0138   46.2544 C   0  0  0  0  0  0  0  0  0  0  0  0
   58.2720   27.3529   45.2082 C   0  0  0  0  0  0  0  0  0  0  0  0
   58.1096   26.0408   44.9472 C   0  0  0  0  0  0  0  0  0  0  0  0
   57.7685   28.3456   44.3827 C   0  0  0  0  0  0  0  0  0  0  0  0
   58.1781   29.5524   44.9086 C   0  0  0  0  0  0  0  0  0  0  0  0
   57.8810   30.8910   44.3045 C   0  0  0  0  0  0  0  0  0  0  0  0
   58.8991   29.3538   46.0353 N   0  0  0  0  0  0  0  0  0  0  0  0
   57.4484   25.0617   45.8242 C   0  0  0  0  0  0  0  0  0  0  0  0
   57.9639   23.8650   46.1660 N   0  0  0  0  0  0  0  0  0  0  0  0
   56.9562   23.2771   46.8492 C   0  0  0  0  0  0  0  0  0  0  0  0
   57.0615   22.1301   47.3577 O   0  0  0  0  0  0  0  0  0  0  0  0
   55.8271   24.0108   46.9386 N   0  0  0  0  0  0  0  0  0  0  0  0
   56.1507   25.1298   46.2701 C   0  0  0  0  0  0  0  0  0  0  0  0
   55.2770   26.1901   46.0679 O   0  0  0  0  0  0  0  0  0  0  0  0
   60.9785   33.4459   49.4739 C   0  0  0  0  0  0  0  0  0  0  0  0
   60.1840   34.2573   50.0223 O   0  0  0  0  0  0  0  0  0  0  0  0
   62.3882   33.5494   49.7419 N   0  0  0  0  0  0  0  0  0  0  0  0
   63.3524   33.5527   48.6325 C   0  0  0  0  0  0  0  0  0  0  0  0
   64.5990   32.7122   48.9689 C   0  0  0  0  0  0  0  0  0  0  0  0
   64.9295   32.6748   50.4809 C   0  0  0  0  0  0  0  0  0  0  0  0
   64.3581   33.8997   51.2180 C   0  0  0  0  0  0  0  0  0  0  0  0
   62.8288   33.9196   51.0956 C   0  0  0  0  0  0  0  0  0  0  0  0
   66.4174   32.5395   50.6916 C   0  0  0  0  0  0  0  0  0  0  0  0
   66.9553   31.3990   50.6774 O   0  0  0  0  0  0  0  0  0  0  0  0
   67.2065   33.7038   50.9741 N   0  0  0  0  0  0  0  0  0  0  0  0
   66.7706   34.5863   50.9536 H   0  0  0  0  0  0  0  0  0  0  0  0
   68.6333   33.6323   51.2913 C   0  0  0  0  0  0  0  0  0  0  0  0
   69.3203   34.9775   51.0320 C   0  0  0  0  0  0  0  0  0  0  0  0
   68.4356   36.0512   51.3015 O   0  0  0  0  0  0  0  0  0  0  0  0
   69.1434   37.1510   51.8306 C   0  0  0  0  0  0  0  0  0  0  0  0
  7  8  2  0
  8  9  1  0
  9 10  2  0
 10 15  1  0
 15 16  1  0
 16 17  1  0
 17 18  2  0
 17 19  1  0
 19 20  1  0
 20 21  1  0
  9 11  1  0
 11 12  2  0
 12 13  1  0
 12 14  1  0
 14  1  1  0
  1  2  2  0
  2  3  1  0
  3  4  2  0
  4 22  1  0
 22 23  2  0
 22 24  1  0
 24 25  1  0
 25 26  1  0
 26 27  1  0
 27 30  1  0
 30 31  2  0
 30 32  1  0
 32 34  1  0
 34 35  1  0
 35 36  1  0
 36 37  1  0
 27 28  1  0
 28 29  1  0
  4  5  1  0
  5  6  2  0
 14  8  1  0
  6  1  1  0
 20 15  2  0
 29 24  1  0
 32 33  1  0
M  CHG 1  16  -1
M  CHG 1  19  -1
M  CHG 1  21  -1
M  END
> <UniqueID>
33

> <SMILES>
C=c1c(=Cc2[n-]c(=O)[n-]c2[O-])cc(C)n1-c1ccc(C(=O)N2CCC(C(=O)NCCOC)CC2)cc1

> <Energy>
145.6401882730548

> <Genealogy>
C=c1c(=Cc2[n-]c(=O)[n-]c2[O-])cc(C)n1-c1ccc(C(=O)N2CCC(C(=O)NCCOC)CC2)cc1 (protonated)
C=c1c(=Cc2[n-]c(=O)[n-]c2[O-])cc(C)n1-c1ccc(C(=O)N2CCC(C(=O)NCCOC)CC2)cc1 (3D coordinates assigned)
C=c1c(=Cc2[n-]c(=O)[n-]c2[O-])cc(C)n1-c1ccc(C(=O)N2CCC(C(=O)NCCOC)CC2)cc1 (nonaromatic ring conformer: 145.6401882730548 kcal/mol)

> <smiles>
C=c1c(=Cc2[nH]c(=O)[nH]c2O)cc(C)n1-c1ccc(C(=O)N2CCC(C(=O)NCCOC)CC2)cc1

> <score_type>
oracle

> <origin>
adg

> <m_score__min__energy>
-16.390000000000001

> <m_primary>
energy

> <minimizedAffinity>
-8.79869

> <minimizedRMSD>
0.69819

> <CNNscore>
0.2353680283

> <CNNaffinity>
6.9062981606

> <CNN_VS>
1.6255217791

> <CNNaffinity_variance>
0.0181487557

$$$$
47:0


 29 31  0  0  0  0  0  0  0  0999 V2000
   57.6094   26.4008   45.9190 C   0  0  0  0  0  0  0  0  0  0  0  0
   56.2911   26.0356   46.2265 C   0  0  0  0  0  0  0  0  0  0  0  0
   55.2229   26.7569   45.7016 O   0  0  0  0  0  0  0  0  0  0  0  0
   56.0559   24.9764   47.0479 N   0  0  0  0  0  0  0  0  0  0  0  0
   57.0780   24.2600   47.5832 C   0  0  0  0  0  0  0  0  0  0  0  0
   56.8101   23.2514   48.3560 N   0  0  0  0  0  0  0  0  0  0  0  0
   58.3658   24.6035   47.2979 N   0  0  0  0  0  0  0  0  0  0  0  0
   58.6499   25.6504   46.4812 C   0  0  0  0  0  0  0  0  0  0  0  0
   59.8523   25.9324   46.2302 O   0  0  0  0  0  0  0  0  0  0  0  0
   55.3831   27.4864   45.1359 H   0  0  0  0  0  0  0  0  0  0  0  0
   58.5119   27.2317   43.7453 C   0  0  0  0  0  0  0  0  0  0  0  0
   57.8799   27.5068   45.0420 N   0  0  0  0  0  0  0  0  0  0  0  0
   57.5128   28.8431   45.4447 C   0  0  0  0  0  0  0  0  0  0  0  0
   56.3149   29.2212   45.3314 O   0  0  0  0  0  0  0  0  0  0  0  0
   58.5022   29.7945   45.9921 C   0  0  0  0  0  0  0  0  0  0  0  0
   59.6713   29.3343   46.6212 C   0  0  0  0  0  0  0  0  0  0  0  0
   60.6072   30.2470   47.1220 C   0  0  0  0  0  0  0  0  0  0  0  0
   60.3852   31.6233   46.9943 C   0  0  0  0  0  0  0  0  0  0  0  0
   59.2301   32.0894   46.3579 C   0  0  0  0  0  0  0  0  0  0  0  0
   59.0117   33.4584   46.2297 O   0  0  0  0  0  0  0  0  0  0  0  0
   58.2949   31.1804   45.8511 C   0  0  0  0  0  0  0  0  0  0  0  0
   56.7694   21.8606   47.9080 C   0  0  0  0  0  0  0  0  0  0  0  0
   55.5555   21.6332   47.0027 C   0  0  0  0  0  0  0  0  0  0  0  0
   55.8814   21.9435   45.5640 C   0  0  0  0  0  0  0  0  0  0  0  0
   55.1939   22.9659   44.8887 C   0  0  0  0  0  0  0  0  0  0  0  0
   55.4706   23.2306   43.5440 C   0  0  0  0  0  0  0  0  0  0  0  0
   56.4261   22.4725   42.8621 C   0  0  0  0  0  0  0  0  0  0  0  0
   57.1067   21.4466   43.5240 C   0  0  0  0  0  0  0  0  0  0  0  0
   56.8350   21.1798   44.8694 C   0  0  0  0  0  0  0  0  0  0  0  0
 11 12  1  0
 12 13  1  0
 13 14  2  0
 13 15  1  0
 15 16  2  0
 16 17  1  0
 17 18  2  0
 18 19  1  0
 19 20  1  0
 19 21  2  0
 12  1  1  0
  1  2  2  0
  2  3  1  0
  2  4  1  0
  4  5  1  0
  5  6  2  0
  6 22  1  0
 22 23  1  0
 23 24  1  0
 24 25  2  0
 25 26  1  0
 26 27  2  0
 27 28  1  0
 28 29  2  0
  5  7  1  0
  7  8  1  0
  8  9  2  0
 21 15  1  0
  8  1  1  0
 29 24  1  0
  3 10  1  0
M  CHG 1   4  -1
M  CHG 1   7  -1
M  CHG 1  20  -1
M  END
> <UniqueID>
44

> <SMILES>
CN(C(=O)c1cccc([O-])c1)c1c(O)[n-]c(=NCCc2ccccc2)[n-]c1=O

> <Energy>
57.39206287745948

> <Genealogy>
CN(C(=O)c1cccc([O-])c1)c1c(O)[n-]c(=NCCc2ccccc2)[n-]c1=O (protonated)
CN(C(=O)c1cccc([O-])c1)c1c(O)[n-]c(=NCCc2ccccc2)[n-]c1=O (3D coordinates assigned)
CN(C(=O)c1cccc([O-])c1)c1c(O)[n-]c(=NCCc2ccccc2)[n-]c1=O (optimized conformer: 57.39206287745948 kcal/mol)

> <smiles>
CN(C(=O)c1cccc(O)c1)c1c(O)[nH]c(=NCCc2ccccc2)[nH]c1=O

> <score_type>
oracle

> <origin>
adg

> <m_score__min__energy>
-14.15

> <m_primary>
energy

> <minimizedAffinity>
-6.65922

> <minimizedRMSD>
0.40273

> <CNNscore>
0.3096395731

> <CNNaffinity>
5.9427528381

> <CNN_VS>
1.8401114941

> <CNNaffinity_variance>
0.0198204219

$$$$
49:0


 24 26  0  0  0  0  0  0  0  0999 V2000
   55.6613   31.5943   52.2106 C   0  0  0  0  0  0  0  0  0  0  0  0
   55.5263   30.3486   52.6913 C   0  0  0  0  0  0  0  0  0  0  0  0
   54.3339   29.7211   53.0897 C   0  0  0  0  0  0  0  0  0  0  0  0
   53.0458   30.0655   52.8963 C   0  0  0  0  0  0  0  0  0  0  0  0
   54.7081   28.5696   53.7636 C   0  0  0  0  0  0  0  0  0  0  0  0
   56.0839   28.4911   53.6880 C   0  0  0  0  0  0  0  0  0  0  0  0
   56.9039   27.3817   54.2720 C   0  0  0  0  0  0  0  0  0  0  0  0
   56.5808   29.5673   53.0391 N   0  0  0  0  0  0  0  0  0  0  0  0
   52.4343   30.3968   51.5994 C   0  0  0  0  0  0  0  0  0  0  0  0
   52.4034   29.5770   50.5316 N   0  0  0  0  0  0  0  0  0  0  0  0
   51.6309   30.2445   49.6471 C   0  0  0  0  0  0  0  0  0  0  0  0
   51.3757   29.7976   48.4996 O   0  0  0  0  0  0  0  0  0  0  0  0
   51.1440   31.4210   50.0950 N   0  0  0  0  0  0  0  0  0  0  0  0
   51.6504   31.4952   51.3368 C   0  0  0  0  0  0  0  0  0  0  0  0
   51.3980   32.5407   52.2145 O   0  0  0  0  0  0  0  0  0  0  0  0
   57.9758   29.8392   52.8066 C   0  0  0  0  0  0  0  0  0  0  0  0
   58.5315   29.6293   51.5368 C   0  0  0  0  0  0  0  0  0  0  0  0
   59.8866   29.8870   51.3091 C   0  0  0  0  0  0  0  0  0  0  0  0
   60.7085   30.3579   52.3484 C   0  0  0  0  0  0  0  0  0  0  0  0
   60.1459   30.5670   53.6196 C   0  0  0  0  0  0  0  0  0  0  0  0
   58.7906   30.3093   53.8451 C   0  0  0  0  0  0  0  0  0  0  0  0
   62.1426   30.6315   52.1119 C   0  0  0  0  0  0  0  0  0  0  0  0
   62.7607   31.4708   52.8200 O   0  0  0  0  0  0  0  0  0  0  0  0
   62.8290   29.9676   51.1012 O   0  0  0  0  0  0  0  0  0  0  0  0
  1  2  2  0
  2  3  1  0
  3  4  2  0
  4  9  1  0
  9 10  1  0
 10 11  1  0
 11 12  2  0
 11 13  1  0
 13 14  1  0
 14 15  1  0
  3  5  1  0
  5  6  2  0
  6  7  1  0
  6  8  1  0
  8 16  1  0
 16 17  2  0
 17 18  1  0
 18 19  2  0
 19 22  1  0
 22 23  2  0
 22 24  1  0
 19 20  1  0
 20 21  2  0
  8  2  1  0
 21 16  1  0
 14  9  2  0
M  CHG 1  10  -1
M  CHG 1  13  -1
M  CHG 1  15  -1
M  CHG 1  24  -1
M  END
> <UniqueID>
45

> <SMILES>
C=c1/c(=C\c2[n-]c(=O)[n-]c2[O-])cc(C)n1-c1ccc(C(=O)[O-])cc1

> <Energy>
112.74085720124779

> <Genealogy>
C=c1c(=Cc2[n-]c(=O)[n-]c2[O-])cc(C)n1-c1ccc(C(=O)[O-])cc1 (protonated)
C=c1/c(=C\c2[n-]c(=O)[n-]c2[O-])cc(C)n1-c1ccc(C(=O)[O-])cc1 (cis-trans isomerization)
C=c1/c(=C\c2[n-]c(=O)[n-]c2[O-])cc(C)n1-c1ccc(C(=O)[O-])cc1 (3D coordinates assigned)
C=c1/c(=C\c2[n-]c(=O)[n-]c2[O-])cc(C)n1-c1ccc(C(=O)[O-])cc1 (optimized conformer: 112.74085720124779 kcal/mol)

> <smiles>
C=c1c(=Cc2[nH]c(=O)[nH]c2O)cc(C)n1-c1ccc(C(=O)O)cc1

> <score_type>
oracle

> <origin>
adg

> <m_score__min__energy>
-15.73

> <m_primary>
energy

> <minimizedAffinity>
-3.72973

> <minimizedRMSD>
1.10028

> <CNNscore>
0.1090655774

> <CNNaffinity>
4.3285222054

> <CNN_VS>
0.4720927775

> <CNNaffinity_variance>
0.4742161334

$$$$
55:0


 28 30  0  0  0  0  0  0  0  0999 V2000
   58.9825   29.8329   44.3449 C   0  0  0  0  0  0  0  0  0  0  0  0
   58.8043   29.4225   45.6105 C   0  0  0  0  0  0  0  0  0  0  0  0
   58.7490   28.0997   46.0787 C   0  0  0  0  0  0  0  0  0  0  0  0
   58.6729   26.9284   45.4163 C   0  0  0  0  0  0  0  0  0  0  0  0
   58.7842   28.1771   47.4614 C   0  0  0  0  0  0  0  0  0  0  0  0
   58.7882   29.5175   47.7888 C   0  0  0  0  0  0  0  0  0  0  0  0
   58.8833   30.0600   49.1812 C   0  0  0  0  0  0  0  0  0  0  0  0
   58.7954   30.2726   46.6703 N   0  0  0  0  0  0  0  0  0  0  0  0
   58.0143   25.7079   45.9076 C   0  0  0  0  0  0  0  0  0  0  0  0
   58.6016   24.4994   45.9882 N   0  0  0  0  0  0  0  0  0  0  0  0
   57.5874   23.6838   46.3513 C   0  0  0  0  0  0  0  0  0  0  0  0
   57.7440   22.4518   46.5454 O   0  0  0  0  0  0  0  0  0  0  0  0
   56.3881   24.2939   46.4788 N   0  0  0  0  0  0  0  0  0  0  0  0
   56.6751   25.5712   46.1809 C   0  0  0  0  0  0  0  0  0  0  0  0
   55.7327   26.5896   46.1516 O   0  0  0  0  0  0  0  0  0  0  0  0
   58.9515   31.7007   46.6393 C   0  0  0  0  0  0  0  0  0  0  0  0
   57.8781   32.5088   46.2386 C   0  0  0  0  0  0  0  0  0  0  0  0
   58.0168   33.8980   46.2141 C   0  0  0  0  0  0  0  0  0  0  0  0
   59.2267   34.4870   46.5887 C   0  0  0  0  0  0  0  0  0  0  0  0
   60.3003   33.6903   46.9967 C   0  0  0  0  0  0  0  0  0  0  0  0
   60.1633   32.2899   47.0458 C   0  0  0  0  0  0  0  0  0  0  0  0
   61.2451   31.4372   47.4452 N   0  0  0  0  0  0  0  0  0  0  0  0
   62.0263   31.5294   48.6430 C   0  0  0  0  0  0  0  0  0  0  0  0
   61.9194   30.6491   49.5393 O   0  0  0  0  0  0  0  0  0  0  0  0
   63.0674   32.6283   48.7614 C   0  0  0  0  0  0  0  0  0  0  0  0
   63.6020   33.0385   47.3715 C   0  0  0  0  0  0  0  0  0  0  0  0
   64.2464   32.1281   49.6196 C   0  0  0  0  0  0  0  0  0  0  0  0
   62.4234   33.8515   49.4389 C   0  0  0  0  0  0  0  0  0  0  0  0
  1  2  2  0
  2  3  1  0
  3  4  2  0
  4  9  1  0
  9 10  1  0
 10 11  1  0
 11 12  2  0
 11 13  1  0
 13 14  1  0
 14 15  1  0
  3  5  1  0
  5  6  2  0
  6  7  1  0
  6  8  1  0
  8 16  1  0
 16 17  2  0
 17 18  1  0
 18 19  2  0
 19 20  1  0
 20 21  2  0
 21 22  1  0
 22 23  1  0
 23 24  2  0
 23 25  1  0
 25 26  1  0
 25 27  1  0
 25 28  1  0
  8  2  1  0
 21 16  1  0
 14  9  2  0
M  CHG 1  10  -1
M  CHG 1  13  -1
M  CHG 1  15  -1
M  CHG 1  22  -1
M  END
> <UniqueID>
50

> <SMILES>
C=c1c(=Cc2[n-]c(=O)[n-]c2[O-])cc(C)n1-c1ccccc1[N-]C(=O)C(C)(C)C

> <Energy>
123.06297474083563

> <Genealogy>
C=c1c(=Cc2[n-]c(=O)[n-]c2[O-])cc(C)n1-c1ccccc1[N-]C(=O)C(C)(C)C (protonated)
C=c1c(=Cc2[n-]c(=O)[n-]c2[O-])cc(C)n1-c1ccccc1[N-]C(=O)C(C)(C)C (3D coordinates assigned)
C=c1c(=Cc2[n-]c(=O)[n-]c2[O-])cc(C)n1-c1ccccc1[N-]C(=O)C(C)(C)C (optimized conformer: 123.06297474083563 kcal/mol)

> <smiles>
C=c1c(=Cc2[nH]c(=O)[nH]c2O)cc(C)n1-c1ccccc1NC(=O)C(C)(C)C

> <score_type>
oracle

> <origin>
adg

> <m_score__min__energy>
-17.07

> <m_primary>
energy

> <minimizedAffinity>
-7.89337

> <minimizedRMSD>
0.78585

> <CNNscore>
0.3849829733

> <CNNaffinity>
6.9339847565

> <CNN_VS>
2.6694660187

> <CNNaffinity_variance>
0.0350843854

$$$$
60:0


 24 26  0  0  0  0  0  0  0  0999 V2000
   58.2172   27.7156   47.3896 O   0  0  0  0  0  0  0  0  0  0  0  0
   58.4404   28.0773   46.2021 C   0  0  0  0  0  0  0  0  0  0  0  0
   58.9184   29.4001   45.9282 N   0  0  0  0  0  0  0  0  0  0  0  0
   59.1940   29.6325   45.0121 H   0  0  0  0  0  0  0  0  0  0  0  0
   58.1639   27.1308   45.0754 C   0  0  0  0  0  0  0  0  0  0  0  0
   57.7065   25.8112   45.6173 C   0  0  0  0  0  0  0  0  0  0  0  0
   58.6515   24.4196   45.7130 S   0  0  0  0  0  0  0  0  0  0  0  0
   57.3746   23.4964   46.3003 C   0  0  0  0  0  0  0  0  0  0  0  0
   57.4586   22.2755   46.5909 O   0  0  0  0  0  0  0  0  0  0  0  0
   56.2335   24.2052   46.4244 N   0  0  0  0  0  0  0  0  0  0  0  0
   56.4164   25.4952   46.0399 C   0  0  0  0  0  0  0  0  0  0  0  0
   55.3802   26.4183   46.0626 O   0  0  0  0  0  0  0  0  0  0  0  0
   59.0056   30.4123   46.9803 C   0  0  0  0  0  0  0  0  0  0  0  0
   59.0896   31.7965   46.3830 C   0  0  0  0  0  0  0  0  0  0  0  0
   59.9278   32.7463   46.9924 C   0  0  0  0  0  0  0  0  0  0  0  0
   60.0005   34.0505   46.5005 C   0  0  0  0  0  0  0  0  0  0  0  0
   59.2389   34.4226   45.3923 C   0  0  0  0  0  0  0  0  0  0  0  0
   58.4145   33.4876   44.7645 C   0  0  0  0  0  0  0  0  0  0  0  0
   58.3461   32.1667   45.2331 C   0  0  0  0  0  0  0  0  0  0  0  0
   57.5097   31.2289   44.5401 N   0  0  0  0  0  0  0  0  0  0  0  0
   57.6212   30.8607   43.2492 C   0  0  0  0  0  0  0  0  0  0  0  0
   56.5844   30.0048   42.9503 C   0  0  0  0  0  0  0  0  0  0  0  0
   55.8601   29.9087   44.1222 C   0  0  0  0  0  0  0  0  0  0  0  0
   56.4339   30.6719   45.0745 N   0  0  0  0  0  0  0  0  0  0  0  0
  1  2  2  0
  2  5  1  0
  5  6  1  0
  6  7  1  0
  7  8  1  0
  8  9  2  0
  8 10  1  0
 10 11  1  0
 11 12  1  0
  2  3  1  0
  3 13  1  0
 13 14  1  0
 14 15  2  0
 15 16  1  0
 16 17  2  0
 17 18  1  0
 18 19  2  0
 19 20  1  0
 20 21  1  0
 21 22  2  0
 22 23  1  0
 23 24  2  0
 11  6  2  0
 19 14  1  0
 24 20  1  0
  3  4  1  0
M  CHG 1  10  -1
M  CHG 1  12  -1
M  END
> <UniqueID>
54

> <SMILES>
O=C(Cc1sc(=O)[n-]c1[O-])NCc1ccccc1-n1cccn1

> <Energy>
97.54573111119501

> <Genealogy>
O=C(Cc1sc(=O)[n-]c1[O-])NCc1ccccc1-n1cccn1 (protonated)
O=C(Cc1sc(=O)[n-]c1[O-])NCc1ccccc1-n1cccn1 (3D coordinates assigned)
O=C(Cc1sc(=O)[n-]c1[O-])NCc1ccccc1-n1cccn1 (optimized conformer: 97.54573111119501 kcal/mol)

> <smiles>
O=C(Cc1sc(=O)[nH]c1O)NCc1ccccc1-n1cccn1

> <score_type>
oracle

> <origin>
adg

> <m_score__min__energy>
-14.49

> <m_primary>
energy

> <minimizedAffinity>
-7.35337

> <minimizedRMSD>
1.28143

> <CNNscore>
0.4661257863

> <CNNaffinity>
6.3597159386

> <CNN_VS>
2.9644277096

> <CNNaffinity_variance>
0.0569772571

$$$$
62:0


 28 30  0  0  0  0  0  0  0  0999 V2000
   57.5414   28.5446   45.4572 C   0  0  0  0  0  0  0  0  0  0  0  0
   58.3773   27.7377   46.1303 C   0  0  0  0  0  0  0  0  0  0  0  0
   58.5629   26.3687   45.9144 C   0  0  0  0  0  0  0  0  0  0  0  0
   57.9969   25.6070   44.9592 C   0  0  0  0  0  0  0  0  0  0  0  0
   59.4836   25.9444   46.8636 C   0  0  0  0  0  0  0  0  0  0  0  0
   59.8220   27.0552   47.6100 C   0  0  0  0  0  0  0  0  0  0  0  0
   60.7921   27.0495   48.7519 C   0  0  0  0  0  0  0  0  0  0  0  0
   59.1481   28.1421   47.1711 N   0  0  0  0  0  0  0  0  0  0  0  0
   56.8383   24.7181   45.2062 C   0  0  0  0  0  0  0  0  0  0  0  0
   55.6538   25.1944   45.7940 C   0  0  0  0  0  0  0  0  0  0  0  0
   55.5324   26.5281   46.1705 O   0  0  0  0  0  0  0  0  0  0  0  0
   54.6055   24.3532   45.9833 N   0  0  0  0  0  0  0  0  0  0  0  0
   54.6702   23.0541   45.5961 C   0  0  0  0  0  0  0  0  0  0  0  0
   53.6865   22.2926   45.7855 O   0  0  0  0  0  0  0  0  0  0  0  0
   55.7918   22.5781   44.9993 N   0  0  0  0  0  0  0  0  0  0  0  0
   56.8682   23.3772   44.7889 C   0  0  0  0  0  0  0  0  0  0  0  0
   57.8915   22.9006   44.2281 O   0  0  0  0  0  0  0  0  0  0  0  0
   59.2596   29.4719   47.7087 C   0  0  0  0  0  0  0  0  0  0  0  0
   58.9107   29.7256   49.0432 C   0  0  0  0  0  0  0  0  0  0  0  0
   58.9936   31.0222   49.5564 C   0  0  0  0  0  0  0  0  0  0  0  0
   59.4312   32.0715   48.7445 C   0  0  0  0  0  0  0  0  0  0  0  0
   59.8113   31.8259   47.4147 C   0  0  0  0  0  0  0  0  0  0  0  0
   59.6972   30.5273   46.8956 C   0  0  0  0  0  0  0  0  0  0  0  0
   60.2279   32.9272   46.5217 C   0  0  0  0  0  0  0  0  0  0  0  0
   59.3969   33.7241   45.8289 C   0  0  0  0  0  0  0  0  0  0  0  0
   58.1405   33.3017   45.1803 C   0  0  0  0  0  0  0  0  0  0  0  0
   58.1164   32.9073   43.9841 O   0  0  0  0  0  0  0  0  0  0  0  0
   56.9703   33.2720   45.9264 O   0  0  0  0  0  0  0  0  0  0  0  0
  1  2  2  0
  2  3  1  0
  3  4  2  0
  4  9  1  0
  9 10  2  0
 10 11  1  0
 10 12  1  0
 12 13  1  0
 13 14  2  0
 13 15  1  0
 15 16  1  0
 16 17  2  0
  3  5  1  0
  5  6  2  0
  6  7  1  0
  6  8  1  0
  8 18  1  0
 18 19  2  0
 19 20  1  0
 20 21  2  0
 21 22  1  0
 22 24  1  0
 24 25  2  0
 25 26  1  0
 26 27  2  0
 26 28  1  0
 22 23  2  0
  8  2  1  0
 23 18  1  0
 16  9  1  0
M  CHG 1  11  -1
M  CHG 1  12  -1
M  CHG 1  15  -1
M  CHG 1  28  -1
M  END
> <UniqueID>
56

> <SMILES>
C=c1c(=Cc2c([O-])[n-]c(=O)[n-]c2=O)cc(C)n1-c1cccc(C=CC(=O)[O-])c1

> <Energy>
96.08824146575795

> <Genealogy>
C=c1c(=Cc2c([O-])[n-]c(=O)[n-]c2=O)cc(C)n1-c1cccc(C=CC(=O)[O-])c1 (protonated)
C=c1c(=Cc2c([O-])[n-]c(=O)[n-]c2=O)cc(C)n1-c1cccc(C=CC(=O)[O-])c1 (3D coordinates assigned)
C=c1c(=Cc2c([O-])[n-]c(=O)[n-]c2=O)cc(C)n1-c1cccc(C=CC(=O)[O-])c1 (optimized conformer: 96.08824146575795 kcal/mol)

> <smiles>
C=c1c(=Cc2c(O)[nH]c(=O)[nH]c2=O)cc(C)n1-c1cccc(C=CC(=O)O)c1

> <score_type>
oracle

> <origin>
adg

> <m_score__min__energy>
-17.09

> <m_primary>
energy

> <minimizedAffinity>
-8.43512

> <minimizedRMSD>
0.93427

> <CNNscore>
0.1370908916

> <CNNaffinity>
6.2591667175

> <CNN_VS>
0.8580747247

> <CNNaffinity_variance>
0.1487901807

$$$$
77:0


 32 35  0  0  0  0  0  0  0  0999 V2000
   57.5956   30.4434   44.9766 C   0  0  0  0  0  0  0  0  0  0  0  0
   57.2828   29.1244   44.8741 N   0  0  0  0  0  0  0  0  0  0  0  0
   57.7313   28.1969   45.7624 C   0  0  0  0  0  0  0  0  0  0  0  0
   57.3872   26.9515   45.5838 N   0  0  0  0  0  0  0  0  0  0  0  0
   58.5695   28.6102   46.8170 C   0  0  0  0  0  0  0  0  0  0  0  0
   58.9003   29.9609   46.9434 C   0  0  0  0  0  0  0  0  0  0  0  0
   58.4185   30.8962   46.0178 C   0  0  0  0  0  0  0  0  0  0  0  0
   58.7588   32.3343   46.1397 C   0  0  0  0  0  0  0  0  0  0  0  0
   58.8969   33.1079   44.9744 C   0  0  0  0  0  0  0  0  0  0  0  0
   59.2135   34.4664   45.0560 C   0  0  0  0  0  0  0  0  0  0  0  0
   59.4087   35.0626   46.3008 C   0  0  0  0  0  0  0  0  0  0  0  0
   59.2853   34.3061   47.4686 C   0  0  0  0  0  0  0  0  0  0  0  0
   58.9440   32.9431   47.4033 C   0  0  0  0  0  0  0  0  0  0  0  0
   58.8834   32.1373   48.5917 N   0  0  0  0  0  0  0  0  0  0  0  0
   59.6286   32.3393   49.7990 C   0  0  0  0  0  0  0  0  0  0  0  0
   59.1369   32.0366   50.9183 O   0  0  0  0  0  0  0  0  0  0  0  0
   61.0425   32.8265   49.7176 C   0  0  0  0  0  0  0  0  0  0  0  0
   61.9514   31.7265   49.3244 N   0  0  0  0  0  0  0  0  0  0  0  0
   62.3049   31.7674   47.8904 C   0  0  0  0  0  0  0  0  0  0  0  0
   63.2955   32.9108   47.5651 C   0  0  0  0  0  0  0  0  0  0  0  0
   63.8798   33.4834   48.7211 O   0  0  0  0  0  0  0  0  0  0  0  0
   64.3465   32.4640   49.5763 C   0  0  0  0  0  0  0  0  0  0  0  0
   63.1670   31.6669   50.1702 C   0  0  0  0  0  0  0  0  0  0  0  0
   58.1944   25.7856   45.8057 C   0  0  0  0  0  0  0  0  0  0  0  0
   59.4078   25.9432   46.1020 O   0  0  0  0  0  0  0  0  0  0  0  0
   57.6616   24.4139   45.5929 C   0  0  0  0  0  0  0  0  0  0  0  0
   58.5256   23.3812   45.1823 C   0  0  0  0  0  0  0  0  0  0  0  0
   58.0410   22.0866   44.9818 C   0  0  0  0  0  0  0  0  0  0  0  0
   56.6898   21.8044   45.1941 C   0  0  0  0  0  0  0  0  0  0  0  0
   55.8214   22.8167   45.6056 C   0  0  0  0  0  0  0  0  0  0  0  0
   56.2962   24.1173   45.8043 C   0  0  0  0  0  0  0  0  0  0  0  0
   55.4024   25.1076   46.1963 O   0  0  0  0  0  0  0  0  0  0  0  0
  1  2  1  0
  2  3  1  0
  3  4  2  0
  4 24  1  0
 24 25  2  0
 24 26  1  0
 26 27  2  0
 27 28  1  0
 28 29  2  0
 29 30  1  0
 30 31  2  0
 31 32  1  0
  3  5  1  0
  5  6  2  0
  6  7  1  0
  7  8  1  0
  8  9  2  0
  9 10  1  0
 10 11  2  0
 11 12  1  0
 12 13  2  0
 13 14  1  0
 14 15  1  0
 15 16  2  0
 15 17  1  0
 17 18  1  0
 18 19  1  0
 19 20  1  0
 20 21  1  0
 21 22  1  0
 22 23  1  0
  7  1  2  0
 13  8  1  0
 23 18  1  0
 31 26  1  0
M  CHG 1   2  -1
M  CHG 1  14  -1
M  CHG 1  32  -1
M  END
> <UniqueID>
69

> <SMILES>
O=C(CN1CCOCC1)[N-]c1ccccc1-c1cc/c(=N\C(=O)c2ccccc2[O-])[n-]c1

> <Energy>
90.81283675720094

> <Genealogy>
O=C(CN1CCOCC1)[N-]c1ccccc1-c1ccc(=NC(=O)c2ccccc2[O-])[n-]c1 (protonated)
O=C(CN1CCOCC1)[N-]c1ccccc1-c1cc/c(=N\C(=O)c2ccccc2[O-])[n-]c1 (cis-trans isomerization)
O=C(CN1CCOCC1)[N-]c1ccccc1-c1cc/c(=N\C(=O)c2ccccc2[O-])[n-]c1 (3D coordinates assigned)
O=C(CN1CCOCC1)[N-]c1ccccc1-c1cc/c(=N\C(=O)c2ccccc2[O-])[n-]c1 (nonaromatic ring conformer: 90.81283675720094 kcal/mol)

> <smiles>
O=C(CN1CCOCC1)Nc1ccccc1-c1ccc(=NC(=O)c2ccccc2O)[nH]c1

> <score_type>
oracle

> <origin>
adg

> <m_score__min__energy>
-15.390000000000001

> <m_primary>
energy

> <minimizedAffinity>
-9.06194

> <minimizedRMSD>
1.09435

> <CNNscore>
0.5367230177

> <CNNaffinity>
6.7622947693

> <CNN_VS>
3.6294791698

> <CNNaffinity_variance>
0.1033404097

$$$$
4:0


 33 36  0  0  0  0  0  0  0  0999 V2000
   59.6785   31.5304   46.7314 C   0  0  0  0  0  0  0  0  0  0  0  0
   61.0061   31.8248   47.0700 C   0  0  0  0  0  0  0  0  0  0  0  0
   61.3556   33.0948   47.5592 C   0  0  0  0  0  0  0  0  0  0  0  0
   60.3636   34.0829   47.6632 C   0  0  0  0  0  0  0  0  0  0  0  0
   59.0395   33.7956   47.3170 C   0  0  0  0  0  0  0  0  0  0  0  0
   58.6942   32.5216   46.8571 C   0  0  0  0  0  0  0  0  0  0  0  0
   57.4017   32.2486   46.5472 F   0  0  0  0  0  0  0  0  0  0  0  0
   62.7543   33.3916   47.9378 C   0  0  0  0  0  0  0  0  0  0  0  0
   63.5679   33.7690   47.0489 O   0  0  0  0  0  0  0  0  0  0  0  0
   63.2101   33.2388   49.2946 N   0  0  0  0  0  0  0  0  0  0  0  0
   64.5616   32.7120   49.5343 C   0  0  0  0  0  0  0  0  0  0  0  0
   64.8507   32.5456   51.0339 C   0  0  0  0  0  0  0  0  0  0  0  0
   63.6348   31.9739   51.7879 C   0  0  0  0  0  0  0  0  0  0  0  0
   63.4309   30.6230   51.4464 O   0  0  0  0  0  0  0  0  0  0  0  0
   62.3433   32.8086   51.5756 C   0  0  0  0  0  0  0  0  0  0  0  0
   62.4400   33.8063   50.4100 C   0  0  0  0  0  0  0  0  0  0  0  0
   63.2254   30.5561   50.5007 H   0  0  0  0  0  0  0  0  0  0  0  0
   59.1410   26.6525   46.1849 C   0  0  0  0  0  0  0  0  0  0  0  0
   59.1545   27.9882   46.0064 C   0  0  0  0  0  0  0  0  0  0  0  0
   58.6567   28.5941   44.8639 C   0  0  0  0  0  0  0  0  0  0  0  0
   58.7767   29.9562   45.0449 C   0  0  0  0  0  0  0  0  0  0  0  0
   58.3454   30.9915   44.0520 C   0  0  0  0  0  0  0  0  0  0  0  0
   59.3370   30.2217   46.2449 N   0  0  0  0  0  0  0  0  0  0  0  0
   59.6068   29.0296   46.8371 C   0  0  0  0  0  0  0  0  0  0  0  0
   60.2738   28.9180   47.9959 C   0  0  0  0  0  0  0  0  0  0  0  0
   56.1332   27.2069   45.6629 O   0  0  0  0  0  0  0  0  0  0  0  0
   56.6512   26.1025   46.3339 C   0  0  0  0  0  0  0  0  0  0  0  0
   55.8932   25.0954   46.7944 N   0  0  0  0  0  0  0  0  0  0  0  0
   56.8049   24.2459   47.3147 C   0  0  0  0  0  0  0  0  0  0  0  0
   56.4845   23.1535   47.8492 O   0  0  0  0  0  0  0  0  0  0  0  0
   58.0876   24.6562   47.2068 N   0  0  0  0  0  0  0  0  0  0  0  0
   57.9815   25.8532   46.6066 C   0  0  0  0  0  0  0  0  0  0  0  0
   55.2090   27.2823   45.5283 H   0  0  0  0  0  0  0  0  0  0  0  0
 26 27  1  0
 27 28  1  0
 28 29  1  0
 29 30  2  0
 29 31  1  0
 31 32  1  0
 32 18  1  0
 18 19  2  0
 19 20  1  0
 20 21  2  0
 21 22  1  0
 21 23  1  0
 23  1  1  0
  1  2  2  0
  2  3  1  0
  3  8  1  0
  8  9  2  0
  8 10  1  0
 10 11  1  0
 11 12  1  0
 12 13  1  0
 13 14  1  0
 13 15  1  0
 15 16  1  0
  3  4  2  0
  4  5  1  0
  5  6  2  0
  6  7  1  0
 23 24  1  0
 24 25  2  0
 32 27  2  0
 24 19  1  0
  6  1  1  0
 16 10  1  0
 26 33  1  0
 14 17  1  0
M  CHG 1  28  -1
M  CHG 1  31  -1
M  END
> <UniqueID>
5

> <SMILES>
C=c1/c(=C\c2[n-]c(=O)[n-]c2O)cc(C)n1-c1cc(C(=O)N2CCC(O)CC2)ccc1F

> <Energy>
136.85191013478095

> <Genealogy>
C=c1c(=Cc2[n-]c(=O)[n-]c2O)cc(C)n1-c1cc(C(=O)N2CCC(O)CC2)ccc1F (protonated)
C=c1/c(=C\c2[n-]c(=O)[n-]c2O)cc(C)n1-c1cc(C(=O)N2CCC(O)CC2)ccc1F (cis-trans isomerization)
C=c1/c(=C\c2[n-]c(=O)[n-]c2O)cc(C)n1-c1cc(C(=O)N2CCC(O)CC2)ccc1F (3D coordinates assigned)
C=c1/c(=C\c2[n-]c(=O)[n-]c2O)cc(C)n1-c1cc(C(=O)N2CCC(O)CC2)ccc1F (nonaromatic ring conformer: 136.85191013478095 kcal/mol)

> <smiles>
C=c1c(=Cc2[nH]c(=O)[nH]c2O)cc(C)n1-c1cc(C(=O)N2CCC(O)CC2)ccc1F

> <score_type>
oracle

> <origin>
adg

> <m_score__min__energy>
-14.43

> <m_primary>
energy

> <minimizedAffinity>
-9.36041

> <minimizedRMSD>
1.07941

> <CNNscore>
0.7596191764

> <CNNaffinity>
7.6465415955

> <CNN_VS>
5.8084597588

> <CNNaffinity_variance>
0.3453917503

$$$$
6:0


 33 37  0  0  0  0  0  0  0  0999 V2000
   58.5448   26.1374   44.9408 C   0  0  0  0  0  0  0  0  0  0  0  0
   59.2143   26.5108   46.0381 C   0  0  0  0  0  0  0  0  0  0  0  0
   60.5164   26.0531   46.5573 C   0  0  0  0  0  0  0  0  0  0  0  0
   60.7765   26.6840   47.6658 N   0  0  0  0  0  0  0  0  0  0  0  0
   59.6780   27.5128   47.9348 N   0  0  0  0  0  0  0  0  0  0  0  0
   59.6578   28.7747   48.4110 C   0  0  0  0  0  0  0  0  0  0  0  0
   60.4751   29.2678   49.2952 N   0  0  0  0  0  0  0  0  0  0  0  0
   58.6964   29.5199   47.8107 N   0  0  0  0  0  0  0  0  0  0  0  0
   58.1739   28.6401   46.9171 C   0  0  0  0  0  0  0  0  0  0  0  0
   57.3413   28.9576   45.9685 N   0  0  0  0  0  0  0  0  0  0  0  0
   58.7561   27.4306   47.0140 N   0  0  0  0  0  0  0  0  0  0  0  0
   55.7240   26.5491   46.1547 O   0  0  0  0  0  0  0  0  0  0  0  0
   56.1637   25.3962   45.5129 C   0  0  0  0  0  0  0  0  0  0  0  0
   55.4250   24.2798   45.3952 N   0  0  0  0  0  0  0  0  0  0  0  0
   56.2721   23.4265   44.7827 C   0  0  0  0  0  0  0  0  0  0  0  0
   55.9511   22.2443   44.4935 O   0  0  0  0  0  0  0  0  0  0  0  0
   57.4930   23.9354   44.5128 N   0  0  0  0  0  0  0  0  0  0  0  0
   57.4100   25.2010   44.9602 C   0  0  0  0  0  0  0  0  0  0  0  0
   54.8543   26.5899   46.5010 H   0  0  0  0  0  0  0  0  0  0  0  0
   57.4907   30.0262   45.0202 C   0  0  0  0  0  0  0  0  0  0  0  0
   56.9347   29.8689   43.7417 C   0  0  0  0  0  0  0  0  0  0  0  0
   57.0322   30.8941   42.7959 C   0  0  0  0  0  0  0  0  0  0  0  0
   57.6711   32.0914   43.1250 C   0  0  0  0  0  0  0  0  0  0  0  0
   58.2029   32.2705   44.4044 C   0  0  0  0  0  0  0  0  0  0  0  0
   58.1073   31.2470   45.3534 C   0  0  0  0  0  0  0  0  0  0  0  0
   61.1251   30.5775   49.2408 C   0  0  0  0  0  0  0  0  0  0  0  0
   61.3811   31.0040   47.7910 C   0  0  0  0  0  0  0  0  0  0  0  0
   60.7395   32.3341   47.4891 C   0  0  0  0  0  0  0  0  0  0  0  0
   59.5633   32.7210   48.1533 C   0  0  0  0  0  0  0  0  0  0  0  0
   58.9513   33.9416   47.8500 C   0  0  0  0  0  0  0  0  0  0  0  0
   59.5032   34.7790   46.8770 C   0  0  0  0  0  0  0  0  0  0  0  0
   60.6676   34.3968   46.2036 C   0  0  0  0  0  0  0  0  0  0  0  0
   61.2821   33.1783   46.5035 C   0  0  0  0  0  0  0  0  0  0  0  0
 12 13  1  0
 13 14  1  0
 14 15  1  0
 15 16  2  0
 15 17  1  0
 17 18  1  0
 18  1  1  0
  1  2  2  0
  2  3  1  0
  3  4  2  0
  4  5  1  0
  5  6  1  0
  6  7  2  0
  7 26  1  0
 26 27  1  0
 27 28  1  0
 28 29  2  0
 29 30  1  0
 30 31  2  0
 31 32  1  0
 32 33  2  0
  6  8  1  0
  8  9  1  0
  9 10  2  0
 10 20  1  0
 20 21  2  0
 21 22  1  0
 22 23  2  0
 23 24  1  0
 24 25  2  0
  9 11  1  0
 18 13  2  0
 11  2  1  0
 11  5  1  0
 33 28  1  0
 25 20  1  0
 12 19  1  0
M  CHG 1   8  -1
M  CHG 1  14  -1
M  CHG 1  17  -1
M  END
> <UniqueID>
7

> <SMILES>
O=c1[n-]c(O)c(/C=C2\C=Nn3c(=NCCc4ccccc4)[n-]/c(=N\c4ccccc4)n32)[n-]1

> <Energy>
187.5049197080681

> <Genealogy>
O=c1[n-]c(O)c(C=C2C=Nn3c(=NCCc4ccccc4)[n-]c(=Nc4ccccc4)n32)[n-]1 (protonated)
O=c1[n-]c(O)c(/C=C2\C=Nn3c(=NCCc4ccccc4)[n-]/c(=N\c4ccccc4)n32)[n-]1 (cis-trans isomerization)
O=c1[n-]c(O)c(/C=C2\C=Nn3c(=NCCc4ccccc4)[n-]/c(=N\c4ccccc4)n32)[n-]1 (3D coordinates assigned)
O=c1[n-]c(O)c(/C=C2\C=Nn3c(=NCCc4ccccc4)[n-]/c(=N\c4ccccc4)n32)[n-]1 (nonaromatic ring conformer: 187.5049197080681 kcal/mol)

> <smiles>
O=c1[nH]c(O)c(C=C2C=Nn3c(=NCCc4ccccc4)[nH]c(=Nc4ccccc4)n32)[nH]1

> <score_type>
oracle

> <origin>
adg

> <m_score__min__energy>
-15.34

> <m_primary>
energy

> <minimizedAffinity>
-7.83889

> <minimizedRMSD>
0.76740

> <CNNscore>
0.3141731918

> <CNNaffinity>
6.7277965546

> <CNN_VS>
2.1136932373

> <CNNaffinity_variance>
0.0166657306

$$$$
14:0


 31 34  0  0  0  0  0  0  0  0999 V2000
   57.7451   30.8882   52.3574 C   0  0  0  0  0  0  0  0  0  0  0  0
   58.2586   31.9677   52.7637 O   0  0  0  0  0  0  0  0  0  0  0  0
   54.4621   29.1918   55.5053 C   0  0  0  0  0  0  0  0  0  0  0  0
   54.9962   29.7064   54.3865 C   0  0  0  0  0  0  0  0  0  0  0  0
   54.2895   30.1744   53.2728 C   0  0  0  0  0  0  0  0  0  0  0  0
   52.9529   30.2294   53.1169 C   0  0  0  0  0  0  0  0  0  0  0  0
   55.2412   30.6404   52.3787 C   0  0  0  0  0  0  0  0  0  0  0  0
   56.4735   30.4458   52.9682 C   0  0  0  0  0  0  0  0  0  0  0  0
   56.3309   29.8500   54.1769 N   0  0  0  0  0  0  0  0  0  0  0  0
   57.4102   29.4104   55.0673 C   0  0  0  0  0  0  0  0  0  0  0  0
   52.2821   30.4348   51.8203 C   0  0  0  0  0  0  0  0  0  0  0  0
   52.3959   29.5830   50.7874 N   0  0  0  0  0  0  0  0  0  0  0  0
   51.7035   30.1906   49.7999 C   0  0  0  0  0  0  0  0  0  0  0  0
   51.5677   29.6828   48.6553 O   0  0  0  0  0  0  0  0  0  0  0  0
   51.1771   31.3879   50.1315 N   0  0  0  0  0  0  0  0  0  0  0  0
   51.5608   31.5357   51.4094 C   0  0  0  0  0  0  0  0  0  0  0  0
   51.2994   32.6723   52.1639 O   0  0  0  0  0  0  0  0  0  0  0  0
   58.4841   30.0262   51.4556 N   0  0  0  0  0  0  0  0  0  0  0  0
   58.9517   30.7884   50.2627 C   0  0  0  0  0  0  0  0  0  0  0  0
   60.1724   30.1305   49.6052 C   0  0  0  0  0  0  0  0  0  0  0  0
   61.3764   30.0707   50.5787 C   0  0  0  0  0  0  0  0  0  0  0  0
   60.9247   30.0336   52.0595 C   0  0  0  0  0  0  0  0  0  0  0  0
   59.5703   29.3252   52.1963 C   0  0  0  0  0  0  0  0  0  0  0  0
   58.5155   29.0917   51.7637 H   0  0  0  0  0  0  0  0  0  0  0  0
   62.4050   31.1928   50.3185 C   0  0  0  0  0  0  0  0  0  0  0  0
   61.9972   32.0349   49.1675 N   0  0  0  0  0  0  0  0  0  0  0  0
   63.0948   32.2072   48.1866 C   0  0  0  0  0  0  0  0  0  0  0  0
   62.7362   33.2193   47.0746 C   0  0  0  0  0  0  0  0  0  0  0  0
   61.2368   33.5322   47.0519 C   0  0  0  0  0  0  0  0  0  0  0  0
   60.7592   34.0454   48.4210 C   0  0  0  0  0  0  0  0  0  0  0  0
   61.4764   33.3498   49.5924 C   0  0  0  0  0  0  0  0  0  0  0  0
  3  4  2  0
  4  5  1  0
  5  6  2  0
  6 11  1  0
 11 12  1  0
 12 13  1  0
 13 14  2  0
 13 15  1  0
 15 16  1  0
 16 17  1  0
  5  7  1  0
  7  8  2  0
  8  1  1  0
  1  2  2  0
 18  1  1  0
 18 19  1  0
 19 20  1  0
 20 21  1  0
 21 25  1  0
 25 26  1  0
 26 27  1  0
 27 28  1  0
 28 29  1  0
 29 30  1  0
 30 31  1  0
 21 22  1  0
 22 23  1  0
  8  9  1  0
  9 10  1  0
  9  4  1  0
 16 11  2  0
 23 18  1  0
 31 26  1  0
 18 24  1  0
M  CHG 1  12  -1
M  CHG 1  15  -1
M  CHG 1  17  -1
M  CHG 1  18   1
M  END
> <UniqueID>
15

> <SMILES>
C=c1/c(=C/c2[n-]c(=O)[n-]c2[O-])cc(C(=O)[NH+]2CCC(CN3CCCCC3)CC2)n1C

> <Energy>
146.3868232347546

> <Genealogy>
C=c1c(=Cc2[n-]c(=O)[n-]c2[O-])cc(C(=O)[NH+]2CCC(CN3CCCCC3)CC2)n1C (protonated)
C=c1/c(=C/c2[n-]c(=O)[n-]c2[O-])cc(C(=O)[NH+]2CCC(CN3CCCCC3)CC2)n1C (cis-trans isomerization)
C=c1/c(=C/c2[n-]c(=O)[n-]c2[O-])cc(C(=O)[NH+]2CCC(CN3CCCCC3)CC2)n1C (3D coordinates assigned)
C=c1/c(=C/c2[n-]c(=O)[n-]c2[O-])cc(C(=O)[NH+]2CCC(CN3CCCCC3)CC2)n1C (nonaromatic ring conformer: 146.3868232347546 kcal/mol)

> <smiles>
C=c1c(=Cc2[nH]c(=O)[nH]c2O)cc(C(=O)N2CCC(CN3CCCCC3)CC2)n1C

> <score_type>
oracle

> <origin>
adg

> <m_score__min__energy>
-17.050000000000001

> <m_primary>
energy

> <minimizedAffinity>
-6.46153

> <minimizedRMSD>
0.98297

> <CNNscore>
0.0453796126

> <CNNaffinity>
4.9679908752

> <CNN_VS>
0.2254454941

> <CNNaffinity_variance>
0.3953624070

$$$$
31:0


 25 27  0  0  0  0  0  0  0  0999 V2000
   57.0564   28.2660   44.9551 N   0  0  0  0  0  0  0  0  0  0  0  0
   57.2241   29.5198   44.6429 C   0  0  0  0  0  0  0  0  0  0  0  0
   57.1698   30.1029   43.3815 C   0  0  0  0  0  0  0  0  0  0  0  0
   57.4201   31.4432   43.6184 C   0  0  0  0  0  0  0  0  0  0  0  0
   57.5948   31.6255   44.9420 N   0  0  0  0  0  0  0  0  0  0  0  0
   57.4864   30.4636   45.5627 N   0  0  0  0  0  0  0  0  0  0  0  0
   57.5813   30.3153   46.5314 H   0  0  0  0  0  0  0  0  0  0  0  0
   58.2680   28.0915   46.9548 O   0  0  0  0  0  0  0  0  0  0  0  0
   57.6986   27.5076   45.9940 C   0  0  0  0  0  0  0  0  0  0  0  0
   57.6704   26.0205   45.9412 C   0  0  0  0  0  0  0  0  0  0  0  0
   58.8693   25.3000   45.7892 C   0  0  0  0  0  0  0  0  0  0  0  0
   58.8566   23.9056   45.7375 C   0  0  0  0  0  0  0  0  0  0  0  0
   57.6410   23.2296   45.8389 C   0  0  0  0  0  0  0  0  0  0  0  0
   57.6105   21.9719   45.7957 O   0  0  0  0  0  0  0  0  0  0  0  0
   56.4864   23.9289   45.9870 N   0  0  0  0  0  0  0  0  0  0  0  0
   56.4659   25.2871   46.0416 C   0  0  0  0  0  0  0  0  0  0  0  0
   55.2412   25.9291   46.1931 O   0  0  0  0  0  0  0  0  0  0  0  0
   57.9569   32.8798   45.5959 C   0  0  0  0  0  0  0  0  0  0  0  0
   59.2967   32.7397   46.2624 C   0  0  0  0  0  0  0  0  0  0  0  0
   60.1698   33.8382   46.3339 C   0  0  0  0  0  0  0  0  0  0  0  0
   61.3963   33.7199   46.9949 C   0  0  0  0  0  0  0  0  0  0  0  0
   61.7536   32.5093   47.5975 C   0  0  0  0  0  0  0  0  0  0  0  0
   63.4279   32.3526   48.5044 Br  0  0  0  0  0  0  0  0  0  0  0  0
   60.8844   31.4160   47.5401 C   0  0  0  0  0  0  0  0  0  0  0  0
   59.6565   31.5316   46.8806 C   0  0  0  0  0  0  0  0  0  0  0  0
  8  9  2  0
  9  1  1  0
  1  2  2  0
  2  3  1  0
  3  4  2  0
  4  5  1  0
  5 18  1  0
 18 19  1  0
 19 20  2  0
 20 21  1  0
 21 22  2  0
 22 23  1  0
 22 24  1  0
 24 25  2  0
  5  6  1  0
  9 10  1  0
 10 11  1  0
 11 12  2  0
 12 13  1  0
 13 14  2  0
 13 15  1  0
 15 16  1  0
 16 17  1  0
  6  2  1  0
 16 10  2  0
 25 19  1  0
  6  7  1  0
M  CHG 1  15  -1
M  CHG 1  17  -1
M  END
> <UniqueID>
31

> <SMILES>
O=C(N=c1ccn(Cc2ccc(Br)cc2)[nH]1)c1ccc(=O)[n-]c1[O-]

> <Energy>
74.61754729196419

> <Genealogy>
O=C(N=c1ccn(Cc2ccc(Br)cc2)[nH]1)c1ccc(=O)[n-]c1[O-] (protonated)
O=C(N=c1ccn(Cc2ccc(Br)cc2)[nH]1)c1ccc(=O)[n-]c1[O-] (3D coordinates assigned)
O=C(N=c1ccn(Cc2ccc(Br)cc2)[nH]1)c1ccc(=O)[n-]c1[O-] (optimized conformer: 74.61754729196419 kcal/mol)

> <smiles>
O=C(N=c1ccn(Cc2ccc(Br)cc2)[nH]1)c1ccc(=O)[nH]c1O

> <score_type>
oracle

> <origin>
adg

> <m_score__min__energy>
-14.48

> <m_primary>
energy

> <minimizedAffinity>
-7.69997

> <minimizedRMSD>
1.15970

> <CNNscore>
0.6538906097

> <CNNaffinity>
6.5644855499

> <CNN_VS>
4.2924556732

> <CNNaffinity_variance>
0.1426119655

$$$$
32:0


 24 26  0  0  0  0  0  0  0  0999 V2000
   60.7385   33.8371   47.0233 C   0  0  0  0  0  0  0  0  0  0  0  0
   60.9817   32.9662   48.0133 C   0  0  0  0  0  0  0  0  0  0  0  0
   60.0193   31.8799   48.3115 C   0  0  0  0  0  0  0  0  0  0  0  0
   60.2924   31.0355   49.2058 O   0  0  0  0  0  0  0  0  0  0  0  0
   58.6735   31.8157   47.6409 C   0  0  0  0  0  0  0  0  0  0  0  0
   58.6499   32.5474   46.3281 C   0  0  0  0  0  0  0  0  0  0  0  0
   57.8034   32.1440   45.4193 N   0  0  0  0  0  0  0  0  0  0  0  0
   59.5592   33.7083   46.1551 C   0  0  0  0  0  0  0  0  0  0  0  0
   59.3357   34.6009   45.2967 O   0  0  0  0  0  0  0  0  0  0  0  0
   62.1818   33.0890   48.7981 N   0  0  0  0  0  0  0  0  0  0  0  0
   63.3669   32.3132   48.4276 C   0  0  0  0  0  0  0  0  0  0  0  0
   64.2240   32.0649   49.6719 C   0  0  0  0  0  0  0  0  0  0  0  0
   64.4997   33.2794   50.3441 O   0  0  0  0  0  0  0  0  0  0  0  0
   63.2962   33.8369   50.8431 C   0  0  0  0  0  0  0  0  0  0  0  0
   62.3630   34.2322   49.6954 C   0  0  0  0  0  0  0  0  0  0  0  0
   58.0217   31.1851   44.3364 C   0  0  0  0  0  0  0  0  0  0  0  0
   58.3698   29.8192   44.8793 C   0  0  0  0  0  0  0  0  0  0  0  0
   59.7164   29.4516   45.0426 C   0  0  0  0  0  0  0  0  0  0  0  0
   60.0500   28.1878   45.5383 C   0  0  0  0  0  0  0  0  0  0  0  0
   59.0458   27.2742   45.8623 C   0  0  0  0  0  0  0  0  0  0  0  0
   57.7028   27.6184   45.6825 C   0  0  0  0  0  0  0  0  0  0  0  0
   56.7083   26.6982   45.9969 O   0  0  0  0  0  0  0  0  0  0  0  0
   57.3607   28.8827   45.1864 C   0  0  0  0  0  0  0  0  0  0  0  0
   56.0191   29.2031   44.9980 O   0  0  0  0  0  0  0  0  0  0  0  0
  1  2  2  0
  2 10  1  0
 10 11  1  0
 11 12  1  0
 12 13  1  0
 13 14  1  0
 14 15  1  0
  2  3  1  0
  3  4  2  0
  3  5  1  0
  5  6  1  0
  6  7  2  0
  7 16  1  0
 16 17  1  0
 17 18  2  0
 18 19  1  0
 19 20  2  0
 20 21  1  0
 21 22  1  0
 21 23  2  0
 23 24  1  0
  6  8  1  0
  8  9  2  0
  8  1  1  0
 15 10  1  0
 23 17  1  0
M  CHG 1  22  -1
M  CHG 1  24  -1
M  END
> <UniqueID>
32

> <SMILES>
O=C1C/C(=N/Cc2cccc([O-])c2[O-])C(=O)C=C1N1CCOCC1

> <Energy>
50.84644483649576

> <Genealogy>
O=C1C=C(N2CCOCC2)C(=O)CC1=NCc1cccc([O-])c1[O-] (protonated)
O=C1C/C(=N/Cc2cccc([O-])c2[O-])C(=O)C=C1N1CCOCC1 (cis-trans isomerization)
O=C1C/C(=N/Cc2cccc([O-])c2[O-])C(=O)C=C1N1CCOCC1 (3D coordinates assigned)
O=C1C/C(=N/Cc2cccc([O-])c2[O-])C(=O)C=C1N1CCOCC1 (nonaromatic ring conformer: 50.84644483649576 kcal/mol)

> <smiles>
O=C1C=C(N2CCOCC2)C(=O)CC1=NCc1cccc(O)c1O

> <score_type>
oracle

> <origin>
adg

> <m_score__min__energy>
-15.529999999999999

> <m_primary>
energy

> <minimizedAffinity>
-7.85574

> <minimizedRMSD>
0.99298

> <CNNscore>
0.2187130600

> <CNNaffinity>
5.7794184685

> <CNN_VS>
1.2640342712

> <CNNaffinity_variance>
0.0439889170

$$$$
45:0


 31 34  0  0  0  0  0  0  0  0999 V2000
   60.6544   27.4281   46.0959 C   0  0  0  0  0  0  0  0  0  0  0  0
   59.5302   28.0812   45.7886 C   0  0  0  0  0  0  0  0  0  0  0  0
   59.4350   29.4235   45.8858 N   0  0  0  0  0  0  0  0  0  0  0  0
   58.2107   29.7714   45.5271 N   0  0  0  0  0  0  0  0  0  0  0  0
   57.7636   31.1337   45.4814 C   0  0  0  0  0  0  0  0  0  0  0  0
   56.7345   31.4195   44.8081 O   0  0  0  0  0  0  0  0  0  0  0  0
   57.5208   28.6689   45.1716 C   0  0  0  0  0  0  0  0  0  0  0  0
   56.3510   28.7069   44.7113 O   0  0  0  0  0  0  0  0  0  0  0  0
   58.3180   27.5381   45.3381 C   0  0  0  0  0  0  0  0  0  0  0  0
   58.0481   26.2272   45.1360 C   0  0  0  0  0  0  0  0  0  0  0  0
   57.3721   25.2844   46.0599 C   0  0  0  0  0  0  0  0  0  0  0  0
   57.9432   24.2711   46.7348 N   0  0  0  0  0  0  0  0  0  0  0  0
   56.9189   23.7294   47.4268 C   0  0  0  0  0  0  0  0  0  0  0  0
   57.0650   22.7381   48.1873 O   0  0  0  0  0  0  0  0  0  0  0  0
   55.7280   24.3334   47.2411 N   0  0  0  0  0  0  0  0  0  0  0  0
   56.0319   25.3143   46.3756 C   0  0  0  0  0  0  0  0  0  0  0  0
   55.1011   26.2228   45.8848 O   0  0  0  0  0  0  0  0  0  0  0  0
   58.4983   32.2176   46.1735 C   0  0  0  0  0  0  0  0  0  0  0  0
   58.9728   33.3234   45.4480 C   0  0  0  0  0  0  0  0  0  0  0  0
   59.6916   34.3341   46.0903 C   0  0  0  0  0  0  0  0  0  0  0  0
   59.9626   34.2423   47.4574 C   0  0  0  0  0  0  0  0  0  0  0  0
   59.5130   33.1382   48.1961 C   0  0  0  0  0  0  0  0  0  0  0  0
   58.7778   32.1288   47.5493 C   0  0  0  0  0  0  0  0  0  0  0  0
   59.8509   33.0224   49.6582 C   0  0  0  0  0  0  0  0  0  0  0  0
   61.2368   32.5873   49.8345 N   0  0  0  0  0  0  0  0  0  0  0  0
   62.2291   33.4253   50.0930 N   0  0  0  0  0  0  0  0  0  0  0  0
   63.3484   32.6911   50.2444 C   0  0  0  0  0  0  0  0  0  0  0  0
   64.6753   33.2601   50.6184 C   0  0  0  0  0  0  0  0  0  0  0  0
   63.0595   31.3473   50.1023 C   0  0  0  0  0  0  0  0  0  0  0  0
   61.7074   31.3206   49.8266 C   0  0  0  0  0  0  0  0  0  0  0  0
   60.8774   30.0818   49.7051 C   0  0  0  0  0  0  0  0  0  0  0  0
  1  2  2  0
  2  3  1  0
  3  4  1  0
  4  5  1  0
  5  6  2  0
  5 18  1  0
 18 19  2  0
 19 20  1  0
 20 21  2  0
 21 22  1  0
 22 24  1  0
 24 25  1  0
 25 26  1  0
 26 27  2  0
 27 28  1  0
 27 29  1  0
 29 30  2  0
 30 31  1  0
 22 23  2  0
  4  7  1  0
  7  8  2  0
  7  9  1  0
  9 10  2  0
 10 11  1  0
 11 12  1  0
 12 13  1  0
 13 14  2  0
 13 15  1  0
 15 16  1  0
 16 17  1  0
  9  2  1  0
 16 11  2  0
 23 18  1  0
 30 25  1  0
M  CHG 1   3  -1
M  CHG 1  12  -1
M  CHG 1  15  -1
M  CHG 1  17  -1
M  END
> <UniqueID>
45

> <SMILES>
C=c1[n-]n(C(=O)c2cccc(Cn3nc(C)cc3C)c2)c(=O)c1=Cc1[n-]c(=O)[n-]c1[O-]

> <Energy>
151.4074213207411

> <Genealogy>
C=c1[n-]n(C(=O)c2cccc(Cn3nc(C)cc3C)c2)c(=O)c1=Cc1[n-]c(=O)[n-]c1[O-] (protonated)
C=c1[n-]n(C(=O)c2cccc(Cn3nc(C)cc3C)c2)c(=O)c1=Cc1[n-]c(=O)[n-]c1[O-] (3D coordinates assigned)
C=c1[n-]n(C(=O)c2cccc(Cn3nc(C)cc3C)c2)c(=O)c1=Cc1[n-]c(=O)[n-]c1[O-] (optimized conformer: 151.4074213207411 kcal/mol)

> <smiles>
C=c1[nH]n(C(=O)c2cccc(Cn3nc(C)cc3C)c2)c(=O)c1=Cc1[nH]c(=O)[nH]c1O

> <score_type>
oracle

> <origin>
adg

> <m_score__min__energy>
-19.02

> <m_primary>
energy

> <minimizedAffinity>
-8.99490

> <minimizedRMSD>
0.93911

> <CNNscore>
0.3924793899

> <CNNaffinity>
6.8730549812

> <CNN_VS>
2.6975324154

> <CNNaffinity_variance>
0.1133969799

$$$$
48:0


 23 25  0  0  0  0  0  0  0  0999 V2000
   58.3305   28.4260   44.1899 C   0  0  0  0  0  0  0  0  0  0  0  0
   60.0575   28.8186   47.1683 C   0  0  0  0  0  0  0  0  0  0  0  0
   60.5047   28.2343   48.3185 N   0  0  0  0  0  0  0  0  0  0  0  0
   59.9622   27.0190   48.4402 N   0  0  0  0  0  0  0  0  0  0  0  0
   59.1721   26.8838   47.3668 C   0  0  0  0  0  0  0  0  0  0  0  0
   58.4848   25.8292   46.8998 N   0  0  0  0  0  0  0  0  0  0  0  0
   58.0420   26.3168   45.7051 C   0  0  0  0  0  0  0  0  0  0  0  0
   57.2856   25.5591   44.8199 O   0  0  0  0  0  0  0  0  0  0  0  0
   58.4601   27.6360   45.4579 C   0  0  0  0  0  0  0  0  0  0  0  0
   59.2027   27.9317   46.5692 C   0  0  0  0  0  0  0  0  0  0  0  0
   61.3330   30.9037   47.3165 C   0  0  0  0  0  0  0  0  0  0  0  0
   60.4721   30.1333   46.6591 C   0  0  0  0  0  0  0  0  0  0  0  0
   57.5782   29.6922   44.4533 C   0  0  0  0  0  0  0  0  0  0  0  0
   56.4748   29.6532   45.0610 O   0  0  0  0  0  0  0  0  0  0  0  0
   58.1334   30.9436   44.0398 N   0  0  0  0  0  0  0  0  0  0  0  0
   57.5195   32.2252   44.3589 C   0  0  0  0  0  0  0  0  0  0  0  0
   58.2646   32.8712   45.4954 C   0  0  0  0  0  0  0  0  0  0  0  0
   57.9909   32.4901   46.8190 C   0  0  0  0  0  0  0  0  0  0  0  0
   58.6331   33.1303   47.8834 C   0  0  0  0  0  0  0  0  0  0  0  0
   59.5483   34.1567   47.6342 C   0  0  0  0  0  0  0  0  0  0  0  0
   60.1626   34.7833   48.6687 F   0  0  0  0  0  0  0  0  0  0  0  0
   59.8235   34.5444   46.3213 C   0  0  0  0  0  0  0  0  0  0  0  0
   59.1810   33.9080   45.2529 C   0  0  0  0  0  0  0  0  0  0  0  0
 11 12  2  0
 12  2  1  0
  2  3  2  0
  3  4  1  0
  4  5  1  0
  5  6  1  0
  6  7  1  0
  7  8  1  0
  7  9  2  0
  9  1  1  0
  1 13  1  0
 13 14  2  0
 13 15  1  0
 15 16  1  0
 16 17  1  0
 17 18  2  0
 18 19  1  0
 19 20  2  0
 20 21  1  0
 20 22  1  0
 22 23  2  0
  9 10  1  0
 10  2  1  0
 10  5  2  0
 23 17  1  0
M  CHG 1   4  -1
M  CHG 1   6  -1
M  CHG 1   8  -1
M  CHG 1  15  -1
M  END
> <UniqueID>
48

> <SMILES>
C=Cc1n[n-]c2[n-]c([O-])c(CC(=O)[N-]Cc3ccc(F)cc3)c12

> <Energy>
114.01681324000495

> <Genealogy>
C=Cc1n[n-]c2[n-]c([O-])c(CC(=O)[N-]Cc3ccc(F)cc3)c12 (protonated)
C=Cc1n[n-]c2[n-]c([O-])c(CC(=O)[N-]Cc3ccc(F)cc3)c12 (3D coordinates assigned)
C=Cc1n[n-]c2[n-]c([O-])c(CC(=O)[N-]Cc3ccc(F)cc3)c12 (optimized conformer: 114.01681324000495 kcal/mol)

> <smiles>
C=Cc1n[nH]c2[nH]c(O)c(CC(=O)NCc3ccc(F)cc3)c12

> <score_type>
oracle

> <origin>
adg

> <m_score__min__energy>
-15.710000000000001

> <m_primary>
energy

> <minimizedAffinity>
-6.60772

> <minimizedRMSD>
1.46413

> <CNNscore>
0.6604769230

> <CNNaffinity>
6.8064227104

> <CNN_VS>
4.4954853058

> <CNNaffinity_variance>
0.2773835659

$$$$
53:0


 38 41  0  0  0  0  0  0  0  0999 V2000
   59.5519   30.4993   51.7230 C   0  0  0  0  0  0  0  0  0  0  0  0
   59.9746   29.1629   51.7804 C   0  0  0  0  0  0  0  0  0  0  0  0
   60.7103   28.6109   50.7297 C   0  0  0  0  0  0  0  0  0  0  0  0
   61.0119   29.3829   49.6039 C   0  0  0  0  0  0  0  0  0  0  0  0
   60.5742   30.7139   49.5174 C   0  0  0  0  0  0  0  0  0  0  0  0
   59.8662   31.2753   50.5943 C   0  0  0  0  0  0  0  0  0  0  0  0
   60.8738   31.5105   48.3080 C   0  0  0  0  0  0  0  0  0  0  0  0
   61.8915   31.2128   47.6249 O   0  0  0  0  0  0  0  0  0  0  0  0
   60.0056   32.5777   47.8685 N   0  0  0  0  0  0  0  0  0  0  0  0
   60.4995   33.5928   46.9289 C   0  0  0  0  0  0  0  0  0  0  0  0
   59.8344   33.3931   45.5651 C   0  0  0  0  0  0  0  0  0  0  0  0
   58.2926   33.1993   45.6621 C   0  0  0  0  0  0  0  0  0  0  0  0
   57.7451   33.3254   47.1055 C   0  0  0  0  0  0  0  0  0  0  0  0
   58.5573   32.5042   48.1250 C   0  0  0  0  0  0  0  0  0  0  0  0
   57.8684   31.9016   45.0236 C   0  0  0  0  0  0  0  0  0  0  0  0
   56.6469   31.6709   44.8141 O   0  0  0  0  0  0  0  0  0  0  0  0
   58.8357   30.8587   44.8404 N   0  0  0  0  0  0  0  0  0  0  0  0
   58.8771   29.6738   45.3884 C   0  0  0  0  0  0  0  0  0  0  0  0
   60.0972   29.2030   45.7737 N   0  0  0  0  0  0  0  0  0  0  0  0
   60.2603   28.0011   46.3883 C   0  0  0  0  0  0  0  0  0  0  0  0
   59.1553   27.1941   46.6443 C   0  0  0  0  0  0  0  0  0  0  0  0
   57.8922   27.6183   46.2299 C   0  0  0  0  0  0  0  0  0  0  0  0
   57.7353   28.8514   45.5809 C   0  0  0  0  0  0  0  0  0  0  0  0
   56.4766   29.2100   45.1013 O   0  0  0  0  0  0  0  0  0  0  0  0
   55.7424   28.6456   45.2444 H   0  0  0  0  0  0  0  0  0  0  0  0
   58.7316   31.0700   52.8497 C   0  0  0  0  0  0  0  0  0  0  0  0
   57.8654   30.0694   53.3859 O   0  0  0  0  0  0  0  0  0  0  0  0
   53.7649   29.7562   52.4418 C   0  0  0  0  0  0  0  0  0  0  0  0
   54.3680   28.7760   53.2446 C   0  0  0  0  0  0  0  0  0  0  0  0
   55.7271   28.8545   53.5499 C   0  0  0  0  0  0  0  0  0  0  0  0
   56.5016   29.9309   53.0814 C   0  0  0  0  0  0  0  0  0  0  0  0
   55.8996   30.9051   52.2784 C   0  0  0  0  0  0  0  0  0  0  0  0
   54.5382   30.8241   51.9647 C   0  0  0  0  0  0  0  0  0  0  0  0
   52.2962   29.6774   52.1167 C   0  0  0  0  0  0  0  0  0  0  0  0
   51.4699   31.6952   50.8294 N   0  0  0  0  0  0  0  0  0  0  0  0
   51.6958   31.0472   52.0785 C   0  0  0  0  0  0  0  0  0  0  0  0
   51.4008   31.6350   53.1532 O   0  0  0  0  0  0  0  0  0  0  0  0
   51.0746   32.5966   50.8069 H   0  0  0  0  0  0  0  0  0  0  0  0
 35 36  1  0
 36 37  2  0
 36 34  1  0
 34 28  1  0
 28 29  2  0
 29 30  1  0
 30 31  2  0
 31 27  1  0
 27 26  1  0
 26  1  1  0
  1  2  2  0
  2  3  1  0
  3  4  2  0
  4  5  1  0
  5  7  1  0
  7  8  2  0
  7  9  1  0
  9 10  1  0
 10 11  1  0
 11 12  1  0
 12 15  1  0
 15 16  2  0
 15 17  1  0
 17 18  2  0
 18 19  1  0
 19 20  1  0
 20 21  2  0
 21 22  1  0
 22 23  2  0
 23 24  1  0
 12 13  1  0
 13 14  1  0
  5  6  2  0
 31 32  1  0
 32 33  2  0
 33 28  1  0
  6  1  1  0
 14  9  1  0
 23 18  1  0
 35 38  1  0
 24 25  1  0
M  CHG 1  19  -1
M  CHG 1  35  -1
M  END
> <UniqueID>
53

> <SMILES>
[NH-]C(=O)Cc1ccc(OCc2cccc(C(=O)N3CCC(C(=O)/N=c4/[n-]cccc4O)CC3)c2)cc1

> <Energy>
81.11601794138551

> <Genealogy>
[NH-]C(=O)Cc1ccc(OCc2cccc(C(=O)N3CCC(C(=O)N=c4[n-]cccc4O)CC3)c2)cc1 (protonated)
[NH-]C(=O)Cc1ccc(OCc2cccc(C(=O)N3CCC(C(=O)/N=c4/[n-]cccc4O)CC3)c2)cc1 (cis-trans isomerization)
[NH-]C(=O)Cc1ccc(OCc2cccc(C(=O)N3CCC(C(=O)/N=c4/[n-]cccc4O)CC3)c2)cc1 (3D coordinates assigned)
[NH-]C(=O)Cc1ccc(OCc2cccc(C(=O)N3CCC(C(=O)/N=c4/[n-]cccc4O)CC3)c2)cc1 (nonaromatic ring conformer: 81.11601794138551 kcal/mol)

> <smiles>
NC(=O)Cc1ccc(OCc2cccc(C(=O)N3CCC(C(=O)N=c4[nH]cccc4O)CC3)c2)cc1

> <score_type>
oracle

> <origin>
adg

> <m_score__min__energy>
-16.870000000000001

> <m_primary>
energy

> <minimizedAffinity>
-8.77675

> <minimizedRMSD>
0.62639

> <CNNscore>
0.5828775764

> <CNNaffinity>
7.2412056923

> <CNN_VS>
4.2207365036

> <CNNaffinity_variance>
0.2338093072

$$$$
64:0


 27 30  0  0  0  0  0  0  0  0999 V2000
   57.4053   26.4331   46.5064 C   0  0  0  0  0  0  0  0  0  0  0  0
   56.2009   26.6031   45.8372 C   0  0  0  0  0  0  0  0  0  0  0  0
   55.2021   25.6400   45.7540 O   0  0  0  0  0  0  0  0  0  0  0  0
   56.1052   27.8176   45.2459 N   0  0  0  0  0  0  0  0  0  0  0  0
   57.2651   28.4249   45.5625 C   0  0  0  0  0  0  0  0  0  0  0  0
   57.6568   29.7103   45.1885 C   0  0  0  0  0  0  0  0  0  0  0  0
   58.9029   30.1802   45.6419 C   0  0  0  0  0  0  0  0  0  0  0  0
   59.7135   29.3748   46.4739 C   0  0  0  0  0  0  0  0  0  0  0  0
   59.2903   28.0837   46.8403 C   0  0  0  0  0  0  0  0  0  0  0  0
   58.0715   27.6273   46.3370 C   0  0  0  0  0  0  0  0  0  0  0  0
   56.1761   22.8620   48.1018 C   0  0  0  0  0  0  0  0  0  0  0  0
   56.9983   22.9284   47.0531 C   0  0  0  0  0  0  0  0  0  0  0  0
   57.1765   21.9010   46.2023 N   0  0  0  0  0  0  0  0  0  0  0  0
   58.0660   22.3822   45.3103 C   0  0  0  0  0  0  0  0  0  0  0  0
   58.4841   21.7079   44.3342 O   0  0  0  0  0  0  0  0  0  0  0  0
   58.4653   23.6485   45.5417 N   0  0  0  0  0  0  0  0  0  0  0  0
   57.7881   24.0006   46.6524 C   0  0  0  0  0  0  0  0  0  0  0  0
   57.8541   25.2199   47.2119 C   0  0  0  0  0  0  0  0  0  0  0  0
   61.2709   30.0143   47.0908 S   0  0  0  0  0  0  0  0  0  0  0  0
   60.5404   30.6860   48.6237 C   0  0  0  0  0  0  0  0  0  0  0  0
   60.3606   32.2145   48.5407 C   0  0  0  0  0  0  0  0  0  0  0  0
   59.7545   32.6872   47.2760 N   0  0  0  0  0  0  0  0  0  0  0  0
   58.3213   33.0246   47.3856 C   0  0  0  0  0  0  0  0  0  0  0  0
   57.7858   33.4736   46.0240 C   0  0  0  0  0  0  0  0  0  0  0  0
   58.5066   34.7417   45.5288 C   0  0  0  0  0  0  0  0  0  0  0  0
   59.8568   34.9821   46.2284 C   0  0  0  0  0  0  0  0  0  0  0  0
   60.5878   33.6617   46.5223 C   0  0  0  0  0  0  0  0  0  0  0  0
 11 12  2  0
 12 13  1  0
 13 14  1  0
 14 15  2  0
 14 16  1  0
 16 17  1  0
 17 18  2  0
 18  1  1  0
  1  2  2  0
  2  3  1  0
  2  4  1  0
  4  5  1  0
  5  6  2  0
  6  7  1  0
  7  8  2  0
  8 19  1  0
 19 20  1  0
 20 21  1  0
 21 22  1  0
 22 23  1  0
 23 24  1  0
 24 25  1  0
 25 26  1  0
 26 27  1  0
  8  9  1  0
  9 10  2  0
 17 12  1  0
 10  1  1  0
 10  5  1  0
 27 22  1  0
M  CHG 1   3  -1
M  CHG 1   4  -1
M  CHG 1  13  -1
M  CHG 1  16  -1
M  END
> <UniqueID>
63

> <SMILES>
C=c1[n-]c(=O)[n-]c1=Cc1c([O-])[n-]c2ccc(SCCN3CCCCC3)cc12

> <Energy>
122.33876584097483

> <Genealogy>
C=c1[n-]c(=O)[n-]c1=Cc1c([O-])[n-]c2ccc(SCCN3CCCCC3)cc12 (protonated)
C=c1[n-]c(=O)[n-]c1=Cc1c([O-])[n-]c2ccc(SCCN3CCCCC3)cc12 (3D coordinates assigned)
C=c1[n-]c(=O)[n-]c1=Cc1c([O-])[n-]c2ccc(SCCN3CCCCC3)cc12 (nonaromatic ring conformer: 122.33876584097483 kcal/mol)

> <smiles>
C=c1[nH]c(=O)[nH]c1=Cc1c(O)[nH]c2ccc(SCCN3CCCCC3)cc12

> <score_type>
oracle

> <origin>
adg

> <m_score__min__energy>
-17

> <m_primary>
energy

> <minimizedAffinity>
-5.28692

> <minimizedRMSD>
0.64237

> <CNNscore>
0.1240222529

> <CNNaffinity>
5.9892082214

> <CNN_VS>
0.7427951097

> <CNNaffinity_variance>
0.0327994935

$$$$
65:0


 32 35  0  0  0  0  0  0  0  0999 V2000
   60.6595   30.4508   47.2399 C   0  0  0  0  0  0  0  0  0  0  0  0
   62.0474   30.3386   47.3720 C   0  0  0  0  0  0  0  0  0  0  0  0
   62.8322   31.4776   47.5581 C   0  0  0  0  0  0  0  0  0  0  0  0
   62.2378   32.7485   47.6118 C   0  0  0  0  0  0  0  0  0  0  0  0
   60.8430   32.8597   47.4692 C   0  0  0  0  0  0  0  0  0  0  0  0
   60.0457   31.7129   47.2832 C   0  0  0  0  0  0  0  0  0  0  0  0
   60.0340   29.0455   44.7187 C   0  0  0  0  0  0  0  0  0  0  0  0
   59.6326   28.5961   45.9175 C   0  0  0  0  0  0  0  0  0  0  0  0
   58.8002   27.4953   46.1814 C   0  0  0  0  0  0  0  0  0  0  0  0
   58.3678   26.5025   45.3806 C   0  0  0  0  0  0  0  0  0  0  0  0
   58.4767   27.5683   47.5277 C   0  0  0  0  0  0  0  0  0  0  0  0
   59.1487   28.6577   48.0429 C   0  0  0  0  0  0  0  0  0  0  0  0
   59.1845   29.0269   49.4952 C   0  0  0  0  0  0  0  0  0  0  0  0
   59.8644   29.2663   47.0734 N   0  0  0  0  0  0  0  0  0  0  0  0
   57.6059   25.3201   45.8154 C   0  0  0  0  0  0  0  0  0  0  0  0
   58.1479   24.1219   46.1004 N   0  0  0  0  0  0  0  0  0  0  0  0
   57.1036   23.4146   46.5829 C   0  0  0  0  0  0  0  0  0  0  0  0
   57.2092   22.2161   46.9526 O   0  0  0  0  0  0  0  0  0  0  0  0
   55.9400   24.0968   46.6511 N   0  0  0  0  0  0  0  0  0  0  0  0
   56.2815   25.3057   46.1749 C   0  0  0  0  0  0  0  0  0  0  0  0
   55.3994   26.3747   46.0768 O   0  0  0  0  0  0  0  0  0  0  0  0
   63.0738   33.9530   47.8124 C   0  0  0  0  0  0  0  0  0  0  0  0
   63.2318   34.4401   48.9646 O   0  0  0  0  0  0  0  0  0  0  0  0
   63.6979   34.5651   46.7313 O   0  0  0  0  0  0  0  0  0  0  0  0
   58.6505   31.7805   47.1260 O   0  0  0  0  0  0  0  0  0  0  0  0
   57.9560   32.6554   46.2376 C   0  0  0  0  0  0  0  0  0  0  0  0
   57.6021   31.9372   44.9625 C   0  0  0  0  0  0  0  0  0  0  0  0
   56.8741   30.7383   45.0150 C   0  0  0  0  0  0  0  0  0  0  0  0
   56.5279   30.0715   43.8363 C   0  0  0  0  0  0  0  0  0  0  0  0
   56.9136   30.5934   42.5975 C   0  0  0  0  0  0  0  0  0  0  0  0
   57.6473   31.7809   42.5385 C   0  0  0  0  0  0  0  0  0  0  0  0
   57.9937   32.4519   43.7156 C   0  0  0  0  0  0  0  0  0  0  0  0
  7  8  2  0
  8  9  1  0
  9 10  2  0
 10 15  1  0
 15 16  1  0
 16 17  1  0
 17 18  2  0
 17 19  1  0
 19 20  1  0
 20 21  1  0
  9 11  1  0
 11 12  2  0
 12 13  1  0
 12 14  1  0
 14  1  1  0
  1  2  2  0
  2  3  1  0
  3  4  2  0
  4 22  1  0
 22 23  2  0
 22 24  1  0
  4  5  1  0
  5  6  2  0
  6 25  1  0
 25 26  1  0
 26 27  1  0
 27 28  2  0
 28 29  1  0
 29 30  2  0
 30 31  1  0
 31 32  2  0
 14  8  1  0
  6  1  1  0
 32 27  1  0
 20 15  2  0
M  CHG 1  16  -1
M  CHG 1  19  -1
M  CHG 1  21  -1
M  CHG 1  24  -1
M  END
> <UniqueID>
64

> <SMILES>
C=c1c(=Cc2[n-]c(=O)[n-]c2[O-])cc(C)n1-c1ccc(C(=O)[O-])cc1OCc1ccccc1

> <Energy>
127.82875755229605

> <Genealogy>
C=c1c(=Cc2[n-]c(=O)[n-]c2[O-])cc(C)n1-c1ccc(C(=O)[O-])cc1OCc1ccccc1 (protonated)
C=c1c(=Cc2[n-]c(=O)[n-]c2[O-])cc(C)n1-c1ccc(C(=O)[O-])cc1OCc1ccccc1 (3D coordinates assigned)
C=c1c(=Cc2[n-]c(=O)[n-]c2[O-])cc(C)n1-c1ccc(C(=O)[O-])cc1OCc1ccccc1 (optimized conformer: 127.82875755229605 kcal/mol)

> <smiles>
C=c1c(=Cc2[nH]c(=O)[nH]c2O)cc(C)n1-c1ccc(C(=O)O)cc1OCc1ccccc1

> <score_type>
oracle

> <origin>
adg

> <m_score__min__energy>
-17.010000000000002

> <m_primary>
energy

> <minimizedAffinity>
-6.19061

> <minimizedRMSD>
0.46364

> <CNNscore>
0.1013738737

> <CNNaffinity>
6.2400779724

> <CNN_VS>
0.6325808764

> <CNNaffinity_variance>
0.1942532063

$$$$
73:0


 28 31  0  0  0  0  0  0  0  0999 V2000
   60.9146   28.9974   45.4001 C   0  0  0  0  0  0  0  0  0  0  0  0
   60.3541   28.9318   46.6182 C   0  0  0  0  0  0  0  0  0  0  0  0
   59.5387   27.9075   47.1252 C   0  0  0  0  0  0  0  0  0  0  0  0
   59.2787   26.6727   46.6561 C   0  0  0  0  0  0  0  0  0  0  0  0
   59.0007   28.3905   48.3072 C   0  0  0  0  0  0  0  0  0  0  0  0
   59.5554   29.6359   48.5196 C   0  0  0  0  0  0  0  0  0  0  0  0
   59.2447   30.5253   49.6836 C   0  0  0  0  0  0  0  0  0  0  0  0
   60.3816   29.9598   47.5027 N   0  0  0  0  0  0  0  0  0  0  0  0
   57.9382   26.0794   46.5173 C   0  0  0  0  0  0  0  0  0  0  0  0
   57.5626   24.9101   47.0689 N   0  0  0  0  0  0  0  0  0  0  0  0
   56.2409   24.8473   46.7984 C   0  0  0  0  0  0  0  0  0  0  0  0
   55.5230   23.8738   47.1478 O   0  0  0  0  0  0  0  0  0  0  0  0
   55.7481   25.9128   46.1331 N   0  0  0  0  0  0  0  0  0  0  0  0
   56.8300   26.6914   45.9735 C   0  0  0  0  0  0  0  0  0  0  0  0
   56.7972   27.9318   45.3425 O   0  0  0  0  0  0  0  0  0  0  0  0
   55.9892   28.2637   45.0034 H   0  0  0  0  0  0  0  0  0  0  0  0
   61.0582   31.2206   47.3463 C   0  0  0  0  0  0  0  0  0  0  0  0
   62.3741   31.3434   47.8203 C   0  0  0  0  0  0  0  0  0  0  0  0
   63.0471   32.5616   47.7326 C   0  0  0  0  0  0  0  0  0  0  0  0
   62.4141   33.6704   47.1743 C   0  0  0  0  0  0  0  0  0  0  0  0
   61.1064   33.5628   46.6936 C   0  0  0  0  0  0  0  0  0  0  0  0
   60.4143   32.3409   46.7625 C   0  0  0  0  0  0  0  0  0  0  0  0
   59.0426   32.2701   46.2034 C   0  0  0  0  0  0  0  0  0  0  0  0
   58.1028   33.2305   46.3282 N   0  0  0  0  0  0  0  0  0  0  0  0
   57.0192   32.7888   45.7067 N   0  0  0  0  0  0  0  0  0  0  0  0
   57.3461   31.5755   45.2341 C   0  0  0  0  0  0  0  0  0  0  0  0
   56.5556   30.8440   44.5822 O   0  0  0  0  0  0  0  0  0  0  0  0
   58.5764   31.2433   45.5305 O   0  0  0  0  0  0  0  0  0  0  0  0
  1  2  2  0
  2  3  1  0
  3  4  2  0
  4  9  1  0
  9 10  1  0
 10 11  1  0
 11 12  2  0
 11 13  1  0
 13 14  1  0
 14 15  1  0
  3  5  1  0
  5  6  2  0
  6  7  1  0
  6  8  1  0
  8 17  1  0
 17 18  2  0
 18 19  1  0
 19 20  2  0
 20 21  1  0
 21 22  2  0
 22 23  1  0
 23 24  2  0
 24 25  1  0
 25 26  1  0
 26 27  2  0
 26 28  1  0
  8  2  1  0
 22 17  1  0
 28 23  1  0
 14  9  2  0
 15 16  1  0
M  CHG 1  10  -1
M  CHG 1  13  -1
M  CHG 1  25  -1
M  END
> <UniqueID>
72

> <SMILES>
C=c1c(=Cc2[n-]c(=O)[n-]c2O)cc(C)n1-c1ccccc1-c1n[n-]c(=O)o1

> <Energy>
154.70502035865212

> <Genealogy>
C=c1c(=Cc2[n-]c(=O)[n-]c2O)cc(C)n1-c1ccccc1-c1n[n-]c(=O)o1 (protonated)
C=c1c(=Cc2[n-]c(=O)[n-]c2O)cc(C)n1-c1ccccc1-c1n[n-]c(=O)o1 (3D coordinates assigned)
C=c1c(=Cc2[n-]c(=O)[n-]c2O)cc(C)n1-c1ccccc1-c1n[n-]c(=O)o1 (optimized conformer: 154.70502035865212 kcal/mol)

> <smiles>
C=c1c(=Cc2[nH]c(=O)[nH]c2O)cc(C)n1-c1ccccc1-c1n[nH]c(=O)o1

> <score_type>
oracle

> <origin>
adg

> <m_score__min__energy>
-14.76

> <m_primary>
energy

> <minimizedAffinity>
-9.30203

> <minimizedRMSD>
0.69553

> <CNNscore>
0.6164959669

> <CNNaffinity>
6.8172240257

> <CNN_VS>
4.2027912140

> <CNNaffinity_variance>
0.1433647126

$$$$
82:0


 35 38  0  0  0  0  0  0  0  0999 V2000
   56.9741   29.9370   51.8116 O   0  0  0  0  0  0  0  0  0  0  0  0
   57.8990   29.4030   52.4835 C   0  0  0  0  0  0  0  0  0  0  0  0
   59.2776   29.5628   52.0982 N   0  0  0  0  0  0  0  0  0  0  0  0
   59.9677   29.2669   52.7349 H   0  0  0  0  0  0  0  0  0  0  0  0
   59.7178   30.1250   50.8475 C   0  0  0  0  0  0  0  0  0  0  0  0
   60.1503   29.2646   49.8243 C   0  0  0  0  0  0  0  0  0  0  0  0
   60.5510   29.7770   48.5868 C   0  0  0  0  0  0  0  0  0  0  0  0
   60.5159   31.1533   48.3543 C   0  0  0  0  0  0  0  0  0  0  0  0
   60.0766   32.0261   49.3602 C   0  0  0  0  0  0  0  0  0  0  0  0
   59.6623   31.5097   50.5967 C   0  0  0  0  0  0  0  0  0  0  0  0
   60.0185   33.7630   49.0575 S   0  0  0  0  0  0  0  0  0  0  0  0
   59.3699   34.4545   50.2264 O   0  0  0  0  0  0  0  0  0  0  0  0
   61.4246   34.2786   48.9194 O   0  0  0  0  0  0  0  0  0  0  0  0
   59.1303   34.0903   47.5893 N   0  0  0  0  0  0  0  0  0  0  0  0
   60.0621   34.2448   46.4613 C   0  0  0  0  0  0  0  0  0  0  0  0
   59.2915   34.3854   45.1321 C   0  0  0  0  0  0  0  0  0  0  0  0
   57.8918   34.3915   45.3389 O   0  0  0  0  0  0  0  0  0  0  0  0
   57.4983   33.1821   45.9572 C   0  0  0  0  0  0  0  0  0  0  0  0
   58.1875   32.9899   47.3225 C   0  0  0  0  0  0  0  0  0  0  0  0
   57.5517   28.5980   53.7052 C   0  0  0  0  0  0  0  0  0  0  0  0
   56.1790   28.9558   54.2143 C   0  0  0  0  0  0  0  0  0  0  0  0
   56.0245   29.9285   55.2162 C   0  0  0  0  0  0  0  0  0  0  0  0
   54.7544   30.2329   55.7132 C   0  0  0  0  0  0  0  0  0  0  0  0
   53.6286   29.5677   55.2167 C   0  0  0  0  0  0  0  0  0  0  0  0
   53.7673   28.5972   54.2077 C   0  0  0  0  0  0  0  0  0  0  0  0
   55.0461   28.2811   53.7265 C   0  0  0  0  0  0  0  0  0  0  0  0
   52.6367   27.8603   53.7141 N   0  0  0  0  0  0  0  0  0  0  0  0
   51.5684   28.3920   52.9195 C   0  0  0  0  0  0  0  0  0  0  0  0
   50.6650   27.6121   52.5161 O   0  0  0  0  0  0  0  0  0  0  0  0
   51.5409   29.8087   52.5087 C   0  0  0  0  0  0  0  0  0  0  0  0
   52.3103   30.3623   51.4988 C   0  0  0  0  0  0  0  0  0  0  0  0
   51.9957   31.7042   51.4633 C   0  0  0  0  0  0  0  0  0  0  0  0
   51.0605   31.8902   52.4582 C   0  0  0  0  0  0  0  0  0  0  0  0
   50.4741   33.1111   52.7706 O   0  0  0  0  0  0  0  0  0  0  0  0
   50.7758   30.7458   53.1081 N   0  0  0  0  0  0  0  0  0  0  0  0
  1  2  2  0
  2 20  1  0
 20 21  1  0
 21 22  2  0
 22 23  1  0
 23 24  2  0
 24 25  1  0
 25 27  1  0
 27 28  1  0
 28 29  2  0
 28 30  1  0
 30 31  2  0
 31 32  1  0
 32 33  2  0
 33 34  1  0
 33 35  1  0
 25 26  2  0
  2  3  1  0
  3  5  1  0
  5  6  2  0
  6  7  1  0
  7  8  2  0
  8  9  1  0
  9 11  1  0
 11 12  2  0
 11 13  2  0
 11 14  1  0
 14 15  1  0
 15 16  1  0
 16 17  1  0
 17 18  1  0
 18 19  1  0
  9 10  2  0
 26 21  1  0
 10  5  1  0
 35 30  1  0
 19 14  1  0
  3  4  1  0
M  CHG 1  27  -1
M  CHG 1  34  -1
M  CHG 1  35  -1
M  END
> <UniqueID>
81

> <SMILES>
O=C(Cc1cccc([N-]C(=O)c2ccc([O-])[n-]2)c1)Nc1cccc(S(=O)(=O)N2CCOCC2)c1

> <Energy>
97.80903016150037

> <Genealogy>
O=C(Cc1cccc([N-]C(=O)c2ccc([O-])[n-]2)c1)Nc1cccc(S(=O)(=O)N2CCOCC2)c1 (protonated)
O=C(Cc1cccc([N-]C(=O)c2ccc([O-])[n-]2)c1)Nc1cccc(S(=O)(=O)N2CCOCC2)c1 (3D coordinates assigned)
O=C(Cc1cccc([N-]C(=O)c2ccc([O-])[n-]2)c1)Nc1cccc(S(=O)(=O)N2CCOCC2)c1 (nonaromatic ring conformer: 97.80903016150037 kcal/mol)

> <smiles>
O=C(Cc1cccc(NC(=O)c2ccc(O)[nH]2)c1)Nc1cccc(S(=O)(=O)N2CCOCC2)c1

> <score_type>
oracle

> <origin>
adg

> <m_score__min__energy>
-16.780000000000001

> <m_primary>
energy

> <minimizedAffinity>
-7.42180

> <minimizedRMSD>
1.30381

> <CNNscore>
0.2864809930

> <CNNaffinity>
5.9950728416

> <CNN_VS>
1.7174744606

> <CNNaffinity_variance>
0.1530413181

$$$$
0:0


 33 36  0  0  0  0  0  0  0  0999 V2000
   60.1299   26.7471   46.9924 C   0  0  0  0  0  0  0  0  0  0  0  0
   59.2762   27.5653   46.3575 C   0  0  0  0  0  0  0  0  0  0  0  0
   58.3466   27.2220   45.3605 C   0  0  0  0  0  0  0  0  0  0  0  0
   57.9469   26.0212   44.8960 C   0  0  0  0  0  0  0  0  0  0  0  0
   57.8395   28.4161   44.8771 C   0  0  0  0  0  0  0  0  0  0  0  0
   58.4177   29.4271   45.6138 C   0  0  0  0  0  0  0  0  0  0  0  0
   58.1403   30.8875   45.4229 C   0  0  0  0  0  0  0  0  0  0  0  0
   59.2901   28.9153   46.5109 N   0  0  0  0  0  0  0  0  0  0  0  0
   57.3890   24.9260   45.7131 C   0  0  0  0  0  0  0  0  0  0  0  0
   56.0958   25.0088   46.2569 C   0  0  0  0  0  0  0  0  0  0  0  0
   55.3172   26.1446   46.0694 O   0  0  0  0  0  0  0  0  0  0  0  0
   55.5942   23.9666   46.9695 N   0  0  0  0  0  0  0  0  0  0  0  0
   56.3156   22.8321   47.1559 C   0  0  0  0  0  0  0  0  0  0  0  0
   55.6863   21.5976   48.0167 S   0  0  0  0  0  0  0  0  0  0  0  0
   57.5567   22.7179   46.6160 N   0  0  0  0  0  0  0  0  0  0  0  0
   58.1036   23.7319   45.8955 C   0  0  0  0  0  0  0  0  0  0  0  0
   59.2545   23.5905   45.4022 O   0  0  0  0  0  0  0  0  0  0  0  0
   60.0982   29.6783   47.4247 C   0  0  0  0  0  0  0  0  0  0  0  0
   60.3101   29.2142   48.7278 C   0  0  0  0  0  0  0  0  0  0  0  0
   61.0853   29.9563   49.6185 C   0  0  0  0  0  0  0  0  0  0  0  0
   61.6587   31.1710   49.2203 C   0  0  0  0  0  0  0  0  0  0  0  0
   61.4579   31.6507   47.9040 C   0  0  0  0  0  0  0  0  0  0  0  0
   60.6690   30.8924   47.0183 C   0  0  0  0  0  0  0  0  0  0  0  0
   62.4491   31.9132   50.1587 N   0  0  0  0  0  0  0  0  0  0  0  0
   61.8214   32.3960   51.3893 C   0  0  0  0  0  0  0  0  0  0  0  0
   62.6289   33.5722   51.9464 C   0  0  0  0  0  0  0  0  0  0  0  0
   63.9962   33.2258   52.0769 O   0  0  0  0  0  0  0  0  0  0  0  0
   64.5544   32.9756   50.8003 C   0  0  0  0  0  0  0  0  0  0  0  0
   63.9025   31.7511   50.1503 C   0  0  0  0  0  0  0  0  0  0  0  0
   62.0725   32.9609   47.4604 C   0  0  0  0  0  0  0  0  0  0  0  0
   61.9689   33.8939   48.4745 F   0  0  0  0  0  0  0  0  0  0  0  0
   61.4071   33.4316   46.3437 F   0  0  0  0  0  0  0  0  0  0  0  0
   63.4117   32.8175   47.1397 F   0  0  0  0  0  0  0  0  0  0  0  0
  1  2  2  0
  2  3  1  0
  3  4  2  0
  4  9  1  0
  9 10  2  0
 10 11  1  0
 10 12  1  0
 12 13  1  0
 13 14  2  0
 13 15  1  0
 15 16  1  0
 16 17  2  0
  3  5  1  0
  5  6  2  0
  6  7  1  0
  6  8  1  0
  8 18  1  0
 18 19  2  0
 19 20  1  0
 20 21  2  0
 21 24  1  0
 24 25  1  0
 25 26  1  0
 26 27  1  0
 27 28  1  0
 28 29  1  0
 21 22  1  0
 22 30  1  0
 30 31  1  0
 30 32  1  0
 30 33  1  0
 22 23  2  0
  8  2  1  0
 23 18  1  0
 16  9  1  0
 29 24  1  0
M  CHG 1  11  -1
M  CHG 1  12  -1
M  CHG 1  15  -1
M  END
> <UniqueID>
1

> <SMILES>
C=c1c(=Cc2c([O-])[n-]c(=S)[n-]c2=O)cc(C)n1-c1ccc(N2CCOCC2)c(C(F)(F)F)c1

> <Energy>
110.58580141814608

> <Genealogy>
C=c1c(=Cc2c([O-])[n-]c(=S)[n-]c2=O)cc(C)n1-c1ccc(N2CCOCC2)c(C(F)(F)F)c1 (protonated)
C=c1c(=Cc2c([O-])[n-]c(=S)[n-]c2=O)cc(C)n1-c1ccc(N2CCOCC2)c(C(F)(F)F)c1 (3D coordinates assigned)
C=c1c(=Cc2c([O-])[n-]c(=S)[n-]c2=O)cc(C)n1-c1ccc(N2CCOCC2)c(C(F)(F)F)c1 (nonaromatic ring conformer: 110.58580141814608 kcal/mol)

> <smiles>
C=c1c(=Cc2c(O)[nH]c(=S)[nH]c2=O)cc(C)n1-c1ccc(N2CCOCC2)c(C(F)(F)F)c1

> <score_type>
oracle

> <origin>
adg

> <m_score__min__energy>
-15.210000000000001

> <m_primary>
energy

> <minimizedAffinity>
-9.96615

> <minimizedRMSD>
0.99884

> <CNNscore>
0.2551964819

> <CNNaffinity>
6.8687553406

> <CNN_VS>
1.7528822422

> <CNNaffinity_variance>
0.0398083255

$$$$
1:0


 25 27  0  0  0  0  0  0  0  0999 V2000
   59.2758   27.6901   46.1418 C   0  0  0  0  0  0  0  0  0  0  0  0
   60.5271   27.5733   46.0599 O   0  0  0  0  0  0  0  0  0  0  0  0
   58.4490   26.8899   45.2857 N   0  0  0  0  0  0  0  0  0  0  0  0
   56.6949   23.6072   44.8858 C   0  0  0  0  0  0  0  0  0  0  0  0
   57.3383   24.8280   44.6002 C   0  0  0  0  0  0  0  0  0  0  0  0
   57.8187   25.6477   45.6276 C   0  0  0  0  0  0  0  0  0  0  0  0
   57.6094   25.2743   46.9629 C   0  0  0  0  0  0  0  0  0  0  0  0
   56.9628   24.0759   47.2624 C   0  0  0  0  0  0  0  0  0  0  0  0
   56.5021   23.2420   46.2384 C   0  0  0  0  0  0  0  0  0  0  0  0
   55.8318   22.0750   46.5844 O   0  0  0  0  0  0  0  0  0  0  0  0
   56.9632   21.5259   43.3209 C   0  0  0  0  0  0  0  0  0  0  0  0
   56.2301   22.7595   43.7539 C   0  0  0  0  0  0  0  0  0  0  0  0
   55.1852   23.0818   43.1287 O   0  0  0  0  0  0  0  0  0  0  0  0
   58.6910   28.6256   47.1638 C   0  0  0  0  0  0  0  0  0  0  0  0
   58.8849   30.0140   46.7489 N   0  0  0  0  0  0  0  0  0  0  0  0
   58.1239   30.7086   45.8743 C   0  0  0  0  0  0  0  0  0  0  0  0
   57.0417   30.1748   45.1844 O   0  0  0  0  0  0  0  0  0  0  0  0
   58.5675   32.0128   45.7819 C   0  0  0  0  0  0  0  0  0  0  0  0
   59.6313   32.1263   46.6414 C   0  0  0  0  0  0  0  0  0  0  0  0
   59.7978   30.8878   47.2280 C   0  0  0  0  0  0  0  0  0  0  0  0
   60.7558   30.5717   48.1848 O   0  0  0  0  0  0  0  0  0  0  0  0
   60.3864   33.3941   46.8804 C   0  0  0  0  0  0  0  0  0  0  0  0
   59.8893   34.5172   45.9913 C   0  0  0  0  0  0  0  0  0  0  0  0
   58.8412   34.4053   45.1444 C   0  0  0  0  0  0  0  0  0  0  0  0
   58.0212   33.1418   44.9703 C   0  0  0  0  0  0  0  0  0  0  0  0
 11 12  1  0
 12 13  2  0
 12  4  1  0
  4  5  2  0
  5  6  1  0
  6  3  1  0
  3  1  1  0
  1  2  2  0
  1 14  1  0
 14 15  1  0
 15 16  1  0
 16 17  1  0
 16 18  2  0
 18 19  1  0
 19 20  2  0
 20 21  1  0
 19 22  1  0
 22 23  1  0
 23 24  2  0
 24 25  1  0
  6  7  2  0
  7  8  1  0
  8  9  2  0
  9 10  1  0
  9  4  1  0
 20 15  1  0
 25 18  1  0
M  CHG 1   3  -1
M  CHG 1  10  -1
M  CHG 1  17  -1
M  CHG 1  21  -1
M  END
> <UniqueID>
2

> <SMILES>
CC(=O)c1cc([N-]C(=O)Cn2c([O-])c3c(c2[O-])CC=CC3)ccc1[O-]

> <Energy>
80.43570202828926

> <Genealogy>
CC(=O)c1cc([N-]C(=O)Cn2c([O-])c3c(c2[O-])CC=CC3)ccc1[O-] (protonated)
CC(=O)c1cc([N-]C(=O)Cn2c([O-])c3c(c2[O-])CC=CC3)ccc1[O-] (3D coordinates assigned)
CC(=O)c1cc([N-]C(=O)Cn2c([O-])c3c(c2[O-])CC=CC3)ccc1[O-] (nonaromatic ring conformer: 80.43570202828926 kcal/mol)

> <smiles>
CC(=O)c1cc(NC(=O)Cn2c(O)c3c(c2O)CC=CC3)ccc1O

> <score_type>
oracle

> <origin>
adg

> <m_score__min__energy>
-14.32

> <m_primary>
energy

> <minimizedAffinity>
-8.73887

> <minimizedRMSD>
2.72854

> <CNNscore>
0.3840342164

> <CNNaffinity>
6.3656539917

> <CNN_VS>
2.4446289539

> <CNNaffinity_variance>
0.1641204208

$$$$
9:0


 24 26  0  0  0  0  0  0  0  0999 V2000
   60.3541   28.6385   45.1042 C   0  0  0  0  0  0  0  0  0  0  0  0
   59.5468   29.7278   45.0310 N   0  0  0  0  0  0  0  0  0  0  0  0
   58.2070   29.6237   45.2388 C   0  0  0  0  0  0  0  0  0  0  0  0
   57.4308   30.6666   45.1924 N   0  0  0  0  0  0  0  0  0  0  0  0
   57.6685   28.4127   45.5434 N   0  0  0  0  0  0  0  0  0  0  0  0
   58.4334   27.2902   45.6293 C   0  0  0  0  0  0  0  0  0  0  0  0
   59.8130   27.3895   45.4050 C   0  0  0  0  0  0  0  0  0  0  0  0
   57.7994   25.9933   45.9579 C   0  0  0  0  0  0  0  0  0  0  0  0
   58.5985   24.5115   46.1060 S   0  0  0  0  0  0  0  0  0  0  0  0
   57.1866   23.6779   46.4672 C   0  0  0  0  0  0  0  0  0  0  0  0
   57.1302   22.4440   46.6972 O   0  0  0  0  0  0  0  0  0  0  0  0
   56.1036   24.4815   46.4835 N   0  0  0  0  0  0  0  0  0  0  0  0
   56.4410   25.7669   46.2012 C   0  0  0  0  0  0  0  0  0  0  0  0
   55.4812   26.7720   46.1634 O   0  0  0  0  0  0  0  0  0  0  0  0
   57.8317   32.0445   45.2579 C   0  0  0  0  0  0  0  0  0  0  0  0
   57.9819   32.6794   44.1805 O   0  0  0  0  0  0  0  0  0  0  0  0
   58.1001   32.7420   46.5712 C   0  0  0  0  0  0  0  0  0  0  0  0
   58.9588   31.8958   47.5237 C   0  0  0  0  0  0  0  0  0  0  0  0
   60.4211   32.2497   47.4168 C   0  0  0  0  0  0  0  0  0  0  0  0
   60.8102   33.5016   46.9124 C   0  0  0  0  0  0  0  0  0  0  0  0
   62.1651   33.8424   46.8394 C   0  0  0  0  0  0  0  0  0  0  0  0
   63.1388   32.9379   47.2733 C   0  0  0  0  0  0  0  0  0  0  0  0
   62.7596   31.6933   47.7833 C   0  0  0  0  0  0  0  0  0  0  0  0
   61.4073   31.3489   47.8566 C   0  0  0  0  0  0  0  0  0  0  0  0
  1  2  1  0
  2  3  1  0
  3  4  2  0
  4 15  1  0
 15 16  2  0
 15 17  1  0
 17 18  1  0
 18 19  1  0
 19 20  2  0
 20 21  1  0
 21 22  2  0
 22 23  1  0
 23 24  2  0
  3  5  1  0
  5  6  2  0
  6  8  1  0
  8  9  1  0
  9 10  1  0
 10 11  2  0
 10 12  1  0
 12 13  1  0
 13 14  1  0
  6  7  1  0
  7  1  2  0
 24 19  1  0
 13  8  2  0
M  CHG 1   2  -1
M  CHG 1  12  -1
M  CHG 1  14  -1
M  END
> <UniqueID>
9

> <SMILES>
O=C(CCc1ccccc1)/N=c1/nc(-c2sc(=O)[n-]c2[O-])cc[n-]1

> <Energy>
73.77869256428708

> <Genealogy>
O=C(CCc1ccccc1)N=c1nc(-c2sc(=O)[n-]c2[O-])cc[n-]1 (protonated)
O=C(CCc1ccccc1)/N=c1/nc(-c2sc(=O)[n-]c2[O-])cc[n-]1 (cis-trans isomerization)
O=C(CCc1ccccc1)/N=c1/nc(-c2sc(=O)[n-]c2[O-])cc[n-]1 (3D coordinates assigned)
O=C(CCc1ccccc1)/N=c1/nc(-c2sc(=O)[n-]c2[O-])cc[n-]1 (optimized conformer: 73.77869256428708 kcal/mol)

> <smiles>
O=C(CCc1ccccc1)N=c1nc(-c2sc(=O)[nH]c2O)cc[nH]1

> <score_type>
oracle

> <origin>
adg

> <m_score__min__energy>
-15.529999999999999

> <m_primary>
energy

> <minimizedAffinity>
-7.28450

> <minimizedRMSD>
0.82450

> <CNNscore>
0.5332400799

> <CNNaffinity>
6.7911696434

> <CNN_VS>
3.6213238239

> <CNNaffinity_variance>
0.2510102689

$$$$
16:0


 37 41  0  0  0  0  0  0  0  0999 V2000
   59.6245   30.4704   48.2398 C   0  0  0  0  0  0  0  0  0  0  0  0
   60.1866   31.7024   47.8772 C   0  0  0  0  0  0  0  0  0  0  0  0
   60.4844   32.6530   48.8560 C   0  0  0  0  0  0  0  0  0  0  0  0
   60.2229   32.3805   50.2018 C   0  0  0  0  0  0  0  0  0  0  0  0
   59.6668   31.1482   50.5790 C   0  0  0  0  0  0  0  0  0  0  0  0
   59.3531   30.2030   49.5895 C   0  0  0  0  0  0  0  0  0  0  0  0
   60.2861   27.5735   48.2411 C   0  0  0  0  0  0  0  0  0  0  0  0
   59.5688   28.1592   47.2711 C   0  0  0  0  0  0  0  0  0  0  0  0
   59.0721   27.5601   46.1012 C   0  0  0  0  0  0  0  0  0  0  0  0
   59.0021   26.2654   45.7315 C   0  0  0  0  0  0  0  0  0  0  0  0
   58.5707   28.5900   45.3207 C   0  0  0  0  0  0  0  0  0  0  0  0
   58.7164   29.7524   46.0489 C   0  0  0  0  0  0  0  0  0  0  0  0
   58.2479   31.1049   45.6058 C   0  0  0  0  0  0  0  0  0  0  0  0
   59.3092   29.4912   47.2354 N   0  0  0  0  0  0  0  0  0  0  0  0
   57.8245   25.3939   45.8796 C   0  0  0  0  0  0  0  0  0  0  0  0
   56.5600   25.8408   45.9983 N   0  0  0  0  0  0  0  0  0  0  0  0
   55.8248   24.7094   45.9619 C   0  0  0  0  0  0  0  0  0  0  0  0
   54.5699   24.7136   46.0651 O   0  0  0  0  0  0  0  0  0  0  0  0
   56.5366   23.5753   45.7978 N   0  0  0  0  0  0  0  0  0  0  0  0
   57.7997   24.0263   45.7334 C   0  0  0  0  0  0  0  0  0  0  0  0
   58.9014   23.1954   45.5435 O   0  0  0  0  0  0  0  0  0  0  0  0
   58.7808   22.2705   45.4540 H   0  0  0  0  0  0  0  0  0  0  0  0
   59.3754   30.8578   51.9989 C   0  0  0  0  0  0  0  0  0  0  0  0
   60.3089   30.9416   52.8437 O   0  0  0  0  0  0  0  0  0  0  0  0
   58.0516   30.4936   52.4335 N   0  0  0  0  0  0  0  0  0  0  0  0
   57.9000   29.6538   53.6310 C   0  0  0  0  0  0  0  0  0  0  0  0
   56.6005   28.8179   53.5967 C   0  0  0  0  0  0  0  0  0  0  0  0
   55.5936   29.3255   52.6369 N   0  0  0  0  0  0  0  0  0  0  0  0
   55.6025   30.7984   52.5886 C   0  0  0  0  0  0  0  0  0  0  0  0
   56.8997   31.2506   51.9222 C   0  0  0  0  0  0  0  0  0  0  0  0
   54.2521   28.8069   52.9697 C   0  0  0  0  0  0  0  0  0  0  0  0
   53.2094   29.8735   52.7638 C   0  0  0  0  0  0  0  0  0  0  0  0
   53.0060   30.4411   51.4948 C   0  0  0  0  0  0  0  0  0  0  0  0
   52.0233   31.4179   51.3111 C   0  0  0  0  0  0  0  0  0  0  0  0
   51.2361   31.8337   52.3884 C   0  0  0  0  0  0  0  0  0  0  0  0
   51.4328   31.2724   53.6527 C   0  0  0  0  0  0  0  0  0  0  0  0
   52.4139   30.2942   53.8419 C   0  0  0  0  0  0  0  0  0  0  0  0
  7  8  2  0
  8  9  1  0
  9 10  2  0
 10 15  1  0
 15 16  1  0
 16 17  1  0
 17 18  2  0
 17 19  1  0
 19 20  1  0
 20 21  1  0
  9 11  1  0
 11 12  2  0
 12 13  1  0
 12 14  1  0
 14  1  1  0
  1  2  2  0
  2  3  1  0
  3  4  2  0
  4  5  1  0
  5 23  1  0
 23 24  2  0
 23 25  1  0
 25 26  1  0
 26 27  1  0
 27 28  1  0
 28 31  1  0
 31 32  1  0
 32 33  2  0
 33 34  1  0
 34 35  2  0
 35 36  1  0
 36 37  2  0
 28 29  1  0
 29 30  1  0
  5  6  2  0
 14  8  1  0
  6  1  1  0
 20 15  2  0
 30 25  1  0
 37 32  1  0
 21 22  1  0
M  CHG 1  16  -1
M  CHG 1  19  -1
M  END
> <UniqueID>
16

> <SMILES>
C=c1c(=Cc2[n-]c(=O)[n-]c2O)cc(C)n1-c1cccc(C(=O)N2CCN(Cc3ccccc3)CC2)c1

> <Energy>
152.94506745357043

> <Genealogy>
C=c1c(=Cc2[n-]c(=O)[n-]c2O)cc(C)n1-c1cccc(C(=O)N2CCN(Cc3ccccc3)CC2)c1 (protonated)
C=c1c(=Cc2[n-]c(=O)[n-]c2O)cc(C)n1-c1cccc(C(=O)N2CCN(Cc3ccccc3)CC2)c1 (3D coordinates assigned)
C=c1c(=Cc2[n-]c(=O)[n-]c2O)cc(C)n1-c1cccc(C(=O)N2CCN(Cc3ccccc3)CC2)c1 (nonaromatic ring conformer: 152.94506745357043 kcal/mol)

> <smiles>
C=c1c(=Cc2[nH]c(=O)[nH]c2O)cc(C)n1-c1cccc(C(=O)N2CCN(Cc3ccccc3)CC2)c1

> <score_type>
oracle

> <origin>
adg

> <m_score__min__energy>
-14.640000000000001

> <m_primary>
energy

> <minimizedAffinity>
-9.67604

> <minimizedRMSD>
1.49589

> <CNNscore>
0.2883638144

> <CNNaffinity>
6.8266224861

> <CNN_VS>
1.9685509205

> <CNNaffinity_variance>
0.0478727221

$$$$
19:0


 35 39  0  0  0  0  0  0  0  0999 V2000
   58.1793   29.1209   54.0687 C   0  0  0  0  0  0  0  0  0  0  0  0
   58.7349   29.4141   55.3223 C   0  0  0  0  0  0  0  0  0  0  0  0
   60.1171   29.3386   55.5154 C   0  0  0  0  0  0  0  0  0  0  0  0
   60.9626   28.9654   54.4559 C   0  0  0  0  0  0  0  0  0  0  0  0
   60.4033   28.6848   53.1988 C   0  0  0  0  0  0  0  0  0  0  0  0
   59.0189   28.7539   53.0090 C   0  0  0  0  0  0  0  0  0  0  0  0
   56.6142   31.4513   53.1273 C   0  0  0  0  0  0  0  0  0  0  0  0
   56.0434   30.2928   53.4916 C   0  0  0  0  0  0  0  0  0  0  0  0
   54.6834   29.9484   53.4017 C   0  0  0  0  0  0  0  0  0  0  0  0
   53.5965   30.6922   53.1203 C   0  0  0  0  0  0  0  0  0  0  0  0
   54.6100   28.5907   53.6717 C   0  0  0  0  0  0  0  0  0  0  0  0
   55.8878   28.1718   53.9762 C   0  0  0  0  0  0  0  0  0  0  0  0
   56.2615   26.7680   54.3413 C   0  0  0  0  0  0  0  0  0  0  0  0
   56.7582   29.2010   53.8686 N   0  0  0  0  0  0  0  0  0  0  0  0
   52.8524   30.6841   51.8517 C   0  0  0  0  0  0  0  0  0  0  0  0
   53.0278   29.7568   50.8941 N   0  0  0  0  0  0  0  0  0  0  0  0
   52.0748   30.0612   49.9850 C   0  0  0  0  0  0  0  0  0  0  0  0
   51.9292   29.4157   48.9142 O   0  0  0  0  0  0  0  0  0  0  0  0
   51.2859   31.1045   50.3184 N   0  0  0  0  0  0  0  0  0  0  0  0
   51.7815   31.4792   51.5103 C   0  0  0  0  0  0  0  0  0  0  0  0
   51.2516   32.5089   52.2771 O   0  0  0  0  0  0  0  0  0  0  0  0
   62.4290   28.8972   54.6545 C   0  0  0  0  0  0  0  0  0  0  0  0
   62.8891   28.3723   55.7061 O   0  0  0  0  0  0  0  0  0  0  0  0
   63.3363   29.4039   53.6603 N   0  0  0  0  0  0  0  0  0  0  0  0
   63.2058   30.7933   53.2030 C   0  0  0  0  0  0  0  0  0  0  0  0
   63.6363   30.9113   51.7376 C   0  0  0  0  0  0  0  0  0  0  0  0
   65.0714   30.3580   51.5228 C   0  0  0  0  0  0  0  0  0  0  0  0
   65.0550   28.8725   51.9796 C   0  0  0  0  0  0  0  0  0  0  0  0
   64.6175   28.7245   53.4437 C   0  0  0  0  0  0  0  0  0  0  0  0
   66.0851   31.2037   52.2284 N   0  0  0  0  0  0  0  0  0  0  0  0
   67.4361   30.5897   52.2916 C   0  0  0  0  0  0  0  0  0  0  0  0
   68.4464   31.5441   52.9361 C   0  0  0  0  0  0  0  0  0  0  0  0
   68.5915   32.8538   52.1477 C   0  0  0  0  0  0  0  0  0  0  0  0
   67.4640   33.0530   51.1311 C   0  0  0  0  0  0  0  0  0  0  0  0
   66.1068   32.6050   51.7002 C   0  0  0  0  0  0  0  0  0  0  0  0
  7  8  2  0
  8  9  1  0
  9 10  2  0
 10 15  1  0
 15 16  1  0
 16 17  1  0
 17 18  2  0
 17 19  1  0
 19 20  1  0
 20 21  1  0
  9 11  1  0
 11 12  2  0
 12 13  1  0
 12 14  1  0
 14  1  1  0
  1  2  2  0
  2  3  1  0
  3  4  2  0
  4 22  1  0
 22 23  2  0
 22 24  1  0
 24 25  1  0
 25 26  1  0
 26 27  1  0
 27 30  1  0
 30 31  1  0
 31 32  1  0
 32 33  1  0
 33 34  1  0
 34 35  1  0
 27 28  1  0
 28 29  1  0
  4  5  1  0
  5  6  2  0
 14  8  1  0
  6  1  1  0
 20 15  2  0
 29 24  1  0
 35 30  1  0
M  CHG 1  16  -1
M  CHG 1  19  -1
M  CHG 1  21  -1
M  END
> <UniqueID>
19

> <SMILES>
C=c1c(=Cc2[n-]c(=O)[n-]c2[O-])cc(C)n1-c1ccc(C(=O)N2CCC(N3CCCCC3)CC2)cc1

> <Energy>
160.34830124610284

> <Genealogy>
C=c1c(=Cc2[n-]c(=O)[n-]c2[O-])cc(C)n1-c1ccc(C(=O)N2CCC(N3CCCCC3)CC2)cc1 (protonated)
C=c1c(=Cc2[n-]c(=O)[n-]c2[O-])cc(C)n1-c1ccc(C(=O)N2CCC(N3CCCCC3)CC2)cc1 (3D coordinates assigned)
C=c1c(=Cc2[n-]c(=O)[n-]c2[O-])cc(C)n1-c1ccc(C(=O)N2CCC(N3CCCCC3)CC2)cc1 (nonaromatic ring conformer: 160.34830124610284 kcal/mol)

> <smiles>
C=c1c(=Cc2[nH]c(=O)[nH]c2O)cc(C)n1-c1ccc(C(=O)N2CCC(N3CCCCC3)CC2)cc1

> <score_type>
oracle

> <origin>
adg

> <m_score__min__energy>
-17.07

> <m_primary>
energy

> <minimizedAffinity>
-4.96110

> <minimizedRMSD>
0.86114

> <CNNscore>
0.0773574039

> <CNNaffinity>
4.7993140221

> <CNN_VS>
0.3712624609

> <CNNaffinity_variance>
0.5758149028

$$$$
30:0


 29 32  0  0  0  0  0  0  0  0999 V2000
   54.7660   29.2826   52.6880 C   0  0  0  0  0  0  0  0  0  0  0  0
   54.6397   29.7302   53.9482 C   0  0  0  0  0  0  0  0  0  0  0  0
   53.4538   30.1742   54.5606 C   0  0  0  0  0  0  0  0  0  0  0  0
   52.2422   30.4594   54.0436 C   0  0  0  0  0  0  0  0  0  0  0  0
   53.7439   30.3257   55.9027 C   0  0  0  0  0  0  0  0  0  0  0  0
   55.0839   30.0437   56.0583 C   0  0  0  0  0  0  0  0  0  0  0  0
   55.8255   30.1725   57.3548 C   0  0  0  0  0  0  0  0  0  0  0  0
   55.6371   29.6853   54.8752 N   0  0  0  0  0  0  0  0  0  0  0  0
   51.9199   30.5357   52.6095 C   0  0  0  0  0  0  0  0  0  0  0  0
   52.2239   29.5987   51.6951 N   0  0  0  0  0  0  0  0  0  0  0  0
   51.8767   30.1522   50.5150 C   0  0  0  0  0  0  0  0  0  0  0  0
   52.0118   29.5584   49.4129 O   0  0  0  0  0  0  0  0  0  0  0  0
   51.3851   31.4059   50.6176 N   0  0  0  0  0  0  0  0  0  0  0  0
   51.4337   31.6379   51.9431 C   0  0  0  0  0  0  0  0  0  0  0  0
   51.0483   32.8353   52.5316 O   0  0  0  0  0  0  0  0  0  0  0  0
   52.6129   28.7080   51.8516 H   0  0  0  0  0  0  0  0  0  0  0  0
   57.0612   29.3695   54.6665 C   0  0  0  0  0  0  0  0  0  0  0  0
   57.6070   30.1510   53.4992 C   0  0  0  0  0  0  0  0  0  0  0  0
   58.2071   29.4922   52.4205 C   0  0  0  0  0  0  0  0  0  0  0  0
   58.7349   30.2158   51.3487 C   0  0  0  0  0  0  0  0  0  0  0  0
   58.6752   31.6287   51.3209 C   0  0  0  0  0  0  0  0  0  0  0  0
   58.0667   32.2779   52.4214 C   0  0  0  0  0  0  0  0  0  0  0  0
   57.5405   31.5477   53.4893 C   0  0  0  0  0  0  0  0  0  0  0  0
   59.2301   32.3895   50.2039 N   0  0  0  0  0  0  0  0  0  0  0  0
   58.5863   32.3006   48.8746 C   0  0  0  0  0  0  0  0  0  0  0  0
   59.3141   33.0920   47.7848 C   0  0  0  0  0  0  0  0  0  0  0  0
   59.8199   34.3043   48.2896 O   0  0  0  0  0  0  0  0  0  0  0  0
   60.8663   34.0087   49.1831 C   0  0  0  0  0  0  0  0  0  0  0  0
   60.3279   33.3483   50.4554 C   0  0  0  0  0  0  0  0  0  0  0  0
  1  2  2  0
  2  3  1  0
  3  4  2  0
  4  9  1  0
  9 10  1  0
 10 11  1  0
 11 12  2  0
 11 13  1  0
 13 14  1  0
 14 15  1  0
  3  5  1  0
  5  6  2  0
  6  7  1  0
  6  8  1  0
  8 17  1  0
 17 18  1  0
 18 19  2  0
 19 20  1  0
 20 21  2  0
 21 24  1  0
 24 25  1  0
 25 26  1  0
 26 27  1  0
 27 28  1  0
 28 29  1  0
 21 22  1  0
 22 23  2  0
  8  2  1  0
 23 18  1  0
 14  9  2  0
 29 24  1  0
 10 16  1  0
M  CHG 1  13  -1
M  CHG 1  15  -1
M  END
> <UniqueID>
29

> <SMILES>
C=c1c(=Cc2[nH]c(=O)[n-]c2[O-])cc(C)n1Cc1ccc(N2CCOCC2)cc1

> <Energy>
130.68330285390206

> <Genealogy>
C=c1c(=Cc2[nH]c(=O)[n-]c2[O-])cc(C)n1Cc1ccc(N2CCOCC2)cc1 (protonated)
C=c1c(=Cc2[nH]c(=O)[n-]c2[O-])cc(C)n1Cc1ccc(N2CCOCC2)cc1 (3D coordinates assigned)
C=c1c(=Cc2[nH]c(=O)[n-]c2[O-])cc(C)n1Cc1ccc(N2CCOCC2)cc1 (nonaromatic ring conformer: 130.68330285390206 kcal/mol)

> <smiles>
C=c1c(=Cc2[nH]c(=O)[nH]c2O)cc(C)n1Cc1ccc(N2CCOCC2)cc1

> <score_type>
oracle

> <origin>
adg

> <m_score__min__energy>
-14.539999999999999

> <m_primary>
energy

> <minimizedAffinity>
-6.58746

> <minimizedRMSD>
1.06953

> <CNNscore>
0.0953974202

> <CNNaffinity>
4.4653949738

> <CNN_VS>
0.4259871542

> <CNNaffinity_variance>
0.7680686116

$$$$
45:0


 36 40  0  0  0  0  0  0  0  0999 V2000
   60.0822   30.1843   47.9008 C   0  0  0  0  0  0  0  0  0  0  0  0
   61.2607   30.9176   47.6994 C   0  0  0  0  0  0  0  0  0  0  0  0
   61.9761   31.4098   48.7942 C   0  0  0  0  0  0  0  0  0  0  0  0
   61.5082   31.1950   50.1026 C   0  0  0  0  0  0  0  0  0  0  0  0
   60.3343   30.4459   50.2981 C   0  0  0  0  0  0  0  0  0  0  0  0
   59.6234   29.9472   49.2035 C   0  0  0  0  0  0  0  0  0  0  0  0
   58.4858   29.2353   49.4085 F   0  0  0  0  0  0  0  0  0  0  0  0
   60.0173   27.3710   46.9882 C   0  0  0  0  0  0  0  0  0  0  0  0
   59.3142   28.3436   46.3917 C   0  0  0  0  0  0  0  0  0  0  0  0
   58.5581   28.2456   45.2121 C   0  0  0  0  0  0  0  0  0  0  0  0
   58.1579   27.1710   44.5059 C   0  0  0  0  0  0  0  0  0  0  0  0
   58.2284   29.5439   44.8529 C   0  0  0  0  0  0  0  0  0  0  0  0
   58.7170   30.3690   45.8479 C   0  0  0  0  0  0  0  0  0  0  0  0
   58.5629   31.8590   45.8830 C   0  0  0  0  0  0  0  0  0  0  0  0
   59.3735   29.6436   46.7760 N   0  0  0  0  0  0  0  0  0  0  0  0
   57.7732   25.8664   45.0725 C   0  0  0  0  0  0  0  0  0  0  0  0
   58.5440   24.7630   45.0504 N   0  0  0  0  0  0  0  0  0  0  0  0
   57.8817   23.9024   45.8498 C   0  0  0  0  0  0  0  0  0  0  0  0
   58.2935   22.7349   46.0772 O   0  0  0  0  0  0  0  0  0  0  0  0
   56.7556   24.3976   46.4057 N   0  0  0  0  0  0  0  0  0  0  0  0
   56.7103   25.6448   45.9126 C   0  0  0  0  0  0  0  0  0  0  0  0
   55.7206   26.5701   46.2291 O   0  0  0  0  0  0  0  0  0  0  0  0
   62.2612   31.6975   51.2712 C   0  0  0  0  0  0  0  0  0  0  0  0
   61.6133   32.1693   52.2465 O   0  0  0  0  0  0  0  0  0  0  0  0
   63.7085   31.7047   51.3026 N   0  0  0  0  0  0  0  0  0  0  0  0
   64.4822   31.8321   50.0574 C   0  0  0  0  0  0  0  0  0  0  0  0
   65.8558   32.4852   50.3016 C   0  0  0  0  0  0  0  0  0  0  0  0
   65.7262   33.6750   51.2910 C   0  0  0  0  0  0  0  0  0  0  0  0
   65.1402   33.1881   52.6519 C   0  0  0  0  0  0  0  0  0  0  0  0
   64.4197   31.8332   52.5800 C   0  0  0  0  0  0  0  0  0  0  0  0
   67.0050   34.4114   51.5422 N   0  0  0  0  0  0  0  0  0  0  0  0
   66.8550   35.6356   52.3609 C   0  0  0  0  0  0  0  0  0  0  0  0
   68.2184   36.3471   52.5373 C   0  0  0  0  0  0  0  0  0  0  0  0
   69.3319   35.5071   52.2793 O   0  0  0  0  0  0  0  0  0  0  0  0
   69.1303   34.2511   52.8827 C   0  0  0  0  0  0  0  0  0  0  0  0
   68.0129   33.4937   52.1446 C   0  0  0  0  0  0  0  0  0  0  0  0
  8  9  2  0
  9 10  1  0
 10 11  2  0
 11 16  1  0
 16 17  1  0
 17 18  1  0
 18 19  2  0
 18 20  1  0
 20 21  1  0
 21 22  1  0
 10 12  1  0
 12 13  2  0
 13 14  1  0
 13 15  1  0
 15  1  1  0
  1  2  2  0
  2  3  1  0
  3  4  2  0
  4 23  1  0
 23 24  2  0
 23 25  1  0
 25 26  1  0
 26 27  1  0
 27 28  1  0
 28 31  1  0
 31 32  1  0
 32 33  1  0
 33 34  1  0
 34 35  1  0
 35 36  1  0
 28 29  1  0
 29 30  1  0
  4  5  1  0
  5  6  2  0
  6  7  1  0
 15  9  1  0
  6  1  1  0
 21 16  2  0
 30 25  1  0
 36 31  1  0
M  CHG 1  17  -1
M  CHG 1  20  -1
M  CHG 1  22  -1
M  END
> <UniqueID>
44

> <SMILES>
C=c1c(=Cc2[n-]c(=O)[n-]c2[O-])cc(C)n1-c1ccc(C(=O)N2CCC(N3CCOCC3)CC2)cc1F

> <Energy>
167.2018929404184

> <Genealogy>
C=c1c(=Cc2[n-]c(=O)[n-]c2[O-])cc(C)n1-c1ccc(C(=O)N2CCC(N3CCOCC3)CC2)cc1F (protonated)
C=c1c(=Cc2[n-]c(=O)[n-]c2[O-])cc(C)n1-c1ccc(C(=O)N2CCC(N3CCOCC3)CC2)cc1F (3D coordinates assigned)
C=c1c(=Cc2[n-]c(=O)[n-]c2[O-])cc(C)n1-c1ccc(C(=O)N2CCC(N3CCOCC3)CC2)cc1F (nonaromatic ring conformer: 167.2018929404184 kcal/mol)

> <smiles>
C=c1c(=Cc2[nH]c(=O)[nH]c2O)cc(C)n1-c1ccc(C(=O)N2CCC(N3CCOCC3)CC2)cc1F

> <score_type>
oracle

> <origin>
adg

> <m_score__min__energy>
-15.92

> <m_primary>
energy

> <minimizedAffinity>
-8.28621

> <minimizedRMSD>
0.95876

> <CNNscore>
0.1289270818

> <CNNaffinity>
6.5442490578

> <CNN_VS>
0.8437309265

> <CNNaffinity_variance>
0.2672013342

$$$$
62:0


 24 26  0  0  0  0  0  0  0  0999 V2000
   60.8906   29.8452   46.7250 C   0  0  0  0  0  0  0  0  0  0  0  0
   59.7379   29.5334   46.0936 C   0  0  0  0  0  0  0  0  0  0  0  0
   59.5165   28.2041   45.6636 C   0  0  0  0  0  0  0  0  0  0  0  0
   60.3876   27.3086   45.8651 O   0  0  0  0  0  0  0  0  0  0  0  0
   58.3137   27.8878   45.0041 C   0  0  0  0  0  0  0  0  0  0  0  0
   58.0478   26.6315   44.5946 C   0  0  0  0  0  0  0  0  0  0  0  0
   57.3970   28.8691   44.8163 N   0  0  0  0  0  0  0  0  0  0  0  0
   57.6044   30.1429   45.2250 C   0  0  0  0  0  0  0  0  0  0  0  0
   56.7086   31.0039   45.0100 O   0  0  0  0  0  0  0  0  0  0  0  0
   58.7682   30.4879   45.8592 N   0  0  0  0  0  0  0  0  0  0  0  0
   57.5135   25.5653   45.4681 C   0  0  0  0  0  0  0  0  0  0  0  0
   58.1398   24.3895   45.6496 N   0  0  0  0  0  0  0  0  0  0  0  0
   57.2952   23.7016   46.4489 C   0  0  0  0  0  0  0  0  0  0  0  0
   57.5453   22.5368   46.8566 O   0  0  0  0  0  0  0  0  0  0  0  0
   56.1609   24.3558   46.7702 N   0  0  0  0  0  0  0  0  0  0  0  0
   56.3051   25.5289   46.1338 C   0  0  0  0  0  0  0  0  0  0  0  0
   55.3299   26.5178   46.1257 O   0  0  0  0  0  0  0  0  0  0  0  0
   58.9391   31.8610   46.2693 C   0  0  0  0  0  0  0  0  0  0  0  0
   59.0920   32.8628   45.2993 C   0  0  0  0  0  0  0  0  0  0  0  0
   59.2591   34.1952   45.6849 C   0  0  0  0  0  0  0  0  0  0  0  0
   59.2742   34.5357   47.0406 C   0  0  0  0  0  0  0  0  0  0  0  0
   59.1240   33.5437   48.0137 C   0  0  0  0  0  0  0  0  0  0  0  0
   58.9565   32.2057   47.6346 C   0  0  0  0  0  0  0  0  0  0  0  0
   58.7681   30.9780   48.8788 Cl  0  0  0  0  0  0  0  0  0  0  0  0
  1  2  2  0
  2  3  1  0
  3  4  2  0
  3  5  1  0
  5  6  2  0
  6 11  1  0
 11 12  1  0
 12 13  1  0
 13 14  2  0
 13 15  1  0
 15 16  1  0
 16 17  1  0
  5  7  1  0
  7  8  1  0
  8  9  2  0
  8 10  1  0
 10 18  1  0
 18 19  2  0
 19 20  1  0
 20 21  2  0
 21 22  1  0
 22 23  2  0
 23 24  1  0
 10  2  1  0
 23 18  1  0
 16 11  2  0
M  CHG 1   7  -1
M  CHG 1  12  -1
M  CHG 1  15  -1
M  CHG 1  17  -1
M  END
> <UniqueID>
57

> <SMILES>
C=c1c(=O)/c(=C/c2[n-]c(=O)[n-]c2[O-])[n-]c(=O)n1-c1ccccc1Cl

> <Energy>
86.69779955059188

> <Genealogy>
C=c1c(=O)c(=Cc2[n-]c(=O)[n-]c2[O-])[n-]c(=O)n1-c1ccccc1Cl (protonated)
C=c1c(=O)/c(=C/c2[n-]c(=O)[n-]c2[O-])[n-]c(=O)n1-c1ccccc1Cl (cis-trans isomerization)
C=c1c(=O)/c(=C/c2[n-]c(=O)[n-]c2[O-])[n-]c(=O)n1-c1ccccc1Cl (3D coordinates assigned)
C=c1c(=O)/c(=C/c2[n-]c(=O)[n-]c2[O-])[n-]c(=O)n1-c1ccccc1Cl (optimized conformer: 86.69779955059188 kcal/mol)

> <smiles>
C=c1c(=O)c(=Cc2[nH]c(=O)[nH]c2O)[nH]c(=O)n1-c1ccccc1Cl

> <score_type>
oracle

> <origin>
adg

> <m_score__min__energy>
-17.359999999999999

> <m_primary>
energy

> <minimizedAffinity>
-8.27261

> <minimizedRMSD>
0.65651

> <CNNscore>
0.4044118524

> <CNNaffinity>
6.4807629585

> <CNN_VS>
2.6208972931

> <CNNaffinity_variance>
0.0736821592

$$$$
7:0


 30 33  0  0  0  0  0  0  0  0999 V2000
   60.4664   29.0722   44.9703 C   0  0  0  0  0  0  0  0  0  0  0  0
   60.0461   28.7308   46.1991 C   0  0  0  0  0  0  0  0  0  0  0  0
   59.4558   27.5160   46.5830 C   0  0  0  0  0  0  0  0  0  0  0  0
   58.9362   26.5191   45.8431 C   0  0  0  0  0  0  0  0  0  0  0  0
   59.4443   27.5104   47.9679 C   0  0  0  0  0  0  0  0  0  0  0  0
   59.9384   28.7323   48.3756 C   0  0  0  0  0  0  0  0  0  0  0  0
   60.0587   29.1724   49.8029 C   0  0  0  0  0  0  0  0  0  0  0  0
   60.2936   29.4781   47.3048 N   0  0  0  0  0  0  0  0  0  0  0  0
   57.9928   25.5009   46.3324 C   0  0  0  0  0  0  0  0  0  0  0  0
   58.3210   24.2226   46.6042 N   0  0  0  0  0  0  0  0  0  0  0  0
   57.1295   23.6440   46.8651 C   0  0  0  0  0  0  0  0  0  0  0  0
   57.0196   22.4303   47.1772 O   0  0  0  0  0  0  0  0  0  0  0  0
   56.0626   24.4631   46.7479 N   0  0  0  0  0  0  0  0  0  0  0  0
   56.6273   25.6307   46.3972 C   0  0  0  0  0  0  0  0  0  0  0  0
   55.9076   26.7862   46.1281 O   0  0  0  0  0  0  0  0  0  0  0  0
   60.9180   30.7753   47.3565 C   0  0  0  0  0  0  0  0  0  0  0  0
   62.3158   30.8635   47.2670 C   0  0  0  0  0  0  0  0  0  0  0  0
   62.9477   32.1075   47.2491 C   0  0  0  0  0  0  0  0  0  0  0  0
   62.1894   33.2763   47.3106 C   0  0  0  0  0  0  0  0  0  0  0  0
   60.7976   33.2038   47.3921 C   0  0  0  0  0  0  0  0  0  0  0  0
   60.1487   31.9604   47.4332 C   0  0  0  0  0  0  0  0  0  0  0  0
   58.6745   31.9366   47.5732 C   0  0  0  0  0  0  0  0  0  0  0  0
   58.1814   31.6806   48.7072 O   0  0  0  0  0  0  0  0  0  0  0  0
   57.8094   32.0453   46.4127 N   0  0  0  0  0  0  0  0  0  0  0  0
   58.3315   31.2424   45.2777 C   0  0  0  0  0  0  0  0  0  0  0  0
   57.8632   31.8252   43.9336 C   0  0  0  0  0  0  0  0  0  0  0  0
   58.3156   33.1539   43.7031 O   0  0  0  0  0  0  0  0  0  0  0  0
   58.5125   33.9073   44.8913 C   0  0  0  0  0  0  0  0  0  0  0  0
   57.6047   33.4735   46.0586 C   0  0  0  0  0  0  0  0  0  0  0  0
   57.9299   32.8012   47.0317 H   0  0  0  0  0  0  0  0  0  0  0  0
  1  2  2  0
  2  3  1  0
  3  4  2  0
  4  9  1  0
  9 10  1  0
 10 11  1  0
 11 12  2  0
 11 13  1  0
 13 14  1  0
 14 15  1  0
  3  5  1  0
  5  6  2  0
  6  7  1  0
  6  8  1  0
  8 16  1  0
 16 17  2  0
 17 18  1  0
 18 19  2  0
 19 20  1  0
 20 21  2  0
 21 22  1  0
 22 23  2  0
 22 24  1  0
 24 25  1  0
 25 26  1  0
 26 27  1  0
 27 28  1  0
 28 29  1  0
  8  2  1  0
 21 16  1  0
 29 24  1  0
 14  9  2  0
 24 30  1  0
M  CHG 1  10  -1
M  CHG 1  13  -1
M  CHG 1  15  -1
M  CHG 1  24   1
M  END
> <UniqueID>
8

> <SMILES>
C=c1/c(=C\c2[n-]c(=O)[n-]c2[O-])cc(C)n1-c1ccccc1C(=O)[NH+]1CCOCC1

> <Energy>
145.76480862442807

> <Genealogy>
C=c1c(=Cc2[n-]c(=O)[n-]c2[O-])cc(C)n1-c1ccccc1C(=O)[NH+]1CCOCC1 (protonated)
C=c1/c(=C\c2[n-]c(=O)[n-]c2[O-])cc(C)n1-c1ccccc1C(=O)[NH+]1CCOCC1 (cis-trans isomerization)
C=c1/c(=C\c2[n-]c(=O)[n-]c2[O-])cc(C)n1-c1ccccc1C(=O)[NH+]1CCOCC1 (3D coordinates assigned)
C=c1/c(=C\c2[n-]c(=O)[n-]c2[O-])cc(C)n1-c1ccccc1C(=O)[NH+]1CCOCC1 (nonaromatic ring conformer: 145.76480862442807 kcal/mol)

> <smiles>
C=c1c(=Cc2[nH]c(=O)[nH]c2O)cc(C)n1-c1ccccc1C(=O)N1CCOCC1

> <score_type>
oracle

> <origin>
adg

> <m_score__min__energy>
-14.83

> <m_primary>
energy

> <minimizedAffinity>
-7.70797

> <minimizedRMSD>
1.23597

> <CNNscore>
0.3012314439

> <CNNaffinity>
6.5368595123

> <CNN_VS>
1.9691076279

> <CNNaffinity_variance>
0.0669024959

$$$$
19:0


 28 31  0  0  0  0  0  0  0  0999 V2000
   55.0402   28.1029   54.0393 C   0  0  0  0  0  0  0  0  0  0  0  0
   55.5560   29.1597   53.3917 C   0  0  0  0  0  0  0  0  0  0  0  0
   54.8701   30.0745   52.5749 C   0  0  0  0  0  0  0  0  0  0  0  0
   53.6158   30.0578   52.0835 C   0  0  0  0  0  0  0  0  0  0  0  0
   55.7697   31.0903   52.2907 C   0  0  0  0  0  0  0  0  0  0  0  0
   56.9668   30.7417   52.8806 C   0  0  0  0  0  0  0  0  0  0  0  0
   58.2284   31.5447   52.7926 C   0  0  0  0  0  0  0  0  0  0  0  0
   56.8424   29.5684   53.5387 N   0  0  0  0  0  0  0  0  0  0  0  0
   52.4094   30.5162   52.7916 C   0  0  0  0  0  0  0  0  0  0  0  0
   51.9378   29.9747   53.9313 N   0  0  0  0  0  0  0  0  0  0  0  0
   50.7614   30.6125   54.1137 C   0  0  0  0  0  0  0  0  0  0  0  0
   50.0164   30.3870   55.1032 O   0  0  0  0  0  0  0  0  0  0  0  0
   50.4421   31.5005   53.1500 N   0  0  0  0  0  0  0  0  0  0  0  0
   51.4878   31.4154   52.3139 C   0  0  0  0  0  0  0  0  0  0  0  0
   51.5982   32.1400   51.1343 O   0  0  0  0  0  0  0  0  0  0  0  0
   57.8784   28.9374   54.3116 C   0  0  0  0  0  0  0  0  0  0  0  0
   58.0251   29.2349   55.6727 C   0  0  0  0  0  0  0  0  0  0  0  0
   59.0468   28.6410   56.4132 C   0  0  0  0  0  0  0  0  0  0  0  0
   59.9295   27.7464   55.8022 C   0  0  0  0  0  0  0  0  0  0  0  0
   59.7957   27.4323   54.4370 C   0  0  0  0  0  0  0  0  0  0  0  0
   58.7689   28.0468   53.6966 C   0  0  0  0  0  0  0  0  0  0  0  0
   60.7329   26.4966   53.7681 C   0  0  0  0  0  0  0  0  0  0  0  0
   61.1061   26.7325   52.4789 N   0  0  0  0  0  0  0  0  0  0  0  0
   61.9600   25.9028   51.8262 C   0  0  0  0  0  0  0  0  0  0  0  0
   62.4716   24.7833   52.4764 C   0  0  0  0  0  0  0  0  0  0  0  0
   62.0771   24.5422   53.7903 C   0  0  0  0  0  0  0  0  0  0  0  0
   61.2190   25.3927   54.4140 N   0  0  0  0  0  0  0  0  0  0  0  0
   60.9440   25.2121   55.3419 H   0  0  0  0  0  0  0  0  0  0  0  0
  1  2  2  0
  2  3  1  0
  3  4  2  0
  4  9  1  0
  9 10  1  0
 10 11  1  0
 11 12  2  0
 11 13  1  0
 13 14  1  0
 14 15  1  0
  3  5  1  0
  5  6  2  0
  6  7  1  0
  6  8  1  0
  8 16  1  0
 16 17  2  0
 17 18  1  0
 18 19  2  0
 19 20  1  0
 20 22  1  0
 22 23  2  0
 23 24  1  0
 24 25  2  0
 25 26  1  0
 26 27  2  0
 20 21  2  0
  8  2  1  0
 21 16  1  0
 14  9  2  0
 27 22  1  0
 27 28  1  0
M  CHG 1  10  -1
M  CHG 1  13  -1
M  CHG 1  15  -1
M  CHG 1  27   1
M  END
> <UniqueID>
18

> <SMILES>
C=c1/c(=C\c2[n-]c(=O)[n-]c2[O-])cc(C)n1-c1cccc(-c2nccc[nH+]2)c1

> <Energy>
125.63126136196311

> <Genealogy>
C=c1c(=Cc2[n-]c(=O)[n-]c2[O-])cc(C)n1-c1cccc(-c2nccc[nH+]2)c1 (protonated)
C=c1/c(=C\c2[n-]c(=O)[n-]c2[O-])cc(C)n1-c1cccc(-c2nccc[nH+]2)c1 (cis-trans isomerization)
C=c1/c(=C\c2[n-]c(=O)[n-]c2[O-])cc(C)n1-c1cccc(-c2nccc[nH+]2)c1 (3D coordinates assigned)
C=c1/c(=C\c2[n-]c(=O)[n-]c2[O-])cc(C)n1-c1cccc(-c2nccc[nH+]2)c1 (optimized conformer: 125.63126136196311 kcal/mol)

> <smiles>
C=c1c(=Cc2[nH]c(=O)[nH]c2O)cc(C)n1-c1cccc(-c2ncccn2)c1

> <score_type>
oracle

> <origin>
adg

> <m_score__min__energy>
-15.24

> <m_primary>
energy

> <minimizedAffinity>
-5.16955

> <minimizedRMSD>
1.27897

> <CNNscore>
0.2617470324

> <CNNaffinity>
5.1638464928

> <CNN_VS>
1.3516215086

> <CNNaffinity_variance>
0.0436587371

$$$$
22:0


 29 32  0  0  0  0  0  0  0  0999 V2000
   58.2522   26.3623   47.6500 C   0  0  0  0  0  0  0  0  0  0  0  0
   58.1055   26.1510   46.3326 C   0  0  0  0  0  0  0  0  0  0  0  0
   57.8021   24.9343   45.7128 C   0  0  0  0  0  0  0  0  0  0  0  0
   57.5439   23.7555   46.3119 C   0  0  0  0  0  0  0  0  0  0  0  0
   57.7633   25.1930   44.3477 C   0  0  0  0  0  0  0  0  0  0  0  0
   58.0475   26.5353   44.1902 C   0  0  0  0  0  0  0  0  0  0  0  0
   58.0932   27.2548   42.8776 C   0  0  0  0  0  0  0  0  0  0  0  0
   58.2613   27.1133   45.3916 N   0  0  0  0  0  0  0  0  0  0  0  0
   56.2542   23.0476   46.2181 C   0  0  0  0  0  0  0  0  0  0  0  0
   56.1491   21.7080   46.1729 N   0  0  0  0  0  0  0  0  0  0  0  0
   54.8248   21.5020   46.0101 C   0  0  0  0  0  0  0  0  0  0  0  0
   54.3221   20.3504   45.9360 O   0  0  0  0  0  0  0  0  0  0  0  0
   54.0826   22.6258   45.9219 N   0  0  0  0  0  0  0  0  0  0  0  0
   55.0018   23.5970   46.0441 C   0  0  0  0  0  0  0  0  0  0  0  0
   54.7057   24.9505   45.9483 O   0  0  0  0  0  0  0  0  0  0  0  0
   58.5722   28.4990   45.6100 C   0  0  0  0  0  0  0  0  0  0  0  0
   59.8692   28.8701   45.9886 C   0  0  0  0  0  0  0  0  0  0  0  0
   60.1804   30.2154   46.2079 C   0  0  0  0  0  0  0  0  0  0  0  0
   59.1958   31.2037   46.0538 C   0  0  0  0  0  0  0  0  0  0  0  0
   57.9005   30.8301   45.6622 C   0  0  0  0  0  0  0  0  0  0  0  0
   57.5873   29.4845   45.4420 C   0  0  0  0  0  0  0  0  0  0  0  0
   56.3021   29.1329   45.0486 O   0  0  0  0  0  0  0  0  0  0  0  0
   59.5298   32.6582   46.2608 C   0  0  0  0  0  0  0  0  0  0  0  0
   59.6156   32.9761   47.7011 N   0  0  0  0  0  0  0  0  0  0  0  0
   60.9584   33.5080   48.0505 C   0  0  0  0  0  0  0  0  0  0  0  0
   61.2157   33.5287   49.5740 C   0  0  0  0  0  0  0  0  0  0  0  0
   59.9081   33.4405   50.3631 C   0  0  0  0  0  0  0  0  0  0  0  0
   59.1286   32.1693   49.9931 C   0  0  0  0  0  0  0  0  0  0  0  0
   59.2999   31.7848   48.5115 C   0  0  0  0  0  0  0  0  0  0  0  0
  1  2  2  0
  2  3  1  0
  3  4  2  0
  4  9  1  0
  9 10  1  0
 10 11  1  0
 11 12  2  0
 11 13  1  0
 13 14  1  0
 14 15  1  0
  3  5  1  0
  5  6  2  0
  6  7  1  0
  6  8  1  0
  8 16  1  0
 16 17  2  0
 17 18  1  0
 18 19  2  0
 19 23  1  0
 23 24  1  0
 24 25  1  0
 25 26  1  0
 26 27  1  0
 27 28  1  0
 28 29  1  0
 19 20  1  0
 20 21  2  0
 21 22  1  0
  8  2  1  0
 21 16  1  0
 14  9  2  0
 29 24  1  0
M  CHG 1  10  -1
M  CHG 1  13  -1
M  CHG 1  15  -1
M  CHG 1  22  -1
M  END
> <UniqueID>
21

> <SMILES>
C=c1c(=Cc2[n-]c(=O)[n-]c2[O-])cc(C)n1-c1ccc(CN2CCCCC2)cc1[O-]

> <Energy>
129.87821067743624

> <Genealogy>
C=c1c(=Cc2[n-]c(=O)[n-]c2[O-])cc(C)n1-c1ccc(CN2CCCCC2)cc1[O-] (protonated)
C=c1c(=Cc2[n-]c(=O)[n-]c2[O-])cc(C)n1-c1ccc(CN2CCCCC2)cc1[O-] (3D coordinates assigned)
C=c1c(=Cc2[n-]c(=O)[n-]c2[O-])cc(C)n1-c1ccc(CN2CCCCC2)cc1[O-] (nonaromatic ring conformer: 129.87821067743624 kcal/mol)

> <smiles>
C=c1c(=Cc2[nH]c(=O)[nH]c2O)cc(C)n1-c1ccc(CN2CCCCC2)cc1O

> <score_type>
oracle

> <origin>
adg

> <m_score__min__energy>
-17.890000000000001

> <m_primary>
energy

> <minimizedAffinity>
-7.38014

> <minimizedRMSD>
2.07884

> <CNNscore>
0.0766394138

> <CNNaffinity>
6.1418495178

> <CNN_VS>
0.4707077444

> <CNNaffinity_variance>
0.0002185191

$$$$
24:0


 27 29  0  0  0  0  0  0  0  0999 V2000
   57.7668   30.6246   46.0556 N   0  0  0  0  0  0  0  0  0  0  0  0
   59.2138   32.4796   46.7639 C   0  0  0  0  0  0  0  0  0  0  0  0
   59.7351   33.7658   46.5560 C   0  0  0  0  0  0  0  0  0  0  0  0
   59.3972   34.4880   45.4100 C   0  0  0  0  0  0  0  0  0  0  0  0
   58.5384   33.9313   44.4615 C   0  0  0  0  0  0  0  0  0  0  0  0
   58.0043   32.6573   44.6621 C   0  0  0  0  0  0  0  0  0  0  0  0
   58.3188   31.9298   45.8230 C   0  0  0  0  0  0  0  0  0  0  0  0
   62.1737   32.4005   49.8792 C   0  0  0  0  0  0  0  0  0  0  0  0
   61.0846   31.4751   50.2374 N   0  0  0  0  0  0  0  0  0  0  0  0
   61.0264   30.3135   49.3253 C   0  0  0  0  0  0  0  0  0  0  0  0
   60.6003   30.7217   47.9061 C   0  0  0  0  0  0  0  0  0  0  0  0
   59.5590   31.7523   47.9552 N   0  0  0  0  0  0  0  0  0  0  0  0
   58.8148   31.9613   49.1991 C   0  0  0  0  0  0  0  0  0  0  0  0
   59.7826   32.1792   50.3795 C   0  0  0  0  0  0  0  0  0  0  0  0
   57.0814   29.8205   45.0918 C   0  0  0  0  0  0  0  0  0  0  0  0
   56.0255   30.2643   44.5692 O   0  0  0  0  0  0  0  0  0  0  0  0
   57.6520   28.5838   44.6426 N   0  0  0  0  0  0  0  0  0  0  0  0
   58.6290   27.7828   45.3248 C   0  0  0  0  0  0  0  0  0  0  0  0
   59.9354   28.2681   45.5251 C   0  0  0  0  0  0  0  0  0  0  0  0
   60.9026   27.4732   46.1419 C   0  0  0  0  0  0  0  0  0  0  0  0
   60.5863   26.1801   46.5500 C   0  0  0  0  0  0  0  0  0  0  0  0
   59.3039   25.6723   46.3362 C   0  0  0  0  0  0  0  0  0  0  0  0
   58.3080   26.4569   45.7234 C   0  0  0  0  0  0  0  0  0  0  0  0
   56.9548   25.8683   45.5218 C   0  0  0  0  0  0  0  0  0  0  0  0
   55.7841   26.5127   46.0190 N   0  0  0  0  0  0  0  0  0  0  0  0
   56.8311   24.7695   44.9162 O   0  0  0  0  0  0  0  0  0  0  0  0
   55.8592   27.3714   46.4946 H   0  0  0  0  0  0  0  0  0  0  0  0
  8  9  1  0
  9 10  1  0
 10 11  1  0
 11 12  1  0
 12  2  1  0
  2  3  2  0
  3  4  1  0
  4  5  2  0
  5  6  1  0
  6  7  2  0
  7  1  1  0
  1 15  1  0
 15 16  2  0
 15 17  1  0
 17 18  1  0
 18 19  2  0
 19 20  1  0
 20 21  2  0
 21 22  1  0
 22 23  2  0
 23 24  1  0
 24 25  1  0
 24 26  2  0
 12 13  1  0
 13 14  1  0
 14  9  1  0
  7  2  1  0
 23 18  1  0
 25 27  1  0
M  CHG 1   1  -1
M  CHG 1  17  -1
M  CHG 1  25  -1
M  END
> <UniqueID>
23

> <SMILES>
CN1CCN(c2ccccc2[N-]C(=O)[N-]c2ccccc2C([NH-])=O)CC1

> <Energy>
68.608693474507

> <Genealogy>
CN1CCN(c2ccccc2[N-]C(=O)[N-]c2ccccc2C([NH-])=O)CC1 (protonated)
CN1CCN(c2ccccc2[N-]C(=O)[N-]c2ccccc2C([NH-])=O)CC1 (3D coordinates assigned)
CN1CCN(c2ccccc2[N-]C(=O)[N-]c2ccccc2C([NH-])=O)CC1 (nonaromatic ring conformer: 68.608693474507 kcal/mol)

> <smiles>
CN1CCN(c2ccccc2NC(=O)Nc2ccccc2C(N)=O)CC1

> <score_type>
oracle

> <origin>
adg

> <m_score__min__energy>
-14.43

> <m_primary>
energy

> <minimizedAffinity>
-7.92369

> <minimizedRMSD>
1.06753

> <CNNscore>
0.5820488930

> <CNNaffinity>
6.5085282326

> <CNN_VS>
3.7882816792

> <CNNaffinity_variance>
0.1512448490

$$$$
28:0


 35 38  0  0  0  0  0  0  0  0999 V2000
   59.3009   31.5593   47.1103 C   0  0  0  0  0  0  0  0  0  0  0  0
   58.5131   32.3236   47.9804 C   0  0  0  0  0  0  0  0  0  0  0  0
   59.1138   33.2164   48.8700 C   0  0  0  0  0  0  0  0  0  0  0  0
   60.5030   33.3589   48.8898 C   0  0  0  0  0  0  0  0  0  0  0  0
   61.3129   32.6089   48.0145 C   0  0  0  0  0  0  0  0  0  0  0  0
   60.6970   31.6975   47.1365 C   0  0  0  0  0  0  0  0  0  0  0  0
   58.5848   28.7124   47.5308 C   0  0  0  0  0  0  0  0  0  0  0  0
   58.3933   29.3448   46.3623 C   0  0  0  0  0  0  0  0  0  0  0  0
   57.7706   28.8393   45.2066 C   0  0  0  0  0  0  0  0  0  0  0  0
   57.3417   27.5996   44.8984 C   0  0  0  0  0  0  0  0  0  0  0  0
   57.6458   29.9076   44.3336 C   0  0  0  0  0  0  0  0  0  0  0  0
   58.2280   30.9969   44.9458 C   0  0  0  0  0  0  0  0  0  0  0  0
   58.3072   32.3687   44.3453 C   0  0  0  0  0  0  0  0  0  0  0  0
   58.6799   30.6603   46.1752 N   0  0  0  0  0  0  0  0  0  0  0  0
   57.3676   26.4275   45.7935 C   0  0  0  0  0  0  0  0  0  0  0  0
   56.1840   25.8929   46.3314 C   0  0  0  0  0  0  0  0  0  0  0  0
   54.9461   26.4214   45.9877 O   0  0  0  0  0  0  0  0  0  0  0  0
   56.2445   24.8525   47.2033 N   0  0  0  0  0  0  0  0  0  0  0  0
   57.4357   24.3268   47.5839 C   0  0  0  0  0  0  0  0  0  0  0  0
   57.4692   23.3639   48.3937 O   0  0  0  0  0  0  0  0  0  0  0  0
   58.5942   24.8432   47.0988 N   0  0  0  0  0  0  0  0  0  0  0  0
   58.5879   25.8833   46.2234 C   0  0  0  0  0  0  0  0  0  0  0  0
   59.6812   26.3451   45.8003 O   0  0  0  0  0  0  0  0  0  0  0  0
   62.7929   32.7442   48.0168 C   0  0  0  0  0  0  0  0  0  0  0  0
   63.3270   33.5716   47.2230 O   0  0  0  0  0  0  0  0  0  0  0  0
   63.6329   31.9480   48.8906 N   0  0  0  0  0  0  0  0  0  0  0  0
   64.7695   32.7733   49.3760 C   0  0  0  0  0  0  0  0  0  0  0  0
   65.3977   32.1772   50.6414 C   0  0  0  0  0  0  0  0  0  0  0  0
   64.3827   32.1503   51.8119 C   0  0  0  0  0  0  0  0  0  0  0  0
   62.9201   32.0875   51.3069 C   0  0  0  0  0  0  0  0  0  0  0  0
   62.8268   31.3197   49.9797 C   0  0  0  0  0  0  0  0  0  0  0  0
   63.9648   31.2840   49.5372 H   0  0  0  0  0  0  0  0  0  0  0  0
   64.5874   33.3536   52.7518 C   0  0  0  0  0  0  0  0  0  0  0  0
   64.0907   34.5307   52.1729 O   0  0  0  0  0  0  0  0  0  0  0  0
   64.5640   34.7086   51.3451 H   0  0  0  0  0  0  0  0  0  0  0  0
  7  8  2  0
  8  9  1  0
  9 10  2  0
 10 15  1  0
 15 16  2  0
 16 17  1  0
 16 18  1  0
 18 19  1  0
 19 20  2  0
 19 21  1  0
 21 22  1  0
 22 23  2  0
  9 11  1  0
 11 12  2  0
 12 13  1  0
 12 14  1  0
 14  1  1  0
  1  2  2  0
  2  3  1  0
  3  4  2  0
  4  5  1  0
  5 24  1  0
 24 25  2  0
 26 24  1  0
 26 27  1  0
 27 28  1  0
 28 29  1  0
 29 33  1  0
 33 34  1  0
 29 30  1  0
 30 31  1  0
  5  6  2  0
 14  8  1  0
  6  1  1  0
 22 15  1  0
 31 26  1  0
 26 32  1  0
 34 35  1  0
M  CHG 1  17  -1
M  CHG 1  18  -1
M  CHG 1  21  -1
M  CHG 1  26   1
M  END
> <UniqueID>
27

> <SMILES>
C=c1c(=Cc2c([O-])[n-]c(=O)[n-]c2=O)cc(C)n1-c1cccc(C(=O)[NH+]2CCC(CO)CC2)c1

> <Energy>
120.57404519420199

> <Genealogy>
C=c1c(=Cc2c([O-])[n-]c(=O)[n-]c2=O)cc(C)n1-c1cccc(C(=O)[NH+]2CCC(CO)CC2)c1 (protonated)
C=c1c(=Cc2c([O-])[n-]c(=O)[n-]c2=O)cc(C)n1-c1cccc(C(=O)[NH+]2CCC(CO)CC2)c1 (3D coordinates assigned)
C=c1c(=Cc2c([O-])[n-]c(=O)[n-]c2=O)cc(C)n1-c1cccc(C(=O)[NH+]2CCC(CO)CC2)c1 (nonaromatic ring conformer: 120.57404519420199 kcal/mol)

> <smiles>
C=c1c(=Cc2c(O)[nH]c(=O)[nH]c2=O)cc(C)n1-c1cccc(C(=O)N2CCC(CO)CC2)c1

> <score_type>
oracle

> <origin>
adg

> <m_score__min__energy>
-15.58

> <m_primary>
energy

> <minimizedAffinity>
-6.50627

> <minimizedRMSD>
0.80750

> <CNNscore>
0.1508183032

> <CNNaffinity>
6.6365275383

> <CNN_VS>
1.0009098053

> <CNNaffinity_variance>
0.0696077868

$$$$
36:0


 25 26  0  0  0  0  0  0  0  0999 V2000
   58.8281   27.7779   44.6398 C   0  0  0  0  0  0  0  0  0  0  0  0
   58.8044   29.0867   44.9647 C   0  0  0  0  0  0  0  0  0  0  0  0
   59.8972   29.7260   45.7839 C   0  0  0  0  0  0  0  0  0  0  0  0
   60.3756   26.2675   46.5019 O   0  0  0  0  0  0  0  0  0  0  0  0
   59.0163   25.9919   46.3792 C   0  0  0  0  0  0  0  0  0  0  0  0
   58.4533   25.0229   47.1529 N   0  0  0  0  0  0  0  0  0  0  0  0
   57.1312   24.7162   47.0766 C   0  0  0  0  0  0  0  0  0  0  0  0
   56.6576   23.8096   47.8110 O   0  0  0  0  0  0  0  0  0  0  0  0
   56.3059   25.4129   46.1891 C   0  0  0  0  0  0  0  0  0  0  0  0
   54.9475   25.1224   46.1103 O   0  0  0  0  0  0  0  0  0  0  0  0
   56.8553   26.4113   45.3838 C   0  0  0  0  0  0  0  0  0  0  0  0
   58.2284   26.6977   45.4542 C   0  0  0  0  0  0  0  0  0  0  0  0
   60.8958   25.7935   47.1205 H   0  0  0  0  0  0  0  0  0  0  0  0
   57.6254   29.8971   44.5776 C   0  0  0  0  0  0  0  0  0  0  0  0
   56.9473   29.5517   43.5730 O   0  0  0  0  0  0  0  0  0  0  0  0
   57.2410   31.0811   45.2869 N   0  0  0  0  0  0  0  0  0  0  0  0
   57.5294   32.4463   44.8661 C   0  0  0  0  0  0  0  0  0  0  0  0
   58.3738   33.1179   45.9102 C   0  0  0  0  0  0  0  0  0  0  0  0
   59.1377   34.2490   45.5829 C   0  0  0  0  0  0  0  0  0  0  0  0
   59.9479   34.8523   46.5469 C   0  0  0  0  0  0  0  0  0  0  0  0
   60.0142   34.3262   47.8401 C   0  0  0  0  0  0  0  0  0  0  0  0
   59.2671   33.1819   48.1774 C   0  0  0  0  0  0  0  0  0  0  0  0
   58.4549   32.5828   47.2059 C   0  0  0  0  0  0  0  0  0  0  0  0
   59.3035   32.6098   49.4592 O   0  0  0  0  0  0  0  0  0  0  0  0
   60.4998   32.2965   50.1631 C   0  0  0  0  0  0  0  0  0  0  0  0
  4  5  1  0
  5  6  1  0
  6  7  1  0
  7  8  2  0
  7  9  1  0
  9 10  1  0
  9 11  2  0
 11 12  1  0
 12  1  1  0
  1  2  2  0
  2 14  1  0
 14 15  2  0
 14 16  1  0
 16 17  1  0
 17 18  1  0
 18 19  2  0
 19 20  1  0
 20 21  2  0
 21 22  1  0
 22 24  1  0
 24 25  1  0
 22 23  2  0
  2  3  1  0
 12  5  2  0
 23 18  1  0
  4 13  1  0
M  CHG 1   6  -1
M  CHG 1  10  -1
M  CHG 1  16  -1
M  END
> <UniqueID>
34

> <SMILES>
COc1cccc(C[N-]C(=O)/C(C)=C/c2cc([O-])c(=O)[n-]c2O)c1

> <Energy>
47.97871927619125

> <Genealogy>
COc1cccc(C[N-]C(=O)C(C)=Cc2cc([O-])c(=O)[n-]c2O)c1 (protonated)
COc1cccc(C[N-]C(=O)/C(C)=C/c2cc([O-])c(=O)[n-]c2O)c1 (cis-trans isomerization)
COc1cccc(C[N-]C(=O)/C(C)=C/c2cc([O-])c(=O)[n-]c2O)c1 (3D coordinates assigned)
COc1cccc(C[N-]C(=O)/C(C)=C/c2cc([O-])c(=O)[n-]c2O)c1 (optimized conformer: 47.97871927619125 kcal/mol)

> <smiles>
COc1cccc(CNC(=O)C(C)=Cc2cc(O)c(=O)[nH]c2O)c1

> <score_type>
oracle

> <origin>
adg

> <m_score__min__energy>
-14.19

> <m_primary>
energy

> <minimizedAffinity>
-7.37083

> <minimizedRMSD>
1.14095

> <CNNscore>
0.5380219221

> <CNNaffinity>
6.5497589111

> <CNN_VS>
3.5239138603

> <CNNaffinity_variance>
0.3286214769

$$$$
45:0


 32 34  0  0  0  0  0  0  0  0999 V2000
   58.9855   32.3431   50.4211 C   0  0  0  0  0  0  0  0  0  0  0  0
   58.1235   31.3117   50.6498 N   0  0  0  0  0  0  0  0  0  0  0  0
   57.8303   30.8677   51.9047 C   0  0  0  0  0  0  0  0  0  0  0  0
   57.0391   29.8499   52.0856 N   0  0  0  0  0  0  0  0  0  0  0  0
   58.4043   31.4678   52.9768 N   0  0  0  0  0  0  0  0  0  0  0  0
   59.2647   32.5059   52.8138 C   0  0  0  0  0  0  0  0  0  0  0  0
   59.5755   32.9717   51.5345 C   0  0  0  0  0  0  0  0  0  0  0  0
   59.3014   32.1329   46.6305 C   0  0  0  0  0  0  0  0  0  0  0  0
   59.8065   33.4086   46.3147 C   0  0  0  0  0  0  0  0  0  0  0  0
   60.0282   34.3429   47.3260 C   0  0  0  0  0  0  0  0  0  0  0  0
   59.7677   34.0201   48.6586 C   0  0  0  0  0  0  0  0  0  0  0  0
   59.2710   32.7415   49.0044 C   0  0  0  0  0  0  0  0  0  0  0  0
   59.0487   31.8090   47.9670 C   0  0  0  0  0  0  0  0  0  0  0  0
   59.0365   31.1679   45.6470 O   0  0  0  0  0  0  0  0  0  0  0  0
   57.8241   31.0767   44.9079 C   0  0  0  0  0  0  0  0  0  0  0  0
   57.1966   29.7362   45.1481 C   0  0  0  0  0  0  0  0  0  0  0  0
   56.0133   29.5332   44.7638 O   0  0  0  0  0  0  0  0  0  0  0  0
   57.9146   28.6663   45.7718 N   0  0  0  0  0  0  0  0  0  0  0  0
   57.9356   27.2797   45.3018 C   0  0  0  0  0  0  0  0  0  0  0  0
   55.7446   26.6183   46.0096 O   0  0  0  0  0  0  0  0  0  0  0  0
   57.1089   26.3869   46.2281 C   0  0  0  0  0  0  0  0  0  0  0  0
   55.2222   26.0511   46.5981 H   0  0  0  0  0  0  0  0  0  0  0  0
   55.7968   29.9464   52.7915 C   0  0  0  0  0  0  0  0  0  0  0  0
   55.7687   29.7743   54.1763 C   0  0  0  0  0  0  0  0  0  0  0  0
   54.5522   29.8275   54.8599 C   0  0  0  0  0  0  0  0  0  0  0  0
   53.3639   30.0708   54.1693 C   0  0  0  0  0  0  0  0  0  0  0  0
   53.3816   30.2401   52.7833 C   0  0  0  0  0  0  0  0  0  0  0  0
   54.6077   30.1974   52.1008 C   0  0  0  0  0  0  0  0  0  0  0  0
   52.1230   30.5175   52.0602 C   0  0  0  0  0  0  0  0  0  0  0  0
   52.1008   30.3938   50.8060 O   0  0  0  0  0  0  0  0  0  0  0  0
   50.9394   30.9756   52.7275 N   0  0  0  0  0  0  0  0  0  0  0  0
   50.6188   32.3695   53.0252 C   0  0  0  0  0  0  0  0  0  0  0  0
 20 21  1  0
 21 19  1  0
 19 18  1  0
 18 16  1  0
 16 17  2  0
 16 15  1  0
 15 14  1  0
 14  8  1  0
  8  9  2  0
  9 10  1  0
 10 11  2  0
 11 12  1  0
 12  1  1  0
  1  2  2  0
  2  3  1  0
  3  4  2  0
  4 23  1  0
 23 24  2  0
 24 25  1  0
 25 26  2  0
 26 27  1  0
 27 29  1  0
 29 30  2  0
 29 31  1  0
 31 32  1  0
 27 28  2  0
  3  5  1  0
  5  6  1  0
  6  7  2  0
 12 13  2  0
 13  8  1  0
  7  1  1  0
 28 23  1  0
 20 22  1  0
M  CHG 1   5  -1
M  CHG 1  18  -1
M  CHG 1  31  -1
M  END
> <UniqueID>
42

> <SMILES>
C[N-]C(=O)c1cccc(/N=c2\nc(-c3cccc(OCC(=O)[N-]CCO)c3)cc[n-]2)c1

> <Energy>
62.88165957185047

> <Genealogy>
C[N-]C(=O)c1cccc(N=c2nc(-c3cccc(OCC(=O)[N-]CCO)c3)cc[n-]2)c1 (protonated)
C[N-]C(=O)c1cccc(/N=c2\nc(-c3cccc(OCC(=O)[N-]CCO)c3)cc[n-]2)c1 (cis-trans isomerization)
C[N-]C(=O)c1cccc(/N=c2\nc(-c3cccc(OCC(=O)[N-]CCO)c3)cc[n-]2)c1 (3D coordinates assigned)
C[N-]C(=O)c1cccc(/N=c2\nc(-c3cccc(OCC(=O)[N-]CCO)c3)cc[n-]2)c1 (optimized conformer: 62.88165957185047 kcal/mol)

> <smiles>
CNC(=O)c1cccc(N=c2nc(-c3cccc(OCC(=O)NCCO)c3)cc[nH]2)c1

> <score_type>
oracle

> <origin>
adg

> <m_score__min__energy>
-15.68

> <m_primary>
energy

> <minimizedAffinity>
-7.71717

> <minimizedRMSD>
1.19093

> <CNNscore>
0.5303049684

> <CNNaffinity>
6.2467551231

> <CNN_VS>
3.3126852512

> <CNNaffinity_variance>
0.0048971935

$$$$
47:0


 28 30  0  0  0  0  0  0  0  0999 V2000
   59.8817   31.5361   47.0351 N   0  0  0  0  0  0  0  0  0  0  0  0
   59.1780   32.0318   45.9932 C   0  0  0  0  0  0  0  0  0  0  0  0
   58.8534   33.4797   45.7886 C   0  0  0  0  0  0  0  0  0  0  0  0
   58.8096   31.0163   45.1371 C   0  0  0  0  0  0  0  0  0  0  0  0
   59.3140   29.8383   45.6653 C   0  0  0  0  0  0  0  0  0  0  0  0
   59.1737   28.6488   45.0473 C   0  0  0  0  0  0  0  0  0  0  0  0
   59.9573   30.1903   46.8665 C   0  0  0  0  0  0  0  0  0  0  0  0
   60.5185   29.3653   47.7660 C   0  0  0  0  0  0  0  0  0  0  0  0
   58.5633   27.4407   45.6340 C   0  0  0  0  0  0  0  0  0  0  0  0
   57.1688   27.2980   45.7131 C   0  0  0  0  0  0  0  0  0  0  0  0
   56.3240   28.2775   45.2016 O   0  0  0  0  0  0  0  0  0  0  0  0
   56.6324   26.1951   46.2980 N   0  0  0  0  0  0  0  0  0  0  0  0
   57.4257   25.2280   46.8265 C   0  0  0  0  0  0  0  0  0  0  0  0
   56.9082   24.2120   47.3589 O   0  0  0  0  0  0  0  0  0  0  0  0
   58.7768   25.3572   46.7848 N   0  0  0  0  0  0  0  0  0  0  0  0
   59.3605   26.4409   46.2105 C   0  0  0  0  0  0  0  0  0  0  0  0
   60.6174   26.5319   46.1961 O   0  0  0  0  0  0  0  0  0  0  0  0
   60.0951   33.1940   50.3949 C   0  0  0  0  0  0  0  0  0  0  0  0
   61.3270   33.8486   50.2835 C   0  0  0  0  0  0  0  0  0  0  0  0
   62.0914   33.7204   49.1201 C   0  0  0  0  0  0  0  0  0  0  0  0
   61.6227   32.9479   48.0544 C   0  0  0  0  0  0  0  0  0  0  0  0
   60.3798   32.3060   48.1431 C   0  0  0  0  0  0  0  0  0  0  0  0
   59.6102   32.4454   49.3073 C   0  0  0  0  0  0  0  0  0  0  0  0
   59.3223   33.3637   51.5913 N   0  0  0  0  0  0  0  0  0  0  0  0
   58.4764   32.3804   52.1997 C   0  0  0  0  0  0  0  0  0  0  0  0
   57.2695   32.6703   52.4161 O   0  0  0  0  0  0  0  0  0  0  0  0
   58.7595   29.9425   51.9907 C   0  0  0  0  0  0  0  0  0  0  0  0
   59.0141   31.0761   52.6416 C   0  0  0  0  0  0  0  0  0  0  0  0
 27 28  2  0
 28 25  1  0
 25 26  2  0
 25 24  1  0
 24 18  1  0
 18 19  2  0
 19 20  1  0
 20 21  2  0
 21 22  1  0
 22  1  1  0
  1  2  1  0
  2  3  1  0
  2  4  2  0
  4  5  1  0
  5  6  2  0
  6  9  1  0
  9 10  2  0
 10 11  1  0
 10 12  1  0
 12 13  1  0
 13 14  2  0
 13 15  1  0
 15 16  1  0
 16 17  2  0
  5  7  1  0
  7  8  2  0
 22 23  2  0
 23 18  1  0
  7  1  1  0
 16  9  1  0
M  CHG 1  11  -1
M  CHG 1  12  -1
M  CHG 1  15  -1
M  CHG 1  24  -1
M  END
> <UniqueID>
44

> <SMILES>
C=CC(=O)[N-]c1cccc(-n2c(C)c/c(=C/c3c([O-])[n-]c(=O)[n-]c3=O)c2=C)c1

> <Energy>
96.27633362971626

> <Genealogy>
C=CC(=O)[N-]c1cccc(-n2c(C)cc(=Cc3c([O-])[n-]c(=O)[n-]c3=O)c2=C)c1 (protonated)
C=CC(=O)[N-]c1cccc(-n2c(C)c/c(=C/c3c([O-])[n-]c(=O)[n-]c3=O)c2=C)c1 (cis-trans isomerization)
C=CC(=O)[N-]c1cccc(-n2c(C)c/c(=C/c3c([O-])[n-]c(=O)[n-]c3=O)c2=C)c1 (3D coordinates assigned)
C=CC(=O)[N-]c1cccc(-n2c(C)c/c(=C/c3c([O-])[n-]c(=O)[n-]c3=O)c2=C)c1 (optimized conformer: 96.27633362971626 kcal/mol)

> <smiles>
C=CC(=O)Nc1cccc(-n2c(C)cc(=Cc3c(O)[nH]c(=O)[nH]c3=O)c2=C)c1

> <score_type>
oracle

> <origin>
adg

> <m_score__min__energy>
-16.690000000000001

> <m_primary>
energy

> <minimizedAffinity>
-6.76506

> <minimizedRMSD>
1.27711

> <CNNscore>
0.3811146617

> <CNNaffinity>
6.9486498833

> <CNN_VS>
2.6482324600

> <CNNaffinity_variance>
0.2928044498

$$$$
55:0


 31 34  0  0  0  0  0  0  0  0999 V2000
   59.5400   29.7514   53.3208 C   0  0  0  0  0  0  0  0  0  0  0  0
   60.0975   28.7580   52.5060 C   0  0  0  0  0  0  0  0  0  0  0  0
   61.4483   28.4220   52.6320 C   0  0  0  0  0  0  0  0  0  0  0  0
   62.2626   29.0838   53.5587 C   0  0  0  0  0  0  0  0  0  0  0  0
   61.6967   30.0720   54.3867 C   0  0  0  0  0  0  0  0  0  0  0  0
   60.3451   30.4085   54.2611 C   0  0  0  0  0  0  0  0  0  0  0  0
   57.2170   28.6950   54.8424 C   0  0  0  0  0  0  0  0  0  0  0  0
   57.0948   29.5962   53.8547 C   0  0  0  0  0  0  0  0  0  0  0  0
   55.9203   30.2422   53.4334 C   0  0  0  0  0  0  0  0  0  0  0  0
   54.6278   30.0275   53.7503 C   0  0  0  0  0  0  0  0  0  0  0  0
   56.3151   31.2139   52.5284 C   0  0  0  0  0  0  0  0  0  0  0  0
   57.6826   31.0941   52.3850 C   0  0  0  0  0  0  0  0  0  0  0  0
   58.5220   31.9330   51.4708 C   0  0  0  0  0  0  0  0  0  0  0  0
   58.1542   30.1076   53.1779 N   0  0  0  0  0  0  0  0  0  0  0  0
   53.4939   30.0770   52.8124 C   0  0  0  0  0  0  0  0  0  0  0  0
   53.5799   29.8244   51.4936 N   0  0  0  0  0  0  0  0  0  0  0  0
   52.3473   30.1317   51.0359 C   0  0  0  0  0  0  0  0  0  0  0  0
   52.0222   30.0099   49.8266 O   0  0  0  0  0  0  0  0  0  0  0  0
   51.4933   30.5920   51.9753 N   0  0  0  0  0  0  0  0  0  0  0  0
   52.2407   30.5640   53.0903 C   0  0  0  0  0  0  0  0  0  0  0  0
   51.7880   30.9813   54.3361 O   0  0  0  0  0  0  0  0  0  0  0  0
   63.6101   28.7037   53.6556 O   0  0  0  0  0  0  0  0  0  0  0  0
   64.4232   28.3183   52.5829 C   0  0  0  0  0  0  0  0  0  0  0  0
   64.8400   29.1687   51.7509 O   0  0  0  0  0  0  0  0  0  0  0  0
   64.7669   26.9353   52.4430 N   0  0  0  0  0  0  0  0  0  0  0  0
   64.0217   25.8122   52.9362 C   0  0  0  0  0  0  0  0  0  0  0  0
   64.3075   25.2133   54.1794 C   0  0  0  0  0  0  0  0  0  0  0  0
   63.5696   24.1057   54.6113 C   0  0  0  0  0  0  0  0  0  0  0  0
   62.5572   23.5798   53.8055 C   0  0  0  0  0  0  0  0  0  0  0  0
   62.2855   24.1551   52.5613 C   0  0  0  0  0  0  0  0  0  0  0  0
   63.0201   25.2611   52.1258 C   0  0  0  0  0  0  0  0  0  0  0  0
  7  8  2  0
  8  9  1  0
  9 10  2  0
 10 15  1  0
 15 16  1  0
 16 17  1  0
 17 18  2  0
 17 19  1  0
 19 20  1  0
 20 21  1  0
  9 11  1  0
 11 12  2  0
 12 13  1  0
 12 14  1  0
 14  1  1  0
  1  2  2  0
  2  3  1  0
  3  4  2  0
  4 22  1  0
 22 23  1  0
 23 24  2  0
 23 25  1  0
 25 26  1  0
 26 27  2  0
 27 28  1  0
 28 29  2  0
 29 30  1  0
 30 31  2  0
  4  5  1  0
  5  6  2  0
 14  8  1  0
  6  1  1  0
 20 15  2  0
 31 26  1  0
M  CHG 1  16  -1
M  CHG 1  19  -1
M  CHG 1  21  -1
M  CHG 1  25  -1
M  END
> <UniqueID>
51

> <SMILES>
C=c1c(=Cc2[n-]c(=O)[n-]c2[O-])cc(C)n1-c1ccc(OC(=O)[N-]c2ccccc2)cc1

> <Energy>
134.8989796474467

> <Genealogy>
C=c1c(=Cc2[n-]c(=O)[n-]c2[O-])cc(C)n1-c1ccc(OC(=O)[N-]c2ccccc2)cc1 (protonated)
C=c1c(=Cc2[n-]c(=O)[n-]c2[O-])cc(C)n1-c1ccc(OC(=O)[N-]c2ccccc2)cc1 (3D coordinates assigned)
C=c1c(=Cc2[n-]c(=O)[n-]c2[O-])cc(C)n1-c1ccc(OC(=O)[N-]c2ccccc2)cc1 (optimized conformer: 134.8989796474467 kcal/mol)

> <smiles>
C=c1c(=Cc2[nH]c(=O)[nH]c2O)cc(C)n1-c1ccc(OC(=O)Nc2ccccc2)cc1

> <score_type>
oracle

> <origin>
adg

> <m_score__min__energy>
-16.690000000000001

> <m_primary>
energy

> <minimizedAffinity>
-5.31913

> <minimizedRMSD>
2.78208

> <CNNscore>
0.2145369351

> <CNNaffinity>
4.9303793907

> <CNN_VS>
1.0577484369

> <CNNaffinity_variance>
0.9342469573

$$$$
58:0


 24 26  0  0  0  0  0  0  0  0999 V2000
   58.0586   25.7945   44.2707 C   0  0  0  0  0  0  0  0  0  0  0  0
   58.4946   25.8821   45.5374 C   0  0  0  0  0  0  0  0  0  0  0  0
   58.0712   25.1048   46.6288 C   0  0  0  0  0  0  0  0  0  0  0  0
   57.3019   24.0010   46.6873 C   0  0  0  0  0  0  0  0  0  0  0  0
   58.6416   25.6747   47.7537 C   0  0  0  0  0  0  0  0  0  0  0  0
   59.4309   26.7180   47.3210 C   0  0  0  0  0  0  0  0  0  0  0  0
   60.2972   27.5474   48.2206 C   0  0  0  0  0  0  0  0  0  0  0  0
   59.3464   26.8518   45.9743 N   0  0  0  0  0  0  0  0  0  0  0  0
   55.9161   23.8920   46.2029 C   0  0  0  0  0  0  0  0  0  0  0  0
   55.2463   22.7358   46.0485 N   0  0  0  0  0  0  0  0  0  0  0  0
   53.9971   23.1381   45.7333 C   0  0  0  0  0  0  0  0  0  0  0  0
   53.0634   22.3279   45.4937 O   0  0  0  0  0  0  0  0  0  0  0  0
   53.8220   24.4759   45.7048 N   0  0  0  0  0  0  0  0  0  0  0  0
   55.0439   24.9380   46.0198 C   0  0  0  0  0  0  0  0  0  0  0  0
   55.3538   26.2868   46.1422 O   0  0  0  0  0  0  0  0  0  0  0  0
   59.9847   27.9090   45.1713 C   0  0  0  0  0  0  0  0  0  0  0  0
   60.0023   29.2558   45.9124 C   0  0  0  0  0  0  0  0  0  0  0  0
   58.8718   30.1513   45.4841 C   0  0  0  0  0  0  0  0  0  0  0  0
   58.8490   31.4994   45.8694 C   0  0  0  0  0  0  0  0  0  0  0  0
   57.7709   32.3049   45.4925 C   0  0  0  0  0  0  0  0  0  0  0  0
   56.7497   31.7805   44.7644 N   0  0  0  0  0  0  0  0  0  0  0  0
   56.7420   30.4756   44.3818 C   0  0  0  0  0  0  0  0  0  0  0  0
   55.7761   30.0272   43.7105 O   0  0  0  0  0  0  0  0  0  0  0  0
   57.8032   29.6362   44.7337 C   0  0  0  0  0  0  0  0  0  0  0  0
  1  2  2  0
  2  3  1  0
  3  4  2  0
  4  9  1  0
  9 10  1  0
 10 11  1  0
 11 12  2  0
 11 13  1  0
 13 14  1  0
 14 15  1  0
  3  5  1  0
  5  6  2  0
  6  7  1  0
  6  8  1  0
  8 16  1  0
 16 17  1  0
 17 18  1  0
 18 19  1  0
 19 20  2  0
 20 21  1  0
 21 22  1  0
 22 23  2  0
 22 24  1  0
  8  2  1  0
 24 18  2  0
 14  9  2  0
M  CHG 1  10  -1
M  CHG 1  13  -1
M  CHG 1  15  -1
M  CHG 1  21  -1
M  END
> <UniqueID>
54

> <SMILES>
C=c1/c(=C\c2[n-]c(=O)[n-]c2[O-])cc(C)n1CCc1cc[n-]c(=O)c1

> <Energy>
105.62116087616072

> <Genealogy>
C=c1c(=Cc2[n-]c(=O)[n-]c2[O-])cc(C)n1CCc1cc[n-]c(=O)c1 (protonated)
C=c1/c(=C\c2[n-]c(=O)[n-]c2[O-])cc(C)n1CCc1cc[n-]c(=O)c1 (cis-trans isomerization)
C=c1/c(=C\c2[n-]c(=O)[n-]c2[O-])cc(C)n1CCc1cc[n-]c(=O)c1 (3D coordinates assigned)
C=c1/c(=C\c2[n-]c(=O)[n-]c2[O-])cc(C)n1CCc1cc[n-]c(=O)c1 (optimized conformer: 105.62116087616072 kcal/mol)

> <smiles>
C=c1c(=Cc2[nH]c(=O)[nH]c2O)cc(C)n1CCc1cc[nH]c(=O)c1

> <score_type>
oracle

> <origin>
adg

> <m_score__min__energy>
-16.32

> <m_primary>
energy

> <minimizedAffinity>
-6.47936

> <minimizedRMSD>
0.69811

> <CNNscore>
0.0798152909

> <CNNaffinity>
5.4839324951

> <CNN_VS>
0.4377016723

> <CNNaffinity_variance>
0.1164041683

$$$$
60:0


 35 38  0  0  0  0  0  0  0  0999 V2000
   59.8124   34.1292   47.0018 S   0  0  0  0  0  0  0  0  0  0  0  0
   58.9131   34.8007   48.0030 O   0  0  0  0  0  0  0  0  0  0  0  0
   60.1389   35.1221   45.9209 O   0  0  0  0  0  0  0  0  0  0  0  0
   61.3265   33.6142   47.8161 C   0  0  0  0  0  0  0  0  0  0  0  0
   61.1805   32.2170   48.4508 C   0  0  0  0  0  0  0  0  0  0  0  0
   62.4583   31.3562   48.3688 C   0  0  0  0  0  0  0  0  0  0  0  0
   63.7270   32.1193   48.4606 N   0  0  0  0  0  0  0  0  0  0  0  0
   63.8035   33.3404   47.6086 C   0  0  0  0  0  0  0  0  0  0  0  0
   62.5093   33.6539   46.8490 C   0  0  0  0  0  0  0  0  0  0  0  0
   64.4245   31.4932   48.0582 H   0  0  0  0  0  0  0  0  0  0  0  0
   64.1808   32.4438   50.1238 S   0  0  0  0  0  0  0  0  0  0  0  0
   65.5488   33.0704   50.1473 O   0  0  0  0  0  0  0  0  0  0  0  0
   63.2163   33.4359   50.7133 O   0  0  0  0  0  0  0  0  0  0  0  0
   64.1947   31.0018   51.1419 C   0  0  0  0  0  0  0  0  0  0  0  0
   65.4040   30.4965   51.6417 C   0  0  0  0  0  0  0  0  0  0  0  0
   65.4116   29.3533   52.4458 C   0  0  0  0  0  0  0  0  0  0  0  0
   64.2127   28.6982   52.7434 C   0  0  0  0  0  0  0  0  0  0  0  0
   63.0065   29.1813   52.2275 C   0  0  0  0  0  0  0  0  0  0  0  0
   62.9969   30.3241   51.4225 C   0  0  0  0  0  0  0  0  0  0  0  0
   57.7483   30.5244   45.0849 C   0  0  0  0  0  0  0  0  0  0  0  0
   58.3868   30.3954   46.3300 C   0  0  0  0  0  0  0  0  0  0  0  0
   59.0040   31.4991   46.9246 C   0  0  0  0  0  0  0  0  0  0  0  0
   58.9785   32.7480   46.2896 C   0  0  0  0  0  0  0  0  0  0  0  0
   58.3120   32.8890   45.0670 C   0  0  0  0  0  0  0  0  0  0  0  0
   57.6972   31.7862   44.4698 C   0  0  0  0  0  0  0  0  0  0  0  0
   57.0369   29.3034   43.1866 O   0  0  0  0  0  0  0  0  0  0  0  0
   57.1245   29.3443   44.4420 C   0  0  0  0  0  0  0  0  0  0  0  0
   56.6575   28.2174   45.2012 N   0  0  0  0  0  0  0  0  0  0  0  0
   57.3808   27.2154   45.6128 C   0  0  0  0  0  0  0  0  0  0  0  0
   58.7445   27.2728   45.5848 N   0  0  0  0  0  0  0  0  0  0  0  0
   59.5188   26.2447   46.0196 C   0  0  0  0  0  0  0  0  0  0  0  0
   58.9245   25.0874   46.5252 C   0  0  0  0  0  0  0  0  0  0  0  0
   57.5327   25.0040   46.5783 C   0  0  0  0  0  0  0  0  0  0  0  0
   56.7513   26.0706   46.1241 C   0  0  0  0  0  0  0  0  0  0  0  0
   55.3647   25.9863   46.1820 O   0  0  0  0  0  0  0  0  0  0  0  0
 26 27  2  0
 27 28  1  0
 28 29  2  0
 29 30  1  0
 30 31  1  0
 31 32  2  0
 32 33  1  0
 33 34  2  0
 34 35  1  0
 27 20  1  0
 20 21  2  0
 21 22  1  0
 22 23  2  0
 23  1  1  0
  1  2  2  0
  1  3  2  0
  4  1  1  0
  4  5  1  0
  5  6  1  0
  6  7  1  0
  7 11  1  0
 11 12  2  0
 11 13  2  0
 11 14  1  0
 14 15  2  0
 15 16  1  0
 16 17  2  0
 17 18  1  0
 18 19  2  0
  7  8  1  0
  8  9  1  0
 23 24  1  0
 24 25  2  0
 34 29  1  0
 25 20  1  0
  9  4  1  0
 19 14  1  0
  7 10  1  0
M  CHG 1   7   1
M  CHG 1  30  -1
M  CHG 1  35  -1
M  END
> <UniqueID>
56

> <SMILES>
O=C(N=c1[n-]cccc1[O-])c1ccc(S(=O)(=O)C2CC[NH+](S(=O)(=O)c3ccccc3)CC2)cc1

> <Energy>
73.76301031097648

> <Genealogy>
O=C(N=c1[n-]cccc1[O-])c1ccc(S(=O)(=O)C2CC[NH+](S(=O)(=O)c3ccccc3)CC2)cc1 (protonated)
O=C(N=c1[n-]cccc1[O-])c1ccc(S(=O)(=O)C2CC[NH+](S(=O)(=O)c3ccccc3)CC2)cc1 (3D coordinates assigned)
O=C(N=c1[n-]cccc1[O-])c1ccc(S(=O)(=O)C2CC[NH+](S(=O)(=O)c3ccccc3)CC2)cc1 (nonaromatic ring conformer: 73.76301031097648 kcal/mol)

> <smiles>
O=C(N=c1[nH]cccc1O)c1ccc(S(=O)(=O)C2CCN(S(=O)(=O)c3ccccc3)CC2)cc1

> <score_type>
oracle

> <origin>
adg

> <m_score__min__energy>
-15.17

> <m_primary>
energy

> <minimizedAffinity>
-8.03094

> <minimizedRMSD>
0.74223

> <CNNscore>
0.2459332943

> <CNNaffinity>
6.6407332420

> <CNN_VS>
1.6331773996

> <CNNaffinity_variance>
0.2751036286

$$$$
62:0


 32 35  0  0  0  0  0  0  0  0999 V2000
   58.7902   34.3978   45.3331 C   0  0  0  0  0  0  0  0  0  0  0  0
   57.5345   29.5623   43.9540 N   0  0  0  0  0  0  0  0  0  0  0  0
   57.8474   30.8217   44.0479 C   0  0  0  0  0  0  0  0  0  0  0  0
   57.8129   31.6510   42.9837 N   0  0  0  0  0  0  0  0  0  0  0  0
   58.1665   32.9206   43.3224 C   0  0  0  0  0  0  0  0  0  0  0  0
   58.5084   33.0922   44.6597 C   0  0  0  0  0  0  0  0  0  0  0  0
   58.3461   31.6177   45.4521 S   0  0  0  0  0  0  0  0  0  0  0  0
   56.8968   28.7849   44.9772 C   0  0  0  0  0  0  0  0  0  0  0  0
   55.6583   28.9215   45.1608 O   0  0  0  0  0  0  0  0  0  0  0  0
   60.4852   26.8648   47.9555 C   0  0  0  0  0  0  0  0  0  0  0  0
   59.2310   27.0327   47.1659 C   0  0  0  0  0  0  0  0  0  0  0  0
   58.9245   28.1381   46.3953 C   0  0  0  0  0  0  0  0  0  0  0  0
   57.6705   27.8968   45.8698 C   0  0  0  0  0  0  0  0  0  0  0  0
   57.2770   26.6733   46.3772 C   0  0  0  0  0  0  0  0  0  0  0  0
   56.0644   26.0503   46.1123 O   0  0  0  0  0  0  0  0  0  0  0  0
   58.2214   26.1361   47.1714 N   0  0  0  0  0  0  0  0  0  0  0  0
   59.5931   34.1573   46.5823 C   0  0  0  0  0  0  0  0  0  0  0  0
   59.0365   34.4252   47.8416 C   0  0  0  0  0  0  0  0  0  0  0  0
   59.8043   34.2749   48.9971 C   0  0  0  0  0  0  0  0  0  0  0  0
   61.1350   33.8577   48.9066 C   0  0  0  0  0  0  0  0  0  0  0  0
   61.7117   33.5823   47.6538 C   0  0  0  0  0  0  0  0  0  0  0  0
   60.9335   33.7503   46.4940 C   0  0  0  0  0  0  0  0  0  0  0  0
   63.1334   33.1635   47.5346 C   0  0  0  0  0  0  0  0  0  0  0  0
   63.8554   33.7204   46.6604 O   0  0  0  0  0  0  0  0  0  0  0  0
   63.7151   32.1856   48.4346 N   0  0  0  0  0  0  0  0  0  0  0  0
   62.6845   31.2112   48.8856 C   0  0  0  0  0  0  0  0  0  0  0  0
   62.2359   31.4617   50.3324 C   0  0  0  0  0  0  0  0  0  0  0  0
   63.3768   31.3582   51.2704 N   0  0  0  0  0  0  0  0  0  0  0  0
   63.0397   31.9925   52.5538 C   0  0  0  0  0  0  0  0  0  0  0  0
   64.6518   31.8869   50.7223 C   0  0  0  0  0  0  0  0  0  0  0  0
   64.4275   32.8564   49.5525 C   0  0  0  0  0  0  0  0  0  0  0  0
   64.2853   31.8617   49.1689 H   0  0  0  0  0  0  0  0  0  0  0  0
 10 11  1  0
 11 12  2  0
 12 13  1  0
 13  8  1  0
  8  9  2  0
  8  2  1  0
  2  3  2  0
  3  4  1  0
  4  5  1  0
  5  6  2  0
  6  1  1  0
  1 17  1  0
 17 18  2  0
 18 19  1  0
 19 20  2  0
 20 21  1  0
 21 23  1  0
 23 24  2  0
 23 25  1  0
 25 26  1  0
 26 27  1  0
 27 28  1  0
 28 29  1  0
 28 30  1  0
 30 31  1  0
 21 22  2  0
  6  7  1  0
 13 14  2  0
 14 15  1  0
 14 16  1  0
 16 11  1  0
  7  3  1  0
 22 17  1  0
 31 25  1  0
 25 32  1  0
M  CHG 1   4  -1
M  CHG 1  15  -1
M  CHG 1  16  -1
M  CHG 1  25   1
M  END
> <UniqueID>
58

> <SMILES>
Cc1cc(C(=O)N=c2[n-]cc(Cc3cccc(C(=O)[NH+]4CCN(C)CC4)c3)s2)c([O-])[n-]1

> <Energy>
132.92792868686828

> <Genealogy>
Cc1cc(C(=O)N=c2[n-]cc(Cc3cccc(C(=O)[NH+]4CCN(C)CC4)c3)s2)c([O-])[n-]1 (protonated)
Cc1cc(C(=O)N=c2[n-]cc(Cc3cccc(C(=O)[NH+]4CCN(C)CC4)c3)s2)c([O-])[n-]1 (3D coordinates assigned)
Cc1cc(C(=O)N=c2[n-]cc(Cc3cccc(C(=O)[NH+]4CCN(C)CC4)c3)s2)c([O-])[n-]1 (nonaromatic ring conformer: 132.92792868686828 kcal/mol)

> <smiles>
Cc1cc(C(=O)N=c2[nH]cc(Cc3cccc(C(=O)N4CCN(C)CC4)c3)s2)c(O)[nH]1

> <score_type>
oracle

> <origin>
adg

> <m_score__min__energy>
-16.75

> <m_primary>
energy

> <minimizedAffinity>
-6.89979

> <minimizedRMSD>
0.89612

> <CNNscore>
0.2860502005

> <CNNaffinity>
6.8403658867

> <CNN_VS>
1.9566880465

> <CNNaffinity_variance>
0.1868091226

$$$$
66:0


 26 28  0  0  0  0  0  0  0  0999 V2000
   58.7607   31.9618   46.8554 N   0  0  0  0  0  0  0  0  0  0  0  0
   57.9180   32.0577   45.8413 N   0  0  0  0  0  0  0  0  0  0  0  0
   57.9996   30.9355   45.1041 C   0  0  0  0  0  0  0  0  0  0  0  0
   57.1758   30.7377   43.8713 C   0  0  0  0  0  0  0  0  0  0  0  0
   58.9390   30.0680   45.6768 C   0  0  0  0  0  0  0  0  0  0  0  0
   59.3201   28.8393   45.2687 C   0  0  0  0  0  0  0  0  0  0  0  0
   59.4159   30.7714   46.7874 C   0  0  0  0  0  0  0  0  0  0  0  0
   60.3627   30.3548   47.6462 C   0  0  0  0  0  0  0  0  0  0  0  0
   58.7103   27.5832   45.7423 C   0  0  0  0  0  0  0  0  0  0  0  0
   57.3275   27.3706   45.6452 C   0  0  0  0  0  0  0  0  0  0  0  0
   56.5018   28.3331   45.0751 O   0  0  0  0  0  0  0  0  0  0  0  0
   56.7856   26.2123   46.1091 N   0  0  0  0  0  0  0  0  0  0  0  0
   57.5614   25.2543   46.6818 C   0  0  0  0  0  0  0  0  0  0  0  0
   57.0389   24.1877   47.1026 O   0  0  0  0  0  0  0  0  0  0  0  0
   58.9008   25.4483   46.8061 N   0  0  0  0  0  0  0  0  0  0  0  0
   59.4893   26.5900   46.3575 C   0  0  0  0  0  0  0  0  0  0  0  0
   60.7332   26.7422   46.4955 O   0  0  0  0  0  0  0  0  0  0  0  0
   58.8780   33.0272   47.8580 C   0  0  0  0  0  0  0  0  0  0  0  0
   62.8579   33.1087   49.8341 C   0  0  0  0  0  0  0  0  0  0  0  0
   63.7182   32.5994   48.9364 C   0  0  0  0  0  0  0  0  0  0  0  0
   63.4288   32.6007   47.4598 C   0  0  0  0  0  0  0  0  0  0  0  0
   62.4871   33.7430   47.0839 C   0  0  0  0  0  0  0  0  0  0  0  0
   61.3367   33.7446   47.9917 N   0  0  0  0  0  0  0  0  0  0  0  0
   60.0035   33.9562   47.4944 C   0  0  0  0  0  0  0  0  0  0  0  0
   59.7651   34.9422   46.7466 O   0  0  0  0  0  0  0  0  0  0  0  0
   61.5852   33.8219   49.4372 C   0  0  0  0  0  0  0  0  0  0  0  0
 19 20  2  0
 20 21  1  0
 21 22  1  0
 22 23  1  0
 23 24  1  0
 24 25  2  0
 24 18  1  0
 18  1  1  0
  1  2  1  0
  2  3  2  0
  3  4  1  0
  3  5  1  0
  5  6  2  0
  6  9  1  0
  9 10  2  0
 10 11  1  0
 10 12  1  0
 12 13  1  0
 13 14  2  0
 13 15  1  0
 15 16  1  0
 16 17  2  0
  5  7  1  0
  7  8  2  0
 23 26  1  0
 26 19  1  0
  7  1  1  0
 16  9  1  0
M  CHG 1  11  -1
M  CHG 1  12  -1
M  CHG 1  15  -1
M  END
> <UniqueID>
61

> <SMILES>
C=c1/c(=C/c2c([O-])[n-]c(=O)[n-]c2=O)c(C)nn1CC(=O)N1CC=CCC1

> <Energy>
89.54415065604101

> <Genealogy>
C=c1c(=Cc2c([O-])[n-]c(=O)[n-]c2=O)c(C)nn1CC(=O)N1CC=CCC1 (protonated)
C=c1/c(=C/c2c([O-])[n-]c(=O)[n-]c2=O)c(C)nn1CC(=O)N1CC=CCC1 (cis-trans isomerization)
C=c1/c(=C/c2c([O-])[n-]c(=O)[n-]c2=O)c(C)nn1CC(=O)N1CC=CCC1 (3D coordinates assigned)
C=c1/c(=C/c2c([O-])[n-]c(=O)[n-]c2=O)c(C)nn1CC(=O)N1CC=CCC1 (nonaromatic ring conformer: 89.54415065604101 kcal/mol)

> <smiles>
C=c1c(=Cc2c(O)[nH]c(=O)[nH]c2=O)c(C)nn1CC(=O)N1CC=CCC1

> <score_type>
oracle

> <origin>
adg

> <m_score__min__energy>
-16.280000000000001

> <m_primary>
energy

> <minimizedAffinity>
-8.60448

> <minimizedRMSD>
1.33592

> <CNNscore>
0.3094189465

> <CNNaffinity>
6.5369873047

> <CNN_VS>
2.0226676464

> <CNNaffinity_variance>
0.0821629837

$$$$
72:0


 26 28  0  0  0  0  0  0  0  0999 V2000
   58.4616   31.8020   45.7290 C   0  0  0  0  0  0  0  0  0  0  0  0
   57.4244   32.5127   45.6617 O   0  0  0  0  0  0  0  0  0  0  0  0
   58.6003   30.6869   44.8396 N   0  0  0  0  0  0  0  0  0  0  0  0
   57.7987   27.1474   45.7965 C   0  0  0  0  0  0  0  0  0  0  0  0
   59.0745   26.6906   46.1474 C   0  0  0  0  0  0  0  0  0  0  0  0
   60.1785   27.5413   46.0595 C   0  0  0  0  0  0  0  0  0  0  0  0
   60.0154   28.8579   45.6241 C   0  0  0  0  0  0  0  0  0  0  0  0
   58.7467   29.3311   45.2747 C   0  0  0  0  0  0  0  0  0  0  0  0
   57.6272   28.4877   45.4021 C   0  0  0  0  0  0  0  0  0  0  0  0
   56.3511   28.9993   45.1853 O   0  0  0  0  0  0  0  0  0  0  0  0
   56.6828   26.2549   45.9308 N   0  0  0  0  0  0  0  0  0  0  0  0
   57.0196   24.2720   44.3414 C   0  0  0  0  0  0  0  0  0  0  0  0
   56.7073   24.8429   45.6912 C   0  0  0  0  0  0  0  0  0  0  0  0
   56.4878   24.0565   46.6503 O   0  0  0  0  0  0  0  0  0  0  0  0
   59.4866   32.0886   46.7905 C   0  0  0  0  0  0  0  0  0  0  0  0
   60.0452   33.4421   46.5849 N   0  0  0  0  0  0  0  0  0  0  0  0
   59.4773   34.4462   47.5045 C   0  0  0  0  0  0  0  0  0  0  0  0
   59.8232   34.1461   48.9695 C   0  0  0  0  0  0  0  0  0  0  0  0
   61.2733   33.7801   49.1435 C   0  0  0  0  0  0  0  0  0  0  0  0
   61.8206   33.7461   50.4355 C   0  0  0  0  0  0  0  0  0  0  0  0
   63.1493   33.3604   50.6303 C   0  0  0  0  0  0  0  0  0  0  0  0
   63.9404   32.9979   49.5380 C   0  0  0  0  0  0  0  0  0  0  0  0
   65.2634   32.6197   49.7335 O   0  0  0  0  0  0  0  0  0  0  0  0
   63.4029   33.0156   48.2476 C   0  0  0  0  0  0  0  0  0  0  0  0
   62.0653   33.3885   48.0420 C   0  0  0  0  0  0  0  0  0  0  0  0
   61.5229   33.4565   46.6326 C   0  0  0  0  0  0  0  0  0  0  0  0
 12 13  1  0
 13 14  2  0
 13 11  1  0
 11  4  1  0
  4  5  2  0
  5  6  1  0
  6  7  2  0
  7  8  1  0
  8  3  1  0
  3  1  1  0
  1  2  2  0
  1 15  1  0
 15 16  1  0
 16 17  1  0
 17 18  1  0
 18 19  1  0
 19 20  2  0
 20 21  1  0
 21 22  2  0
 22 23  1  0
 22 24  1  0
 24 25  2  0
 25 26  1  0
  8  9  2  0
  9 10  1  0
  9  4  1  0
 26 16  1  0
 25 19  1  0
M  CHG 1   3  -1
M  CHG 1  10  -1
M  CHG 1  11  -1
M  CHG 1  23  -1
M  END
> <UniqueID>
66

> <SMILES>
CC(=O)[N-]c1cccc([N-]C(=O)CN2CCc3ccc([O-])cc3C2)c1[O-]

> <Energy>
59.82864643206368

> <Genealogy>
CC(=O)[N-]c1cccc([N-]C(=O)CN2CCc3ccc([O-])cc3C2)c1[O-] (protonated)
CC(=O)[N-]c1cccc([N-]C(=O)CN2CCc3ccc([O-])cc3C2)c1[O-] (3D coordinates assigned)
CC(=O)[N-]c1cccc([N-]C(=O)CN2CCc3ccc([O-])cc3C2)c1[O-] (nonaromatic ring conformer: 59.82864643206368 kcal/mol)

> <smiles>
CC(=O)Nc1cccc(NC(=O)CN2CCc3ccc(O)cc3C2)c1O

> <score_type>
oracle

> <origin>
adg

> <m_score__min__energy>
-16.32

> <m_primary>
energy

> <minimizedAffinity>
-7.87424

> <minimizedRMSD>
1.24450

> <CNNscore>
0.4634652436

> <CNNaffinity>
6.4697570801

> <CNN_VS>
2.9985074997

> <CNNaffinity_variance>
0.7600004673

$$$$
18:0


 34 37  0  0  0  0  0  0  0  0999 V2000
   59.5087   30.1567   46.6061 C   0  0  0  0  0  0  0  0  0  0  0  0
   58.6995   31.1146   47.2356 C   0  0  0  0  0  0  0  0  0  0  0  0
   59.2774   32.1263   48.0085 C   0  0  0  0  0  0  0  0  0  0  0  0
   60.6724   32.2003   48.1511 C   0  0  0  0  0  0  0  0  0  0  0  0
   61.4795   31.2339   47.5322 C   0  0  0  0  0  0  0  0  0  0  0  0
   60.9016   30.2221   46.7603 C   0  0  0  0  0  0  0  0  0  0  0  0
   59.9693   27.2357   46.8439 C   0  0  0  0  0  0  0  0  0  0  0  0
   59.0743   27.7653   45.9960 C   0  0  0  0  0  0  0  0  0  0  0  0
   58.3113   27.0805   45.0366 C   0  0  0  0  0  0  0  0  0  0  0  0
   58.0826   25.7646   44.8656 C   0  0  0  0  0  0  0  0  0  0  0  0
   57.7555   28.0507   44.2189 C   0  0  0  0  0  0  0  0  0  0  0  0
   58.1189   29.2732   44.7439 C   0  0  0  0  0  0  0  0  0  0  0  0
   57.7071   30.5978   44.1745 C   0  0  0  0  0  0  0  0  0  0  0  0
   58.9178   29.1050   45.8218 N   0  0  0  0  0  0  0  0  0  0  0  0
   57.3548   24.8931   45.8045 C   0  0  0  0  0  0  0  0  0  0  0  0
   57.8732   23.8026   46.3992 N   0  0  0  0  0  0  0  0  0  0  0  0
   56.9022   23.4247   47.2596 C   0  0  0  0  0  0  0  0  0  0  0  0
   57.0088   22.4147   48.0016 O   0  0  0  0  0  0  0  0  0  0  0  0
   55.8119   24.2230   47.2691 N   0  0  0  0  0  0  0  0  0  0  0  0
   56.1220   25.1540   46.3529 C   0  0  0  0  0  0  0  0  0  0  0  0
   55.2978   26.2251   46.0270 O   0  0  0  0  0  0  0  0  0  0  0  0
   61.2861   33.2638   49.0173 C   0  0  0  0  0  0  0  0  0  0  0  0
   60.3067   33.7168   50.0117 N   0  0  0  0  0  0  0  0  0  0  0  0
   59.3722   33.4354   49.7149 H   0  0  0  0  0  0  0  0  0  0  0  0
   60.5960   33.1245   51.3252 C   0  0  0  0  0  0  0  0  0  0  0  0
   59.5798   32.0646   51.6649 C   0  0  0  0  0  0  0  0  0  0  0  0
   58.3799   32.4025   51.8646 O   0  0  0  0  0  0  0  0  0  0  0  0
   59.9413   30.6681   51.7196 N   0  0  0  0  0  0  0  0  0  0  0  0
   59.0531   29.7061   52.3811 C   0  0  0  0  0  0  0  0  0  0  0  0
   59.8893   28.5748   52.9887 C   0  0  0  0  0  0  0  0  0  0  0  0
   60.7112   27.8662   51.9768 N   0  0  0  0  0  0  0  0  0  0  0  0
   61.9101   27.2855   52.6009 C   0  0  0  0  0  0  0  0  0  0  0  0
   61.0622   28.6749   50.7819 C   0  0  0  0  0  0  0  0  0  0  0  0
   61.1702   30.1777   51.0797 C   0  0  0  0  0  0  0  0  0  0  0  0
  7  8  2  0
  8  9  1  0
  9 10  2  0
 10 15  1  0
 15 16  1  0
 16 17  1  0
 17 18  2  0
 17 19  1  0
 19 20  1  0
 20 21  1  0
  9 11  1  0
 11 12  2  0
 12 13  1  0
 12 14  1  0
 14  1  1  0
  1  2  2  0
  2  3  1  0
  3  4  2  0
  4 22  1  0
 22 23  1  0
 23 25  1  0
 25 26  1  0
 26 27  2  0
 26 28  1  0
 28 29  1  0
 29 30  1  0
 30 31  1  0
 31 32  1  0
 31 33  1  0
 33 34  1  0
  4  5  1  0
  5  6  2  0
 14  8  1  0
  6  1  1  0
 20 15  2  0
 34 28  1  0
 23 24  1  0
M  CHG 1  16  -1
M  CHG 1  19  -1
M  CHG 1  21  -1
M  END
> <UniqueID>
19

> <SMILES>
C=c1c(=Cc2[n-]c(=O)[n-]c2[O-])cc(C)n1-c1ccc(CNCC(=O)N2CCN(C)CC2)cc1

> <Energy>
142.46988868820975

> <Genealogy>
C=c1c(=Cc2[n-]c(=O)[n-]c2[O-])cc(C)n1-c1ccc(CNCC(=O)N2CCN(C)CC2)cc1 (protonated)
C=c1c(=Cc2[n-]c(=O)[n-]c2[O-])cc(C)n1-c1ccc(CNCC(=O)N2CCN(C)CC2)cc1 (3D coordinates assigned)
C=c1c(=Cc2[n-]c(=O)[n-]c2[O-])cc(C)n1-c1ccc(CNCC(=O)N2CCN(C)CC2)cc1 (nonaromatic ring conformer: 142.46988868820975 kcal/mol)

> <smiles>
C=c1c(=Cc2[nH]c(=O)[nH]c2O)cc(C)n1-c1ccc(CNCC(=O)N2CCN(C)CC2)cc1

> <score_type>
oracle

> <origin>
adg

> <m_score__min__energy>
-16.059999999999999

> <m_primary>
energy

> <minimizedAffinity>
-7.83587

> <minimizedRMSD>
1.05787

> <CNNscore>
0.0561689436

> <CNNaffinity>
6.1983585358

> <CNN_VS>
0.3481552601

> <CNNaffinity_variance>
0.0918965414

$$$$
26:0


 33 36  0  0  0  0  0  0  0  0999 V2000
   59.4328   28.4917   47.2600 C   0  0  0  0  0  0  0  0  0  0  0  0
   58.7080   27.4353   47.8261 C   0  0  0  0  0  0  0  0  0  0  0  0
   58.6602   26.1845   47.1912 C   0  0  0  0  0  0  0  0  0  0  0  0
   59.3673   25.9943   45.9924 C   0  0  0  0  0  0  0  0  0  0  0  0
   60.1223   27.0360   45.4473 C   0  0  0  0  0  0  0  0  0  0  0  0
   60.1555   28.2843   46.0754 C   0  0  0  0  0  0  0  0  0  0  0  0
   60.8685   29.2956   45.5171 F   0  0  0  0  0  0  0  0  0  0  0  0
   59.0565   30.9826   47.1330 C   0  0  0  0  0  0  0  0  0  0  0  0
   58.9764   32.2226   47.7874 C   0  0  0  0  0  0  0  0  0  0  0  0
   59.2379   32.3227   49.1556 C   0  0  0  0  0  0  0  0  0  0  0  0
   59.5682   31.1819   49.8903 C   0  0  0  0  0  0  0  0  0  0  0  0
   59.6366   29.9387   49.2593 C   0  0  0  0  0  0  0  0  0  0  0  0
   59.3835   29.8265   47.8838 C   0  0  0  0  0  0  0  0  0  0  0  0
   58.7213   30.9090   45.6591 C   0  0  0  0  0  0  0  0  0  0  0  0
   57.2692   30.8778   45.4699 N   0  0  0  0  0  0  0  0  0  0  0  0
   56.8115   30.7555   46.3732 H   0  0  0  0  0  0  0  0  0  0  0  0
   56.4452   28.1572   45.3568 N   0  0  0  0  0  0  0  0  0  0  0  0
   56.8480   29.5561   44.4242 S   0  0  0  0  0  0  0  0  0  0  0  0
   58.0172   29.2339   43.5372 O   0  0  0  0  0  0  0  0  0  0  0  0
   55.6724   29.9412   43.5689 O   0  0  0  0  0  0  0  0  0  0  0  0
   56.2003   27.3901   44.7307 H   0  0  0  0  0  0  0  0  0  0  0  0
   57.7907   25.0861   47.7429 C   0  0  0  0  0  0  0  0  0  0  0  0
   56.8275   24.6061   46.6848 C   0  0  0  0  0  0  0  0  0  0  0  0
   55.6658   25.3018   46.5455 N   0  0  0  0  0  0  0  0  0  0  0  0
   54.7138   24.9338   45.6894 N   0  0  0  0  0  0  0  0  0  0  0  0
   54.8463   23.8355   44.9071 C   0  0  0  0  0  0  0  0  0  0  0  0
   53.9138   23.5184   44.1229 O   0  0  0  0  0  0  0  0  0  0  0  0
   56.0172   23.0698   44.9873 C   0  0  0  0  0  0  0  0  0  0  0  0
   57.0278   23.4484   45.8901 C   0  0  0  0  0  0  0  0  0  0  0  0
   58.2336   22.5352   45.9876 C   0  0  0  0  0  0  0  0  0  0  0  0
   58.7446   22.1346   44.5930 C   0  0  0  0  0  0  0  0  0  0  0  0
   57.6310   21.7864   43.5736 C   0  0  0  0  0  0  0  0  0  0  0  0
   56.2142   21.8195   44.1643 C   0  0  0  0  0  0  0  0  0  0  0  0
 17 18  1  0
 18 19  2  0
 18 20  2  0
 18 15  1  0
 15 14  1  0
 14  8  1  0
  8  9  2  0
  9 10  1  0
 10 11  2  0
 11 12  1  0
 12 13  2  0
 13  1  1  0
  1  2  2  0
  2  3  1  0
  3 22  1  0
 22 23  1  0
 23 24  2  0
 24 25  1  0
 25 26  1  0
 26 27  2  0
 26 28  1  0
 28 29  2  0
 29 30  1  0
 30 31  1  0
 31 32  1  0
 32 33  1  0
  3  4  2  0
  4  5  1  0
  5  6  2  0
  6  7  1  0
 13  8  1  0
  6  1  1  0
 29 23  1  0
 33 28  1  0
 17 21  1  0
 15 16  1  0
M  CHG 1  17  -1
M  CHG 1  25  -1
M  END
> <UniqueID>
27

> <SMILES>
[NH-]S(=O)(=O)NCc1ccccc1-c1cc(Cc2n[n-]c(=O)c3c2CCCC3)ccc1F

> <Energy>
64.16772108267402

> <Genealogy>
[NH-]S(=O)(=O)NCc1ccccc1-c1cc(Cc2n[n-]c(=O)c3c2CCCC3)ccc1F (protonated)
[NH-]S(=O)(=O)NCc1ccccc1-c1cc(Cc2n[n-]c(=O)c3c2CCCC3)ccc1F (3D coordinates assigned)
[NH-]S(=O)(=O)NCc1ccccc1-c1cc(Cc2n[n-]c(=O)c3c2CCCC3)ccc1F (nonaromatic ring conformer: 64.16772108267402 kcal/mol)

> <smiles>
NS(=O)(=O)NCc1ccccc1-c1cc(Cc2n[nH]c(=O)c3c2CCCC3)ccc1F

> <score_type>
oracle

> <origin>
adg

> <m_score__min__energy>
-15.35

> <m_primary>
energy

> <minimizedAffinity>
-6.99456

> <minimizedRMSD>
1.30873

> <CNNscore>
0.5592291355

> <CNNaffinity>
6.9390149117

> <CNN_VS>
3.8804993629

> <CNNaffinity_variance>
0.0003726241

$$$$
33:0


 38 41  0  0  0  0  0  0  0  0999 V2000
   59.1661   30.6621   47.0487 C   0  0  0  0  0  0  0  0  0  0  0  0
   58.9678   30.3886   48.4093 C   0  0  0  0  0  0  0  0  0  0  0  0
   59.0331   31.3836   49.3478 N   0  0  0  0  0  0  0  0  0  0  0  0
   59.2897   32.6737   48.9386 C   0  0  0  0  0  0  0  0  0  0  0  0
   59.3363   33.6215   49.7681 O   0  0  0  0  0  0  0  0  0  0  0  0
   59.4976   32.9492   47.6261 N   0  0  0  0  0  0  0  0  0  0  0  0
   59.4491   31.9815   46.6798 C   0  0  0  0  0  0  0  0  0  0  0  0
   59.6749   32.2798   45.4767 O   0  0  0  0  0  0  0  0  0  0  0  0
   58.8384   31.0314   50.7761 C   0  0  0  0  0  0  0  0  0  0  0  0
   59.6938   31.9176   51.7129 C   0  0  0  0  0  0  0  0  0  0  0  0
   60.3287   31.1148   52.8624 C   0  0  0  0  0  0  0  0  0  0  0  0
   59.3886   30.1412   53.4751 N   0  0  0  0  0  0  0  0  0  0  0  0
   58.8290   29.1624   52.4908 C   0  0  0  0  0  0  0  0  0  0  0  0
   59.0750   29.5290   51.0148 C   0  0  0  0  0  0  0  0  0  0  0  0
   59.9545   29.6093   54.1362 H   0  0  0  0  0  0  0  0  0  0  0  0
   58.2996   30.8007   54.2450 C   0  0  0  0  0  0  0  0  0  0  0  0
   56.9205   30.4355   53.7408 C   0  0  0  0  0  0  0  0  0  0  0  0
   56.3280   31.1722   52.7037 C   0  0  0  0  0  0  0  0  0  0  0  0
   55.0638   30.8238   52.2214 C   0  0  0  0  0  0  0  0  0  0  0  0
   54.3702   29.7394   52.7746 C   0  0  0  0  0  0  0  0  0  0  0  0
   54.9481   29.0177   53.8305 C   0  0  0  0  0  0  0  0  0  0  0  0
   56.2166   29.3606   54.3064 C   0  0  0  0  0  0  0  0  0  0  0  0
   53.0007   29.3781   52.2661 C   0  0  0  0  0  0  0  0  0  0  0  0
   52.1177   30.5830   52.2551 C   0  0  0  0  0  0  0  0  0  0  0  0
   51.6770   31.1311   51.0143 N   0  0  0  0  0  0  0  0  0  0  0  0
   51.7833   31.1324   53.3399 O   0  0  0  0  0  0  0  0  0  0  0  0
   51.9374   30.7030   50.1668 H   0  0  0  0  0  0  0  0  0  0  0  0
   60.3116   29.1205   45.4243 C   0  0  0  0  0  0  0  0  0  0  0  0
   59.0871   29.6081   46.0680 N   0  0  0  0  0  0  0  0  0  0  0  0
   57.8412   28.9261   45.8282 C   0  0  0  0  0  0  0  0  0  0  0  0
   56.9706   29.4572   45.0847 O   0  0  0  0  0  0  0  0  0  0  0  0
   57.5552   27.6948   46.5164 N   0  0  0  0  0  0  0  0  0  0  0  0
   57.2220   26.5403   46.0093 C   0  0  0  0  0  0  0  0  0  0  0  0
   58.0481   25.8273   45.1076 C   0  0  0  0  0  0  0  0  0  0  0  0
   57.6197   24.5914   44.6143 C   0  0  0  0  0  0  0  0  0  0  0  0
   56.3937   24.0667   45.0232 C   0  0  0  0  0  0  0  0  0  0  0  0
   55.6093   24.7842   45.9295 C   0  0  0  0  0  0  0  0  0  0  0  0
   56.0382   25.9861   46.3991 N   0  0  0  0  0  0  0  0  0  0  0  0
 28 29  1  0
 29 30  1  0
 30 31  2  0
 30 32  1  0
 32 33  2  0
 33 34  1  0
 34 35  2  0
 35 36  1  0
 36 37  2  0
 37 38  1  0
 29  1  1  0
  1  2  2  0
  2  3  1  0
  9  3  1  0
  9 10  1  0
 10 11  1  0
 11 12  1  0
 12 16  1  0
 16 17  1  0
 17 18  2  0
 18 19  1  0
 19 20  2  0
 20 23  1  0
 23 24  1  0
 24 25  1  0
 24 26  2  0
 20 21  1  0
 21 22  2  0
 12 13  1  0
 13 14  1  0
  3  4  1  0
  4  5  2  0
  4  6  1  0
  6  7  1  0
  7  8  2  0
 38 33  1  0
  7  1  1  0
 14  9  1  0
 22 17  1  0
 12 15  1  0
 25 27  1  0
M  CHG 1   6  -1
M  CHG 1  12   1
M  CHG 1  25  -1
M  CHG 1  38  -1
M  END
> <UniqueID>
34

> <SMILES>
CN(C(=O)N=c1cccc[n-]1)c1cn(C2CC[NH+](Cc3ccc(CC([NH-])=O)cc3)CC2)c(=O)[n-]c1=O

> <Energy>
94.7093526303396

> <Genealogy>
CN(C(=O)N=c1cccc[n-]1)c1cn(C2CC[NH+](Cc3ccc(CC([NH-])=O)cc3)CC2)c(=O)[n-]c1=O (protonated)
CN(C(=O)N=c1cccc[n-]1)c1cn(C2CC[NH+](Cc3ccc(CC([NH-])=O)cc3)CC2)c(=O)[n-]c1=O (3D coordinates assigned)
CN(C(=O)N=c1cccc[n-]1)c1cn(C2CC[NH+](Cc3ccc(CC([NH-])=O)cc3)CC2)c(=O)[n-]c1=O (nonaromatic ring conformer: 94.7093526303396 kcal/mol)

> <smiles>
CN(C(=O)N=c1cccc[nH]1)c1cn(C2CCN(Cc3ccc(CC(N)=O)cc3)CC2)c(=O)[nH]c1=O

> <score_type>
oracle

> <origin>
adg

> <m_score__min__energy>
-14.119999999999999

> <m_primary>
energy

> <minimizedAffinity>
-7.19582

> <minimizedRMSD>
0.94107

> <CNNscore>
0.2045148462

> <CNNaffinity>
6.5823578835

> <CNN_VS>
1.3461898565

> <CNNaffinity_variance>
0.2658320963

$$$$
35:0


 27 30  0  0  0  0  0  0  0  0999 V2000
   59.6213   26.8046   47.7633 C   0  0  0  0  0  0  0  0  0  0  0  0
   58.8714   27.7068   47.1117 C   0  0  0  0  0  0  0  0  0  0  0  0
   58.3212   27.5947   45.8286 C   0  0  0  0  0  0  0  0  0  0  0  0
   58.2160   26.5394   44.9945 C   0  0  0  0  0  0  0  0  0  0  0  0
   57.8485   28.8745   45.5531 C   0  0  0  0  0  0  0  0  0  0  0  0
   57.1597   29.3305   44.3050 C   0  0  0  0  0  0  0  0  0  0  0  0
   58.0461   29.6767   46.6142 N   0  0  0  0  0  0  0  0  0  0  0  0
   58.6508   28.9703   47.5576 N   0  0  0  0  0  0  0  0  0  0  0  0
   57.6006   25.2455   45.3315 C   0  0  0  0  0  0  0  0  0  0  0  0
   58.2606   24.0730   45.3578 N   0  0  0  0  0  0  0  0  0  0  0  0
   57.3451   23.2099   45.8449 C   0  0  0  0  0  0  0  0  0  0  0  0
   57.5862   21.9851   46.0074 O   0  0  0  0  0  0  0  0  0  0  0  0
   56.1544   23.7632   46.1569 N   0  0  0  0  0  0  0  0  0  0  0  0
   56.3346   25.0544   45.8379 C   0  0  0  0  0  0  0  0  0  0  0  0
   55.3579   26.0308   46.0111 O   0  0  0  0  0  0  0  0  0  0  0  0
   54.5220   25.7996   46.3658 H   0  0  0  0  0  0  0  0  0  0  0  0
   59.0922   29.5733   48.8169 C   0  0  0  0  0  0  0  0  0  0  0  0
   60.2169   30.5295   48.5684 C   0  0  0  0  0  0  0  0  0  0  0  0
   60.2805   31.6475   47.2987 S   0  0  0  0  0  0  0  0  0  0  0  0
   61.7573   32.3090   47.7523 C   0  0  0  0  0  0  0  0  0  0  0  0
   62.4688   33.3357   47.1348 C   0  0  0  0  0  0  0  0  0  0  0  0
   63.6915   33.7273   47.7018 C   0  0  0  0  0  0  0  0  0  0  0  0
   64.1738   33.0931   48.8634 C   0  0  0  0  0  0  0  0  0  0  0  0
   63.4385   32.0589   49.4690 C   0  0  0  0  0  0  0  0  0  0  0  0
   62.2214   31.6752   48.8968 C   0  0  0  0  0  0  0  0  0  0  0  0
   61.3581   30.6768   49.3593 C   0  0  0  0  0  0  0  0  0  0  0  0
   61.6100   29.9089   50.4895 O   0  0  0  0  0  0  0  0  0  0  0  0
  1  2  2  0
  2  3  1  0
  3  4  2  0
  4  9  1  0
  9 10  1  0
 10 11  1  0
 11 12  2  0
 11 13  1  0
 13 14  1  0
 14 15  1  0
  3  5  1  0
  5  6  1  0
  5  7  2  0
  7  8  1  0
  8 17  1  0
 17 18  1  0
 18 19  1  0
 19 20  1  0
 20 21  2  0
 21 22  1  0
 22 23  2  0
 23 24  1  0
 24 25  2  0
 25 26  1  0
 26 27  1  0
  8  2  1  0
 26 18  2  0
 14  9  2  0
 25 20  1  0
 15 16  1  0
M  CHG 1  10  -1
M  CHG 1  13  -1
M  CHG 1  27  -1
M  END
> <UniqueID>
36

> <SMILES>
C=c1c(=Cc2[n-]c(=O)[n-]c2O)c(C)nn1Cc1sc2ccccc2c1[O-]

> <Energy>
144.49019919164007

> <Genealogy>
C=c1c(=Cc2[n-]c(=O)[n-]c2O)c(C)nn1Cc1sc2ccccc2c1[O-] (protonated)
C=c1c(=Cc2[n-]c(=O)[n-]c2O)c(C)nn1Cc1sc2ccccc2c1[O-] (3D coordinates assigned)
C=c1c(=Cc2[n-]c(=O)[n-]c2O)c(C)nn1Cc1sc2ccccc2c1[O-] (optimized conformer: 144.49019919164007 kcal/mol)

> <smiles>
C=c1c(=Cc2[nH]c(=O)[nH]c2O)c(C)nn1Cc1sc2ccccc2c1O

> <score_type>
oracle

> <origin>
adg

> <m_score__min__energy>
-14.93

> <m_primary>
energy

> <minimizedAffinity>
-8.75738

> <minimizedRMSD>
1.45030

> <CNNscore>
0.1779744923

> <CNNaffinity>
6.2089767456

> <CNN_VS>
1.1050394773

> <CNNaffinity_variance>
0.0199827924

$$$$
37:0


 25 27  0  0  0  0  0  0  0  0999 V2000
   58.9196   27.3520   47.6713 C   0  0  0  0  0  0  0  0  0  0  0  0
   58.6589   27.5968   46.3784 C   0  0  0  0  0  0  0  0  0  0  0  0
   58.4102   26.6640   45.3541 C   0  0  0  0  0  0  0  0  0  0  0  0
   58.2439   25.3246   45.3905 C   0  0  0  0  0  0  0  0  0  0  0  0
   58.3433   27.4367   44.1978 C   0  0  0  0  0  0  0  0  0  0  0  0
   58.0946   26.9529   42.8015 C   0  0  0  0  0  0  0  0  0  0  0  0
   58.4999   28.7327   44.5181 N   0  0  0  0  0  0  0  0  0  0  0  0
   58.6883   28.8373   45.8244 N   0  0  0  0  0  0  0  0  0  0  0  0
   58.4780   29.4843   43.8826 H   0  0  0  0  0  0  0  0  0  0  0  0
   56.9491   24.6212   45.3327 C   0  0  0  0  0  0  0  0  0  0  0  0
   55.7914   25.2253   45.8390 C   0  0  0  0  0  0  0  0  0  0  0  0
   55.8350   26.5162   46.3551 O   0  0  0  0  0  0  0  0  0  0  0  0
   54.6111   24.5536   45.8197 N   0  0  0  0  0  0  0  0  0  0  0  0
   54.5327   23.2892   45.3303 C   0  0  0  0  0  0  0  0  0  0  0  0
   53.4282   22.6864   45.3186 O   0  0  0  0  0  0  0  0  0  0  0  0
   55.6467   22.6717   44.8579 N   0  0  0  0  0  0  0  0  0  0  0  0
   56.8494   23.3015   44.8562 C   0  0  0  0  0  0  0  0  0  0  0  0
   57.8672   22.6917   44.4296 O   0  0  0  0  0  0  0  0  0  0  0  0
   58.9598   30.1158   46.4902 C   0  0  0  0  0  0  0  0  0  0  0  0
   58.5112   31.2636   45.6329 C   0  0  0  0  0  0  0  0  0  0  0  0
   58.1337   31.1314   44.3492 N   0  0  0  0  0  0  0  0  0  0  0  0
   57.7803   32.3811   43.9815 C   0  0  0  0  0  0  0  0  0  0  0  0
   57.9097   33.2944   44.9670 N   0  0  0  0  0  0  0  0  0  0  0  0
   58.3811   32.5838   46.0061 C   0  0  0  0  0  0  0  0  0  0  0  0
   58.6360   33.1674   47.3592 C   0  0  0  0  0  0  0  0  0  0  0  0
  1  2  2  0
  2  3  1  0
  3  4  2  0
  4 10  1  0
 10 11  2  0
 11 12  1  0
 11 13  1  0
 13 14  1  0
 14 15  2  0
 14 16  1  0
 16 17  1  0
 17 18  2  0
  3  5  1  0
  5  6  1  0
  5  7  2  0
  7  8  1  0
  8 19  1  0
 19 20  1  0
 20 21  1  0
 21 22  2  0
 22 23  1  0
 23 24  1  0
 24 25  1  0
  8  2  1  0
 24 20  2  0
 17 10  1  0
  7  9  1  0
M  CHG 1   7   1
M  CHG 1  12  -1
M  CHG 1  13  -1
M  CHG 1  16  -1
M  CHG 1  23  -1
M  END
> <UniqueID>
38

> <SMILES>
C=c1c(=Cc2c([O-])[n-]c(=O)[n-]c2=O)c(C)[nH+]n1Cc1nc[n-]c1C

> <Energy>
110.70500388638986

> <Genealogy>
C=c1c(=Cc2c([O-])[n-]c(=O)[n-]c2=O)c(C)[nH+]n1Cc1nc[n-]c1C (protonated)
C=c1c(=Cc2c([O-])[n-]c(=O)[n-]c2=O)c(C)[nH+]n1Cc1nc[n-]c1C (3D coordinates assigned)
C=c1c(=Cc2c([O-])[n-]c(=O)[n-]c2=O)c(C)[nH+]n1Cc1nc[n-]c1C (optimized conformer: 110.70500388638986 kcal/mol)

> <smiles>
C=c1c(=Cc2c(O)[nH]c(=O)[nH]c2=O)c(C)nn1Cc1nc[nH]c1C

> <score_type>
oracle

> <origin>
adg

> <m_score__min__energy>
-14.220000000000001

> <m_primary>
energy

> <minimizedAffinity>
-7.68857

> <minimizedRMSD>
0.83114

> <CNNscore>
0.0940620899

> <CNNaffinity>
5.9310741425

> <CNN_VS>
0.5578892231

> <CNNaffinity_variance>
0.1175063252

$$$$
40:0


 30 33  0  0  0  0  0  0  0  0999 V2000
   59.9372   28.3827   46.9860 C   0  0  0  0  0  0  0  0  0  0  0  0
   60.4383   27.2275   47.4653 N   0  0  0  0  0  0  0  0  0  0  0  0
   59.8181   26.2459   46.8248 N   0  0  0  0  0  0  0  0  0  0  0  0
   58.9591   26.8172   45.9576 C   0  0  0  0  0  0  0  0  0  0  0  0
   59.0097   28.1621   46.0367 N   0  0  0  0  0  0  0  0  0  0  0  0
   58.2815   29.1291   45.2694 C   0  0  0  0  0  0  0  0  0  0  0  0
   58.9556   30.1995   44.6637 C   0  0  0  0  0  0  0  0  0  0  0  0
   58.2488   31.1317   43.8982 C   0  0  0  0  0  0  0  0  0  0  0  0
   56.8663   30.9965   43.7305 C   0  0  0  0  0  0  0  0  0  0  0  0
   56.1917   29.9264   44.3251 C   0  0  0  0  0  0  0  0  0  0  0  0
   56.8974   28.9930   45.0924 C   0  0  0  0  0  0  0  0  0  0  0  0
   60.4926   30.0043   47.5166 S   0  0  0  0  0  0  0  0  0  0  0  0
   59.1172   30.2623   48.6863 C   0  0  0  0  0  0  0  0  0  0  0  0
   58.8866   32.1132   50.1661 O   0  0  0  0  0  0  0  0  0  0  0  0
   58.9906   31.7272   48.9709 C   0  0  0  0  0  0  0  0  0  0  0  0
   59.1117   32.7308   47.8955 C   0  0  0  0  0  0  0  0  0  0  0  0
   58.0334   32.9272   47.0159 C   0  0  0  0  0  0  0  0  0  0  0  0
   58.1123   33.8882   46.0038 C   0  0  0  0  0  0  0  0  0  0  0  0
   59.2701   34.6544   45.8552 C   0  0  0  0  0  0  0  0  0  0  0  0
   60.3537   34.4560   46.7126 C   0  0  0  0  0  0  0  0  0  0  0  0
   60.2857   33.4923   47.7248 C   0  0  0  0  0  0  0  0  0  0  0  0
   61.3933   33.2869   48.5406 O   0  0  0  0  0  0  0  0  0  0  0  0
   58.0392   26.0364   45.0657 C   0  0  0  0  0  0  0  0  0  0  0  0
   57.3391   24.9632   45.8418 C   0  0  0  0  0  0  0  0  0  0  0  0
   57.8939   23.7802   46.1612 N   0  0  0  0  0  0  0  0  0  0  0  0
   56.8911   23.1277   46.7896 C   0  0  0  0  0  0  0  0  0  0  0  0
   57.0216   21.9627   47.2464 O   0  0  0  0  0  0  0  0  0  0  0  0
   55.7355   23.8209   46.8876 N   0  0  0  0  0  0  0  0  0  0  0  0
   56.0363   24.9797   46.2787 C   0  0  0  0  0  0  0  0  0  0  0  0
   55.1373   26.0250   46.1169 O   0  0  0  0  0  0  0  0  0  0  0  0
 14 15  2  0
 15 13  1  0
 13 12  1  0
 12  1  1  0
  1  2  2  0
  2  3  1  0
  3  4  2  0
  4 23  1  0
 23 24  1  0
 24 25  1  0
 25 26  1  0
 26 27  2  0
 26 28  1  0
 28 29  1  0
 29 30  1  0
  4  5  1  0
  5  6  1  0
  6  7  2  0
  7  8  1  0
  8  9  2  0
  9 10  1  0
 10 11  2  0
 15 16  1  0
 16 17  2  0
 17 18  1  0
 18 19  2  0
 19 20  1  0
 20 21  2  0
 21 22  1  0
  5  1  1  0
 11  6  1  0
 21 16  1  0
 29 24  2  0
M  CHG 1  22  -1
M  CHG 1  25  -1
M  CHG 1  28  -1
M  CHG 1  30  -1
M  END
> <UniqueID>
41

> <SMILES>
O=C(CSc1nnc(Cc2[n-]c(=O)[n-]c2[O-])n1-c1ccccc1)c1ccccc1[O-]

> <Energy>
114.52812871912161

> <Genealogy>
O=C(CSc1nnc(Cc2[n-]c(=O)[n-]c2[O-])n1-c1ccccc1)c1ccccc1[O-] (protonated)
O=C(CSc1nnc(Cc2[n-]c(=O)[n-]c2[O-])n1-c1ccccc1)c1ccccc1[O-] (3D coordinates assigned)
O=C(CSc1nnc(Cc2[n-]c(=O)[n-]c2[O-])n1-c1ccccc1)c1ccccc1[O-] (optimized conformer: 114.52812871912161 kcal/mol)

> <smiles>
O=C(CSc1nnc(Cc2[nH]c(=O)[nH]c2O)n1-c1ccccc1)c1ccccc1O

> <score_type>
oracle

> <origin>
adg

> <m_score__min__energy>
-16.789999999999999

> <m_primary>
energy

> <minimizedAffinity>
-7.92913

> <minimizedRMSD>
0.73305

> <CNNscore>
0.1955364496

> <CNNaffinity>
6.1299176216

> <CNN_VS>
1.1986223459

> <CNNaffinity_variance>
0.3521482646

$$$$
41:0


 23 24  0  0  0  0  0  0  0  0999 V2000
   60.2146   28.0430   46.7497 C   0  0  0  0  0  0  0  0  0  0  0  0
   59.3595   29.0759   46.5723 C   0  0  0  0  0  0  0  0  0  0  0  0
   58.1464   28.8618   45.8589 C   0  0  0  0  0  0  0  0  0  0  0  0
   57.6175   27.4681   45.5819 C   0  0  0  0  0  0  0  0  0  0  0  0
   57.4527   29.9616   45.3325 C   0  0  0  0  0  0  0  0  0  0  0  0
   56.2969   29.7753   44.5779 O   0  0  0  0  0  0  0  0  0  0  0  0
   57.9189   31.2582   45.5289 C   0  0  0  0  0  0  0  0  0  0  0  0
   57.2227   32.3105   44.9396 O   0  0  0  0  0  0  0  0  0  0  0  0
   59.0543   31.5034   46.3235 C   0  0  0  0  0  0  0  0  0  0  0  0
   59.4899   32.9417   46.5329 C   0  0  0  0  0  0  0  0  0  0  0  0
   59.7113   30.4116   46.9708 C   0  0  0  0  0  0  0  0  0  0  0  0
   60.6020   30.6731   47.9740 C   0  0  0  0  0  0  0  0  0  0  0  0
   60.2424   31.2218   49.2594 N   0  0  0  0  0  0  0  0  0  0  0  0
   59.3195   30.5601   50.0269 C   0  0  0  0  0  0  0  0  0  0  0  0
   58.7099   29.4082   49.5336 O   0  0  0  0  0  0  0  0  0  0  0  0
   58.9773   31.0495   51.3023 C   0  0  0  0  0  0  0  0  0  0  0  0
   59.6221   32.2016   51.7585 C   0  0  0  0  0  0  0  0  0  0  0  0
   59.3443   32.6835   52.8887 O   0  0  0  0  0  0  0  0  0  0  0  0
   60.5576   32.8064   50.9884 N   0  0  0  0  0  0  0  0  0  0  0  0
   60.8829   32.3271   49.7608 C   0  0  0  0  0  0  0  0  0  0  0  0
   61.7870   32.9056   49.0993 O   0  0  0  0  0  0  0  0  0  0  0  0
   58.0009   30.4123   52.1395 N   0  0  0  0  0  0  0  0  0  0  0  0
   56.7833   30.3996   51.8675 O   0  0  0  0  0  0  0  0  0  0  0  0
  1  2  2  0
  2  3  1  0
  3  4  1  0
  3  5  2  0
  5  6  1  0
  5  7  1  0
  7  8  1  0
  7  9  2  0
  9 10  1  0
  9 11  1  0
 11 12  2  0
 12 13  1  0
 13 14  1  0
 14 15  1  0
 14 16  2  0
 16 22  1  0
 22 23  2  0
 16 17  1  0
 17 18  2  0
 17 19  1  0
 19 20  1  0
 20 21  2  0
 11  2  1  0
 20 13  1  0
M  CHG 1   6  -1
M  CHG 1   8  -1
M  CHG 1  15  -1
M  CHG 1  19  -1
M  END
> <UniqueID>
42

> <SMILES>
C=c1c(C)c([O-])c([O-])c(C)c1=Cn1c([O-])c(N=O)c(=O)[n-]c1=O

> <Energy>
70.96209413176484

> <Genealogy>
C=c1c(C)c([O-])c([O-])c(C)c1=Cn1c([O-])c(N=O)c(=O)[n-]c1=O (protonated)
C=c1c(C)c([O-])c([O-])c(C)c1=Cn1c([O-])c(N=O)c(=O)[n-]c1=O (3D coordinates assigned)
C=c1c(C)c([O-])c([O-])c(C)c1=Cn1c([O-])c(N=O)c(=O)[n-]c1=O (optimized conformer: 70.96209413176484 kcal/mol)

> <smiles>
C=c1c(C)c(O)c(O)c(C)c1=Cn1c(O)c(N=O)c(=O)[nH]c1=O

> <score_type>
oracle

> <origin>
adg

> <m_score__min__energy>
-16.460000000000001

> <m_primary>
energy

> <minimizedAffinity>
-7.19607

> <minimizedRMSD>
2.48685

> <CNNscore>
0.5606864095

> <CNNaffinity>
6.1796646118

> <CNN_VS>
3.4648540020

> <CNNaffinity_variance>
0.3751720488

$$$$
42:0


 26 28  0  0  0  0  0  0  0  0999 V2000
   59.8570   29.6820   48.0403 H   0  0  0  0  0  0  0  0  0  0  0  0
   59.1032   29.7603   47.3252 N   0  0  0  0  0  0  0  0  0  0  0  0
   59.0790   30.6885   46.4173 C   0  0  0  0  0  0  0  0  0  0  0  0
   58.3935   30.4584   45.1221 C   0  0  0  0  0  0  0  0  0  0  0  0
   58.1164   29.1995   44.7122 C   0  0  0  0  0  0  0  0  0  0  0  0
   58.0609   31.6889   44.3393 C   0  0  0  0  0  0  0  0  0  0  0  0
   57.5820   31.6189   43.1783 O   0  0  0  0  0  0  0  0  0  0  0  0
   58.3177   32.9856   44.8997 N   0  0  0  0  0  0  0  0  0  0  0  0
   58.9610   33.1318   46.0170 C   0  0  0  0  0  0  0  0  0  0  0  0
   59.3713   34.7211   46.7088 S   0  0  0  0  0  0  0  0  0  0  0  0
   60.5086   33.8209   47.7794 C   0  0  0  0  0  0  0  0  0  0  0  0
   60.4725   32.4927   47.6647 C   0  0  0  0  0  0  0  0  0  0  0  0
   59.5177   32.0269   46.7081 N   0  0  0  0  0  0  0  0  0  0  0  0
   58.5609   27.9692   45.3950 C   0  0  0  0  0  0  0  0  0  0  0  0
   59.9321   27.7533   45.5902 C   0  0  0  0  0  0  0  0  0  0  0  0
   60.3762   26.6113   46.2645 C   0  0  0  0  0  0  0  0  0  0  0  0
   59.4530   25.6892   46.7638 C   0  0  0  0  0  0  0  0  0  0  0  0
   58.0824   25.9111   46.5997 C   0  0  0  0  0  0  0  0  0  0  0  0
   57.1690   24.9957   47.1124 O   0  0  0  0  0  0  0  0  0  0  0  0
   57.6307   27.0531   45.9251 C   0  0  0  0  0  0  0  0  0  0  0  0
   56.2641   27.2782   45.7912 O   0  0  0  0  0  0  0  0  0  0  0  0
   61.5064   31.6415   48.2842 C   0  0  0  0  0  0  0  0  0  0  0  0
   62.7052   31.7216   47.9004 O   0  0  0  0  0  0  0  0  0  0  0  0
   61.1585   30.7858   49.3345 O   0  0  0  0  0  0  0  0  0  0  0  0
   61.9704   30.6194   50.4919 C   0  0  0  0  0  0  0  0  0  0  0  0
   61.6829   29.2690   51.1267 C   0  0  0  0  0  0  0  0  0  0  0  0
  1  2  1  0
  2  3  2  0
  3  4  1  0
  4  5  2  0
  5 14  1  0
 14 15  2  0
 15 16  1  0
 16 17  2  0
 17 18  1  0
 18 19  1  0
 18 20  2  0
 20 21  1  0
  4  6  1  0
  6  7  2  0
  6  8  1  0
  8  9  2  0
  9 10  1  0
 10 11  1  0
 11 12  2  0
 12 22  1  0
 22 23  2  0
 22 24  1  0
 24 25  1  0
 25 26  1  0
 12 13  1  0
 13  3  1  0
 20 14  1  0
 13  9  1  0
M  CHG 1  19  -1
M  CHG 1  21  -1
M  END
> <UniqueID>
43

> <SMILES>
[H]/N=C1/C(=Cc2cccc([O-])c2[O-])C(=O)N=C2SC=C(C(=O)OCC)N21

> <Energy>
72.30774421948244

> <Genealogy>
CCOC(=O)C1=CSC2=NC(=O)C(=Cc3cccc([O-])c3[O-])C(=N)N12 (protonated)
[H]/N=C1/C(=Cc2cccc([O-])c2[O-])C(=O)N=C2SC=C(C(=O)OCC)N21 (cis-trans isomerization)
[H]/N=C1/C(=Cc2cccc([O-])c2[O-])C(=O)N=C2SC=C(C(=O)OCC)N21 (3D coordinates assigned)
[H]/N=C1/C(=Cc2cccc([O-])c2[O-])C(=O)N=C2SC=C(C(=O)OCC)N21 (nonaromatic ring conformer: 72.30774421948244 kcal/mol)

> <smiles>
CCOC(=O)C1=CSC2=NC(=O)C(=Cc3cccc(O)c3O)C(=N)N12

> <score_type>
oracle

> <origin>
adg

> <m_score__min__energy>
-15.289999999999999

> <m_primary>
energy

> <minimizedAffinity>
-7.28433

> <minimizedRMSD>
1.84764

> <CNNscore>
0.5537088513

> <CNNaffinity>
6.0043053627

> <CNN_VS>
3.3246369362

> <CNNaffinity_variance>
0.1287309378

$$$$
43:0


 34 37  0  0  0  0  0  0  0  0999 V2000
   57.2888   29.7986   52.5540 N   0  0  0  0  0  0  0  0  0  0  0  0
   58.0262   30.2034   51.5622 C   0  0  0  0  0  0  0  0  0  0  0  0
   58.1695   31.5267   51.2804 N   0  0  0  0  0  0  0  0  0  0  0  0
   58.9625   31.9308   50.2585 C   0  0  0  0  0  0  0  0  0  0  0  0
   59.0769   33.2003   50.0010 N   0  0  0  0  0  0  0  0  0  0  0  0
   59.6230   31.0041   49.5144 N   0  0  0  0  0  0  0  0  0  0  0  0
   59.4909   29.6795   49.7925 C   0  0  0  0  0  0  0  0  0  0  0  0
   60.1109   28.7839   49.0837 N   0  0  0  0  0  0  0  0  0  0  0  0
   58.6968   29.2860   50.8193 N   0  0  0  0  0  0  0  0  0  0  0  0
   53.1487   30.6225   53.0544 C   0  0  0  0  0  0  0  0  0  0  0  0
   53.7891   30.8722   51.8335 C   0  0  0  0  0  0  0  0  0  0  0  0
   55.1514   30.5938   51.6834 C   0  0  0  0  0  0  0  0  0  0  0  0
   55.8831   30.0393   52.7405 C   0  0  0  0  0  0  0  0  0  0  0  0
   55.2445   29.8118   53.9735 C   0  0  0  0  0  0  0  0  0  0  0  0
   53.8822   30.0903   54.1225 C   0  0  0  0  0  0  0  0  0  0  0  0
   50.9623   32.1950   52.1234 N   0  0  0  0  0  0  0  0  0  0  0  0
   51.4307   30.9603   53.2382 S   0  0  0  0  0  0  0  0  0  0  0  0
   50.6329   29.7163   52.9695 O   0  0  0  0  0  0  0  0  0  0  0  0
   51.1502   31.4187   54.6423 O   0  0  0  0  0  0  0  0  0  0  0  0
   49.9669   32.3900   52.2306 H   0  0  0  0  0  0  0  0  0  0  0  0
   59.9594   33.7726   48.9839 C   0  0  0  0  0  0  0  0  0  0  0  0
   59.2740   33.8184   47.6430 C   0  0  0  0  0  0  0  0  0  0  0  0
   59.9085   34.4084   46.5374 C   0  0  0  0  0  0  0  0  0  0  0  0
   59.2773   34.4232   45.2891 C   0  0  0  0  0  0  0  0  0  0  0  0
   58.0085   33.8576   45.1389 C   0  0  0  0  0  0  0  0  0  0  0  0
   57.3699   33.2731   46.2362 C   0  0  0  0  0  0  0  0  0  0  0  0
   57.9980   33.2523   47.4840 C   0  0  0  0  0  0  0  0  0  0  0  0
   60.6806   29.0395   47.7649 C   0  0  0  0  0  0  0  0  0  0  0  0
   59.5922   28.9939   46.7329 C   0  0  0  0  0  0  0  0  0  0  0  0
   59.3659   30.0950   45.8910 C   0  0  0  0  0  0  0  0  0  0  0  0
   58.3287   30.0623   44.9532 C   0  0  0  0  0  0  0  0  0  0  0  0
   57.5055   28.9380   44.8579 C   0  0  0  0  0  0  0  0  0  0  0  0
   57.7127   27.8446   45.7034 C   0  0  0  0  0  0  0  0  0  0  0  0
   58.7484   27.8731   46.6423 C   0  0  0  0  0  0  0  0  0  0  0  0
 16 17  1  0
 17 18  2  0
 17 19  2  0
 17 10  1  0
 10 11  2  0
 11 12  1  0
 12 13  2  0
 13  1  1  0
  1  2  2  0
  2  3  1  0
  3  4  1  0
  4  5  2  0
  5 21  1  0
 21 22  1  0
 22 23  2  0
 23 24  1  0
 24 25  2  0
 25 26  1  0
 26 27  2  0
  4  6  1  0
  6  7  1  0
  7  8  2  0
  8 28  1  0
 28 29  1  0
 29 30  2  0
 30 31  1  0
 31 32  2  0
 32 33  1  0
 33 34  2  0
  7  9  1  0
 13 14  1  0
 14 15  2  0
 15 10  1  0
  9  2  1  0
 27 22  1  0
 34 29  1  0
 16 20  1  0
M  CHG 1   3  -1
M  CHG 1   6  -1
M  CHG 1   9  -1
M  CHG 1  16  -1
M  END
> <UniqueID>
44

> <SMILES>
[NH-]S(=O)(=O)c1ccc(N=c2[n-]c(=NCc3ccccc3)[n-]c(=NCc3ccccc3)[n-]2)cc1

> <Energy>
59.81412440608624

> <Genealogy>
[NH-]S(=O)(=O)c1ccc(N=c2[n-]c(=NCc3ccccc3)[n-]c(=NCc3ccccc3)[n-]2)cc1 (protonated)
[NH-]S(=O)(=O)c1ccc(N=c2[n-]c(=NCc3ccccc3)[n-]c(=NCc3ccccc3)[n-]2)cc1 (3D coordinates assigned)
[NH-]S(=O)(=O)c1ccc(N=c2[n-]c(=NCc3ccccc3)[n-]c(=NCc3ccccc3)[n-]2)cc1 (optimized conformer: 59.81412440608624 kcal/mol)

> <smiles>
NS(=O)(=O)c1ccc(N=c2[nH]c(=NCc3ccccc3)[nH]c(=NCc3ccccc3)[nH]2)cc1

> <score_type>
oracle

> <origin>
adg

> <m_score__min__energy>
-15.16

> <m_primary>
energy

> <minimizedAffinity>
-8.10951

> <minimizedRMSD>
0.63276

> <CNNscore>
0.4748053849

> <CNNaffinity>
6.4897580147

> <CNN_VS>
3.0813720226

> <CNNaffinity_variance>
0.4399454594

$$$$
52:0


 33 36  0  0  0  0  0  0  0  0999 V2000
   60.2386   29.5513   49.1947 N   0  0  0  0  0  0  0  0  0  0  0  0
   61.4691   30.0085   49.8588 C   0  0  0  0  0  0  0  0  0  0  0  0
   61.4938   31.5518   49.9070 C   0  0  0  0  0  0  0  0  0  0  0  0
   60.1384   32.1755   49.9373 N   0  0  0  0  0  0  0  0  0  0  0  0
   59.1853   31.2884   50.6509 C   0  0  0  0  0  0  0  0  0  0  0  0
   59.0332   29.9144   49.9663 C   0  0  0  0  0  0  0  0  0  0  0  0
   59.6986   32.6585   48.5914 C   0  0  0  0  0  0  0  0  0  0  0  0
   60.5919   32.0541   47.4895 C   0  0  0  0  0  0  0  0  0  0  0  0
   59.9808   32.3258   46.1082 C   0  0  0  0  0  0  0  0  0  0  0  0
   59.4632   33.7049   45.9595 N   0  0  0  0  0  0  0  0  0  0  0  0
   59.8857   34.6952   46.9698 C   0  0  0  0  0  0  0  0  0  0  0  0
   59.7610   34.2024   48.4314 C   0  0  0  0  0  0  0  0  0  0  0  0
   58.0813   33.8331   45.4529 C   0  0  0  0  0  0  0  0  0  0  0  0
   57.6220   32.6462   44.6375 C   0  0  0  0  0  0  0  0  0  0  0  0
   57.8994   32.5811   43.2626 C   0  0  0  0  0  0  0  0  0  0  0  0
   57.5320   31.4567   42.5204 C   0  0  0  0  0  0  0  0  0  0  0  0
   56.8963   30.3781   43.1409 C   0  0  0  0  0  0  0  0  0  0  0  0
   56.5777   29.2503   42.3853 O   0  0  0  0  0  0  0  0  0  0  0  0
   56.5997   30.4407   44.5113 C   0  0  0  0  0  0  0  0  0  0  0  0
   55.9534   29.3855   45.1424 O   0  0  0  0  0  0  0  0  0  0  0  0
   56.9670   31.5670   45.2556 C   0  0  0  0  0  0  0  0  0  0  0  0
   56.7829   29.2254   41.4714 H   0  0  0  0  0  0  0  0  0  0  0  0
   60.2693   28.1251   48.8011 C   0  0  0  0  0  0  0  0  0  0  0  0
   58.0322   26.6954   46.0328 C   0  0  0  0  0  0  0  0  0  0  0  0
   58.5670   27.3397   44.9043 C   0  0  0  0  0  0  0  0  0  0  0  0
   59.6315   28.2334   45.0381 C   0  0  0  0  0  0  0  0  0  0  0  0
   60.1794   28.4904   46.2944 C   0  0  0  0  0  0  0  0  0  0  0  0
   59.6758   27.8444   47.4335 C   0  0  0  0  0  0  0  0  0  0  0  0
   58.5911   26.9596   47.2974 C   0  0  0  0  0  0  0  0  0  0  0  0
   55.5515   26.2137   46.0129 N   0  0  0  0  0  0  0  0  0  0  0  0
   56.8964   25.7530   45.8953 C   0  0  0  0  0  0  0  0  0  0  0  0
   57.1075   24.5300   45.6687 O   0  0  0  0  0  0  0  0  0  0  0  0
   54.8041   25.5798   45.9200 H   0  0  0  0  0  0  0  0  0  0  0  0
 30 31  1  0
 31 32  2  0
 31 24  1  0
 24 25  2  0
 25 26  1  0
 26 27  2  0
 27 28  1  0
 28 23  1  0
 23  1  1  0
  1  2  1  0
  2  3  1  0
  3  4  1  0
  4  7  1  0
  7  8  1  0
  8  9  1  0
  9 10  1  0
 10 13  1  0
 13 14  1  0
 14 15  2  0
 15 16  1  0
 16 17  2  0
 17 18  1  0
 17 19  1  0
 19 20  1  0
 19 21  2  0
 10 11  1  0
 11 12  1  0
  4  5  1  0
  5  6  1  0
 28 29  2  0
 29 24  1  0
  6  1  1  0
 12  7  1  0
 21 14  1  0
 30 33  1  0
 18 22  1  0
M  CHG 1  20  -1
M  CHG 1  30  -1
M  END
> <UniqueID>
52

> <SMILES>
[NH-]C(=O)c1cccc(CN2CCN(C3CCN(Cc4ccc(O)c([O-])c4)CC3)CC2)c1

> <Energy>
94.86585394835507

> <Genealogy>
[NH-]C(=O)c1cccc(CN2CCN(C3CCN(Cc4ccc(O)c([O-])c4)CC3)CC2)c1 (protonated)
[NH-]C(=O)c1cccc(CN2CCN(C3CCN(Cc4ccc(O)c([O-])c4)CC3)CC2)c1 (3D coordinates assigned)
[NH-]C(=O)c1cccc(CN2CCN(C3CCN(Cc4ccc(O)c([O-])c4)CC3)CC2)c1 (nonaromatic ring conformer: 94.86585394835507 kcal/mol)

> <smiles>
NC(=O)c1cccc(CN2CCN(C3CCN(Cc4ccc(O)c(O)c4)CC3)CC2)c1

> <score_type>
oracle

> <origin>
adg

> <m_score__min__energy>
-15.91

> <m_primary>
energy

> <minimizedAffinity>
-8.56729

> <minimizedRMSD>
0.52006

> <CNNscore>
0.3505530357

> <CNNaffinity>
6.5228934288

> <CNN_VS>
2.2866201401

> <CNNaffinity_variance>
0.1316258013

$$$$
53:0


 29 32  0  0  0  0  0  0  0  0999 V2000
   60.1121   29.6169   44.8795 C   0  0  0  0  0  0  0  0  0  0  0  0
   59.5912   29.3833   46.0938 C   0  0  0  0  0  0  0  0  0  0  0  0
   58.6573   28.3957   46.4219 C   0  0  0  0  0  0  0  0  0  0  0  0
   58.0624   27.5221   45.5862 C   0  0  0  0  0  0  0  0  0  0  0  0
   58.4280   28.5124   47.7868 C   0  0  0  0  0  0  0  0  0  0  0  0
   59.2169   29.5528   48.2325 C   0  0  0  0  0  0  0  0  0  0  0  0
   59.2790   30.0215   49.6548 C   0  0  0  0  0  0  0  0  0  0  0  0
   59.9409   30.0675   47.2127 N   0  0  0  0  0  0  0  0  0  0  0  0
   57.7375   26.1282   45.9615 C   0  0  0  0  0  0  0  0  0  0  0  0
   56.4158   25.7181   46.2083 C   0  0  0  0  0  0  0  0  0  0  0  0
   55.3603   26.6189   46.1048 O   0  0  0  0  0  0  0  0  0  0  0  0
   56.1592   24.4358   46.5741 N   0  0  0  0  0  0  0  0  0  0  0  0
   57.1646   23.5367   46.7244 C   0  0  0  0  0  0  0  0  0  0  0  0
   56.9031   22.3528   47.0602 O   0  0  0  0  0  0  0  0  0  0  0  0
   58.4525   23.9145   46.5207 N   0  0  0  0  0  0  0  0  0  0  0  0
   58.7613   25.1841   46.1518 C   0  0  0  0  0  0  0  0  0  0  0  0
   59.9678   25.5015   45.9750 O   0  0  0  0  0  0  0  0  0  0  0  0
   60.8423   31.1860   47.2989 C   0  0  0  0  0  0  0  0  0  0  0  0
   62.1565   30.9608   47.7390 C   0  0  0  0  0  0  0  0  0  0  0  0
   63.0858   32.0015   47.7542 C   0  0  0  0  0  0  0  0  0  0  0  0
   62.7177   33.2741   47.3212 C   0  0  0  0  0  0  0  0  0  0  0  0
   61.4135   33.5152   46.8832 C   0  0  0  0  0  0  0  0  0  0  0  0
   60.4570   32.4845   46.8805 C   0  0  0  0  0  0  0  0  0  0  0  0
   59.0792   32.7991   46.4386 C   0  0  0  0  0  0  0  0  0  0  0  0
   58.7029   32.8967   45.1499 N   0  0  0  0  0  0  0  0  0  0  0  0
   57.4182   33.2232   45.1897 N   0  0  0  0  0  0  0  0  0  0  0  0
   57.0187   33.3338   46.4482 N   0  0  0  0  0  0  0  0  0  0  0  0
   58.0389   33.0758   47.2448 N   0  0  0  0  0  0  0  0  0  0  0  0
   58.0385   33.0843   48.2293 H   0  0  0  0  0  0  0  0  0  0  0  0
  1  2  2  0
  2  3  1  0
  3  4  2  0
  4  9  1  0
  9 10  2  0
 10 11  1  0
 10 12  1  0
 12 13  1  0
 13 14  2  0
 13 15  1  0
 15 16  1  0
 16 17  2  0
  3  5  1  0
  5  6  2  0
  6  7  1  0
  6  8  1  0
  8 18  1  0
 18 19  2  0
 19 20  1  0
 20 21  2  0
 21 22  1  0
 22 23  2  0
 23 24  1  0
 24 25  2  0
 25 26  1  0
 26 27  1  0
 27 28  2  0
  8  2  1  0
 23 18  1  0
 28 24  1  0
 16  9  1  0
 28 29  1  0
M  CHG 1  11  -1
M  CHG 1  12  -1
M  CHG 1  15  -1
M  CHG 1  26  -1
M  CHG 1  28   1
M  END
> <UniqueID>
53

> <SMILES>
C=c1/c(=C/c2c([O-])[n-]c(=O)[n-]c2=O)cc(C)n1-c1ccccc1-c1n[n-]n[nH+]1

> <Energy>
132.3728048995919

> <Genealogy>
C=c1c(=Cc2c([O-])[n-]c(=O)[n-]c2=O)cc(C)n1-c1ccccc1-c1n[n-]n[nH+]1 (protonated)
C=c1/c(=C/c2c([O-])[n-]c(=O)[n-]c2=O)cc(C)n1-c1ccccc1-c1n[n-]n[nH+]1 (cis-trans isomerization)
C=c1/c(=C/c2c([O-])[n-]c(=O)[n-]c2=O)cc(C)n1-c1ccccc1-c1n[n-]n[nH+]1 (3D coordinates assigned)
C=c1/c(=C/c2c([O-])[n-]c(=O)[n-]c2=O)cc(C)n1-c1ccccc1-c1n[n-]n[nH+]1 (optimized conformer: 132.3728048995919 kcal/mol)

> <smiles>
C=c1c(=Cc2c(O)[nH]c(=O)[nH]c2=O)cc(C)n1-c1ccccc1-c1nn[nH]n1

> <score_type>
oracle

> <origin>
adg

> <m_score__min__energy>
-16.48

> <m_primary>
energy

> <minimizedAffinity>
-7.66173

> <minimizedRMSD>
0.57369

> <CNNscore>
0.1711038351

> <CNNaffinity>
6.1634354591

> <CNN_VS>
1.0545874834

> <CNNaffinity_variance>
0.1210176125

$$$$
54:0


 34 37  0  0  0  0  0  0  0  0999 V2000
   58.6029   31.1433   45.6339 C   0  0  0  0  0  0  0  0  0  0  0  0
   58.3122   32.0052   44.5686 C   0  0  0  0  0  0  0  0  0  0  0  0
   58.2519   33.3836   44.7769 C   0  0  0  0  0  0  0  0  0  0  0  0
   58.5049   33.9108   46.0457 C   0  0  0  0  0  0  0  0  0  0  0  0
   58.8134   33.0607   47.1216 C   0  0  0  0  0  0  0  0  0  0  0  0
   58.8363   31.6674   46.9141 C   0  0  0  0  0  0  0  0  0  0  0  0
   59.1063   30.8198   47.9402 F   0  0  0  0  0  0  0  0  0  0  0  0
   56.5532   29.3676   44.4550 C   0  0  0  0  0  0  0  0  0  0  0  0
   57.7317   28.9131   44.9077 C   0  0  0  0  0  0  0  0  0  0  0  0
   58.2395   27.6080   44.8067 C   0  0  0  0  0  0  0  0  0  0  0  0
   57.6504   26.4551   44.4372 C   0  0  0  0  0  0  0  0  0  0  0  0
   59.5705   27.6788   45.1942 C   0  0  0  0  0  0  0  0  0  0  0  0
   59.8060   28.9827   45.5772 C   0  0  0  0  0  0  0  0  0  0  0  0
   61.1130   29.5044   46.0895 C   0  0  0  0  0  0  0  0  0  0  0  0
   58.6944   29.7290   45.4059 N   0  0  0  0  0  0  0  0  0  0  0  0
   57.3430   25.3222   45.3256 C   0  0  0  0  0  0  0  0  0  0  0  0
   58.0756   24.1964   45.4142 N   0  0  0  0  0  0  0  0  0  0  0  0
   57.3323   23.4034   46.2171 C   0  0  0  0  0  0  0  0  0  0  0  0
   57.6960   22.2474   46.5549 O   0  0  0  0  0  0  0  0  0  0  0  0
   56.1626   23.9446   46.6191 N   0  0  0  0  0  0  0  0  0  0  0  0
   56.1796   25.1528   46.0341 C   0  0  0  0  0  0  0  0  0  0  0  0
   55.1502   26.0807   46.1419 O   0  0  0  0  0  0  0  0  0  0  0  0
   59.1381   33.6619   48.4733 C   0  0  0  0  0  0  0  0  0  0  0  0
   60.4130   33.1311   49.0314 N   0  0  0  0  0  0  0  0  0  0  0  0
   60.4612   32.1213   48.8954 H   0  0  0  0  0  0  0  0  0  0  0  0
   61.5469   33.7748   48.3132 C   0  0  0  0  0  0  0  0  0  0  0  0
   62.4613   32.7744   47.6015 C   0  0  0  0  0  0  0  0  0  0  0  0
   60.4860   33.3751   50.5040 C   0  0  0  0  0  0  0  0  0  0  0  0
   60.1463   32.1262   51.3529 C   0  0  0  0  0  0  0  0  0  0  0  0
   60.7393   30.9057   50.7650 N   0  0  0  0  0  0  0  0  0  0  0  0
   59.9080   29.7274   51.0051 C   0  0  0  0  0  0  0  0  0  0  0  0
   60.8329   28.5324   50.9412 C   0  0  0  0  0  0  0  0  0  0  0  0
   62.1631   29.0645   51.4352 C   0  0  0  0  0  0  0  0  0  0  0  0
   62.0667   30.5812   51.3127 C   0  0  0  0  0  0  0  0  0  0  0  0
  8  9  2  0
  9 10  1  0
 10 11  2  0
 11 16  1  0
 16 17  1  0
 17 18  1  0
 18 19  2  0
 18 20  1  0
 20 21  1  0
 21 22  1  0
 10 12  1  0
 12 13  2  0
 13 14  1  0
 13 15  1  0
 15  1  1  0
  1  2  2  0
  2  3  1  0
  3  4  2  0
  4  5  1  0
  5 23  1  0
 24 23  1  0
 24 26  1  0
 26 27  1  0
 24 28  1  0
 28 29  1  0
 29 30  1  0
 30 31  1  0
 31 32  1  0
 32 33  1  0
 33 34  1  0
  5  6  2  0
  6  7  1  0
 15  9  1  0
  6  1  1  0
 21 16  2  0
 34 30  1  0
 24 25  1  0
M  CHG 1  17  -1
M  CHG 1  20  -1
M  CHG 1  22  -1
M  CHG 1  24   1
M  END
> <UniqueID>
54

> <SMILES>
C=c1c(=Cc2[n-]c(=O)[n-]c2[O-])cc(C)n1-c1cccc(C[N@@H+](CC)CCN2CCCC2)c1F

> <Energy>
145.61747161411884

> <Genealogy>
C=c1c(=Cc2[n-]c(=O)[n-]c2[O-])cc(C)n1-c1cccc(C[NH+](CC)CCN2CCCC2)c1F (protonated)
C=c1c(=Cc2[n-]c(=O)[n-]c2[O-])cc(C)n1-c1cccc(C[N@@H+](CC)CCN2CCCC2)c1F (chirality)
C=c1c(=Cc2[n-]c(=O)[n-]c2[O-])cc(C)n1-c1cccc(C[N@@H+](CC)CCN2CCCC2)c1F (3D coordinates assigned)
C=c1c(=Cc2[n-]c(=O)[n-]c2[O-])cc(C)n1-c1cccc(C[N@@H+](CC)CCN2CCCC2)c1F (nonaromatic ring conformer: 145.61747161411884 kcal/mol)

> <smiles>
C=c1c(=Cc2[nH]c(=O)[nH]c2O)cc(C)n1-c1cccc(CN(CC)CCN2CCCC2)c1F

> <score_type>
oracle

> <origin>
adg

> <m_score__min__energy>
-15.34

> <m_primary>
energy

> <minimizedAffinity>
-7.52191

> <minimizedRMSD>
0.91679

> <CNNscore>
0.2956754863

> <CNNaffinity>
7.3674416542

> <CNN_VS>
2.1783719063

> <CNNaffinity_variance>
0.3072620332

$$$$
59:0


 32 35  0  0  0  0  0  0  0  0999 V2000
   60.9315   34.0525   48.8619 C   0  0  0  0  0  0  0  0  0  0  0  0
   60.9434   32.7067   48.7401 C   0  0  0  0  0  0  0  0  0  0  0  0
   60.4757   32.1118   47.5431 C   0  0  0  0  0  0  0  0  0  0  0  0
   60.0674   32.8382   46.5923 O   0  0  0  0  0  0  0  0  0  0  0  0
   60.5056   30.7031   47.4198 C   0  0  0  0  0  0  0  0  0  0  0  0
   60.0680   30.0195   46.3406 C   0  0  0  0  0  0  0  0  0  0  0  0
   61.0292   29.9769   48.4383 N   0  0  0  0  0  0  0  0  0  0  0  0
   61.4797   30.5447   49.5822 C   0  0  0  0  0  0  0  0  0  0  0  0
   61.9406   29.7993   50.4901 O   0  0  0  0  0  0  0  0  0  0  0  0
   61.4228   31.9014   49.7540 N   0  0  0  0  0  0  0  0  0  0  0  0
   59.4871   28.6626   46.3518 C   0  0  0  0  0  0  0  0  0  0  0  0
   60.2814   27.5799   46.7564 C   0  0  0  0  0  0  0  0  0  0  0  0
   59.7440   26.2909   46.8080 C   0  0  0  0  0  0  0  0  0  0  0  0
   58.4036   26.0769   46.4729 C   0  0  0  0  0  0  0  0  0  0  0  0
   57.5948   27.1543   46.0939 C   0  0  0  0  0  0  0  0  0  0  0  0
   56.2606   26.9355   45.7754 O   0  0  0  0  0  0  0  0  0  0  0  0
   58.1291   28.4489   46.0416 C   0  0  0  0  0  0  0  0  0  0  0  0
   57.3104   29.5173   45.6873 O   0  0  0  0  0  0  0  0  0  0  0  0
   61.8640   32.4495   51.0171 C   0  0  0  0  0  0  0  0  0  0  0  0
   63.2148   32.7935   51.1795 C   0  0  0  0  0  0  0  0  0  0  0  0
   63.6631   33.3437   52.3810 C   0  0  0  0  0  0  0  0  0  0  0  0
   62.7683   33.5516   53.4322 C   0  0  0  0  0  0  0  0  0  0  0  0
   61.4208   33.2099   53.2848 C   0  0  0  0  0  0  0  0  0  0  0  0
   60.9525   32.6646   52.0770 C   0  0  0  0  0  0  0  0  0  0  0  0
   59.5234   32.2949   51.9485 C   0  0  0  0  0  0  0  0  0  0  0  0
   58.7140   33.1509   51.4993 O   0  0  0  0  0  0  0  0  0  0  0  0
   59.0393   30.9882   52.3276 N   0  0  0  0  0  0  0  0  0  0  0  0
   59.7822   30.1335   53.2609 C   0  0  0  0  0  0  0  0  0  0  0  0
   58.7983   29.3675   54.1498 C   0  0  0  0  0  0  0  0  0  0  0  0
   57.8398   28.6821   53.3653 O   0  0  0  0  0  0  0  0  0  0  0  0
   57.0363   29.6160   52.6701 C   0  0  0  0  0  0  0  0  0  0  0  0
   57.8714   30.4068   51.6577 C   0  0  0  0  0  0  0  0  0  0  0  0
  1  2  2  0
  2  3  1  0
  3  4  2  0
  3  5  1  0
  5  6  2  0
  6 11  1  0
 11 12  2  0
 12 13  1  0
 13 14  2  0
 14 15  1  0
 15 16  1  0
 15 17  2  0
 17 18  1  0
  5  7  1  0
  7  8  1  0
  8  9  2  0
  8 10  1  0
 10 19  1  0
 19 20  2  0
 20 21  1  0
 21 22  2  0
 22 23  1  0
 23 24  2  0
 24 25  1  0
 25 26  2  0
 25 27  1  0
 27 28  1  0
 28 29  1  0
 29 30  1  0
 30 31  1  0
 31 32  1  0
 10  2  1  0
 24 19  1  0
 32 27  1  0
 17 11  1  0
M  CHG 1   7  -1
M  CHG 1  16  -1
M  CHG 1  18  -1
M  END
> <UniqueID>
59

> <SMILES>
C=c1c(=O)/c(=C\c2cccc([O-])c2[O-])[n-]c(=O)n1-c1ccccc1C(=O)N1CCOCC1

> <Energy>
89.77392811088674

> <Genealogy>
C=c1c(=O)c(=Cc2cccc([O-])c2[O-])[n-]c(=O)n1-c1ccccc1C(=O)N1CCOCC1 (protonated)
C=c1c(=O)/c(=C\c2cccc([O-])c2[O-])[n-]c(=O)n1-c1ccccc1C(=O)N1CCOCC1 (cis-trans isomerization)
C=c1c(=O)/c(=C\c2cccc([O-])c2[O-])[n-]c(=O)n1-c1ccccc1C(=O)N1CCOCC1 (3D coordinates assigned)
C=c1c(=O)/c(=C\c2cccc([O-])c2[O-])[n-]c(=O)n1-c1ccccc1C(=O)N1CCOCC1 (nonaromatic ring conformer: 89.77392811088674 kcal/mol)

> <smiles>
C=c1c(=O)c(=Cc2cccc(O)c2O)[nH]c(=O)n1-c1ccccc1C(=O)N1CCOCC1

> <score_type>
oracle

> <origin>
adg

> <m_score__min__energy>
-16.890000000000001

> <m_primary>
energy

> <minimizedAffinity>
-7.68285

> <minimizedRMSD>
2.29344

> <CNNscore>
0.1705913544

> <CNNaffinity>
5.8476357460

> <CNN_VS>
0.9975560904

> <CNNaffinity_variance>
0.0606699549

$$$$
61:0


 29 31  0  0  0  0  0  0  0  0999 V2000
   60.0812   29.5128   44.8293 C   0  0  0  0  0  0  0  0  0  0  0  0
   59.6256   29.2089   46.0536 C   0  0  0  0  0  0  0  0  0  0  0  0
   58.8103   28.1260   46.3949 C   0  0  0  0  0  0  0  0  0  0  0  0
   58.2572   27.2259   45.5604 C   0  0  0  0  0  0  0  0  0  0  0  0
   58.6489   28.1770   47.7743 C   0  0  0  0  0  0  0  0  0  0  0  0
   59.3572   29.2785   48.2143 C   0  0  0  0  0  0  0  0  0  0  0  0
   59.5108   29.6841   49.6469 C   0  0  0  0  0  0  0  0  0  0  0  0
   59.9356   29.9103   47.1704 N   0  0  0  0  0  0  0  0  0  0  0  0
   57.7523   25.9071   46.0028 C   0  0  0  0  0  0  0  0  0  0  0  0
   56.3802   25.7203   46.2315 C   0  0  0  0  0  0  0  0  0  0  0  0
   55.4878   26.7759   46.0800 O   0  0  0  0  0  0  0  0  0  0  0  0
   55.9152   24.5038   46.6144 N   0  0  0  0  0  0  0  0  0  0  0  0
   56.7548   23.4490   46.7697 C   0  0  0  0  0  0  0  0  0  0  0  0
   56.3013   22.3324   47.1292 O   0  0  0  0  0  0  0  0  0  0  0  0
   58.0827   23.5958   46.5290 N   0  0  0  0  0  0  0  0  0  0  0  0
   58.5974   24.7906   46.1414 C   0  0  0  0  0  0  0  0  0  0  0  0
   59.8304   24.8806   45.8938 O   0  0  0  0  0  0  0  0  0  0  0  0
   60.7802   31.0696   47.2598 C   0  0  0  0  0  0  0  0  0  0  0  0
   62.1641   30.8878   47.3927 C   0  0  0  0  0  0  0  0  0  0  0  0
   63.0166   31.9905   47.4727 C   0  0  0  0  0  0  0  0  0  0  0  0
   62.4933   33.2827   47.4182 C   0  0  0  0  0  0  0  0  0  0  0  0
   61.1161   33.4759   47.2876 C   0  0  0  0  0  0  0  0  0  0  0  0
   60.2445   32.3780   47.2163 C   0  0  0  0  0  0  0  0  0  0  0  0
   58.5064   32.6771   47.0433 S   0  0  0  0  0  0  0  0  0  0  0  0
   57.7816   32.2493   48.2899 O   0  0  0  0  0  0  0  0  0  0  0  0
   58.2759   34.1498   46.8567 O   0  0  0  0  0  0  0  0  0  0  0  0
   57.9023   31.8400   45.6402 N   0  0  0  0  0  0  0  0  0  0  0  0
   58.0287   32.6758   44.4488 C   0  0  0  0  0  0  0  0  0  0  0  0
   56.9194   31.6091   45.7849 H   0  0  0  0  0  0  0  0  0  0  0  0
  1  2  2  0
  2  3  1  0
  3  4  2  0
  4  9  1  0
  9 10  2  0
 10 11  1  0
 10 12  1  0
 12 13  1  0
 13 14  2  0
 13 15  1  0
 15 16  1  0
 16 17  2  0
  3  5  1  0
  5  6  2  0
  6  7  1  0
  6  8  1  0
  8 18  1  0
 18 19  2  0
 19 20  1  0
 20 21  2  0
 21 22  1  0
 22 23  2  0
 23 24  1  0
 24 25  2  0
 24 26  2  0
 24 27  1  0
 27 28  1  0
  8  2  1  0
 23 18  1  0
 16  9  1  0
 27 29  1  0
M  CHG 1  11  -1
M  CHG 1  12  -1
M  CHG 1  15  -1
M  END
> <UniqueID>
61

> <SMILES>
C=c1c(=Cc2c([O-])[n-]c(=O)[n-]c2=O)cc(C)n1-c1ccccc1S(=O)(=O)NC

> <Energy>
89.1100995607629

> <Genealogy>
C=c1c(=Cc2c([O-])[n-]c(=O)[n-]c2=O)cc(C)n1-c1ccccc1S(=O)(=O)NC (protonated)
C=c1c(=Cc2c([O-])[n-]c(=O)[n-]c2=O)cc(C)n1-c1ccccc1S(=O)(=O)NC (3D coordinates assigned)
C=c1c(=Cc2c([O-])[n-]c(=O)[n-]c2=O)cc(C)n1-c1ccccc1S(=O)(=O)NC (optimized conformer: 89.1100995607629 kcal/mol)

> <smiles>
C=c1c(=Cc2c(O)[nH]c(=O)[nH]c2=O)cc(C)n1-c1ccccc1S(=O)(=O)NC

> <score_type>
oracle

> <origin>
adg

> <m_score__min__energy>
-15.640000000000001

> <m_primary>
energy

> <minimizedAffinity>
-6.87076

> <minimizedRMSD>
0.84335

> <CNNscore>
0.2090383321

> <CNNaffinity>
6.3427791595

> <CNN_VS>
1.3258839846

> <CNNaffinity_variance>
0.0273924675

$$$$
63:0


 32 35  0  0  0  0  0  0  0  0999 V2000
   60.1691   28.9801   44.8347 C   0  0  0  0  0  0  0  0  0  0  0  0
   59.9092   28.6703   46.1135 C   0  0  0  0  0  0  0  0  0  0  0  0
   59.1769   27.5630   46.5644 C   0  0  0  0  0  0  0  0  0  0  0  0
   58.8167   26.4264   45.9368 C   0  0  0  0  0  0  0  0  0  0  0  0
   58.8709   27.8186   47.8863 C   0  0  0  0  0  0  0  0  0  0  0  0
   59.4800   29.0105   48.2218 C   0  0  0  0  0  0  0  0  0  0  0  0
   60.1626   29.5084   47.1576 N   0  0  0  0  0  0  0  0  0  0  0  0
   57.8394   25.4452   46.4395 C   0  0  0  0  0  0  0  0  0  0  0  0
   58.1530   24.3180   47.1048 N   0  0  0  0  0  0  0  0  0  0  0  0
   56.9516   23.8347   47.4865 C   0  0  0  0  0  0  0  0  0  0  0  0
   56.8272   22.7611   48.1333 O   0  0  0  0  0  0  0  0  0  0  0  0
   55.8956   24.5982   47.1331 N   0  0  0  0  0  0  0  0  0  0  0  0
   56.4773   25.6202   46.4830 C   0  0  0  0  0  0  0  0  0  0  0  0
   55.7777   26.6968   45.9508 O   0  0  0  0  0  0  0  0  0  0  0  0
   59.3314   29.6400   49.5507 C   0  0  0  0  0  0  0  0  0  0  0  0
   58.3184   29.3745   50.2491 O   0  0  0  0  0  0  0  0  0  0  0  0
   60.2895   30.5975   50.0178 N   0  0  0  0  0  0  0  0  0  0  0  0
   61.5539   30.2328   50.6465 C   0  0  0  0  0  0  0  0  0  0  0  0
   62.4631   31.4282   50.7026 C   0  0  0  0  0  0  0  0  0  0  0  0
   63.8548   31.2536   50.6583 C   0  0  0  0  0  0  0  0  0  0  0  0
   64.6895   32.3737   50.6714 C   0  0  0  0  0  0  0  0  0  0  0  0
   64.1540   33.6243   50.7167 N   0  0  0  0  0  0  0  0  0  0  0  0
   62.8085   33.8218   50.7526 C   0  0  0  0  0  0  0  0  0  0  0  0
   61.9386   32.7271   50.7424 C   0  0  0  0  0  0  0  0  0  0  0  0
   61.0430   30.6930   47.1422 C   0  0  0  0  0  0  0  0  0  0  0  0
   60.2689   31.9727   46.8829 C   0  0  0  0  0  0  0  0  0  0  0  0
   58.8796   31.8929   46.6801 C   0  0  0  0  0  0  0  0  0  0  0  0
   58.1267   33.0385   46.4202 C   0  0  0  0  0  0  0  0  0  0  0  0
   58.7476   34.2849   46.3663 C   0  0  0  0  0  0  0  0  0  0  0  0
   60.1190   34.3932   46.5971 C   0  0  0  0  0  0  0  0  0  0  0  0
   60.8902   33.2508   46.8808 C   0  0  0  0  0  0  0  0  0  0  0  0
   62.3627   33.4271   47.1450 C   0  0  0  0  0  0  0  0  0  0  0  0
  1  2  2  0
  2  3  1  0
  3  4  2  0
  4  8  1  0
  8  9  1  0
  9 10  1  0
 10 11  2  0
 10 12  1  0
 12 13  1  0
 13 14  1  0
  3  5  1  0
  5  6  2  0
  6 15  1  0
 15 16  2  0
 15 17  1  0
 17 18  1  0
 18 19  1  0
 19 20  2  0
 20 21  1  0
 21 22  2  0
 22 23  1  0
 23 24  2  0
  6  7  1  0
  7 25  1  0
 25 26  1  0
 26 27  2  0
 27 28  1  0
 28 29  2  0
 29 30  1  0
 30 31  2  0
 31 32  1  0
  7  2  1  0
 31 26  1  0
 13  8  2  0
 24 19  1  0
M  CHG 1   9  -1
M  CHG 1  12  -1
M  CHG 1  14  -1
M  CHG 1  17  -1
M  END
> <UniqueID>
63

> <SMILES>
C=c1/c(=C\c2[n-]c(=O)[n-]c2[O-])cc(C(=O)[N-]Cc2ccncc2)n1Cc1ccccc1C

> <Energy>
128.59091908910796

> <Genealogy>
C=c1c(=Cc2[n-]c(=O)[n-]c2[O-])cc(C(=O)[N-]Cc2ccncc2)n1Cc1ccccc1C (protonated)
C=c1/c(=C\c2[n-]c(=O)[n-]c2[O-])cc(C(=O)[N-]Cc2ccncc2)n1Cc1ccccc1C (cis-trans isomerization)
C=c1/c(=C\c2[n-]c(=O)[n-]c2[O-])cc(C(=O)[N-]Cc2ccncc2)n1Cc1ccccc1C (3D coordinates assigned)
C=c1/c(=C\c2[n-]c(=O)[n-]c2[O-])cc(C(=O)[N-]Cc2ccncc2)n1Cc1ccccc1C (optimized conformer: 128.59091908910796 kcal/mol)

> <smiles>
C=c1c(=Cc2[nH]c(=O)[nH]c2O)cc(C(=O)NCc2ccncc2)n1Cc1ccccc1C

> <score_type>
oracle

> <origin>
adg

> <m_score__min__energy>
-17.34

> <m_primary>
energy

> <minimizedAffinity>
-7.64359

> <minimizedRMSD>
1.39455

> <CNNscore>
0.5028805733

> <CNNaffinity>
7.1318430901

> <CNN_VS>
3.5864653587

> <CNNaffinity_variance>
0.0103879804

$$$$
68:0


 29 32  0  0  0  0  0  0  0  0999 V2000
   57.3674   29.7916   52.9582 N   0  0  0  0  0  0  0  0  0  0  0  0
   56.6801   28.7643   53.5018 C   0  0  0  0  0  0  0  0  0  0  0  0
   57.2852   27.4720   53.9606 C   0  0  0  0  0  0  0  0  0  0  0  0
   55.3446   29.0877   53.6148 C   0  0  0  0  0  0  0  0  0  0  0  0
   55.1893   30.3529   53.0703 C   0  0  0  0  0  0  0  0  0  0  0  0
   53.9899   30.9553   52.9539 C   0  0  0  0  0  0  0  0  0  0  0  0
   56.4769   30.7841   52.7063 C   0  0  0  0  0  0  0  0  0  0  0  0
   56.8423   32.0136   52.3104 C   0  0  0  0  0  0  0  0  0  0  0  0
   58.4314   29.5722   50.3433 O   0  0  0  0  0  0  0  0  0  0  0  0
   59.3004   29.7210   51.4238 C   0  0  0  0  0  0  0  0  0  0  0  0
   60.6870   29.7611   51.2147 C   0  0  0  0  0  0  0  0  0  0  0  0
   61.5692   29.8861   52.3000 C   0  0  0  0  0  0  0  0  0  0  0  0
   61.0443   30.0003   53.5979 C   0  0  0  0  0  0  0  0  0  0  0  0
   59.6641   29.9619   53.8085 C   0  0  0  0  0  0  0  0  0  0  0  0
   58.7860   29.8241   52.7254 C   0  0  0  0  0  0  0  0  0  0  0  0
   58.7729   29.5032   49.4735 H   0  0  0  0  0  0  0  0  0  0  0  0
   63.0328   29.9285   52.0930 C   0  0  0  0  0  0  0  0  0  0  0  0
   63.5896   31.0274   51.8263 O   0  0  0  0  0  0  0  0  0  0  0  0
   63.8442   28.7591   52.2340 N   0  0  0  0  0  0  0  0  0  0  0  0
   65.2832   28.4552   52.1516 C   0  0  0  0  0  0  0  0  0  0  0  0
   65.1807   27.0512   52.6437 C   0  0  0  0  0  0  0  0  0  0  0  0
   63.7256   27.3694   52.7154 C   0  0  0  0  0  0  0  0  0  0  0  0
   53.0153   30.7271   51.8780 C   0  0  0  0  0  0  0  0  0  0  0  0
   53.2057   29.8557   50.8728 N   0  0  0  0  0  0  0  0  0  0  0  0
   52.1422   30.0693   50.0681 C   0  0  0  0  0  0  0  0  0  0  0  0
   51.9543   29.4191   49.0078 O   0  0  0  0  0  0  0  0  0  0  0  0
   51.3035   31.0430   50.4819 N   0  0  0  0  0  0  0  0  0  0  0  0
   51.8777   31.4612   51.6214 C   0  0  0  0  0  0  0  0  0  0  0  0
   51.3879   32.5064   52.3942 O   0  0  0  0  0  0  0  0  0  0  0  0
  9 10  1  0
 10 11  2  0
 11 12  1  0
 12 17  1  0
 17 18  2  0
 17 19  1  0
 19 20  1  0
 20 21  1  0
 21 22  1  0
 12 13  2  0
 13 14  1  0
 14 15  2  0
 15  1  1  0
  1  2  1  0
  2  3  1  0
  2  4  2  0
  4  5  1  0
  5  6  2  0
  6 23  1  0
 23 24  1  0
 24 25  1  0
 25 26  2  0
 25 27  1  0
 27 28  1  0
 28 29  1  0
  5  7  1  0
  7  8  2  0
 15 10  1  0
  7  1  1  0
 22 19  1  0
 28 23  2  0
  9 16  1  0
M  CHG 1  24  -1
M  CHG 1  27  -1
M  CHG 1  29  -1
M  END
> <UniqueID>
67

> <SMILES>
C=c1/c(=C\c2[n-]c(=O)[n-]c2[O-])cc(C)n1-c1ccc(C(=O)N2CCC2)cc1O

> <Energy>
170.16262697050195

> <Genealogy>
C=c1c(=Cc2[n-]c(=O)[n-]c2[O-])cc(C)n1-c1ccc(C(=O)N2CCC2)cc1O (protonated)
C=c1/c(=C\c2[n-]c(=O)[n-]c2[O-])cc(C)n1-c1ccc(C(=O)N2CCC2)cc1O (cis-trans isomerization)
C=c1/c(=C\c2[n-]c(=O)[n-]c2[O-])cc(C)n1-c1ccc(C(=O)N2CCC2)cc1O (3D coordinates assigned)
C=c1/c(=C\c2[n-]c(=O)[n-]c2[O-])cc(C)n1-c1ccc(C(=O)N2CCC2)cc1O (nonaromatic ring conformer: 170.16262697050195 kcal/mol)

> <smiles>
C=c1c(=Cc2[nH]c(=O)[nH]c2O)cc(C)n1-c1ccc(C(=O)N2CCC2)cc1O

> <score_type>
oracle

> <origin>
adg

> <m_score__min__energy>
-15.74

> <m_primary>
energy

> <minimizedAffinity>
-4.67524

> <minimizedRMSD>
1.92296

> <CNNscore>
0.1404685676

> <CNNaffinity>
4.8516631126

> <CNN_VS>
0.6815061569

> <CNNaffinity_variance>
0.2227463275

$$$$
75:0


 34 37  0  0  0  0  0  0  0  0999 V2000
   58.5288   29.7944   52.8901 C   0  0  0  0  0  0  0  0  0  0  0  0
   59.2426   29.4612   51.7557 C   0  0  0  0  0  0  0  0  0  0  0  0
   60.5488   29.6499   52.0269 N   0  0  0  0  0  0  0  0  0  0  0  0
   60.6848   30.0627   53.2779 N   0  0  0  0  0  0  0  0  0  0  0  0
   59.4649   30.1635   53.8379 C   0  0  0  0  0  0  0  0  0  0  0  0
   61.5386   30.2632   53.7252 H   0  0  0  0  0  0  0  0  0  0  0  0
   56.3638   31.7212   52.1749 C   0  0  0  0  0  0  0  0  0  0  0  0
   56.1415   30.5522   52.7954 C   0  0  0  0  0  0  0  0  0  0  0  0
   54.8947   30.0459   53.1813 C   0  0  0  0  0  0  0  0  0  0  0  0
   53.7000   30.6608   53.0895 C   0  0  0  0  0  0  0  0  0  0  0  0
   55.1363   28.7945   53.7321 C   0  0  0  0  0  0  0  0  0  0  0  0
   56.4991   28.5873   53.6642 C   0  0  0  0  0  0  0  0  0  0  0  0
   57.1929   27.3617   54.1796 C   0  0  0  0  0  0  0  0  0  0  0  0
   57.1115   29.6483   53.0917 N   0  0  0  0  0  0  0  0  0  0  0  0
   52.8803   30.6898   51.8643 C   0  0  0  0  0  0  0  0  0  0  0  0
   53.0142   29.7968   50.8676 N   0  0  0  0  0  0  0  0  0  0  0  0
   52.0295   30.1375   50.0070 C   0  0  0  0  0  0  0  0  0  0  0  0
   51.8389   29.5287   48.9221 O   0  0  0  0  0  0  0  0  0  0  0  0
   51.2613   31.1731   50.4048 N   0  0  0  0  0  0  0  0  0  0  0  0
   51.8037   31.5039   51.5883 C   0  0  0  0  0  0  0  0  0  0  0  0
   51.2933   32.4980   52.4147 O   0  0  0  0  0  0  0  0  0  0  0  0
   61.6609   29.3174   51.1420 C   0  0  0  0  0  0  0  0  0  0  0  0
   61.9958   30.5057   50.2793 C   0  0  0  0  0  0  0  0  0  0  0  0
   62.9325   31.4483   50.7258 C   0  0  0  0  0  0  0  0  0  0  0  0
   63.2116   32.5802   49.9594 C   0  0  0  0  0  0  0  0  0  0  0  0
   62.5542   32.7872   48.7444 C   0  0  0  0  0  0  0  0  0  0  0  0
   61.6067   31.8552   48.2833 C   0  0  0  0  0  0  0  0  0  0  0  0
   61.3240   30.7221   49.0619 C   0  0  0  0  0  0  0  0  0  0  0  0
   60.3931   29.8346   48.6275 F   0  0  0  0  0  0  0  0  0  0  0  0
   60.9067   32.0136   47.0736 O   0  0  0  0  0  0  0  0  0  0  0  0
   59.6538   32.6787   46.9051 C   0  0  0  0  0  0  0  0  0  0  0  0
   59.8398   34.0365   46.2230 C   0  0  0  0  0  0  0  0  0  0  0  0
   58.9930   34.1603   45.0963 O   0  0  0  0  0  0  0  0  0  0  0  0
   57.6943   33.7021   45.4038 C   0  0  0  0  0  0  0  0  0  0  0  0
  7  8  2  0
  8  9  1  0
  9 10  2  0
 10 15  1  0
 15 16  1  0
 16 17  1  0
 17 18  2  0
 17 19  1  0
 19 20  1  0
 20 21  1  0
  9 11  1  0
 11 12  2  0
 12 13  1  0
 12 14  1  0
 14  1  1  0
  1  2  2  0
  2  3  1  0
  3 22  1  0
 22 23  1  0
 23 24  2  0
 24 25  1  0
 25 26  2  0
 26 27  1  0
 27 30  1  0
 30 31  1  0
 31 32  1  0
 32 33  1  0
 33 34  1  0
 27 28  2  0
 28 29  1  0
  3  4  1  0
  4  5  2  0
 14  8  1  0
  5  1  1  0
 20 15  2  0
 28 23  1  0
  4  6  1  0
M  CHG 1   4   1
M  CHG 1  16  -1
M  CHG 1  19  -1
M  CHG 1  21  -1
M  END
> <UniqueID>
74

> <SMILES>
C=c1/c(=C/c2[n-]c(=O)[n-]c2[O-])cc(C)n1-c1c[nH+]n(Cc2cccc(OCCOC)c2F)c1

> <Energy>
160.36651722125848

> <Genealogy>
C=c1c(=Cc2[n-]c(=O)[n-]c2[O-])cc(C)n1-c1c[nH+]n(Cc2cccc(OCCOC)c2F)c1 (protonated)
C=c1/c(=C/c2[n-]c(=O)[n-]c2[O-])cc(C)n1-c1c[nH+]n(Cc2cccc(OCCOC)c2F)c1 (cis-trans isomerization)
C=c1/c(=C/c2[n-]c(=O)[n-]c2[O-])cc(C)n1-c1c[nH+]n(Cc2cccc(OCCOC)c2F)c1 (3D coordinates assigned)
C=c1/c(=C/c2[n-]c(=O)[n-]c2[O-])cc(C)n1-c1c[nH+]n(Cc2cccc(OCCOC)c2F)c1 (optimized conformer: 160.36651722125848 kcal/mol)

> <smiles>
C=c1c(=Cc2[nH]c(=O)[nH]c2O)cc(C)n1-c1cnn(Cc2cccc(OCCOC)c2F)c1

> <score_type>
oracle

> <origin>
adg

> <m_score__min__energy>
-16.010000000000002

> <m_primary>
energy

> <minimizedAffinity>
-6.13804

> <minimizedRMSD>
1.42759

> <CNNscore>
0.0504014082

> <CNNaffinity>
5.2099223137

> <CNN_VS>
0.2625874281

> <CNNaffinity_variance>
1.2849264145

$$$$
79:0


 39 43  0  0  0  0  0  0  0  0999 V2000
   59.3203   30.3068   47.3762 C   0  0  0  0  0  0  0  0  0  0  0  0
   59.8894   31.2372   46.4932 C   0  0  0  0  0  0  0  0  0  0  0  0
   60.4296   32.4284   46.9818 C   0  0  0  0  0  0  0  0  0  0  0  0
   60.3589   32.7241   48.3464 C   0  0  0  0  0  0  0  0  0  0  0  0
   59.7677   31.8114   49.2363 C   0  0  0  0  0  0  0  0  0  0  0  0
   59.2716   30.5928   48.7474 C   0  0  0  0  0  0  0  0  0  0  0  0
   59.7895   27.5771   48.4646 C   0  0  0  0  0  0  0  0  0  0  0  0
   58.9619   27.8251   47.4320 C   0  0  0  0  0  0  0  0  0  0  0  0
   58.1985   26.8922   46.7091 C   0  0  0  0  0  0  0  0  0  0  0  0
   57.9518   25.5846   46.9355 C   0  0  0  0  0  0  0  0  0  0  0  0
   57.6248   27.5919   45.6571 C   0  0  0  0  0  0  0  0  0  0  0  0
   57.9946   28.9126   45.8052 C   0  0  0  0  0  0  0  0  0  0  0  0
   57.5185   30.0360   44.9344 C   0  0  0  0  0  0  0  0  0  0  0  0
   58.7972   29.0592   46.8852 N   0  0  0  0  0  0  0  0  0  0  0  0
   57.3678   24.6304   45.9662 C   0  0  0  0  0  0  0  0  0  0  0  0
   56.0146   24.7044   45.5885 C   0  0  0  0  0  0  0  0  0  0  0  0
   55.1659   25.6427   46.1699 O   0  0  0  0  0  0  0  0  0  0  0  0
   55.5266   23.8640   44.6399 N   0  0  0  0  0  0  0  0  0  0  0  0
   56.3341   22.9664   44.0170 C   0  0  0  0  0  0  0  0  0  0  0  0
   55.8616   22.2047   43.1342 O   0  0  0  0  0  0  0  0  0  0  0  0
   57.6501   22.8979   44.3409 N   0  0  0  0  0  0  0  0  0  0  0  0
   58.1846   23.7078   45.2937 C   0  0  0  0  0  0  0  0  0  0  0  0
   59.4113   23.6153   45.5738 O   0  0  0  0  0  0  0  0  0  0  0  0
   59.7516   32.0683   50.6908 C   0  0  0  0  0  0  0  0  0  0  0  0
   58.7210   32.6062   51.1813 O   0  0  0  0  0  0  0  0  0  0  0  0
   60.8597   31.7317   51.5660 N   0  0  0  0  0  0  0  0  0  0  0  0
   61.5536   32.9259   52.1028 C   0  0  0  0  0  0  0  0  0  0  0  0
   62.6030   33.5400   51.1425 C   0  0  0  0  0  0  0  0  0  0  0  0
   63.1065   32.5792   50.1292 N   0  0  0  0  0  0  0  0  0  0  0  0
   63.1746   31.2181   50.6858 C   0  0  0  0  0  0  0  0  0  0  0  0
   61.7556   30.7052   50.9652 C   0  0  0  0  0  0  0  0  0  0  0  0
   60.2800   32.5162   51.6987 H   0  0  0  0  0  0  0  0  0  0  0  0
   64.4339   32.9892   49.6166 C   0  0  0  0  0  0  0  0  0  0  0  0
   65.4846   32.8616   50.6932 C   0  0  0  0  0  0  0  0  0  0  0  0
   66.3364   31.7493   50.7012 C   0  0  0  0  0  0  0  0  0  0  0  0
   67.3508   31.6483   51.6559 C   0  0  0  0  0  0  0  0  0  0  0  0
   67.5050   32.6488   52.6280 C   0  0  0  0  0  0  0  0  0  0  0  0
   66.6499   33.7551   52.6402 C   0  0  0  0  0  0  0  0  0  0  0  0
   65.6438   33.8653   51.6730 C   0  0  0  0  0  0  0  0  0  0  0  0
  7  8  2  0
  8  9  1  0
  9 10  2  0
 10 15  1  0
 15 16  2  0
 16 17  1  0
 16 18  1  0
 18 19  1  0
 19 20  2  0
 19 21  1  0
 21 22  1  0
 22 23  2  0
  9 11  1  0
 11 12  2  0
 12 13  1  0
 12 14  1  0
 14  1  1  0
  1  2  2  0
  2  3  1  0
  3  4  2  0
  4  5  1  0
  5 24  1  0
 24 25  2  0
 24 26  1  0
 26 27  1  0
 27 28  1  0
 28 29  1  0
 29 33  1  0
 33 34  1  0
 34 35  2  0
 35 36  1  0
 36 37  2  0
 37 38  1  0
 38 39  2  0
 29 30  1  0
 30 31  1  0
  5  6  2  0
 14  8  1  0
  6  1  1  0
 22 15  1  0
 31 26  1  0
 39 34  1  0
 26 32  1  0
M  CHG 1  17  -1
M  CHG 1  18  -1
M  CHG 1  21  -1
M  CHG 1  26   1
M  END
> <UniqueID>
78

> <SMILES>
C=c1/c(=C\c2c([O-])[n-]c(=O)[n-]c2=O)cc(C)n1-c1cccc(C(=O)[NH+]2CCN(Cc3ccccc3)CC2)c1

> <Energy>
138.89437706734063

> <Genealogy>
C=c1c(=Cc2c([O-])[n-]c(=O)[n-]c2=O)cc(C)n1-c1cccc(C(=O)[NH+]2CCN(Cc3ccccc3)CC2)c1 (protonated)
C=c1/c(=C\c2c([O-])[n-]c(=O)[n-]c2=O)cc(C)n1-c1cccc(C(=O)[NH+]2CCN(Cc3ccccc3)CC2)c1 (cis-trans isomerization)
C=c1/c(=C\c2c([O-])[n-]c(=O)[n-]c2=O)cc(C)n1-c1cccc(C(=O)[NH+]2CCN(Cc3ccccc3)CC2)c1 (3D coordinates assigned)
C=c1/c(=C\c2c([O-])[n-]c(=O)[n-]c2=O)cc(C)n1-c1cccc(C(=O)[NH+]2CCN(Cc3ccccc3)CC2)c1 (nonaromatic ring conformer: 138.89437706734063 kcal/mol)

> <smiles>
C=c1c(=Cc2c(O)[nH]c(=O)[nH]c2=O)cc(C)n1-c1cccc(C(=O)N2CCN(Cc3ccccc3)CC2)c1

> <score_type>
oracle

> <origin>
adg

> <m_score__min__energy>
-16.420000000000002

> <m_primary>
energy

> <minimizedAffinity>
-9.51641

> <minimizedRMSD>
0.92900

> <CNNscore>
0.1588851362

> <CNNaffinity>
6.6624379158

> <CNN_VS>
1.0585623980

> <CNNaffinity_variance>
0.0675613806

$$$$
85:0


 31 34  0  0  0  0  0  0  0  0999 V2000
   58.6721   30.5750   45.3329 C   0  0  0  0  0  0  0  0  0  0  0  0
   58.2547   31.4040   44.2804 C   0  0  0  0  0  0  0  0  0  0  0  0
   58.2256   32.7891   44.4426 C   0  0  0  0  0  0  0  0  0  0  0  0
   58.6305   33.3609   45.6507 C   0  0  0  0  0  0  0  0  0  0  0  0
   59.0647   32.5476   46.7078 C   0  0  0  0  0  0  0  0  0  0  0  0
   59.0584   31.1478   46.5639 C   0  0  0  0  0  0  0  0  0  0  0  0
   59.4143   30.3446   47.6514 O   0  0  0  0  0  0  0  0  0  0  0  0
   59.6685   30.7396   48.4622 H   0  0  0  0  0  0  0  0  0  0  0  0
   56.3856   28.7173   45.0710 C   0  0  0  0  0  0  0  0  0  0  0  0
   57.6607   28.3236   44.9346 C   0  0  0  0  0  0  0  0  0  0  0  0
   58.1316   27.0133   44.7543 C   0  0  0  0  0  0  0  0  0  0  0  0
   57.4798   25.8754   44.4461 C   0  0  0  0  0  0  0  0  0  0  0  0
   59.5064   27.0677   44.9279 C   0  0  0  0  0  0  0  0  0  0  0  0
   59.8328   28.3933   45.1186 C   0  0  0  0  0  0  0  0  0  0  0  0
   61.2217   28.9107   45.3376 C   0  0  0  0  0  0  0  0  0  0  0  0
   58.7151   29.1523   45.1302 N   0  0  0  0  0  0  0  0  0  0  0  0
   56.9993   24.8726   45.4132 C   0  0  0  0  0  0  0  0  0  0  0  0
   57.7194   23.8281   45.8597 N   0  0  0  0  0  0  0  0  0  0  0  0
   56.9271   23.2851   46.8112 C   0  0  0  0  0  0  0  0  0  0  0  0
   57.2537   22.2547   47.4546 O   0  0  0  0  0  0  0  0  0  0  0  0
   55.7617   23.9351   47.0164 N   0  0  0  0  0  0  0  0  0  0  0  0
   55.8339   24.9462   46.1357 C   0  0  0  0  0  0  0  0  0  0  0  0
   54.8513   25.9164   45.9967 O   0  0  0  0  0  0  0  0  0  0  0  0
   59.5218   33.1761   47.9597 C   0  0  0  0  0  0  0  0  0  0  0  0
   58.6523   33.6715   48.7287 O   0  0  0  0  0  0  0  0  0  0  0  0
   60.9250   33.2396   48.3098 N   0  0  0  0  0  0  0  0  0  0  0  0
   61.9505   32.6766   47.4198 C   0  0  0  0  0  0  0  0  0  0  0  0
   63.2936   33.3828   47.6285 C   0  0  0  0  0  0  0  0  0  0  0  0
   63.6325   33.4183   48.9989 O   0  0  0  0  0  0  0  0  0  0  0  0
   62.7095   34.2369   49.6888 C   0  0  0  0  0  0  0  0  0  0  0  0
   61.3145   33.6069   49.6783 C   0  0  0  0  0  0  0  0  0  0  0  0
  9 10  2  0
 10 11  1  0
 11 12  2  0
 12 17  1  0
 17 18  1  0
 18 19  1  0
 19 20  2  0
 19 21  1  0
 21 22  1  0
 22 23  1  0
 11 13  1  0
 13 14  2  0
 14 15  1  0
 14 16  1  0
 16  1  1  0
  1  2  2  0
  2  3  1  0
  3  4  2  0
  4  5  1  0
  5 24  1  0
 24 25  2  0
 24 26  1  0
 26 27  1  0
 27 28  1  0
 28 29  1  0
 29 30  1  0
 30 31  1  0
  5  6  2  0
  6  7  1  0
 16 10  1  0
  6  1  1  0
 22 17  2  0
 31 26  1  0
  7  8  1  0
M  CHG 1  18  -1
M  CHG 1  21  -1
M  CHG 1  23  -1
M  END
> <UniqueID>
84

> <SMILES>
C=c1c(=Cc2[n-]c(=O)[n-]c2[O-])cc(C)n1-c1cccc(C(=O)N2CCOCC2)c1O

> <Energy>
135.5752704177391

> <Genealogy>
C=c1c(=Cc2[n-]c(=O)[n-]c2[O-])cc(C)n1-c1cccc(C(=O)N2CCOCC2)c1O (protonated)
C=c1c(=Cc2[n-]c(=O)[n-]c2[O-])cc(C)n1-c1cccc(C(=O)N2CCOCC2)c1O (3D coordinates assigned)
C=c1c(=Cc2[n-]c(=O)[n-]c2[O-])cc(C)n1-c1cccc(C(=O)N2CCOCC2)c1O (nonaromatic ring conformer: 135.5752704177391 kcal/mol)

> <smiles>
C=c1c(=Cc2[nH]c(=O)[nH]c2O)cc(C)n1-c1cccc(C(=O)N2CCOCC2)c1O

> <score_type>
oracle

> <origin>
adg

> <m_score__min__energy>
-16.399999999999999

> <m_primary>
energy

> <minimizedAffinity>
-7.41591

> <minimizedRMSD>
0.63084

> <CNNscore>
0.2211168408

> <CNNaffinity>
6.4136428833

> <CNN_VS>
1.4181644917

> <CNNaffinity_variance>
0.0189330727

$$$$
2:0


 27 29  0  0  0  0  0  0  0  0999 V2000
   58.9790   28.5525   47.4520 C   0  0  0  0  0  0  0  0  0  0  0  0
   58.4101   29.2053   46.4246 C   0  0  0  0  0  0  0  0  0  0  0  0
   57.7061   28.6445   45.3454 C   0  0  0  0  0  0  0  0  0  0  0  0
   57.4739   27.3613   44.9956 C   0  0  0  0  0  0  0  0  0  0  0  0
   57.2744   29.7474   44.6162 C   0  0  0  0  0  0  0  0  0  0  0  0
   56.4854   29.7333   43.3439 C   0  0  0  0  0  0  0  0  0  0  0  0
   57.7164   30.8794   45.1909 N   0  0  0  0  0  0  0  0  0  0  0  0
   58.3946   30.5596   46.2806 N   0  0  0  0  0  0  0  0  0  0  0  0
   58.9476   31.5777   47.1345 C   0  0  0  0  0  0  0  0  0  0  0  0
   58.3081   31.9965   48.1353 O   0  0  0  0  0  0  0  0  0  0  0  0
   57.3886   26.2201   45.9245 C   0  0  0  0  0  0  0  0  0  0  0  0
   56.1414   25.7422   46.3479 C   0  0  0  0  0  0  0  0  0  0  0  0
   54.9681   26.3692   45.9425 O   0  0  0  0  0  0  0  0  0  0  0  0
   56.0713   24.6624   47.1691 N   0  0  0  0  0  0  0  0  0  0  0  0
   57.1958   24.0206   47.5783 C   0  0  0  0  0  0  0  0  0  0  0  0
   57.1073   23.0248   48.3432 O   0  0  0  0  0  0  0  0  0  0  0  0
   58.4147   24.4486   47.1611 N   0  0  0  0  0  0  0  0  0  0  0  0
   58.5367   25.5235   46.3404 C   0  0  0  0  0  0  0  0  0  0  0  0
   59.6830   25.8822   45.9563 O   0  0  0  0  0  0  0  0  0  0  0  0
   60.1906   32.1930   46.7691 N   0  0  0  0  0  0  0  0  0  0  0  0
   61.3763   32.2659   47.5755 C   0  0  0  0  0  0  0  0  0  0  0  0
   62.3831   33.2178   47.3385 C   0  0  0  0  0  0  0  0  0  0  0  0
   63.5105   33.2698   48.1617 C   0  0  0  0  0  0  0  0  0  0  0  0
   63.6493   32.3741   49.2322 C   0  0  0  0  0  0  0  0  0  0  0  0
   64.8407   32.4581   50.1402 C   0  0  0  0  0  0  0  0  0  0  0  0
   62.6243   31.4530   49.4936 C   0  0  0  0  0  0  0  0  0  0  0  0
   61.4960   31.4009   48.6702 C   0  0  0  0  0  0  0  0  0  0  0  0
  1  2  2  0
  2  3  1  0
  3  4  2  0
  4 11  1  0
 11 12  2  0
 12 13  1  0
 12 14  1  0
 14 15  1  0
 15 16  2  0
 15 17  1  0
 17 18  1  0
 18 19  2  0
  3  5  1  0
  5  6  1  0
  5  7  2  0
  7  8  1  0
  8  9  1  0
  9 10  2  0
  9 20  1  0
 20 21  1  0
 21 22  2  0
 22 23  1  0
 23 24  2  0
 24 25  1  0
 24 26  1  0
 26 27  2  0
  8  2  1  0
 27 21  1  0
 18 11  1  0
M  CHG 1  13  -1
M  CHG 1  14  -1
M  CHG 1  17  -1
M  CHG 1  20  -1
M  END
> <UniqueID>
2

> <SMILES>
C=c1c(=Cc2c([O-])[n-]c(=O)[n-]c2=O)c(C)nn1C(=O)[N-]c1ccc(C)cc1

> <Energy>
95.79162949245587

> <Genealogy>
C=c1c(=Cc2c([O-])[n-]c(=O)[n-]c2=O)c(C)nn1C(=O)[N-]c1ccc(C)cc1 (protonated)
C=c1c(=Cc2c([O-])[n-]c(=O)[n-]c2=O)c(C)nn1C(=O)[N-]c1ccc(C)cc1 (3D coordinates assigned)
C=c1c(=Cc2c([O-])[n-]c(=O)[n-]c2=O)c(C)nn1C(=O)[N-]c1ccc(C)cc1 (optimized conformer: 95.79162949245587 kcal/mol)

> <smiles>
C=c1c(=Cc2c(O)[nH]c(=O)[nH]c2=O)c(C)nn1C(=O)Nc1ccc(C)cc1

> <score_type>
oracle

> <origin>
adg

> <m_score__min__energy>
-17.300000000000001

> <m_primary>
energy

> <minimizedAffinity>
-7.78199

> <minimizedRMSD>
0.94292

> <CNNscore>
0.1777779013

> <CNNaffinity>
6.4106707573

> <CNN_VS>
1.1396756172

> <CNNaffinity_variance>
0.0620763041

$$$$
13:0


 27 29  0  0  0  0  0  0  0  0999 V2000
   58.0934   26.2625   47.4978 C   0  0  0  0  0  0  0  0  0  0  0  0
   58.0658   26.1168   46.1642 C   0  0  0  0  0  0  0  0  0  0  0  0
   57.5944   25.0158   45.4274 C   0  0  0  0  0  0  0  0  0  0  0  0
   57.1753   23.7984   45.8231 C   0  0  0  0  0  0  0  0  0  0  0  0
   57.6386   25.3946   44.0935 C   0  0  0  0  0  0  0  0  0  0  0  0
   58.1679   26.6664   44.0556 C   0  0  0  0  0  0  0  0  0  0  0  0
   58.3778   27.4748   42.8119 C   0  0  0  0  0  0  0  0  0  0  0  0
   58.4369   27.0991   45.3058 N   0  0  0  0  0  0  0  0  0  0  0  0
   55.7712   23.3475   45.8656 C   0  0  0  0  0  0  0  0  0  0  0  0
   54.7094   24.2714   45.8120 C   0  0  0  0  0  0  0  0  0  0  0  0
   54.9348   25.6478   45.7773 O   0  0  0  0  0  0  0  0  0  0  0  0
   53.4278   23.8204   45.8059 N   0  0  0  0  0  0  0  0  0  0  0  0
   53.1443   22.4939   45.8367 C   0  0  0  0  0  0  0  0  0  0  0  0
   51.9485   22.1061   45.8342 O   0  0  0  0  0  0  0  0  0  0  0  0
   54.1523   21.5850   45.8665 N   0  0  0  0  0  0  0  0  0  0  0  0
   55.4505   21.9772   45.8735 C   0  0  0  0  0  0  0  0  0  0  0  0
   56.3606   21.1053   45.8823 O   0  0  0  0  0  0  0  0  0  0  0  0
   55.8112   25.9792   45.7808 H   0  0  0  0  0  0  0  0  0  0  0  0
   58.9094   28.4147   45.6433 C   0  0  0  0  0  0  0  0  0  0  0  0
   60.2128   28.5473   46.1458 C   0  0  0  0  0  0  0  0  0  0  0  0
   60.7028   29.7976   46.5226 C   0  0  0  0  0  0  0  0  0  0  0  0
   59.8955   30.9266   46.4054 C   0  0  0  0  0  0  0  0  0  0  0  0
   58.5950   30.8111   45.9066 C   0  0  0  0  0  0  0  0  0  0  0  0
   58.0817   29.5600   45.5138 C   0  0  0  0  0  0  0  0  0  0  0  0
   56.6996   29.4839   44.9687 C   0  0  0  0  0  0  0  0  0  0  0  0
   56.2501   30.4173   44.2527 O   0  0  0  0  0  0  0  0  0  0  0  0
   55.8850   28.3864   45.2167 O   0  0  0  0  0  0  0  0  0  0  0  0
  1  2  2  0
  2  3  1  0
  3  4  2  0
  4  9  1  0
  9 10  2  0
 10 11  1  0
 10 12  1  0
 12 13  1  0
 13 14  2  0
 13 15  1  0
 15 16  1  0
 16 17  2  0
  3  5  1  0
  5  6  2  0
  6  7  1  0
  6  8  1  0
  8 19  1  0
 19 20  2  0
 20 21  1  0
 21 22  2  0
 22 23  1  0
 23 24  2  0
 24 25  1  0
 25 26  2  0
 25 27  1  0
  8  2  1  0
 24 19  1  0
 16  9  1  0
 11 18  1  0
M  CHG 1  12  -1
M  CHG 1  15  -1
M  CHG 1  27  -1
M  END
> <UniqueID>
13

> <SMILES>
C=c1c(=Cc2c(O)[n-]c(=O)[n-]c2=O)cc(C)n1-c1ccccc1C(=O)[O-]

> <Energy>
93.08484446646315

> <Genealogy>
C=c1c(=Cc2c(O)[n-]c(=O)[n-]c2=O)cc(C)n1-c1ccccc1C(=O)[O-] (protonated)
C=c1c(=Cc2c(O)[n-]c(=O)[n-]c2=O)cc(C)n1-c1ccccc1C(=O)[O-] (3D coordinates assigned)
C=c1c(=Cc2c(O)[n-]c(=O)[n-]c2=O)cc(C)n1-c1ccccc1C(=O)[O-] (optimized conformer: 93.08484446646315 kcal/mol)

> <smiles>
C=c1c(=Cc2c(O)[nH]c(=O)[nH]c2=O)cc(C)n1-c1ccccc1C(=O)O

> <score_type>
oracle

> <origin>
adg

> <m_score__min__energy>
-15.35

> <m_primary>
energy

> <minimizedAffinity>
-6.04877

> <minimizedRMSD>
0.78153

> <CNNscore>
0.1409246325

> <CNNaffinity>
5.4734997749

> <CNN_VS>
0.7713509202

> <CNNaffinity_variance>
0.0106218262

$$$$
16:0


 28 30  0  0  0  0  0  0  0  0999 V2000
   58.7055   30.3622   52.5437 N   0  0  0  0  0  0  0  0  0  0  0  0
   57.4148   30.3635   52.7155 C   0  0  0  0  0  0  0  0  0  0  0  0
   56.8754   29.7665   53.8595 C   0  0  0  0  0  0  0  0  0  0  0  0
   55.4907   29.7561   54.0418 C   0  0  0  0  0  0  0  0  0  0  0  0
   54.6517   30.3417   53.0845 C   0  0  0  0  0  0  0  0  0  0  0  0
   55.2301   30.9095   51.9402 C   0  0  0  0  0  0  0  0  0  0  0  0
   56.5799   30.9059   51.7841 N   0  0  0  0  0  0  0  0  0  0  0  0
   59.4162   29.6935   51.4878 C   0  0  0  0  0  0  0  0  0  0  0  0
   60.1075   28.6806   51.7763 O   0  0  0  0  0  0  0  0  0  0  0  0
   59.3799   31.1516   47.4398 C   0  0  0  0  0  0  0  0  0  0  0  0
   59.4767   32.0411   48.5163 C   0  0  0  0  0  0  0  0  0  0  0  0
   59.4859   31.5675   49.8314 C   0  0  0  0  0  0  0  0  0  0  0  0
   59.4102   30.1906   50.0916 C   0  0  0  0  0  0  0  0  0  0  0  0
   59.2890   29.2983   49.0117 C   0  0  0  0  0  0  0  0  0  0  0  0
   59.2800   29.7729   47.6967 C   0  0  0  0  0  0  0  0  0  0  0  0
   59.3813   31.6855   46.1087 N   0  0  0  0  0  0  0  0  0  0  0  0
   57.2455   33.6064   45.8945 C   0  0  0  0  0  0  0  0  0  0  0  0
   57.9789   32.1413   45.1974 S   0  0  0  0  0  0  0  0  0  0  0  0
   58.3498   32.3724   43.7606 O   0  0  0  0  0  0  0  0  0  0  0  0
   56.9754   31.0246   45.2644 O   0  0  0  0  0  0  0  0  0  0  0  0
   53.1580   30.3075   53.2482 C   0  0  0  0  0  0  0  0  0  0  0  0
   52.4878   30.5134   51.9251 C   0  0  0  0  0  0  0  0  0  0  0  0
   52.5543   29.4400   50.6271 S   0  0  0  0  0  0  0  0  0  0  0  0
   51.5138   30.3755   49.6957 C   0  0  0  0  0  0  0  0  0  0  0  0
   51.1511   30.0822   48.5275 O   0  0  0  0  0  0  0  0  0  0  0  0
   51.0926   31.4848   50.3386 N   0  0  0  0  0  0  0  0  0  0  0  0
   51.6311   31.5589   51.5841 C   0  0  0  0  0  0  0  0  0  0  0  0
   51.3353   32.6057   52.4463 O   0  0  0  0  0  0  0  0  0  0  0  0
 17 18  1  0
 18 19  2  0
 18 20  2  0
 18 16  1  0
 16 10  1  0
 10 11  2  0
 11 12  1  0
 12 13  2  0
 13  8  1  0
  8  9  2  0
  8  1  1  0
  1  2  2  0
  2  3  1  0
  3  4  2  0
  4  5  1  0
  5 21  1  0
 21 22  1  0
 22 23  1  0
 23 24  1  0
 24 25  2  0
 24 26  1  0
 26 27  1  0
 27 28  1  0
  5  6  2  0
  6  7  1  0
 13 14  1  0
 14 15  2  0
 15 10  1  0
  7  2  1  0
 27 22  2  0
M  CHG 1   7  -1
M  CHG 1  16  -1
M  CHG 1  26  -1
M  CHG 1  28  -1
M  END
> <UniqueID>
16

> <SMILES>
CS(=O)(=O)[N-]c1ccc(C(=O)N=c2ccc(Cc3sc(=O)[n-]c3[O-])c[n-]2)cc1

> <Energy>
79.1417681189655

> <Genealogy>
CS(=O)(=O)[N-]c1ccc(C(=O)N=c2ccc(Cc3sc(=O)[n-]c3[O-])c[n-]2)cc1 (protonated)
CS(=O)(=O)[N-]c1ccc(C(=O)N=c2ccc(Cc3sc(=O)[n-]c3[O-])c[n-]2)cc1 (3D coordinates assigned)
CS(=O)(=O)[N-]c1ccc(C(=O)N=c2ccc(Cc3sc(=O)[n-]c3[O-])c[n-]2)cc1 (optimized conformer: 79.1417681189655 kcal/mol)

> <smiles>
CS(=O)(=O)Nc1ccc(C(=O)N=c2ccc(Cc3sc(=O)[nH]c3O)c[nH]2)cc1

> <score_type>
oracle

> <origin>
adg

> <m_score__min__energy>
-18.280000000000001

> <m_primary>
energy

> <minimizedAffinity>
-4.65429

> <minimizedRMSD>
0.75975

> <CNNscore>
0.1774242669

> <CNNaffinity>
5.5152072906

> <CNN_VS>
0.9785315990

> <CNNaffinity_variance>
0.1516467929

$$$$
45:0


 31 34  0  0  0  0  0  0  0  0999 V2000
   58.2035   29.8212   44.7646 C   0  0  0  0  0  0  0  0  0  0  0  0
   58.4274   29.2086   45.9392 C   0  0  0  0  0  0  0  0  0  0  0  0
   58.2494   27.8452   46.1971 C   0  0  0  0  0  0  0  0  0  0  0  0
   57.7964   26.9009   45.3495 C   0  0  0  0  0  0  0  0  0  0  0  0
   58.5823   27.6507   47.5286 C   0  0  0  0  0  0  0  0  0  0  0  0
   58.9607   28.8811   48.0253 C   0  0  0  0  0  0  0  0  0  0  0  0
   59.3332   29.1271   49.4573 C   0  0  0  0  0  0  0  0  0  0  0  0
   58.8689   29.8334   47.0662 N   0  0  0  0  0  0  0  0  0  0  0  0
   57.3796   25.5478   45.7827 C   0  0  0  0  0  0  0  0  0  0  0  0
   56.0473   25.2619   46.1290 C   0  0  0  0  0  0  0  0  0  0  0  0
   55.0686   26.2475   46.0716 O   0  0  0  0  0  0  0  0  0  0  0  0
   55.7083   24.0133   46.5430 N   0  0  0  0  0  0  0  0  0  0  0  0
   56.6393   23.0318   46.6487 C   0  0  0  0  0  0  0  0  0  0  0  0
   56.3009   21.8816   47.0319 O   0  0  0  0  0  0  0  0  0  0  0  0
   57.9374   23.2909   46.3482 N   0  0  0  0  0  0  0  0  0  0  0  0
   58.3288   24.5226   45.9268 C   0  0  0  0  0  0  0  0  0  0  0  0
   59.5426   24.7278   45.6594 O   0  0  0  0  0  0  0  0  0  0  0  0
   59.1353   31.2678   47.2672 C   0  0  0  0  0  0  0  0  0  0  0  0
   60.3839   31.4681   48.0858 C   0  0  0  0  0  0  0  0  0  0  0  0
   60.3005   31.9240   49.4118 C   0  0  0  0  0  0  0  0  0  0  0  0
   61.4612   32.1243   50.1651 C   0  0  0  0  0  0  0  0  0  0  0  0
   62.7218   31.8663   49.6059 C   0  0  0  0  0  0  0  0  0  0  0  0
   62.8070   31.4137   48.2817 C   0  0  0  0  0  0  0  0  0  0  0  0
   61.6474   31.2123   47.5277 C   0  0  0  0  0  0  0  0  0  0  0  0
   63.9182   32.0870   50.3708 N   0  0  0  0  0  0  0  0  0  0  0  0
   64.5200   33.4273   50.3413 C   0  0  0  0  0  0  0  0  0  0  0  0
   65.9781   33.4106   50.8023 C   0  0  0  0  0  0  0  0  0  0  0  0
   66.0951   32.7095   52.1549 C   0  0  0  0  0  0  0  0  0  0  0  0
   65.6765   31.2435   52.0387 C   0  0  0  0  0  0  0  0  0  0  0  0
   64.3669   31.0912   51.3167 C   0  0  0  0  0  0  0  0  0  0  0  0
   63.7086   30.0278   51.4809 O   0  0  0  0  0  0  0  0  0  0  0  0
  1  2  2  0
  2  3  1  0
  3  4  2  0
  4  9  1  0
  9 10  2  0
 10 11  1  0
 10 12  1  0
 12 13  1  0
 13 14  2  0
 13 15  1  0
 15 16  1  0
 16 17  2  0
  3  5  1  0
  5  6  2  0
  6  7  1  0
  6  8  1  0
  8 18  1  0
 18 19  1  0
 19 20  2  0
 20 21  1  0
 21 22  2  0
 22 25  1  0
 25 26  1  0
 26 27  1  0
 27 28  1  0
 28 29  1  0
 29 30  1  0
 30 31  2  0
 22 23  1  0
 23 24  2  0
  8  2  1  0
 24 19  1  0
 16  9  1  0
 30 25  1  0
M  CHG 1  11  -1
M  CHG 1  12  -1
M  CHG 1  15  -1
M  END
> <UniqueID>
41

> <SMILES>
C=c1c(=Cc2c([O-])[n-]c(=O)[n-]c2=O)cc(C)n1Cc1ccc(N2CCCCC2=O)cc1

> <Energy>
97.38681067485298

> <Genealogy>
C=c1c(=Cc2c([O-])[n-]c(=O)[n-]c2=O)cc(C)n1Cc1ccc(N2CCCCC2=O)cc1 (protonated)
C=c1c(=Cc2c([O-])[n-]c(=O)[n-]c2=O)cc(C)n1Cc1ccc(N2CCCCC2=O)cc1 (3D coordinates assigned)
C=c1c(=Cc2c([O-])[n-]c(=O)[n-]c2=O)cc(C)n1Cc1ccc(N2CCCCC2=O)cc1 (nonaromatic ring conformer: 97.38681067485298 kcal/mol)

> <smiles>
C=c1c(=Cc2c(O)[nH]c(=O)[nH]c2=O)cc(C)n1Cc1ccc(N2CCCCC2=O)cc1

> <score_type>
oracle

> <origin>
adg

> <m_score__min__energy>
-16.370000000000001

> <m_primary>
energy

> <minimizedAffinity>
-7.63991

> <minimizedRMSD>
0.74639

> <CNNscore>
0.1455268860

> <CNNaffinity>
6.3564643860

> <CNN_VS>
0.9250364900

> <CNNaffinity_variance>
0.0461340100

$$$$
52:0


 33 36  0  0  0  0  0  0  0  0999 V2000
   61.1587   30.2949   50.3313 C   0  0  0  0  0  0  0  0  0  0  0  0
   61.9348   29.3258   50.9823 C   0  0  0  0  0  0  0  0  0  0  0  0
   62.0507   29.3285   52.3725 C   0  0  0  0  0  0  0  0  0  0  0  0
   61.3904   30.2998   53.1262 C   0  0  0  0  0  0  0  0  0  0  0  0
   60.6096   31.2681   52.4919 C   0  0  0  0  0  0  0  0  0  0  0  0
   60.4783   31.2773   51.0918 C   0  0  0  0  0  0  0  0  0  0  0  0
   59.8263   28.3027   48.5816 C   0  0  0  0  0  0  0  0  0  0  0  0
   60.4446   29.3930   48.1028 C   0  0  0  0  0  0  0  0  0  0  0  0
   60.6497   29.7345   46.7561 C   0  0  0  0  0  0  0  0  0  0  0  0
   60.1560   29.2023   45.6222 C   0  0  0  0  0  0  0  0  0  0  0  0
   61.5030   30.8277   46.7598 C   0  0  0  0  0  0  0  0  0  0  0  0
   61.7375   31.1485   48.0795 C   0  0  0  0  0  0  0  0  0  0  0  0
   62.5953   32.2836   48.5497 C   0  0  0  0  0  0  0  0  0  0  0  0
   61.0948   30.2848   48.8934 N   0  0  0  0  0  0  0  0  0  0  0  0
   59.0121   28.2793   45.5350 C   0  0  0  0  0  0  0  0  0  0  0  0
   59.0963   26.9401   45.6471 N   0  0  0  0  0  0  0  0  0  0  0  0
   57.8035   26.5468   45.6466 C   0  0  0  0  0  0  0  0  0  0  0  0
   57.4651   25.3379   45.7223 O   0  0  0  0  0  0  0  0  0  0  0  0
   56.9051   27.5514   45.5718 N   0  0  0  0  0  0  0  0  0  0  0  0
   57.6869   28.6416   45.5163 C   0  0  0  0  0  0  0  0  0  0  0  0
   57.1995   29.9398   45.4564 O   0  0  0  0  0  0  0  0  0  0  0  0
   59.6175   32.2958   50.4454 C   0  0  0  0  0  0  0  0  0  0  0  0
   58.3683   32.2518   50.6061 O   0  0  0  0  0  0  0  0  0  0  0  0
   60.1955   33.3275   49.6338 N   0  0  0  0  0  0  0  0  0  0  0  0
   61.1683   33.3350   49.4830 H   0  0  0  0  0  0  0  0  0  0  0  0
   59.3674   34.3687   49.0259 C   0  0  0  0  0  0  0  0  0  0  0  0
   59.0836   34.0456   47.5847 C   0  0  0  0  0  0  0  0  0  0  0  0
   59.6775   34.8004   46.5594 C   0  0  0  0  0  0  0  0  0  0  0  0
   59.4433   34.4744   45.2194 C   0  0  0  0  0  0  0  0  0  0  0  0
   58.6259   33.3875   44.8950 C   0  0  0  0  0  0  0  0  0  0  0  0
   58.4010   33.0709   43.5965 F   0  0  0  0  0  0  0  0  0  0  0  0
   58.0439   32.6226   45.9120 C   0  0  0  0  0  0  0  0  0  0  0  0
   58.2758   32.9459   47.2516 C   0  0  0  0  0  0  0  0  0  0  0  0
  7  8  2  0
  8  9  1  0
  9 10  2  0
 10 15  1  0
 15 16  1  0
 16 17  1  0
 17 18  2  0
 17 19  1  0
 19 20  1  0
 20 21  1  0
  9 11  1  0
 11 12  2  0
 12 13  1  0
 12 14  1  0
 14  1  1  0
  1  2  2  0
  2  3  1  0
  3  4  2  0
  4  5  1  0
  5  6  2  0
  6 22  1  0
 22 23  2  0
 22 24  1  0
 24 26  1  0
 26 27  1  0
 27 28  2  0
 28 29  1  0
 29 30  2  0
 30 31  1  0
 30 32  1  0
 32 33  2  0
 14  8  1  0
  6  1  1  0
 33 27  1  0
 20 15  2  0
 24 25  1  0
M  CHG 1  16  -1
M  CHG 1  19  -1
M  CHG 1  21  -1
M  END
> <UniqueID>
47

> <SMILES>
C=c1c(=Cc2[n-]c(=O)[n-]c2[O-])cc(C)n1-c1ccccc1C(=O)NCc1ccc(F)cc1

> <Energy>
130.62773941432891

> <Genealogy>
C=c1c(=Cc2[n-]c(=O)[n-]c2[O-])cc(C)n1-c1ccccc1C(=O)NCc1ccc(F)cc1 (protonated)
C=c1c(=Cc2[n-]c(=O)[n-]c2[O-])cc(C)n1-c1ccccc1C(=O)NCc1ccc(F)cc1 (3D coordinates assigned)
C=c1c(=Cc2[n-]c(=O)[n-]c2[O-])cc(C)n1-c1ccccc1C(=O)NCc1ccc(F)cc1 (optimized conformer: 130.62773941432891 kcal/mol)

> <smiles>
C=c1c(=Cc2[nH]c(=O)[nH]c2O)cc(C)n1-c1ccccc1C(=O)NCc1ccc(F)cc1

> <score_type>
oracle

> <origin>
adg

> <m_score__min__energy>
-16.129999999999999

> <m_primary>
energy

> <minimizedAffinity>
-8.03280

> <minimizedRMSD>
1.43613

> <CNNscore>
0.4375500381

> <CNNaffinity>
7.2277922630

> <CNN_VS>
3.1625208855

> <CNNaffinity_variance>
0.0283123571

$$$$
89:0


 34 37  0  0  0  0  0  0  0  0999 V2000
   58.5182   29.8989   52.7678 C   0  0  0  0  0  0  0  0  0  0  0  0
   59.0054   30.1447   51.4764 C   0  0  0  0  0  0  0  0  0  0  0  0
   60.3928   30.2484   51.2261 C   0  0  0  0  0  0  0  0  0  0  0  0
   61.2737   30.1197   52.3244 C   0  0  0  0  0  0  0  0  0  0  0  0
   60.7858   29.8737   53.6098 C   0  0  0  0  0  0  0  0  0  0  0  0
   59.4162   29.7523   53.8326 C   0  0  0  0  0  0  0  0  0  0  0  0
   58.9633   29.4740   55.0807 F   0  0  0  0  0  0  0  0  0  0  0  0
   56.3720   31.9066   52.3178 C   0  0  0  0  0  0  0  0  0  0  0  0
   56.1250   30.6598   52.7470 C   0  0  0  0  0  0  0  0  0  0  0  0
   54.8849   30.1172   53.1252 C   0  0  0  0  0  0  0  0  0  0  0  0
   53.6332   30.6046   53.0242 C   0  0  0  0  0  0  0  0  0  0  0  0
   55.1566   28.8658   53.6565 C   0  0  0  0  0  0  0  0  0  0  0  0
   56.5164   28.6671   53.5404 C   0  0  0  0  0  0  0  0  0  0  0  0
   57.2363   27.4175   53.9529 C   0  0  0  0  0  0  0  0  0  0  0  0
   57.1034   29.7469   52.9820 N   0  0  0  0  0  0  0  0  0  0  0  0
   52.8271   30.6676   51.7955 C   0  0  0  0  0  0  0  0  0  0  0  0
   52.9086   29.7881   50.7797 N   0  0  0  0  0  0  0  0  0  0  0  0
   51.9043   30.1685   49.9610 C   0  0  0  0  0  0  0  0  0  0  0  0
   51.6585   29.5882   48.8745 O   0  0  0  0  0  0  0  0  0  0  0  0
   51.1722   31.2133   50.4077 N   0  0  0  0  0  0  0  0  0  0  0  0
   51.7624   31.5061   51.5765 C   0  0  0  0  0  0  0  0  0  0  0  0
   51.3353   32.5160   52.4288 O   0  0  0  0  0  0  0  0  0  0  0  0
   60.9007   30.4684   49.8768 N   0  0  0  0  0  0  0  0  0  0  0  0
   61.9464   31.4997   49.6722 C   0  0  0  0  0  0  0  0  0  0  0  0
   62.4163   31.6936   48.2123 C   0  0  0  0  0  0  0  0  0  0  0  0
   61.4255   31.3088   47.1935 N   0  0  0  0  0  0  0  0  0  0  0  0
   60.9636   29.9332   47.4267 C   0  0  0  0  0  0  0  0  0  0  0  0
   60.2178   29.8002   48.7515 C   0  0  0  0  0  0  0  0  0  0  0  0
   61.0496   30.4302   46.9565 H   0  0  0  0  0  0  0  0  0  0  0  0
   60.3217   32.2394   47.0656 C   0  0  0  0  0  0  0  0  0  0  0  0
   59.1610   31.8326   46.7775 O   0  0  0  0  0  0  0  0  0  0  0  0
   60.5678   33.6095   47.2185 O   0  0  0  0  0  0  0  0  0  0  0  0
   59.6006   34.6158   46.9268 C   0  0  0  0  0  0  0  0  0  0  0  0
   59.3872   34.7343   45.4210 C   0  0  0  0  0  0  0  0  0  0  0  0
  8  9  2  0
  9 10  1  0
 10 11  2  0
 11 16  1  0
 16 17  1  0
 17 18  1  0
 18 19  2  0
 18 20  1  0
 20 21  1  0
 21 22  1  0
 10 12  1  0
 12 13  2  0
 13 14  1  0
 13 15  1  0
 15  1  1  0
  1  2  2  0
  2  3  1  0
  3 23  1  0
 23 24  1  0
 24 25  1  0
 25 26  1  0
 26 30  1  0
 30 31  2  0
 30 32  1  0
 32 33  1  0
 33 34  1  0
 26 27  1  0
 27 28  1  0
  3  4  2  0
  4  5  1  0
  5  6  2  0
  6  7  1  0
 15  9  1  0
  6  1  1  0
 21 16  2  0
 28 23  1  0
 26 29  1  0
M  CHG 1  17  -1
M  CHG 1  20  -1
M  CHG 1  22  -1
M  CHG 1  26   1
M  END
> <UniqueID>
80

> <SMILES>
C=c1c(=Cc2[n-]c(=O)[n-]c2[O-])cc(C)n1-c1cc(N2CC[NH+](C(=O)OCC)CC2)ccc1F

> <Energy>
144.4393524359582

> <Genealogy>
C=c1c(=Cc2[n-]c(=O)[n-]c2[O-])cc(C)n1-c1cc(N2CC[NH+](C(=O)OCC)CC2)ccc1F (protonated)
C=c1c(=Cc2[n-]c(=O)[n-]c2[O-])cc(C)n1-c1cc(N2CC[NH+](C(=O)OCC)CC2)ccc1F (3D coordinates assigned)
C=c1c(=Cc2[n-]c(=O)[n-]c2[O-])cc(C)n1-c1cc(N2CC[NH+](C(=O)OCC)CC2)ccc1F (nonaromatic ring conformer: 144.4393524359582 kcal/mol)

> <smiles>
C=c1c(=Cc2[nH]c(=O)[nH]c2O)cc(C)n1-c1cc(N2CCN(C(=O)OCC)CC2)ccc1F

> <score_type>
oracle

> <origin>
adg

> <m_score__min__energy>
-15.039999999999999

> <m_primary>
energy

> <minimizedAffinity>
-5.98924

> <minimizedRMSD>
1.15216

> <CNNscore>
0.0484388210

> <CNNaffinity>
5.6724581718

> <CNN_VS>
0.2747671902

> <CNNaffinity_variance>
0.2997487783

$$$$
3:0


 31 34  0  0  0  0  0  0  0  0999 V2000
   58.1229   30.0417   45.6609 N   0  0  0  0  0  0  0  0  0  0  0  0
   57.0119   29.3919   45.1951 C   0  0  0  0  0  0  0  0  0  0  0  0
   56.0921   30.0248   44.6112 O   0  0  0  0  0  0  0  0  0  0  0  0
   56.8930   28.0502   45.3485 N   0  0  0  0  0  0  0  0  0  0  0  0
   57.8523   27.3148   45.9591 C   0  0  0  0  0  0  0  0  0  0  0  0
   57.6734   25.9392   46.0599 O   0  0  0  0  0  0  0  0  0  0  0  0
   59.0073   27.9403   46.4603 C   0  0  0  0  0  0  0  0  0  0  0  0
   59.1145   29.3388   46.2938 C   0  0  0  0  0  0  0  0  0  0  0  0
   60.1207   29.9507   46.7521 O   0  0  0  0  0  0  0  0  0  0  0  0
   58.4086   31.7655   47.8946 O   0  0  0  0  0  0  0  0  0  0  0  0
   58.3753   32.3113   46.6118 C   0  0  0  0  0  0  0  0  0  0  0  0
   58.4834   33.6988   46.4319 C   0  0  0  0  0  0  0  0  0  0  0  0
   58.4612   34.2433   45.1453 C   0  0  0  0  0  0  0  0  0  0  0  0
   58.3332   33.4076   44.0327 C   0  0  0  0  0  0  0  0  0  0  0  0
   58.2239   32.0261   44.2046 C   0  0  0  0  0  0  0  0  0  0  0  0
   58.2411   31.4687   45.4930 C   0  0  0  0  0  0  0  0  0  0  0  0
   58.4979   32.3261   48.6401 H   0  0  0  0  0  0  0  0  0  0  0  0
   60.0746   27.1560   47.1405 C   0  0  0  0  0  0  0  0  0  0  0  0
   61.0263   26.6748   46.4651 O   0  0  0  0  0  0  0  0  0  0  0  0
   60.0255   26.9567   48.5636 N   0  0  0  0  0  0  0  0  0  0  0  0
   60.5818   27.7087   49.4660 C   0  0  0  0  0  0  0  0  0  0  0  0
   60.7776   29.0392   49.3349 N   0  0  0  0  0  0  0  0  0  0  0  0
   61.3803   29.5756   50.4347 C   0  0  0  0  0  0  0  0  0  0  0  0
   61.6661   28.6483   51.4432 C   0  0  0  0  0  0  0  0  0  0  0  0
   61.1439   27.1322   50.9340 S   0  0  0  0  0  0  0  0  0  0  0  0
   61.7008   31.0257   50.5078 C   0  0  0  0  0  0  0  0  0  0  0  0
   62.8091   31.5342   49.8001 C   0  0  0  0  0  0  0  0  0  0  0  0
   63.1264   32.8951   49.8585 C   0  0  0  0  0  0  0  0  0  0  0  0
   62.3439   33.7657   50.6172 C   0  0  0  0  0  0  0  0  0  0  0  0
   61.2387   33.2788   51.3171 C   0  0  0  0  0  0  0  0  0  0  0  0
   60.9147   31.9205   51.2642 C   0  0  0  0  0  0  0  0  0  0  0  0
 10 11  1  0
 11 12  2  0
 12 13  1  0
 13 14  2  0
 14 15  1  0
 15 16  2  0
 16  1  1  0
  1  2  1  0
  2  3  2  0
  2  4  1  0
  4  5  1  0
  5  6  1  0
  5  7  2  0
  7 18  1  0
 18 19  2  0
 18 20  1  0
 20 21  2  0
 21 22  1  0
 22 23  1  0
 23 26  1  0
 26 27  2  0
 27 28  1  0
 28 29  2  0
 29 30  1  0
 30 31  2  0
 23 24  2  0
 24 25  1  0
  7  8  1  0
  8  9  2  0
 16 11  1  0
  8  1  1  0
 25 21  1  0
 31 26  1  0
 10 17  1  0
M  CHG 1   4  -1
M  CHG 1   6  -1
M  CHG 1  22  -1
M  END
> <UniqueID>
4

> <SMILES>
O=C(/N=c1\[n-]c(-c2ccccc2)cs1)c1c([O-])[n-]c(=O)n(-c2ccccc2O)c1=O

> <Energy>
96.24996926686188

> <Genealogy>
O=C(N=c1[n-]c(-c2ccccc2)cs1)c1c([O-])[n-]c(=O)n(-c2ccccc2O)c1=O (protonated)
O=C(/N=c1\[n-]c(-c2ccccc2)cs1)c1c([O-])[n-]c(=O)n(-c2ccccc2O)c1=O (cis-trans isomerization)
O=C(/N=c1\[n-]c(-c2ccccc2)cs1)c1c([O-])[n-]c(=O)n(-c2ccccc2O)c1=O (3D coordinates assigned)
O=C(/N=c1\[n-]c(-c2ccccc2)cs1)c1c([O-])[n-]c(=O)n(-c2ccccc2O)c1=O (optimized conformer: 96.24996926686188 kcal/mol)

> <smiles>
O=C(N=c1[nH]c(-c2ccccc2)cs1)c1c(O)[nH]c(=O)n(-c2ccccc2O)c1=O

> <score_type>
oracle

> <origin>
adg

> <m_score__min__energy>
-14.32

> <m_primary>
energy

> <minimizedAffinity>
-7.37931

> <minimizedRMSD>
1.77497

> <CNNscore>
0.5803379416

> <CNNaffinity>
6.5436310768

> <CNN_VS>
3.7975172997

> <CNNaffinity_variance>
0.2400473356

$$$$
24:0


 29 32  0  0  0  0  0  0  0  0999 V2000
   58.1263   25.6590   44.9312 C   0  0  0  0  0  0  0  0  0  0  0  0
   58.2984   26.9694   45.2116 C   0  0  0  0  0  0  0  0  0  0  0  0
   58.0211   28.0414   44.3738 C   0  0  0  0  0  0  0  0  0  0  0  0
   58.3295   29.1862   45.0763 C   0  0  0  0  0  0  0  0  0  0  0  0
   58.1229   30.5771   44.5535 C   0  0  0  0  0  0  0  0  0  0  0  0
   58.7746   28.8807   46.3182 N   0  0  0  0  0  0  0  0  0  0  0  0
   58.7568   27.5243   46.4144 C   0  0  0  0  0  0  0  0  0  0  0  0
   59.1295   26.8349   47.5060 C   0  0  0  0  0  0  0  0  0  0  0  0
   55.2692   26.0578   46.0367 O   0  0  0  0  0  0  0  0  0  0  0  0
   56.0705   24.9402   46.2577 C   0  0  0  0  0  0  0  0  0  0  0  0
   55.6854   23.9025   47.0191 N   0  0  0  0  0  0  0  0  0  0  0  0
   56.7474   23.0742   46.9533 C   0  0  0  0  0  0  0  0  0  0  0  0
   56.7829   21.9660   47.5503 O   0  0  0  0  0  0  0  0  0  0  0  0
   57.7740   23.5271   46.2037 N   0  0  0  0  0  0  0  0  0  0  0  0
   57.3345   24.7164   45.7499 C   0  0  0  0  0  0  0  0  0  0  0  0
   54.4209   26.1115   46.4312 H   0  0  0  0  0  0  0  0  0  0  0  0
   59.2440   29.8574   47.3178 C   0  0  0  0  0  0  0  0  0  0  0  0
   60.5007   30.5954   46.8347 C   0  0  0  0  0  0  0  0  0  0  0  0
   60.9896   31.6149   47.8391 C   0  0  0  0  0  0  0  0  0  0  0  0
   61.9821   31.2277   48.7593 C   0  0  0  0  0  0  0  0  0  0  0  0
   62.3966   32.0977   49.7689 C   0  0  0  0  0  0  0  0  0  0  0  0
   61.8198   33.3610   49.8829 C   0  0  0  0  0  0  0  0  0  0  0  0
   60.8324   33.7634   48.9829 C   0  0  0  0  0  0  0  0  0  0  0  0
   60.4148   32.9072   47.9522 C   0  0  0  0  0  0  0  0  0  0  0  0
   59.3546   33.3767   47.0455 C   0  0  0  0  0  0  0  0  0  0  0  0
   58.1266   33.0275   47.2177 N   0  0  0  0  0  0  0  0  0  0  0  0
   57.2017   33.5586   46.2341 C   0  0  0  0  0  0  0  0  0  0  0  0
   58.0331   34.0028   45.0343 C   0  0  0  0  0  0  0  0  0  0  0  0
   59.6772   34.4614   45.6655 S   0  0  0  0  0  0  0  0  0  0  0  0
  9 10  1  0
 10 11  1  0
 11 12  1  0
 12 13  2  0
 12 14  1  0
 14 15  1  0
 15  1  1  0
  1  2  2  0
  2  3  1  0
  3  4  2  0
  4  5  1  0
  4  6  1  0
  6 17  1  0
 17 18  1  0
 18 19  1  0
 19 20  2  0
 20 21  1  0
 21 22  2  0
 22 23  1  0
 23 24  2  0
 24 25  1  0
 25 26  2  0
 26 27  1  0
 27 28  1  0
 28 29  1  0
  6  7  1  0
  7  8  2  0
 15 10  2  0
  7  2  1  0
 24 19  1  0
 29 25  1  0
  9 16  1  0
M  CHG 1  11  -1
M  CHG 1  14  -1
M  END
> <UniqueID>
24

> <SMILES>
C=c1/c(=C/c2[n-]c(=O)[n-]c2O)cc(C)n1CCc1ccccc1C1=NCCS1

> <Energy>
122.32044763205371

> <Genealogy>
C=c1c(=Cc2[n-]c(=O)[n-]c2O)cc(C)n1CCc1ccccc1C1=NCCS1 (protonated)
C=c1/c(=C/c2[n-]c(=O)[n-]c2O)cc(C)n1CCc1ccccc1C1=NCCS1 (cis-trans isomerization)
C=c1/c(=C/c2[n-]c(=O)[n-]c2O)cc(C)n1CCc1ccccc1C1=NCCS1 (3D coordinates assigned)
C=c1/c(=C/c2[n-]c(=O)[n-]c2O)cc(C)n1CCc1ccccc1C1=NCCS1 (nonaromatic ring conformer: 122.32044763205371 kcal/mol)

> <smiles>
C=c1c(=Cc2[nH]c(=O)[nH]c2O)cc(C)n1CCc1ccccc1C1=NCCS1

> <score_type>
oracle

> <origin>
adg

> <m_score__min__energy>
-14.380000000000001

> <m_primary>
energy

> <minimizedAffinity>
-9.21869

> <minimizedRMSD>
0.71812

> <CNNscore>
0.4027373493

> <CNNaffinity>
6.7623410225

> <CNN_VS>
2.7234473228

> <CNNaffinity_variance>
0.0538123995

$$$$
26:0


 26 28  0  0  0  0  0  0  0  0999 V2000
   55.6584   29.0381   54.1442 C   0  0  0  0  0  0  0  0  0  0  0  0
   54.5955   28.1924   53.4103 C   0  0  0  0  0  0  0  0  0  0  0  0
   53.2100   28.3225   54.0625 C   0  0  0  0  0  0  0  0  0  0  0  0
   53.0097   29.7039   54.5458 N   0  0  0  0  0  0  0  0  0  0  0  0
   53.8998   30.0162   55.6979 C   0  0  0  0  0  0  0  0  0  0  0  0
   55.2817   29.3286   55.6081 C   0  0  0  0  0  0  0  0  0  0  0  0
   61.0017   26.6970   53.5359 C   0  0  0  0  0  0  0  0  0  0  0  0
   59.6407   27.3212   53.6516 C   0  0  0  0  0  0  0  0  0  0  0  0
   58.5993   26.6260   54.2633 C   0  0  0  0  0  0  0  0  0  0  0  0
   57.3449   27.2148   54.3924 C   0  0  0  0  0  0  0  0  0  0  0  0
   57.0839   28.5207   53.9207 C   0  0  0  0  0  0  0  0  0  0  0  0
   58.1709   29.2570   53.3407 C   0  0  0  0  0  0  0  0  0  0  0  0
   59.4253   28.6287   53.2082 C   0  0  0  0  0  0  0  0  0  0  0  0
   58.0757   30.9157   52.7021 S   0  0  0  0  0  0  0  0  0  0  0  0
   59.5624   31.3111   51.9141 N   0  0  0  0  0  0  0  0  0  0  0  0
   57.8717   31.8792   53.8386 O   0  0  0  0  0  0  0  0  0  0  0  0
   56.9292   31.0982   51.7512 O   0  0  0  0  0  0  0  0  0  0  0  0
   60.3368   31.1849   52.5659 H   0  0  0  0  0  0  0  0  0  0  0  0
   51.5907   29.9337   54.8860 C   0  0  0  0  0  0  0  0  0  0  0  0
   51.1146   31.2374   54.3171 C   0  0  0  0  0  0  0  0  0  0  0  0
   50.6676   32.2647   55.0605 N   0  0  0  0  0  0  0  0  0  0  0  0
   50.3102   33.1835   54.1363 C   0  0  0  0  0  0  0  0  0  0  0  0
   49.8379   34.3078   54.4462 O   0  0  0  0  0  0  0  0  0  0  0  0
   50.4940   32.8006   52.8549 N   0  0  0  0  0  0  0  0  0  0  0  0
   51.0017   31.5646   52.9876 C   0  0  0  0  0  0  0  0  0  0  0  0
   51.3456   30.7512   51.9144 O   0  0  0  0  0  0  0  0  0  0  0  0
  7  8  1  0
  8  9  2  0
  9 10  1  0
 10 11  2  0
 11  1  1  0
  1  2  1  0
  2  3  1  0
  3  4  1  0
  4 19  1  0
 19 20  1  0
 20 21  1  0
 21 22  1  0
 22 23  2  0
 22 24  1  0
 24 25  1  0
 25 26  1  0
  4  5  1  0
  5  6  1  0
 11 12  1  0
 12 14  1  0
 14 15  1  0
 14 16  2  0
 14 17  2  0
 12 13  2  0
 13  8  1  0
  6  1  1  0
 25 20  2  0
 15 18  1  0
M  CHG 1  15  -1
M  CHG 1  21  -1
M  CHG 1  24  -1
M  CHG 1  26  -1
M  END
> <UniqueID>
26

> <SMILES>
Cc1ccc(C2CCN(Cc3[n-]c(=O)[n-]c3[O-])CC2)c(S([NH-])(=O)=O)c1

> <Energy>
90.26068703874019

> <Genealogy>
Cc1ccc(C2CCN(Cc3[n-]c(=O)[n-]c3[O-])CC2)c(S([NH-])(=O)=O)c1 (protonated)
Cc1ccc(C2CCN(Cc3[n-]c(=O)[n-]c3[O-])CC2)c(S([NH-])(=O)=O)c1 (3D coordinates assigned)
Cc1ccc(C2CCN(Cc3[n-]c(=O)[n-]c3[O-])CC2)c(S([NH-])(=O)=O)c1 (nonaromatic ring conformer: 90.26068703874019 kcal/mol)

> <smiles>
Cc1ccc(C2CCN(Cc3[nH]c(=O)[nH]c3O)CC2)c(S(N)(=O)=O)c1

> <score_type>
oracle

> <origin>
adg

> <m_score__min__energy>
-17.93

> <m_primary>
energy

> <minimizedAffinity>
-5.01026

> <minimizedRMSD>
2.18269

> <CNNscore>
0.2204790711

> <CNNaffinity>
4.3614249229

> <CNN_VS>
0.9616029263

> <CNNaffinity_variance>
0.2044029087

$$$$
28:0


 38 42  0  0  0  0  0  0  0  0999 V2000
   58.5431   31.2365   45.5161 C   0  0  0  0  0  0  0  0  0  0  0  0
   58.1871   32.2462   44.6217 C   0  0  0  0  0  0  0  0  0  0  0  0
   58.4567   33.5824   44.9364 C   0  0  0  0  0  0  0  0  0  0  0  0
   59.0762   33.9081   46.1482 C   0  0  0  0  0  0  0  0  0  0  0  0
   59.4588   32.8956   47.0415 C   0  0  0  0  0  0  0  0  0  0  0  0
   59.1867   31.5588   46.7166 C   0  0  0  0  0  0  0  0  0  0  0  0
   59.8929   28.7880   46.4734 C   0  0  0  0  0  0  0  0  0  0  0  0
   58.8325   28.7571   45.6490 C   0  0  0  0  0  0  0  0  0  0  0  0
   58.1539   27.6246   45.1729 C   0  0  0  0  0  0  0  0  0  0  0  0
   58.4746   26.3158   45.2289 C   0  0  0  0  0  0  0  0  0  0  0  0
   57.0150   28.0965   44.5351 C   0  0  0  0  0  0  0  0  0  0  0  0
   57.0735   29.4760   44.5764 C   0  0  0  0  0  0  0  0  0  0  0  0
   56.0565   30.3978   43.9748 C   0  0  0  0  0  0  0  0  0  0  0  0
   58.1701   29.8742   45.2534 N   0  0  0  0  0  0  0  0  0  0  0  0
   57.7310   25.2926   45.9823 C   0  0  0  0  0  0  0  0  0  0  0  0
   58.1968   24.0559   46.2502 N   0  0  0  0  0  0  0  0  0  0  0  0
   57.1250   23.4298   46.7806 C   0  0  0  0  0  0  0  0  0  0  0  0
   57.1654   22.2347   47.1710 O   0  0  0  0  0  0  0  0  0  0  0  0
   56.0010   24.1804   46.8432 N   0  0  0  0  0  0  0  0  0  0  0  0
   56.4014   25.3488   46.3143 C   0  0  0  0  0  0  0  0  0  0  0  0
   55.5658   26.4509   46.1488 O   0  0  0  0  0  0  0  0  0  0  0  0
   60.0724   33.2356   48.3427 C   0  0  0  0  0  0  0  0  0  0  0  0
   59.7930   34.3304   48.8931 O   0  0  0  0  0  0  0  0  0  0  0  0
   60.9818   32.3254   48.9876 N   0  0  0  0  0  0  0  0  0  0  0  0
   60.9679   32.1767   50.4436 C   0  0  0  0  0  0  0  0  0  0  0  0
   62.3014   32.6583   51.0501 C   0  0  0  0  0  0  0  0  0  0  0  0
   63.3124   32.9553   50.0085 N   0  0  0  0  0  0  0  0  0  0  0  0
   63.3977   31.8251   49.0551 C   0  0  0  0  0  0  0  0  0  0  0  0
   62.0943   31.7279   48.2409 C   0  0  0  0  0  0  0  0  0  0  0  0
   64.6267   33.2281   50.6272 C   0  0  0  0  0  0  0  0  0  0  0  0
   64.7928   32.4641   51.9172 C   0  0  0  0  0  0  0  0  0  0  0  0
   64.4347   33.0019   53.0019 O   0  0  0  0  0  0  0  0  0  0  0  0
   65.3403   31.0796   51.9315 C   0  0  0  0  0  0  0  0  0  0  0  0
   64.5070   29.9921   52.2656 C   0  0  0  0  0  0  0  0  0  0  0  0
   64.9917   28.6827   52.2174 C   0  0  0  0  0  0  0  0  0  0  0  0
   66.3118   28.4378   51.8473 C   0  0  0  0  0  0  0  0  0  0  0  0
   67.1637   29.5057   51.5524 C   0  0  0  0  0  0  0  0  0  0  0  0
   66.6818   30.8167   51.5875 C   0  0  0  0  0  0  0  0  0  0  0  0
  7  8  2  0
  8  9  1  0
  9 10  2  0
 10 15  1  0
 15 16  1  0
 16 17  1  0
 17 18  2  0
 17 19  1  0
 19 20  1  0
 20 21  1  0
  9 11  1  0
 11 12  2  0
 12 13  1  0
 12 14  1  0
 14  1  1  0
  1  2  2  0
  2  3  1  0
  3  4  2  0
  4  5  1  0
  5 22  1  0
 22 23  2  0
 22 24  1  0
 24 25  1  0
 25 26  1  0
 26 27  1  0
 27 30  1  0
 30 31  1  0
 31 32  2  0
 31 33  1  0
 33 34  2  0
 34 35  1  0
 35 36  2  0
 36 37  1  0
 37 38  2  0
 27 28  1  0
 28 29  1  0
  5  6  2  0
 14  8  1  0
  6  1  1  0
 20 15  2  0
 29 24  1  0
 38 33  1  0
M  CHG 1  16  -1
M  CHG 1  19  -1
M  CHG 1  21  -1
M  END
> <UniqueID>
28

> <SMILES>
C=c1c(=Cc2[n-]c(=O)[n-]c2[O-])cc(C)n1-c1cccc(C(=O)N2CCN(CC(=O)c3ccccc3)CC2)c1

> <Energy>
160.0426972646848

> <Genealogy>
C=c1c(=Cc2[n-]c(=O)[n-]c2[O-])cc(C)n1-c1cccc(C(=O)N2CCN(CC(=O)c3ccccc3)CC2)c1 (protonated)
C=c1c(=Cc2[n-]c(=O)[n-]c2[O-])cc(C)n1-c1cccc(C(=O)N2CCN(CC(=O)c3ccccc3)CC2)c1 (3D coordinates assigned)
C=c1c(=Cc2[n-]c(=O)[n-]c2[O-])cc(C)n1-c1cccc(C(=O)N2CCN(CC(=O)c3ccccc3)CC2)c1 (nonaromatic ring conformer: 160.0426972646848 kcal/mol)

> <smiles>
C=c1c(=Cc2[nH]c(=O)[nH]c2O)cc(C)n1-c1cccc(C(=O)N2CCN(CC(=O)c3ccccc3)CC2)c1

> <score_type>
oracle

> <origin>
adg

> <m_score__min__energy>
-19.190000000000001

> <m_primary>
energy

> <minimizedAffinity>
-9.40372

> <minimizedRMSD>
0.69210

> <CNNscore>
0.2667501867

> <CNNaffinity>
6.9615020752

> <CNN_VS>
1.8569819927

> <CNNaffinity_variance>
0.2533894479

$$$$
36:0


 25 27  0  0  0  0  0  0  0  0999 V2000
   60.1984   28.9500   47.8076 C   0  0  0  0  0  0  0  0  0  0  0  0
   59.4003   29.6269   46.9674 C   0  0  0  0  0  0  0  0  0  0  0  0
   58.7904   29.1372   45.8105 C   0  0  0  0  0  0  0  0  0  0  0  0
   58.8737   27.8827   45.3208 C   0  0  0  0  0  0  0  0  0  0  0  0
   58.1062   30.2453   45.2968 C   0  0  0  0  0  0  0  0  0  0  0  0
   57.2825   30.3356   44.0494 C   0  0  0  0  0  0  0  0  0  0  0  0
   58.2991   31.3056   46.1021 N   0  0  0  0  0  0  0  0  0  0  0  0
   59.0653   30.9314   47.1157 N   0  0  0  0  0  0  0  0  0  0  0  0
   57.9885   26.7762   45.7259 C   0  0  0  0  0  0  0  0  0  0  0  0
   56.5949   26.9286   45.7084 C   0  0  0  0  0  0  0  0  0  0  0  0
   56.0185   28.1158   45.2725 O   0  0  0  0  0  0  0  0  0  0  0  0
   55.7981   25.9085   46.1185 N   0  0  0  0  0  0  0  0  0  0  0  0
   56.3283   24.7396   46.5602 C   0  0  0  0  0  0  0  0  0  0  0  0
   55.5706   23.8070   46.9322 O   0  0  0  0  0  0  0  0  0  0  0  0
   57.6757   24.5767   46.6039 N   0  0  0  0  0  0  0  0  0  0  0  0
   58.5159   25.5675   46.2059 C   0  0  0  0  0  0  0  0  0  0  0  0
   59.7605   25.3863   46.2644 O   0  0  0  0  0  0  0  0  0  0  0  0
   59.5131   31.8425   48.1775 C   0  0  0  0  0  0  0  0  0  0  0  0
   60.9125   32.3561   47.9162 C   0  0  0  0  0  0  0  0  0  0  0  0
   61.9999   31.6999   48.5189 C   0  0  0  0  0  0  0  0  0  0  0  0
   63.3077   32.1279   48.2838 C   0  0  0  0  0  0  0  0  0  0  0  0
   63.5475   33.2108   47.4388 C   0  0  0  0  0  0  0  0  0  0  0  0
   62.4823   33.8651   46.8190 C   0  0  0  0  0  0  0  0  0  0  0  0
   61.1588   33.4425   47.0369 C   0  0  0  0  0  0  0  0  0  0  0  0
   60.0328   34.1710   46.3519 C   0  0  0  0  0  0  0  0  0  0  0  0
  1  2  2  0
  2  3  1  0
  3  4  2  0
  4  9  1  0
  9 10  2  0
 10 11  1  0
 10 12  1  0
 12 13  1  0
 13 14  2  0
 13 15  1  0
 15 16  1  0
 16 17  2  0
  3  5  1  0
  5  6  1  0
  5  7  2  0
  7  8  1  0
  8 18  1  0
 18 19  1  0
 19 20  2  0
 20 21  1  0
 21 22  2  0
 22 23  1  0
 23 24  2  0
 24 25  1  0
  8  2  1  0
 24 19  1  0
 16  9  1  0
M  CHG 1  11  -1
M  CHG 1  12  -1
M  CHG 1  15  -1
M  END
> <UniqueID>
34

> <SMILES>
C=c1c(=Cc2c([O-])[n-]c(=O)[n-]c2=O)c(C)nn1Cc1ccccc1C

> <Energy>
88.50517965704006

> <Genealogy>
C=c1c(=Cc2c([O-])[n-]c(=O)[n-]c2=O)c(C)nn1Cc1ccccc1C (protonated)
C=c1c(=Cc2c([O-])[n-]c(=O)[n-]c2=O)c(C)nn1Cc1ccccc1C (3D coordinates assigned)
C=c1c(=Cc2c([O-])[n-]c(=O)[n-]c2=O)c(C)nn1Cc1ccccc1C (optimized conformer: 88.50517965704006 kcal/mol)

> <smiles>
C=c1c(=Cc2c(O)[nH]c(=O)[nH]c2=O)c(C)nn1Cc1ccccc1C

> <score_type>
oracle

> <origin>
adg

> <m_score__min__energy>
-16.25

> <m_primary>
energy

> <minimizedAffinity>
-7.98688

> <minimizedRMSD>
0.68010

> <CNNscore>
0.5036184788

> <CNNaffinity>
6.6994910240

> <CNN_VS>
3.3739874363

> <CNNaffinity_variance>
0.4147149026

$$$$
53:0


 31 34  0  0  0  0  0  0  0  0999 V2000
   60.1963   32.4527   53.6741 C   0  0  0  0  0  0  0  0  0  0  0  0
   60.0293   32.2288   52.3694 C   0  0  0  0  0  0  0  0  0  0  0  0
   60.8543   32.7714   51.4484 N   0  0  0  0  0  0  0  0  0  0  0  0
   60.5970   32.1989   50.2841 N   0  0  0  0  0  0  0  0  0  0  0  0
   59.6090   31.2973   50.4398 C   0  0  0  0  0  0  0  0  0  0  0  0
   59.1016   30.6476   49.4869 O   0  0  0  0  0  0  0  0  0  0  0  0
   59.1791   31.2928   51.7597 C   0  0  0  0  0  0  0  0  0  0  0  0
   58.1618   30.5627   52.2869 C   0  0  0  0  0  0  0  0  0  0  0  0
   58.1823   29.3000   52.8972 C   0  0  0  0  0  0  0  0  0  0  0  0
   59.2463   28.6040   53.3005 C   0  0  0  0  0  0  0  0  0  0  0  0
   56.9302   28.9401   53.2506 N   0  0  0  0  0  0  0  0  0  0  0  0
   56.1057   29.9199   52.9128 N   0  0  0  0  0  0  0  0  0  0  0  0
   56.8218   30.9224   52.3610 C   0  0  0  0  0  0  0  0  0  0  0  0
   56.3193   32.0006   51.9454 O   0  0  0  0  0  0  0  0  0  0  0  0
   54.6876   29.8761   53.1612 C   0  0  0  0  0  0  0  0  0  0  0  0
   54.1706   28.9539   54.0844 C   0  0  0  0  0  0  0  0  0  0  0  0
   52.7987   28.8934   54.3298 C   0  0  0  0  0  0  0  0  0  0  0  0
   51.9245   29.7441   53.6515 C   0  0  0  0  0  0  0  0  0  0  0  0
   52.4157   30.6628   52.7086 C   0  0  0  0  0  0  0  0  0  0  0  0
   53.8011   30.7199   52.4658 C   0  0  0  0  0  0  0  0  0  0  0  0
   51.4908   31.5549   51.9754 C   0  0  0  0  0  0  0  0  0  0  0  0
   51.4097   31.5018   50.7193 O   0  0  0  0  0  0  0  0  0  0  0  0
   50.6964   32.4657   52.6642 O   0  0  0  0  0  0  0  0  0  0  0  0
   61.2215   32.6077   49.0266 C   0  0  0  0  0  0  0  0  0  0  0  0
   60.7147   33.9879   48.5894 C   0  0  0  0  0  0  0  0  0  0  0  0
   59.7842   33.8855   47.4077 C   0  0  0  0  0  0  0  0  0  0  0  0
   60.1467   34.4367   46.1670 C   0  0  0  0  0  0  0  0  0  0  0  0
   59.2572   34.3947   45.0900 C   0  0  0  0  0  0  0  0  0  0  0  0
   57.9991   33.8061   45.2440 C   0  0  0  0  0  0  0  0  0  0  0  0
   57.6284   33.2614   46.4752 C   0  0  0  0  0  0  0  0  0  0  0  0
   58.5140   33.3031   47.5563 C   0  0  0  0  0  0  0  0  0  0  0  0
  1  2  2  0
  2  3  1  0
  3  4  1  0
  4 24  1  0
 24 25  1  0
 25 26  1  0
 26 27  2  0
 27 28  1  0
 28 29  2  0
 29 30  1  0
 30 31  2  0
  4  5  1  0
  5  6  2  0
  5  7  1  0
  7  8  2  0
  8  9  1  0
  9 10  2  0
  9 11  1  0
 11 12  1  0
 12 15  1  0
 15 16  2  0
 16 17  1  0
 17 18  2  0
 18 19  1  0
 19 21  1  0
 21 22  2  0
 21 23  1  0
 19 20  2  0
 12 13  1  0
 13 14  2  0
  7  2  1  0
 13  8  1  0
 31 26  1  0
 20 15  1  0
M  CHG 1   3  -1
M  CHG 1  11  -1
M  CHG 1  23  -1
M  END
> <UniqueID>
49

> <SMILES>
C=c1[n-]n(CCc2ccccc2)c(=O)c1=c1c(=C)[n-]n(-c2cccc(C(=O)[O-])c2)c1=O

> <Energy>
140.20282574522528

> <Genealogy>
C=c1[n-]n(CCc2ccccc2)c(=O)c1=c1c(=C)[n-]n(-c2cccc(C(=O)[O-])c2)c1=O (protonated)
C=c1[n-]n(CCc2ccccc2)c(=O)c1=c1c(=C)[n-]n(-c2cccc(C(=O)[O-])c2)c1=O (3D coordinates assigned)
C=c1[n-]n(CCc2ccccc2)c(=O)c1=c1c(=C)[n-]n(-c2cccc(C(=O)[O-])c2)c1=O (optimized conformer: 140.20282574522528 kcal/mol)

> <smiles>
C=c1[nH]n(CCc2ccccc2)c(=O)c1=c1c(=C)[nH]n(-c2cccc(C(=O)O)c2)c1=O

> <score_type>
oracle

> <origin>
adg

> <m_score__min__energy>
-14.109999999999999

> <m_primary>
energy

> <minimizedAffinity>
-7.69200

> <minimizedRMSD>
0.70004

> <CNNscore>
0.3062788844

> <CNNaffinity>
5.8590769768

> <CNN_VS>
1.7945115566

> <CNNaffinity_variance>
0.0470711701

$$$$
60:0


 32 35  0  0  0  0  0  0  0  0999 V2000
   58.1275   28.7550   46.1232 C   0  0  0  0  0  0  0  0  0  0  0  0
   57.5340   27.8938   45.2764 N   0  0  0  0  0  0  0  0  0  0  0  0
   57.6941   26.7000   45.8802 C   0  0  0  0  0  0  0  0  0  0  0  0
   57.2683   25.6251   45.3819 O   0  0  0  0  0  0  0  0  0  0  0  0
   58.3474   26.7468   47.0590 N   0  0  0  0  0  0  0  0  0  0  0  0
   58.6142   28.0558   47.2189 C   0  0  0  0  0  0  0  0  0  0  0  0
   58.9807   32.4214   46.5346 C   0  0  0  0  0  0  0  0  0  0  0  0
   58.4210   32.9575   45.3661 C   0  0  0  0  0  0  0  0  0  0  0  0
   57.8182   32.1168   44.4265 C   0  0  0  0  0  0  0  0  0  0  0  0
   57.7452   30.7396   44.6609 C   0  0  0  0  0  0  0  0  0  0  0  0
   58.2742   30.1965   45.8401 C   0  0  0  0  0  0  0  0  0  0  0  0
   58.9284   31.0385   46.7539 C   0  0  0  0  0  0  0  0  0  0  0  0
   63.6482   33.8222   47.3459 C   0  0  0  0  0  0  0  0  0  0  0  0
   63.3858   33.2398   48.6742 N   0  0  0  0  0  0  0  0  0  0  0  0
   62.4788   34.0971   49.4849 C   0  0  0  0  0  0  0  0  0  0  0  0
   61.0455   33.5474   49.6065 C   0  0  0  0  0  0  0  0  0  0  0  0
   60.6734   32.8272   48.3862 N   0  0  0  0  0  0  0  0  0  0  0  0
   59.5999   33.2989   47.5443 C   0  0  0  0  0  0  0  0  0  0  0  0
   59.2128   34.4953   47.6276 O   0  0  0  0  0  0  0  0  0  0  0  0
   61.5391   31.7269   47.9397 C   0  0  0  0  0  0  0  0  0  0  0  0
   62.9344   31.8353   48.5792 C   0  0  0  0  0  0  0  0  0  0  0  0
   59.2589   28.6058   48.4298 C   0  0  0  0  0  0  0  0  0  0  0  0
   60.5656   28.2275   48.7849 C   0  0  0  0  0  0  0  0  0  0  0  0
   61.1559   28.7331   49.9445 C   0  0  0  0  0  0  0  0  0  0  0  0
   60.4562   29.6313   50.7537 C   0  0  0  0  0  0  0  0  0  0  0  0
   59.1651   30.0428   50.3945 C   0  0  0  0  0  0  0  0  0  0  0  0
   58.5713   29.5302   49.2311 C   0  0  0  0  0  0  0  0  0  0  0  0
   58.2774   31.1632   51.4198 S   0  0  0  0  0  0  0  0  0  0  0  0
   56.7685   30.4564   51.8762 N   0  0  0  0  0  0  0  0  0  0  0  0
   59.0788   31.4701   52.6536 O   0  0  0  0  0  0  0  0  0  0  0  0
   58.0274   32.4467   50.6771 O   0  0  0  0  0  0  0  0  0  0  0  0
   56.9393   29.5860   52.3798 H   0  0  0  0  0  0  0  0  0  0  0  0
 13 14  1  0
 14 15  1  0
 15 16  1  0
 16 17  1  0
 17 18  1  0
 18 19  2  0
 18  7  1  0
  7  8  2  0
  8  9  1  0
  9 10  2  0
 10 11  1  0
 11  1  1  0
  1  2  1  0
  2  3  1  0
  3  4  2  0
  3  5  1  0
  5  6  1  0
  6 22  1  0
 22 23  2  0
 23 24  1  0
 24 25  2  0
 25 26  1  0
 26 28  1  0
 28 29  1  0
 28 30  2  0
 28 31  2  0
 26 27  2  0
 11 12  2  0
 17 20  1  0
 20 21  1  0
 21 14  1  0
 12  7  1  0
  6  1  2  0
 27 22  1  0
 29 32  1  0
M  CHG 1   2  -1
M  CHG 1   5  -1
M  CHG 1  29  -1
M  END
> <UniqueID>
54

> <SMILES>
CN1CCN(C(=O)c2cccc(-c3[n-]c(=O)[n-]c3-c3cccc(S([NH-])(=O)=O)c3)c2)CC1

> <Energy>
101.28646397858216

> <Genealogy>
CN1CCN(C(=O)c2cccc(-c3[n-]c(=O)[n-]c3-c3cccc(S([NH-])(=O)=O)c3)c2)CC1 (protonated)
CN1CCN(C(=O)c2cccc(-c3[n-]c(=O)[n-]c3-c3cccc(S([NH-])(=O)=O)c3)c2)CC1 (3D coordinates assigned)
CN1CCN(C(=O)c2cccc(-c3[n-]c(=O)[n-]c3-c3cccc(S([NH-])(=O)=O)c3)c2)CC1 (nonaromatic ring conformer: 101.28646397858216 kcal/mol)

> <smiles>
CN1CCN(C(=O)c2cccc(-c3[nH]c(=O)[nH]c3-c3cccc(S(N)(=O)=O)c3)c2)CC1

> <score_type>
oracle

> <origin>
adg

> <m_score__min__energy>
-14.029999999999999

> <m_primary>
energy

> <minimizedAffinity>
-8.15059

> <minimizedRMSD>
1.41880

> <CNNscore>
0.4959846735

> <CNNaffinity>
6.2733864784

> <CNN_VS>
3.1115036011

> <CNNaffinity_variance>
0.0569421537

$$$$
63:0


 30 34  0  0  0  0  0  0  0  0999 V2000
   54.0987   31.0628   52.6811 C   0  0  0  0  0  0  0  0  0  0  0  0
   55.1730   30.2720   52.8087 C   0  0  0  0  0  0  0  0  0  0  0  0
   55.2568   28.9620   53.2820 C   0  0  0  0  0  0  0  0  0  0  0  0
   56.5498   28.5574   53.2848 N   0  0  0  0  0  0  0  0  0  0  0  0
   57.2766   29.5681   52.8338 N   0  0  0  0  0  0  0  0  0  0  0  0
   58.6273   29.6447   52.6560 C   0  0  0  0  0  0  0  0  0  0  0  0
   59.4396   28.6590   52.9137 N   0  0  0  0  0  0  0  0  0  0  0  0
   59.1388   30.8128   52.1778 N   0  0  0  0  0  0  0  0  0  0  0  0
   58.3244   31.8779   51.8956 C   0  0  0  0  0  0  0  0  0  0  0  0
   58.8170   32.9878   51.4330 N   0  0  0  0  0  0  0  0  0  0  0  0
   56.9790   31.7738   52.0772 N   0  0  0  0  0  0  0  0  0  0  0  0
   56.4833   30.6058   52.5498 C   0  0  0  0  0  0  0  0  0  0  0  0
   60.1019   33.1119   50.8053 C   0  0  0  0  0  0  0  0  0  0  0  0
   61.2286   33.2931   51.6136 C   0  0  0  0  0  0  0  0  0  0  0  0
   62.4947   33.4142   51.0416 C   0  0  0  0  0  0  0  0  0  0  0  0
   62.6497   33.3421   49.6579 C   0  0  0  0  0  0  0  0  0  0  0  0
   61.5359   33.1365   48.8274 C   0  0  0  0  0  0  0  0  0  0  0  0
   61.7288   33.0302   47.3387 C   0  0  0  0  0  0  0  0  0  0  0  0
   60.2538   33.0043   49.4041 C   0  0  0  0  0  0  0  0  0  0  0  0
   58.8564   32.6403   48.3859 Cl  0  0  0  0  0  0  0  0  0  0  0  0
   53.0778   30.8999   51.6306 C   0  0  0  0  0  0  0  0  0  0  0  0
   53.1486   29.9558   50.6763 N   0  0  0  0  0  0  0  0  0  0  0  0
   51.9939   30.1134   49.9925 C   0  0  0  0  0  0  0  0  0  0  0  0
   51.6947   29.4062   48.9961 O   0  0  0  0  0  0  0  0  0  0  0  0
   51.1822   31.0813   50.4672 N   0  0  0  0  0  0  0  0  0  0  0  0
   51.8752   31.5628   51.5120 C   0  0  0  0  0  0  0  0  0  0  0  0
   51.3922   32.5467   52.3647 O   0  0  0  0  0  0  0  0  0  0  0  0
   60.8972   28.7200   52.9390 C   0  0  0  0  0  0  0  0  0  0  0  0
   61.5703   27.3609   52.9918 C   0  0  0  0  0  0  0  0  0  0  0  0
   61.5228   28.1370   51.6855 C   0  0  0  0  0  0  0  0  0  0  0  0
  1 21  1  0
 21 22  1  0
 22 23  1  0
 23 24  2  0
 23 25  1  0
 25 26  1  0
 26 27  1  0
  1  2  2  0
  2  3  1  0
  3  4  2  0
  4  5  1  0
  5  6  1  0
  6  7  2  0
  7 28  1  0
 28 29  1  0
 29 30  1  0
  6  8  1  0
  8  9  1  0
  9 10  2  0
 10 13  1  0
 13 14  2  0
 14 15  1  0
 15 16  2  0
 16 17  1  0
 17 18  1  0
 17 19  2  0
 19 20  1  0
  9 11  1  0
 11 12  2  0
 26 21  2  0
 12  2  1  0
 12  5  1  0
 30 28  1  0
 19 13  1  0
M  CHG 1   8  -1
M  CHG 1  22  -1
M  CHG 1  25  -1
M  CHG 1  27  -1
M  END
> <UniqueID>
57

> <SMILES>
Cc1cccc(/N=c2/nc3c(=Cc4[n-]c(=O)[n-]c4[O-])cnn3/c(=N\C3CC3)[n-]2)c1Cl

> <Energy>
398.7383625622773

> <Genealogy>
Cc1cccc(N=c2nc3c(=Cc4[n-]c(=O)[n-]c4[O-])cnn3c(=NC3CC3)[n-]2)c1Cl (protonated)
Cc1cccc(/N=c2/nc3c(=Cc4[n-]c(=O)[n-]c4[O-])cnn3/c(=N\C3CC3)[n-]2)c1Cl (cis-trans isomerization)
Cc1cccc(/N=c2/nc3c(=Cc4[n-]c(=O)[n-]c4[O-])cnn3/c(=N\C3CC3)[n-]2)c1Cl (3D coordinates assigned)
Cc1cccc(/N=c2/nc3c(=Cc4[n-]c(=O)[n-]c4[O-])cnn3/c(=N\C3CC3)[n-]2)c1Cl (nonaromatic ring conformer: 398.7383625622773 kcal/mol)

> <smiles>
Cc1cccc(N=c2nc3c(=Cc4[nH]c(=O)[nH]c4O)cnn3c(=NC3CC3)[nH]2)c1Cl

> <score_type>
oracle

> <origin>
adg

> <m_score__min__energy>
-17.850000000000001

> <m_primary>
energy

> <minimizedAffinity>
-6.00608

> <minimizedRMSD>
0.91277

> <CNNscore>
0.1472378373

> <CNNaffinity>
5.8336777687

> <CNN_VS>
0.8589380980

> <CNNaffinity_variance>
0.0538053066

$$$$
70:0


 31 33  0  0  0  0  0  0  0  0999 V2000
   59.2897   33.4339   47.0627 C   0  0  0  0  0  0  0  0  0  0  0  0
   59.0591   34.2116   45.9176 C   0  0  0  0  0  0  0  0  0  0  0  0
   58.4417   33.6470   44.7984 C   0  0  0  0  0  0  0  0  0  0  0  0
   58.0689   32.3000   44.8071 C   0  0  0  0  0  0  0  0  0  0  0  0
   58.3132   31.5048   45.9324 C   0  0  0  0  0  0  0  0  0  0  0  0
   58.8985   32.0849   47.0719 C   0  0  0  0  0  0  0  0  0  0  0  0
   59.9894   34.0332   48.2553 C   0  0  0  0  0  0  0  0  0  0  0  0
   61.8230   31.7368   49.9913 C   0  0  0  0  0  0  0  0  0  0  0  0
   61.9110   33.1884   50.5188 C   0  0  0  0  0  0  0  0  0  0  0  0
   62.1486   34.2213   49.3963 C   0  0  0  0  0  0  0  0  0  0  0  0
   61.4554   33.8671   48.1404 N   0  0  0  0  0  0  0  0  0  0  0  0
   61.8619   32.5406   47.5977 C   0  0  0  0  0  0  0  0  0  0  0  0
   62.5237   31.6076   48.6329 C   0  0  0  0  0  0  0  0  0  0  0  0
   62.3976   30.7616   50.9925 C   0  0  0  0  0  0  0  0  0  0  0  0
   63.0858   31.2176   51.9440 O   0  0  0  0  0  0  0  0  0  0  0  0
   62.1572   29.3426   50.9645 N   0  0  0  0  0  0  0  0  0  0  0  0
   59.8565   29.2308   51.6884 C   0  0  0  0  0  0  0  0  0  0  0  0
   60.9300   28.5454   50.8226 C   0  0  0  0  0  0  0  0  0  0  0  0
   60.4339   28.5296   49.3626 C   0  0  0  0  0  0  0  0  0  0  0  0
   61.1411   27.1178   51.3632 C   0  0  0  0  0  0  0  0  0  0  0  0
   57.9229   30.1237   45.9061 N   0  0  0  0  0  0  0  0  0  0  0  0
   58.7937   28.9979   45.7291 C   0  0  0  0  0  0  0  0  0  0  0  0
   60.0106   29.2105   45.4828 O   0  0  0  0  0  0  0  0  0  0  0  0
   58.3265   27.6017   45.8678 C   0  0  0  0  0  0  0  0  0  0  0  0
   59.2214   26.5210   45.8658 C   0  0  0  0  0  0  0  0  0  0  0  0
   58.7097   25.2282   45.9936 C   0  0  0  0  0  0  0  0  0  0  0  0
   59.4864   24.2385   46.0067 O   0  0  0  0  0  0  0  0  0  0  0  0
   57.3694   25.0366   46.1027 N   0  0  0  0  0  0  0  0  0  0  0  0
   56.5117   26.0906   46.0829 C   0  0  0  0  0  0  0  0  0  0  0  0
   55.2740   25.8937   46.1728 O   0  0  0  0  0  0  0  0  0  0  0  0
   56.9916   27.3564   45.9635 N   0  0  0  0  0  0  0  0  0  0  0  0
 17 18  1  0
 18 19  1  0
 18 20  1  0
 18 16  1  0
 16 14  1  0
 14 15  2  0
 14  8  1  0
  8  9  1  0
  9 10  1  0
 10 11  1  0
 11  7  1  0
  7  1  1  0
  1  2  2  0
  2  3  1  0
  3  4  2  0
  4  5  1  0
  5 21  1  0
 21 22  1  0
 22 23  2  0
 22 24  1  0
 24 25  2  0
 25 26  1  0
 26 27  2  0
 26 28  1  0
 28 29  1  0
 29 30  2  0
 29 31  1  0
  5  6  2  0
 11 12  1  0
 12 13  1  0
 13  8  1  0
  6  1  1  0
 31 24  1  0
M  CHG 1  16  -1
M  CHG 1  21  -1
M  CHG 1  28  -1
M  CHG 1  31  -1
M  END
> <UniqueID>
63

> <SMILES>
CC(C)(C)[N-]C(=O)C1CCN(Cc2cccc([N-]C(=O)c3cc(=O)[n-]c(=O)[n-]3)c2)CC1

> <Energy>
69.00904464188551

> <Genealogy>
CC(C)(C)[N-]C(=O)C1CCN(Cc2cccc([N-]C(=O)c3cc(=O)[n-]c(=O)[n-]3)c2)CC1 (protonated)
CC(C)(C)[N-]C(=O)C1CCN(Cc2cccc([N-]C(=O)c3cc(=O)[n-]c(=O)[n-]3)c2)CC1 (3D coordinates assigned)
CC(C)(C)[N-]C(=O)C1CCN(Cc2cccc([N-]C(=O)c3cc(=O)[n-]c(=O)[n-]3)c2)CC1 (nonaromatic ring conformer: 69.00904464188551 kcal/mol)

> <smiles>
CC(C)(C)NC(=O)C1CCN(Cc2cccc(NC(=O)c3cc(=O)[nH]c(=O)[nH]3)c2)CC1

> <score_type>
oracle

> <origin>
adg

> <m_score__min__energy>
-16.420000000000002

> <m_primary>
energy

> <minimizedAffinity>
-7.97248

> <minimizedRMSD>
1.71059

> <CNNscore>
0.2346752733

> <CNNaffinity>
6.5786623955

> <CNN_VS>
1.5438493490

> <CNNaffinity_variance>
0.0009012761

$$$$
73:0


 27 28  0  0  0  0  0  0  0  0999 V2000
   58.7856   27.6677   44.6357 C   0  0  0  0  0  0  0  0  0  0  0  0
   57.8799   26.5235   44.7360 N   0  0  0  0  0  0  0  0  0  0  0  0
   58.1401   25.3818   45.5675 C   0  0  0  0  0  0  0  0  0  0  0  0
   59.1863   25.3346   46.2687 O   0  0  0  0  0  0  0  0  0  0  0  0
   57.0499   26.5367   44.2066 H   0  0  0  0  0  0  0  0  0  0  0  0
   57.1645   24.2689   45.6441 C   0  0  0  0  0  0  0  0  0  0  0  0
   55.8069   24.4989   45.9388 C   0  0  0  0  0  0  0  0  0  0  0  0
   55.3202   25.7906   46.1074 O   0  0  0  0  0  0  0  0  0  0  0  0
   54.9458   23.4540   46.0351 N   0  0  0  0  0  0  0  0  0  0  0  0
   55.3641   22.1781   45.8402 C   0  0  0  0  0  0  0  0  0  0  0  0
   54.5468   21.2272   45.9381 O   0  0  0  0  0  0  0  0  0  0  0  0
   56.6616   21.9278   45.5374 N   0  0  0  0  0  0  0  0  0  0  0  0
   57.5663   22.9364   45.4318 C   0  0  0  0  0  0  0  0  0  0  0  0
   58.7654   22.6589   45.1618 O   0  0  0  0  0  0  0  0  0  0  0  0
   58.8916   28.3931   45.9831 C   0  0  0  0  0  0  0  0  0  0  0  0
   60.0628   29.3871   46.0452 C   0  0  0  0  0  0  0  0  0  0  0  0
   60.1193   30.0943   47.3490 N   0  0  0  0  0  0  0  0  0  0  0  0
   61.3447   30.9069   47.4392 C   0  0  0  0  0  0  0  0  0  0  0  0
   58.9313   30.9504   47.5831 C   0  0  0  0  0  0  0  0  0  0  0  0
   58.0704   32.2551   45.5704 C   0  0  0  0  0  0  0  0  0  0  0  0
   58.1096   33.4122   44.7675 C   0  0  0  0  0  0  0  0  0  0  0  0
   59.0085   34.4423   45.0534 C   0  0  0  0  0  0  0  0  0  0  0  0
   59.8797   34.3315   46.1359 C   0  0  0  0  0  0  0  0  0  0  0  0
   59.8548   33.1909   46.9371 C   0  0  0  0  0  0  0  0  0  0  0  0
   58.9510   32.1483   46.6680 C   0  0  0  0  0  0  0  0  0  0  0  0
   56.8663   30.6975   44.0239 C   0  0  0  0  0  0  0  0  0  0  0  0
   57.1664   31.2101   45.3173 O   0  0  0  0  0  0  0  0  0  0  0  0
 26 27  1  0
 27 20  1  0
 20 21  2  0
 21 22  1  0
 22 23  2  0
 23 24  1  0
 24 25  2  0
 25 19  1  0
 19 17  1  0
 17 18  1  0
 17 16  1  0
 16 15  1  0
 15  1  1  0
  1  2  1  0
  2  3  1  0
  3  4  2  0
  3  6  1  0
  6  7  2  0
  7  8  1  0
  7  9  1  0
  9 10  1  0
 10 11  2  0
 10 12  1  0
 12 13  1  0
 13 14  2  0
 25 20  1  0
 13  6  1  0
  2  5  1  0
M  CHG 1   8  -1
M  CHG 1   9  -1
M  CHG 1  12  -1
M  END
> <UniqueID>
66

> <SMILES>
COc1ccccc1CN(C)CCCNC(=O)c1c([O-])[n-]c(=O)[n-]c1=O

> <Energy>
46.401299277258055

> <Genealogy>
COc1ccccc1CN(C)CCCNC(=O)c1c([O-])[n-]c(=O)[n-]c1=O (protonated)
COc1ccccc1CN(C)CCCNC(=O)c1c([O-])[n-]c(=O)[n-]c1=O (3D coordinates assigned)
COc1ccccc1CN(C)CCCNC(=O)c1c([O-])[n-]c(=O)[n-]c1=O (optimized conformer: 46.401299277258055 kcal/mol)

> <smiles>
COc1ccccc1CN(C)CCCNC(=O)c1c(O)[nH]c(=O)[nH]c1=O

> <score_type>
oracle

> <origin>
adg

> <m_score__min__energy>
-15.17

> <m_primary>
energy

> <minimizedAffinity>
-7.87422

> <minimizedRMSD>
1.32426

> <CNNscore>
0.3747084439

> <CNNaffinity>
6.5672302246

> <CNN_VS>
2.4607965946

> <CNNaffinity_variance>
0.1580067128

$$$$
80:0


 34 37  0  0  0  0  0  0  0  0999 V2000
   58.7594   30.8022   46.0335 C   0  0  0  0  0  0  0  0  0  0  0  0
   57.9980   31.5483   45.1282 C   0  0  0  0  0  0  0  0  0  0  0  0
   58.1868   32.9272   45.0204 C   0  0  0  0  0  0  0  0  0  0  0  0
   59.1421   33.5841   45.8140 C   0  0  0  0  0  0  0  0  0  0  0  0
   59.3296   35.0668   45.6436 C   0  0  0  0  0  0  0  0  0  0  0  0
   59.8917   32.8356   46.7570 C   0  0  0  0  0  0  0  0  0  0  0  0
   59.7128   31.4454   46.8311 C   0  0  0  0  0  0  0  0  0  0  0  0
   57.7785   28.9432   43.9383 C   0  0  0  0  0  0  0  0  0  0  0  0
   58.1429   28.5341   45.1634 C   0  0  0  0  0  0  0  0  0  0  0  0
   58.0436   27.2355   45.6925 C   0  0  0  0  0  0  0  0  0  0  0  0
   57.7431   26.0608   45.1069 C   0  0  0  0  0  0  0  0  0  0  0  0
   58.3553   27.3414   47.0388 C   0  0  0  0  0  0  0  0  0  0  0  0
   58.6862   28.6602   47.2719 C   0  0  0  0  0  0  0  0  0  0  0  0
   59.1132   29.2147   48.5966 C   0  0  0  0  0  0  0  0  0  0  0  0
   58.5695   29.3804   46.1367 N   0  0  0  0  0  0  0  0  0  0  0  0
   57.1603   24.8893   45.7824 C   0  0  0  0  0  0  0  0  0  0  0  0
   57.8656   23.8334   46.2304 N   0  0  0  0  0  0  0  0  0  0  0  0
   56.9434   23.1024   46.8918 C   0  0  0  0  0  0  0  0  0  0  0  0
   57.2192   22.0090   47.4503 O   0  0  0  0  0  0  0  0  0  0  0  0
   55.7047   23.6398   46.9172 N   0  0  0  0  0  0  0  0  0  0  0  0
   55.8646   24.7772   46.2224 C   0  0  0  0  0  0  0  0  0  0  0  0
   54.8479   25.6971   46.0000 O   0  0  0  0  0  0  0  0  0  0  0  0
   60.8801   33.4563   47.6708 C   0  0  0  0  0  0  0  0  0  0  0  0
   60.4333   34.1830   48.6028 O   0  0  0  0  0  0  0  0  0  0  0  0
   62.3124   33.1995   47.5562 N   0  0  0  0  0  0  0  0  0  0  0  0
   63.1266   34.0230   48.4789 C   0  0  0  0  0  0  0  0  0  0  0  0
   62.9148   33.6338   49.9485 C   0  0  0  0  0  0  0  0  0  0  0  0
   63.0940   32.1872   50.1371 N   0  0  0  0  0  0  0  0  0  0  0  0
   63.5458   31.6969   51.4215 C   0  0  0  0  0  0  0  0  0  0  0  0
   63.3984   30.2571   51.8158 C   0  0  0  0  0  0  0  0  0  0  0  0
   64.0949   32.4847   52.2382 O   0  0  0  0  0  0  0  0  0  0  0  0
   62.4421   31.2855   49.1757 C   0  0  0  0  0  0  0  0  0  0  0  0
   62.6595   31.7700   47.7328 C   0  0  0  0  0  0  0  0  0  0  0  0
   61.7972   32.8635   46.7875 H   0  0  0  0  0  0  0  0  0  0  0  0
  8  9  2  0
  9 10  1  0
 10 11  2  0
 11 16  1  0
 16 17  1  0
 17 18  1  0
 18 19  2  0
 18 20  1  0
 20 21  1  0
 21 22  1  0
 10 12  1  0
 12 13  2  0
 13 14  1  0
 13 15  1  0
 15  1  1  0
  1  2  2  0
  2  3  1  0
  3  4  2  0
  4  5  1  0
  4  6  1  0
  6 23  1  0
 23 24  2  0
 23 25  1  0
 25 26  1  0
 26 27  1  0
 27 28  1  0
 28 29  1  0
 29 30  1  0
 29 31  2  0
 28 32  1  0
 32 33  1  0
  6  7  2  0
 15  9  1  0
  7  1  1  0
 21 16  2  0
 33 25  1  0
 25 34  1  0
M  CHG 1  17  -1
M  CHG 1  20  -1
M  CHG 1  22  -1
M  CHG 1  25   1
M  END
> <UniqueID>
73

> <SMILES>
C=c1c(=Cc2[n-]c(=O)[n-]c2[O-])cc(C)n1-c1ccc(C)c(C(=O)[NH+]2CCN(C(C)=O)CC2)c1

> <Energy>
148.25374522282846

> <Genealogy>
C=c1c(=Cc2[n-]c(=O)[n-]c2[O-])cc(C)n1-c1ccc(C)c(C(=O)[NH+]2CCN(C(C)=O)CC2)c1 (protonated)
C=c1c(=Cc2[n-]c(=O)[n-]c2[O-])cc(C)n1-c1ccc(C)c(C(=O)[NH+]2CCN(C(C)=O)CC2)c1 (3D coordinates assigned)
C=c1c(=Cc2[n-]c(=O)[n-]c2[O-])cc(C)n1-c1ccc(C)c(C(=O)[NH+]2CCN(C(C)=O)CC2)c1 (nonaromatic ring conformer: 148.25374522282846 kcal/mol)

> <smiles>
C=c1c(=Cc2[nH]c(=O)[nH]c2O)cc(C)n1-c1ccc(C)c(C(=O)N2CCN(C(C)=O)CC2)c1

> <score_type>
oracle

> <origin>
adg

> <m_score__min__energy>
-15.73

> <m_primary>
energy

> <minimizedAffinity>
-10.09617

> <minimizedRMSD>
0.85438

> <CNNscore>
0.1662444323

> <CNNaffinity>
6.9809556007

> <CNN_VS>
1.1605449915

> <CNNaffinity_variance>
0.1148659214

$$$$
81:0


 37 40  0  0  0  0  0  0  0  0999 V2000
   57.6972   28.2955   44.2366 O   0  0  0  0  0  0  0  0  0  0  0  0
   58.8403   27.8222   44.9045 C   0  0  0  0  0  0  0  0  0  0  0  0
   60.0482   28.5479   44.9189 C   0  0  0  0  0  0  0  0  0  0  0  0
   61.1472   28.0774   45.6385 C   0  0  0  0  0  0  0  0  0  0  0  0
   61.0579   26.8823   46.3536 C   0  0  0  0  0  0  0  0  0  0  0  0
   59.8707   26.1486   46.3401 C   0  0  0  0  0  0  0  0  0  0  0  0
   58.7659   26.5953   45.6000 C   0  0  0  0  0  0  0  0  0  0  0  0
   57.5515   25.8297   45.6345 N   0  0  0  0  0  0  0  0  0  0  0  0
   57.2287   24.9140   46.6909 C   0  0  0  0  0  0  0  0  0  0  0  0
   57.7910   25.0323   47.8138 O   0  0  0  0  0  0  0  0  0  0  0  0
   56.9087   25.9384   44.8969 H   0  0  0  0  0  0  0  0  0  0  0  0
   56.2021   23.8642   46.4989 C   0  0  0  0  0  0  0  0  0  0  0  0
   56.5405   22.5127   46.6860 C   0  0  0  0  0  0  0  0  0  0  0  0
   55.5806   21.5163   46.5136 C   0  0  0  0  0  0  0  0  0  0  0  0
   54.2826   21.8723   46.1447 C   0  0  0  0  0  0  0  0  0  0  0  0
   53.4030   20.9859   45.9889 O   0  0  0  0  0  0  0  0  0  0  0  0
   53.9691   23.1792   45.9475 N   0  0  0  0  0  0  0  0  0  0  0  0
   54.8839   24.1738   46.1051 C   0  0  0  0  0  0  0  0  0  0  0  0
   54.5014   25.4853   45.8471 O   0  0  0  0  0  0  0  0  0  0  0  0
   56.9316   29.4399   44.6113 C   0  0  0  0  0  0  0  0  0  0  0  0
   59.3600   32.1272   46.9684 C   0  0  0  0  0  0  0  0  0  0  0  0
   58.8992   32.5170   45.6986 C   0  0  0  0  0  0  0  0  0  0  0  0
   58.1084   31.6518   44.9369 C   0  0  0  0  0  0  0  0  0  0  0  0
   57.7645   30.3855   45.4315 C   0  0  0  0  0  0  0  0  0  0  0  0
   58.2022   30.0036   46.7078 C   0  0  0  0  0  0  0  0  0  0  0  0
   58.9921   30.8688   47.4726 C   0  0  0  0  0  0  0  0  0  0  0  0
   65.0550   33.8500   51.7169 C   0  0  0  0  0  0  0  0  0  0  0  0
   64.4169   32.6317   51.1189 C   0  0  0  0  0  0  0  0  0  0  0  0
   64.8193   31.4996   51.5051 O   0  0  0  0  0  0  0  0  0  0  0  0
   63.3822   32.7254   50.1124 N   0  0  0  0  0  0  0  0  0  0  0  0
   62.5000   31.5667   49.8765 C   0  0  0  0  0  0  0  0  0  0  0  0
   62.0868   31.4871   48.4051 C   0  0  0  0  0  0  0  0  0  0  0  0
   61.6058   32.7981   47.9648 N   0  0  0  0  0  0  0  0  0  0  0  0
   60.1991   33.0412   47.7801 C   0  0  0  0  0  0  0  0  0  0  0  0
   59.6703   34.0562   48.3120 O   0  0  0  0  0  0  0  0  0  0  0  0
   62.5373   33.9153   48.1177 C   0  0  0  0  0  0  0  0  0  0  0  0
   62.9545   34.0357   49.5850 C   0  0  0  0  0  0  0  0  0  0  0  0
 27 28  1  0
 28 29  2  0
 28 30  1  0
 30 31  1  0
 31 32  1  0
 32 33  1  0
 33 34  1  0
 34 35  2  0
 34 21  1  0
 21 22  2  0
 22 23  1  0
 23 24  2  0
 24 20  1  0
 20  1  1  0
  1  2  1  0
  2  3  2  0
  3  4  1  0
  4  5  2  0
  5  6  1  0
  6  7  2  0
  7  8  1  0
  8  9  1  0
  9 10  2  0
  9 12  1  0
 12 13  1  0
 13 14  2  0
 14 15  1  0
 15 16  2  0
 15 17  1  0
 17 18  1  0
 18 19  1  0
 24 25  1  0
 25 26  2  0
 33 36  1  0
 36 37  1  0
 37 30  1  0
 26 21  1  0
  7  2  1  0
 18 12  2  0
  8 11  1  0
M  CHG 1  17  -1
M  CHG 1  19  -1
M  END
> <UniqueID>
74

> <SMILES>
CC(=O)N1CCN(C(=O)c2ccc(COc3ccccc3NC(=O)c3ccc(=O)[n-]c3[O-])cc2)CC1

> <Energy>
76.86740701291717

> <Genealogy>
CC(=O)N1CCN(C(=O)c2ccc(COc3ccccc3NC(=O)c3ccc(=O)[n-]c3[O-])cc2)CC1 (protonated)
CC(=O)N1CCN(C(=O)c2ccc(COc3ccccc3NC(=O)c3ccc(=O)[n-]c3[O-])cc2)CC1 (3D coordinates assigned)
CC(=O)N1CCN(C(=O)c2ccc(COc3ccccc3NC(=O)c3ccc(=O)[n-]c3[O-])cc2)CC1 (nonaromatic ring conformer: 76.86740701291717 kcal/mol)

> <smiles>
CC(=O)N1CCN(C(=O)c2ccc(COc3ccccc3NC(=O)c3ccc(=O)[nH]c3O)cc2)CC1

> <score_type>
oracle

> <origin>
adg

> <m_score__min__energy>
-14.710000000000001

> <m_primary>
energy

> <minimizedAffinity>
-7.41767

> <minimizedRMSD>
0.91077

> <CNNscore>
0.1088728532

> <CNNaffinity>
6.3917145729

> <CNN_VS>
0.6958842278

> <CNNaffinity_variance>
0.0673062876

$$$$
85:0


 28 30  0  0  0  0  0  0  0  0999 V2000
   57.3591   29.9296   45.6186 O   0  0  0  0  0  0  0  0  0  0  0  0
   58.2711   29.6870   46.4547 C   0  0  0  0  0  0  0  0  0  0  0  0
   58.4680   28.2894   46.9519 C   0  0  0  0  0  0  0  0  0  0  0  0
   57.6716   27.3567   46.1602 N   0  0  0  0  0  0  0  0  0  0  0  0
   58.0985   26.8993   44.8642 C   0  0  0  0  0  0  0  0  0  0  0  0
   59.0955   27.4285   44.2969 O   0  0  0  0  0  0  0  0  0  0  0  0
   56.8168   27.0307   46.5237 H   0  0  0  0  0  0  0  0  0  0  0  0
   57.4232   25.7267   44.2256 C   0  0  0  0  0  0  0  0  0  0  0  0
   57.0322   24.7335   45.2751 C   0  0  0  0  0  0  0  0  0  0  0  0
   57.9254   23.3686   45.7033 S   0  0  0  0  0  0  0  0  0  0  0  0
   56.8499   22.9423   46.9243 C   0  0  0  0  0  0  0  0  0  0  0  0
   56.9790   21.9233   47.6594 O   0  0  0  0  0  0  0  0  0  0  0  0
   55.8234   23.8116   47.0348 N   0  0  0  0  0  0  0  0  0  0  0  0
   55.9289   24.8145   46.1216 C   0  0  0  0  0  0  0  0  0  0  0  0
   54.9954   25.8364   46.0439 O   0  0  0  0  0  0  0  0  0  0  0  0
   59.0752   30.7428   46.9920 N   0  0  0  0  0  0  0  0  0  0  0  0
   59.1391   32.0963   46.5160 C   0  0  0  0  0  0  0  0  0  0  0  0
   58.3164   32.5354   45.4630 C   0  0  0  0  0  0  0  0  0  0  0  0
   58.4342   33.8383   44.9707 C   0  0  0  0  0  0  0  0  0  0  0  0
   59.3805   34.7076   45.5174 C   0  0  0  0  0  0  0  0  0  0  0  0
   60.2204   34.2762   46.5471 C   0  0  0  0  0  0  0  0  0  0  0  0
   60.1104   32.9722   47.0486 C   0  0  0  0  0  0  0  0  0  0  0  0
   61.0100   32.5295   48.0830 N   0  0  0  0  0  0  0  0  0  0  0  0
   60.6438   32.7021   49.4927 C   0  0  0  0  0  0  0  0  0  0  0  0
   61.8852   32.5527   50.3791 C   0  0  0  0  0  0  0  0  0  0  0  0
   62.9942   33.1433   49.7323 O   0  0  0  0  0  0  0  0  0  0  0  0
   63.4177   32.3371   48.6431 C   0  0  0  0  0  0  0  0  0  0  0  0
   62.2568   31.8271   47.7548 C   0  0  0  0  0  0  0  0  0  0  0  0
  1  2  2  0
  2  3  1  0
  3  4  1  0
  4  5  1  0
  5  6  2  0
  5  8  1  0
  8  9  1  0
  9 10  1  0
 10 11  1  0
 11 12  2  0
 11 13  1  0
 13 14  1  0
 14 15  1  0
  2 16  1  0
 16 17  1  0
 17 18  2  0
 18 19  1  0
 19 20  2  0
 20 21  1  0
 21 22  2  0
 22 23  1  0
 23 24  1  0
 24 25  1  0
 25 26  1  0
 26 27  1  0
 27 28  1  0
 14  9  2  0
 22 17  1  0
 28 23  1  0
  4  7  1  0
M  CHG 1  13  -1
M  CHG 1  15  -1
M  CHG 1  16  -1
M  END
> <UniqueID>
78

> <SMILES>
O=C(CNC(=O)Cc1sc(=O)[n-]c1[O-])[N-]c1ccccc1N1CCOCC1

> <Energy>
82.3567251644644

> <Genealogy>
O=C(CNC(=O)Cc1sc(=O)[n-]c1[O-])[N-]c1ccccc1N1CCOCC1 (protonated)
O=C(CNC(=O)Cc1sc(=O)[n-]c1[O-])[N-]c1ccccc1N1CCOCC1 (3D coordinates assigned)
O=C(CNC(=O)Cc1sc(=O)[n-]c1[O-])[N-]c1ccccc1N1CCOCC1 (nonaromatic ring conformer: 82.3567251644644 kcal/mol)

> <smiles>
O=C(Cc1sc(=O)[nH]c1O)NCC(=O)Nc1ccccc1N1CCOCC1

> <score_type>
oracle

> <origin>
adg

> <m_score__min__energy>
-16.370000000000001

> <m_primary>
energy

> <minimizedAffinity>
-7.54039

> <minimizedRMSD>
0.87881

> <CNNscore>
0.5495915413

> <CNNaffinity>
6.6726450920

> <CNN_VS>
3.6672294140

> <CNNaffinity_variance>
0.0533551835

$$$$
87:0


 34 38  0  0  0  0  0  0  0  0999 V2000
   57.3796   29.0952   54.1602 C   0  0  0  0  0  0  0  0  0  0  0  0
   58.1424   28.4617   55.1503 C   0  0  0  0  0  0  0  0  0  0  0  0
   59.5090   28.2545   54.9568 C   0  0  0  0  0  0  0  0  0  0  0  0
   60.1208   28.6673   53.7701 C   0  0  0  0  0  0  0  0  0  0  0  0
   59.3664   29.2887   52.7571 C   0  0  0  0  0  0  0  0  0  0  0  0
   57.9939   29.5062   52.9678 C   0  0  0  0  0  0  0  0  0  0  0  0
   59.9885   29.7225   51.5320 N   0  0  0  0  0  0  0  0  0  0  0  0
   59.4876   29.4257   50.1817 C   0  0  0  0  0  0  0  0  0  0  0  0
   60.4154   30.1943   49.2852 C   0  0  0  0  0  0  0  0  0  0  0  0
   60.3947   30.2763   47.8942 C   0  0  0  0  0  0  0  0  0  0  0  0
   61.3805   31.0434   47.2501 C   0  0  0  0  0  0  0  0  0  0  0  0
   62.3800   31.7147   48.0043 C   0  0  0  0  0  0  0  0  0  0  0  0
   62.3774   31.6107   49.4064 C   0  0  0  0  0  0  0  0  0  0  0  0
   61.3828   30.8457   50.0137 C   0  0  0  0  0  0  0  0  0  0  0  0
   61.1420   30.5574   51.4042 C   0  0  0  0  0  0  0  0  0  0  0  0
   61.8712   30.9284   52.3617 O   0  0  0  0  0  0  0  0  0  0  0  0
   63.3844   32.4863   47.3997 O   0  0  0  0  0  0  0  0  0  0  0  0
   63.1665   33.7559   46.7934 C   0  0  0  0  0  0  0  0  0  0  0  0
   55.4956   30.5691   52.4002 C   0  0  0  0  0  0  0  0  0  0  0  0
   55.1073   29.9390   53.5202 C   0  0  0  0  0  0  0  0  0  0  0  0
   53.8208   29.9203   54.0847 C   0  0  0  0  0  0  0  0  0  0  0  0
   52.6384   30.3607   53.6124 C   0  0  0  0  0  0  0  0  0  0  0  0
   53.9470   29.2981   55.3171 C   0  0  0  0  0  0  0  0  0  0  0  0
   55.2659   28.9156   55.4388 C   0  0  0  0  0  0  0  0  0  0  0  0
   55.8365   28.1707   56.6069 C   0  0  0  0  0  0  0  0  0  0  0  0
   55.9683   29.2927   54.3472 N   0  0  0  0  0  0  0  0  0  0  0  0
   52.2985   30.5452   52.1912 C   0  0  0  0  0  0  0  0  0  0  0  0
   52.4772   29.6266   51.2275 N   0  0  0  0  0  0  0  0  0  0  0  0
   51.8870   30.1572   50.1387 C   0  0  0  0  0  0  0  0  0  0  0  0
   51.8589   29.5778   49.0211 O   0  0  0  0  0  0  0  0  0  0  0  0
   51.3149   31.3616   50.3544 N   0  0  0  0  0  0  0  0  0  0  0  0
   51.5694   31.5833   51.6583 C   0  0  0  0  0  0  0  0  0  0  0  0
   51.1368   32.7077   52.3491 O   0  0  0  0  0  0  0  0  0  0  0  0
   52.9369   28.7590   51.3006 H   0  0  0  0  0  0  0  0  0  0  0  0
 19 20  2  0
 20 21  1  0
 21 22  2  0
 22 27  1  0
 27 28  1  0
 28 29  1  0
 29 30  2  0
 29 31  1  0
 31 32  1  0
 32 33  1  0
 21 23  1  0
 23 24  2  0
 24 25  1  0
 24 26  1  0
 26  1  1  0
  1  2  2  0
  2  3  1  0
  3  4  2  0
  4  5  1  0
  5  7  1  0
  7  8  1  0
  8  9  1  0
  9 10  2  0
 10 11  1  0
 11 12  2  0
 12 17  1  0
 17 18  1  0
 12 13  1  0
 13 14  2  0
 14 15  1  0
 15 16  2  0
  5  6  2  0
 26 20  1  0
  6  1  1  0
 32 27  2  0
 15  7  1  0
 14  9  1  0
 28 34  1  0
M  CHG 1  31  -1
M  CHG 1  33  -1
M  END
> <UniqueID>
80

> <SMILES>
C=c1c(=Cc2[nH]c(=O)[n-]c2[O-])cc(C)n1-c1cccc(N2Cc3ccc(OC)cc3C2=O)c1

> <Energy>
160.34293107730772

> <Genealogy>
C=c1c(=Cc2[nH]c(=O)[n-]c2[O-])cc(C)n1-c1cccc(N2Cc3ccc(OC)cc3C2=O)c1 (protonated)
C=c1c(=Cc2[nH]c(=O)[n-]c2[O-])cc(C)n1-c1cccc(N2Cc3ccc(OC)cc3C2=O)c1 (3D coordinates assigned)
C=c1c(=Cc2[nH]c(=O)[n-]c2[O-])cc(C)n1-c1cccc(N2Cc3ccc(OC)cc3C2=O)c1 (nonaromatic ring conformer: 160.34293107730772 kcal/mol)

> <smiles>
C=c1c(=Cc2[nH]c(=O)[nH]c2O)cc(C)n1-c1cccc(N2Cc3ccc(OC)cc3C2=O)c1

> <score_type>
oracle

> <origin>
adg

> <m_score__min__energy>
-15.460000000000001

> <m_primary>
energy

> <minimizedAffinity>
-7.33835

> <minimizedRMSD>
1.17605

> <CNNscore>
0.0691004544

> <CNNaffinity>
5.2090010643

> <CNN_VS>
0.3599443436

> <CNNaffinity_variance>
0.6384296417

$$$$
88:0


 29 31  0  0  0  0  0  0  0  0999 V2000
   57.8822   27.2274   46.5687 C   0  0  0  0  0  0  0  0  0  0  0  0
   57.9035   25.9719   46.6619 O   0  0  0  0  0  0  0  0  0  0  0  0
   57.1507   27.8111   45.4814 N   0  0  0  0  0  0  0  0  0  0  0  0
   57.6849   28.7052   44.4573 C   0  0  0  0  0  0  0  0  0  0  0  0
   56.8017   29.9052   44.3174 C   0  0  0  0  0  0  0  0  0  0  0  0
   55.7265   29.8188   43.6683 O   0  0  0  0  0  0  0  0  0  0  0  0
   57.1698   31.1412   44.9395 N   0  0  0  0  0  0  0  0  0  0  0  0
   58.0100   31.2311   46.1295 C   0  0  0  0  0  0  0  0  0  0  0  0
   58.9500   33.1506   47.4962 C   0  0  0  0  0  0  0  0  0  0  0  0
   59.4911   34.4498   47.5651 C   0  0  0  0  0  0  0  0  0  0  0  0
   59.6953   35.1919   46.4016 C   0  0  0  0  0  0  0  0  0  0  0  0
   59.3580   34.6581   45.1594 C   0  0  0  0  0  0  0  0  0  0  0  0
   58.8160   33.3732   45.0757 C   0  0  0  0  0  0  0  0  0  0  0  0
   58.6134   32.6080   46.2359 C   0  0  0  0  0  0  0  0  0  0  0  0
   58.9046   32.8515   49.9808 C   0  0  0  0  0  0  0  0  0  0  0  0
   58.7332   32.3793   48.6501 O   0  0  0  0  0  0  0  0  0  0  0  0
   58.7160   28.0635   47.5173 C   0  0  0  0  0  0  0  0  0  0  0  0
   60.0754   28.4804   46.9346 C   0  0  0  0  0  0  0  0  0  0  0  0
   60.7583   29.5268   47.7640 C   0  0  0  0  0  0  0  0  0  0  0  0
   60.7400   29.4371   49.1208 N   0  0  0  0  0  0  0  0  0  0  0  0
   61.3617   30.3567   49.9022 C   0  0  0  0  0  0  0  0  0  0  0  0
   61.3241   30.2303   51.1551 O   0  0  0  0  0  0  0  0  0  0  0  0
   62.0429   31.4309   49.3053 C   0  0  0  0  0  0  0  0  0  0  0  0
   62.7128   32.4146   50.0549 C   0  0  0  0  0  0  0  0  0  0  0  0
   63.3682   33.4641   49.4059 C   0  0  0  0  0  0  0  0  0  0  0  0
   63.3629   33.5407   48.0074 C   0  0  0  0  0  0  0  0  0  0  0  0
   62.7026   32.5656   47.2542 C   0  0  0  0  0  0  0  0  0  0  0  0
   62.0429   31.5116   47.8940 C   0  0  0  0  0  0  0  0  0  0  0  0
   61.4050   30.5613   47.1634 N   0  0  0  0  0  0  0  0  0  0  0  0
 15 16  1  0
 16  9  1  0
  9 10  2  0
 10 11  1  0
 11 12  2  0
 12 13  1  0
 13 14  2  0
 14  8  1  0
  8  7  1  0
  7  5  1  0
  5  6  2  0
  5  4  1  0
  4  3  1  0
  3  1  1  0
  1  2  2  0
  1 17  1  0
 17 18  1  0
 18 19  1  0
 19 20  2  0
 20 21  1  0
 21 22  2  0
 21 23  1  0
 23 24  2  0
 24 25  1  0
 25 26  2  0
 26 27  1  0
 27 28  2  0
 28 29  1  0
 14  9  1  0
 29 19  1  0
 28 23  1  0
M  CHG 1   3  -1
M  CHG 1   7  -1
M  CHG 1  29  -1
M  END
> <UniqueID>
81

> <SMILES>
COc1ccccc1C[N-]C(=O)C[N-]C(=O)CCc1nc(=O)c2ccccc2[n-]1

> <Energy>
47.47932502825753

> <Genealogy>
COc1ccccc1C[N-]C(=O)C[N-]C(=O)CCc1nc(=O)c2ccccc2[n-]1 (protonated)
COc1ccccc1C[N-]C(=O)C[N-]C(=O)CCc1nc(=O)c2ccccc2[n-]1 (3D coordinates assigned)
COc1ccccc1C[N-]C(=O)C[N-]C(=O)CCc1nc(=O)c2ccccc2[n-]1 (optimized conformer: 47.47932502825753 kcal/mol)

> <smiles>
COc1ccccc1CNC(=O)CNC(=O)CCc1nc(=O)c2ccccc2[nH]1

> <score_type>
oracle

> <origin>
adg

> <m_score__min__energy>
-14.199999999999999

> <m_primary>
energy

> <minimizedAffinity>
-6.78238

> <minimizedRMSD>
1.65494

> <CNNscore>
0.8231133223

> <CNNaffinity>
7.0103588104

> <CNN_VS>
5.7703199387

> <CNNaffinity_variance>
0.0210898053

$$$$
9:0


 31 33  0  0  0  0  0  0  0  0999 V2000
   58.1755   27.5994   46.0909 C   0  0  0  0  0  0  0  0  0  0  0  0
   57.9162   28.9257   45.6913 C   0  0  0  0  0  0  0  0  0  0  0  0
   56.6799   29.2529   45.1450 O   0  0  0  0  0  0  0  0  0  0  0  0
   58.8635   29.9046   45.8638 N   0  0  0  0  0  0  0  0  0  0  0  0
   60.0522   29.5998   46.4752 C   0  0  0  0  0  0  0  0  0  0  0  0
   60.9312   30.4833   46.6619 O   0  0  0  0  0  0  0  0  0  0  0  0
   60.3024   28.3334   46.8894 N   0  0  0  0  0  0  0  0  0  0  0  0
   59.4062   27.3339   46.7125 C   0  0  0  0  0  0  0  0  0  0  0  0
   59.6985   26.1715   47.0990 O   0  0  0  0  0  0  0  0  0  0  0  0
   57.1923   26.5026   45.8673 C   0  0  0  0  0  0  0  0  0  0  0  0
   55.9965   26.6594   46.2397 O   0  0  0  0  0  0  0  0  0  0  0  0
   57.5749   25.2038   45.2161 C   0  0  0  0  0  0  0  0  0  0  0  0
   56.4438   24.2785   45.2531 N   0  0  0  0  0  0  0  0  0  0  0  0
   56.5660   23.2339   46.6354 S   0  0  0  0  0  0  0  0  0  0  0  0
   57.4040   22.0388   46.2793 O   0  0  0  0  0  0  0  0  0  0  0  0
   57.2235   23.9585   47.7777 O   0  0  0  0  0  0  0  0  0  0  0  0
   52.3417   21.9673   47.8435 C   0  0  0  0  0  0  0  0  0  0  0  0
   52.6265   22.3273   46.5125 C   0  0  0  0  0  0  0  0  0  0  0  0
   53.9262   22.6907   46.1448 C   0  0  0  0  0  0  0  0  0  0  0  0
   54.9555   22.6930   47.0952 C   0  0  0  0  0  0  0  0  0  0  0  0
   54.6756   22.3260   48.4181 C   0  0  0  0  0  0  0  0  0  0  0  0
   53.3765   21.9637   48.7870 C   0  0  0  0  0  0  0  0  0  0  0  0
   49.9078   22.4585   48.1277 C   0  0  0  0  0  0  0  0  0  0  0  0
   51.0504   21.6206   48.2680 O   0  0  0  0  0  0  0  0  0  0  0  0
   58.5778   31.2810   45.4122 C   0  0  0  0  0  0  0  0  0  0  0  0
   58.9984   32.2830   46.4557 C   0  0  0  0  0  0  0  0  0  0  0  0
   59.6454   33.4710   46.0768 C   0  0  0  0  0  0  0  0  0  0  0  0
   60.0483   34.3952   47.0457 C   0  0  0  0  0  0  0  0  0  0  0  0
   59.8106   34.1399   48.3993 C   0  0  0  0  0  0  0  0  0  0  0  0
   59.1699   32.9601   48.7849 C   0  0  0  0  0  0  0  0  0  0  0  0
   58.7660   32.0332   47.8202 C   0  0  0  0  0  0  0  0  0  0  0  0
 23 24  1  0
 24 17  1  0
 17 18  2  0
 18 19  1  0
 19 20  2  0
 20 14  1  0
 14 15  2  0
 14 16  2  0
 14 13  1  0
 13 12  1  0
 12 10  1  0
 10 11  2  0
 10  1  1  0
  1  2  2  0
  2  3  1  0
  2  4  1  0
  4 25  1  0
 25 26  1  0
 26 27  2  0
 27 28  1  0
 28 29  2  0
 29 30  1  0
 30 31  2  0
  4  5  1  0
  5  6  2  0
  5  7  1  0
  7  8  1  0
  8  9  2  0
 20 21  1  0
 21 22  2  0
 22 17  1  0
  8  1  1  0
 31 26  1  0
M  CHG 1   3  -1
M  CHG 1   7  -1
M  CHG 1  13  -1
M  END
> <UniqueID>
7

> <SMILES>
COc1ccc(S(=O)(=O)[N-]CC(=O)c2c([O-])n(Cc3ccccc3)c(=O)[n-]c2=O)cc1

> <Energy>
53.06543512574123

> <Genealogy>
COc1ccc(S(=O)(=O)[N-]CC(=O)c2c([O-])n(Cc3ccccc3)c(=O)[n-]c2=O)cc1 (protonated)
COc1ccc(S(=O)(=O)[N-]CC(=O)c2c([O-])n(Cc3ccccc3)c(=O)[n-]c2=O)cc1 (3D coordinates assigned)
COc1ccc(S(=O)(=O)[N-]CC(=O)c2c([O-])n(Cc3ccccc3)c(=O)[n-]c2=O)cc1 (optimized conformer: 53.06543512574123 kcal/mol)

> <smiles>
COc1ccc(S(=O)(=O)NCC(=O)c2c(O)n(Cc3ccccc3)c(=O)[nH]c2=O)cc1

> <score_type>
oracle

> <origin>
adg

> <m_score__min__energy>
-15.41

> <m_primary>
energy

> <minimizedAffinity>
-6.81487

> <minimizedRMSD>
1.99683

> <CNNscore>
0.5402525663

> <CNNaffinity>
6.3491129875

> <CNN_VS>
3.4301245213

> <CNNaffinity_variance>
0.4250303209

$$$$
14:0


 31 33  0  0  0  0  0  0  0  0999 V2000
   60.1813   29.6907   49.3320 N   0  0  0  0  0  0  0  0  0  0  0  0
   59.5133   30.5247   50.0781 C   0  0  0  0  0  0  0  0  0  0  0  0
   58.4542   30.0468   50.7873 N   0  0  0  0  0  0  0  0  0  0  0  0
   57.6899   30.8313   51.6005 C   0  0  0  0  0  0  0  0  0  0  0  0
   58.0091   32.1928   51.7267 C   0  0  0  0  0  0  0  0  0  0  0  0
   59.0829   32.7160   51.0072 C   0  0  0  0  0  0  0  0  0  0  0  0
   59.8377   31.8901   50.1771 C   0  0  0  0  0  0  0  0  0  0  0  0
   56.5584   30.2195   52.3424 C   0  0  0  0  0  0  0  0  0  0  0  0
   56.7711   29.0873   53.1438 C   0  0  0  0  0  0  0  0  0  0  0  0
   55.7375   28.5089   53.8065 N   0  0  0  0  0  0  0  0  0  0  0  0
   54.4654   28.9923   53.7396 C   0  0  0  0  0  0  0  0  0  0  0  0
   53.4956   28.3721   54.3451 N   0  0  0  0  0  0  0  0  0  0  0  0
   52.6171   27.4008   53.7031 C   0  0  0  0  0  0  0  0  0  0  0  0
   54.2031   30.1459   52.9705 C   0  0  0  0  0  0  0  0  0  0  0  0
   55.2516   30.7293   52.2504 C   0  0  0  0  0  0  0  0  0  0  0  0
   52.8863   30.7005   52.8375 N   0  0  0  0  0  0  0  0  0  0  0  0
   52.2363   31.0008   51.5975 C   0  0  0  0  0  0  0  0  0  0  0  0
   51.6272   32.0930   51.4389 O   0  0  0  0  0  0  0  0  0  0  0  0
   52.2805   30.0100   50.4837 C   0  0  0  0  0  0  0  0  0  0  0  0
   59.7238   28.9871   48.1304 C   0  0  0  0  0  0  0  0  0  0  0  0
   57.6908   30.5284   45.2177 C   0  0  0  0  0  0  0  0  0  0  0  0
   58.1373   31.8569   45.3099 C   0  0  0  0  0  0  0  0  0  0  0  0
   59.0376   32.2403   46.2967 C   0  0  0  0  0  0  0  0  0  0  0  0
   59.5206   31.3057   47.2038 C   0  0  0  0  0  0  0  0  0  0  0  0
   59.1367   29.9558   47.1236 C   0  0  0  0  0  0  0  0  0  0  0  0
   58.2100   29.5504   46.1177 C   0  0  0  0  0  0  0  0  0  0  0  0
   57.7490   28.1111   46.0150 C   0  0  0  0  0  0  0  0  0  0  0  0
   55.4279   29.6308   44.5541 N   0  0  0  0  0  0  0  0  0  0  0  0
   56.6749   30.2139   44.1802 C   0  0  0  0  0  0  0  0  0  0  0  0
   56.9131   30.4211   42.9590 O   0  0  0  0  0  0  0  0  0  0  0  0
   54.7556   29.4229   43.8657 H   0  0  0  0  0  0  0  0  0  0  0  0
 28 29  1  0
 29 30  2  0
 29 21  1  0
 21 22  2  0
 22 23  1  0
 23 24  2  0
 24 25  1  0
 25 20  1  0
 20  1  1  0
  1  2  2  0
  2  3  1  0
  3  4  1  0
  4  8  1  0
  8  9  2  0
  9 10  1  0
 10 11  1  0
 11 12  2  0
 12 13  1  0
 11 14  1  0
 14 16  1  0
 16 17  1  0
 17 18  2  0
 17 19  1  0
 14 15  2  0
  4  5  2  0
  5  6  1  0
  6  7  2  0
 25 26  2  0
 26 27  1  0
 26 21  1  0
  7  2  1  0
 15  8  1  0
 28 31  1  0
M  CHG 1   3  -1
M  CHG 1  10  -1
M  CHG 1  16  -1
M  CHG 1  28  -1
M  END
> <UniqueID>
11

> <SMILES>
C/N=c1\[n-]cc(-c2cccc(=NCc3cccc(C([NH-])=O)c3C)[n-]2)cc1[N-]C(C)=O

> <Energy>
70.79276528820458

> <Genealogy>
CN=c1[n-]cc(-c2cccc(=NCc3cccc(C([NH-])=O)c3C)[n-]2)cc1[N-]C(C)=O (protonated)
C/N=c1\[n-]cc(-c2cccc(=NCc3cccc(C([NH-])=O)c3C)[n-]2)cc1[N-]C(C)=O (cis-trans isomerization)
C/N=c1\[n-]cc(-c2cccc(=NCc3cccc(C([NH-])=O)c3C)[n-]2)cc1[N-]C(C)=O (3D coordinates assigned)
C/N=c1\[n-]cc(-c2cccc(=NCc3cccc(C([NH-])=O)c3C)[n-]2)cc1[N-]C(C)=O (optimized conformer: 70.79276528820458 kcal/mol)

> <smiles>
CN=c1[nH]cc(-c2cccc(=NCc3cccc(C(N)=O)c3C)[nH]2)cc1NC(C)=O

> <score_type>
oracle

> <origin>
adg

> <m_score__min__energy>
-15.300000000000001

> <m_primary>
energy

> <minimizedAffinity>
-8.35164

> <minimizedRMSD>
0.89837

> <CNNscore>
0.5964431763

> <CNNaffinity>
6.5434551239

> <CNN_VS>
3.9027991295

> <CNNaffinity_variance>
0.3138961792

$$$$
21:0


 31 34  0  0  0  0  0  0  0  0999 V2000
   58.4113   30.2603   44.2859 C   0  0  0  0  0  0  0  0  0  0  0  0
   58.5831   29.7848   45.5305 C   0  0  0  0  0  0  0  0  0  0  0  0
   58.3972   28.4663   45.9735 C   0  0  0  0  0  0  0  0  0  0  0  0
   58.1793   27.3274   45.2885 C   0  0  0  0  0  0  0  0  0  0  0  0
   58.5103   28.4995   47.3526 C   0  0  0  0  0  0  0  0  0  0  0  0
   58.8026   29.7989   47.6987 C   0  0  0  0  0  0  0  0  0  0  0  0
   59.0032   30.2787   49.1075 C   0  0  0  0  0  0  0  0  0  0  0  0
   58.8834   30.5733   46.5933 N   0  0  0  0  0  0  0  0  0  0  0  0
   57.7950   26.0308   45.8791 C   0  0  0  0  0  0  0  0  0  0  0  0
   56.4554   25.7747   46.2204 C   0  0  0  0  0  0  0  0  0  0  0  0
   55.4664   26.7265   45.9891 O   0  0  0  0  0  0  0  0  0  0  0  0
   56.1126   24.5819   46.7722 N   0  0  0  0  0  0  0  0  0  0  0  0
   57.0519   23.6300   47.0175 C   0  0  0  0  0  0  0  0  0  0  0  0
   56.7109   22.5278   47.5197 O   0  0  0  0  0  0  0  0  0  0  0  0
   58.3592   23.8663   46.7262 N   0  0  0  0  0  0  0  0  0  0  0  0
   58.7530   25.0432   46.1759 C   0  0  0  0  0  0  0  0  0  0  0  0
   59.9746   25.2398   45.9411 O   0  0  0  0  0  0  0  0  0  0  0  0
   59.0958   31.9997   46.5904 C   0  0  0  0  0  0  0  0  0  0  0  0
   58.0727   32.8418   46.1306 C   0  0  0  0  0  0  0  0  0  0  0  0
   58.2131   34.2296   46.1964 C   0  0  0  0  0  0  0  0  0  0  0  0
   59.3680   34.7909   46.7410 C   0  0  0  0  0  0  0  0  0  0  0  0
   60.3929   33.9667   47.2105 C   0  0  0  0  0  0  0  0  0  0  0  0
   60.2763   32.5694   47.1253 C   0  0  0  0  0  0  0  0  0  0  0  0
   61.3935   31.7301   47.6077 C   0  0  0  0  0  0  0  0  0  0  0  0
   61.7511   30.7330   46.9267 O   0  0  0  0  0  0  0  0  0  0  0  0
   62.0490   32.0052   48.8579 N   0  0  0  0  0  0  0  0  0  0  0  0
   61.2803   32.4878   50.0084 C   0  0  0  0  0  0  0  0  0  0  0  0
   61.9263   31.9992   51.3090 C   0  0  0  0  0  0  0  0  0  0  0  0
   63.3075   32.3126   51.3310 O   0  0  0  0  0  0  0  0  0  0  0  0
   63.9773   31.5861   50.3178 C   0  0  0  0  0  0  0  0  0  0  0  0
   63.5118   32.0287   48.9243 C   0  0  0  0  0  0  0  0  0  0  0  0
  1  2  2  0
  2  3  1  0
  3  4  2  0
  4  9  1  0
  9 10  2  0
 10 11  1  0
 10 12  1  0
 12 13  1  0
 13 14  2  0
 13 15  1  0
 15 16  1  0
 16 17  2  0
  3  5  1  0
  5  6  2  0
  6  7  1  0
  6  8  1  0
  8 18  1  0
 18 19  2  0
 19 20  1  0
 20 21  2  0
 21 22  1  0
 22 23  2  0
 23 24  1  0
 24 25  2  0
 24 26  1  0
 26 27  1  0
 27 28  1  0
 28 29  1  0
 29 30  1  0
 30 31  1  0
  8  2  1  0
 23 18  1  0
 31 26  1  0
 16  9  1  0
M  CHG 1  11  -1
M  CHG 1  12  -1
M  CHG 1  15  -1
M  END
> <UniqueID>
16

> <SMILES>
C=c1c(=Cc2c([O-])[n-]c(=O)[n-]c2=O)cc(C)n1-c1ccccc1C(=O)N1CCOCC1

> <Energy>
108.63505151536448

> <Genealogy>
C=c1c(=Cc2c([O-])[n-]c(=O)[n-]c2=O)cc(C)n1-c1ccccc1C(=O)N1CCOCC1 (protonated)
C=c1c(=Cc2c([O-])[n-]c(=O)[n-]c2=O)cc(C)n1-c1ccccc1C(=O)N1CCOCC1 (3D coordinates assigned)
C=c1c(=Cc2c([O-])[n-]c(=O)[n-]c2=O)cc(C)n1-c1ccccc1C(=O)N1CCOCC1 (nonaromatic ring conformer: 108.63505151536448 kcal/mol)

> <smiles>
C=c1c(=Cc2c(O)[nH]c(=O)[nH]c2=O)cc(C)n1-c1ccccc1C(=O)N1CCOCC1

> <score_type>
oracle

> <origin>
adg

> <m_score__min__energy>
-16.789999999999999

> <m_primary>
energy

> <minimizedAffinity>
-7.69026

> <minimizedRMSD>
1.08442

> <CNNscore>
0.1929003298

> <CNNaffinity>
6.6244564056

> <CNN_VS>
1.2778598070

> <CNNaffinity_variance>
0.0288716014

$$$$
39:0


 34 37  0  0  0  0  0  0  0  0999 V2000
   60.5309   29.4091   47.9487 C   0  0  0  0  0  0  0  0  0  0  0  0
   59.8383   30.2830   47.2015 C   0  0  0  0  0  0  0  0  0  0  0  0
   59.3048   30.0793   45.9162 C   0  0  0  0  0  0  0  0  0  0  0  0
   59.2091   28.9678   45.1612 C   0  0  0  0  0  0  0  0  0  0  0  0
   58.8257   31.3127   45.4971 C   0  0  0  0  0  0  0  0  0  0  0  0
   59.0267   32.1950   46.5367 C   0  0  0  0  0  0  0  0  0  0  0  0
   58.6552   33.6464   46.5151 C   0  0  0  0  0  0  0  0  0  0  0  0
   59.6453   31.5752   47.5635 N   0  0  0  0  0  0  0  0  0  0  0  0
   58.6230   27.6839   45.5934 C   0  0  0  0  0  0  0  0  0  0  0  0
   57.2322   27.5146   45.6174 C   0  0  0  0  0  0  0  0  0  0  0  0
   56.3860   28.5326   45.1891 O   0  0  0  0  0  0  0  0  0  0  0  0
   56.6995   26.3443   46.0550 N   0  0  0  0  0  0  0  0  0  0  0  0
   57.4918   25.3315   46.4875 C   0  0  0  0  0  0  0  0  0  0  0  0
   56.9763   24.2540   46.8834 O   0  0  0  0  0  0  0  0  0  0  0  0
   58.8424   25.4814   46.4995 N   0  0  0  0  0  0  0  0  0  0  0  0
   59.4230   26.6318   46.0726 C   0  0  0  0  0  0  0  0  0  0  0  0
   60.6780   26.7448   46.1175 O   0  0  0  0  0  0  0  0  0  0  0  0
   60.0300   32.1934   48.8024 C   0  0  0  0  0  0  0  0  0  0  0  0
   59.2484   31.9816   49.9462 C   0  0  0  0  0  0  0  0  0  0  0  0
   59.5911   32.5799   51.1681 C   0  0  0  0  0  0  0  0  0  0  0  0
   60.7364   33.3888   51.2365 C   0  0  0  0  0  0  0  0  0  0  0  0
   61.5217   33.5989   50.1003 C   0  0  0  0  0  0  0  0  0  0  0  0
   61.1803   33.0032   48.8830 C   0  0  0  0  0  0  0  0  0  0  0  0
   62.0006   33.2165   47.7746 O   0  0  0  0  0  0  0  0  0  0  0  0
   62.7606   33.7590   47.8518 H   0  0  0  0  0  0  0  0  0  0  0  0
   58.7899   32.3505   52.3428 N   0  0  0  0  0  0  0  0  0  0  0  0
   57.3257   32.3408   52.2582 C   0  0  0  0  0  0  0  0  0  0  0  0
   56.7895   31.0283   52.8352 C   0  0  0  0  0  0  0  0  0  0  0  0
   57.4141   30.7121   54.1334 N   0  0  0  0  0  0  0  0  0  0  0  0
   56.9356   29.5896   54.9072 C   0  0  0  0  0  0  0  0  0  0  0  0
   56.0139   28.5673   54.3121 C   0  0  0  0  0  0  0  0  0  0  0  0
   57.2815   29.4596   56.1131 O   0  0  0  0  0  0  0  0  0  0  0  0
   58.4319   31.6162   54.6941 C   0  0  0  0  0  0  0  0  0  0  0  0
   59.4465   32.0214   53.6154 C   0  0  0  0  0  0  0  0  0  0  0  0
  1  2  2  0
  2  3  1  0
  3  4  2  0
  4  9  1  0
  9 10  2  0
 10 11  1  0
 10 12  1  0
 12 13  1  0
 13 14  2  0
 13 15  1  0
 15 16  1  0
 16 17  2  0
  3  5  1  0
  5  6  2  0
  6  7  1  0
  6  8  1  0
  8 18  1  0
 18 19  2  0
 19 20  1  0
 20 26  1  0
 26 27  1  0
 27 28  1  0
 28 29  1  0
 29 30  1  0
 30 31  1  0
 30 32  2  0
 29 33  1  0
 33 34  1  0
 20 21  2  0
 21 22  1  0
 22 23  2  0
 23 24  1  0
  8  2  1  0
 23 18  1  0
 16  9  1  0
 34 26  1  0
 24 25  1  0
M  CHG 1  11  -1
M  CHG 1  12  -1
M  CHG 1  15  -1
M  END
> <UniqueID>
33

> <SMILES>
C=c1c(=Cc2c([O-])[n-]c(=O)[n-]c2=O)cc(C)n1-c1cc(N2CCN(C(C)=O)CC2)ccc1O

> <Energy>
110.99056816205434

> <Genealogy>
C=c1c(=Cc2c([O-])[n-]c(=O)[n-]c2=O)cc(C)n1-c1cc(N2CCN(C(C)=O)CC2)ccc1O (protonated)
C=c1c(=Cc2c([O-])[n-]c(=O)[n-]c2=O)cc(C)n1-c1cc(N2CCN(C(C)=O)CC2)ccc1O (3D coordinates assigned)
C=c1c(=Cc2c([O-])[n-]c(=O)[n-]c2=O)cc(C)n1-c1cc(N2CCN(C(C)=O)CC2)ccc1O (nonaromatic ring conformer: 110.99056816205434 kcal/mol)

> <smiles>
C=c1c(=Cc2c(O)[nH]c(=O)[nH]c2=O)cc(C)n1-c1cc(N2CCN(C(C)=O)CC2)ccc1O

> <score_type>
oracle

> <origin>
adg

> <m_score__min__energy>
-17.059999999999999

> <m_primary>
energy

> <minimizedAffinity>
-7.90499

> <minimizedRMSD>
1.71997

> <CNNscore>
0.2351845205

> <CNNaffinity>
6.8056397438

> <CNN_VS>
1.6005811691

> <CNNaffinity_variance>
0.0452056229

$$$$
42:0


 27 29  0  0  0  0  0  0  0  0999 V2000
   57.2579   30.3335   43.2879 C   0  0  0  0  0  0  0  0  0  0  0  0
   57.7010   30.8915   44.4271 C   0  0  0  0  0  0  0  0  0  0  0  0
   57.2298   32.1313   44.7078 N   0  0  0  0  0  0  0  0  0  0  0  0
   57.6206   32.8385   45.7896 C   0  0  0  0  0  0  0  0  0  0  0  0
   57.1281   33.9835   45.9768 O   0  0  0  0  0  0  0  0  0  0  0  0
   58.5320   32.3146   46.6627 N   0  0  0  0  0  0  0  0  0  0  0  0
   59.0134   31.0429   46.4697 C   0  0  0  0  0  0  0  0  0  0  0  0
   59.7646   30.5396   47.3496 O   0  0  0  0  0  0  0  0  0  0  0  0
   58.6392   30.2832   45.3187 C   0  0  0  0  0  0  0  0  0  0  0  0
   59.1178   29.0217   45.1015 C   0  0  0  0  0  0  0  0  0  0  0  0
   58.6149   27.7800   45.7310 C   0  0  0  0  0  0  0  0  0  0  0  0
   57.2491   27.4657   45.6866 C   0  0  0  0  0  0  0  0  0  0  0  0
   56.3419   28.3368   45.0956 O   0  0  0  0  0  0  0  0  0  0  0  0
   56.8027   26.3045   46.2310 N   0  0  0  0  0  0  0  0  0  0  0  0
   57.6597   25.4265   46.8110 C   0  0  0  0  0  0  0  0  0  0  0  0
   57.2216   24.3591   47.3127 O   0  0  0  0  0  0  0  0  0  0  0  0
   58.9903   25.6957   46.8443 N   0  0  0  0  0  0  0  0  0  0  0  0
   59.4863   26.8425   46.3125 C   0  0  0  0  0  0  0  0  0  0  0  0
   60.7287   27.0523   46.3431 O   0  0  0  0  0  0  0  0  0  0  0  0
   58.9352   33.0882   47.8552 C   0  0  0  0  0  0  0  0  0  0  0  0
   59.9458   34.1723   47.4701 C   0  0  0  0  0  0  0  0  0  0  0  0
   61.3230   33.8127   47.9596 C   0  0  0  0  0  0  0  0  0  0  0  0
   62.2833   33.3068   47.0666 C   0  0  0  0  0  0  0  0  0  0  0  0
   63.5506   32.9422   47.5295 C   0  0  0  0  0  0  0  0  0  0  0  0
   63.8658   33.0699   48.8850 C   0  0  0  0  0  0  0  0  0  0  0  0
   62.9104   33.5603   49.7815 C   0  0  0  0  0  0  0  0  0  0  0  0
   61.6420   33.9260   49.3234 C   0  0  0  0  0  0  0  0  0  0  0  0
  1  2  2  0
  2  3  1  0
  3  4  1  0
  4  5  2  0
  4  6  1  0
  6 20  1  0
 20 21  1  0
 21 22  1  0
 22 23  2  0
 23 24  1  0
 24 25  2  0
 25 26  1  0
 26 27  2  0
  6  7  1  0
  7  8  2  0
  7  9  1  0
  9 10  2  0
 10 11  1  0
 11 12  2  0
 12 13  1  0
 12 14  1  0
 14 15  1  0
 15 16  2  0
 15 17  1  0
 17 18  1  0
 18 19  2  0
  9  2  1  0
 18 11  1  0
 27 22  1  0
M  CHG 1   3  -1
M  CHG 1  13  -1
M  CHG 1  14  -1
M  CHG 1  17  -1
M  END
> <UniqueID>
35

> <SMILES>
C=c1[n-]c(=O)n(CCc2ccccc2)c(=O)/c1=C\c1c([O-])[n-]c(=O)[n-]c1=O

> <Energy>
66.83805626181044

> <Genealogy>
C=c1[n-]c(=O)n(CCc2ccccc2)c(=O)c1=Cc1c([O-])[n-]c(=O)[n-]c1=O (protonated)
C=c1[n-]c(=O)n(CCc2ccccc2)c(=O)/c1=C\c1c([O-])[n-]c(=O)[n-]c1=O (cis-trans isomerization)
C=c1[n-]c(=O)n(CCc2ccccc2)c(=O)/c1=C\c1c([O-])[n-]c(=O)[n-]c1=O (3D coordinates assigned)
C=c1[n-]c(=O)n(CCc2ccccc2)c(=O)/c1=C\c1c([O-])[n-]c(=O)[n-]c1=O (optimized conformer: 66.83805626181044 kcal/mol)

> <smiles>
C=c1[nH]c(=O)n(CCc2ccccc2)c(=O)c1=Cc1c(O)[nH]c(=O)[nH]c1=O

> <score_type>
oracle

> <origin>
adg

> <m_score__min__energy>
-17.57

> <m_primary>
energy

> <minimizedAffinity>
-8.18147

> <minimizedRMSD>
0.83406

> <CNNscore>
0.5685440302

> <CNNaffinity>
6.7319297791

> <CNN_VS>
3.8273985386

> <CNNaffinity_variance>
0.1509297341

$$$$
43:0


 28 31  0  0  0  0  0  0  0  0999 V2000
   55.5642   30.0536   53.4865 C   0  0  0  0  0  0  0  0  0  0  0  0
   54.7027   29.3614   54.2484 C   0  0  0  0  0  0  0  0  0  0  0  0
   53.3721   29.6974   54.5442 C   0  0  0  0  0  0  0  0  0  0  0  0
   52.5605   30.6365   54.0207 C   0  0  0  0  0  0  0  0  0  0  0  0
   52.9671   28.8319   55.5471 C   0  0  0  0  0  0  0  0  0  0  0  0
   54.0156   27.9669   55.7767 C   0  0  0  0  0  0  0  0  0  0  0  0
   53.9924   26.8509   56.7772 C   0  0  0  0  0  0  0  0  0  0  0  0
   55.0691   28.2844   54.9918 N   0  0  0  0  0  0  0  0  0  0  0  0
   52.0929   30.6882   52.6275 C   0  0  0  0  0  0  0  0  0  0  0  0
   52.4450   29.7895   51.6923 N   0  0  0  0  0  0  0  0  0  0  0  0
   51.9043   30.2889   50.5587 C   0  0  0  0  0  0  0  0  0  0  0  0
   52.0059   29.7082   49.4475 O   0  0  0  0  0  0  0  0  0  0  0  0
   51.2582   31.4649   50.7092 N   0  0  0  0  0  0  0  0  0  0  0  0
   51.4000   31.7122   52.0210 C   0  0  0  0  0  0  0  0  0  0  0  0
   50.9308   32.8611   52.6445 O   0  0  0  0  0  0  0  0  0  0  0  0
   56.3425   27.6148   54.9822 C   0  0  0  0  0  0  0  0  0  0  0  0
   56.4936   26.3893   54.3173 C   0  0  0  0  0  0  0  0  0  0  0  0
   57.7345   25.7458   54.2995 C   0  0  0  0  0  0  0  0  0  0  0  0
   58.8411   26.3204   54.9462 C   0  0  0  0  0  0  0  0  0  0  0  0
   58.6857   27.5445   55.6148 C   0  0  0  0  0  0  0  0  0  0  0  0
   57.4452   28.1881   55.6304 C   0  0  0  0  0  0  0  0  0  0  0  0
   60.1834   25.6254   54.9151 C   0  0  0  0  0  0  0  0  0  0  0  0
   61.1097   26.2556   53.9417 N   0  0  0  0  0  0  0  0  0  0  0  0
   62.5224   26.0984   54.3317 C   0  0  0  0  0  0  0  0  0  0  0  0
   63.0403   24.8209   53.6840 C   0  0  0  0  0  0  0  0  0  0  0  0
   62.0467   24.4915   52.5837 C   0  0  0  0  0  0  0  0  0  0  0  0
   61.0118   25.6083   52.6244 C   0  0  0  0  0  0  0  0  0  0  0  0
   60.8388   27.2386   53.9164 H   0  0  0  0  0  0  0  0  0  0  0  0
  1  2  2  0
  2  3  1  0
  3  4  2  0
  4  9  1  0
  9 10  1  0
 10 11  1  0
 11 12  2  0
 11 13  1  0
 13 14  1  0
 14 15  1  0
  3  5  1  0
  5  6  2  0
  6  7  1  0
  6  8  1  0
  8 16  1  0
 16 17  2  0
 17 18  1  0
 18 19  2  0
 19 22  1  0
 22 23  1  0
 23 24  1  0
 24 25  1  0
 25 26  1  0
 26 27  1  0
 19 20  1  0
 20 21  2  0
  8  2  1  0
 21 16  1  0
 14  9  2  0
 27 23  1  0
 23 28  1  0
M  CHG 1  10  -1
M  CHG 1  13  -1
M  CHG 1  15  -1
M  CHG 1  23   1
M  END
> <UniqueID>
36

> <SMILES>
C=c1/c(=C\c2[n-]c(=O)[n-]c2[O-])cc(C)n1-c1ccc(C[NH+]2CCCC2)cc1

> <Energy>
131.30169463726736

> <Genealogy>
C=c1c(=Cc2[n-]c(=O)[n-]c2[O-])cc(C)n1-c1ccc(C[NH+]2CCCC2)cc1 (protonated)
C=c1/c(=C\c2[n-]c(=O)[n-]c2[O-])cc(C)n1-c1ccc(C[NH+]2CCCC2)cc1 (cis-trans isomerization)
C=c1/c(=C\c2[n-]c(=O)[n-]c2[O-])cc(C)n1-c1ccc(C[NH+]2CCCC2)cc1 (3D coordinates assigned)
C=c1/c(=C\c2[n-]c(=O)[n-]c2[O-])cc(C)n1-c1ccc(C[NH+]2CCCC2)cc1 (nonaromatic ring conformer: 131.30169463726736 kcal/mol)

> <smiles>
C=c1c(=Cc2[nH]c(=O)[nH]c2O)cc(C)n1-c1ccc(CN2CCCC2)cc1

> <score_type>
oracle

> <origin>
adg

> <m_score__min__energy>
-14.5

> <m_primary>
energy

> <minimizedAffinity>
-4.36031

> <minimizedRMSD>
1.69931

> <CNNscore>
0.1608263850

> <CNNaffinity>
4.7877240181

> <CNN_VS>
0.7699923515

> <CNNaffinity_variance>
0.0759178698

$$$$
48:0


 29 32  0  0  0  0  0  0  0  0999 V2000
   59.5082   26.8756   47.0360 C   0  0  0  0  0  0  0  0  0  0  0  0
   58.9619   27.7059   46.1341 C   0  0  0  0  0  0  0  0  0  0  0  0
   58.1495   27.3546   45.0437 C   0  0  0  0  0  0  0  0  0  0  0  0
   57.8767   26.1551   44.4948 C   0  0  0  0  0  0  0  0  0  0  0  0
   57.6236   28.5393   44.5553 C   0  0  0  0  0  0  0  0  0  0  0  0
   58.1794   29.5617   45.2958 C   0  0  0  0  0  0  0  0  0  0  0  0
   57.8995   31.0173   45.0776 C   0  0  0  0  0  0  0  0  0  0  0  0
   58.9903   29.0588   46.2559 N   0  0  0  0  0  0  0  0  0  0  0  0
   57.3747   24.9762   45.2177 C   0  0  0  0  0  0  0  0  0  0  0  0
   58.0801   23.8425   45.3718 N   0  0  0  0  0  0  0  0  0  0  0  0
   57.3044   23.1003   46.1907 C   0  0  0  0  0  0  0  0  0  0  0  0
   57.6238   21.9389   46.5593 O   0  0  0  0  0  0  0  0  0  0  0  0
   56.1650   23.7024   46.5934 N   0  0  0  0  0  0  0  0  0  0  0  0
   56.2319   24.8952   45.9808 C   0  0  0  0  0  0  0  0  0  0  0  0
   55.2839   25.8991   46.1410 O   0  0  0  0  0  0  0  0  0  0  0  0
   59.7211   29.8297   47.2271 C   0  0  0  0  0  0  0  0  0  0  0  0
   59.2265   29.9826   48.5260 C   0  0  0  0  0  0  0  0  0  0  0  0
   59.9429   30.7255   49.4627 C   0  0  0  0  0  0  0  0  0  0  0  0
   61.1671   31.3141   49.0980 C   0  0  0  0  0  0  0  0  0  0  0  0
   61.6298   31.1505   47.8201 N   0  0  0  0  0  0  0  0  0  0  0  0
   60.9409   30.4298   46.8944 C   0  0  0  0  0  0  0  0  0  0  0  0
   62.4848   31.5659   47.5639 H   0  0  0  0  0  0  0  0  0  0  0  0
   61.9217   32.0954   50.0518 N   0  0  0  0  0  0  0  0  0  0  0  0
   63.3869   32.0042   50.1108 C   0  0  0  0  0  0  0  0  0  0  0  0
   63.9786   33.3246   50.6238 C   0  0  0  0  0  0  0  0  0  0  0  0
   63.4078   33.7620   51.9250 N   0  0  0  0  0  0  0  0  0  0  0  0
   64.3635   33.5515   53.0235 C   0  0  0  0  0  0  0  0  0  0  0  0
   62.0976   33.1595   52.2627 C   0  0  0  0  0  0  0  0  0  0  0  0
   61.2251   32.9501   51.0208 C   0  0  0  0  0  0  0  0  0  0  0  0
  1  2  2  0
  2  3  1  0
  3  4  2  0
  4  9  1  0
  9 10  1  0
 10 11  1  0
 11 12  2  0
 11 13  1  0
 13 14  1  0
 14 15  1  0
  3  5  1  0
  5  6  2  0
  6  7  1  0
  6  8  1  0
  8 16  1  0
 16 17  2  0
 17 18  1  0
 18 19  2  0
 19 23  1  0
 23 24  1  0
 24 25  1  0
 25 26  1  0
 26 27  1  0
 26 28  1  0
 28 29  1  0
 19 20  1  0
 20 21  2  0
  8  2  1  0
 21 16  1  0
 14  9  2  0
 29 23  1  0
 20 22  1  0
M  CHG 1  10  -1
M  CHG 1  13  -1
M  CHG 1  15  -1
M  CHG 1  20   1
M  END
> <UniqueID>
39

> <SMILES>
C=c1/c(=C\c2[n-]c(=O)[n-]c2[O-])cc(C)n1-c1ccc(N2CCN(C)CC2)[nH+]c1

> <Energy>
137.73811091200827

> <Genealogy>
C=c1c(=Cc2[n-]c(=O)[n-]c2[O-])cc(C)n1-c1ccc(N2CCN(C)CC2)[nH+]c1 (protonated)
C=c1/c(=C\c2[n-]c(=O)[n-]c2[O-])cc(C)n1-c1ccc(N2CCN(C)CC2)[nH+]c1 (cis-trans isomerization)
C=c1/c(=C\c2[n-]c(=O)[n-]c2[O-])cc(C)n1-c1ccc(N2CCN(C)CC2)[nH+]c1 (3D coordinates assigned)
C=c1/c(=C\c2[n-]c(=O)[n-]c2[O-])cc(C)n1-c1ccc(N2CCN(C)CC2)[nH+]c1 (nonaromatic ring conformer: 137.73811091200827 kcal/mol)

> <smiles>
C=c1c(=Cc2[nH]c(=O)[nH]c2O)cc(C)n1-c1ccc(N2CCN(C)CC2)nc1

> <score_type>
oracle

> <origin>
adg

> <m_score__min__energy>
-14.529999999999999

> <m_primary>
energy

> <minimizedAffinity>
-7.99537

> <minimizedRMSD>
1.23523

> <CNNscore>
0.1214798838

> <CNNaffinity>
6.3533043861

> <CNN_VS>
0.7717986703

> <CNNaffinity_variance>
0.0866660103

$$$$
50:0


 34 38  0  0  0  0  0  0  0  0999 V2000
   58.2249   28.8119   46.2558 C   0  0  0  0  0  0  0  0  0  0  0  0
   57.3191   29.2726   45.3019 C   0  0  0  0  0  0  0  0  0  0  0  0
   56.3210   28.5086   44.7122 O   0  0  0  0  0  0  0  0  0  0  0  0
   57.4751   30.5912   45.0407 N   0  0  0  0  0  0  0  0  0  0  0  0
   58.4825   30.9697   45.8515 C   0  0  0  0  0  0  0  0  0  0  0  0
   59.0009   32.2560   45.9831 C   0  0  0  0  0  0  0  0  0  0  0  0
   60.0241   32.4629   46.9254 C   0  0  0  0  0  0  0  0  0  0  0  0
   60.5060   31.3884   47.7132 C   0  0  0  0  0  0  0  0  0  0  0  0
   59.9753   30.0958   47.5404 C   0  0  0  0  0  0  0  0  0  0  0  0
   58.9529   29.9261   46.6062 C   0  0  0  0  0  0  0  0  0  0  0  0
   59.3573   24.8359   45.8273 C   0  0  0  0  0  0  0  0  0  0  0  0
   58.0860   25.2094   45.9812 C   0  0  0  0  0  0  0  0  0  0  0  0
   57.0501   24.4128   45.6571 N   0  0  0  0  0  0  0  0  0  0  0  0
   55.9713   25.1591   45.9654 C   0  0  0  0  0  0  0  0  0  0  0  0
   54.7925   24.7514   45.7987 O   0  0  0  0  0  0  0  0  0  0  0  0
   56.2559   26.3798   46.4632 N   0  0  0  0  0  0  0  0  0  0  0  0
   57.6017   26.4132   46.4812 C   0  0  0  0  0  0  0  0  0  0  0  0
   58.3214   27.4757   46.8800 C   0  0  0  0  0  0  0  0  0  0  0  0
   61.7313   31.6792   48.9474 S   0  0  0  0  0  0  0  0  0  0  0  0
   63.0751   31.7695   48.2798 O   0  0  0  0  0  0  0  0  0  0  0  0
   61.7663   30.5098   49.8912 O   0  0  0  0  0  0  0  0  0  0  0  0
   61.4444   33.1553   49.8509 N   0  0  0  0  0  0  0  0  0  0  0  0
   61.0782   32.9116   51.2637 C   0  0  0  0  0  0  0  0  0  0  0  0
   62.2531   33.0858   52.2432 C   0  0  0  0  0  0  0  0  0  0  0  0
   63.5234   32.8689   51.5409 N   0  0  0  0  0  0  0  0  0  0  0  0
   63.7582   33.9167   50.5321 C   0  0  0  0  0  0  0  0  0  0  0  0
   62.5033   34.1661   49.6666 C   0  0  0  0  0  0  0  0  0  0  0  0
   64.6767   32.6456   52.4408 C   0  0  0  0  0  0  0  0  0  0  0  0
   65.9356   33.3689   52.0139 C   0  0  0  0  0  0  0  0  0  0  0  0
   66.8729   32.7315   51.1808 C   0  0  0  0  0  0  0  0  0  0  0  0
   68.0366   33.3993   50.7867 C   0  0  0  0  0  0  0  0  0  0  0  0
   68.2776   34.7034   51.2259 C   0  0  0  0  0  0  0  0  0  0  0  0
   67.3582   35.3409   52.0633 C   0  0  0  0  0  0  0  0  0  0  0  0
   66.1931   34.6763   52.4595 C   0  0  0  0  0  0  0  0  0  0  0  0
 11 12  2  0
 12 13  1  0
 13 14  1  0
 14 15  2  0
 14 16  1  0
 16 17  1  0
 17 18  2  0
 18  1  1  0
  1  2  2  0
  2  3  1  0
  2  4  1  0
  4  5  1  0
  5  6  2  0
  6  7  1  0
  7  8  2  0
  8 19  1  0
 19 20  2  0
 19 21  2  0
 19 22  1  0
 22 23  1  0
 23 24  1  0
 24 25  1  0
 25 28  1  0
 28 29  1  0
 29 30  2  0
 30 31  1  0
 31 32  2  0
 32 33  1  0
 33 34  2  0
 25 26  1  0
 26 27  1  0
  8  9  1  0
  9 10  2  0
 17 12  1  0
 10  1  1  0
 10  5  1  0
 27 22  1  0
 34 29  1  0
M  CHG 1   3  -1
M  CHG 1   4  -1
M  CHG 1  13  -1
M  CHG 1  16  -1
M  END
> <UniqueID>
41

> <SMILES>
C=c1[n-]c(=O)[n-]c1=Cc1c([O-])[n-]c2ccc(S(=O)(=O)N3CCN(Cc4ccccc4)CC3)cc12

> <Energy>
138.16605681920083

> <Genealogy>
C=c1[n-]c(=O)[n-]c1=Cc1c([O-])[n-]c2ccc(S(=O)(=O)N3CCN(Cc4ccccc4)CC3)cc12 (protonated)
C=c1[n-]c(=O)[n-]c1=Cc1c([O-])[n-]c2ccc(S(=O)(=O)N3CCN(Cc4ccccc4)CC3)cc12 (3D coordinates assigned)
C=c1[n-]c(=O)[n-]c1=Cc1c([O-])[n-]c2ccc(S(=O)(=O)N3CCN(Cc4ccccc4)CC3)cc12 (nonaromatic ring conformer: 138.16605681920083 kcal/mol)

> <smiles>
C=c1[nH]c(=O)[nH]c1=Cc1c(O)[nH]c2ccc(S(=O)(=O)N3CCN(Cc4ccccc4)CC3)cc12

> <score_type>
oracle

> <origin>
adg

> <m_score__min__energy>
-18.809999999999999

> <m_primary>
energy

> <minimizedAffinity>
-8.36889

> <minimizedRMSD>
1.30148

> <CNNscore>
0.2630891800

> <CNNaffinity>
6.5824952126

> <CNN_VS>
1.7317832708

> <CNNaffinity_variance>
0.1575873494

$$$$
54:0


 28 30  0  0  0  0  0  0  0  0999 V2000
   57.8988   29.8752   45.3191 C   0  0  0  0  0  0  0  0  0  0  0  0
   58.2855   28.5473   45.5891 C   0  0  0  0  0  0  0  0  0  0  0  0
   59.3539   28.2732   46.4531 C   0  0  0  0  0  0  0  0  0  0  0  0
   60.0470   29.3275   47.0540 C   0  0  0  0  0  0  0  0  0  0  0  0
   59.6691   30.6458   46.8073 C   0  0  0  0  0  0  0  0  0  0  0  0
   58.5966   30.9346   45.9498 C   0  0  0  0  0  0  0  0  0  0  0  0
   58.1946   32.3029   45.7814 N   0  0  0  0  0  0  0  0  0  0  0  0
   57.8846   33.1341   46.9441 C   0  0  0  0  0  0  0  0  0  0  0  0
   58.8202   34.3469   46.9468 C   0  0  0  0  0  0  0  0  0  0  0  0
   58.7552   35.0347   45.7084 O   0  0  0  0  0  0  0  0  0  0  0  0
   59.2364   34.2041   44.6649 C   0  0  0  0  0  0  0  0  0  0  0  0
   58.3393   32.9747   44.4891 C   0  0  0  0  0  0  0  0  0  0  0  0
   55.4557   29.7632   44.6855 N   0  0  0  0  0  0  0  0  0  0  0  0
   56.7976   30.1217   44.3544 C   0  0  0  0  0  0  0  0  0  0  0  0
   57.0330   30.6260   43.2246 O   0  0  0  0  0  0  0  0  0  0  0  0
   54.7290   29.9288   44.0422 H   0  0  0  0  0  0  0  0  0  0  0  0
   59.8652   26.6151   46.7596 S   0  0  0  0  0  0  0  0  0  0  0  0
   61.1920   26.3836   46.0949 O   0  0  0  0  0  0  0  0  0  0  0  0
   60.0177   26.3761   48.2360 O   0  0  0  0  0  0  0  0  0  0  0  0
   58.6987   25.5061   46.1095 N   0  0  0  0  0  0  0  0  0  0  0  0
   57.6538   25.2490   47.0962 C   0  0  0  0  0  0  0  0  0  0  0  0
   56.7264   24.1891   46.5711 C   0  0  0  0  0  0  0  0  0  0  0  0
   57.1097   22.8377   46.6245 C   0  0  0  0  0  0  0  0  0  0  0  0
   56.2436   21.8398   46.1691 C   0  0  0  0  0  0  0  0  0  0  0  0
   54.9841   22.1796   45.6688 C   0  0  0  0  0  0  0  0  0  0  0  0
   54.5857   23.5176   45.6289 C   0  0  0  0  0  0  0  0  0  0  0  0
   55.4473   24.5226   46.0828 C   0  0  0  0  0  0  0  0  0  0  0  0
   55.0251   25.8481   46.0487 O   0  0  0  0  0  0  0  0  0  0  0  0
 13 14  1  0
 14 15  2  0
 14  1  1  0
  1  2  2  0
  2  3  1  0
  3 17  1  0
 17 18  2  0
 17 19  2  0
 17 20  1  0
 20 21  1  0
 21 22  1  0
 22 23  2  0
 23 24  1  0
 24 25  2  0
 25 26  1  0
 26 27  2  0
 27 28  1  0
  3  4  2  0
  4  5  1  0
  5  6  2  0
  6  7  1  0
  7  8  1  0
  8  9  1  0
  9 10  1  0
 10 11  1  0
 11 12  1  0
  6  1  1  0
 12  7  1  0
 27 22  1  0
 13 16  1  0
M  CHG 1  13  -1
M  CHG 1  20  -1
M  CHG 1  28  -1
M  END
> <UniqueID>
45

> <SMILES>
[NH-]C(=O)c1cc(S(=O)(=O)[N-]Cc2ccccc2[O-])ccc1N1CCOCC1

> <Energy>
54.732324801175544

> <Genealogy>
[NH-]C(=O)c1cc(S(=O)(=O)[N-]Cc2ccccc2[O-])ccc1N1CCOCC1 (protonated)
[NH-]C(=O)c1cc(S(=O)(=O)[N-]Cc2ccccc2[O-])ccc1N1CCOCC1 (3D coordinates assigned)
[NH-]C(=O)c1cc(S(=O)(=O)[N-]Cc2ccccc2[O-])ccc1N1CCOCC1 (nonaromatic ring conformer: 54.732324801175544 kcal/mol)

> <smiles>
NC(=O)c1cc(S(=O)(=O)NCc2ccccc2O)ccc1N1CCOCC1

> <score_type>
oracle

> <origin>
adg

> <m_score__min__energy>
-16.649999999999999

> <m_primary>
energy

> <minimizedAffinity>
-7.29622

> <minimizedRMSD>
0.54172

> <CNNscore>
0.6943603158

> <CNNaffinity>
6.2891421318

> <CNN_VS>
4.3669304848

> <CNNaffinity_variance>
0.0161010884

$$$$
65:0


 37 40  0  0  0  0  0  0  0  0999 V2000
   59.9434   34.8319   46.2782 C   0  0  0  0  0  0  0  0  0  0  0  0
   61.2867   32.4192   49.6011 C   0  0  0  0  0  0  0  0  0  0  0  0
   60.2304   33.3333   49.7623 C   0  0  0  0  0  0  0  0  0  0  0  0
   59.8069   34.1215   48.6895 C   0  0  0  0  0  0  0  0  0  0  0  0
   60.4278   34.0073   47.4365 C   0  0  0  0  0  0  0  0  0  0  0  0
   61.4525   33.0656   47.2602 C   0  0  0  0  0  0  0  0  0  0  0  0
   61.8825   32.2800   48.3353 C   0  0  0  0  0  0  0  0  0  0  0  0
   61.7631   31.5929   50.7394 C   0  0  0  0  0  0  0  0  0  0  0  0
   62.9287   31.7657   51.1860 O   0  0  0  0  0  0  0  0  0  0  0  0
   60.9513   30.5605   51.3188 N   0  0  0  0  0  0  0  0  0  0  0  0
   60.7563   32.0093   53.7772 N   0  0  0  0  0  0  0  0  0  0  0  0
   59.5858   31.4575   53.1630 C   0  0  0  0  0  0  0  0  0  0  0  0
   58.3352   31.6326   53.7766 C   0  0  0  0  0  0  0  0  0  0  0  0
   57.1783   31.1169   53.1861 C   0  0  0  0  0  0  0  0  0  0  0  0
   57.2579   30.4282   51.9743 C   0  0  0  0  0  0  0  0  0  0  0  0
   58.4965   30.2456   51.3536 C   0  0  0  0  0  0  0  0  0  0  0  0
   59.6721   30.7411   51.9481 C   0  0  0  0  0  0  0  0  0  0  0  0
   60.6802   32.5060   54.6238 H   0  0  0  0  0  0  0  0  0  0  0  0
   61.6368   31.8920   53.3527 H   0  0  0  0  0  0  0  0  0  0  0  0
   59.4858   33.9501   45.2149 N   0  0  0  0  0  0  0  0  0  0  0  0
   58.1507   33.4342   45.1561 C   0  0  0  0  0  0  0  0  0  0  0  0
   57.1686   34.2293   45.1275 O   0  0  0  0  0  0  0  0  0  0  0  0
   57.9106   31.9806   45.1380 C   0  0  0  0  0  0  0  0  0  0  0  0
   56.7784   31.4351   44.5178 C   0  0  0  0  0  0  0  0  0  0  0  0
   56.5993   30.0506   44.4978 C   0  0  0  0  0  0  0  0  0  0  0  0
   55.4798   29.5312   43.8535 O   0  0  0  0  0  0  0  0  0  0  0  0
   57.5484   29.2031   45.1103 C   0  0  0  0  0  0  0  0  0  0  0  0
   58.6607   29.7987   45.7479 C   0  0  0  0  0  0  0  0  0  0  0  0
   58.8069   31.1510   45.7324 N   0  0  0  0  0  0  0  0  0  0  0  0
   59.6429   29.0098   46.4357 N   0  0  0  0  0  0  0  0  0  0  0  0
   60.0030   29.3455   47.8179 C   0  0  0  0  0  0  0  0  0  0  0  0
   60.0885   28.0784   48.7090 C   0  0  0  0  0  0  0  0  0  0  0  0
   60.0244   26.8552   47.9911 O   0  0  0  0  0  0  0  0  0  0  0  0
   60.8486   26.9130   46.8461 C   0  0  0  0  0  0  0  0  0  0  0  0
   60.1837   27.8072   45.7977 C   0  0  0  0  0  0  0  0  0  0  0  0
   57.4213   27.7270   45.0476 C   0  0  0  0  0  0  0  0  0  0  0  0
   56.9100   27.0733   45.9930 O   0  0  0  0  0  0  0  0  0  0  0  0
 11 12  1  0
 12 13  2  0
 13 14  1  0
 14 15  2  0
 15 16  1  0
 16 17  2  0
 17 10  1  0
 10  8  1  0
  8  9  2  0
  8  2  1  0
  2  3  2  0
  3  4  1  0
  4  5  2  0
  5  1  1  0
  1 20  1  0
 20 21  1  0
 21 22  2  0
 21 23  1  0
 23 24  2  0
 24 25  1  0
 25 26  1  0
 25 27  2  0
 27 36  1  0
 36 37  2  0
 27 28  1  0
 28 30  1  0
 30 31  1  0
 31 32  1  0
 32 33  1  0
 33 34  1  0
 34 35  1  0
 28 29  2  0
  5  6  1  0
  6  7  2  0
 17 12  1  0
  7  2  1  0
 29 23  1  0
 35 30  1  0
 11 18  1  0
 11 19  1  0
M  CHG 1  10  -1
M  CHG 1  20  -1
M  CHG 1  26  -1
M  END
> <UniqueID>
56

> <SMILES>
Nc1ccccc1[N-]C(=O)c1ccc(C[N-]C(=O)c2cc([O-])c(C=O)c(N3CCOCC3)n2)cc1

> <Energy>
80.28163301566013

> <Genealogy>
Nc1ccccc1[N-]C(=O)c1ccc(C[N-]C(=O)c2cc([O-])c(C=O)c(N3CCOCC3)n2)cc1 (protonated)
Nc1ccccc1[N-]C(=O)c1ccc(C[N-]C(=O)c2cc([O-])c(C=O)c(N3CCOCC3)n2)cc1 (3D coordinates assigned)
Nc1ccccc1[N-]C(=O)c1ccc(C[N-]C(=O)c2cc([O-])c(C=O)c(N3CCOCC3)n2)cc1 (nonaromatic ring conformer: 80.28163301566013 kcal/mol)

> <smiles>
Nc1ccccc1NC(=O)c1ccc(CNC(=O)c2cc(O)c(C=O)c(N3CCOCC3)n2)cc1

> <score_type>
oracle

> <origin>
adg

> <m_score__min__energy>
-14.199999999999999

> <m_primary>
energy

> <minimizedAffinity>
-7.11600

> <minimizedRMSD>
1.41141

> <CNNscore>
0.2227804959

> <CNNaffinity>
6.6402583122

> <CNN_VS>
1.4793200493

> <CNNaffinity_variance>
0.1709165722

$$$$
68:0


 27 29  0  0  0  0  0  0  0  0999 V2000
   56.6090   28.9228   44.5478 C   0  0  0  0  0  0  0  0  0  0  0  0
   57.7547   28.6305   45.1840 C   0  0  0  0  0  0  0  0  0  0  0  0
   58.3287   27.3676   45.3930 C   0  0  0  0  0  0  0  0  0  0  0  0
   57.9886   26.1464   44.9272 C   0  0  0  0  0  0  0  0  0  0  0  0
   59.4091   27.6254   46.2295 C   0  0  0  0  0  0  0  0  0  0  0  0
   60.3812   26.6260   46.7753 C   0  0  0  0  0  0  0  0  0  0  0  0
   59.5018   28.9442   46.4720 N   0  0  0  0  0  0  0  0  0  0  0  0
   58.5120   29.5493   45.8340 N   0  0  0  0  0  0  0  0  0  0  0  0
   57.3696   25.0699   45.7229 C   0  0  0  0  0  0  0  0  0  0  0  0
   56.0661   25.1989   46.2332 C   0  0  0  0  0  0  0  0  0  0  0  0
   55.3385   26.3664   46.0324 O   0  0  0  0  0  0  0  0  0  0  0  0
   55.5064   24.1745   46.9247 N   0  0  0  0  0  0  0  0  0  0  0  0
   56.1783   23.0116   47.1226 C   0  0  0  0  0  0  0  0  0  0  0  0
   55.6412   22.0766   47.7702 O   0  0  0  0  0  0  0  0  0  0  0  0
   57.4285   22.8541   46.6170 N   0  0  0  0  0  0  0  0  0  0  0  0
   58.0328   23.8488   45.9170 C   0  0  0  0  0  0  0  0  0  0  0  0
   59.1908   23.6657   45.4542 O   0  0  0  0  0  0  0  0  0  0  0  0
   58.2803   30.9922   45.9478 C   0  0  0  0  0  0  0  0  0  0  0  0
   59.4321   31.6569   46.6560 C   0  0  0  0  0  0  0  0  0  0  0  0
   59.8225   32.9565   46.2972 C   0  0  0  0  0  0  0  0  0  0  0  0
   60.8950   33.5758   46.9446 C   0  0  0  0  0  0  0  0  0  0  0  0
   61.5944   32.9101   47.9647 C   0  0  0  0  0  0  0  0  0  0  0  0
   61.1964   31.6102   48.3265 C   0  0  0  0  0  0  0  0  0  0  0  0
   60.1230   30.9910   47.6796 C   0  0  0  0  0  0  0  0  0  0  0  0
   62.7303   33.5685   48.6468 C   0  0  0  0  0  0  0  0  0  0  0  0
   63.9150   33.3335   48.2905 O   0  0  0  0  0  0  0  0  0  0  0  0
   62.5036   34.4576   49.6912 O   0  0  0  0  0  0  0  0  0  0  0  0
  1  2  2  0
  2  3  1  0
  3  4  2  0
  4  9  1  0
  9 10  2  0
 10 11  1  0
 10 12  1  0
 12 13  1  0
 13 14  2  0
 13 15  1  0
 15 16  1  0
 16 17  2  0
  3  5  1  0
  5  6  1  0
  5  7  2  0
  7  8  1  0
  8 18  1  0
 18 19  1  0
 19 20  2  0
 20 21  1  0
 21 22  2  0
 22 25  1  0
 25 26  2  0
 25 27  1  0
 22 23  1  0
 23 24  2  0
  8  2  1  0
 24 19  1  0
 16  9  1  0
M  CHG 1  11  -1
M  CHG 1  12  -1
M  CHG 1  15  -1
M  CHG 1  27  -1
M  END
> <UniqueID>
59

> <SMILES>
C=c1/c(=C\c2c([O-])[n-]c(=O)[n-]c2=O)c(C)nn1Cc1ccc(C(=O)[O-])cc1

> <Energy>
87.5922940243466

> <Genealogy>
C=c1c(=Cc2c([O-])[n-]c(=O)[n-]c2=O)c(C)nn1Cc1ccc(C(=O)[O-])cc1 (protonated)
C=c1/c(=C\c2c([O-])[n-]c(=O)[n-]c2=O)c(C)nn1Cc1ccc(C(=O)[O-])cc1 (cis-trans isomerization)
C=c1/c(=C\c2c([O-])[n-]c(=O)[n-]c2=O)c(C)nn1Cc1ccc(C(=O)[O-])cc1 (3D coordinates assigned)
C=c1/c(=C\c2c([O-])[n-]c(=O)[n-]c2=O)c(C)nn1Cc1ccc(C(=O)[O-])cc1 (optimized conformer: 87.5922940243466 kcal/mol)

> <smiles>
C=c1c(=Cc2c(O)[nH]c(=O)[nH]c2=O)c(C)nn1Cc1ccc(C(=O)O)cc1

> <score_type>
oracle

> <origin>
adg

> <m_score__min__energy>
-16.600000000000001

> <m_primary>
energy

> <minimizedAffinity>
-8.61087

> <minimizedRMSD>
1.70400

> <CNNscore>
0.2499705851

> <CNNaffinity>
6.2425179482

> <CNN_VS>
1.5604459047

> <CNNaffinity_variance>
0.2877441645

$$$$
69:0


 34 37  0  0  0  0  0  0  0  0999 V2000
   63.7898   32.7663   48.7209 N   0  0  0  0  0  0  0  0  0  0  0  0
   63.8184   32.1612   50.0783 C   0  0  0  0  0  0  0  0  0  0  0  0
   62.8900   30.9386   50.2287 C   0  0  0  0  0  0  0  0  0  0  0  0
   61.6477   31.1340   49.4651 N   0  0  0  0  0  0  0  0  0  0  0  0
   61.9012   31.2775   48.0096 C   0  0  0  0  0  0  0  0  0  0  0  0
   63.3094   31.8265   47.6902 C   0  0  0  0  0  0  0  0  0  0  0  0
   61.2239   32.0042   49.7870 H   0  0  0  0  0  0  0  0  0  0  0  0
   60.5535   29.8052   49.7558 S   0  0  0  0  0  0  0  0  0  0  0  0
   61.0177   29.0194   50.9506 O   0  0  0  0  0  0  0  0  0  0  0  0
   60.5222   28.9094   48.5476 O   0  0  0  0  0  0  0  0  0  0  0  0
   58.9668   30.4403   50.0630 N   0  0  0  0  0  0  0  0  0  0  0  0
   58.4166   30.6823   51.3626 C   0  0  0  0  0  0  0  0  0  0  0  0
   57.4769   29.9467   51.7667 O   0  0  0  0  0  0  0  0  0  0  0  0
   58.9138   31.7581   52.2431 C   0  0  0  0  0  0  0  0  0  0  0  0
   58.2078   32.9662   52.3691 C   0  0  0  0  0  0  0  0  0  0  0  0
   58.6774   33.9716   53.2215 C   0  0  0  0  0  0  0  0  0  0  0  0
   59.8445   33.7735   53.9621 C   0  0  0  0  0  0  0  0  0  0  0  0
   60.5426   32.5674   53.8579 C   0  0  0  0  0  0  0  0  0  0  0  0
   60.0752   31.5585   53.0073 C   0  0  0  0  0  0  0  0  0  0  0  0
   63.0757   34.0595   48.6777 C   0  0  0  0  0  0  0  0  0  0  0  0
   60.7205   33.9823   49.5955 C   0  0  0  0  0  0  0  0  0  0  0  0
   61.6021   33.8258   48.5178 C   0  0  0  0  0  0  0  0  0  0  0  0
   61.1134   33.4708   47.2980 N   0  0  0  0  0  0  0  0  0  0  0  0
   59.7870   33.2450   47.0814 C   0  0  0  0  0  0  0  0  0  0  0  0
   59.3390   32.9275   45.9009 N   0  0  0  0  0  0  0  0  0  0  0  0
   58.8825   33.4015   48.1382 C   0  0  0  0  0  0  0  0  0  0  0  0
   59.3552   33.7690   49.3996 C   0  0  0  0  0  0  0  0  0  0  0  0
   58.5603   31.7685   45.5543 C   0  0  0  0  0  0  0  0  0  0  0  0
   58.7844   30.5751   46.2521 C   0  0  0  0  0  0  0  0  0  0  0  0
   58.0677   29.4181   45.9291 C   0  0  0  0  0  0  0  0  0  0  0  0
   57.1349   29.4422   44.8888 C   0  0  0  0  0  0  0  0  0  0  0  0
   56.4202   28.2929   44.5695 O   0  0  0  0  0  0  0  0  0  0  0  0
   56.9261   30.6188   44.1646 C   0  0  0  0  0  0  0  0  0  0  0  0
   57.6421   31.7761   44.4855 C   0  0  0  0  0  0  0  0  0  0  0  0
 21 22  2  0
 22 20  1  0
 20  1  1  0
  1  2  1  0
  2  3  1  0
  3  4  1  0
  4  8  1  0
  8  9  2  0
  8 10  2  0
  8 11  1  0
 11 12  1  0
 12 13  2  0
 12 14  1  0
 14 15  2  0
 15 16  1  0
 16 17  2  0
 17 18  1  0
 18 19  2  0
  4  5  1  0
  5  6  1  0
 22 23  1  0
 23 24  1  0
 24 25  2  0
 25 28  1  0
 28 29  2  0
 29 30  1  0
 30 31  2  0
 31 32  1  0
 31 33  1  0
 33 34  2  0
 24 26  1  0
 26 27  2  0
 27 21  1  0
  6  1  1  0
 34 28  1  0
 19 14  1  0
  4  7  1  0
M  CHG 1   4   1
M  CHG 1  11  -1
M  CHG 1  23  -1
M  CHG 1  32  -1
M  END
> <UniqueID>
60

> <SMILES>
O=C([N-]S(=O)(=O)[NH+]1CCN(Cc2ccc/c(=N/c3ccc([O-])cc3)[n-]2)CC1)c1ccccc1

> <Energy>
82.8457127437361

> <Genealogy>
O=C([N-]S(=O)(=O)[NH+]1CCN(Cc2cccc(=Nc3ccc([O-])cc3)[n-]2)CC1)c1ccccc1 (protonated)
O=C([N-]S(=O)(=O)[NH+]1CCN(Cc2ccc/c(=N/c3ccc([O-])cc3)[n-]2)CC1)c1ccccc1 (cis-trans isomerization)
O=C([N-]S(=O)(=O)[NH+]1CCN(Cc2ccc/c(=N/c3ccc([O-])cc3)[n-]2)CC1)c1ccccc1 (3D coordinates assigned)
O=C([N-]S(=O)(=O)[NH+]1CCN(Cc2ccc/c(=N/c3ccc([O-])cc3)[n-]2)CC1)c1ccccc1 (nonaromatic ring conformer: 82.8457127437361 kcal/mol)

> <smiles>
O=C(NS(=O)(=O)N1CCN(Cc2cccc(=Nc3ccc(O)cc3)[nH]2)CC1)c1ccccc1

> <score_type>
oracle

> <origin>
adg

> <m_score__min__energy>
-14.779999999999999

> <m_primary>
energy

> <minimizedAffinity>
-6.47503

> <minimizedRMSD>
0.99832

> <CNNscore>
0.3431156576

> <CNNaffinity>
5.9905514717

> <CNN_VS>
2.0554521084

> <CNNaffinity_variance>
0.3102474809

$$$$
5:0


 33 36  0  0  0  0  0  0  0  0999 V2000
   56.5444   28.8905   44.3683 C   0  0  0  0  0  0  0  0  0  0  0  0
   57.6912   28.4530   44.9126 C   0  0  0  0  0  0  0  0  0  0  0  0
   58.1501   27.1252   44.9831 C   0  0  0  0  0  0  0  0  0  0  0  0
   57.5333   25.9599   44.7029 C   0  0  0  0  0  0  0  0  0  0  0  0
   59.4553   27.1910   45.4411 C   0  0  0  0  0  0  0  0  0  0  0  0
   59.7279   28.5182   45.6924 C   0  0  0  0  0  0  0  0  0  0  0  0
   61.0299   29.0331   46.2264 C   0  0  0  0  0  0  0  0  0  0  0  0
   58.6621   29.2859   45.3721 N   0  0  0  0  0  0  0  0  0  0  0  0
   57.1154   24.9501   45.6936 C   0  0  0  0  0  0  0  0  0  0  0  0
   55.8611   25.0418   46.3115 C   0  0  0  0  0  0  0  0  0  0  0  0
   55.0139   26.1101   46.0381 O   0  0  0  0  0  0  0  0  0  0  0  0
   55.4664   24.0865   47.1929 N   0  0  0  0  0  0  0  0  0  0  0  0
   56.2633   23.0253   47.4795 C   0  0  0  0  0  0  0  0  0  0  0  0
   55.8782   22.1546   48.3028 O   0  0  0  0  0  0  0  0  0  0  0  0
   57.4709   22.8977   46.8740 N   0  0  0  0  0  0  0  0  0  0  0  0
   57.9113   23.8257   45.9843 C   0  0  0  0  0  0  0  0  0  0  0  0
   59.0283   23.6633   45.4234 O   0  0  0  0  0  0  0  0  0  0  0  0
   58.5867   30.7174   45.5016 C   0  0  0  0  0  0  0  0  0  0  0  0
   57.8848   31.4796   44.5588 C   0  0  0  0  0  0  0  0  0  0  0  0
   57.8180   32.8688   44.6884 C   0  0  0  0  0  0  0  0  0  0  0  0
   58.4451   33.5057   45.7632 C   0  0  0  0  0  0  0  0  0  0  0  0
   59.1428   32.7545   46.7242 C   0  0  0  0  0  0  0  0  0  0  0  0
   59.2223   31.3592   46.5748 C   0  0  0  0  0  0  0  0  0  0  0  0
   59.8070   33.4268   47.8659 C   0  0  0  0  0  0  0  0  0  0  0  0
   59.4954   34.6169   48.1516 O   0  0  0  0  0  0  0  0  0  0  0  0
   60.8110   32.7531   48.6462 N   0  0  0  0  0  0  0  0  0  0  0  0
   61.9596   32.1450   47.9684 C   0  0  0  0  0  0  0  0  0  0  0  0
   63.0970   33.1575   47.7799 C   0  0  0  0  0  0  0  0  0  0  0  0
   64.0541   33.1736   48.9867 C   0  0  0  0  0  0  0  0  0  0  0  0
   63.3862   33.0780   50.2999 N   0  0  0  0  0  0  0  0  0  0  0  0
   62.1065   33.7965   50.4575 C   0  0  0  0  0  0  0  0  0  0  0  0
   60.8657   32.9647   50.0981 C   0  0  0  0  0  0  0  0  0  0  0  0
   64.0317   33.4431   51.0002 H   0  0  0  0  0  0  0  0  0  0  0  0
  1  2  2  0
  2  3  1  0
  3  4  2  0
  4  9  1  0
  9 10  2  0
 10 11  1  0
 10 12  1  0
 12 13  1  0
 13 14  2  0
 13 15  1  0
 15 16  1  0
 16 17  2  0
  3  5  1  0
  5  6  2  0
  6  7  1  0
  6  8  1  0
  8 18  1  0
 18 19  2  0
 19 20  1  0
 20 21  2  0
 21 22  1  0
 22 24  1  0
 24 25  2  0
 24 26  1  0
 26 27  1  0
 27 28  1  0
 28 29  1  0
 29 30  1  0
 30 31  1  0
 31 32  1  0
 22 23  2  0
  8  2  1  0
 23 18  1  0
 16  9  1  0
 32 26  1  0
 30 33  1  0
M  CHG 1  11  -1
M  CHG 1  12  -1
M  CHG 1  15  -1
M  END
> <UniqueID>
6

> <SMILES>
C=c1c(=Cc2c([O-])[n-]c(=O)[n-]c2=O)cc(C)n1-c1cccc(C(=O)N2CCCNCC2)c1

> <Energy>
117.29486849671964

> <Genealogy>
C=c1c(=Cc2c([O-])[n-]c(=O)[n-]c2=O)cc(C)n1-c1cccc(C(=O)N2CCCNCC2)c1 (protonated)
C=c1c(=Cc2c([O-])[n-]c(=O)[n-]c2=O)cc(C)n1-c1cccc(C(=O)N2CCCNCC2)c1 (3D coordinates assigned)
C=c1c(=Cc2c([O-])[n-]c(=O)[n-]c2=O)cc(C)n1-c1cccc(C(=O)N2CCCNCC2)c1 (nonaromatic ring conformer: 117.29486849671964 kcal/mol)

> <smiles>
C=c1c(=Cc2c(O)[nH]c(=O)[nH]c2=O)cc(C)n1-c1cccc(C(=O)N2CCCNCC2)c1

> <score_type>
oracle

> <origin>
adg

> <m_score__min__energy>
-15.5

> <m_primary>
energy

> <minimizedAffinity>
-9.38926

> <minimizedRMSD>
0.75723

> <CNNscore>
0.3370782733

> <CNNaffinity>
7.0678596497

> <CNN_VS>
2.3824219704

> <CNNaffinity_variance>
0.0114362212

$$$$
8:0


 32 35  0  0  0  0  0  0  0  0999 V2000
   59.3081   28.8360   44.8043 C   0  0  0  0  0  0  0  0  0  0  0  0
   59.5221   28.2751   46.0055 C   0  0  0  0  0  0  0  0  0  0  0  0
   59.2499   26.9504   46.3577 C   0  0  0  0  0  0  0  0  0  0  0  0
   58.7050   25.9918   45.5840 C   0  0  0  0  0  0  0  0  0  0  0  0
   59.5980   26.8203   47.6951 C   0  0  0  0  0  0  0  0  0  0  0  0
   60.0697   28.0525   48.1014 C   0  0  0  0  0  0  0  0  0  0  0  0
   60.5450   28.3647   49.4871 C   0  0  0  0  0  0  0  0  0  0  0  0
   60.0393   28.9355   47.0760 N   0  0  0  0  0  0  0  0  0  0  0  0
   57.6456   25.0793   46.0467 C   0  0  0  0  0  0  0  0  0  0  0  0
   57.8808   23.8102   46.4248 N   0  0  0  0  0  0  0  0  0  0  0  0
   56.6622   23.3622   46.7958 C   0  0  0  0  0  0  0  0  0  0  0  0
   56.4667   22.1880   47.2073 O   0  0  0  0  0  0  0  0  0  0  0  0
   55.6699   24.2722   46.6980 N   0  0  0  0  0  0  0  0  0  0  0  0
   56.3065   25.3602   46.2356 C   0  0  0  0  0  0  0  0  0  0  0  0
   55.6765   26.5864   46.0365 O   0  0  0  0  0  0  0  0  0  0  0  0
   54.7569   26.6718   46.1946 H   0  0  0  0  0  0  0  0  0  0  0  0
   60.4108   30.3554   47.1585 C   0  0  0  0  0  0  0  0  0  0  0  0
   59.2128   31.1887   47.6225 C   0  0  0  0  0  0  0  0  0  0  0  0
   59.0547   32.4205   46.7625 C   0  0  0  0  0  0  0  0  0  0  0  0
   58.4416   32.2927   45.5040 C   0  0  0  0  0  0  0  0  0  0  0  0
   58.3315   33.3927   44.6515 C   0  0  0  0  0  0  0  0  0  0  0  0
   58.8467   34.6299   45.0383 C   0  0  0  0  0  0  0  0  0  0  0  0
   59.4706   34.7719   46.2788 C   0  0  0  0  0  0  0  0  0  0  0  0
   59.5772   33.6783   47.1486 C   0  0  0  0  0  0  0  0  0  0  0  0
   60.2377   33.8789   48.4514 C   0  0  0  0  0  0  0  0  0  0  0  0
   59.5304   34.2463   49.4288 O   0  0  0  0  0  0  0  0  0  0  0  0
   61.6530   33.6349   48.6282 N   0  0  0  0  0  0  0  0  0  0  0  0
   62.3253   34.0988   49.8489 C   0  0  0  0  0  0  0  0  0  0  0  0
   63.5193   33.1952   50.1687 C   0  0  0  0  0  0  0  0  0  0  0  0
   64.3653   33.0598   49.0433 O   0  0  0  0  0  0  0  0  0  0  0  0
   63.6768   32.3796   48.0123 C   0  0  0  0  0  0  0  0  0  0  0  0
   62.4959   33.2107   47.5028 C   0  0  0  0  0  0  0  0  0  0  0  0
  1  2  2  0
  2  3  1  0
  3  4  2  0
  4  9  1  0
  9 10  1  0
 10 11  1  0
 11 12  2  0
 11 13  1  0
 13 14  1  0
 14 15  1  0
  3  5  1  0
  5  6  2  0
  6  7  1  0
  6  8  1  0
  8 17  1  0
 17 18  1  0
 18 19  1  0
 19 20  2  0
 20 21  1  0
 21 22  2  0
 22 23  1  0
 23 24  2  0
 24 25  1  0
 25 26  2  0
 25 27  1  0
 27 28  1  0
 28 29  1  0
 29 30  1  0
 30 31  1  0
 31 32  1  0
  8  2  1  0
 24 19  1  0
 32 27  1  0
 14  9  2  0
 15 16  1  0
M  CHG 1  10  -1
M  CHG 1  13  -1
M  END
> <UniqueID>
9

> <SMILES>
C=c1c(=Cc2[n-]c(=O)[n-]c2O)cc(C)n1CCc1ccccc1C(=O)N1CCOCC1

> <Energy>
127.38250292027536

> <Genealogy>
C=c1c(=Cc2[n-]c(=O)[n-]c2O)cc(C)n1CCc1ccccc1C(=O)N1CCOCC1 (protonated)
C=c1c(=Cc2[n-]c(=O)[n-]c2O)cc(C)n1CCc1ccccc1C(=O)N1CCOCC1 (3D coordinates assigned)
C=c1c(=Cc2[n-]c(=O)[n-]c2O)cc(C)n1CCc1ccccc1C(=O)N1CCOCC1 (nonaromatic ring conformer: 127.38250292027536 kcal/mol)

> <smiles>
C=c1c(=Cc2[nH]c(=O)[nH]c2O)cc(C)n1CCc1ccccc1C(=O)N1CCOCC1

> <score_type>
oracle

> <origin>
adg

> <m_score__min__energy>
-14.6

> <m_primary>
energy

> <minimizedAffinity>
-10.33644

> <minimizedRMSD>
0.67831

> <CNNscore>
0.6652505994

> <CNNaffinity>
7.1958751678

> <CNN_VS>
4.7870602608

> <CNNaffinity_variance>
0.0096141016

$$$$
17:0


 33 36  0  0  0  0  0  0  0  0999 V2000
   57.6442   29.9025   53.5929 C   0  0  0  0  0  0  0  0  0  0  0  0
   58.4560   28.8017   53.8975 C   0  0  0  0  0  0  0  0  0  0  0  0
   59.7802   28.7638   53.4592 C   0  0  0  0  0  0  0  0  0  0  0  0
   60.3066   29.8265   52.7217 C   0  0  0  0  0  0  0  0  0  0  0  0
   59.5110   30.9470   52.4177 C   0  0  0  0  0  0  0  0  0  0  0  0
   58.1732   30.9692   52.8521 C   0  0  0  0  0  0  0  0  0  0  0  0
   55.1988   30.5340   52.0132 C   0  0  0  0  0  0  0  0  0  0  0  0
   55.1742   30.2226   53.3181 C   0  0  0  0  0  0  0  0  0  0  0  0
   54.0402   30.1528   54.1348 C   0  0  0  0  0  0  0  0  0  0  0  0
   52.7645   30.4032   53.7823 C   0  0  0  0  0  0  0  0  0  0  0  0
   54.4977   29.8389   55.4090 C   0  0  0  0  0  0  0  0  0  0  0  0
   55.8676   29.7081   55.3177 C   0  0  0  0  0  0  0  0  0  0  0  0
   56.7708   29.3987   56.4731 C   0  0  0  0  0  0  0  0  0  0  0  0
   56.2819   29.9461   54.0529 N   0  0  0  0  0  0  0  0  0  0  0  0
   52.3159   30.5924   52.3913 C   0  0  0  0  0  0  0  0  0  0  0  0
   52.4943   29.6716   51.4278 N   0  0  0  0  0  0  0  0  0  0  0  0
   51.8666   30.2089   50.3596 C   0  0  0  0  0  0  0  0  0  0  0  0
   51.8254   29.6375   49.2388 O   0  0  0  0  0  0  0  0  0  0  0  0
   51.2791   31.4019   50.5883 N   0  0  0  0  0  0  0  0  0  0  0  0
   51.5607   31.6265   51.8806 C   0  0  0  0  0  0  0  0  0  0  0  0
   51.0943   32.7276   52.5888 O   0  0  0  0  0  0  0  0  0  0  0  0
   60.0524   32.0831   51.6316 C   0  0  0  0  0  0  0  0  0  0  0  0
   60.1314   33.2238   52.1661 O   0  0  0  0  0  0  0  0  0  0  0  0
   60.5051   31.9026   50.2804 N   0  0  0  0  0  0  0  0  0  0  0  0
   60.5459   30.9950   49.9012 H   0  0  0  0  0  0  0  0  0  0  0  0
   60.9070   33.0447   49.4571 C   0  0  0  0  0  0  0  0  0  0  0  0
   59.6912   33.7152   48.7966 C   0  0  0  0  0  0  0  0  0  0  0  0
   59.5936   33.3900   47.3552 N   0  0  0  0  0  0  0  0  0  0  0  0
   60.0830   32.0183   47.0743 C   0  0  0  0  0  0  0  0  0  0  0  0
   58.9240   31.0194   46.9083 C   0  0  0  0  0  0  0  0  0  0  0  0
   58.0271   31.3529   45.8576 O   0  0  0  0  0  0  0  0  0  0  0  0
   57.9463   32.7477   45.5976 C   0  0  0  0  0  0  0  0  0  0  0  0
   58.2255   33.6212   46.8311 C   0  0  0  0  0  0  0  0  0  0  0  0
  7  8  2  0
  8  9  1  0
  9 10  2  0
 10 15  1  0
 15 16  1  0
 16 17  1  0
 17 18  2  0
 17 19  1  0
 19 20  1  0
 20 21  1  0
  9 11  1  0
 11 12  2  0
 12 13  1  0
 12 14  1  0
 14  1  1  0
  1  2  2  0
  2  3  1  0
  3  4  2  0
  4  5  1  0
  5 22  1  0
 22 23  2  0
 22 24  1  0
 24 26  1  0
 26 27  1  0
 27 28  1  0
 28 29  1  0
 29 30  1  0
 30 31  1  0
 31 32  1  0
 32 33  1  0
  5  6  2  0
 14  8  1  0
  6  1  1  0
 20 15  2  0
 33 28  1  0
 24 25  1  0
M  CHG 1  16  -1
M  CHG 1  19  -1
M  CHG 1  21  -1
M  END
> <UniqueID>
16

> <SMILES>
C=c1/c(=C/c2[n-]c(=O)[n-]c2[O-])cc(C)n1-c1cccc(C(=O)NCCN2CCOCC2)c1

> <Energy>
143.47791996915336

> <Genealogy>
C=c1c(=Cc2[n-]c(=O)[n-]c2[O-])cc(C)n1-c1cccc(C(=O)NCCN2CCOCC2)c1 (protonated)
C=c1/c(=C/c2[n-]c(=O)[n-]c2[O-])cc(C)n1-c1cccc(C(=O)NCCN2CCOCC2)c1 (cis-trans isomerization)
C=c1/c(=C/c2[n-]c(=O)[n-]c2[O-])cc(C)n1-c1cccc(C(=O)NCCN2CCOCC2)c1 (3D coordinates assigned)
C=c1/c(=C/c2[n-]c(=O)[n-]c2[O-])cc(C)n1-c1cccc(C(=O)NCCN2CCOCC2)c1 (nonaromatic ring conformer: 143.47791996915336 kcal/mol)

> <smiles>
C=c1c(=Cc2[nH]c(=O)[nH]c2O)cc(C)n1-c1cccc(C(=O)NCCN2CCOCC2)c1

> <score_type>
oracle

> <origin>
adg

> <m_score__min__energy>
-17.289999999999999

> <m_primary>
energy

> <minimizedAffinity>
-6.39359

> <minimizedRMSD>
0.94019

> <CNNscore>
0.0557665005

> <CNNaffinity>
5.1522250175

> <CNN_VS>
0.2873215675

> <CNNaffinity_variance>
0.4881678522

$$$$
28:0


 34 37  0  0  0  0  0  0  0  0999 V2000
   58.0704   29.4443   53.3526 C   0  0  0  0  0  0  0  0  0  0  0  0
   58.6988   29.3168   52.1049 C   0  0  0  0  0  0  0  0  0  0  0  0
   60.1008   29.3917   51.9961 C   0  0  0  0  0  0  0  0  0  0  0  0
   60.8622   29.5880   53.1621 C   0  0  0  0  0  0  0  0  0  0  0  0
   60.2376   29.7168   54.4057 C   0  0  0  0  0  0  0  0  0  0  0  0
   58.8473   29.6447   54.5034 C   0  0  0  0  0  0  0  0  0  0  0  0
   58.2555   29.7456   55.7206 F   0  0  0  0  0  0  0  0  0  0  0  0
   56.0234   31.4334   52.5023 C   0  0  0  0  0  0  0  0  0  0  0  0
   55.7175   30.2619   53.0813 C   0  0  0  0  0  0  0  0  0  0  0  0
   54.4344   29.7802   53.3571 C   0  0  0  0  0  0  0  0  0  0  0  0
   53.2647   30.4247   53.1728 C   0  0  0  0  0  0  0  0  0  0  0  0
   54.6022   28.5189   53.9135 C   0  0  0  0  0  0  0  0  0  0  0  0
   55.9629   28.2828   53.9563 C   0  0  0  0  0  0  0  0  0  0  0  0
   56.5962   27.0292   54.4803 C   0  0  0  0  0  0  0  0  0  0  0  0
   56.6397   29.3362   53.4505 N   0  0  0  0  0  0  0  0  0  0  0  0
   52.6027   30.5775   51.8653 C   0  0  0  0  0  0  0  0  0  0  0  0
   52.7529   29.6991   50.8563 N   0  0  0  0  0  0  0  0  0  0  0  0
   51.9204   30.1709   49.9019 C   0  0  0  0  0  0  0  0  0  0  0  0
   51.7885   29.6125   48.7817 O   0  0  0  0  0  0  0  0  0  0  0  0
   51.2319   31.2800   50.2483 N   0  0  0  0  0  0  0  0  0  0  0  0
   51.6644   31.5177   51.4976 C   0  0  0  0  0  0  0  0  0  0  0  0
   51.1729   32.5427   52.2970 O   0  0  0  0  0  0  0  0  0  0  0  0
   60.7843   29.2360   50.6855 C   0  0  0  0  0  0  0  0  0  0  0  0
   60.9830   28.0680   50.2436 O   0  0  0  0  0  0  0  0  0  0  0  0
   61.1631   30.3845   49.8821 N   0  0  0  0  0  0  0  0  0  0  0  0
   61.0402   30.0672   48.4413 C   0  0  0  0  0  0  0  0  0  0  0  0
   61.3626   31.2983   47.5864 C   0  0  0  0  0  0  0  0  0  0  0  0
   60.5386   32.4458   47.9883 N   0  0  0  0  0  0  0  0  0  0  0  0
   60.5172   33.6218   47.1478 C   0  0  0  0  0  0  0  0  0  0  0  0
   59.4325   34.6524   47.2606 C   0  0  0  0  0  0  0  0  0  0  0  0
   61.4363   33.8007   46.3034 O   0  0  0  0  0  0  0  0  0  0  0  0
   59.6644   32.3173   49.1629 C   0  0  0  0  0  0  0  0  0  0  0  0
   60.4017   31.5967   50.3085 C   0  0  0  0  0  0  0  0  0  0  0  0
   61.6519   30.0276   49.1056 H   0  0  0  0  0  0  0  0  0  0  0  0
  8  9  2  0
  9 10  1  0
 10 11  2  0
 11 16  1  0
 16 17  1  0
 17 18  1  0
 18 19  2  0
 18 20  1  0
 20 21  1  0
 21 22  1  0
 10 12  1  0
 12 13  2  0
 13 14  1  0
 13 15  1  0
 15  1  1  0
  1  2  2  0
  2  3  1  0
  3 23  1  0
 23 24  2  0
 23 25  1  0
 25 26  1  0
 26 27  1  0
 27 28  1  0
 28 29  1  0
 29 30  1  0
 29 31  2  0
 28 32  1  0
 32 33  1  0
  3  4  2  0
  4  5  1  0
  5  6  2  0
  6  7  1  0
 15  9  1  0
  6  1  1  0
 21 16  2  0
 33 25  1  0
 25 34  1  0
M  CHG 1  17  -1
M  CHG 1  20  -1
M  CHG 1  22  -1
M  CHG 1  25   1
M  END
> <UniqueID>
27

> <SMILES>
C=c1c(=Cc2[n-]c(=O)[n-]c2[O-])cc(C)n1-c1cc(C(=O)[NH+]2CCN(C(C)=O)CC2)ccc1F

> <Energy>
139.85137200568957

> <Genealogy>
C=c1c(=Cc2[n-]c(=O)[n-]c2[O-])cc(C)n1-c1cc(C(=O)[NH+]2CCN(C(C)=O)CC2)ccc1F (protonated)
C=c1c(=Cc2[n-]c(=O)[n-]c2[O-])cc(C)n1-c1cc(C(=O)[NH+]2CCN(C(C)=O)CC2)ccc1F (3D coordinates assigned)
C=c1c(=Cc2[n-]c(=O)[n-]c2[O-])cc(C)n1-c1cc(C(=O)[NH+]2CCN(C(C)=O)CC2)ccc1F (nonaromatic ring conformer: 139.85137200568957 kcal/mol)

> <smiles>
C=c1c(=Cc2[nH]c(=O)[nH]c2O)cc(C)n1-c1cc(C(=O)N2CCN(C(C)=O)CC2)ccc1F

> <score_type>
oracle

> <origin>
adg

> <m_score__min__energy>
-16

> <m_primary>
energy

> <minimizedAffinity>
-6.33117

> <minimizedRMSD>
0.76794

> <CNNscore>
0.0380412228

> <CNNaffinity>
5.3174233437

> <CNN_VS>
0.2022812814

> <CNNaffinity_variance>
0.2088018209

$$$$
29:0


 29 32  0  0  0  0  0  0  0  0999 V2000
   57.9500   26.5188   44.7610 C   0  0  0  0  0  0  0  0  0  0  0  0
   58.4667   27.6747   45.2198 C   0  0  0  0  0  0  0  0  0  0  0  0
   59.6781   27.8317   45.8815 C   0  0  0  0  0  0  0  0  0  0  0  0
   59.8257   29.1841   46.1223 C   0  0  0  0  0  0  0  0  0  0  0  0
   61.0003   29.8017   46.8161 C   0  0  0  0  0  0  0  0  0  0  0  0
   58.7598   29.8664   45.6467 N   0  0  0  0  0  0  0  0  0  0  0  0
   57.9230   28.9571   45.0871 C   0  0  0  0  0  0  0  0  0  0  0  0
   56.7380   29.2662   44.5378 C   0  0  0  0  0  0  0  0  0  0  0  0
   55.1580   26.4015   46.0971 O   0  0  0  0  0  0  0  0  0  0  0  0
   56.1392   25.4208   46.1992 C   0  0  0  0  0  0  0  0  0  0  0  0
   55.9665   24.2580   46.8502 N   0  0  0  0  0  0  0  0  0  0  0  0
   57.1328   23.6164   46.6260 C   0  0  0  0  0  0  0  0  0  0  0  0
   57.3718   22.4650   47.0747 O   0  0  0  0  0  0  0  0  0  0  0  0
   58.0222   24.3023   45.8748 N   0  0  0  0  0  0  0  0  0  0  0  0
   57.3913   25.4649   45.6264 C   0  0  0  0  0  0  0  0  0  0  0  0
   54.3318   26.2838   46.5231 H   0  0  0  0  0  0  0  0  0  0  0  0
   58.5804   31.2921   45.7156 C   0  0  0  0  0  0  0  0  0  0  0  0
   57.8536   31.9606   44.7202 C   0  0  0  0  0  0  0  0  0  0  0  0
   57.6797   33.3464   44.7876 C   0  0  0  0  0  0  0  0  0  0  0  0
   58.2348   34.0722   45.8436 C   0  0  0  0  0  0  0  0  0  0  0  0
   58.9785   33.4169   46.8381 C   0  0  0  0  0  0  0  0  0  0  0  0
   59.1396   32.0239   46.7726 C   0  0  0  0  0  0  0  0  0  0  0  0
   59.5430   34.1910   47.9986 C   0  0  0  0  0  0  0  0  0  0  0  0
   61.0056   33.8878   48.1619 C   0  0  0  0  0  0  0  0  0  0  0  0
   61.5782   33.7919   49.4399 C   0  0  0  0  0  0  0  0  0  0  0  0
   62.8945   33.4813   49.5790 N   0  0  0  0  0  0  0  0  0  0  0  0
   63.6913   33.2485   48.5024 C   0  0  0  0  0  0  0  0  0  0  0  0
   63.1623   33.3206   47.2126 C   0  0  0  0  0  0  0  0  0  0  0  0
   61.8129   33.6375   47.0431 C   0  0  0  0  0  0  0  0  0  0  0  0
  9 10  1  0
 10 11  1  0
 11 12  1  0
 12 13  2  0
 12 14  1  0
 14 15  1  0
 15  1  1  0
  1  2  2  0
  2  3  1  0
  3  4  2  0
  4  5  1  0
  4  6  1  0
  6 17  1  0
 17 18  2  0
 18 19  1  0
 19 20  2  0
 20 21  1  0
 21 23  1  0
 23 24  1  0
 24 25  2  0
 25 26  1  0
 26 27  2  0
 27 28  1  0
 28 29  2  0
 21 22  2  0
  6  7  1  0
  7  8  2  0
 15 10  2  0
  7  2  1  0
 22 17  1  0
 29 24  1  0
  9 16  1  0
M  CHG 1  11  -1
M  CHG 1  14  -1
M  END
> <UniqueID>
28

> <SMILES>
C=c1/c(=C/c2[n-]c(=O)[n-]c2O)cc(C)n1-c1cccc(Cc2cccnc2)c1

> <Energy>
119.41779197187823

> <Genealogy>
C=c1c(=Cc2[n-]c(=O)[n-]c2O)cc(C)n1-c1cccc(Cc2cccnc2)c1 (protonated)
C=c1/c(=C/c2[n-]c(=O)[n-]c2O)cc(C)n1-c1cccc(Cc2cccnc2)c1 (cis-trans isomerization)
C=c1/c(=C/c2[n-]c(=O)[n-]c2O)cc(C)n1-c1cccc(Cc2cccnc2)c1 (3D coordinates assigned)
C=c1/c(=C/c2[n-]c(=O)[n-]c2O)cc(C)n1-c1cccc(Cc2cccnc2)c1 (optimized conformer: 119.41779197187823 kcal/mol)

> <smiles>
C=c1c(=Cc2[nH]c(=O)[nH]c2O)cc(C)n1-c1cccc(Cc2cccnc2)c1

> <score_type>
oracle

> <origin>
adg

> <m_score__min__energy>
-14.619999999999999

> <m_primary>
energy

> <minimizedAffinity>
-10.52748

> <minimizedRMSD>
0.46491

> <CNNscore>
0.9031029940

> <CNNaffinity>
7.7047429085

> <CNN_VS>
6.9581766129

> <CNNaffinity_variance>
0.0222842824

$$$$
39:0


 33 35  0  0  0  0  0  0  0  0999 V2000
   60.9593   29.9193   47.1945 C   0  0  0  0  0  0  0  0  0  0  0  0
   60.1077   30.8396   46.7232 C   0  0  0  0  0  0  0  0  0  0  0  0
   59.2655   30.7050   45.6169 C   0  0  0  0  0  0  0  0  0  0  0  0
   59.0719   29.6028   44.8686 C   0  0  0  0  0  0  0  0  0  0  0  0
   58.6061   31.9190   45.4760 C   0  0  0  0  0  0  0  0  0  0  0  0
   59.0554   32.7304   46.5005 C   0  0  0  0  0  0  0  0  0  0  0  0
   58.5681   34.1243   46.7635 C   0  0  0  0  0  0  0  0  0  0  0  0
   59.9532   32.0728   47.2629 N   0  0  0  0  0  0  0  0  0  0  0  0
   58.5194   28.3418   45.4046 C   0  0  0  0  0  0  0  0  0  0  0  0
   57.1318   28.1806   45.5235 C   0  0  0  0  0  0  0  0  0  0  0  0
   56.2657   29.1790   45.0813 O   0  0  0  0  0  0  0  0  0  0  0  0
   56.6219   27.0392   46.0610 N   0  0  0  0  0  0  0  0  0  0  0  0
   57.4411   26.0435   46.4929 C   0  0  0  0  0  0  0  0  0  0  0  0
   56.9539   24.9935   46.9889 O   0  0  0  0  0  0  0  0  0  0  0  0
   58.7859   26.1824   46.3956 N   0  0  0  0  0  0  0  0  0  0  0  0
   59.3433   27.3039   45.8701 C   0  0  0  0  0  0  0  0  0  0  0  0
   60.5976   27.4081   45.8265 O   0  0  0  0  0  0  0  0  0  0  0  0
   55.6462   26.9329   46.1384 H   0  0  0  0  0  0  0  0  0  0  0  0
   60.6345   32.6134   48.4086 C   0  0  0  0  0  0  0  0  0  0  0  0
   61.7741   33.4040   48.1960 C   0  0  0  0  0  0  0  0  0  0  0  0
   62.5014   33.9073   49.2729 C   0  0  0  0  0  0  0  0  0  0  0  0
   62.1017   33.6223   50.5785 C   0  0  0  0  0  0  0  0  0  0  0  0
   60.9616   32.8506   50.8104 C   0  0  0  0  0  0  0  0  0  0  0  0
   60.2044   32.3403   49.7362 C   0  0  0  0  0  0  0  0  0  0  0  0
   58.9803   31.5471   50.0318 C   0  0  0  0  0  0  0  0  0  0  0  0
   57.8414   32.0654   49.8605 O   0  0  0  0  0  0  0  0  0  0  0  0
   59.0752   30.2244   50.4809 O   0  0  0  0  0  0  0  0  0  0  0  0
   58.6687   29.8274   51.7891 C   0  0  0  0  0  0  0  0  0  0  0  0
   59.6282   28.9769   52.3790 O   0  0  0  0  0  0  0  0  0  0  0  0
   60.7330   29.7281   52.8461 C   0  0  0  0  0  0  0  0  0  0  0  0
   62.0053   29.2300   52.1671 C   0  0  0  0  0  0  0  0  0  0  0  0
   61.9698   29.4836   50.7877 O   0  0  0  0  0  0  0  0  0  0  0  0
   61.2149   29.0197   50.3930 H   0  0  0  0  0  0  0  0  0  0  0  0
  1  2  2  0
  2  3  1  0
  3  4  2  0
  4  9  1  0
  9 10  2  0
 10 11  1  0
 10 12  1  0
 12 13  1  0
 13 14  2  0
 13 15  1  0
 15 16  1  0
 16 17  2  0
  3  5  1  0
  5  6  2  0
  6  7  1  0
  6  8  1  0
  8 19  1  0
 19 20  2  0
 20 21  1  0
 21 22  2  0
 22 23  1  0
 23 24  2  0
 24 25  1  0
 25 26  2  0
 25 27  1  0
 27 28  1  0
 28 29  1  0
 29 30  1  0
 30 31  1  0
 31 32  1  0
  8  2  1  0
 24 19  1  0
 16  9  1  0
 12 18  1  0
 32 33  1  0
M  CHG 1  11  -1
M  CHG 1  15  -1
M  END
> <UniqueID>
38

> <SMILES>
C=c1c(=Cc2c([O-])[nH]c(=O)[n-]c2=O)cc(C)n1-c1ccccc1C(=O)OCOCCO

> <Energy>
94.46492874961001

> <Genealogy>
C=c1c(=Cc2c([O-])[nH]c(=O)[n-]c2=O)cc(C)n1-c1ccccc1C(=O)OCOCCO (protonated)
C=c1c(=Cc2c([O-])[nH]c(=O)[n-]c2=O)cc(C)n1-c1ccccc1C(=O)OCOCCO (3D coordinates assigned)
C=c1c(=Cc2c([O-])[nH]c(=O)[n-]c2=O)cc(C)n1-c1ccccc1C(=O)OCOCCO (optimized conformer: 94.46492874961001 kcal/mol)

> <smiles>
C=c1c(=Cc2c(O)[nH]c(=O)[nH]c2=O)cc(C)n1-c1ccccc1C(=O)OCOCCO

> <score_type>
oracle

> <origin>
adg

> <m_score__min__energy>
-14.01

> <m_primary>
energy

> <minimizedAffinity>
-6.29027

> <minimizedRMSD>
1.57374

> <CNNscore>
0.3714517653

> <CNNaffinity>
6.6579575539

> <CNN_VS>
2.4731101990

> <CNNaffinity_variance>
0.0620116889

$$$$
45:0


 35 38  0  0  0  0  0  0  0  0999 V2000
   57.6377   29.1510   45.0555 N   0  0  0  0  0  0  0  0  0  0  0  0
   56.6220   29.8941   44.3680 C   0  0  0  0  0  0  0  0  0  0  0  0
   55.4158   29.6462   44.6300 O   0  0  0  0  0  0  0  0  0  0  0  0
   58.0381   31.7308   43.5152 C   0  0  0  0  0  0  0  0  0  0  0  0
   56.9615   30.9459   43.3814 C   0  0  0  0  0  0  0  0  0  0  0  0
   59.3235   33.8013   46.0934 C   0  0  0  0  0  0  0  0  0  0  0  0
   59.4437   33.0593   45.0176 O   0  0  0  0  0  0  0  0  0  0  0  0
   58.2578   32.6041   44.6830 C   0  0  0  0  0  0  0  0  0  0  0  0
   57.3086   33.0761   45.5759 C   0  0  0  0  0  0  0  0  0  0  0  0
   57.9993   33.8549   46.4813 C   0  0  0  0  0  0  0  0  0  0  0  0
   60.4180   34.5276   46.7602 C   0  0  0  0  0  0  0  0  0  0  0  0
   61.2382   34.0306   47.7006 C   0  0  0  0  0  0  0  0  0  0  0  0
   62.8711   33.4249   47.2554 S   0  0  0  0  0  0  0  0  0  0  0  0
   63.0452   32.8563   48.9476 C   0  0  0  0  0  0  0  0  0  0  0  0
   64.0257   32.1615   49.3206 O   0  0  0  0  0  0  0  0  0  0  0  0
   62.0076   33.2160   49.8462 N   0  0  0  0  0  0  0  0  0  0  0  0
   60.9909   33.9083   49.1430 C   0  0  0  0  0  0  0  0  0  0  0  0
   60.0156   34.4227   49.7496 O   0  0  0  0  0  0  0  0  0  0  0  0
   58.6758   28.3418   44.4225 C   0  0  0  0  0  0  0  0  0  0  0  0
   60.0193   28.5390   45.1320 C   0  0  0  0  0  0  0  0  0  0  0  0
   59.8073   28.9811   46.5536 C   0  0  0  0  0  0  0  0  0  0  0  0
   59.9421   30.3338   46.9044 C   0  0  0  0  0  0  0  0  0  0  0  0
   59.7798   30.7385   48.2318 C   0  0  0  0  0  0  0  0  0  0  0  0
   59.4863   29.7941   49.2259 C   0  0  0  0  0  0  0  0  0  0  0  0
   59.3661   28.4411   48.8814 C   0  0  0  0  0  0  0  0  0  0  0  0
   59.5302   28.0350   47.5547 C   0  0  0  0  0  0  0  0  0  0  0  0
   59.2775   30.3066   50.9027 S   0  0  0  0  0  0  0  0  0  0  0  0
   58.9345   31.7699   50.9338 O   0  0  0  0  0  0  0  0  0  0  0  0
   58.1300   29.5490   51.5106 O   0  0  0  0  0  0  0  0  0  0  0  0
   60.7178   30.0308   51.8513 N   0  0  0  0  0  0  0  0  0  0  0  0
   60.9698   31.1684   52.7500 C   0  0  0  0  0  0  0  0  0  0  0  0
   62.3480   31.0292   53.4296 C   0  0  0  0  0  0  0  0  0  0  0  0
   62.8985   29.7438   53.2127 O   0  0  0  0  0  0  0  0  0  0  0  0
   63.1374   29.5517   51.8290 C   0  0  0  0  0  0  0  0  0  0  0  0
   61.8779   29.8105   50.9762 C   0  0  0  0  0  0  0  0  0  0  0  0
 11 12  2  0
 12 13  1  0
 13 14  1  0
 14 15  2  0
 14 16  1  0
 16 17  1  0
 17 18  2  0
 11  6  1  0
  6  7  1  0
  7  8  1  0
  8  4  1  0
  4  5  2  0
  5  2  1  0
  2  3  2  0
  2  1  1  0
  1 19  1  0
 19 20  1  0
 20 21  1  0
 21 22  2  0
 22 23  1  0
 23 24  2  0
 24 27  1  0
 27 28  2  0
 27 29  2  0
 27 30  1  0
 30 31  1  0
 31 32  1  0
 32 33  1  0
 33 34  1  0
 34 35  1  0
 24 25  1  0
 25 26  2  0
  8  9  2  0
  9 10  1  0
 17 12  1  0
 10  6  2  0
 26 21  1  0
 35 30  1  0
M  CHG 1   1  -1
M  CHG 1  16  -1
M  END
> <UniqueID>
43

> <SMILES>
O=C(/C=C/c1ccc(C=C2SC(=O)[N-]C2=O)o1)[N-]CCc1ccc(S(=O)(=O)N2CCOCC2)cc1

> <Energy>
110.57793351085209

> <Genealogy>
O=C(C=Cc1ccc(C=C2SC(=O)[N-]C2=O)o1)[N-]CCc1ccc(S(=O)(=O)N2CCOCC2)cc1 (protonated)
O=C(/C=C/c1ccc(C=C2SC(=O)[N-]C2=O)o1)[N-]CCc1ccc(S(=O)(=O)N2CCOCC2)cc1 (cis-trans isomerization)
O=C(/C=C/c1ccc(C=C2SC(=O)[N-]C2=O)o1)[N-]CCc1ccc(S(=O)(=O)N2CCOCC2)cc1 (3D coordinates assigned)
O=C(/C=C/c1ccc(C=C2SC(=O)[N-]C2=O)o1)[N-]CCc1ccc(S(=O)(=O)N2CCOCC2)cc1 (nonaromatic ring conformer: 110.57793351085209 kcal/mol)

> <smiles>
O=C(C=Cc1ccc(C=C2SC(=O)NC2=O)o1)NCCc1ccc(S(=O)(=O)N2CCOCC2)cc1

> <score_type>
oracle

> <origin>
adg

> <m_score__min__energy>
-14.84

> <m_primary>
energy

> <minimizedAffinity>
-7.22501

> <minimizedRMSD>
1.11472

> <CNNscore>
0.7930091619

> <CNNaffinity>
7.4158821106

> <CNN_VS>
5.8808622360

> <CNNaffinity_variance>
0.0248938147

$$$$
54:0


 26 27  0  0  0  0  0  0  0  0999 V2000
   59.8104   34.7335   46.4044 S   0  0  0  0  0  0  0  0  0  0  0  0
   62.4491   32.6569   49.5567 C   0  0  0  0  0  0  0  0  0  0  0  0
   62.8041   32.6243   48.2007 C   0  0  0  0  0  0  0  0  0  0  0  0
   62.0040   33.2555   47.2440 C   0  0  0  0  0  0  0  0  0  0  0  0
   60.8463   33.9339   47.6353 C   0  0  0  0  0  0  0  0  0  0  0  0
   60.4794   33.9636   48.9854 C   0  0  0  0  0  0  0  0  0  0  0  0
   61.2789   33.3339   49.9439 C   0  0  0  0  0  0  0  0  0  0  0  0
   63.3010   31.9953   50.5016 N   0  0  0  0  0  0  0  0  0  0  0  0
   64.5771   32.7397   51.4117 S   0  0  0  0  0  0  0  0  0  0  0  0
   64.2426   34.1919   51.6095 O   0  0  0  0  0  0  0  0  0  0  0  0
   64.6908   32.0856   52.7595 O   0  0  0  0  0  0  0  0  0  0  0  0
   66.9264   31.4103   51.0049 C   0  0  0  0  0  0  0  0  0  0  0  0
   66.1282   32.6187   50.5343 C   0  0  0  0  0  0  0  0  0  0  0  0
   58.3142   33.7416   46.7632 C   0  0  0  0  0  0  0  0  0  0  0  0
   57.4134   33.5871   45.5394 C   0  0  0  0  0  0  0  0  0  0  0  0
   57.0658   32.1867   45.3392 N   0  0  0  0  0  0  0  0  0  0  0  0
   57.7788   31.3259   44.4447 C   0  0  0  0  0  0  0  0  0  0  0  0
   58.0035   31.7095   43.2654 O   0  0  0  0  0  0  0  0  0  0  0  0
   58.2428   29.9913   44.9084 C   0  0  0  0  0  0  0  0  0  0  0  0
   59.6207   29.7576   45.0897 C   0  0  0  0  0  0  0  0  0  0  0  0
   60.0830   28.5140   45.5272 C   0  0  0  0  0  0  0  0  0  0  0  0
   59.1791   27.4834   45.7872 C   0  0  0  0  0  0  0  0  0  0  0  0
   57.8106   27.6921   45.6141 C   0  0  0  0  0  0  0  0  0  0  0  0
   56.9185   26.6588   45.8766 O   0  0  0  0  0  0  0  0  0  0  0  0
   57.3361   28.9371   45.1762 C   0  0  0  0  0  0  0  0  0  0  0  0
   55.9645   29.1105   45.0114 O   0  0  0  0  0  0  0  0  0  0  0  0
 12 13  1  0
 13  9  1  0
  9 10  2  0
  9 11  2  0
  9  8  1  0
  8  2  1  0
  2  3  2  0
  3  4  1  0
  4  5  2  0
  5  1  1  0
  1 14  1  0
 14 15  1  0
 15 16  1  0
 16 17  1  0
 17 18  2  0
 17 19  1  0
 19 20  2  0
 20 21  1  0
 21 22  2  0
 22 23  1  0
 23 24  1  0
 23 25  2  0
 25 26  1  0
  5  6  1  0
  6  7  2  0
  7  2  1  0
 25 19  1  0
M  CHG 1   8  -1
M  CHG 1  16  -1
M  CHG 1  24  -1
M  CHG 1  26  -1
M  END
> <UniqueID>
51

> <SMILES>
CCS(=O)(=O)[N-]c1ccc(SCC[N-]C(=O)c2cccc([O-])c2[O-])cc1

> <Energy>
33.23230177958034

> <Genealogy>
CCS(=O)(=O)[N-]c1ccc(SCC[N-]C(=O)c2cccc([O-])c2[O-])cc1 (protonated)
CCS(=O)(=O)[N-]c1ccc(SCC[N-]C(=O)c2cccc([O-])c2[O-])cc1 (3D coordinates assigned)
CCS(=O)(=O)[N-]c1ccc(SCC[N-]C(=O)c2cccc([O-])c2[O-])cc1 (optimized conformer: 33.23230177958034 kcal/mol)

> <smiles>
CCS(=O)(=O)Nc1ccc(SCCNC(=O)c2cccc(O)c2O)cc1

> <score_type>
oracle

> <origin>
adg

> <m_score__min__energy>
-17.07

> <m_primary>
energy

> <minimizedAffinity>
-7.05006

> <minimizedRMSD>
1.05332

> <CNNscore>
0.7805951834

> <CNNaffinity>
6.6516356468

> <CNN_VS>
5.1922345161

> <CNNaffinity_variance>
0.0734690949

$$$$
70:0


 35 38  0  0  0  0  0  0  0  0999 V2000
   61.0699   32.2624   48.8688 C   0  0  0  0  0  0  0  0  0  0  0  0
   61.6970   31.5076   47.8636 C   0  0  0  0  0  0  0  0  0  0  0  0
   60.9394   30.7255   46.9876 C   0  0  0  0  0  0  0  0  0  0  0  0
   59.5411   30.6958   47.0979 C   0  0  0  0  0  0  0  0  0  0  0  0
   58.9108   31.4617   48.0869 C   0  0  0  0  0  0  0  0  0  0  0  0
   59.6673   32.2437   48.9638 C   0  0  0  0  0  0  0  0  0  0  0  0
   65.1144   32.3728   51.8207 N   0  0  0  0  0  0  0  0  0  0  0  0
   64.3570   31.1006   51.7981 C   0  0  0  0  0  0  0  0  0  0  0  0
   63.1276   31.1835   50.8778 C   0  0  0  0  0  0  0  0  0  0  0  0
   62.5244   32.5219   50.9449 N   0  0  0  0  0  0  0  0  0  0  0  0
   61.8773   33.0916   49.7887 C   0  0  0  0  0  0  0  0  0  0  0  0
   62.0189   34.3204   49.5411 O   0  0  0  0  0  0  0  0  0  0  0  0
   62.7829   33.3389   52.1328 C   0  0  0  0  0  0  0  0  0  0  0  0
   64.3014   33.4915   52.3683 C   0  0  0  0  0  0  0  0  0  0  0  0
   65.7319   32.7262   50.5194 C   0  0  0  0  0  0  0  0  0  0  0  0
   67.7919   32.3106   51.6878 O   0  0  0  0  0  0  0  0  0  0  0  0
   67.2221   33.0543   50.6471 C   0  0  0  0  0  0  0  0  0  0  0  0
   68.7350   32.5256   51.7601 H   0  0  0  0  0  0  0  0  0  0  0  0
   58.7632   29.8943   46.1908 N   0  0  0  0  0  0  0  0  0  0  0  0
   58.2245   30.3196   45.0256 C   0  0  0  0  0  0  0  0  0  0  0  0
   58.3430   31.7106   44.4806 C   0  0  0  0  0  0  0  0  0  0  0  0
   57.5236   29.2996   44.4191 C   0  0  0  0  0  0  0  0  0  0  0  0
   57.6672   28.1794   45.2233 C   0  0  0  0  0  0  0  0  0  0  0  0
   57.1543   26.9774   44.8904 C   0  0  0  0  0  0  0  0  0  0  0  0
   58.4150   28.5901   46.3400 C   0  0  0  0  0  0  0  0  0  0  0  0
   58.6593   27.8885   47.4586 C   0  0  0  0  0  0  0  0  0  0  0  0
   57.1147   25.7896   45.7653 C   0  0  0  0  0  0  0  0  0  0  0  0
   55.8929   25.3300   46.2769 C   0  0  0  0  0  0  0  0  0  0  0  0
   54.7121   26.0137   46.0116 O   0  0  0  0  0  0  0  0  0  0  0  0
   55.8574   24.2118   47.0468 N   0  0  0  0  0  0  0  0  0  0  0  0
   56.9896   23.5122   47.3205 C   0  0  0  0  0  0  0  0  0  0  0  0
   56.9335   22.4826   48.0401 O   0  0  0  0  0  0  0  0  0  0  0  0
   58.1815   23.9216   46.8141 N   0  0  0  0  0  0  0  0  0  0  0  0
   58.2687   25.0334   46.0385 C   0  0  0  0  0  0  0  0  0  0  0  0
   59.3874   25.3709   45.5662 O   0  0  0  0  0  0  0  0  0  0  0  0
 16 17  1  0
 17 15  1  0
 15  7  1  0
  7  8  1  0
  8  9  1  0
  9 10  1  0
 10 11  1  0
 11 12  2  0
 11  1  1  0
  1  2  2  0
  2  3  1  0
  3  4  2  0
  4 19  1  0
 19 20  1  0
 20 21  1  0
 20 22  2  0
 22 23  1  0
 23 24  2  0
 24 27  1  0
 27 28  2  0
 28 29  1  0
 28 30  1  0
 30 31  1  0
 31 32  2  0
 31 33  1  0
 33 34  1  0
 34 35  2  0
 23 25  1  0
 25 26  2  0
  4  5  1  0
  5  6  2  0
 10 13  1  0
 13 14  1  0
 14  7  1  0
  6  1  1  0
 25 19  1  0
 34 27  1  0
 16 18  1  0
M  CHG 1  29  -1
M  CHG 1  30  -1
M  CHG 1  33  -1
M  END
> <UniqueID>
67

> <SMILES>
C=c1/c(=C\c2c([O-])[n-]c(=O)[n-]c2=O)cc(C)n1-c1ccc(C(=O)N2CCN(CCO)CC2)cc1

> <Energy>
123.39100099979792

> <Genealogy>
C=c1c(=Cc2c([O-])[n-]c(=O)[n-]c2=O)cc(C)n1-c1ccc(C(=O)N2CCN(CCO)CC2)cc1 (protonated)
C=c1/c(=C\c2c([O-])[n-]c(=O)[n-]c2=O)cc(C)n1-c1ccc(C(=O)N2CCN(CCO)CC2)cc1 (cis-trans isomerization)
C=c1/c(=C\c2c([O-])[n-]c(=O)[n-]c2=O)cc(C)n1-c1ccc(C(=O)N2CCN(CCO)CC2)cc1 (3D coordinates assigned)
C=c1/c(=C\c2c([O-])[n-]c(=O)[n-]c2=O)cc(C)n1-c1ccc(C(=O)N2CCN(CCO)CC2)cc1 (nonaromatic ring conformer: 123.39100099979792 kcal/mol)

> <smiles>
C=c1c(=Cc2c(O)[nH]c(=O)[nH]c2=O)cc(C)n1-c1ccc(C(=O)N2CCN(CCO)CC2)cc1

> <score_type>
oracle

> <origin>
adg

> <m_score__min__energy>
-15.51

> <m_primary>
energy

> <minimizedAffinity>
-7.53556

> <minimizedRMSD>
0.96253

> <CNNscore>
0.1512657702

> <CNNaffinity>
6.7064375877

> <CNN_VS>
1.0144544840

> <CNNaffinity_variance>
0.2246348858

$$$$
79:0


 30 32  0  0  0  0  0  0  0  0999 V2000
   57.8278   30.6042   43.7511 C   0  0  0  0  0  0  0  0  0  0  0  0
   58.2529   30.5413   45.0222 C   0  0  0  0  0  0  0  0  0  0  0  0
   58.7692   29.4311   45.7107 C   0  0  0  0  0  0  0  0  0  0  0  0
   59.0614   28.1822   45.2909 C   0  0  0  0  0  0  0  0  0  0  0  0
   58.9640   29.9011   47.0092 C   0  0  0  0  0  0  0  0  0  0  0  0
   59.6271   29.1831   48.1430 C   0  0  0  0  0  0  0  0  0  0  0  0
   58.6296   31.2013   47.0788 N   0  0  0  0  0  0  0  0  0  0  0  0
   58.1975   31.5846   45.8891 N   0  0  0  0  0  0  0  0  0  0  0  0
   58.4470   26.9438   45.8009 C   0  0  0  0  0  0  0  0  0  0  0  0
   57.0541   26.7603   45.7652 C   0  0  0  0  0  0  0  0  0  0  0  0
   56.2181   27.7629   45.2900 O   0  0  0  0  0  0  0  0  0  0  0  0
   56.5151   25.5909   46.1967 N   0  0  0  0  0  0  0  0  0  0  0  0
   57.3026   24.5821   46.6517 C   0  0  0  0  0  0  0  0  0  0  0  0
   56.7826   23.5078   47.0478 O   0  0  0  0  0  0  0  0  0  0  0  0
   58.6533   24.7290   46.6736 N   0  0  0  0  0  0  0  0  0  0  0  0
   59.2393   25.8801   46.2538 C   0  0  0  0  0  0  0  0  0  0  0  0
   60.4944   25.9812   46.2837 O   0  0  0  0  0  0  0  0  0  0  0  0
   57.7203   32.9519   45.6428 C   0  0  0  0  0  0  0  0  0  0  0  0
   58.1635   33.9285   46.7427 C   0  0  0  0  0  0  0  0  0  0  0  0
   59.6155   34.2921   46.6351 C   0  0  0  0  0  0  0  0  0  0  0  0
   59.9422   35.4232   46.1852 O   0  0  0  0  0  0  0  0  0  0  0  0
   60.6199   33.3440   47.0224 N   0  0  0  0  0  0  0  0  0  0  0  0
   60.3334   32.4586   47.3437 H   0  0  0  0  0  0  0  0  0  0  0  0
   62.0476   33.6360   46.9606 C   0  0  0  0  0  0  0  0  0  0  0  0
   62.6607   33.5030   48.3258 C   0  0  0  0  0  0  0  0  0  0  0  0
   63.9288   32.9143   48.4721 C   0  0  0  0  0  0  0  0  0  0  0  0
   64.4887   32.7574   49.7440 C   0  0  0  0  0  0  0  0  0  0  0  0
   63.7893   33.1872   50.8747 C   0  0  0  0  0  0  0  0  0  0  0  0
   62.5423   33.8028   50.7325 C   0  0  0  0  0  0  0  0  0  0  0  0
   61.9805   33.9657   49.4636 C   0  0  0  0  0  0  0  0  0  0  0  0
  1  2  2  0
  2  3  1  0
  3  4  2  0
  4  9  1  0
  9 10  2  0
 10 11  1  0
 10 12  1  0
 12 13  1  0
 13 14  2  0
 13 15  1  0
 15 16  1  0
 16 17  2  0
  3  5  1  0
  5  6  1  0
  5  7  2  0
  7  8  1  0
  8 18  1  0
 18 19  1  0
 19 20  1  0
 20 21  2  0
 20 22  1  0
 22 24  1  0
 24 25  1  0
 25 26  2  0
 26 27  1  0
 27 28  2  0
 28 29  1  0
 29 30  2  0
  8  2  1  0
 30 25  1  0
 16  9  1  0
 22 23  1  0
M  CHG 1  11  -1
M  CHG 1  12  -1
M  CHG 1  15  -1
M  END
> <UniqueID>
76

> <SMILES>
C=c1/c(=C\c2c([O-])[n-]c(=O)[n-]c2=O)c(C)nn1CCC(=O)NCc1ccccc1

> <Energy>
85.732488373836

> <Genealogy>
C=c1c(=Cc2c([O-])[n-]c(=O)[n-]c2=O)c(C)nn1CCC(=O)NCc1ccccc1 (protonated)
C=c1/c(=C\c2c([O-])[n-]c(=O)[n-]c2=O)c(C)nn1CCC(=O)NCc1ccccc1 (cis-trans isomerization)
C=c1/c(=C\c2c([O-])[n-]c(=O)[n-]c2=O)c(C)nn1CCC(=O)NCc1ccccc1 (3D coordinates assigned)
C=c1/c(=C\c2c([O-])[n-]c(=O)[n-]c2=O)c(C)nn1CCC(=O)NCc1ccccc1 (optimized conformer: 85.732488373836 kcal/mol)

> <smiles>
C=c1c(=Cc2c(O)[nH]c(=O)[nH]c2=O)c(C)nn1CCC(=O)NCc1ccccc1

> <score_type>
oracle

> <origin>
adg

> <m_score__min__energy>
-16.68

> <m_primary>
energy

> <minimizedAffinity>
-7.16583

> <minimizedRMSD>
0.87792

> <CNNscore>
0.1182124019

> <CNNaffinity>
6.0145015717

> <CNN_VS>
0.7109887004

> <CNNaffinity_variance>
0.0415843539

$$$$
83:0


 32 35  0  0  0  0  0  0  0  0999 V2000
   59.9390   26.4144   47.5120 C   0  0  0  0  0  0  0  0  0  0  0  0
   59.0811   26.9630   46.6363 C   0  0  0  0  0  0  0  0  0  0  0  0
   58.2995   26.2801   45.7000 C   0  0  0  0  0  0  0  0  0  0  0  0
   58.2095   24.9466   45.5247 C   0  0  0  0  0  0  0  0  0  0  0  0
   57.5926   27.2493   44.9989 C   0  0  0  0  0  0  0  0  0  0  0  0
   57.9647   28.4690   45.5289 C   0  0  0  0  0  0  0  0  0  0  0  0
   57.4435   29.7944   45.0639 C   0  0  0  0  0  0  0  0  0  0  0  0
   58.8740   28.2978   46.5143 N   0  0  0  0  0  0  0  0  0  0  0  0
   56.9415   24.1937   45.6441 C   0  0  0  0  0  0  0  0  0  0  0  0
   56.3686   23.9055   46.8951 C   0  0  0  0  0  0  0  0  0  0  0  0
   56.9811   24.3229   48.0722 O   0  0  0  0  0  0  0  0  0  0  0  0
   55.1913   23.2320   46.9639 N   0  0  0  0  0  0  0  0  0  0  0  0
   54.5410   22.8408   45.8384 C   0  0  0  0  0  0  0  0  0  0  0  0
   53.4542   22.2136   45.9264 O   0  0  0  0  0  0  0  0  0  0  0  0
   55.0588   23.1317   44.6172 N   0  0  0  0  0  0  0  0  0  0  0  0
   56.2344   23.8017   44.4957 C   0  0  0  0  0  0  0  0  0  0  0  0
   56.6836   24.0583   43.3465 O   0  0  0  0  0  0  0  0  0  0  0  0
   59.4745   29.3450   47.2947 C   0  0  0  0  0  0  0  0  0  0  0  0
   58.9354   29.6860   48.5421 C   0  0  0  0  0  0  0  0  0  0  0  0
   59.5075   30.7086   49.3011 C   0  0  0  0  0  0  0  0  0  0  0  0
   60.6268   31.4109   48.8208 C   0  0  0  0  0  0  0  0  0  0  0  0
   61.1713   31.0574   47.5738 C   0  0  0  0  0  0  0  0  0  0  0  0
   60.5972   30.0346   46.8140 C   0  0  0  0  0  0  0  0  0  0  0  0
   61.1445   29.7011   45.6184 F   0  0  0  0  0  0  0  0  0  0  0  0
   61.2290   32.4550   49.6100 N   0  0  0  0  0  0  0  0  0  0  0  0
   61.2238   32.4020   51.0751 C   0  0  0  0  0  0  0  0  0  0  0  0
   62.6596   32.5164   51.6254 C   0  0  0  0  0  0  0  0  0  0  0  0
   63.5758   33.3137   50.7610 N   0  0  0  0  0  0  0  0  0  0  0  0
   64.4573   32.4427   49.9588 C   0  0  0  0  0  0  0  0  0  0  0  0
   62.8583   34.2915   49.9088 C   0  0  0  0  0  0  0  0  0  0  0  0
   61.8657   33.6027   48.9551 C   0  0  0  0  0  0  0  0  0  0  0  0
   64.1634   33.8589   51.3918 H   0  0  0  0  0  0  0  0  0  0  0  0
  1  2  2  0
  2  3  1  0
  3  4  2  0
  4  9  1  0
  9 10  2  0
 10 11  1  0
 10 12  1  0
 12 13  1  0
 13 14  2  0
 13 15  1  0
 15 16  1  0
 16 17  2  0
  3  5  1  0
  5  6  2  0
  6  7  1  0
  6  8  1  0
  8 18  1  0
 18 19  2  0
 19 20  1  0
 20 21  2  0
 21 25  1  0
 25 26  1  0
 26 27  1  0
 27 28  1  0
 28 29  1  0
 28 30  1  0
 30 31  1  0
 21 22  1  0
 22 23  2  0
 23 24  1  0
  8  2  1  0
 23 18  1  0
 16  9  1  0
 31 25  1  0
 28 32  1  0
M  CHG 1  11  -1
M  CHG 1  12  -1
M  CHG 1  15  -1
M  CHG 1  28   1
M  END
> <UniqueID>
80

> <SMILES>
C=c1/c(=C/c2c([O-])[n-]c(=O)[n-]c2=O)cc(C)n1-c1ccc(N2CC[NH+](C)CC2)cc1F

> <Energy>
113.13711588365959

> <Genealogy>
C=c1c(=Cc2c([O-])[n-]c(=O)[n-]c2=O)cc(C)n1-c1ccc(N2CC[NH+](C)CC2)cc1F (protonated)
C=c1/c(=C/c2c([O-])[n-]c(=O)[n-]c2=O)cc(C)n1-c1ccc(N2CC[NH+](C)CC2)cc1F (cis-trans isomerization)
C=c1/c(=C/c2c([O-])[n-]c(=O)[n-]c2=O)cc(C)n1-c1ccc(N2CC[NH+](C)CC2)cc1F (3D coordinates assigned)
C=c1/c(=C/c2c([O-])[n-]c(=O)[n-]c2=O)cc(C)n1-c1ccc(N2CC[NH+](C)CC2)cc1F (nonaromatic ring conformer: 113.13711588365959 kcal/mol)

> <smiles>
C=c1c(=Cc2c(O)[nH]c(=O)[nH]c2=O)cc(C)n1-c1ccc(N2CCN(C)CC2)cc1F

> <score_type>
oracle

> <origin>
adg

> <m_score__min__energy>
-14.539999999999999

> <m_primary>
energy

> <minimizedAffinity>
-8.54338

> <minimizedRMSD>
1.35882

> <CNNscore>
0.0747433826

> <CNNaffinity>
6.0756664276

> <CNN_VS>
0.4541158676

> <CNNaffinity_variance>
0.0442426801

$$$$
84:0


 30 33  0  0  0  0  0  0  0  0999 V2000
   55.1983   31.1362   51.9610 C   0  0  0  0  0  0  0  0  0  0  0  0
   55.1780   30.4115   53.0913 C   0  0  0  0  0  0  0  0  0  0  0  0
   54.0480   30.0068   53.8217 C   0  0  0  0  0  0  0  0  0  0  0  0
   52.7342   30.0586   53.5211 C   0  0  0  0  0  0  0  0  0  0  0  0
   54.5224   29.4883   55.0152 C   0  0  0  0  0  0  0  0  0  0  0  0
   55.8995   29.5239   54.9476 C   0  0  0  0  0  0  0  0  0  0  0  0
   56.8183   29.0385   56.0271 C   0  0  0  0  0  0  0  0  0  0  0  0
   56.2982   30.0869   53.7855 N   0  0  0  0  0  0  0  0  0  0  0  0
   52.1687   30.2996   52.1850 C   0  0  0  0  0  0  0  0  0  0  0  0
   52.3238   29.4577   51.1495 N   0  0  0  0  0  0  0  0  0  0  0  0
   51.7652   30.1267   50.1166 C   0  0  0  0  0  0  0  0  0  0  0  0
   51.7016   29.6481   48.9545 O   0  0  0  0  0  0  0  0  0  0  0  0
   51.2929   31.3531   50.4245 N   0  0  0  0  0  0  0  0  0  0  0  0
   51.5686   31.4549   51.7341 C   0  0  0  0  0  0  0  0  0  0  0  0
   51.3037   32.5878   52.4933 O   0  0  0  0  0  0  0  0  0  0  0  0
   57.6607   30.3176   53.3866 C   0  0  0  0  0  0  0  0  0  0  0  0
   58.2544   29.4944   52.4210 C   0  0  0  0  0  0  0  0  0  0  0  0
   59.5806   29.7033   52.0358 C   0  0  0  0  0  0  0  0  0  0  0  0
   60.3284   30.7430   52.6091 C   0  0  0  0  0  0  0  0  0  0  0  0
   59.7318   31.5695   53.5739 C   0  0  0  0  0  0  0  0  0  0  0  0
   58.4046   31.3603   53.9592 C   0  0  0  0  0  0  0  0  0  0  0  0
   57.8367   32.1837   54.8763 F   0  0  0  0  0  0  0  0  0  0  0  0
   61.7749   30.9559   52.2194 C   0  0  0  0  0  0  0  0  0  0  0  0
   61.9021   31.6452   50.9126 N   0  0  0  0  0  0  0  0  0  0  0  0
   61.5081   33.0764   51.0281 C   0  0  0  0  0  0  0  0  0  0  0  0
   60.0815   33.3217   50.5038 C   0  0  0  0  0  0  0  0  0  0  0  0
   59.9125   32.9737   49.1373 O   0  0  0  0  0  0  0  0  0  0  0  0
   60.7426   31.8971   48.7159 C   0  0  0  0  0  0  0  0  0  0  0  0
   61.1345   30.9387   49.8534 C   0  0  0  0  0  0  0  0  0  0  0  0
   62.8830   31.6213   50.6337 H   0  0  0  0  0  0  0  0  0  0  0  0
  1  2  2  0
  2  3  1  0
  3  4  2  0
  4  9  1  0
  9 10  1  0
 10 11  1  0
 11 12  2  0
 11 13  1  0
 13 14  1  0
 14 15  1  0
  3  5  1  0
  5  6  2  0
  6  7  1  0
  6  8  1  0
  8 16  1  0
 16 17  2  0
 17 18  1  0
 18 19  2  0
 19 23  1  0
 23 24  1  0
 24 25  1  0
 25 26  1  0
 26 27  1  0
 27 28  1  0
 28 29  1  0
 19 20  1  0
 20 21  2  0
 21 22  1  0
  8  2  1  0
 21 16  1  0
 14  9  2  0
 29 24  1  0
 24 30  1  0
M  CHG 1  10  -1
M  CHG 1  13  -1
M  CHG 1  15  -1
M  CHG 1  24   1
M  END
> <UniqueID>
81

> <SMILES>
C=c1/c(=C\c2[n-]c(=O)[n-]c2[O-])cc(C)n1-c1ccc(C[NH+]2CCOCC2)cc1F

> <Energy>
143.89271510900244

> <Genealogy>
C=c1c(=Cc2[n-]c(=O)[n-]c2[O-])cc(C)n1-c1ccc(C[NH+]2CCOCC2)cc1F (protonated)
C=c1/c(=C\c2[n-]c(=O)[n-]c2[O-])cc(C)n1-c1ccc(C[NH+]2CCOCC2)cc1F (cis-trans isomerization)
C=c1/c(=C\c2[n-]c(=O)[n-]c2[O-])cc(C)n1-c1ccc(C[NH+]2CCOCC2)cc1F (3D coordinates assigned)
C=c1/c(=C\c2[n-]c(=O)[n-]c2[O-])cc(C)n1-c1ccc(C[NH+]2CCOCC2)cc1F (nonaromatic ring conformer: 143.89271510900244 kcal/mol)

> <smiles>
C=c1c(=Cc2[nH]c(=O)[nH]c2O)cc(C)n1-c1ccc(CN2CCOCC2)cc1F

> <score_type>
oracle

> <origin>
adg

> <m_score__min__energy>
-14.609999999999999

> <m_primary>
energy

> <minimizedAffinity>
-4.78050

> <minimizedRMSD>
0.96276

> <CNNscore>
0.0393938236

> <CNNaffinity>
4.7338805199

> <CNN_VS>
0.1864856482

> <CNNaffinity_variance>
0.1995722055

$$$$
86:0


 24 25  0  0  0  0  0  0  0  0999 V2000
   57.7354   28.4195   44.4919 C   0  0  0  0  0  0  0  0  0  0  0  0
   56.9479   29.6987   44.4331 C   0  0  0  0  0  0  0  0  0  0  0  0
   55.7163   29.6664   44.6921 O   0  0  0  0  0  0  0  0  0  0  0  0
   57.5533   30.9632   44.1253 N   0  0  0  0  0  0  0  0  0  0  0  0
   59.3986   33.5689   46.9297 C   0  0  0  0  0  0  0  0  0  0  0  0
   59.2790   32.1911   47.1951 C   0  0  0  0  0  0  0  0  0  0  0  0
   58.6623   31.3466   46.2670 C   0  0  0  0  0  0  0  0  0  0  0  0
   58.1795   31.8565   45.0573 C   0  0  0  0  0  0  0  0  0  0  0  0
   58.2705   33.2339   44.8050 C   0  0  0  0  0  0  0  0  0  0  0  0
   58.8855   34.0805   45.7317 C   0  0  0  0  0  0  0  0  0  0  0  0
   60.8068   34.0567   48.9376 C   0  0  0  0  0  0  0  0  0  0  0  0
   60.0134   34.4575   47.8253 O   0  0  0  0  0  0  0  0  0  0  0  0
   57.5772   27.7918   45.7967 N   0  0  0  0  0  0  0  0  0  0  0  0
   57.1020   26.4544   45.9651 C   0  0  0  0  0  0  0  0  0  0  0  0
   55.8750   26.2331   46.1568 O   0  0  0  0  0  0  0  0  0  0  0  0
   58.0570   25.3060   45.8643 C   0  0  0  0  0  0  0  0  0  0  0  0
   57.6187   24.1804   46.6864 N   0  0  0  0  0  0  0  0  0  0  0  0
   57.1513   22.9024   46.2271 C   0  0  0  0  0  0  0  0  0  0  0  0
   57.0526   21.9678   47.0650 O   0  0  0  0  0  0  0  0  0  0  0  0
   56.7379   22.6426   44.8362 C   0  0  0  0  0  0  0  0  0  0  0  0
   57.2440   21.7165   43.9495 C   0  0  0  0  0  0  0  0  0  0  0  0
   56.5086   21.7958   42.8263 N   0  0  0  0  0  0  0  0  0  0  0  0
   55.5896   22.7278   43.0297 N   0  0  0  0  0  0  0  0  0  0  0  0
   55.6971   23.2514   44.2430 N   0  0  0  0  0  0  0  0  0  0  0  0
 11 12  1  0
 12  5  1  0
  5  6  2  0
  6  7  1  0
  7  8  2  0
  8  4  1  0
  4  2  1  0
  2  3  2  0
  2  1  1  0
  1 13  1  0
 13 14  1  0
 14 15  2  0
 14 16  1  0
 16 17  1  0
 17 18  1  0
 18 19  2  0
 18 20  1  0
 20 21  2  0
 21 22  1  0
 22 23  1  0
 23 24  2  0
  8  9  1  0
  9 10  2  0
 10  5  1  0
 24 20  1  0
M  CHG 1   4  -1
M  CHG 1  13  -1
M  CHG 1  17  -1
M  CHG 1  22  -1
M  END
> <UniqueID>
83

> <SMILES>
COc1ccc([N-]C(=O)C[N-]C(=O)C[N-]C(=O)c2c[n-]nn2)cc1

> <Energy>
72.20766421976911

> <Genealogy>
COc1ccc([N-]C(=O)C[N-]C(=O)C[N-]C(=O)c2c[n-]nn2)cc1 (protonated)
COc1ccc([N-]C(=O)C[N-]C(=O)C[N-]C(=O)c2c[n-]nn2)cc1 (3D coordinates assigned)
COc1ccc([N-]C(=O)C[N-]C(=O)C[N-]C(=O)c2c[n-]nn2)cc1 (optimized conformer: 72.20766421976911 kcal/mol)

> <smiles>
COc1ccc(NC(=O)CNC(=O)CNC(=O)c2c[nH]nn2)cc1

> <score_type>
oracle

> <origin>
adg

> <m_score__min__energy>
-14.619999999999999

> <m_primary>
energy

> <minimizedAffinity>
-7.10430

> <minimizedRMSD>
0.65262

> <CNNscore>
0.5599763989

> <CNNaffinity>
6.4448089600

> <CNN_VS>
3.6089408398

> <CNNaffinity_variance>
0.3719098568

$$$$
0:0


 32 35  0  0  0  0  0  0  0  0999 V2000
   59.1602   31.4829   46.3966 C   0  0  0  0  0  0  0  0  0  0  0  0
   60.4607   31.7797   46.8282 C   0  0  0  0  0  0  0  0  0  0  0  0
   60.8156   33.0933   47.1825 C   0  0  0  0  0  0  0  0  0  0  0  0
   59.8549   34.1127   47.0694 C   0  0  0  0  0  0  0  0  0  0  0  0
   58.5591   33.8205   46.6367 C   0  0  0  0  0  0  0  0  0  0  0  0
   58.2086   32.5093   46.3034 C   0  0  0  0  0  0  0  0  0  0  0  0
   56.9525   32.2413   45.8678 F   0  0  0  0  0  0  0  0  0  0  0  0
   62.1878   33.4093   47.6388 C   0  0  0  0  0  0  0  0  0  0  0  0
   63.0595   33.7399   46.7879 O   0  0  0  0  0  0  0  0  0  0  0  0
   62.5518   33.3453   49.0321 N   0  0  0  0  0  0  0  0  0  0  0  0
   63.9539   33.1985   49.4434 C   0  0  0  0  0  0  0  0  0  0  0  0
   64.1043   32.0530   50.4044 C   0  0  0  0  0  0  0  0  0  0  0  0
   65.2534   31.6027   50.6548 O   0  0  0  0  0  0  0  0  0  0  0  0
   62.9652   31.5112   51.0878 N   0  0  0  0  0  0  0  0  0  0  0  0
   61.5961   31.8252   50.6804 C   0  0  0  0  0  0  0  0  0  0  0  0
   61.5189   33.2198   50.0652 C   0  0  0  0  0  0  0  0  0  0  0  0
   63.1095   30.9101   51.8539 H   0  0  0  0  0  0  0  0  0  0  0  0
   59.3201   29.0694   48.1262 C   0  0  0  0  0  0  0  0  0  0  0  0
   58.8755   29.0418   46.8607 C   0  0  0  0  0  0  0  0  0  0  0  0
   58.4272   27.9160   46.1607 C   0  0  0  0  0  0  0  0  0  0  0  0
   58.3825   26.6435   46.6030 C   0  0  0  0  0  0  0  0  0  0  0  0
   58.0910   28.3582   44.8871 C   0  0  0  0  0  0  0  0  0  0  0  0
   58.3235   29.7188   44.8656 C   0  0  0  0  0  0  0  0  0  0  0  0
   58.1152   30.6011   43.6726 C   0  0  0  0  0  0  0  0  0  0  0  0
   58.8086   30.1320   46.0569 N   0  0  0  0  0  0  0  0  0  0  0  0
   57.6548   25.5599   45.9224 C   0  0  0  0  0  0  0  0  0  0  0  0
   58.2598   24.4722   45.4106 N   0  0  0  0  0  0  0  0  0  0  0  0
   57.2294   23.7177   44.9693 C   0  0  0  0  0  0  0  0  0  0  0  0
   57.3975   22.6058   44.4048 O   0  0  0  0  0  0  0  0  0  0  0  0
   56.0057   24.2434   45.1902 N   0  0  0  0  0  0  0  0  0  0  0  0
   56.2908   25.4032   45.8050 C   0  0  0  0  0  0  0  0  0  0  0  0
   55.3205   26.2716   46.2902 O   0  0  0  0  0  0  0  0  0  0  0  0
 18 19  2  0
 19 20  1  0
 20 21  2  0
 21 26  1  0
 26 27  1  0
 27 28  1  0
 28 29  2  0
 28 30  1  0
 30 31  1  0
 31 32  1  0
 20 22  1  0
 22 23  2  0
 23 24  1  0
 23 25  1  0
 25  1  1  0
  1  2  2  0
  2  3  1  0
  3  8  1  0
  8  9  2  0
  8 10  1  0
 10 11  1  0
 11 12  1  0
 12 13  2  0
 12 14  1  0
 14 15  1  0
 15 16  1  0
  3  4  2  0
  4  5  1  0
  5  6  2  0
  6  7  1  0
 25 19  1  0
  6  1  1  0
 31 26  2  0
 16 10  1  0
 14 17  1  0
M  CHG 1  27  -1
M  CHG 1  30  -1
M  CHG 1  32  -1
M  END
> <UniqueID>
1

> <SMILES>
C=c1/c(=C/c2[n-]c(=O)[n-]c2[O-])cc(C)n1-c1cc(C(=O)N2CCNC(=O)C2)ccc1F

> <Energy>
126.50287221491715

> <Genealogy>
C=c1c(=Cc2[n-]c(=O)[n-]c2[O-])cc(C)n1-c1cc(C(=O)N2CCNC(=O)C2)ccc1F (protonated)
C=c1/c(=C/c2[n-]c(=O)[n-]c2[O-])cc(C)n1-c1cc(C(=O)N2CCNC(=O)C2)ccc1F (cis-trans isomerization)
C=c1/c(=C/c2[n-]c(=O)[n-]c2[O-])cc(C)n1-c1cc(C(=O)N2CCNC(=O)C2)ccc1F (3D coordinates assigned)
C=c1/c(=C/c2[n-]c(=O)[n-]c2[O-])cc(C)n1-c1cc(C(=O)N2CCNC(=O)C2)ccc1F (nonaromatic ring conformer: 126.50287221491715 kcal/mol)

> <smiles>
C=c1c(=Cc2[nH]c(=O)[nH]c2O)cc(C)n1-c1cc(C(=O)N2CCNC(=O)C2)ccc1F

> <score_type>
oracle

> <origin>
adg

> <m_score__min__energy>
-16.289999999999999

> <m_primary>
energy

> <minimizedAffinity>
-9.12611

> <minimizedRMSD>
1.06441

> <CNNscore>
0.4253489971

> <CNNaffinity>
7.3151021004

> <CNN_VS>
3.1114714146

> <CNNaffinity_variance>
0.2038679719

$$$$
3:0


 24 26  0  0  0  0  0  0  0  0999 V2000
   60.1698   29.9158   47.9869 C   0  0  0  0  0  0  0  0  0  0  0  0
   59.4775   30.6833   47.1278 C   0  0  0  0  0  0  0  0  0  0  0  0
   59.1784   30.3607   45.7999 C   0  0  0  0  0  0  0  0  0  0  0  0
   59.4869   29.2247   45.1430 C   0  0  0  0  0  0  0  0  0  0  0  0
   58.5654   31.4788   45.2575 C   0  0  0  0  0  0  0  0  0  0  0  0
   58.4911   32.4203   46.2635 C   0  0  0  0  0  0  0  0  0  0  0  0
   57.9923   33.8203   46.0655 C   0  0  0  0  0  0  0  0  0  0  0  0
   59.0118   31.9291   47.4165 N   0  0  0  0  0  0  0  0  0  0  0  0
   58.8635   27.9175   45.4194 C   0  0  0  0  0  0  0  0  0  0  0  0
   59.5622   26.8365   45.8095 N   0  0  0  0  0  0  0  0  0  0  0  0
   58.6057   25.9087   46.0294 C   0  0  0  0  0  0  0  0  0  0  0  0
   58.8718   24.7370   46.4031 O   0  0  0  0  0  0  0  0  0  0  0  0
   57.3422   26.3382   45.8296 N   0  0  0  0  0  0  0  0  0  0  0  0
   57.5200   27.6155   45.4558 C   0  0  0  0  0  0  0  0  0  0  0  0
   56.4743   28.4940   45.2006 O   0  0  0  0  0  0  0  0  0  0  0  0
   59.1236   32.6572   48.6928 C   0  0  0  0  0  0  0  0  0  0  0  0
   60.3931   33.5522   48.7925 C   0  0  0  0  0  0  0  0  0  0  0  0
   61.5748   32.9881   49.4965 N   0  0  0  0  0  0  0  0  0  0  0  0
   61.6408   33.3623   50.9260 C   0  0  0  0  0  0  0  0  0  0  0  0
   62.4747   32.3523   51.7391 C   0  0  0  0  0  0  0  0  0  0  0  0
   63.8360   31.5687   50.7859 S   0  0  0  0  0  0  0  0  0  0  0  0
   64.0983   32.9619   49.6416 C   0  0  0  0  0  0  0  0  0  0  0  0
   62.8518   33.2298   48.7769 C   0  0  0  0  0  0  0  0  0  0  0  0
   61.4359   31.9777   49.4856 H   0  0  0  0  0  0  0  0  0  0  0  0
  1  2  2  0
  2  3  1  0
  3  4  2  0
  4  9  1  0
  9 10  1  0
 10 11  1  0
 11 12  2  0
 11 13  1  0
 13 14  1  0
 14 15  1  0
  3  5  1  0
  5  6  2  0
  6  7  1  0
  6  8  1  0
  8 16  1  0
 16 17  1  0
 17 18  1  0
 18 19  1  0
 19 20  1  0
 20 21  1  0
 21 22  1  0
 22 23  1  0
  8  2  1  0
 23 18  1  0
 14  9  2  0
 18 24  1  0
M  CHG 1  10  -1
M  CHG 1  13  -1
M  CHG 1  15  -1
M  CHG 1  18   1
M  END
> <UniqueID>
4

> <SMILES>
C=c1/c(=C/c2[n-]c(=O)[n-]c2[O-])cc(C)n1CC[NH+]1CCSCC1

> <Energy>
119.47117728895894

> <Genealogy>
C=c1c(=Cc2[n-]c(=O)[n-]c2[O-])cc(C)n1CC[NH+]1CCSCC1 (protonated)
C=c1/c(=C/c2[n-]c(=O)[n-]c2[O-])cc(C)n1CC[NH+]1CCSCC1 (cis-trans isomerization)
C=c1/c(=C/c2[n-]c(=O)[n-]c2[O-])cc(C)n1CC[NH+]1CCSCC1 (3D coordinates assigned)
C=c1/c(=C/c2[n-]c(=O)[n-]c2[O-])cc(C)n1CC[NH+]1CCSCC1 (nonaromatic ring conformer: 119.47117728895894 kcal/mol)

> <smiles>
C=c1c(=Cc2[nH]c(=O)[nH]c2O)cc(C)n1CCN1CCSCC1

> <score_type>
oracle

> <origin>
adg

> <m_score__min__energy>
-14.34

> <m_primary>
energy

> <minimizedAffinity>
-6.33048

> <minimizedRMSD>
1.81886

> <CNNscore>
0.1755092144

> <CNNaffinity>
6.2207794189

> <CNN_VS>
1.0918041468

> <CNNaffinity_variance>
0.1839630157

$$$$
9:0


 29 32  0  0  0  0  0  0  0  0999 V2000
   56.5871   29.3314   44.6698 C   0  0  0  0  0  0  0  0  0  0  0  0
   57.8052   28.8796   45.0072 C   0  0  0  0  0  0  0  0  0  0  0  0
   58.3220   27.5914   44.7953 C   0  0  0  0  0  0  0  0  0  0  0  0
   57.7321   26.4518   44.3804 C   0  0  0  0  0  0  0  0  0  0  0  0
   59.6748   27.6680   45.0844 C   0  0  0  0  0  0  0  0  0  0  0  0
   59.9273   28.9562   45.5047 C   0  0  0  0  0  0  0  0  0  0  0  0
   61.2922   29.4670   45.8599 C   0  0  0  0  0  0  0  0  0  0  0  0
   58.7906   29.6880   45.4791 N   0  0  0  0  0  0  0  0  0  0  0  0
   57.2592   25.3530   45.2364 C   0  0  0  0  0  0  0  0  0  0  0  0
   57.9641   24.2290   45.4517 N   0  0  0  0  0  0  0  0  0  0  0  0
   57.2347   23.5738   46.3808 C   0  0  0  0  0  0  0  0  0  0  0  0
   57.5692   22.4489   46.8355 O   0  0  0  0  0  0  0  0  0  0  0  0
   56.1259   24.2246   46.7933 N   0  0  0  0  0  0  0  0  0  0  0  0
   56.1640   25.3559   46.0719 C   0  0  0  0  0  0  0  0  0  0  0  0
   55.2285   26.3754   46.1907 O   0  0  0  0  0  0  0  0  0  0  0  0
   58.6656   31.0800   45.8324 C   0  0  0  0  0  0  0  0  0  0  0  0
   58.3444   32.0257   44.8435 C   0  0  0  0  0  0  0  0  0  0  0  0
   58.2017   31.6401   43.5512 F   0  0  0  0  0  0  0  0  0  0  0  0
   58.1429   33.3638   45.1891 C   0  0  0  0  0  0  0  0  0  0  0  0
   58.2441   33.7679   46.5223 C   0  0  0  0  0  0  0  0  0  0  0  0
   58.5574   32.8370   47.5154 C   0  0  0  0  0  0  0  0  0  0  0  0
   58.7840   31.4941   47.1788 C   0  0  0  0  0  0  0  0  0  0  0  0
   59.1361   30.5313   48.2374 C   0  0  0  0  0  0  0  0  0  0  0  0
   58.4152   29.5112   48.4102 O   0  0  0  0  0  0  0  0  0  0  0  0
   60.2942   30.7371   49.0578 N   0  0  0  0  0  0  0  0  0  0  0  0
   60.7380   32.0442   49.5031 C   0  0  0  0  0  0  0  0  0  0  0  0
   62.0462   31.7983   50.2390 C   0  0  0  0  0  0  0  0  0  0  0  0
   62.0518   30.3107   50.5862 C   0  0  0  0  0  0  0  0  0  0  0  0
   61.0833   29.6527   49.6119 C   0  0  0  0  0  0  0  0  0  0  0  0
  1  2  2  0
  2  3  1  0
  3  4  2  0
  4  9  1  0
  9 10  1  0
 10 11  1  0
 11 12  2  0
 11 13  1  0
 13 14  1  0
 14 15  1  0
  3  5  1  0
  5  6  2  0
  6  7  1  0
  6  8  1  0
  8 16  1  0
 16 17  2  0
 17 18  1  0
 17 19  1  0
 19 20  2  0
 20 21  1  0
 21 22  2  0
 22 23  1  0
 23 24  2  0
 23 25  1  0
 25 26  1  0
 26 27  1  0
 27 28  1  0
 28 29  1  0
  8  2  1  0
 22 16  1  0
 29 25  1  0
 14  9  2  0
M  CHG 1  10  -1
M  CHG 1  13  -1
M  CHG 1  15  -1
M  END
> <UniqueID>
10

> <SMILES>
C=c1/c(=C\c2[n-]c(=O)[n-]c2[O-])cc(C)n1-c1c(F)cccc1C(=O)N1CCCC1

> <Energy>
129.98727658588248

> <Genealogy>
C=c1c(=Cc2[n-]c(=O)[n-]c2[O-])cc(C)n1-c1c(F)cccc1C(=O)N1CCCC1 (protonated)
C=c1/c(=C\c2[n-]c(=O)[n-]c2[O-])cc(C)n1-c1c(F)cccc1C(=O)N1CCCC1 (cis-trans isomerization)
C=c1/c(=C\c2[n-]c(=O)[n-]c2[O-])cc(C)n1-c1c(F)cccc1C(=O)N1CCCC1 (3D coordinates assigned)
C=c1/c(=C\c2[n-]c(=O)[n-]c2[O-])cc(C)n1-c1c(F)cccc1C(=O)N1CCCC1 (nonaromatic ring conformer: 129.98727658588248 kcal/mol)

> <smiles>
C=c1c(=Cc2[nH]c(=O)[nH]c2O)cc(C)n1-c1c(F)cccc1C(=O)N1CCCC1

> <score_type>
oracle

> <origin>
adg

> <m_score__min__energy>
-16.420000000000002

> <m_primary>
energy

> <minimizedAffinity>
-7.64629

> <minimizedRMSD>
0.78619

> <CNNscore>
0.6118787527

> <CNNaffinity>
7.1787037849

> <CNN_VS>
4.3924961090

> <CNNaffinity_variance>
0.0497658253

$$$$
10:0


 29 31  0  0  0  0  0  0  0  0999 V2000
   59.5913   31.4548   48.1887 N   0  0  0  0  0  0  0  0  0  0  0  0
   58.9813   32.0276   47.1275 C   0  0  0  0  0  0  0  0  0  0  0  0
   58.4405   33.4250   47.1029 C   0  0  0  0  0  0  0  0  0  0  0  0
   58.9482   31.1533   46.0612 C   0  0  0  0  0  0  0  0  0  0  0  0
   59.5576   29.9816   46.4893 C   0  0  0  0  0  0  0  0  0  0  0  0
   59.7479   28.8687   45.7533 C   0  0  0  0  0  0  0  0  0  0  0  0
   59.9595   30.2053   47.8092 C   0  0  0  0  0  0  0  0  0  0  0  0
   60.6250   29.3469   48.5976 C   0  0  0  0  0  0  0  0  0  0  0  0
   58.9214   27.6502   45.8883 C   0  0  0  0  0  0  0  0  0  0  0  0
   57.5696   27.6723   45.5139 C   0  0  0  0  0  0  0  0  0  0  0  0
   56.9840   28.8429   45.0474 O   0  0  0  0  0  0  0  0  0  0  0  0
   56.8167   26.5452   45.6150 N   0  0  0  0  0  0  0  0  0  0  0  0
   57.3549   25.3817   46.0625 C   0  0  0  0  0  0  0  0  0  0  0  0
   56.6372   24.3524   46.1527 O   0  0  0  0  0  0  0  0  0  0  0  0
   58.6671   25.3260   46.4066 N   0  0  0  0  0  0  0  0  0  0  0  0
   59.4624   26.4238   46.3203 C   0  0  0  0  0  0  0  0  0  0  0  0
   60.6835   26.3252   46.6145 O   0  0  0  0  0  0  0  0  0  0  0  0
   60.9809   32.7064   49.8371 C   0  0  0  0  0  0  0  0  0  0  0  0
   61.0771   33.3249   51.0467 N   0  0  0  0  0  0  0  0  0  0  0  0
   60.0566   33.3252   51.9440 C   0  0  0  0  0  0  0  0  0  0  0  0
   58.8589   32.6801   51.6410 C   0  0  0  0  0  0  0  0  0  0  0  0
   58.7164   32.0492   50.4042 C   0  0  0  0  0  0  0  0  0  0  0  0
   59.7701   32.0635   49.4828 C   0  0  0  0  0  0  0  0  0  0  0  0
   63.2081   31.9540   49.1571 C   0  0  0  0  0  0  0  0  0  0  0  0
   62.1454   32.7473   48.9231 C   0  0  0  0  0  0  0  0  0  0  0  0
   62.1319   33.7352   47.7860 C   0  0  0  0  0  0  0  0  0  0  0  0
   64.1016   33.5588   50.6818 O   0  0  0  0  0  0  0  0  0  0  0  0
   64.3443   32.3203   50.0709 C   0  0  0  0  0  0  0  0  0  0  0  0
   64.8422   33.7811   51.2674 H   0  0  0  0  0  0  0  0  0  0  0  0
 27 28  1  0
 28 24  1  0
 24 25  2  0
 25 18  1  0
 18 19  2  0
 19 20  1  0
 20 21  2  0
 21 22  1  0
 22 23  2  0
 23  1  1  0
  1  2  1  0
  2  3  1  0
  2  4  2  0
  4  5  1  0
  5  6  2  0
  6  9  1  0
  9 10  2  0
 10 11  1  0
 10 12  1  0
 12 13  1  0
 13 14  2  0
 13 15  1  0
 15 16  1  0
 16 17  2  0
  5  7  1  0
  7  8  2  0
 25 26  1  0
 23 18  1  0
  7  1  1  0
 16  9  1  0
 27 29  1  0
M  CHG 1  11  -1
M  CHG 1  12  -1
M  CHG 1  15  -1
M  END
> <UniqueID>
11

> <SMILES>
C=c1c(=Cc2c([O-])[n-]c(=O)[n-]c2=O)cc(C)n1-c1cccnc1/C(C)=C/CO

> <Energy>
94.15071626675586

> <Genealogy>
C=c1c(=Cc2c([O-])[n-]c(=O)[n-]c2=O)cc(C)n1-c1cccnc1C(C)=CCO (protonated)
C=c1c(=Cc2c([O-])[n-]c(=O)[n-]c2=O)cc(C)n1-c1cccnc1/C(C)=C/CO (cis-trans isomerization)
C=c1c(=Cc2c([O-])[n-]c(=O)[n-]c2=O)cc(C)n1-c1cccnc1/C(C)=C/CO (3D coordinates assigned)
C=c1c(=Cc2c([O-])[n-]c(=O)[n-]c2=O)cc(C)n1-c1cccnc1/C(C)=C/CO (optimized conformer: 94.15071626675586 kcal/mol)

> <smiles>
C=c1c(=Cc2c(O)[nH]c(=O)[nH]c2=O)cc(C)n1-c1cccnc1C(C)=CCO

> <score_type>
oracle

> <origin>
adg

> <m_score__min__energy>
-15.93

> <m_primary>
energy

> <minimizedAffinity>
-7.74641

> <minimizedRMSD>
1.69248

> <CNNscore>
0.6115818620

> <CNNaffinity>
7.4280548096

> <CNN_VS>
4.5428633690

> <CNNaffinity_variance>
0.5624538064

$$$$
11:0


 28 30  0  0  0  0  0  0  0  0999 V2000
   59.2645   32.5598   48.6359 C   0  0  0  0  0  0  0  0  0  0  0  0
   58.4510   31.9615   49.6083 C   0  0  0  0  0  0  0  0  0  0  0  0
   58.7848   32.0268   50.9637 C   0  0  0  0  0  0  0  0  0  0  0  0
   57.9856   31.4352   51.8874 N   0  0  0  0  0  0  0  0  0  0  0  0
   58.2842   31.4888   53.2140 C   0  0  0  0  0  0  0  0  0  0  0  0
   59.4104   32.1241   53.6294 N   0  0  0  0  0  0  0  0  0  0  0  0
   60.2450   32.7346   52.7477 C   0  0  0  0  0  0  0  0  0  0  0  0
   61.2739   33.3236   53.1782 O   0  0  0  0  0  0  0  0  0  0  0  0
   59.9483   32.7046   51.3709 C   0  0  0  0  0  0  0  0  0  0  0  0
   60.7624   33.3260   50.4087 C   0  0  0  0  0  0  0  0  0  0  0  0
   60.4227   33.2750   49.0393 C   0  0  0  0  0  0  0  0  0  0  0  0
   58.0156   33.3019   46.5770 C   0  0  0  0  0  0  0  0  0  0  0  0
   58.8663   32.4138   47.2939 O   0  0  0  0  0  0  0  0  0  0  0  0
   61.2000   33.9380   48.0725 O   0  0  0  0  0  0  0  0  0  0  0  0
   62.2586   33.3479   47.3235 C   0  0  0  0  0  0  0  0  0  0  0  0
   57.3743   30.8443   54.2116 C   0  0  0  0  0  0  0  0  0  0  0  0
   57.2513   29.3680   53.9598 C   0  0  0  0  0  0  0  0  0  0  0  0
   58.2884   28.6539   53.9832 O   0  0  0  0  0  0  0  0  0  0  0  0
   55.9902   28.7443   53.6901 N   0  0  0  0  0  0  0  0  0  0  0  0
   54.7459   29.0348   54.3928 C   0  0  0  0  0  0  0  0  0  0  0  0
   53.8275   29.7989   53.4818 C   0  0  0  0  0  0  0  0  0  0  0  0
   54.2712   30.2246   52.2201 C   0  0  0  0  0  0  0  0  0  0  0  0
   53.4243   30.9696   51.3903 C   0  0  0  0  0  0  0  0  0  0  0  0
   52.1374   31.3063   51.8196 C   0  0  0  0  0  0  0  0  0  0  0  0
   51.3022   32.0494   50.9928 O   0  0  0  0  0  0  0  0  0  0  0  0
   51.6933   30.9009   53.0859 C   0  0  0  0  0  0  0  0  0  0  0  0
   50.4190   31.2454   53.5219 O   0  0  0  0  0  0  0  0  0  0  0  0
   52.5370   30.1508   53.9159 C   0  0  0  0  0  0  0  0  0  0  0  0
 12 13  1  0
 13  1  1  0
  1  2  2  0
  2  3  1  0
  3  4  1  0
  4  5  1  0
  5 16  1  0
 16 17  1  0
 17 18  2  0
 17 19  1  0
 19 20  1  0
 20 21  1  0
 21 22  2  0
 22 23  1  0
 23 24  2  0
 24 25  1  0
 24 26  1  0
 26 27  1  0
 26 28  2  0
  5  6  2  0
  6  7  1  0
  7  8  2  0
  7  9  1  0
  9 10  1  0
 10 11  2  0
 11 14  1  0
 14 15  1  0
 11  1  1  0
  9  3  2  0
 28 21  1  0
M  CHG 1   4  -1
M  CHG 1  19  -1
M  CHG 1  25  -1
M  CHG 1  27  -1
M  END
> <UniqueID>
12

> <SMILES>
COc1cc2[n-]c(CC(=O)[N-]Cc3ccc([O-])c([O-])c3)nc(=O)c2cc1OC

> <Energy>
48.23896698448703

> <Genealogy>
COc1cc2[n-]c(CC(=O)[N-]Cc3ccc([O-])c([O-])c3)nc(=O)c2cc1OC (protonated)
COc1cc2[n-]c(CC(=O)[N-]Cc3ccc([O-])c([O-])c3)nc(=O)c2cc1OC (3D coordinates assigned)
COc1cc2[n-]c(CC(=O)[N-]Cc3ccc([O-])c([O-])c3)nc(=O)c2cc1OC (optimized conformer: 48.23896698448703 kcal/mol)

> <smiles>
COc1cc2[nH]c(CC(=O)NCc3ccc(O)c(O)c3)nc(=O)c2cc1OC

> <score_type>
oracle

> <origin>
adg

> <m_score__min__energy>
-17.809999999999999

> <m_primary>
energy

> <minimizedAffinity>
-5.76149

> <minimizedRMSD>
1.48149

> <CNNscore>
0.4275295734

> <CNNaffinity>
5.3519053459

> <CNN_VS>
2.2880978584

> <CNNaffinity_variance>
0.0298188850

$$$$
12:0


 27 29  0  0  0  0  0  0  0  0999 V2000
   60.0927   28.2872   47.4277 C   0  0  0  0  0  0  0  0  0  0  0  0
   60.4387   29.2106   46.4468 C   0  0  0  0  0  0  0  0  0  0  0  0
   60.0861   30.5238   46.7777 C   0  0  0  0  0  0  0  0  0  0  0  0
   59.4610   30.6219   48.0123 C   0  0  0  0  0  0  0  0  0  0  0  0
   59.3238   29.0906   48.6920 S   0  0  0  0  0  0  0  0  0  0  0  0
   58.9384   32.1121   48.7801 S   0  0  0  0  0  0  0  0  0  0  0  0
   58.2488   31.7666   50.0715 O   0  0  0  0  0  0  0  0  0  0  0  0
   57.9379   32.7948   47.8888 O   0  0  0  0  0  0  0  0  0  0  0  0
   60.2708   33.1984   49.1121 N   0  0  0  0  0  0  0  0  0  0  0  0
   60.1033   34.5147   48.4678 C   0  0  0  0  0  0  0  0  0  0  0  0
   60.5119   34.5116   46.9758 C   0  0  0  0  0  0  0  0  0  0  0  0
   61.2268   33.3547   46.5880 O   0  0  0  0  0  0  0  0  0  0  0  0
   62.2264   33.0688   47.5376 C   0  0  0  0  0  0  0  0  0  0  0  0
   61.5889   32.5791   48.8484 C   0  0  0  0  0  0  0  0  0  0  0  0
   60.3563   26.8158   47.3779 C   0  0  0  0  0  0  0  0  0  0  0  0
   59.1020   26.0688   47.3988 N   0  0  0  0  0  0  0  0  0  0  0  0
   57.8366   24.4098   46.3895 O   0  0  0  0  0  0  0  0  0  0  0  0
   58.4596   25.4968   46.2510 C   0  0  0  0  0  0  0  0  0  0  0  0
   58.5659   26.1421   44.8902 C   0  0  0  0  0  0  0  0  0  0  0  0
   57.8100   27.4374   44.8068 C   0  0  0  0  0  0  0  0  0  0  0  0
   58.3138   28.5645   44.2731 N   0  0  0  0  0  0  0  0  0  0  0  0
   57.3205   29.4630   44.4473 C   0  0  0  0  0  0  0  0  0  0  0  0
   57.4131   30.6575   44.0631 O   0  0  0  0  0  0  0  0  0  0  0  0
   56.2231   28.9806   45.0683 N   0  0  0  0  0  0  0  0  0  0  0  0
   56.5488   27.6980   45.2970 C   0  0  0  0  0  0  0  0  0  0  0  0
   55.7102   26.7986   45.9495 O   0  0  0  0  0  0  0  0  0  0  0  0
   54.8659   27.0761   46.2463 H   0  0  0  0  0  0  0  0  0  0  0  0
 17 18  2  0
 18 19  1  0
 19 20  1  0
 20 21  1  0
 21 22  1  0
 22 23  2  0
 22 24  1  0
 24 25  1  0
 25 26  1  0
 18 16  1  0
 16 15  1  0
 15  1  1  0
  1  2  2  0
  2  3  1  0
  3  4  2  0
  4  6  1  0
  6  7  2  0
  6  8  2  0
  6  9  1  0
  9 10  1  0
 10 11  1  0
 11 12  1  0
 12 13  1  0
 13 14  1  0
  4  5  1  0
 25 20  2  0
  5  1  1  0
 14  9  1  0
 26 27  1  0
M  CHG 1  16  -1
M  CHG 1  21  -1
M  CHG 1  24  -1
M  END
> <UniqueID>
13

> <SMILES>
O=C(Cc1[n-]c(=O)[n-]c1O)[N-]Cc1ccc(S(=O)(=O)N2CCOCC2)s1

> <Energy>
102.23069158531676

> <Genealogy>
O=C(Cc1[n-]c(=O)[n-]c1O)[N-]Cc1ccc(S(=O)(=O)N2CCOCC2)s1 (protonated)
O=C(Cc1[n-]c(=O)[n-]c1O)[N-]Cc1ccc(S(=O)(=O)N2CCOCC2)s1 (3D coordinates assigned)
O=C(Cc1[n-]c(=O)[n-]c1O)[N-]Cc1ccc(S(=O)(=O)N2CCOCC2)s1 (nonaromatic ring conformer: 102.23069158531676 kcal/mol)

> <smiles>
O=C(Cc1[nH]c(=O)[nH]c1O)NCc1ccc(S(=O)(=O)N2CCOCC2)s1

> <score_type>
oracle

> <origin>
adg

> <m_score__min__energy>
-14.460000000000001

> <m_primary>
energy

> <minimizedAffinity>
-5.04147

> <minimizedRMSD>
0.98903

> <CNNscore>
0.3636573851

> <CNNaffinity>
6.1713109016

> <CNN_VS>
2.2442426682

> <CNNaffinity_variance>
0.0630314797

$$$$
15:0


 31 33  0  0  0  0  0  0  0  0999 V2000
   58.4949   30.0467   45.1931 C   0  0  0  0  0  0  0  0  0  0  0  0
   57.2521   30.5874   44.8204 C   0  0  0  0  0  0  0  0  0  0  0  0
   56.2808   29.8002   44.2069 O   0  0  0  0  0  0  0  0  0  0  0  0
   56.9761   31.8885   45.0781 N   0  0  0  0  0  0  0  0  0  0  0  0
   57.8580   32.6924   45.7184 C   0  0  0  0  0  0  0  0  0  0  0  0
   57.5418   33.8972   45.9210 O   0  0  0  0  0  0  0  0  0  0  0  0
   59.0666   32.2010   46.1419 N   0  0  0  0  0  0  0  0  0  0  0  0
   59.3866   30.8867   45.8969 C   0  0  0  0  0  0  0  0  0  0  0  0
   60.4951   30.4236   46.2869 O   0  0  0  0  0  0  0  0  0  0  0  0
   56.4565   28.8986   44.0220 H   0  0  0  0  0  0  0  0  0  0  0  0
   58.8493   28.6253   44.9088 C   0  0  0  0  0  0  0  0  0  0  0  0
   58.0700   27.9281   44.2027 O   0  0  0  0  0  0  0  0  0  0  0  0
   60.2421   26.9322   46.1420 C   0  0  0  0  0  0  0  0  0  0  0  0
   60.1176   27.9965   45.3358 C   0  0  0  0  0  0  0  0  0  0  0  0
   59.9171   26.8222   48.4679 O   0  0  0  0  0  0  0  0  0  0  0  0
   59.4149   26.6375   47.3267 C   0  0  0  0  0  0  0  0  0  0  0  0
   58.0867   26.1070   47.1939 N   0  0  0  0  0  0  0  0  0  0  0  0
   57.6856   25.0659   46.2856 C   0  0  0  0  0  0  0  0  0  0  0  0
   58.6060   24.1173   45.7954 C   0  0  0  0  0  0  0  0  0  0  0  0
   58.1900   23.1227   44.9052 C   0  0  0  0  0  0  0  0  0  0  0  0
   56.8605   23.0732   44.4796 C   0  0  0  0  0  0  0  0  0  0  0  0
   55.9482   24.0304   44.9308 C   0  0  0  0  0  0  0  0  0  0  0  0
   56.3606   25.0307   45.8191 C   0  0  0  0  0  0  0  0  0  0  0  0
   55.4475   25.9912   46.2303 O   0  0  0  0  0  0  0  0  0  0  0  0
   59.9996   33.0682   46.8915 C   0  0  0  0  0  0  0  0  0  0  0  0
   59.7801   32.9198   48.3749 C   0  0  0  0  0  0  0  0  0  0  0  0
   58.8073   32.0317   48.8653 C   0  0  0  0  0  0  0  0  0  0  0  0
   58.6288   31.8707   50.2431 C   0  0  0  0  0  0  0  0  0  0  0  0
   59.4223   32.5899   51.1401 C   0  0  0  0  0  0  0  0  0  0  0  0
   60.3914   33.4759   50.6609 C   0  0  0  0  0  0  0  0  0  0  0  0
   60.5731   33.6397   49.2834 C   0  0  0  0  0  0  0  0  0  0  0  0
 15 16  2  0
 16 13  1  0
 13 14  2  0
 14 11  1  0
 11 12  2  0
 11  1  1  0
  1  2  2  0
  2  3  1  0
  2  4  1  0
  4  5  1  0
  5  6  2  0
  5  7  1  0
  7 25  1  0
 25 26  1  0
 26 27  2  0
 27 28  1  0
 28 29  2  0
 29 30  1  0
 30 31  2  0
  7  8  1  0
  8  9  2  0
 16 17  1  0
 17 18  1  0
 18 19  2  0
 19 20  1  0
 20 21  2  0
 21 22  1  0
 22 23  2  0
 23 24  1  0
  8  1  1  0
 23 18  1  0
 31 26  1  0
  3 10  1  0
M  CHG 1   4  -1
M  CHG 1  17  -1
M  CHG 1  24  -1
M  END
> <UniqueID>
16

> <SMILES>
O=C(C=CC(=O)c1c(O)[n-]c(=O)n(Cc2ccccc2)c1=O)[N-]c1ccccc1[O-]

> <Energy>
65.94105867733283

> <Genealogy>
O=C(C=CC(=O)c1c(O)[n-]c(=O)n(Cc2ccccc2)c1=O)[N-]c1ccccc1[O-] (protonated)
O=C(C=CC(=O)c1c(O)[n-]c(=O)n(Cc2ccccc2)c1=O)[N-]c1ccccc1[O-] (3D coordinates assigned)
O=C(C=CC(=O)c1c(O)[n-]c(=O)n(Cc2ccccc2)c1=O)[N-]c1ccccc1[O-] (optimized conformer: 65.94105867733283 kcal/mol)

> <smiles>
O=C(C=CC(=O)c1c(O)[nH]c(=O)n(Cc2ccccc2)c1=O)Nc1ccccc1O

> <score_type>
oracle

> <origin>
adg

> <m_score__min__energy>
-15.550000000000001

> <m_primary>
energy

> <minimizedAffinity>
-8.17746

> <minimizedRMSD>
1.10057

> <CNNscore>
0.6799713373

> <CNNaffinity>
6.5950770378

> <CNN_VS>
4.4844632149

> <CNNaffinity_variance>
0.2409822494

$$$$
22:0


 30 33  0  0  0  0  0  0  0  0999 V2000
   58.0127   25.5119   44.0981 C   0  0  0  0  0  0  0  0  0  0  0  0
   58.2155   26.0128   45.3293 C   0  0  0  0  0  0  0  0  0  0  0  0
   57.8826   25.3928   46.5352 C   0  0  0  0  0  0  0  0  0  0  0  0
   57.3323   24.1739   46.7076 C   0  0  0  0  0  0  0  0  0  0  0  0
   58.2627   26.2686   47.5433 C   0  0  0  0  0  0  0  0  0  0  0  0
   58.7954   27.3808   46.9229 C   0  0  0  0  0  0  0  0  0  0  0  0
   59.3778   28.5569   47.6501 C   0  0  0  0  0  0  0  0  0  0  0  0
   58.7758   27.2285   45.5769 N   0  0  0  0  0  0  0  0  0  0  0  0
   55.9617   23.8321   46.2669 C   0  0  0  0  0  0  0  0  0  0  0  0
   54.9959   24.8279   46.0301 C   0  0  0  0  0  0  0  0  0  0  0  0
   55.2970   26.1741   46.2136 O   0  0  0  0  0  0  0  0  0  0  0  0
   53.7571   24.4794   45.5965 N   0  0  0  0  0  0  0  0  0  0  0  0
   53.4336   23.1802   45.3706 C   0  0  0  0  0  0  0  0  0  0  0  0
   52.2789   22.8819   44.9724 O   0  0  0  0  0  0  0  0  0  0  0  0
   54.3579   22.2030   45.5691 N   0  0  0  0  0  0  0  0  0  0  0  0
   55.6106   22.4991   46.0024 C   0  0  0  0  0  0  0  0  0  0  0  0
   56.4441   21.5662   46.1729 O   0  0  0  0  0  0  0  0  0  0  0  0
   59.1822   28.2376   44.5876 C   0  0  0  0  0  0  0  0  0  0  0  0
   58.2042   29.3716   44.5876 C   0  0  0  0  0  0  0  0  0  0  0  0
   56.8713   29.2363   44.7449 N   0  0  0  0  0  0  0  0  0  0  0  0
   56.3737   30.4617   44.8410 N   0  0  0  0  0  0  0  0  0  0  0  0
   57.3430   31.3588   44.7449 N   0  0  0  0  0  0  0  0  0  0  0  0
   58.5122   30.7138   44.5985 C   0  0  0  0  0  0  0  0  0  0  0  0
   57.1694   32.7908   44.9631 C   0  0  0  0  0  0  0  0  0  0  0  0
   58.2044   33.2843   45.9382 C   0  0  0  0  0  0  0  0  0  0  0  0
   58.2859   32.7339   47.2272 C   0  0  0  0  0  0  0  0  0  0  0  0
   59.2920   33.1466   48.1103 C   0  0  0  0  0  0  0  0  0  0  0  0
   60.2299   34.1010   47.7072 C   0  0  0  0  0  0  0  0  0  0  0  0
   60.1648   34.6410   46.4207 C   0  0  0  0  0  0  0  0  0  0  0  0
   59.1591   34.2332   45.5362 C   0  0  0  0  0  0  0  0  0  0  0  0
  1  2  2  0
  2  3  1  0
  3  4  2  0
  4  9  1  0
  9 10  2  0
 10 11  1  0
 10 12  1  0
 12 13  1  0
 13 14  2  0
 13 15  1  0
 15 16  1  0
 16 17  2  0
  3  5  1  0
  5  6  2  0
  6  7  1  0
  6  8  1  0
  8 18  1  0
 18 19  1  0
 19 20  1  0
 20 21  2  0
 21 22  1  0
 22 24  1  0
 24 25  1  0
 25 26  2  0
 26 27  1  0
 27 28  2  0
 28 29  1  0
 29 30  2  0
 22 23  1  0
  8  2  1  0
 23 19  2  0
 16  9  1  0
 30 25  1  0
M  CHG 1  11  -1
M  CHG 1  12  -1
M  CHG 1  15  -1
M  END
> <UniqueID>
21

> <SMILES>
C=c1/c(=C/c2c([O-])[n-]c(=O)[n-]c2=O)cc(C)n1Cc1cn(Cc2ccccc2)nn1

> <Energy>
121.14636110982592

> <Genealogy>
C=c1c(=Cc2c([O-])[n-]c(=O)[n-]c2=O)cc(C)n1Cc1cn(Cc2ccccc2)nn1 (protonated)
C=c1/c(=C/c2c([O-])[n-]c(=O)[n-]c2=O)cc(C)n1Cc1cn(Cc2ccccc2)nn1 (cis-trans isomerization)
C=c1/c(=C/c2c([O-])[n-]c(=O)[n-]c2=O)cc(C)n1Cc1cn(Cc2ccccc2)nn1 (3D coordinates assigned)
C=c1/c(=C/c2c([O-])[n-]c(=O)[n-]c2=O)cc(C)n1Cc1cn(Cc2ccccc2)nn1 (optimized conformer: 121.14636110982592 kcal/mol)

> <smiles>
C=c1c(=Cc2c(O)[nH]c(=O)[nH]c2=O)cc(C)n1Cc1cn(Cc2ccccc2)nn1

> <score_type>
oracle

> <origin>
adg

> <m_score__min__energy>
-17.629999999999999

> <m_primary>
energy

> <minimizedAffinity>
-8.45999

> <minimizedRMSD>
0.70715

> <CNNscore>
0.3334202170

> <CNNaffinity>
6.6986355782

> <CNN_VS>
2.2334604263

> <CNNaffinity_variance>
0.0331506096

$$$$
35:0


 30 33  0  0  0  0  0  0  0  0999 V2000
   58.7755   28.8466   47.0437 C   0  0  0  0  0  0  0  0  0  0  0  0
   58.3419   29.2580   45.8411 C   0  0  0  0  0  0  0  0  0  0  0  0
   57.9403   28.4551   44.7584 C   0  0  0  0  0  0  0  0  0  0  0  0
   57.7198   27.1287   44.6720 C   0  0  0  0  0  0  0  0  0  0  0  0
   57.7732   29.3122   43.6831 C   0  0  0  0  0  0  0  0  0  0  0  0
   58.0144   30.5879   44.1451 C   0  0  0  0  0  0  0  0  0  0  0  0
   57.9448   31.8261   43.3018 C   0  0  0  0  0  0  0  0  0  0  0  0
   58.3592   30.5579   45.4517 N   0  0  0  0  0  0  0  0  0  0  0  0
   57.6010   26.2014   45.8141 C   0  0  0  0  0  0  0  0  0  0  0  0
   56.3442   25.7846   46.2863 C   0  0  0  0  0  0  0  0  0  0  0  0
   55.1728   26.2653   45.7116 O   0  0  0  0  0  0  0  0  0  0  0  0
   56.2663   24.8971   47.3123 N   0  0  0  0  0  0  0  0  0  0  0  0
   57.3881   24.3873   47.8843 C   0  0  0  0  0  0  0  0  0  0  0  0
   57.2912   23.5706   48.8357 O   0  0  0  0  0  0  0  0  0  0  0  0
   58.6120   24.7534   47.4259 N   0  0  0  0  0  0  0  0  0  0  0  0
   58.7436   25.6373   46.4036 C   0  0  0  0  0  0  0  0  0  0  0  0
   59.8955   25.9507   45.9991 O   0  0  0  0  0  0  0  0  0  0  0  0
   58.7140   31.7012   46.2495 C   0  0  0  0  0  0  0  0  0  0  0  0
   59.9021   31.6954   46.9952 C   0  0  0  0  0  0  0  0  0  0  0  0
   60.2822   32.8089   47.7813 C   0  0  0  0  0  0  0  0  0  0  0  0
   59.4211   33.9336   47.7823 C   0  0  0  0  0  0  0  0  0  0  0  0
   58.2396   33.9371   47.0403 C   0  0  0  0  0  0  0  0  0  0  0  0
   57.8847   32.8275   46.2749 C   0  0  0  0  0  0  0  0  0  0  0  0
   56.7399   32.8546   45.5459 F   0  0  0  0  0  0  0  0  0  0  0  0
   61.5217   32.8021   48.5553 N   0  0  0  0  0  0  0  0  0  0  0  0
   61.7458   33.8522   49.5723 C   0  0  0  0  0  0  0  0  0  0  0  0
   63.0476   33.6778   50.3569 C   0  0  0  0  0  0  0  0  0  0  0  0
   64.0846   33.2238   49.5207 O   0  0  0  0  0  0  0  0  0  0  0  0
   63.8005   31.8978   49.1411 C   0  0  0  0  0  0  0  0  0  0  0  0
   62.5900   31.8415   48.2045 C   0  0  0  0  0  0  0  0  0  0  0  0
  1  2  2  0
  2  3  1  0
  3  4  2  0
  4  9  1  0
  9 10  2  0
 10 11  1  0
 10 12  1  0
 12 13  1  0
 13 14  2  0
 13 15  1  0
 15 16  1  0
 16 17  2  0
  3  5  1  0
  5  6  2  0
  6  7  1  0
  6  8  1  0
  8 18  1  0
 18 19  2  0
 19 20  1  0
 20 25  1  0
 25 26  1  0
 26 27  1  0
 27 28  1  0
 28 29  1  0
 29 30  1  0
 20 21  2  0
 21 22  1  0
 22 23  2  0
 23 24  1  0
  8  2  1  0
 23 18  1  0
 16  9  1  0
 30 25  1  0
M  CHG 1  11  -1
M  CHG 1  12  -1
M  CHG 1  15  -1
M  END
> <UniqueID>
34

> <SMILES>
C=c1c(=Cc2c([O-])[n-]c(=O)[n-]c2=O)cc(C)n1-c1cc(N2CCOCC2)ccc1F

> <Energy>
108.46432328535984

> <Genealogy>
C=c1c(=Cc2c([O-])[n-]c(=O)[n-]c2=O)cc(C)n1-c1cc(N2CCOCC2)ccc1F (protonated)
C=c1c(=Cc2c([O-])[n-]c(=O)[n-]c2=O)cc(C)n1-c1cc(N2CCOCC2)ccc1F (3D coordinates assigned)
C=c1c(=Cc2c([O-])[n-]c(=O)[n-]c2=O)cc(C)n1-c1cc(N2CCOCC2)ccc1F (nonaromatic ring conformer: 108.46432328535984 kcal/mol)

> <smiles>
C=c1c(=Cc2c(O)[nH]c(=O)[nH]c2=O)cc(C)n1-c1cc(N2CCOCC2)ccc1F

> <score_type>
oracle

> <origin>
adg

> <m_score__min__energy>
-16.030000000000001

> <m_primary>
energy

> <minimizedAffinity>
-6.38960

> <minimizedRMSD>
0.56599

> <CNNscore>
0.0739536062

> <CNNaffinity>
6.1496424675

> <CNN_VS>
0.4547882378

> <CNNaffinity_variance>
0.0910900906

$$$$
37:0


 29 32  0  0  0  0  0  0  0  0999 V2000
   59.9329   27.0814   46.8905 C   0  0  0  0  0  0  0  0  0  0  0  0
   59.1498   27.9497   46.2318 C   0  0  0  0  0  0  0  0  0  0  0  0
   58.2815   27.6679   45.1631 C   0  0  0  0  0  0  0  0  0  0  0  0
   57.8592   26.4957   44.6518 C   0  0  0  0  0  0  0  0  0  0  0  0
   57.8755   28.8939   44.6615 C   0  0  0  0  0  0  0  0  0  0  0  0
   58.4380   29.8633   45.4650 C   0  0  0  0  0  0  0  0  0  0  0  0
   58.2512   31.3379   45.2802 C   0  0  0  0  0  0  0  0  0  0  0  0
   59.2100   29.2931   46.4175 N   0  0  0  0  0  0  0  0  0  0  0  0
   57.5063   25.3004   45.4313 C   0  0  0  0  0  0  0  0  0  0  0  0
   58.4135   23.8817   45.4606 S   0  0  0  0  0  0  0  0  0  0  0  0
   57.2620   23.0660   46.3753 C   0  0  0  0  0  0  0  0  0  0  0  0
   57.3797   21.8766   46.7650 O   0  0  0  0  0  0  0  0  0  0  0  0
   56.1777   23.8241   46.6429 N   0  0  0  0  0  0  0  0  0  0  0  0
   56.3057   25.0646   46.1029 C   0  0  0  0  0  0  0  0  0  0  0  0
   55.2920   26.0095   46.2019 O   0  0  0  0  0  0  0  0  0  0  0  0
   59.9807   30.0004   47.4048 C   0  0  0  0  0  0  0  0  0  0  0  0
   61.1176   30.7271   47.0236 C   0  0  0  0  0  0  0  0  0  0  0  0
   61.8663   31.4186   47.9791 C   0  0  0  0  0  0  0  0  0  0  0  0
   61.4781   31.4061   49.3282 C   0  0  0  0  0  0  0  0  0  0  0  0
   60.3504   30.6631   49.7116 C   0  0  0  0  0  0  0  0  0  0  0  0
   59.6017   29.9706   48.7561 C   0  0  0  0  0  0  0  0  0  0  0  0
   58.5043   29.2726   49.1435 F   0  0  0  0  0  0  0  0  0  0  0  0
   62.2837   32.1250   50.3351 C   0  0  0  0  0  0  0  0  0  0  0  0
   62.0118   33.3309   50.5828 O   0  0  0  0  0  0  0  0  0  0  0  0
   63.3590   31.4795   51.0416 N   0  0  0  0  0  0  0  0  0  0  0  0
   63.3970   30.0557   51.3295 C   0  0  0  0  0  0  0  0  0  0  0  0
   64.6518   29.8365   52.1638 C   0  0  0  0  0  0  0  0  0  0  0  0
   65.0609   31.2130   52.6788 C   0  0  0  0  0  0  0  0  0  0  0  0
   64.3764   32.2234   51.7666 C   0  0  0  0  0  0  0  0  0  0  0  0
  1  2  2  0
  2  3  1  0
  3  4  2  0
  4  9  1  0
  9 10  1  0
 10 11  1  0
 11 12  2  0
 11 13  1  0
 13 14  1  0
 14 15  1  0
  3  5  1  0
  5  6  2  0
  6  7  1  0
  6  8  1  0
  8 16  1  0
 16 17  2  0
 17 18  1  0
 18 19  2  0
 19 23  1  0
 23 24  2  0
 23 25  1  0
 25 26  1  0
 26 27  1  0
 27 28  1  0
 28 29  1  0
 19 20  1  0
 20 21  2  0
 21 22  1  0
  8  2  1  0
 21 16  1  0
 14  9  2  0
 29 25  1  0
M  CHG 1  13  -1
M  CHG 1  15  -1
M  END
> <UniqueID>
36

> <SMILES>
C=c1/c(=C\c2sc(=O)[n-]c2[O-])cc(C)n1-c1ccc(C(=O)N2CCCC2)cc1F

> <Energy>
131.96481894070502

> <Genealogy>
C=c1c(=Cc2sc(=O)[n-]c2[O-])cc(C)n1-c1ccc(C(=O)N2CCCC2)cc1F (protonated)
C=c1/c(=C\c2sc(=O)[n-]c2[O-])cc(C)n1-c1ccc(C(=O)N2CCCC2)cc1F (cis-trans isomerization)
C=c1/c(=C\c2sc(=O)[n-]c2[O-])cc(C)n1-c1ccc(C(=O)N2CCCC2)cc1F (3D coordinates assigned)
C=c1/c(=C\c2sc(=O)[n-]c2[O-])cc(C)n1-c1ccc(C(=O)N2CCCC2)cc1F (nonaromatic ring conformer: 131.96481894070502 kcal/mol)

> <smiles>
C=c1c(=Cc2sc(=O)[nH]c2O)cc(C)n1-c1ccc(C(=O)N2CCCC2)cc1F

> <score_type>
oracle

> <origin>
adg

> <m_score__min__energy>
-14.539999999999999

> <m_primary>
energy

> <minimizedAffinity>
-8.32950

> <minimizedRMSD>
1.48757

> <CNNscore>
0.3101855516

> <CNNaffinity>
6.8942046165

> <CNN_VS>
2.1384825706

> <CNNaffinity_variance>
0.0701523051

$$$$
55:0


 30 32  0  0  0  0  0  0  0  0999 V2000
   59.0584   30.2784   46.7646 N   0  0  0  0  0  0  0  0  0  0  0  0
   58.9533   29.4764   47.8443 C   0  0  0  0  0  0  0  0  0  0  0  0
   59.3689   29.8559   49.2327 C   0  0  0  0  0  0  0  0  0  0  0  0
   58.4455   28.2464   47.4802 C   0  0  0  0  0  0  0  0  0  0  0  0
   58.1961   28.3020   46.1168 C   0  0  0  0  0  0  0  0  0  0  0  0
   57.6341   27.2838   45.4378 C   0  0  0  0  0  0  0  0  0  0  0  0
   58.6268   29.5705   45.6895 C   0  0  0  0  0  0  0  0  0  0  0  0
   58.7306   30.0173   44.4292 C   0  0  0  0  0  0  0  0  0  0  0  0
   57.4355   25.9146   45.9515 C   0  0  0  0  0  0  0  0  0  0  0  0
   56.1438   25.4433   46.2256 C   0  0  0  0  0  0  0  0  0  0  0  0
   55.0395   26.2710   46.0674 O   0  0  0  0  0  0  0  0  0  0  0  0
   55.9657   24.1678   46.6600 N   0  0  0  0  0  0  0  0  0  0  0  0
   57.0204   23.3276   46.8192 C   0  0  0  0  0  0  0  0  0  0  0  0
   56.8300   22.1526   47.2258 O   0  0  0  0  0  0  0  0  0  0  0  0
   58.2773   23.7521   46.5336 N   0  0  0  0  0  0  0  0  0  0  0  0
   58.5089   25.0170   46.0967 C   0  0  0  0  0  0  0  0  0  0  0  0
   59.6856   25.3698   45.8206 O   0  0  0  0  0  0  0  0  0  0  0  0
   61.4730   33.1140   47.1674 C   0  0  0  0  0  0  0  0  0  0  0  0
   60.6752   34.1976   46.7617 C   0  0  0  0  0  0  0  0  0  0  0  0
   59.3501   33.9963   46.3700 C   0  0  0  0  0  0  0  0  0  0  0  0
   58.7898   32.7105   46.3825 C   0  0  0  0  0  0  0  0  0  0  0  0
   57.3613   32.5143   45.9540 C   0  0  0  0  0  0  0  0  0  0  0  0
   59.5900   31.6147   46.7679 C   0  0  0  0  0  0  0  0  0  0  0  0
   60.9177   31.8238   47.1651 C   0  0  0  0  0  0  0  0  0  0  0  0
   62.8771   33.3276   47.5898 C   0  0  0  0  0  0  0  0  0  0  0  0
   63.7662   33.5731   46.7274 O   0  0  0  0  0  0  0  0  0  0  0  0
   63.2336   33.2594   48.9753 N   0  0  0  0  0  0  0  0  0  0  0  0
   62.5672   34.0294   50.0202 C   0  0  0  0  0  0  0  0  0  0  0  0
   60.2826   33.2772   50.6135 C   0  0  0  0  0  0  0  0  0  0  0  0
   61.6029   33.1648   50.7805 C   0  0  0  0  0  0  0  0  0  0  0  0
 29 30  2  0
 30 28  1  0
 28 27  1  0
 27 25  1  0
 25 26  2  0
 25 18  1  0
 18 19  2  0
 19 20  1  0
 20 21  2  0
 21 22  1  0
 21 23  1  0
 23  1  1  0
  1  2  1  0
  2  3  1  0
  2  4  2  0
  4  5  1  0
  5  6  2  0
  6  9  1  0
  9 10  2  0
 10 11  1  0
 10 12  1  0
 12 13  1  0
 13 14  2  0
 13 15  1  0
 15 16  1  0
 16 17  2  0
  5  7  1  0
  7  8  2  0
 23 24  2  0
 24 18  1  0
  7  1  1  0
 16  9  1  0
M  CHG 1  11  -1
M  CHG 1  12  -1
M  CHG 1  15  -1
M  CHG 1  27  -1
M  END
> <UniqueID>
52

> <SMILES>
C=CC[N-]C(=O)c1ccc(C)c(-n2c(C)c/c(=C/c3c([O-])[n-]c(=O)[n-]c3=O)c2=C)c1

> <Energy>
94.53670485065078

> <Genealogy>
C=CC[N-]C(=O)c1ccc(C)c(-n2c(C)cc(=Cc3c([O-])[n-]c(=O)[n-]c3=O)c2=C)c1 (protonated)
C=CC[N-]C(=O)c1ccc(C)c(-n2c(C)c/c(=C/c3c([O-])[n-]c(=O)[n-]c3=O)c2=C)c1 (cis-trans isomerization)
C=CC[N-]C(=O)c1ccc(C)c(-n2c(C)c/c(=C/c3c([O-])[n-]c(=O)[n-]c3=O)c2=C)c1 (3D coordinates assigned)
C=CC[N-]C(=O)c1ccc(C)c(-n2c(C)c/c(=C/c3c([O-])[n-]c(=O)[n-]c3=O)c2=C)c1 (optimized conformer: 94.53670485065078 kcal/mol)

> <smiles>
C=CCNC(=O)c1ccc(C)c(-n2c(C)cc(=Cc3c(O)[nH]c(=O)[nH]c3=O)c2=C)c1

> <score_type>
oracle

> <origin>
adg

> <m_score__min__energy>
-16.940000000000001

> <m_primary>
energy

> <minimizedAffinity>
-7.86220

> <minimizedRMSD>
0.75530

> <CNNscore>
0.2608227730

> <CNNaffinity>
6.9038982391

> <CNN_VS>
1.8006938696

> <CNNaffinity_variance>
0.0256570037

$$$$
57:0


 28 30  0  0  0  0  0  0  0  0999 V2000
   60.0108   29.3110   45.1683 C   0  0  0  0  0  0  0  0  0  0  0  0
   59.8626   28.7328   46.3736 C   0  0  0  0  0  0  0  0  0  0  0  0
   58.9612   27.7032   46.6866 C   0  0  0  0  0  0  0  0  0  0  0  0
   58.0988   27.0968   45.8393 C   0  0  0  0  0  0  0  0  0  0  0  0
   59.1335   27.4402   48.0393 C   0  0  0  0  0  0  0  0  0  0  0  0
   60.1170   28.2946   48.4904 C   0  0  0  0  0  0  0  0  0  0  0  0
   60.5762   28.3729   49.9166 C   0  0  0  0  0  0  0  0  0  0  0  0
   60.5650   29.0827   47.4859 N   0  0  0  0  0  0  0  0  0  0  0  0
   57.6722   25.6793   45.8972 C   0  0  0  0  0  0  0  0  0  0  0  0
   58.4752   24.6032   45.8217 N   0  0  0  0  0  0  0  0  0  0  0  0
   57.6239   23.5609   45.9360 C   0  0  0  0  0  0  0  0  0  0  0  0
   58.0097   22.3644   45.9085 O   0  0  0  0  0  0  0  0  0  0  0  0
   56.3272   23.9054   46.0808 N   0  0  0  0  0  0  0  0  0  0  0  0
   56.3755   25.2472   46.0545 C   0  0  0  0  0  0  0  0  0  0  0  0
   55.2549   26.0595   46.1723 O   0  0  0  0  0  0  0  0  0  0  0  0
   61.5807   30.1410   47.6311 C   0  0  0  0  0  0  0  0  0  0  0  0
   60.9314   31.4624   47.9636 C   0  0  0  0  0  0  0  0  0  0  0  0
   60.3445   32.2284   46.9403 C   0  0  0  0  0  0  0  0  0  0  0  0
   59.7420   33.4639   47.2243 C   0  0  0  0  0  0  0  0  0  0  0  0
   59.7053   33.9213   48.5501 C   0  0  0  0  0  0  0  0  0  0  0  0
   60.2914   33.1700   49.5713 C   0  0  0  0  0  0  0  0  0  0  0  0
   60.9083   31.9499   49.2837 C   0  0  0  0  0  0  0  0  0  0  0  0
   61.4628   31.2401   50.2989 F   0  0  0  0  0  0  0  0  0  0  0  0
   59.0968   34.2508   46.1508 C   0  0  0  0  0  0  0  0  0  0  0  0
   59.5577   35.3923   45.8737 O   0  0  0  0  0  0  0  0  0  0  0  0
   57.9613   33.7484   45.4172 N   0  0  0  0  0  0  0  0  0  0  0  0
   57.0155   34.7000   44.8317 C   0  0  0  0  0  0  0  0  0  0  0  0
   57.8344   32.3151   45.1331 C   0  0  0  0  0  0  0  0  0  0  0  0
  1  2  2  0
  2  3  1  0
  3  4  2  0
  4  9  1  0
  9 10  1  0
 10 11  1  0
 11 12  2  0
 11 13  1  0
 13 14  1  0
 14 15  1  0
  3  5  1  0
  5  6  2  0
  6  7  1  0
  6  8  1  0
  8 16  1  0
 16 17  1  0
 17 18  2  0
 18 19  1  0
 19 24  1  0
 24 25  2  0
 24 26  1  0
 26 27  1  0
 26 28  1  0
 19 20  2  0
 20 21  1  0
 21 22  2  0
 22 23  1  0
  8  2  1  0
 22 17  1  0
 14  9  2  0
M  CHG 1  10  -1
M  CHG 1  13  -1
M  CHG 1  15  -1
M  END
> <UniqueID>
54

> <SMILES>
C=c1c(=Cc2[n-]c(=O)[n-]c2[O-])cc(C)n1Cc1cc(C(=O)N(C)C)ccc1F

> <Energy>
113.10428821006909

> <Genealogy>
C=c1c(=Cc2[n-]c(=O)[n-]c2[O-])cc(C)n1Cc1cc(C(=O)N(C)C)ccc1F (protonated)
C=c1c(=Cc2[n-]c(=O)[n-]c2[O-])cc(C)n1Cc1cc(C(=O)N(C)C)ccc1F (3D coordinates assigned)
C=c1c(=Cc2[n-]c(=O)[n-]c2[O-])cc(C)n1Cc1cc(C(=O)N(C)C)ccc1F (optimized conformer: 113.10428821006909 kcal/mol)

> <smiles>
C=c1c(=Cc2[nH]c(=O)[nH]c2O)cc(C)n1Cc1cc(C(=O)N(C)C)ccc1F

> <score_type>
oracle

> <origin>
adg

> <m_score__min__energy>
-15.779999999999999

> <m_primary>
energy

> <minimizedAffinity>
-6.67139

> <minimizedRMSD>
0.96914

> <CNNscore>
0.0549917780

> <CNNaffinity>
5.8449783325

> <CNN_VS>
0.3214257360

> <CNNaffinity_variance>
0.1473066956

$$$$
69:0


 29 31  0  0  0  0  0  0  0  0999 V2000
   58.3941   31.7051   45.0764 C   0  0  0  0  0  0  0  0  0  0  0  0
   58.0268   32.9048   44.4466 C   0  0  0  0  0  0  0  0  0  0  0  0
   58.1239   34.1161   45.1335 C   0  0  0  0  0  0  0  0  0  0  0  0
   58.5911   34.1394   46.4502 C   0  0  0  0  0  0  0  0  0  0  0  0
   58.9463   32.9443   47.0918 C   0  0  0  0  0  0  0  0  0  0  0  0
   58.8208   31.7273   46.4071 C   0  0  0  0  0  0  0  0  0  0  0  0
   59.6076   32.9726   48.7260 S   0  0  0  0  0  0  0  0  0  0  0  0
   59.2631   34.2804   49.3823 O   0  0  0  0  0  0  0  0  0  0  0  0
   58.9812   31.8683   49.5297 O   0  0  0  0  0  0  0  0  0  0  0  0
   61.3429   32.7646   48.7126 N   0  0  0  0  0  0  0  0  0  0  0  0
   61.9231   33.3775   47.5066 C   0  0  0  0  0  0  0  0  0  0  0  0
   63.4077   32.9949   47.3657 C   0  0  0  0  0  0  0  0  0  0  0  0
   64.0322   32.5724   48.7079 C   0  0  0  0  0  0  0  0  0  0  0  0
   63.4807   33.4130   49.8623 C   0  0  0  0  0  0  0  0  0  0  0  0
   61.9375   33.3522   49.9319 C   0  0  0  0  0  0  0  0  0  0  0  0
   58.3439   30.4571   44.3769 N   0  0  0  0  0  0  0  0  0  0  0  0
   56.2016   29.6862   44.8284 O   0  0  0  0  0  0  0  0  0  0  0  0
   57.4148   29.4010   44.6525 C   0  0  0  0  0  0  0  0  0  0  0  0
   57.8625   27.9726   44.7884 C   0  0  0  0  0  0  0  0  0  0  0  0
   57.5213   27.4715   46.1149 N   0  0  0  0  0  0  0  0  0  0  0  0
   57.7813   26.1344   46.5578 C   0  0  0  0  0  0  0  0  0  0  0  0
   58.4434   25.9594   47.6131 O   0  0  0  0  0  0  0  0  0  0  0  0
   57.2968   24.9581   45.8060 C   0  0  0  0  0  0  0  0  0  0  0  0
   58.2119   24.0034   45.3323 C   0  0  0  0  0  0  0  0  0  0  0  0
   57.7634   22.8858   44.6229 C   0  0  0  0  0  0  0  0  0  0  0  0
   56.3981   22.7060   44.3930 C   0  0  0  0  0  0  0  0  0  0  0  0
   55.4780   23.6375   44.8778 C   0  0  0  0  0  0  0  0  0  0  0  0
   55.9214   24.7620   45.5863 C   0  0  0  0  0  0  0  0  0  0  0  0
   54.9911   25.6818   46.0565 O   0  0  0  0  0  0  0  0  0  0  0  0
 17 18  2  0
 18 19  1  0
 19 20  1  0
 20 21  1  0
 21 22  2  0
 21 23  1  0
 23 24  2  0
 24 25  1  0
 25 26  2  0
 26 27  1  0
 27 28  2  0
 28 29  1  0
 18 16  1  0
 16  1  1  0
  1  2  2  0
  2  3  1  0
  3  4  2  0
  4  5  1  0
  5  7  1  0
  7  8  2  0
  7  9  2  0
  7 10  1  0
 10 11  1  0
 11 12  1  0
 12 13  1  0
 13 14  1  0
 14 15  1  0
  5  6  2  0
 28 23  1  0
  6  1  1  0
 15 10  1  0
M  CHG 1  16  -1
M  CHG 1  20  -1
M  CHG 1  29  -1
M  END
> <UniqueID>
65

> <SMILES>
O=C(C[N-]C(=O)c1ccccc1[O-])[N-]c1cccc(S(=O)(=O)N2CCCCC2)c1

> <Energy>
60.84856358993177

> <Genealogy>
O=C(C[N-]C(=O)c1ccccc1[O-])[N-]c1cccc(S(=O)(=O)N2CCCCC2)c1 (protonated)
O=C(C[N-]C(=O)c1ccccc1[O-])[N-]c1cccc(S(=O)(=O)N2CCCCC2)c1 (3D coordinates assigned)
O=C(C[N-]C(=O)c1ccccc1[O-])[N-]c1cccc(S(=O)(=O)N2CCCCC2)c1 (nonaromatic ring conformer: 60.84856358993177 kcal/mol)

> <smiles>
O=C(CNC(=O)c1ccccc1O)Nc1cccc(S(=O)(=O)N2CCCCC2)c1

> <score_type>
oracle

> <origin>
adg

> <m_score__min__energy>
-17.02

> <m_primary>
energy

> <minimizedAffinity>
-8.16948

> <minimizedRMSD>
0.94353

> <CNNscore>
0.7921223640

> <CNNaffinity>
7.0707287788

> <CNN_VS>
5.6008825302

> <CNNaffinity_variance>
0.0607425272

$$$$
73:0


 30 33  0  0  0  0  0  0  0  0999 V2000
   57.7883   28.2381   44.9194 C   0  0  0  0  0  0  0  0  0  0  0  0
   58.4424   27.3919   45.7286 C   0  0  0  0  0  0  0  0  0  0  0  0
   58.4163   25.9940   45.6664 C   0  0  0  0  0  0  0  0  0  0  0  0
   57.7131   25.2278   44.8105 C   0  0  0  0  0  0  0  0  0  0  0  0
   59.2127   25.5434   46.7119 C   0  0  0  0  0  0  0  0  0  0  0  0
   59.7052   26.6654   47.3475 C   0  0  0  0  0  0  0  0  0  0  0  0
   60.5930   26.6395   48.5550 C   0  0  0  0  0  0  0  0  0  0  0  0
   59.2314   27.7847   46.7589 N   0  0  0  0  0  0  0  0  0  0  0  0
   56.5395   24.4231   45.1949 C   0  0  0  0  0  0  0  0  0  0  0  0
   56.5055   23.0816   45.1140 N   0  0  0  0  0  0  0  0  0  0  0  0
   55.3010   22.7644   45.6369 C   0  0  0  0  0  0  0  0  0  0  0  0
   54.8901   21.5790   45.7233 O   0  0  0  0  0  0  0  0  0  0  0  0
   54.5753   23.8193   46.0675 N   0  0  0  0  0  0  0  0  0  0  0  0
   55.3769   24.8615   45.7932 C   0  0  0  0  0  0  0  0  0  0  0  0
   55.0713   26.1737   46.1280 O   0  0  0  0  0  0  0  0  0  0  0  0
   59.5296   29.1346   47.1570 C   0  0  0  0  0  0  0  0  0  0  0  0
   58.9177   29.6806   48.2943 C   0  0  0  0  0  0  0  0  0  0  0  0
   59.1991   30.9914   48.6841 C   0  0  0  0  0  0  0  0  0  0  0  0
   60.0947   31.7746   47.9392 C   0  0  0  0  0  0  0  0  0  0  0  0
   60.7109   31.2248   46.8032 C   0  0  0  0  0  0  0  0  0  0  0  0
   60.4285   29.9130   46.4126 C   0  0  0  0  0  0  0  0  0  0  0  0
   61.0474   29.3912   45.3237 F   0  0  0  0  0  0  0  0  0  0  0  0
   60.4240   33.1812   48.3667 C   0  0  0  0  0  0  0  0  0  0  0  0
   61.1557   33.1854   49.6545 N   0  0  0  0  0  0  0  0  0  0  0  0
   61.6066   31.8291   50.0535 C   0  0  0  0  0  0  0  0  0  0  0  0
   63.0644   31.5256   49.6538 C   0  0  0  0  0  0  0  0  0  0  0  0
   63.4380   32.2989   48.4694 N   0  0  0  0  0  0  0  0  0  0  0  0
   63.4405   33.7406   48.7614 C   0  0  0  0  0  0  0  0  0  0  0  0
   62.2704   34.1577   49.6815 C   0  0  0  0  0  0  0  0  0  0  0  0
   62.7685   32.1107   47.7232 H   0  0  0  0  0  0  0  0  0  0  0  0
  1  2  2  0
  2  3  1  0
  3  4  2  0
  4  9  1  0
  9 10  1  0
 10 11  1  0
 11 12  2  0
 11 13  1  0
 13 14  1  0
 14 15  1  0
  3  5  1  0
  5  6  2  0
  6  7  1  0
  6  8  1  0
  8 16  1  0
 16 17  2  0
 17 18  1  0
 18 19  2  0
 19 23  1  0
 23 24  1  0
 24 25  1  0
 25 26  1  0
 26 27  1  0
 27 28  1  0
 28 29  1  0
 19 20  1  0
 20 21  2  0
 21 22  1  0
  8  2  1  0
 21 16  1  0
 14  9  2  0
 29 24  1  0
 27 30  1  0
M  CHG 1  10  -1
M  CHG 1  13  -1
M  CHG 1  15  -1
M  END
> <UniqueID>
69

> <SMILES>
C=c1/c(=C/c2[n-]c(=O)[n-]c2[O-])cc(C)n1-c1ccc(CN2CCNCC2)cc1F

> <Energy>
134.04271953655893

> <Genealogy>
C=c1c(=Cc2[n-]c(=O)[n-]c2[O-])cc(C)n1-c1ccc(CN2CCNCC2)cc1F (protonated)
C=c1/c(=C/c2[n-]c(=O)[n-]c2[O-])cc(C)n1-c1ccc(CN2CCNCC2)cc1F (cis-trans isomerization)
C=c1/c(=C/c2[n-]c(=O)[n-]c2[O-])cc(C)n1-c1ccc(CN2CCNCC2)cc1F (3D coordinates assigned)
C=c1/c(=C/c2[n-]c(=O)[n-]c2[O-])cc(C)n1-c1ccc(CN2CCNCC2)cc1F (nonaromatic ring conformer: 134.04271953655893 kcal/mol)

> <smiles>
C=c1c(=Cc2[nH]c(=O)[nH]c2O)cc(C)n1-c1ccc(CN2CCNCC2)cc1F

> <score_type>
oracle

> <origin>
adg

> <m_score__min__energy>
-15.390000000000001

> <m_primary>
energy

> <minimizedAffinity>
-7.30097

> <minimizedRMSD>
0.72373

> <CNNscore>
0.0527646653

> <CNNaffinity>
5.9530067444

> <CNN_VS>
0.3141084015

> <CNNaffinity_variance>
0.0248521324

$$$$
77:0


 24 25  0  0  0  0  0  0  0  0999 V2000
   57.4720   30.9996   44.1400 C   0  0  0  0  0  0  0  0  0  0  0  0
   56.9504   29.6135   44.4077 C   0  0  0  0  0  0  0  0  0  0  0  0
   55.7229   29.4560   44.6457 O   0  0  0  0  0  0  0  0  0  0  0  0
   57.8051   28.4627   44.4030 N   0  0  0  0  0  0  0  0  0  0  0  0
   58.5182   27.9795   45.5463 C   0  0  0  0  0  0  0  0  0  0  0  0
   59.6458   28.6936   45.9723 C   0  0  0  0  0  0  0  0  0  0  0  0
   60.3349   28.3084   47.1234 C   0  0  0  0  0  0  0  0  0  0  0  0
   59.9095   27.1991   47.8531 C   0  0  0  0  0  0  0  0  0  0  0  0
   58.8065   26.4586   47.4220 C   0  0  0  0  0  0  0  0  0  0  0  0
   58.1059   26.8233   46.2556 C   0  0  0  0  0  0  0  0  0  0  0  0
   56.9944   25.9610   45.7841 C   0  0  0  0  0  0  0  0  0  0  0  0
   55.8165   26.1695   46.1797 O   0  0  0  0  0  0  0  0  0  0  0  0
   57.2332   24.8902   44.9311 O   0  0  0  0  0  0  0  0  0  0  0  0
   56.9178   31.9657   45.0892 N   0  0  0  0  0  0  0  0  0  0  0  0
   57.9682   33.3391   45.2821 S   0  0  0  0  0  0  0  0  0  0  0  0
   57.1386   34.5927   45.2820 O   0  0  0  0  0  0  0  0  0  0  0  0
   58.9350   33.4102   44.1318 O   0  0  0  0  0  0  0  0  0  0  0  0
   60.9204   33.0476   50.5793 C   0  0  0  0  0  0  0  0  0  0  0  0
   60.1734   33.1214   49.2796 C   0  0  0  0  0  0  0  0  0  0  0  0
   60.1466   34.3161   48.5467 C   0  0  0  0  0  0  0  0  0  0  0  0
   59.4795   34.3746   47.3194 C   0  0  0  0  0  0  0  0  0  0  0  0
   58.8408   33.2376   46.8089 C   0  0  0  0  0  0  0  0  0  0  0  0
   58.8846   32.0365   47.5297 C   0  0  0  0  0  0  0  0  0  0  0  0
   59.5523   31.9763   48.7564 C   0  0  0  0  0  0  0  0  0  0  0  0
 18 19  1  0
 19 20  2  0
 20 21  1  0
 21 22  2  0
 22 15  1  0
 15 16  2  0
 15 17  2  0
 15 14  1  0
 14  1  1  0
  1  2  1  0
  2  3  2  0
  2  4  1  0
  4  5  1  0
  5  6  2  0
  6  7  1  0
  7  8  2  0
  8  9  1  0
  9 10  2  0
 10 11  1  0
 11 12  2  0
 11 13  1  0
 22 23  1  0
 23 24  2  0
 24 19  1  0
 10  5  1  0
M  CHG 1   4  -1
M  CHG 1  13  -1
M  CHG 1  14  -1
M  END
> <UniqueID>
73

> <SMILES>
Cc1ccc(S(=O)(=O)[N-]CC(=O)[N-]c2ccccc2C(=O)[O-])cc1

> <Energy>
43.9428523376442

> <Genealogy>
Cc1ccc(S(=O)(=O)[N-]CC(=O)[N-]c2ccccc2C(=O)[O-])cc1 (protonated)
Cc1ccc(S(=O)(=O)[N-]CC(=O)[N-]c2ccccc2C(=O)[O-])cc1 (3D coordinates assigned)
Cc1ccc(S(=O)(=O)[N-]CC(=O)[N-]c2ccccc2C(=O)[O-])cc1 (optimized conformer: 43.9428523376442 kcal/mol)

> <smiles>
Cc1ccc(S(=O)(=O)NCC(=O)Nc2ccccc2C(=O)O)cc1

> <score_type>
oracle

> <origin>
adg

> <m_score__min__energy>
-15.220000000000001

> <m_primary>
energy

> <minimizedAffinity>
-6.81939

> <minimizedRMSD>
0.90443

> <CNNscore>
0.9247976542

> <CNNaffinity>
6.6781802177

> <CNN_VS>
6.1759653091

> <CNNaffinity_variance>
0.2312850952

$$$$
82:0


 36 40  0  0  0  0  0  0  0  0999 V2000
   58.9575   31.6652   46.5540 C   0  0  0  0  0  0  0  0  0  0  0  0
   57.8397   32.3508   46.0571 C   0  0  0  0  0  0  0  0  0  0  0  0
   57.8475   33.7429   45.9640 C   0  0  0  0  0  0  0  0  0  0  0  0
   58.9721   34.4634   46.3661 C   0  0  0  0  0  0  0  0  0  0  0  0
   60.0930   33.7938   46.8598 C   0  0  0  0  0  0  0  0  0  0  0  0
   60.1011   32.3923   46.9636 C   0  0  0  0  0  0  0  0  0  0  0  0
   58.5933   26.8738   45.5639 C   0  0  0  0  0  0  0  0  0  0  0  0
   58.7392   28.0354   46.2293 C   0  0  0  0  0  0  0  0  0  0  0  0
   58.7989   28.1924   47.6090 C   0  0  0  0  0  0  0  0  0  0  0  0
   58.9098   29.5480   47.8508 C   0  0  0  0  0  0  0  0  0  0  0  0
   58.9179   30.1745   49.2110 C   0  0  0  0  0  0  0  0  0  0  0  0
   58.8974   30.2344   46.6885 N   0  0  0  0  0  0  0  0  0  0  0  0
   58.8041   29.3224   45.6865 C   0  0  0  0  0  0  0  0  0  0  0  0
   58.8007   29.6392   44.3831 C   0  0  0  0  0  0  0  0  0  0  0  0
   55.5043   26.7100   45.9493 O   0  0  0  0  0  0  0  0  0  0  0  0
   56.4159   25.6950   46.2250 C   0  0  0  0  0  0  0  0  0  0  0  0
   56.0608   24.5087   46.7438 N   0  0  0  0  0  0  0  0  0  0  0  0
   57.2463   23.8807   46.8954 C   0  0  0  0  0  0  0  0  0  0  0  0
   57.3420   22.7182   47.3655 O   0  0  0  0  0  0  0  0  0  0  0  0
   58.3214   24.5999   46.5077 N   0  0  0  0  0  0  0  0  0  0  0  0
   57.7851   25.7489   46.0617 C   0  0  0  0  0  0  0  0  0  0  0  0
   54.5895   26.5706   46.0962 H   0  0  0  0  0  0  0  0  0  0  0  0
   61.3211   31.7052   47.4513 C   0  0  0  0  0  0  0  0  0  0  0  0
   61.7441   30.6906   46.8334 O   0  0  0  0  0  0  0  0  0  0  0  0
   62.0554   32.1946   48.5891 N   0  0  0  0  0  0  0  0  0  0  0  0
   63.5060   31.9494   48.6636 C   0  0  0  0  0  0  0  0  0  0  0  0
   64.1362   32.6813   49.8543 C   0  0  0  0  0  0  0  0  0  0  0  0
   63.4225   32.3359   51.1810 C   0  0  0  0  0  0  0  0  0  0  0  0
   61.8779   32.2183   51.0361 C   0  0  0  0  0  0  0  0  0  0  0  0
   61.3641   32.8215   49.7262 C   0  0  0  0  0  0  0  0  0  0  0  0
   63.8034   33.3397   52.2367 C   0  0  0  0  0  0  0  0  0  0  0  0
   63.2524   33.3082   53.3705 O   0  0  0  0  0  0  0  0  0  0  0  0
   64.7499   34.3660   51.9252 N   0  0  0  0  0  0  0  0  0  0  0  0
   66.0644   34.4284   52.5516 C   0  0  0  0  0  0  0  0  0  0  0  0
   66.7985   33.1015   52.5206 C   0  0  0  0  0  0  0  0  0  0  0  0
   67.2141   34.2247   51.5818 C   0  0  0  0  0  0  0  0  0  0  0  0
 15 16  1  0
 16 17  1  0
 17 18  1  0
 18 19  2  0
 18 20  1  0
 20 21  1  0
 21  7  1  0
  7  8  2  0
  8  9  1  0
  9 10  2  0
 10 11  1  0
 10 12  1  0
 12  1  1  0
  1  2  2  0
  2  3  1  0
  3  4  2  0
  4  5  1  0
  5  6  2  0
  6 23  1  0
 23 24  2  0
 23 25  1  0
 25 26  1  0
 26 27  1  0
 27 28  1  0
 28 31  1  0
 31 32  2  0
 31 33  1  0
 33 34  1  0
 34 35  1  0
 35 36  1  0
 28 29  1  0
 29 30  1  0
 12 13  1  0
 13 14  2  0
 21 16  2  0
 13  8  1  0
  6  1  1  0
 30 25  1  0
 36 34  1  0
 15 22  1  0
M  CHG 1  17  -1
M  CHG 1  20  -1
M  CHG 1  33  -1
M  END
> <UniqueID>
78

> <SMILES>
C=c1/c(=C/c2[n-]c(=O)[n-]c2O)cc(C)n1-c1ccccc1C(=O)N1CCC(C(=O)[N-]C2CC2)CC1

> <Energy>
404.56425581193037

> <Genealogy>
C=c1c(=Cc2[n-]c(=O)[n-]c2O)cc(C)n1-c1ccccc1C(=O)N1CCC(C(=O)[N-]C2CC2)CC1 (protonated)
C=c1/c(=C/c2[n-]c(=O)[n-]c2O)cc(C)n1-c1ccccc1C(=O)N1CCC(C(=O)[N-]C2CC2)CC1 (cis-trans isomerization)
C=c1/c(=C/c2[n-]c(=O)[n-]c2O)cc(C)n1-c1ccccc1C(=O)N1CCC(C(=O)[N-]C2CC2)CC1 (3D coordinates assigned)
C=c1/c(=C/c2[n-]c(=O)[n-]c2O)cc(C)n1-c1ccccc1C(=O)N1CCC(C(=O)[N-]C2CC2)CC1 (nonaromatic ring conformer: 404.56425581193037 kcal/mol)

> <smiles>
C=c1c(=Cc2[nH]c(=O)[nH]c2O)cc(C)n1-c1ccccc1C(=O)N1CCC(C(=O)NC2CC2)CC1

> <score_type>
oracle

> <origin>
adg

> <m_score__min__energy>
-15.199999999999999

> <m_primary>
energy

> <minimizedAffinity>
-8.54314

> <minimizedRMSD>
0.74902

> <CNNscore>
0.3203820586

> <CNNaffinity>
7.0869011879

> <CNN_VS>
2.2705159187

> <CNNaffinity_variance>
0.2122584432

$$$$
83:0


 33 36  0  0  0  0  0  0  0  0999 V2000
   58.5535   31.2253   45.7658 C   0  0  0  0  0  0  0  0  0  0  0  0
   58.0565   31.8593   44.6177 C   0  0  0  0  0  0  0  0  0  0  0  0
   57.8293   33.2365   44.6204 C   0  0  0  0  0  0  0  0  0  0  0  0
   58.1270   33.9929   45.7570 C   0  0  0  0  0  0  0  0  0  0  0  0
   58.6691   33.3802   46.8934 C   0  0  0  0  0  0  0  0  0  0  0  0
   58.8287   31.9855   46.9110 C   0  0  0  0  0  0  0  0  0  0  0  0
   58.1538   26.4139   44.9189 C   0  0  0  0  0  0  0  0  0  0  0  0
   58.6210   27.5975   45.3685 C   0  0  0  0  0  0  0  0  0  0  0  0
   59.8088   27.8313   46.0564 C   0  0  0  0  0  0  0  0  0  0  0  0
   59.8752   29.1904   46.2847 C   0  0  0  0  0  0  0  0  0  0  0  0
   61.0038   29.8843   46.9866 C   0  0  0  0  0  0  0  0  0  0  0  0
   58.7943   29.8102   45.7662 N   0  0  0  0  0  0  0  0  0  0  0  0
   58.0171   28.8501   45.2052 C   0  0  0  0  0  0  0  0  0  0  0  0
   56.8640   29.1043   44.5674 C   0  0  0  0  0  0  0  0  0  0  0  0
   55.3214   26.4817   46.0268 O   0  0  0  0  0  0  0  0  0  0  0  0
   56.2184   25.4377   46.2321 C   0  0  0  0  0  0  0  0  0  0  0  0
   55.9371   24.3401   46.9573 N   0  0  0  0  0  0  0  0  0  0  0  0
   57.0858   23.6350   46.8808 C   0  0  0  0  0  0  0  0  0  0  0  0
   57.2333   22.5167   47.4425 O   0  0  0  0  0  0  0  0  0  0  0  0
   58.0634   24.2229   46.1597 N   0  0  0  0  0  0  0  0  0  0  0  0
   57.5013   25.3729   45.7419 C   0  0  0  0  0  0  0  0  0  0  0  0
   54.4629   26.4421   46.4003 H   0  0  0  0  0  0  0  0  0  0  0  0
   58.9905   34.1888   48.0310 N   0  0  0  0  0  0  0  0  0  0  0  0
   60.1199   34.0426   48.9049 C   0  0  0  0  0  0  0  0  0  0  0  0
   61.2376   34.4726   48.5155 O   0  0  0  0  0  0  0  0  0  0  0  0
   60.0605   33.2589   50.1924 C   0  0  0  0  0  0  0  0  0  0  0  0
   61.0233   32.0652   50.1841 C   0  0  0  0  0  0  0  0  0  0  0  0
   62.4317   32.4701   50.5329 C   0  0  0  0  0  0  0  0  0  0  0  0
   62.6793   33.3298   51.6179 C   0  0  0  0  0  0  0  0  0  0  0  0
   63.9880   33.7070   51.9329 C   0  0  0  0  0  0  0  0  0  0  0  0
   65.0566   33.2360   51.1660 C   0  0  0  0  0  0  0  0  0  0  0  0
   64.8186   32.3874   50.0827 C   0  0  0  0  0  0  0  0  0  0  0  0
   63.5120   32.0047   49.7650 C   0  0  0  0  0  0  0  0  0  0  0  0
 15 16  1  0
 16 17  1  0
 17 18  1  0
 18 19  2  0
 18 20  1  0
 20 21  1  0
 21  7  1  0
  7  8  2  0
  8  9  1  0
  9 10  2  0
 10 11  1  0
 10 12  1  0
 12  1  1  0
  1  2  2  0
  2  3  1  0
  3  4  2  0
  4  5  1  0
  5 23  1  0
 23 24  1  0
 24 25  2  0
 24 26  1  0
 26 27  1  0
 27 28  1  0
 28 29  2  0
 29 30  1  0
 30 31  2  0
 31 32  1  0
 32 33  2  0
  5  6  2  0
 12 13  1  0
 13 14  2  0
 21 16  2  0
 13  8  1  0
  6  1  1  0
 33 28  1  0
 15 22  1  0
M  CHG 1  17  -1
M  CHG 1  20  -1
M  CHG 1  23  -1
M  END
> <UniqueID>
79

> <SMILES>
C=c1/c(=C/c2[n-]c(=O)[n-]c2O)cc(C)n1-c1cccc([N-]C(=O)CCc2ccccc2)c1

> <Energy>
122.97941299725767

> <Genealogy>
C=c1c(=Cc2[n-]c(=O)[n-]c2O)cc(C)n1-c1cccc([N-]C(=O)CCc2ccccc2)c1 (protonated)
C=c1/c(=C/c2[n-]c(=O)[n-]c2O)cc(C)n1-c1cccc([N-]C(=O)CCc2ccccc2)c1 (cis-trans isomerization)
C=c1/c(=C/c2[n-]c(=O)[n-]c2O)cc(C)n1-c1cccc([N-]C(=O)CCc2ccccc2)c1 (3D coordinates assigned)
C=c1/c(=C/c2[n-]c(=O)[n-]c2O)cc(C)n1-c1cccc([N-]C(=O)CCc2ccccc2)c1 (optimized conformer: 122.97941299725767 kcal/mol)

> <smiles>
C=c1c(=Cc2[nH]c(=O)[nH]c2O)cc(C)n1-c1cccc(NC(=O)CCc2ccccc2)c1

> <score_type>
oracle

> <origin>
adg

> <m_score__min__energy>
-14.77

> <m_primary>
energy

> <minimizedAffinity>
-9.31985

> <minimizedRMSD>
1.19989

> <CNNscore>
0.4598091245

> <CNNaffinity>
7.2989516258

> <CNN_VS>
3.3561246395

> <CNNaffinity_variance>
0.0424168445

$$$$
13:0


 32 35  0  0  0  0  0  0  0  0999 V2000
   60.9523   30.0490   46.6855 C   0  0  0  0  0  0  0  0  0  0  0  0
   60.1495   31.0993   46.4515 C   0  0  0  0  0  0  0  0  0  0  0  0
   59.1064   31.1549   45.5203 C   0  0  0  0  0  0  0  0  0  0  0  0
   58.7077   30.1821   44.6775 C   0  0  0  0  0  0  0  0  0  0  0  0
   58.5830   32.4383   45.5969 C   0  0  0  0  0  0  0  0  0  0  0  0
   59.3032   33.1024   46.5690 C   0  0  0  0  0  0  0  0  0  0  0  0
   59.0811   34.5305   46.9659 C   0  0  0  0  0  0  0  0  0  0  0  0
   60.2579   32.2945   47.0839 N   0  0  0  0  0  0  0  0  0  0  0  0
   58.2910   28.8344   45.1239 C   0  0  0  0  0  0  0  0  0  0  0  0
   56.9305   28.5441   45.3055 C   0  0  0  0  0  0  0  0  0  0  0  0
   55.9653   29.5233   45.1061 O   0  0  0  0  0  0  0  0  0  0  0  0
   56.5475   27.2998   45.6906 N   0  0  0  0  0  0  0  0  0  0  0  0
   57.4609   26.3153   45.8903 C   0  0  0  0  0  0  0  0  0  0  0  0
   57.0830   25.1706   46.2516 O   0  0  0  0  0  0  0  0  0  0  0  0
   58.7814   26.5641   45.6962 N   0  0  0  0  0  0  0  0  0  0  0  0
   59.2158   27.7902   45.3106 C   0  0  0  0  0  0  0  0  0  0  0  0
   60.4462   27.9738   45.1062 O   0  0  0  0  0  0  0  0  0  0  0  0
   61.1912   32.6505   48.1196 C   0  0  0  0  0  0  0  0  0  0  0  0
   62.4666   33.1259   47.7868 C   0  0  0  0  0  0  0  0  0  0  0  0
   63.3792   33.4567   48.7935 C   0  0  0  0  0  0  0  0  0  0  0  0
   63.0237   33.3263   50.1469 C   0  0  0  0  0  0  0  0  0  0  0  0
   61.7506   32.8315   50.4755 C   0  0  0  0  0  0  0  0  0  0  0  0
   60.8401   32.4998   49.4686 C   0  0  0  0  0  0  0  0  0  0  0  0
   63.9988   33.6641   51.2061 C   0  0  0  0  0  0  0  0  0  0  0  0
   63.7800   34.6656   51.9417 O   0  0  0  0  0  0  0  0  0  0  0  0
   65.1864   32.8761   51.4182 N   0  0  0  0  0  0  0  0  0  0  0  0
   66.3663   33.4949   52.0311 C   0  0  0  0  0  0  0  0  0  0  0  0
   67.6266   32.6971   51.6715 C   0  0  0  0  0  0  0  0  0  0  0  0
   67.5267   31.2494   51.9969 N   0  0  0  0  0  0  0  0  0  0  0  0
   68.3826   30.8957   53.1401 C   0  0  0  0  0  0  0  0  0  0  0  0
   66.1470   30.7575   52.2212 C   0  0  0  0  0  0  0  0  0  0  0  0
   65.1477   31.4146   51.2646 C   0  0  0  0  0  0  0  0  0  0  0  0
  1  2  2  0
  2  3  1  0
  3  4  2  0
  4  9  1  0
  9 10  2  0
 10 11  1  0
 10 12  1  0
 12 13  1  0
 13 14  2  0
 13 15  1  0
 15 16  1  0
 16 17  2  0
  3  5  1  0
  5  6  2  0
  6  7  1  0
  6  8  1  0
  8 18  1  0
 18 19  2  0
 19 20  1  0
 20 21  2  0
 21 24  1  0
 24 25  2  0
 24 26  1  0
 26 27  1  0
 27 28  1  0
 28 29  1  0
 29 30  1  0
 29 31  1  0
 31 32  1  0
 21 22  1  0
 22 23  2  0
  8  2  1  0
 23 18  1  0
 16  9  1  0
 32 26  1  0
M  CHG 1  11  -1
M  CHG 1  12  -1
M  CHG 1  15  -1
M  END
> <UniqueID>
12

> <SMILES>
C=c1c(=Cc2c([O-])[n-]c(=O)[n-]c2=O)cc(C)n1-c1ccc(C(=O)N2CCN(C)CC2)cc1

> <Energy>
113.24974729373211

> <Genealogy>
C=c1c(=Cc2c([O-])[n-]c(=O)[n-]c2=O)cc(C)n1-c1ccc(C(=O)N2CCN(C)CC2)cc1 (protonated)
C=c1c(=Cc2c([O-])[n-]c(=O)[n-]c2=O)cc(C)n1-c1ccc(C(=O)N2CCN(C)CC2)cc1 (3D coordinates assigned)
C=c1c(=Cc2c([O-])[n-]c(=O)[n-]c2=O)cc(C)n1-c1ccc(C(=O)N2CCN(C)CC2)cc1 (nonaromatic ring conformer: 113.24974729373211 kcal/mol)

> <smiles>
C=c1c(=Cc2c(O)[nH]c(=O)[nH]c2=O)cc(C)n1-c1ccc(C(=O)N2CCN(C)CC2)cc1

> <score_type>
oracle

> <origin>
adg

> <m_score__min__energy>
-16.489999999999998

> <m_primary>
energy

> <minimizedAffinity>
-7.43716

> <minimizedRMSD>
1.22077

> <CNNscore>
0.2806028724

> <CNNaffinity>
6.8678040504

> <CNN_VS>
1.9271255732

> <CNNaffinity_variance>
0.1781298071

$$$$
25:0


 30 33  0  0  0  0  0  0  0  0999 V2000
   59.4106   27.7395   47.2155 C   0  0  0  0  0  0  0  0  0  0  0  0
   58.7537   28.2192   46.1467 C   0  0  0  0  0  0  0  0  0  0  0  0
   58.1802   27.4673   45.1114 C   0  0  0  0  0  0  0  0  0  0  0  0
   58.1913   26.1223   44.9874 C   0  0  0  0  0  0  0  0  0  0  0  0
   57.5759   28.3869   44.2602 C   0  0  0  0  0  0  0  0  0  0  0  0
   57.8123   29.6385   44.7899 C   0  0  0  0  0  0  0  0  0  0  0  0
   57.3178   30.9233   44.1966 C   0  0  0  0  0  0  0  0  0  0  0  0
   58.5210   29.5398   45.9357 N   0  0  0  0  0  0  0  0  0  0  0  0
   57.4752   25.1665   45.8614 C   0  0  0  0  0  0  0  0  0  0  0  0
   57.9811   24.0309   46.3739 N   0  0  0  0  0  0  0  0  0  0  0  0
   56.9688   23.5425   47.1233 C   0  0  0  0  0  0  0  0  0  0  0  0
   57.0623   22.4665   47.7694 O   0  0  0  0  0  0  0  0  0  0  0  0
   55.8511   24.2992   47.1265 N   0  0  0  0  0  0  0  0  0  0  0  0
   56.1907   25.3234   46.3281 C   0  0  0  0  0  0  0  0  0  0  0  0
   55.3415   26.3822   46.0310 O   0  0  0  0  0  0  0  0  0  0  0  0
   58.9461   30.6404   46.7589 C   0  0  0  0  0  0  0  0  0  0  0  0
   58.9383   30.5191   48.1553 C   0  0  0  0  0  0  0  0  0  0  0  0
   59.3428   31.5908   48.9556 C   0  0  0  0  0  0  0  0  0  0  0  0
   59.7473   32.8015   48.3708 C   0  0  0  0  0  0  0  0  0  0  0  0
   59.7892   32.9047   46.9703 C   0  0  0  0  0  0  0  0  0  0  0  0
   59.3834   31.8348   46.1711 C   0  0  0  0  0  0  0  0  0  0  0  0
   60.1719   33.9616   49.2405 C   0  0  0  0  0  0  0  0  0  0  0  0
   61.6058   33.9488   49.6041 N   0  0  0  0  0  0  0  0  0  0  0  0
   61.9319   33.4564   50.9538 C   0  0  0  0  0  0  0  0  0  0  0  0
   62.2940   32.0025   50.9544 C   0  0  0  0  0  0  0  0  0  0  0  0
   62.1692   31.3290   52.0117 O   0  0  0  0  0  0  0  0  0  0  0  0
   62.8576   31.3979   49.7898 N   0  0  0  0  0  0  0  0  0  0  0  0
   62.7591   32.0144   48.4709 C   0  0  0  0  0  0  0  0  0  0  0  0
   62.5538   33.5374   48.5494 C   0  0  0  0  0  0  0  0  0  0  0  0
   63.3277   30.5376   49.8797 H   0  0  0  0  0  0  0  0  0  0  0  0
  1  2  2  0
  2  3  1  0
  3  4  2  0
  4  9  1  0
  9 10  1  0
 10 11  1  0
 11 12  2  0
 11 13  1  0
 13 14  1  0
 14 15  1  0
  3  5  1  0
  5  6  2  0
  6  7  1  0
  6  8  1  0
  8 16  1  0
 16 17  2  0
 17 18  1  0
 18 19  2  0
 19 22  1  0
 22 23  1  0
 23 24  1  0
 24 25  1  0
 25 26  2  0
 25 27  1  0
 27 28  1  0
 28 29  1  0
 19 20  1  0
 20 21  2  0
  8  2  1  0
 21 16  1  0
 14  9  2  0
 29 23  1  0
 27 30  1  0
M  CHG 1  10  -1
M  CHG 1  13  -1
M  CHG 1  15  -1
M  END
> <UniqueID>
21

> <SMILES>
C=c1/c(=C/c2[n-]c(=O)[n-]c2[O-])cc(C)n1-c1ccc(CN2CCNC(=O)C2)cc1

> <Energy>
128.21914739455414

> <Genealogy>
C=c1c(=Cc2[n-]c(=O)[n-]c2[O-])cc(C)n1-c1ccc(CN2CCNC(=O)C2)cc1 (protonated)
C=c1/c(=C/c2[n-]c(=O)[n-]c2[O-])cc(C)n1-c1ccc(CN2CCNC(=O)C2)cc1 (cis-trans isomerization)
C=c1/c(=C/c2[n-]c(=O)[n-]c2[O-])cc(C)n1-c1ccc(CN2CCNC(=O)C2)cc1 (3D coordinates assigned)
C=c1/c(=C/c2[n-]c(=O)[n-]c2[O-])cc(C)n1-c1ccc(CN2CCNC(=O)C2)cc1 (nonaromatic ring conformer: 128.21914739455414 kcal/mol)

> <smiles>
C=c1c(=Cc2[nH]c(=O)[nH]c2O)cc(C)n1-c1ccc(CN2CCNC(=O)C2)cc1

> <score_type>
oracle

> <origin>
adg

> <m_score__min__energy>
-15.81

> <m_primary>
energy

> <minimizedAffinity>
-8.28792

> <minimizedRMSD>
0.88419

> <CNNscore>
0.2120519280

> <CNNaffinity>
6.6666159630

> <CNN_VS>
1.4136687517

> <CNNaffinity_variance>
0.0275715757

$$$$
26:0


 29 31  0  0  0  0  0  0  0  0999 V2000
   59.8390   29.0783   46.4711 C   0  0  0  0  0  0  0  0  0  0  0  0
   59.0561   29.7212   45.5104 C   0  0  0  0  0  0  0  0  0  0  0  0
   57.7762   29.2578   45.2111 C   0  0  0  0  0  0  0  0  0  0  0  0
   57.2849   28.1287   45.8852 C   0  0  0  0  0  0  0  0  0  0  0  0
   56.1234   27.7051   45.6255 O   0  0  0  0  0  0  0  0  0  0  0  0
   58.0669   27.4704   46.8033 N   0  0  0  0  0  0  0  0  0  0  0  0
   59.3381   27.9121   47.0826 C   0  0  0  0  0  0  0  0  0  0  0  0
   60.1564   27.1803   47.9409 O   0  0  0  0  0  0  0  0  0  0  0  0
   56.8632   30.0502   43.9172 S   0  0  0  0  0  0  0  0  0  0  0  0
   56.8365   29.2129   42.6700 O   0  0  0  0  0  0  0  0  0  0  0  0
   55.4479   30.2570   44.3760 O   0  0  0  0  0  0  0  0  0  0  0  0
   57.5783   31.5933   43.5722 N   0  0  0  0  0  0  0  0  0  0  0  0
   57.9461   32.4438   44.4821 C   0  0  0  0  0  0  0  0  0  0  0  0
   58.9797   33.3050   44.2594 N   0  0  0  0  0  0  0  0  0  0  0  0
   59.3883   34.1977   45.2000 C   0  0  0  0  0  0  0  0  0  0  0  0
   58.7473   34.2498   46.4384 C   0  0  0  0  0  0  0  0  0  0  0  0
   57.6857   33.3792   46.6933 C   0  0  0  0  0  0  0  0  0  0  0  0
   57.2777   32.4729   45.7122 C   0  0  0  0  0  0  0  0  0  0  0  0
   61.4101   30.8088   47.2879 C   0  0  0  0  0  0  0  0  0  0  0  0
   61.1937   29.6113   46.7452 C   0  0  0  0  0  0  0  0  0  0  0  0
   57.5765   26.2110   47.4011 C   0  0  0  0  0  0  0  0  0  0  0  0
   57.4877   25.1214   46.3612 C   0  0  0  0  0  0  0  0  0  0  0  0
   58.5973   24.3957   46.0418 N   0  0  0  0  0  0  0  0  0  0  0  0
   58.5756   23.4019   45.1148 C   0  0  0  0  0  0  0  0  0  0  0  0
   59.8258   22.6347   44.8217 C   0  0  0  0  0  0  0  0  0  0  0  0
   57.3713   23.0745   44.4787 C   0  0  0  0  0  0  0  0  0  0  0  0
   56.2160   23.7889   44.7952 C   0  0  0  0  0  0  0  0  0  0  0  0
   56.2645   24.8145   45.7415 C   0  0  0  0  0  0  0  0  0  0  0  0
   55.1067   25.5164   46.0596 O   0  0  0  0  0  0  0  0  0  0  0  0
 19 20  2  0
 20  1  1  0
  1  2  1  0
  2  3  2  0
  3  9  1  0
  9 10  2  0
  9 11  2  0
  9 12  1  0
 12 13  2  0
 13 14  1  0
 14 15  1  0
 15 16  2  0
 16 17  1  0
 17 18  2  0
  3  4  1  0
  4  5  2  0
  4  6  1  0
  6 21  1  0
 21 22  1  0
 22 23  2  0
 23 24  1  0
 24 25  1  0
 24 26  2  0
 26 27  1  0
 27 28  2  0
 28 29  1  0
  6  7  1  0
  7  8  1  0
  7  1  2  0
 18 13  1  0
 28 22  1  0
M  CHG 1   8  -1
M  CHG 1  14  -1
M  CHG 1  29  -1
M  END
> <UniqueID>
22

> <SMILES>
C=Cc1cc(S(=O)(=O)/N=c2/cccc[n-]2)c(=O)n(Cc2nc(C)ccc2[O-])c1[O-]

> <Energy>
56.42906851131294

> <Genealogy>
C=Cc1cc(S(=O)(=O)N=c2cccc[n-]2)c(=O)n(Cc2nc(C)ccc2[O-])c1[O-] (protonated)
C=Cc1cc(S(=O)(=O)/N=c2/cccc[n-]2)c(=O)n(Cc2nc(C)ccc2[O-])c1[O-] (cis-trans isomerization)
C=Cc1cc(S(=O)(=O)/N=c2/cccc[n-]2)c(=O)n(Cc2nc(C)ccc2[O-])c1[O-] (3D coordinates assigned)
C=Cc1cc(S(=O)(=O)/N=c2/cccc[n-]2)c(=O)n(Cc2nc(C)ccc2[O-])c1[O-] (optimized conformer: 56.42906851131294 kcal/mol)

> <smiles>
C=Cc1cc(S(=O)(=O)N=c2cccc[nH]2)c(=O)n(Cc2nc(C)ccc2O)c1O

> <score_type>
oracle

> <origin>
adg

> <m_score__min__energy>
-15.43

> <m_primary>
energy

> <minimizedAffinity>
-5.69985

> <minimizedRMSD>
0.65772

> <CNNscore>
0.3202421963

> <CNNaffinity>
6.4998164177

> <CNN_VS>
2.0815155506

> <CNNaffinity_variance>
0.0009066300

$$$$
33:0


 23 24  0  0  0  0  0  0  0  0999 V2000
   58.3419   27.6147   45.7500 C   0  0  0  0  0  0  0  0  0  0  0  0
   56.9974   27.6127   45.6327 N   0  0  0  0  0  0  0  0  0  0  0  0
   56.6034   26.3872   46.0375 C   0  0  0  0  0  0  0  0  0  0  0  0
   55.2708   25.9970   46.0707 O   0  0  0  0  0  0  0  0  0  0  0  0
   57.6769   25.5893   46.3922 C   0  0  0  0  0  0  0  0  0  0  0  0
   58.7886   26.3784   46.1879 C   0  0  0  0  0  0  0  0  0  0  0  0
   60.1128   25.9922   46.3520 O   0  0  0  0  0  0  0  0  0  0  0  0
   60.4692   29.9569   47.6938 C   0  0  0  0  0  0  0  0  0  0  0  0
   59.8058   30.6599   46.7563 C   0  0  0  0  0  0  0  0  0  0  0  0
   59.7873   32.0593   46.9048 C   0  0  0  0  0  0  0  0  0  0  0  0
   58.9157   32.8441   46.1595 C   0  0  0  0  0  0  0  0  0  0  0  0
   58.9010   34.2231   46.3391 O   0  0  0  0  0  0  0  0  0  0  0  0
   58.0398   32.2520   45.2599 C   0  0  0  0  0  0  0  0  0  0  0  0
   58.0630   30.8675   45.0352 C   0  0  0  0  0  0  0  0  0  0  0  0
   57.1064   30.3146   44.0022 C   0  0  0  0  0  0  0  0  0  0  0  0
   59.0265   30.0508   45.7118 C   0  0  0  0  0  0  0  0  0  0  0  0
   59.1793   28.7527   45.3241 C   0  0  0  0  0  0  0  0  0  0  0  0
   57.6474   24.1920   46.8578 C   0  0  0  0  0  0  0  0  0  0  0  0
   57.1673   23.9306   47.9927 O   0  0  0  0  0  0  0  0  0  0  0  0
   58.1339   23.1499   45.9944 N   0  0  0  0  0  0  0  0  0  0  0  0
   58.0180   23.0320   44.7018 C   0  0  0  0  0  0  0  0  0  0  0  0
   56.7132   23.0195   43.9503 C   0  0  0  0  0  0  0  0  0  0  0  0
   56.5794   21.7663   43.0889 C   0  0  0  0  0  0  0  0  0  0  0  0
  8  9  2  0
  9 10  1  0
 10 11  2  0
 11 12  1  0
 11 13  1  0
 13 14  2  0
 14 15  1  0
 14 16  1  0
 16 17  2  0
 17  1  1  0
  1  2  1  0
  2  3  1  0
  3  4  1  0
  3  5  2  0
  5 18  1  0
 18 19  2  0
 18 20  1  0
 20 21  2  0
 21 22  1  0
 22 23  1  0
  5  6  1  0
  6  7  1  0
 16  9  1  0
  6  1  2  0
M  CHG 1   2  -1
M  CHG 1   4  -1
M  CHG 1   7  -1
M  CHG 1  12  -1
M  END
> <UniqueID>
29

> <SMILES>
C=c1cc([O-])cc(C)c1=Cc1[n-]c([O-])c(C(=O)/N=C\CC)c1[O-]

> <Energy>
90.50390460020877

> <Genealogy>
C=c1cc([O-])cc(C)c1=Cc1[n-]c([O-])c(C(=O)N=CCC)c1[O-] (protonated)
C=c1cc([O-])cc(C)c1=Cc1[n-]c([O-])c(C(=O)/N=C\CC)c1[O-] (cis-trans isomerization)
C=c1cc([O-])cc(C)c1=Cc1[n-]c([O-])c(C(=O)/N=C\CC)c1[O-] (3D coordinates assigned)
C=c1cc([O-])cc(C)c1=Cc1[n-]c([O-])c(C(=O)/N=C\CC)c1[O-] (optimized conformer: 90.50390460020877 kcal/mol)

> <smiles>
C=c1cc(O)cc(C)c1=Cc1[nH]c(O)c(C(=O)N=CCC)c1O

> <score_type>
oracle

> <origin>
adg

> <m_score__min__energy>
-14.76

> <m_primary>
energy

> <minimizedAffinity>
-7.83092

> <minimizedRMSD>
1.05161

> <CNNscore>
0.6936261654

> <CNNaffinity>
6.6412816048

> <CNN_VS>
4.6065669060

> <CNNaffinity_variance>
0.2796785533

$$$$
37:0


 34 37  0  0  0  0  0  0  0  0999 V2000
   57.2690   27.5426   45.8864 C   0  0  0  0  0  0  0  0  0  0  0  0
   56.2748   26.6350   45.9022 N   0  0  0  0  0  0  0  0  0  0  0  0
   56.7964   25.6048   46.5958 C   0  0  0  0  0  0  0  0  0  0  0  0
   56.1522   24.5496   46.8317 O   0  0  0  0  0  0  0  0  0  0  0  0
   58.0643   25.7896   47.0113 N   0  0  0  0  0  0  0  0  0  0  0  0
   58.3689   27.0190   46.5534 C   0  0  0  0  0  0  0  0  0  0  0  0
   55.9977   29.2504   44.8786 O   0  0  0  0  0  0  0  0  0  0  0  0
   57.1440   28.8455   45.2084 C   0  0  0  0  0  0  0  0  0  0  0  0
   58.2903   29.6751   44.9708 N   0  0  0  0  0  0  0  0  0  0  0  0
   59.1484   29.4289   45.3860 H   0  0  0  0  0  0  0  0  0  0  0  0
   58.2303   30.8727   44.1346 C   0  0  0  0  0  0  0  0  0  0  0  0
   57.3338   31.9318   44.7833 C   0  0  0  0  0  0  0  0  0  0  0  0
   58.1661   32.9678   45.4893 C   0  0  0  0  0  0  0  0  0  0  0  0
   58.1734   33.0370   46.8926 C   0  0  0  0  0  0  0  0  0  0  0  0
   58.9252   34.0191   47.5453 C   0  0  0  0  0  0  0  0  0  0  0  0
   59.6683   34.9420   46.8026 C   0  0  0  0  0  0  0  0  0  0  0  0
   59.6517   34.8901   45.4066 C   0  0  0  0  0  0  0  0  0  0  0  0
   58.9012   33.9111   44.7488 C   0  0  0  0  0  0  0  0  0  0  0  0
   59.7266   27.6363   46.7320 C   0  0  0  0  0  0  0  0  0  0  0  0
   60.1939   27.5802   48.1661 C   0  0  0  0  0  0  0  0  0  0  0  0
   60.6427   26.4942   48.6314 O   0  0  0  0  0  0  0  0  0  0  0  0
   60.1009   28.7366   49.0252 N   0  0  0  0  0  0  0  0  0  0  0  0
   59.2808   29.8973   48.6443 C   0  0  0  0  0  0  0  0  0  0  0  0
   58.9009   30.7247   49.8804 C   0  0  0  0  0  0  0  0  0  0  0  0
   60.0750   31.1103   50.6999 N   0  0  0  0  0  0  0  0  0  0  0  0
   61.2452   30.2055   50.6167 C   0  0  0  0  0  0  0  0  0  0  0  0
   60.8335   28.7666   50.2970 C   0  0  0  0  0  0  0  0  0  0  0  0
   60.4251   32.5478   50.6385 C   0  0  0  0  0  0  0  0  0  0  0  0
   61.5324   32.8676   49.6532 C   0  0  0  0  0  0  0  0  0  0  0  0
   62.5830   33.7324   50.0095 C   0  0  0  0  0  0  0  0  0  0  0  0
   63.6010   34.0229   49.0967 C   0  0  0  0  0  0  0  0  0  0  0  0
   63.5919   33.4408   47.8264 C   0  0  0  0  0  0  0  0  0  0  0  0
   62.5675   32.5609   47.4705 C   0  0  0  0  0  0  0  0  0  0  0  0
   61.5472   32.2678   48.3805 C   0  0  0  0  0  0  0  0  0  0  0  0
  7  8  2  0
  8  9  1  0
  9 11  1  0
 11 12  1  0
 12 13  1  0
 13 14  2  0
 14 15  1  0
 15 16  2  0
 16 17  1  0
 17 18  2  0
  8  1  1  0
  1  2  1  0
  2  3  1  0
  3  4  2  0
  3  5  1  0
  5  6  1  0
  6 19  1  0
 19 20  1  0
 20 21  2  0
 20 22  1  0
 22 23  1  0
 23 24  1  0
 24 25  1  0
 25 28  1  0
 28 29  1  0
 29 30  2  0
 30 31  1  0
 31 32  2  0
 32 33  1  0
 33 34  2  0
 25 26  1  0
 26 27  1  0
 18 13  1  0
  6  1  2  0
 27 22  1  0
 34 29  1  0
  9 10  1  0
M  CHG 1   2  -1
M  CHG 1   5  -1
M  END
> <UniqueID>
32

> <SMILES>
O=C(NCCc1ccccc1)c1[n-]c(=O)[n-]c1CC(=O)N1CCN(Cc2ccccc2)CC1

> <Energy>
98.43645128657616

> <Genealogy>
O=C(NCCc1ccccc1)c1[n-]c(=O)[n-]c1CC(=O)N1CCN(Cc2ccccc2)CC1 (protonated)
O=C(NCCc1ccccc1)c1[n-]c(=O)[n-]c1CC(=O)N1CCN(Cc2ccccc2)CC1 (3D coordinates assigned)
O=C(NCCc1ccccc1)c1[n-]c(=O)[n-]c1CC(=O)N1CCN(Cc2ccccc2)CC1 (nonaromatic ring conformer: 98.43645128657616 kcal/mol)

> <smiles>
O=C(NCCc1ccccc1)c1[nH]c(=O)[nH]c1CC(=O)N1CCN(Cc2ccccc2)CC1

> <score_type>
oracle

> <origin>
adg

> <m_score__min__energy>
-14.210000000000001

> <m_primary>
energy

> <minimizedAffinity>
-7.72691

> <minimizedRMSD>
0.64572

> <CNNscore>
0.5200332999

> <CNNaffinity>
6.7843909264

> <CNN_VS>
3.5281093121

> <CNNaffinity_variance>
0.4197407663

$$$$
41:0


 23 25  0  0  0  0  0  0  0  0999 V2000
   58.1658   30.0327   44.6794 C   0  0  0  0  0  0  0  0  0  0  0  0
   58.4807   29.3969   45.8214 C   0  0  0  0  0  0  0  0  0  0  0  0
   58.2165   28.0558   46.1496 C   0  0  0  0  0  0  0  0  0  0  0  0
   57.7534   27.0337   45.4026 C   0  0  0  0  0  0  0  0  0  0  0  0
   58.5418   27.9148   47.4891 C   0  0  0  0  0  0  0  0  0  0  0  0
   59.0414   29.1289   47.9117 C   0  0  0  0  0  0  0  0  0  0  0  0
   59.5273   29.4117   49.2997 C   0  0  0  0  0  0  0  0  0  0  0  0
   59.0037   30.0292   46.9034 N   0  0  0  0  0  0  0  0  0  0  0  0
   57.4180   25.6869   45.9031 C   0  0  0  0  0  0  0  0  0  0  0  0
   56.0922   25.3305   46.2026 C   0  0  0  0  0  0  0  0  0  0  0  0
   55.0602   26.2533   46.0695 O   0  0  0  0  0  0  0  0  0  0  0  0
   55.8079   24.0697   46.6212 N   0  0  0  0  0  0  0  0  0  0  0  0
   56.7843   23.1342   46.7397 C   0  0  0  0  0  0  0  0  0  0  0  0
   56.4990   21.9748   47.1327 O   0  0  0  0  0  0  0  0  0  0  0  0
   58.0682   23.4475   46.4293 N   0  0  0  0  0  0  0  0  0  0  0  0
   58.4040   24.6950   46.0075 C   0  0  0  0  0  0  0  0  0  0  0  0
   59.6050   24.9487   45.7207 O   0  0  0  0  0  0  0  0  0  0  0  0
   59.4271   31.4023   46.9881 C   0  0  0  0  0  0  0  0  0  0  0  0
   60.7933   31.7155   47.0657 C   0  0  0  0  0  0  0  0  0  0  0  0
   61.2051   33.0491   47.1566 C   0  0  0  0  0  0  0  0  0  0  0  0
   60.2563   34.0749   47.1697 C   0  0  0  0  0  0  0  0  0  0  0  0
   58.8934   33.7690   47.0943 C   0  0  0  0  0  0  0  0  0  0  0  0
   58.4783   32.4371   47.0028 C   0  0  0  0  0  0  0  0  0  0  0  0
  1  2  2  0
  2  3  1  0
  3  4  2  0
  4  9  1  0
  9 10  2  0
 10 11  1  0
 10 12  1  0
 12 13  1  0
 13 14  2  0
 13 15  1  0
 15 16  1  0
 16 17  2  0
  3  5  1  0
  5  6  2  0
  6  7  1  0
  6  8  1  0
  8 18  1  0
 18 19  2  0
 19 20  1  0
 20 21  2  0
 21 22  1  0
 22 23  2  0
  8  2  1  0
 23 18  1  0
 16  9  1  0
M  CHG 1  11  -1
M  CHG 1  12  -1
M  CHG 1  15  -1
M  END
> <UniqueID>
36

> <SMILES>
C=c1/c(=C\c2c([O-])[n-]c(=O)[n-]c2=O)cc(C)n1-c1ccccc1

> <Energy>
86.78649123307822

> <Genealogy>
C=c1c(=Cc2c([O-])[n-]c(=O)[n-]c2=O)cc(C)n1-c1ccccc1 (protonated)
C=c1/c(=C\c2c([O-])[n-]c(=O)[n-]c2=O)cc(C)n1-c1ccccc1 (cis-trans isomerization)
C=c1/c(=C\c2c([O-])[n-]c(=O)[n-]c2=O)cc(C)n1-c1ccccc1 (3D coordinates assigned)
C=c1/c(=C\c2c([O-])[n-]c(=O)[n-]c2=O)cc(C)n1-c1ccccc1 (optimized conformer: 86.78649123307822 kcal/mol)

> <smiles>
C=c1c(=Cc2c(O)[nH]c(=O)[nH]c2=O)cc(C)n1-c1ccccc1

> <score_type>
oracle

> <origin>
adg

> <m_score__min__energy>
-15.4

> <m_primary>
energy

> <minimizedAffinity>
-7.80681

> <minimizedRMSD>
1.33280

> <CNNscore>
0.4794035256

> <CNNaffinity>
6.5682053566

> <CNN_VS>
3.1488208771

> <CNNaffinity_variance>
0.7195382118

$$$$
45:0


 31 34  0  0  0  0  0  0  0  0999 V2000
   56.2516   25.1677   45.9052 N   0  0  0  0  0  0  0  0  0  0  0  0
   56.9130   26.2726   46.0911 C   0  0  0  0  0  0  0  0  0  0  0  0
   56.5300   27.3915   45.4262 N   0  0  0  0  0  0  0  0  0  0  0  0
   57.2176   28.5551   45.5762 C   0  0  0  0  0  0  0  0  0  0  0  0
   56.8568   29.6322   44.9442 N   0  0  0  0  0  0  0  0  0  0  0  0
   58.2986   28.5937   46.3946 N   0  0  0  0  0  0  0  0  0  0  0  0
   58.6969   27.4750   47.0593 C   0  0  0  0  0  0  0  0  0  0  0  0
   59.7353   27.4955   47.8376 N   0  0  0  0  0  0  0  0  0  0  0  0
   58.0048   26.3181   46.9008 N   0  0  0  0  0  0  0  0  0  0  0  0
   57.4200   21.7022   43.7509 C   0  0  0  0  0  0  0  0  0  0  0  0
   58.0675   22.0144   44.9476 C   0  0  0  0  0  0  0  0  0  0  0  0
   57.7021   23.1570   45.6659 C   0  0  0  0  0  0  0  0  0  0  0  0
   56.6918   24.0078   45.1777 C   0  0  0  0  0  0  0  0  0  0  0  0
   56.0262   23.6681   43.9908 C   0  0  0  0  0  0  0  0  0  0  0  0
   56.3965   22.5258   43.2754 C   0  0  0  0  0  0  0  0  0  0  0  0
   60.3167   28.7234   48.3720 C   0  0  0  0  0  0  0  0  0  0  0  0
   59.4196   29.4093   49.3857 C   0  0  0  0  0  0  0  0  0  0  0  0
   60.6519   28.6461   49.8497 C   0  0  0  0  0  0  0  0  0  0  0  0
   57.7749   30.5711   44.3017 C   0  0  0  0  0  0  0  0  0  0  0  0
   58.3371   31.5389   45.3088 C   0  0  0  0  0  0  0  0  0  0  0  0
   59.5293   31.2494   45.9904 C   0  0  0  0  0  0  0  0  0  0  0  0
   60.0304   32.1407   46.9434 C   0  0  0  0  0  0  0  0  0  0  0  0
   59.3473   33.3348   47.2266 C   0  0  0  0  0  0  0  0  0  0  0  0
   58.1500   33.6189   46.5508 C   0  0  0  0  0  0  0  0  0  0  0  0
   57.6499   32.7276   45.5979 C   0  0  0  0  0  0  0  0  0  0  0  0
   59.8896   34.2878   48.2574 C   0  0  0  0  0  0  0  0  0  0  0  0
   61.3454   34.1672   48.3593 N   0  0  0  0  0  0  0  0  0  0  0  0
   61.8220   33.5234   49.9045 S   0  0  0  0  0  0  0  0  0  0  0  0
   60.6346   33.4274   50.8225 O   0  0  0  0  0  0  0  0  0  0  0  0
   62.8375   34.4448   50.5174 O   0  0  0  0  0  0  0  0  0  0  0  0
   62.5562   31.9135   49.7083 C   0  0  0  0  0  0  0  0  0  0  0  0
 10 11  2  0
 11 12  1  0
 12 13  2  0
 13  1  1  0
  1  2  2  0
  2  3  1  0
  3  4  1  0
  4  5  2  0
  5 19  1  0
 19 20  1  0
 20 21  2  0
 21 22  1  0
 22 23  2  0
 23 26  1  0
 26 27  1  0
 27 28  1  0
 28 29  2  0
 28 30  2  0
 28 31  1  0
 23 24  1  0
 24 25  2  0
  4  6  1  0
  6  7  1  0
  7  8  2  0
  8 16  1  0
 16 17  1  0
 17 18  1  0
  7  9  1  0
 13 14  1  0
 14 15  2  0
 15 10  1  0
  9  2  1  0
 25 20  1  0
 18 16  1  0
M  CHG 1   3  -1
M  CHG 1   6  -1
M  CHG 1   9  -1
M  CHG 1  27  -1
M  END
> <UniqueID>
40

> <SMILES>
CS(=O)(=O)[N-]Cc1ccc(CN=c2[n-]c(=NC3CC3)[n-]/c(=N\c3ccccc3)[n-]2)cc1

> <Energy>
319.3754874787413

> <Genealogy>
CS(=O)(=O)[N-]Cc1ccc(CN=c2[n-]c(=Nc3ccccc3)[n-]c(=NC3CC3)[n-]2)cc1 (protonated)
CS(=O)(=O)[N-]Cc1ccc(CN=c2[n-]c(=NC3CC3)[n-]/c(=N\c3ccccc3)[n-]2)cc1 (cis-trans isomerization)
CS(=O)(=O)[N-]Cc1ccc(CN=c2[n-]c(=NC3CC3)[n-]/c(=N\c3ccccc3)[n-]2)cc1 (3D coordinates assigned)
CS(=O)(=O)[N-]Cc1ccc(CN=c2[n-]c(=NC3CC3)[n-]/c(=N\c3ccccc3)[n-]2)cc1 (nonaromatic ring conformer: 319.3754874787413 kcal/mol)

> <smiles>
CS(=O)(=O)NCc1ccc(CN=c2[nH]c(=Nc3ccccc3)[nH]c(=NC3CC3)[nH]2)cc1

> <score_type>
oracle

> <origin>
adg

> <m_score__min__energy>
-14.300000000000001

> <m_primary>
energy

> <minimizedAffinity>
-8.25843

> <minimizedRMSD>
1.08707

> <CNNscore>
0.4250454307

> <CNNaffinity>
6.8394145966

> <CNN_VS>
2.9070618153

> <CNNaffinity_variance>
0.1154292822

$$$$
47:0


 28 30  0  0  0  0  0  0  0  0999 V2000
   56.7246   29.2836   43.6765 C   0  0  0  0  0  0  0  0  0  0  0  0
   57.8137   29.0337   44.4233 C   0  0  0  0  0  0  0  0  0  0  0  0
   58.2434   27.7743   44.8747 C   0  0  0  0  0  0  0  0  0  0  0  0
   57.8575   26.5288   44.5318 C   0  0  0  0  0  0  0  0  0  0  0  0
   59.2474   28.0132   45.7945 C   0  0  0  0  0  0  0  0  0  0  0  0
   59.4609   29.3737   45.8098 C   0  0  0  0  0  0  0  0  0  0  0  0
   60.4873   30.0456   46.6747 C   0  0  0  0  0  0  0  0  0  0  0  0
   58.5921   30.0037   44.9810 N   0  0  0  0  0  0  0  0  0  0  0  0
   57.4132   25.4755   45.4577 C   0  0  0  0  0  0  0  0  0  0  0  0
   58.0638   24.3094   45.6174 N   0  0  0  0  0  0  0  0  0  0  0  0
   57.2494   23.6060   46.4339 C   0  0  0  0  0  0  0  0  0  0  0  0
   57.5301   22.4451   46.8334 O   0  0  0  0  0  0  0  0  0  0  0  0
   56.1047   24.2361   46.7764 N   0  0  0  0  0  0  0  0  0  0  0  0
   56.2146   25.4113   46.1359 C   0  0  0  0  0  0  0  0  0  0  0  0
   55.2247   26.3862   46.1421 O   0  0  0  0  0  0  0  0  0  0  0  0
   58.5477   31.4562   44.7340 C   0  0  0  0  0  0  0  0  0  0  0  0
   57.7188   32.2053   45.7908 C   0  0  0  0  0  0  0  0  0  0  0  0
   58.3179   33.5565   46.2005 C   0  0  0  0  0  0  0  0  0  0  0  0
   59.7747   33.4969   46.3155 N   0  0  0  0  0  0  0  0  0  0  0  0
   60.4216   33.6420   47.5862 C   0  0  0  0  0  0  0  0  0  0  0  0
   59.7340   33.7851   48.6352 O   0  0  0  0  0  0  0  0  0  0  0  0
   60.3193   33.3550   45.5077 H   0  0  0  0  0  0  0  0  0  0  0  0
   61.9181   33.6344   47.6857 C   0  0  0  0  0  0  0  0  0  0  0  0
   62.3444   33.2332   49.0614 C   0  0  0  0  0  0  0  0  0  0  0  0
   62.7943   34.0900   50.0564 C   0  0  0  0  0  0  0  0  0  0  0  0
   63.1895   33.4202   51.2204 C   0  0  0  0  0  0  0  0  0  0  0  0
   63.0613   32.0393   51.1424 C   0  0  0  0  0  0  0  0  0  0  0  0
   62.4597   31.6511   49.6200 S   0  0  0  0  0  0  0  0  0  0  0  0
  1  2  2  0
  2  3  1  0
  3  4  2  0
  4  9  1  0
  9 10  1  0
 10 11  1  0
 11 12  2  0
 11 13  1  0
 13 14  1  0
 14 15  1  0
  3  5  1  0
  5  6  2  0
  6  7  1  0
  6  8  1  0
  8 16  1  0
 16 17  1  0
 17 18  1  0
 18 19  1  0
 19 20  1  0
 20 21  2  0
 20 23  1  0
 23 24  1  0
 24 25  2  0
 25 26  1  0
 26 27  2  0
 27 28  1  0
  8  2  1  0
 28 24  1  0
 14  9  2  0
 19 22  1  0
M  CHG 1  10  -1
M  CHG 1  13  -1
M  CHG 1  15  -1
M  END
> <UniqueID>
42

> <SMILES>
C=c1c(=Cc2[n-]c(=O)[n-]c2[O-])cc(C)n1CCCNC(=O)Cc1cccs1

> <Energy>
132.44605938741134

> <Genealogy>
C=c1c(=Cc2[n-]c(=O)[n-]c2[O-])cc(C)n1CCCNC(=O)Cc1cccs1 (protonated)
C=c1c(=Cc2[n-]c(=O)[n-]c2[O-])cc(C)n1CCCNC(=O)Cc1cccs1 (3D coordinates assigned)
C=c1c(=Cc2[n-]c(=O)[n-]c2[O-])cc(C)n1CCCNC(=O)Cc1cccs1 (optimized conformer: 132.44605938741134 kcal/mol)

> <smiles>
C=c1c(=Cc2[nH]c(=O)[nH]c2O)cc(C)n1CCCNC(=O)Cc1cccs1

> <score_type>
oracle

> <origin>
adg

> <m_score__min__energy>
-16.300000000000001

> <m_primary>
energy

> <minimizedAffinity>
-6.68880

> <minimizedRMSD>
1.09403

> <CNNscore>
0.0882287621

> <CNNaffinity>
6.3359489441

> <CNN_VS>
0.5590129495

> <CNNaffinity_variance>
0.0272192191

$$$$
48:0


 31 34  0  0  0  0  0  0  0  0999 V2000
   59.0596   31.6780   46.7609 C   0  0  0  0  0  0  0  0  0  0  0  0
   58.0022   32.4083   46.1993 C   0  0  0  0  0  0  0  0  0  0  0  0
   58.0713   33.7981   46.1130 C   0  0  0  0  0  0  0  0  0  0  0  0
   59.1908   34.4707   46.6044 C   0  0  0  0  0  0  0  0  0  0  0  0
   60.2515   33.7556   47.1660 C   0  0  0  0  0  0  0  0  0  0  0  0
   60.2180   32.3519   47.2303 C   0  0  0  0  0  0  0  0  0  0  0  0
   61.3805   31.6196   47.7959 C   0  0  0  0  0  0  0  0  0  0  0  0
   61.7884   30.5626   47.2415 O   0  0  0  0  0  0  0  0  0  0  0  0
   62.0240   32.0547   49.0143 N   0  0  0  0  0  0  0  0  0  0  0  0
   61.8118   31.2388   50.2197 C   0  0  0  0  0  0  0  0  0  0  0  0
   63.1519   30.9291   50.9001 C   0  0  0  0  0  0  0  0  0  0  0  0
   64.2242   31.1028   49.9956 O   0  0  0  0  0  0  0  0  0  0  0  0
   64.3751   32.4790   49.7024 C   0  0  0  0  0  0  0  0  0  0  0  0
   63.0877   33.0932   49.0513 C   0  0  0  0  0  0  0  0  0  0  0  0
   63.4345   33.6270   47.6393 C   0  0  0  0  0  0  0  0  0  0  0  0
   62.6077   34.2837   49.9111 C   0  0  0  0  0  0  0  0  0  0  0  0
   59.0767   29.7602   44.5087 C   0  0  0  0  0  0  0  0  0  0  0  0
   58.9681   29.3786   45.7929 C   0  0  0  0  0  0  0  0  0  0  0  0
   58.8539   28.0653   46.2709 C   0  0  0  0  0  0  0  0  0  0  0  0
   58.8456   26.9375   45.5304 C   0  0  0  0  0  0  0  0  0  0  0  0
   58.7862   28.1683   47.6582 C   0  0  0  0  0  0  0  0  0  0  0  0
   58.8447   29.5129   47.9630 C   0  0  0  0  0  0  0  0  0  0  0  0
   58.9091   30.0563   49.3572 C   0  0  0  0  0  0  0  0  0  0  0  0
   58.9453   30.2451   46.8327 N   0  0  0  0  0  0  0  0  0  0  0  0
   58.1203   25.6904   45.8632 C   0  0  0  0  0  0  0  0  0  0  0  0
   58.6634   24.4649   45.9933 N   0  0  0  0  0  0  0  0  0  0  0  0
   57.6141   23.6877   46.3393 C   0  0  0  0  0  0  0  0  0  0  0  0
   57.7238   22.4503   46.5491 O   0  0  0  0  0  0  0  0  0  0  0  0
   56.4368   24.3397   46.4460 N   0  0  0  0  0  0  0  0  0  0  0  0
   56.7745   25.6046   46.1451 C   0  0  0  0  0  0  0  0  0  0  0  0
   55.8708   26.6607   46.1280 O   0  0  0  0  0  0  0  0  0  0  0  0
 17 18  2  0
 18 19  1  0
 19 20  2  0
 20 25  1  0
 25 26  1  0
 26 27  1  0
 27 28  2  0
 27 29  1  0
 29 30  1  0
 30 31  1  0
 19 21  1  0
 21 22  2  0
 22 23  1  0
 22 24  1  0
 24  1  1  0
  1  2  2  0
  2  3  1  0
  3  4  2  0
  4  5  1  0
  5  6  2  0
  6  7  1  0
  7  8  2  0
  7  9  1  0
  9 10  1  0
 10 11  1  0
 11 12  1  0
 12 13  1  0
 13 14  1  0
 14 15  1  0
 14 16  1  0
 24 18  1  0
  6  1  1  0
 14  9  1  0
 30 25  2  0
M  CHG 1  26  -1
M  CHG 1  29  -1
M  CHG 1  31  -1
M  END
> <UniqueID>
43

> <SMILES>
C=c1c(=Cc2[n-]c(=O)[n-]c2[O-])cc(C)n1-c1ccccc1C(=O)N1CCOCC1(C)C

> <Energy>
144.15650811953546

> <Genealogy>
C=c1c(=Cc2[n-]c(=O)[n-]c2[O-])cc(C)n1-c1ccccc1C(=O)N1CCOCC1(C)C (protonated)
C=c1c(=Cc2[n-]c(=O)[n-]c2[O-])cc(C)n1-c1ccccc1C(=O)N1CCOCC1(C)C (3D coordinates assigned)
C=c1c(=Cc2[n-]c(=O)[n-]c2[O-])cc(C)n1-c1ccccc1C(=O)N1CCOCC1(C)C (nonaromatic ring conformer: 144.15650811953546 kcal/mol)

> <smiles>
C=c1c(=Cc2[nH]c(=O)[nH]c2O)cc(C)n1-c1ccccc1C(=O)N1CCOCC1(C)C

> <score_type>
oracle

> <origin>
adg

> <m_score__min__energy>
-16.440000000000001

> <m_primary>
energy

> <minimizedAffinity>
-8.52849

> <minimizedRMSD>
0.74588

> <CNNscore>
0.4085436761

> <CNNaffinity>
6.9387688637

> <CNN_VS>
2.8347902298

> <CNNaffinity_variance>
0.0509106815

$$$$
52:0


 26 28  0  0  0  0  0  0  0  0999 V2000
   56.3825   29.6134   43.7792 C   0  0  0  0  0  0  0  0  0  0  0  0
   57.3352   29.5393   44.7210 C   0  0  0  0  0  0  0  0  0  0  0  0
   57.5553   30.6603   45.4497 N   0  0  0  0  0  0  0  0  0  0  0  0
   58.5996   30.7865   46.2969 C   0  0  0  0  0  0  0  0  0  0  0  0
   58.7187   31.8517   46.9610 O   0  0  0  0  0  0  0  0  0  0  0  0
   59.5214   29.7827   46.4118 N   0  0  0  0  0  0  0  0  0  0  0  0
   59.3457   28.6139   45.7110 C   0  0  0  0  0  0  0  0  0  0  0  0
   60.1984   27.6877   45.8240 O   0  0  0  0  0  0  0  0  0  0  0  0
   58.1915   28.4136   44.9081 C   0  0  0  0  0  0  0  0  0  0  0  0
   57.9538   27.1683   44.4082 C   0  0  0  0  0  0  0  0  0  0  0  0
   57.7322   25.9399   45.2032 C   0  0  0  0  0  0  0  0  0  0  0  0
   58.6289   24.8601   45.1146 C   0  0  0  0  0  0  0  0  0  0  0  0
   58.3904   23.6828   45.8316 C   0  0  0  0  0  0  0  0  0  0  0  0
   57.2451   23.5648   46.6231 C   0  0  0  0  0  0  0  0  0  0  0  0
   57.0097   22.3949   47.3328 O   0  0  0  0  0  0  0  0  0  0  0  0
   56.3326   24.6228   46.6947 C   0  0  0  0  0  0  0  0  0  0  0  0
   56.5673   25.8037   45.9814 C   0  0  0  0  0  0  0  0  0  0  0  0
   55.6441   26.8421   46.0581 O   0  0  0  0  0  0  0  0  0  0  0  0
   60.6444   29.9255   47.3636 C   0  0  0  0  0  0  0  0  0  0  0  0
   60.3121   29.2799   48.7182 C   0  0  0  0  0  0  0  0  0  0  0  0
   59.9204   30.3097   49.7462 C   0  0  0  0  0  0  0  0  0  0  0  0
   58.7636   30.1328   50.5218 C   0  0  0  0  0  0  0  0  0  0  0  0
   58.3627   31.1217   51.4251 C   0  0  0  0  0  0  0  0  0  0  0  0
   59.1084   32.2962   51.5546 C   0  0  0  0  0  0  0  0  0  0  0  0
   60.2581   32.4833   50.7832 C   0  0  0  0  0  0  0  0  0  0  0  0
   60.6652   31.4952   49.8825 C   0  0  0  0  0  0  0  0  0  0  0  0
  1  2  2  0
  2  3  1  0
  3  4  1  0
  4  5  2  0
  4  6  1  0
  6 19  1  0
 19 20  1  0
 20 21  1  0
 21 22  2  0
 22 23  1  0
 23 24  2  0
 24 25  1  0
 25 26  2  0
  6  7  1  0
  7  8  2  0
  7  9  1  0
  9 10  2  0
 10 11  1  0
 11 12  2  0
 12 13  1  0
 13 14  2  0
 14 15  1  0
 14 16  1  0
 16 17  2  0
 17 18  1  0
  9  2  1  0
 17 11  1  0
 26 21  1  0
M  CHG 1   3  -1
M  CHG 1  15  -1
M  CHG 1  18  -1
M  END
> <UniqueID>
47

> <SMILES>
C=c1[n-]c(=O)n(CCc2ccccc2)c(=O)c1=Cc1ccc([O-])cc1[O-]

> <Energy>
67.14512271156237

> <Genealogy>
C=c1[n-]c(=O)n(CCc2ccccc2)c(=O)c1=Cc1ccc([O-])cc1[O-] (protonated)
C=c1[n-]c(=O)n(CCc2ccccc2)c(=O)c1=Cc1ccc([O-])cc1[O-] (3D coordinates assigned)
C=c1[n-]c(=O)n(CCc2ccccc2)c(=O)c1=Cc1ccc([O-])cc1[O-] (optimized conformer: 67.14512271156237 kcal/mol)

> <smiles>
C=c1[nH]c(=O)n(CCc2ccccc2)c(=O)c1=Cc1ccc(O)cc1O

> <score_type>
oracle

> <origin>
adg

> <m_score__min__energy>
-15.4

> <m_primary>
energy

> <minimizedAffinity>
-6.68711

> <minimizedRMSD>
0.85375

> <CNNscore>
0.2527512014

> <CNNaffinity>
6.1854395866

> <CNN_VS>
1.5633772612

> <CNNaffinity_variance>
0.2144397497

$$$$
53:0


 37 40  0  0  0  0  0  0  0  0999 V2000
   60.2436   33.0862   47.1736 N   0  0  0  0  0  0  0  0  0  0  0  0
   59.0642   32.1868   47.1362 C   0  0  0  0  0  0  0  0  0  0  0  0
   59.4063   30.8259   46.5093 C   0  0  0  0  0  0  0  0  0  0  0  0
   60.4589   30.1046   47.2714 N   0  0  0  0  0  0  0  0  0  0  0  0
   61.3519   31.0134   48.0317 C   0  0  0  0  0  0  0  0  0  0  0  0
   61.5280   32.3578   47.3139 C   0  0  0  0  0  0  0  0  0  0  0  0
   60.0719   34.1176   48.2199 C   0  0  0  0  0  0  0  0  0  0  0  0
   61.1399   33.9934   49.2753 C   0  0  0  0  0  0  0  0  0  0  0  0
   62.2998   34.4302   49.0263 O   0  0  0  0  0  0  0  0  0  0  0  0
   59.2792   32.3623   52.1618 C   0  0  0  0  0  0  0  0  0  0  0  0
   59.5651   32.9315   50.9061 C   0  0  0  0  0  0  0  0  0  0  0  0
   60.8693   33.3551   50.5872 C   0  0  0  0  0  0  0  0  0  0  0  0
   61.8934   33.1760   51.5333 C   0  0  0  0  0  0  0  0  0  0  0  0
   61.6200   32.5841   52.7677 C   0  0  0  0  0  0  0  0  0  0  0  0
   60.3206   32.1787   53.0832 C   0  0  0  0  0  0  0  0  0  0  0  0
   60.0661   31.6005   54.3210 O   0  0  0  0  0  0  0  0  0  0  0  0
   57.9486   31.9816   52.5372 N   0  0  0  0  0  0  0  0  0  0  0  0
   57.4106   29.4109   53.6685 C   0  0  0  0  0  0  0  0  0  0  0  0
   57.2183   30.4384   52.2306 S   0  0  0  0  0  0  0  0  0  0  0  0
   57.8873   29.7813   51.0576 O   0  0  0  0  0  0  0  0  0  0  0  0
   55.7518   30.6126   51.9563 O   0  0  0  0  0  0  0  0  0  0  0  0
   59.8887   29.0828   48.1726 C   0  0  0  0  0  0  0  0  0  0  0  0
   59.4069   27.8859   47.3932 C   0  0  0  0  0  0  0  0  0  0  0  0
   60.2960   26.8457   47.0823 C   0  0  0  0  0  0  0  0  0  0  0  0
   59.8420   25.7057   46.4103 C   0  0  0  0  0  0  0  0  0  0  0  0
   58.4864   25.5860   46.0417 C   0  0  0  0  0  0  0  0  0  0  0  0
   57.6097   26.6492   46.3245 C   0  0  0  0  0  0  0  0  0  0  0  0
   58.0637   27.7842   46.9999 C   0  0  0  0  0  0  0  0  0  0  0  0
   57.9682   24.3654   45.3696 C   0  0  0  0  0  0  0  0  0  0  0  0
   56.7897   24.3920   44.6006 C   0  0  0  0  0  0  0  0  0  0  0  0
   56.3609   23.2297   43.9536 C   0  0  0  0  0  0  0  0  0  0  0  0
   55.3083   23.2496   43.2602 O   0  0  0  0  0  0  0  0  0  0  0  0
   57.1066   22.0503   44.0693 C   0  0  0  0  0  0  0  0  0  0  0  0
   56.6891   20.8868   43.4230 O   0  0  0  0  0  0  0  0  0  0  0  0
   58.2773   22.0610   44.8345 C   0  0  0  0  0  0  0  0  0  0  0  0
   58.6770   23.2031   45.4554 N   0  0  0  0  0  0  0  0  0  0  0  0
   55.9031   20.8905   42.9129 H   0  0  0  0  0  0  0  0  0  0  0  0
 18 19  1  0
 19 20  2  0
 19 21  2  0
 19 17  1  0
 17 10  1  0
 10 11  2  0
 11 12  1  0
 12  8  1  0
  8  9  2  0
  8  7  1  0
  7  1  1  0
  1  2  1  0
  2  3  1  0
  3  4  1  0
  4 22  1  0
 22 23  1  0
 23 24  2  0
 24 25  1  0
 25 26  2  0
 26 29  1  0
 29 30  2  0
 30 31  1  0
 31 32  2  0
 31 33  1  0
 33 34  1  0
 33 35  2  0
 35 36  1  0
 26 27  1  0
 27 28  2  0
  4  5  1  0
  5  6  1  0
 12 13  2  0
 13 14  1  0
 14 15  2  0
 15 16  1  0
 15 10  1  0
  6  1  1  0
 28 23  1  0
 36 29  1  0
 34 37  1  0
M  CHG 1  16  -1
M  CHG 1  17  -1
M  CHG 1  36  -1
M  END
> <UniqueID>
48

> <SMILES>
CS(=O)(=O)[N-]c1cc(C(=O)CN2CCN(Cc3ccc(-c4cc(=O)c(O)c[n-]4)cc3)CC2)ccc1[O-]

> <Energy>
83.99622809928593

> <Genealogy>
CS(=O)(=O)[N-]c1cc(C(=O)CN2CCN(Cc3ccc(-c4cc(=O)c(O)c[n-]4)cc3)CC2)ccc1[O-] (protonated)
CS(=O)(=O)[N-]c1cc(C(=O)CN2CCN(Cc3ccc(-c4cc(=O)c(O)c[n-]4)cc3)CC2)ccc1[O-] (3D coordinates assigned)
CS(=O)(=O)[N-]c1cc(C(=O)CN2CCN(Cc3ccc(-c4cc(=O)c(O)c[n-]4)cc3)CC2)ccc1[O-] (nonaromatic ring conformer: 83.99622809928593 kcal/mol)

> <smiles>
CS(=O)(=O)Nc1cc(C(=O)CN2CCN(Cc3ccc(-c4cc(=O)c(O)c[nH]4)cc3)CC2)ccc1O

> <score_type>
oracle

> <origin>
adg

> <m_score__min__energy>
-15.380000000000001

> <m_primary>
energy

> <minimizedAffinity>
-9.13820

> <minimizedRMSD>
0.88748

> <CNNscore>
0.1197074652

> <CNNaffinity>
6.0573482513

> <CNN_VS>
0.7251098156

> <CNNaffinity_variance>
0.3177458942

$$$$
56:0


 36 40  0  0  0  0  0  0  0  0999 V2000
   59.4146   31.2981   50.6332 O   0  0  0  0  0  0  0  0  0  0  0  0
   60.5423   30.7336   50.6172 C   0  0  0  0  0  0  0  0  0  0  0  0
   61.7249   31.4879   50.9712 N   0  0  0  0  0  0  0  0  0  0  0  0
   63.0499   31.1192   50.4467 C   0  0  0  0  0  0  0  0  0  0  0  0
   63.8569   32.3597   49.9915 C   0  0  0  0  0  0  0  0  0  0  0  0
   63.0896   33.6230   50.0944 N   0  0  0  0  0  0  0  0  0  0  0  0
   62.5727   33.7754   51.4714 C   0  0  0  0  0  0  0  0  0  0  0  0
   61.6109   32.6399   51.8743 C   0  0  0  0  0  0  0  0  0  0  0  0
   62.1664   33.6569   50.4346 H   0  0  0  0  0  0  0  0  0  0  0  0
   60.6091   29.3150   50.2107 C   0  0  0  0  0  0  0  0  0  0  0  0
   60.7969   28.3032   51.1666 C   0  0  0  0  0  0  0  0  0  0  0  0
   60.8286   26.9621   50.7730 C   0  0  0  0  0  0  0  0  0  0  0  0
   60.6749   26.6223   49.4273 C   0  0  0  0  0  0  0  0  0  0  0  0
   60.4931   27.6225   48.4606 C   0  0  0  0  0  0  0  0  0  0  0  0
   60.4426   28.9671   48.8619 C   0  0  0  0  0  0  0  0  0  0  0  0
   60.3011   27.2585   47.0132 C   0  0  0  0  0  0  0  0  0  0  0  0
   58.8906   26.8171   46.7719 C   0  0  0  0  0  0  0  0  0  0  0  0
   58.3824   25.6497   47.2028 N   0  0  0  0  0  0  0  0  0  0  0  0
   57.0922   25.7089   46.8043 C   0  0  0  0  0  0  0  0  0  0  0  0
   56.2736   24.7751   47.0157 O   0  0  0  0  0  0  0  0  0  0  0  0
   56.7468   26.8459   46.1618 N   0  0  0  0  0  0  0  0  0  0  0  0
   57.8974   27.5391   46.1571 C   0  0  0  0  0  0  0  0  0  0  0  0
   58.0328   28.8062   45.6023 O   0  0  0  0  0  0  0  0  0  0  0  0
   62.0392   33.7427   49.0863 C   0  0  0  0  0  0  0  0  0  0  0  0
   60.9470   34.2134   49.3738 O   0  0  0  0  0  0  0  0  0  0  0  0
   62.2534   33.2535   47.6745 C   0  0  0  0  0  0  0  0  0  0  0  0
   60.9988   32.6348   47.1311 C   0  0  0  0  0  0  0  0  0  0  0  0
   60.6833   31.2783   47.1238 C   0  0  0  0  0  0  0  0  0  0  0  0
   59.5182   31.0658   46.4744 N   0  0  0  0  0  0  0  0  0  0  0  0
   59.0914   32.2744   46.0685 C   0  0  0  0  0  0  0  0  0  0  0  0
   57.9450   32.5590   45.3273 C   0  0  0  0  0  0  0  0  0  0  0  0
   57.7015   33.9002   44.9822 C   0  0  0  0  0  0  0  0  0  0  0  0
   58.5938   34.9171   45.3893 C   0  0  0  0  0  0  0  0  0  0  0  0
   59.7395   34.6005   46.1406 C   0  0  0  0  0  0  0  0  0  0  0  0
   59.9645   33.2590   46.4550 C   0  0  0  0  0  0  0  0  0  0  0  0
   59.0717   30.2007   46.3278 H   0  0  0  0  0  0  0  0  0  0  0  0
  1  2  2  0
  2 10  1  0
 10 11  2  0
 11 12  1  0
 12 13  2  0
 13 14  1  0
 14 16  1  0
 16 17  1  0
 17 18  1  0
 18 19  1  0
 19 20  2  0
 19 21  1  0
 21 22  1  0
 22 23  1  0
 14 15  2  0
  2  3  1  0
  3  4  1  0
  4  5  1  0
  5  6  1  0
  6 24  1  0
 24 25  2  0
 24 26  1  0
 26 27  1  0
 27 28  2  0
 28 29  1  0
 29 30  1  0
 30 31  2  0
 31 32  1  0
 32 33  2  0
 33 34  1  0
 34 35  2  0
  6  7  1  0
  7  8  1  0
 15 10  1  0
  8  3  1  0
 22 17  2  0
 35 27  1  0
 35 30  1  0
  6  9  1  0
 29 36  1  0
M  CHG 1   6   1
M  CHG 1  18  -1
M  CHG 1  21  -1
M  CHG 1  23  -1
M  END
> <UniqueID>
51

> <SMILES>
O=C(c1cccc(Cc2[n-]c(=O)[n-]c2[O-])c1)N1CC[NH+](C(=O)Cc2c[nH]c3ccccc23)CC1

> <Energy>
135.18562939280295

> <Genealogy>
O=C(c1cccc(Cc2[n-]c(=O)[n-]c2[O-])c1)N1CC[NH+](C(=O)Cc2c[nH]c3ccccc23)CC1 (protonated)
O=C(c1cccc(Cc2[n-]c(=O)[n-]c2[O-])c1)N1CC[NH+](C(=O)Cc2c[nH]c3ccccc23)CC1 (3D coordinates assigned)
O=C(c1cccc(Cc2[n-]c(=O)[n-]c2[O-])c1)N1CC[NH+](C(=O)Cc2c[nH]c3ccccc23)CC1 (nonaromatic ring conformer: 135.18562939280295 kcal/mol)

> <smiles>
O=C(Cc1c[nH]c2ccccc12)N1CCN(C(=O)c2cccc(Cc3[nH]c(=O)[nH]c3O)c2)CC1

> <score_type>
oracle

> <origin>
adg

> <m_score__min__energy>
-17.82

> <m_primary>
energy

> <minimizedAffinity>
-8.45676

> <minimizedRMSD>
1.94630

> <CNNscore>
0.4922144413

> <CNNaffinity>
7.0329132080

> <CNN_VS>
3.4617013931

> <CNNaffinity_variance>
0.0181313343

$$$$
61:0


 31 33  0  0  0  0  0  0  0  0999 V2000
   59.9209   30.1803   52.5786 C   0  0  0  0  0  0  0  0  0  0  0  0
   60.7338   30.6522   53.6158 C   0  0  0  0  0  0  0  0  0  0  0  0
   62.1082   30.4142   53.5896 C   0  0  0  0  0  0  0  0  0  0  0  0
   62.6555   29.6995   52.5228 C   0  0  0  0  0  0  0  0  0  0  0  0
   61.8527   29.2406   51.5273 N   0  0  0  0  0  0  0  0  0  0  0  0
   60.5065   29.4574   51.5251 C   0  0  0  0  0  0  0  0  0  0  0  0
   57.7807   28.4647   53.6910 C   0  0  0  0  0  0  0  0  0  0  0  0
   57.5423   29.6819   53.1793 C   0  0  0  0  0  0  0  0  0  0  0  0
   56.2927   30.2916   52.9882 C   0  0  0  0  0  0  0  0  0  0  0  0
   55.0698   29.9619   53.4463 C   0  0  0  0  0  0  0  0  0  0  0  0
   56.5220   31.4086   52.2017 C   0  0  0  0  0  0  0  0  0  0  0  0
   57.8861   31.4900   52.0098 C   0  0  0  0  0  0  0  0  0  0  0  0
   58.5706   32.5730   51.2320 C   0  0  0  0  0  0  0  0  0  0  0  0
   58.5057   30.4422   52.5981 N   0  0  0  0  0  0  0  0  0  0  0  0
   53.7998   30.1899   52.7376 C   0  0  0  0  0  0  0  0  0  0  0  0
   53.6189   30.0267   51.4138 N   0  0  0  0  0  0  0  0  0  0  0  0
   52.2915   30.2096   51.2545 C   0  0  0  0  0  0  0  0  0  0  0  0
   51.7292   30.1515   50.1304 O   0  0  0  0  0  0  0  0  0  0  0  0
   51.6109   30.4507   52.3967 N   0  0  0  0  0  0  0  0  0  0  0  0
   52.5804   30.4194   53.3267 C   0  0  0  0  0  0  0  0  0  0  0  0
   52.3535   30.5941   54.6856 O   0  0  0  0  0  0  0  0  0  0  0  0
   59.6920   28.9578   50.4985 O   0  0  0  0  0  0  0  0  0  0  0  0
   59.6098   29.4711   49.1984 C   0  0  0  0  0  0  0  0  0  0  0  0
   58.7852   29.0003   48.3673 O   0  0  0  0  0  0  0  0  0  0  0  0
   60.4902   30.5382   48.8240 N   0  0  0  0  0  0  0  0  0  0  0  0
   60.5545   31.1128   47.5092 C   0  0  0  0  0  0  0  0  0  0  0  0
   59.8052   30.6930   46.5858 O   0  0  0  0  0  0  0  0  0  0  0  0
   61.0910   30.9016   49.5140 H   0  0  0  0  0  0  0  0  0  0  0  0
   61.4721   32.1390   47.2625 O   0  0  0  0  0  0  0  0  0  0  0  0
   62.8403   32.0844   47.6639 C   0  0  0  0  0  0  0  0  0  0  0  0
   63.5007   33.4499   47.5094 C   0  0  0  0  0  0  0  0  0  0  0  0
  7  8  2  0
  8  9  1  0
  9 10  2  0
 10 15  1  0
 15 16  1  0
 16 17  1  0
 17 18  2  0
 17 19  1  0
 19 20  1  0
 20 21  1  0
  9 11  1  0
 11 12  2  0
 12 13  1  0
 12 14  1  0
 14  1  1  0
  1  2  2  0
  2  3  1  0
  3  4  2  0
  4  5  1  0
  5  6  2  0
  6 22  1  0
 22 23  1  0
 23 24  2  0
 23 25  1  0
 25 26  1  0
 26 27  2  0
 26 29  1  0
 29 30  1  0
 30 31  1  0
 14  8  1  0
  6  1  1  0
 20 15  2  0
 25 28  1  0
M  CHG 1  16  -1
M  CHG 1  19  -1
M  CHG 1  21  -1
M  END
> <UniqueID>
55

> <SMILES>
C=c1c(=Cc2[n-]c(=O)[n-]c2[O-])cc(C)n1-c1cccnc1OC(=O)NC(=O)OCC

> <Energy>
120.17259887582726

> <Genealogy>
C=c1c(=Cc2[n-]c(=O)[n-]c2[O-])cc(C)n1-c1cccnc1OC(=O)NC(=O)OCC (protonated)
C=c1c(=Cc2[n-]c(=O)[n-]c2[O-])cc(C)n1-c1cccnc1OC(=O)NC(=O)OCC (3D coordinates assigned)
C=c1c(=Cc2[n-]c(=O)[n-]c2[O-])cc(C)n1-c1cccnc1OC(=O)NC(=O)OCC (optimized conformer: 120.17259887582726 kcal/mol)

> <smiles>
C=c1c(=Cc2[nH]c(=O)[nH]c2O)cc(C)n1-c1cccnc1OC(=O)NC(=O)OCC

> <score_type>
oracle

> <origin>
adg

> <m_score__min__energy>
-15.9

> <m_primary>
energy

> <minimizedAffinity>
-6.38715

> <minimizedRMSD>
3.89797

> <CNNscore>
0.1505246162

> <CNNaffinity>
5.2844233513

> <CNN_VS>
0.7954357862

> <CNNaffinity_variance>
0.1729565114

$$$$
85:0


 28 31  0  0  0  0  0  0  0  0999 V2000
   55.5108   31.3330   52.0464 C   0  0  0  0  0  0  0  0  0  0  0  0
   55.4634   30.1071   52.5902 C   0  0  0  0  0  0  0  0  0  0  0  0
   54.3214   29.4292   53.0450 C   0  0  0  0  0  0  0  0  0  0  0  0
   53.0108   29.6837   52.8629 C   0  0  0  0  0  0  0  0  0  0  0  0
   54.7806   28.3389   53.7681 C   0  0  0  0  0  0  0  0  0  0  0  0
   56.1541   28.3406   53.6649 C   0  0  0  0  0  0  0  0  0  0  0  0
   57.0547   27.3136   54.2842 C   0  0  0  0  0  0  0  0  0  0  0  0
   56.5732   29.4118   52.9518 N   0  0  0  0  0  0  0  0  0  0  0  0
   52.4056   30.2158   51.6317 C   0  0  0  0  0  0  0  0  0  0  0  0
   52.2729   29.5277   50.4820 N   0  0  0  0  0  0  0  0  0  0  0  0
   51.5511   30.3606   49.7027 C   0  0  0  0  0  0  0  0  0  0  0  0
   51.2275   30.0739   48.5201 O   0  0  0  0  0  0  0  0  0  0  0  0
   51.1904   31.5206   50.2928 N   0  0  0  0  0  0  0  0  0  0  0  0
   51.7282   31.4048   51.5177 C   0  0  0  0  0  0  0  0  0  0  0  0
   51.5979   32.3656   52.5138 O   0  0  0  0  0  0  0  0  0  0  0  0
   57.9430   29.7526   52.6710 C   0  0  0  0  0  0  0  0  0  0  0  0
   58.9274   29.5936   53.6501 C   0  0  0  0  0  0  0  0  0  0  0  0
   60.2494   29.9302   53.3544 C   0  0  0  0  0  0  0  0  0  0  0  0
   60.5763   30.4130   52.1255 N   0  0  0  0  0  0  0  0  0  0  0  0
   59.6398   30.5816   51.1447 C   0  0  0  0  0  0  0  0  0  0  0  0
   58.3001   30.2495   51.4119 C   0  0  0  0  0  0  0  0  0  0  0  0
   61.5138   30.6475   51.9374 H   0  0  0  0  0  0  0  0  0  0  0  0
   60.0203   31.1030   49.8524 N   0  0  0  0  0  0  0  0  0  0  0  0
   60.3887   32.5209   49.7119 C   0  0  0  0  0  0  0  0  0  0  0  0
   60.0628   33.0237   48.3031 C   0  0  0  0  0  0  0  0  0  0  0  0
   60.7480   32.1847   47.2073 C   0  0  0  0  0  0  0  0  0  0  0  0
   61.0495   30.7357   47.6347 C   0  0  0  0  0  0  0  0  0  0  0  0
   60.0513   30.2192   48.6760 C   0  0  0  0  0  0  0  0  0  0  0  0
  1  2  2  0
  2  3  1  0
  3  4  2  0
  4  9  1  0
  9 10  1  0
 10 11  1  0
 11 12  2  0
 11 13  1  0
 13 14  1  0
 14 15  1  0
  3  5  1  0
  5  6  2  0
  6  7  1  0
  6  8  1  0
  8 16  1  0
 16 17  2  0
 17 18  1  0
 18 19  2  0
 19 20  1  0
 20 23  1  0
 23 24  1  0
 24 25  1  0
 25 26  1  0
 26 27  1  0
 27 28  1  0
 20 21  2  0
  8  2  1  0
 21 16  1  0
 14  9  2  0
 28 23  1  0
 19 22  1  0
M  CHG 1  10  -1
M  CHG 1  13  -1
M  CHG 1  15  -1
M  CHG 1  19   1
M  END
> <UniqueID>
77

> <SMILES>
C=c1c(=Cc2[n-]c(=O)[n-]c2[O-])cc(C)n1-c1cc[nH+]c(N2CCCCC2)c1

> <Energy>
128.993076054824

> <Genealogy>
C=c1c(=Cc2[n-]c(=O)[n-]c2[O-])cc(C)n1-c1cc[nH+]c(N2CCCCC2)c1 (protonated)
C=c1c(=Cc2[n-]c(=O)[n-]c2[O-])cc(C)n1-c1cc[nH+]c(N2CCCCC2)c1 (3D coordinates assigned)
C=c1c(=Cc2[n-]c(=O)[n-]c2[O-])cc(C)n1-c1cc[nH+]c(N2CCCCC2)c1 (nonaromatic ring conformer: 128.993076054824 kcal/mol)

> <smiles>
C=c1c(=Cc2[nH]c(=O)[nH]c2O)cc(C)n1-c1ccnc(N2CCCCC2)c1

> <score_type>
oracle

> <origin>
adg

> <m_score__min__energy>
-15.08

> <m_primary>
energy

> <minimizedAffinity>
-5.36217

> <minimizedRMSD>
1.31143

> <CNNscore>
0.0632069930

> <CNNaffinity>
5.6206078529

> <CNN_VS>
0.3552617133

> <CNNaffinity_variance>
0.0730321258

$$$$
20:0


 32 35  0  0  0  0  0  0  0  0999 V2000
   58.1299   32.1526   49.7916 O   0  0  0  0  0  0  0  0  0  0  0  0
   58.8079   31.2003   49.3164 C   0  0  0  0  0  0  0  0  0  0  0  0
   59.0056   29.9382   50.1016 C   0  0  0  0  0  0  0  0  0  0  0  0
   59.1655   28.7835   49.2192 N   0  0  0  0  0  0  0  0  0  0  0  0
   60.3132   27.9266   49.2821 C   0  0  0  0  0  0  0  0  0  0  0  0
   61.1006   27.9859   50.2669 O   0  0  0  0  0  0  0  0  0  0  0  0
   58.4614   28.5877   48.5595 H   0  0  0  0  0  0  0  0  0  0  0  0
   60.6305   27.0187   48.1355 C   0  0  0  0  0  0  0  0  0  0  0  0
   59.8321   27.4350   46.9305 C   0  0  0  0  0  0  0  0  0  0  0  0
   60.3171   28.4303   46.0530 C   0  0  0  0  0  0  0  0  0  0  0  0
   59.5933   28.7850   44.8957 C   0  0  0  0  0  0  0  0  0  0  0  0
   58.3852   28.1434   44.5877 C   0  0  0  0  0  0  0  0  0  0  0  0
   57.9309   27.1512   45.4526 C   0  0  0  0  0  0  0  0  0  0  0  0
   56.8127   26.4165   45.3087 N   0  0  0  0  0  0  0  0  0  0  0  0
   56.8241   25.5904   46.3818 C   0  0  0  0  0  0  0  0  0  0  0  0
   55.8335   24.6538   46.6284 O   0  0  0  0  0  0  0  0  0  0  0  0
   57.9264   25.7931   47.1978 C   0  0  0  0  0  0  0  0  0  0  0  0
   58.6302   26.8038   46.5832 C   0  0  0  0  0  0  0  0  0  0  0  0
   59.4615   31.3349   48.0505 N   0  0  0  0  0  0  0  0  0  0  0  0
   59.2359   32.3800   47.0899 C   0  0  0  0  0  0  0  0  0  0  0  0
   58.5151   32.1340   45.9071 C   0  0  0  0  0  0  0  0  0  0  0  0
   58.3292   33.1531   44.9683 C   0  0  0  0  0  0  0  0  0  0  0  0
   58.8653   34.4210   45.1944 C   0  0  0  0  0  0  0  0  0  0  0  0
   59.6033   34.6709   46.3517 C   0  0  0  0  0  0  0  0  0  0  0  0
   59.8102   33.6533   47.2975 C   0  0  0  0  0  0  0  0  0  0  0  0
   60.5724   33.9486   48.5313 C   0  0  0  0  0  0  0  0  0  0  0  0
   59.9974   34.5587   49.4730 O   0  0  0  0  0  0  0  0  0  0  0  0
   61.9488   33.5543   48.6746 N   0  0  0  0  0  0  0  0  0  0  0  0
   62.7753   33.9911   49.7864 C   0  0  0  0  0  0  0  0  0  0  0  0
   64.1320   33.3383   49.5635 C   0  0  0  0  0  0  0  0  0  0  0  0
   63.8828   32.1856   48.5959 C   0  0  0  0  0  0  0  0  0  0  0  0
   62.5960   32.5360   47.8626 C   0  0  0  0  0  0  0  0  0  0  0  0
  1  2  2  0
  2  3  1  0
  3  4  1  0
  4  5  1  0
  5  6  2  0
  5  8  1  0
  8  9  1  0
  9 10  2  0
 10 11  1  0
 11 12  2  0
 12 13  1  0
 13 14  1  0
 14 15  1  0
 15 16  1  0
 15 17  2  0
 17 18  1  0
  2 19  1  0
 19 20  1  0
 20 21  2  0
 21 22  1  0
 22 23  2  0
 23 24  1  0
 24 25  2  0
 25 26  1  0
 26 27  2  0
 26 28  1  0
 28 29  1  0
 29 30  1  0
 30 31  1  0
 31 32  1  0
 18  9  1  0
 25 20  1  0
 32 28  1  0
 18 13  2  0
  4  7  1  0
M  CHG 1  14  -1
M  CHG 1  16  -1
M  CHG 1  19  -1
M  END
> <UniqueID>
20

> <SMILES>
O=C(CNC(=O)Cc1cccc2[n-]c([O-])cc12)[N-]c1ccccc1C(=O)N1CCCC1

> <Energy>
90.90885231020371

> <Genealogy>
O=C(CNC(=O)Cc1cccc2[n-]c([O-])cc12)[N-]c1ccccc1C(=O)N1CCCC1 (protonated)
O=C(CNC(=O)Cc1cccc2[n-]c([O-])cc12)[N-]c1ccccc1C(=O)N1CCCC1 (3D coordinates assigned)
O=C(CNC(=O)Cc1cccc2[n-]c([O-])cc12)[N-]c1ccccc1C(=O)N1CCCC1 (nonaromatic ring conformer: 90.90885231020371 kcal/mol)

> <smiles>
O=C(Cc1cccc2[nH]c(O)cc12)NCC(=O)Nc1ccccc1C(=O)N1CCCC1

> <score_type>
oracle

> <origin>
adg

> <m_score__min__energy>
-17.48

> <m_primary>
energy

> <minimizedAffinity>
-7.87428

> <minimizedRMSD>
0.95635

> <CNNscore>
0.5945601463

> <CNNaffinity>
6.6845803261

> <CNN_VS>
3.9743850231

> <CNNaffinity_variance>
0.0545597486

$$$$
31:0


 32 35  0  0  0  0  0  0  0  0999 V2000
   57.8598   25.9243   44.7321 C   0  0  0  0  0  0  0  0  0  0  0  0
   58.1679   27.1737   45.1312 C   0  0  0  0  0  0  0  0  0  0  0  0
   57.5630   28.3500   44.7077 C   0  0  0  0  0  0  0  0  0  0  0  0
   58.1623   29.3790   45.4054 C   0  0  0  0  0  0  0  0  0  0  0  0
   57.7893   30.8241   45.2751 C   0  0  0  0  0  0  0  0  0  0  0  0
   59.0957   28.8935   46.2518 N   0  0  0  0  0  0  0  0  0  0  0  0
   59.1090   27.5436   46.0980 C   0  0  0  0  0  0  0  0  0  0  0  0
   59.8992   26.7175   46.8010 C   0  0  0  0  0  0  0  0  0  0  0  0
   57.2532   24.8998   45.6046 C   0  0  0  0  0  0  0  0  0  0  0  0
   56.0362   24.9994   46.2421 C   0  0  0  0  0  0  0  0  0  0  0  0
   55.1309   26.0436   46.1019 O   0  0  0  0  0  0  0  0  0  0  0  0
   55.8326   23.9361   47.0428 N   0  0  0  0  0  0  0  0  0  0  0  0
   56.9630   23.2166   46.8774 C   0  0  0  0  0  0  0  0  0  0  0  0
   57.1776   22.1322   47.4805 O   0  0  0  0  0  0  0  0  0  0  0  0
   57.8493   23.7697   46.0246 N   0  0  0  0  0  0  0  0  0  0  0  0
   58.7343   23.4238   45.7672 H   0  0  0  0  0  0  0  0  0  0  0  0
   59.9161   29.6759   47.1381 C   0  0  0  0  0  0  0  0  0  0  0  0
   60.9310   30.4931   46.6251 C   0  0  0  0  0  0  0  0  0  0  0  0
   61.7376   31.2439   47.4846 C   0  0  0  0  0  0  0  0  0  0  0  0
   61.5429   31.1890   48.8791 C   0  0  0  0  0  0  0  0  0  0  0  0
   60.5174   30.3688   49.3856 C   0  0  0  0  0  0  0  0  0  0  0  0
   59.7140   29.6173   48.5229 C   0  0  0  0  0  0  0  0  0  0  0  0
   62.3842   31.9808   49.8139 C   0  0  0  0  0  0  0  0  0  0  0  0
   63.6801   31.6407   50.0577 N   0  0  0  0  0  0  0  0  0  0  0  0
   64.2699   32.4933   50.9239 C   0  0  0  0  0  0  0  0  0  0  0  0
   65.5042   32.3910   51.3169 N   0  0  0  0  0  0  0  0  0  0  0  0
   63.2288   33.7041   51.4277 S   0  0  0  0  0  0  0  0  0  0  0  0
   61.9501   33.1219   50.4989 C   0  0  0  0  0  0  0  0  0  0  0  0
   66.6565   32.7512   50.4923 C   0  0  0  0  0  0  0  0  0  0  0  0
   67.4726   33.8202   51.1657 C   0  0  0  0  0  0  0  0  0  0  0  0
   68.6644   33.9142   50.9132 O   0  0  0  0  0  0  0  0  0  0  0  0
   66.8559   34.7753   52.1457 C   0  0  0  0  0  0  0  0  0  0  0  0
  1  9  1  0
  9 10  2  0
 10 11  1  0
 10 12  1  0
 12 13  1  0
 13 14  2  0
 13 15  1  0
  1  2  2  0
  2  3  1  0
  3  4  2  0
  4  5  1  0
  4  6  1  0
  6 17  1  0
 17 18  2  0
 18 19  1  0
 19 20  2  0
 20 23  1  0
 23 24  1  0
 24 25  1  0
 25 26  2  0
 26 29  1  0
 29 30  1  0
 30 31  2  0
 30 32  1  0
 25 27  1  0
 27 28  1  0
 20 21  1  0
 21 22  2  0
  6  7  1  0
  7  8  2  0
 15  9  1  0
  7  2  1  0
 22 17  1  0
 28 23  2  0
 15 16  1  0
M  CHG 1  11  -1
M  CHG 1  12  -1
M  CHG 1  24  -1
M  END
> <UniqueID>
30

> <SMILES>
C=c1c(=Cc2[nH]c(=O)[n-]c2[O-])cc(C)n1-c1ccc(-c2cs/c(=N/CC(C)=O)[n-]2)cc1

> <Energy>
151.37392918770118

> <Genealogy>
C=c1c(=Cc2[nH]c(=O)[n-]c2[O-])cc(C)n1-c1ccc(-c2csc(=NCC(C)=O)[n-]2)cc1 (protonated)
C=c1c(=Cc2[nH]c(=O)[n-]c2[O-])cc(C)n1-c1ccc(-c2cs/c(=N/CC(C)=O)[n-]2)cc1 (cis-trans isomerization)
C=c1c(=Cc2[nH]c(=O)[n-]c2[O-])cc(C)n1-c1ccc(-c2cs/c(=N/CC(C)=O)[n-]2)cc1 (3D coordinates assigned)
C=c1c(=Cc2[nH]c(=O)[n-]c2[O-])cc(C)n1-c1ccc(-c2cs/c(=N/CC(C)=O)[n-]2)cc1 (optimized conformer: 151.37392918770118 kcal/mol)

> <smiles>
C=c1c(=Cc2[nH]c(=O)[nH]c2O)cc(C)n1-c1ccc(-c2csc(=NCC(C)=O)[nH]2)cc1

> <score_type>
oracle

> <origin>
adg

> <m_score__min__energy>
-14.59

> <m_primary>
energy

> <minimizedAffinity>
-8.45868

> <minimizedRMSD>
0.88686

> <CNNscore>
0.1470117122

> <CNNaffinity>
6.4273009300

> <CNN_VS>
0.9448885322

> <CNNaffinity_variance>
0.2552534044

$$$$
39:0


 28 30  0  0  0  0  0  0  0  0999 V2000
   58.5650   26.7184   45.9898 C   0  0  0  0  0  0  0  0  0  0  0  0
   59.9164   27.0864   45.8879 C   0  0  0  0  0  0  0  0  0  0  0  0
   60.2729   28.3247   45.3559 C   0  0  0  0  0  0  0  0  0  0  0  0
   59.2852   29.2219   44.9497 C   0  0  0  0  0  0  0  0  0  0  0  0
   57.9298   28.8903   45.0834 C   0  0  0  0  0  0  0  0  0  0  0  0
   57.5624   27.6287   45.5901 C   0  0  0  0  0  0  0  0  0  0  0  0
   56.2070   27.2954   45.6692 O   0  0  0  0  0  0  0  0  0  0  0  0
   55.5562   27.9130   45.3992 H   0  0  0  0  0  0  0  0  0  0  0  0
   56.7293   21.1519   44.8485 C   0  0  0  0  0  0  0  0  0  0  0  0
   56.5320   22.4133   45.2487 C   0  0  0  0  0  0  0  0  0  0  0  0
   55.2727   22.9200   45.2017 N   0  0  0  0  0  0  0  0  0  0  0  0
   55.0101   24.1931   45.5848 C   0  0  0  0  0  0  0  0  0  0  0  0
   53.8348   24.6375   45.5225 O   0  0  0  0  0  0  0  0  0  0  0  0
   56.0102   24.9868   46.0386 N   0  0  0  0  0  0  0  0  0  0  0  0
   57.2960   24.5489   46.1293 C   0  0  0  0  0  0  0  0  0  0  0  0
   58.2127   25.4209   46.6005 C   0  0  0  0  0  0  0  0  0  0  0  0
   57.5922   23.2263   45.7078 C   0  0  0  0  0  0  0  0  0  0  0  0
   58.7741   22.7812   45.7113 O   0  0  0  0  0  0  0  0  0  0  0  0
   56.9085   29.8833   44.7056 C   0  0  0  0  0  0  0  0  0  0  0  0
   55.9623   29.5326   43.9532 O   0  0  0  0  0  0  0  0  0  0  0  0
   56.9907   31.2504   45.1319 N   0  0  0  0  0  0  0  0  0  0  0  0
   57.8999   32.2564   44.5871 C   0  0  0  0  0  0  0  0  0  0  0  0
   58.6520   32.9579   45.6885 C   0  0  0  0  0  0  0  0  0  0  0  0
   58.8721   32.3116   46.9157 C   0  0  0  0  0  0  0  0  0  0  0  0
   59.5409   32.9717   47.9507 C   0  0  0  0  0  0  0  0  0  0  0  0
   59.9975   34.2797   47.7658 C   0  0  0  0  0  0  0  0  0  0  0  0
   59.7904   34.9268   46.5456 C   0  0  0  0  0  0  0  0  0  0  0  0
   59.1248   34.2686   45.5071 C   0  0  0  0  0  0  0  0  0  0  0  0
  9 10  2  0
 10 11  1  0
 11 12  1  0
 12 13  2  0
 12 14  1  0
 14 15  1  0
 15 16  2  0
 16  1  1  0
  1  2  2  0
  2  3  1  0
  3  4  2  0
  4  5  1  0
  5 19  1  0
 19 20  2  0
 19 21  1  0
 21 22  1  0
 22 23  1  0
 23 24  2  0
 24 25  1  0
 25 26  2  0
 26 27  1  0
 27 28  2  0
  5  6  2  0
  6  7  1  0
 15 17  1  0
 17 18  2  0
 17 10  1  0
  6  1  1  0
 28 23  1  0
  7  8  1  0
M  CHG 1  11  -1
M  CHG 1  14  -1
M  CHG 1  21  -1
M  END
> <UniqueID>
38

> <SMILES>
C=c1[n-]c(=O)[n-]c(=Cc2cccc(C(=O)[N-]Cc3ccccc3)c2O)c1=O

> <Energy>
62.18976254754767

> <Genealogy>
C=c1[n-]c(=O)[n-]c(=Cc2cccc(C(=O)[N-]Cc3ccccc3)c2O)c1=O (protonated)
C=c1[n-]c(=O)[n-]c(=Cc2cccc(C(=O)[N-]Cc3ccccc3)c2O)c1=O (3D coordinates assigned)
C=c1[n-]c(=O)[n-]c(=Cc2cccc(C(=O)[N-]Cc3ccccc3)c2O)c1=O (optimized conformer: 62.18976254754767 kcal/mol)

> <smiles>
C=c1[nH]c(=O)[nH]c(=Cc2cccc(C(=O)NCc3ccccc3)c2O)c1=O

> <score_type>
oracle

> <origin>
adg

> <m_score__min__energy>
-15.1

> <m_primary>
energy

> <minimizedAffinity>
-9.94703

> <minimizedRMSD>
1.35305

> <CNNscore>
0.7668023109

> <CNNaffinity>
6.6234459877

> <CNN_VS>
5.0788736343

> <CNNaffinity_variance>
0.0129430890

$$$$
42:0


 32 35  0  0  0  0  0  0  0  0999 V2000
   60.8922   29.4472   47.3851 C   0  0  0  0  0  0  0  0  0  0  0  0
   59.8896   30.0630   46.7383 C   0  0  0  0  0  0  0  0  0  0  0  0
   59.1088   29.5476   45.6881 C   0  0  0  0  0  0  0  0  0  0  0  0
   59.0247   28.3046   45.1756 C   0  0  0  0  0  0  0  0  0  0  0  0
   58.3466   30.6049   45.2165 C   0  0  0  0  0  0  0  0  0  0  0  0
   58.6344   31.6926   46.0136 C   0  0  0  0  0  0  0  0  0  0  0  0
   58.0105   33.0471   45.8620 C   0  0  0  0  0  0  0  0  0  0  0  0
   59.5696   31.3681   46.9345 N   0  0  0  0  0  0  0  0  0  0  0  0
   58.1662   27.2188   45.6884 C   0  0  0  0  0  0  0  0  0  0  0  0
   56.7664   27.2877   45.5896 C   0  0  0  0  0  0  0  0  0  0  0  0
   56.1461   28.4025   45.0336 O   0  0  0  0  0  0  0  0  0  0  0  0
   56.0045   26.2556   46.0330 N   0  0  0  0  0  0  0  0  0  0  0  0
   56.5733   25.1401   46.5588 C   0  0  0  0  0  0  0  0  0  0  0  0
   55.8472   24.1968   46.9659 O   0  0  0  0  0  0  0  0  0  0  0  0
   57.9245   25.0385   46.6389 N   0  0  0  0  0  0  0  0  0  0  0  0
   58.7311   26.0443   46.2094 C   0  0  0  0  0  0  0  0  0  0  0  0
   59.9813   25.9144   46.2926 O   0  0  0  0  0  0  0  0  0  0  0  0
   60.1138   32.2586   47.9255 C   0  0  0  0  0  0  0  0  0  0  0  0
   61.1207   33.1694   47.5824 C   0  0  0  0  0  0  0  0  0  0  0  0
   61.6481   34.0295   48.5480 C   0  0  0  0  0  0  0  0  0  0  0  0
   61.1682   33.9907   49.8604 C   0  0  0  0  0  0  0  0  0  0  0  0
   60.1447   33.0956   50.2160 C   0  0  0  0  0  0  0  0  0  0  0  0
   59.6322   32.2211   49.2423 C   0  0  0  0  0  0  0  0  0  0  0  0
   59.6426   33.0546   51.6088 C   0  0  0  0  0  0  0  0  0  0  0  0
   59.0872   34.0790   52.0918 O   0  0  0  0  0  0  0  0  0  0  0  0
   59.7676   31.8700   52.4210 N   0  0  0  0  0  0  0  0  0  0  0  0
   58.5723   31.2059   52.9520 C   0  0  0  0  0  0  0  0  0  0  0  0
   58.4224   29.8478   52.2760 C   0  0  0  0  0  0  0  0  0  0  0  0
   59.6621   29.0876   52.3906 N   0  0  0  0  0  0  0  0  0  0  0  0
   60.9459   29.7202   52.4085 C   0  0  0  0  0  0  0  0  0  0  0  0
   61.9859   29.0135   52.3373 O   0  0  0  0  0  0  0  0  0  0  0  0
   61.0697   31.2078   52.5939 C   0  0  0  0  0  0  0  0  0  0  0  0
  1  2  2  0
  2  3  1  0
  3  4  2  0
  4  9  1  0
  9 10  2  0
 10 11  1  0
 10 12  1  0
 12 13  1  0
 13 14  2  0
 13 15  1  0
 15 16  1  0
 16 17  2  0
  3  5  1  0
  5  6  2  0
  6  7  1  0
  6  8  1  0
  8 18  1  0
 18 19  2  0
 19 20  1  0
 20 21  2  0
 21 22  1  0
 22 24  1  0
 24 25  2  0
 24 26  1  0
 26 27  1  0
 27 28  1  0
 28 29  1  0
 29 30  1  0
 30 31  2  0
 30 32  1  0
 22 23  2  0
  8  2  1  0
 23 18  1  0
 16  9  1  0
 32 26  1  0
M  CHG 1  11  -1
M  CHG 1  12  -1
M  CHG 1  15  -1
M  CHG 1  29  -1
M  END
> <UniqueID>
41

> <SMILES>
C=c1c(=Cc2c([O-])[n-]c(=O)[n-]c2=O)cc(C)n1-c1cccc(C(=O)N2CC[N-]C(=O)C2)c1

> <Energy>
106.30655154168818

> <Genealogy>
C=c1c(=Cc2c([O-])[n-]c(=O)[n-]c2=O)cc(C)n1-c1cccc(C(=O)N2CC[N-]C(=O)C2)c1 (protonated)
C=c1c(=Cc2c([O-])[n-]c(=O)[n-]c2=O)cc(C)n1-c1cccc(C(=O)N2CC[N-]C(=O)C2)c1 (3D coordinates assigned)
C=c1c(=Cc2c([O-])[n-]c(=O)[n-]c2=O)cc(C)n1-c1cccc(C(=O)N2CC[N-]C(=O)C2)c1 (nonaromatic ring conformer: 106.30655154168818 kcal/mol)

> <smiles>
C=c1c(=Cc2c(O)[nH]c(=O)[nH]c2=O)cc(C)n1-c1cccc(C(=O)N2CCNC(=O)C2)c1

> <score_type>
oracle

> <origin>
adg

> <m_score__min__energy>
-17.530000000000001

> <m_primary>
energy

> <minimizedAffinity>
-7.42030

> <minimizedRMSD>
1.24897

> <CNNscore>
0.2802905142

> <CNNaffinity>
6.8817849159

> <CNN_VS>
1.9288990498

> <CNNaffinity_variance>
0.1714664102

$$$$
52:0


 27 29  0  0  0  0  0  0  0  0999 V2000
   59.6117   28.3180   45.3960 N   0  0  0  0  0  0  0  0  0  0  0  0
   59.2147   27.3299   46.7712 S   0  0  0  0  0  0  0  0  0  0  0  0
   60.4840   26.7985   47.3781 O   0  0  0  0  0  0  0  0  0  0  0  0
   58.4982   28.1628   47.7987 O   0  0  0  0  0  0  0  0  0  0  0  0
   58.2150   25.9672   46.2751 C   0  0  0  0  0  0  0  0  0  0  0  0
   58.8070   24.7646   45.8099 C   0  0  0  0  0  0  0  0  0  0  0  0
   58.0019   23.6823   45.4107 C   0  0  0  0  0  0  0  0  0  0  0  0
   56.6209   23.8378   45.4918 C   0  0  0  0  0  0  0  0  0  0  0  0
   55.6752   22.9457   45.1639 N   0  0  0  0  0  0  0  0  0  0  0  0
   54.5358   23.6284   45.4347 C   0  0  0  0  0  0  0  0  0  0  0  0
   53.3956   23.1306   45.2582 O   0  0  0  0  0  0  0  0  0  0  0  0
   54.7152   24.8870   45.9109 N   0  0  0  0  0  0  0  0  0  0  0  0
   56.0508   24.9907   45.9358 C   0  0  0  0  0  0  0  0  0  0  0  0
   56.8121   26.0834   46.3396 C   0  0  0  0  0  0  0  0  0  0  0  0
   58.4044   28.7821   44.7043 C   0  0  0  0  0  0  0  0  0  0  0  0
   58.4792   30.2861   44.4270 C   0  0  0  0  0  0  0  0  0  0  0  0
   56.1030   30.3533   44.6331 O   0  0  0  0  0  0  0  0  0  0  0  0
   57.1876   30.9777   44.7767 C   0  0  0  0  0  0  0  0  0  0  0  0
   57.1432   32.3221   45.2722 N   0  0  0  0  0  0  0  0  0  0  0  0
   58.2406   33.2805   45.1975 C   0  0  0  0  0  0  0  0  0  0  0  0
   58.7146   33.6484   46.6017 C   0  0  0  0  0  0  0  0  0  0  0  0
   60.0210   32.9727   46.9334 C   0  0  0  0  0  0  0  0  0  0  0  0
   61.2230   33.6991   46.9071 C   0  0  0  0  0  0  0  0  0  0  0  0
   62.4269   33.0778   47.2525 C   0  0  0  0  0  0  0  0  0  0  0  0
   62.4397   31.7333   47.6344 C   0  0  0  0  0  0  0  0  0  0  0  0
   61.2469   31.0052   47.6680 C   0  0  0  0  0  0  0  0  0  0  0  0
   60.0397   31.6224   47.3212 C   0  0  0  0  0  0  0  0  0  0  0  0
 17 18  2  0
 18 16  1  0
 16 15  1  0
 15  1  1  0
  1  2  1  0
  2  3  2  0
  2  4  2  0
  2  5  1  0
  5  6  2  0
  6  7  1  0
  7  8  2  0
  8  9  1  0
  9 10  1  0
 10 11  2  0
 10 12  1  0
 12 13  1  0
 13 14  2  0
 18 19  1  0
 19 20  1  0
 20 21  1  0
 21 22  1  0
 22 23  2  0
 23 24  1  0
 24 25  2  0
 25 26  1  0
 26 27  2  0
 14  5  1  0
 27 22  1  0
 13  8  1  0
M  CHG 1   1  -1
M  CHG 1   9  -1
M  CHG 1  12  -1
M  CHG 1  19  -1
M  END
> <UniqueID>
50

> <SMILES>
O=C(CC[N-]S(=O)(=O)c1ccc2[n-]c(=O)[n-]c2c1)[N-]CCc1ccccc1

> <Energy>
73.66096955136048

> <Genealogy>
O=C(CC[N-]S(=O)(=O)c1ccc2[n-]c(=O)[n-]c2c1)[N-]CCc1ccccc1 (protonated)
O=C(CC[N-]S(=O)(=O)c1ccc2[n-]c(=O)[n-]c2c1)[N-]CCc1ccccc1 (3D coordinates assigned)
O=C(CC[N-]S(=O)(=O)c1ccc2[n-]c(=O)[n-]c2c1)[N-]CCc1ccccc1 (optimized conformer: 73.66096955136048 kcal/mol)

> <smiles>
O=C(CCNS(=O)(=O)c1ccc2[nH]c(=O)[nH]c2c1)NCCc1ccccc1

> <score_type>
oracle

> <origin>
adg

> <m_score__min__energy>
-15.26

> <m_primary>
energy

> <minimizedAffinity>
-8.22844

> <minimizedRMSD>
1.69723

> <CNNscore>
0.4986635149

> <CNNaffinity>
6.8502535820

> <CNN_VS>
3.4159715176

> <CNNaffinity_variance>
0.1842588186

$$$$
61:0


 31 34  0  0  0  0  0  0  0  0999 V2000
   58.1957   31.0368   45.7654 C   0  0  0  0  0  0  0  0  0  0  0  0
   57.4190   32.0977   45.2793 C   0  0  0  0  0  0  0  0  0  0  0  0
   57.5715   33.3776   45.8140 C   0  0  0  0  0  0  0  0  0  0  0  0
   58.4978   33.6083   46.8329 C   0  0  0  0  0  0  0  0  0  0  0  0
   59.2819   32.5554   47.3411 C   0  0  0  0  0  0  0  0  0  0  0  0
   59.1258   31.2687   46.7897 C   0  0  0  0  0  0  0  0  0  0  0  0
   59.1370   28.4497   46.8960 C   0  0  0  0  0  0  0  0  0  0  0  0
   58.4764   28.5466   45.7310 C   0  0  0  0  0  0  0  0  0  0  0  0
   58.1497   27.4916   44.8662 C   0  0  0  0  0  0  0  0  0  0  0  0
   58.3924   26.1776   45.0671 C   0  0  0  0  0  0  0  0  0  0  0  0
   57.5155   28.0747   43.7737 C   0  0  0  0  0  0  0  0  0  0  0  0
   57.4735   29.4321   44.0146 C   0  0  0  0  0  0  0  0  0  0  0  0
   56.8784   30.4435   43.0796 C   0  0  0  0  0  0  0  0  0  0  0  0
   58.0617   29.7215   45.1952 N   0  0  0  0  0  0  0  0  0  0  0  0
   57.5957   25.2732   45.9252 C   0  0  0  0  0  0  0  0  0  0  0  0
   58.0225   24.1199   46.4720 N   0  0  0  0  0  0  0  0  0  0  0  0
   56.9585   23.6938   47.1861 C   0  0  0  0  0  0  0  0  0  0  0  0
   56.9717   22.6240   47.8491 O   0  0  0  0  0  0  0  0  0  0  0  0
   55.8815   24.5060   47.1375 N   0  0  0  0  0  0  0  0  0  0  0  0
   56.3029   25.5006   46.3393 C   0  0  0  0  0  0  0  0  0  0  0  0
   55.5210   26.5958   45.9971 O   0  0  0  0  0  0  0  0  0  0  0  0
   60.2719   32.8297   48.4177 C   0  0  0  0  0  0  0  0  0  0  0  0
   59.8880   33.4511   49.4482 O   0  0  0  0  0  0  0  0  0  0  0  0
   61.6630   32.4341   48.3030 N   0  0  0  0  0  0  0  0  0  0  0  0
   62.5246   33.5815   48.6902 C   0  0  0  0  0  0  0  0  0  0  0  0
   63.9757   33.1598   48.9575 C   0  0  0  0  0  0  0  0  0  0  0  0
   64.0038   32.0892   50.0082 C   0  0  0  0  0  0  0  0  0  0  0  0
   65.0442   31.8234   50.5882 O   0  0  0  0  0  0  0  0  0  0  0  0
   62.7376   31.3605   50.3430 C   0  0  0  0  0  0  0  0  0  0  0  0
   61.9194   31.1661   49.0565 C   0  0  0  0  0  0  0  0  0  0  0  0
   62.0991   33.3027   48.1464 H   0  0  0  0  0  0  0  0  0  0  0  0
  7  8  2  0
  8  9  1  0
  9 10  2  0
 10 15  1  0
 15 16  1  0
 16 17  1  0
 17 18  2  0
 17 19  1  0
 19 20  1  0
 20 21  1  0
  9 11  1  0
 11 12  2  0
 12 13  1  0
 12 14  1  0
 14  1  1  0
  1  2  2  0
  2  3  1  0
  3  4  2  0
  4  5  1  0
  5 22  1  0
 22 23  2  0
 22 24  1  0
 24 25  1  0
 25 26  1  0
 26 27  1  0
 27 28  2  0
 27 29  1  0
 29 30  1  0
  5  6  2  0
 14  8  1  0
  6  1  1  0
 20 15  2  0
 30 24  1  0
 24 31  1  0
M  CHG 1  16  -1
M  CHG 1  19  -1
M  CHG 1  21  -1
M  CHG 1  24   1
M  END
> <UniqueID>
57

> <SMILES>
C=c1c(=Cc2[n-]c(=O)[n-]c2[O-])cc(C)n1-c1cccc(C(=O)[NH+]2CCC(=O)CC2)c1

> <Energy>
132.20024986987713

> <Genealogy>
C=c1c(=Cc2[n-]c(=O)[n-]c2[O-])cc(C)n1-c1cccc(C(=O)[NH+]2CCC(=O)CC2)c1 (protonated)
C=c1c(=Cc2[n-]c(=O)[n-]c2[O-])cc(C)n1-c1cccc(C(=O)[NH+]2CCC(=O)CC2)c1 (3D coordinates assigned)
C=c1c(=Cc2[n-]c(=O)[n-]c2[O-])cc(C)n1-c1cccc(C(=O)[NH+]2CCC(=O)CC2)c1 (nonaromatic ring conformer: 132.20024986987713 kcal/mol)

> <smiles>
C=c1c(=Cc2[nH]c(=O)[nH]c2O)cc(C)n1-c1cccc(C(=O)N2CCC(=O)CC2)c1

> <score_type>
oracle

> <origin>
adg

> <m_score__min__energy>
-16.059999999999999

> <m_primary>
energy

> <minimizedAffinity>
-8.37769

> <minimizedRMSD>
1.08505

> <CNNscore>
0.2723918259

> <CNNaffinity>
6.8179874420

> <CNN_VS>
1.8571640253

> <CNNaffinity_variance>
0.0416014306

$$$$
76:0


 32 36  0  0  0  0  0  0  0  0999 V2000
   58.8729   27.0280   46.9882 C   0  0  0  0  0  0  0  0  0  0  0  0
   58.3182   28.2944   47.2118 C   0  0  0  0  0  0  0  0  0  0  0  0
   58.8725   29.1472   48.1697 C   0  0  0  0  0  0  0  0  0  0  0  0
   59.9900   28.7424   48.9188 C   0  0  0  0  0  0  0  0  0  0  0  0
   60.5356   27.4657   48.7001 C   0  0  0  0  0  0  0  0  0  0  0  0
   59.9845   26.6168   47.7354 C   0  0  0  0  0  0  0  0  0  0  0  0
   60.5493   29.6203   49.9687 C   0  0  0  0  0  0  0  0  0  0  0  0
   60.4439   29.2869   51.1798 O   0  0  0  0  0  0  0  0  0  0  0  0
   61.1968   30.8599   49.6352 N   0  0  0  0  0  0  0  0  0  0  0  0
   60.6088   31.7485   48.6188 C   0  0  0  0  0  0  0  0  0  0  0  0
   61.6752   32.5919   47.9877 C   0  0  0  0  0  0  0  0  0  0  0  0
   61.5263   33.4447   46.9134 C   0  0  0  0  0  0  0  0  0  0  0  0
   62.7811   33.9874   46.6799 C   0  0  0  0  0  0  0  0  0  0  0  0
   63.6370   33.4463   47.6231 C   0  0  0  0  0  0  0  0  0  0  0  0
   62.9492   32.6087   48.4219 N   0  0  0  0  0  0  0  0  0  0  0  0
   63.4904   31.7491   49.4708 C   0  0  0  0  0  0  0  0  0  0  0  0
   62.3654   31.2997   50.4126 C   0  0  0  0  0  0  0  0  0  0  0  0
   57.4407   24.4876   47.5204 C   0  0  0  0  0  0  0  0  0  0  0  0
   57.6437   24.9632   46.2831 C   0  0  0  0  0  0  0  0  0  0  0  0
   57.1546   24.4361   45.0749 C   0  0  0  0  0  0  0  0  0  0  0  0
   56.5368   23.2696   44.8042 C   0  0  0  0  0  0  0  0  0  0  0  0
   57.4461   25.3719   44.0962 C   0  0  0  0  0  0  0  0  0  0  0  0
   58.1427   26.3914   44.7126 C   0  0  0  0  0  0  0  0  0  0  0  0
   58.6712   27.6112   44.0214 C   0  0  0  0  0  0  0  0  0  0  0  0
   58.2747   26.1381   46.0326 N   0  0  0  0  0  0  0  0  0  0  0  0
   55.3906   22.7152   45.5400 C   0  0  0  0  0  0  0  0  0  0  0  0
   55.2322   21.4121   45.8412 N   0  0  0  0  0  0  0  0  0  0  0  0
   54.0005   21.3699   46.3944 C   0  0  0  0  0  0  0  0  0  0  0  0
   53.4874   20.3056   46.8271 O   0  0  0  0  0  0  0  0  0  0  0  0
   53.3563   22.5566   46.4377 N   0  0  0  0  0  0  0  0  0  0  0  0
   54.2449   23.3934   45.8785 C   0  0  0  0  0  0  0  0  0  0  0  0
   54.0145   24.7483   45.6804 O   0  0  0  0  0  0  0  0  0  0  0  0
 18 19  2  0
 19 20  1  0
 20 21  2  0
 21 26  1  0
 26 27  1  0
 27 28  1  0
 28 29  2  0
 28 30  1  0
 30 31  1  0
 31 32  1  0
 20 22  1  0
 22 23  2  0
 23 24  1  0
 23 25  1  0
 25  1  1  0
  1  2  2  0
  2  3  1  0
  3  4  2  0
  4  7  1  0
  7  8  2  0
  7  9  1  0
  9 10  1  0
 10 11  1  0
 11 12  2  0
 12 13  1  0
 13 14  2  0
 14 15  1  0
 15 16  1  0
 16 17  1  0
  4  5  1  0
  5  6  2  0
 25 19  1  0
  6  1  1  0
 31 26  2  0
 17  9  1  0
 15 11  1  0
M  CHG 1  27  -1
M  CHG 1  30  -1
M  CHG 1  32  -1
M  END
> <UniqueID>
70

> <SMILES>
C=c1/c(=C\c2[n-]c(=O)[n-]c2[O-])cc(C)n1-c1ccc(C(=O)N2CCn3cccc3C2)cc1

> <Energy>
165.43772144750244

> <Genealogy>
C=c1c(=Cc2[n-]c(=O)[n-]c2[O-])cc(C)n1-c1ccc(C(=O)N2CCn3cccc3C2)cc1 (protonated)
C=c1/c(=C\c2[n-]c(=O)[n-]c2[O-])cc(C)n1-c1ccc(C(=O)N2CCn3cccc3C2)cc1 (cis-trans isomerization)
C=c1/c(=C\c2[n-]c(=O)[n-]c2[O-])cc(C)n1-c1ccc(C(=O)N2CCn3cccc3C2)cc1 (3D coordinates assigned)
C=c1/c(=C\c2[n-]c(=O)[n-]c2[O-])cc(C)n1-c1ccc(C(=O)N2CCn3cccc3C2)cc1 (nonaromatic ring conformer: 165.43772144750244 kcal/mol)

> <smiles>
C=c1c(=Cc2[nH]c(=O)[nH]c2O)cc(C)n1-c1ccc(C(=O)N2CCn3cccc3C2)cc1

> <score_type>
oracle

> <origin>
adg

> <m_score__min__energy>
-16.050000000000001

> <m_primary>
energy

> <minimizedAffinity>
-8.33312

> <minimizedRMSD>
1.33864

> <CNNscore>
0.0736386925

> <CNNaffinity>
5.7388272285

> <CNN_VS>
0.4225997329

> <CNNaffinity_variance>
0.2627768815

$$$$
80:0


 27 29  0  0  0  0  0  0  0  0999 V2000
   58.4427   31.5081   45.0521 C   0  0  0  0  0  0  0  0  0  0  0  0
   58.7948   30.9543   46.2251 C   0  0  0  0  0  0  0  0  0  0  0  0
   59.2546   29.6417   46.4364 C   0  0  0  0  0  0  0  0  0  0  0  0
   59.3618   28.5887   45.5999 C   0  0  0  0  0  0  0  0  0  0  0  0
   59.6132   29.5661   47.7696 C   0  0  0  0  0  0  0  0  0  0  0  0
   59.3257   30.7883   48.3346 C   0  0  0  0  0  0  0  0  0  0  0  0
   59.5873   31.1374   49.7690 C   0  0  0  0  0  0  0  0  0  0  0  0
   58.8350   31.6397   47.4025 N   0  0  0  0  0  0  0  0  0  0  0  0
   58.7730   27.2558   45.8190 C   0  0  0  0  0  0  0  0  0  0  0  0
   57.3955   27.0396   45.6594 C   0  0  0  0  0  0  0  0  0  0  0  0
   56.5560   28.0755   45.2680 O   0  0  0  0  0  0  0  0  0  0  0  0
   56.8709   25.8088   45.8946 N   0  0  0  0  0  0  0  0  0  0  0  0
   57.6577   24.7792   46.3016 C   0  0  0  0  0  0  0  0  0  0  0  0
   57.1514   23.6462   46.5106 O   0  0  0  0  0  0  0  0  0  0  0  0
   58.9885   24.9722   46.4895 N   0  0  0  0  0  0  0  0  0  0  0  0
   59.5608   26.1842   46.2666 C   0  0  0  0  0  0  0  0  0  0  0  0
   60.7973   26.3307   46.4550 O   0  0  0  0  0  0  0  0  0  0  0  0
   58.4307   33.0339   47.6598 C   0  0  0  0  0  0  0  0  0  0  0  0
   59.4384   34.0300   47.0677 C   0  0  0  0  0  0  0  0  0  0  0  0
   60.8321   33.8133   47.6037 C   0  0  0  0  0  0  0  0  0  0  0  0
   61.8463   33.3753   46.7339 C   0  0  0  0  0  0  0  0  0  0  0  0
   63.1510   33.1985   47.2012 C   0  0  0  0  0  0  0  0  0  0  0  0
   63.4561   33.4557   48.5389 C   0  0  0  0  0  0  0  0  0  0  0  0
   62.4585   33.8935   49.4122 C   0  0  0  0  0  0  0  0  0  0  0  0
   61.1462   34.0804   48.9531 C   0  0  0  0  0  0  0  0  0  0  0  0
   60.1622   34.5385   49.8270 O   0  0  0  0  0  0  0  0  0  0  0  0
   60.3757   34.7145   50.7222 H   0  0  0  0  0  0  0  0  0  0  0  0
  1  2  2  0
  2  3  1  0
  3  4  2  0
  4  9  1  0
  9 10  2  0
 10 11  1  0
 10 12  1  0
 12 13  1  0
 13 14  2  0
 13 15  1  0
 15 16  1  0
 16 17  2  0
  3  5  1  0
  5  6  2  0
  6  7  1  0
  6  8  1  0
  8 18  1  0
 18 19  1  0
 19 20  1  0
 20 21  2  0
 21 22  1  0
 22 23  2  0
 23 24  1  0
 24 25  2  0
 25 26  1  0
  8  2  1  0
 25 20  1  0
 16  9  1  0
 26 27  1  0
M  CHG 1  11  -1
M  CHG 1  12  -1
M  CHG 1  15  -1
M  END
> <UniqueID>
74

> <SMILES>
C=c1c(=Cc2c([O-])[n-]c(=O)[n-]c2=O)cc(C)n1CCc1ccccc1O

> <Energy>
82.7327556926275

> <Genealogy>
C=c1c(=Cc2c([O-])[n-]c(=O)[n-]c2=O)cc(C)n1CCc1ccccc1O (protonated)
C=c1c(=Cc2c([O-])[n-]c(=O)[n-]c2=O)cc(C)n1CCc1ccccc1O (3D coordinates assigned)
C=c1c(=Cc2c([O-])[n-]c(=O)[n-]c2=O)cc(C)n1CCc1ccccc1O (optimized conformer: 82.7327556926275 kcal/mol)

> <smiles>
C=c1c(=Cc2c(O)[nH]c(=O)[nH]c2=O)cc(C)n1CCc1ccccc1O

> <score_type>
oracle

> <origin>
adg

> <m_score__min__energy>
-15.83

> <m_primary>
energy

> <minimizedAffinity>
-7.86699

> <minimizedRMSD>
1.16828

> <CNNscore>
0.5940568447

> <CNNaffinity>
7.0216121674

> <CNN_VS>
4.1712369919

> <CNNaffinity_variance>
0.3946680129

$$$$
87:0


 30 33  0  0  0  0  0  0  0  0999 V2000
   56.4366   31.7456   52.2588 C   0  0  0  0  0  0  0  0  0  0  0  0
   56.0930   30.5203   52.6911 C   0  0  0  0  0  0  0  0  0  0  0  0
   54.8168   30.1036   53.1026 C   0  0  0  0  0  0  0  0  0  0  0  0
   53.6090   30.6849   52.9645 C   0  0  0  0  0  0  0  0  0  0  0  0
   54.9898   28.8782   53.7244 C   0  0  0  0  0  0  0  0  0  0  0  0
   56.3258   28.5560   53.6046 C   0  0  0  0  0  0  0  0  0  0  0  0
   56.9360   27.2841   54.1124 C   0  0  0  0  0  0  0  0  0  0  0  0
   56.9978   29.5473   52.9762 N   0  0  0  0  0  0  0  0  0  0  0  0
   52.8164   30.7252   51.7250 C   0  0  0  0  0  0  0  0  0  0  0  0
   51.7436   31.5491   51.4710 C   0  0  0  0  0  0  0  0  0  0  0  0
   51.2961   32.5738   52.2962 O   0  0  0  0  0  0  0  0  0  0  0  0
   51.1642   31.2255   50.2996 N   0  0  0  0  0  0  0  0  0  0  0  0
   51.9048   30.1774   49.8806 C   0  0  0  0  0  0  0  0  0  0  0  0
   51.6729   29.5631   48.8051 O   0  0  0  0  0  0  0  0  0  0  0  0
   52.9010   29.8366   50.7192 N   0  0  0  0  0  0  0  0  0  0  0  0
   53.5474   29.1008   50.6187 H   0  0  0  0  0  0  0  0  0  0  0  0
   58.4066   29.5553   52.6816 C   0  0  0  0  0  0  0  0  0  0  0  0
   59.4358   29.4891   53.6012 C   0  0  0  0  0  0  0  0  0  0  0  0
   60.6023   29.5472   52.8631 C   0  0  0  0  0  0  0  0  0  0  0  0
   60.3113   29.6336   51.5478 N   0  0  0  0  0  0  0  0  0  0  0  0
   58.9702   29.6404   51.4258 C   0  0  0  0  0  0  0  0  0  0  0  0
   61.2770   29.7839   50.4621 C   0  0  0  0  0  0  0  0  0  0  0  0
   60.7441   29.1427   49.2019 C   0  0  0  0  0  0  0  0  0  0  0  0
   60.6040   27.7441   49.1557 C   0  0  0  0  0  0  0  0  0  0  0  0
   60.1518   27.1141   47.9957 C   0  0  0  0  0  0  0  0  0  0  0  0
   59.8433   27.8681   46.8631 C   0  0  0  0  0  0  0  0  0  0  0  0
   59.9913   29.2568   46.8860 C   0  0  0  0  0  0  0  0  0  0  0  0
   60.4442   29.9020   48.0450 C   0  0  0  0  0  0  0  0  0  0  0  0
   60.5937   31.3378   48.0210 C   0  0  0  0  0  0  0  0  0  0  0  0
   60.7128   32.4876   47.9989 N   0  0  0  0  0  0  0  0  0  0  0  0
  1  2  2  0
  2  3  1  0
  3  4  2  0
  4  9  1  0
  9 10  2  0
 10 11  1  0
 10 12  1  0
 12 13  1  0
 13 14  2  0
 13 15  1  0
  3  5  1  0
  5  6  2  0
  6  7  1  0
  6  8  1  0
  8 17  1  0
 17 18  1  0
 18 19  2  0
 19 20  1  0
 20 22  1  0
 22 23  1  0
 23 24  2  0
 24 25  1  0
 25 26  2  0
 26 27  1  0
 27 28  2  0
 28 29  1  0
 29 30  3  0
 20 21  1  0
  8  2  1  0
 21 17  2  0
 15  9  1  0
 28 23  1  0
 15 16  1  0
M  CHG 1  11  -1
M  CHG 1  12  -1
M  END
> <UniqueID>
81

> <SMILES>
C=c1/c(=C\c2[nH]c(=O)[n-]c2[O-])cc(C)n1-c1ccn(Cc2ccccc2C#N)c1

> <Energy>
150.48780937318574

> <Genealogy>
C=c1c(=Cc2[nH]c(=O)[n-]c2[O-])cc(C)n1-c1ccn(Cc2ccccc2C#N)c1 (protonated)
C=c1/c(=C\c2[nH]c(=O)[n-]c2[O-])cc(C)n1-c1ccn(Cc2ccccc2C#N)c1 (cis-trans isomerization)
C=c1/c(=C\c2[nH]c(=O)[n-]c2[O-])cc(C)n1-c1ccn(Cc2ccccc2C#N)c1 (3D coordinates assigned)
C=c1/c(=C\c2[nH]c(=O)[n-]c2[O-])cc(C)n1-c1ccn(Cc2ccccc2C#N)c1 (optimized conformer: 150.48780937318574 kcal/mol)

> <smiles>
C=c1c(=Cc2[nH]c(=O)[nH]c2O)cc(C)n1-c1ccn(Cc2ccccc2C#N)c1

> <score_type>
oracle

> <origin>
adg

> <m_score__min__energy>
-14.84

> <m_primary>
energy

> <minimizedAffinity>
-6.46163

> <minimizedRMSD>
1.02382

> <CNNscore>
0.0871140435

> <CNNaffinity>
5.3693337440

> <CNN_VS>
0.4677443802

> <CNNaffinity_variance>
0.3830085099

$$$$
2:0


 30 33  0  0  0  0  0  0  0  0999 V2000
   58.3099   27.1078   46.7471 C   0  0  0  0  0  0  0  0  0  0  0  0
   58.7969   27.2507   45.4386 C   0  0  0  0  0  0  0  0  0  0  0  0
   59.7009   28.2660   45.1326 C   0  0  0  0  0  0  0  0  0  0  0  0
   60.1466   29.1369   46.1343 C   0  0  0  0  0  0  0  0  0  0  0  0
   59.7132   28.9803   47.4628 C   0  0  0  0  0  0  0  0  0  0  0  0
   58.8048   27.9462   47.7676 C   0  0  0  0  0  0  0  0  0  0  0  0
   57.3678   26.0600   47.0237 N   0  0  0  0  0  0  0  0  0  0  0  0
   55.3712   25.7578   45.8931 O   0  0  0  0  0  0  0  0  0  0  0  0
   56.5516   25.3544   46.0754 C   0  0  0  0  0  0  0  0  0  0  0  0
   57.0364   24.1719   45.3229 C   0  0  0  0  0  0  0  0  0  0  0  0
   58.2620   23.5571   45.6372 C   0  0  0  0  0  0  0  0  0  0  0  0
   58.6944   22.4519   44.8905 C   0  0  0  0  0  0  0  0  0  0  0  0
   59.9141   21.8395   45.1638 O   0  0  0  0  0  0  0  0  0  0  0  0
   57.9188   21.9705   43.8831 N   0  0  0  0  0  0  0  0  0  0  0  0
   56.7168   22.5270   43.5749 C   0  0  0  0  0  0  0  0  0  0  0  0
   56.0258   22.0471   42.6366 O   0  0  0  0  0  0  0  0  0  0  0  0
   56.2484   23.6288   44.2962 C   0  0  0  0  0  0  0  0  0  0  0  0
   60.4562   22.1634   45.8560 H   0  0  0  0  0  0  0  0  0  0  0  0
   60.2716   29.8792   48.5430 C   0  0  0  0  0  0  0  0  0  0  0  0
   60.9475   31.1021   47.9723 C   0  0  0  0  0  0  0  0  0  0  0  0
   62.3015   31.1641   48.0604 N   0  0  0  0  0  0  0  0  0  0  0  0
   62.9958   32.1963   47.5883 N   0  0  0  0  0  0  0  0  0  0  0  0
   62.3901   33.2465   46.9868 C   0  0  0  0  0  0  0  0  0  0  0  0
   63.0920   34.2093   46.5831 O   0  0  0  0  0  0  0  0  0  0  0  0
   60.9934   33.2506   46.8292 C   0  0  0  0  0  0  0  0  0  0  0  0
   60.2528   32.1539   47.3239 C   0  0  0  0  0  0  0  0  0  0  0  0
   58.7490   32.1646   47.1651 C   0  0  0  0  0  0  0  0  0  0  0  0
   58.3760   32.7732   45.8155 C   0  0  0  0  0  0  0  0  0  0  0  0
   58.8459   34.2319   45.7274 C   0  0  0  0  0  0  0  0  0  0  0  0
   60.3046   34.4618   46.2148 C   0  0  0  0  0  0  0  0  0  0  0  0
  8  9  2  0
  9  7  1  0
  7  1  1  0
  1  2  2  0
  2  3  1  0
  3  4  2  0
  4  5  1  0
  5 19  1  0
 19 20  1  0
 20 21  2  0
 21 22  1  0
 22 23  1  0
 23 24  2  0
 23 25  1  0
 25 26  2  0
 26 27  1  0
 27 28  1  0
 28 29  1  0
 29 30  1  0
  5  6  2  0
  9 10  1  0
 10 11  1  0
 11 12  2  0
 12 13  1  0
 12 14  1  0
 14 15  1  0
 15 16  2  0
 15 17  1  0
  6  1  1  0
 17 10  2  0
 26 20  1  0
 30 25  1  0
 13 18  1  0
M  CHG 1   7  -1
M  CHG 1  14  -1
M  CHG 1  22  -1
M  END
> <UniqueID>
3

> <SMILES>
O=C([N-]c1cccc(Cc2n[n-]c(=O)c3c2CCCC3)c1)c1cc(O)[n-]c(=O)c1

> <Energy>
60.38428414440157

> <Genealogy>
O=C([N-]c1cccc(Cc2n[n-]c(=O)c3c2CCCC3)c1)c1cc(O)[n-]c(=O)c1 (protonated)
O=C([N-]c1cccc(Cc2n[n-]c(=O)c3c2CCCC3)c1)c1cc(O)[n-]c(=O)c1 (3D coordinates assigned)
O=C([N-]c1cccc(Cc2n[n-]c(=O)c3c2CCCC3)c1)c1cc(O)[n-]c(=O)c1 (nonaromatic ring conformer: 60.38428414440157 kcal/mol)

> <smiles>
O=C(Nc1cccc(Cc2n[nH]c(=O)c3c2CCCC3)c1)c1cc(O)[nH]c(=O)c1

> <score_type>
oracle

> <origin>
adg

> <m_score__min__energy>
-14.52

> <m_primary>
energy

> <minimizedAffinity>
-9.80064

> <minimizedRMSD>
0.46586

> <CNNscore>
0.5097540617

> <CNNaffinity>
7.1071858406

> <CNN_VS>
3.6229169369

> <CNNaffinity_variance>
0.0133328764

$$$$
10:0


 26 28  0  0  0  0  0  0  0  0999 V2000
   60.2809   28.6421   46.6992 N   0  0  0  0  0  0  0  0  0  0  0  0
   60.5891   27.5175   45.7880 C   0  0  0  0  0  0  0  0  0  0  0  0
   59.3394   26.7304   45.3535 C   0  0  0  0  0  0  0  0  0  0  0  0
   58.4836   26.4200   46.5060 N   0  0  0  0  0  0  0  0  0  0  0  0
   57.6785   25.2218   46.5319 C   0  0  0  0  0  0  0  0  0  0  0  0
   57.2753   24.7697   47.6393 O   0  0  0  0  0  0  0  0  0  0  0  0
   58.2100   27.4912   47.4691 C   0  0  0  0  0  0  0  0  0  0  0  0
   59.5155   28.1816   47.8734 C   0  0  0  0  0  0  0  0  0  0  0  0
   59.6580   29.7990   46.0176 C   0  0  0  0  0  0  0  0  0  0  0  0
   59.1340   30.8004   47.0521 C   0  0  0  0  0  0  0  0  0  0  0  0
   58.0020   32.5130   45.5541 C   0  0  0  0  0  0  0  0  0  0  0  0
   57.9634   33.8057   44.9913 C   0  0  0  0  0  0  0  0  0  0  0  0
   58.9471   34.7450   45.3104 C   0  0  0  0  0  0  0  0  0  0  0  0
   59.9788   34.4097   46.1870 C   0  0  0  0  0  0  0  0  0  0  0  0
   60.0294   33.1340   46.7524 C   0  0  0  0  0  0  0  0  0  0  0  0
   59.0380   32.1830   46.4539 C   0  0  0  0  0  0  0  0  0  0  0  0
   56.9747   30.8335   44.0069 C   0  0  0  0  0  0  0  0  0  0  0  0
   57.0367   31.5410   45.2400 O   0  0  0  0  0  0  0  0  0  0  0  0
   57.3587   24.4616   45.2701 C   0  0  0  0  0  0  0  0  0  0  0  0
   56.3891   23.3472   45.5340 C   0  0  0  0  0  0  0  0  0  0  0  0
   56.7821   21.7092   45.5683 S   0  0  0  0  0  0  0  0  0  0  0  0
   55.1858   21.2481   45.8172 C   0  0  0  0  0  0  0  0  0  0  0  0
   54.8036   20.0562   45.9417 O   0  0  0  0  0  0  0  0  0  0  0  0
   54.3414   22.3003   45.8658 N   0  0  0  0  0  0  0  0  0  0  0  0
   55.0127   23.4694   45.7008 C   0  0  0  0  0  0  0  0  0  0  0  0
   54.3537   24.6940   45.6961 O   0  0  0  0  0  0  0  0  0  0  0  0
 17 18  1  0
 18 11  1  0
 11 12  2  0
 12 13  1  0
 13 14  2  0
 14 15  1  0
 15 16  2  0
 16 10  1  0
 10  9  1  0
  9  1  1  0
  1  2  1  0
  2  3  1  0
  3  4  1  0
  4  5  1  0
  5  6  2  0
  5 19  1  0
 19 20  1  0
 20 21  1  0
 21 22  1  0
 22 23  2  0
 22 24  1  0
 24 25  1  0
 25 26  1  0
  4  7  1  0
  7  8  1  0
 16 11  1  0
  8  1  1  0
 25 20  2  0
M  CHG 1  24  -1
M  CHG 1  26  -1
M  END
> <UniqueID>
11

> <SMILES>
COc1ccccc1CCN1CCN(C(=O)Cc2sc(=O)[n-]c2[O-])CC1

> <Energy>
81.36144392948317

> <Genealogy>
COc1ccccc1CCN1CCN(C(=O)Cc2sc(=O)[n-]c2[O-])CC1 (protonated)
COc1ccccc1CCN1CCN(C(=O)Cc2sc(=O)[n-]c2[O-])CC1 (3D coordinates assigned)
COc1ccccc1CCN1CCN(C(=O)Cc2sc(=O)[n-]c2[O-])CC1 (nonaromatic ring conformer: 81.36144392948317 kcal/mol)

> <smiles>
COc1ccccc1CCN1CCN(C(=O)Cc2sc(=O)[nH]c2O)CC1

> <score_type>
oracle

> <origin>
adg

> <m_score__min__energy>
-14.039999999999999

> <m_primary>
energy

> <minimizedAffinity>
-6.80782

> <minimizedRMSD>
1.12057

> <CNNscore>
0.2348021865

> <CNNaffinity>
6.2900900841

> <CNN_VS>
1.4769269228

> <CNNaffinity_variance>
0.2667778730

$$$$
23:0


 31 34  0  0  0  0  0  0  0  0999 V2000
   59.2558   26.9109   47.3805 C   0  0  0  0  0  0  0  0  0  0  0  0
   58.7560   27.5334   46.3015 C   0  0  0  0  0  0  0  0  0  0  0  0
   58.2202   26.9445   45.1413 C   0  0  0  0  0  0  0  0  0  0  0  0
   57.9693   25.6554   44.8330 C   0  0  0  0  0  0  0  0  0  0  0  0
   57.9382   27.9845   44.2729 C   0  0  0  0  0  0  0  0  0  0  0  0
   58.2672   29.1538   44.9249 C   0  0  0  0  0  0  0  0  0  0  0  0
   58.0984   30.5287   44.3515 C   0  0  0  0  0  0  0  0  0  0  0  0
   58.7521   28.8846   46.1566 N   0  0  0  0  0  0  0  0  0  0  0  0
   57.3333   24.6665   45.7237 C   0  0  0  0  0  0  0  0  0  0  0  0
   56.0775   24.9108   46.3021 C   0  0  0  0  0  0  0  0  0  0  0  0
   55.4165   26.1150   46.0842 O   0  0  0  0  0  0  0  0  0  0  0  0
   55.4964   23.9640   47.0836 N   0  0  0  0  0  0  0  0  0  0  0  0
   56.1011   22.7694   47.3025 C   0  0  0  0  0  0  0  0  0  0  0  0
   55.5447   21.9076   48.0329 O   0  0  0  0  0  0  0  0  0  0  0  0
   57.3026   22.4993   46.7312 N   0  0  0  0  0  0  0  0  0  0  0  0
   57.9257   23.4133   45.9438 C   0  0  0  0  0  0  0  0  0  0  0  0
   59.0364   23.1274   45.4217 O   0  0  0  0  0  0  0  0  0  0  0  0
   59.2322   29.8648   47.0935 C   0  0  0  0  0  0  0  0  0  0  0  0
   58.9236   31.2192   46.9137 C   0  0  0  0  0  0  0  0  0  0  0  0
   59.4034   32.1728   47.8121 C   0  0  0  0  0  0  0  0  0  0  0  0
   60.1959   31.7830   48.8945 C   0  0  0  0  0  0  0  0  0  0  0  0
   60.5208   30.4278   49.0878 C   0  0  0  0  0  0  0  0  0  0  0  0
   60.0342   29.4744   48.1758 C   0  0  0  0  0  0  0  0  0  0  0  0
   61.3306   30.0195   50.2094 N   0  0  0  0  0  0  0  0  0  0  0  0
   61.1320   28.6832   50.7881 C   0  0  0  0  0  0  0  0  0  0  0  0
   61.9693   28.5078   52.0575 C   0  0  0  0  0  0  0  0  0  0  0  0
   63.3484   28.9475   51.8130 N   0  0  0  0  0  0  0  0  0  0  0  0
   63.4537   30.3822   51.4648 C   0  0  0  0  0  0  0  0  0  0  0  0
   62.1470   31.0053   50.9301 C   0  0  0  0  0  0  0  0  0  0  0  0
   63.7312   28.3988   51.0430 H   0  0  0  0  0  0  0  0  0  0  0  0
   63.8675   28.8087   52.6800 H   0  0  0  0  0  0  0  0  0  0  0  0
  1  2  2  0
  2  3  1  0
  3  4  2  0
  4  9  1  0
  9 10  2  0
 10 11  1  0
 10 12  1  0
 12 13  1  0
 13 14  2  0
 13 15  1  0
 15 16  1  0
 16 17  2  0
  3  5  1  0
  5  6  2  0
  6  7  1  0
  6  8  1  0
  8 18  1  0
 18 19  2  0
 19 20  1  0
 20 21  2  0
 21 22  1  0
 22 24  1  0
 24 25  1  0
 25 26  1  0
 26 27  1  0
 27 28  1  0
 28 29  1  0
 22 23  2  0
  8  2  1  0
 23 18  1  0
 16  9  1  0
 29 24  1  0
 27 30  1  0
 27 31  1  0
M  CHG 1  11  -1
M  CHG 1  12  -1
M  CHG 1  15  -1
M  CHG 1  27   1
M  END
> <UniqueID>
23

> <SMILES>
C=c1/c(=C\c2c([O-])[n-]c(=O)[n-]c2=O)cc(C)n1-c1cccc(N2CC[NH2+]CC2)c1

> <Energy>
110.33549257862819

> <Genealogy>
C=c1c(=Cc2c([O-])[n-]c(=O)[n-]c2=O)cc(C)n1-c1cccc(N2CC[NH2+]CC2)c1 (protonated)
C=c1/c(=C\c2c([O-])[n-]c(=O)[n-]c2=O)cc(C)n1-c1cccc(N2CC[NH2+]CC2)c1 (cis-trans isomerization)
C=c1/c(=C\c2c([O-])[n-]c(=O)[n-]c2=O)cc(C)n1-c1cccc(N2CC[NH2+]CC2)c1 (3D coordinates assigned)
C=c1/c(=C\c2c([O-])[n-]c(=O)[n-]c2=O)cc(C)n1-c1cccc(N2CC[NH2+]CC2)c1 (nonaromatic ring conformer: 110.33549257862819 kcal/mol)

> <smiles>
C=c1c(=Cc2c(O)[nH]c(=O)[nH]c2=O)cc(C)n1-c1cccc(N2CCNCC2)c1

> <score_type>
oracle

> <origin>
adg

> <m_score__min__energy>
-15.56

> <m_primary>
energy

> <minimizedAffinity>
-8.34884

> <minimizedRMSD>
2.76597

> <CNNscore>
0.1616743952

> <CNNaffinity>
6.3553390503

> <CNN_VS>
1.0274956226

> <CNNaffinity_variance>
0.0526923537

$$$$
25:0


 33 36  0  0  0  0  0  0  0  0999 V2000
   61.4788   29.7605   46.5619 C   0  0  0  0  0  0  0  0  0  0  0  0
   60.4629   30.6397   46.5345 C   0  0  0  0  0  0  0  0  0  0  0  0
   59.3036   30.5823   45.7416 C   0  0  0  0  0  0  0  0  0  0  0  0
   58.8375   29.6310   44.9080 C   0  0  0  0  0  0  0  0  0  0  0  0
   58.6415   31.7843   45.9404 C   0  0  0  0  0  0  0  0  0  0  0  0
   59.3803   32.5080   46.8504 C   0  0  0  0  0  0  0  0  0  0  0  0
   59.0640   33.9149   47.2578 C   0  0  0  0  0  0  0  0  0  0  0  0
   60.4796   31.8135   47.2225 N   0  0  0  0  0  0  0  0  0  0  0  0
   58.2188   28.3562   45.3155 C   0  0  0  0  0  0  0  0  0  0  0  0
   56.8237   28.2344   45.3729 C   0  0  0  0  0  0  0  0  0  0  0  0
   56.0043   29.2968   45.0071 O   0  0  0  0  0  0  0  0  0  0  0  0
   56.2622   27.0680   45.7819 N   0  0  0  0  0  0  0  0  0  0  0  0
   57.0305   26.0112   46.1531 C   0  0  0  0  0  0  0  0  0  0  0  0
   56.4875   24.9389   46.5245 O   0  0  0  0  0  0  0  0  0  0  0  0
   58.3835   26.1126   46.1284 N   0  0  0  0  0  0  0  0  0  0  0  0
   58.9941   27.2587   45.7273 C   0  0  0  0  0  0  0  0  0  0  0  0
   60.2515   27.3241   45.7348 O   0  0  0  0  0  0  0  0  0  0  0  0
   61.5339   32.3019   48.0743 C   0  0  0  0  0  0  0  0  0  0  0  0
   62.5482   33.0974   47.5218 C   0  0  0  0  0  0  0  0  0  0  0  0
   63.6266   33.5153   48.3043 C   0  0  0  0  0  0  0  0  0  0  0  0
   63.7079   33.1345   49.6442 C   0  0  0  0  0  0  0  0  0  0  0  0
   62.7028   32.3449   50.2102 C   0  0  0  0  0  0  0  0  0  0  0  0
   61.6011   31.9359   49.4404 C   0  0  0  0  0  0  0  0  0  0  0  0
   60.5359   31.1365   50.0808 C   0  0  0  0  0  0  0  0  0  0  0  0
   60.5888   29.8782   50.0111 O   0  0  0  0  0  0  0  0  0  0  0  0
   59.4594   31.7694   50.7957 N   0  0  0  0  0  0  0  0  0  0  0  0
   59.4397   33.2294   50.9294 C   0  0  0  0  0  0  0  0  0  0  0  0
   58.8888   33.6212   52.2995 C   0  0  0  0  0  0  0  0  0  0  0  0
   57.6414   32.9217   52.5897 N   0  0  0  0  0  0  0  0  0  0  0  0
   57.3868   31.6031   52.0929 C   0  0  0  0  0  0  0  0  0  0  0  0
   56.4345   30.9292   52.5699 O   0  0  0  0  0  0  0  0  0  0  0  0
   58.1931   31.0437   50.9586 C   0  0  0  0  0  0  0  0  0  0  0  0
   56.9580   33.3674   53.1406 H   0  0  0  0  0  0  0  0  0  0  0  0
  1  2  2  0
  2  3  1  0
  3  4  2  0
  4  9  1  0
  9 10  2  0
 10 11  1  0
 10 12  1  0
 12 13  1  0
 13 14  2  0
 13 15  1  0
 15 16  1  0
 16 17  2  0
  3  5  1  0
  5  6  2  0
  6  7  1  0
  6  8  1  0
  8 18  1  0
 18 19  2  0
 19 20  1  0
 20 21  2  0
 21 22  1  0
 22 23  2  0
 23 24  1  0
 24 25  2  0
 24 26  1  0
 26 27  1  0
 27 28  1  0
 28 29  1  0
 29 30  1  0
 30 31  2  0
 30 32  1  0
  8  2  1  0
 23 18  1  0
 32 26  1  0
 16  9  1  0
 29 33  1  0
M  CHG 1  11  -1
M  CHG 1  12  -1
M  CHG 1  15  -1
M  END
> <UniqueID>
25

> <SMILES>
C=c1c(=Cc2c([O-])[n-]c(=O)[n-]c2=O)cc(C)n1-c1ccccc1C(=O)N1CCNC(=O)C1

> <Energy>
104.00813682667508

> <Genealogy>
C=c1c(=Cc2c([O-])[n-]c(=O)[n-]c2=O)cc(C)n1-c1ccccc1C(=O)N1CCNC(=O)C1 (protonated)
C=c1c(=Cc2c([O-])[n-]c(=O)[n-]c2=O)cc(C)n1-c1ccccc1C(=O)N1CCNC(=O)C1 (3D coordinates assigned)
C=c1c(=Cc2c([O-])[n-]c(=O)[n-]c2=O)cc(C)n1-c1ccccc1C(=O)N1CCNC(=O)C1 (nonaromatic ring conformer: 104.00813682667508 kcal/mol)

> <smiles>
C=c1c(=Cc2c(O)[nH]c(=O)[nH]c2=O)cc(C)n1-c1ccccc1C(=O)N1CCNC(=O)C1

> <score_type>
oracle

> <origin>
adg

> <m_score__min__energy>
-16.629999999999999

> <m_primary>
energy

> <minimizedAffinity>
-7.39267

> <minimizedRMSD>
1.03521

> <CNNscore>
0.4445385337

> <CNNaffinity>
7.0297889709

> <CNN_VS>
3.1250121593

> <CNNaffinity_variance>
0.1866523772

$$$$
44:0


 32 35  0  0  0  0  0  0  0  0999 V2000
   59.1855   30.4848   47.9211 C   0  0  0  0  0  0  0  0  0  0  0  0
   59.4271   27.5197   47.4802 C   0  0  0  0  0  0  0  0  0  0  0  0
   58.8501   28.3487   46.5981 C   0  0  0  0  0  0  0  0  0  0  0  0
   58.1830   28.0018   45.4138 C   0  0  0  0  0  0  0  0  0  0  0  0
   58.1212   26.8337   44.7415 C   0  0  0  0  0  0  0  0  0  0  0  0
   57.5572   29.1788   45.0235 C   0  0  0  0  0  0  0  0  0  0  0  0
   56.7021   29.3852   43.8122 C   0  0  0  0  0  0  0  0  0  0  0  0
   57.8820   30.1750   45.8678 N   0  0  0  0  0  0  0  0  0  0  0  0
   58.6822   29.6812   46.8019 N   0  0  0  0  0  0  0  0  0  0  0  0
   57.6226   25.5623   45.2864 C   0  0  0  0  0  0  0  0  0  0  0  0
   58.3676   24.4465   45.3688 N   0  0  0  0  0  0  0  0  0  0  0  0
   57.5714   23.5867   46.0401 C   0  0  0  0  0  0  0  0  0  0  0  0
   57.9184   22.4059   46.3023 O   0  0  0  0  0  0  0  0  0  0  0  0
   56.3776   24.0943   46.4164 N   0  0  0  0  0  0  0  0  0  0  0  0
   56.4320   25.3510   45.9466 C   0  0  0  0  0  0  0  0  0  0  0  0
   55.4281   26.2921   46.1434 O   0  0  0  0  0  0  0  0  0  0  0  0
   59.5102   31.8957   47.4795 C   0  0  0  0  0  0  0  0  0  0  0  0
   58.4508   32.7937   47.2582 C   0  0  0  0  0  0  0  0  0  0  0  0
   58.7014   34.1033   46.8463 C   0  0  0  0  0  0  0  0  0  0  0  0
   60.0094   34.5347   46.6439 C   0  0  0  0  0  0  0  0  0  0  0  0
   61.0748   33.6565   46.8461 C   0  0  0  0  0  0  0  0  0  0  0  0
   60.8472   32.3312   47.2593 C   0  0  0  0  0  0  0  0  0  0  0  0
   62.0392   31.4200   47.4636 C   0  0  0  0  0  0  0  0  0  0  0  0
   62.9970   32.0152   48.3922 N   0  0  0  0  0  0  0  0  0  0  0  0
   63.0523   31.6535   49.7801 C   0  0  0  0  0  0  0  0  0  0  0  0
   62.1428   30.9342   50.2789 O   0  0  0  0  0  0  0  0  0  0  0  0
   64.1367   32.1005   50.6106 N   0  0  0  0  0  0  0  0  0  0  0  0
   64.2126   31.8157   52.0327 C   0  0  0  0  0  0  0  0  0  0  0  0
   65.4473   32.5534   52.5326 C   0  0  0  0  0  0  0  0  0  0  0  0
   66.2703   32.8805   51.2885 C   0  0  0  0  0  0  0  0  0  0  0  0
   65.2977   32.8199   50.1175 C   0  0  0  0  0  0  0  0  0  0  0  0
   63.6285   32.6901   48.0532 H   0  0  0  0  0  0  0  0  0  0  0  0
  2  3  2  0
  3  4  1  0
  4  5  2  0
  5 10  1  0
 10 11  1  0
 11 12  1  0
 12 13  2  0
 12 14  1  0
 14 15  1  0
 15 16  1  0
  4  6  1  0
  6  7  1  0
  6  8  2  0
  8  9  1  0
  9  1  1  0
  1 17  1  0
 17 18  2  0
 18 19  1  0
 19 20  2  0
 20 21  1  0
 21 22  2  0
 22 23  1  0
 23 24  1  0
 24 25  1  0
 25 26  2  0
 25 27  1  0
 27 28  1  0
 28 29  1  0
 29 30  1  0
 30 31  1  0
  9  3  1  0
 22 17  1  0
 31 27  1  0
 15 10  2  0
 24 32  1  0
M  CHG 1  11  -1
M  CHG 1  14  -1
M  CHG 1  16  -1
M  END
> <UniqueID>
41

> <SMILES>
C=c1/c(=C\c2[n-]c(=O)[n-]c2[O-])c(C)nn1Cc1ccccc1CNC(=O)N1CCCC1

> <Energy>
127.11172882931166

> <Genealogy>
C=c1c(=Cc2[n-]c(=O)[n-]c2[O-])c(C)nn1Cc1ccccc1CNC(=O)N1CCCC1 (protonated)
C=c1/c(=C\c2[n-]c(=O)[n-]c2[O-])c(C)nn1Cc1ccccc1CNC(=O)N1CCCC1 (cis-trans isomerization)
C=c1/c(=C\c2[n-]c(=O)[n-]c2[O-])c(C)nn1Cc1ccccc1CNC(=O)N1CCCC1 (3D coordinates assigned)
C=c1/c(=C\c2[n-]c(=O)[n-]c2[O-])c(C)nn1Cc1ccccc1CNC(=O)N1CCCC1 (nonaromatic ring conformer: 127.11172882931166 kcal/mol)

> <smiles>
C=c1c(=Cc2[nH]c(=O)[nH]c2O)c(C)nn1Cc1ccccc1CNC(=O)N1CCCC1

> <score_type>
oracle

> <origin>
adg

> <m_score__min__energy>
-16.829999999999998

> <m_primary>
energy

> <minimizedAffinity>
-9.05957

> <minimizedRMSD>
1.06646

> <CNNscore>
0.2055482268

> <CNNaffinity>
6.5562167168

> <CNN_VS>
1.3476186991

> <CNNaffinity_variance>
0.0236051921

$$$$
59:0


 30 32  0  0  0  0  0  0  0  0999 V2000
   60.7277   29.7145   46.2945 C   0  0  0  0  0  0  0  0  0  0  0  0
   59.5601   29.2552   45.7854 C   0  0  0  0  0  0  0  0  0  0  0  0
   59.4504   27.8700   45.5008 C   0  0  0  0  0  0  0  0  0  0  0  0
   60.4101   27.0940   45.7687 O   0  0  0  0  0  0  0  0  0  0  0  0
   58.2458   27.3643   44.9617 C   0  0  0  0  0  0  0  0  0  0  0  0
   58.0599   26.0635   44.6223 C   0  0  0  0  0  0  0  0  0  0  0  0
   57.2031   28.2221   44.8023 N   0  0  0  0  0  0  0  0  0  0  0  0
   57.3019   29.5468   45.0786 C   0  0  0  0  0  0  0  0  0  0  0  0
   56.2884   30.2782   44.8887 O   0  0  0  0  0  0  0  0  0  0  0  0
   58.4763   30.0884   45.5460 N   0  0  0  0  0  0  0  0  0  0  0  0
   56.3446   27.8689   44.4743 H   0  0  0  0  0  0  0  0  0  0  0  0
   57.4287   25.0215   45.4590 C   0  0  0  0  0  0  0  0  0  0  0  0
   57.9397   23.7132   45.4649 C   0  0  0  0  0  0  0  0  0  0  0  0
   57.3200   22.7045   46.2124 C   0  0  0  0  0  0  0  0  0  0  0  0
   56.1613   23.0121   46.9504 C   0  0  0  0  0  0  0  0  0  0  0  0
   55.6326   24.3067   46.9237 C   0  0  0  0  0  0  0  0  0  0  0  0
   56.2560   25.3083   46.1751 C   0  0  0  0  0  0  0  0  0  0  0  0
   55.7089   26.5867   46.1535 O   0  0  0  0  0  0  0  0  0  0  0  0
   57.8877   21.4197   46.1928 O   0  0  0  0  0  0  0  0  0  0  0  0
   57.1588   20.1945   46.2505 C   0  0  0  0  0  0  0  0  0  0  0  0
   56.0328   20.2009   45.2653 C   0  0  0  0  0  0  0  0  0  0  0  0
   54.8756   19.8578   45.6237 O   0  0  0  0  0  0  0  0  0  0  0  0
   56.2543   20.6106   43.9557 O   0  0  0  0  0  0  0  0  0  0  0  0
   58.5008   31.5537   45.7901 C   0  0  0  0  0  0  0  0  0  0  0  0
   59.1292   31.8703   47.1269 C   0  0  0  0  0  0  0  0  0  0  0  0
   58.6509   31.2553   48.2985 C   0  0  0  0  0  0  0  0  0  0  0  0
   59.2403   31.5352   49.5350 C   0  0  0  0  0  0  0  0  0  0  0  0
   60.3109   32.4284   49.6162 C   0  0  0  0  0  0  0  0  0  0  0  0
   60.7935   33.0429   48.4594 C   0  0  0  0  0  0  0  0  0  0  0  0
   60.2089   32.7667   47.2194 C   0  0  0  0  0  0  0  0  0  0  0  0
  1  2  2  0
  2  3  1  0
  3  4  2  0
  3  5  1  0
  5  6  2  0
  6 12  1  0
 12 13  2  0
 13 14  1  0
 14 19  1  0
 19 20  1  0
 20 21  1  0
 21 22  2  0
 21 23  1  0
 14 15  2  0
 15 16  1  0
 16 17  2  0
 17 18  1  0
  5  7  1  0
  7  8  1  0
  8  9  2  0
  8 10  1  0
 10 24  1  0
 24 25  1  0
 25 26  2  0
 26 27  1  0
 27 28  2  0
 28 29  1  0
 29 30  2  0
 10  2  1  0
 30 25  1  0
 17 12  1  0
  7 11  1  0
M  CHG 1  18  -1
M  CHG 1  23  -1
M  END
> <UniqueID>
56

> <SMILES>
C=c1c(=O)c(=Cc2cc(OCC(=O)[O-])ccc2[O-])[nH]c(=O)n1Cc1ccccc1

> <Energy>
74.15658551444297

> <Genealogy>
C=c1c(=O)c(=Cc2cc(OCC(=O)[O-])ccc2[O-])[nH]c(=O)n1Cc1ccccc1 (protonated)
C=c1c(=O)c(=Cc2cc(OCC(=O)[O-])ccc2[O-])[nH]c(=O)n1Cc1ccccc1 (3D coordinates assigned)
C=c1c(=O)c(=Cc2cc(OCC(=O)[O-])ccc2[O-])[nH]c(=O)n1Cc1ccccc1 (optimized conformer: 74.15658551444297 kcal/mol)

> <smiles>
C=c1c(=O)c(=Cc2cc(OCC(=O)O)ccc2O)[nH]c(=O)n1Cc1ccccc1

> <score_type>
oracle

> <origin>
adg

> <m_score__min__energy>
-14.35

> <m_primary>
energy

> <minimizedAffinity>
-7.39915

> <minimizedRMSD>
0.96644

> <CNNscore>
0.2438605875

> <CNNaffinity>
6.4706649780

> <CNN_VS>
1.5779401064

> <CNNaffinity_variance>
0.0724000707

$$$$
70:0


 33 36  0  0  0  0  0  0  0  0999 V2000
   59.1112   29.2951   47.6779 C   0  0  0  0  0  0  0  0  0  0  0  0
   58.4375   29.0362   46.5463 C   0  0  0  0  0  0  0  0  0  0  0  0
   57.9667   27.7865   46.1287 C   0  0  0  0  0  0  0  0  0  0  0  0
   58.1506   26.5980   46.7365 C   0  0  0  0  0  0  0  0  0  0  0  0
   57.2991   28.0006   44.9307 C   0  0  0  0  0  0  0  0  0  0  0  0
   57.3875   29.3531   44.6653 C   0  0  0  0  0  0  0  0  0  0  0  0
   56.7986   30.0247   43.4608 C   0  0  0  0  0  0  0  0  0  0  0  0
   58.0716   29.9834   45.6466 N   0  0  0  0  0  0  0  0  0  0  0  0
   57.7359   25.3085   46.1509 C   0  0  0  0  0  0  0  0  0  0  0  0
   58.6907   24.3820   45.8748 N   0  0  0  0  0  0  0  0  0  0  0  0
   58.3671   23.1681   45.3590 C   0  0  0  0  0  0  0  0  0  0  0  0
   59.2710   22.3322   45.1000 O   0  0  0  0  0  0  0  0  0  0  0  0
   57.0671   22.8539   45.1223 N   0  0  0  0  0  0  0  0  0  0  0  0
   56.0725   23.7346   45.4051 C   0  0  0  0  0  0  0  0  0  0  0  0
   54.8741   23.4162   45.1868 O   0  0  0  0  0  0  0  0  0  0  0  0
   56.3841   24.9868   45.9420 C   0  0  0  0  0  0  0  0  0  0  0  0
   55.3695   25.8783   46.2809 O   0  0  0  0  0  0  0  0  0  0  0  0
   58.3658   31.3907   45.6953 C   0  0  0  0  0  0  0  0  0  0  0  0
   58.0913   32.2067   44.5891 C   0  0  0  0  0  0  0  0  0  0  0  0
   58.3914   33.5699   44.6308 C   0  0  0  0  0  0  0  0  0  0  0  0
   58.9618   34.1280   45.7782 C   0  0  0  0  0  0  0  0  0  0  0  0
   59.2320   33.3262   46.8988 C   0  0  0  0  0  0  0  0  0  0  0  0
   58.9442   31.9514   46.8435 C   0  0  0  0  0  0  0  0  0  0  0  0
   59.8517   33.9095   48.1101 C   0  0  0  0  0  0  0  0  0  0  0  0
   59.1984   34.7394   48.7995 O   0  0  0  0  0  0  0  0  0  0  0  0
   61.1813   33.5452   48.5161 N   0  0  0  0  0  0  0  0  0  0  0  0
   61.4791   33.3954   49.9458 C   0  0  0  0  0  0  0  0  0  0  0  0
   62.4948   32.2652   50.1871 C   0  0  0  0  0  0  0  0  0  0  0  0
   63.5642   32.1299   49.0732 C   0  0  0  0  0  0  0  0  0  0  0  0
   64.8261   31.8857   49.6368 O   0  0  0  0  0  0  0  0  0  0  0  0
   63.6410   33.3817   48.1934 C   0  0  0  0  0  0  0  0  0  0  0  0
   62.2793   33.6501   47.5412 C   0  0  0  0  0  0  0  0  0  0  0  0
   65.0828   32.6378   50.1931 H   0  0  0  0  0  0  0  0  0  0  0  0
  1  2  2  0
  2  3  1  0
  3  4  2  0
  4  9  1  0
  9 10  1  0
 10 11  1  0
 11 12  2  0
 11 13  1  0
 13 14  1  0
 14 15  2  0
 14 16  1  0
 16 17  1  0
  3  5  1  0
  5  6  2  0
  6  7  1  0
  6  8  1  0
  8 18  1  0
 18 19  2  0
 19 20  1  0
 20 21  2  0
 21 22  1  0
 22 24  1  0
 24 25  2  0
 24 26  1  0
 26 27  1  0
 27 28  1  0
 28 29  1  0
 29 30  1  0
 29 31  1  0
 31 32  1  0
 22 23  2  0
  8  2  1  0
 23 18  1  0
 16  9  2  0
 32 26  1  0
 30 33  1  0
M  CHG 1  10  -1
M  CHG 1  13  -1
M  CHG 1  17  -1
M  END
> <UniqueID>
67

> <SMILES>
C=c1c(=Cc2[n-]c(=O)[n-]c(=O)c2[O-])cc(C)n1-c1cccc(C(=O)N2CCC(O)CC2)c1

> <Energy>
107.1260280338784

> <Genealogy>
C=c1c(=Cc2[n-]c(=O)[n-]c(=O)c2[O-])cc(C)n1-c1cccc(C(=O)N2CCC(O)CC2)c1 (protonated)
C=c1c(=Cc2[n-]c(=O)[n-]c(=O)c2[O-])cc(C)n1-c1cccc(C(=O)N2CCC(O)CC2)c1 (3D coordinates assigned)
C=c1c(=Cc2[n-]c(=O)[n-]c(=O)c2[O-])cc(C)n1-c1cccc(C(=O)N2CCC(O)CC2)c1 (nonaromatic ring conformer: 107.1260280338784 kcal/mol)

> <smiles>
C=c1c(=Cc2[nH]c(=O)[nH]c(=O)c2O)cc(C)n1-c1cccc(C(=O)N2CCC(O)CC2)c1

> <score_type>
oracle

> <origin>
adg

> <m_score__min__energy>
-17.390000000000001

> <m_primary>
energy

> <minimizedAffinity>
-10.92338

> <minimizedRMSD>
0.90310

> <CNNscore>
0.5178200006

> <CNNaffinity>
7.1652140617

> <CNN_VS>
3.7102911472

> <CNNaffinity_variance>
0.0454593301

$$$$
78:0


 32 35  0  0  0  0  0  0  0  0999 V2000
   57.0693   28.1681   44.9166 C   0  0  0  0  0  0  0  0  0  0  0  0
   57.9876   27.3601   45.4723 C   0  0  0  0  0  0  0  0  0  0  0  0
   58.0959   25.9639   45.3455 C   0  0  0  0  0  0  0  0  0  0  0  0
   57.4278   25.0864   44.5722 C   0  0  0  0  0  0  0  0  0  0  0  0
   59.1008   25.5725   46.2196 C   0  0  0  0  0  0  0  0  0  0  0  0
   59.5916   26.7213   46.8063 C   0  0  0  0  0  0  0  0  0  0  0  0
   60.6722   26.7647   47.8427 C   0  0  0  0  0  0  0  0  0  0  0  0
   58.9207   27.8008   46.3532 N   0  0  0  0  0  0  0  0  0  0  0  0
   56.3859   24.1536   45.0402 C   0  0  0  0  0  0  0  0  0  0  0  0
   55.3046   24.6208   45.8015 C   0  0  0  0  0  0  0  0  0  0  0  0
   55.1785   25.9743   46.0927 O   0  0  0  0  0  0  0  0  0  0  0  0
   54.3663   23.7499   46.2521 N   0  0  0  0  0  0  0  0  0  0  0  0
   54.4615   22.4199   45.9920 C   0  0  0  0  0  0  0  0  0  0  0  0
   53.5783   21.6331   46.4177 O   0  0  0  0  0  0  0  0  0  0  0  0
   55.5117   21.9402   45.2783 N   0  0  0  0  0  0  0  0  0  0  0  0
   56.4777   22.7703   44.8050 C   0  0  0  0  0  0  0  0  0  0  0  0
   57.4492   22.2879   44.1620 O   0  0  0  0  0  0  0  0  0  0  0  0
   59.1417   29.1543   46.7758 C   0  0  0  0  0  0  0  0  0  0  0  0
   59.0058   29.4952   48.1260 C   0  0  0  0  0  0  0  0  0  0  0  0
   59.1981   30.8154   48.5400 C   0  0  0  0  0  0  0  0  0  0  0  0
   59.5406   31.8144   47.6102 C   0  0  0  0  0  0  0  0  0  0  0  0
   59.6711   31.4625   46.2530 C   0  0  0  0  0  0  0  0  0  0  0  0
   59.4718   30.1420   45.8403 C   0  0  0  0  0  0  0  0  0  0  0  0
   59.5938   29.8249   44.5263 F   0  0  0  0  0  0  0  0  0  0  0  0
   59.7390   33.2136   48.0666 C   0  0  0  0  0  0  0  0  0  0  0  0
   58.7252   33.9567   48.1964 O   0  0  0  0  0  0  0  0  0  0  0  0
   61.0639   33.7417   48.3282 N   0  0  0  0  0  0  0  0  0  0  0  0
   62.0488   33.3525   47.3108 C   0  0  0  0  0  0  0  0  0  0  0  0
   63.4079   33.4372   47.9851 C   0  0  0  0  0  0  0  0  0  0  0  0
   63.1245   33.2691   49.4720 C   0  0  0  0  0  0  0  0  0  0  0  0
   61.6041   33.2540   49.6026 C   0  0  0  0  0  0  0  0  0  0  0  0
   61.1796   33.6604   49.3025 H   0  0  0  0  0  0  0  0  0  0  0  0
  1  2  2  0
  2  3  1  0
  3  4  2  0
  4  9  1  0
  9 10  2  0
 10 11  1  0
 10 12  1  0
 12 13  1  0
 13 14  2  0
 13 15  1  0
 15 16  1  0
 16 17  2  0
  3  5  1  0
  5  6  2  0
  6  7  1  0
  6  8  1  0
  8 18  1  0
 18 19  2  0
 19 20  1  0
 20 21  2  0
 21 25  1  0
 25 26  2  0
 25 27  1  0
 27 28  1  0
 28 29  1  0
 29 30  1  0
 30 31  1  0
 21 22  1  0
 22 23  2  0
 23 24  1  0
  8  2  1  0
 23 18  1  0
 16  9  1  0
 31 27  1  0
 27 32  1  0
M  CHG 1  11  -1
M  CHG 1  12  -1
M  CHG 1  15  -1
M  CHG 1  27   1
M  END
> <UniqueID>
75

> <SMILES>
C=c1c(=Cc2c([O-])[n-]c(=O)[n-]c2=O)cc(C)n1-c1ccc(C(=O)[NH+]2CCCC2)cc1F

> <Energy>
110.89344572192928

> <Genealogy>
C=c1c(=Cc2c([O-])[n-]c(=O)[n-]c2=O)cc(C)n1-c1ccc(C(=O)[NH+]2CCCC2)cc1F (protonated)
C=c1c(=Cc2c([O-])[n-]c(=O)[n-]c2=O)cc(C)n1-c1ccc(C(=O)[NH+]2CCCC2)cc1F (3D coordinates assigned)
C=c1c(=Cc2c([O-])[n-]c(=O)[n-]c2=O)cc(C)n1-c1ccc(C(=O)[NH+]2CCCC2)cc1F (nonaromatic ring conformer: 110.89344572192928 kcal/mol)

> <smiles>
C=c1c(=Cc2c(O)[nH]c(=O)[nH]c2=O)cc(C)n1-c1ccc(C(=O)N2CCCC2)cc1F

> <score_type>
oracle

> <origin>
adg

> <m_score__min__energy>
-14.81

> <m_primary>
energy

> <minimizedAffinity>
-8.79510

> <minimizedRMSD>
0.84375

> <CNNscore>
0.0650613084

> <CNNaffinity>
6.6224403381

> <CNN_VS>
0.4308646321

> <CNNaffinity_variance>
0.0875458643

$$$$
79:0


 24 26  0  0  0  0  0  0  0  0999 V2000
   58.4302   32.5739   45.6895 C   0  0  0  0  0  0  0  0  0  0  0  0
   58.6002   33.6609   44.8120 C   0  0  0  0  0  0  0  0  0  0  0  0
   58.3645   33.5155   43.4441 C   0  0  0  0  0  0  0  0  0  0  0  0
   57.9355   32.2899   42.9347 C   0  0  0  0  0  0  0  0  0  0  0  0
   57.7566   31.2020   43.7922 C   0  0  0  0  0  0  0  0  0  0  0  0
   58.0226   31.3212   45.1620 C   0  0  0  0  0  0  0  0  0  0  0  0
   58.5844   32.7989   47.1482 C   0  0  0  0  0  0  0  0  0  0  0  0
   57.6046   33.2340   47.8089 O   0  0  0  0  0  0  0  0  0  0  0  0
   60.8310   29.8102   49.5000 C   0  0  0  0  0  0  0  0  0  0  0  0
   60.5301   30.6649   50.4514 O   0  0  0  0  0  0  0  0  0  0  0  0
   60.1418   31.8066   49.9617 N   0  0  0  0  0  0  0  0  0  0  0  0
   60.2018   31.6881   48.6237 C   0  0  0  0  0  0  0  0  0  0  0  0
   59.8468   32.6490   47.8192 N   0  0  0  0  0  0  0  0  0  0  0  0
   60.6312   30.4177   48.2792 C   0  0  0  0  0  0  0  0  0  0  0  0
   57.8503   30.1609   45.9861 N   0  0  0  0  0  0  0  0  0  0  0  0
   57.3240   28.9061   45.5340 C   0  0  0  0  0  0  0  0  0  0  0  0
   56.2524   28.8871   44.8706 O   0  0  0  0  0  0  0  0  0  0  0  0
   58.0247   27.6396   45.8725 C   0  0  0  0  0  0  0  0  0  0  0  0
   59.4328   27.6122   45.9180 C   0  0  0  0  0  0  0  0  0  0  0  0
   60.1143   26.4336   46.2315 C   0  0  0  0  0  0  0  0  0  0  0  0
   59.4034   25.2647   46.5026 C   0  0  0  0  0  0  0  0  0  0  0  0
   58.0093   25.2713   46.4599 C   0  0  0  0  0  0  0  0  0  0  0  0
   57.3153   26.4445   46.1461 C   0  0  0  0  0  0  0  0  0  0  0  0
   55.9252   26.4067   46.1119 O   0  0  0  0  0  0  0  0  0  0  0  0
  9 10  1  0
 10 11  1  0
 11 12  1  0
 12 13  2  0
 13  7  1  0
  7  8  2  0
  7  1  1  0
  1  2  2  0
  2  3  1  0
  3  4  2  0
  4  5  1  0
  5  6  2  0
  6 15  1  0
 15 16  1  0
 16 17  2  0
 16 18  1  0
 18 19  2  0
 19 20  1  0
 20 21  2  0
 21 22  1  0
 22 23  2  0
 23 24  1  0
 12 14  1  0
 14  9  2  0
  6  1  1  0
 23 18  1  0
M  CHG 1  11  -1
M  CHG 1  15  -1
M  CHG 1  24  -1
M  END
> <UniqueID>
76

> <SMILES>
O=C([N-]c1ccccc1C(=O)/N=c1\cco[n-]1)c1ccccc1[O-]

> <Energy>
86.27574466624178

> <Genealogy>
O=C([N-]c1ccccc1C(=O)N=c1cco[n-]1)c1ccccc1[O-] (protonated)
O=C([N-]c1ccccc1C(=O)/N=c1\cco[n-]1)c1ccccc1[O-] (cis-trans isomerization)
O=C([N-]c1ccccc1C(=O)/N=c1\cco[n-]1)c1ccccc1[O-] (3D coordinates assigned)
O=C([N-]c1ccccc1C(=O)/N=c1\cco[n-]1)c1ccccc1[O-] (optimized conformer: 86.27574466624178 kcal/mol)

> <smiles>
O=C(Nc1ccccc1C(=O)N=c1cco[nH]1)c1ccccc1O

> <score_type>
oracle

> <origin>
adg

> <m_score__min__energy>
-14.51

> <m_primary>
energy

> <minimizedAffinity>
-5.95435

> <minimizedRMSD>
1.20032

> <CNNscore>
0.3656722605

> <CNNaffinity>
5.7532596588

> <CNN_VS>
2.1038074493

> <CNNaffinity_variance>
0.0458495319

$$$$
7:0


 33 36  0  0  0  0  0  0  0  0999 V2000
   61.2671   32.7251   48.3156 C   0  0  0  0  0  0  0  0  0  0  0  0
   62.4808   33.3463   47.9835 C   0  0  0  0  0  0  0  0  0  0  0  0
   63.3901   33.7013   48.9807 C   0  0  0  0  0  0  0  0  0  0  0  0
   63.0964   33.4377   50.3198 C   0  0  0  0  0  0  0  0  0  0  0  0
   61.8909   32.8232   50.6658 C   0  0  0  0  0  0  0  0  0  0  0  0
   60.9619   32.4621   49.6734 C   0  0  0  0  0  0  0  0  0  0  0  0
   61.1173   30.0946   46.9369 C   0  0  0  0  0  0  0  0  0  0  0  0
   60.3078   31.1250   46.6454 C   0  0  0  0  0  0  0  0  0  0  0  0
   59.3037   31.1487   45.6689 C   0  0  0  0  0  0  0  0  0  0  0  0
   58.9150   30.1236   44.8828 C   0  0  0  0  0  0  0  0  0  0  0  0
   58.7538   32.4250   45.7111 C   0  0  0  0  0  0  0  0  0  0  0  0
   59.4355   33.1195   46.6897 C   0  0  0  0  0  0  0  0  0  0  0  0
   59.1552   34.5337   47.0918 C   0  0  0  0  0  0  0  0  0  0  0  0
   60.3734   32.3321   47.2590 N   0  0  0  0  0  0  0  0  0  0  0  0
   58.4636   28.8032   45.3666 C   0  0  0  0  0  0  0  0  0  0  0  0
   59.4105   27.5957   46.0742 S   0  0  0  0  0  0  0  0  0  0  0  0
   58.0825   26.6301   46.4247 C   0  0  0  0  0  0  0  0  0  0  0  0
   58.1492   25.5057   46.9866 O   0  0  0  0  0  0  0  0  0  0  0  0
   56.9170   27.1955   46.0481 N   0  0  0  0  0  0  0  0  0  0  0  0
   57.1289   28.4087   45.4716 C   0  0  0  0  0  0  0  0  0  0  0  0
   56.0736   29.1931   45.0223 O   0  0  0  0  0  0  0  0  0  0  0  0
   59.6743   31.8460   50.0717 C   0  0  0  0  0  0  0  0  0  0  0  0
   58.5919   32.4468   49.8274 O   0  0  0  0  0  0  0  0  0  0  0  0
   59.6468   30.5736   50.7349 N   0  0  0  0  0  0  0  0  0  0  0  0
   60.4887   30.0809   50.8676 H   0  0  0  0  0  0  0  0  0  0  0  0
   58.3942   29.9937   51.2178 C   0  0  0  0  0  0  0  0  0  0  0  0
   58.5467   29.4699   52.6488 C   0  0  0  0  0  0  0  0  0  0  0  0
   57.7240   30.2817   53.5759 N   0  0  0  0  0  0  0  0  0  0  0  0
   58.2928   30.3346   54.9394 C   0  0  0  0  0  0  0  0  0  0  0  0
   59.5165   31.2786   55.0264 C   0  0  0  0  0  0  0  0  0  0  0  0
   59.7632   31.9586   53.8096 O   0  0  0  0  0  0  0  0  0  0  0  0
   58.5956   32.6345   53.3990 C   0  0  0  0  0  0  0  0  0  0  0  0
   57.4538   31.6482   53.0734 C   0  0  0  0  0  0  0  0  0  0  0  0
  7  8  2  0
  8  9  1  0
  9 10  2  0
 10 15  1  0
 15 16  1  0
 16 17  1  0
 17 18  2  0
 17 19  1  0
 19 20  1  0
 20 21  1  0
  9 11  1  0
 11 12  2  0
 12 13  1  0
 12 14  1  0
 14  1  1  0
  1  2  2  0
  2  3  1  0
  3  4  2  0
  4  5  1  0
  5  6  2  0
  6 22  1  0
 22 23  2  0
 22 24  1  0
 24 26  1  0
 26 27  1  0
 27 28  1  0
 28 29  1  0
 29 30  1  0
 30 31  1  0
 31 32  1  0
 32 33  1  0
 14  8  1  0
  6  1  1  0
 33 28  1  0
 20 15  2  0
 24 25  1  0
M  CHG 1  19  -1
M  CHG 1  21  -1
M  END
> <UniqueID>
7

> <SMILES>
C=c1/c(=C/c2sc(=O)[n-]c2[O-])cc(C)n1-c1ccccc1C(=O)NCCN1CCOCC1

> <Energy>
143.46458142133096

> <Genealogy>
C=c1c(=Cc2sc(=O)[n-]c2[O-])cc(C)n1-c1ccccc1C(=O)NCCN1CCOCC1 (protonated)
C=c1/c(=C/c2sc(=O)[n-]c2[O-])cc(C)n1-c1ccccc1C(=O)NCCN1CCOCC1 (cis-trans isomerization)
C=c1/c(=C/c2sc(=O)[n-]c2[O-])cc(C)n1-c1ccccc1C(=O)NCCN1CCOCC1 (3D coordinates assigned)
C=c1/c(=C/c2sc(=O)[n-]c2[O-])cc(C)n1-c1ccccc1C(=O)NCCN1CCOCC1 (nonaromatic ring conformer: 143.46458142133096 kcal/mol)

> <smiles>
C=c1c(=Cc2sc(=O)[nH]c2O)cc(C)n1-c1ccccc1C(=O)NCCN1CCOCC1

> <score_type>
oracle

> <origin>
adg

> <m_score__min__energy>
-14.720000000000001

> <m_primary>
energy

> <minimizedAffinity>
-6.29646

> <minimizedRMSD>
1.45793

> <CNNscore>
0.5601894259

> <CNNaffinity>
7.1823272705

> <CNN_VS>
4.0234637260

> <CNNaffinity_variance>
0.1373375207

$$$$
18:0


 30 32  0  0  0  0  0  0  0  0999 V2000
   58.6268   32.5861   47.5613 S   0  0  0  0  0  0  0  0  0  0  0  0
   59.3918   33.8028   47.9972 O   0  0  0  0  0  0  0  0  0  0  0  0
   57.2950   33.0072   47.0037 O   0  0  0  0  0  0  0  0  0  0  0  0
   58.4076   31.5287   48.9146 N   0  0  0  0  0  0  0  0  0  0  0  0
   58.1768   32.4958   51.0299 O   0  0  0  0  0  0  0  0  0  0  0  0
   58.8859   31.8293   50.2280 C   0  0  0  0  0  0  0  0  0  0  0  0
   60.2476   31.3711   50.6417 C   0  0  0  0  0  0  0  0  0  0  0  0
   61.2896   31.9204   49.7066 C   0  0  0  0  0  0  0  0  0  0  0  0
   61.7738   31.1377   48.6454 C   0  0  0  0  0  0  0  0  0  0  0  0
   62.7644   31.6362   47.7965 C   0  0  0  0  0  0  0  0  0  0  0  0
   63.2863   32.9180   48.0018 C   0  0  0  0  0  0  0  0  0  0  0  0
   64.2717   33.4062   47.1459 O   0  0  0  0  0  0  0  0  0  0  0  0
   62.8122   33.6999   49.0635 C   0  0  0  0  0  0  0  0  0  0  0  0
   61.8242   33.2019   49.9167 C   0  0  0  0  0  0  0  0  0  0  0  0
   64.5826   32.8761   46.4386 H   0  0  0  0  0  0  0  0  0  0  0  0
   59.5105   31.7698   46.3450 O   0  0  0  0  0  0  0  0  0  0  0  0
   59.1856   30.5022   45.8420 C   0  0  0  0  0  0  0  0  0  0  0  0
   58.0428   30.3803   45.0408 C   0  0  0  0  0  0  0  0  0  0  0  0
   57.6669   29.1380   44.5235 C   0  0  0  0  0  0  0  0  0  0  0  0
   58.4318   27.9943   44.8003 C   0  0  0  0  0  0  0  0  0  0  0  0
   59.5866   28.1156   45.5853 C   0  0  0  0  0  0  0  0  0  0  0  0
   59.9594   29.3562   46.1095 C   0  0  0  0  0  0  0  0  0  0  0  0
   58.0532   26.6667   44.2086 C   0  0  0  0  0  0  0  0  0  0  0  0
   57.6292   25.7216   45.2892 C   0  0  0  0  0  0  0  0  0  0  0  0
   58.3956   24.2683   45.6605 S   0  0  0  0  0  0  0  0  0  0  0  0
   57.2579   23.8770   46.8379 C   0  0  0  0  0  0  0  0  0  0  0  0
   57.2894   22.8300   47.5331 O   0  0  0  0  0  0  0  0  0  0  0  0
   56.2930   24.8124   46.9619 N   0  0  0  0  0  0  0  0  0  0  0  0
   56.4961   25.8375   46.0932 C   0  0  0  0  0  0  0  0  0  0  0  0
   55.6226   26.9160   46.0230 O   0  0  0  0  0  0  0  0  0  0  0  0
  5  6  2  0
  6  7  1  0
  7  8  1  0
  8  9  2  0
  9 10  1  0
 10 11  2  0
 11 12  1  0
 11 13  1  0
 13 14  2  0
  6  4  1  0
  4  1  1  0
  1  2  2  0
  1  3  2  0
  1 16  1  0
 16 17  1  0
 17 18  2  0
 18 19  1  0
 19 20  2  0
 20 23  1  0
 23 24  1  0
 24 25  1  0
 25 26  1  0
 26 27  2  0
 26 28  1  0
 28 29  1  0
 29 30  1  0
 20 21  1  0
 21 22  2  0
 14  8  1  0
 22 17  1  0
 29 24  2  0
 12 15  1  0
M  CHG 1   4  -1
M  CHG 1  28  -1
M  CHG 1  30  -1
M  END
> <UniqueID>
17

> <SMILES>
O=C(Cc1ccc(O)cc1)[N-]S(=O)(=O)Oc1ccc(Cc2sc(=O)[n-]c2[O-])cc1

> <Energy>
72.04557001109322

> <Genealogy>
O=C(Cc1ccc(O)cc1)[N-]S(=O)(=O)Oc1ccc(Cc2sc(=O)[n-]c2[O-])cc1 (protonated)
O=C(Cc1ccc(O)cc1)[N-]S(=O)(=O)Oc1ccc(Cc2sc(=O)[n-]c2[O-])cc1 (3D coordinates assigned)
O=C(Cc1ccc(O)cc1)[N-]S(=O)(=O)Oc1ccc(Cc2sc(=O)[n-]c2[O-])cc1 (optimized conformer: 72.04557001109322 kcal/mol)

> <smiles>
O=C(Cc1ccc(O)cc1)NS(=O)(=O)Oc1ccc(Cc2sc(=O)[nH]c2O)cc1

> <score_type>
oracle

> <origin>
adg

> <m_score__min__energy>
-16.120000000000001

> <m_primary>
energy

> <minimizedAffinity>
-6.67800

> <minimizedRMSD>
0.61934

> <CNNscore>
0.2327940613

> <CNNaffinity>
6.6865744591

> <CNN_VS>
1.5565948486

> <CNNaffinity_variance>
0.9862384796

$$$$
20:0


 28 31  0  0  0  0  0  0  0  0999 V2000
   53.7685   28.5897   55.0020 C   0  0  0  0  0  0  0  0  0  0  0  0
   54.1830   29.2252   53.8946 C   0  0  0  0  0  0  0  0  0  0  0  0
   53.3787   29.8468   52.9269 C   0  0  0  0  0  0  0  0  0  0  0  0
   52.0500   29.7881   52.7104 C   0  0  0  0  0  0  0  0  0  0  0  0
   54.2334   30.5947   52.1337 C   0  0  0  0  0  0  0  0  0  0  0  0
   55.5141   30.3460   52.5824 C   0  0  0  0  0  0  0  0  0  0  0  0
   56.7537   30.9381   51.9812 C   0  0  0  0  0  0  0  0  0  0  0  0
   55.4865   29.5175   53.6496 N   0  0  0  0  0  0  0  0  0  0  0  0
   51.0440   30.6776   53.3137 C   0  0  0  0  0  0  0  0  0  0  0  0
   50.2222   30.3344   54.3237 N   0  0  0  0  0  0  0  0  0  0  0  0
   49.4022   31.4024   54.4342 C   0  0  0  0  0  0  0  0  0  0  0  0
   48.4885   31.4678   55.2969 O   0  0  0  0  0  0  0  0  0  0  0  0
   49.6325   32.3883   53.5426 N   0  0  0  0  0  0  0  0  0  0  0  0
   50.6646   31.9070   52.8323 C   0  0  0  0  0  0  0  0  0  0  0  0
   51.2462   32.5749   51.7619 O   0  0  0  0  0  0  0  0  0  0  0  0
   56.6329   29.0663   54.3970 C   0  0  0  0  0  0  0  0  0  0  0  0
   57.1258   29.8220   55.4661 C   0  0  0  0  0  0  0  0  0  0  0  0
   58.2373   29.3655   56.1734 C   0  0  0  0  0  0  0  0  0  0  0  0
   58.8389   28.1942   55.8274 N   0  0  0  0  0  0  0  0  0  0  0  0
   58.3869   27.4362   54.7849 C   0  0  0  0  0  0  0  0  0  0  0  0
   57.2676   27.8661   54.0556 C   0  0  0  0  0  0  0  0  0  0  0  0
   59.6196   27.8857   56.3417 H   0  0  0  0  0  0  0  0  0  0  0  0
   59.0434   26.1985   54.4527 N   0  0  0  0  0  0  0  0  0  0  0  0
   58.2603   24.9728   54.2595 C   0  0  0  0  0  0  0  0  0  0  0  0
   58.8575   24.0984   53.1297 C   0  0  0  0  0  0  0  0  0  0  0  0
   60.1199   24.5494   52.6658 O   0  0  0  0  0  0  0  0  0  0  0  0
   60.9686   24.8336   53.7580 C   0  0  0  0  0  0  0  0  0  0  0  0
   60.5094   26.1273   54.4334 C   0  0  0  0  0  0  0  0  0  0  0  0
  1  2  2  0
  2  3  1  0
  3  4  2  0
  4  9  1  0
  9 10  1  0
 10 11  1  0
 11 12  2  0
 11 13  1  0
 13 14  1  0
 14 15  1  0
  3  5  1  0
  5  6  2  0
  6  7  1  0
  6  8  1  0
  8 16  1  0
 16 17  2  0
 17 18  1  0
 18 19  2  0
 19 20  1  0
 20 23  1  0
 23 24  1  0
 24 25  1  0
 25 26  1  0
 26 27  1  0
 27 28  1  0
 20 21  2  0
  8  2  1  0
 21 16  1  0
 14  9  2  0
 28 23  1  0
 19 22  1  0
M  CHG 1  10  -1
M  CHG 1  13  -1
M  CHG 1  15  -1
M  CHG 1  19   1
M  END
> <UniqueID>
19

> <SMILES>
C=c1/c(=C\c2[n-]c(=O)[n-]c2[O-])cc(C)n1-c1cc[nH+]c(N2CCOCC2)c1

> <Energy>
133.9924808764556

> <Genealogy>
C=c1c(=Cc2[n-]c(=O)[n-]c2[O-])cc(C)n1-c1cc[nH+]c(N2CCOCC2)c1 (protonated)
C=c1/c(=C\c2[n-]c(=O)[n-]c2[O-])cc(C)n1-c1cc[nH+]c(N2CCOCC2)c1 (cis-trans isomerization)
C=c1/c(=C\c2[n-]c(=O)[n-]c2[O-])cc(C)n1-c1cc[nH+]c(N2CCOCC2)c1 (3D coordinates assigned)
C=c1/c(=C\c2[n-]c(=O)[n-]c2[O-])cc(C)n1-c1cc[nH+]c(N2CCOCC2)c1 (nonaromatic ring conformer: 133.9924808764556 kcal/mol)

> <smiles>
C=c1c(=Cc2[nH]c(=O)[nH]c2O)cc(C)n1-c1ccnc(N2CCOCC2)c1

> <score_type>
oracle

> <origin>
adg

> <m_score__min__energy>
-14.529999999999999

> <m_primary>
energy

> <minimizedAffinity>
-5.57985

> <minimizedRMSD>
1.15455

> <CNNscore>
0.2282664776

> <CNNaffinity>
4.7875256538

> <CNN_VS>
1.0928316116

> <CNNaffinity_variance>
0.2716930211

$$$$
23:0


 30 33  0  0  0  0  0  0  0  0999 V2000
   57.6251   28.4390   53.4292 C   0  0  0  0  0  0  0  0  0  0  0  0
   57.3994   29.6842   52.9828 C   0  0  0  0  0  0  0  0  0  0  0  0
   56.1767   30.3644   52.9987 C   0  0  0  0  0  0  0  0  0  0  0  0
   55.0000   29.9164   53.4770 C   0  0  0  0  0  0  0  0  0  0  0  0
   56.4286   31.6284   52.4769 C   0  0  0  0  0  0  0  0  0  0  0  0
   57.7703   31.6594   52.1473 C   0  0  0  0  0  0  0  0  0  0  0  0
   58.4830   32.8466   51.5766 C   0  0  0  0  0  0  0  0  0  0  0  0
   58.3578   30.4847   52.4577 N   0  0  0  0  0  0  0  0  0  0  0  0
   53.7112   30.0811   52.7818 C   0  0  0  0  0  0  0  0  0  0  0  0
   53.5806   30.0100   51.4450 N   0  0  0  0  0  0  0  0  0  0  0  0
   52.2770   30.3000   51.2417 C   0  0  0  0  0  0  0  0  0  0  0  0
   51.7578   30.3215   50.0953 O   0  0  0  0  0  0  0  0  0  0  0  0
   51.5755   30.5769   52.3623 N   0  0  0  0  0  0  0  0  0  0  0  0
   52.5004   30.4470   53.3277 C   0  0  0  0  0  0  0  0  0  0  0  0
   52.2485   30.7053   54.6695 O   0  0  0  0  0  0  0  0  0  0  0  0
   59.7403   30.1556   52.2384 C   0  0  0  0  0  0  0  0  0  0  0  0
   60.6645   30.3080   53.2806 C   0  0  0  0  0  0  0  0  0  0  0  0
   62.0081   29.9888   53.0804 C   0  0  0  0  0  0  0  0  0  0  0  0
   62.4370   29.5204   51.8379 C   0  0  0  0  0  0  0  0  0  0  0  0
   61.5253   29.3717   50.7896 C   0  0  0  0  0  0  0  0  0  0  0  0
   60.1649   29.6886   50.9803 C   0  0  0  0  0  0  0  0  0  0  0  0
   59.2106   29.5754   49.9549 O   0  0  0  0  0  0  0  0  0  0  0  0
   59.4247   29.8797   48.5755 C   0  0  0  0  0  0  0  0  0  0  0  0
   59.3132   31.3867   48.3192 C   0  0  0  0  0  0  0  0  0  0  0  0
   59.7338   31.7131   46.9369 N   0  0  0  0  0  0  0  0  0  0  0  0
   58.7708   31.2322   45.9177 C   0  0  0  0  0  0  0  0  0  0  0  0
   57.7343   32.3075   45.5324 C   0  0  0  0  0  0  0  0  0  0  0  0
   57.5389   33.2124   46.5958 O   0  0  0  0  0  0  0  0  0  0  0  0
   58.7079   33.9903   46.7963 C   0  0  0  0  0  0  0  0  0  0  0  0
   60.0080   33.1523   46.7643 C   0  0  0  0  0  0  0  0  0  0  0  0
  1  2  2  0
  2  3  1  0
  3  4  2  0
  4  9  1  0
  9 10  1  0
 10 11  1  0
 11 12  2  0
 11 13  1  0
 13 14  1  0
 14 15  1  0
  3  5  1  0
  5  6  2  0
  6  7  1  0
  6  8  1  0
  8 16  1  0
 16 17  2  0
 17 18  1  0
 18 19  2  0
 19 20  1  0
 20 21  2  0
 21 22  1  0
 22 23  1  0
 23 24  1  0
 24 25  1  0
 25 26  1  0
 26 27  1  0
 27 28  1  0
 28 29  1  0
 29 30  1  0
  8  2  1  0
 21 16  1  0
 30 25  1  0
 14  9  2  0
M  CHG 1  10  -1
M  CHG 1  13  -1
M  CHG 1  15  -1
M  END
> <UniqueID>
22

> <SMILES>
C=c1/c(=C/c2[n-]c(=O)[n-]c2[O-])cc(C)n1-c1ccccc1OCCN1CCOCC1

> <Energy>
136.1609244748011

> <Genealogy>
C=c1c(=Cc2[n-]c(=O)[n-]c2[O-])cc(C)n1-c1ccccc1OCCN1CCOCC1 (protonated)
C=c1/c(=C/c2[n-]c(=O)[n-]c2[O-])cc(C)n1-c1ccccc1OCCN1CCOCC1 (cis-trans isomerization)
C=c1/c(=C/c2[n-]c(=O)[n-]c2[O-])cc(C)n1-c1ccccc1OCCN1CCOCC1 (3D coordinates assigned)
C=c1/c(=C/c2[n-]c(=O)[n-]c2[O-])cc(C)n1-c1ccccc1OCCN1CCOCC1 (nonaromatic ring conformer: 136.1609244748011 kcal/mol)

> <smiles>
C=c1c(=Cc2[nH]c(=O)[nH]c2O)cc(C)n1-c1ccccc1OCCN1CCOCC1

> <score_type>
oracle

> <origin>
adg

> <m_score__min__energy>
-16.620000000000001

> <m_primary>
energy

> <minimizedAffinity>
-6.69477

> <minimizedRMSD>
2.63048

> <CNNscore>
0.0656237602

> <CNNaffinity>
4.7494387627

> <CNN_VS>
0.3116760254

> <CNNaffinity_variance>
0.7498804927

$$$$
25:0


 36 40  0  0  0  0  0  0  0  0999 V2000
   59.8951   29.8760   47.2110 C   0  0  0  0  0  0  0  0  0  0  0  0
   61.1312   30.3668   46.7710 C   0  0  0  0  0  0  0  0  0  0  0  0
   61.7583   31.4129   47.4531 C   0  0  0  0  0  0  0  0  0  0  0  0
   61.1624   31.9759   48.5952 C   0  0  0  0  0  0  0  0  0  0  0  0
   59.9173   31.4880   49.0262 C   0  0  0  0  0  0  0  0  0  0  0  0
   59.2923   30.4416   48.3431 C   0  0  0  0  0  0  0  0  0  0  0  0
   59.9510   26.9678   47.8678 C   0  0  0  0  0  0  0  0  0  0  0  0
   59.3048   27.4749   46.8040 C   0  0  0  0  0  0  0  0  0  0  0  0
   58.5625   26.7526   45.8647 C   0  0  0  0  0  0  0  0  0  0  0  0
   58.3966   25.4172   45.8039 C   0  0  0  0  0  0  0  0  0  0  0  0
   58.0494   27.6852   44.9719 C   0  0  0  0  0  0  0  0  0  0  0  0
   58.4924   28.9234   45.3961 C   0  0  0  0  0  0  0  0  0  0  0  0
   58.1987   30.2171   44.7021 C   0  0  0  0  0  0  0  0  0  0  0  0
   59.2506   28.7984   46.5084 N   0  0  0  0  0  0  0  0  0  0  0  0
   57.0947   24.7674   45.5319 C   0  0  0  0  0  0  0  0  0  0  0  0
   55.9196   25.2886   46.0951 C   0  0  0  0  0  0  0  0  0  0  0  0
   55.9672   26.3894   46.9438 O   0  0  0  0  0  0  0  0  0  0  0  0
   54.7208   24.7127   45.8201 N   0  0  0  0  0  0  0  0  0  0  0  0
   54.6312   23.6410   44.9924 C   0  0  0  0  0  0  0  0  0  0  0  0
   53.5109   23.1222   44.7555 O   0  0  0  0  0  0  0  0  0  0  0  0
   55.7509   23.1325   44.4153 N   0  0  0  0  0  0  0  0  0  0  0  0
   56.9727   23.6745   44.6553 C   0  0  0  0  0  0  0  0  0  0  0  0
   57.9839   23.1982   44.0713 O   0  0  0  0  0  0  0  0  0  0  0  0
   61.8236   33.0997   49.2986 C   0  0  0  0  0  0  0  0  0  0  0  0
   61.4333   34.2776   49.0737 O   0  0  0  0  0  0  0  0  0  0  0  0
   62.8963   32.8827   50.2353 N   0  0  0  0  0  0  0  0  0  0  0  0
   63.0694   33.8222   51.3527 C   0  0  0  0  0  0  0  0  0  0  0  0
   64.0855   33.2873   52.3650 C   0  0  0  0  0  0  0  0  0  0  0  0
   65.4688   32.9813   51.7145 C   0  0  0  0  0  0  0  0  0  0  0  0
   65.3039   32.4273   50.2657 C   0  0  0  0  0  0  0  0  0  0  0  0
   63.9133   31.8482   49.9958 C   0  0  0  0  0  0  0  0  0  0  0  0
   66.3563   34.1793   51.7123 N   0  0  0  0  0  0  0  0  0  0  0  0
   66.7031   34.6490   53.0663 C   0  0  0  0  0  0  0  0  0  0  0  0
   68.0935   35.2714   53.0018 C   0  0  0  0  0  0  0  0  0  0  0  0
   68.6396   34.9119   51.6360 C   0  0  0  0  0  0  0  0  0  0  0  0
   67.6522   33.9096   51.0744 C   0  0  0  0  0  0  0  0  0  0  0  0
  7  8  2  0
  8  9  1  0
  9 10  2  0
 10 15  1  0
 15 16  2  0
 16 17  1  0
 16 18  1  0
 18 19  1  0
 19 20  2  0
 19 21  1  0
 21 22  1  0
 22 23  2  0
  9 11  1  0
 11 12  2  0
 12 13  1  0
 12 14  1  0
 14  1  1  0
  1  2  2  0
  2  3  1  0
  3  4  2  0
  4 24  1  0
 24 25  2  0
 24 26  1  0
 26 27  1  0
 27 28  1  0
 28 29  1  0
 29 32  1  0
 32 33  1  0
 33 34  1  0
 34 35  1  0
 35 36  1  0
 29 30  1  0
 30 31  1  0
  4  5  1  0
  5  6  2  0
 14  8  1  0
  6  1  1  0
 22 15  1  0
 31 26  1  0
 36 32  1  0
M  CHG 1  17  -1
M  CHG 1  18  -1
M  CHG 1  21  -1
M  END
> <UniqueID>
23

> <SMILES>
C=c1c(=Cc2c([O-])[n-]c(=O)[n-]c2=O)cc(C)n1-c1ccc(C(=O)N2CCC(N3CCCC3)CC2)cc1

> <Energy>
125.94111649054871

> <Genealogy>
C=c1c(=Cc2c([O-])[n-]c(=O)[n-]c2=O)cc(C)n1-c1ccc(C(=O)N2CCC(N3CCCC3)CC2)cc1 (protonated)
C=c1c(=Cc2c([O-])[n-]c(=O)[n-]c2=O)cc(C)n1-c1ccc(C(=O)N2CCC(N3CCCC3)CC2)cc1 (3D coordinates assigned)
C=c1c(=Cc2c([O-])[n-]c(=O)[n-]c2=O)cc(C)n1-c1ccc(C(=O)N2CCC(N3CCCC3)CC2)cc1 (nonaromatic ring conformer: 125.94111649054871 kcal/mol)

> <smiles>
C=c1c(=Cc2c(O)[nH]c(=O)[nH]c2=O)cc(C)n1-c1ccc(C(=O)N2CCC(N3CCCC3)CC2)cc1

> <score_type>
oracle

> <origin>
adg

> <m_score__min__energy>
-17.190000000000001

> <m_primary>
energy

> <minimizedAffinity>
-8.92853

> <minimizedRMSD>
1.13490

> <CNNscore>
0.1657716930

> <CNNaffinity>
6.7251052856

> <CNN_VS>
1.1148320436

> <CNNaffinity_variance>
0.0681769177

$$$$
27:0


 31 34  0  0  0  0  0  0  0  0999 V2000
   58.4700   29.3937   53.5181 C   0  0  0  0  0  0  0  0  0  0  0  0
   59.0899   29.3527   54.7700 C   0  0  0  0  0  0  0  0  0  0  0  0
   60.4724   29.2235   54.8578 C   0  0  0  0  0  0  0  0  0  0  0  0
   61.2374   29.1394   53.6857 C   0  0  0  0  0  0  0  0  0  0  0  0
   60.6134   29.1650   52.4710 N   0  0  0  0  0  0  0  0  0  0  0  0
   59.2546   29.2875   52.3595 C   0  0  0  0  0  0  0  0  0  0  0  0
   61.1561   29.0934   51.6527 H   0  0  0  0  0  0  0  0  0  0  0  0
   56.8907   31.7984   52.7485 C   0  0  0  0  0  0  0  0  0  0  0  0
   56.3336   30.6178   53.0596 C   0  0  0  0  0  0  0  0  0  0  0  0
   54.9651   30.3275   53.0945 C   0  0  0  0  0  0  0  0  0  0  0  0
   53.9495   31.1462   52.7599 C   0  0  0  0  0  0  0  0  0  0  0  0
   54.8587   29.0015   53.4968 C   0  0  0  0  0  0  0  0  0  0  0  0
   56.1445   28.5410   53.6890 C   0  0  0  0  0  0  0  0  0  0  0  0
   56.5000   27.1536   54.1262 C   0  0  0  0  0  0  0  0  0  0  0  0
   57.0398   29.5200   53.4289 N   0  0  0  0  0  0  0  0  0  0  0  0
   52.9621   30.8481   51.7078 C   0  0  0  0  0  0  0  0  0  0  0  0
   53.1715   29.9443   50.7337 N   0  0  0  0  0  0  0  0  0  0  0  0
   52.0709   30.0570   49.9594 C   0  0  0  0  0  0  0  0  0  0  0  0
   51.8889   29.3502   48.9338 O   0  0  0  0  0  0  0  0  0  0  0  0
   51.1856   30.9924   50.3621 N   0  0  0  0  0  0  0  0  0  0  0  0
   51.7697   31.4944   51.4633 C   0  0  0  0  0  0  0  0  0  0  0  0
   51.2441   32.5501   52.1965 O   0  0  0  0  0  0  0  0  0  0  0  0
   62.6679   28.9827   53.7614 N   0  0  0  0  0  0  0  0  0  0  0  0
   63.3433   27.8199   53.1786 C   0  0  0  0  0  0  0  0  0  0  0  0
   64.4202   28.2733   52.1752 C   0  0  0  0  0  0  0  0  0  0  0  0
   65.0493   29.5773   52.5151 N   0  0  0  0  0  0  0  0  0  0  0  0
   64.5503   30.6665   51.6570 C   0  0  0  0  0  0  0  0  0  0  0  0
   64.9496   29.9193   53.9512 C   0  0  0  0  0  0  0  0  0  0  0  0
   63.4854   30.0088   54.4178 C   0  0  0  0  0  0  0  0  0  0  0  0
   58.6155   29.3029   51.1105 O   0  0  0  0  0  0  0  0  0  0  0  0
   58.9978   30.1400   50.0243 C   0  0  0  0  0  0  0  0  0  0  0  0
  8  9  2  0
  9 10  1  0
 10 11  2  0
 11 16  1  0
 16 17  1  0
 17 18  1  0
 18 19  2  0
 18 20  1  0
 20 21  1  0
 21 22  1  0
 10 12  1  0
 12 13  2  0
 13 14  1  0
 13 15  1  0
 15  1  1  0
  1  2  2  0
  2  3  1  0
  3  4  2  0
  4 23  1  0
 23 24  1  0
 24 25  1  0
 25 26  1  0
 26 27  1  0
 26 28  1  0
 28 29  1  0
  4  5  1  0
  5  6  2  0
  6 30  1  0
 30 31  1  0
 15  9  1  0
  6  1  1  0
 21 16  2  0
 29 23  1  0
  5  7  1  0
M  CHG 1   5   1
M  CHG 1  17  -1
M  CHG 1  20  -1
M  CHG 1  22  -1
M  END
> <UniqueID>
25

> <SMILES>
C=c1/c(=C/c2[n-]c(=O)[n-]c2[O-])cc(C)n1-c1ccc(N2CCN(C)CC2)[nH+]c1OC

> <Energy>
137.81564037349003

> <Genealogy>
C=c1c(=Cc2[n-]c(=O)[n-]c2[O-])cc(C)n1-c1ccc(N2CCN(C)CC2)[nH+]c1OC (protonated)
C=c1/c(=C/c2[n-]c(=O)[n-]c2[O-])cc(C)n1-c1ccc(N2CCN(C)CC2)[nH+]c1OC (cis-trans isomerization)
C=c1/c(=C/c2[n-]c(=O)[n-]c2[O-])cc(C)n1-c1ccc(N2CCN(C)CC2)[nH+]c1OC (3D coordinates assigned)
C=c1/c(=C/c2[n-]c(=O)[n-]c2[O-])cc(C)n1-c1ccc(N2CCN(C)CC2)[nH+]c1OC (nonaromatic ring conformer: 137.81564037349003 kcal/mol)

> <smiles>
C=c1c(=Cc2[nH]c(=O)[nH]c2O)cc(C)n1-c1ccc(N2CCN(C)CC2)nc1OC

> <score_type>
oracle

> <origin>
adg

> <m_score__min__energy>
-14.73

> <m_primary>
energy

> <minimizedAffinity>
-3.56303

> <minimizedRMSD>
1.35932

> <CNNscore>
0.0766327158

> <CNNaffinity>
4.6335182190

> <CNN_VS>
0.3550790846

> <CNNaffinity_variance>
0.4520653784

$$$$
30:0


 25 27  0  0  0  0  0  0  0  0999 V2000
   57.7924   31.7888   43.0663 C   0  0  0  0  0  0  0  0  0  0  0  0
   58.0274   31.7283   44.3848 C   0  0  0  0  0  0  0  0  0  0  0  0
   57.9461   32.8969   45.0646 N   0  0  0  0  0  0  0  0  0  0  0  0
   58.3391   33.0260   46.3510 C   0  0  0  0  0  0  0  0  0  0  0  0
   58.2149   34.1470   46.9133 O   0  0  0  0  0  0  0  0  0  0  0  0
   58.8917   31.9631   47.0127 N   0  0  0  0  0  0  0  0  0  0  0  0
   58.9671   30.7408   46.3925 C   0  0  0  0  0  0  0  0  0  0  0  0
   59.4624   29.7591   47.0174 O   0  0  0  0  0  0  0  0  0  0  0  0
   58.4645   30.5560   45.0748 C   0  0  0  0  0  0  0  0  0  0  0  0
   58.3996   29.2885   44.5742 C   0  0  0  0  0  0  0  0  0  0  0  0
   58.5645   28.0320   45.3359 C   0  0  0  0  0  0  0  0  0  0  0  0
   59.8595   27.6054   45.6713 C   0  0  0  0  0  0  0  0  0  0  0  0
   60.0477   26.4362   46.4122 C   0  0  0  0  0  0  0  0  0  0  0  0
   58.9466   25.6934   46.8414 C   0  0  0  0  0  0  0  0  0  0  0  0
   57.6507   26.1250   46.5442 C   0  0  0  0  0  0  0  0  0  0  0  0
   56.5591   25.3894   46.9899 O   0  0  0  0  0  0  0  0  0  0  0  0
   57.4531   27.2980   45.8030 C   0  0  0  0  0  0  0  0  0  0  0  0
   56.1569   27.7366   45.5470 O   0  0  0  0  0  0  0  0  0  0  0  0
   59.3495   32.1143   48.4102 C   0  0  0  0  0  0  0  0  0  0  0  0
   60.7782   32.5956   48.4503 C   0  0  0  0  0  0  0  0  0  0  0  0
   61.7596   31.9834   47.6509 C   0  0  0  0  0  0  0  0  0  0  0  0
   63.0893   32.4120   47.7141 C   0  0  0  0  0  0  0  0  0  0  0  0
   63.4496   33.4522   48.5745 C   0  0  0  0  0  0  0  0  0  0  0  0
   62.4812   34.0644   49.3737 C   0  0  0  0  0  0  0  0  0  0  0  0
   61.1516   33.6387   49.3140 C   0  0  0  0  0  0  0  0  0  0  0  0
  1  2  2  0
  2  3  1  0
  3  4  1  0
  4  5  2  0
  4  6  1  0
  6 19  1  0
 19 20  1  0
 20 21  2  0
 21 22  1  0
 22 23  2  0
 23 24  1  0
 24 25  2  0
  6  7  1  0
  7  8  2  0
  7  9  1  0
  9 10  2  0
 10 11  1  0
 11 12  2  0
 12 13  1  0
 13 14  2  0
 14 15  1  0
 15 16  1  0
 15 17  2  0
 17 18  1  0
  9  2  1  0
 17 11  1  0
 25 20  1  0
M  CHG 1   3  -1
M  CHG 1  16  -1
M  CHG 1  18  -1
M  END
> <UniqueID>
28

> <SMILES>
C=c1[n-]c(=O)n(Cc2ccccc2)c(=O)c1=Cc1cccc([O-])c1[O-]

> <Energy>
68.82005883286013

> <Genealogy>
C=c1[n-]c(=O)n(Cc2ccccc2)c(=O)c1=Cc1cccc([O-])c1[O-] (protonated)
C=c1[n-]c(=O)n(Cc2ccccc2)c(=O)c1=Cc1cccc([O-])c1[O-] (3D coordinates assigned)
C=c1[n-]c(=O)n(Cc2ccccc2)c(=O)c1=Cc1cccc([O-])c1[O-] (optimized conformer: 68.82005883286013 kcal/mol)

> <smiles>
C=c1[nH]c(=O)n(Cc2ccccc2)c(=O)c1=Cc1cccc(O)c1O

> <score_type>
oracle

> <origin>
adg

> <m_score__min__energy>
-17.07

> <m_primary>
energy

> <minimizedAffinity>
-8.44196

> <minimizedRMSD>
1.16849

> <CNNscore>
0.7024027109

> <CNNaffinity>
6.4684929848

> <CNN_VS>
4.5434870720

> <CNNaffinity_variance>
0.0521021970

$$$$
44:0


 25 27  0  0  0  0  0  0  0  0999 V2000
   59.7437   26.9765   47.3119 C   0  0  0  0  0  0  0  0  0  0  0  0
   59.1594   28.2619   46.8095 C   0  0  0  0  0  0  0  0  0  0  0  0
   58.0660   28.3852   45.9705 C   0  0  0  0  0  0  0  0  0  0  0  0
   57.9052   29.7463   45.7946 C   0  0  0  0  0  0  0  0  0  0  0  0
   57.0868   30.3045   45.0161 O   0  0  0  0  0  0  0  0  0  0  0  0
   58.8202   30.4038   46.5333 N   0  0  0  0  0  0  0  0  0  0  0  0
   59.5704   29.5043   47.1686 N   0  0  0  0  0  0  0  0  0  0  0  0
   60.6666   29.8093   48.0915 C   0  0  0  0  0  0  0  0  0  0  0  0
   58.9727   31.8328   46.6035 C   0  0  0  0  0  0  0  0  0  0  0  0
   59.1230   32.4647   47.8498 C   0  0  0  0  0  0  0  0  0  0  0  0
   59.2583   33.8542   47.9231 C   0  0  0  0  0  0  0  0  0  0  0  0
   59.2347   34.6229   46.7546 C   0  0  0  0  0  0  0  0  0  0  0  0
   59.0739   34.0021   45.5125 C   0  0  0  0  0  0  0  0  0  0  0  0
   58.9392   32.6118   45.4362 C   0  0  0  0  0  0  0  0  0  0  0  0
   57.3712   27.3128   45.3163 N   0  0  0  0  0  0  0  0  0  0  0  0
   57.8128   26.1042   45.1148 C   0  0  0  0  0  0  0  0  0  0  0  0
   57.2758   24.9025   45.7950 C   0  0  0  0  0  0  0  0  0  0  0  0
   55.9499   24.8920   46.2555 C   0  0  0  0  0  0  0  0  0  0  0  0
   55.1362   26.0075   46.0969 O   0  0  0  0  0  0  0  0  0  0  0  0
   55.4572   23.7903   46.8772 N   0  0  0  0  0  0  0  0  0  0  0  0
   56.2199   22.6824   47.0505 C   0  0  0  0  0  0  0  0  0  0  0  0
   55.6004   21.3762   47.8078 S   0  0  0  0  0  0  0  0  0  0  0  0
   57.4944   22.6541   46.5848 N   0  0  0  0  0  0  0  0  0  0  0  0
   58.0340   23.7280   45.9536 C   0  0  0  0  0  0  0  0  0  0  0  0
   59.2083   23.6494   45.5007 O   0  0  0  0  0  0  0  0  0  0  0  0
  1  2  1  0
  2  3  2  0
  3 15  1  0
 15 16  2  0
 16 17  1  0
 17 18  2  0
 18 19  1  0
 18 20  1  0
 20 21  1  0
 21 22  2  0
 21 23  1  0
 23 24  1  0
 24 25  2  0
  3  4  1  0
  4  5  2  0
  4  6  1  0
  6  9  1  0
  9 10  2  0
 10 11  1  0
 11 12  2  0
 12 13  1  0
 13 14  2  0
  6  7  1  0
  7  8  1  0
  7  2  1  0
 24 17  1  0
 14  9  1  0
M  CHG 1  19  -1
M  CHG 1  20  -1
M  CHG 1  23  -1
M  END
> <UniqueID>
41

> <SMILES>
Cc1c(N=Cc2c([O-])[n-]c(=S)[n-]c2=O)c(=O)n(-c2ccccc2)n1C

> <Energy>
93.74192093910995

> <Genealogy>
Cc1c(N=Cc2c([O-])[n-]c(=S)[n-]c2=O)c(=O)n(-c2ccccc2)n1C (protonated)
Cc1c(N=Cc2c([O-])[n-]c(=S)[n-]c2=O)c(=O)n(-c2ccccc2)n1C (3D coordinates assigned)
Cc1c(N=Cc2c([O-])[n-]c(=S)[n-]c2=O)c(=O)n(-c2ccccc2)n1C (optimized conformer: 93.74192093910995 kcal/mol)

> <smiles>
Cc1c(N=Cc2c(O)[nH]c(=S)[nH]c2=O)c(=O)n(-c2ccccc2)n1C

> <score_type>
oracle

> <origin>
adg

> <m_score__min__energy>
-15.15

> <m_primary>
energy

> <minimizedAffinity>
-8.50504

> <minimizedRMSD>
1.20819

> <CNNscore>
0.4520409703

> <CNNaffinity>
6.4355072975

> <CNN_VS>
2.9091129303

> <CNNaffinity_variance>
0.3825424612

$$$$
52:0


 27 30  0  0  0  0  0  0  0  0999 V2000
   59.0897   27.4189   47.3742 C   0  0  0  0  0  0  0  0  0  0  0  0
   58.7561   28.0989   46.2661 C   0  0  0  0  0  0  0  0  0  0  0  0
   58.1446   27.5832   45.1107 C   0  0  0  0  0  0  0  0  0  0  0  0
   57.8788   26.3152   44.7364 C   0  0  0  0  0  0  0  0  0  0  0  0
   57.8383   28.6730   44.3147 C   0  0  0  0  0  0  0  0  0  0  0  0
   58.3113   29.7923   44.9654 C   0  0  0  0  0  0  0  0  0  0  0  0
   58.1819   31.1895   44.4393 C   0  0  0  0  0  0  0  0  0  0  0  0
   58.8829   29.4480   46.1435 N   0  0  0  0  0  0  0  0  0  0  0  0
   57.3936   25.2443   45.6203 C   0  0  0  0  0  0  0  0  0  0  0  0
   58.0281   24.0818   45.8512 N   0  0  0  0  0  0  0  0  0  0  0  0
   57.1570   23.3593   46.5827 C   0  0  0  0  0  0  0  0  0  0  0  0
   57.4081   22.1981   46.9991 O   0  0  0  0  0  0  0  0  0  0  0  0
   55.9820   23.9839   46.8158 N   0  0  0  0  0  0  0  0  0  0  0  0
   56.1429   25.1650   46.1900 C   0  0  0  0  0  0  0  0  0  0  0  0
   55.1622   26.1474   46.1313 O   0  0  0  0  0  0  0  0  0  0  0  0
   58.9281   23.8174   45.5525 H   0  0  0  0  0  0  0  0  0  0  0  0
   59.4190   30.3648   47.1172 C   0  0  0  0  0  0  0  0  0  0  0  0
   58.6763   31.1749   47.9572 C   0  0  0  0  0  0  0  0  0  0  0  0
   59.5989   31.8728   48.7099 C   0  0  0  0  0  0  0  0  0  0  0  0
   60.8373   31.4399   48.2724 C   0  0  0  0  0  0  0  0  0  0  0  0
   60.7038   30.5413   47.3247 O   0  0  0  0  0  0  0  0  0  0  0  0
   62.1035   31.8965   48.7673 N   0  0  0  0  0  0  0  0  0  0  0  0
   62.9197   32.9224   48.1417 C   0  0  0  0  0  0  0  0  0  0  0  0
   64.1678   33.0801   49.0316 C   0  0  0  0  0  0  0  0  0  0  0  0
   64.0674   32.0396   50.1578 C   0  0  0  0  0  0  0  0  0  0  0  0
   62.7632   31.3941   49.9137 C   0  0  0  0  0  0  0  0  0  0  0  0
   62.2878   30.4826   50.6410 O   0  0  0  0  0  0  0  0  0  0  0  0
  1  2  2  0
  2  3  1  0
  3  4  2  0
  4  9  1  0
  9 10  1  0
 10 11  1  0
 11 12  2  0
 11 13  1  0
 13 14  1  0
 14 15  1  0
  3  5  1  0
  5  6  2  0
  6  7  1  0
  6  8  1  0
  8 17  1  0
 17 18  2  0
 18 19  1  0
 19 20  2  0
 20 22  1  0
 22 23  1  0
 23 24  1  0
 24 25  1  0
 25 26  1  0
 26 27  2  0
 20 21  1  0
  8  2  1  0
 21 17  1  0
 14  9  2  0
 26 22  1  0
 10 16  1  0
M  CHG 1  13  -1
M  CHG 1  15  -1
M  END
> <UniqueID>
49

> <SMILES>
C=c1c(=Cc2[nH]c(=O)[n-]c2[O-])cc(C)n1-c1ccc(N2CCCC2=O)o1

> <Energy>
153.2489353796624

> <Genealogy>
C=c1c(=Cc2[nH]c(=O)[n-]c2[O-])cc(C)n1-c1ccc(N2CCCC2=O)o1 (protonated)
C=c1c(=Cc2[nH]c(=O)[n-]c2[O-])cc(C)n1-c1ccc(N2CCCC2=O)o1 (3D coordinates assigned)
C=c1c(=Cc2[nH]c(=O)[n-]c2[O-])cc(C)n1-c1ccc(N2CCCC2=O)o1 (nonaromatic ring conformer: 153.2489353796624 kcal/mol)

> <smiles>
C=c1c(=Cc2[nH]c(=O)[nH]c2O)cc(C)n1-c1ccc(N2CCCC2=O)o1

> <score_type>
oracle

> <origin>
adg

> <m_score__min__energy>
-14.01

> <m_primary>
energy

> <minimizedAffinity>
-7.69721

> <minimizedRMSD>
1.75921

> <CNNscore>
0.1192139611

> <CNNaffinity>
6.1765518188

> <CNN_VS>
0.7363312244

> <CNNaffinity_variance>
0.1003787443

$$$$
74:0


 33 36  0  0  0  0  0  0  0  0999 V2000
   56.9142   30.7326   43.4661 O   0  0  0  0  0  0  0  0  0  0  0  0
   57.2984   31.0511   44.6215 C   0  0  0  0  0  0  0  0  0  0  0  0
   57.3013   32.5126   44.9923 C   0  0  0  0  0  0  0  0  0  0  0  0
   58.4736   32.8765   45.8136 N   0  0  0  0  0  0  0  0  0  0  0  0
   59.0967   34.1296   45.3277 C   0  0  0  0  0  0  0  0  0  0  0  0
   59.6825   34.9996   46.4577 C   0  0  0  0  0  0  0  0  0  0  0  0
   60.3089   34.1918   47.5277 N   0  0  0  0  0  0  0  0  0  0  0  0
   59.4468   33.0952   48.0376 C   0  0  0  0  0  0  0  0  0  0  0  0
   58.1475   32.9294   47.2482 C   0  0  0  0  0  0  0  0  0  0  0  0
   61.6670   33.7228   47.1801 C   0  0  0  0  0  0  0  0  0  0  0  0
   62.4560   33.3745   48.4212 C   0  0  0  0  0  0  0  0  0  0  0  0
   62.3600   34.1926   49.5555 C   0  0  0  0  0  0  0  0  0  0  0  0
   63.1123   33.9077   50.6997 C   0  0  0  0  0  0  0  0  0  0  0  0
   63.9704   32.8048   50.7179 C   0  0  0  0  0  0  0  0  0  0  0  0
   64.0649   31.9768   49.5974 C   0  0  0  0  0  0  0  0  0  0  0  0
   63.3152   32.2577   48.4476 C   0  0  0  0  0  0  0  0  0  0  0  0
   63.4318   31.4414   47.3722 F   0  0  0  0  0  0  0  0  0  0  0  0
   57.6817   30.0056   45.5303 N   0  0  0  0  0  0  0  0  0  0  0  0
   57.8221   28.6059   45.2478 C   0  0  0  0  0  0  0  0  0  0  0  0
   58.2240   28.2181   43.9655 C   0  0  0  0  0  0  0  0  0  0  0  0
   58.3300   26.8663   43.6385 C   0  0  0  0  0  0  0  0  0  0  0  0
   58.0366   25.8890   44.5909 C   0  0  0  0  0  0  0  0  0  0  0  0
   57.6516   26.2634   45.8878 C   0  0  0  0  0  0  0  0  0  0  0  0
   57.5862   27.6243   46.2241 C   0  0  0  0  0  0  0  0  0  0  0  0
   57.3433   25.2132   46.9165 C   0  0  0  0  0  0  0  0  0  0  0  0
   56.3049   24.2640   46.4045 C   0  0  0  0  0  0  0  0  0  0  0  0
   56.4531   22.9277   46.3731 N   0  0  0  0  0  0  0  0  0  0  0  0
   55.2738   22.4973   45.8784 C   0  0  0  0  0  0  0  0  0  0  0  0
   55.0225   21.2769   45.6901 O   0  0  0  0  0  0  0  0  0  0  0  0
   54.3807   23.4751   45.6042 N   0  0  0  0  0  0  0  0  0  0  0  0
   55.0517   24.5866   45.9486 C   0  0  0  0  0  0  0  0  0  0  0  0
   54.5291   25.8726   45.8485 O   0  0  0  0  0  0  0  0  0  0  0  0
   53.6593   26.0010   45.5245 H   0  0  0  0  0  0  0  0  0  0  0  0
  1  2  2  0
  2  3  1  0
  3  4  1  0
  4  5  1  0
  5  6  1  0
  6  7  1  0
  7 10  1  0
 10 11  1  0
 11 12  2  0
 12 13  1  0
 13 14  2  0
 14 15  1  0
 15 16  2  0
 16 17  1  0
  7  8  1  0
  8  9  1  0
  2 18  1  0
 18 19  1  0
 19 20  2  0
 20 21  1  0
 21 22  2  0
 22 23  1  0
 23 25  1  0
 25 26  1  0
 26 27  1  0
 27 28  1  0
 28 29  2  0
 28 30  1  0
 30 31  1  0
 31 32  1  0
 23 24  2  0
  9  4  1  0
 24 19  1  0
 16 11  1  0
 31 26  2  0
 32 33  1  0
M  CHG 1  18  -1
M  CHG 1  27  -1
M  CHG 1  30  -1
M  END
> <UniqueID>
70

> <SMILES>
O=C(CN1CCN(Cc2ccccc2F)CC1)[N-]c1cccc(Cc2[n-]c(=O)[n-]c2O)c1

> <Energy>
100.84216584830133

> <Genealogy>
O=C(CN1CCN(Cc2ccccc2F)CC1)[N-]c1cccc(Cc2[n-]c(=O)[n-]c2O)c1 (protonated)
O=C(CN1CCN(Cc2ccccc2F)CC1)[N-]c1cccc(Cc2[n-]c(=O)[n-]c2O)c1 (3D coordinates assigned)
O=C(CN1CCN(Cc2ccccc2F)CC1)[N-]c1cccc(Cc2[n-]c(=O)[n-]c2O)c1 (nonaromatic ring conformer: 100.84216584830133 kcal/mol)

> <smiles>
O=C(CN1CCN(Cc2ccccc2F)CC1)Nc1cccc(Cc2[nH]c(=O)[nH]c2O)c1

> <score_type>
oracle

> <origin>
adg

> <m_score__min__energy>
-15.82

> <m_primary>
energy

> <minimizedAffinity>
-8.63328

> <minimizedRMSD>
1.17130

> <CNNscore>
0.2017559856

> <CNNaffinity>
6.0075354576

> <CNN_VS>
1.2120562792

> <CNNaffinity_variance>
0.6815010905

$$$$
17:0


 28 30  0  0  0  0  0  0  0  0999 V2000
   58.6966   30.5827   45.7862 C   0  0  0  0  0  0  0  0  0  0  0  0
   59.1899   29.5991   46.5886 N   0  0  0  0  0  0  0  0  0  0  0  0
   58.9639   28.3079   46.3446 N   0  0  0  0  0  0  0  0  0  0  0  0
   58.2270   27.8944   45.2809 C   0  0  0  0  0  0  0  0  0  0  0  0
   58.0501   26.6145   45.1050 N   0  0  0  0  0  0  0  0  0  0  0  0
   57.6806   28.8663   44.4239 C   0  0  0  0  0  0  0  0  0  0  0  0
   57.9171   30.2141   44.6804 C   0  0  0  0  0  0  0  0  0  0  0  0
   58.7454   34.3820   45.6447 C   0  0  0  0  0  0  0  0  0  0  0  0
   59.5479   34.6834   46.7460 C   0  0  0  0  0  0  0  0  0  0  0  0
   60.0806   33.6615   47.5352 C   0  0  0  0  0  0  0  0  0  0  0  0
   59.7969   32.3219   47.2141 C   0  0  0  0  0  0  0  0  0  0  0  0
   58.9785   32.0038   46.1127 C   0  0  0  0  0  0  0  0  0  0  0  0
   58.4628   33.0516   45.3265 C   0  0  0  0  0  0  0  0  0  0  0  0
   60.9048   34.0196   48.6539 N   0  0  0  0  0  0  0  0  0  0  0  0
   62.4751   33.3675   48.9894 S   0  0  0  0  0  0  0  0  0  0  0  0
   62.3913   31.8719   49.1189 O   0  0  0  0  0  0  0  0  0  0  0  0
   63.4280   33.7343   47.8868 O   0  0  0  0  0  0  0  0  0  0  0  0
   63.0686   34.0498   50.5198 C   0  0  0  0  0  0  0  0  0  0  0  0
   58.5353   25.5257   45.9558 C   0  0  0  0  0  0  0  0  0  0  0  0
   57.5565   25.2576   47.1030 C   0  0  0  0  0  0  0  0  0  0  0  0
   56.6235   24.1261   46.7500 C   0  0  0  0  0  0  0  0  0  0  0  0
   57.0146   22.7988   46.9943 C   0  0  0  0  0  0  0  0  0  0  0  0
   56.1479   21.7416   46.6995 C   0  0  0  0  0  0  0  0  0  0  0  0
   54.8811   22.0009   46.1699 C   0  0  0  0  0  0  0  0  0  0  0  0
   54.0209   20.9487   45.8781 O   0  0  0  0  0  0  0  0  0  0  0  0
   54.4783   23.3191   45.9364 C   0  0  0  0  0  0  0  0  0  0  0  0
   55.3403   24.3819   46.2291 C   0  0  0  0  0  0  0  0  0  0  0  0
   54.9122   25.6856   46.0013 O   0  0  0  0  0  0  0  0  0  0  0  0
  8  9  2  0
  9 10  1  0
 10 14  1  0
 14 15  1  0
 15 16  2  0
 15 17  2  0
 15 18  1  0
 10 11  2  0
 11 12  1  0
 12  1  1  0
  1  2  2  0
  2  3  1  0
  3  4  1  0
  4  5  2  0
  5 19  1  0
 19 20  1  0
 20 21  1  0
 21 22  2  0
 22 23  1  0
 23 24  2  0
 24 25  1  0
 24 26  1  0
 26 27  2  0
 27 28  1  0
  4  6  1  0
  6  7  2  0
 12 13  2  0
 13  8  1  0
  7  1  1  0
 27 21  1  0
M  CHG 1   3  -1
M  CHG 1  14  -1
M  CHG 1  25  -1
M  CHG 1  28  -1
M  END
> <UniqueID>
16

> <SMILES>
CS(=O)(=O)[N-]c1cccc(-c2cc/c(=N\CCc3ccc([O-])cc3[O-])[n-]n2)c1

> <Energy>
50.871822717270916

> <Genealogy>
CS(=O)(=O)[N-]c1cccc(-c2ccc(=NCCc3ccc([O-])cc3[O-])[n-]n2)c1 (protonated)
CS(=O)(=O)[N-]c1cccc(-c2cc/c(=N\CCc3ccc([O-])cc3[O-])[n-]n2)c1 (cis-trans isomerization)
CS(=O)(=O)[N-]c1cccc(-c2cc/c(=N\CCc3ccc([O-])cc3[O-])[n-]n2)c1 (3D coordinates assigned)
CS(=O)(=O)[N-]c1cccc(-c2cc/c(=N\CCc3ccc([O-])cc3[O-])[n-]n2)c1 (optimized conformer: 50.871822717270916 kcal/mol)

> <smiles>
CS(=O)(=O)Nc1cccc(-c2ccc(=NCCc3ccc(O)cc3O)[nH]n2)c1

> <score_type>
oracle

> <origin>
adg

> <m_score__min__energy>
-17.16

> <m_primary>
energy

> <minimizedAffinity>
-8.28783

> <minimizedRMSD>
1.22916

> <CNNscore>
0.2465582788

> <CNNaffinity>
6.1672549248

> <CNN_VS>
1.5205878019

> <CNNaffinity_variance>
0.0197389740

$$$$
27:0


 29 31  0  0  0  0  0  0  0  0999 V2000
   58.9638   28.2615   46.4129 C   0  0  0  0  0  0  0  0  0  0  0  0
   59.7790   29.3009   46.8989 C   0  0  0  0  0  0  0  0  0  0  0  0
   59.5258   30.6270   46.5380 C   0  0  0  0  0  0  0  0  0  0  0  0
   58.4596   30.9368   45.6867 C   0  0  0  0  0  0  0  0  0  0  0  0
   57.6321   29.9098   45.2146 C   0  0  0  0  0  0  0  0  0  0  0  0
   57.8838   28.5821   45.5715 C   0  0  0  0  0  0  0  0  0  0  0  0
   58.2199   32.6004   45.1564 S   0  0  0  0  0  0  0  0  0  0  0  0
   57.9921   32.6567   43.6720 O   0  0  0  0  0  0  0  0  0  0  0  0
   57.0097   33.1539   45.8539 O   0  0  0  0  0  0  0  0  0  0  0  0
   59.6028   33.5714   45.5578 N   0  0  0  0  0  0  0  0  0  0  0  0
   59.9025   34.0861   46.8613 C   0  0  0  0  0  0  0  0  0  0  0  0
   59.0615   34.8334   47.4266 O   0  0  0  0  0  0  0  0  0  0  0  0
   61.1523   33.7536   47.5710 C   0  0  0  0  0  0  0  0  0  0  0  0
   62.3029   33.4155   46.8412 C   0  0  0  0  0  0  0  0  0  0  0  0
   63.5010   33.1404   47.5047 C   0  0  0  0  0  0  0  0  0  0  0  0
   63.5546   33.1791   48.9003 C   0  0  0  0  0  0  0  0  0  0  0  0
   62.4059   33.4881   49.6357 C   0  0  0  0  0  0  0  0  0  0  0  0
   62.4712   33.5377   51.3881 Cl  0  0  0  0  0  0  0  0  0  0  0  0
   61.2041   33.7656   48.9729 C   0  0  0  0  0  0  0  0  0  0  0  0
   60.4415   26.4616   46.8781 O   0  0  0  0  0  0  0  0  0  0  0  0
   59.2459   26.8516   46.7714 C   0  0  0  0  0  0  0  0  0  0  0  0
   58.1566   25.9385   46.9961 N   0  0  0  0  0  0  0  0  0  0  0  0
   57.7651   24.9746   46.2122 C   0  0  0  0  0  0  0  0  0  0  0  0
   58.6244   23.9941   45.8114 N   0  0  0  0  0  0  0  0  0  0  0  0
   58.2312   22.9790   44.9955 C   0  0  0  0  0  0  0  0  0  0  0  0
   56.9124   22.9175   44.5425 C   0  0  0  0  0  0  0  0  0  0  0  0
   56.0098   23.9059   44.9354 C   0  0  0  0  0  0  0  0  0  0  0  0
   56.4317   24.9406   45.7733 C   0  0  0  0  0  0  0  0  0  0  0  0
   55.5302   25.9250   46.1658 O   0  0  0  0  0  0  0  0  0  0  0  0
 20 21  2  0
 21 22  1  0
 22 23  2  0
 23 24  1  0
 24 25  1  0
 25 26  2  0
 26 27  1  0
 27 28  2  0
 28 29  1  0
 21  1  1  0
  1  2  2  0
  2  3  1  0
  3  4  2  0
  4  7  1  0
  7  8  2  0
  7  9  2  0
  7 10  1  0
 10 11  1  0
 11 12  2  0
 11 13  1  0
 13 14  2  0
 14 15  1  0
 15 16  2  0
 16 17  1  0
 17 18  1  0
 17 19  2  0
  4  5  1  0
  5  6  2  0
 28 23  1  0
  6  1  1  0
 19 13  1  0
M  CHG 1  10  -1
M  CHG 1  24  -1
M  CHG 1  29  -1
M  END
> <UniqueID>
26

> <SMILES>
O=C(N=c1[n-]cccc1[O-])c1ccc(S(=O)(=O)[N-]C(=O)c2cccc(Cl)c2)cc1

> <Energy>
52.450431800575224

> <Genealogy>
O=C(N=c1[n-]cccc1[O-])c1ccc(S(=O)(=O)[N-]C(=O)c2cccc(Cl)c2)cc1 (protonated)
O=C(N=c1[n-]cccc1[O-])c1ccc(S(=O)(=O)[N-]C(=O)c2cccc(Cl)c2)cc1 (3D coordinates assigned)
O=C(N=c1[n-]cccc1[O-])c1ccc(S(=O)(=O)[N-]C(=O)c2cccc(Cl)c2)cc1 (optimized conformer: 52.450431800575224 kcal/mol)

> <smiles>
O=C(N=c1[nH]cccc1O)c1ccc(S(=O)(=O)NC(=O)c2cccc(Cl)c2)cc1

> <score_type>
oracle

> <origin>
adg

> <m_score__min__energy>
-15.57

> <m_primary>
energy

> <minimizedAffinity>
-9.54333

> <minimizedRMSD>
1.32031

> <CNNscore>
0.4623757303

> <CNNaffinity>
6.7299170494

> <CNN_VS>
3.1117503643

> <CNNaffinity_variance>
0.2331208438

$$$$
28:0


 30 32  0  0  0  0  0  0  0  0999 V2000
   60.1990   29.2187   48.6942 C   0  0  0  0  0  0  0  0  0  0  0  0
   59.7353   30.1700   47.8691 C   0  0  0  0  0  0  0  0  0  0  0  0
   59.5013   30.0429   46.4975 C   0  0  0  0  0  0  0  0  0  0  0  0
   59.7064   28.9536   45.7298 C   0  0  0  0  0  0  0  0  0  0  0  0
   59.0576   31.2838   46.0581 C   0  0  0  0  0  0  0  0  0  0  0  0
   59.0221   32.1043   47.1674 C   0  0  0  0  0  0  0  0  0  0  0  0
   58.6317   33.5504   47.1500 C   0  0  0  0  0  0  0  0  0  0  0  0
   59.4321   31.4318   48.2647 N   0  0  0  0  0  0  0  0  0  0  0  0
   58.9690   27.6816   45.9031 C   0  0  0  0  0  0  0  0  0  0  0  0
   57.6060   27.6108   45.5852 C   0  0  0  0  0  0  0  0  0  0  0  0
   56.9243   28.7380   45.1368 O   0  0  0  0  0  0  0  0  0  0  0  0
   56.9348   26.4383   45.7211 N   0  0  0  0  0  0  0  0  0  0  0  0
   57.5678   25.3156   46.1508 C   0  0  0  0  0  0  0  0  0  0  0  0
   56.9254   24.2408   46.2754 O   0  0  0  0  0  0  0  0  0  0  0  0
   58.8927   25.3504   46.4412 N   0  0  0  0  0  0  0  0  0  0  0  0
   59.6077   26.4988   46.3196 C   0  0  0  0  0  0  0  0  0  0  0  0
   60.8444   26.4827   46.5631 O   0  0  0  0  0  0  0  0  0  0  0  0
   59.5489   31.9811   49.5902 C   0  0  0  0  0  0  0  0  0  0  0  0
   58.4229   31.9825   50.4242 C   0  0  0  0  0  0  0  0  0  0  0  0
   58.4870   32.5448   51.6996 C   0  0  0  0  0  0  0  0  0  0  0  0
   59.6814   33.1115   52.1566 C   0  0  0  0  0  0  0  0  0  0  0  0
   60.8128   33.1099   51.3352 C   0  0  0  0  0  0  0  0  0  0  0  0
   60.7647   32.5461   50.0468 C   0  0  0  0  0  0  0  0  0  0  0  0
   61.9889   32.5251   49.2113 C   0  0  0  0  0  0  0  0  0  0  0  0
   62.8661   31.6407   49.4115 O   0  0  0  0  0  0  0  0  0  0  0  0
   62.1867   33.5013   48.1796 N   0  0  0  0  0  0  0  0  0  0  0  0
   63.4126   33.5445   47.3923 C   0  0  0  0  0  0  0  0  0  0  0  0
   61.4767   34.1588   47.9986 H   0  0  0  0  0  0  0  0  0  0  0  0
   59.7465   33.6863   53.4748 C   0  0  0  0  0  0  0  0  0  0  0  0
   59.7986   34.1485   54.5333 N   0  0  0  0  0  0  0  0  0  0  0  0
  1  2  2  0
  2  3  1  0
  3  4  2  0
  4  9  1  0
  9 10  2  0
 10 11  1  0
 10 12  1  0
 12 13  1  0
 13 14  2  0
 13 15  1  0
 15 16  1  0
 16 17  2  0
  3  5  1  0
  5  6  2  0
  6  7  1  0
  6  8  1  0
  8 18  1  0
 18 19  2  0
 19 20  1  0
 20 21  2  0
 21 29  1  0
 29 30  3  0
 21 22  1  0
 22 23  2  0
 23 24  1  0
 24 25  2  0
 24 26  1  0
 26 27  1  0
  8  2  1  0
 23 18  1  0
 16  9  1  0
 26 28  1  0
M  CHG 1  11  -1
M  CHG 1  12  -1
M  CHG 1  15  -1
M  END
> <UniqueID>
27

> <SMILES>
C=c1/c(=C/c2c([O-])[n-]c(=O)[n-]c2=O)cc(C)n1-c1ccc(C#N)cc1C(=O)NC

> <Energy>
90.29989445369672

> <Genealogy>
C=c1c(=Cc2c([O-])[n-]c(=O)[n-]c2=O)cc(C)n1-c1ccc(C#N)cc1C(=O)NC (protonated)
C=c1/c(=C/c2c([O-])[n-]c(=O)[n-]c2=O)cc(C)n1-c1ccc(C#N)cc1C(=O)NC (cis-trans isomerization)
C=c1/c(=C/c2c([O-])[n-]c(=O)[n-]c2=O)cc(C)n1-c1ccc(C#N)cc1C(=O)NC (3D coordinates assigned)
C=c1/c(=C/c2c([O-])[n-]c(=O)[n-]c2=O)cc(C)n1-c1ccc(C#N)cc1C(=O)NC (optimized conformer: 90.29989445369672 kcal/mol)

> <smiles>
C=c1c(=Cc2c(O)[nH]c(=O)[nH]c2=O)cc(C)n1-c1ccc(C#N)cc1C(=O)NC

> <score_type>
oracle

> <origin>
adg

> <m_score__min__energy>
-15.279999999999999

> <m_primary>
energy

> <minimizedAffinity>
-7.87031

> <minimizedRMSD>
1.29773

> <CNNscore>
0.3453136981

> <CNNaffinity>
6.9627118111

> <CNN_VS>
2.4043197632

> <CNNaffinity_variance>
0.2479886413

$$$$
33:0


 35 38  0  0  0  0  0  0  0  0999 V2000
   59.6285   31.6597   53.4675 C   0  0  0  0  0  0  0  0  0  0  0  0
   60.3745   31.8271   54.6464 C   0  0  0  0  0  0  0  0  0  0  0  0
   59.7687   31.6834   55.8954 C   0  0  0  0  0  0  0  0  0  0  0  0
   58.4124   31.3748   55.9807 C   0  0  0  0  0  0  0  0  0  0  0  0
   57.6599   31.1939   54.8189 C   0  0  0  0  0  0  0  0  0  0  0  0
   58.2569   31.3188   53.5526 C   0  0  0  0  0  0  0  0  0  0  0  0
   61.4800   32.2102   49.6392 C   0  0  0  0  0  0  0  0  0  0  0  0
   60.9856   33.3139   50.3555 C   0  0  0  0  0  0  0  0  0  0  0  0
   60.3953   33.1362   51.6092 C   0  0  0  0  0  0  0  0  0  0  0  0
   60.3031   31.8553   52.1697 C   0  0  0  0  0  0  0  0  0  0  0  0
   60.8578   30.7612   51.4930 C   0  0  0  0  0  0  0  0  0  0  0  0
   61.4449   30.9387   50.2363 C   0  0  0  0  0  0  0  0  0  0  0  0
   62.0543   32.3885   48.2471 C   0  0  0  0  0  0  0  0  0  0  0  0
   57.5007   33.7540   45.5544 C   0  0  0  0  0  0  0  0  0  0  0  0
   58.2147   33.2531   46.7389 N   0  0  0  0  0  0  0  0  0  0  0  0
   58.7051   31.8728   46.5036 C   0  0  0  0  0  0  0  0  0  0  0  0
   59.8714   31.5326   47.4380 C   0  0  0  0  0  0  0  0  0  0  0  0
   61.0298   32.4164   47.1761 N   0  0  0  0  0  0  0  0  0  0  0  0
   60.6724   33.7726   46.6966 C   0  0  0  0  0  0  0  0  0  0  0  0
   59.2735   34.2005   47.1725 C   0  0  0  0  0  0  0  0  0  0  0  0
   57.2793   31.0044   52.1066 S   0  0  0  0  0  0  0  0  0  0  0  0
   57.5695   29.6329   51.5574 O   0  0  0  0  0  0  0  0  0  0  0  0
   57.5930   32.0361   51.0572 O   0  0  0  0  0  0  0  0  0  0  0  0
   55.5930   31.0985   52.4908 N   0  0  0  0  0  0  0  0  0  0  0  0
   54.7209   29.9703   52.3903 C   0  0  0  0  0  0  0  0  0  0  0  0
   54.9496   28.9235   53.0545 O   0  0  0  0  0  0  0  0  0  0  0  0
   53.4906   30.0657   51.5504 C   0  0  0  0  0  0  0  0  0  0  0  0
   52.4506   30.8581   52.2770 C   0  0  0  0  0  0  0  0  0  0  0  0
   52.1763   30.7225   53.5862 N   0  0  0  0  0  0  0  0  0  0  0  0
   51.1270   31.5516   53.7715 C   0  0  0  0  0  0  0  0  0  0  0  0
   50.5775   31.7077   54.8926 O   0  0  0  0  0  0  0  0  0  0  0  0
   50.7074   32.1936   52.6600 N   0  0  0  0  0  0  0  0  0  0  0  0
   51.5506   31.7366   51.7214 C   0  0  0  0  0  0  0  0  0  0  0  0
   51.4980   32.1039   50.3814 O   0  0  0  0  0  0  0  0  0  0  0  0
   50.8485   32.7120   50.0874 H   0  0  0  0  0  0  0  0  0  0  0  0
 14 15  1  0
 15 16  1  0
 16 17  1  0
 17 18  1  0
 18 13  1  0
 13  7  1  0
  7  8  2  0
  8  9  1  0
  9 10  2  0
 10  1  1  0
  1  2  2  0
  2  3  1  0
  3  4  2  0
  4  5  1  0
  5  6  2  0
  6 21  1  0
 21 22  2  0
 21 23  2  0
 21 24  1  0
 24 25  1  0
 25 26  2  0
 25 27  1  0
 27 28  1  0
 28 29  1  0
 29 30  1  0
 30 31  2  0
 30 32  1  0
 32 33  1  0
 33 34  1  0
 10 11  1  0
 11 12  2  0
 18 19  1  0
 19 20  1  0
 20 15  1  0
 12  7  1  0
  6  1  1  0
 33 28  2  0
 34 35  1  0
M  CHG 1  24  -1
M  CHG 1  29  -1
M  CHG 1  32  -1
M  END
> <UniqueID>
32

> <SMILES>
CN1CCN(Cc2ccc(-c3ccccc3S(=O)(=O)[N-]C(=O)Cc3[n-]c(=O)[n-]c3O)cc2)CC1

> <Energy>
110.34557840058311

> <Genealogy>
CN1CCN(Cc2ccc(-c3ccccc3S(=O)(=O)[N-]C(=O)Cc3[n-]c(=O)[n-]c3O)cc2)CC1 (protonated)
CN1CCN(Cc2ccc(-c3ccccc3S(=O)(=O)[N-]C(=O)Cc3[n-]c(=O)[n-]c3O)cc2)CC1 (3D coordinates assigned)
CN1CCN(Cc2ccc(-c3ccccc3S(=O)(=O)[N-]C(=O)Cc3[n-]c(=O)[n-]c3O)cc2)CC1 (nonaromatic ring conformer: 110.34557840058311 kcal/mol)

> <smiles>
CN1CCN(Cc2ccc(-c3ccccc3S(=O)(=O)NC(=O)Cc3[nH]c(=O)[nH]c3O)cc2)CC1

> <score_type>
oracle

> <origin>
adg

> <m_score__min__energy>
-15.359999999999999

> <m_primary>
energy

> <minimizedAffinity>
-7.47501

> <minimizedRMSD>
0.79729

> <CNNscore>
0.2899303138

> <CNNaffinity>
5.7685489655

> <CNN_VS>
1.6724772453

> <CNNaffinity_variance>
0.2793020904

$$$$
42:0


 38 42  0  0  0  0  0  0  0  0999 V2000
   58.4391   31.4786   45.8003 C   0  0  0  0  0  0  0  0  0  0  0  0
   57.6490   32.4629   45.1904 C   0  0  0  0  0  0  0  0  0  0  0  0
   58.0090   33.8112   45.2803 C   0  0  0  0  0  0  0  0  0  0  0  0
   59.1537   34.1850   45.9913 C   0  0  0  0  0  0  0  0  0  0  0  0
   59.9369   33.2109   46.6294 C   0  0  0  0  0  0  0  0  0  0  0  0
   59.5883   31.8579   46.5095 C   0  0  0  0  0  0  0  0  0  0  0  0
   57.9805   26.6020   46.4532 C   0  0  0  0  0  0  0  0  0  0  0  0
   57.9633   27.8570   45.9646 C   0  0  0  0  0  0  0  0  0  0  0  0
   57.4405   28.1651   44.7196 C   0  0  0  0  0  0  0  0  0  0  0  0
   57.5166   29.5342   44.5768 C   0  0  0  0  0  0  0  0  0  0  0  0
   57.1083   30.2851   43.3461 C   0  0  0  0  0  0  0  0  0  0  0  0
   58.0957   30.0881   45.6649 N   0  0  0  0  0  0  0  0  0  0  0  0
   58.4043   29.0747   46.5150 C   0  0  0  0  0  0  0  0  0  0  0  0
   59.1249   29.2445   47.6334 C   0  0  0  0  0  0  0  0  0  0  0  0
   58.4188   23.6603   45.7954 O   0  0  0  0  0  0  0  0  0  0  0  0
   57.1725   24.2707   45.8882 C   0  0  0  0  0  0  0  0  0  0  0  0
   56.0106   23.6482   45.6282 N   0  0  0  0  0  0  0  0  0  0  0  0
   55.1053   24.6332   45.8053 C   0  0  0  0  0  0  0  0  0  0  0  0
   53.8689   24.4564   45.6361 O   0  0  0  0  0  0  0  0  0  0  0  0
   55.6269   25.8297   46.1532 N   0  0  0  0  0  0  0  0  0  0  0  0
   56.9468   25.5791   46.2381 C   0  0  0  0  0  0  0  0  0  0  0  0
   58.4816   22.7586   45.5485 H   0  0  0  0  0  0  0  0  0  0  0  0
   61.1456   33.5797   47.3888 C   0  0  0  0  0  0  0  0  0  0  0  0
   62.2106   33.7795   46.7443 O   0  0  0  0  0  0  0  0  0  0  0  0
   61.1505   33.6448   48.8373 N   0  0  0  0  0  0  0  0  0  0  0  0
   59.8932   33.6782   49.6013 C   0  0  0  0  0  0  0  0  0  0  0  0
   60.1510   33.4599   51.0923 C   0  0  0  0  0  0  0  0  0  0  0  0
   61.1061   32.3477   51.2407 N   0  0  0  0  0  0  0  0  0  0  0  0
   62.4535   32.7182   50.7430 C   0  0  0  0  0  0  0  0  0  0  0  0
   62.4237   33.7210   49.5695 C   0  0  0  0  0  0  0  0  0  0  0  0
   61.1775   31.8729   52.6349 C   0  0  0  0  0  0  0  0  0  0  0  0
   59.8633   31.2577   53.0673 C   0  0  0  0  0  0  0  0  0  0  0  0
   59.1091   31.9015   54.0642 C   0  0  0  0  0  0  0  0  0  0  0  0
   57.8900   31.3719   54.4884 C   0  0  0  0  0  0  0  0  0  0  0  0
   57.4040   30.1942   53.9204 C   0  0  0  0  0  0  0  0  0  0  0  0
   58.1358   29.5417   52.9266 C   0  0  0  0  0  0  0  0  0  0  0  0
   59.3723   30.0534   52.4969 C   0  0  0  0  0  0  0  0  0  0  0  0
   60.1142   29.3334   51.4020 C   0  0  0  0  0  0  0  0  0  0  0  0
 15 16  1  0
 16 17  1  0
 17 18  1  0
 18 19  2  0
 18 20  1  0
 20 21  1  0
 21  7  1  0
  7  8  2  0
  8  9  1  0
  9 10  2  0
 10 11  1  0
 10 12  1  0
 12  1  1  0
  1  2  2  0
  2  3  1  0
  3  4  2  0
  4  5  1  0
  5 23  1  0
 23 24  2  0
 23 25  1  0
 25 26  1  0
 26 27  1  0
 27 28  1  0
 28 31  1  0
 31 32  1  0
 32 33  2  0
 33 34  1  0
 34 35  2  0
 35 36  1  0
 36 37  2  0
 37 38  1  0
 28 29  1  0
 29 30  1  0
  5  6  2  0
 12 13  1  0
 13 14  2  0
 21 16  2  0
 13  8  1  0
  6  1  1  0
 30 25  1  0
 37 32  1  0
 15 22  1  0
M  CHG 1  17  -1
M  CHG 1  20  -1
M  END
> <UniqueID>
40

> <SMILES>
C=c1/c(=C\c2[n-]c(=O)[n-]c2O)cc(C)n1-c1cccc(C(=O)N2CCN(Cc3ccccc3C)CC2)c1

> <Energy>
158.5021306087496

> <Genealogy>
C=c1c(=Cc2[n-]c(=O)[n-]c2O)cc(C)n1-c1cccc(C(=O)N2CCN(Cc3ccccc3C)CC2)c1 (protonated)
C=c1/c(=C\c2[n-]c(=O)[n-]c2O)cc(C)n1-c1cccc(C(=O)N2CCN(Cc3ccccc3C)CC2)c1 (cis-trans isomerization)
C=c1/c(=C\c2[n-]c(=O)[n-]c2O)cc(C)n1-c1cccc(C(=O)N2CCN(Cc3ccccc3C)CC2)c1 (3D coordinates assigned)
C=c1/c(=C\c2[n-]c(=O)[n-]c2O)cc(C)n1-c1cccc(C(=O)N2CCN(Cc3ccccc3C)CC2)c1 (nonaromatic ring conformer: 158.5021306087496 kcal/mol)

> <smiles>
C=c1c(=Cc2[nH]c(=O)[nH]c2O)cc(C)n1-c1cccc(C(=O)N2CCN(Cc3ccccc3C)CC2)c1

> <score_type>
oracle

> <origin>
adg

> <m_score__min__energy>
-14.58

> <m_primary>
energy

> <minimizedAffinity>
-10.53121

> <minimizedRMSD>
0.77075

> <CNNscore>
0.3991413414

> <CNNaffinity>
7.2371478081

> <CNN_VS>
2.8886449337

> <CNNaffinity_variance>
0.1966396123

$$$$
46:0


 26 28  0  0  0  0  0  0  0  0999 V2000
   59.7020   27.9759   48.0399 C   0  0  0  0  0  0  0  0  0  0  0  0
   59.1530   28.6580   47.0219 C   0  0  0  0  0  0  0  0  0  0  0  0
   58.5974   28.1316   45.8425 C   0  0  0  0  0  0  0  0  0  0  0  0
   58.6226   26.8831   45.3303 C   0  0  0  0  0  0  0  0  0  0  0  0
   57.9720   29.2198   45.2442 C   0  0  0  0  0  0  0  0  0  0  0  0
   57.2069   29.2244   43.9558 C   0  0  0  0  0  0  0  0  0  0  0  0
   58.1881   30.3198   45.9845 N   0  0  0  0  0  0  0  0  0  0  0  0
   58.9229   29.9992   47.0406 N   0  0  0  0  0  0  0  0  0  0  0  0
   57.8537   31.2219   45.7757 H   0  0  0  0  0  0  0  0  0  0  0  0
   57.8323   25.7390   45.8278 C   0  0  0  0  0  0  0  0  0  0  0  0
   56.4556   25.8773   46.0560 C   0  0  0  0  0  0  0  0  0  0  0  0
   55.8257   27.1025   45.8679 O   0  0  0  0  0  0  0  0  0  0  0  0
   55.7270   24.8091   46.4737 N   0  0  0  0  0  0  0  0  0  0  0  0
   56.3065   23.5960   46.6616 C   0  0  0  0  0  0  0  0  0  0  0  0
   55.6114   22.6233   47.0533 O   0  0  0  0  0  0  0  0  0  0  0  0
   57.6312   23.4291   46.4208 N   0  0  0  0  0  0  0  0  0  0  0  0
   58.4036   24.4656   46.0005 C   0  0  0  0  0  0  0  0  0  0  0  0
   59.6258   24.2690   45.7635 O   0  0  0  0  0  0  0  0  0  0  0  0
   59.2856   30.9583   48.0971 C   0  0  0  0  0  0  0  0  0  0  0  0
   60.5255   31.7370   47.7297 C   0  0  0  0  0  0  0  0  0  0  0  0
   61.7929   31.1987   48.0167 C   0  0  0  0  0  0  0  0  0  0  0  0
   62.9523   31.9133   47.7040 C   0  0  0  0  0  0  0  0  0  0  0  0
   62.8605   33.1719   47.1091 C   0  0  0  0  0  0  0  0  0  0  0  0
   61.6080   33.7211   46.8246 C   0  0  0  0  0  0  0  0  0  0  0  0
   60.4389   33.0148   47.1329 C   0  0  0  0  0  0  0  0  0  0  0  0
   58.7520   33.8375   46.7299 Br  0  0  0  0  0  0  0  0  0  0  0  0
  1  2  2  0
  2  3  1  0
  3  4  2  0
  4 10  1  0
 10 11  2  0
 11 12  1  0
 11 13  1  0
 13 14  1  0
 14 15  2  0
 14 16  1  0
 16 17  1  0
 17 18  2  0
  3  5  1  0
  5  6  1  0
  5  7  2  0
  7  8  1  0
  8 19  1  0
 19 20  1  0
 20 21  2  0
 21 22  1  0
 22 23  2  0
 23 24  1  0
 24 25  2  0
 25 26  1  0
  8  2  1  0
 25 20  1  0
 17 10  1  0
  7  9  1  0
M  CHG 1   7   1
M  CHG 1  12  -1
M  CHG 1  13  -1
M  CHG 1  16  -1
M  END
> <UniqueID>
43

> <SMILES>
C=c1/c(=C\c2c([O-])[n-]c(=O)[n-]c2=O)c(C)[nH+]n1Cc1ccccc1Br

> <Energy>
89.06373873417557

> <Genealogy>
C=c1c(=Cc2c([O-])[n-]c(=O)[n-]c2=O)c(C)[nH+]n1Cc1ccccc1Br (protonated)
C=c1/c(=C\c2c([O-])[n-]c(=O)[n-]c2=O)c(C)[nH+]n1Cc1ccccc1Br (cis-trans isomerization)
C=c1/c(=C\c2c([O-])[n-]c(=O)[n-]c2=O)c(C)[nH+]n1Cc1ccccc1Br (3D coordinates assigned)
C=c1/c(=C\c2c([O-])[n-]c(=O)[n-]c2=O)c(C)[nH+]n1Cc1ccccc1Br (optimized conformer: 89.06373873417557 kcal/mol)

> <smiles>
C=c1c(=Cc2c(O)[nH]c(=O)[nH]c2=O)c(C)nn1Cc1ccccc1Br

> <score_type>
oracle

> <origin>
adg

> <m_score__min__energy>
-14.76

> <m_primary>
energy

> <minimizedAffinity>
-8.09561

> <minimizedRMSD>
1.39423

> <CNNscore>
0.3235259056

> <CNNaffinity>
6.5693492889

> <CNN_VS>
2.1253547668

> <CNNaffinity_variance>
0.1512581259

$$$$
60:0


 24 26  0  0  0  0  0  0  0  0999 V2000
   57.9696   27.5699   45.9564 C   0  0  0  0  0  0  0  0  0  0  0  0
   59.3213   27.2052   45.8302 C   0  0  0  0  0  0  0  0  0  0  0  0
   60.2856   28.1740   45.5406 C   0  0  0  0  0  0  0  0  0  0  0  0
   59.9167   29.5130   45.3978 C   0  0  0  0  0  0  0  0  0  0  0  0
   58.5770   29.8982   45.5671 C   0  0  0  0  0  0  0  0  0  0  0  0
   57.6090   28.9184   45.8358 C   0  0  0  0  0  0  0  0  0  0  0  0
   58.1756   31.3105   45.4094 C   0  0  0  0  0  0  0  0  0  0  0  0
   57.0678   31.5713   44.8659 O   0  0  0  0  0  0  0  0  0  0  0  0
   59.0110   32.3894   45.8698 N   0  0  0  0  0  0  0  0  0  0  0  0
   58.8252   33.7634   45.4343 C   0  0  0  0  0  0  0  0  0  0  0  0
   59.6055   34.6225   46.4210 C   0  0  0  0  0  0  0  0  0  0  0  0
   60.5257   33.6675   47.1762 C   0  0  0  0  0  0  0  0  0  0  0  0
   59.9306   32.2780   46.9915 C   0  0  0  0  0  0  0  0  0  0  0  0
   56.9485   26.6110   46.2676 N   0  0  0  0  0  0  0  0  0  0  0  0
   57.5193   24.9671   47.8224 O   0  0  0  0  0  0  0  0  0  0  0  0
   57.1465   25.2419   46.6496 C   0  0  0  0  0  0  0  0  0  0  0  0
   56.9670   24.1598   45.6461 C   0  0  0  0  0  0  0  0  0  0  0  0
   58.0836   23.4484   45.1717 C   0  0  0  0  0  0  0  0  0  0  0  0
   57.9279   22.4326   44.2291 C   0  0  0  0  0  0  0  0  0  0  0  0
   56.6521   22.1265   43.7569 C   0  0  0  0  0  0  0  0  0  0  0  0
   56.4929   21.2139   42.9065 O   0  0  0  0  0  0  0  0  0  0  0  0
   55.5763   22.8187   44.2152 N   0  0  0  0  0  0  0  0  0  0  0  0
   55.6949   23.8141   45.1349 C   0  0  0  0  0  0  0  0  0  0  0  0
   54.5457   24.4757   45.5526 O   0  0  0  0  0  0  0  0  0  0  0  0
 15 16  2  0
 16 14  1  0
 14  1  1  0
  1  2  2  0
  2  3  1  0
  3  4  2  0
  4  5  1  0
  5  7  1  0
  7  8  2  0
  7  9  1  0
  9 10  1  0
 10 11  1  0
 11 12  1  0
 12 13  1  0
  5  6  2  0
 16 17  1  0
 17 18  1  0
 18 19  2  0
 19 20  1  0
 20 21  2  0
 20 22  1  0
 22 23  1  0
 23 24  1  0
  6  1  1  0
 23 17  2  0
 13  9  1  0
M  CHG 1  14  -1
M  CHG 1  22  -1
M  CHG 1  24  -1
M  END
> <UniqueID>
55

> <SMILES>
O=C([N-]c1cccc(C(=O)N2CCCC2)c1)c1ccc(=O)[n-]c1[O-]

> <Energy>
51.079620290060284

> <Genealogy>
O=C([N-]c1cccc(C(=O)N2CCCC2)c1)c1ccc(=O)[n-]c1[O-] (protonated)
O=C([N-]c1cccc(C(=O)N2CCCC2)c1)c1ccc(=O)[n-]c1[O-] (3D coordinates assigned)
O=C([N-]c1cccc(C(=O)N2CCCC2)c1)c1ccc(=O)[n-]c1[O-] (nonaromatic ring conformer: 51.079620290060284 kcal/mol)

> <smiles>
O=C(Nc1cccc(C(=O)N2CCCC2)c1)c1ccc(=O)[nH]c1O

> <score_type>
oracle

> <origin>
adg

> <m_score__min__energy>
-15.859999999999999

> <m_primary>
energy

> <minimizedAffinity>
-8.52186

> <minimizedRMSD>
1.96380

> <CNNscore>
0.5810705423

> <CNNaffinity>
6.6174602509

> <CNN_VS>
3.8452112675

> <CNNaffinity_variance>
0.5378846526

$$$$
68:0


 35 38  0  0  0  0  0  0  0  0999 V2000
   58.4537   31.1496   45.5068 C   0  0  0  0  0  0  0  0  0  0  0  0
   58.2052   31.8322   44.3099 C   0  0  0  0  0  0  0  0  0  0  0  0
   58.0448   33.2161   44.3174 C   0  0  0  0  0  0  0  0  0  0  0  0
   58.1304   33.9073   45.5272 C   0  0  0  0  0  0  0  0  0  0  0  0
   58.3703   33.2366   46.6867 N   0  0  0  0  0  0  0  0  0  0  0  0
   58.5306   31.8784   46.7055 C   0  0  0  0  0  0  0  0  0  0  0  0
   58.4299   33.7402   47.5306 H   0  0  0  0  0  0  0  0  0  0  0  0
   56.4586   29.0994   44.7070 C   0  0  0  0  0  0  0  0  0  0  0  0
   57.7188   28.7952   45.0606 C   0  0  0  0  0  0  0  0  0  0  0  0
   58.2883   27.5159   45.1582 C   0  0  0  0  0  0  0  0  0  0  0  0
   57.8335   26.3136   44.7533 C   0  0  0  0  0  0  0  0  0  0  0  0
   59.5281   27.6876   45.7537 C   0  0  0  0  0  0  0  0  0  0  0  0
   59.7024   29.0443   45.9293 C   0  0  0  0  0  0  0  0  0  0  0  0
   60.9430   29.6802   46.4793 C   0  0  0  0  0  0  0  0  0  0  0  0
   58.6075   29.7181   45.5115 N   0  0  0  0  0  0  0  0  0  0  0  0
   57.3520   25.2387   45.6453 C   0  0  0  0  0  0  0  0  0  0  0  0
   56.0969   25.3399   46.2611 C   0  0  0  0  0  0  0  0  0  0  0  0
   55.2694   26.4283   46.0072 O   0  0  0  0  0  0  0  0  0  0  0  0
   55.6782   24.3647   47.1094 N   0  0  0  0  0  0  0  0  0  0  0  0
   56.4611   23.2913   47.3857 C   0  0  0  0  0  0  0  0  0  0  0  0
   56.0483   22.3979   48.1698 O   0  0  0  0  0  0  0  0  0  0  0  0
   57.6926   23.1829   46.8233 N   0  0  0  0  0  0  0  0  0  0  0  0
   58.1589   24.1318   45.9709 C   0  0  0  0  0  0  0  0  0  0  0  0
   59.3155   24.0136   45.4874 O   0  0  0  0  0  0  0  0  0  0  0  0
   58.7684   31.1802   47.8966 O   0  0  0  0  0  0  0  0  0  0  0  0
   59.0681   31.7848   49.1496 C   0  0  0  0  0  0  0  0  0  0  0  0
   60.5670   31.8703   49.3027 C   0  0  0  0  0  0  0  0  0  0  0  0
   61.2490   32.9014   48.6308 C   0  0  0  0  0  0  0  0  0  0  0  0
   62.6367   33.0055   48.7036 C   0  0  0  0  0  0  0  0  0  0  0  0
   63.3681   32.0792   49.4414 C   0  0  0  0  0  0  0  0  0  0  0  0
   62.7156   31.0437   50.1089 C   0  0  0  0  0  0  0  0  0  0  0  0
   61.3104   30.9182   50.0603 C   0  0  0  0  0  0  0  0  0  0  0  0
   60.6481   29.7409   50.7751 C   0  0  0  0  0  0  0  0  0  0  0  0
   60.6498   28.4943   49.8833 C   0  0  0  0  0  0  0  0  0  0  0  0
   61.3156   29.4542   52.1259 C   0  0  0  0  0  0  0  0  0  0  0  0
  8  9  2  0
  9 10  1  0
 10 11  2  0
 11 16  1  0
 16 17  2  0
 17 18  1  0
 17 19  1  0
 19 20  1  0
 20 21  2  0
 20 22  1  0
 22 23  1  0
 23 24  2  0
 10 12  1  0
 12 13  2  0
 13 14  1  0
 13 15  1  0
 15  1  1  0
  1  2  2  0
  2  3  1  0
  3  4  2  0
  4  5  1  0
  5  6  2  0
  6 25  1  0
 25 26  1  0
 26 27  1  0
 27 28  2  0
 28 29  1  0
 29 30  2  0
 30 31  1  0
 31 32  2  0
 32 33  1  0
 33 34  1  0
 33 35  1  0
 15  9  1  0
  6  1  1  0
 32 27  1  0
 23 16  1  0
  5  7  1  0
M  CHG 1   5   1
M  CHG 1  18  -1
M  CHG 1  19  -1
M  CHG 1  22  -1
M  END
> <UniqueID>
62

> <SMILES>
C=c1c(=Cc2c([O-])[n-]c(=O)[n-]c2=O)cc(C)n1-c1ccc[nH+]c1OCc1ccccc1C(C)C

> <Energy>
104.2826242702725

> <Genealogy>
C=c1c(=Cc2c([O-])[n-]c(=O)[n-]c2=O)cc(C)n1-c1ccc[nH+]c1OCc1ccccc1C(C)C (protonated)
C=c1c(=Cc2c([O-])[n-]c(=O)[n-]c2=O)cc(C)n1-c1ccc[nH+]c1OCc1ccccc1C(C)C (3D coordinates assigned)
C=c1c(=Cc2c([O-])[n-]c(=O)[n-]c2=O)cc(C)n1-c1ccc[nH+]c1OCc1ccccc1C(C)C (optimized conformer: 104.2826242702725 kcal/mol)

> <smiles>
C=c1c(=Cc2c(O)[nH]c(=O)[nH]c2=O)cc(C)n1-c1cccnc1OCc1ccccc1C(C)C

> <score_type>
oracle

> <origin>
adg

> <m_score__min__energy>
-15.41

> <m_primary>
energy

> <minimizedAffinity>
-8.26167

> <minimizedRMSD>
0.95402

> <CNNscore>
0.2832024395

> <CNNaffinity>
7.1094603539

> <CNN_VS>
2.0134165287

> <CNNaffinity_variance>
0.1609512568

$$$$
77:0


 31 33  0  0  0  0  0  0  0  0999 V2000
   58.6116   32.4300   46.2143 C   0  0  0  0  0  0  0  0  0  0  0  0
   58.3066   33.1353   45.0371 C   0  0  0  0  0  0  0  0  0  0  0  0
   57.9299   32.4527   43.8800 C   0  0  0  0  0  0  0  0  0  0  0  0
   57.8539   31.0598   43.8772 C   0  0  0  0  0  0  0  0  0  0  0  0
   58.1598   30.3273   45.0388 C   0  0  0  0  0  0  0  0  0  0  0  0
   58.5303   31.0239   46.2044 C   0  0  0  0  0  0  0  0  0  0  0  0
   59.0093   33.1542   47.4460 C   0  0  0  0  0  0  0  0  0  0  0  0
   58.3190   33.0262   48.4935 O   0  0  0  0  0  0  0  0  0  0  0  0
   65.0335   32.8312   50.1133 C   0  0  0  0  0  0  0  0  0  0  0  0
   63.7681   33.1297   49.3637 C   0  0  0  0  0  0  0  0  0  0  0  0
   63.5307   32.5514   48.1137 C   0  0  0  0  0  0  0  0  0  0  0  0
   62.3352   32.8035   47.4367 C   0  0  0  0  0  0  0  0  0  0  0  0
   61.3676   33.6448   48.0276 C   0  0  0  0  0  0  0  0  0  0  0  0
   60.2247   33.9232   47.4629 N   0  0  0  0  0  0  0  0  0  0  0  0
   61.6150   34.1628   49.2619 N   0  0  0  0  0  0  0  0  0  0  0  0
   62.7704   33.9275   49.9357 C   0  0  0  0  0  0  0  0  0  0  0  0
   58.0795   28.8429   45.0576 C   0  0  0  0  0  0  0  0  0  0  0  0
   56.9474   28.2897   45.1259 O   0  0  0  0  0  0  0  0  0  0  0  0
   59.3132   27.9841   44.9356 C   0  0  0  0  0  0  0  0  0  0  0  0
   59.6699   27.3452   46.2437 C   0  0  0  0  0  0  0  0  0  0  0  0
   59.9915   28.0730   47.2204 O   0  0  0  0  0  0  0  0  0  0  0  0
   59.5957   25.9164   46.3640 N   0  0  0  0  0  0  0  0  0  0  0  0
   58.6833   25.1109   45.9006 C   0  0  0  0  0  0  0  0  0  0  0  0
   57.3443   25.3273   45.9376 N   0  0  0  0  0  0  0  0  0  0  0  0
   56.6461   24.2890   45.3981 C   0  0  0  0  0  0  0  0  0  0  0  0
   57.4306   23.2342   44.9338 C   0  0  0  0  0  0  0  0  0  0  0  0
   59.0435   23.6229   45.2158 S   0  0  0  0  0  0  0  0  0  0  0  0
   56.9271   26.1376   46.3097 H   0  0  0  0  0  0  0  0  0  0  0  0
   55.1739   24.2800   45.3219 C   0  0  0  0  0  0  0  0  0  0  0  0
   54.5741   23.3356   44.7431 O   0  0  0  0  0  0  0  0  0  0  0  0
   54.4372   25.3114   45.8896 O   0  0  0  0  0  0  0  0  0  0  0  0
  9 10  1  0
 10 11  1  0
 11 12  2  0
 12 13  1  0
 13 14  2  0
 14  7  1  0
  7  8  2  0
  7  1  1  0
  1  2  2  0
  2  3  1  0
  3  4  2  0
  4  5  1  0
  5 17  1  0
 17 18  2  0
 17 19  1  0
 19 20  1  0
 20 21  2  0
 20 22  1  0
 22 23  2  0
 23 24  1  0
 24 25  1  0
 25 29  1  0
 29 30  2  0
 29 31  1  0
 25 26  2  0
 26 27  1  0
  5  6  2  0
 13 15  1  0
 15 16  1  0
 16 10  2  0
  6  1  1  0
 27 23  1  0
 24 28  1  0
M  CHG 1  15  -1
M  CHG 1  31  -1
M  END
> <UniqueID>
70

> <SMILES>
Cc1ccc(=NC(=O)c2cccc(C(=O)CC(=O)N=c3[nH]c(C(=O)[O-])cs3)c2)[n-]c1

> <Energy>
90.45594487141335

> <Genealogy>
Cc1ccc(=NC(=O)c2cccc(C(=O)CC(=O)N=c3[nH]c(C(=O)[O-])cs3)c2)[n-]c1 (protonated)
Cc1ccc(=NC(=O)c2cccc(C(=O)CC(=O)N=c3[nH]c(C(=O)[O-])cs3)c2)[n-]c1 (3D coordinates assigned)
Cc1ccc(=NC(=O)c2cccc(C(=O)CC(=O)N=c3[nH]c(C(=O)[O-])cs3)c2)[n-]c1 (optimized conformer: 90.45594487141335 kcal/mol)

> <smiles>
Cc1ccc(=NC(=O)c2cccc(C(=O)CC(=O)N=c3[nH]c(C(=O)O)cs3)c2)[nH]c1

> <score_type>
oracle

> <origin>
adg

> <m_score__min__energy>
-14.17

> <m_primary>
energy

> <minimizedAffinity>
-8.35441

> <minimizedRMSD>
1.52662

> <CNNscore>
0.4766256511

> <CNNaffinity>
6.7295703888

> <CNN_VS>
3.2074859142

> <CNNaffinity_variance>
0.0212606192

$$$$
90:0


 28 31  0  0  0  0  0  0  0  0999 V2000
   60.3582   29.4628   47.4809 C   0  0  0  0  0  0  0  0  0  0  0  0
   59.7189   30.2469   46.5977 C   0  0  0  0  0  0  0  0  0  0  0  0
   59.1507   29.8370   45.3878 C   0  0  0  0  0  0  0  0  0  0  0  0
   59.1406   28.5947   44.8653 C   0  0  0  0  0  0  0  0  0  0  0  0
   58.5423   30.9582   44.8404 C   0  0  0  0  0  0  0  0  0  0  0  0
   58.7742   32.0008   45.7159 C   0  0  0  0  0  0  0  0  0  0  0  0
   58.2761   33.4007   45.5243 C   0  0  0  0  0  0  0  0  0  0  0  0
   59.4887   31.5736   46.7811 N   0  0  0  0  0  0  0  0  0  0  0  0
   58.5964   27.4143   45.5762 C   0  0  0  0  0  0  0  0  0  0  0  0
   57.2094   27.2684   45.7324 C   0  0  0  0  0  0  0  0  0  0  0  0
   56.3336   28.2039   45.1960 O   0  0  0  0  0  0  0  0  0  0  0  0
   56.7125   26.1987   46.4058 N   0  0  0  0  0  0  0  0  0  0  0  0
   57.5361   25.2666   46.9474 C   0  0  0  0  0  0  0  0  0  0  0  0
   57.0513   24.2811   47.5618 O   0  0  0  0  0  0  0  0  0  0  0  0
   58.8823   25.3978   46.8328 N   0  0  0  0  0  0  0  0  0  0  0  0
   59.4303   26.4501   46.1722 C   0  0  0  0  0  0  0  0  0  0  0  0
   60.6841   26.5577   46.1163 O   0  0  0  0  0  0  0  0  0  0  0  0
   59.9111   32.3963   47.8833 C   0  0  0  0  0  0  0  0  0  0  0  0
   60.8802   33.3303   47.6967 N   0  0  0  0  0  0  0  0  0  0  0  0
   61.3144   34.1051   48.7241 C   0  0  0  0  0  0  0  0  0  0  0  0
   60.7861   33.9487   49.9637 N   0  0  0  0  0  0  0  0  0  0  0  0
   59.8220   33.0205   50.2138 C   0  0  0  0  0  0  0  0  0  0  0  0
   59.3665   32.2122   49.1601 C   0  0  0  0  0  0  0  0  0  0  0  0
   59.2924   32.8853   51.5467 N   0  0  0  0  0  0  0  0  0  0  0  0
   58.0588   32.1730   51.8343 C   0  0  0  0  0  0  0  0  0  0  0  0
   57.9593   32.1162   53.3534 C   0  0  0  0  0  0  0  0  0  0  0  0
   58.9311   33.1696   53.8750 C   0  0  0  0  0  0  0  0  0  0  0  0
   59.9151   33.4295   52.7425 C   0  0  0  0  0  0  0  0  0  0  0  0
  1  2  2  0
  2  3  1  0
  3  4  2  0
  4  9  1  0
  9 10  2  0
 10 11  1  0
 10 12  1  0
 12 13  1  0
 13 14  2  0
 13 15  1  0
 15 16  1  0
 16 17  2  0
  3  5  1  0
  5  6  2  0
  6  7  1  0
  6  8  1  0
  8 18  1  0
 18 19  2  0
 19 20  1  0
 20 21  2  0
 21 22  1  0
 22 24  1  0
 24 25  1  0
 25 26  1  0
 26 27  1  0
 27 28  1  0
 22 23  2  0
  8  2  1  0
 23 18  1  0
 16  9  1  0
 28 24  1  0
M  CHG 1  11  -1
M  CHG 1  12  -1
M  CHG 1  15  -1
M  END
> <UniqueID>
81

> <SMILES>
C=c1/c(=C/c2c([O-])[n-]c(=O)[n-]c2=O)cc(C)n1-c1cc(N2CCCC2)ncn1

> <Energy>
93.94345336757452

> <Genealogy>
C=c1c(=Cc2c([O-])[n-]c(=O)[n-]c2=O)cc(C)n1-c1cc(N2CCCC2)ncn1 (protonated)
C=c1/c(=C/c2c([O-])[n-]c(=O)[n-]c2=O)cc(C)n1-c1cc(N2CCCC2)ncn1 (cis-trans isomerization)
C=c1/c(=C/c2c([O-])[n-]c(=O)[n-]c2=O)cc(C)n1-c1cc(N2CCCC2)ncn1 (3D coordinates assigned)
C=c1/c(=C/c2c([O-])[n-]c(=O)[n-]c2=O)cc(C)n1-c1cc(N2CCCC2)ncn1 (nonaromatic ring conformer: 93.94345336757452 kcal/mol)

> <smiles>
C=c1c(=Cc2c(O)[nH]c(=O)[nH]c2=O)cc(C)n1-c1cc(N2CCCC2)ncn1

> <score_type>
oracle

> <origin>
adg

> <m_score__min__energy>
-15.789999999999999

> <m_primary>
energy

> <minimizedAffinity>
-7.54647

> <minimizedRMSD>
1.24017

> <CNNscore>
0.2809042931

> <CNNaffinity>
6.8079400063

> <CNN_VS>
1.9123796225

> <CNNaffinity_variance>
0.2633648217

$$$$
9:0


 28 31  0  0  0  0  0  0  0  0999 V2000
   60.0825   28.9515   47.4683 C   0  0  0  0  0  0  0  0  0  0  0  0
   59.2633   29.0035   46.4047 C   0  0  0  0  0  0  0  0  0  0  0  0
   58.9383   27.9414   45.5448 C   0  0  0  0  0  0  0  0  0  0  0  0
   59.1229   26.6118   45.6717 C   0  0  0  0  0  0  0  0  0  0  0  0
   58.3234   28.5093   44.4424 C   0  0  0  0  0  0  0  0  0  0  0  0
   58.2197   29.8617   44.6947 C   0  0  0  0  0  0  0  0  0  0  0  0
   57.5750   30.8452   43.7654 C   0  0  0  0  0  0  0  0  0  0  0  0
   58.7851   30.1646   45.8857 N   0  0  0  0  0  0  0  0  0  0  0  0
   58.0892   25.6354   46.0552 C   0  0  0  0  0  0  0  0  0  0  0  0
   58.3349   24.3761   46.4602 N   0  0  0  0  0  0  0  0  0  0  0  0
   57.1170   23.9241   46.8281 C   0  0  0  0  0  0  0  0  0  0  0  0
   56.9285   22.7562   47.2586 O   0  0  0  0  0  0  0  0  0  0  0  0
   56.1182   24.8255   46.7093 N   0  0  0  0  0  0  0  0  0  0  0  0
   56.7553   25.9066   46.2326 C   0  0  0  0  0  0  0  0  0  0  0  0
   56.1302   27.1183   45.9695 O   0  0  0  0  0  0  0  0  0  0  0  0
   58.8715   31.4791   46.4657 C   0  0  0  0  0  0  0  0  0  0  0  0
   57.8924   32.4545   46.4618 C   0  0  0  0  0  0  0  0  0  0  0  0
   58.3664   33.5446   47.0971 N   0  0  0  0  0  0  0  0  0  0  0  0
   59.6066   33.2799   47.4827 N   0  0  0  0  0  0  0  0  0  0  0  0
   59.9515   32.0290   47.1198 C   0  0  0  0  0  0  0  0  0  0  0  0
   60.4268   34.2019   48.2594 C   0  0  0  0  0  0  0  0  0  0  0  0
   61.5059   33.4455   48.9781 C   0  0  0  0  0  0  0  0  0  0  0  0
   62.7621   33.1016   48.5130 C   0  0  0  0  0  0  0  0  0  0  0  0
   63.3443   33.4235   47.1749 C   0  0  0  0  0  0  0  0  0  0  0  0
   63.3757   32.3199   49.4252 N   0  0  0  0  0  0  0  0  0  0  0  0
   62.5517   32.1789   50.4241 O   0  0  0  0  0  0  0  0  0  0  0  0
   61.4267   32.8187   50.2059 C   0  0  0  0  0  0  0  0  0  0  0  0
   60.2684   32.8290   51.1474 C   0  0  0  0  0  0  0  0  0  0  0  0
  1  2  2  0
  2  3  1  0
  3  4  2  0
  4  9  1  0
  9 10  1  0
 10 11  1  0
 11 12  2  0
 11 13  1  0
 13 14  1  0
 14 15  1  0
  3  5  1  0
  5  6  2  0
  6  7  1  0
  6  8  1  0
  8 16  1  0
 16 17  1  0
 17 18  2  0
 18 19  1  0
 19 21  1  0
 21 22  1  0
 22 23  1  0
 23 24  1  0
 23 25  2  0
 25 26  1  0
 26 27  1  0
 27 28  1  0
 19 20  1  0
  8  2  1  0
 20 16  2  0
 14  9  2  0
 27 22  2  0
M  CHG 1  10  -1
M  CHG 1  13  -1
M  CHG 1  15  -1
M  END
> <UniqueID>
9

> <SMILES>
C=c1/c(=C\c2[n-]c(=O)[n-]c2[O-])cc(C)n1-c1cnn(Cc2c(C)noc2C)c1

> <Energy>
179.4266877601258

> <Genealogy>
C=c1c(=Cc2[n-]c(=O)[n-]c2[O-])cc(C)n1-c1cnn(Cc2c(C)noc2C)c1 (protonated)
C=c1/c(=C\c2[n-]c(=O)[n-]c2[O-])cc(C)n1-c1cnn(Cc2c(C)noc2C)c1 (cis-trans isomerization)
C=c1/c(=C\c2[n-]c(=O)[n-]c2[O-])cc(C)n1-c1cnn(Cc2c(C)noc2C)c1 (3D coordinates assigned)
C=c1/c(=C\c2[n-]c(=O)[n-]c2[O-])cc(C)n1-c1cnn(Cc2c(C)noc2C)c1 (optimized conformer: 179.4266877601258 kcal/mol)

> <smiles>
C=c1c(=Cc2[nH]c(=O)[nH]c2O)cc(C)n1-c1cnn(Cc2c(C)noc2C)c1

> <score_type>
oracle

> <origin>
adg

> <m_score__min__energy>
-16.190000000000001

> <m_primary>
energy

> <minimizedAffinity>
-8.02031

> <minimizedRMSD>
1.32190

> <CNNscore>
0.2928532362

> <CNNaffinity>
6.8891830444

> <CNN_VS>
2.0175194740

> <CNNaffinity_variance>
0.0539196096

$$$$
11:0


 29 32  0  0  0  0  0  0  0  0999 V2000
   59.4853   27.9141   47.1022 C   0  0  0  0  0  0  0  0  0  0  0  0
   58.8510   28.3467   46.0006 C   0  0  0  0  0  0  0  0  0  0  0  0
   58.3904   27.5686   44.9264 C   0  0  0  0  0  0  0  0  0  0  0  0
   58.2659   26.2338   44.7898 C   0  0  0  0  0  0  0  0  0  0  0  0
   58.0326   28.4611   43.9275 C   0  0  0  0  0  0  0  0  0  0  0  0
   58.2112   29.7280   44.4409 C   0  0  0  0  0  0  0  0  0  0  0  0
   57.9194   30.9960   43.6956 C   0  0  0  0  0  0  0  0  0  0  0  0
   58.7116   29.6611   45.6950 N   0  0  0  0  0  0  0  0  0  0  0  0
   57.5263   25.3474   45.7032 C   0  0  0  0  0  0  0  0  0  0  0  0
   58.0142   24.2232   46.2582 N   0  0  0  0  0  0  0  0  0  0  0  0
   57.0601   23.8313   47.1249 C   0  0  0  0  0  0  0  0  0  0  0  0
   57.1599   22.7967   47.8351 O   0  0  0  0  0  0  0  0  0  0  0  0
   55.9898   24.6543   47.1766 N   0  0  0  0  0  0  0  0  0  0  0  0
   56.3081   25.6124   46.2849 C   0  0  0  0  0  0  0  0  0  0  0  0
   55.5031   26.7127   46.0143 O   0  0  0  0  0  0  0  0  0  0  0  0
   58.8760   23.7848   46.0726 H   0  0  0  0  0  0  0  0  0  0  0  0
   59.0513   30.7853   46.5256 C   0  0  0  0  0  0  0  0  0  0  0  0
   60.2029   30.7388   47.3230 C   0  0  0  0  0  0  0  0  0  0  0  0
   60.5487   31.8239   48.1476 C   0  0  0  0  0  0  0  0  0  0  0  0
   59.7323   32.9701   48.1434 C   0  0  0  0  0  0  0  0  0  0  0  0
   58.5873   33.0183   47.3442 C   0  0  0  0  0  0  0  0  0  0  0  0
   58.2432   31.9315   46.5381 C   0  0  0  0  0  0  0  0  0  0  0  0
   57.1462   32.0073   45.7448 F   0  0  0  0  0  0  0  0  0  0  0  0
   61.7432   31.7728   48.9536 N   0  0  0  0  0  0  0  0  0  0  0  0
   61.8162   31.1939   50.2866 C   0  0  0  0  0  0  0  0  0  0  0  0
   63.3118   31.1451   50.6499 C   0  0  0  0  0  0  0  0  0  0  0  0
   64.0536   32.0042   49.6154 C   0  0  0  0  0  0  0  0  0  0  0  0
   63.0201   32.2790   48.5991 C   0  0  0  0  0  0  0  0  0  0  0  0
   63.2347   32.9565   47.5586 O   0  0  0  0  0  0  0  0  0  0  0  0
  1  2  2  0
  2  3  1  0
  3  4  2  0
  4  9  1  0
  9 10  1  0
 10 11  1  0
 11 12  2  0
 11 13  1  0
 13 14  1  0
 14 15  1  0
  3  5  1  0
  5  6  2  0
  6  7  1  0
  6  8  1  0
  8 17  1  0
 17 18  2  0
 18 19  1  0
 19 24  1  0
 24 25  1  0
 25 26  1  0
 26 27  1  0
 27 28  1  0
 28 29  2  0
 19 20  2  0
 20 21  1  0
 21 22  2  0
 22 23  1  0
  8  2  1  0
 22 17  1  0
 14  9  2  0
 28 24  1  0
 10 16  1  0
M  CHG 1  13  -1
M  CHG 1  15  -1
M  END
> <UniqueID>
11

> <SMILES>
C=c1c(=Cc2[nH]c(=O)[n-]c2[O-])cc(C)n1-c1cc(N2CCCC2=O)ccc1F

> <Energy>
134.8629322807628

> <Genealogy>
C=c1c(=Cc2[nH]c(=O)[n-]c2[O-])cc(C)n1-c1cc(N2CCCC2=O)ccc1F (protonated)
C=c1c(=Cc2[nH]c(=O)[n-]c2[O-])cc(C)n1-c1cc(N2CCCC2=O)ccc1F (3D coordinates assigned)
C=c1c(=Cc2[nH]c(=O)[n-]c2[O-])cc(C)n1-c1cc(N2CCCC2=O)ccc1F (nonaromatic ring conformer: 134.8629322807628 kcal/mol)

> <smiles>
C=c1c(=Cc2[nH]c(=O)[nH]c2O)cc(C)n1-c1cc(N2CCCC2=O)ccc1F

> <score_type>
oracle

> <origin>
adg

> <m_score__min__energy>
-14.48

> <m_primary>
energy

> <minimizedAffinity>
-7.54715

> <minimizedRMSD>
1.10014

> <CNNscore>
0.0976235569

> <CNNaffinity>
6.5844635963

> <CNN_VS>
0.6427987814

> <CNNaffinity_variance>
0.1268219203

$$$$
27:0


 35 39  0  0  0  0  0  0  0  0999 V2000
   59.5881   29.7587   47.1497 C   0  0  0  0  0  0  0  0  0  0  0  0
   58.9040   30.0881   48.3291 C   0  0  0  0  0  0  0  0  0  0  0  0
   59.4756   30.9680   49.2521 C   0  0  0  0  0  0  0  0  0  0  0  0
   60.7427   31.5236   49.0134 C   0  0  0  0  0  0  0  0  0  0  0  0
   61.4183   31.2052   47.8238 C   0  0  0  0  0  0  0  0  0  0  0  0
   60.8461   30.3234   46.9027 C   0  0  0  0  0  0  0  0  0  0  0  0
   59.7318   26.7957   47.1296 C   0  0  0  0  0  0  0  0  0  0  0  0
   59.0121   27.4970   46.2394 C   0  0  0  0  0  0  0  0  0  0  0  0
   58.3252   26.9916   45.1244 C   0  0  0  0  0  0  0  0  0  0  0  0
   58.0067   25.7286   44.7808 C   0  0  0  0  0  0  0  0  0  0  0  0
   57.9677   28.0903   44.3589 C   0  0  0  0  0  0  0  0  0  0  0  0
   58.3685   29.2107   45.0562 C   0  0  0  0  0  0  0  0  0  0  0  0
   58.1489   30.6207   44.5980 C   0  0  0  0  0  0  0  0  0  0  0  0
   59.0013   28.8540   46.1968 N   0  0  0  0  0  0  0  0  0  0  0  0
   57.3154   24.7555   45.6421 C   0  0  0  0  0  0  0  0  0  0  0  0
   57.8592   23.6102   46.0938 N   0  0  0  0  0  0  0  0  0  0  0  0
   56.9267   23.1386   46.9498 C   0  0  0  0  0  0  0  0  0  0  0  0
   57.0674   22.0551   47.5750 O   0  0  0  0  0  0  0  0  0  0  0  0
   55.8389   23.9251   47.0917 N   0  0  0  0  0  0  0  0  0  0  0  0
   56.1087   24.9506   46.2680 C   0  0  0  0  0  0  0  0  0  0  0  0
   55.2709   26.0450   46.0946 O   0  0  0  0  0  0  0  0  0  0  0  0
   61.3453   32.4671   49.9785 C   0  0  0  0  0  0  0  0  0  0  0  0
   61.6574   33.6250   49.5856 O   0  0  0  0  0  0  0  0  0  0  0  0
   61.6084   32.0827   51.3429 N   0  0  0  0  0  0  0  0  0  0  0  0
   62.0568   30.7164   51.6570 C   0  0  0  0  0  0  0  0  0  0  0  0
   62.8752   30.6717   52.9563 C   0  0  0  0  0  0  0  0  0  0  0  0
   63.7823   31.9100   53.1127 C   0  0  0  0  0  0  0  0  0  0  0  0
   62.9769   33.2377   53.0519 C   0  0  0  0  0  0  0  0  0  0  0  0
   61.5875   33.0896   52.4107 C   0  0  0  0  0  0  0  0  0  0  0  0
   64.9048   31.8652   52.1534 N   0  0  0  0  0  0  0  0  0  0  0  0
   65.2648   32.9599   51.3279 C   0  0  0  0  0  0  0  0  0  0  0  0
   64.5790   34.0133   51.2450 O   0  0  0  0  0  0  0  0  0  0  0  0
   66.5268   32.7558   50.5935 C   0  0  0  0  0  0  0  0  0  0  0  0
   66.9229   31.3216   50.9656 C   0  0  0  0  0  0  0  0  0  0  0  0
   65.9429   30.8412   52.0538 C   0  0  0  0  0  0  0  0  0  0  0  0
  7  8  2  0
  8  9  1  0
  9 10  2  0
 10 15  1  0
 15 16  1  0
 16 17  1  0
 17 18  2  0
 17 19  1  0
 19 20  1  0
 20 21  1  0
  9 11  1  0
 11 12  2  0
 12 13  1  0
 12 14  1  0
 14  1  1  0
  1  2  2  0
  2  3  1  0
  3  4  2  0
  4 22  1  0
 22 23  2  0
 22 24  1  0
 24 25  1  0
 25 26  1  0
 26 27  1  0
 27 30  1  0
 30 31  1  0
 31 32  2  0
 31 33  1  0
 33 34  1  0
 34 35  1  0
 27 28  1  0
 28 29  1  0
  4  5  1  0
  5  6  2  0
 14  8  1  0
  6  1  1  0
 20 15  2  0
 29 24  1  0
 35 30  1  0
M  CHG 1  16  -1
M  CHG 1  19  -1
M  CHG 1  21  -1
M  END
> <UniqueID>
25

> <SMILES>
C=c1/c(=C\c2[n-]c(=O)[n-]c2[O-])cc(C)n1-c1ccc(C(=O)N2CCC(N3CCCC3=O)CC2)cc1

> <Energy>
154.94957648668827

> <Genealogy>
C=c1c(=Cc2[n-]c(=O)[n-]c2[O-])cc(C)n1-c1ccc(C(=O)N2CCC(N3CCCC3=O)CC2)cc1 (protonated)
C=c1/c(=C\c2[n-]c(=O)[n-]c2[O-])cc(C)n1-c1ccc(C(=O)N2CCC(N3CCCC3=O)CC2)cc1 (cis-trans isomerization)
C=c1/c(=C\c2[n-]c(=O)[n-]c2[O-])cc(C)n1-c1ccc(C(=O)N2CCC(N3CCCC3=O)CC2)cc1 (3D coordinates assigned)
C=c1/c(=C\c2[n-]c(=O)[n-]c2[O-])cc(C)n1-c1ccc(C(=O)N2CCC(N3CCCC3=O)CC2)cc1 (nonaromatic ring conformer: 154.94957648668827 kcal/mol)

> <smiles>
C=c1c(=Cc2[nH]c(=O)[nH]c2O)cc(C)n1-c1ccc(C(=O)N2CCC(N3CCCC3=O)CC2)cc1

> <score_type>
oracle

> <origin>
adg

> <m_score__min__energy>
-16.02

> <m_primary>
energy

> <minimizedAffinity>
-9.30355

> <minimizedRMSD>
1.47685

> <CNNscore>
0.1957933754

> <CNNaffinity>
6.6743226051

> <CNN_VS>
1.3067882061

> <CNNaffinity_variance>
0.0261898059

$$$$
56:0


 36 39  0  0  0  0  0  0  0  0999 V2000
   59.3985   30.2881   47.3472 C   0  0  0  0  0  0  0  0  0  0  0  0
   60.4848   29.8321   48.1078 C   0  0  0  0  0  0  0  0  0  0  0  0
   61.0474   30.6487   49.0939 C   0  0  0  0  0  0  0  0  0  0  0  0
   60.5309   31.9323   49.3297 C   0  0  0  0  0  0  0  0  0  0  0  0
   59.4119   32.3659   48.6015 C   0  0  0  0  0  0  0  0  0  0  0  0
   58.8579   31.5532   47.6096 C   0  0  0  0  0  0  0  0  0  0  0  0
   61.1612   32.7984   50.3465 C   0  0  0  0  0  0  0  0  0  0  0  0
   60.4303   33.2556   51.2670 O   0  0  0  0  0  0  0  0  0  0  0  0
   62.5851   33.0649   50.3503 N   0  0  0  0  0  0  0  0  0  0  0  0
   63.1907   33.8958   51.4024 C   0  0  0  0  0  0  0  0  0  0  0  0
   64.2795   33.0858   52.1107 C   0  0  0  0  0  0  0  0  0  0  0  0
   65.2540   32.5372   51.1502 N   0  0  0  0  0  0  0  0  0  0  0  0
   66.6300   32.2962   51.5290 C   0  0  0  0  0  0  0  0  0  0  0  0
   67.5461   32.6856   50.7531 O   0  0  0  0  0  0  0  0  0  0  0  0
   64.9617   32.6269   49.7084 C   0  0  0  0  0  0  0  0  0  0  0  0
   63.4788   32.3624   49.4116 C   0  0  0  0  0  0  0  0  0  0  0  0
   67.0627   31.5324   52.7269 C   0  0  0  0  0  0  0  0  0  0  0  0
   67.0567   30.2056   52.8779 C   0  0  0  0  0  0  0  0  0  0  0  0
   66.5321   29.3034   51.7934 C   0  0  0  0  0  0  0  0  0  0  0  0
   67.5732   28.5260   51.2279 O   0  0  0  0  0  0  0  0  0  0  0  0
   67.1646   27.1819   51.1025 C   0  0  0  0  0  0  0  0  0  0  0  0
   58.9972   27.3557   47.3795 C   0  0  0  0  0  0  0  0  0  0  0  0
   58.7238   28.1133   46.3058 C   0  0  0  0  0  0  0  0  0  0  0  0
   58.1063   27.7002   45.1125 C   0  0  0  0  0  0  0  0  0  0  0  0
   57.8312   26.4696   44.6397 C   0  0  0  0  0  0  0  0  0  0  0  0
   57.7923   28.8590   44.4194 C   0  0  0  0  0  0  0  0  0  0  0  0
   58.2817   29.9160   45.1590 C   0  0  0  0  0  0  0  0  0  0  0  0
   58.1529   31.3578   44.7749 C   0  0  0  0  0  0  0  0  0  0  0  0
   58.8484   29.4660   46.3013 N   0  0  0  0  0  0  0  0  0  0  0  0
   57.4430   25.3033   45.4535 C   0  0  0  0  0  0  0  0  0  0  0  0
   58.1540   24.1639   45.5446 N   0  0  0  0  0  0  0  0  0  0  0  0
   57.3456   23.3460   46.2524 C   0  0  0  0  0  0  0  0  0  0  0  0
   57.6743   22.1716   46.5618 O   0  0  0  0  0  0  0  0  0  0  0  0
   56.1517   23.8822   46.5879 N   0  0  0  0  0  0  0  0  0  0  0  0
   56.2256   25.1167   46.0638 C   0  0  0  0  0  0  0  0  0  0  0  0
   55.2003   26.0508   46.1326 O   0  0  0  0  0  0  0  0  0  0  0  0
 22 23  2  0
 23 24  1  0
 24 25  2  0
 25 30  1  0
 30 31  1  0
 31 32  1  0
 32 33  2  0
 32 34  1  0
 34 35  1  0
 35 36  1  0
 24 26  1  0
 26 27  2  0
 27 28  1  0
 27 29  1  0
 29  1  1  0
  1  2  2  0
  2  3  1  0
  3  4  2  0
  4  7  1  0
  7  8  2  0
  7  9  1  0
  9 10  1  0
 10 11  1  0
 11 12  1  0
 12 13  1  0
 13 14  2  0
 13 17  1  0
 17 18  2  0
 18 19  1  0
 19 20  1  0
 20 21  1  0
 12 15  1  0
 15 16  1  0
  4  5  1  0
  5  6  2  0
 29 23  1  0
  6  1  1  0
 35 30  2  0
 16  9  1  0
M  CHG 1  31  -1
M  CHG 1  34  -1
M  CHG 1  36  -1
M  END
> <UniqueID>
50

> <SMILES>
C=c1c(=Cc2[n-]c(=O)[n-]c2[O-])cc(C)n1-c1ccc(C(=O)N2CCN(C(=O)C=CCOC)CC2)cc1

> <Energy>
155.30427683797896

> <Genealogy>
C=c1c(=Cc2[n-]c(=O)[n-]c2[O-])cc(C)n1-c1ccc(C(=O)N2CCN(C(=O)C=CCOC)CC2)cc1 (protonated)
C=c1c(=Cc2[n-]c(=O)[n-]c2[O-])cc(C)n1-c1ccc(C(=O)N2CCN(C(=O)C=CCOC)CC2)cc1 (3D coordinates assigned)
C=c1c(=Cc2[n-]c(=O)[n-]c2[O-])cc(C)n1-c1ccc(C(=O)N2CCN(C(=O)C=CCOC)CC2)cc1 (nonaromatic ring conformer: 155.30427683797896 kcal/mol)

> <smiles>
C=c1c(=Cc2[nH]c(=O)[nH]c2O)cc(C)n1-c1ccc(C(=O)N2CCN(C(=O)C=CCOC)CC2)cc1

> <score_type>
oracle

> <origin>
adg

> <m_score__min__energy>
-15.66

> <m_primary>
energy

> <minimizedAffinity>
-8.38742

> <minimizedRMSD>
0.87166

> <CNNscore>
0.2391272783

> <CNNaffinity>
6.8825011253

> <CNN_VS>
1.6457937956

> <CNNaffinity_variance>
0.0382901616

$$$$
64:0


 27 29  0  0  0  0  0  0  0  0999 V2000
   56.3744   31.5796   52.5638 C   0  0  0  0  0  0  0  0  0  0  0  0
   56.0164   30.3962   53.0853 C   0  0  0  0  0  0  0  0  0  0  0  0
   54.7165   29.9812   53.3925 C   0  0  0  0  0  0  0  0  0  0  0  0
   53.5744   30.6743   53.2116 C   0  0  0  0  0  0  0  0  0  0  0  0
   54.8227   28.6797   53.8654 C   0  0  0  0  0  0  0  0  0  0  0  0
   56.1657   28.3615   53.8478 C   0  0  0  0  0  0  0  0  0  0  0  0
   56.7293   27.0330   54.2539 C   0  0  0  0  0  0  0  0  0  0  0  0
   56.8910   29.3972   53.3707 N   0  0  0  0  0  0  0  0  0  0  0  0
   52.7557   30.6105   51.9878 C   0  0  0  0  0  0  0  0  0  0  0  0
   52.9949   29.7489   50.9844 N   0  0  0  0  0  0  0  0  0  0  0  0
   52.0777   30.0888   50.0521 C   0  0  0  0  0  0  0  0  0  0  0  0
   51.9762   29.4890   48.9511 O   0  0  0  0  0  0  0  0  0  0  0  0
   51.2875   31.1292   50.3898 N   0  0  0  0  0  0  0  0  0  0  0  0
   51.7352   31.4576   51.6118 C   0  0  0  0  0  0  0  0  0  0  0  0
   51.2536   32.5359   52.3426 O   0  0  0  0  0  0  0  0  0  0  0  0
   58.3205   29.4183   53.2093 C   0  0  0  0  0  0  0  0  0  0  0  0
   58.8907   29.2341   51.9428 C   0  0  0  0  0  0  0  0  0  0  0  0
   60.2800   29.2457   51.7864 C   0  0  0  0  0  0  0  0  0  0  0  0
   61.1162   29.4333   52.8988 C   0  0  0  0  0  0  0  0  0  0  0  0
   60.5433   29.6254   54.1657 C   0  0  0  0  0  0  0  0  0  0  0  0
   59.1540   29.6126   54.3202 C   0  0  0  0  0  0  0  0  0  0  0  0
   62.6126   29.4864   52.7277 C   0  0  0  0  0  0  0  0  0  0  0  0
   63.1593   28.1698   52.1638 C   0  0  0  0  0  0  0  0  0  0  0  0
   62.8541   27.0489   53.0469 N   0  0  0  0  0  0  0  0  0  0  0  0
   63.4458   26.8700   54.3369 C   0  0  0  0  0  0  0  0  0  0  0  0
   64.6924   26.7291   54.4563 O   0  0  0  0  0  0  0  0  0  0  0  0
   62.5726   26.7942   55.5431 C   0  0  0  0  0  0  0  0  0  0  0  0
  1  2  2  0
  2  3  1  0
  3  4  2  0
  4  9  1  0
  9 10  1  0
 10 11  1  0
 11 12  2  0
 11 13  1  0
 13 14  1  0
 14 15  1  0
  3  5  1  0
  5  6  2  0
  6  7  1  0
  6  8  1  0
  8 16  1  0
 16 17  2  0
 17 18  1  0
 18 19  2  0
 19 22  1  0
 22 23  1  0
 23 24  1  0
 24 25  1  0
 25 26  2  0
 25 27  1  0
 19 20  1  0
 20 21  2  0
  8  2  1  0
 21 16  1  0
 14  9  2  0
M  CHG 1  10  -1
M  CHG 1  13  -1
M  CHG 1  15  -1
M  CHG 1  24  -1
M  END
> <UniqueID>
58

> <SMILES>
C=c1/c(=C/c2[n-]c(=O)[n-]c2[O-])cc(C)n1-c1ccc(CC[N-]C(C)=O)cc1

> <Energy>
111.42891186139488

> <Genealogy>
C=c1c(=Cc2[n-]c(=O)[n-]c2[O-])cc(C)n1-c1ccc(CC[N-]C(C)=O)cc1 (protonated)
C=c1/c(=C/c2[n-]c(=O)[n-]c2[O-])cc(C)n1-c1ccc(CC[N-]C(C)=O)cc1 (cis-trans isomerization)
C=c1/c(=C/c2[n-]c(=O)[n-]c2[O-])cc(C)n1-c1ccc(CC[N-]C(C)=O)cc1 (3D coordinates assigned)
C=c1/c(=C/c2[n-]c(=O)[n-]c2[O-])cc(C)n1-c1ccc(CC[N-]C(C)=O)cc1 (optimized conformer: 111.42891186139488 kcal/mol)

> <smiles>
C=c1c(=Cc2[nH]c(=O)[nH]c2O)cc(C)n1-c1ccc(CCNC(C)=O)cc1

> <score_type>
oracle

> <origin>
adg

> <m_score__min__energy>
-16.109999999999999

> <m_primary>
energy

> <minimizedAffinity>
-3.42123

> <minimizedRMSD>
1.52971

> <CNNscore>
0.1103594303

> <CNNaffinity>
4.4476141930

> <CNN_VS>
0.4908361733

> <CNNaffinity_variance>
1.0068594217

$$$$
65:0


 25 27  0  0  0  0  0  0  0  0999 V2000
   55.9827   31.4354   52.2604 C   0  0  0  0  0  0  0  0  0  0  0  0
   55.7503   30.2146   52.7726 C   0  0  0  0  0  0  0  0  0  0  0  0
   54.5334   29.5239   52.7181 C   0  0  0  0  0  0  0  0  0  0  0  0
   53.3985   29.9121   52.1024 C   0  0  0  0  0  0  0  0  0  0  0  0
   54.7376   28.3223   53.3789 C   0  0  0  0  0  0  0  0  0  0  0  0
   56.0471   28.3241   53.8105 C   0  0  0  0  0  0  0  0  0  0  0  0
   56.6739   27.2181   54.6064 C   0  0  0  0  0  0  0  0  0  0  0  0
   56.6701   29.4713   53.4471 N   0  0  0  0  0  0  0  0  0  0  0  0
   52.3565   30.7391   52.7381 C   0  0  0  0  0  0  0  0  0  0  0  0
   51.9952   30.6082   54.0269 N   0  0  0  0  0  0  0  0  0  0  0  0
   50.9740   31.4823   54.1567 C   0  0  0  0  0  0  0  0  0  0  0  0
   50.3680   31.6600   55.2458 O   0  0  0  0  0  0  0  0  0  0  0  0
   50.6440   32.1420   53.0252 N   0  0  0  0  0  0  0  0  0  0  0  0
   51.5203   31.6515   52.1338 C   0  0  0  0  0  0  0  0  0  0  0  0
   51.5200   31.9983   50.7875 O   0  0  0  0  0  0  0  0  0  0  0  0
   58.0810   29.7991   53.7168 C   0  0  0  0  0  0  0  0  0  0  0  0
   59.0120   29.2410   52.6302 C   0  0  0  0  0  0  0  0  0  0  0  0
   58.9924   30.0813   51.3404 C   0  0  0  0  0  0  0  0  0  0  0  0
   60.1845   30.9555   51.2428 N   0  0  0  0  0  0  0  0  0  0  0  0
   60.2500   31.5567   49.9438 C   0  0  0  0  0  0  0  0  0  0  0  0
   60.5035   30.9096   48.9384 O   0  0  0  0  0  0  0  0  0  0  0  0
   60.0386   33.0206   49.9051 C   0  0  0  0  0  0  0  0  0  0  0  0
   59.7039   33.3431   51.3488 C   0  0  0  0  0  0  0  0  0  0  0  0
   60.1201   32.1110   52.1611 C   0  0  0  0  0  0  0  0  0  0  0  0
   60.5720   30.0703   51.0543 H   0  0  0  0  0  0  0  0  0  0  0  0
  1  2  2  0
  2  3  1  0
  3  4  2  0
  4  9  1  0
  9 10  1  0
 10 11  1  0
 11 12  2  0
 11 13  1  0
 13 14  1  0
 14 15  1  0
  3  5  1  0
  5  6  2  0
  6  7  1  0
  6  8  1  0
  8 16  1  0
 16 17  1  0
 17 18  1  0
 19 18  1  0
 19 20  1  0
 20 21  2  0
 20 22  1  0
 22 23  1  0
 23 24  1  0
  8  2  1  0
 24 19  1  0
 14  9  2  0
 19 25  1  0
M  CHG 1  10  -1
M  CHG 1  13  -1
M  CHG 1  15  -1
M  CHG 1  19   1
M  END
> <UniqueID>
59

> <SMILES>
C=c1/c(=C/c2[n-]c(=O)[n-]c2[O-])cc(C)n1CCC[N@@H+]1CCCC1=O

> <Energy>
109.45851558604689

> <Genealogy>
C=c1c(=Cc2[n-]c(=O)[n-]c2[O-])cc(C)n1CCC[NH+]1CCCC1=O (protonated)
C=c1c(=Cc2[n-]c(=O)[n-]c2[O-])cc(C)n1CCC[N@@H+]1CCCC1=O (chirality)
C=c1/c(=C/c2[n-]c(=O)[n-]c2[O-])cc(C)n1CCC[N@@H+]1CCCC1=O (cis-trans isomerization)
C=c1/c(=C/c2[n-]c(=O)[n-]c2[O-])cc(C)n1CCC[N@@H+]1CCCC1=O (3D coordinates assigned)
C=c1/c(=C/c2[n-]c(=O)[n-]c2[O-])cc(C)n1CCC[N@@H+]1CCCC1=O (nonaromatic ring conformer: 109.45851558604689 kcal/mol)

> <smiles>
C=c1c(=Cc2[nH]c(=O)[nH]c2O)cc(C)n1CCCN1CCCC1=O

> <score_type>
oracle

> <origin>
adg

> <m_score__min__energy>
-14.02

> <m_primary>
energy

> <minimizedAffinity>
-5.06788

> <minimizedRMSD>
1.20936

> <CNNscore>
0.1961819232

> <CNNaffinity>
4.7826914787

> <CNN_VS>
0.9382776022

> <CNNaffinity_variance>
0.1024707332

$$$$
74:0


 30 33  0  0  0  0  0  0  0  0999 V2000
   60.2399   29.9263   46.3975 C   0  0  0  0  0  0  0  0  0  0  0  0
   60.1898   28.9905   47.3583 C   0  0  0  0  0  0  0  0  0  0  0  0
   59.8022   27.6472   47.2230 C   0  0  0  0  0  0  0  0  0  0  0  0
   59.2287   26.9899   46.1952 C   0  0  0  0  0  0  0  0  0  0  0  0
   60.1189   27.0293   48.4230 C   0  0  0  0  0  0  0  0  0  0  0  0
   60.6144   28.0084   49.2591 C   0  0  0  0  0  0  0  0  0  0  0  0
   61.0925   27.7777   50.6606 C   0  0  0  0  0  0  0  0  0  0  0  0
   60.6622   29.1932   48.6127 N   0  0  0  0  0  0  0  0  0  0  0  0
   57.9186   26.3235   46.2286 C   0  0  0  0  0  0  0  0  0  0  0  0
   57.7077   25.1282   46.8056 N   0  0  0  0  0  0  0  0  0  0  0  0
   56.3682   24.9717   46.7174 C   0  0  0  0  0  0  0  0  0  0  0  0
   55.7776   23.9455   47.1433 O   0  0  0  0  0  0  0  0  0  0  0  0
   55.7112   26.0058   46.1506 N   0  0  0  0  0  0  0  0  0  0  0  0
   56.7055   26.8613   45.8606 C   0  0  0  0  0  0  0  0  0  0  0  0
   56.5046   28.1146   45.2957 O   0  0  0  0  0  0  0  0  0  0  0  0
   61.1734   30.4225   49.1568 C   0  0  0  0  0  0  0  0  0  0  0  0
   62.4306   30.8848   48.7459 C   0  0  0  0  0  0  0  0  0  0  0  0
   62.9433   32.0815   49.2540 C   0  0  0  0  0  0  0  0  0  0  0  0
   62.2073   32.8257   50.1882 C   0  0  0  0  0  0  0  0  0  0  0  0
   60.9494   32.3635   50.6030 C   0  0  0  0  0  0  0  0  0  0  0  0
   60.4306   31.1647   50.0950 C   0  0  0  0  0  0  0  0  0  0  0  0
   59.1468   30.6992   50.5553 C   0  0  0  0  0  0  0  0  0  0  0  0
   58.1143   30.3272   50.9246 N   0  0  0  0  0  0  0  0  0  0  0  0
   62.7524   34.1321   50.7045 C   0  0  0  0  0  0  0  0  0  0  0  0
   63.9019   33.8980   51.6020 N   0  0  0  0  0  0  0  0  0  0  0  0
   65.0935   33.4570   50.8437 C   0  0  0  0  0  0  0  0  0  0  0  0
   66.3575   33.4915   51.7256 C   0  0  0  0  0  0  0  0  0  0  0  0
   66.0176   33.6106   53.0909 O   0  0  0  0  0  0  0  0  0  0  0  0
   65.3999   34.8644   53.3210 C   0  0  0  0  0  0  0  0  0  0  0  0
   64.2156   35.1204   52.3628 C   0  0  0  0  0  0  0  0  0  0  0  0
  1  2  2  0
  2  3  1  0
  3  4  2  0
  4  9  1  0
  9 10  1  0
 10 11  1  0
 11 12  2  0
 11 13  1  0
 13 14  1  0
 14 15  1  0
  3  5  1  0
  5  6  2  0
  6  7  1  0
  6  8  1  0
  8 16  1  0
 16 17  2  0
 17 18  1  0
 18 19  2  0
 19 24  1  0
 24 25  1  0
 25 26  1  0
 26 27  1  0
 27 28  1  0
 28 29  1  0
 29 30  1  0
 19 20  1  0
 20 21  2  0
 21 22  1  0
 22 23  3  0
  8  2  1  0
 21 16  1  0
 14  9  2  0
 30 25  1  0
M  CHG 1  10  -1
M  CHG 1  13  -1
M  CHG 1  15  -1
M  END
> <UniqueID>
65

> <SMILES>
C=c1c(=Cc2[n-]c(=O)[n-]c2[O-])cc(C)n1-c1ccc(CN2CCOCC2)cc1C#N

> <Energy>
137.3396957814307

> <Genealogy>
C=c1c(=Cc2[n-]c(=O)[n-]c2[O-])cc(C)n1-c1ccc(CN2CCOCC2)cc1C#N (protonated)
C=c1c(=Cc2[n-]c(=O)[n-]c2[O-])cc(C)n1-c1ccc(CN2CCOCC2)cc1C#N (3D coordinates assigned)
C=c1c(=Cc2[n-]c(=O)[n-]c2[O-])cc(C)n1-c1ccc(CN2CCOCC2)cc1C#N (nonaromatic ring conformer: 137.3396957814307 kcal/mol)

> <smiles>
C=c1c(=Cc2[nH]c(=O)[nH]c2O)cc(C)n1-c1ccc(CN2CCOCC2)cc1C#N

> <score_type>
oracle

> <origin>
adg

> <m_score__min__energy>
-15.68

> <m_primary>
energy

> <minimizedAffinity>
-5.64329

> <minimizedRMSD>
0.92885

> <CNNscore>
0.0767299533

> <CNNaffinity>
5.2868824005

> <CNN_VS>
0.4056622386

> <CNNaffinity_variance>
0.3211767375

$$$$
75:0


 28 31  0  0  0  0  0  0  0  0999 V2000
   58.0176   26.4700   46.2923 C   0  0  0  0  0  0  0  0  0  0  0  0
   58.6422   26.7072   47.4727 N   0  0  0  0  0  0  0  0  0  0  0  0
   58.8943   28.0099   47.5851 N   0  0  0  0  0  0  0  0  0  0  0  0
   58.4218   28.5924   46.4720 C   0  0  0  0  0  0  0  0  0  0  0  0
   58.4439   29.9146   46.1828 N   0  0  0  0  0  0  0  0  0  0  0  0
   57.8731   30.3365   45.0145 C   0  0  0  0  0  0  0  0  0  0  0  0
   57.9142   31.6018   44.7121 N   0  0  0  0  0  0  0  0  0  0  0  0
   57.2966   29.4216   44.1634 N   0  0  0  0  0  0  0  0  0  0  0  0
   57.2695   28.0875   44.4558 C   0  0  0  0  0  0  0  0  0  0  0  0
   57.8648   27.6773   45.6396 C   0  0  0  0  0  0  0  0  0  0  0  0
   55.8447   23.4874   45.3813 C   0  0  0  0  0  0  0  0  0  0  0  0
   56.8267   22.5573   44.9976 C   0  0  0  0  0  0  0  0  0  0  0  0
   58.1771   22.9048   45.0376 C   0  0  0  0  0  0  0  0  0  0  0  0
   58.5641   24.1782   45.4561 C   0  0  0  0  0  0  0  0  0  0  0  0
   57.5986   25.1271   45.8327 C   0  0  0  0  0  0  0  0  0  0  0  0
   56.2358   24.7693   45.8006 C   0  0  0  0  0  0  0  0  0  0  0  0
   55.2607   25.6911   46.1720 O   0  0  0  0  0  0  0  0  0  0  0  0
   54.4448   23.1688   45.3584 N   0  0  0  0  0  0  0  0  0  0  0  0
   53.9751   22.3121   48.0701 C   0  0  0  0  0  0  0  0  0  0  0  0
   53.6546   21.9837   46.3499 S   0  0  0  0  0  0  0  0  0  0  0  0
   52.1764   21.9889   46.0797 O   0  0  0  0  0  0  0  0  0  0  0  0
   54.2037   20.6274   46.0077 O   0  0  0  0  0  0  0  0  0  0  0  0
   58.4205   32.6684   45.5307 C   0  0  0  0  0  0  0  0  0  0  0  0
   58.5970   32.5256   46.9215 C   0  0  0  0  0  0  0  0  0  0  0  0
   59.1282   33.5757   47.6759 C   0  0  0  0  0  0  0  0  0  0  0  0
   59.5055   34.7672   47.0513 C   0  0  0  0  0  0  0  0  0  0  0  0
   59.3637   34.9040   45.6678 C   0  0  0  0  0  0  0  0  0  0  0  0
   58.8329   33.8556   44.9107 C   0  0  0  0  0  0  0  0  0  0  0  0
 19 20  1  0
 20 21  2  0
 20 22  2  0
 20 18  1  0
 18 11  1  0
 11 12  2  0
 12 13  1  0
 13 14  2  0
 14 15  1  0
 15  1  1  0
  1  2  1  0
  2  3  1  0
  3  4  2  0
  4  5  1  0
  5  6  1  0
  6  7  2  0
  7 23  1  0
 23 24  2  0
 24 25  1  0
 25 26  2  0
 26 27  1  0
 27 28  2  0
  6  8  1  0
  8  9  2  0
  9 10  1  0
 15 16  2  0
 16 17  1  0
 16 11  1  0
 10  1  2  0
 10  4  1  0
 28 23  1  0
M  CHG 1   2  -1
M  CHG 1   5  -1
M  CHG 1  17  -1
M  CHG 1  18  -1
M  END
> <UniqueID>
66

> <SMILES>
CS(=O)(=O)[N-]c1cccc(-c2[n-]nc3[n-]c(=Nc4ccccc4)ncc23)c1[O-]

> <Energy>
97.4385569631464

> <Genealogy>
CS(=O)(=O)[N-]c1cccc(-c2[n-]nc3[n-]c(=Nc4ccccc4)ncc23)c1[O-] (protonated)
CS(=O)(=O)[N-]c1cccc(-c2[n-]nc3[n-]c(=Nc4ccccc4)ncc23)c1[O-] (3D coordinates assigned)
CS(=O)(=O)[N-]c1cccc(-c2[n-]nc3[n-]c(=Nc4ccccc4)ncc23)c1[O-] (optimized conformer: 97.4385569631464 kcal/mol)

> <smiles>
CS(=O)(=O)Nc1cccc(-c2[nH]nc3[nH]c(=Nc4ccccc4)ncc23)c1O

> <score_type>
oracle

> <origin>
adg

> <m_score__min__energy>
-18.129999999999999

> <m_primary>
energy

> <minimizedAffinity>
-8.79307

> <minimizedRMSD>
1.13574

> <CNNscore>
0.2297051102

> <CNNaffinity>
6.1520576477

> <CNN_VS>
1.4131591320

> <CNNaffinity_variance>
0.1001585200

$$$$
79:0


 31 33  0  0  0  0  0  0  0  0999 V2000
   57.7513   30.8471   44.9444 C   0  0  0  0  0  0  0  0  0  0  0  0
   57.6364   31.5813   43.7549 C   0  0  0  0  0  0  0  0  0  0  0  0
   58.1333   32.8852   43.6818 C   0  0  0  0  0  0  0  0  0  0  0  0
   58.7307   33.4731   44.7994 C   0  0  0  0  0  0  0  0  0  0  0  0
   58.8265   32.7592   46.0022 C   0  0  0  0  0  0  0  0  0  0  0  0
   58.3300   31.4490   46.0725 C   0  0  0  0  0  0  0  0  0  0  0  0
   59.5482   33.4926   47.4299 S   0  0  0  0  0  0  0  0  0  0  0  0
   59.1139   34.9300   47.5092 O   0  0  0  0  0  0  0  0  0  0  0  0
   59.0998   32.7596   48.6632 O   0  0  0  0  0  0  0  0  0  0  0  0
   61.2742   33.3962   47.2899 N   0  0  0  0  0  0  0  0  0  0  0  0
   62.2276   33.2492   48.3530 C   0  0  0  0  0  0  0  0  0  0  0  0
   62.0916   34.0862   49.4696 C   0  0  0  0  0  0  0  0  0  0  0  0
   62.9861   33.9989   50.5402 C   0  0  0  0  0  0  0  0  0  0  0  0
   64.0269   33.0711   50.5080 C   0  0  0  0  0  0  0  0  0  0  0  0
   64.1759   32.2292   49.4047 C   0  0  0  0  0  0  0  0  0  0  0  0
   63.2850   32.3107   48.3268 C   0  0  0  0  0  0  0  0  0  0  0  0
   63.4714   31.4699   47.2811 F   0  0  0  0  0  0  0  0  0  0  0  0
   57.2300   29.4713   45.0331 C   0  0  0  0  0  0  0  0  0  0  0  0
   56.1059   29.2147   44.5317 O   0  0  0  0  0  0  0  0  0  0  0  0
   57.9345   28.4274   45.7206 N   0  0  0  0  0  0  0  0  0  0  0  0
   58.0713   27.0497   45.2574 C   0  0  0  0  0  0  0  0  0  0  0  0
   55.9905   26.4484   46.2569 O   0  0  0  0  0  0  0  0  0  0  0  0
   57.1961   26.1325   46.0653 C   0  0  0  0  0  0  0  0  0  0  0  0
   57.6924   24.9271   46.6641 N   0  0  0  0  0  0  0  0  0  0  0  0
   56.9761   23.6572   46.7543 C   0  0  0  0  0  0  0  0  0  0  0  0
   56.7785   23.0633   45.3855 C   0  0  0  0  0  0  0  0  0  0  0  0
   57.5863   22.0084   44.9378 C   0  0  0  0  0  0  0  0  0  0  0  0
   57.3848   21.4837   43.6592 C   0  0  0  0  0  0  0  0  0  0  0  0
   56.4153   21.9942   42.8564 N   0  0  0  0  0  0  0  0  0  0  0  0
   55.6197   23.0178   43.2610 C   0  0  0  0  0  0  0  0  0  0  0  0
   55.7895   23.5730   44.5313 C   0  0  0  0  0  0  0  0  0  0  0  0
 22 23  2  0
 23 21  1  0
 21 20  1  0
 20 18  1  0
 18 19  2  0
 18  1  1  0
  1  2  2  0
  2  3  1  0
  3  4  2  0
  4  5  1  0
  5  7  1  0
  7  8  2  0
  7  9  2  0
  7 10  1  0
 10 11  1  0
 11 12  2  0
 12 13  1  0
 13 14  2  0
 14 15  1  0
 15 16  2  0
 16 17  1  0
  5  6  2  0
 23 24  1  0
 24 25  1  0
 25 26  1  0
 26 27  2  0
 27 28  1  0
 28 29  2  0
 29 30  1  0
 30 31  2  0
  6  1  1  0
 31 26  1  0
 16 11  1  0
M  CHG 1  10  -1
M  CHG 1  20  -1
M  CHG 1  24  -1
M  END
> <UniqueID>
70

> <SMILES>
O=C(C[N-]C(=O)c1cccc(S(=O)(=O)[N-]c2ccccc2F)c1)[N-]Cc1ccncc1

> <Energy>
59.18136078978787

> <Genealogy>
O=C(C[N-]C(=O)c1cccc(S(=O)(=O)[N-]c2ccccc2F)c1)[N-]Cc1ccncc1 (protonated)
O=C(C[N-]C(=O)c1cccc(S(=O)(=O)[N-]c2ccccc2F)c1)[N-]Cc1ccncc1 (3D coordinates assigned)
O=C(C[N-]C(=O)c1cccc(S(=O)(=O)[N-]c2ccccc2F)c1)[N-]Cc1ccncc1 (optimized conformer: 59.18136078978787 kcal/mol)

> <smiles>
O=C(CNC(=O)c1cccc(S(=O)(=O)Nc2ccccc2F)c1)NCc1ccncc1

> <score_type>
oracle

> <origin>
adg

> <m_score__min__energy>
-14.539999999999999

> <m_primary>
energy

> <minimizedAffinity>
-7.92158

> <minimizedRMSD>
1.48445

> <CNNscore>
0.4578339756

> <CNNaffinity>
6.8217639923

> <CNN_VS>
3.1232352257

> <CNNaffinity_variance>
0.0051340885

$$$$
90:0


 24 26  0  0  0  0  0  0  0  0999 V2000
   60.3965   29.5079   48.2985 C   0  0  0  0  0  0  0  0  0  0  0  0
   59.6978   29.8363   47.2006 C   0  0  0  0  0  0  0  0  0  0  0  0
   59.5546   29.0655   46.0370 C   0  0  0  0  0  0  0  0  0  0  0  0
   59.8397   27.7707   45.7935 C   0  0  0  0  0  0  0  0  0  0  0  0
   59.0084   29.9048   45.0823 C   0  0  0  0  0  0  0  0  0  0  0  0
   58.7661   31.1125   45.7004 C   0  0  0  0  0  0  0  0  0  0  0  0
   58.1907   32.3130   45.0096 C   0  0  0  0  0  0  0  0  0  0  0  0
   59.1641   31.0719   46.9962 N   0  0  0  0  0  0  0  0  0  0  0  0
   58.8709   26.6625   45.8216 C   0  0  0  0  0  0  0  0  0  0  0  0
   59.1782   25.3800   46.0951 N   0  0  0  0  0  0  0  0  0  0  0  0
   57.9729   24.7731   46.1423 C   0  0  0  0  0  0  0  0  0  0  0  0
   57.8424   23.5413   46.3630 O   0  0  0  0  0  0  0  0  0  0  0  0
   56.9181   25.5921   45.9426 N   0  0  0  0  0  0  0  0  0  0  0  0
   57.5047   26.7854   45.7560 C   0  0  0  0  0  0  0  0  0  0  0  0
   56.8042   27.9649   45.5364 O   0  0  0  0  0  0  0  0  0  0  0  0
   59.0944   32.1847   47.9584 C   0  0  0  0  0  0  0  0  0  0  0  0
   60.4632   32.7727   48.2162 C   0  0  0  0  0  0  0  0  0  0  0  0
   61.4137   32.8080   47.1798 C   0  0  0  0  0  0  0  0  0  0  0  0
   62.6815   33.3552   47.3975 C   0  0  0  0  0  0  0  0  0  0  0  0
   63.0111   33.8824   48.6471 C   0  0  0  0  0  0  0  0  0  0  0  0
   62.0707   33.8704   49.6804 C   0  0  0  0  0  0  0  0  0  0  0  0
   60.7961   33.3251   49.4713 C   0  0  0  0  0  0  0  0  0  0  0  0
   59.8643   33.3307   50.5079 O   0  0  0  0  0  0  0  0  0  0  0  0
   60.0905   33.6987   51.3394 H   0  0  0  0  0  0  0  0  0  0  0  0
  1  2  2  0
  2  3  1  0
  3  4  2  0
  4  9  1  0
  9 10  1  0
 10 11  1  0
 11 12  2  0
 11 13  1  0
 13 14  1  0
 14 15  1  0
  3  5  1  0
  5  6  2  0
  6  7  1  0
  6  8  1  0
  8 16  1  0
 16 17  1  0
 17 18  2  0
 18 19  1  0
 19 20  2  0
 20 21  1  0
 21 22  2  0
 22 23  1  0
  8  2  1  0
 22 17  1  0
 14  9  2  0
 23 24  1  0
M  CHG 1  10  -1
M  CHG 1  13  -1
M  CHG 1  15  -1
M  END
> <UniqueID>
81

> <SMILES>
C=c1c(=Cc2[n-]c(=O)[n-]c2[O-])cc(C)n1Cc1ccccc1O

> <Energy>
107.76092620100647

> <Genealogy>
C=c1c(=Cc2[n-]c(=O)[n-]c2[O-])cc(C)n1Cc1ccccc1O (protonated)
C=c1c(=Cc2[n-]c(=O)[n-]c2[O-])cc(C)n1Cc1ccccc1O (3D coordinates assigned)
C=c1c(=Cc2[n-]c(=O)[n-]c2[O-])cc(C)n1Cc1ccccc1O (optimized conformer: 107.76092620100647 kcal/mol)

> <smiles>
C=c1c(=Cc2[nH]c(=O)[nH]c2O)cc(C)n1Cc1ccccc1O

> <score_type>
oracle

> <origin>
adg

> <m_score__min__energy>
-15.18

> <m_primary>
energy

> <minimizedAffinity>
-7.70219

> <minimizedRMSD>
1.33814

> <CNNscore>
0.6627953053

> <CNNaffinity>
6.9811310768

> <CNN_VS>
4.6270608902

> <CNNaffinity_variance>
0.7507861257

$$$$
9:0


 30 33  0  0  0  0  0  0  0  0999 V2000
   59.8969   30.0134   45.0367 C   0  0  0  0  0  0  0  0  0  0  0  0
   59.5880   29.6522   46.2920 C   0  0  0  0  0  0  0  0  0  0  0  0
   58.6738   28.6637   46.6693 C   0  0  0  0  0  0  0  0  0  0  0  0
   57.9559   27.8607   45.8619 C   0  0  0  0  0  0  0  0  0  0  0  0
   58.6734   28.6435   48.0579 C   0  0  0  0  0  0  0  0  0  0  0  0
   59.5744   29.6037   48.4688 C   0  0  0  0  0  0  0  0  0  0  0  0
   59.8969   29.8927   49.9046 C   0  0  0  0  0  0  0  0  0  0  0  0
   60.1140   30.2335   47.3991 N   0  0  0  0  0  0  0  0  0  0  0  0
   57.8101   26.4036   46.0828 C   0  0  0  0  0  0  0  0  0  0  0  0
   56.5475   25.7951   46.1785 C   0  0  0  0  0  0  0  0  0  0  0  0
   55.3833   26.5481   46.0716 O   0  0  0  0  0  0  0  0  0  0  0  0
   56.4540   24.4530   46.3582 N   0  0  0  0  0  0  0  0  0  0  0  0
   57.5644   23.6756   46.4296 C   0  0  0  0  0  0  0  0  0  0  0  0
   57.4536   22.4338   46.5996 O   0  0  0  0  0  0  0  0  0  0  0  0
   58.7955   24.2364   46.3098 N   0  0  0  0  0  0  0  0  0  0  0  0
   58.9431   25.5742   46.1307 C   0  0  0  0  0  0  0  0  0  0  0  0
   60.1013   26.0596   46.0212 O   0  0  0  0  0  0  0  0  0  0  0  0
   61.1060   31.2766   47.4413 C   0  0  0  0  0  0  0  0  0  0  0  0
   62.3874   30.9837   47.9316 C   0  0  0  0  0  0  0  0  0  0  0  0
   63.3541   31.9856   48.0318 C   0  0  0  0  0  0  0  0  0  0  0  0
   63.0492   33.2916   47.6486 C   0  0  0  0  0  0  0  0  0  0  0  0
   61.7782   33.6001   47.1586 C   0  0  0  0  0  0  0  0  0  0  0  0
   60.7989   32.5995   47.0386 C   0  0  0  0  0  0  0  0  0  0  0  0
   59.4653   32.9594   46.5029 C   0  0  0  0  0  0  0  0  0  0  0  0
   59.3181   33.2369   45.1359 C   0  0  0  0  0  0  0  0  0  0  0  0
   58.0705   33.5995   44.6237 C   0  0  0  0  0  0  0  0  0  0  0  0
   56.9740   33.6667   45.4821 C   0  0  0  0  0  0  0  0  0  0  0  0
   57.1222   33.3713   46.8009 N   0  0  0  0  0  0  0  0  0  0  0  0
   58.3241   33.0154   47.3272 C   0  0  0  0  0  0  0  0  0  0  0  0
   58.3974   32.7201   48.5499 O   0  0  0  0  0  0  0  0  0  0  0  0
  1  2  2  0
  2  3  1  0
  3  4  2  0
  4  9  1  0
  9 10  2  0
 10 11  1  0
 10 12  1  0
 12 13  1  0
 13 14  2  0
 13 15  1  0
 15 16  1  0
 16 17  2  0
  3  5  1  0
  5  6  2  0
  6  7  1  0
  6  8  1  0
  8 18  1  0
 18 19  2  0
 19 20  1  0
 20 21  2  0
 21 22  1  0
 22 23  2  0
 23 24  1  0
 24 25  2  0
 25 26  1  0
 26 27  2  0
 27 28  1  0
 28 29  1  0
 29 30  2  0
  8  2  1  0
 23 18  1  0
 29 24  1  0
 16  9  1  0
M  CHG 1  11  -1
M  CHG 1  12  -1
M  CHG 1  15  -1
M  CHG 1  28  -1
M  END
> <UniqueID>
9

> <SMILES>
C=c1c(=Cc2c([O-])[n-]c(=O)[n-]c2=O)cc(C)n1-c1ccccc1-c1ccc[n-]c1=O

> <Energy>
101.47332029903019

> <Genealogy>
C=c1c(=Cc2c([O-])[n-]c(=O)[n-]c2=O)cc(C)n1-c1ccccc1-c1ccc[n-]c1=O (protonated)
C=c1c(=Cc2c([O-])[n-]c(=O)[n-]c2=O)cc(C)n1-c1ccccc1-c1ccc[n-]c1=O (3D coordinates assigned)
C=c1c(=Cc2c([O-])[n-]c(=O)[n-]c2=O)cc(C)n1-c1ccccc1-c1ccc[n-]c1=O (optimized conformer: 101.47332029903019 kcal/mol)

> <smiles>
C=c1c(=Cc2c(O)[nH]c(=O)[nH]c2=O)cc(C)n1-c1ccccc1-c1ccc[nH]c1=O

> <score_type>
oracle

> <origin>
adg

> <m_score__min__energy>
-16.920000000000002

> <m_primary>
energy

> <minimizedAffinity>
-7.90631

> <minimizedRMSD>
0.55703

> <CNNscore>
0.2735622525

> <CNNaffinity>
6.7211060524

> <CNN_VS>
1.8386409283

> <CNNaffinity_variance>
0.0029526374

$$$$
10:0


 29 31  0  0  0  0  0  0  0  0999 V2000
   58.8676   27.7795   48.2797 C   0  0  0  0  0  0  0  0  0  0  0  0
   58.7659   27.5145   46.9558 C   0  0  0  0  0  0  0  0  0  0  0  0
   59.3689   28.4125   46.0240 C   0  0  0  0  0  0  0  0  0  0  0  0
   59.1774   28.2366   44.6503 C   0  0  0  0  0  0  0  0  0  0  0  0
   58.4066   27.1894   44.1694 C   0  0  0  0  0  0  0  0  0  0  0  0
   58.1812   26.9928   42.4407 Cl  0  0  0  0  0  0  0  0  0  0  0  0
   57.8390   26.2762   45.0527 C   0  0  0  0  0  0  0  0  0  0  0  0
   58.0127   26.3943   46.4528 C   0  0  0  0  0  0  0  0  0  0  0  0
   57.5111   25.4239   47.2680 C   0  0  0  0  0  0  0  0  0  0  0  0
   56.4642   24.4488   46.8798 C   0  0  0  0  0  0  0  0  0  0  0  0
   55.2705   24.8922   46.2899 C   0  0  0  0  0  0  0  0  0  0  0  0
   55.0356   26.2501   46.1031 O   0  0  0  0  0  0  0  0  0  0  0  0
   54.3296   23.9933   45.9043 N   0  0  0  0  0  0  0  0  0  0  0  0
   54.5266   22.6584   46.0651 C   0  0  0  0  0  0  0  0  0  0  0  0
   53.6378   21.8448   45.7041 O   0  0  0  0  0  0  0  0  0  0  0  0
   55.6832   22.2030   46.6091 N   0  0  0  0  0  0  0  0  0  0  0  0
   56.6550   23.0613   47.0102 C   0  0  0  0  0  0  0  0  0  0  0  0
   57.7274   22.6015   47.4872 O   0  0  0  0  0  0  0  0  0  0  0  0
   60.2189   29.5516   46.4431 C   0  0  0  0  0  0  0  0  0  0  0  0
   61.4520   29.5242   46.1956 O   0  0  0  0  0  0  0  0  0  0  0  0
   59.6700   30.6807   47.1306 N   0  0  0  0  0  0  0  0  0  0  0  0
   59.6938   32.0416   46.6061 C   0  0  0  0  0  0  0  0  0  0  0  0
   58.2680   32.5117   46.3340 C   0  0  0  0  0  0  0  0  0  0  0  0
   57.7171   31.8419   45.1076 C   0  0  0  0  0  0  0  0  0  0  0  0
   56.8559   30.7961   45.2420 N   0  0  0  0  0  0  0  0  0  0  0  0
   56.3558   30.1363   44.1619 C   0  0  0  0  0  0  0  0  0  0  0  0
   56.7302   30.5194   42.8733 C   0  0  0  0  0  0  0  0  0  0  0  0
   57.6215   31.5803   42.7080 C   0  0  0  0  0  0  0  0  0  0  0  0
   58.1248   32.2471   43.8274 C   0  0  0  0  0  0  0  0  0  0  0  0
  1  2  2  0
  2  3  1  0
  3 19  1  0
 19 20  2  0
 19 21  1  0
 21 22  1  0
 22 23  1  0
 23 24  1  0
 24 25  2  0
 25 26  1  0
 26 27  2  0
 27 28  1  0
 28 29  2  0
  3  4  2  0
  4  5  1  0
  5  6  1  0
  5  7  2  0
  7  8  1  0
  8  9  2  0
  9 10  1  0
 10 11  2  0
 11 12  1  0
 11 13  1  0
 13 14  1  0
 14 15  2  0
 14 16  1  0
 16 17  1  0
 17 18  2  0
  8  2  1  0
 17 10  1  0
 29 24  1  0
M  CHG 1  12  -1
M  CHG 1  13  -1
M  CHG 1  16  -1
M  CHG 1  21  -1
M  END
> <UniqueID>
10

> <SMILES>
C=c1c(C(=O)[N-]CCc2ccccn2)cc(Cl)c/c1=C\c1c([O-])[n-]c(=O)[n-]c1=O

> <Energy>
70.644230246607

> <Genealogy>
C=c1c(C(=O)[N-]CCc2ccccn2)cc(Cl)cc1=Cc1c([O-])[n-]c(=O)[n-]c1=O (protonated)
C=c1c(C(=O)[N-]CCc2ccccn2)cc(Cl)c/c1=C\c1c([O-])[n-]c(=O)[n-]c1=O (cis-trans isomerization)
C=c1c(C(=O)[N-]CCc2ccccn2)cc(Cl)c/c1=C\c1c([O-])[n-]c(=O)[n-]c1=O (3D coordinates assigned)
C=c1c(C(=O)[N-]CCc2ccccn2)cc(Cl)c/c1=C\c1c([O-])[n-]c(=O)[n-]c1=O (optimized conformer: 70.644230246607 kcal/mol)

> <smiles>
C=c1c(C(=O)NCCc2ccccn2)cc(Cl)cc1=Cc1c(O)[nH]c(=O)[nH]c1=O

> <score_type>
oracle

> <origin>
adg

> <m_score__min__energy>
-17.27

> <m_primary>
energy

> <minimizedAffinity>
-5.83984

> <minimizedRMSD>
0.46390

> <CNNscore>
0.0973280668

> <CNNaffinity>
5.8762774467

> <CNN_VS>
0.5719267130

> <CNNaffinity_variance>
0.1499051899

$$$$
12:0


 25 27  0  0  0  0  0  0  0  0999 V2000
   58.6483   31.4849   46.6996 C   0  0  0  0  0  0  0  0  0  0  0  0
   58.8502   31.1434   47.8967 O   0  0  0  0  0  0  0  0  0  0  0  0
   58.7655   30.5259   45.6380 N   0  0  0  0  0  0  0  0  0  0  0  0
   58.7051   30.8460   44.7089 H   0  0  0  0  0  0  0  0  0  0  0  0
   58.9666   29.1218   45.8653 C   0  0  0  0  0  0  0  0  0  0  0  0
   60.2279   28.6753   46.2772 C   0  0  0  0  0  0  0  0  0  0  0  0
   60.4577   27.3191   46.4995 C   0  0  0  0  0  0  0  0  0  0  0  0
   59.4337   26.3927   46.3011 C   0  0  0  0  0  0  0  0  0  0  0  0
   58.1635   26.8076   45.8607 C   0  0  0  0  0  0  0  0  0  0  0  0
   57.9388   28.1854   45.6258 C   0  0  0  0  0  0  0  0  0  0  0  0
   56.7177   28.6269   45.1272 O   0  0  0  0  0  0  0  0  0  0  0  0
   57.0978   25.7952   45.6423 C   0  0  0  0  0  0  0  0  0  0  0  0
   56.0623   25.7964   46.3605 O   0  0  0  0  0  0  0  0  0  0  0  0
   57.2124   24.8352   44.6448 O   0  0  0  0  0  0  0  0  0  0  0  0
   58.2805   32.8982   46.3897 C   0  0  0  0  0  0  0  0  0  0  0  0
   59.7686   33.8052   45.8626 S   0  0  0  0  0  0  0  0  0  0  0  0
   62.7839   33.2599   47.0639 C   0  0  0  0  0  0  0  0  0  0  0  0
   61.6858   33.7529   47.8916 N   0  0  0  0  0  0  0  0  0  0  0  0
   60.4042   33.9585   47.5327 C   0  0  0  0  0  0  0  0  0  0  0  0
   59.6353   34.2668   48.5933 N   0  0  0  0  0  0  0  0  0  0  0  0
   60.4249   34.2434   49.6588 N   0  0  0  0  0  0  0  0  0  0  0  0
   61.6627   33.9320   49.2281 C   0  0  0  0  0  0  0  0  0  0  0  0
   62.8327   33.7129   50.1405 C   0  0  0  0  0  0  0  0  0  0  0  0
   63.0305   32.2764   50.6046 C   0  0  0  0  0  0  0  0  0  0  0  0
   62.4534   33.3088   51.5569 C   0  0  0  0  0  0  0  0  0  0  0  0
 17 18  1  0
 18 19  1  0
 19 16  1  0
 16 15  1  0
 15  1  1  0
  1  2  2  0
  1  3  1  0
  3  5  1  0
  5  6  2  0
  6  7  1  0
  7  8  2  0
  8  9  1  0
  9 12  1  0
 12 13  2  0
 12 14  1  0
  9 10  2  0
 10 11  1  0
 19 20  2  0
 20 21  1  0
 21 22  2  0
 22 23  1  0
 23 24  1  0
 24 25  1  0
 22 18  1  0
 25 23  1  0
 10  5  1  0
  3  4  1  0
M  CHG 1  11  -1
M  CHG 1  14  -1
M  END
> <UniqueID>
12

> <SMILES>
Cn1c(SCC(=O)Nc2cccc(C(=O)[O-])c2[O-])nnc1C1CC1

> <Energy>
338.651006507248

> <Genealogy>
Cn1c(SCC(=O)Nc2cccc(C(=O)[O-])c2[O-])nnc1C1CC1 (protonated)
Cn1c(SCC(=O)Nc2cccc(C(=O)[O-])c2[O-])nnc1C1CC1 (3D coordinates assigned)
Cn1c(SCC(=O)Nc2cccc(C(=O)[O-])c2[O-])nnc1C1CC1 (nonaromatic ring conformer: 338.651006507248 kcal/mol)

> <smiles>
Cn1c(SCC(=O)Nc2cccc(C(=O)O)c2O)nnc1C1CC1

> <score_type>
oracle

> <origin>
adg

> <m_score__min__energy>
-14.960000000000001

> <m_primary>
energy

> <minimizedAffinity>
-6.67137

> <minimizedRMSD>
1.87879

> <CNNscore>
0.6340106726

> <CNNaffinity>
6.5001225471

> <CNN_VS>
4.1211471558

> <CNNaffinity_variance>
0.1968603134

$$$$
14:0


 35 38  0  0  0  0  0  0  0  0999 V2000
   57.5834   29.4850   45.6048 N   0  0  0  0  0  0  0  0  0  0  0  0
   58.3238   27.1823   46.1083 C   0  0  0  0  0  0  0  0  0  0  0  0
   59.3666   26.2746   46.3628 C   0  0  0  0  0  0  0  0  0  0  0  0
   60.7013   26.6697   46.2495 C   0  0  0  0  0  0  0  0  0  0  0  0
   61.0115   27.9786   45.8837 C   0  0  0  0  0  0  0  0  0  0  0  0
   59.9906   28.9026   45.6579 C   0  0  0  0  0  0  0  0  0  0  0  0
   58.6404   28.5265   45.7910 C   0  0  0  0  0  0  0  0  0  0  0  0
   56.9199   26.7082   46.1892 C   0  0  0  0  0  0  0  0  0  0  0  0
   56.0132   27.3062   45.5476 O   0  0  0  0  0  0  0  0  0  0  0  0
   54.1992   25.1929   45.6384 O   0  0  0  0  0  0  0  0  0  0  0  0
   55.0882   24.1518   45.9093 C   0  0  0  0  0  0  0  0  0  0  0  0
   54.7695   22.8588   45.4855 C   0  0  0  0  0  0  0  0  0  0  0  0
   55.6480   21.8055   45.7336 C   0  0  0  0  0  0  0  0  0  0  0  0
   56.8427   22.0556   46.4081 C   0  0  0  0  0  0  0  0  0  0  0  0
   57.1385   23.3163   46.8173 N   0  0  0  0  0  0  0  0  0  0  0  0
   56.3023   24.3710   46.5900 C   0  0  0  0  0  0  0  0  0  0  0  0
   56.6042   25.5679   47.0057 N   0  0  0  0  0  0  0  0  0  0  0  0
   53.3985   25.0189   45.1839 H   0  0  0  0  0  0  0  0  0  0  0  0
   57.6460   30.6949   44.8359 C   0  0  0  0  0  0  0  0  0  0  0  0
   57.2153   30.7144   43.6500 O   0  0  0  0  0  0  0  0  0  0  0  0
   58.2761   31.9050   45.4112 C   0  0  0  0  0  0  0  0  0  0  0  0
   57.8837   33.1863   44.9855 C   0  0  0  0  0  0  0  0  0  0  0  0
   58.4675   34.3259   45.5446 C   0  0  0  0  0  0  0  0  0  0  0  0
   59.4534   34.2029   46.5234 C   0  0  0  0  0  0  0  0  0  0  0  0
   59.8630   32.9365   46.9526 C   0  0  0  0  0  0  0  0  0  0  0  0
   59.2679   31.7907   46.4027 C   0  0  0  0  0  0  0  0  0  0  0  0
   61.0833   32.7723   48.2125 S   0  0  0  0  0  0  0  0  0  0  0  0
   61.4924   34.1481   48.6596 O   0  0  0  0  0  0  0  0  0  0  0  0
   62.2871   32.0547   47.6661 O   0  0  0  0  0  0  0  0  0  0  0  0
   60.4480   31.8765   49.5744 N   0  0  0  0  0  0  0  0  0  0  0  0
   59.0612   32.2977   49.8474 C   0  0  0  0  0  0  0  0  0  0  0  0
   58.3786   31.3153   50.8180 C   0  0  0  0  0  0  0  0  0  0  0  0
   58.4512   29.9407   50.4523 O   0  0  0  0  0  0  0  0  0  0  0  0
   59.2198   29.7039   49.2899 C   0  0  0  0  0  0  0  0  0  0  0  0
   60.5769   30.4165   49.3524 C   0  0  0  0  0  0  0  0  0  0  0  0
 10 11  1  0
 11 12  2  0
 12 13  1  0
 13 14  2  0
 14 15  1  0
 15 16  1  0
 16 17  2  0
 17  8  1  0
  8  9  2  0
  8  2  1  0
  2  3  2  0
  3  4  1  0
  4  5  2  0
  5  6  1  0
  6  7  2  0
  7  1  1  0
  1 19  1  0
 19 20  2  0
 19 21  1  0
 21 22  2  0
 22 23  1  0
 23 24  2  0
 24 25  1  0
 25 27  1  0
 27 28  2  0
 27 29  2  0
 27 30  1  0
 30 31  1  0
 31 32  1  0
 32 33  1  0
 33 34  1  0
 34 35  1  0
 25 26  2  0
 16 11  1  0
  7  2  1  0
 26 21  1  0
 35 30  1  0
 10 18  1  0
M  CHG 1   1  -1
M  CHG 1  15  -1
M  END
> <UniqueID>
14

> <SMILES>
O=C([N-]c1ccccc1C(=O)/N=c1\[n-]cccc1O)c1cccc(S(=O)(=O)N2CCOCC2)c1

> <Energy>
82.39063521321722

> <Genealogy>
O=C([N-]c1ccccc1C(=O)N=c1[n-]cccc1O)c1cccc(S(=O)(=O)N2CCOCC2)c1 (protonated)
O=C([N-]c1ccccc1C(=O)/N=c1\[n-]cccc1O)c1cccc(S(=O)(=O)N2CCOCC2)c1 (cis-trans isomerization)
O=C([N-]c1ccccc1C(=O)/N=c1\[n-]cccc1O)c1cccc(S(=O)(=O)N2CCOCC2)c1 (3D coordinates assigned)
O=C([N-]c1ccccc1C(=O)/N=c1\[n-]cccc1O)c1cccc(S(=O)(=O)N2CCOCC2)c1 (nonaromatic ring conformer: 82.39063521321722 kcal/mol)

> <smiles>
O=C(Nc1ccccc1C(=O)N=c1[nH]cccc1O)c1cccc(S(=O)(=O)N2CCOCC2)c1

> <score_type>
oracle

> <origin>
adg

> <m_score__min__energy>
-14.640000000000001

> <m_primary>
energy

> <minimizedAffinity>
-8.71173

> <minimizedRMSD>
0.57795

> <CNNscore>
0.8111205697

> <CNNaffinity>
7.1863064766

> <CNN_VS>
5.8289608955

> <CNNaffinity_variance>
0.0650333837

$$$$
19:0


 25 27  0  0  0  0  0  0  0  0999 V2000
   59.7005   30.2558   47.7300 C   0  0  0  0  0  0  0  0  0  0  0  0
   59.0947   30.8803   46.7074 C   0  0  0  0  0  0  0  0  0  0  0  0
   58.8872   30.3549   45.4280 C   0  0  0  0  0  0  0  0  0  0  0  0
   59.1961   29.1201   44.9884 C   0  0  0  0  0  0  0  0  0  0  0  0
   58.2570   31.3498   44.6948 C   0  0  0  0  0  0  0  0  0  0  0  0
   58.1160   32.4335   45.5376 C   0  0  0  0  0  0  0  0  0  0  0  0
   57.4754   33.7320   45.1498 C   0  0  0  0  0  0  0  0  0  0  0  0
   58.6056   32.1475   46.7675 N   0  0  0  0  0  0  0  0  0  0  0  0
   58.6793   27.8787   45.6074 C   0  0  0  0  0  0  0  0  0  0  0  0
   57.2991   27.6273   45.6280 C   0  0  0  0  0  0  0  0  0  0  0  0
   56.4080   28.5165   45.0409 O   0  0  0  0  0  0  0  0  0  0  0  0
   56.8235   26.4989   46.2181 N   0  0  0  0  0  0  0  0  0  0  0  0
   57.6627   25.6087   46.8061 C   0  0  0  0  0  0  0  0  0  0  0  0
   57.1993   24.5688   47.3415 O   0  0  0  0  0  0  0  0  0  0  0  0
   58.9984   25.8419   46.8228 N   0  0  0  0  0  0  0  0  0  0  0  0
   59.5251   26.9551   46.2486 C   0  0  0  0  0  0  0  0  0  0  0  0
   60.7673   27.1550   46.3149 O   0  0  0  0  0  0  0  0  0  0  0  0
   58.6548   33.0718   47.9091 C   0  0  0  0  0  0  0  0  0  0  0  0
   59.6202   34.2232   47.6176 C   0  0  0  0  0  0  0  0  0  0  0  0
   61.0308   33.8310   47.9650 C   0  0  0  0  0  0  0  0  0  0  0  0
   61.9266   33.4393   46.9557 C   0  0  0  0  0  0  0  0  0  0  0  0
   63.2466   33.1077   47.2767 C   0  0  0  0  0  0  0  0  0  0  0  0
   63.6832   33.1733   48.6028 C   0  0  0  0  0  0  0  0  0  0  0  0
   62.8012   33.5748   49.6103 C   0  0  0  0  0  0  0  0  0  0  0  0
   61.4804   33.9081   49.2931 C   0  0  0  0  0  0  0  0  0  0  0  0
  1  2  2  0
  2  3  1  0
  3  4  2  0
  4  9  1  0
  9 10  2  0
 10 11  1  0
 10 12  1  0
 12 13  1  0
 13 14  2  0
 13 15  1  0
 15 16  1  0
 16 17  2  0
  3  5  1  0
  5  6  2  0
  6  7  1  0
  6  8  1  0
  8 18  1  0
 18 19  1  0
 19 20  1  0
 20 21  2  0
 21 22  1  0
 22 23  2  0
 23 24  1  0
 24 25  2  0
  8  2  1  0
 25 20  1  0
 16  9  1  0
M  CHG 1  11  -1
M  CHG 1  12  -1
M  CHG 1  15  -1
M  END
> <UniqueID>
19

> <SMILES>
C=c1c(=Cc2c([O-])[n-]c(=O)[n-]c2=O)cc(C)n1CCc1ccccc1

> <Energy>
78.69291836879458

> <Genealogy>
C=c1c(=Cc2c([O-])[n-]c(=O)[n-]c2=O)cc(C)n1CCc1ccccc1 (protonated)
C=c1c(=Cc2c([O-])[n-]c(=O)[n-]c2=O)cc(C)n1CCc1ccccc1 (3D coordinates assigned)
C=c1c(=Cc2c([O-])[n-]c(=O)[n-]c2=O)cc(C)n1CCc1ccccc1 (optimized conformer: 78.69291836879458 kcal/mol)

> <smiles>
C=c1c(=Cc2c(O)[nH]c(=O)[nH]c2=O)cc(C)n1CCc1ccccc1

> <score_type>
oracle

> <origin>
adg

> <m_score__min__energy>
-16.07

> <m_primary>
energy

> <minimizedAffinity>
-8.39864

> <minimizedRMSD>
1.08882

> <CNNscore>
0.8202915788

> <CNNaffinity>
7.1218781471

> <CNN_VS>
5.8420166969

> <CNNaffinity_variance>
0.1961371750

$$$$
23:0


 26 28  0  0  0  0  0  0  0  0999 V2000
   60.8021   29.3349   47.0045 N   0  0  0  0  0  0  0  0  0  0  0  0
   59.7113   28.6984   46.6815 C   0  0  0  0  0  0  0  0  0  0  0  0
   58.8165   29.2479   45.7950 N   0  0  0  0  0  0  0  0  0  0  0  0
   57.6633   28.6219   45.4203 C   0  0  0  0  0  0  0  0  0  0  0  0
   57.3931   27.3759   45.9806 C   0  0  0  0  0  0  0  0  0  0  0  0
   56.3216   26.5915   45.7881 N   0  0  0  0  0  0  0  0  0  0  0  0
   56.6051   25.5284   46.5816 C   0  0  0  0  0  0  0  0  0  0  0  0
   55.8313   24.5422   46.6887 O   0  0  0  0  0  0  0  0  0  0  0  0
   57.7808   25.6069   47.2543 N   0  0  0  0  0  0  0  0  0  0  0  0
   58.2615   26.7937   46.8508 C   0  0  0  0  0  0  0  0  0  0  0  0
   59.4600   27.4122   47.2259 C   0  0  0  0  0  0  0  0  0  0  0  0
   60.3962   26.7700   48.2132 C   0  0  0  0  0  0  0  0  0  0  0  0
   60.1413   33.0383   46.8582 C   0  0  0  0  0  0  0  0  0  0  0  0
   61.2983   33.5230   47.4835 C   0  0  0  0  0  0  0  0  0  0  0  0
   62.2628   32.6314   47.9607 C   0  0  0  0  0  0  0  0  0  0  0  0
   62.0868   31.2537   47.7980 C   0  0  0  0  0  0  0  0  0  0  0  0
   60.9555   30.7584   47.1396 C   0  0  0  0  0  0  0  0  0  0  0  0
   59.9674   31.6579   46.6969 C   0  0  0  0  0  0  0  0  0  0  0  0
   57.3483   33.4806   46.5289 N   0  0  0  0  0  0  0  0  0  0  0  0
   58.9174   34.1496   46.2538 S   0  0  0  0  0  0  0  0  0  0  0  0
   59.1094   34.3791   44.7811 O   0  0  0  0  0  0  0  0  0  0  0  0
   59.0356   35.4678   46.9675 O   0  0  0  0  0  0  0  0  0  0  0  0
   56.6383   34.1240   46.1790 H   0  0  0  0  0  0  0  0  0  0  0  0
   56.7075   29.2979   44.4810 C   0  0  0  0  0  0  0  0  0  0  0  0
   56.7262   30.6994   44.6829 O   0  0  0  0  0  0  0  0  0  0  0  0
   57.4339   31.3328   43.6398 C   0  0  0  0  0  0  0  0  0  0  0  0
 19 20  1  0
 20 21  2  0
 20 22  2  0
 20 13  1  0
 13 14  2  0
 14 15  1  0
 15 16  2  0
 16 17  1  0
 17  1  1  0
  1  2  2  0
  2  3  1  0
  3  4  1  0
  4 24  1  0
 24 25  1  0
 25 26  1  0
  4  5  2  0
  5  6  1  0
  6  7  1  0
  7  8  2  0
  7  9  1  0
  9 10  1  0
 10 11  2  0
 11 12  1  0
 17 18  2  0
 18 13  1  0
 11  2  1  0
 10  5  1  0
 19 23  1  0
M  CHG 1   3  -1
M  CHG 1   6  -1
M  CHG 1   9  -1
M  CHG 1  19  -1
M  END
> <UniqueID>
23

> <SMILES>
COCc1[n-]/c(=N\c2cccc(S([NH-])(=O)=O)c2)c(C)c2[n-]c(=O)[n-]c12

> <Energy>
82.82785741501311

> <Genealogy>
COCc1[n-]c(=Nc2cccc(S([NH-])(=O)=O)c2)c(C)c2[n-]c(=O)[n-]c12 (protonated)
COCc1[n-]/c(=N\c2cccc(S([NH-])(=O)=O)c2)c(C)c2[n-]c(=O)[n-]c12 (cis-trans isomerization)
COCc1[n-]/c(=N\c2cccc(S([NH-])(=O)=O)c2)c(C)c2[n-]c(=O)[n-]c12 (3D coordinates assigned)
COCc1[n-]/c(=N\c2cccc(S([NH-])(=O)=O)c2)c(C)c2[n-]c(=O)[n-]c12 (optimized conformer: 82.82785741501311 kcal/mol)

> <smiles>
COCc1[nH]c(=Nc2cccc(S(N)(=O)=O)c2)c(C)c2[nH]c(=O)[nH]c12

> <score_type>
oracle

> <origin>
adg

> <m_score__min__energy>
-14.75

> <m_primary>
energy

> <minimizedAffinity>
-7.76716

> <minimizedRMSD>
0.69116

> <CNNscore>
0.3859328926

> <CNNaffinity>
5.9377188683

> <CNN_VS>
2.2915611267

> <CNNaffinity_variance>
0.1671671122

$$$$
35:0


 32 35  0  0  0  0  0  0  0  0999 V2000
   60.1114   30.0614   47.6762 C   0  0  0  0  0  0  0  0  0  0  0  0
   61.1631   30.7110   47.0143 C   0  0  0  0  0  0  0  0  0  0  0  0
   61.9093   31.6956   47.6644 C   0  0  0  0  0  0  0  0  0  0  0  0
   61.6344   32.0311   48.9996 C   0  0  0  0  0  0  0  0  0  0  0  0
   60.5725   31.3915   49.6587 C   0  0  0  0  0  0  0  0  0  0  0  0
   59.8017   30.4223   49.0040 C   0  0  0  0  0  0  0  0  0  0  0  0
   60.5642   27.1332   47.9680 C   0  0  0  0  0  0  0  0  0  0  0  0
   59.6116   27.6558   47.1773 C   0  0  0  0  0  0  0  0  0  0  0  0
   58.6962   26.9419   46.3925 C   0  0  0  0  0  0  0  0  0  0  0  0
   58.5860   25.5990   46.2979 C   0  0  0  0  0  0  0  0  0  0  0  0
   57.9158   27.8959   45.7499 C   0  0  0  0  0  0  0  0  0  0  0  0
   58.3724   29.1315   46.1641 C   0  0  0  0  0  0  0  0  0  0  0  0
   57.7932   30.4404   45.7214 C   0  0  0  0  0  0  0  0  0  0  0  0
   59.4171   28.9882   47.0099 N   0  0  0  0  0  0  0  0  0  0  0  0
   57.4756   24.7824   46.8369 C   0  0  0  0  0  0  0  0  0  0  0  0
   57.5959   23.7303   47.6659 N   0  0  0  0  0  0  0  0  0  0  0  0
   56.3185   23.3617   47.8987 C   0  0  0  0  0  0  0  0  0  0  0  0
   56.0174   22.3907   48.6405 O   0  0  0  0  0  0  0  0  0  0  0  0
   55.3899   24.1164   47.2756 N   0  0  0  0  0  0  0  0  0  0  0  0
   56.1373   25.0114   46.6121 C   0  0  0  0  0  0  0  0  0  0  0  0
   55.6073   26.0206   45.8182 O   0  0  0  0  0  0  0  0  0  0  0  0
   62.4420   33.0651   49.6801 C   0  0  0  0  0  0  0  0  0  0  0  0
   62.0948   34.2739   49.6023 O   0  0  0  0  0  0  0  0  0  0  0  0
   63.6399   32.7343   50.3884 N   0  0  0  0  0  0  0  0  0  0  0  0
   64.5404   31.5807   50.5825 C   0  0  0  0  0  0  0  0  0  0  0  0
   65.6031   32.3292   51.3141 C   0  0  0  0  0  0  0  0  0  0  0  0
   64.6788   33.4840   51.1167 C   0  0  0  0  0  0  0  0  0  0  0  0
   58.7191   29.8174   49.7162 N   0  0  0  0  0  0  0  0  0  0  0  0
   58.3287   30.2213   51.3550 S   0  0  0  0  0  0  0  0  0  0  0  0
   56.9463   29.7164   51.6619 O   0  0  0  0  0  0  0  0  0  0  0  0
   58.3635   31.7096   51.5473 O   0  0  0  0  0  0  0  0  0  0  0  0
   59.4719   29.4339   52.4688 C   0  0  0  0  0  0  0  0  0  0  0  0
  7  8  2  0
  8  9  1  0
  9 10  2  0
 10 15  1  0
 15 16  1  0
 16 17  1  0
 17 18  2  0
 17 19  1  0
 19 20  1  0
 20 21  1  0
  9 11  1  0
 11 12  2  0
 12 13  1  0
 12 14  1  0
 14  1  1  0
  1  2  2  0
  2  3  1  0
  3  4  2  0
  4 22  1  0
 22 23  2  0
 22 24  1  0
 24 25  1  0
 25 26  1  0
 26 27  1  0
  4  5  1  0
  5  6  2  0
  6 28  1  0
 28 29  1  0
 29 30  2  0
 29 31  2  0
 29 32  1  0
 14  8  1  0
  6  1  1  0
 20 15  2  0
 27 24  1  0
M  CHG 1  16  -1
M  CHG 1  19  -1
M  CHG 1  21  -1
M  CHG 1  28  -1
M  END
> <UniqueID>
33

> <SMILES>
C=c1/c(=C/c2[n-]c(=O)[n-]c2[O-])cc(C)n1-c1ccc(C(=O)N2CCC2)cc1[N-]S(C)(=O)=O

> <Energy>
171.39306772579948

> <Genealogy>
C=c1c(=Cc2[n-]c(=O)[n-]c2[O-])cc(C)n1-c1ccc(C(=O)N2CCC2)cc1[N-]S(C)(=O)=O (protonated)
C=c1/c(=C/c2[n-]c(=O)[n-]c2[O-])cc(C)n1-c1ccc(C(=O)N2CCC2)cc1[N-]S(C)(=O)=O (cis-trans isomerization)
C=c1/c(=C/c2[n-]c(=O)[n-]c2[O-])cc(C)n1-c1ccc(C(=O)N2CCC2)cc1[N-]S(C)(=O)=O (3D coordinates assigned)
C=c1/c(=C/c2[n-]c(=O)[n-]c2[O-])cc(C)n1-c1ccc(C(=O)N2CCC2)cc1[N-]S(C)(=O)=O (nonaromatic ring conformer: 171.39306772579948 kcal/mol)

> <smiles>
C=c1c(=Cc2[nH]c(=O)[nH]c2O)cc(C)n1-c1ccc(C(=O)N2CCC2)cc1NS(C)(=O)=O

> <score_type>
oracle

> <origin>
adg

> <m_score__min__energy>
-17.920000000000002

> <m_primary>
energy

> <minimizedAffinity>
-7.69535

> <minimizedRMSD>
1.78282

> <CNNscore>
0.1962396055

> <CNNaffinity>
6.6710643768

> <CNN_VS>
1.3091270924

> <CNNaffinity_variance>
0.0313794352

$$$$
46:0


 33 36  0  0  0  0  0  0  0  0999 V2000
   61.2303   29.4861   49.4228 C   0  0  0  0  0  0  0  0  0  0  0  0
   60.6652   30.5343   48.8034 C   0  0  0  0  0  0  0  0  0  0  0  0
   60.3689   30.6271   47.4325 C   0  0  0  0  0  0  0  0  0  0  0  0
   60.3249   29.6823   46.4717 C   0  0  0  0  0  0  0  0  0  0  0  0
   60.0342   31.9478   47.1968 C   0  0  0  0  0  0  0  0  0  0  0  0
   60.0373   32.5851   48.4173 C   0  0  0  0  0  0  0  0  0  0  0  0
   59.7299   34.0409   48.6014 C   0  0  0  0  0  0  0  0  0  0  0  0
   60.4235   31.7354   49.4001 N   0  0  0  0  0  0  0  0  0  0  0  0
   59.2900   28.6308   46.3370 C   0  0  0  0  0  0  0  0  0  0  0  0
   58.0215   28.9546   45.8346 C   0  0  0  0  0  0  0  0  0  0  0  0
   57.7424   30.2461   45.3981 O   0  0  0  0  0  0  0  0  0  0  0  0
   57.0514   28.0064   45.7703 N   0  0  0  0  0  0  0  0  0  0  0  0
   57.2800   26.7382   46.1965 C   0  0  0  0  0  0  0  0  0  0  0  0
   56.3708   25.8723   46.1123 O   0  0  0  0  0  0  0  0  0  0  0  0
   58.4846   26.4070   46.7236 N   0  0  0  0  0  0  0  0  0  0  0  0
   59.4846   27.3208   46.8232 C   0  0  0  0  0  0  0  0  0  0  0  0
   60.5715   26.9866   47.3641 O   0  0  0  0  0  0  0  0  0  0  0  0
   60.4368   32.0497   50.8396 C   0  0  0  0  0  0  0  0  0  0  0  0
   59.2266   31.4513   51.5161 C   0  0  0  0  0  0  0  0  0  0  0  0
   59.3011   30.1907   52.1336 C   0  0  0  0  0  0  0  0  0  0  0  0
   58.1900   29.6585   52.7959 C   0  0  0  0  0  0  0  0  0  0  0  0
   56.9830   30.3792   52.8569 C   0  0  0  0  0  0  0  0  0  0  0  0
   56.9068   31.6322   52.2263 C   0  0  0  0  0  0  0  0  0  0  0  0
   58.0149   32.1582   51.5578 C   0  0  0  0  0  0  0  0  0  0  0  0
   55.8174   29.8456   53.5967 C   0  0  0  0  0  0  0  0  0  0  0  0
   55.8109   29.8649   54.8574 O   0  0  0  0  0  0  0  0  0  0  0  0
   54.6541   29.4231   52.8663 N   0  0  0  0  0  0  0  0  0  0  0  0
   53.4966   30.0118   52.7403 C   0  0  0  0  0  0  0  0  0  0  0  0
   52.4300   29.8223   53.6438 C   0  0  0  0  0  0  0  0  0  0  0  0
   51.2172   30.4842   53.4237 C   0  0  0  0  0  0  0  0  0  0  0  0
   51.0674   31.2979   52.3469 N   0  0  0  0  0  0  0  0  0  0  0  0
   52.0729   31.4898   51.4544 C   0  0  0  0  0  0  0  0  0  0  0  0
   53.2993   30.8465   51.6323 C   0  0  0  0  0  0  0  0  0  0  0  0
  1  2  2  0
  2  3  1  0
  3  4  2  0
  4  9  1  0
  9 10  2  0
 10 11  1  0
 10 12  1  0
 12 13  1  0
 13 14  2  0
 13 15  1  0
 15 16  1  0
 16 17  2  0
  3  5  1  0
  5  6  2  0
  6  7  1  0
  6  8  1  0
  8 18  1  0
 18 19  1  0
 19 20  2  0
 20 21  1  0
 21 22  2  0
 22 25  1  0
 25 26  2  0
 25 27  1  0
 27 28  2  0
 28 29  1  0
 29 30  2  0
 30 31  1  0
 31 32  1  0
 32 33  2  0
 22 23  1  0
 23 24  2  0
  8  2  1  0
 24 19  1  0
 16  9  1  0
 33 28  1  0
M  CHG 1  11  -1
M  CHG 1  12  -1
M  CHG 1  15  -1
M  CHG 1  31  -1
M  END
> <UniqueID>
42

> <SMILES>
C=c1c(=Cc2c([O-])[n-]c(=O)[n-]c2=O)cc(C)n1Cc1ccc(C(=O)N=c2cc[n-]cc2)cc1

> <Energy>
108.557631623308

> <Genealogy>
C=c1c(=Cc2c([O-])[n-]c(=O)[n-]c2=O)cc(C)n1Cc1ccc(C(=O)N=c2cc[n-]cc2)cc1 (protonated)
C=c1c(=Cc2c([O-])[n-]c(=O)[n-]c2=O)cc(C)n1Cc1ccc(C(=O)N=c2cc[n-]cc2)cc1 (3D coordinates assigned)
C=c1c(=Cc2c([O-])[n-]c(=O)[n-]c2=O)cc(C)n1Cc1ccc(C(=O)N=c2cc[n-]cc2)cc1 (optimized conformer: 108.557631623308 kcal/mol)

> <smiles>
C=c1c(=Cc2c(O)[nH]c(=O)[nH]c2=O)cc(C)n1Cc1ccc(C(=O)N=c2cc[nH]cc2)cc1

> <score_type>
oracle

> <origin>
adg

> <m_score__min__energy>
-19.239999999999998

> <m_primary>
energy

> <minimizedAffinity>
-8.38345

> <minimizedRMSD>
1.48243

> <CNNscore>
0.5319098234

> <CNNaffinity>
7.2136521339

> <CNN_VS>
3.8370125294

> <CNNaffinity_variance>
0.0905486420

$$$$
50:0


 32 35  0  0  0  0  0  0  0  0999 V2000
   59.7846   26.3211   46.4865 O   0  0  0  0  0  0  0  0  0  0  0  0
   58.8129   26.4996   45.7056 C   0  0  0  0  0  0  0  0  0  0  0  0
   57.5773   25.7029   45.8901 C   0  0  0  0  0  0  0  0  0  0  0  0
   56.3259   26.3256   45.9811 C   0  0  0  0  0  0  0  0  0  0  0  0
   56.2140   27.7106   45.9652 O   0  0  0  0  0  0  0  0  0  0  0  0
   55.2040   25.5742   46.1008 N   0  0  0  0  0  0  0  0  0  0  0  0
   55.2578   24.2192   46.1401 C   0  0  0  0  0  0  0  0  0  0  0  0
   54.1842   23.5695   46.2572 O   0  0  0  0  0  0  0  0  0  0  0  0
   56.4643   23.5735   46.0628 N   0  0  0  0  0  0  0  0  0  0  0  0
   57.6227   24.2985   45.9454 C   0  0  0  0  0  0  0  0  0  0  0  0
   58.7344   23.7057   45.8492 O   0  0  0  0  0  0  0  0  0  0  0  0
   56.5129   22.1324   46.0870 C   0  0  0  0  0  0  0  0  0  0  0  0
   56.7030   21.4512   47.3009 C   0  0  0  0  0  0  0  0  0  0  0  0
   56.7459   20.0537   47.3244 C   0  0  0  0  0  0  0  0  0  0  0  0
   56.5995   19.3286   46.1387 C   0  0  0  0  0  0  0  0  0  0  0  0
   56.4091   20.0005   44.9265 C   0  0  0  0  0  0  0  0  0  0  0  0
   56.3650   21.3965   44.8998 C   0  0  0  0  0  0  0  0  0  0  0  0
   58.9237   27.5006   44.6819 N   0  0  0  0  0  0  0  0  0  0  0  0
   58.5612   28.8838   44.8056 C   0  0  0  0  0  0  0  0  0  0  0  0
   57.6906   29.4416   43.8616 C   0  0  0  0  0  0  0  0  0  0  0  0
   57.3219   30.7861   43.9501 C   0  0  0  0  0  0  0  0  0  0  0  0
   57.8104   31.5806   44.9898 C   0  0  0  0  0  0  0  0  0  0  0  0
   58.6558   31.0277   45.9621 C   0  0  0  0  0  0  0  0  0  0  0  0
   59.0214   29.6774   45.8703 C   0  0  0  0  0  0  0  0  0  0  0  0
   59.2883   32.0293   47.2741 S   0  0  0  0  0  0  0  0  0  0  0  0
   59.0806   31.3123   48.5796 O   0  0  0  0  0  0  0  0  0  0  0  0
   58.5110   33.3172   47.3216 O   0  0  0  0  0  0  0  0  0  0  0  0
   60.9872   32.3962   47.0925 N   0  0  0  0  0  0  0  0  0  0  0  0
   61.3571   33.6362   47.7700 C   0  0  0  0  0  0  0  0  0  0  0  0
   62.8393   33.5226   48.0933 C   0  0  0  0  0  0  0  0  0  0  0  0
   63.1574   32.0362   48.0157 C   0  0  0  0  0  0  0  0  0  0  0  0
   61.8378   31.3622   47.6764 C   0  0  0  0  0  0  0  0  0  0  0  0
  1  2  2  0
  2 18  1  0
 18 19  1  0
 19 20  2  0
 20 21  1  0
 21 22  2  0
 22 23  1  0
 23 25  1  0
 25 26  2  0
 25 27  2  0
 25 28  1  0
 28 29  1  0
 29 30  1  0
 30 31  1  0
 31 32  1  0
 23 24  2  0
  2  3  1  0
  3  4  2  0
  4  5  1  0
  4  6  1  0
  6  7  1  0
  7  8  2  0
  7  9  1  0
  9 12  1  0
 12 13  2  0
 13 14  1  0
 14 15  2  0
 15 16  1  0
 16 17  2  0
  9 10  1  0
 10 11  2  0
 24 19  1  0
 10  3  1  0
 32 28  1  0
 17 12  1  0
M  CHG 1   5  -1
M  CHG 1   6  -1
M  CHG 1  18  -1
M  END
> <UniqueID>
45

> <SMILES>
O=C([N-]c1cccc(S(=O)(=O)N2CCCC2)c1)c1c([O-])[n-]c(=O)n(-c2ccccc2)c1=O

> <Energy>
73.22678730289321

> <Genealogy>
O=C([N-]c1cccc(S(=O)(=O)N2CCCC2)c1)c1c([O-])[n-]c(=O)n(-c2ccccc2)c1=O (protonated)
O=C([N-]c1cccc(S(=O)(=O)N2CCCC2)c1)c1c([O-])[n-]c(=O)n(-c2ccccc2)c1=O (3D coordinates assigned)
O=C([N-]c1cccc(S(=O)(=O)N2CCCC2)c1)c1c([O-])[n-]c(=O)n(-c2ccccc2)c1=O (nonaromatic ring conformer: 73.22678730289321 kcal/mol)

> <smiles>
O=C(Nc1cccc(S(=O)(=O)N2CCCC2)c1)c1c(O)[nH]c(=O)n(-c2ccccc2)c1=O

> <score_type>
oracle

> <origin>
adg

> <m_score__min__energy>
-15.35

> <m_primary>
energy

> <minimizedAffinity>
-7.44385

> <minimizedRMSD>
1.30194

> <CNNscore>
0.1438406110

> <CNNaffinity>
6.4028019905

> <CNN_VS>
0.9209829569

> <CNNaffinity_variance>
0.0560287237

$$$$
53:0


 29 32  0  0  0  0  0  0  0  0999 V2000
   56.6508   31.4406   52.8422 C   0  0  0  0  0  0  0  0  0  0  0  0
   56.6664   30.2145   53.3871 C   0  0  0  0  0  0  0  0  0  0  0  0
   55.6426   29.6251   54.1384 C   0  0  0  0  0  0  0  0  0  0  0  0
   54.4274   30.1411   54.4057 C   0  0  0  0  0  0  0  0  0  0  0  0
   56.1073   28.3700   54.5120 C   0  0  0  0  0  0  0  0  0  0  0  0
   57.3763   28.2442   53.9839 C   0  0  0  0  0  0  0  0  0  0  0  0
   58.2477   27.0341   54.1367 C   0  0  0  0  0  0  0  0  0  0  0  0
   57.7207   29.3654   53.3124 N   0  0  0  0  0  0  0  0  0  0  0  0
   53.2798   30.0662   53.4827 C   0  0  0  0  0  0  0  0  0  0  0  0
   53.4041   30.1029   52.1452 N   0  0  0  0  0  0  0  0  0  0  0  0
   52.1265   30.0948   51.7086 C   0  0  0  0  0  0  0  0  0  0  0  0
   51.8263   30.1080   50.4863 O   0  0  0  0  0  0  0  0  0  0  0  0
   51.1946   30.0809   52.6855 N   0  0  0  0  0  0  0  0  0  0  0  0
   51.9387   30.0758   53.8035 C   0  0  0  0  0  0  0  0  0  0  0  0
   51.4016   30.1279   55.0842 O   0  0  0  0  0  0  0  0  0  0  0  0
   58.9617   29.5807   52.6184 C   0  0  0  0  0  0  0  0  0  0  0  0
   58.9932   29.5510   51.2161 C   0  0  0  0  0  0  0  0  0  0  0  0
   60.1996   29.7516   50.5204 C   0  0  0  0  0  0  0  0  0  0  0  0
   61.3776   29.9767   51.2557 C   0  0  0  0  0  0  0  0  0  0  0  0
   61.3472   30.0086   52.6521 C   0  0  0  0  0  0  0  0  0  0  0  0
   60.1442   29.8125   53.3342 C   0  0  0  0  0  0  0  0  0  0  0  0
   60.1265   29.8679   54.6892 F   0  0  0  0  0  0  0  0  0  0  0  0
   60.2294   29.7230   49.0757 N   0  0  0  0  0  0  0  0  0  0  0  0
   60.2406   28.4436   48.3567 C   0  0  0  0  0  0  0  0  0  0  0  0
   59.6858   28.6252   46.9392 C   0  0  0  0  0  0  0  0  0  0  0  0
   60.4278   29.6404   46.1721 N   0  0  0  0  0  0  0  0  0  0  0  0
   60.9359   30.7782   46.9664 C   0  0  0  0  0  0  0  0  0  0  0  0
   60.2004   30.9704   48.3009 C   0  0  0  0  0  0  0  0  0  0  0  0
   59.8062   30.0098   45.4527 H   0  0  0  0  0  0  0  0  0  0  0  0
  1  2  2  0
  2  3  1  0
  3  4  2  0
  4  9  1  0
  9 10  1  0
 10 11  1  0
 11 12  2  0
 11 13  1  0
 13 14  1  0
 14 15  1  0
  3  5  1  0
  5  6  2  0
  6  7  1  0
  6  8  1  0
  8 16  1  0
 16 17  2  0
 17 18  1  0
 18 23  1  0
 23 24  1  0
 24 25  1  0
 25 26  1  0
 26 27  1  0
 27 28  1  0
 18 19  2  0
 19 20  1  0
 20 21  2  0
 21 22  1  0
  8  2  1  0
 21 16  1  0
 14  9  2  0
 28 23  1  0
 26 29  1  0
M  CHG 1  10  -1
M  CHG 1  13  -1
M  CHG 1  15  -1
M  END
> <UniqueID>
48

> <SMILES>
C=c1/c(=C/c2[n-]c(=O)[n-]c2[O-])cc(C)n1-c1cc(N2CCNCC2)ccc1F

> <Energy>
128.92858072512598

> <Genealogy>
C=c1c(=Cc2[n-]c(=O)[n-]c2[O-])cc(C)n1-c1cc(N2CCNCC2)ccc1F (protonated)
C=c1/c(=C/c2[n-]c(=O)[n-]c2[O-])cc(C)n1-c1cc(N2CCNCC2)ccc1F (cis-trans isomerization)
C=c1/c(=C/c2[n-]c(=O)[n-]c2[O-])cc(C)n1-c1cc(N2CCNCC2)ccc1F (3D coordinates assigned)
C=c1/c(=C/c2[n-]c(=O)[n-]c2[O-])cc(C)n1-c1cc(N2CCNCC2)ccc1F (nonaromatic ring conformer: 128.92858072512598 kcal/mol)

> <smiles>
C=c1c(=Cc2[nH]c(=O)[nH]c2O)cc(C)n1-c1cc(N2CCNCC2)ccc1F

> <score_type>
oracle

> <origin>
adg

> <m_score__min__energy>
-16

> <m_primary>
energy

> <minimizedAffinity>
-5.68484

> <minimizedRMSD>
2.43074

> <CNNscore>
0.0477147661

> <CNNaffinity>
5.1620502472

> <CNN_VS>
0.2463060170

> <CNNaffinity_variance>
0.1006491706

$$$$
59:0


 33 36  0  0  0  0  0  0  0  0999 V2000
   57.8418   30.8243   52.6357 C   0  0  0  0  0  0  0  0  0  0  0  0
   58.7903   29.9499   52.0726 C   0  0  0  0  0  0  0  0  0  0  0  0
   59.8268   30.4464   51.2785 C   0  0  0  0  0  0  0  0  0  0  0  0
   59.9359   31.8239   51.0412 C   0  0  0  0  0  0  0  0  0  0  0  0
   59.0033   32.6993   51.6107 C   0  0  0  0  0  0  0  0  0  0  0  0
   57.9674   32.2030   52.4077 C   0  0  0  0  0  0  0  0  0  0  0  0
   58.0603   29.9398   55.4292 O   0  0  0  0  0  0  0  0  0  0  0  0
   56.9335   30.1876   54.9205 C   0  0  0  0  0  0  0  0  0  0  0  0
   56.7957   30.3472   53.5007 N   0  0  0  0  0  0  0  0  0  0  0  0
   55.9302   30.1155   53.0928 H   0  0  0  0  0  0  0  0  0  0  0  0
   55.7304   30.2941   55.8075 C   0  0  0  0  0  0  0  0  0  0  0  0
   54.6469   29.4470   55.3140 N   0  0  0  0  0  0  0  0  0  0  0  0
   53.3577   29.8825   54.8540 C   0  0  0  0  0  0  0  0  0  0  0  0
   52.4266   29.9979   55.6947 O   0  0  0  0  0  0  0  0  0  0  0  0
   53.0879   30.2500   53.4524 C   0  0  0  0  0  0  0  0  0  0  0  0
   53.8014   29.8294   52.3409 C   0  0  0  0  0  0  0  0  0  0  0  0
   53.1827   30.3948   51.2486 C   0  0  0  0  0  0  0  0  0  0  0  0
   52.1225   31.1118   51.7518 C   0  0  0  0  0  0  0  0  0  0  0  0
   51.2263   31.8426   50.9835 O   0  0  0  0  0  0  0  0  0  0  0  0
   52.0443   31.0252   53.0931 N   0  0  0  0  0  0  0  0  0  0  0  0
   61.2413   32.4510   50.0318 S   0  0  0  0  0  0  0  0  0  0  0  0
   61.7989   33.6963   50.6658 O   0  0  0  0  0  0  0  0  0  0  0  0
   62.3463   31.4341   49.9580 O   0  0  0  0  0  0  0  0  0  0  0  0
   60.6825   32.8233   48.4191 N   0  0  0  0  0  0  0  0  0  0  0  0
   60.0591   34.1555   48.3977 C   0  0  0  0  0  0  0  0  0  0  0  0
   59.7964   34.5738   46.9501 C   0  0  0  0  0  0  0  0  0  0  0  0
   59.1234   33.4772   46.1649 C   0  0  0  0  0  0  0  0  0  0  0  0
   58.5427   33.7740   44.9226 C   0  0  0  0  0  0  0  0  0  0  0  0
   57.9558   32.7629   44.1575 C   0  0  0  0  0  0  0  0  0  0  0  0
   57.9494   31.4462   44.6231 C   0  0  0  0  0  0  0  0  0  0  0  0
   58.5358   31.1364   45.8534 C   0  0  0  0  0  0  0  0  0  0  0  0
   59.1440   32.1409   46.6215 C   0  0  0  0  0  0  0  0  0  0  0  0
   59.7174   31.8016   47.9768 C   0  0  0  0  0  0  0  0  0  0  0  0
  7  8  2  0
  8 11  1  0
 11 12  1  0
 12 13  1  0
 13 14  2  0
 13 15  1  0
 15 16  2  0
 16 17  1  0
 17 18  2  0
 18 19  1  0
 18 20  1  0
  8  9  1  0
  9  1  1  0
  1  2  2  0
  2  3  1  0
  3  4  2  0
  4 21  1  0
 21 22  2  0
 21 23  2  0
 21 24  1  0
 24 25  1  0
 25 26  1  0
 26 27  1  0
 27 28  2  0
 28 29  1  0
 29 30  2  0
 30 31  1  0
 31 32  2  0
 32 33  1  0
  4  5  1  0
  5  6  2  0
 20 15  1  0
  6  1  1  0
 33 24  1  0
 32 27  1  0
  9 10  1  0
M  CHG 1  12  -1
M  CHG 1  19  -1
M  CHG 1  20  -1
M  END
> <UniqueID>
54

> <SMILES>
O=C(C[N-]C(=O)c1ccc([O-])[n-]1)Nc1ccc(S(=O)(=O)N2CCc3ccccc3C2)cc1

> <Energy>
83.042828299458

> <Genealogy>
O=C(C[N-]C(=O)c1ccc([O-])[n-]1)Nc1ccc(S(=O)(=O)N2CCc3ccccc3C2)cc1 (protonated)
O=C(C[N-]C(=O)c1ccc([O-])[n-]1)Nc1ccc(S(=O)(=O)N2CCc3ccccc3C2)cc1 (3D coordinates assigned)
O=C(C[N-]C(=O)c1ccc([O-])[n-]1)Nc1ccc(S(=O)(=O)N2CCc3ccccc3C2)cc1 (nonaromatic ring conformer: 83.042828299458 kcal/mol)

> <smiles>
O=C(CNC(=O)c1ccc(O)[nH]1)Nc1ccc(S(=O)(=O)N2CCc3ccccc3C2)cc1

> <score_type>
oracle

> <origin>
adg

> <m_score__min__energy>
-17.34

> <m_primary>
energy

> <minimizedAffinity>
-7.75597

> <minimizedRMSD>
1.79523

> <CNNscore>
0.3422026038

> <CNNaffinity>
6.1036300659

> <CNN_VS>
2.0886781216

> <CNNaffinity_variance>
0.0888649151

$$$$
60:0


 32 35  0  0  0  0  0  0  0  0999 V2000
   57.5358   29.6601   45.3005 C   0  0  0  0  0  0  0  0  0  0  0  0
   58.5674   28.6007   45.2988 N   0  0  0  0  0  0  0  0  0  0  0  0
   58.9464   28.1005   46.6435 C   0  0  0  0  0  0  0  0  0  0  0  0
   58.2463   26.7802   47.0194 C   0  0  0  0  0  0  0  0  0  0  0  0
   58.2574   25.8227   45.9096 N   0  0  0  0  0  0  0  0  0  0  0  0
   57.6184   24.5443   46.0856 C   0  0  0  0  0  0  0  0  0  0  0  0
   57.6664   23.9787   47.2121 O   0  0  0  0  0  0  0  0  0  0  0  0
   58.8940   26.2049   44.6467 C   0  0  0  0  0  0  0  0  0  0  0  0
   58.3746   27.5829   44.2369 C   0  0  0  0  0  0  0  0  0  0  0  0
   56.9007   23.8676   44.9487 C   0  0  0  0  0  0  0  0  0  0  0  0
   55.5452   23.3826   45.3703 C   0  0  0  0  0  0  0  0  0  0  0  0
   55.2001   22.0857   45.4602 N   0  0  0  0  0  0  0  0  0  0  0  0
   53.9300   22.1358   45.9201 C   0  0  0  0  0  0  0  0  0  0  0  0
   53.2456   21.1020   46.1350 O   0  0  0  0  0  0  0  0  0  0  0  0
   53.4525   23.3811   46.1367 N   0  0  0  0  0  0  0  0  0  0  0  0
   54.4904   24.1580   45.7872 C   0  0  0  0  0  0  0  0  0  0  0  0
   54.4772   25.5449   45.8566 O   0  0  0  0  0  0  0  0  0  0  0  0
   59.3158   32.6168   46.5888 C   0  0  0  0  0  0  0  0  0  0  0  0
   58.7063   33.4095   45.6177 C   0  0  0  0  0  0  0  0  0  0  0  0
   57.7135   32.4196   44.6911 S   0  0  0  0  0  0  0  0  0  0  0  0
   58.0978   31.0294   45.5573 C   0  0  0  0  0  0  0  0  0  0  0  0
   58.9771   31.2982   46.5452 N   0  0  0  0  0  0  0  0  0  0  0  0
   60.3951   34.3939   47.7151 O   0  0  0  0  0  0  0  0  0  0  0  0
   60.2507   33.1459   47.5964 C   0  0  0  0  0  0  0  0  0  0  0  0
   60.9584   32.2493   48.4692 N   0  0  0  0  0  0  0  0  0  0  0  0
   60.6688   31.3088   48.4984 H   0  0  0  0  0  0  0  0  0  0  0  0
   62.0632   32.6410   49.3022 C   0  0  0  0  0  0  0  0  0  0  0  0
   61.8591   33.2293   50.5654 C   0  0  0  0  0  0  0  0  0  0  0  0
   62.9510   33.6226   51.3453 C   0  0  0  0  0  0  0  0  0  0  0  0
   64.2528   33.4475   50.8689 C   0  0  0  0  0  0  0  0  0  0  0  0
   64.4627   32.8871   49.6067 C   0  0  0  0  0  0  0  0  0  0  0  0
   63.3741   32.4906   48.8242 C   0  0  0  0  0  0  0  0  0  0  0  0
 23 24  2  0
 24 25  1  0
 25 27  1  0
 27 28  2  0
 28 29  1  0
 29 30  2  0
 30 31  1  0
 31 32  2  0
 24 18  1  0
 18 19  2  0
 19 20  1  0
 20 21  1  0
 21  1  1  0
  1  2  1  0
  2  3  1  0
  3  4  1  0
  4  5  1  0
  5  6  1  0
  6  7  2  0
  6 10  1  0
 10 11  1  0
 11 12  1  0
 12 13  1  0
 13 14  2  0
 13 15  1  0
 15 16  1  0
 16 17  1  0
  5  8  1  0
  8  9  1  0
 21 22  2  0
 32 27  1  0
 22 18  1  0
  9  2  1  0
 16 11  2  0
 25 26  1  0
M  CHG 1  12  -1
M  CHG 1  15  -1
M  CHG 1  17  -1
M  END
> <UniqueID>
55

> <SMILES>
O=C(Nc1ccccc1)c1csc(CN2CCN(C(=O)Cc3[n-]c(=O)[n-]c3[O-])CC2)n1

> <Energy>
123.6316764817201

> <Genealogy>
O=C(Nc1ccccc1)c1csc(CN2CCN(C(=O)Cc3[n-]c(=O)[n-]c3[O-])CC2)n1 (protonated)
O=C(Nc1ccccc1)c1csc(CN2CCN(C(=O)Cc3[n-]c(=O)[n-]c3[O-])CC2)n1 (3D coordinates assigned)
O=C(Nc1ccccc1)c1csc(CN2CCN(C(=O)Cc3[n-]c(=O)[n-]c3[O-])CC2)n1 (nonaromatic ring conformer: 123.6316764817201 kcal/mol)

> <smiles>
O=C(Nc1ccccc1)c1csc(CN2CCN(C(=O)Cc3[nH]c(=O)[nH]c3O)CC2)n1

> <score_type>
oracle

> <origin>
adg

> <m_score__min__energy>
-16.09

> <m_primary>
energy

> <minimizedAffinity>
-7.02150

> <minimizedRMSD>
0.90505

> <CNNscore>
0.1482761651

> <CNNaffinity>
6.7094950676

> <CNN_VS>
0.9948582053

> <CNNaffinity_variance>
0.0692443773

$$$$
61:0


 31 34  0  0  0  0  0  0  0  0999 V2000
   59.9700   31.6484   47.4640 C   0  0  0  0  0  0  0  0  0  0  0  0
   61.3529   31.5755   47.2475 C   0  0  0  0  0  0  0  0  0  0  0  0
   62.2385   32.1997   48.1294 C   0  0  0  0  0  0  0  0  0  0  0  0
   61.7534   32.8950   49.2495 C   0  0  0  0  0  0  0  0  0  0  0  0
   60.3670   32.9812   49.4550 C   0  0  0  0  0  0  0  0  0  0  0  0
   59.4807   32.3579   48.5719 C   0  0  0  0  0  0  0  0  0  0  0  0
   58.1443   32.4385   48.7968 F   0  0  0  0  0  0  0  0  0  0  0  0
   62.6955   33.5629   50.1749 C   0  0  0  0  0  0  0  0  0  0  0  0
   62.9506   34.7865   50.0109 O   0  0  0  0  0  0  0  0  0  0  0  0
   63.3405   32.8396   51.2414 N   0  0  0  0  0  0  0  0  0  0  0  0
   63.6462   33.5070   52.5128 C   0  0  0  0  0  0  0  0  0  0  0  0
   65.1528   33.4101   52.8363 C   0  0  0  0  0  0  0  0  0  0  0  0
   65.8247   32.2757   52.1716 N   0  0  0  0  0  0  0  0  0  0  0  0
   64.9343   31.1202   52.0178 C   0  0  0  0  0  0  0  0  0  0  0  0
   63.8248   31.4688   51.0214 C   0  0  0  0  0  0  0  0  0  0  0  0
   66.6310   31.9974   52.7309 H   0  0  0  0  0  0  0  0  0  0  0  0
   58.8967   28.8897   47.6305 C   0  0  0  0  0  0  0  0  0  0  0  0
   58.6257   29.7155   46.6082 C   0  0  0  0  0  0  0  0  0  0  0  0
   57.7473   29.4806   45.5367 C   0  0  0  0  0  0  0  0  0  0  0  0
   57.1209   28.3567   45.1373 C   0  0  0  0  0  0  0  0  0  0  0  0
   57.6071   30.6906   44.8774 C   0  0  0  0  0  0  0  0  0  0  0  0
   58.4419   31.5909   45.5084 C   0  0  0  0  0  0  0  0  0  0  0  0
   58.6040   33.0259   45.1108 C   0  0  0  0  0  0  0  0  0  0  0  0
   59.0610   31.0016   46.5561 N   0  0  0  0  0  0  0  0  0  0  0  0
   57.5246   26.9838   45.4745 C   0  0  0  0  0  0  0  0  0  0  0  0
   58.8001   26.5579   45.4585 N   0  0  0  0  0  0  0  0  0  0  0  0
   58.7177   25.3023   45.9496 C   0  0  0  0  0  0  0  0  0  0  0  0
   59.7227   24.5570   46.0756 O   0  0  0  0  0  0  0  0  0  0  0  0
   57.4740   24.9126   46.3067 N   0  0  0  0  0  0  0  0  0  0  0  0
   56.7336   25.9935   46.0144 C   0  0  0  0  0  0  0  0  0  0  0  0
   55.3688   26.0829   46.2607 O   0  0  0  0  0  0  0  0  0  0  0  0
 17 18  2  0
 18 19  1  0
 19 20  2  0
 20 25  1  0
 25 26  1  0
 26 27  1  0
 27 28  2  0
 27 29  1  0
 29 30  1  0
 30 31  1  0
 19 21  1  0
 21 22  2  0
 22 23  1  0
 22 24  1  0
 24  1  1  0
  1  2  2  0
  2  3  1  0
  3  4  2  0
  4  8  1  0
  8  9  2  0
  8 10  1  0
 10 11  1  0
 11 12  1  0
 12 13  1  0
 13 14  1  0
 14 15  1  0
  4  5  1  0
  5  6  2  0
  6  7  1  0
 24 18  1  0
  6  1  1  0
 30 25  2  0
 15 10  1  0
 13 16  1  0
M  CHG 1  26  -1
M  CHG 1  29  -1
M  CHG 1  31  -1
M  END
> <UniqueID>
56

> <SMILES>
C=c1/c(=C\c2[n-]c(=O)[n-]c2[O-])cc(C)n1-c1ccc(C(=O)N2CCNCC2)cc1F

> <Energy>
137.33972385888205

> <Genealogy>
C=c1c(=Cc2[n-]c(=O)[n-]c2[O-])cc(C)n1-c1ccc(C(=O)N2CCNCC2)cc1F (protonated)
C=c1/c(=C\c2[n-]c(=O)[n-]c2[O-])cc(C)n1-c1ccc(C(=O)N2CCNCC2)cc1F (cis-trans isomerization)
C=c1/c(=C\c2[n-]c(=O)[n-]c2[O-])cc(C)n1-c1ccc(C(=O)N2CCNCC2)cc1F (3D coordinates assigned)
C=c1/c(=C\c2[n-]c(=O)[n-]c2[O-])cc(C)n1-c1ccc(C(=O)N2CCNCC2)cc1F (nonaromatic ring conformer: 137.33972385888205 kcal/mol)

> <smiles>
C=c1c(=Cc2[nH]c(=O)[nH]c2O)cc(C)n1-c1ccc(C(=O)N2CCNCC2)cc1F

> <score_type>
oracle

> <origin>
adg

> <m_score__min__energy>
-15.74

> <m_primary>
energy

> <minimizedAffinity>
-8.26867

> <minimizedRMSD>
1.01230

> <CNNscore>
0.5816193819

> <CNNaffinity>
7.1682152748

> <CNN_VS>
4.1691727638

> <CNNaffinity_variance>
0.2218267173

$$$$
65:0


 33 36  0  0  0  0  0  0  0  0999 V2000
   58.4745   32.4125   46.9295 C   0  0  0  0  0  0  0  0  0  0  0  0
   58.1384   33.2128   45.8256 C   0  0  0  0  0  0  0  0  0  0  0  0
   57.9046   32.6268   44.5776 C   0  0  0  0  0  0  0  0  0  0  0  0
   58.0191   31.2434   44.4212 C   0  0  0  0  0  0  0  0  0  0  0  0
   58.3657   30.4383   45.5160 C   0  0  0  0  0  0  0  0  0  0  0  0
   58.5772   31.0234   46.7705 C   0  0  0  0  0  0  0  0  0  0  0  0
   58.6047   29.0361   45.3345 N   0  0  0  0  0  0  0  0  0  0  0  0
   59.7941   28.4215   45.5007 C   0  0  0  0  0  0  0  0  0  0  0  0
   61.0667   29.1155   45.8792 C   0  0  0  0  0  0  0  0  0  0  0  0
   59.6547   27.0563   45.3511 C   0  0  0  0  0  0  0  0  0  0  0  0
   58.3115   26.8211   45.0831 C   0  0  0  0  0  0  0  0  0  0  0  0
   57.7419   25.6227   44.8415 C   0  0  0  0  0  0  0  0  0  0  0  0
   57.6878   28.0729   45.0785 C   0  0  0  0  0  0  0  0  0  0  0  0
   56.3826   28.3189   44.8805 C   0  0  0  0  0  0  0  0  0  0  0  0
   57.1258   24.7826   45.8837 C   0  0  0  0  0  0  0  0  0  0  0  0
   57.7421   23.7257   46.4409 N   0  0  0  0  0  0  0  0  0  0  0  0
   56.8067   23.2216   47.2738 C   0  0  0  0  0  0  0  0  0  0  0  0
   57.0199   22.2214   48.0086 O   0  0  0  0  0  0  0  0  0  0  0  0
   55.6245   23.8731   47.2620 N   0  0  0  0  0  0  0  0  0  0  0  0
   55.8380   24.8511   46.3686 C   0  0  0  0  0  0  0  0  0  0  0  0
   54.8609   25.7560   45.9727 O   0  0  0  0  0  0  0  0  0  0  0  0
   58.7947   33.0185   48.2345 C   0  0  0  0  0  0  0  0  0  0  0  0
   58.3777   32.4385   49.2770 O   0  0  0  0  0  0  0  0  0  0  0  0
   61.8930   32.7414   48.1849 C   0  0  0  0  0  0  0  0  0  0  0  0
   61.7999   33.7019   49.3847 C   0  0  0  0  0  0  0  0  0  0  0  0
   60.4066   34.3677   49.5286 C   0  0  0  0  0  0  0  0  0  0  0  0
   59.5502   34.2623   48.3165 N   0  0  0  0  0  0  0  0  0  0  0  0
   60.3559   34.5047   47.0986 C   0  0  0  0  0  0  0  0  0  0  0  0
   61.4526   33.4399   46.8793 C   0  0  0  0  0  0  0  0  0  0  0  0
   59.9197   35.0280   48.8130 H   0  0  0  0  0  0  0  0  0  0  0  0
   64.0353   32.8473   47.0448 O   0  0  0  0  0  0  0  0  0  0  0  0
   63.3146   32.1658   48.0367 C   0  0  0  0  0  0  0  0  0  0  0  0
   64.9244   32.4663   46.9718 H   0  0  0  0  0  0  0  0  0  0  0  0
 31 32  1  0
 24 32  1  0
 24 25  1  0
 25 26  1  0
 26 27  1  0
 27 22  1  0
 22 23  2  0
 22  1  1  0
  1  2  2  0
  2  3  1  0
  3  4  2  0
  4  5  1  0
  5  7  1  0
  7  8  1  0
  8  9  1  0
  8 10  2  0
 10 11  1  0
 11 12  2  0
 12 15  1  0
 15 16  1  0
 16 17  1  0
 17 18  2  0
 17 19  1  0
 19 20  1  0
 20 21  1  0
 11 13  1  0
 13 14  2  0
  5  6  2  0
 27 28  1  0
 28 29  1  0
 29 24  1  0
  6  1  1  0
 13  7  1  0
 20 15  2  0
 31 33  1  0
 27 30  1  0
M  CHG 1  16  -1
M  CHG 1  19  -1
M  CHG 1  21  -1
M  CHG 1  27   1
M  END
> <UniqueID>
60

> <SMILES>
C=c1/c(=C/c2[n-]c(=O)[n-]c2[O-])cc(C)n1-c1cccc(C(=O)[NH+]2CCC(CO)CC2)c1

> <Energy>
145.49568738863312

> <Genealogy>
C=c1c(=Cc2[n-]c(=O)[n-]c2[O-])cc(C)n1-c1cccc(C(=O)[NH+]2CCC(CO)CC2)c1 (protonated)
C=c1/c(=C/c2[n-]c(=O)[n-]c2[O-])cc(C)n1-c1cccc(C(=O)[NH+]2CCC(CO)CC2)c1 (cis-trans isomerization)
C=c1/c(=C/c2[n-]c(=O)[n-]c2[O-])cc(C)n1-c1cccc(C(=O)[NH+]2CCC(CO)CC2)c1 (3D coordinates assigned)
C=c1/c(=C/c2[n-]c(=O)[n-]c2[O-])cc(C)n1-c1cccc(C(=O)[NH+]2CCC(CO)CC2)c1 (nonaromatic ring conformer: 145.49568738863312 kcal/mol)

> <smiles>
C=c1c(=Cc2[nH]c(=O)[nH]c2O)cc(C)n1-c1cccc(C(=O)N2CCC(CO)CC2)c1

> <score_type>
oracle

> <origin>
adg

> <m_score__min__energy>
-15.44

> <m_primary>
energy

> <minimizedAffinity>
-7.90005

> <minimizedRMSD>
0.64864

> <CNNscore>
0.0961920023

> <CNNaffinity>
6.5206699371

> <CNN_VS>
0.6272363067

> <CNNaffinity_variance>
0.0180841852

$$$$
68:0


 35 38  0  0  0  0  0  0  0  0999 V2000
   61.0595   30.4510   48.8646 C   0  0  0  0  0  0  0  0  0  0  0  0
   62.2972   30.6154   49.5021 C   0  0  0  0  0  0  0  0  0  0  0  0
   62.7789   31.8989   49.7763 C   0  0  0  0  0  0  0  0  0  0  0  0
   62.0283   33.0231   49.4196 C   0  0  0  0  0  0  0  0  0  0  0  0
   60.7826   32.8718   48.7909 C   0  0  0  0  0  0  0  0  0  0  0  0
   60.3168   31.5796   48.4985 C   0  0  0  0  0  0  0  0  0  0  0  0
   60.3527   29.3728   46.1897 C   0  0  0  0  0  0  0  0  0  0  0  0
   60.2520   28.6502   47.3167 C   0  0  0  0  0  0  0  0  0  0  0  0
   59.9356   27.2860   47.4247 C   0  0  0  0  0  0  0  0  0  0  0  0
   59.4944   26.4038   46.5073 C   0  0  0  0  0  0  0  0  0  0  0  0
   60.1451   26.9450   48.7503 C   0  0  0  0  0  0  0  0  0  0  0  0
   60.5189   28.0980   49.4090 C   0  0  0  0  0  0  0  0  0  0  0  0
   60.8533   28.1787   50.8673 C   0  0  0  0  0  0  0  0  0  0  0  0
   60.5726   29.1353   48.5457 N   0  0  0  0  0  0  0  0  0  0  0  0
   58.1665   25.7691   46.4938 C   0  0  0  0  0  0  0  0  0  0  0  0
   57.9379   24.4649   46.7350 N   0  0  0  0  0  0  0  0  0  0  0  0
   56.6212   24.3243   46.4666 C   0  0  0  0  0  0  0  0  0  0  0  0
   56.0172   23.2275   46.5938 O   0  0  0  0  0  0  0  0  0  0  0  0
   56.0074   25.4491   46.0418 N   0  0  0  0  0  0  0  0  0  0  0  0
   57.0035   26.3488   46.0514 C   0  0  0  0  0  0  0  0  0  0  0  0
   56.8535   27.6748   45.6612 O   0  0  0  0  0  0  0  0  0  0  0  0
   59.9739   34.0492   48.4151 C   0  0  0  0  0  0  0  0  0  0  0  0
   60.0554   35.1103   49.0891 O   0  0  0  0  0  0  0  0  0  0  0  0
   59.1009   33.9987   47.2776 N   0  0  0  0  0  0  0  0  0  0  0  0
   57.9998   33.0317   47.2533 C   0  0  0  0  0  0  0  0  0  0  0  0
   57.1530   33.2061   45.9855 C   0  0  0  0  0  0  0  0  0  0  0  0
   57.9971   33.3008   44.7739 N   0  0  0  0  0  0  0  0  0  0  0  0
   59.0425   34.3630   44.8450 C   0  0  0  0  0  0  0  0  0  0  0  0
   59.1930   35.0177   46.2329 C   0  0  0  0  0  0  0  0  0  0  0  0
   58.5551   31.9815   44.3990 C   0  0  0  0  0  0  0  0  0  0  0  0
   57.7641   31.3557   43.2885 C   0  0  0  0  0  0  0  0  0  0  0  0
   57.0932   30.1113   43.4942 N   0  0  0  0  0  0  0  0  0  0  0  0
   57.6409   31.9545   42.1868 O   0  0  0  0  0  0  0  0  0  0  0  0
   57.1854   29.6384   44.3527 H   0  0  0  0  0  0  0  0  0  0  0  0
   56.5387   29.7266   42.7773 H   0  0  0  0  0  0  0  0  0  0  0  0
  7  8  2  0
  8  9  1  0
  9 10  2  0
 10 15  1  0
 15 16  1  0
 16 17  1  0
 17 18  2  0
 17 19  1  0
 19 20  1  0
 20 21  1  0
  9 11  1  0
 11 12  2  0
 12 13  1  0
 12 14  1  0
 14  1  1  0
  1  2  2  0
  2  3  1  0
  3  4  2  0
  4  5  1  0
  5 22  1  0
 22 23  2  0
 22 24  1  0
 24 25  1  0
 25 26  1  0
 26 27  1  0
 27 30  1  0
 30 31  1  0
 31 32  1  0
 31 33  2  0
 27 28  1  0
 28 29  1  0
  5  6  2  0
 14  8  1  0
  6  1  1  0
 20 15  2  0
 29 24  1  0
 32 34  1  0
 32 35  1  0
M  CHG 1  16  -1
M  CHG 1  19  -1
M  CHG 1  21  -1
M  END
> <UniqueID>
62

> <SMILES>
C=c1c(=Cc2[n-]c(=O)[n-]c2[O-])cc(C)n1-c1cccc(C(=O)N2CCN(CC(N)=O)CC2)c1

> <Energy>
142.54371907536733

> <Genealogy>
C=c1c(=Cc2[n-]c(=O)[n-]c2[O-])cc(C)n1-c1cccc(C(=O)N2CCN(CC(N)=O)CC2)c1 (protonated)
C=c1c(=Cc2[n-]c(=O)[n-]c2[O-])cc(C)n1-c1cccc(C(=O)N2CCN(CC(N)=O)CC2)c1 (3D coordinates assigned)
C=c1c(=Cc2[n-]c(=O)[n-]c2[O-])cc(C)n1-c1cccc(C(=O)N2CCN(CC(N)=O)CC2)c1 (nonaromatic ring conformer: 142.54371907536733 kcal/mol)

> <smiles>
C=c1c(=Cc2[nH]c(=O)[nH]c2O)cc(C)n1-c1cccc(C(=O)N2CCN(CC(N)=O)CC2)c1

> <score_type>
oracle

> <origin>
adg

> <m_score__min__energy>
-17.23

> <m_primary>
energy

> <minimizedAffinity>
-7.25049

> <minimizedRMSD>
1.23847

> <CNNscore>
0.2391408086

> <CNNaffinity>
6.9679408073

> <CNN_VS>
1.6663190126

> <CNNaffinity_variance>
0.0797365084

$$$$
69:0


 31 34  0  0  0  0  0  0  0  0999 V2000
   60.2935   26.8587   48.4004 C   0  0  0  0  0  0  0  0  0  0  0  0
   60.2585   28.0463   47.7733 C   0  0  0  0  0  0  0  0  0  0  0  0
   59.8987   28.2700   46.4343 C   0  0  0  0  0  0  0  0  0  0  0  0
   59.3096   27.4666   45.5265 C   0  0  0  0  0  0  0  0  0  0  0  0
   60.2517   29.5754   46.1541 C   0  0  0  0  0  0  0  0  0  0  0  0
   60.7348   30.1273   47.3225 C   0  0  0  0  0  0  0  0  0  0  0  0
   60.7356   29.2017   48.3142 N   0  0  0  0  0  0  0  0  0  0  0  0
   61.2018   31.5290   47.4437 C   0  0  0  0  0  0  0  0  0  0  0  0
   62.4236   31.7652   47.6282 O   0  0  0  0  0  0  0  0  0  0  0  0
   60.2867   32.6287   47.2871 N   0  0  0  0  0  0  0  0  0  0  0  0
   58.9774   32.6239   47.9482 C   0  0  0  0  0  0  0  0  0  0  0  0
   57.8829   33.1417   46.9946 C   0  0  0  0  0  0  0  0  0  0  0  0
   58.3637   34.1349   45.9999 N   0  0  0  0  0  0  0  0  0  0  0  0
   58.5092   33.5428   44.6577 C   0  0  0  0  0  0  0  0  0  0  0  0
   59.5893   34.8405   46.4266 C   0  0  0  0  0  0  0  0  0  0  0  0
   60.7569   33.8669   46.6607 C   0  0  0  0  0  0  0  0  0  0  0  0
   58.1033   26.6560   45.7543 C   0  0  0  0  0  0  0  0  0  0  0  0
   58.1024   25.3947   46.2244 N   0  0  0  0  0  0  0  0  0  0  0  0
   56.7898   25.1273   46.3973 C   0  0  0  0  0  0  0  0  0  0  0  0
   56.3734   24.0161   46.8169 O   0  0  0  0  0  0  0  0  0  0  0  0
   55.9583   26.1480   46.0945 N   0  0  0  0  0  0  0  0  0  0  0  0
   56.8078   27.1114   45.7040 C   0  0  0  0  0  0  0  0  0  0  0  0
   56.4069   28.3825   45.3133 O   0  0  0  0  0  0  0  0  0  0  0  0
   61.1607   29.4307   49.7069 C   0  0  0  0  0  0  0  0  0  0  0  0
   60.2665   30.4191   50.4192 C   0  0  0  0  0  0  0  0  0  0  0  0
   60.7749   31.6076   50.9777 C   0  0  0  0  0  0  0  0  0  0  0  0
   59.9286   32.4875   51.6594 C   0  0  0  0  0  0  0  0  0  0  0  0
   58.5721   32.1869   51.8051 C   0  0  0  0  0  0  0  0  0  0  0  0
   57.5149   33.2939   52.6618 Cl  0  0  0  0  0  0  0  0  0  0  0  0
   58.0605   31.0009   51.2737 C   0  0  0  0  0  0  0  0  0  0  0  0
   58.9036   30.1173   50.5904 C   0  0  0  0  0  0  0  0  0  0  0  0
  1  2  2  0
  2  3  1  0
  3  4  2  0
  4 17  1  0
 17 18  1  0
 18 19  1  0
 19 20  2  0
 19 21  1  0
 21 22  1  0
 22 23  1  0
  3  5  1  0
  5  6  2  0
  6  8  1  0
  8  9  2  0
  8 10  1  0
 10 11  1  0
 11 12  1  0
 12 13  1  0
 13 14  1  0
 13 15  1  0
 15 16  1  0
  6  7  1  0
  7 24  1  0
 24 25  1  0
 25 26  2  0
 26 27  1  0
 27 28  2  0
 28 29  1  0
 28 30  1  0
 30 31  2  0
  7  2  1  0
 31 25  1  0
 22 17  2  0
 16 10  1  0
M  CHG 1  18  -1
M  CHG 1  21  -1
M  CHG 1  23  -1
M  END
> <UniqueID>
63

> <SMILES>
C=c1c(=Cc2[n-]c(=O)[n-]c2[O-])cc(C(=O)N2CCN(C)CC2)n1Cc1ccc(Cl)cc1

> <Energy>
136.68707790629773

> <Genealogy>
C=c1c(=Cc2[n-]c(=O)[n-]c2[O-])cc(C(=O)N2CCN(C)CC2)n1Cc1ccc(Cl)cc1 (protonated)
C=c1c(=Cc2[n-]c(=O)[n-]c2[O-])cc(C(=O)N2CCN(C)CC2)n1Cc1ccc(Cl)cc1 (3D coordinates assigned)
C=c1c(=Cc2[n-]c(=O)[n-]c2[O-])cc(C(=O)N2CCN(C)CC2)n1Cc1ccc(Cl)cc1 (nonaromatic ring conformer: 136.68707790629773 kcal/mol)

> <smiles>
C=c1c(=Cc2[nH]c(=O)[nH]c2O)cc(C(=O)N2CCN(C)CC2)n1Cc1ccc(Cl)cc1

> <score_type>
oracle

> <origin>
adg

> <m_score__min__energy>
-16.079999999999998

> <m_primary>
energy

> <minimizedAffinity>
-7.65859

> <minimizedRMSD>
0.69159

> <CNNscore>
0.1803301275

> <CNNaffinity>
6.5079541206

> <CNN_VS>
1.1735801697

> <CNNaffinity_variance>
0.1948215216

$$$$
82:0


 30 33  0  0  0  0  0  0  0  0999 V2000
   57.6403   28.3725   53.5364 C   0  0  0  0  0  0  0  0  0  0  0  0
   57.4175   29.5521   52.9361 C   0  0  0  0  0  0  0  0  0  0  0  0
   56.1925   30.2198   52.8491 C   0  0  0  0  0  0  0  0  0  0  0  0
   55.0123   29.8353   53.3741 C   0  0  0  0  0  0  0  0  0  0  0  0
   56.4446   31.4101   52.1779 C   0  0  0  0  0  0  0  0  0  0  0  0
   57.7893   31.4153   51.8739 C   0  0  0  0  0  0  0  0  0  0  0  0
   58.4963   32.5548   51.2017 C   0  0  0  0  0  0  0  0  0  0  0  0
   58.3844   30.2952   52.3413 N   0  0  0  0  0  0  0  0  0  0  0  0
   53.7109   30.0515   52.7156 C   0  0  0  0  0  0  0  0  0  0  0  0
   53.5396   30.0021   51.3843 N   0  0  0  0  0  0  0  0  0  0  0  0
   52.2381   30.3257   51.2217 C   0  0  0  0  0  0  0  0  0  0  0  0
   51.6868   30.3714   50.0913 O   0  0  0  0  0  0  0  0  0  0  0  0
   51.5770   30.6023   52.3654 N   0  0  0  0  0  0  0  0  0  0  0  0
   52.5247   30.4365   53.3019 C   0  0  0  0  0  0  0  0  0  0  0  0
   52.3194   30.6765   54.6547 O   0  0  0  0  0  0  0  0  0  0  0  0
   59.7832   29.9738   52.2343 C   0  0  0  0  0  0  0  0  0  0  0  0
   60.6142   30.0790   53.3556 C   0  0  0  0  0  0  0  0  0  0  0  0
   61.9563   29.7155   53.2653 C   0  0  0  0  0  0  0  0  0  0  0  0
   62.4574   29.2418   52.0505 C   0  0  0  0  0  0  0  0  0  0  0  0
   61.6413   29.1458   50.9662 N   0  0  0  0  0  0  0  0  0  0  0  0
   60.3304   29.5081   51.0249 C   0  0  0  0  0  0  0  0  0  0  0  0
   62.0079   28.8059   50.1181 H   0  0  0  0  0  0  0  0  0  0  0  0
   59.5393   29.4077   49.8800 O   0  0  0  0  0  0  0  0  0  0  0  0
   59.8475   30.1284   48.6913 C   0  0  0  0  0  0  0  0  0  0  0  0
   59.0730   29.5485   47.5474 C   0  0  0  0  0  0  0  0  0  0  0  0
   58.6845   30.3628   46.4724 C   0  0  0  0  0  0  0  0  0  0  0  0
   57.9981   29.8128   45.3832 C   0  0  0  0  0  0  0  0  0  0  0  0
   57.7046   28.4471   45.3597 C   0  0  0  0  0  0  0  0  0  0  0  0
   58.1008   27.6279   46.4210 C   0  0  0  0  0  0  0  0  0  0  0  0
   58.7871   28.1734   47.5091 C   0  0  0  0  0  0  0  0  0  0  0  0
  1  2  2  0
  2  3  1  0
  3  4  2  0
  4  9  1  0
  9 10  1  0
 10 11  1  0
 11 12  2  0
 11 13  1  0
 13 14  1  0
 14 15  1  0
  3  5  1  0
  5  6  2  0
  6  7  1  0
  6  8  1  0
  8 16  1  0
 16 17  2  0
 17 18  1  0
 18 19  2  0
 19 20  1  0
 20 21  2  0
 21 23  1  0
 23 24  1  0
 24 25  1  0
 25 26  2  0
 26 27  1  0
 27 28  2  0
 28 29  1  0
 29 30  2  0
  8  2  1  0
 21 16  1  0
 30 25  1  0
 14  9  2  0
 20 22  1  0
M  CHG 1  10  -1
M  CHG 1  13  -1
M  CHG 1  15  -1
M  CHG 1  20   1
M  END
> <UniqueID>
74

> <SMILES>
C=c1/c(=C/c2[n-]c(=O)[n-]c2[O-])cc(C)n1-c1ccc[nH+]c1OCc1ccccc1

> <Energy>
125.21357823828752

> <Genealogy>
C=c1c(=Cc2[n-]c(=O)[n-]c2[O-])cc(C)n1-c1ccc[nH+]c1OCc1ccccc1 (protonated)
C=c1/c(=C/c2[n-]c(=O)[n-]c2[O-])cc(C)n1-c1ccc[nH+]c1OCc1ccccc1 (cis-trans isomerization)
C=c1/c(=C/c2[n-]c(=O)[n-]c2[O-])cc(C)n1-c1ccc[nH+]c1OCc1ccccc1 (3D coordinates assigned)
C=c1/c(=C/c2[n-]c(=O)[n-]c2[O-])cc(C)n1-c1ccc[nH+]c1OCc1ccccc1 (optimized conformer: 125.21357823828752 kcal/mol)

> <smiles>
C=c1c(=Cc2[nH]c(=O)[nH]c2O)cc(C)n1-c1cccnc1OCc1ccccc1

> <score_type>
oracle

> <origin>
adg

> <m_score__min__energy>
-15.609999999999999

> <m_primary>
energy

> <minimizedAffinity>
-6.66045

> <minimizedRMSD>
3.11976

> <CNNscore>
0.0925423279

> <CNNaffinity>
5.0509467125

> <CNN_VS>
0.4674263597

> <CNNaffinity_variance>
0.3540281355

$$$$
84:0


 28 30  0  0  0  0  0  0  0  0999 V2000
   59.9025   29.5688   52.0341 C   0  0  0  0  0  0  0  0  0  0  0  0
   59.1469   28.9750   53.0632 C   0  0  0  0  0  0  0  0  0  0  0  0
   57.8146   29.3385   53.2671 C   0  0  0  0  0  0  0  0  0  0  0  0
   57.2182   30.3176   52.4609 C   0  0  0  0  0  0  0  0  0  0  0  0
   57.9554   30.8930   51.4221 C   0  0  0  0  0  0  0  0  0  0  0  0
   59.2922   30.5287   51.2004 C   0  0  0  0  0  0  0  0  0  0  0  0
   60.1847   31.2989   49.8770 S   0  0  0  0  0  0  0  0  0  0  0  0
   60.4680   30.2935   48.7967 O   0  0  0  0  0  0  0  0  0  0  0  0
   61.5093   31.7788   50.4043 O   0  0  0  0  0  0  0  0  0  0  0  0
   59.3181   32.6551   49.1898 N   0  0  0  0  0  0  0  0  0  0  0  0
   60.0999   33.9086   49.1969 C   0  0  0  0  0  0  0  0  0  0  0  0
   61.0081   34.0951   47.9627 C   0  0  0  0  0  0  0  0  0  0  0  0
   60.4315   33.5004   46.6696 C   0  0  0  0  0  0  0  0  0  0  0  0
   58.9273   33.2877   46.7752 C   0  0  0  0  0  0  0  0  0  0  0  0
   58.6237   32.3165   47.9229 C   0  0  0  0  0  0  0  0  0  0  0  0
   61.7310   27.8732   51.7989 C   0  0  0  0  0  0  0  0  0  0  0  0
   61.2410   29.2091   51.8038 O   0  0  0  0  0  0  0  0  0  0  0  0
   55.8441   30.6918   52.6249 N   0  0  0  0  0  0  0  0  0  0  0  0
   54.7047   29.8344   52.4698 C   0  0  0  0  0  0  0  0  0  0  0  0
   54.7024   28.7171   53.0524 O   0  0  0  0  0  0  0  0  0  0  0  0
   53.5399   30.2124   51.5971 C   0  0  0  0  0  0  0  0  0  0  0  0
   52.4250   30.7799   52.4211 C   0  0  0  0  0  0  0  0  0  0  0  0
   52.2297   30.4994   53.7226 N   0  0  0  0  0  0  0  0  0  0  0  0
   51.1682   31.2675   54.0502 C   0  0  0  0  0  0  0  0  0  0  0  0
   50.6706   31.2805   55.2056 O   0  0  0  0  0  0  0  0  0  0  0  0
   50.6840   32.0266   53.0429 N   0  0  0  0  0  0  0  0  0  0  0  0
   51.4948   31.7091   52.0206 C   0  0  0  0  0  0  0  0  0  0  0  0
   51.3913   32.2617   50.7497 O   0  0  0  0  0  0  0  0  0  0  0  0
 16 17  1  0
 17  1  1  0
  1  2  2  0
  2  3  1  0
  3  4  2  0
  4 18  1  0
 18 19  1  0
 19 20  2  0
 19 21  1  0
 21 22  1  0
 22 23  1  0
 23 24  1  0
 24 25  2  0
 24 26  1  0
 26 27  1  0
 27 28  1  0
  4  5  1  0
  5  6  2  0
  6  7  1  0
  7  8  2  0
  7  9  2  0
  7 10  1  0
 10 11  1  0
 11 12  1  0
 12 13  1  0
 13 14  1  0
 14 15  1  0
  6  1  1  0
 15 10  1  0
 27 22  2  0
M  CHG 1  18  -1
M  CHG 1  23  -1
M  CHG 1  26  -1
M  CHG 1  28  -1
M  END
> <UniqueID>
76

> <SMILES>
COc1ccc([N-]C(=O)Cc2[n-]c(=O)[n-]c2[O-])cc1S(=O)(=O)N1CCCCC1

> <Energy>
87.32905903006359

> <Genealogy>
COc1ccc([N-]C(=O)Cc2[n-]c(=O)[n-]c2[O-])cc1S(=O)(=O)N1CCCCC1 (protonated)
COc1ccc([N-]C(=O)Cc2[n-]c(=O)[n-]c2[O-])cc1S(=O)(=O)N1CCCCC1 (3D coordinates assigned)
COc1ccc([N-]C(=O)Cc2[n-]c(=O)[n-]c2[O-])cc1S(=O)(=O)N1CCCCC1 (nonaromatic ring conformer: 87.32905903006359 kcal/mol)

> <smiles>
COc1ccc(NC(=O)Cc2[nH]c(=O)[nH]c2O)cc1S(=O)(=O)N1CCCCC1

> <score_type>
oracle

> <origin>
adg

> <m_score__min__energy>
-18.079999999999998

> <m_primary>
energy

> <minimizedAffinity>
-6.10817

> <minimizedRMSD>
1.12358

> <CNNscore>
0.2526295185

> <CNNaffinity>
5.4200897217

> <CNN_VS>
1.3692746162

> <CNNaffinity_variance>
0.0036489668

$$$$
3:0


 30 33  0  0  0  0  0  0  0  0999 V2000
   58.0830   29.3695   46.2309 C   0  0  0  0  0  0  0  0  0  0  0  0
   58.6987   28.3447   46.8408 C   0  0  0  0  0  0  0  0  0  0  0  0
   58.8672   27.0376   46.3540 C   0  0  0  0  0  0  0  0  0  0  0  0
   58.3319   26.4166   45.2849 C   0  0  0  0  0  0  0  0  0  0  0  0
   59.7511   26.4123   47.2194 C   0  0  0  0  0  0  0  0  0  0  0  0
   60.0341   27.3144   48.2245 C   0  0  0  0  0  0  0  0  0  0  0  0
   60.9692   27.0553   49.3665 C   0  0  0  0  0  0  0  0  0  0  0  0
   59.3988   28.4826   47.9953 N   0  0  0  0  0  0  0  0  0  0  0  0
   57.5817   25.1521   45.3143 C   0  0  0  0  0  0  0  0  0  0  0  0
   58.1358   23.9535   45.0641 N   0  0  0  0  0  0  0  0  0  0  0  0
   57.1345   23.0853   45.3251 C   0  0  0  0  0  0  0  0  0  0  0  0
   57.2640   21.8411   45.1893 O   0  0  0  0  0  0  0  0  0  0  0  0
   55.9876   23.6544   45.7548 N   0  0  0  0  0  0  0  0  0  0  0  0
   56.2926   24.9618   45.7572 C   0  0  0  0  0  0  0  0  0  0  0  0
   55.4192   25.9561   46.1797 O   0  0  0  0  0  0  0  0  0  0  0  0
   59.5264   29.6753   48.7886 C   0  0  0  0  0  0  0  0  0  0  0  0
   58.7949   29.8056   49.9697 C   0  0  0  0  0  0  0  0  0  0  0  0
   58.8906   30.9739   50.7190 C   0  0  0  0  0  0  0  0  0  0  0  0
   59.7101   32.0112   50.2721 C   0  0  0  0  0  0  0  0  0  0  0  0
   60.4249   31.8878   49.1124 N   0  0  0  0  0  0  0  0  0  0  0  0
   60.3472   30.7347   48.3679 C   0  0  0  0  0  0  0  0  0  0  0  0
   60.9909   30.6228   47.2880 O   0  0  0  0  0  0  0  0  0  0  0  0
   61.2139   33.0417   48.6457 C   0  0  0  0  0  0  0  0  0  0  0  0
   60.3183   34.2687   48.4133 C   0  0  0  0  0  0  0  0  0  0  0  0
   59.4650   34.1098   47.1807 C   0  0  0  0  0  0  0  0  0  0  0  0
   59.9355   34.5540   45.9341 C   0  0  0  0  0  0  0  0  0  0  0  0
   59.1714   34.3510   44.7805 C   0  0  0  0  0  0  0  0  0  0  0  0
   57.9376   33.6993   44.8631 C   0  0  0  0  0  0  0  0  0  0  0  0
   57.4658   33.2495   46.0994 C   0  0  0  0  0  0  0  0  0  0  0  0
   58.2265   33.4512   47.2553 C   0  0  0  0  0  0  0  0  0  0  0  0
  1  2  2  0
  2  3  1  0
  3  4  2  0
  4  9  1  0
  9 10  1  0
 10 11  1  0
 11 12  2  0
 11 13  1  0
 13 14  1  0
 14 15  1  0
  3  5  1  0
  5  6  2  0
  6  7  1  0
  6  8  1  0
  8 16  1  0
 16 17  2  0
 17 18  1  0
 18 19  2  0
 19 20  1  0
 20 23  1  0
 23 24  1  0
 24 25  1  0
 25 26  2  0
 26 27  1  0
 27 28  2  0
 28 29  1  0
 29 30  2  0
 20 21  1  0
 21 22  2  0
  8  2  1  0
 21 16  1  0
 14  9  2  0
 30 25  1  0
M  CHG 1  10  -1
M  CHG 1  13  -1
M  CHG 1  15  -1
M  END
> <UniqueID>
2

> <SMILES>
C=c1c(=Cc2[n-]c(=O)[n-]c2[O-])cc(C)n1-c1cccn(CCc2ccccc2)c1=O

> <Energy>
126.76252574216699

> <Genealogy>
C=c1c(=Cc2[n-]c(=O)[n-]c2[O-])cc(C)n1-c1cccn(CCc2ccccc2)c1=O (protonated)
C=c1c(=Cc2[n-]c(=O)[n-]c2[O-])cc(C)n1-c1cccn(CCc2ccccc2)c1=O (3D coordinates assigned)
C=c1c(=Cc2[n-]c(=O)[n-]c2[O-])cc(C)n1-c1cccn(CCc2ccccc2)c1=O (optimized conformer: 126.76252574216699 kcal/mol)

> <smiles>
C=c1c(=Cc2[nH]c(=O)[nH]c2O)cc(C)n1-c1cccn(CCc2ccccc2)c1=O

> <score_type>
oracle

> <origin>
adg

> <m_score__min__energy>
-16.68

> <m_primary>
energy

> <minimizedAffinity>
-8.72292

> <minimizedRMSD>
1.37268

> <CNNscore>
0.3328008652

> <CNNaffinity>
6.7083778381

> <CNN_VS>
2.2325539589

> <CNNaffinity_variance>
0.0594902337

$$$$
6:0


 28 31  0  0  0  0  0  0  0  0999 V2000
   59.9899   29.0077   47.3531 C   0  0  0  0  0  0  0  0  0  0  0  0
   59.2678   29.1273   46.2258 C   0  0  0  0  0  0  0  0  0  0  0  0
   58.8639   28.0849   45.3789 C   0  0  0  0  0  0  0  0  0  0  0  0
   59.1148   26.7680   45.5438 C   0  0  0  0  0  0  0  0  0  0  0  0
   58.1809   28.6887   44.3291 C   0  0  0  0  0  0  0  0  0  0  0  0
   58.1817   30.0461   44.5793 C   0  0  0  0  0  0  0  0  0  0  0  0
   57.5638   31.0770   43.6821 C   0  0  0  0  0  0  0  0  0  0  0  0
   58.8445   30.3148   45.7249 N   0  0  0  0  0  0  0  0  0  0  0  0
   58.1479   25.7604   46.0372 C   0  0  0  0  0  0  0  0  0  0  0  0
   58.4279   24.4822   46.3500 N   0  0  0  0  0  0  0  0  0  0  0  0
   57.2279   23.9725   46.7020 C   0  0  0  0  0  0  0  0  0  0  0  0
   57.0800   22.7781   47.0705 O   0  0  0  0  0  0  0  0  0  0  0  0
   56.2004   24.8429   46.6274 N   0  0  0  0  0  0  0  0  0  0  0  0
   56.7985   25.9665   46.2009 C   0  0  0  0  0  0  0  0  0  0  0  0
   56.1228   27.1578   45.9660 O   0  0  0  0  0  0  0  0  0  0  0  0
   59.0391   31.6219   46.2949 C   0  0  0  0  0  0  0  0  0  0  0  0
   58.1371   32.6563   46.0133 C   0  0  0  0  0  0  0  0  0  0  0  0
   58.3260   33.9233   46.5687 C   0  0  0  0  0  0  0  0  0  0  0  0
   59.4122   34.1640   47.4151 C   0  0  0  0  0  0  0  0  0  0  0  0
   60.3129   33.1296   47.7268 C   0  0  0  0  0  0  0  0  0  0  0  0
   60.1264   31.8639   47.1484 C   0  0  0  0  0  0  0  0  0  0  0  0
   61.4501   33.3558   48.5773 N   0  0  0  0  0  0  0  0  0  0  0  0
   62.8099   33.3607   48.1009 C   0  0  0  0  0  0  0  0  0  0  0  0
   63.0401   33.5444   46.8758 O   0  0  0  0  0  0  0  0  0  0  0  0
   61.2912   33.5157   49.5356 H   0  0  0  0  0  0  0  0  0  0  0  0
   63.9976   33.1904   49.0206 C   0  0  0  0  0  0  0  0  0  0  0  0
   63.9837   32.0115   49.9832 C   0  0  0  0  0  0  0  0  0  0  0  0
   63.7325   33.4235   50.4997 C   0  0  0  0  0  0  0  0  0  0  0  0
  1  2  2  0
  2  3  1  0
  3  4  2  0
  4  9  1  0
  9 10  1  0
 10 11  1  0
 11 12  2  0
 11 13  1  0
 13 14  1  0
 14 15  1  0
  3  5  1  0
  5  6  2  0
  6  7  1  0
  6  8  1  0
  8 16  1  0
 16 17  2  0
 17 18  1  0
 18 19  2  0
 19 20  1  0
 20 22  1  0
 22 23  1  0
 23 24  2  0
 23 26  1  0
 26 27  1  0
 27 28  1  0
 20 21  2  0
  8  2  1  0
 21 16  1  0
 14  9  2  0
 28 26  1  0
 22 25  1  0
M  CHG 1  10  -1
M  CHG 1  13  -1
M  CHG 1  15  -1
M  END
> <UniqueID>
5

> <SMILES>
C=c1/c(=C/c2[n-]c(=O)[n-]c2[O-])cc(C)n1-c1cccc(NC(=O)C2CC2)c1

> <Energy>
384.7243360953009

> <Genealogy>
C=c1c(=Cc2[n-]c(=O)[n-]c2[O-])cc(C)n1-c1cccc(NC(=O)C2CC2)c1 (protonated)
C=c1/c(=C/c2[n-]c(=O)[n-]c2[O-])cc(C)n1-c1cccc(NC(=O)C2CC2)c1 (cis-trans isomerization)
C=c1/c(=C/c2[n-]c(=O)[n-]c2[O-])cc(C)n1-c1cccc(NC(=O)C2CC2)c1 (3D coordinates assigned)
C=c1/c(=C/c2[n-]c(=O)[n-]c2[O-])cc(C)n1-c1cccc(NC(=O)C2CC2)c1 (nonaromatic ring conformer: 384.7243360953009 kcal/mol)

> <smiles>
C=c1c(=Cc2[nH]c(=O)[nH]c2O)cc(C)n1-c1cccc(NC(=O)C2CC2)c1

> <score_type>
oracle

> <origin>
adg

> <m_score__min__energy>
-16.620000000000001

> <m_primary>
energy

> <minimizedAffinity>
-8.39119

> <minimizedRMSD>
1.19720

> <CNNscore>
0.3314783573

> <CNNaffinity>
6.7295861244

> <CNN_VS>
2.2307121754

> <CNNaffinity_variance>
0.0098233595

$$$$
8:0


 30 32  0  0  0  0  0  0  0  0999 V2000
   57.7252   33.1018   44.4245 N   0  0  0  0  0  0  0  0  0  0  0  0
   58.3625   33.0666   45.7089 C   0  0  0  0  0  0  0  0  0  0  0  0
   58.9393   34.2355   46.2199 C   0  0  0  0  0  0  0  0  0  0  0  0
   59.5221   34.2358   47.4907 C   0  0  0  0  0  0  0  0  0  0  0  0
   59.5505   33.0600   48.2528 C   0  0  0  0  0  0  0  0  0  0  0  0
   59.0364   31.8745   47.7142 C   0  0  0  0  0  0  0  0  0  0  0  0
   58.4431   31.8762   46.4501 C   0  0  0  0  0  0  0  0  0  0  0  0
   60.2501   33.0681   49.8723 S   0  0  0  0  0  0  0  0  0  0  0  0
   59.9692   34.3966   50.5173 O   0  0  0  0  0  0  0  0  0  0  0  0
   59.5700   32.0095   50.6960 O   0  0  0  0  0  0  0  0  0  0  0  0
   61.9748   32.7651   49.8765 N   0  0  0  0  0  0  0  0  0  0  0  0
   62.3434   31.4771   49.2581 C   0  0  0  0  0  0  0  0  0  0  0  0
   62.6512   31.6062   47.7590 C   0  0  0  0  0  0  0  0  0  0  0  0
   63.6082   32.6164   47.5277 O   0  0  0  0  0  0  0  0  0  0  0  0
   63.0601   33.8615   47.8986 C   0  0  0  0  0  0  0  0  0  0  0  0
   62.7818   33.9098   49.4071 C   0  0  0  0  0  0  0  0  0  0  0  0
   57.9478   32.1563   43.3702 C   0  0  0  0  0  0  0  0  0  0  0  0
   57.6238   32.4720   42.1928 O   0  0  0  0  0  0  0  0  0  0  0  0
   57.7276   29.7041   43.5885 C   0  0  0  0  0  0  0  0  0  0  0  0
   58.4798   30.8075   43.6596 C   0  0  0  0  0  0  0  0  0  0  0  0
   55.6878   30.2671   44.6310 O   0  0  0  0  0  0  0  0  0  0  0  0
   56.6374   29.4435   44.5452 C   0  0  0  0  0  0  0  0  0  0  0  0
   56.5933   28.2091   45.2780 N   0  0  0  0  0  0  0  0  0  0  0  0
   57.5505   27.5909   45.9138 C   0  0  0  0  0  0  0  0  0  0  0  0
   58.7422   28.2378   46.0378 N   0  0  0  0  0  0  0  0  0  0  0  0
   59.8097   27.6947   46.6803 C   0  0  0  0  0  0  0  0  0  0  0  0
   59.7090   26.4269   47.2483 C   0  0  0  0  0  0  0  0  0  0  0  0
   58.5001   25.7391   47.1663 C   0  0  0  0  0  0  0  0  0  0  0  0
   57.4038   26.3142   46.5174 C   0  0  0  0  0  0  0  0  0  0  0  0
   56.1947   25.6301   46.5315 O   0  0  0  0  0  0  0  0  0  0  0  0
 21 22  2  0
 22 19  1  0
 19 20  2  0
 20 17  1  0
 17 18  2  0
 17  1  1  0
  1  2  1  0
  2  3  2  0
  3  4  1  0
  4  5  2  0
  5  8  1  0
  8  9  2  0
  8 10  2  0
  8 11  1  0
 11 12  1  0
 12 13  1  0
 13 14  1  0
 14 15  1  0
 15 16  1  0
  5  6  1  0
  6  7  2  0
 22 23  1  0
 23 24  2  0
 24 25  1  0
 25 26  1  0
 26 27  2  0
 27 28  1  0
 28 29  2  0
 29 30  1  0
  7  2  1  0
 29 24  1  0
 16 11  1  0
M  CHG 1   1  -1
M  CHG 1  25  -1
M  CHG 1  30  -1
M  END
> <UniqueID>
7

> <SMILES>
O=C(C=CC(=O)[N-]c1ccc(S(=O)(=O)N2CCOCC2)cc1)N=c1[n-]cccc1[O-]

> <Energy>
68.12980837491922

> <Genealogy>
O=C(C=CC(=O)[N-]c1ccc(S(=O)(=O)N2CCOCC2)cc1)N=c1[n-]cccc1[O-] (protonated)
O=C(C=CC(=O)[N-]c1ccc(S(=O)(=O)N2CCOCC2)cc1)N=c1[n-]cccc1[O-] (3D coordinates assigned)
O=C(C=CC(=O)[N-]c1ccc(S(=O)(=O)N2CCOCC2)cc1)N=c1[n-]cccc1[O-] (nonaromatic ring conformer: 68.12980837491922 kcal/mol)

> <smiles>
O=C(C=CC(=O)Nc1ccc(S(=O)(=O)N2CCOCC2)cc1)N=c1[nH]cccc1O

> <score_type>
oracle

> <origin>
adg

> <m_score__min__energy>
-15.4

> <m_primary>
energy

> <minimizedAffinity>
-6.06012

> <minimizedRMSD>
0.85355

> <CNNscore>
0.2013877332

> <CNNaffinity>
6.1457972527

> <CNN_VS>
1.2376881838

> <CNNaffinity_variance>
0.1647639573

$$$$
10:0


 31 34  0  0  0  0  0  0  0  0999 V2000
   57.7399   25.5954   47.2737 C   0  0  0  0  0  0  0  0  0  0  0  0
   57.7726   25.5455   45.9333 C   0  0  0  0  0  0  0  0  0  0  0  0
   57.2426   24.5454   45.0978 C   0  0  0  0  0  0  0  0  0  0  0  0
   56.7078   23.3426   45.3856 C   0  0  0  0  0  0  0  0  0  0  0  0
   57.3585   25.0240   43.8001 C   0  0  0  0  0  0  0  0  0  0  0  0
   57.9965   26.2438   43.8774 C   0  0  0  0  0  0  0  0  0  0  0  0
   58.2620   27.1440   42.7105 C   0  0  0  0  0  0  0  0  0  0  0  0
   58.2491   26.5583   45.1661 N   0  0  0  0  0  0  0  0  0  0  0  0
   55.2753   23.0619   45.5660 C   0  0  0  0  0  0  0  0  0  0  0  0
   54.7808   21.8281   45.7680 N   0  0  0  0  0  0  0  0  0  0  0  0
   53.4664   22.0498   45.9845 C   0  0  0  0  0  0  0  0  0  0  0  0
   52.6507   21.1178   46.2064 O   0  0  0  0  0  0  0  0  0  0  0  0
   53.0980   23.3474   45.9587 N   0  0  0  0  0  0  0  0  0  0  0  0
   54.2557   23.9811   45.7073 C   0  0  0  0  0  0  0  0  0  0  0  0
   54.3697   25.3661   45.6360 O   0  0  0  0  0  0  0  0  0  0  0  0
   53.6111   25.9049   45.7465 H   0  0  0  0  0  0  0  0  0  0  0  0
   58.7901   27.8078   45.6263 C   0  0  0  0  0  0  0  0  0  0  0  0
   60.0976   27.8230   46.1302 C   0  0  0  0  0  0  0  0  0  0  0  0
   60.6748   29.0107   46.5755 C   0  0  0  0  0  0  0  0  0  0  0  0
   59.9523   30.2087   46.5245 C   0  0  0  0  0  0  0  0  0  0  0  0
   58.6443   30.2024   46.0175 C   0  0  0  0  0  0  0  0  0  0  0  0
   58.0405   29.0110   45.5695 C   0  0  0  0  0  0  0  0  0  0  0  0
   60.5564   31.4322   46.9826 N   0  0  0  0  0  0  0  0  0  0  0  0
   61.7755   31.3853   47.7963 C   0  0  0  0  0  0  0  0  0  0  0  0
   62.5918   32.6608   47.5707 C   0  0  0  0  0  0  0  0  0  0  0  0
   61.7924   33.8085   47.7855 O   0  0  0  0  0  0  0  0  0  0  0  0
   60.7673   33.8688   46.8116 C   0  0  0  0  0  0  0  0  0  0  0  0
   59.7998   32.6872   46.9601 C   0  0  0  0  0  0  0  0  0  0  0  0
   56.6394   29.0558   45.0688 C   0  0  0  0  0  0  0  0  0  0  0  0
   56.2388   30.0409   44.3913 O   0  0  0  0  0  0  0  0  0  0  0  0
   55.7389   28.0312   45.3433 O   0  0  0  0  0  0  0  0  0  0  0  0
  1  2  2  0
  2  3  1  0
  3  4  2  0
  4  9  1  0
  9 10  1  0
 10 11  1  0
 11 12  2  0
 11 13  1  0
 13 14  1  0
 14 15  1  0
  3  5  1  0
  5  6  2  0
  6  7  1  0
  6  8  1  0
  8 17  1  0
 17 18  2  0
 18 19  1  0
 19 20  2  0
 20 23  1  0
 23 24  1  0
 24 25  1  0
 25 26  1  0
 26 27  1  0
 27 28  1  0
 20 21  1  0
 21 22  2  0
 22 29  1  0
 29 30  2  0
 29 31  1  0
  8  2  1  0
 22 17  1  0
 14  9  2  0
 28 23  1  0
 15 16  1  0
M  CHG 1  10  -1
M  CHG 1  13  -1
M  CHG 1  31  -1
M  END
> <UniqueID>
9

> <SMILES>
C=c1c(=Cc2[n-]c(=O)[n-]c2O)cc(C)n1-c1ccc(N2CCOCC2)cc1C(=O)[O-]

> <Energy>
135.49665689924393

> <Genealogy>
C=c1c(=Cc2[n-]c(=O)[n-]c2O)cc(C)n1-c1ccc(N2CCOCC2)cc1C(=O)[O-] (protonated)
C=c1c(=Cc2[n-]c(=O)[n-]c2O)cc(C)n1-c1ccc(N2CCOCC2)cc1C(=O)[O-] (3D coordinates assigned)
C=c1c(=Cc2[n-]c(=O)[n-]c2O)cc(C)n1-c1ccc(N2CCOCC2)cc1C(=O)[O-] (nonaromatic ring conformer: 135.49665689924393 kcal/mol)

> <smiles>
C=c1c(=Cc2[nH]c(=O)[nH]c2O)cc(C)n1-c1ccc(N2CCOCC2)cc1C(=O)O

> <score_type>
oracle

> <origin>
adg

> <m_score__min__energy>
-15.359999999999999

> <m_primary>
energy

> <minimizedAffinity>
-6.75100

> <minimizedRMSD>
0.68890

> <CNNscore>
0.1591978073

> <CNNaffinity>
5.9972419739

> <CNN_VS>
0.9547477961

> <CNNaffinity_variance>
0.0142930569

$$$$
11:0


 41 45  0  0  0  0  0  0  0  0999 V2000
   59.8078   27.4623   48.5374 C   0  0  0  0  0  0  0  0  0  0  0  0
   59.4587   28.7079   49.0735 C   0  0  0  0  0  0  0  0  0  0  0  0
   60.0176   29.1388   50.2783 C   0  0  0  0  0  0  0  0  0  0  0  0
   60.9232   28.3220   50.9789 C   0  0  0  0  0  0  0  0  0  0  0  0
   61.2863   27.0812   50.4216 C   0  0  0  0  0  0  0  0  0  0  0  0
   60.7316   26.6556   49.2102 C   0  0  0  0  0  0  0  0  0  0  0  0
   58.1958   25.0228   48.0406 C   0  0  0  0  0  0  0  0  0  0  0  0
   58.5420   25.8818   47.0677 C   0  0  0  0  0  0  0  0  0  0  0  0
   58.1633   25.8315   45.7169 C   0  0  0  0  0  0  0  0  0  0  0  0
   57.5477   24.8674   45.0069 C   0  0  0  0  0  0  0  0  0  0  0  0
   58.5914   27.0217   45.1493 C   0  0  0  0  0  0  0  0  0  0  0  0
   59.2581   27.7175   46.1353 C   0  0  0  0  0  0  0  0  0  0  0  0
   59.9388   29.0373   45.9432 C   0  0  0  0  0  0  0  0  0  0  0  0
   59.2389   27.0235   47.2938 N   0  0  0  0  0  0  0  0  0  0  0  0
   56.1833   24.3688   45.2439 C   0  0  0  0  0  0  0  0  0  0  0  0
   55.7244   23.1698   44.8341 N   0  0  0  0  0  0  0  0  0  0  0  0
   54.4088   23.2220   45.1273 C   0  0  0  0  0  0  0  0  0  0  0  0
   53.6256   22.2645   44.9020 O   0  0  0  0  0  0  0  0  0  0  0  0
   53.9959   24.3874   45.6734 N   0  0  0  0  0  0  0  0  0  0  0  0
   55.1293   25.1048   45.7256 C   0  0  0  0  0  0  0  0  0  0  0  0
   55.1985   26.4109   46.1992 O   0  0  0  0  0  0  0  0  0  0  0  0
   61.5445   28.7422   52.2644 C   0  0  0  0  0  0  0  0  0  0  0  0
   61.2742   28.0622   53.2956 O   0  0  0  0  0  0  0  0  0  0  0  0
   62.4212   29.8962   52.4011 N   0  0  0  0  0  0  0  0  0  0  0  0
   63.7645   29.6099   51.8485 C   0  0  0  0  0  0  0  0  0  0  0  0
   64.5869   30.8861   51.6850 C   0  0  0  0  0  0  0  0  0  0  0  0
   63.9081   31.7987   50.7598 N   0  0  0  0  0  0  0  0  0  0  0  0
   64.6926   32.6836   49.9294 C   0  0  0  0  0  0  0  0  0  0  0  0
   65.9112   32.8786   50.2001 O   0  0  0  0  0  0  0  0  0  0  0  0
   62.4389   31.8086   50.7022 C   0  0  0  0  0  0  0  0  0  0  0  0
   61.8018   31.1827   51.9599 C   0  0  0  0  0  0  0  0  0  0  0  0
   61.4795   30.1035   52.5998 H   0  0  0  0  0  0  0  0  0  0  0  0
   64.1112   33.3803   48.7267 C   0  0  0  0  0  0  0  0  0  0  0  0
   62.8078   34.0630   49.0513 C   0  0  0  0  0  0  0  0  0  0  0  0
   62.7892   34.8954   49.9987 O   0  0  0  0  0  0  0  0  0  0  0  0
   61.5920   33.7891   48.3204 N   0  0  0  0  0  0  0  0  0  0  0  0
   60.3002   33.8487   49.0112 C   0  0  0  0  0  0  0  0  0  0  0  0
   59.2136   34.3129   48.0363 C   0  0  0  0  0  0  0  0  0  0  0  0
   59.2080   33.5067   46.8722 O   0  0  0  0  0  0  0  0  0  0  0  0
   60.4234   33.6756   46.1664 C   0  0  0  0  0  0  0  0  0  0  0  0
   61.6128   33.1695   46.9912 C   0  0  0  0  0  0  0  0  0  0  0  0
  7  8  2  0
  8  9  1  0
  9 10  2  0
 10 15  1  0
 15 16  1  0
 16 17  1  0
 17 18  2  0
 17 19  1  0
 19 20  1  0
 20 21  1  0
  9 11  1  0
 11 12  2  0
 12 13  1  0
 12 14  1  0
 14  1  1  0
  1  2  2  0
  2  3  1  0
  3  4  2  0
  4 22  1  0
 22 23  2  0
 22 24  1  0
 24 25  1  0
 25 26  1  0
 26 27  1  0
 27 28  1  0
 28 29  2  0
 28 33  1  0
 33 34  1  0
 34 35  2  0
 34 36  1  0
 36 37  1  0
 37 38  1  0
 38 39  1  0
 39 40  1  0
 40 41  1  0
 27 30  1  0
 30 31  1  0
  4  5  1  0
  5  6  2  0
 14  8  1  0
  6  1  1  0
 20 15  2  0
 31 24  1  0
 41 36  1  0
 24 32  1  0
M  CHG 1  16  -1
M  CHG 1  19  -1
M  CHG 1  21  -1
M  CHG 1  24   1
M  END
> <UniqueID>
10

> <SMILES>
C=c1c(=Cc2[n-]c(=O)[n-]c2[O-])cc(C)n1-c1ccc(C(=O)[NH+]2CCN(C(=O)CC(=O)N3CCOCC3)CC2)cc1

> <Energy>
165.56863023684022

> <Genealogy>
C=c1c(=Cc2[n-]c(=O)[n-]c2[O-])cc(C)n1-c1ccc(C(=O)[NH+]2CCN(C(=O)CC(=O)N3CCOCC3)CC2)cc1 (protonated)
C=c1c(=Cc2[n-]c(=O)[n-]c2[O-])cc(C)n1-c1ccc(C(=O)[NH+]2CCN(C(=O)CC(=O)N3CCOCC3)CC2)cc1 (3D coordinates assigned)
C=c1c(=Cc2[n-]c(=O)[n-]c2[O-])cc(C)n1-c1ccc(C(=O)[NH+]2CCN(C(=O)CC(=O)N3CCOCC3)CC2)cc1 (nonaromatic ring conformer: 165.56863023684022 kcal/mol)

> <smiles>
C=c1c(=Cc2[nH]c(=O)[nH]c2O)cc(C)n1-c1ccc(C(=O)N2CCN(C(=O)CC(=O)N3CCOCC3)CC2)cc1

> <score_type>
oracle

> <origin>
adg

> <m_score__min__energy>
-17.34

> <m_primary>
energy

> <minimizedAffinity>
-5.83274

> <minimizedRMSD>
0.71974

> <CNNscore>
0.0499862842

> <CNNaffinity>
5.9775137901

> <CNN_VS>
0.2987937033

> <CNNaffinity_variance>
0.4966894090

$$$$
25:0


 29 32  0  0  0  0  0  0  0  0999 V2000
   57.1243   29.4212   54.5371 C   0  0  0  0  0  0  0  0  0  0  0  0
   56.1682   28.6311   55.0491 C   0  0  0  0  0  0  0  0  0  0  0  0
   54.7961   28.9071   55.0965 C   0  0  0  0  0  0  0  0  0  0  0  0
   54.1734   30.0222   54.6695 C   0  0  0  0  0  0  0  0  0  0  0  0
   54.2038   27.8234   55.7348 C   0  0  0  0  0  0  0  0  0  0  0  0
   55.2180   26.9329   56.0267 C   0  0  0  0  0  0  0  0  0  0  0  0
   55.0302   25.6362   56.7519 C   0  0  0  0  0  0  0  0  0  0  0  0
   56.4087   27.4251   55.6195 N   0  0  0  0  0  0  0  0  0  0  0  0
   57.6814   26.7755   55.7728 C   0  0  0  0  0  0  0  0  0  0  0  0
   58.0958   25.8098   54.8433 C   0  0  0  0  0  0  0  0  0  0  0  0
   57.3005   25.4866   53.7932 F   0  0  0  0  0  0  0  0  0  0  0  0
   59.3314   25.1733   54.9965 C   0  0  0  0  0  0  0  0  0  0  0  0
   60.1655   25.4885   56.0801 C   0  0  0  0  0  0  0  0  0  0  0  0
   59.7480   26.4613   57.0058 C   0  0  0  0  0  0  0  0  0  0  0  0
   58.5139   27.0981   56.8545 C   0  0  0  0  0  0  0  0  0  0  0  0
   58.1331   28.0397   57.7531 F   0  0  0  0  0  0  0  0  0  0  0  0
   61.4396   24.8305   56.2289 N   0  0  0  0  0  0  0  0  0  0  0  0
   62.5012   25.4586   57.0230 C   0  0  0  0  0  0  0  0  0  0  0  0
   63.4172   24.3765   57.6017 C   0  0  0  0  0  0  0  0  0  0  0  0
   63.8807   23.5120   56.5821 O   0  0  0  0  0  0  0  0  0  0  0  0
   62.7933   22.7975   56.0266 C   0  0  0  0  0  0  0  0  0  0  0  0
   61.8232   23.7480   55.3167 C   0  0  0  0  0  0  0  0  0  0  0  0
   53.1017   30.0321   53.6581 C   0  0  0  0  0  0  0  0  0  0  0  0
   53.3346   30.1546   52.3384 N   0  0  0  0  0  0  0  0  0  0  0  0
   52.1066   30.0277   51.7896 C   0  0  0  0  0  0  0  0  0  0  0  0
   51.9093   30.1006   50.5494 O   0  0  0  0  0  0  0  0  0  0  0  0
   51.1108   29.8070   52.6734 N   0  0  0  0  0  0  0  0  0  0  0  0
   51.7574   29.7986   53.8507 C   0  0  0  0  0  0  0  0  0  0  0  0
   51.1359   29.5353   55.0651 O   0  0  0  0  0  0  0  0  0  0  0  0
  1  2  2  0
  2  3  1  0
  3  4  2  0
  4 23  1  0
 23 24  1  0
 24 25  1  0
 25 26  2  0
 25 27  1  0
 27 28  1  0
 28 29  1  0
  3  5  1  0
  5  6  2  0
  6  7  1  0
  6  8  1  0
  8  9  1  0
  9 10  2  0
 10 11  1  0
 10 12  1  0
 12 13  2  0
 13 17  1  0
 17 18  1  0
 18 19  1  0
 19 20  1  0
 20 21  1  0
 21 22  1  0
 13 14  1  0
 14 15  2  0
 15 16  1  0
  8  2  1  0
 15  9  1  0
 28 23  2  0
 22 17  1  0
M  CHG 1  24  -1
M  CHG 1  27  -1
M  CHG 1  29  -1
M  END
> <UniqueID>
22

> <SMILES>
C=c1/c(=C/c2[n-]c(=O)[n-]c2[O-])cc(C)n1-c1c(F)cc(N2CCOCC2)cc1F

> <Energy>
126.13372016069431

> <Genealogy>
C=c1c(=Cc2[n-]c(=O)[n-]c2[O-])cc(C)n1-c1c(F)cc(N2CCOCC2)cc1F (protonated)
C=c1/c(=C/c2[n-]c(=O)[n-]c2[O-])cc(C)n1-c1c(F)cc(N2CCOCC2)cc1F (cis-trans isomerization)
C=c1/c(=C/c2[n-]c(=O)[n-]c2[O-])cc(C)n1-c1c(F)cc(N2CCOCC2)cc1F (3D coordinates assigned)
C=c1/c(=C/c2[n-]c(=O)[n-]c2[O-])cc(C)n1-c1c(F)cc(N2CCOCC2)cc1F (nonaromatic ring conformer: 126.13372016069431 kcal/mol)

> <smiles>
C=c1c(=Cc2[nH]c(=O)[nH]c2O)cc(C)n1-c1c(F)cc(N2CCOCC2)cc1F

> <score_type>
oracle

> <origin>
adg

> <m_score__min__energy>
-15.18

> <m_primary>
energy

> <minimizedAffinity>
-3.30185

> <minimizedRMSD>
3.86033

> <CNNscore>
0.2689144015

> <CNNaffinity>
5.4368386269

> <CNN_VS>
1.4620442390

> <CNNaffinity_variance>
0.1320143938

$$$$
26:0


 31 34  0  0  0  0  0  0  0  0999 V2000
   59.1686   28.6066   46.5832 C   0  0  0  0  0  0  0  0  0  0  0  0
   59.0330   27.3089   46.7009 O   0  0  0  0  0  0  0  0  0  0  0  0
   58.0203   26.9356   45.9538 C   0  0  0  0  0  0  0  0  0  0  0  0
   57.4489   27.9749   45.3129 N   0  0  0  0  0  0  0  0  0  0  0  0
   58.1739   29.0378   45.7085 C   0  0  0  0  0  0  0  0  0  0  0  0
   57.5649   25.5310   45.8419 C   0  0  0  0  0  0  0  0  0  0  0  0
   58.5157   24.5201   45.6135 C   0  0  0  0  0  0  0  0  0  0  0  0
   58.1200   23.1833   45.5076 C   0  0  0  0  0  0  0  0  0  0  0  0
   56.7736   22.8404   45.6312 C   0  0  0  0  0  0  0  0  0  0  0  0
   55.8174   23.8318   45.8574 C   0  0  0  0  0  0  0  0  0  0  0  0
   56.2026   25.1748   45.9634 C   0  0  0  0  0  0  0  0  0  0  0  0
   55.2225   26.1353   46.1920 O   0  0  0  0  0  0  0  0  0  0  0  0
   57.8234   30.6685   45.1243 S   0  0  0  0  0  0  0  0  0  0  0  0
   56.3461   30.7485   44.8519 O   0  0  0  0  0  0  0  0  0  0  0  0
   58.5351   30.9320   43.8292 O   0  0  0  0  0  0  0  0  0  0  0  0
   58.2371   31.9067   46.2881 N   0  0  0  0  0  0  0  0  0  0  0  0
   57.5527   33.1689   46.0247 C   0  0  0  0  0  0  0  0  0  0  0  0
   58.3900   34.2388   46.6940 C   0  0  0  0  0  0  0  0  0  0  0  0
   59.8045   33.6817   46.6872 C   0  0  0  0  0  0  0  0  0  0  0  0
   59.6660   32.2247   46.2561 C   0  0  0  0  0  0  0  0  0  0  0  0
   61.1714   29.8857   46.6649 O   0  0  0  0  0  0  0  0  0  0  0  0
   60.2055   29.3911   47.3012 C   0  0  0  0  0  0  0  0  0  0  0  0
   60.1452   29.6224   48.7158 N   0  0  0  0  0  0  0  0  0  0  0  0
   58.9408   29.6035   49.5367 C   0  0  0  0  0  0  0  0  0  0  0  0
   58.9009   30.8367   50.3914 C   0  0  0  0  0  0  0  0  0  0  0  0
   57.9799   30.9349   51.4506 C   0  0  0  0  0  0  0  0  0  0  0  0
   57.9310   32.0946   52.2323 C   0  0  0  0  0  0  0  0  0  0  0  0
   58.7866   33.1670   51.9569 C   0  0  0  0  0  0  0  0  0  0  0  0
   58.7361   34.3158   52.7377 O   0  0  0  0  0  0  0  0  0  0  0  0
   59.6916   33.0815   50.8947 C   0  0  0  0  0  0  0  0  0  0  0  0
   59.7460   31.9239   50.1102 C   0  0  0  0  0  0  0  0  0  0  0  0
 21 22  2  0
 22 23  1  0
 23 24  1  0
 24 25  1  0
 25 26  2  0
 26 27  1  0
 27 28  2  0
 28 29  1  0
 28 30  1  0
 30 31  2  0
 22  1  1  0
  1  2  1  0
  2  3  1  0
  3  6  1  0
  6  7  2  0
  7  8  1  0
  8  9  2  0
  9 10  1  0
 10 11  2  0
 11 12  1  0
  3  4  2  0
  4  5  1  0
  5 13  1  0
 13 14  2  0
 13 15  2  0
 13 16  1  0
 16 17  1  0
 17 18  1  0
 18 19  1  0
 19 20  1  0
 31 25  1  0
  5  1  2  0
 20 16  1  0
 11  6  1  0
M  CHG 1  12  -1
M  CHG 1  23  -1
M  CHG 1  29  -1
M  END
> <UniqueID>
23

> <SMILES>
O=C([N-]Cc1ccc([O-])cc1)c1oc(-c2ccccc2[O-])nc1S(=O)(=O)N1CCCC1

> <Energy>
85.58024974658635

> <Genealogy>
O=C([N-]Cc1ccc([O-])cc1)c1oc(-c2ccccc2[O-])nc1S(=O)(=O)N1CCCC1 (protonated)
O=C([N-]Cc1ccc([O-])cc1)c1oc(-c2ccccc2[O-])nc1S(=O)(=O)N1CCCC1 (3D coordinates assigned)
O=C([N-]Cc1ccc([O-])cc1)c1oc(-c2ccccc2[O-])nc1S(=O)(=O)N1CCCC1 (nonaromatic ring conformer: 85.58024974658635 kcal/mol)

> <smiles>
O=C(NCc1ccc(O)cc1)c1oc(-c2ccccc2O)nc1S(=O)(=O)N1CCCC1

> <score_type>
oracle

> <origin>
adg

> <m_score__min__energy>
-14.529999999999999

> <m_primary>
energy

> <minimizedAffinity>
-7.51700

> <minimizedRMSD>
0.61678

> <CNNscore>
0.5210747719

> <CNNaffinity>
6.6253418922

> <CNN_VS>
3.4522984028

> <CNNaffinity_variance>
0.0183312725

$$$$
29:0


 29 32  0  0  0  0  0  0  0  0999 V2000
   59.5343   26.9088   47.1581 C   0  0  0  0  0  0  0  0  0  0  0  0
   58.9672   27.7470   46.2768 C   0  0  0  0  0  0  0  0  0  0  0  0
   58.2364   27.3874   45.1405 C   0  0  0  0  0  0  0  0  0  0  0  0
   57.9425   26.1412   44.7190 C   0  0  0  0  0  0  0  0  0  0  0  0
   57.8112   28.5747   44.5582 C   0  0  0  0  0  0  0  0  0  0  0  0
   58.3107   29.5990   45.3375 C   0  0  0  0  0  0  0  0  0  0  0  0
   58.0714   31.0551   45.0810 C   0  0  0  0  0  0  0  0  0  0  0  0
   59.0062   29.0995   46.3829 N   0  0  0  0  0  0  0  0  0  0  0  0
   57.3644   25.0949   45.5831 C   0  0  0  0  0  0  0  0  0  0  0  0
   56.1222   25.0775   46.1872 C   0  0  0  0  0  0  0  0  0  0  0  0
   55.1687   26.0864   46.1240 O   0  0  0  0  0  0  0  0  0  0  0  0
   55.9220   23.9052   46.8203 N   0  0  0  0  0  0  0  0  0  0  0  0
   57.0595   23.2258   46.5599 C   0  0  0  0  0  0  0  0  0  0  0  0
   57.2689   22.0573   46.9805 O   0  0  0  0  0  0  0  0  0  0  0  0
   57.9454   23.9044   45.8051 N   0  0  0  0  0  0  0  0  0  0  0  0
   58.8243   23.5959   45.4865 H   0  0  0  0  0  0  0  0  0  0  0  0
   59.6671   29.8747   47.3987 C   0  0  0  0  0  0  0  0  0  0  0  0
   60.9216   30.4432   47.1491 C   0  0  0  0  0  0  0  0  0  0  0  0
   61.5659   31.1898   48.1388 C   0  0  0  0  0  0  0  0  0  0  0  0
   60.9652   31.3716   49.3919 C   0  0  0  0  0  0  0  0  0  0  0  0
   59.7059   30.7961   49.6558 C   0  0  0  0  0  0  0  0  0  0  0  0
   59.0643   30.0525   48.6524 C   0  0  0  0  0  0  0  0  0  0  0  0
   59.0685   30.9569   50.9336 N   0  0  0  0  0  0  0  0  0  0  0  0
   59.1456   29.9631   51.9894 C   0  0  0  0  0  0  0  0  0  0  0  0
   58.0518   30.3384   52.9817 C   0  0  0  0  0  0  0  0  0  0  0  0
   57.6677   31.7787   52.6527 C   0  0  0  0  0  0  0  0  0  0  0  0
   58.1024   32.0032   51.2108 C   0  0  0  0  0  0  0  0  0  0  0  0
   61.6350   32.1894   50.3721 C   0  0  0  0  0  0  0  0  0  0  0  0
   62.1697   32.8458   51.1610 N   0  0  0  0  0  0  0  0  0  0  0  0
  1  2  2  0
  2  3  1  0
  3  4  2  0
  4  9  1  0
  9 10  2  0
 10 11  1  0
 10 12  1  0
 12 13  1  0
 13 14  2  0
 13 15  1  0
  3  5  1  0
  5  6  2  0
  6  7  1  0
  6  8  1  0
  8 17  1  0
 17 18  2  0
 18 19  1  0
 19 20  2  0
 20 28  1  0
 28 29  3  0
 20 21  1  0
 21 23  1  0
 23 24  1  0
 24 25  1  0
 25 26  1  0
 26 27  1  0
 21 22  2  0
  8  2  1  0
 22 17  1  0
 15  9  1  0
 27 23  1  0
 15 16  1  0
M  CHG 1  11  -1
M  CHG 1  12  -1
M  END
> <UniqueID>
26

> <SMILES>
C=c1/c(=C/c2[nH]c(=O)[n-]c2[O-])cc(C)n1-c1ccc(C#N)c(N2CCCC2)c1

> <Energy>
127.14651025604323

> <Genealogy>
C=c1c(=Cc2[nH]c(=O)[n-]c2[O-])cc(C)n1-c1ccc(C#N)c(N2CCCC2)c1 (protonated)
C=c1/c(=C/c2[nH]c(=O)[n-]c2[O-])cc(C)n1-c1ccc(C#N)c(N2CCCC2)c1 (cis-trans isomerization)
C=c1/c(=C/c2[nH]c(=O)[n-]c2[O-])cc(C)n1-c1ccc(C#N)c(N2CCCC2)c1 (3D coordinates assigned)
C=c1/c(=C/c2[nH]c(=O)[n-]c2[O-])cc(C)n1-c1ccc(C#N)c(N2CCCC2)c1 (nonaromatic ring conformer: 127.14651025604323 kcal/mol)

> <smiles>
C=c1c(=Cc2[nH]c(=O)[nH]c2O)cc(C)n1-c1ccc(C#N)c(N2CCCC2)c1

> <score_type>
oracle

> <origin>
adg

> <m_score__min__energy>
-14.35

> <m_primary>
energy

> <minimizedAffinity>
-8.12691

> <minimizedRMSD>
1.17247

> <CNNscore>
0.1032325402

> <CNNaffinity>
6.0998997688

> <CNN_VS>
0.6297081709

> <CNNaffinity_variance>
0.2244439572

$$$$
35:0


 25 27  0  0  0  0  0  0  0  0999 V2000
   58.5316   29.7677   44.4525 C   0  0  0  0  0  0  0  0  0  0  0  0
   58.7313   29.3967   45.7400 C   0  0  0  0  0  0  0  0  0  0  0  0
   59.1504   30.3804   46.6869 C   0  0  0  0  0  0  0  0  0  0  0  0
   59.5244   29.9983   47.9793 C   0  0  0  0  0  0  0  0  0  0  0  0
   59.4649   28.6692   48.3714 C   0  0  0  0  0  0  0  0  0  0  0  0
   59.9309   28.2182   50.0029 Cl  0  0  0  0  0  0  0  0  0  0  0  0
   59.0024   27.6993   47.4890 C   0  0  0  0  0  0  0  0  0  0  0  0
   58.6077   28.0278   46.1698 C   0  0  0  0  0  0  0  0  0  0  0  0
   58.0776   27.0566   45.3731 C   0  0  0  0  0  0  0  0  0  0  0  0
   57.6005   25.7357   45.8489 C   0  0  0  0  0  0  0  0  0  0  0  0
   56.2606   25.5301   46.2161 C   0  0  0  0  0  0  0  0  0  0  0  0
   55.3317   26.5607   46.1196 O   0  0  0  0  0  0  0  0  0  0  0  0
   55.8630   24.3177   46.6802 N   0  0  0  0  0  0  0  0  0  0  0  0
   56.7453   23.2951   46.8152 C   0  0  0  0  0  0  0  0  0  0  0  0
   56.3539   22.1791   47.2453 O   0  0  0  0  0  0  0  0  0  0  0  0
   58.0511   23.4770   46.4934 N   0  0  0  0  0  0  0  0  0  0  0  0
   58.4977   24.6705   46.0234 C   0  0  0  0  0  0  0  0  0  0  0  0
   59.7190   24.8059   45.7387 O   0  0  0  0  0  0  0  0  0  0  0  0
   59.2179   31.8279   46.3685 C   0  0  0  0  0  0  0  0  0  0  0  0
   60.3490   32.5719   46.7429 C   0  0  0  0  0  0  0  0  0  0  0  0
   60.4196   33.9387   46.4575 C   0  0  0  0  0  0  0  0  0  0  0  0
   59.3606   34.5731   45.8019 C   0  0  0  0  0  0  0  0  0  0  0  0
   58.2275   33.8425   45.4353 C   0  0  0  0  0  0  0  0  0  0  0  0
   58.1490   32.4749   45.7193 C   0  0  0  0  0  0  0  0  0  0  0  0
   57.0069   31.7670   45.3601 O   0  0  0  0  0  0  0  0  0  0  0  0
  1  2  2  0
  2  3  1  0
  3 19  1  0
 19 20  2  0
 20 21  1  0
 21 22  2  0
 22 23  1  0
 23 24  2  0
 24 25  1  0
  3  4  2  0
  4  5  1  0
  5  6  1  0
  5  7  2  0
  7  8  1  0
  8  9  2  0
  9 10  1  0
 10 11  2  0
 11 12  1  0
 11 13  1  0
 13 14  1  0
 14 15  2  0
 14 16  1  0
 16 17  1  0
 17 18  2  0
  8  2  1  0
 17 10  1  0
 24 19  1  0
M  CHG 1  12  -1
M  CHG 1  13  -1
M  CHG 1  16  -1
M  CHG 1  25  -1
M  END
> <UniqueID>
32

> <SMILES>
C=c1c(-c2ccccc2[O-])cc(Cl)c/c1=C\c1c([O-])[n-]c(=O)[n-]c1=O

> <Energy>
68.69873134179674

> <Genealogy>
C=c1c(-c2ccccc2[O-])cc(Cl)cc1=Cc1c([O-])[n-]c(=O)[n-]c1=O (protonated)
C=c1c(-c2ccccc2[O-])cc(Cl)c/c1=C\c1c([O-])[n-]c(=O)[n-]c1=O (cis-trans isomerization)
C=c1c(-c2ccccc2[O-])cc(Cl)c/c1=C\c1c([O-])[n-]c(=O)[n-]c1=O (3D coordinates assigned)
C=c1c(-c2ccccc2[O-])cc(Cl)c/c1=C\c1c([O-])[n-]c(=O)[n-]c1=O (optimized conformer: 68.69873134179674 kcal/mol)

> <smiles>
C=c1c(-c2ccccc2O)cc(Cl)cc1=Cc1c(O)[nH]c(=O)[nH]c1=O

> <score_type>
oracle

> <origin>
adg

> <m_score__min__energy>
-16.850000000000001

> <m_primary>
energy

> <minimizedAffinity>
-8.26357

> <minimizedRMSD>
0.76782

> <CNNscore>
0.5043570995

> <CNNaffinity>
6.7970886230

> <CNN_VS>
3.4281599522

> <CNNaffinity_variance>
0.3232333958

$$$$
42:0


 30 33  0  0  0  0  0  0  0  0999 V2000
   57.9243   28.7467   45.6671 C   0  0  0  0  0  0  0  0  0  0  0  0
   58.5125   29.9332   46.1365 C   0  0  0  0  0  0  0  0  0  0  0  0
   59.8152   29.9365   46.6574 C   0  0  0  0  0  0  0  0  0  0  0  0
   60.5190   28.7282   46.7482 C   0  0  0  0  0  0  0  0  0  0  0  0
   59.9446   27.5413   46.2888 C   0  0  0  0  0  0  0  0  0  0  0  0
   58.6561   27.5385   45.7397 C   0  0  0  0  0  0  0  0  0  0  0  0
   58.1046   26.3012   45.2571 N   0  0  0  0  0  0  0  0  0  0  0  0
   57.9124   25.9848   43.9606 C   0  0  0  0  0  0  0  0  0  0  0  0
   58.1592   26.9109   42.8092 C   0  0  0  0  0  0  0  0  0  0  0  0
   57.4103   24.7048   43.8508 C   0  0  0  0  0  0  0  0  0  0  0  0
   57.2493   24.2210   45.1404 C   0  0  0  0  0  0  0  0  0  0  0  0
   56.7175   23.0112   45.4021 C   0  0  0  0  0  0  0  0  0  0  0  0
   57.7198   25.2313   45.9979 C   0  0  0  0  0  0  0  0  0  0  0  0
   57.8889   25.1607   47.3277 C   0  0  0  0  0  0  0  0  0  0  0  0
   55.3294   22.7464   45.8083 C   0  0  0  0  0  0  0  0  0  0  0  0
   54.8095   21.5116   45.9090 N   0  0  0  0  0  0  0  0  0  0  0  0
   53.4991   21.7431   46.1399 C   0  0  0  0  0  0  0  0  0  0  0  0
   52.6684   20.8131   46.3139 O   0  0  0  0  0  0  0  0  0  0  0  0
   53.1453   23.0449   46.1593 N   0  0  0  0  0  0  0  0  0  0  0  0
   54.3124   23.6674   45.9319 C   0  0  0  0  0  0  0  0  0  0  0  0
   54.4375   25.0465   45.7987 O   0  0  0  0  0  0  0  0  0  0  0  0
   60.4297   31.1918   47.1314 C   0  0  0  0  0  0  0  0  0  0  0  0
   61.4678   31.1488   47.8450 O   0  0  0  0  0  0  0  0  0  0  0  0
   59.8873   32.4629   46.7681 N   0  0  0  0  0  0  0  0  0  0  0  0
   60.1764   33.8758   47.0719 C   0  0  0  0  0  0  0  0  0  0  0  0
   59.2170   34.4517   46.0859 C   0  0  0  0  0  0  0  0  0  0  0  0
   58.9311   33.0173   45.7907 C   0  0  0  0  0  0  0  0  0  0  0  0
   56.5032   28.7941   45.1578 C   0  0  0  0  0  0  0  0  0  0  0  0
   56.5850   30.1232   43.0761 C   0  0  0  0  0  0  0  0  0  0  0  0
   56.2589   30.0524   44.3709 C   0  0  0  0  0  0  0  0  0  0  0  0
 29 30  2  0
 30 28  1  0
 28  1  1  0
  1  2  2  0
  2  3  1  0
  3 22  1  0
 22 23  2  0
 22 24  1  0
 24 25  1  0
 25 26  1  0
 26 27  1  0
  3  4  2  0
  4  5  1  0
  5  6  2  0
  6  7  1  0
  7  8  1  0
  8  9  1  0
  8 10  2  0
 10 11  1  0
 11 12  2  0
 12 15  1  0
 15 16  1  0
 16 17  1  0
 17 18  2  0
 17 19  1  0
 19 20  1  0
 20 21  1  0
 11 13  1  0
 13 14  2  0
  6  1  1  0
 13  7  1  0
 27 24  1  0
 20 15  2  0
M  CHG 1  16  -1
M  CHG 1  19  -1
M  CHG 1  21  -1
M  END
> <UniqueID>
38

> <SMILES>
C=CCc1cc(C(=O)N2CCC2)ccc1-n1c(C)c/c(=C/c2[n-]c(=O)[n-]c2[O-])c1=C

> <Energy>
173.37372161381035

> <Genealogy>
C=CCc1cc(C(=O)N2CCC2)ccc1-n1c(C)cc(=Cc2[n-]c(=O)[n-]c2[O-])c1=C (protonated)
C=CCc1cc(C(=O)N2CCC2)ccc1-n1c(C)c/c(=C/c2[n-]c(=O)[n-]c2[O-])c1=C (cis-trans isomerization)
C=CCc1cc(C(=O)N2CCC2)ccc1-n1c(C)c/c(=C/c2[n-]c(=O)[n-]c2[O-])c1=C (3D coordinates assigned)
C=CCc1cc(C(=O)N2CCC2)ccc1-n1c(C)c/c(=C/c2[n-]c(=O)[n-]c2[O-])c1=C (nonaromatic ring conformer: 173.37372161381035 kcal/mol)

> <smiles>
C=CCc1cc(C(=O)N2CCC2)ccc1-n1c(C)cc(=Cc2[nH]c(=O)[nH]c2O)c1=C

> <score_type>
oracle

> <origin>
adg

> <m_score__min__energy>
-15.9

> <m_primary>
energy

> <minimizedAffinity>
-7.46390

> <minimizedRMSD>
0.97128

> <CNNscore>
0.0712326542

> <CNNaffinity>
5.8674921989

> <CNN_VS>
0.4179570377

> <CNNaffinity_variance>
0.2339590341

$$$$
50:0


 27 29  0  0  0  0  0  0  0  0999 V2000
   61.7771   31.0688   47.7281 C   0  0  0  0  0  0  0  0  0  0  0  0
   60.6582   31.4542   47.0916 C   0  0  0  0  0  0  0  0  0  0  0  0
   59.8781   30.6517   46.2519 C   0  0  0  0  0  0  0  0  0  0  0  0
   60.0566   29.3462   45.9702 C   0  0  0  0  0  0  0  0  0  0  0  0
   58.8280   31.4465   45.8190 C   0  0  0  0  0  0  0  0  0  0  0  0
   59.0069   32.6887   46.3915 C   0  0  0  0  0  0  0  0  0  0  0  0
   58.0626   33.8403   46.2126 C   0  0  0  0  0  0  0  0  0  0  0  0
   60.1156   32.7006   47.1713 N   0  0  0  0  0  0  0  0  0  0  0  0
   59.0295   28.3086   46.1757 C   0  0  0  0  0  0  0  0  0  0  0  0
   59.1501   27.3209   47.0796 N   0  0  0  0  0  0  0  0  0  0  0  0
   58.0463   26.5698   46.8721 C   0  0  0  0  0  0  0  0  0  0  0  0
   57.7914   25.5397   47.5488 O   0  0  0  0  0  0  0  0  0  0  0  0
   57.2445   27.0024   45.8764 N   0  0  0  0  0  0  0  0  0  0  0  0
   57.8855   28.0975   45.4376 C   0  0  0  0  0  0  0  0  0  0  0  0
   57.4576   28.8556   44.3538 O   0  0  0  0  0  0  0  0  0  0  0  0
   60.5578   33.8285   48.0121 C   0  0  0  0  0  0  0  0  0  0  0  0
   59.6454   34.0155   49.2330 C   0  0  0  0  0  0  0  0  0  0  0  0
   59.7852   32.8849   50.2235 C   0  0  0  0  0  0  0  0  0  0  0  0
   58.7369   31.9587   50.3634 C   0  0  0  0  0  0  0  0  0  0  0  0
   58.8599   30.8603   51.2183 C   0  0  0  0  0  0  0  0  0  0  0  0
   60.0444   30.6914   51.9542 C   0  0  0  0  0  0  0  0  0  0  0  0
   61.0904   31.6066   51.8251 C   0  0  0  0  0  0  0  0  0  0  0  0
   60.9773   32.7071   50.9544 C   0  0  0  0  0  0  0  0  0  0  0  0
   57.7864   29.9609   51.3027 O   0  0  0  0  0  0  0  0  0  0  0  0
   56.9587   29.8006   52.4506 C   0  0  0  0  0  0  0  0  0  0  0  0
   62.0238   33.6275   50.7841 O   0  0  0  0  0  0  0  0  0  0  0  0
   63.3624   33.2769   50.4512 C   0  0  0  0  0  0  0  0  0  0  0  0
  1  2  2  0
  2  3  1  0
  3  4  2  0
  4  9  1  0
  9 10  1  0
 10 11  1  0
 11 12  2  0
 11 13  1  0
 13 14  1  0
 14 15  1  0
  3  5  1  0
  5  6  2  0
  6  7  1  0
  6  8  1  0
  8 16  1  0
 16 17  1  0
 17 18  1  0
 18 19  2  0
 19 20  1  0
 20 24  1  0
 24 25  1  0
 20 21  2  0
 21 22  1  0
 22 23  2  0
 23 26  1  0
 26 27  1  0
  8  2  1  0
 23 18  1  0
 14  9  2  0
M  CHG 1  10  -1
M  CHG 1  13  -1
M  CHG 1  15  -1
M  END
> <UniqueID>
45

> <SMILES>
C=c1c(=Cc2[n-]c(=O)[n-]c2[O-])cc(C)n1CCc1cc(OC)ccc1OC

> <Energy>
108.32619665097742

> <Genealogy>
C=c1c(=Cc2[n-]c(=O)[n-]c2[O-])cc(C)n1CCc1cc(OC)ccc1OC (protonated)
C=c1c(=Cc2[n-]c(=O)[n-]c2[O-])cc(C)n1CCc1cc(OC)ccc1OC (3D coordinates assigned)
C=c1c(=Cc2[n-]c(=O)[n-]c2[O-])cc(C)n1CCc1cc(OC)ccc1OC (optimized conformer: 108.32619665097742 kcal/mol)

> <smiles>
C=c1c(=Cc2[nH]c(=O)[nH]c2O)cc(C)n1CCc1cc(OC)ccc1OC

> <score_type>
oracle

> <origin>
adg

> <m_score__min__energy>
-15.49

> <m_primary>
energy

> <minimizedAffinity>
-6.80587

> <minimizedRMSD>
2.72849

> <CNNscore>
0.5328329802

> <CNNaffinity>
6.9345335960

> <CNN_VS>
3.6949481964

> <CNNaffinity_variance>
0.1730274111

$$$$
67:0


 28 30  0  0  0  0  0  0  0  0999 V2000
   59.1631   32.7115   46.2333 C   0  0  0  0  0  0  0  0  0  0  0  0
   58.2081   31.9261   45.5642 C   0  0  0  0  0  0  0  0  0  0  0  0
   58.0808   30.5656   45.8474 C   0  0  0  0  0  0  0  0  0  0  0  0
   58.9187   29.9587   46.7867 C   0  0  0  0  0  0  0  0  0  0  0  0
   59.8458   30.7351   47.4876 C   0  0  0  0  0  0  0  0  0  0  0  0
   59.9808   32.1059   47.2179 C   0  0  0  0  0  0  0  0  0  0  0  0
   60.9141   32.8715   47.9963 N   0  0  0  0  0  0  0  0  0  0  0  0
   62.2306   33.2104   47.4554 C   0  0  0  0  0  0  0  0  0  0  0  0
   63.2802   33.0953   48.5655 C   0  0  0  0  0  0  0  0  0  0  0  0
   62.8889   33.8328   49.7091 O   0  0  0  0  0  0  0  0  0  0  0  0
   61.7169   33.2674   50.2690 C   0  0  0  0  0  0  0  0  0  0  0  0
   60.5341   33.4054   49.3058 C   0  0  0  0  0  0  0  0  0  0  0  0
   59.3121   35.1587   46.8600 N   0  0  0  0  0  0  0  0  0  0  0  0
   59.3191   34.1362   45.8616 C   0  0  0  0  0  0  0  0  0  0  0  0
   59.4414   34.4611   44.6502 O   0  0  0  0  0  0  0  0  0  0  0  0
   59.4169   36.1022   46.5991 H   0  0  0  0  0  0  0  0  0  0  0  0
   59.2026   34.9195   47.8087 H   0  0  0  0  0  0  0  0  0  0  0  0
   58.7882   28.5671   47.1010 N   0  0  0  0  0  0  0  0  0  0  0  0
   58.5728   27.5188   46.1486 C   0  0  0  0  0  0  0  0  0  0  0  0
   59.5616   27.0573   45.5223 O   0  0  0  0  0  0  0  0  0  0  0  0
   57.1877   27.0441   45.7929 C   0  0  0  0  0  0  0  0  0  0  0  0
   56.8639   25.7221   46.4259 C   0  0  0  0  0  0  0  0  0  0  0  0
   57.9237   24.8243   47.3827 S   0  0  0  0  0  0  0  0  0  0  0  0
   56.7722   23.6413   47.6996 C   0  0  0  0  0  0  0  0  0  0  0  0
   56.9787   22.6207   48.4070 O   0  0  0  0  0  0  0  0  0  0  0  0
   55.5831   23.9054   47.1181 N   0  0  0  0  0  0  0  0  0  0  0  0
   55.6308   25.0683   46.4170 C   0  0  0  0  0  0  0  0  0  0  0  0
   54.5131   25.5645   45.7583 O   0  0  0  0  0  0  0  0  0  0  0  0
 13 14  1  0
 14 15  2  0
 14  1  1  0
  1  2  2  0
  2  3  1  0
  3  4  2  0
  4 18  1  0
 18 19  1  0
 19 20  2  0
 19 21  1  0
 21 22  1  0
 22 23  1  0
 23 24  1  0
 24 25  2  0
 24 26  1  0
 26 27  1  0
 27 28  1  0
  4  5  1  0
  5  6  2  0
  6  7  1  0
  7  8  1  0
  8  9  1  0
  9 10  1  0
 10 11  1  0
 11 12  1  0
  6  1  1  0
 12  7  1  0
 27 22  2  0
 13 16  1  0
 13 17  1  0
M  CHG 1  18  -1
M  CHG 1  26  -1
M  CHG 1  28  -1
M  END
> <UniqueID>
62

> <SMILES>
NC(=O)c1ccc([N-]C(=O)Cc2sc(=O)[n-]c2[O-])cc1N1CCOCC1

> <Energy>
87.36505473863681

> <Genealogy>
NC(=O)c1ccc([N-]C(=O)Cc2sc(=O)[n-]c2[O-])cc1N1CCOCC1 (protonated)
NC(=O)c1ccc([N-]C(=O)Cc2sc(=O)[n-]c2[O-])cc1N1CCOCC1 (3D coordinates assigned)
NC(=O)c1ccc([N-]C(=O)Cc2sc(=O)[n-]c2[O-])cc1N1CCOCC1 (nonaromatic ring conformer: 87.36505473863681 kcal/mol)

> <smiles>
NC(=O)c1ccc(NC(=O)Cc2sc(=O)[nH]c2O)cc1N1CCOCC1

> <score_type>
oracle

> <origin>
adg

> <m_score__min__energy>
-15.199999999999999

> <m_primary>
energy

> <minimizedAffinity>
-6.50843

> <minimizedRMSD>
1.01569

> <CNNscore>
0.3970418572

> <CNNaffinity>
6.3121294975

> <CNN_VS>
2.5061795712

> <CNNaffinity_variance>
0.1837064475

$$$$
78:0


 24 25  0  0  0  0  0  0  0  0999 V2000
   58.3752   27.0939   46.2090 C   0  0  0  0  0  0  0  0  0  0  0  0
   59.7675   27.2307   46.1522 C   0  0  0  0  0  0  0  0  0  0  0  0
   60.3506   28.3462   45.5474 C   0  0  0  0  0  0  0  0  0  0  0  0
   59.5462   29.3410   44.9938 C   0  0  0  0  0  0  0  0  0  0  0  0
   58.1508   29.2259   45.0345 C   0  0  0  0  0  0  0  0  0  0  0  0
   57.5617   28.0801   45.6045 C   0  0  0  0  0  0  0  0  0  0  0  0
   56.1847   27.9107   45.5134 O   0  0  0  0  0  0  0  0  0  0  0  0
   57.3212   30.2933   44.4429 C   0  0  0  0  0  0  0  0  0  0  0  0
   56.8771   30.1453   43.2746 O   0  0  0  0  0  0  0  0  0  0  0  0
   57.0328   31.5086   45.1475 N   0  0  0  0  0  0  0  0  0  0  0  0
   57.7001   32.7923   44.9395 C   0  0  0  0  0  0  0  0  0  0  0  0
   59.0416   32.8476   45.6721 C   0  0  0  0  0  0  0  0  0  0  0  0
   58.8154   32.9070   47.1368 N   0  0  0  0  0  0  0  0  0  0  0  0
   59.1945   31.6566   47.8226 C   0  0  0  0  0  0  0  0  0  0  0  0
   60.7259   31.5287   47.9927 C   0  0  0  0  0  0  0  0  0  0  0  0
   61.4182   32.6024   47.3856 O   0  0  0  0  0  0  0  0  0  0  0  0
   60.9993   33.8243   47.9604 C   0  0  0  0  0  0  0  0  0  0  0  0
   59.4838   34.0625   47.7707 C   0  0  0  0  0  0  0  0  0  0  0  0
   57.8477   25.9246   46.8521 N   0  0  0  0  0  0  0  0  0  0  0  0
   56.9842   24.6171   46.1030 S   0  0  0  0  0  0  0  0  0  0  0  0
   57.4331   23.3265   46.7313 O   0  0  0  0  0  0  0  0  0  0  0  0
   55.5073   24.7660   46.3407 O   0  0  0  0  0  0  0  0  0  0  0  0
   56.3954   23.5793   43.6489 C   0  0  0  0  0  0  0  0  0  0  0  0
   57.3243   24.5619   44.3497 C   0  0  0  0  0  0  0  0  0  0  0  0
 23 24  1  0
 24 20  1  0
 20 21  2  0
 20 22  2  0
 20 19  1  0
 19  1  1  0
  1  2  2  0
  2  3  1  0
  3  4  2  0
  4  5  1  0
  5  8  1  0
  8  9  2  0
  8 10  1  0
 10 11  1  0
 11 12  1  0
 12 13  1  0
 13 14  1  0
 14 15  1  0
 15 16  1  0
 16 17  1  0
 17 18  1  0
  5  6  2  0
  6  7  1  0
  6  1  1  0
 18 13  1  0
M  CHG 1   7  -1
M  CHG 1  10  -1
M  CHG 1  19  -1
M  END
> <UniqueID>
73

> <SMILES>
CCS(=O)(=O)[N-]c1cccc(C(=O)[N-]CCN2CCOCC2)c1[O-]

> <Energy>
59.17947177117145

> <Genealogy>
CCS(=O)(=O)[N-]c1cccc(C(=O)[N-]CCN2CCOCC2)c1[O-] (protonated)
CCS(=O)(=O)[N-]c1cccc(C(=O)[N-]CCN2CCOCC2)c1[O-] (3D coordinates assigned)
CCS(=O)(=O)[N-]c1cccc(C(=O)[N-]CCN2CCOCC2)c1[O-] (nonaromatic ring conformer: 59.17947177117145 kcal/mol)

> <smiles>
CCS(=O)(=O)Nc1cccc(C(=O)NCCN2CCOCC2)c1O

> <score_type>
oracle

> <origin>
adg

> <m_score__min__energy>
-14.859999999999999

> <m_primary>
energy

> <minimizedAffinity>
-6.47483

> <minimizedRMSD>
1.80449

> <CNNscore>
0.5817936063

> <CNNaffinity>
6.0524668694

> <CNN_VS>
3.5212864876

> <CNNaffinity_variance>
0.0580219589

$$$$
85:0


 28 31  0  0  0  0  0  0  0  0999 V2000
   59.0859   29.1348   48.9338 C   0  0  0  0  0  0  0  0  0  0  0  0
   59.3787   28.7047   47.6946 C   0  0  0  0  0  0  0  0  0  0  0  0
   59.3239   27.3807   47.2297 C   0  0  0  0  0  0  0  0  0  0  0  0
   58.7740   26.2757   47.7691 C   0  0  0  0  0  0  0  0  0  0  0  0
   60.0044   27.3669   46.0224 C   0  0  0  0  0  0  0  0  0  0  0  0
   60.3831   28.6661   45.7626 C   0  0  0  0  0  0  0  0  0  0  0  0
   61.2422   29.0793   44.6077 C   0  0  0  0  0  0  0  0  0  0  0  0
   59.9741   29.4865   46.7568 N   0  0  0  0  0  0  0  0  0  0  0  0
   57.5923   25.5700   47.2508 C   0  0  0  0  0  0  0  0  0  0  0  0
   57.3050   24.2875   47.5417 N   0  0  0  0  0  0  0  0  0  0  0  0
   56.2148   24.0332   46.7844 C   0  0  0  0  0  0  0  0  0  0  0  0
   55.6243   22.9213   46.8011 O   0  0  0  0  0  0  0  0  0  0  0  0
   55.8125   25.0618   46.0086 N   0  0  0  0  0  0  0  0  0  0  0  0
   56.7025   26.0225   46.3043 C   0  0  0  0  0  0  0  0  0  0  0  0
   56.7175   27.2750   45.7057 O   0  0  0  0  0  0  0  0  0  0  0  0
   60.3159   30.8782   46.8751 C   0  0  0  0  0  0  0  0  0  0  0  0
   61.3893   31.3808   47.5790 C   0  0  0  0  0  0  0  0  0  0  0  0
   61.3297   32.7258   47.5609 N   0  0  0  0  0  0  0  0  0  0  0  0
   60.2692   33.0859   46.8529 N   0  0  0  0  0  0  0  0  0  0  0  0
   59.8503   34.4798   46.7381 C   0  0  0  0  0  0  0  0  0  0  0  0
   59.6120   31.9823   46.4174 C   0  0  0  0  0  0  0  0  0  0  0  0
   58.1283   31.9850   45.4339 S   0  0  0  0  0  0  0  0  0  0  0  0
   57.0811   32.8139   46.1140 O   0  0  0  0  0  0  0  0  0  0  0  0
   58.4155   32.6319   44.1083 O   0  0  0  0  0  0  0  0  0  0  0  0
   57.4563   30.3936   45.1399 N   0  0  0  0  0  0  0  0  0  0  0  0
   56.0728   30.4361   44.6550 C   0  0  0  0  0  0  0  0  0  0  0  0
   56.4439   29.8751   43.2979 C   0  0  0  0  0  0  0  0  0  0  0  0
   57.8610   29.8708   43.8317 C   0  0  0  0  0  0  0  0  0  0  0  0
  1  2  2  0
  2  3  1  0
  3  4  2  0
  4  9  1  0
  9 10  1  0
 10 11  1  0
 11 12  2  0
 11 13  1  0
 13 14  1  0
 14 15  1  0
  3  5  1  0
  5  6  2  0
  6  7  1  0
  6  8  1  0
  8 16  1  0
 16 17  1  0
 17 18  2  0
 18 19  1  0
 19 20  1  0
 19 21  1  0
 21 22  1  0
 22 23  2  0
 22 24  2  0
 22 25  1  0
 25 26  1  0
 26 27  1  0
 27 28  1  0
  8  2  1  0
 21 16  2  0
 28 25  1  0
 14  9  2  0
M  CHG 1  10  -1
M  CHG 1  13  -1
M  CHG 1  15  -1
M  END
> <UniqueID>
79

> <SMILES>
C=c1c(=Cc2[n-]c(=O)[n-]c2[O-])cc(C)n1-c1cnn(C)c1S(=O)(=O)N1CCC1

> <Energy>
223.47405143560604

> <Genealogy>
C=c1c(=Cc2[n-]c(=O)[n-]c2[O-])cc(C)n1-c1cnn(C)c1S(=O)(=O)N1CCC1 (protonated)
C=c1c(=Cc2[n-]c(=O)[n-]c2[O-])cc(C)n1-c1cnn(C)c1S(=O)(=O)N1CCC1 (3D coordinates assigned)
C=c1c(=Cc2[n-]c(=O)[n-]c2[O-])cc(C)n1-c1cnn(C)c1S(=O)(=O)N1CCC1 (nonaromatic ring conformer: 223.47405143560604 kcal/mol)

> <smiles>
C=c1c(=Cc2[nH]c(=O)[nH]c2O)cc(C)n1-c1cnn(C)c1S(=O)(=O)N1CCC1

> <score_type>
oracle

> <origin>
adg

> <m_score__min__energy>
-15.66

> <m_primary>
energy

> <minimizedAffinity>
-6.49714

> <minimizedRMSD>
0.87021

> <CNNscore>
0.3202522695

> <CNNaffinity>
6.5218157768

> <CNN_VS>
2.0886263847

> <CNNaffinity_variance>
0.0614336766

$$$$
6:0


 39 43  0  0  0  0  0  0  0  0999 V2000
   60.1809   33.3707   46.9839 C   0  0  0  0  0  0  0  0  0  0  0  0
   60.0489   34.4839   46.1455 C   0  0  0  0  0  0  0  0  0  0  0  0
   59.1281   34.4623   45.0940 C   0  0  0  0  0  0  0  0  0  0  0  0
   58.3524   33.3215   44.8632 C   0  0  0  0  0  0  0  0  0  0  0  0
   58.4962   32.1882   45.6823 C   0  0  0  0  0  0  0  0  0  0  0  0
   59.4008   32.2287   46.7560 C   0  0  0  0  0  0  0  0  0  0  0  0
   63.1280   33.2118   46.7367 C   0  0  0  0  0  0  0  0  0  0  0  0
   62.5006   33.2757   47.9198 C   0  0  0  0  0  0  0  0  0  0  0  0
   63.0858   33.3747   49.1930 C   0  0  0  0  0  0  0  0  0  0  0  0
   64.3685   33.2690   49.5840 C   0  0  0  0  0  0  0  0  0  0  0  0
   62.0470   33.6048   50.0811 C   0  0  0  0  0  0  0  0  0  0  0  0
   60.8797   33.5879   49.3446 C   0  0  0  0  0  0  0  0  0  0  0  0
   59.5026   33.7288   49.9170 C   0  0  0  0  0  0  0  0  0  0  0  0
   61.1522   33.3778   48.0410 N   0  0  0  0  0  0  0  0  0  0  0  0
   64.9357   32.1509   50.3508 C   0  0  0  0  0  0  0  0  0  0  0  0
   64.2061   31.1761   50.9283 N   0  0  0  0  0  0  0  0  0  0  0  0
   65.1211   30.4901   51.6462 C   0  0  0  0  0  0  0  0  0  0  0  0
   64.8202   29.4830   52.3411 O   0  0  0  0  0  0  0  0  0  0  0  0
   66.3779   30.9796   51.5792 N   0  0  0  0  0  0  0  0  0  0  0  0
   66.2385   32.0378   50.7660 C   0  0  0  0  0  0  0  0  0  0  0  0
   67.2777   32.8925   50.4215 O   0  0  0  0  0  0  0  0  0  0  0  0
   57.7042   30.9637   45.4201 C   0  0  0  0  0  0  0  0  0  0  0  0
   56.5755   31.0676   44.8683 O   0  0  0  0  0  0  0  0  0  0  0  0
   58.2033   29.6614   45.7816 N   0  0  0  0  0  0  0  0  0  0  0  0
   58.7263   29.4259   47.1285 C   0  0  0  0  0  0  0  0  0  0  0  0
   59.8585   28.3934   47.0826 C   0  0  0  0  0  0  0  0  0  0  0  0
   59.5103   27.1938   46.2932 N   0  0  0  0  0  0  0  0  0  0  0  0
   58.8973   27.4465   44.9741 C   0  0  0  0  0  0  0  0  0  0  0  0
   57.7678   28.4821   45.0319 C   0  0  0  0  0  0  0  0  0  0  0  0
   59.0235   26.0163   47.0433 C   0  0  0  0  0  0  0  0  0  0  0  0
   58.3474   24.9801   46.1773 C   0  0  0  0  0  0  0  0  0  0  0  0
   59.1031   23.9724   45.5584 C   0  0  0  0  0  0  0  0  0  0  0  0
   58.4773   23.0059   44.7699 C   0  0  0  0  0  0  0  0  0  0  0  0
   57.0915   23.0326   44.5948 C   0  0  0  0  0  0  0  0  0  0  0  0
   56.3139   24.0252   45.2178 C   0  0  0  0  0  0  0  0  0  0  0  0
   56.9515   24.9875   46.0189 C   0  0  0  0  0  0  0  0  0  0  0  0
   54.8456   24.0627   45.0308 C   0  0  0  0  0  0  0  0  0  0  0  0
   54.1103   24.6846   45.8439 O   0  0  0  0  0  0  0  0  0  0  0  0
   54.2550   23.4082   43.9583 O   0  0  0  0  0  0  0  0  0  0  0  0
  7  8  2  0
  8  9  1  0
  9 10  2  0
 10 15  1  0
 15 16  1  0
 16 17  1  0
 17 18  2  0
 17 19  1  0
 19 20  1  0
 20 21  1  0
  9 11  1  0
 11 12  2  0
 12 13  1  0
 12 14  1  0
 14  1  1  0
  1  2  2  0
  2  3  1  0
  3  4  2  0
  4  5  1  0
  5 22  1  0
 22 23  2  0
 22 24  1  0
 24 25  1  0
 25 26  1  0
 26 27  1  0
 27 30  1  0
 30 31  1  0
 31 32  2  0
 32 33  1  0
 33 34  2  0
 34 35  1  0
 35 37  1  0
 37 38  2  0
 37 39  1  0
 35 36  2  0
 27 28  1  0
 28 29  1  0
  5  6  2  0
 14  8  1  0
  6  1  1  0
 20 15  2  0
 29 24  1  0
 36 31  1  0
M  CHG 1  16  -1
M  CHG 1  19  -1
M  CHG 1  21  -1
M  CHG 1  39  -1
M  END
> <UniqueID>
5

> <SMILES>
C=c1c(=Cc2[n-]c(=O)[n-]c2[O-])cc(C)n1-c1cccc(C(=O)N2CCN(Cc3cccc(C(=O)[O-])c3)CC2)c1

> <Energy>
157.98369348088315

> <Genealogy>
C=c1c(=Cc2[n-]c(=O)[n-]c2[O-])cc(C)n1-c1cccc(C(=O)N2CCN(Cc3cccc(C(=O)[O-])c3)CC2)c1 (protonated)
C=c1c(=Cc2[n-]c(=O)[n-]c2[O-])cc(C)n1-c1cccc(C(=O)N2CCN(Cc3cccc(C(=O)[O-])c3)CC2)c1 (3D coordinates assigned)
C=c1c(=Cc2[n-]c(=O)[n-]c2[O-])cc(C)n1-c1cccc(C(=O)N2CCN(Cc3cccc(C(=O)[O-])c3)CC2)c1 (nonaromatic ring conformer: 157.98369348088315 kcal/mol)

> <smiles>
C=c1c(=Cc2[nH]c(=O)[nH]c2O)cc(C)n1-c1cccc(C(=O)N2CCN(Cc3cccc(C(=O)O)c3)CC2)c1

> <score_type>
oracle

> <origin>
adg

> <m_score__min__energy>
-21.190000000000001

> <m_primary>
energy

> <minimizedAffinity>
-10.74010

> <minimizedRMSD>
0.59070

> <CNNscore>
0.5193116069

> <CNNaffinity>
7.2048544884

> <CNN_VS>
3.7415645123

> <CNNaffinity_variance>
0.4518235624

$$$$
9:0


 32 35  0  0  0  0  0  0  0  0999 V2000
   59.1677   29.1113   46.3223 N   0  0  0  0  0  0  0  0  0  0  0  0
   58.4477   29.6474   45.3138 C   0  0  0  0  0  0  0  0  0  0  0  0
   58.3818   31.1087   44.9887 C   0  0  0  0  0  0  0  0  0  0  0  0
   57.7525   28.6618   44.6443 C   0  0  0  0  0  0  0  0  0  0  0  0
   58.0833   27.4568   45.2427 C   0  0  0  0  0  0  0  0  0  0  0  0
   57.6246   26.2713   44.7958 C   0  0  0  0  0  0  0  0  0  0  0  0
   58.9401   27.7723   46.3130 C   0  0  0  0  0  0  0  0  0  0  0  0
   59.3833   26.9462   47.2732 C   0  0  0  0  0  0  0  0  0  0  0  0
   57.2849   25.1087   45.6389 C   0  0  0  0  0  0  0  0  0  0  0  0
   56.0315   25.0291   46.2616 C   0  0  0  0  0  0  0  0  0  0  0  0
   55.1129   26.0662   46.1380 O   0  0  0  0  0  0  0  0  0  0  0  0
   55.7092   23.9375   47.0024 N   0  0  0  0  0  0  0  0  0  0  0  0
   56.5771   22.9026   47.1375 C   0  0  0  0  0  0  0  0  0  0  0  0
   56.2580   21.9031   47.8316 O   0  0  0  0  0  0  0  0  0  0  0  0
   57.7861   22.9426   46.5212 N   0  0  0  0  0  0  0  0  0  0  0  0
   58.1554   24.0112   45.7707 C   0  0  0  0  0  0  0  0  0  0  0  0
   59.2765   24.0047   45.1942 O   0  0  0  0  0  0  0  0  0  0  0  0
   58.4695   29.2892   49.0577 O   0  0  0  0  0  0  0  0  0  0  0  0
   59.6248   29.9290   48.6051 C   0  0  0  0  0  0  0  0  0  0  0  0
   60.4291   30.6491   49.4989 C   0  0  0  0  0  0  0  0  0  0  0  0
   61.6003   31.2847   49.0536 C   0  0  0  0  0  0  0  0  0  0  0  0
   61.9480   31.2028   47.6957 C   0  0  0  0  0  0  0  0  0  0  0  0
   61.1479   30.4863   46.8031 C   0  0  0  0  0  0  0  0  0  0  0  0
   59.9848   29.8480   47.2506 C   0  0  0  0  0  0  0  0  0  0  0  0
   58.2280   29.3424   49.9614 H   0  0  0  0  0  0  0  0  0  0  0  0
   62.4178   32.0372   49.9713 N   0  0  0  0  0  0  0  0  0  0  0  0
   63.5688   32.8152   49.5037 C   0  0  0  0  0  0  0  0  0  0  0  0
   64.8440   32.3860   50.2525 C   0  0  0  0  0  0  0  0  0  0  0  0
   64.6018   31.9327   51.6487 N   0  0  0  0  0  0  0  0  0  0  0  0
   64.6887   30.4679   51.7713 C   0  0  0  0  0  0  0  0  0  0  0  0
   63.3443   32.4591   52.2247 C   0  0  0  0  0  0  0  0  0  0  0  0
   62.1160   32.0284   51.4063 C   0  0  0  0  0  0  0  0  0  0  0  0
 18 19  1  0
 19 20  2  0
 20 21  1  0
 21 26  1  0
 26 27  1  0
 27 28  1  0
 28 29  1  0
 29 30  1  0
 29 31  1  0
 31 32  1  0
 21 22  2  0
 22 23  1  0
 23 24  2  0
 24  1  1  0
  1  2  1  0
  2  3  1  0
  2  4  2  0
  4  5  1  0
  5  6  2  0
  6  9  1  0
  9 10  2  0
 10 11  1  0
 10 12  1  0
 12 13  1  0
 13 14  2  0
 13 15  1  0
 15 16  1  0
 16 17  2  0
  5  7  1  0
  7  8  2  0
 24 19  1  0
  7  1  1  0
 32 26  1  0
 16  9  1  0
 18 25  1  0
M  CHG 1  11  -1
M  CHG 1  12  -1
M  CHG 1  15  -1
M  END
> <UniqueID>
8

> <SMILES>
C=c1/c(=C\c2c([O-])[n-]c(=O)[n-]c2=O)cc(C)n1-c1ccc(N2CCN(C)CC2)cc1O

> <Energy>
116.40125995366968

> <Genealogy>
C=c1c(=Cc2c([O-])[n-]c(=O)[n-]c2=O)cc(C)n1-c1ccc(N2CCN(C)CC2)cc1O (protonated)
C=c1/c(=C\c2c([O-])[n-]c(=O)[n-]c2=O)cc(C)n1-c1ccc(N2CCN(C)CC2)cc1O (cis-trans isomerization)
C=c1/c(=C\c2c([O-])[n-]c(=O)[n-]c2=O)cc(C)n1-c1ccc(N2CCN(C)CC2)cc1O (3D coordinates assigned)
C=c1/c(=C\c2c([O-])[n-]c(=O)[n-]c2=O)cc(C)n1-c1ccc(N2CCN(C)CC2)cc1O (nonaromatic ring conformer: 116.40125995366968 kcal/mol)

> <smiles>
C=c1c(=Cc2c(O)[nH]c(=O)[nH]c2=O)cc(C)n1-c1ccc(N2CCN(C)CC2)cc1O

> <score_type>
oracle

> <origin>
adg

> <m_score__min__energy>
-15.75

> <m_primary>
energy

> <minimizedAffinity>
-8.00676

> <minimizedRMSD>
1.68937

> <CNNscore>
0.0856453031

> <CNNaffinity>
5.7235546112

> <CNN_VS>
0.4901955724

> <CNNaffinity_variance>
0.1866614819

$$$$
16:0


 31 34  0  0  0  0  0  0  0  0999 V2000
   59.3683   30.0516   47.8675 C   0  0  0  0  0  0  0  0  0  0  0  0
   58.9528   30.7148   46.7749 C   0  0  0  0  0  0  0  0  0  0  0  0
   58.8858   30.2133   45.4630 C   0  0  0  0  0  0  0  0  0  0  0  0
   59.0603   28.9682   44.9754 C   0  0  0  0  0  0  0  0  0  0  0  0
   58.5723   31.2872   44.6520 C   0  0  0  0  0  0  0  0  0  0  0  0
   58.4007   32.3769   45.4769 C   0  0  0  0  0  0  0  0  0  0  0  0
   58.0787   33.7585   44.9890 C   0  0  0  0  0  0  0  0  0  0  0  0
   58.6259   32.0376   46.7686 N   0  0  0  0  0  0  0  0  0  0  0  0
   58.5508   27.7225   45.5827 C   0  0  0  0  0  0  0  0  0  0  0  0
   57.1716   27.4705   45.6240 C   0  0  0  0  0  0  0  0  0  0  0  0
   56.2720   28.3600   45.0506 O   0  0  0  0  0  0  0  0  0  0  0  0
   56.7068   26.3428   46.2231 N   0  0  0  0  0  0  0  0  0  0  0  0
   57.5548   25.4552   46.8013 C   0  0  0  0  0  0  0  0  0  0  0  0
   57.1017   24.4150   47.3454 O   0  0  0  0  0  0  0  0  0  0  0  0
   58.8921   25.6910   46.7983 N   0  0  0  0  0  0  0  0  0  0  0  0
   59.4074   26.8038   46.2141 C   0  0  0  0  0  0  0  0  0  0  0  0
   60.6513   27.0009   46.2513 O   0  0  0  0  0  0  0  0  0  0  0  0
   58.5910   32.9756   47.9043 C   0  0  0  0  0  0  0  0  0  0  0  0
   59.9533   33.1010   48.5382 C   0  0  0  0  0  0  0  0  0  0  0  0
   60.1069   33.0221   49.9292 C   0  0  0  0  0  0  0  0  0  0  0  0
   61.3381   33.1430   50.4899 N   0  0  0  0  0  0  0  0  0  0  0  0
   62.4667   33.3396   49.7501 C   0  0  0  0  0  0  0  0  0  0  0  0
   62.3498   33.4205   48.3505 C   0  0  0  0  0  0  0  0  0  0  0  0
   61.0954   33.2985   47.7519 C   0  0  0  0  0  0  0  0  0  0  0  0
   63.7499   33.4512   50.4107 N   0  0  0  0  0  0  0  0  0  0  0  0
   63.8899   34.1947   51.6713 C   0  0  0  0  0  0  0  0  0  0  0  0
   64.6263   33.3432   52.7219 C   0  0  0  0  0  0  0  0  0  0  0  0
   65.7082   32.4892   52.1634 N   0  0  0  0  0  0  0  0  0  0  0  0
   65.3633   31.0577   52.2311 C   0  0  0  0  0  0  0  0  0  0  0  0
   66.1353   32.8871   50.8063 C   0  0  0  0  0  0  0  0  0  0  0  0
   64.9634   32.8761   49.8130 C   0  0  0  0  0  0  0  0  0  0  0  0
  1  2  2  0
  2  3  1  0
  3  4  2  0
  4  9  1  0
  9 10  2  0
 10 11  1  0
 10 12  1  0
 12 13  1  0
 13 14  2  0
 13 15  1  0
 15 16  1  0
 16 17  2  0
  3  5  1  0
  5  6  2  0
  6  7  1  0
  6  8  1  0
  8 18  1  0
 18 19  1  0
 19 20  2  0
 20 21  1  0
 21 22  2  0
 22 25  1  0
 25 26  1  0
 26 27  1  0
 27 28  1  0
 28 29  1  0
 28 30  1  0
 30 31  1  0
 22 23  1  0
 23 24  2  0
  8  2  1  0
 24 19  1  0
 16  9  1  0
 31 25  1  0
M  CHG 1  11  -1
M  CHG 1  12  -1
M  CHG 1  15  -1
M  END
> <UniqueID>
15

> <SMILES>
C=c1/c(=C\c2c([O-])[n-]c(=O)[n-]c2=O)cc(C)n1Cc1ccc(N2CCN(C)CC2)nc1

> <Energy>
110.5665576271467

> <Genealogy>
C=c1c(=Cc2c([O-])[n-]c(=O)[n-]c2=O)cc(C)n1Cc1ccc(N2CCN(C)CC2)nc1 (protonated)
C=c1/c(=C\c2c([O-])[n-]c(=O)[n-]c2=O)cc(C)n1Cc1ccc(N2CCN(C)CC2)nc1 (cis-trans isomerization)
C=c1/c(=C\c2c([O-])[n-]c(=O)[n-]c2=O)cc(C)n1Cc1ccc(N2CCN(C)CC2)nc1 (3D coordinates assigned)
C=c1/c(=C\c2c([O-])[n-]c(=O)[n-]c2=O)cc(C)n1Cc1ccc(N2CCN(C)CC2)nc1 (nonaromatic ring conformer: 110.5665576271467 kcal/mol)

> <smiles>
C=c1c(=Cc2c(O)[nH]c(=O)[nH]c2=O)cc(C)n1Cc1ccc(N2CCN(C)CC2)nc1

> <score_type>
oracle

> <origin>
adg

> <m_score__min__energy>
-16.09

> <m_primary>
energy

> <minimizedAffinity>
-7.87347

> <minimizedRMSD>
1.14370

> <CNNscore>
0.4143108428

> <CNNaffinity>
6.9482178688

> <CNN_VS>
2.8787219524

> <CNNaffinity_variance>
0.0830351338

$$$$
21:0


 31 34  0  0  0  0  0  0  0  0999 V2000
   59.3404   31.3464   48.2647 N   0  0  0  0  0  0  0  0  0  0  0  0
   58.8412   31.9840   47.1827 C   0  0  0  0  0  0  0  0  0  0  0  0
   58.3324   33.3935   47.1742 C   0  0  0  0  0  0  0  0  0  0  0  0
   58.9016   31.1670   46.0714 C   0  0  0  0  0  0  0  0  0  0  0  0
   59.4482   29.9618   46.4926 C   0  0  0  0  0  0  0  0  0  0  0  0
   59.7069   28.8915   45.7173 C   0  0  0  0  0  0  0  0  0  0  0  0
   59.7171   30.1074   47.8574 C   0  0  0  0  0  0  0  0  0  0  0  0
   60.2838   29.1923   48.6603 C   0  0  0  0  0  0  0  0  0  0  0  0
   58.9494   27.6210   45.7998 C   0  0  0  0  0  0  0  0  0  0  0  0
   57.5764   27.5603   45.5013 C   0  0  0  0  0  0  0  0  0  0  0  0
   56.8797   28.7001   45.1151 O   0  0  0  0  0  0  0  0  0  0  0  0
   56.9120   26.3817   45.6109 N   0  0  0  0  0  0  0  0  0  0  0  0
   57.5468   25.2540   46.0218 C   0  0  0  0  0  0  0  0  0  0  0  0
   56.9101   24.1726   46.1125 O   0  0  0  0  0  0  0  0  0  0  0  0
   58.8635   25.2943   46.3429 N   0  0  0  0  0  0  0  0  0  0  0  0
   59.5755   26.4477   46.2488 C   0  0  0  0  0  0  0  0  0  0  0  0
   60.7969   26.4481   46.5590 O   0  0  0  0  0  0  0  0  0  0  0  0
   60.7265   33.0308   51.3119 C   0  0  0  0  0  0  0  0  0  0  0  0
   59.6098   32.9883   52.1661 C   0  0  0  0  0  0  0  0  0  0  0  0
   58.4238   32.3859   51.7403 C   0  0  0  0  0  0  0  0  0  0  0  0
   58.3357   31.8380   50.4585 C   0  0  0  0  0  0  0  0  0  0  0  0
   59.4368   31.8930   49.5919 C   0  0  0  0  0  0  0  0  0  0  0  0
   60.6254   32.5006   50.0208 C   0  0  0  0  0  0  0  0  0  0  0  0
   61.9509   33.6604   51.7120 N   0  0  0  0  0  0  0  0  0  0  0  0
   63.2232   33.4722   51.0842 C   0  0  0  0  0  0  0  0  0  0  0  0
   64.2669   33.6243   51.7712 O   0  0  0  0  0  0  0  0  0  0  0  0
   63.3027   34.1006   48.6921 C   0  0  0  0  0  0  0  0  0  0  0  0
   63.3346   33.1814   49.6386 C   0  0  0  0  0  0  0  0  0  0  0  0
   63.3671   31.8164   49.0269 C   0  0  0  0  0  0  0  0  0  0  0  0
   63.3607   32.1138   47.5204 C   0  0  0  0  0  0  0  0  0  0  0  0
   63.3302   33.5300   47.4356 O   0  0  0  0  0  0  0  0  0  0  0  0
 27 28  2  0
 28 25  1  0
 25 26  2  0
 25 24  1  0
 24 18  1  0
 18 19  2  0
 19 20  1  0
 20 21  2  0
 21 22  1  0
 22  1  1  0
  1  2  1  0
  2  3  1  0
  2  4  2  0
  4  5  1  0
  5  6  2  0
  6  9  1  0
  9 10  2  0
 10 11  1  0
 10 12  1  0
 12 13  1  0
 13 14  2  0
 13 15  1  0
 15 16  1  0
 16 17  2  0
  5  7  1  0
  7  8  2  0
 22 23  2  0
 28 29  1  0
 29 30  1  0
 30 31  1  0
 31 27  1  0
 23 18  1  0
  7  1  1  0
 16  9  1  0
M  CHG 1  11  -1
M  CHG 1  12  -1
M  CHG 1  15  -1
M  CHG 1  24  -1
M  END
> <UniqueID>
20

> <SMILES>
C=c1/c(=C/c2c([O-])[n-]c(=O)[n-]c2=O)cc(C)n1-c1cccc([N-]C(=O)C2=COCC2)c1

> <Energy>
112.35216508274532

> <Genealogy>
C=c1c(=Cc2c([O-])[n-]c(=O)[n-]c2=O)cc(C)n1-c1cccc([N-]C(=O)C2=COCC2)c1 (protonated)
C=c1/c(=C/c2c([O-])[n-]c(=O)[n-]c2=O)cc(C)n1-c1cccc([N-]C(=O)C2=COCC2)c1 (cis-trans isomerization)
C=c1/c(=C/c2c([O-])[n-]c(=O)[n-]c2=O)cc(C)n1-c1cccc([N-]C(=O)C2=COCC2)c1 (3D coordinates assigned)
C=c1/c(=C/c2c([O-])[n-]c(=O)[n-]c2=O)cc(C)n1-c1cccc([N-]C(=O)C2=COCC2)c1 (nonaromatic ring conformer: 112.35216508274532 kcal/mol)

> <smiles>
C=c1c(=Cc2c(O)[nH]c(=O)[nH]c2=O)cc(C)n1-c1cccc(NC(=O)C2=COCC2)c1

> <score_type>
oracle

> <origin>
adg

> <m_score__min__energy>
-17.550000000000001

> <m_primary>
energy

> <minimizedAffinity>
-7.59863

> <minimizedRMSD>
1.33490

> <CNNscore>
0.3433386087

> <CNNaffinity>
7.0372314453

> <CNN_VS>
2.4161531925

> <CNNaffinity_variance>
0.1463504285

$$$$
25:0


 26 29  0  0  0  0  0  0  0  0999 V2000
   58.2295   27.9520   44.1573 C   0  0  0  0  0  0  0  0  0  0  0  0
   58.5364   27.7757   45.4520 C   0  0  0  0  0  0  0  0  0  0  0  0
   58.6560   26.5499   46.1160 C   0  0  0  0  0  0  0  0  0  0  0  0
   58.5550   25.3170   45.5835 C   0  0  0  0  0  0  0  0  0  0  0  0
   58.9419   26.8507   47.4409 C   0  0  0  0  0  0  0  0  0  0  0  0
   58.9877   28.2276   47.5344 C   0  0  0  0  0  0  0  0  0  0  0  0
   59.2675   28.9857   48.7961 C   0  0  0  0  0  0  0  0  0  0  0  0
   58.7349   28.7898   46.3308 N   0  0  0  0  0  0  0  0  0  0  0  0
   57.3896   24.4296   45.7926 C   0  0  0  0  0  0  0  0  0  0  0  0
   56.1310   24.9794   46.0803 C   0  0  0  0  0  0  0  0  0  0  0  0
   55.9571   26.3580   46.1371 O   0  0  0  0  0  0  0  0  0  0  0  0
   55.0668   24.1647   46.2950 N   0  0  0  0  0  0  0  0  0  0  0  0
   55.1976   22.8143   46.2517 C   0  0  0  0  0  0  0  0  0  0  0  0
   54.1963   22.0780   46.4490 O   0  0  0  0  0  0  0  0  0  0  0  0
   56.4104   22.2560   46.0017 N   0  0  0  0  0  0  0  0  0  0  0  0
   57.5059   23.0276   45.7819 C   0  0  0  0  0  0  0  0  0  0  0  0
   58.6206   22.4736   45.5887 O   0  0  0  0  0  0  0  0  0  0  0  0
   58.7121   30.2010   46.0530 C   0  0  0  0  0  0  0  0  0  0  0  0
   57.7484   30.7337   45.1568 C   0  0  0  0  0  0  0  0  0  0  0  0
   57.7071   32.1138   44.8852 C   0  0  0  0  0  0  0  0  0  0  0  0
   58.6388   32.9220   45.5283 C   0  0  0  0  0  0  0  0  0  0  0  0
   58.8707   34.2744   45.4929 C   0  0  0  0  0  0  0  0  0  0  0  0
   59.9092   34.5436   46.3193 N   0  0  0  0  0  0  0  0  0  0  0  0
   60.3373   33.4104   46.8716 N   0  0  0  0  0  0  0  0  0  0  0  0
   59.5654   32.4203   46.3924 C   0  0  0  0  0  0  0  0  0  0  0  0
   59.6378   31.0614   46.6850 C   0  0  0  0  0  0  0  0  0  0  0  0
  1  2  2  0
  2  3  1  0
  3  4  2  0
  4  9  1  0
  9 10  2  0
 10 11  1  0
 10 12  1  0
 12 13  1  0
 13 14  2  0
 13 15  1  0
 15 16  1  0
 16 17  2  0
  3  5  1  0
  5  6  2  0
  6  7  1  0
  6  8  1  0
  8 18  1  0
 18 19  1  0
 19 20  2  0
 20 21  1  0
 21 22  2  0
 22 23  1  0
 23 24  1  0
 24 25  2  0
 25 26  1  0
  8  2  1  0
 26 18  2  0
 16  9  1  0
 25 21  1  0
M  CHG 1  11  -1
M  CHG 1  12  -1
M  CHG 1  15  -1
M  CHG 1  23  -1
M  END
> <UniqueID>
24

> <SMILES>
C=c1/c(=C/c2c([O-])[n-]c(=O)[n-]c2=O)cc(C)n1-c1ccc2c[n-]nc2c1

> <Energy>
124.56578321890444

> <Genealogy>
C=c1c(=Cc2c([O-])[n-]c(=O)[n-]c2=O)cc(C)n1-c1ccc2c[n-]nc2c1 (protonated)
C=c1/c(=C/c2c([O-])[n-]c(=O)[n-]c2=O)cc(C)n1-c1ccc2c[n-]nc2c1 (cis-trans isomerization)
C=c1/c(=C/c2c([O-])[n-]c(=O)[n-]c2=O)cc(C)n1-c1ccc2c[n-]nc2c1 (3D coordinates assigned)
C=c1/c(=C/c2c([O-])[n-]c(=O)[n-]c2=O)cc(C)n1-c1ccc2c[n-]nc2c1 (optimized conformer: 124.56578321890444 kcal/mol)

> <smiles>
C=c1c(=Cc2c(O)[nH]c(=O)[nH]c2=O)cc(C)n1-c1ccc2c[nH]nc2c1

> <score_type>
oracle

> <origin>
adg

> <m_score__min__energy>
-16.199999999999999

> <m_primary>
energy

> <minimizedAffinity>
-9.25817

> <minimizedRMSD>
1.13869

> <CNNscore>
0.2948935628

> <CNNaffinity>
6.8053321838

> <CNN_VS>
2.0068485737

> <CNNaffinity_variance>
0.0665450692

$$$$
26:0


 28 30  0  0  0  0  0  0  0  0999 V2000
   58.3236   31.4018   45.1408 C   0  0  0  0  0  0  0  0  0  0  0  0
   58.0096   32.6122   44.4948 C   0  0  0  0  0  0  0  0  0  0  0  0
   58.1822   33.8287   45.1619 C   0  0  0  0  0  0  0  0  0  0  0  0
   58.6765   33.8508   46.4687 C   0  0  0  0  0  0  0  0  0  0  0  0
   59.0090   32.6520   47.1136 C   0  0  0  0  0  0  0  0  0  0  0  0
   58.8414   31.4331   46.4410 C   0  0  0  0  0  0  0  0  0  0  0  0
   59.6509   32.6656   48.7533 S   0  0  0  0  0  0  0  0  0  0  0  0
   59.9383   34.0889   49.1391 O   0  0  0  0  0  0  0  0  0  0  0  0
   58.6313   32.0941   49.7001 O   0  0  0  0  0  0  0  0  0  0  0  0
   61.1218   31.7158   48.8045 N   0  0  0  0  0  0  0  0  0  0  0  0
   61.9274   32.0119   50.0096 C   0  0  0  0  0  0  0  0  0  0  0  0
   63.0983   32.9691   49.7222 C   0  0  0  0  0  0  0  0  0  0  0  0
   62.7438   33.8849   48.7106 O   0  0  0  0  0  0  0  0  0  0  0  0
   62.6208   33.2168   47.4654 C   0  0  0  0  0  0  0  0  0  0  0  0
   61.9009   31.8501   47.5616 C   0  0  0  0  0  0  0  0  0  0  0  0
   58.1889   30.1315   44.4856 N   0  0  0  0  0  0  0  0  0  0  0  0
   57.5837   28.9499   45.0259 C   0  0  0  0  0  0  0  0  0  0  0  0
   56.3425   28.9088   45.2480 O   0  0  0  0  0  0  0  0  0  0  0  0
   58.2241   26.5765   44.8852 C   0  0  0  0  0  0  0  0  0  0  0  0
   58.4449   27.8057   45.3683 C   0  0  0  0  0  0  0  0  0  0  0  0
   55.2923   26.4937   46.0361 O   0  0  0  0  0  0  0  0  0  0  0  0
   56.2358   25.4787   46.1519 C   0  0  0  0  0  0  0  0  0  0  0  0
   55.9753   24.3056   46.7674 N   0  0  0  0  0  0  0  0  0  0  0  0
   57.1028   23.5749   46.6510 C   0  0  0  0  0  0  0  0  0  0  0  0
   58.0599   24.2871   45.9651 C   0  0  0  0  0  0  0  0  0  0  0  0
   59.3404   23.8406   45.6586 O   0  0  0  0  0  0  0  0  0  0  0  0
   57.5275   25.5155   45.6449 C   0  0  0  0  0  0  0  0  0  0  0  0
   54.4398   26.3858   46.4098 H   0  0  0  0  0  0  0  0  0  0  0  0
 21 22  1  0
 22 23  1  0
 23 24  1  0
 24 25  2  0
 25 26  1  0
 25 27  1  0
 27 19  1  0
 19 20  2  0
 20 17  1  0
 17 18  2  0
 17 16  1  0
 16  1  1  0
  1  2  2  0
  2  3  1  0
  3  4  2  0
  4  5  1  0
  5  7  1  0
  7  8  2  0
  7  9  2  0
  7 10  1  0
 10 11  1  0
 11 12  1  0
 12 13  1  0
 13 14  1  0
 14 15  1  0
  5  6  2  0
 27 22  2  0
  6  1  1  0
 15 10  1  0
 21 28  1  0
M  CHG 1  16  -1
M  CHG 1  23  -1
M  CHG 1  26  -1
M  END
> <UniqueID>
25

> <SMILES>
O=C(/C=C/c1c([O-])c[n-]c1O)[N-]c1cccc(S(=O)(=O)N2CCOCC2)c1

> <Energy>
85.88671848891093

> <Genealogy>
O=C(C=Cc1c([O-])c[n-]c1O)[N-]c1cccc(S(=O)(=O)N2CCOCC2)c1 (protonated)
O=C(/C=C/c1c([O-])c[n-]c1O)[N-]c1cccc(S(=O)(=O)N2CCOCC2)c1 (cis-trans isomerization)
O=C(/C=C/c1c([O-])c[n-]c1O)[N-]c1cccc(S(=O)(=O)N2CCOCC2)c1 (3D coordinates assigned)
O=C(/C=C/c1c([O-])c[n-]c1O)[N-]c1cccc(S(=O)(=O)N2CCOCC2)c1 (nonaromatic ring conformer: 85.88671848891093 kcal/mol)

> <smiles>
O=C(C=Cc1c(O)c[nH]c1O)Nc1cccc(S(=O)(=O)N2CCOCC2)c1

> <score_type>
oracle

> <origin>
adg

> <m_score__min__energy>
-14.720000000000001

> <m_primary>
energy

> <minimizedAffinity>
-8.51467

> <minimizedRMSD>
0.74494

> <CNNscore>
0.9515982866

> <CNNaffinity>
7.3232359886

> <CNN_VS>
6.9687786102

> <CNNaffinity_variance>
0.3641108572

$$$$
31:0


 34 38  0  0  0  0  0  0  0  0999 V2000
   58.5793   30.5806   45.7132 C   0  0  0  0  0  0  0  0  0  0  0  0
   58.9755   31.0674   46.9652 C   0  0  0  0  0  0  0  0  0  0  0  0
   58.8675   32.4335   47.2705 C   0  0  0  0  0  0  0  0  0  0  0  0
   58.3461   33.3096   46.3051 C   0  0  0  0  0  0  0  0  0  0  0  0
   57.9498   32.8298   45.0551 C   0  0  0  0  0  0  0  0  0  0  0  0
   58.0616   31.4687   44.7529 C   0  0  0  0  0  0  0  0  0  0  0  0
   57.5094   30.8931   43.1856 Cl  0  0  0  0  0  0  0  0  0  0  0  0
   59.2454   32.9232   48.5718 N   0  0  0  0  0  0  0  0  0  0  0  0
   58.9575   32.1220   49.7699 C   0  0  0  0  0  0  0  0  0  0  0  0
   59.9398   32.4466   50.9117 C   0  0  0  0  0  0  0  0  0  0  0  0
   61.3661   32.7639   50.3867 C   0  0  0  0  0  0  0  0  0  0  0  0
   61.9846   31.5293   49.7686 C   0  0  0  0  0  0  0  0  0  0  0  0
   61.5903   31.0084   48.6918 O   0  0  0  0  0  0  0  0  0  0  0  0
   63.0756   30.9959   50.4945 N   0  0  0  0  0  0  0  0  0  0  0  0
   63.2582   31.8832   51.5786 C   0  0  0  0  0  0  0  0  0  0  0  0
   64.1500   31.7046   52.4491 O   0  0  0  0  0  0  0  0  0  0  0  0
   62.3266   33.0455   51.5826 C   0  0  0  0  0  0  0  0  0  0  0  0
   61.3473   33.9524   49.3713 C   0  0  0  0  0  0  0  0  0  0  0  0
   59.9722   34.1887   48.7229 C   0  0  0  0  0  0  0  0  0  0  0  0
   56.3874   28.6915   45.0833 C   0  0  0  0  0  0  0  0  0  0  0  0
   57.6689   28.3061   45.1916 C   0  0  0  0  0  0  0  0  0  0  0  0
   58.2009   27.0338   44.9275 C   0  0  0  0  0  0  0  0  0  0  0  0
   57.5937   25.8519   44.7039 C   0  0  0  0  0  0  0  0  0  0  0  0
   59.5785   27.1789   44.9349 C   0  0  0  0  0  0  0  0  0  0  0  0
   59.8395   28.4909   45.2690 C   0  0  0  0  0  0  0  0  0  0  0  0
   61.2102   29.0892   45.3752 C   0  0  0  0  0  0  0  0  0  0  0  0
   58.6848   29.1734   45.4307 N   0  0  0  0  0  0  0  0  0  0  0  0
   57.0281   24.9705   45.7367 C   0  0  0  0  0  0  0  0  0  0  0  0
   57.7465   24.0535   46.4063 N   0  0  0  0  0  0  0  0  0  0  0  0
   56.8750   23.5803   47.3228 C   0  0  0  0  0  0  0  0  0  0  0  0
   57.1780   22.6768   48.1449 O   0  0  0  0  0  0  0  0  0  0  0  0
   55.6560   24.1610   47.3004 N   0  0  0  0  0  0  0  0  0  0  0  0
   55.7745   25.0499   46.3005 C   0  0  0  0  0  0  0  0  0  0  0  0
   54.7659   25.9329   45.9305 O   0  0  0  0  0  0  0  0  0  0  0  0
 20 21  2  0
 21 22  1  0
 22 23  2  0
 23 28  1  0
 28 29  1  0
 29 30  1  0
 30 31  2  0
 30 32  1  0
 32 33  1  0
 33 34  1  0
 22 24  1  0
 24 25  2  0
 25 26  1  0
 25 27  1  0
 27  1  1  0
  1  2  2  0
  2  3  1  0
  3  8  1  0
  8  9  1  0
  9 10  1  0
 10 11  1  0
 11 12  1  0
 12 13  2  0
 12 14  1  0
 14 15  1  0
 15 16  2  0
 15 17  1  0
 11 18  1  0
 18 19  1  0
  3  4  2  0
  4  5  1  0
  5  6  2  0
  6  7  1  0
 27 21  1  0
  6  1  1  0
 33 28  2  0
 19  8  1  0
 17 11  1  0
M  CHG 1  14  -1
M  CHG 1  29  -1
M  CHG 1  32  -1
M  CHG 1  34  -1
M  END
> <UniqueID>
29

> <SMILES>
C=c1/c(=C\c2[n-]c(=O)[n-]c2[O-])cc(C)n1-c1cc(N2CCC3(CC2)CC(=O)[N-]C3=O)ccc1Cl

> <Energy>
154.22786675216264

> <Genealogy>
C=c1c(=Cc2[n-]c(=O)[n-]c2[O-])cc(C)n1-c1cc(N2CCC3(CC2)CC(=O)[N-]C3=O)ccc1Cl (protonated)
C=c1/c(=C\c2[n-]c(=O)[n-]c2[O-])cc(C)n1-c1cc(N2CCC3(CC2)CC(=O)[N-]C3=O)ccc1Cl (cis-trans isomerization)
C=c1/c(=C\c2[n-]c(=O)[n-]c2[O-])cc(C)n1-c1cc(N2CCC3(CC2)CC(=O)[N-]C3=O)ccc1Cl (3D coordinates assigned)
C=c1/c(=C\c2[n-]c(=O)[n-]c2[O-])cc(C)n1-c1cc(N2CCC3(CC2)CC(=O)[N-]C3=O)ccc1Cl (nonaromatic ring conformer: 154.22786675216264 kcal/mol)

> <smiles>
C=c1c(=Cc2[nH]c(=O)[nH]c2O)cc(C)n1-c1cc(N2CCC3(CC2)CC(=O)NC3=O)ccc1Cl

> <score_type>
oracle

> <origin>
adg

> <m_score__min__energy>
-18.73

> <m_primary>
energy

> <minimizedAffinity>
-8.28747

> <minimizedRMSD>
0.69537

> <CNNscore>
0.2110761702

> <CNNaffinity>
7.1530842781

> <CNN_VS>
1.5098456144

> <CNNaffinity_variance>
0.1262479722

$$$$
32:0


 27 29  0  0  0  0  0  0  0  0999 V2000
   59.8128   29.9460   47.7867 C   0  0  0  0  0  0  0  0  0  0  0  0
   59.1767   30.4323   46.7094 C   0  0  0  0  0  0  0  0  0  0  0  0
   58.9637   29.7765   45.4840 C   0  0  0  0  0  0  0  0  0  0  0  0
   59.1924   28.5037   45.1012 C   0  0  0  0  0  0  0  0  0  0  0  0
   58.4254   30.7228   44.6288 C   0  0  0  0  0  0  0  0  0  0  0  0
   58.2863   31.8875   45.3516 C   0  0  0  0  0  0  0  0  0  0  0  0
   57.7553   33.1706   44.7879 C   0  0  0  0  0  0  0  0  0  0  0  0
   58.7312   31.7140   46.6197 N   0  0  0  0  0  0  0  0  0  0  0  0
   58.6254   27.2961   45.7321 C   0  0  0  0  0  0  0  0  0  0  0  0
   57.2375   27.1039   45.7692 C   0  0  0  0  0  0  0  0  0  0  0  0
   56.3791   28.0191   45.1676 O   0  0  0  0  0  0  0  0  0  0  0  0
   56.7197   26.0120   46.3905 N   0  0  0  0  0  0  0  0  0  0  0  0
   57.5258   25.1020   46.9940 C   0  0  0  0  0  0  0  0  0  0  0  0
   57.0235   24.0959   47.5590 O   0  0  0  0  0  0  0  0  0  0  0  0
   58.8709   25.2785   46.9941 N   0  0  0  0  0  0  0  0  0  0  0  0
   59.4372   26.3543   46.3883 C   0  0  0  0  0  0  0  0  0  0  0  0
   60.6883   26.4961   46.4243 O   0  0  0  0  0  0  0  0  0  0  0  0
   58.7381   32.7360   47.6795 C   0  0  0  0  0  0  0  0  0  0  0  0
   59.6640   33.8674   47.3189 C   0  0  0  0  0  0  0  0  0  0  0  0
   59.2550   35.0175   47.3622 O   0  0  0  0  0  0  0  0  0  0  0  0
   61.0828   33.6039   46.8911 C   0  0  0  0  0  0  0  0  0  0  0  0
   61.9494   33.2928   48.0844 C   0  0  0  0  0  0  0  0  0  0  0  0
   62.8747   32.2355   48.0366 C   0  0  0  0  0  0  0  0  0  0  0  0
   63.6818   31.9561   49.1440 C   0  0  0  0  0  0  0  0  0  0  0  0
   63.5688   32.7253   50.3051 C   0  0  0  0  0  0  0  0  0  0  0  0
   62.6561   33.7827   50.3580 C   0  0  0  0  0  0  0  0  0  0  0  0
   61.8502   34.0674   49.2510 C   0  0  0  0  0  0  0  0  0  0  0  0
  1  2  2  0
  2  3  1  0
  3  4  2  0
  4  9  1  0
  9 10  2  0
 10 11  1  0
 10 12  1  0
 12 13  1  0
 13 14  2  0
 13 15  1  0
 15 16  1  0
 16 17  2  0
  3  5  1  0
  5  6  2  0
  6  7  1  0
  6  8  1  0
  8 18  1  0
 18 19  1  0
 19 20  2  0
 19 21  1  0
 21 22  1  0
 22 23  2  0
 23 24  1  0
 24 25  2  0
 25 26  1  0
 26 27  2  0
  8  2  1  0
 27 22  1  0
 16  9  1  0
M  CHG 1  11  -1
M  CHG 1  12  -1
M  CHG 1  15  -1
M  END
> <UniqueID>
30

> <SMILES>
C=c1c(=Cc2c([O-])[n-]c(=O)[n-]c2=O)cc(C)n1CC(=O)Cc1ccccc1

> <Energy>
81.87857210236615

> <Genealogy>
C=c1c(=Cc2c([O-])[n-]c(=O)[n-]c2=O)cc(C)n1CC(=O)Cc1ccccc1 (protonated)
C=c1c(=Cc2c([O-])[n-]c(=O)[n-]c2=O)cc(C)n1CC(=O)Cc1ccccc1 (3D coordinates assigned)
C=c1c(=Cc2c([O-])[n-]c(=O)[n-]c2=O)cc(C)n1CC(=O)Cc1ccccc1 (optimized conformer: 81.87857210236615 kcal/mol)

> <smiles>
C=c1c(=Cc2c(O)[nH]c(=O)[nH]c2=O)cc(C)n1CC(=O)Cc1ccccc1

> <score_type>
oracle

> <origin>
adg

> <m_score__min__energy>
-16.879999999999999

> <m_primary>
energy

> <minimizedAffinity>
-8.09189

> <minimizedRMSD>
1.33542

> <CNNscore>
0.4362399876

> <CNNaffinity>
6.6306033134

> <CNN_VS>
2.8925342560

> <CNNaffinity_variance>
0.0280419644

$$$$
38:0


 24 26  0  0  0  0  0  0  0  0999 V2000
   61.1983   30.2399   47.2864 C   0  0  0  0  0  0  0  0  0  0  0  0
   60.1799   30.9350   46.7511 C   0  0  0  0  0  0  0  0  0  0  0  0
   59.3427   30.5205   45.6985 C   0  0  0  0  0  0  0  0  0  0  0  0
   59.2186   29.3306   45.0769 C   0  0  0  0  0  0  0  0  0  0  0  0
   58.5546   31.6109   45.3777 C   0  0  0  0  0  0  0  0  0  0  0  0
   58.8867   32.6183   46.2562 C   0  0  0  0  0  0  0  0  0  0  0  0
   58.2106   33.9561   46.2957 C   0  0  0  0  0  0  0  0  0  0  0  0
   59.8710   32.2164   47.0951 N   0  0  0  0  0  0  0  0  0  0  0  0
   58.6897   28.0926   45.6812 C   0  0  0  0  0  0  0  0  0  0  0  0
   57.3123   27.8100   45.6743 C   0  0  0  0  0  0  0  0  0  0  0  0
   56.4039   28.7103   45.1309 O   0  0  0  0  0  0  0  0  0  0  0  0
   56.8584   26.6423   46.2005 N   0  0  0  0  0  0  0  0  0  0  0  0
   57.7164   25.7281   46.7198 C   0  0  0  0  0  0  0  0  0  0  0  0
   57.2740   24.6550   47.2062 O   0  0  0  0  0  0  0  0  0  0  0  0
   59.0540   25.9667   46.7122 N   0  0  0  0  0  0  0  0  0  0  0  0
   59.5575   27.1179   46.1983 C   0  0  0  0  0  0  0  0  0  0  0  0
   60.8036   27.3046   46.2001 O   0  0  0  0  0  0  0  0  0  0  0  0
   60.4281   33.0259   48.1926 C   0  0  0  0  0  0  0  0  0  0  0  0
   59.7049   32.7377   49.4830 C   0  0  0  0  0  0  0  0  0  0  0  0
   59.8710   33.5715   50.6009 C   0  0  0  0  0  0  0  0  0  0  0  0
   59.2050   33.3087   51.7565 N   0  0  0  0  0  0  0  0  0  0  0  0
   58.3651   32.2463   51.8716 C   0  0  0  0  0  0  0  0  0  0  0  0
   58.1705   31.3882   50.7888 C   0  0  0  0  0  0  0  0  0  0  0  0
   58.8437   31.6355   49.5909 C   0  0  0  0  0  0  0  0  0  0  0  0
  1  2  2  0
  2  3  1  0
  3  4  2  0
  4  9  1  0
  9 10  2  0
 10 11  1  0
 10 12  1  0
 12 13  1  0
 13 14  2  0
 13 15  1  0
 15 16  1  0
 16 17  2  0
  3  5  1  0
  5  6  2  0
  6  7  1  0
  6  8  1  0
  8 18  1  0
 18 19  1  0
 19 20  2  0
 20 21  1  0
 21 22  2  0
 22 23  1  0
 23 24  2  0
  8  2  1  0
 24 19  1  0
 16  9  1  0
M  CHG 1  11  -1
M  CHG 1  12  -1
M  CHG 1  15  -1
M  END
> <UniqueID>
36

> <SMILES>
C=c1/c(=C\c2c([O-])[n-]c(=O)[n-]c2=O)cc(C)n1Cc1cccnc1

> <Energy>
83.29279462801404

> <Genealogy>
C=c1c(=Cc2c([O-])[n-]c(=O)[n-]c2=O)cc(C)n1Cc1cccnc1 (protonated)
C=c1/c(=C\c2c([O-])[n-]c(=O)[n-]c2=O)cc(C)n1Cc1cccnc1 (cis-trans isomerization)
C=c1/c(=C\c2c([O-])[n-]c(=O)[n-]c2=O)cc(C)n1Cc1cccnc1 (3D coordinates assigned)
C=c1/c(=C\c2c([O-])[n-]c(=O)[n-]c2=O)cc(C)n1Cc1cccnc1 (optimized conformer: 83.29279462801404 kcal/mol)

> <smiles>
C=c1c(=Cc2c(O)[nH]c(=O)[nH]c2=O)cc(C)n1Cc1cccnc1

> <score_type>
oracle

> <origin>
adg

> <m_score__min__energy>
-15.26

> <m_primary>
energy

> <minimizedAffinity>
-6.33936

> <minimizedRMSD>
1.15650

> <CNNscore>
0.5635406375

> <CNNaffinity>
6.8429069519

> <CNN_VS>
3.8562562466

> <CNNaffinity_variance>
0.5150850415

$$$$
43:0


 23 25  0  0  0  0  0  0  0  0999 V2000
   60.2733   29.0272   47.3908 C   0  0  0  0  0  0  0  0  0  0  0  0
   59.3539   29.5807   46.5857 C   0  0  0  0  0  0  0  0  0  0  0  0
   58.6870   28.9590   45.5265 C   0  0  0  0  0  0  0  0  0  0  0  0
   58.8284   27.6801   45.1191 C   0  0  0  0  0  0  0  0  0  0  0  0
   57.8713   29.9669   45.0031 C   0  0  0  0  0  0  0  0  0  0  0  0
   56.9361   29.8996   43.8366 C   0  0  0  0  0  0  0  0  0  0  0  0
   58.0464   31.0983   45.7102 N   0  0  0  0  0  0  0  0  0  0  0  0
   58.9301   30.8680   46.6699 N   0  0  0  0  0  0  0  0  0  0  0  0
   58.1011   26.5394   45.7027 C   0  0  0  0  0  0  0  0  0  0  0  0
   56.7071   26.5764   45.8451 C   0  0  0  0  0  0  0  0  0  0  0  0
   55.9794   27.6751   45.4030 O   0  0  0  0  0  0  0  0  0  0  0  0
   56.0569   25.5283   46.4163 N   0  0  0  0  0  0  0  0  0  0  0  0
   56.7386   24.4428   46.8646 C   0  0  0  0  0  0  0  0  0  0  0  0
   56.1150   23.4827   47.3874 O   0  0  0  0  0  0  0  0  0  0  0  0
   58.0913   24.3947   46.7547 N   0  0  0  0  0  0  0  0  0  0  0  0
   58.7861   25.4174   46.1923 C   0  0  0  0  0  0  0  0  0  0  0  0
   60.0409   25.3440   46.1108 O   0  0  0  0  0  0  0  0  0  0  0  0
   59.3931   31.8987   47.6199 C   0  0  0  0  0  0  0  0  0  0  0  0
   58.3862   33.0664   47.7463 C   0  0  0  0  0  0  0  0  0  0  0  0
   58.3547   34.0090   46.5221 C   0  0  0  0  0  0  0  0  0  0  0  0
   59.6824   34.0610   45.7464 C   0  0  0  0  0  0  0  0  0  0  0  0
   60.8761   33.8029   46.6636 C   0  0  0  0  0  0  0  0  0  0  0  0
   60.8233   32.3826   47.2526 C   0  0  0  0  0  0  0  0  0  0  0  0
  1  2  2  0
  2  3  1  0
  3  4  2  0
  4  9  1  0
  9 10  2  0
 10 11  1  0
 10 12  1  0
 12 13  1  0
 13 14  2  0
 13 15  1  0
 15 16  1  0
 16 17  2  0
  3  5  1  0
  5  6  1  0
  5  7  2  0
  7  8  1  0
  8 18  1  0
 18 19  1  0
 19 20  1  0
 20 21  1  0
 21 22  1  0
 22 23  1  0
  8  2  1  0
 23 18  1  0
 16  9  1  0
M  CHG 1  11  -1
M  CHG 1  12  -1
M  CHG 1  15  -1
M  END
> <UniqueID>
41

> <SMILES>
C=c1/c(=C/c2c([O-])[n-]c(=O)[n-]c2=O)c(C)nn1C1CCCCC1

> <Energy>
90.43366223358721

> <Genealogy>
C=c1c(=Cc2c([O-])[n-]c(=O)[n-]c2=O)c(C)nn1C1CCCCC1 (protonated)
C=c1/c(=C/c2c([O-])[n-]c(=O)[n-]c2=O)c(C)nn1C1CCCCC1 (cis-trans isomerization)
C=c1/c(=C/c2c([O-])[n-]c(=O)[n-]c2=O)c(C)nn1C1CCCCC1 (3D coordinates assigned)
C=c1/c(=C/c2c([O-])[n-]c(=O)[n-]c2=O)c(C)nn1C1CCCCC1 (nonaromatic ring conformer: 90.43366223358721 kcal/mol)

> <smiles>
C=c1c(=Cc2c(O)[nH]c(=O)[nH]c2=O)c(C)nn1C1CCCCC1

> <score_type>
oracle

> <origin>
adg

> <m_score__min__energy>
-16.440000000000001

> <m_primary>
energy

> <minimizedAffinity>
-7.31102

> <minimizedRMSD>
0.96860

> <CNNscore>
0.3782759905

> <CNNaffinity>
6.3299522400

> <CNN_VS>
2.3944690228

> <CNNaffinity_variance>
0.3446317911

$$$$
47:0


 34 37  0  0  0  0  0  0  0  0999 V2000
   57.9124   31.7424   44.2780 N   0  0  0  0  0  0  0  0  0  0  0  0
   58.4915   32.5812   45.0860 C   0  0  0  0  0  0  0  0  0  0  0  0
   59.5224   32.2598   45.8950 N   0  0  0  0  0  0  0  0  0  0  0  0
   59.9341   33.3136   46.6502 C   0  0  0  0  0  0  0  0  0  0  0  0
   59.2018   34.4879   46.4425 C   0  0  0  0  0  0  0  0  0  0  0  0
   58.0222   34.1770   45.2774 S   0  0  0  0  0  0  0  0  0  0  0  0
   61.0863   33.1840   47.5763 C   0  0  0  0  0  0  0  0  0  0  0  0
   62.4004   33.4639   47.1626 C   0  0  0  0  0  0  0  0  0  0  0  0
   63.4669   33.3298   48.0558 C   0  0  0  0  0  0  0  0  0  0  0  0
   63.2365   32.9206   49.3716 C   0  0  0  0  0  0  0  0  0  0  0  0
   61.9328   32.6540   49.8096 C   0  0  0  0  0  0  0  0  0  0  0  0
   60.8663   32.7759   48.9065 C   0  0  0  0  0  0  0  0  0  0  0  0
   61.6801   32.1973   51.1938 C   0  0  0  0  0  0  0  0  0  0  0  0
   61.9993   32.9552   52.1531 O   0  0  0  0  0  0  0  0  0  0  0  0
   61.0984   30.9070   51.4668 N   0  0  0  0  0  0  0  0  0  0  0  0
   60.2145   30.7348   52.6335 C   0  0  0  0  0  0  0  0  0  0  0  0
   60.7291   29.6015   53.5303 C   0  0  0  0  0  0  0  0  0  0  0  0
   61.0399   28.3767   52.7160 C   0  0  0  0  0  0  0  0  0  0  0  0
   61.3489   27.3363   53.2785 O   0  0  0  0  0  0  0  0  0  0  0  0
   60.9422   28.4206   51.2141 C   0  0  0  0  0  0  0  0  0  0  0  0
   61.5293   29.7350   50.6801 C   0  0  0  0  0  0  0  0  0  0  0  0
   57.2281   30.5432   44.6770 C   0  0  0  0  0  0  0  0  0  0  0  0
   55.9682   30.5374   44.6845 O   0  0  0  0  0  0  0  0  0  0  0  0
   57.9258   26.9682   45.7311 C   0  0  0  0  0  0  0  0  0  0  0  0
   59.3247   26.9811   45.8252 C   0  0  0  0  0  0  0  0  0  0  0  0
   60.0386   28.1463   45.5249 C   0  0  0  0  0  0  0  0  0  0  0  0
   59.3591   29.3045   45.1352 C   0  0  0  0  0  0  0  0  0  0  0  0
   57.9558   29.3080   45.0524 C   0  0  0  0  0  0  0  0  0  0  0  0
   57.2462   28.1267   45.3324 C   0  0  0  0  0  0  0  0  0  0  0  0
   55.3200   25.8246   46.1013 N   0  0  0  0  0  0  0  0  0  0  0  0
   57.0184   25.5023   46.0930 S   0  0  0  0  0  0  0  0  0  0  0  0
   57.4306   24.9875   47.4422 O   0  0  0  0  0  0  0  0  0  0  0  0
   57.3070   24.4593   45.0475 O   0  0  0  0  0  0  0  0  0  0  0  0
   54.8120   24.9657   46.3123 H   0  0  0  0  0  0  0  0  0  0  0  0
 30 31  1  0
 31 32  2  0
 31 33  2  0
 31 24  1  0
 24 25  2  0
 25 26  1  0
 26 27  2  0
 27 28  1  0
 28 22  1  0
 22 23  2  0
 22  1  1  0
  1  2  2  0
  2  3  1  0
  3  4  1  0
  4  7  1  0
  7  8  2  0
  8  9  1  0
  9 10  2  0
 10 11  1  0
 11 13  1  0
 13 14  2  0
 13 15  1  0
 15 16  1  0
 16 17  1  0
 17 18  1  0
 18 19  2  0
 18 20  1  0
 20 21  1  0
 11 12  2  0
  4  5  2  0
  5  6  1  0
 28 29  2  0
 29 24  1  0
  6  2  1  0
 12  7  1  0
 21 15  1  0
 30 34  1  0
M  CHG 1   3  -1
M  CHG 1  30  -1
M  END
> <UniqueID>
45

> <SMILES>
[NH-]S(=O)(=O)c1cccc(C(=O)/N=c2\[n-]c(-c3cccc(C(=O)N4CCC(=O)CC4)c3)cs2)c1

> <Energy>
95.45186075654462

> <Genealogy>
[NH-]S(=O)(=O)c1cccc(C(=O)N=c2[n-]c(-c3cccc(C(=O)N4CCC(=O)CC4)c3)cs2)c1 (protonated)
[NH-]S(=O)(=O)c1cccc(C(=O)/N=c2\[n-]c(-c3cccc(C(=O)N4CCC(=O)CC4)c3)cs2)c1 (cis-trans isomerization)
[NH-]S(=O)(=O)c1cccc(C(=O)/N=c2\[n-]c(-c3cccc(C(=O)N4CCC(=O)CC4)c3)cs2)c1 (3D coordinates assigned)
[NH-]S(=O)(=O)c1cccc(C(=O)/N=c2\[n-]c(-c3cccc(C(=O)N4CCC(=O)CC4)c3)cs2)c1 (nonaromatic ring conformer: 95.45186075654462 kcal/mol)

> <smiles>
NS(=O)(=O)c1cccc(C(=O)N=c2[nH]c(-c3cccc(C(=O)N4CCC(=O)CC4)c3)cs2)c1

> <score_type>
oracle

> <origin>
adg

> <m_score__min__energy>
-14.92

> <m_primary>
energy

> <minimizedAffinity>
-9.51592

> <minimizedRMSD>
1.52486

> <CNNscore>
0.8491266370

> <CNNaffinity>
7.5050201416

> <CNN_VS>
6.3727126122

> <CNNaffinity_variance>
0.1067891344

$$$$
65:0


 38 42  0  0  0  0  0  0  0  0999 V2000
   59.5646   33.7811   46.5449 C   0  0  0  0  0  0  0  0  0  0  0  0
   58.4199   33.7871   47.3379 C   0  0  0  0  0  0  0  0  0  0  0  0
   57.3752   33.0720   46.8360 N   0  0  0  0  0  0  0  0  0  0  0  0
   57.6848   32.4833   45.6604 C   0  0  0  0  0  0  0  0  0  0  0  0
   56.8119   31.7899   44.9902 N   0  0  0  0  0  0  0  0  0  0  0  0
   59.2636   32.8489   45.1778 S   0  0  0  0  0  0  0  0  0  0  0  0
   56.9202   30.4195   44.5726 C   0  0  0  0  0  0  0  0  0  0  0  0
   55.9047   29.6808   44.6638 O   0  0  0  0  0  0  0  0  0  0  0  0
   58.2189   29.8346   44.0834 C   0  0  0  0  0  0  0  0  0  0  0  0
   58.5144   28.5727   44.7679 N   0  0  0  0  0  0  0  0  0  0  0  0
   58.2973   27.3133   44.3115 C   0  0  0  0  0  0  0  0  0  0  0  0
   57.7626   27.0646   43.1978 O   0  0  0  0  0  0  0  0  0  0  0  0
   58.7100   26.3366   45.1580 N   0  0  0  0  0  0  0  0  0  0  0  0
   59.2165   27.0407   46.1901 C   0  0  0  0  0  0  0  0  0  0  0  0
   59.7879   26.5397   47.3571 C   0  0  0  0  0  0  0  0  0  0  0  0
   60.2601   27.4651   48.3057 C   0  0  0  0  0  0  0  0  0  0  0  0
   60.1603   28.8553   48.0644 C   0  0  0  0  0  0  0  0  0  0  0  0
   60.7563   29.9945   49.2572 Cl  0  0  0  0  0  0  0  0  0  0  0  0
   59.5803   29.3298   46.8724 C   0  0  0  0  0  0  0  0  0  0  0  0
   59.1104   28.3835   45.9590 C   0  0  0  0  0  0  0  0  0  0  0  0
   60.8398   34.5136   46.8260 C   0  0  0  0  0  0  0  0  0  0  0  0
   62.0733   33.0412   50.1270 C   0  0  0  0  0  0  0  0  0  0  0  0
   63.2561   32.4090   49.7075 C   0  0  0  0  0  0  0  0  0  0  0  0
   63.6479   32.4602   48.3666 C   0  0  0  0  0  0  0  0  0  0  0  0
   62.8582   33.1308   47.4299 C   0  0  0  0  0  0  0  0  0  0  0  0
   61.6691   33.7583   47.8285 C   0  0  0  0  0  0  0  0  0  0  0  0
   61.2806   33.7075   49.1758 C   0  0  0  0  0  0  0  0  0  0  0  0
   56.8265   29.0528   53.7353 C   0  0  0  0  0  0  0  0  0  0  0  0
   56.9185   30.0417   52.6092 C   0  0  0  0  0  0  0  0  0  0  0  0
   55.8797   30.2568   51.9249 O   0  0  0  0  0  0  0  0  0  0  0  0
   58.1472   30.7470   52.3066 N   0  0  0  0  0  0  0  0  0  0  0  0
   58.1997   31.6237   51.1230 C   0  0  0  0  0  0  0  0  0  0  0  0
   59.1407   32.8082   51.3591 C   0  0  0  0  0  0  0  0  0  0  0  0
   60.4109   32.3377   51.9196 N   0  0  0  0  0  0  0  0  0  0  0  0
   61.6469   32.9699   51.5452 C   0  0  0  0  0  0  0  0  0  0  0  0
   62.4015   33.4370   52.4457 O   0  0  0  0  0  0  0  0  0  0  0  0
   60.3467   31.5154   53.1269 C   0  0  0  0  0  0  0  0  0  0  0  0
   59.4301   30.3152   52.8882 C   0  0  0  0  0  0  0  0  0  0  0  0
 28 29  1  0
 29 30  2  0
 29 31  1  0
 31 32  1  0
 32 33  1  0
 33 34  1  0
 34 35  1  0
 35 36  2  0
 35 22  1  0
 22 23  2  0
 23 24  1  0
 24 25  2  0
 25 26  1  0
 26 21  1  0
 21  1  1  0
  1  2  2  0
  2  3  1  0
  3  4  1  0
  4  5  2  0
  5  7  1  0
  7  8  2  0
  7  9  1  0
  9 10  1  0
 10 11  1  0
 11 12  2  0
 11 13  1  0
 13 14  1  0
 14 15  2  0
 15 16  1  0
 16 17  2  0
 17 18  1  0
 17 19  1  0
 19 20  2  0
  4  6  1  0
 26 27  2  0
 34 37  1  0
 37 38  1  0
 38 31  1  0
 27 22  1  0
  6  1  1  0
 20 10  1  0
 20 14  1  0
M  CHG 1   3  -1
M  CHG 1  13  -1
M  END
> <UniqueID>
62

> <SMILES>
CC(=O)N1CCN(C(=O)c2cccc(Cc3c[n-]c(=NC(=O)Cn4c(=O)[n-]c5ccc(Cl)cc54)s3)c2)CC1

> <Energy>
142.22013778299274

> <Genealogy>
CC(=O)N1CCN(C(=O)c2cccc(Cc3c[n-]c(=NC(=O)Cn4c(=O)[n-]c5ccc(Cl)cc54)s3)c2)CC1 (protonated)
CC(=O)N1CCN(C(=O)c2cccc(Cc3c[n-]c(=NC(=O)Cn4c(=O)[n-]c5ccc(Cl)cc54)s3)c2)CC1 (3D coordinates assigned)
CC(=O)N1CCN(C(=O)c2cccc(Cc3c[n-]c(=NC(=O)Cn4c(=O)[n-]c5ccc(Cl)cc54)s3)c2)CC1 (nonaromatic ring conformer: 142.22013778299274 kcal/mol)

> <smiles>
CC(=O)N1CCN(C(=O)c2cccc(Cc3c[nH]c(=NC(=O)Cn4c(=O)[nH]c5ccc(Cl)cc54)s3)c2)CC1

> <score_type>
oracle

> <origin>
adg

> <m_score__min__energy>
-14.48

> <m_primary>
energy

> <minimizedAffinity>
-8.68324

> <minimizedRMSD>
0.81643

> <CNNscore>
0.3285071552

> <CNNaffinity>
7.1782345772

> <CNN_VS>
2.3581013680

> <CNNaffinity_variance>
0.4603443444

$$$$
68:0


 30 33  0  0  0  0  0  0  0  0999 V2000
   57.6217   28.0158   44.8961 C   0  0  0  0  0  0  0  0  0  0  0  0
   58.3324   27.2286   45.7170 C   0  0  0  0  0  0  0  0  0  0  0  0
   58.3789   25.8309   45.7016 C   0  0  0  0  0  0  0  0  0  0  0  0
   57.7638   25.0014   44.8378 C   0  0  0  0  0  0  0  0  0  0  0  0
   59.2294   25.4561   46.7346 C   0  0  0  0  0  0  0  0  0  0  0  0
   59.6554   26.6234   47.3390 C   0  0  0  0  0  0  0  0  0  0  0  0
   60.6122   26.7005   48.4884 C   0  0  0  0  0  0  0  0  0  0  0  0
   59.1154   27.6956   46.7196 N   0  0  0  0  0  0  0  0  0  0  0  0
   56.5057   24.2864   45.1479 C   0  0  0  0  0  0  0  0  0  0  0  0
   55.4394   24.9230   45.8075 C   0  0  0  0  0  0  0  0  0  0  0  0
   55.5335   26.2556   46.1942 O   0  0  0  0  0  0  0  0  0  0  0  0
   54.2912   24.2403   46.0557 N   0  0  0  0  0  0  0  0  0  0  0  0
   54.1440   22.9497   45.6610 C   0  0  0  0  0  0  0  0  0  0  0  0
   53.0733   22.3374   45.9051 O   0  0  0  0  0  0  0  0  0  0  0  0
   55.1488   22.3239   44.9973 N   0  0  0  0  0  0  0  0  0  0  0  0
   56.3160   22.9613   44.7270 C   0  0  0  0  0  0  0  0  0  0  0  0
   57.2254   22.3479   44.1043 O   0  0  0  0  0  0  0  0  0  0  0  0
   59.3490   29.0687   47.0739 C   0  0  0  0  0  0  0  0  0  0  0  0
   58.6662   29.6183   48.1643 C   0  0  0  0  0  0  0  0  0  0  0  0
   58.8728   30.9494   48.5271 C   0  0  0  0  0  0  0  0  0  0  0  0
   59.7870   31.7478   47.8218 C   0  0  0  0  0  0  0  0  0  0  0  0
   60.4389   31.2063   46.6994 C   0  0  0  0  0  0  0  0  0  0  0  0
   60.2493   29.8636   46.3361 C   0  0  0  0  0  0  0  0  0  0  0  0
   60.9704   29.3018   45.1402 C   0  0  0  0  0  0  0  0  0  0  0  0
   59.9908   33.2073   48.2018 C   0  0  0  0  0  0  0  0  0  0  0  0
   59.1740   34.2002   47.4555 N   0  0  0  0  0  0  0  0  0  0  0  0
   59.8125   34.8284   46.2889 C   0  0  0  0  0  0  0  0  0  0  0  0
   58.7764   34.2620   45.3301 C   0  0  0  0  0  0  0  0  0  0  0  0
   58.1347   33.6587   46.5679 C   0  0  0  0  0  0  0  0  0  0  0  0
   58.9215   34.7562   48.2725 H   0  0  0  0  0  0  0  0  0  0  0  0
  1  2  2  0
  2  3  1  0
  3  4  2  0
  4  9  1  0
  9 10  2  0
 10 11  1  0
 10 12  1  0
 12 13  1  0
 13 14  2  0
 13 15  1  0
 15 16  1  0
 16 17  2  0
  3  5  1  0
  5  6  2  0
  6  7  1  0
  6  8  1  0
  8 18  1  0
 18 19  2  0
 19 20  1  0
 20 21  2  0
 21 25  1  0
 25 26  1  0
 26 27  1  0
 27 28  1  0
 28 29  1  0
 21 22  1  0
 22 23  2  0
 23 24  1  0
  8  2  1  0
 23 18  1  0
 16  9  1  0
 29 26  1  0
 26 30  1  0
M  CHG 1  11  -1
M  CHG 1  12  -1
M  CHG 1  15  -1
M  CHG 1  26   1
M  END
> <UniqueID>
65

> <SMILES>
C=c1/c(=C/c2c([O-])[n-]c(=O)[n-]c2=O)cc(C)n1-c1ccc(C[NH+]2CCC2)cc1C

> <Energy>
175.82845695936794

> <Genealogy>
C=c1c(=Cc2c([O-])[n-]c(=O)[n-]c2=O)cc(C)n1-c1ccc(C[NH+]2CCC2)cc1C (protonated)
C=c1/c(=C/c2c([O-])[n-]c(=O)[n-]c2=O)cc(C)n1-c1ccc(C[NH+]2CCC2)cc1C (cis-trans isomerization)
C=c1/c(=C/c2c([O-])[n-]c(=O)[n-]c2=O)cc(C)n1-c1ccc(C[NH+]2CCC2)cc1C (3D coordinates assigned)
C=c1/c(=C/c2c([O-])[n-]c(=O)[n-]c2=O)cc(C)n1-c1ccc(C[NH+]2CCC2)cc1C (nonaromatic ring conformer: 175.82845695936794 kcal/mol)

> <smiles>
C=c1c(=Cc2c(O)[nH]c(=O)[nH]c2=O)cc(C)n1-c1ccc(CN2CCC2)cc1C

> <score_type>
oracle

> <origin>
adg

> <m_score__min__energy>
-14.710000000000001

> <m_primary>
energy

> <minimizedAffinity>
-7.32977

> <minimizedRMSD>
0.67400

> <CNNscore>
0.0578475893

> <CNNaffinity>
5.9536075592

> <CNN_VS>
0.3444018364

> <CNNaffinity_variance>
0.0668515489

$$$$
78:0


 32 34  0  0  0  0  0  0  0  0999 V2000
   58.8841   28.5875   46.5024 C   0  0  0  0  0  0  0  0  0  0  0  0
   59.1300   27.4779   47.3409 C   0  0  0  0  0  0  0  0  0  0  0  0
   59.8699   27.6275   48.4362 O   0  0  0  0  0  0  0  0  0  0  0  0
   60.4227   28.7804   48.7898 C   0  0  0  0  0  0  0  0  0  0  0  0
   60.2476   29.9279   48.0096 C   0  0  0  0  0  0  0  0  0  0  0  0
   59.4619   29.8248   46.8478 C   0  0  0  0  0  0  0  0  0  0  0  0
   59.2752   30.8366   46.1169 O   0  0  0  0  0  0  0  0  0  0  0  0
   60.8878   31.2042   48.4150 C   0  0  0  0  0  0  0  0  0  0  0  0
   60.3572   31.9554   49.4790 C   0  0  0  0  0  0  0  0  0  0  0  0
   60.9629   33.1532   49.8701 C   0  0  0  0  0  0  0  0  0  0  0  0
   62.1069   33.6092   49.2092 C   0  0  0  0  0  0  0  0  0  0  0  0
   62.7052   34.8003   49.6015 O   0  0  0  0  0  0  0  0  0  0  0  0
   62.6482   32.8657   48.1557 C   0  0  0  0  0  0  0  0  0  0  0  0
   63.7632   33.3012   47.5168 F   0  0  0  0  0  0  0  0  0  0  0  0
   62.0442   31.6674   47.7614 C   0  0  0  0  0  0  0  0  0  0  0  0
   58.0839   28.4529   45.2606 C   0  0  0  0  0  0  0  0  0  0  0  0
   58.6770   28.3387   44.1548 O   0  0  0  0  0  0  0  0  0  0  0  0
   55.8731   29.5631   44.8334 N   0  0  0  0  0  0  0  0  0  0  0  0
   56.6103   28.4322   45.2918 C   0  0  0  0  0  0  0  0  0  0  0  0
   55.9945   27.4132   45.7056 O   0  0  0  0  0  0  0  0  0  0  0  0
   54.8889   29.5503   44.8537 H   0  0  0  0  0  0  0  0  0  0  0  0
   58.5345   26.1486   47.0578 C   0  0  0  0  0  0  0  0  0  0  0  0
   59.0359   25.2587   46.1878 C   0  0  0  0  0  0  0  0  0  0  0  0
   58.2313   24.3151   45.3786 C   0  0  0  0  0  0  0  0  0  0  0  0
   58.1414   22.9568   45.7353 C   0  0  0  0  0  0  0  0  0  0  0  0
   57.4052   22.0669   44.9500 C   0  0  0  0  0  0  0  0  0  0  0  0
   56.7703   22.5166   43.7886 C   0  0  0  0  0  0  0  0  0  0  0  0
   56.0380   21.6296   43.0093 O   0  0  0  0  0  0  0  0  0  0  0  0
   56.8767   23.8571   43.4107 C   0  0  0  0  0  0  0  0  0  0  0  0
   57.6111   24.7591   44.1959 C   0  0  0  0  0  0  0  0  0  0  0  0
   57.7168   26.0955   43.8080 O   0  0  0  0  0  0  0  0  0  0  0  0
   57.3030   26.3888   43.0202 H   0  0  0  0  0  0  0  0  0  0  0  0
 18 19  1  0
 19 20  2  0
 19 16  1  0
 16 17  2  0
 16  1  1  0
  1  2  2  0
  2 22  1  0
 22 23  2  0
 23 24  1  0
 24 25  2  0
 25 26  1  0
 26 27  2  0
 27 28  1  0
 27 29  1  0
 29 30  2  0
 30 31  1  0
  2  3  1  0
  3  4  1  0
  4  5  2  0
  5  8  1  0
  8  9  2  0
  9 10  1  0
 10 11  2  0
 11 12  1  0
 11 13  1  0
 13 14  1  0
 13 15  2  0
  5  6  1  0
  6  7  2  0
  6  1  1  0
 30 24  1  0
 15  8  1  0
 18 21  1  0
 31 32  1  0
M  CHG 1  12  -1
M  CHG 1  18  -1
M  CHG 1  28  -1
M  END
> <UniqueID>
75

> <SMILES>
[NH-]C(=O)C(=O)c1c(C=Cc2ccc([O-])cc2O)occ(-c2ccc([O-])c(F)c2)c1=O

> <Energy>
67.21812402070049

> <Genealogy>
[NH-]C(=O)C(=O)c1c(C=Cc2ccc([O-])cc2O)occ(-c2ccc([O-])c(F)c2)c1=O (protonated)
[NH-]C(=O)C(=O)c1c(C=Cc2ccc([O-])cc2O)occ(-c2ccc([O-])c(F)c2)c1=O (3D coordinates assigned)
[NH-]C(=O)C(=O)c1c(C=Cc2ccc([O-])cc2O)occ(-c2ccc([O-])c(F)c2)c1=O (optimized conformer: 67.21812402070049 kcal/mol)

> <smiles>
NC(=O)C(=O)c1c(C=Cc2ccc(O)cc2O)occ(-c2ccc(O)c(F)c2)c1=O

> <score_type>
oracle

> <origin>
adg

> <m_score__min__energy>
-15.1

> <m_primary>
energy

> <minimizedAffinity>
-8.34457

> <minimizedRMSD>
0.57060

> <CNNscore>
0.4170210958

> <CNNaffinity>
6.5454964638

> <CNN_VS>
2.7296102047

> <CNNaffinity_variance>
0.0457771868

$$$$
81:0


 36 40  0  0  0  0  0  0  0  0999 V2000
   58.9909   31.1625   46.6888 C   0  0  0  0  0  0  0  0  0  0  0  0
   57.9996   32.1269   46.9012 C   0  0  0  0  0  0  0  0  0  0  0  0
   58.3181   33.2940   47.5978 C   0  0  0  0  0  0  0  0  0  0  0  0
   59.5793   33.4810   48.0716 N   0  0  0  0  0  0  0  0  0  0  0  0
   60.5583   32.5474   47.9070 C   0  0  0  0  0  0  0  0  0  0  0  0
   60.2753   31.3683   47.2017 C   0  0  0  0  0  0  0  0  0  0  0  0
   59.0912   28.3552   47.6497 C   0  0  0  0  0  0  0  0  0  0  0  0
   58.7878   28.6845   46.3851 C   0  0  0  0  0  0  0  0  0  0  0  0
   58.4002   27.8171   45.3501 C   0  0  0  0  0  0  0  0  0  0  0  0
   58.4270   26.4726   45.2639 C   0  0  0  0  0  0  0  0  0  0  0  0
   57.9818   28.6255   44.3033 C   0  0  0  0  0  0  0  0  0  0  0  0
   58.1815   29.9310   44.6991 C   0  0  0  0  0  0  0  0  0  0  0  0
   57.9057   31.1344   43.8493 C   0  0  0  0  0  0  0  0  0  0  0  0
   58.6881   29.9673   45.9509 N   0  0  0  0  0  0  0  0  0  0  0  0
   57.6527   25.5402   46.1014 C   0  0  0  0  0  0  0  0  0  0  0  0
   58.1311   24.3815   46.5902 N   0  0  0  0  0  0  0  0  0  0  0  0
   57.0437   23.7928   47.1294 C   0  0  0  0  0  0  0  0  0  0  0  0
   57.0929   22.6776   47.7093 O   0  0  0  0  0  0  0  0  0  0  0  0
   55.8962   24.4896   46.9889 N   0  0  0  0  0  0  0  0  0  0  0  0
   56.2958   25.5862   46.3256 C   0  0  0  0  0  0  0  0  0  0  0  0
   55.4306   26.6091   45.9404 O   0  0  0  0  0  0  0  0  0  0  0  0
   54.5169   26.5498   46.1395 H   0  0  0  0  0  0  0  0  0  0  0  0
   61.8853   32.8128   48.3881 N   0  0  0  0  0  0  0  0  0  0  0  0
   62.2733   34.1375   48.8814 C   0  0  0  0  0  0  0  0  0  0  0  0
   62.8050   34.0515   50.3301 C   0  0  0  0  0  0  0  0  0  0  0  0
   63.2246   32.6823   50.7335 N   0  0  0  0  0  0  0  0  0  0  0  0
   63.8532   31.9605   49.6015 C   0  0  0  0  0  0  0  0  0  0  0  0
   62.8627   31.7246   48.4473 C   0  0  0  0  0  0  0  0  0  0  0  0
   62.1152   31.9398   51.3827 C   0  0  0  0  0  0  0  0  0  0  0  0
   60.9539   32.8626   51.7819 C   0  0  0  0  0  0  0  0  0  0  0  0
   59.6530   32.1007   51.7587 C   0  0  0  0  0  0  0  0  0  0  0  0
   59.5610   30.8783   51.0736 C   0  0  0  0  0  0  0  0  0  0  0  0
   58.3321   30.2100   51.0171 C   0  0  0  0  0  0  0  0  0  0  0  0
   57.2370   30.7476   51.6144 N   0  0  0  0  0  0  0  0  0  0  0  0
   57.2960   31.9362   52.2752 C   0  0  0  0  0  0  0  0  0  0  0  0
   58.5037   32.6367   52.3547 C   0  0  0  0  0  0  0  0  0  0  0  0
  7  8  2  0
  8  9  1  0
  9 10  2  0
 10 15  1  0
 15 16  1  0
 16 17  1  0
 17 18  2  0
 17 19  1  0
 19 20  1  0
 20 21  1  0
  9 11  1  0
 11 12  2  0
 12 13  1  0
 12 14  1  0
 14  1  1  0
  1  2  2  0
  2  3  1  0
  3  4  2  0
  4  5  1  0
  5 23  1  0
 23 24  1  0
 24 25  1  0
 25 26  1  0
 26 29  1  0
 29 30  1  0
 30 31  1  0
 31 32  2  0
 32 33  1  0
 33 34  2  0
 34 35  1  0
 35 36  2  0
 26 27  1  0
 27 28  1  0
  5  6  2  0
 14  8  1  0
  6  1  1  0
 20 15  2  0
 28 23  1  0
 36 31  1  0
 21 22  1  0
M  CHG 1  16  -1
M  CHG 1  19  -1
M  END
> <UniqueID>
78

> <SMILES>
C=c1c(=Cc2[n-]c(=O)[n-]c2O)cc(C)n1-c1ccnc(N2CCN(CCc3ccncc3)CC2)c1

> <Energy>
152.8313089254283

> <Genealogy>
C=c1c(=Cc2[n-]c(=O)[n-]c2O)cc(C)n1-c1ccnc(N2CCN(CCc3ccncc3)CC2)c1 (protonated)
C=c1c(=Cc2[n-]c(=O)[n-]c2O)cc(C)n1-c1ccnc(N2CCN(CCc3ccncc3)CC2)c1 (3D coordinates assigned)
C=c1c(=Cc2[n-]c(=O)[n-]c2O)cc(C)n1-c1ccnc(N2CCN(CCc3ccncc3)CC2)c1 (nonaromatic ring conformer: 152.8313089254283 kcal/mol)

> <smiles>
C=c1c(=Cc2[nH]c(=O)[nH]c2O)cc(C)n1-c1ccnc(N2CCN(CCc3ccncc3)CC2)c1

> <score_type>
oracle

> <origin>
adg

> <m_score__min__energy>
-14.01

> <m_primary>
energy

> <minimizedAffinity>
-8.81677

> <minimizedRMSD>
0.73238

> <CNNscore>
0.1906352341

> <CNNaffinity>
6.8510890007

> <CNN_VS>
1.3060590029

> <CNNaffinity_variance>
0.7612907290

$$$$
84:0


 30 33  0  0  0  0  0  0  0  0999 V2000
   60.4545   29.3880   47.6457 C   0  0  0  0  0  0  0  0  0  0  0  0
   59.9069   30.1860   46.7139 C   0  0  0  0  0  0  0  0  0  0  0  0
   59.2332   29.7939   45.5439 C   0  0  0  0  0  0  0  0  0  0  0  0
   59.0946   28.5859   44.9624 C   0  0  0  0  0  0  0  0  0  0  0  0
   58.6799   30.9478   45.0116 C   0  0  0  0  0  0  0  0  0  0  0  0
   59.0739   31.9928   45.8184 C   0  0  0  0  0  0  0  0  0  0  0  0
   58.7051   33.4271   45.5946 C   0  0  0  0  0  0  0  0  0  0  0  0
   59.8169   31.5341   46.8517 N   0  0  0  0  0  0  0  0  0  0  0  0
   58.5249   27.3846   45.6016 C   0  0  0  0  0  0  0  0  0  0  0  0
   57.1354   27.2177   45.7328 C   0  0  0  0  0  0  0  0  0  0  0  0
   56.2548   28.1677   45.2289 O   0  0  0  0  0  0  0  0  0  0  0  0
   56.6418   26.1206   46.3638 N   0  0  0  0  0  0  0  0  0  0  0  0
   57.4699   25.1827   46.8898 C   0  0  0  0  0  0  0  0  0  0  0  0
   56.9898   24.1730   47.4663 O   0  0  0  0  0  0  0  0  0  0  0  0
   58.8157   25.3361   46.7997 N   0  0  0  0  0  0  0  0  0  0  0  0
   59.3598   26.4154   46.1779 C   0  0  0  0  0  0  0  0  0  0  0  0
   60.6131   26.5290   46.1188 O   0  0  0  0  0  0  0  0  0  0  0  0
   60.3804   32.3406   47.9031 C   0  0  0  0  0  0  0  0  0  0  0  0
   61.6522   32.9078   47.7505 C   0  0  0  0  0  0  0  0  0  0  0  0
   62.1919   33.7056   48.7615 C   0  0  0  0  0  0  0  0  0  0  0  0
   61.4681   33.9385   49.9334 C   0  0  0  0  0  0  0  0  0  0  0  0
   60.1988   33.3585   50.1110 C   0  0  0  0  0  0  0  0  0  0  0  0
   59.6537   32.5771   49.0799 C   0  0  0  0  0  0  0  0  0  0  0  0
   59.4214   33.5996   51.2961 N   0  0  0  0  0  0  0  0  0  0  0  0
   59.6414   32.9394   52.5523 C   0  0  0  0  0  0  0  0  0  0  0  0
   60.4638   31.9879   52.6464 O   0  0  0  0  0  0  0  0  0  0  0  0
   58.6922   34.2589   51.2431 H   0  0  0  0  0  0  0  0  0  0  0  0
   58.8940   33.3884   53.7727 C   0  0  0  0  0  0  0  0  0  0  0  0
   59.6221   33.1393   55.0854 C   0  0  0  0  0  0  0  0  0  0  0  0
   59.5299   34.5478   54.5260 C   0  0  0  0  0  0  0  0  0  0  0  0
  1  2  2  0
  2  3  1  0
  3  4  2  0
  4  9  1  0
  9 10  2  0
 10 11  1  0
 10 12  1  0
 12 13  1  0
 13 14  2  0
 13 15  1  0
 15 16  1  0
 16 17  2  0
  3  5  1  0
  5  6  2  0
  6  7  1  0
  6  8  1  0
  8 18  1  0
 18 19  2  0
 19 20  1  0
 20 21  2  0
 21 22  1  0
 22 24  1  0
 24 25  1  0
 25 26  2  0
 25 28  1  0
 28 29  1  0
 29 30  1  0
 22 23  2  0
  8  2  1  0
 23 18  1  0
 16  9  1  0
 30 28  1  0
 24 27  1  0
M  CHG 1  11  -1
M  CHG 1  12  -1
M  CHG 1  15  -1
M  END
> <UniqueID>
81

> <SMILES>
C=c1/c(=C\c2c([O-])[n-]c(=O)[n-]c2=O)cc(C)n1-c1cccc(NC(=O)C2CC2)c1

> <Energy>
364.5597081299399

> <Genealogy>
C=c1c(=Cc2c([O-])[n-]c(=O)[n-]c2=O)cc(C)n1-c1cccc(NC(=O)C2CC2)c1 (protonated)
C=c1/c(=C\c2c([O-])[n-]c(=O)[n-]c2=O)cc(C)n1-c1cccc(NC(=O)C2CC2)c1 (cis-trans isomerization)
C=c1/c(=C\c2c([O-])[n-]c(=O)[n-]c2=O)cc(C)n1-c1cccc(NC(=O)C2CC2)c1 (3D coordinates assigned)
C=c1/c(=C\c2c([O-])[n-]c(=O)[n-]c2=O)cc(C)n1-c1cccc(NC(=O)C2CC2)c1 (nonaromatic ring conformer: 364.5597081299399 kcal/mol)

> <smiles>
C=c1c(=Cc2c(O)[nH]c(=O)[nH]c2=O)cc(C)n1-c1cccc(NC(=O)C2CC2)c1

> <score_type>
oracle

> <origin>
adg

> <m_score__min__energy>
-16.350000000000001

> <m_primary>
energy

> <minimizedAffinity>
-7.30109

> <minimizedRMSD>
1.25730

> <CNNscore>
0.2825874388

> <CNNaffinity>
6.7493767738

> <CNN_VS>
1.9072891474

> <CNNaffinity_variance>
0.2215658873

$$$$
1:0


 29 31  0  0  0  0  0  0  0  0999 V2000
   59.0281   33.2026   46.5433 C   0  0  0  0  0  0  0  0  0  0  0  0
   59.9090   32.1087   46.5579 C   0  0  0  0  0  0  0  0  0  0  0  0
   61.0413   32.1251   47.3791 C   0  0  0  0  0  0  0  0  0  0  0  0
   61.2959   33.2253   48.2077 C   0  0  0  0  0  0  0  0  0  0  0  0
   60.4030   34.3058   48.2200 C   0  0  0  0  0  0  0  0  0  0  0  0
   59.2711   34.2907   47.3972 C   0  0  0  0  0  0  0  0  0  0  0  0
   62.7256   33.2273   49.2379 S   0  0  0  0  0  0  0  0  0  0  0  0
   63.9438   33.3691   48.3664 O   0  0  0  0  0  0  0  0  0  0  0  0
   62.6764   34.3913   50.1909 O   0  0  0  0  0  0  0  0  0  0  0  0
   62.8145   31.7324   50.1330 N   0  0  0  0  0  0  0  0  0  0  0  0
   61.5853   31.5571   50.9408 C   0  0  0  0  0  0  0  0  0  0  0  0
   61.7305   30.4487   52.0091 C   0  0  0  0  0  0  0  0  0  0  0  0
   62.9219   29.5326   51.7110 C   0  0  0  0  0  0  0  0  0  0  0  0
   64.2275   30.3398   51.6135 C   0  0  0  0  0  0  0  0  0  0  0  0
   64.0113   31.7328   50.9897 C   0  0  0  0  0  0  0  0  0  0  0  0
   57.8402   33.1755   45.6665 C   0  0  0  0  0  0  0  0  0  0  0  0
   57.3061   34.2679   45.3287 O   0  0  0  0  0  0  0  0  0  0  0  0
   57.2430   31.9483   45.2222 N   0  0  0  0  0  0  0  0  0  0  0  0
   57.5462   31.2813   43.9608 C   0  0  0  0  0  0  0  0  0  0  0  0
   56.3246   29.5655   42.8522 O   0  0  0  0  0  0  0  0  0  0  0  0
   56.8672   29.9521   43.9229 C   0  0  0  0  0  0  0  0  0  0  0  0
   56.8501   29.1364   45.1058 N   0  0  0  0  0  0  0  0  0  0  0  0
   57.8057   28.3665   45.5421 C   0  0  0  0  0  0  0  0  0  0  0  0
   59.1089   28.7728   45.5222 N   0  0  0  0  0  0  0  0  0  0  0  0
   60.1207   27.9786   45.9645 C   0  0  0  0  0  0  0  0  0  0  0  0
   59.8409   26.7032   46.4585 C   0  0  0  0  0  0  0  0  0  0  0  0
   58.5160   26.2584   46.4910 C   0  0  0  0  0  0  0  0  0  0  0  0
   57.4905   27.0886   46.0317 C   0  0  0  0  0  0  0  0  0  0  0  0
   56.1715   26.6410   46.0614 O   0  0  0  0  0  0  0  0  0  0  0  0
 20 21  2  0
 21 19  1  0
 19 18  1  0
 18 16  1  0
 16 17  2  0
 16  1  1  0
  1  2  2  0
  2  3  1  0
  3  4  2  0
  4  7  1  0
  7  8  2  0
  7  9  2  0
  7 10  1  0
 10 11  1  0
 11 12  1  0
 12 13  1  0
 13 14  1  0
 14 15  1  0
  4  5  1  0
  5  6  2  0
 21 22  1  0
 22 23  2  0
 23 24  1  0
 24 25  1  0
 25 26  2  0
 26 27  1  0
 27 28  2  0
 28 29  1  0
  6  1  1  0
 28 23  1  0
 15 10  1  0
M  CHG 1  18  -1
M  CHG 1  24  -1
M  CHG 1  29  -1
M  END
> <UniqueID>
2

> <SMILES>
O=C(C[N-]C(=O)c1ccc(S(=O)(=O)N2CCCCC2)cc1)N=c1[n-]cccc1[O-]

> <Energy>
58.54373905335736

> <Genealogy>
O=C(C[N-]C(=O)c1ccc(S(=O)(=O)N2CCCCC2)cc1)N=c1[n-]cccc1[O-] (protonated)
O=C(C[N-]C(=O)c1ccc(S(=O)(=O)N2CCCCC2)cc1)N=c1[n-]cccc1[O-] (3D coordinates assigned)
O=C(C[N-]C(=O)c1ccc(S(=O)(=O)N2CCCCC2)cc1)N=c1[n-]cccc1[O-] (nonaromatic ring conformer: 58.54373905335736 kcal/mol)

> <smiles>
O=C(CNC(=O)c1ccc(S(=O)(=O)N2CCCCC2)cc1)N=c1[nH]cccc1O

> <score_type>
oracle

> <origin>
adg

> <m_score__min__energy>
-16.539999999999999

> <m_primary>
energy

> <minimizedAffinity>
-8.19512

> <minimizedRMSD>
1.98265

> <CNNscore>
0.6255528927

> <CNNaffinity>
6.7152581215

> <CNN_VS>
4.2007489204

> <CNNaffinity_variance>
0.1574333757

$$$$
13:0


 28 30  0  0  0  0  0  0  0  0999 V2000
   57.9377   27.0370   45.2796 C   0  0  0  0  0  0  0  0  0  0  0  0
   58.4178   27.9489   46.1517 C   0  0  0  0  0  0  0  0  0  0  0  0
   58.7226   27.7436   47.4926 C   0  0  0  0  0  0  0  0  0  0  0  0
   59.2117   28.9398   47.9785 C   0  0  0  0  0  0  0  0  0  0  0  0
   59.6627   29.1650   49.3895 C   0  0  0  0  0  0  0  0  0  0  0  0
   59.2155   29.8783   47.0058 N   0  0  0  0  0  0  0  0  0  0  0  0
   58.7371   29.2866   45.8815 C   0  0  0  0  0  0  0  0  0  0  0  0
   58.5690   29.9275   44.7137 C   0  0  0  0  0  0  0  0  0  0  0  0
   55.0644   26.2545   46.1054 O   0  0  0  0  0  0  0  0  0  0  0  0
   56.1510   25.3835   46.0443 C   0  0  0  0  0  0  0  0  0  0  0  0
   56.0679   24.0848   46.3726 N   0  0  0  0  0  0  0  0  0  0  0  0
   57.3265   23.6431   46.1675 C   0  0  0  0  0  0  0  0  0  0  0  0
   57.6678   22.4481   46.3691 O   0  0  0  0  0  0  0  0  0  0  0  0
   58.1918   24.5842   45.7357 N   0  0  0  0  0  0  0  0  0  0  0  0
   57.4359   25.6943   45.6466 C   0  0  0  0  0  0  0  0  0  0  0  0
   54.2286   25.9417   46.3910 H   0  0  0  0  0  0  0  0  0  0  0  0
   59.6654   31.2362   47.1520 C   0  0  0  0  0  0  0  0  0  0  0  0
   58.7376   32.2825   47.2432 C   0  0  0  0  0  0  0  0  0  0  0  0
   59.1772   33.6020   47.3655 C   0  0  0  0  0  0  0  0  0  0  0  0
   60.5441   33.8856   47.4045 C   0  0  0  0  0  0  0  0  0  0  0  0
   61.4845   32.8459   47.3328 C   0  0  0  0  0  0  0  0  0  0  0  0
   61.0393   31.5235   47.1856 C   0  0  0  0  0  0  0  0  0  0  0  0
   62.9312   33.1348   47.3590 C   0  0  0  0  0  0  0  0  0  0  0  0
   63.4133   33.9222   46.5037 O   0  0  0  0  0  0  0  0  0  0  0  0
   63.8117   32.5363   48.3204 N   0  0  0  0  0  0  0  0  0  0  0  0
   63.7117   32.6695   49.7730 C   0  0  0  0  0  0  0  0  0  0  0  0
   63.0684   31.4178   50.3792 C   0  0  0  0  0  0  0  0  0  0  0  0
   65.1101   32.8819   50.3505 C   0  0  0  0  0  0  0  0  0  0  0  0
  9 10  1  0
 10 11  1  0
 11 12  1  0
 12 13  2  0
 12 14  1  0
 14 15  1  0
 15  1  1  0
  1  2  2  0
  2  3  1  0
  3  4  2  0
  4  5  1  0
  4  6  1  0
  6 17  1  0
 17 18  2  0
 18 19  1  0
 19 20  2  0
 20 21  1  0
 21 23  1  0
 23 24  2  0
 23 25  1  0
 25 26  1  0
 26 27  1  0
 26 28  1  0
 21 22  2  0
  6  7  1  0
  7  8  2  0
 15 10  2  0
  7  2  1  0
 22 17  1  0
  9 16  1  0
M  CHG 1  11  -1
M  CHG 1  14  -1
M  CHG 1  25  -1
M  END
> <UniqueID>
14

> <SMILES>
C=c1/c(=C/c2[n-]c(=O)[n-]c2O)cc(C)n1-c1cccc(C(=O)[N-]C(C)C)c1

> <Energy>
115.23714271125733

> <Genealogy>
C=c1c(=Cc2[n-]c(=O)[n-]c2O)cc(C)n1-c1cccc(C(=O)[N-]C(C)C)c1 (protonated)
C=c1/c(=C/c2[n-]c(=O)[n-]c2O)cc(C)n1-c1cccc(C(=O)[N-]C(C)C)c1 (cis-trans isomerization)
C=c1/c(=C/c2[n-]c(=O)[n-]c2O)cc(C)n1-c1cccc(C(=O)[N-]C(C)C)c1 (3D coordinates assigned)
C=c1/c(=C/c2[n-]c(=O)[n-]c2O)cc(C)n1-c1cccc(C(=O)[N-]C(C)C)c1 (optimized conformer: 115.23714271125733 kcal/mol)

> <smiles>
C=c1c(=Cc2[nH]c(=O)[nH]c2O)cc(C)n1-c1cccc(C(=O)NC(C)C)c1

> <score_type>
oracle

> <origin>
adg

> <m_score__min__energy>
-14.390000000000001

> <m_primary>
energy

> <minimizedAffinity>
-9.14550

> <minimizedRMSD>
0.82678

> <CNNscore>
0.5934644341

> <CNNaffinity>
7.2144751549

> <CNN_VS>
4.2815341949

> <CNNaffinity_variance>
0.2648418248

$$$$
15:0


 23 25  0  0  0  0  0  0  0  0999 V2000
   54.2679   27.6933   54.2853 C   0  0  0  0  0  0  0  0  0  0  0  0
   54.9210   28.6656   53.6345 C   0  0  0  0  0  0  0  0  0  0  0  0
   54.3094   29.7376   52.9427 C   0  0  0  0  0  0  0  0  0  0  0  0
   52.9865   29.9728   52.8145 C   0  0  0  0  0  0  0  0  0  0  0  0
   55.5512   30.6925   52.3020 S   0  0  0  0  0  0  0  0  0  0  0  0
   56.7850   29.7196   52.9000 C   0  0  0  0  0  0  0  0  0  0  0  0
   58.0636   29.9359   52.7893 N   0  0  0  0  0  0  0  0  0  0  0  0
   56.2866   28.6808   53.6011 N   0  0  0  0  0  0  0  0  0  0  0  0
   56.8485   28.0039   54.0430 H   0  0  0  0  0  0  0  0  0  0  0  0
   52.3049   30.3234   51.5483 C   0  0  0  0  0  0  0  0  0  0  0  0
   52.2573   29.5615   50.4392 N   0  0  0  0  0  0  0  0  0  0  0  0
   51.5326   30.3047   49.5770 C   0  0  0  0  0  0  0  0  0  0  0  0
   51.2669   29.9185   48.4073 O   0  0  0  0  0  0  0  0  0  0  0  0
   51.1149   31.4911   50.0628 N   0  0  0  0  0  0  0  0  0  0  0  0
   51.6118   31.4873   51.3110 C   0  0  0  0  0  0  0  0  0  0  0  0
   51.4340   32.5278   52.2152 O   0  0  0  0  0  0  0  0  0  0  0  0
   58.6859   31.0925   52.2067 C   0  0  0  0  0  0  0  0  0  0  0  0
   58.9561   32.2455   52.9665 C   0  0  0  0  0  0  0  0  0  0  0  0
   59.5264   33.3697   52.3627 C   0  0  0  0  0  0  0  0  0  0  0  0
   59.8094   33.3616   50.9941 C   0  0  0  0  0  0  0  0  0  0  0  0
   59.5133   32.2318   50.2261 C   0  0  0  0  0  0  0  0  0  0  0  0
   58.9424   31.1060   50.8267 C   0  0  0  0  0  0  0  0  0  0  0  0
   58.6518   30.0183   50.0695 F   0  0  0  0  0  0  0  0  0  0  0  0
  1  2  2  0
  2  3  1  0
  3  4  2  0
  4 10  1  0
 10 11  1  0
 11 12  1  0
 12 13  2  0
 12 14  1  0
 14 15  1  0
 15 16  1  0
  3  5  1  0
  5  6  1  0
  6  7  2  0
  7 17  1  0
 17 18  2  0
 18 19  1  0
 19 20  2  0
 20 21  1  0
 21 22  2  0
 22 23  1  0
  6  8  1  0
  8  2  1  0
 15 10  2  0
 22 17  1  0
  8  9  1  0
M  CHG 1  11  -1
M  CHG 1  14  -1
M  CHG 1  16  -1
M  END
> <UniqueID>
16

> <SMILES>
C=c1[nH]/c(=N/c2ccccc2F)s/c1=C\c1[n-]c(=O)[n-]c1[O-]

> <Energy>
104.50436381619161

> <Genealogy>
C=c1[nH]c(=Nc2ccccc2F)sc1=Cc1[n-]c(=O)[n-]c1[O-] (protonated)
C=c1[nH]/c(=N/c2ccccc2F)s/c1=C\c1[n-]c(=O)[n-]c1[O-] (cis-trans isomerization)
C=c1[nH]/c(=N/c2ccccc2F)s/c1=C\c1[n-]c(=O)[n-]c1[O-] (3D coordinates assigned)
C=c1[nH]/c(=N/c2ccccc2F)s/c1=C\c1[n-]c(=O)[n-]c1[O-] (optimized conformer: 104.50436381619161 kcal/mol)

> <smiles>
C=c1[nH]c(=Nc2ccccc2F)sc1=Cc1[nH]c(=O)[nH]c1O

> <score_type>
oracle

> <origin>
adg

> <m_score__min__energy>
-16.109999999999999

> <m_primary>
energy

> <minimizedAffinity>
-4.70958

> <minimizedRMSD>
0.86893

> <CNNscore>
0.1636720002

> <CNNaffinity>
4.8223032951

> <CNN_VS>
0.7892760038

> <CNNaffinity_variance>
0.0652978495

$$$$
19:0


 32 35  0  0  0  0  0  0  0  0999 V2000
   60.0167   32.4618   48.3662 C   0  0  0  0  0  0  0  0  0  0  0  0
   60.0985   32.5412   46.9699 C   0  0  0  0  0  0  0  0  0  0  0  0
   59.6233   31.4916   46.1784 C   0  0  0  0  0  0  0  0  0  0  0  0
   59.0718   30.3478   46.7779 C   0  0  0  0  0  0  0  0  0  0  0  0
   59.0030   30.2662   48.1763 C   0  0  0  0  0  0  0  0  0  0  0  0
   59.4772   31.3157   48.9678 C   0  0  0  0  0  0  0  0  0  0  0  0
   58.5666   29.2749   45.9643 N   0  0  0  0  0  0  0  0  0  0  0  0
   57.8020   29.4174   44.8578 C   0  0  0  0  0  0  0  0  0  0  0  0
   57.3524   30.7291   44.2872 C   0  0  0  0  0  0  0  0  0  0  0  0
   57.4880   28.1833   44.3266 C   0  0  0  0  0  0  0  0  0  0  0  0
   58.0919   27.2329   45.1393 C   0  0  0  0  0  0  0  0  0  0  0  0
   58.0708   25.8977   44.9625 C   0  0  0  0  0  0  0  0  0  0  0  0
   58.7593   27.9440   46.1441 C   0  0  0  0  0  0  0  0  0  0  0  0
   59.4478   27.4162   47.1676 C   0  0  0  0  0  0  0  0  0  0  0  0
   57.3422   24.9616   45.8365 C   0  0  0  0  0  0  0  0  0  0  0  0
   57.9079   23.8700   46.3813 N   0  0  0  0  0  0  0  0  0  0  0  0
   56.9322   23.3735   47.1719 C   0  0  0  0  0  0  0  0  0  0  0  0
   57.0790   22.3256   47.8541 O   0  0  0  0  0  0  0  0  0  0  0  0
   55.7901   24.0932   47.1856 N   0  0  0  0  0  0  0  0  0  0  0  0
   56.0684   25.1028   46.3444 C   0  0  0  0  0  0  0  0  0  0  0  0
   55.1962   26.1524   46.0907 O   0  0  0  0  0  0  0  0  0  0  0  0
   60.5107   33.5745   49.2014 C   0  0  0  0  0  0  0  0  0  0  0  0
   59.7173   34.5310   49.4213 O   0  0  0  0  0  0  0  0  0  0  0  0
   65.6184   32.7467   51.3968 O   0  0  0  0  0  0  0  0  0  0  0  0
   64.3211   32.5288   50.9084 C   0  0  0  0  0  0  0  0  0  0  0  0
   64.2593   32.9467   49.4381 C   0  0  0  0  0  0  0  0  0  0  0  0
   62.8250   32.8298   48.9026 C   0  0  0  0  0  0  0  0  0  0  0  0
   61.8763   33.6424   49.7041 N   0  0  0  0  0  0  0  0  0  0  0  0
   61.9016   33.2127   51.1222 C   0  0  0  0  0  0  0  0  0  0  0  0
   63.3084   33.3415   51.7235 C   0  0  0  0  0  0  0  0  0  0  0  0
   66.2514   32.2289   50.8754 H   0  0  0  0  0  0  0  0  0  0  0  0
   61.3312   33.0428   49.1450 H   0  0  0  0  0  0  0  0  0  0  0  0
 25 24  1  0
 25 26  1  0
 26 27  1  0
 27 28  1  0
 28 22  1  0
 22 23  2  0
 22  1  1  0
  1  2  2  0
  2  3  1  0
  3  4  2  0
  4  7  1  0
  7  8  1  0
  8  9  1  0
  8 10  2  0
 10 11  1  0
 11 12  2  0
 12 15  1  0
 15 16  1  0
 16 17  1  0
 17 18  2  0
 17 19  1  0
 19 20  1  0
 20 21  1  0
 11 13  1  0
 13 14  2  0
  4  5  1  0
  5  6  2  0
 28 29  1  0
 29 30  1  0
 30 25  1  0
  6  1  1  0
 13  7  1  0
 20 15  2  0
 24 31  1  0
 28 32  1  0
M  CHG 1  16  -1
M  CHG 1  19  -1
M  CHG 1  21  -1
M  CHG 1  28   1
M  END
> <UniqueID>
20

> <SMILES>
C=c1/c(=C/c2[n-]c(=O)[n-]c2[O-])cc(C)n1-c1ccc(C(=O)[NH+]2CCC(O)CC2)cc1

> <Energy>
135.19122546990948

> <Genealogy>
C=c1c(=Cc2[n-]c(=O)[n-]c2[O-])cc(C)n1-c1ccc(C(=O)[NH+]2CCC(O)CC2)cc1 (protonated)
C=c1/c(=C/c2[n-]c(=O)[n-]c2[O-])cc(C)n1-c1ccc(C(=O)[NH+]2CCC(O)CC2)cc1 (cis-trans isomerization)
C=c1/c(=C/c2[n-]c(=O)[n-]c2[O-])cc(C)n1-c1ccc(C(=O)[NH+]2CCC(O)CC2)cc1 (3D coordinates assigned)
C=c1/c(=C/c2[n-]c(=O)[n-]c2[O-])cc(C)n1-c1ccc(C(=O)[NH+]2CCC(O)CC2)cc1 (nonaromatic ring conformer: 135.19122546990948 kcal/mol)

> <smiles>
C=c1c(=Cc2[nH]c(=O)[nH]c2O)cc(C)n1-c1ccc(C(=O)N2CCC(O)CC2)cc1

> <score_type>
oracle

> <origin>
adg

> <m_score__min__energy>
-14.699999999999999

> <m_primary>
energy

> <minimizedAffinity>
-8.30127

> <minimizedRMSD>
0.88808

> <CNNscore>
0.1992648840

> <CNNaffinity>
6.7162060738

> <CNN_VS>
1.3383040428

> <CNNaffinity_variance>
0.0715366229

$$$$
20:0


 28 31  0  0  0  0  0  0  0  0999 V2000
   58.4567   28.6449   47.2338 C   0  0  0  0  0  0  0  0  0  0  0  0
   58.1121   29.1713   46.0467 C   0  0  0  0  0  0  0  0  0  0  0  0
   57.5926   28.4931   44.9315 C   0  0  0  0  0  0  0  0  0  0  0  0
   57.1514   27.2270   44.7892 C   0  0  0  0  0  0  0  0  0  0  0  0
   57.5857   29.4072   43.8907 C   0  0  0  0  0  0  0  0  0  0  0  0
   58.0336   30.6051   44.4058 C   0  0  0  0  0  0  0  0  0  0  0  0
   58.1718   31.8718   43.6157 C   0  0  0  0  0  0  0  0  0  0  0  0
   58.3559   30.4653   45.7107 N   0  0  0  0  0  0  0  0  0  0  0  0
   57.2067   26.1767   45.8255 C   0  0  0  0  0  0  0  0  0  0  0  0
   56.0339   25.6121   46.3545 C   0  0  0  0  0  0  0  0  0  0  0  0
   54.7821   26.0553   45.9415 O   0  0  0  0  0  0  0  0  0  0  0  0
   56.1175   24.6184   47.2758 N   0  0  0  0  0  0  0  0  0  0  0  0
   57.3204   24.1418   47.6870 C   0  0  0  0  0  0  0  0  0  0  0  0
   57.3729   23.2231   48.5439 O   0  0  0  0  0  0  0  0  0  0  0  0
   58.4669   24.6525   47.1679 N   0  0  0  0  0  0  0  0  0  0  0  0
   58.4366   25.6484   46.2451 C   0  0  0  0  0  0  0  0  0  0  0  0
   59.5200   26.0934   45.7792 O   0  0  0  0  0  0  0  0  0  0  0  0
   58.8764   31.5024   46.5624 C   0  0  0  0  0  0  0  0  0  0  0  0
   58.1816   32.7116   46.7036 C   0  0  0  0  0  0  0  0  0  0  0  0
   58.6903   33.7216   47.5215 C   0  0  0  0  0  0  0  0  0  0  0  0
   59.8951   33.5345   48.2029 C   0  0  0  0  0  0  0  0  0  0  0  0
   60.6052   32.3280   48.0730 C   0  0  0  0  0  0  0  0  0  0  0  0
   60.0865   31.3138   47.2470 C   0  0  0  0  0  0  0  0  0  0  0  0
   61.8814   32.1271   48.7923 C   0  0  0  0  0  0  0  0  0  0  0  0
   61.9997   31.4070   49.9275 N   0  0  0  0  0  0  0  0  0  0  0  0
   63.3149   31.5132   50.1928 C   0  0  0  0  0  0  0  0  0  0  0  0
   63.9624   32.2531   49.2747 N   0  0  0  0  0  0  0  0  0  0  0  0
   63.0590   32.6412   48.3922 N   0  0  0  0  0  0  0  0  0  0  0  0
  1  2  2  0
  2  3  1  0
  3  4  2  0
  4  9  1  0
  9 10  2  0
 10 11  1  0
 10 12  1  0
 12 13  1  0
 13 14  2  0
 13 15  1  0
 15 16  1  0
 16 17  2  0
  3  5  1  0
  5  6  2  0
  6  7  1  0
  6  8  1  0
  8 18  1  0
 18 19  2  0
 19 20  1  0
 20 21  2  0
 21 22  1  0
 22 24  1  0
 24 25  1  0
 25 26  2  0
 26 27  1  0
 27 28  1  0
 22 23  2  0
  8  2  1  0
 23 18  1  0
 16  9  1  0
 28 24  2  0
M  CHG 1  11  -1
M  CHG 1  12  -1
M  CHG 1  15  -1
M  CHG 1  27  -1
M  END
> <UniqueID>
21

> <SMILES>
C=c1c(=Cc2c([O-])[n-]c(=O)[n-]c2=O)cc(C)n1-c1cccc(-c2nc[n-]n2)c1

> <Energy>
125.87223656718791

> <Genealogy>
C=c1c(=Cc2c([O-])[n-]c(=O)[n-]c2=O)cc(C)n1-c1cccc(-c2nc[n-]n2)c1 (protonated)
C=c1c(=Cc2c([O-])[n-]c(=O)[n-]c2=O)cc(C)n1-c1cccc(-c2nc[n-]n2)c1 (3D coordinates assigned)
C=c1c(=Cc2c([O-])[n-]c(=O)[n-]c2=O)cc(C)n1-c1cccc(-c2nc[n-]n2)c1 (optimized conformer: 125.87223656718791 kcal/mol)

> <smiles>
C=c1c(=Cc2c(O)[nH]c(=O)[nH]c2=O)cc(C)n1-c1cccc(-c2nc[nH]n2)c1

> <score_type>
oracle

> <origin>
adg

> <m_score__min__energy>
-16.579999999999998

> <m_primary>
energy

> <minimizedAffinity>
-6.32634

> <minimizedRMSD>
1.07119

> <CNNscore>
0.2133522630

> <CNNaffinity>
6.6662650108

> <CNN_VS>
1.4222626686

> <CNNaffinity_variance>
0.1373816133

$$$$
26:0


 32 34  0  0  0  0  0  0  0  0999 V2000
   61.1359   30.0793   47.2844 C   0  0  0  0  0  0  0  0  0  0  0  0
   60.1976   30.8595   46.7199 C   0  0  0  0  0  0  0  0  0  0  0  0
   59.2851   30.4626   45.7363 C   0  0  0  0  0  0  0  0  0  0  0  0
   59.2171   29.2670   45.1157 C   0  0  0  0  0  0  0  0  0  0  0  0
   58.4930   31.5674   45.4690 C   0  0  0  0  0  0  0  0  0  0  0  0
   58.9388   32.5820   46.2902 C   0  0  0  0  0  0  0  0  0  0  0  0
   58.3762   33.9717   46.3013 C   0  0  0  0  0  0  0  0  0  0  0  0
   59.9888   32.1658   47.0379 N   0  0  0  0  0  0  0  0  0  0  0  0
   58.6826   28.0427   45.7542 C   0  0  0  0  0  0  0  0  0  0  0  0
   57.3029   27.7889   45.7354 C   0  0  0  0  0  0  0  0  0  0  0  0
   56.4241   28.6905   45.1445 O   0  0  0  0  0  0  0  0  0  0  0  0
   56.8114   26.6582   46.3049 N   0  0  0  0  0  0  0  0  0  0  0  0
   57.6378   25.7498   46.8836 C   0  0  0  0  0  0  0  0  0  0  0  0
   57.1593   24.7083   47.4053 O   0  0  0  0  0  0  0  0  0  0  0  0
   58.9791   25.9589   46.8925 N   0  0  0  0  0  0  0  0  0  0  0  0
   59.5192   27.0742   46.3405 C   0  0  0  0  0  0  0  0  0  0  0  0
   60.7699   27.2195   46.3419 O   0  0  0  0  0  0  0  0  0  0  0  0
   60.7545   33.0110   47.9694 C   0  0  0  0  0  0  0  0  0  0  0  0
   60.0391   33.1587   49.2808 C   0  0  0  0  0  0  0  0  0  0  0  0
   59.2896   34.1561   49.4650 O   0  0  0  0  0  0  0  0  0  0  0  0
   60.2144   32.1864   50.3208 N   0  0  0  0  0  0  0  0  0  0  0  0
   60.6930   31.3522   50.1104 H   0  0  0  0  0  0  0  0  0  0  0  0
   59.7213   32.3782   51.6558 C   0  0  0  0  0  0  0  0  0  0  0  0
   60.3113   33.3559   52.4768 C   0  0  0  0  0  0  0  0  0  0  0  0
   59.9224   33.4908   53.8097 C   0  0  0  0  0  0  0  0  0  0  0  0
   58.9509   32.6441   54.3433 C   0  0  0  0  0  0  0  0  0  0  0  0
   58.3563   31.6682   53.5415 C   0  0  0  0  0  0  0  0  0  0  0  0
   58.7209   31.5300   52.1893 C   0  0  0  0  0  0  0  0  0  0  0  0
   58.0124   30.5400   51.3465 C   0  0  0  0  0  0  0  0  0  0  0  0
   58.6344   29.9330   50.4298 O   0  0  0  0  0  0  0  0  0  0  0  0
   56.6696   30.2429   51.5979 O   0  0  0  0  0  0  0  0  0  0  0  0
   56.2460   29.4720   52.7149 C   0  0  0  0  0  0  0  0  0  0  0  0
  1  2  2  0
  2  3  1  0
  3  4  2  0
  4  9  1  0
  9 10  2  0
 10 11  1  0
 10 12  1  0
 12 13  1  0
 13 14  2  0
 13 15  1  0
 15 16  1  0
 16 17  2  0
  3  5  1  0
  5  6  2  0
  6  7  1  0
  6  8  1  0
  8 18  1  0
 18 19  1  0
 19 20  2  0
 19 21  1  0
 21 23  1  0
 23 24  2  0
 24 25  1  0
 25 26  2  0
 26 27  1  0
 27 28  2  0
 28 29  1  0
 29 30  2  0
 29 31  1  0
 31 32  1  0
  8  2  1  0
 28 23  1  0
 16  9  1  0
 21 22  1  0
M  CHG 1  11  -1
M  CHG 1  12  -1
M  CHG 1  15  -1
M  END
> <UniqueID>
27

> <SMILES>
C=c1c(=Cc2c([O-])[n-]c(=O)[n-]c2=O)cc(C)n1CC(=O)Nc1ccccc1C(=O)OC

> <Energy>
91.41545582692217

> <Genealogy>
C=c1c(=Cc2c([O-])[n-]c(=O)[n-]c2=O)cc(C)n1CC(=O)Nc1ccccc1C(=O)OC (protonated)
C=c1c(=Cc2c([O-])[n-]c(=O)[n-]c2=O)cc(C)n1CC(=O)Nc1ccccc1C(=O)OC (3D coordinates assigned)
C=c1c(=Cc2c([O-])[n-]c(=O)[n-]c2=O)cc(C)n1CC(=O)Nc1ccccc1C(=O)OC (optimized conformer: 91.41545582692217 kcal/mol)

> <smiles>
C=c1c(=Cc2c(O)[nH]c(=O)[nH]c2=O)cc(C)n1CC(=O)Nc1ccccc1C(=O)OC

> <score_type>
oracle

> <origin>
adg

> <m_score__min__energy>
-15.609999999999999

> <m_primary>
energy

> <minimizedAffinity>
-6.82226

> <minimizedRMSD>
1.14857

> <CNNscore>
0.5153418779

> <CNNaffinity>
7.0120368004

> <CNN_VS>
3.6135962009

> <CNNaffinity_variance>
0.1857232451

$$$$
30:0


 27 29  0  0  0  0  0  0  0  0999 V2000
   60.0300   29.3941   48.9344 C   0  0  0  0  0  0  0  0  0  0  0  0
   59.1921   29.3340   50.0604 C   0  0  0  0  0  0  0  0  0  0  0  0
   58.8116   30.5042   50.7170 C   0  0  0  0  0  0  0  0  0  0  0  0
   59.2788   31.7429   50.2701 C   0  0  0  0  0  0  0  0  0  0  0  0
   60.1463   31.8205   49.1716 C   0  0  0  0  0  0  0  0  0  0  0  0
   60.5219   30.6367   48.5036 C   0  0  0  0  0  0  0  0  0  0  0  0
   61.3781   30.6854   47.4074 O   0  0  0  0  0  0  0  0  0  0  0  0
   60.7299   33.4073   48.6368 S   0  0  0  0  0  0  0  0  0  0  0  0
   62.0765   33.2350   47.9928 O   0  0  0  0  0  0  0  0  0  0  0  0
   60.9030   34.3073   49.8275 O   0  0  0  0  0  0  0  0  0  0  0  0
   59.6538   34.1778   47.4950 N   0  0  0  0  0  0  0  0  0  0  0  0
   60.2412   34.2673   46.1596 C   0  0  0  0  0  0  0  0  0  0  0  0
   59.0779   34.3294   45.1794 C   0  0  0  0  0  0  0  0  0  0  0  0
   57.8674   33.8337   45.9575 C   0  0  0  0  0  0  0  0  0  0  0  0
   58.4057   33.4390   47.3220 C   0  0  0  0  0  0  0  0  0  0  0  0
   60.4589   28.2017   48.2628 N   0  0  0  0  0  0  0  0  0  0  0  0
   58.9211   26.4646   48.2482 O   0  0  0  0  0  0  0  0  0  0  0  0
   59.6166   27.2675   47.5729 C   0  0  0  0  0  0  0  0  0  0  0  0
   59.5939   27.1768   46.0710 C   0  0  0  0  0  0  0  0  0  0  0  0
   58.9158   28.3856   45.4830 C   0  0  0  0  0  0  0  0  0  0  0  0
   59.6806   29.4831   45.0549 C   0  0  0  0  0  0  0  0  0  0  0  0
   59.0572   30.5956   44.4823 C   0  0  0  0  0  0  0  0  0  0  0  0
   57.6670   30.6171   44.3243 C   0  0  0  0  0  0  0  0  0  0  0  0
   57.0535   31.7261   43.7532 O   0  0  0  0  0  0  0  0  0  0  0  0
   56.8996   29.5211   44.7361 C   0  0  0  0  0  0  0  0  0  0  0  0
   55.5193   29.5350   44.5761 O   0  0  0  0  0  0  0  0  0  0  0  0
   57.5226   28.4071   45.3105 C   0  0  0  0  0  0  0  0  0  0  0  0
 17 18  2  0
 18 19  1  0
 19 20  1  0
 20 21  2  0
 21 22  1  0
 22 23  2  0
 23 24  1  0
 23 25  1  0
 25 26  1  0
 25 27  2  0
 18 16  1  0
 16  1  1  0
  1  2  2  0
  2  3  1  0
  3  4  2  0
  4  5  1  0
  5  8  1  0
  8  9  2  0
  8 10  2  0
  8 11  1  0
 11 12  1  0
 12 13  1  0
 13 14  1  0
 14 15  1  0
  5  6  2  0
  6  7  1  0
 27 20  1  0
  6  1  1  0
 15 11  1  0
M  CHG 1   7  -1
M  CHG 1  16  -1
M  CHG 1  24  -1
M  CHG 1  26  -1
M  END
> <UniqueID>
31

> <SMILES>
O=C(Cc1ccc([O-])c([O-])c1)[N-]c1cccc(S(=O)(=O)N2CCCC2)c1[O-]

> <Energy>
51.297735589729086

> <Genealogy>
O=C(Cc1ccc([O-])c([O-])c1)[N-]c1cccc(S(=O)(=O)N2CCCC2)c1[O-] (protonated)
O=C(Cc1ccc([O-])c([O-])c1)[N-]c1cccc(S(=O)(=O)N2CCCC2)c1[O-] (3D coordinates assigned)
O=C(Cc1ccc([O-])c([O-])c1)[N-]c1cccc(S(=O)(=O)N2CCCC2)c1[O-] (nonaromatic ring conformer: 51.297735589729086 kcal/mol)

> <smiles>
O=C(Cc1ccc(O)c(O)c1)Nc1cccc(S(=O)(=O)N2CCCC2)c1O

> <score_type>
oracle

> <origin>
adg

> <m_score__min__energy>
-19.359999999999999

> <m_primary>
energy

> <minimizedAffinity>
-6.39665

> <minimizedRMSD>
1.50055

> <CNNscore>
0.4220831394

> <CNNaffinity>
6.2736759186

> <CNN_VS>
2.6480128765

> <CNNaffinity_variance>
0.0276256781

$$$$
36:0


 25 27  0  0  0  0  0  0  0  0999 V2000
   60.1752   29.1048   44.7639 C   0  0  0  0  0  0  0  0  0  0  0  0
   59.5689   28.8592   45.9360 C   0  0  0  0  0  0  0  0  0  0  0  0
   58.8746   27.6988   46.3099 C   0  0  0  0  0  0  0  0  0  0  0  0
   58.4472   26.6515   45.5780 C   0  0  0  0  0  0  0  0  0  0  0  0
   58.6503   27.8035   47.6747 C   0  0  0  0  0  0  0  0  0  0  0  0
   59.1349   29.0337   48.0647 C   0  0  0  0  0  0  0  0  0  0  0  0
   59.1191   29.5602   49.4671 C   0  0  0  0  0  0  0  0  0  0  0  0
   59.6829   29.6765   47.0124 N   0  0  0  0  0  0  0  0  0  0  0  0
   57.7003   25.4947   46.0994 C   0  0  0  0  0  0  0  0  0  0  0  0
   58.2271   24.2744   46.3141 N   0  0  0  0  0  0  0  0  0  0  0  0
   57.1534   23.5269   46.6479 C   0  0  0  0  0  0  0  0  0  0  0  0
   57.2426   22.3055   46.9407 O   0  0  0  0  0  0  0  0  0  0  0  0
   55.9751   24.1861   46.6322 N   0  0  0  0  0  0  0  0  0  0  0  0
   56.3384   25.4254   46.2676 C   0  0  0  0  0  0  0  0  0  0  0  0
   55.4441   26.4734   46.0891 O   0  0  0  0  0  0  0  0  0  0  0  0
   60.3560   30.9447   47.0694 C   0  0  0  0  0  0  0  0  0  0  0  0
   61.7374   30.9757   47.3106 C   0  0  0  0  0  0  0  0  0  0  0  0
   62.4182   32.1931   47.3554 C   0  0  0  0  0  0  0  0  0  0  0  0
   61.7239   33.3883   47.1566 C   0  0  0  0  0  0  0  0  0  0  0  0
   60.3479   33.3700   46.9193 C   0  0  0  0  0  0  0  0  0  0  0  0
   59.6467   32.1528   46.8848 C   0  0  0  0  0  0  0  0  0  0  0  0
   58.1628   32.1582   46.6075 C   0  0  0  0  0  0  0  0  0  0  0  0
   57.9008   32.0665   45.1371 C   0  0  0  0  0  0  0  0  0  0  0  0
   58.3693   32.9342   44.3536 O   0  0  0  0  0  0  0  0  0  0  0  0
   57.1488   31.0148   44.6280 O   0  0  0  0  0  0  0  0  0  0  0  0
  1  2  2  0
  2  3  1  0
  3  4  2  0
  4  9  1  0
  9 10  1  0
 10 11  1  0
 11 12  2  0
 11 13  1  0
 13 14  1  0
 14 15  1  0
  3  5  1  0
  5  6  2  0
  6  7  1  0
  6  8  1  0
  8 16  1  0
 16 17  2  0
 17 18  1  0
 18 19  2  0
 19 20  1  0
 20 21  2  0
 21 22  1  0
 22 23  1  0
 23 24  2  0
 23 25  1  0
  8  2  1  0
 21 16  1  0
 14  9  2  0
M  CHG 1  10  -1
M  CHG 1  13  -1
M  CHG 1  15  -1
M  CHG 1  25  -1
M  END
> <UniqueID>
37

> <SMILES>
C=c1c(=Cc2[n-]c(=O)[n-]c2[O-])cc(C)n1-c1ccccc1CC(=O)[O-]

> <Energy>
113.11034242217285

> <Genealogy>
C=c1c(=Cc2[n-]c(=O)[n-]c2[O-])cc(C)n1-c1ccccc1CC(=O)[O-] (protonated)
C=c1c(=Cc2[n-]c(=O)[n-]c2[O-])cc(C)n1-c1ccccc1CC(=O)[O-] (3D coordinates assigned)
C=c1c(=Cc2[n-]c(=O)[n-]c2[O-])cc(C)n1-c1ccccc1CC(=O)[O-] (optimized conformer: 113.11034242217285 kcal/mol)

> <smiles>
C=c1c(=Cc2[nH]c(=O)[nH]c2O)cc(C)n1-c1ccccc1CC(=O)O

> <score_type>
oracle

> <origin>
adg

> <m_score__min__energy>
-16.260000000000002

> <m_primary>
energy

> <minimizedAffinity>
-7.75158

> <minimizedRMSD>
0.87174

> <CNNscore>
0.3153834343

> <CNNaffinity>
6.5107216835

> <CNN_VS>
2.0533738136

> <CNNaffinity_variance>
0.1969437152

$$$$
40:0


 33 36  0  0  0  0  0  0  0  0999 V2000
   60.0110   26.9366   47.9212 C   0  0  0  0  0  0  0  0  0  0  0  0
   59.4608   28.1166   47.5871 C   0  0  0  0  0  0  0  0  0  0  0  0
   58.7101   28.3725   46.4387 C   0  0  0  0  0  0  0  0  0  0  0  0
   58.2912   27.4827   45.5166 C   0  0  0  0  0  0  0  0  0  0  0  0
   58.4157   29.7252   46.4626 C   0  0  0  0  0  0  0  0  0  0  0  0
   58.9618   30.2391   47.6249 C   0  0  0  0  0  0  0  0  0  0  0  0
   59.5926   29.2572   48.3155 N   0  0  0  0  0  0  0  0  0  0  0  0
   57.8417   26.1187   45.8428 C   0  0  0  0  0  0  0  0  0  0  0  0
   58.6408   25.0399   45.7719 N   0  0  0  0  0  0  0  0  0  0  0  0
   57.8126   24.0163   46.0685 C   0  0  0  0  0  0  0  0  0  0  0  0
   58.2026   22.8195   46.1179 O   0  0  0  0  0  0  0  0  0  0  0  0
   56.5322   24.3737   46.2975 N   0  0  0  0  0  0  0  0  0  0  0  0
   56.5636   25.7057   46.1415 C   0  0  0  0  0  0  0  0  0  0  0  0
   55.4362   26.5171   46.2189 O   0  0  0  0  0  0  0  0  0  0  0  0
   58.9826   31.6795   47.9920 C   0  0  0  0  0  0  0  0  0  0  0  0
   57.9486   32.1606   48.5309 O   0  0  0  0  0  0  0  0  0  0  0  0
   60.1336   32.5409   47.7807 N   0  0  0  0  0  0  0  0  0  0  0  0
   60.2945   33.4983   48.9034 C   0  0  0  0  0  0  0  0  0  0  0  0
   61.7260   34.0436   48.9839 C   0  0  0  0  0  0  0  0  0  0  0  0
   62.7273   32.9050   49.2866 C   0  0  0  0  0  0  0  0  0  0  0  0
   62.3138   31.5699   48.6130 C   0  0  0  0  0  0  0  0  0  0  0  0
   61.3665   31.7849   47.4213 C   0  0  0  0  0  0  0  0  0  0  0  0
   59.2222   32.1760   47.8541 H   0  0  0  0  0  0  0  0  0  0  0  0
   64.1605   33.3147   48.8905 C   0  0  0  0  0  0  0  0  0  0  0  0
   64.3116   33.3284   47.4966 O   0  0  0  0  0  0  0  0  0  0  0  0
   64.1432   32.4405   47.1444 H   0  0  0  0  0  0  0  0  0  0  0  0
   60.2684   29.4030   49.6177 C   0  0  0  0  0  0  0  0  0  0  0  0
   59.3962   30.1078   50.6333 C   0  0  0  0  0  0  0  0  0  0  0  0
   58.0966   29.6491   50.9221 C   0  0  0  0  0  0  0  0  0  0  0  0
   57.3027   30.3235   51.8545 C   0  0  0  0  0  0  0  0  0  0  0  0
   57.7897   31.4631   52.4981 C   0  0  0  0  0  0  0  0  0  0  0  0
   59.0717   31.9365   52.2068 C   0  0  0  0  0  0  0  0  0  0  0  0
   59.8688   31.2672   51.2718 C   0  0  0  0  0  0  0  0  0  0  0  0
  1  2  2  0
  2  3  1  0
  3  4  2  0
  4  8  1  0
  8  9  1  0
  9 10  1  0
 10 11  2  0
 10 12  1  0
 12 13  1  0
 13 14  1  0
  3  5  1  0
  5  6  2  0
  6 15  1  0
 15 16  2  0
 17 15  1  0
 17 18  1  0
 18 19  1  0
 19 20  1  0
 20 24  1  0
 24 25  1  0
 20 21  1  0
 21 22  1  0
  6  7  1  0
  7 27  1  0
 27 28  1  0
 28 29  2  0
 29 30  1  0
 30 31  2  0
 31 32  1  0
 32 33  2  0
  7  2  1  0
 33 28  1  0
 13  8  2  0
 22 17  1  0
 17 23  1  0
 25 26  1  0
M  CHG 1   9  -1
M  CHG 1  12  -1
M  CHG 1  14  -1
M  CHG 1  17   1
M  END
> <UniqueID>
40

> <SMILES>
C=c1c(=Cc2[n-]c(=O)[n-]c2[O-])cc(C(=O)[NH+]2CCC(CO)CC2)n1Cc1ccccc1

> <Energy>
139.9929802715432

> <Genealogy>
C=c1c(=Cc2[n-]c(=O)[n-]c2[O-])cc(C(=O)[NH+]2CCC(CO)CC2)n1Cc1ccccc1 (protonated)
C=c1c(=Cc2[n-]c(=O)[n-]c2[O-])cc(C(=O)[NH+]2CCC(CO)CC2)n1Cc1ccccc1 (3D coordinates assigned)
C=c1c(=Cc2[n-]c(=O)[n-]c2[O-])cc(C(=O)[NH+]2CCC(CO)CC2)n1Cc1ccccc1 (nonaromatic ring conformer: 139.9929802715432 kcal/mol)

> <smiles>
C=c1c(=Cc2[nH]c(=O)[nH]c2O)cc(C(=O)N2CCC(CO)CC2)n1Cc1ccccc1

> <score_type>
oracle

> <origin>
adg

> <m_score__min__energy>
-15.359999999999999

> <m_primary>
energy

> <minimizedAffinity>
-6.67404

> <minimizedRMSD>
0.89420

> <CNNscore>
0.0889765546

> <CNNaffinity>
6.1678180695

> <CNN_VS>
0.5487912297

> <CNNaffinity_variance>
0.0016744550

$$$$
49:0


 34 37  0  0  0  0  0  0  0  0999 V2000
   58.7911   27.1937   45.1420 O   0  0  0  0  0  0  0  0  0  0  0  0
   58.4113   27.2822   46.3416 C   0  0  0  0  0  0  0  0  0  0  0  0
   58.6139   28.4919   47.0795 N   0  0  0  0  0  0  0  0  0  0  0  0
   58.5201   29.8210   46.5459 C   0  0  0  0  0  0  0  0  0  0  0  0
   57.7786   30.0302   45.3785 C   0  0  0  0  0  0  0  0  0  0  0  0
   57.7017   31.3053   44.8094 C   0  0  0  0  0  0  0  0  0  0  0  0
   58.3844   32.3746   45.3941 C   0  0  0  0  0  0  0  0  0  0  0  0
   59.1725   32.1695   46.5347 C   0  0  0  0  0  0  0  0  0  0  0  0
   59.2308   30.8941   47.1156 C   0  0  0  0  0  0  0  0  0  0  0  0
   60.1037   33.5028   47.2248 S   0  0  0  0  0  0  0  0  0  0  0  0
   59.1560   34.5489   47.7397 O   0  0  0  0  0  0  0  0  0  0  0  0
   60.9391   34.1269   46.1466 O   0  0  0  0  0  0  0  0  0  0  0  0
   61.1376   32.9714   48.5381 N   0  0  0  0  0  0  0  0  0  0  0  0
   62.1981   33.9515   48.8070 C   0  0  0  0  0  0  0  0  0  0  0  0
   63.4757   33.4857   48.1213 C   0  0  0  0  0  0  0  0  0  0  0  0
   63.2220   32.0484   47.7076 C   0  0  0  0  0  0  0  0  0  0  0  0
   61.8196   31.7161   48.2036 C   0  0  0  0  0  0  0  0  0  0  0  0
   57.7733   26.1708   46.9804 N   0  0  0  0  0  0  0  0  0  0  0  0
   57.0080   25.1778   46.2906 C   0  0  0  0  0  0  0  0  0  0  0  0
   57.6339   23.9813   45.9137 C   0  0  0  0  0  0  0  0  0  0  0  0
   56.9103   22.9827   45.2505 C   0  0  0  0  0  0  0  0  0  0  0  0
   55.5644   23.1992   44.9234 C   0  0  0  0  0  0  0  0  0  0  0  0
   54.9429   24.4025   45.2686 C   0  0  0  0  0  0  0  0  0  0  0  0
   55.6574   25.3934   45.9489 C   0  0  0  0  0  0  0  0  0  0  0  0
   55.0230   26.5942   46.2623 O   0  0  0  0  0  0  0  0  0  0  0  0
   57.6973   21.4545   44.8653 S   0  0  0  0  0  0  0  0  0  0  0  0
   59.1854   21.5726   45.0594 O   0  0  0  0  0  0  0  0  0  0  0  0
   57.4219   21.1284   43.4230 O   0  0  0  0  0  0  0  0  0  0  0  0
   57.0720   20.1798   45.8876 N   0  0  0  0  0  0  0  0  0  0  0  0
   55.7767   19.7009   45.3644 C   0  0  0  0  0  0  0  0  0  0  0  0
   54.9334   19.0629   46.4844 C   0  0  0  0  0  0  0  0  0  0  0  0
   54.6259   19.9506   47.5545 O   0  0  0  0  0  0  0  0  0  0  0  0
   55.5608   21.0097   47.7047 C   0  0  0  0  0  0  0  0  0  0  0  0
   56.9954   20.6225   47.2989 C   0  0  0  0  0  0  0  0  0  0  0  0
  1  2  2  0
  2  3  1  0
  3  4  1  0
  4  5  2  0
  5  6  1  0
  6  7  2  0
  7  8  1  0
  8 10  1  0
 10 11  2  0
 10 12  2  0
 10 13  1  0
 13 14  1  0
 14 15  1  0
 15 16  1  0
 16 17  1  0
  8  9  2  0
  2 18  1  0
 18 19  1  0
 19 20  2  0
 20 21  1  0
 21 26  1  0
 26 27  2  0
 26 28  2  0
 26 29  1  0
 29 30  1  0
 30 31  1  0
 31 32  1  0
 32 33  1  0
 33 34  1  0
 21 22  2  0
 22 23  1  0
 23 24  2  0
 24 25  1  0
  9  4  1  0
 24 19  1  0
 17 13  1  0
 34 29  1  0
M  CHG 1   3  -1
M  CHG 1  18  -1
M  CHG 1  25  -1
M  END
> <UniqueID>
48

> <SMILES>
O=C([N-]c1cccc(S(=O)(=O)N2CCCC2)c1)[N-]c1cc(S(=O)(=O)N2CCOCC2)ccc1[O-]

> <Energy>
81.0606211522061

> <Genealogy>
O=C([N-]c1cccc(S(=O)(=O)N2CCCC2)c1)[N-]c1cc(S(=O)(=O)N2CCOCC2)ccc1[O-] (protonated)
O=C([N-]c1cccc(S(=O)(=O)N2CCCC2)c1)[N-]c1cc(S(=O)(=O)N2CCOCC2)ccc1[O-] (3D coordinates assigned)
O=C([N-]c1cccc(S(=O)(=O)N2CCCC2)c1)[N-]c1cc(S(=O)(=O)N2CCOCC2)ccc1[O-] (nonaromatic ring conformer: 81.0606211522061 kcal/mol)

> <smiles>
O=C(Nc1cccc(S(=O)(=O)N2CCCC2)c1)Nc1cc(S(=O)(=O)N2CCOCC2)ccc1O

> <score_type>
oracle

> <origin>
adg

> <m_score__min__energy>
-17.609999999999999

> <m_primary>
energy

> <minimizedAffinity>
-6.74328

> <minimizedRMSD>
0.52073

> <CNNscore>
0.1327531338

> <CNNaffinity>
6.1569824219

> <CNN_VS>
0.8173587322

> <CNNaffinity_variance>
0.0002518663

$$$$
59:0


 28 30  0  0  0  0  0  0  0  0999 V2000
   60.0206   30.2200   46.2810 C   0  0  0  0  0  0  0  0  0  0  0  0
   60.7828   30.7112   47.3538 C   0  0  0  0  0  0  0  0  0  0  0  0
   60.2463   31.8483   47.9337 C   0  0  0  0  0  0  0  0  0  0  0  0
   58.8438   32.2736   47.1195 S   0  0  0  0  0  0  0  0  0  0  0  0
   58.8810   31.0007   46.0162 C   0  0  0  0  0  0  0  0  0  0  0  0
   60.9852   32.7727   49.2272 S   0  0  0  0  0  0  0  0  0  0  0  0
   60.2197   34.0556   49.3904 O   0  0  0  0  0  0  0  0  0  0  0  0
   62.4029   33.1037   48.8521 O   0  0  0  0  0  0  0  0  0  0  0  0
   60.9464   31.8761   50.7318 N   0  0  0  0  0  0  0  0  0  0  0  0
   59.7264   32.1518   51.5159 C   0  0  0  0  0  0  0  0  0  0  0  0
   58.4700   31.4939   50.9144 C   0  0  0  0  0  0  0  0  0  0  0  0
   58.7344   30.0773   50.3689 C   0  0  0  0  0  0  0  0  0  0  0  0
   60.0544   29.5038   50.8804 C   0  0  0  0  0  0  0  0  0  0  0  0
   61.2297   30.4338   50.5228 C   0  0  0  0  0  0  0  0  0  0  0  0
   57.8690   30.8203   44.9599 C   0  0  0  0  0  0  0  0  0  0  0  0
   58.0446   31.2757   43.8008 O   0  0  0  0  0  0  0  0  0  0  0  0
   56.6958   30.1304   45.2430 O   0  0  0  0  0  0  0  0  0  0  0  0
   60.4806   29.0412   45.4670 C   0  0  0  0  0  0  0  0  0  0  0  0
   57.5619   26.3577   45.5445 C   0  0  0  0  0  0  0  0  0  0  0  0
   57.8175   26.6828   44.2202 C   0  0  0  0  0  0  0  0  0  0  0  0
   58.8337   27.6336   44.0772 C   0  0  0  0  0  0  0  0  0  0  0  0
   59.3680   28.0531   45.2935 C   0  0  0  0  0  0  0  0  0  0  0  0
   58.5919   27.2326   46.5433 S   0  0  0  0  0  0  0  0  0  0  0  0
   54.7880   25.8364   45.9067 N   0  0  0  0  0  0  0  0  0  0  0  0
   56.3783   25.1893   46.1004 S   0  0  0  0  0  0  0  0  0  0  0  0
   56.6210   24.8791   47.5505 O   0  0  0  0  0  0  0  0  0  0  0  0
   56.5093   23.9232   45.3029 O   0  0  0  0  0  0  0  0  0  0  0  0
   54.1018   25.1549   46.2307 H   0  0  0  0  0  0  0  0  0  0  0  0
 24 25  1  0
 25 26  2  0
 25 27  2  0
 25 19  1  0
 19 20  2  0
 20 21  1  0
 21 22  2  0
 22 18  1  0
 18  1  1  0
  1  2  1  0
  2  3  2  0
  3  6  1  0
  6  7  2  0
  6  8  2  0
  6  9  1  0
  9 10  1  0
 10 11  1  0
 11 12  1  0
 12 13  1  0
 13 14  1  0
  3  4  1  0
  4  5  1  0
  5 15  1  0
 15 16  2  0
 15 17  1  0
 22 23  1  0
 23 19  1  0
  5  1  2  0
 14  9  1  0
 24 28  1  0
M  CHG 1  17  -1
M  CHG 1  24  -1
M  END
> <UniqueID>
58

> <SMILES>
[NH-]S(=O)(=O)c1ccc(Cc2cc(S(=O)(=O)N3CCCCC3)sc2C(=O)[O-])s1

> <Energy>
101.14220222011909

> <Genealogy>
[NH-]S(=O)(=O)c1ccc(Cc2cc(S(=O)(=O)N3CCCCC3)sc2C(=O)[O-])s1 (protonated)
[NH-]S(=O)(=O)c1ccc(Cc2cc(S(=O)(=O)N3CCCCC3)sc2C(=O)[O-])s1 (3D coordinates assigned)
[NH-]S(=O)(=O)c1ccc(Cc2cc(S(=O)(=O)N3CCCCC3)sc2C(=O)[O-])s1 (nonaromatic ring conformer: 101.14220222011909 kcal/mol)

> <smiles>
NS(=O)(=O)c1ccc(Cc2cc(S(=O)(=O)N3CCCCC3)sc2C(=O)O)s1

> <score_type>
oracle

> <origin>
adg

> <m_score__min__energy>
-14.01

> <m_primary>
energy

> <minimizedAffinity>
-7.65945

> <minimizedRMSD>
1.48407

> <CNNscore>
0.7524157763

> <CNNaffinity>
7.0738902092

> <CNN_VS>
5.3225064278

> <CNNaffinity_variance>
0.1512390226

$$$$
60:0


 33 37  0  0  0  0  0  0  0  0999 V2000
   59.6605   30.2360   47.0262 C   0  0  0  0  0  0  0  0  0  0  0  0
   59.0123   30.9511   48.0429 C   0  0  0  0  0  0  0  0  0  0  0  0
   59.7364   31.8263   48.8603 C   0  0  0  0  0  0  0  0  0  0  0  0
   61.1154   32.0133   48.6568 C   0  0  0  0  0  0  0  0  0  0  0  0
   61.7582   31.2868   47.6389 C   0  0  0  0  0  0  0  0  0  0  0  0
   61.0363   30.4087   46.8309 C   0  0  0  0  0  0  0  0  0  0  0  0
   59.1909   27.3377   47.4445 C   0  0  0  0  0  0  0  0  0  0  0  0
   58.8185   27.9860   46.3289 C   0  0  0  0  0  0  0  0  0  0  0  0
   58.1004   27.4584   45.2462 C   0  0  0  0  0  0  0  0  0  0  0  0
   57.8620   26.1793   44.8885 C   0  0  0  0  0  0  0  0  0  0  0  0
   57.6858   28.5437   44.4899 C   0  0  0  0  0  0  0  0  0  0  0  0
   58.2368   29.6680   45.0673 C   0  0  0  0  0  0  0  0  0  0  0  0
   58.0853   31.0575   44.5264 C   0  0  0  0  0  0  0  0  0  0  0  0
   58.9238   29.3325   46.1837 N   0  0  0  0  0  0  0  0  0  0  0  0
   57.3360   25.1293   45.7755 C   0  0  0  0  0  0  0  0  0  0  0  0
   57.9879   23.9928   46.0821 N   0  0  0  0  0  0  0  0  0  0  0  0
   57.0692   23.2853   46.7645 C   0  0  0  0  0  0  0  0  0  0  0  0
   57.3147   22.1481   47.2397 O   0  0  0  0  0  0  0  0  0  0  0  0
   55.8660   23.8856   46.8876 N   0  0  0  0  0  0  0  0  0  0  0  0
   56.0503   25.0463   46.2464 C   0  0  0  0  0  0  0  0  0  0  0  0
   55.0582   26.0072   46.0857 O   0  0  0  0  0  0  0  0  0  0  0  0
   61.9132   32.9347   49.5064 C   0  0  0  0  0  0  0  0  0  0  0  0
   61.4599   34.0926   49.7294 O   0  0  0  0  0  0  0  0  0  0  0  0
   63.1271   32.5029   50.1716 N   0  0  0  0  0  0  0  0  0  0  0  0
   62.9921   32.7027   51.6337 C   0  0  0  0  0  0  0  0  0  0  0  0
   64.3318   32.9708   52.3404 C   0  0  0  0  0  0  0  0  0  0  0  0
   65.4648   32.3061   51.6814 N   0  0  0  0  0  0  0  0  0  0  0  0
   65.6099   32.7029   50.2605 C   0  0  0  0  0  0  0  0  0  0  0  0
   64.2967   33.2032   49.6139 C   0  0  0  0  0  0  0  0  0  0  0  0
   63.0830   32.2563   51.1237 H   0  0  0  0  0  0  0  0  0  0  0  0
   65.4058   30.8451   51.8387 C   0  0  0  0  0  0  0  0  0  0  0  0
   66.7231   30.2595   52.3247 C   0  0  0  0  0  0  0  0  0  0  0  0
   65.5458   30.3635   53.2749 C   0  0  0  0  0  0  0  0  0  0  0  0
  7  8  2  0
  8  9  1  0
  9 10  2  0
 10 15  1  0
 15 16  1  0
 16 17  1  0
 17 18  2  0
 17 19  1  0
 19 20  1  0
 20 21  1  0
  9 11  1  0
 11 12  2  0
 12 13  1  0
 12 14  1  0
 14  1  1  0
  1  2  2  0
  2  3  1  0
  3  4  2  0
  4 22  1  0
 22 23  2  0
 22 24  1  0
 24 25  1  0
 25 26  1  0
 26 27  1  0
 27 31  1  0
 31 32  1  0
 32 33  1  0
 27 28  1  0
 28 29  1  0
  4  5  1  0
  5  6  2  0
 14  8  1  0
  6  1  1  0
 20 15  2  0
 29 24  1  0
 33 31  1  0
 24 30  1  0
M  CHG 1  16  -1
M  CHG 1  19  -1
M  CHG 1  21  -1
M  CHG 1  24   1
M  END
> <UniqueID>
59

> <SMILES>
C=c1c(=Cc2[n-]c(=O)[n-]c2[O-])cc(C)n1-c1ccc(C(=O)[NH+]2CCN(C3CC3)CC2)cc1

> <Energy>
417.8910329738411

> <Genealogy>
C=c1c(=Cc2[n-]c(=O)[n-]c2[O-])cc(C)n1-c1ccc(C(=O)[NH+]2CCN(C3CC3)CC2)cc1 (protonated)
C=c1c(=Cc2[n-]c(=O)[n-]c2[O-])cc(C)n1-c1ccc(C(=O)[NH+]2CCN(C3CC3)CC2)cc1 (3D coordinates assigned)
C=c1c(=Cc2[n-]c(=O)[n-]c2[O-])cc(C)n1-c1ccc(C(=O)[NH+]2CCN(C3CC3)CC2)cc1 (nonaromatic ring conformer: 417.8910329738411 kcal/mol)

> <smiles>
C=c1c(=Cc2[nH]c(=O)[nH]c2O)cc(C)n1-c1ccc(C(=O)N2CCN(C3CC3)CC2)cc1

> <score_type>
oracle

> <origin>
adg

> <m_score__min__energy>
-15.710000000000001

> <m_primary>
energy

> <minimizedAffinity>
-8.25021

> <minimizedRMSD>
1.05553

> <CNNscore>
0.1508108974

> <CNNaffinity>
6.6357636452

> <CNN_VS>
1.0007454157

> <CNNaffinity_variance>
0.1498419642

$$$$
73:0


 30 33  0  0  0  0  0  0  0  0999 V2000
   57.6230   28.3716   44.1848 C   0  0  0  0  0  0  0  0  0  0  0  0
   58.3755   28.1958   45.2808 C   0  0  0  0  0  0  0  0  0  0  0  0
   58.7478   26.9716   45.8463 C   0  0  0  0  0  0  0  0  0  0  0  0
   58.4434   25.7379   45.3965 C   0  0  0  0  0  0  0  0  0  0  0  0
   59.5566   27.2742   46.9342 C   0  0  0  0  0  0  0  0  0  0  0  0
   59.6285   28.6503   47.0033 C   0  0  0  0  0  0  0  0  0  0  0  0
   60.4256   29.4094   48.0207 C   0  0  0  0  0  0  0  0  0  0  0  0
   58.9199   29.2115   45.9986 N   0  0  0  0  0  0  0  0  0  0  0  0
   57.5384   24.8062   46.0927 C   0  0  0  0  0  0  0  0  0  0  0  0
   57.8909   23.5549   46.4350 N   0  0  0  0  0  0  0  0  0  0  0  0
   56.7569   23.0411   46.9590 C   0  0  0  0  0  0  0  0  0  0  0  0
   56.6898   21.8692   47.4141 O   0  0  0  0  0  0  0  0  0  0  0  0
   55.6975   23.8789   46.9489 N   0  0  0  0  0  0  0  0  0  0  0  0
   56.2038   24.9868   46.3858 C   0  0  0  0  0  0  0  0  0  0  0  0
   55.4481   26.1194   46.1036 O   0  0  0  0  0  0  0  0  0  0  0  0
   58.7744   30.6238   45.7598 C   0  0  0  0  0  0  0  0  0  0  0  0
   58.0506   31.0790   44.6504 C   0  0  0  0  0  0  0  0  0  0  0  0
   57.9022   32.4501   44.4244 C   0  0  0  0  0  0  0  0  0  0  0  0
   58.4651   33.3718   45.3094 C   0  0  0  0  0  0  0  0  0  0  0  0
   59.1785   32.9299   46.4374 C   0  0  0  0  0  0  0  0  0  0  0  0
   59.3397   31.5498   46.6479 C   0  0  0  0  0  0  0  0  0  0  0  0
   59.7851   33.9018   47.3763 C   0  0  0  0  0  0  0  0  0  0  0  0
   59.3524   35.0866   47.3972 O   0  0  0  0  0  0  0  0  0  0  0  0
   60.8693   33.5288   48.2496 N   0  0  0  0  0  0  0  0  0  0  0  0
   60.6325   33.3116   49.6852 C   0  0  0  0  0  0  0  0  0  0  0  0
   61.4467   32.1500   50.1893 C   0  0  0  0  0  0  0  0  0  0  0  0
   62.6678   31.8999   49.6944 C   0  0  0  0  0  0  0  0  0  0  0  0
   63.2702   32.7674   48.6192 C   0  0  0  0  0  0  0  0  0  0  0  0
   62.1982   33.3251   47.7276 C   0  0  0  0  0  0  0  0  0  0  0  0
   62.4838   33.6566   46.5464 O   0  0  0  0  0  0  0  0  0  0  0  0
  1  2  2  0
  2  3  1  0
  3  4  2  0
  4  9  1  0
  9 10  1  0
 10 11  1  0
 11 12  2  0
 11 13  1  0
 13 14  1  0
 14 15  1  0
  3  5  1  0
  5  6  2  0
  6  7  1  0
  6  8  1  0
  8 16  1  0
 16 17  2  0
 17 18  1  0
 18 19  2  0
 19 20  1  0
 20 22  1  0
 22 23  2  0
 22 24  1  0
 24 25  1  0
 25 26  1  0
 26 27  2  0
 27 28  1  0
 28 29  1  0
 29 30  2  0
 20 21  2  0
  8  2  1  0
 21 16  1  0
 14  9  2  0
 29 24  1  0
M  CHG 1  10  -1
M  CHG 1  13  -1
M  CHG 1  15  -1
M  END
> <UniqueID>
70

> <SMILES>
C=c1c(=Cc2[n-]c(=O)[n-]c2[O-])cc(C)n1-c1cccc(C(=O)N2CC=CCC2=O)c1

> <Energy>
128.149022318261

> <Genealogy>
C=c1c(=Cc2[n-]c(=O)[n-]c2[O-])cc(C)n1-c1cccc(C(=O)N2CC=CCC2=O)c1 (protonated)
C=c1c(=Cc2[n-]c(=O)[n-]c2[O-])cc(C)n1-c1cccc(C(=O)N2CC=CCC2=O)c1 (3D coordinates assigned)
C=c1c(=Cc2[n-]c(=O)[n-]c2[O-])cc(C)n1-c1cccc(C(=O)N2CC=CCC2=O)c1 (nonaromatic ring conformer: 128.149022318261 kcal/mol)

> <smiles>
C=c1c(=Cc2[nH]c(=O)[nH]c2O)cc(C)n1-c1cccc(C(=O)N2CC=CCC2=O)c1

> <score_type>
oracle

> <origin>
adg

> <m_score__min__energy>
-17.219999999999999

> <m_primary>
energy

> <minimizedAffinity>
-10.26950

> <minimizedRMSD>
1.00725

> <CNNscore>
0.5494323969

> <CNNaffinity>
7.1716132164

> <CNN_VS>
3.9403166771

> <CNNaffinity_variance>
0.0453847237

$$$$
80:0


 40 45  0  0  0  0  0  0  0  0999 V2000
   59.2012   29.8087   46.9481 C   0  0  0  0  0  0  0  0  0  0  0  0
   59.0245   29.7531   48.3354 C   0  0  0  0  0  0  0  0  0  0  0  0
   59.4680   30.8047   49.1412 C   0  0  0  0  0  0  0  0  0  0  0  0
   60.1034   31.9224   48.5675 C   0  0  0  0  0  0  0  0  0  0  0  0
   60.2610   31.9769   47.1702 C   0  0  0  0  0  0  0  0  0  0  0  0
   59.8131   30.9267   46.3682 C   0  0  0  0  0  0  0  0  0  0  0  0
   60.5845   33.0372   49.4152 C   0  0  0  0  0  0  0  0  0  0  0  0
   60.0364   34.1717   49.3152 O   0  0  0  0  0  0  0  0  0  0  0  0
   61.6640   32.8544   50.3492 N   0  0  0  0  0  0  0  0  0  0  0  0
   62.8601   32.1468   49.9558 C   0  0  0  0  0  0  0  0  0  0  0  0
   63.0024   31.6826   48.7933 O   0  0  0  0  0  0  0  0  0  0  0  0
   63.9230   32.0125   50.9443 C   0  0  0  0  0  0  0  0  0  0  0  0
   65.0921   31.3612   50.7694 N   0  0  0  0  0  0  0  0  0  0  0  0
   65.7403   31.5655   51.9402 C   0  0  0  0  0  0  0  0  0  0  0  0
   64.9706   32.3570   52.7763 C   0  0  0  0  0  0  0  0  0  0  0  0
   63.8157   32.6047   52.1386 N   0  0  0  0  0  0  0  0  0  0  0  0
   62.7309   33.5068   52.5164 C   0  0  0  0  0  0  0  0  0  0  0  0
   61.4323   33.1032   51.7878 C   0  0  0  0  0  0  0  0  0  0  0  0
   67.1100   31.0846   52.1968 C   0  0  0  0  0  0  0  0  0  0  0  0
   68.0499   31.9214   52.1795 O   0  0  0  0  0  0  0  0  0  0  0  0
   67.4043   29.6961   52.4435 N   0  0  0  0  0  0  0  0  0  0  0  0
   68.6636   29.2620   53.0216 C   0  0  0  0  0  0  0  0  0  0  0  0
   68.8106   27.7944   52.6492 C   0  0  0  0  0  0  0  0  0  0  0  0
   67.4251   27.3329   52.2128 C   0  0  0  0  0  0  0  0  0  0  0  0
   66.6635   28.5973   51.8458 C   0  0  0  0  0  0  0  0  0  0  0  0
   60.0288   26.9783   47.1366 C   0  0  0  0  0  0  0  0  0  0  0  0
   59.1148   27.4087   46.2561 C   0  0  0  0  0  0  0  0  0  0  0  0
   58.4945   26.6681   45.2357 C   0  0  0  0  0  0  0  0  0  0  0  0
   58.4623   25.3415   44.9989 C   0  0  0  0  0  0  0  0  0  0  0  0
   57.8373   27.5869   44.4323 C   0  0  0  0  0  0  0  0  0  0  0  0
   58.0137   28.8245   45.0154 C   0  0  0  0  0  0  0  0  0  0  0  0
   57.4631   30.1140   44.4883 C   0  0  0  0  0  0  0  0  0  0  0  0
   58.7770   28.7156   46.1228 N   0  0  0  0  0  0  0  0  0  0  0  0
   57.2699   24.4797   45.0625 C   0  0  0  0  0  0  0  0  0  0  0  0
   57.2019   23.2196   44.5941 N   0  0  0  0  0  0  0  0  0  0  0  0
   55.9862   22.8008   45.0037 C   0  0  0  0  0  0  0  0  0  0  0  0
   55.5393   21.6548   44.7417 O   0  0  0  0  0  0  0  0  0  0  0  0
   55.2916   23.7005   45.7316 N   0  0  0  0  0  0  0  0  0  0  0  0
   56.1263   24.7516   45.7736 C   0  0  0  0  0  0  0  0  0  0  0  0
   55.8531   25.9321   46.4511 O   0  0  0  0  0  0  0  0  0  0  0  0
 26 27  2  0
 27 28  1  0
 28 29  2  0
 29 34  1  0
 34 35  1  0
 35 36  1  0
 36 37  2  0
 36 38  1  0
 38 39  1  0
 39 40  1  0
 28 30  1  0
 30 31  2  0
 31 32  1  0
 31 33  1  0
 33  1  1  0
  1  2  2  0
  2  3  1  0
  3  4  2  0
  4  7  1  0
  7  8  2  0
  7  9  1  0
  9 10  1  0
 10 11  2  0
 10 12  1  0
 12 13  2  0
 13 14  1  0
 14 19  1  0
 19 20  2  0
 19 21  1  0
 21 22  1  0
 22 23  1  0
 23 24  1  0
 24 25  1  0
 14 15  2  0
 15 16  1  0
 16 17  1  0
 17 18  1  0
  4  5  1  0
  5  6  2  0
 33 27  1  0
  6  1  1  0
 39 34  2  0
 18  9  1  0
 16 12  1  0
 25 21  1  0
M  CHG 1  35  -1
M  CHG 1  38  -1
M  CHG 1  40  -1
M  END
> <UniqueID>
77

> <SMILES>
C=c1/c(=C\c2[n-]c(=O)[n-]c2[O-])cc(C)n1-c1ccc(C(=O)N2CCn3cc(C(=O)N4CCCC4)nc3C2=O)cc1

> <Energy>
186.79158539047742

> <Genealogy>
C=c1c(=Cc2[n-]c(=O)[n-]c2[O-])cc(C)n1-c1ccc(C(=O)N2CCn3cc(C(=O)N4CCCC4)nc3C2=O)cc1 (protonated)
C=c1/c(=C\c2[n-]c(=O)[n-]c2[O-])cc(C)n1-c1ccc(C(=O)N2CCn3cc(C(=O)N4CCCC4)nc3C2=O)cc1 (cis-trans isomerization)
C=c1/c(=C\c2[n-]c(=O)[n-]c2[O-])cc(C)n1-c1ccc(C(=O)N2CCn3cc(C(=O)N4CCCC4)nc3C2=O)cc1 (3D coordinates assigned)
C=c1/c(=C\c2[n-]c(=O)[n-]c2[O-])cc(C)n1-c1ccc(C(=O)N2CCn3cc(C(=O)N4CCCC4)nc3C2=O)cc1 (nonaromatic ring conformer: 186.79158539047742 kcal/mol)

> <smiles>
C=c1c(=Cc2[nH]c(=O)[nH]c2O)cc(C)n1-c1ccc(C(=O)N2CCn3cc(C(=O)N4CCCC4)nc3C2=O)cc1

> <score_type>
oracle

> <origin>
adg

> <m_score__min__energy>
-16.75

> <m_primary>
energy

> <minimizedAffinity>
-9.27657

> <minimizedRMSD>
1.01396

> <CNNscore>
0.1199902147

> <CNNaffinity>
6.8734984398

> <CNN_VS>
0.8247525692

> <CNNaffinity_variance>
0.0663315728

$$$$
87:0


 29 31  0  0  0  0  0  0  0  0999 V2000
   59.2235   32.8299   48.2987 C   0  0  0  0  0  0  0  0  0  0  0  0
   60.0997   33.7298   48.8750 C   0  0  0  0  0  0  0  0  0  0  0  0
   60.2365   33.4381   50.1807 N   0  0  0  0  0  0  0  0  0  0  0  0
   59.4372   32.3683   50.3570 C   0  0  0  0  0  0  0  0  0  0  0  0
   58.8033   31.9638   49.2384 N   0  0  0  0  0  0  0  0  0  0  0  0
   57.8727   31.5777   44.9644 C   0  0  0  0  0  0  0  0  0  0  0  0
   57.9524   32.7435   44.1953 C   0  0  0  0  0  0  0  0  0  0  0  0
   58.4426   33.9232   44.7570 C   0  0  0  0  0  0  0  0  0  0  0  0
   58.8555   33.9469   46.0906 C   0  0  0  0  0  0  0  0  0  0  0  0
   58.7822   32.7860   46.8823 C   0  0  0  0  0  0  0  0  0  0  0  0
   58.2846   31.5998   46.3050 C   0  0  0  0  0  0  0  0  0  0  0  0
   55.7391   29.6922   44.9986 N   0  0  0  0  0  0  0  0  0  0  0  0
   57.2365   30.1034   44.2406 S   0  0  0  0  0  0  0  0  0  0  0  0
   58.2072   28.9686   44.4181 O   0  0  0  0  0  0  0  0  0  0  0  0
   57.0129   30.3255   42.7719 O   0  0  0  0  0  0  0  0  0  0  0  0
   55.3695   28.8385   44.5803 H   0  0  0  0  0  0  0  0  0  0  0  0
   59.2332   31.5551   51.9403 S   0  0  0  0  0  0  0  0  0  0  0  0
   57.4703   31.9956   52.1098 C   0  0  0  0  0  0  0  0  0  0  0  0
   56.6086   30.7646   52.1550 C   0  0  0  0  0  0  0  0  0  0  0  0
   57.0531   29.6924   51.6667 O   0  0  0  0  0  0  0  0  0  0  0  0
   55.2812   30.7781   52.6942 N   0  0  0  0  0  0  0  0  0  0  0  0
   54.0499   30.5391   51.9456 C   0  0  0  0  0  0  0  0  0  0  0  0
   52.8419   30.6883   52.8353 C   0  0  0  0  0  0  0  0  0  0  0  0
   52.8572   30.1607   54.1389 C   0  0  0  0  0  0  0  0  0  0  0  0
   51.7468   30.3050   54.9747 C   0  0  0  0  0  0  0  0  0  0  0  0
   50.6141   30.9855   54.5219 C   0  0  0  0  0  0  0  0  0  0  0  0
   50.5912   31.5257   53.2322 C   0  0  0  0  0  0  0  0  0  0  0  0
   51.6996   31.3850   52.3904 C   0  0  0  0  0  0  0  0  0  0  0  0
   51.6595   31.9416   51.1162 O   0  0  0  0  0  0  0  0  0  0  0  0
 12 13  1  0
 13 14  2  0
 13 15  2  0
 13  6  1  0
  6  7  2  0
  7  8  1  0
  8  9  2  0
  9 10  1  0
 10  1  1  0
  1  2  2  0
  2  3  1  0
  3  4  2  0
  4 17  1  0
 17 18  1  0
 18 19  1  0
 19 20  2  0
 19 21  1  0
 21 22  1  0
 22 23  1  0
 23 24  2  0
 24 25  1  0
 25 26  2  0
 26 27  1  0
 27 28  2  0
 28 29  1  0
  4  5  1  0
 10 11  2  0
 11  6  1  0
  5  1  1  0
 28 23  1  0
 12 16  1  0
M  CHG 1   5  -1
M  CHG 1  12  -1
M  CHG 1  21  -1
M  CHG 1  29  -1
M  END
> <UniqueID>
82

> <SMILES>
[NH-]S(=O)(=O)c1cccc(-c2cnc(SCC(=O)[N-]Cc3ccccc3[O-])[n-]2)c1

> <Energy>
68.00285763082748

> <Genealogy>
[NH-]S(=O)(=O)c1cccc(-c2cnc(SCC(=O)[N-]Cc3ccccc3[O-])[n-]2)c1 (protonated)
[NH-]S(=O)(=O)c1cccc(-c2cnc(SCC(=O)[N-]Cc3ccccc3[O-])[n-]2)c1 (3D coordinates assigned)
[NH-]S(=O)(=O)c1cccc(-c2cnc(SCC(=O)[N-]Cc3ccccc3[O-])[n-]2)c1 (optimized conformer: 68.00285763082748 kcal/mol)

> <smiles>
NS(=O)(=O)c1cccc(-c2cnc(SCC(=O)NCc3ccccc3O)[nH]2)c1

> <score_type>
oracle

> <origin>
adg

> <m_score__min__energy>
-18.239999999999998

> <m_primary>
energy

> <minimizedAffinity>
-8.01013

> <minimizedRMSD>
0.80364

> <CNNscore>
0.8224082589

> <CNNaffinity>
6.5816917419

> <CNN_VS>
5.4128375053

> <CNNaffinity_variance>
0.0237487946

$$$$
88:0


 29 32  0  0  0  0  0  0  0  0999 V2000
   60.3191   26.6454   46.5611 C   0  0  0  0  0  0  0  0  0  0  0  0
   59.4275   27.3711   45.8649 C   0  0  0  0  0  0  0  0  0  0  0  0
   58.2746   26.8840   45.2277 C   0  0  0  0  0  0  0  0  0  0  0  0
   57.8778   25.6257   44.9514 C   0  0  0  0  0  0  0  0  0  0  0  0
   57.5326   27.9937   44.8656 C   0  0  0  0  0  0  0  0  0  0  0  0
   58.2766   29.1024   45.2089 C   0  0  0  0  0  0  0  0  0  0  0  0
   57.8213   30.5158   45.0041 C   0  0  0  0  0  0  0  0  0  0  0  0
   59.4323   28.7344   45.8130 N   0  0  0  0  0  0  0  0  0  0  0  0
   57.2205   24.7070   45.8960 C   0  0  0  0  0  0  0  0  0  0  0  0
   57.7441   23.5422   46.3243 N   0  0  0  0  0  0  0  0  0  0  0  0
   56.7404   22.9969   47.0460 C   0  0  0  0  0  0  0  0  0  0  0  0
   56.8527   21.8903   47.6331 O   0  0  0  0  0  0  0  0  0  0  0  0
   55.6049   23.7280   47.0801 N   0  0  0  0  0  0  0  0  0  0  0  0
   55.9229   24.7976   46.3351 C   0  0  0  0  0  0  0  0  0  0  0  0
   55.0417   25.8360   46.0574 O   0  0  0  0  0  0  0  0  0  0  0  0
   60.4319   29.6651   46.3619 C   0  0  0  0  0  0  0  0  0  0  0  0
   60.0973   30.0370   47.7847 C   0  0  0  0  0  0  0  0  0  0  0  0
   59.4523   31.2515   48.0692 C   0  0  0  0  0  0  0  0  0  0  0  0
   59.1497   31.5979   49.3887 C   0  0  0  0  0  0  0  0  0  0  0  0
   59.4819   30.7326   50.4429 C   0  0  0  0  0  0  0  0  0  0  0  0
   60.1256   29.5202   50.1601 C   0  0  0  0  0  0  0  0  0  0  0  0
   60.4273   29.1726   48.8407 C   0  0  0  0  0  0  0  0  0  0  0  0
   59.1840   31.0915   51.8026 N   0  0  0  0  0  0  0  0  0  0  0  0
   60.0551   32.0758   52.4619 C   0  0  0  0  0  0  0  0  0  0  0  0
   59.9134   32.0365   53.9845 C   0  0  0  0  0  0  0  0  0  0  0  0
   58.4417   32.1470   54.3795 C   0  0  0  0  0  0  0  0  0  0  0  0
   57.6542   30.9461   53.8575 C   0  0  0  0  0  0  0  0  0  0  0  0
   57.9378   30.6781   52.4064 C   0  0  0  0  0  0  0  0  0  0  0  0
   57.1074   29.9972   51.7447 O   0  0  0  0  0  0  0  0  0  0  0  0
  1  2  2  0
  2  3  1  0
  3  4  2  0
  4  9  1  0
  9 10  1  0
 10 11  1  0
 11 12  2  0
 11 13  1  0
 13 14  1  0
 14 15  1  0
  3  5  1  0
  5  6  2  0
  6  7  1  0
  6  8  1  0
  8 16  1  0
 16 17  1  0
 17 18  2  0
 18 19  1  0
 19 20  2  0
 20 23  1  0
 23 24  1  0
 24 25  1  0
 25 26  1  0
 26 27  1  0
 27 28  1  0
 28 29  2  0
 20 21  1  0
 21 22  2  0
  8  2  1  0
 22 17  1  0
 14  9  2  0
 28 23  1  0
M  CHG 1  10  -1
M  CHG 1  13  -1
M  CHG 1  15  -1
M  END
> <UniqueID>
83

> <SMILES>
C=c1c(=Cc2[n-]c(=O)[n-]c2[O-])cc(C)n1Cc1ccc(N2CCCCC2=O)cc1

> <Energy>
125.02839034948482

> <Genealogy>
C=c1c(=Cc2[n-]c(=O)[n-]c2[O-])cc(C)n1Cc1ccc(N2CCCCC2=O)cc1 (protonated)
C=c1c(=Cc2[n-]c(=O)[n-]c2[O-])cc(C)n1Cc1ccc(N2CCCCC2=O)cc1 (3D coordinates assigned)
C=c1c(=Cc2[n-]c(=O)[n-]c2[O-])cc(C)n1Cc1ccc(N2CCCCC2=O)cc1 (nonaromatic ring conformer: 125.02839034948482 kcal/mol)

> <smiles>
C=c1c(=Cc2[nH]c(=O)[nH]c2O)cc(C)n1Cc1ccc(N2CCCCC2=O)cc1

> <score_type>
oracle

> <origin>
adg

> <m_score__min__energy>
-17.219999999999999

> <m_primary>
energy

> <minimizedAffinity>
-8.24171

> <minimizedRMSD>
1.18014

> <CNNscore>
0.2703697383

> <CNNaffinity>
6.3461661339

> <CNN_VS>
1.7158112526

> <CNNaffinity_variance>
0.0026778507

$$$$
6:0


 29 32  0  0  0  0  0  0  0  0999 V2000
   58.2500   30.0285   44.6802 C   0  0  0  0  0  0  0  0  0  0  0  0
   58.4888   29.4593   45.8718 C   0  0  0  0  0  0  0  0  0  0  0  0
   58.2183   28.1350   46.2303 C   0  0  0  0  0  0  0  0  0  0  0  0
   57.6637   27.1768   45.4630 C   0  0  0  0  0  0  0  0  0  0  0  0
   58.5863   28.0062   47.5635 C   0  0  0  0  0  0  0  0  0  0  0  0
   59.0784   29.2350   47.9573 C   0  0  0  0  0  0  0  0  0  0  0  0
   59.5652   29.5514   49.3385 C   0  0  0  0  0  0  0  0  0  0  0  0
   59.0152   30.1192   46.9355 N   0  0  0  0  0  0  0  0  0  0  0  0
   57.4250   25.7917   45.9312 C   0  0  0  0  0  0  0  0  0  0  0  0
   56.1196   25.3572   46.2030 C   0  0  0  0  0  0  0  0  0  0  0  0
   55.0415   26.2273   46.0717 O   0  0  0  0  0  0  0  0  0  0  0  0
   55.8987   24.0813   46.6086 N   0  0  0  0  0  0  0  0  0  0  0  0
   56.9248   23.2013   46.7447 C   0  0  0  0  0  0  0  0  0  0  0  0
   56.6960   22.0241   47.1267 O   0  0  0  0  0  0  0  0  0  0  0  0
   58.1943   23.5891   46.4617 N   0  0  0  0  0  0  0  0  0  0  0  0
   58.4670   24.8538   46.0513 C   0  0  0  0  0  0  0  0  0  0  0  0
   59.6535   25.1667   45.7641 O   0  0  0  0  0  0  0  0  0  0  0  0
   59.4296   31.4944   46.9875 C   0  0  0  0  0  0  0  0  0  0  0  0
   58.4948   32.5207   46.7996 C   0  0  0  0  0  0  0  0  0  0  0  0
   58.9038   33.8563   46.8281 C   0  0  0  0  0  0  0  0  0  0  0  0
   60.2459   34.1756   47.0539 C   0  0  0  0  0  0  0  0  0  0  0  0
   61.1910   33.1568   47.2651 C   0  0  0  0  0  0  0  0  0  0  0  0
   60.7773   31.8163   47.2091 C   0  0  0  0  0  0  0  0  0  0  0  0
   62.6098   33.5071   47.4973 C   0  0  0  0  0  0  0  0  0  0  0  0
   63.4342   33.3806   46.5533 O   0  0  0  0  0  0  0  0  0  0  0  0
   63.0777   34.0143   48.7534 N   0  0  0  0  0  0  0  0  0  0  0  0
   63.1468   33.2331   49.9819 C   0  0  0  0  0  0  0  0  0  0  0  0
   64.5583   32.7645   50.2873 C   0  0  0  0  0  0  0  0  0  0  0  0
   63.5248   31.7783   49.7673 C   0  0  0  0  0  0  0  0  0  0  0  0
  1  2  2  0
  2  3  1  0
  3  4  2  0
  4  9  1  0
  9 10  2  0
 10 11  1  0
 10 12  1  0
 12 13  1  0
 13 14  2  0
 13 15  1  0
 15 16  1  0
 16 17  2  0
  3  5  1  0
  5  6  2  0
  6  7  1  0
  6  8  1  0
  8 18  1  0
 18 19  2  0
 19 20  1  0
 20 21  2  0
 21 22  1  0
 22 24  1  0
 24 25  2  0
 24 26  1  0
 26 27  1  0
 27 28  1  0
 28 29  1  0
 22 23  2  0
  8  2  1  0
 23 18  1  0
 16  9  1  0
 29 27  1  0
M  CHG 1  11  -1
M  CHG 1  12  -1
M  CHG 1  15  -1
M  CHG 1  26  -1
M  END
> <UniqueID>
7

> <SMILES>
C=c1/c(=C/c2c([O-])[n-]c(=O)[n-]c2=O)cc(C)n1-c1cccc(C(=O)[N-]C2CC2)c1

> <Energy>
360.89070087129454

> <Genealogy>
C=c1c(=Cc2c([O-])[n-]c(=O)[n-]c2=O)cc(C)n1-c1cccc(C(=O)[N-]C2CC2)c1 (protonated)
C=c1/c(=C/c2c([O-])[n-]c(=O)[n-]c2=O)cc(C)n1-c1cccc(C(=O)[N-]C2CC2)c1 (cis-trans isomerization)
C=c1/c(=C/c2c([O-])[n-]c(=O)[n-]c2=O)cc(C)n1-c1cccc(C(=O)[N-]C2CC2)c1 (3D coordinates assigned)
C=c1/c(=C/c2c([O-])[n-]c(=O)[n-]c2=O)cc(C)n1-c1cccc(C(=O)[N-]C2CC2)c1 (nonaromatic ring conformer: 360.89070087129454 kcal/mol)

> <smiles>
C=c1c(=Cc2c(O)[nH]c(=O)[nH]c2=O)cc(C)n1-c1cccc(C(=O)NC2CC2)c1

> <score_type>
oracle

> <origin>
adg

> <m_score__min__energy>
-17.260000000000002

> <m_primary>
energy

> <minimizedAffinity>
-8.42128

> <minimizedRMSD>
0.70395

> <CNNscore>
0.3349707127

> <CNNaffinity>
6.9746565819

> <CNN_VS>
2.3363056183

> <CNNaffinity_variance>
0.1376708150

$$$$
8:0


 34 37  0  0  0  0  0  0  0  0999 V2000
   59.4011   28.8818   47.1758 C   0  0  0  0  0  0  0  0  0  0  0  0
   58.8236   29.3192   48.3747 C   0  0  0  0  0  0  0  0  0  0  0  0
   59.0249   30.6234   48.8255 C   0  0  0  0  0  0  0  0  0  0  0  0
   59.7910   31.5245   48.0701 C   0  0  0  0  0  0  0  0  0  0  0  0
   60.3672   31.0908   46.8645 C   0  0  0  0  0  0  0  0  0  0  0  0
   60.2056   29.7672   46.4240 C   0  0  0  0  0  0  0  0  0  0  0  0
   60.8574   29.3417   45.1384 C   0  0  0  0  0  0  0  0  0  0  0  0
   57.3522   28.0206   45.2218 C   0  0  0  0  0  0  0  0  0  0  0  0
   58.1874   27.1579   45.8226 C   0  0  0  0  0  0  0  0  0  0  0  0
   58.3040   25.7751   45.5940 C   0  0  0  0  0  0  0  0  0  0  0  0
   57.5840   24.9324   44.8267 C   0  0  0  0  0  0  0  0  0  0  0  0
   59.3899   25.3503   46.3427 C   0  0  0  0  0  0  0  0  0  0  0  0
   59.8775   26.4524   47.0083 C   0  0  0  0  0  0  0  0  0  0  0  0
   61.0560   26.4240   47.9361 C   0  0  0  0  0  0  0  0  0  0  0  0
   59.1360   27.5448   46.7147 N   0  0  0  0  0  0  0  0  0  0  0  0
   56.3420   24.2522   45.2182 C   0  0  0  0  0  0  0  0  0  0  0  0
   56.1838   22.9194   45.1792 N   0  0  0  0  0  0  0  0  0  0  0  0
   54.9629   22.7326   45.7298 C   0  0  0  0  0  0  0  0  0  0  0  0
   54.4415   21.5935   45.8527 O   0  0  0  0  0  0  0  0  0  0  0  0
   54.3488   23.8644   46.1431 N   0  0  0  0  0  0  0  0  0  0  0  0
   55.2428   24.8160   45.8269 C   0  0  0  0  0  0  0  0  0  0  0  0
   55.0664   26.1662   46.1041 O   0  0  0  0  0  0  0  0  0  0  0  0
   59.9789   32.9264   48.5125 C   0  0  0  0  0  0  0  0  0  0  0  0
   59.4229   33.8424   47.8490 O   0  0  0  0  0  0  0  0  0  0  0  0
   60.7830   33.2464   49.6783 N   0  0  0  0  0  0  0  0  0  0  0  0
   61.1605   32.0481   50.4587 C   0  0  0  0  0  0  0  0  0  0  0  0
   62.2689   31.1970   49.8107 C   0  0  0  0  0  0  0  0  0  0  0  0
   63.4712   31.9957   49.2636 C   0  0  0  0  0  0  0  0  0  0  0  0
   63.0641   33.3392   48.6077 C   0  0  0  0  0  0  0  0  0  0  0  0
   61.9461   34.0923   49.3470 C   0  0  0  0  0  0  0  0  0  0  0  0
   61.2985   33.7707   49.0236 H   0  0  0  0  0  0  0  0  0  0  0  0
   64.5834   32.0732   50.2590 N   0  0  0  0  0  0  0  0  0  0  0  0
   64.5453   31.0715   51.3363 C   0  0  0  0  0  0  0  0  0  0  0  0
   64.7157   33.4259   50.8320 C   0  0  0  0  0  0  0  0  0  0  0  0
  8  9  2  0
  9 10  1  0
 10 11  2  0
 11 16  1  0
 16 17  1  0
 17 18  1  0
 18 19  2  0
 18 20  1  0
 20 21  1  0
 21 22  1  0
 10 12  1  0
 12 13  2  0
 13 14  1  0
 13 15  1  0
 15  1  1  0
  1  2  2  0
  2  3  1  0
  3  4  2  0
  4 23  1  0
 23 24  2  0
 25 23  1  0
 25 26  1  0
 26 27  1  0
 27 28  1  0
 28 32  1  0
 32 33  1  0
 32 34  1  0
 28 29  1  0
 29 30  1  0
  4  5  1  0
  5  6  2  0
  6  7  1  0
 15  9  1  0
  6  1  1  0
 21 16  2  0
 30 25  1  0
 25 31  1  0
M  CHG 1  17  -1
M  CHG 1  20  -1
M  CHG 1  22  -1
M  CHG 1  25   1
M  END
> <UniqueID>
9

> <SMILES>
C=c1c(=Cc2[n-]c(=O)[n-]c2[O-])cc(C)n1-c1ccc(C(=O)[NH+]2CCC(N(C)C)CC2)cc1C

> <Energy>
159.97180760909148

> <Genealogy>
C=c1c(=Cc2[n-]c(=O)[n-]c2[O-])cc(C)n1-c1ccc(C(=O)[NH+]2CCC(N(C)C)CC2)cc1C (protonated)
C=c1c(=Cc2[n-]c(=O)[n-]c2[O-])cc(C)n1-c1ccc(C(=O)[NH+]2CCC(N(C)C)CC2)cc1C (3D coordinates assigned)
C=c1c(=Cc2[n-]c(=O)[n-]c2[O-])cc(C)n1-c1ccc(C(=O)[NH+]2CCC(N(C)C)CC2)cc1C (nonaromatic ring conformer: 159.97180760909148 kcal/mol)

> <smiles>
C=c1c(=Cc2[nH]c(=O)[nH]c2O)cc(C)n1-c1ccc(C(=O)N2CCC(N(C)C)CC2)cc1C

> <score_type>
oracle

> <origin>
adg

> <m_score__min__energy>
-15.07

> <m_primary>
energy

> <minimizedAffinity>
-6.95839

> <minimizedRMSD>
0.81537

> <CNNscore>
0.0587720722

> <CNNaffinity>
6.0840983391

> <CNN_VS>
0.3575750589

> <CNNaffinity_variance>
0.0982237756

$$$$
12:0


 25 27  0  0  0  0  0  0  0  0999 V2000
   61.5631   33.3023   51.7700 O   0  0  0  0  0  0  0  0  0  0  0  0
   60.8613   32.4874   51.1104 C   0  0  0  0  0  0  0  0  0  0  0  0
   60.3850   32.8512   49.8062 N   0  0  0  0  0  0  0  0  0  0  0  0
   61.2805   33.5290   48.8680 C   0  0  0  0  0  0  0  0  0  0  0  0
   61.0077   33.0176   47.4526 C   0  0  0  0  0  0  0  0  0  0  0  0
   59.5724   33.1504   47.1340 N   0  0  0  0  0  0  0  0  0  0  0  0
   58.7379   32.3618   48.0647 C   0  0  0  0  0  0  0  0  0  0  0  0
   58.9520   32.8420   49.5009 C   0  0  0  0  0  0  0  0  0  0  0  0
   60.6582   31.0985   51.6380 C   0  0  0  0  0  0  0  0  0  0  0  0
   59.2519   30.9518   52.1294 C   0  0  0  0  0  0  0  0  0  0  0  0
   58.3468   30.1191   51.5840 N   0  0  0  0  0  0  0  0  0  0  0  0
   57.2207   30.3850   52.2826 C   0  0  0  0  0  0  0  0  0  0  0  0
   56.1329   29.7899   52.0665 O   0  0  0  0  0  0  0  0  0  0  0  0
   57.3508   31.3412   53.2262 N   0  0  0  0  0  0  0  0  0  0  0  0
   58.6413   31.6946   53.1116 C   0  0  0  0  0  0  0  0  0  0  0  0
   59.2482   32.6817   53.8801 O   0  0  0  0  0  0  0  0  0  0  0  0
   58.7531   33.1397   54.5306 H   0  0  0  0  0  0  0  0  0  0  0  0
   59.2748   32.8533   45.7139 C   0  0  0  0  0  0  0  0  0  0  0  0
   58.7234   31.4606   45.4829 C   0  0  0  0  0  0  0  0  0  0  0  0
   59.5161   30.3298   45.7397 C   0  0  0  0  0  0  0  0  0  0  0  0
   58.9983   29.0449   45.5486 C   0  0  0  0  0  0  0  0  0  0  0  0
   57.6881   28.8783   45.0937 C   0  0  0  0  0  0  0  0  0  0  0  0
   56.8941   29.9975   44.8231 C   0  0  0  0  0  0  0  0  0  0  0  0
   55.5928   29.8307   44.3673 O   0  0  0  0  0  0  0  0  0  0  0  0
   57.4096   31.2839   45.0123 C   0  0  0  0  0  0  0  0  0  0  0  0
  1  2  2  0
  2  9  1  0
  9 10  1  0
 10 11  1  0
 11 12  1  0
 12 13  2  0
 12 14  1  0
 14 15  1  0
 15 16  1  0
  2  3  1  0
  3  4  1  0
  4  5  1  0
  5  6  1  0
  6 18  1  0
 18 19  1  0
 19 20  2  0
 20 21  1  0
 21 22  2  0
 22 23  1  0
 23 24  1  0
 23 25  2  0
  6  7  1  0
  7  8  1  0
 15 10  2  0
  8  3  1  0
 25 19  1  0
 16 17  1  0
M  CHG 1  11  -1
M  CHG 1  14  -1
M  CHG 1  24  -1
M  END
> <UniqueID>
13

> <SMILES>
O=C(Cc1[n-]c(=O)[n-]c1O)N1CCN(Cc2cccc([O-])c2)CC1

> <Energy>
72.41618990921577

> <Genealogy>
O=C(Cc1[n-]c(=O)[n-]c1O)N1CCN(Cc2cccc([O-])c2)CC1 (protonated)
O=C(Cc1[n-]c(=O)[n-]c1O)N1CCN(Cc2cccc([O-])c2)CC1 (3D coordinates assigned)
O=C(Cc1[n-]c(=O)[n-]c1O)N1CCN(Cc2cccc([O-])c2)CC1 (nonaromatic ring conformer: 72.41618990921577 kcal/mol)

> <smiles>
O=C(Cc1[nH]c(=O)[nH]c1O)N1CCN(Cc2cccc(O)c2)CC1

> <score_type>
oracle

> <origin>
adg

> <m_score__min__energy>
-14.34

> <m_primary>
energy

> <minimizedAffinity>
-5.83916

> <minimizedRMSD>
1.61665

> <CNNscore>
0.0542768016

> <CNNaffinity>
4.7802720070

> <CNN_VS>
0.2594578862

> <CNNaffinity_variance>
0.1262055039

$$$$
14:0


 27 30  0  0  0  0  0  0  0  0999 V2000
   59.3507   29.6189   44.9423 C   0  0  0  0  0  0  0  0  0  0  0  0
   59.3041   29.6549   46.2813 C   0  0  0  0  0  0  0  0  0  0  0  0
   59.2229   28.5755   47.1722 C   0  0  0  0  0  0  0  0  0  0  0  0
   59.4368   27.2642   46.9610 C   0  0  0  0  0  0  0  0  0  0  0  0
   58.9022   29.0402   48.3993 N   0  0  0  0  0  0  0  0  0  0  0  0
   58.8528   30.3776   48.2490 C   0  0  0  0  0  0  0  0  0  0  0  0
   58.5977   31.1620   49.2006 O   0  0  0  0  0  0  0  0  0  0  0  0
   59.1167   30.7898   46.9933 N   0  0  0  0  0  0  0  0  0  0  0  0
   58.3947   26.2243   46.9336 C   0  0  0  0  0  0  0  0  0  0  0  0
   58.4190   25.0940   47.6663 N   0  0  0  0  0  0  0  0  0  0  0  0
   57.2157   24.5350   47.4152 C   0  0  0  0  0  0  0  0  0  0  0  0
   56.8612   23.4370   47.9173 O   0  0  0  0  0  0  0  0  0  0  0  0
   56.4165   25.2506   46.5946 N   0  0  0  0  0  0  0  0  0  0  0  0
   57.1749   26.3225   46.3113 C   0  0  0  0  0  0  0  0  0  0  0  0
   56.7574   27.3741   45.5044 O   0  0  0  0  0  0  0  0  0  0  0  0
   59.1231   32.1498   46.5243 C   0  0  0  0  0  0  0  0  0  0  0  0
   58.1256   32.5769   45.6365 C   0  0  0  0  0  0  0  0  0  0  0  0
   58.1371   33.8802   45.1324 C   0  0  0  0  0  0  0  0  0  0  0  0
   59.1438   34.7681   45.5146 C   0  0  0  0  0  0  0  0  0  0  0  0
   60.1365   34.3585   46.4082 C   0  0  0  0  0  0  0  0  0  0  0  0
   60.1346   33.0539   46.9254 C   0  0  0  0  0  0  0  0  0  0  0  0
   61.1339   32.6765   47.8904 N   0  0  0  0  0  0  0  0  0  0  0  0
   61.1344   33.2928   49.2219 C   0  0  0  0  0  0  0  0  0  0  0  0
   62.5067   33.1270   49.8759 C   0  0  0  0  0  0  0  0  0  0  0  0
   63.5108   33.3395   48.9067 O   0  0  0  0  0  0  0  0  0  0  0  0
   63.5800   32.2376   48.0166 C   0  0  0  0  0  0  0  0  0  0  0  0
   62.2011   31.7373   47.5239 C   0  0  0  0  0  0  0  0  0  0  0  0
  1  2  2  0
  2  3  1  0
  3  4  2  0
  4  9  1  0
  9 10  1  0
 10 11  1  0
 11 12  2  0
 11 13  1  0
 13 14  1  0
 14 15  1  0
  3  5  1  0
  5  6  1  0
  6  7  2  0
  6  8  1  0
  8 16  1  0
 16 17  2  0
 17 18  1  0
 18 19  2  0
 19 20  1  0
 20 21  2  0
 21 22  1  0
 22 23  1  0
 23 24  1  0
 24 25  1  0
 25 26  1  0
 26 27  1  0
  8  2  1  0
 21 16  1  0
 27 22  1  0
 14  9  2  0
M  CHG 1   5  -1
M  CHG 1  10  -1
M  CHG 1  13  -1
M  CHG 1  15  -1
M  END
> <UniqueID>
15

> <SMILES>
C=c1c(=Cc2[n-]c(=O)[n-]c2[O-])[n-]c(=O)n1-c1ccccc1N1CCOCC1

> <Energy>
135.42330334486167

> <Genealogy>
C=c1c(=Cc2[n-]c(=O)[n-]c2[O-])[n-]c(=O)n1-c1ccccc1N1CCOCC1 (protonated)
C=c1c(=Cc2[n-]c(=O)[n-]c2[O-])[n-]c(=O)n1-c1ccccc1N1CCOCC1 (3D coordinates assigned)
C=c1c(=Cc2[n-]c(=O)[n-]c2[O-])[n-]c(=O)n1-c1ccccc1N1CCOCC1 (nonaromatic ring conformer: 135.42330334486167 kcal/mol)

> <smiles>
C=c1c(=Cc2[nH]c(=O)[nH]c2O)[nH]c(=O)n1-c1ccccc1N1CCOCC1

> <score_type>
oracle

> <origin>
adg

> <m_score__min__energy>
-16.66

> <m_primary>
energy

> <minimizedAffinity>
-7.77497

> <minimizedRMSD>
1.19229

> <CNNscore>
0.5403896570

> <CNNaffinity>
6.5509657860

> <CNN_VS>
3.5400741100

> <CNNaffinity_variance>
0.0183010940

$$$$
22:0


 33 36  0  0  0  0  0  0  0  0999 V2000
   57.9684   24.7050   45.6421 C   0  0  0  0  0  0  0  0  0  0  0  0
   58.3288   25.9838   45.8726 C   0  0  0  0  0  0  0  0  0  0  0  0
   58.6304   26.4545   47.1386 C   0  0  0  0  0  0  0  0  0  0  0  0
   59.0048   27.7741   46.9984 C   0  0  0  0  0  0  0  0  0  0  0  0
   59.4351   28.6596   48.1287 C   0  0  0  0  0  0  0  0  0  0  0  0
   58.9462   28.1479   45.6995 N   0  0  0  0  0  0  0  0  0  0  0  0
   58.4970   27.0722   44.9974 C   0  0  0  0  0  0  0  0  0  0  0  0
   58.1828   27.1190   43.6922 C   0  0  0  0  0  0  0  0  0  0  0  0
   55.6594   26.4043   46.1142 O   0  0  0  0  0  0  0  0  0  0  0  0
   55.4887   25.0523   45.8173 C   0  0  0  0  0  0  0  0  0  0  0  0
   54.2267   24.5488   45.7723 N   0  0  0  0  0  0  0  0  0  0  0  0
   53.9963   23.2412   45.4912 C   0  0  0  0  0  0  0  0  0  0  0  0
   52.8170   22.8054   45.4537 O   0  0  0  0  0  0  0  0  0  0  0  0
   55.0368   22.4028   45.2568 N   0  0  0  0  0  0  0  0  0  0  0  0
   56.3189   22.8496   45.2887 C   0  0  0  0  0  0  0  0  0  0  0  0
   57.2605   22.0382   45.0825 O   0  0  0  0  0  0  0  0  0  0  0  0
   56.5825   24.2056   45.5553 C   0  0  0  0  0  0  0  0  0  0  0  0
   54.9130   26.9445   46.2845 H   0  0  0  0  0  0  0  0  0  0  0  0
   59.2194   29.4998   45.1893 C   0  0  0  0  0  0  0  0  0  0  0  0
   57.9668   30.3743   45.3021 C   0  0  0  0  0  0  0  0  0  0  0  0
   58.3472   31.8006   45.5932 C   0  0  0  0  0  0  0  0  0  0  0  0
   58.0828   32.8116   44.6573 C   0  0  0  0  0  0  0  0  0  0  0  0
   58.4666   34.1295   44.9204 C   0  0  0  0  0  0  0  0  0  0  0  0
   59.1379   34.4437   46.1052 C   0  0  0  0  0  0  0  0  0  0  0  0
   59.4430   33.4351   47.0332 C   0  0  0  0  0  0  0  0  0  0  0  0
   59.0293   32.1172   46.7796 C   0  0  0  0  0  0  0  0  0  0  0  0
   60.1636   33.7713   48.2791 C   0  0  0  0  0  0  0  0  0  0  0  0
   59.5589   34.4173   49.1771 O   0  0  0  0  0  0  0  0  0  0  0  0
   61.5369   33.3923   48.4825 N   0  0  0  0  0  0  0  0  0  0  0  0
   62.4863   33.1680   47.4029 C   0  0  0  0  0  0  0  0  0  0  0  0
   63.8645   33.2556   48.0449 C   0  0  0  0  0  0  0  0  0  0  0  0
   63.6339   33.0743   49.5411 C   0  0  0  0  0  0  0  0  0  0  0  0
   62.1817   33.4637   49.7815 C   0  0  0  0  0  0  0  0  0  0  0  0
  9 10  1  0
 10 11  1  0
 11 12  1  0
 12 13  2  0
 12 14  1  0
 14 15  1  0
 15 16  2  0
 15 17  1  0
 17  1  1  0
  1  2  2  0
  2  3  1  0
  3  4  2  0
  4  5  1  0
  4  6  1  0
  6 19  1  0
 19 20  1  0
 20 21  1  0
 21 22  2  0
 22 23  1  0
 23 24  2  0
 24 25  1  0
 25 27  1  0
 27 28  2  0
 27 29  1  0
 29 30  1  0
 30 31  1  0
 31 32  1  0
 32 33  1  0
 25 26  2  0
  6  7  1  0
  7  8  2  0
 17 10  2  0
  7  2  1  0
 26 21  1  0
 33 29  1  0
  9 18  1  0
M  CHG 1  11  -1
M  CHG 1  14  -1
M  END
> <UniqueID>
22

> <SMILES>
C=c1/c(=C\c2c(O)[n-]c(=O)[n-]c2=O)cc(C)n1CCc1cccc(C(=O)N2CCCC2)c1

> <Energy>
102.03441290097317

> <Genealogy>
C=c1c(=Cc2c(O)[n-]c(=O)[n-]c2=O)cc(C)n1CCc1cccc(C(=O)N2CCCC2)c1 (protonated)
C=c1/c(=C\c2c(O)[n-]c(=O)[n-]c2=O)cc(C)n1CCc1cccc(C(=O)N2CCCC2)c1 (cis-trans isomerization)
C=c1/c(=C\c2c(O)[n-]c(=O)[n-]c2=O)cc(C)n1CCc1cccc(C(=O)N2CCCC2)c1 (3D coordinates assigned)
C=c1/c(=C\c2c(O)[n-]c(=O)[n-]c2=O)cc(C)n1CCc1cccc(C(=O)N2CCCC2)c1 (nonaromatic ring conformer: 102.03441290097317 kcal/mol)

> <smiles>
C=c1c(=Cc2c(O)[nH]c(=O)[nH]c2=O)cc(C)n1CCc1cccc(C(=O)N2CCCC2)c1

> <score_type>
oracle

> <origin>
adg

> <m_score__min__energy>
-15.279999999999999

> <m_primary>
energy

> <minimizedAffinity>
-11.03044

> <minimizedRMSD>
0.69534

> <CNNscore>
0.6449931264

> <CNNaffinity>
7.3864274025

> <CNN_VS>
4.7641949654

> <CNNaffinity_variance>
0.0159301460

$$$$
29:0


 20 21  0  0  0  0  0  0  0  0999 V2000
   56.7677   28.3049   45.0420 O   0  0  0  0  0  0  0  0  0  0  0  0
   57.8107   29.0313   45.6171 C   0  0  0  0  0  0  0  0  0  0  0  0
   57.7046   30.3855   45.6735 N   0  0  0  0  0  0  0  0  0  0  0  0
   58.6650   31.1693   46.2282 C   0  0  0  0  0  0  0  0  0  0  0  0
   58.5098   32.4181   46.2561 O   0  0  0  0  0  0  0  0  0  0  0  0
   59.8188   30.5856   46.7627 C   0  0  0  0  0  0  0  0  0  0  0  0
   61.1997   31.6547   47.5462 Br  0  0  0  0  0  0  0  0  0  0  0  0
   59.9633   29.1987   46.7124 C   0  0  0  0  0  0  0  0  0  0  0  0
   58.9537   28.3974   46.1549 C   0  0  0  0  0  0  0  0  0  0  0  0
   56.0219   28.7522   44.6932 H   0  0  0  0  0  0  0  0  0  0  0  0
   59.1261   26.9294   46.0714 C   0  0  0  0  0  0  0  0  0  0  0  0
   58.2929   26.0274   46.6134 C   0  0  0  0  0  0  0  0  0  0  0  0
   57.6986   24.8766   45.8935 C   0  0  0  0  0  0  0  0  0  0  0  0
   58.4966   23.8018   45.4584 C   0  0  0  0  0  0  0  0  0  0  0  0
   57.9195   22.7150   44.7958 C   0  0  0  0  0  0  0  0  0  0  0  0
   56.5403   22.6786   44.5807 C   0  0  0  0  0  0  0  0  0  0  0  0
   55.9680   21.5970   43.9221 O   0  0  0  0  0  0  0  0  0  0  0  0
   55.7342   23.7272   45.0323 C   0  0  0  0  0  0  0  0  0  0  0  0
   56.3062   24.8208   45.6920 C   0  0  0  0  0  0  0  0  0  0  0  0
   55.4865   25.8535   46.1338 O   0  0  0  0  0  0  0  0  0  0  0  0
  1  2  1  0
  2  3  1  0
  3  4  1  0
  4  5  2  0
  4  6  1  0
  6  7  1  0
  6  8  2  0
  8  9  1  0
  9 11  1  0
 11 12  2  0
 12 13  1  0
 13 14  2  0
 14 15  1  0
 15 16  2  0
 16 17  1  0
 16 18  1  0
 18 19  2  0
 19 20  1  0
  9  2  2  0
 19 13  1  0
  1 10  1  0
M  CHG 1   3  -1
M  CHG 1  17  -1
M  CHG 1  20  -1
M  END
> <UniqueID>
28

> <SMILES>
O=c1[n-]c(O)c(/C=C\c2ccc([O-])cc2[O-])cc1Br

> <Energy>
39.50082653564562

> <Genealogy>
O=c1[n-]c(O)c(C=Cc2ccc([O-])cc2[O-])cc1Br (protonated)
O=c1[n-]c(O)c(/C=C\c2ccc([O-])cc2[O-])cc1Br (cis-trans isomerization)
O=c1[n-]c(O)c(/C=C\c2ccc([O-])cc2[O-])cc1Br (3D coordinates assigned)
O=c1[n-]c(O)c(/C=C\c2ccc([O-])cc2[O-])cc1Br (optimized conformer: 39.50082653564562 kcal/mol)

> <smiles>
O=c1[nH]c(O)c(C=Cc2ccc(O)cc2O)cc1Br

> <score_type>
oracle

> <origin>
adg

> <m_score__min__energy>
-15.27

> <m_primary>
energy

> <minimizedAffinity>
-8.03872

> <minimizedRMSD>
1.67921

> <CNNscore>
0.3836078346

> <CNNaffinity>
5.6508631706

> <CNN_VS>
2.1677153111

> <CNNaffinity_variance>
0.0750226900

$$$$
42:0


 33 36  0  0  0  0  0  0  0  0999 V2000
   58.5513   31.0810   45.7455 C   0  0  0  0  0  0  0  0  0  0  0  0
   58.1115   31.9587   44.7441 C   0  0  0  0  0  0  0  0  0  0  0  0
   57.9153   33.3116   45.0235 C   0  0  0  0  0  0  0  0  0  0  0  0
   58.1549   33.8006   46.3074 C   0  0  0  0  0  0  0  0  0  0  0  0
   58.5871   32.9381   47.3177 C   0  0  0  0  0  0  0  0  0  0  0  0
   58.7879   31.5706   47.0544 C   0  0  0  0  0  0  0  0  0  0  0  0
   56.5785   29.0802   44.7649 C   0  0  0  0  0  0  0  0  0  0  0  0
   57.8750   28.7988   44.9683 C   0  0  0  0  0  0  0  0  0  0  0  0
   58.4989   27.5620   44.7757 C   0  0  0  0  0  0  0  0  0  0  0  0
   57.9229   26.4100   44.3782 C   0  0  0  0  0  0  0  0  0  0  0  0
   59.8292   27.7349   45.1409 C   0  0  0  0  0  0  0  0  0  0  0  0
   59.9670   29.0566   45.5148 C   0  0  0  0  0  0  0  0  0  0  0  0
   61.2353   29.6738   46.0211 C   0  0  0  0  0  0  0  0  0  0  0  0
   58.7856   29.7021   45.4112 N   0  0  0  0  0  0  0  0  0  0  0  0
   57.3774   25.3996   45.3013 C   0  0  0  0  0  0  0  0  0  0  0  0
   58.0153   24.2539   45.6009 N   0  0  0  0  0  0  0  0  0  0  0  0
   57.2154   23.6829   46.5287 C   0  0  0  0  0  0  0  0  0  0  0  0
   57.4749   22.5700   47.0539 O   0  0  0  0  0  0  0  0  0  0  0  0
   56.1234   24.4052   46.8571 N   0  0  0  0  0  0  0  0  0  0  0  0
   56.2456   25.4937   46.0827 C   0  0  0  0  0  0  0  0  0  0  0  0
   55.3671   26.5695   46.1250 O   0  0  0  0  0  0  0  0  0  0  0  0
   59.2099   30.6696   48.1519 C   0  0  0  0  0  0  0  0  0  0  0  0
   58.5511   29.6214   48.3893 O   0  0  0  0  0  0  0  0  0  0  0  0
   60.3593   30.9837   48.9513 N   0  0  0  0  0  0  0  0  0  0  0  0
   60.9156   31.7602   48.7127 H   0  0  0  0  0  0  0  0  0  0  0  0
   60.7207   30.1728   50.1140 C   0  0  0  0  0  0  0  0  0  0  0  0
   60.7200   31.0090   51.4027 C   0  0  0  0  0  0  0  0  0  0  0  0
   62.0275   31.6599   51.6439 N   0  0  0  0  0  0  0  0  0  0  0  0
   63.0947   31.0805   50.7921 C   0  0  0  0  0  0  0  0  0  0  0  0
   64.2362   32.0866   50.5706 C   0  0  0  0  0  0  0  0  0  0  0  0
   63.8261   33.2779   49.9128 O   0  0  0  0  0  0  0  0  0  0  0  0
   62.4677   33.6211   50.1502 C   0  0  0  0  0  0  0  0  0  0  0  0
   61.9340   33.1337   51.5090 C   0  0  0  0  0  0  0  0  0  0  0  0
  7  8  2  0
  8  9  1  0
  9 10  2  0
 10 15  1  0
 15 16  1  0
 16 17  1  0
 17 18  2  0
 17 19  1  0
 19 20  1  0
 20 21  1  0
  9 11  1  0
 11 12  2  0
 12 13  1  0
 12 14  1  0
 14  1  1  0
  1  2  2  0
  2  3  1  0
  3  4  2  0
  4  5  1  0
  5  6  2  0
  6 22  1  0
 22 23  2  0
 22 24  1  0
 24 26  1  0
 26 27  1  0
 27 28  1  0
 28 29  1  0
 29 30  1  0
 30 31  1  0
 31 32  1  0
 32 33  1  0
 14  8  1  0
  6  1  1  0
 33 28  1  0
 20 15  2  0
 24 25  1  0
M  CHG 1  16  -1
M  CHG 1  19  -1
M  CHG 1  21  -1
M  END
> <UniqueID>
40

> <SMILES>
C=c1c(=Cc2[n-]c(=O)[n-]c2[O-])cc(C)n1-c1ccccc1C(=O)NCCN1CCOCC1

> <Energy>
144.2511063874455

> <Genealogy>
C=c1c(=Cc2[n-]c(=O)[n-]c2[O-])cc(C)n1-c1ccccc1C(=O)NCCN1CCOCC1 (protonated)
C=c1c(=Cc2[n-]c(=O)[n-]c2[O-])cc(C)n1-c1ccccc1C(=O)NCCN1CCOCC1 (3D coordinates assigned)
C=c1c(=Cc2[n-]c(=O)[n-]c2[O-])cc(C)n1-c1ccccc1C(=O)NCCN1CCOCC1 (nonaromatic ring conformer: 144.2511063874455 kcal/mol)

> <smiles>
C=c1c(=Cc2[nH]c(=O)[nH]c2O)cc(C)n1-c1ccccc1C(=O)NCCN1CCOCC1

> <score_type>
oracle

> <origin>
adg

> <m_score__min__energy>
-16.390000000000001

> <m_primary>
energy

> <minimizedAffinity>
-7.27906

> <minimizedRMSD>
1.24540

> <CNNscore>
0.3363730907

> <CNNaffinity>
6.7589335442

> <CNN_VS>
2.2735233307

> <CNNaffinity_variance>
0.0643089712

$$$$
48:0


 36 40  0  0  0  0  0  0  0  0999 V2000
   59.5799   30.1961   47.9961 C   0  0  0  0  0  0  0  0  0  0  0  0
   58.7781   30.3244   49.1377 C   0  0  0  0  0  0  0  0  0  0  0  0
   59.1308   31.2163   50.1532 C   0  0  0  0  0  0  0  0  0  0  0  0
   60.2961   31.9946   50.0450 C   0  0  0  0  0  0  0  0  0  0  0  0
   61.1095   31.8462   48.9077 C   0  0  0  0  0  0  0  0  0  0  0  0
   60.7563   30.9534   47.8921 C   0  0  0  0  0  0  0  0  0  0  0  0
   61.5617   30.8205   46.8089 F   0  0  0  0  0  0  0  0  0  0  0  0
   60.6420   32.9884   51.0896 C   0  0  0  0  0  0  0  0  0  0  0  0
   59.7295   33.6284   51.6778 O   0  0  0  0  0  0  0  0  0  0  0  0
   62.0052   33.2078   51.4798 N   0  0  0  0  0  0  0  0  0  0  0  0
   62.9198   33.9240   50.5855 C   0  0  0  0  0  0  0  0  0  0  0  0
   64.3282   33.3264   50.6750 C   0  0  0  0  0  0  0  0  0  0  0  0
   64.7410   33.0791   52.0685 N   0  0  0  0  0  0  0  0  0  0  0  0
   66.0969   32.6616   52.3578 C   0  0  0  0  0  0  0  0  0  0  0  0
   66.4711   32.5102   53.5541 O   0  0  0  0  0  0  0  0  0  0  0  0
   63.8108   33.3804   53.1681 C   0  0  0  0  0  0  0  0  0  0  0  0
   62.4087   32.8586   52.8440 C   0  0  0  0  0  0  0  0  0  0  0  0
   67.1109   32.4641   51.2623 C   0  0  0  0  0  0  0  0  0  0  0  0
   68.5670   32.6120   51.6788 C   0  0  0  0  0  0  0  0  0  0  0  0
   67.8896   33.7208   50.8940 C   0  0  0  0  0  0  0  0  0  0  0  0
   58.5274   26.2148   45.2858 C   0  0  0  0  0  0  0  0  0  0  0  0
   58.7243   27.4763   45.7156 C   0  0  0  0  0  0  0  0  0  0  0  0
   58.2859   28.5853   45.0113 C   0  0  0  0  0  0  0  0  0  0  0  0
   58.5466   29.6876   45.7983 C   0  0  0  0  0  0  0  0  0  0  0  0
   58.1902   31.0961   45.4334 C   0  0  0  0  0  0  0  0  0  0  0  0
   59.1761   29.3157   46.9344 N   0  0  0  0  0  0  0  0  0  0  0  0
   59.3223   27.9678   46.8884 C   0  0  0  0  0  0  0  0  0  0  0  0
   60.0769   27.2841   47.7628 C   0  0  0  0  0  0  0  0  0  0  0  0
   55.5451   26.5591   45.9834 O   0  0  0  0  0  0  0  0  0  0  0  0
   56.3089   25.4276   46.2493 C   0  0  0  0  0  0  0  0  0  0  0  0
   55.8358   24.3583   46.9114 N   0  0  0  0  0  0  0  0  0  0  0  0
   56.9119   23.5465   46.9775 C   0  0  0  0  0  0  0  0  0  0  0  0
   56.8805   22.4224   47.5421 O   0  0  0  0  0  0  0  0  0  0  0  0
   58.0309   24.0415   46.4046 N   0  0  0  0  0  0  0  0  0  0  0  0
   57.6316   25.2282   45.9118 C   0  0  0  0  0  0  0  0  0  0  0  0
   54.6496   26.5947   46.2570 H   0  0  0  0  0  0  0  0  0  0  0  0
 29 30  1  0
 30 31  1  0
 31 32  1  0
 32 33  2  0
 32 34  1  0
 34 35  1  0
 35 21  1  0
 21 22  2  0
 22 23  1  0
 23 24  2  0
 24 25  1  0
 24 26  1  0
 26  1  1  0
  1  2  2  0
  2  3  1  0
  3  4  2  0
  4  8  1  0
  8  9  2  0
  8 10  1  0
 10 11  1  0
 11 12  1  0
 12 13  1  0
 13 14  1  0
 14 15  2  0
 14 18  1  0
 18 19  1  0
 19 20  1  0
 13 16  1  0
 16 17  1  0
  4  5  1  0
  5  6  2  0
  6  7  1  0
 26 27  1  0
 27 28  2  0
 35 30  2  0
 27 22  1  0
  6  1  1  0
 17 10  1  0
 20 18  1  0
 29 36  1  0
M  CHG 1  31  -1
M  CHG 1  34  -1
M  END
> <UniqueID>
45

> <SMILES>
C=c1/c(=C\c2[n-]c(=O)[n-]c2O)cc(C)n1-c1ccc(C(=O)N2CCN(C(=O)C3CC3)CC2)cc1F

> <Energy>
406.7179878338971

> <Genealogy>
C=c1c(=Cc2[n-]c(=O)[n-]c2O)cc(C)n1-c1ccc(C(=O)N2CCN(C(=O)C3CC3)CC2)cc1F (protonated)
C=c1/c(=C\c2[n-]c(=O)[n-]c2O)cc(C)n1-c1ccc(C(=O)N2CCN(C(=O)C3CC3)CC2)cc1F (cis-trans isomerization)
C=c1/c(=C\c2[n-]c(=O)[n-]c2O)cc(C)n1-c1ccc(C(=O)N2CCN(C(=O)C3CC3)CC2)cc1F (3D coordinates assigned)
C=c1/c(=C\c2[n-]c(=O)[n-]c2O)cc(C)n1-c1ccc(C(=O)N2CCN(C(=O)C3CC3)CC2)cc1F (nonaromatic ring conformer: 406.7179878338971 kcal/mol)

> <smiles>
C=c1c(=Cc2[nH]c(=O)[nH]c2O)cc(C)n1-c1ccc(C(=O)N2CCN(C(=O)C3CC3)CC2)cc1F

> <score_type>
oracle

> <origin>
adg

> <m_score__min__energy>
-14.199999999999999

> <m_primary>
energy

> <minimizedAffinity>
-9.64744

> <minimizedRMSD>
1.67098

> <CNNscore>
0.3565845788

> <CNNaffinity>
7.0255579948

> <CNN_VS>
2.5052056313

> <CNNaffinity_variance>
0.0618122071

$$$$
50:0


 32 34  0  0  0  0  0  0  0  0999 V2000
   61.1451   30.5054   47.0393 C   0  0  0  0  0  0  0  0  0  0  0  0
   59.9686   30.7953   46.4361 C   0  0  0  0  0  0  0  0  0  0  0  0
   59.4827   32.1321   46.5060 C   0  0  0  0  0  0  0  0  0  0  0  0
   58.4021   32.5352   45.6890 C   0  0  0  0  0  0  0  0  0  0  0  0
   57.9680   33.9713   45.5636 C   0  0  0  0  0  0  0  0  0  0  0  0
   57.7101   31.5796   44.9476 C   0  0  0  0  0  0  0  0  0  0  0  0
   58.0885   30.2449   44.9743 C   0  0  0  0  0  0  0  0  0  0  0  0
   59.2167   29.8106   45.7055 C   0  0  0  0  0  0  0  0  0  0  0  0
   59.5097   28.4824   45.7663 C   0  0  0  0  0  0  0  0  0  0  0  0
   58.5374   27.3954   46.0113 C   0  0  0  0  0  0  0  0  0  0  0  0
   57.1965   27.5472   45.9182 N   0  0  0  0  0  0  0  0  0  0  0  0
   56.6875   26.3125   46.0935 C   0  0  0  0  0  0  0  0  0  0  0  0
   55.3252   26.0405   46.0730 O   0  0  0  0  0  0  0  0  0  0  0  0
   57.6801   25.3753   46.2766 C   0  0  0  0  0  0  0  0  0  0  0  0
   58.8728   26.0656   46.2233 C   0  0  0  0  0  0  0  0  0  0  0  0
   60.2549   25.4886   46.2936 C   0  0  0  0  0  0  0  0  0  0  0  0
   57.4978   23.9590   46.4566 C   0  0  0  0  0  0  0  0  0  0  0  0
   57.3513   22.8209   46.6032 N   0  0  0  0  0  0  0  0  0  0  0  0
   60.1280   33.0754   47.3826 N   0  0  0  0  0  0  0  0  0  0  0  0
   59.7399   33.3765   48.7317 C   0  0  0  0  0  0  0  0  0  0  0  0
   59.3775   34.5515   49.0057 O   0  0  0  0  0  0  0  0  0  0  0  0
   59.7271   32.3533   49.8022 C   0  0  0  0  0  0  0  0  0  0  0  0
   58.6131   31.5028   49.9034 C   0  0  0  0  0  0  0  0  0  0  0  0
   58.5819   30.4831   50.8547 C   0  0  0  0  0  0  0  0  0  0  0  0
   59.6580   30.3077   51.7239 C   0  0  0  0  0  0  0  0  0  0  0  0
   60.7547   31.1687   51.6640 C   0  0  0  0  0  0  0  0  0  0  0  0
   60.7938   32.2140   50.7223 C   0  0  0  0  0  0  0  0  0  0  0  0
   61.8662   33.1714   50.7187 N   0  0  0  0  0  0  0  0  0  0  0  0
   63.4657   32.8830   50.1158 S   0  0  0  0  0  0  0  0  0  0  0  0
   63.5542   33.3768   48.4107 C   0  0  0  0  0  0  0  0  0  0  0  0
   63.7949   31.4204   50.2260 O   0  0  0  0  0  0  0  0  0  0  0  0
   64.4627   33.6932   50.8977 O   0  0  0  0  0  0  0  0  0  0  0  0
  1  2  2  0
  2  3  1  0
  3 19  1  0
 19 20  1  0
 20 21  2  0
 20 22  1  0
 22 23  2  0
 23 24  1  0
 24 25  2  0
 25 26  1  0
 26 27  2  0
 27 28  1  0
 28 29  1  0
 29 30  1  0
 29 31  2  0
 29 32  2  0
  3  4  2  0
  4  5  1  0
  4  6  1  0
  6  7  2  0
  7  8  1  0
  8  9  2  0
  9 10  1  0
 10 11  1  0
 11 12  1  0
 12 13  1  0
 12 14  2  0
 14 17  1  0
 17 18  3  0
 14 15  1  0
 15 16  1  0
  8  2  1  0
 15 10  2  0
 27 22  1  0
M  CHG 1  11  -1
M  CHG 1  13  -1
M  CHG 1  19  -1
M  CHG 1  28  -1
M  END
> <UniqueID>
47

> <SMILES>
C=c1c([N-]C(=O)c2ccccc2[N-]S(C)(=O)=O)c(C)ccc1=Cc1[n-]c([O-])c(C#N)c1C

> <Energy>
103.95105339764075

> <Genealogy>
C=c1c([N-]C(=O)c2ccccc2[N-]S(C)(=O)=O)c(C)ccc1=Cc1[n-]c([O-])c(C#N)c1C (protonated)
C=c1c([N-]C(=O)c2ccccc2[N-]S(C)(=O)=O)c(C)ccc1=Cc1[n-]c([O-])c(C#N)c1C (3D coordinates assigned)
C=c1c([N-]C(=O)c2ccccc2[N-]S(C)(=O)=O)c(C)ccc1=Cc1[n-]c([O-])c(C#N)c1C (optimized conformer: 103.95105339764075 kcal/mol)

> <smiles>
C=c1c(NC(=O)c2ccccc2NS(C)(=O)=O)c(C)ccc1=Cc1[nH]c(O)c(C#N)c1C

> <score_type>
oracle

> <origin>
adg

> <m_score__min__energy>
-17.239999999999998

> <m_primary>
energy

> <minimizedAffinity>
-7.71974

> <minimizedRMSD>
1.25502

> <CNNscore>
0.7050219774

> <CNNaffinity>
7.4677786827

> <CNN_VS>
5.2649478912

> <CNNaffinity_variance>
0.0930231586

$$$$
53:0


 33 35  0  0  0  0  0  0  0  0999 V2000
   58.6532   30.8740   46.0070 C   0  0  0  0  0  0  0  0  0  0  0  0
   57.9049   31.4496   44.9640 C   0  0  0  0  0  0  0  0  0  0  0  0
   57.0097   30.6749   44.2233 C   0  0  0  0  0  0  0  0  0  0  0  0
   56.8493   29.3194   44.5116 C   0  0  0  0  0  0  0  0  0  0  0  0
   57.5769   28.7287   45.5571 C   0  0  0  0  0  0  0  0  0  0  0  0
   58.4906   29.5037   46.2836 C   0  0  0  0  0  0  0  0  0  0  0  0
   60.6757   31.0879   47.5292 N   0  0  0  0  0  0  0  0  0  0  0  0
   59.6105   31.6994   46.7816 C   0  0  0  0  0  0  0  0  0  0  0  0
   59.4593   32.9520   46.8199 O   0  0  0  0  0  0  0  0  0  0  0  0
   60.6008   30.1304   47.7455 H   0  0  0  0  0  0  0  0  0  0  0  0
   63.6213   32.1630   49.6074 C   0  0  0  0  0  0  0  0  0  0  0  0
   64.0943   33.2381   48.8425 C   0  0  0  0  0  0  0  0  0  0  0  0
   63.4425   33.5975   47.6611 C   0  0  0  0  0  0  0  0  0  0  0  0
   62.3211   32.8846   47.2320 C   0  0  0  0  0  0  0  0  0  0  0  0
   61.8434   31.7948   47.9789 C   0  0  0  0  0  0  0  0  0  0  0  0
   62.4908   31.4529   49.1813 C   0  0  0  0  0  0  0  0  0  0  0  0
   64.4120   31.7216   51.1182 S   0  0  0  0  0  0  0  0  0  0  0  0
   63.9446   30.3495   51.5203 O   0  0  0  0  0  0  0  0  0  0  0  0
   65.9029   31.6796   50.9229 O   0  0  0  0  0  0  0  0  0  0  0  0
   62.5829   33.2359   52.2466 C   0  0  0  0  0  0  0  0  0  0  0  0
   63.9999   32.8740   52.3626 N   0  0  0  0  0  0  0  0  0  0  0  0
   64.8375   34.0697   52.2140 C   0  0  0  0  0  0  0  0  0  0  0  0
   57.4516   27.3321   45.8683 N   0  0  0  0  0  0  0  0  0  0  0  0
   57.6110   26.2418   44.9499 C   0  0  0  0  0  0  0  0  0  0  0  0
   58.1721   26.4614   43.8447 O   0  0  0  0  0  0  0  0  0  0  0  0
   57.1667   24.8666   45.2743 C   0  0  0  0  0  0  0  0  0  0  0  0
   58.0515   23.7908   45.0999 C   0  0  0  0  0  0  0  0  0  0  0  0
   57.6404   22.4892   45.3840 C   0  0  0  0  0  0  0  0  0  0  0  0
   56.3456   22.2692   45.8571 C   0  0  0  0  0  0  0  0  0  0  0  0
   55.9572   21.0997   46.1153 O   0  0  0  0  0  0  0  0  0  0  0  0
   55.5040   23.3183   46.0451 N   0  0  0  0  0  0  0  0  0  0  0  0
   55.8776   24.5978   45.7775 C   0  0  0  0  0  0  0  0  0  0  0  0
   54.9806   25.6306   46.0293 O   0  0  0  0  0  0  0  0  0  0  0  0
 20 21  1  0
 21 22  1  0
 21 17  1  0
 17 18  2  0
 17 19  2  0
 17 11  1  0
 11 12  2  0
 12 13  1  0
 13 14  2  0
 14 15  1  0
 15  7  1  0
  7  8  1  0
  8  9  2  0
  8  1  1  0
  1  2  2  0
  2  3  1  0
  3  4  2  0
  4  5  1  0
  5 23  1  0
 23 24  1  0
 24 25  2  0
 24 26  1  0
 26 27  1  0
 27 28  2  0
 28 29  1  0
 29 30  2  0
 29 31  1  0
 31 32  1  0
 32 33  1  0
  5  6  2  0
 15 16  2  0
 16 11  1  0
  6  1  1  0
 32 26  2  0
  7 10  1  0
M  CHG 1  23  -1
M  CHG 1  31  -1
M  CHG 1  33  -1
M  END
> <UniqueID>
50

> <SMILES>
CN(C)S(=O)(=O)c1cccc(NC(=O)c2cccc([N-]C(=O)c3ccc(=O)[n-]c3[O-])c2)c1

> <Energy>
64.2494581782091

> <Genealogy>
CN(C)S(=O)(=O)c1cccc(NC(=O)c2cccc([N-]C(=O)c3ccc(=O)[n-]c3[O-])c2)c1 (protonated)
CN(C)S(=O)(=O)c1cccc(NC(=O)c2cccc([N-]C(=O)c3ccc(=O)[n-]c3[O-])c2)c1 (3D coordinates assigned)
CN(C)S(=O)(=O)c1cccc(NC(=O)c2cccc([N-]C(=O)c3ccc(=O)[n-]c3[O-])c2)c1 (optimized conformer: 64.2494581782091 kcal/mol)

> <smiles>
CN(C)S(=O)(=O)c1cccc(NC(=O)c2cccc(NC(=O)c3ccc(=O)[nH]c3O)c2)c1

> <score_type>
oracle

> <origin>
adg

> <m_score__min__energy>
-17.600000000000001

> <m_primary>
energy

> <minimizedAffinity>
-8.25342

> <minimizedRMSD>
1.34944

> <CNNscore>
0.1472929716

> <CNNaffinity>
6.3523006439

> <CNN_VS>
0.9356492162

> <CNNaffinity_variance>
0.1038105264

$$$$
55:0


 34 38  0  0  0  0  0  0  0  0999 V2000
   59.3586   27.8846   47.6848 C   0  0  0  0  0  0  0  0  0  0  0  0
   60.2626   27.1927   48.5017 C   0  0  0  0  0  0  0  0  0  0  0  0
   60.8220   27.8200   49.6155 C   0  0  0  0  0  0  0  0  0  0  0  0
   60.4903   29.1429   49.9167 C   0  0  0  0  0  0  0  0  0  0  0  0
   59.5945   29.8567   49.1015 C   0  0  0  0  0  0  0  0  0  0  0  0
   59.0290   29.2135   47.9852 C   0  0  0  0  0  0  0  0  0  0  0  0
   59.2466   31.2676   49.4075 C   0  0  0  0  0  0  0  0  0  0  0  0
   58.3321   31.5267   50.2358 O   0  0  0  0  0  0  0  0  0  0  0  0
   59.9549   32.3562   48.7954 N   0  0  0  0  0  0  0  0  0  0  0  0
   59.4351   33.0428   47.6307 C   0  0  0  0  0  0  0  0  0  0  0  0
   58.1859   32.7248   47.0636 C   0  0  0  0  0  0  0  0  0  0  0  0
   57.7511   33.3784   45.9061 C   0  0  0  0  0  0  0  0  0  0  0  0
   58.5501   34.3555   45.3097 C   0  0  0  0  0  0  0  0  0  0  0  0
   59.7797   34.6959   45.8771 C   0  0  0  0  0  0  0  0  0  0  0  0
   60.2121   34.0590   47.0441 C   0  0  0  0  0  0  0  0  0  0  0  0
   61.4227   34.4299   47.6334 O   0  0  0  0  0  0  0  0  0  0  0  0
   61.7366   34.0567   48.9730 C   0  0  0  0  0  0  0  0  0  0  0  0
   61.3379   32.6009   49.2285 C   0  0  0  0  0  0  0  0  0  0  0  0
   58.4518   25.0701   47.4050 C   0  0  0  0  0  0  0  0  0  0  0  0
   58.3592   25.9687   46.4123 C   0  0  0  0  0  0  0  0  0  0  0  0
   57.9144   25.7446   45.0975 C   0  0  0  0  0  0  0  0  0  0  0  0
   57.3328   24.6703   44.5309 C   0  0  0  0  0  0  0  0  0  0  0  0
   58.1662   26.9149   44.3983 C   0  0  0  0  0  0  0  0  0  0  0  0
   58.6921   27.8149   45.3019 C   0  0  0  0  0  0  0  0  0  0  0  0
   59.0802   29.2244   44.9743 C   0  0  0  0  0  0  0  0  0  0  0  0
   58.7992   27.2495   46.5229 N   0  0  0  0  0  0  0  0  0  0  0  0
   56.1080   24.0087   45.0054 C   0  0  0  0  0  0  0  0  0  0  0  0
   55.0974   24.5941   45.7347 C   0  0  0  0  0  0  0  0  0  0  0  0
   54.9973   25.9442   46.0401 O   0  0  0  0  0  0  0  0  0  0  0  0
   54.2028   23.6685   46.1304 N   0  0  0  0  0  0  0  0  0  0  0  0
   54.7222   22.5211   45.6412 C   0  0  0  0  0  0  0  0  0  0  0  0
   54.1781   21.3986   45.8087 O   0  0  0  0  0  0  0  0  0  0  0  0
   55.8781   22.6850   44.9685 N   0  0  0  0  0  0  0  0  0  0  0  0
   56.4312   21.9897   44.5443 H   0  0  0  0  0  0  0  0  0  0  0  0
 19 20  2  0
 20 21  1  0
 21 22  2  0
 22 27  1  0
 27 28  2  0
 28 29  1  0
 28 30  1  0
 30 31  1  0
 31 32  2  0
 31 33  1  0
 21 23  1  0
 23 24  2  0
 24 25  1  0
 24 26  1  0
 26  1  1  0
  1  2  2  0
  2  3  1  0
  3  4  2  0
  4  5  1  0
  5  7  1  0
  7  8  2  0
  7  9  1  0
  9 10  1  0
 10 11  2  0
 11 12  1  0
 12 13  2  0
 13 14  1  0
 14 15  2  0
 15 16  1  0
 16 17  1  0
 17 18  1  0
  5  6  2  0
 26 20  1  0
  6  1  1  0
 33 27  1  0
 18  9  1  0
 15 10  1  0
 33 34  1  0
M  CHG 1  29  -1
M  CHG 1  30  -1
M  END
> <UniqueID>
52

> <SMILES>
C=c1/c(=C\c2[nH]c(=O)[n-]c2[O-])cc(C)n1-c1cccc(C(=O)N2CCOc3ccccc32)c1

> <Energy>
144.42092884011188

> <Genealogy>
C=c1c(=Cc2[nH]c(=O)[n-]c2[O-])cc(C)n1-c1cccc(C(=O)N2CCOc3ccccc32)c1 (protonated)
C=c1/c(=C\c2[nH]c(=O)[n-]c2[O-])cc(C)n1-c1cccc(C(=O)N2CCOc3ccccc32)c1 (cis-trans isomerization)
C=c1/c(=C\c2[nH]c(=O)[n-]c2[O-])cc(C)n1-c1cccc(C(=O)N2CCOc3ccccc32)c1 (3D coordinates assigned)
C=c1/c(=C\c2[nH]c(=O)[n-]c2[O-])cc(C)n1-c1cccc(C(=O)N2CCOc3ccccc32)c1 (nonaromatic ring conformer: 144.42092884011188 kcal/mol)

> <smiles>
C=c1c(=Cc2[nH]c(=O)[nH]c2O)cc(C)n1-c1cccc(C(=O)N2CCOc3ccccc32)c1

> <score_type>
oracle

> <origin>
adg

> <m_score__min__energy>
-16.280000000000001

> <m_primary>
energy

> <minimizedAffinity>
-9.85483

> <minimizedRMSD>
0.71361

> <CNNscore>
0.1955412924

> <CNNaffinity>
6.4902005196

> <CNN_VS>
1.2691022158

> <CNNaffinity_variance>
0.1963770837

$$$$
64:0


 25 27  0  0  0  0  0  0  0  0999 V2000
   58.6260   32.5922   45.7583 C   0  0  0  0  0  0  0  0  0  0  0  0
   58.4160   33.9234   45.3568 C   0  0  0  0  0  0  0  0  0  0  0  0
   59.1744   34.9541   45.9184 C   0  0  0  0  0  0  0  0  0  0  0  0
   60.1355   34.6672   46.8908 C   0  0  0  0  0  0  0  0  0  0  0  0
   60.3414   33.3461   47.3125 C   0  0  0  0  0  0  0  0  0  0  0  0
   59.5677   32.3150   46.7565 C   0  0  0  0  0  0  0  0  0  0  0  0
   61.5662   32.9822   48.5312 S   0  0  0  0  0  0  0  0  0  0  0  0
   61.9063   34.2397   49.2818 O   0  0  0  0  0  0  0  0  0  0  0  0
   62.8136   32.4959   47.8485 O   0  0  0  0  0  0  0  0  0  0  0  0
   61.0085   31.7733   49.6652 N   0  0  0  0  0  0  0  0  0  0  0  0
   59.9506   32.3033   50.5529 C   0  0  0  0  0  0  0  0  0  0  0  0
   58.5567   31.7763   50.1685 C   0  0  0  0  0  0  0  0  0  0  0  0
   58.4645   30.3583   50.2041 O   0  0  0  0  0  0  0  0  0  0  0  0
   59.6669   29.6960   49.8270 C   0  0  0  0  0  0  0  0  0  0  0  0
   60.6042   30.5451   48.9532 C   0  0  0  0  0  0  0  0  0  0  0  0
   58.2704   30.4727   44.5761 C   0  0  0  0  0  0  0  0  0  0  0  0
   57.8363   31.5142   45.2273 N   0  0  0  0  0  0  0  0  0  0  0  0
   58.5398   29.1627   45.2044 C   0  0  0  0  0  0  0  0  0  0  0  0
   59.8628   28.8095   45.5041 C   0  0  0  0  0  0  0  0  0  0  0  0
   60.1467   27.5793   46.1032 C   0  0  0  0  0  0  0  0  0  0  0  0
   59.1134   26.6861   46.3928 C   0  0  0  0  0  0  0  0  0  0  0  0
   57.7922   27.0126   46.0667 C   0  0  0  0  0  0  0  0  0  0  0  0
   56.7721   26.1102   46.3403 O   0  0  0  0  0  0  0  0  0  0  0  0
   57.5025   28.2410   45.4614 C   0  0  0  0  0  0  0  0  0  0  0  0
   56.1908   28.5308   45.0970 O   0  0  0  0  0  0  0  0  0  0  0  0
 16 17  2  0
 17  1  1  0
  1  2  2  0
  2  3  1  0
  3  4  2  0
  4  5  1  0
  5  7  1  0
  7  8  2  0
  7  9  2  0
  7 10  1  0
 10 11  1  0
 11 12  1  0
 12 13  1  0
 13 14  1  0
 14 15  1  0
  5  6  2  0
 16 18  1  0
 18 19  2  0
 19 20  1  0
 20 21  2  0
 21 22  1  0
 22 23  1  0
 22 24  2  0
 24 25  1  0
  6  1  1  0
 24 18  1  0
 15 10  1  0
M  CHG 1  23  -1
M  CHG 1  25  -1
M  END
> <UniqueID>
61

> <SMILES>
O=S(=O)(c1cccc(/N=C\c2cccc([O-])c2[O-])c1)N1CCOCC1

> <Energy>
66.32745673105343

> <Genealogy>
O=S(=O)(c1cccc(N=Cc2cccc([O-])c2[O-])c1)N1CCOCC1 (protonated)
O=S(=O)(c1cccc(/N=C\c2cccc([O-])c2[O-])c1)N1CCOCC1 (cis-trans isomerization)
O=S(=O)(c1cccc(/N=C\c2cccc([O-])c2[O-])c1)N1CCOCC1 (3D coordinates assigned)
O=S(=O)(c1cccc(/N=C\c2cccc([O-])c2[O-])c1)N1CCOCC1 (nonaromatic ring conformer: 66.32745673105343 kcal/mol)

> <smiles>
O=S(=O)(c1cccc(N=Cc2cccc(O)c2O)c1)N1CCOCC1

> <score_type>
oracle

> <origin>
adg

> <m_score__min__energy>
-16.859999999999999

> <m_primary>
energy

> <minimizedAffinity>
-7.84714

> <minimizedRMSD>
1.01327

> <CNNscore>
0.8215007782

> <CNNaffinity>
6.5055346489

> <CNN_VS>
5.3443017006

> <CNNaffinity_variance>
0.0386087336

$$$$
79:0


 25 27  0  0  0  0  0  0  0  0999 V2000
   60.1041   27.6135   47.0816 C   0  0  0  0  0  0  0  0  0  0  0  0
   59.4408   28.6019   46.4615 C   0  0  0  0  0  0  0  0  0  0  0  0
   58.4004   28.4718   45.5290 C   0  0  0  0  0  0  0  0  0  0  0  0
   57.9492   27.3980   44.8508 C   0  0  0  0  0  0  0  0  0  0  0  0
   57.8574   29.7390   45.3744 C   0  0  0  0  0  0  0  0  0  0  0  0
   58.6189   30.5951   46.1421 C   0  0  0  0  0  0  0  0  0  0  0  0
   58.3808   32.0686   46.2750 C   0  0  0  0  0  0  0  0  0  0  0  0
   59.5804   29.9091   46.7955 N   0  0  0  0  0  0  0  0  0  0  0  0
   57.7726   26.0477   45.4105 C   0  0  0  0  0  0  0  0  0  0  0  0
   58.6547   25.0391   45.2761 N   0  0  0  0  0  0  0  0  0  0  0  0
   58.0091   23.9851   45.8203 C   0  0  0  0  0  0  0  0  0  0  0  0
   58.5238   22.8407   45.8965 O   0  0  0  0  0  0  0  0  0  0  0  0
   56.7612   24.2536   46.2649 N   0  0  0  0  0  0  0  0  0  0  0  0
   56.6249   25.5599   45.9847 C   0  0  0  0  0  0  0  0  0  0  0  0
   55.4711   26.2877   46.2424 O   0  0  0  0  0  0  0  0  0  0  0  0
   60.5128   30.4707   47.7368 C   0  0  0  0  0  0  0  0  0  0  0  0
   61.6891   31.0686   47.2747 C   0  0  0  0  0  0  0  0  0  0  0  0
   62.5672   31.6195   48.1504 N   0  0  0  0  0  0  0  0  0  0  0  0
   62.3574   31.6195   49.4964 C   0  0  0  0  0  0  0  0  0  0  0  0
   61.1857   31.0210   50.0011 C   0  0  0  0  0  0  0  0  0  0  0  0
   60.2646   30.4287   49.1220 C   0  0  0  0  0  0  0  0  0  0  0  0
   59.0142   29.7933   49.6659 C   0  0  0  0  0  0  0  0  0  0  0  0
   63.3372   32.2321   50.3695 N   0  0  0  0  0  0  0  0  0  0  0  0
   63.0817   32.2632   51.8137 C   0  0  0  0  0  0  0  0  0  0  0  0
   64.5733   32.8192   49.8370 C   0  0  0  0  0  0  0  0  0  0  0  0
  1  2  2  0
  2  3  1  0
  3  4  2  0
  4  9  1  0
  9 10  1  0
 10 11  1  0
 11 12  2  0
 11 13  1  0
 13 14  1  0
 14 15  1  0
  3  5  1  0
  5  6  2  0
  6  7  1  0
  6  8  1  0
  8 16  1  0
 16 17  2  0
 17 18  1  0
 18 19  2  0
 19 23  1  0
 23 24  1  0
 23 25  1  0
 19 20  1  0
 20 21  2  0
 21 22  1  0
  8  2  1  0
 21 16  1  0
 14  9  2  0
M  CHG 1  10  -1
M  CHG 1  13  -1
M  CHG 1  15  -1
M  END
> <UniqueID>
74

> <SMILES>
C=c1/c(=C\c2[n-]c(=O)[n-]c2[O-])cc(C)n1-c1cnc(N(C)C)cc1C

> <Energy>
118.81093867670202

> <Genealogy>
C=c1c(=Cc2[n-]c(=O)[n-]c2[O-])cc(C)n1-c1cnc(N(C)C)cc1C (protonated)
C=c1/c(=C\c2[n-]c(=O)[n-]c2[O-])cc(C)n1-c1cnc(N(C)C)cc1C (cis-trans isomerization)
C=c1/c(=C\c2[n-]c(=O)[n-]c2[O-])cc(C)n1-c1cnc(N(C)C)cc1C (3D coordinates assigned)
C=c1/c(=C\c2[n-]c(=O)[n-]c2[O-])cc(C)n1-c1cnc(N(C)C)cc1C (optimized conformer: 118.81093867670202 kcal/mol)

> <smiles>
C=c1c(=Cc2[nH]c(=O)[nH]c2O)cc(C)n1-c1cnc(N(C)C)cc1C

> <score_type>
oracle

> <origin>
adg

> <m_score__min__energy>
-14.9

> <m_primary>
energy

> <minimizedAffinity>
-7.17124

> <minimizedRMSD>
1.60766

> <CNNscore>
0.2386429012

> <CNNaffinity>
6.6892037392

> <CNN_VS>
1.5963310003

> <CNNaffinity_variance>
0.2378050089

$$$$
80:0


 25 27  0  0  0  0  0  0  0  0999 V2000
   59.2268   27.9456   47.8492 C   0  0  0  0  0  0  0  0  0  0  0  0
   58.7220   28.7502   46.9003 C   0  0  0  0  0  0  0  0  0  0  0  0
   58.0682   28.3661   45.7185 C   0  0  0  0  0  0  0  0  0  0  0  0
   57.9102   27.1569   45.1412 C   0  0  0  0  0  0  0  0  0  0  0  0
   57.5959   29.5631   45.1909 C   0  0  0  0  0  0  0  0  0  0  0  0
   56.8340   29.7457   43.9153 C   0  0  0  0  0  0  0  0  0  0  0  0
   57.9852   30.5906   45.9624 N   0  0  0  0  0  0  0  0  0  0  0  0
   58.6630   30.1060   46.9914 N   0  0  0  0  0  0  0  0  0  0  0  0
   57.5967   25.9032   45.8530 C   0  0  0  0  0  0  0  0  0  0  0  0
   56.2787   25.6171   46.2339 C   0  0  0  0  0  0  0  0  0  0  0  0
   55.2582   26.5296   45.9933 O   0  0  0  0  0  0  0  0  0  0  0  0
   55.9908   24.4418   46.8522 N   0  0  0  0  0  0  0  0  0  0  0  0
   56.9595   23.5218   47.0976 C   0  0  0  0  0  0  0  0  0  0  0  0
   56.6699   22.4435   47.6750 O   0  0  0  0  0  0  0  0  0  0  0  0
   58.2400   23.7639   46.7125 N   0  0  0  0  0  0  0  0  0  0  0  0
   58.5781   24.9223   46.0910 C   0  0  0  0  0  0  0  0  0  0  0  0
   59.7711   25.1033   45.7279 O   0  0  0  0  0  0  0  0  0  0  0  0
   59.2648   30.9906   47.9940 C   0  0  0  0  0  0  0  0  0  0  0  0
   59.9222   32.1606   47.3175 C   0  0  0  0  0  0  0  0  0  0  0  0
   59.3247   33.2690   46.7453 C   0  0  0  0  0  0  0  0  0  0  0  0
   57.8608   33.5469   46.6379 C   0  0  0  0  0  0  0  0  0  0  0  0
   60.2775   34.1364   46.3497 N   0  0  0  0  0  0  0  0  0  0  0  0
   61.4273   33.6062   46.6532 O   0  0  0  0  0  0  0  0  0  0  0  0
   61.2735   32.4383   47.2351 C   0  0  0  0  0  0  0  0  0  0  0  0
   62.3996   31.5900   47.7243 C   0  0  0  0  0  0  0  0  0  0  0  0
  1  2  2  0
  2  3  1  0
  3  4  2  0
  4  9  1  0
  9 10  2  0
 10 11  1  0
 10 12  1  0
 12 13  1  0
 13 14  2  0
 13 15  1  0
 15 16  1  0
 16 17  2  0
  3  5  1  0
  5  6  1  0
  5  7  2  0
  7  8  1  0
  8 18  1  0
 18 19  1  0
 19 20  1  0
 20 21  1  0
 20 22  2  0
 22 23  1  0
 23 24  1  0
 24 25  1  0
  8  2  1  0
 24 19  2  0
 16  9  1  0
M  CHG 1  11  -1
M  CHG 1  12  -1
M  CHG 1  15  -1
M  END
> <UniqueID>
75

> <SMILES>
C=c1/c(=C\c2c([O-])[n-]c(=O)[n-]c2=O)c(C)nn1Cc1c(C)noc1C

> <Energy>
114.94322057041684

> <Genealogy>
C=c1c(=Cc2c([O-])[n-]c(=O)[n-]c2=O)c(C)nn1Cc1c(C)noc1C (protonated)
C=c1/c(=C\c2c([O-])[n-]c(=O)[n-]c2=O)c(C)nn1Cc1c(C)noc1C (cis-trans isomerization)
C=c1/c(=C\c2c([O-])[n-]c(=O)[n-]c2=O)c(C)nn1Cc1c(C)noc1C (3D coordinates assigned)
C=c1/c(=C\c2c([O-])[n-]c(=O)[n-]c2=O)c(C)nn1Cc1c(C)noc1C (optimized conformer: 114.94322057041684 kcal/mol)

> <smiles>
C=c1c(=Cc2c(O)[nH]c(=O)[nH]c2=O)c(C)nn1Cc1c(C)noc1C

> <score_type>
oracle

> <origin>
adg

> <m_score__min__energy>
-15.93

> <m_primary>
energy

> <minimizedAffinity>
-7.49150

> <minimizedRMSD>
1.04358

> <CNNscore>
0.1574778855

> <CNNaffinity>
6.2062611580

> <CNN_VS>
0.9773488641

> <CNNaffinity_variance>
0.0572979152

$$$$
81:0


 29 32  0  0  0  0  0  0  0  0999 V2000
   59.9324   29.2091   47.1946 C   0  0  0  0  0  0  0  0  0  0  0  0
   59.0195   29.8617   46.4574 C   0  0  0  0  0  0  0  0  0  0  0  0
   58.7498   31.2404   46.4755 C   0  0  0  0  0  0  0  0  0  0  0  0
   59.1570   32.2098   47.3180 C   0  0  0  0  0  0  0  0  0  0  0  0
   57.9007   31.4829   45.4123 C   0  0  0  0  0  0  0  0  0  0  0  0
   57.6262   30.2640   44.8303 C   0  0  0  0  0  0  0  0  0  0  0  0
   56.7171   30.0769   43.6524 C   0  0  0  0  0  0  0  0  0  0  0  0
   58.2992   29.2734   45.4642 N   0  0  0  0  0  0  0  0  0  0  0  0
   60.5512   32.6146   47.5490 C   0  0  0  0  0  0  0  0  0  0  0  0
   61.3410   33.1403   46.5945 N   0  0  0  0  0  0  0  0  0  0  0  0
   62.4857   33.4308   47.2503 C   0  0  0  0  0  0  0  0  0  0  0  0
   63.5011   33.8830   46.6560 O   0  0  0  0  0  0  0  0  0  0  0  0
   62.4445   33.1717   48.5822 N   0  0  0  0  0  0  0  0  0  0  0  0
   61.2186   32.6341   48.7544 C   0  0  0  0  0  0  0  0  0  0  0  0
   60.7131   32.1678   49.9631 O   0  0  0  0  0  0  0  0  0  0  0  0
   63.5548   33.2178   49.5585 C   0  0  0  0  0  0  0  0  0  0  0  0
   63.9290   31.8383   50.0961 C   0  0  0  0  0  0  0  0  0  0  0  0
   64.5405   32.0721   51.4721 C   0  0  0  0  0  0  0  0  0  0  0  0
   64.1161   33.4701   51.9115 C   0  0  0  0  0  0  0  0  0  0  0  0
   63.2098   34.0141   50.8160 C   0  0  0  0  0  0  0  0  0  0  0  0
   58.2265   27.8376   45.1420 C   0  0  0  0  0  0  0  0  0  0  0  0
   57.4400   27.0665   46.2122 C   0  0  0  0  0  0  0  0  0  0  0  0
   57.3395   25.5991   45.8763 C   0  0  0  0  0  0  0  0  0  0  0  0
   58.5110   24.8466   45.6827 C   0  0  0  0  0  0  0  0  0  0  0  0
   58.4350   23.4757   45.4203 C   0  0  0  0  0  0  0  0  0  0  0  0
   57.1905   22.8447   45.3490 C   0  0  0  0  0  0  0  0  0  0  0  0
   56.0210   23.5811   45.5450 C   0  0  0  0  0  0  0  0  0  0  0  0
   56.0883   24.9535   45.8131 C   0  0  0  0  0  0  0  0  0  0  0  0
   54.9118   25.6642   46.0228 O   0  0  0  0  0  0  0  0  0  0  0  0
  1  2  2  0
  2  3  1  0
  3  4  2  0
  4  9  1  0
  9 10  1  0
 10 11  1  0
 11 12  2  0
 11 13  1  0
 13 16  1  0
 16 17  1  0
 17 18  1  0
 18 19  1  0
 19 20  1  0
 13 14  1  0
 14 15  1  0
  3  5  1  0
  5  6  2  0
  6  7  1  0
  6  8  1  0
  8 21  1  0
 21 22  1  0
 22 23  1  0
 23 24  2  0
 24 25  1  0
 25 26  2  0
 26 27  1  0
 27 28  2  0
 28 29  1  0
  8  2  1  0
 28 23  1  0
 14  9  2  0
 20 16  1  0
M  CHG 1  10  -1
M  CHG 1  15  -1
M  CHG 1  29  -1
M  END
> <UniqueID>
76

> <SMILES>
C=c1c(=Cc2[n-]c(=O)n(C3CCCC3)c2[O-])cc(C)n1CCc1ccccc1[O-]

> <Energy>
127.65127930313928

> <Genealogy>
C=c1c(=Cc2[n-]c(=O)n(C3CCCC3)c2[O-])cc(C)n1CCc1ccccc1[O-] (protonated)
C=c1c(=Cc2[n-]c(=O)n(C3CCCC3)c2[O-])cc(C)n1CCc1ccccc1[O-] (3D coordinates assigned)
C=c1c(=Cc2[n-]c(=O)n(C3CCCC3)c2[O-])cc(C)n1CCc1ccccc1[O-] (nonaromatic ring conformer: 127.65127930313928 kcal/mol)

> <smiles>
C=c1c(=Cc2[nH]c(=O)n(C3CCCC3)c2O)cc(C)n1CCc1ccccc1O

> <score_type>
oracle

> <origin>
adg

> <m_score__min__energy>
-14.69

> <m_primary>
energy

> <minimizedAffinity>
-8.61881

> <minimizedRMSD>
1.55199

> <CNNscore>
0.3024755120

> <CNNaffinity>
7.0470581055

> <CNN_VS>
2.1315624714

> <CNNaffinity_variance>
0.1367500126

$$$$
82:0


 30 33  0  0  0  0  0  0  0  0999 V2000
   57.8951   28.1276   44.1675 C   0  0  0  0  0  0  0  0  0  0  0  0
   58.2660   27.8228   45.4227 C   0  0  0  0  0  0  0  0  0  0  0  0
   58.4150   26.5304   45.9378 C   0  0  0  0  0  0  0  0  0  0  0  0
   58.2609   25.3613   45.2848 C   0  0  0  0  0  0  0  0  0  0  0  0
   58.7915   26.6785   47.2634 C   0  0  0  0  0  0  0  0  0  0  0  0
   58.8585   28.0341   47.5069 C   0  0  0  0  0  0  0  0  0  0  0  0
   59.1873   28.6329   48.8431 C   0  0  0  0  0  0  0  0  0  0  0  0
   58.5390   28.7377   46.3933 N   0  0  0  0  0  0  0  0  0  0  0  0
   57.2029   24.3784   45.6090 C   0  0  0  0  0  0  0  0  0  0  0  0
   55.9209   24.8199   45.9696 C   0  0  0  0  0  0  0  0  0  0  0  0
   55.6192   26.1780   45.9914 O   0  0  0  0  0  0  0  0  0  0  0  0
   54.9579   23.9189   46.2912 N   0  0  0  0  0  0  0  0  0  0  0  0
   55.2142   22.5862   46.2844 C   0  0  0  0  0  0  0  0  0  0  0  0
   54.3041   21.7696   46.5812 O   0  0  0  0  0  0  0  0  0  0  0  0
   56.4531   22.1338   45.9665 N   0  0  0  0  0  0  0  0  0  0  0  0
   57.4523   22.9938   45.6400 C   0  0  0  0  0  0  0  0  0  0  0  0
   58.5985   22.5393   45.3837 O   0  0  0  0  0  0  0  0  0  0  0  0
   58.4600   30.2062   46.3098 C   0  0  0  0  0  0  0  0  0  0  0  0
   59.4506   30.8453   47.2497 C   0  0  0  0  0  0  0  0  0  0  0  0
   60.8275   30.6370   47.0773 C   0  0  0  0  0  0  0  0  0  0  0  0
   61.7475   31.2417   47.9392 C   0  0  0  0  0  0  0  0  0  0  0  0
   61.3072   32.0595   48.9942 C   0  0  0  0  0  0  0  0  0  0  0  0
   59.9280   32.2751   49.1558 C   0  0  0  0  0  0  0  0  0  0  0  0
   59.0090   31.6696   48.2950 C   0  0  0  0  0  0  0  0  0  0  0  0
   62.2532   32.6983   49.8768 N   0  0  0  0  0  0  0  0  0  0  0  0
   62.2127   32.6172   51.3280 C   0  0  0  0  0  0  0  0  0  0  0  0
   63.2533   33.6311   51.8412 C   0  0  0  0  0  0  0  0  0  0  0  0
   64.1008   34.0538   50.6348 C   0  0  0  0  0  0  0  0  0  0  0  0
   63.3683   33.4818   49.4878 C   0  0  0  0  0  0  0  0  0  0  0  0
   63.7398   33.6177   48.2912 O   0  0  0  0  0  0  0  0  0  0  0  0
  1  2  2  0
  2  3  1  0
  3  4  2  0
  4  9  1  0
  9 10  2  0
 10 11  1  0
 10 12  1  0
 12 13  1  0
 13 14  2  0
 13 15  1  0
 15 16  1  0
 16 17  2  0
  3  5  1  0
  5  6  2  0
  6  7  1  0
  6  8  1  0
  8 18  1  0
 18 19  1  0
 19 20  2  0
 20 21  1  0
 21 22  2  0
 22 25  1  0
 25 26  1  0
 26 27  1  0
 27 28  1  0
 28 29  1  0
 29 30  2  0
 22 23  1  0
 23 24  2  0
  8  2  1  0
 24 19  1  0
 16  9  1  0
 29 25  1  0
M  CHG 1  11  -1
M  CHG 1  12  -1
M  CHG 1  15  -1
M  END
> <UniqueID>
77

> <SMILES>
C=c1c(=Cc2c([O-])[n-]c(=O)[n-]c2=O)cc(C)n1Cc1ccc(N2CCCC2=O)cc1

> <Energy>
101.30507115911782

> <Genealogy>
C=c1c(=Cc2c([O-])[n-]c(=O)[n-]c2=O)cc(C)n1Cc1ccc(N2CCCC2=O)cc1 (protonated)
C=c1c(=Cc2c([O-])[n-]c(=O)[n-]c2=O)cc(C)n1Cc1ccc(N2CCCC2=O)cc1 (3D coordinates assigned)
C=c1c(=Cc2c([O-])[n-]c(=O)[n-]c2=O)cc(C)n1Cc1ccc(N2CCCC2=O)cc1 (nonaromatic ring conformer: 101.30507115911782 kcal/mol)

> <smiles>
C=c1c(=Cc2c(O)[nH]c(=O)[nH]c2=O)cc(C)n1Cc1ccc(N2CCCC2=O)cc1

> <score_type>
oracle

> <origin>
adg

> <m_score__min__energy>
-16.02

> <m_primary>
energy

> <minimizedAffinity>
-8.14149

> <minimizedRMSD>
1.30150

> <CNNscore>
0.1086267233

> <CNNaffinity>
6.1517944336

> <CNN_VS>
0.6682492495

> <CNNaffinity_variance>
0.0042755823

$$$$
84:0


 31 34  0  0  0  0  0  0  0  0999 V2000
   58.8068   30.2236   52.7948 C   0  0  0  0  0  0  0  0  0  0  0  0
   59.5889   30.6664   53.8685 C   0  0  0  0  0  0  0  0  0  0  0  0
   60.9589   30.8783   53.7033 C   0  0  0  0  0  0  0  0  0  0  0  0
   61.5695   30.6435   52.4611 C   0  0  0  0  0  0  0  0  0  0  0  0
   60.7823   30.2097   51.3812 C   0  0  0  0  0  0  0  0  0  0  0  0
   59.4073   30.0030   51.5456 C   0  0  0  0  0  0  0  0  0  0  0  0
   58.6417   29.5924   50.4612 O   0  0  0  0  0  0  0  0  0  0  0  0
   56.6213   32.0624   52.0306 C   0  0  0  0  0  0  0  0  0  0  0  0
   56.4040   30.9070   52.6795 C   0  0  0  0  0  0  0  0  0  0  0  0
   55.1639   30.3342   53.0025 C   0  0  0  0  0  0  0  0  0  0  0  0
   53.9166   30.8416   52.9570 C   0  0  0  0  0  0  0  0  0  0  0  0
   55.4330   29.0452   53.4323 C   0  0  0  0  0  0  0  0  0  0  0  0
   56.8042   28.9028   53.4356 C   0  0  0  0  0  0  0  0  0  0  0  0
   57.5296   27.6558   53.8416 C   0  0  0  0  0  0  0  0  0  0  0  0
   57.3938   30.0265   52.9750 N   0  0  0  0  0  0  0  0  0  0  0  0
   52.9537   30.6534   51.8587 C   0  0  0  0  0  0  0  0  0  0  0  0
   53.1127   29.7907   50.8376 N   0  0  0  0  0  0  0  0  0  0  0  0
   52.0700   30.0722   50.0275 C   0  0  0  0  0  0  0  0  0  0  0  0
   51.8606   29.4515   48.9526 O   0  0  0  0  0  0  0  0  0  0  0  0
   51.2765   31.0780   50.4525 N   0  0  0  0  0  0  0  0  0  0  0  0
   51.8585   31.4437   51.6063 C   0  0  0  0  0  0  0  0  0  0  0  0
   51.4031   32.4814   52.4079 O   0  0  0  0  0  0  0  0  0  0  0  0
   63.0519   30.8890   52.2878 C   0  0  0  0  0  0  0  0  0  0  0  0
   63.3860   32.2732   51.8846 N   0  0  0  0  0  0  0  0  0  0  0  0
   62.2324   33.1866   51.7107 C   0  0  0  0  0  0  0  0  0  0  0  0
   62.0729   33.6822   50.2687 C   0  0  0  0  0  0  0  0  0  0  0  0
   62.4615   32.6101   49.3383 N   0  0  0  0  0  0  0  0  0  0  0  0
   63.9202   32.3830   49.4172 C   0  0  0  0  0  0  0  0  0  0  0  0
   64.4525   32.4031   50.8707 C   0  0  0  0  0  0  0  0  0  0  0  0
   62.0666   32.9242   47.9496 C   0  0  0  0  0  0  0  0  0  0  0  0
   63.2694   33.3806   47.1247 C   0  0  0  0  0  0  0  0  0  0  0  0
  8  9  2  0
  9 10  1  0
 10 11  2  0
 11 16  1  0
 16 17  1  0
 17 18  1  0
 18 19  2  0
 18 20  1  0
 20 21  1  0
 21 22  1  0
 10 12  1  0
 12 13  2  0
 13 14  1  0
 13 15  1  0
 15  1  1  0
  1  2  2  0
  2  3  1  0
  3  4  2  0
  4 23  1  0
 23 24  1  0
 24 25  1  0
 25 26  1  0
 26 27  1  0
 27 30  1  0
 30 31  1  0
 27 28  1  0
 28 29  1  0
  4  5  1  0
  5  6  2  0
  6  7  1  0
 15  9  1  0
  6  1  1  0
 21 16  2  0
 29 24  1  0
M  CHG 1   7  -1
M  CHG 1  17  -1
M  CHG 1  20  -1
M  CHG 1  22  -1
M  END
> <UniqueID>
79

> <SMILES>
C=c1/c(=C\c2[n-]c(=O)[n-]c2[O-])cc(C)n1-c1ccc(CN2CCN(CC)CC2)cc1[O-]

> <Energy>
144.55554807304844

> <Genealogy>
C=c1c(=Cc2[n-]c(=O)[n-]c2[O-])cc(C)n1-c1ccc(CN2CCN(CC)CC2)cc1[O-] (protonated)
C=c1/c(=C\c2[n-]c(=O)[n-]c2[O-])cc(C)n1-c1ccc(CN2CCN(CC)CC2)cc1[O-] (cis-trans isomerization)
C=c1/c(=C\c2[n-]c(=O)[n-]c2[O-])cc(C)n1-c1ccc(CN2CCN(CC)CC2)cc1[O-] (3D coordinates assigned)
C=c1/c(=C\c2[n-]c(=O)[n-]c2[O-])cc(C)n1-c1ccc(CN2CCN(CC)CC2)cc1[O-] (nonaromatic ring conformer: 144.55554807304844 kcal/mol)

> <smiles>
C=c1c(=Cc2[nH]c(=O)[nH]c2O)cc(C)n1-c1ccc(CN2CCN(CC)CC2)cc1O

> <score_type>
oracle

> <origin>
adg

> <m_score__min__energy>
-17.059999999999999

> <m_primary>
energy

> <minimizedAffinity>
-5.27806

> <minimizedRMSD>
1.81314

> <CNNscore>
0.0734990016

> <CNNaffinity>
4.2351951599

> <CNN_VS>
0.3112826049

> <CNNaffinity_variance>
1.8132272959

$$$$
8:0


 34 37  0  0  0  0  0  0  0  0999 V2000
   58.6759   30.0589   44.9729 C   0  0  0  0  0  0  0  0  0  0  0  0
   58.8462   29.5256   46.1951 C   0  0  0  0  0  0  0  0  0  0  0  0
   58.9077   28.1581   46.4899 C   0  0  0  0  0  0  0  0  0  0  0  0
   58.8642   27.1290   45.6186 C   0  0  0  0  0  0  0  0  0  0  0  0
   59.0773   28.0662   47.8618 C   0  0  0  0  0  0  0  0  0  0  0  0
   59.0688   29.3521   48.3525 C   0  0  0  0  0  0  0  0  0  0  0  0
   58.9724   30.2479   47.3414 N   0  0  0  0  0  0  0  0  0  0  0  0
   58.0986   25.8848   45.8420 C   0  0  0  0  0  0  0  0  0  0  0  0
   58.6300   24.6522   45.9395 N   0  0  0  0  0  0  0  0  0  0  0  0
   57.5641   23.8701   46.2131 C   0  0  0  0  0  0  0  0  0  0  0  0
   57.6595   22.6253   46.3735 O   0  0  0  0  0  0  0  0  0  0  0  0
   56.3883   24.5291   46.3086 N   0  0  0  0  0  0  0  0  0  0  0  0
   56.7467   25.8034   46.0848 C   0  0  0  0  0  0  0  0  0  0  0  0
   55.8590   26.8724   46.1054 O   0  0  0  0  0  0  0  0  0  0  0  0
   59.3321   29.6959   49.7635 C   0  0  0  0  0  0  0  0  0  0  0  0
   60.5396   29.7829   50.1177 O   0  0  0  0  0  0  0  0  0  0  0  0
   58.2869   30.0037   50.7302 N   0  0  0  0  0  0  0  0  0  0  0  0
   58.4727   29.4396   52.0918 C   0  0  0  0  0  0  0  0  0  0  0  0
   59.4346   30.2560   52.9768 C   0  0  0  0  0  0  0  0  0  0  0  0
   59.0822   31.6886   52.9848 N   0  0  0  0  0  0  0  0  0  0  0  0
   59.0728   32.2001   51.6028 C   0  0  0  0  0  0  0  0  0  0  0  0
   58.0129   31.4550   50.7878 C   0  0  0  0  0  0  0  0  0  0  0  0
   57.5995   29.3024   50.7992 H   0  0  0  0  0  0  0  0  0  0  0  0
   60.0446   32.4368   53.8244 C   0  0  0  0  0  0  0  0  0  0  0  0
   61.0179   33.2508   52.9595 C   0  0  0  0  0  0  0  0  0  0  0  0
   62.4261   32.6595   53.0051 C   0  0  0  0  0  0  0  0  0  0  0  0
   59.0664   31.7097   47.4935 C   0  0  0  0  0  0  0  0  0  0  0  0
   60.4441   32.1158   47.9404 C   0  0  0  0  0  0  0  0  0  0  0  0
   60.6098   33.1475   48.8804 C   0  0  0  0  0  0  0  0  0  0  0  0
   61.8881   33.4973   49.3261 C   0  0  0  0  0  0  0  0  0  0  0  0
   63.0111   32.8293   48.8279 C   0  0  0  0  0  0  0  0  0  0  0  0
   64.6118   33.2610   49.3971 Cl  0  0  0  0  0  0  0  0  0  0  0  0
   62.8557   31.8160   47.8778 C   0  0  0  0  0  0  0  0  0  0  0  0
   61.5797   31.4607   47.4340 C   0  0  0  0  0  0  0  0  0  0  0  0
  1  2  2  0
  2  3  1  0
  3  4  2  0
  4  8  1  0
  8  9  1  0
  9 10  1  0
 10 11  2  0
 10 12  1  0
 12 13  1  0
 13 14  1  0
  3  5  1  0
  5  6  2  0
  6 15  1  0
 15 16  2  0
 15 17  1  0
 17 18  1  0
 18 19  1  0
 19 20  1  0
 20 24  1  0
 24 25  1  0
 25 26  1  0
 20 21  1  0
 21 22  1  0
  6  7  1  0
  7 27  1  0
 27 28  1  0
 28 29  2  0
 29 30  1  0
 30 31  2  0
 31 32  1  0
 31 33  1  0
 33 34  2  0
  7  2  1  0
 34 28  1  0
 13  8  2  0
 22 17  1  0
 17 23  1  0
M  CHG 1   9  -1
M  CHG 1  12  -1
M  CHG 1  14  -1
M  CHG 1  17   1
M  END
> <UniqueID>
9

> <SMILES>
C=c1c(=Cc2[n-]c(=O)[n-]c2[O-])cc(C(=O)[NH+]2CCN(CCC)CC2)n1Cc1ccc(Cl)cc1

> <Energy>
135.29648917993842

> <Genealogy>
C=c1c(=Cc2[n-]c(=O)[n-]c2[O-])cc(C(=O)[NH+]2CCN(CCC)CC2)n1Cc1ccc(Cl)cc1 (protonated)
C=c1c(=Cc2[n-]c(=O)[n-]c2[O-])cc(C(=O)[NH+]2CCN(CCC)CC2)n1Cc1ccc(Cl)cc1 (3D coordinates assigned)
C=c1c(=Cc2[n-]c(=O)[n-]c2[O-])cc(C(=O)[NH+]2CCN(CCC)CC2)n1Cc1ccc(Cl)cc1 (nonaromatic ring conformer: 135.29648917993842 kcal/mol)

> <smiles>
C=c1c(=Cc2[nH]c(=O)[nH]c2O)cc(C(=O)N2CCN(CCC)CC2)n1Cc1ccc(Cl)cc1

> <score_type>
oracle

> <origin>
adg

> <m_score__min__energy>
-15.24

> <m_primary>
energy

> <minimizedAffinity>
-7.14553

> <minimizedRMSD>
0.83237

> <CNNscore>
0.0983848870

> <CNNaffinity>
6.2115154266

> <CNN_VS>
0.6111192703

> <CNNaffinity_variance>
0.1158558503

$$$$
15:0


 36 40  0  0  0  0  0  0  0  0999 V2000
   61.1712   30.8492   47.7867 C   0  0  0  0  0  0  0  0  0  0  0  0
   62.5565   31.0660   47.7089 C   0  0  0  0  0  0  0  0  0  0  0  0
   63.0748   32.3587   47.7974 C   0  0  0  0  0  0  0  0  0  0  0  0
   62.2166   33.4450   47.9693 C   0  0  0  0  0  0  0  0  0  0  0  0
   60.8369   33.2429   48.0482 C   0  0  0  0  0  0  0  0  0  0  0  0
   60.2997   31.9492   47.9559 C   0  0  0  0  0  0  0  0  0  0  0  0
   60.3015   29.3710   45.3745 C   0  0  0  0  0  0  0  0  0  0  0  0
   60.2612   28.8363   46.6053 C   0  0  0  0  0  0  0  0  0  0  0  0
   59.9439   27.5107   46.9499 C   0  0  0  0  0  0  0  0  0  0  0  0
   59.4471   26.4992   46.2137 C   0  0  0  0  0  0  0  0  0  0  0  0
   60.2583   27.3760   48.2923 C   0  0  0  0  0  0  0  0  0  0  0  0
   60.6917   28.6095   48.7284 C   0  0  0  0  0  0  0  0  0  0  0  0
   61.2383   28.8857   50.0933 C   0  0  0  0  0  0  0  0  0  0  0  0
   60.6717   29.5012   47.7145 N   0  0  0  0  0  0  0  0  0  0  0  0
   58.0571   26.0272   46.2427 C   0  0  0  0  0  0  0  0  0  0  0  0
   57.6927   24.8188   46.7036 N   0  0  0  0  0  0  0  0  0  0  0  0
   56.3441   24.8481   46.6238 C   0  0  0  0  0  0  0  0  0  0  0  0
   55.6248   23.8713   46.9583 O   0  0  0  0  0  0  0  0  0  0  0  0
   55.8280   26.0093   46.1664 N   0  0  0  0  0  0  0  0  0  0  0  0
   56.9234   26.7533   45.9438 C   0  0  0  0  0  0  0  0  0  0  0  0
   56.8759   28.0742   45.5075 O   0  0  0  0  0  0  0  0  0  0  0  0
   56.0499   28.4796   45.3303 H   0  0  0  0  0  0  0  0  0  0  0  0
   58.5505   31.7238   48.0847 S   0  0  0  0  0  0  0  0  0  0  0  0
   57.8338   32.9622   47.6189 O   0  0  0  0  0  0  0  0  0  0  0  0
   58.1350   30.5910   47.1879 O   0  0  0  0  0  0  0  0  0  0  0  0
   58.1260   31.3768   49.7445 N   0  0  0  0  0  0  0  0  0  0  0  0
   58.3464   32.5712   50.5738 C   0  0  0  0  0  0  0  0  0  0  0  0
   57.7815   32.3550   51.9913 C   0  0  0  0  0  0  0  0  0  0  0  0
   57.8322   30.8695   52.4599 C   0  0  0  0  0  0  0  0  0  0  0  0
   59.0343   30.1839   51.7736 C   0  0  0  0  0  0  0  0  0  0  0  0
   58.9121   30.2198   50.2355 C   0  0  0  0  0  0  0  0  0  0  0  0
   56.5596   30.1429   52.1746 N   0  0  0  0  0  0  0  0  0  0  0  0
   55.3768   31.0213   52.2135 C   0  0  0  0  0  0  0  0  0  0  0  0
   54.2103   30.2350   52.8006 C   0  0  0  0  0  0  0  0  0  0  0  0
   54.7878   28.9099   53.2423 C   0  0  0  0  0  0  0  0  0  0  0  0
   56.2890   29.0897   53.1664 C   0  0  0  0  0  0  0  0  0  0  0  0
  7  8  2  0
  8  9  1  0
  9 10  2  0
 10 15  1  0
 15 16  1  0
 16 17  1  0
 17 18  2  0
 17 19  1  0
 19 20  1  0
 20 21  1  0
  9 11  1  0
 11 12  2  0
 12 13  1  0
 12 14  1  0
 14  1  1  0
  1  2  2  0
  2  3  1  0
  3  4  2  0
  4  5  1  0
  5  6  2  0
  6 23  1  0
 23 24  2  0
 23 25  2  0
 23 26  1  0
 26 27  1  0
 27 28  1  0
 28 29  1  0
 29 32  1  0
 32 33  1  0
 33 34  1  0
 34 35  1  0
 35 36  1  0
 29 30  1  0
 30 31  1  0
 14  8  1  0
  6  1  1  0
 31 26  1  0
 20 15  2  0
 36 32  1  0
 21 22  1  0
M  CHG 1  16  -1
M  CHG 1  19  -1
M  END
> <UniqueID>
15

> <SMILES>
C=c1c(=Cc2[n-]c(=O)[n-]c2O)cc(C)n1-c1ccccc1S(=O)(=O)N1CCC(N2CCCC2)CC1

> <Energy>
149.31037328779738

> <Genealogy>
C=c1c(=Cc2[n-]c(=O)[n-]c2O)cc(C)n1-c1ccccc1S(=O)(=O)N1CCC(N2CCCC2)CC1 (protonated)
C=c1c(=Cc2[n-]c(=O)[n-]c2O)cc(C)n1-c1ccccc1S(=O)(=O)N1CCC(N2CCCC2)CC1 (3D coordinates assigned)
C=c1c(=Cc2[n-]c(=O)[n-]c2O)cc(C)n1-c1ccccc1S(=O)(=O)N1CCC(N2CCCC2)CC1 (nonaromatic ring conformer: 149.31037328779738 kcal/mol)

> <smiles>
C=c1c(=Cc2[nH]c(=O)[nH]c2O)cc(C)n1-c1ccccc1S(=O)(=O)N1CCC(N2CCCC2)CC1

> <score_type>
oracle

> <origin>
adg

> <m_score__min__energy>
-14.970000000000001

> <m_primary>
energy

> <minimizedAffinity>
-7.69154

> <minimizedRMSD>
0.60253

> <CNNscore>
0.6420764923

> <CNNaffinity>
7.1677699089

> <CNN_VS>
4.6022567749

> <CNNaffinity_variance>
0.0354243107

$$$$
19:0


 26 29  0  0  0  0  0  0  0  0999 V2000
   60.8281   28.8630   46.0184 C   0  0  0  0  0  0  0  0  0  0  0  0
   59.6126   28.2864   45.8902 C   0  0  0  0  0  0  0  0  0  0  0  0
   59.4874   26.8841   46.0446 C   0  0  0  0  0  0  0  0  0  0  0  0
   60.4951   26.1900   46.3598 O   0  0  0  0  0  0  0  0  0  0  0  0
   58.2148   26.2863   45.8919 C   0  0  0  0  0  0  0  0  0  0  0  0
   57.9711   24.9617   45.9839 C   0  0  0  0  0  0  0  0  0  0  0  0
   57.1489   27.0932   45.6687 N   0  0  0  0  0  0  0  0  0  0  0  0
   57.2625   28.4358   45.5360 C   0  0  0  0  0  0  0  0  0  0  0  0
   56.2220   29.1159   45.3199 O   0  0  0  0  0  0  0  0  0  0  0  0
   58.4872   29.0405   45.6287 N   0  0  0  0  0  0  0  0  0  0  0  0
   58.5556   30.4701   45.4509 C   0  0  0  0  0  0  0  0  0  0  0  0
   58.0826   31.0531   44.2669 C   0  0  0  0  0  0  0  0  0  0  0  0
   58.1467   32.4379   44.0874 C   0  0  0  0  0  0  0  0  0  0  0  0
   58.6841   33.2550   45.0926 C   0  0  0  0  0  0  0  0  0  0  0  0
   58.7541   34.6460   44.9241 C   0  0  0  0  0  0  0  0  0  0  0  0
   59.2906   35.4502   45.9341 C   0  0  0  0  0  0  0  0  0  0  0  0
   59.7618   34.8733   47.1171 C   0  0  0  0  0  0  0  0  0  0  0  0
   59.6980   33.4882   47.2986 C   0  0  0  0  0  0  0  0  0  0  0  0
   59.1605   32.6703   46.2922 C   0  0  0  0  0  0  0  0  0  0  0  0
   59.0908   31.2790   46.4626 C   0  0  0  0  0  0  0  0  0  0  0  0
   56.9406   24.2061   45.2454 C   0  0  0  0  0  0  0  0  0  0  0  0
   57.0292   23.8786   43.8822 C   0  0  0  0  0  0  0  0  0  0  0  0
   55.8891   23.2552   43.3838 C   0  0  0  0  0  0  0  0  0  0  0  0
   54.7538   23.1416   44.6236 S   0  0  0  0  0  0  0  0  0  0  0  0
   55.7082   23.8773   45.7909 C   0  0  0  0  0  0  0  0  0  0  0  0
   55.3146   24.1180   47.1006 O   0  0  0  0  0  0  0  0  0  0  0  0
  1  2  2  0
  2  3  1  0
  3  4  2  0
  3  5  1  0
  5  6  2  0
  6 21  1  0
 21 22  1  0
 22 23  2  0
 23 24  1  0
 24 25  1  0
 25 26  2  0
  5  7  1  0
  7  8  1  0
  8  9  2  0
  8 10  1  0
 10 11  1  0
 11 12  2  0
 12 13  1  0
 13 14  2  0
 14 15  1  0
 15 16  2  0
 16 17  1  0
 17 18  2  0
 18 19  1  0
 19 20  2  0
 10  2  1  0
 20 11  1  0
 25 21  1  0
 19 14  1  0
M  CHG 1   7  -1
M  CHG 1  26  -1
M  END
> <UniqueID>
19

> <SMILES>
C=c1c(=O)c(=Cc2ccsc2[O-])[n-]c(=O)n1-c1ccc2ccccc2c1

> <Energy>
100.98152978822543

> <Genealogy>
C=c1c(=O)c(=Cc2ccsc2[O-])[n-]c(=O)n1-c1ccc2ccccc2c1 (protonated)
C=c1c(=O)c(=Cc2ccsc2[O-])[n-]c(=O)n1-c1ccc2ccccc2c1 (3D coordinates assigned)
C=c1c(=O)c(=Cc2ccsc2[O-])[n-]c(=O)n1-c1ccc2ccccc2c1 (optimized conformer: 100.98152978822543 kcal/mol)

> <smiles>
C=c1c(=O)c(=Cc2ccsc2O)[nH]c(=O)n1-c1ccc2ccccc2c1

> <score_type>
oracle

> <origin>
adg

> <m_score__min__energy>
-14.390000000000001

> <m_primary>
energy

> <minimizedAffinity>
-8.61265

> <minimizedRMSD>
0.97218

> <CNNscore>
0.2889230549

> <CNNaffinity>
6.3260111809

> <CNN_VS>
1.8277304173

> <CNNaffinity_variance>
0.0872595608

$$$$
21:0


 26 28  0  0  0  0  0  0  0  0999 V2000
   60.2989   30.5065   47.4167 C   0  0  0  0  0  0  0  0  0  0  0  0
   59.3640   30.7673   46.4800 C   0  0  0  0  0  0  0  0  0  0  0  0
   58.7076   32.0268   46.5245 C   0  0  0  0  0  0  0  0  0  0  0  0
   57.9583   32.4767   45.4171 C   0  0  0  0  0  0  0  0  0  0  0  0
   57.3173   33.8371   45.3971 C   0  0  0  0  0  0  0  0  0  0  0  0
   57.8165   31.6513   44.3004 C   0  0  0  0  0  0  0  0  0  0  0  0
   58.3821   30.3812   44.2793 C   0  0  0  0  0  0  0  0  0  0  0  0
   59.0992   29.8797   45.3815 C   0  0  0  0  0  0  0  0  0  0  0  0
   59.4564   28.5685   45.3257 C   0  0  0  0  0  0  0  0  0  0  0  0
   58.6711   27.4245   45.8433 C   0  0  0  0  0  0  0  0  0  0  0  0
   57.2729   27.3741   45.7073 C   0  0  0  0  0  0  0  0  0  0  0  0
   56.5834   28.4018   45.0756 O   0  0  0  0  0  0  0  0  0  0  0  0
   56.5844   26.3027   46.1792 N   0  0  0  0  0  0  0  0  0  0  0  0
   57.2264   25.2602   46.7649 C   0  0  0  0  0  0  0  0  0  0  0  0
   56.5666   24.2806   47.1998 O   0  0  0  0  0  0  0  0  0  0  0  0
   58.5789   25.2702   46.8765 N   0  0  0  0  0  0  0  0  0  0  0  0
   59.3128   26.3195   46.4234 C   0  0  0  0  0  0  0  0  0  0  0  0
   60.5678   26.2933   46.5408 O   0  0  0  0  0  0  0  0  0  0  0  0
   58.8583   32.8513   47.6505 O   0  0  0  0  0  0  0  0  0  0  0  0
   59.6023   34.0675   47.6276 C   0  0  0  0  0  0  0  0  0  0  0  0
   61.0474   33.8135   47.9557 C   0  0  0  0  0  0  0  0  0  0  0  0
   61.9801   33.5743   46.9321 C   0  0  0  0  0  0  0  0  0  0  0  0
   63.3247   33.3490   47.2446 C   0  0  0  0  0  0  0  0  0  0  0  0
   63.7492   33.3804   48.5756 C   0  0  0  0  0  0  0  0  0  0  0  0
   62.8303   33.6338   49.5966 C   0  0  0  0  0  0  0  0  0  0  0  0
   61.4836   33.8479   49.2897 C   0  0  0  0  0  0  0  0  0  0  0  0
  1  2  2  0
  2  3  1  0
  3 19  1  0
 19 20  1  0
 20 21  1  0
 21 22  2  0
 22 23  1  0
 23 24  2  0
 24 25  1  0
 25 26  2  0
  3  4  2  0
  4  5  1  0
  4  6  1  0
  6  7  2  0
  7  8  1  0
  8  9  2  0
  9 10  1  0
 10 11  2  0
 11 12  1  0
 11 13  1  0
 13 14  1  0
 14 15  2  0
 14 16  1  0
 16 17  1  0
 17 18  2  0
  8  2  1  0
 17 10  1  0
 26 21  1  0
M  CHG 1  12  -1
M  CHG 1  13  -1
M  CHG 1  16  -1
M  END
> <UniqueID>
21

> <SMILES>
C=c1c(OCc2ccccc2)c(C)cc/c1=C/c1c([O-])[n-]c(=O)[n-]c1=O

> <Energy>
73.25928653028767

> <Genealogy>
C=c1c(OCc2ccccc2)c(C)ccc1=Cc1c([O-])[n-]c(=O)[n-]c1=O (protonated)
C=c1c(OCc2ccccc2)c(C)cc/c1=C/c1c([O-])[n-]c(=O)[n-]c1=O (cis-trans isomerization)
C=c1c(OCc2ccccc2)c(C)cc/c1=C/c1c([O-])[n-]c(=O)[n-]c1=O (3D coordinates assigned)
C=c1c(OCc2ccccc2)c(C)cc/c1=C/c1c([O-])[n-]c(=O)[n-]c1=O (optimized conformer: 73.25928653028767 kcal/mol)

> <smiles>
C=c1c(OCc2ccccc2)c(C)ccc1=Cc1c(O)[nH]c(=O)[nH]c1=O

> <score_type>
oracle

> <origin>
adg

> <m_score__min__energy>
-16.100000000000001

> <m_primary>
energy

> <minimizedAffinity>
-8.95771

> <minimizedRMSD>
0.86206

> <CNNscore>
0.8411881924

> <CNNaffinity>
7.0080342293

> <CNN_VS>
5.8950757980

> <CNNaffinity_variance>
0.1020119861

$$$$
27:0


 31 34  0  0  0  0  0  0  0  0999 V2000
   60.5076   27.5100   49.1864 C   0  0  0  0  0  0  0  0  0  0  0  0
   60.4902   28.6884   48.5408 C   0  0  0  0  0  0  0  0  0  0  0  0
   60.3075   28.8868   47.1632 C   0  0  0  0  0  0  0  0  0  0  0  0
   59.9122   28.0415   46.1896 C   0  0  0  0  0  0  0  0  0  0  0  0
   60.5863   30.2188   46.9229 C   0  0  0  0  0  0  0  0  0  0  0  0
   60.8719   30.7978   48.1403 C   0  0  0  0  0  0  0  0  0  0  0  0
   60.8002   29.8760   49.1330 N   0  0  0  0  0  0  0  0  0  0  0  0
   58.7585   27.1300   46.2575 C   0  0  0  0  0  0  0  0  0  0  0  0
   58.7592   25.9398   46.8872 N   0  0  0  0  0  0  0  0  0  0  0  0
   57.4697   25.5454   46.8059 C   0  0  0  0  0  0  0  0  0  0  0  0
   57.0656   24.4500   47.2759 O   0  0  0  0  0  0  0  0  0  0  0  0
   56.6458   26.4211   46.1921 N   0  0  0  0  0  0  0  0  0  0  0  0
   57.4766   27.4249   45.8651 C   0  0  0  0  0  0  0  0  0  0  0  0
   57.0690   28.5887   45.2260 O   0  0  0  0  0  0  0  0  0  0  0  0
   61.1273   32.2466   48.3038 C   0  0  0  0  0  0  0  0  0  0  0  0
   62.3214   32.6408   48.1913 O   0  0  0  0  0  0  0  0  0  0  0  0
   60.0526   33.1890   48.5868 N   0  0  0  0  0  0  0  0  0  0  0  0
   58.6973   32.6344   48.3396 C   0  0  0  0  0  0  0  0  0  0  0  0
   58.3772   32.4698   46.8421 C   0  0  0  0  0  0  0  0  0  0  0  0
   58.5851   33.7909   46.0883 C   0  0  0  0  0  0  0  0  0  0  0  0
   58.3564   33.5999   44.5854 C   0  0  0  0  0  0  0  0  0  0  0  0
   59.9945   34.3342   46.3582 C   0  0  0  0  0  0  0  0  0  0  0  0
   60.2315   34.4730   47.8683 C   0  0  0  0  0  0  0  0  0  0  0  0
   60.8066   33.0601   49.2066 H   0  0  0  0  0  0  0  0  0  0  0  0
   60.9450   30.1372   50.5764 C   0  0  0  0  0  0  0  0  0  0  0  0
   59.7110   30.7684   51.1845 C   0  0  0  0  0  0  0  0  0  0  0  0
   58.4400   30.1670   51.0971 C   0  0  0  0  0  0  0  0  0  0  0  0
   57.3211   30.7928   51.6554 C   0  0  0  0  0  0  0  0  0  0  0  0
   57.4530   32.0307   52.2874 C   0  0  0  0  0  0  0  0  0  0  0  0
   58.7022   32.6493   52.3565 C   0  0  0  0  0  0  0  0  0  0  0  0
   59.8239   32.0269   51.8005 C   0  0  0  0  0  0  0  0  0  0  0  0
  1  2  2  0
  2  3  1  0
  3  4  2  0
  4  8  1  0
  8  9  1  0
  9 10  1  0
 10 11  2  0
 10 12  1  0
 12 13  1  0
 13 14  1  0
  3  5  1  0
  5  6  2  0
  6 15  1  0
 15 16  2  0
 17 15  1  0
 17 18  1  0
 18 19  1  0
 19 20  1  0
 20 21  1  0
 20 22  1  0
 22 23  1  0
  6  7  1  0
  7 25  1  0
 25 26  1  0
 26 27  2  0
 27 28  1  0
 28 29  2  0
 29 30  1  0
 30 31  2  0
  7  2  1  0
 31 26  1  0
 13  8  2  0
 23 17  1  0
 17 24  1  0
M  CHG 1   9  -1
M  CHG 1  12  -1
M  CHG 1  14  -1
M  CHG 1  17   1
M  END
> <UniqueID>
27

> <SMILES>
C=c1c(=Cc2[n-]c(=O)[n-]c2[O-])cc(C(=O)[NH+]2CCC(C)CC2)n1Cc1ccccc1

> <Energy>
133.17909386158237

> <Genealogy>
C=c1c(=Cc2[n-]c(=O)[n-]c2[O-])cc(C(=O)[NH+]2CCC(C)CC2)n1Cc1ccccc1 (protonated)
C=c1c(=Cc2[n-]c(=O)[n-]c2[O-])cc(C(=O)[NH+]2CCC(C)CC2)n1Cc1ccccc1 (3D coordinates assigned)
C=c1c(=Cc2[n-]c(=O)[n-]c2[O-])cc(C(=O)[NH+]2CCC(C)CC2)n1Cc1ccccc1 (nonaromatic ring conformer: 133.17909386158237 kcal/mol)

> <smiles>
C=c1c(=Cc2[nH]c(=O)[nH]c2O)cc(C(=O)N2CCC(C)CC2)n1Cc1ccccc1

> <score_type>
oracle

> <origin>
adg

> <m_score__min__energy>
-15.52

> <m_primary>
energy

> <minimizedAffinity>
-8.25607

> <minimizedRMSD>
1.21909

> <CNNscore>
0.3742656410

> <CNNaffinity>
6.8458342552

> <CNN_VS>
2.5621604919

> <CNNaffinity_variance>
0.0113082789

$$$$
37:0


 33 37  0  0  0  0  0  0  0  0999 V2000
   56.8192   29.7224   53.0683 C   0  0  0  0  0  0  0  0  0  0  0  0
   57.6283   30.0965   54.1446 C   0  0  0  0  0  0  0  0  0  0  0  0
   58.9659   30.4241   53.9297 C   0  0  0  0  0  0  0  0  0  0  0  0
   59.4914   30.3779   52.6288 C   0  0  0  0  0  0  0  0  0  0  0  0
   58.6824   30.0171   51.5892 N   0  0  0  0  0  0  0  0  0  0  0  0
   57.3746   29.6918   51.7830 C   0  0  0  0  0  0  0  0  0  0  0  0
   59.0539   29.9916   50.6778 H   0  0  0  0  0  0  0  0  0  0  0  0
   54.3964   31.1007   52.0722 C   0  0  0  0  0  0  0  0  0  0  0  0
   54.3417   30.0113   52.8537 C   0  0  0  0  0  0  0  0  0  0  0  0
   53.1957   29.2788   53.2061 C   0  0  0  0  0  0  0  0  0  0  0  0
   51.8891   29.5568   53.0463 C   0  0  0  0  0  0  0  0  0  0  0  0
   53.6478   28.1127   53.7995 C   0  0  0  0  0  0  0  0  0  0  0  0
   55.0242   28.1988   53.8533 C   0  0  0  0  0  0  0  0  0  0  0  0
   55.9181   27.1347   54.4120 C   0  0  0  0  0  0  0  0  0  0  0  0
   55.4466   29.3483   53.2831 N   0  0  0  0  0  0  0  0  0  0  0  0
   51.2561   30.8568   53.3200 C   0  0  0  0  0  0  0  0  0  0  0  0
   50.6183   31.1663   54.4649 N   0  0  0  0  0  0  0  0  0  0  0  0
   50.0734   32.3726   54.2021 C   0  0  0  0  0  0  0  0  0  0  0  0
   49.3986   33.0112   55.0501 O   0  0  0  0  0  0  0  0  0  0  0  0
   50.3017   32.8361   52.9549 N   0  0  0  0  0  0  0  0  0  0  0  0
   51.0373   31.8556   52.4055 C   0  0  0  0  0  0  0  0  0  0  0  0
   51.4977   31.8728   51.0949 O   0  0  0  0  0  0  0  0  0  0  0  0
   60.8802   30.6751   52.3951 N   0  0  0  0  0  0  0  0  0  0  0  0
   61.5885   30.0116   51.2887 C   0  0  0  0  0  0  0  0  0  0  0  0
   63.0067   30.5636   51.1092 C   0  0  0  0  0  0  0  0  0  0  0  0
   63.0071   32.0280   51.2362 N   0  0  0  0  0  0  0  0  0  0  0  0
   63.7338   32.8577   50.3084 C   0  0  0  0  0  0  0  0  0  0  0  0
   64.1976   33.9674   50.6899 O   0  0  0  0  0  0  0  0  0  0  0  0
   62.3153   32.6696   52.3672 C   0  0  0  0  0  0  0  0  0  0  0  0
   61.5878   31.6434   53.2428 C   0  0  0  0  0  0  0  0  0  0  0  0
   63.9653   32.4193   48.8889 C   0  0  0  0  0  0  0  0  0  0  0  0
   62.6750   32.2278   48.0871 C   0  0  0  0  0  0  0  0  0  0  0  0
   63.5640   33.4330   47.8224 C   0  0  0  0  0  0  0  0  0  0  0  0
  8  9  2  0
  9 10  1  0
 10 11  2  0
 11 16  1  0
 16 17  1  0
 17 18  1  0
 18 19  2  0
 18 20  1  0
 20 21  1  0
 21 22  1  0
 10 12  1  0
 12 13  2  0
 13 14  1  0
 13 15  1  0
 15  1  1  0
  1  2  2  0
  2  3  1  0
  3  4  2  0
  4 23  1  0
 23 24  1  0
 24 25  1  0
 25 26  1  0
 26 27  1  0
 27 28  2  0
 27 31  1  0
 31 32  1  0
 32 33  1  0
 26 29  1  0
 29 30  1  0
  4  5  1  0
  5  6  2  0
 15  9  1  0
  6  1  1  0
 21 16  2  0
 30 23  1  0
 33 31  1  0
  5  7  1  0
M  CHG 1   5   1
M  CHG 1  17  -1
M  CHG 1  20  -1
M  CHG 1  22  -1
M  END
> <UniqueID>
37

> <SMILES>
C=c1c(=Cc2[n-]c(=O)[n-]c2[O-])cc(C)n1-c1ccc(N2CCN(C(=O)C3CC3)CC2)[nH+]c1

> <Energy>
403.1568206022643

> <Genealogy>
C=c1c(=Cc2[n-]c(=O)[n-]c2[O-])cc(C)n1-c1ccc(N2CCN(C(=O)C3CC3)CC2)[nH+]c1 (protonated)
C=c1c(=Cc2[n-]c(=O)[n-]c2[O-])cc(C)n1-c1ccc(N2CCN(C(=O)C3CC3)CC2)[nH+]c1 (3D coordinates assigned)
C=c1c(=Cc2[n-]c(=O)[n-]c2[O-])cc(C)n1-c1ccc(N2CCN(C(=O)C3CC3)CC2)[nH+]c1 (nonaromatic ring conformer: 403.1568206022643 kcal/mol)

> <smiles>
C=c1c(=Cc2[nH]c(=O)[nH]c2O)cc(C)n1-c1ccc(N2CCN(C(=O)C3CC3)CC2)nc1

> <score_type>
oracle

> <origin>
adg

> <m_score__min__energy>
-15.31

> <m_primary>
energy

> <minimizedAffinity>
-6.61775

> <minimizedRMSD>
1.12398

> <CNNscore>
0.1432236880

> <CNNaffinity>
5.4470763206

> <CNN_VS>
0.7801503539

> <CNNaffinity_variance>
0.1410102099

$$$$
43:0


 35 39  0  0  0  0  0  0  0  0999 V2000
   60.9666   31.1381   48.1696 C   0  0  0  0  0  0  0  0  0  0  0  0
   62.2634   31.4473   47.7301 C   0  0  0  0  0  0  0  0  0  0  0  0
   62.9007   32.6109   48.1622 C   0  0  0  0  0  0  0  0  0  0  0  0
   62.2530   33.4768   49.0448 C   0  0  0  0  0  0  0  0  0  0  0  0
   60.9667   33.1808   49.4967 C   0  0  0  0  0  0  0  0  0  0  0  0
   60.3041   32.0232   49.0580 C   0  0  0  0  0  0  0  0  0  0  0  0
   59.2416   30.6829   45.7973 C   0  0  0  0  0  0  0  0  0  0  0  0
   59.6348   29.6925   46.6136 C   0  0  0  0  0  0  0  0  0  0  0  0
   59.2311   28.3496   46.5620 C   0  0  0  0  0  0  0  0  0  0  0  0
   58.5912   27.6560   45.6019 C   0  0  0  0  0  0  0  0  0  0  0  0
   59.6418   27.7760   47.7524 C   0  0  0  0  0  0  0  0  0  0  0  0
   60.3414   28.7420   48.4430 C   0  0  0  0  0  0  0  0  0  0  0  0
   60.9368   28.5307   49.8035 C   0  0  0  0  0  0  0  0  0  0  0  0
   60.3548   29.9032   47.7461 N   0  0  0  0  0  0  0  0  0  0  0  0
   58.0707   26.2858   45.7396 C   0  0  0  0  0  0  0  0  0  0  0  0
   58.8279   25.1732   45.7420 N   0  0  0  0  0  0  0  0  0  0  0  0
   57.9414   24.1928   46.0131 C   0  0  0  0  0  0  0  0  0  0  0  0
   58.2723   22.9799   46.0869 O   0  0  0  0  0  0  0  0  0  0  0  0
   56.6717   24.6120   46.2038 N   0  0  0  0  0  0  0  0  0  0  0  0
   56.7776   25.9422   46.0419 C   0  0  0  0  0  0  0  0  0  0  0  0
   55.7123   26.8239   46.1708 O   0  0  0  0  0  0  0  0  0  0  0  0
   58.9422   31.7456   49.5649 C   0  0  0  0  0  0  0  0  0  0  0  0
   57.9681   31.7853   48.7641 O   0  0  0  0  0  0  0  0  0  0  0  0
   58.7124   31.4214   50.9440 N   0  0  0  0  0  0  0  0  0  0  0  0
   57.5296   31.9521   51.6389 C   0  0  0  0  0  0  0  0  0  0  0  0
   56.6663   30.8083   52.1905 C   0  0  0  0  0  0  0  0  0  0  0  0
   57.5023   29.6635   52.8291 C   0  0  0  0  0  0  0  0  0  0  0  0
   59.0005   30.0139   52.9683 C   0  0  0  0  0  0  0  0  0  0  0  0
   59.5685   30.4252   51.6036 C   0  0  0  0  0  0  0  0  0  0  0  0
   56.9478   29.1657   54.1124 N   0  0  0  0  0  0  0  0  0  0  0  0
   56.4536   27.7746   54.1022 C   0  0  0  0  0  0  0  0  0  0  0  0
   54.9287   27.7151   54.0613 C   0  0  0  0  0  0  0  0  0  0  0  0
   54.3925   28.4319   55.1485 O   0  0  0  0  0  0  0  0  0  0  0  0
   54.6549   29.8061   54.9736 C   0  0  0  0  0  0  0  0  0  0  0  0
   56.1678   30.1069   54.9543 C   0  0  0  0  0  0  0  0  0  0  0  0
  7  8  2  0
  8  9  1  0
  9 10  2  0
 10 15  1  0
 15 16  1  0
 16 17  1  0
 17 18  2  0
 17 19  1  0
 19 20  1  0
 20 21  1  0
  9 11  1  0
 11 12  2  0
 12 13  1  0
 12 14  1  0
 14  1  1  0
  1  2  2  0
  2  3  1  0
  3  4  2  0
  4  5  1  0
  5  6  2  0
  6 22  1  0
 22 23  2  0
 22 24  1  0
 24 25  1  0
 25 26  1  0
 26 27  1  0
 27 30  1  0
 30 31  1  0
 31 32  1  0
 32 33  1  0
 33 34  1  0
 34 35  1  0
 27 28  1  0
 28 29  1  0
 14  8  1  0
  6  1  1  0
 29 24  1  0
 20 15  2  0
 35 30  1  0
M  CHG 1  16  -1
M  CHG 1  19  -1
M  CHG 1  21  -1
M  END
> <UniqueID>
43

> <SMILES>
C=c1c(=Cc2[n-]c(=O)[n-]c2[O-])cc(C)n1-c1ccccc1C(=O)N1CCC(N2CCOCC2)CC1

> <Energy>
162.0381298748351

> <Genealogy>
C=c1c(=Cc2[n-]c(=O)[n-]c2[O-])cc(C)n1-c1ccccc1C(=O)N1CCC(N2CCOCC2)CC1 (protonated)
C=c1c(=Cc2[n-]c(=O)[n-]c2[O-])cc(C)n1-c1ccccc1C(=O)N1CCC(N2CCOCC2)CC1 (3D coordinates assigned)
C=c1c(=Cc2[n-]c(=O)[n-]c2[O-])cc(C)n1-c1ccccc1C(=O)N1CCC(N2CCOCC2)CC1 (nonaromatic ring conformer: 162.0381298748351 kcal/mol)

> <smiles>
C=c1c(=Cc2[nH]c(=O)[nH]c2O)cc(C)n1-c1ccccc1C(=O)N1CCC(N2CCOCC2)CC1

> <score_type>
oracle

> <origin>
adg

> <m_score__min__energy>
-17.399999999999999

> <m_primary>
energy

> <minimizedAffinity>
-7.57089

> <minimizedRMSD>
0.83011

> <CNNscore>
0.2015515268

> <CNNaffinity>
6.4843544960

> <CNN_VS>
1.3069314957

> <CNNaffinity_variance>
0.0679518953

$$$$
53:0


 28 31  0  0  0  0  0  0  0  0999 V2000
   59.0980   27.3762   47.3575 C   0  0  0  0  0  0  0  0  0  0  0  0
   58.5745   27.9063   46.2380 C   0  0  0  0  0  0  0  0  0  0  0  0
   58.1085   27.1720   45.1408 C   0  0  0  0  0  0  0  0  0  0  0  0
   58.1380   25.8335   44.9752 C   0  0  0  0  0  0  0  0  0  0  0  0
   57.6585   28.0963   44.2155 C   0  0  0  0  0  0  0  0  0  0  0  0
   57.8505   29.3421   44.7722 C   0  0  0  0  0  0  0  0  0  0  0  0
   57.4923   30.6259   44.0829 C   0  0  0  0  0  0  0  0  0  0  0  0
   58.4098   29.2431   46.0057 N   0  0  0  0  0  0  0  0  0  0  0  0
   57.3591   24.8836   45.7919 C   0  0  0  0  0  0  0  0  0  0  0  0
   57.8721   23.7437   46.2850 N   0  0  0  0  0  0  0  0  0  0  0  0
   56.8617   23.2389   47.0265 C   0  0  0  0  0  0  0  0  0  0  0  0
   56.9559   22.1504   47.6491 O   0  0  0  0  0  0  0  0  0  0  0  0
   55.7469   23.9993   47.0573 N   0  0  0  0  0  0  0  0  0  0  0  0
   56.0812   25.0428   46.2802 C   0  0  0  0  0  0  0  0  0  0  0  0
   55.2518   26.1367   46.0662 O   0  0  0  0  0  0  0  0  0  0  0  0
   58.7184   30.3910   46.8878 C   0  0  0  0  0  0  0  0  0  0  0  0
   60.1422   30.2896   47.4724 C   0  0  0  0  0  0  0  0  0  0  0  0
   60.4774   31.4877   48.3923 C   0  0  0  0  0  0  0  0  0  0  0  0
   59.6112   32.6672   48.1525 N   0  0  0  0  0  0  0  0  0  0  0  0
   59.3631   32.8564   46.7112 C   0  0  0  0  0  0  0  0  0  0  0  0
   58.4324   31.7482   46.1992 C   0  0  0  0  0  0  0  0  0  0  0  0
   60.2057   33.8737   48.7607 C   0  0  0  0  0  0  0  0  0  0  0  0
   61.6469   33.6260   49.1180 C   0  0  0  0  0  0  0  0  0  0  0  0
   62.0561   33.5819   50.4625 C   0  0  0  0  0  0  0  0  0  0  0  0
   63.3947   33.3364   50.7830 C   0  0  0  0  0  0  0  0  0  0  0  0
   64.3322   33.1322   49.7675 C   0  0  0  0  0  0  0  0  0  0  0  0
   63.9332   33.1726   48.4285 C   0  0  0  0  0  0  0  0  0  0  0  0
   62.5947   33.4180   48.1040 C   0  0  0  0  0  0  0  0  0  0  0  0
  1  2  2  0
  2  3  1  0
  3  4  2  0
  4  9  1  0
  9 10  1  0
 10 11  1  0
 11 12  2  0
 11 13  1  0
 13 14  1  0
 14 15  1  0
  3  5  1  0
  5  6  2  0
  6  7  1  0
  6  8  1  0
  8 16  1  0
 16 17  1  0
 17 18  1  0
 18 19  1  0
 19 22  1  0
 22 23  1  0
 23 24  2  0
 24 25  1  0
 25 26  2  0
 26 27  1  0
 27 28  2  0
 19 20  1  0
 20 21  1  0
  8  2  1  0
 21 16  1  0
 14  9  2  0
 28 23  1  0
M  CHG 1  10  -1
M  CHG 1  13  -1
M  CHG 1  15  -1
M  END
> <UniqueID>
52

> <SMILES>
C=c1/c(=C/c2[n-]c(=O)[n-]c2[O-])cc(C)n1C1CCN(Cc2ccccc2)CC1

> <Energy>
128.4174099515087

> <Genealogy>
C=c1c(=Cc2[n-]c(=O)[n-]c2[O-])cc(C)n1C1CCN(Cc2ccccc2)CC1 (protonated)
C=c1/c(=C/c2[n-]c(=O)[n-]c2[O-])cc(C)n1C1CCN(Cc2ccccc2)CC1 (cis-trans isomerization)
C=c1/c(=C/c2[n-]c(=O)[n-]c2[O-])cc(C)n1C1CCN(Cc2ccccc2)CC1 (3D coordinates assigned)
C=c1/c(=C/c2[n-]c(=O)[n-]c2[O-])cc(C)n1C1CCN(Cc2ccccc2)CC1 (nonaromatic ring conformer: 128.4174099515087 kcal/mol)

> <smiles>
C=c1c(=Cc2[nH]c(=O)[nH]c2O)cc(C)n1C1CCN(Cc2ccccc2)CC1

> <score_type>
oracle

> <origin>
adg

> <m_score__min__energy>
-16.370000000000001

> <m_primary>
energy

> <minimizedAffinity>
-8.89942

> <minimizedRMSD>
0.80158

> <CNNscore>
0.1658575088

> <CNNaffinity>
6.3342175484

> <CNN_VS>
1.0505775213

> <CNNaffinity_variance>
0.0225633830

$$$$
58:0


 27 29  0  0  0  0  0  0  0  0999 V2000
   56.6856   31.8600   52.3926 C   0  0  0  0  0  0  0  0  0  0  0  0
   56.3461   30.6564   52.8818 C   0  0  0  0  0  0  0  0  0  0  0  0
   55.0455   30.2016   53.1370 C   0  0  0  0  0  0  0  0  0  0  0  0
   53.8958   30.8840   52.9435 C   0  0  0  0  0  0  0  0  0  0  0  0
   55.1775   28.9055   53.6158 C   0  0  0  0  0  0  0  0  0  0  0  0
   56.5293   28.6273   53.6488 C   0  0  0  0  0  0  0  0  0  0  0  0
   57.1084   27.3192   54.0974 C   0  0  0  0  0  0  0  0  0  0  0  0
   57.2456   29.6909   53.2133 N   0  0  0  0  0  0  0  0  0  0  0  0
   53.0072   30.7519   51.7676 C   0  0  0  0  0  0  0  0  0  0  0  0
   53.1345   29.8440   50.7818 N   0  0  0  0  0  0  0  0  0  0  0  0
   52.0666   30.0842   49.9918 C   0  0  0  0  0  0  0  0  0  0  0  0
   51.8388   29.4276   48.9421 O   0  0  0  0  0  0  0  0  0  0  0  0
   51.2588   31.0793   50.4169 N   0  0  0  0  0  0  0  0  0  0  0  0
   51.8667   31.4856   51.5429 C   0  0  0  0  0  0  0  0  0  0  0  0
   51.3844   32.5059   52.3536 O   0  0  0  0  0  0  0  0  0  0  0  0
   58.7142   29.8029   53.2190 C   0  0  0  0  0  0  0  0  0  0  0  0
   59.3070   29.4973   51.8335 C   0  0  0  0  0  0  0  0  0  0  0  0
   59.8466   30.7385   51.1711 C   0  0  0  0  0  0  0  0  0  0  0  0
   59.2868   31.1905   49.9661 C   0  0  0  0  0  0  0  0  0  0  0  0
   59.7154   32.3981   49.3877 C   0  0  0  0  0  0  0  0  0  0  0  0
   60.7336   33.1297   50.0097 C   0  0  0  0  0  0  0  0  0  0  0  0
   61.3078   32.6898   51.2078 C   0  0  0  0  0  0  0  0  0  0  0  0
   60.8543   31.4913   51.7916 C   0  0  0  0  0  0  0  0  0  0  0  0
   59.1509   32.9067   48.2091 O   0  0  0  0  0  0  0  0  0  0  0  0
   59.5077   34.1534   47.6187 C   0  0  0  0  0  0  0  0  0  0  0  0
   62.3153   33.4741   51.7887 O   0  0  0  0  0  0  0  0  0  0  0  0
   62.8350   33.2751   53.0994 C   0  0  0  0  0  0  0  0  0  0  0  0
  1  2  2  0
  2  3  1  0
  3  4  2  0
  4  9  1  0
  9 10  1  0
 10 11  1  0
 11 12  2  0
 11 13  1  0
 13 14  1  0
 14 15  1  0
  3  5  1  0
  5  6  2  0
  6  7  1  0
  6  8  1  0
  8 16  1  0
 16 17  1  0
 17 18  1  0
 18 19  2  0
 19 20  1  0
 20 24  1  0
 24 25  1  0
 20 21  2  0
 21 22  1  0
 22 26  1  0
 26 27  1  0
 22 23  2  0
  8  2  1  0
 23 18  1  0
 14  9  2  0
M  CHG 1  10  -1
M  CHG 1  13  -1
M  CHG 1  15  -1
M  END
> <UniqueID>
57

> <SMILES>
C=c1/c(=C/c2[n-]c(=O)[n-]c2[O-])cc(C)n1CCc1cc(OC)cc(OC)c1

> <Energy>
103.68698300823539

> <Genealogy>
C=c1c(=Cc2[n-]c(=O)[n-]c2[O-])cc(C)n1CCc1cc(OC)cc(OC)c1 (protonated)
C=c1/c(=C/c2[n-]c(=O)[n-]c2[O-])cc(C)n1CCc1cc(OC)cc(OC)c1 (cis-trans isomerization)
C=c1/c(=C/c2[n-]c(=O)[n-]c2[O-])cc(C)n1CCc1cc(OC)cc(OC)c1 (3D coordinates assigned)
C=c1/c(=C/c2[n-]c(=O)[n-]c2[O-])cc(C)n1CCc1cc(OC)cc(OC)c1 (optimized conformer: 103.68698300823539 kcal/mol)

> <smiles>
C=c1c(=Cc2[nH]c(=O)[nH]c2O)cc(C)n1CCc1cc(OC)cc(OC)c1

> <score_type>
oracle

> <origin>
adg

> <m_score__min__energy>
-15.369999999999999

> <m_primary>
energy

> <minimizedAffinity>
-4.71692

> <minimizedRMSD>
1.49841

> <CNNscore>
0.1007588878

> <CNNaffinity>
4.8510022163

> <CNN_VS>
0.4887816012

> <CNNaffinity_variance>
0.2019501925

$$$$
66:0


 33 36  0  0  0  0  0  0  0  0999 V2000
   59.3928   29.8786   46.9750 C   0  0  0  0  0  0  0  0  0  0  0  0
   58.6360   30.4429   48.0104 C   0  0  0  0  0  0  0  0  0  0  0  0
   59.1977   31.4107   48.8462 C   0  0  0  0  0  0  0  0  0  0  0  0
   60.5314   31.8159   48.6673 C   0  0  0  0  0  0  0  0  0  0  0  0
   61.2801   31.2612   47.6177 C   0  0  0  0  0  0  0  0  0  0  0  0
   60.7184   30.2918   46.7804 C   0  0  0  0  0  0  0  0  0  0  0  0
   61.4582   29.7653   45.7740 F   0  0  0  0  0  0  0  0  0  0  0  0
   61.1290   32.8462   49.5438 C   0  0  0  0  0  0  0  0  0  0  0  0
   60.5295   33.9463   49.6961 O   0  0  0  0  0  0  0  0  0  0  0  0
   62.3785   32.6200   50.2244 N   0  0  0  0  0  0  0  0  0  0  0  0
   63.4910   31.9795   49.5059 C   0  0  0  0  0  0  0  0  0  0  0  0
   64.8372   32.2430   50.1893 C   0  0  0  0  0  0  0  0  0  0  0  0
   64.7416   31.9778   51.6329 N   0  0  0  0  0  0  0  0  0  0  0  0
   65.8308   31.3750   52.3642 C   0  0  0  0  0  0  0  0  0  0  0  0
   67.1971   31.2176   51.7630 C   0  0  0  0  0  0  0  0  0  0  0  0
   65.6382   30.9457   53.5337 O   0  0  0  0  0  0  0  0  0  0  0  0
   63.5487   32.4118   52.3786 C   0  0  0  0  0  0  0  0  0  0  0  0
   62.6161   33.2688   51.5187 C   0  0  0  0  0  0  0  0  0  0  0  0
   59.5860   26.9345   47.2852 C   0  0  0  0  0  0  0  0  0  0  0  0
   58.8865   27.5191   46.3006 C   0  0  0  0  0  0  0  0  0  0  0  0
   58.2319   26.8869   45.2294 C   0  0  0  0  0  0  0  0  0  0  0  0
   57.9674   25.5854   44.9968 C   0  0  0  0  0  0  0  0  0  0  0  0
   57.8343   27.8956   44.3681 C   0  0  0  0  0  0  0  0  0  0  0  0
   58.1970   29.0898   44.9567 C   0  0  0  0  0  0  0  0  0  0  0  0
   57.9280   30.4453   44.3774 C   0  0  0  0  0  0  0  0  0  0  0  0
   58.8193   28.8634   46.1334 N   0  0  0  0  0  0  0  0  0  0  0  0
   57.2357   24.6828   45.8997 C   0  0  0  0  0  0  0  0  0  0  0  0
   57.7680   23.6024   46.5026 N   0  0  0  0  0  0  0  0  0  0  0  0
   56.7858   23.1928   47.3329 C   0  0  0  0  0  0  0  0  0  0  0  0
   56.9005   22.1798   48.0691 O   0  0  0  0  0  0  0  0  0  0  0  0
   55.6749   23.9596   47.3186 N   0  0  0  0  0  0  0  0  0  0  0  0
   55.9834   24.9063   46.4167 C   0  0  0  0  0  0  0  0  0  0  0  0
   55.1414   25.9588   46.0834 O   0  0  0  0  0  0  0  0  0  0  0  0
 19 20  2  0
 20 21  1  0
 21 22  2  0
 22 27  1  0
 27 28  1  0
 28 29  1  0
 29 30  2  0
 29 31  1  0
 31 32  1  0
 32 33  1  0
 21 23  1  0
 23 24  2  0
 24 25  1  0
 24 26  1  0
 26  1  1  0
  1  2  2  0
  2  3  1  0
  3  4  2  0
  4  8  1  0
  8  9  2  0
  8 10  1  0
 10 11  1  0
 11 12  1  0
 12 13  1  0
 13 14  1  0
 14 15  1  0
 14 16  2  0
 13 17  1  0
 17 18  1  0
  4  5  1  0
  5  6  2  0
  6  7  1  0
 26 20  1  0
  6  1  1  0
 32 27  2  0
 18 10  1  0
M  CHG 1  28  -1
M  CHG 1  31  -1
M  CHG 1  33  -1
M  END
> <UniqueID>
65

> <SMILES>
C=c1c(=Cc2[n-]c(=O)[n-]c2[O-])cc(C)n1-c1ccc(C(=O)N2CCN(C(C)=O)CC2)cc1F

> <Energy>
136.6366588440642

> <Genealogy>
C=c1c(=Cc2[n-]c(=O)[n-]c2[O-])cc(C)n1-c1ccc(C(=O)N2CCN(C(C)=O)CC2)cc1F (protonated)
C=c1c(=Cc2[n-]c(=O)[n-]c2[O-])cc(C)n1-c1ccc(C(=O)N2CCN(C(C)=O)CC2)cc1F (3D coordinates assigned)
C=c1c(=Cc2[n-]c(=O)[n-]c2[O-])cc(C)n1-c1ccc(C(=O)N2CCN(C(C)=O)CC2)cc1F (nonaromatic ring conformer: 136.6366588440642 kcal/mol)

> <smiles>
C=c1c(=Cc2[nH]c(=O)[nH]c2O)cc(C)n1-c1ccc(C(=O)N2CCN(C(C)=O)CC2)cc1F

> <score_type>
oracle

> <origin>
adg

> <m_score__min__energy>
-16.129999999999999

> <m_primary>
energy

> <minimizedAffinity>
-8.56429

> <minimizedRMSD>
1.33652

> <CNNscore>
0.1106865704

> <CNNaffinity>
6.6053729057

> <CNN_VS>
0.7311260700

> <CNNaffinity_variance>
0.0170003567

$$$$
75:0


 29 31  0  0  0  0  0  0  0  0999 V2000
   59.6430   26.4869   47.4569 C   0  0  0  0  0  0  0  0  0  0  0  0
   58.9532   26.3254   46.3144 C   0  0  0  0  0  0  0  0  0  0  0  0
   57.9018   25.4225   46.1178 C   0  0  0  0  0  0  0  0  0  0  0  0
   57.4063   24.5316   46.9999 C   0  0  0  0  0  0  0  0  0  0  0  0
   57.4930   25.5782   44.8027 C   0  0  0  0  0  0  0  0  0  0  0  0
   58.2856   26.5677   44.2566 C   0  0  0  0  0  0  0  0  0  0  0  0
   58.2171   27.0007   42.8228 C   0  0  0  0  0  0  0  0  0  0  0  0
   59.1775   27.0266   45.1688 N   0  0  0  0  0  0  0  0  0  0  0  0
   56.1626   23.7631   46.7711 C   0  0  0  0  0  0  0  0  0  0  0  0
   55.0091   24.4145   46.3098 C   0  0  0  0  0  0  0  0  0  0  0  0
   55.0102   25.7876   46.0961 O   0  0  0  0  0  0  0  0  0  0  0  0
   53.8751   23.7039   46.0762 N   0  0  0  0  0  0  0  0  0  0  0  0
   53.8359   22.3611   46.2685 C   0  0  0  0  0  0  0  0  0  0  0  0
   52.7734   21.7257   46.0505 O   0  0  0  0  0  0  0  0  0  0  0  0
   54.9468   21.7032   46.6900 N   0  0  0  0  0  0  0  0  0  0  0  0
   56.1054   22.3660   46.9348 C   0  0  0  0  0  0  0  0  0  0  0  0
   57.1244   21.7160   47.2904 O   0  0  0  0  0  0  0  0  0  0  0  0
   60.2150   28.0375   44.9076 C   0  0  0  0  0  0  0  0  0  0  0  0
   59.7956   29.3807   45.4443 C   0  0  0  0  0  0  0  0  0  0  0  0
   58.7028   30.0595   44.8827 C   0  0  0  0  0  0  0  0  0  0  0  0
   58.3046   31.2994   45.3890 C   0  0  0  0  0  0  0  0  0  0  0  0
   58.9917   31.8767   46.4640 C   0  0  0  0  0  0  0  0  0  0  0  0
   60.0889   31.2078   47.0218 C   0  0  0  0  0  0  0  0  0  0  0  0
   60.4892   29.9677   46.5163 C   0  0  0  0  0  0  0  0  0  0  0  0
   58.5089   33.4482   47.0982 S   0  0  0  0  0  0  0  0  0  0  0  0
   59.0899   34.5492   46.2541 O   0  0  0  0  0  0  0  0  0  0  0  0
   57.0108   33.5545   47.0530 O   0  0  0  0  0  0  0  0  0  0  0  0
   59.0419   33.6252   48.7425 N   0  0  0  0  0  0  0  0  0  0  0  0
   60.3951   34.1699   48.7657 C   0  0  0  0  0  0  0  0  0  0  0  0
  1  2  2  0
  2  3  1  0
  3  4  2  0
  4  9  1  0
  9 10  2  0
 10 11  1  0
 10 12  1  0
 12 13  1  0
 13 14  2  0
 13 15  1  0
 15 16  1  0
 16 17  2  0
  3  5  1  0
  5  6  2  0
  6  7  1  0
  6  8  1  0
  8 18  1  0
 18 19  1  0
 19 20  2  0
 20 21  1  0
 21 22  2  0
 22 25  1  0
 25 26  2  0
 25 27  2  0
 25 28  1  0
 28 29  1  0
 22 23  1  0
 23 24  2  0
  8  2  1  0
 24 19  1  0
 16  9  1  0
M  CHG 1  11  -1
M  CHG 1  12  -1
M  CHG 1  15  -1
M  CHG 1  28  -1
M  END
> <UniqueID>
74

> <SMILES>
C=c1/c(=C/c2c([O-])[n-]c(=O)[n-]c2=O)cc(C)n1Cc1ccc(S(=O)(=O)[N-]C)cc1

> <Energy>
83.73199448359155

> <Genealogy>
C=c1c(=Cc2c([O-])[n-]c(=O)[n-]c2=O)cc(C)n1Cc1ccc(S(=O)(=O)[N-]C)cc1 (protonated)
C=c1/c(=C/c2c([O-])[n-]c(=O)[n-]c2=O)cc(C)n1Cc1ccc(S(=O)(=O)[N-]C)cc1 (cis-trans isomerization)
C=c1/c(=C/c2c([O-])[n-]c(=O)[n-]c2=O)cc(C)n1Cc1ccc(S(=O)(=O)[N-]C)cc1 (3D coordinates assigned)
C=c1/c(=C/c2c([O-])[n-]c(=O)[n-]c2=O)cc(C)n1Cc1ccc(S(=O)(=O)[N-]C)cc1 (optimized conformer: 83.73199448359155 kcal/mol)

> <smiles>
C=c1c(=Cc2c(O)[nH]c(=O)[nH]c2=O)cc(C)n1Cc1ccc(S(=O)(=O)NC)cc1

> <score_type>
oracle

> <origin>
adg

> <m_score__min__energy>
-16.199999999999999

> <m_primary>
energy

> <minimizedAffinity>
-7.38462

> <minimizedRMSD>
0.92561

> <CNNscore>
0.0986931175

> <CNNaffinity>
6.1646938324

> <CNN_VS>
0.6084128618

> <CNNaffinity_variance>
0.2166824937

$$$$
79:0


 32 35  0  0  0  0  0  0  0  0999 V2000
   58.5435   26.7510   45.4853 C   0  0  0  0  0  0  0  0  0  0  0  0
   58.9173   27.7728   46.2787 C   0  0  0  0  0  0  0  0  0  0  0  0
   58.5226   27.9842   47.5953 C   0  0  0  0  0  0  0  0  0  0  0  0
   59.1086   29.1675   47.9984 C   0  0  0  0  0  0  0  0  0  0  0  0
   58.9215   29.8054   49.3414 C   0  0  0  0  0  0  0  0  0  0  0  0
   59.8261   29.7045   46.9895 N   0  0  0  0  0  0  0  0  0  0  0  0
   59.7258   28.8616   45.9333 C   0  0  0  0  0  0  0  0  0  0  0  0
   60.3453   29.0583   44.7605 C   0  0  0  0  0  0  0  0  0  0  0  0
   55.4900   26.5971   45.9833 O   0  0  0  0  0  0  0  0  0  0  0  0
   56.3893   25.5537   46.1759 C   0  0  0  0  0  0  0  0  0  0  0  0
   56.0438   24.3518   46.6667 N   0  0  0  0  0  0  0  0  0  0  0  0
   57.2285   23.7091   46.7377 C   0  0  0  0  0  0  0  0  0  0  0  0
   57.3354   22.5290   47.1638 O   0  0  0  0  0  0  0  0  0  0  0  0
   58.2910   24.4313   46.3249 N   0  0  0  0  0  0  0  0  0  0  0  0
   57.7470   25.5999   45.9437 C   0  0  0  0  0  0  0  0  0  0  0  0
   54.5803   26.4719   46.1693 H   0  0  0  0  0  0  0  0  0  0  0  0
   60.5307   30.9565   47.0381 C   0  0  0  0  0  0  0  0  0  0  0  0
   61.9008   30.9533   47.3243 C   0  0  0  0  0  0  0  0  0  0  0  0
   62.6142   32.1493   47.3681 C   0  0  0  0  0  0  0  0  0  0  0  0
   61.9625   33.3609   47.1445 C   0  0  0  0  0  0  0  0  0  0  0  0
   60.5836   33.3954   46.8798 C   0  0  0  0  0  0  0  0  0  0  0  0
   59.9264   34.7344   46.6695 C   0  0  0  0  0  0  0  0  0  0  0  0
   59.8616   32.1758   46.7904 C   0  0  0  0  0  0  0  0  0  0  0  0
   58.4106   32.1646   46.4894 C   0  0  0  0  0  0  0  0  0  0  0  0
   57.6157   32.5870   47.3718 O   0  0  0  0  0  0  0  0  0  0  0  0
   57.8921   31.6952   45.2232 N   0  0  0  0  0  0  0  0  0  0  0  0
   58.2956   32.4241   44.0043 C   0  0  0  0  0  0  0  0  0  0  0  0
   57.7252   31.8363   42.7412 C   0  0  0  0  0  0  0  0  0  0  0  0
   57.8690   32.4486   41.6514 O   0  0  0  0  0  0  0  0  0  0  0  0
   57.0139   30.5999   42.7615 N   0  0  0  0  0  0  0  0  0  0  0  0
   56.9365   29.8047   43.9755 C   0  0  0  0  0  0  0  0  0  0  0  0
   56.7828   30.7264   45.1797 C   0  0  0  0  0  0  0  0  0  0  0  0
  9 10  1  0
 10 11  1  0
 11 12  1  0
 12 13  2  0
 12 14  1  0
 14 15  1  0
 15  1  1  0
  1  2  2  0
  2  3  1  0
  3  4  2  0
  4  5  1  0
  4  6  1  0
  6 17  1  0
 17 18  2  0
 18 19  1  0
 19 20  2  0
 20 21  1  0
 21 22  1  0
 21 23  2  0
 23 24  1  0
 24 25  2  0
 24 26  1  0
 26 27  1  0
 27 28  1  0
 28 29  2  0
 28 30  1  0
 30 31  1  0
 31 32  1  0
  6  7  1  0
  7  8  2  0
 15 10  2  0
  7  2  1  0
 23 17  1  0
 32 26  1  0
  9 16  1  0
M  CHG 1  11  -1
M  CHG 1  14  -1
M  CHG 1  30  -1
M  END
> <UniqueID>
78

> <SMILES>
C=c1/c(=C/c2[n-]c(=O)[n-]c2O)cc(C)n1-c1cccc(C)c1C(=O)N1CC[N-]C(=O)C1

> <Energy>
130.38362486616438

> <Genealogy>
C=c1c(=Cc2[n-]c(=O)[n-]c2O)cc(C)n1-c1cccc(C)c1C(=O)N1CC[N-]C(=O)C1 (protonated)
C=c1/c(=C/c2[n-]c(=O)[n-]c2O)cc(C)n1-c1cccc(C)c1C(=O)N1CC[N-]C(=O)C1 (cis-trans isomerization)
C=c1/c(=C/c2[n-]c(=O)[n-]c2O)cc(C)n1-c1cccc(C)c1C(=O)N1CC[N-]C(=O)C1 (3D coordinates assigned)
C=c1/c(=C/c2[n-]c(=O)[n-]c2O)cc(C)n1-c1cccc(C)c1C(=O)N1CC[N-]C(=O)C1 (nonaromatic ring conformer: 130.38362486616438 kcal/mol)

> <smiles>
C=c1c(=Cc2[nH]c(=O)[nH]c2O)cc(C)n1-c1cccc(C)c1C(=O)N1CCNC(=O)C1

> <score_type>
oracle

> <origin>
adg

> <m_score__min__energy>
-15.09

> <m_primary>
energy

> <minimizedAffinity>
-9.89414

> <minimizedRMSD>
0.67382

> <CNNscore>
0.5983610153

> <CNNaffinity>
7.3221912384

> <CNN_VS>
4.3813138008

> <CNNaffinity_variance>
0.0037695498

$$$$
3:0


 37 41  0  0  0  0  0  0  0  0999 V2000
   60.8552   30.5819   47.5633 C   0  0  0  0  0  0  0  0  0  0  0  0
   61.9041   31.2923   46.9683 C   0  0  0  0  0  0  0  0  0  0  0  0
   62.8854   31.8967   47.7555 C   0  0  0  0  0  0  0  0  0  0  0  0
   62.8257   31.8129   49.1544 C   0  0  0  0  0  0  0  0  0  0  0  0
   61.7835   31.0843   49.7494 C   0  0  0  0  0  0  0  0  0  0  0  0
   60.8004   30.4597   48.9663 C   0  0  0  0  0  0  0  0  0  0  0  0
   60.9313   27.9359   46.2563 C   0  0  0  0  0  0  0  0  0  0  0  0
   59.8831   28.7674   46.1452 C   0  0  0  0  0  0  0  0  0  0  0  0
   58.7506   28.6072   45.3316 C   0  0  0  0  0  0  0  0  0  0  0  0
   58.3108   27.5449   44.6295 C   0  0  0  0  0  0  0  0  0  0  0  0
   58.0736   29.8157   45.3707 C   0  0  0  0  0  0  0  0  0  0  0  0
   58.7557   30.6299   46.2519 C   0  0  0  0  0  0  0  0  0  0  0  0
   58.4098   32.0601   46.5352 C   0  0  0  0  0  0  0  0  0  0  0  0
   59.8482   29.9930   46.7249 N   0  0  0  0  0  0  0  0  0  0  0  0
   57.8667   26.2652   45.2026 C   0  0  0  0  0  0  0  0  0  0  0  0
   58.6210   25.1523   45.2668 N   0  0  0  0  0  0  0  0  0  0  0  0
   57.8563   24.2988   45.9831 C   0  0  0  0  0  0  0  0  0  0  0  0
   58.2170   23.1220   46.2452 O   0  0  0  0  0  0  0  0  0  0  0  0
   56.6764   24.8076   46.4001 N   0  0  0  0  0  0  0  0  0  0  0  0
   56.7081   26.0577   45.9087 C   0  0  0  0  0  0  0  0  0  0  0  0
   55.6981   26.9910   46.1097 O   0  0  0  0  0  0  0  0  0  0  0  0
   63.8709   32.4599   49.9750 C   0  0  0  0  0  0  0  0  0  0  0  0
   64.9827   32.7436   49.4535 O   0  0  0  0  0  0  0  0  0  0  0  0
   63.6383   32.8146   51.3412 N   0  0  0  0  0  0  0  0  0  0  0  0
   64.4048   33.4948   52.4023 C   0  0  0  0  0  0  0  0  0  0  0  0
   63.2794   33.5922   53.3768 C   0  0  0  0  0  0  0  0  0  0  0  0
   62.5195   32.8945   52.3001 C   0  0  0  0  0  0  0  0  0  0  0  0
   59.5081   29.5530   49.7709 S   0  0  0  0  0  0  0  0  0  0  0  0
   58.8879   28.6157   48.7739 O   0  0  0  0  0  0  0  0  0  0  0  0
   60.0625   28.7603   50.9213 O   0  0  0  0  0  0  0  0  0  0  0  0
   58.2943   30.6546   50.3784 N   0  0  0  0  0  0  0  0  0  0  0  0
   58.6532   32.0629   50.0777 C   0  0  0  0  0  0  0  0  0  0  0  0
   59.1331   32.8293   51.3188 C   0  0  0  0  0  0  0  0  0  0  0  0
   58.0929   32.8406   52.3721 N   0  0  0  0  0  0  0  0  0  0  0  0
   58.6850   33.2125   53.6669 C   0  0  0  0  0  0  0  0  0  0  0  0
   57.3264   31.5723   52.4696 C   0  0  0  0  0  0  0  0  0  0  0  0
   58.0554   30.3935   51.8117 C   0  0  0  0  0  0  0  0  0  0  0  0
  7  8  2  0
  8  9  1  0
  9 10  2  0
 10 15  1  0
 15 16  1  0
 16 17  1  0
 17 18  2  0
 17 19  1  0
 19 20  1  0
 20 21  1  0
  9 11  1  0
 11 12  2  0
 12 13  1  0
 12 14  1  0
 14  1  1  0
  1  2  2  0
  2  3  1  0
  3  4  2  0
  4 22  1  0
 22 23  2  0
 22 24  1  0
 24 25  1  0
 25 26  1  0
 26 27  1  0
  4  5  1  0
  5  6  2  0
  6 28  1  0
 28 29  2  0
 28 30  2  0
 28 31  1  0
 31 32  1  0
 32 33  1  0
 33 34  1  0
 34 35  1  0
 34 36  1  0
 36 37  1  0
 14  8  1  0
  6  1  1  0
 37 31  1  0
 20 15  2  0
 27 24  1  0
M  CHG 1  16  -1
M  CHG 1  19  -1
M  CHG 1  21  -1
M  END
> <UniqueID>
4

> <SMILES>
C=c1/c(=C\c2[n-]c(=O)[n-]c2[O-])cc(C)n1-c1ccc(C(=O)N2CCC2)cc1S(=O)(=O)N1CCN(C)CC1

> <Energy>
198.36700836576415

> <Genealogy>
C=c1c(=Cc2[n-]c(=O)[n-]c2[O-])cc(C)n1-c1ccc(C(=O)N2CCC2)cc1S(=O)(=O)N1CCN(C)CC1 (protonated)
C=c1/c(=C\c2[n-]c(=O)[n-]c2[O-])cc(C)n1-c1ccc(C(=O)N2CCC2)cc1S(=O)(=O)N1CCN(C)CC1 (cis-trans isomerization)
C=c1/c(=C\c2[n-]c(=O)[n-]c2[O-])cc(C)n1-c1ccc(C(=O)N2CCC2)cc1S(=O)(=O)N1CCN(C)CC1 (3D coordinates assigned)
C=c1/c(=C\c2[n-]c(=O)[n-]c2[O-])cc(C)n1-c1ccc(C(=O)N2CCC2)cc1S(=O)(=O)N1CCN(C)CC1 (nonaromatic ring conformer: 198.36700836576415 kcal/mol)

> <smiles>
C=c1c(=Cc2[nH]c(=O)[nH]c2O)cc(C)n1-c1ccc(C(=O)N2CCC2)cc1S(=O)(=O)N1CCN(C)CC1

> <score_type>
oracle

> <origin>
adg

> <m_score__min__energy>
-16.5

> <m_primary>
energy

> <minimizedAffinity>
-7.40684

> <minimizedRMSD>
0.73609

> <CNNscore>
0.0825159103

> <CNNaffinity>
6.3623027802

> <CNN_VS>
0.5249912143

> <CNNaffinity_variance>
0.1506254524

$$$$
12:0


 31 34  0  0  0  0  0  0  0  0999 V2000
   58.7523   28.5203   47.2724 C   0  0  0  0  0  0  0  0  0  0  0  0
   58.5784   28.7807   45.9670 C   0  0  0  0  0  0  0  0  0  0  0  0
   58.2428   27.8630   44.9587 C   0  0  0  0  0  0  0  0  0  0  0  0
   58.2329   26.5175   44.9565 C   0  0  0  0  0  0  0  0  0  0  0  0
   57.9017   28.6173   43.8464 C   0  0  0  0  0  0  0  0  0  0  0  0
   58.1117   29.9390   44.1798 C   0  0  0  0  0  0  0  0  0  0  0  0
   57.8781   31.0972   43.2570 C   0  0  0  0  0  0  0  0  0  0  0  0
   58.5250   30.0420   45.4630 N   0  0  0  0  0  0  0  0  0  0  0  0
   57.5898   25.6651   45.9713 C   0  0  0  0  0  0  0  0  0  0  0  0
   58.1626   24.5920   46.5477 N   0  0  0  0  0  0  0  0  0  0  0  0
   57.1624   24.0647   47.2870 C   0  0  0  0  0  0  0  0  0  0  0  0
   57.3131   23.0387   47.9994 O   0  0  0  0  0  0  0  0  0  0  0  0
   55.9846   24.7184   47.1944 N   0  0  0  0  0  0  0  0  0  0  0  0
   56.2704   25.7216   46.3471 C   0  0  0  0  0  0  0  0  0  0  0  0
   55.3433   26.6656   45.9183 O   0  0  0  0  0  0  0  0  0  0  0  0
   54.4595   26.6284   46.2275 H   0  0  0  0  0  0  0  0  0  0  0  0
   58.7858   31.2699   46.1651 C   0  0  0  0  0  0  0  0  0  0  0  0
   59.9846   31.4328   46.8748 C   0  0  0  0  0  0  0  0  0  0  0  0
   60.2496   32.6271   47.5676 C   0  0  0  0  0  0  0  0  0  0  0  0
   59.2919   33.6556   47.5479 C   0  0  0  0  0  0  0  0  0  0  0  0
   58.0981   33.4963   46.8408 C   0  0  0  0  0  0  0  0  0  0  0  0
   57.8423   32.3085   46.1502 C   0  0  0  0  0  0  0  0  0  0  0  0
   56.6705   32.1612   45.4837 F   0  0  0  0  0  0  0  0  0  0  0  0
   61.4716   32.7812   48.3163 N   0  0  0  0  0  0  0  0  0  0  0  0
   62.6498   31.9744   47.9757 C   0  0  0  0  0  0  0  0  0  0  0  0
   63.6599   31.9768   49.1293 C   0  0  0  0  0  0  0  0  0  0  0  0
   62.9358   31.8860   50.4115 N   0  0  0  0  0  0  0  0  0  0  0  0
   62.1353   33.1111   50.6766 C   0  0  0  0  0  0  0  0  0  0  0  0
   61.5798   33.7675   49.3950 C   0  0  0  0  0  0  0  0  0  0  0  0
   63.8761   31.6019   51.5159 C   0  0  0  0  0  0  0  0  0  0  0  0
   65.3276   31.6962   51.0476 C   0  0  0  0  0  0  0  0  0  0  0  0
  1  2  2  0
  2  3  1  0
  3  4  2  0
  4  9  1  0
  9 10  1  0
 10 11  1  0
 11 12  2  0
 11 13  1  0
 13 14  1  0
 14 15  1  0
  3  5  1  0
  5  6  2  0
  6  7  1  0
  6  8  1  0
  8 17  1  0
 17 18  2  0
 18 19  1  0
 19 24  1  0
 24 25  1  0
 25 26  1  0
 26 27  1  0
 27 30  1  0
 30 31  1  0
 27 28  1  0
 28 29  1  0
 19 20  2  0
 20 21  1  0
 21 22  2  0
 22 23  1  0
  8  2  1  0
 22 17  1  0
 14  9  2  0
 29 24  1  0
 15 16  1  0
M  CHG 1  10  -1
M  CHG 1  13  -1
M  END
> <UniqueID>
13

> <SMILES>
C=c1c(=Cc2[n-]c(=O)[n-]c2O)cc(C)n1-c1cc(N2CCN(CC)CC2)ccc1F

> <Energy>
138.57901188669018

> <Genealogy>
C=c1c(=Cc2[n-]c(=O)[n-]c2O)cc(C)n1-c1cc(N2CCN(CC)CC2)ccc1F (protonated)
C=c1c(=Cc2[n-]c(=O)[n-]c2O)cc(C)n1-c1cc(N2CCN(CC)CC2)ccc1F (3D coordinates assigned)
C=c1c(=Cc2[n-]c(=O)[n-]c2O)cc(C)n1-c1cc(N2CCN(CC)CC2)ccc1F (nonaromatic ring conformer: 138.57901188669018 kcal/mol)

> <smiles>
C=c1c(=Cc2[nH]c(=O)[nH]c2O)cc(C)n1-c1cc(N2CCN(CC)CC2)ccc1F

> <score_type>
oracle

> <origin>
adg

> <m_score__min__energy>
-14.1

> <m_primary>
energy

> <minimizedAffinity>
-7.94285

> <minimizedRMSD>
0.84729

> <CNNscore>
0.1948786378

> <CNNaffinity>
6.6365437508

> <CNN_VS>
1.2933206558

> <CNNaffinity_variance>
0.2082359791

$$$$
38:0


 31 34  0  0  0  0  0  0  0  0999 V2000
   58.6985   31.0924   45.5419 C   0  0  0  0  0  0  0  0  0  0  0  0
   58.1415   31.9510   44.5867 C   0  0  0  0  0  0  0  0  0  0  0  0
   58.0882   33.3238   44.8277 C   0  0  0  0  0  0  0  0  0  0  0  0
   58.5859   33.8437   46.0256 C   0  0  0  0  0  0  0  0  0  0  0  0
   59.1346   32.9934   46.9992 C   0  0  0  0  0  0  0  0  0  0  0  0
   59.2012   31.6109   46.7437 C   0  0  0  0  0  0  0  0  0  0  0  0
   59.7958   30.7703   47.6296 F   0  0  0  0  0  0  0  0  0  0  0  0
   56.5557   29.3522   44.4917 C   0  0  0  0  0  0  0  0  0  0  0  0
   57.7553   28.8819   44.8601 C   0  0  0  0  0  0  0  0  0  0  0  0
   58.2302   27.5682   44.7370 C   0  0  0  0  0  0  0  0  0  0  0  0
   57.5948   26.4188   44.4434 C   0  0  0  0  0  0  0  0  0  0  0  0
   59.5869   27.6200   45.0194 C   0  0  0  0  0  0  0  0  0  0  0  0
   59.8769   28.9252   45.3567 C   0  0  0  0  0  0  0  0  0  0  0  0
   61.2202   29.4250   45.7914 C   0  0  0  0  0  0  0  0  0  0  0  0
   58.7638   29.6838   45.2777 N   0  0  0  0  0  0  0  0  0  0  0  0
   57.2466   25.3585   45.4030 C   0  0  0  0  0  0  0  0  0  0  0  0
   57.9500   24.2254   45.5867 N   0  0  0  0  0  0  0  0  0  0  0  0
   57.1792   23.5139   46.4373 C   0  0  0  0  0  0  0  0  0  0  0  0
   57.5111   22.3798   46.8691 O   0  0  0  0  0  0  0  0  0  0  0  0
   56.0157   24.1073   46.7794 N   0  0  0  0  0  0  0  0  0  0  0  0
   56.0686   25.2661   46.1036 C   0  0  0  0  0  0  0  0  0  0  0  0
   55.0570   26.2160   46.1203 O   0  0  0  0  0  0  0  0  0  0  0  0
   59.6475   33.5745   48.2604 C   0  0  0  0  0  0  0  0  0  0  0  0
   58.8937   33.5850   49.2723 O   0  0  0  0  0  0  0  0  0  0  0  0
   61.0024   34.0781   48.3577 N   0  0  0  0  0  0  0  0  0  0  0  0
   61.8950   33.4686   47.3776 C   0  0  0  0  0  0  0  0  0  0  0  0
   63.2568   33.3912   48.0484 C   0  0  0  0  0  0  0  0  0  0  0  0
   63.0656   33.7105   49.4601 N   0  0  0  0  0  0  0  0  0  0  0  0
   61.6184   33.7819   49.6543 C   0  0  0  0  0  0  0  0  0  0  0  0
   60.3799   33.3834   48.6727 H   0  0  0  0  0  0  0  0  0  0  0  0
   63.4996   34.6058   49.6846 H   0  0  0  0  0  0  0  0  0  0  0  0
  8  9  2  0
  9 10  1  0
 10 11  2  0
 11 16  1  0
 16 17  1  0
 17 18  1  0
 18 19  2  0
 18 20  1  0
 20 21  1  0
 21 22  1  0
 10 12  1  0
 12 13  2  0
 13 14  1  0
 13 15  1  0
 15  1  1  0
  1  2  2  0
  2  3  1  0
  3  4  2  0
  4  5  1  0
  5 23  1  0
 23 24  2  0
 25 23  1  0
 25 26  1  0
 26 27  1  0
 27 28  1  0
 28 29  1  0
  5  6  2  0
  6  7  1  0
 15  9  1  0
  6  1  1  0
 21 16  2  0
 29 25  1  0
 25 30  1  0
 28 31  1  0
M  CHG 1  17  -1
M  CHG 1  20  -1
M  CHG 1  22  -1
M  CHG 1  25   1
M  END
> <UniqueID>
37

> <SMILES>
C=c1c(=Cc2[n-]c(=O)[n-]c2[O-])cc(C)n1-c1cccc(C(=O)[N@@H+]2CCNC2)c1F

> <Energy>
134.6743592797433

> <Genealogy>
C=c1c(=Cc2[n-]c(=O)[n-]c2[O-])cc(C)n1-c1cccc(C(=O)[NH+]2CCNC2)c1F (protonated)
C=c1c(=Cc2[n-]c(=O)[n-]c2[O-])cc(C)n1-c1cccc(C(=O)[N@@H+]2CCNC2)c1F (chirality)
C=c1c(=Cc2[n-]c(=O)[n-]c2[O-])cc(C)n1-c1cccc(C(=O)[N@@H+]2CCNC2)c1F (3D coordinates assigned)
C=c1c(=Cc2[n-]c(=O)[n-]c2[O-])cc(C)n1-c1cccc(C(=O)[N@@H+]2CCNC2)c1F (nonaromatic ring conformer: 134.6743592797433 kcal/mol)

> <smiles>
C=c1c(=Cc2[nH]c(=O)[nH]c2O)cc(C)n1-c1cccc(C(=O)N2CCNC2)c1F

> <score_type>
oracle

> <origin>
adg

> <m_score__min__energy>
-15.550000000000001

> <m_primary>
energy

> <minimizedAffinity>
-7.94637

> <minimizedRMSD>
0.75758

> <CNNscore>
0.2302004695

> <CNNaffinity>
6.9544806480

> <CNN_VS>
1.6009247303

> <CNNaffinity_variance>
0.0292497128

$$$$
45:0


 37 41  0  0  0  0  0  0  0  0999 V2000
   58.6922   27.9538   45.5606 C   0  0  0  0  0  0  0  0  0  0  0  0
   57.7305   28.9699   45.6559 C   0  0  0  0  0  0  0  0  0  0  0  0
   58.1127   30.2743   45.9804 C   0  0  0  0  0  0  0  0  0  0  0  0
   59.4656   30.5790   46.2170 C   0  0  0  0  0  0  0  0  0  0  0  0
   60.4309   29.5669   46.0757 C   0  0  0  0  0  0  0  0  0  0  0  0
   60.0452   28.2620   45.7548 C   0  0  0  0  0  0  0  0  0  0  0  0
   58.2139   25.7255   47.4512 C   0  0  0  0  0  0  0  0  0  0  0  0
   58.1002   25.5874   46.1209 C   0  0  0  0  0  0  0  0  0  0  0  0
   57.6780   24.4494   45.4140 C   0  0  0  0  0  0  0  0  0  0  0  0
   57.4207   23.1938   45.8301 C   0  0  0  0  0  0  0  0  0  0  0  0
   57.5686   24.8365   44.0881 C   0  0  0  0  0  0  0  0  0  0  0  0
   57.9653   26.1548   44.0196 C   0  0  0  0  0  0  0  0  0  0  0  0
   58.0301   26.9661   42.7631 C   0  0  0  0  0  0  0  0  0  0  0  0
   58.2951   26.6084   45.2477 N   0  0  0  0  0  0  0  0  0  0  0  0
   56.1823   22.7467   46.4838 C   0  0  0  0  0  0  0  0  0  0  0  0
   56.1087   21.6741   47.2910 N   0  0  0  0  0  0  0  0  0  0  0  0
   54.8358   21.7153   47.7451 C   0  0  0  0  0  0  0  0  0  0  0  0
   54.3696   20.8503   48.5311 O   0  0  0  0  0  0  0  0  0  0  0  0
   54.1067   22.7617   47.3032 N   0  0  0  0  0  0  0  0  0  0  0  0
   54.9774   23.4131   46.5163 C   0  0  0  0  0  0  0  0  0  0  0  0
   54.6845   24.6015   45.8591 O   0  0  0  0  0  0  0  0  0  0  0  0
   59.8613   31.9573   46.5834 C   0  0  0  0  0  0  0  0  0  0  0  0
   59.2034   32.9223   46.1134 O   0  0  0  0  0  0  0  0  0  0  0  0
   60.9683   32.2184   47.4727 N   0  0  0  0  0  0  0  0  0  0  0  0
   61.2587   31.2920   48.5805 C   0  0  0  0  0  0  0  0  0  0  0  0
   61.8837   32.0226   49.7729 C   0  0  0  0  0  0  0  0  0  0  0  0
   63.0371   32.8341   49.3476 N   0  0  0  0  0  0  0  0  0  0  0  0
   63.0400   33.4601   48.0139 C   0  0  0  0  0  0  0  0  0  0  0  0
   61.6271   33.5318   47.4235 C   0  0  0  0  0  0  0  0  0  0  0  0
   64.1335   33.0777   50.2608 C   0  0  0  0  0  0  0  0  0  0  0  0
   63.9804   33.9479   51.3598 C   0  0  0  0  0  0  0  0  0  0  0  0
   65.0410   34.1704   52.2446 C   0  0  0  0  0  0  0  0  0  0  0  0
   66.2837   33.5387   52.0411 C   0  0  0  0  0  0  0  0  0  0  0  0
   66.4420   32.6854   50.9431 C   0  0  0  0  0  0  0  0  0  0  0  0
   65.3812   32.4523   50.0630 C   0  0  0  0  0  0  0  0  0  0  0  0
   67.3793   33.7324   52.8964 O   0  0  0  0  0  0  0  0  0  0  0  0
   68.7429   33.7099   52.4754 C   0  0  0  0  0  0  0  0  0  0  0  0
  7  8  2  0
  8  9  1  0
  9 10  2  0
 10 15  1  0
 15 16  1  0
 16 17  1  0
 17 18  2  0
 17 19  1  0
 19 20  1  0
 20 21  1  0
  9 11  1  0
 11 12  2  0
 12 13  1  0
 12 14  1  0
 14  1  1  0
  1  2  2  0
  2  3  1  0
  3  4  2  0
  4 22  1  0
 22 23  2  0
 22 24  1  0
 24 25  1  0
 25 26  1  0
 26 27  1  0
 27 30  1  0
 30 31  2  0
 31 32  1  0
 32 33  2  0
 33 36  1  0
 36 37  1  0
 33 34  1  0
 34 35  2  0
 27 28  1  0
 28 29  1  0
  4  5  1  0
  5  6  2  0
 14  8  1  0
  6  1  1  0
 20 15  2  0
 29 24  1  0
 35 30  1  0
M  CHG 1  16  -1
M  CHG 1  19  -1
M  CHG 1  21  -1
M  END
> <UniqueID>
43

> <SMILES>
C=c1c(=Cc2[n-]c(=O)[n-]c2[O-])cc(C)n1-c1ccc(C(=O)N2CCN(c3ccc(OC)cc3)CC2)cc1

> <Energy>
152.25064195136395

> <Genealogy>
C=c1c(=Cc2[n-]c(=O)[n-]c2[O-])cc(C)n1-c1ccc(C(=O)N2CCN(c3ccc(OC)cc3)CC2)cc1 (protonated)
C=c1c(=Cc2[n-]c(=O)[n-]c2[O-])cc(C)n1-c1ccc(C(=O)N2CCN(c3ccc(OC)cc3)CC2)cc1 (3D coordinates assigned)
C=c1c(=Cc2[n-]c(=O)[n-]c2[O-])cc(C)n1-c1ccc(C(=O)N2CCN(c3ccc(OC)cc3)CC2)cc1 (nonaromatic ring conformer: 152.25064195136395 kcal/mol)

> <smiles>
C=c1c(=Cc2[nH]c(=O)[nH]c2O)cc(C)n1-c1ccc(C(=O)N2CCN(c3ccc(OC)cc3)CC2)cc1

> <score_type>
oracle

> <origin>
adg

> <m_score__min__energy>
-15.539999999999999

> <m_primary>
energy

> <minimizedAffinity>
-8.42927

> <minimizedRMSD>
1.41573

> <CNNscore>
0.0798425972

> <CNNaffinity>
6.2749309540

> <CNN_VS>
0.5010067821

> <CNNaffinity_variance>
0.3807807267

$$$$
46:0


 31 34  0  0  0  0  0  0  0  0999 V2000
   59.6165   29.9192   47.1893 C   0  0  0  0  0  0  0  0  0  0  0  0
   60.8563   30.4985   46.8845 C   0  0  0  0  0  0  0  0  0  0  0  0
   61.4979   31.3201   47.8160 C   0  0  0  0  0  0  0  0  0  0  0  0
   60.9014   31.5817   49.0616 C   0  0  0  0  0  0  0  0  0  0  0  0
   59.6702   30.9811   49.3703 C   0  0  0  0  0  0  0  0  0  0  0  0
   59.0302   30.1589   48.4390 C   0  0  0  0  0  0  0  0  0  0  0  0
   61.5897   32.4427   50.0478 C   0  0  0  0  0  0  0  0  0  0  0  0
   61.0213   33.4976   50.4429 O   0  0  0  0  0  0  0  0  0  0  0  0
   62.8834   32.0940   50.5755 N   0  0  0  0  0  0  0  0  0  0  0  0
   63.8456   33.1471   50.9235 C   0  0  0  0  0  0  0  0  0  0  0  0
   64.1327   33.1387   52.4335 C   0  0  0  0  0  0  0  0  0  0  0  0
   64.1800   31.7156   53.0454 C   0  0  0  0  0  0  0  0  0  0  0  0
   63.0184   31.4907   53.7696 F   0  0  0  0  0  0  0  0  0  0  0  0
   65.2526   31.6275   53.9185 F   0  0  0  0  0  0  0  0  0  0  0  0
   64.3192   30.6228   51.9760 C   0  0  0  0  0  0  0  0  0  0  0  0
   63.1640   30.7022   50.9662 C   0  0  0  0  0  0  0  0  0  0  0  0
   59.6187   26.9444   47.1034 C   0  0  0  0  0  0  0  0  0  0  0  0
   58.9529   27.7059   46.2191 C   0  0  0  0  0  0  0  0  0  0  0  0
   58.1889   27.2500   45.1358 C   0  0  0  0  0  0  0  0  0  0  0  0
   57.9391   25.9642   44.8054 C   0  0  0  0  0  0  0  0  0  0  0  0
   57.7307   28.3919   44.4839 C   0  0  0  0  0  0  0  0  0  0  0  0
   58.2169   29.4750   45.1877 C   0  0  0  0  0  0  0  0  0  0  0  0
   57.9618   30.9077   44.8267 C   0  0  0  0  0  0  0  0  0  0  0  0
   58.9637   29.0625   46.2351 N   0  0  0  0  0  0  0  0  0  0  0  0
   57.3422   24.9448   45.6958 C   0  0  0  0  0  0  0  0  0  0  0  0
   57.9357   23.8133   46.1142 N   0  0  0  0  0  0  0  0  0  0  0  0
   57.0148   23.2516   46.9269 C   0  0  0  0  0  0  0  0  0  0  0  0
   57.2073   22.1568   47.5161 O   0  0  0  0  0  0  0  0  0  0  0  0
   55.8729   23.9593   47.0600 N   0  0  0  0  0  0  0  0  0  0  0  0
   56.0982   25.0281   46.2801 C   0  0  0  0  0  0  0  0  0  0  0  0
   55.1852   26.0593   46.1024 O   0  0  0  0  0  0  0  0  0  0  0  0
 17 18  2  0
 18 19  1  0
 19 20  2  0
 20 25  1  0
 25 26  1  0
 26 27  1  0
 27 28  2  0
 27 29  1  0
 29 30  1  0
 30 31  1  0
 19 21  1  0
 21 22  2  0
 22 23  1  0
 22 24  1  0
 24  1  1  0
  1  2  2  0
  2  3  1  0
  3  4  2  0
  4  7  1  0
  7  8  2  0
  7  9  1  0
  9 10  1  0
 10 11  1  0
 11 12  1  0
 12 13  1  0
 12 14  1  0
 12 15  1  0
 15 16  1  0
  4  5  1  0
  5  6  2  0
 24 18  1  0
  6  1  1  0
 30 25  2  0
 16  9  1  0
M  CHG 1  26  -1
M  CHG 1  29  -1
M  CHG 1  31  -1
M  END
> <UniqueID>
44

> <SMILES>
C=c1/c(=C/c2[n-]c(=O)[n-]c2[O-])cc(C)n1-c1ccc(C(=O)N2CCC(F)(F)CC2)cc1

> <Energy>
128.80196125073735

> <Genealogy>
C=c1c(=Cc2[n-]c(=O)[n-]c2[O-])cc(C)n1-c1ccc(C(=O)N2CCC(F)(F)CC2)cc1 (protonated)
C=c1/c(=C/c2[n-]c(=O)[n-]c2[O-])cc(C)n1-c1ccc(C(=O)N2CCC(F)(F)CC2)cc1 (cis-trans isomerization)
C=c1/c(=C/c2[n-]c(=O)[n-]c2[O-])cc(C)n1-c1ccc(C(=O)N2CCC(F)(F)CC2)cc1 (3D coordinates assigned)
C=c1/c(=C/c2[n-]c(=O)[n-]c2[O-])cc(C)n1-c1ccc(C(=O)N2CCC(F)(F)CC2)cc1 (nonaromatic ring conformer: 128.80196125073735 kcal/mol)

> <smiles>
C=c1c(=Cc2[nH]c(=O)[nH]c2O)cc(C)n1-c1ccc(C(=O)N2CCC(F)(F)CC2)cc1

> <score_type>
oracle

> <origin>
adg

> <m_score__min__energy>
-15.67

> <m_primary>
energy

> <minimizedAffinity>
-8.72015

> <minimizedRMSD>
1.18299

> <CNNscore>
0.1424139887

> <CNNaffinity>
6.4345264435

> <CNN_VS>
0.9163665771

> <CNNaffinity_variance>
0.0657090917

$$$$
47:0


 31 34  0  0  0  0  0  0  0  0999 V2000
   59.6642   29.8097   47.2161 C   0  0  0  0  0  0  0  0  0  0  0  0
   58.9278   30.3432   48.2800 C   0  0  0  0  0  0  0  0  0  0  0  0
   59.4149   31.4356   49.0010 C   0  0  0  0  0  0  0  0  0  0  0  0
   60.6467   32.0225   48.6613 C   0  0  0  0  0  0  0  0  0  0  0  0
   61.3921   31.4687   47.6069 C   0  0  0  0  0  0  0  0  0  0  0  0
   60.9055   30.3741   46.8860 C   0  0  0  0  0  0  0  0  0  0  0  0
   61.6472   29.8534   45.8766 F   0  0  0  0  0  0  0  0  0  0  0  0
   60.0841   26.9198   47.7961 C   0  0  0  0  0  0  0  0  0  0  0  0
   59.3453   27.3669   46.7693 C   0  0  0  0  0  0  0  0  0  0  0  0
   58.6896   26.5825   45.8148 C   0  0  0  0  0  0  0  0  0  0  0  0
   58.6104   25.2383   45.7780 C   0  0  0  0  0  0  0  0  0  0  0  0
   58.0894   27.4675   44.9287 C   0  0  0  0  0  0  0  0  0  0  0  0
   58.3953   28.7396   45.3705 C   0  0  0  0  0  0  0  0  0  0  0  0
   57.9494   30.0059   44.7061 C   0  0  0  0  0  0  0  0  0  0  0  0
   59.1605   28.6805   46.4845 N   0  0  0  0  0  0  0  0  0  0  0  0
   57.4009   24.4937   45.3831 C   0  0  0  0  0  0  0  0  0  0  0  0
   57.1276   24.1522   44.1111 N   0  0  0  0  0  0  0  0  0  0  0  0
   55.9102   23.5723   44.1962 C   0  0  0  0  0  0  0  0  0  0  0  0
   55.3124   23.1035   43.1943 O   0  0  0  0  0  0  0  0  0  0  0  0
   55.3804   23.5467   45.4372 N   0  0  0  0  0  0  0  0  0  0  0  0
   56.3301   24.1441   46.1760 C   0  0  0  0  0  0  0  0  0  0  0  0
   56.1943   24.4054   47.5344 O   0  0  0  0  0  0  0  0  0  0  0  0
   61.2146   33.1736   49.4168 C   0  0  0  0  0  0  0  0  0  0  0  0
   60.5970   34.2732   49.3595 O   0  0  0  0  0  0  0  0  0  0  0  0
   62.4200   33.0984   50.2230 N   0  0  0  0  0  0  0  0  0  0  0  0
   62.4959   31.8825   51.0601 C   0  0  0  0  0  0  0  0  0  0  0  0
   63.7516   31.9271   51.9617 C   0  0  0  0  0  0  0  0  0  0  0  0
   64.7197   32.8710   51.5278 O   0  0  0  0  0  0  0  0  0  0  0  0
   64.8941   32.7811   50.1272 C   0  0  0  0  0  0  0  0  0  0  0  0
   63.6339   33.2856   49.3976 C   0  0  0  0  0  0  0  0  0  0  0  0
   61.5652   33.5300   49.9946 H   0  0  0  0  0  0  0  0  0  0  0  0
  8  9  2  0
  9 10  1  0
 10 11  2  0
 11 16  1  0
 16 17  1  0
 17 18  1  0
 18 19  2  0
 18 20  1  0
 20 21  1  0
 21 22  1  0
 10 12  1  0
 12 13  2  0
 13 14  1  0
 13 15  1  0
 15  1  1  0
  1  2  2  0
  2  3  1  0
  3  4  2  0
  4 23  1  0
 23 24  2  0
 23 25  1  0
 25 26  1  0
 26 27  1  0
 27 28  1  0
 28 29  1  0
 29 30  1  0
  4  5  1  0
  5  6  2  0
  6  7  1  0
 15  9  1  0
  6  1  1  0
 21 16  2  0
 30 25  1  0
 25 31  1  0
M  CHG 1  17  -1
M  CHG 1  20  -1
M  CHG 1  22  -1
M  CHG 1  25   1
M  END
> <UniqueID>
45

> <SMILES>
C=c1/c(=C/c2[n-]c(=O)[n-]c2[O-])cc(C)n1-c1ccc(C(=O)[NH+]2CCOCC2)cc1F

> <Energy>
142.28591415905325

> <Genealogy>
C=c1c(=Cc2[n-]c(=O)[n-]c2[O-])cc(C)n1-c1ccc(C(=O)[NH+]2CCOCC2)cc1F (protonated)
C=c1/c(=C/c2[n-]c(=O)[n-]c2[O-])cc(C)n1-c1ccc(C(=O)[NH+]2CCOCC2)cc1F (cis-trans isomerization)
C=c1/c(=C/c2[n-]c(=O)[n-]c2[O-])cc(C)n1-c1ccc(C(=O)[NH+]2CCOCC2)cc1F (3D coordinates assigned)
C=c1/c(=C/c2[n-]c(=O)[n-]c2[O-])cc(C)n1-c1ccc(C(=O)[NH+]2CCOCC2)cc1F (nonaromatic ring conformer: 142.28591415905325 kcal/mol)

> <smiles>
C=c1c(=Cc2[nH]c(=O)[nH]c2O)cc(C)n1-c1ccc(C(=O)N2CCOCC2)cc1F

> <score_type>
oracle

> <origin>
adg

> <m_score__min__energy>
-14.33

> <m_primary>
energy

> <minimizedAffinity>
-8.29515

> <minimizedRMSD>
1.64069

> <CNNscore>
0.1290650815

> <CNNaffinity>
6.3734974861

> <CNN_VS>
0.8225959539

> <CNNaffinity_variance>
0.1286043078

$$$$
49:0


 27 29  0  0  0  0  0  0  0  0999 V2000
   58.4279   28.5135   45.6288 C   0  0  0  0  0  0  0  0  0  0  0  0
   59.7833   28.2500   45.3941 C   0  0  0  0  0  0  0  0  0  0  0  0
   60.3158   26.9919   45.6809 C   0  0  0  0  0  0  0  0  0  0  0  0
   59.4921   25.9747   46.1690 C   0  0  0  0  0  0  0  0  0  0  0  0
   60.0261   24.7465   46.3890 F   0  0  0  0  0  0  0  0  0  0  0  0
   58.1280   26.2211   46.4137 C   0  0  0  0  0  0  0  0  0  0  0  0
   57.6085   27.5107   46.1764 C   0  0  0  0  0  0  0  0  0  0  0  0
   56.2771   27.7879   46.4736 O   0  0  0  0  0  0  0  0  0  0  0  0
   57.7382   30.0574   45.1113 S   0  0  0  0  0  0  0  0  0  0  0  0
   56.2848   29.8942   44.7579 O   0  0  0  0  0  0  0  0  0  0  0  0
   58.4870   30.5378   43.9021 O   0  0  0  0  0  0  0  0  0  0  0  0
   59.4432   34.2548   47.4222 C   0  0  0  0  0  0  0  0  0  0  0  0
   58.9004   33.0078   47.4186 N   0  0  0  0  0  0  0  0  0  0  0  0
   58.4249   32.4232   46.2833 C   0  0  0  0  0  0  0  0  0  0  0  0
   57.8776   31.2457   46.3778 N   0  0  0  0  0  0  0  0  0  0  0  0
   58.5169   33.1268   45.0627 C   0  0  0  0  0  0  0  0  0  0  0  0
   59.0560   34.4142   45.0512 C   0  0  0  0  0  0  0  0  0  0  0  0
   59.5211   34.9877   46.2359 C   0  0  0  0  0  0  0  0  0  0  0  0
   57.2024   25.0890   46.7950 C   0  0  0  0  0  0  0  0  0  0  0  0
   57.0988   24.1043   45.6522 C   0  0  0  0  0  0  0  0  0  0  0  0
   56.8241   24.5639   44.3561 C   0  0  0  0  0  0  0  0  0  0  0  0
   56.6418   23.6799   43.3417 N   0  0  0  0  0  0  0  0  0  0  0  0
   56.7215   22.3419   43.5575 C   0  0  0  0  0  0  0  0  0  0  0  0
   56.5398   21.5376   42.6056 O   0  0  0  0  0  0  0  0  0  0  0  0
   56.9949   21.8669   44.7994 N   0  0  0  0  0  0  0  0  0  0  0  0
   57.1867   22.7100   45.8458 C   0  0  0  0  0  0  0  0  0  0  0  0
   57.4395   22.2294   46.9830 O   0  0  0  0  0  0  0  0  0  0  0  0
 12 13  1  0
 13 14  1  0
 14 15  2  0
 15  9  1  0
  9 10  2  0
  9 11  2  0
  9  1  1  0
  1  2  2  0
  2  3  1  0
  3  4  2  0
  4  5  1  0
  4  6  1  0
  6 19  1  0
 19 20  1  0
 20 21  2  0
 21 22  1  0
 22 23  1  0
 23 24  2  0
 23 25  1  0
 25 26  1  0
 26 27  2  0
  6  7  2  0
  7  8  1  0
 14 16  1  0
 16 17  2  0
 17 18  1  0
 18 12  2  0
  7  1  1  0
 26 20  1  0
M  CHG 1   8  -1
M  CHG 1  13  -1
M  CHG 1  22  -1
M  CHG 1  25  -1
M  END
> <UniqueID>
47

> <SMILES>
O=c1[n-]cc(Cc2c(F)ccc(S(=O)(=O)/N=c3\cccc[n-]3)c2[O-])c(=O)[n-]1

> <Energy>
47.339476876943905

> <Genealogy>
O=c1[n-]cc(Cc2c(F)ccc(S(=O)(=O)N=c3cccc[n-]3)c2[O-])c(=O)[n-]1 (protonated)
O=c1[n-]cc(Cc2c(F)ccc(S(=O)(=O)/N=c3\cccc[n-]3)c2[O-])c(=O)[n-]1 (cis-trans isomerization)
O=c1[n-]cc(Cc2c(F)ccc(S(=O)(=O)/N=c3\cccc[n-]3)c2[O-])c(=O)[n-]1 (3D coordinates assigned)
O=c1[n-]cc(Cc2c(F)ccc(S(=O)(=O)/N=c3\cccc[n-]3)c2[O-])c(=O)[n-]1 (optimized conformer: 47.339476876943905 kcal/mol)

> <smiles>
O=c1[nH]cc(Cc2c(F)ccc(S(=O)(=O)N=c3cccc[nH]3)c2O)c(=O)[nH]1

> <score_type>
oracle

> <origin>
adg

> <m_score__min__energy>
-17.030000000000001

> <m_primary>
energy

> <minimizedAffinity>
-7.21581

> <minimizedRMSD>
1.32980

> <CNNscore>
0.2027497590

> <CNNaffinity>
6.3799934387

> <CNN_VS>
1.2935421467

> <CNNaffinity_variance>
0.4756649733

$$$$
51:0


 29 32  0  0  0  0  0  0  0  0999 V2000
   59.9275   28.4827   48.1214 C   0  0  0  0  0  0  0  0  0  0  0  0
   59.5020   28.6286   46.8572 C   0  0  0  0  0  0  0  0  0  0  0  0
   59.1079   27.6144   45.9653 C   0  0  0  0  0  0  0  0  0  0  0  0
   59.1810   26.2714   46.0618 C   0  0  0  0  0  0  0  0  0  0  0  0
   58.5959   28.2570   44.8509 C   0  0  0  0  0  0  0  0  0  0  0  0
   58.7369   29.6114   45.0672 C   0  0  0  0  0  0  0  0  0  0  0  0
   58.3399   30.6809   44.0958 C   0  0  0  0  0  0  0  0  0  0  0  0
   59.2950   29.8368   46.2753 N   0  0  0  0  0  0  0  0  0  0  0  0
   58.0356   25.3497   46.1017 C   0  0  0  0  0  0  0  0  0  0  0  0
   58.1574   24.0201   46.2510 N   0  0  0  0  0  0  0  0  0  0  0  0
   56.8778   23.6012   46.3678 C   0  0  0  0  0  0  0  0  0  0  0  0
   56.5723   22.3883   46.5082 O   0  0  0  0  0  0  0  0  0  0  0  0
   55.9535   24.5855   46.3338 N   0  0  0  0  0  0  0  0  0  0  0  0
   56.7034   25.6871   46.1803 C   0  0  0  0  0  0  0  0  0  0  0  0
   56.1838   26.9759   46.1405 O   0  0  0  0  0  0  0  0  0  0  0  0
   59.5436   31.1342   46.8456 C   0  0  0  0  0  0  0  0  0  0  0  0
   58.4698   31.9712   47.1683 C   0  0  0  0  0  0  0  0  0  0  0  0
   58.7022   33.2195   47.7465 C   0  0  0  0  0  0  0  0  0  0  0  0
   60.0087   33.6412   48.0022 C   0  0  0  0  0  0  0  0  0  0  0  0
   61.1020   32.8204   47.6761 C   0  0  0  0  0  0  0  0  0  0  0  0
   60.8604   31.5511   47.1101 C   0  0  0  0  0  0  0  0  0  0  0  0
   61.8841   30.6931   46.8660 F   0  0  0  0  0  0  0  0  0  0  0  0
   62.4776   33.2962   47.9548 C   0  0  0  0  0  0  0  0  0  0  0  0
   63.2206   33.6104   46.9817 O   0  0  0  0  0  0  0  0  0  0  0  0
   62.9584   33.4257   49.3166 N   0  0  0  0  0  0  0  0  0  0  0  0
   64.3477   32.9786   49.4761 C   0  0  0  0  0  0  0  0  0  0  0  0
   63.9515   31.8422   50.4076 C   0  0  0  0  0  0  0  0  0  0  0  0
   62.5291   32.3460   50.2190 C   0  0  0  0  0  0  0  0  0  0  0  0
   62.3682   33.2018   48.5611 H   0  0  0  0  0  0  0  0  0  0  0  0
  1  2  2  0
  2  3  1  0
  3  4  2  0
  4  9  1  0
  9 10  1  0
 10 11  1  0
 11 12  2  0
 11 13  1  0
 13 14  1  0
 14 15  1  0
  3  5  1  0
  5  6  2  0
  6  7  1  0
  6  8  1  0
  8 16  1  0
 16 17  2  0
 17 18  1  0
 18 19  2  0
 19 20  1  0
 20 23  1  0
 23 24  2  0
 23 25  1  0
 25 26  1  0
 26 27  1  0
 27 28  1  0
 20 21  2  0
 21 22  1  0
  8  2  1  0
 21 16  1  0
 14  9  2  0
 28 25  1  0
 25 29  1  0
M  CHG 1  10  -1
M  CHG 1  13  -1
M  CHG 1  15  -1
M  CHG 1  25   1
M  END
> <UniqueID>
49

> <SMILES>
C=c1c(=Cc2[n-]c(=O)[n-]c2[O-])cc(C)n1-c1cccc(C(=O)[NH+]2CCC2)c1F

> <Energy>
202.21905468195942

> <Genealogy>
C=c1c(=Cc2[n-]c(=O)[n-]c2[O-])cc(C)n1-c1cccc(C(=O)[NH+]2CCC2)c1F (protonated)
C=c1c(=Cc2[n-]c(=O)[n-]c2[O-])cc(C)n1-c1cccc(C(=O)[NH+]2CCC2)c1F (3D coordinates assigned)
C=c1c(=Cc2[n-]c(=O)[n-]c2[O-])cc(C)n1-c1cccc(C(=O)[NH+]2CCC2)c1F (nonaromatic ring conformer: 202.21905468195942 kcal/mol)

> <smiles>
C=c1c(=Cc2[nH]c(=O)[nH]c2O)cc(C)n1-c1cccc(C(=O)N2CCC2)c1F

> <score_type>
oracle

> <origin>
adg

> <m_score__min__energy>
-14.98

> <m_primary>
energy

> <minimizedAffinity>
-7.88256

> <minimizedRMSD>
1.37901

> <CNNscore>
0.3254850507

> <CNNaffinity>
6.9702892303

> <CNN_VS>
2.2687249184

> <CNNaffinity_variance>
0.2278214842

$$$$
56:0


 31 34  0  0  0  0  0  0  0  0999 V2000
   59.1971   31.8145   46.6604 C   0  0  0  0  0  0  0  0  0  0  0  0
   58.1330   32.6067   46.1941 C   0  0  0  0  0  0  0  0  0  0  0  0
   56.9747   32.0271   45.7888 F   0  0  0  0  0  0  0  0  0  0  0  0
   58.2684   33.9946   46.1137 C   0  0  0  0  0  0  0  0  0  0  0  0
   59.4678   34.6051   46.4843 C   0  0  0  0  0  0  0  0  0  0  0  0
   60.5354   33.8301   46.9428 C   0  0  0  0  0  0  0  0  0  0  0  0
   60.4080   32.4367   47.0491 C   0  0  0  0  0  0  0  0  0  0  0  0
   61.5523   31.6485   47.5487 C   0  0  0  0  0  0  0  0  0  0  0  0
   61.8700   30.5795   46.9597 O   0  0  0  0  0  0  0  0  0  0  0  0
   62.3044   32.0824   48.6922 N   0  0  0  0  0  0  0  0  0  0  0  0
   61.7664   31.8257   50.0361 C   0  0  0  0  0  0  0  0  0  0  0  0
   62.2104   32.9069   50.9682 C   0  0  0  0  0  0  0  0  0  0  0  0
   61.4655   33.3003   51.9045 O   0  0  0  0  0  0  0  0  0  0  0  0
   63.5016   33.4803   50.7887 N   0  0  0  0  0  0  0  0  0  0  0  0
   64.4004   32.8964   49.8029 C   0  0  0  0  0  0  0  0  0  0  0  0
   63.6547   32.6409   48.4837 C   0  0  0  0  0  0  0  0  0  0  0  0
   58.8569   30.0473   44.3151 C   0  0  0  0  0  0  0  0  0  0  0  0
   58.9182   29.5744   45.5714 C   0  0  0  0  0  0  0  0  0  0  0  0
   58.7427   28.2449   45.9944 C   0  0  0  0  0  0  0  0  0  0  0  0
   58.5509   27.1023   45.3055 C   0  0  0  0  0  0  0  0  0  0  0  0
   58.7506   28.2785   47.3800 C   0  0  0  0  0  0  0  0  0  0  0  0
   58.9433   29.5908   47.7528 C   0  0  0  0  0  0  0  0  0  0  0  0
   58.9407   30.0600   49.1778 C   0  0  0  0  0  0  0  0  0  0  0  0
   59.0636   30.3790   46.6585 N   0  0  0  0  0  0  0  0  0  0  0  0
   57.9047   25.8880   45.8113 C   0  0  0  0  0  0  0  0  0  0  0  0
   58.5266   24.6992   45.9150 N   0  0  0  0  0  0  0  0  0  0  0  0
   57.5393   23.8673   46.3119 C   0  0  0  0  0  0  0  0  0  0  0  0
   57.7343   22.6440   46.5356 O   0  0  0  0  0  0  0  0  0  0  0  0
   56.3264   24.4465   46.4419 N   0  0  0  0  0  0  0  0  0  0  0  0
   56.5738   25.7224   46.1093 C   0  0  0  0  0  0  0  0  0  0  0  0
   55.5983   26.7084   46.0552 O   0  0  0  0  0  0  0  0  0  0  0  0
 17 18  2  0
 18 19  1  0
 19 20  2  0
 20 25  1  0
 25 26  1  0
 26 27  1  0
 27 28  2  0
 27 29  1  0
 29 30  1  0
 30 31  1  0
 19 21  1  0
 21 22  2  0
 22 23  1  0
 22 24  1  0
 24  1  1  0
  1  2  2  0
  2  3  1  0
  2  4  1  0
  4  5  2  0
  5  6  1  0
  6  7  2  0
  7  8  1  0
  8  9  2  0
  8 10  1  0
 10 11  1  0
 11 12  1  0
 12 13  2  0
 12 14  1  0
 14 15  1  0
 15 16  1  0
 24 18  1  0
  7  1  1  0
 16 10  1  0
 30 25  2  0
M  CHG 1  14  -1
M  CHG 1  26  -1
M  CHG 1  29  -1
M  CHG 1  31  -1
M  END
> <UniqueID>
54

> <SMILES>
C=c1/c(=C\c2[n-]c(=O)[n-]c2[O-])cc(C)n1-c1c(F)cccc1C(=O)N1CC[N-]C(=O)C1

> <Energy>
130.63411969157738

> <Genealogy>
C=c1c(=Cc2[n-]c(=O)[n-]c2[O-])cc(C)n1-c1c(F)cccc1C(=O)N1CC[N-]C(=O)C1 (protonated)
C=c1/c(=C\c2[n-]c(=O)[n-]c2[O-])cc(C)n1-c1c(F)cccc1C(=O)N1CC[N-]C(=O)C1 (cis-trans isomerization)
C=c1/c(=C\c2[n-]c(=O)[n-]c2[O-])cc(C)n1-c1c(F)cccc1C(=O)N1CC[N-]C(=O)C1 (3D coordinates assigned)
C=c1/c(=C\c2[n-]c(=O)[n-]c2[O-])cc(C)n1-c1c(F)cccc1C(=O)N1CC[N-]C(=O)C1 (nonaromatic ring conformer: 130.63411969157738 kcal/mol)

> <smiles>
C=c1c(=Cc2[nH]c(=O)[nH]c2O)cc(C)n1-c1c(F)cccc1C(=O)N1CCNC(=O)C1

> <score_type>
oracle

> <origin>
adg

> <m_score__min__energy>
-17.120000000000001

> <m_primary>
energy

> <minimizedAffinity>
-8.39108

> <minimizedRMSD>
0.68875

> <CNNscore>
0.3156005144

> <CNNaffinity>
7.0584416389

> <CNN_VS>
2.2276477814

> <CNNaffinity_variance>
0.0081074387

$$$$
74:0


 29 32  0  0  0  0  0  0  0  0999 V2000
   59.1769   29.4553   44.3370 C   0  0  0  0  0  0  0  0  0  0  0  0
   59.0231   29.0327   45.6005 C   0  0  0  0  0  0  0  0  0  0  0  0
   58.5904   27.7677   46.0120 C   0  0  0  0  0  0  0  0  0  0  0  0
   58.3020   26.7103   45.2294 C   0  0  0  0  0  0  0  0  0  0  0  0
   58.5729   27.7941   47.4016 C   0  0  0  0  0  0  0  0  0  0  0  0
   58.9757   29.0612   47.7779 C   0  0  0  0  0  0  0  0  0  0  0  0
   59.1463   29.5263   49.1917 C   0  0  0  0  0  0  0  0  0  0  0  0
   59.2537   29.8070   46.6879 N   0  0  0  0  0  0  0  0  0  0  0  0
   57.7031   25.4571   45.7219 C   0  0  0  0  0  0  0  0  0  0  0  0
   58.3603   24.2850   45.7453 N   0  0  0  0  0  0  0  0  0  0  0  0
   57.4284   23.4099   46.1795 C   0  0  0  0  0  0  0  0  0  0  0  0
   57.6726   22.1863   46.3475 O   0  0  0  0  0  0  0  0  0  0  0  0
   56.2118   23.9461   46.4102 N   0  0  0  0  0  0  0  0  0  0  0  0
   56.3976   25.2404   46.1051 C   0  0  0  0  0  0  0  0  0  0  0  0
   55.3812   26.1888   46.1302 O   0  0  0  0  0  0  0  0  0  0  0  0
   59.7186   31.1666   46.7036 C   0  0  0  0  0  0  0  0  0  0  0  0
   60.9995   31.4463   47.1982 C   0  0  0  0  0  0  0  0  0  0  0  0
   61.4850   32.7627   47.2219 C   0  0  0  0  0  0  0  0  0  0  0  0
   60.6586   33.8054   46.7807 C   0  0  0  0  0  0  0  0  0  0  0  0
   59.3816   33.5340   46.2838 C   0  0  0  0  0  0  0  0  0  0  0  0
   58.9066   32.2146   46.2224 C   0  0  0  0  0  0  0  0  0  0  0  0
   57.5266   31.9407   45.6919 C   0  0  0  0  0  0  0  0  0  0  0  0
   62.8335   33.0414   47.7568 C   0  0  0  0  0  0  0  0  0  0  0  0
   63.7591   33.3372   46.9518 O   0  0  0  0  0  0  0  0  0  0  0  0
   63.1091   32.9998   49.1674 N   0  0  0  0  0  0  0  0  0  0  0  0
   64.4607   33.0244   49.6997 C   0  0  0  0  0  0  0  0  0  0  0  0
   64.3050   33.0600   51.2137 C   0  0  0  0  0  0  0  0  0  0  0  0
   62.8754   33.5300   51.4675 C   0  0  0  0  0  0  0  0  0  0  0  0
   62.1022   33.2018   50.1983 C   0  0  0  0  0  0  0  0  0  0  0  0
  1  2  2  0
  2  3  1  0
  3  4  2  0
  4  9  1  0
  9 10  1  0
 10 11  1  0
 11 12  2  0
 11 13  1  0
 13 14  1  0
 14 15  1  0
  3  5  1  0
  5  6  2  0
  6  7  1  0
  6  8  1  0
  8 16  1  0
 16 17  2  0
 17 18  1  0
 18 23  1  0
 23 24  2  0
 23 25  1  0
 25 26  1  0
 26 27  1  0
 27 28  1  0
 28 29  1  0
 18 19  2  0
 19 20  1  0
 20 21  2  0
 21 22  1  0
  8  2  1  0
 21 16  1  0
 14  9  2  0
 29 25  1  0
M  CHG 1  10  -1
M  CHG 1  13  -1
M  CHG 1  15  -1
M  END
> <UniqueID>
72

> <SMILES>
C=c1c(=Cc2[n-]c(=O)[n-]c2[O-])cc(C)n1-c1cc(C(=O)N2CCCC2)ccc1C

> <Energy>
127.20863020714681

> <Genealogy>
C=c1c(=Cc2[n-]c(=O)[n-]c2[O-])cc(C)n1-c1cc(C(=O)N2CCCC2)ccc1C (protonated)
C=c1c(=Cc2[n-]c(=O)[n-]c2[O-])cc(C)n1-c1cc(C(=O)N2CCCC2)ccc1C (3D coordinates assigned)
C=c1c(=Cc2[n-]c(=O)[n-]c2[O-])cc(C)n1-c1cc(C(=O)N2CCCC2)ccc1C (nonaromatic ring conformer: 127.20863020714681 kcal/mol)

> <smiles>
C=c1c(=Cc2[nH]c(=O)[nH]c2O)cc(C)n1-c1cc(C(=O)N2CCCC2)ccc1C

> <score_type>
oracle

> <origin>
adg

> <m_score__min__energy>
-16.98

> <m_primary>
energy

> <minimizedAffinity>
-9.11778

> <minimizedRMSD>
0.87541

> <CNNscore>
0.4068058133

> <CNNaffinity>
7.0515556335

> <CNN_VS>
2.8686137199

> <CNNaffinity_variance>
0.1883313805

$$$$
80:0


 30 32  0  0  0  0  0  0  0  0999 V2000
   60.2127   26.4758   46.7939 C   0  0  0  0  0  0  0  0  0  0  0  0
   59.3215   27.3597   46.3201 C   0  0  0  0  0  0  0  0  0  0  0  0
   58.4135   27.1615   45.2676 C   0  0  0  0  0  0  0  0  0  0  0  0
   58.0295   26.0396   44.6299 C   0  0  0  0  0  0  0  0  0  0  0  0
   57.9061   28.4132   44.9531 C   0  0  0  0  0  0  0  0  0  0  0  0
   58.4480   29.3031   45.8563 C   0  0  0  0  0  0  0  0  0  0  0  0
   58.1566   30.7733   45.8790 C   0  0  0  0  0  0  0  0  0  0  0  0
   59.3053   28.6676   46.6875 N   0  0  0  0  0  0  0  0  0  0  0  0
   57.3591   24.8877   45.2556 C   0  0  0  0  0  0  0  0  0  0  0  0
   57.9178   23.6764   45.4261 N   0  0  0  0  0  0  0  0  0  0  0  0
   56.9953   23.0080   46.1527 C   0  0  0  0  0  0  0  0  0  0  0  0
   57.1474   21.8109   46.5050 O   0  0  0  0  0  0  0  0  0  0  0  0
   55.9002   23.7270   46.4786 N   0  0  0  0  0  0  0  0  0  0  0  0
   56.1535   24.9195   45.9149 C   0  0  0  0  0  0  0  0  0  0  0  0
   55.3075   26.0184   46.0061 O   0  0  0  0  0  0  0  0  0  0  0  0
   54.5008   25.9507   46.4780 H   0  0  0  0  0  0  0  0  0  0  0  0
   60.0835   29.2855   47.7277 C   0  0  0  0  0  0  0  0  0  0  0  0
   60.2074   28.6631   48.9775 C   0  0  0  0  0  0  0  0  0  0  0  0
   60.9490   29.2699   49.9939 C   0  0  0  0  0  0  0  0  0  0  0  0
   61.5779   30.4963   49.7655 C   0  0  0  0  0  0  0  0  0  0  0  0
   61.4833   31.1177   48.5117 C   0  0  0  0  0  0  0  0  0  0  0  0
   60.7168   30.5172   47.5022 C   0  0  0  0  0  0  0  0  0  0  0  0
   62.2483   32.6880   48.2280 S   0  0  0  0  0  0  0  0  0  0  0  0
   63.0119   33.0676   49.4654 O   0  0  0  0  0  0  0  0  0  0  0  0
   63.2492   32.5420   47.1142 O   0  0  0  0  0  0  0  0  0  0  0  0
   61.1161   33.9760   47.8398 N   0  0  0  0  0  0  0  0  0  0  0  0
   60.9100   34.1476   46.3824 C   0  0  0  0  0  0  0  0  0  0  0  0
   59.4451   34.3408   45.9710 C   0  0  0  0  0  0  0  0  0  0  0  0
   59.8560   33.9091   48.6038 C   0  0  0  0  0  0  0  0  0  0  0  0
   60.1239   33.9226   50.1059 C   0  0  0  0  0  0  0  0  0  0  0  0
  1  2  2  0
  2  3  1  0
  3  4  2  0
  4  9  1  0
  9 10  1  0
 10 11  1  0
 11 12  2  0
 11 13  1  0
 13 14  1  0
 14 15  1  0
  3  5  1  0
  5  6  2  0
  6  7  1  0
  6  8  1  0
  8 17  1  0
 17 18  2  0
 18 19  1  0
 19 20  2  0
 20 21  1  0
 21 23  1  0
 23 24  2  0
 23 25  2  0
 23 26  1  0
 26 27  1  0
 27 28  1  0
 26 29  1  0
 29 30  1  0
 21 22  2  0
  8  2  1  0
 22 17  1  0
 14  9  2  0
 15 16  1  0
M  CHG 1  10  -1
M  CHG 1  13  -1
M  END
> <UniqueID>
78

> <SMILES>
C=c1c(=Cc2[n-]c(=O)[n-]c2O)cc(C)n1-c1cccc(S(=O)(=O)N(CC)CC)c1

> <Energy>
126.85438241656142

> <Genealogy>
C=c1c(=Cc2[n-]c(=O)[n-]c2O)cc(C)n1-c1cccc(S(=O)(=O)N(CC)CC)c1 (protonated)
C=c1c(=Cc2[n-]c(=O)[n-]c2O)cc(C)n1-c1cccc(S(=O)(=O)N(CC)CC)c1 (3D coordinates assigned)
C=c1c(=Cc2[n-]c(=O)[n-]c2O)cc(C)n1-c1cccc(S(=O)(=O)N(CC)CC)c1 (optimized conformer: 126.85438241656142 kcal/mol)

> <smiles>
C=c1c(=Cc2[nH]c(=O)[nH]c2O)cc(C)n1-c1cccc(S(=O)(=O)N(CC)CC)c1

> <score_type>
oracle

> <origin>
adg

> <m_score__min__energy>
-14.050000000000001

> <m_primary>
energy

> <minimizedAffinity>
-8.66333

> <minimizedRMSD>
1.03130

> <CNNscore>
0.3594790101

> <CNNaffinity>
6.8605065346

> <CNN_VS>
2.4662079811

> <CNNaffinity_variance>
0.0649491102

$$$$
82:0


 30 32  0  0  0  0  0  0  0  0999 V2000
   58.4363   29.8697   45.6855 C   0  0  0  0  0  0  0  0  0  0  0  0
   59.6570   30.4061   46.1157 C   0  0  0  0  0  0  0  0  0  0  0  0
   60.5653   29.6229   46.8402 C   0  0  0  0  0  0  0  0  0  0  0  0
   60.2191   28.3064   47.1833 C   0  0  0  0  0  0  0  0  0  0  0  0
   59.0136   27.7550   46.7408 C   0  0  0  0  0  0  0  0  0  0  0  0
   58.6277   26.0883   47.1454 Cl  0  0  0  0  0  0  0  0  0  0  0  0
   58.1234   28.5283   45.9827 C   0  0  0  0  0  0  0  0  0  0  0  0
   56.9374   27.9620   45.5308 O   0  0  0  0  0  0  0  0  0  0  0  0
   61.8215   30.2329   47.3229 C   0  0  0  0  0  0  0  0  0  0  0  0
   61.9259   31.1267   48.3339 C   0  0  0  0  0  0  0  0  0  0  0  0
   62.3555   32.5431   48.1468 C   0  0  0  0  0  0  0  0  0  0  0  0
   62.4668   33.0502   46.9988 O   0  0  0  0  0  0  0  0  0  0  0  0
   62.5870   33.3741   49.2869 N   0  0  0  0  0  0  0  0  0  0  0  0
   62.3057   32.9171   50.6086 C   0  0  0  0  0  0  0  0  0  0  0  0
   62.5231   33.6711   51.5933 O   0  0  0  0  0  0  0  0  0  0  0  0
   61.7702   31.6125   50.8110 N   0  0  0  0  0  0  0  0  0  0  0  0
   61.5617   30.7152   49.7170 C   0  0  0  0  0  0  0  0  0  0  0  0
   61.0837   29.5741   49.9475 O   0  0  0  0  0  0  0  0  0  0  0  0
   57.3243   30.9047   44.7847 S   0  0  0  0  0  0  0  0  0  0  0  0
   56.0005   30.2274   44.5626 O   0  0  0  0  0  0  0  0  0  0  0  0
   57.9360   31.2320   43.4518 O   0  0  0  0  0  0  0  0  0  0  0  0
   57.0606   32.3738   45.6659 N   0  0  0  0  0  0  0  0  0  0  0  0
   58.6529   33.5471   47.1204 C   0  0  0  0  0  0  0  0  0  0  0  0
   59.6244   34.5376   47.3194 C   0  0  0  0  0  0  0  0  0  0  0  0
   59.9847   35.3932   46.2736 C   0  0  0  0  0  0  0  0  0  0  0  0
   59.3738   35.2653   45.0281 C   0  0  0  0  0  0  0  0  0  0  0  0
   58.4073   34.2783   44.8194 C   0  0  0  0  0  0  0  0  0  0  0  0
   58.0405   33.4062   45.8599 C   0  0  0  0  0  0  0  0  0  0  0  0
   59.0724   33.4907   49.7313 C   0  0  0  0  0  0  0  0  0  0  0  0
   58.2055   32.4737   48.4931 S   0  0  0  0  0  0  0  0  0  0  0  0
 29 30  1  0
 30 23  1  0
 23 24  2  0
 24 25  1  0
 25 26  2  0
 26 27  1  0
 27 28  2  0
 28 22  1  0
 22 19  1  0
 19 20  2  0
 19 21  2  0
 19  1  1  0
  1  2  2  0
  2  3  1  0
  3  9  1  0
  9 10  2  0
 10 11  1  0
 11 12  2  0
 11 13  1  0
 13 14  1  0
 14 15  2  0
 14 16  1  0
 16 17  1  0
 17 18  2  0
  3  4  2  0
  4  5  1  0
  5  6  1  0
  5  7  2  0
  7  8  1  0
 28 23  1  0
  7  1  1  0
 17 10  1  0
M  CHG 1   8  -1
M  CHG 1  13  -1
M  CHG 1  16  -1
M  CHG 1  22  -1
M  END
> <UniqueID>
80

> <SMILES>
CSc1ccccc1[N-]S(=O)(=O)c1cc(C=C2C(=O)[N-]C(=O)[N-]C2=O)cc(Cl)c1[O-]

> <Energy>
51.11673317075819

> <Genealogy>
CSc1ccccc1[N-]S(=O)(=O)c1cc(C=C2C(=O)[N-]C(=O)[N-]C2=O)cc(Cl)c1[O-] (protonated)
CSc1ccccc1[N-]S(=O)(=O)c1cc(C=C2C(=O)[N-]C(=O)[N-]C2=O)cc(Cl)c1[O-] (3D coordinates assigned)
CSc1ccccc1[N-]S(=O)(=O)c1cc(C=C2C(=O)[N-]C(=O)[N-]C2=O)cc(Cl)c1[O-] (nonaromatic ring conformer: 51.11673317075819 kcal/mol)

> <smiles>
CSc1ccccc1NS(=O)(=O)c1cc(C=C2C(=O)NC(=O)NC2=O)cc(Cl)c1O

> <score_type>
oracle

> <origin>
adg

> <m_score__min__energy>
-16.16

> <m_primary>
energy

> <minimizedAffinity>
-6.12681

> <minimizedRMSD>
1.18226

> <CNNscore>
0.7724601626

> <CNNaffinity>
6.8306403160

> <CNN_VS>
5.2763977051

> <CNNaffinity_variance>
0.2334750146

$$$$
83:0


 28 31  0  0  0  0  0  0  0  0999 V2000
   58.8913   27.8201   47.0307 C   0  0  0  0  0  0  0  0  0  0  0  0
   58.6131   28.3560   45.8328 C   0  0  0  0  0  0  0  0  0  0  0  0
   58.0171   27.7215   44.7298 C   0  0  0  0  0  0  0  0  0  0  0  0
   57.7382   26.4238   44.4985 C   0  0  0  0  0  0  0  0  0  0  0  0
   57.7679   28.7177   43.7993 C   0  0  0  0  0  0  0  0  0  0  0  0
   58.2536   29.8937   44.3277 C   0  0  0  0  0  0  0  0  0  0  0  0
   58.3170   31.1975   43.5912 C   0  0  0  0  0  0  0  0  0  0  0  0
   58.7682   29.6753   45.5575 N   0  0  0  0  0  0  0  0  0  0  0  0
   59.3756   30.6738   46.3935 C   0  0  0  0  0  0  0  0  0  0  0  0
   60.6332   30.3991   46.9683 C   0  0  0  0  0  0  0  0  0  0  0  0
   61.2373   31.3692   47.7636 C   0  0  0  0  0  0  0  0  0  0  0  0
   60.6227   32.5799   47.9844 C   0  0  0  0  0  0  0  0  0  0  0  0
   59.3843   32.8930   47.4332 C   0  0  0  0  0  0  0  0  0  0  0  0
   58.7391   31.9287   46.6293 C   0  0  0  0  0  0  0  0  0  0  0  0
   61.4999   33.3557   48.8232 C   0  0  0  0  0  0  0  0  0  0  0  0
   61.2843   34.5252   49.2384 O   0  0  0  0  0  0  0  0  0  0  0  0
   62.6696   32.6060   49.1208 N   0  0  0  0  0  0  0  0  0  0  0  0
   62.5643   31.3018   48.4629 C   0  0  0  0  0  0  0  0  0  0  0  0
   63.4234   32.9116   49.6755 H   0  0  0  0  0  0  0  0  0  0  0  0
   57.4169   32.2826   45.9915 C   0  0  0  0  0  0  0  0  0  0  0  0
   57.3873   33.7469   45.5659 C   0  0  0  0  0  0  0  0  0  0  0  0
   57.3403   25.4357   45.5142 C   0  0  0  0  0  0  0  0  0  0  0  0
   57.9881   24.2816   45.7535 N   0  0  0  0  0  0  0  0  0  0  0  0
   57.1837   23.6505   46.6377 C   0  0  0  0  0  0  0  0  0  0  0  0
   57.4636   22.5230   47.1235 O   0  0  0  0  0  0  0  0  0  0  0  0
   56.0525   24.3176   46.9494 N   0  0  0  0  0  0  0  0  0  0  0  0
   56.1614   25.4378   46.2177 C   0  0  0  0  0  0  0  0  0  0  0  0
   55.1981   26.4382   46.1870 O   0  0  0  0  0  0  0  0  0  0  0  0
  1  2  2  0
  2  3  1  0
  3  4  2  0
  4 22  1  0
 22 23  1  0
 23 24  1  0
 24 25  2  0
 24 26  1  0
 26 27  1  0
 27 28  1  0
  3  5  1  0
  5  6  2  0
  6  7  1  0
  6  8  1  0
  8  9  1  0
  9 10  2  0
 10 11  1  0
 11 12  2  0
 12 13  1  0
 13 14  2  0
 14 20  1  0
 20 21  1  0
 12 15  1  0
 15 16  2  0
 15 17  1  0
 17 18  1  0
  8  2  1  0
 14  9  1  0
 27 22  2  0
 18 11  1  0
 17 19  1  0
M  CHG 1  23  -1
M  CHG 1  26  -1
M  CHG 1  28  -1
M  END
> <UniqueID>
81

> <SMILES>
C=c1c(=Cc2[n-]c(=O)[n-]c2[O-])cc(C)n1-c1cc2c(cc1CC)C(=O)NC2

> <Energy>
140.7621267045173

> <Genealogy>
C=c1c(=Cc2[n-]c(=O)[n-]c2[O-])cc(C)n1-c1cc2c(cc1CC)C(=O)NC2 (protonated)
C=c1c(=Cc2[n-]c(=O)[n-]c2[O-])cc(C)n1-c1cc2c(cc1CC)C(=O)NC2 (3D coordinates assigned)
C=c1c(=Cc2[n-]c(=O)[n-]c2[O-])cc(C)n1-c1cc2c(cc1CC)C(=O)NC2 (nonaromatic ring conformer: 140.7621267045173 kcal/mol)

> <smiles>
C=c1c(=Cc2[nH]c(=O)[nH]c2O)cc(C)n1-c1cc2c(cc1CC)C(=O)NC2

> <score_type>
oracle

> <origin>
adg

> <m_score__min__energy>
-15.859999999999999

> <m_primary>
energy

> <minimizedAffinity>
-7.15470

> <minimizedRMSD>
0.56342

> <CNNscore>
0.0727780685

> <CNNaffinity>
6.0548338890

> <CNN_VS>
0.4406591058

> <CNNaffinity_variance>
0.0774877146

$$$$
3:0


 25 27  0  0  0  0  0  0  0  0999 V2000
   59.6619   29.7190   48.5948 C   0  0  0  0  0  0  0  0  0  0  0  0
   59.3797   30.1815   47.3671 C   0  0  0  0  0  0  0  0  0  0  0  0
   59.4549   29.4451   46.1756 C   0  0  0  0  0  0  0  0  0  0  0  0
   59.9075   28.1786   46.0327 C   0  0  0  0  0  0  0  0  0  0  0  0
   58.9675   30.2778   45.1791 C   0  0  0  0  0  0  0  0  0  0  0  0
   58.6280   31.4702   45.7834 C   0  0  0  0  0  0  0  0  0  0  0  0
   57.9675   32.6119   45.0688 C   0  0  0  0  0  0  0  0  0  0  0  0
   58.9150   31.4362   47.1072 N   0  0  0  0  0  0  0  0  0  0  0  0
   59.0700   26.9595   45.9664 C   0  0  0  0  0  0  0  0  0  0  0  0
   59.4941   25.6946   46.1426 N   0  0  0  0  0  0  0  0  0  0  0  0
   58.3786   24.9568   45.9503 C   0  0  0  0  0  0  0  0  0  0  0  0
   58.3743   23.7011   46.0378 O   0  0  0  0  0  0  0  0  0  0  0  0
   57.2723   25.6700   45.6573 N   0  0  0  0  0  0  0  0  0  0  0  0
   57.7270   26.9335   45.6666 C   0  0  0  0  0  0  0  0  0  0  0  0
   56.9304   28.0412   45.4070 O   0  0  0  0  0  0  0  0  0  0  0  0
   58.6452   32.5249   48.0678 C   0  0  0  0  0  0  0  0  0  0  0  0
   59.8832   32.9407   48.8657 C   0  0  0  0  0  0  0  0  0  0  0  0
   59.9064   32.8126   50.2852 C   0  0  0  0  0  0  0  0  0  0  0  0
   58.7138   32.3183   51.0682 C   0  0  0  0  0  0  0  0  0  0  0  0
   61.0702   33.1431   50.9978 C   0  0  0  0  0  0  0  0  0  0  0  0
   62.1966   33.6434   50.3419 C   0  0  0  0  0  0  0  0  0  0  0  0
   63.4468   33.9459   51.1138 C   0  0  0  0  0  0  0  0  0  0  0  0
   62.1683   33.8121   48.9567 C   0  0  0  0  0  0  0  0  0  0  0  0
   61.0180   33.5033   48.2137 C   0  0  0  0  0  0  0  0  0  0  0  0
   61.0482   33.7679   46.7303 C   0  0  0  0  0  0  0  0  0  0  0  0
  1  2  2  0
  2  3  1  0
  3  4  2  0
  4  9  1  0
  9 10  1  0
 10 11  1  0
 11 12  2  0
 11 13  1  0
 13 14  1  0
 14 15  1  0
  3  5  1  0
  5  6  2  0
  6  7  1  0
  6  8  1  0
  8 16  1  0
 16 17  1  0
 17 18  2  0
 18 19  1  0
 18 20  1  0
 20 21  2  0
 21 22  1  0
 21 23  1  0
 23 24  2  0
 24 25  1  0
  8  2  1  0
 24 17  1  0
 14  9  2  0
M  CHG 1  10  -1
M  CHG 1  13  -1
M  CHG 1  15  -1
M  END
> <UniqueID>
4

> <SMILES>
C=c1/c(=C/c2[n-]c(=O)[n-]c2[O-])cc(C)n1Cc1c(C)cc(C)cc1C

> <Energy>
113.33754866528551

> <Genealogy>
C=c1c(=Cc2[n-]c(=O)[n-]c2[O-])cc(C)n1Cc1c(C)cc(C)cc1C (protonated)
C=c1/c(=C/c2[n-]c(=O)[n-]c2[O-])cc(C)n1Cc1c(C)cc(C)cc1C (cis-trans isomerization)
C=c1/c(=C/c2[n-]c(=O)[n-]c2[O-])cc(C)n1Cc1c(C)cc(C)cc1C (3D coordinates assigned)
C=c1/c(=C/c2[n-]c(=O)[n-]c2[O-])cc(C)n1Cc1c(C)cc(C)cc1C (optimized conformer: 113.33754866528551 kcal/mol)

> <smiles>
C=c1c(=Cc2[nH]c(=O)[nH]c2O)cc(C)n1Cc1c(C)cc(C)cc1C

> <score_type>
oracle

> <origin>
adg

> <m_score__min__energy>
-15.74

> <m_primary>
energy

> <minimizedAffinity>
-8.21402

> <minimizedRMSD>
1.58974

> <CNNscore>
0.6060384512

> <CNNaffinity>
7.0449233055

> <CNN_VS>
4.2694945335

> <CNNaffinity_variance>
0.2131369561

$$$$
7:0


 27 29  0  0  0  0  0  0  0  0999 V2000
   59.6782   27.6009   45.8306 C   0  0  0  0  0  0  0  0  0  0  0  0
   60.8893   27.6570   45.4926 O   0  0  0  0  0  0  0  0  0  0  0  0
   58.7510   28.6601   45.3947 C   0  0  0  0  0  0  0  0  0  0  0  0
   57.3935   28.5193   45.1590 C   0  0  0  0  0  0  0  0  0  0  0  0
   56.9593   29.7671   44.7648 C   0  0  0  0  0  0  0  0  0  0  0  0
   55.6542   30.0787   44.4002 O   0  0  0  0  0  0  0  0  0  0  0  0
   57.9716   30.6568   44.7757 N   0  0  0  0  0  0  0  0  0  0  0  0
   59.0758   29.9855   45.1559 C   0  0  0  0  0  0  0  0  0  0  0  0
   57.9213   32.0626   44.3778 C   0  0  0  0  0  0  0  0  0  0  0  0
   58.5158   32.9233   45.4566 C   0  0  0  0  0  0  0  0  0  0  0  0
   59.0974   34.1609   45.1346 C   0  0  0  0  0  0  0  0  0  0  0  0
   59.6396   34.9664   46.1397 C   0  0  0  0  0  0  0  0  0  0  0  0
   59.5945   34.5476   47.4737 C   0  0  0  0  0  0  0  0  0  0  0  0
   58.9965   33.3290   47.8047 C   0  0  0  0  0  0  0  0  0  0  0  0
   58.4529   32.5200   46.8019 C   0  0  0  0  0  0  0  0  0  0  0  0
   59.2185   26.4799   46.5972 N   0  0  0  0  0  0  0  0  0  0  0  0
   56.6003   24.0564   45.4149 C   0  0  0  0  0  0  0  0  0  0  0  0
   57.4073   22.9725   45.0484 C   0  0  0  0  0  0  0  0  0  0  0  0
   58.7968   23.0552   45.1741 C   0  0  0  0  0  0  0  0  0  0  0  0
   59.3868   24.2160   45.6841 C   0  0  0  0  0  0  0  0  0  0  0  0
   58.5932   25.3110   46.0460 C   0  0  0  0  0  0  0  0  0  0  0  0
   57.1961   25.2257   45.9122 C   0  0  0  0  0  0  0  0  0  0  0  0
   54.2980   23.6104   43.7472 N   0  0  0  0  0  0  0  0  0  0  0  0
   54.8445   23.9118   45.3618 S   0  0  0  0  0  0  0  0  0  0  0  0
   54.2110   25.1889   45.8453 O   0  0  0  0  0  0  0  0  0  0  0  0
   54.4177   22.7809   46.2577 O   0  0  0  0  0  0  0  0  0  0  0  0
   53.2811   23.5306   43.7418 H   0  0  0  0  0  0  0  0  0  0  0  0
 23 24  1  0
 24 25  2  0
 24 26  2  0
 24 17  1  0
 17 18  2  0
 18 19  1  0
 19 20  2  0
 20 21  1  0
 21 16  1  0
 16  1  1  0
  1  2  2  0
  1  3  1  0
  3  4  1  0
  4  5  2  0
  5  6  1  0
  5  7  1  0
  7  9  1  0
  9 10  1  0
 10 11  2  0
 11 12  1  0
 12 13  2  0
 13 14  1  0
 14 15  2  0
  7  8  1  0
 21 22  2  0
 22 17  1  0
  8  3  2  0
 15 10  1  0
 23 27  1  0
M  CHG 1   6  -1
M  CHG 1  16  -1
M  CHG 1  23  -1
M  END
> <UniqueID>
7

> <SMILES>
[NH-]S(=O)(=O)c1cccc([N-]C(=O)c2cc([O-])n(Cc3ccccc3)c2)c1

> <Energy>
70.40123062654452

> <Genealogy>
[NH-]S(=O)(=O)c1cccc([N-]C(=O)c2cc([O-])n(Cc3ccccc3)c2)c1 (protonated)
[NH-]S(=O)(=O)c1cccc([N-]C(=O)c2cc([O-])n(Cc3ccccc3)c2)c1 (3D coordinates assigned)
[NH-]S(=O)(=O)c1cccc([N-]C(=O)c2cc([O-])n(Cc3ccccc3)c2)c1 (optimized conformer: 70.40123062654452 kcal/mol)

> <smiles>
NS(=O)(=O)c1cccc(NC(=O)c2cc(O)n(Cc3ccccc3)c2)c1

> <score_type>
oracle

> <origin>
adg

> <m_score__min__energy>
-15.83

> <m_primary>
energy

> <minimizedAffinity>
-7.50421

> <minimizedRMSD>
1.05679

> <CNNscore>
0.6940798163

> <CNNaffinity>
6.6104407310

> <CNN_VS>
4.5881733894

> <CNNaffinity_variance>
0.0400395133

$$$$
17:0


 26 28  0  0  0  0  0  0  0  0999 V2000
   58.2484   27.4411   43.7537 C   0  0  0  0  0  0  0  0  0  0  0  0
   58.6557   26.9764   44.9454 C   0  0  0  0  0  0  0  0  0  0  0  0
   58.4835   25.6745   45.4251 C   0  0  0  0  0  0  0  0  0  0  0  0
   57.8979   24.6381   44.7954 C   0  0  0  0  0  0  0  0  0  0  0  0
   59.0825   25.6359   46.6770 C   0  0  0  0  0  0  0  0  0  0  0  0
   59.5853   26.8996   46.9130 C   0  0  0  0  0  0  0  0  0  0  0  0
   60.3193   27.3011   48.1574 C   0  0  0  0  0  0  0  0  0  0  0  0
   59.3126   27.7226   45.8724 N   0  0  0  0  0  0  0  0  0  0  0  0
   56.4523   24.3311   44.8989 C   0  0  0  0  0  0  0  0  0  0  0  0
   55.6445   24.9101   45.8928 C   0  0  0  0  0  0  0  0  0  0  0  0
   56.1805   25.7973   46.8183 O   0  0  0  0  0  0  0  0  0  0  0  0
   54.3190   24.6200   45.9417 N   0  0  0  0  0  0  0  0  0  0  0  0
   53.7474   23.7902   45.0314 C   0  0  0  0  0  0  0  0  0  0  0  0
   52.5177   23.5337   45.0995 O   0  0  0  0  0  0  0  0  0  0  0  0
   54.5019   23.2417   44.0439 N   0  0  0  0  0  0  0  0  0  0  0  0
   55.8315   23.4975   43.9524 C   0  0  0  0  0  0  0  0  0  0  0  0
   56.5005   22.9741   43.0211 O   0  0  0  0  0  0  0  0  0  0  0  0
   59.7303   29.1286   45.7579 C   0  0  0  0  0  0  0  0  0  0  0  0
   58.6222   30.0553   46.2690 C   0  0  0  0  0  0  0  0  0  0  0  0
   59.0045   30.6742   47.6293 C   0  0  0  0  0  0  0  0  0  0  0  0
   59.1241   32.1485   47.6210 N   0  0  0  0  0  0  0  0  0  0  0  0
   60.1492   32.6587   48.5542 C   0  0  0  0  0  0  0  0  0  0  0  0
   60.3768   34.1678   48.3443 C   0  0  0  0  0  0  0  0  0  0  0  0
   59.2602   34.7533   47.7044 O   0  0  0  0  0  0  0  0  0  0  0  0
   59.1551   34.2733   46.3720 C   0  0  0  0  0  0  0  0  0  0  0  0
   59.2722   32.7366   46.2790 C   0  0  0  0  0  0  0  0  0  0  0  0
  1  2  2  0
  2  3  1  0
  3  4  2  0
  4  9  1  0
  9 10  2  0
 10 11  1  0
 10 12  1  0
 12 13  1  0
 13 14  2  0
 13 15  1  0
 15 16  1  0
 16 17  2  0
  3  5  1  0
  5  6  2  0
  6  7  1  0
  6  8  1  0
  8 18  1  0
 18 19  1  0
 19 20  1  0
 20 21  1  0
 21 22  1  0
 22 23  1  0
 23 24  1  0
 24 25  1  0
 25 26  1  0
  8  2  1  0
 26 21  1  0
 16  9  1  0
M  CHG 1  11  -1
M  CHG 1  12  -1
M  CHG 1  15  -1
M  END
> <UniqueID>
16

> <SMILES>
C=c1c(=Cc2c([O-])[n-]c(=O)[n-]c2=O)cc(C)n1CCCN1CCOCC1

> <Energy>
95.2143876325956

> <Genealogy>
C=c1c(=Cc2c([O-])[n-]c(=O)[n-]c2=O)cc(C)n1CCCN1CCOCC1 (protonated)
C=c1c(=Cc2c([O-])[n-]c(=O)[n-]c2=O)cc(C)n1CCCN1CCOCC1 (3D coordinates assigned)
C=c1c(=Cc2c([O-])[n-]c(=O)[n-]c2=O)cc(C)n1CCCN1CCOCC1 (nonaromatic ring conformer: 95.2143876325956 kcal/mol)

> <smiles>
C=c1c(=Cc2c(O)[nH]c(=O)[nH]c2=O)cc(C)n1CCCN1CCOCC1

> <score_type>
oracle

> <origin>
adg

> <m_score__min__energy>
-15.6

> <m_primary>
energy

> <minimizedAffinity>
-7.95113

> <minimizedRMSD>
1.79206

> <CNNscore>
0.0880381390

> <CNNaffinity>
5.5858917236

> <CNN_VS>
0.4917715192

> <CNNaffinity_variance>
0.1819475144

$$$$
23:0


 27 30  0  0  0  0  0  0  0  0999 V2000
   54.5160   28.5796   54.9468 C   0  0  0  0  0  0  0  0  0  0  0  0
   55.0835   29.3064   53.9714 C   0  0  0  0  0  0  0  0  0  0  0  0
   54.4203   30.1013   53.0252 C   0  0  0  0  0  0  0  0  0  0  0  0
   53.0848   30.2572   52.8961 C   0  0  0  0  0  0  0  0  0  0  0  0
   55.4167   30.6769   52.2430 C   0  0  0  0  0  0  0  0  0  0  0  0
   56.6232   30.2138   52.7288 C   0  0  0  0  0  0  0  0  0  0  0  0
   57.9658   30.5900   52.1777 C   0  0  0  0  0  0  0  0  0  0  0  0
   56.4241   29.3949   53.7831 N   0  0  0  0  0  0  0  0  0  0  0  0
   57.4533   28.7236   54.5309 C   0  0  0  0  0  0  0  0  0  0  0  0
   57.8927   27.4553   54.1332 C   0  0  0  0  0  0  0  0  0  0  0  0
   58.8994   26.8049   54.8553 C   0  0  0  0  0  0  0  0  0  0  0  0
   59.3621   25.5348   54.4789 C   0  0  0  0  0  0  0  0  0  0  0  0
   60.3723   24.9102   55.2197 C   0  0  0  0  0  0  0  0  0  0  0  0
   60.9494   23.3235   54.7505 Cl  0  0  0  0  0  0  0  0  0  0  0  0
   60.9226   25.5521   56.3364 C   0  0  0  0  0  0  0  0  0  0  0  0
   60.4666   26.8180   56.7170 C   0  0  0  0  0  0  0  0  0  0  0  0
   59.4579   27.4484   55.9822 C   0  0  0  0  0  0  0  0  0  0  0  0
   59.0114   28.6800   56.3504 N   0  0  0  0  0  0  0  0  0  0  0  0
   58.0322   29.3254   55.6616 C   0  0  0  0  0  0  0  0  0  0  0  0
   57.6457   30.4582   56.0497 O   0  0  0  0  0  0  0  0  0  0  0  0
   52.3572   30.4667   51.6243 C   0  0  0  0  0  0  0  0  0  0  0  0
   52.3778   29.6505   50.5555 N   0  0  0  0  0  0  0  0  0  0  0  0
   51.5991   30.2863   49.6544 C   0  0  0  0  0  0  0  0  0  0  0  0
   51.3696   29.8217   48.5076 O   0  0  0  0  0  0  0  0  0  0  0  0
   51.0894   31.4627   50.0791 N   0  0  0  0  0  0  0  0  0  0  0  0
   51.5810   31.5634   51.3236 C   0  0  0  0  0  0  0  0  0  0  0  0
   51.3263   32.6350   52.1680 O   0  0  0  0  0  0  0  0  0  0  0  0
  1  2  2  0
  2  3  1  0
  3  4  2  0
  4 21  1  0
 21 22  1  0
 22 23  1  0
 23 24  2  0
 23 25  1  0
 25 26  1  0
 26 27  1  0
  3  5  1  0
  5  6  2  0
  6  7  1  0
  6  8  1  0
  8  9  1  0
  9 10  2  0
 10 11  1  0
 11 12  2  0
 12 13  1  0
 13 14  1  0
 13 15  2  0
 15 16  1  0
 16 17  2  0
 17 18  1  0
 18 19  1  0
 19 20  2  0
  8  2  1  0
 19  9  1  0
 26 21  2  0
 17 11  1  0
M  CHG 1  18  -1
M  CHG 1  22  -1
M  CHG 1  25  -1
M  CHG 1  27  -1
M  END
> <UniqueID>
21

> <SMILES>
C=c1c(=Cc2[n-]c(=O)[n-]c2[O-])cc(C)n1-c1cc2cc(Cl)ccc2[n-]c1=O

> <Energy>
114.76455405211088

> <Genealogy>
C=c1c(=Cc2[n-]c(=O)[n-]c2[O-])cc(C)n1-c1cc2cc(Cl)ccc2[n-]c1=O (protonated)
C=c1c(=Cc2[n-]c(=O)[n-]c2[O-])cc(C)n1-c1cc2cc(Cl)ccc2[n-]c1=O (3D coordinates assigned)
C=c1c(=Cc2[n-]c(=O)[n-]c2[O-])cc(C)n1-c1cc2cc(Cl)ccc2[n-]c1=O (optimized conformer: 114.76455405211088 kcal/mol)

> <smiles>
C=c1c(=Cc2[nH]c(=O)[nH]c2O)cc(C)n1-c1cc2cc(Cl)ccc2[nH]c1=O

> <score_type>
oracle

> <origin>
adg

> <m_score__min__energy>
-17.059999999999999

> <m_primary>
energy

> <minimizedAffinity>
-4.10563

> <minimizedRMSD>
1.31726

> <CNNscore>
0.1345832646

> <CNNaffinity>
4.6693272591

> <CNN_VS>
0.6284133196

> <CNNaffinity_variance>
0.2938151360

$$$$
24:0


 27 29  0  0  0  0  0  0  0  0999 V2000
   58.5284   30.0065   45.2320 C   0  0  0  0  0  0  0  0  0  0  0  0
   58.8579   29.3521   46.3566 C   0  0  0  0  0  0  0  0  0  0  0  0
   58.9618   27.9657   46.5065 C   0  0  0  0  0  0  0  0  0  0  0  0
   58.7219   27.0203   45.5766 C   0  0  0  0  0  0  0  0  0  0  0  0
   59.3274   27.7415   47.8252 C   0  0  0  0  0  0  0  0  0  0  0  0
   59.4410   28.9806   48.4210 C   0  0  0  0  0  0  0  0  0  0  0  0
   59.8074   29.1995   49.8578 C   0  0  0  0  0  0  0  0  0  0  0  0
   59.1532   29.9634   47.5335 N   0  0  0  0  0  0  0  0  0  0  0  0
   57.8873   25.8229   45.8271 C   0  0  0  0  0  0  0  0  0  0  0  0
   56.4940   25.9156   45.9815 C   0  0  0  0  0  0  0  0  0  0  0  0
   55.8471   27.1441   45.9023 O   0  0  0  0  0  0  0  0  0  0  0  0
   55.7639   24.7975   46.2323 N   0  0  0  0  0  0  0  0  0  0  0  0
   56.3598   23.5846   46.3541 C   0  0  0  0  0  0  0  0  0  0  0  0
   55.4573   22.2583   46.6538 S   0  0  0  0  0  0  0  0  0  0  0  0
   57.7084   23.4740   46.2392 N   0  0  0  0  0  0  0  0  0  0  0  0
   58.4818   24.5613   45.9860 C   0  0  0  0  0  0  0  0  0  0  0  0
   59.7305   24.4217   45.8892 O   0  0  0  0  0  0  0  0  0  0  0  0
   59.1764   31.4105   47.7989 C   0  0  0  0  0  0  0  0  0  0  0  0
   60.5589   31.9944   47.5656 C   0  0  0  0  0  0  0  0  0  0  0  0
   61.6876   31.2738   48.0006 C   0  0  0  0  0  0  0  0  0  0  0  0
   62.9774   31.7479   47.7593 C   0  0  0  0  0  0  0  0  0  0  0  0
   63.1632   32.9574   47.0925 C   0  0  0  0  0  0  0  0  0  0  0  0
   62.0596   33.7083   46.6875 C   0  0  0  0  0  0  0  0  0  0  0  0
   60.7504   33.2557   46.9332 C   0  0  0  0  0  0  0  0  0  0  0  0
   59.6164   34.1315   46.5534 C   0  0  0  0  0  0  0  0  0  0  0  0
   59.1250   34.9255   47.3997 O   0  0  0  0  0  0  0  0  0  0  0  0
   59.0979   34.1576   45.1489 C   0  0  0  0  0  0  0  0  0  0  0  0
  1  2  2  0
  2  3  1  0
  3  4  2  0
  4  9  1  0
  9 10  2  0
 10 11  1  0
 10 12  1  0
 12 13  1  0
 13 14  2  0
 13 15  1  0
 15 16  1  0
 16 17  2  0
  3  5  1  0
  5  6  2  0
  6  7  1  0
  6  8  1  0
  8 18  1  0
 18 19  1  0
 19 20  2  0
 20 21  1  0
 21 22  2  0
 22 23  1  0
 23 24  2  0
 24 25  1  0
 25 26  2  0
 25 27  1  0
  8  2  1  0
 24 19  1  0
 16  9  1  0
M  CHG 1  11  -1
M  CHG 1  12  -1
M  CHG 1  15  -1
M  END
> <UniqueID>
22

> <SMILES>
C=c1/c(=C/c2c([O-])[n-]c(=S)[n-]c2=O)cc(C)n1Cc1ccccc1C(C)=O

> <Energy>
88.70701336394164

> <Genealogy>
C=c1c(=Cc2c([O-])[n-]c(=S)[n-]c2=O)cc(C)n1Cc1ccccc1C(C)=O (protonated)
C=c1/c(=C/c2c([O-])[n-]c(=S)[n-]c2=O)cc(C)n1Cc1ccccc1C(C)=O (cis-trans isomerization)
C=c1/c(=C/c2c([O-])[n-]c(=S)[n-]c2=O)cc(C)n1Cc1ccccc1C(C)=O (3D coordinates assigned)
C=c1/c(=C/c2c([O-])[n-]c(=S)[n-]c2=O)cc(C)n1Cc1ccccc1C(C)=O (optimized conformer: 88.70701336394164 kcal/mol)

> <smiles>
C=c1c(=Cc2c(O)[nH]c(=S)[nH]c2=O)cc(C)n1Cc1ccccc1C(C)=O

> <score_type>
oracle

> <origin>
adg

> <m_score__min__energy>
-15.9

> <m_primary>
energy

> <minimizedAffinity>
-8.59777

> <minimizedRMSD>
0.98291

> <CNNscore>
0.3030874431

> <CNNaffinity>
6.5207800865

> <CNN_VS>
1.9763665199

> <CNNaffinity_variance>
0.0173181407

$$$$
32:0


 29 32  0  0  0  0  0  0  0  0999 V2000
   59.3417   28.7406   47.4680 C   0  0  0  0  0  0  0  0  0  0  0  0
   58.8110   28.6957   46.2355 C   0  0  0  0  0  0  0  0  0  0  0  0
   58.4478   27.5466   45.5151 C   0  0  0  0  0  0  0  0  0  0  0  0
   58.7251   26.2448   45.7262 C   0  0  0  0  0  0  0  0  0  0  0  0
   57.7024   27.9878   44.4341 C   0  0  0  0  0  0  0  0  0  0  0  0
   57.7026   29.3657   44.4833 C   0  0  0  0  0  0  0  0  0  0  0  0
   57.0287   30.2515   43.4783 C   0  0  0  0  0  0  0  0  0  0  0  0
   58.3738   29.7976   45.5746 N   0  0  0  0  0  0  0  0  0  0  0  0
   57.7504   25.2157   46.1239 C   0  0  0  0  0  0  0  0  0  0  0  0
   58.0208   23.9013   46.2276 N   0  0  0  0  0  0  0  0  0  0  0  0
   56.8116   23.3533   46.4766 C   0  0  0  0  0  0  0  0  0  0  0  0
   56.6512   22.1180   46.6533 O   0  0  0  0  0  0  0  0  0  0  0  0
   55.7865   24.2321   46.5083 N   0  0  0  0  0  0  0  0  0  0  0  0
   56.3982   25.4042   46.2709 C   0  0  0  0  0  0  0  0  0  0  0  0
   55.7314   26.6193   46.1817 O   0  0  0  0  0  0  0  0  0  0  0  0
   58.5506   31.1724   45.9651 C   0  0  0  0  0  0  0  0  0  0  0  0
   57.5721   32.1278   45.6612 C   0  0  0  0  0  0  0  0  0  0  0  0
   57.7484   33.4577   46.0436 C   0  0  0  0  0  0  0  0  0  0  0  0
   58.9010   33.8452   46.7321 C   0  0  0  0  0  0  0  0  0  0  0  0
   59.8962   32.9007   47.0430 C   0  0  0  0  0  0  0  0  0  0  0  0
   59.7091   31.5618   46.6550 C   0  0  0  0  0  0  0  0  0  0  0  0
   61.0803   33.2933   47.7709 N   0  0  0  0  0  0  0  0  0  0  0  0
   62.3691   33.3607   47.0558 C   0  0  0  0  0  0  0  0  0  0  0  0
   63.4279   32.3806   47.6041 C   0  0  0  0  0  0  0  0  0  0  0  0
   64.2172   32.9185   48.7282 N   0  0  0  0  0  0  0  0  0  0  0  0
   63.4648   33.1891   49.9648 C   0  0  0  0  0  0  0  0  0  0  0  0
   62.3023   34.1802   49.7749 C   0  0  0  0  0  0  0  0  0  0  0  0
   61.0008   33.5611   49.2174 C   0  0  0  0  0  0  0  0  0  0  0  0
   64.6422   33.7938   48.4221 H   0  0  0  0  0  0  0  0  0  0  0  0
  1  2  2  0
  2  3  1  0
  3  4  2  0
  4  9  1  0
  9 10  1  0
 10 11  1  0
 11 12  2  0
 11 13  1  0
 13 14  1  0
 14 15  1  0
  3  5  1  0
  5  6  2  0
  6  7  1  0
  6  8  1  0
  8 16  1  0
 16 17  2  0
 17 18  1  0
 18 19  2  0
 19 20  1  0
 20 22  1  0
 22 23  1  0
 23 24  1  0
 24 25  1  0
 25 26  1  0
 26 27  1  0
 27 28  1  0
 20 21  2  0
  8  2  1  0
 21 16  1  0
 14  9  2  0
 28 22  1  0
 25 29  1  0
M  CHG 1  10  -1
M  CHG 1  13  -1
M  CHG 1  15  -1
M  END
> <UniqueID>
30

> <SMILES>
C=c1/c(=C\c2[n-]c(=O)[n-]c2[O-])cc(C)n1-c1cccc(N2CCCNCC2)c1

> <Energy>
140.1914316703747

> <Genealogy>
C=c1c(=Cc2[n-]c(=O)[n-]c2[O-])cc(C)n1-c1cccc(N2CCCNCC2)c1 (protonated)
C=c1/c(=C\c2[n-]c(=O)[n-]c2[O-])cc(C)n1-c1cccc(N2CCCNCC2)c1 (cis-trans isomerization)
C=c1/c(=C\c2[n-]c(=O)[n-]c2[O-])cc(C)n1-c1cccc(N2CCCNCC2)c1 (3D coordinates assigned)
C=c1/c(=C\c2[n-]c(=O)[n-]c2[O-])cc(C)n1-c1cccc(N2CCCNCC2)c1 (nonaromatic ring conformer: 140.1914316703747 kcal/mol)

> <smiles>
C=c1c(=Cc2[nH]c(=O)[nH]c2O)cc(C)n1-c1cccc(N2CCCNCC2)c1

> <score_type>
oracle

> <origin>
adg

> <m_score__min__energy>
-15.06

> <m_primary>
energy

> <minimizedAffinity>
-9.11128

> <minimizedRMSD>
0.70569

> <CNNscore>
0.4020195007

> <CNNaffinity>
6.9934878349

> <CNN_VS>
2.8115184307

> <CNNaffinity_variance>
0.0517155044

$$$$
35:0


 32 35  0  0  0  0  0  0  0  0999 V2000
   60.3620   28.9290   44.8640 C   0  0  0  0  0  0  0  0  0  0  0  0
   59.8286   28.7384   46.0849 C   0  0  0  0  0  0  0  0  0  0  0  0
   58.9803   27.6813   46.4477 C   0  0  0  0  0  0  0  0  0  0  0  0
   58.5631   26.6651   45.6588 C   0  0  0  0  0  0  0  0  0  0  0  0
   58.6426   27.9034   47.7723 C   0  0  0  0  0  0  0  0  0  0  0  0
   59.2814   29.0598   48.1724 C   0  0  0  0  0  0  0  0  0  0  0  0
   60.0201   29.5688   47.1499 N   0  0  0  0  0  0  0  0  0  0  0  0
   59.1451   29.6258   49.5367 C   0  0  0  0  0  0  0  0  0  0  0  0
   58.2093   29.2758   50.3020 O   0  0  0  0  0  0  0  0  0  0  0  0
   60.0871   30.5976   50.0016 N   0  0  0  0  0  0  0  0  0  0  0  0
   59.7251   32.0169   49.9550 C   0  0  0  0  0  0  0  0  0  0  0  0
   60.7899   32.8918   50.6252 C   0  0  0  0  0  0  0  0  0  0  0  0
   62.1350   32.4862   50.1862 N   0  0  0  0  0  0  0  0  0  0  0  0
   63.1331   33.4879   49.8925 C   0  0  0  0  0  0  0  0  0  0  0  0
   62.9460   34.6882   50.2362 O   0  0  0  0  0  0  0  0  0  0  0  0
   64.4028   33.1361   49.1770 C   0  0  0  0  0  0  0  0  0  0  0  0
   62.4966   31.0579   50.1441 C   0  0  0  0  0  0  0  0  0  0  0  0
   61.3443   30.1600   50.6114 C   0  0  0  0  0  0  0  0  0  0  0  0
   57.7947   25.4784   46.1020 C   0  0  0  0  0  0  0  0  0  0  0  0
   58.2943   24.2543   46.3513 N   0  0  0  0  0  0  0  0  0  0  0  0
   57.2068   23.5298   46.6894 C   0  0  0  0  0  0  0  0  0  0  0  0
   57.2725   22.3102   46.9963 O   0  0  0  0  0  0  0  0  0  0  0  0
   56.0437   24.2112   46.6675 N   0  0  0  0  0  0  0  0  0  0  0  0
   56.4332   25.4401   46.2892 C   0  0  0  0  0  0  0  0  0  0  0  0
   55.5590   26.5068   46.1272 O   0  0  0  0  0  0  0  0  0  0  0  0
   60.8468   30.7885   47.1931 C   0  0  0  0  0  0  0  0  0  0  0  0
   60.0705   31.9948   46.7199 C   0  0  0  0  0  0  0  0  0  0  0  0
   58.7804   31.8496   46.1803 C   0  0  0  0  0  0  0  0  0  0  0  0
   58.0811   32.9668   45.7103 C   0  0  0  0  0  0  0  0  0  0  0  0
   58.6659   34.2350   45.7677 C   0  0  0  0  0  0  0  0  0  0  0  0
   59.9534   34.3864   46.2884 C   0  0  0  0  0  0  0  0  0  0  0  0
   60.6569   33.2724   46.7560 C   0  0  0  0  0  0  0  0  0  0  0  0
  1  2  2  0
  2  3  1  0
  3  4  2  0
  4 19  1  0
 19 20  1  0
 20 21  1  0
 21 22  2  0
 21 23  1  0
 23 24  1  0
 24 25  1  0
  3  5  1  0
  5  6  2  0
  6  8  1  0
  8  9  2  0
  8 10  1  0
 10 11  1  0
 11 12  1  0
 12 13  1  0
 13 14  1  0
 14 15  2  0
 14 16  1  0
 13 17  1  0
 17 18  1  0
  6  7  1  0
  7 26  1  0
 26 27  1  0
 27 28  2  0
 28 29  1  0
 29 30  2  0
 30 31  1  0
 31 32  2  0
  7  2  1  0
 32 27  1  0
 24 19  2  0
 18 10  1  0
M  CHG 1  20  -1
M  CHG 1  23  -1
M  CHG 1  25  -1
M  END
> <UniqueID>
33

> <SMILES>
C=c1/c(=C/c2[n-]c(=O)[n-]c2[O-])cc(C(=O)N2CCN(C(C)=O)CC2)n1Cc1ccccc1

> <Energy>
125.5558390773622

> <Genealogy>
C=c1c(=Cc2[n-]c(=O)[n-]c2[O-])cc(C(=O)N2CCN(C(C)=O)CC2)n1Cc1ccccc1 (protonated)
C=c1/c(=C/c2[n-]c(=O)[n-]c2[O-])cc(C(=O)N2CCN(C(C)=O)CC2)n1Cc1ccccc1 (cis-trans isomerization)
C=c1/c(=C/c2[n-]c(=O)[n-]c2[O-])cc(C(=O)N2CCN(C(C)=O)CC2)n1Cc1ccccc1 (3D coordinates assigned)
C=c1/c(=C/c2[n-]c(=O)[n-]c2[O-])cc(C(=O)N2CCN(C(C)=O)CC2)n1Cc1ccccc1 (nonaromatic ring conformer: 125.5558390773622 kcal/mol)

> <smiles>
C=c1c(=Cc2[nH]c(=O)[nH]c2O)cc(C(=O)N2CCN(C(C)=O)CC2)n1Cc1ccccc1

> <score_type>
oracle

> <origin>
adg

> <m_score__min__energy>
-16.27

> <m_primary>
energy

> <minimizedAffinity>
-8.90617

> <minimizedRMSD>
0.65378

> <CNNscore>
0.6148790121

> <CNNaffinity>
7.2441926003

> <CNN_VS>
4.4543018341

> <CNNaffinity_variance>
0.0135602541

$$$$
41:0


 24 26  0  0  0  0  0  0  0  0999 V2000
   58.2791   26.6307   42.9445 C   0  0  0  0  0  0  0  0  0  0  0  0
   58.2673   26.3990   44.2659 C   0  0  0  0  0  0  0  0  0  0  0  0
   57.7121   25.3045   44.9410 C   0  0  0  0  0  0  0  0  0  0  0  0
   56.8941   24.3194   44.5136 C   0  0  0  0  0  0  0  0  0  0  0  0
   58.1757   25.4432   46.2448 C   0  0  0  0  0  0  0  0  0  0  0  0
   57.8713   24.5492   47.4067 C   0  0  0  0  0  0  0  0  0  0  0  0
   58.8961   26.5736   46.3588 N   0  0  0  0  0  0  0  0  0  0  0  0
   58.9476   27.1490   45.1691 N   0  0  0  0  0  0  0  0  0  0  0  0
   55.6141   23.9444   45.1346 C   0  0  0  0  0  0  0  0  0  0  0  0
   55.0251   22.7402   45.0112 N   0  0  0  0  0  0  0  0  0  0  0  0
   53.8298   22.9139   45.6165 C   0  0  0  0  0  0  0  0  0  0  0  0
   52.9834   21.9898   45.7225 O   0  0  0  0  0  0  0  0  0  0  0  0
   53.6114   24.1598   46.0900 N   0  0  0  0  0  0  0  0  0  0  0  0
   54.7439   24.8012   45.7623 C   0  0  0  0  0  0  0  0  0  0  0  0
   54.9749   26.1449   46.0273 O   0  0  0  0  0  0  0  0  0  0  0  0
   59.6617   28.4088   44.9380 C   0  0  0  0  0  0  0  0  0  0  0  0
   58.7050   29.5742   44.9873 C   0  0  0  0  0  0  0  0  0  0  0  0
   57.5100   29.5209   44.2493 C   0  0  0  0  0  0  0  0  0  0  0  0
   56.6122   30.5895   44.2792 C   0  0  0  0  0  0  0  0  0  0  0  0
   56.8929   31.7194   45.0505 C   0  0  0  0  0  0  0  0  0  0  0  0
   58.0725   31.7827   45.7990 C   0  0  0  0  0  0  0  0  0  0  0  0
   58.4097   33.2055   46.7685 Cl  0  0  0  0  0  0  0  0  0  0  0  0
   58.9786   30.7115   45.7728 C   0  0  0  0  0  0  0  0  0  0  0  0
   60.1145   30.7826   46.5133 F   0  0  0  0  0  0  0  0  0  0  0  0
  1  2  2  0
  2  3  1  0
  3  4  2  0
  4  9  1  0
  9 10  1  0
 10 11  1  0
 11 12  2  0
 11 13  1  0
 13 14  1  0
 14 15  1  0
  3  5  1  0
  5  6  1  0
  5  7  2  0
  7  8  1  0
  8 16  1  0
 16 17  1  0
 17 18  2  0
 18 19  1  0
 19 20  2  0
 20 21  1  0
 21 22  1  0
 21 23  2  0
 23 24  1  0
  8  2  1  0
 23 17  1  0
 14  9  2  0
M  CHG 1  10  -1
M  CHG 1  13  -1
M  CHG 1  15  -1
M  END
> <UniqueID>
39

> <SMILES>
C=c1/c(=C\c2[n-]c(=O)[n-]c2[O-])c(C)nn1Cc1cccc(Cl)c1F

> <Energy>
109.23562069053668

> <Genealogy>
C=c1c(=Cc2[n-]c(=O)[n-]c2[O-])c(C)nn1Cc1cccc(Cl)c1F (protonated)
C=c1/c(=C\c2[n-]c(=O)[n-]c2[O-])c(C)nn1Cc1cccc(Cl)c1F (cis-trans isomerization)
C=c1/c(=C\c2[n-]c(=O)[n-]c2[O-])c(C)nn1Cc1cccc(Cl)c1F (3D coordinates assigned)
C=c1/c(=C\c2[n-]c(=O)[n-]c2[O-])c(C)nn1Cc1cccc(Cl)c1F (optimized conformer: 109.23562069053668 kcal/mol)

> <smiles>
C=c1c(=Cc2[nH]c(=O)[nH]c2O)c(C)nn1Cc1cccc(Cl)c1F

> <score_type>
oracle

> <origin>
adg

> <m_score__min__energy>
-15.859999999999999

> <m_primary>
energy

> <minimizedAffinity>
-5.56804

> <minimizedRMSD>
0.45226

> <CNNscore>
0.0831199661

> <CNNaffinity>
5.4964079857

> <CNN_VS>
0.4568612576

> <CNNaffinity_variance>
0.1065735593

$$$$
43:0


 32 35  0  0  0  0  0  0  0  0999 V2000
   58.4523   30.7758   45.3843 C   0  0  0  0  0  0  0  0  0  0  0  0
   58.1066   31.4235   44.1896 C   0  0  0  0  0  0  0  0  0  0  0  0
   57.9079   32.8051   44.1736 C   0  0  0  0  0  0  0  0  0  0  0  0
   58.0500   33.5499   45.3479 C   0  0  0  0  0  0  0  0  0  0  0  0
   58.3911   32.9142   46.5572 C   0  0  0  0  0  0  0  0  0  0  0  0
   58.5972   31.5257   46.5598 C   0  0  0  0  0  0  0  0  0  0  0  0
   56.6004   28.6280   44.4788 C   0  0  0  0  0  0  0  0  0  0  0  0
   57.8298   28.3850   44.9628 C   0  0  0  0  0  0  0  0  0  0  0  0
   58.4239   27.1264   45.1382 C   0  0  0  0  0  0  0  0  0  0  0  0
   57.8924   25.9290   44.8095 C   0  0  0  0  0  0  0  0  0  0  0  0
   59.6717   27.3687   45.7060 C   0  0  0  0  0  0  0  0  0  0  0  0
   59.7898   28.7374   45.8419 C   0  0  0  0  0  0  0  0  0  0  0  0
   60.9839   29.4338   46.4204 C   0  0  0  0  0  0  0  0  0  0  0  0
   58.6741   29.3547   45.3985 N   0  0  0  0  0  0  0  0  0  0  0  0
   57.2790   24.9661   45.7511 C   0  0  0  0  0  0  0  0  0  0  0  0
   57.8575   23.8511   46.2350 N   0  0  0  0  0  0  0  0  0  0  0  0
   56.9251   23.3453   47.0682 C   0  0  0  0  0  0  0  0  0  0  0  0
   57.0996   22.2803   47.7158 O   0  0  0  0  0  0  0  0  0  0  0  0
   55.7903   24.0686   47.1541 N   0  0  0  0  0  0  0  0  0  0  0  0
   56.0319   25.0910   46.3179 C   0  0  0  0  0  0  0  0  0  0  0  0
   55.1273   26.1180   46.0743 O   0  0  0  0  0  0  0  0  0  0  0  0
   58.5416   33.6476   47.7845 N   0  0  0  0  0  0  0  0  0  0  0  0
   58.0150   34.4713   47.9006 H   0  0  0  0  0  0  0  0  0  0  0  0
   59.5978   33.1641   49.0725 S   0  0  0  0  0  0  0  0  0  0  0  0
   59.0992   31.8772   49.6665 O   0  0  0  0  0  0  0  0  0  0  0  0
   59.5979   34.2216   50.1386 O   0  0  0  0  0  0  0  0  0  0  0  0
   61.2395   32.9810   48.4607 C   0  0  0  0  0  0  0  0  0  0  0  0
   61.6100   33.6161   47.2677 C   0  0  0  0  0  0  0  0  0  0  0  0
   62.9094   33.4740   46.7694 C   0  0  0  0  0  0  0  0  0  0  0  0
   63.8429   32.6957   47.4601 C   0  0  0  0  0  0  0  0  0  0  0  0
   63.4765   32.0564   48.6488 C   0  0  0  0  0  0  0  0  0  0  0  0
   62.1784   32.1987   49.1507 C   0  0  0  0  0  0  0  0  0  0  0  0
  7  8  2  0
  8  9  1  0
  9 10  2  0
 10 15  1  0
 15 16  1  0
 16 17  1  0
 17 18  2  0
 17 19  1  0
 19 20  1  0
 20 21  1  0
  9 11  1  0
 11 12  2  0
 12 13  1  0
 12 14  1  0
 14  1  1  0
  1  2  2  0
  2  3  1  0
  3  4  2  0
  4  5  1  0
  5 22  1  0
 22 24  1  0
 24 25  2  0
 24 26  2  0
 24 27  1  0
 27 28  2  0
 28 29  1  0
 29 30  2  0
 30 31  1  0
 31 32  2  0
  5  6  2  0
 14  8  1  0
  6  1  1  0
 20 15  2  0
 32 27  1  0
 22 23  1  0
M  CHG 1  16  -1
M  CHG 1  19  -1
M  CHG 1  21  -1
M  END
> <UniqueID>
41

> <SMILES>
C=c1c(=Cc2[n-]c(=O)[n-]c2[O-])cc(C)n1-c1cccc(NS(=O)(=O)c2ccccc2)c1

> <Energy>
123.33400993731668

> <Genealogy>
C=c1c(=Cc2[n-]c(=O)[n-]c2[O-])cc(C)n1-c1cccc(NS(=O)(=O)c2ccccc2)c1 (protonated)
C=c1c(=Cc2[n-]c(=O)[n-]c2[O-])cc(C)n1-c1cccc(NS(=O)(=O)c2ccccc2)c1 (3D coordinates assigned)
C=c1c(=Cc2[n-]c(=O)[n-]c2[O-])cc(C)n1-c1cccc(NS(=O)(=O)c2ccccc2)c1 (optimized conformer: 123.33400993731668 kcal/mol)

> <smiles>
C=c1c(=Cc2[nH]c(=O)[nH]c2O)cc(C)n1-c1cccc(NS(=O)(=O)c2ccccc2)c1

> <score_type>
oracle

> <origin>
adg

> <m_score__min__energy>
-17.489999999999998

> <m_primary>
energy

> <minimizedAffinity>
-8.55377

> <minimizedRMSD>
0.69009

> <CNNscore>
0.4630927145

> <CNNaffinity>
7.0802726746

> <CNN_VS>
3.2788226604

> <CNNaffinity_variance>
0.0453757644

$$$$
50:0


 31 34  0  0  0  0  0  0  0  0999 V2000
   59.3789   28.5362   47.2737 C   0  0  0  0  0  0  0  0  0  0  0  0
   58.9094   28.8058   46.0444 C   0  0  0  0  0  0  0  0  0  0  0  0
   58.5186   27.8870   45.0547 C   0  0  0  0  0  0  0  0  0  0  0  0
   58.6327   26.5460   44.9930 C   0  0  0  0  0  0  0  0  0  0  0  0
   57.9605   28.6360   44.0298 C   0  0  0  0  0  0  0  0  0  0  0  0
   58.0737   29.9608   44.3936 C   0  0  0  0  0  0  0  0  0  0  0  0
   57.6056   31.1144   43.5615 C   0  0  0  0  0  0  0  0  0  0  0  0
   58.6420   30.0656   45.6138 N   0  0  0  0  0  0  0  0  0  0  0  0
   57.7570   25.5759   45.6793 C   0  0  0  0  0  0  0  0  0  0  0  0
   56.4388   25.9025   46.0638 C   0  0  0  0  0  0  0  0  0  0  0  0
   55.8826   27.1568   45.8077 O   0  0  0  0  0  0  0  0  0  0  0  0
   55.6809   24.9751   46.7057 N   0  0  0  0  0  0  0  0  0  0  0  0
   56.1719   23.7470   47.0059 C   0  0  0  0  0  0  0  0  0  0  0  0
   55.4454   22.9071   47.5988 O   0  0  0  0  0  0  0  0  0  0  0  0
   57.4465   23.4227   46.6724 N   0  0  0  0  0  0  0  0  0  0  0  0
   58.2478   24.3069   46.0258 C   0  0  0  0  0  0  0  0  0  0  0  0
   59.4279   23.9738   45.7362 O   0  0  0  0  0  0  0  0  0  0  0  0
   56.3869   27.8117   45.3664 H   0  0  0  0  0  0  0  0  0  0  0  0
   58.9052   31.2972   46.3096 C   0  0  0  0  0  0  0  0  0  0  0  0
   57.9712   32.3419   46.2653 C   0  0  0  0  0  0  0  0  0  0  0  0
   58.2174   33.5314   46.9523 C   0  0  0  0  0  0  0  0  0  0  0  0
   59.3970   33.6862   47.6849 C   0  0  0  0  0  0  0  0  0  0  0  0
   60.3436   32.6540   47.7350 C   0  0  0  0  0  0  0  0  0  0  0  0
   60.0890   31.4549   47.0454 C   0  0  0  0  0  0  0  0  0  0  0  0
   61.5430   32.8645   48.4903 N   0  0  0  0  0  0  0  0  0  0  0  0
   61.7361   32.5592   50.1853 S   0  0  0  0  0  0  0  0  0  0  0  0
   61.5346   31.0903   50.4272 O   0  0  0  0  0  0  0  0  0  0  0  0
   60.6932   33.3223   50.9572 O   0  0  0  0  0  0  0  0  0  0  0  0
   63.3998   32.9976   50.6919 C   0  0  0  0  0  0  0  0  0  0  0  0
   64.4255   32.8541   49.5787 C   0  0  0  0  0  0  0  0  0  0  0  0
   64.4169   31.8684   50.7326 C   0  0  0  0  0  0  0  0  0  0  0  0
  1  2  2  0
  2  3  1  0
  3  4  2  0
  4  9  1  0
  9 10  2  0
 10 11  1  0
 10 12  1  0
 12 13  1  0
 13 14  2  0
 13 15  1  0
 15 16  1  0
 16 17  2  0
  3  5  1  0
  5  6  2  0
  6  7  1  0
  6  8  1  0
  8 19  1  0
 19 20  2  0
 20 21  1  0
 21 22  2  0
 22 23  1  0
 23 25  1  0
 25 26  1  0
 26 27  2  0
 26 28  2  0
 26 29  1  0
 29 30  1  0
 30 31  1  0
 23 24  2  0
  8  2  1  0
 24 19  1  0
 16  9  1  0
 31 29  1  0
 11 18  1  0
M  CHG 1  12  -1
M  CHG 1  15  -1
M  CHG 1  25  -1
M  END
> <UniqueID>
48

> <SMILES>
C=c1c(=Cc2c(O)[n-]c(=O)[n-]c2=O)cc(C)n1-c1cccc([N-]S(=O)(=O)C2CC2)c1

> <Energy>
362.9791451332767

> <Genealogy>
C=c1c(=Cc2c(O)[n-]c(=O)[n-]c2=O)cc(C)n1-c1cccc([N-]S(=O)(=O)C2CC2)c1 (protonated)
C=c1c(=Cc2c(O)[n-]c(=O)[n-]c2=O)cc(C)n1-c1cccc([N-]S(=O)(=O)C2CC2)c1 (3D coordinates assigned)
C=c1c(=Cc2c(O)[n-]c(=O)[n-]c2=O)cc(C)n1-c1cccc([N-]S(=O)(=O)C2CC2)c1 (nonaromatic ring conformer: 362.9791451332767 kcal/mol)

> <smiles>
C=c1c(=Cc2c(O)[nH]c(=O)[nH]c2=O)cc(C)n1-c1cccc(NS(=O)(=O)C2CC2)c1

> <score_type>
oracle

> <origin>
adg

> <m_score__min__energy>
-14.43

> <m_primary>
energy

> <minimizedAffinity>
-8.25624

> <minimizedRMSD>
1.44191

> <CNNscore>
0.4286856949

> <CNNaffinity>
6.9010047913

> <CNN_VS>
2.9583621025

> <CNNaffinity_variance>
0.0375671387

$$$$
55:0


 31 33  0  0  0  0  0  0  0  0999 V2000
   58.3673   31.1900   45.7605 C   0  0  0  0  0  0  0  0  0  0  0  0
   59.0737   30.7121   46.8703 C   0  0  0  0  0  0  0  0  0  0  0  0
   59.0270   29.3553   47.2072 C   0  0  0  0  0  0  0  0  0  0  0  0
   58.2959   28.4485   46.4145 C   0  0  0  0  0  0  0  0  0  0  0  0
   57.6186   28.9310   45.2827 C   0  0  0  0  0  0  0  0  0  0  0  0
   57.6662   30.2859   44.9479 C   0  0  0  0  0  0  0  0  0  0  0  0
   59.4455   33.4397   45.6029 C   0  0  0  0  0  0  0  0  0  0  0  0
   58.3784   32.6361   45.4595 C   0  0  0  0  0  0  0  0  0  0  0  0
   59.8534   34.1119   46.8593 C   0  0  0  0  0  0  0  0  0  0  0  0
   59.1005   35.0086   47.3243 O   0  0  0  0  0  0  0  0  0  0  0  0
   60.1182   34.2779   49.7426 O   0  0  0  0  0  0  0  0  0  0  0  0
   61.2279   33.9250   48.9733 C   0  0  0  0  0  0  0  0  0  0  0  0
   62.4611   33.6867   49.5999 C   0  0  0  0  0  0  0  0  0  0  0  0
   63.5719   33.3047   48.8454 C   0  0  0  0  0  0  0  0  0  0  0  0
   63.4591   33.1454   47.4641 C   0  0  0  0  0  0  0  0  0  0  0  0
   62.2360   33.3831   46.8306 C   0  0  0  0  0  0  0  0  0  0  0  0
   61.1169   33.7999   47.5714 C   0  0  0  0  0  0  0  0  0  0  0  0
   60.1994   34.3590   50.6725 H   0  0  0  0  0  0  0  0  0  0  0  0
   58.1696   27.0124   46.7573 C   0  0  0  0  0  0  0  0  0  0  0  0
   58.5890   26.0152   45.9629 C   0  0  0  0  0  0  0  0  0  0  0  0
   57.7025   25.3506   44.9852 C   0  0  0  0  0  0  0  0  0  0  0  0
   57.7364   25.7376   43.7874 O   0  0  0  0  0  0  0  0  0  0  0  0
   56.7856   24.2429   45.3546 C   0  0  0  0  0  0  0  0  0  0  0  0
   55.5064   24.5154   45.8704 C   0  0  0  0  0  0  0  0  0  0  0  0
   55.0850   25.8261   46.0673 O   0  0  0  0  0  0  0  0  0  0  0  0
   54.6728   23.4935   46.1947 N   0  0  0  0  0  0  0  0  0  0  0  0
   55.0487   22.2004   46.0241 C   0  0  0  0  0  0  0  0  0  0  0  0
   54.2594   21.2722   46.3368 O   0  0  0  0  0  0  0  0  0  0  0  0
   56.2715   21.9088   45.5151 N   0  0  0  0  0  0  0  0  0  0  0  0
   57.1425   22.8930   45.1712 C   0  0  0  0  0  0  0  0  0  0  0  0
   58.2575   22.5813   44.6748 O   0  0  0  0  0  0  0  0  0  0  0  0
 11 12  1  0
 12 13  2  0
 13 14  1  0
 14 15  2  0
 15 16  1  0
 16 17  2  0
 17  9  1  0
  9 10  2  0
  9  7  1  0
  7  8  2  0
  8  1  1  0
  1  2  2  0
  2  3  1  0
  3  4  2  0
  4 19  1  0
 19 20  2  0
 20 21  1  0
 21 22  2  0
 21 23  1  0
 23 24  2  0
 24 25  1  0
 24 26  1  0
 26 27  1  0
 27 28  2  0
 27 29  1  0
 29 30  1  0
 30 31  2  0
  4  5  1  0
  5  6  2  0
 17 12  1  0
  6  1  1  0
 30 23  1  0
 11 18  1  0
M  CHG 1  25  -1
M  CHG 1  26  -1
M  CHG 1  29  -1
M  END
> <UniqueID>
53

> <SMILES>
O=C(/C=C\c1ccc(/C=C/C(=O)c2c([O-])[n-]c(=O)[n-]c2=O)cc1)c1ccccc1O

> <Energy>
67.25496980238337

> <Genealogy>
O=C(C=Cc1ccc(C=CC(=O)c2c([O-])[n-]c(=O)[n-]c2=O)cc1)c1ccccc1O (protonated)
O=C(/C=C\c1ccc(/C=C/C(=O)c2c([O-])[n-]c(=O)[n-]c2=O)cc1)c1ccccc1O (cis-trans isomerization)
O=C(/C=C\c1ccc(/C=C/C(=O)c2c([O-])[n-]c(=O)[n-]c2=O)cc1)c1ccccc1O (3D coordinates assigned)
O=C(/C=C\c1ccc(/C=C/C(=O)c2c([O-])[n-]c(=O)[n-]c2=O)cc1)c1ccccc1O (optimized conformer: 67.25496980238337 kcal/mol)

> <smiles>
O=C(C=Cc1ccc(C=CC(=O)c2c(O)[nH]c(=O)[nH]c2=O)cc1)c1ccccc1O

> <score_type>
oracle

> <origin>
adg

> <m_score__min__energy>
-16.48

> <m_primary>
energy

> <minimizedAffinity>
-9.49831

> <minimizedRMSD>
0.87992

> <CNNscore>
0.2283163071

> <CNNaffinity>
6.3979735374

> <CNN_VS>
1.4607616663

> <CNNaffinity_variance>
0.0339358710

$$$$
56:0


 33 36  0  0  0  0  0  0  0  0999 V2000
   60.1415   29.5369   44.9337 C   0  0  0  0  0  0  0  0  0  0  0  0
   59.6970   29.2339   46.1626 C   0  0  0  0  0  0  0  0  0  0  0  0
   58.7865   28.2242   46.4907 C   0  0  0  0  0  0  0  0  0  0  0  0
   58.1726   27.3715   45.6486 C   0  0  0  0  0  0  0  0  0  0  0  0
   58.5818   28.3139   47.8630 C   0  0  0  0  0  0  0  0  0  0  0  0
   59.3737   29.3498   48.3132 C   0  0  0  0  0  0  0  0  0  0  0  0
   59.4291   29.8243   49.7334 C   0  0  0  0  0  0  0  0  0  0  0  0
   60.0511   29.9088   47.2854 N   0  0  0  0  0  0  0  0  0  0  0  0
   57.7625   25.9980   46.0254 C   0  0  0  0  0  0  0  0  0  0  0  0
   56.4045   25.6999   46.2131 C   0  0  0  0  0  0  0  0  0  0  0  0
   55.4369   26.6895   46.0844 O   0  0  0  0  0  0  0  0  0  0  0  0
   56.0255   24.4360   46.5345 N   0  0  0  0  0  0  0  0  0  0  0  0
   56.9397   23.4418   46.6662 C   0  0  0  0  0  0  0  0  0  0  0  0
   56.5659   22.2793   46.9693 O   0  0  0  0  0  0  0  0  0  0  0  0
   58.2563   23.6981   46.4629 N   0  0  0  0  0  0  0  0  0  0  0  0
   58.6876   24.9446   46.1380 C   0  0  0  0  0  0  0  0  0  0  0  0
   59.9136   25.1360   45.9233 O   0  0  0  0  0  0  0  0  0  0  0  0
   60.9159   31.0588   47.3761 C   0  0  0  0  0  0  0  0  0  0  0  0
   62.2435   30.8779   47.7906 C   0  0  0  0  0  0  0  0  0  0  0  0
   63.0888   31.9757   47.9598 C   0  0  0  0  0  0  0  0  0  0  0  0
   62.6149   33.2658   47.7239 C   0  0  0  0  0  0  0  0  0  0  0  0
   61.2959   33.4623   47.3071 C   0  0  0  0  0  0  0  0  0  0  0  0
   60.4383   32.3670   47.1108 C   0  0  0  0  0  0  0  0  0  0  0  0
   59.0592   32.6149   46.6379 C   0  0  0  0  0  0  0  0  0  0  0  0
   58.1001   32.5228   47.4524 O   0  0  0  0  0  0  0  0  0  0  0  0
   58.8061   32.9912   45.2777 N   0  0  0  0  0  0  0  0  0  0  0  0
   59.5637   33.2160   44.6906 H   0  0  0  0  0  0  0  0  0  0  0  0
   57.4461   33.0480   44.7451 C   0  0  0  0  0  0  0  0  0  0  0  0
   57.0197   31.7041   44.2433 C   0  0  0  0  0  0  0  0  0  0  0  0
   56.3852   30.8152   44.9688 O   0  0  0  0  0  0  0  0  0  0  0  0
   56.1787   29.7468   44.2337 C   0  0  0  0  0  0  0  0  0  0  0  0
   56.7041   29.9422   42.9724 C   0  0  0  0  0  0  0  0  0  0  0  0
   57.2498   31.2073   42.9765 C   0  0  0  0  0  0  0  0  0  0  0  0
  1  2  2  0
  2  3  1  0
  3  4  2  0
  4  9  1  0
  9 10  2  0
 10 11  1  0
 10 12  1  0
 12 13  1  0
 13 14  2  0
 13 15  1  0
 15 16  1  0
 16 17  2  0
  3  5  1  0
  5  6  2  0
  6  7  1  0
  6  8  1  0
  8 18  1  0
 18 19  2  0
 19 20  1  0
 20 21  2  0
 21 22  1  0
 22 23  2  0
 23 24  1  0
 24 25  2  0
 24 26  1  0
 26 28  1  0
 28 29  1  0
 29 30  1  0
 30 31  1  0
 31 32  2  0
 32 33  1  0
  8  2  1  0
 23 18  1  0
 33 29  2  0
 16  9  1  0
 26 27  1  0
M  CHG 1  11  -1
M  CHG 1  12  -1
M  CHG 1  15  -1
M  END
> <UniqueID>
54

> <SMILES>
C=c1/c(=C/c2c([O-])[n-]c(=O)[n-]c2=O)cc(C)n1-c1ccccc1C(=O)NCc1ccco1

> <Energy>
123.38181884930586

> <Genealogy>
C=c1c(=Cc2c([O-])[n-]c(=O)[n-]c2=O)cc(C)n1-c1ccccc1C(=O)NCc1ccco1 (protonated)
C=c1/c(=C/c2c([O-])[n-]c(=O)[n-]c2=O)cc(C)n1-c1ccccc1C(=O)NCc1ccco1 (cis-trans isomerization)
C=c1/c(=C/c2c([O-])[n-]c(=O)[n-]c2=O)cc(C)n1-c1ccccc1C(=O)NCc1ccco1 (3D coordinates assigned)
C=c1/c(=C/c2c([O-])[n-]c(=O)[n-]c2=O)cc(C)n1-c1ccccc1C(=O)NCc1ccco1 (optimized conformer: 123.38181884930586 kcal/mol)

> <smiles>
C=c1c(=Cc2c(O)[nH]c(=O)[nH]c2=O)cc(C)n1-c1ccccc1C(=O)NCc1ccco1

> <score_type>
oracle

> <origin>
adg

> <m_score__min__energy>
-16.640000000000001

> <m_primary>
energy

> <minimizedAffinity>
-7.54629

> <minimizedRMSD>
0.45634

> <CNNscore>
0.1661450863

> <CNNaffinity>
6.4669952393

> <CNN_VS>
1.0744594336

> <CNNaffinity_variance>
0.2036568522

$$$$
57:0


 33 36  0  0  0  0  0  0  0  0999 V2000
   59.9152   28.3693   44.8167 C   0  0  0  0  0  0  0  0  0  0  0  0
   58.0261   27.0170   42.9364 C   0  0  0  0  0  0  0  0  0  0  0  0
   58.2731   26.5471   44.1688 C   0  0  0  0  0  0  0  0  0  0  0  0
   57.7905   25.3529   44.7300 C   0  0  0  0  0  0  0  0  0  0  0  0
   56.8586   24.4826   44.2956 C   0  0  0  0  0  0  0  0  0  0  0  0
   58.4617   25.1901   45.9294 C   0  0  0  0  0  0  0  0  0  0  0  0
   59.2735   26.2919   46.0904 C   0  0  0  0  0  0  0  0  0  0  0  0
   60.1076   26.5567   47.3079 C   0  0  0  0  0  0  0  0  0  0  0  0
   59.1573   27.1244   45.0277 N   0  0  0  0  0  0  0  0  0  0  0  0
   55.7917   23.8920   45.1174 C   0  0  0  0  0  0  0  0  0  0  0  0
   55.5304   22.5726   45.1889 N   0  0  0  0  0  0  0  0  0  0  0  0
   54.4051   22.5167   45.9337 C   0  0  0  0  0  0  0  0  0  0  0  0
   53.8473   21.4316   46.2377 O   0  0  0  0  0  0  0  0  0  0  0  0
   53.9221   23.7178   46.3199 N   0  0  0  0  0  0  0  0  0  0  0  0
   54.8016   24.5792   45.7835 C   0  0  0  0  0  0  0  0  0  0  0  0
   54.6973   25.9624   45.9096 O   0  0  0  0  0  0  0  0  0  0  0  0
   53.9823   26.3368   46.3855 H   0  0  0  0  0  0  0  0  0  0  0  0
   59.6652   29.3517   45.9354 C   0  0  0  0  0  0  0  0  0  0  0  0
   58.6192   30.2842   45.8388 C   0  0  0  0  0  0  0  0  0  0  0  0
   58.3761   31.1881   46.8775 C   0  0  0  0  0  0  0  0  0  0  0  0
   59.1594   31.1546   48.0440 C   0  0  0  0  0  0  0  0  0  0  0  0
   60.2073   30.2319   48.1361 C   0  0  0  0  0  0  0  0  0  0  0  0
   60.4526   29.3308   47.0979 C   0  0  0  0  0  0  0  0  0  0  0  0
   58.9638   32.0807   49.1229 N   0  0  0  0  0  0  0  0  0  0  0  0
   59.8856   33.0823   49.5710 C   0  0  0  0  0  0  0  0  0  0  0  0
   59.5840   33.8241   50.5452 O   0  0  0  0  0  0  0  0  0  0  0  0
   61.2363   33.1904   48.9621 C   0  0  0  0  0  0  0  0  0  0  0  0
   62.3465   32.7734   49.7219 C   0  0  0  0  0  0  0  0  0  0  0  0
   63.6365   32.8256   49.1923 C   0  0  0  0  0  0  0  0  0  0  0  0
   63.8423   33.2948   47.8981 C   0  0  0  0  0  0  0  0  0  0  0  0
   62.7613   33.7300   47.1317 C   0  0  0  0  0  0  0  0  0  0  0  0
   61.4535   33.7017   47.6518 C   0  0  0  0  0  0  0  0  0  0  0  0
   60.3315   34.2255   46.7932 C   0  0  0  0  0  0  0  0  0  0  0  0
  2  3  2  0
  3  4  1  0
  4  5  2  0
  5 10  1  0
 10 11  1  0
 11 12  1  0
 12 13  2  0
 12 14  1  0
 14 15  1  0
 15 16  1  0
  4  6  1  0
  6  7  2  0
  7  8  1  0
  7  9  1  0
  9  1  1  0
  1 18  1  0
 18 19  2  0
 19 20  1  0
 20 21  2  0
 21 24  1  0
 24 25  1  0
 25 26  2  0
 25 27  1  0
 27 28  2  0
 28 29  1  0
 29 30  2  0
 30 31  1  0
 31 32  2  0
 32 33  1  0
 21 22  1  0
 22 23  2  0
  9  3  1  0
 23 18  1  0
 15 10  2  0
 32 27  1  0
 16 17  1  0
M  CHG 1  11  -1
M  CHG 1  14  -1
M  CHG 1  24  -1
M  END
> <UniqueID>
55

> <SMILES>
C=c1c(=Cc2[n-]c(=O)[n-]c2O)cc(C)n1Cc1ccc([N-]C(=O)c2ccccc2C)cc1

> <Energy>
132.7287620160956

> <Genealogy>
C=c1c(=Cc2[n-]c(=O)[n-]c2O)cc(C)n1Cc1ccc([N-]C(=O)c2ccccc2C)cc1 (protonated)
C=c1c(=Cc2[n-]c(=O)[n-]c2O)cc(C)n1Cc1ccc([N-]C(=O)c2ccccc2C)cc1 (3D coordinates assigned)
C=c1c(=Cc2[n-]c(=O)[n-]c2O)cc(C)n1Cc1ccc([N-]C(=O)c2ccccc2C)cc1 (optimized conformer: 132.7287620160956 kcal/mol)

> <smiles>
C=c1c(=Cc2[nH]c(=O)[nH]c2O)cc(C)n1Cc1ccc(NC(=O)c2ccccc2C)cc1

> <score_type>
oracle

> <origin>
adg

> <m_score__min__energy>
-14.99

> <m_primary>
energy

> <minimizedAffinity>
-8.94909

> <minimizedRMSD>
0.74430

> <CNNscore>
0.4081070125

> <CNNaffinity>
6.8732275963

> <CNN_VS>
2.8050124645

> <CNNaffinity_variance>
0.0043550790

$$$$
60:0


 37 40  0  0  0  0  0  0  0  0999 V2000
   59.6247   32.7386   48.2265 C   0  0  0  0  0  0  0  0  0  0  0  0
   60.3924   31.5628   48.2134 C   0  0  0  0  0  0  0  0  0  0  0  0
   60.0525   30.5074   47.3625 C   0  0  0  0  0  0  0  0  0  0  0  0
   58.9483   30.6173   46.5044 C   0  0  0  0  0  0  0  0  0  0  0  0
   58.1884   31.7951   46.5079 C   0  0  0  0  0  0  0  0  0  0  0  0
   58.5268   32.8506   47.3563 C   0  0  0  0  0  0  0  0  0  0  0  0
   58.5913   29.5248   45.6396 N   0  0  0  0  0  0  0  0  0  0  0  0
   58.1303   29.6411   44.3736 C   0  0  0  0  0  0  0  0  0  0  0  0
   57.9239   30.9365   43.6511 C   0  0  0  0  0  0  0  0  0  0  0  0
   57.8781   28.3936   43.8368 C   0  0  0  0  0  0  0  0  0  0  0  0
   58.1920   27.4655   44.8205 C   0  0  0  0  0  0  0  0  0  0  0  0
   58.0529   26.1275   44.7314 C   0  0  0  0  0  0  0  0  0  0  0  0
   58.6276   28.1998   45.9292 C   0  0  0  0  0  0  0  0  0  0  0  0
   59.0626   27.6978   47.0956 C   0  0  0  0  0  0  0  0  0  0  0  0
   57.4349   25.2915   45.7751 C   0  0  0  0  0  0  0  0  0  0  0  0
   57.9904   24.1581   46.2380 N   0  0  0  0  0  0  0  0  0  0  0  0
   57.0650   23.6819   47.0979 C   0  0  0  0  0  0  0  0  0  0  0  0
   57.2315   22.6190   47.7518 O   0  0  0  0  0  0  0  0  0  0  0  0
   55.9448   24.4276   47.1939 N   0  0  0  0  0  0  0  0  0  0  0  0
   56.1858   25.4367   46.3408 C   0  0  0  0  0  0  0  0  0  0  0  0
   55.2689   26.4416   46.0529 O   0  0  0  0  0  0  0  0  0  0  0  0
   54.4402   26.4589   46.4900 H   0  0  0  0  0  0  0  0  0  0  0  0
   59.9928   33.8764   49.1445 C   0  0  0  0  0  0  0  0  0  0  0  0
   60.1858   32.8363   51.4560 C   0  0  0  0  0  0  0  0  0  0  0  0
   61.2143   32.6734   52.3707 C   0  0  0  0  0  0  0  0  0  0  0  0
   62.3681   33.1118   51.8357 N   0  0  0  0  0  0  0  0  0  0  0  0
   62.0299   33.5372   50.6010 C   0  0  0  0  0  0  0  0  0  0  0  0
   60.7097   33.3795   50.3303 N   0  0  0  0  0  0  0  0  0  0  0  0
   58.2307   31.2715   51.1495 N   0  0  0  0  0  0  0  0  0  0  0  0
   58.7670   32.4813   51.6772 C   0  0  0  0  0  0  0  0  0  0  0  0
   58.0316   33.2305   52.3718 O   0  0  0  0  0  0  0  0  0  0  0  0
   57.2850   31.0444   51.3024 H   0  0  0  0  0  0  0  0  0  0  0  0
   61.1173   32.1318   53.7666 C   0  0  0  0  0  0  0  0  0  0  0  0
   60.8227   33.2519   54.7580 C   0  0  0  0  0  0  0  0  0  0  0  0
   63.0559   34.0873   49.6452 C   0  0  0  0  0  0  0  0  0  0  0  0
   63.5773   33.0032   48.6947 C   0  0  0  0  0  0  0  0  0  0  0  0
   63.3565   33.3617   47.2256 C   0  0  0  0  0  0  0  0  0  0  0  0
 29 30  1  0
 30 31  2  0
 30 24  1  0
 24 25  2  0
 25 33  1  0
 33 34  1  0
 25 26  1  0
 26 27  2  0
 27 35  1  0
 35 36  1  0
 36 37  1  0
 27 28  1  0
 28 23  1  0
 23  1  1  0
  1  2  2  0
  2  3  1  0
  3  4  2  0
  4  7  1  0
  7  8  1  0
  8  9  1  0
  8 10  2  0
 10 11  1  0
 11 12  2  0
 12 15  1  0
 15 16  1  0
 16 17  1  0
 17 18  2  0
 17 19  1  0
 19 20  1  0
 20 21  1  0
 11 13  1  0
 13 14  2  0
  4  5  1  0
  5  6  2  0
 28 24  1  0
  6  1  1  0
 13  7  1  0
 20 15  2  0
 29 32  1  0
 21 22  1  0
M  CHG 1  16  -1
M  CHG 1  19  -1
M  CHG 1  29  -1
M  END
> <UniqueID>
58

> <SMILES>
C=c1/c(=C/c2[n-]c(=O)[n-]c2O)cc(C)n1-c1ccc(Cn2c(CCC)nc(CC)c2C([NH-])=O)cc1

> <Energy>
159.13487004541827

> <Genealogy>
C=c1c(=Cc2[n-]c(=O)[n-]c2O)cc(C)n1-c1ccc(Cn2c(CCC)nc(CC)c2C([NH-])=O)cc1 (protonated)
C=c1/c(=C/c2[n-]c(=O)[n-]c2O)cc(C)n1-c1ccc(Cn2c(CCC)nc(CC)c2C([NH-])=O)cc1 (cis-trans isomerization)
C=c1/c(=C/c2[n-]c(=O)[n-]c2O)cc(C)n1-c1ccc(Cn2c(CCC)nc(CC)c2C([NH-])=O)cc1 (3D coordinates assigned)
C=c1/c(=C/c2[n-]c(=O)[n-]c2O)cc(C)n1-c1ccc(Cn2c(CCC)nc(CC)c2C([NH-])=O)cc1 (optimized conformer: 159.13487004541827 kcal/mol)

> <smiles>
C=c1c(=Cc2[nH]c(=O)[nH]c2O)cc(C)n1-c1ccc(Cn2c(CCC)nc(CC)c2C(N)=O)cc1

> <score_type>
oracle

> <origin>
adg

> <m_score__min__energy>
-14.73

> <m_primary>
energy

> <minimizedAffinity>
-8.51543

> <minimizedRMSD>
0.59224

> <CNNscore>
0.2232872397

> <CNNaffinity>
7.0637741089

> <CNN_VS>
1.5772505999

> <CNNaffinity_variance>
0.3504872024

$$$$
61:0


 30 32  0  0  0  0  0  0  0  0999 V2000
   56.2375   28.1134   53.7083 C   0  0  0  0  0  0  0  0  0  0  0  0
   56.1616   29.3156   53.1135 C   0  0  0  0  0  0  0  0  0  0  0  0
   54.9863   29.9689   52.7032 C   0  0  0  0  0  0  0  0  0  0  0  0
   53.7106   29.5387   52.6291 C   0  0  0  0  0  0  0  0  0  0  0  0
   55.3581   31.2518   52.3502 C   0  0  0  0  0  0  0  0  0  0  0  0
   56.7268   31.3236   52.4819 C   0  0  0  0  0  0  0  0  0  0  0  0
   57.5242   32.5720   52.2458 C   0  0  0  0  0  0  0  0  0  0  0  0
   57.2262   30.1507   52.9436 N   0  0  0  0  0  0  0  0  0  0  0  0
   52.5365   30.2262   53.1858 C   0  0  0  0  0  0  0  0  0  0  0  0
   52.3087   30.3634   54.5031 N   0  0  0  0  0  0  0  0  0  0  0  0
   51.2158   31.1536   54.5511 C   0  0  0  0  0  0  0  0  0  0  0  0
   50.6776   31.5004   55.6345 O   0  0  0  0  0  0  0  0  0  0  0  0
   50.7499   31.5541   53.3488 N   0  0  0  0  0  0  0  0  0  0  0  0
   51.6054   30.9696   52.4949 C   0  0  0  0  0  0  0  0  0  0  0  0
   51.5541   31.1380   51.1168 O   0  0  0  0  0  0  0  0  0  0  0  0
   58.6346   29.9185   53.3102 C   0  0  0  0  0  0  0  0  0  0  0  0
   59.4304   29.5004   52.0998 C   0  0  0  0  0  0  0  0  0  0  0  0
   60.5440   28.6534   52.2337 C   0  0  0  0  0  0  0  0  0  0  0  0
   61.2268   28.2053   51.1004 C   0  0  0  0  0  0  0  0  0  0  0  0
   60.7998   28.5850   49.8261 C   0  0  0  0  0  0  0  0  0  0  0  0
   59.6910   29.4312   49.6800 C   0  0  0  0  0  0  0  0  0  0  0  0
   59.0314   29.9091   50.8182 C   0  0  0  0  0  0  0  0  0  0  0  0
   59.2151   29.7963   48.3821 N   0  0  0  0  0  0  0  0  0  0  0  0
   58.7564   29.1242   47.8278 H   0  0  0  0  0  0  0  0  0  0  0  0
   59.4326   31.4037   47.7680 S   0  0  0  0  0  0  0  0  0  0  0  0
   58.2570   32.2695   48.1241 O   0  0  0  0  0  0  0  0  0  0  0  0
   59.5532   31.3459   46.2718 O   0  0  0  0  0  0  0  0  0  0  0  0
   60.9209   32.1239   48.4582 C   0  0  0  0  0  0  0  0  0  0  0  0
   62.1987   31.6760   47.7327 C   0  0  0  0  0  0  0  0  0  0  0  0
   63.1699   32.8270   47.4690 C   0  0  0  0  0  0  0  0  0  0  0  0
  1  2  2  0
  2  3  1  0
  3  4  2  0
  4  9  1  0
  9 10  1  0
 10 11  1  0
 11 12  2  0
 11 13  1  0
 13 14  1  0
 14 15  1  0
  3  5  1  0
  5  6  2  0
  6  7  1  0
  6  8  1  0
  8 16  1  0
 16 17  1  0
 17 18  2  0
 18 19  1  0
 19 20  2  0
 20 21  1  0
 21 23  1  0
 23 25  1  0
 25 26  2  0
 25 27  2  0
 25 28  1  0
 28 29  1  0
 29 30  1  0
 21 22  2  0
  8  2  1  0
 22 17  1  0
 14  9  2  0
 23 24  1  0
M  CHG 1  10  -1
M  CHG 1  13  -1
M  CHG 1  15  -1
M  END
> <UniqueID>
59

> <SMILES>
C=c1c(=Cc2[n-]c(=O)[n-]c2[O-])cc(C)n1Cc1cccc(NS(=O)(=O)CCC)c1

> <Energy>
115.76364702061555

> <Genealogy>
C=c1c(=Cc2[n-]c(=O)[n-]c2[O-])cc(C)n1Cc1cccc(NS(=O)(=O)CCC)c1 (protonated)
C=c1c(=Cc2[n-]c(=O)[n-]c2[O-])cc(C)n1Cc1cccc(NS(=O)(=O)CCC)c1 (3D coordinates assigned)
C=c1c(=Cc2[n-]c(=O)[n-]c2[O-])cc(C)n1Cc1cccc(NS(=O)(=O)CCC)c1 (optimized conformer: 115.76364702061555 kcal/mol)

> <smiles>
C=c1c(=Cc2[nH]c(=O)[nH]c2O)cc(C)n1Cc1cccc(NS(=O)(=O)CCC)c1

> <score_type>
oracle

> <origin>
adg

> <m_score__min__energy>
-16.510000000000002

> <m_primary>
energy

> <minimizedAffinity>
-6.23562

> <minimizedRMSD>
1.20186

> <CNNscore>
0.1484976709

> <CNNaffinity>
5.6437649727

> <CNN_VS>
0.8380859494

> <CNNaffinity_variance>
0.0267684367

$$$$
65:0


 33 36  0  0  0  0  0  0  0  0999 V2000
   59.2438   30.0966   48.1725 C   0  0  0  0  0  0  0  0  0  0  0  0
   57.9499   29.3829   45.5221 C   0  0  0  0  0  0  0  0  0  0  0  0
   58.5150   28.4781   46.3397 C   0  0  0  0  0  0  0  0  0  0  0  0
   58.6228   27.0972   46.1026 C   0  0  0  0  0  0  0  0  0  0  0  0
   58.0465   26.3084   45.1732 C   0  0  0  0  0  0  0  0  0  0  0  0
   59.4631   26.6010   47.0802 C   0  0  0  0  0  0  0  0  0  0  0  0
   59.7841   27.6536   47.9084 C   0  0  0  0  0  0  0  0  0  0  0  0
   60.5873   27.5079   49.1654 C   0  0  0  0  0  0  0  0  0  0  0  0
   59.1984   28.7983   47.4744 N   0  0  0  0  0  0  0  0  0  0  0  0
   57.5563   24.9381   45.3905 C   0  0  0  0  0  0  0  0  0  0  0  0
   58.3308   23.8445   45.3226 N   0  0  0  0  0  0  0  0  0  0  0  0
   57.5354   22.8342   45.7261 C   0  0  0  0  0  0  0  0  0  0  0  0
   57.9215   21.6375   45.7799 O   0  0  0  0  0  0  0  0  0  0  0  0
   56.2914   23.2210   46.0802 N   0  0  0  0  0  0  0  0  0  0  0  0
   56.3238   24.5525   45.8808 C   0  0  0  0  0  0  0  0  0  0  0  0
   55.2624   25.3987   46.1723 O   0  0  0  0  0  0  0  0  0  0  0  0
   59.2725   23.7918   45.0402 H   0  0  0  0  0  0  0  0  0  0  0  0
   60.6250   30.7026   48.0679 C   0  0  0  0  0  0  0  0  0  0  0  0
   61.3756   30.5011   46.8959 C   0  0  0  0  0  0  0  0  0  0  0  0
   62.6345   31.0853   46.7507 C   0  0  0  0  0  0  0  0  0  0  0  0
   63.1539   31.8867   47.7659 C   0  0  0  0  0  0  0  0  0  0  0  0
   62.4244   32.0917   48.9380 C   0  0  0  0  0  0  0  0  0  0  0  0
   61.1657   31.4840   49.1135 C   0  0  0  0  0  0  0  0  0  0  0  0
   60.4138   31.6709   50.2842 O   0  0  0  0  0  0  0  0  0  0  0  0
   59.4195   32.6359   50.4858 C   0  0  0  0  0  0  0  0  0  0  0  0
   58.3614   32.3646   51.1155 O   0  0  0  0  0  0  0  0  0  0  0  0
   59.5725   33.9747   49.8401 C   0  0  0  0  0  0  0  0  0  0  0  0
   59.3511   33.8589   48.3595 C   0  0  0  0  0  0  0  0  0  0  0  0
   60.2881   34.3945   47.4575 C   0  0  0  0  0  0  0  0  0  0  0  0
   60.0628   34.3149   46.0790 C   0  0  0  0  0  0  0  0  0  0  0  0
   58.9004   33.7115   45.5923 C   0  0  0  0  0  0  0  0  0  0  0  0
   57.9583   33.1882   46.4830 C   0  0  0  0  0  0  0  0  0  0  0  0
   58.1779   33.2648   47.8618 C   0  0  0  0  0  0  0  0  0  0  0  0
  2  3  2  0
  3  4  1  0
  4  5  2  0
  5 10  1  0
 10 11  1  0
 11 12  1  0
 12 13  2  0
 12 14  1  0
 14 15  1  0
 15 16  1  0
  4  6  1  0
  6  7  2  0
  7  8  1  0
  7  9  1  0
  9  1  1  0
  1 18  1  0
 18 19  2  0
 19 20  1  0
 20 21  2  0
 21 22  1  0
 22 23  2  0
 23 24  1  0
 24 25  1  0
 25 26  2  0
 25 27  1  0
 27 28  1  0
 28 29  2  0
 29 30  1  0
 30 31  2  0
 31 32  1  0
 32 33  2  0
  9  3  1  0
 23 18  1  0
 33 28  1  0
 15 10  2  0
 11 17  1  0
M  CHG 1  14  -1
M  CHG 1  16  -1
M  END
> <UniqueID>
63

> <SMILES>
C=c1c(=Cc2[nH]c(=O)[n-]c2[O-])cc(C)n1Cc1ccccc1OC(=O)Cc1ccccc1

> <Energy>
130.4426062714868

> <Genealogy>
C=c1c(=Cc2[nH]c(=O)[n-]c2[O-])cc(C)n1Cc1ccccc1OC(=O)Cc1ccccc1 (protonated)
C=c1c(=Cc2[nH]c(=O)[n-]c2[O-])cc(C)n1Cc1ccccc1OC(=O)Cc1ccccc1 (3D coordinates assigned)
C=c1c(=Cc2[nH]c(=O)[n-]c2[O-])cc(C)n1Cc1ccccc1OC(=O)Cc1ccccc1 (optimized conformer: 130.4426062714868 kcal/mol)

> <smiles>
C=c1c(=Cc2[nH]c(=O)[nH]c2O)cc(C)n1Cc1ccccc1OC(=O)Cc1ccccc1

> <score_type>
oracle

> <origin>
adg

> <m_score__min__energy>
-14.91

> <m_primary>
energy

> <minimizedAffinity>
-7.53520

> <minimizedRMSD>
1.13038

> <CNNscore>
0.2373679280

> <CNNaffinity>
6.7318692207

> <CNN_VS>
1.5979298353

> <CNNaffinity_variance>
0.0161241349

$$$$
71:0


 34 38  0  0  0  0  0  0  0  0999 V2000
   58.2531   30.9927   45.7414 C   0  0  0  0  0  0  0  0  0  0  0  0
   59.2057   31.8484   46.3116 C   0  0  0  0  0  0  0  0  0  0  0  0
   59.1545   33.2324   46.0761 C   0  0  0  0  0  0  0  0  0  0  0  0
   58.1577   33.7466   45.2312 C   0  0  0  0  0  0  0  0  0  0  0  0
   57.2083   32.8950   44.6595 C   0  0  0  0  0  0  0  0  0  0  0  0
   57.2498   31.5228   44.9166 C   0  0  0  0  0  0  0  0  0  0  0  0
   56.3317   30.7047   44.3435 F   0  0  0  0  0  0  0  0  0  0  0  0
   60.1579   34.1388   46.6779 C   0  0  0  0  0  0  0  0  0  0  0  0
   60.1702   35.3529   46.3339 O   0  0  0  0  0  0  0  0  0  0  0  0
   61.1188   33.6717   47.6465 N   0  0  0  0  0  0  0  0  0  0  0  0
   60.7247   33.6419   49.0660 C   0  0  0  0  0  0  0  0  0  0  0  0
   61.7668   33.0168   49.9650 C   0  0  0  0  0  0  0  0  0  0  0  0
   61.6627   33.1795   51.3558 C   0  0  0  0  0  0  0  0  0  0  0  0
   62.5840   32.5684   52.2105 C   0  0  0  0  0  0  0  0  0  0  0  0
   63.6081   31.7778   51.6865 C   0  0  0  0  0  0  0  0  0  0  0  0
   63.7155   31.5983   50.3044 C   0  0  0  0  0  0  0  0  0  0  0  0
   62.8049   32.2218   49.4374 C   0  0  0  0  0  0  0  0  0  0  0  0
   62.9036   32.0081   47.9552 C   0  0  0  0  0  0  0  0  0  0  0  0
   62.4686   33.2723   47.2202 C   0  0  0  0  0  0  0  0  0  0  0  0
   57.6913   28.7586   43.8664 C   0  0  0  0  0  0  0  0  0  0  0  0
   58.0632   28.5706   45.1421 C   0  0  0  0  0  0  0  0  0  0  0  0
   58.2341   27.3404   45.7902 C   0  0  0  0  0  0  0  0  0  0  0  0
   58.0975   26.1126   45.2455 C   0  0  0  0  0  0  0  0  0  0  0  0
   58.5973   27.6427   47.0997 C   0  0  0  0  0  0  0  0  0  0  0  0
   58.6375   29.0200   47.1940 C   0  0  0  0  0  0  0  0  0  0  0  0
   58.9917   29.7796   48.4353 C   0  0  0  0  0  0  0  0  0  0  0  0
   58.3020   29.5820   46.0130 N   0  0  0  0  0  0  0  0  0  0  0  0
   57.4163   24.9622   45.8778 C   0  0  0  0  0  0  0  0  0  0  0  0
   57.9903   23.7950   46.2194 N   0  0  0  0  0  0  0  0  0  0  0  0
   56.9852   23.1071   46.8034 C   0  0  0  0  0  0  0  0  0  0  0  0
   57.1370   21.9440   47.2600 O   0  0  0  0  0  0  0  0  0  0  0  0
   55.8102   23.7661   46.8669 N   0  0  0  0  0  0  0  0  0  0  0  0
   56.1018   24.9390   46.2821 C   0  0  0  0  0  0  0  0  0  0  0  0
   55.1825   25.9683   46.1221 O   0  0  0  0  0  0  0  0  0  0  0  0
 20 21  2  0
 21 22  1  0
 22 23  2  0
 23 28  1  0
 28 29  1  0
 29 30  1  0
 30 31  2  0
 30 32  1  0
 32 33  1  0
 33 34  1  0
 22 24  1  0
 24 25  2  0
 25 26  1  0
 25 27  1  0
 27  1  1  0
  1  2  2  0
  2  3  1  0
  3  8  1  0
  8  9  2  0
  8 10  1  0
 10 11  1  0
 11 12  1  0
 12 13  2  0
 13 14  1  0
 14 15  2  0
 15 16  1  0
 16 17  2  0
 17 18  1  0
 18 19  1  0
  3  4  2  0
  4  5  1  0
  5  6  2  0
  6  7  1  0
 27 21  1  0
  6  1  1  0
 33 28  2  0
 19 10  1  0
 17 12  1  0
M  CHG 1  29  -1
M  CHG 1  32  -1
M  CHG 1  34  -1
M  END
> <UniqueID>
68

> <SMILES>
C=c1/c(=C/c2[n-]c(=O)[n-]c2[O-])cc(C)n1-c1cc(C(=O)N2CCc3ccccc3C2)ccc1F

> <Energy>
134.99192965060914

> <Genealogy>
C=c1c(=Cc2[n-]c(=O)[n-]c2[O-])cc(C)n1-c1cc(C(=O)N2CCc3ccccc3C2)ccc1F (protonated)
C=c1/c(=C/c2[n-]c(=O)[n-]c2[O-])cc(C)n1-c1cc(C(=O)N2CCc3ccccc3C2)ccc1F (cis-trans isomerization)
C=c1/c(=C/c2[n-]c(=O)[n-]c2[O-])cc(C)n1-c1cc(C(=O)N2CCc3ccccc3C2)ccc1F (3D coordinates assigned)
C=c1/c(=C/c2[n-]c(=O)[n-]c2[O-])cc(C)n1-c1cc(C(=O)N2CCc3ccccc3C2)ccc1F (nonaromatic ring conformer: 134.99192965060914 kcal/mol)

> <smiles>
C=c1c(=Cc2[nH]c(=O)[nH]c2O)cc(C)n1-c1cc(C(=O)N2CCc3ccccc3C2)ccc1F

> <score_type>
oracle

> <origin>
adg

> <m_score__min__energy>
-18.140000000000001

> <m_primary>
energy

> <minimizedAffinity>
-10.89220

> <minimizedRMSD>
0.94507

> <CNNscore>
0.2860170007

> <CNNaffinity>
7.3188438416

> <CNN_VS>
2.0933136940

> <CNNaffinity_variance>
0.0001414847

$$$$
74:0


 32 34  0  0  0  0  0  0  0  0999 V2000
   61.0595   33.2773   47.1442 C   0  0  0  0  0  0  0  0  0  0  0  0
   62.3586   33.6694   46.7944 C   0  0  0  0  0  0  0  0  0  0  0  0
   63.4618   33.0286   47.3624 C   0  0  0  0  0  0  0  0  0  0  0  0
   63.2753   31.9982   48.2880 C   0  0  0  0  0  0  0  0  0  0  0  0
   61.9833   31.6184   48.6718 C   0  0  0  0  0  0  0  0  0  0  0  0
   60.8753   32.2539   48.0840 C   0  0  0  0  0  0  0  0  0  0  0  0
   59.6574   34.0357   46.3913 S   0  0  0  0  0  0  0  0  0  0  0  0
   59.9759   34.4084   44.9695 O   0  0  0  0  0  0  0  0  0  0  0  0
   59.3108   35.2957   47.1330 O   0  0  0  0  0  0  0  0  0  0  0  0
   57.5500   32.7759   47.6681 C   0  0  0  0  0  0  0  0  0  0  0  0
   58.3001   32.9458   46.4232 N   0  0  0  0  0  0  0  0  0  0  0  0
   57.9254   32.2032   45.2474 C   0  0  0  0  0  0  0  0  0  0  0  0
   57.4451   30.8854   45.3560 C   0  0  0  0  0  0  0  0  0  0  0  0
   57.0909   30.1660   44.2105 C   0  0  0  0  0  0  0  0  0  0  0  0
   57.2171   30.7495   42.9479 C   0  0  0  0  0  0  0  0  0  0  0  0
   57.7000   32.0541   42.8285 C   0  0  0  0  0  0  0  0  0  0  0  0
   58.0541   32.7778   43.9701 C   0  0  0  0  0  0  0  0  0  0  0  0
   61.8248   30.5403   49.6022 N   0  0  0  0  0  0  0  0  0  0  0  0
   60.6326   29.7690   49.7850 C   0  0  0  0  0  0  0  0  0  0  0  0
   59.8392   30.0233   50.7316 O   0  0  0  0  0  0  0  0  0  0  0  0
   60.3268   28.6513   48.8419 C   0  0  0  0  0  0  0  0  0  0  0  0
   59.2261   29.2359   47.5094 S   0  0  0  0  0  0  0  0  0  0  0  0
   58.7935   27.5919   46.9437 C   0  0  0  0  0  0  0  0  0  0  0  0
   57.4899   27.2427   46.7991 N   0  0  0  0  0  0  0  0  0  0  0  0
   57.1365   26.0011   46.3786 C   0  0  0  0  0  0  0  0  0  0  0  0
   55.9132   25.7208   46.2615 O   0  0  0  0  0  0  0  0  0  0  0  0
   58.1331   25.0487   46.0775 C   0  0  0  0  0  0  0  0  0  0  0  0
   59.4710   25.4440   46.2322 C   0  0  0  0  0  0  0  0  0  0  0  0
   59.7724   26.6974   46.6580 N   0  0  0  0  0  0  0  0  0  0  0  0
   57.8154   23.6766   45.6123 C   0  0  0  0  0  0  0  0  0  0  0  0
   57.6582   23.4260   44.3870 O   0  0  0  0  0  0  0  0  0  0  0  0
   57.6871   22.6377   46.5282 O   0  0  0  0  0  0  0  0  0  0  0  0
 10 11  1  0
 11 12  1  0
 12 13  2  0
 13 14  1  0
 14 15  2  0
 15 16  1  0
 16 17  2  0
 11  7  1  0
  7  8  2  0
  7  9  2  0
  7  1  1  0
  1  2  2  0
  2  3  1  0
  3  4  2  0
  4  5  1  0
  5 18  1  0
 18 19  1  0
 19 20  2  0
 19 21  1  0
 21 22  1  0
 22 23  1  0
 23 24  2  0
 24 25  1  0
 25 26  2  0
 25 27  1  0
 27 30  1  0
 30 31  2  0
 30 32  1  0
 27 28  2  0
 28 29  1  0
  5  6  2  0
 17 12  1  0
  6  1  1  0
 29 23  1  0
M  CHG 1  18  -1
M  CHG 1  29  -1
M  CHG 1  32  -1
M  END
> <UniqueID>
70

> <SMILES>
CN(c1ccccc1)S(=O)(=O)c1cccc([N-]C(=O)CSc2nc(=O)c(C(=O)[O-])c[n-]2)c1

> <Energy>
54.618256103296495

> <Genealogy>
CN(c1ccccc1)S(=O)(=O)c1cccc([N-]C(=O)CSc2nc(=O)c(C(=O)[O-])c[n-]2)c1 (protonated)
CN(c1ccccc1)S(=O)(=O)c1cccc([N-]C(=O)CSc2nc(=O)c(C(=O)[O-])c[n-]2)c1 (3D coordinates assigned)
CN(c1ccccc1)S(=O)(=O)c1cccc([N-]C(=O)CSc2nc(=O)c(C(=O)[O-])c[n-]2)c1 (optimized conformer: 54.618256103296495 kcal/mol)

> <smiles>
CN(c1ccccc1)S(=O)(=O)c1cccc(NC(=O)CSc2nc(=O)c(C(=O)O)c[nH]2)c1

> <score_type>
oracle

> <origin>
adg

> <m_score__min__energy>
-14.529999999999999

> <m_primary>
energy

> <minimizedAffinity>
-6.73929

> <minimizedRMSD>
1.56651

> <CNNscore>
0.4674817622

> <CNNaffinity>
6.8071236610

> <CNN_VS>
3.1822061539

> <CNNaffinity_variance>
0.0204077531

$$$$
75:0


 34 37  0  0  0  0  0  0  0  0999 V2000
   58.5726   32.1166   46.7785 C   0  0  0  0  0  0  0  0  0  0  0  0
   59.0400   27.2462   45.9881 C   0  0  0  0  0  0  0  0  0  0  0  0
   58.8252   28.5640   45.7789 C   0  0  0  0  0  0  0  0  0  0  0  0
   58.3907   29.1654   44.6061 C   0  0  0  0  0  0  0  0  0  0  0  0
   58.2849   30.5151   44.8638 C   0  0  0  0  0  0  0  0  0  0  0  0
   57.8492   31.5346   43.8529 C   0  0  0  0  0  0  0  0  0  0  0  0
   58.6331   30.7877   46.1431 N   0  0  0  0  0  0  0  0  0  0  0  0
   58.9678   29.5979   46.7151 C   0  0  0  0  0  0  0  0  0  0  0  0
   59.3757   29.4587   47.9889 C   0  0  0  0  0  0  0  0  0  0  0  0
   59.4711   24.2356   45.8545 O   0  0  0  0  0  0  0  0  0  0  0  0
   58.2239   24.8445   45.9562 C   0  0  0  0  0  0  0  0  0  0  0  0
   57.0620   24.1698   45.9885 N   0  0  0  0  0  0  0  0  0  0  0  0
   56.1495   25.1603   46.0829 C   0  0  0  0  0  0  0  0  0  0  0  0
   54.9127   24.9399   46.1378 O   0  0  0  0  0  0  0  0  0  0  0  0
   56.6690   26.4059   46.1095 N   0  0  0  0  0  0  0  0  0  0  0  0
   57.9965   26.1973   46.0368 C   0  0  0  0  0  0  0  0  0  0  0  0
   59.5340   23.3020   45.8043 H   0  0  0  0  0  0  0  0  0  0  0  0
   59.8310   32.9453   46.4740 C   0  0  0  0  0  0  0  0  0  0  0  0
   60.7984   32.9503   47.6273 C   0  0  0  0  0  0  0  0  0  0  0  0
   61.9079   32.0908   47.6245 C   0  0  0  0  0  0  0  0  0  0  0  0
   62.7719   32.0509   48.7220 C   0  0  0  0  0  0  0  0  0  0  0  0
   62.5328   32.8633   49.8382 C   0  0  0  0  0  0  0  0  0  0  0  0
   61.4288   33.7278   49.8423 C   0  0  0  0  0  0  0  0  0  0  0  0
   60.5659   33.7695   48.7450 C   0  0  0  0  0  0  0  0  0  0  0  0
   63.6342   32.8016   51.2119 S   0  0  0  0  0  0  0  0  0  0  0  0
   64.0013   34.1973   51.6332 O   0  0  0  0  0  0  0  0  0  0  0  0
   62.9314   32.1222   52.3544 O   0  0  0  0  0  0  0  0  0  0  0  0
   65.0631   31.8985   50.7545 N   0  0  0  0  0  0  0  0  0  0  0  0
   66.1504   32.7810   50.2750 C   0  0  0  0  0  0  0  0  0  0  0  0
   67.2539   33.0149   51.3227 C   0  0  0  0  0  0  0  0  0  0  0  0
   66.6726   33.0347   52.6644 N   0  0  0  0  0  0  0  0  0  0  0  0
   66.1210   31.7189   53.0266 C   0  0  0  0  0  0  0  0  0  0  0  0
   65.4957   30.9783   51.8238 C   0  0  0  0  0  0  0  0  0  0  0  0
   65.9248   33.7278   52.6926 H   0  0  0  0  0  0  0  0  0  0  0  0
 10 11  1  0
 11 12  1  0
 12 13  1  0
 13 14  2  0
 13 15  1  0
 15 16  1  0
 16  2  1  0
  2  3  2  0
  3  4  1  0
  4  5  2  0
  5  6  1  0
  5  7  1  0
  7  1  1  0
  1 18  1  0
 18 19  1  0
 19 20  2  0
 20 21  1  0
 21 22  2  0
 22 25  1  0
 25 26  2  0
 25 27  2  0
 25 28  1  0
 28 29  1  0
 29 30  1  0
 30 31  1  0
 31 32  1  0
 32 33  1  0
 22 23  1  0
 23 24  2  0
  7  8  1  0
  8  9  2  0
 16 11  2  0
  8  3  1  0
 24 19  1  0
 33 28  1  0
 10 17  1  0
 31 34  1  0
M  CHG 1  12  -1
M  CHG 1  15  -1
M  END
> <UniqueID>
71

> <SMILES>
C=c1/c(=C/c2[n-]c(=O)[n-]c2O)cc(C)n1CCc1ccc(S(=O)(=O)N2CCNCC2)cc1

> <Energy>
125.1302406786807

> <Genealogy>
C=c1c(=Cc2[n-]c(=O)[n-]c2O)cc(C)n1CCc1ccc(S(=O)(=O)N2CCNCC2)cc1 (protonated)
C=c1/c(=C/c2[n-]c(=O)[n-]c2O)cc(C)n1CCc1ccc(S(=O)(=O)N2CCNCC2)cc1 (cis-trans isomerization)
C=c1/c(=C/c2[n-]c(=O)[n-]c2O)cc(C)n1CCc1ccc(S(=O)(=O)N2CCNCC2)cc1 (3D coordinates assigned)
C=c1/c(=C/c2[n-]c(=O)[n-]c2O)cc(C)n1CCc1ccc(S(=O)(=O)N2CCNCC2)cc1 (nonaromatic ring conformer: 125.1302406786807 kcal/mol)

> <smiles>
C=c1c(=Cc2[nH]c(=O)[nH]c2O)cc(C)n1CCc1ccc(S(=O)(=O)N2CCNCC2)cc1

> <score_type>
oracle

> <origin>
adg

> <m_score__min__energy>
-14.51

> <m_primary>
energy

> <minimizedAffinity>
-8.36065

> <minimizedRMSD>
2.67357

> <CNNscore>
0.4430815876

> <CNNaffinity>
7.2536506653

> <CNN_VS>
3.2139589787

> <CNNaffinity_variance>
0.1790168434

$$$$
76:0


 26 27  0  0  0  0  0  0  0  0999 V2000
   58.5632   30.0729   50.1992 O   0  0  0  0  0  0  0  0  0  0  0  0
   59.3417   30.0219   49.2096 C   0  0  0  0  0  0  0  0  0  0  0  0
   60.5521   30.8977   49.1652 C   0  0  0  0  0  0  0  0  0  0  0  0
   60.2016   32.2640   49.5452 N   0  0  0  0  0  0  0  0  0  0  0  0
   60.3876   33.4260   48.7240 C   0  0  0  0  0  0  0  0  0  0  0  0
   61.2272   34.2936   49.0789 O   0  0  0  0  0  0  0  0  0  0  0  0
   59.6156   33.6336   47.4822 C   0  0  0  0  0  0  0  0  0  0  0  0
   60.2410   34.2493   46.3843 C   0  0  0  0  0  0  0  0  0  0  0  0
   59.5413   34.4528   45.1936 C   0  0  0  0  0  0  0  0  0  0  0  0
   58.2149   34.0328   45.0814 C   0  0  0  0  0  0  0  0  0  0  0  0
   57.5860   33.4082   46.1599 C   0  0  0  0  0  0  0  0  0  0  0  0
   58.2750   33.2012   47.3617 C   0  0  0  0  0  0  0  0  0  0  0  0
   57.5975   32.5821   48.4146 O   0  0  0  0  0  0  0  0  0  0  0  0
   56.7088   32.3070   48.3025 H   0  0  0  0  0  0  0  0  0  0  0  0
   59.0750   29.1713   48.1343 O   0  0  0  0  0  0  0  0  0  0  0  0
   59.0179   29.6277   46.7883 C   0  0  0  0  0  0  0  0  0  0  0  0
   59.3377   28.4913   45.8607 C   0  0  0  0  0  0  0  0  0  0  0  0
   60.2032   28.6787   44.9628 O   0  0  0  0  0  0  0  0  0  0  0  0
   58.6577   27.1693   45.9635 C   0  0  0  0  0  0  0  0  0  0  0  0
   59.3926   25.9692   46.0472 C   0  0  0  0  0  0  0  0  0  0  0  0
   58.7353   24.7405   46.1593 C   0  0  0  0  0  0  0  0  0  0  0  0
   57.3401   24.6885   46.1913 C   0  0  0  0  0  0  0  0  0  0  0  0
   56.6958   23.4620   46.3065 O   0  0  0  0  0  0  0  0  0  0  0  0
   56.5977   25.8703   46.1077 C   0  0  0  0  0  0  0  0  0  0  0  0
   55.2084   25.8244   46.1410 O   0  0  0  0  0  0  0  0  0  0  0  0
   57.2510   27.1017   45.9923 C   0  0  0  0  0  0  0  0  0  0  0  0
  1  2  2  0
  2  3  1  0
  3  4  1  0
  4  5  1  0
  5  6  2  0
  5  7  1  0
  7  8  2  0
  8  9  1  0
  9 10  2  0
 10 11  1  0
 11 12  2  0
 12 13  1  0
  2 15  1  0
 15 16  1  0
 16 17  1  0
 17 18  2  0
 17 19  1  0
 19 20  2  0
 20 21  1  0
 21 22  2  0
 22 23  1  0
 22 24  1  0
 24 25  1  0
 24 26  2  0
 12  7  1  0
 26 19  1  0
 13 14  1  0
M  CHG 1   4  -1
M  CHG 1  23  -1
M  CHG 1  25  -1
M  END
> <UniqueID>
72

> <SMILES>
O=C(C[N-]C(=O)c1ccccc1O)OCC(=O)c1ccc([O-])c([O-])c1

> <Energy>
39.707826511157585

> <Genealogy>
O=C(C[N-]C(=O)c1ccccc1O)OCC(=O)c1ccc([O-])c([O-])c1 (protonated)
O=C(C[N-]C(=O)c1ccccc1O)OCC(=O)c1ccc([O-])c([O-])c1 (3D coordinates assigned)
O=C(C[N-]C(=O)c1ccccc1O)OCC(=O)c1ccc([O-])c([O-])c1 (optimized conformer: 39.707826511157585 kcal/mol)

> <smiles>
O=C(CNC(=O)c1ccccc1O)OCC(=O)c1ccc(O)c(O)c1

> <score_type>
oracle

> <origin>
adg

> <m_score__min__energy>
-16.010000000000002

> <m_primary>
energy

> <minimizedAffinity>
-6.90935

> <minimizedRMSD>
1.62874

> <CNNscore>
0.5483276844

> <CNNaffinity>
5.7997889519

> <CNN_VS>
3.1801848412

> <CNNaffinity_variance>
0.0115876785

$$$$
87:0


 31 34  0  0  0  0  0  0  0  0999 V2000
   59.0513   29.0399   46.5198 C   0  0  0  0  0  0  0  0  0  0  0  0
   59.2191   29.9755   45.4907 C   0  0  0  0  0  0  0  0  0  0  0  0
   59.3531   31.3334   45.7870 C   0  0  0  0  0  0  0  0  0  0  0  0
   59.3126   31.7801   47.1195 C   0  0  0  0  0  0  0  0  0  0  0  0
   59.1555   30.8364   48.1499 C   0  0  0  0  0  0  0  0  0  0  0  0
   59.0216   29.4765   47.8525 C   0  0  0  0  0  0  0  0  0  0  0  0
   58.8584   28.5842   48.8617 F   0  0  0  0  0  0  0  0  0  0  0  0
   56.7584   27.6949   45.2072 C   0  0  0  0  0  0  0  0  0  0  0  0
   57.8827   27.0470   45.5514 C   0  0  0  0  0  0  0  0  0  0  0  0
   58.1285   25.6661   45.4561 C   0  0  0  0  0  0  0  0  0  0  0  0
   57.4388   24.6856   44.8440 C   0  0  0  0  0  0  0  0  0  0  0  0
   59.3066   25.4350   46.1489 C   0  0  0  0  0  0  0  0  0  0  0  0
   59.7708   26.6640   46.5720 C   0  0  0  0  0  0  0  0  0  0  0  0
   61.0297   26.8753   47.3571 C   0  0  0  0  0  0  0  0  0  0  0  0
   58.9100   27.6417   46.2106 N   0  0  0  0  0  0  0  0  0  0  0  0
   56.2732   23.9813   45.3996 C   0  0  0  0  0  0  0  0  0  0  0  0
   56.1244   22.6460   45.3610 N   0  0  0  0  0  0  0  0  0  0  0  0
   54.8810   22.4567   45.8539 C   0  0  0  0  0  0  0  0  0  0  0  0
   54.3750   21.3128   45.9926 O   0  0  0  0  0  0  0  0  0  0  0  0
   54.2186   23.5886   46.1761 N   0  0  0  0  0  0  0  0  0  0  0  0
   55.1077   24.5451   45.8674 C   0  0  0  0  0  0  0  0  0  0  0  0
   54.8477   25.9064   45.9852 O   0  0  0  0  0  0  0  0  0  0  0  0
   59.4652   33.2290   47.4158 C   0  0  0  0  0  0  0  0  0  0  0  0
   58.4467   33.9713   47.3422 O   0  0  0  0  0  0  0  0  0  0  0  0
   60.7593   33.8091   47.7275 N   0  0  0  0  0  0  0  0  0  0  0  0
   60.9875   33.8124   49.2019 C   0  0  0  0  0  0  0  0  0  0  0  0
   61.9324   32.6938   49.6608 C   0  0  0  0  0  0  0  0  0  0  0  0
   63.3062   32.8135   48.9781 C   0  0  0  0  0  0  0  0  0  0  0  0
   63.2152   33.4017   47.5566 C   0  0  0  0  0  0  0  0  0  0  0  0
   61.8344   33.1428   46.9432 C   0  0  0  0  0  0  0  0  0  0  0  0
   60.9101   34.7507   47.9719 H   0  0  0  0  0  0  0  0  0  0  0  0
  8  9  2  0
  9 10  1  0
 10 11  2  0
 11 16  1  0
 16 17  1  0
 17 18  1  0
 18 19  2  0
 18 20  1  0
 20 21  1  0
 21 22  1  0
 10 12  1  0
 12 13  2  0
 13 14  1  0
 13 15  1  0
 15  1  1  0
  1  2  2  0
  2  3  1  0
  3  4  2  0
  4 23  1  0
 23 24  2  0
 23 25  1  0
 25 26  1  0
 26 27  1  0
 27 28  1  0
 28 29  1  0
 29 30  1  0
  4  5  1  0
  5  6  2  0
  6  7  1  0
 15  9  1  0
  6  1  1  0
 21 16  2  0
 30 25  1  0
 25 31  1  0
M  CHG 1  17  -1
M  CHG 1  20  -1
M  CHG 1  22  -1
M  CHG 1  25   1
M  END
> <UniqueID>
81

> <SMILES>
C=c1c(=Cc2[n-]c(=O)[n-]c2[O-])cc(C)n1-c1ccc(C(=O)[NH+]2CCCCC2)cc1F

> <Energy>
141.8686456225905

> <Genealogy>
C=c1c(=Cc2[n-]c(=O)[n-]c2[O-])cc(C)n1-c1ccc(C(=O)[NH+]2CCCCC2)cc1F (protonated)
C=c1c(=Cc2[n-]c(=O)[n-]c2[O-])cc(C)n1-c1ccc(C(=O)[NH+]2CCCCC2)cc1F (3D coordinates assigned)
C=c1c(=Cc2[n-]c(=O)[n-]c2[O-])cc(C)n1-c1ccc(C(=O)[NH+]2CCCCC2)cc1F (nonaromatic ring conformer: 141.8686456225905 kcal/mol)

> <smiles>
C=c1c(=Cc2[nH]c(=O)[nH]c2O)cc(C)n1-c1ccc(C(=O)N2CCCCC2)cc1F

> <score_type>
oracle

> <origin>
adg

> <m_score__min__energy>
-14.949999999999999

> <m_primary>
energy

> <minimizedAffinity>
-7.90159

> <minimizedRMSD>
0.79755

> <CNNscore>
0.0651113987

> <CNNaffinity>
6.4544849396

> <CNN_VS>
0.4202605486

> <CNNaffinity_variance>
0.0569651835

$$$$
2:0


 29 31  0  0  0  0  0  0  0  0999 V2000
   58.6724   27.1457   46.5559 C   0  0  0  0  0  0  0  0  0  0  0  0
   60.0198   27.3660   46.2574 C   0  0  0  0  0  0  0  0  0  0  0  0
   60.3870   28.3752   45.3646 C   0  0  0  0  0  0  0  0  0  0  0  0
   59.4076   29.1680   44.7593 C   0  0  0  0  0  0  0  0  0  0  0  0
   58.0454   28.9400   45.0237 C   0  0  0  0  0  0  0  0  0  0  0  0
   57.6859   27.9019   45.9019 C   0  0  0  0  0  0  0  0  0  0  0  0
   57.0070   29.8119   44.4305 C   0  0  0  0  0  0  0  0  0  0  0  0
   56.2222   29.3575   43.5521 O   0  0  0  0  0  0  0  0  0  0  0  0
   56.9100   31.1839   44.8272 N   0  0  0  0  0  0  0  0  0  0  0  0
   57.7379   32.2436   44.2628 C   0  0  0  0  0  0  0  0  0  0  0  0
   58.4150   33.0015   45.3709 C   0  0  0  0  0  0  0  0  0  0  0  0
   58.6731   32.3680   46.5985 C   0  0  0  0  0  0  0  0  0  0  0  0
   59.3494   33.0493   47.6133 C   0  0  0  0  0  0  0  0  0  0  0  0
   59.7744   34.3650   47.4119 C   0  0  0  0  0  0  0  0  0  0  0  0
   59.5251   35.0015   46.1922 C   0  0  0  0  0  0  0  0  0  0  0  0
   59.9435   36.2767   45.9966 F   0  0  0  0  0  0  0  0  0  0  0  0
   58.8516   34.3227   45.1729 C   0  0  0  0  0  0  0  0  0  0  0  0
   58.3263   26.1232   47.4985 N   0  0  0  0  0  0  0  0  0  0  0  0
   57.4461   24.0895   48.1710 O   0  0  0  0  0  0  0  0  0  0  0  0
   57.7118   24.8583   47.2096 C   0  0  0  0  0  0  0  0  0  0  0  0
   57.3292   24.4252   45.8137 C   0  0  0  0  0  0  0  0  0  0  0  0
   55.9491   23.8099   45.7454 C   0  0  0  0  0  0  0  0  0  0  0  0
   55.7965   22.4203   45.6382 C   0  0  0  0  0  0  0  0  0  0  0  0
   54.5573   21.8710   45.5765 N   0  0  0  0  0  0  0  0  0  0  0  0
   53.4458   22.6475   45.6316 C   0  0  0  0  0  0  0  0  0  0  0  0
   52.3065   22.1187   45.5690 O   0  0  0  0  0  0  0  0  0  0  0  0
   53.5638   23.9932   45.7585 N   0  0  0  0  0  0  0  0  0  0  0  0
   54.7820   24.5903   45.8239 C   0  0  0  0  0  0  0  0  0  0  0  0
   54.8505   25.8419   45.9549 O   0  0  0  0  0  0  0  0  0  0  0  0
 19 20  2  0
 20 21  1  0
 21 22  1  0
 22 23  2  0
 23 24  1  0
 24 25  1  0
 25 26  2  0
 25 27  1  0
 27 28  1  0
 28 29  2  0
 20 18  1  0
 18  1  1  0
  1  2  2  0
  2  3  1  0
  3  4  2  0
  4  5  1  0
  5  7  1  0
  7  8  2  0
  7  9  1  0
  9 10  1  0
 10 11  1  0
 11 12  2  0
 12 13  1  0
 13 14  2  0
 14 15  1  0
 15 16  1  0
 15 17  2  0
  5  6  2  0
 28 22  1  0
  6  1  1  0
 17 11  1  0
M  CHG 1   9  -1
M  CHG 1  18  -1
M  CHG 1  24  -1
M  CHG 1  27  -1
M  END
> <UniqueID>
3

> <SMILES>
O=C(Cc1c[n-]c(=O)[n-]c1=O)[N-]c1cccc(C(=O)[N-]Cc2cccc(F)c2)c1

> <Energy>
47.700254926391345

> <Genealogy>
O=C(Cc1c[n-]c(=O)[n-]c1=O)[N-]c1cccc(C(=O)[N-]Cc2cccc(F)c2)c1 (protonated)
O=C(Cc1c[n-]c(=O)[n-]c1=O)[N-]c1cccc(C(=O)[N-]Cc2cccc(F)c2)c1 (3D coordinates assigned)
O=C(Cc1c[n-]c(=O)[n-]c1=O)[N-]c1cccc(C(=O)[N-]Cc2cccc(F)c2)c1 (optimized conformer: 47.700254926391345 kcal/mol)

> <smiles>
O=C(Cc1c[nH]c(=O)[nH]c1=O)Nc1cccc(C(=O)NCc2cccc(F)c2)c1

> <score_type>
oracle

> <origin>
adg

> <m_score__min__energy>
-15.81

> <m_primary>
energy

> <minimizedAffinity>
-7.67732

> <minimizedRMSD>
0.79866

> <CNNscore>
0.3068967760

> <CNNaffinity>
6.3643436432

> <CNN_VS>
1.9531965256

> <CNNaffinity_variance>
0.0542338677

$$$$
3:0


 28 30  0  0  0  0  0  0  0  0999 V2000
   58.2625   31.9256   45.3678 C   0  0  0  0  0  0  0  0  0  0  0  0
   58.4423   30.6562   45.7926 C   0  0  0  0  0  0  0  0  0  0  0  0
   57.8391   29.5920   45.0809 C   0  0  0  0  0  0  0  0  0  0  0  0
   57.1247   29.8208   44.0618 O   0  0  0  0  0  0  0  0  0  0  0  0
   58.0475   28.2690   45.5178 C   0  0  0  0  0  0  0  0  0  0  0  0
   57.4822   27.2205   44.8829 C   0  0  0  0  0  0  0  0  0  0  0  0
   58.8122   28.0596   46.6184 N   0  0  0  0  0  0  0  0  0  0  0  0
   59.3892   29.0743   47.3045 C   0  0  0  0  0  0  0  0  0  0  0  0
   60.0881   28.8038   48.3194 O   0  0  0  0  0  0  0  0  0  0  0  0
   59.2116   30.3729   46.9041 N   0  0  0  0  0  0  0  0  0  0  0  0
   57.4337   25.8424   45.4309 C   0  0  0  0  0  0  0  0  0  0  0  0
   58.5241   24.9655   45.2847 C   0  0  0  0  0  0  0  0  0  0  0  0
   58.4527   23.6607   45.7771 C   0  0  0  0  0  0  0  0  0  0  0  0
   57.2908   23.2109   46.4051 C   0  0  0  0  0  0  0  0  0  0  0  0
   56.1880   24.0604   46.5380 C   0  0  0  0  0  0  0  0  0  0  0  0
   55.0352   23.5814   47.1597 O   0  0  0  0  0  0  0  0  0  0  0  0
   56.2549   25.3759   46.0453 C   0  0  0  0  0  0  0  0  0  0  0  0
   55.1551   26.2196   46.1762 O   0  0  0  0  0  0  0  0  0  0  0  0
   55.0078   22.7021   47.4823 H   0  0  0  0  0  0  0  0  0  0  0  0
   59.8383   31.4165   47.6792 C   0  0  0  0  0  0  0  0  0  0  0  0
   59.1400   32.0263   48.7294 C   0  0  0  0  0  0  0  0  0  0  0  0
   59.7461   33.0363   49.4783 C   0  0  0  0  0  0  0  0  0  0  0  0
   61.0493   33.4448   49.1835 C   0  0  0  0  0  0  0  0  0  0  0  0
   61.7627   32.8441   48.1303 C   0  0  0  0  0  0  0  0  0  0  0  0
   61.1453   31.8279   47.3797 C   0  0  0  0  0  0  0  0  0  0  0  0
   63.1427   33.2726   47.8114 C   0  0  0  0  0  0  0  0  0  0  0  0
   64.0402   33.2479   48.6946 O   0  0  0  0  0  0  0  0  0  0  0  0
   63.4678   33.7071   46.5309 O   0  0  0  0  0  0  0  0  0  0  0  0
  1  2  2  0
  2  3  1  0
  3  4  2  0
  3  5  1  0
  5  6  2  0
  6 11  1  0
 11 12  2  0
 12 13  1  0
 13 14  2  0
 14 15  1  0
 15 16  1  0
 15 17  2  0
 17 18  1  0
  5  7  1  0
  7  8  1  0
  8  9  2  0
  8 10  1  0
 10 20  1  0
 20 21  2  0
 21 22  1  0
 22 23  2  0
 23 24  1  0
 24 26  1  0
 26 27  2  0
 26 28  1  0
 24 25  2  0
 10  2  1  0
 25 20  1  0
 17 11  1  0
 16 19  1  0
M  CHG 1   7  -1
M  CHG 1  18  -1
M  CHG 1  28  -1
M  END
> <UniqueID>
4

> <SMILES>
C=c1c(=O)c(=Cc2cccc(O)c2[O-])[n-]c(=O)n1-c1cccc(C(=O)[O-])c1

> <Energy>
66.34424187001423

> <Genealogy>
C=c1c(=O)c(=Cc2cccc(O)c2[O-])[n-]c(=O)n1-c1cccc(C(=O)[O-])c1 (protonated)
C=c1c(=O)c(=Cc2cccc(O)c2[O-])[n-]c(=O)n1-c1cccc(C(=O)[O-])c1 (3D coordinates assigned)
C=c1c(=O)c(=Cc2cccc(O)c2[O-])[n-]c(=O)n1-c1cccc(C(=O)[O-])c1 (optimized conformer: 66.34424187001423 kcal/mol)

> <smiles>
C=c1c(=O)c(=Cc2cccc(O)c2O)[nH]c(=O)n1-c1cccc(C(=O)O)c1

> <score_type>
oracle

> <origin>
adg

> <m_score__min__energy>
-14.460000000000001

> <m_primary>
energy

> <minimizedAffinity>
-8.49458

> <minimizedRMSD>
0.87554

> <CNNscore>
0.6193283796

> <CNNaffinity>
6.7464690208

> <CNN_VS>
4.1782798767

> <CNNaffinity_variance>
0.4024079144

$$$$
20:0


 32 35  0  0  0  0  0  0  0  0999 V2000
   57.4980   30.3827   53.9205 C   0  0  0  0  0  0  0  0  0  0  0  0
   58.0849   31.6528   53.8362 C   0  0  0  0  0  0  0  0  0  0  0  0
   59.4067   31.7872   53.4053 C   0  0  0  0  0  0  0  0  0  0  0  0
   60.1524   30.6572   53.0514 C   0  0  0  0  0  0  0  0  0  0  0  0
   59.5728   29.3859   53.1539 C   0  0  0  0  0  0  0  0  0  0  0  0
   58.2494   29.2496   53.5816 C   0  0  0  0  0  0  0  0  0  0  0  0
   55.1331   30.4330   52.1266 C   0  0  0  0  0  0  0  0  0  0  0  0
   55.0351   30.2895   53.4550 C   0  0  0  0  0  0  0  0  0  0  0  0
   53.8720   30.0376   54.2026 C   0  0  0  0  0  0  0  0  0  0  0  0
   52.5723   30.0376   53.8485 C   0  0  0  0  0  0  0  0  0  0  0  0
   54.2913   29.7750   55.4969 C   0  0  0  0  0  0  0  0  0  0  0  0
   55.6606   29.9283   55.5136 C   0  0  0  0  0  0  0  0  0  0  0  0
   56.5300   29.7373   56.7190 C   0  0  0  0  0  0  0  0  0  0  0  0
   56.1123   30.2500   54.2808 N   0  0  0  0  0  0  0  0  0  0  0  0
   52.0444   30.3006   52.5008 C   0  0  0  0  0  0  0  0  0  0  0  0
   52.2112   29.4849   51.4420 N   0  0  0  0  0  0  0  0  0  0  0  0
   51.7274   30.2126   50.4118 C   0  0  0  0  0  0  0  0  0  0  0  0
   51.7002   29.7789   49.2296 O   0  0  0  0  0  0  0  0  0  0  0  0
   51.2900   31.4467   50.7440 N   0  0  0  0  0  0  0  0  0  0  0  0
   51.5117   31.4902   52.0672 C   0  0  0  0  0  0  0  0  0  0  0  0
   51.2421   32.5973   52.8622 O   0  0  0  0  0  0  0  0  0  0  0  0
   61.7799   30.8570   52.4102 S   0  0  0  0  0  0  0  0  0  0  0  0
   62.6818   29.7466   52.8703 O   0  0  0  0  0  0  0  0  0  0  0  0
   62.3309   32.1686   52.8947 O   0  0  0  0  0  0  0  0  0  0  0  0
   61.7229   30.8691   50.6771 N   0  0  0  0  0  0  0  0  0  0  0  0
   61.0051   31.8237   49.8767 C   0  0  0  0  0  0  0  0  0  0  0  0
   61.5030   33.1214   49.6579 C   0  0  0  0  0  0  0  0  0  0  0  0
   60.8055   34.0225   48.8498 C   0  0  0  0  0  0  0  0  0  0  0  0
   59.6008   33.6420   48.2570 C   0  0  0  0  0  0  0  0  0  0  0  0
   59.0871   32.3617   48.4787 C   0  0  0  0  0  0  0  0  0  0  0  0
   59.7771   31.4486   49.2920 C   0  0  0  0  0  0  0  0  0  0  0  0
   59.2127   30.0734   49.5174 C   0  0  0  0  0  0  0  0  0  0  0  0
  7  8  2  0
  8  9  1  0
  9 10  2  0
 10 15  1  0
 15 16  1  0
 16 17  1  0
 17 18  2  0
 17 19  1  0
 19 20  1  0
 20 21  1  0
  9 11  1  0
 11 12  2  0
 12 13  1  0
 12 14  1  0
 14  1  1  0
  1  2  2  0
  2  3  1  0
  3  4  2  0
  4 22  1  0
 22 23  2  0
 22 24  2  0
 22 25  1  0
 25 26  1  0
 26 27  2  0
 27 28  1  0
 28 29  2  0
 29 30  1  0
 30 31  2  0
 31 32  1  0
  4  5  1  0
  5  6  2  0
 14  8  1  0
  6  1  1  0
 20 15  2  0
 31 26  1  0
M  CHG 1  16  -1
M  CHG 1  19  -1
M  CHG 1  21  -1
M  CHG 1  25  -1
M  END
> <UniqueID>
20

> <SMILES>
C=c1/c(=C\c2[n-]c(=O)[n-]c2[O-])cc(C)n1-c1ccc(S(=O)(=O)[N-]c2ccccc2C)cc1

> <Energy>
132.62522570879952

> <Genealogy>
C=c1c(=Cc2[n-]c(=O)[n-]c2[O-])cc(C)n1-c1ccc(S(=O)(=O)[N-]c2ccccc2C)cc1 (protonated)
C=c1/c(=C\c2[n-]c(=O)[n-]c2[O-])cc(C)n1-c1ccc(S(=O)(=O)[N-]c2ccccc2C)cc1 (cis-trans isomerization)
C=c1/c(=C\c2[n-]c(=O)[n-]c2[O-])cc(C)n1-c1ccc(S(=O)(=O)[N-]c2ccccc2C)cc1 (3D coordinates assigned)
C=c1/c(=C\c2[n-]c(=O)[n-]c2[O-])cc(C)n1-c1ccc(S(=O)(=O)[N-]c2ccccc2C)cc1 (optimized conformer: 132.62522570879952 kcal/mol)

> <smiles>
C=c1c(=Cc2[nH]c(=O)[nH]c2O)cc(C)n1-c1ccc(S(=O)(=O)Nc2ccccc2C)cc1

> <score_type>
oracle

> <origin>
adg

> <m_score__min__energy>
-16.890000000000001

> <m_primary>
energy

> <minimizedAffinity>
-5.94480

> <minimizedRMSD>
1.03140

> <CNNscore>
0.1631113589

> <CNNaffinity>
5.8590579033

> <CNN_VS>
0.9556788802

> <CNNaffinity_variance>
0.0057310811

$$$$
28:0


 32 35  0  0  0  0  0  0  0  0999 V2000
   59.9879   29.8345   47.3306 C   0  0  0  0  0  0  0  0  0  0  0  0
   61.0627   30.6189   46.8880 C   0  0  0  0  0  0  0  0  0  0  0  0
   61.7449   31.4497   47.7821 C   0  0  0  0  0  0  0  0  0  0  0  0
   61.3718   31.4867   49.1335 C   0  0  0  0  0  0  0  0  0  0  0  0
   60.2793   30.7265   49.5713 C   0  0  0  0  0  0  0  0  0  0  0  0
   59.5935   29.9004   48.6772 C   0  0  0  0  0  0  0  0  0  0  0  0
   58.5373   29.1737   49.1163 F   0  0  0  0  0  0  0  0  0  0  0  0
   60.2801   26.8952   47.0201 C   0  0  0  0  0  0  0  0  0  0  0  0
   59.3650   27.6143   46.3491 C   0  0  0  0  0  0  0  0  0  0  0  0
   58.4846   27.1481   45.3612 C   0  0  0  0  0  0  0  0  0  0  0  0
   58.1386   25.8932   45.0103 C   0  0  0  0  0  0  0  0  0  0  0  0
   57.9413   28.2746   44.7637 C   0  0  0  0  0  0  0  0  0  0  0  0
   58.4312   29.3674   45.4493 C   0  0  0  0  0  0  0  0  0  0  0  0
   58.0502   30.7886   45.1691 C   0  0  0  0  0  0  0  0  0  0  0  0
   59.2928   28.9698   46.4133 N   0  0  0  0  0  0  0  0  0  0  0  0
   57.3905   24.9452   45.8547 C   0  0  0  0  0  0  0  0  0  0  0  0
   57.9137   23.8338   46.4050 N   0  0  0  0  0  0  0  0  0  0  0  0
   56.9124   23.3747   47.1883 C   0  0  0  0  0  0  0  0  0  0  0  0
   57.0151   22.3225   47.8695 O   0  0  0  0  0  0  0  0  0  0  0  0
   55.7987   24.1400   47.1930 N   0  0  0  0  0  0  0  0  0  0  0  0
   56.1254   25.1365   46.3538 C   0  0  0  0  0  0  0  0  0  0  0  0
   55.2874   26.2048   46.0592 O   0  0  0  0  0  0  0  0  0  0  0  0
   62.0947   32.3495   50.0822 C   0  0  0  0  0  0  0  0  0  0  0  0
   62.2938   33.5507   49.7523 O   0  0  0  0  0  0  0  0  0  0  0  0
   62.6093   31.8629   51.3510 N   0  0  0  0  0  0  0  0  0  0  0  0
   62.9594   32.9716   52.2789 C   0  0  0  0  0  0  0  0  0  0  0  0
   64.4681   33.2752   52.3463 C   0  0  0  0  0  0  0  0  0  0  0  0
   65.1113   32.9050   51.0787 N   0  0  0  0  0  0  0  0  0  0  0  0
   66.4959   33.4044   51.0324 C   0  0  0  0  0  0  0  0  0  0  0  0
   65.0813   31.4422   50.9093 C   0  0  0  0  0  0  0  0  0  0  0  0
   63.6799   30.8472   51.1927 C   0  0  0  0  0  0  0  0  0  0  0  0
   63.1804   31.5674   50.6055 H   0  0  0  0  0  0  0  0  0  0  0  0
  8  9  2  0
  9 10  1  0
 10 11  2  0
 11 16  1  0
 16 17  1  0
 17 18  1  0
 18 19  2  0
 18 20  1  0
 20 21  1  0
 21 22  1  0
 10 12  1  0
 12 13  2  0
 13 14  1  0
 13 15  1  0
 15  1  1  0
  1  2  2  0
  2  3  1  0
  3  4  2  0
  4 23  1  0
 23 24  2  0
 23 25  1  0
 25 26  1  0
 26 27  1  0
 27 28  1  0
 28 29  1  0
 28 30  1  0
 30 31  1  0
  4  5  1  0
  5  6  2  0
  6  7  1  0
 15  9  1  0
  6  1  1  0
 21 16  2  0
 31 25  1  0
 25 32  1  0
M  CHG 1  17  -1
M  CHG 1  20  -1
M  CHG 1  22  -1
M  CHG 1  25   1
M  END
> <UniqueID>
28

> <SMILES>
C=c1c(=Cc2[n-]c(=O)[n-]c2[O-])cc(C)n1-c1ccc(C(=O)[NH+]2CCN(C)CC2)cc1F

> <Energy>
150.71443388365253

> <Genealogy>
C=c1c(=Cc2[n-]c(=O)[n-]c2[O-])cc(C)n1-c1ccc(C(=O)[NH+]2CCN(C)CC2)cc1F (protonated)
C=c1c(=Cc2[n-]c(=O)[n-]c2[O-])cc(C)n1-c1ccc(C(=O)[NH+]2CCN(C)CC2)cc1F (3D coordinates assigned)
C=c1c(=Cc2[n-]c(=O)[n-]c2[O-])cc(C)n1-c1ccc(C(=O)[NH+]2CCN(C)CC2)cc1F (nonaromatic ring conformer: 150.71443388365253 kcal/mol)

> <smiles>
C=c1c(=Cc2[nH]c(=O)[nH]c2O)cc(C)n1-c1ccc(C(=O)N2CCN(C)CC2)cc1F

> <score_type>
oracle

> <origin>
adg

> <m_score__min__energy>
-14.26

> <m_primary>
energy

> <minimizedAffinity>
-8.48599

> <minimizedRMSD>
0.96148

> <CNNscore>
0.1447913349

> <CNNaffinity>
6.3945994377

> <CNN_VS>
0.9258825779

> <CNNaffinity_variance>
0.0130039603

$$$$
43:0


 25 27  0  0  0  0  0  0  0  0999 V2000
   57.9873   25.6644   43.6386 C   0  0  0  0  0  0  0  0  0  0  0  0
   58.2235   25.8151   44.9546 C   0  0  0  0  0  0  0  0  0  0  0  0
   57.9298   24.8761   45.9559 C   0  0  0  0  0  0  0  0  0  0  0  0
   57.1559   23.7734   45.9352 C   0  0  0  0  0  0  0  0  0  0  0  0
   58.5907   25.3003   47.0931 C   0  0  0  0  0  0  0  0  0  0  0  0
   59.1939   26.4986   46.7804 C   0  0  0  0  0  0  0  0  0  0  0  0
   59.9714   27.3229   47.7620 C   0  0  0  0  0  0  0  0  0  0  0  0
   58.9448   26.8407   45.4907 N   0  0  0  0  0  0  0  0  0  0  0  0
   55.6832   23.7627   45.8883 C   0  0  0  0  0  0  0  0  0  0  0  0
   54.9318   22.6727   45.6437 N   0  0  0  0  0  0  0  0  0  0  0  0
   53.6786   23.1707   45.5654 C   0  0  0  0  0  0  0  0  0  0  0  0
   52.6717   22.4439   45.3572 O   0  0  0  0  0  0  0  0  0  0  0  0
   53.5885   24.5094   45.7159 N   0  0  0  0  0  0  0  0  0  0  0  0
   54.8696   24.8689   45.9047 C   0  0  0  0  0  0  0  0  0  0  0  0
   55.2865   26.1815   46.0846 O   0  0  0  0  0  0  0  0  0  0  0  0
   59.4399   28.0613   44.8276 C   0  0  0  0  0  0  0  0  0  0  0  0
   58.4032   29.1596   44.8487 C   0  0  0  0  0  0  0  0  0  0  0  0
   57.2615   28.9725   44.1333 N   0  0  0  0  0  0  0  0  0  0  0  0
   56.2928   29.9179   44.0795 C   0  0  0  0  0  0  0  0  0  0  0  0
   56.4510   31.0887   44.7406 N   0  0  0  0  0  0  0  0  0  0  0  0
   57.5660   31.3380   45.4804 C   0  0  0  0  0  0  0  0  0  0  0  0
   58.5742   30.3607   45.5775 C   0  0  0  0  0  0  0  0  0  0  0  0
   59.8195   30.6316   46.3857 C   0  0  0  0  0  0  0  0  0  0  0  0
   57.7085   32.5639   46.1420 O   0  0  0  0  0  0  0  0  0  0  0  0
   57.5829   33.8173   45.4798 C   0  0  0  0  0  0  0  0  0  0  0  0
  1  2  2  0
  2  3  1  0
  3  4  2  0
  4  9  1  0
  9 10  1  0
 10 11  1  0
 11 12  2  0
 11 13  1  0
 13 14  1  0
 14 15  1  0
  3  5  1  0
  5  6  2  0
  6  7  1  0
  6  8  1  0
  8 16  1  0
 16 17  1  0
 17 18  2  0
 18 19  1  0
 19 20  2  0
 20 21  1  0
 21 24  1  0
 24 25  1  0
 21 22  2  0
 22 23  1  0
  8  2  1  0
 22 17  1  0
 14  9  2  0
M  CHG 1  10  -1
M  CHG 1  13  -1
M  CHG 1  15  -1
M  END
> <UniqueID>
42

> <SMILES>
C=c1/c(=C\c2[n-]c(=O)[n-]c2[O-])cc(C)n1Cc1ncnc(OC)c1C

> <Energy>
112.34681091731885

> <Genealogy>
C=c1c(=Cc2[n-]c(=O)[n-]c2[O-])cc(C)n1Cc1ncnc(OC)c1C (protonated)
C=c1/c(=C\c2[n-]c(=O)[n-]c2[O-])cc(C)n1Cc1ncnc(OC)c1C (cis-trans isomerization)
C=c1/c(=C\c2[n-]c(=O)[n-]c2[O-])cc(C)n1Cc1ncnc(OC)c1C (3D coordinates assigned)
C=c1/c(=C\c2[n-]c(=O)[n-]c2[O-])cc(C)n1Cc1ncnc(OC)c1C (optimized conformer: 112.34681091731885 kcal/mol)

> <smiles>
C=c1c(=Cc2[nH]c(=O)[nH]c2O)cc(C)n1Cc1ncnc(OC)c1C

> <score_type>
oracle

> <origin>
adg

> <m_score__min__energy>
-15.24

> <m_primary>
energy

> <minimizedAffinity>
-6.61111

> <minimizedRMSD>
0.81390

> <CNNscore>
0.1287378520

> <CNNaffinity>
5.7678050995

> <CNN_VS>
0.7425348163

> <CNNaffinity_variance>
0.1757968664

$$$$
53:0


 32 34  0  0  0  0  0  0  0  0999 V2000
   59.5026   31.8416   47.7754 C   0  0  0  0  0  0  0  0  0  0  0  0
   59.2000   33.2115   47.8013 C   0  0  0  0  0  0  0  0  0  0  0  0
   58.5424   33.8102   46.7243 C   0  0  0  0  0  0  0  0  0  0  0  0
   58.1798   33.0511   45.6066 C   0  0  0  0  0  0  0  0  0  0  0  0
   57.5897   33.6884   44.5225 O   0  0  0  0  0  0  0  0  0  0  0  0
   58.4517   31.6687   45.5801 C   0  0  0  0  0  0  0  0  0  0  0  0
   59.1437   31.0830   46.6478 C   0  0  0  0  0  0  0  0  0  0  0  0
   57.7699   29.5743   52.9998 C   0  0  0  0  0  0  0  0  0  0  0  0
   58.9737   30.4109   52.8577 N   0  0  0  0  0  0  0  0  0  0  0  0
   58.6908   31.7016   52.1926 C   0  0  0  0  0  0  0  0  0  0  0  0
   58.4546   31.5496   50.6832 C   0  0  0  0  0  0  0  0  0  0  0  0
   59.5397   30.7658   50.0875 N   0  0  0  0  0  0  0  0  0  0  0  0
   60.2286   31.2165   48.9054 C   0  0  0  0  0  0  0  0  0  0  0  0
   61.4799   31.0744   48.8310 O   0  0  0  0  0  0  0  0  0  0  0  0
   59.8917   29.4909   50.7141 C   0  0  0  0  0  0  0  0  0  0  0  0
   60.0953   29.6892   52.2214 C   0  0  0  0  0  0  0  0  0  0  0  0
   58.1250   30.8488   44.4513 N   0  0  0  0  0  0  0  0  0  0  0  0
   57.2722   29.6977   44.4620 C   0  0  0  0  0  0  0  0  0  0  0  0
   56.2895   29.6485   45.2492 O   0  0  0  0  0  0  0  0  0  0  0  0
   57.5907   28.5126   43.6422 C   0  0  0  0  0  0  0  0  0  0  0  0
   58.2892   27.4477   44.0673 C   0  0  0  0  0  0  0  0  0  0  0  0
   58.9242   27.3420   45.3976 C   0  0  0  0  0  0  0  0  0  0  0  0
   60.0759   28.1025   45.6696 C   0  0  0  0  0  0  0  0  0  0  0  0
   60.7013   28.0209   46.9139 C   0  0  0  0  0  0  0  0  0  0  0  0
   60.1945   27.1680   47.8955 C   0  0  0  0  0  0  0  0  0  0  0  0
   59.0627   26.3935   47.6346 C   0  0  0  0  0  0  0  0  0  0  0  0
   58.4214   26.4646   46.3871 C   0  0  0  0  0  0  0  0  0  0  0  0
   56.9683   25.4951   46.0972 S   0  0  0  0  0  0  0  0  0  0  0  0
   55.5657   26.5007   45.9797 N   0  0  0  0  0  0  0  0  0  0  0  0
   56.7782   24.5241   47.2301 O   0  0  0  0  0  0  0  0  0  0  0  0
   57.1234   24.7392   44.8075 O   0  0  0  0  0  0  0  0  0  0  0  0
   55.4467   27.0211   46.8488 H   0  0  0  0  0  0  0  0  0  0  0  0
  8  9  1  0
  9 10  1  0
 10 11  1  0
 11 12  1  0
 12 13  1  0
 13 14  2  0
 13  1  1  0
  1  2  2  0
  2  3  1  0
  3  4  2  0
  4  5  1  0
  4  6  1  0
  6 17  1  0
 17 18  1  0
 18 19  2  0
 18 20  1  0
 20 21  2  0
 21 22  1  0
 22 23  2  0
 23 24  1  0
 24 25  2  0
 25 26  1  0
 26 27  2  0
 27 28  1  0
 28 29  1  0
 28 30  2  0
 28 31  2  0
  6  7  2  0
 12 15  1  0
 15 16  1  0
 16  9  1  0
  7  1  1  0
 27 22  1  0
 29 32  1  0
M  CHG 1   5  -1
M  CHG 1  17  -1
M  CHG 1  29  -1
M  END
> <UniqueID>
50

> <SMILES>
CN1CCN(C(=O)c2ccc([O-])c([N-]C(=O)C=Cc3ccccc3S([NH-])(=O)=O)c2)CC1

> <Energy>
74.42744281014328

> <Genealogy>
CN1CCN(C(=O)c2ccc([O-])c([N-]C(=O)C=Cc3ccccc3S([NH-])(=O)=O)c2)CC1 (protonated)
CN1CCN(C(=O)c2ccc([O-])c([N-]C(=O)C=Cc3ccccc3S([NH-])(=O)=O)c2)CC1 (3D coordinates assigned)
CN1CCN(C(=O)c2ccc([O-])c([N-]C(=O)C=Cc3ccccc3S([NH-])(=O)=O)c2)CC1 (nonaromatic ring conformer: 74.42744281014328 kcal/mol)

> <smiles>
CN1CCN(C(=O)c2ccc(O)c(NC(=O)C=Cc3ccccc3S(N)(=O)=O)c2)CC1

> <score_type>
oracle

> <origin>
adg

> <m_score__min__energy>
-15.300000000000001

> <m_primary>
energy

> <minimizedAffinity>
-7.89651

> <minimizedRMSD>
2.82792

> <CNNscore>
0.7481755018

> <CNNaffinity>
7.1932873726

> <CNN_VS>
5.3818411827

> <CNNaffinity_variance>
0.0355709083

$$$$
54:0


 29 32  0  0  0  0  0  0  0  0999 V2000
   59.5910   28.7986   47.8151 C   0  0  0  0  0  0  0  0  0  0  0  0
   59.2297   28.9209   46.5294 C   0  0  0  0  0  0  0  0  0  0  0  0
   58.9116   27.8872   45.6345 C   0  0  0  0  0  0  0  0  0  0  0  0
   59.0843   26.5539   45.7273 C   0  0  0  0  0  0  0  0  0  0  0  0
   58.3558   28.4951   44.5208 C   0  0  0  0  0  0  0  0  0  0  0  0
   58.4234   29.8556   44.7325 C   0  0  0  0  0  0  0  0  0  0  0  0
   57.9476   30.8936   43.7597 C   0  0  0  0  0  0  0  0  0  0  0  0
   58.9480   30.1171   45.9508 N   0  0  0  0  0  0  0  0  0  0  0  0
   59.1348   31.4219   46.5243 C   0  0  0  0  0  0  0  0  0  0  0  0
   60.2742   31.6928   47.2890 C   0  0  0  0  0  0  0  0  0  0  0  0
   60.4519   32.9674   47.8509 C   0  0  0  0  0  0  0  0  0  0  0  0
   59.5074   33.9313   47.6367 N   0  0  0  0  0  0  0  0  0  0  0  0
   58.3902   33.6871   46.9002 C   0  0  0  0  0  0  0  0  0  0  0  0
   58.1806   32.4293   46.3322 C   0  0  0  0  0  0  0  0  0  0  0  0
   57.0513   32.1881   45.6215 F   0  0  0  0  0  0  0  0  0  0  0  0
   59.6390   34.8261   48.0256 H   0  0  0  0  0  0  0  0  0  0  0  0
   61.6168   33.2633   48.6442 N   0  0  0  0  0  0  0  0  0  0  0  0
   61.4771   33.8112   49.9964 C   0  0  0  0  0  0  0  0  0  0  0  0
   62.6888   33.4105   50.8415 C   0  0  0  0  0  0  0  0  0  0  0  0
   63.8956   33.7582   50.1882 O   0  0  0  0  0  0  0  0  0  0  0  0
   64.0281   33.0078   48.9957 C   0  0  0  0  0  0  0  0  0  0  0  0
   62.9276   33.3765   47.9970 C   0  0  0  0  0  0  0  0  0  0  0  0
   58.0697   25.5871   46.1742 C   0  0  0  0  0  0  0  0  0  0  0  0
   58.3080   24.2879   46.4340 N   0  0  0  0  0  0  0  0  0  0  0  0
   57.0754   23.7853   46.6650 C   0  0  0  0  0  0  0  0  0  0  0  0
   56.8801   22.5784   46.9626 O   0  0  0  0  0  0  0  0  0  0  0  0
   56.0676   24.6744   46.5394 N   0  0  0  0  0  0  0  0  0  0  0  0
   56.7134   25.8060   46.2148 C   0  0  0  0  0  0  0  0  0  0  0  0
   56.0770   27.0136   45.9544 O   0  0  0  0  0  0  0  0  0  0  0  0
  1  2  2  0
  2  3  1  0
  3  4  2  0
  4 23  1  0
 23 24  1  0
 24 25  1  0
 25 26  2  0
 25 27  1  0
 27 28  1  0
 28 29  1  0
  3  5  1  0
  5  6  2  0
  6  7  1  0
  6  8  1  0
  8  9  1  0
  9 10  2  0
 10 11  1  0
 11 17  1  0
 17 18  1  0
 18 19  1  0
 19 20  1  0
 20 21  1  0
 21 22  1  0
 11 12  2  0
 12 13  1  0
 13 14  2  0
 14 15  1  0
  8  2  1  0
 14  9  1  0
 28 23  2  0
 22 17  1  0
 12 16  1  0
M  CHG 1  12   1
M  CHG 1  24  -1
M  CHG 1  27  -1
M  CHG 1  29  -1
M  END
> <UniqueID>
51

> <SMILES>
C=c1c(=Cc2[n-]c(=O)[n-]c2[O-])cc(C)n1-c1cc(N2CCOCC2)[nH+]cc1F

> <Energy>
129.12343717660553

> <Genealogy>
C=c1c(=Cc2[n-]c(=O)[n-]c2[O-])cc(C)n1-c1cc(N2CCOCC2)[nH+]cc1F (protonated)
C=c1c(=Cc2[n-]c(=O)[n-]c2[O-])cc(C)n1-c1cc(N2CCOCC2)[nH+]cc1F (3D coordinates assigned)
C=c1c(=Cc2[n-]c(=O)[n-]c2[O-])cc(C)n1-c1cc(N2CCOCC2)[nH+]cc1F (nonaromatic ring conformer: 129.12343717660553 kcal/mol)

> <smiles>
C=c1c(=Cc2[nH]c(=O)[nH]c2O)cc(C)n1-c1cc(N2CCOCC2)ncc1F

> <score_type>
oracle

> <origin>
adg

> <m_score__min__energy>
-14.550000000000001

> <m_primary>
energy

> <minimizedAffinity>
-8.09145

> <minimizedRMSD>
1.27135

> <CNNscore>
0.3991331458

> <CNNaffinity>
7.4903512001

> <CNN_VS>
2.9896473885

> <CNNaffinity_variance>
0.3465621769

$$$$
58:0


 29 31  0  0  0  0  0  0  0  0999 V2000
   58.1313   27.0333   43.4119 C   0  0  0  0  0  0  0  0  0  0  0  0
   58.3190   27.1874   44.7340 C   0  0  0  0  0  0  0  0  0  0  0  0
   58.2672   26.1881   45.7248 C   0  0  0  0  0  0  0  0  0  0  0  0
   58.1131   24.8506   45.6367 C   0  0  0  0  0  0  0  0  0  0  0  0
   58.4436   26.8354   46.9361 C   0  0  0  0  0  0  0  0  0  0  0  0
   58.6317   28.1707   46.6561 C   0  0  0  0  0  0  0  0  0  0  0  0
   58.9294   29.2192   47.6856 C   0  0  0  0  0  0  0  0  0  0  0  0
   58.5426   28.3943   45.3232 N   0  0  0  0  0  0  0  0  0  0  0  0
   56.8246   24.1350   45.6602 C   0  0  0  0  0  0  0  0  0  0  0  0
   55.6248   24.8130   45.9276 C   0  0  0  0  0  0  0  0  0  0  0  0
   55.6243   26.1843   46.1696 O   0  0  0  0  0  0  0  0  0  0  0  0
   54.4521   24.1270   45.9568 N   0  0  0  0  0  0  0  0  0  0  0  0
   54.4152   22.7888   45.7183 C   0  0  0  0  0  0  0  0  0  0  0  0
   53.3188   22.1685   45.7675 O   0  0  0  0  0  0  0  0  0  0  0  0
   55.5598   22.1160   45.4307 N   0  0  0  0  0  0  0  0  0  0  0  0
   56.7577   22.7583   45.3861 C   0  0  0  0  0  0  0  0  0  0  0  0
   57.8007   22.1079   45.1098 O   0  0  0  0  0  0  0  0  0  0  0  0
   58.7533   29.6935   44.6668 C   0  0  0  0  0  0  0  0  0  0  0  0
   57.4391   30.3726   44.4444 C   0  0  0  0  0  0  0  0  0  0  0  0
   56.6425   29.9271   43.5745 O   0  0  0  0  0  0  0  0  0  0  0  0
   57.0955   31.5259   45.2225 N   0  0  0  0  0  0  0  0  0  0  0  0
   57.6429   32.8526   44.9656 C   0  0  0  0  0  0  0  0  0  0  0  0
   58.5960   33.2312   46.0649 C   0  0  0  0  0  0  0  0  0  0  0  0
   58.4479   32.6957   47.3557 C   0  0  0  0  0  0  0  0  0  0  0  0
   59.3098   33.0872   48.3861 C   0  0  0  0  0  0  0  0  0  0  0  0
   60.3173   34.0248   48.1387 C   0  0  0  0  0  0  0  0  0  0  0  0
   61.1468   34.4123   49.1369 F   0  0  0  0  0  0  0  0  0  0  0  0
   60.4664   34.5695   46.8580 C   0  0  0  0  0  0  0  0  0  0  0  0
   59.6022   34.1828   45.8269 C   0  0  0  0  0  0  0  0  0  0  0  0
  1  2  2  0
  2  3  1  0
  3  4  2  0
  4  9  1  0
  9 10  2  0
 10 11  1  0
 10 12  1  0
 12 13  1  0
 13 14  2  0
 13 15  1  0
 15 16  1  0
 16 17  2  0
  3  5  1  0
  5  6  2  0
  6  7  1  0
  6  8  1  0
  8 18  1  0
 18 19  1  0
 19 20  2  0
 19 21  1  0
 21 22  1  0
 22 23  1  0
 23 24  2  0
 24 25  1  0
 25 26  2  0
 26 27  1  0
 26 28  1  0
 28 29  2  0
  8  2  1  0
 29 23  1  0
 16  9  1  0
M  CHG 1  11  -1
M  CHG 1  12  -1
M  CHG 1  15  -1
M  CHG 1  21  -1
M  END
> <UniqueID>
55

> <SMILES>
C=c1c(=Cc2c([O-])[n-]c(=O)[n-]c2=O)cc(C)n1CC(=O)[N-]Cc1ccc(F)cc1

> <Energy>
85.14543830726615

> <Genealogy>
C=c1c(=Cc2c([O-])[n-]c(=O)[n-]c2=O)cc(C)n1CC(=O)[N-]Cc1ccc(F)cc1 (protonated)
C=c1c(=Cc2c([O-])[n-]c(=O)[n-]c2=O)cc(C)n1CC(=O)[N-]Cc1ccc(F)cc1 (3D coordinates assigned)
C=c1c(=Cc2c([O-])[n-]c(=O)[n-]c2=O)cc(C)n1CC(=O)[N-]Cc1ccc(F)cc1 (optimized conformer: 85.14543830726615 kcal/mol)

> <smiles>
C=c1c(=Cc2c(O)[nH]c(=O)[nH]c2=O)cc(C)n1CC(=O)NCc1ccc(F)cc1

> <score_type>
oracle

> <origin>
adg

> <m_score__min__energy>
-17.460000000000001

> <m_primary>
energy

> <minimizedAffinity>
-9.02831

> <minimizedRMSD>
0.83364

> <CNNscore>
0.3889326751

> <CNNaffinity>
6.7711987495

> <CNN_VS>
2.6335403919

> <CNNaffinity_variance>
0.0072162948

$$$$
8:0


 25 27  0  0  0  0  0  0  0  0999 V2000
   59.7975   30.3549   47.7398 C   0  0  0  0  0  0  0  0  0  0  0  0
   59.2556   31.0122   46.7000 C   0  0  0  0  0  0  0  0  0  0  0  0
   58.8293   30.4503   45.4836 C   0  0  0  0  0  0  0  0  0  0  0  0
   58.9710   29.2092   44.9784 C   0  0  0  0  0  0  0  0  0  0  0  0
   58.2069   31.4676   44.7831 C   0  0  0  0  0  0  0  0  0  0  0  0
   58.3150   32.6074   45.5486 C   0  0  0  0  0  0  0  0  0  0  0  0
   57.8279   33.9586   45.1216 C   0  0  0  0  0  0  0  0  0  0  0  0
   58.9522   32.3416   46.7135 N   0  0  0  0  0  0  0  0  0  0  0  0
   58.5344   27.9575   45.6290 C   0  0  0  0  0  0  0  0  0  0  0  0
   57.1789   27.5989   45.6318 C   0  0  0  0  0  0  0  0  0  0  0  0
   56.2223   28.4380   45.0718 O   0  0  0  0  0  0  0  0  0  0  0  0
   56.7894   26.4253   46.1955 N   0  0  0  0  0  0  0  0  0  0  0  0
   57.6953   25.5772   46.7458 C   0  0  0  0  0  0  0  0  0  0  0  0
   57.3106   24.4986   47.2656 O   0  0  0  0  0  0  0  0  0  0  0  0
   59.0166   25.8891   46.7302 N   0  0  0  0  0  0  0  0  0  0  0  0
   59.4571   27.0496   46.1782 C   0  0  0  0  0  0  0  0  0  0  0  0
   60.6930   27.2968   46.1606 O   0  0  0  0  0  0  0  0  0  0  0  0
   59.2618   33.3430   47.7496 C   0  0  0  0  0  0  0  0  0  0  0  0
   60.7561   33.4413   47.9688 C   0  0  0  0  0  0  0  0  0  0  0  0
   61.6026   33.5033   46.8461 C   0  0  0  0  0  0  0  0  0  0  0  0
   62.9876   33.5978   47.0031 C   0  0  0  0  0  0  0  0  0  0  0  0
   63.5468   33.6230   48.2789 C   0  0  0  0  0  0  0  0  0  0  0  0
   62.7247   33.5482   49.4044 C   0  0  0  0  0  0  0  0  0  0  0  0
   61.3335   33.4522   49.2620 C   0  0  0  0  0  0  0  0  0  0  0  0
   60.3703   33.3399   50.7323 Cl  0  0  0  0  0  0  0  0  0  0  0  0
  1  2  2  0
  2  3  1  0
  3  4  2  0
  4  9  1  0
  9 10  2  0
 10 11  1  0
 10 12  1  0
 12 13  1  0
 13 14  2  0
 13 15  1  0
 15 16  1  0
 16 17  2  0
  3  5  1  0
  5  6  2  0
  6  7  1  0
  6  8  1  0
  8 18  1  0
 18 19  1  0
 19 20  2  0
 20 21  1  0
 21 22  2  0
 22 23  1  0
 23 24  2  0
 24 25  1  0
  8  2  1  0
 24 19  1  0
 16  9  1  0
M  CHG 1  11  -1
M  CHG 1  12  -1
M  CHG 1  15  -1
M  END
> <UniqueID>
9

> <SMILES>
C=c1/c(=C\c2c([O-])[n-]c(=O)[n-]c2=O)cc(C)n1Cc1ccccc1Cl

> <Energy>
85.54818388734735

> <Genealogy>
C=c1c(=Cc2c([O-])[n-]c(=O)[n-]c2=O)cc(C)n1Cc1ccccc1Cl (protonated)
C=c1/c(=C\c2c([O-])[n-]c(=O)[n-]c2=O)cc(C)n1Cc1ccccc1Cl (cis-trans isomerization)
C=c1/c(=C\c2c([O-])[n-]c(=O)[n-]c2=O)cc(C)n1Cc1ccccc1Cl (3D coordinates assigned)
C=c1/c(=C\c2c([O-])[n-]c(=O)[n-]c2=O)cc(C)n1Cc1ccccc1Cl (optimized conformer: 85.54818388734735 kcal/mol)

> <smiles>
C=c1c(=Cc2c(O)[nH]c(=O)[nH]c2=O)cc(C)n1Cc1ccccc1Cl

> <score_type>
oracle

> <origin>
adg

> <m_score__min__energy>
-16.039999999999999

> <m_primary>
energy

> <minimizedAffinity>
-8.28294

> <minimizedRMSD>
1.10787

> <CNNscore>
0.8042824268

> <CNNaffinity>
7.1779136658

> <CNN_VS>
5.7730698586

> <CNNaffinity_variance>
0.2066779137

$$$$
11:0


 26 28  0  0  0  0  0  0  0  0999 V2000
   59.2056   32.0336   46.8074 N   0  0  0  0  0  0  0  0  0  0  0  0
   58.5749   32.3451   45.6499 C   0  0  0  0  0  0  0  0  0  0  0  0
   58.0337   33.6995   45.2970 C   0  0  0  0  0  0  0  0  0  0  0  0
   58.4342   31.2269   44.8574 C   0  0  0  0  0  0  0  0  0  0  0  0
   59.0308   30.1786   45.5303 C   0  0  0  0  0  0  0  0  0  0  0  0
   59.1249   28.9409   45.0004 C   0  0  0  0  0  0  0  0  0  0  0  0
   59.4702   30.6970   46.7616 C   0  0  0  0  0  0  0  0  0  0  0  0
   59.9771   29.9979   47.7917 C   0  0  0  0  0  0  0  0  0  0  0  0
   58.5695   27.7056   45.5874 C   0  0  0  0  0  0  0  0  0  0  0  0
   57.1844   27.4766   45.6278 C   0  0  0  0  0  0  0  0  0  0  0  0
   56.2957   28.3947   45.0790 O   0  0  0  0  0  0  0  0  0  0  0  0
   56.7002   26.3502   46.2116 N   0  0  0  0  0  0  0  0  0  0  0  0
   57.5348   25.4414   46.7781 C   0  0  0  0  0  0  0  0  0  0  0  0
   57.0642   24.4027   47.3105 O   0  0  0  0  0  0  0  0  0  0  0  0
   58.8753   25.6552   46.7774 N   0  0  0  0  0  0  0  0  0  0  0  0
   59.4088   26.7654   46.2050 C   0  0  0  0  0  0  0  0  0  0  0  0
   60.6570   26.9351   46.2278 O   0  0  0  0  0  0  0  0  0  0  0  0
   59.4644   32.9788   47.9076 C   0  0  0  0  0  0  0  0  0  0  0  0
   65.0073   32.9864   49.2881 O   0  0  0  0  0  0  0  0  0  0  0  0
   63.6533   32.9870   48.9615 C   0  0  0  0  0  0  0  0  0  0  0  0
   62.6798   32.7978   49.9503 C   0  0  0  0  0  0  0  0  0  0  0  0
   61.3232   32.7990   49.6113 C   0  0  0  0  0  0  0  0  0  0  0  0
   60.9261   32.9860   48.2753 C   0  0  0  0  0  0  0  0  0  0  0  0
   61.9082   33.1800   47.2902 C   0  0  0  0  0  0  0  0  0  0  0  0
   63.2633   33.1793   47.6332 C   0  0  0  0  0  0  0  0  0  0  0  0
   65.2748   32.8580   50.1769 H   0  0  0  0  0  0  0  0  0  0  0  0
 19 20  1  0
 20 21  2  0
 21 22  1  0
 22 23  2  0
 23 18  1  0
 18  1  1  0
  1  2  1  0
  2  3  1  0
  2  4  2  0
  4  5  1  0
  5  6  2  0
  6  9  1  0
  9 10  2  0
 10 11  1  0
 10 12  1  0
 12 13  1  0
 13 14  2  0
 13 15  1  0
 15 16  1  0
 16 17  2  0
  5  7  1  0
  7  8  2  0
 23 24  1  0
 24 25  2  0
 25 20  1  0
  7  1  1  0
 16  9  1  0
 19 26  1  0
M  CHG 1  11  -1
M  CHG 1  12  -1
M  CHG 1  15  -1
M  END
> <UniqueID>
12

> <SMILES>
C=c1/c(=C\c2c([O-])[n-]c(=O)[n-]c2=O)cc(C)n1Cc1ccc(O)cc1

> <Energy>
84.07093971728195

> <Genealogy>
C=c1c(=Cc2c([O-])[n-]c(=O)[n-]c2=O)cc(C)n1Cc1ccc(O)cc1 (protonated)
C=c1/c(=C\c2c([O-])[n-]c(=O)[n-]c2=O)cc(C)n1Cc1ccc(O)cc1 (cis-trans isomerization)
C=c1/c(=C\c2c([O-])[n-]c(=O)[n-]c2=O)cc(C)n1Cc1ccc(O)cc1 (3D coordinates assigned)
C=c1/c(=C\c2c([O-])[n-]c(=O)[n-]c2=O)cc(C)n1Cc1ccc(O)cc1 (optimized conformer: 84.07093971728195 kcal/mol)

> <smiles>
C=c1c(=Cc2c(O)[nH]c(=O)[nH]c2=O)cc(C)n1Cc1ccc(O)cc1

> <score_type>
oracle

> <origin>
adg

> <m_score__min__energy>
-15.67

> <m_primary>
energy

> <minimizedAffinity>
-8.04230

> <minimizedRMSD>
1.28607

> <CNNscore>
0.5807286501

> <CNNaffinity>
6.8486227989

> <CNN_VS>
3.9771914482

> <CNNaffinity_variance>
0.2461919338

$$$$
27:0


 27 29  0  0  0  0  0  0  0  0999 V2000
   59.2520   29.9489   47.7331 C   0  0  0  0  0  0  0  0  0  0  0  0
   58.8639   30.7474   46.7239 C   0  0  0  0  0  0  0  0  0  0  0  0
   58.6945   30.3756   45.3778 C   0  0  0  0  0  0  0  0  0  0  0  0
   58.7146   29.1682   44.7791 C   0  0  0  0  0  0  0  0  0  0  0  0
   58.4332   31.5424   44.6837 C   0  0  0  0  0  0  0  0  0  0  0  0
   58.3945   32.5610   45.6089 C   0  0  0  0  0  0  0  0  0  0  0  0
   58.0773   33.9903   45.2831 C   0  0  0  0  0  0  0  0  0  0  0  0
   58.6567   32.0890   46.8503 N   0  0  0  0  0  0  0  0  0  0  0  0
   58.3023   27.8934   45.3992 C   0  0  0  0  0  0  0  0  0  0  0  0
   56.9414   27.5889   45.5502 C   0  0  0  0  0  0  0  0  0  0  0  0
   55.9686   28.4614   45.0722 O   0  0  0  0  0  0  0  0  0  0  0  0
   56.5664   26.4319   46.1596 N   0  0  0  0  0  0  0  0  0  0  0  0
   57.4973   25.5656   46.6444 C   0  0  0  0  0  0  0  0  0  0  0  0
   57.1350   24.4961   47.2024 O   0  0  0  0  0  0  0  0  0  0  0  0
   58.8184   25.8527   46.5329 N   0  0  0  0  0  0  0  0  0  0  0  0
   59.2425   26.9946   45.9332 C   0  0  0  0  0  0  0  0  0  0  0  0
   60.4761   27.2382   45.8690 O   0  0  0  0  0  0  0  0  0  0  0  0
   55.6096   26.2187   46.2511 H   0  0  0  0  0  0  0  0  0  0  0  0
   58.6679   32.9089   48.0751 C   0  0  0  0  0  0  0  0  0  0  0  0
   60.0887   33.1624   48.5454 C   0  0  0  0  0  0  0  0  0  0  0  0
   61.1108   33.2479   47.5812 C   0  0  0  0  0  0  0  0  0  0  0  0
   62.4420   33.4673   47.9572 C   0  0  0  0  0  0  0  0  0  0  0  0
   63.5132   33.5763   46.9120 C   0  0  0  0  0  0  0  0  0  0  0  0
   62.7543   33.6548   49.3081 C   0  0  0  0  0  0  0  0  0  0  0  0
   61.7503   33.6021   50.2755 C   0  0  0  0  0  0  0  0  0  0  0  0
   60.4133   33.3668   49.9139 C   0  0  0  0  0  0  0  0  0  0  0  0
   59.3651   33.3465   50.9961 C   0  0  0  0  0  0  0  0  0  0  0  0
  1  2  2  0
  2  3  1  0
  3  4  2  0
  4  9  1  0
  9 10  2  0
 10 11  1  0
 10 12  1  0
 12 13  1  0
 13 14  2  0
 13 15  1  0
 15 16  1  0
 16 17  2  0
  3  5  1  0
  5  6  2  0
  6  7  1  0
  6  8  1  0
  8 19  1  0
 19 20  1  0
 20 21  2  0
 21 22  1  0
 22 23  1  0
 22 24  2  0
 24 25  1  0
 25 26  2  0
 26 27  1  0
  8  2  1  0
 26 20  1  0
 16  9  1  0
 12 18  1  0
M  CHG 1  11  -1
M  CHG 1  15  -1
M  END
> <UniqueID>
27

> <SMILES>
C=c1c(=Cc2c([O-])[nH]c(=O)[n-]c2=O)cc(C)n1Cc1cc(C)ccc1C

> <Energy>
90.472436953522

> <Genealogy>
C=c1c(=Cc2c([O-])[nH]c(=O)[n-]c2=O)cc(C)n1Cc1cc(C)ccc1C (protonated)
C=c1c(=Cc2c([O-])[nH]c(=O)[n-]c2=O)cc(C)n1Cc1cc(C)ccc1C (3D coordinates assigned)
C=c1c(=Cc2c([O-])[nH]c(=O)[n-]c2=O)cc(C)n1Cc1cc(C)ccc1C (optimized conformer: 90.472436953522 kcal/mol)

> <smiles>
C=c1c(=Cc2c(O)[nH]c(=O)[nH]c2=O)cc(C)n1Cc1cc(C)ccc1C

> <score_type>
oracle

> <origin>
adg

> <m_score__min__energy>
-14.300000000000001

> <m_primary>
energy

> <minimizedAffinity>
-8.00751

> <minimizedRMSD>
0.90165

> <CNNscore>
0.6464791894

> <CNNaffinity>
7.0197587013

> <CNN_VS>
4.5381278992

> <CNNaffinity_variance>
0.1109534502

$$$$
28:0


 25 27  0  0  0  0  0  0  0  0999 V2000
   59.6794   29.0649   47.6517 C   0  0  0  0  0  0  0  0  0  0  0  0
   60.0459   29.3837   48.9698 C   0  0  0  0  0  0  0  0  0  0  0  0
   60.5476   28.4001   49.8227 C   0  0  0  0  0  0  0  0  0  0  0  0
   60.6830   27.0867   49.3742 C   0  0  0  0  0  0  0  0  0  0  0  0
   60.3118   26.7509   48.0711 C   0  0  0  0  0  0  0  0  0  0  0  0
   59.8058   27.7277   47.1932 C   0  0  0  0  0  0  0  0  0  0  0  0
   59.1203   32.4637   46.0735 C   0  0  0  0  0  0  0  0  0  0  0  0
   58.1208   32.1608   45.1383 C   0  0  0  0  0  0  0  0  0  0  0  0
   57.6285   30.8578   45.0335 C   0  0  0  0  0  0  0  0  0  0  0  0
   58.1327   29.8501   45.8597 C   0  0  0  0  0  0  0  0  0  0  0  0
   59.1397   30.1396   46.7926 C   0  0  0  0  0  0  0  0  0  0  0  0
   59.6181   31.4536   46.9082 C   0  0  0  0  0  0  0  0  0  0  0  0
   59.1950   34.7940   47.7096 N   0  0  0  0  0  0  0  0  0  0  0  0
   59.7310   34.1080   46.2172 S   0  0  0  0  0  0  0  0  0  0  0  0
   59.2266   34.9414   45.0723 O   0  0  0  0  0  0  0  0  0  0  0  0
   61.2325   34.0974   46.1809 O   0  0  0  0  0  0  0  0  0  0  0  0
   59.5492   35.7469   47.7924 H   0  0  0  0  0  0  0  0  0  0  0  0
   59.3678   27.3067   45.8059 C   0  0  0  0  0  0  0  0  0  0  0  0
   58.5889   26.0263   45.8473 C   0  0  0  0  0  0  0  0  0  0  0  0
   59.1440   24.8032   45.7800 N   0  0  0  0  0  0  0  0  0  0  0  0
   58.0767   23.9757   45.8248 C   0  0  0  0  0  0  0  0  0  0  0  0
   58.1886   22.7236   45.7808 O   0  0  0  0  0  0  0  0  0  0  0  0
   56.8808   24.5956   45.9171 N   0  0  0  0  0  0  0  0  0  0  0  0
   57.2241   25.8945   45.9309 C   0  0  0  0  0  0  0  0  0  0  0  0
   56.3086   26.9364   46.0134 O   0  0  0  0  0  0  0  0  0  0  0  0
 13 14  1  0
 14 15  2  0
 14 16  2  0
 14  7  1  0
  7  8  2  0
  8  9  1  0
  9 10  2  0
 10 11  1  0
 11  1  1  0
  1  2  2  0
  2  3  1  0
  3  4  2  0
  4  5  1  0
  5  6  2  0
  6 18  1  0
 18 19  1  0
 19 20  1  0
 20 21  1  0
 21 22  2  0
 21 23  1  0
 23 24  1  0
 24 25  1  0
 11 12  2  0
 12  7  1  0
  6  1  1  0
 24 19  2  0
 13 17  1  0
M  CHG 1  13  -1
M  CHG 1  20  -1
M  CHG 1  23  -1
M  CHG 1  25  -1
M  END
> <UniqueID>
28

> <SMILES>
[NH-]S(=O)(=O)c1cccc(-c2ccccc2Cc2[n-]c(=O)[n-]c2[O-])c1

> <Energy>
72.23602899201383

> <Genealogy>
[NH-]S(=O)(=O)c1cccc(-c2ccccc2Cc2[n-]c(=O)[n-]c2[O-])c1 (protonated)
[NH-]S(=O)(=O)c1cccc(-c2ccccc2Cc2[n-]c(=O)[n-]c2[O-])c1 (3D coordinates assigned)
[NH-]S(=O)(=O)c1cccc(-c2ccccc2Cc2[n-]c(=O)[n-]c2[O-])c1 (optimized conformer: 72.23602899201383 kcal/mol)

> <smiles>
NS(=O)(=O)c1cccc(-c2ccccc2Cc2[nH]c(=O)[nH]c2O)c1

> <score_type>
oracle

> <origin>
adg

> <m_score__min__energy>
-16.879999999999999

> <m_primary>
energy

> <minimizedAffinity>
-7.46325

> <minimizedRMSD>
1.38171

> <CNNscore>
0.3259421289

> <CNNaffinity>
6.1446280479

> <CNN_VS>
2.0027930737

> <CNNaffinity_variance>
0.1188519225

$$$$
33:0


 34 36  0  0  0  0  0  0  0  0999 V2000
   59.2339   33.0751   51.1819 N   0  0  0  0  0  0  0  0  0  0  0  0
   58.9113   33.9800   50.9665 H   0  0  0  0  0  0  0  0  0  0  0  0
   57.2953   31.1814   53.7760 C   0  0  0  0  0  0  0  0  0  0  0  0
   58.1517   31.2820   54.8806 C   0  0  0  0  0  0  0  0  0  0  0  0
   59.3609   31.9719   54.7680 C   0  0  0  0  0  0  0  0  0  0  0  0
   59.7256   32.5696   53.5568 C   0  0  0  0  0  0  0  0  0  0  0  0
   61.2858   33.3759   53.4546 Cl  0  0  0  0  0  0  0  0  0  0  0  0
   58.8634   32.4864   52.4413 C   0  0  0  0  0  0  0  0  0  0  0  0
   57.6358   31.8144   52.5773 C   0  0  0  0  0  0  0  0  0  0  0  0
   56.0525   30.4774   53.8669 N   0  0  0  0  0  0  0  0  0  0  0  0
   55.2690   30.0112   52.7641 C   0  0  0  0  0  0  0  0  0  0  0  0
   55.2547   28.7742   52.5164 O   0  0  0  0  0  0  0  0  0  0  0  0
   54.3475   30.9265   51.9910 C   0  0  0  0  0  0  0  0  0  0  0  0
   53.0319   30.2429   51.5975 C   0  0  0  0  0  0  0  0  0  0  0  0
   51.1344   30.7762   52.9540 O   0  0  0  0  0  0  0  0  0  0  0  0
   51.8437   31.0790   51.9577 C   0  0  0  0  0  0  0  0  0  0  0  0
   51.4964   32.1732   51.1741 O   0  0  0  0  0  0  0  0  0  0  0  0
   60.2302   32.2439   50.0296 S   0  0  0  0  0  0  0  0  0  0  0  0
   61.6792   32.5339   50.3125 O   0  0  0  0  0  0  0  0  0  0  0  0
   60.0013   30.7634   50.1508 O   0  0  0  0  0  0  0  0  0  0  0  0
   59.7939   32.7537   48.3998 C   0  0  0  0  0  0  0  0  0  0  0  0
   59.9632   34.0849   47.9959 C   0  0  0  0  0  0  0  0  0  0  0  0
   59.5568   34.4868   46.7223 C   0  0  0  0  0  0  0  0  0  0  0  0
   58.9884   33.5633   45.8402 C   0  0  0  0  0  0  0  0  0  0  0  0
   58.8290   32.2220   46.2250 C   0  0  0  0  0  0  0  0  0  0  0  0
   59.2224   31.8288   47.5176 C   0  0  0  0  0  0  0  0  0  0  0  0
   58.2306   31.2408   45.2911 C   0  0  0  0  0  0  0  0  0  0  0  0
   57.4723   31.6463   44.3665 O   0  0  0  0  0  0  0  0  0  0  0  0
   58.4876   29.8317   45.4298 N   0  0  0  0  0  0  0  0  0  0  0  0
   57.4377   28.8682   45.0904 C   0  0  0  0  0  0  0  0  0  0  0  0
   57.6735   27.5651   45.8579 C   0  0  0  0  0  0  0  0  0  0  0  0
   58.9900   27.0867   45.6494 O   0  0  0  0  0  0  0  0  0  0  0  0
   59.9277   28.0039   46.1871 C   0  0  0  0  0  0  0  0  0  0  0  0
   59.8691   29.3424   45.4437 C   0  0  0  0  0  0  0  0  0  0  0  0
 15 16  2  0
 16 17  1  0
 16 14  1  0
 14 13  1  0
 13 11  1  0
 11 12  2  0
 11 10  1  0
 10  3  1  0
  3  4  2  0
  4  5  1  0
  5  6  2  0
  6  7  1  0
  6  8  1  0
  8  1  1  0
  1 18  1  0
 18 19  2  0
 18 20  2  0
 18 21  1  0
 21 22  2  0
 22 23  1  0
 23 24  2  0
 24 25  1  0
 25 27  1  0
 27 28  2  0
 27 29  1  0
 29 30  1  0
 30 31  1  0
 31 32  1  0
 32 33  1  0
 33 34  1  0
 25 26  2  0
  8  9  2  0
  9  3  1  0
 26 21  1  0
 34 29  1  0
  1  2  1  0
M  CHG 1  10  -1
M  CHG 1  17  -1
M  END
> <UniqueID>
33

> <SMILES>
O=C([O-])CCC(=O)[N-]c1ccc(Cl)c(NS(=O)(=O)c2cccc(C(=O)N3CCOCC3)c2)c1

> <Energy>
65.6720754240741

> <Genealogy>
O=C([O-])CCC(=O)[N-]c1ccc(Cl)c(NS(=O)(=O)c2cccc(C(=O)N3CCOCC3)c2)c1 (protonated)
O=C([O-])CCC(=O)[N-]c1ccc(Cl)c(NS(=O)(=O)c2cccc(C(=O)N3CCOCC3)c2)c1 (3D coordinates assigned)
O=C([O-])CCC(=O)[N-]c1ccc(Cl)c(NS(=O)(=O)c2cccc(C(=O)N3CCOCC3)c2)c1 (nonaromatic ring conformer: 65.6720754240741 kcal/mol)

> <smiles>
O=C(O)CCC(=O)Nc1ccc(Cl)c(NS(=O)(=O)c2cccc(C(=O)N3CCOCC3)c2)c1

> <score_type>
oracle

> <origin>
adg

> <m_score__min__energy>
-14.85

> <m_primary>
energy

> <minimizedAffinity>
-7.59772

> <minimizedRMSD>
1.59402

> <CNNscore>
0.5014875531

> <CNNaffinity>
6.8663291931

> <CNN_VS>
3.4433786869

> <CNNaffinity_variance>
0.0602793880

$$$$
40:0


 31 34  0  0  0  0  0  0  0  0999 V2000
   58.6337   30.1094   45.8799 C   0  0  0  0  0  0  0  0  0  0  0  0
   59.1360   29.2719   46.7998 C   0  0  0  0  0  0  0  0  0  0  0  0
   59.2470   27.8821   46.6817 C   0  0  0  0  0  0  0  0  0  0  0  0
   58.9137   27.1252   45.6165 C   0  0  0  0  0  0  0  0  0  0  0  0
   59.8284   27.4364   47.8607 C   0  0  0  0  0  0  0  0  0  0  0  0
   60.0396   28.5526   48.6448 C   0  0  0  0  0  0  0  0  0  0  0  0
   60.6782   28.5269   50.0007 C   0  0  0  0  0  0  0  0  0  0  0  0
   59.6149   29.6692   48.0072 N   0  0  0  0  0  0  0  0  0  0  0  0
   58.2938   25.7890   45.7104 C   0  0  0  0  0  0  0  0  0  0  0  0
   58.9456   24.6138   45.6576 N   0  0  0  0  0  0  0  0  0  0  0  0
   57.9939   23.6876   45.8951 C   0  0  0  0  0  0  0  0  0  0  0  0
   58.2325   22.4531   45.9283 O   0  0  0  0  0  0  0  0  0  0  0  0
   56.7653   24.2028   46.1137 N   0  0  0  0  0  0  0  0  0  0  0  0
   56.9747   25.5295   46.0048 C   0  0  0  0  0  0  0  0  0  0  0  0
   55.9795   26.4831   46.1763 O   0  0  0  0  0  0  0  0  0  0  0  0
   59.9030   24.4632   45.4843 H   0  0  0  0  0  0  0  0  0  0  0  0
   59.7016   31.0475   48.5196 C   0  0  0  0  0  0  0  0  0  0  0  0
   60.9789   31.7438   48.0777 C   0  0  0  0  0  0  0  0  0  0  0  0
   62.0967   30.9782   47.6846 C   0  0  0  0  0  0  0  0  0  0  0  0
   63.2751   31.5943   47.2668 C   0  0  0  0  0  0  0  0  0  0  0  0
   63.3720   32.9840   47.2544 C   0  0  0  0  0  0  0  0  0  0  0  0
   62.2947   33.7621   47.6768 C   0  0  0  0  0  0  0  0  0  0  0  0
   61.0956   33.1610   48.0990 C   0  0  0  0  0  0  0  0  0  0  0  0
   60.0110   34.0385   48.6071 C   0  0  0  0  0  0  0  0  0  0  0  0
   60.0002   34.3576   49.8243 O   0  0  0  0  0  0  0  0  0  0  0  0
   59.0412   34.6408   47.7333 N   0  0  0  0  0  0  0  0  0  0  0  0
   58.5665   34.1453   46.6287 C   0  0  0  0  0  0  0  0  0  0  0  0
   57.4905   33.3303   46.6149 N   0  0  0  0  0  0  0  0  0  0  0  0
   57.1982   32.8998   45.3591 C   0  0  0  0  0  0  0  0  0  0  0  0
   58.0495   33.3618   44.3608 C   0  0  0  0  0  0  0  0  0  0  0  0
   59.2092   34.3438   45.0812 S   0  0  0  0  0  0  0  0  0  0  0  0
  1  2  2  0
  2  3  1  0
  3  4  2  0
  4  9  1  0
  9 10  1  0
 10 11  1  0
 11 12  2  0
 11 13  1  0
 13 14  1  0
 14 15  1  0
  3  5  1  0
  5  6  2  0
  6  7  1  0
  6  8  1  0
  8 17  1  0
 17 18  1  0
 18 19  2  0
 19 20  1  0
 20 21  2  0
 21 22  1  0
 22 23  2  0
 23 24  1  0
 24 25  2  0
 24 26  1  0
 26 27  2  0
 27 28  1  0
 28 29  1  0
 29 30  2  0
 30 31  1  0
  8  2  1  0
 23 18  1  0
 31 27  1  0
 14  9  2  0
 10 16  1  0
M  CHG 1  13  -1
M  CHG 1  15  -1
M  CHG 1  28  -1
M  END
> <UniqueID>
40

> <SMILES>
C=c1c(=Cc2[nH]c(=O)[n-]c2[O-])cc(C)n1Cc1ccccc1C(=O)N=c1[n-]ccs1

> <Energy>
156.33287987640134

> <Genealogy>
C=c1c(=Cc2[nH]c(=O)[n-]c2[O-])cc(C)n1Cc1ccccc1C(=O)N=c1[n-]ccs1 (protonated)
C=c1c(=Cc2[nH]c(=O)[n-]c2[O-])cc(C)n1Cc1ccccc1C(=O)N=c1[n-]ccs1 (3D coordinates assigned)
C=c1c(=Cc2[nH]c(=O)[n-]c2[O-])cc(C)n1Cc1ccccc1C(=O)N=c1[n-]ccs1 (optimized conformer: 156.33287987640134 kcal/mol)

> <smiles>
C=c1c(=Cc2[nH]c(=O)[nH]c2O)cc(C)n1Cc1ccccc1C(=O)N=c1[nH]ccs1

> <score_type>
oracle

> <origin>
adg

> <m_score__min__energy>
-16.469999999999999

> <m_primary>
energy

> <minimizedAffinity>
-8.48905

> <minimizedRMSD>
0.94844

> <CNNscore>
0.3589428067

> <CNNaffinity>
7.0334696770

> <CNN_VS>
2.5246133804

> <CNNaffinity_variance>
0.0282382462

$$$$
48:0


 28 30  0  0  0  0  0  0  0  0999 V2000
   58.7937   32.3304   46.2165 C   0  0  0  0  0  0  0  0  0  0  0  0
   59.1853   31.4232   47.2083 C   0  0  0  0  0  0  0  0  0  0  0  0
   60.2527   31.7182   48.0602 C   0  0  0  0  0  0  0  0  0  0  0  0
   60.9375   32.9375   47.9421 C   0  0  0  0  0  0  0  0  0  0  0  0
   60.5301   33.8590   46.9653 C   0  0  0  0  0  0  0  0  0  0  0  0
   59.4617   33.5628   46.1126 C   0  0  0  0  0  0  0  0  0  0  0  0
   62.0351   33.2533   48.8212 N   0  0  0  0  0  0  0  0  0  0  0  0
   61.7796   33.7999   50.1574 C   0  0  0  0  0  0  0  0  0  0  0  0
   62.8048   33.2548   51.1549 C   0  0  0  0  0  0  0  0  0  0  0  0
   64.1667   33.3860   50.6129 N   0  0  0  0  0  0  0  0  0  0  0  0
   65.2838   33.7192   51.4664 C   0  0  0  0  0  0  0  0  0  0  0  0
   66.4431   33.3114   51.1776 O   0  0  0  0  0  0  0  0  0  0  0  0
   65.1051   34.5380   52.7084 C   0  0  0  0  0  0  0  0  0  0  0  0
   64.4121   32.8305   49.2735 C   0  0  0  0  0  0  0  0  0  0  0  0
   63.3920   33.3841   48.2782 C   0  0  0  0  0  0  0  0  0  0  0  0
   57.6793   31.9875   45.3811 N   0  0  0  0  0  0  0  0  0  0  0  0
   57.6998   31.2542   44.1495 C   0  0  0  0  0  0  0  0  0  0  0  0
   57.7789   31.8544   43.0461 O   0  0  0  0  0  0  0  0  0  0  0  0
   57.6163   29.7792   44.1510 C   0  0  0  0  0  0  0  0  0  0  0  0
   58.5564   28.9477   44.6262 C   0  0  0  0  0  0  0  0  0  0  0  0
   58.2901   27.7393   45.4328 C   0  0  0  0  0  0  0  0  0  0  0  0
   59.3333   27.0612   46.0890 C   0  0  0  0  0  0  0  0  0  0  0  0
   59.0644   25.9077   46.8306 C   0  0  0  0  0  0  0  0  0  0  0  0
   57.7605   25.4090   46.9054 C   0  0  0  0  0  0  0  0  0  0  0  0
   57.5008   24.2618   47.6470 O   0  0  0  0  0  0  0  0  0  0  0  0
   56.7218   26.0612   46.2307 C   0  0  0  0  0  0  0  0  0  0  0  0
   55.4247   25.5652   46.2936 O   0  0  0  0  0  0  0  0  0  0  0  0
   56.9895   27.2165   45.4861 C   0  0  0  0  0  0  0  0  0  0  0  0
 19 17  1  0
 17 18  2  0
 17 16  1  0
 16  1  1  0
  1  2  2  0
  2  3  1  0
  3  4  2  0
  4  7  1  0
  7  8  1  0
  8  9  1  0
  9 10  1  0
 10 11  1  0
 11 12  2  0
 11 13  1  0
 10 14  1  0
 14 15  1  0
  4  5  1  0
  5  6  2  0
 19 20  2  0
 20 21  1  0
 21 22  2  0
 22 23  1  0
 23 24  2  0
 24 25  1  0
 24 26  1  0
 26 27  1  0
 26 28  2  0
  6  1  1  0
 28 21  1  0
 15  7  1  0
M  CHG 1  16  -1
M  CHG 1  25  -1
M  CHG 1  27  -1
M  END
> <UniqueID>
48

> <SMILES>
CC(=O)N1CCN(c2ccc([N-]C(=O)/C=C\c3ccc([O-])c([O-])c3)cc2)CC1

> <Energy>
63.707435856490335

> <Genealogy>
CC(=O)N1CCN(c2ccc([N-]C(=O)C=Cc3ccc([O-])c([O-])c3)cc2)CC1 (protonated)
CC(=O)N1CCN(c2ccc([N-]C(=O)/C=C\c3ccc([O-])c([O-])c3)cc2)CC1 (cis-trans isomerization)
CC(=O)N1CCN(c2ccc([N-]C(=O)/C=C\c3ccc([O-])c([O-])c3)cc2)CC1 (3D coordinates assigned)
CC(=O)N1CCN(c2ccc([N-]C(=O)/C=C\c3ccc([O-])c([O-])c3)cc2)CC1 (nonaromatic ring conformer: 63.707435856490335 kcal/mol)

> <smiles>
CC(=O)N1CCN(c2ccc(NC(=O)C=Cc3ccc(O)c(O)c3)cc2)CC1

> <score_type>
oracle

> <origin>
adg

> <m_score__min__energy>
-17.390000000000001

> <m_primary>
energy

> <minimizedAffinity>
-8.09366

> <minimizedRMSD>
0.85397

> <CNNscore>
0.4595911205

> <CNNaffinity>
6.4114861488

> <CNN_VS>
2.9466621876

> <CNNaffinity_variance>
0.0261624809

$$$$
52:0


 34 37  0  0  0  0  0  0  0  0999 V2000
   61.6690   30.0831   47.2909 C   0  0  0  0  0  0  0  0  0  0  0  0
   58.0214   27.0817   45.7575 C   0  0  0  0  0  0  0  0  0  0  0  0
   58.9557   27.7126   46.4955 C   0  0  0  0  0  0  0  0  0  0  0  0
   58.9862   27.6484   47.8783 C   0  0  0  0  0  0  0  0  0  0  0  0
   59.9795   28.5079   48.2968 C   0  0  0  0  0  0  0  0  0  0  0  0
   60.3224   28.7634   49.7332 C   0  0  0  0  0  0  0  0  0  0  0  0
   60.5964   29.0749   47.2329 N   0  0  0  0  0  0  0  0  0  0  0  0
   60.0079   28.5608   46.1190 C   0  0  0  0  0  0  0  0  0  0  0  0
   60.4910   28.7375   44.8783 C   0  0  0  0  0  0  0  0  0  0  0  0
   55.1021   26.2811   46.1090 O   0  0  0  0  0  0  0  0  0  0  0  0
   56.1681   25.3894   46.1075 C   0  0  0  0  0  0  0  0  0  0  0  0
   56.0341   24.0545   46.1943 N   0  0  0  0  0  0  0  0  0  0  0  0
   57.3106   23.6253   46.1264 C   0  0  0  0  0  0  0  0  0  0  0  0
   57.6177   22.4057   46.1711 O   0  0  0  0  0  0  0  0  0  0  0  0
   58.2318   24.6030   45.9969 N   0  0  0  0  0  0  0  0  0  0  0  0
   57.4959   25.7290   46.0142 C   0  0  0  0  0  0  0  0  0  0  0  0
   54.2240   25.9614   46.1767 H   0  0  0  0  0  0  0  0  0  0  0  0
   61.1128   31.5015   47.1008 C   0  0  0  0  0  0  0  0  0  0  0  0
   60.8890   32.1978   48.4222 C   0  0  0  0  0  0  0  0  0  0  0  0
   61.6434   31.8128   49.5444 C   0  0  0  0  0  0  0  0  0  0  0  0
   61.4786   32.4695   50.7668 C   0  0  0  0  0  0  0  0  0  0  0  0
   60.5707   33.5241   50.8761 C   0  0  0  0  0  0  0  0  0  0  0  0
   59.8247   33.9248   49.7662 C   0  0  0  0  0  0  0  0  0  0  0  0
   59.9689   33.2612   48.5315 C   0  0  0  0  0  0  0  0  0  0  0  0
   59.2622   33.6661   47.3887 O   0  0  0  0  0  0  0  0  0  0  0  0
   58.1553   33.0101   46.8354 C   0  0  0  0  0  0  0  0  0  0  0  0
   57.0365   33.5849   46.7385 O   0  0  0  0  0  0  0  0  0  0  0  0
   58.2784   31.5677   46.4675 C   0  0  0  0  0  0  0  0  0  0  0  0
   57.8398   31.3601   45.0450 C   0  0  0  0  0  0  0  0  0  0  0  0
   58.2283   32.2676   44.0445 C   0  0  0  0  0  0  0  0  0  0  0  0
   57.7953   32.0904   42.7266 C   0  0  0  0  0  0  0  0  0  0  0  0
   56.9632   31.0137   42.4007 C   0  0  0  0  0  0  0  0  0  0  0  0
   56.5610   30.1153   43.3937 C   0  0  0  0  0  0  0  0  0  0  0  0
   56.9936   30.2894   44.7120 C   0  0  0  0  0  0  0  0  0  0  0  0
 10 11  1  0
 11 12  1  0
 12 13  1  0
 13 14  2  0
 13 15  1  0
 15 16  1  0
 16  2  1  0
  2  3  2  0
  3  4  1  0
  4  5  2  0
  5  6  1  0
  5  7  1  0
  7  1  1  0
  1 18  1  0
 18 19  1  0
 19 20  2  0
 20 21  1  0
 21 22  2  0
 22 23  1  0
 23 24  2  0
 24 25  1  0
 25 26  1  0
 26 27  2  0
 26 28  1  0
 28 29  1  0
 29 30  2  0
 30 31  1  0
 31 32  2  0
 32 33  1  0
 33 34  2  0
  7  8  1  0
  8  9  2  0
 16 11  2  0
  8  3  1  0
 24 19  1  0
 34 29  1  0
 10 17  1  0
M  CHG 1  12  -1
M  CHG 1  15  -1
M  END
> <UniqueID>
52

> <SMILES>
C=c1/c(=C\c2[n-]c(=O)[n-]c2O)cc(C)n1CCc1ccccc1OC(=O)Cc1ccccc1

> <Energy>
125.39809832708686

> <Genealogy>
C=c1c(=Cc2[n-]c(=O)[n-]c2O)cc(C)n1CCc1ccccc1OC(=O)Cc1ccccc1 (protonated)
C=c1/c(=C\c2[n-]c(=O)[n-]c2O)cc(C)n1CCc1ccccc1OC(=O)Cc1ccccc1 (cis-trans isomerization)
C=c1/c(=C\c2[n-]c(=O)[n-]c2O)cc(C)n1CCc1ccccc1OC(=O)Cc1ccccc1 (3D coordinates assigned)
C=c1/c(=C\c2[n-]c(=O)[n-]c2O)cc(C)n1CCc1ccccc1OC(=O)Cc1ccccc1 (optimized conformer: 125.39809832708686 kcal/mol)

> <smiles>
C=c1c(=Cc2[nH]c(=O)[nH]c2O)cc(C)n1CCc1ccccc1OC(=O)Cc1ccccc1

> <score_type>
oracle

> <origin>
adg

> <m_score__min__energy>
-14.369999999999999

> <m_primary>
energy

> <minimizedAffinity>
-7.19753

> <minimizedRMSD>
0.64104

> <CNNscore>
0.1275714040

> <CNNaffinity>
6.4951858521

> <CNN_VS>
0.8285999894

> <CNNaffinity_variance>
0.2091959268

$$$$
56:0


 30 34  0  0  0  0  0  0  0  0999 V2000
   60.1443   29.9354   48.0542 N   0  0  0  0  0  0  0  0  0  0  0  0
   59.2318   29.4754   47.2501 C   0  0  0  0  0  0  0  0  0  0  0  0
   58.8652   28.1658   47.2669 N   0  0  0  0  0  0  0  0  0  0  0  0
   57.9125   27.7050   46.4208 C   0  0  0  0  0  0  0  0  0  0  0  0
   57.5835   26.4494   46.4524 N   0  0  0  0  0  0  0  0  0  0  0  0
   57.3194   28.5625   45.5478 N   0  0  0  0  0  0  0  0  0  0  0  0
   57.6774   29.8741   45.5233 C   0  0  0  0  0  0  0  0  0  0  0  0
   57.1191   30.7023   44.6934 N   0  0  0  0  0  0  0  0  0  0  0  0
   58.6318   30.3226   46.3756 N   0  0  0  0  0  0  0  0  0  0  0  0
   60.3377   31.3187   48.5202 C   0  0  0  0  0  0  0  0  0  0  0  0
   61.6248   31.1953   49.3827 C   0  0  0  0  0  0  0  0  0  0  0  0
   62.3682   32.5504   49.4116 C   0  0  0  0  0  0  0  0  0  0  0  0
   62.7426   32.9647   47.9707 C   0  0  0  0  0  0  0  0  0  0  0  0
   61.4606   33.1132   47.1209 C   0  0  0  0  0  0  0  0  0  0  0  0
   60.5478   34.1875   47.7503 C   0  0  0  0  0  0  0  0  0  0  0  0
   60.1716   33.7668   49.1871 C   0  0  0  0  0  0  0  0  0  0  0  0
   61.4539   33.6265   50.0347 C   0  0  0  0  0  0  0  0  0  0  0  0
   59.4325   32.4125   49.1474 C   0  0  0  0  0  0  0  0  0  0  0  0
   60.7111   31.7624   47.0763 C   0  0  0  0  0  0  0  0  0  0  0  0
   57.8606   31.5451   43.7601 C   0  0  0  0  0  0  0  0  0  0  0  0
   58.4696   33.7191   44.7710 C   0  0  0  0  0  0  0  0  0  0  0  0
   57.8782   32.5278   44.8924 C   0  0  0  0  0  0  0  0  0  0  0  0
   58.5219   25.3668   46.7428 C   0  0  0  0  0  0  0  0  0  0  0  0
   58.7509   24.5191   45.4882 C   0  0  0  0  0  0  0  0  0  0  0  0
   57.5698   23.6883   45.1657 N   0  0  0  0  0  0  0  0  0  0  0  0
   56.9899   24.1069   43.8765 C   0  0  0  0  0  0  0  0  0  0  0  0
   55.7229   23.2797   43.5669 C   0  0  0  0  0  0  0  0  0  0  0  0
   55.5947   22.1431   44.4051 O   0  0  0  0  0  0  0  0  0  0  0  0
   56.8111   21.4265   44.4258 C   0  0  0  0  0  0  0  0  0  0  0  0
   57.9111   22.2467   45.1267 C   0  0  0  0  0  0  0  0  0  0  0  0
 21 22  2  0
 22 20  1  0
 20  1  1  0
  1  2  2  0
  2  3  1  0
  3  4  1  0
  4  5  2  0
  5 23  1  0
 23 24  1  0
 24 25  1  0
 25 26  1  0
 26 27  1  0
 27 28  1  0
 28 29  1  0
 29 30  1  0
  4  6  1  0
  6  7  1  0
  7  8  2  0
 10  8  1  0
 10 11  1  0
 12 11  1  0
 12 13  1  0
 14 13  1  0
 14 15  1  0
 16 15  1  0
 16 17  1  0
 16 18  1  0
 14 19  1  0
  7  9  1  0
  9  2  1  0
 30 25  1  0
 18 10  1  0
 19 10  1  0
 17 12  1  0
M  CHG 1   3  -1
M  CHG 1   6  -1
M  CHG 1   9  -1
M  END
> <UniqueID>
56

> <SMILES>
C=CC/N=c1\[n-]c(=NCCN2CCOCC2)[n-]/c(=N\C23CC4CC(CC(C4)C2)C3)[n-]1

> <Energy>
67.24991525375243

> <Genealogy>
C=CCN=c1[n-]c(=NCCN2CCOCC2)[n-]c(=NC23CC4CC(CC(C4)C2)C3)[n-]1 (protonated)
C=CC/N=c1\[n-]c(=NCCN2CCOCC2)[n-]/c(=N\C23CC4CC(CC(C4)C2)C3)[n-]1 (cis-trans isomerization)
C=CC/N=c1\[n-]c(=NCCN2CCOCC2)[n-]/c(=N\C23CC4CC(CC(C4)C2)C3)[n-]1 (3D coordinates assigned)
C=CC/N=c1\[n-]c(=NCCN2CCOCC2)[n-]/c(=N\C23CC4CC(CC(C4)C2)C3)[n-]1 (nonaromatic ring conformer: 67.24991525375243 kcal/mol)

> <smiles>
C=CCN=c1[nH]c(=NCCN2CCOCC2)[nH]c(=NC23CC4CC(CC(C4)C2)C3)[nH]1

> <score_type>
oracle

> <origin>
adg

> <m_score__min__energy>
-14.199999999999999

> <m_primary>
energy

> <minimizedAffinity>
-9.93219

> <minimizedRMSD>
1.71339

> <CNNscore>
0.6868740916

> <CNNaffinity>
7.3700327873

> <CNN_VS>
5.0622844696

> <CNNaffinity_variance>
0.0426348783

$$$$
58:0


 31 34  0  0  0  0  0  0  0  0999 V2000
   58.5617   30.5541   44.8947 C   0  0  0  0  0  0  0  0  0  0  0  0
   58.7220   29.9645   46.0919 C   0  0  0  0  0  0  0  0  0  0  0  0
   58.2952   28.6791   46.4666 C   0  0  0  0  0  0  0  0  0  0  0  0
   57.5116   27.7831   45.8332 C   0  0  0  0  0  0  0  0  0  0  0  0
   58.8383   28.4390   47.7168 C   0  0  0  0  0  0  0  0  0  0  0  0
   59.5269   29.5766   48.0804 C   0  0  0  0  0  0  0  0  0  0  0  0
   60.2468   29.7522   49.3841 C   0  0  0  0  0  0  0  0  0  0  0  0
   59.4421   30.5148   47.1070 N   0  0  0  0  0  0  0  0  0  0  0  0
   57.5675   26.3178   46.0030 C   0  0  0  0  0  0  0  0  0  0  0  0
   56.3855   25.5738   46.1185 C   0  0  0  0  0  0  0  0  0  0  0  0
   55.1474   26.2075   46.1266 O   0  0  0  0  0  0  0  0  0  0  0  0
   56.4432   24.2216   46.2321 N   0  0  0  0  0  0  0  0  0  0  0  0
   57.6334   23.5676   46.2200 C   0  0  0  0  0  0  0  0  0  0  0  0
   57.6622   22.3140   46.3316 O   0  0  0  0  0  0  0  0  0  0  0  0
   58.7911   24.2628   46.0820 N   0  0  0  0  0  0  0  0  0  0  0  0
   58.7859   25.6158   45.9654 C   0  0  0  0  0  0  0  0  0  0  0  0
   59.8775   26.2278   45.8153 O   0  0  0  0  0  0  0  0  0  0  0  0
   60.1064   31.8261   47.1273 C   0  0  0  0  0  0  0  0  0  0  0  0
   59.1044   32.9288   47.4631 C   0  0  0  0  0  0  0  0  0  0  0  0
   59.7070   33.8636   48.4091 N   0  0  0  0  0  0  0  0  0  0  0  0
   60.2140   33.5689   49.5771 C   0  0  0  0  0  0  0  0  0  0  0  0
   59.4084   33.4815   50.7330 C   0  0  0  0  0  0  0  0  0  0  0  0
   59.9866   33.1646   51.9618 C   0  0  0  0  0  0  0  0  0  0  0  0
   61.3201   32.9392   52.0544 N   0  0  0  0  0  0  0  0  0  0  0  0
   62.1365   33.0110   50.9700 C   0  0  0  0  0  0  0  0  0  0  0  0
   63.5074   32.7682   51.1192 C   0  0  0  0  0  0  0  0  0  0  0  0
   64.3577   32.8396   50.0121 C   0  0  0  0  0  0  0  0  0  0  0  0
   66.0742   32.5354   50.2042 Cl  0  0  0  0  0  0  0  0  0  0  0  0
   63.8405   33.1531   48.7505 C   0  0  0  0  0  0  0  0  0  0  0  0
   62.4735   33.3965   48.5909 C   0  0  0  0  0  0  0  0  0  0  0  0
   61.6020   33.3288   49.6974 C   0  0  0  0  0  0  0  0  0  0  0  0
  1  2  2  0
  2  3  1  0
  3  4  2  0
  4  9  1  0
  9 10  2  0
 10 11  1  0
 10 12  1  0
 12 13  1  0
 13 14  2  0
 13 15  1  0
 15 16  1  0
 16 17  2  0
  3  5  1  0
  5  6  2  0
  6  7  1  0
  6  8  1  0
  8 18  1  0
 18 19  1  0
 19 20  1  0
 20 21  2  0
 21 22  1  0
 22 23  2  0
 23 24  1  0
 24 25  1  0
 25 26  2  0
 26 27  1  0
 27 28  1  0
 27 29  2  0
 29 30  1  0
 30 31  2  0
  8  2  1  0
 31 21  1  0
 16  9  1  0
 31 25  1  0
M  CHG 1  11  -1
M  CHG 1  12  -1
M  CHG 1  15  -1
M  CHG 1  24  -1
M  END
> <UniqueID>
58

> <SMILES>
C=c1/c(=C\c2c([O-])[n-]c(=O)[n-]c2=O)cc(C)n1CC/N=c1\cc[n-]c2cc(Cl)ccc12

> <Energy>
97.8881222390031

> <Genealogy>
C=c1c(=Cc2c([O-])[n-]c(=O)[n-]c2=O)cc(C)n1CCN=c1cc[n-]c2cc(Cl)ccc12 (protonated)
C=c1/c(=C\c2c([O-])[n-]c(=O)[n-]c2=O)cc(C)n1CC/N=c1\cc[n-]c2cc(Cl)ccc12 (cis-trans isomerization)
C=c1/c(=C\c2c([O-])[n-]c(=O)[n-]c2=O)cc(C)n1CC/N=c1\cc[n-]c2cc(Cl)ccc12 (3D coordinates assigned)
C=c1/c(=C\c2c([O-])[n-]c(=O)[n-]c2=O)cc(C)n1CC/N=c1\cc[n-]c2cc(Cl)ccc12 (optimized conformer: 97.8881222390031 kcal/mol)

> <smiles>
C=c1c(=Cc2c(O)[nH]c(=O)[nH]c2=O)cc(C)n1CCN=c1cc[nH]c2cc(Cl)ccc12

> <score_type>
oracle

> <origin>
adg

> <m_score__min__energy>
-17.510000000000002

> <m_primary>
energy

> <minimizedAffinity>
-8.75124

> <minimizedRMSD>
0.77256

> <CNNscore>
0.1677459329

> <CNNaffinity>
6.7483172417

> <CNN_VS>
1.1320028305

> <CNNaffinity_variance>
0.0019428475

$$$$
69:0


 34 36  0  0  0  0  0  0  0  0999 V2000
   58.4682   25.9444   47.1836 C   0  0  0  0  0  0  0  0  0  0  0  0
   57.5940   25.2195   47.7297 O   0  0  0  0  0  0  0  0  0  0  0  0
   58.1912   26.5486   45.8295 C   0  0  0  0  0  0  0  0  0  0  0  0
   59.4653   27.0537   45.1363 C   0  0  0  0  0  0  0  0  0  0  0  0
   58.5608   29.3412   45.8028 N   0  0  0  0  0  0  0  0  0  0  0  0
   59.5285   28.5539   45.0898 C   0  0  0  0  0  0  0  0  0  0  0  0
   60.4232   29.1132   44.4002 O   0  0  0  0  0  0  0  0  0  0  0  0
   57.9144   28.8858   46.3894 H   0  0  0  0  0  0  0  0  0  0  0  0
   57.5622   31.4226   44.8520 C   0  0  0  0  0  0  0  0  0  0  0  0
   57.5114   32.8306   44.8558 C   0  0  0  0  0  0  0  0  0  0  0  0
   58.3988   33.5728   45.6380 C   0  0  0  0  0  0  0  0  0  0  0  0
   59.3515   32.9265   46.4234 C   0  0  0  0  0  0  0  0  0  0  0  0
   59.4080   31.5330   46.4448 C   0  0  0  0  0  0  0  0  0  0  0  0
   58.5070   30.7704   45.6867 C   0  0  0  0  0  0  0  0  0  0  0  0
   55.6163   29.8623   44.4652 N   0  0  0  0  0  0  0  0  0  0  0  0
   56.6646   30.6749   43.9391 C   0  0  0  0  0  0  0  0  0  0  0  0
   56.7978   30.7702   42.6888 O   0  0  0  0  0  0  0  0  0  0  0  0
   55.0231   29.3679   43.8546 H   0  0  0  0  0  0  0  0  0  0  0  0
   59.6892   26.1964   47.8909 N   0  0  0  0  0  0  0  0  0  0  0  0
   59.9592   27.2964   48.7720 C   0  0  0  0  0  0  0  0  0  0  0  0
   59.2657   28.4979   48.5870 C   0  0  0  0  0  0  0  0  0  0  0  0
   59.4812   29.5796   49.4435 C   0  0  0  0  0  0  0  0  0  0  0  0
   60.3850   29.4664   50.5093 C   0  0  0  0  0  0  0  0  0  0  0  0
   61.0624   28.2567   50.7132 C   0  0  0  0  0  0  0  0  0  0  0  0
   60.8410   27.1720   49.8603 C   0  0  0  0  0  0  0  0  0  0  0  0
   60.6618   30.8335   51.5912 S   0  0  0  0  0  0  0  0  0  0  0  0
   59.3359   31.4208   51.9874 O   0  0  0  0  0  0  0  0  0  0  0  0
   61.3462   30.3469   52.8380 O   0  0  0  0  0  0  0  0  0  0  0  0
   61.6416   32.0697   50.8438 N   0  0  0  0  0  0  0  0  0  0  0  0
   62.7703   31.4640   50.1157 C   0  0  0  0  0  0  0  0  0  0  0  0
   63.5321   32.5367   49.3107 C   0  0  0  0  0  0  0  0  0  0  0  0
   63.0827   33.8392   49.6346 O   0  0  0  0  0  0  0  0  0  0  0  0
   61.7166   33.9793   49.2818 C   0  0  0  0  0  0  0  0  0  0  0  0
   60.8353   32.8906   49.9311 C   0  0  0  0  0  0  0  0  0  0  0  0
 15 16  1  0
 16 17  2  0
 16  9  1  0
  9 10  2  0
 10 11  1  0
 11 12  2  0
 12 13  1  0
 13 14  2  0
 14  5  1  0
  5  6  1  0
  6  7  2  0
  6  4  1  0
  4  3  1  0
  3  1  1  0
  1  2  2  0
  1 19  1  0
 19 20  1  0
 20 21  2  0
 21 22  1  0
 22 23  2  0
 23 26  1  0
 26 27  2  0
 26 28  2  0
 26 29  1  0
 29 30  1  0
 30 31  1  0
 31 32  1  0
 32 33  1  0
 33 34  1  0
 23 24  1  0
 24 25  2  0
 14  9  1  0
 25 20  1  0
 34 29  1  0
 15 18  1  0
  5  8  1  0
M  CHG 1  15  -1
M  CHG 1  19  -1
M  END
> <UniqueID>
69

> <SMILES>
[NH-]C(=O)c1ccccc1NC(=O)CCC(=O)[N-]c1ccc(S(=O)(=O)N2CCOCC2)cc1

> <Energy>
73.00257394088887

> <Genealogy>
[NH-]C(=O)c1ccccc1NC(=O)CCC(=O)[N-]c1ccc(S(=O)(=O)N2CCOCC2)cc1 (protonated)
[NH-]C(=O)c1ccccc1NC(=O)CCC(=O)[N-]c1ccc(S(=O)(=O)N2CCOCC2)cc1 (3D coordinates assigned)
[NH-]C(=O)c1ccccc1NC(=O)CCC(=O)[N-]c1ccc(S(=O)(=O)N2CCOCC2)cc1 (nonaromatic ring conformer: 73.00257394088887 kcal/mol)

> <smiles>
NC(=O)c1ccccc1NC(=O)CCC(=O)Nc1ccc(S(=O)(=O)N2CCOCC2)cc1

> <score_type>
oracle

> <origin>
adg

> <m_score__min__energy>
-14.609999999999999

> <m_primary>
energy

> <minimizedAffinity>
-6.24986

> <minimizedRMSD>
1.57357

> <CNNscore>
0.8154478073

> <CNNaffinity>
6.8958168030

> <CNN_VS>
5.6231784821

> <CNNaffinity_variance>
0.3844636977

$$$$
78:0


 30 32  0  0  0  0  0  0  0  0999 V2000
   58.6673   31.0843   47.7644 C   0  0  0  0  0  0  0  0  0  0  0  0
   58.8955   32.4378   47.1281 C   0  0  0  0  0  0  0  0  0  0  0  0
   58.2504   32.7536   45.9072 C   0  0  0  0  0  0  0  0  0  0  0  0
   58.5027   33.9898   45.2887 C   0  0  0  0  0  0  0  0  0  0  0  0
   59.3639   34.9118   45.8756 C   0  0  0  0  0  0  0  0  0  0  0  0
   60.0054   34.6094   47.0716 C   0  0  0  0  0  0  0  0  0  0  0  0
   59.7955   33.3733   47.7031 C   0  0  0  0  0  0  0  0  0  0  0  0
   60.6922   33.0259   49.1953 S   0  0  0  0  0  0  0  0  0  0  0  0
   59.7114   32.6046   50.2536 O   0  0  0  0  0  0  0  0  0  0  0  0
   61.3956   34.2665   49.6739 O   0  0  0  0  0  0  0  0  0  0  0  0
   61.8587   31.7466   48.9281 N   0  0  0  0  0  0  0  0  0  0  0  0
   62.4081   31.7829   47.5608 C   0  0  0  0  0  0  0  0  0  0  0  0
   63.4341   32.9241   47.3655 C   0  0  0  0  0  0  0  0  0  0  0  0
   63.9442   33.4446   48.5811 O   0  0  0  0  0  0  0  0  0  0  0  0
   64.2262   32.3955   49.4794 C   0  0  0  0  0  0  0  0  0  0  0  0
   62.9184   31.7404   49.9615 C   0  0  0  0  0  0  0  0  0  0  0  0
   57.4020   31.7797   45.2759 N   0  0  0  0  0  0  0  0  0  0  0  0
   57.5501   31.2484   43.9535 C   0  0  0  0  0  0  0  0  0  0  0  0
   57.9826   31.9713   43.0167 O   0  0  0  0  0  0  0  0  0  0  0  0
   57.1347   29.8586   43.6979 C   0  0  0  0  0  0  0  0  0  0  0  0
   56.7528   29.0305   44.6801 C   0  0  0  0  0  0  0  0  0  0  0  0
   57.6992   28.1175   45.3635 C   0  0  0  0  0  0  0  0  0  0  0  0
   59.0784   28.4056   45.3689 C   0  0  0  0  0  0  0  0  0  0  0  0
   59.9748   27.5838   46.0558 C   0  0  0  0  0  0  0  0  0  0  0  0
   59.5089   26.4694   46.7529 C   0  0  0  0  0  0  0  0  0  0  0  0
   58.1453   26.1678   46.7614 C   0  0  0  0  0  0  0  0  0  0  0  0
   57.6956   25.0518   47.4570 O   0  0  0  0  0  0  0  0  0  0  0  0
   57.2336   26.9782   46.0681 C   0  0  0  0  0  0  0  0  0  0  0  0
   55.8845   26.6157   46.0835 O   0  0  0  0  0  0  0  0  0  0  0  0
   55.6087   25.8568   46.5588 H   0  0  0  0  0  0  0  0  0  0  0  0
  1  2  1  0
  2  3  2  0
  3 17  1  0
 17 18  1  0
 18 19  2  0
 18 20  1  0
 20 21  2  0
 21 22  1  0
 22 23  2  0
 23 24  1  0
 24 25  2  0
 25 26  1  0
 26 27  1  0
 26 28  2  0
 28 29  1  0
  3  4  1  0
  4  5  2  0
  5  6  1  0
  6  7  2  0
  7  8  1  0
  8  9  2  0
  8 10  2  0
  8 11  1  0
 11 12  1  0
 12 13  1  0
 13 14  1  0
 14 15  1  0
 15 16  1  0
  7  2  1  0
 16 11  1  0
 28 22  1  0
 29 30  1  0
M  CHG 1  17  -1
M  CHG 1  27  -1
M  END
> <UniqueID>
78

> <SMILES>
Cc1c([N-]C(=O)C=Cc2cccc([O-])c2O)cccc1S(=O)(=O)N1CCOCC1

> <Energy>
71.75927873809727

> <Genealogy>
Cc1c([N-]C(=O)C=Cc2cccc([O-])c2O)cccc1S(=O)(=O)N1CCOCC1 (protonated)
Cc1c([N-]C(=O)C=Cc2cccc([O-])c2O)cccc1S(=O)(=O)N1CCOCC1 (3D coordinates assigned)
Cc1c([N-]C(=O)C=Cc2cccc([O-])c2O)cccc1S(=O)(=O)N1CCOCC1 (nonaromatic ring conformer: 71.75927873809727 kcal/mol)

> <smiles>
Cc1c(NC(=O)C=Cc2cccc(O)c2O)cccc1S(=O)(=O)N1CCOCC1

> <score_type>
oracle

> <origin>
adg

> <m_score__min__energy>
-15.119999999999999

> <m_primary>
energy

> <minimizedAffinity>
-9.20100

> <minimizedRMSD>
0.61197

> <CNNscore>
0.9287020564

> <CNNaffinity>
6.8576698303

> <CNN_VS>
6.3687319756

> <CNNaffinity_variance>
0.0594307072

$$$$
81:0


 23 25  0  0  0  0  0  0  0  0999 V2000
   61.0665   30.3019   47.1254 C   0  0  0  0  0  0  0  0  0  0  0  0
   59.9607   30.9881   46.7360 C   0  0  0  0  0  0  0  0  0  0  0  0
   59.1339   30.5218   45.6528 C   0  0  0  0  0  0  0  0  0  0  0  0
   59.2875   29.2758   45.1155 C   0  0  0  0  0  0  0  0  0  0  0  0
   58.0936   31.3871   45.2201 C   0  0  0  0  0  0  0  0  0  0  0  0
   57.2772   31.0493   44.3232 O   0  0  0  0  0  0  0  0  0  0  0  0
   57.9126   32.5842   45.8152 N   0  0  0  0  0  0  0  0  0  0  0  0
   58.6679   32.9958   46.8529 C   0  0  0  0  0  0  0  0  0  0  0  0
   58.4216   34.1190   47.3738 O   0  0  0  0  0  0  0  0  0  0  0  0
   59.6708   32.2027   47.3362 N   0  0  0  0  0  0  0  0  0  0  0  0
   58.5336   28.0648   45.4955 C   0  0  0  0  0  0  0  0  0  0  0  0
   59.1444   26.7573   46.3729 S   0  0  0  0  0  0  0  0  0  0  0  0
   57.6328   26.0383   46.5271 C   0  0  0  0  0  0  0  0  0  0  0  0
   57.3595   24.6267   47.3003 S   0  0  0  0  0  0  0  0  0  0  0  0
   56.6542   26.7781   45.9637 N   0  0  0  0  0  0  0  0  0  0  0  0
   57.1539   27.9117   45.4056 C   0  0  0  0  0  0  0  0  0  0  0  0
   56.3270   28.8473   44.7941 O   0  0  0  0  0  0  0  0  0  0  0  0
   60.4099   32.6870   48.4793 C   0  0  0  0  0  0  0  0  0  0  0  0
   61.5459   33.4908   48.2945 C   0  0  0  0  0  0  0  0  0  0  0  0
   62.2611   33.9603   49.4006 C   0  0  0  0  0  0  0  0  0  0  0  0
   61.8482   33.6270   50.6941 C   0  0  0  0  0  0  0  0  0  0  0  0
   60.7191   32.8242   50.8835 C   0  0  0  0  0  0  0  0  0  0  0  0
   60.0006   32.3543   49.7802 C   0  0  0  0  0  0  0  0  0  0  0  0
  1  2  2  0
  2  3  1  0
  3  4  2  0
  4 11  1  0
 11 12  1  0
 12 13  1  0
 13 14  2  0
 13 15  1  0
 15 16  1  0
 16 17  1  0
  3  5  1  0
  5  6  2  0
  5  7  1  0
  7  8  1  0
  8  9  2  0
  8 10  1  0
 10 18  1  0
 18 19  2  0
 19 20  1  0
 20 21  2  0
 21 22  1  0
 22 23  2  0
 10  2  1  0
 23 18  1  0
 16 11  2  0
M  CHG 1   7  -1
M  CHG 1  15  -1
M  CHG 1  17  -1
M  END
> <UniqueID>
81

> <SMILES>
C=c1/c(=C/c2sc(=S)[n-]c2[O-])c(=O)[n-]c(=O)n1-c1ccccc1

> <Energy>
101.3972774952183

> <Genealogy>
C=c1c(=Cc2sc(=S)[n-]c2[O-])c(=O)[n-]c(=O)n1-c1ccccc1 (protonated)
C=c1/c(=C/c2sc(=S)[n-]c2[O-])c(=O)[n-]c(=O)n1-c1ccccc1 (cis-trans isomerization)
C=c1/c(=C/c2sc(=S)[n-]c2[O-])c(=O)[n-]c(=O)n1-c1ccccc1 (3D coordinates assigned)
C=c1/c(=C/c2sc(=S)[n-]c2[O-])c(=O)[n-]c(=O)n1-c1ccccc1 (optimized conformer: 101.3972774952183 kcal/mol)

> <smiles>
C=c1c(=Cc2sc(=S)[nH]c2O)c(=O)[nH]c(=O)n1-c1ccccc1

> <score_type>
oracle

> <origin>
adg

> <m_score__min__energy>
-14.75

> <m_primary>
energy

> <minimizedAffinity>
-7.24625

> <minimizedRMSD>
1.98112

> <CNNscore>
0.6450905800

> <CNNaffinity>
6.8645606041

> <CNN_VS>
4.4282631874

> <CNNaffinity_variance>
0.5474353433

$$$$
86:0


 25 27  0  0  0  0  0  0  0  0999 V2000
   59.4244   26.8558   47.6277 C   0  0  0  0  0  0  0  0  0  0  0  0
   58.8542   27.8536   46.9333 C   0  0  0  0  0  0  0  0  0  0  0  0
   58.2546   27.7691   45.6755 C   0  0  0  0  0  0  0  0  0  0  0  0
   58.1694   26.6714   44.8953 C   0  0  0  0  0  0  0  0  0  0  0  0
   57.8154   29.0756   45.4236 C   0  0  0  0  0  0  0  0  0  0  0  0
   57.1615   29.6197   44.1913 C   0  0  0  0  0  0  0  0  0  0  0  0
   58.1215   29.8643   46.4725 N   0  0  0  0  0  0  0  0  0  0  0  0
   58.7479   29.1293   47.3758 N   0  0  0  0  0  0  0  0  0  0  0  0
   57.6498   25.3713   45.3422 C   0  0  0  0  0  0  0  0  0  0  0  0
   58.3829   24.2453   45.3765 N   0  0  0  0  0  0  0  0  0  0  0  0
   57.5460   23.3509   45.9492 C   0  0  0  0  0  0  0  0  0  0  0  0
   57.8700   22.1509   46.1449 O   0  0  0  0  0  0  0  0  0  0  0  0
   56.3416   23.8469   46.3045 N   0  0  0  0  0  0  0  0  0  0  0  0
   56.4303   25.1319   45.9257 C   0  0  0  0  0  0  0  0  0  0  0  0
   55.4269   26.0710   46.1321 O   0  0  0  0  0  0  0  0  0  0  0  0
   59.1958   29.6722   48.6607 C   0  0  0  0  0  0  0  0  0  0  0  0
   60.2835   30.6852   48.4412 C   0  0  0  0  0  0  0  0  0  0  0  0
   61.4784   30.3626   48.6862 O   0  0  0  0  0  0  0  0  0  0  0  0
   59.9957   31.9918   47.9147 N   0  0  0  0  0  0  0  0  0  0  0  0
   58.8433   32.7729   48.3774 C   0  0  0  0  0  0  0  0  0  0  0  0
   58.0704   33.3553   47.1776 C   0  0  0  0  0  0  0  0  0  0  0  0
   58.9094   33.6038   45.9865 N   0  0  0  0  0  0  0  0  0  0  0  0
   60.3170   33.8539   46.3267 C   0  0  0  0  0  0  0  0  0  0  0  0
   60.9388   32.6115   46.9784 C   0  0  0  0  0  0  0  0  0  0  0  0
   58.5431   34.4182   45.4935 H   0  0  0  0  0  0  0  0  0  0  0  0
  1  2  2  0
  2  3  1  0
  3  4  2  0
  4  9  1  0
  9 10  1  0
 10 11  1  0
 11 12  2  0
 11 13  1  0
 13 14  1  0
 14 15  1  0
  3  5  1  0
  5  6  1  0
  5  7  2  0
  7  8  1  0
  8 16  1  0
 16 17  1  0
 17 18  2  0
 17 19  1  0
 19 20  1  0
 20 21  1  0
 21 22  1  0
 22 23  1  0
 23 24  1  0
  8  2  1  0
 24 19  1  0
 14  9  2  0
 22 25  1  0
M  CHG 1  10  -1
M  CHG 1  13  -1
M  CHG 1  15  -1
M  END
> <UniqueID>
85

> <SMILES>
C=c1/c(=C/c2[n-]c(=O)[n-]c2[O-])c(C)nn1CC(=O)N1CCNCC1

> <Energy>
119.07087176669705

> <Genealogy>
C=c1c(=Cc2[n-]c(=O)[n-]c2[O-])c(C)nn1CC(=O)N1CCNCC1 (protonated)
C=c1/c(=C/c2[n-]c(=O)[n-]c2[O-])c(C)nn1CC(=O)N1CCNCC1 (cis-trans isomerization)
C=c1/c(=C/c2[n-]c(=O)[n-]c2[O-])c(C)nn1CC(=O)N1CCNCC1 (3D coordinates assigned)
C=c1/c(=C/c2[n-]c(=O)[n-]c2[O-])c(C)nn1CC(=O)N1CCNCC1 (nonaromatic ring conformer: 119.07087176669705 kcal/mol)

> <smiles>
C=c1c(=Cc2[nH]c(=O)[nH]c2O)c(C)nn1CC(=O)N1CCNCC1

> <score_type>
oracle

> <origin>
adg

> <m_score__min__energy>
-15.93

> <m_primary>
energy

> <minimizedAffinity>
-7.60992

> <minimizedRMSD>
1.49106

> <CNNscore>
0.0544229224

> <CNNaffinity>
5.1686654091

> <CNN_VS>
0.2812938690

> <CNNaffinity_variance>
0.4315446317

$$$$
7:0


 33 36  0  0  0  0  0  0  0  0999 V2000
   57.5901   26.0221   44.2162 C   0  0  0  0  0  0  0  0  0  0  0  0
   58.1806   26.2696   45.3971 C   0  0  0  0  0  0  0  0  0  0  0  0
   58.1279   25.4777   46.5580 C   0  0  0  0  0  0  0  0  0  0  0  0
   57.4054   24.3793   46.8559 C   0  0  0  0  0  0  0  0  0  0  0  0
   59.0081   26.0534   47.4581 C   0  0  0  0  0  0  0  0  0  0  0  0
   59.5294   27.1757   46.8515 C   0  0  0  0  0  0  0  0  0  0  0  0
   60.5129   28.1051   47.4973 C   0  0  0  0  0  0  0  0  0  0  0  0
   59.0237   27.3189   45.6046 N   0  0  0  0  0  0  0  0  0  0  0  0
   56.1031   24.0099   46.2700 C   0  0  0  0  0  0  0  0  0  0  0  0
   55.0994   24.9686   46.0474 C   0  0  0  0  0  0  0  0  0  0  0  0
   55.3181   26.3085   46.3461 O   0  0  0  0  0  0  0  0  0  0  0  0
   53.9018   24.5877   45.5358 N   0  0  0  0  0  0  0  0  0  0  0  0
   53.6386   23.2838   45.2590 C   0  0  0  0  0  0  0  0  0  0  0  0
   52.5239   22.9560   44.7785 O   0  0  0  0  0  0  0  0  0  0  0  0
   54.5762   22.3352   45.5090 N   0  0  0  0  0  0  0  0  0  0  0  0
   55.7916   22.6658   46.0159 C   0  0  0  0  0  0  0  0  0  0  0  0
   56.6354   21.7565   46.2456 O   0  0  0  0  0  0  0  0  0  0  0  0
   59.3990   28.3640   44.6379 C   0  0  0  0  0  0  0  0  0  0  0  0
   58.6181   29.6206   44.8830 C   0  0  0  0  0  0  0  0  0  0  0  0
   57.8087   30.0276   44.0051 O   0  0  0  0  0  0  0  0  0  0  0  0
   58.7869   30.3554   46.1033 N   0  0  0  0  0  0  0  0  0  0  0  0
   59.0834   29.8794   46.9125 H   0  0  0  0  0  0  0  0  0  0  0  0
   58.5306   31.7909   46.1767 C   0  0  0  0  0  0  0  0  0  0  0  0
   59.5656   32.4444   47.0503 C   0  0  0  0  0  0  0  0  0  0  0  0
   59.2574   33.6160   47.7586 C   0  0  0  0  0  0  0  0  0  0  0  0
   60.1724   34.1752   48.5943 N   0  0  0  0  0  0  0  0  0  0  0  0
   61.3983   33.6208   48.7871 C   0  0  0  0  0  0  0  0  0  0  0  0
   62.3138   34.2226   49.6577 C   0  0  0  0  0  0  0  0  0  0  0  0
   63.5627   33.6323   49.8786 C   0  0  0  0  0  0  0  0  0  0  0  0
   63.9035   32.4441   49.2237 C   0  0  0  0  0  0  0  0  0  0  0  0
   63.0013   31.8419   48.3408 C   0  0  0  0  0  0  0  0  0  0  0  0
   61.7468   32.4275   48.1164 C   0  0  0  0  0  0  0  0  0  0  0  0
   60.8190   31.8463   47.2417 C   0  0  0  0  0  0  0  0  0  0  0  0
  1  2  2  0
  2  3  1  0
  3  4  2  0
  4  9  1  0
  9 10  2  0
 10 11  1  0
 10 12  1  0
 12 13  1  0
 13 14  2  0
 13 15  1  0
 15 16  1  0
 16 17  2  0
  3  5  1  0
  5  6  2  0
  6  7  1  0
  6  8  1  0
  8 18  1  0
 18 19  1  0
 19 20  2  0
 19 21  1  0
 21 23  1  0
 23 24  1  0
 24 25  2  0
 25 26  1  0
 26 27  2  0
 27 28  1  0
 28 29  2  0
 29 30  1  0
 30 31  2  0
 31 32  1  0
 32 33  2  0
  8  2  1  0
 33 24  1  0
 16  9  1  0
 32 27  1  0
 21 22  1  0
M  CHG 1  11  -1
M  CHG 1  12  -1
M  CHG 1  15  -1
M  END
> <UniqueID>
8

> <SMILES>
C=c1c(=Cc2c([O-])[n-]c(=O)[n-]c2=O)cc(C)n1CC(=O)NCc1cnc2ccccc2c1

> <Energy>
91.08385427078456

> <Genealogy>
C=c1c(=Cc2c([O-])[n-]c(=O)[n-]c2=O)cc(C)n1CC(=O)NCc1cnc2ccccc2c1 (protonated)
C=c1c(=Cc2c([O-])[n-]c(=O)[n-]c2=O)cc(C)n1CC(=O)NCc1cnc2ccccc2c1 (3D coordinates assigned)
C=c1c(=Cc2c([O-])[n-]c(=O)[n-]c2=O)cc(C)n1CC(=O)NCc1cnc2ccccc2c1 (optimized conformer: 91.08385427078456 kcal/mol)

> <smiles>
C=c1c(=Cc2c(O)[nH]c(=O)[nH]c2=O)cc(C)n1CC(=O)NCc1cnc2ccccc2c1

> <score_type>
oracle

> <origin>
adg

> <m_score__min__energy>
-16.449999999999999

> <m_primary>
energy

> <minimizedAffinity>
-8.39222

> <minimizedRMSD>
1.22498

> <CNNscore>
0.1914286762

> <CNNaffinity>
6.8548979759

> <CNN_VS>
1.3122240305

> <CNNaffinity_variance>
0.0898064300

$$$$
15:0


 26 28  0  0  0  0  0  0  0  0999 V2000
   59.3825   30.1743   47.8135 C   0  0  0  0  0  0  0  0  0  0  0  0
   59.0905   30.8911   46.7159 C   0  0  0  0  0  0  0  0  0  0  0  0
   58.8522   30.3888   45.4237 C   0  0  0  0  0  0  0  0  0  0  0  0
   58.9990   29.1513   44.9101 C   0  0  0  0  0  0  0  0  0  0  0  0
   58.4361   31.4636   44.6599 C   0  0  0  0  0  0  0  0  0  0  0  0
   58.4795   32.5759   45.4725 C   0  0  0  0  0  0  0  0  0  0  0  0
   58.1778   33.9689   45.0080 C   0  0  0  0  0  0  0  0  0  0  0  0
   58.8805   32.2380   46.7212 N   0  0  0  0  0  0  0  0  0  0  0  0
   58.5389   27.8968   45.5372 C   0  0  0  0  0  0  0  0  0  0  0  0
   57.1720   27.5791   45.6165 C   0  0  0  0  0  0  0  0  0  0  0  0
   56.2135   28.4241   45.0684 O   0  0  0  0  0  0  0  0  0  0  0  0
   56.7779   26.4377   46.2377 N   0  0  0  0  0  0  0  0  0  0  0  0
   57.6824   25.5994   46.8056 C   0  0  0  0  0  0  0  0  0  0  0  0
   57.2939   24.5452   47.3717 O   0  0  0  0  0  0  0  0  0  0  0  0
   59.0057   25.9007   46.7668 N   0  0  0  0  0  0  0  0  0  0  0  0
   59.4521   27.0288   46.1561 C   0  0  0  0  0  0  0  0  0  0  0  0
   60.6866   27.2803   46.1459 O   0  0  0  0  0  0  0  0  0  0  0  0
   59.0915   33.1904   47.8272 C   0  0  0  0  0  0  0  0  0  0  0  0
   60.5439   33.2190   48.2275 C   0  0  0  0  0  0  0  0  0  0  0  0
   61.5505   33.2608   47.2502 C   0  0  0  0  0  0  0  0  0  0  0  0
   62.8992   33.2728   47.6221 C   0  0  0  0  0  0  0  0  0  0  0  0
   63.2600   33.2445   48.9814 C   0  0  0  0  0  0  0  0  0  0  0  0
   62.2549   33.2063   49.9537 C   0  0  0  0  0  0  0  0  0  0  0  0
   60.9081   33.1942   49.5830 C   0  0  0  0  0  0  0  0  0  0  0  0
   64.5977   33.2524   49.4053 O   0  0  0  0  0  0  0  0  0  0  0  0
   65.1508   32.3293   50.3380 C   0  0  0  0  0  0  0  0  0  0  0  0
  1  2  2  0
  2  3  1  0
  3  4  2  0
  4  9  1  0
  9 10  2  0
 10 11  1  0
 10 12  1  0
 12 13  1  0
 13 14  2  0
 13 15  1  0
 15 16  1  0
 16 17  2  0
  3  5  1  0
  5  6  2  0
  6  7  1  0
  6  8  1  0
  8 18  1  0
 18 19  1  0
 19 20  2  0
 20 21  1  0
 21 22  2  0
 22 25  1  0
 25 26  1  0
 22 23  1  0
 23 24  2  0
  8  2  1  0
 24 19  1  0
 16  9  1  0
M  CHG 1  11  -1
M  CHG 1  12  -1
M  CHG 1  15  -1
M  END
> <UniqueID>
14

> <SMILES>
C=c1c(=Cc2c([O-])[n-]c(=O)[n-]c2=O)cc(C)n1Cc1ccc(OC)cc1

> <Energy>
86.51804068067611

> <Genealogy>
C=c1c(=Cc2c([O-])[n-]c(=O)[n-]c2=O)cc(C)n1Cc1ccc(OC)cc1 (protonated)
C=c1c(=Cc2c([O-])[n-]c(=O)[n-]c2=O)cc(C)n1Cc1ccc(OC)cc1 (3D coordinates assigned)
C=c1c(=Cc2c([O-])[n-]c(=O)[n-]c2=O)cc(C)n1Cc1ccc(OC)cc1 (optimized conformer: 86.51804068067611 kcal/mol)

> <smiles>
C=c1c(=Cc2c(O)[nH]c(=O)[nH]c2=O)cc(C)n1Cc1ccc(OC)cc1

> <score_type>
oracle

> <origin>
adg

> <m_score__min__energy>
-15.550000000000001

> <m_primary>
energy

> <minimizedAffinity>
-7.55167

> <minimizedRMSD>
1.09403

> <CNNscore>
0.7033969164

> <CNNaffinity>
6.9773268700

> <CNN_VS>
4.9078302383

> <CNNaffinity_variance>
0.2174388021

$$$$
19:0


 37 41  0  0  0  0  0  0  0  0999 V2000
   57.8870   27.6349   45.1109 C   0  0  0  0  0  0  0  0  0  0  0  0
   59.1570   28.1646   45.3807 C   0  0  0  0  0  0  0  0  0  0  0  0
   59.3346   29.5470   45.4950 C   0  0  0  0  0  0  0  0  0  0  0  0
   58.2455   30.4176   45.3207 C   0  0  0  0  0  0  0  0  0  0  0  0
   56.9713   29.8810   45.0697 C   0  0  0  0  0  0  0  0  0  0  0  0
   56.7947   28.4997   44.9623 C   0  0  0  0  0  0  0  0  0  0  0  0
   57.5447   25.7198   47.3440 C   0  0  0  0  0  0  0  0  0  0  0  0
   57.4910   25.3487   46.0558 C   0  0  0  0  0  0  0  0  0  0  0  0
   57.3550   24.0453   45.5441 C   0  0  0  0  0  0  0  0  0  0  0  0
   57.0775   22.8752   46.1532 C   0  0  0  0  0  0  0  0  0  0  0  0
   57.5558   24.1436   44.1766 C   0  0  0  0  0  0  0  0  0  0  0  0
   57.7417   25.4806   43.8933 C   0  0  0  0  0  0  0  0  0  0  0  0
   57.9917   26.0367   42.5244 C   0  0  0  0  0  0  0  0  0  0  0  0
   57.7023   26.2107   45.0293 N   0  0  0  0  0  0  0  0  0  0  0  0
   55.8957   22.5934   46.9931 C   0  0  0  0  0  0  0  0  0  0  0  0
   56.0068   22.4013   48.3815 C   0  0  0  0  0  0  0  0  0  0  0  0
   57.2480   22.4367   49.0037 O   0  0  0  0  0  0  0  0  0  0  0  0
   54.8929   22.1800   49.1266 N   0  0  0  0  0  0  0  0  0  0  0  0
   53.6596   22.1635   48.5592 C   0  0  0  0  0  0  0  0  0  0  0  0
   52.6432   21.9495   49.2680 O   0  0  0  0  0  0  0  0  0  0  0  0
   53.5233   22.3843   47.2256 N   0  0  0  0  0  0  0  0  0  0  0  0
   54.6060   22.6093   46.4376 C   0  0  0  0  0  0  0  0  0  0  0  0
   54.4406   22.8218   45.2073 O   0  0  0  0  0  0  0  0  0  0  0  0
   58.4209   31.8820   45.4287 C   0  0  0  0  0  0  0  0  0  0  0  0
   58.6459   32.5424   44.3764 O   0  0  0  0  0  0  0  0  0  0  0  0
   58.3830   32.5596   46.7053 N   0  0  0  0  0  0  0  0  0  0  0  0
   58.8261   31.8553   47.9211 C   0  0  0  0  0  0  0  0  0  0  0  0
   59.2878   32.8238   49.0274 C   0  0  0  0  0  0  0  0  0  0  0  0
   60.0504   34.0892   48.5197 C   0  0  0  0  0  0  0  0  0  0  0  0
   59.4913   34.6789   47.1925 C   0  0  0  0  0  0  0  0  0  0  0  0
   58.1838   34.0125   46.7650 C   0  0  0  0  0  0  0  0  0  0  0  0
   61.5286   33.9233   48.4440 N   0  0  0  0  0  0  0  0  0  0  0  0
   62.0420   33.0832   47.3324 C   0  0  0  0  0  0  0  0  0  0  0  0
   62.5996   31.7358   47.8164 C   0  0  0  0  0  0  0  0  0  0  0  0
   63.7391   31.9306   48.8328 C   0  0  0  0  0  0  0  0  0  0  0  0
   63.6206   33.2469   49.6243 C   0  0  0  0  0  0  0  0  0  0  0  0
   62.1571   33.6814   49.7649 C   0  0  0  0  0  0  0  0  0  0  0  0
  7  8  2  0
  8  9  1  0
  9 10  2  0
 10 15  1  0
 15 16  2  0
 16 17  1  0
 16 18  1  0
 18 19  1  0
 19 20  2  0
 19 21  1  0
 21 22  1  0
 22 23  2  0
  9 11  1  0
 11 12  2  0
 12 13  1  0
 12 14  1  0
 14  1  1  0
  1  2  2  0
  2  3  1  0
  3  4  2  0
  4 24  1  0
 24 25  2  0
 24 26  1  0
 26 27  1  0
 27 28  1  0
 28 29  1  0
 29 32  1  0
 32 33  1  0
 33 34  1  0
 34 35  1  0
 35 36  1  0
 36 37  1  0
 29 30  1  0
 30 31  1  0
  4  5  1  0
  5  6  2  0
 14  8  1  0
  6  1  1  0
 22 15  1  0
 31 26  1  0
 37 32  1  0
M  CHG 1  17  -1
M  CHG 1  18  -1
M  CHG 1  21  -1
M  END
> <UniqueID>
17

> <SMILES>
C=c1c(=Cc2c([O-])[n-]c(=O)[n-]c2=O)cc(C)n1-c1ccc(C(=O)N2CCC(N3CCCCC3)CC2)cc1

> <Energy>
141.93426026894934

> <Genealogy>
C=c1c(=Cc2c([O-])[n-]c(=O)[n-]c2=O)cc(C)n1-c1ccc(C(=O)N2CCC(N3CCCCC3)CC2)cc1 (protonated)
C=c1c(=Cc2c([O-])[n-]c(=O)[n-]c2=O)cc(C)n1-c1ccc(C(=O)N2CCC(N3CCCCC3)CC2)cc1 (3D coordinates assigned)
C=c1c(=Cc2c([O-])[n-]c(=O)[n-]c2=O)cc(C)n1-c1ccc(C(=O)N2CCC(N3CCCCC3)CC2)cc1 (nonaromatic ring conformer: 141.93426026894934 kcal/mol)

> <smiles>
C=c1c(=Cc2c(O)[nH]c(=O)[nH]c2=O)cc(C)n1-c1ccc(C(=O)N2CCC(N3CCCCC3)CC2)cc1

> <score_type>
oracle

> <origin>
adg

> <m_score__min__energy>
-16.649999999999999

> <m_primary>
energy

> <minimizedAffinity>
-7.71123

> <minimizedRMSD>
0.62985

> <CNNscore>
0.0615652911

> <CNNaffinity>
6.2811851501

> <CNN_VS>
0.3867029846

> <CNNaffinity_variance>
0.4468865395

$$$$
26:0


 24 25  0  0  0  0  0  0  0  0999 V2000
   59.8415   30.4322   47.7481 C   0  0  0  0  0  0  0  0  0  0  0  0
   59.2801   31.0630   46.7023 C   0  0  0  0  0  0  0  0  0  0  0  0
   58.9025   30.4959   45.4721 C   0  0  0  0  0  0  0  0  0  0  0  0
   59.0986   29.2639   44.9618 C   0  0  0  0  0  0  0  0  0  0  0  0
   58.2420   31.4920   44.7749 C   0  0  0  0  0  0  0  0  0  0  0  0
   58.2779   32.6245   45.5582 C   0  0  0  0  0  0  0  0  0  0  0  0
   57.6653   33.9378   45.1711 C   0  0  0  0  0  0  0  0  0  0  0  0
   58.9054   32.3710   46.7312 N   0  0  0  0  0  0  0  0  0  0  0  0
   58.6224   28.0001   45.5536 C   0  0  0  0  0  0  0  0  0  0  0  0
   57.2529   27.6899   45.6023 C   0  0  0  0  0  0  0  0  0  0  0  0
   56.3100   28.5560   45.0602 O   0  0  0  0  0  0  0  0  0  0  0  0
   56.8395   26.5385   46.1904 N   0  0  0  0  0  0  0  0  0  0  0  0
   57.7285   25.6795   46.7520 C   0  0  0  0  0  0  0  0  0  0  0  0
   57.3235   24.6169   47.2867 O   0  0  0  0  0  0  0  0  0  0  0  0
   59.0549   25.9710   46.7405 N   0  0  0  0  0  0  0  0  0  0  0  0
   59.5186   27.1097   46.1639 C   0  0  0  0  0  0  0  0  0  0  0  0
   60.7556   27.3522   46.1785 O   0  0  0  0  0  0  0  0  0  0  0  0
   59.1375   33.3455   47.8098 C   0  0  0  0  0  0  0  0  0  0  0  0
   60.4543   34.0998   47.6010 C   0  0  0  0  0  0  0  0  0  0  0  0
   61.4982   33.5710   48.4762 N   0  0  0  0  0  0  0  0  0  0  0  0
   62.8563   33.3992   48.0491 C   0  0  0  0  0  0  0  0  0  0  0  0
   63.1768   33.5847   46.8447 O   0  0  0  0  0  0  0  0  0  0  0  0
   63.9121   33.0472   49.0459 C   0  0  0  0  0  0  0  0  0  0  0  0
   61.2590   33.3221   49.3982 H   0  0  0  0  0  0  0  0  0  0  0  0
  1  2  2  0
  2  3  1  0
  3  4  2  0
  4  9  1  0
  9 10  2  0
 10 11  1  0
 10 12  1  0
 12 13  1  0
 13 14  2  0
 13 15  1  0
 15 16  1  0
 16 17  2  0
  3  5  1  0
  5  6  2  0
  6  7  1  0
  6  8  1  0
  8 18  1  0
 18 19  1  0
 19 20  1  0
 20 21  1  0
 21 22  2  0
 21 23  1  0
  8  2  1  0
 16  9  1  0
 20 24  1  0
M  CHG 1  11  -1
M  CHG 1  12  -1
M  CHG 1  15  -1
M  END
> <UniqueID>
24

> <SMILES>
C=c1/c(=C\c2c([O-])[n-]c(=O)[n-]c2=O)cc(C)n1CCNC(C)=O

> <Energy>
73.68103632235861

> <Genealogy>
C=c1c(=Cc2c([O-])[n-]c(=O)[n-]c2=O)cc(C)n1CCNC(C)=O (protonated)
C=c1/c(=C\c2c([O-])[n-]c(=O)[n-]c2=O)cc(C)n1CCNC(C)=O (cis-trans isomerization)
C=c1/c(=C\c2c([O-])[n-]c(=O)[n-]c2=O)cc(C)n1CCNC(C)=O (3D coordinates assigned)
C=c1/c(=C\c2c([O-])[n-]c(=O)[n-]c2=O)cc(C)n1CCNC(C)=O (optimized conformer: 73.68103632235861 kcal/mol)

> <smiles>
C=c1c(=Cc2c(O)[nH]c(=O)[nH]c2=O)cc(C)n1CCNC(C)=O

> <score_type>
oracle

> <origin>
adg

> <m_score__min__energy>
-14.67

> <m_primary>
energy

> <minimizedAffinity>
-7.02052

> <minimizedRMSD>
1.15581

> <CNNscore>
0.3573197126

> <CNNaffinity>
6.4039702415

> <CNN_VS>
2.2882647514

> <CNNaffinity_variance>
0.1685108393

$$$$
28:0


 26 28  0  0  0  0  0  0  0  0999 V2000
   54.6951   29.7757   53.0517 N   0  0  0  0  0  0  0  0  0  0  0  0
   55.3025   31.0606   52.6260 C   0  0  0  0  0  0  0  0  0  0  0  0
   56.6355   30.8250   51.9099 C   0  0  0  0  0  0  0  0  0  0  0  0
   57.6389   30.2145   52.8177 N   0  0  0  0  0  0  0  0  0  0  0  0
   57.0358   29.3531   53.8680 C   0  0  0  0  0  0  0  0  0  0  0  0
   55.6963   28.7388   53.4237 C   0  0  0  0  0  0  0  0  0  0  0  0
   54.0165   29.9205   52.3533 H   0  0  0  0  0  0  0  0  0  0  0  0
   54.1551   30.0690   55.2925 O   0  0  0  0  0  0  0  0  0  0  0  0
   53.7579   30.0011   54.1363 C   0  0  0  0  0  0  0  0  0  0  0  0
   52.2818   30.0993   53.8645 C   0  0  0  0  0  0  0  0  0  0  0  0
   52.0483   30.3931   52.4156 C   0  0  0  0  0  0  0  0  0  0  0  0
   52.2564   29.5101   51.4227 N   0  0  0  0  0  0  0  0  0  0  0  0
   51.8452   30.1782   50.3235 C   0  0  0  0  0  0  0  0  0  0  0  0
   51.8874   29.6759   49.1703 O   0  0  0  0  0  0  0  0  0  0  0  0
   51.3780   31.4238   50.5557 N   0  0  0  0  0  0  0  0  0  0  0  0
   51.5081   31.5403   51.8881 C   0  0  0  0  0  0  0  0  0  0  0  0
   51.1337   32.6685   52.6049 O   0  0  0  0  0  0  0  0  0  0  0  0
   58.6884   29.4964   52.0617 C   0  0  0  0  0  0  0  0  0  0  0  0
   59.4842   30.4545   51.1998 C   0  0  0  0  0  0  0  0  0  0  0  0
   59.4512   30.2983   49.7999 C   0  0  0  0  0  0  0  0  0  0  0  0
   58.7048   29.3151   49.2336 F   0  0  0  0  0  0  0  0  0  0  0  0
   60.1900   31.1493   48.9737 C   0  0  0  0  0  0  0  0  0  0  0  0
   60.9700   32.1624   49.5303 C   0  0  0  0  0  0  0  0  0  0  0  0
   61.0180   32.3271   50.9150 C   0  0  0  0  0  0  0  0  0  0  0  0
   60.2840   31.4813   51.7568 C   0  0  0  0  0  0  0  0  0  0  0  0
   60.4007   31.7503   53.4932 Cl  0  0  0  0  0  0  0  0  0  0  0  0
  8  9  2  0
  9 10  1  0
 10 11  1  0
 11 12  1  0
 12 13  1  0
 13 14  2  0
 13 15  1  0
 15 16  1  0
 16 17  1  0
  9  1  1  0
  1  2  1  0
  2  3  1  0
  3  4  1  0
  4 18  1  0
 18 19  1  0
 19 20  2  0
 20 21  1  0
 20 22  1  0
 22 23  2  0
 23 24  1  0
 24 25  2  0
 25 26  1  0
  4  5  1  0
  5  6  1  0
 16 11  2  0
  6  1  1  0
 25 19  1  0
  1  7  1  0
M  CHG 1   1   1
M  CHG 1  12  -1
M  CHG 1  15  -1
M  CHG 1  17  -1
M  END
> <UniqueID>
26

> <SMILES>
O=C(Cc1[n-]c(=O)[n-]c1[O-])[NH+]1CCN(Cc2c(F)cccc2Cl)CC1

> <Energy>
84.7204855278722

> <Genealogy>
O=C(Cc1[n-]c(=O)[n-]c1[O-])[NH+]1CCN(Cc2c(F)cccc2Cl)CC1 (protonated)
O=C(Cc1[n-]c(=O)[n-]c1[O-])[NH+]1CCN(Cc2c(F)cccc2Cl)CC1 (3D coordinates assigned)
O=C(Cc1[n-]c(=O)[n-]c1[O-])[NH+]1CCN(Cc2c(F)cccc2Cl)CC1 (nonaromatic ring conformer: 84.7204855278722 kcal/mol)

> <smiles>
O=C(Cc1[nH]c(=O)[nH]c1O)N1CCN(Cc2c(F)cccc2Cl)CC1

> <score_type>
oracle

> <origin>
adg

> <m_score__min__energy>
-14.42

> <m_primary>
energy

> <minimizedAffinity>
-4.29274

> <minimizedRMSD>
1.00594

> <CNNscore>
0.0637107715

> <CNNaffinity>
4.6833457947

> <CNN_VS>
0.2983795702

> <CNNaffinity_variance>
0.2047567517

$$$$
33:0


 31 33  0  0  0  0  0  0  0  0999 V2000
   58.6282   29.4322   50.5954 N   0  0  0  0  0  0  0  0  0  0  0  0
   59.3382   29.7443   49.3893 C   0  0  0  0  0  0  0  0  0  0  0  0
   58.9617   29.1046   48.2021 C   0  0  0  0  0  0  0  0  0  0  0  0
   59.6373   29.3773   47.0099 C   0  0  0  0  0  0  0  0  0  0  0  0
   60.7069   30.2748   46.9989 C   0  0  0  0  0  0  0  0  0  0  0  0
   61.1175   30.8923   48.1885 C   0  0  0  0  0  0  0  0  0  0  0  0
   60.4376   30.6193   49.3843 C   0  0  0  0  0  0  0  0  0  0  0  0
   62.4611   32.0340   48.1789 S   0  0  0  0  0  0  0  0  0  0  0  0
   63.4232   31.6629   47.0847 O   0  0  0  0  0  0  0  0  0  0  0  0
   63.1803   31.9264   49.4942 O   0  0  0  0  0  0  0  0  0  0  0  0
   61.8795   33.6743   47.9727 N   0  0  0  0  0  0  0  0  0  0  0  0
   60.9096   34.0765   49.0077 C   0  0  0  0  0  0  0  0  0  0  0  0
   59.4956   33.5670   48.6982 C   0  0  0  0  0  0  0  0  0  0  0  0
   59.0772   34.0202   47.4288 O   0  0  0  0  0  0  0  0  0  0  0  0
   59.9092   33.4626   46.4323 C   0  0  0  0  0  0  0  0  0  0  0  0
   61.3689   33.9149   46.6095 C   0  0  0  0  0  0  0  0  0  0  0  0
   57.9751   31.5803   51.1770 O   0  0  0  0  0  0  0  0  0  0  0  0
   57.9672   30.3560   51.4710 C   0  0  0  0  0  0  0  0  0  0  0  0
   57.3314   29.9240   52.7638 C   0  0  0  0  0  0  0  0  0  0  0  0
   55.9448   29.5253   52.5303 N   0  0  0  0  0  0  0  0  0  0  0  0
   54.8959   30.4743   52.2807 C   0  0  0  0  0  0  0  0  0  0  0  0
   55.1142   31.7111   52.3953 O   0  0  0  0  0  0  0  0  0  0  0  0
   55.7205   28.5668   52.5447 H   0  0  0  0  0  0  0  0  0  0  0  0
   53.5272   29.9975   51.9028 C   0  0  0  0  0  0  0  0  0  0  0  0
   52.4783   30.6180   52.7927 C   0  0  0  0  0  0  0  0  0  0  0  0
   52.4234   30.2731   54.1547 C   0  0  0  0  0  0  0  0  0  0  0  0
   51.4703   30.8588   54.9949 C   0  0  0  0  0  0  0  0  0  0  0  0
   50.5531   31.7789   54.4818 C   0  0  0  0  0  0  0  0  0  0  0  0
   50.5874   32.1170   53.1251 C   0  0  0  0  0  0  0  0  0  0  0  0
   51.5452   31.5436   52.2790 C   0  0  0  0  0  0  0  0  0  0  0  0
   51.5661   31.9054   50.9353 O   0  0  0  0  0  0  0  0  0  0  0  0
 17 18  2  0
 18 19  1  0
 19 20  1  0
 20 21  1  0
 21 22  2  0
 21 24  1  0
 24 25  1  0
 25 26  2  0
 26 27  1  0
 27 28  2  0
 28 29  1  0
 29 30  2  0
 30 31  1  0
 18  1  1  0
  1  2  1  0
  2  3  2  0
  3  4  1  0
  4  5  2  0
  5  6  1  0
  6  8  1  0
  8  9  2  0
  8 10  2  0
  8 11  1  0
 11 12  1  0
 12 13  1  0
 13 14  1  0
 14 15  1  0
 15 16  1  0
  6  7  2  0
 30 25  1  0
  7  2  1  0
 16 11  1  0
 20 23  1  0
M  CHG 1   1  -1
M  CHG 1  31  -1
M  END
> <UniqueID>
31

> <SMILES>
O=C(CNC(=O)Cc1ccccc1[O-])[N-]c1cccc(S(=O)(=O)N2CCOCC2)c1

> <Energy>
53.51031543696923

> <Genealogy>
O=C(CNC(=O)Cc1ccccc1[O-])[N-]c1cccc(S(=O)(=O)N2CCOCC2)c1 (protonated)
O=C(CNC(=O)Cc1ccccc1[O-])[N-]c1cccc(S(=O)(=O)N2CCOCC2)c1 (3D coordinates assigned)
O=C(CNC(=O)Cc1ccccc1[O-])[N-]c1cccc(S(=O)(=O)N2CCOCC2)c1 (nonaromatic ring conformer: 53.51031543696923 kcal/mol)

> <smiles>
O=C(Cc1ccccc1O)NCC(=O)Nc1cccc(S(=O)(=O)N2CCOCC2)c1

> <score_type>
oracle

> <origin>
adg

> <m_score__min__energy>
-14.779999999999999

> <m_primary>
energy

> <minimizedAffinity>
-6.33502

> <minimizedRMSD>
0.57123

> <CNNscore>
0.0754983053

> <CNNaffinity>
4.6490368843

> <CNN_VS>
0.3509944081

> <CNNaffinity_variance>
0.3342007697

$$$$
42:0


 29 31  0  0  0  0  0  0  0  0999 V2000
   57.9814   26.6624   44.0302 O   0  0  0  0  0  0  0  0  0  0  0  0
   58.2168   27.9473   44.5124 C   0  0  0  0  0  0  0  0  0  0  0  0
   57.3029   28.9230   44.2829 N   0  0  0  0  0  0  0  0  0  0  0  0
   57.4827   30.1878   44.7377 C   0  0  0  0  0  0  0  0  0  0  0  0
   56.6056   31.0578   44.4829 O   0  0  0  0  0  0  0  0  0  0  0  0
   58.6044   30.5114   45.4544 N   0  0  0  0  0  0  0  0  0  0  0  0
   59.5520   29.5527   45.7098 C   0  0  0  0  0  0  0  0  0  0  0  0
   60.5786   29.8407   46.3898 O   0  0  0  0  0  0  0  0  0  0  0  0
   59.3840   28.2400   45.2317 C   0  0  0  0  0  0  0  0  0  0  0  0
   57.1978   26.4782   43.5506 H   0  0  0  0  0  0  0  0  0  0  0  0
   58.7854   31.8571   45.9444 C   0  0  0  0  0  0  0  0  0  0  0  0
   58.8548   32.1065   47.3258 C   0  0  0  0  0  0  0  0  0  0  0  0
   59.0365   33.4094   47.7971 C   0  0  0  0  0  0  0  0  0  0  0  0
   59.1488   34.4723   46.8969 C   0  0  0  0  0  0  0  0  0  0  0  0
   59.3288   35.7347   47.3576 F   0  0  0  0  0  0  0  0  0  0  0  0
   59.0781   34.2314   45.5221 C   0  0  0  0  0  0  0  0  0  0  0  0
   58.8971   32.9288   45.0459 C   0  0  0  0  0  0  0  0  0  0  0  0
   60.4003   27.1596   45.5406 C   0  0  0  0  0  0  0  0  0  0  0  0
   59.7381   25.8966   46.1059 C   0  0  0  0  0  0  0  0  0  0  0  0
   58.7215   26.2300   47.1551 C   0  0  0  0  0  0  0  0  0  0  0  0
   59.0676   26.9102   48.1592 O   0  0  0  0  0  0  0  0  0  0  0  0
   57.3634   25.7968   46.9773 N   0  0  0  0  0  0  0  0  0  0  0  0
   56.9629   24.6881   46.4237 C   0  0  0  0  0  0  0  0  0  0  0  0
   57.7842   23.6024   46.3398 N   0  0  0  0  0  0  0  0  0  0  0  0
   57.3796   22.4322   45.7761 C   0  0  0  0  0  0  0  0  0  0  0  0
   56.0874   22.3155   45.2627 C   0  0  0  0  0  0  0  0  0  0  0  0
   55.2234   23.4093   45.3334 C   0  0  0  0  0  0  0  0  0  0  0  0
   55.6572   24.6026   45.9168 C   0  0  0  0  0  0  0  0  0  0  0  0
   54.7920   25.6893   45.9913 O   0  0  0  0  0  0  0  0  0  0  0  0
  1  2  1  0
  2  3  1  0
  3  4  1  0
  4  5  2  0
  4  6  1  0
  6 11  1  0
 11 12  2  0
 12 13  1  0
 13 14  2  0
 14 15  1  0
 14 16  1  0
 16 17  2  0
  6  7  1  0
  7  8  2  0
  7  9  1  0
  9 18  1  0
 18 19  1  0
 19 20  1  0
 20 21  2  0
 20 22  1  0
 22 23  2  0
 23 24  1  0
 24 25  1  0
 25 26  2  0
 26 27  1  0
 27 28  2  0
 28 29  1  0
  9  2  2  0
 28 23  1  0
 17 11  1  0
  1 10  1  0
M  CHG 1   3  -1
M  CHG 1  24  -1
M  CHG 1  29  -1
M  END
> <UniqueID>
40

> <SMILES>
O=C(CCc1c(O)[n-]c(=O)n(-c2ccc(F)cc2)c1=O)/N=c1\[n-]cccc1[O-]

> <Energy>
54.333256429713394

> <Genealogy>
O=C(CCc1c(O)[n-]c(=O)n(-c2ccc(F)cc2)c1=O)N=c1[n-]cccc1[O-] (protonated)
O=C(CCc1c(O)[n-]c(=O)n(-c2ccc(F)cc2)c1=O)/N=c1\[n-]cccc1[O-] (cis-trans isomerization)
O=C(CCc1c(O)[n-]c(=O)n(-c2ccc(F)cc2)c1=O)/N=c1\[n-]cccc1[O-] (3D coordinates assigned)
O=C(CCc1c(O)[n-]c(=O)n(-c2ccc(F)cc2)c1=O)/N=c1\[n-]cccc1[O-] (optimized conformer: 54.333256429713394 kcal/mol)

> <smiles>
O=C(CCc1c(O)[nH]c(=O)n(-c2ccc(F)cc2)c1=O)N=c1[nH]cccc1O

> <score_type>
oracle

> <origin>
adg

> <m_score__min__energy>
-14.289999999999999

> <m_primary>
energy

> <minimizedAffinity>
-7.75385

> <minimizedRMSD>
0.76144

> <CNNscore>
0.2862529159

> <CNNaffinity>
6.3730158806

> <CNN_VS>
1.8242943287

> <CNNaffinity_variance>
0.1194438040

$$$$
45:0


 30 33  0  0  0  0  0  0  0  0999 V2000
   55.2331   27.7062   53.6332 C   0  0  0  0  0  0  0  0  0  0  0  0
   55.5251   28.9936   53.3882 C   0  0  0  0  0  0  0  0  0  0  0  0
   54.7429   29.9071   52.6627 C   0  0  0  0  0  0  0  0  0  0  0  0
   53.4718   29.8303   52.2214 C   0  0  0  0  0  0  0  0  0  0  0  0
   55.5355   31.0215   52.4630 C   0  0  0  0  0  0  0  0  0  0  0  0
   56.7197   30.7955   53.1297 C   0  0  0  0  0  0  0  0  0  0  0  0
   56.7247   29.5617   53.6908 N   0  0  0  0  0  0  0  0  0  0  0  0
   57.8180   31.7758   53.1976 C   0  0  0  0  0  0  0  0  0  0  0  0
   58.2671   32.1060   54.3283 O   0  0  0  0  0  0  0  0  0  0  0  0
   58.4194   32.3101   52.0024 N   0  0  0  0  0  0  0  0  0  0  0  0
   58.5006   31.4789   50.7914 C   0  0  0  0  0  0  0  0  0  0  0  0
   59.3202   32.1638   49.6905 C   0  0  0  0  0  0  0  0  0  0  0  0
   60.6410   32.6993   50.2564 C   0  0  0  0  0  0  0  0  0  0  0  0
   60.4511   33.6126   51.4897 C   0  0  0  0  0  0  0  0  0  0  0  0
   59.0053   33.6575   52.0047 C   0  0  0  0  0  0  0  0  0  0  0  0
   52.3443   30.6451   52.7043 C   0  0  0  0  0  0  0  0  0  0  0  0
   51.9842   30.7665   53.9953 N   0  0  0  0  0  0  0  0  0  0  0  0
   51.0153   31.7069   53.9608 C   0  0  0  0  0  0  0  0  0  0  0  0
   50.4068   32.0916   54.9915 O   0  0  0  0  0  0  0  0  0  0  0  0
   50.7582   32.2112   52.7341 N   0  0  0  0  0  0  0  0  0  0  0  0
   51.6204   31.5386   51.9540 C   0  0  0  0  0  0  0  0  0  0  0  0
   51.7443   31.7413   50.5852 O   0  0  0  0  0  0  0  0  0  0  0  0
   57.8867   28.8969   54.3109 C   0  0  0  0  0  0  0  0  0  0  0  0
   59.1278   29.0983   53.4781 C   0  0  0  0  0  0  0  0  0  0  0  0
   60.2367   29.7747   54.0135 C   0  0  0  0  0  0  0  0  0  0  0  0
   61.3903   29.9581   53.2456 C   0  0  0  0  0  0  0  0  0  0  0  0
   61.4490   29.4631   51.9402 C   0  0  0  0  0  0  0  0  0  0  0  0
   60.3550   28.7775   51.4025 C   0  0  0  0  0  0  0  0  0  0  0  0
   60.4321   28.1519   49.7655 Cl  0  0  0  0  0  0  0  0  0  0  0  0
   59.1997   28.5906   52.1694 C   0  0  0  0  0  0  0  0  0  0  0  0
  1  2  2  0
  2  3  1  0
  3  4  2  0
  4 16  1  0
 16 17  1  0
 17 18  1  0
 18 19  2  0
 18 20  1  0
 20 21  1  0
 21 22  1  0
  3  5  1  0
  5  6  2  0
  6  8  1  0
  8  9  2  0
  8 10  1  0
 10 11  1  0
 11 12  1  0
 12 13  1  0
 13 14  1  0
 14 15  1  0
  6  7  1  0
  7 23  1  0
 23 24  1  0
 24 25  2  0
 25 26  1  0
 26 27  2  0
 27 28  1  0
 28 29  1  0
 28 30  2  0
  7  2  1  0
 30 24  1  0
 21 16  2  0
 15 10  1  0
M  CHG 1  17  -1
M  CHG 1  20  -1
M  CHG 1  22  -1
M  END
> <UniqueID>
42

> <SMILES>
C=c1c(=Cc2[n-]c(=O)[n-]c2[O-])cc(C(=O)N2CCCCC2)n1Cc1cccc(Cl)c1

> <Energy>
128.22221281309197

> <Genealogy>
C=c1c(=Cc2[n-]c(=O)[n-]c2[O-])cc(C(=O)N2CCCCC2)n1Cc1cccc(Cl)c1 (protonated)
C=c1c(=Cc2[n-]c(=O)[n-]c2[O-])cc(C(=O)N2CCCCC2)n1Cc1cccc(Cl)c1 (3D coordinates assigned)
C=c1c(=Cc2[n-]c(=O)[n-]c2[O-])cc(C(=O)N2CCCCC2)n1Cc1cccc(Cl)c1 (nonaromatic ring conformer: 128.22221281309197 kcal/mol)

> <smiles>
C=c1c(=Cc2[nH]c(=O)[nH]c2O)cc(C(=O)N2CCCCC2)n1Cc1cccc(Cl)c1

> <score_type>
oracle

> <origin>
adg

> <m_score__min__energy>
-16.73

> <m_primary>
energy

> <minimizedAffinity>
-5.20612

> <minimizedRMSD>
0.90050

> <CNNscore>
0.1659291089

> <CNNaffinity>
5.2830104828

> <CNN_VS>
0.8766052127

> <CNNaffinity_variance>
0.2515321970

$$$$
55:0


 31 34  0  0  0  0  0  0  0  0999 V2000
   59.0439   31.8197   45.7865 N   0  0  0  0  0  0  0  0  0  0  0  0
   58.9077   31.8364   44.8116 H   0  0  0  0  0  0  0  0  0  0  0  0
   59.1921   28.1000   46.3779 C   0  0  0  0  0  0  0  0  0  0  0  0
   59.2864   28.0742   47.7786 C   0  0  0  0  0  0  0  0  0  0  0  0
   59.3049   29.2668   48.5053 C   0  0  0  0  0  0  0  0  0  0  0  0
   59.2302   30.4951   47.8440 C   0  0  0  0  0  0  0  0  0  0  0  0
   59.1284   30.5443   46.4452 C   0  0  0  0  0  0  0  0  0  0  0  0
   59.1321   29.3407   45.7192 C   0  0  0  0  0  0  0  0  0  0  0  0
   59.2393   26.8140   45.5880 C   0  0  0  0  0  0  0  0  0  0  0  0
   57.1143   22.8606   47.0878 O   0  0  0  0  0  0  0  0  0  0  0  0
   57.2736   24.0495   46.7071 C   0  0  0  0  0  0  0  0  0  0  0  0
   56.2415   24.9010   46.5331 N   0  0  0  0  0  0  0  0  0  0  0  0
   56.8537   26.0249   46.1249 C   0  0  0  0  0  0  0  0  0  0  0  0
   56.1830   27.1956   45.7968 O   0  0  0  0  0  0  0  0  0  0  0  0
   58.2117   25.8334   46.0718 C   0  0  0  0  0  0  0  0  0  0  0  0
   58.4899   24.5676   46.4326 N   0  0  0  0  0  0  0  0  0  0  0  0
   59.1709   33.3310   46.6301 S   0  0  0  0  0  0  0  0  0  0  0  0
   59.3125   34.4390   45.6254 O   0  0  0  0  0  0  0  0  0  0  0  0
   57.9179   33.5609   47.4287 O   0  0  0  0  0  0  0  0  0  0  0  0
   60.5503   33.3089   47.7256 C   0  0  0  0  0  0  0  0  0  0  0  0
   61.8164   32.9777   47.2415 C   0  0  0  0  0  0  0  0  0  0  0  0
   62.9273   33.0045   48.0896 C   0  0  0  0  0  0  0  0  0  0  0  0
   62.7967   33.3648   49.4533 C   0  0  0  0  0  0  0  0  0  0  0  0
   61.5021   33.6985   49.9207 C   0  0  0  0  0  0  0  0  0  0  0  0
   60.3974   33.6657   49.0678 C   0  0  0  0  0  0  0  0  0  0  0  0
   63.9569   33.4047   50.3416 N   0  0  0  0  0  0  0  0  0  0  0  0
   65.2273   32.7875   49.9016 C   0  0  0  0  0  0  0  0  0  0  0  0
   66.3330   32.8383   50.9599 C   0  0  0  0  0  0  0  0  0  0  0  0
   66.3003   34.0540   51.6681 O   0  0  0  0  0  0  0  0  0  0  0  0
   65.1380   34.0737   52.4613 C   0  0  0  0  0  0  0  0  0  0  0  0
   63.8842   34.1895   51.5912 C   0  0  0  0  0  0  0  0  0  0  0  0
 10 11  2  0
 11 12  1  0
 12 13  1  0
 13 14  1  0
 13 15  2  0
 15  9  1  0
  9  3  1  0
  3  4  2  0
  4  5  1  0
  5  6  2  0
  6  7  1  0
  7  1  1  0
  1 17  1  0
 17 18  2  0
 17 19  2  0
 17 20  1  0
 20 21  2  0
 21 22  1  0
 22 23  2  0
 23 26  1  0
 26 27  1  0
 27 28  1  0
 28 29  1  0
 29 30  1  0
 30 31  1  0
 23 24  1  0
 24 25  2  0
  7  8  2  0
 15 16  1  0
 16 11  1  0
  8  3  1  0
 25 20  1  0
 31 26  1  0
  1  2  1  0
M  CHG 1  12  -1
M  CHG 1  14  -1
M  CHG 1  16  -1
M  END
> <UniqueID>
52

> <SMILES>
O=c1[n-]c([O-])c(Cc2cccc(NS(=O)(=O)c3ccc(N4CCOCC4)cc3)c2)[n-]1

> <Energy>
90.61639734502891

> <Genealogy>
O=c1[n-]c([O-])c(Cc2cccc(NS(=O)(=O)c3ccc(N4CCOCC4)cc3)c2)[n-]1 (protonated)
O=c1[n-]c([O-])c(Cc2cccc(NS(=O)(=O)c3ccc(N4CCOCC4)cc3)c2)[n-]1 (3D coordinates assigned)
O=c1[n-]c([O-])c(Cc2cccc(NS(=O)(=O)c3ccc(N4CCOCC4)cc3)c2)[n-]1 (nonaromatic ring conformer: 90.61639734502891 kcal/mol)

> <smiles>
O=c1[nH]c(O)c(Cc2cccc(NS(=O)(=O)c3ccc(N4CCOCC4)cc3)c2)[nH]1

> <score_type>
oracle

> <origin>
adg

> <m_score__min__energy>
-17.170000000000002

> <m_primary>
energy

> <minimizedAffinity>
-7.56424

> <minimizedRMSD>
1.13892

> <CNNscore>
0.2550365329

> <CNNaffinity>
6.6917762756

> <CNN_VS>
1.7066473961

> <CNNaffinity_variance>
0.2133013010

$$$$
60:0


 28 31  0  0  0  0  0  0  0  0999 V2000
   55.0961   27.4577   54.1614 C   0  0  0  0  0  0  0  0  0  0  0  0
   54.6050   27.2877   55.3988 C   0  0  0  0  0  0  0  0  0  0  0  0
   55.3206   26.8982   56.5351 C   0  0  0  0  0  0  0  0  0  0  0  0
   56.6439   26.6657   56.6256 C   0  0  0  0  0  0  0  0  0  0  0  0
   54.4024   26.8595   57.5802 C   0  0  0  0  0  0  0  0  0  0  0  0
   53.1775   27.2041   57.0428 C   0  0  0  0  0  0  0  0  0  0  0  0
   51.9140   27.3724   57.8277 C   0  0  0  0  0  0  0  0  0  0  0  0
   53.3004   27.4639   55.7228 N   0  0  0  0  0  0  0  0  0  0  0  0
   57.2659   25.8347   57.6718 C   0  0  0  0  0  0  0  0  0  0  0  0
   57.2631   24.4901   57.6428 N   0  0  0  0  0  0  0  0  0  0  0  0
   57.8509   24.1491   58.8111 C   0  0  0  0  0  0  0  0  0  0  0  0
   58.0445   22.9523   59.1475 O   0  0  0  0  0  0  0  0  0  0  0  0
   58.2030   25.1914   59.5926 N   0  0  0  0  0  0  0  0  0  0  0  0
   57.8157   26.2515   58.8649 C   0  0  0  0  0  0  0  0  0  0  0  0
   57.9202   27.5640   59.3055 O   0  0  0  0  0  0  0  0  0  0  0  0
   52.2456   27.9030   54.8540 C   0  0  0  0  0  0  0  0  0  0  0  0
   51.4726   26.9567   54.1699 C   0  0  0  0  0  0  0  0  0  0  0  0
   50.4411   27.3845   53.3146 C   0  0  0  0  0  0  0  0  0  0  0  0
   50.2206   28.7212   53.1646 N   0  0  0  0  0  0  0  0  0  0  0  0
   50.9548   29.6583   53.8196 C   0  0  0  0  0  0  0  0  0  0  0  0
   51.9815   29.2687   54.6813 C   0  0  0  0  0  0  0  0  0  0  0  0
   52.9068   30.4927   55.5397 Cl  0  0  0  0  0  0  0  0  0  0  0  0
   49.6220   26.4410   52.5910 N   0  0  0  0  0  0  0  0  0  0  0  0
   48.2605   26.1579   53.0637 C   0  0  0  0  0  0  0  0  0  0  0  0
   47.8245   24.7581   52.6219 C   0  0  0  0  0  0  0  0  0  0  0  0
   48.0179   24.5889   51.2319 O   0  0  0  0  0  0  0  0  0  0  0  0
   49.4004   24.6267   50.9389 C   0  0  0  0  0  0  0  0  0  0  0  0
   49.9833   26.0123   51.2325 C   0  0  0  0  0  0  0  0  0  0  0  0
  1  2  2  0
  2  3  1  0
  3  4  2  0
  4  9  1  0
  9 10  1  0
 10 11  1  0
 11 12  2  0
 11 13  1  0
 13 14  1  0
 14 15  1  0
  3  5  1  0
  5  6  2  0
  6  7  1  0
  6  8  1  0
  8 16  1  0
 16 17  2  0
 17 18  1  0
 18 23  1  0
 23 24  1  0
 24 25  1  0
 25 26  1  0
 26 27  1  0
 27 28  1  0
 18 19  2  0
 19 20  1  0
 20 21  2  0
 21 22  1  0
  8  2  1  0
 21 16  1  0
 14  9  2  0
 28 23  1  0
M  CHG 1  10  -1
M  CHG 1  13  -1
M  CHG 1  15  -1
M  END
> <UniqueID>
57

> <SMILES>
C=c1/c(=C/c2[n-]c(=O)[n-]c2[O-])cc(C)n1-c1cc(N2CCOCC2)ncc1Cl

> <Energy>
124.31037235788972

> <Genealogy>
C=c1c(=Cc2[n-]c(=O)[n-]c2[O-])cc(C)n1-c1cc(N2CCOCC2)ncc1Cl (protonated)
C=c1/c(=C/c2[n-]c(=O)[n-]c2[O-])cc(C)n1-c1cc(N2CCOCC2)ncc1Cl (cis-trans isomerization)
C=c1/c(=C/c2[n-]c(=O)[n-]c2[O-])cc(C)n1-c1cc(N2CCOCC2)ncc1Cl (3D coordinates assigned)
C=c1/c(=C/c2[n-]c(=O)[n-]c2[O-])cc(C)n1-c1cc(N2CCOCC2)ncc1Cl (nonaromatic ring conformer: 124.31037235788972 kcal/mol)

> <smiles>
C=c1c(=Cc2[nH]c(=O)[nH]c2O)cc(C)n1-c1cc(N2CCOCC2)ncc1Cl

> <score_type>
oracle

> <origin>
adg

> <m_score__min__energy>
-15.66

> <m_primary>
energy

> <minimizedAffinity>
-2.81587

> <minimizedRMSD>
9.77783

> <CNNscore>
0.1308601499

> <CNNaffinity>
5.0746293068

> <CNN_VS>
0.6640667319

> <CNNaffinity_variance>
0.3523451090

$$$$
64:0


 25 27  0  0  0  0  0  0  0  0999 V2000
   56.3836   31.3763   52.3016 C   0  0  0  0  0  0  0  0  0  0  0  0
   55.9793   30.2157   52.8461 C   0  0  0  0  0  0  0  0  0  0  0  0
   54.6579   29.8943   53.1804 C   0  0  0  0  0  0  0  0  0  0  0  0
   53.5581   30.6564   53.0110 C   0  0  0  0  0  0  0  0  0  0  0  0
   54.7026   28.6547   53.7953 C   0  0  0  0  0  0  0  0  0  0  0  0
   56.0220   28.2621   53.8035 C   0  0  0  0  0  0  0  0  0  0  0  0
   56.5087   27.0009   54.4536 C   0  0  0  0  0  0  0  0  0  0  0  0
   56.8056   29.1858   53.1881 N   0  0  0  0  0  0  0  0  0  0  0  0
   52.7749   30.7123   51.7627 C   0  0  0  0  0  0  0  0  0  0  0  0
   52.8955   29.8064   50.7763 N   0  0  0  0  0  0  0  0  0  0  0  0
   51.9331   30.1647   49.8994 C   0  0  0  0  0  0  0  0  0  0  0  0
   51.7311   29.5452   48.8234 O   0  0  0  0  0  0  0  0  0  0  0  0
   51.1896   31.2265   50.2768 N   0  0  0  0  0  0  0  0  0  0  0  0
   51.7253   31.5551   51.4636 C   0  0  0  0  0  0  0  0  0  0  0  0
   51.2252   32.5625   52.2802 O   0  0  0  0  0  0  0  0  0  0  0  0
   58.2748   29.1139   53.0505 C   0  0  0  0  0  0  0  0  0  0  0  0
   58.9740   30.2301   53.8035 C   0  0  0  0  0  0  0  0  0  0  0  0
   58.7095   30.3707   55.1801 C   0  0  0  0  0  0  0  0  0  0  0  0
   59.3828   31.3223   55.9441 C   0  0  0  0  0  0  0  0  0  0  0  0
   60.3260   32.1556   55.3500 C   0  0  0  0  0  0  0  0  0  0  0  0
   60.5845   32.0540   53.9844 C   0  0  0  0  0  0  0  0  0  0  0  0
   59.9061   31.1127   53.1874 C   0  0  0  0  0  0  0  0  0  0  0  0
   60.1927   31.1043   51.7355 C   0  0  0  0  0  0  0  0  0  0  0  0
   59.5727   31.8647   50.9493 O   0  0  0  0  0  0  0  0  0  0  0  0
   61.2085   30.3011   51.2314 O   0  0  0  0  0  0  0  0  0  0  0  0
  1  2  2  0
  2  3  1  0
  3  4  2  0
  4  9  1  0
  9 10  1  0
 10 11  1  0
 11 12  2  0
 11 13  1  0
 13 14  1  0
 14 15  1  0
  3  5  1  0
  5  6  2  0
  6  7  1  0
  6  8  1  0
  8 16  1  0
 16 17  1  0
 17 18  2  0
 18 19  1  0
 19 20  2  0
 20 21  1  0
 21 22  2  0
 22 23  1  0
 23 24  2  0
 23 25  1  0
  8  2  1  0
 22 17  1  0
 14  9  2  0
M  CHG 1  10  -1
M  CHG 1  13  -1
M  CHG 1  15  -1
M  CHG 1  25  -1
M  END
> <UniqueID>
60

> <SMILES>
C=c1/c(=C/c2[n-]c(=O)[n-]c2[O-])cc(C)n1Cc1ccccc1C(=O)[O-]

> <Energy>
112.59229835899495

> <Genealogy>
C=c1c(=Cc2[n-]c(=O)[n-]c2[O-])cc(C)n1Cc1ccccc1C(=O)[O-] (protonated)
C=c1/c(=C/c2[n-]c(=O)[n-]c2[O-])cc(C)n1Cc1ccccc1C(=O)[O-] (cis-trans isomerization)
C=c1/c(=C/c2[n-]c(=O)[n-]c2[O-])cc(C)n1Cc1ccccc1C(=O)[O-] (3D coordinates assigned)
C=c1/c(=C/c2[n-]c(=O)[n-]c2[O-])cc(C)n1Cc1ccccc1C(=O)[O-] (optimized conformer: 112.59229835899495 kcal/mol)

> <smiles>
C=c1c(=Cc2[nH]c(=O)[nH]c2O)cc(C)n1Cc1ccccc1C(=O)O

> <score_type>
oracle

> <origin>
adg

> <m_score__min__energy>
-17.210000000000001

> <m_primary>
energy

> <minimizedAffinity>
-4.36593

> <minimizedRMSD>
1.21845

> <CNNscore>
0.1256379932

> <CNNaffinity>
4.3999323845

> <CNN_VS>
0.5527986884

> <CNNaffinity_variance>
0.2671627402

$$$$
68:0


 30 33  0  0  0  0  0  0  0  0999 V2000
   59.1392   26.4717   46.2727 C   0  0  0  0  0  0  0  0  0  0  0  0
   59.4187   27.7276   46.6690 C   0  0  0  0  0  0  0  0  0  0  0  0
   59.1196   28.8392   45.8966 C   0  0  0  0  0  0  0  0  0  0  0  0
   59.4636   29.9488   46.6398 C   0  0  0  0  0  0  0  0  0  0  0  0
   59.2728   31.3691   46.2015 C   0  0  0  0  0  0  0  0  0  0  0  0
   59.9862   29.5743   47.8277 N   0  0  0  0  0  0  0  0  0  0  0  0
   59.9976   28.2165   47.8525 C   0  0  0  0  0  0  0  0  0  0  0  0
   60.5836   27.5050   48.8271 C   0  0  0  0  0  0  0  0  0  0  0  0
   56.4167   27.6665   45.4794 O   0  0  0  0  0  0  0  0  0  0  0  0
   56.6096   26.4055   46.0355 C   0  0  0  0  0  0  0  0  0  0  0  0
   55.6028   25.5732   46.3497 N   0  0  0  0  0  0  0  0  0  0  0  0
   56.2486   24.5066   46.8669 C   0  0  0  0  0  0  0  0  0  0  0  0
   55.6414   23.4898   47.2940 O   0  0  0  0  0  0  0  0  0  0  0  0
   57.5931   24.6191   46.9027 N   0  0  0  0  0  0  0  0  0  0  0  0
   57.8191   25.8242   46.3439 C   0  0  0  0  0  0  0  0  0  0  0  0
   55.5489   27.9742   45.3056 H   0  0  0  0  0  0  0  0  0  0  0  0
   60.4953   30.4707   48.8286 C   0  0  0  0  0  0  0  0  0  0  0  0
   61.7750   31.0261   48.6842 C   0  0  0  0  0  0  0  0  0  0  0  0
   62.2974   31.8777   49.6706 C   0  0  0  0  0  0  0  0  0  0  0  0
   61.5121   32.1936   50.7907 C   0  0  0  0  0  0  0  0  0  0  0  0
   60.2396   31.6375   50.9406 C   0  0  0  0  0  0  0  0  0  0  0  0
   59.7320   30.7716   49.9683 C   0  0  0  0  0  0  0  0  0  0  0  0
   58.5027   30.2234   50.1336 F   0  0  0  0  0  0  0  0  0  0  0  0
   63.6364   32.4713   49.4965 C   0  0  0  0  0  0  0  0  0  0  0  0
   63.8234   33.2859   48.5536 O   0  0  0  0  0  0  0  0  0  0  0  0
   64.7316   32.1322   50.3694 N   0  0  0  0  0  0  0  0  0  0  0  0
   64.8499   30.8581   51.0606 C   0  0  0  0  0  0  0  0  0  0  0  0
   66.1881   30.9044   51.7829 C   0  0  0  0  0  0  0  0  0  0  0  0
   66.9770   32.0394   51.1369 C   0  0  0  0  0  0  0  0  0  0  0  0
   65.9502   32.9194   50.4384 C   0  0  0  0  0  0  0  0  0  0  0  0
  9 10  1  0
 10 11  1  0
 11 12  1  0
 12 13  2  0
 12 14  1  0
 14 15  1  0
 15  1  1  0
  1  2  2  0
  2  3  1  0
  3  4  2  0
  4  5  1  0
  4  6  1  0
  6 17  1  0
 17 18  2  0
 18 19  1  0
 19 24  1  0
 24 25  2  0
 24 26  1  0
 26 27  1  0
 27 28  1  0
 28 29  1  0
 29 30  1  0
 19 20  2  0
 20 21  1  0
 21 22  2  0
 22 23  1  0
  6  7  1  0
  7  8  2  0
 15 10  2  0
  7  2  1  0
 22 17  1  0
 30 26  1  0
  9 16  1  0
M  CHG 1  11  -1
M  CHG 1  14  -1
M  END
> <UniqueID>
64

> <SMILES>
C=c1/c(=C\c2[n-]c(=O)[n-]c2O)cc(C)n1-c1cc(C(=O)N2CCCC2)ccc1F

> <Energy>
130.14160238018317

> <Genealogy>
C=c1c(=Cc2[n-]c(=O)[n-]c2O)cc(C)n1-c1cc(C(=O)N2CCCC2)ccc1F (protonated)
C=c1/c(=C\c2[n-]c(=O)[n-]c2O)cc(C)n1-c1cc(C(=O)N2CCCC2)ccc1F (cis-trans isomerization)
C=c1/c(=C\c2[n-]c(=O)[n-]c2O)cc(C)n1-c1cc(C(=O)N2CCCC2)ccc1F (3D coordinates assigned)
C=c1/c(=C\c2[n-]c(=O)[n-]c2O)cc(C)n1-c1cc(C(=O)N2CCCC2)ccc1F (nonaromatic ring conformer: 130.14160238018317 kcal/mol)

> <smiles>
C=c1c(=Cc2[nH]c(=O)[nH]c2O)cc(C)n1-c1cc(C(=O)N2CCCC2)ccc1F

> <score_type>
oracle

> <origin>
adg

> <m_score__min__energy>
-14.199999999999999

> <m_primary>
energy

> <minimizedAffinity>
-8.59846

> <minimizedRMSD>
2.45805

> <CNNscore>
0.3980608881

> <CNNaffinity>
6.8220295906

> <CNN_VS>
2.7155830860

> <CNNaffinity_variance>
0.1077196598

$$$$
0:0


 29 31  0  0  0  0  0  0  0  0999 V2000
   58.6265   29.6950   44.9234 C   0  0  0  0  0  0  0  0  0  0  0  0
   58.9276   28.8319   45.9069 C   0  0  0  0  0  0  0  0  0  0  0  0
   58.3007   27.6001   46.1596 C   0  0  0  0  0  0  0  0  0  0  0  0
   57.4207   26.8868   45.4282 C   0  0  0  0  0  0  0  0  0  0  0  0
   58.7775   27.1653   47.3822 C   0  0  0  0  0  0  0  0  0  0  0  0
   59.7186   28.0845   47.7959 C   0  0  0  0  0  0  0  0  0  0  0  0
   60.4766   27.9925   49.0857 C   0  0  0  0  0  0  0  0  0  0  0  0
   59.8124   29.1013   46.9078 N   0  0  0  0  0  0  0  0  0  0  0  0
   57.2152   25.4318   45.5181 C   0  0  0  0  0  0  0  0  0  0  0  0
   58.1914   24.5087   45.4867 N   0  0  0  0  0  0  0  0  0  0  0  0
   57.5653   23.3441   45.7463 C   0  0  0  0  0  0  0  0  0  0  0  0
   58.1664   22.2384   45.7946 O   0  0  0  0  0  0  0  0  0  0  0  0
   56.2384   23.4684   45.9673 N   0  0  0  0  0  0  0  0  0  0  0  0
   56.0376   24.7950   45.8328 C   0  0  0  0  0  0  0  0  0  0  0  0
   54.8021   25.4085   46.0003 O   0  0  0  0  0  0  0  0  0  0  0  0
   59.1499   24.6514   45.3129 H   0  0  0  0  0  0  0  0  0  0  0  0
   60.7267   30.2529   47.0277 C   0  0  0  0  0  0  0  0  0  0  0  0
   60.1932   31.2859   48.0312 C   0  0  0  0  0  0  0  0  0  0  0  0
   61.3044   32.0666   48.6910 C   0  0  0  0  0  0  0  0  0  0  0  0
   62.4059   31.3807   49.2283 C   0  0  0  0  0  0  0  0  0  0  0  0
   63.4538   32.0833   49.8236 C   0  0  0  0  0  0  0  0  0  0  0  0
   63.4210   33.4755   49.8729 C   0  0  0  0  0  0  0  0  0  0  0  0
   62.3393   34.1733   49.3332 C   0  0  0  0  0  0  0  0  0  0  0  0
   61.2650   33.4768   48.7402 C   0  0  0  0  0  0  0  0  0  0  0  0
   60.1598   34.1351   48.1720 O   0  0  0  0  0  0  0  0  0  0  0  0
   60.0572   34.6505   46.8411 C   0  0  0  0  0  0  0  0  0  0  0  0
   58.6928   34.3238   46.2016 C   0  0  0  0  0  0  0  0  0  0  0  0
   58.8590   33.8436   44.7535 C   0  0  0  0  0  0  0  0  0  0  0  0
   57.8925   33.3050   47.0203 C   0  0  0  0  0  0  0  0  0  0  0  0
  1  2  2  0
  2  3  1  0
  3  4  2  0
  4  9  1  0
  9 10  1  0
 10 11  1  0
 11 12  2  0
 11 13  1  0
 13 14  1  0
 14 15  1  0
  3  5  1  0
  5  6  2  0
  6  7  1  0
  6  8  1  0
  8 17  1  0
 17 18  1  0
 18 19  1  0
 19 20  2  0
 20 21  1  0
 21 22  2  0
 22 23  1  0
 23 24  2  0
 24 25  1  0
 25 26  1  0
 26 27  1  0
 27 28  1  0
 27 29  1  0
  8  2  1  0
 24 19  1  0
 14  9  2  0
 10 16  1  0
M  CHG 1  13  -1
M  CHG 1  15  -1
M  END
> <UniqueID>
1

> <SMILES>
C=c1c(=Cc2[nH]c(=O)[n-]c2[O-])cc(C)n1CCc1ccccc1OCC(C)C

> <Energy>
116.11415903765356

> <Genealogy>
C=c1c(=Cc2[nH]c(=O)[n-]c2[O-])cc(C)n1CCc1ccccc1OCC(C)C (protonated)
C=c1c(=Cc2[nH]c(=O)[n-]c2[O-])cc(C)n1CCc1ccccc1OCC(C)C (3D coordinates assigned)
C=c1c(=Cc2[nH]c(=O)[n-]c2[O-])cc(C)n1CCc1ccccc1OCC(C)C (optimized conformer: 116.11415903765356 kcal/mol)

> <smiles>
C=c1c(=Cc2[nH]c(=O)[nH]c2O)cc(C)n1CCc1ccccc1OCC(C)C

> <score_type>
oracle

> <origin>
adg

> <m_score__min__energy>
-14.25

> <m_primary>
energy

> <minimizedAffinity>
-8.05254

> <minimizedRMSD>
1.02017

> <CNNscore>
0.2754355967

> <CNNaffinity>
6.7499594688

> <CNN_VS>
1.8591791391

> <CNNaffinity_variance>
0.0130184591

$$$$
7:0


 33 36  0  0  0  0  0  0  0  0999 V2000
   58.6304   29.9883   44.3837 C   0  0  0  0  0  0  0  0  0  0  0  0
   57.6652   25.5630   46.4344 C   0  0  0  0  0  0  0  0  0  0  0  0
   58.2590   26.6947   46.0076 C   0  0  0  0  0  0  0  0  0  0  0  0
   59.6210   26.9097   46.1168 C   0  0  0  0  0  0  0  0  0  0  0  0
   59.8870   28.1187   45.5108 C   0  0  0  0  0  0  0  0  0  0  0  0
   61.2661   28.6820   45.3234 C   0  0  0  0  0  0  0  0  0  0  0  0
   58.7444   28.6800   45.0498 N   0  0  0  0  0  0  0  0  0  0  0  0
   57.7319   27.8318   45.3736 C   0  0  0  0  0  0  0  0  0  0  0  0
   56.4347   28.1296   45.2012 C   0  0  0  0  0  0  0  0  0  0  0  0
   54.6293   25.5868   45.9362 O   0  0  0  0  0  0  0  0  0  0  0  0
   55.5248   24.6942   45.3583 C   0  0  0  0  0  0  0  0  0  0  0  0
   55.1811   23.7674   44.4484 N   0  0  0  0  0  0  0  0  0  0  0  0
   56.3645   23.1911   44.1507 C   0  0  0  0  0  0  0  0  0  0  0  0
   56.4718   22.2599   43.3112 O   0  0  0  0  0  0  0  0  0  0  0  0
   57.4268   23.7018   44.8108 N   0  0  0  0  0  0  0  0  0  0  0  0
   56.8794   24.6392   45.6032 C   0  0  0  0  0  0  0  0  0  0  0  0
   53.7208   25.5516   45.7097 H   0  0  0  0  0  0  0  0  0  0  0  0
   58.4963   31.1033   45.3916 C   0  0  0  0  0  0  0  0  0  0  0  0
   57.9404   32.3379   45.0204 C   0  0  0  0  0  0  0  0  0  0  0  0
   57.8096   33.3629   45.9582 C   0  0  0  0  0  0  0  0  0  0  0  0
   58.2197   33.1638   47.2793 C   0  0  0  0  0  0  0  0  0  0  0  0
   58.7552   31.9293   47.6782 C   0  0  0  0  0  0  0  0  0  0  0  0
   58.8995   30.9049   46.7239 C   0  0  0  0  0  0  0  0  0  0  0  0
   59.2029   31.7303   49.0781 C   0  0  0  0  0  0  0  0  0  0  0  0
   58.4430   32.0777   50.0205 O   0  0  0  0  0  0  0  0  0  0  0  0
   60.5041   31.2157   49.4035 N   0  0  0  0  0  0  0  0  0  0  0  0
   61.6314   31.8620   49.3044 C   0  0  0  0  0  0  0  0  0  0  0  0
   61.7512   32.9503   48.4898 N   0  0  0  0  0  0  0  0  0  0  0  0
   62.9228   33.6268   48.3635 C   0  0  0  0  0  0  0  0  0  0  0  0
   64.0522   33.2103   49.0721 C   0  0  0  0  0  0  0  0  0  0  0  0
   63.9636   32.0954   49.9167 C   0  0  0  0  0  0  0  0  0  0  0  0
   65.1705   31.5989   50.6571 C   0  0  0  0  0  0  0  0  0  0  0  0
   62.7457   31.4112   50.0226 C   0  0  0  0  0  0  0  0  0  0  0  0
 10 11  1  0
 11 12  1  0
 12 13  1  0
 13 14  2  0
 13 15  1  0
 15 16  1  0
 16  2  1  0
  2  3  2  0
  3  4  1  0
  4  5  2  0
  5  6  1  0
  5  7  1  0
  7  1  1  0
  1 18  1  0
 18 19  2  0
 19 20  1  0
 20 21  2  0
 21 22  1  0
 22 24  1  0
 24 25  2  0
 24 26  1  0
 26 27  2  0
 27 28  1  0
 28 29  1  0
 29 30  2  0
 30 31  1  0
 31 32  1  0
 31 33  2  0
 22 23  2  0
  7  8  1  0
  8  9  2  0
 16 11  2  0
  8  3  1  0
 23 18  1  0
 33 27  1  0
 10 17  1  0
M  CHG 1  12  -1
M  CHG 1  15  -1
M  CHG 1  28  -1
M  END
> <UniqueID>
7

> <SMILES>
C=c1/c(=C\c2[n-]c(=O)[n-]c2O)cc(C)n1Cc1cccc(C(=O)/N=c2/cc(C)cc[n-]2)c1

> <Energy>
131.76412792683814

> <Genealogy>
C=c1c(=Cc2[n-]c(=O)[n-]c2O)cc(C)n1Cc1cccc(C(=O)N=c2cc(C)cc[n-]2)c1 (protonated)
C=c1/c(=C\c2[n-]c(=O)[n-]c2O)cc(C)n1Cc1cccc(C(=O)/N=c2/cc(C)cc[n-]2)c1 (cis-trans isomerization)
C=c1/c(=C\c2[n-]c(=O)[n-]c2O)cc(C)n1Cc1cccc(C(=O)/N=c2/cc(C)cc[n-]2)c1 (3D coordinates assigned)
C=c1/c(=C\c2[n-]c(=O)[n-]c2O)cc(C)n1Cc1cccc(C(=O)/N=c2/cc(C)cc[n-]2)c1 (optimized conformer: 131.76412792683814 kcal/mol)

> <smiles>
C=c1c(=Cc2[nH]c(=O)[nH]c2O)cc(C)n1Cc1cccc(C(=O)N=c2cc(C)cc[nH]2)c1

> <score_type>
oracle

> <origin>
adg

> <m_score__min__energy>
-15.619999999999999

> <m_primary>
energy

> <minimizedAffinity>
-8.27663

> <minimizedRMSD>
0.78428

> <CNNscore>
0.5293506980

> <CNNaffinity>
7.0610656738

> <CNN_VS>
3.7377800941

> <CNNaffinity_variance>
0.0867133364

$$$$
14:0


 29 31  0  0  0  0  0  0  0  0999 V2000
   54.3796   29.9743   55.5851 C   0  0  0  0  0  0  0  0  0  0  0  0
   54.7882   30.0328   54.3067 C   0  0  0  0  0  0  0  0  0  0  0  0
   53.9854   29.8356   53.1723 C   0  0  0  0  0  0  0  0  0  0  0  0
   52.6457   29.7912   53.0277 C   0  0  0  0  0  0  0  0  0  0  0  0
   54.8501   29.7283   52.0998 C   0  0  0  0  0  0  0  0  0  0  0  0
   56.1202   29.9547   52.5829 C   0  0  0  0  0  0  0  0  0  0  0  0
   57.3513   29.9272   51.7269 C   0  0  0  0  0  0  0  0  0  0  0  0
   56.0941   30.1366   53.9277 N   0  0  0  0  0  0  0  0  0  0  0  0
   51.7067   30.8887   53.3229 C   0  0  0  0  0  0  0  0  0  0  0  0
   51.2923   31.2385   54.5544 N   0  0  0  0  0  0  0  0  0  0  0  0
   50.5891   32.3706   54.3383 C   0  0  0  0  0  0  0  0  0  0  0  0
   50.0148   32.9993   55.2649 O   0  0  0  0  0  0  0  0  0  0  0  0
   50.5582   32.7822   53.0531 N   0  0  0  0  0  0  0  0  0  0  0  0
   51.2837   31.8411   52.4271 C   0  0  0  0  0  0  0  0  0  0  0  0
   51.5601   31.8582   51.0667 O   0  0  0  0  0  0  0  0  0  0  0  0
   57.2757   30.3608   54.7835 C   0  0  0  0  0  0  0  0  0  0  0  0
   57.7057   31.8378   54.8023 C   0  0  0  0  0  0  0  0  0  0  0  0
   58.1464   32.3587   53.4341 C   0  0  0  0  0  0  0  0  0  0  0  0
   59.5937   32.2531   53.2976 N   0  0  0  0  0  0  0  0  0  0  0  0
   60.2349   32.2513   52.0234 C   0  0  0  0  0  0  0  0  0  0  0  0
   61.3806   31.7378   51.9114 O   0  0  0  0  0  0  0  0  0  0  0  0
   59.5851   32.7998   50.9130 O   0  0  0  0  0  0  0  0  0  0  0  0
   60.2267   33.6689   49.9842 C   0  0  0  0  0  0  0  0  0  0  0  0
   59.7131   33.3981   48.5961 C   0  0  0  0  0  0  0  0  0  0  0  0
   59.7331   34.4055   47.6174 C   0  0  0  0  0  0  0  0  0  0  0  0
   59.2872   34.1326   46.3203 C   0  0  0  0  0  0  0  0  0  0  0  0
   58.8231   32.8566   45.9931 C   0  0  0  0  0  0  0  0  0  0  0  0
   58.8136   31.8455   46.9582 C   0  0  0  0  0  0  0  0  0  0  0  0
   59.2644   32.1130   48.2543 C   0  0  0  0  0  0  0  0  0  0  0  0
  1  2  2  0
  2  3  1  0
  3  4  2  0
  4  9  1  0
  9 10  1  0
 10 11  1  0
 11 12  2  0
 11 13  1  0
 13 14  1  0
 14 15  1  0
  3  5  1  0
  5  6  2  0
  6  7  1  0
  6  8  1  0
  8 16  1  0
 16 17  1  0
 17 18  1  0
 18 19  1  0
 19 20  1  0
 20 21  2  0
 20 22  1  0
 22 23  1  0
 23 24  1  0
 24 25  2  0
 25 26  1  0
 26 27  2  0
 27 28  1  0
 28 29  2  0
  8  2  1  0
 29 24  1  0
 14  9  2  0
M  CHG 1  10  -1
M  CHG 1  13  -1
M  CHG 1  15  -1
M  CHG 1  19  -1
M  END
> <UniqueID>
12

> <SMILES>
C=c1c(=Cc2[n-]c(=O)[n-]c2[O-])cc(C)n1CCC[N-]C(=O)OCc1ccccc1

> <Energy>
107.65801136660231

> <Genealogy>
C=c1c(=Cc2[n-]c(=O)[n-]c2[O-])cc(C)n1CCC[N-]C(=O)OCc1ccccc1 (protonated)
C=c1c(=Cc2[n-]c(=O)[n-]c2[O-])cc(C)n1CCC[N-]C(=O)OCc1ccccc1 (3D coordinates assigned)
C=c1c(=Cc2[n-]c(=O)[n-]c2[O-])cc(C)n1CCC[N-]C(=O)OCc1ccccc1 (optimized conformer: 107.65801136660231 kcal/mol)

> <smiles>
C=c1c(=Cc2[nH]c(=O)[nH]c2O)cc(C)n1CCCNC(=O)OCc1ccccc1

> <score_type>
oracle

> <origin>
adg

> <m_score__min__energy>
-17.59

> <m_primary>
energy

> <minimizedAffinity>
-5.42924

> <minimizedRMSD>
0.89037

> <CNNscore>
0.2543460727

> <CNNaffinity>
6.0236954689

> <CNN_VS>
1.5321033001

> <CNNaffinity_variance>
0.0354150794

$$$$
20:0


 31 34  0  0  0  0  0  0  0  0999 V2000
   57.7218   29.0333   53.6262 C   0  0  0  0  0  0  0  0  0  0  0  0
   55.7546   30.8075   52.2218 C   0  0  0  0  0  0  0  0  0  0  0  0
   55.4040   29.9927   53.2296 C   0  0  0  0  0  0  0  0  0  0  0  0
   54.1466   29.9184   53.8515 C   0  0  0  0  0  0  0  0  0  0  0  0
   52.9527   30.4343   53.5006 C   0  0  0  0  0  0  0  0  0  0  0  0
   54.3212   29.1441   54.9852 C   0  0  0  0  0  0  0  0  0  0  0  0
   55.6334   28.7226   54.9840 C   0  0  0  0  0  0  0  0  0  0  0  0
   56.2372   27.8233   56.0223 C   0  0  0  0  0  0  0  0  0  0  0  0
   56.2904   29.2147   53.9083 N   0  0  0  0  0  0  0  0  0  0  0  0
   52.4593   30.5934   52.1222 C   0  0  0  0  0  0  0  0  0  0  0  0
   52.6295   29.6924   51.1382 N   0  0  0  0  0  0  0  0  0  0  0  0
   51.8967   30.1982   50.1226 C   0  0  0  0  0  0  0  0  0  0  0  0
   51.8157   29.6365   48.9991 O   0  0  0  0  0  0  0  0  0  0  0  0
   51.2504   31.3489   50.4085 N   0  0  0  0  0  0  0  0  0  0  0  0
   51.6065   31.5752   51.6820 C   0  0  0  0  0  0  0  0  0  0  0  0
   51.1561   32.6565   52.4309 O   0  0  0  0  0  0  0  0  0  0  0  0
   58.5433   30.1403   54.2921 C   0  0  0  0  0  0  0  0  0  0  0  0
   59.5640   30.6933   53.3308 C   0  0  0  0  0  0  0  0  0  0  0  0
   59.2329   31.7930   52.5214 C   0  0  0  0  0  0  0  0  0  0  0  0
   60.1792   32.3438   51.6427 C   0  0  0  0  0  0  0  0  0  0  0  0
   61.4653   31.7884   51.5773 C   0  0  0  0  0  0  0  0  0  0  0  0
   61.8060   30.7053   52.3902 C   0  0  0  0  0  0  0  0  0  0  0  0
   60.8662   30.1592   53.2701 C   0  0  0  0  0  0  0  0  0  0  0  0
   61.2328   29.0914   54.0804 O   0  0  0  0  0  0  0  0  0  0  0  0
   59.7995   33.5060   50.7632 C   0  0  0  0  0  0  0  0  0  0  0  0
   59.6698   33.0702   49.3582 N   0  0  0  0  0  0  0  0  0  0  0  0
   60.8739   33.4436   48.5892 C   0  0  0  0  0  0  0  0  0  0  0  0
   60.8698   32.7848   47.1956 C   0  0  0  0  0  0  0  0  0  0  0  0
   59.5967   32.2484   46.8933 O   0  0  0  0  0  0  0  0  0  0  0  0
   59.3006   31.1913   47.7880 C   0  0  0  0  0  0  0  0  0  0  0  0
   59.4472   31.6139   49.2655 C   0  0  0  0  0  0  0  0  0  0  0  0
  2  3  2  0
  3  4  1  0
  4  5  2  0
  5 10  1  0
 10 11  1  0
 11 12  1  0
 12 13  2  0
 12 14  1  0
 14 15  1  0
 15 16  1  0
  4  6  1  0
  6  7  2  0
  7  8  1  0
  7  9  1  0
  9  1  1  0
  1 17  1  0
 17 18  1  0
 18 19  2  0
 19 20  1  0
 20 25  1  0
 25 26  1  0
 26 27  1  0
 27 28  1  0
 28 29  1  0
 29 30  1  0
 30 31  1  0
 20 21  2  0
 21 22  1  0
 22 23  2  0
 23 24  1  0
  9  3  1  0
 23 18  1  0
 15 10  2  0
 31 26  1  0
M  CHG 1  11  -1
M  CHG 1  14  -1
M  CHG 1  16  -1
M  CHG 1  24  -1
M  END
> <UniqueID>
18

> <SMILES>
C=c1c(=Cc2[n-]c(=O)[n-]c2[O-])cc(C)n1CCc1cc(CN2CCOCC2)ccc1[O-]

> <Energy>
132.16060518404953

> <Genealogy>
C=c1c(=Cc2[n-]c(=O)[n-]c2[O-])cc(C)n1CCc1cc(CN2CCOCC2)ccc1[O-] (protonated)
C=c1c(=Cc2[n-]c(=O)[n-]c2[O-])cc(C)n1CCc1cc(CN2CCOCC2)ccc1[O-] (3D coordinates assigned)
C=c1c(=Cc2[n-]c(=O)[n-]c2[O-])cc(C)n1CCc1cc(CN2CCOCC2)ccc1[O-] (nonaromatic ring conformer: 132.16060518404953 kcal/mol)

> <smiles>
C=c1c(=Cc2[nH]c(=O)[nH]c2O)cc(C)n1CCc1cc(CN2CCOCC2)ccc1O

> <score_type>
oracle

> <origin>
adg

> <m_score__min__energy>
-17.960000000000001

> <m_primary>
energy

> <minimizedAffinity>
-5.46508

> <minimizedRMSD>
1.09257

> <CNNscore>
0.0308223721

> <CNNaffinity>
4.6934056282

> <CNN_VS>
0.1446618885

> <CNNaffinity_variance>
0.3861126900

$$$$
24:0


 35 39  0  0  0  0  0  0  0  0999 V2000
   55.2014   29.1859   55.2142 C   0  0  0  0  0  0  0  0  0  0  0  0
   55.6063   29.7087   54.0461 C   0  0  0  0  0  0  0  0  0  0  0  0
   54.8057   30.3618   53.0948 C   0  0  0  0  0  0  0  0  0  0  0  0
   53.4685   30.4698   52.9860 C   0  0  0  0  0  0  0  0  0  0  0  0
   55.6772   30.9404   52.1892 C   0  0  0  0  0  0  0  0  0  0  0  0
   56.9503   30.5908   52.5805 C   0  0  0  0  0  0  0  0  0  0  0  0
   56.9140   29.8136   53.6872 N   0  0  0  0  0  0  0  0  0  0  0  0
   52.7185   30.6026   51.7282 C   0  0  0  0  0  0  0  0  0  0  0  0
   52.7980   29.7201   50.7182 N   0  0  0  0  0  0  0  0  0  0  0  0
   51.8685   30.1620   49.8421 C   0  0  0  0  0  0  0  0  0  0  0  0
   51.6519   29.5947   48.7413 O   0  0  0  0  0  0  0  0  0  0  0  0
   51.1823   31.2523   50.2458 N   0  0  0  0  0  0  0  0  0  0  0  0
   51.7216   31.5112   51.4478 C   0  0  0  0  0  0  0  0  0  0  0  0
   51.2929   32.5356   52.2820 O   0  0  0  0  0  0  0  0  0  0  0  0
   58.1809   31.0602   51.9095 C   0  0  0  0  0  0  0  0  0  0  0  0
   59.1417   30.2492   51.8105 O   0  0  0  0  0  0  0  0  0  0  0  0
   58.3228   32.4016   51.3605 N   0  0  0  0  0  0  0  0  0  0  0  0
   58.2566   33.4281   52.4225 C   0  0  0  0  0  0  0  0  0  0  0  0
   59.4459   33.3407   53.3939 C   0  0  0  0  0  0  0  0  0  0  0  0
   60.7566   33.0962   52.6902 C   0  0  0  0  0  0  0  0  0  0  0  0
   61.9511   33.1681   53.4226 C   0  0  0  0  0  0  0  0  0  0  0  0
   63.1725   32.8615   52.8169 C   0  0  0  0  0  0  0  0  0  0  0  0
   63.2102   32.4741   51.4765 C   0  0  0  0  0  0  0  0  0  0  0  0
   62.0279   32.3900   50.7384 C   0  0  0  0  0  0  0  0  0  0  0  0
   60.7941   32.6840   51.3408 C   0  0  0  0  0  0  0  0  0  0  0  0
   59.5267   32.6088   50.5236 C   0  0  0  0  0  0  0  0  0  0  0  0
   59.0805   32.7263   50.8223 H   0  0  0  0  0  0  0  0  0  0  0  0
   58.0774   29.2223   54.3694 C   0  0  0  0  0  0  0  0  0  0  0  0
   58.7558   30.2347   55.2610 C   0  0  0  0  0  0  0  0  0  0  0  0
   57.9866   31.1540   55.9962 C   0  0  0  0  0  0  0  0  0  0  0  0
   58.6083   32.0959   56.8212 C   0  0  0  0  0  0  0  0  0  0  0  0
   60.0013   32.1352   56.9124 C   0  0  0  0  0  0  0  0  0  0  0  0
   60.7755   31.2359   56.1760 C   0  0  0  0  0  0  0  0  0  0  0  0
   60.1598   30.2909   55.3487 C   0  0  0  0  0  0  0  0  0  0  0  0
   60.9344   29.4388   54.6337 F   0  0  0  0  0  0  0  0  0  0  0  0
  1  2  2  0
  2  3  1  0
  3  4  2  0
  4  8  1  0
  8  9  1  0
  9 10  1  0
 10 11  2  0
 10 12  1  0
 12 13  1  0
 13 14  1  0
  3  5  1  0
  5  6  2  0
  6 15  1  0
 15 16  2  0
 17 15  1  0
 17 18  1  0
 18 19  1  0
 19 20  1  0
 20 21  2  0
 21 22  1  0
 22 23  2  0
 23 24  1  0
 24 25  2  0
 25 26  1  0
  6  7  1  0
  7 28  1  0
 28 29  1  0
 29 30  2  0
 30 31  1  0
 31 32  2  0
 32 33  1  0
 33 34  2  0
 34 35  1  0
  7  2  1  0
 34 29  1  0
 13  8  2  0
 26 17  1  0
 25 20  1  0
 17 27  1  0
M  CHG 1   9  -1
M  CHG 1  12  -1
M  CHG 1  14  -1
M  CHG 1  17   1
M  END
> <UniqueID>
22

> <SMILES>
C=c1c(=Cc2[n-]c(=O)[n-]c2[O-])cc(C(=O)[N@H+]2CCc3ccccc3C2)n1Cc1ccccc1F

> <Energy>
144.9664289799988

> <Genealogy>
C=c1c(=Cc2[n-]c(=O)[n-]c2[O-])cc(C(=O)[NH+]2CCc3ccccc3C2)n1Cc1ccccc1F (protonated)
C=c1c(=Cc2[n-]c(=O)[n-]c2[O-])cc(C(=O)[N@H+]2CCc3ccccc3C2)n1Cc1ccccc1F (chirality)
C=c1c(=Cc2[n-]c(=O)[n-]c2[O-])cc(C(=O)[N@H+]2CCc3ccccc3C2)n1Cc1ccccc1F (3D coordinates assigned)
C=c1c(=Cc2[n-]c(=O)[n-]c2[O-])cc(C(=O)[N@H+]2CCc3ccccc3C2)n1Cc1ccccc1F (nonaromatic ring conformer: 144.9664289799988 kcal/mol)

> <smiles>
C=c1c(=Cc2[nH]c(=O)[nH]c2O)cc(C(=O)N2CCc3ccccc3C2)n1Cc1ccccc1F

> <score_type>
oracle

> <origin>
adg

> <m_score__min__energy>
-15.98

> <m_primary>
energy

> <minimizedAffinity>
-5.41350

> <minimizedRMSD>
1.37268

> <CNNscore>
0.0951735452

> <CNNaffinity>
4.9530072212

> <CNN_VS>
0.4713952541

> <CNNaffinity_variance>
0.6845719814

$$$$
33:0


 31 33  0  0  0  0  0  0  0  0999 V2000
   57.4190   25.3577   45.7233 N   0  0  0  0  0  0  0  0  0  0  0  0
   57.7725   24.1551   46.2035 C   0  0  0  0  0  0  0  0  0  0  0  0
   58.9623   23.5026   45.9022 O   0  0  0  0  0  0  0  0  0  0  0  0
   56.7813   23.6954   47.0416 C   0  0  0  0  0  0  0  0  0  0  0  0
   55.7872   24.6078   47.1038 N   0  0  0  0  0  0  0  0  0  0  0  0
   56.2219   25.6028   46.2976 C   0  0  0  0  0  0  0  0  0  0  0  0
   55.5738   26.6702   46.1217 O   0  0  0  0  0  0  0  0  0  0  0  0
   58.2303   26.2698   44.9188 C   0  0  0  0  0  0  0  0  0  0  0  0
   58.7564   28.4826   46.0353 N   0  0  0  0  0  0  0  0  0  0  0  0
   59.0805   27.1034   45.8273 C   0  0  0  0  0  0  0  0  0  0  0  0
   60.1178   26.6067   46.3462 O   0  0  0  0  0  0  0  0  0  0  0  0
   57.8122   28.7519   46.1071 H   0  0  0  0  0  0  0  0  0  0  0  0
   59.8007   29.4961   46.1429 C   0  0  0  0  0  0  0  0  0  0  0  0
   58.1487   31.1086   45.0621 C   0  0  0  0  0  0  0  0  0  0  0  0
   57.5711   32.3961   44.9926 C   0  0  0  0  0  0  0  0  0  0  0  0
   58.0061   33.4138   45.8425 C   0  0  0  0  0  0  0  0  0  0  0  0
   59.0196   33.1674   46.7724 C   0  0  0  0  0  0  0  0  0  0  0  0
   59.5820   34.4625   47.8168 Cl  0  0  0  0  0  0  0  0  0  0  0  0
   59.6065   31.9003   46.8478 C   0  0  0  0  0  0  0  0  0  0  0  0
   59.1910   30.8679   45.9882 C   0  0  0  0  0  0  0  0  0  0  0  0
   56.4724   30.0376   43.5365 C   0  0  0  0  0  0  0  0  0  0  0  0
   57.7153   30.0571   44.2331 O   0  0  0  0  0  0  0  0  0  0  0  0
   56.7539   22.3778   47.7526 C   0  0  0  0  0  0  0  0  0  0  0  0
   55.6917   21.4863   47.1858 C   0  0  0  0  0  0  0  0  0  0  0  0
   55.4737   20.3555   47.7012 O   0  0  0  0  0  0  0  0  0  0  0  0
   54.9087   21.9466   46.0762 N   0  0  0  0  0  0  0  0  0  0  0  0
   55.2012   21.7192   44.6606 C   0  0  0  0  0  0  0  0  0  0  0  0
   55.2141   23.0235   43.8525 C   0  0  0  0  0  0  0  0  0  0  0  0
   56.5805   23.1014   43.1814 C   0  0  0  0  0  0  0  0  0  0  0  0
   57.1218   21.6820   43.1857 C   0  0  0  0  0  0  0  0  0  0  0  0
   56.5586   21.0457   44.4457 C   0  0  0  0  0  0  0  0  0  0  0  0
 21 22  1  0
 22 14  1  0
 14 15  2  0
 15 16  1  0
 16 17  2  0
 17 18  1  0
 17 19  1  0
 19 20  2  0
 20 13  1  0
 13  9  1  0
  9 10  1  0
 10 11  2  0
 10  8  1  0
  8  1  1  0
  1  2  1  0
  2  3  1  0
  2  4  2  0
  4 23  1  0
 23 24  1  0
 24 25  2  0
 24 26  1  0
 26 27  1  0
 27 28  1  0
 28 29  1  0
 29 30  1  0
 30 31  1  0
  4  5  1  0
  5  6  1  0
  6  7  2  0
 20 14  1  0
  6  1  1  0
 31 27  1  0
  9 12  1  0
M  CHG 1   3  -1
M  CHG 1   5  -1
M  CHG 1  26  -1
M  END
> <UniqueID>
30

> <SMILES>
COc1ccc(Cl)cc1CNC(=O)Cn1c([O-])c(CC(=O)[N-]C2CCCC2)[n-]c1=O

> <Energy>
75.52929852327574

> <Genealogy>
COc1ccc(Cl)cc1CNC(=O)Cn1c([O-])c(CC(=O)[N-]C2CCCC2)[n-]c1=O (protonated)
COc1ccc(Cl)cc1CNC(=O)Cn1c([O-])c(CC(=O)[N-]C2CCCC2)[n-]c1=O (3D coordinates assigned)
COc1ccc(Cl)cc1CNC(=O)Cn1c([O-])c(CC(=O)[N-]C2CCCC2)[n-]c1=O (nonaromatic ring conformer: 75.52929852327574 kcal/mol)

> <smiles>
COc1ccc(Cl)cc1CNC(=O)Cn1c(O)c(CC(=O)NC2CCCC2)[nH]c1=O

> <score_type>
oracle

> <origin>
adg

> <m_score__min__energy>
-15.119999999999999

> <m_primary>
energy

> <minimizedAffinity>
-6.14343

> <minimizedRMSD>
1.74195

> <CNNscore>
0.2855485082

> <CNNaffinity>
6.2394566536

> <CNN_VS>
1.7816675901

> <CNNaffinity_variance>
0.0838805735

$$$$
37:0


 28 31  0  0  0  0  0  0  0  0999 V2000
   57.4185   28.5757   54.3096 C   0  0  0  0  0  0  0  0  0  0  0  0
   57.2725   29.6305   53.4927 C   0  0  0  0  0  0  0  0  0  0  0  0
   56.1153   30.4096   53.3166 C   0  0  0  0  0  0  0  0  0  0  0  0
   54.8421   30.1989   53.7015 C   0  0  0  0  0  0  0  0  0  0  0  0
   56.5075   31.5303   52.6040 C   0  0  0  0  0  0  0  0  0  0  0  0
   57.8448   31.3664   52.3038 C   0  0  0  0  0  0  0  0  0  0  0  0
   58.6640   32.3446   51.5180 C   0  0  0  0  0  0  0  0  0  0  0  0
   58.3096   30.2160   52.8415 N   0  0  0  0  0  0  0  0  0  0  0  0
   53.6773   30.1197   52.8052 C   0  0  0  0  0  0  0  0  0  0  0  0
   53.7445   29.9499   51.4713 N   0  0  0  0  0  0  0  0  0  0  0  0
   52.4602   30.0816   51.0757 C   0  0  0  0  0  0  0  0  0  0  0  0
   52.1079   29.9703   49.8728 O   0  0  0  0  0  0  0  0  0  0  0  0
   51.5860   30.3516   52.0679 N   0  0  0  0  0  0  0  0  0  0  0  0
   52.3758   30.3865   53.1531 C   0  0  0  0  0  0  0  0  0  0  0  0
   51.9159   30.6620   54.4342 O   0  0  0  0  0  0  0  0  0  0  0  0
   59.6661   29.7384   52.7615 C   0  0  0  0  0  0  0  0  0  0  0  0
   60.5955   30.0842   53.7426 C   0  0  0  0  0  0  0  0  0  0  0  0
   61.9050   29.6141   53.6617 C   0  0  0  0  0  0  0  0  0  0  0  0
   62.2993   28.7880   52.5842 C   0  0  0  0  0  0  0  0  0  0  0  0
   61.3553   28.4631   51.6400 N   0  0  0  0  0  0  0  0  0  0  0  0
   60.0730   28.9162   51.7086 C   0  0  0  0  0  0  0  0  0  0  0  0
   61.6149   27.8829   50.8882 H   0  0  0  0  0  0  0  0  0  0  0  0
   63.6666   28.2853   52.4796 N   0  0  0  0  0  0  0  0  0  0  0  0
   64.7387   29.2032   52.0447 C   0  0  0  0  0  0  0  0  0  0  0  0
   66.1318   28.5675   52.0573 C   0  0  0  0  0  0  0  0  0  0  0  0
   66.0774   27.2298   51.6209 O   0  0  0  0  0  0  0  0  0  0  0  0
   65.4097   26.4713   52.6000 C   0  0  0  0  0  0  0  0  0  0  0  0
   63.9257   26.8408   52.6679 C   0  0  0  0  0  0  0  0  0  0  0  0
  1  2  2  0
  2  3  1  0
  3  4  2  0
  4  9  1  0
  9 10  1  0
 10 11  1  0
 11 12  2  0
 11 13  1  0
 13 14  1  0
 14 15  1  0
  3  5  1  0
  5  6  2  0
  6  7  1  0
  6  8  1  0
  8 16  1  0
 16 17  2  0
 17 18  1  0
 18 19  2  0
 19 23  1  0
 23 24  1  0
 24 25  1  0
 25 26  1  0
 26 27  1  0
 27 28  1  0
 19 20  1  0
 20 21  2  0
  8  2  1  0
 21 16  1  0
 14  9  2  0
 28 23  1  0
 20 22  1  0
M  CHG 1  10  -1
M  CHG 1  13  -1
M  CHG 1  15  -1
M  CHG 1  20   1
M  END
> <UniqueID>
34

> <SMILES>
C=c1/c(=C\c2[n-]c(=O)[n-]c2[O-])cc(C)n1-c1ccc(N2CCOCC2)[nH+]c1

> <Energy>
131.36386471772025

> <Genealogy>
C=c1c(=Cc2[n-]c(=O)[n-]c2[O-])cc(C)n1-c1ccc(N2CCOCC2)[nH+]c1 (protonated)
C=c1/c(=C\c2[n-]c(=O)[n-]c2[O-])cc(C)n1-c1ccc(N2CCOCC2)[nH+]c1 (cis-trans isomerization)
C=c1/c(=C\c2[n-]c(=O)[n-]c2[O-])cc(C)n1-c1ccc(N2CCOCC2)[nH+]c1 (3D coordinates assigned)
C=c1/c(=C\c2[n-]c(=O)[n-]c2[O-])cc(C)n1-c1ccc(N2CCOCC2)[nH+]c1 (nonaromatic ring conformer: 131.36386471772025 kcal/mol)

> <smiles>
C=c1c(=Cc2[nH]c(=O)[nH]c2O)cc(C)n1-c1ccc(N2CCOCC2)nc1

> <score_type>
oracle

> <origin>
adg

> <m_score__min__energy>
-14.460000000000001

> <m_primary>
energy

> <minimizedAffinity>
-5.15333

> <minimizedRMSD>
2.87243

> <CNNscore>
0.1614109576

> <CNNaffinity>
4.8878102303

> <CNN_VS>
0.7889461517

> <CNNaffinity_variance>
0.2796694338

$$$$
48:0


 28 30  0  0  0  0  0  0  0  0999 V2000
   56.9124   25.7905   46.0065 S   0  0  0  0  0  0  0  0  0  0  0  0
   57.6851   25.6939   47.2898 O   0  0  0  0  0  0  0  0  0  0  0  0
   55.5040   26.2275   46.2949 O   0  0  0  0  0  0  0  0  0  0  0  0
   56.6421   22.9953   45.8544 C   0  0  0  0  0  0  0  0  0  0  0  0
   56.6359   21.7990   45.1158 C   0  0  0  0  0  0  0  0  0  0  0  0
   56.8273   21.8109   43.7342 C   0  0  0  0  0  0  0  0  0  0  0  0
   57.0295   23.0165   43.0681 C   0  0  0  0  0  0  0  0  0  0  0  0
   57.0487   24.2147   43.7817 C   0  0  0  0  0  0  0  0  0  0  0  0
   56.8696   24.2254   45.1772 C   0  0  0  0  0  0  0  0  0  0  0  0
   56.5864   21.2516   48.1222 N   0  0  0  0  0  0  0  0  0  0  0  0
   56.3816   22.8883   47.6057 S   0  0  0  0  0  0  0  0  0  0  0  0
   54.9850   23.3291   47.9423 O   0  0  0  0  0  0  0  0  0  0  0  0
   57.3430   23.7802   48.3382 O   0  0  0  0  0  0  0  0  0  0  0  0
   56.4362   21.1916   49.1293 H   0  0  0  0  0  0  0  0  0  0  0  0
   57.6836   26.9726   44.9974 N   0  0  0  0  0  0  0  0  0  0  0  0
   58.3272   28.1391   45.5234 C   0  0  0  0  0  0  0  0  0  0  0  0
   59.4296   27.9558   46.3609 C   0  0  0  0  0  0  0  0  0  0  0  0
   60.1369   29.0472   46.8541 C   0  0  0  0  0  0  0  0  0  0  0  0
   59.7373   30.3499   46.5393 C   0  0  0  0  0  0  0  0  0  0  0  0
   60.4540   31.4432   47.0528 C   0  0  0  0  0  0  0  0  0  0  0  0
   60.0438   32.7460   46.7770 C   0  0  0  0  0  0  0  0  0  0  0  0
   58.9101   32.9726   45.9984 C   0  0  0  0  0  0  0  0  0  0  0  0
   58.1857   31.8967   45.4773 C   0  0  0  0  0  0  0  0  0  0  0  0
   58.5946   30.5653   45.7199 C   0  0  0  0  0  0  0  0  0  0  0  0
   57.8846   29.4450   45.2043 C   0  0  0  0  0  0  0  0  0  0  0  0
   56.6671   29.6130   44.3805 C   0  0  0  0  0  0  0  0  0  0  0  0
   55.5303   29.6546   44.9198 O   0  0  0  0  0  0  0  0  0  0  0  0
   56.7756   29.7629   43.0027 O   0  0  0  0  0  0  0  0  0  0  0  0
 10 11  1  0
 11 12  2  0
 11 13  2  0
 11  4  1  0
  4  5  2  0
  5  6  1  0
  6  7  2  0
  7  8  1  0
  8  9  2  0
  9  1  1  0
  1  2  2  0
  1  3  2  0
  1 15  1  0
 15 16  1  0
 16 17  2  0
 17 18  1  0
 18 19  2  0
 19 20  1  0
 20 21  2  0
 21 22  1  0
 22 23  2  0
 23 24  1  0
 24 25  2  0
 25 26  1  0
 26 27  2  0
 26 28  1  0
  9  4  1  0
 25 16  1  0
 24 19  1  0
 10 14  1  0
M  CHG 1  10  -1
M  CHG 1  15  -1
M  CHG 1  28  -1
M  END
> <UniqueID>
45

> <SMILES>
[NH-]S(=O)(=O)c1ccccc1S(=O)(=O)[N-]c1ccc2ccccc2c1C(=O)[O-]

> <Energy>
66.4726192220059

> <Genealogy>
[NH-]S(=O)(=O)c1ccccc1S(=O)(=O)[N-]c1ccc2ccccc2c1C(=O)[O-] (protonated)
[NH-]S(=O)(=O)c1ccccc1S(=O)(=O)[N-]c1ccc2ccccc2c1C(=O)[O-] (3D coordinates assigned)
[NH-]S(=O)(=O)c1ccccc1S(=O)(=O)[N-]c1ccc2ccccc2c1C(=O)[O-] (optimized conformer: 66.4726192220059 kcal/mol)

> <smiles>
NS(=O)(=O)c1ccccc1S(=O)(=O)Nc1ccc2ccccc2c1C(=O)O

> <score_type>
oracle

> <origin>
adg

> <m_score__min__energy>
-15.06

> <m_primary>
energy

> <minimizedAffinity>
-8.10091

> <minimizedRMSD>
0.85686

> <CNNscore>
0.6979629993

> <CNNaffinity>
6.2265090942

> <CNN_VS>
4.3458728790

> <CNNaffinity_variance>
0.1880216599

$$$$
57:0


 34 37  0  0  0  0  0  0  0  0999 V2000
   58.3832   29.4375   53.1741 C   0  0  0  0  0  0  0  0  0  0  0  0
   58.9975   29.3037   51.9221 C   0  0  0  0  0  0  0  0  0  0  0  0
   60.3895   29.3522   51.8119 C   0  0  0  0  0  0  0  0  0  0  0  0
   61.1856   29.5533   52.9517 C   0  0  0  0  0  0  0  0  0  0  0  0
   60.5668   29.6780   54.2082 C   0  0  0  0  0  0  0  0  0  0  0  0
   59.1743   29.6249   54.3164 C   0  0  0  0  0  0  0  0  0  0  0  0
   56.4155   31.5506   52.4532 C   0  0  0  0  0  0  0  0  0  0  0  0
   56.0646   30.3568   52.9562 C   0  0  0  0  0  0  0  0  0  0  0  0
   54.7664   29.9256   53.2485 C   0  0  0  0  0  0  0  0  0  0  0  0
   53.6228   30.6275   53.1145 C   0  0  0  0  0  0  0  0  0  0  0  0
   54.8894   28.6490   53.7809 C   0  0  0  0  0  0  0  0  0  0  0  0
   56.2361   28.3468   53.7785 C   0  0  0  0  0  0  0  0  0  0  0  0
   56.8277   27.0776   54.3103 C   0  0  0  0  0  0  0  0  0  0  0  0
   56.9506   29.3828   53.2842 N   0  0  0  0  0  0  0  0  0  0  0  0
   52.8286   30.6741   51.8751 C   0  0  0  0  0  0  0  0  0  0  0  0
   52.9681   29.7870   50.8740 N   0  0  0  0  0  0  0  0  0  0  0  0
   52.0086   30.1512   49.9955 C   0  0  0  0  0  0  0  0  0  0  0  0
   51.8356   29.5599   48.8964 O   0  0  0  0  0  0  0  0  0  0  0  0
   51.2499   31.1980   50.3858 N   0  0  0  0  0  0  0  0  0  0  0  0
   51.7746   31.5116   51.5818 C   0  0  0  0  0  0  0  0  0  0  0  0
   51.2713   32.5147   52.4012 O   0  0  0  0  0  0  0  0  0  0  0  0
   62.6588   29.5654   52.8328 C   0  0  0  0  0  0  0  0  0  0  0  0
   63.1993   28.8896   51.9137 O   0  0  0  0  0  0  0  0  0  0  0  0
   63.4853   30.3151   53.7463 N   0  0  0  0  0  0  0  0  0  0  0  0
   63.4190   30.0292   55.1847 C   0  0  0  0  0  0  0  0  0  0  0  0
   64.2318   31.4837   53.2533 C   0  0  0  0  0  0  0  0  0  0  0  0
   63.2626   32.5397   52.7011 C   0  0  0  0  0  0  0  0  0  0  0  0
   62.2070   32.8713   53.6849 N   0  0  0  0  0  0  0  0  0  0  0  0
   60.9627   33.2538   52.9874 C   0  0  0  0  0  0  0  0  0  0  0  0
   59.7870   33.3401   53.9792 C   0  0  0  0  0  0  0  0  0  0  0  0
   60.2530   33.6422   55.4209 C   0  0  0  0  0  0  0  0  0  0  0  0
   59.1145   34.2408   56.2532 C   0  0  0  0  0  0  0  0  0  0  0  0
   61.4721   34.5743   55.4028 C   0  0  0  0  0  0  0  0  0  0  0  0
   62.6432   33.9515   54.6076 C   0  0  0  0  0  0  0  0  0  0  0  0
  7  8  2  0
  8  9  1  0
  9 10  2  0
 10 15  1  0
 15 16  1  0
 16 17  1  0
 17 18  2  0
 17 19  1  0
 19 20  1  0
 20 21  1  0
  9 11  1  0
 11 12  2  0
 12 13  1  0
 12 14  1  0
 14  1  1  0
  1  2  2  0
  2  3  1  0
  3  4  2  0
  4 22  1  0
 22 23  2  0
 22 24  1  0
 24 25  1  0
 24 26  1  0
 26 27  1  0
 27 28  1  0
 28 29  1  0
 29 30  1  0
 30 31  1  0
 31 32  1  0
 31 33  1  0
 33 34  1  0
  4  5  1  0
  5  6  2  0
 14  8  1  0
  6  1  1  0
 20 15  2  0
 34 28  1  0
M  CHG 1  16  -1
M  CHG 1  19  -1
M  CHG 1  21  -1
M  END
> <UniqueID>
53

> <SMILES>
C=c1/c(=C/c2[n-]c(=O)[n-]c2[O-])cc(C)n1-c1ccc(C(=O)N(C)CCN2CCC(C)CC2)cc1

> <Energy>
143.52579787944774

> <Genealogy>
C=c1c(=Cc2[n-]c(=O)[n-]c2[O-])cc(C)n1-c1ccc(C(=O)N(C)CCN2CCC(C)CC2)cc1 (protonated)
C=c1/c(=C/c2[n-]c(=O)[n-]c2[O-])cc(C)n1-c1ccc(C(=O)N(C)CCN2CCC(C)CC2)cc1 (cis-trans isomerization)
C=c1/c(=C/c2[n-]c(=O)[n-]c2[O-])cc(C)n1-c1ccc(C(=O)N(C)CCN2CCC(C)CC2)cc1 (3D coordinates assigned)
C=c1/c(=C/c2[n-]c(=O)[n-]c2[O-])cc(C)n1-c1ccc(C(=O)N(C)CCN2CCC(C)CC2)cc1 (nonaromatic ring conformer: 143.52579787944774 kcal/mol)

> <smiles>
C=c1c(=Cc2[nH]c(=O)[nH]c2O)cc(C)n1-c1ccc(C(=O)N(C)CCN2CCC(C)CC2)cc1

> <score_type>
oracle

> <origin>
adg

> <m_score__min__energy>
-16.579999999999998

> <m_primary>
energy

> <minimizedAffinity>
-4.62576

> <minimizedRMSD>
1.87889

> <CNNscore>
0.0708229095

> <CNNaffinity>
4.3487839699

> <CNN_VS>
0.3079935312

> <CNNaffinity_variance>
1.6200594902

$$$$
60:0


 29 32  0  0  0  0  0  0  0  0999 V2000
   58.8401   29.3388   47.7546 C   0  0  0  0  0  0  0  0  0  0  0  0
   58.4771   30.2022   46.7923 C   0  0  0  0  0  0  0  0  0  0  0  0
   57.9230   29.8806   45.5387 C   0  0  0  0  0  0  0  0  0  0  0  0
   57.5226   28.7043   45.0142 C   0  0  0  0  0  0  0  0  0  0  0  0
   57.7914   31.0762   44.8578 C   0  0  0  0  0  0  0  0  0  0  0  0
   58.2185   32.0746   45.7063 C   0  0  0  0  0  0  0  0  0  0  0  0
   58.0941   33.5403   45.3993 C   0  0  0  0  0  0  0  0  0  0  0  0
   58.6633   31.5514   46.8761 N   0  0  0  0  0  0  0  0  0  0  0  0
   57.8760   27.3707   45.5183 C   0  0  0  0  0  0  0  0  0  0  0  0
   59.1337   26.8764   45.5105 N   0  0  0  0  0  0  0  0  0  0  0  0
   58.9871   25.6237   46.0013 C   0  0  0  0  0  0  0  0  0  0  0  0
   59.9631   24.8480   46.1964 O   0  0  0  0  0  0  0  0  0  0  0  0
   57.7059   25.2924   46.2750 N   0  0  0  0  0  0  0  0  0  0  0  0
   57.0058   26.3999   45.9751 C   0  0  0  0  0  0  0  0  0  0  0  0
   55.6280   26.5299   46.1169 O   0  0  0  0  0  0  0  0  0  0  0  0
   57.2061   24.0727   46.9112 C   0  0  0  0  0  0  0  0  0  0  0  0
   55.9008   23.5669   46.3191 C   0  0  0  0  0  0  0  0  0  0  0  0
   57.2036   22.8509   46.0037 C   0  0  0  0  0  0  0  0  0  0  0  0
   59.1765   32.3311   48.0226 C   0  0  0  0  0  0  0  0  0  0  0  0
   60.7046   32.3885   48.0632 C   0  0  0  0  0  0  0  0  0  0  0  0
   61.4324   33.2100   47.1512 C   0  0  0  0  0  0  0  0  0  0  0  0
   60.7485   34.0130   46.0723 C   0  0  0  0  0  0  0  0  0  0  0  0
   62.8330   33.2919   47.2539 C   0  0  0  0  0  0  0  0  0  0  0  0
   63.5234   32.5590   48.2161 C   0  0  0  0  0  0  0  0  0  0  0  0
   62.8309   31.7195   49.0813 C   0  0  0  0  0  0  0  0  0  0  0  0
   61.4345   31.6103   49.0037 C   0  0  0  0  0  0  0  0  0  0  0  0
   60.7827   30.6582   49.9144 C   0  0  0  0  0  0  0  0  0  0  0  0
   59.8545   31.0444   50.6709 O   0  0  0  0  0  0  0  0  0  0  0  0
   61.1508   29.3179   49.9015 O   0  0  0  0  0  0  0  0  0  0  0  0
  1  2  2  0
  2  3  1  0
  3  4  2  0
  4  9  1  0
  9 10  1  0
 10 11  1  0
 11 12  2  0
 11 13  1  0
 13 16  1  0
 16 17  1  0
 17 18  1  0
 13 14  1  0
 14 15  1  0
  3  5  1  0
  5  6  2  0
  6  7  1  0
  6  8  1  0
  8 19  1  0
 19 20  1  0
 20 21  2  0
 21 22  1  0
 21 23  1  0
 23 24  2  0
 24 25  1  0
 25 26  2  0
 26 27  1  0
 27 28  2  0
 27 29  1  0
  8  2  1  0
 26 20  1  0
 14  9  2  0
 18 16  1  0
M  CHG 1  10  -1
M  CHG 1  15  -1
M  CHG 1  29  -1
M  END
> <UniqueID>
56

> <SMILES>
C=c1c(=Cc2[n-]c(=O)n(C3CC3)c2[O-])cc(C)n1Cc1c(C)cccc1C(=O)[O-]

> <Energy>
402.1468669180056

> <Genealogy>
C=c1c(=Cc2[n-]c(=O)n(C3CC3)c2[O-])cc(C)n1Cc1c(C)cccc1C(=O)[O-] (protonated)
C=c1c(=Cc2[n-]c(=O)n(C3CC3)c2[O-])cc(C)n1Cc1c(C)cccc1C(=O)[O-] (3D coordinates assigned)
C=c1c(=Cc2[n-]c(=O)n(C3CC3)c2[O-])cc(C)n1Cc1c(C)cccc1C(=O)[O-] (nonaromatic ring conformer: 402.1468669180056 kcal/mol)

> <smiles>
C=c1c(=Cc2[nH]c(=O)n(C3CC3)c2O)cc(C)n1Cc1c(C)cccc1C(=O)O

> <score_type>
oracle

> <origin>
adg

> <m_score__min__energy>
-15.43

> <m_primary>
energy

> <minimizedAffinity>
-8.00518

> <minimizedRMSD>
1.35512

> <CNNscore>
0.5867890120

> <CNNaffinity>
7.0659027100

> <CNN_VS>
4.1461939812

> <CNNaffinity_variance>
0.0877764896

$$$$
65:0


 39 42  0  0  0  0  0  0  0  0999 V2000
   59.2667   31.0979   52.5121 C   0  0  0  0  0  0  0  0  0  0  0  0
   59.4084   32.4986   52.4828 C   0  0  0  0  0  0  0  0  0  0  0  0
   59.5425   33.1707   51.2633 C   0  0  0  0  0  0  0  0  0  0  0  0
   59.5650   32.4595   50.0595 C   0  0  0  0  0  0  0  0  0  0  0  0
   59.3759   31.0649   50.0837 C   0  0  0  0  0  0  0  0  0  0  0  0
   59.2339   30.3916   51.2998 C   0  0  0  0  0  0  0  0  0  0  0  0
   59.1577   30.3682   53.8271 C   0  0  0  0  0  0  0  0  0  0  0  0
   56.2484   31.1877   53.5293 C   0  0  0  0  0  0  0  0  0  0  0  0
   56.6555   29.9097   53.6188 C   0  0  0  0  0  0  0  0  0  0  0  0
   55.8351   28.7683   53.6071 C   0  0  0  0  0  0  0  0  0  0  0  0
   54.5295   28.6220   53.3112 C   0  0  0  0  0  0  0  0  0  0  0  0
   56.6514   27.6962   53.9225 C   0  0  0  0  0  0  0  0  0  0  0  0
   57.9318   28.1919   54.0376 C   0  0  0  0  0  0  0  0  0  0  0  0
   59.1439   27.3495   54.3001 C   0  0  0  0  0  0  0  0  0  0  0  0
   57.9434   29.5344   53.8561 N   0  0  0  0  0  0  0  0  0  0  0  0
   53.6023   29.7216   53.0042 C   0  0  0  0  0  0  0  0  0  0  0  0
   53.3330   30.3647   51.4647 S   0  0  0  0  0  0  0  0  0  0  0  0
   52.0476   31.3073   51.9870 C   0  0  0  0  0  0  0  0  0  0  0  0
   51.3885   32.0826   51.2457 O   0  0  0  0  0  0  0  0  0  0  0  0
   51.7788   31.1340   53.2955 N   0  0  0  0  0  0  0  0  0  0  0  0
   52.6304   30.2358   53.8617 C   0  0  0  0  0  0  0  0  0  0  0  0
   52.5229   29.8848   55.2055 O   0  0  0  0  0  0  0  0  0  0  0  0
   51.8489   30.2623   55.7358 H   0  0  0  0  0  0  0  0  0  0  0  0
   59.7281   33.1879   48.8342 N   0  0  0  0  0  0  0  0  0  0  0  0
   59.0008   32.9857   47.6116 C   0  0  0  0  0  0  0  0  0  0  0  0
   58.1988   33.8651   47.1953 O   0  0  0  0  0  0  0  0  0  0  0  0
   59.0998   31.6877   46.9179 C   0  0  0  0  0  0  0  0  0  0  0  0
   60.2354   31.2697   46.5730 O   0  0  0  0  0  0  0  0  0  0  0  0
   57.9637   30.8492   46.6762 N   0  0  0  0  0  0  0  0  0  0  0  0
   57.7353   29.8301   45.2892 S   0  0  0  0  0  0  0  0  0  0  0  0
   56.3065   29.8596   44.8177 O   0  0  0  0  0  0  0  0  0  0  0  0
   58.6287   30.3076   44.1752 O   0  0  0  0  0  0  0  0  0  0  0  0
   58.1614   28.1705   45.7377 C   0  0  0  0  0  0  0  0  0  0  0  0
   57.1347   27.2704   46.0789 C   0  0  0  0  0  0  0  0  0  0  0  0
   57.4354   25.9517   46.4344 C   0  0  0  0  0  0  0  0  0  0  0  0
   58.7606   25.5135   46.4530 C   0  0  0  0  0  0  0  0  0  0  0  0
   59.7924   26.3887   46.1079 C   0  0  0  0  0  0  0  0  0  0  0  0
   59.5105   27.7229   45.7491 C   0  0  0  0  0  0  0  0  0  0  0  0
   60.6556   28.6333   45.3647 C   0  0  0  0  0  0  0  0  0  0  0  0
  8  9  2  0
  9 10  1  0
 10 11  2  0
 11 16  1  0
 16 17  1  0
 17 18  1  0
 18 19  2  0
 18 20  1  0
 20 21  1  0
 21 22  1  0
 10 12  1  0
 12 13  2  0
 13 14  1  0
 13 15  1  0
 15  7  1  0
  7  1  1  0
  1  2  2  0
  2  3  1  0
  3  4  2  0
  4 24  1  0
 24 25  1  0
 25 26  2  0
 25 27  1  0
 27 28  2  0
 27 29  1  0
 29 30  1  0
 30 31  2  0
 30 32  2  0
 30 33  1  0
 33 34  2  0
 34 35  1  0
 35 36  2  0
 36 37  1  0
 37 38  2  0
 38 39  1  0
  4  5  1  0
  5  6  2  0
 15  9  1  0
  6  1  1  0
 21 16  2  0
 38 33  1  0
 22 23  1  0
M  CHG 1  20  -1
M  CHG 1  24  -1
M  CHG 1  29  -1
M  END
> <UniqueID>
60

> <SMILES>
C=c1c(=Cc2sc(=O)[n-]c2O)cc(C)n1Cc1ccc([N-]C(=O)C(=O)[N-]S(=O)(=O)c2ccccc2C)cc1

> <Energy>
145.4795795470627

> <Genealogy>
C=c1c(=Cc2sc(=O)[n-]c2O)cc(C)n1Cc1ccc([N-]C(=O)C(=O)[N-]S(=O)(=O)c2ccccc2C)cc1 (protonated)
C=c1c(=Cc2sc(=O)[n-]c2O)cc(C)n1Cc1ccc([N-]C(=O)C(=O)[N-]S(=O)(=O)c2ccccc2C)cc1 (3D coordinates assigned)
C=c1c(=Cc2sc(=O)[n-]c2O)cc(C)n1Cc1ccc([N-]C(=O)C(=O)[N-]S(=O)(=O)c2ccccc2C)cc1 (optimized conformer: 145.4795795470627 kcal/mol)

> <smiles>
C=c1c(=Cc2sc(=O)[nH]c2O)cc(C)n1Cc1ccc(NC(=O)C(=O)NS(=O)(=O)c2ccccc2C)cc1

> <score_type>
oracle

> <origin>
adg

> <m_score__min__energy>
-14.550000000000001

> <m_primary>
energy

> <minimizedAffinity>
-7.37604

> <minimizedRMSD>
1.63237

> <CNNscore>
0.1369578093

> <CNNaffinity>
6.4013743401

> <CNN_VS>
0.8767182231

> <CNNaffinity_variance>
0.0887679756

$$$$
69:0


 31 34  0  0  0  0  0  0  0  0999 V2000
   60.1130   29.3589   45.1687 C   0  0  0  0  0  0  0  0  0  0  0  0
   59.7995   28.9598   46.4130 C   0  0  0  0  0  0  0  0  0  0  0  0
   58.8198   28.0166   46.7703 C   0  0  0  0  0  0  0  0  0  0  0  0
   57.8694   27.3992   46.0388 C   0  0  0  0  0  0  0  0  0  0  0  0
   58.9505   27.8175   48.1322 C   0  0  0  0  0  0  0  0  0  0  0  0
   59.9485   28.6600   48.5673 C   0  0  0  0  0  0  0  0  0  0  0  0
   60.3481   28.8234   50.0024 C   0  0  0  0  0  0  0  0  0  0  0  0
   60.4686   29.3584   47.5308 N   0  0  0  0  0  0  0  0  0  0  0  0
   57.5872   25.9499   46.0374 C   0  0  0  0  0  0  0  0  0  0  0  0
   56.2706   25.4646   46.1248 C   0  0  0  0  0  0  0  0  0  0  0  0
   55.1918   26.3398   46.1744 O   0  0  0  0  0  0  0  0  0  0  0  0
   56.0445   24.1257   46.1647 N   0  0  0  0  0  0  0  0  0  0  0  0
   57.0738   23.2409   46.1416 C   0  0  0  0  0  0  0  0  0  0  0  0
   56.8402   22.0043   46.1772 O   0  0  0  0  0  0  0  0  0  0  0  0
   58.3541   23.6870   46.0878 N   0  0  0  0  0  0  0  0  0  0  0  0
   58.6340   25.0152   46.0432 C   0  0  0  0  0  0  0  0  0  0  0  0
   59.8350   25.3943   46.0002 O   0  0  0  0  0  0  0  0  0  0  0  0
   61.5245   30.3806   47.6499 C   0  0  0  0  0  0  0  0  0  0  0  0
   60.9234   31.7414   47.8938 C   0  0  0  0  0  0  0  0  0  0  0  0
   60.8865   32.2751   49.1915 C   0  0  0  0  0  0  0  0  0  0  0  0
   60.3147   33.5286   49.4196 C   0  0  0  0  0  0  0  0  0  0  0  0
   59.7760   34.2589   48.3593 C   0  0  0  0  0  0  0  0  0  0  0  0
   59.8126   33.7481   47.0521 C   0  0  0  0  0  0  0  0  0  0  0  0
   60.3739   32.4778   46.8298 C   0  0  0  0  0  0  0  0  0  0  0  0
   59.1969   34.5367   45.9548 C   0  0  0  0  0  0  0  0  0  0  0  0
   59.7049   35.6594   45.6887 O   0  0  0  0  0  0  0  0  0  0  0  0
   58.0740   34.0855   45.1500 N   0  0  0  0  0  0  0  0  0  0  0  0
   57.1839   33.1520   45.8512 C   0  0  0  0  0  0  0  0  0  0  0  0
   57.4109   32.0531   44.8230 C   0  0  0  0  0  0  0  0  0  0  0  0
   58.3318   33.0521   44.1362 C   0  0  0  0  0  0  0  0  0  0  0  0
   57.5905   34.3846   45.9538 H   0  0  0  0  0  0  0  0  0  0  0  0
  1  2  2  0
  2  3  1  0
  3  4  2  0
  4  9  1  0
  9 10  2  0
 10 11  1  0
 10 12  1  0
 12 13  1  0
 13 14  2  0
 13 15  1  0
 15 16  1  0
 16 17  2  0
  3  5  1  0
  5  6  2  0
  6  7  1  0
  6  8  1  0
  8 18  1  0
 18 19  1  0
 19 20  2  0
 20 21  1  0
 21 22  2  0
 22 23  1  0
 23 25  1  0
 25 26  2  0
 25 27  1  0
 27 28  1  0
 28 29  1  0
 29 30  1  0
 23 24  2  0
  8  2  1  0
 24 19  1  0
 16  9  1  0
 30 27  1  0
 27 31  1  0
M  CHG 1  11  -1
M  CHG 1  12  -1
M  CHG 1  15  -1
M  CHG 1  27   1
M  END
> <UniqueID>
64

> <SMILES>
C=c1/c(=C\c2c([O-])[n-]c(=O)[n-]c2=O)cc(C)n1Cc1cccc(C(=O)[NH+]2CCC2)c1

> <Energy>
177.29974578654253

> <Genealogy>
C=c1c(=Cc2c([O-])[n-]c(=O)[n-]c2=O)cc(C)n1Cc1cccc(C(=O)[NH+]2CCC2)c1 (protonated)
C=c1/c(=C\c2c([O-])[n-]c(=O)[n-]c2=O)cc(C)n1Cc1cccc(C(=O)[NH+]2CCC2)c1 (cis-trans isomerization)
C=c1/c(=C\c2c([O-])[n-]c(=O)[n-]c2=O)cc(C)n1Cc1cccc(C(=O)[NH+]2CCC2)c1 (3D coordinates assigned)
C=c1/c(=C\c2c([O-])[n-]c(=O)[n-]c2=O)cc(C)n1Cc1cccc(C(=O)[NH+]2CCC2)c1 (nonaromatic ring conformer: 177.29974578654253 kcal/mol)

> <smiles>
C=c1c(=Cc2c(O)[nH]c(=O)[nH]c2=O)cc(C)n1Cc1cccc(C(=O)N2CCC2)c1

> <score_type>
oracle

> <origin>
adg

> <m_score__min__energy>
-15.52

> <m_primary>
energy

> <minimizedAffinity>
-7.51857

> <minimizedRMSD>
0.71758

> <CNNscore>
0.1647905856

> <CNNaffinity>
6.3209118843

> <CNN_VS>
1.0416268110

> <CNNaffinity_variance>
0.1850326508

$$$$
70:0


 28 30  0  0  0  0  0  0  0  0999 V2000
   58.8882   26.8838   47.5796 C   0  0  0  0  0  0  0  0  0  0  0  0
   58.6206   27.2556   46.3172 C   0  0  0  0  0  0  0  0  0  0  0  0
   58.3520   26.4131   45.2224 C   0  0  0  0  0  0  0  0  0  0  0  0
   58.1129   25.0860   45.1613 C   0  0  0  0  0  0  0  0  0  0  0  0
   58.3493   27.2671   44.1245 C   0  0  0  0  0  0  0  0  0  0  0  0
   58.1025   26.8972   42.6948 C   0  0  0  0  0  0  0  0  0  0  0  0
   58.5418   28.5283   44.5441 N   0  0  0  0  0  0  0  0  0  0  0  0
   58.6858   28.5370   45.8611 N   0  0  0  0  0  0  0  0  0  0  0  0
   58.5713   29.3228   43.9635 H   0  0  0  0  0  0  0  0  0  0  0  0
   56.7899   24.4475   45.3052 C   0  0  0  0  0  0  0  0  0  0  0  0
   55.6863   25.1584   45.8120 C   0  0  0  0  0  0  0  0  0  0  0  0
   55.8227   26.4785   46.2286 O   0  0  0  0  0  0  0  0  0  0  0  0
   54.4731   24.5567   45.8912 N   0  0  0  0  0  0  0  0  0  0  0  0
   54.2952   23.2780   45.4705 C   0  0  0  0  0  0  0  0  0  0  0  0
   53.1624   22.7398   45.5585 O   0  0  0  0  0  0  0  0  0  0  0  0
   55.3372   22.5813   44.9502 N   0  0  0  0  0  0  0  0  0  0  0  0
   56.5723   23.1374   44.8504 C   0  0  0  0  0  0  0  0  0  0  0  0
   57.5160   22.4647   44.3552 O   0  0  0  0  0  0  0  0  0  0  0  0
   58.9223   29.7733   46.6181 C   0  0  0  0  0  0  0  0  0  0  0  0
   58.1385   30.9150   46.0264 C   0  0  0  0  0  0  0  0  0  0  0  0
   57.1855   30.6419   45.2473 O   0  0  0  0  0  0  0  0  0  0  0  0
   58.4453   32.2944   46.3401 N   0  0  0  0  0  0  0  0  0  0  0  0
   59.3149   32.6228   47.4789 C   0  0  0  0  0  0  0  0  0  0  0  0
   59.5502   34.1330   47.5770 C   0  0  0  0  0  0  0  0  0  0  0  0
   59.8189   34.6891   46.2478 N   0  0  0  0  0  0  0  0  0  0  0  0
   58.6560   34.5740   45.3465 C   0  0  0  0  0  0  0  0  0  0  0  0
   57.7256   33.3804   45.6581 C   0  0  0  0  0  0  0  0  0  0  0  0
   60.6048   34.1869   45.8350 H   0  0  0  0  0  0  0  0  0  0  0  0
  1  2  2  0
  2  3  1  0
  3  4  2  0
  4 10  1  0
 10 11  2  0
 11 12  1  0
 11 13  1  0
 13 14  1  0
 14 15  2  0
 14 16  1  0
 16 17  1  0
 17 18  2  0
  3  5  1  0
  5  6  1  0
  5  7  2  0
  7  8  1  0
  8 19  1  0
 19 20  1  0
 20 21  2  0
 20 22  1  0
 22 23  1  0
 23 24  1  0
 24 25  1  0
 25 26  1  0
 26 27  1  0
  8  2  1  0
 27 22  1  0
 17 10  1  0
  7  9  1  0
 25 28  1  0
M  CHG 1   7   1
M  CHG 1  12  -1
M  CHG 1  13  -1
M  CHG 1  16  -1
M  END
> <UniqueID>
65

> <SMILES>
C=c1c(=Cc2c([O-])[n-]c(=O)[n-]c2=O)c(C)[nH+]n1CC(=O)N1CCNCC1

> <Energy>
96.35382401300264

> <Genealogy>
C=c1c(=Cc2c([O-])[n-]c(=O)[n-]c2=O)c(C)[nH+]n1CC(=O)N1CCNCC1 (protonated)
C=c1c(=Cc2c([O-])[n-]c(=O)[n-]c2=O)c(C)[nH+]n1CC(=O)N1CCNCC1 (3D coordinates assigned)
C=c1c(=Cc2c([O-])[n-]c(=O)[n-]c2=O)c(C)[nH+]n1CC(=O)N1CCNCC1 (nonaromatic ring conformer: 96.35382401300264 kcal/mol)

> <smiles>
C=c1c(=Cc2c(O)[nH]c(=O)[nH]c2=O)c(C)nn1CC(=O)N1CCNCC1

> <score_type>
oracle

> <origin>
adg

> <m_score__min__energy>
-14.69

> <m_primary>
energy

> <minimizedAffinity>
-8.29594

> <minimizedRMSD>
0.70262

> <CNNscore>
0.0669894665

> <CNNaffinity>
5.9115676880

> <CNN_VS>
0.3960127532

> <CNNaffinity_variance>
0.3362121880

$$$$
71:0


 37 41  0  0  0  0  0  0  0  0999 V2000
   59.5034   30.4753   46.9924 C   0  0  0  0  0  0  0  0  0  0  0  0
   60.0813   31.6742   46.5600 C   0  0  0  0  0  0  0  0  0  0  0  0
   60.6720   32.5434   47.4778 C   0  0  0  0  0  0  0  0  0  0  0  0
   60.7070   32.2201   48.8400 C   0  0  0  0  0  0  0  0  0  0  0  0
   60.1395   31.0021   49.2875 C   0  0  0  0  0  0  0  0  0  0  0  0
   59.5319   30.1464   48.3531 C   0  0  0  0  0  0  0  0  0  0  0  0
   60.1329   30.6267   50.7245 C   0  0  0  0  0  0  0  0  0  0  0  0
   60.9687   29.7763   51.1362 O   0  0  0  0  0  0  0  0  0  0  0  0
   59.2137   31.2230   51.6640 N   0  0  0  0  0  0  0  0  0  0  0  0
   59.6119   31.3488   53.0715 C   0  0  0  0  0  0  0  0  0  0  0  0
   58.4368   31.8268   53.9282 C   0  0  0  0  0  0  0  0  0  0  0  0
   57.2449   31.0466   53.5793 N   0  0  0  0  0  0  0  0  0  0  0  0
   56.7854   31.3019   52.1989 C   0  0  0  0  0  0  0  0  0  0  0  0
   57.9082   31.7500   51.2375 C   0  0  0  0  0  0  0  0  0  0  0  0
   56.4936   31.2910   54.2245 H   0  0  0  0  0  0  0  0  0  0  0  0
   59.7973   27.5170   46.8243 C   0  0  0  0  0  0  0  0  0  0  0  0
   59.0021   28.2277   46.0049 C   0  0  0  0  0  0  0  0  0  0  0  0
   58.1882   27.7179   44.9820 C   0  0  0  0  0  0  0  0  0  0  0  0
   58.0286   26.4187   44.6473 C   0  0  0  0  0  0  0  0  0  0  0  0
   57.5842   28.8238   44.3852 C   0  0  0  0  0  0  0  0  0  0  0  0
   58.0361   29.9374   45.0631 C   0  0  0  0  0  0  0  0  0  0  0  0
   57.5944   31.3402   44.7900 C   0  0  0  0  0  0  0  0  0  0  0  0
   58.9002   29.5799   46.0405 N   0  0  0  0  0  0  0  0  0  0  0  0
   57.4801   25.3594   45.5233 C   0  0  0  0  0  0  0  0  0  0  0  0
   58.0713   24.1891   45.8194 N   0  0  0  0  0  0  0  0  0  0  0  0
   57.1832   23.5766   46.6287 C   0  0  0  0  0  0  0  0  0  0  0  0
   57.3857   22.4375   47.1217 O   0  0  0  0  0  0  0  0  0  0  0  0
   56.0579   24.2803   46.8658 N   0  0  0  0  0  0  0  0  0  0  0  0
   56.2596   25.4032   46.1584 C   0  0  0  0  0  0  0  0  0  0  0  0
   55.3457   26.4476   46.0915 O   0  0  0  0  0  0  0  0  0  0  0  0
   61.3693   33.1574   49.7641 C   0  0  0  0  0  0  0  0  0  0  0  0
   60.7052   34.1191   50.2363 O   0  0  0  0  0  0  0  0  0  0  0  0
   62.7497   32.9892   50.1264 N   0  0  0  0  0  0  0  0  0  0  0  0
   63.4266   33.8521   51.0769 C   0  0  0  0  0  0  0  0  0  0  0  0
   64.8974   33.4595   51.0137 C   0  0  0  0  0  0  0  0  0  0  0  0
   64.9419   32.1078   50.3021 C   0  0  0  0  0  0  0  0  0  0  0  0
   63.6245   31.9819   49.5537 C   0  0  0  0  0  0  0  0  0  0  0  0
 16 17  2  0
 17 18  1  0
 18 19  2  0
 19 24  1  0
 24 25  1  0
 25 26  1  0
 26 27  2  0
 26 28  1  0
 28 29  1  0
 29 30  1  0
 18 20  1  0
 20 21  2  0
 21 22  1  0
 21 23  1  0
 23  1  1  0
  1  2  2  0
  2  3  1  0
  3  4  2  0
  4 31  1  0
 31 32  2  0
 31 33  1  0
 33 34  1  0
 34 35  1  0
 35 36  1  0
 36 37  1  0
  4  5  1  0
  5  7  1  0
  7  8  2  0
  7  9  1  0
  9 10  1  0
 10 11  1  0
 11 12  1  0
 12 13  1  0
 13 14  1  0
  5  6  2  0
 23 17  1  0
  6  1  1  0
 29 24  2  0
 37 33  1  0
 14  9  1  0
 12 15  1  0
M  CHG 1  25  -1
M  CHG 1  28  -1
M  CHG 1  30  -1
M  END
> <UniqueID>
66

> <SMILES>
C=c1/c(=C/c2[n-]c(=O)[n-]c2[O-])cc(C)n1-c1ccc(C(=O)N2CCCC2)c(C(=O)N2CCNCC2)c1

> <Energy>
148.98333350791552

> <Genealogy>
C=c1c(=Cc2[n-]c(=O)[n-]c2[O-])cc(C)n1-c1ccc(C(=O)N2CCCC2)c(C(=O)N2CCNCC2)c1 (protonated)
C=c1/c(=C/c2[n-]c(=O)[n-]c2[O-])cc(C)n1-c1ccc(C(=O)N2CCCC2)c(C(=O)N2CCNCC2)c1 (cis-trans isomerization)
C=c1/c(=C/c2[n-]c(=O)[n-]c2[O-])cc(C)n1-c1ccc(C(=O)N2CCCC2)c(C(=O)N2CCNCC2)c1 (3D coordinates assigned)
C=c1/c(=C/c2[n-]c(=O)[n-]c2[O-])cc(C)n1-c1ccc(C(=O)N2CCCC2)c(C(=O)N2CCNCC2)c1 (nonaromatic ring conformer: 148.98333350791552 kcal/mol)

> <smiles>
C=c1c(=Cc2[nH]c(=O)[nH]c2O)cc(C)n1-c1ccc(C(=O)N2CCCC2)c(C(=O)N2CCNCC2)c1

> <score_type>
oracle

> <origin>
adg

> <m_score__min__energy>
-17.02

> <m_primary>
energy

> <minimizedAffinity>
-9.25279

> <minimizedRMSD>
0.54546

> <CNNscore>
0.2595610321

> <CNNaffinity>
7.1243438721

> <CNN_VS>
1.8492020369

> <CNNaffinity_variance>
0.0863294676

$$$$
74:0


 32 35  0  0  0  0  0  0  0  0999 V2000
   54.2901   29.5677   55.5250 C   0  0  0  0  0  0  0  0  0  0  0  0
   54.8437   29.8593   54.3376 C   0  0  0  0  0  0  0  0  0  0  0  0
   54.1542   29.9687   53.1247 C   0  0  0  0  0  0  0  0  0  0  0  0
   52.8214   29.9260   52.9326 C   0  0  0  0  0  0  0  0  0  0  0  0
   55.1153   30.1702   52.1492 C   0  0  0  0  0  0  0  0  0  0  0  0
   56.3384   30.1745   52.7880 C   0  0  0  0  0  0  0  0  0  0  0  0
   56.1796   30.0244   54.1291 N   0  0  0  0  0  0  0  0  0  0  0  0
   57.6281   30.3417   52.0784 C   0  0  0  0  0  0  0  0  0  0  0  0
   58.0045   29.4486   51.2737 O   0  0  0  0  0  0  0  0  0  0  0  0
   58.4738   31.4867   52.3186 N   0  0  0  0  0  0  0  0  0  0  0  0
   59.9320   31.3575   52.2089 C   0  0  0  0  0  0  0  0  0  0  0  0
   60.5381   32.6778   51.7236 C   0  0  0  0  0  0  0  0  0  0  0  0
   60.0962   33.7597   52.5202 O   0  0  0  0  0  0  0  0  0  0  0  0
   58.7009   33.9308   52.3594 C   0  0  0  0  0  0  0  0  0  0  0  0
   57.9376   32.7207   52.9048 C   0  0  0  0  0  0  0  0  0  0  0  0
   52.1568   30.3398   51.6847 C   0  0  0  0  0  0  0  0  0  0  0  0
   52.1599   29.5940   50.5638 N   0  0  0  0  0  0  0  0  0  0  0  0
   51.5241   30.3760   49.6660 C   0  0  0  0  0  0  0  0  0  0  0  0
   51.3162   30.0123   48.4790 O   0  0  0  0  0  0  0  0  0  0  0  0
   51.1386   31.5823   50.1338 N   0  0  0  0  0  0  0  0  0  0  0  0
   51.5573   31.5489   51.4090 C   0  0  0  0  0  0  0  0  0  0  0  0
   51.4358   32.6212   52.2846 O   0  0  0  0  0  0  0  0  0  0  0  0
   57.2610   29.8747   55.1203 C   0  0  0  0  0  0  0  0  0  0  0  0
   58.2143   28.7366   54.7958 C   0  0  0  0  0  0  0  0  0  0  0  0
   59.5652   29.0526   54.5475 C   0  0  0  0  0  0  0  0  0  0  0  0
   60.5084   28.0471   54.3293 C   0  0  0  0  0  0  0  0  0  0  0  0
   60.1277   26.7084   54.3796 C   0  0  0  0  0  0  0  0  0  0  0  0
   58.8018   26.3701   54.6475 C   0  0  0  0  0  0  0  0  0  0  0  0
   57.8357   27.3670   54.8514 C   0  0  0  0  0  0  0  0  0  0  0  0
   56.4635   26.9308   55.1421 C   0  0  0  0  0  0  0  0  0  0  0  0
   55.6955   26.5818   54.2070 O   0  0  0  0  0  0  0  0  0  0  0  0
   56.0427   26.8053   56.4597 O   0  0  0  0  0  0  0  0  0  0  0  0
  1  2  2  0
  2  3  1  0
  3  4  2  0
  4 16  1  0
 16 17  1  0
 17 18  1  0
 18 19  2  0
 18 20  1  0
 20 21  1  0
 21 22  1  0
  3  5  1  0
  5  6  2  0
  6  8  1  0
  8  9  2  0
  8 10  1  0
 10 11  1  0
 11 12  1  0
 12 13  1  0
 13 14  1  0
 14 15  1  0
  6  7  1  0
  7 23  1  0
 23 24  1  0
 24 25  2  0
 25 26  1  0
 26 27  2  0
 27 28  1  0
 28 29  2  0
 29 30  1  0
 30 31  2  0
 30 32  1  0
  7  2  1  0
 29 24  1  0
 21 16  2  0
 15 10  1  0
M  CHG 1  17  -1
M  CHG 1  20  -1
M  CHG 1  22  -1
M  CHG 1  32  -1
M  END
> <UniqueID>
69

> <SMILES>
C=c1c(=Cc2[n-]c(=O)[n-]c2[O-])cc(C(=O)N2CCOCC2)n1Cc1ccccc1C(=O)[O-]

> <Energy>
136.28469368764846

> <Genealogy>
C=c1c(=Cc2[n-]c(=O)[n-]c2[O-])cc(C(=O)N2CCOCC2)n1Cc1ccccc1C(=O)[O-] (protonated)
C=c1c(=Cc2[n-]c(=O)[n-]c2[O-])cc(C(=O)N2CCOCC2)n1Cc1ccccc1C(=O)[O-] (3D coordinates assigned)
C=c1c(=Cc2[n-]c(=O)[n-]c2[O-])cc(C(=O)N2CCOCC2)n1Cc1ccccc1C(=O)[O-] (nonaromatic ring conformer: 136.28469368764846 kcal/mol)

> <smiles>
C=c1c(=Cc2[nH]c(=O)[nH]c2O)cc(C(=O)N2CCOCC2)n1Cc1ccccc1C(=O)O

> <score_type>
oracle

> <origin>
adg

> <m_score__min__energy>
-16.73

> <m_primary>
energy

> <minimizedAffinity>
-4.41278

> <minimizedRMSD>
0.89961

> <CNNscore>
0.1459452361

> <CNNaffinity>
4.7670950890

> <CNN_VS>
0.6957347989

> <CNNaffinity_variance>
0.4148716927

$$$$
78:0


 30 32  0  0  0  0  0  0  0  0999 V2000
   60.2407   29.1293   49.1607 C   0  0  0  0  0  0  0  0  0  0  0  0
   60.0842   28.5490   47.9517 C   0  0  0  0  0  0  0  0  0  0  0  0
   59.9328   27.1439   47.8650 C   0  0  0  0  0  0  0  0  0  0  0  0
   60.0077   26.4343   48.9077 O   0  0  0  0  0  0  0  0  0  0  0  0
   59.7318   26.5507   46.5964 C   0  0  0  0  0  0  0  0  0  0  0  0
   59.5481   25.2287   46.3889 C   0  0  0  0  0  0  0  0  0  0  0  0
   59.7504   27.3497   45.5021 N   0  0  0  0  0  0  0  0  0  0  0  0
   59.9151   28.6914   45.5788 C   0  0  0  0  0  0  0  0  0  0  0  0
   59.9196   29.3664   44.5138 O   0  0  0  0  0  0  0  0  0  0  0  0
   60.0732   29.3025   46.7937 N   0  0  0  0  0  0  0  0  0  0  0  0
   58.3179   24.5877   45.8802 C   0  0  0  0  0  0  0  0  0  0  0  0
   58.3815   23.3532   45.2142 C   0  0  0  0  0  0  0  0  0  0  0  0
   57.2094   22.7250   44.7812 C   0  0  0  0  0  0  0  0  0  0  0  0
   55.9672   23.3151   45.0285 C   0  0  0  0  0  0  0  0  0  0  0  0
   55.8935   24.5306   45.7177 C   0  0  0  0  0  0  0  0  0  0  0  0
   54.6547   25.1068   45.9714 O   0  0  0  0  0  0  0  0  0  0  0  0
   57.0649   25.1627   46.1519 C   0  0  0  0  0  0  0  0  0  0  0  0
   56.9829   26.3388   46.8264 F   0  0  0  0  0  0  0  0  0  0  0  0
   60.2392   30.7351   46.8199 C   0  0  0  0  0  0  0  0  0  0  0  0
   61.4400   31.2935   47.2751 C   0  0  0  0  0  0  0  0  0  0  0  0
   61.6114   32.6875   47.3035 C   0  0  0  0  0  0  0  0  0  0  0  0
   60.5627   33.5162   46.8670 C   0  0  0  0  0  0  0  0  0  0  0  0
   59.3547   32.9647   46.4046 C   0  0  0  0  0  0  0  0  0  0  0  0
   59.2029   31.5686   46.3851 C   0  0  0  0  0  0  0  0  0  0  0  0
   62.8798   33.2786   47.7881 C   0  0  0  0  0  0  0  0  0  0  0  0
   63.8126   33.5395   46.9831 O   0  0  0  0  0  0  0  0  0  0  0  0
   63.0584   33.5547   49.1389 O   0  0  0  0  0  0  0  0  0  0  0  0
   58.2578   33.8475   45.9476 C   0  0  0  0  0  0  0  0  0  0  0  0
   57.0585   33.5795   46.2298 O   0  0  0  0  0  0  0  0  0  0  0  0
   58.5340   34.9858   45.1989 O   0  0  0  0  0  0  0  0  0  0  0  0
  1  2  2  0
  2  3  1  0
  3  4  2  0
  3  5  1  0
  5  6  2  0
  6 11  1  0
 11 12  2  0
 12 13  1  0
 13 14  2  0
 14 15  1  0
 15 16  1  0
 15 17  2  0
 17 18  1  0
  5  7  1  0
  7  8  1  0
  8  9  2  0
  8 10  1  0
 10 19  1  0
 19 20  2  0
 20 21  1  0
 21 25  1  0
 25 26  2  0
 25 27  1  0
 21 22  2  0
 22 23  1  0
 23 28  1  0
 28 29  2  0
 28 30  1  0
 23 24  2  0
 10  2  1  0
 24 19  1  0
 17 11  1  0
M  CHG 1   7  -1
M  CHG 1  16  -1
M  CHG 1  27  -1
M  CHG 1  30  -1
M  END
> <UniqueID>
73

> <SMILES>
C=c1c(=O)/c(=C\c2cccc([O-])c2F)[n-]c(=O)n1-c1cc(C(=O)[O-])cc(C(=O)[O-])c1

> <Energy>
72.50778954245641

> <Genealogy>
C=c1c(=O)c(=Cc2cccc([O-])c2F)[n-]c(=O)n1-c1cc(C(=O)[O-])cc(C(=O)[O-])c1 (protonated)
C=c1c(=O)/c(=C\c2cccc([O-])c2F)[n-]c(=O)n1-c1cc(C(=O)[O-])cc(C(=O)[O-])c1 (cis-trans isomerization)
C=c1c(=O)/c(=C\c2cccc([O-])c2F)[n-]c(=O)n1-c1cc(C(=O)[O-])cc(C(=O)[O-])c1 (3D coordinates assigned)
C=c1c(=O)/c(=C\c2cccc([O-])c2F)[n-]c(=O)n1-c1cc(C(=O)[O-])cc(C(=O)[O-])c1 (optimized conformer: 72.50778954245641 kcal/mol)

> <smiles>
C=c1c(=O)c(=Cc2cccc(O)c2F)[nH]c(=O)n1-c1cc(C(=O)O)cc(C(=O)O)c1

> <score_type>
oracle

> <origin>
adg

> <m_score__min__energy>
-14.15

> <m_primary>
energy

> <minimizedAffinity>
-8.79263

> <minimizedRMSD>
0.85510

> <CNNscore>
0.1181593835

> <CNNaffinity>
5.6041283607

> <CNN_VS>
0.6621803641

> <CNNaffinity_variance>
0.3507004678

$$$$
79:0


 33 36  0  0  0  0  0  0  0  0999 V2000
   57.7904   33.9674   45.3793 C   0  0  0  0  0  0  0  0  0  0  0  0
   57.7741   32.7740   44.7313 N   0  0  0  0  0  0  0  0  0  0  0  0
   58.3188   31.6423   45.2549 C   0  0  0  0  0  0  0  0  0  0  0  0
   58.2242   30.5474   44.5484 N   0  0  0  0  0  0  0  0  0  0  0  0
   58.9918   31.7192   46.5056 C   0  0  0  0  0  0  0  0  0  0  0  0
   58.9851   32.9460   47.1967 C   0  0  0  0  0  0  0  0  0  0  0  0
   58.3824   34.0681   46.6344 C   0  0  0  0  0  0  0  0  0  0  0  0
   57.2441   29.4989   44.6149 C   0  0  0  0  0  0  0  0  0  0  0  0
   56.0155   29.7802   44.5933 O   0  0  0  0  0  0  0  0  0  0  0  0
   57.6438   28.1365   44.4380 N   0  0  0  0  0  0  0  0  0  0  0  0
   58.0071   27.2715   45.3437 C   0  0  0  0  0  0  0  0  0  0  0  0
   59.3384   27.0164   45.4765 N   0  0  0  0  0  0  0  0  0  0  0  0
   59.8289   26.1318   46.3840 C   0  0  0  0  0  0  0  0  0  0  0  0
   58.9600   25.4382   47.2226 C   0  0  0  0  0  0  0  0  0  0  0  0
   57.5873   25.6540   47.1072 C   0  0  0  0  0  0  0  0  0  0  0  0
   57.0929   26.5549   46.1596 C   0  0  0  0  0  0  0  0  0  0  0  0
   55.7166   26.6749   46.0195 O   0  0  0  0  0  0  0  0  0  0  0  0
   59.6976   30.6134   47.0014 O   0  0  0  0  0  0  0  0  0  0  0  0
   59.1546   29.5966   47.8375 C   0  0  0  0  0  0  0  0  0  0  0  0
   59.9625   29.5342   49.0999 C   0  0  0  0  0  0  0  0  0  0  0  0
   60.4242   28.3048   49.5933 C   0  0  0  0  0  0  0  0  0  0  0  0
   61.2243   28.2626   50.7377 C   0  0  0  0  0  0  0  0  0  0  0  0
   61.5773   29.4464   51.3920 C   0  0  0  0  0  0  0  0  0  0  0  0
   61.1321   30.6847   50.9016 C   0  0  0  0  0  0  0  0  0  0  0  0
   60.3271   30.7213   49.7516 C   0  0  0  0  0  0  0  0  0  0  0  0
   61.5392   31.9687   51.5762 C   0  0  0  0  0  0  0  0  0  0  0  0
   62.9114   32.3611   51.1834 N   0  0  0  0  0  0  0  0  0  0  0  0
   63.0443   33.8148   50.9400 C   0  0  0  0  0  0  0  0  0  0  0  0
   62.3620   34.2565   49.6259 C   0  0  0  0  0  0  0  0  0  0  0  0
   62.4183   33.2373   48.5634 N   0  0  0  0  0  0  0  0  0  0  0  0
   63.5521   32.3258   48.7333 C   0  0  0  0  0  0  0  0  0  0  0  0
   63.4369   31.5468   50.0589 C   0  0  0  0  0  0  0  0  0  0  0  0
   62.5059   33.7066   47.6620 H   0  0  0  0  0  0  0  0  0  0  0  0
  1  2  1  0
  2  3  1  0
  3  4  2  0
  4  8  1  0
  8  9  2  0
  8 10  1  0
 10 11  2  0
 11 12  1  0
 12 13  1  0
 13 14  2  0
 14 15  1  0
 15 16  2  0
 16 17  1  0
  3  5  1  0
  5 18  1  0
 18 19  1  0
 19 20  1  0
 20 21  2  0
 21 22  1  0
 22 23  2  0
 23 24  1  0
 24 26  1  0
 26 27  1  0
 27 28  1  0
 28 29  1  0
 29 30  1  0
 30 31  1  0
 31 32  1  0
 24 25  2  0
  5  6  2  0
  6  7  1  0
  7  1  2  0
 16 11  1  0
 25 20  1  0
 32 27  1  0
 30 33  1  0
M  CHG 1   2  -1
M  CHG 1  12  -1
M  CHG 1  17  -1
M  END
> <UniqueID>
74

> <SMILES>
O=C(N=c1[n-]cccc1OCc1cccc(CN2CCNCC2)c1)/N=c1/[n-]cccc1[O-]

> <Energy>
88.0804860709483

> <Genealogy>
O=C(N=c1[n-]cccc1[O-])N=c1[n-]cccc1OCc1cccc(CN2CCNCC2)c1 (protonated)
O=C(N=c1[n-]cccc1OCc1cccc(CN2CCNCC2)c1)/N=c1/[n-]cccc1[O-] (cis-trans isomerization)
O=C(N=c1[n-]cccc1OCc1cccc(CN2CCNCC2)c1)/N=c1/[n-]cccc1[O-] (3D coordinates assigned)
O=C(N=c1[n-]cccc1OCc1cccc(CN2CCNCC2)c1)/N=c1/[n-]cccc1[O-] (nonaromatic ring conformer: 88.0804860709483 kcal/mol)

> <smiles>
O=C(N=c1[nH]cccc1O)N=c1[nH]cccc1OCc1cccc(CN2CCNCC2)c1

> <score_type>
oracle

> <origin>
adg

> <m_score__min__energy>
-15.630000000000001

> <m_primary>
energy

> <minimizedAffinity>
-7.35454

> <minimizedRMSD>
1.01015

> <CNNscore>
0.0759761184

> <CNNaffinity>
6.0177531242

> <CNN_VS>
0.4572055340

> <CNNaffinity_variance>
0.2507425845

$$$$
84:0


 26 29  0  0  0  0  0  0  0  0999 V2000
   58.9760   27.3999   47.3792 C   0  0  0  0  0  0  0  0  0  0  0  0
   58.4975   27.9295   46.2426 C   0  0  0  0  0  0  0  0  0  0  0  0
   58.1086   27.2381   45.0832 C   0  0  0  0  0  0  0  0  0  0  0  0
   57.9461   25.9208   44.8475 C   0  0  0  0  0  0  0  0  0  0  0  0
   57.8602   28.2023   44.1209 C   0  0  0  0  0  0  0  0  0  0  0  0
   58.0434   29.4281   44.7255 C   0  0  0  0  0  0  0  0  0  0  0  0
   57.8542   30.7492   44.0435 C   0  0  0  0  0  0  0  0  0  0  0  0
   58.4185   29.2659   46.0139 N   0  0  0  0  0  0  0  0  0  0  0  0
   57.2890   24.9606   45.7499 C   0  0  0  0  0  0  0  0  0  0  0  0
   57.8853   23.8751   46.2779 N   0  0  0  0  0  0  0  0  0  0  0  0
   56.9574   23.3985   47.1368 C   0  0  0  0  0  0  0  0  0  0  0  0
   57.1410   22.3606   47.8241 O   0  0  0  0  0  0  0  0  0  0  0  0
   55.8238   24.1278   47.2103 N   0  0  0  0  0  0  0  0  0  0  0  0
   56.0583   25.1213   46.3364 C   0  0  0  0  0  0  0  0  0  0  0  0
   55.1667   26.1556   46.0845 O   0  0  0  0  0  0  0  0  0  0  0  0
   58.7622   30.3317   46.9166 C   0  0  0  0  0  0  0  0  0  0  0  0
   59.5206   30.1325   48.4060 S   0  0  0  0  0  0  0  0  0  0  0  0
   59.6509   31.7803   48.7366 C   0  0  0  0  0  0  0  0  0  0  0  0
   59.1144   32.4999   47.6712 C   0  0  0  0  0  0  0  0  0  0  0  0
   58.6236   31.6853   46.6452 C   0  0  0  0  0  0  0  0  0  0  0  0
   60.2484   32.3548   49.9484 C   0  0  0  0  0  0  0  0  0  0  0  0
   59.5087   32.7320   50.8983 O   0  0  0  0  0  0  0  0  0  0  0  0
   61.6673   32.4862   50.0469 N   0  0  0  0  0  0  0  0  0  0  0  0
   62.4639   33.1390   49.0156 C   0  0  0  0  0  0  0  0  0  0  0  0
   63.9501   32.8795   49.1662 C   0  0  0  0  0  0  0  0  0  0  0  0
   63.1566   32.1665   48.0807 C   0  0  0  0  0  0  0  0  0  0  0  0
  1  2  2  0
  2  3  1  0
  3  4  2  0
  4  9  1  0
  9 10  1  0
 10 11  1  0
 11 12  2  0
 11 13  1  0
 13 14  1  0
 14 15  1  0
  3  5  1  0
  5  6  2  0
  6  7  1  0
  6  8  1  0
  8 16  1  0
 16 17  1  0
 17 18  1  0
 18 21  1  0
 21 22  2  0
 21 23  1  0
 23 24  1  0
 24 25  1  0
 25 26  1  0
 18 19  2  0
 19 20  1  0
  8  2  1  0
 20 16  2  0
 14  9  2  0
 26 24  1  0
M  CHG 1  10  -1
M  CHG 1  13  -1
M  CHG 1  15  -1
M  CHG 1  23  -1
M  END
> <UniqueID>
79

> <SMILES>
C=c1/c(=C\c2[n-]c(=O)[n-]c2[O-])cc(C)n1-c1ccc(C(=O)[N-]C2CC2)s1

> <Energy>
406.5538971833405

> <Genealogy>
C=c1c(=Cc2[n-]c(=O)[n-]c2[O-])cc(C)n1-c1ccc(C(=O)[N-]C2CC2)s1 (protonated)
C=c1/c(=C\c2[n-]c(=O)[n-]c2[O-])cc(C)n1-c1ccc(C(=O)[N-]C2CC2)s1 (cis-trans isomerization)
C=c1/c(=C\c2[n-]c(=O)[n-]c2[O-])cc(C)n1-c1ccc(C(=O)[N-]C2CC2)s1 (3D coordinates assigned)
C=c1/c(=C\c2[n-]c(=O)[n-]c2[O-])cc(C)n1-c1ccc(C(=O)[N-]C2CC2)s1 (nonaromatic ring conformer: 406.5538971833405 kcal/mol)

> <smiles>
C=c1c(=Cc2[nH]c(=O)[nH]c2O)cc(C)n1-c1ccc(C(=O)NC2CC2)s1

> <score_type>
oracle

> <origin>
adg

> <m_score__min__energy>
-16.210000000000001

> <m_primary>
energy

> <minimizedAffinity>
-7.58562

> <minimizedRMSD>
1.39477

> <CNNscore>
0.2652113438

> <CNNaffinity>
6.6079373360

> <CNN_VS>
1.7524999380

> <CNNaffinity_variance>
0.1772049516

$$$$
12:0


 27 30  0  0  0  0  0  0  0  0999 V2000
   58.6626   29.9667   44.3603 C   0  0  0  0  0  0  0  0  0  0  0  0
   58.5780   29.4628   45.6016 C   0  0  0  0  0  0  0  0  0  0  0  0
   58.4502   28.1133   45.9674 C   0  0  0  0  0  0  0  0  0  0  0  0
   58.1827   27.0193   45.2297 C   0  0  0  0  0  0  0  0  0  0  0  0
   58.6483   28.0640   47.3394 C   0  0  0  0  0  0  0  0  0  0  0  0
   58.8130   29.3661   47.7655 C   0  0  0  0  0  0  0  0  0  0  0  0
   59.0761   29.7796   49.1808 C   0  0  0  0  0  0  0  0  0  0  0  0
   58.7575   30.2131   46.7166 N   0  0  0  0  0  0  0  0  0  0  0  0
   59.0047   31.6249   46.7779 C   0  0  0  0  0  0  0  0  0  0  0  0
   57.9470   32.5369   46.5892 C   0  0  0  0  0  0  0  0  0  0  0  0
   58.1745   33.9276   46.6652 C   0  0  0  0  0  0  0  0  0  0  0  0
   59.4618   34.4246   46.9305 C   0  0  0  0  0  0  0  0  0  0  0  0
   60.4925   33.5059   47.1079 C   0  0  0  0  0  0  0  0  0  0  0  0
   61.7857   33.7783   47.3617 N   0  0  0  0  0  0  0  0  0  0  0  0
   62.3371   32.5413   47.4319 C   0  0  0  0  0  0  0  0  0  0  0  0
   63.5631   32.3600   47.6643 O   0  0  0  0  0  0  0  0  0  0  0  0
   61.4596   31.5281   47.2293 N   0  0  0  0  0  0  0  0  0  0  0  0
   61.7475   30.0942   47.2483 C   0  0  0  0  0  0  0  0  0  0  0  0
   60.2824   32.1542   47.0328 C   0  0  0  0  0  0  0  0  0  0  0  0
   57.6954   25.7340   45.7564 C   0  0  0  0  0  0  0  0  0  0  0  0
   58.4087   24.5956   45.8031 N   0  0  0  0  0  0  0  0  0  0  0  0
   57.5273   23.6594   46.2078 C   0  0  0  0  0  0  0  0  0  0  0  0
   57.8387   22.4510   46.3764 O   0  0  0  0  0  0  0  0  0  0  0  0
   56.2767   24.1290   46.4038 N   0  0  0  0  0  0  0  0  0  0  0  0
   56.3971   25.4351   46.0980 C   0  0  0  0  0  0  0  0  0  0  0  0
   55.3393   26.3350   46.1275 O   0  0  0  0  0  0  0  0  0  0  0  0
   59.3619   24.4730   45.5895 H   0  0  0  0  0  0  0  0  0  0  0  0
  1  2  2  0
  2  3  1  0
  3  4  2  0
  4 20  1  0
 20 21  1  0
 21 22  1  0
 22 23  2  0
 22 24  1  0
 24 25  1  0
 25 26  1  0
  3  5  1  0
  5  6  2  0
  6  7  1  0
  6  8  1  0
  8  9  1  0
  9 10  2  0
 10 11  1  0
 11 12  2  0
 12 13  1  0
 13 14  1  0
 14 15  1  0
 15 16  2  0
 15 17  1  0
 17 18  1  0
 17 19  1  0
  8  2  1  0
 19  9  1  0
 25 20  2  0
 19 13  2  0
 21 27  1  0
M  CHG 1  14  -1
M  CHG 1  24  -1
M  CHG 1  26  -1
M  END
> <UniqueID>
11

> <SMILES>
C=c1c(=Cc2[nH]c(=O)[n-]c2[O-])cc(C)n1-c1cccc2[n-]c(=O)n(C)c12

> <Energy>
158.28073500926044

> <Genealogy>
C=c1c(=Cc2[nH]c(=O)[n-]c2[O-])cc(C)n1-c1cccc2[n-]c(=O)n(C)c12 (protonated)
C=c1c(=Cc2[nH]c(=O)[n-]c2[O-])cc(C)n1-c1cccc2[n-]c(=O)n(C)c12 (3D coordinates assigned)
C=c1c(=Cc2[nH]c(=O)[n-]c2[O-])cc(C)n1-c1cccc2[n-]c(=O)n(C)c12 (optimized conformer: 158.28073500926044 kcal/mol)

> <smiles>
C=c1c(=Cc2[nH]c(=O)[nH]c2O)cc(C)n1-c1cccc2[nH]c(=O)n(C)c12

> <score_type>
oracle

> <origin>
adg

> <m_score__min__energy>
-15.07

> <m_primary>
energy

> <minimizedAffinity>
-7.13745

> <minimizedRMSD>
0.77000

> <CNNscore>
0.0757771879

> <CNNaffinity>
6.3208727837

> <CNN_VS>
0.4789779782

> <CNNaffinity_variance>
0.0169323850

$$$$
13:0


 29 32  0  0  0  0  0  0  0  0999 V2000
   57.4765   30.3991   45.6890 C   0  0  0  0  0  0  0  0  0  0  0  0
   58.0705   31.6099   45.6287 C   0  0  0  0  0  0  0  0  0  0  0  0
   58.3092   32.4290   44.5184 C   0  0  0  0  0  0  0  0  0  0  0  0
   57.9229   32.2031   43.0895 C   0  0  0  0  0  0  0  0  0  0  0  0
   58.9218   33.5613   44.9166 N   0  0  0  0  0  0  0  0  0  0  0  0
   59.0714   33.5152   46.2297 N   0  0  0  0  0  0  0  0  0  0  0  0
   58.5675   32.3505   46.7046 C   0  0  0  0  0  0  0  0  0  0  0  0
   58.5767   31.9897   47.9971 C   0  0  0  0  0  0  0  0  0  0  0  0
   60.4510   29.8270   46.1500 O   0  0  0  0  0  0  0  0  0  0  0  0
   59.5055   28.8761   45.7825 C   0  0  0  0  0  0  0  0  0  0  0  0
   59.7707   27.5663   45.6423 N   0  0  0  0  0  0  0  0  0  0  0  0
   58.5622   27.0518   45.3328 C   0  0  0  0  0  0  0  0  0  0  0  0
   58.3820   25.8251   45.1239 O   0  0  0  0  0  0  0  0  0  0  0  0
   57.5584   27.9545   45.2737 N   0  0  0  0  0  0  0  0  0  0  0  0
   58.1751   29.1186   45.5352 C   0  0  0  0  0  0  0  0  0  0  0  0
   61.3399   29.5707   46.2991 H   0  0  0  0  0  0  0  0  0  0  0  0
   59.7564   34.5721   46.9777 C   0  0  0  0  0  0  0  0  0  0  0  0
   61.0614   34.0617   47.5308 C   0  0  0  0  0  0  0  0  0  0  0  0
   62.0750   33.6181   46.6699 C   0  0  0  0  0  0  0  0  0  0  0  0
   63.2875   33.1652   47.1893 C   0  0  0  0  0  0  0  0  0  0  0  0
   63.4985   33.1446   48.5702 C   0  0  0  0  0  0  0  0  0  0  0  0
   62.4912   33.5736   49.4540 C   0  0  0  0  0  0  0  0  0  0  0  0
   61.2714   34.0327   48.9194 C   0  0  0  0  0  0  0  0  0  0  0  0
   62.7375   33.5490   50.9205 C   0  0  0  0  0  0  0  0  0  0  0  0
   61.7612   33.1707   51.7955 N   0  0  0  0  0  0  0  0  0  0  0  0
   62.1798   33.2113   53.0786 C   0  0  0  0  0  0  0  0  0  0  0  0
   61.2957   32.9135   54.2414 C   0  0  0  0  0  0  0  0  0  0  0  0
   63.7626   33.7538   53.1915 S   0  0  0  0  0  0  0  0  0  0  0  0
   63.9429   33.9161   51.5269 C   0  0  0  0  0  0  0  0  0  0  0  0
  9 10  1  0
 10 11  1  0
 11 12  1  0
 12 13  2  0
 12 14  1  0
 14 15  1  0
 15  1  1  0
  1  2  2  0
  2  3  1  0
  3  4  1  0
  3  5  2  0
  5  6  1  0
  6 17  1  0
 17 18  1  0
 18 19  2  0
 19 20  1  0
 20 21  2  0
 21 22  1  0
 22 24  1  0
 24 25  1  0
 25 26  2  0
 26 27  1  0
 26 28  1  0
 28 29  1  0
 22 23  2  0
  6  7  1  0
  7  8  2  0
 15 10  2  0
  7  2  1  0
 23 18  1  0
 29 24  2  0
  9 16  1  0
M  CHG 1  11  -1
M  CHG 1  14  -1
M  END
> <UniqueID>
12

> <SMILES>
C=c1/c(=C/c2[n-]c(=O)[n-]c2O)c(C)nn1Cc1cccc(-c2csc(C)n2)c1

> <Energy>
149.37212829246494

> <Genealogy>
C=c1c(=Cc2[n-]c(=O)[n-]c2O)c(C)nn1Cc1cccc(-c2csc(C)n2)c1 (protonated)
C=c1/c(=C/c2[n-]c(=O)[n-]c2O)c(C)nn1Cc1cccc(-c2csc(C)n2)c1 (cis-trans isomerization)
C=c1/c(=C/c2[n-]c(=O)[n-]c2O)c(C)nn1Cc1cccc(-c2csc(C)n2)c1 (3D coordinates assigned)
C=c1/c(=C/c2[n-]c(=O)[n-]c2O)c(C)nn1Cc1cccc(-c2csc(C)n2)c1 (optimized conformer: 149.37212829246494 kcal/mol)

> <smiles>
C=c1c(=Cc2[nH]c(=O)[nH]c2O)c(C)nn1Cc1cccc(-c2csc(C)n2)c1

> <score_type>
oracle

> <origin>
adg

> <m_score__min__energy>
-14.06

> <m_primary>
energy

> <minimizedAffinity>
-7.73055

> <minimizedRMSD>
2.53048

> <CNNscore>
0.1555394828

> <CNNaffinity>
6.3052482605

> <CNN_VS>
0.9807150364

> <CNNaffinity_variance>
0.0247552153

$$$$
28:0


 33 36  0  0  0  0  0  0  0  0999 V2000
   58.2295   32.1392   46.9602 C   0  0  0  0  0  0  0  0  0  0  0  0
   58.5333   31.7002   45.5203 C   0  0  0  0  0  0  0  0  0  0  0  0
   56.9191   29.8111   43.8504 C   0  0  0  0  0  0  0  0  0  0  0  0
   57.8882   29.3919   44.6804 C   0  0  0  0  0  0  0  0  0  0  0  0
   58.3559   28.0759   44.8295 C   0  0  0  0  0  0  0  0  0  0  0  0
   57.8747   26.9048   44.3676 C   0  0  0  0  0  0  0  0  0  0  0  0
   59.4853   28.1543   45.6242 C   0  0  0  0  0  0  0  0  0  0  0  0
   59.6273   29.4763   45.9933 C   0  0  0  0  0  0  0  0  0  0  0  0
   60.7168   29.9803   46.8901 C   0  0  0  0  0  0  0  0  0  0  0  0
   58.6624   30.2354   45.4190 N   0  0  0  0  0  0  0  0  0  0  0  0
   57.6474   25.6929   45.1719 C   0  0  0  0  0  0  0  0  0  0  0  0
   58.4071   24.5834   45.1171 N   0  0  0  0  0  0  0  0  0  0  0  0
   57.7423   23.7114   45.9049 C   0  0  0  0  0  0  0  0  0  0  0  0
   58.1557   22.5427   46.1228 O   0  0  0  0  0  0  0  0  0  0  0  0
   56.5920   24.1863   46.4327 N   0  0  0  0  0  0  0  0  0  0  0  0
   56.5417   25.4363   45.9452 C   0  0  0  0  0  0  0  0  0  0  0  0
   55.5035   26.3236   46.1986 O   0  0  0  0  0  0  0  0  0  0  0  0
   58.4494   33.5714   47.1468 N   0  0  0  0  0  0  0  0  0  0  0  0
   59.6995   34.2592   46.9994 C   0  0  0  0  0  0  0  0  0  0  0  0
   59.7293   35.3296   46.3360 O   0  0  0  0  0  0  0  0  0  0  0  0
   60.9566   33.7358   47.5625 C   0  0  0  0  0  0  0  0  0  0  0  0
   62.0906   33.6157   46.7442 C   0  0  0  0  0  0  0  0  0  0  0  0
   63.2850   33.1196   47.2686 C   0  0  0  0  0  0  0  0  0  0  0  0
   63.3603   32.7458   48.6121 C   0  0  0  0  0  0  0  0  0  0  0  0
   62.2360   32.8638   49.4433 C   0  0  0  0  0  0  0  0  0  0  0  0
   61.0435   33.3859   48.9189 C   0  0  0  0  0  0  0  0  0  0  0  0
   62.3137   32.4948   50.8707 C   0  0  0  0  0  0  0  0  0  0  0  0
   62.4385   33.4095   51.7280 O   0  0  0  0  0  0  0  0  0  0  0  0
   62.2310   31.1240   51.2991 N   0  0  0  0  0  0  0  0  0  0  0  0
   62.5609   30.7047   52.6516 C   0  0  0  0  0  0  0  0  0  0  0  0
   61.9778   29.3064   52.8099 C   0  0  0  0  0  0  0  0  0  0  0  0
   61.6535   28.8234   51.3990 C   0  0  0  0  0  0  0  0  0  0  0  0
   61.5793   30.0723   50.5329 C   0  0  0  0  0  0  0  0  0  0  0  0
  3  4  2  0
  4  5  1  0
  5  6  2  0
  6 11  1  0
 11 12  1  0
 12 13  1  0
 13 14  2  0
 13 15  1  0
 15 16  1  0
 16 17  1  0
  5  7  1  0
  7  8  2  0
  8  9  1  0
  8 10  1  0
 10  2  1  0
  2  1  1  0
  1 18  1  0
 18 19  1  0
 19 20  2  0
 19 21  1  0
 21 22  2  0
 22 23  1  0
 23 24  2  0
 24 25  1  0
 25 27  1  0
 27 28  2  0
 27 29  1  0
 29 30  1  0
 30 31  1  0
 31 32  1  0
 32 33  1  0
 25 26  2  0
 10  4  1  0
 26 21  1  0
 16 11  2  0
 33 29  1  0
M  CHG 1  12  -1
M  CHG 1  15  -1
M  CHG 1  17  -1
M  CHG 1  18  -1
M  END
> <UniqueID>
26

> <SMILES>
C=c1c(=Cc2[n-]c(=O)[n-]c2[O-])cc(C)n1CC[N-]C(=O)c1cccc(C(=O)N2CCCC2)c1

> <Energy>
133.7302686370558

> <Genealogy>
C=c1c(=Cc2[n-]c(=O)[n-]c2[O-])cc(C)n1CC[N-]C(=O)c1cccc(C(=O)N2CCCC2)c1 (protonated)
C=c1c(=Cc2[n-]c(=O)[n-]c2[O-])cc(C)n1CC[N-]C(=O)c1cccc(C(=O)N2CCCC2)c1 (3D coordinates assigned)
C=c1c(=Cc2[n-]c(=O)[n-]c2[O-])cc(C)n1CC[N-]C(=O)c1cccc(C(=O)N2CCCC2)c1 (nonaromatic ring conformer: 133.7302686370558 kcal/mol)

> <smiles>
C=c1c(=Cc2[nH]c(=O)[nH]c2O)cc(C)n1CCNC(=O)c1cccc(C(=O)N2CCCC2)c1

> <score_type>
oracle

> <origin>
adg

> <m_score__min__energy>
-19.440000000000001

> <m_primary>
energy

> <minimizedAffinity>
-8.27008

> <minimizedRMSD>
1.95537

> <CNNscore>
0.2034364492

> <CNNaffinity>
6.9217734337

> <CNN_VS>
1.4081410170

> <CNNaffinity_variance>
0.0190097112

$$$$
43:0


 26 28  0  0  0  0  0  0  0  0999 V2000
   60.2543   27.2162   48.0011 C   0  0  0  0  0  0  0  0  0  0  0  0
   59.3318   27.7363   47.1772 C   0  0  0  0  0  0  0  0  0  0  0  0
   58.1830   27.0898   46.7119 C   0  0  0  0  0  0  0  0  0  0  0  0
   57.7599   25.8482   47.0156 C   0  0  0  0  0  0  0  0  0  0  0  0
   57.5263   28.0007   45.8970 C   0  0  0  0  0  0  0  0  0  0  0  0
   58.2944   29.1478   45.8846 C   0  0  0  0  0  0  0  0  0  0  0  0
   57.9320   30.3996   45.1438 C   0  0  0  0  0  0  0  0  0  0  0  0
   59.3918   28.9927   46.6639 N   0  0  0  0  0  0  0  0  0  0  0  0
   57.2877   24.8758   46.0034 C   0  0  0  0  0  0  0  0  0  0  0  0
   55.9510   24.8579   45.5666 C   0  0  0  0  0  0  0  0  0  0  0  0
   55.0256   25.7634   46.0793 O   0  0  0  0  0  0  0  0  0  0  0  0
   55.5569   23.9640   44.6199 N   0  0  0  0  0  0  0  0  0  0  0  0
   56.4464   23.0963   44.0654 C   0  0  0  0  0  0  0  0  0  0  0  0
   56.0677   22.2754   43.1904 O   0  0  0  0  0  0  0  0  0  0  0  0
   57.7480   23.1170   44.4522 N   0  0  0  0  0  0  0  0  0  0  0  0
   58.1872   23.9863   45.3967 C   0  0  0  0  0  0  0  0  0  0  0  0
   59.4036   23.9781   45.7272 O   0  0  0  0  0  0  0  0  0  0  0  0
   54.6156   23.9446   44.3321 H   0  0  0  0  0  0  0  0  0  0  0  0
   60.4465   29.9944   46.8897 C   0  0  0  0  0  0  0  0  0  0  0  0
   60.1301   30.8573   48.0927 C   0  0  0  0  0  0  0  0  0  0  0  0
   60.0855   30.2634   49.3684 C   0  0  0  0  0  0  0  0  0  0  0  0
   59.8150   31.0299   50.5035 C   0  0  0  0  0  0  0  0  0  0  0  0
   59.5990   32.4022   50.3855 C   0  0  0  0  0  0  0  0  0  0  0  0
   59.6629   33.0126   49.1323 C   0  0  0  0  0  0  0  0  0  0  0  0
   59.9343   32.2556   47.9856 C   0  0  0  0  0  0  0  0  0  0  0  0
   60.0339   33.1974   46.3151 Br  0  0  0  0  0  0  0  0  0  0  0  0
  1  2  2  0
  2  3  1  0
  3  4  2  0
  4  9  1  0
  9 10  2  0
 10 11  1  0
 10 12  1  0
 12 13  1  0
 13 14  2  0
 13 15  1  0
 15 16  1  0
 16 17  2  0
  3  5  1  0
  5  6  2  0
  6  7  1  0
  6  8  1  0
  8 19  1  0
 19 20  1  0
 20 21  2  0
 21 22  1  0
 22 23  2  0
 23 24  1  0
 24 25  2  0
 25 26  1  0
  8  2  1  0
 25 20  1  0
 16  9  1  0
 12 18  1  0
M  CHG 1  11  -1
M  CHG 1  15  -1
M  END
> <UniqueID>
40

> <SMILES>
C=c1/c(=C/c2c([O-])[nH]c(=O)[n-]c2=O)cc(C)n1Cc1ccccc1Br

> <Energy>
81.24852045159807

> <Genealogy>
C=c1c(=Cc2c([O-])[nH]c(=O)[n-]c2=O)cc(C)n1Cc1ccccc1Br (protonated)
C=c1/c(=C/c2c([O-])[nH]c(=O)[n-]c2=O)cc(C)n1Cc1ccccc1Br (cis-trans isomerization)
C=c1/c(=C/c2c([O-])[nH]c(=O)[n-]c2=O)cc(C)n1Cc1ccccc1Br (3D coordinates assigned)
C=c1/c(=C/c2c([O-])[nH]c(=O)[n-]c2=O)cc(C)n1Cc1ccccc1Br (optimized conformer: 81.24852045159807 kcal/mol)

> <smiles>
C=c1c(=Cc2c(O)[nH]c(=O)[nH]c2=O)cc(C)n1Cc1ccccc1Br

> <score_type>
oracle

> <origin>
adg

> <m_score__min__energy>
-14.32

> <m_primary>
energy

> <minimizedAffinity>
-8.35122

> <minimizedRMSD>
1.34924

> <CNNscore>
0.3505870700

> <CNNaffinity>
6.5811724663

> <CNN_VS>
2.3072738647

> <CNNaffinity_variance>
0.1809289008

$$$$
47:0


 34 37  0  0  0  0  0  0  0  0999 V2000
   58.3487   30.5884   53.5875 C   0  0  0  0  0  0  0  0  0  0  0  0
   55.5725   31.2037   52.5460 C   0  0  0  0  0  0  0  0  0  0  0  0
   55.8938   30.0447   53.1444 C   0  0  0  0  0  0  0  0  0  0  0  0
   55.0596   28.9231   53.2877 C   0  0  0  0  0  0  0  0  0  0  0  0
   53.7331   28.7751   53.0999 C   0  0  0  0  0  0  0  0  0  0  0  0
   55.8698   27.8906   53.7214 C   0  0  0  0  0  0  0  0  0  0  0  0
   57.1284   28.4192   53.9100 C   0  0  0  0  0  0  0  0  0  0  0  0
   58.3146   27.6209   54.3610 C   0  0  0  0  0  0  0  0  0  0  0  0
   57.1520   29.7294   53.5657 N   0  0  0  0  0  0  0  0  0  0  0  0
   52.8026   29.8304   52.6641 C   0  0  0  0  0  0  0  0  0  0  0  0
   52.6856   30.2772   51.4001 N   0  0  0  0  0  0  0  0  0  0  0  0
   51.8381   31.3220   51.5152 C   0  0  0  0  0  0  0  0  0  0  0  0
   51.4637   32.0018   50.5254 O   0  0  0  0  0  0  0  0  0  0  0  0
   51.4358   31.5899   52.7750 N   0  0  0  0  0  0  0  0  0  0  0  0
   52.0675   30.6461   53.4922 C   0  0  0  0  0  0  0  0  0  0  0  0
   51.9883   30.5363   54.8754 O   0  0  0  0  0  0  0  0  0  0  0  0
   51.4610   31.1376   55.3637 H   0  0  0  0  0  0  0  0  0  0  0  0
   58.7756   30.9500   52.1875 C   0  0  0  0  0  0  0  0  0  0  0  0
   58.8936   29.9589   51.2019 C   0  0  0  0  0  0  0  0  0  0  0  0
   59.2991   30.2962   49.9069 C   0  0  0  0  0  0  0  0  0  0  0  0
   59.6154   31.6240   49.5865 C   0  0  0  0  0  0  0  0  0  0  0  0
   59.4620   32.6194   50.5578 C   0  0  0  0  0  0  0  0  0  0  0  0
   59.0519   32.2865   51.8525 C   0  0  0  0  0  0  0  0  0  0  0  0
   60.0156   31.9941   48.2621 N   0  0  0  0  0  0  0  0  0  0  0  0
   59.6936   33.2217   47.5958 C   0  0  0  0  0  0  0  0  0  0  0  0
   60.6038   34.0767   47.4262 O   0  0  0  0  0  0  0  0  0  0  0  0
   58.3388   33.4614   46.9806 C   0  0  0  0  0  0  0  0  0  0  0  0
   58.1142   32.5779   45.7845 C   0  0  0  0  0  0  0  0  0  0  0  0
   58.1243   33.1081   44.4872 C   0  0  0  0  0  0  0  0  0  0  0  0
   57.9025   32.2621   43.3987 C   0  0  0  0  0  0  0  0  0  0  0  0
   57.6715   30.9023   43.6096 C   0  0  0  0  0  0  0  0  0  0  0  0
   57.6630   30.4026   44.9181 C   0  0  0  0  0  0  0  0  0  0  0  0
   57.4356   28.9469   45.1757 C   0  0  0  0  0  0  0  0  0  0  0  0
   57.8904   31.2457   45.9622 N   0  0  0  0  0  0  0  0  0  0  0  0
  2  3  2  0
  3  4  1  0
  4  5  2  0
  5 10  1  0
 10 11  1  0
 11 12  1  0
 12 13  2  0
 12 14  1  0
 14 15  1  0
 15 16  1  0
  4  6  1  0
  6  7  2  0
  7  8  1  0
  7  9  1  0
  9  1  1  0
  1 18  1  0
 18 19  2  0
 19 20  1  0
 20 21  2  0
 21 24  1  0
 24 25  1  0
 25 26  2  0
 25 27  1  0
 27 28  1  0
 28 29  2  0
 29 30  1  0
 30 31  2  0
 31 32  1  0
 32 33  1  0
 32 34  2  0
 21 22  1  0
 22 23  2  0
  9  3  1  0
 23 18  1  0
 15 10  2  0
 34 28  1  0
 16 17  1  0
M  CHG 1  11  -1
M  CHG 1  14  -1
M  CHG 1  24  -1
M  END
> <UniqueID>
43

> <SMILES>
C=c1c(=Cc2[n-]c(=O)[n-]c2O)cc(C)n1Cc1ccc([N-]C(=O)Cc2cccc(C)n2)cc1

> <Energy>
129.11542701368262

> <Genealogy>
C=c1c(=Cc2[n-]c(=O)[n-]c2O)cc(C)n1Cc1ccc([N-]C(=O)Cc2cccc(C)n2)cc1 (protonated)
C=c1c(=Cc2[n-]c(=O)[n-]c2O)cc(C)n1Cc1ccc([N-]C(=O)Cc2cccc(C)n2)cc1 (3D coordinates assigned)
C=c1c(=Cc2[n-]c(=O)[n-]c2O)cc(C)n1Cc1ccc([N-]C(=O)Cc2cccc(C)n2)cc1 (optimized conformer: 129.11542701368262 kcal/mol)

> <smiles>
C=c1c(=Cc2[nH]c(=O)[nH]c2O)cc(C)n1Cc1ccc(NC(=O)Cc2cccc(C)n2)cc1

> <score_type>
oracle

> <origin>
adg

> <m_score__min__energy>
-15.6

> <m_primary>
energy

> <minimizedAffinity>
-7.47349

> <minimizedRMSD>
1.11419

> <CNNscore>
0.1733067334

> <CNNaffinity>
6.1120505333

> <CNN_VS>
1.0592595339

> <CNNaffinity_variance>
0.1399052143

$$$$
53:0


 30 33  0  0  0  0  0  0  0  0999 V2000
   59.6308   29.2506   44.7206 C   0  0  0  0  0  0  0  0  0  0  0  0
   59.5602   28.7378   45.9591 C   0  0  0  0  0  0  0  0  0  0  0  0
   58.8552   27.5882   46.3339 C   0  0  0  0  0  0  0  0  0  0  0  0
   58.1475   26.7661   45.5354 C   0  0  0  0  0  0  0  0  0  0  0  0
   59.0678   27.4294   47.6949 C   0  0  0  0  0  0  0  0  0  0  0  0
   59.8559   28.4849   48.0983 C   0  0  0  0  0  0  0  0  0  0  0  0
   60.1668   29.2830   47.0474 N   0  0  0  0  0  0  0  0  0  0  0  0
   60.2895   28.6960   49.4910 C   0  0  0  0  0  0  0  0  0  0  0  0
   61.0142   27.8210   50.0383 O   0  0  0  0  0  0  0  0  0  0  0  0
   59.8597   29.8469   50.2444 N   0  0  0  0  0  0  0  0  0  0  0  0
   58.6468   30.5828   49.8677 C   0  0  0  0  0  0  0  0  0  0  0  0
   57.9899   31.1743   51.1165 C   0  0  0  0  0  0  0  0  0  0  0  0
   58.9254   31.9202   51.8713 O   0  0  0  0  0  0  0  0  0  0  0  0
   59.9248   31.0580   52.3794 C   0  0  0  0  0  0  0  0  0  0  0  0
   60.7507   30.4470   51.2428 C   0  0  0  0  0  0  0  0  0  0  0  0
   57.5710   25.4818   45.9750 C   0  0  0  0  0  0  0  0  0  0  0  0
   58.2828   24.3458   46.0600 N   0  0  0  0  0  0  0  0  0  0  0  0
   57.3593   23.4198   46.3973 C   0  0  0  0  0  0  0  0  0  0  0  0
   57.6498   22.2089   46.5828 O   0  0  0  0  0  0  0  0  0  0  0  0
   56.0986   23.8893   46.5034 N   0  0  0  0  0  0  0  0  0  0  0  0
   56.2456   25.1939   46.2208 C   0  0  0  0  0  0  0  0  0  0  0  0
   55.1837   26.0859   46.1407 O   0  0  0  0  0  0  0  0  0  0  0  0
   61.1038   30.4196   47.0668 C   0  0  0  0  0  0  0  0  0  0  0  0
   60.3533   31.7266   47.0892 C   0  0  0  0  0  0  0  0  0  0  0  0
   60.9322   32.8765   47.6514 C   0  0  0  0  0  0  0  0  0  0  0  0
   60.2295   34.0851   47.6644 C   0  0  0  0  0  0  0  0  0  0  0  0
   58.9486   34.1579   47.1086 C   0  0  0  0  0  0  0  0  0  0  0  0
   58.3676   33.0198   46.5399 C   0  0  0  0  0  0  0  0  0  0  0  0
   57.0949   33.0933   45.9840 O   0  0  0  0  0  0  0  0  0  0  0  0
   59.0667   31.8081   46.5284 C   0  0  0  0  0  0  0  0  0  0  0  0
  1  2  2  0
  2  3  1  0
  3  4  2  0
  4 16  1  0
 16 17  1  0
 17 18  1  0
 18 19  2  0
 18 20  1  0
 20 21  1  0
 21 22  1  0
  3  5  1  0
  5  6  2  0
  6  8  1  0
  8  9  2  0
  8 10  1  0
 10 11  1  0
 11 12  1  0
 12 13  1  0
 13 14  1  0
 14 15  1  0
  6  7  1  0
  7 23  1  0
 23 24  1  0
 24 25  2  0
 25 26  1  0
 26 27  2  0
 27 28  1  0
 28 29  1  0
 28 30  2  0
  7  2  1  0
 30 24  1  0
 21 16  2  0
 15 10  1  0
M  CHG 1  17  -1
M  CHG 1  20  -1
M  CHG 1  22  -1
M  CHG 1  29  -1
M  END
> <UniqueID>
49

> <SMILES>
C=c1c(=Cc2[n-]c(=O)[n-]c2[O-])cc(C(=O)N2CCOCC2)n1Cc1cccc([O-])c1

> <Energy>
123.5317485377539

> <Genealogy>
C=c1c(=Cc2[n-]c(=O)[n-]c2[O-])cc(C(=O)N2CCOCC2)n1Cc1cccc([O-])c1 (protonated)
C=c1c(=Cc2[n-]c(=O)[n-]c2[O-])cc(C(=O)N2CCOCC2)n1Cc1cccc([O-])c1 (3D coordinates assigned)
C=c1c(=Cc2[n-]c(=O)[n-]c2[O-])cc(C(=O)N2CCOCC2)n1Cc1cccc([O-])c1 (nonaromatic ring conformer: 123.5317485377539 kcal/mol)

> <smiles>
C=c1c(=Cc2[nH]c(=O)[nH]c2O)cc(C(=O)N2CCOCC2)n1Cc1cccc(O)c1

> <score_type>
oracle

> <origin>
adg

> <m_score__min__energy>
-16.960000000000001

> <m_primary>
energy

> <minimizedAffinity>
-8.45307

> <minimizedRMSD>
0.93341

> <CNNscore>
0.2639288604

> <CNNaffinity>
6.4330515862

> <CNN_VS>
1.6978679895

> <CNNaffinity_variance>
0.0199784860

$$$$
68:0


 34 37  0  0  0  0  0  0  0  0999 V2000
   55.7293   30.1549   44.2086 O   0  0  0  0  0  0  0  0  0  0  0  0
   56.7695   30.7443   44.6076 C   0  0  0  0  0  0  0  0  0  0  0  0
   57.9612   29.9967   44.8780 N   0  0  0  0  0  0  0  0  0  0  0  0
   58.0536   28.9734   45.9132 C   0  0  0  0  0  0  0  0  0  0  0  0
   58.9395   27.8137   45.4489 C   0  0  0  0  0  0  0  0  0  0  0  0
   60.3048   27.9420   46.0124 N   0  0  0  0  0  0  0  0  0  0  0  0
   60.6434   26.8601   46.9531 C   0  0  0  0  0  0  0  0  0  0  0  0
   59.8463   26.9658   48.2609 C   0  0  0  0  0  0  0  0  0  0  0  0
   59.9544   28.3015   48.8827 N   0  0  0  0  0  0  0  0  0  0  0  0
   59.8268   29.4543   47.9692 C   0  0  0  0  0  0  0  0  0  0  0  0
   60.5667   29.2568   46.6300 C   0  0  0  0  0  0  0  0  0  0  0  0
   60.9367   28.4371   49.9773 C   0  0  0  0  0  0  0  0  0  0  0  0
   60.5170   29.4071   51.0553 C   0  0  0  0  0  0  0  0  0  0  0  0
   61.3963   30.4143   51.4894 C   0  0  0  0  0  0  0  0  0  0  0  0
   60.9849   31.3499   52.4423 C   0  0  0  0  0  0  0  0  0  0  0  0
   59.6865   31.3010   52.9548 C   0  0  0  0  0  0  0  0  0  0  0  0
   58.8035   30.3038   52.5304 C   0  0  0  0  0  0  0  0  0  0  0  0
   59.2133   29.3610   51.5834 C   0  0  0  0  0  0  0  0  0  0  0  0
   56.7264   32.1545   44.8341 N   0  0  0  0  0  0  0  0  0  0  0  0
   57.7680   32.9351   45.4357 C   0  0  0  0  0  0  0  0  0  0  0  0
   58.4611   33.8590   44.6446 C   0  0  0  0  0  0  0  0  0  0  0  0
   59.4957   34.6208   45.1931 C   0  0  0  0  0  0  0  0  0  0  0  0
   59.8561   34.4530   46.5310 C   0  0  0  0  0  0  0  0  0  0  0  0
   59.1844   33.5182   47.3294 C   0  0  0  0  0  0  0  0  0  0  0  0
   58.1495   32.7501   46.7773 C   0  0  0  0  0  0  0  0  0  0  0  0
   59.6937   33.2640   48.9947 S   0  0  0  0  0  0  0  0  0  0  0  0
   59.6022   34.5719   49.7328 O   0  0  0  0  0  0  0  0  0  0  0  0
   58.7838   32.2720   49.6683 O   0  0  0  0  0  0  0  0  0  0  0  0
   61.3417   32.6900   49.0023 N   0  0  0  0  0  0  0  0  0  0  0  0
   62.2051   33.6451   49.7168 C   0  0  0  0  0  0  0  0  0  0  0  0
   63.6944   33.2860   49.5306 C   0  0  0  0  0  0  0  0  0  0  0  0
   63.8428   32.0187   48.9221 O   0  0  0  0  0  0  0  0  0  0  0  0
   63.2884   32.0463   47.6192 C   0  0  0  0  0  0  0  0  0  0  0  0
   61.8165   32.5078   47.6232 C   0  0  0  0  0  0  0  0  0  0  0  0
  1  2  2  0
  2  3  1  0
  3  4  1  0
  4  5  1  0
  5  6  1  0
  6  7  1  0
  7  8  1  0
  8  9  1  0
  9 12  1  0
 12 13  1  0
 13 14  2  0
 14 15  1  0
 15 16  2  0
 16 17  1  0
 17 18  2  0
  9 10  1  0
 10 11  1  0
  2 19  1  0
 19 20  1  0
 20 21  2  0
 21 22  1  0
 22 23  2  0
 23 24  1  0
 24 26  1  0
 26 27  2  0
 26 28  2  0
 26 29  1  0
 29 30  1  0
 30 31  1  0
 31 32  1  0
 32 33  1  0
 33 34  1  0
 24 25  2  0
 11  6  1  0
 25 20  1  0
 18 13  1  0
 34 29  1  0
M  CHG 1   3  -1
M  CHG 1  19  -1
M  END
> <UniqueID>
63

> <SMILES>
O=C([N-]CCN1CCN(Cc2ccccc2)CC1)[N-]c1cccc(S(=O)(=O)N2CCOCC2)c1

> <Energy>
81.57959492706692

> <Genealogy>
O=C([N-]CCN1CCN(Cc2ccccc2)CC1)[N-]c1cccc(S(=O)(=O)N2CCOCC2)c1 (protonated)
O=C([N-]CCN1CCN(Cc2ccccc2)CC1)[N-]c1cccc(S(=O)(=O)N2CCOCC2)c1 (3D coordinates assigned)
O=C([N-]CCN1CCN(Cc2ccccc2)CC1)[N-]c1cccc(S(=O)(=O)N2CCOCC2)c1 (nonaromatic ring conformer: 81.57959492706692 kcal/mol)

> <smiles>
O=C(NCCN1CCN(Cc2ccccc2)CC1)Nc1cccc(S(=O)(=O)N2CCOCC2)c1

> <score_type>
oracle

> <origin>
adg

> <m_score__min__energy>
-14.32

> <m_primary>
energy

> <minimizedAffinity>
-6.52862

> <minimizedRMSD>
1.33472

> <CNNscore>
0.4293968081

> <CNNaffinity>
6.7241129875

> <CNN_VS>
2.8873126507

> <CNNaffinity_variance>
0.8004779220

$$$$
82:0


 29 31  0  0  0  0  0  0  0  0999 V2000
   58.4551   31.8999   45.1590 C   0  0  0  0  0  0  0  0  0  0  0  0
   58.1918   33.1330   44.5363 C   0  0  0  0  0  0  0  0  0  0  0  0
   58.4307   34.3289   45.2198 C   0  0  0  0  0  0  0  0  0  0  0  0
   58.9335   34.3048   46.5223 C   0  0  0  0  0  0  0  0  0  0  0  0
   59.2180   33.0816   47.1456 C   0  0  0  0  0  0  0  0  0  0  0  0
   58.9941   31.8844   46.4507 C   0  0  0  0  0  0  0  0  0  0  0  0
   59.8260   33.0432   48.8008 S   0  0  0  0  0  0  0  0  0  0  0  0
   59.3915   31.7631   49.4607 O   0  0  0  0  0  0  0  0  0  0  0  0
   59.2293   34.1904   49.5701 O   0  0  0  0  0  0  0  0  0  0  0  0
   61.5685   33.1556   48.8536 N   0  0  0  0  0  0  0  0  0  0  0  0
   62.1339   33.0999   47.4975 C   0  0  0  0  0  0  0  0  0  0  0  0
   63.6692   33.2485   47.5666 C   0  0  0  0  0  0  0  0  0  0  0  0
   64.1591   33.1756   48.8959 O   0  0  0  0  0  0  0  0  0  0  0  0
   63.6641   32.0119   49.5287 C   0  0  0  0  0  0  0  0  0  0  0  0
   62.1317   32.0756   49.6832 C   0  0  0  0  0  0  0  0  0  0  0  0
   58.2062   30.6501   44.5031 N   0  0  0  0  0  0  0  0  0  0  0  0
   56.9607   29.9412   44.4903 C   0  0  0  0  0  0  0  0  0  0  0  0
   55.8706   30.5475   44.6656 O   0  0  0  0  0  0  0  0  0  0  0  0
   56.9600   28.4519   44.3455 C   0  0  0  0  0  0  0  0  0  0  0  0
   58.4205   27.7009   45.1520 S   0  0  0  0  0  0  0  0  0  0  0  0
   59.4152   25.9543   47.5750 C   0  0  0  0  0  0  0  0  0  0  0  0
   58.0512   25.6279   47.0185 C   0  0  0  0  0  0  0  0  0  0  0  0
   57.5111   26.3638   45.9448 C   0  0  0  0  0  0  0  0  0  0  0  0
   56.2589   26.0851   45.4971 N   0  0  0  0  0  0  0  0  0  0  0  0
   55.5133   25.0980   46.0538 C   0  0  0  0  0  0  0  0  0  0  0  0
   54.3594   24.8604   45.6152 O   0  0  0  0  0  0  0  0  0  0  0  0
   56.0108   24.3733   47.0855 N   0  0  0  0  0  0  0  0  0  0  0  0
   57.2503   24.6153   47.5829 C   0  0  0  0  0  0  0  0  0  0  0  0
   57.6674   23.9274   48.5522 O   0  0  0  0  0  0  0  0  0  0  0  0
 21 22  1  0
 22 23  2  0
 23 20  1  0
 20 19  1  0
 19 17  1  0
 17 18  2  0
 17 16  1  0
 16  1  1  0
  1  2  2  0
  2  3  1  0
  3  4  2  0
  4  5  1  0
  5  7  1  0
  7  8  2  0
  7  9  2  0
  7 10  1  0
 10 11  1  0
 11 12  1  0
 12 13  1  0
 13 14  1  0
 14 15  1  0
  5  6  2  0
 23 24  1  0
 24 25  1  0
 25 26  2  0
 25 27  1  0
 27 28  1  0
 28 29  2  0
 28 22  1  0
  6  1  1  0
 15 10  1  0
M  CHG 1  16  -1
M  CHG 1  24  -1
M  CHG 1  27  -1
M  END
> <UniqueID>
77

> <SMILES>
Cc1c(SCC(=O)[N-]c2cccc(S(=O)(=O)N3CCOCC3)c2)[n-]c(=O)[n-]c1=O

> <Energy>
55.16279040350393

> <Genealogy>
Cc1c(SCC(=O)[N-]c2cccc(S(=O)(=O)N3CCOCC3)c2)[n-]c(=O)[n-]c1=O (protonated)
Cc1c(SCC(=O)[N-]c2cccc(S(=O)(=O)N3CCOCC3)c2)[n-]c(=O)[n-]c1=O (3D coordinates assigned)
Cc1c(SCC(=O)[N-]c2cccc(S(=O)(=O)N3CCOCC3)c2)[n-]c(=O)[n-]c1=O (nonaromatic ring conformer: 55.16279040350393 kcal/mol)

> <smiles>
Cc1c(SCC(=O)Nc2cccc(S(=O)(=O)N3CCOCC3)c2)[nH]c(=O)[nH]c1=O

> <score_type>
oracle

> <origin>
adg

> <m_score__min__energy>
-15.58

> <m_primary>
energy

> <minimizedAffinity>
-6.30823

> <minimizedRMSD>
0.86123

> <CNNscore>
0.4255375266

> <CNNaffinity>
6.5689196587

> <CNN_VS>
2.7953219414

> <CNNaffinity_variance>
0.0701448545

$$$$
84:0


 32 35  0  0  0  0  0  0  0  0999 V2000
   58.5470   31.2791   47.4271 C   0  0  0  0  0  0  0  0  0  0  0  0
   59.4662   28.5740   48.4300 C   0  0  0  0  0  0  0  0  0  0  0  0
   59.1825   28.8238   47.1410 C   0  0  0  0  0  0  0  0  0  0  0  0
   59.3680   27.9419   46.0633 C   0  0  0  0  0  0  0  0  0  0  0  0
   59.6431   26.6228   46.0338 C   0  0  0  0  0  0  0  0  0  0  0  0
   59.1969   28.6915   44.9148 C   0  0  0  0  0  0  0  0  0  0  0  0
   58.8346   29.9598   45.3140 C   0  0  0  0  0  0  0  0  0  0  0  0
   58.5925   31.0994   44.3685 C   0  0  0  0  0  0  0  0  0  0  0  0
   58.8197   30.0483   46.6652 N   0  0  0  0  0  0  0  0  0  0  0  0
   58.6487   25.5394   45.9788 C   0  0  0  0  0  0  0  0  0  0  0  0
   58.9421   24.2258   46.0042 N   0  0  0  0  0  0  0  0  0  0  0  0
   57.7281   23.6375   46.0767 C   0  0  0  0  0  0  0  0  0  0  0  0
   57.5828   22.3876   46.1053 O   0  0  0  0  0  0  0  0  0  0  0  0
   56.6855   24.4931   46.1273 N   0  0  0  0  0  0  0  0  0  0  0  0
   57.2868   25.6909   46.0781 C   0  0  0  0  0  0  0  0  0  0  0  0
   56.6060   26.9011   46.1301 O   0  0  0  0  0  0  0  0  0  0  0  0
   59.7878   31.7485   48.1439 C   0  0  0  0  0  0  0  0  0  0  0  0
   61.0564   31.5286   47.5841 C   0  0  0  0  0  0  0  0  0  0  0  0
   62.2090   31.9232   48.2697 C   0  0  0  0  0  0  0  0  0  0  0  0
   62.1084   32.5386   49.5235 C   0  0  0  0  0  0  0  0  0  0  0  0
   60.8420   32.7864   50.0711 C   0  0  0  0  0  0  0  0  0  0  0  0
   59.6903   32.3931   49.3864 C   0  0  0  0  0  0  0  0  0  0  0  0
   63.5657   32.9743   50.4206 S   0  0  0  0  0  0  0  0  0  0  0  0
   63.4037   34.3593   50.9821 O   0  0  0  0  0  0  0  0  0  0  0  0
   64.7404   32.9888   49.4803 O   0  0  0  0  0  0  0  0  0  0  0  0
   63.8775   31.8530   51.7282 N   0  0  0  0  0  0  0  0  0  0  0  0
   62.6708   31.0566   52.0609 C   0  0  0  0  0  0  0  0  0  0  0  0
   62.7551   29.6233   51.5041 C   0  0  0  0  0  0  0  0  0  0  0  0
   63.8768   28.8986   51.9913 O   0  0  0  0  0  0  0  0  0  0  0  0
   65.0231   29.7076   52.2290 C   0  0  0  0  0  0  0  0  0  0  0  0
   65.0509   31.0092   51.4112 C   0  0  0  0  0  0  0  0  0  0  0  0
   64.1037   32.3850   52.5685 H   0  0  0  0  0  0  0  0  0  0  0  0
  2  3  2  0
  3  4  1  0
  4  5  2  0
  5 10  1  0
 10 11  1  0
 11 12  1  0
 12 13  2  0
 12 14  1  0
 14 15  1  0
 15 16  1  0
  4  6  1  0
  6  7  2  0
  7  8  1  0
  7  9  1  0
  9  1  1  0
  1 17  1  0
 17 18  2  0
 18 19  1  0
 19 20  2  0
 20 23  1  0
 23 24  2  0
 23 25  2  0
 23 26  1  0
 26 27  1  0
 27 28  1  0
 28 29  1  0
 29 30  1  0
 30 31  1  0
 20 21  1  0
 21 22  2  0
  9  3  1  0
 22 17  1  0
 15 10  2  0
 31 26  1  0
 26 32  1  0
M  CHG 1  11  -1
M  CHG 1  14  -1
M  CHG 1  16  -1
M  CHG 1  26   1
M  END
> <UniqueID>
79

> <SMILES>
C=c1c(=Cc2[n-]c(=O)[n-]c2[O-])cc(C)n1Cc1ccc(S(=O)(=O)[NH+]2CCOCC2)cc1

> <Energy>
135.5889378712489

> <Genealogy>
C=c1c(=Cc2[n-]c(=O)[n-]c2[O-])cc(C)n1Cc1ccc(S(=O)(=O)[NH+]2CCOCC2)cc1 (protonated)
C=c1c(=Cc2[n-]c(=O)[n-]c2[O-])cc(C)n1Cc1ccc(S(=O)(=O)[NH+]2CCOCC2)cc1 (3D coordinates assigned)
C=c1c(=Cc2[n-]c(=O)[n-]c2[O-])cc(C)n1Cc1ccc(S(=O)(=O)[NH+]2CCOCC2)cc1 (nonaromatic ring conformer: 135.5889378712489 kcal/mol)

> <smiles>
C=c1c(=Cc2[nH]c(=O)[nH]c2O)cc(C)n1Cc1ccc(S(=O)(=O)N2CCOCC2)cc1

> <score_type>
oracle

> <origin>
adg

> <m_score__min__energy>
-16.120000000000001

> <m_primary>
energy

> <minimizedAffinity>
-7.17783

> <minimizedRMSD>
1.71870

> <CNNscore>
0.2042070627

> <CNNaffinity>
6.5906281471

> <CNN_VS>
1.3458528519

> <CNNaffinity_variance>
0.1455111653

$$$$
1:0


 24 26  0  0  0  0  0  0  0  0999 V2000
   57.9666   28.3947   44.5644 C   0  0  0  0  0  0  0  0  0  0  0  0
   56.9860   29.5308   44.5540 C   0  0  0  0  0  0  0  0  0  0  0  0
   55.7798   29.3144   44.8376 O   0  0  0  0  0  0  0  0  0  0  0  0
   58.8057   33.9869   44.8437 C   0  0  0  0  0  0  0  0  0  0  0  0
   58.2093   32.9571   44.1918 N   0  0  0  0  0  0  0  0  0  0  0  0
   57.9623   31.7617   44.7879 C   0  0  0  0  0  0  0  0  0  0  0  0
   57.3739   30.8315   44.0904 N   0  0  0  0  0  0  0  0  0  0  0  0
   58.3167   31.5850   46.1391 C   0  0  0  0  0  0  0  0  0  0  0  0
   58.9456   32.6266   46.8411 C   0  0  0  0  0  0  0  0  0  0  0  0
   59.3189   32.4258   48.2870 C   0  0  0  0  0  0  0  0  0  0  0  0
   59.1898   33.8525   46.1855 C   0  0  0  0  0  0  0  0  0  0  0  0
   59.8578   35.0045   46.8896 C   0  0  0  0  0  0  0  0  0  0  0  0
   58.3262   27.8800   46.2773 S   0  0  0  0  0  0  0  0  0  0  0  0
   57.5473   26.2746   46.1238 C   0  0  0  0  0  0  0  0  0  0  0  0
   56.2077   26.0830   46.2613 N   0  0  0  0  0  0  0  0  0  0  0  0
   56.1278   24.7559   46.0677 C   0  0  0  0  0  0  0  0  0  0  0  0
   54.9914   24.0177   46.0936 N   0  0  0  0  0  0  0  0  0  0  0  0
   55.0767   22.6712   45.8749 C   0  0  0  0  0  0  0  0  0  0  0  0
   54.0332   21.9692   45.8962 O   0  0  0  0  0  0  0  0  0  0  0  0
   56.3287   22.0658   45.6290 C   0  0  0  0  0  0  0  0  0  0  0  0
   57.4749   22.8727   45.6126 C   0  0  0  0  0  0  0  0  0  0  0  0
   58.7325   22.3320   45.3747 O   0  0  0  0  0  0  0  0  0  0  0  0
   57.3158   24.1994   45.8366 N   0  0  0  0  0  0  0  0  0  0  0  0
   58.2393   25.1375   45.8670 N   0  0  0  0  0  0  0  0  0  0  0  0
  4  5  1  0
  5  6  1  0
  6  7  2  0
  7  2  1  0
  2  3  2  0
  2  1  1  0
  1 13  1  0
 13 14  1  0
 14 15  1  0
 15 16  2  0
 16 17  1  0
 17 18  1  0
 18 19  2  0
 18 20  1  0
 20 21  2  0
 21 22  1  0
 21 23  1  0
 23 24  1  0
  6  8  1  0
  8  9  2  0
  9 10  1  0
  9 11  1  0
 11 12  1  0
 11  4  2  0
 24 14  2  0
 23 16  1  0
M  CHG 1   5  -1
M  CHG 1  17  -1
M  CHG 1  22  -1
M  END
> <UniqueID>
2

> <SMILES>
Cc1c[n-]/c(=N/C(=O)CSc2nc3[n-]c(=O)cc([O-])n3n2)cc1C

> <Energy>
84.33758928945714

> <Genealogy>
Cc1c[n-]c(=NC(=O)CSc2nc3[n-]c(=O)cc([O-])n3n2)cc1C (protonated)
Cc1c[n-]/c(=N/C(=O)CSc2nc3[n-]c(=O)cc([O-])n3n2)cc1C (cis-trans isomerization)
Cc1c[n-]/c(=N/C(=O)CSc2nc3[n-]c(=O)cc([O-])n3n2)cc1C (3D coordinates assigned)
Cc1c[n-]/c(=N/C(=O)CSc2nc3[n-]c(=O)cc([O-])n3n2)cc1C (optimized conformer: 84.33758928945714 kcal/mol)

> <smiles>
Cc1c[nH]c(=NC(=O)CSc2nc3[nH]c(=O)cc(O)n3n2)cc1C

> <score_type>
oracle

> <origin>
adg

> <m_score__min__energy>
-15.199999999999999

> <m_primary>
energy

> <minimizedAffinity>
-7.96956

> <minimizedRMSD>
1.06695

> <CNNscore>
0.4837963879

> <CNNaffinity>
6.5410575867

> <CNN_VS>
3.1645400524

> <CNNaffinity_variance>
0.3244511485

$$$$
3:0


 31 33  0  0  0  0  0  0  0  0999 V2000
   60.2037   28.3193   49.0666 C   0  0  0  0  0  0  0  0  0  0  0  0
   60.7155   29.4932   48.6538 C   0  0  0  0  0  0  0  0  0  0  0  0
   60.7935   29.9479   47.3274 C   0  0  0  0  0  0  0  0  0  0  0  0
   60.2255   29.4814   46.1953 C   0  0  0  0  0  0  0  0  0  0  0  0
   61.5878   31.0796   47.3513 C   0  0  0  0  0  0  0  0  0  0  0  0
   61.8922   31.3299   48.6722 C   0  0  0  0  0  0  0  0  0  0  0  0
   62.7612   32.4637   49.1296 C   0  0  0  0  0  0  0  0  0  0  0  0
   61.3655   30.3707   49.4722 N   0  0  0  0  0  0  0  0  0  0  0  0
   59.2774   28.3468   46.1048 C   0  0  0  0  0  0  0  0  0  0  0  0
   57.9107   28.5493   45.8393 C   0  0  0  0  0  0  0  0  0  0  0  0
   57.3950   29.8304   45.6951 O   0  0  0  0  0  0  0  0  0  0  0  0
   57.0802   27.4840   45.7043 N   0  0  0  0  0  0  0  0  0  0  0  0
   57.5487   26.2134   45.7902 C   0  0  0  0  0  0  0  0  0  0  0  0
   56.7602   25.2410   45.6573 O   0  0  0  0  0  0  0  0  0  0  0  0
   58.8700   25.9920   46.0071 N   0  0  0  0  0  0  0  0  0  0  0  0
   59.7421   27.0227   46.1573 C   0  0  0  0  0  0  0  0  0  0  0  0
   60.9640   26.7793   46.3454 O   0  0  0  0  0  0  0  0  0  0  0  0
   61.4704   30.3276   50.9435 C   0  0  0  0  0  0  0  0  0  0  0  0
   60.5441   31.3408   51.6365 C   0  0  0  0  0  0  0  0  0  0  0  0
   59.0556   31.0022   51.4960 C   0  0  0  0  0  0  0  0  0  0  0  0
   58.3525   32.1111   50.9324 O   0  0  0  0  0  0  0  0  0  0  0  0
   58.8212   32.8169   49.8132 C   0  0  0  0  0  0  0  0  0  0  0  0
   59.5968   33.8033   49.9607 O   0  0  0  0  0  0  0  0  0  0  0  0
   58.4419   32.3814   48.4996 N   0  0  0  0  0  0  0  0  0  0  0  0
   58.0321   31.4908   48.4091 H   0  0  0  0  0  0  0  0  0  0  0  0
   58.6230   33.1650   47.3063 C   0  0  0  0  0  0  0  0  0  0  0  0
   59.6599   34.1141   47.2528 C   0  0  0  0  0  0  0  0  0  0  0  0
   59.8796   34.8596   46.0905 C   0  0  0  0  0  0  0  0  0  0  0  0
   59.0781   34.6493   44.9635 C   0  0  0  0  0  0  0  0  0  0  0  0
   58.0579   33.6944   44.9985 C   0  0  0  0  0  0  0  0  0  0  0  0
   57.8311   32.9495   46.1614 C   0  0  0  0  0  0  0  0  0  0  0  0
  1  2  2  0
  2  3  1  0
  3  4  2  0
  4  9  1  0
  9 10  2  0
 10 11  1  0
 10 12  1  0
 12 13  1  0
 13 14  2  0
 13 15  1  0
 15 16  1  0
 16 17  2  0
  3  5  1  0
  5  6  2  0
  6  7  1  0
  6  8  1  0
  8 18  1  0
 18 19  1  0
 19 20  1  0
 20 21  1  0
 21 22  1  0
 22 23  2  0
 22 24  1  0
 24 26  1  0
 26 27  2  0
 27 28  1  0
 28 29  2  0
 29 30  1  0
 30 31  2  0
  8  2  1  0
 31 26  1  0
 16  9  1  0
 24 25  1  0
M  CHG 1  11  -1
M  CHG 1  12  -1
M  CHG 1  15  -1
M  END
> <UniqueID>
4

> <SMILES>
C=c1c(=Cc2c([O-])[n-]c(=O)[n-]c2=O)cc(C)n1CCCOC(=O)Nc1ccccc1

> <Energy>
94.97916382703858

> <Genealogy>
C=c1c(=Cc2c([O-])[n-]c(=O)[n-]c2=O)cc(C)n1CCCOC(=O)Nc1ccccc1 (protonated)
C=c1c(=Cc2c([O-])[n-]c(=O)[n-]c2=O)cc(C)n1CCCOC(=O)Nc1ccccc1 (3D coordinates assigned)
C=c1c(=Cc2c([O-])[n-]c(=O)[n-]c2=O)cc(C)n1CCCOC(=O)Nc1ccccc1 (optimized conformer: 94.97916382703858 kcal/mol)

> <smiles>
C=c1c(=Cc2c(O)[nH]c(=O)[nH]c2=O)cc(C)n1CCCOC(=O)Nc1ccccc1

> <score_type>
oracle

> <origin>
adg

> <m_score__min__energy>
-16.129999999999999

> <m_primary>
energy

> <minimizedAffinity>
-7.57674

> <minimizedRMSD>
1.81278

> <CNNscore>
0.6378967762

> <CNNaffinity>
6.9476227760

> <CNN_VS>
4.4318661690

> <CNNaffinity_variance>
0.0228982028

$$$$
9:0


 32 35  0  0  0  0  0  0  0  0999 V2000
   57.4317   30.9943   43.7657 C   0  0  0  0  0  0  0  0  0  0  0  0
   58.0666   31.2856   44.9142 C   0  0  0  0  0  0  0  0  0  0  0  0
   57.7970   32.4994   45.4539 N   0  0  0  0  0  0  0  0  0  0  0  0
   58.3250   32.9183   46.6233 C   0  0  0  0  0  0  0  0  0  0  0  0
   58.0132   34.0624   47.0525 O   0  0  0  0  0  0  0  0  0  0  0  0
   59.1766   32.1122   47.3241 N   0  0  0  0  0  0  0  0  0  0  0  0
   59.5136   30.8773   46.8257 C   0  0  0  0  0  0  0  0  0  0  0  0
   60.3585   30.1797   47.4543 O   0  0  0  0  0  0  0  0  0  0  0  0
   58.9565   30.4008   45.5993 C   0  0  0  0  0  0  0  0  0  0  0  0
   59.2841   29.1784   45.0829 C   0  0  0  0  0  0  0  0  0  0  0  0
   58.7760   27.8728   45.5519 C   0  0  0  0  0  0  0  0  0  0  0  0
   59.6856   26.8751   45.9261 C   0  0  0  0  0  0  0  0  0  0  0  0
   59.2272   25.6223   46.3430 C   0  0  0  0  0  0  0  0  0  0  0  0
   57.8492   25.3418   46.3608 C   0  0  0  0  0  0  0  0  0  0  0  0
   56.9425   26.3360   45.9776 C   0  0  0  0  0  0  0  0  0  0  0  0
   57.3969   27.5906   45.5594 C   0  0  0  0  0  0  0  0  0  0  0  0
   56.4755   28.5501   45.1524 O   0  0  0  0  0  0  0  0  0  0  0  0
   57.3493   24.1025   46.7883 O   0  0  0  0  0  0  0  0  0  0  0  0
   57.0813   23.0106   45.9529 C   0  0  0  0  0  0  0  0  0  0  0  0
   57.0429   23.2108   44.6068 N   0  0  0  0  0  0  0  0  0  0  0  0
   56.7958   22.2002   43.7334 C   0  0  0  0  0  0  0  0  0  0  0  0
   56.5768   20.9051   44.2057 C   0  0  0  0  0  0  0  0  0  0  0  0
   56.6303   20.6618   45.5783 C   0  0  0  0  0  0  0  0  0  0  0  0
   56.8953   21.7115   46.4619 C   0  0  0  0  0  0  0  0  0  0  0  0
   56.9986   21.4535   47.8248 O   0  0  0  0  0  0  0  0  0  0  0  0
   59.7785   32.5868   48.5893 C   0  0  0  0  0  0  0  0  0  0  0  0
   61.2677   32.7654   48.4350 C   0  0  0  0  0  0  0  0  0  0  0  0
   62.1415   32.3445   49.4522 C   0  0  0  0  0  0  0  0  0  0  0  0
   63.5208   32.5357   49.3208 C   0  0  0  0  0  0  0  0  0  0  0  0
   64.0369   33.1472   48.1766 C   0  0  0  0  0  0  0  0  0  0  0  0
   63.1762   33.5692   47.1608 C   0  0  0  0  0  0  0  0  0  0  0  0
   61.7967   33.3818   47.2869 C   0  0  0  0  0  0  0  0  0  0  0  0
  1  2  2  0
  2  3  1  0
  3  4  1  0
  4  5  2  0
  4  6  1  0
  6 26  1  0
 26 27  1  0
 27 28  2  0
 28 29  1  0
 29 30  2  0
 30 31  1  0
 31 32  2  0
  6  7  1  0
  7  8  2  0
  7  9  1  0
  9 10  2  0
 10 11  1  0
 11 12  2  0
 12 13  1  0
 13 14  2  0
 14 18  1  0
 18 19  1  0
 19 20  2  0
 20 21  1  0
 21 22  2  0
 22 23  1  0
 23 24  2  0
 24 25  1  0
 14 15  1  0
 15 16  2  0
 16 17  1  0
  9  2  1  0
 16 11  1  0
 32 27  1  0
 24 19  1  0
M  CHG 1   3  -1
M  CHG 1  17  -1
M  CHG 1  25  -1
M  END
> <UniqueID>
10

> <SMILES>
C=c1[n-]c(=O)n(Cc2ccccc2)c(=O)c1=Cc1ccc(Oc2ncccc2[O-])cc1[O-]

> <Energy>
87.3377251316865

> <Genealogy>
C=c1[n-]c(=O)n(Cc2ccccc2)c(=O)c1=Cc1ccc(Oc2ncccc2[O-])cc1[O-] (protonated)
C=c1[n-]c(=O)n(Cc2ccccc2)c(=O)c1=Cc1ccc(Oc2ncccc2[O-])cc1[O-] (3D coordinates assigned)
C=c1[n-]c(=O)n(Cc2ccccc2)c(=O)c1=Cc1ccc(Oc2ncccc2[O-])cc1[O-] (optimized conformer: 87.3377251316865 kcal/mol)

> <smiles>
C=c1[nH]c(=O)n(Cc2ccccc2)c(=O)c1=Cc1ccc(Oc2ncccc2O)cc1O

> <score_type>
oracle

> <origin>
adg

> <m_score__min__energy>
-16.300000000000001

> <m_primary>
energy

> <minimizedAffinity>
-9.38980

> <minimizedRMSD>
0.94099

> <CNNscore>
0.4137668908

> <CNNaffinity>
6.9096870422

> <CNN_VS>
2.8589997292

> <CNNaffinity_variance>
0.0092385905

$$$$
10:0


 33 36  0  0  0  0  0  0  0  0999 V2000
   58.5906   31.5132   44.3586 C   0  0  0  0  0  0  0  0  0  0  0  0
   59.8944   29.6648   46.3379 C   0  0  0  0  0  0  0  0  0  0  0  0
   58.8687   29.2910   45.5578 C   0  0  0  0  0  0  0  0  0  0  0  0
   58.2978   28.0104   45.4980 C   0  0  0  0  0  0  0  0  0  0  0  0
   58.6763   26.9199   46.2014 C   0  0  0  0  0  0  0  0  0  0  0  0
   57.2864   28.0889   44.5521 C   0  0  0  0  0  0  0  0  0  0  0  0
   57.2789   29.3818   44.0754 C   0  0  0  0  0  0  0  0  0  0  0  0
   56.3261   29.8918   43.0352 C   0  0  0  0  0  0  0  0  0  0  0  0
   58.2423   30.1170   44.6780 N   0  0  0  0  0  0  0  0  0  0  0  0
   58.0737   25.5710   46.1018 C   0  0  0  0  0  0  0  0  0  0  0  0
   58.7406   24.4113   45.9304 N   0  0  0  0  0  0  0  0  0  0  0  0
   57.7601   23.4877   45.8560 C   0  0  0  0  0  0  0  0  0  0  0  0
   57.9950   22.2599   45.6936 O   0  0  0  0  0  0  0  0  0  0  0  0
   56.5080   23.9817   45.9594 N   0  0  0  0  0  0  0  0  0  0  0  0
   56.7251   25.3024   46.1106 C   0  0  0  0  0  0  0  0  0  0  0  0
   55.7150   26.2480   46.2602 O   0  0  0  0  0  0  0  0  0  0  0  0
   54.8173   25.9795   46.2548 H   0  0  0  0  0  0  0  0  0  0  0  0
   57.7226   32.5075   45.1499 C   0  0  0  0  0  0  0  0  0  0  0  0
   58.4944   33.1532   46.2693 C   0  0  0  0  0  0  0  0  0  0  0  0
   59.2652   34.3017   46.0342 C   0  0  0  0  0  0  0  0  0  0  0  0
   60.0426   34.8503   47.0571 C   0  0  0  0  0  0  0  0  0  0  0  0
   60.0708   34.2452   48.3179 C   0  0  0  0  0  0  0  0  0  0  0  0
   59.3150   33.0849   48.5693 C   0  0  0  0  0  0  0  0  0  0  0  0
   58.5080   32.5635   47.5432 C   0  0  0  0  0  0  0  0  0  0  0  0
   59.4054   32.3929   49.8760 C   0  0  0  0  0  0  0  0  0  0  0  0
   58.5638   31.5040   50.1742 O   0  0  0  0  0  0  0  0  0  0  0  0
   60.4737   32.7099   50.7849 N   0  0  0  0  0  0  0  0  0  0  0  0
   61.7557   32.7313   50.5448 C   0  0  0  0  0  0  0  0  0  0  0  0
   62.4204   31.7017   49.8409 C   0  0  0  0  0  0  0  0  0  0  0  0
   63.7993   31.7888   49.6359 C   0  0  0  0  0  0  0  0  0  0  0  0
   64.5094   32.8839   50.1330 C   0  0  0  0  0  0  0  0  0  0  0  0
   63.8289   33.8771   50.8405 C   0  0  0  0  0  0  0  0  0  0  0  0
   62.4871   33.7737   51.0353 N   0  0  0  0  0  0  0  0  0  0  0  0
  2  3  2  0
  3  4  1  0
  4  5  2  0
  5 10  1  0
 10 11  1  0
 11 12  1  0
 12 13  2  0
 12 14  1  0
 14 15  1  0
 15 16  1  0
  4  6  1  0
  6  7  2  0
  7  8  1  0
  7  9  1  0
  9  1  1  0
  1 18  1  0
 18 19  1  0
 19 20  2  0
 20 21  1  0
 21 22  2  0
 22 23  1  0
 23 25  1  0
 25 26  2  0
 25 27  1  0
 27 28  2  0
 28 29  1  0
 29 30  2  0
 30 31  1  0
 31 32  2  0
 32 33  1  0
 23 24  2  0
  9  3  1  0
 24 19  1  0
 15 10  2  0
 33 28  1  0
 16 17  1  0
M  CHG 1  11  -1
M  CHG 1  14  -1
M  CHG 1  33  -1
M  END
> <UniqueID>
11

> <SMILES>
C=c1c(=Cc2[n-]c(=O)[n-]c2O)cc(C)n1CCc1cccc(C(=O)N=c2cccc[n-]2)c1

> <Energy>
117.44499551614193

> <Genealogy>
C=c1c(=Cc2[n-]c(=O)[n-]c2O)cc(C)n1CCc1cccc(C(=O)N=c2cccc[n-]2)c1 (protonated)
C=c1c(=Cc2[n-]c(=O)[n-]c2O)cc(C)n1CCc1cccc(C(=O)N=c2cccc[n-]2)c1 (3D coordinates assigned)
C=c1c(=Cc2[n-]c(=O)[n-]c2O)cc(C)n1CCc1cccc(C(=O)N=c2cccc[n-]2)c1 (optimized conformer: 117.44499551614193 kcal/mol)

> <smiles>
C=c1c(=Cc2[nH]c(=O)[nH]c2O)cc(C)n1CCc1cccc(C(=O)N=c2cccc[nH]2)c1

> <score_type>
oracle

> <origin>
adg

> <m_score__min__energy>
-15.48

> <m_primary>
energy

> <minimizedAffinity>
-8.63869

> <minimizedRMSD>
1.08864

> <CNNscore>
0.3277658820

> <CNNaffinity>
7.0393614769

> <CNN_VS>
2.3072624207

> <CNNaffinity_variance>
0.1270153373

$$$$
15:0


 35 38  0  0  0  0  0  0  0  0999 V2000
   59.3827   30.0310   47.1748 C   0  0  0  0  0  0  0  0  0  0  0  0
   58.5252   30.9839   47.7395 C   0  0  0  0  0  0  0  0  0  0  0  0
   58.9782   31.8326   48.7530 C   0  0  0  0  0  0  0  0  0  0  0  0
   60.3117   31.7652   49.2145 C   0  0  0  0  0  0  0  0  0  0  0  0
   61.1632   30.7998   48.6358 C   0  0  0  0  0  0  0  0  0  0  0  0
   60.7033   29.9399   47.6347 C   0  0  0  0  0  0  0  0  0  0  0  0
   59.2111   27.0442   47.2965 C   0  0  0  0  0  0  0  0  0  0  0  0
   58.7879   27.7733   46.2484 C   0  0  0  0  0  0  0  0  0  0  0  0
   58.1954   27.2776   45.0801 C   0  0  0  0  0  0  0  0  0  0  0  0
   57.9167   25.9920   44.7866 C   0  0  0  0  0  0  0  0  0  0  0  0
   57.9820   28.3754   44.2557 C   0  0  0  0  0  0  0  0  0  0  0  0
   58.4102   29.4858   44.9542 C   0  0  0  0  0  0  0  0  0  0  0  0
   58.3419   30.8873   44.4333 C   0  0  0  0  0  0  0  0  0  0  0  0
   58.9042   29.1246   46.1609 N   0  0  0  0  0  0  0  0  0  0  0  0
   57.2634   25.0516   45.7151 C   0  0  0  0  0  0  0  0  0  0  0  0
   57.8837   23.9800   46.2336 N   0  0  0  0  0  0  0  0  0  0  0  0
   56.9710   23.4685   47.0870 C   0  0  0  0  0  0  0  0  0  0  0  0
   57.1858   22.4355   47.7700 O   0  0  0  0  0  0  0  0  0  0  0  0
   55.8154   24.1608   47.1656 N   0  0  0  0  0  0  0  0  0  0  0  0
   56.0203   25.1691   46.3038 C   0  0  0  0  0  0  0  0  0  0  0  0
   55.1128   26.2005   46.1055 O   0  0  0  0  0  0  0  0  0  0  0  0
   60.8541   32.6440   50.3050 C   0  0  0  0  0  0  0  0  0  0  0  0
   60.0232   33.2636   51.0243 O   0  0  0  0  0  0  0  0  0  0  0  0
   62.2662   32.8329   50.5860 N   0  0  0  0  0  0  0  0  0  0  0  0
   62.9987   33.3290   49.3920 C   0  0  0  0  0  0  0  0  0  0  0  0
   64.5050   32.9954   49.4255 C   0  0  0  0  0  0  0  0  0  0  0  0
   65.0215   33.0275   50.8733 C   0  0  0  0  0  0  0  0  0  0  0  0
   64.3229   31.9395   51.7161 C   0  0  0  0  0  0  0  0  0  0  0  0
   62.8738   31.6551   51.2462 C   0  0  0  0  0  0  0  0  0  0  0  0
   62.3785   31.8924   50.8545 H   0  0  0  0  0  0  0  0  0  0  0  0
   66.5284   32.8741   50.9338 C   0  0  0  0  0  0  0  0  0  0  0  0
   67.0408   31.8055   50.5093 O   0  0  0  0  0  0  0  0  0  0  0  0
   67.3889   33.8876   51.5069 N   0  0  0  0  0  0  0  0  0  0  0  0
   66.8419   35.1383   52.0478 C   0  0  0  0  0  0  0  0  0  0  0  0
   68.8323   33.6317   51.5713 C   0  0  0  0  0  0  0  0  0  0  0  0
  7  8  2  0
  8  9  1  0
  9 10  2  0
 10 15  1  0
 15 16  1  0
 16 17  1  0
 17 18  2  0
 17 19  1  0
 19 20  1  0
 20 21  1  0
  9 11  1  0
 11 12  2  0
 12 13  1  0
 12 14  1  0
 14  1  1  0
  1  2  2  0
  2  3  1  0
  3  4  2  0
  4 22  1  0
 22 23  2  0
 24 22  1  0
 24 25  1  0
 25 26  1  0
 26 27  1  0
 27 31  1  0
 31 32  2  0
 31 33  1  0
 33 34  1  0
 33 35  1  0
 27 28  1  0
 28 29  1  0
  4  5  1  0
  5  6  2  0
 14  8  1  0
  6  1  1  0
 20 15  2  0
 29 24  1  0
 24 30  1  0
M  CHG 1  16  -1
M  CHG 1  19  -1
M  CHG 1  21  -1
M  CHG 1  24   1
M  END
> <UniqueID>
16

> <SMILES>
C=c1c(=Cc2[n-]c(=O)[n-]c2[O-])cc(C)n1-c1ccc(C(=O)[NH+]2CCC(C(=O)N(C)C)CC2)cc1

> <Energy>
149.02917524734627

> <Genealogy>
C=c1c(=Cc2[n-]c(=O)[n-]c2[O-])cc(C)n1-c1ccc(C(=O)[NH+]2CCC(C(=O)N(C)C)CC2)cc1 (protonated)
C=c1c(=Cc2[n-]c(=O)[n-]c2[O-])cc(C)n1-c1ccc(C(=O)[NH+]2CCC(C(=O)N(C)C)CC2)cc1 (3D coordinates assigned)
C=c1c(=Cc2[n-]c(=O)[n-]c2[O-])cc(C)n1-c1ccc(C(=O)[NH+]2CCC(C(=O)N(C)C)CC2)cc1 (nonaromatic ring conformer: 149.02917524734627 kcal/mol)

> <smiles>
C=c1c(=Cc2[nH]c(=O)[nH]c2O)cc(C)n1-c1ccc(C(=O)N2CCC(C(=O)N(C)C)CC2)cc1

> <score_type>
oracle

> <origin>
adg

> <m_score__min__energy>
-15.51

> <m_primary>
energy

> <minimizedAffinity>
-8.32292

> <minimizedRMSD>
1.06037

> <CNNscore>
0.1515929848

> <CNNaffinity>
6.5026049614

> <CNN_VS>
0.9857493043

> <CNNaffinity_variance>
0.2799530625

$$$$
16:0


 31 34  0  0  0  0  0  0  0  0999 V2000
   59.7324   29.6293   48.1657 C   0  0  0  0  0  0  0  0  0  0  0  0
   59.3110   30.1928   47.0202 C   0  0  0  0  0  0  0  0  0  0  0  0
   59.2929   29.5752   45.7635 C   0  0  0  0  0  0  0  0  0  0  0  0
   59.6376   28.3050   45.4716 C   0  0  0  0  0  0  0  0  0  0  0  0
   58.8006   30.5182   44.8728 C   0  0  0  0  0  0  0  0  0  0  0  0
   58.5415   31.6580   45.6047 C   0  0  0  0  0  0  0  0  0  0  0  0
   58.0227   32.9355   45.0160 C   0  0  0  0  0  0  0  0  0  0  0  0
   58.8494   31.4704   46.9111 N   0  0  0  0  0  0  0  0  0  0  0  0
   58.7520   27.1404   45.6707 C   0  0  0  0  0  0  0  0  0  0  0  0
   57.3753   27.1576   45.6398 C   0  0  0  0  0  0  0  0  0  0  0  0
   56.5848   28.2560   45.3274 O   0  0  0  0  0  0  0  0  0  0  0  0
   56.8790   25.9481   45.9645 N   0  0  0  0  0  0  0  0  0  0  0  0
   57.9926   25.2230   46.2062 C   0  0  0  0  0  0  0  0  0  0  0  0
   57.9587   24.0174   46.5637 O   0  0  0  0  0  0  0  0  0  0  0  0
   59.1427   25.9104   46.0485 N   0  0  0  0  0  0  0  0  0  0  0  0
   60.0623   25.5845   46.1804 H   0  0  0  0  0  0  0  0  0  0  0  0
   58.7407   32.4936   47.9646 C   0  0  0  0  0  0  0  0  0  0  0  0
   60.0777   32.7237   48.6204 C   0  0  0  0  0  0  0  0  0  0  0  0
   61.2117   32.9971   47.8420 C   0  0  0  0  0  0  0  0  0  0  0  0
   62.4496   33.2260   48.4489 C   0  0  0  0  0  0  0  0  0  0  0  0
   62.5776   33.1813   49.8480 C   0  0  0  0  0  0  0  0  0  0  0  0
   61.4403   32.9013   50.6269 C   0  0  0  0  0  0  0  0  0  0  0  0
   60.2026   32.6745   50.0175 C   0  0  0  0  0  0  0  0  0  0  0  0
   63.8921   33.4264   50.4954 C   0  0  0  0  0  0  0  0  0  0  0  0
   65.0484   32.7691   50.0358 C   0  0  0  0  0  0  0  0  0  0  0  0
   66.2849   33.0011   50.6444 C   0  0  0  0  0  0  0  0  0  0  0  0
   66.3836   33.8886   51.7177 C   0  0  0  0  0  0  0  0  0  0  0  0
   65.2428   34.5492   52.1862 C   0  0  0  0  0  0  0  0  0  0  0  0
   64.0013   34.3190   51.5787 C   0  0  0  0  0  0  0  0  0  0  0  0
   65.3438   35.4603   53.2968 C   0  0  0  0  0  0  0  0  0  0  0  0
   65.4239   36.1927   54.1899 N   0  0  0  0  0  0  0  0  0  0  0  0
  1  2  2  0
  2  3  1  0
  3  4  2  0
  4  9  1  0
  9 10  2  0
 10 11  1  0
 10 12  1  0
 12 13  1  0
 13 14  2  0
 13 15  1  0
  3  5  1  0
  5  6  2  0
  6  7  1  0
  6  8  1  0
  8 17  1  0
 17 18  1  0
 18 19  2  0
 19 20  1  0
 20 21  2  0
 21 24  1  0
 24 25  2  0
 25 26  1  0
 26 27  2  0
 27 28  1  0
 28 30  1  0
 30 31  3  0
 28 29  2  0
 21 22  1  0
 22 23  2  0
  8  2  1  0
 23 18  1  0
 15  9  1  0
 29 24  1  0
 15 16  1  0
M  CHG 1  11  -1
M  CHG 1  12  -1
M  END
> <UniqueID>
17

> <SMILES>
C=c1/c(=C/c2[nH]c(=O)[n-]c2[O-])cc(C)n1Cc1ccc(-c2cccc(C#N)c2)cc1

> <Energy>
121.51902475322443

> <Genealogy>
C=c1c(=Cc2[nH]c(=O)[n-]c2[O-])cc(C)n1Cc1ccc(-c2cccc(C#N)c2)cc1 (protonated)
C=c1/c(=C/c2[nH]c(=O)[n-]c2[O-])cc(C)n1Cc1ccc(-c2cccc(C#N)c2)cc1 (cis-trans isomerization)
C=c1/c(=C/c2[nH]c(=O)[n-]c2[O-])cc(C)n1Cc1ccc(-c2cccc(C#N)c2)cc1 (3D coordinates assigned)
C=c1/c(=C/c2[nH]c(=O)[n-]c2[O-])cc(C)n1Cc1ccc(-c2cccc(C#N)c2)cc1 (optimized conformer: 121.51902475322443 kcal/mol)

> <smiles>
C=c1c(=Cc2[nH]c(=O)[nH]c2O)cc(C)n1Cc1ccc(-c2cccc(C#N)c2)cc1

> <score_type>
oracle

> <origin>
adg

> <m_score__min__energy>
-15.9

> <m_primary>
energy

> <minimizedAffinity>
-7.88879

> <minimizedRMSD>
1.28087

> <CNNscore>
0.5895036459

> <CNNaffinity>
6.9921131134

> <CNN_VS>
4.1218762398

> <CNNaffinity_variance>
0.1175442263

$$$$
21:0


 35 39  0  0  0  0  0  0  0  0999 V2000
   59.3375   31.7530   47.2297 C   0  0  0  0  0  0  0  0  0  0  0  0
   58.5186   32.4630   48.1179 C   0  0  0  0  0  0  0  0  0  0  0  0
   59.0781   33.3898   48.9992 C   0  0  0  0  0  0  0  0  0  0  0  0
   60.4566   33.6192   48.9959 C   0  0  0  0  0  0  0  0  0  0  0  0
   61.2907   32.9255   48.1032 C   0  0  0  0  0  0  0  0  0  0  0  0
   60.7203   31.9848   47.2295 C   0  0  0  0  0  0  0  0  0  0  0  0
   62.7542   33.1609   48.1046 C   0  0  0  0  0  0  0  0  0  0  0  0
   63.3472   33.3854   47.0146 O   0  0  0  0  0  0  0  0  0  0  0  0
   63.5094   33.1594   49.3306 N   0  0  0  0  0  0  0  0  0  0  0  0
   62.8176   33.3334   50.6103 C   0  0  0  0  0  0  0  0  0  0  0  0
   63.6600   34.2060   51.5405 C   0  0  0  0  0  0  0  0  0  0  0  0
   65.0952   33.7507   51.5856 C   0  0  0  0  0  0  0  0  0  0  0  0
   65.9016   34.1420   52.6678 C   0  0  0  0  0  0  0  0  0  0  0  0
   67.2510   33.7817   52.7110 C   0  0  0  0  0  0  0  0  0  0  0  0
   67.8110   33.0400   51.6702 C   0  0  0  0  0  0  0  0  0  0  0  0
   67.0252   32.6592   50.5808 C   0  0  0  0  0  0  0  0  0  0  0  0
   65.6686   33.0190   50.5189 C   0  0  0  0  0  0  0  0  0  0  0  0
   64.8473   32.5595   49.3387 C   0  0  0  0  0  0  0  0  0  0  0  0
   59.0519   28.8204   47.5957 C   0  0  0  0  0  0  0  0  0  0  0  0
   58.7182   29.4502   46.4578 C   0  0  0  0  0  0  0  0  0  0  0  0
   58.1442   28.8822   45.3082 C   0  0  0  0  0  0  0  0  0  0  0  0
   57.9550   27.5933   44.9593 C   0  0  0  0  0  0  0  0  0  0  0  0
   57.7877   29.9400   44.4885 C   0  0  0  0  0  0  0  0  0  0  0  0
   58.2069   31.0928   45.1186 C   0  0  0  0  0  0  0  0  0  0  0  0
   58.0535   32.4727   44.5528 C   0  0  0  0  0  0  0  0  0  0  0  0
   58.7675   30.8011   46.3124 N   0  0  0  0  0  0  0  0  0  0  0  0
   57.7375   26.4734   45.8962 C   0  0  0  0  0  0  0  0  0  0  0  0
   56.4369   26.0854   46.2440 C   0  0  0  0  0  0  0  0  0  0  0  0
   55.3360   26.7782   45.7532 O   0  0  0  0  0  0  0  0  0  0  0  0
   56.2444   25.0283   47.0746 N   0  0  0  0  0  0  0  0  0  0  0  0
   57.2931   24.3222   47.5675 C   0  0  0  0  0  0  0  0  0  0  0  0
   57.0911   23.3509   48.3407 O   0  0  0  0  0  0  0  0  0  0  0  0
   58.5629   24.6615   47.2235 N   0  0  0  0  0  0  0  0  0  0  0  0
   58.8090   25.7092   46.3950 C   0  0  0  0  0  0  0  0  0  0  0  0
   59.9976   25.9789   46.0774 O   0  0  0  0  0  0  0  0  0  0  0  0
 19 20  2  0
 20 21  1  0
 21 22  2  0
 22 27  1  0
 27 28  2  0
 28 29  1  0
 28 30  1  0
 30 31  1  0
 31 32  2  0
 31 33  1  0
 33 34  1  0
 34 35  2  0
 21 23  1  0
 23 24  2  0
 24 25  1  0
 24 26  1  0
 26  1  1  0
  1  2  2  0
  2  3  1  0
  3  4  2  0
  4  5  1  0
  5  7  1  0
  7  8  2  0
  7  9  1  0
  9 10  1  0
 10 11  1  0
 11 12  1  0
 12 13  2  0
 13 14  1  0
 14 15  2  0
 15 16  1  0
 16 17  2  0
 17 18  1  0
  5  6  2  0
 26 20  1  0
  6  1  1  0
 34 27  1  0
 18  9  1  0
 17 12  1  0
M  CHG 1  29  -1
M  CHG 1  30  -1
M  CHG 1  33  -1
M  END
> <UniqueID>
22

> <SMILES>
C=c1c(=Cc2c([O-])[n-]c(=O)[n-]c2=O)cc(C)n1-c1cccc(C(=O)N2CCc3ccccc3C2)c1

> <Energy>
116.3662772874279

> <Genealogy>
C=c1c(=Cc2c([O-])[n-]c(=O)[n-]c2=O)cc(C)n1-c1cccc(C(=O)N2CCc3ccccc3C2)c1 (protonated)
C=c1c(=Cc2c([O-])[n-]c(=O)[n-]c2=O)cc(C)n1-c1cccc(C(=O)N2CCc3ccccc3C2)c1 (3D coordinates assigned)
C=c1c(=Cc2c([O-])[n-]c(=O)[n-]c2=O)cc(C)n1-c1cccc(C(=O)N2CCc3ccccc3C2)c1 (nonaromatic ring conformer: 116.3662772874279 kcal/mol)

> <smiles>
C=c1c(=Cc2c(O)[nH]c(=O)[nH]c2=O)cc(C)n1-c1cccc(C(=O)N2CCc3ccccc3C2)c1

> <score_type>
oracle

> <origin>
adg

> <m_score__min__energy>
-18.309999999999999

> <m_primary>
energy

> <minimizedAffinity>
-8.33530

> <minimizedRMSD>
1.09252

> <CNNscore>
0.1628837287

> <CNNaffinity>
6.7041707039

> <CNN_VS>
1.0920003653

> <CNNaffinity_variance>
0.0607579499

$$$$
23:0


 29 31  0  0  0  0  0  0  0  0999 V2000
   57.4133   27.8722   45.8577 C   0  0  0  0  0  0  0  0  0  0  0  0
   58.7048   28.1758   46.3180 C   0  0  0  0  0  0  0  0  0  0  0  0
   59.3028   29.4195   46.0488 C   0  0  0  0  0  0  0  0  0  0  0  0
   58.5577   30.3590   45.3027 C   0  0  0  0  0  0  0  0  0  0  0  0
   59.0283   31.4975   45.0391 O   0  0  0  0  0  0  0  0  0  0  0  0
   57.3091   30.0494   44.8685 N   0  0  0  0  0  0  0  0  0  0  0  0
   56.7223   28.8512   45.1204 C   0  0  0  0  0  0  0  0  0  0  0  0
   55.4452   28.6128   44.6294 O   0  0  0  0  0  0  0  0  0  0  0  0
   55.5756   26.3643   46.0446 O   0  0  0  0  0  0  0  0  0  0  0  0
   56.8177   26.5484   46.1606 C   0  0  0  0  0  0  0  0  0  0  0  0
   57.6587   25.4710   46.5903 N   0  0  0  0  0  0  0  0  0  0  0  0
   58.5764   24.7580   45.7093 C   0  0  0  0  0  0  0  0  0  0  0  0
   57.9090   23.5298   45.1574 C   0  0  0  0  0  0  0  0  0  0  0  0
   57.1519   23.5937   43.9758 C   0  0  0  0  0  0  0  0  0  0  0  0
   56.5131   22.4508   43.4858 C   0  0  0  0  0  0  0  0  0  0  0  0
   56.6190   21.2345   44.1741 C   0  0  0  0  0  0  0  0  0  0  0  0
   55.9875   20.0901   43.6947 O   0  0  0  0  0  0  0  0  0  0  0  0
   57.3654   21.1687   45.3550 C   0  0  0  0  0  0  0  0  0  0  0  0
   58.0053   22.3098   45.8477 C   0  0  0  0  0  0  0  0  0  0  0  0
   55.4860   20.1281   42.9041 H   0  0  0  0  0  0  0  0  0  0  0  0
   60.6803   29.7261   46.5357 C   0  0  0  0  0  0  0  0  0  0  0  0
   61.6764   29.3985   45.8358 O   0  0  0  0  0  0  0  0  0  0  0  0
   60.9380   30.4097   47.8554 C   0  0  0  0  0  0  0  0  0  0  0  0
   60.5573   31.8692   47.8134 C   0  0  0  0  0  0  0  0  0  0  0  0
   59.3670   32.3137   48.4167 C   0  0  0  0  0  0  0  0  0  0  0  0
   59.0112   33.6651   48.3672 C   0  0  0  0  0  0  0  0  0  0  0  0
   59.8318   34.5808   47.7032 C   0  0  0  0  0  0  0  0  0  0  0  0
   61.0057   34.1476   47.0826 C   0  0  0  0  0  0  0  0  0  0  0  0
   61.3666   32.7960   47.1314 C   0  0  0  0  0  0  0  0  0  0  0  0
  9 10  2  0
 10 11  1  0
 11 12  1  0
 12 13  1  0
 13 14  2  0
 14 15  1  0
 15 16  2  0
 16 17  1  0
 16 18  1  0
 18 19  2  0
 10  1  1  0
  1  2  1  0
  2  3  2  0
  3 21  1  0
 21 22  2  0
 21 23  1  0
 23 24  1  0
 24 25  2  0
 25 26  1  0
 26 27  2  0
 27 28  1  0
 28 29  2  0
  3  4  1  0
  4  5  2  0
  4  6  1  0
  6  7  1  0
  7  8  1  0
 19 13  1  0
  7  1  2  0
 29 24  1  0
 17 20  1  0
M  CHG 1   6  -1
M  CHG 1   8  -1
M  CHG 1  11  -1
M  END
> <UniqueID>
24

> <SMILES>
O=C([N-]Cc1ccc(O)cc1)c1cc(C(=O)Cc2ccccc2)c(=O)[n-]c1[O-]

> <Energy>
48.83479019743395

> <Genealogy>
O=C([N-]Cc1ccc(O)cc1)c1cc(C(=O)Cc2ccccc2)c(=O)[n-]c1[O-] (protonated)
O=C([N-]Cc1ccc(O)cc1)c1cc(C(=O)Cc2ccccc2)c(=O)[n-]c1[O-] (3D coordinates assigned)
O=C([N-]Cc1ccc(O)cc1)c1cc(C(=O)Cc2ccccc2)c(=O)[n-]c1[O-] (optimized conformer: 48.83479019743395 kcal/mol)

> <smiles>
O=C(NCc1ccc(O)cc1)c1cc(C(=O)Cc2ccccc2)c(=O)[nH]c1O

> <score_type>
oracle

> <origin>
adg

> <m_score__min__energy>
-16.059999999999999

> <m_primary>
energy

> <minimizedAffinity>
-4.72371

> <minimizedRMSD>
0.57891

> <CNNscore>
0.3655018806

> <CNNaffinity>
6.5866732597

> <CNN_VS>
2.4074413776

> <CNNaffinity_variance>
0.8307926059

$$$$
28:0


 25 27  0  0  0  0  0  0  0  0999 V2000
   58.1150   27.2277   43.1327 C   0  0  0  0  0  0  0  0  0  0  0  0
   58.1241   27.1072   44.4687 C   0  0  0  0  0  0  0  0  0  0  0  0
   57.9786   25.9329   45.2257 C   0  0  0  0  0  0  0  0  0  0  0  0
   57.5953   24.6897   44.8694 C   0  0  0  0  0  0  0  0  0  0  0  0
   58.3194   26.3187   46.5207 C   0  0  0  0  0  0  0  0  0  0  0  0
   58.3380   25.4541   47.7436 C   0  0  0  0  0  0  0  0  0  0  0  0
   58.5801   27.6376   46.5380 N   0  0  0  0  0  0  0  0  0  0  0  0
   58.4525   28.1203   45.3130 N   0  0  0  0  0  0  0  0  0  0  0  0
   58.8267   28.1606   47.3348 H   0  0  0  0  0  0  0  0  0  0  0  0
   56.4257   23.9727   45.4021 C   0  0  0  0  0  0  0  0  0  0  0  0
   56.2458   22.6397   45.3352 N   0  0  0  0  0  0  0  0  0  0  0  0
   54.9954   22.4697   45.8143 C   0  0  0  0  0  0  0  0  0  0  0  0
   54.4599   21.3358   45.9246 O   0  0  0  0  0  0  0  0  0  0  0  0
   54.3584   23.6102   46.1543 N   0  0  0  0  0  0  0  0  0  0  0  0
   55.2735   24.5521   45.8724 C   0  0  0  0  0  0  0  0  0  0  0  0
   55.0569   25.9136   46.0385 O   0  0  0  0  0  0  0  0  0  0  0  0
   58.7499   29.5147   44.9668 C   0  0  0  0  0  0  0  0  0  0  0  0
   59.5051   30.1942   46.0797 C   0  0  0  0  0  0  0  0  0  0  0  0
   60.2931   29.5074   46.7866 O   0  0  0  0  0  0  0  0  0  0  0  0
   59.3105   31.5934   46.3827 N   0  0  0  0  0  0  0  0  0  0  0  0
   58.2035   32.3483   45.7806 C   0  0  0  0  0  0  0  0  0  0  0  0
   57.8341   33.5469   46.6602 C   0  0  0  0  0  0  0  0  0  0  0  0
   58.9802   34.3121   46.9765 O   0  0  0  0  0  0  0  0  0  0  0  0
   59.8501   33.5451   47.7862 C   0  0  0  0  0  0  0  0  0  0  0  0
   60.4049   32.3497   47.0075 C   0  0  0  0  0  0  0  0  0  0  0  0
  1  2  2  0
  2  3  1  0
  3  4  2  0
  4 10  1  0
 10 11  1  0
 11 12  1  0
 12 13  2  0
 12 14  1  0
 14 15  1  0
 15 16  1  0
  3  5  1  0
  5  6  1  0
  5  7  2  0
  7  8  1  0
  8 17  1  0
 17 18  1  0
 18 19  2  0
 18 20  1  0
 20 21  1  0
 21 22  1  0
 22 23  1  0
 23 24  1  0
 24 25  1  0
  8  2  1  0
 25 20  1  0
 15 10  2  0
  7  9  1  0
M  CHG 1   7   1
M  CHG 1  11  -1
M  CHG 1  14  -1
M  CHG 1  16  -1
M  END
> <UniqueID>
29

> <SMILES>
C=c1c(=Cc2[n-]c(=O)[n-]c2[O-])c(C)[nH+]n1CC(=O)N1CCOCC1

> <Energy>
115.95917230972827

> <Genealogy>
C=c1c(=Cc2[n-]c(=O)[n-]c2[O-])c(C)[nH+]n1CC(=O)N1CCOCC1 (protonated)
C=c1c(=Cc2[n-]c(=O)[n-]c2[O-])c(C)[nH+]n1CC(=O)N1CCOCC1 (3D coordinates assigned)
C=c1c(=Cc2[n-]c(=O)[n-]c2[O-])c(C)[nH+]n1CC(=O)N1CCOCC1 (nonaromatic ring conformer: 115.95917230972827 kcal/mol)

> <smiles>
C=c1c(=Cc2[nH]c(=O)[nH]c2O)c(C)nn1CC(=O)N1CCOCC1

> <score_type>
oracle

> <origin>
adg

> <m_score__min__energy>
-14.74

> <m_primary>
energy

> <minimizedAffinity>
-7.14710

> <minimizedRMSD>
1.26347

> <CNNscore>
0.0710180625

> <CNNaffinity>
5.2838935852

> <CNN_VS>
0.3752518892

> <CNNaffinity_variance>
0.0105846236

$$$$
36:0


 31 34  0  0  0  0  0  0  0  0999 V2000
   59.4552   30.1742   48.2644 C   0  0  0  0  0  0  0  0  0  0  0  0
   59.1709   30.7326   47.0767 C   0  0  0  0  0  0  0  0  0  0  0  0
   59.0417   30.0784   45.8382 C   0  0  0  0  0  0  0  0  0  0  0  0
   59.2773   28.8010   45.4779 C   0  0  0  0  0  0  0  0  0  0  0  0
   58.6116   31.0372   44.9378 C   0  0  0  0  0  0  0  0  0  0  0  0
   58.5307   32.2295   45.6258 C   0  0  0  0  0  0  0  0  0  0  0  0
   58.1581   33.5401   45.0011 C   0  0  0  0  0  0  0  0  0  0  0  0
   58.8761   32.0518   46.9230 N   0  0  0  0  0  0  0  0  0  0  0  0
   58.4352   27.6390   45.8236 C   0  0  0  0  0  0  0  0  0  0  0  0
   57.0509   27.6487   45.5851 C   0  0  0  0  0  0  0  0  0  0  0  0
   56.4413   28.7413   44.9796 O   0  0  0  0  0  0  0  0  0  0  0  0
   56.2940   26.5815   45.9528 N   0  0  0  0  0  0  0  0  0  0  0  0
   56.8501   25.5058   46.5660 C   0  0  0  0  0  0  0  0  0  0  0  0
   56.1316   24.5277   46.8936 O   0  0  0  0  0  0  0  0  0  0  0  0
   58.1823   25.4863   46.8303 N   0  0  0  0  0  0  0  0  0  0  0  0
   58.9822   26.5275   46.4819 C   0  0  0  0  0  0  0  0  0  0  0  0
   60.2121   26.4799   46.7497 O   0  0  0  0  0  0  0  0  0  0  0  0
   58.8639   33.0888   47.9684 C   0  0  0  0  0  0  0  0  0  0  0  0
   60.2087   33.1941   48.6452 C   0  0  0  0  0  0  0  0  0  0  0  0
   61.3798   33.3011   47.8781 C   0  0  0  0  0  0  0  0  0  0  0  0
   62.6270   33.4090   48.5010 C   0  0  0  0  0  0  0  0  0  0  0  0
   62.7233   33.4300   49.9023 C   0  0  0  0  0  0  0  0  0  0  0  0
   61.5500   33.3312   50.6689 C   0  0  0  0  0  0  0  0  0  0  0  0
   60.3048   33.2214   50.0457 C   0  0  0  0  0  0  0  0  0  0  0  0
   64.0104   33.5256   50.5443 N   0  0  0  0  0  0  0  0  0  0  0  0
   64.1738   34.2706   51.7998 C   0  0  0  0  0  0  0  0  0  0  0  0
   64.7699   33.3667   52.8908 C   0  0  0  0  0  0  0  0  0  0  0  0
   65.7882   32.3383   52.3474 C   0  0  0  0  0  0  0  0  0  0  0  0
   66.8439   32.2117   53.2335 F   0  0  0  0  0  0  0  0  0  0  0  0
   66.3275   32.7244   50.9624 C   0  0  0  0  0  0  0  0  0  0  0  0
   65.1731   32.8421   49.9564 C   0  0  0  0  0  0  0  0  0  0  0  0
  1  2  2  0
  2  3  1  0
  3  4  2  0
  4  9  1  0
  9 10  2  0
 10 11  1  0
 10 12  1  0
 12 13  1  0
 13 14  2  0
 13 15  1  0
 15 16  1  0
 16 17  2  0
  3  5  1  0
  5  6  2  0
  6  7  1  0
  6  8  1  0
  8 18  1  0
 18 19  1  0
 19 20  2  0
 20 21  1  0
 21 22  2  0
 22 25  1  0
 25 26  1  0
 26 27  1  0
 27 28  1  0
 28 29  1  0
 28 30  1  0
 30 31  1  0
 22 23  1  0
 23 24  2  0
  8  2  1  0
 24 19  1  0
 16  9  1  0
 31 25  1  0
M  CHG 1  11  -1
M  CHG 1  12  -1
M  CHG 1  15  -1
M  END
> <UniqueID>
37

> <SMILES>
C=c1/c(=C\c2c([O-])[n-]c(=O)[n-]c2=O)cc(C)n1Cc1ccc(N2CCC(F)CC2)cc1

> <Energy>
103.75478587961643

> <Genealogy>
C=c1c(=Cc2c([O-])[n-]c(=O)[n-]c2=O)cc(C)n1Cc1ccc(N2CCC(F)CC2)cc1 (protonated)
C=c1/c(=C\c2c([O-])[n-]c(=O)[n-]c2=O)cc(C)n1Cc1ccc(N2CCC(F)CC2)cc1 (cis-trans isomerization)
C=c1/c(=C\c2c([O-])[n-]c(=O)[n-]c2=O)cc(C)n1Cc1ccc(N2CCC(F)CC2)cc1 (3D coordinates assigned)
C=c1/c(=C\c2c([O-])[n-]c(=O)[n-]c2=O)cc(C)n1Cc1ccc(N2CCC(F)CC2)cc1 (nonaromatic ring conformer: 103.75478587961643 kcal/mol)

> <smiles>
C=c1c(=Cc2c(O)[nH]c(=O)[nH]c2=O)cc(C)n1Cc1ccc(N2CCC(F)CC2)cc1

> <score_type>
oracle

> <origin>
adg

> <m_score__min__energy>
-16.239999999999998

> <m_primary>
energy

> <minimizedAffinity>
-8.10981

> <minimizedRMSD>
1.11446

> <CNNscore>
0.6209731698

> <CNNaffinity>
7.2559890747

> <CNN_VS>
4.5057744980

> <CNNaffinity_variance>
0.1646608561

$$$$
42:0


 32 35  0  0  0  0  0  0  0  0999 V2000
   54.7837   28.3659   54.7308 C   0  0  0  0  0  0  0  0  0  0  0  0
   55.3160   29.0834   53.7284 C   0  0  0  0  0  0  0  0  0  0  0  0
   54.6706   30.0653   52.9611 C   0  0  0  0  0  0  0  0  0  0  0  0
   53.3685   30.4014   52.8696 C   0  0  0  0  0  0  0  0  0  0  0  0
   55.6579   30.6917   52.2245 C   0  0  0  0  0  0  0  0  0  0  0  0
   56.8421   30.0503   52.5118 C   0  0  0  0  0  0  0  0  0  0  0  0
   56.6386   29.0505   53.4062 N   0  0  0  0  0  0  0  0  0  0  0  0
   52.6182   30.5933   51.6190 C   0  0  0  0  0  0  0  0  0  0  0  0
   52.6610   29.7336   50.5865 N   0  0  0  0  0  0  0  0  0  0  0  0
   51.7445   30.2316   49.7279 C   0  0  0  0  0  0  0  0  0  0  0  0
   51.5016   29.6997   48.6128 O   0  0  0  0  0  0  0  0  0  0  0  0
   51.0994   31.3354   50.1620 N   0  0  0  0  0  0  0  0  0  0  0  0
   51.6528   31.5424   51.3675 C   0  0  0  0  0  0  0  0  0  0  0  0
   51.2644   32.5624   52.2288 O   0  0  0  0  0  0  0  0  0  0  0  0
   58.1398   30.4416   51.9258 C   0  0  0  0  0  0  0  0  0  0  0  0
   58.4878   29.9175   50.8306 O   0  0  0  0  0  0  0  0  0  0  0  0
   58.9142   31.5212   52.4969 N   0  0  0  0  0  0  0  0  0  0  0  0
   60.2012   31.6869   51.7928 C   0  0  0  0  0  0  0  0  0  0  0  0
   61.0158   32.8435   52.4199 C   0  0  0  0  0  0  0  0  0  0  0  0
   60.2541   33.6150   53.3313 O   0  0  0  0  0  0  0  0  0  0  0  0
   59.0335   34.0039   52.7319 C   0  0  0  0  0  0  0  0  0  0  0  0
   58.1373   32.7791   52.4537 C   0  0  0  0  0  0  0  0  0  0  0  0
   59.2362   32.3097   52.9908 H   0  0  0  0  0  0  0  0  0  0  0  0
   57.6314   28.0595   53.8556 C   0  0  0  0  0  0  0  0  0  0  0  0
   58.8153   28.7394   54.5022 C   0  0  0  0  0  0  0  0  0  0  0  0
   60.1112   28.5295   54.0025 C   0  0  0  0  0  0  0  0  0  0  0  0
   61.2086   29.1618   54.5951 C   0  0  0  0  0  0  0  0  0  0  0  0
   61.0232   30.0013   55.6961 C   0  0  0  0  0  0  0  0  0  0  0  0
   62.0882   30.6137   56.2700 F   0  0  0  0  0  0  0  0  0  0  0  0
   59.7385   30.2046   56.2106 C   0  0  0  0  0  0  0  0  0  0  0  0
   58.6377   29.5741   55.6215 C   0  0  0  0  0  0  0  0  0  0  0  0
   57.4042   29.7752   56.1483 F   0  0  0  0  0  0  0  0  0  0  0  0
  1  2  2  0
  2  3  1  0
  3  4  2  0
  4  8  1  0
  8  9  1  0
  9 10  1  0
 10 11  2  0
 10 12  1  0
 12 13  1  0
 13 14  1  0
  3  5  1  0
  5  6  2  0
  6 15  1  0
 15 16  2  0
 15 17  1  0
 17 18  1  0
 18 19  1  0
 19 20  1  0
 20 21  1  0
 21 22  1  0
  6  7  1  0
  7 24  1  0
 24 25  1  0
 25 26  2  0
 26 27  1  0
 27 28  2  0
 28 29  1  0
 28 30  1  0
 30 31  2  0
 31 32  1  0
  7  2  1  0
 31 25  1  0
 13  8  2  0
 22 17  1  0
 17 23  1  0
M  CHG 1   9  -1
M  CHG 1  12  -1
M  CHG 1  14  -1
M  CHG 1  17   1
M  END
> <UniqueID>
42

> <SMILES>
C=c1/c(=C\c2[n-]c(=O)[n-]c2[O-])cc(C(=O)[NH+]2CCOCC2)n1Cc1ccc(F)cc1F

> <Energy>
139.32019472826215

> <Genealogy>
C=c1c(=Cc2[n-]c(=O)[n-]c2[O-])cc(C(=O)[NH+]2CCOCC2)n1Cc1ccc(F)cc1F (protonated)
C=c1/c(=C\c2[n-]c(=O)[n-]c2[O-])cc(C(=O)[NH+]2CCOCC2)n1Cc1ccc(F)cc1F (cis-trans isomerization)
C=c1/c(=C\c2[n-]c(=O)[n-]c2[O-])cc(C(=O)[NH+]2CCOCC2)n1Cc1ccc(F)cc1F (3D coordinates assigned)
C=c1/c(=C\c2[n-]c(=O)[n-]c2[O-])cc(C(=O)[NH+]2CCOCC2)n1Cc1ccc(F)cc1F (nonaromatic ring conformer: 139.32019472826215 kcal/mol)

> <smiles>
C=c1c(=Cc2[nH]c(=O)[nH]c2O)cc(C(=O)N2CCOCC2)n1Cc1ccc(F)cc1F

> <score_type>
oracle

> <origin>
adg

> <m_score__min__energy>
-15.619999999999999

> <m_primary>
energy

> <minimizedAffinity>
-4.87047

> <minimizedRMSD>
0.85577

> <CNNscore>
0.1341937482

> <CNNaffinity>
4.9048366547

> <CNN_VS>
0.6581984162

> <CNNaffinity_variance>
0.3672000468

$$$$
50:0


 33 36  0  0  0  0  0  0  0  0999 V2000
   60.5288   28.5528   50.0783 N   0  0  0  0  0  0  0  0  0  0  0  0
   59.9046   29.8421   50.1571 C   0  0  0  0  0  0  0  0  0  0  0  0
   60.3186   30.8404   49.2670 C   0  0  0  0  0  0  0  0  0  0  0  0
   59.7351   32.1120   49.2997 C   0  0  0  0  0  0  0  0  0  0  0  0
   58.7197   32.3854   50.2247 C   0  0  0  0  0  0  0  0  0  0  0  0
   58.2766   31.3848   51.0941 C   0  0  0  0  0  0  0  0  0  0  0  0
   58.8501   30.1100   51.0546 C   0  0  0  0  0  0  0  0  0  0  0  0
   58.3452   29.1135   51.8829 O   0  0  0  0  0  0  0  0  0  0  0  0
   60.3093   33.3604   48.1970 S   0  0  0  0  0  0  0  0  0  0  0  0
   61.2460   34.2662   48.9480 O   0  0  0  0  0  0  0  0  0  0  0  0
   61.0602   32.7325   47.0551 O   0  0  0  0  0  0  0  0  0  0  0  0
   58.9373   34.2673   47.6000 N   0  0  0  0  0  0  0  0  0  0  0  0
   59.3531   35.4108   46.7649 C   0  0  0  0  0  0  0  0  0  0  0  0
   59.8356   34.9862   45.3653 C   0  0  0  0  0  0  0  0  0  0  0  0
   59.0005   33.8453   44.7562 C   0  0  0  0  0  0  0  0  0  0  0  0
   57.6726   33.6580   45.4861 C   0  0  0  0  0  0  0  0  0  0  0  0
   57.9139   33.3857   46.9811 C   0  0  0  0  0  0  0  0  0  0  0  0
   60.5235   27.6912   48.9339 C   0  0  0  0  0  0  0  0  0  0  0  0
   61.3357   26.7249   48.8827 O   0  0  0  0  0  0  0  0  0  0  0  0
   57.6699   27.2712   46.5053 N   0  0  0  0  0  0  0  0  0  0  0  0
   58.5286   27.0828   47.5519 C   0  0  0  0  0  0  0  0  0  0  0  0
   59.6106   27.9512   47.7838 C   0  0  0  0  0  0  0  0  0  0  0  0
   59.7875   29.0479   46.9133 C   0  0  0  0  0  0  0  0  0  0  0  0
   60.7437   29.8539   47.0827 O   0  0  0  0  0  0  0  0  0  0  0  0
   58.8906   29.2484   45.8500 C   0  0  0  0  0  0  0  0  0  0  0  0
   59.0202   30.3341   44.9650 C   0  0  0  0  0  0  0  0  0  0  0  0
   58.1050   30.5061   43.9283 C   0  0  0  0  0  0  0  0  0  0  0  0
   57.0611   29.5924   43.7777 C   0  0  0  0  0  0  0  0  0  0  0  0
   56.2269   29.7328   42.8465 O   0  0  0  0  0  0  0  0  0  0  0  0
   56.9467   28.5452   44.6361 N   0  0  0  0  0  0  0  0  0  0  0  0
   57.8225   28.3413   45.6622 C   0  0  0  0  0  0  0  0  0  0  0  0
   57.0227   25.0517   45.6504 C   0  0  0  0  0  0  0  0  0  0  0  0
   56.5489   26.3295   46.3363 C   0  0  0  0  0  0  0  0  0  0  0  0
 32 33  1  0
 33 20  1  0
 20 21  1  0
 21 22  2  0
 22 18  1  0
 18 19  2  0
 18  1  1  0
  1  2  1  0
  2  3  2  0
  3  4  1  0
  4  9  1  0
  9 10  2  0
  9 11  2  0
  9 12  1  0
 12 13  1  0
 13 14  1  0
 14 15  1  0
 15 16  1  0
 16 17  1  0
  4  5  2  0
  5  6  1  0
  6  7  2  0
  7  8  1  0
 22 23  1  0
 23 24  2  0
 23 25  1  0
 25 26  1  0
 26 27  2  0
 27 28  1  0
 28 29  2  0
 28 30  1  0
 30 31  1  0
 31 20  1  0
  7  2  1  0
 31 25  2  0
 17 12  1  0
M  CHG 1   1  -1
M  CHG 1   8  -1
M  CHG 1  30  -1
M  END
> <UniqueID>
47

> <SMILES>
CCn1cc(C(=O)[N-]c2cc(S(=O)(=O)N3CCCCC3)ccc2[O-])c(=O)c2ccc(=O)[n-]c21

> <Energy>
77.38200270811423

> <Genealogy>
CCn1cc(C(=O)[N-]c2cc(S(=O)(=O)N3CCCCC3)ccc2[O-])c(=O)c2ccc(=O)[n-]c21 (protonated)
CCn1cc(C(=O)[N-]c2cc(S(=O)(=O)N3CCCCC3)ccc2[O-])c(=O)c2ccc(=O)[n-]c21 (3D coordinates assigned)
CCn1cc(C(=O)[N-]c2cc(S(=O)(=O)N3CCCCC3)ccc2[O-])c(=O)c2ccc(=O)[n-]c21 (nonaromatic ring conformer: 77.38200270811423 kcal/mol)

> <smiles>
CCn1cc(C(=O)Nc2cc(S(=O)(=O)N3CCCCC3)ccc2O)c(=O)c2ccc(=O)[nH]c21

> <score_type>
oracle

> <origin>
adg

> <m_score__min__energy>
-14.640000000000001

> <m_primary>
energy

> <minimizedAffinity>
-6.32742

> <minimizedRMSD>
0.48300

> <CNNscore>
0.2972077429

> <CNNaffinity>
6.8054656982

> <CNN_VS>
2.0226371288

> <CNNaffinity_variance>
0.0210001115

$$$$
56:0


 34 37  0  0  0  0  0  0  0  0999 V2000
   59.3017   29.1682   47.5115 C   0  0  0  0  0  0  0  0  0  0  0  0
   58.9448   30.5200   47.6157 C   0  0  0  0  0  0  0  0  0  0  0  0
   59.4232   31.2948   48.6754 C   0  0  0  0  0  0  0  0  0  0  0  0
   60.2741   30.7330   49.6411 C   0  0  0  0  0  0  0  0  0  0  0  0
   60.6153   29.3710   49.5449 C   0  0  0  0  0  0  0  0  0  0  0  0
   61.4364   28.7954   50.4599 F   0  0  0  0  0  0  0  0  0  0  0  0
   60.1364   28.5994   48.4823 C   0  0  0  0  0  0  0  0  0  0  0  0
   58.7814   26.2476   47.4767 C   0  0  0  0  0  0  0  0  0  0  0  0
   58.6688   27.0226   46.3852 C   0  0  0  0  0  0  0  0  0  0  0  0
   58.2041   26.6332   45.1186 C   0  0  0  0  0  0  0  0  0  0  0  0
   57.9868   25.4115   44.5927 C   0  0  0  0  0  0  0  0  0  0  0  0
   57.9984   27.8032   44.4049 C   0  0  0  0  0  0  0  0  0  0  0  0
   58.4147   28.8422   45.2126 C   0  0  0  0  0  0  0  0  0  0  0  0
   58.3973   30.2866   44.8154 C   0  0  0  0  0  0  0  0  0  0  0  0
   58.8218   28.3715   46.4134 N   0  0  0  0  0  0  0  0  0  0  0  0
   56.9583   24.4585   45.0406 C   0  0  0  0  0  0  0  0  0  0  0  0
   56.9414   23.1473   44.7329 N   0  0  0  0  0  0  0  0  0  0  0  0
   55.7623   22.7239   45.2404 C   0  0  0  0  0  0  0  0  0  0  0  0
   55.3848   21.5268   45.1665 O   0  0  0  0  0  0  0  0  0  0  0  0
   55.0172   23.6876   45.8241 N   0  0  0  0  0  0  0  0  0  0  0  0
   55.7843   24.7803   45.6753 C   0  0  0  0  0  0  0  0  0  0  0  0
   55.4142   26.0474   46.1064 O   0  0  0  0  0  0  0  0  0  0  0  0
   60.7754   31.5578   50.7637 C   0  0  0  0  0  0  0  0  0  0  0  0
   60.0638   31.6766   51.7980 O   0  0  0  0  0  0  0  0  0  0  0  0
   62.0460   32.2361   50.6985 N   0  0  0  0  0  0  0  0  0  0  0  0
   63.1569   31.6925   49.9004 C   0  0  0  0  0  0  0  0  0  0  0  0
   64.5142   31.8345   50.6249 C   0  0  0  0  0  0  0  0  0  0  0  0
   64.5207   32.8829   51.6696 N   0  0  0  0  0  0  0  0  0  0  0  0
   63.6452   34.0105   51.3275 C   0  0  0  0  0  0  0  0  0  0  0  0
   62.1978   33.5284   51.3817 C   0  0  0  0  0  0  0  0  0  0  0  0
   66.1478   33.4414   51.9739 S   0  0  0  0  0  0  0  0  0  0  0  0
   67.2564   33.0089   50.6446 C   0  0  0  0  0  0  0  0  0  0  0  0
   66.1330   34.9366   52.1237 O   0  0  0  0  0  0  0  0  0  0  0  0
   66.6578   32.8338   53.2512 O   0  0  0  0  0  0  0  0  0  0  0  0
  8  9  2  0
  9 10  1  0
 10 11  2  0
 11 16  1  0
 16 17  1  0
 17 18  1  0
 18 19  2  0
 18 20  1  0
 20 21  1  0
 21 22  1  0
 10 12  1  0
 12 13  2  0
 13 14  1  0
 13 15  1  0
 15  1  1  0
  1  2  2  0
  2  3  1  0
  3  4  2  0
  4 23  1  0
 23 24  2  0
 23 25  1  0
 25 26  1  0
 26 27  1  0
 27 28  1  0
 28 31  1  0
 31 32  1  0
 31 33  2  0
 31 34  2  0
 28 29  1  0
 29 30  1  0
  4  5  1  0
  5  6  1  0
  5  7  2  0
 15  9  1  0
  7  1  1  0
 21 16  2  0
 30 25  1  0
M  CHG 1  17  -1
M  CHG 1  20  -1
M  CHG 1  22  -1
M  END
> <UniqueID>
53

> <SMILES>
C=c1c(=Cc2[n-]c(=O)[n-]c2[O-])cc(C)n1-c1ccc(C(=O)N2CCN(S(C)(=O)=O)CC2)c(F)c1

> <Energy>
137.62781061052084

> <Genealogy>
C=c1c(=Cc2[n-]c(=O)[n-]c2[O-])cc(C)n1-c1ccc(C(=O)N2CCN(S(C)(=O)=O)CC2)c(F)c1 (protonated)
C=c1c(=Cc2[n-]c(=O)[n-]c2[O-])cc(C)n1-c1ccc(C(=O)N2CCN(S(C)(=O)=O)CC2)c(F)c1 (3D coordinates assigned)
C=c1c(=Cc2[n-]c(=O)[n-]c2[O-])cc(C)n1-c1ccc(C(=O)N2CCN(S(C)(=O)=O)CC2)c(F)c1 (nonaromatic ring conformer: 137.62781061052084 kcal/mol)

> <smiles>
C=c1c(=Cc2[nH]c(=O)[nH]c2O)cc(C)n1-c1ccc(C(=O)N2CCN(S(C)(=O)=O)CC2)c(F)c1

> <score_type>
oracle

> <origin>
adg

> <m_score__min__energy>
-15.69

> <m_primary>
energy

> <minimizedAffinity>
-8.34633

> <minimizedRMSD>
0.86460

> <CNNscore>
0.0797204077

> <CNNaffinity>
5.9089903831

> <CNN_VS>
0.4710671306

> <CNNaffinity_variance>
0.1446396559

$$$$
66:0


 28 30  0  0  0  0  0  0  0  0999 V2000
   57.2241   25.2828   44.4593 C   0  0  0  0  0  0  0  0  0  0  0  0
   57.9966   26.2192   45.0445 C   0  0  0  0  0  0  0  0  0  0  0  0
   58.4243   27.3536   44.3778 C   0  0  0  0  0  0  0  0  0  0  0  0
   59.2308   28.0526   45.2504 C   0  0  0  0  0  0  0  0  0  0  0  0
   59.9231   29.3412   44.9191 C   0  0  0  0  0  0  0  0  0  0  0  0
   59.3203   27.4044   46.4346 N   0  0  0  0  0  0  0  0  0  0  0  0
   58.5353   26.2973   46.3408 C   0  0  0  0  0  0  0  0  0  0  0  0
   58.2591   25.4951   47.3823 C   0  0  0  0  0  0  0  0  0  0  0  0
   54.8253   25.8953   45.8734 O   0  0  0  0  0  0  0  0  0  0  0  0
   55.2609   24.5745   45.8273 C   0  0  0  0  0  0  0  0  0  0  0  0
   54.5315   23.6024   46.4379 N   0  0  0  0  0  0  0  0  0  0  0  0
   54.9263   22.3036   46.4055 C   0  0  0  0  0  0  0  0  0  0  0  0
   54.2383   21.4223   46.9812 O   0  0  0  0  0  0  0  0  0  0  0  0
   56.0606   21.9534   45.7449 N   0  0  0  0  0  0  0  0  0  0  0  0
   56.8236   22.8854   45.1178 C   0  0  0  0  0  0  0  0  0  0  0  0
   57.8568   22.5215   44.4959 O   0  0  0  0  0  0  0  0  0  0  0  0
   56.4501   24.2418   45.1629 C   0  0  0  0  0  0  0  0  0  0  0  0
   54.0298   26.1109   46.3191 H   0  0  0  0  0  0  0  0  0  0  0  0
   60.0433   27.8953   47.6169 C   0  0  0  0  0  0  0  0  0  0  0  0
   59.1606   28.8605   48.4181 C   0  0  0  0  0  0  0  0  0  0  0  0
   59.5944   30.3216   48.2408 C   0  0  0  0  0  0  0  0  0  0  0  0
   58.5186   31.1350   47.6710 N   0  0  0  0  0  0  0  0  0  0  0  0
   58.6915   32.1837   46.9203 C   0  0  0  0  0  0  0  0  0  0  0  0
   57.6945   32.6344   46.1034 N   0  0  0  0  0  0  0  0  0  0  0  0
   57.8573   33.7237   45.3070 C   0  0  0  0  0  0  0  0  0  0  0  0
   59.0695   34.4169   45.3090 C   0  0  0  0  0  0  0  0  0  0  0  0
   60.1023   33.9796   46.1382 C   0  0  0  0  0  0  0  0  0  0  0  0
   59.9171   32.8579   46.9496 C   0  0  0  0  0  0  0  0  0  0  0  0
  9 10  1  0
 10 11  1  0
 11 12  1  0
 12 13  2  0
 12 14  1  0
 14 15  1  0
 15 16  2  0
 15 17  1  0
 17  1  1  0
  1  2  2  0
  2  3  1  0
  3  4  2  0
  4  5  1  0
  4  6  1  0
  6 19  1  0
 19 20  1  0
 20 21  1  0
 21 22  1  0
 22 23  2  0
 23 24  1  0
 24 25  1  0
 25 26  2  0
 26 27  1  0
 27 28  2  0
  6  7  1  0
  7  8  2  0
 17 10  2  0
  7  2  1  0
 28 23  1  0
  9 18  1  0
M  CHG 1  11  -1
M  CHG 1  14  -1
M  CHG 1  24  -1
M  END
> <UniqueID>
63

> <SMILES>
C=c1c(=Cc2c(O)[n-]c(=O)[n-]c2=O)cc(C)n1CCC/N=c1/cccc[n-]1

> <Energy>
85.10242149030046

> <Genealogy>
C=c1c(=Cc2c(O)[n-]c(=O)[n-]c2=O)cc(C)n1CCCN=c1cccc[n-]1 (protonated)
C=c1c(=Cc2c(O)[n-]c(=O)[n-]c2=O)cc(C)n1CCC/N=c1/cccc[n-]1 (cis-trans isomerization)
C=c1c(=Cc2c(O)[n-]c(=O)[n-]c2=O)cc(C)n1CCC/N=c1/cccc[n-]1 (3D coordinates assigned)
C=c1c(=Cc2c(O)[n-]c(=O)[n-]c2=O)cc(C)n1CCC/N=c1/cccc[n-]1 (optimized conformer: 85.10242149030046 kcal/mol)

> <smiles>
C=c1c(=Cc2c(O)[nH]c(=O)[nH]c2=O)cc(C)n1CCCN=c1cccc[nH]1

> <score_type>
oracle

> <origin>
adg

> <m_score__min__energy>
-14.1

> <m_primary>
energy

> <minimizedAffinity>
-8.58000

> <minimizedRMSD>
2.14798

> <CNNscore>
0.2077893317

> <CNNaffinity>
6.4491505623

> <CNN_VS>
1.3400646448

> <CNNaffinity_variance>
0.1736111045

$$$$
73:0


 34 37  0  0  0  0  0  0  0  0999 V2000
   59.0754   28.9187   46.8149 C   0  0  0  0  0  0  0  0  0  0  0  0
   59.0281   29.2534   48.1757 C   0  0  0  0  0  0  0  0  0  0  0  0
   59.2526   30.5716   48.5865 C   0  0  0  0  0  0  0  0  0  0  0  0
   59.5320   31.5751   47.6404 C   0  0  0  0  0  0  0  0  0  0  0  0
   59.5684   31.2344   46.2772 C   0  0  0  0  0  0  0  0  0  0  0  0
   59.3453   29.9176   45.8693 C   0  0  0  0  0  0  0  0  0  0  0  0
   59.7663   32.9730   48.0719 C   0  0  0  0  0  0  0  0  0  0  0  0
   59.1231   33.9180   47.5362 O   0  0  0  0  0  0  0  0  0  0  0  0
   60.7295   33.2745   49.0883 N   0  0  0  0  0  0  0  0  0  0  0  0
   60.4204   32.9919   50.4910 C   0  0  0  0  0  0  0  0  0  0  0  0
   61.6575   32.4260   51.1965 C   0  0  0  0  0  0  0  0  0  0  0  0
   62.8801   33.1782   50.8677 N   0  0  0  0  0  0  0  0  0  0  0  0
   64.1090   32.7981   51.5323 C   0  0  0  0  0  0  0  0  0  0  0  0
   64.1898   31.6551   52.0591 O   0  0  0  0  0  0  0  0  0  0  0  0
   62.8052   34.3290   49.9492 C   0  0  0  0  0  0  0  0  0  0  0  0
   61.9546   33.9872   48.7186 C   0  0  0  0  0  0  0  0  0  0  0  0
   65.3194   33.7089   51.5893 C   0  0  0  0  0  0  0  0  0  0  0  0
   65.7558   33.9597   53.0398 C   0  0  0  0  0  0  0  0  0  0  0  0
   66.4728   33.1036   50.7817 C   0  0  0  0  0  0  0  0  0  0  0  0
   56.7119   27.8092   45.4029 C   0  0  0  0  0  0  0  0  0  0  0  0
   57.8188   27.0916   45.6523 C   0  0  0  0  0  0  0  0  0  0  0  0
   58.0177   25.7262   45.3870 C   0  0  0  0  0  0  0  0  0  0  0  0
   57.3191   24.8617   44.6266 C   0  0  0  0  0  0  0  0  0  0  0  0
   59.1714   25.3657   46.0640 C   0  0  0  0  0  0  0  0  0  0  0  0
   59.6749   26.5140   46.6361 C   0  0  0  0  0  0  0  0  0  0  0  0
   60.9384   26.5790   47.4441 C   0  0  0  0  0  0  0  0  0  0  0  0
   58.8594   27.5623   46.3859 N   0  0  0  0  0  0  0  0  0  0  0  0
   56.2044   24.0169   45.0875 C   0  0  0  0  0  0  0  0  0  0  0  0
   56.2170   22.6690   45.1043 N   0  0  0  0  0  0  0  0  0  0  0  0
   55.0616   22.3537   45.7268 C   0  0  0  0  0  0  0  0  0  0  0  0
   54.6968   21.1651   45.9170 O   0  0  0  0  0  0  0  0  0  0  0  0
   54.3328   23.4116   46.1404 N   0  0  0  0  0  0  0  0  0  0  0  0
   55.0791   24.4540   45.7389 C   0  0  0  0  0  0  0  0  0  0  0  0
   54.7434   25.7815   45.9768 O   0  0  0  0  0  0  0  0  0  0  0  0
 20 21  2  0
 21 22  1  0
 22 23  2  0
 23 28  1  0
 28 29  1  0
 29 30  1  0
 30 31  2  0
 30 32  1  0
 32 33  1  0
 33 34  1  0
 22 24  1  0
 24 25  2  0
 25 26  1  0
 25 27  1  0
 27  1  1  0
  1  2  2  0
  2  3  1  0
  3  4  2  0
  4  7  1  0
  7  8  2  0
  7  9  1  0
  9 10  1  0
 10 11  1  0
 11 12  1  0
 12 13  1  0
 13 14  2  0
 13 17  1  0
 17 18  1  0
 17 19  1  0
 12 15  1  0
 15 16  1  0
  4  5  1  0
  5  6  2  0
 27 21  1  0
  6  1  1  0
 33 28  2  0
 16  9  1  0
M  CHG 1  29  -1
M  CHG 1  32  -1
M  CHG 1  34  -1
M  END
> <UniqueID>
69

> <SMILES>
C=c1c(=Cc2[n-]c(=O)[n-]c2[O-])cc(C)n1-c1ccc(C(=O)N2CCN(C(=O)C(C)C)CC2)cc1

> <Energy>
140.35227099074666

> <Genealogy>
C=c1c(=Cc2[n-]c(=O)[n-]c2[O-])cc(C)n1-c1ccc(C(=O)N2CCN(C(=O)C(C)C)CC2)cc1 (protonated)
C=c1c(=Cc2[n-]c(=O)[n-]c2[O-])cc(C)n1-c1ccc(C(=O)N2CCN(C(=O)C(C)C)CC2)cc1 (3D coordinates assigned)
C=c1c(=Cc2[n-]c(=O)[n-]c2[O-])cc(C)n1-c1ccc(C(=O)N2CCN(C(=O)C(C)C)CC2)cc1 (nonaromatic ring conformer: 140.35227099074666 kcal/mol)

> <smiles>
C=c1c(=Cc2[nH]c(=O)[nH]c2O)cc(C)n1-c1ccc(C(=O)N2CCN(C(=O)C(C)C)CC2)cc1

> <score_type>
oracle

> <origin>
adg

> <m_score__min__energy>
-16.199999999999999

> <m_primary>
energy

> <minimizedAffinity>
-8.01075

> <minimizedRMSD>
0.95171

> <CNNscore>
0.0726151988

> <CNNaffinity>
6.3313751221

> <CNN_VS>
0.4597540498

> <CNNaffinity_variance>
0.0103449905

$$$$
76:0


 34 37  0  0  0  0  0  0  0  0999 V2000
   59.5728   33.6752   48.1889 C   0  0  0  0  0  0  0  0  0  0  0  0
   60.8130   34.0515   48.7335 C   0  0  0  0  0  0  0  0  0  0  0  0
   61.2270   33.5437   49.9662 C   0  0  0  0  0  0  0  0  0  0  0  0
   60.4094   32.6610   50.6736 C   0  0  0  0  0  0  0  0  0  0  0  0
   59.1623   32.2728   50.1559 C   0  0  0  0  0  0  0  0  0  0  0  0
   58.7550   32.7829   48.9071 C   0  0  0  0  0  0  0  0  0  0  0  0
   58.2958   31.3498   50.9311 C   0  0  0  0  0  0  0  0  0  0  0  0
   57.2353   31.6904   51.7539 C   0  0  0  0  0  0  0  0  0  0  0  0
   56.7897   30.4820   52.2451 C   0  0  0  0  0  0  0  0  0  0  0  0
   57.5334   29.4815   51.7347 N   0  0  0  0  0  0  0  0  0  0  0  0
   58.4506   30.0098   50.9385 N   0  0  0  0  0  0  0  0  0  0  0  0
   55.6593   30.2727   53.1659 C   0  0  0  0  0  0  0  0  0  0  0  0
   55.8087   30.5396   54.3881 O   0  0  0  0  0  0  0  0  0  0  0  0
   54.4006   29.7569   52.6969 N   0  0  0  0  0  0  0  0  0  0  0  0
   53.7091   30.4008   51.5741 C   0  0  0  0  0  0  0  0  0  0  0  0
   52.5201   31.2103   52.1043 C   0  0  0  0  0  0  0  0  0  0  0  0
   51.6124   30.3384   52.9840 C   0  0  0  0  0  0  0  0  0  0  0  0
   52.4075   29.6734   54.1182 C   0  0  0  0  0  0  0  0  0  0  0  0
   53.5956   28.8847   53.5566 C   0  0  0  0  0  0  0  0  0  0  0  0
   59.1373   34.2106   46.8788 C   0  0  0  0  0  0  0  0  0  0  0  0
   59.7313   35.1988   46.3671 O   0  0  0  0  0  0  0  0  0  0  0  0
   58.0400   33.6031   46.1834 N   0  0  0  0  0  0  0  0  0  0  0  0
   58.1752   32.8822   44.9225 C   0  0  0  0  0  0  0  0  0  0  0  0
   57.7091   28.6387   45.5814 C   0  0  0  0  0  0  0  0  0  0  0  0
   58.6856   29.3569   46.2818 C   0  0  0  0  0  0  0  0  0  0  0  0
   58.8438   30.7281   46.0617 C   0  0  0  0  0  0  0  0  0  0  0  0
   58.0272   31.3965   45.1322 C   0  0  0  0  0  0  0  0  0  0  0  0
   57.0424   30.6748   44.4398 C   0  0  0  0  0  0  0  0  0  0  0  0
   56.8839   29.3045   44.6632 C   0  0  0  0  0  0  0  0  0  0  0  0
   55.8187   26.5511   45.9921 N   0  0  0  0  0  0  0  0  0  0  0  0
   57.5027   26.9148   45.8742 S   0  0  0  0  0  0  0  0  0  0  0  0
   58.1931   26.5326   47.1542 O   0  0  0  0  0  0  0  0  0  0  0  0
   58.1046   26.1255   44.7462 O   0  0  0  0  0  0  0  0  0  0  0  0
   55.6975   25.5526   46.1617 H   0  0  0  0  0  0  0  0  0  0  0  0
 30 31  1  0
 31 32  2  0
 31 33  2  0
 31 24  1  0
 24 25  2  0
 25 26  1  0
 26 27  2  0
 27 23  1  0
 23 22  1  0
 22 20  1  0
 20 21  2  0
 20  1  1  0
  1  2  2  0
  2  3  1  0
  3  4  2  0
  4  5  1  0
  5  7  1  0
  7  8  2  0
  8  9  1  0
  9 12  1  0
 12 13  2  0
 12 14  1  0
 14 15  1  0
 15 16  1  0
 16 17  1  0
 17 18  1  0
 18 19  1  0
  9 10  2  0
 10 11  1  0
  5  6  2  0
 27 28  1  0
 28 29  2  0
 29 24  1  0
  6  1  1  0
 11  7  1  0
 19 14  1  0
 30 34  1  0
M  CHG 1  11  -1
M  CHG 1  22  -1
M  CHG 1  30  -1
M  END
> <UniqueID>
71

> <SMILES>
[NH-]S(=O)(=O)c1ccc(C[N-]C(=O)c2cccc(-c3cc(C(=O)N4CCCCC4)n[n-]3)c2)cc1

> <Energy>
86.30966649492662

> <Genealogy>
[NH-]S(=O)(=O)c1ccc(C[N-]C(=O)c2cccc(-c3cc(C(=O)N4CCCCC4)n[n-]3)c2)cc1 (protonated)
[NH-]S(=O)(=O)c1ccc(C[N-]C(=O)c2cccc(-c3cc(C(=O)N4CCCCC4)n[n-]3)c2)cc1 (3D coordinates assigned)
[NH-]S(=O)(=O)c1ccc(C[N-]C(=O)c2cccc(-c3cc(C(=O)N4CCCCC4)n[n-]3)c2)cc1 (nonaromatic ring conformer: 86.30966649492662 kcal/mol)

> <smiles>
NS(=O)(=O)c1ccc(CNC(=O)c2cccc(-c3cc(C(=O)N4CCCCC4)n[nH]3)c2)cc1

> <score_type>
oracle

> <origin>
adg

> <m_score__min__energy>
-14.68

> <m_primary>
energy

> <minimizedAffinity>
-8.90601

> <minimizedRMSD>
0.62728

> <CNNscore>
0.6967041492

> <CNNaffinity>
7.2276287079

> <CNN_VS>
5.0355191231

> <CNNaffinity_variance>
0.2247111350

$$$$
80:0


 30 33  0  0  0  0  0  0  0  0999 V2000
   57.3911   28.3862   54.0196 C   0  0  0  0  0  0  0  0  0  0  0  0
   57.2128   29.5421   53.3595 C   0  0  0  0  0  0  0  0  0  0  0  0
   56.0363   30.3023   53.2869 C   0  0  0  0  0  0  0  0  0  0  0  0
   54.7669   30.0033   53.6310 C   0  0  0  0  0  0  0  0  0  0  0  0
   56.3963   31.5243   52.7407 C   0  0  0  0  0  0  0  0  0  0  0  0
   57.7376   31.4418   52.4281 C   0  0  0  0  0  0  0  0  0  0  0  0
   58.5347   32.5451   51.8006 C   0  0  0  0  0  0  0  0  0  0  0  0
   58.2341   30.2408   52.7994 N   0  0  0  0  0  0  0  0  0  0  0  0
   53.6034   30.0560   52.7315 C   0  0  0  0  0  0  0  0  0  0  0  0
   53.6506   29.8460   51.4019 N   0  0  0  0  0  0  0  0  0  0  0  0
   52.3940   30.1360   50.9969 C   0  0  0  0  0  0  0  0  0  0  0  0
   52.0319   30.0424   49.7955 O   0  0  0  0  0  0  0  0  0  0  0  0
   51.5612   30.5419   51.9785 N   0  0  0  0  0  0  0  0  0  0  0  0
   52.3477   30.4990   53.0667 C   0  0  0  0  0  0  0  0  0  0  0  0
   51.9276   30.8640   54.3400 O   0  0  0  0  0  0  0  0  0  0  0  0
   59.6062   29.8231   52.6689 C   0  0  0  0  0  0  0  0  0  0  0  0
   60.4692   29.9030   53.7634 C   0  0  0  0  0  0  0  0  0  0  0  0
   61.7656   29.5099   53.6533 N   0  0  0  0  0  0  0  0  0  0  0  0
   62.2846   29.0164   52.4819 C   0  0  0  0  0  0  0  0  0  0  0  0
   61.4325   28.9350   51.3575 C   0  0  0  0  0  0  0  0  0  0  0  0
   60.0899   29.3394   51.4495 C   0  0  0  0  0  0  0  0  0  0  0  0
   62.3525   29.5815   54.4404 H   0  0  0  0  0  0  0  0  0  0  0  0
   63.6826   28.5975   52.4020 N   0  0  0  0  0  0  0  0  0  0  0  0
   64.7070   29.5852   52.0022 C   0  0  0  0  0  0  0  0  0  0  0  0
   66.1347   29.0338   52.0334 C   0  0  0  0  0  0  0  0  0  0  0  0
   66.1704   27.7035   51.5798 O   0  0  0  0  0  0  0  0  0  0  0  0
   65.5332   26.8920   52.5359 C   0  0  0  0  0  0  0  0  0  0  0  0
   64.0280   27.1700   52.5781 C   0  0  0  0  0  0  0  0  0  0  0  0
   59.2122   29.2840   50.3536 O   0  0  0  0  0  0  0  0  0  0  0  0
   59.4134   29.9651   49.1198 C   0  0  0  0  0  0  0  0  0  0  0  0
  1  2  2  0
  2  3  1  0
  3  4  2  0
  4  9  1  0
  9 10  1  0
 10 11  1  0
 11 12  2  0
 11 13  1  0
 13 14  1  0
 14 15  1  0
  3  5  1  0
  5  6  2  0
  6  7  1  0
  6  8  1  0
  8 16  1  0
 16 17  2  0
 17 18  1  0
 18 19  2  0
 19 23  1  0
 23 24  1  0
 24 25  1  0
 25 26  1  0
 26 27  1  0
 27 28  1  0
 19 20  1  0
 20 21  2  0
 21 29  1  0
 29 30  1  0
  8  2  1  0
 21 16  1  0
 14  9  2  0
 28 23  1  0
 18 22  1  0
M  CHG 1  10  -1
M  CHG 1  13  -1
M  CHG 1  15  -1
M  CHG 1  18   1
M  END
> <UniqueID>
74

> <SMILES>
C=c1c(=Cc2[n-]c(=O)[n-]c2[O-])cc(C)n1-c1c[nH+]c(N2CCOCC2)cc1OC

> <Energy>
134.54633267067086

> <Genealogy>
C=c1c(=Cc2[n-]c(=O)[n-]c2[O-])cc(C)n1-c1c[nH+]c(N2CCOCC2)cc1OC (protonated)
C=c1c(=Cc2[n-]c(=O)[n-]c2[O-])cc(C)n1-c1c[nH+]c(N2CCOCC2)cc1OC (3D coordinates assigned)
C=c1c(=Cc2[n-]c(=O)[n-]c2[O-])cc(C)n1-c1c[nH+]c(N2CCOCC2)cc1OC (nonaromatic ring conformer: 134.54633267067086 kcal/mol)

> <smiles>
C=c1c(=Cc2[nH]c(=O)[nH]c2O)cc(C)n1-c1cnc(N2CCOCC2)cc1OC

> <score_type>
oracle

> <origin>
adg

> <m_score__min__energy>
-14.4

> <m_primary>
energy

> <minimizedAffinity>
-5.38742

> <minimizedRMSD>
2.98999

> <CNNscore>
0.1154569462

> <CNNaffinity>
4.5541458130

> <CNN_VS>
0.5258077383

> <CNNaffinity_variance>
0.9398981929

$$$$
89:0


 25 27  0  0  0  0  0  0  0  0999 V2000
   58.2033   27.1302   43.7921 C   0  0  0  0  0  0  0  0  0  0  0  0
   58.6566   27.2287   45.0526 C   0  0  0  0  0  0  0  0  0  0  0  0
   58.6244   26.2294   46.0397 C   0  0  0  0  0  0  0  0  0  0  0  0
   58.3427   24.9136   45.9593 C   0  0  0  0  0  0  0  0  0  0  0  0
   58.9630   26.8490   47.2299 C   0  0  0  0  0  0  0  0  0  0  0  0
   59.2455   28.1639   46.9307 C   0  0  0  0  0  0  0  0  0  0  0  0
   59.6679   29.1934   47.9355 C   0  0  0  0  0  0  0  0  0  0  0  0
   59.0846   28.3953   45.6069 N   0  0  0  0  0  0  0  0  0  0  0  0
   56.9953   24.3243   45.9219 C   0  0  0  0  0  0  0  0  0  0  0  0
   56.7573   23.0340   45.6309 N   0  0  0  0  0  0  0  0  0  0  0  0
   55.4084   22.9678   45.5850 C   0  0  0  0  0  0  0  0  0  0  0  0
   54.7912   21.8964   45.3506 O   0  0  0  0  0  0  0  0  0  0  0  0
   54.7761   24.1407   45.7990 N   0  0  0  0  0  0  0  0  0  0  0  0
   55.7946   24.9926   45.9958 C   0  0  0  0  0  0  0  0  0  0  0  0
   55.6302   26.3559   46.2087 O   0  0  0  0  0  0  0  0  0  0  0  0
   59.2465   29.7016   44.9482 C   0  0  0  0  0  0  0  0  0  0  0  0
   57.9810   30.5140   45.0385 C   0  0  0  0  0  0  0  0  0  0  0  0
   56.8962   29.9404   45.3218 O   0  0  0  0  0  0  0  0  0  0  0  0
   57.9534   31.9139   44.7302 N   0  0  0  0  0  0  0  0  0  0  0  0
   57.4409   32.9639   45.6035 C   0  0  0  0  0  0  0  0  0  0  0  0
   58.4364   33.2844   46.6760 C   0  0  0  0  0  0  0  0  0  0  0  0
   59.5880   34.5082   46.5999 S   0  0  0  0  0  0  0  0  0  0  0  0
   60.2836   34.1951   48.0991 C   0  0  0  0  0  0  0  0  0  0  0  0
   59.6230   33.1149   48.6707 C   0  0  0  0  0  0  0  0  0  0  0  0
   58.5925   32.5999   47.8737 C   0  0  0  0  0  0  0  0  0  0  0  0
  1  2  2  0
  2  3  1  0
  3  4  2  0
  4  9  1  0
  9 10  1  0
 10 11  1  0
 11 12  2  0
 11 13  1  0
 13 14  1  0
 14 15  1  0
  3  5  1  0
  5  6  2  0
  6  7  1  0
  6  8  1  0
  8 16  1  0
 16 17  1  0
 17 18  2  0
 17 19  1  0
 19 20  1  0
 20 21  1  0
 21 22  1  0
 22 23  1  0
 23 24  2  0
 24 25  1  0
  8  2  1  0
 25 21  2  0
 14  9  2  0
M  CHG 1  10  -1
M  CHG 1  13  -1
M  CHG 1  15  -1
M  CHG 1  19  -1
M  END
> <UniqueID>
83

> <SMILES>
C=c1/c(=C\c2[n-]c(=O)[n-]c2[O-])cc(C)n1CC(=O)[N-]Cc1cccs1

> <Energy>
131.90329336716766

> <Genealogy>
C=c1c(=Cc2[n-]c(=O)[n-]c2[O-])cc(C)n1CC(=O)[N-]Cc1cccs1 (protonated)
C=c1/c(=C\c2[n-]c(=O)[n-]c2[O-])cc(C)n1CC(=O)[N-]Cc1cccs1 (cis-trans isomerization)
C=c1/c(=C\c2[n-]c(=O)[n-]c2[O-])cc(C)n1CC(=O)[N-]Cc1cccs1 (3D coordinates assigned)
C=c1/c(=C\c2[n-]c(=O)[n-]c2[O-])cc(C)n1CC(=O)[N-]Cc1cccs1 (optimized conformer: 131.90329336716766 kcal/mol)

> <smiles>
C=c1c(=Cc2[nH]c(=O)[nH]c2O)cc(C)n1CC(=O)NCc1cccs1

> <score_type>
oracle

> <origin>
adg

> <m_score__min__energy>
-16.510000000000002

> <m_primary>
energy

> <minimizedAffinity>
-7.57213

> <minimizedRMSD>
0.71096

> <CNNscore>
0.5736972094

> <CNNaffinity>
7.0318312645

> <CNN_VS>
4.0341420174

> <CNNaffinity_variance>
0.5150040984

$$$$
1:0


 26 28  0  0  0  0  0  0  0  0999 V2000
   60.5383   29.6224   46.3120 C   0  0  0  0  0  0  0  0  0  0  0  0
   59.3651   29.1704   45.8202 C   0  0  0  0  0  0  0  0  0  0  0  0
   59.2137   27.7928   45.5314 C   0  0  0  0  0  0  0  0  0  0  0  0
   60.1662   26.9854   45.7291 O   0  0  0  0  0  0  0  0  0  0  0  0
   57.9853   27.3302   45.0243 C   0  0  0  0  0  0  0  0  0  0  0  0
   57.7942   26.0310   44.7163 C   0  0  0  0  0  0  0  0  0  0  0  0
   56.9855   28.2249   44.8181 N   0  0  0  0  0  0  0  0  0  0  0  0
   57.1255   29.5437   45.0924 C   0  0  0  0  0  0  0  0  0  0  0  0
   56.1507   30.3154   44.8789 O   0  0  0  0  0  0  0  0  0  0  0  0
   58.3055   30.0275   45.5900 N   0  0  0  0  0  0  0  0  0  0  0  0
   57.3051   25.0232   45.6875 C   0  0  0  0  0  0  0  0  0  0  0  0
   56.0383   25.1745   46.2729 C   0  0  0  0  0  0  0  0  0  0  0  0
   55.2460   26.2778   45.9752 O   0  0  0  0  0  0  0  0  0  0  0  0
   55.5786   24.2444   47.1479 N   0  0  0  0  0  0  0  0  0  0  0  0
   56.3195   23.1519   47.4640 C   0  0  0  0  0  0  0  0  0  0  0  0
   55.7409   22.0520   48.5219 S   0  0  0  0  0  0  0  0  0  0  0  0
   57.5350   22.9665   46.8900 N   0  0  0  0  0  0  0  0  0  0  0  0
   58.0403   23.8657   46.0069 C   0  0  0  0  0  0  0  0  0  0  0  0
   59.1545   23.6378   45.4672 O   0  0  0  0  0  0  0  0  0  0  0  0
   58.4007   31.4405   45.8641 C   0  0  0  0  0  0  0  0  0  0  0  0
   58.6333   31.8792   47.1772 C   0  0  0  0  0  0  0  0  0  0  0  0
   58.7273   33.2450   47.4572 C   0  0  0  0  0  0  0  0  0  0  0  0
   58.5897   34.1809   46.4283 C   0  0  0  0  0  0  0  0  0  0  0  0
   58.3560   33.7522   45.1175 C   0  0  0  0  0  0  0  0  0  0  0  0
   58.2604   32.3865   44.8306 C   0  0  0  0  0  0  0  0  0  0  0  0
   57.9410   31.8345   43.0245 Br  0  0  0  0  0  0  0  0  0  0  0  0
  1  2  2  0
  2  3  1  0
  3  4  2  0
  3  5  1  0
  5  6  2  0
  6 11  1  0
 11 12  2  0
 12 13  1  0
 12 14  1  0
 14 15  1  0
 15 16  2  0
 15 17  1  0
 17 18  1  0
 18 19  2  0
  5  7  1  0
  7  8  1  0
  8  9  2  0
  8 10  1  0
 10 20  1  0
 20 21  2  0
 21 22  1  0
 22 23  2  0
 23 24  1  0
 24 25  2  0
 25 26  1  0
 10  2  1  0
 25 20  1  0
 18 11  1  0
M  CHG 1   7  -1
M  CHG 1  13  -1
M  CHG 1  14  -1
M  CHG 1  17  -1
M  END
> <UniqueID>
2

> <SMILES>
C=c1c(=O)c(=Cc2c([O-])[n-]c(=S)[n-]c2=O)[n-]c(=O)n1-c1ccccc1Br

> <Energy>
63.1293252849561

> <Genealogy>
C=c1c(=O)c(=Cc2c([O-])[n-]c(=S)[n-]c2=O)[n-]c(=O)n1-c1ccccc1Br (protonated)
C=c1c(=O)c(=Cc2c([O-])[n-]c(=S)[n-]c2=O)[n-]c(=O)n1-c1ccccc1Br (3D coordinates assigned)
C=c1c(=O)c(=Cc2c([O-])[n-]c(=S)[n-]c2=O)[n-]c(=O)n1-c1ccccc1Br (optimized conformer: 63.1293252849561 kcal/mol)

> <smiles>
C=c1c(=O)c(=Cc2c(O)[nH]c(=S)[nH]c2=O)[nH]c(=O)n1-c1ccccc1Br

> <score_type>
oracle

> <origin>
adg

> <m_score__min__energy>
-17.629999999999999

> <m_primary>
energy

> <minimizedAffinity>
-8.59556

> <minimizedRMSD>
0.51992

> <CNNscore>
0.6291539073

> <CNNaffinity>
6.8998317719

> <CNN_VS>
4.3410563469

> <CNNaffinity_variance>
0.0179176927

$$$$
5:0


 33 36  0  0  0  0  0  0  0  0999 V2000
   59.7226   30.6419   50.4410 C   0  0  0  0  0  0  0  0  0  0  0  0
   59.7792   29.6352   51.4176 C   0  0  0  0  0  0  0  0  0  0  0  0
   58.8333   29.5907   52.4450 C   0  0  0  0  0  0  0  0  0  0  0  0
   57.8128   30.5514   52.5117 C   0  0  0  0  0  0  0  0  0  0  0  0
   57.7667   31.5701   51.5465 C   0  0  0  0  0  0  0  0  0  0  0  0
   58.7092   31.6099   50.5144 C   0  0  0  0  0  0  0  0  0  0  0  0
   56.8260   30.5269   53.6139 C   0  0  0  0  0  0  0  0  0  0  0  0
   57.1563   30.9772   54.7432 O   0  0  0  0  0  0  0  0  0  0  0  0
   55.4951   30.0143   53.4163 N   0  0  0  0  0  0  0  0  0  0  0  0
   54.7424   30.3933   52.2099 C   0  0  0  0  0  0  0  0  0  0  0  0
   53.2542   30.0318   52.3259 C   0  0  0  0  0  0  0  0  0  0  0  0
   52.7348   30.3856   53.6575 N   0  0  0  0  0  0  0  0  0  0  0  0
   51.4043   30.9336   53.7943 C   0  0  0  0  0  0  0  0  0  0  0  0
   50.6423   31.0034   52.7904 O   0  0  0  0  0  0  0  0  0  0  0  0
   50.8902   31.4137   55.1179 C   0  0  0  0  0  0  0  0  0  0  0  0
   53.5170   30.0487   54.8595 C   0  0  0  0  0  0  0  0  0  0  0  0
   54.8092   29.3100   54.5041 C   0  0  0  0  0  0  0  0  0  0  0  0
   60.7354   30.6831   49.3260 C   0  0  0  0  0  0  0  0  0  0  0  0
   60.5323   27.7350   48.6360 C   0  0  0  0  0  0  0  0  0  0  0  0
   60.1491   28.7210   47.8090 C   0  0  0  0  0  0  0  0  0  0  0  0
   59.6271   28.5484   46.5210 C   0  0  0  0  0  0  0  0  0  0  0  0
   59.4688   27.3932   45.8485 C   0  0  0  0  0  0  0  0  0  0  0  0
   59.3685   29.8196   46.0318 C   0  0  0  0  0  0  0  0  0  0  0  0
   59.7240   30.7076   47.0248 C   0  0  0  0  0  0  0  0  0  0  0  0
   59.6838   32.1964   46.8650 C   0  0  0  0  0  0  0  0  0  0  0  0
   60.2004   30.0474   48.1096 N   0  0  0  0  0  0  0  0  0  0  0  0
   58.3774   26.4373   46.1061 C   0  0  0  0  0  0  0  0  0  0  0  0
   58.5698   25.2257   46.6581 N   0  0  0  0  0  0  0  0  0  0  0  0
   57.3158   24.7377   46.7827 C   0  0  0  0  0  0  0  0  0  0  0  0
   57.0799   23.5964   47.2604 O   0  0  0  0  0  0  0  0  0  0  0  0
   56.3385   25.5717   46.3695 N   0  0  0  0  0  0  0  0  0  0  0  0
   57.0256   26.6467   45.9538 C   0  0  0  0  0  0  0  0  0  0  0  0
   56.4221   27.8097   45.4856 O   0  0  0  0  0  0  0  0  0  0  0  0
 19 20  2  0
 20 21  1  0
 21 22  2  0
 22 27  1  0
 27 28  1  0
 28 29  1  0
 29 30  2  0
 29 31  1  0
 31 32  1  0
 32 33  1  0
 21 23  1  0
 23 24  2  0
 24 25  1  0
 24 26  1  0
 26 18  1  0
 18  1  1  0
  1  2  2  0
  2  3  1  0
  3  4  2  0
  4  7  1  0
  7  8  2  0
  7  9  1  0
  9 10  1  0
 10 11  1  0
 11 12  1  0
 12 13  1  0
 13 14  2  0
 13 15  1  0
 12 16  1  0
 16 17  1  0
  4  5  1  0
  5  6  2  0
 26 20  1  0
  6  1  1  0
 32 27  2  0
 17  9  1  0
M  CHG 1  28  -1
M  CHG 1  31  -1
M  CHG 1  33  -1
M  END
> <UniqueID>
6

> <SMILES>
C=c1/c(=C/c2[n-]c(=O)[n-]c2[O-])cc(C)n1Cc1ccc(C(=O)N2CCN(C(C)=O)CC2)cc1

> <Energy>
129.2742199083263

> <Genealogy>
C=c1c(=Cc2[n-]c(=O)[n-]c2[O-])cc(C)n1Cc1ccc(C(=O)N2CCN(C(C)=O)CC2)cc1 (protonated)
C=c1/c(=C/c2[n-]c(=O)[n-]c2[O-])cc(C)n1Cc1ccc(C(=O)N2CCN(C(C)=O)CC2)cc1 (cis-trans isomerization)
C=c1/c(=C/c2[n-]c(=O)[n-]c2[O-])cc(C)n1Cc1ccc(C(=O)N2CCN(C(C)=O)CC2)cc1 (3D coordinates assigned)
C=c1/c(=C/c2[n-]c(=O)[n-]c2[O-])cc(C)n1Cc1ccc(C(=O)N2CCN(C(C)=O)CC2)cc1 (nonaromatic ring conformer: 129.2742199083263 kcal/mol)

> <smiles>
C=c1c(=Cc2[nH]c(=O)[nH]c2O)cc(C)n1Cc1ccc(C(=O)N2CCN(C(C)=O)CC2)cc1

> <score_type>
oracle

> <origin>
adg

> <m_score__min__energy>
-16.100000000000001

> <m_primary>
energy

> <minimizedAffinity>
-7.66082

> <minimizedRMSD>
1.19913

> <CNNscore>
0.3332897127

> <CNNaffinity>
6.3355674744

> <CNN_VS>
2.1115794182

> <CNNaffinity_variance>
0.0191438720

$$$$
20:0


 35 38  0  0  0  0  0  0  0  0999 V2000
   59.5451   29.7794   47.2580 C   0  0  0  0  0  0  0  0  0  0  0  0
   58.9109   29.9428   48.5024 C   0  0  0  0  0  0  0  0  0  0  0  0
   59.4393   30.8233   49.4520 C   0  0  0  0  0  0  0  0  0  0  0  0
   60.5974   31.5607   49.1618 C   0  0  0  0  0  0  0  0  0  0  0  0
   61.2297   31.3991   47.9217 C   0  0  0  0  0  0  0  0  0  0  0  0
   60.7137   30.5049   46.9819 C   0  0  0  0  0  0  0  0  0  0  0  0
   59.7051   26.8017   47.2039 C   0  0  0  0  0  0  0  0  0  0  0  0
   59.0529   27.5245   46.2784 C   0  0  0  0  0  0  0  0  0  0  0  0
   58.3594   27.0221   45.1733 C   0  0  0  0  0  0  0  0  0  0  0  0
   58.2045   25.7318   44.8209 C   0  0  0  0  0  0  0  0  0  0  0  0
   57.8898   28.1254   44.4725 C   0  0  0  0  0  0  0  0  0  0  0  0
   58.2898   29.2431   45.1785 C   0  0  0  0  0  0  0  0  0  0  0  0
   57.9992   30.6545   44.7668 C   0  0  0  0  0  0  0  0  0  0  0  0
   58.9984   28.8825   46.2717 N   0  0  0  0  0  0  0  0  0  0  0  0
   57.4534   24.7429   45.6295 C   0  0  0  0  0  0  0  0  0  0  0  0
   56.2188   25.0593   46.2241 C   0  0  0  0  0  0  0  0  0  0  0  0
   55.6516   26.3190   46.0641 O   0  0  0  0  0  0  0  0  0  0  0  0
   55.5782   24.1358   46.9843 N   0  0  0  0  0  0  0  0  0  0  0  0
   56.1160   22.9077   47.2008 C   0  0  0  0  0  0  0  0  0  0  0  0
   55.5018   22.0676   47.9059 O   0  0  0  0  0  0  0  0  0  0  0  0
   57.3206   22.5909   46.6629 N   0  0  0  0  0  0  0  0  0  0  0  0
   58.0016   23.4780   45.8919 C   0  0  0  0  0  0  0  0  0  0  0  0
   59.1207   23.1485   45.4152 O   0  0  0  0  0  0  0  0  0  0  0  0
   61.1425   32.5152   50.1399 C   0  0  0  0  0  0  0  0  0  0  0  0
   60.7621   33.7164   50.0739 O   0  0  0  0  0  0  0  0  0  0  0  0
   62.1360   32.1225   51.1184 N   0  0  0  0  0  0  0  0  0  0  0  0
   62.6573   30.7396   51.0990 C   0  0  0  0  0  0  0  0  0  0  0  0
   63.9772   30.5221   51.8754 C   0  0  0  0  0  0  0  0  0  0  0  0
   64.6848   31.7717   52.2166 N   0  0  0  0  0  0  0  0  0  0  0  0
   63.7730   32.6886   52.9244 C   0  0  0  0  0  0  0  0  0  0  0  0
   62.6360   33.1660   52.0283 C   0  0  0  0  0  0  0  0  0  0  0  0
   65.6703   32.3127   51.2168 C   0  0  0  0  0  0  0  0  0  0  0  0
   65.0014   32.6147   49.8506 C   0  0  0  0  0  0  0  0  0  0  0  0
   66.2127   33.6597   51.7475 C   0  0  0  0  0  0  0  0  0  0  0  0
   66.8699   31.3672   50.9669 C   0  0  0  0  0  0  0  0  0  0  0  0
  7  8  2  0
  8  9  1  0
  9 10  2  0
 10 15  1  0
 15 16  2  0
 16 17  1  0
 16 18  1  0
 18 19  1  0
 19 20  2  0
 19 21  1  0
 21 22  1  0
 22 23  2  0
  9 11  1  0
 11 12  2  0
 12 13  1  0
 12 14  1  0
 14  1  1  0
  1  2  2  0
  2  3  1  0
  3  4  2  0
  4 24  1  0
 24 25  2  0
 24 26  1  0
 26 27  1  0
 27 28  1  0
 28 29  1  0
 29 32  1  0
 32 33  1  0
 32 34  1  0
 32 35  1  0
 29 30  1  0
 30 31  1  0
  4  5  1  0
  5  6  2  0
 14  8  1  0
  6  1  1  0
 22 15  1  0
 31 26  1  0
M  CHG 1  17  -1
M  CHG 1  18  -1
M  CHG 1  21  -1
M  END
> <UniqueID>
21

> <SMILES>
C=c1c(=Cc2c([O-])[n-]c(=O)[n-]c2=O)cc(C)n1-c1ccc(C(=O)N2CCN(C(C)(C)C)CC2)cc1

> <Energy>
134.09981705962875

> <Genealogy>
C=c1c(=Cc2c([O-])[n-]c(=O)[n-]c2=O)cc(C)n1-c1ccc(C(=O)N2CCN(C(C)(C)C)CC2)cc1 (protonated)
C=c1c(=Cc2c([O-])[n-]c(=O)[n-]c2=O)cc(C)n1-c1ccc(C(=O)N2CCN(C(C)(C)C)CC2)cc1 (3D coordinates assigned)
C=c1c(=Cc2c([O-])[n-]c(=O)[n-]c2=O)cc(C)n1-c1ccc(C(=O)N2CCN(C(C)(C)C)CC2)cc1 (nonaromatic ring conformer: 134.09981705962875 kcal/mol)

> <smiles>
C=c1c(=Cc2c(O)[nH]c(=O)[nH]c2=O)cc(C)n1-c1ccc(C(=O)N2CCN(C(C)(C)C)CC2)cc1

> <score_type>
oracle

> <origin>
adg

> <m_score__min__energy>
-16.530000000000001

> <m_primary>
energy

> <minimizedAffinity>
-9.34640

> <minimizedRMSD>
2.84104

> <CNNscore>
0.1725992113

> <CNNaffinity>
6.6496047974

> <CNN_VS>
1.1477165222

> <CNNaffinity_variance>
0.0280347373

$$$$
37:0


 30 33  0  0  0  0  0  0  0  0999 V2000
   56.9308   28.1426   54.4782 C   0  0  0  0  0  0  0  0  0  0  0  0
   57.0575   29.0852   53.5260 C   0  0  0  0  0  0  0  0  0  0  0  0
   58.3015   29.1743   52.8691 C   0  0  0  0  0  0  0  0  0  0  0  0
   58.6169   30.2678   52.0522 C   0  0  0  0  0  0  0  0  0  0  0  0
   57.6788   31.2904   51.8938 C   0  0  0  0  0  0  0  0  0  0  0  0
   56.4216   31.1981   52.4870 C   0  0  0  0  0  0  0  0  0  0  0  0
   56.0496   30.0662   53.2419 C   0  0  0  0  0  0  0  0  0  0  0  0
   54.7487   29.9887   53.6251 C   0  0  0  0  0  0  0  0  0  0  0  0
   53.5707   30.2234   52.7702 C   0  0  0  0  0  0  0  0  0  0  0  0
   53.5417   29.9357   51.4573 N   0  0  0  0  0  0  0  0  0  0  0  0
   52.2637   30.2018   51.1068 C   0  0  0  0  0  0  0  0  0  0  0  0
   51.8427   30.0656   49.9294 O   0  0  0  0  0  0  0  0  0  0  0  0
   51.4724   30.6144   52.1192 N   0  0  0  0  0  0  0  0  0  0  0  0
   52.3094   30.6105   53.1679 C   0  0  0  0  0  0  0  0  0  0  0  0
   51.9206   30.9203   54.4657 O   0  0  0  0  0  0  0  0  0  0  0  0
   59.9059   30.3561   51.4142 N   0  0  0  0  0  0  0  0  0  0  0  0
   59.9777   30.5244   49.9578 C   0  0  0  0  0  0  0  0  0  0  0  0
   61.4347   30.6089   49.4846 C   0  0  0  0  0  0  0  0  0  0  0  0
   62.2573   31.4339   50.3881 N   0  0  0  0  0  0  0  0  0  0  0  0
   62.2987   30.9216   51.7794 C   0  0  0  0  0  0  0  0  0  0  0  0
   61.1203   29.9997   52.1563 C   0  0  0  0  0  0  0  0  0  0  0  0
   61.8067   33.1265   50.3435 S   0  0  0  0  0  0  0  0  0  0  0  0
   63.0305   33.9678   50.5764 O   0  0  0  0  0  0  0  0  0  0  0  0
   60.8130   33.4279   51.4324 O   0  0  0  0  0  0  0  0  0  0  0  0
   61.1294   33.5609   48.7753 C   0  0  0  0  0  0  0  0  0  0  0  0
   59.8152   34.0404   48.6696 C   0  0  0  0  0  0  0  0  0  0  0  0
   59.2835   34.3624   47.4173 C   0  0  0  0  0  0  0  0  0  0  0  0
   60.0632   34.2075   46.2656 C   0  0  0  0  0  0  0  0  0  0  0  0
   61.3710   33.7271   46.3658 C   0  0  0  0  0  0  0  0  0  0  0  0
   61.9031   33.4029   47.6176 C   0  0  0  0  0  0  0  0  0  0  0  0
  1  2  2  0
  2  3  1  0
  3  4  2  0
  4 16  1  0
 16 17  1  0
 17 18  1  0
 18 19  1  0
 19 22  1  0
 22 23  2  0
 22 24  2  0
 22 25  1  0
 25 26  2  0
 26 27  1  0
 27 28  2  0
 28 29  1  0
 29 30  2  0
 19 20  1  0
 20 21  1  0
  4  5  1  0
  5  6  2  0
  6  7  1  0
  7  8  2  0
  8  9  1  0
  9 10  1  0
 10 11  1  0
 11 12  2  0
 11 13  1  0
 13 14  1  0
 14 15  1  0
  7  2  1  0
 14  9  2  0
 21 16  1  0
 30 25  1  0
M  CHG 1  10  -1
M  CHG 1  13  -1
M  CHG 1  15  -1
M  END
> <UniqueID>
38

> <SMILES>
C=c1cc(N2CCN(S(=O)(=O)c3ccccc3)CC2)cc/c1=C/c1[n-]c(=O)[n-]c1[O-]

> <Energy>
113.70529436864229

> <Genealogy>
C=c1cc(N2CCN(S(=O)(=O)c3ccccc3)CC2)ccc1=Cc1[n-]c(=O)[n-]c1[O-] (protonated)
C=c1cc(N2CCN(S(=O)(=O)c3ccccc3)CC2)cc/c1=C/c1[n-]c(=O)[n-]c1[O-] (cis-trans isomerization)
C=c1cc(N2CCN(S(=O)(=O)c3ccccc3)CC2)cc/c1=C/c1[n-]c(=O)[n-]c1[O-] (3D coordinates assigned)
C=c1cc(N2CCN(S(=O)(=O)c3ccccc3)CC2)cc/c1=C/c1[n-]c(=O)[n-]c1[O-] (nonaromatic ring conformer: 113.70529436864229 kcal/mol)

> <smiles>
C=c1cc(N2CCN(S(=O)(=O)c3ccccc3)CC2)ccc1=Cc1[nH]c(=O)[nH]c1O

> <score_type>
oracle

> <origin>
adg

> <m_score__min__energy>
-17.379999999999999

> <m_primary>
energy

> <minimizedAffinity>
-7.90330

> <minimizedRMSD>
2.36723

> <CNNscore>
0.1707877517

> <CNNaffinity>
5.2598471642

> <CNN_VS>
0.8983174562

> <CNNaffinity_variance>
0.2345685214

$$$$
50:0


 34 37  0  0  0  0  0  0  0  0999 V2000
   59.2349   26.4999   47.0547 C   0  0  0  0  0  0  0  0  0  0  0  0
   59.5565   27.7398   47.4812 C   0  0  0  0  0  0  0  0  0  0  0  0
   59.3013   28.2782   48.7362 C   0  0  0  0  0  0  0  0  0  0  0  0
   59.8362   29.5474   48.7365 C   0  0  0  0  0  0  0  0  0  0  0  0
   60.4066   29.8359   47.5434 N   0  0  0  0  0  0  0  0  0  0  0  0
   60.2455   28.7296   46.7657 C   0  0  0  0  0  0  0  0  0  0  0  0
   60.6929   28.6208   45.5039 C   0  0  0  0  0  0  0  0  0  0  0  0
   57.0979   28.1195   45.5173 O   0  0  0  0  0  0  0  0  0  0  0  0
   56.9307   26.8259   46.0076 C   0  0  0  0  0  0  0  0  0  0  0  0
   55.7837   26.1385   45.8840 N   0  0  0  0  0  0  0  0  0  0  0  0
   56.0706   24.9677   46.4882 C   0  0  0  0  0  0  0  0  0  0  0  0
   55.2344   24.0303   46.5857 O   0  0  0  0  0  0  0  0  0  0  0  0
   57.3228   24.8784   46.9845 N   0  0  0  0  0  0  0  0  0  0  0  0
   57.8752   26.0634   46.6657 C   0  0  0  0  0  0  0  0  0  0  0  0
   56.3888   28.5513   45.0830 H   0  0  0  0  0  0  0  0  0  0  0  0
   59.8097   30.4424   49.9038 C   0  0  0  0  0  0  0  0  0  0  0  0
   59.0515   31.4465   49.8912 O   0  0  0  0  0  0  0  0  0  0  0  0
   60.6025   30.1762   51.0650 N   0  0  0  0  0  0  0  0  0  0  0  0
   62.0278   29.8721   51.0164 C   0  0  0  0  0  0  0  0  0  0  0  0
   62.8261   31.0762   51.5080 C   0  0  0  0  0  0  0  0  0  0  0  0
   62.9198   32.1237   50.4315 C   0  0  0  0  0  0  0  0  0  0  0  0
   63.8166   31.9677   49.3645 C   0  0  0  0  0  0  0  0  0  0  0  0
   63.8619   32.9336   48.3566 C   0  0  0  0  0  0  0  0  0  0  0  0
   63.0359   34.0116   48.4079 N   0  0  0  0  0  0  0  0  0  0  0  0
   62.1477   34.1829   49.4223 C   0  0  0  0  0  0  0  0  0  0  0  0
   62.0699   33.2402   50.4510 C   0  0  0  0  0  0  0  0  0  0  0  0
   60.9291   31.1550   47.1465 C   0  0  0  0  0  0  0  0  0  0  0  0
   59.8300   31.9991   46.5532 C   0  0  0  0  0  0  0  0  0  0  0  0
   58.7078   31.3969   45.9609 C   0  0  0  0  0  0  0  0  0  0  0  0
   57.6735   32.1855   45.4433 C   0  0  0  0  0  0  0  0  0  0  0  0
   57.7531   33.5796   45.5158 C   0  0  0  0  0  0  0  0  0  0  0  0
   56.7504   34.3423   45.0152 F   0  0  0  0  0  0  0  0  0  0  0  0
   58.8662   34.1869   46.1038 C   0  0  0  0  0  0  0  0  0  0  0  0
   59.9002   33.4012   46.6215 C   0  0  0  0  0  0  0  0  0  0  0  0
  8  9  1  0
  9 10  1  0
 10 11  1  0
 11 12  2  0
 11 13  1  0
 13 14  1  0
 14  1  1  0
  1  2  2  0
  2  3  1  0
  3  4  2  0
  4 16  1  0
 16 17  2  0
 16 18  1  0
 18 19  1  0
 19 20  1  0
 20 21  1  0
 21 22  2  0
 22 23  1  0
 23 24  2  0
 24 25  1  0
 25 26  2  0
  4  5  1  0
  5 27  1  0
 27 28  1  0
 28 29  2  0
 29 30  1  0
 30 31  2  0
 31 32  1  0
 31 33  1  0
 33 34  2  0
  5  6  1  0
  6  7  2  0
 14  9  2  0
  6  2  1  0
 26 21  1  0
 34 28  1  0
  8 15  1  0
M  CHG 1  10  -1
M  CHG 1  13  -1
M  CHG 1  18  -1
M  END
> <UniqueID>
51

> <SMILES>
C=c1/c(=C/c2[n-]c(=O)[n-]c2O)cc(C(=O)[N-]CCc2ccncc2)n1Cc1ccc(F)cc1

> <Energy>
121.02614181762428

> <Genealogy>
C=c1c(=Cc2[n-]c(=O)[n-]c2O)cc(C(=O)[N-]CCc2ccncc2)n1Cc1ccc(F)cc1 (protonated)
C=c1/c(=C/c2[n-]c(=O)[n-]c2O)cc(C(=O)[N-]CCc2ccncc2)n1Cc1ccc(F)cc1 (cis-trans isomerization)
C=c1/c(=C/c2[n-]c(=O)[n-]c2O)cc(C(=O)[N-]CCc2ccncc2)n1Cc1ccc(F)cc1 (3D coordinates assigned)
C=c1/c(=C/c2[n-]c(=O)[n-]c2O)cc(C(=O)[N-]CCc2ccncc2)n1Cc1ccc(F)cc1 (optimized conformer: 121.02614181762428 kcal/mol)

> <smiles>
C=c1c(=Cc2[nH]c(=O)[nH]c2O)cc(C(=O)NCCc2ccncc2)n1Cc1ccc(F)cc1

> <score_type>
oracle

> <origin>
adg

> <m_score__min__energy>
-14.26

> <m_primary>
energy

> <minimizedAffinity>
-7.92066

> <minimizedRMSD>
1.32388

> <CNNscore>
0.7856661081

> <CNNaffinity>
7.6499543190

> <CNN_VS>
6.0103096962

> <CNNaffinity_variance>
0.0262075420

$$$$
53:0


 27 29  0  0  0  0  0  0  0  0999 V2000
   59.2395   32.9627   47.3673 C   0  0  0  0  0  0  0  0  0  0  0  0
   59.5025   34.3263   47.1402 C   0  0  0  0  0  0  0  0  0  0  0  0
   59.2396   34.9063   45.8971 C   0  0  0  0  0  0  0  0  0  0  0  0
   58.7128   34.1339   44.8642 C   0  0  0  0  0  0  0  0  0  0  0  0
   58.4600   32.7780   45.0642 C   0  0  0  0  0  0  0  0  0  0  0  0
   58.7257   32.1720   46.3061 C   0  0  0  0  0  0  0  0  0  0  0  0
   58.9223   31.3273   49.0702 O   0  0  0  0  0  0  0  0  0  0  0  0
   59.4546   32.4187   48.7302 C   0  0  0  0  0  0  0  0  0  0  0  0
   60.2799   33.1367   49.6576 N   0  0  0  0  0  0  0  0  0  0  0  0
   61.7080   33.0522   49.7754 C   0  0  0  0  0  0  0  0  0  0  0  0
   62.4108   33.6822   50.8194 C   0  0  0  0  0  0  0  0  0  0  0  0
   63.8060   33.5940   50.8812 C   0  0  0  0  0  0  0  0  0  0  0  0
   64.5091   32.8911   49.8984 C   0  0  0  0  0  0  0  0  0  0  0  0
   65.8607   32.8093   49.9587 F   0  0  0  0  0  0  0  0  0  0  0  0
   63.8186   32.2850   48.8456 C   0  0  0  0  0  0  0  0  0  0  0  0
   62.4236   32.3724   48.7806 C   0  0  0  0  0  0  0  0  0  0  0  0
   58.5334   30.7532   46.4653 N   0  0  0  0  0  0  0  0  0  0  0  0
   58.8172   30.3342   47.3098 H   0  0  0  0  0  0  0  0  0  0  0  0
   57.9372   29.9047   45.4341 C   0  0  0  0  0  0  0  0  0  0  0  0
   58.2316   28.4613   45.7138 C   0  0  0  0  0  0  0  0  0  0  0  0
   59.5212   28.0543   46.0744 C   0  0  0  0  0  0  0  0  0  0  0  0
   59.7376   26.7075   46.3687 C   0  0  0  0  0  0  0  0  0  0  0  0
   60.8838   26.3059   46.6943 O   0  0  0  0  0  0  0  0  0  0  0  0
   58.7050   25.8267   46.3047 N   0  0  0  0  0  0  0  0  0  0  0  0
   57.4564   26.2385   45.9604 C   0  0  0  0  0  0  0  0  0  0  0  0
   56.5118   25.4086   45.9105 O   0  0  0  0  0  0  0  0  0  0  0  0
   57.2267   27.5460   45.6712 N   0  0  0  0  0  0  0  0  0  0  0  0
  7  8  2  0
  8  9  1  0
  9 10  1  0
 10 11  2  0
 11 12  1  0
 12 13  2  0
 13 14  1  0
 13 15  1  0
 15 16  2  0
  8  1  1  0
  1  2  2  0
  2  3  1  0
  3  4  2  0
  4  5  1  0
  5  6  2  0
  6 17  1  0
 17 19  1  0
 19 20  1  0
 20 21  2  0
 21 22  1  0
 22 23  2  0
 22 24  1  0
 24 25  1  0
 25 26  2  0
 25 27  1  0
 16 10  1  0
  6  1  1  0
 27 20  1  0
 17 18  1  0
M  CHG 1   9  -1
M  CHG 1  24  -1
M  CHG 1  27  -1
M  END
> <UniqueID>
54

> <SMILES>
O=C([N-]c1ccc(F)cc1)c1ccccc1NCc1cc(=O)[n-]c(=O)[n-]1

> <Energy>
50.16101495162629

> <Genealogy>
O=C([N-]c1ccc(F)cc1)c1ccccc1NCc1cc(=O)[n-]c(=O)[n-]1 (protonated)
O=C([N-]c1ccc(F)cc1)c1ccccc1NCc1cc(=O)[n-]c(=O)[n-]1 (3D coordinates assigned)
O=C([N-]c1ccc(F)cc1)c1ccccc1NCc1cc(=O)[n-]c(=O)[n-]1 (optimized conformer: 50.16101495162629 kcal/mol)

> <smiles>
O=C(Nc1ccc(F)cc1)c1ccccc1NCc1cc(=O)[nH]c(=O)[nH]1

> <score_type>
oracle

> <origin>
adg

> <m_score__min__energy>
-14.029999999999999

> <m_primary>
energy

> <minimizedAffinity>
-7.62352

> <minimizedRMSD>
1.25077

> <CNNscore>
0.6292834282

> <CNNaffinity>
6.6686758995

> <CNN_VS>
4.1964874268

> <CNNaffinity_variance>
0.1541046053

$$$$
58:0


 27 30  0  0  0  0  0  0  0  0999 V2000
   58.1531   26.3744   44.9110 C   0  0  0  0  0  0  0  0  0  0  0  0
   58.2683   27.6995   45.1211 C   0  0  0  0  0  0  0  0  0  0  0  0
   57.9255   28.6422   44.1657 C   0  0  0  0  0  0  0  0  0  0  0  0
   58.2587   29.8770   44.6837 C   0  0  0  0  0  0  0  0  0  0  0  0
   58.0726   31.1783   43.9632 C   0  0  0  0  0  0  0  0  0  0  0  0
   58.7480   29.7457   45.9365 N   0  0  0  0  0  0  0  0  0  0  0  0
   58.7315   28.4190   46.2342 C   0  0  0  0  0  0  0  0  0  0  0  0
   58.9582   27.9409   47.4674 C   0  0  0  0  0  0  0  0  0  0  0  0
   55.3224   26.4806   46.0401 O   0  0  0  0  0  0  0  0  0  0  0  0
   56.2313   25.4564   46.2847 C   0  0  0  0  0  0  0  0  0  0  0  0
   55.9498   24.3557   47.0008 N   0  0  0  0  0  0  0  0  0  0  0  0
   57.1036   23.6581   46.9371 C   0  0  0  0  0  0  0  0  0  0  0  0
   57.2509   22.5378   47.4909 O   0  0  0  0  0  0  0  0  0  0  0  0
   58.0849   24.2508   46.2240 N   0  0  0  0  0  0  0  0  0  0  0  0
   57.5283   25.4127   45.8336 C   0  0  0  0  0  0  0  0  0  0  0  0
   54.4538   26.4291   46.3877 H   0  0  0  0  0  0  0  0  0  0  0  0
   59.1627   30.8230   46.7953 C   0  0  0  0  0  0  0  0  0  0  0  0
   58.3694   31.9724   46.9122 C   0  0  0  0  0  0  0  0  0  0  0  0
   58.7669   33.0164   47.7498 C   0  0  0  0  0  0  0  0  0  0  0  0
   59.9569   32.9220   48.4766 C   0  0  0  0  0  0  0  0  0  0  0  0
   60.7664   31.7750   48.3710 C   0  0  0  0  0  0  0  0  0  0  0  0
   60.3587   30.7294   47.5239 C   0  0  0  0  0  0  0  0  0  0  0  0
   62.0312   31.6576   49.1342 C   0  0  0  0  0  0  0  0  0  0  0  0
   63.1986   32.2170   48.7643 N   0  0  0  0  0  0  0  0  0  0  0  0
   64.0903   31.8922   49.6890 N   0  0  0  0  0  0  0  0  0  0  0  0
   63.5465   31.1469   50.6395 N   0  0  0  0  0  0  0  0  0  0  0  0
   62.2513   30.9822   50.3177 C   0  0  0  0  0  0  0  0  0  0  0  0
  9 10  1  0
 10 11  1  0
 11 12  1  0
 12 13  2  0
 12 14  1  0
 14 15  1  0
 15  1  1  0
  1  2  2  0
  2  3  1  0
  3  4  2  0
  4  5  1  0
  4  6  1  0
  6 17  1  0
 17 18  2  0
 18 19  1  0
 19 20  2  0
 20 21  1  0
 21 23  1  0
 23 24  1  0
 24 25  2  0
 25 26  1  0
 26 27  1  0
 21 22  2  0
  6  7  1  0
  7  8  2  0
 15 10  2  0
  7  2  1  0
 22 17  1  0
 27 23  2  0
  9 16  1  0
M  CHG 1  11  -1
M  CHG 1  14  -1
M  CHG 1  26  -1
M  END
> <UniqueID>
58

> <SMILES>
C=c1/c(=C\c2[n-]c(=O)[n-]c2O)cc(C)n1-c1cccc(-c2c[n-]nn2)c1

> <Energy>
152.1665610790829

> <Genealogy>
C=c1c(=Cc2[n-]c(=O)[n-]c2O)cc(C)n1-c1cccc(-c2c[n-]nn2)c1 (protonated)
C=c1/c(=C\c2[n-]c(=O)[n-]c2O)cc(C)n1-c1cccc(-c2c[n-]nn2)c1 (cis-trans isomerization)
C=c1/c(=C\c2[n-]c(=O)[n-]c2O)cc(C)n1-c1cccc(-c2c[n-]nn2)c1 (3D coordinates assigned)
C=c1/c(=C\c2[n-]c(=O)[n-]c2O)cc(C)n1-c1cccc(-c2c[n-]nn2)c1 (optimized conformer: 152.1665610790829 kcal/mol)

> <smiles>
C=c1c(=Cc2[nH]c(=O)[nH]c2O)cc(C)n1-c1cccc(-c2c[nH]nn2)c1

> <score_type>
oracle

> <origin>
adg

> <m_score__min__energy>
-14.06

> <m_primary>
energy

> <minimizedAffinity>
-8.61287

> <minimizedRMSD>
1.36663

> <CNNscore>
0.4728316367

> <CNNaffinity>
6.8610043526

> <CNN_VS>
3.2440998554

> <CNNaffinity_variance>
0.2498871088

$$$$
77:0


 36 40  0  0  0  0  0  0  0  0999 V2000
   59.2372   29.5294   48.1259 C   0  0  0  0  0  0  0  0  0  0  0  0
   59.0439   30.5384   47.2581 C   0  0  0  0  0  0  0  0  0  0  0  0
   59.1189   30.4426   45.8616 C   0  0  0  0  0  0  0  0  0  0  0  0
   59.3682   29.3312   45.1320 C   0  0  0  0  0  0  0  0  0  0  0  0
   58.8607   31.7159   45.3730 C   0  0  0  0  0  0  0  0  0  0  0  0
   58.6378   32.5268   46.4675 C   0  0  0  0  0  0  0  0  0  0  0  0
   58.3787   34.0002   46.3781 C   0  0  0  0  0  0  0  0  0  0  0  0
   58.7499   31.8183   47.6175 N   0  0  0  0  0  0  0  0  0  0  0  0
   58.9270   27.9655   45.4836 C   0  0  0  0  0  0  0  0  0  0  0  0
   59.7339   26.9467   45.8512 N   0  0  0  0  0  0  0  0  0  0  0  0
   58.8770   25.9399   46.1317 C   0  0  0  0  0  0  0  0  0  0  0  0
   59.2609   24.7985   46.5005 O   0  0  0  0  0  0  0  0  0  0  0  0
   57.5777   26.2749   45.9799 N   0  0  0  0  0  0  0  0  0  0  0  0
   57.6128   27.5523   45.5686 C   0  0  0  0  0  0  0  0  0  0  0  0
   56.4891   28.3225   45.2867 O   0  0  0  0  0  0  0  0  0  0  0  0
   56.4009   25.4282   46.1739 C   0  0  0  0  0  0  0  0  0  0  0  0
   56.5613   24.1350   45.4202 C   0  0  0  0  0  0  0  0  0  0  0  0
   56.6363   22.9185   46.1147 C   0  0  0  0  0  0  0  0  0  0  0  0
   56.7858   21.7276   45.4010 C   0  0  0  0  0  0  0  0  0  0  0  0
   56.8458   21.7481   44.0435 N   0  0  0  0  0  0  0  0  0  0  0  0
   56.7609   22.9130   43.3452 C   0  0  0  0  0  0  0  0  0  0  0  0
   56.6120   24.1268   44.0197 C   0  0  0  0  0  0  0  0  0  0  0  0
   58.6568   32.3811   48.9761 C   0  0  0  0  0  0  0  0  0  0  0  0
   60.0260   32.7216   49.5054 C   0  0  0  0  0  0  0  0  0  0  0  0
   60.6109   31.9473   50.5197 C   0  0  0  0  0  0  0  0  0  0  0  0
   61.8941   32.2440   50.9861 C   0  0  0  0  0  0  0  0  0  0  0  0
   62.6177   33.3187   50.4425 C   0  0  0  0  0  0  0  0  0  0  0  0
   62.0276   34.0960   49.4325 C   0  0  0  0  0  0  0  0  0  0  0  0
   60.7432   33.8024   48.9709 C   0  0  0  0  0  0  0  0  0  0  0  0
   63.9537   33.6106   50.8955 N   0  0  0  0  0  0  0  0  0  0  0  0
   65.0798   32.9738   50.2558 C   0  0  0  0  0  0  0  0  0  0  0  0
   64.9610   32.5010   49.0925 O   0  0  0  0  0  0  0  0  0  0  0  0
   66.4114   32.8676   50.9411 C   0  0  0  0  0  0  0  0  0  0  0  0
   66.3140   33.2689   52.4111 C   0  0  0  0  0  0  0  0  0  0  0  0
   65.5835   34.6039   52.5372 C   0  0  0  0  0  0  0  0  0  0  0  0
   64.1211   34.4738   52.0824 C   0  0  0  0  0  0  0  0  0  0  0  0
  1  2  2  0
  2  3  1  0
  3  4  2  0
  4  9  1  0
  9 10  1  0
 10 11  1  0
 11 12  2  0
 11 13  1  0
 13 16  1  0
 16 17  1  0
 17 18  2  0
 18 19  1  0
 19 20  2  0
 20 21  1  0
 21 22  2  0
 13 14  1  0
 14 15  1  0
  3  5  1  0
  5  6  2  0
  6  7  1  0
  6  8  1  0
  8 23  1  0
 23 24  1  0
 24 25  2  0
 25 26  1  0
 26 27  2  0
 27 30  1  0
 30 31  1  0
 31 32  2  0
 31 33  1  0
 33 34  1  0
 34 35  1  0
 35 36  1  0
 27 28  1  0
 28 29  2  0
  8  2  1  0
 29 24  1  0
 14  9  2  0
 36 30  1  0
 22 17  1  0
M  CHG 1  10  -1
M  CHG 1  15  -1
M  END
> <UniqueID>
75

> <SMILES>
C=c1/c(=C/c2[n-]c(=O)n(Cc3ccncc3)c2[O-])cc(C)n1Cc1ccc(N2CCCCC2=O)cc1

> <Energy>
137.45220572547134

> <Genealogy>
C=c1c(=Cc2[n-]c(=O)n(Cc3ccncc3)c2[O-])cc(C)n1Cc1ccc(N2CCCCC2=O)cc1 (protonated)
C=c1/c(=C/c2[n-]c(=O)n(Cc3ccncc3)c2[O-])cc(C)n1Cc1ccc(N2CCCCC2=O)cc1 (cis-trans isomerization)
C=c1/c(=C/c2[n-]c(=O)n(Cc3ccncc3)c2[O-])cc(C)n1Cc1ccc(N2CCCCC2=O)cc1 (3D coordinates assigned)
C=c1/c(=C/c2[n-]c(=O)n(Cc3ccncc3)c2[O-])cc(C)n1Cc1ccc(N2CCCCC2=O)cc1 (nonaromatic ring conformer: 137.45220572547134 kcal/mol)

> <smiles>
C=c1c(=Cc2[nH]c(=O)n(Cc3ccncc3)c2O)cc(C)n1Cc1ccc(N2CCCCC2=O)cc1

> <score_type>
oracle

> <origin>
adg

> <m_score__min__energy>
-14.390000000000001

> <m_primary>
energy

> <minimizedAffinity>
-7.98763

> <minimizedRMSD>
1.45013

> <CNNscore>
0.2545305490

> <CNNaffinity>
7.1758370399

> <CNN_VS>
1.8264697790

> <CNNaffinity_variance>
0.0071450416

$$$$
87:0


 28 30  0  0  0  0  0  0  0  0999 V2000
   58.5143   33.2227   46.2010 C   0  0  0  0  0  0  0  0  0  0  0  0
   58.7150   34.0486   45.0911 C   0  0  0  0  0  0  0  0  0  0  0  0
   58.4384   33.5843   43.8047 C   0  0  0  0  0  0  0  0  0  0  0  0
   57.9502   32.2889   43.6162 C   0  0  0  0  0  0  0  0  0  0  0  0
   57.7253   31.4442   44.7190 C   0  0  0  0  0  0  0  0  0  0  0  0
   58.0036   31.9254   46.0122 C   0  0  0  0  0  0  0  0  0  0  0  0
   57.2011   30.0713   44.5217 C   0  0  0  0  0  0  0  0  0  0  0  0
   56.7494   29.7304   43.3935 O   0  0  0  0  0  0  0  0  0  0  0  0
   57.2164   29.1386   45.6162 N   0  0  0  0  0  0  0  0  0  0  0  0
   58.1514   28.2814   45.9099 C   0  0  0  0  0  0  0  0  0  0  0  0
   59.4611   28.6564   45.9736 N   0  0  0  0  0  0  0  0  0  0  0  0
   60.4502   27.7740   46.2785 C   0  0  0  0  0  0  0  0  0  0  0  0
   60.1401   26.4389   46.5402 C   0  0  0  0  0  0  0  0  0  0  0  0
   58.8086   26.0246   46.4854 C   0  0  0  0  0  0  0  0  0  0  0  0
   57.8054   26.9448   46.1686 C   0  0  0  0  0  0  0  0  0  0  0  0
   56.4786   26.5322   46.1142 O   0  0  0  0  0  0  0  0  0  0  0  0
   58.7887   33.7340   47.4790 O   0  0  0  0  0  0  0  0  0  0  0  0
   62.3760   33.3524   47.9851 C   0  0  0  0  0  0  0  0  0  0  0  0
   61.1486   33.4633   47.4102 N   0  0  0  0  0  0  0  0  0  0  0  0
   60.0189   33.6400   48.1443 C   0  0  0  0  0  0  0  0  0  0  0  0
   60.1071   33.6757   49.5447 C   0  0  0  0  0  0  0  0  0  0  0  0
   61.3563   33.5679   50.1588 C   0  0  0  0  0  0  0  0  0  0  0  0
   62.5173   33.4181   49.3813 C   0  0  0  0  0  0  0  0  0  0  0  0
   63.8587   33.2990   50.0027 C   0  0  0  0  0  0  0  0  0  0  0  0
   64.0757   33.8362   51.1231 O   0  0  0  0  0  0  0  0  0  0  0  0
   64.9160   32.5719   49.3717 N   0  0  0  0  0  0  0  0  0  0  0  0
   64.7665   32.1454   48.4971 H   0  0  0  0  0  0  0  0  0  0  0  0
   65.7935   32.4978   49.8119 H   0  0  0  0  0  0  0  0  0  0  0  0
 18 19  2  0
 19 20  1  0
 20 17  1  0
 17  1  1  0
  1  2  2  0
  2  3  1  0
  3  4  2  0
  4  5  1  0
  5  7  1  0
  7  8  2  0
  7  9  1  0
  9 10  2  0
 10 11  1  0
 11 12  1  0
 12 13  2  0
 13 14  1  0
 14 15  2  0
 15 16  1  0
  5  6  2  0
 20 21  2  0
 21 22  1  0
 22 23  2  0
 23 24  1  0
 24 25  2  0
 24 26  1  0
 23 18  1  0
  6  1  1  0
 15 10  1  0
 26 27  1  0
 26 28  1  0
M  CHG 1  11  -1
M  CHG 1  16  -1
M  END
> <UniqueID>
83

> <SMILES>
NC(=O)c1ccc(Oc2cccc(C(=O)/N=c3\[n-]cccc3[O-])c2)nc1

> <Energy>
53.9465351390885

> <Genealogy>
NC(=O)c1ccc(Oc2cccc(C(=O)N=c3[n-]cccc3[O-])c2)nc1 (protonated)
NC(=O)c1ccc(Oc2cccc(C(=O)/N=c3\[n-]cccc3[O-])c2)nc1 (cis-trans isomerization)
NC(=O)c1ccc(Oc2cccc(C(=O)/N=c3\[n-]cccc3[O-])c2)nc1 (3D coordinates assigned)
NC(=O)c1ccc(Oc2cccc(C(=O)/N=c3\[n-]cccc3[O-])c2)nc1 (optimized conformer: 53.9465351390885 kcal/mol)

> <smiles>
NC(=O)c1ccc(Oc2cccc(C(=O)N=c3[nH]cccc3O)c2)nc1

> <score_type>
oracle

> <origin>
adg

> <m_score__min__energy>
-14.140000000000001

> <m_primary>
energy

> <minimizedAffinity>
-7.62961

> <minimizedRMSD>
1.42672

> <CNNscore>
0.4092787802

> <CNNaffinity>
6.5003147125

> <CNN_VS>
2.6604409218

> <CNNaffinity_variance>
0.1010383666

$$$$
1:0


 31 34  0  0  0  0  0  0  0  0999 V2000
   57.7264   29.0136   53.9123 C   0  0  0  0  0  0  0  0  0  0  0  0
   58.5638   28.3793   53.0473 N   0  0  0  0  0  0  0  0  0  0  0  0
   59.7057   27.7714   53.4614 C   0  0  0  0  0  0  0  0  0  0  0  0
   60.0572   27.7755   54.8216 C   0  0  0  0  0  0  0  0  0  0  0  0
   59.2101   28.4317   55.7275 C   0  0  0  0  0  0  0  0  0  0  0  0
   58.0407   29.0448   55.2773 C   0  0  0  0  0  0  0  0  0  0  0  0
   61.3049   27.1277   55.2870 C   0  0  0  0  0  0  0  0  0  0  0  0
   61.2747   26.3697   56.2959 O   0  0  0  0  0  0  0  0  0  0  0  0
   62.5552   27.3616   54.6178 N   0  0  0  0  0  0  0  0  0  0  0  0
   63.2257   26.2434   53.9469 C   0  0  0  0  0  0  0  0  0  0  0  0
   64.2341   26.7258   52.9429 C   0  0  0  0  0  0  0  0  0  0  0  0
   64.7185   25.8974   52.1257 O   0  0  0  0  0  0  0  0  0  0  0  0
   64.6957   28.0914   52.9468 N   0  0  0  0  0  0  0  0  0  0  0  0
   65.7965   28.4843   52.0648 C   0  0  0  0  0  0  0  0  0  0  0  0
   63.9732   29.1206   53.7042 C   0  0  0  0  0  0  0  0  0  0  0  0
   63.3494   28.5395   54.9690 C   0  0  0  0  0  0  0  0  0  0  0  0
   54.9498   28.0026   54.1304 C   0  0  0  0  0  0  0  0  0  0  0  0
   55.2682   29.1199   53.4562 C   0  0  0  0  0  0  0  0  0  0  0  0
   54.3804   30.0162   52.8392 C   0  0  0  0  0  0  0  0  0  0  0  0
   53.0623   29.9189   52.5816 C   0  0  0  0  0  0  0  0  0  0  0  0
   55.1324   31.1241   52.4873 C   0  0  0  0  0  0  0  0  0  0  0  0
   56.4408   30.8458   52.8252 C   0  0  0  0  0  0  0  0  0  0  0  0
   57.5945   31.7663   52.5652 C   0  0  0  0  0  0  0  0  0  0  0  0
   56.5257   29.6327   53.4191 N   0  0  0  0  0  0  0  0  0  0  0  0
   52.4020   30.3052   51.3253 C   0  0  0  0  0  0  0  0  0  0  0  0
   52.2918   29.4901   50.2622 N   0  0  0  0  0  0  0  0  0  0  0  0
   51.5105   30.1911   49.4113 C   0  0  0  0  0  0  0  0  0  0  0  0
   51.1878   29.7578   48.2750 O   0  0  0  0  0  0  0  0  0  0  0  0
   51.0910   31.3863   49.8792 N   0  0  0  0  0  0  0  0  0  0  0  0
   51.6511   31.4377   51.0978 C   0  0  0  0  0  0  0  0  0  0  0  0
   51.4548   32.4816   51.9939 O   0  0  0  0  0  0  0  0  0  0  0  0
 17 18  2  0
 18 19  1  0
 19 20  2  0
 20 25  1  0
 25 26  1  0
 26 27  1  0
 27 28  2  0
 27 29  1  0
 29 30  1  0
 30 31  1  0
 19 21  1  0
 21 22  2  0
 22 23  1  0
 22 24  1  0
 24  1  1  0
  1  2  2  0
  2  3  1  0
  3  4  2  0
  4  7  1  0
  7  8  2  0
  7  9  1  0
  9 10  1  0
 10 11  1  0
 11 12  2  0
 11 13  1  0
 13 14  1  0
 13 15  1  0
 15 16  1  0
  4  5  1  0
  5  6  2  0
 24 18  1  0
  6  1  1  0
 30 25  2  0
 16  9  1  0
M  CHG 1  26  -1
M  CHG 1  29  -1
M  CHG 1  31  -1
M  END
> <UniqueID>
2

> <SMILES>
C=c1/c(=C\c2[n-]c(=O)[n-]c2[O-])cc(C)n1-c1ccc(C(=O)N2CCN(C)C(=O)C2)cn1

> <Energy>
132.73718475930636

> <Genealogy>
C=c1c(=Cc2[n-]c(=O)[n-]c2[O-])cc(C)n1-c1ccc(C(=O)N2CCN(C)C(=O)C2)cn1 (protonated)
C=c1/c(=C\c2[n-]c(=O)[n-]c2[O-])cc(C)n1-c1ccc(C(=O)N2CCN(C)C(=O)C2)cn1 (cis-trans isomerization)
C=c1/c(=C\c2[n-]c(=O)[n-]c2[O-])cc(C)n1-c1ccc(C(=O)N2CCN(C)C(=O)C2)cn1 (3D coordinates assigned)
C=c1/c(=C\c2[n-]c(=O)[n-]c2[O-])cc(C)n1-c1ccc(C(=O)N2CCN(C)C(=O)C2)cn1 (nonaromatic ring conformer: 132.73718475930636 kcal/mol)

> <smiles>
C=c1c(=Cc2[nH]c(=O)[nH]c2O)cc(C)n1-c1ccc(C(=O)N2CCN(C)C(=O)C2)cn1

> <score_type>
oracle

> <origin>
adg

> <m_score__min__energy>
-16.02

> <m_primary>
energy

> <minimizedAffinity>
-3.93404

> <minimizedRMSD>
0.84010

> <CNNscore>
0.1377757937

> <CNNaffinity>
5.1005053520

> <CNN_VS>
0.7027261853

> <CNNaffinity_variance>
0.0801411346

$$$$
3:0


 32 35  0  0  0  0  0  0  0  0999 V2000
   59.3914   31.1177   46.6582 C   0  0  0  0  0  0  0  0  0  0  0  0
   60.5260   31.4899   47.3919 C   0  0  0  0  0  0  0  0  0  0  0  0
   60.9328   32.8328   47.4488 C   0  0  0  0  0  0  0  0  0  0  0  0
   60.1765   33.8047   46.7747 C   0  0  0  0  0  0  0  0  0  0  0  0
   59.0441   33.4387   46.0444 C   0  0  0  0  0  0  0  0  0  0  0  0
   58.6419   32.0966   45.9768 C   0  0  0  0  0  0  0  0  0  0  0  0
   57.4184   31.7146   45.1923 C   0  0  0  0  0  0  0  0  0  0  0  0
   58.7898   29.4723   44.2659 C   0  0  0  0  0  0  0  0  0  0  0  0
   58.7313   28.9933   45.5189 C   0  0  0  0  0  0  0  0  0  0  0  0
   58.3856   27.6910   45.9028 C   0  0  0  0  0  0  0  0  0  0  0  0
   58.0615   26.6663   45.0871 C   0  0  0  0  0  0  0  0  0  0  0  0
   58.4705   27.6657   47.2921 C   0  0  0  0  0  0  0  0  0  0  0  0
   58.8618   28.9282   47.6901 C   0  0  0  0  0  0  0  0  0  0  0  0
   59.0570   29.3606   49.1115 C   0  0  0  0  0  0  0  0  0  0  0  0
   59.0060   29.7340   46.6174 N   0  0  0  0  0  0  0  0  0  0  0  0
   57.6112   25.3281   45.5279 C   0  0  0  0  0  0  0  0  0  0  0  0
   58.3688   24.2169   45.5736 N   0  0  0  0  0  0  0  0  0  0  0  0
   57.5337   23.2861   46.0852 C   0  0  0  0  0  0  0  0  0  0  0  0
   57.8840   22.0921   46.2748 O   0  0  0  0  0  0  0  0  0  0  0  0
   56.2960   23.7351   46.3754 N   0  0  0  0  0  0  0  0  0  0  0  0
   56.3627   25.0298   46.0207 C   0  0  0  0  0  0  0  0  0  0  0  0
   55.3031   25.9180   46.1435 O   0  0  0  0  0  0  0  0  0  0  0  0
   62.0995   33.2133   48.2054 N   0  0  0  0  0  0  0  0  0  0  0  0
   61.9809   34.0478   49.4058 C   0  0  0  0  0  0  0  0  0  0  0  0
   62.7812   33.4405   50.5781 C   0  0  0  0  0  0  0  0  0  0  0  0
   63.8558   32.5170   50.1326 N   0  0  0  0  0  0  0  0  0  0  0  0
   64.4707   32.9528   48.8618 C   0  0  0  0  0  0  0  0  0  0  0  0
   63.4431   32.8653   47.7214 C   0  0  0  0  0  0  0  0  0  0  0  0
   62.9739   32.2101   50.4446 H   0  0  0  0  0  0  0  0  0  0  0  0
   64.8683   32.3854   51.1624 C   0  0  0  0  0  0  0  0  0  0  0  0
   66.2591   31.9478   50.8070 C   0  0  0  0  0  0  0  0  0  0  0  0
   64.6008   32.6368   52.3296 O   0  0  0  0  0  0  0  0  0  0  0  0
  8  9  2  0
  9 10  1  0
 10 11  2  0
 11 16  1  0
 16 17  1  0
 17 18  1  0
 18 19  2  0
 18 20  1  0
 20 21  1  0
 21 22  1  0
 10 12  1  0
 12 13  2  0
 13 14  1  0
 13 15  1  0
 15  1  1  0
  1  2  2  0
  2  3  1  0
  3 23  1  0
 23 24  1  0
 24 25  1  0
 25 26  1  0
 26 30  1  0
 30 31  1  0
 30 32  2  0
 26 27  1  0
 27 28  1  0
  3  4  2  0
  4  5  1  0
  5  6  2  0
  6  7  1  0
 15  9  1  0
  6  1  1  0
 21 16  2  0
 28 23  1  0
 26 29  1  0
M  CHG 1  17  -1
M  CHG 1  20  -1
M  CHG 1  22  -1
M  CHG 1  26   1
M  END
> <UniqueID>
4

> <SMILES>
C=c1c(=Cc2[n-]c(=O)[n-]c2[O-])cc(C)n1-c1cc(N2CC[NH+](C(C)=O)CC2)ccc1C

> <Energy>
135.83822602382557

> <Genealogy>
C=c1c(=Cc2[n-]c(=O)[n-]c2[O-])cc(C)n1-c1cc(N2CC[NH+](C(C)=O)CC2)ccc1C (protonated)
C=c1c(=Cc2[n-]c(=O)[n-]c2[O-])cc(C)n1-c1cc(N2CC[NH+](C(C)=O)CC2)ccc1C (3D coordinates assigned)
C=c1c(=Cc2[n-]c(=O)[n-]c2[O-])cc(C)n1-c1cc(N2CC[NH+](C(C)=O)CC2)ccc1C (nonaromatic ring conformer: 135.83822602382557 kcal/mol)

> <smiles>
C=c1c(=Cc2[nH]c(=O)[nH]c2O)cc(C)n1-c1cc(N2CCN(C(C)=O)CC2)ccc1C

> <score_type>
oracle

> <origin>
adg

> <m_score__min__energy>
-15.08

> <m_primary>
energy

> <minimizedAffinity>
-8.83285

> <minimizedRMSD>
0.89921

> <CNNscore>
0.1688728631

> <CNNaffinity>
7.0157790184

> <CNN_VS>
1.1847746372

> <CNNaffinity_variance>
0.0408782102

$$$$
4:0


 32 35  0  0  0  0  0  0  0  0999 V2000
   59.1595   31.4957   49.8228 C   0  0  0  0  0  0  0  0  0  0  0  0
   58.0340   31.2333   50.6208 C   0  0  0  0  0  0  0  0  0  0  0  0
   57.8478   31.9084   51.8295 C   0  0  0  0  0  0  0  0  0  0  0  0
   56.4372   31.5686   52.8155 Cl  0  0  0  0  0  0  0  0  0  0  0  0
   58.7788   32.8609   52.2467 C   0  0  0  0  0  0  0  0  0  0  0  0
   59.9017   33.1354   51.4617 C   0  0  0  0  0  0  0  0  0  0  0  0
   60.1131   32.4503   50.2535 C   0  0  0  0  0  0  0  0  0  0  0  0
   60.3535   28.8343   49.3022 C   0  0  0  0  0  0  0  0  0  0  0  0
   59.8002   29.5834   48.3357 C   0  0  0  0  0  0  0  0  0  0  0  0
   59.7954   29.3191   46.9555 C   0  0  0  0  0  0  0  0  0  0  0  0
   60.1532   28.2203   46.2627 C   0  0  0  0  0  0  0  0  0  0  0  0
   59.3326   30.4720   46.3430 C   0  0  0  0  0  0  0  0  0  0  0  0
   59.0133   31.3603   47.3466 C   0  0  0  0  0  0  0  0  0  0  0  0
   58.5208   32.7569   47.1129 C   0  0  0  0  0  0  0  0  0  0  0  0
   59.2875   30.8215   48.5561 N   0  0  0  0  0  0  0  0  0  0  0  0
   59.2697   27.0940   45.9254 C   0  0  0  0  0  0  0  0  0  0  0  0
   59.4074   25.8605   46.4419 N   0  0  0  0  0  0  0  0  0  0  0  0
   58.4962   25.1334   45.7590 C   0  0  0  0  0  0  0  0  0  0  0  0
   58.3125   23.9077   45.9724 O   0  0  0  0  0  0  0  0  0  0  0  0
   57.8118   25.8188   44.8177 N   0  0  0  0  0  0  0  0  0  0  0  0
   58.3238   27.0547   44.9242 C   0  0  0  0  0  0  0  0  0  0  0  0
   57.9583   28.1159   44.1041 O   0  0  0  0  0  0  0  0  0  0  0  0
   61.3401   32.7572   49.4792 C   0  0  0  0  0  0  0  0  0  0  0  0
   61.4343   33.9079   48.9677 O   0  0  0  0  0  0  0  0  0  0  0  0
   62.4012   31.7736   49.3030 N   0  0  0  0  0  0  0  0  0  0  0  0
   62.7625   31.1017   50.5745 C   0  0  0  0  0  0  0  0  0  0  0  0
   63.4452   32.0514   51.5671 C   0  0  0  0  0  0  0  0  0  0  0  0
   64.5900   32.7483   50.9001 C   0  0  0  0  0  0  0  0  0  0  0  0
   65.6292   32.9482   51.5106 O   0  0  0  0  0  0  0  0  0  0  0  0
   64.4054   33.3025   49.5194 C   0  0  0  0  0  0  0  0  0  0  0  0
   63.6145   32.3169   48.6359 C   0  0  0  0  0  0  0  0  0  0  0  0
   62.8817   32.4856   49.7842 H   0  0  0  0  0  0  0  0  0  0  0  0
  8  9  2  0
  9 10  1  0
 10 11  2  0
 11 16  1  0
 16 17  1  0
 17 18  1  0
 18 19  2  0
 18 20  1  0
 20 21  1  0
 21 22  1  0
 10 12  1  0
 12 13  2  0
 13 14  1  0
 13 15  1  0
 15  1  1  0
  1  2  2  0
  2  3  1  0
  3  4  1  0
  3  5  2  0
  5  6  1  0
  6  7  2  0
  7 23  1  0
 23 24  2  0
 23 25  1  0
 25 26  1  0
 26 27  1  0
 27 28  1  0
 28 29  2  0
 28 30  1  0
 30 31  1  0
 15  9  1  0
  7  1  1  0
 31 25  1  0
 21 16  2  0
 25 32  1  0
M  CHG 1  17  -1
M  CHG 1  20  -1
M  CHG 1  22  -1
M  CHG 1  25   1
M  END
> <UniqueID>
5

> <SMILES>
C=c1/c(=C\c2[n-]c(=O)[n-]c2[O-])cc(C)n1-c1cc(Cl)ccc1C(=O)[NH+]1CCC(=O)CC1

> <Energy>
138.23799429965797

> <Genealogy>
C=c1c(=Cc2[n-]c(=O)[n-]c2[O-])cc(C)n1-c1cc(Cl)ccc1C(=O)[NH+]1CCC(=O)CC1 (protonated)
C=c1/c(=C\c2[n-]c(=O)[n-]c2[O-])cc(C)n1-c1cc(Cl)ccc1C(=O)[NH+]1CCC(=O)CC1 (cis-trans isomerization)
C=c1/c(=C\c2[n-]c(=O)[n-]c2[O-])cc(C)n1-c1cc(Cl)ccc1C(=O)[NH+]1CCC(=O)CC1 (3D coordinates assigned)
C=c1/c(=C\c2[n-]c(=O)[n-]c2[O-])cc(C)n1-c1cc(Cl)ccc1C(=O)[NH+]1CCC(=O)CC1 (nonaromatic ring conformer: 138.23799429965797 kcal/mol)

> <smiles>
C=c1c(=Cc2[nH]c(=O)[nH]c2O)cc(C)n1-c1cc(Cl)ccc1C(=O)N1CCC(=O)CC1

> <score_type>
oracle

> <origin>
adg

> <m_score__min__energy>
-14.800000000000001

> <m_primary>
energy

> <minimizedAffinity>
-7.96191

> <minimizedRMSD>
1.87739

> <CNNscore>
0.2324108034

> <CNNaffinity>
6.7524809837

> <CNN_VS>
1.5693495274

> <CNNaffinity_variance>
0.0000332372

$$$$
17:0


 32 35  0  0  0  0  0  0  0  0999 V2000
   59.4611   26.7230   47.4703 C   0  0  0  0  0  0  0  0  0  0  0  0
   58.8519   27.5659   46.6233 C   0  0  0  0  0  0  0  0  0  0  0  0
   58.1448   27.2442   45.4502 C   0  0  0  0  0  0  0  0  0  0  0  0
   57.7910   26.0541   44.9254 C   0  0  0  0  0  0  0  0  0  0  0  0
   57.8103   28.4508   44.8560 C   0  0  0  0  0  0  0  0  0  0  0  0
   58.2807   29.4500   45.6822 C   0  0  0  0  0  0  0  0  0  0  0  0
   58.1141   30.9182   45.4306 C   0  0  0  0  0  0  0  0  0  0  0  0
   58.8983   28.9161   46.7585 N   0  0  0  0  0  0  0  0  0  0  0  0
   57.2692   24.9006   45.6829 C   0  0  0  0  0  0  0  0  0  0  0  0
   56.0003   24.9590   46.2753 C   0  0  0  0  0  0  0  0  0  0  0  0
   55.1945   26.0808   46.1152 O   0  0  0  0  0  0  0  0  0  0  0  0
   55.5448   23.9091   47.0060 N   0  0  0  0  0  0  0  0  0  0  0  0
   56.3065   22.8014   47.1918 C   0  0  0  0  0  0  0  0  0  0  0  0
   55.8628   21.8386   47.8701 O   0  0  0  0  0  0  0  0  0  0  0  0
   57.5500   22.7304   46.6494 N   0  0  0  0  0  0  0  0  0  0  0  0
   58.0515   23.7544   45.9099 C   0  0  0  0  0  0  0  0  0  0  0  0
   59.2164   23.6639   45.4381 O   0  0  0  0  0  0  0  0  0  0  0  0
   59.5423   29.6651   47.8035 C   0  0  0  0  0  0  0  0  0  0  0  0
   58.9475   29.7572   49.0681 C   0  0  0  0  0  0  0  0  0  0  0  0
   59.5733   30.4749   50.0903 C   0  0  0  0  0  0  0  0  0  0  0  0
   60.8020   31.1192   49.8587 C   0  0  0  0  0  0  0  0  0  0  0  0
   61.4018   31.0104   48.5919 C   0  0  0  0  0  0  0  0  0  0  0  0
   60.7747   30.2909   47.5692 C   0  0  0  0  0  0  0  0  0  0  0  0
   61.3577   30.2169   46.3469 F   0  0  0  0  0  0  0  0  0  0  0  0
   61.4746   31.8740   50.9415 C   0  0  0  0  0  0  0  0  0  0  0  0
   60.9811   32.9655   51.3357 O   0  0  0  0  0  0  0  0  0  0  0  0
   62.6955   31.3974   51.5334 N   0  0  0  0  0  0  0  0  0  0  0  0
   63.7531   32.3608   51.8554 C   0  0  0  0  0  0  0  0  0  0  0  0
   65.0003   31.6317   52.3553 C   0  0  0  0  0  0  0  0  0  0  0  0
   65.1843   30.4497   51.6055 O   0  0  0  0  0  0  0  0  0  0  0  0
   64.2175   29.4793   51.9753 C   0  0  0  0  0  0  0  0  0  0  0  0
   62.7764   30.0327   52.0719 C   0  0  0  0  0  0  0  0  0  0  0  0
  1  2  2  0
  2  3  1  0
  3  4  2  0
  4  9  1  0
  9 10  2  0
 10 11  1  0
 10 12  1  0
 12 13  1  0
 13 14  2  0
 13 15  1  0
 15 16  1  0
 16 17  2  0
  3  5  1  0
  5  6  2  0
  6  7  1  0
  6  8  1  0
  8 18  1  0
 18 19  2  0
 19 20  1  0
 20 21  2  0
 21 25  1  0
 25 26  2  0
 25 27  1  0
 27 28  1  0
 28 29  1  0
 29 30  1  0
 30 31  1  0
 31 32  1  0
 21 22  1  0
 22 23  2  0
 23 24  1  0
  8  2  1  0
 23 18  1  0
 16  9  1  0
 32 27  1  0
M  CHG 1  11  -1
M  CHG 1  12  -1
M  CHG 1  15  -1
M  END
> <UniqueID>
18

> <SMILES>
C=c1/c(=C\c2c([O-])[n-]c(=O)[n-]c2=O)cc(C)n1-c1ccc(C(=O)N2CCOCC2)cc1F

> <Energy>
114.15628051738827

> <Genealogy>
C=c1c(=Cc2c([O-])[n-]c(=O)[n-]c2=O)cc(C)n1-c1ccc(C(=O)N2CCOCC2)cc1F (protonated)
C=c1/c(=C\c2c([O-])[n-]c(=O)[n-]c2=O)cc(C)n1-c1ccc(C(=O)N2CCOCC2)cc1F (cis-trans isomerization)
C=c1/c(=C\c2c([O-])[n-]c(=O)[n-]c2=O)cc(C)n1-c1ccc(C(=O)N2CCOCC2)cc1F (3D coordinates assigned)
C=c1/c(=C\c2c([O-])[n-]c(=O)[n-]c2=O)cc(C)n1-c1ccc(C(=O)N2CCOCC2)cc1F (nonaromatic ring conformer: 114.15628051738827 kcal/mol)

> <smiles>
C=c1c(=Cc2c(O)[nH]c(=O)[nH]c2=O)cc(C)n1-c1ccc(C(=O)N2CCOCC2)cc1F

> <score_type>
oracle

> <origin>
adg

> <m_score__min__energy>
-16.010000000000002

> <m_primary>
energy

> <minimizedAffinity>
-8.60535

> <minimizedRMSD>
1.74767

> <CNNscore>
0.1877949089

> <CNNaffinity>
6.4872221947

> <CNN_VS>
1.2182673216

> <CNNaffinity_variance>
0.0201654695

$$$$
25:0


 31 34  0  0  0  0  0  0  0  0999 V2000
   58.4972   30.9109   45.2295 C   0  0  0  0  0  0  0  0  0  0  0  0
   58.6487   30.2586   46.3959 C   0  0  0  0  0  0  0  0  0  0  0  0
   58.3279   28.9176   46.6287 C   0  0  0  0  0  0  0  0  0  0  0  0
   57.7830   28.0398   45.7626 C   0  0  0  0  0  0  0  0  0  0  0  0
   58.6305   28.6671   47.9577 C   0  0  0  0  0  0  0  0  0  0  0  0
   59.1308   29.8423   48.4779 C   0  0  0  0  0  0  0  0  0  0  0  0
   59.5183   30.0253   49.9152 C   0  0  0  0  0  0  0  0  0  0  0  0
   59.1453   30.8161   47.5348 N   0  0  0  0  0  0  0  0  0  0  0  0
   57.8184   26.5728   45.9543 C   0  0  0  0  0  0  0  0  0  0  0  0
   56.6214   25.8500   46.0632 C   0  0  0  0  0  0  0  0  0  0  0  0
   55.3959   26.5072   46.0258 O   0  0  0  0  0  0  0  0  0  0  0  0
   56.6524   24.4990   46.2174 N   0  0  0  0  0  0  0  0  0  0  0  0
   57.8337   23.8270   46.2543 C   0  0  0  0  0  0  0  0  0  0  0  0
   57.8476   22.5766   46.4024 O   0  0  0  0  0  0  0  0  0  0  0  0
   59.0041   24.5024   46.1239 N   0  0  0  0  0  0  0  0  0  0  0  0
   59.0253   25.8506   45.9673 C   0  0  0  0  0  0  0  0  0  0  0  0
   60.1295   26.4358   45.8153 O   0  0  0  0  0  0  0  0  0  0  0  0
   55.8077   24.0008   46.3035 H   0  0  0  0  0  0  0  0  0  0  0  0
   59.5577   32.2115   47.7613 C   0  0  0  0  0  0  0  0  0  0  0  0
   60.8445   32.2643   48.5420 C   0  0  0  0  0  0  0  0  0  0  0  0
   62.0271   31.7391   48.0016 C   0  0  0  0  0  0  0  0  0  0  0  0
   63.2182   31.7736   48.7330 C   0  0  0  0  0  0  0  0  0  0  0  0
   63.2496   32.3376   50.0222 C   0  0  0  0  0  0  0  0  0  0  0  0
   62.0624   32.8682   50.5570 C   0  0  0  0  0  0  0  0  0  0  0  0
   60.8724   32.8321   49.8247 C   0  0  0  0  0  0  0  0  0  0  0  0
   64.4791   32.3704   50.7809 N   0  0  0  0  0  0  0  0  0  0  0  0
   64.5033   31.8905   52.1711 C   0  0  0  0  0  0  0  0  0  0  0  0
   65.6009   32.5989   52.9712 C   0  0  0  0  0  0  0  0  0  0  0  0
   66.9905   32.4345   52.3273 C   0  0  0  0  0  0  0  0  0  0  0  0
   66.9464   32.2326   50.8011 C   0  0  0  0  0  0  0  0  0  0  0  0
   65.7142   32.8831   50.1651 C   0  0  0  0  0  0  0  0  0  0  0  0
  1  2  2  0
  2  3  1  0
  3  4  2  0
  4  9  1  0
  9 10  2  0
 10 11  1  0
 10 12  1  0
 12 13  1  0
 13 14  2  0
 13 15  1  0
 15 16  1  0
 16 17  2  0
  3  5  1  0
  5  6  2  0
  6  7  1  0
  6  8  1  0
  8 19  1  0
 19 20  1  0
 20 21  2  0
 21 22  1  0
 22 23  2  0
 23 26  1  0
 26 27  1  0
 27 28  1  0
 28 29  1  0
 29 30  1  0
 30 31  1  0
 23 24  1  0
 24 25  2  0
  8  2  1  0
 25 20  1  0
 16  9  1  0
 31 26  1  0
 12 18  1  0
M  CHG 1  11  -1
M  CHG 1  15  -1
M  END
> <UniqueID>
25

> <SMILES>
C=c1c(=Cc2c([O-])[nH]c(=O)[n-]c2=O)cc(C)n1Cc1ccc(N2CCCCC2)cc1

> <Energy>
99.06992043332697

> <Genealogy>
C=c1c(=Cc2c([O-])[nH]c(=O)[n-]c2=O)cc(C)n1Cc1ccc(N2CCCCC2)cc1 (protonated)
C=c1c(=Cc2c([O-])[nH]c(=O)[n-]c2=O)cc(C)n1Cc1ccc(N2CCCCC2)cc1 (3D coordinates assigned)
C=c1c(=Cc2c([O-])[nH]c(=O)[n-]c2=O)cc(C)n1Cc1ccc(N2CCCCC2)cc1 (nonaromatic ring conformer: 99.06992043332697 kcal/mol)

> <smiles>
C=c1c(=Cc2c(O)[nH]c(=O)[nH]c2=O)cc(C)n1Cc1ccc(N2CCCCC2)cc1

> <score_type>
oracle

> <origin>
adg

> <m_score__min__energy>
-14.18

> <m_primary>
energy

> <minimizedAffinity>
-7.31732

> <minimizedRMSD>
1.29624

> <CNNscore>
0.1209876463

> <CNNaffinity>
6.4194703102

> <CNN_VS>
0.7766765952

> <CNNaffinity_variance>
0.1619072407

$$$$
26:0


 31 34  0  0  0  0  0  0  0  0999 V2000
   60.2902   29.3756   44.8914 C   0  0  0  0  0  0  0  0  0  0  0  0
   59.8269   29.0587   46.1098 C   0  0  0  0  0  0  0  0  0  0  0  0
   59.0329   27.9553   46.4394 C   0  0  0  0  0  0  0  0  0  0  0  0
   58.6144   26.9762   45.6140 C   0  0  0  0  0  0  0  0  0  0  0  0
   58.8111   28.0303   47.8087 C   0  0  0  0  0  0  0  0  0  0  0  0
   59.4486   29.1710   48.2515 C   0  0  0  0  0  0  0  0  0  0  0  0
   59.5076   29.6100   49.6823 C   0  0  0  0  0  0  0  0  0  0  0  0
   60.0792   29.7854   47.2264 N   0  0  0  0  0  0  0  0  0  0  0  0
   57.8300   25.8069   46.0524 C   0  0  0  0  0  0  0  0  0  0  0  0
   56.4642   25.7192   46.2351 C   0  0  0  0  0  0  0  0  0  0  0  0
   55.5481   26.7509   46.0716 O   0  0  0  0  0  0  0  0  0  0  0  0
   56.1108   24.4571   46.5519 N   0  0  0  0  0  0  0  0  0  0  0  0
   57.2908   23.8027   46.5314 C   0  0  0  0  0  0  0  0  0  0  0  0
   57.3938   22.5704   46.7732 O   0  0  0  0  0  0  0  0  0  0  0  0
   58.3471   24.5795   46.2188 N   0  0  0  0  0  0  0  0  0  0  0  0
   59.2891   24.3070   46.1319 H   0  0  0  0  0  0  0  0  0  0  0  0
   60.8389   31.0038   47.3072 C   0  0  0  0  0  0  0  0  0  0  0  0
   62.2307   30.9205   47.4605 C   0  0  0  0  0  0  0  0  0  0  0  0
   63.0058   32.0764   47.5403 C   0  0  0  0  0  0  0  0  0  0  0  0
   62.3980   33.3297   47.4758 C   0  0  0  0  0  0  0  0  0  0  0  0
   61.0133   33.4306   47.3267 C   0  0  0  0  0  0  0  0  0  0  0  0
   60.2135   32.2749   47.2294 C   0  0  0  0  0  0  0  0  0  0  0  0
   58.7391   32.4162   47.0865 C   0  0  0  0  0  0  0  0  0  0  0  0
   58.0047   32.3341   48.1062 O   0  0  0  0  0  0  0  0  0  0  0  0
   58.1230   32.7690   45.8351 N   0  0  0  0  0  0  0  0  0  0  0  0
   57.6857   31.9730   44.8995 C   0  0  0  0  0  0  0  0  0  0  0  0
   57.0180   30.8463   45.2724 N   0  0  0  0  0  0  0  0  0  0  0  0
   56.5369   29.9536   44.3659 C   0  0  0  0  0  0  0  0  0  0  0  0
   56.7247   30.1710   43.0021 C   0  0  0  0  0  0  0  0  0  0  0  0
   57.4164   31.3077   42.5826 C   0  0  0  0  0  0  0  0  0  0  0  0
   57.9056   32.2126   43.5265 C   0  0  0  0  0  0  0  0  0  0  0  0
  1  2  2  0
  2  3  1  0
  3  4  2  0
  4  9  1  0
  9 10  2  0
 10 11  1  0
 10 12  1  0
 12 13  1  0
 13 14  2  0
 13 15  1  0
  3  5  1  0
  5  6  2  0
  6  7  1  0
  6  8  1  0
  8 17  1  0
 17 18  2  0
 18 19  1  0
 19 20  2  0
 20 21  1  0
 21 22  2  0
 22 23  1  0
 23 24  2  0
 23 25  1  0
 25 26  2  0
 26 27  1  0
 27 28  1  0
 28 29  2  0
 29 30  1  0
 30 31  2  0
  8  2  1  0
 22 17  1  0
 31 26  1  0
 15  9  1  0
 15 16  1  0
M  CHG 1  11  -1
M  CHG 1  12  -1
M  CHG 1  27  -1
M  END
> <UniqueID>
26

> <SMILES>
C=c1/c(=C/c2[nH]c(=O)[n-]c2[O-])cc(C)n1-c1ccccc1C(=O)N=c1cccc[n-]1

> <Energy>
135.08181294247078

> <Genealogy>
C=c1c(=Cc2[nH]c(=O)[n-]c2[O-])cc(C)n1-c1ccccc1C(=O)N=c1cccc[n-]1 (protonated)
C=c1/c(=C/c2[nH]c(=O)[n-]c2[O-])cc(C)n1-c1ccccc1C(=O)N=c1cccc[n-]1 (cis-trans isomerization)
C=c1/c(=C/c2[nH]c(=O)[n-]c2[O-])cc(C)n1-c1ccccc1C(=O)N=c1cccc[n-]1 (3D coordinates assigned)
C=c1/c(=C/c2[nH]c(=O)[n-]c2[O-])cc(C)n1-c1ccccc1C(=O)N=c1cccc[n-]1 (optimized conformer: 135.08181294247078 kcal/mol)

> <smiles>
C=c1c(=Cc2[nH]c(=O)[nH]c2O)cc(C)n1-c1ccccc1C(=O)N=c1cccc[nH]1

> <score_type>
oracle

> <origin>
adg

> <m_score__min__energy>
-16.859999999999999

> <m_primary>
energy

> <minimizedAffinity>
-8.50450

> <minimizedRMSD>
0.64297

> <CNNscore>
0.1655996740

> <CNNaffinity>
6.6730690002

> <CNN_VS>
1.1050580740

> <CNNaffinity_variance>
0.0680314377

$$$$
37:0


 32 35  0  0  0  0  0  0  0  0999 V2000
   60.2593   26.5982   48.5773 C   0  0  0  0  0  0  0  0  0  0  0  0
   60.0337   27.6702   47.7997 C   0  0  0  0  0  0  0  0  0  0  0  0
   59.6932   27.6645   46.4371 C   0  0  0  0  0  0  0  0  0  0  0  0
   59.3343   26.6589   45.6163 C   0  0  0  0  0  0  0  0  0  0  0  0
   59.7648   28.9808   46.0163 C   0  0  0  0  0  0  0  0  0  0  0  0
   60.0972   29.7380   47.1198 C   0  0  0  0  0  0  0  0  0  0  0  0
   60.2301   28.9505   48.2118 N   0  0  0  0  0  0  0  0  0  0  0  0
   58.3650   25.5976   45.9271 C   0  0  0  0  0  0  0  0  0  0  0  0
   58.6824   24.2928   45.9826 N   0  0  0  0  0  0  0  0  0  0  0  0
   57.4881   23.6880   46.1610 C   0  0  0  0  0  0  0  0  0  0  0  0
   57.3714   22.4400   46.2767 O   0  0  0  0  0  0  0  0  0  0  0  0
   56.4280   24.5234   46.1905 N   0  0  0  0  0  0  0  0  0  0  0  0
   56.9971   25.7266   46.0257 C   0  0  0  0  0  0  0  0  0  0  0  0
   56.2814   26.9150   45.9412 O   0  0  0  0  0  0  0  0  0  0  0  0
   60.1588   31.2173   47.1226 C   0  0  0  0  0  0  0  0  0  0  0  0
   59.3821   31.8366   46.3464 O   0  0  0  0  0  0  0  0  0  0  0  0
   61.0318   31.9792   48.0011 N   0  0  0  0  0  0  0  0  0  0  0  0
   62.4531   31.8241   47.5721 C   0  0  0  0  0  0  0  0  0  0  0  0
   63.2922   33.1169   47.6378 C   0  0  0  0  0  0  0  0  0  0  0  0
   63.0028   33.9853   48.8796 C   0  0  0  0  0  0  0  0  0  0  0  0
   61.4909   34.1006   49.2003 C   0  0  0  0  0  0  0  0  0  0  0  0
   60.6139   33.3900   48.1593 C   0  0  0  0  0  0  0  0  0  0  0  0
   60.3812   32.6074   48.3903 H   0  0  0  0  0  0  0  0  0  0  0  0
   63.8311   33.5392   50.0773 C   0  0  0  0  0  0  0  0  0  0  0  0
   64.9975   32.7772   49.8742 C   0  0  0  0  0  0  0  0  0  0  0  0
   65.7539   32.3323   50.9632 C   0  0  0  0  0  0  0  0  0  0  0  0
   65.3548   32.6377   52.2656 C   0  0  0  0  0  0  0  0  0  0  0  0
   66.0920   32.2066   53.3195 F   0  0  0  0  0  0  0  0  0  0  0  0
   64.1967   33.3858   52.4828 C   0  0  0  0  0  0  0  0  0  0  0  0
   63.4343   33.8306   51.3967 C   0  0  0  0  0  0  0  0  0  0  0  0
   60.6403   29.4077   49.5491 C   0  0  0  0  0  0  0  0  0  0  0  0
   59.4196   29.7696   50.3884 C   0  0  0  0  0  0  0  0  0  0  0  0
  1  2  2  0
  2  3  1  0
  3  4  2  0
  4  8  1  0
  8  9  1  0
  9 10  1  0
 10 11  2  0
 10 12  1  0
 12 13  1  0
 13 14  1  0
  3  5  1  0
  5  6  2  0
  6 15  1  0
 15 16  2  0
 17 15  1  0
 17 18  1  0
 18 19  1  0
 19 20  1  0
 20 24  1  0
 24 25  2  0
 25 26  1  0
 26 27  2  0
 27 28  1  0
 27 29  1  0
 29 30  2  0
 20 21  1  0
 21 22  1  0
  6  7  1  0
  7 31  1  0
 31 32  1  0
  7  2  1  0
 13  8  2  0
 22 17  1  0
 30 24  1  0
 17 23  1  0
M  CHG 1   9  -1
M  CHG 1  12  -1
M  CHG 1  14  -1
M  CHG 1  17   1
M  END
> <UniqueID>
36

> <SMILES>
C=c1c(=Cc2[n-]c(=O)[n-]c2[O-])cc(C(=O)[NH+]2CCC(c3ccc(F)cc3)CC2)n1CC

> <Energy>
146.20441077856407

> <Genealogy>
C=c1c(=Cc2[n-]c(=O)[n-]c2[O-])cc(C(=O)[NH+]2CCC(c3ccc(F)cc3)CC2)n1CC (protonated)
C=c1c(=Cc2[n-]c(=O)[n-]c2[O-])cc(C(=O)[NH+]2CCC(c3ccc(F)cc3)CC2)n1CC (3D coordinates assigned)
C=c1c(=Cc2[n-]c(=O)[n-]c2[O-])cc(C(=O)[NH+]2CCC(c3ccc(F)cc3)CC2)n1CC (nonaromatic ring conformer: 146.20441077856407 kcal/mol)

> <smiles>
C=c1c(=Cc2[nH]c(=O)[nH]c2O)cc(C(=O)N2CCC(c3ccc(F)cc3)CC2)n1CC

> <score_type>
oracle

> <origin>
adg

> <m_score__min__energy>
-17.32

> <m_primary>
energy

> <minimizedAffinity>
-7.54896

> <minimizedRMSD>
1.69875

> <CNNscore>
0.1571034342

> <CNNaffinity>
6.2970252037

> <CNN_VS>
0.9892842770

> <CNNaffinity_variance>
0.1796148270

$$$$
41:0


 24 25  0  0  0  0  0  0  0  0999 V2000
   57.8000   25.3737   45.8080 C   0  0  0  0  0  0  0  0  0  0  0  0
   58.7067   24.3551   45.4893 C   0  0  0  0  0  0  0  0  0  0  0  0
   58.2464   23.0718   45.1972 C   0  0  0  0  0  0  0  0  0  0  0  0
   56.8785   22.7923   45.2181 C   0  0  0  0  0  0  0  0  0  0  0  0
   55.9483   23.8012   45.5267 C   0  0  0  0  0  0  0  0  0  0  0  0
   56.4207   25.0969   45.8277 C   0  0  0  0  0  0  0  0  0  0  0  0
   55.5181   26.1093   46.1413 O   0  0  0  0  0  0  0  0  0  0  0  0
   58.3856   26.9970   46.1792 S   0  0  0  0  0  0  0  0  0  0  0  0
   59.8655   27.0557   45.9248 O   0  0  0  0  0  0  0  0  0  0  0  0
   58.0983   27.3031   47.6230 O   0  0  0  0  0  0  0  0  0  0  0  0
   57.5809   31.6200   44.2915 C   0  0  0  0  0  0  0  0  0  0  0  0
   57.3459   30.2806   44.2593 N   0  0  0  0  0  0  0  0  0  0  0  0
   57.8235   29.4436   45.2242 C   0  0  0  0  0  0  0  0  0  0  0  0
   57.5869   28.1678   45.1756 N   0  0  0  0  0  0  0  0  0  0  0  0
   58.5783   29.9644   46.2807 C   0  0  0  0  0  0  0  0  0  0  0  0
   58.8307   31.3380   46.3327 C   0  0  0  0  0  0  0  0  0  0  0  0
   58.3313   32.1743   45.3317 C   0  0  0  0  0  0  0  0  0  0  0  0
   58.6670   34.0537   45.3869 Br  0  0  0  0  0  0  0  0  0  0  0  0
   54.5327   23.5332   45.5607 N   0  0  0  0  0  0  0  0  0  0  0  0
   53.9495   24.0604   44.9681 H   0  0  0  0  0  0  0  0  0  0  0  0
   53.7901   22.3396   46.5799 S   0  0  0  0  0  0  0  0  0  0  0  0
   52.3026   22.5522   46.6225 O   0  0  0  0  0  0  0  0  0  0  0  0
   54.0677   20.9771   46.0124 O   0  0  0  0  0  0  0  0  0  0  0  0
   54.4760   22.4174   48.2216 C   0  0  0  0  0  0  0  0  0  0  0  0
 11 12  1  0
 12 13  1  0
 13 14  2  0
 14  8  1  0
  8  9  2  0
  8 10  2  0
  8  1  1  0
  1  2  2  0
  2  3  1  0
  3  4  2  0
  4  5  1  0
  5 19  1  0
 19 21  1  0
 21 22  2  0
 21 23  2  0
 21 24  1  0
  5  6  2  0
  6  7  1  0
 13 15  1  0
 15 16  2  0
 16 17  1  0
 17 18  1  0
 17 11  2  0
  6  1  1  0
 19 20  1  0
M  CHG 1   7  -1
M  CHG 1  12  -1
M  END
> <UniqueID>
40

> <SMILES>
CS(=O)(=O)Nc1cccc(S(=O)(=O)/N=c2/ccc(Br)c[n-]2)c1[O-]

> <Energy>
38.553675462714764

> <Genealogy>
CS(=O)(=O)Nc1cccc(S(=O)(=O)N=c2ccc(Br)c[n-]2)c1[O-] (protonated)
CS(=O)(=O)Nc1cccc(S(=O)(=O)/N=c2/ccc(Br)c[n-]2)c1[O-] (cis-trans isomerization)
CS(=O)(=O)Nc1cccc(S(=O)(=O)/N=c2/ccc(Br)c[n-]2)c1[O-] (3D coordinates assigned)
CS(=O)(=O)Nc1cccc(S(=O)(=O)/N=c2/ccc(Br)c[n-]2)c1[O-] (optimized conformer: 38.553675462714764 kcal/mol)

> <smiles>
CS(=O)(=O)Nc1cccc(S(=O)(=O)N=c2ccc(Br)c[nH]2)c1O

> <score_type>
oracle

> <origin>
adg

> <m_score__min__energy>
-14.02

> <m_primary>
energy

> <minimizedAffinity>
-7.15817

> <minimizedRMSD>
1.29571

> <CNNscore>
0.4309501946

> <CNNaffinity>
6.1725459099

> <CNN_VS>
2.6600599289

> <CNNaffinity_variance>
0.0588687360

$$$$
55:0


 31 33  0  0  0  0  0  0  0  0999 V2000
   58.4529   28.1974   43.7475 C   0  0  0  0  0  0  0  0  0  0  0  0
   58.5454   27.8198   45.0339 C   0  0  0  0  0  0  0  0  0  0  0  0
   58.0262   26.6452   45.6063 C   0  0  0  0  0  0  0  0  0  0  0  0
   57.4630   25.5556   45.0452 C   0  0  0  0  0  0  0  0  0  0  0  0
   58.2063   26.7677   46.9717 C   0  0  0  0  0  0  0  0  0  0  0  0
   58.8637   27.9594   47.1850 C   0  0  0  0  0  0  0  0  0  0  0  0
   59.2779   28.4622   48.5363 C   0  0  0  0  0  0  0  0  0  0  0  0
   59.0849   28.5984   46.0120 N   0  0  0  0  0  0  0  0  0  0  0  0
   56.9283   24.3883   45.7745 C   0  0  0  0  0  0  0  0  0  0  0  0
   55.5923   24.3492   46.2108 C   0  0  0  0  0  0  0  0  0  0  0  0
   54.7437   25.4280   45.9939 O   0  0  0  0  0  0  0  0  0  0  0  0
   55.1203   23.2472   46.8451 N   0  0  0  0  0  0  0  0  0  0  0  0
   55.9105   22.1623   47.0509 C   0  0  0  0  0  0  0  0  0  0  0  0
   55.4513   21.1539   47.6463 O   0  0  0  0  0  0  0  0  0  0  0  0
   57.1936   22.1633   46.6072 N   0  0  0  0  0  0  0  0  0  0  0  0
   57.7146   23.2417   45.9681 C   0  0  0  0  0  0  0  0  0  0  0  0
   58.9053   23.2023   45.5597 O   0  0  0  0  0  0  0  0  0  0  0  0
   59.7186   29.9217   45.8712 C   0  0  0  0  0  0  0  0  0  0  0  0
   58.6753   31.0415   45.9172 C   0  0  0  0  0  0  0  0  0  0  0  0
   58.7666   31.7656   47.1915 N   0  0  0  0  0  0  0  0  0  0  0  0
   59.2599   31.1847   47.8694 H   0  0  0  0  0  0  0  0  0  0  0  0
   59.6218   33.2661   47.0029 S   0  0  0  0  0  0  0  0  0  0  0  0
   59.8547   33.5527   45.5442 O   0  0  0  0  0  0  0  0  0  0  0  0
   58.8014   34.3837   47.5833 O   0  0  0  0  0  0  0  0  0  0  0  0
   61.1575   33.1710   47.8574 C   0  0  0  0  0  0  0  0  0  0  0  0
   62.1403   32.2551   47.4566 C   0  0  0  0  0  0  0  0  0  0  0  0
   63.3394   32.1510   48.1694 C   0  0  0  0  0  0  0  0  0  0  0  0
   63.5765   32.9773   49.2777 C   0  0  0  0  0  0  0  0  0  0  0  0
   64.8372   32.8273   50.0748 C   0  0  0  0  0  0  0  0  0  0  0  0
   62.5885   33.8870   49.6825 C   0  0  0  0  0  0  0  0  0  0  0  0
   61.3856   33.9812   48.9784 C   0  0  0  0  0  0  0  0  0  0  0  0
  1  2  2  0
  2  3  1  0
  3  4  2  0
  4  9  1  0
  9 10  2  0
 10 11  1  0
 10 12  1  0
 12 13  1  0
 13 14  2  0
 13 15  1  0
 15 16  1  0
 16 17  2  0
  3  5  1  0
  5  6  2  0
  6  7  1  0
  6  8  1  0
  8 18  1  0
 18 19  1  0
 19 20  1  0
 20 22  1  0
 22 23  2  0
 22 24  2  0
 22 25  1  0
 25 26  2  0
 26 27  1  0
 27 28  2  0
 28 29  1  0
 28 30  1  0
 30 31  2  0
  8  2  1  0
 31 25  1  0
 16  9  1  0
 20 21  1  0
M  CHG 1  11  -1
M  CHG 1  12  -1
M  CHG 1  15  -1
M  END
> <UniqueID>
52

> <SMILES>
C=c1/c(=C\c2c([O-])[n-]c(=O)[n-]c2=O)cc(C)n1CCNS(=O)(=O)c1ccc(C)cc1

> <Energy>
83.68932363083212

> <Genealogy>
C=c1c(=Cc2c([O-])[n-]c(=O)[n-]c2=O)cc(C)n1CCNS(=O)(=O)c1ccc(C)cc1 (protonated)
C=c1/c(=C\c2c([O-])[n-]c(=O)[n-]c2=O)cc(C)n1CCNS(=O)(=O)c1ccc(C)cc1 (cis-trans isomerization)
C=c1/c(=C\c2c([O-])[n-]c(=O)[n-]c2=O)cc(C)n1CCNS(=O)(=O)c1ccc(C)cc1 (3D coordinates assigned)
C=c1/c(=C\c2c([O-])[n-]c(=O)[n-]c2=O)cc(C)n1CCNS(=O)(=O)c1ccc(C)cc1 (optimized conformer: 83.68932363083212 kcal/mol)

> <smiles>
C=c1c(=Cc2c(O)[nH]c(=O)[nH]c2=O)cc(C)n1CCNS(=O)(=O)c1ccc(C)cc1

> <score_type>
oracle

> <origin>
adg

> <m_score__min__energy>
-17.260000000000002

> <m_primary>
energy

> <minimizedAffinity>
-8.32224

> <minimizedRMSD>
2.07629

> <CNNscore>
0.1583259851

> <CNNaffinity>
6.7553863525

> <CNN_VS>
1.0695532560

> <CNNaffinity_variance>
0.3739153147

$$$$
70:0


 36 40  0  0  0  0  0  0  0  0999 V2000
   58.9764   30.4031   45.2293 C   0  0  0  0  0  0  0  0  0  0  0  0
   59.0298   29.7951   46.4251 C   0  0  0  0  0  0  0  0  0  0  0  0
   59.3019   28.4383   46.6636 C   0  0  0  0  0  0  0  0  0  0  0  0
   59.3621   27.3854   45.8239 C   0  0  0  0  0  0  0  0  0  0  0  0
   59.4933   28.3162   48.0267 C   0  0  0  0  0  0  0  0  0  0  0  0
   59.2518   29.5555   48.5771 C   0  0  0  0  0  0  0  0  0  0  0  0
   58.9744   30.4635   47.6095 N   0  0  0  0  0  0  0  0  0  0  0  0
   59.2942   29.8263   50.0259 C   0  0  0  0  0  0  0  0  0  0  0  0
   58.2251   30.1441   50.6149 O   0  0  0  0  0  0  0  0  0  0  0  0
   60.5279   29.7705   50.7651 N   0  0  0  0  0  0  0  0  0  0  0  0
   60.4856   29.4319   52.1945 C   0  0  0  0  0  0  0  0  0  0  0  0
   61.8859   29.1603   52.7526 C   0  0  0  0  0  0  0  0  0  0  0  0
   62.8196   30.2302   52.3709 N   0  0  0  0  0  0  0  0  0  0  0  0
   62.7188   30.8578   51.0428 C   0  0  0  0  0  0  0  0  0  0  0  0
   61.8113   30.0524   50.1073 C   0  0  0  0  0  0  0  0  0  0  0  0
   63.9109   30.5961   53.2451 C   0  0  0  0  0  0  0  0  0  0  0  0
   64.5352   31.8508   53.1269 C   0  0  0  0  0  0  0  0  0  0  0  0
   65.5827   32.1861   53.9852 C   0  0  0  0  0  0  0  0  0  0  0  0
   66.0036   31.2787   54.9546 C   0  0  0  0  0  0  0  0  0  0  0  0
   65.3634   30.0423   55.0549 C   0  0  0  0  0  0  0  0  0  0  0  0
   64.3413   29.7267   54.2118 N   0  0  0  0  0  0  0  0  0  0  0  0
   63.9005   28.8508   54.2997 H   0  0  0  0  0  0  0  0  0  0  0  0
   58.5860   26.1406   45.9471 C   0  0  0  0  0  0  0  0  0  0  0  0
   59.1136   24.9014   45.9247 N   0  0  0  0  0  0  0  0  0  0  0  0
   58.0265   24.1011   45.9216 C   0  0  0  0  0  0  0  0  0  0  0  0
   58.1103   22.8454   45.9192 O   0  0  0  0  0  0  0  0  0  0  0  0
   56.8433   24.7499   45.9107 N   0  0  0  0  0  0  0  0  0  0  0  0
   57.2172   26.0395   45.9111 C   0  0  0  0  0  0  0  0  0  0  0  0
   56.3240   27.1038   45.8725 O   0  0  0  0  0  0  0  0  0  0  0  0
   58.8655   31.9223   47.7981 C   0  0  0  0  0  0  0  0  0  0  0  0
   60.2170   32.5326   48.0715 C   0  0  0  0  0  0  0  0  0  0  0  0
   60.4046   33.3900   49.1695 C   0  0  0  0  0  0  0  0  0  0  0  0
   61.6619   33.9490   49.4202 C   0  0  0  0  0  0  0  0  0  0  0  0
   62.7402   33.6505   48.5855 C   0  0  0  0  0  0  0  0  0  0  0  0
   62.5668   32.7882   47.4998 C   0  0  0  0  0  0  0  0  0  0  0  0
   61.3107   32.2291   47.2448 C   0  0  0  0  0  0  0  0  0  0  0  0
  1  2  2  0
  2  3  1  0
  3  4  2  0
  4 23  1  0
 23 24  1  0
 24 25  1  0
 25 26  2  0
 25 27  1  0
 27 28  1  0
 28 29  1  0
  3  5  1  0
  5  6  2  0
  6  8  1  0
  8  9  2  0
  8 10  1  0
 10 11  1  0
 11 12  1  0
 12 13  1  0
 13 16  1  0
 16 17  2  0
 17 18  1  0
 18 19  2  0
 19 20  1  0
 20 21  2  0
 13 14  1  0
 14 15  1  0
  6  7  1  0
  7 30  1  0
 30 31  1  0
 31 32  2  0
 32 33  1  0
 33 34  2  0
 34 35  1  0
 35 36  2  0
  7  2  1  0
 36 31  1  0
 28 23  2  0
 15 10  1  0
 21 16  1  0
 21 22  1  0
M  CHG 1  21   1
M  CHG 1  24  -1
M  CHG 1  27  -1
M  CHG 1  29  -1
M  END
> <UniqueID>
67

> <SMILES>
C=c1c(=Cc2[n-]c(=O)[n-]c2[O-])cc(C(=O)N2CCN(c3cccc[nH+]3)CC2)n1Cc1ccccc1

> <Energy>
141.40478890521274

> <Genealogy>
C=c1c(=Cc2[n-]c(=O)[n-]c2[O-])cc(C(=O)N2CCN(c3cccc[nH+]3)CC2)n1Cc1ccccc1 (protonated)
C=c1c(=Cc2[n-]c(=O)[n-]c2[O-])cc(C(=O)N2CCN(c3cccc[nH+]3)CC2)n1Cc1ccccc1 (3D coordinates assigned)
C=c1c(=Cc2[n-]c(=O)[n-]c2[O-])cc(C(=O)N2CCN(c3cccc[nH+]3)CC2)n1Cc1ccccc1 (nonaromatic ring conformer: 141.40478890521274 kcal/mol)

> <smiles>
C=c1c(=Cc2[nH]c(=O)[nH]c2O)cc(C(=O)N2CCN(c3ccccn3)CC2)n1Cc1ccccc1

> <score_type>
oracle

> <origin>
adg

> <m_score__min__energy>
-15.220000000000001

> <m_primary>
energy

> <minimizedAffinity>
-7.44114

> <minimizedRMSD>
2.32909

> <CNNscore>
0.1868923306

> <CNNaffinity>
6.5124454498

> <CNN_VS>
1.2171261311

> <CNNaffinity_variance>
0.0047426596

$$$$
71:0


 29 31  0  0  0  0  0  0  0  0999 V2000
   60.9491   30.0657   47.3353 C   0  0  0  0  0  0  0  0  0  0  0  0
   60.3083   31.1418   46.8508 C   0  0  0  0  0  0  0  0  0  0  0  0
   59.3700   31.1759   45.8046 C   0  0  0  0  0  0  0  0  0  0  0  0
   58.9908   30.2303   44.9220 C   0  0  0  0  0  0  0  0  0  0  0  0
   58.8424   32.4577   45.7992 C   0  0  0  0  0  0  0  0  0  0  0  0
   59.5013   33.1669   46.7812 C   0  0  0  0  0  0  0  0  0  0  0  0
   59.2400   34.6038   47.1152 C   0  0  0  0  0  0  0  0  0  0  0  0
   60.3894   32.3717   47.4190 N   0  0  0  0  0  0  0  0  0  0  0  0
   58.3876   28.9281   45.2654 C   0  0  0  0  0  0  0  0  0  0  0  0
   56.9935   28.7769   45.2786 C   0  0  0  0  0  0  0  0  0  0  0  0
   56.1615   29.8607   45.0194 O   0  0  0  0  0  0  0  0  0  0  0  0
   56.4454   27.5650   45.5537 N   0  0  0  0  0  0  0  0  0  0  0  0
   57.2268   26.4831   45.8055 C   0  0  0  0  0  0  0  0  0  0  0  0
   56.6960   25.3717   46.0629 O   0  0  0  0  0  0  0  0  0  0  0  0
   58.5783   26.5980   45.7721 N   0  0  0  0  0  0  0  0  0  0  0  0
   59.1753   27.7865   45.5000 C   0  0  0  0  0  0  0  0  0  0  0  0
   60.4331   27.8515   45.4552 O   0  0  0  0  0  0  0  0  0  0  0  0
   61.2294   32.7678   48.5188 C   0  0  0  0  0  0  0  0  0  0  0  0
   62.5682   33.1171   48.2916 C   0  0  0  0  0  0  0  0  0  0  0  0
   63.3867   33.4986   49.3569 C   0  0  0  0  0  0  0  0  0  0  0  0
   62.8752   33.5465   50.6638 C   0  0  0  0  0  0  0  0  0  0  0  0
   61.5418   33.1727   50.8919 C   0  0  0  0  0  0  0  0  0  0  0  0
   60.7213   32.7911   49.8265 C   0  0  0  0  0  0  0  0  0  0  0  0
   59.4358   32.4312   50.0681 F   0  0  0  0  0  0  0  0  0  0  0  0
   63.7411   33.9327   51.7979 C   0  0  0  0  0  0  0  0  0  0  0  0
   64.1073   35.1359   51.8986 O   0  0  0  0  0  0  0  0  0  0  0  0
   64.1840   32.9712   52.7770 N   0  0  0  0  0  0  0  0  0  0  0  0
   64.5517   33.4375   54.1154 C   0  0  0  0  0  0  0  0  0  0  0  0
   64.4174   31.5749   52.3934 C   0  0  0  0  0  0  0  0  0  0  0  0
  1  2  2  0
  2  3  1  0
  3  4  2  0
  4  9  1  0
  9 10  2  0
 10 11  1  0
 10 12  1  0
 12 13  1  0
 13 14  2  0
 13 15  1  0
 15 16  1  0
 16 17  2  0
  3  5  1  0
  5  6  2  0
  6  7  1  0
  6  8  1  0
  8 18  1  0
 18 19  2  0
 19 20  1  0
 20 21  2  0
 21 25  1  0
 25 26  2  0
 25 27  1  0
 27 28  1  0
 27 29  1  0
 21 22  1  0
 22 23  2  0
 23 24  1  0
  8  2  1  0
 23 18  1  0
 16  9  1  0
M  CHG 1  11  -1
M  CHG 1  12  -1
M  CHG 1  15  -1
M  END
> <UniqueID>
68

> <SMILES>
C=c1c(=Cc2c([O-])[n-]c(=O)[n-]c2=O)cc(C)n1-c1ccc(C(=O)N(C)C)cc1F

> <Energy>
99.71664483328139

> <Genealogy>
C=c1c(=Cc2c([O-])[n-]c(=O)[n-]c2=O)cc(C)n1-c1ccc(C(=O)N(C)C)cc1F (protonated)
C=c1c(=Cc2c([O-])[n-]c(=O)[n-]c2=O)cc(C)n1-c1ccc(C(=O)N(C)C)cc1F (3D coordinates assigned)
C=c1c(=Cc2c([O-])[n-]c(=O)[n-]c2=O)cc(C)n1-c1ccc(C(=O)N(C)C)cc1F (optimized conformer: 99.71664483328139 kcal/mol)

> <smiles>
C=c1c(=Cc2c(O)[nH]c(=O)[nH]c2=O)cc(C)n1-c1ccc(C(=O)N(C)C)cc1F

> <score_type>
oracle

> <origin>
adg

> <m_score__min__energy>
-15.43

> <m_primary>
energy

> <minimizedAffinity>
-7.05467

> <minimizedRMSD>
1.57907

> <CNNscore>
0.4509502351

> <CNNaffinity>
7.1379127502

> <CNN_VS>
3.2188434601

> <CNNaffinity_variance>
0.7332472801

$$$$
73:0


 39 43  0  0  0  0  0  0  0  0999 V2000
   60.5706   28.0178   49.4419 C   0  0  0  0  0  0  0  0  0  0  0  0
   60.3165   29.0538   48.6253 C   0  0  0  0  0  0  0  0  0  0  0  0
   59.9916   28.9602   47.2672 C   0  0  0  0  0  0  0  0  0  0  0  0
   59.9860   27.8471   46.5069 C   0  0  0  0  0  0  0  0  0  0  0  0
   59.7611   30.2555   46.8302 C   0  0  0  0  0  0  0  0  0  0  0  0
   59.9551   31.0832   47.9191 C   0  0  0  0  0  0  0  0  0  0  0  0
   60.3185   30.3592   49.0063 N   0  0  0  0  0  0  0  0  0  0  0  0
   58.8093   26.9805   46.3139 C   0  0  0  0  0  0  0  0  0  0  0  0
   58.7341   25.7260   46.7930 N   0  0  0  0  0  0  0  0  0  0  0  0
   57.4755   25.3477   46.4832 C   0  0  0  0  0  0  0  0  0  0  0  0
   57.0216   24.2078   46.7634 O   0  0  0  0  0  0  0  0  0  0  0  0
   56.7351   26.2904   45.8648 N   0  0  0  0  0  0  0  0  0  0  0  0
   57.5900   27.3231   45.7741 C   0  0  0  0  0  0  0  0  0  0  0  0
   57.2408   28.5632   45.2579 O   0  0  0  0  0  0  0  0  0  0  0  0
   59.8797   32.5640   47.8879 C   0  0  0  0  0  0  0  0  0  0  0  0
   58.7397   33.0960   47.7899 O   0  0  0  0  0  0  0  0  0  0  0  0
   61.0492   33.4181   47.9962 N   0  0  0  0  0  0  0  0  0  0  0  0
   62.2734   32.8226   47.3820 C   0  0  0  0  0  0  0  0  0  0  0  0
   63.2533   32.1984   48.3928 C   0  0  0  0  0  0  0  0  0  0  0  0
   63.4690   33.0575   49.5650 N   0  0  0  0  0  0  0  0  0  0  0  0
   64.4548   32.6668   50.5470 C   0  0  0  0  0  0  0  0  0  0  0  0
   65.3345   31.8169   50.2305 O   0  0  0  0  0  0  0  0  0  0  0  0
   62.6576   34.2742   49.6970 C   0  0  0  0  0  0  0  0  0  0  0  0
   61.2075   33.9186   49.3847 C   0  0  0  0  0  0  0  0  0  0  0  0
   60.5535   33.4852   47.1483 H   0  0  0  0  0  0  0  0  0  0  0  0
   64.4760   33.2678   51.9323 C   0  0  0  0  0  0  0  0  0  0  0  0
   63.3587   32.7449   52.7994 C   0  0  0  0  0  0  0  0  0  0  0  0
   62.4594   33.6372   53.4043 C   0  0  0  0  0  0  0  0  0  0  0  0
   61.4055   33.1533   54.1857 C   0  0  0  0  0  0  0  0  0  0  0  0
   61.2399   31.7769   54.3610 C   0  0  0  0  0  0  0  0  0  0  0  0
   62.1247   30.8822   53.7526 C   0  0  0  0  0  0  0  0  0  0  0  0
   63.1789   31.3620   52.9697 C   0  0  0  0  0  0  0  0  0  0  0  0
   60.6123   30.9167   50.3391 C   0  0  0  0  0  0  0  0  0  0  0  0
   59.3441   31.1075   51.1263 C   0  0  0  0  0  0  0  0  0  0  0  0
   58.5419   30.0025   51.4534 C   0  0  0  0  0  0  0  0  0  0  0  0
   57.3425   30.1822   52.1473 C   0  0  0  0  0  0  0  0  0  0  0  0
   56.9331   31.4660   52.5183 C   0  0  0  0  0  0  0  0  0  0  0  0
   57.7269   32.5712   52.2005 C   0  0  0  0  0  0  0  0  0  0  0  0
   58.9285   32.3946   51.5101 C   0  0  0  0  0  0  0  0  0  0  0  0
  1  2  2  0
  2  3  1  0
  3  4  2  0
  4  8  1  0
  8  9  1  0
  9 10  1  0
 10 11  2  0
 10 12  1  0
 12 13  1  0
 13 14  1  0
  3  5  1  0
  5  6  2  0
  6 15  1  0
 15 16  2  0
 15 17  1  0
 17 18  1  0
 18 19  1  0
 19 20  1  0
 20 21  1  0
 21 22  2  0
 21 26  1  0
 26 27  1  0
 27 28  2  0
 28 29  1  0
 29 30  2  0
 30 31  1  0
 31 32  2  0
 20 23  1  0
 23 24  1  0
  6  7  1  0
  7 33  1  0
 33 34  1  0
 34 35  2  0
 35 36  1  0
 36 37  2  0
 37 38  1  0
 38 39  2  0
  7  2  1  0
 39 34  1  0
 13  8  2  0
 24 17  1  0
 32 27  1  0
 17 25  1  0
M  CHG 1   9  -1
M  CHG 1  12  -1
M  CHG 1  14  -1
M  CHG 1  17   1
M  END
> <UniqueID>
70

> <SMILES>
C=c1c(=Cc2[n-]c(=O)[n-]c2[O-])cc(C(=O)[NH+]2CCN(C(=O)Cc3ccccc3)CC2)n1Cc1ccccc1

> <Energy>
150.34429269097012

> <Genealogy>
C=c1c(=Cc2[n-]c(=O)[n-]c2[O-])cc(C(=O)[NH+]2CCN(C(=O)Cc3ccccc3)CC2)n1Cc1ccccc1 (protonated)
C=c1c(=Cc2[n-]c(=O)[n-]c2[O-])cc(C(=O)[NH+]2CCN(C(=O)Cc3ccccc3)CC2)n1Cc1ccccc1 (3D coordinates assigned)
C=c1c(=Cc2[n-]c(=O)[n-]c2[O-])cc(C(=O)[NH+]2CCN(C(=O)Cc3ccccc3)CC2)n1Cc1ccccc1 (nonaromatic ring conformer: 150.34429269097012 kcal/mol)

> <smiles>
C=c1c(=Cc2[nH]c(=O)[nH]c2O)cc(C(=O)N2CCN(C(=O)Cc3ccccc3)CC2)n1Cc1ccccc1

> <score_type>
oracle

> <origin>
adg

> <m_score__min__energy>
-16.219999999999999

> <m_primary>
energy

> <minimizedAffinity>
-7.86696

> <minimizedRMSD>
1.34673

> <CNNscore>
0.1969777942

> <CNNaffinity>
6.7574315071

> <CNN_VS>
1.3310639858

> <CNNaffinity_variance>
0.0869243369

$$$$
83:0


 29 32  0  0  0  0  0  0  0  0999 V2000
   55.0380   27.8603   53.8183 C   0  0  0  0  0  0  0  0  0  0  0  0
   55.5715   29.0545   53.5172 C   0  0  0  0  0  0  0  0  0  0  0  0
   54.8852   30.2131   53.1238 C   0  0  0  0  0  0  0  0  0  0  0  0
   53.5689   30.5008   53.0962 C   0  0  0  0  0  0  0  0  0  0  0  0
   55.8539   31.1281   52.7512 C   0  0  0  0  0  0  0  0  0  0  0  0
   57.0789   30.5371   52.9826 C   0  0  0  0  0  0  0  0  0  0  0  0
   56.9126   29.2745   53.4449 N   0  0  0  0  0  0  0  0  0  0  0  0
   57.9715   28.2995   53.7293 C   0  0  0  0  0  0  0  0  0  0  0  0
   58.3714   31.2387   52.8241 C   0  0  0  0  0  0  0  0  0  0  0  0
   58.9806   31.6433   53.8511 O   0  0  0  0  0  0  0  0  0  0  0  0
   58.8979   31.5425   51.5192 N   0  0  0  0  0  0  0  0  0  0  0  0
   59.6423   32.7945   51.3235 C   0  0  0  0  0  0  0  0  0  0  0  0
   60.2158   32.9072   49.9045 C   0  0  0  0  0  0  0  0  0  0  0  0
   59.2190   32.4991   48.9018 N   0  0  0  0  0  0  0  0  0  0  0  0
   58.3849   31.3086   49.1332 C   0  0  0  0  0  0  0  0  0  0  0  0
   58.7919   30.5798   50.4144 C   0  0  0  0  0  0  0  0  0  0  0  0
   59.1785   33.1476   47.6119 C   0  0  0  0  0  0  0  0  0  0  0  0
   58.5426   32.5293   46.5205 C   0  0  0  0  0  0  0  0  0  0  0  0
   58.5089   33.1560   45.2708 C   0  0  0  0  0  0  0  0  0  0  0  0
   59.1098   34.4047   45.0973 C   0  0  0  0  0  0  0  0  0  0  0  0
   59.7472   35.0278   46.1718 C   0  0  0  0  0  0  0  0  0  0  0  0
   59.7833   34.4061   47.4238 C   0  0  0  0  0  0  0  0  0  0  0  0
   52.7126   30.5015   51.9007 C   0  0  0  0  0  0  0  0  0  0  0  0
   52.8940   29.6753   50.8557 N   0  0  0  0  0  0  0  0  0  0  0  0
   51.9867   30.1095   49.9536 C   0  0  0  0  0  0  0  0  0  0  0  0
   51.8387   29.5666   48.8284 O   0  0  0  0  0  0  0  0  0  0  0  0
   51.2623   31.1789   50.3464 N   0  0  0  0  0  0  0  0  0  0  0  0
   51.7448   31.4248   51.5743 C   0  0  0  0  0  0  0  0  0  0  0  0
   51.3287   32.4866   52.3693 O   0  0  0  0  0  0  0  0  0  0  0  0
  1  2  2  0
  2  3  1  0
  3  4  2  0
  4 23  1  0
 23 24  1  0
 24 25  1  0
 25 26  2  0
 25 27  1  0
 27 28  1  0
 28 29  1  0
  3  5  1  0
  5  6  2  0
  6  9  1  0
  9 10  2  0
  9 11  1  0
 11 12  1  0
 12 13  1  0
 13 14  1  0
 14 17  1  0
 17 18  2  0
 18 19  1  0
 19 20  2  0
 20 21  1  0
 21 22  2  0
 14 15  1  0
 15 16  1  0
  6  7  1  0
  7  8  1  0
  7  2  1  0
 28 23  2  0
 16 11  1  0
 22 17  1  0
M  CHG 1  24  -1
M  CHG 1  27  -1
M  CHG 1  29  -1
M  END
> <UniqueID>
80

> <SMILES>
C=c1/c(=C\c2[n-]c(=O)[n-]c2[O-])cc(C(=O)N2CCN(c3ccccc3)CC2)n1C

> <Energy>
132.05052693042296

> <Genealogy>
C=c1c(=Cc2[n-]c(=O)[n-]c2[O-])cc(C(=O)N2CCN(c3ccccc3)CC2)n1C (protonated)
C=c1/c(=C\c2[n-]c(=O)[n-]c2[O-])cc(C(=O)N2CCN(c3ccccc3)CC2)n1C (cis-trans isomerization)
C=c1/c(=C\c2[n-]c(=O)[n-]c2[O-])cc(C(=O)N2CCN(c3ccccc3)CC2)n1C (3D coordinates assigned)
C=c1/c(=C\c2[n-]c(=O)[n-]c2[O-])cc(C(=O)N2CCN(c3ccccc3)CC2)n1C (nonaromatic ring conformer: 132.05052693042296 kcal/mol)

> <smiles>
C=c1c(=Cc2[nH]c(=O)[nH]c2O)cc(C(=O)N2CCN(c3ccccc3)CC2)n1C

> <score_type>
oracle

> <origin>
adg

> <m_score__min__energy>
-17.859999999999999

> <m_primary>
energy

> <minimizedAffinity>
-6.94822

> <minimizedRMSD>
0.91014

> <CNNscore>
0.1585805863

> <CNNaffinity>
5.3769173622

> <CNN_VS>
0.8526747227

> <CNNaffinity_variance>
0.2368902415

$$$$
84:0


 28 30  0  0  0  0  0  0  0  0999 V2000
   58.7918   32.0737   46.6263 N   0  0  0  0  0  0  0  0  0  0  0  0
   58.4760   32.5302   45.3896 C   0  0  0  0  0  0  0  0  0  0  0  0
   58.1048   33.9450   45.0602 C   0  0  0  0  0  0  0  0  0  0  0  0
   58.4586   31.4961   44.4780 C   0  0  0  0  0  0  0  0  0  0  0  0
   58.7903   30.3441   45.1752 C   0  0  0  0  0  0  0  0  0  0  0  0
   58.8566   29.0998   44.6621 C   0  0  0  0  0  0  0  0  0  0  0  0
   58.9838   30.7308   46.5068 C   0  0  0  0  0  0  0  0  0  0  0  0
   59.3090   29.9114   47.5208 C   0  0  0  0  0  0  0  0  0  0  0  0
   58.4661   27.8850   45.4133 C   0  0  0  0  0  0  0  0  0  0  0  0
   57.1088   27.5923   45.6147 C   0  0  0  0  0  0  0  0  0  0  0  0
   56.1203   28.4127   45.0846 O   0  0  0  0  0  0  0  0  0  0  0  0
   56.7501   26.4908   46.3256 N   0  0  0  0  0  0  0  0  0  0  0  0
   57.6862   25.6673   46.8615 C   0  0  0  0  0  0  0  0  0  0  0  0
   57.3301   24.6493   47.5103 O   0  0  0  0  0  0  0  0  0  0  0  0
   59.0052   25.9424   46.7031 N   0  0  0  0  0  0  0  0  0  0  0  0
   59.4168   27.0327   46.0049 C   0  0  0  0  0  0  0  0  0  0  0  0
   60.6494   27.2759   45.9086 O   0  0  0  0  0  0  0  0  0  0  0  0
   58.8407   32.8938   47.8486 C   0  0  0  0  0  0  0  0  0  0  0  0
   63.6986   33.1910   46.9422 O   0  0  0  0  0  0  0  0  0  0  0  0
   62.6458   33.2019   47.8548 C   0  0  0  0  0  0  0  0  0  0  0  0
   61.3259   33.0386   47.4127 C   0  0  0  0  0  0  0  0  0  0  0  0
   60.2604   33.0517   48.3273 C   0  0  0  0  0  0  0  0  0  0  0  0
   60.5322   33.2263   49.6926 C   0  0  0  0  0  0  0  0  0  0  0  0
   61.8468   33.3880   50.1370 C   0  0  0  0  0  0  0  0  0  0  0  0
   62.9153   33.3785   49.2202 C   0  0  0  0  0  0  0  0  0  0  0  0
   63.5256   33.0735   46.0289 H   0  0  0  0  0  0  0  0  0  0  0  0
   64.2493   33.5387   49.6230 O   0  0  0  0  0  0  0  0  0  0  0  0
   65.0292   32.5243   50.2499 C   0  0  0  0  0  0  0  0  0  0  0  0
 19 20  1  0
 20 21  2  0
 21 22  1  0
 22 18  1  0
 18  1  1  0
  1  2  1  0
  2  3  1  0
  2  4  2  0
  4  5  1  0
  5  6  2  0
  6  9  1  0
  9 10  2  0
 10 11  1  0
 10 12  1  0
 12 13  1  0
 13 14  2  0
 13 15  1  0
 15 16  1  0
 16 17  2  0
  5  7  1  0
  7  8  2  0
 22 23  2  0
 23 24  1  0
 24 25  2  0
 25 27  1  0
 27 28  1  0
 25 20  1  0
  7  1  1  0
 16  9  1  0
 19 26  1  0
M  CHG 1  11  -1
M  CHG 1  12  -1
M  CHG 1  15  -1
M  END
> <UniqueID>
81

> <SMILES>
C=c1/c(=C/c2c([O-])[n-]c(=O)[n-]c2=O)cc(C)n1Cc1ccc(OC)c(O)c1

> <Energy>
83.03335304564565

> <Genealogy>
C=c1c(=Cc2c([O-])[n-]c(=O)[n-]c2=O)cc(C)n1Cc1ccc(OC)c(O)c1 (protonated)
C=c1/c(=C/c2c([O-])[n-]c(=O)[n-]c2=O)cc(C)n1Cc1ccc(OC)c(O)c1 (cis-trans isomerization)
C=c1/c(=C/c2c([O-])[n-]c(=O)[n-]c2=O)cc(C)n1Cc1ccc(OC)c(O)c1 (3D coordinates assigned)
C=c1/c(=C/c2c([O-])[n-]c(=O)[n-]c2=O)cc(C)n1Cc1ccc(OC)c(O)c1 (optimized conformer: 83.03335304564565 kcal/mol)

> <smiles>
C=c1c(=Cc2c(O)[nH]c(=O)[nH]c2=O)cc(C)n1Cc1ccc(OC)c(O)c1

> <score_type>
oracle

> <origin>
adg

> <m_score__min__energy>
-15.369999999999999

> <m_primary>
energy

> <minimizedAffinity>
-7.66093

> <minimizedRMSD>
1.02163

> <CNNscore>
0.2506219745

> <CNNaffinity>
6.3852310181

> <CNN_VS>
1.6002792120

> <CNNaffinity_variance>
0.0545662977

$$$$
0:0


 29 31  0  0  0  0  0  0  0  0999 V2000
   55.2004   28.5305   54.4624 C   0  0  0  0  0  0  0  0  0  0  0  0
   55.5212   29.4008   53.4915 C   0  0  0  0  0  0  0  0  0  0  0  0
   54.6215   30.0941   52.6744 C   0  0  0  0  0  0  0  0  0  0  0  0
   53.2747   30.0378   52.7069 C   0  0  0  0  0  0  0  0  0  0  0  0
   55.3881   30.9070   51.8532 C   0  0  0  0  0  0  0  0  0  0  0  0
   56.7079   30.6659   52.1749 C   0  0  0  0  0  0  0  0  0  0  0  0
   57.8642   31.4107   51.5839 C   0  0  0  0  0  0  0  0  0  0  0  0
   56.7967   29.7471   53.1673 N   0  0  0  0  0  0  0  0  0  0  0  0
   52.4091   30.3837   51.5641 C   0  0  0  0  0  0  0  0  0  0  0  0
   52.3668   29.6654   50.4275 N   0  0  0  0  0  0  0  0  0  0  0  0
   51.5228   30.3704   49.6442 C   0  0  0  0  0  0  0  0  0  0  0  0
   51.2093   30.0006   48.4823 O   0  0  0  0  0  0  0  0  0  0  0  0
   51.0469   31.5038   50.1989 N   0  0  0  0  0  0  0  0  0  0  0  0
   51.6268   31.5065   51.4101 C   0  0  0  0  0  0  0  0  0  0  0  0
   51.4815   32.5390   52.3267 O   0  0  0  0  0  0  0  0  0  0  0  0
   58.0425   29.1825   53.7121 C   0  0  0  0  0  0  0  0  0  0  0  0
   58.9394   30.2720   54.3165 C   0  0  0  0  0  0  0  0  0  0  0  0
   60.2950   30.3154   53.6709 C   0  0  0  0  0  0  0  0  0  0  0  0
   61.1382   31.1638   54.0661 O   0  0  0  0  0  0  0  0  0  0  0  0
   60.6337   29.3896   52.6287 N   0  0  0  0  0  0  0  0  0  0  0  0
   59.9736   28.7080   52.3662 H   0  0  0  0  0  0  0  0  0  0  0  0
   61.9239   29.4220   51.9429 C   0  0  0  0  0  0  0  0  0  0  0  0
   61.7994   30.1431   50.6260 C   0  0  0  0  0  0  0  0  0  0  0  0
   62.5912   31.2741   50.3620 C   0  0  0  0  0  0  0  0  0  0  0  0
   62.5026   31.9230   49.1278 C   0  0  0  0  0  0  0  0  0  0  0  0
   61.6256   31.4513   48.1475 C   0  0  0  0  0  0  0  0  0  0  0  0
   60.8399   30.3243   48.3993 C   0  0  0  0  0  0  0  0  0  0  0  0
   60.9253   29.6677   49.6305 C   0  0  0  0  0  0  0  0  0  0  0  0
   60.1666   28.5631   49.8467 F   0  0  0  0  0  0  0  0  0  0  0  0
  1  2  2  0
  2  3  1  0
  3  4  2  0
  4  9  1  0
  9 10  1  0
 10 11  1  0
 11 12  2  0
 11 13  1  0
 13 14  1  0
 14 15  1  0
  3  5  1  0
  5  6  2  0
  6  7  1  0
  6  8  1  0
  8 16  1  0
 16 17  1  0
 17 18  1  0
 18 19  2  0
 18 20  1  0
 20 22  1  0
 22 23  1  0
 23 24  2  0
 24 25  1  0
 25 26  2  0
 26 27  1  0
 27 28  2  0
 28 29  1  0
  8  2  1  0
 28 23  1  0
 14  9  2  0
 20 21  1  0
M  CHG 1  10  -1
M  CHG 1  13  -1
M  CHG 1  15  -1
M  END
> <UniqueID>
1

> <SMILES>
C=c1/c(=C/c2[n-]c(=O)[n-]c2[O-])cc(C)n1CCC(=O)NCc1ccccc1F

> <Energy>
103.74664887307972

> <Genealogy>
C=c1c(=Cc2[n-]c(=O)[n-]c2[O-])cc(C)n1CCC(=O)NCc1ccccc1F (protonated)
C=c1/c(=C/c2[n-]c(=O)[n-]c2[O-])cc(C)n1CCC(=O)NCc1ccccc1F (cis-trans isomerization)
C=c1/c(=C/c2[n-]c(=O)[n-]c2[O-])cc(C)n1CCC(=O)NCc1ccccc1F (3D coordinates assigned)
C=c1/c(=C/c2[n-]c(=O)[n-]c2[O-])cc(C)n1CCC(=O)NCc1ccccc1F (optimized conformer: 103.74664887307972 kcal/mol)

> <smiles>
C=c1c(=Cc2[nH]c(=O)[nH]c2O)cc(C)n1CCC(=O)NCc1ccccc1F

> <score_type>
oracle

> <origin>
adg

> <m_score__min__energy>
-15.970000000000001

> <m_primary>
energy

> <minimizedAffinity>
-4.82374

> <minimizedRMSD>
1.03496

> <CNNscore>
0.0971985087

> <CNNaffinity>
4.7688059807

> <CNN_VS>
0.4635208249

> <CNNaffinity_variance>
0.5748922825

$$$$
6:0


 35 38  0  0  0  0  0  0  0  0999 V2000
   59.5679   29.0678   47.1523 C   0  0  0  0  0  0  0  0  0  0  0  0
   59.0194   29.5461   48.3495 C   0  0  0  0  0  0  0  0  0  0  0  0
   59.3929   30.7969   48.8462 C   0  0  0  0  0  0  0  0  0  0  0  0
   60.3186   31.5946   48.1493 C   0  0  0  0  0  0  0  0  0  0  0  0
   60.8761   31.1026   46.9543 C   0  0  0  0  0  0  0  0  0  0  0  0
   60.5002   29.8497   46.4614 C   0  0  0  0  0  0  0  0  0  0  0  0
   57.5735   28.4329   45.0320 C   0  0  0  0  0  0  0  0  0  0  0  0
   58.2701   27.4965   45.6945 C   0  0  0  0  0  0  0  0  0  0  0  0
   58.1943   26.1133   45.5030 C   0  0  0  0  0  0  0  0  0  0  0  0
   57.4210   25.4490   44.6208 C   0  0  0  0  0  0  0  0  0  0  0  0
   59.1179   25.5456   46.3716 C   0  0  0  0  0  0  0  0  0  0  0  0
   59.6997   26.5889   47.0638 C   0  0  0  0  0  0  0  0  0  0  0  0
   60.7736   26.4273   48.0963 C   0  0  0  0  0  0  0  0  0  0  0  0
   59.1934   27.7720   46.6503 N   0  0  0  0  0  0  0  0  0  0  0  0
   56.4617   24.3919   45.0107 C   0  0  0  0  0  0  0  0  0  0  0  0
   55.3170   24.7202   45.7522 C   0  0  0  0  0  0  0  0  0  0  0  0
   55.0529   26.0412   46.0982 O   0  0  0  0  0  0  0  0  0  0  0  0
   54.4501   23.7459   46.1298 N   0  0  0  0  0  0  0  0  0  0  0  0
   54.6756   22.4460   45.8140 C   0  0  0  0  0  0  0  0  0  0  0  0
   53.8549   21.5613   46.1697 O   0  0  0  0  0  0  0  0  0  0  0  0
   55.7893   22.0974   45.1212 N   0  0  0  0  0  0  0  0  0  0  0  0
   56.6890   23.0325   44.7219 C   0  0  0  0  0  0  0  0  0  0  0  0
   57.7286   22.6686   44.1113 O   0  0  0  0  0  0  0  0  0  0  0  0
   60.7171   32.9161   48.6902 C   0  0  0  0  0  0  0  0  0  0  0  0
   59.8419   33.8094   48.8569 O   0  0  0  0  0  0  0  0  0  0  0  0
   62.0872   33.1959   49.0173 N   0  0  0  0  0  0  0  0  0  0  0  0
   62.7829   32.5555   48.7433 H   0  0  0  0  0  0  0  0  0  0  0  0
   62.4822   34.4021   49.7448 C   0  0  0  0  0  0  0  0  0  0  0  0
   63.3487   34.0587   50.9681 C   0  0  0  0  0  0  0  0  0  0  0  0
   64.0291   32.7485   50.8137 N   0  0  0  0  0  0  0  0  0  0  0  0
   64.0494   31.9746   52.0784 C   0  0  0  0  0  0  0  0  0  0  0  0
   65.3176   32.2354   52.9175 C   0  0  0  0  0  0  0  0  0  0  0  0
   65.8770   33.4931   52.6052 O   0  0  0  0  0  0  0  0  0  0  0  0
   66.3803   33.4876   51.2804 C   0  0  0  0  0  0  0  0  0  0  0  0
   65.3971   32.8596   50.2628 C   0  0  0  0  0  0  0  0  0  0  0  0
  7  8  2  0
  8  9  1  0
  9 10  2  0
 10 15  1  0
 15 16  2  0
 16 17  1  0
 16 18  1  0
 18 19  1  0
 19 20  2  0
 19 21  1  0
 21 22  1  0
 22 23  2  0
  9 11  1  0
 11 12  2  0
 12 13  1  0
 12 14  1  0
 14  1  1  0
  1  2  2  0
  2  3  1  0
  3  4  2  0
  4 24  1  0
 24 25  2  0
 24 26  1  0
 26 28  1  0
 28 29  1  0
 29 30  1  0
 30 31  1  0
 31 32  1  0
 32 33  1  0
 33 34  1  0
 34 35  1  0
  4  5  1  0
  5  6  2  0
 14  8  1  0
  6  1  1  0
 22 15  1  0
 35 30  1  0
 26 27  1  0
M  CHG 1  17  -1
M  CHG 1  18  -1
M  CHG 1  21  -1
M  END
> <UniqueID>
6

> <SMILES>
C=c1/c(=C/c2c([O-])[n-]c(=O)[n-]c2=O)cc(C)n1-c1ccc(C(=O)NCCN2CCOCC2)cc1

> <Energy>
119.73929422844519

> <Genealogy>
C=c1c(=Cc2c([O-])[n-]c(=O)[n-]c2=O)cc(C)n1-c1ccc(C(=O)NCCN2CCOCC2)cc1 (protonated)
C=c1/c(=C/c2c([O-])[n-]c(=O)[n-]c2=O)cc(C)n1-c1ccc(C(=O)NCCN2CCOCC2)cc1 (cis-trans isomerization)
C=c1/c(=C/c2c([O-])[n-]c(=O)[n-]c2=O)cc(C)n1-c1ccc(C(=O)NCCN2CCOCC2)cc1 (3D coordinates assigned)
C=c1/c(=C/c2c([O-])[n-]c(=O)[n-]c2=O)cc(C)n1-c1ccc(C(=O)NCCN2CCOCC2)cc1 (nonaromatic ring conformer: 119.73929422844519 kcal/mol)

> <smiles>
C=c1c(=Cc2c(O)[nH]c(=O)[nH]c2=O)cc(C)n1-c1ccc(C(=O)NCCN2CCOCC2)cc1

> <score_type>
oracle

> <origin>
adg

> <m_score__min__energy>
-15.76

> <m_primary>
energy

> <minimizedAffinity>
-7.43072

> <minimizedRMSD>
0.72155

> <CNNscore>
0.0770484954

> <CNNaffinity>
6.2935118675

> <CNN_VS>
0.4849056304

> <CNNaffinity_variance>
0.0441956557

$$$$
13:0


 30 32  0  0  0  0  0  0  0  0999 V2000
   57.1051   24.3787   44.4226 C   0  0  0  0  0  0  0  0  0  0  0  0
   57.8213   25.3879   44.9584 C   0  0  0  0  0  0  0  0  0  0  0  0
   58.3118   25.5332   46.2610 C   0  0  0  0  0  0  0  0  0  0  0  0
   58.1633   24.5993   47.4221 C   0  0  0  0  0  0  0  0  0  0  0  0
   58.9757   26.7010   46.3669 N   0  0  0  0  0  0  0  0  0  0  0  0
   58.9240   27.3147   45.1964 N   0  0  0  0  0  0  0  0  0  0  0  0
   58.2365   26.5539   44.3106 C   0  0  0  0  0  0  0  0  0  0  0  0
   58.0230   26.8897   43.0292 C   0  0  0  0  0  0  0  0  0  0  0  0
   55.1076   25.9516   45.7379 O   0  0  0  0  0  0  0  0  0  0  0  0
   54.9706   24.5663   45.7123 C   0  0  0  0  0  0  0  0  0  0  0  0
   53.9054   23.9816   46.3214 N   0  0  0  0  0  0  0  0  0  0  0  0
   53.7518   22.6329   46.3216 C   0  0  0  0  0  0  0  0  0  0  0  0
   52.7572   22.1143   46.8905 O   0  0  0  0  0  0  0  0  0  0  0  0
   54.6733   21.8418   45.7134 N   0  0  0  0  0  0  0  0  0  0  0  0
   55.7542   22.3785   45.0908 C   0  0  0  0  0  0  0  0  0  0  0  0
   56.5944   21.6164   44.5403 O   0  0  0  0  0  0  0  0  0  0  0  0
   55.9230   23.7709   45.0592 C   0  0  0  0  0  0  0  0  0  0  0  0
   54.4678   26.4777   46.1759 H   0  0  0  0  0  0  0  0  0  0  0  0
   59.5726   28.6065   44.9553 C   0  0  0  0  0  0  0  0  0  0  0  0
   59.2081   29.5897   46.0377 C   0  0  0  0  0  0  0  0  0  0  0  0
   60.0752   29.9093   46.8932 O   0  0  0  0  0  0  0  0  0  0  0  0
   57.8870   30.1305   46.1609 N   0  0  0  0  0  0  0  0  0  0  0  0
   57.3149   31.1386   45.2787 C   0  0  0  0  0  0  0  0  0  0  0  0
   57.9867   32.4573   45.5309 C   0  0  0  0  0  0  0  0  0  0  0  0
   58.4204   33.2483   44.4543 C   0  0  0  0  0  0  0  0  0  0  0  0
   59.0765   34.4604   44.6901 C   0  0  0  0  0  0  0  0  0  0  0  0
   59.3156   34.8853   46.0001 C   0  0  0  0  0  0  0  0  0  0  0  0
   59.9531   36.0601   46.2267 F   0  0  0  0  0  0  0  0  0  0  0  0
   58.9014   34.0945   47.0777 C   0  0  0  0  0  0  0  0  0  0  0  0
   58.2440   32.8822   46.8444 C   0  0  0  0  0  0  0  0  0  0  0  0
  9 10  1  0
 10 11  1  0
 11 12  1  0
 12 13  2  0
 12 14  1  0
 14 15  1  0
 15 16  2  0
 15 17  1  0
 17  1  1  0
  1  2  2  0
  2  3  1  0
  3  4  1  0
  3  5  2  0
  5  6  1  0
  6 19  1  0
 19 20  1  0
 20 21  2  0
 20 22  1  0
 22 23  1  0
 23 24  1  0
 24 25  2  0
 25 26  1  0
 26 27  2  0
 27 28  1  0
 27 29  1  0
 29 30  2  0
  6  7  1  0
  7  8  2  0
 17 10  2  0
  7  2  1  0
 30 24  1  0
  9 18  1  0
M  CHG 1  11  -1
M  CHG 1  14  -1
M  CHG 1  22  -1
M  END
> <UniqueID>
12

> <SMILES>
C=c1/c(=C/c2c(O)[n-]c(=O)[n-]c2=O)c(C)nn1CC(=O)[N-]Cc1ccc(F)cc1

> <Energy>
87.54579449553862

> <Genealogy>
C=c1c(=Cc2c(O)[n-]c(=O)[n-]c2=O)c(C)nn1CC(=O)[N-]Cc1ccc(F)cc1 (protonated)
C=c1/c(=C/c2c(O)[n-]c(=O)[n-]c2=O)c(C)nn1CC(=O)[N-]Cc1ccc(F)cc1 (cis-trans isomerization)
C=c1/c(=C/c2c(O)[n-]c(=O)[n-]c2=O)c(C)nn1CC(=O)[N-]Cc1ccc(F)cc1 (3D coordinates assigned)
C=c1/c(=C/c2c(O)[n-]c(=O)[n-]c2=O)c(C)nn1CC(=O)[N-]Cc1ccc(F)cc1 (optimized conformer: 87.54579449553862 kcal/mol)

> <smiles>
C=c1c(=Cc2c(O)[nH]c(=O)[nH]c2=O)c(C)nn1CC(=O)NCc1ccc(F)cc1

> <score_type>
oracle

> <origin>
adg

> <m_score__min__energy>
-14.289999999999999

> <m_primary>
energy

> <minimizedAffinity>
-7.38592

> <minimizedRMSD>
0.69312

> <CNNscore>
0.1747334599

> <CNNaffinity>
6.0431113243

> <CNN_VS>
1.0559337139

> <CNNaffinity_variance>
0.0801846534

$$$$
30:0


 26 28  0  0  0  0  0  0  0  0999 V2000
   58.5274   29.9267   44.6534 C   0  0  0  0  0  0  0  0  0  0  0  0
   58.5689   29.3493   45.8641 C   0  0  0  0  0  0  0  0  0  0  0  0
   58.2650   28.0137   46.1815 C   0  0  0  0  0  0  0  0  0  0  0  0
   57.7111   27.0312   45.4434 C   0  0  0  0  0  0  0  0  0  0  0  0
   58.6424   27.8343   47.5030 C   0  0  0  0  0  0  0  0  0  0  0  0
   59.0992   29.0525   47.9587 C   0  0  0  0  0  0  0  0  0  0  0  0
   59.5960   29.3072   49.3499 C   0  0  0  0  0  0  0  0  0  0  0  0
   59.0574   29.9707   46.9689 N   0  0  0  0  0  0  0  0  0  0  0  0
   57.3889   25.6723   45.9234 C   0  0  0  0  0  0  0  0  0  0  0  0
   56.0612   25.3176   46.2023 C   0  0  0  0  0  0  0  0  0  0  0  0
   55.0388   26.2528   46.0815 O   0  0  0  0  0  0  0  0  0  0  0  0
   55.7681   24.0545   46.6038 N   0  0  0  0  0  0  0  0  0  0  0  0
   56.7395   23.1136   46.7262 C   0  0  0  0  0  0  0  0  0  0  0  0
   56.4439   21.9511   47.1047 O   0  0  0  0  0  0  0  0  0  0  0  0
   58.0285   23.4248   46.4356 N   0  0  0  0  0  0  0  0  0  0  0  0
   58.3734   24.6747   46.0302 C   0  0  0  0  0  0  0  0  0  0  0  0
   59.5762   24.9215   45.7468 O   0  0  0  0  0  0  0  0  0  0  0  0
   59.4726   31.3444   47.0798 C   0  0  0  0  0  0  0  0  0  0  0  0
   58.5255   32.3765   47.0227 C   0  0  0  0  0  0  0  0  0  0  0  0
   58.9295   33.7080   47.1247 C   0  0  0  0  0  0  0  0  0  0  0  0
   60.2823   34.0205   47.2835 C   0  0  0  0  0  0  0  0  0  0  0  0
   61.2475   32.9993   47.3424 C   0  0  0  0  0  0  0  0  0  0  0  0
   60.8312   31.6592   47.2373 C   0  0  0  0  0  0  0  0  0  0  0  0
   62.6813   33.3231   47.5103 C   0  0  0  0  0  0  0  0  0  0  0  0
   63.2289   33.2351   48.6416 O   0  0  0  0  0  0  0  0  0  0  0  0
   63.4448   33.7296   46.4218 O   0  0  0  0  0  0  0  0  0  0  0  0
  1  2  2  0
  2  3  1  0
  3  4  2  0
  4  9  1  0
  9 10  2  0
 10 11  1  0
 10 12  1  0
 12 13  1  0
 13 14  2  0
 13 15  1  0
 15 16  1  0
 16 17  2  0
  3  5  1  0
  5  6  2  0
  6  7  1  0
  6  8  1  0
  8 18  1  0
 18 19  2  0
 19 20  1  0
 20 21  2  0
 21 22  1  0
 22 24  1  0
 24 25  2  0
 24 26  1  0
 22 23  2  0
  8  2  1  0
 23 18  1  0
 16  9  1  0
M  CHG 1  11  -1
M  CHG 1  12  -1
M  CHG 1  15  -1
M  CHG 1  26  -1
M  END
> <UniqueID>
29

> <SMILES>
C=c1/c(=C\c2c([O-])[n-]c(=O)[n-]c2=O)cc(C)n1-c1cccc(C(=O)[O-])c1

> <Energy>
89.39782844604056

> <Genealogy>
C=c1c(=Cc2c([O-])[n-]c(=O)[n-]c2=O)cc(C)n1-c1cccc(C(=O)[O-])c1 (protonated)
C=c1/c(=C\c2c([O-])[n-]c(=O)[n-]c2=O)cc(C)n1-c1cccc(C(=O)[O-])c1 (cis-trans isomerization)
C=c1/c(=C\c2c([O-])[n-]c(=O)[n-]c2=O)cc(C)n1-c1cccc(C(=O)[O-])c1 (3D coordinates assigned)
C=c1/c(=C\c2c([O-])[n-]c(=O)[n-]c2=O)cc(C)n1-c1cccc(C(=O)[O-])c1 (optimized conformer: 89.39782844604056 kcal/mol)

> <smiles>
C=c1c(=Cc2c(O)[nH]c(=O)[nH]c2=O)cc(C)n1-c1cccc(C(=O)O)c1

> <score_type>
oracle

> <origin>
adg

> <m_score__min__energy>
-16.260000000000002

> <m_primary>
energy

> <minimizedAffinity>
-8.56996

> <minimizedRMSD>
0.72457

> <CNNscore>
0.3687915504

> <CNNaffinity>
6.5423645973

> <CNN_VS>
2.4127688408

> <CNNaffinity_variance>
0.3347608745

$$$$
33:0


 42 46  0  0  0  0  0  0  0  0999 V2000
   58.2802   30.4880   44.9029 N   0  0  0  0  0  0  0  0  0  0  0  0
   58.3294   31.6262   45.5327 C   0  0  0  0  0  0  0  0  0  0  0  0
   58.5333   31.6306   46.8766 N   0  0  0  0  0  0  0  0  0  0  0  0
   58.5992   32.7880   47.5926 C   0  0  0  0  0  0  0  0  0  0  0  0
   58.4859   34.0112   46.9092 C   0  0  0  0  0  0  0  0  0  0  0  0
   58.2844   33.9923   45.5295 C   0  0  0  0  0  0  0  0  0  0  0  0
   58.1733   35.0704   44.8896 O   0  0  0  0  0  0  0  0  0  0  0  0
   58.2084   32.8086   44.8730 N   0  0  0  0  0  0  0  0  0  0  0  0
   58.7703   32.7190   49.0694 C   0  0  0  0  0  0  0  0  0  0  0  0
   58.1396   31.7200   49.8365 C   0  0  0  0  0  0  0  0  0  0  0  0
   58.3539   31.6405   51.2149 C   0  0  0  0  0  0  0  0  0  0  0  0
   59.2171   32.5405   51.8541 C   0  0  0  0  0  0  0  0  0  0  0  0
   59.8393   33.5448   51.0971 C   0  0  0  0  0  0  0  0  0  0  0  0
   59.6206   33.6318   49.7193 C   0  0  0  0  0  0  0  0  0  0  0  0
   59.4758   32.4255   53.3043 C   0  0  0  0  0  0  0  0  0  0  0  0
   58.5852   32.7964   54.1180 O   0  0  0  0  0  0  0  0  0  0  0  0
   60.7219   31.9073   53.8050 N   0  0  0  0  0  0  0  0  0  0  0  0
   61.2743   32.4387   55.0541 C   0  0  0  0  0  0  0  0  0  0  0  0
   62.6093   31.7586   55.3967 C   0  0  0  0  0  0  0  0  0  0  0  0
   63.4783   31.5998   54.2071 N   0  0  0  0  0  0  0  0  0  0  0  0
   62.8304   30.8649   53.0826 C   0  0  0  0  0  0  0  0  0  0  0  0
   61.3115   30.6936   53.2317 C   0  0  0  0  0  0  0  0  0  0  0  0
   64.0889   32.8716   53.7605 C   0  0  0  0  0  0  0  0  0  0  0  0
   64.1576   32.9444   52.2570 C   0  0  0  0  0  0  0  0  0  0  0  0
   65.1521   32.2321   51.5643 C   0  0  0  0  0  0  0  0  0  0  0  0
   65.2188   32.2934   50.1695 C   0  0  0  0  0  0  0  0  0  0  0  0
   64.2949   33.0614   49.4572 C   0  0  0  0  0  0  0  0  0  0  0  0
   63.3076   33.7791   50.1388 C   0  0  0  0  0  0  0  0  0  0  0  0
   63.2371   33.7218   51.5336 C   0  0  0  0  0  0  0  0  0  0  0  0
   56.0472   29.9112   44.6312 O   0  0  0  0  0  0  0  0  0  0  0  0
   57.2116   29.5262   44.9209 C   0  0  0  0  0  0  0  0  0  0  0  0
   57.4408   28.0713   45.2140 C   0  0  0  0  0  0  0  0  0  0  0  0
   57.9564   27.9226   46.5715 N   0  0  0  0  0  0  0  0  0  0  0  0
   59.6854   27.7504   46.5232 S   0  0  0  0  0  0  0  0  0  0  0  0
   60.0506   26.3196   46.8128 O   0  0  0  0  0  0  0  0  0  0  0  0
   60.2047   28.1284   45.1625 O   0  0  0  0  0  0  0  0  0  0  0  0
   60.4039   28.8149   47.7253 C   0  0  0  0  0  0  0  0  0  0  0  0
   61.0352   29.9980   47.3144 C   0  0  0  0  0  0  0  0  0  0  0  0
   61.6258   30.8445   48.2608 C   0  0  0  0  0  0  0  0  0  0  0  0
   61.5851   30.5117   49.6198 C   0  0  0  0  0  0  0  0  0  0  0  0
   60.9598   29.3302   50.0324 C   0  0  0  0  0  0  0  0  0  0  0  0
   60.3718   28.4823   49.0874 C   0  0  0  0  0  0  0  0  0  0  0  0
 30 31  2  0
 31 32  1  0
 32 33  1  0
 33 34  1  0
 34 35  2  0
 34 36  2  0
 34 37  1  0
 37 38  2  0
 38 39  1  0
 39 40  2  0
 40 41  1  0
 41 42  2  0
 31  1  1  0
  1  2  2  0
  2  3  1  0
  3  4  1  0
  4  9  1  0
  9 10  2  0
 10 11  1  0
 11 12  2  0
 12 15  1  0
 15 16  2  0
 15 17  1  0
 17 18  1  0
 18 19  1  0
 19 20  1  0
 20 23  1  0
 23 24  1  0
 24 25  2  0
 25 26  1  0
 26 27  2  0
 27 28  1  0
 28 29  2  0
 20 21  1  0
 21 22  1  0
 12 13  1  0
 13 14  2  0
  4  5  2  0
  5  6  1  0
  6  7  2  0
  6  8  1  0
 42 37  1  0
  8  2  1  0
 14  9  1  0
 22 17  1  0
 29 24  1  0
M  CHG 1   3  -1
M  CHG 1   8  -1
M  CHG 1  33  -1
M  END
> <UniqueID>
31

> <SMILES>
O=C(C[N-]S(=O)(=O)c1ccccc1)N=c1[n-]c(-c2ccc(C(=O)N3CCN(Cc4ccccc4)CC3)cc2)cc(=O)[n-]1

> <Energy>
94.86002911738383

> <Genealogy>
O=C(C[N-]S(=O)(=O)c1ccccc1)N=c1[n-]c(-c2ccc(C(=O)N3CCN(Cc4ccccc4)CC3)cc2)cc(=O)[n-]1 (protonated)
O=C(C[N-]S(=O)(=O)c1ccccc1)N=c1[n-]c(-c2ccc(C(=O)N3CCN(Cc4ccccc4)CC3)cc2)cc(=O)[n-]1 (3D coordinates assigned)
O=C(C[N-]S(=O)(=O)c1ccccc1)N=c1[n-]c(-c2ccc(C(=O)N3CCN(Cc4ccccc4)CC3)cc2)cc(=O)[n-]1 (nonaromatic ring conformer: 94.86002911738383 kcal/mol)

> <smiles>
O=C(CNS(=O)(=O)c1ccccc1)N=c1[nH]c(-c2ccc(C(=O)N3CCN(Cc4ccccc4)CC3)cc2)cc(=O)[nH]1

> <score_type>
oracle

> <origin>
adg

> <m_score__min__energy>
-15.75

> <m_primary>
energy

> <minimizedAffinity>
-7.22155

> <minimizedRMSD>
1.36283

> <CNNscore>
0.5923059583

> <CNNaffinity>
7.2885041237

> <CNN_VS>
4.3170242310

> <CNNaffinity_variance>
0.0926794186

$$$$
35:0


 32 35  0  0  0  0  0  0  0  0999 V2000
   60.1045   29.6519   51.5897 C   0  0  0  0  0  0  0  0  0  0  0  0
   60.9549   29.6647   52.7120 C   0  0  0  0  0  0  0  0  0  0  0  0
   60.4253   29.6015   54.0033 C   0  0  0  0  0  0  0  0  0  0  0  0
   59.0463   29.5163   54.1947 C   0  0  0  0  0  0  0  0  0  0  0  0
   58.1847   29.4936   53.0908 C   0  0  0  0  0  0  0  0  0  0  0  0
   58.7164   29.5508   51.7956 C   0  0  0  0  0  0  0  0  0  0  0  0
   56.7637   29.3862   53.2823 N   0  0  0  0  0  0  0  0  0  0  0  0
   56.1415   28.3815   53.9385 C   0  0  0  0  0  0  0  0  0  0  0  0
   56.8267   27.1801   54.5124 C   0  0  0  0  0  0  0  0  0  0  0  0
   54.7831   28.6168   53.9944 C   0  0  0  0  0  0  0  0  0  0  0  0
   54.5510   29.8060   53.3217 C   0  0  0  0  0  0  0  0  0  0  0  0
   53.3139   30.2979   53.1224 C   0  0  0  0  0  0  0  0  0  0  0  0
   55.8111   30.2861   52.9270 C   0  0  0  0  0  0  0  0  0  0  0  0
   56.0938   31.4802   52.3860 C   0  0  0  0  0  0  0  0  0  0  0  0
   52.6739   30.5045   51.8135 C   0  0  0  0  0  0  0  0  0  0  0  0
   52.7781   29.6609   50.7692 N   0  0  0  0  0  0  0  0  0  0  0  0
   51.9205   30.1804   49.8641 C   0  0  0  0  0  0  0  0  0  0  0  0
   51.7459   29.6715   48.7266 O   0  0  0  0  0  0  0  0  0  0  0  0
   51.2571   31.2819   50.2774 N   0  0  0  0  0  0  0  0  0  0  0  0
   51.7361   31.4625   51.5181 C   0  0  0  0  0  0  0  0  0  0  0  0
   51.3188   32.4796   52.3671 O   0  0  0  0  0  0  0  0  0  0  0  0
   60.6240   29.6963   50.1916 C   0  0  0  0  0  0  0  0  0  0  0  0
   60.5097   28.6515   49.4906 O   0  0  0  0  0  0  0  0  0  0  0  0
   63.5070   33.7142   47.5606 O   0  0  0  0  0  0  0  0  0  0  0  0
   62.5866   32.9022   48.2453 C   0  0  0  0  0  0  0  0  0  0  0  0
   62.1925   31.6820   47.3973 C   0  0  0  0  0  0  0  0  0  0  0  0
   61.1146   30.8397   48.1122 C   0  0  0  0  0  0  0  0  0  0  0  0
   61.2384   30.8682   49.5940 N   0  0  0  0  0  0  0  0  0  0  0  0
   62.6220   31.0966   50.0696 C   0  0  0  0  0  0  0  0  0  0  0  0
   63.1429   32.4788   49.6240 C   0  0  0  0  0  0  0  0  0  0  0  0
   63.1374   33.9671   46.7002 H   0  0  0  0  0  0  0  0  0  0  0  0
   60.6527   31.1783   50.3221 H   0  0  0  0  0  0  0  0  0  0  0  0
 25 24  1  0
 25 26  1  0
 26 27  1  0
 27 28  1  0
 28 22  1  0
 22 23  2  0
 22  1  1  0
  1  2  2  0
  2  3  1  0
  3  4  2  0
  4  5  1  0
  5  7  1  0
  7  8  1  0
  8  9  1  0
  8 10  2  0
 10 11  1  0
 11 12  2  0
 12 15  1  0
 15 16  1  0
 16 17  1  0
 17 18  2  0
 17 19  1  0
 19 20  1  0
 20 21  1  0
 11 13  1  0
 13 14  2  0
  5  6  2  0
 28 29  1  0
 29 30  1  0
 30 25  1  0
  6  1  1  0
 13  7  1  0
 20 15  2  0
 24 31  1  0
 28 32  1  0
M  CHG 1  16  -1
M  CHG 1  19  -1
M  CHG 1  21  -1
M  CHG 1  28   1
M  END
> <UniqueID>
33

> <SMILES>
C=c1/c(=C\c2[n-]c(=O)[n-]c2[O-])cc(C)n1-c1cccc(C(=O)[NH+]2CCC(O)CC2)c1

> <Energy>
145.31164429040794

> <Genealogy>
C=c1c(=Cc2[n-]c(=O)[n-]c2[O-])cc(C)n1-c1cccc(C(=O)[NH+]2CCC(O)CC2)c1 (protonated)
C=c1/c(=C\c2[n-]c(=O)[n-]c2[O-])cc(C)n1-c1cccc(C(=O)[NH+]2CCC(O)CC2)c1 (cis-trans isomerization)
C=c1/c(=C\c2[n-]c(=O)[n-]c2[O-])cc(C)n1-c1cccc(C(=O)[NH+]2CCC(O)CC2)c1 (3D coordinates assigned)
C=c1/c(=C\c2[n-]c(=O)[n-]c2[O-])cc(C)n1-c1cccc(C(=O)[NH+]2CCC(O)CC2)c1 (nonaromatic ring conformer: 145.31164429040794 kcal/mol)

> <smiles>
C=c1c(=Cc2[nH]c(=O)[nH]c2O)cc(C)n1-c1cccc(C(=O)N2CCC(O)CC2)c1

> <score_type>
oracle

> <origin>
adg

> <m_score__min__energy>
-15.859999999999999

> <m_primary>
energy

> <minimizedAffinity>
-6.00024

> <minimizedRMSD>
0.96595

> <CNNscore>
0.0704863220

> <CNNaffinity>
4.8011627197

> <CNN_VS>
0.3384163082

> <CNNaffinity_variance>
0.3148035705

$$$$
47:0


 29 31  0  0  0  0  0  0  0  0999 V2000
   61.1233   30.0215   46.7963 C   0  0  0  0  0  0  0  0  0  0  0  0
   60.2189   30.9868   46.5664 C   0  0  0  0  0  0  0  0  0  0  0  0
   59.2185   31.0079   45.5804 C   0  0  0  0  0  0  0  0  0  0  0  0
   58.7884   30.0491   44.7360 C   0  0  0  0  0  0  0  0  0  0  0  0
   58.6692   32.2797   45.6121 C   0  0  0  0  0  0  0  0  0  0  0  0
   59.2957   32.9620   46.6331 C   0  0  0  0  0  0  0  0  0  0  0  0
   59.0116   34.3808   47.0202 C   0  0  0  0  0  0  0  0  0  0  0  0
   60.2298   32.1795   47.2131 N   0  0  0  0  0  0  0  0  0  0  0  0
   58.2444   28.7364   45.1342 C   0  0  0  0  0  0  0  0  0  0  0  0
   56.8622   28.5602   45.2876 C   0  0  0  0  0  0  0  0  0  0  0  0
   55.9809   29.6018   45.0160 O   0  0  0  0  0  0  0  0  0  0  0  0
   56.3722   27.3610   45.6954 N   0  0  0  0  0  0  0  0  0  0  0  0
   57.2014   26.3236   45.9760 C   0  0  0  0  0  0  0  0  0  0  0  0
   56.7243   25.2213   46.3486 O   0  0  0  0  0  0  0  0  0  0  0  0
   58.5448   26.4779   45.8636 N   0  0  0  0  0  0  0  0  0  0  0  0
   59.0853   27.6573   45.4603 C   0  0  0  0  0  0  0  0  0  0  0  0
   60.3384   27.7703   45.3878 O   0  0  0  0  0  0  0  0  0  0  0  0
   61.1020   32.5792   48.2848 C   0  0  0  0  0  0  0  0  0  0  0  0
   62.3744   33.0797   47.9833 C   0  0  0  0  0  0  0  0  0  0  0  0
   63.2446   33.4614   49.0035 C   0  0  0  0  0  0  0  0  0  0  0  0
   62.8552   33.3566   50.3481 C   0  0  0  0  0  0  0  0  0  0  0  0
   61.5825   32.8430   50.6527 C   0  0  0  0  0  0  0  0  0  0  0  0
   60.6936   32.4728   49.6309 C   0  0  0  0  0  0  0  0  0  0  0  0
   59.3379   31.9251   49.9848 C   0  0  0  0  0  0  0  0  0  0  0  0
   63.7945   33.7564   51.4200 C   0  0  0  0  0  0  0  0  0  0  0  0
   63.8196   34.9564   51.8044 O   0  0  0  0  0  0  0  0  0  0  0  0
   64.6616   32.8133   52.0577 N   0  0  0  0  0  0  0  0  0  0  0  0
   65.2068   31.7550   51.4008 O   0  0  0  0  0  0  0  0  0  0  0  0
   66.3677   32.2347   50.7751 C   0  0  0  0  0  0  0  0  0  0  0  0
  1  2  2  0
  2  3  1  0
  3  4  2  0
  4  9  1  0
  9 10  2  0
 10 11  1  0
 10 12  1  0
 12 13  1  0
 13 14  2  0
 13 15  1  0
 15 16  1  0
 16 17  2  0
  3  5  1  0
  5  6  2  0
  6  7  1  0
  6  8  1  0
  8 18  1  0
 18 19  2  0
 19 20  1  0
 20 21  2  0
 21 25  1  0
 25 26  2  0
 25 27  1  0
 27 28  1  0
 28 29  1  0
 21 22  1  0
 22 23  2  0
 23 24  1  0
  8  2  1  0
 23 18  1  0
 16  9  1  0
M  CHG 1  11  -1
M  CHG 1  12  -1
M  CHG 1  15  -1
M  CHG 1  27  -1
M  END
> <UniqueID>
43

> <SMILES>
C=c1c(=Cc2c([O-])[n-]c(=O)[n-]c2=O)cc(C)n1-c1ccc(C(=O)[N-]OC)cc1C

> <Energy>
97.52087798455157

> <Genealogy>
C=c1c(=Cc2c([O-])[n-]c(=O)[n-]c2=O)cc(C)n1-c1ccc(C(=O)[N-]OC)cc1C (protonated)
C=c1c(=Cc2c([O-])[n-]c(=O)[n-]c2=O)cc(C)n1-c1ccc(C(=O)[N-]OC)cc1C (3D coordinates assigned)
C=c1c(=Cc2c([O-])[n-]c(=O)[n-]c2=O)cc(C)n1-c1ccc(C(=O)[N-]OC)cc1C (optimized conformer: 97.52087798455157 kcal/mol)

> <smiles>
C=c1c(=Cc2c(O)[nH]c(=O)[nH]c2=O)cc(C)n1-c1ccc(C(=O)NOC)cc1C

> <score_type>
oracle

> <origin>
adg

> <m_score__min__energy>
-16.02

> <m_primary>
energy

> <minimizedAffinity>
-6.29501

> <minimizedRMSD>
1.25926

> <CNNscore>
0.4686017036

> <CNNaffinity>
7.1580290794

> <CNN_VS>
3.3542647362

> <CNNaffinity_variance>
0.6224857569

$$$$
64:0


 26 28  0  0  0  0  0  0  0  0999 V2000
   58.6958   28.2570   47.7308 C   0  0  0  0  0  0  0  0  0  0  0  0
   58.4641   28.9866   46.6278 C   0  0  0  0  0  0  0  0  0  0  0  0
   57.8328   28.5717   45.4420 C   0  0  0  0  0  0  0  0  0  0  0  0
   57.3955   27.3599   45.0436 C   0  0  0  0  0  0  0  0  0  0  0  0
   57.7281   29.6985   44.6437 C   0  0  0  0  0  0  0  0  0  0  0  0
   58.3168   30.7366   45.3343 C   0  0  0  0  0  0  0  0  0  0  0  0
   58.4473   32.1390   44.8208 C   0  0  0  0  0  0  0  0  0  0  0  0
   58.7718   30.3068   46.5304 N   0  0  0  0  0  0  0  0  0  0  0  0
   57.3592   26.1425   45.8768 C   0  0  0  0  0  0  0  0  0  0  0  0
   56.1350   25.6266   46.3229 C   0  0  0  0  0  0  0  0  0  0  0  0
   54.9430   26.2819   46.0327 O   0  0  0  0  0  0  0  0  0  0  0  0
   56.1072   24.4814   47.0539 N   0  0  0  0  0  0  0  0  0  0  0  0
   57.2496   23.8117   47.3490 C   0  0  0  0  0  0  0  0  0  0  0  0
   57.2011   22.7552   48.0314 O   0  0  0  0  0  0  0  0  0  0  0  0
   58.4465   24.2773   46.9059 N   0  0  0  0  0  0  0  0  0  0  0  0
   58.5262   25.4166   46.1712 C   0  0  0  0  0  0  0  0  0  0  0  0
   59.6506   25.8109   45.7599 O   0  0  0  0  0  0  0  0  0  0  0  0
   59.4025   31.1332   47.5253 C   0  0  0  0  0  0  0  0  0  0  0  0
   58.6610   31.6079   48.6121 C   0  0  0  0  0  0  0  0  0  0  0  0
   59.2745   32.3983   49.5846 C   0  0  0  0  0  0  0  0  0  0  0  0
   60.6300   32.7190   49.4781 C   0  0  0  0  0  0  0  0  0  0  0  0
   61.4013   32.2469   48.3952 C   0  0  0  0  0  0  0  0  0  0  0  0
   60.7658   31.4462   47.4216 C   0  0  0  0  0  0  0  0  0  0  0  0
   62.8114   32.5742   48.2838 N   0  0  0  0  0  0  0  0  0  0  0  0
   63.7581   32.1598   49.3273 C   0  0  0  0  0  0  0  0  0  0  0  0
   63.3155   33.3283   47.1294 C   0  0  0  0  0  0  0  0  0  0  0  0
  1  2  2  0
  2  3  1  0
  3  4  2  0
  4  9  1  0
  9 10  2  0
 10 11  1  0
 10 12  1  0
 12 13  1  0
 13 14  2  0
 13 15  1  0
 15 16  1  0
 16 17  2  0
  3  5  1  0
  5  6  2  0
  6  7  1  0
  6  8  1  0
  8 18  1  0
 18 19  2  0
 19 20  1  0
 20 21  2  0
 21 22  1  0
 22 24  1  0
 24 25  1  0
 24 26  1  0
 22 23  2  0
  8  2  1  0
 23 18  1  0
 16  9  1  0
M  CHG 1  11  -1
M  CHG 1  12  -1
M  CHG 1  15  -1
M  END
> <UniqueID>
60

> <SMILES>
C=c1c(=Cc2c([O-])[n-]c(=O)[n-]c2=O)cc(C)n1-c1cccc(N(C)C)c1

> <Energy>
95.8992322127558

> <Genealogy>
C=c1c(=Cc2c([O-])[n-]c(=O)[n-]c2=O)cc(C)n1-c1cccc(N(C)C)c1 (protonated)
C=c1c(=Cc2c([O-])[n-]c(=O)[n-]c2=O)cc(C)n1-c1cccc(N(C)C)c1 (3D coordinates assigned)
C=c1c(=Cc2c([O-])[n-]c(=O)[n-]c2=O)cc(C)n1-c1cccc(N(C)C)c1 (optimized conformer: 95.8992322127558 kcal/mol)

> <smiles>
C=c1c(=Cc2c(O)[nH]c(=O)[nH]c2=O)cc(C)n1-c1cccc(N(C)C)c1

> <score_type>
oracle

> <origin>
adg

> <m_score__min__energy>
-15.76

> <m_primary>
energy

> <minimizedAffinity>
-6.37358

> <minimizedRMSD>
0.88461

> <CNNscore>
0.2924865186

> <CNNaffinity>
6.5836105347

> <CNN_VS>
1.9256173372

> <CNNaffinity_variance>
0.1522549838

$$$$
65:0


 34 37  0  0  0  0  0  0  0  0999 V2000
   56.9218   23.4055   45.4438 C   0  0  0  0  0  0  0  0  0  0  0  0
   57.3833   24.6317   45.1280 C   0  0  0  0  0  0  0  0  0  0  0  0
   57.5362   25.0589   43.8175 C   0  0  0  0  0  0  0  0  0  0  0  0
   57.9532   26.3710   43.8694 C   0  0  0  0  0  0  0  0  0  0  0  0
   58.2110   27.2360   42.6739 C   0  0  0  0  0  0  0  0  0  0  0  0
   58.1031   26.7654   45.1536 N   0  0  0  0  0  0  0  0  0  0  0  0
   57.7770   25.7095   45.9411 C   0  0  0  0  0  0  0  0  0  0  0  0
   57.9345   25.7143   47.2742 C   0  0  0  0  0  0  0  0  0  0  0  0
   54.8450   25.3960   45.5532 O   0  0  0  0  0  0  0  0  0  0  0  0
   54.5257   24.0636   45.8044 C   0  0  0  0  0  0  0  0  0  0  0  0
   53.2382   23.7189   46.0746 N   0  0  0  0  0  0  0  0  0  0  0  0
   52.8909   22.4270   46.2989 C   0  0  0  0  0  0  0  0  0  0  0  0
   51.6934   22.1331   46.5519 O   0  0  0  0  0  0  0  0  0  0  0  0
   53.8321   21.4499   46.2453 N   0  0  0  0  0  0  0  0  0  0  0  0
   55.1320   21.7412   45.9805 C   0  0  0  0  0  0  0  0  0  0  0  0
   55.9769   20.8090   45.9287 O   0  0  0  0  0  0  0  0  0  0  0  0
   55.5225   23.0736   45.7751 C   0  0  0  0  0  0  0  0  0  0  0  0
   54.1748   26.0504   45.5746 H   0  0  0  0  0  0  0  0  0  0  0  0
   58.5362   28.0656   45.5846 C   0  0  0  0  0  0  0  0  0  0  0  0
   59.8562   28.2524   46.0159 C   0  0  0  0  0  0  0  0  0  0  0  0
   60.2869   29.5105   46.4440 C   0  0  0  0  0  0  0  0  0  0  0  0
   59.4064   30.6042   46.4347 C   0  0  0  0  0  0  0  0  0  0  0  0
   58.0811   30.4126   46.0118 C   0  0  0  0  0  0  0  0  0  0  0  0
   57.6494   29.1534   45.5790 C   0  0  0  0  0  0  0  0  0  0  0  0
   56.3416   28.9917   45.1346 O   0  0  0  0  0  0  0  0  0  0  0  0
   59.8524   31.9360   46.8999 C   0  0  0  0  0  0  0  0  0  0  0  0
   59.7157   32.9291   46.1349 O   0  0  0  0  0  0  0  0  0  0  0  0
   60.4542   32.1159   48.1972 N   0  0  0  0  0  0  0  0  0  0  0  0
   61.4212   31.1355   48.7070 C   0  0  0  0  0  0  0  0  0  0  0  0
   62.4055   31.7994   49.6863 C   0  0  0  0  0  0  0  0  0  0  0  0
   62.7964   33.1542   49.2414 N   0  0  0  0  0  0  0  0  0  0  0  0
   63.6374   33.1116   48.0315 C   0  0  0  0  0  0  0  0  0  0  0  0
   61.6458   34.0833   49.0816 C   0  0  0  0  0  0  0  0  0  0  0  0
   60.2878   33.3755   48.9247 C   0  0  0  0  0  0  0  0  0  0  0  0
  9 10  1  0
 10 11  1  0
 11 12  1  0
 12 13  2  0
 12 14  1  0
 14 15  1  0
 15 16  2  0
 15 17  1  0
 17  1  1  0
  1  2  2  0
  2  3  1  0
  3  4  2  0
  4  5  1  0
  4  6  1  0
  6 19  1  0
 19 20  2  0
 20 21  1  0
 21 22  2  0
 22 26  1  0
 26 27  2  0
 26 28  1  0
 28 29  1  0
 29 30  1  0
 30 31  1  0
 31 32  1  0
 31 33  1  0
 33 34  1  0
 22 23  1  0
 23 24  2  0
 24 25  1  0
  6  7  1  0
  7  8  2  0
 17 10  2  0
  7  2  1  0
 24 19  1  0
 34 28  1  0
  9 18  1  0
M  CHG 1  11  -1
M  CHG 1  14  -1
M  CHG 1  25  -1
M  END
> <UniqueID>
61

> <SMILES>
C=c1/c(=C\c2c(O)[n-]c(=O)[n-]c2=O)cc(C)n1-c1ccc(C(=O)N2CCN(C)CC2)cc1[O-]

> <Energy>
119.937144775813

> <Genealogy>
C=c1c(=Cc2c(O)[n-]c(=O)[n-]c2=O)cc(C)n1-c1ccc(C(=O)N2CCN(C)CC2)cc1[O-] (protonated)
C=c1/c(=C\c2c(O)[n-]c(=O)[n-]c2=O)cc(C)n1-c1ccc(C(=O)N2CCN(C)CC2)cc1[O-] (cis-trans isomerization)
C=c1/c(=C\c2c(O)[n-]c(=O)[n-]c2=O)cc(C)n1-c1ccc(C(=O)N2CCN(C)CC2)cc1[O-] (3D coordinates assigned)
C=c1/c(=C\c2c(O)[n-]c(=O)[n-]c2=O)cc(C)n1-c1ccc(C(=O)N2CCN(C)CC2)cc1[O-] (nonaromatic ring conformer: 119.937144775813 kcal/mol)

> <smiles>
C=c1c(=Cc2c(O)[nH]c(=O)[nH]c2=O)cc(C)n1-c1ccc(C(=O)N2CCN(C)CC2)cc1O

> <score_type>
oracle

> <origin>
adg

> <m_score__min__energy>
-15.94

> <m_primary>
energy

> <minimizedAffinity>
-8.65401

> <minimizedRMSD>
1.65648

> <CNNscore>
0.1266236901

> <CNNaffinity>
6.3392314911

> <CNN_VS>
0.8026968837

> <CNNaffinity_variance>
0.0286572855

$$$$
69:0


 32 35  0  0  0  0  0  0  0  0999 V2000
   60.8316   30.4745   47.3701 C   0  0  0  0  0  0  0  0  0  0  0  0
   62.2259   30.6250   47.3492 C   0  0  0  0  0  0  0  0  0  0  0  0
   62.7988   31.8875   47.5170 C   0  0  0  0  0  0  0  0  0  0  0  0
   61.9855   33.0081   47.7032 C   0  0  0  0  0  0  0  0  0  0  0  0
   60.5882   32.8747   47.7100 C   0  0  0  0  0  0  0  0  0  0  0  0
   60.0170   31.6009   47.5613 C   0  0  0  0  0  0  0  0  0  0  0  0
   59.7560   29.2315   44.8896 C   0  0  0  0  0  0  0  0  0  0  0  0
   59.7763   28.6061   46.0772 C   0  0  0  0  0  0  0  0  0  0  0  0
   59.2968   27.3163   46.3498 C   0  0  0  0  0  0  0  0  0  0  0  0
   58.7728   26.4449   45.4601 C   0  0  0  0  0  0  0  0  0  0  0  0
   59.4849   27.1166   47.7122 C   0  0  0  0  0  0  0  0  0  0  0  0
   60.0702   28.2663   48.2073 C   0  0  0  0  0  0  0  0  0  0  0  0
   60.4488   28.4779   49.6419 C   0  0  0  0  0  0  0  0  0  0  0  0
   60.2413   29.1713   47.2197 N   0  0  0  0  0  0  0  0  0  0  0  0
   58.0191   25.2166   45.7955 C   0  0  0  0  0  0  0  0  0  0  0  0
   58.5248   23.9710   45.8691 N   0  0  0  0  0  0  0  0  0  0  0  0
   57.4658   23.2199   46.2381 C   0  0  0  0  0  0  0  0  0  0  0  0
   57.5443   21.9753   46.4085 O   0  0  0  0  0  0  0  0  0  0  0  0
   56.3175   23.9064   46.4138 N   0  0  0  0  0  0  0  0  0  0  0  0
   56.6859   25.1670   46.1341 C   0  0  0  0  0  0  0  0  0  0  0  0
   55.8214   26.2536   46.1890 O   0  0  0  0  0  0  0  0  0  0  0  0
   59.7178   34.0481   47.9202 C   0  0  0  0  0  0  0  0  0  0  0  0
   59.7891   34.6747   49.0104 O   0  0  0  0  0  0  0  0  0  0  0  0
   58.7645   34.4760   46.9386 N   0  0  0  0  0  0  0  0  0  0  0  0
   59.0019   34.4912   45.5009 C   0  0  0  0  0  0  0  0  0  0  0  0
   58.3162   33.3118   44.8726 C   0  0  0  0  0  0  0  0  0  0  0  0
   58.4723   33.0524   43.5003 C   0  0  0  0  0  0  0  0  0  0  0  0
   57.8606   31.9363   42.9224 C   0  0  0  0  0  0  0  0  0  0  0  0
   57.1000   31.0658   43.7085 C   0  0  0  0  0  0  0  0  0  0  0  0
   56.3348   29.6660   42.9801 Cl  0  0  0  0  0  0  0  0  0  0  0  0
   56.9546   31.3099   45.0781 C   0  0  0  0  0  0  0  0  0  0  0  0
   57.5659   32.4255   45.6611 C   0  0  0  0  0  0  0  0  0  0  0  0
  7  8  2  0
  8  9  1  0
  9 10  2  0
 10 15  1  0
 15 16  1  0
 16 17  1  0
 17 18  2  0
 17 19  1  0
 19 20  1  0
 20 21  1  0
  9 11  1  0
 11 12  2  0
 12 13  1  0
 12 14  1  0
 14  1  1  0
  1  2  2  0
  2  3  1  0
  3  4  2  0
  4  5  1  0
  5 22  1  0
 22 23  2  0
 22 24  1  0
 24 25  1  0
 25 26  1  0
 26 27  2  0
 27 28  1  0
 28 29  2  0
 29 30  1  0
 29 31  1  0
 31 32  2  0
  5  6  2  0
 14  8  1  0
  6  1  1  0
 20 15  2  0
 32 26  1  0
M  CHG 1  16  -1
M  CHG 1  19  -1
M  CHG 1  21  -1
M  CHG 1  24  -1
M  END
> <UniqueID>
65

> <SMILES>
C=c1c(=Cc2[n-]c(=O)[n-]c2[O-])cc(C)n1-c1cccc(C(=O)[N-]Cc2ccc(Cl)cc2)c1

> <Energy>
124.84732345803948

> <Genealogy>
C=c1c(=Cc2[n-]c(=O)[n-]c2[O-])cc(C)n1-c1cccc(C(=O)[N-]Cc2ccc(Cl)cc2)c1 (protonated)
C=c1c(=Cc2[n-]c(=O)[n-]c2[O-])cc(C)n1-c1cccc(C(=O)[N-]Cc2ccc(Cl)cc2)c1 (3D coordinates assigned)
C=c1c(=Cc2[n-]c(=O)[n-]c2[O-])cc(C)n1-c1cccc(C(=O)[N-]Cc2ccc(Cl)cc2)c1 (optimized conformer: 124.84732345803948 kcal/mol)

> <smiles>
C=c1c(=Cc2[nH]c(=O)[nH]c2O)cc(C)n1-c1cccc(C(=O)NCc2ccc(Cl)cc2)c1

> <score_type>
oracle

> <origin>
adg

> <m_score__min__energy>
-18.420000000000002

> <m_primary>
energy

> <minimizedAffinity>
-7.97641

> <minimizedRMSD>
0.74250

> <CNNscore>
0.1990524083

> <CNNaffinity>
7.0781407356

> <CNN_VS>
1.4089210033

> <CNNaffinity_variance>
0.0522648580

$$$$
77:0


 30 33  0  0  0  0  0  0  0  0999 V2000
   56.9317   24.0149   43.9962 C   0  0  0  0  0  0  0  0  0  0  0  0
   57.2995   24.5247   45.1808 C   0  0  0  0  0  0  0  0  0  0  0  0
   56.9623   24.0643   46.4635 C   0  0  0  0  0  0  0  0  0  0  0  0
   56.3564   22.9258   46.8478 C   0  0  0  0  0  0  0  0  0  0  0  0
   57.3607   24.9765   47.3749 N   0  0  0  0  0  0  0  0  0  0  0  0
   57.9652   25.9354   46.6520 C   0  0  0  0  0  0  0  0  0  0  0  0
   58.4758   26.9617   47.1734 O   0  0  0  0  0  0  0  0  0  0  0  0
   57.9656   25.6953   45.3230 N   0  0  0  0  0  0  0  0  0  0  0  0
   55.0258   22.4688   46.4141 C   0  0  0  0  0  0  0  0  0  0  0  0
   54.5568   21.2155   46.5413 N   0  0  0  0  0  0  0  0  0  0  0  0
   53.2675   21.2958   46.1614 C   0  0  0  0  0  0  0  0  0  0  0  0
   52.4944   20.3020   46.1429 O   0  0  0  0  0  0  0  0  0  0  0  0
   52.8702   22.5388   45.8159 N   0  0  0  0  0  0  0  0  0  0  0  0
   53.9888   23.2694   45.9958 C   0  0  0  0  0  0  0  0  0  0  0  0
   54.0552   24.6413   45.7906 O   0  0  0  0  0  0  0  0  0  0  0  0
   55.0466   20.4172   46.8445 H   0  0  0  0  0  0  0  0  0  0  0  0
   58.4692   26.5984   44.2787 C   0  0  0  0  0  0  0  0  0  0  0  0
   58.4423   28.0296   44.7515 C   0  0  0  0  0  0  0  0  0  0  0  0
   59.6180   28.6459   45.2054 C   0  0  0  0  0  0  0  0  0  0  0  0
   59.5972   29.9695   45.6514 C   0  0  0  0  0  0  0  0  0  0  0  0
   58.4005   30.7041   45.6433 C   0  0  0  0  0  0  0  0  0  0  0  0
   57.2237   30.0869   45.1895 C   0  0  0  0  0  0  0  0  0  0  0  0
   57.2459   28.7635   44.7411 C   0  0  0  0  0  0  0  0  0  0  0  0
   58.3740   32.0651   46.1197 N   0  0  0  0  0  0  0  0  0  0  0  0
   59.1144   32.4280   47.3384 C   0  0  0  0  0  0  0  0  0  0  0  0
   59.2937   33.9487   47.4587 C   0  0  0  0  0  0  0  0  0  0  0  0
   59.6559   34.5501   46.0950 C   0  0  0  0  0  0  0  0  0  0  0  0
   59.8385   35.9164   46.2283 F   0  0  0  0  0  0  0  0  0  0  0  0
   58.5777   34.2690   45.0206 C   0  0  0  0  0  0  0  0  0  0  0  0
   57.6420   33.1056   45.3872 C   0  0  0  0  0  0  0  0  0  0  0  0
  1  2  2  0
  2  3  1  0
  3  4  2  0
  4  9  1  0
  9 10  1  0
 10 11  1  0
 11 12  2  0
 11 13  1  0
 13 14  1  0
 14 15  1  0
  3  5  1  0
  5  6  1  0
  6  7  2  0
  6  8  1  0
  8 17  1  0
 17 18  1  0
 18 19  2  0
 19 20  1  0
 20 21  2  0
 21 24  1  0
 24 25  1  0
 25 26  1  0
 26 27  1  0
 27 28  1  0
 27 29  1  0
 29 30  1  0
 21 22  1  0
 22 23  2  0
  8  2  1  0
 23 18  1  0
 14  9  2  0
 30 24  1  0
 10 16  1  0
M  CHG 1   5  -1
M  CHG 1  13  -1
M  CHG 1  15  -1
M  END
> <UniqueID>
72

> <SMILES>
C=c1c(=Cc2[nH]c(=O)[n-]c2[O-])[n-]c(=O)n1Cc1ccc(N2CCC(F)CC2)cc1

> <Energy>
130.37616515351917

> <Genealogy>
C=c1c(=Cc2[nH]c(=O)[n-]c2[O-])[n-]c(=O)n1Cc1ccc(N2CCC(F)CC2)cc1 (protonated)
C=c1c(=Cc2[nH]c(=O)[n-]c2[O-])[n-]c(=O)n1Cc1ccc(N2CCC(F)CC2)cc1 (3D coordinates assigned)
C=c1c(=Cc2[nH]c(=O)[n-]c2[O-])[n-]c(=O)n1Cc1ccc(N2CCC(F)CC2)cc1 (nonaromatic ring conformer: 130.37616515351917 kcal/mol)

> <smiles>
C=c1c(=Cc2[nH]c(=O)[nH]c2O)[nH]c(=O)n1Cc1ccc(N2CCC(F)CC2)cc1

> <score_type>
oracle

> <origin>
adg

> <m_score__min__energy>
-15.18

> <m_primary>
energy

> <minimizedAffinity>
-8.76459

> <minimizedRMSD>
1.28873

> <CNNscore>
0.0922350958

> <CNNaffinity>
6.1407876015

> <CNN_VS>
0.5663961172

> <CNNaffinity_variance>
0.0373074226

$$$$
83:0


 34 37  0  0  0  0  0  0  0  0999 V2000
   60.7668   29.6908   50.6680 C   0  0  0  0  0  0  0  0  0  0  0  0
   60.4975   29.1528   51.9370 C   0  0  0  0  0  0  0  0  0  0  0  0
   61.1529   29.6425   53.0687 C   0  0  0  0  0  0  0  0  0  0  0  0
   62.0790   30.6776   52.9471 C   0  0  0  0  0  0  0  0  0  0  0  0
   62.3602   31.2226   51.6930 C   0  0  0  0  0  0  0  0  0  0  0  0
   61.7244   30.7279   50.5412 C   0  0  0  0  0  0  0  0  0  0  0  0
   61.0610   27.0454   49.3292 C   0  0  0  0  0  0  0  0  0  0  0  0
   60.2054   27.9882   48.9056 C   0  0  0  0  0  0  0  0  0  0  0  0
   59.2955   27.8904   47.8396 C   0  0  0  0  0  0  0  0  0  0  0  0
   59.1279   26.9432   46.8964 C   0  0  0  0  0  0  0  0  0  0  0  0
   58.5440   29.0547   47.8659 C   0  0  0  0  0  0  0  0  0  0  0  0
   59.0412   29.8317   48.8889 C   0  0  0  0  0  0  0  0  0  0  0  0
   58.5960   31.2351   49.1769 C   0  0  0  0  0  0  0  0  0  0  0  0
   60.0407   29.1841   49.5306 N   0  0  0  0  0  0  0  0  0  0  0  0
   58.0120   25.9862   46.8249 C   0  0  0  0  0  0  0  0  0  0  0  0
   58.0841   24.6979   47.2070 N   0  0  0  0  0  0  0  0  0  0  0  0
   56.8956   24.1894   46.8143 C   0  0  0  0  0  0  0  0  0  0  0  0
   56.5707   22.9895   47.0141 O   0  0  0  0  0  0  0  0  0  0  0  0
   56.0884   25.0648   46.1771 N   0  0  0  0  0  0  0  0  0  0  0  0
   56.8170   26.1915   46.1814 C   0  0  0  0  0  0  0  0  0  0  0  0
   56.4031   27.3831   45.5986 O   0  0  0  0  0  0  0  0  0  0  0  0
   62.0515   31.3374   49.2322 C   0  0  0  0  0  0  0  0  0  0  0  0
   62.4381   30.5930   48.2919 O   0  0  0  0  0  0  0  0  0  0  0  0
   61.9144   32.7511   49.0097 N   0  0  0  0  0  0  0  0  0  0  0  0
   60.6839   33.4408   49.4242 C   0  0  0  0  0  0  0  0  0  0  0  0
   60.2205   34.4413   48.3504 C   0  0  0  0  0  0  0  0  0  0  0  0
   60.5734   33.9400   46.9343 C   0  0  0  0  0  0  0  0  0  0  0  0
   62.1092   33.8094   46.7799 C   0  0  0  0  0  0  0  0  0  0  0  0
   62.8278   33.4415   48.0946 C   0  0  0  0  0  0  0  0  0  0  0  0
   59.9565   32.6343   46.6684 N   0  0  0  0  0  0  0  0  0  0  0  0
   58.4784   32.7556   45.7511 S   0  0  0  0  0  0  0  0  0  0  0  0
   58.1096   31.1766   45.0172 C   0  0  0  0  0  0  0  0  0  0  0  0
   58.6713   33.7638   44.6540 O   0  0  0  0  0  0  0  0  0  0  0  0
   57.3218   33.1876   46.6123 O   0  0  0  0  0  0  0  0  0  0  0  0
  7  8  2  0
  8  9  1  0
  9 10  2  0
 10 15  1  0
 15 16  1  0
 16 17  1  0
 17 18  2  0
 17 19  1  0
 19 20  1  0
 20 21  1  0
  9 11  1  0
 11 12  2  0
 12 13  1  0
 12 14  1  0
 14  1  1  0
  1  2  2  0
  2  3  1  0
  3  4  2  0
  4  5  1  0
  5  6  2  0
  6 22  1  0
 22 23  2  0
 22 24  1  0
 24 25  1  0
 25 26  1  0
 26 27  1  0
 27 30  1  0
 30 31  1  0
 31 32  1  0
 31 33  2  0
 31 34  2  0
 27 28  1  0
 28 29  1  0
 14  8  1  0
  6  1  1  0
 29 24  1  0
 20 15  2  0
M  CHG 1  16  -1
M  CHG 1  19  -1
M  CHG 1  21  -1
M  CHG 1  30  -1
M  END
> <UniqueID>
78

> <SMILES>
C=c1c(=Cc2[n-]c(=O)[n-]c2[O-])cc(C)n1-c1ccccc1C(=O)N1CCC([N-]S(C)(=O)=O)CC1

> <Energy>
139.06933366854597

> <Genealogy>
C=c1c(=Cc2[n-]c(=O)[n-]c2[O-])cc(C)n1-c1ccccc1C(=O)N1CCC([N-]S(C)(=O)=O)CC1 (protonated)
C=c1c(=Cc2[n-]c(=O)[n-]c2[O-])cc(C)n1-c1ccccc1C(=O)N1CCC([N-]S(C)(=O)=O)CC1 (3D coordinates assigned)
C=c1c(=Cc2[n-]c(=O)[n-]c2[O-])cc(C)n1-c1ccccc1C(=O)N1CCC([N-]S(C)(=O)=O)CC1 (nonaromatic ring conformer: 139.06933366854597 kcal/mol)

> <smiles>
C=c1c(=Cc2[nH]c(=O)[nH]c2O)cc(C)n1-c1ccccc1C(=O)N1CCC(NS(C)(=O)=O)CC1

> <score_type>
oracle

> <origin>
adg

> <m_score__min__energy>
-17.699999999999999

> <m_primary>
energy

> <minimizedAffinity>
-6.14033

> <minimizedRMSD>
0.97647

> <CNNscore>
0.1586910188

> <CNNaffinity>
6.2292275429

> <CNN_VS>
0.9885224700

> <CNNaffinity_variance>
0.0912468508

$$$$
85:0


 29 32  0  0  0  0  0  0  0  0999 V2000
   53.6972   27.3571   53.4423 C   0  0  0  0  0  0  0  0  0  0  0  0
   54.5309   28.3988   53.5592 C   0  0  0  0  0  0  0  0  0  0  0  0
   55.6167   28.2246   54.3624 N   0  0  0  0  0  0  0  0  0  0  0  0
   56.6468   29.1042   54.4121 C   0  0  0  0  0  0  0  0  0  0  0  0
   56.6596   30.2174   53.5682 C   0  0  0  0  0  0  0  0  0  0  0  0
   55.5392   30.4562   52.7615 C   0  0  0  0  0  0  0  0  0  0  0  0
   54.4179   29.6016   52.7927 C   0  0  0  0  0  0  0  0  0  0  0  0
   53.3145   30.0066   52.1156 C   0  0  0  0  0  0  0  0  0  0  0  0
   57.8017   31.1589   53.5817 C   0  0  0  0  0  0  0  0  0  0  0  0
   58.1452   31.7052   54.6652 O   0  0  0  0  0  0  0  0  0  0  0  0
   58.5182   31.4724   52.3747 N   0  0  0  0  0  0  0  0  0  0  0  0
   58.9556   32.8500   52.1333 C   0  0  0  0  0  0  0  0  0  0  0  0
   58.9472   33.1840   50.6246 C   0  0  0  0  0  0  0  0  0  0  0  0
   58.9726   31.9874   49.7383 N   0  0  0  0  0  0  0  0  0  0  0  0
   59.8129   30.9322   50.3449 C   0  0  0  0  0  0  0  0  0  0  0  0
   59.1070   30.3843   51.5857 C   0  0  0  0  0  0  0  0  0  0  0  0
   59.4116   32.3196   48.3500 C   0  0  0  0  0  0  0  0  0  0  0  0
   60.7370   33.1267   48.3336 C   0  0  0  0  0  0  0  0  0  0  0  0
   61.1303   33.5625   46.9018 C   0  0  0  0  0  0  0  0  0  0  0  0
   60.0666   33.4760   45.9691 O   0  0  0  0  0  0  0  0  0  0  0  0
   58.9018   34.0542   46.5150 C   0  0  0  0  0  0  0  0  0  0  0  0
   58.3211   33.1441   47.6090 C   0  0  0  0  0  0  0  0  0  0  0  0
   52.2001   30.8036   52.6641 C   0  0  0  0  0  0  0  0  0  0  0  0
   51.8348   30.8257   53.9607 N   0  0  0  0  0  0  0  0  0  0  0  0
   50.8715   31.7720   53.9965 C   0  0  0  0  0  0  0  0  0  0  0  0
   50.2626   32.0794   55.0533 O   0  0  0  0  0  0  0  0  0  0  0  0
   50.6196   32.3700   52.8123 N   0  0  0  0  0  0  0  0  0  0  0  0
   51.4777   31.7528   51.9839 C   0  0  0  0  0  0  0  0  0  0  0  0
   51.6028   32.0565   50.6339 O   0  0  0  0  0  0  0  0  0  0  0  0
  1  2  2  0
  2  3  1  0
  3  4  2  0
  4  5  1  0
  5  9  1  0
  9 10  2  0
  9 11  1  0
 11 12  1  0
 12 13  1  0
 13 14  1  0
 14 17  1  0
 17 18  1  0
 18 19  1  0
 19 20  1  0
 20 21  1  0
 21 22  1  0
 14 15  1  0
 15 16  1  0
  5  6  2  0
  6  7  1  0
  7  8  2  0
  8 23  1  0
 23 24  1  0
 24 25  1  0
 25 26  2  0
 25 27  1  0
 27 28  1  0
 28 29  1  0
  7  2  1  0
 28 23  2  0
 16 11  1  0
 22 17  1  0
M  CHG 1  24  -1
M  CHG 1  27  -1
M  CHG 1  29  -1
M  END
> <UniqueID>
80

> <SMILES>
C=c1ncc(C(=O)N2CCN(C3CCOCC3)CC2)c/c1=C/c1[n-]c(=O)[n-]c1[O-]

> <Energy>
124.10096478701432

> <Genealogy>
C=c1ncc(C(=O)N2CCN(C3CCOCC3)CC2)cc1=Cc1[n-]c(=O)[n-]c1[O-] (protonated)
C=c1ncc(C(=O)N2CCN(C3CCOCC3)CC2)c/c1=C/c1[n-]c(=O)[n-]c1[O-] (cis-trans isomerization)
C=c1ncc(C(=O)N2CCN(C3CCOCC3)CC2)c/c1=C/c1[n-]c(=O)[n-]c1[O-] (3D coordinates assigned)
C=c1ncc(C(=O)N2CCN(C3CCOCC3)CC2)c/c1=C/c1[n-]c(=O)[n-]c1[O-] (nonaromatic ring conformer: 124.10096478701432 kcal/mol)

> <smiles>
C=c1ncc(C(=O)N2CCN(C3CCOCC3)CC2)cc1=Cc1[nH]c(=O)[nH]c1O

> <score_type>
oracle

> <origin>
adg

> <m_score__min__energy>
-18.260000000000002

> <m_primary>
energy

> <minimizedAffinity>
-7.01997

> <minimizedRMSD>
0.80537

> <CNNscore>
0.1380475610

> <CNNaffinity>
5.2948417664

> <CNN_VS>
0.7309399843

> <CNNaffinity_variance>
0.1027191877

$$$$
1:0


 37 41  0  0  0  0  0  0  0  0999 V2000
   59.7134   29.3489   44.6856 C   0  0  0  0  0  0  0  0  0  0  0  0
   59.6584   28.7729   45.8941 C   0  0  0  0  0  0  0  0  0  0  0  0
   58.9233   27.6305   46.2423 C   0  0  0  0  0  0  0  0  0  0  0  0
   58.3078   26.7160   45.4704 C   0  0  0  0  0  0  0  0  0  0  0  0
   58.9268   27.5711   47.6234 C   0  0  0  0  0  0  0  0  0  0  0  0
   59.7208   28.6103   48.0645 C   0  0  0  0  0  0  0  0  0  0  0  0
   60.1804   29.3355   47.0175 N   0  0  0  0  0  0  0  0  0  0  0  0
   57.5868   25.5348   45.9721 C   0  0  0  0  0  0  0  0  0  0  0  0
   58.1749   24.3757   46.3206 N   0  0  0  0  0  0  0  0  0  0  0  0
   57.1536   23.6438   46.8158 C   0  0  0  0  0  0  0  0  0  0  0  0
   57.3084   22.4717   47.2491 O   0  0  0  0  0  0  0  0  0  0  0  0
   55.9586   24.2709   46.8233 N   0  0  0  0  0  0  0  0  0  0  0  0
   56.2541   25.4697   46.2938 C   0  0  0  0  0  0  0  0  0  0  0  0
   55.3225   26.4801   46.1013 O   0  0  0  0  0  0  0  0  0  0  0  0
   59.9191   28.9740   49.4840 C   0  0  0  0  0  0  0  0  0  0  0  0
   61.0701   28.8265   49.9753 O   0  0  0  0  0  0  0  0  0  0  0  0
   58.8500   29.5073   50.3092 N   0  0  0  0  0  0  0  0  0  0  0  0
   58.9470   28.9734   51.6835 C   0  0  0  0  0  0  0  0  0  0  0  0
   57.9680   29.6712   52.6516 C   0  0  0  0  0  0  0  0  0  0  0  0
   56.9887   30.5006   51.9223 N   0  0  0  0  0  0  0  0  0  0  0  0
   57.6864   31.5549   51.1614 C   0  0  0  0  0  0  0  0  0  0  0  0
   58.8298   30.9851   50.2992 C   0  0  0  0  0  0  0  0  0  0  0  0
   58.1208   30.1451   50.1339 H   0  0  0  0  0  0  0  0  0  0  0  0
   56.0255   31.1130   52.8612 C   0  0  0  0  0  0  0  0  0  0  0  0
   54.6659   30.4924   52.6967 C   0  0  0  0  0  0  0  0  0  0  0  0
   54.2108   29.5478   53.6334 C   0  0  0  0  0  0  0  0  0  0  0  0
   52.9620   28.9425   53.4718 C   0  0  0  0  0  0  0  0  0  0  0  0
   52.1503   29.2899   52.3864 C   0  0  0  0  0  0  0  0  0  0  0  0
   52.5861   30.2436   51.4634 C   0  0  0  0  0  0  0  0  0  0  0  0
   53.8395   30.8463   51.6173 C   0  0  0  0  0  0  0  0  0  0  0  0
   61.0024   30.5567   47.1219 C   0  0  0  0  0  0  0  0  0  0  0  0
   60.1763   31.8115   46.9736 C   0  0  0  0  0  0  0  0  0  0  0  0
   60.8043   33.0685   46.9606 C   0  0  0  0  0  0  0  0  0  0  0  0
   60.0499   34.2333   46.7935 C   0  0  0  0  0  0  0  0  0  0  0  0
   58.6646   34.1532   46.6188 C   0  0  0  0  0  0  0  0  0  0  0  0
   58.0309   32.9073   46.6228 C   0  0  0  0  0  0  0  0  0  0  0  0
   58.7816   31.7404   46.7944 C   0  0  0  0  0  0  0  0  0  0  0  0
  1  2  2  0
  2  3  1  0
  3  4  2  0
  4  8  1  0
  8  9  1  0
  9 10  1  0
 10 11  2  0
 10 12  1  0
 12 13  1  0
 13 14  1  0
  3  5  1  0
  5  6  2  0
  6 15  1  0
 15 16  2  0
 15 17  1  0
 17 18  1  0
 18 19  1  0
 19 20  1  0
 20 24  1  0
 24 25  1  0
 25 26  2  0
 26 27  1  0
 27 28  2  0
 28 29  1  0
 29 30  2  0
 20 21  1  0
 21 22  1  0
  6  7  1  0
  7 31  1  0
 31 32  1  0
 32 33  2  0
 33 34  1  0
 34 35  2  0
 35 36  1  0
 36 37  2  0
  7  2  1  0
 37 32  1  0
 13  8  2  0
 22 17  1  0
 30 25  1  0
 17 23  1  0
M  CHG 1   9  -1
M  CHG 1  12  -1
M  CHG 1  14  -1
M  CHG 1  17   1
M  END
> <UniqueID>
2

> <SMILES>
C=c1c(=Cc2[n-]c(=O)[n-]c2[O-])cc(C(=O)[NH+]2CCN(Cc3ccccc3)CC2)n1Cc1ccccc1

> <Energy>
156.1750969055194

> <Genealogy>
C=c1c(=Cc2[n-]c(=O)[n-]c2[O-])cc(C(=O)[NH+]2CCN(Cc3ccccc3)CC2)n1Cc1ccccc1 (protonated)
C=c1c(=Cc2[n-]c(=O)[n-]c2[O-])cc(C(=O)[NH+]2CCN(Cc3ccccc3)CC2)n1Cc1ccccc1 (3D coordinates assigned)
C=c1c(=Cc2[n-]c(=O)[n-]c2[O-])cc(C(=O)[NH+]2CCN(Cc3ccccc3)CC2)n1Cc1ccccc1 (nonaromatic ring conformer: 156.1750969055194 kcal/mol)

> <smiles>
C=c1c(=Cc2[nH]c(=O)[nH]c2O)cc(C(=O)N2CCN(Cc3ccccc3)CC2)n1Cc1ccccc1

> <score_type>
oracle

> <origin>
adg

> <m_score__min__energy>
-17.530000000000001

> <m_primary>
energy

> <minimizedAffinity>
-7.98393

> <minimizedRMSD>
0.51044

> <CNNscore>
0.1903746426

> <CNNaffinity>
6.6165199280

> <CNN_VS>
1.2596175671

> <CNNaffinity_variance>
0.1144429073

$$$$
2:0


 24 26  0  0  0  0  0  0  0  0999 V2000
   60.5943   28.7554   44.8286 C   0  0  0  0  0  0  0  0  0  0  0  0
   59.9836   28.6112   46.0193 C   0  0  0  0  0  0  0  0  0  0  0  0
   58.9941   27.6621   46.3192 C   0  0  0  0  0  0  0  0  0  0  0  0
   58.4543   26.7553   45.4753 C   0  0  0  0  0  0  0  0  0  0  0  0
   58.6600   27.8639   47.6513 C   0  0  0  0  0  0  0  0  0  0  0  0
   59.4486   28.8986   48.1093 C   0  0  0  0  0  0  0  0  0  0  0  0
   59.3644   29.4608   49.4958 C   0  0  0  0  0  0  0  0  0  0  0  0
   60.2465   29.3686   47.1211 N   0  0  0  0  0  0  0  0  0  0  0  0
   57.7938   25.4926   45.8748 C   0  0  0  0  0  0  0  0  0  0  0  0
   58.3871   24.2882   45.9800 N   0  0  0  0  0  0  0  0  0  0  0  0
   57.3726   23.4646   46.3177 C   0  0  0  0  0  0  0  0  0  0  0  0
   57.5374   22.2323   46.5127 O   0  0  0  0  0  0  0  0  0  0  0  0
   56.1671   24.0630   46.4238 N   0  0  0  0  0  0  0  0  0  0  0  0
   56.4512   25.3428   46.1362 C   0  0  0  0  0  0  0  0  0  0  0  0
   55.5007   26.3554   46.1099 O   0  0  0  0  0  0  0  0  0  0  0  0
   61.2000   30.4847   47.2633 C   0  0  0  0  0  0  0  0  0  0  0  0
   60.4809   31.8128   47.3011 C   0  0  0  0  0  0  0  0  0  0  0  0
   59.4667   32.0874   46.3654 C   0  0  0  0  0  0  0  0  0  0  0  0
   58.8006   33.3166   46.3801 C   0  0  0  0  0  0  0  0  0  0  0  0
   57.4375   33.6791   45.0941 Br  0  0  0  0  0  0  0  0  0  0  0  0
   59.1352   34.2802   47.3348 C   0  0  0  0  0  0  0  0  0  0  0  0
   60.1316   34.0151   48.2767 C   0  0  0  0  0  0  0  0  0  0  0  0
   60.8024   32.7878   48.2673 C   0  0  0  0  0  0  0  0  0  0  0  0
   61.7822   32.5459   49.2225 O   0  0  0  0  0  0  0  0  0  0  0  0
  1  2  2  0
  2  3  1  0
  3  4  2  0
  4  9  1  0
  9 10  1  0
 10 11  1  0
 11 12  2  0
 11 13  1  0
 13 14  1  0
 14 15  1  0
  3  5  1  0
  5  6  2  0
  6  7  1  0
  6  8  1  0
  8 16  1  0
 16 17  1  0
 17 18  2  0
 18 19  1  0
 19 20  1  0
 19 21  2  0
 21 22  1  0
 22 23  2  0
 23 24  1  0
  8  2  1  0
 23 17  1  0
 14  9  2  0
M  CHG 1  10  -1
M  CHG 1  13  -1
M  CHG 1  15  -1
M  CHG 1  24  -1
M  END
> <UniqueID>
3

> <SMILES>
C=c1/c(=C/c2[n-]c(=O)[n-]c2[O-])cc(C)n1Cc1cc(Br)ccc1[O-]

> <Energy>
101.6159637639331

> <Genealogy>
C=c1c(=Cc2[n-]c(=O)[n-]c2[O-])cc(C)n1Cc1cc(Br)ccc1[O-] (protonated)
C=c1/c(=C/c2[n-]c(=O)[n-]c2[O-])cc(C)n1Cc1cc(Br)ccc1[O-] (cis-trans isomerization)
C=c1/c(=C/c2[n-]c(=O)[n-]c2[O-])cc(C)n1Cc1cc(Br)ccc1[O-] (3D coordinates assigned)
C=c1/c(=C/c2[n-]c(=O)[n-]c2[O-])cc(C)n1Cc1cc(Br)ccc1[O-] (optimized conformer: 101.6159637639331 kcal/mol)

> <smiles>
C=c1c(=Cc2[nH]c(=O)[nH]c2O)cc(C)n1Cc1cc(Br)ccc1O

> <score_type>
oracle

> <origin>
adg

> <m_score__min__energy>
-16.190000000000001

> <m_primary>
energy

> <minimizedAffinity>
-7.93424

> <minimizedRMSD>
0.69511

> <CNNscore>
0.6810323596

> <CNNaffinity>
6.9283919334

> <CNN_VS>
4.7184591293

> <CNNaffinity_variance>
0.1022192836

$$$$
4:0


 33 36  0  0  0  0  0  0  0  0999 V2000
   60.3210   28.8252   48.2074 C   0  0  0  0  0  0  0  0  0  0  0  0
   59.5742   29.3316   47.2085 C   0  0  0  0  0  0  0  0  0  0  0  0
   59.3606   28.6487   45.9704 C   0  0  0  0  0  0  0  0  0  0  0  0
   59.5579   27.3226   45.7541 C   0  0  0  0  0  0  0  0  0  0  0  0
   58.8805   29.4063   44.8861 C   0  0  0  0  0  0  0  0  0  0  0  0
   58.5023   30.7454   45.0368 C   0  0  0  0  0  0  0  0  0  0  0  0
   58.6015   31.3345   46.3111 C   0  0  0  0  0  0  0  0  0  0  0  0
   59.1098   30.6105   47.3505 N   0  0  0  0  0  0  0  0  0  0  0  0
   59.1438   31.0271   48.2419 H   0  0  0  0  0  0  0  0  0  0  0  0
   58.5787   26.2439   45.9764 C   0  0  0  0  0  0  0  0  0  0  0  0
   58.9210   24.9522   46.1250 N   0  0  0  0  0  0  0  0  0  0  0  0
   57.7295   24.3191   46.2044 C   0  0  0  0  0  0  0  0  0  0  0  0
   57.6339   23.0752   46.3633 O   0  0  0  0  0  0  0  0  0  0  0  0
   56.6517   25.1241   46.0896 N   0  0  0  0  0  0  0  0  0  0  0  0
   57.2042   26.3368   45.9327 C   0  0  0  0  0  0  0  0  0  0  0  0
   56.4693   27.4974   45.7201 O   0  0  0  0  0  0  0  0  0  0  0  0
   57.9605   31.4907   43.8383 C   0  0  0  0  0  0  0  0  0  0  0  0
   56.9096   30.6599   43.1087 C   0  0  0  0  0  0  0  0  0  0  0  0
   58.1939   32.7445   46.5341 C   0  0  0  0  0  0  0  0  0  0  0  0
   58.8102   33.5787   47.3855 C   0  0  0  0  0  0  0  0  0  0  0  0
   60.1709   33.3584   47.9199 C   0  0  0  0  0  0  0  0  0  0  0  0
   60.3303   32.9666   49.2568 C   0  0  0  0  0  0  0  0  0  0  0  0
   61.6010   32.6696   49.7561 C   0  0  0  0  0  0  0  0  0  0  0  0
   62.7317   32.7879   48.9344 C   0  0  0  0  0  0  0  0  0  0  0  0
   62.5777   33.2323   47.6120 C   0  0  0  0  0  0  0  0  0  0  0  0
   61.3071   33.5221   47.1107 C   0  0  0  0  0  0  0  0  0  0  0  0
   64.0823   32.3694   49.4440 C   0  0  0  0  0  0  0  0  0  0  0  0
   64.5082   33.2637   50.5235 N   0  0  0  0  0  0  0  0  0  0  0  0
   65.7418   33.4040   51.0620 C   0  0  0  0  0  0  0  0  0  0  0  0
   66.9606   32.6678   50.6065 C   0  0  0  0  0  0  0  0  0  0  0  0
   65.7507   34.2422   52.1209 N   0  0  0  0  0  0  0  0  0  0  0  0
   64.4693   34.6423   52.2409 C   0  0  0  0  0  0  0  0  0  0  0  0
   63.7030   34.0385   51.2695 C   0  0  0  0  0  0  0  0  0  0  0  0
  1  2  2  0
  2  3  1  0
  3  4  2  0
  4 10  1  0
 10 11  1  0
 11 12  1  0
 12 13  2  0
 12 14  1  0
 14 15  1  0
 15 16  1  0
  3  5  1  0
  5  6  2  0
  6 17  1  0
 17 18  1  0
  6  7  1  0
  7 19  1  0
 19 20  2  0
 20 21  1  0
 21 22  2  0
 22 23  1  0
 23 24  2  0
 24 27  1  0
 27 28  1  0
 28 29  1  0
 29 30  1  0
 29 31  2  0
 31 32  1  0
 32 33  2  0
 24 25  1  0
 25 26  2  0
  7  8  2  0
  8  2  1  0
 15 10  2  0
 26 21  1  0
 33 28  1  0
  8  9  1  0
M  CHG 1   8   1
M  CHG 1  11  -1
M  CHG 1  14  -1
M  CHG 1  16  -1
M  END
> <UniqueID>
5

> <SMILES>
C=c1[nH+]c(/C=C\c2ccc(Cn3ccnc3C)cc2)c(CC)c/c1=C/c1[n-]c(=O)[n-]c1[O-]

> <Energy>
141.74785380926497

> <Genealogy>
C=c1[nH+]c(C=Cc2ccc(Cn3ccnc3C)cc2)c(CC)cc1=Cc1[n-]c(=O)[n-]c1[O-] (protonated)
C=c1[nH+]c(/C=C\c2ccc(Cn3ccnc3C)cc2)c(CC)c/c1=C/c1[n-]c(=O)[n-]c1[O-] (cis-trans isomerization)
C=c1[nH+]c(/C=C\c2ccc(Cn3ccnc3C)cc2)c(CC)c/c1=C/c1[n-]c(=O)[n-]c1[O-] (3D coordinates assigned)
C=c1[nH+]c(/C=C\c2ccc(Cn3ccnc3C)cc2)c(CC)c/c1=C/c1[n-]c(=O)[n-]c1[O-] (optimized conformer: 141.74785380926497 kcal/mol)

> <smiles>
C=c1nc(C=Cc2ccc(Cn3ccnc3C)cc2)c(CC)cc1=Cc1[nH]c(=O)[nH]c1O

> <score_type>
oracle

> <origin>
adg

> <m_score__min__energy>
-16.82

> <m_primary>
energy

> <minimizedAffinity>
-8.68122

> <minimizedRMSD>
1.20912

> <CNNscore>
0.5597823858

> <CNNaffinity>
7.4553256035

> <CNN_VS>
4.1733598709

> <CNNaffinity_variance>
0.0311100502

$$$$
14:0


 26 28  0  0  0  0  0  0  0  0999 V2000
   59.5453   30.4925   47.1081 C   0  0  0  0  0  0  0  0  0  0  0  0
   59.0871   31.4257   46.2567 C   0  0  0  0  0  0  0  0  0  0  0  0
   58.6412   31.1895   44.9514 C   0  0  0  0  0  0  0  0  0  0  0  0
   58.5520   30.0054   44.3144 C   0  0  0  0  0  0  0  0  0  0  0  0
   58.2506   32.4183   44.4440 C   0  0  0  0  0  0  0  0  0  0  0  0
   58.4814   33.3491   45.4362 C   0  0  0  0  0  0  0  0  0  0  0  0
   58.1296   34.8015   45.3214 C   0  0  0  0  0  0  0  0  0  0  0  0
   58.9890   32.7523   46.5430 N   0  0  0  0  0  0  0  0  0  0  0  0
   58.2058   28.7359   44.9944 C   0  0  0  0  0  0  0  0  0  0  0  0
   56.8739   28.3935   45.2835 C   0  0  0  0  0  0  0  0  0  0  0  0
   55.8313   29.2466   44.9329 O   0  0  0  0  0  0  0  0  0  0  0  0
   56.5924   27.2111   45.8929 N   0  0  0  0  0  0  0  0  0  0  0  0
   57.5847   26.3351   46.2092 C   0  0  0  0  0  0  0  0  0  0  0  0
   57.3089   25.2427   46.7707 O   0  0  0  0  0  0  0  0  0  0  0  0
   58.8756   26.6322   45.9110 N   0  0  0  0  0  0  0  0  0  0  0  0
   59.2060   27.8034   45.3093 C   0  0  0  0  0  0  0  0  0  0  0  0
   60.4154   28.0436   45.0467 O   0  0  0  0  0  0  0  0  0  0  0  0
   55.6586   26.9857   46.1081 H   0  0  0  0  0  0  0  0  0  0  0  0
   59.2953   33.4360   47.8103 C   0  0  0  0  0  0  0  0  0  0  0  0
   60.7853   33.5091   48.0265 C   0  0  0  0  0  0  0  0  0  0  0  0
   61.6656   33.4501   46.9324 C   0  0  0  0  0  0  0  0  0  0  0  0
   63.0481   33.5028   47.1355 C   0  0  0  0  0  0  0  0  0  0  0  0
   63.5637   33.6136   48.4292 C   0  0  0  0  0  0  0  0  0  0  0  0
   62.6957   33.6741   49.5245 C   0  0  0  0  0  0  0  0  0  0  0  0
   63.4008   33.8223   51.2928 Br  0  0  0  0  0  0  0  0  0  0  0  0
   61.3110   33.6240   49.3249 C   0  0  0  0  0  0  0  0  0  0  0  0
  1  2  2  0
  2  3  1  0
  3  4  2  0
  4  9  1  0
  9 10  2  0
 10 11  1  0
 10 12  1  0
 12 13  1  0
 13 14  2  0
 13 15  1  0
 15 16  1  0
 16 17  2  0
  3  5  1  0
  5  6  2  0
  6  7  1  0
  6  8  1  0
  8 19  1  0
 19 20  1  0
 20 21  2  0
 21 22  1  0
 22 23  2  0
 23 24  1  0
 24 25  1  0
 24 26  2  0
  8  2  1  0
 26 20  1  0
 16  9  1  0
 12 18  1  0
M  CHG 1  11  -1
M  CHG 1  15  -1
M  END
> <UniqueID>
15

> <SMILES>
C=c1c(=Cc2c([O-])[nH]c(=O)[n-]c2=O)cc(C)n1Cc1cccc(Br)c1

> <Energy>
79.31618905705479

> <Genealogy>
C=c1c(=Cc2c([O-])[nH]c(=O)[n-]c2=O)cc(C)n1Cc1cccc(Br)c1 (protonated)
C=c1c(=Cc2c([O-])[nH]c(=O)[n-]c2=O)cc(C)n1Cc1cccc(Br)c1 (3D coordinates assigned)
C=c1c(=Cc2c([O-])[nH]c(=O)[n-]c2=O)cc(C)n1Cc1cccc(Br)c1 (optimized conformer: 79.31618905705479 kcal/mol)

> <smiles>
C=c1c(=Cc2c(O)[nH]c(=O)[nH]c2=O)cc(C)n1Cc1cccc(Br)c1

> <score_type>
oracle

> <origin>
adg

> <m_score__min__energy>
-14.27

> <m_primary>
energy

> <minimizedAffinity>
-8.08423

> <minimizedRMSD>
0.77313

> <CNNscore>
0.1522968113

> <CNNaffinity>
6.3044753075

> <CNN_VS>
0.9601514935

> <CNNaffinity_variance>
0.1162871048

$$$$
15:0


 27 29  0  0  0  0  0  0  0  0999 V2000
   60.7962   33.7318   48.1592 N   0  0  0  0  0  0  0  0  0  0  0  0
   61.2099   33.6157   46.7365 C   0  0  0  0  0  0  0  0  0  0  0  0
   60.0573   33.2714   45.7775 C   0  0  0  0  0  0  0  0  0  0  0  0
   59.0845   32.4078   46.4510 N   0  0  0  0  0  0  0  0  0  0  0  0
   58.6527   31.1583   45.8821 C   0  0  0  0  0  0  0  0  0  0  0  0
   57.4489   30.8020   46.0105 O   0  0  0  0  0  0  0  0  0  0  0  0
   58.4916   32.8704   47.7096 C   0  0  0  0  0  0  0  0  0  0  0  0
   59.3508   33.9776   48.3410 C   0  0  0  0  0  0  0  0  0  0  0  0
   61.3483   32.3668   49.1062 S   0  0  0  0  0  0  0  0  0  0  0  0
   60.3174   31.9897   50.1326 O   0  0  0  0  0  0  0  0  0  0  0  0
   61.5991   31.1796   48.2157 O   0  0  0  0  0  0  0  0  0  0  0  0
   65.1990   33.5637   51.2651 C   0  0  0  0  0  0  0  0  0  0  0  0
   65.2383   32.6155   50.2242 C   0  0  0  0  0  0  0  0  0  0  0  0
   64.0623   32.2434   49.5661 C   0  0  0  0  0  0  0  0  0  0  0  0
   62.8354   32.8094   49.9378 C   0  0  0  0  0  0  0  0  0  0  0  0
   62.7962   33.7559   50.9687 C   0  0  0  0  0  0  0  0  0  0  0  0
   63.9711   34.1279   51.6276 C   0  0  0  0  0  0  0  0  0  0  0  0
   67.6331   34.1273   51.3566 C   0  0  0  0  0  0  0  0  0  0  0  0
   66.3507   33.9715   51.9560 O   0  0  0  0  0  0  0  0  0  0  0  0
   59.6122   30.2639   45.1450 C   0  0  0  0  0  0  0  0  0  0  0  0
   59.6843   28.9142   45.7899 C   0  0  0  0  0  0  0  0  0  0  0  0
   60.2282   28.6868   46.9991 N   0  0  0  0  0  0  0  0  0  0  0  0
   60.0148   27.3660   47.1902 C   0  0  0  0  0  0  0  0  0  0  0  0
   60.3929   26.7630   48.2282 O   0  0  0  0  0  0  0  0  0  0  0  0
   59.3621   26.7453   46.1846 N   0  0  0  0  0  0  0  0  0  0  0  0
   59.1553   27.7417   45.3100 C   0  0  0  0  0  0  0  0  0  0  0  0
   58.4896   27.5835   44.0998 O   0  0  0  0  0  0  0  0  0  0  0  0
 18 19  1  0
 19 12  1  0
 12 13  2  0
 13 14  1  0
 14 15  2  0
 15  9  1  0
  9 10  2  0
  9 11  2  0
  9  1  1  0
  1  2  1  0
  2  3  1  0
  3  4  1  0
  4  5  1  0
  5  6  2  0
  5 20  1  0
 20 21  1  0
 21 22  1  0
 22 23  1  0
 23 24  2  0
 23 25  1  0
 25 26  1  0
 26 27  1  0
  4  7  1  0
  7  8  1  0
 15 16  1  0
 16 17  2  0
 17 12  1  0
  8  1  1  0
 26 21  2  0
M  CHG 1  22  -1
M  CHG 1  25  -1
M  CHG 1  27  -1
M  END
> <UniqueID>
16

> <SMILES>
COc1ccc(S(=O)(=O)N2CCN(C(=O)Cc3[n-]c(=O)[n-]c3[O-])CC2)cc1

> <Energy>
81.15174583446016

> <Genealogy>
COc1ccc(S(=O)(=O)N2CCN(C(=O)Cc3[n-]c(=O)[n-]c3[O-])CC2)cc1 (protonated)
COc1ccc(S(=O)(=O)N2CCN(C(=O)Cc3[n-]c(=O)[n-]c3[O-])CC2)cc1 (3D coordinates assigned)
COc1ccc(S(=O)(=O)N2CCN(C(=O)Cc3[n-]c(=O)[n-]c3[O-])CC2)cc1 (nonaromatic ring conformer: 81.15174583446016 kcal/mol)

> <smiles>
COc1ccc(S(=O)(=O)N2CCN(C(=O)Cc3[nH]c(=O)[nH]c3O)CC2)cc1

> <score_type>
oracle

> <origin>
adg

> <m_score__min__energy>
-16.190000000000001

> <m_primary>
energy

> <minimizedAffinity>
-6.14616

> <minimizedRMSD>
2.31111

> <CNNscore>
0.1788831800

> <CNNaffinity>
5.8128790855

> <CNN_VS>
1.0398262739

> <CNNaffinity_variance>
0.0128039001

$$$$
33:0


 31 33  0  0  0  0  0  0  0  0999 V2000
   56.1620   28.8838   44.7433 O   0  0  0  0  0  0  0  0  0  0  0  0
   57.3914   29.0164   44.5077 C   0  0  0  0  0  0  0  0  0  0  0  0
   58.2576   27.8233   44.3373 C   0  0  0  0  0  0  0  0  0  0  0  0
   58.9693   27.2271   45.3062 C   0  0  0  0  0  0  0  0  0  0  0  0
   58.4811   26.8965   46.6569 C   0  0  0  0  0  0  0  0  0  0  0  0
   58.2905   27.8303   47.4834 O   0  0  0  0  0  0  0  0  0  0  0  0
   58.1537   25.5462   47.0087 N   0  0  0  0  0  0  0  0  0  0  0  0
   57.3120   24.6928   46.2264 C   0  0  0  0  0  0  0  0  0  0  0  0
   55.9284   24.9144   46.2519 C   0  0  0  0  0  0  0  0  0  0  0  0
   55.0716   24.1290   45.4743 C   0  0  0  0  0  0  0  0  0  0  0  0
   53.7020   24.3686   45.4927 O   0  0  0  0  0  0  0  0  0  0  0  0
   55.5913   23.1086   44.6757 C   0  0  0  0  0  0  0  0  0  0  0  0
   56.9657   22.8568   44.6700 C   0  0  0  0  0  0  0  0  0  0  0  0
   57.8316   23.6259   45.4565 C   0  0  0  0  0  0  0  0  0  0  0  0
   59.1849   23.2865   45.4802 O   0  0  0  0  0  0  0  0  0  0  0  0
   59.4984   22.5741   44.9585 H   0  0  0  0  0  0  0  0  0  0  0  0
   57.9271   30.3418   44.4112 N   0  0  0  0  0  0  0  0  0  0  0  0
   58.4265   31.1338   45.4965 C   0  0  0  0  0  0  0  0  0  0  0  0
   58.1386   32.5051   45.5272 C   0  0  0  0  0  0  0  0  0  0  0  0
   58.6411   33.3099   46.5535 C   0  0  0  0  0  0  0  0  0  0  0  0
   59.4504   32.7526   47.5535 C   0  0  0  0  0  0  0  0  0  0  0  0
   59.7740   31.3902   47.5027 C   0  0  0  0  0  0  0  0  0  0  0  0
   59.2709   30.5866   46.4760 C   0  0  0  0  0  0  0  0  0  0  0  0
   60.1032   33.7669   48.8380 S   0  0  0  0  0  0  0  0  0  0  0  0
   59.6782   33.2103   50.1683 O   0  0  0  0  0  0  0  0  0  0  0  0
   59.5582   35.1631   48.7072 O   0  0  0  0  0  0  0  0  0  0  0  0
   61.8452   33.7744   48.7386 N   0  0  0  0  0  0  0  0  0  0  0  0
   62.4282   32.7138   49.5574 C   0  0  0  0  0  0  0  0  0  0  0  0
   63.7664   32.3663   48.9250 C   0  0  0  0  0  0  0  0  0  0  0  0
   63.6725   32.8611   47.4908 C   0  0  0  0  0  0  0  0  0  0  0  0
   62.3011   33.5106   47.3741 C   0  0  0  0  0  0  0  0  0  0  0  0
  1  2  2  0
  2  3  1  0
  3  4  2  0
  4  5  1  0
  5  6  2  0
  5  7  1  0
  7  8  1  0
  8  9  2  0
  9 10  1  0
 10 11  1  0
 10 12  2  0
 12 13  1  0
 13 14  2  0
 14 15  1  0
  2 17  1  0
 17 18  1  0
 18 19  2  0
 19 20  1  0
 20 21  2  0
 21 24  1  0
 24 25  2  0
 24 26  2  0
 24 27  1  0
 27 28  1  0
 28 29  1  0
 29 30  1  0
 30 31  1  0
 21 22  1  0
 22 23  2  0
 14  8  1  0
 23 18  1  0
 31 27  1  0
 15 16  1  0
M  CHG 1   7  -1
M  CHG 1  11  -1
M  CHG 1  17  -1
M  END
> <UniqueID>
34

> <SMILES>
O=C(C=CC(=O)[N-]c1cc([O-])ccc1O)[N-]c1ccc(S(=O)(=O)N2CCCC2)cc1

> <Energy>
68.68161310832984

> <Genealogy>
O=C(C=CC(=O)[N-]c1cc([O-])ccc1O)[N-]c1ccc(S(=O)(=O)N2CCCC2)cc1 (protonated)
O=C(C=CC(=O)[N-]c1cc([O-])ccc1O)[N-]c1ccc(S(=O)(=O)N2CCCC2)cc1 (3D coordinates assigned)
O=C(C=CC(=O)[N-]c1cc([O-])ccc1O)[N-]c1ccc(S(=O)(=O)N2CCCC2)cc1 (nonaromatic ring conformer: 68.68161310832984 kcal/mol)

> <smiles>
O=C(C=CC(=O)Nc1cc(O)ccc1O)Nc1ccc(S(=O)(=O)N2CCCC2)cc1

> <score_type>
oracle

> <origin>
adg

> <m_score__min__energy>
-15.390000000000001

> <m_primary>
energy

> <minimizedAffinity>
-7.40365

> <minimizedRMSD>
1.62158

> <CNNscore>
0.4632196128

> <CNNaffinity>
7.1251959801

> <CNN_VS>
3.3005304337

> <CNNaffinity_variance>
0.1991082877

$$$$
45:0


 28 31  0  0  0  0  0  0  0  0999 V2000
   58.9792   29.0856   46.4771 N   0  0  0  0  0  0  0  0  0  0  0  0
   58.3074   29.6963   45.4756 C   0  0  0  0  0  0  0  0  0  0  0  0
   58.1625   31.1801   45.3187 C   0  0  0  0  0  0  0  0  0  0  0  0
   57.8113   28.7628   44.5881 C   0  0  0  0  0  0  0  0  0  0  0  0
   58.1771   27.5150   45.0757 C   0  0  0  0  0  0  0  0  0  0  0  0
   57.9266   26.3253   44.4954 C   0  0  0  0  0  0  0  0  0  0  0  0
   58.9099   27.7506   46.2445 C   0  0  0  0  0  0  0  0  0  0  0  0
   59.4879   26.8215   47.0228 C   0  0  0  0  0  0  0  0  0  0  0  0
   57.4500   25.1366   45.2246 C   0  0  0  0  0  0  0  0  0  0  0  0
   58.1693   24.0054   45.3426 N   0  0  0  0  0  0  0  0  0  0  0  0
   57.4058   23.2308   46.1429 C   0  0  0  0  0  0  0  0  0  0  0  0
   57.7429   22.0657   46.4797 O   0  0  0  0  0  0  0  0  0  0  0  0
   56.2589   23.8062   46.5641 N   0  0  0  0  0  0  0  0  0  0  0  0
   56.3067   25.0159   45.9849 C   0  0  0  0  0  0  0  0  0  0  0  0
   55.3489   26.0024   46.1876 O   0  0  0  0  0  0  0  0  0  0  0  0
   60.9097   31.0267   49.7306 C   0  0  0  0  0  0  0  0  0  0  0  0
   59.7371   30.2843   49.9419 C   0  0  0  0  0  0  0  0  0  0  0  0
   59.0980   29.6520   48.8702 C   0  0  0  0  0  0  0  0  0  0  0  0
   59.6297   29.7448   47.5773 C   0  0  0  0  0  0  0  0  0  0  0  0
   60.8145   30.4653   47.3673 C   0  0  0  0  0  0  0  0  0  0  0  0
   61.4536   31.0976   48.4390 C   0  0  0  0  0  0  0  0  0  0  0  0
   64.8368   33.4378   51.2025 C   0  0  0  0  0  0  0  0  0  0  0  0
   65.0370   32.8036   50.0538 C   0  0  0  0  0  0  0  0  0  0  0  0
   63.8125   32.0762   49.6225 C   0  0  0  0  0  0  0  0  0  0  0  0
   62.8517   32.3692   50.6805 N   0  0  0  0  0  0  0  0  0  0  0  0
   61.5985   31.6862   50.8582 C   0  0  0  0  0  0  0  0  0  0  0  0
   61.0789   31.6318   52.0059 O   0  0  0  0  0  0  0  0  0  0  0  0
   63.4562   33.2091   51.7073 C   0  0  0  0  0  0  0  0  0  0  0  0
 22 23  2  0
 23 24  1  0
 24 25  1  0
 25 26  1  0
 26 27  2  0
 26 16  1  0
 16 17  2  0
 17 18  1  0
 18 19  2  0
 19  1  1  0
  1  2  1  0
  2  3  1  0
  2  4  2  0
  4  5  1  0
  5  6  2  0
  6  9  1  0
  9 10  1  0
 10 11  1  0
 11 12  2  0
 11 13  1  0
 13 14  1  0
 14 15  1  0
  5  7  1  0
  7  8  2  0
 19 20  1  0
 20 21  2  0
 25 28  1  0
 28 22  1  0
 21 16  1  0
  7  1  1  0
 14  9  2  0
M  CHG 1  10  -1
M  CHG 1  13  -1
M  CHG 1  15  -1
M  END
> <UniqueID>
46

> <SMILES>
C=c1/c(=C/c2[n-]c(=O)[n-]c2[O-])cc(C)n1-c1ccc(C(=O)N2CC=CC2)cc1

> <Energy>
129.9754707970785

> <Genealogy>
C=c1c(=Cc2[n-]c(=O)[n-]c2[O-])cc(C)n1-c1ccc(C(=O)N2CC=CC2)cc1 (protonated)
C=c1/c(=C/c2[n-]c(=O)[n-]c2[O-])cc(C)n1-c1ccc(C(=O)N2CC=CC2)cc1 (cis-trans isomerization)
C=c1/c(=C/c2[n-]c(=O)[n-]c2[O-])cc(C)n1-c1ccc(C(=O)N2CC=CC2)cc1 (3D coordinates assigned)
C=c1/c(=C/c2[n-]c(=O)[n-]c2[O-])cc(C)n1-c1ccc(C(=O)N2CC=CC2)cc1 (nonaromatic ring conformer: 129.9754707970785 kcal/mol)

> <smiles>
C=c1c(=Cc2[nH]c(=O)[nH]c2O)cc(C)n1-c1ccc(C(=O)N2CC=CC2)cc1

> <score_type>
oracle

> <origin>
adg

> <m_score__min__energy>
-15.73

> <m_primary>
energy

> <minimizedAffinity>
-8.58548

> <minimizedRMSD>
1.31426

> <CNNscore>
0.1940610111

> <CNNaffinity>
6.4233818054

> <CNN_VS>
1.2465279102

> <CNNaffinity_variance>
0.0425672121

$$$$
46:0


 24 26  0  0  0  0  0  0  0  0999 V2000
   54.5674   28.1396   54.5504 C   0  0  0  0  0  0  0  0  0  0  0  0
   55.3154   28.9459   53.7715 C   0  0  0  0  0  0  0  0  0  0  0  0
   56.7011   28.6989   53.7377 C   0  0  0  0  0  0  0  0  0  0  0  0
   57.5666   29.5144   53.0161 C   0  0  0  0  0  0  0  0  0  0  0  0
   57.0755   30.6099   52.3010 C   0  0  0  0  0  0  0  0  0  0  0  0
   55.6961   30.8532   52.2897 C   0  0  0  0  0  0  0  0  0  0  0  0
   54.7857   30.0476   53.0182 C   0  0  0  0  0  0  0  0  0  0  0  0
   53.4498   30.2985   52.9397 C   0  0  0  0  0  0  0  0  0  0  0  0
   52.6966   30.5238   51.6903 C   0  0  0  0  0  0  0  0  0  0  0  0
   52.7445   29.6891   50.6364 N   0  0  0  0  0  0  0  0  0  0  0  0
   51.8414   30.2136   49.7791 C   0  0  0  0  0  0  0  0  0  0  0  0
   51.6081   29.7104   48.6496 O   0  0  0  0  0  0  0  0  0  0  0  0
   51.2013   31.3131   50.2326 N   0  0  0  0  0  0  0  0  0  0  0  0
   51.7443   31.4900   51.4476 C   0  0  0  0  0  0  0  0  0  0  0  0
   51.3527   32.4899   52.3282 O   0  0  0  0  0  0  0  0  0  0  0  0
   57.9700   31.4801   51.4897 C   0  0  0  0  0  0  0  0  0  0  0  0
   58.1152   32.6789   51.8581 O   0  0  0  0  0  0  0  0  0  0  0  0
   58.6953   31.0211   50.3174 N   0  0  0  0  0  0  0  0  0  0  0  0
   58.7888   32.0330   49.2454 C   0  0  0  0  0  0  0  0  0  0  0  0
   59.4786   31.4325   47.9966 C   0  0  0  0  0  0  0  0  0  0  0  0
   60.1881   30.2342   48.2759 O   0  0  0  0  0  0  0  0  0  0  0  0
   60.9503   30.3825   49.4576 C   0  0  0  0  0  0  0  0  0  0  0  0
   60.0241   30.4837   50.6846 C   0  0  0  0  0  0  0  0  0  0  0  0
   59.1271   30.4832   51.0199 H   0  0  0  0  0  0  0  0  0  0  0  0
  1  2  2  0
  2  3  1  0
  3  4  2  0
  4  5  1  0
  5 16  1  0
 16 17  2  0
 16 18  1  0
 18 19  1  0
 19 20  1  0
 20 21  1  0
 21 22  1  0
 22 23  1  0
  5  6  2  0
  6  7  1  0
  7  8  2  0
  8  9  1  0
  9 10  1  0
 10 11  1  0
 11 12  2  0
 11 13  1  0
 13 14  1  0
 14 15  1  0
  7  2  1  0
 14  9  2  0
 23 18  1  0
 18 24  1  0
M  CHG 1  10  -1
M  CHG 1  13  -1
M  CHG 1  15  -1
M  CHG 1  18   1
M  END
> <UniqueID>
47

> <SMILES>
C=c1ccc(C(=O)[NH+]2CCOCC2)cc1=Cc1[n-]c(=O)[n-]c1[O-]

> <Energy>
104.64736315788947

> <Genealogy>
C=c1ccc(C(=O)[NH+]2CCOCC2)cc1=Cc1[n-]c(=O)[n-]c1[O-] (protonated)
C=c1ccc(C(=O)[NH+]2CCOCC2)cc1=Cc1[n-]c(=O)[n-]c1[O-] (3D coordinates assigned)
C=c1ccc(C(=O)[NH+]2CCOCC2)cc1=Cc1[n-]c(=O)[n-]c1[O-] (nonaromatic ring conformer: 104.64736315788947 kcal/mol)

> <smiles>
C=c1ccc(C(=O)N2CCOCC2)cc1=Cc1[nH]c(=O)[nH]c1O

> <score_type>
oracle

> <origin>
adg

> <m_score__min__energy>
-15.119999999999999

> <m_primary>
energy

> <minimizedAffinity>
-5.39471

> <minimizedRMSD>
1.28491

> <CNNscore>
0.0699166879

> <CNNaffinity>
4.0592761040

> <CNN_VS>
0.2838111520

> <CNNaffinity_variance>
0.2457213253

$$$$
50:0


 25 26  0  0  0  0  0  0  0  0999 V2000
   59.5874   29.3893   45.6954 C   0  0  0  0  0  0  0  0  0  0  0  0
   59.3737   30.5838   46.3093 C   0  0  0  0  0  0  0  0  0  0  0  0
   58.7429   31.5809   45.5372 C   0  0  0  0  0  0  0  0  0  0  0  0
   58.3219   32.7782   46.1050 C   0  0  0  0  0  0  0  0  0  0  0  0
   57.4973   33.9732   45.1200 Cl  0  0  0  0  0  0  0  0  0  0  0  0
   58.5041   33.0069   47.4625 C   0  0  0  0  0  0  0  0  0  0  0  0
   59.1745   32.0734   48.2639 C   0  0  0  0  0  0  0  0  0  0  0  0
   59.7189   30.8943   47.6715 C   0  0  0  0  0  0  0  0  0  0  0  0
   60.6627   30.1961   48.3403 C   0  0  0  0  0  0  0  0  0  0  0  0
   58.8853   28.1145   45.9765 C   0  0  0  0  0  0  0  0  0  0  0  0
   57.5343   27.9249   45.6347 C   0  0  0  0  0  0  0  0  0  0  0  0
   56.8062   28.9372   45.0218 O   0  0  0  0  0  0  0  0  0  0  0  0
   56.9315   26.7346   45.8877 N   0  0  0  0  0  0  0  0  0  0  0  0
   57.6175   25.7071   46.4487 C   0  0  0  0  0  0  0  0  0  0  0  0
   57.0366   24.6153   46.6762 O   0  0  0  0  0  0  0  0  0  0  0  0
   58.9309   25.8527   46.7555 N   0  0  0  0  0  0  0  0  0  0  0  0
   59.5797   27.0235   46.5253 C   0  0  0  0  0  0  0  0  0  0  0  0
   60.8010   27.1235   46.8201 O   0  0  0  0  0  0  0  0  0  0  0  0
   59.3088   32.3933   49.7110 C   0  0  0  0  0  0  0  0  0  0  0  0
   58.5724   31.7995   50.5409 O   0  0  0  0  0  0  0  0  0  0  0  0
   60.2113   33.4010   50.1907 N   0  0  0  0  0  0  0  0  0  0  0  0
   61.3386   33.2075   50.8120 C   0  0  0  0  0  0  0  0  0  0  0  0
   61.6927   31.9506   51.3980 N   0  0  0  0  0  0  0  0  0  0  0  0
   61.0724   31.1883   51.3400 H   0  0  0  0  0  0  0  0  0  0  0  0
   62.5565   31.8484   51.8590 H   0  0  0  0  0  0  0  0  0  0  0  0
  1 10  1  0
 10 11  2  0
 11 12  1  0
 11 13  1  0
 13 14  1  0
 14 15  2  0
 14 16  1  0
 16 17  1  0
 17 18  2  0
  1  2  2  0
  2  3  1  0
  3  4  2  0
  4  5  1  0
  4  6  1  0
  6  7  2  0
  7 19  1  0
 19 20  2  0
 19 21  1  0
 21 22  2  0
 22 23  1  0
  7  8  1  0
  8  9  2  0
 17 10  1  0
  8  2  1  0
 23 24  1  0
 23 25  1  0
M  CHG 1  12  -1
M  CHG 1  13  -1
M  CHG 1  16  -1
M  END
> <UniqueID>
51

> <SMILES>
C=c1c(C(=O)/N=C\N)cc(Cl)cc1=Cc1c([O-])[n-]c(=O)[n-]c1=O

> <Energy>
69.1165701556686

> <Genealogy>
C=c1c(C(=O)N=CN)cc(Cl)cc1=Cc1c([O-])[n-]c(=O)[n-]c1=O (protonated)
C=c1c(C(=O)/N=C\N)cc(Cl)cc1=Cc1c([O-])[n-]c(=O)[n-]c1=O (cis-trans isomerization)
C=c1c(C(=O)/N=C\N)cc(Cl)cc1=Cc1c([O-])[n-]c(=O)[n-]c1=O (3D coordinates assigned)
C=c1c(C(=O)/N=C\N)cc(Cl)cc1=Cc1c([O-])[n-]c(=O)[n-]c1=O (optimized conformer: 69.1165701556686 kcal/mol)

> <smiles>
C=c1c(C(=O)N=CN)cc(Cl)cc1=Cc1c(O)[nH]c(=O)[nH]c1=O

> <score_type>
oracle

> <origin>
adg

> <m_score__min__energy>
-14.84

> <m_primary>
energy

> <minimizedAffinity>
-7.08690

> <minimizedRMSD>
2.11920

> <CNNscore>
0.7148302794

> <CNNaffinity>
6.8956642151

> <CNN_VS>
4.9292297363

> <CNNaffinity_variance>
0.5780811906

$$$$
52:0


 27 29  0  0  0  0  0  0  0  0999 V2000
   60.6300   33.0047   50.5272 C   0  0  0  0  0  0  0  0  0  0  0  0
   60.1745   33.4438   51.6187 O   0  0  0  0  0  0  0  0  0  0  0  0
   60.7573   31.5821   50.3366 N   0  0  0  0  0  0  0  0  0  0  0  0
   61.8723   31.0035   49.5713 C   0  0  0  0  0  0  0  0  0  0  0  0
   61.3525   29.9655   48.5635 C   0  0  0  0  0  0  0  0  0  0  0  0
   60.1884   29.0973   49.1134 C   0  0  0  0  0  0  0  0  0  0  0  0
   60.0335   29.2207   50.6359 C   0  0  0  0  0  0  0  0  0  0  0  0
   59.8221   30.6879   51.0346 C   0  0  0  0  0  0  0  0  0  0  0  0
   61.0526   33.9825   49.4605 C   0  0  0  0  0  0  0  0  0  0  0  0
   57.4972   33.8924   44.8954 C   0  0  0  0  0  0  0  0  0  0  0  0
   58.3988   33.9117   46.0883 C   0  0  0  0  0  0  0  0  0  0  0  0
   58.0585   33.1975   47.2442 C   0  0  0  0  0  0  0  0  0  0  0  0
   58.9209   33.2166   48.3418 C   0  0  0  0  0  0  0  0  0  0  0  0
   60.1243   33.9319   48.2735 C   0  0  0  0  0  0  0  0  0  0  0  0
   60.4270   34.6376   47.0991 C   0  0  0  0  0  0  0  0  0  0  0  0
   59.5672   34.6089   46.0454 N   0  0  0  0  0  0  0  0  0  0  0  0
   60.3959   27.6937   48.7673 N   0  0  0  0  0  0  0  0  0  0  0  0
   59.7627   27.0504   47.6569 C   0  0  0  0  0  0  0  0  0  0  0  0
   58.7936   26.2698   47.8410 O   0  0  0  0  0  0  0  0  0  0  0  0
   60.2418   27.3303   46.2687 C   0  0  0  0  0  0  0  0  0  0  0  0
   59.2791   28.2475   45.5572 C   0  0  0  0  0  0  0  0  0  0  0  0
   59.4440   29.6408   45.6489 C   0  0  0  0  0  0  0  0  0  0  0  0
   58.5716   30.4999   44.9771 C   0  0  0  0  0  0  0  0  0  0  0  0
   57.5335   29.9778   44.2003 C   0  0  0  0  0  0  0  0  0  0  0  0
   57.3673   28.5947   44.0942 C   0  0  0  0  0  0  0  0  0  0  0  0
   58.2356   27.7262   44.7664 C   0  0  0  0  0  0  0  0  0  0  0  0
   58.0567   26.3520   44.6436 O   0  0  0  0  0  0  0  0  0  0  0  0
 10 11  1  0
 11 12  2  0
 12 13  1  0
 13 14  2  0
 14  9  1  0
  9  1  1  0
  1  2  2  0
  1  3  1  0
  3  4  1  0
  4  5  1  0
  5  6  1  0
  6 17  1  0
 17 18  1  0
 18 19  2  0
 18 20  1  0
 20 21  1  0
 21 22  2  0
 22 23  1  0
 23 24  2  0
 24 25  1  0
 25 26  2  0
 26 27  1  0
  6  7  1  0
  7  8  1  0
 14 15  1  0
 15 16  2  0
 16 11  1  0
  8  3  1  0
 26 21  1  0
M  CHG 1  17  -1
M  CHG 1  27  -1
M  END
> <UniqueID>
52

> <SMILES>
Cc1ccc(CC(=O)N2CCC([N-]C(=O)Cc3ccccc3[O-])CC2)cn1

> <Energy>
50.50731085828726

> <Genealogy>
Cc1ccc(CC(=O)N2CCC([N-]C(=O)Cc3ccccc3[O-])CC2)cn1 (protonated)
Cc1ccc(CC(=O)N2CCC([N-]C(=O)Cc3ccccc3[O-])CC2)cn1 (3D coordinates assigned)
Cc1ccc(CC(=O)N2CCC([N-]C(=O)Cc3ccccc3[O-])CC2)cn1 (nonaromatic ring conformer: 50.50731085828726 kcal/mol)

> <smiles>
Cc1ccc(CC(=O)N2CCC(NC(=O)Cc3ccccc3O)CC2)cn1

> <score_type>
oracle

> <origin>
adg

> <m_score__min__energy>
-14.109999999999999

> <m_primary>
energy

> <minimizedAffinity>
-6.36124

> <minimizedRMSD>
1.51031

> <CNNscore>
0.2141881138

> <CNNaffinity>
6.3756847382

> <CNN_VS>
1.3655959368

> <CNNaffinity_variance>
0.0126916096

$$$$
59:0


 36 39  0  0  0  0  0  0  0  0999 V2000
   55.7819   27.0072   55.6964 C   0  0  0  0  0  0  0  0  0  0  0  0
   55.5639   26.1891   56.8119 C   0  0  0  0  0  0  0  0  0  0  0  0
   56.4182   25.1195   57.0742 C   0  0  0  0  0  0  0  0  0  0  0  0
   57.4949   24.8567   56.2230 C   0  0  0  0  0  0  0  0  0  0  0  0
   57.7355   25.6745   55.1019 C   0  0  0  0  0  0  0  0  0  0  0  0
   56.8626   26.7438   54.8401 C   0  0  0  0  0  0  0  0  0  0  0  0
   53.3459   26.9480   54.0271 C   0  0  0  0  0  0  0  0  0  0  0  0
   53.7340   28.0389   54.7052 C   0  0  0  0  0  0  0  0  0  0  0  0
   53.1353   29.3102   54.6943 C   0  0  0  0  0  0  0  0  0  0  0  0
   51.9677   29.7350   54.1723 C   0  0  0  0  0  0  0  0  0  0  0  0
   53.9995   30.1506   55.3781 C   0  0  0  0  0  0  0  0  0  0  0  0
   55.0555   29.3771   55.8120 C   0  0  0  0  0  0  0  0  0  0  0  0
   56.1657   29.8626   56.6942 C   0  0  0  0  0  0  0  0  0  0  0  0
   54.8878   28.0952   55.4175 N   0  0  0  0  0  0  0  0  0  0  0  0
   51.7629   30.1873   52.7877 C   0  0  0  0  0  0  0  0  0  0  0  0
   52.0563   29.4409   51.7077 N   0  0  0  0  0  0  0  0  0  0  0  0
   51.8047   30.2787   50.6772 C   0  0  0  0  0  0  0  0  0  0  0  0
   51.9494   29.9361   49.4734 O   0  0  0  0  0  0  0  0  0  0  0  0
   51.3921   31.5150   51.0356 N   0  0  0  0  0  0  0  0  0  0  0  0
   51.3811   31.4423   52.3765 C   0  0  0  0  0  0  0  0  0  0  0  0
   51.0413   32.5037   53.2045 O   0  0  0  0  0  0  0  0  0  0  0  0
   58.8737   25.3947   54.1946 C   0  0  0  0  0  0  0  0  0  0  0  0
   58.7023   24.6612   53.1851 O   0  0  0  0  0  0  0  0  0  0  0  0
   60.1716   25.9587   54.4345 N   0  0  0  0  0  0  0  0  0  0  0  0
   61.3527   25.0968   54.5137 C   0  0  0  0  0  0  0  0  0  0  0  0
   62.4851   25.7006   53.6822 C   0  0  0  0  0  0  0  0  0  0  0  0
   62.7173   27.1079   54.0633 N   0  0  0  0  0  0  0  0  0  0  0  0
   61.5091   27.9141   53.8138 C   0  0  0  0  0  0  0  0  0  0  0  0
   60.3388   27.3985   54.6525 C   0  0  0  0  0  0  0  0  0  0  0  0
   64.0779   27.7563   53.1676 S   0  0  0  0  0  0  0  0  0  0  0  0
   63.6122   28.6697   52.0684 O   0  0  0  0  0  0  0  0  0  0  0  0
   64.9942   28.5315   54.0765 O   0  0  0  0  0  0  0  0  0  0  0  0
   65.0208   26.4088   52.4626 C   0  0  0  0  0  0  0  0  0  0  0  0
   66.4593   26.8169   52.1398 C   0  0  0  0  0  0  0  0  0  0  0  0
   66.8201   26.3685   50.8446 O   0  0  0  0  0  0  0  0  0  0  0  0
   67.8870   27.1353   50.3339 C   0  0  0  0  0  0  0  0  0  0  0  0
  7  8  2  0
  8  9  1  0
  9 10  2  0
 10 15  1  0
 15 16  1  0
 16 17  1  0
 17 18  2  0
 17 19  1  0
 19 20  1  0
 20 21  1  0
  9 11  1  0
 11 12  2  0
 12 13  1  0
 12 14  1  0
 14  1  1  0
  1  2  2  0
  2  3  1  0
  3  4  2  0
  4  5  1  0
  5 22  1  0
 22 23  2  0
 22 24  1  0
 24 25  1  0
 25 26  1  0
 26 27  1  0
 27 30  1  0
 30 31  2  0
 30 32  2  0
 30 33  1  0
 33 34  1  0
 34 35  1  0
 35 36  1  0
 27 28  1  0
 28 29  1  0
  5  6  2  0
 14  8  1  0
  6  1  1  0
 20 15  2  0
 29 24  1  0
M  CHG 1  16  -1
M  CHG 1  19  -1
M  CHG 1  21  -1
M  END
> <UniqueID>
59

> <SMILES>
C=c1c(=Cc2[n-]c(=O)[n-]c2[O-])cc(C)n1-c1cccc(C(=O)N2CCN(S(=O)(=O)CCOC)CC2)c1

> <Energy>
142.38096945071013

> <Genealogy>
C=c1c(=Cc2[n-]c(=O)[n-]c2[O-])cc(C)n1-c1cccc(C(=O)N2CCN(S(=O)(=O)CCOC)CC2)c1 (protonated)
C=c1c(=Cc2[n-]c(=O)[n-]c2[O-])cc(C)n1-c1cccc(C(=O)N2CCN(S(=O)(=O)CCOC)CC2)c1 (3D coordinates assigned)
C=c1c(=Cc2[n-]c(=O)[n-]c2[O-])cc(C)n1-c1cccc(C(=O)N2CCN(S(=O)(=O)CCOC)CC2)c1 (nonaromatic ring conformer: 142.38096945071013 kcal/mol)

> <smiles>
C=c1c(=Cc2[nH]c(=O)[nH]c2O)cc(C)n1-c1cccc(C(=O)N2CCN(S(=O)(=O)CCOC)CC2)c1

> <score_type>
oracle

> <origin>
adg

> <m_score__min__energy>
-18.57

> <m_primary>
energy

> <minimizedAffinity>
-4.30958

> <minimizedRMSD>
1.32235

> <CNNscore>
0.1952177584

> <CNNaffinity>
4.9557757378

> <CNN_VS>
0.9674554467

> <CNNaffinity_variance>
0.1409339011

$$$$
71:0


 30 33  0  0  0  0  0  0  0  0999 V2000
   58.1358   25.5619   47.4728 C   0  0  0  0  0  0  0  0  0  0  0  0
   57.8455   25.5973   46.1626 C   0  0  0  0  0  0  0  0  0  0  0  0
   57.3446   24.5465   45.3763 C   0  0  0  0  0  0  0  0  0  0  0  0
   56.8422   23.3464   45.7223 C   0  0  0  0  0  0  0  0  0  0  0  0
   57.4412   24.9681   44.0601 C   0  0  0  0  0  0  0  0  0  0  0  0
   57.9164   26.2634   44.0886 C   0  0  0  0  0  0  0  0  0  0  0  0
   58.1582   27.1092   42.8753 C   0  0  0  0  0  0  0  0  0  0  0  0
   58.1600   26.6473   45.3614 N   0  0  0  0  0  0  0  0  0  0  0  0
   55.4139   23.0316   45.8857 C   0  0  0  0  0  0  0  0  0  0  0  0
   54.9229   21.7794   45.8701 N   0  0  0  0  0  0  0  0  0  0  0  0
   53.5857   21.9695   45.9225 C   0  0  0  0  0  0  0  0  0  0  0  0
   52.7670   21.0138   45.9415 O   0  0  0  0  0  0  0  0  0  0  0  0
   53.1954   23.2627   45.9372 N   0  0  0  0  0  0  0  0  0  0  0  0
   54.3631   23.9217   45.8987 C   0  0  0  0  0  0  0  0  0  0  0  0
   54.4652   25.3064   45.8476 O   0  0  0  0  0  0  0  0  0  0  0  0
   58.6887   27.9226   45.7667 C   0  0  0  0  0  0  0  0  0  0  0  0
   59.9925   28.0181   46.2642 C   0  0  0  0  0  0  0  0  0  0  0  0
   60.4929   29.2203   46.6476 N   0  0  0  0  0  0  0  0  0  0  0  0
   59.7675   30.3679   46.5588 C   0  0  0  0  0  0  0  0  0  0  0  0
   58.4483   30.3132   46.0805 C   0  0  0  0  0  0  0  0  0  0  0  0
   57.9033   29.0826   45.6720 C   0  0  0  0  0  0  0  0  0  0  0  0
   60.3465   31.6113   46.9986 N   0  0  0  0  0  0  0  0  0  0  0  0
   61.4137   31.6415   48.0094 C   0  0  0  0  0  0  0  0  0  0  0  0
   62.4852   32.6911   47.6482 C   0  0  0  0  0  0  0  0  0  0  0  0
   61.9895   33.7515   46.7500 N   0  0  0  0  0  0  0  0  0  0  0  0
   60.5813   34.0701   47.0024 C   0  0  0  0  0  0  0  0  0  0  0  0
   59.7148   32.8747   46.5980 C   0  0  0  0  0  0  0  0  0  0  0  0
   62.0883   33.4381   45.7844 H   0  0  0  0  0  0  0  0  0  0  0  0
   56.5972   28.9737   45.1686 O   0  0  0  0  0  0  0  0  0  0  0  0
   56.0192   29.8686   44.2249 C   0  0  0  0  0  0  0  0  0  0  0  0
  1  2  2  0
  2  3  1  0
  3  4  2  0
  4  9  1  0
  9 10  1  0
 10 11  1  0
 11 12  2  0
 11 13  1  0
 13 14  1  0
 14 15  1  0
  3  5  1  0
  5  6  2  0
  6  7  1  0
  6  8  1  0
  8 16  1  0
 16 17  2  0
 17 18  1  0
 18 19  2  0
 19 22  1  0
 22 23  1  0
 23 24  1  0
 24 25  1  0
 25 26  1  0
 26 27  1  0
 19 20  1  0
 20 21  2  0
 21 29  1  0
 29 30  1  0
  8  2  1  0
 21 16  1  0
 14  9  2  0
 27 22  1  0
 25 28  1  0
M  CHG 1  10  -1
M  CHG 1  13  -1
M  CHG 1  15  -1
M  END
> <UniqueID>
70

> <SMILES>
C=c1/c(=C\c2[n-]c(=O)[n-]c2[O-])cc(C)n1-c1cnc(N2CCNCC2)cc1OC

> <Energy>
135.24845417947083

> <Genealogy>
C=c1c(=Cc2[n-]c(=O)[n-]c2[O-])cc(C)n1-c1cnc(N2CCNCC2)cc1OC (protonated)
C=c1/c(=C\c2[n-]c(=O)[n-]c2[O-])cc(C)n1-c1cnc(N2CCNCC2)cc1OC (cis-trans isomerization)
C=c1/c(=C\c2[n-]c(=O)[n-]c2[O-])cc(C)n1-c1cnc(N2CCNCC2)cc1OC (3D coordinates assigned)
C=c1/c(=C\c2[n-]c(=O)[n-]c2[O-])cc(C)n1-c1cnc(N2CCNCC2)cc1OC (nonaromatic ring conformer: 135.24845417947083 kcal/mol)

> <smiles>
C=c1c(=Cc2[nH]c(=O)[nH]c2O)cc(C)n1-c1cnc(N2CCNCC2)cc1OC

> <score_type>
oracle

> <origin>
adg

> <m_score__min__energy>
-15.34

> <m_primary>
energy

> <minimizedAffinity>
-7.21718

> <minimizedRMSD>
0.87340

> <CNNscore>
0.0385170467

> <CNNaffinity>
5.2663378716

> <CNN_VS>
0.2028437853

> <CNNaffinity_variance>
0.5727319121

$$$$
73:0


 29 32  0  0  0  0  0  0  0  0999 V2000
   59.1264   30.0532   53.8339 N   0  0  0  0  0  0  0  0  0  0  0  0
   57.8400   29.8373   53.7907 C   0  0  0  0  0  0  0  0  0  0  0  0
   57.1889   29.6601   54.9715 N   0  0  0  0  0  0  0  0  0  0  0  0
   55.8785   29.4250   55.0362 N   0  0  0  0  0  0  0  0  0  0  0  0
   55.1111   29.3613   53.9178 C   0  0  0  0  0  0  0  0  0  0  0  0
   55.7114   29.5503   52.6708 C   0  0  0  0  0  0  0  0  0  0  0  0
   57.0790   29.8145   52.5962 C   0  0  0  0  0  0  0  0  0  0  0  0
   57.6283   30.0947   51.3518 O   0  0  0  0  0  0  0  0  0  0  0  0
   60.4146   28.1495   54.2631 O   0  0  0  0  0  0  0  0  0  0  0  0
   60.2082   29.1565   53.5362 C   0  0  0  0  0  0  0  0  0  0  0  0
   61.1646   29.4634   52.4581 C   0  0  0  0  0  0  0  0  0  0  0  0
   60.9186   29.1646   51.1750 C   0  0  0  0  0  0  0  0  0  0  0  0
   61.2803   30.0473   50.0392 C   0  0  0  0  0  0  0  0  0  0  0  0
   60.6562   29.9479   48.7630 C   0  0  0  0  0  0  0  0  0  0  0  0
   61.0229   30.8145   47.7178 C   0  0  0  0  0  0  0  0  0  0  0  0
   62.0000   31.7677   47.9735 C   0  0  0  0  0  0  0  0  0  0  0  0
   62.5922   31.8800   49.1878 C   0  0  0  0  0  0  0  0  0  0  0  0
   62.2608   31.0458   50.2504 C   0  0  0  0  0  0  0  0  0  0  0  0
   63.5141   32.9082   49.1565 O   0  0  0  0  0  0  0  0  0  0  0  0
   63.5001   33.4772   47.8404 C   0  0  0  0  0  0  0  0  0  0  0  0
   62.5193   32.7199   47.1175 O   0  0  0  0  0  0  0  0  0  0  0  0
   53.6492   29.0528   54.0316 C   0  0  0  0  0  0  0  0  0  0  0  0
   52.8491   30.0748   53.2859 C   0  0  0  0  0  0  0  0  0  0  0  0
   53.0086   30.4247   51.6457 S   0  0  0  0  0  0  0  0  0  0  0  0
   51.7403   31.5280   51.6745 C   0  0  0  0  0  0  0  0  0  0  0  0
   51.3461   32.1814   50.6737 O   0  0  0  0  0  0  0  0  0  0  0  0
   51.1750   31.6407   52.8955 N   0  0  0  0  0  0  0  0  0  0  0  0
   51.7888   30.8251   53.7920 C   0  0  0  0  0  0  0  0  0  0  0  0
   51.3743   30.7524   55.1150 O   0  0  0  0  0  0  0  0  0  0  0  0
  9 10  2  0
 10 11  1  0
 11 12  2  0
 12 13  1  0
 13 14  2  0
 14 15  1  0
 15 16  2  0
 16 17  1  0
 17 18  2  0
 17 19  1  0
 19 20  1  0
 20 21  1  0
 10  1  1  0
  1  2  2  0
  2  3  1  0
  3  4  1  0
  4  5  2  0
  5 22  1  0
 22 23  1  0
 23 24  1  0
 24 25  1  0
 25 26  2  0
 25 27  1  0
 27 28  1  0
 28 29  1  0
  5  6  1  0
  6  7  2  0
  7  8  1  0
 18 13  1  0
  7  2  1  0
 21 16  1  0
 28 23  2  0
M  CHG 1   3  -1
M  CHG 1   8  -1
M  CHG 1  27  -1
M  CHG 1  29  -1
M  END
> <UniqueID>
72

> <SMILES>
O=C(C=Cc1ccc2c(c1)OCO2)N=c1[n-]nc(Cc2sc(=O)[n-]c2[O-])cc1[O-]

> <Energy>
114.44220564620193

> <Genealogy>
O=C(C=Cc1ccc2c(c1)OCO2)N=c1[n-]nc(Cc2sc(=O)[n-]c2[O-])cc1[O-] (protonated)
O=C(C=Cc1ccc2c(c1)OCO2)N=c1[n-]nc(Cc2sc(=O)[n-]c2[O-])cc1[O-] (3D coordinates assigned)
O=C(C=Cc1ccc2c(c1)OCO2)N=c1[n-]nc(Cc2sc(=O)[n-]c2[O-])cc1[O-] (nonaromatic ring conformer: 114.44220564620193 kcal/mol)

> <smiles>
O=C(C=Cc1ccc2c(c1)OCO2)N=c1[nH]nc(Cc2sc(=O)[nH]c2O)cc1O

> <score_type>
oracle

> <origin>
adg

> <m_score__min__energy>
-17.440000000000001

> <m_primary>
energy

> <minimizedAffinity>
-6.57894

> <minimizedRMSD>
2.16160

> <CNNscore>
0.1592473984

> <CNNaffinity>
5.2657561302

> <CNN_VS>
0.8385579586

> <CNNaffinity_variance>
0.0474553108

$$$$
79:0


 35 39  0  0  0  0  0  0  0  0999 V2000
   60.4760   27.6232   49.3992 C   0  0  0  0  0  0  0  0  0  0  0  0
   60.2172   28.5505   48.4621 C   0  0  0  0  0  0  0  0  0  0  0  0
   60.0310   28.3451   47.0890 C   0  0  0  0  0  0  0  0  0  0  0  0
   60.1826   27.2444   46.3298 C   0  0  0  0  0  0  0  0  0  0  0  0
   59.6298   29.5610   46.5679 C   0  0  0  0  0  0  0  0  0  0  0  0
   59.6348   30.4780   47.6046 C   0  0  0  0  0  0  0  0  0  0  0  0
   59.9883   29.8590   48.7563 N   0  0  0  0  0  0  0  0  0  0  0  0
   59.1401   26.2567   46.0376 C   0  0  0  0  0  0  0  0  0  0  0  0
   59.2759   24.9363   46.2603 N   0  0  0  0  0  0  0  0  0  0  0  0
   58.0560   24.4428   45.9542 C   0  0  0  0  0  0  0  0  0  0  0  0
   57.7846   23.2145   46.0227 O   0  0  0  0  0  0  0  0  0  0  0  0
   57.1489   25.3690   45.5702 N   0  0  0  0  0  0  0  0  0  0  0  0
   57.8459   26.5128   45.6375 C   0  0  0  0  0  0  0  0  0  0  0  0
   57.3050   27.7631   45.3627 O   0  0  0  0  0  0  0  0  0  0  0  0
   59.9012   30.4267   50.0755 C   0  0  0  0  0  0  0  0  0  0  0  0
   61.0647   30.7503   50.7920 C   0  0  0  0  0  0  0  0  0  0  0  0
   60.9666   31.3006   52.0772 C   0  0  0  0  0  0  0  0  0  0  0  0
   59.7105   31.5281   52.6504 C   0  0  0  0  0  0  0  0  0  0  0  0
   58.5500   31.2030   51.9400 C   0  0  0  0  0  0  0  0  0  0  0  0
   58.6430   30.6616   50.6524 C   0  0  0  0  0  0  0  0  0  0  0  0
   59.3533   31.9365   47.4547 C   0  0  0  0  0  0  0  0  0  0  0  0
   58.1658   32.3531   47.5934 O   0  0  0  0  0  0  0  0  0  0  0  0
   60.4374   32.8849   47.2584 N   0  0  0  0  0  0  0  0  0  0  0  0
   61.7343   32.1711   47.4023 C   0  0  0  0  0  0  0  0  0  0  0  0
   62.8866   33.1249   47.7531 C   0  0  0  0  0  0  0  0  0  0  0  0
   62.6586   33.8473   49.1186 C   0  0  0  0  0  0  0  0  0  0  0  0
   61.1307   33.9331   49.4224 C   0  0  0  0  0  0  0  0  0  0  0  0
   60.3178   34.0852   48.1340 C   0  0  0  0  0  0  0  0  0  0  0  0
   59.8578   33.5438   46.8122 H   0  0  0  0  0  0  0  0  0  0  0  0
   63.4450   33.1860   50.2060 N   0  0  0  0  0  0  0  0  0  0  0  0
   63.6483   34.0451   51.4038 C   0  0  0  0  0  0  0  0  0  0  0  0
   64.4842   33.2938   52.4553 C   0  0  0  0  0  0  0  0  0  0  0  0
   65.7457   32.9286   51.9290 O   0  0  0  0  0  0  0  0  0  0  0  0
   65.5636   32.0683   50.8234 C   0  0  0  0  0  0  0  0  0  0  0  0
   64.7856   32.7794   49.7087 C   0  0  0  0  0  0  0  0  0  0  0  0
  1  2  2  0
  2  3  1  0
  3  4  2  0
  4  8  1  0
  8  9  1  0
  9 10  1  0
 10 11  2  0
 10 12  1  0
 12 13  1  0
 13 14  1  0
  3  5  1  0
  5  6  2  0
  6 21  1  0
 21 22  2  0
 23 21  1  0
 23 24  1  0
 24 25  1  0
 25 26  1  0
 26 30  1  0
 30 31  1  0
 31 32  1  0
 32 33  1  0
 33 34  1  0
 34 35  1  0
 26 27  1  0
 27 28  1  0
  6  7  1  0
  7 15  1  0
 15 16  2  0
 16 17  1  0
 17 18  2  0
 18 19  1  0
 19 20  2  0
  7  2  1  0
 20 15  1  0
 13  8  2  0
 28 23  1  0
 35 30  1  0
 23 29  1  0
M  CHG 1   9  -1
M  CHG 1  12  -1
M  CHG 1  14  -1
M  CHG 1  23   1
M  END
> <UniqueID>
78

> <SMILES>
C=c1c(=Cc2[n-]c(=O)[n-]c2[O-])cc(C(=O)[NH+]2CCC(N3CCOCC3)CC2)n1-c1ccccc1

> <Energy>
166.41496702983258

> <Genealogy>
C=c1c(=Cc2[n-]c(=O)[n-]c2[O-])cc(C(=O)[NH+]2CCC(N3CCOCC3)CC2)n1-c1ccccc1 (protonated)
C=c1c(=Cc2[n-]c(=O)[n-]c2[O-])cc(C(=O)[NH+]2CCC(N3CCOCC3)CC2)n1-c1ccccc1 (3D coordinates assigned)
C=c1c(=Cc2[n-]c(=O)[n-]c2[O-])cc(C(=O)[NH+]2CCC(N3CCOCC3)CC2)n1-c1ccccc1 (nonaromatic ring conformer: 166.41496702983258 kcal/mol)

> <smiles>
C=c1c(=Cc2[nH]c(=O)[nH]c2O)cc(C(=O)N2CCC(N3CCOCC3)CC2)n1-c1ccccc1

> <score_type>
oracle

> <origin>
adg

> <m_score__min__energy>
-17.120000000000001

> <m_primary>
energy

> <minimizedAffinity>
-8.45340

> <minimizedRMSD>
1.61834

> <CNNscore>
0.0957064480

> <CNNaffinity>
6.1571421623

> <CNN_VS>
0.5892782211

> <CNNaffinity_variance>
0.1694882363

$$$$
81:0


 27 29  0  0  0  0  0  0  0  0999 V2000
   57.7986   32.9872   45.4407 N   0  0  0  0  0  0  0  0  0  0  0  0
   57.7124   31.6904   45.4486 C   0  0  0  0  0  0  0  0  0  0  0  0
   56.7057   30.9862   44.8803 N   0  0  0  0  0  0  0  0  0  0  0  0
   56.8506   29.6700   45.0215 N   0  0  0  0  0  0  0  0  0  0  0  0
   57.9677   29.3311   45.7009 C   0  0  0  0  0  0  0  0  0  0  0  0
   58.8538   30.6870   46.1683 S   0  0  0  0  0  0  0  0  0  0  0  0
   58.4485   27.6763   46.0177 S   0  0  0  0  0  0  0  0  0  0  0  0
   59.9135   27.5317   45.7154 O   0  0  0  0  0  0  0  0  0  0  0  0
   58.2090   27.3340   47.4618 O   0  0  0  0  0  0  0  0  0  0  0  0
   57.5418   26.5943   45.0099 N   0  0  0  0  0  0  0  0  0  0  0  0
   57.1781   26.9424   44.1639 H   0  0  0  0  0  0  0  0  0  0  0  0
   57.2909   25.2148   45.3411 C   0  0  0  0  0  0  0  0  0  0  0  0
   58.2691   24.2216   45.1347 C   0  0  0  0  0  0  0  0  0  0  0  0
   58.0062   22.8893   45.4629 C   0  0  0  0  0  0  0  0  0  0  0  0
   56.7675   22.5303   45.9957 C   0  0  0  0  0  0  0  0  0  0  0  0
   55.7857   23.5018   46.1963 C   0  0  0  0  0  0  0  0  0  0  0  0
   56.0395   24.8378   45.8706 C   0  0  0  0  0  0  0  0  0  0  0  0
   55.0472   25.7890   46.0837 O   0  0  0  0  0  0  0  0  0  0  0  0
   59.3812   34.4411   44.5016 O   0  0  0  0  0  0  0  0  0  0  0  0
   59.0097   33.7593   45.4978 C   0  0  0  0  0  0  0  0  0  0  0  0
   59.8318   33.7513   46.7307 C   0  0  0  0  0  0  0  0  0  0  0  0
   59.2396   33.9833   47.9869 C   0  0  0  0  0  0  0  0  0  0  0  0
   60.0171   33.9809   49.1490 C   0  0  0  0  0  0  0  0  0  0  0  0
   61.3925   33.7480   49.0718 C   0  0  0  0  0  0  0  0  0  0  0  0
   61.9929   33.5148   47.8320 C   0  0  0  0  0  0  0  0  0  0  0  0
   63.7202   33.2238   47.7386 Cl  0  0  0  0  0  0  0  0  0  0  0  0
   61.2201   33.5165   46.6666 C   0  0  0  0  0  0  0  0  0  0  0  0
 19 20  2  0
 20  1  1  0
  1  2  2  0
  2  3  1  0
  3  4  1  0
  4  5  2  0
  5  7  1  0
  7  8  2  0
  7  9  2  0
  7 10  1  0
 10 12  1  0
 12 13  2  0
 13 14  1  0
 14 15  2  0
 15 16  1  0
 16 17  2  0
 17 18  1  0
  5  6  1  0
 20 21  1  0
 21 22  2  0
 22 23  1  0
 23 24  2  0
 24 25  1  0
 25 26  1  0
 25 27  2  0
  6  2  1  0
 27 21  1  0
 17 12  1  0
 10 11  1  0
M  CHG 1   3  -1
M  CHG 1  18  -1
M  END
> <UniqueID>
79

> <SMILES>
O=C(N=c1[n-]nc(S(=O)(=O)Nc2ccccc2[O-])s1)c1cccc(Cl)c1

> <Energy>
78.59186585336965

> <Genealogy>
O=C(N=c1[n-]nc(S(=O)(=O)Nc2ccccc2[O-])s1)c1cccc(Cl)c1 (protonated)
O=C(N=c1[n-]nc(S(=O)(=O)Nc2ccccc2[O-])s1)c1cccc(Cl)c1 (3D coordinates assigned)
O=C(N=c1[n-]nc(S(=O)(=O)Nc2ccccc2[O-])s1)c1cccc(Cl)c1 (optimized conformer: 78.59186585336965 kcal/mol)

> <smiles>
O=C(N=c1[nH]nc(S(=O)(=O)Nc2ccccc2O)s1)c1cccc(Cl)c1

> <score_type>
oracle

> <origin>
adg

> <m_score__min__energy>
-14.85

> <m_primary>
energy

> <minimizedAffinity>
-8.81198

> <minimizedRMSD>
0.78688

> <CNNscore>
0.6988446116

> <CNNaffinity>
6.9311008453

> <CNN_VS>
4.8437623978

> <CNNaffinity_variance>
0.1513609439

$$$$
6:0


 32 35  0  0  0  0  0  0  0  0999 V2000
   58.4062   30.7332   45.6037 C   0  0  0  0  0  0  0  0  0  0  0  0
   57.8206   31.0726   44.3761 C   0  0  0  0  0  0  0  0  0  0  0  0
   57.7381   32.4091   43.9817 C   0  0  0  0  0  0  0  0  0  0  0  0
   58.2318   33.4188   44.8124 C   0  0  0  0  0  0  0  0  0  0  0  0
   58.8043   33.0987   46.0548 C   0  0  0  0  0  0  0  0  0  0  0  0
   58.8997   31.7483   46.4371 C   0  0  0  0  0  0  0  0  0  0  0  0
   58.1277   28.3242   43.8953 C   0  0  0  0  0  0  0  0  0  0  0  0
   58.2948   28.2590   45.2261 C   0  0  0  0  0  0  0  0  0  0  0  0
   58.4781   27.1007   45.9976 C   0  0  0  0  0  0  0  0  0  0  0  0
   58.3096   25.7990   45.6939 C   0  0  0  0  0  0  0  0  0  0  0  0
   58.8845   27.5300   47.2508 C   0  0  0  0  0  0  0  0  0  0  0  0
   58.8590   28.9090   47.2289 C   0  0  0  0  0  0  0  0  0  0  0  0
   59.2118   29.7814   48.3943 C   0  0  0  0  0  0  0  0  0  0  0  0
   58.5006   29.3544   46.0043 N   0  0  0  0  0  0  0  0  0  0  0  0
   57.4322   24.8596   46.4109 C   0  0  0  0  0  0  0  0  0  0  0  0
   57.8243   23.6703   46.9066 N   0  0  0  0  0  0  0  0  0  0  0  0
   56.6687   23.1179   47.3375 C   0  0  0  0  0  0  0  0  0  0  0  0
   56.6227   21.9877   47.8890 O   0  0  0  0  0  0  0  0  0  0  0  0
   55.5656   23.8668   47.1210 N   0  0  0  0  0  0  0  0  0  0  0  0
   56.0670   24.9578   46.5208 C   0  0  0  0  0  0  0  0  0  0  0  0
   55.2895   26.0213   46.0770 O   0  0  0  0  0  0  0  0  0  0  0  0
   59.3280   34.1710   46.9322 C   0  0  0  0  0  0  0  0  0  0  0  0
   59.7522   35.2406   46.4175 O   0  0  0  0  0  0  0  0  0  0  0  0
   59.4174   34.0100   48.3544 N   0  0  0  0  0  0  0  0  0  0  0  0
   60.5267   33.4409   49.0658 C   0  0  0  0  0  0  0  0  0  0  0  0
   61.6619   32.9530   48.3905 C   0  0  0  0  0  0  0  0  0  0  0  0
   62.7170   32.3826   49.1089 C   0  0  0  0  0  0  0  0  0  0  0  0
   63.8096   31.9209   48.4534 F   0  0  0  0  0  0  0  0  0  0  0  0
   62.6450   32.2862   50.5011 C   0  0  0  0  0  0  0  0  0  0  0  0
   61.5135   32.7518   51.1754 C   0  0  0  0  0  0  0  0  0  0  0  0
   60.4530   33.3204   50.4605 C   0  0  0  0  0  0  0  0  0  0  0  0
   59.3586   33.7655   51.1273 F   0  0  0  0  0  0  0  0  0  0  0  0
  7  8  2  0
  8  9  1  0
  9 10  2  0
 10 15  1  0
 15 16  1  0
 16 17  1  0
 17 18  2  0
 17 19  1  0
 19 20  1  0
 20 21  1  0
  9 11  1  0
 11 12  2  0
 12 13  1  0
 12 14  1  0
 14  1  1  0
  1  2  2  0
  2  3  1  0
  3  4  2  0
  4  5  1  0
  5 22  1  0
 22 23  2  0
 22 24  1  0
 24 25  1  0
 25 26  2  0
 26 27  1  0
 27 28  1  0
 27 29  2  0
 29 30  1  0
 30 31  2  0
 31 32  1  0
  5  6  2  0
 14  8  1  0
  6  1  1  0
 20 15  2  0
 31 25  1  0
M  CHG 1  16  -1
M  CHG 1  19  -1
M  CHG 1  21  -1
M  CHG 1  24  -1
M  END
> <UniqueID>
5

> <SMILES>
C=c1/c(=C\c2[n-]c(=O)[n-]c2[O-])cc(C)n1-c1cccc(C(=O)[N-]c2cc(F)ccc2F)c1

> <Energy>
130.08586353164512

> <Genealogy>
C=c1c(=Cc2[n-]c(=O)[n-]c2[O-])cc(C)n1-c1cccc(C(=O)[N-]c2cc(F)ccc2F)c1 (protonated)
C=c1/c(=C\c2[n-]c(=O)[n-]c2[O-])cc(C)n1-c1cccc(C(=O)[N-]c2cc(F)ccc2F)c1 (cis-trans isomerization)
C=c1/c(=C\c2[n-]c(=O)[n-]c2[O-])cc(C)n1-c1cccc(C(=O)[N-]c2cc(F)ccc2F)c1 (3D coordinates assigned)
C=c1/c(=C\c2[n-]c(=O)[n-]c2[O-])cc(C)n1-c1cccc(C(=O)[N-]c2cc(F)ccc2F)c1 (optimized conformer: 130.08586353164512 kcal/mol)

> <smiles>
C=c1c(=Cc2[nH]c(=O)[nH]c2O)cc(C)n1-c1cccc(C(=O)Nc2cc(F)ccc2F)c1

> <score_type>
oracle

> <origin>
adg

> <m_score__min__energy>
-17.82

> <m_primary>
energy

> <minimizedAffinity>
-9.70215

> <minimizedRMSD>
1.28443

> <CNNscore>
0.5324536562

> <CNNaffinity>
7.3715300560

> <CNN_VS>
3.9249980450

> <CNNaffinity_variance>
0.0505883843

$$$$
27:0


 25 28  0  0  0  0  0  0  0  0999 V2000
   56.6778   31.9355   52.3520 C   0  0  0  0  0  0  0  0  0  0  0  0
   56.3650   30.7007   52.7755 C   0  0  0  0  0  0  0  0  0  0  0  0
   55.0952   30.2249   53.1456 C   0  0  0  0  0  0  0  0  0  0  0  0
   53.8714   30.7699   53.0106 C   0  0  0  0  0  0  0  0  0  0  0  0
   55.2995   28.9735   53.7043 C   0  0  0  0  0  0  0  0  0  0  0  0
   56.6481   28.7060   53.6093 C   0  0  0  0  0  0  0  0  0  0  0  0
   57.2983   27.4361   54.0690 C   0  0  0  0  0  0  0  0  0  0  0  0
   57.2920   29.7419   53.0272 N   0  0  0  0  0  0  0  0  0  0  0  0
   53.0392   30.7209   51.7975 C   0  0  0  0  0  0  0  0  0  0  0  0
   53.1672   29.8099   50.8142 N   0  0  0  0  0  0  0  0  0  0  0  0
   52.1171   30.0733   50.0067 C   0  0  0  0  0  0  0  0  0  0  0  0
   51.8975   29.4288   48.9487 O   0  0  0  0  0  0  0  0  0  0  0  0
   51.3136   31.0746   50.4290 N   0  0  0  0  0  0  0  0  0  0  0  0
   51.9046   31.4626   51.5709 C   0  0  0  0  0  0  0  0  0  0  0  0
   51.4130   32.4693   52.3908 O   0  0  0  0  0  0  0  0  0  0  0  0
   58.7111   29.8328   52.8243 C   0  0  0  0  0  0  0  0  0  0  0  0
   59.6746   29.9491   53.8018 C   0  0  0  0  0  0  0  0  0  0  0  0
   60.8877   29.9625   53.2128 N   0  0  0  0  0  0  0  0  0  0  0  0
   60.7138   29.8467   51.9007 N   0  0  0  0  0  0  0  0  0  0  0  0
   59.3924   29.7766   51.6266 C   0  0  0  0  0  0  0  0  0  0  0  0
   58.7904   29.6892   50.2571 C   0  0  0  0  0  0  0  0  0  0  0  0
   61.8078   29.8709   50.9201 C   0  0  0  0  0  0  0  0  0  0  0  0
   62.0756   31.2744   50.3876 C   0  0  0  0  0  0  0  0  0  0  0  0
   63.4534   31.2540   51.0381 C   0  0  0  0  0  0  0  0  0  0  0  0
   63.1937   29.8473   51.5618 C   0  0  0  0  0  0  0  0  0  0  0  0
  1  2  2  0
  2  3  1  0
  3  4  2  0
  4  9  1  0
  9 10  1  0
 10 11  1  0
 11 12  2  0
 11 13  1  0
 13 14  1  0
 14 15  1  0
  3  5  1  0
  5  6  2  0
  6  7  1  0
  6  8  1  0
  8 16  1  0
 16 17  1  0
 17 18  2  0
 18 19  1  0
 19 22  1  0
 22 23  1  0
 23 24  1  0
 24 25  1  0
 19 20  1  0
 20 21  1  0
  8  2  1  0
 20 16  2  0
 14  9  2  0
 25 22  1  0
M  CHG 1  10  -1
M  CHG 1  13  -1
M  CHG 1  15  -1
M  END
> <UniqueID>
26

> <SMILES>
C=c1c(=Cc2[n-]c(=O)[n-]c2[O-])cc(C)n1-c1cnn(C2CCC2)c1C

> <Energy>
211.36593407516688

> <Genealogy>
C=c1c(=Cc2[n-]c(=O)[n-]c2[O-])cc(C)n1-c1cnn(C2CCC2)c1C (protonated)
C=c1c(=Cc2[n-]c(=O)[n-]c2[O-])cc(C)n1-c1cnn(C2CCC2)c1C (3D coordinates assigned)
C=c1c(=Cc2[n-]c(=O)[n-]c2[O-])cc(C)n1-c1cnn(C2CCC2)c1C (nonaromatic ring conformer: 211.36593407516688 kcal/mol)

> <smiles>
C=c1c(=Cc2[nH]c(=O)[nH]c2O)cc(C)n1-c1cnn(C2CCC2)c1C

> <score_type>
oracle

> <origin>
adg

> <m_score__min__energy>
-15.539999999999999

> <m_primary>
energy

> <minimizedAffinity>
-4.57268

> <minimizedRMSD>
1.47151

> <CNNscore>
0.0724375769

> <CNNaffinity>
4.5090022087

> <CNN_VS>
0.3266212046

> <CNNaffinity_variance>
0.6474117041

$$$$
33:0


 30 33  0  0  0  0  0  0  0  0999 V2000
   55.1015   29.3736   55.3735 C   0  0  0  0  0  0  0  0  0  0  0  0
   55.5323   29.8569   54.1948 C   0  0  0  0  0  0  0  0  0  0  0  0
   54.7135   30.2664   53.1385 C   0  0  0  0  0  0  0  0  0  0  0  0
   53.3676   30.3277   53.1197 C   0  0  0  0  0  0  0  0  0  0  0  0
   55.5604   30.6383   52.1092 C   0  0  0  0  0  0  0  0  0  0  0  0
   56.8496   30.4391   52.5595 C   0  0  0  0  0  0  0  0  0  0  0  0
   56.8419   29.9735   53.8351 N   0  0  0  0  0  0  0  0  0  0  0  0
   52.5670   30.4558   51.8878 C   0  0  0  0  0  0  0  0  0  0  0  0
   52.7078   29.6392   50.8288 N   0  0  0  0  0  0  0  0  0  0  0  0
   51.8582   30.1621   49.9164 C   0  0  0  0  0  0  0  0  0  0  0  0
   51.6968   29.6575   48.7758 O   0  0  0  0  0  0  0  0  0  0  0  0
   51.2074   31.2740   50.3187 N   0  0  0  0  0  0  0  0  0  0  0  0
   51.6761   31.4554   51.5641 C   0  0  0  0  0  0  0  0  0  0  0  0
   51.3304   32.5370   52.3645 O   0  0  0  0  0  0  0  0  0  0  0  0
   58.0523   30.6680   51.7342 C   0  0  0  0  0  0  0  0  0  0  0  0
   58.2825   29.9401   50.7342 O   0  0  0  0  0  0  0  0  0  0  0  0
   58.9627   31.7198   52.0546 N   0  0  0  0  0  0  0  0  0  0  0  0
   59.0625   32.8481   53.0006 C   0  0  0  0  0  0  0  0  0  0  0  0
   60.3100   33.4269   52.4230 C   0  0  0  0  0  0  0  0  0  0  0  0
   61.3952   33.3076   53.2752 F   0  0  0  0  0  0  0  0  0  0  0  0
   60.1979   32.2800   51.4750 C   0  0  0  0  0  0  0  0  0  0  0  0
   58.0240   29.5115   54.5875 C   0  0  0  0  0  0  0  0  0  0  0  0
   58.5546   28.1830   54.0307 C   0  0  0  0  0  0  0  0  0  0  0  0
   59.9800   28.3066   53.5595 C   0  0  0  0  0  0  0  0  0  0  0  0
   60.7617   29.4086   53.9471 C   0  0  0  0  0  0  0  0  0  0  0  0
   62.0623   29.5577   53.4577 C   0  0  0  0  0  0  0  0  0  0  0  0
   62.5923   28.6097   52.5772 C   0  0  0  0  0  0  0  0  0  0  0  0
   63.8841   28.7599   52.0893 O   0  0  0  0  0  0  0  0  0  0  0  0
   61.8201   27.5113   52.1851 C   0  0  0  0  0  0  0  0  0  0  0  0
   60.5172   27.3611   52.6712 C   0  0  0  0  0  0  0  0  0  0  0  0
  1  2  2  0
  2  3  1  0
  3  4  2  0
  4  8  1  0
  8  9  1  0
  9 10  1  0
 10 11  2  0
 10 12  1  0
 12 13  1  0
 13 14  1  0
  3  5  1  0
  5  6  2  0
  6 15  1  0
 15 16  2  0
 15 17  1  0
 17 18  1  0
 18 19  1  0
 19 20  1  0
 19 21  1  0
  6  7  1  0
  7 22  1  0
 22 23  1  0
 23 24  1  0
 24 25  2  0
 25 26  1  0
 26 27  2  0
 27 28  1  0
 27 29  1  0
 29 30  2  0
  7  2  1  0
 30 24  1  0
 13  8  2  0
 21 17  1  0
M  CHG 1   9  -1
M  CHG 1  12  -1
M  CHG 1  14  -1
M  CHG 1  28  -1
M  END
> <UniqueID>
31

> <SMILES>
C=c1/c(=C/c2[n-]c(=O)[n-]c2[O-])cc(C(=O)N2CC(F)C2)n1CCc1ccc([O-])cc1

> <Energy>
158.23781172840873

> <Genealogy>
C=c1c(=Cc2[n-]c(=O)[n-]c2[O-])cc(C(=O)N2CC(F)C2)n1CCc1ccc([O-])cc1 (protonated)
C=c1/c(=C/c2[n-]c(=O)[n-]c2[O-])cc(C(=O)N2CC(F)C2)n1CCc1ccc([O-])cc1 (cis-trans isomerization)
C=c1/c(=C/c2[n-]c(=O)[n-]c2[O-])cc(C(=O)N2CC(F)C2)n1CCc1ccc([O-])cc1 (3D coordinates assigned)
C=c1/c(=C/c2[n-]c(=O)[n-]c2[O-])cc(C(=O)N2CC(F)C2)n1CCc1ccc([O-])cc1 (nonaromatic ring conformer: 158.23781172840873 kcal/mol)

> <smiles>
C=c1c(=Cc2[nH]c(=O)[nH]c2O)cc(C(=O)N2CC(F)C2)n1CCc1ccc(O)cc1

> <score_type>
oracle

> <origin>
adg

> <m_score__min__energy>
-16.420000000000002

> <m_primary>
energy

> <minimizedAffinity>
-4.88571

> <minimizedRMSD>
1.60443

> <CNNscore>
0.1889815927

> <CNNaffinity>
4.5807933807

> <CNN_VS>
0.8656856418

> <CNNaffinity_variance>
1.3739686012

$$$$
34:0


 28 30  0  0  0  0  0  0  0  0999 V2000
   58.5335   27.6804   45.7411 C   0  0  0  0  0  0  0  0  0  0  0  0
   59.6276   28.5125   45.4436 C   0  0  0  0  0  0  0  0  0  0  0  0
   59.4266   29.7764   44.8816 C   0  0  0  0  0  0  0  0  0  0  0  0
   58.1244   30.2345   44.6053 C   0  0  0  0  0  0  0  0  0  0  0  0
   57.0347   29.4053   44.8961 C   0  0  0  0  0  0  0  0  0  0  0  0
   55.7413   29.8384   44.6281 O   0  0  0  0  0  0  0  0  0  0  0  0
   57.2358   28.1392   45.4583 C   0  0  0  0  0  0  0  0  0  0  0  0
   58.9023   26.2206   47.5793 O   0  0  0  0  0  0  0  0  0  0  0  0
   58.7463   26.3393   46.3339 C   0  0  0  0  0  0  0  0  0  0  0  0
   58.8891   25.1913   45.4844 N   0  0  0  0  0  0  0  0  0  0  0  0
   58.0664   24.1943   45.3004 C   0  0  0  0  0  0  0  0  0  0  0  0
   56.7374   24.4813   45.2301 N   0  0  0  0  0  0  0  0  0  0  0  0
   55.7900   23.5270   45.0299 C   0  0  0  0  0  0  0  0  0  0  0  0
   56.1637   22.1922   44.8930 C   0  0  0  0  0  0  0  0  0  0  0  0
   57.5102   21.8495   44.9871 C   0  0  0  0  0  0  0  0  0  0  0  0
   58.4750   22.8371   45.2103 C   0  0  0  0  0  0  0  0  0  0  0  0
   59.7942   22.4403   45.3900 O   0  0  0  0  0  0  0  0  0  0  0  0
   57.8731   31.4987   44.0438 O   0  0  0  0  0  0  0  0  0  0  0  0
   58.4350   32.7289   44.5028 C   0  0  0  0  0  0  0  0  0  0  0  0
   58.1197   32.9513   45.9576 C   0  0  0  0  0  0  0  0  0  0  0  0
   56.9284   33.1944   46.2893 O   0  0  0  0  0  0  0  0  0  0  0  0
   59.1831   32.9342   46.9941 C   0  0  0  0  0  0  0  0  0  0  0  0
   59.4303   31.7637   47.7386 C   0  0  0  0  0  0  0  0  0  0  0  0
   60.4335   31.7376   48.7118 C   0  0  0  0  0  0  0  0  0  0  0  0
   61.2032   32.8762   48.9527 C   0  0  0  0  0  0  0  0  0  0  0  0
   60.9725   34.0427   48.2220 C   0  0  0  0  0  0  0  0  0  0  0  0
   59.9686   34.0799   47.2481 C   0  0  0  0  0  0  0  0  0  0  0  0
   59.7516   35.2645   46.5522 O   0  0  0  0  0  0  0  0  0  0  0  0
  8  9  2  0
  9 10  1  0
 10 11  2  0
 11 12  1  0
 12 13  1  0
 13 14  2  0
 14 15  1  0
 15 16  2  0
 16 17  1  0
  9  1  1  0
  1  2  2  0
  2  3  1  0
  3  4  2  0
  4 18  1  0
 18 19  1  0
 19 20  1  0
 20 21  2  0
 20 22  1  0
 22 23  2  0
 23 24  1  0
 24 25  2  0
 25 26  1  0
 26 27  2  0
 27 28  1  0
  4  5  1  0
  5  6  1  0
  5  7  2  0
 16 11  1  0
  7  1  1  0
 27 22  1  0
M  CHG 1   6  -1
M  CHG 1  12  -1
M  CHG 1  17  -1
M  CHG 1  28  -1
M  END
> <UniqueID>
32

> <SMILES>
O=C(N=c1[n-]cccc1[O-])c1ccc(OCC(=O)c2ccccc2[O-])c([O-])c1

> <Energy>
60.35256410398506

> <Genealogy>
O=C(N=c1[n-]cccc1[O-])c1ccc(OCC(=O)c2ccccc2[O-])c([O-])c1 (protonated)
O=C(N=c1[n-]cccc1[O-])c1ccc(OCC(=O)c2ccccc2[O-])c([O-])c1 (3D coordinates assigned)
O=C(N=c1[n-]cccc1[O-])c1ccc(OCC(=O)c2ccccc2[O-])c([O-])c1 (optimized conformer: 60.35256410398506 kcal/mol)

> <smiles>
O=C(N=c1[nH]cccc1O)c1ccc(OCC(=O)c2ccccc2O)c(O)c1

> <score_type>
oracle

> <origin>
adg

> <m_score__min__energy>
-16.969999999999999

> <m_primary>
energy

> <minimizedAffinity>
-8.02003

> <minimizedRMSD>
1.88226

> <CNNscore>
0.4865330458

> <CNNaffinity>
6.2573399544

> <CNN_VS>
3.0444025993

> <CNNaffinity_variance>
0.0269034598

$$$$
36:0


 30 32  0  0  0  0  0  0  0  0999 V2000
   59.4702   30.4928   47.8425 C   0  0  0  0  0  0  0  0  0  0  0  0
   59.2354   29.1106   47.3979 N   0  0  0  0  0  0  0  0  0  0  0  0
   59.7113   27.9935   47.9992 C   0  0  0  0  0  0  0  0  0  0  0  0
   60.5319   27.9757   49.2518 C   0  0  0  0  0  0  0  0  0  0  0  0
   59.3347   26.8673   47.2976 C   0  0  0  0  0  0  0  0  0  0  0  0
   58.6097   27.3055   46.1974 C   0  0  0  0  0  0  0  0  0  0  0  0
   58.0266   26.5292   45.2650 C   0  0  0  0  0  0  0  0  0  0  0  0
   58.5702   28.7017   46.2867 C   0  0  0  0  0  0  0  0  0  0  0  0
   57.9925   29.5333   45.4037 C   0  0  0  0  0  0  0  0  0  0  0  0
   57.4788   25.1866   45.5352 C   0  0  0  0  0  0  0  0  0  0  0  0
   58.2292   24.0725   45.5478 N   0  0  0  0  0  0  0  0  0  0  0  0
   57.3574   23.1093   45.9161 C   0  0  0  0  0  0  0  0  0  0  0  0
   57.6898   21.9007   46.0285 O   0  0  0  0  0  0  0  0  0  0  0  0
   56.1036   23.5437   46.1633 N   0  0  0  0  0  0  0  0  0  0  0  0
   56.1983   24.8629   45.9308 C   0  0  0  0  0  0  0  0  0  0  0  0
   55.1503   25.7549   46.1234 O   0  0  0  0  0  0  0  0  0  0  0  0
   60.7985   31.0139   47.2822 C   0  0  0  0  0  0  0  0  0  0  0  0
   61.2367   33.2575   48.4722 C   0  0  0  0  0  0  0  0  0  0  0  0
   61.8946   33.9724   49.4862 C   0  0  0  0  0  0  0  0  0  0  0  0
   62.8452   33.3483   50.2950 C   0  0  0  0  0  0  0  0  0  0  0  0
   63.1435   32.0001   50.1083 C   0  0  0  0  0  0  0  0  0  0  0  0
   62.4855   31.2680   49.1186 C   0  0  0  0  0  0  0  0  0  0  0  0
   61.5247   31.8785   48.2901 C   0  0  0  0  0  0  0  0  0  0  0  0
   60.4084   34.0461   46.2222 N   0  0  0  0  0  0  0  0  0  0  0  0
   60.2510   33.9760   47.6452 C   0  0  0  0  0  0  0  0  0  0  0  0
   59.2924   34.5726   48.2074 O   0  0  0  0  0  0  0  0  0  0  0  0
   61.2056   33.6468   45.8047 H   0  0  0  0  0  0  0  0  0  0  0  0
   59.4084   34.6990   45.3781 C   0  0  0  0  0  0  0  0  0  0  0  0
   57.3813   33.2910   45.5013 C   0  0  0  0  0  0  0  0  0  0  0  0
   58.4404   33.7007   44.8006 C   0  0  0  0  0  0  0  0  0  0  0  0
 29 30  2  0
 30 28  1  0
 28 24  1  0
 24 25  1  0
 25 26  2  0
 25 18  1  0
 18 19  2  0
 19 20  1  0
 20 21  2  0
 21 22  1  0
 22 23  2  0
 23 17  1  0
 17  1  1  0
  1  2  1  0
  2  3  1  0
  3  4  1  0
  3  5  2  0
  5  6  1  0
  6  7  2  0
  7 10  1  0
 10 11  1  0
 11 12  1  0
 12 13  2  0
 12 14  1  0
 14 15  1  0
 15 16  1  0
  6  8  1  0
  8  9  2  0
 23 18  1  0
  8  2  1  0
 15 10  2  0
 24 27  1  0
M  CHG 1  11  -1
M  CHG 1  14  -1
M  CHG 1  16  -1
M  END
> <UniqueID>
33

> <SMILES>
C=CCNC(=O)c1ccccc1CCn1c(C)cc(=Cc2[n-]c(=O)[n-]c2[O-])c1=C

> <Energy>
115.01756232740732

> <Genealogy>
C=CCNC(=O)c1ccccc1CCn1c(C)cc(=Cc2[n-]c(=O)[n-]c2[O-])c1=C (protonated)
C=CCNC(=O)c1ccccc1CCn1c(C)cc(=Cc2[n-]c(=O)[n-]c2[O-])c1=C (3D coordinates assigned)
C=CCNC(=O)c1ccccc1CCn1c(C)cc(=Cc2[n-]c(=O)[n-]c2[O-])c1=C (optimized conformer: 115.01756232740732 kcal/mol)

> <smiles>
C=CCNC(=O)c1ccccc1CCn1c(C)cc(=Cc2[nH]c(=O)[nH]c2O)c1=C

> <score_type>
oracle

> <origin>
adg

> <m_score__min__energy>
-16.02

> <m_primary>
energy

> <minimizedAffinity>
-8.67420

> <minimizedRMSD>
0.95860

> <CNNscore>
0.1669725925

> <CNNaffinity>
6.4835948944

> <CNN_VS>
1.0825825930

> <CNNaffinity_variance>
0.0398579724

$$$$
42:0


 27 29  0  0  0  0  0  0  0  0999 V2000
   58.2376   29.3917   46.2735 C   0  0  0  0  0  0  0  0  0  0  0  0
   58.1959   30.5923   45.5437 C   0  0  0  0  0  0  0  0  0  0  0  0
   58.6713   31.7799   46.1086 C   0  0  0  0  0  0  0  0  0  0  0  0
   59.1845   31.7847   47.4116 C   0  0  0  0  0  0  0  0  0  0  0  0
   59.2014   30.5967   48.1531 C   0  0  0  0  0  0  0  0  0  0  0  0
   58.7249   29.4101   47.5882 C   0  0  0  0  0  0  0  0  0  0  0  0
   59.7107   26.9202   45.9324 O   0  0  0  0  0  0  0  0  0  0  0  0
   58.5404   27.0008   45.4748 C   0  0  0  0  0  0  0  0  0  0  0  0
   57.7336   28.1626   45.7254 N   0  0  0  0  0  0  0  0  0  0  0  0
   56.7747   28.1138   45.5078 H   0  0  0  0  0  0  0  0  0  0  0  0
   57.9577   25.8292   44.7450 C   0  0  0  0  0  0  0  0  0  0  0  0
   57.3210   24.8863   45.7158 C   0  0  0  0  0  0  0  0  0  0  0  0
   57.8618   23.7137   46.0971 N   0  0  0  0  0  0  0  0  0  0  0  0
   56.9217   23.1892   46.9103 C   0  0  0  0  0  0  0  0  0  0  0  0
   57.0646   22.0761   47.4811 O   0  0  0  0  0  0  0  0  0  0  0  0
   55.8140   23.9471   47.0636 N   0  0  0  0  0  0  0  0  0  0  0  0
   56.0811   25.0147   46.2937 C   0  0  0  0  0  0  0  0  0  0  0  0
   55.2086   26.0808   46.1204 O   0  0  0  0  0  0  0  0  0  0  0  0
   59.7538   33.2932   48.1226 S   0  0  0  0  0  0  0  0  0  0  0  0
   59.3829   33.3094   49.5794 O   0  0  0  0  0  0  0  0  0  0  0  0
   59.0879   34.4602   47.4461 O   0  0  0  0  0  0  0  0  0  0  0  0
   61.4890   33.4162   47.9550 N   0  0  0  0  0  0  0  0  0  0  0  0
   62.0693   34.0319   49.1687 C   0  0  0  0  0  0  0  0  0  0  0  0
   63.5714   33.7527   49.2782 C   0  0  0  0  0  0  0  0  0  0  0  0
   63.8460   32.2450   49.3994 C   0  0  0  0  0  0  0  0  0  0  0  0
   62.7362   31.3853   48.7697 C   0  0  0  0  0  0  0  0  0  0  0  0
   62.0813   32.1073   47.5826 C   0  0  0  0  0  0  0  0  0  0  0  0
  7  8  2  0
  8 11  1  0
 11 12  1  0
 12 13  1  0
 13 14  1  0
 14 15  2  0
 14 16  1  0
 16 17  1  0
 17 18  1  0
  8  9  1  0
  9  1  1  0
  1  2  2  0
  2  3  1  0
  3  4  2  0
  4 19  1  0
 19 20  2  0
 19 21  2  0
 19 22  1  0
 22 23  1  0
 23 24  1  0
 24 25  1  0
 25 26  1  0
 26 27  1  0
  4  5  1  0
  5  6  2  0
 17 12  2  0
  6  1  1  0
 27 22  1  0
  9 10  1  0
M  CHG 1  13  -1
M  CHG 1  16  -1
M  CHG 1  18  -1
M  END
> <UniqueID>
38

> <SMILES>
O=C(Cc1[n-]c(=O)[n-]c1[O-])Nc1ccc(S(=O)(=O)N2CCCCC2)cc1

> <Energy>
79.3519128296606

> <Genealogy>
O=C(Cc1[n-]c(=O)[n-]c1[O-])Nc1ccc(S(=O)(=O)N2CCCCC2)cc1 (protonated)
O=C(Cc1[n-]c(=O)[n-]c1[O-])Nc1ccc(S(=O)(=O)N2CCCCC2)cc1 (3D coordinates assigned)
O=C(Cc1[n-]c(=O)[n-]c1[O-])Nc1ccc(S(=O)(=O)N2CCCCC2)cc1 (nonaromatic ring conformer: 79.3519128296606 kcal/mol)

> <smiles>
O=C(Cc1[nH]c(=O)[nH]c1O)Nc1ccc(S(=O)(=O)N2CCCCC2)cc1

> <score_type>
oracle

> <origin>
adg

> <m_score__min__energy>
-16.899999999999999

> <m_primary>
energy

> <minimizedAffinity>
-7.67248

> <minimizedRMSD>
1.62076

> <CNNscore>
0.2751539350

> <CNNaffinity>
6.5264878273

> <CNN_VS>
1.7957887650

> <CNNaffinity_variance>
0.3129734397

$$$$
46:0


 31 33  0  0  0  0  0  0  0  0999 V2000
   58.8330   26.7025   47.4497 C   0  0  0  0  0  0  0  0  0  0  0  0
   58.5750   27.4126   46.3407 C   0  0  0  0  0  0  0  0  0  0  0  0
   57.9420   26.9664   45.1662 C   0  0  0  0  0  0  0  0  0  0  0  0
   57.5743   25.7324   44.7717 C   0  0  0  0  0  0  0  0  0  0  0  0
   57.7399   28.0931   44.3843 C   0  0  0  0  0  0  0  0  0  0  0  0
   58.2950   29.1581   45.0621 C   0  0  0  0  0  0  0  0  0  0  0  0
   58.3062   30.5718   44.5663 C   0  0  0  0  0  0  0  0  0  0  0  0
   58.7958   28.7487   46.2486 N   0  0  0  0  0  0  0  0  0  0  0  0
   57.1515   24.6351   45.6629 C   0  0  0  0  0  0  0  0  0  0  0  0
   55.8849   24.6585   46.2622 C   0  0  0  0  0  0  0  0  0  0  0  0
   55.0285   25.7360   46.0664 O   0  0  0  0  0  0  0  0  0  0  0  0
   55.4867   23.6245   47.0486 N   0  0  0  0  0  0  0  0  0  0  0  0
   56.2917   22.5515   47.2554 C   0  0  0  0  0  0  0  0  0  0  0  0
   55.9044   21.6077   47.9913 O   0  0  0  0  0  0  0  0  0  0  0  0
   57.5133   22.4925   46.6655 N   0  0  0  0  0  0  0  0  0  0  0  0
   57.9559   23.4997   45.8708 C   0  0  0  0  0  0  0  0  0  0  0  0
   59.0865   23.4029   45.3209 O   0  0  0  0  0  0  0  0  0  0  0  0
   59.4277   29.5940   47.2245 C   0  0  0  0  0  0  0  0  0  0  0  0
   58.7339   29.9619   48.3852 C   0  0  0  0  0  0  0  0  0  0  0  0
   59.3495   30.7662   49.3485 C   0  0  0  0  0  0  0  0  0  0  0  0
   60.6724   31.1913   49.1690 C   0  0  0  0  0  0  0  0  0  0  0  0
   61.3536   30.8605   47.9871 C   0  0  0  0  0  0  0  0  0  0  0  0
   60.7388   30.0559   47.0245 C   0  0  0  0  0  0  0  0  0  0  0  0
   61.4092   29.7438   45.8862 F   0  0  0  0  0  0  0  0  0  0  0  0
   61.3092   32.0655   50.1623 C   0  0  0  0  0  0  0  0  0  0  0  0
   60.6227   32.9859   50.6767 O   0  0  0  0  0  0  0  0  0  0  0  0
   62.6856   31.9346   50.5496 N   0  0  0  0  0  0  0  0  0  0  0  0
   63.8348   32.7969   50.2410 C   0  0  0  0  0  0  0  0  0  0  0  0
   65.1494   32.0227   50.4329 C   0  0  0  0  0  0  0  0  0  0  0  0
   63.8024   33.9717   51.2333 C   0  0  0  0  0  0  0  0  0  0  0  0
   63.7439   33.3580   48.8085 C   0  0  0  0  0  0  0  0  0  0  0  0
  1  2  2  0
  2  3  1  0
  3  4  2  0
  4  9  1  0
  9 10  2  0
 10 11  1  0
 10 12  1  0
 12 13  1  0
 13 14  2  0
 13 15  1  0
 15 16  1  0
 16 17  2  0
  3  5  1  0
  5  6  2  0
  6  7  1  0
  6  8  1  0
  8 18  1  0
 18 19  2  0
 19 20  1  0
 20 21  2  0
 21 25  1  0
 25 26  2  0
 25 27  1  0
 27 28  1  0
 28 29  1  0
 28 30  1  0
 28 31  1  0
 21 22  1  0
 22 23  2  0
 23 24  1  0
  8  2  1  0
 23 18  1  0
 16  9  1  0
M  CHG 1  11  -1
M  CHG 1  12  -1
M  CHG 1  15  -1
M  CHG 1  27  -1
M  END
> <UniqueID>
42

> <SMILES>
C=c1/c(=C\c2c([O-])[n-]c(=O)[n-]c2=O)cc(C)n1-c1ccc(C(=O)[N-]C(C)(C)C)cc1F

> <Energy>
105.3806373638699

> <Genealogy>
C=c1c(=Cc2c([O-])[n-]c(=O)[n-]c2=O)cc(C)n1-c1ccc(C(=O)[N-]C(C)(C)C)cc1F (protonated)
C=c1/c(=C\c2c([O-])[n-]c(=O)[n-]c2=O)cc(C)n1-c1ccc(C(=O)[N-]C(C)(C)C)cc1F (cis-trans isomerization)
C=c1/c(=C\c2c([O-])[n-]c(=O)[n-]c2=O)cc(C)n1-c1ccc(C(=O)[N-]C(C)(C)C)cc1F (3D coordinates assigned)
C=c1/c(=C\c2c([O-])[n-]c(=O)[n-]c2=O)cc(C)n1-c1ccc(C(=O)[N-]C(C)(C)C)cc1F (optimized conformer: 105.3806373638699 kcal/mol)

> <smiles>
C=c1c(=Cc2c(O)[nH]c(=O)[nH]c2=O)cc(C)n1-c1ccc(C(=O)NC(C)(C)C)cc1F

> <score_type>
oracle

> <origin>
adg

> <m_score__min__energy>
-16.149999999999999

> <m_primary>
energy

> <minimizedAffinity>
-7.69509

> <minimizedRMSD>
1.49652

> <CNNscore>
0.1847047210

> <CNNaffinity>
6.5675091743

> <CNN_VS>
1.2130500078

> <CNNaffinity_variance>
0.0036606097

$$$$
47:0


 35 39  0  0  0  0  0  0  0  0999 V2000
   59.3712   27.7884   47.6118 C   0  0  0  0  0  0  0  0  0  0  0  0
   60.2943   27.1882   48.4791 C   0  0  0  0  0  0  0  0  0  0  0  0
   60.8140   27.9065   49.5572 C   0  0  0  0  0  0  0  0  0  0  0  0
   60.4146   29.2264   49.7791 C   0  0  0  0  0  0  0  0  0  0  0  0
   59.4828   29.8404   48.9231 C   0  0  0  0  0  0  0  0  0  0  0  0
   58.9770   29.1161   47.8313 C   0  0  0  0  0  0  0  0  0  0  0  0
   59.0662   31.2418   49.1448 C   0  0  0  0  0  0  0  0  0  0  0  0
   58.4161   31.5364   50.1853 O   0  0  0  0  0  0  0  0  0  0  0  0
   59.4170   32.2766   48.2122 N   0  0  0  0  0  0  0  0  0  0  0  0
   60.0080   33.5601   48.6082 C   0  0  0  0  0  0  0  0  0  0  0  0
   59.8111   34.5172   47.4092 C   0  0  0  0  0  0  0  0  0  0  0  0
   59.0950   33.6775   46.4117 C   0  0  0  0  0  0  0  0  0  0  0  0
   58.6751   34.0374   45.1311 C   0  0  0  0  0  0  0  0  0  0  0  0
   58.0300   33.0723   44.3413 C   0  0  0  0  0  0  0  0  0  0  0  0
   57.8255   31.7705   44.8388 C   0  0  0  0  0  0  0  0  0  0  0  0
   57.0332   30.5657   43.8404 Cl  0  0  0  0  0  0  0  0  0  0  0  0
   58.2612   31.4322   46.1314 C   0  0  0  0  0  0  0  0  0  0  0  0
   58.8858   32.4185   46.9035 C   0  0  0  0  0  0  0  0  0  0  0  0
   58.1170   25.0992   47.6110 C   0  0  0  0  0  0  0  0  0  0  0  0
   58.2667   25.8332   46.4963 C   0  0  0  0  0  0  0  0  0  0  0  0
   57.9214   25.4759   45.1809 C   0  0  0  0  0  0  0  0  0  0  0  0
   57.2769   24.3969   44.6919 C   0  0  0  0  0  0  0  0  0  0  0  0
   58.3631   26.5092   44.3694 C   0  0  0  0  0  0  0  0  0  0  0  0
   58.9188   27.4607   45.1985 C   0  0  0  0  0  0  0  0  0  0  0  0
   59.4956   28.7639   44.7362 C   0  0  0  0  0  0  0  0  0  0  0  0
   58.8525   27.0586   46.4862 N   0  0  0  0  0  0  0  0  0  0  0  0
   56.0599   23.7911   45.2624 C   0  0  0  0  0  0  0  0  0  0  0  0
   55.0292   24.5868   45.7882 C   0  0  0  0  0  0  0  0  0  0  0  0
   55.1505   25.9723   45.8253 O   0  0  0  0  0  0  0  0  0  0  0  0
   53.9001   24.0049   46.2668 N   0  0  0  0  0  0  0  0  0  0  0  0
   53.7370   22.6569   46.2301 C   0  0  0  0  0  0  0  0  0  0  0  0
   52.6838   22.1386   46.6815 O   0  0  0  0  0  0  0  0  0  0  0  0
   54.7071   21.8684   45.7006 N   0  0  0  0  0  0  0  0  0  0  0  0
   55.8564   22.4031   45.2087 C   0  0  0  0  0  0  0  0  0  0  0  0
   56.7328   21.6438   44.7176 O   0  0  0  0  0  0  0  0  0  0  0  0
 19 20  2  0
 20 21  1  0
 21 22  2  0
 22 27  1  0
 27 28  2  0
 28 29  1  0
 28 30  1  0
 30 31  1  0
 31 32  2  0
 31 33  1  0
 33 34  1  0
 34 35  2  0
 21 23  1  0
 23 24  2  0
 24 25  1  0
 24 26  1  0
 26  1  1  0
  1  2  2  0
  2  3  1  0
  3  4  2  0
  4  5  1  0
  5  7  1  0
  7  8  2  0
  7  9  1  0
  9 10  1  0
 10 11  1  0
 11 12  1  0
 12 13  2  0
 13 14  1  0
 14 15  2  0
 15 16  1  0
 15 17  1  0
 17 18  2  0
  5  6  2  0
 26 20  1  0
  6  1  1  0
 34 27  1  0
 18  9  1  0
 18 12  1  0
M  CHG 1  29  -1
M  CHG 1  30  -1
M  CHG 1  33  -1
M  END
> <UniqueID>
43

> <SMILES>
C=c1c(=Cc2c([O-])[n-]c(=O)[n-]c2=O)cc(C)n1-c1cccc(C(=O)N2CCc3ccc(Cl)cc32)c1

> <Energy>
128.67116145584075

> <Genealogy>
C=c1c(=Cc2c([O-])[n-]c(=O)[n-]c2=O)cc(C)n1-c1cccc(C(=O)N2CCc3ccc(Cl)cc32)c1 (protonated)
C=c1c(=Cc2c([O-])[n-]c(=O)[n-]c2=O)cc(C)n1-c1cccc(C(=O)N2CCc3ccc(Cl)cc32)c1 (3D coordinates assigned)
C=c1c(=Cc2c([O-])[n-]c(=O)[n-]c2=O)cc(C)n1-c1cccc(C(=O)N2CCc3ccc(Cl)cc32)c1 (nonaromatic ring conformer: 128.67116145584075 kcal/mol)

> <smiles>
C=c1c(=Cc2c(O)[nH]c(=O)[nH]c2=O)cc(C)n1-c1cccc(C(=O)N2CCc3ccc(Cl)cc32)c1

> <score_type>
oracle

> <origin>
adg

> <m_score__min__energy>
-18.039999999999999

> <m_primary>
energy

> <minimizedAffinity>
-10.87545

> <minimizedRMSD>
0.68706

> <CNNscore>
0.2636925280

> <CNNaffinity>
7.0876717567

> <CNN_VS>
1.8689661026

> <CNNaffinity_variance>
0.1936682314

$$$$
51:0


 34 37  0  0  0  0  0  0  0  0999 V2000
   58.3973   29.6375   53.0146 C   0  0  0  0  0  0  0  0  0  0  0  0
   59.2468   29.5801   54.1300 C   0  0  0  0  0  0  0  0  0  0  0  0
   60.6331   29.6264   53.9614 C   0  0  0  0  0  0  0  0  0  0  0  0
   61.1817   29.7223   52.6786 C   0  0  0  0  0  0  0  0  0  0  0  0
   60.3452   29.7615   51.5511 C   0  0  0  0  0  0  0  0  0  0  0  0
   58.9521   29.7421   51.7270 C   0  0  0  0  0  0  0  0  0  0  0  0
   60.9402   29.8738   50.2026 C   0  0  0  0  0  0  0  0  0  0  0  0
   61.1553   28.8061   49.5518 O   0  0  0  0  0  0  0  0  0  0  0  0
   61.2398   31.1643   49.6079 N   0  0  0  0  0  0  0  0  0  0  0  0
   60.6186   32.3881   50.1431 C   0  0  0  0  0  0  0  0  0  0  0  0
   60.7930   33.5895   49.2029 C   0  0  0  0  0  0  0  0  0  0  0  0
   60.5494   33.1932   47.8061 N   0  0  0  0  0  0  0  0  0  0  0  0
   59.8455   34.0699   46.9030 C   0  0  0  0  0  0  0  0  0  0  0  0
   59.4494   35.2035   47.2982 O   0  0  0  0  0  0  0  0  0  0  0  0
   61.1335   31.9480   47.2820 C   0  0  0  0  0  0  0  0  0  0  0  0
   61.9903   31.2463   48.3437 C   0  0  0  0  0  0  0  0  0  0  0  0
   59.5793   33.6507   45.5912 O   0  0  0  0  0  0  0  0  0  0  0  0
   58.3125   33.1425   45.1735 C   0  0  0  0  0  0  0  0  0  0  0  0
   57.2855   33.2758   46.2950 C   0  0  0  0  0  0  0  0  0  0  0  0
   56.4144   31.7768   52.4073 C   0  0  0  0  0  0  0  0  0  0  0  0
   56.0769   30.5845   52.9267 C   0  0  0  0  0  0  0  0  0  0  0  0
   54.7825   30.1499   53.2376 C   0  0  0  0  0  0  0  0  0  0  0  0
   53.6271   30.8284   53.0748 C   0  0  0  0  0  0  0  0  0  0  0  0
   54.9103   28.8409   53.6882 C   0  0  0  0  0  0  0  0  0  0  0  0
   56.2596   28.5401   53.6551 C   0  0  0  0  0  0  0  0  0  0  0  0
   56.8427   27.2152   54.0412 C   0  0  0  0  0  0  0  0  0  0  0  0
   56.9691   29.5943   53.1921 N   0  0  0  0  0  0  0  0  0  0  0  0
   52.7670   30.7199   51.8842 C   0  0  0  0  0  0  0  0  0  0  0  0
   52.9918   29.8437   50.8885 N   0  0  0  0  0  0  0  0  0  0  0  0
   52.0259   30.1337   49.9900 C   0  0  0  0  0  0  0  0  0  0  0  0
   51.8963   29.5046   48.9090 O   0  0  0  0  0  0  0  0  0  0  0  0
   51.2148   31.1537   50.3389 N   0  0  0  0  0  0  0  0  0  0  0  0
   51.7034   31.5230   51.5336 C   0  0  0  0  0  0  0  0  0  0  0  0
   51.2160   32.6009   52.2630 O   0  0  0  0  0  0  0  0  0  0  0  0
 20 21  2  0
 21 22  1  0
 22 23  2  0
 23 28  1  0
 28 29  1  0
 29 30  1  0
 30 31  2  0
 30 32  1  0
 32 33  1  0
 33 34  1  0
 22 24  1  0
 24 25  2  0
 25 26  1  0
 25 27  1  0
 27  1  1  0
  1  2  2  0
  2  3  1  0
  3  4  2  0
  4  5  1  0
  5  7  1  0
  7  8  2  0
  7  9  1  0
  9 10  1  0
 10 11  1  0
 11 12  1  0
 12 13  1  0
 13 14  2  0
 13 17  1  0
 17 18  1  0
 18 19  1  0
 12 15  1  0
 15 16  1  0
  5  6  2  0
 27 21  1  0
  6  1  1  0
 33 28  2  0
 16  9  1  0
M  CHG 1  29  -1
M  CHG 1  32  -1
M  CHG 1  34  -1
M  END
> <UniqueID>
47

> <SMILES>
C=c1/c(=C/c2[n-]c(=O)[n-]c2[O-])cc(C)n1-c1cccc(C(=O)N2CCN(C(=O)OCC)CC2)c1

> <Energy>
133.45255630330388

> <Genealogy>
C=c1c(=Cc2[n-]c(=O)[n-]c2[O-])cc(C)n1-c1cccc(C(=O)N2CCN(C(=O)OCC)CC2)c1 (protonated)
C=c1/c(=C/c2[n-]c(=O)[n-]c2[O-])cc(C)n1-c1cccc(C(=O)N2CCN(C(=O)OCC)CC2)c1 (cis-trans isomerization)
C=c1/c(=C/c2[n-]c(=O)[n-]c2[O-])cc(C)n1-c1cccc(C(=O)N2CCN(C(=O)OCC)CC2)c1 (3D coordinates assigned)
C=c1/c(=C/c2[n-]c(=O)[n-]c2[O-])cc(C)n1-c1cccc(C(=O)N2CCN(C(=O)OCC)CC2)c1 (nonaromatic ring conformer: 133.45255630330388 kcal/mol)

> <smiles>
C=c1c(=Cc2[nH]c(=O)[nH]c2O)cc(C)n1-c1cccc(C(=O)N2CCN(C(=O)OCC)CC2)c1

> <score_type>
oracle

> <origin>
adg

> <m_score__min__energy>
-17.289999999999999

> <m_primary>
energy

> <minimizedAffinity>
-6.17557

> <minimizedRMSD>
0.90981

> <CNNscore>
0.0619891994

> <CNNaffinity>
5.2984814644

> <CNN_VS>
0.3284486234

> <CNNaffinity_variance>
0.5240051150

$$$$
62:0


 29 32  0  0  0  0  0  0  0  0999 V2000
   56.4640   31.7391   52.3288 C   0  0  0  0  0  0  0  0  0  0  0  0
   56.1491   30.4904   52.7223 C   0  0  0  0  0  0  0  0  0  0  0  0
   54.8795   30.0780   53.1473 C   0  0  0  0  0  0  0  0  0  0  0  0
   53.6666   30.6515   53.0114 C   0  0  0  0  0  0  0  0  0  0  0  0
   55.0628   28.8698   53.7800 C   0  0  0  0  0  0  0  0  0  0  0  0
   56.3968   28.5446   53.6616 C   0  0  0  0  0  0  0  0  0  0  0  0
   56.9355   27.2554   54.2091 C   0  0  0  0  0  0  0  0  0  0  0  0
   57.0699   29.5053   52.9596 N   0  0  0  0  0  0  0  0  0  0  0  0
   52.8716   30.6897   51.7718 C   0  0  0  0  0  0  0  0  0  0  0  0
   52.9762   29.8037   50.7636 N   0  0  0  0  0  0  0  0  0  0  0  0
   51.9762   30.1614   49.9298 C   0  0  0  0  0  0  0  0  0  0  0  0
   51.7543   29.5676   48.8425 O   0  0  0  0  0  0  0  0  0  0  0  0
   51.2261   31.2011   50.3562 N   0  0  0  0  0  0  0  0  0  0  0  0
   51.7991   31.5126   51.5303 C   0  0  0  0  0  0  0  0  0  0  0  0
   51.3481   32.5262   52.3655 O   0  0  0  0  0  0  0  0  0  0  0  0
   58.5165   29.5860   52.6159 C   0  0  0  0  0  0  0  0  0  0  0  0
   59.3646   30.4704   53.5652 C   0  0  0  0  0  0  0  0  0  0  0  0
   60.3446   31.3594   52.7961 C   0  0  0  0  0  0  0  0  0  0  0  0
   59.6155   32.1586   51.7961 N   0  0  0  0  0  0  0  0  0  0  0  0
   58.8868   31.3714   50.7708 C   0  0  0  0  0  0  0  0  0  0  0  0
   58.7290   29.8797   51.1136 C   0  0  0  0  0  0  0  0  0  0  0  0
   60.3931   33.2921   51.2481 C   0  0  0  0  0  0  0  0  0  0  0  0
   60.6775   33.1824   49.7599 C   0  0  0  0  0  0  0  0  0  0  0  0
   60.0578   34.0666   48.8564 C   0  0  0  0  0  0  0  0  0  0  0  0
   60.3102   33.9722   47.4859 C   0  0  0  0  0  0  0  0  0  0  0  0
   61.1940   33.0069   47.0012 C   0  0  0  0  0  0  0  0  0  0  0  0
   61.8385   32.1429   47.8880 C   0  0  0  0  0  0  0  0  0  0  0  0
   61.5924   32.2323   49.2621 C   0  0  0  0  0  0  0  0  0  0  0  0
   62.2670   31.4092   50.1030 F   0  0  0  0  0  0  0  0  0  0  0  0
  1  2  2  0
  2  3  1  0
  3  4  2  0
  4  9  1  0
  9 10  1  0
 10 11  1  0
 11 12  2  0
 11 13  1  0
 13 14  1  0
 14 15  1  0
  3  5  1  0
  5  6  2  0
  6  7  1  0
  6  8  1  0
  8 16  1  0
 16 17  1  0
 17 18  1  0
 18 19  1  0
 19 22  1  0
 22 23  1  0
 23 24  2  0
 24 25  1  0
 25 26  2  0
 26 27  1  0
 27 28  2  0
 28 29  1  0
 19 20  1  0
 20 21  1  0
  8  2  1  0
 21 16  1  0
 14  9  2  0
 28 23  1  0
M  CHG 1  10  -1
M  CHG 1  13  -1
M  CHG 1  15  -1
M  END
> <UniqueID>
58

> <SMILES>
C=c1/c(=C\c2[n-]c(=O)[n-]c2[O-])cc(C)n1C1CCN(Cc2ccccc2F)CC1

> <Energy>
144.65794877818283

> <Genealogy>
C=c1c(=Cc2[n-]c(=O)[n-]c2[O-])cc(C)n1C1CCN(Cc2ccccc2F)CC1 (protonated)
C=c1/c(=C\c2[n-]c(=O)[n-]c2[O-])cc(C)n1C1CCN(Cc2ccccc2F)CC1 (cis-trans isomerization)
C=c1/c(=C\c2[n-]c(=O)[n-]c2[O-])cc(C)n1C1CCN(Cc2ccccc2F)CC1 (3D coordinates assigned)
C=c1/c(=C\c2[n-]c(=O)[n-]c2[O-])cc(C)n1C1CCN(Cc2ccccc2F)CC1 (nonaromatic ring conformer: 144.65794877818283 kcal/mol)

> <smiles>
C=c1c(=Cc2[nH]c(=O)[nH]c2O)cc(C)n1C1CCN(Cc2ccccc2F)CC1

> <score_type>
oracle

> <origin>
adg

> <m_score__min__energy>
-16.920000000000002

> <m_primary>
energy

> <minimizedAffinity>
-6.67411

> <minimizedRMSD>
1.06325

> <CNNscore>
0.0851097256

> <CNNaffinity>
5.3403263092

> <CNN_VS>
0.4545136988

> <CNNaffinity_variance>
0.1374903768

$$$$
63:0


 33 36  0  0  0  0  0  0  0  0999 V2000
   56.5189   28.9123   44.4358 C   0  0  0  0  0  0  0  0  0  0  0  0
   57.6742   28.5000   44.9838 C   0  0  0  0  0  0  0  0  0  0  0  0
   58.1690   27.1855   45.0435 C   0  0  0  0  0  0  0  0  0  0  0  0
   57.5921   26.0072   44.7387 C   0  0  0  0  0  0  0  0  0  0  0  0
   59.4662   27.2813   45.5220 C   0  0  0  0  0  0  0  0  0  0  0  0
   59.6991   28.6150   45.7855 C   0  0  0  0  0  0  0  0  0  0  0  0
   60.9784   29.1627   46.3448 C   0  0  0  0  0  0  0  0  0  0  0  0
   58.6174   29.3550   45.4595 N   0  0  0  0  0  0  0  0  0  0  0  0
   57.1575   24.9873   45.7119 C   0  0  0  0  0  0  0  0  0  0  0  0
   55.8957   25.0786   46.3171 C   0  0  0  0  0  0  0  0  0  0  0  0
   55.0587   26.1548   46.0470 O   0  0  0  0  0  0  0  0  0  0  0  0
   55.4870   24.1152   47.1829 N   0  0  0  0  0  0  0  0  0  0  0  0
   56.2777   23.0480   47.4678 C   0  0  0  0  0  0  0  0  0  0  0  0
   55.8802   22.1703   48.2758 O   0  0  0  0  0  0  0  0  0  0  0  0
   57.4933   22.9240   46.8758 N   0  0  0  0  0  0  0  0  0  0  0  0
   57.9470   23.8598   46.0011 C   0  0  0  0  0  0  0  0  0  0  0  0
   59.0736   23.7057   45.4589 O   0  0  0  0  0  0  0  0  0  0  0  0
   58.5072   30.7836   45.5929 C   0  0  0  0  0  0  0  0  0  0  0  0
   57.9053   31.5435   44.5797 C   0  0  0  0  0  0  0  0  0  0  0  0
   57.7939   32.9280   44.7144 C   0  0  0  0  0  0  0  0  0  0  0  0
   58.2864   33.5647   45.8579 C   0  0  0  0  0  0  0  0  0  0  0  0
   58.9065   32.8184   46.8754 C   0  0  0  0  0  0  0  0  0  0  0  0
   59.0008   31.4232   46.7385 C   0  0  0  0  0  0  0  0  0  0  0  0
   59.4234   33.4968   48.0878 C   0  0  0  0  0  0  0  0  0  0  0  0
   59.5558   34.7513   48.0801 O   0  0  0  0  0  0  0  0  0  0  0  0
   59.7687   32.7565   49.2747 N   0  0  0  0  0  0  0  0  0  0  0  0
   61.1670   32.4644   49.5875 C   0  0  0  0  0  0  0  0  0  0  0  0
   61.4392   30.9873   49.3124 C   0  0  0  0  0  0  0  0  0  0  0  0
   60.4334   30.1284   49.9571 N   0  0  0  0  0  0  0  0  0  0  0  0
   60.7370   28.7095   50.1564 C   0  0  0  0  0  0  0  0  0  0  0  0
   59.0964   30.6090   50.2212 C   0  0  0  0  0  0  0  0  0  0  0  0
   58.2117   29.8164   50.6424 O   0  0  0  0  0  0  0  0  0  0  0  0
   58.7471   32.0618   50.0624 C   0  0  0  0  0  0  0  0  0  0  0  0
  1  2  2  0
  2  3  1  0
  3  4  2  0
  4  9  1  0
  9 10  2  0
 10 11  1  0
 10 12  1  0
 12 13  1  0
 13 14  2  0
 13 15  1  0
 15 16  1  0
 16 17  2  0
  3  5  1  0
  5  6  2  0
  6  7  1  0
  6  8  1  0
  8 18  1  0
 18 19  2  0
 19 20  1  0
 20 21  2  0
 21 22  1  0
 22 24  1  0
 24 25  2  0
 24 26  1  0
 26 27  1  0
 27 28  1  0
 28 29  1  0
 29 30  1  0
 29 31  1  0
 31 32  2  0
 31 33  1  0
 22 23  2  0
  8  2  1  0
 23 18  1  0
 16  9  1  0
 33 26  1  0
M  CHG 1  11  -1
M  CHG 1  12  -1
M  CHG 1  15  -1
M  END
> <UniqueID>
59

> <SMILES>
C=c1c(=Cc2c([O-])[n-]c(=O)[n-]c2=O)cc(C)n1-c1cccc(C(=O)N2CCN(C)C(=O)C2)c1

> <Energy>
108.80707394246654

> <Genealogy>
C=c1c(=Cc2c([O-])[n-]c(=O)[n-]c2=O)cc(C)n1-c1cccc(C(=O)N2CCN(C)C(=O)C2)c1 (protonated)
C=c1c(=Cc2c([O-])[n-]c(=O)[n-]c2=O)cc(C)n1-c1cccc(C(=O)N2CCN(C)C(=O)C2)c1 (3D coordinates assigned)
C=c1c(=Cc2c([O-])[n-]c(=O)[n-]c2=O)cc(C)n1-c1cccc(C(=O)N2CCN(C)C(=O)C2)c1 (nonaromatic ring conformer: 108.80707394246654 kcal/mol)

> <smiles>
C=c1c(=Cc2c(O)[nH]c(=O)[nH]c2=O)cc(C)n1-c1cccc(C(=O)N2CCN(C)C(=O)C2)c1

> <score_type>
oracle

> <origin>
adg

> <m_score__min__energy>
-17.039999999999999

> <m_primary>
energy

> <minimizedAffinity>
-9.41774

> <minimizedRMSD>
0.74678

> <CNNscore>
0.4092976153

> <CNNaffinity>
7.0623245239

> <CNN_VS>
2.8905925751

> <CNNaffinity_variance>
0.0008885156

$$$$
73:0


 33 36  0  0  0  0  0  0  0  0999 V2000
   58.5920   31.2539   45.9038 C   0  0  0  0  0  0  0  0  0  0  0  0
   58.9116   31.4660   47.2516 C   0  0  0  0  0  0  0  0  0  0  0  0
   59.2808   32.7407   47.6999 C   0  0  0  0  0  0  0  0  0  0  0  0
   59.3321   33.8069   46.7928 C   0  0  0  0  0  0  0  0  0  0  0  0
   59.0071   33.6013   45.4490 C   0  0  0  0  0  0  0  0  0  0  0  0
   58.6356   32.3294   45.0028 C   0  0  0  0  0  0  0  0  0  0  0  0
   58.3079   32.1460   43.6987 F   0  0  0  0  0  0  0  0  0  0  0  0
   58.4840   26.4088   45.1057 C   0  0  0  0  0  0  0  0  0  0  0  0
   58.1557   27.7186   45.0792 C   0  0  0  0  0  0  0  0  0  0  0  0
   57.0401   28.2955   44.4775 C   0  0  0  0  0  0  0  0  0  0  0  0
   57.1126   29.6521   44.7207 C   0  0  0  0  0  0  0  0  0  0  0  0
   56.0900   30.6535   44.2775 C   0  0  0  0  0  0  0  0  0  0  0  0
   58.2087   29.9429   45.4527 N   0  0  0  0  0  0  0  0  0  0  0  0
   58.8552   28.7730   45.6841 C   0  0  0  0  0  0  0  0  0  0  0  0
   59.9798   28.6726   46.4104 C   0  0  0  0  0  0  0  0  0  0  0  0
   55.5937   26.5605   46.0496 O   0  0  0  0  0  0  0  0  0  0  0  0
   56.4115   25.4466   46.2060 C   0  0  0  0  0  0  0  0  0  0  0  0
   56.0218   24.3109   46.8101 N   0  0  0  0  0  0  0  0  0  0  0  0
   57.1262   23.5410   46.7303 C   0  0  0  0  0  0  0  0  0  0  0  0
   57.1733   22.3710   47.1939 O   0  0  0  0  0  0  0  0  0  0  0  0
   58.1790   24.1228   46.1170 N   0  0  0  0  0  0  0  0  0  0  0  0
   57.7145   25.3379   45.7772 C   0  0  0  0  0  0  0  0  0  0  0  0
   54.7150   26.5460   46.3746 H   0  0  0  0  0  0  0  0  0  0  0  0
   59.7103   33.0133   49.3869 S   0  0  0  0  0  0  0  0  0  0  0  0
   58.9410   32.0739   50.2750 O   0  0  0  0  0  0  0  0  0  0  0  0
   59.3497   34.4267   49.7529 O   0  0  0  0  0  0  0  0  0  0  0  0
   61.4256   32.7626   49.5983 N   0  0  0  0  0  0  0  0  0  0  0  0
   62.1892   33.9951   49.2894 C   0  0  0  0  0  0  0  0  0  0  0  0
   62.8695   33.9399   47.9120 C   0  0  0  0  0  0  0  0  0  0  0  0
   63.7826   32.7881   47.7887 N   0  0  0  0  0  0  0  0  0  0  0  0
   63.3731   31.6127   48.5805 C   0  0  0  0  0  0  0  0  0  0  0  0
   61.8586   31.5832   48.8221 C   0  0  0  0  0  0  0  0  0  0  0  0
   64.7094   33.0782   48.1006 H   0  0  0  0  0  0  0  0  0  0  0  0
 16 17  1  0
 17 18  1  0
 18 19  1  0
 19 20  2  0
 19 21  1  0
 21 22  1  0
 22  8  1  0
  8  9  2  0
  9 10  1  0
 10 11  2  0
 11 12  1  0
 11 13  1  0
 13  1  1  0
  1  2  2  0
  2  3  1  0
  3 24  1  0
 24 25  2  0
 24 26  2  0
 24 27  1  0
 27 28  1  0
 28 29  1  0
 29 30  1  0
 30 31  1  0
 31 32  1  0
  3  4  2  0
  4  5  1  0
  5  6  2  0
  6  7  1  0
 13 14  1  0
 14 15  2  0
 22 17  2  0
 14  9  1  0
  6  1  1  0
 32 27  1  0
 16 23  1  0
 30 33  1  0
M  CHG 1  18  -1
M  CHG 1  21  -1
M  END
> <UniqueID>
69

> <SMILES>
C=c1/c(=C/c2[n-]c(=O)[n-]c2O)cc(C)n1-c1cc(S(=O)(=O)N2CCNCC2)ccc1F

> <Energy>
129.9012570134916

> <Genealogy>
C=c1c(=Cc2[n-]c(=O)[n-]c2O)cc(C)n1-c1cc(S(=O)(=O)N2CCNCC2)ccc1F (protonated)
C=c1/c(=C/c2[n-]c(=O)[n-]c2O)cc(C)n1-c1cc(S(=O)(=O)N2CCNCC2)ccc1F (cis-trans isomerization)
C=c1/c(=C/c2[n-]c(=O)[n-]c2O)cc(C)n1-c1cc(S(=O)(=O)N2CCNCC2)ccc1F (3D coordinates assigned)
C=c1/c(=C/c2[n-]c(=O)[n-]c2O)cc(C)n1-c1cc(S(=O)(=O)N2CCNCC2)ccc1F (nonaromatic ring conformer: 129.9012570134916 kcal/mol)

> <smiles>
C=c1c(=Cc2[nH]c(=O)[nH]c2O)cc(C)n1-c1cc(S(=O)(=O)N2CCNCC2)ccc1F

> <score_type>
oracle

> <origin>
adg

> <m_score__min__energy>
-14.56

> <m_primary>
energy

> <minimizedAffinity>
-8.87044

> <minimizedRMSD>
0.65633

> <CNNscore>
0.3213716745

> <CNNaffinity>
6.9899077415

> <CNN_VS>
2.2463583946

> <CNNaffinity_variance>
0.0045825583

$$$$
78:0


 31 34  0  0  0  0  0  0  0  0999 V2000
   54.5553   29.6016   55.6891 C   0  0  0  0  0  0  0  0  0  0  0  0
   55.0131   29.8346   54.4490 C   0  0  0  0  0  0  0  0  0  0  0  0
   54.2564   30.2434   53.3385 C   0  0  0  0  0  0  0  0  0  0  0  0
   52.9250   30.3074   53.1471 C   0  0  0  0  0  0  0  0  0  0  0  0
   55.1676   30.5730   52.3527 C   0  0  0  0  0  0  0  0  0  0  0  0
   56.4214   30.3081   52.8575 C   0  0  0  0  0  0  0  0  0  0  0  0
   56.3352   29.8426   54.1275 N   0  0  0  0  0  0  0  0  0  0  0  0
   57.6675   30.4892   52.0879 C   0  0  0  0  0  0  0  0  0  0  0  0
   57.9569   29.6476   51.1959 O   0  0  0  0  0  0  0  0  0  0  0  0
   58.5261   31.6228   52.3099 N   0  0  0  0  0  0  0  0  0  0  0  0
   59.9512   31.5371   51.9747 C   0  0  0  0  0  0  0  0  0  0  0  0
   60.8129   32.3353   52.9785 C   0  0  0  0  0  0  0  0  0  0  0  0
   60.1152   33.4676   53.6173 N   0  0  0  0  0  0  0  0  0  0  0  0
   59.0205   33.9947   52.7943 C   0  0  0  0  0  0  0  0  0  0  0  0
   57.9315   32.9311   52.6196 C   0  0  0  0  0  0  0  0  0  0  0  0
   60.7891   34.2154   53.7817 H   0  0  0  0  0  0  0  0  0  0  0  0
   52.2513   30.4349   51.8441 C   0  0  0  0  0  0  0  0  0  0  0  0
   52.3749   29.5601   50.8275 N   0  0  0  0  0  0  0  0  0  0  0  0
   51.7071   30.1596   49.8185 C   0  0  0  0  0  0  0  0  0  0  0  0
   51.5828   29.6349   48.6822 O   0  0  0  0  0  0  0  0  0  0  0  0
   51.1932   31.3716   50.1194 N   0  0  0  0  0  0  0  0  0  0  0  0
   51.5588   31.5351   51.4005 C   0  0  0  0  0  0  0  0  0  0  0  0
   51.2723   32.6705   52.1475 O   0  0  0  0  0  0  0  0  0  0  0  0
   57.4442   29.3138   54.9438 C   0  0  0  0  0  0  0  0  0  0  0  0
   57.7194   27.8785   54.5839 C   0  0  0  0  0  0  0  0  0  0  0  0
   58.9888   27.5034   54.1126 C   0  0  0  0  0  0  0  0  0  0  0  0
   59.2494   26.1745   53.7684 C   0  0  0  0  0  0  0  0  0  0  0  0
   58.2468   25.2082   53.8952 C   0  0  0  0  0  0  0  0  0  0  0  0
   58.5014   23.9201   53.5596 F   0  0  0  0  0  0  0  0  0  0  0  0
   56.9827   25.5717   54.3683 C   0  0  0  0  0  0  0  0  0  0  0  0
   56.7182   26.9003   54.7139 C   0  0  0  0  0  0  0  0  0  0  0  0
  1  2  2  0
  2  3  1  0
  3  4  2  0
  4 17  1  0
 17 18  1  0
 18 19  1  0
 19 20  2  0
 19 21  1  0
 21 22  1  0
 22 23  1  0
  3  5  1  0
  5  6  2  0
  6  8  1  0
  8  9  2  0
  8 10  1  0
 10 11  1  0
 11 12  1  0
 12 13  1  0
 13 14  1  0
 14 15  1  0
  6  7  1  0
  7 24  1  0
 24 25  1  0
 25 26  2  0
 26 27  1  0
 27 28  2  0
 28 29  1  0
 28 30  1  0
 30 31  2  0
  7  2  1  0
 31 25  1  0
 22 17  2  0
 15 10  1  0
 13 16  1  0
M  CHG 1  18  -1
M  CHG 1  21  -1
M  CHG 1  23  -1
M  END
> <UniqueID>
74

> <SMILES>
C=c1/c(=C\c2[n-]c(=O)[n-]c2[O-])cc(C(=O)N2CCNCC2)n1Cc1ccc(F)cc1

> <Energy>
129.924438845549

> <Genealogy>
C=c1c(=Cc2[n-]c(=O)[n-]c2[O-])cc(C(=O)N2CCNCC2)n1Cc1ccc(F)cc1 (protonated)
C=c1/c(=C\c2[n-]c(=O)[n-]c2[O-])cc(C(=O)N2CCNCC2)n1Cc1ccc(F)cc1 (cis-trans isomerization)
C=c1/c(=C\c2[n-]c(=O)[n-]c2[O-])cc(C(=O)N2CCNCC2)n1Cc1ccc(F)cc1 (3D coordinates assigned)
C=c1/c(=C\c2[n-]c(=O)[n-]c2[O-])cc(C(=O)N2CCNCC2)n1Cc1ccc(F)cc1 (nonaromatic ring conformer: 129.924438845549 kcal/mol)

> <smiles>
C=c1c(=Cc2[nH]c(=O)[nH]c2O)cc(C(=O)N2CCNCC2)n1Cc1ccc(F)cc1

> <score_type>
oracle

> <origin>
adg

> <m_score__min__energy>
-16.059999999999999

> <m_primary>
energy

> <minimizedAffinity>
-5.42930

> <minimizedRMSD>
0.80330

> <CNNscore>
0.1518896222

> <CNNaffinity>
4.5804114342

> <CNN_VS>
0.6957169771

> <CNNaffinity_variance>
0.8751074672

$$$$
87:0


 27 29  0  0  0  0  0  0  0  0999 V2000
   57.9089   27.0202   46.1225 C   0  0  0  0  0  0  0  0  0  0  0  0
   58.1901   27.7080   44.9318 C   0  0  0  0  0  0  0  0  0  0  0  0
   59.1910   28.6822   44.9000 C   0  0  0  0  0  0  0  0  0  0  0  0
   59.9301   28.9703   46.0504 C   0  0  0  0  0  0  0  0  0  0  0  0
   59.6747   28.2754   47.2448 C   0  0  0  0  0  0  0  0  0  0  0  0
   58.6682   27.3011   47.2716 C   0  0  0  0  0  0  0  0  0  0  0  0
   55.6488   26.3226   46.1400 O   0  0  0  0  0  0  0  0  0  0  0  0
   56.8612   25.9742   46.1416 C   0  0  0  0  0  0  0  0  0  0  0  0
   57.1783   24.5332   46.1508 C   0  0  0  0  0  0  0  0  0  0  0  0
   58.1154   23.9763   45.3605 N   0  0  0  0  0  0  0  0  0  0  0  0
   58.0422   22.6616   45.6603 C   0  0  0  0  0  0  0  0  0  0  0  0
   58.7830   21.8001   45.1208 O   0  0  0  0  0  0  0  0  0  0  0  0
   57.1069   22.3419   46.5805 N   0  0  0  0  0  0  0  0  0  0  0  0
   56.5631   23.5352   46.8762 C   0  0  0  0  0  0  0  0  0  0  0  0
   55.5051   23.6952   47.7617 O   0  0  0  0  0  0  0  0  0  0  0  0
   60.4162   28.5256   48.4450 N   0  0  0  0  0  0  0  0  0  0  0  0
   60.1047   29.8116   49.5646 S   0  0  0  0  0  0  0  0  0  0  0  0
   58.6288   29.9108   49.8317 O   0  0  0  0  0  0  0  0  0  0  0  0
   60.8339   29.5468   50.8528 O   0  0  0  0  0  0  0  0  0  0  0  0
   60.6838   31.3571   48.8771 C   0  0  0  0  0  0  0  0  0  0  0  0
   59.5997   32.4441   48.8797 C   0  0  0  0  0  0  0  0  0  0  0  0
   59.2928   32.9495   47.4919 C   0  0  0  0  0  0  0  0  0  0  0  0
   59.7154   34.2290   47.0958 C   0  0  0  0  0  0  0  0  0  0  0  0
   59.4094   34.7074   45.8185 C   0  0  0  0  0  0  0  0  0  0  0  0
   58.6806   33.9150   44.9288 C   0  0  0  0  0  0  0  0  0  0  0  0
   58.2554   32.6404   45.3148 C   0  0  0  0  0  0  0  0  0  0  0  0
   58.5589   32.1572   46.5924 C   0  0  0  0  0  0  0  0  0  0  0  0
  7  8  2  0
  8  1  1  0
  1  2  2  0
  2  3  1  0
  3  4  2  0
  4  5  1  0
  5 16  1  0
 16 17  1  0
 17 18  2  0
 17 19  2  0
 17 20  1  0
 20 21  1  0
 21 22  1  0
 22 23  2  0
 23 24  1  0
 24 25  2  0
 25 26  1  0
 26 27  2  0
  5  6  2  0
  8  9  1  0
  9 10  1  0
 10 11  1  0
 11 12  2  0
 11 13  1  0
 13 14  1  0
 14 15  1  0
  6  1  1  0
 14  9  2  0
 27 22  1  0
M  CHG 1  10  -1
M  CHG 1  13  -1
M  CHG 1  15  -1
M  CHG 1  16  -1
M  END
> <UniqueID>
83

> <SMILES>
O=C(c1cccc([N-]S(=O)(=O)CCc2ccccc2)c1)c1[n-]c(=O)[n-]c1[O-]

> <Energy>
73.78994305986862

> <Genealogy>
O=C(c1cccc([N-]S(=O)(=O)CCc2ccccc2)c1)c1[n-]c(=O)[n-]c1[O-] (protonated)
O=C(c1cccc([N-]S(=O)(=O)CCc2ccccc2)c1)c1[n-]c(=O)[n-]c1[O-] (3D coordinates assigned)
O=C(c1cccc([N-]S(=O)(=O)CCc2ccccc2)c1)c1[n-]c(=O)[n-]c1[O-] (optimized conformer: 73.78994305986862 kcal/mol)

> <smiles>
O=C(c1cccc(NS(=O)(=O)CCc2ccccc2)c1)c1[nH]c(=O)[nH]c1O

> <score_type>
oracle

> <origin>
adg

> <m_score__min__energy>
-18.649999999999999

> <m_primary>
energy

> <minimizedAffinity>
-7.89909

> <minimizedRMSD>
3.07843

> <CNNscore>
0.7127323747

> <CNNaffinity>
6.4988217354

> <CNN_VS>
4.6319208145

> <CNNaffinity_variance>
0.0369672067

$$$$
89:0


 26 28  0  0  0  0  0  0  0  0999 V2000
   54.0228   27.9460   54.0158 C   0  0  0  0  0  0  0  0  0  0  0  0
   54.8939   28.7406   53.3802 C   0  0  0  0  0  0  0  0  0  0  0  0
   56.2085   28.5726   53.6892 N   0  0  0  0  0  0  0  0  0  0  0  0
   57.1900   29.4142   53.2752 C   0  0  0  0  0  0  0  0  0  0  0  0
   58.5996   29.1496   53.7173 C   0  0  0  0  0  0  0  0  0  0  0  0
   56.8498   30.5471   52.5195 C   0  0  0  0  0  0  0  0  0  0  0  0
   55.5105   30.7565   52.1788 C   0  0  0  0  0  0  0  0  0  0  0  0
   54.5139   29.8192   52.5196 C   0  0  0  0  0  0  0  0  0  0  0  0
   53.2813   30.0074   51.9826 C   0  0  0  0  0  0  0  0  0  0  0  0
   57.8664   31.5156   52.0615 C   0  0  0  0  0  0  0  0  0  0  0  0
   58.1585   32.4877   52.8090 O   0  0  0  0  0  0  0  0  0  0  0  0
   58.5127   31.3734   50.7796 N   0  0  0  0  0  0  0  0  0  0  0  0
   58.8436   30.0213   50.3113 C   0  0  0  0  0  0  0  0  0  0  0  0
   59.1736   29.9955   48.8479 C   0  0  0  0  0  0  0  0  0  0  0  0
   59.2691   28.8884   48.2548 O   0  0  0  0  0  0  0  0  0  0  0  0
   59.4438   31.2053   48.1311 N   0  0  0  0  0  0  0  0  0  0  0  0
   59.0943   32.5119   48.6770 C   0  0  0  0  0  0  0  0  0  0  0  0
   59.2251   32.5204   50.1979 C   0  0  0  0  0  0  0  0  0  0  0  0
   59.8762   31.1539   47.2481 H   0  0  0  0  0  0  0  0  0  0  0  0
   52.1853   30.8033   52.5651 C   0  0  0  0  0  0  0  0  0  0  0  0
   51.8700   30.7840   53.8709 N   0  0  0  0  0  0  0  0  0  0  0  0
   50.9048   31.7235   53.9739 C   0  0  0  0  0  0  0  0  0  0  0  0
   50.3350   31.9935   55.0636 O   0  0  0  0  0  0  0  0  0  0  0  0
   50.6077   32.3604   52.8203 N   0  0  0  0  0  0  0  0  0  0  0  0
   51.4364   31.7763   51.9406 C   0  0  0  0  0  0  0  0  0  0  0  0
   51.5271   32.1485   50.6051 O   0  0  0  0  0  0  0  0  0  0  0  0
  1  2  2  0
  2  3  1  0
  3  4  2  0
  4  5  1  0
  4  6  1  0
  6 10  1  0
 10 11  2  0
 10 12  1  0
 12 13  1  0
 13 14  1  0
 14 15  2  0
 14 16  1  0
 16 17  1  0
 17 18  1  0
  6  7  2  0
  7  8  1  0
  8  9  2  0
  9 20  1  0
 20 21  1  0
 21 22  1  0
 22 23  2  0
 22 24  1  0
 24 25  1  0
 25 26  1  0
  8  2  1  0
 25 20  2  0
 18 12  1  0
 16 19  1  0
M  CHG 1  21  -1
M  CHG 1  24  -1
M  CHG 1  26  -1
M  END
> <UniqueID>
85

> <SMILES>
C=c1nc(C)c(C(=O)N2CCNC(=O)C2)c/c1=C/c1[n-]c(=O)[n-]c1[O-]

> <Energy>
96.19599413125758

> <Genealogy>
C=c1nc(C)c(C(=O)N2CCNC(=O)C2)cc1=Cc1[n-]c(=O)[n-]c1[O-] (protonated)
C=c1nc(C)c(C(=O)N2CCNC(=O)C2)c/c1=C/c1[n-]c(=O)[n-]c1[O-] (cis-trans isomerization)
C=c1nc(C)c(C(=O)N2CCNC(=O)C2)c/c1=C/c1[n-]c(=O)[n-]c1[O-] (3D coordinates assigned)
C=c1nc(C)c(C(=O)N2CCNC(=O)C2)c/c1=C/c1[n-]c(=O)[n-]c1[O-] (nonaromatic ring conformer: 96.19599413125758 kcal/mol)

> <smiles>
C=c1nc(C)c(C(=O)N2CCNC(=O)C2)cc1=Cc1[nH]c(=O)[nH]c1O

> <score_type>
oracle

> <origin>
adg

> <m_score__min__energy>
-16.32

> <m_primary>
energy

> <minimizedAffinity>
-6.86077

> <minimizedRMSD>
0.66243

> <CNNscore>
0.1623152196

> <CNNaffinity>
4.5836663246

> <CNN_VS>
0.7439988256

> <CNNaffinity_variance>
0.1663443595

$$$$
7:0


 25 26  0  0  0  0  0  0  0  0999 V2000
   56.7752   21.7686   47.2534 O   0  0  0  0  0  0  0  0  0  0  0  0
   55.9198   22.6931   47.2684 C   0  0  0  0  0  0  0  0  0  0  0  0
   56.1996   23.9295   48.0787 C   0  0  0  0  0  0  0  0  0  0  0  0
   57.2264   24.7381   47.4302 N   0  0  0  0  0  0  0  0  0  0  0  0
   56.9471   25.9451   46.7108 C   0  0  0  0  0  0  0  0  0  0  0  0
   55.7574   26.2112   46.3857 O   0  0  0  0  0  0  0  0  0  0  0  0
   58.0428   26.8782   46.3332 C   0  0  0  0  0  0  0  0  0  0  0  0
   59.3678   26.5737   46.7055 C   0  0  0  0  0  0  0  0  0  0  0  0
   60.4204   27.4297   46.3672 C   0  0  0  0  0  0  0  0  0  0  0  0
   60.1671   28.6002   45.6538 C   0  0  0  0  0  0  0  0  0  0  0  0
   58.8625   28.9172   45.2726 C   0  0  0  0  0  0  0  0  0  0  0  0
   57.8006   28.0683   45.6032 C   0  0  0  0  0  0  0  0  0  0  0  0
   56.5199   28.4173   45.1902 O   0  0  0  0  0  0  0  0  0  0  0  0
   54.7257   22.5371   46.4915 N   0  0  0  0  0  0  0  0  0  0  0  0
   53.8461   23.6285   46.0872 C   0  0  0  0  0  0  0  0  0  0  0  0
   53.5351   23.5150   44.6222 C   0  0  0  0  0  0  0  0  0  0  0  0
   52.3302   23.4676   44.2528 O   0  0  0  0  0  0  0  0  0  0  0  0
   54.5633   23.4944   43.6232 N   0  0  0  0  0  0  0  0  0  0  0  0
   55.9382   23.1257   43.8067 C   0  0  0  0  0  0  0  0  0  0  0  0
   56.9189   24.0694   44.1601 C   0  0  0  0  0  0  0  0  0  0  0  0
   58.2445   23.6677   44.3567 C   0  0  0  0  0  0  0  0  0  0  0  0
   58.5954   22.3212   44.2266 C   0  0  0  0  0  0  0  0  0  0  0  0
   59.8812   21.9335   44.4213 F   0  0  0  0  0  0  0  0  0  0  0  0
   57.6187   21.3738   43.9089 C   0  0  0  0  0  0  0  0  0  0  0  0
   56.2929   21.7738   43.7082 C   0  0  0  0  0  0  0  0  0  0  0  0
  1  2  2  0
  2  3  1  0
  3  4  1  0
  4  5  1  0
  5  6  2  0
  5  7  1  0
  7  8  2  0
  8  9  1  0
  9 10  2  0
 10 11  1  0
 11 12  2  0
 12 13  1  0
  2 14  1  0
 14 15  1  0
 15 16  1  0
 16 17  2  0
 16 18  1  0
 18 19  1  0
 19 20  2  0
 20 21  1  0
 21 22  2  0
 22 23  1  0
 22 24  1  0
 24 25  2  0
 12  7  1  0
 25 19  1  0
M  CHG 1   4  -1
M  CHG 1  13  -1
M  CHG 1  14  -1
M  CHG 1  18  -1
M  END
> <UniqueID>
7

> <SMILES>
O=C(C[N-]C(=O)c1ccccc1[O-])[N-]CC(=O)[N-]c1ccc(F)cc1

> <Energy>
40.43147844623876

> <Genealogy>
O=C(C[N-]C(=O)c1ccccc1[O-])[N-]CC(=O)[N-]c1ccc(F)cc1 (protonated)
O=C(C[N-]C(=O)c1ccccc1[O-])[N-]CC(=O)[N-]c1ccc(F)cc1 (3D coordinates assigned)
O=C(C[N-]C(=O)c1ccccc1[O-])[N-]CC(=O)[N-]c1ccc(F)cc1 (optimized conformer: 40.43147844623876 kcal/mol)

> <smiles>
O=C(CNC(=O)c1ccccc1O)NCC(=O)Nc1ccc(F)cc1

> <score_type>
oracle

> <origin>
adg

> <m_score__min__energy>
-15.470000000000001

> <m_primary>
energy

> <minimizedAffinity>
-4.35660

> <minimizedRMSD>
1.05156

> <CNNscore>
0.1249560118

> <CNNaffinity>
4.6468567848

> <CNN_VS>
0.5806527138

> <CNNaffinity_variance>
0.4188592434

$$$$
12:0


 22 24  0  0  0  0  0  0  0  0999 V2000
   60.1292   29.0189   45.6682 C   0  0  0  0  0  0  0  0  0  0  0  0
   58.8349   29.0528   45.3181 C   0  0  0  0  0  0  0  0  0  0  0  0
   58.0427   28.0094   44.8103 C   0  0  0  0  0  0  0  0  0  0  0  0
   58.3054   26.6958   44.6885 C   0  0  0  0  0  0  0  0  0  0  0  0
   56.8455   28.5121   44.4363 N   0  0  0  0  0  0  0  0  0  0  0  0
   56.9088   29.8161   44.7599 C   0  0  0  0  0  0  0  0  0  0  0  0
   55.9586   30.6164   44.5507 O   0  0  0  0  0  0  0  0  0  0  0  0
   58.0860   30.1820   45.3031 N   0  0  0  0  0  0  0  0  0  0  0  0
   57.6493   25.6111   45.4365 C   0  0  0  0  0  0  0  0  0  0  0  0
   58.2205   24.4279   45.7301 N   0  0  0  0  0  0  0  0  0  0  0  0
   57.3136   23.8369   46.5369 C   0  0  0  0  0  0  0  0  0  0  0  0
   57.4828   22.6857   47.0177 O   0  0  0  0  0  0  0  0  0  0  0  0
   56.2178   24.5803   46.7993 N   0  0  0  0  0  0  0  0  0  0  0  0
   56.4543   25.7045   46.1063 C   0  0  0  0  0  0  0  0  0  0  0  0
   55.5990   26.7991   46.0920 O   0  0  0  0  0  0  0  0  0  0  0  0
   58.4632   31.5216   45.6691 C   0  0  0  0  0  0  0  0  0  0  0  0
   58.3569   32.5719   44.7438 C   0  0  0  0  0  0  0  0  0  0  0  0
   58.7042   33.8744   45.1143 C   0  0  0  0  0  0  0  0  0  0  0  0
   59.1504   34.1381   46.4115 C   0  0  0  0  0  0  0  0  0  0  0  0
   59.2440   33.1003   47.3442 C   0  0  0  0  0  0  0  0  0  0  0  0
   59.7969   33.4332   48.9759 Cl  0  0  0  0  0  0  0  0  0  0  0  0
   58.8977   31.7957   46.9755 C   0  0  0  0  0  0  0  0  0  0  0  0
  1  2  2  0
  2  3  1  0
  3  4  2  0
  4  9  1  0
  9 10  1  0
 10 11  1  0
 11 12  2  0
 11 13  1  0
 13 14  1  0
 14 15  1  0
  3  5  1  0
  5  6  1  0
  6  7  2  0
  6  8  1  0
  8 16  1  0
 16 17  2  0
 17 18  1  0
 18 19  2  0
 19 20  1  0
 20 21  1  0
 20 22  2  0
  8  2  1  0
 22 16  1  0
 14  9  2  0
M  CHG 1   5  -1
M  CHG 1  10  -1
M  CHG 1  13  -1
M  CHG 1  15  -1
M  END
> <UniqueID>
10

> <SMILES>
C=c1/c(=C\c2[n-]c(=O)[n-]c2[O-])[n-]c(=O)n1-c1cccc(Cl)c1

> <Energy>
112.07434620358242

> <Genealogy>
C=c1c(=Cc2[n-]c(=O)[n-]c2[O-])[n-]c(=O)n1-c1cccc(Cl)c1 (protonated)
C=c1/c(=C\c2[n-]c(=O)[n-]c2[O-])[n-]c(=O)n1-c1cccc(Cl)c1 (cis-trans isomerization)
C=c1/c(=C\c2[n-]c(=O)[n-]c2[O-])[n-]c(=O)n1-c1cccc(Cl)c1 (3D coordinates assigned)
C=c1/c(=C\c2[n-]c(=O)[n-]c2[O-])[n-]c(=O)n1-c1cccc(Cl)c1 (optimized conformer: 112.07434620358242 kcal/mol)

> <smiles>
C=c1c(=Cc2[nH]c(=O)[nH]c2O)[nH]c(=O)n1-c1cccc(Cl)c1

> <score_type>
oracle

> <origin>
adg

> <m_score__min__energy>
-17.02

> <m_primary>
energy

> <minimizedAffinity>
-7.87177

> <minimizedRMSD>
0.64062

> <CNNscore>
0.6379473209

> <CNNaffinity>
6.5638594627

> <CNN_VS>
4.1873965263

> <CNNaffinity_variance>
0.1386012882

$$$$
21:0


 25 26  0  0  0  0  0  0  0  0999 V2000
   57.5417   30.9917   51.5545 N   0  0  0  0  0  0  0  0  0  0  0  0
   57.0160   30.3040   53.0628 S   0  0  0  0  0  0  0  0  0  0  0  0
   57.5729   28.9143   53.1964 O   0  0  0  0  0  0  0  0  0  0  0  0
   57.5154   31.1399   54.2091 O   0  0  0  0  0  0  0  0  0  0  0  0
   53.1007   30.5134   52.2877 C   0  0  0  0  0  0  0  0  0  0  0  0
   54.4614   30.6548   52.0369 C   0  0  0  0  0  0  0  0  0  0  0  0
   55.2617   30.2224   53.1025 C   0  0  0  0  0  0  0  0  0  0  0  0
   54.5446   29.7442   54.1920 C   0  0  0  0  0  0  0  0  0  0  0  0
   52.9062   29.8571   53.8257 S   0  0  0  0  0  0  0  0  0  0  0  0
   51.2830   32.0842   51.5673 N   0  0  0  0  0  0  0  0  0  0  0  0
   52.0100   30.8738   51.3734 C   0  0  0  0  0  0  0  0  0  0  0  0
   51.7123   30.1131   50.4150 O   0  0  0  0  0  0  0  0  0  0  0  0
   50.5521   32.3233   50.9525 H   0  0  0  0  0  0  0  0  0  0  0  0
   58.9302   30.6290   51.2612 C   0  0  0  0  0  0  0  0  0  0  0  0
   59.0216   29.9670   49.8863 C   0  0  0  0  0  0  0  0  0  0  0  0
   59.3511   30.9799   48.8370 C   0  0  0  0  0  0  0  0  0  0  0  0
   59.2776   32.2067   49.1128 O   0  0  0  0  0  0  0  0  0  0  0  0
   59.6467   30.5435   47.5040 N   0  0  0  0  0  0  0  0  0  0  0  0
   58.7617   30.5811   46.3749 C   0  0  0  0  0  0  0  0  0  0  0  0
   58.5675   31.7550   45.6221 C   0  0  0  0  0  0  0  0  0  0  0  0
   57.7138   31.7487   44.5151 C   0  0  0  0  0  0  0  0  0  0  0  0
   57.0596   30.5734   44.1407 C   0  0  0  0  0  0  0  0  0  0  0  0
   57.2644   29.3977   44.8685 C   0  0  0  0  0  0  0  0  0  0  0  0
   58.1177   29.3985   45.9764 C   0  0  0  0  0  0  0  0  0  0  0  0
   58.3199   28.2187   46.6856 O   0  0  0  0  0  0  0  0  0  0  0  0
 10 11  1  0
 11 12  2  0
 11  5  1  0
  5  6  2  0
  6  7  1  0
  7  2  1  0
  2  3  2  0
  2  4  2  0
  2  1  1  0
  1 14  1  0
 14 15  1  0
 15 16  1  0
 16 17  2  0
 16 18  1  0
 18 19  1  0
 19 20  2  0
 20 21  1  0
 21 22  2  0
 22 23  1  0
 23 24  2  0
 24 25  1  0
  7  8  2  0
  8  9  1  0
  9  5  1  0
 24 19  1  0
 10 13  1  0
M  CHG 1   1  -1
M  CHG 1  10  -1
M  CHG 1  18  -1
M  CHG 1  25  -1
M  END
> <UniqueID>
19

> <SMILES>
[NH-]C(=O)c1cc(S(=O)(=O)[N-]CCC(=O)[N-]c2ccccc2[O-])cs1

> <Energy>
59.683594317908636

> <Genealogy>
[NH-]C(=O)c1cc(S(=O)(=O)[N-]CCC(=O)[N-]c2ccccc2[O-])cs1 (protonated)
[NH-]C(=O)c1cc(S(=O)(=O)[N-]CCC(=O)[N-]c2ccccc2[O-])cs1 (3D coordinates assigned)
[NH-]C(=O)c1cc(S(=O)(=O)[N-]CCC(=O)[N-]c2ccccc2[O-])cs1 (optimized conformer: 59.683594317908636 kcal/mol)

> <smiles>
NC(=O)c1cc(S(=O)(=O)NCCC(=O)Nc2ccccc2O)cs1

> <score_type>
oracle

> <origin>
adg

> <m_score__min__energy>
-15.81

> <m_primary>
energy

> <minimizedAffinity>
-6.15807

> <minimizedRMSD>
1.49880

> <CNNscore>
0.2748239934

> <CNNaffinity>
5.1504759789

> <CNN_VS>
1.4154744148

> <CNNaffinity_variance>
0.2303291559

$$$$
24:0


 29 32  0  0  0  0  0  0  0  0999 V2000
   58.8390   28.4810   47.2804 C   0  0  0  0  0  0  0  0  0  0  0  0
   58.5597   28.8628   46.0244 C   0  0  0  0  0  0  0  0  0  0  0  0
   58.2089   28.0377   44.9417 C   0  0  0  0  0  0  0  0  0  0  0  0
   58.2207   26.6978   44.8080 C   0  0  0  0  0  0  0  0  0  0  0  0
   57.8335   28.8885   43.9128 C   0  0  0  0  0  0  0  0  0  0  0  0
   58.0239   30.1765   44.3681 C   0  0  0  0  0  0  0  0  0  0  0  0
   57.7416   31.4151   43.5749 C   0  0  0  0  0  0  0  0  0  0  0  0
   58.4653   30.1637   45.6436 N   0  0  0  0  0  0  0  0  0  0  0  0
   58.7043   31.3323   46.4469 C   0  0  0  0  0  0  0  0  0  0  0  0
   57.7265   32.0569   46.7805 O   0  0  0  0  0  0  0  0  0  0  0  0
   60.0319   31.6614   46.8990 N   0  0  0  0  0  0  0  0  0  0  0  0
   60.3665   33.0143   47.3560 C   0  0  0  0  0  0  0  0  0  0  0  0
   60.7129   32.9724   48.8436 C   0  0  0  0  0  0  0  0  0  0  0  0
   61.7015   31.9133   49.0984 N   0  0  0  0  0  0  0  0  0  0  0  0
   61.4164   30.5621   48.5938 C   0  0  0  0  0  0  0  0  0  0  0  0
   61.0445   30.6198   47.1090 C   0  0  0  0  0  0  0  0  0  0  0  0
   57.6273   25.7351   45.7482 C   0  0  0  0  0  0  0  0  0  0  0  0
   58.1914   24.5662   46.1069 N   0  0  0  0  0  0  0  0  0  0  0  0
   57.2319   23.9729   46.8506 C   0  0  0  0  0  0  0  0  0  0  0  0
   57.3914   22.8467   47.3880 O   0  0  0  0  0  0  0  0  0  0  0  0
   56.0849   24.6765   46.9626 N   0  0  0  0  0  0  0  0  0  0  0  0
   56.3475   25.7805   46.2461 C   0  0  0  0  0  0  0  0  0  0  0  0
   55.4345   26.8070   46.0457 O   0  0  0  0  0  0  0  0  0  0  0  0
   62.7346   32.1180   50.0800 C   0  0  0  0  0  0  0  0  0  0  0  0
   64.0599   32.3486   49.6717 C   0  0  0  0  0  0  0  0  0  0  0  0
   65.0679   32.5449   50.6207 C   0  0  0  0  0  0  0  0  0  0  0  0
   64.7607   32.5111   51.9838 C   0  0  0  0  0  0  0  0  0  0  0  0
   63.4478   32.2799   52.3995 C   0  0  0  0  0  0  0  0  0  0  0  0
   62.4376   32.0841   51.4532 C   0  0  0  0  0  0  0  0  0  0  0  0
  1  2  2  0
  2  3  1  0
  3  4  2  0
  4 17  1  0
 17 18  1  0
 18 19  1  0
 19 20  2  0
 19 21  1  0
 21 22  1  0
 22 23  1  0
  3  5  1  0
  5  6  2  0
  6  7  1  0
  6  8  1  0
  8  9  1  0
  9 10  2  0
  9 11  1  0
 11 12  1  0
 12 13  1  0
 13 14  1  0
 14 24  1  0
 24 25  2  0
 25 26  1  0
 26 27  2  0
 27 28  1  0
 28 29  2  0
 14 15  1  0
 15 16  1  0
  8  2  1  0
 16 11  1  0
 22 17  2  0
 29 24  1  0
M  CHG 1  18  -1
M  CHG 1  21  -1
M  CHG 1  23  -1
M  END
> <UniqueID>
21

> <SMILES>
C=c1/c(=C\c2[n-]c(=O)[n-]c2[O-])cc(C)n1C(=O)N1CCN(c2ccccc2)CC1

> <Energy>
130.34433689395956

> <Genealogy>
C=c1c(=Cc2[n-]c(=O)[n-]c2[O-])cc(C)n1C(=O)N1CCN(c2ccccc2)CC1 (protonated)
C=c1/c(=C\c2[n-]c(=O)[n-]c2[O-])cc(C)n1C(=O)N1CCN(c2ccccc2)CC1 (cis-trans isomerization)
C=c1/c(=C\c2[n-]c(=O)[n-]c2[O-])cc(C)n1C(=O)N1CCN(c2ccccc2)CC1 (3D coordinates assigned)
C=c1/c(=C\c2[n-]c(=O)[n-]c2[O-])cc(C)n1C(=O)N1CCN(c2ccccc2)CC1 (nonaromatic ring conformer: 130.34433689395956 kcal/mol)

> <smiles>
C=c1c(=Cc2[nH]c(=O)[nH]c2O)cc(C)n1C(=O)N1CCN(c2ccccc2)CC1

> <score_type>
oracle

> <origin>
adg

> <m_score__min__energy>
-16.780000000000001

> <m_primary>
energy

> <minimizedAffinity>
-7.99181

> <minimizedRMSD>
1.04909

> <CNNscore>
0.0897438377

> <CNNaffinity>
6.3965706825

> <CNN_VS>
0.5740528107

> <CNNaffinity_variance>
0.0117864935

$$$$
39:0


 34 36  0  0  0  0  0  0  0  0999 V2000
   58.0431   29.3142   45.3157 C   0  0  0  0  0  0  0  0  0  0  0  0
   59.3912   29.3837   45.2404 N   0  0  0  0  0  0  0  0  0  0  0  0
   59.7846   28.0961   45.3461 C   0  0  0  0  0  0  0  0  0  0  0  0
   60.9964   27.7504   45.3426 O   0  0  0  0  0  0  0  0  0  0  0  0
   58.7600   27.2235   45.4646 N   0  0  0  0  0  0  0  0  0  0  0  0
   57.6601   27.9936   45.4545 C   0  0  0  0  0  0  0  0  0  0  0  0
   56.3607   27.5051   45.5760 O   0  0  0  0  0  0  0  0  0  0  0  0
   56.2129   26.5842   45.6655 H   0  0  0  0  0  0  0  0  0  0  0  0
   57.1435   30.5054   45.2040 C   0  0  0  0  0  0  0  0  0  0  0  0
   57.4047   31.2228   43.9180 C   0  0  0  0  0  0  0  0  0  0  0  0
   57.0007   30.7203   42.8341 O   0  0  0  0  0  0  0  0  0  0  0  0
   58.0170   32.5171   43.9476 N   0  0  0  0  0  0  0  0  0  0  0  0
   59.4802   32.9969   47.3488 C   0  0  0  0  0  0  0  0  0  0  0  0
   59.7350   34.3772   47.3500 C   0  0  0  0  0  0  0  0  0  0  0  0
   59.4575   35.1451   46.2153 C   0  0  0  0  0  0  0  0  0  0  0  0
   58.8991   34.5490   45.0822 C   0  0  0  0  0  0  0  0  0  0  0  0
   58.5926   33.1749   45.0854 C   0  0  0  0  0  0  0  0  0  0  0  0
   58.9032   32.4051   46.2142 C   0  0  0  0  0  0  0  0  0  0  0  0
   60.9144   30.1758   49.5225 C   0  0  0  0  0  0  0  0  0  0  0  0
   60.9298   31.3186   48.6074 N   0  0  0  0  0  0  0  0  0  0  0  0
   62.1469   31.6374   47.8536 C   0  0  0  0  0  0  0  0  0  0  0  0
   59.7815   32.1885   48.5488 C   0  0  0  0  0  0  0  0  0  0  0  0
   59.0130   32.2743   49.5456 O   0  0  0  0  0  0  0  0  0  0  0  0
   58.8336   25.7797   45.6780 C   0  0  0  0  0  0  0  0  0  0  0  0
   57.6910   25.3360   46.5321 C   0  0  0  0  0  0  0  0  0  0  0  0
   57.7226   25.5405   47.7759 O   0  0  0  0  0  0  0  0  0  0  0  0
   56.5702   24.6787   45.9270 N   0  0  0  0  0  0  0  0  0  0  0  0
   56.6353   23.5012   45.1094 C   0  0  0  0  0  0  0  0  0  0  0  0
   56.3791   23.6235   43.7367 C   0  0  0  0  0  0  0  0  0  0  0  0
   56.4204   22.5004   42.9058 C   0  0  0  0  0  0  0  0  0  0  0  0
   56.6996   21.2431   43.4458 C   0  0  0  0  0  0  0  0  0  0  0  0
   56.9222   21.1043   44.8187 C   0  0  0  0  0  0  0  0  0  0  0  0
   56.8821   22.2253   45.6550 C   0  0  0  0  0  0  0  0  0  0  0  0
   57.0241   22.0506   46.9921 F   0  0  0  0  0  0  0  0  0  0  0  0
 19 20  1  0
 20 21  1  0
 20 22  1  0
 22 23  2  0
 22 13  1  0
 13 14  2  0
 14 15  1  0
 15 16  2  0
 16 17  1  0
 17 12  1  0
 12 10  1  0
 10 11  2  0
 10  9  1  0
  9  1  1  0
  1  2  1  0
  2  3  1  0
  3  4  2  0
  3  5  1  0
  5 24  1  0
 24 25  1  0
 25 26  2  0
 25 27  1  0
 27 28  1  0
 28 29  2  0
 29 30  1  0
 30 31  2  0
 31 32  1  0
 32 33  2  0
 33 34  1  0
  5  6  1  0
  6  7  1  0
 17 18  2  0
 18 13  1  0
  6  1  2  0
 33 28  1  0
  7  8  1  0
M  CHG 1   2  -1
M  CHG 1  12  -1
M  CHG 1  27  -1
M  END
> <UniqueID>
35

> <SMILES>
CN(C)C(=O)c1cccc([N-]C(=O)Cc2[n-]c(=O)n(CC(=O)[N-]c3ccccc3F)c2O)c1

> <Energy>
92.630459977995

> <Genealogy>
CN(C)C(=O)c1cccc([N-]C(=O)Cc2[n-]c(=O)n(CC(=O)[N-]c3ccccc3F)c2O)c1 (protonated)
CN(C)C(=O)c1cccc([N-]C(=O)Cc2[n-]c(=O)n(CC(=O)[N-]c3ccccc3F)c2O)c1 (3D coordinates assigned)
CN(C)C(=O)c1cccc([N-]C(=O)Cc2[n-]c(=O)n(CC(=O)[N-]c3ccccc3F)c2O)c1 (optimized conformer: 92.630459977995 kcal/mol)

> <smiles>
CN(C)C(=O)c1cccc(NC(=O)Cc2[nH]c(=O)n(CC(=O)Nc3ccccc3F)c2O)c1

> <score_type>
oracle

> <origin>
adg

> <m_score__min__energy>
-14.369999999999999

> <m_primary>
energy

> <minimizedAffinity>
-7.97207

> <minimizedRMSD>
1.44893

> <CNNscore>
0.3479340076

> <CNNaffinity>
6.7489323616

> <CNN_VS>
2.3481831551

> <CNNaffinity_variance>
0.0546908230

$$$$
54:0


 31 34  0  0  0  0  0  0  0  0999 V2000
   59.4184   31.0837   46.8155 C   0  0  0  0  0  0  0  0  0  0  0  0
   58.4824   32.1152   46.6568 C   0  0  0  0  0  0  0  0  0  0  0  0
   58.8873   33.4483   46.7596 C   0  0  0  0  0  0  0  0  0  0  0  0
   60.2277   33.7552   47.0198 C   0  0  0  0  0  0  0  0  0  0  0  0
   61.1742   32.7298   47.1770 C   0  0  0  0  0  0  0  0  0  0  0  0
   60.7611   31.3888   47.0815 C   0  0  0  0  0  0  0  0  0  0  0  0
   61.6534   30.3770   47.2419 F   0  0  0  0  0  0  0  0  0  0  0  0
   58.3334   29.7850   44.3979 C   0  0  0  0  0  0  0  0  0  0  0  0
   58.5588   29.1162   45.5410 C   0  0  0  0  0  0  0  0  0  0  0  0
   58.2269   27.7832   45.8283 C   0  0  0  0  0  0  0  0  0  0  0  0
   57.8245   26.7812   45.0227 C   0  0  0  0  0  0  0  0  0  0  0  0
   58.4123   27.6223   47.1964 C   0  0  0  0  0  0  0  0  0  0  0  0
   58.9163   28.8154   47.6727 C   0  0  0  0  0  0  0  0  0  0  0  0
   59.2569   29.0952   49.1054 C   0  0  0  0  0  0  0  0  0  0  0  0
   59.0081   29.7170   46.6714 N   0  0  0  0  0  0  0  0  0  0  0  0
   57.4031   25.4426   45.4733 C   0  0  0  0  0  0  0  0  0  0  0  0
   58.2154   24.3739   45.5742 N   0  0  0  0  0  0  0  0  0  0  0  0
   57.4277   23.4336   46.1400 C   0  0  0  0  0  0  0  0  0  0  0  0
   57.8303   22.2640   46.3781 O   0  0  0  0  0  0  0  0  0  0  0  0
   56.1715   23.8407   46.4226 N   0  0  0  0  0  0  0  0  0  0  0  0
   56.1806   25.1198   46.0089 C   0  0  0  0  0  0  0  0  0  0  0  0
   55.0882   25.9739   46.1073 O   0  0  0  0  0  0  0  0  0  0  0  0
   62.8670   33.1370   47.4844 S   0  0  0  0  0  0  0  0  0  0  0  0
   63.3088   34.1808   46.4978 O   0  0  0  0  0  0  0  0  0  0  0  0
   63.7119   31.9145   47.2556 O   0  0  0  0  0  0  0  0  0  0  0  0
   63.1430   33.7234   49.1129 N   0  0  0  0  0  0  0  0  0  0  0  0
   64.1900   32.9610   49.8192 C   0  0  0  0  0  0  0  0  0  0  0  0
   63.6631   31.6580   50.4662 C   0  0  0  0  0  0  0  0  0  0  0  0
   62.2564   31.5342   50.4103 O   0  0  0  0  0  0  0  0  0  0  0  0
   61.6574   32.7203   50.8798 C   0  0  0  0  0  0  0  0  0  0  0  0
   61.8988   33.8780   49.8977 C   0  0  0  0  0  0  0  0  0  0  0  0
  8  9  2  0
  9 10  1  0
 10 11  2  0
 11 16  1  0
 16 17  1  0
 17 18  1  0
 18 19  2  0
 18 20  1  0
 20 21  1  0
 21 22  1  0
 10 12  1  0
 12 13  2  0
 13 14  1  0
 13 15  1  0
 15  1  1  0
  1  2  2  0
  2  3  1  0
  3  4  2  0
  4  5  1  0
  5 23  1  0
 23 24  2  0
 23 25  2  0
 23 26  1  0
 26 27  1  0
 27 28  1  0
 28 29  1  0
 29 30  1  0
 30 31  1  0
  5  6  2  0
  6  7  1  0
 15  9  1  0
  6  1  1  0
 21 16  2  0
 31 26  1  0
M  CHG 1  17  -1
M  CHG 1  20  -1
M  CHG 1  22  -1
M  END
> <UniqueID>
49

> <SMILES>
C=c1c(=Cc2[n-]c(=O)[n-]c2[O-])cc(C)n1-c1cccc(S(=O)(=O)N2CCOCC2)c1F

> <Energy>
137.9832480617249

> <Genealogy>
C=c1c(=Cc2[n-]c(=O)[n-]c2[O-])cc(C)n1-c1cccc(S(=O)(=O)N2CCOCC2)c1F (protonated)
C=c1c(=Cc2[n-]c(=O)[n-]c2[O-])cc(C)n1-c1cccc(S(=O)(=O)N2CCOCC2)c1F (3D coordinates assigned)
C=c1c(=Cc2[n-]c(=O)[n-]c2[O-])cc(C)n1-c1cccc(S(=O)(=O)N2CCOCC2)c1F (nonaromatic ring conformer: 137.9832480617249 kcal/mol)

> <smiles>
C=c1c(=Cc2[nH]c(=O)[nH]c2O)cc(C)n1-c1cccc(S(=O)(=O)N2CCOCC2)c1F

> <score_type>
oracle

> <origin>
adg

> <m_score__min__energy>
-16.52

> <m_primary>
energy

> <minimizedAffinity>
-9.04235

> <minimizedRMSD>
0.78046

> <CNNscore>
0.2836233079

> <CNNaffinity>
6.9696240425

> <CNN_VS>
1.9767478704

> <CNNaffinity_variance>
0.0543342121

$$$$
62:0


 28 31  0  0  0  0  0  0  0  0999 V2000
   55.9015   31.1987   52.0437 C   0  0  0  0  0  0  0  0  0  0  0  0
   56.3928   30.5762   53.1251 C   0  0  0  0  0  0  0  0  0  0  0  0
   55.6649   29.9872   54.1730 C   0  0  0  0  0  0  0  0  0  0  0  0
   54.3506   29.7220   54.2990 C   0  0  0  0  0  0  0  0  0  0  0  0
   56.5904   29.6630   55.1534 C   0  0  0  0  0  0  0  0  0  0  0  0
   57.8324   30.0007   54.6583 C   0  0  0  0  0  0  0  0  0  0  0  0
   59.1293   29.7905   55.3806 C   0  0  0  0  0  0  0  0  0  0  0  0
   57.7162   30.5384   53.4256 N   0  0  0  0  0  0  0  0  0  0  0  0
   53.3042   30.0906   53.3309 C   0  0  0  0  0  0  0  0  0  0  0  0
   53.2956   29.7237   52.0360 N   0  0  0  0  0  0  0  0  0  0  0  0
   52.0962   30.1609   51.5964 C   0  0  0  0  0  0  0  0  0  0  0  0
   51.7159   30.0149   50.4050 O   0  0  0  0  0  0  0  0  0  0  0  0
   51.3302   30.7538   52.5369 N   0  0  0  0  0  0  0  0  0  0  0  0
   52.1053   30.6874   53.6306 C   0  0  0  0  0  0  0  0  0  0  0  0
   51.7208   31.1569   54.8798 O   0  0  0  0  0  0  0  0  0  0  0  0
   58.8023   31.0579   52.6391 C   0  0  0  0  0  0  0  0  0  0  0  0
   59.4276   30.2477   51.6833 C   0  0  0  0  0  0  0  0  0  0  0  0
   60.4730   30.7540   50.9062 C   0  0  0  0  0  0  0  0  0  0  0  0
   60.9143   32.0770   51.0795 C   0  0  0  0  0  0  0  0  0  0  0  0
   60.2708   32.8910   52.0294 C   0  0  0  0  0  0  0  0  0  0  0  0
   59.2239   32.3833   52.8051 C   0  0  0  0  0  0  0  0  0  0  0  0
   58.6215   33.1818   53.7222 F   0  0  0  0  0  0  0  0  0  0  0  0
   61.9854   32.5987   50.2666 N   0  0  0  0  0  0  0  0  0  0  0  0
   61.8489   33.4486   49.1402 C   0  0  0  0  0  0  0  0  0  0  0  0
   60.7524   33.9533   48.7793 O   0  0  0  0  0  0  0  0  0  0  0  0
   63.1349   33.7513   48.4837 C   0  0  0  0  0  0  0  0  0  0  0  0
   64.1401   32.8946   49.2659 C   0  0  0  0  0  0  0  0  0  0  0  0
   63.3995   32.3405   50.4979 C   0  0  0  0  0  0  0  0  0  0  0  0
  1  2  2  0
  2  3  1  0
  3  4  2  0
  4  9  1  0
  9 10  1  0
 10 11  1  0
 11 12  2  0
 11 13  1  0
 13 14  1  0
 14 15  1  0
  3  5  1  0
  5  6  2  0
  6  7  1  0
  6  8  1  0
  8 16  1  0
 16 17  2  0
 17 18  1  0
 18 19  2  0
 19 23  1  0
 23 24  1  0
 24 25  2  0
 24 26  1  0
 26 27  1  0
 27 28  1  0
 19 20  1  0
 20 21  2  0
 21 22  1  0
  8  2  1  0
 21 16  1  0
 14  9  2  0
 28 23  1  0
M  CHG 1  10  -1
M  CHG 1  13  -1
M  CHG 1  15  -1
M  END
> <UniqueID>
57

> <SMILES>
C=c1/c(=C\c2[n-]c(=O)[n-]c2[O-])cc(C)n1-c1ccc(N2CCCC2=O)cc1F

> <Energy>
133.11212583202067

> <Genealogy>
C=c1c(=Cc2[n-]c(=O)[n-]c2[O-])cc(C)n1-c1ccc(N2CCCC2=O)cc1F (protonated)
C=c1/c(=C\c2[n-]c(=O)[n-]c2[O-])cc(C)n1-c1ccc(N2CCCC2=O)cc1F (cis-trans isomerization)
C=c1/c(=C\c2[n-]c(=O)[n-]c2[O-])cc(C)n1-c1ccc(N2CCCC2=O)cc1F (3D coordinates assigned)
C=c1/c(=C\c2[n-]c(=O)[n-]c2[O-])cc(C)n1-c1ccc(N2CCCC2=O)cc1F (nonaromatic ring conformer: 133.11212583202067 kcal/mol)

> <smiles>
C=c1c(=Cc2[nH]c(=O)[nH]c2O)cc(C)n1-c1ccc(N2CCCC2=O)cc1F

> <score_type>
oracle

> <origin>
adg

> <m_score__min__energy>
-15.470000000000001

> <m_primary>
energy

> <minimizedAffinity>
-6.16776

> <minimizedRMSD>
3.32398

> <CNNscore>
0.2145369500

> <CNNaffinity>
5.6294054985

> <CNN_VS>
1.2077155113

> <CNNaffinity_variance>
0.1206431985

$$$$
64:0


 30 32  0  0  0  0  0  0  0  0999 V2000
   61.4143   29.8224   45.5101 C   0  0  0  0  0  0  0  0  0  0  0  0
   60.4132   29.9537   46.3921 C   0  0  0  0  0  0  0  0  0  0  0  0
   59.2179   29.2313   46.4085 C   0  0  0  0  0  0  0  0  0  0  0  0
   58.8379   28.2572   45.5572 C   0  0  0  0  0  0  0  0  0  0  0  0
   58.5005   29.6806   47.5109 C   0  0  0  0  0  0  0  0  0  0  0  0
   59.2687   30.6631   48.1050 C   0  0  0  0  0  0  0  0  0  0  0  0
   58.8875   31.4138   49.3440 C   0  0  0  0  0  0  0  0  0  0  0  0
   60.4268   30.8287   47.4303 N   0  0  0  0  0  0  0  0  0  0  0  0
   58.2747   26.9623   46.0000 C   0  0  0  0  0  0  0  0  0  0  0  0
   56.8899   26.7175   45.9870 C   0  0  0  0  0  0  0  0  0  0  0  0
   55.9981   27.6937   45.5563 O   0  0  0  0  0  0  0  0  0  0  0  0
   56.4124   25.5076   46.3784 N   0  0  0  0  0  0  0  0  0  0  0  0
   57.2511   24.5147   46.7681 C   0  0  0  0  0  0  0  0  0  0  0  0
   56.7845   23.4043   47.1303 O   0  0  0  0  0  0  0  0  0  0  0  0
   58.5936   24.7175   46.7608 N   0  0  0  0  0  0  0  0  0  0  0  0
   59.1216   25.9095   46.3814 C   0  0  0  0  0  0  0  0  0  0  0  0
   60.3736   26.0599   46.3841 O   0  0  0  0  0  0  0  0  0  0  0  0
   61.4650   31.7681   47.7645 C   0  0  0  0  0  0  0  0  0  0  0  0
   62.6018   31.3172   48.4506 C   0  0  0  0  0  0  0  0  0  0  0  0
   63.6459   32.1961   48.7444 C   0  0  0  0  0  0  0  0  0  0  0  0
   63.5625   33.5332   48.3555 C   0  0  0  0  0  0  0  0  0  0  0  0
   62.4344   33.9976   47.6776 C   0  0  0  0  0  0  0  0  0  0  0  0
   61.3721   33.1265   47.3809 C   0  0  0  0  0  0  0  0  0  0  0  0
   60.1714   33.6459   46.6914 C   0  0  0  0  0  0  0  0  0  0  0  0
   59.5843   34.6653   47.1480 O   0  0  0  0  0  0  0  0  0  0  0  0
   59.6611   32.9888   45.5205 N   0  0  0  0  0  0  0  0  0  0  0  0
   60.1757   32.2477   45.1267 H   0  0  0  0  0  0  0  0  0  0  0  0
   58.3965   33.3883   44.8934 C   0  0  0  0  0  0  0  0  0  0  0  0
   58.0618   32.4501   43.7307 C   0  0  0  0  0  0  0  0  0  0  0  0
   57.2710   33.3763   45.9336 C   0  0  0  0  0  0  0  0  0  0  0  0
  1  2  2  0
  2  3  1  0
  3  4  2  0
  4  9  1  0
  9 10  2  0
 10 11  1  0
 10 12  1  0
 12 13  1  0
 13 14  2  0
 13 15  1  0
 15 16  1  0
 16 17  2  0
  3  5  1  0
  5  6  2  0
  6  7  1  0
  6  8  1  0
  8 18  1  0
 18 19  2  0
 19 20  1  0
 20 21  2  0
 21 22  1  0
 22 23  2  0
 23 24  1  0
 24 25  2  0
 24 26  1  0
 26 28  1  0
 28 29  1  0
 28 30  1  0
  8  2  1  0
 23 18  1  0
 16  9  1  0
 26 27  1  0
M  CHG 1  11  -1
M  CHG 1  12  -1
M  CHG 1  15  -1
M  END
> <UniqueID>
59

> <SMILES>
C=c1c(=Cc2c([O-])[n-]c(=O)[n-]c2=O)cc(C)n1-c1ccccc1C(=O)NC(C)C

> <Energy>
92.00906564931968

> <Genealogy>
C=c1c(=Cc2c([O-])[n-]c(=O)[n-]c2=O)cc(C)n1-c1ccccc1C(=O)NC(C)C (protonated)
C=c1c(=Cc2c([O-])[n-]c(=O)[n-]c2=O)cc(C)n1-c1ccccc1C(=O)NC(C)C (3D coordinates assigned)
C=c1c(=Cc2c([O-])[n-]c(=O)[n-]c2=O)cc(C)n1-c1ccccc1C(=O)NC(C)C (optimized conformer: 92.00906564931968 kcal/mol)

> <smiles>
C=c1c(=Cc2c(O)[nH]c(=O)[nH]c2=O)cc(C)n1-c1ccccc1C(=O)NC(C)C

> <score_type>
oracle

> <origin>
adg

> <m_score__min__energy>
-15.869999999999999

> <m_primary>
energy

> <minimizedAffinity>
-5.31015

> <minimizedRMSD>
0.90041

> <CNNscore>
0.1675384343

> <CNNaffinity>
6.3613529205

> <CNN_VS>
1.0657711029

> <CNNaffinity_variance>
0.0311315879

$$$$
71:0


 31 34  0  0  0  0  0  0  0  0999 V2000
   58.3645   30.1333   53.0018 C   0  0  0  0  0  0  0  0  0  0  0  0
   59.0758   30.0379   54.0373 O   0  0  0  0  0  0  0  0  0  0  0  0
   58.9672   30.5442   51.7608 N   0  0  0  0  0  0  0  0  0  0  0  0
   58.3270   31.5376   50.8949 C   0  0  0  0  0  0  0  0  0  0  0  0
   59.2779   32.7258   50.6683 C   0  0  0  0  0  0  0  0  0  0  0  0
   60.6466   32.3085   50.2855 N   0  0  0  0  0  0  0  0  0  0  0  0
   61.2148   31.3375   51.2446 C   0  0  0  0  0  0  0  0  0  0  0  0
   60.3180   30.1074   51.4064 C   0  0  0  0  0  0  0  0  0  0  0  0
   54.2815   27.7012   53.7494 C   0  0  0  0  0  0  0  0  0  0  0  0
   55.0874   28.7225   53.4448 C   0  0  0  0  0  0  0  0  0  0  0  0
   54.7142   30.0256   53.1076 C   0  0  0  0  0  0  0  0  0  0  0  0
   53.4661   30.5283   53.0564 C   0  0  0  0  0  0  0  0  0  0  0  0
   55.8990   30.7205   52.8932 C   0  0  0  0  0  0  0  0  0  0  0  0
   56.9259   29.8148   53.0871 C   0  0  0  0  0  0  0  0  0  0  0  0
   56.4312   28.6083   53.4266 N   0  0  0  0  0  0  0  0  0  0  0  0
   56.9522   27.7967   53.6242 H   0  0  0  0  0  0  0  0  0  0  0  0
   52.6423   30.5676   51.8350 C   0  0  0  0  0  0  0  0  0  0  0  0
   52.8216   29.7332   50.7966 N   0  0  0  0  0  0  0  0  0  0  0  0
   51.9277   30.1698   49.8835 C   0  0  0  0  0  0  0  0  0  0  0  0
   51.7847   29.6199   48.7597 O   0  0  0  0  0  0  0  0  0  0  0  0
   51.2083   31.2458   50.2634 N   0  0  0  0  0  0  0  0  0  0  0  0
   51.6794   31.4940   51.4969 C   0  0  0  0  0  0  0  0  0  0  0  0
   51.2714   32.5732   52.2713 O   0  0  0  0  0  0  0  0  0  0  0  0
   60.7530   31.8611   48.8759 C   0  0  0  0  0  0  0  0  0  0  0  0
   60.9600   33.0581   47.9398 C   0  0  0  0  0  0  0  0  0  0  0  0
   59.9604   33.0508   46.8135 C   0  0  0  0  0  0  0  0  0  0  0  0
   59.2009   31.8986   46.5438 C   0  0  0  0  0  0  0  0  0  0  0  0
   58.2465   31.9075   45.5224 C   0  0  0  0  0  0  0  0  0  0  0  0
   58.0368   33.0669   44.7693 C   0  0  0  0  0  0  0  0  0  0  0  0
   58.7804   34.2187   45.0381 C   0  0  0  0  0  0  0  0  0  0  0  0
   59.7352   34.2155   46.0587 C   0  0  0  0  0  0  0  0  0  0  0  0
  9 10  2  0
 10 11  1  0
 11 12  2  0
 12 17  1  0
 17 18  1  0
 18 19  1  0
 19 20  2  0
 19 21  1  0
 21 22  1  0
 22 23  1  0
 11 13  1  0
 13 14  2  0
 14  1  1  0
  1  2  2  0
  1  3  1  0
  3  4  1  0
  4  5  1  0
  5  6  1  0
  6 24  1  0
 24 25  1  0
 25 26  1  0
 26 27  2  0
 27 28  1  0
 28 29  2  0
 29 30  1  0
 30 31  2  0
  6  7  1  0
  7  8  1  0
 14 15  1  0
 15 10  1  0
 22 17  2  0
  8  3  1  0
 31 26  1  0
 15 16  1  0
M  CHG 1  18  -1
M  CHG 1  21  -1
M  CHG 1  23  -1
M  END
> <UniqueID>
66

> <SMILES>
C=c1[nH]c(C(=O)N2CCN(CCc3ccccc3)CC2)c/c1=C\c1[n-]c(=O)[n-]c1[O-]

> <Energy>
123.24203070886031

> <Genealogy>
C=c1[nH]c(C(=O)N2CCN(CCc3ccccc3)CC2)cc1=Cc1[n-]c(=O)[n-]c1[O-] (protonated)
C=c1[nH]c(C(=O)N2CCN(CCc3ccccc3)CC2)c/c1=C\c1[n-]c(=O)[n-]c1[O-] (cis-trans isomerization)
C=c1[nH]c(C(=O)N2CCN(CCc3ccccc3)CC2)c/c1=C\c1[n-]c(=O)[n-]c1[O-] (3D coordinates assigned)
C=c1[nH]c(C(=O)N2CCN(CCc3ccccc3)CC2)c/c1=C\c1[n-]c(=O)[n-]c1[O-] (nonaromatic ring conformer: 123.24203070886031 kcal/mol)

> <smiles>
C=c1[nH]c(C(=O)N2CCN(CCc3ccccc3)CC2)cc1=Cc1[nH]c(=O)[nH]c1O

> <score_type>
oracle

> <origin>
adg

> <m_score__min__energy>
-18.84

> <m_primary>
energy

> <minimizedAffinity>
-7.46825

> <minimizedRMSD>
0.93697

> <CNNscore>
0.1050063595

> <CNNaffinity>
5.4077601433

> <CNN_VS>
0.5678492188

> <CNNaffinity_variance>
0.3752909601

$$$$
4:0


 35 38  0  0  0  0  0  0  0  0999 V2000
   59.9188   32.0952   49.7115 C   0  0  0  0  0  0  0  0  0  0  0  0
   58.8254   32.0198   50.5806 C   0  0  0  0  0  0  0  0  0  0  0  0
   58.9211   32.5014   51.8861 C   0  0  0  0  0  0  0  0  0  0  0  0
   60.1178   33.0704   52.3475 C   0  0  0  0  0  0  0  0  0  0  0  0
   61.2156   33.1540   51.4715 C   0  0  0  0  0  0  0  0  0  0  0  0
   61.1289   32.6744   50.1549 C   0  0  0  0  0  0  0  0  0  0  0  0
   60.1991   29.2785   48.8615 C   0  0  0  0  0  0  0  0  0  0  0  0
   59.9744   30.2789   47.9967 C   0  0  0  0  0  0  0  0  0  0  0  0
   59.7210   30.1692   46.6223 C   0  0  0  0  0  0  0  0  0  0  0  0
   59.9005   29.1355   45.7793 C   0  0  0  0  0  0  0  0  0  0  0  0
   59.2533   31.4080   46.2137 C   0  0  0  0  0  0  0  0  0  0  0  0
   59.3298   32.2426   47.3096 C   0  0  0  0  0  0  0  0  0  0  0  0
   58.8805   33.6718   47.3315 C   0  0  0  0  0  0  0  0  0  0  0  0
   59.7895   31.5661   48.3823 N   0  0  0  0  0  0  0  0  0  0  0  0
   59.1183   27.8877   45.7970 C   0  0  0  0  0  0  0  0  0  0  0  0
   59.6322   26.6650   46.0295 N   0  0  0  0  0  0  0  0  0  0  0  0
   58.5842   25.8401   45.8116 C   0  0  0  0  0  0  0  0  0  0  0  0
   58.6662   24.5907   45.9456 O   0  0  0  0  0  0  0  0  0  0  0  0
   57.4461   26.4583   45.4310 N   0  0  0  0  0  0  0  0  0  0  0  0
   57.8058   27.7519   45.4139 C   0  0  0  0  0  0  0  0  0  0  0  0
   56.9547   28.7863   45.0490 O   0  0  0  0  0  0  0  0  0  0  0  0
   60.2151   33.5791   53.7745 C   0  0  0  0  0  0  0  0  0  0  0  0
   59.2063   34.7060   54.0275 C   0  0  0  0  0  0  0  0  0  0  0  0
   60.0329   32.4386   54.7811 C   0  0  0  0  0  0  0  0  0  0  0  0
   62.5454   32.8103   49.0948 S   0  0  0  0  0  0  0  0  0  0  0  0
   62.7842   31.4947   48.4090 O   0  0  0  0  0  0  0  0  0  0  0  0
   62.2804   33.8459   48.0354 O   0  0  0  0  0  0  0  0  0  0  0  0
   63.9651   33.2651   50.0086 N   0  0  0  0  0  0  0  0  0  0  0  0
   63.5795   34.1688   51.1147 C   0  0  0  0  0  0  0  0  0  0  0  0
   64.6676   34.2087   52.1959 C   0  0  0  0  0  0  0  0  0  0  0  0
   64.8824   32.8848   52.8112 N   0  0  0  0  0  0  0  0  0  0  0  0
   64.5043   31.7522   51.9437 C   0  0  0  0  0  0  0  0  0  0  0  0
   64.7253   32.0684   50.4550 C   0  0  0  0  0  0  0  0  0  0  0  0
   64.6061   33.7841   49.4085 H   0  0  0  0  0  0  0  0  0  0  0  0
   64.3273   32.8341   53.6654 H   0  0  0  0  0  0  0  0  0  0  0  0
  7  8  2  0
  8  9  1  0
  9 10  2  0
 10 15  1  0
 15 16  1  0
 16 17  1  0
 17 18  2  0
 17 19  1  0
 19 20  1  0
 20 21  1  0
  9 11  1  0
 11 12  2  0
 12 13  1  0
 12 14  1  0
 14  1  1  0
  1  2  2  0
  2  3  1  0
  3  4  2  0
  4 22  1  0
 22 23  1  0
 22 24  1  0
  4  5  1  0
  5  6  2  0
  6 25  1  0
 25 26  2  0
 25 27  2  0
 25 28  1  0
 28 29  1  0
 29 30  1  0
 30 31  1  0
 31 32  1  0
 32 33  1  0
 14  8  1  0
  6  1  1  0
 33 28  1  0
 20 15  2  0
 28 34  1  0
 31 35  1  0
M  CHG 1  16  -1
M  CHG 1  19  -1
M  CHG 1  21  -1
M  CHG 1  28   1
M  END
> <UniqueID>
5

> <SMILES>
C=c1c(=Cc2[n-]c(=O)[n-]c2[O-])cc(C)n1-c1ccc(C(C)C)cc1S(=O)(=O)[NH+]1CCNCC1

> <Energy>
140.2942254740479

> <Genealogy>
C=c1c(=Cc2[n-]c(=O)[n-]c2[O-])cc(C)n1-c1ccc(C(C)C)cc1S(=O)(=O)[NH+]1CCNCC1 (protonated)
C=c1c(=Cc2[n-]c(=O)[n-]c2[O-])cc(C)n1-c1ccc(C(C)C)cc1S(=O)(=O)[NH+]1CCNCC1 (3D coordinates assigned)
C=c1c(=Cc2[n-]c(=O)[n-]c2[O-])cc(C)n1-c1ccc(C(C)C)cc1S(=O)(=O)[NH+]1CCNCC1 (nonaromatic ring conformer: 140.2942254740479 kcal/mol)

> <smiles>
C=c1c(=Cc2[nH]c(=O)[nH]c2O)cc(C)n1-c1ccc(C(C)C)cc1S(=O)(=O)N1CCNCC1

> <score_type>
oracle

> <origin>
adg

> <m_score__min__energy>
-14.81

> <m_primary>
energy

> <minimizedAffinity>
-7.75596

> <minimizedRMSD>
1.76880

> <CNNscore>
0.2929858267

> <CNNaffinity>
7.0618476868

> <CNN_VS>
2.0690212250

> <CNNaffinity_variance>
0.0741467401

$$$$
7:0


 29 31  0  0  0  0  0  0  0  0999 V2000
   59.0606   32.1481   51.2201 C   0  0  0  0  0  0  0  0  0  0  0  0
   58.8844   33.3443   51.5795 O   0  0  0  0  0  0  0  0  0  0  0  0
   58.3915   31.0624   51.9593 C   0  0  0  0  0  0  0  0  0  0  0  0
   59.1210   30.0101   52.5296 C   0  0  0  0  0  0  0  0  0  0  0  0
   58.4431   28.9977   53.2132 C   0  0  0  0  0  0  0  0  0  0  0  0
   59.0858   28.0428   53.7236 O   0  0  0  0  0  0  0  0  0  0  0  0
   57.0508   29.0434   53.3274 C   0  0  0  0  0  0  0  0  0  0  0  0
   56.3436   30.1160   52.7558 C   0  0  0  0  0  0  0  0  0  0  0  0
   57.0351   31.0816   52.0874 N   0  0  0  0  0  0  0  0  0  0  0  0
   54.8634   30.2106   52.8383 C   0  0  0  0  0  0  0  0  0  0  0  0
   54.1679   29.8317   54.0043 C   0  0  0  0  0  0  0  0  0  0  0  0
   52.7737   29.9331   54.0620 C   0  0  0  0  0  0  0  0  0  0  0  0
   52.0585   30.4161   52.9633 C   0  0  0  0  0  0  0  0  0  0  0  0
   50.6735   30.5109   53.0221 O   0  0  0  0  0  0  0  0  0  0  0  0
   52.7382   30.8068   51.8060 C   0  0  0  0  0  0  0  0  0  0  0  0
   54.1317   30.7091   51.7448 C   0  0  0  0  0  0  0  0  0  0  0  0
   59.9062   31.8529   50.1006 N   0  0  0  0  0  0  0  0  0  0  0  0
   59.5811   32.2099   48.7246 C   0  0  0  0  0  0  0  0  0  0  0  0
   58.5120   28.6737   46.4930 C   0  0  0  0  0  0  0  0  0  0  0  0
   58.9712   28.5654   47.8130 C   0  0  0  0  0  0  0  0  0  0  0  0
   59.3209   29.7123   48.5324 C   0  0  0  0  0  0  0  0  0  0  0  0
   59.2222   30.9792   47.9374 C   0  0  0  0  0  0  0  0  0  0  0  0
   58.7542   31.0854   46.6175 C   0  0  0  0  0  0  0  0  0  0  0  0
   58.4037   29.9383   45.9002 C   0  0  0  0  0  0  0  0  0  0  0  0
   56.3823   26.9089   45.7985 N   0  0  0  0  0  0  0  0  0  0  0  0
   58.0643   27.2398   45.5731 S   0  0  0  0  0  0  0  0  0  0  0  0
   58.3265   27.4571   44.1082 O   0  0  0  0  0  0  0  0  0  0  0  0
   58.8805   26.0686   46.0466 O   0  0  0  0  0  0  0  0  0  0  0  0
   56.1248   26.0784   45.2652 H   0  0  0  0  0  0  0  0  0  0  0  0
 25 26  1  0
 26 27  2  0
 26 28  2  0
 26 19  1  0
 19 20  2  0
 20 21  1  0
 21 22  2  0
 22 18  1  0
 18 17  1  0
 17  1  1  0
  1  2  2  0
  1  3  1  0
  3  4  2  0
  4  5  1  0
  5  6  2  0
  5  7  1  0
  7  8  2  0
  8 10  1  0
 10 11  2  0
 11 12  1  0
 12 13  2  0
 13 14  1  0
 13 15  1  0
 15 16  2  0
  8  9  1  0
 22 23  1  0
 23 24  2  0
 24 19  1  0
  9  3  1  0
 16 10  1  0
 25 29  1  0
M  CHG 1   9  -1
M  CHG 1  14  -1
M  CHG 1  17  -1
M  CHG 1  25  -1
M  END
> <UniqueID>
8

> <SMILES>
[NH-]S(=O)(=O)c1ccc(C[N-]C(=O)c2cc(=O)cc(-c3ccc([O-])cc3)[n-]2)cc1

> <Energy>
46.09031562241288

> <Genealogy>
[NH-]S(=O)(=O)c1ccc(C[N-]C(=O)c2cc(=O)cc(-c3ccc([O-])cc3)[n-]2)cc1 (protonated)
[NH-]S(=O)(=O)c1ccc(C[N-]C(=O)c2cc(=O)cc(-c3ccc([O-])cc3)[n-]2)cc1 (3D coordinates assigned)
[NH-]S(=O)(=O)c1ccc(C[N-]C(=O)c2cc(=O)cc(-c3ccc([O-])cc3)[n-]2)cc1 (optimized conformer: 46.09031562241288 kcal/mol)

> <smiles>
NS(=O)(=O)c1ccc(CNC(=O)c2cc(=O)cc(-c3ccc(O)cc3)[nH]2)cc1

> <score_type>
oracle

> <origin>
adg

> <m_score__min__energy>
-16.82

> <m_primary>
energy

> <minimizedAffinity>
-7.15469

> <minimizedRMSD>
1.48388

> <CNNscore>
0.3285873830

> <CNNaffinity>
5.5946884155

> <CNN_VS>
1.8383439779

> <CNNaffinity_variance>
0.3042746186

$$$$
15:0


 24 25  0  0  0  0  0  0  0  0999 V2000
   60.1274   33.5613   47.7904 C   0  0  0  0  0  0  0  0  0  0  0  0
   59.8318   32.1942   47.8730 C   0  0  0  0  0  0  0  0  0  0  0  0
   59.1421   31.5567   46.8387 C   0  0  0  0  0  0  0  0  0  0  0  0
   58.7161   32.2857   45.7206 C   0  0  0  0  0  0  0  0  0  0  0  0
   59.0014   33.6566   45.6362 C   0  0  0  0  0  0  0  0  0  0  0  0
   59.6996   34.2923   46.6679 C   0  0  0  0  0  0  0  0  0  0  0  0
   57.7711   31.4827   44.4709 S   0  0  0  0  0  0  0  0  0  0  0  0
   58.0061   32.1852   43.1638 O   0  0  0  0  0  0  0  0  0  0  0  0
   56.3044   31.5476   44.7967 O   0  0  0  0  0  0  0  0  0  0  0  0
   58.2718   29.8198   44.3195 N   0  0  0  0  0  0  0  0  0  0  0  0
   57.3385   28.9098   44.9880 C   0  0  0  0  0  0  0  0  0  0  0  0
   58.0718   27.8126   45.7221 C   0  0  0  0  0  0  0  0  0  0  0  0
   59.4654   27.8896   45.8872 C   0  0  0  0  0  0  0  0  0  0  0  0
   60.1597   26.8575   46.5258 C   0  0  0  0  0  0  0  0  0  0  0  0
   59.4695   25.7430   47.0092 C   0  0  0  0  0  0  0  0  0  0  0  0
   58.0820   25.6650   46.8663 C   0  0  0  0  0  0  0  0  0  0  0  0
   57.3782   26.6936   46.2281 C   0  0  0  0  0  0  0  0  0  0  0  0
   55.9980   26.5946   46.0918 O   0  0  0  0  0  0  0  0  0  0  0  0
   60.7953   34.1893   48.8919 N   0  0  0  0  0  0  0  0  0  0  0  0
   62.1531   33.9579   49.2948 C   0  0  0  0  0  0  0  0  0  0  0  0
   62.6757   34.6490   50.2120 O   0  0  0  0  0  0  0  0  0  0  0  0
   63.4393   33.3981   47.2418 C   0  0  0  0  0  0  0  0  0  0  0  0
   62.9668   32.8938   48.6094 C   0  0  0  0  0  0  0  0  0  0  0  0
   64.1599   32.4736   49.4766 C   0  0  0  0  0  0  0  0  0  0  0  0
 22 23  1  0
 23 24  1  0
 23 20  1  0
 20 21  2  0
 20 19  1  0
 19  1  1  0
  1  2  2  0
  2  3  1  0
  3  4  2  0
  4  7  1  0
  7  8  2  0
  7  9  2  0
  7 10  1  0
 10 11  1  0
 11 12  1  0
 12 13  2  0
 13 14  1  0
 14 15  2  0
 15 16  1  0
 16 17  2  0
 17 18  1  0
  4  5  1  0
  5  6  2  0
  6  1  1  0
 17 12  1  0
M  CHG 1  10  -1
M  CHG 1  18  -1
M  CHG 1  19  -1
M  END
> <UniqueID>
15

> <SMILES>
CC(C)C(=O)[N-]c1ccc(S(=O)(=O)[N-]Cc2ccccc2[O-])cc1

> <Energy>
35.78494476303847

> <Genealogy>
CC(C)C(=O)[N-]c1ccc(S(=O)(=O)[N-]Cc2ccccc2[O-])cc1 (protonated)
CC(C)C(=O)[N-]c1ccc(S(=O)(=O)[N-]Cc2ccccc2[O-])cc1 (3D coordinates assigned)
CC(C)C(=O)[N-]c1ccc(S(=O)(=O)[N-]Cc2ccccc2[O-])cc1 (optimized conformer: 35.78494476303847 kcal/mol)

> <smiles>
CC(C)C(=O)Nc1ccc(S(=O)(=O)NCc2ccccc2O)cc1

> <score_type>
oracle

> <origin>
adg

> <m_score__min__energy>
-14.369999999999999

> <m_primary>
energy

> <minimizedAffinity>
-7.36354

> <minimizedRMSD>
1.01182

> <CNNscore>
0.7302268744

> <CNNaffinity>
6.4279541969

> <CNN_VS>
4.6938648224

> <CNNaffinity_variance>
0.0266281832

$$$$
17:0


 25 27  0  0  0  0  0  0  0  0999 V2000
   56.4107   25.8528   46.2602 C   0  0  0  0  0  0  0  0  0  0  0  0
   55.2540   26.3202   46.0823 O   0  0  0  0  0  0  0  0  0  0  0  0
   56.5864   24.3990   46.4698 C   0  0  0  0  0  0  0  0  0  0  0  0
   56.7289   23.9499   47.7455 N   0  0  0  0  0  0  0  0  0  0  0  0
   56.9299   22.6643   48.0297 N   0  0  0  0  0  0  0  0  0  0  0  0
   57.0071   21.7227   47.0585 C   0  0  0  0  0  0  0  0  0  0  0  0
   57.2012   20.5194   47.3806 O   0  0  0  0  0  0  0  0  0  0  0  0
   56.8662   22.1005   45.7139 C   0  0  0  0  0  0  0  0  0  0  0  0
   56.9260   21.1513   44.6766 C   0  0  0  0  0  0  0  0  0  0  0  0
   56.7550   21.5457   43.3491 C   0  0  0  0  0  0  0  0  0  0  0  0
   56.5177   22.8851   43.0415 C   0  0  0  0  0  0  0  0  0  0  0  0
   56.4621   23.8408   44.0572 C   0  0  0  0  0  0  0  0  0  0  0  0
   56.6460   23.4674   45.4059 C   0  0  0  0  0  0  0  0  0  0  0  0
   57.5253   26.7507   46.2210 N   0  0  0  0  0  0  0  0  0  0  0  0
   57.8688   27.6088   45.0928 C   0  0  0  0  0  0  0  0  0  0  0  0
   57.3652   28.9999   45.3484 C   0  0  0  0  0  0  0  0  0  0  0  0
   56.2020   29.2949   44.9647 O   0  0  0  0  0  0  0  0  0  0  0  0
   58.7236   33.9222   45.1112 C   0  0  0  0  0  0  0  0  0  0  0  0
   59.0931   33.4250   46.3669 C   0  0  0  0  0  0  0  0  0  0  0  0
   59.7239   34.3229   47.3819 C   0  0  0  0  0  0  0  0  0  0  0  0
   58.8728   32.1154   46.6638 N   0  0  0  0  0  0  0  0  0  0  0  0
   58.3047   31.2514   45.7747 C   0  0  0  0  0  0  0  0  0  0  0  0
   58.1190   29.9955   46.0658 N   0  0  0  0  0  0  0  0  0  0  0  0
   57.9373   31.7190   44.5070 C   0  0  0  0  0  0  0  0  0  0  0  0
   58.1432   33.0597   44.1798 C   0  0  0  0  0  0  0  0  0  0  0  0
 18 19  2  0
 19 20  1  0
 19 21  1  0
 21 22  1  0
 22 23  2  0
 23 16  1  0
 16 17  2  0
 16 15  1  0
 15 14  1  0
 14  1  1  0
  1  2  2  0
  1  3  1  0
  3  4  2  0
  4  5  1  0
  5  6  1  0
  6  7  2  0
  6  8  1  0
  8  9  2  0
  9 10  1  0
 10 11  2  0
 11 12  1  0
 12 13  2  0
 22 24  1  0
 24 25  2  0
 25 18  1  0
 13  3  1  0
 13  8  1  0
M  CHG 1   5  -1
M  CHG 1  14  -1
M  CHG 1  21  -1
M  END
> <UniqueID>
17

> <SMILES>
Cc1ccc/c(=N/C(=O)C[N-]C(=O)c2n[n-]c(=O)c3ccccc23)[n-]1

> <Energy>
51.739065429538876

> <Genealogy>
Cc1cccc(=NC(=O)C[N-]C(=O)c2n[n-]c(=O)c3ccccc23)[n-]1 (protonated)
Cc1ccc/c(=N/C(=O)C[N-]C(=O)c2n[n-]c(=O)c3ccccc23)[n-]1 (cis-trans isomerization)
Cc1ccc/c(=N/C(=O)C[N-]C(=O)c2n[n-]c(=O)c3ccccc23)[n-]1 (3D coordinates assigned)
Cc1ccc/c(=N/C(=O)C[N-]C(=O)c2n[n-]c(=O)c3ccccc23)[n-]1 (optimized conformer: 51.739065429538876 kcal/mol)

> <smiles>
Cc1cccc(=NC(=O)CNC(=O)c2n[nH]c(=O)c3ccccc23)[nH]1

> <score_type>
oracle

> <origin>
adg

> <m_score__min__energy>
-14.359999999999999

> <m_primary>
energy

> <minimizedAffinity>
-8.18775

> <minimizedRMSD>
0.53290

> <CNNscore>
0.3801110685

> <CNNaffinity>
6.0132012367

> <CNN_VS>
2.2856843472

> <CNNaffinity_variance>
0.1215976179

$$$$
24:0


 27 29  0  0  0  0  0  0  0  0999 V2000
   57.8586   31.1647   43.5291 C   0  0  0  0  0  0  0  0  0  0  0  0
   58.2194   31.0178   44.8109 C   0  0  0  0  0  0  0  0  0  0  0  0
   58.0483   32.1006   45.6199 N   0  0  0  0  0  0  0  0  0  0  0  0
   58.5364   32.1786   46.8833 C   0  0  0  0  0  0  0  0  0  0  0  0
   58.2839   33.4324   47.6689 C   0  0  0  0  0  0  0  0  0  0  0  0
   59.3026   31.1142   47.3936 C   0  0  0  0  0  0  0  0  0  0  0  0
   59.4768   29.9732   46.6016 C   0  0  0  0  0  0  0  0  0  0  0  0
   58.8797   29.8607   45.3304 C   0  0  0  0  0  0  0  0  0  0  0  0
   58.9622   28.6542   44.7162 C   0  0  0  0  0  0  0  0  0  0  0  0
   59.8917   31.1458   48.7546 C   0  0  0  0  0  0  0  0  0  0  0  0
   59.2408   30.6487   49.7160 O   0  0  0  0  0  0  0  0  0  0  0  0
   61.2004   31.7012   48.9946 N   0  0  0  0  0  0  0  0  0  0  0  0
   61.7526   32.7406   48.1108 C   0  0  0  0  0  0  0  0  0  0  0  0
   62.5261   33.7719   48.9365 C   0  0  0  0  0  0  0  0  0  0  0  0
   63.6729   33.1244   49.7556 C   0  0  0  0  0  0  0  0  0  0  0  0
   63.8986   33.8554   51.0046 N   0  0  0  0  0  0  0  0  0  0  0  0
   63.4395   31.6242   50.0545 C   0  0  0  0  0  0  0  0  0  0  0  0
   61.9523   31.2768   50.1855 C   0  0  0  0  0  0  0  0  0  0  0  0
   63.0651   33.7948   51.5895 H   0  0  0  0  0  0  0  0  0  0  0  0
   64.0963   34.8339   50.7950 H   0  0  0  0  0  0  0  0  0  0  0  0
   58.4345   27.3740   45.2235 C   0  0  0  0  0  0  0  0  0  0  0  0
   59.2169   26.3343   45.5633 N   0  0  0  0  0  0  0  0  0  0  0  0
   58.3413   25.4384   46.0714 C   0  0  0  0  0  0  0  0  0  0  0  0
   58.7005   24.3088   46.4971 O   0  0  0  0  0  0  0  0  0  0  0  0
   57.0580   25.8538   46.1034 N   0  0  0  0  0  0  0  0  0  0  0  0
   57.1347   27.0856   45.5770 C   0  0  0  0  0  0  0  0  0  0  0  0
   56.0451   27.9392   45.4521 O   0  0  0  0  0  0  0  0  0  0  0  0
  1  2  2  0
  2  3  1  0
  3  4  2  0
  4  5  1  0
  4  6  1  0
  6 10  1  0
 10 11  2  0
 10 12  1  0
 12 13  1  0
 13 14  1  0
 14 15  1  0
 15 16  1  0
 15 17  1  0
 17 18  1  0
  6  7  2  0
  7  8  1  0
  8  9  2  0
  9 21  1  0
 21 22  1  0
 22 23  1  0
 23 24  2  0
 23 25  1  0
 25 26  1  0
 26 27  1  0
  8  2  1  0
 26 21  2  0
 18 12  1  0
 16 19  1  0
 16 20  1  0
M  CHG 1  22  -1
M  CHG 1  25  -1
M  CHG 1  27  -1
M  END
> <UniqueID>
23

> <SMILES>
C=c1nc(C)c(C(=O)N2CCC(N)CC2)cc1=Cc1[n-]c(=O)[n-]c1[O-]

> <Energy>
100.91766025690752

> <Genealogy>
C=c1nc(C)c(C(=O)N2CCC(N)CC2)cc1=Cc1[n-]c(=O)[n-]c1[O-] (protonated)
C=c1nc(C)c(C(=O)N2CCC(N)CC2)cc1=Cc1[n-]c(=O)[n-]c1[O-] (3D coordinates assigned)
C=c1nc(C)c(C(=O)N2CCC(N)CC2)cc1=Cc1[n-]c(=O)[n-]c1[O-] (nonaromatic ring conformer: 100.91766025690752 kcal/mol)

> <smiles>
C=c1nc(C)c(C(=O)N2CCC(N)CC2)cc1=Cc1[nH]c(=O)[nH]c1O

> <score_type>
oracle

> <origin>
adg

> <m_score__min__energy>
-16.73

> <m_primary>
energy

> <minimizedAffinity>
-6.37933

> <minimizedRMSD>
1.83402

> <CNNscore>
0.0997087732

> <CNNaffinity>
6.0372214317

> <CNN_VS>
0.6019639373

> <CNNaffinity_variance>
0.0587381124

$$$$
26:0


 24 26  0  0  0  0  0  0  0  0999 V2000
   59.2793   30.1345   47.8461 C   0  0  0  0  0  0  0  0  0  0  0  0
   58.9095   30.8380   46.7625 C   0  0  0  0  0  0  0  0  0  0  0  0
   58.9295   30.3906   45.4307 C   0  0  0  0  0  0  0  0  0  0  0  0
   59.1267   29.1647   44.9102 C   0  0  0  0  0  0  0  0  0  0  0  0
   58.6797   31.5022   44.6466 C   0  0  0  0  0  0  0  0  0  0  0  0
   58.4518   32.5570   45.5027 C   0  0  0  0  0  0  0  0  0  0  0  0
   58.1338   33.9506   45.0513 C   0  0  0  0  0  0  0  0  0  0  0  0
   58.5883   32.1618   46.7927 N   0  0  0  0  0  0  0  0  0  0  0  0
   58.5975   27.9055   45.4556 C   0  0  0  0  0  0  0  0  0  0  0  0
   59.4994   26.7231   46.2562 S   0  0  0  0  0  0  0  0  0  0  0  0
   58.1276   25.8558   46.6921 C   0  0  0  0  0  0  0  0  0  0  0  0
   58.1473   24.7787   47.3411 O   0  0  0  0  0  0  0  0  0  0  0  0
   56.9860   26.4462   46.2807 N   0  0  0  0  0  0  0  0  0  0  0  0
   57.2492   27.5978   45.6077 C   0  0  0  0  0  0  0  0  0  0  0  0
   56.2295   28.4023   45.1143 O   0  0  0  0  0  0  0  0  0  0  0  0
   58.5055   33.0482   47.9678 C   0  0  0  0  0  0  0  0  0  0  0  0
   59.6451   34.0789   47.9880 C   0  0  0  0  0  0  0  0  0  0  0  0
   60.9866   33.4353   48.1810 C   0  0  0  0  0  0  0  0  0  0  0  0
   61.9445   33.4518   47.1560 C   0  0  0  0  0  0  0  0  0  0  0  0
   63.1626   32.7988   47.3471 C   0  0  0  0  0  0  0  0  0  0  0  0
   63.4172   32.1384   48.5504 C   0  0  0  0  0  0  0  0  0  0  0  0
   62.4390   32.1405   49.5502 C   0  0  0  0  0  0  0  0  0  0  0  0
   62.6496   31.5491   50.6401 O   0  0  0  0  0  0  0  0  0  0  0  0
   61.2581   32.7790   49.3444 N   0  0  0  0  0  0  0  0  0  0  0  0
  1  2  2  0
  2  3  1  0
  3  4  2  0
  4  9  1  0
  9 10  1  0
 10 11  1  0
 11 12  2  0
 11 13  1  0
 13 14  1  0
 14 15  1  0
  3  5  1  0
  5  6  2  0
  6  7  1  0
  6  8  1  0
  8 16  1  0
 16 17  1  0
 17 18  1  0
 18 19  2  0
 19 20  1  0
 20 21  2  0
 21 22  1  0
 22 23  2  0
 22 24  1  0
  8  2  1  0
 24 18  1  0
 14  9  2  0
M  CHG 1  13  -1
M  CHG 1  15  -1
M  CHG 1  24  -1
M  END
> <UniqueID>
25

> <SMILES>
C=c1c(=Cc2sc(=O)[n-]c2[O-])cc(C)n1CCc1cccc(=O)[n-]1

> <Energy>
108.08714785973554

> <Genealogy>
C=c1c(=Cc2sc(=O)[n-]c2[O-])cc(C)n1CCc1cccc(=O)[n-]1 (protonated)
C=c1c(=Cc2sc(=O)[n-]c2[O-])cc(C)n1CCc1cccc(=O)[n-]1 (3D coordinates assigned)
C=c1c(=Cc2sc(=O)[n-]c2[O-])cc(C)n1CCc1cccc(=O)[n-]1 (optimized conformer: 108.08714785973554 kcal/mol)

> <smiles>
C=c1c(=Cc2sc(=O)[nH]c2O)cc(C)n1CCc1cccc(=O)[nH]1

> <score_type>
oracle

> <origin>
adg

> <m_score__min__energy>
-14.73

> <m_primary>
energy

> <minimizedAffinity>
-6.84296

> <minimizedRMSD>
1.04268

> <CNNscore>
0.7532018423

> <CNNaffinity>
7.0493206978

> <CNN_VS>
5.3095612526

> <CNNaffinity_variance>
0.1747534275

$$$$
32:0


 32 35  0  0  0  0  0  0  0  0999 V2000
   59.9779   28.2986   49.1341 C   0  0  0  0  0  0  0  0  0  0  0  0
   59.4869   29.3350   48.4347 C   0  0  0  0  0  0  0  0  0  0  0  0
   59.3319   29.4334   47.0390 C   0  0  0  0  0  0  0  0  0  0  0  0
   59.5507   28.5462   46.0493 C   0  0  0  0  0  0  0  0  0  0  0  0
   58.8817   30.7198   46.7914 C   0  0  0  0  0  0  0  0  0  0  0  0
   58.7582   31.3466   48.0108 C   0  0  0  0  0  0  0  0  0  0  0  0
   58.3533   32.7809   48.1858 C   0  0  0  0  0  0  0  0  0  0  0  0
   59.1055   30.5069   49.0111 N   0  0  0  0  0  0  0  0  0  0  0  0
   58.9720   27.1960   45.9683 C   0  0  0  0  0  0  0  0  0  0  0  0
   57.6235   27.0153   45.6328 C   0  0  0  0  0  0  0  0  0  0  0  0
   56.8135   28.1057   45.3403 O   0  0  0  0  0  0  0  0  0  0  0  0
   57.1004   25.7614   45.5851 N   0  0  0  0  0  0  0  0  0  0  0  0
   57.8624   24.6740   45.8704 C   0  0  0  0  0  0  0  0  0  0  0  0
   57.3587   23.5233   45.8175 O   0  0  0  0  0  0  0  0  0  0  0  0
   59.1675   24.8283   46.2165 N   0  0  0  0  0  0  0  0  0  0  0  0
   59.7347   26.0595   46.2774 C   0  0  0  0  0  0  0  0  0  0  0  0
   60.9441   26.1687   46.6140 O   0  0  0  0  0  0  0  0  0  0  0  0
   59.1102   30.8373   50.4156 C   0  0  0  0  0  0  0  0  0  0  0  0
   57.8853   30.9475   51.0929 C   0  0  0  0  0  0  0  0  0  0  0  0
   57.8480   31.3041   52.4409 C   0  0  0  0  0  0  0  0  0  0  0  0
   59.0327   31.5643   53.1276 C   0  0  0  0  0  0  0  0  0  0  0  0
   60.2596   31.4628   52.4703 C   0  0  0  0  0  0  0  0  0  0  0  0
   60.3179   31.0837   51.1179 C   0  0  0  0  0  0  0  0  0  0  0  0
   61.6415   30.9996   50.4633 C   0  0  0  0  0  0  0  0  0  0  0  0
   62.3329   29.9570   50.6233 O   0  0  0  0  0  0  0  0  0  0  0  0
   62.1557   32.0697   49.6501 N   0  0  0  0  0  0  0  0  0  0  0  0
   61.2583   32.8396   48.7738 C   0  0  0  0  0  0  0  0  0  0  0  0
   61.8809   33.0138   47.3851 C   0  0  0  0  0  0  0  0  0  0  0  0
   63.2989   33.5054   47.4913 C   0  0  0  0  0  0  0  0  0  0  0  0
   63.8903   33.8771   46.4888 O   0  0  0  0  0  0  0  0  0  0  0  0
   63.9780   33.5634   48.8312 C   0  0  0  0  0  0  0  0  0  0  0  0
   63.6059   32.3276   49.6591 C   0  0  0  0  0  0  0  0  0  0  0  0
  1  2  2  0
  2  3  1  0
  3  4  2  0
  4  9  1  0
  9 10  2  0
 10 11  1  0
 10 12  1  0
 12 13  1  0
 13 14  2  0
 13 15  1  0
 15 16  1  0
 16 17  2  0
  3  5  1  0
  5  6  2  0
  6  7  1  0
  6  8  1  0
  8 18  1  0
 18 19  2  0
 19 20  1  0
 20 21  2  0
 21 22  1  0
 22 23  2  0
 23 24  1  0
 24 25  2  0
 24 26  1  0
 26 27  1  0
 27 28  1  0
 28 29  1  0
 29 30  2  0
 29 31  1  0
 31 32  1  0
  8  2  1  0
 23 18  1  0
 32 26  1  0
 16  9  1  0
M  CHG 1  11  -1
M  CHG 1  12  -1
M  CHG 1  15  -1
M  END
> <UniqueID>
31

> <SMILES>
C=c1c(=Cc2c([O-])[n-]c(=O)[n-]c2=O)cc(C)n1-c1ccccc1C(=O)N1CCC(=O)CC1

> <Energy>
105.92179490149812

> <Genealogy>
C=c1c(=Cc2c([O-])[n-]c(=O)[n-]c2=O)cc(C)n1-c1ccccc1C(=O)N1CCC(=O)CC1 (protonated)
C=c1c(=Cc2c([O-])[n-]c(=O)[n-]c2=O)cc(C)n1-c1ccccc1C(=O)N1CCC(=O)CC1 (3D coordinates assigned)
C=c1c(=Cc2c([O-])[n-]c(=O)[n-]c2=O)cc(C)n1-c1ccccc1C(=O)N1CCC(=O)CC1 (nonaromatic ring conformer: 105.92179490149812 kcal/mol)

> <smiles>
C=c1c(=Cc2c(O)[nH]c(=O)[nH]c2=O)cc(C)n1-c1ccccc1C(=O)N1CCC(=O)CC1

> <score_type>
oracle

> <origin>
adg

> <m_score__min__energy>
-17.23

> <m_primary>
energy

> <minimizedAffinity>
-7.36691

> <minimizedRMSD>
1.31959

> <CNNscore>
0.2194170058

> <CNNaffinity>
6.6740765572

> <CNN_VS>
1.4644058943

> <CNNaffinity_variance>
0.0058172103

$$$$
40:0


 23 25  0  0  0  0  0  0  0  0999 V2000
   60.6384   29.7720   46.5765 C   0  0  0  0  0  0  0  0  0  0  0  0
   59.5103   29.2937   46.0079 C   0  0  0  0  0  0  0  0  0  0  0  0
   59.3923   27.9056   45.7547 C   0  0  0  0  0  0  0  0  0  0  0  0
   60.3678   27.1354   45.9847 O   0  0  0  0  0  0  0  0  0  0  0  0
   58.1899   27.4073   45.2007 C   0  0  0  0  0  0  0  0  0  0  0  0
   57.9456   26.1045   44.9434 C   0  0  0  0  0  0  0  0  0  0  0  0
   57.2187   28.2938   44.8713 N   0  0  0  0  0  0  0  0  0  0  0  0
   57.3358   29.6242   45.0917 C   0  0  0  0  0  0  0  0  0  0  0  0
   56.3846   30.3824   44.7588 O   0  0  0  0  0  0  0  0  0  0  0  0
   58.4693   30.1336   45.6679 N   0  0  0  0  0  0  0  0  0  0  0  0
   57.3406   25.1299   45.8688 C   0  0  0  0  0  0  0  0  0  0  0  0
   57.9514   23.9976   46.2575 N   0  0  0  0  0  0  0  0  0  0  0  0
   57.0028   23.3638   46.9810 C   0  0  0  0  0  0  0  0  0  0  0  0
   57.2036   22.2535   47.5375 O   0  0  0  0  0  0  0  0  0  0  0  0
   55.8173   24.0082   47.0515 N   0  0  0  0  0  0  0  0  0  0  0  0
   56.0433   25.1170   46.3290 C   0  0  0  0  0  0  0  0  0  0  0  0
   55.0749   26.0793   46.0708 O   0  0  0  0  0  0  0  0  0  0  0  0
   58.5387   31.5572   45.8878 C   0  0  0  0  0  0  0  0  0  0  0  0
   58.4664   32.4420   44.8024 C   0  0  0  0  0  0  0  0  0  0  0  0
   58.5369   33.8217   45.0165 C   0  0  0  0  0  0  0  0  0  0  0  0
   58.6815   34.3227   46.3140 C   0  0  0  0  0  0  0  0  0  0  0  0
   58.7575   33.4440   47.3983 C   0  0  0  0  0  0  0  0  0  0  0  0
   58.6881   32.0634   47.1872 C   0  0  0  0  0  0  0  0  0  0  0  0
  1  2  2  0
  2  3  1  0
  3  4  2  0
  3  5  1  0
  5  6  2  0
  6 11  1  0
 11 12  1  0
 12 13  1  0
 13 14  2  0
 13 15  1  0
 15 16  1  0
 16 17  1  0
  5  7  1  0
  7  8  1  0
  8  9  2  0
  8 10  1  0
 10 18  1  0
 18 19  2  0
 19 20  1  0
 20 21  2  0
 21 22  1  0
 22 23  2  0
 10  2  1  0
 23 18  1  0
 16 11  2  0
M  CHG 1   7  -1
M  CHG 1  12  -1
M  CHG 1  15  -1
M  CHG 1  17  -1
M  END
> <UniqueID>
39

> <SMILES>
C=c1c(=O)/c(=C\c2[n-]c(=O)[n-]c2[O-])[n-]c(=O)n1-c1ccccc1

> <Energy>
91.78071453305492

> <Genealogy>
C=c1c(=O)c(=Cc2[n-]c(=O)[n-]c2[O-])[n-]c(=O)n1-c1ccccc1 (protonated)
C=c1c(=O)/c(=C\c2[n-]c(=O)[n-]c2[O-])[n-]c(=O)n1-c1ccccc1 (cis-trans isomerization)
C=c1c(=O)/c(=C\c2[n-]c(=O)[n-]c2[O-])[n-]c(=O)n1-c1ccccc1 (3D coordinates assigned)
C=c1c(=O)/c(=C\c2[n-]c(=O)[n-]c2[O-])[n-]c(=O)n1-c1ccccc1 (optimized conformer: 91.78071453305492 kcal/mol)

> <smiles>
C=c1c(=O)c(=Cc2[nH]c(=O)[nH]c2O)[nH]c(=O)n1-c1ccccc1

> <score_type>
oracle

> <origin>
adg

> <m_score__min__energy>
-16.780000000000001

> <m_primary>
energy

> <minimizedAffinity>
-8.76994

> <minimizedRMSD>
0.67979

> <CNNscore>
0.5817267299

> <CNNaffinity>
6.3963551521

> <CNN_VS>
3.7209308147

> <CNNaffinity_variance>
0.0821628869

$$$$
41:0


 35 39  0  0  0  0  0  0  0  0999 V2000
   58.2887   26.8122   45.1476 C   0  0  0  0  0  0  0  0  0  0  0  0
   58.5919   27.9030   45.8769 C   0  0  0  0  0  0  0  0  0  0  0  0
   58.3392   29.1886   45.4335 C   0  0  0  0  0  0  0  0  0  0  0  0
   58.6928   30.0379   46.4589 C   0  0  0  0  0  0  0  0  0  0  0  0
   59.1841   29.3447   47.5122 N   0  0  0  0  0  0  0  0  0  0  0  0
   59.1690   28.0301   47.1516 C   0  0  0  0  0  0  0  0  0  0  0  0
   59.7595   27.0553   47.8599 C   0  0  0  0  0  0  0  0  0  0  0  0
   58.6075   31.5077   46.3912 C   0  0  0  0  0  0  0  0  0  0  0  0
   57.6050   32.0195   45.8243 O   0  0  0  0  0  0  0  0  0  0  0  0
   59.6230   32.3508   46.9862 N   0  0  0  0  0  0  0  0  0  0  0  0
   61.0487   31.9982   46.8741 C   0  0  0  0  0  0  0  0  0  0  0  0
   61.9069   32.6373   47.9426 C   0  0  0  0  0  0  0  0  0  0  0  0
   63.2922   32.3970   47.9331 C   0  0  0  0  0  0  0  0  0  0  0  0
   64.1140   32.9549   48.9127 C   0  0  0  0  0  0  0  0  0  0  0  0
   63.5623   33.7583   49.9123 C   0  0  0  0  0  0  0  0  0  0  0  0
   62.1867   34.0047   49.9364 C   0  0  0  0  0  0  0  0  0  0  0  0
   61.3519   33.4574   48.9474 C   0  0  0  0  0  0  0  0  0  0  0  0
   59.8684   33.6839   49.0181 C   0  0  0  0  0  0  0  0  0  0  0  0
   59.2515   33.6179   47.6272 C   0  0  0  0  0  0  0  0  0  0  0  0
   55.3638   26.5308   46.0499 O   0  0  0  0  0  0  0  0  0  0  0  0
   56.3191   25.5218   46.1041 C   0  0  0  0  0  0  0  0  0  0  0  0
   56.0770   24.2984   46.6006 N   0  0  0  0  0  0  0  0  0  0  0  0
   57.2688   23.6771   46.4510 C   0  0  0  0  0  0  0  0  0  0  0  0
   57.4608   22.4861   46.8064 O   0  0  0  0  0  0  0  0  0  0  0  0
   58.2394   24.4360   45.9002 N   0  0  0  0  0  0  0  0  0  0  0  0
   57.6204   25.6048   45.6591 C   0  0  0  0  0  0  0  0  0  0  0  0
   54.5006   26.3769   46.3803 H   0  0  0  0  0  0  0  0  0  0  0  0
   59.7628   29.9495   48.7254 C   0  0  0  0  0  0  0  0  0  0  0  0
   58.7927   29.8563   49.9093 C   0  0  0  0  0  0  0  0  0  0  0  0
   58.8795   31.0669   50.7539 N   0  0  0  0  0  0  0  0  0  0  0  0
   57.6179   31.2947   51.4902 C   0  0  0  0  0  0  0  0  0  0  0  0
   57.7910   32.4034   52.5483 C   0  0  0  0  0  0  0  0  0  0  0  0
   58.9815   33.1325   52.3276 O   0  0  0  0  0  0  0  0  0  0  0  0
   60.1051   32.2908   52.5146 C   0  0  0  0  0  0  0  0  0  0  0  0
   59.9990   30.9770   51.7105 C   0  0  0  0  0  0  0  0  0  0  0  0
 20 21  1  0
 21 22  1  0
 22 23  1  0
 23 24  2  0
 23 25  1  0
 25 26  1  0
 26  1  1  0
  1  2  2  0
  2  3  1  0
  3  4  2  0
  4  8  1  0
  8  9  2  0
  8 10  1  0
 10 11  1  0
 11 12  1  0
 12 13  2  0
 13 14  1  0
 14 15  2  0
 15 16  1  0
 16 17  2  0
 17 18  1  0
 18 19  1  0
  4  5  1  0
  5 28  1  0
 28 29  1  0
 29 30  1  0
 30 31  1  0
 31 32  1  0
 32 33  1  0
 33 34  1  0
 34 35  1  0
  5  6  1  0
  6  7  2  0
 26 21  2  0
  6  2  1  0
 19 10  1  0
 35 30  1  0
 17 12  1  0
 20 27  1  0
M  CHG 1  22  -1
M  CHG 1  25  -1
M  END
> <UniqueID>
40

> <SMILES>
C=c1/c(=C\c2[n-]c(=O)[n-]c2O)cc(C(=O)N2CCc3ccccc3C2)n1CCN1CCOCC1

> <Energy>
148.12008000718893

> <Genealogy>
C=c1c(=Cc2[n-]c(=O)[n-]c2O)cc(C(=O)N2CCc3ccccc3C2)n1CCN1CCOCC1 (protonated)
C=c1/c(=C\c2[n-]c(=O)[n-]c2O)cc(C(=O)N2CCc3ccccc3C2)n1CCN1CCOCC1 (cis-trans isomerization)
C=c1/c(=C\c2[n-]c(=O)[n-]c2O)cc(C(=O)N2CCc3ccccc3C2)n1CCN1CCOCC1 (3D coordinates assigned)
C=c1/c(=C\c2[n-]c(=O)[n-]c2O)cc(C(=O)N2CCc3ccccc3C2)n1CCN1CCOCC1 (nonaromatic ring conformer: 148.12008000718893 kcal/mol)

> <smiles>
C=c1c(=Cc2[nH]c(=O)[nH]c2O)cc(C(=O)N2CCc3ccccc3C2)n1CCN1CCOCC1

> <score_type>
oracle

> <origin>
adg

> <m_score__min__energy>
-14.02

> <m_primary>
energy

> <minimizedAffinity>
-10.03963

> <minimizedRMSD>
0.57664

> <CNNscore>
0.3753545880

> <CNNaffinity>
7.0127739906

> <CNN_VS>
2.6322767735

> <CNNaffinity_variance>
0.0322973803

$$$$
43:0


 26 28  0  0  0  0  0  0  0  0999 V2000
   56.9519   24.7879   46.6326 C   0  0  0  0  0  0  0  0  0  0  0  0
   58.3026   25.0317   46.9387 C   0  0  0  0  0  0  0  0  0  0  0  0
   58.8264   26.3233   46.8658 C   0  0  0  0  0  0  0  0  0  0  0  0
   58.0074   27.4005   46.4866 C   0  0  0  0  0  0  0  0  0  0  0  0
   56.6578   27.1662   46.2042 C   0  0  0  0  0  0  0  0  0  0  0  0
   56.1278   25.8725   46.2738 C   0  0  0  0  0  0  0  0  0  0  0  0
   54.7853   25.6756   45.9655 O   0  0  0  0  0  0  0  0  0  0  0  0
   58.2262   21.3927   43.2215 C   0  0  0  0  0  0  0  0  0  0  0  0
   56.7557   21.3882   43.1295 N   0  0  0  0  0  0  0  0  0  0  0  0
   56.1996   22.7647   43.0636 C   0  0  0  0  0  0  0  0  0  0  0  0
   55.5090   23.2292   44.3609 C   0  0  0  0  0  0  0  0  0  0  0  0
   56.1559   22.6319   45.5345 N   0  0  0  0  0  0  0  0  0  0  0  0
   56.4149   23.4095   46.7184 C   0  0  0  0  0  0  0  0  0  0  0  0
   56.2135   22.8951   47.8529 O   0  0  0  0  0  0  0  0  0  0  0  0
   56.3259   21.1766   45.5816 C   0  0  0  0  0  0  0  0  0  0  0  0
   56.1419   20.5560   44.1867 C   0  0  0  0  0  0  0  0  0  0  0  0
   58.5111   28.7388   46.3743 N   0  0  0  0  0  0  0  0  0  0  0  0
   60.1455   29.2197   46.7006 S   0  0  0  0  0  0  0  0  0  0  0  0
   61.0476   28.6616   45.6361 O   0  0  0  0  0  0  0  0  0  0  0  0
   60.5627   28.6771   48.0373 O   0  0  0  0  0  0  0  0  0  0  0  0
   60.2553   30.9689   46.7360 C   0  0  0  0  0  0  0  0  0  0  0  0
   61.2696   31.7003   47.3391 C   0  0  0  0  0  0  0  0  0  0  0  0
   61.0730   33.0829   47.2457 C   0  0  0  0  0  0  0  0  0  0  0  0
   59.9090   33.4247   46.5716 C   0  0  0  0  0  0  0  0  0  0  0  0
   59.2874   35.1975   46.2509 Br  0  0  0  0  0  0  0  0  0  0  0  0
   59.1141   32.0225   46.0924 S   0  0  0  0  0  0  0  0  0  0  0  0
  8  9  1  0
  9 10  1  0
 10 11  1  0
 11 12  1  0
 12 13  1  0
 13 14  2  0
 13  1  1  0
  1  2  2  0
  2  3  1  0
  3  4  2  0
  4 17  1  0
 17 18  1  0
 18 19  2  0
 18 20  2  0
 18 21  1  0
 21 22  2  0
 22 23  1  0
 23 24  2  0
 24 25  1  0
 24 26  1  0
  4  5  1  0
  5  6  2  0
  6  7  1  0
 12 15  1  0
 15 16  1  0
 16  9  1  0
  6  1  1  0
 26 21  1  0
M  CHG 1   7  -1
M  CHG 1  17  -1
M  END
> <UniqueID>
42

> <SMILES>
CN1CCN(C(=O)c2ccc([N-]S(=O)(=O)c3ccc(Br)s3)cc2[O-])CC1

> <Energy>
85.06277865157098

> <Genealogy>
CN1CCN(C(=O)c2ccc([N-]S(=O)(=O)c3ccc(Br)s3)cc2[O-])CC1 (protonated)
CN1CCN(C(=O)c2ccc([N-]S(=O)(=O)c3ccc(Br)s3)cc2[O-])CC1 (3D coordinates assigned)
CN1CCN(C(=O)c2ccc([N-]S(=O)(=O)c3ccc(Br)s3)cc2[O-])CC1 (nonaromatic ring conformer: 85.06277865157098 kcal/mol)

> <smiles>
CN1CCN(C(=O)c2ccc(NS(=O)(=O)c3ccc(Br)s3)cc2O)CC1

> <score_type>
oracle

> <origin>
adg

> <m_score__min__energy>
-14.65

> <m_primary>
energy

> <minimizedAffinity>
-4.93965

> <minimizedRMSD>
0.75230

> <CNNscore>
0.4356474280

> <CNNaffinity>
5.6787390709

> <CNN_VS>
2.4739279747

> <CNNaffinity_variance>
0.1665869951

$$$$
49:0


 31 34  0  0  0  0  0  0  0  0999 V2000
   58.7783   30.8621   45.7970 C   0  0  0  0  0  0  0  0  0  0  0  0
   59.2390   30.2983   46.9267 C   0  0  0  0  0  0  0  0  0  0  0  0
   59.8548   29.0417   47.0423 C   0  0  0  0  0  0  0  0  0  0  0  0
   59.9626   28.0227   46.1662 C   0  0  0  0  0  0  0  0  0  0  0  0
   60.3947   28.9914   48.3144 C   0  0  0  0  0  0  0  0  0  0  0  0
   60.0403   30.1635   48.9467 C   0  0  0  0  0  0  0  0  0  0  0  0
   59.3151   30.9525   48.1171 N   0  0  0  0  0  0  0  0  0  0  0  0
   60.4290   30.5084   50.3292 C   0  0  0  0  0  0  0  0  0  0  0  0
   61.6499   30.6680   50.5938 O   0  0  0  0  0  0  0  0  0  0  0  0
   59.4418   30.6820   51.3683 N   0  0  0  0  0  0  0  0  0  0  0  0
   58.0721   30.1803   51.2031 C   0  0  0  0  0  0  0  0  0  0  0  0
   57.4895   29.7898   52.5660 C   0  0  0  0  0  0  0  0  0  0  0  0
   57.6250   30.8510   53.4907 O   0  0  0  0  0  0  0  0  0  0  0  0
   58.9960   31.0827   53.7509 C   0  0  0  0  0  0  0  0  0  0  0  0
   59.7122   31.5848   52.4928 C   0  0  0  0  0  0  0  0  0  0  0  0
   58.9952   26.9276   45.9996 C   0  0  0  0  0  0  0  0  0  0  0  0
   59.2578   25.6482   46.3161 N   0  0  0  0  0  0  0  0  0  0  0  0
   58.0735   25.0293   46.1204 C   0  0  0  0  0  0  0  0  0  0  0  0
   57.9167   23.7933   46.3002 O   0  0  0  0  0  0  0  0  0  0  0  0
   57.0659   25.8400   45.7292 N   0  0  0  0  0  0  0  0  0  0  0  0
   57.6622   27.0406   45.6702 C   0  0  0  0  0  0  0  0  0  0  0  0
   56.9957   28.2182   45.3528 O   0  0  0  0  0  0  0  0  0  0  0  0
   58.9090   32.3382   48.3995 C   0  0  0  0  0  0  0  0  0  0  0  0
   59.8110   33.3195   47.6450 C   0  0  0  0  0  0  0  0  0  0  0  0
   61.2084   33.2902   48.1993 C   0  0  0  0  0  0  0  0  0  0  0  0
   62.2209   32.5799   47.5319 C   0  0  0  0  0  0  0  0  0  0  0  0
   63.5117   32.5277   48.0658 C   0  0  0  0  0  0  0  0  0  0  0  0
   63.7988   33.1705   49.2725 C   0  0  0  0  0  0  0  0  0  0  0  0
   65.0821   33.1174   49.8021 O   0  0  0  0  0  0  0  0  0  0  0  0
   62.7916   33.8665   49.9499 C   0  0  0  0  0  0  0  0  0  0  0  0
   61.5000   33.9236   49.4193 C   0  0  0  0  0  0  0  0  0  0  0  0
  1  2  2  0
  2  3  1  0
  3  4  2  0
  4 16  1  0
 16 17  1  0
 17 18  1  0
 18 19  2  0
 18 20  1  0
 20 21  1  0
 21 22  1  0
  3  5  1  0
  5  6  2  0
  6  8  1  0
  8  9  2  0
  8 10  1  0
 10 11  1  0
 11 12  1  0
 12 13  1  0
 13 14  1  0
 14 15  1  0
  6  7  1  0
  7 23  1  0
 23 24  1  0
 24 25  1  0
 25 26  2  0
 26 27  1  0
 27 28  2  0
 28 29  1  0
 28 30  1  0
 30 31  2  0
  7  2  1  0
 31 25  1  0
 21 16  2  0
 15 10  1  0
M  CHG 1  17  -1
M  CHG 1  20  -1
M  CHG 1  22  -1
M  CHG 1  29  -1
M  END
> <UniqueID>
47

> <SMILES>
C=c1/c(=C\c2[n-]c(=O)[n-]c2[O-])cc(C(=O)N2CCOCC2)n1CCc1ccc([O-])cc1

> <Energy>
128.18566215058738

> <Genealogy>
C=c1c(=Cc2[n-]c(=O)[n-]c2[O-])cc(C(=O)N2CCOCC2)n1CCc1ccc([O-])cc1 (protonated)
C=c1/c(=C\c2[n-]c(=O)[n-]c2[O-])cc(C(=O)N2CCOCC2)n1CCc1ccc([O-])cc1 (cis-trans isomerization)
C=c1/c(=C\c2[n-]c(=O)[n-]c2[O-])cc(C(=O)N2CCOCC2)n1CCc1ccc([O-])cc1 (3D coordinates assigned)
C=c1/c(=C\c2[n-]c(=O)[n-]c2[O-])cc(C(=O)N2CCOCC2)n1CCc1ccc([O-])cc1 (nonaromatic ring conformer: 128.18566215058738 kcal/mol)

> <smiles>
C=c1c(=Cc2[nH]c(=O)[nH]c2O)cc(C(=O)N2CCOCC2)n1CCc1ccc(O)cc1

> <score_type>
oracle

> <origin>
adg

> <m_score__min__energy>
-17.120000000000001

> <m_primary>
energy

> <minimizedAffinity>
-8.12413

> <minimizedRMSD>
1.55542

> <CNNscore>
0.3116293848

> <CNNaffinity>
6.6404652596

> <CNN_VS>
2.0693640709

> <CNNaffinity_variance>
0.0415605046

$$$$
50:0


 28 30  0  0  0  0  0  0  0  0999 V2000
   55.7625   26.8318   54.3298 C   0  0  0  0  0  0  0  0  0  0  0  0
   56.3463   28.0353   54.3593 C   0  0  0  0  0  0  0  0  0  0  0  0
   58.0164   28.2155   54.2594 S   0  0  0  0  0  0  0  0  0  0  0  0
   57.9759   29.8703   54.5518 C   0  0  0  0  0  0  0  0  0  0  0  0
   56.7077   30.3034   54.7189 N   0  0  0  0  0  0  0  0  0  0  0  0
   55.7797   29.3124   54.5950 C   0  0  0  0  0  0  0  0  0  0  0  0
   54.4750   29.6343   54.6928 C   0  0  0  0  0  0  0  0  0  0  0  0
   53.6247   30.1779   53.6154 C   0  0  0  0  0  0  0  0  0  0  0  0
   52.3295   30.6514   53.8787 C   0  0  0  0  0  0  0  0  0  0  0  0
   51.8247   30.6600   55.1735 O   0  0  0  0  0  0  0  0  0  0  0  0
   51.5543   31.1046   52.8581 N   0  0  0  0  0  0  0  0  0  0  0  0
   52.0040   31.0916   51.5774 C   0  0  0  0  0  0  0  0  0  0  0  0
   51.2697   31.5188   50.6487 O   0  0  0  0  0  0  0  0  0  0  0  0
   53.2426   30.6136   51.2954 N   0  0  0  0  0  0  0  0  0  0  0  0
   54.0549   30.1497   52.2802 C   0  0  0  0  0  0  0  0  0  0  0  0
   55.1964   29.7040   51.9820 O   0  0  0  0  0  0  0  0  0  0  0  0
   59.1231   30.7393   54.6449 N   0  0  0  0  0  0  0  0  0  0  0  0
   59.0924   31.8450   55.6061 C   0  0  0  0  0  0  0  0  0  0  0  0
   60.2796   30.5917   53.7519 C   0  0  0  0  0  0  0  0  0  0  0  0
   60.0120   31.2762   52.4374 C   0  0  0  0  0  0  0  0  0  0  0  0
   59.5037   30.5502   51.3504 C   0  0  0  0  0  0  0  0  0  0  0  0
   59.2943   31.1762   50.1180 C   0  0  0  0  0  0  0  0  0  0  0  0
   59.6009   32.5397   49.9482 C   0  0  0  0  0  0  0  0  0  0  0  0
   60.1156   33.2626   51.0388 C   0  0  0  0  0  0  0  0  0  0  0  0
   60.3226   32.6346   52.2710 C   0  0  0  0  0  0  0  0  0  0  0  0
   59.3922   33.1878   48.6793 N   0  0  0  0  0  0  0  0  0  0  0  0
   60.0159   34.2273   48.3870 O   0  0  0  0  0  0  0  0  0  0  0  0
   58.4891   32.6753   47.7695 O   0  0  0  0  0  0  0  0  0  0  0  0
  1  2  2  0
  2  3  1  0
  3  4  1  0
  4 17  1  0
 17 18  1  0
 17 19  1  0
 19 20  1  0
 20 21  2  0
 21 22  1  0
 22 23  2  0
 23 26  1  0
 26 27  2  0
 26 28  1  0
 23 24  1  0
 24 25  2  0
  4  5  2  0
  5  6  1  0
  6  7  2  0
  7  8  1  0
  8  9  2  0
  9 10  1  0
  9 11  1  0
 11 12  1  0
 12 13  2  0
 12 14  1  0
 14 15  1  0
 15 16  2  0
  6  2  1  0
 15  8  1  0
 25 20  1  0
M  CHG 1  10  -1
M  CHG 1  11  -1
M  CHG 1  14  -1
M  CHG 1  26   1
M  CHG 1  28  -1
M  END
> <UniqueID>
48

> <SMILES>
C=c1sc(N(C)Cc2ccc([N+](=O)[O-])cc2)n/c1=C/c1c([O-])[n-]c(=O)[n-]c1=O

> <Energy>
88.03770018170205

> <Genealogy>
C=c1sc(N(C)Cc2ccc([N+](=O)[O-])cc2)nc1=Cc1c([O-])[n-]c(=O)[n-]c1=O (protonated)
C=c1sc(N(C)Cc2ccc([N+](=O)[O-])cc2)n/c1=C/c1c([O-])[n-]c(=O)[n-]c1=O (cis-trans isomerization)
C=c1sc(N(C)Cc2ccc([N+](=O)[O-])cc2)n/c1=C/c1c([O-])[n-]c(=O)[n-]c1=O (3D coordinates assigned)
C=c1sc(N(C)Cc2ccc([N+](=O)[O-])cc2)n/c1=C/c1c([O-])[n-]c(=O)[n-]c1=O (optimized conformer: 88.03770018170205 kcal/mol)

> <smiles>
C=c1sc(N(C)Cc2ccc([N+](=O)[O-])cc2)nc1=Cc1c(O)[nH]c(=O)[nH]c1=O

> <score_type>
oracle

> <origin>
adg

> <m_score__min__energy>
-16.079999999999998

> <m_primary>
energy

> <minimizedAffinity>
-5.81697

> <minimizedRMSD>
3.07466

> <CNNscore>
0.3504114151

> <CNNaffinity>
5.6021285057

> <CNN_VS>
1.9630497694

> <CNNaffinity_variance>
0.0738603249

$$$$
60:0


 27 30  0  0  0  0  0  0  0  0999 V2000
   54.4318   27.5648   54.2804 C   0  0  0  0  0  0  0  0  0  0  0  0
   54.9548   28.5381   53.5296 C   0  0  0  0  0  0  0  0  0  0  0  0
   56.3074   28.6000   53.3673 N   0  0  0  0  0  0  0  0  0  0  0  0
   56.7015   29.7279   52.7442 C   0  0  0  0  0  0  0  0  0  0  0  0
   57.9497   29.9626   52.4638 N   0  0  0  0  0  0  0  0  0  0  0  0
   55.3903   30.7027   52.3438 S   0  0  0  0  0  0  0  0  0  0  0  0
   54.2492   29.6308   52.9679 C   0  0  0  0  0  0  0  0  0  0  0  0
   52.9277   29.8654   52.8586 C   0  0  0  0  0  0  0  0  0  0  0  0
   52.2155   30.2260   51.6224 C   0  0  0  0  0  0  0  0  0  0  0  0
   52.2054   29.4851   50.4991 N   0  0  0  0  0  0  0  0  0  0  0  0
   51.5603   30.2738   49.6109 C   0  0  0  0  0  0  0  0  0  0  0  0
   51.3332   29.9156   48.4260 O   0  0  0  0  0  0  0  0  0  0  0  0
   51.1875   31.4789   50.0910 N   0  0  0  0  0  0  0  0  0  0  0  0
   51.6235   31.4380   51.3602 C   0  0  0  0  0  0  0  0  0  0  0  0
   51.4873   32.4875   52.2593 O   0  0  0  0  0  0  0  0  0  0  0  0
   58.5790   31.2512   52.3966 C   0  0  0  0  0  0  0  0  0  0  0  0
   58.2862   32.2458   53.3482 C   0  0  0  0  0  0  0  0  0  0  0  0
   58.9069   33.4949   53.2787 C   0  0  0  0  0  0  0  0  0  0  0  0
   59.8349   33.7599   52.2703 C   0  0  0  0  0  0  0  0  0  0  0  0
   60.1555   32.7707   51.3387 C   0  0  0  0  0  0  0  0  0  0  0  0
   59.5462   31.5087   51.4026 C   0  0  0  0  0  0  0  0  0  0  0  0
   59.9024   30.5073   50.4348 N   0  0  0  0  0  0  0  0  0  0  0  0
   61.0052   29.5831   50.7057 C   0  0  0  0  0  0  0  0  0  0  0  0
   60.6969   28.2227   50.0723 C   0  0  0  0  0  0  0  0  0  0  0  0
   60.3615   28.3669   48.7049 O   0  0  0  0  0  0  0  0  0  0  0  0
   59.1580   29.1019   48.5786 C   0  0  0  0  0  0  0  0  0  0  0  0
   59.3433   30.5367   49.0810 C   0  0  0  0  0  0  0  0  0  0  0  0
  1  2  2  0
  2  3  1  0
  3  4  1  0
  4  5  2  0
  5 16  1  0
 16 17  2  0
 17 18  1  0
 18 19  2  0
 19 20  1  0
 20 21  2  0
 21 22  1  0
 22 23  1  0
 23 24  1  0
 24 25  1  0
 25 26  1  0
 26 27  1  0
  4  6  1  0
  6  7  1  0
  7  8  2  0
  8  9  1  0
  9 10  1  0
 10 11  1  0
 11 12  2  0
 11 13  1  0
 13 14  1  0
 14 15  1  0
  7  2  1  0
 14  9  2  0
 21 16  1  0
 27 22  1  0
M  CHG 1   3  -1
M  CHG 1  10  -1
M  CHG 1  13  -1
M  CHG 1  15  -1
M  END
> <UniqueID>
57

> <SMILES>
C=c1[n-]/c(=N/c2ccccc2N2CCOCC2)s/c1=C/c1[n-]c(=O)[n-]c1[O-]

> <Energy>
131.17906992036177

> <Genealogy>
C=c1[n-]c(=Nc2ccccc2N2CCOCC2)sc1=Cc1[n-]c(=O)[n-]c1[O-] (protonated)
C=c1[n-]/c(=N/c2ccccc2N2CCOCC2)s/c1=C/c1[n-]c(=O)[n-]c1[O-] (cis-trans isomerization)
C=c1[n-]/c(=N/c2ccccc2N2CCOCC2)s/c1=C/c1[n-]c(=O)[n-]c1[O-] (3D coordinates assigned)
C=c1[n-]/c(=N/c2ccccc2N2CCOCC2)s/c1=C/c1[n-]c(=O)[n-]c1[O-] (nonaromatic ring conformer: 131.17906992036177 kcal/mol)

> <smiles>
C=c1[nH]c(=Nc2ccccc2N2CCOCC2)sc1=Cc1[nH]c(=O)[nH]c1O

> <score_type>
oracle

> <origin>
adg

> <m_score__min__energy>
-18.120000000000001

> <m_primary>
energy

> <minimizedAffinity>
-5.21235

> <minimizedRMSD>
0.92231

> <CNNscore>
0.0747568682

> <CNNaffinity>
4.7295265198

> <CNN_VS>
0.3535645902

> <CNNaffinity_variance>
0.2665466368

$$$$
61:0


 28 30  0  0  0  0  0  0  0  0999 V2000
   57.6898   33.3185   45.5847 C   0  0  0  0  0  0  0  0  0  0  0  0
   57.5175   34.4610   45.0795 O   0  0  0  0  0  0  0  0  0  0  0  0
   58.5687   33.1542   46.7654 C   0  0  0  0  0  0  0  0  0  0  0  0
   59.1189   34.2764   47.4128 C   0  0  0  0  0  0  0  0  0  0  0  0
   59.9510   34.1176   48.5243 C   0  0  0  0  0  0  0  0  0  0  0  0
   60.2425   32.8372   49.0116 C   0  0  0  0  0  0  0  0  0  0  0  0
   59.6997   31.7158   48.3720 C   0  0  0  0  0  0  0  0  0  0  0  0
   58.8691   31.8713   47.2598 C   0  0  0  0  0  0  0  0  0  0  0  0
   61.2811   32.6206   50.4178 S   0  0  0  0  0  0  0  0  0  0  0  0
   60.8872   33.6319   51.4589 O   0  0  0  0  0  0  0  0  0  0  0  0
   61.1007   31.2395   50.9845 O   0  0  0  0  0  0  0  0  0  0  0  0
   62.9524   32.8637   49.9583 N   0  0  0  0  0  0  0  0  0  0  0  0
   63.0713   33.9887   49.0238 C   0  0  0  0  0  0  0  0  0  0  0  0
   63.0308   33.4369   47.6071 C   0  0  0  0  0  0  0  0  0  0  0  0
   63.2728   31.9454   47.7426 C   0  0  0  0  0  0  0  0  0  0  0  0
   63.4604   31.6946   49.2319 C   0  0  0  0  0  0  0  0  0  0  0  0
   57.0264   32.1816   45.0171 N   0  0  0  0  0  0  0  0  0  0  0  0
   57.5979   31.3617   43.9550 C   0  0  0  0  0  0  0  0  0  0  0  0
   56.3515   29.5784   42.9733 O   0  0  0  0  0  0  0  0  0  0  0  0
   56.9903   29.9893   43.9777 C   0  0  0  0  0  0  0  0  0  0  0  0
   56.9915   29.2062   45.1758 N   0  0  0  0  0  0  0  0  0  0  0  0
   57.9308   28.4171   45.6204 C   0  0  0  0  0  0  0  0  0  0  0  0
   59.1971   28.9165   45.6896 N   0  0  0  0  0  0  0  0  0  0  0  0
   60.2518   28.1808   46.1263 C   0  0  0  0  0  0  0  0  0  0  0  0
   60.0639   26.8597   46.5292 C   0  0  0  0  0  0  0  0  0  0  0  0
   58.7808   26.3156   46.4958 C   0  0  0  0  0  0  0  0  0  0  0  0
   57.7003   27.0870   46.0588 C   0  0  0  0  0  0  0  0  0  0  0  0
   56.4260   26.5321   46.1117 O   0  0  0  0  0  0  0  0  0  0  0  0
 19 20  2  0
 20 18  1  0
 18 17  1  0
 17  1  1  0
  1  2  2  0
  1  3  1  0
  3  4  2  0
  4  5  1  0
  5  6  2  0
  6  9  1  0
  9 10  2  0
  9 11  2  0
  9 12  1  0
 12 13  1  0
 13 14  1  0
 14 15  1  0
 15 16  1  0
  6  7  1  0
  7  8  2  0
 20 21  1  0
 21 22  2  0
 22 23  1  0
 23 24  1  0
 24 25  2  0
 25 26  1  0
 26 27  2  0
 27 28  1  0
  8  3  1  0
 27 22  1  0
 16 12  1  0
M  CHG 1  17  -1
M  CHG 1  23  -1
M  CHG 1  28  -1
M  END
> <UniqueID>
58

> <SMILES>
O=C(C[N-]C(=O)c1ccc(S(=O)(=O)N2CCCC2)cc1)N=c1[n-]cccc1[O-]

> <Energy>
59.04666652153962

> <Genealogy>
O=C(C[N-]C(=O)c1ccc(S(=O)(=O)N2CCCC2)cc1)N=c1[n-]cccc1[O-] (protonated)
O=C(C[N-]C(=O)c1ccc(S(=O)(=O)N2CCCC2)cc1)N=c1[n-]cccc1[O-] (3D coordinates assigned)
O=C(C[N-]C(=O)c1ccc(S(=O)(=O)N2CCCC2)cc1)N=c1[n-]cccc1[O-] (nonaromatic ring conformer: 59.04666652153962 kcal/mol)

> <smiles>
O=C(CNC(=O)c1ccc(S(=O)(=O)N2CCCC2)cc1)N=c1[nH]cccc1O

> <score_type>
oracle

> <origin>
adg

> <m_score__min__energy>
-15.880000000000001

> <m_primary>
energy

> <minimizedAffinity>
-7.81731

> <minimizedRMSD>
0.98293

> <CNNscore>
0.6536274552

> <CNNaffinity>
6.7197093964

> <CNN_VS>
4.3921866417

> <CNNaffinity_variance>
0.1411114484

$$$$
66:0


 34 37  0  0  0  0  0  0  0  0999 V2000
   58.3238   25.9293   46.3702 C   0  0  0  0  0  0  0  0  0  0  0  0
   59.5482   25.4136   46.5729 N   0  0  0  0  0  0  0  0  0  0  0  0
   60.3923   26.3742   46.1478 C   0  0  0  0  0  0  0  0  0  0  0  0
   59.7682   27.4781   45.6896 N   0  0  0  0  0  0  0  0  0  0  0  0
   58.4593   27.2005   45.8336 C   0  0  0  0  0  0  0  0  0  0  0  0
   57.0722   25.2589   46.7880 C   0  0  0  0  0  0  0  0  0  0  0  0
   57.0665   24.5564   47.8334 O   0  0  0  0  0  0  0  0  0  0  0  0
   55.8609   25.3542   46.0283 N   0  0  0  0  0  0  0  0  0  0  0  0
   54.9151   24.2676   45.8061 C   0  0  0  0  0  0  0  0  0  0  0  0
   55.9086   21.9493   45.5792 C   0  0  0  0  0  0  0  0  0  0  0  0
   56.5565   20.9687   44.7991 C   0  0  0  0  0  0  0  0  0  0  0  0
   56.8815   21.2266   43.4664 C   0  0  0  0  0  0  0  0  0  0  0  0
   56.5676   22.4602   42.8955 C   0  0  0  0  0  0  0  0  0  0  0  0
   55.9260   23.4399   43.6542 C   0  0  0  0  0  0  0  0  0  0  0  0
   55.5790   23.1890   44.9929 C   0  0  0  0  0  0  0  0  0  0  0  0
   56.4208   21.0482   47.8588 C   0  0  0  0  0  0  0  0  0  0  0  0
   55.5826   21.7263   46.9279 O   0  0  0  0  0  0  0  0  0  0  0  0
   57.3926   28.1210   45.3927 C   0  0  0  0  0  0  0  0  0  0  0  0
   56.1861   27.7769   45.4977 O   0  0  0  0  0  0  0  0  0  0  0  0
   57.7020   29.3629   44.7480 N   0  0  0  0  0  0  0  0  0  0  0  0
   58.2241   30.5303   45.3972 C   0  0  0  0  0  0  0  0  0  0  0  0
   58.8811   30.3912   46.6257 C   0  0  0  0  0  0  0  0  0  0  0  0
   59.4006   31.5121   47.2797 C   0  0  0  0  0  0  0  0  0  0  0  0
   59.2800   32.7857   46.7053 C   0  0  0  0  0  0  0  0  0  0  0  0
   58.6625   32.9210   45.4554 C   0  0  0  0  0  0  0  0  0  0  0  0
   58.1387   31.8012   44.8027 C   0  0  0  0  0  0  0  0  0  0  0  0
   59.9157   34.2059   47.5424 S   0  0  0  0  0  0  0  0  0  0  0  0
   59.6851   35.4221   46.6877 O   0  0  0  0  0  0  0  0  0  0  0  0
   59.1626   34.3935   48.8298 O   0  0  0  0  0  0  0  0  0  0  0  0
   61.6223   34.0755   47.8950 N   0  0  0  0  0  0  0  0  0  0  0  0
   61.8758   33.2963   49.1049 C   0  0  0  0  0  0  0  0  0  0  0  0
   63.2773   32.7199   48.9606 C   0  0  0  0  0  0  0  0  0  0  0  0
   63.5941   32.7993   47.4747 C   0  0  0  0  0  0  0  0  0  0  0  0
   62.3518   33.3920   46.8299 C   0  0  0  0  0  0  0  0  0  0  0  0
 16 17  1  0
 17 10  1  0
 10 11  2  0
 11 12  1  0
 12 13  2  0
 13 14  1  0
 14 15  2  0
 15  9  1  0
  9  8  1  0
  8  6  1  0
  6  7  2  0
  6  1  1  0
  1  2  1  0
  2  3  1  0
  3  4  2  0
  4  5  1  0
  5 18  1  0
 18 19  2  0
 18 20  1  0
 20 21  1  0
 21 22  2  0
 22 23  1  0
 23 24  2  0
 24 27  1  0
 27 28  2  0
 27 29  2  0
 27 30  1  0
 30 31  1  0
 31 32  1  0
 32 33  1  0
 33 34  1  0
 24 25  1  0
 25 26  2  0
 15 10  1  0
  5  1  2  0
 26 21  1  0
 34 30  1  0
M  CHG 1   2  -1
M  CHG 1   8  -1
M  CHG 1  20  -1
M  END
> <UniqueID>
63

> <SMILES>
COc1ccccc1C[N-]C(=O)c1[n-]cnc1C(=O)[N-]c1ccc(S(=O)(=O)N2CCCC2)cc1

> <Energy>
94.66286310184518

> <Genealogy>
COc1ccccc1C[N-]C(=O)c1[n-]cnc1C(=O)[N-]c1ccc(S(=O)(=O)N2CCCC2)cc1 (protonated)
COc1ccccc1C[N-]C(=O)c1[n-]cnc1C(=O)[N-]c1ccc(S(=O)(=O)N2CCCC2)cc1 (3D coordinates assigned)
COc1ccccc1C[N-]C(=O)c1[n-]cnc1C(=O)[N-]c1ccc(S(=O)(=O)N2CCCC2)cc1 (nonaromatic ring conformer: 94.66286310184518 kcal/mol)

> <smiles>
COc1ccccc1CNC(=O)c1[nH]cnc1C(=O)Nc1ccc(S(=O)(=O)N2CCCC2)cc1

> <score_type>
oracle

> <origin>
adg

> <m_score__min__energy>
-14.130000000000001

> <m_primary>
energy

> <minimizedAffinity>
-6.90709

> <minimizedRMSD>
1.00234

> <CNNscore>
0.3776056468

> <CNNaffinity>
6.9718575478

> <CNN_VS>
2.6326127052

> <CNNaffinity_variance>
0.0302906632

$$$$
71:0


 27 29  0  0  0  0  0  0  0  0999 V2000
   58.1659   27.5352   46.0013 C   0  0  0  0  0  0  0  0  0  0  0  0
   56.7732   27.5662   45.8237 C   0  0  0  0  0  0  0  0  0  0  0  0
   55.9749   26.4944   46.2074 O   0  0  0  0  0  0  0  0  0  0  0  0
   56.1872   28.6436   45.2542 N   0  0  0  0  0  0  0  0  0  0  0  0
   56.9068   29.7137   44.8384 C   0  0  0  0  0  0  0  0  0  0  0  0
   56.3006   30.6835   44.3093 O   0  0  0  0  0  0  0  0  0  0  0  0
   58.2690   29.7355   44.9972 N   0  0  0  0  0  0  0  0  0  0  0  0
   58.9038   28.6613   45.5755 C   0  0  0  0  0  0  0  0  0  0  0  0
   60.1550   28.6881   45.7429 O   0  0  0  0  0  0  0  0  0  0  0  0
   58.8321   26.3510   46.6087 C   0  0  0  0  0  0  0  0  0  0  0  0
   58.8449   26.2080   47.8632 O   0  0  0  0  0  0  0  0  0  0  0  0
   59.0669   24.1304   45.6811 C   0  0  0  0  0  0  0  0  0  0  0  0
   59.4526   25.3662   45.7705 N   0  0  0  0  0  0  0  0  0  0  0  0
   57.6347   23.7923   45.5636 C   0  0  0  0  0  0  0  0  0  0  0  0
   56.8881   23.3610   46.6768 C   0  0  0  0  0  0  0  0  0  0  0  0
   55.5327   23.0475   46.5394 C   0  0  0  0  0  0  0  0  0  0  0  0
   54.9086   23.1603   45.2933 C   0  0  0  0  0  0  0  0  0  0  0  0
   53.5625   22.8484   45.1593 O   0  0  0  0  0  0  0  0  0  0  0  0
   55.6425   23.5882   44.1827 C   0  0  0  0  0  0  0  0  0  0  0  0
   56.9985   23.9028   44.3162 C   0  0  0  0  0  0  0  0  0  0  0  0
   59.0597   30.8869   44.5144 C   0  0  0  0  0  0  0  0  0  0  0  0
   59.0385   32.0011   45.5298 C   0  0  0  0  0  0  0  0  0  0  0  0
   59.4844   31.7771   46.8435 C   0  0  0  0  0  0  0  0  0  0  0  0
   59.4948   32.8219   47.7728 C   0  0  0  0  0  0  0  0  0  0  0  0
   59.0633   34.0964   47.3980 C   0  0  0  0  0  0  0  0  0  0  0  0
   58.6224   34.3294   46.0926 C   0  0  0  0  0  0  0  0  0  0  0  0
   58.6107   33.2867   45.1607 C   0  0  0  0  0  0  0  0  0  0  0  0
 12 13  2  0
 13 10  1  0
 10 11  2  0
 10  1  1  0
  1  2  2  0
  2  3  1  0
  2  4  1  0
  4  5  1  0
  5  6  2  0
  5  7  1  0
  7 21  1  0
 21 22  1  0
 22 23  2  0
 23 24  1  0
 24 25  2  0
 25 26  1  0
 26 27  2  0
  7  8  1  0
  8  9  2  0
 12 14  1  0
 14 15  2  0
 15 16  1  0
 16 17  2  0
 17 18  1  0
 17 19  1  0
 19 20  2  0
  8  1  1  0
 20 14  1  0
 27 22  1  0
M  CHG 1   3  -1
M  CHG 1   4  -1
M  CHG 1  18  -1
M  END
> <UniqueID>
67

> <SMILES>
O=C(/N=C/c1ccc([O-])cc1)c1c([O-])[n-]c(=O)n(Cc2ccccc2)c1=O

> <Energy>
50.40421705997416

> <Genealogy>
O=C(N=Cc1ccc([O-])cc1)c1c([O-])[n-]c(=O)n(Cc2ccccc2)c1=O (protonated)
O=C(/N=C/c1ccc([O-])cc1)c1c([O-])[n-]c(=O)n(Cc2ccccc2)c1=O (cis-trans isomerization)
O=C(/N=C/c1ccc([O-])cc1)c1c([O-])[n-]c(=O)n(Cc2ccccc2)c1=O (3D coordinates assigned)
O=C(/N=C/c1ccc([O-])cc1)c1c([O-])[n-]c(=O)n(Cc2ccccc2)c1=O (optimized conformer: 50.40421705997416 kcal/mol)

> <smiles>
O=C(N=Cc1ccc(O)cc1)c1c(O)[nH]c(=O)n(Cc2ccccc2)c1=O

> <score_type>
oracle

> <origin>
adg

> <m_score__min__energy>
-14.960000000000001

> <m_primary>
energy

> <minimizedAffinity>
-5.58691

> <minimizedRMSD>
0.85838

> <CNNscore>
0.1561729461

> <CNNaffinity>
5.8465523720

> <CNN_VS>
0.9130733013

> <CNNaffinity_variance>
0.0717273206

$$$$
72:0


 40 44  0  0  0  0  0  0  0  0999 V2000
   56.9399   24.2094   44.4619 C   0  0  0  0  0  0  0  0  0  0  0  0
   57.7263   25.2247   44.8690 C   0  0  0  0  0  0  0  0  0  0  0  0
   58.1916   25.3252   46.1646 C   0  0  0  0  0  0  0  0  0  0  0  0
   58.8620   26.5278   46.2692 C   0  0  0  0  0  0  0  0  0  0  0  0
   58.8757   27.1627   45.0667 N   0  0  0  0  0  0  0  0  0  0  0  0
   58.1948   26.3640   44.1938 C   0  0  0  0  0  0  0  0  0  0  0  0
   58.0809   26.6101   42.8769 C   0  0  0  0  0  0  0  0  0  0  0  0
   54.8320   26.0000   45.8719 O   0  0  0  0  0  0  0  0  0  0  0  0
   54.7570   24.6184   45.7239 C   0  0  0  0  0  0  0  0  0  0  0  0
   53.7667   23.8749   46.2403 N   0  0  0  0  0  0  0  0  0  0  0  0
   54.1288   22.6180   45.9076 C   0  0  0  0  0  0  0  0  0  0  0  0
   53.4468   21.6108   46.2262 O   0  0  0  0  0  0  0  0  0  0  0  0
   55.2854   22.5255   45.2172 N   0  0  0  0  0  0  0  0  0  0  0  0
   55.6684   23.8054   45.0786 C   0  0  0  0  0  0  0  0  0  0  0  0
   54.1562   26.4594   46.3305 H   0  0  0  0  0  0  0  0  0  0  0  0
   59.4217   27.0268   47.5482 C   0  0  0  0  0  0  0  0  0  0  0  0
   60.3807   26.4332   48.1100 O   0  0  0  0  0  0  0  0  0  0  0  0
   58.8337   28.1789   48.1637 N   0  0  0  0  0  0  0  0  0  0  0  0
   59.3871   29.5026   48.1934 C   0  0  0  0  0  0  0  0  0  0  0  0
   60.6620   29.7102   47.6529 C   0  0  0  0  0  0  0  0  0  0  0  0
   61.2500   30.9775   47.6887 C   0  0  0  0  0  0  0  0  0  0  0  0
   60.5728   32.0496   48.2864 C   0  0  0  0  0  0  0  0  0  0  0  0
   59.3053   31.8428   48.8446 C   0  0  0  0  0  0  0  0  0  0  0  0
   58.7162   30.5747   48.8067 C   0  0  0  0  0  0  0  0  0  0  0  0
   61.2888   33.6598   48.3247 S   0  0  0  0  0  0  0  0  0  0  0  0
   61.8396   33.9748   46.9618 O   0  0  0  0  0  0  0  0  0  0  0  0
   60.2398   34.6838   48.6664 O   0  0  0  0  0  0  0  0  0  0  0  0
   62.5751   33.7131   49.5066 N   0  0  0  0  0  0  0  0  0  0  0  0
   63.8254   33.2024   48.9110 C   0  0  0  0  0  0  0  0  0  0  0  0
   64.8087   32.7593   50.0079 C   0  0  0  0  0  0  0  0  0  0  0  0
   64.3099   31.7382   50.8662 O   0  0  0  0  0  0  0  0  0  0  0  0
   62.8935   31.6354   50.8694 C   0  0  0  0  0  0  0  0  0  0  0  0
   62.1895   32.9983   50.7461 C   0  0  0  0  0  0  0  0  0  0  0  0
   59.5012   28.4687   44.7804 C   0  0  0  0  0  0  0  0  0  0  0  0
   58.4643   29.5621   44.6889 C   0  0  0  0  0  0  0  0  0  0  0  0
   57.1088   29.2343   44.4996 C   0  0  0  0  0  0  0  0  0  0  0  0
   56.1388   30.2402   44.4494 C   0  0  0  0  0  0  0  0  0  0  0  0
   56.5080   31.5781   44.5986 C   0  0  0  0  0  0  0  0  0  0  0  0
   57.8493   31.9147   44.8037 C   0  0  0  0  0  0  0  0  0  0  0  0
   58.8232   30.9134   44.8563 C   0  0  0  0  0  0  0  0  0  0  0  0
  8  9  1  0
  9 10  1  0
 10 11  1  0
 11 12  2  0
 11 13  1  0
 13 14  1  0
 14  1  1  0
  1  2  2  0
  2  3  1  0
  3  4  2  0
  4 16  1  0
 16 17  2  0
 16 18  1  0
 18 19  1  0
 19 20  2  0
 20 21  1  0
 21 22  2  0
 22 25  1  0
 25 26  2  0
 25 27  2  0
 25 28  1  0
 28 29  1  0
 29 30  1  0
 30 31  1  0
 31 32  1  0
 32 33  1  0
 22 23  1  0
 23 24  2  0
  4  5  1  0
  5 34  1  0
 34 35  1  0
 35 36  2  0
 36 37  1  0
 37 38  2  0
 38 39  1  0
 39 40  2  0
  5  6  1  0
  6  7  2  0
 14  9  2  0
  6  2  1  0
 24 19  1  0
 40 35  1  0
 33 28  1  0
  8 15  1  0
M  CHG 1  10  -1
M  CHG 1  13  -1
M  CHG 1  18  -1
M  END
> <UniqueID>
68

> <SMILES>
C=c1/c(=C\c2[n-]c(=O)[n-]c2O)cc(C(=O)[N-]c2ccc(S(=O)(=O)N3CCOCC3)cc2)n1Cc1ccccc1

> <Energy>
156.2347588101696

> <Genealogy>
C=c1c(=Cc2[n-]c(=O)[n-]c2O)cc(C(=O)[N-]c2ccc(S(=O)(=O)N3CCOCC3)cc2)n1Cc1ccccc1 (protonated)
C=c1/c(=C\c2[n-]c(=O)[n-]c2O)cc(C(=O)[N-]c2ccc(S(=O)(=O)N3CCOCC3)cc2)n1Cc1ccccc1 (cis-trans isomerization)
C=c1/c(=C\c2[n-]c(=O)[n-]c2O)cc(C(=O)[N-]c2ccc(S(=O)(=O)N3CCOCC3)cc2)n1Cc1ccccc1 (3D coordinates assigned)
C=c1/c(=C\c2[n-]c(=O)[n-]c2O)cc(C(=O)[N-]c2ccc(S(=O)(=O)N3CCOCC3)cc2)n1Cc1ccccc1 (nonaromatic ring conformer: 156.2347588101696 kcal/mol)

> <smiles>
C=c1c(=Cc2[nH]c(=O)[nH]c2O)cc(C(=O)Nc2ccc(S(=O)(=O)N3CCOCC3)cc2)n1Cc1ccccc1

> <score_type>
oracle

> <origin>
adg

> <m_score__min__energy>
-16.449999999999999

> <m_primary>
energy

> <minimizedAffinity>
-8.16326

> <minimizedRMSD>
0.55277

> <CNNscore>
0.1972368509

> <CNNaffinity>
6.6717190742

> <CNN_VS>
1.3159089088

> <CNNaffinity_variance>
0.2896580994

$$$$
73:0


 37 41  0  0  0  0  0  0  0  0999 V2000
   58.3773   31.2411   45.5721 C   0  0  0  0  0  0  0  0  0  0  0  0
   57.4274   32.1411   45.0648 C   0  0  0  0  0  0  0  0  0  0  0  0
   57.5465   33.5064   45.3289 C   0  0  0  0  0  0  0  0  0  0  0  0
   58.6046   33.9816   46.1058 C   0  0  0  0  0  0  0  0  0  0  0  0
   59.5567   33.0914   46.6373 C   0  0  0  0  0  0  0  0  0  0  0  0
   59.4346   31.7180   46.3600 C   0  0  0  0  0  0  0  0  0  0  0  0
   60.6862   33.5962   47.4526 C   0  0  0  0  0  0  0  0  0  0  0  0
   61.2920   34.6471   47.1085 O   0  0  0  0  0  0  0  0  0  0  0  0
   61.0783   32.9234   48.6574 N   0  0  0  0  0  0  0  0  0  0  0  0
   60.9397   33.5994   49.9517 C   0  0  0  0  0  0  0  0  0  0  0  0
   60.1722   32.6921   50.9227 C   0  0  0  0  0  0  0  0  0  0  0  0
   60.5696   31.2787   50.7750 N   0  0  0  0  0  0  0  0  0  0  0  0
   59.6289   30.2358   51.1027 C   0  0  0  0  0  0  0  0  0  0  0  0
   59.5153   29.2370   50.3409 O   0  0  0  0  0  0  0  0  0  0  0  0
   61.7664   30.9572   49.9859 C   0  0  0  0  0  0  0  0  0  0  0  0
   61.6330   31.5646   48.5871 C   0  0  0  0  0  0  0  0  0  0  0  0
   58.7642   30.3219   52.2950 C   0  0  0  0  0  0  0  0  0  0  0  0
   57.3745   30.3238   52.2212 C   0  0  0  0  0  0  0  0  0  0  0  0
   56.7667   30.3925   53.7851 S   0  0  0  0  0  0  0  0  0  0  0  0
   58.2497   30.4053   54.5729 C   0  0  0  0  0  0  0  0  0  0  0  0
   59.2506   30.3482   53.6134 C   0  0  0  0  0  0  0  0  0  0  0  0
   58.8038   26.3238   45.7100 C   0  0  0  0  0  0  0  0  0  0  0  0
   58.4903   27.5935   45.3891 C   0  0  0  0  0  0  0  0  0  0  0  0
   57.6523   27.9104   44.3327 C   0  0  0  0  0  0  0  0  0  0  0  0
   57.5112   29.2823   44.3316 C   0  0  0  0  0  0  0  0  0  0  0  0
   56.6594   30.0504   43.3687 C   0  0  0  0  0  0  0  0  0  0  0  0
   58.2336   29.8312   45.3316 N   0  0  0  0  0  0  0  0  0  0  0  0
   58.8689   28.8156   45.9719 C   0  0  0  0  0  0  0  0  0  0  0  0
   59.7762   29.0120   46.9412 C   0  0  0  0  0  0  0  0  0  0  0  0
   55.7674   26.5979   46.1110 O   0  0  0  0  0  0  0  0  0  0  0  0
   56.4891   25.4185   46.2640 C   0  0  0  0  0  0  0  0  0  0  0  0
   55.9335   24.2291   46.5571 N   0  0  0  0  0  0  0  0  0  0  0  0
   57.0006   23.4008   46.5648 C   0  0  0  0  0  0  0  0  0  0  0  0
   56.8985   22.1690   46.8031 O   0  0  0  0  0  0  0  0  0  0  0  0
   58.1832   23.9924   46.2916 N   0  0  0  0  0  0  0  0  0  0  0  0
   57.8513   25.2845   46.1272 C   0  0  0  0  0  0  0  0  0  0  0  0
   54.8372   26.5959   46.2234 H   0  0  0  0  0  0  0  0  0  0  0  0
 30 31  1  0
 31 32  1  0
 32 33  1  0
 33 34  2  0
 33 35  1  0
 35 36  1  0
 36 22  1  0
 22 23  2  0
 23 24  1  0
 24 25  2  0
 25 26  1  0
 25 27  1  0
 27  1  1  0
  1  2  2  0
  2  3  1  0
  3  4  2  0
  4  5  1  0
  5  7  1  0
  7  8  2  0
  7  9  1  0
  9 10  1  0
 10 11  1  0
 11 12  1  0
 12 13  1  0
 13 14  2  0
 13 17  1  0
 17 18  2  0
 18 19  1  0
 19 20  1  0
 20 21  2  0
 12 15  1  0
 15 16  1  0
  5  6  2  0
 27 28  1  0
 28 29  2  0
 36 31  2  0
 28 23  1  0
  6  1  1  0
 16  9  1  0
 21 17  1  0
 30 37  1  0
M  CHG 1  32  -1
M  CHG 1  35  -1
M  END
> <UniqueID>
69

> <SMILES>
C=c1/c(=C\c2[n-]c(=O)[n-]c2O)cc(C)n1-c1cccc(C(=O)N2CCN(C(=O)c3ccsc3)CC2)c1

> <Energy>
175.6628108387091

> <Genealogy>
C=c1c(=Cc2[n-]c(=O)[n-]c2O)cc(C)n1-c1cccc(C(=O)N2CCN(C(=O)c3ccsc3)CC2)c1 (protonated)
C=c1/c(=C\c2[n-]c(=O)[n-]c2O)cc(C)n1-c1cccc(C(=O)N2CCN(C(=O)c3ccsc3)CC2)c1 (cis-trans isomerization)
C=c1/c(=C\c2[n-]c(=O)[n-]c2O)cc(C)n1-c1cccc(C(=O)N2CCN(C(=O)c3ccsc3)CC2)c1 (3D coordinates assigned)
C=c1/c(=C\c2[n-]c(=O)[n-]c2O)cc(C)n1-c1cccc(C(=O)N2CCN(C(=O)c3ccsc3)CC2)c1 (nonaromatic ring conformer: 175.6628108387091 kcal/mol)

> <smiles>
C=c1c(=Cc2[nH]c(=O)[nH]c2O)cc(C)n1-c1cccc(C(=O)N2CCN(C(=O)c3ccsc3)CC2)c1

> <score_type>
oracle

> <origin>
adg

> <m_score__min__energy>
-14.94

> <m_primary>
energy

> <minimizedAffinity>
-10.05480

> <minimizedRMSD>
1.27777

> <CNNscore>
0.6723942161

> <CNNaffinity>
7.5293045044

> <CNN_VS>
5.0626606941

> <CNNaffinity_variance>
0.0976690724

$$$$
74:0


 32 35  0  0  0  0  0  0  0  0999 V2000
   61.4616   31.5992   48.7374 C   0  0  0  0  0  0  0  0  0  0  0  0
   62.8526   31.4924   48.8871 C   0  0  0  0  0  0  0  0  0  0  0  0
   63.6089   32.5999   49.2731 C   0  0  0  0  0  0  0  0  0  0  0  0
   62.9847   33.8242   49.5131 C   0  0  0  0  0  0  0  0  0  0  0  0
   61.6015   33.9454   49.3640 C   0  0  0  0  0  0  0  0  0  0  0  0
   60.8259   32.8389   48.9767 C   0  0  0  0  0  0  0  0  0  0  0  0
   60.9491   30.5296   46.0199 C   0  0  0  0  0  0  0  0  0  0  0  0
   60.5361   29.9085   47.1370 C   0  0  0  0  0  0  0  0  0  0  0  0
   59.7376   28.7578   47.2189 C   0  0  0  0  0  0  0  0  0  0  0  0
   59.3887   27.8592   46.2789 C   0  0  0  0  0  0  0  0  0  0  0  0
   59.3453   28.6514   48.5449 C   0  0  0  0  0  0  0  0  0  0  0  0
   59.9739   29.6725   49.2294 C   0  0  0  0  0  0  0  0  0  0  0  0
   59.8419   29.9212   50.6996 C   0  0  0  0  0  0  0  0  0  0  0  0
   60.7004   30.4313   48.3796 N   0  0  0  0  0  0  0  0  0  0  0  0
   58.3924   26.7884   46.4533 C   0  0  0  0  0  0  0  0  0  0  0  0
   58.5935   25.6651   47.1669 N   0  0  0  0  0  0  0  0  0  0  0  0
   57.3807   25.0688   47.1561 C   0  0  0  0  0  0  0  0  0  0  0  0
   57.1648   23.9639   47.7195 O   0  0  0  0  0  0  0  0  0  0  0  0
   56.4177   25.7555   46.5063 N   0  0  0  0  0  0  0  0  0  0  0  0
   57.0730   26.8469   46.0800 C   0  0  0  0  0  0  0  0  0  0  0  0
   56.4744   27.8800   45.3693 O   0  0  0  0  0  0  0  0  0  0  0  0
   59.3657   33.0084   48.7868 C   0  0  0  0  0  0  0  0  0  0  0  0
   58.5804   32.6271   49.6965 O   0  0  0  0  0  0  0  0  0  0  0  0
   58.8262   33.5566   47.5685 N   0  0  0  0  0  0  0  0  0  0  0  0
   59.4903   34.6772   46.8850 C   0  0  0  0  0  0  0  0  0  0  0  0
   59.5488   34.4533   45.3602 C   0  0  0  0  0  0  0  0  0  0  0  0
   58.4575   33.4847   44.8249 C   0  0  0  0  0  0  0  0  0  0  0  0
   57.1915   33.6077   45.7000 C   0  0  0  0  0  0  0  0  0  0  0  0
   57.4827   33.1483   47.1371 C   0  0  0  0  0  0  0  0  0  0  0  0
   58.9708   32.0978   44.8102 N   0  0  0  0  0  0  0  0  0  0  0  0
   57.9925   31.1516   44.2640 C   0  0  0  0  0  0  0  0  0  0  0  0
   59.1975   31.8212   45.7655 H   0  0  0  0  0  0  0  0  0  0  0  0
  7  8  2  0
  8  9  1  0
  9 10  2  0
 10 15  1  0
 15 16  1  0
 16 17  1  0
 17 18  2  0
 17 19  1  0
 19 20  1  0
 20 21  1  0
  9 11  1  0
 11 12  2  0
 12 13  1  0
 12 14  1  0
 14  1  1  0
  1  2  2  0
  2  3  1  0
  3  4  2  0
  4  5  1  0
  5  6  2  0
  6 22  1  0
 22 23  2  0
 22 24  1  0
 24 25  1  0
 25 26  1  0
 26 27  1  0
 27 30  1  0
 30 31  1  0
 27 28  1  0
 28 29  1  0
 14  8  1  0
  6  1  1  0
 29 24  1  0
 20 15  2  0
 30 32  1  0
M  CHG 1  16  -1
M  CHG 1  19  -1
M  CHG 1  21  -1
M  END
> <UniqueID>
70

> <SMILES>
C=c1c(=Cc2[n-]c(=O)[n-]c2[O-])cc(C)n1-c1ccccc1C(=O)N1CCC(NC)CC1

> <Energy>
139.87337342072024

> <Genealogy>
C=c1c(=Cc2[n-]c(=O)[n-]c2[O-])cc(C)n1-c1ccccc1C(=O)N1CCC(NC)CC1 (protonated)
C=c1c(=Cc2[n-]c(=O)[n-]c2[O-])cc(C)n1-c1ccccc1C(=O)N1CCC(NC)CC1 (3D coordinates assigned)
C=c1c(=Cc2[n-]c(=O)[n-]c2[O-])cc(C)n1-c1ccccc1C(=O)N1CCC(NC)CC1 (nonaromatic ring conformer: 139.87337342072024 kcal/mol)

> <smiles>
C=c1c(=Cc2[nH]c(=O)[nH]c2O)cc(C)n1-c1ccccc1C(=O)N1CCC(NC)CC1

> <score_type>
oracle

> <origin>
adg

> <m_score__min__energy>
-16.399999999999999

> <m_primary>
energy

> <minimizedAffinity>
-6.79568

> <minimizedRMSD>
0.99934

> <CNNscore>
0.1511254311

> <CNNaffinity>
6.6046504974

> <CNN_VS>
0.9981306791

> <CNNaffinity_variance>
0.1134687588

$$$$
1:0


 23 25  0  0  0  0  0  0  0  0999 V2000
   56.6036   29.3770   43.6956 C   0  0  0  0  0  0  0  0  0  0  0  0
   57.3718   29.3406   44.7870 C   0  0  0  0  0  0  0  0  0  0  0  0
   57.5804   30.4374   45.5430 N   0  0  0  0  0  0  0  0  0  0  0  0
   58.2973   30.0972   46.6028 N   0  0  0  0  0  0  0  0  0  0  0  0
   58.5526   28.7799   46.5388 C   0  0  0  0  0  0  0  0  0  0  0  0
   57.9987   28.2438   45.3869 C   0  0  0  0  0  0  0  0  0  0  0  0
   58.0968   26.9538   45.0067 C   0  0  0  0  0  0  0  0  0  0  0  0
   57.6160   25.8004   45.7882 C   0  0  0  0  0  0  0  0  0  0  0  0
   56.2779   25.7145   46.2058 C   0  0  0  0  0  0  0  0  0  0  0  0
   55.3784   26.7365   45.9218 O   0  0  0  0  0  0  0  0  0  0  0  0
   55.8503   24.6215   46.8879 N   0  0  0  0  0  0  0  0  0  0  0  0
   56.6939   23.5938   47.1646 C   0  0  0  0  0  0  0  0  0  0  0  0
   56.1519   22.2940   47.9884 S   0  0  0  0  0  0  0  0  0  0  0  0
   57.9847   23.6417   46.7455 N   0  0  0  0  0  0  0  0  0  0  0  0
   58.4603   24.7137   46.0595 C   0  0  0  0  0  0  0  0  0  0  0  0
   59.6625   24.7225   45.6809 O   0  0  0  0  0  0  0  0  0  0  0  0
   59.5490   27.9172   47.7569 S   0  0  0  0  0  0  0  0  0  0  0  0
   59.9143   29.4279   48.6516 C   0  0  0  0  0  0  0  0  0  0  0  0
   59.1461   29.7850   49.7678 C   0  0  0  0  0  0  0  0  0  0  0  0
   59.4234   30.9688   50.4586 C   0  0  0  0  0  0  0  0  0  0  0  0
   60.4681   31.7965   50.0374 C   0  0  0  0  0  0  0  0  0  0  0  0
   61.2404   31.4395   48.9270 C   0  0  0  0  0  0  0  0  0  0  0  0
   60.9660   30.2559   48.2368 C   0  0  0  0  0  0  0  0  0  0  0  0
  1  2  2  0
  2  3  1  0
  3  4  1  0
  4  5  2  0
  5 17  1  0
 17 18  1  0
 18 19  2  0
 19 20  1  0
 20 21  2  0
 21 22  1  0
 22 23  2  0
  5  6  1  0
  6  7  2  0
  7  8  1  0
  8  9  2  0
  9 10  1  0
  9 11  1  0
 11 12  1  0
 12 13  2  0
 12 14  1  0
 14 15  1  0
 15 16  2  0
  6  2  1  0
 15  8  1  0
 23 18  1  0
M  CHG 1   3  -1
M  CHG 1  10  -1
M  CHG 1  11  -1
M  CHG 1  14  -1
M  END
> <UniqueID>
2

> <SMILES>
C=c1[n-]nc(Sc2ccccc2)/c1=C/c1c([O-])[n-]c(=S)[n-]c1=O

> <Energy>
74.27010773029554

> <Genealogy>
C=c1[n-]nc(Sc2ccccc2)c1=Cc1c([O-])[n-]c(=S)[n-]c1=O (protonated)
C=c1[n-]nc(Sc2ccccc2)/c1=C/c1c([O-])[n-]c(=S)[n-]c1=O (cis-trans isomerization)
C=c1[n-]nc(Sc2ccccc2)/c1=C/c1c([O-])[n-]c(=S)[n-]c1=O (3D coordinates assigned)
C=c1[n-]nc(Sc2ccccc2)/c1=C/c1c([O-])[n-]c(=S)[n-]c1=O (optimized conformer: 74.27010773029554 kcal/mol)

> <smiles>
C=c1[nH]nc(Sc2ccccc2)c1=Cc1c(O)[nH]c(=S)[nH]c1=O

> <score_type>
oracle

> <origin>
adg

> <m_score__min__energy>
-15.83

> <m_primary>
energy

> <minimizedAffinity>
-5.91430

> <minimizedRMSD>
1.11749

> <CNNscore>
0.2281381339

> <CNNaffinity>
6.0151600838

> <CNN_VS>
1.3722873926

> <CNNaffinity_variance>
0.3170913756

$$$$
4:0


 38 41  0  0  0  0  0  0  0  0999 V2000
   60.2521   30.0619   50.4993 C   0  0  0  0  0  0  0  0  0  0  0  0
   59.0085   29.8869   51.0136 N   0  0  0  0  0  0  0  0  0  0  0  0
   58.0908   30.8856   50.9922 C   0  0  0  0  0  0  0  0  0  0  0  0
   56.9398   30.6923   51.4602 O   0  0  0  0  0  0  0  0  0  0  0  0
   58.4131   32.0923   50.4646 N   0  0  0  0  0  0  0  0  0  0  0  0
   59.6482   32.3383   49.9514 C   0  0  0  0  0  0  0  0  0  0  0  0
   60.6107   31.3046   49.9445 C   0  0  0  0  0  0  0  0  0  0  0  0
   61.9569   31.5104   49.3731 C   0  0  0  0  0  0  0  0  0  0  0  0
   62.1313   31.2601   48.1481 O   0  0  0  0  0  0  0  0  0  0  0  0
   63.0561   31.9927   50.1767 N   0  0  0  0  0  0  0  0  0  0  0  0
   64.3674   32.2007   49.5463 C   0  0  0  0  0  0  0  0  0  0  0  0
   65.2079   33.1880   50.3582 C   0  0  0  0  0  0  0  0  0  0  0  0
   65.2569   32.7992   51.7178 O   0  0  0  0  0  0  0  0  0  0  0  0
   63.9595   32.9074   52.2839 C   0  0  0  0  0  0  0  0  0  0  0  0
   62.9999   31.9007   51.6452 C   0  0  0  0  0  0  0  0  0  0  0  0
   61.4240   28.7006   50.6052 S   0  0  0  0  0  0  0  0  0  0  0  0
   60.3178   27.4676   49.8333 C   0  0  0  0  0  0  0  0  0  0  0  0
   58.8703   28.5324   48.0282 N   0  0  0  0  0  0  0  0  0  0  0  0
   60.0507   27.7898   48.3927 C   0  0  0  0  0  0  0  0  0  0  0  0
   60.8858   27.4494   47.5115 O   0  0  0  0  0  0  0  0  0  0  0  0
   58.2414   28.7978   48.7377 H   0  0  0  0  0  0  0  0  0  0  0  0
   57.7428   28.1072   45.8421 C   0  0  0  0  0  0  0  0  0  0  0  0
   57.4293   28.5728   44.5515 C   0  0  0  0  0  0  0  0  0  0  0  0
   57.9627   29.7707   44.0764 C   0  0  0  0  0  0  0  0  0  0  0  0
   58.8173   30.5195   44.8806 C   0  0  0  0  0  0  0  0  0  0  0  0
   59.1228   30.0850   46.1698 C   0  0  0  0  0  0  0  0  0  0  0  0
   58.5748   28.9005   46.6736 C   0  0  0  0  0  0  0  0  0  0  0  0
   55.8611   26.4446   46.1157 N   0  0  0  0  0  0  0  0  0  0  0  0
   57.2428   26.7770   46.2658 C   0  0  0  0  0  0  0  0  0  0  0  0
   58.0332   25.9191   46.7434 O   0  0  0  0  0  0  0  0  0  0  0  0
   55.5340   25.5602   46.3985 H   0  0  0  0  0  0  0  0  0  0  0  0
   59.9170   33.6941   49.3535 C   0  0  0  0  0  0  0  0  0  0  0  0
   59.4172   33.7495   47.9367 C   0  0  0  0  0  0  0  0  0  0  0  0
   60.2402   34.2554   46.9163 C   0  0  0  0  0  0  0  0  0  0  0  0
   59.7663   34.3403   45.6046 C   0  0  0  0  0  0  0  0  0  0  0  0
   58.4680   33.9235   45.3021 C   0  0  0  0  0  0  0  0  0  0  0  0
   57.6457   33.4132   46.3095 C   0  0  0  0  0  0  0  0  0  0  0  0
   58.1175   33.3238   47.6222 C   0  0  0  0  0  0  0  0  0  0  0  0
 28 29  1  0
 29 30  2  0
 29 22  1  0
 22 23  2  0
 23 24  1  0
 24 25  2  0
 25 26  1  0
 26 27  2  0
 27 18  1  0
 18 19  1  0
 19 20  2  0
 19 17  1  0
 17 16  1  0
 16  1  1  0
  1  2  1  0
  2  3  1  0
  3  4  2  0
  3  5  1  0
  5  6  2  0
  6 32  1  0
 32 33  1  0
 33 34  2  0
 34 35  1  0
 35 36  2  0
 36 37  1  0
 37 38  2  0
  6  7  1  0
  7  8  1  0
  8  9  2  0
  8 10  1  0
 10 11  1  0
 11 12  1  0
 12 13  1  0
 13 14  1  0
 14 15  1  0
 27 22  1  0
  7  1  2  0
 15 10  1  0
 38 33  1  0
 28 31  1  0
 18 21  1  0
M  CHG 1   2  -1
M  CHG 1  28  -1
M  END
> <UniqueID>
5

> <SMILES>
[NH-]C(=O)c1ccccc1NC(=O)CSc1[n-]c(=O)nc(Cc2ccccc2)c1C(=O)N1CCOCC1

> <Energy>
74.52437478178919

> <Genealogy>
[NH-]C(=O)c1ccccc1NC(=O)CSc1[n-]c(=O)nc(Cc2ccccc2)c1C(=O)N1CCOCC1 (protonated)
[NH-]C(=O)c1ccccc1NC(=O)CSc1[n-]c(=O)nc(Cc2ccccc2)c1C(=O)N1CCOCC1 (3D coordinates assigned)
[NH-]C(=O)c1ccccc1NC(=O)CSc1[n-]c(=O)nc(Cc2ccccc2)c1C(=O)N1CCOCC1 (nonaromatic ring conformer: 74.52437478178919 kcal/mol)

> <smiles>
NC(=O)c1ccccc1NC(=O)CSc1[nH]c(=O)nc(Cc2ccccc2)c1C(=O)N1CCOCC1

> <score_type>
oracle

> <origin>
adg

> <m_score__min__energy>
-14.5

> <m_primary>
energy

> <minimizedAffinity>
-7.37867

> <minimizedRMSD>
0.63487

> <CNNscore>
0.5451402664

> <CNNaffinity>
6.5719184875

> <CNN_VS>
3.5826172829

> <CNNaffinity_variance>
0.7928661704

$$$$
14:0


 36 39  0  0  0  0  0  0  0  0999 V2000
   59.7115   30.3006   47.1539 C   0  0  0  0  0  0  0  0  0  0  0  0
   60.6994   31.1987   46.7350 C   0  0  0  0  0  0  0  0  0  0  0  0
   61.3329   32.0319   47.6620 C   0  0  0  0  0  0  0  0  0  0  0  0
   60.9939   31.9649   49.0254 C   0  0  0  0  0  0  0  0  0  0  0  0
   60.0049   31.0569   49.4409 C   0  0  0  0  0  0  0  0  0  0  0  0
   59.3678   30.2289   48.5117 C   0  0  0  0  0  0  0  0  0  0  0  0
   58.4245   29.3500   48.9354 F   0  0  0  0  0  0  0  0  0  0  0  0
   61.6524   32.8618   50.0016 C   0  0  0  0  0  0  0  0  0  0  0  0
   61.1984   34.0277   50.1745 O   0  0  0  0  0  0  0  0  0  0  0  0
   62.7860   32.4221   50.7715 N   0  0  0  0  0  0  0  0  0  0  0  0
   63.9505   31.8378   50.1029 C   0  0  0  0  0  0  0  0  0  0  0  0
   65.0578   32.8884   50.0052 C   0  0  0  0  0  0  0  0  0  0  0  0
   65.2895   33.5342   51.3141 N   0  0  0  0  0  0  0  0  0  0  0  0
   66.5993   34.0297   51.6925 C   0  0  0  0  0  0  0  0  0  0  0  0
   66.7081   34.8253   52.6661 O   0  0  0  0  0  0  0  0  0  0  0  0
   64.1106   34.0250   52.0518 C   0  0  0  0  0  0  0  0  0  0  0  0
   63.0202   32.9527   52.1143 C   0  0  0  0  0  0  0  0  0  0  0  0
   67.8653   33.6454   50.9649 C   0  0  0  0  0  0  0  0  0  0  0  0
   68.7575   32.6988   51.7991 C   0  0  0  0  0  0  0  0  0  0  0  0
   67.8865   31.7917   52.6760 C   0  0  0  0  0  0  0  0  0  0  0  0
   69.7488   33.4819   52.6741 C   0  0  0  0  0  0  0  0  0  0  0  0
   59.6504   27.3432   47.0672 C   0  0  0  0  0  0  0  0  0  0  0  0
   59.0812   28.1081   46.1246 C   0  0  0  0  0  0  0  0  0  0  0  0
   58.3080   27.6826   45.0307 C   0  0  0  0  0  0  0  0  0  0  0  0
   58.0907   26.4521   44.5264 C   0  0  0  0  0  0  0  0  0  0  0  0
   57.7520   28.8261   44.4807 C   0  0  0  0  0  0  0  0  0  0  0  0
   58.2461   29.8972   45.1958 C   0  0  0  0  0  0  0  0  0  0  0  0
   57.9193   31.3344   44.9248 C   0  0  0  0  0  0  0  0  0  0  0  0
   59.0502   29.4635   46.1910 N   0  0  0  0  0  0  0  0  0  0  0  0
   57.5488   25.2999   45.2651 C   0  0  0  0  0  0  0  0  0  0  0  0
   58.2076   24.1368   45.4131 N   0  0  0  0  0  0  0  0  0  0  0  0
   57.4232   23.4384   46.2624 C   0  0  0  0  0  0  0  0  0  0  0  0
   57.7040   22.2702   46.6367 O   0  0  0  0  0  0  0  0  0  0  0  0
   56.3245   24.0945   46.6911 N   0  0  0  0  0  0  0  0  0  0  0  0
   56.4256   25.2756   46.0635 C   0  0  0  0  0  0  0  0  0  0  0  0
   55.5281   26.3209   46.2405 O   0  0  0  0  0  0  0  0  0  0  0  0
 22 23  2  0
 23 24  1  0
 24 25  2  0
 25 30  1  0
 30 31  1  0
 31 32  1  0
 32 33  2  0
 32 34  1  0
 34 35  1  0
 35 36  1  0
 24 26  1  0
 26 27  2  0
 27 28  1  0
 27 29  1  0
 29  1  1  0
  1  2  2  0
  2  3  1  0
  3  4  2  0
  4  8  1  0
  8  9  2  0
  8 10  1  0
 10 11  1  0
 11 12  1  0
 12 13  1  0
 13 14  1  0
 14 15  2  0
 14 18  1  0
 18 19  1  0
 19 20  1  0
 19 21  1  0
 13 16  1  0
 16 17  1  0
  4  5  1  0
  5  6  2  0
  6  7  1  0
 29 23  1  0
  6  1  1  0
 35 30  2  0
 17 10  1  0
M  CHG 1  31  -1
M  CHG 1  34  -1
M  CHG 1  36  -1
M  END
> <UniqueID>
15

> <SMILES>
C=c1c(=Cc2[n-]c(=O)[n-]c2[O-])cc(C)n1-c1ccc(C(=O)N2CCN(C(=O)CC(C)C)CC2)cc1F

> <Energy>
142.03529877440232

> <Genealogy>
C=c1c(=Cc2[n-]c(=O)[n-]c2[O-])cc(C)n1-c1ccc(C(=O)N2CCN(C(=O)CC(C)C)CC2)cc1F (protonated)
C=c1c(=Cc2[n-]c(=O)[n-]c2[O-])cc(C)n1-c1ccc(C(=O)N2CCN(C(=O)CC(C)C)CC2)cc1F (3D coordinates assigned)
C=c1c(=Cc2[n-]c(=O)[n-]c2[O-])cc(C)n1-c1ccc(C(=O)N2CCN(C(=O)CC(C)C)CC2)cc1F (nonaromatic ring conformer: 142.03529877440232 kcal/mol)

> <smiles>
C=c1c(=Cc2[nH]c(=O)[nH]c2O)cc(C)n1-c1ccc(C(=O)N2CCN(C(=O)CC(C)C)CC2)cc1F

> <score_type>
oracle

> <origin>
adg

> <m_score__min__energy>
-15.859999999999999

> <m_primary>
energy

> <minimizedAffinity>
-8.61685

> <minimizedRMSD>
0.76786

> <CNNscore>
0.2038237154

> <CNNaffinity>
6.8799705505

> <CNN_VS>
1.4023011923

> <CNNaffinity_variance>
0.2259553671

$$$$
23:0


 29 31  0  0  0  0  0  0  0  0999 V2000
   58.7808   31.4560   46.6830 C   0  0  0  0  0  0  0  0  0  0  0  0
   58.6072   32.7082   47.2831 C   0  0  0  0  0  0  0  0  0  0  0  0
   58.7883   32.8678   48.6604 C   0  0  0  0  0  0  0  0  0  0  0  0
   59.1505   31.7715   49.4534 C   0  0  0  0  0  0  0  0  0  0  0  0
   59.3200   30.5142   48.8596 C   0  0  0  0  0  0  0  0  0  0  0  0
   59.1397   30.3547   47.4834 C   0  0  0  0  0  0  0  0  0  0  0  0
   59.3556   31.9475   51.1947 S   0  0  0  0  0  0  0  0  0  0  0  0
   59.7305   30.6291   51.8139 O   0  0  0  0  0  0  0  0  0  0  0  0
   58.0565   32.4048   51.7952 O   0  0  0  0  0  0  0  0  0  0  0  0
   60.5871   33.1240   51.5333 N   0  0  0  0  0  0  0  0  0  0  0  0
   61.9048   32.5431   51.2961 C   0  0  0  0  0  0  0  0  0  0  0  0
   62.2746   32.7330   49.8535 C   0  0  0  0  0  0  0  0  0  0  0  0
   62.2397   34.0146   49.2772 C   0  0  0  0  0  0  0  0  0  0  0  0
   62.6174   34.1971   47.9437 C   0  0  0  0  0  0  0  0  0  0  0  0
   63.0446   33.1061   47.1813 C   0  0  0  0  0  0  0  0  0  0  0  0
   63.0980   31.8317   47.7514 C   0  0  0  0  0  0  0  0  0  0  0  0
   62.7205   31.6450   49.0857 C   0  0  0  0  0  0  0  0  0  0  0  0
   58.5911   31.3505   45.2983 O   0  0  0  0  0  0  0  0  0  0  0  0
   58.4066   30.1212   44.6008 C   0  0  0  0  0  0  0  0  0  0  0  0
   56.0548   30.4134   44.4879 O   0  0  0  0  0  0  0  0  0  0  0  0
   56.9988   29.6399   44.7993 C   0  0  0  0  0  0  0  0  0  0  0  0
   56.6677   28.3353   45.3124 N   0  0  0  0  0  0  0  0  0  0  0  0
   57.4563   27.3732   45.7077 C   0  0  0  0  0  0  0  0  0  0  0  0
   58.8111   27.5156   45.7099 N   0  0  0  0  0  0  0  0  0  0  0  0
   59.6444   26.5197   46.1131 C   0  0  0  0  0  0  0  0  0  0  0  0
   59.1172   25.3021   46.5443 C   0  0  0  0  0  0  0  0  0  0  0  0
   57.7335   25.1234   46.5559 C   0  0  0  0  0  0  0  0  0  0  0  0
   56.8942   26.1598   46.1358 C   0  0  0  0  0  0  0  0  0  0  0  0
   55.5144   25.9796   46.1450 O   0  0  0  0  0  0  0  0  0  0  0  0
 20 21  2  0
 21 19  1  0
 19 18  1  0
 18  1  1  0
  1  2  2  0
  2  3  1  0
  3  4  2  0
  4  7  1  0
  7  8  2  0
  7  9  2  0
  7 10  1  0
 10 11  1  0
 11 12  1  0
 12 13  2  0
 13 14  1  0
 14 15  2  0
 15 16  1  0
 16 17  2  0
  4  5  1  0
  5  6  2  0
 21 22  1  0
 22 23  2  0
 23 24  1  0
 24 25  1  0
 25 26  2  0
 26 27  1  0
 27 28  2  0
 28 29  1  0
  6  1  1  0
 28 23  1  0
 17 12  1  0
M  CHG 1  10  -1
M  CHG 1  24  -1
M  CHG 1  29  -1
M  END
> <UniqueID>
23

> <SMILES>
O=C(COc1ccc(S(=O)(=O)[N-]Cc2ccccc2)cc1)N=c1[n-]cccc1[O-]

> <Energy>
49.28780877501555

> <Genealogy>
O=C(COc1ccc(S(=O)(=O)[N-]Cc2ccccc2)cc1)N=c1[n-]cccc1[O-] (protonated)
O=C(COc1ccc(S(=O)(=O)[N-]Cc2ccccc2)cc1)N=c1[n-]cccc1[O-] (3D coordinates assigned)
O=C(COc1ccc(S(=O)(=O)[N-]Cc2ccccc2)cc1)N=c1[n-]cccc1[O-] (optimized conformer: 49.28780877501555 kcal/mol)

> <smiles>
O=C(COc1ccc(S(=O)(=O)NCc2ccccc2)cc1)N=c1[nH]cccc1O

> <score_type>
oracle

> <origin>
adg

> <m_score__min__energy>
-14.56

> <m_primary>
energy

> <minimizedAffinity>
-6.93349

> <minimizedRMSD>
0.92019

> <CNNscore>
0.4726932645

> <CNNaffinity>
6.3166441917

> <CNN_VS>
2.9858350754

> <CNNaffinity_variance>
0.0382854231

$$$$
24:0


 34 37  0  0  0  0  0  0  0  0999 V2000
   60.2514   31.1931   52.9636 C   0  0  0  0  0  0  0  0  0  0  0  0
   59.3510   32.2122   53.3276 C   0  0  0  0  0  0  0  0  0  0  0  0
   58.0222   31.9209   53.6464 C   0  0  0  0  0  0  0  0  0  0  0  0
   57.5588   30.6013   53.6047 C   0  0  0  0  0  0  0  0  0  0  0  0
   58.4376   29.5768   53.2340 C   0  0  0  0  0  0  0  0  0  0  0  0
   58.0019   28.2923   53.1519 F   0  0  0  0  0  0  0  0  0  0  0  0
   59.7708   29.8662   52.9302 C   0  0  0  0  0  0  0  0  0  0  0  0
   56.2017   30.2996   53.9800 N   0  0  0  0  0  0  0  0  0  0  0  0
   55.8036   29.8298   55.1844 C   0  0  0  0  0  0  0  0  0  0  0  0
   56.7134   29.5427   56.3418 C   0  0  0  0  0  0  0  0  0  0  0  0
   54.4313   29.6835   55.2152 C   0  0  0  0  0  0  0  0  0  0  0  0
   53.9590   30.1031   53.9809 C   0  0  0  0  0  0  0  0  0  0  0  0
   52.6670   30.1776   53.6099 C   0  0  0  0  0  0  0  0  0  0  0  0
   55.0817   30.4819   53.2362 C   0  0  0  0  0  0  0  0  0  0  0  0
   55.0849   30.9259   51.9712 C   0  0  0  0  0  0  0  0  0  0  0  0
   52.2356   30.4055   52.2198 C   0  0  0  0  0  0  0  0  0  0  0  0
   52.3555   29.4896   51.2401 N   0  0  0  0  0  0  0  0  0  0  0  0
   51.8034   30.1065   50.1711 C   0  0  0  0  0  0  0  0  0  0  0  0
   51.7413   29.5674   49.0359 O   0  0  0  0  0  0  0  0  0  0  0  0
   51.3209   31.3453   50.4165 N   0  0  0  0  0  0  0  0  0  0  0  0
   51.5957   31.5162   51.7187 C   0  0  0  0  0  0  0  0  0  0  0  0
   51.2328   32.6469   52.4429 O   0  0  0  0  0  0  0  0  0  0  0  0
   61.6773   31.5621   52.6707 C   0  0  0  0  0  0  0  0  0  0  0  0
   62.5066   31.4884   53.6204 O   0  0  0  0  0  0  0  0  0  0  0  0
   64.1051   32.3759   48.9855 O   0  0  0  0  0  0  0  0  0  0  0  0
   62.7623   32.7174   48.7176 C   0  0  0  0  0  0  0  0  0  0  0  0
   62.6593   33.2201   47.2646 C   0  0  0  0  0  0  0  0  0  0  0  0
   61.8479   31.4865   48.9155 C   0  0  0  0  0  0  0  0  0  0  0  0
   61.9759   30.9257   50.3447 C   0  0  0  0  0  0  0  0  0  0  0  0
   62.1653   31.9857   51.3695 N   0  0  0  0  0  0  0  0  0  0  0  0
   61.6507   33.3210   50.9837 C   0  0  0  0  0  0  0  0  0  0  0  0
   62.3351   33.8484   49.6944 C   0  0  0  0  0  0  0  0  0  0  0  0
   64.3857   31.6700   48.3823 H   0  0  0  0  0  0  0  0  0  0  0  0
   62.4816   31.6356   52.2336 H   0  0  0  0  0  0  0  0  0  0  0  0
 26 25  1  0
 26 27  1  0
 26 28  1  0
 28 29  1  0
 29 30  1  0
 30 23  1  0
 23 24  2  0
 23  1  1  0
  1  2  2  0
  2  3  1  0
  3  4  2  0
  4  8  1  0
  8  9  1  0
  9 10  1  0
  9 11  2  0
 11 12  1  0
 12 13  2  0
 13 16  1  0
 16 17  1  0
 17 18  1  0
 18 19  2  0
 18 20  1  0
 20 21  1  0
 21 22  1  0
 12 14  1  0
 14 15  2  0
  4  5  1  0
  5  6  1  0
  5  7  2  0
 30 31  1  0
 31 32  1  0
 32 26  1  0
  7  1  1  0
 14  8  1  0
 21 16  2  0
 25 33  1  0
 30 34  1  0
M  CHG 1  17  -1
M  CHG 1  20  -1
M  CHG 1  22  -1
M  CHG 1  30   1
M  END
> <UniqueID>
24

> <SMILES>
C=c1/c(=C/c2[n-]c(=O)[n-]c2[O-])cc(C)n1-c1ccc(C(=O)[NH+]2CCC(C)(O)CC2)cc1F

> <Energy>
145.60895459543298

> <Genealogy>
C=c1c(=Cc2[n-]c(=O)[n-]c2[O-])cc(C)n1-c1ccc(C(=O)[NH+]2CCC(C)(O)CC2)cc1F (protonated)
C=c1/c(=C/c2[n-]c(=O)[n-]c2[O-])cc(C)n1-c1ccc(C(=O)[NH+]2CCC(C)(O)CC2)cc1F (cis-trans isomerization)
C=c1/c(=C/c2[n-]c(=O)[n-]c2[O-])cc(C)n1-c1ccc(C(=O)[NH+]2CCC(C)(O)CC2)cc1F (3D coordinates assigned)
C=c1/c(=C/c2[n-]c(=O)[n-]c2[O-])cc(C)n1-c1ccc(C(=O)[NH+]2CCC(C)(O)CC2)cc1F (nonaromatic ring conformer: 145.60895459543298 kcal/mol)

> <smiles>
C=c1c(=Cc2[nH]c(=O)[nH]c2O)cc(C)n1-c1ccc(C(=O)N2CCC(C)(O)CC2)cc1F

> <score_type>
oracle

> <origin>
adg

> <m_score__min__energy>
-15.210000000000001

> <m_primary>
energy

> <minimizedAffinity>
-6.43429

> <minimizedRMSD>
0.79076

> <CNNscore>
0.0825499892

> <CNNaffinity>
5.0761427879

> <CNN_VS>
0.4190355241

> <CNNaffinity_variance>
0.4240338802

$$$$
27:0


 40 44  0  0  0  0  0  0  0  0999 V2000
   59.3085   29.0862   47.2805 C   0  0  0  0  0  0  0  0  0  0  0  0
   60.1798   28.1784   47.3497 O   0  0  0  0  0  0  0  0  0  0  0  0
   59.2231   30.0650   48.3237 N   0  0  0  0  0  0  0  0  0  0  0  0
   58.5161   30.7492   48.2874 H   0  0  0  0  0  0  0  0  0  0  0  0
   57.9377   28.0744   45.3497 C   0  0  0  0  0  0  0  0  0  0  0  0
   57.1263   28.5490   44.3857 N   0  0  0  0  0  0  0  0  0  0  0  0
   57.0843   29.8741   44.6329 C   0  0  0  0  0  0  0  0  0  0  0  0
   56.4096   30.6737   43.9333 O   0  0  0  0  0  0  0  0  0  0  0  0
   57.8263   30.2747   45.6844 N   0  0  0  0  0  0  0  0  0  0  0  0
   58.3748   29.1315   46.1382 C   0  0  0  0  0  0  0  0  0  0  0  0
   58.3220   26.6270   45.4465 C   0  0  0  0  0  0  0  0  0  0  0  0
   57.9224   25.4781   47.5092 O   0  0  0  0  0  0  0  0  0  0  0  0
   57.4398   25.9219   46.4304 C   0  0  0  0  0  0  0  0  0  0  0  0
   56.0598   25.7131   46.1187 N   0  0  0  0  0  0  0  0  0  0  0  0
   55.4001   24.4209   46.2440 C   0  0  0  0  0  0  0  0  0  0  0  0
   56.0126   23.4391   45.2833 C   0  0  0  0  0  0  0  0  0  0  0  0
   56.7795   22.3676   45.7725 C   0  0  0  0  0  0  0  0  0  0  0  0
   57.3275   21.4305   44.8884 C   0  0  0  0  0  0  0  0  0  0  0  0
   57.1131   21.5564   43.5120 C   0  0  0  0  0  0  0  0  0  0  0  0
   56.3419   22.6130   43.0195 C   0  0  0  0  0  0  0  0  0  0  0  0
   55.7903   23.5513   43.8989 C   0  0  0  0  0  0  0  0  0  0  0  0
   60.1467   30.0668   49.4177 C   0  0  0  0  0  0  0  0  0  0  0  0
   59.8599   29.2926   50.5505 C   0  0  0  0  0  0  0  0  0  0  0  0
   60.7955   29.1751   51.5899 C   0  0  0  0  0  0  0  0  0  0  0  0
   62.0063   29.8785   51.5093 C   0  0  0  0  0  0  0  0  0  0  0  0
   62.2801   30.6849   50.4021 C   0  0  0  0  0  0  0  0  0  0  0  0
   61.3597   30.7855   49.3465 C   0  0  0  0  0  0  0  0  0  0  0  0
   60.4902   28.3462   52.7717 C   0  0  0  0  0  0  0  0  0  0  0  0
   59.6978   28.7914   53.6446 O   0  0  0  0  0  0  0  0  0  0  0  0
   61.0677   27.0386   52.9357 N   0  0  0  0  0  0  0  0  0  0  0  0
   61.0955   26.3464   54.2143 C   0  0  0  0  0  0  0  0  0  0  0  0
   61.7265   24.9902   53.9284 C   0  0  0  0  0  0  0  0  0  0  0  0
   61.6056   24.7866   52.4187 C   0  0  0  0  0  0  0  0  0  0  0  0
   61.4506   26.1824   51.8247 C   0  0  0  0  0  0  0  0  0  0  0  0
   61.6267   31.6920   48.2602 N   0  0  0  0  0  0  0  0  0  0  0  0
   60.5295   32.5523   47.7924 C   0  0  0  0  0  0  0  0  0  0  0  0
   61.0430   33.6993   46.9222 C   0  0  0  0  0  0  0  0  0  0  0  0
   62.2803   34.1583   47.4182 O   0  0  0  0  0  0  0  0  0  0  0  0
   63.2796   33.2067   47.1131 C   0  0  0  0  0  0  0  0  0  0  0  0
   63.0050   31.8277   47.7573 C   0  0  0  0  0  0  0  0  0  0  0  0
 12 13  2  0
 13 11  1  0
 11  5  1  0
  5  6  1  0
  6  7  1  0
  7  8  2  0
  7  9  1  0
  9 10  1  0
 10  1  1  0
  1  2  2  0
  1  3  1  0
  3 22  1  0
 22 23  2  0
 23 24  1  0
 24 28  1  0
 28 29  2  0
 28 30  1  0
 30 31  1  0
 31 32  1  0
 32 33  1  0
 33 34  1  0
 24 25  2  0
 25 26  1  0
 26 27  2  0
 27 35  1  0
 35 36  1  0
 36 37  1  0
 37 38  1  0
 38 39  1  0
 39 40  1  0
 13 14  1  0
 14 15  1  0
 15 16  1  0
 16 17  2  0
 17 18  1  0
 18 19  2  0
 19 20  1  0
 20 21  2  0
 10  5  2  0
 27 22  1  0
 40 35  1  0
 21 16  1  0
 34 30  1  0
  3  4  1  0
M  CHG 1   6  -1
M  CHG 1   9  -1
M  CHG 1  14  -1
M  END
> <UniqueID>
27

> <SMILES>
O=C(Cc1[n-]c(=O)[n-]c1C(=O)Nc1cc(C(=O)N2CCCC2)ccc1N1CCOCC1)[N-]Cc1ccccc1

> <Energy>
115.92969639378289

> <Genealogy>
O=C(Cc1[n-]c(=O)[n-]c1C(=O)Nc1cc(C(=O)N2CCCC2)ccc1N1CCOCC1)[N-]Cc1ccccc1 (protonated)
O=C(Cc1[n-]c(=O)[n-]c1C(=O)Nc1cc(C(=O)N2CCCC2)ccc1N1CCOCC1)[N-]Cc1ccccc1 (3D coordinates assigned)
O=C(Cc1[n-]c(=O)[n-]c1C(=O)Nc1cc(C(=O)N2CCCC2)ccc1N1CCOCC1)[N-]Cc1ccccc1 (nonaromatic ring conformer: 115.92969639378289 kcal/mol)

> <smiles>
O=C(Cc1[nH]c(=O)[nH]c1C(=O)Nc1cc(C(=O)N2CCCC2)ccc1N1CCOCC1)NCc1ccccc1

> <score_type>
oracle

> <origin>
adg

> <m_score__min__energy>
-14.84

> <m_primary>
energy

> <minimizedAffinity>
-7.87851

> <minimizedRMSD>
0.79886

> <CNNscore>
0.3780711591

> <CNNaffinity>
6.8364677429

> <CNN_VS>
2.5846712589

> <CNNaffinity_variance>
0.1019386649

$$$$
29:0


 31 34  0  0  0  0  0  0  0  0999 V2000
   60.3257   29.6962   45.2550 C   0  0  0  0  0  0  0  0  0  0  0  0
   60.1228   29.2704   46.5110 C   0  0  0  0  0  0  0  0  0  0  0  0
   59.5153   28.0699   46.9034 C   0  0  0  0  0  0  0  0  0  0  0  0
   59.0257   27.1094   46.0882 C   0  0  0  0  0  0  0  0  0  0  0  0
   59.5421   28.0630   48.2939 C   0  0  0  0  0  0  0  0  0  0  0  0
   60.1415   29.2416   48.6880 C   0  0  0  0  0  0  0  0  0  0  0  0
   60.4211   29.6170   50.1118 C   0  0  0  0  0  0  0  0  0  0  0  0
   60.5072   29.9660   47.6088 N   0  0  0  0  0  0  0  0  0  0  0  0
   57.7862   26.3322   46.3176 C   0  0  0  0  0  0  0  0  0  0  0  0
   56.6041   26.5324   45.7082 N   0  0  0  0  0  0  0  0  0  0  0  0
   55.8180   25.5586   46.2163 C   0  0  0  0  0  0  0  0  0  0  0  0
   54.6115   25.4190   45.8849 O   0  0  0  0  0  0  0  0  0  0  0  0
   56.4260   24.7469   47.1056 N   0  0  0  0  0  0  0  0  0  0  0  0
   57.6718   25.2474   47.1549 C   0  0  0  0  0  0  0  0  0  0  0  0
   58.6878   24.7232   47.9486 O   0  0  0  0  0  0  0  0  0  0  0  0
   58.5209   23.9781   48.4917 H   0  0  0  0  0  0  0  0  0  0  0  0
   61.1653   31.2452   47.6327 C   0  0  0  0  0  0  0  0  0  0  0  0
   62.5567   31.3022   47.4651 C   0  0  0  0  0  0  0  0  0  0  0  0
   63.2199   32.5310   47.5003 C   0  0  0  0  0  0  0  0  0  0  0  0
   62.5005   33.7077   47.7170 C   0  0  0  0  0  0  0  0  0  0  0  0
   61.1159   33.6604   47.8902 C   0  0  0  0  0  0  0  0  0  0  0  0
   60.4320   32.4368   47.8260 C   0  0  0  0  0  0  0  0  0  0  0  0
   58.9701   32.4027   48.0242 C   0  0  0  0  0  0  0  0  0  0  0  0
   58.5145   32.1220   49.1622 O   0  0  0  0  0  0  0  0  0  0  0  0
   58.0509   32.6432   46.9505 N   0  0  0  0  0  0  0  0  0  0  0  0
   58.4095   32.7781   45.5415 C   0  0  0  0  0  0  0  0  0  0  0  0
   57.7446   31.7207   44.7194 C   0  0  0  0  0  0  0  0  0  0  0  0
   57.0153   30.6480   45.2169 C   0  0  0  0  0  0  0  0  0  0  0  0
   56.4580   29.8485   44.2120 C   0  0  0  0  0  0  0  0  0  0  0  0
   56.7320   30.2969   42.9259 C   0  0  0  0  0  0  0  0  0  0  0  0
   57.6662   31.6917   43.0393 S   0  0  0  0  0  0  0  0  0  0  0  0
  1  2  2  0
  2  3  1  0
  3  4  2  0
  4  9  1  0
  9 10  1  0
 10 11  1  0
 11 12  2  0
 11 13  1  0
 13 14  1  0
 14 15  1  0
  3  5  1  0
  5  6  2  0
  6  7  1  0
  6  8  1  0
  8 17  1  0
 17 18  2  0
 18 19  1  0
 19 20  2  0
 20 21  1  0
 21 22  2  0
 22 23  1  0
 23 24  2  0
 23 25  1  0
 25 26  1  0
 26 27  1  0
 27 28  2  0
 28 29  1  0
 29 30  2  0
 30 31  1  0
  8  2  1  0
 22 17  1  0
 31 27  1  0
 14  9  2  0
 15 16  1  0
M  CHG 1  10  -1
M  CHG 1  13  -1
M  CHG 1  25  -1
M  END
> <UniqueID>
29

> <SMILES>
C=c1c(=Cc2[n-]c(=O)[n-]c2O)cc(C)n1-c1ccccc1C(=O)[N-]Cc1cccs1

> <Energy>
147.71924138245382

> <Genealogy>
C=c1c(=Cc2[n-]c(=O)[n-]c2O)cc(C)n1-c1ccccc1C(=O)[N-]Cc1cccs1 (protonated)
C=c1c(=Cc2[n-]c(=O)[n-]c2O)cc(C)n1-c1ccccc1C(=O)[N-]Cc1cccs1 (3D coordinates assigned)
C=c1c(=Cc2[n-]c(=O)[n-]c2O)cc(C)n1-c1ccccc1C(=O)[N-]Cc1cccs1 (optimized conformer: 147.71924138245382 kcal/mol)

> <smiles>
C=c1c(=Cc2[nH]c(=O)[nH]c2O)cc(C)n1-c1ccccc1C(=O)NCc1cccs1

> <score_type>
oracle

> <origin>
adg

> <m_score__min__energy>
-14.65

> <m_primary>
energy

> <minimizedAffinity>
-6.35755

> <minimizedRMSD>
0.67017

> <CNNscore>
0.3905365169

> <CNNaffinity>
6.9933152199

> <CNN_VS>
2.7311449051

> <CNNaffinity_variance>
0.0301739518

$$$$
34:0


 28 30  0  0  0  0  0  0  0  0999 V2000
   58.6112   27.8876   45.7139 C   0  0  0  0  0  0  0  0  0  0  0  0
   58.9798   26.6050   46.0980 C   0  0  0  0  0  0  0  0  0  0  0  0
   57.8788   25.8406   46.2615 N   0  0  0  0  0  0  0  0  0  0  0  0
   56.8140   26.6193   45.9913 C   0  0  0  0  0  0  0  0  0  0  0  0
   55.4910   26.1939   46.0606 O   0  0  0  0  0  0  0  0  0  0  0  0
   57.2278   27.8819   45.6400 C   0  0  0  0  0  0  0  0  0  0  0  0
   56.4032   28.9332   45.2617 O   0  0  0  0  0  0  0  0  0  0  0  0
   59.5342   29.0011   45.4139 C   0  0  0  0  0  0  0  0  0  0  0  0
   60.5849   28.7651   44.7575 O   0  0  0  0  0  0  0  0  0  0  0  0
   60.5369   29.9522   48.0621 C   0  0  0  0  0  0  0  0  0  0  0  0
   59.7287   30.8352   47.1476 C   0  0  0  0  0  0  0  0  0  0  0  0
   59.4060   32.1388   47.5662 C   0  0  0  0  0  0  0  0  0  0  0  0
   58.6612   32.9852   46.7423 C   0  0  0  0  0  0  0  0  0  0  0  0
   58.2223   32.5391   45.4963 C   0  0  0  0  0  0  0  0  0  0  0  0
   58.5208   31.2447   45.0715 C   0  0  0  0  0  0  0  0  0  0  0  0
   59.2727   30.3787   45.8847 C   0  0  0  0  0  0  0  0  0  0  0  0
   57.8568   24.4497   46.7169 C   0  0  0  0  0  0  0  0  0  0  0  0
   58.2778   23.5119   45.6160 C   0  0  0  0  0  0  0  0  0  0  0  0
   59.5010   23.2755   45.4301 O   0  0  0  0  0  0  0  0  0  0  0  0
   57.3159   22.8296   44.7998 N   0  0  0  0  0  0  0  0  0  0  0  0
   56.1432   23.4396   44.1799 C   0  0  0  0  0  0  0  0  0  0  0  0
   54.8971   23.1229   44.9636 C   0  0  0  0  0  0  0  0  0  0  0  0
   54.9540   22.2444   46.0540 C   0  0  0  0  0  0  0  0  0  0  0  0
   53.7914   21.9614   46.7735 C   0  0  0  0  0  0  0  0  0  0  0  0
   52.6111   22.5333   46.4128 N   0  0  0  0  0  0  0  0  0  0  0  0
   52.5227   23.3846   45.3564 C   0  0  0  0  0  0  0  0  0  0  0  0
   51.4125   23.8922   45.0525 O   0  0  0  0  0  0  0  0  0  0  0  0
   53.6637   23.6928   44.6077 C   0  0  0  0  0  0  0  0  0  0  0  0
 10 11  1  0
 11 12  2  0
 12 13  1  0
 13 14  2  0
 14 15  1  0
 15 16  2  0
 16  8  1  0
  8  9  2  0
  8  1  1  0
  1  2  2  0
  2  3  1  0
  3 17  1  0
 17 18  1  0
 18 19  2  0
 18 20  1  0
 20 21  1  0
 21 22  1  0
 22 23  1  0
 23 24  2  0
 24 25  1  0
 25 26  1  0
 26 27  2  0
 26 28  1  0
  3  4  1  0
  4  5  1  0
  4  6  2  0
  6  7  1  0
 16 11  1  0
  6  1  1  0
 28 22  2  0
M  CHG 1   5  -1
M  CHG 1   7  -1
M  CHG 1  20  -1
M  CHG 1  25  -1
M  END
> <UniqueID>
33

> <SMILES>
Cc1ccccc1C(=O)c1cn(CC(=O)[N-]Cc2cc[n-]c(=O)c2)c([O-])c1[O-]

> <Energy>
79.49121216116866

> <Genealogy>
Cc1ccccc1C(=O)c1cn(CC(=O)[N-]Cc2cc[n-]c(=O)c2)c([O-])c1[O-] (protonated)
Cc1ccccc1C(=O)c1cn(CC(=O)[N-]Cc2cc[n-]c(=O)c2)c([O-])c1[O-] (3D coordinates assigned)
Cc1ccccc1C(=O)c1cn(CC(=O)[N-]Cc2cc[n-]c(=O)c2)c([O-])c1[O-] (optimized conformer: 79.49121216116866 kcal/mol)

> <smiles>
Cc1ccccc1C(=O)c1cn(CC(=O)NCc2cc[nH]c(=O)c2)c(O)c1O

> <score_type>
oracle

> <origin>
adg

> <m_score__min__energy>
-17.059999999999999

> <m_primary>
energy

> <minimizedAffinity>
-6.55983

> <minimizedRMSD>
1.06931

> <CNNscore>
0.1827412099

> <CNNaffinity>
5.7646946907

> <CNN_VS>
1.0534472466

> <CNNaffinity_variance>
0.0021105416

$$$$
45:0


 34 37  0  0  0  0  0  0  0  0999 V2000
   59.6544   31.3135   46.6907 C   0  0  0  0  0  0  0  0  0  0  0  0
   60.9358   31.5807   47.1886 C   0  0  0  0  0  0  0  0  0  0  0  0
   61.4501   32.8931   47.2002 C   0  0  0  0  0  0  0  0  0  0  0  0
   60.6379   33.9340   46.7033 C   0  0  0  0  0  0  0  0  0  0  0  0
   59.3569   33.6683   46.2136 C   0  0  0  0  0  0  0  0  0  0  0  0
   58.8607   32.3628   46.2054 C   0  0  0  0  0  0  0  0  0  0  0  0
   57.2477   32.0599   45.5741 Cl  0  0  0  0  0  0  0  0  0  0  0  0
   58.9408   29.6818   44.3179 C   0  0  0  0  0  0  0  0  0  0  0  0
   58.8520   29.2230   45.5769 C   0  0  0  0  0  0  0  0  0  0  0  0
   58.4377   27.9462   45.9794 C   0  0  0  0  0  0  0  0  0  0  0  0
   58.0352   26.9376   45.1774 C   0  0  0  0  0  0  0  0  0  0  0  0
   58.5086   27.9399   47.3709 C   0  0  0  0  0  0  0  0  0  0  0  0
   58.9581   29.1890   47.7521 C   0  0  0  0  0  0  0  0  0  0  0  0
   59.1947   29.6248   49.1664 C   0  0  0  0  0  0  0  0  0  0  0  0
   59.1702   29.9619   46.6676 N   0  0  0  0  0  0  0  0  0  0  0  0
   57.6455   25.5828   45.6272 C   0  0  0  0  0  0  0  0  0  0  0  0
   58.4346   24.4931   45.6256 N   0  0  0  0  0  0  0  0  0  0  0  0
   57.6194   23.5122   46.0684 C   0  0  0  0  0  0  0  0  0  0  0  0
   58.0051   22.3214   46.2081 O   0  0  0  0  0  0  0  0  0  0  0  0
   56.3583   23.9038   46.3454 N   0  0  0  0  0  0  0  0  0  0  0  0
   56.3908   25.2154   46.0558 C   0  0  0  0  0  0  0  0  0  0  0  0
   55.2947   26.0594   46.1815 O   0  0  0  0  0  0  0  0  0  0  0  0
   62.8275   33.1395   47.7306 C   0  0  0  0  0  0  0  0  0  0  0  0
   63.8105   32.8688   46.9832 O   0  0  0  0  0  0  0  0  0  0  0  0
   63.0557   33.7136   49.0496 N   0  0  0  0  0  0  0  0  0  0  0  0
   64.0175   32.9120   49.8340 C   0  0  0  0  0  0  0  0  0  0  0  0
   63.4179   31.5800   50.2934 C   0  0  0  0  0  0  0  0  0  0  0  0
   62.1719   31.8168   51.0283 N   0  0  0  0  0  0  0  0  0  0  0  0
   61.8088   30.9283   52.1128 C   0  0  0  0  0  0  0  0  0  0  0  0
   60.3934   30.8100   52.5983 C   0  0  0  0  0  0  0  0  0  0  0  0
   62.6963   30.2406   52.6877 O   0  0  0  0  0  0  0  0  0  0  0  0
   61.1693   32.6920   50.4065 C   0  0  0  0  0  0  0  0  0  0  0  0
   61.8132   33.9649   49.8204 C   0  0  0  0  0  0  0  0  0  0  0  0
   63.3670   33.2802   48.2222 H   0  0  0  0  0  0  0  0  0  0  0  0
  8  9  2  0
  9 10  1  0
 10 11  2  0
 11 16  1  0
 16 17  1  0
 17 18  1  0
 18 19  2  0
 18 20  1  0
 20 21  1  0
 21 22  1  0
 10 12  1  0
 12 13  2  0
 13 14  1  0
 13 15  1  0
 15  1  1  0
  1  2  2  0
  2  3  1  0
  3 23  1  0
 23 24  2  0
 23 25  1  0
 25 26  1  0
 26 27  1  0
 27 28  1  0
 28 29  1  0
 29 30  1  0
 29 31  2  0
 28 32  1  0
 32 33  1  0
  3  4  2  0
  4  5  1  0
  5  6  2  0
  6  7  1  0
 15  9  1  0
  6  1  1  0
 21 16  2  0
 33 25  1  0
 25 34  1  0
M  CHG 1  17  -1
M  CHG 1  20  -1
M  CHG 1  22  -1
M  CHG 1  25   1
M  END
> <UniqueID>
44

> <SMILES>
C=c1c(=Cc2[n-]c(=O)[n-]c2[O-])cc(C)n1-c1cc(C(=O)[NH+]2CCN(C(C)=O)CC2)ccc1Cl

> <Energy>
135.98226365921394

> <Genealogy>
C=c1c(=Cc2[n-]c(=O)[n-]c2[O-])cc(C)n1-c1cc(C(=O)[NH+]2CCN(C(C)=O)CC2)ccc1Cl (protonated)
C=c1c(=Cc2[n-]c(=O)[n-]c2[O-])cc(C)n1-c1cc(C(=O)[NH+]2CCN(C(C)=O)CC2)ccc1Cl (3D coordinates assigned)
C=c1c(=Cc2[n-]c(=O)[n-]c2[O-])cc(C)n1-c1cc(C(=O)[NH+]2CCN(C(C)=O)CC2)ccc1Cl (nonaromatic ring conformer: 135.98226365921394 kcal/mol)

> <smiles>
C=c1c(=Cc2[nH]c(=O)[nH]c2O)cc(C)n1-c1cc(C(=O)N2CCN(C(C)=O)CC2)ccc1Cl

> <score_type>
oracle

> <origin>
adg

> <m_score__min__energy>
-15.82

> <m_primary>
energy

> <minimizedAffinity>
-9.12575

> <minimizedRMSD>
1.07714

> <CNNscore>
0.2599063814

> <CNNaffinity>
7.2580552101

> <CNN_VS>
1.8864148855

> <CNNaffinity_variance>
0.0874607638

$$$$
47:0


 33 35  0  0  0  0  0  0  0  0999 V2000
   57.6575   28.1503   44.3366 C   0  0  0  0  0  0  0  0  0  0  0  0
   58.3506   27.4680   45.2633 C   0  0  0  0  0  0  0  0  0  0  0  0
   58.3634   26.0770   45.4576 C   0  0  0  0  0  0  0  0  0  0  0  0
   57.8664   25.0732   44.7076 C   0  0  0  0  0  0  0  0  0  0  0  0
   59.0495   25.8580   46.6402 C   0  0  0  0  0  0  0  0  0  0  0  0
   59.4783   27.0880   47.0899 C   0  0  0  0  0  0  0  0  0  0  0  0
   60.2941   27.3021   48.3302 C   0  0  0  0  0  0  0  0  0  0  0  0
   59.0546   28.0683   46.2591 N   0  0  0  0  0  0  0  0  0  0  0  0
   56.6979   24.2395   45.0556 C   0  0  0  0  0  0  0  0  0  0  0  0
   55.6190   24.7916   45.7603 C   0  0  0  0  0  0  0  0  0  0  0  0
   55.6059   26.1425   46.0917 O   0  0  0  0  0  0  0  0  0  0  0  0
   54.5688   24.0055   46.1157 N   0  0  0  0  0  0  0  0  0  0  0  0
   54.5486   22.6814   45.8151 C   0  0  0  0  0  0  0  0  0  0  0  0
   53.5629   21.9761   46.1517 O   0  0  0  0  0  0  0  0  0  0  0  0
   55.5928   22.1176   45.1570 N   0  0  0  0  0  0  0  0  0  0  0  0
   56.6668   22.8593   44.7797 C   0  0  0  0  0  0  0  0  0  0  0  0
   57.6303   22.2981   44.1916 O   0  0  0  0  0  0  0  0  0  0  0  0
   59.2920   29.4775   46.4308 C   0  0  0  0  0  0  0  0  0  0  0  0
   60.5546   29.9415   46.8302 C   0  0  0  0  0  0  0  0  0  0  0  0
   60.7757   31.3088   47.0170 C   0  0  0  0  0  0  0  0  0  0  0  0
   59.7350   32.2298   46.8199 C   0  0  0  0  0  0  0  0  0  0  0  0
   58.4817   31.7674   46.3905 C   0  0  0  0  0  0  0  0  0  0  0  0
   58.2613   30.4005   46.1997 C   0  0  0  0  0  0  0  0  0  0  0  0
   59.9842   33.6736   46.9975 C   0  0  0  0  0  0  0  0  0  0  0  0
   59.7863   34.4510   46.0264 O   0  0  0  0  0  0  0  0  0  0  0  0
   60.4268   34.2275   48.2423 N   0  0  0  0  0  0  0  0  0  0  0  0
   60.1133   33.7042   49.5717 C   0  0  0  0  0  0  0  0  0  0  0  0
   61.2922   32.9000   50.1305 C   0  0  0  0  0  0  0  0  0  0  0  0
   62.5710   33.5873   49.8383 N   0  0  0  0  0  0  0  0  0  0  0  0
   63.4567   32.7439   49.0012 C   0  0  0  0  0  0  0  0  0  0  0  0
   63.6381   33.3089   47.5929 C   0  0  0  0  0  0  0  0  0  0  0  0
   63.2136   34.1248   51.0622 C   0  0  0  0  0  0  0  0  0  0  0  0
   64.6089   33.5507   51.3385 C   0  0  0  0  0  0  0  0  0  0  0  0
  1  2  2  0
  2  3  1  0
  3  4  2  0
  4  9  1  0
  9 10  2  0
 10 11  1  0
 10 12  1  0
 12 13  1  0
 13 14  2  0
 13 15  1  0
 15 16  1  0
 16 17  2  0
  3  5  1  0
  5  6  2  0
  6  7  1  0
  6  8  1  0
  8 18  1  0
 18 19  2  0
 19 20  1  0
 20 21  2  0
 21 24  1  0
 24 25  2  0
 24 26  1  0
 26 27  1  0
 27 28  1  0
 28 29  1  0
 29 30  1  0
 30 31  1  0
 29 32  1  0
 32 33  1  0
 21 22  1  0
 22 23  2  0
  8  2  1  0
 23 18  1  0
 16  9  1  0
M  CHG 1  11  -1
M  CHG 1  12  -1
M  CHG 1  15  -1
M  CHG 1  26  -1
M  END
> <UniqueID>
46

> <SMILES>
C=c1/c(=C\c2c([O-])[n-]c(=O)[n-]c2=O)cc(C)n1-c1ccc(C(=O)[N-]CCN(CC)CC)cc1

> <Energy>
110.30129445692872

> <Genealogy>
C=c1c(=Cc2c([O-])[n-]c(=O)[n-]c2=O)cc(C)n1-c1ccc(C(=O)[N-]CCN(CC)CC)cc1 (protonated)
C=c1/c(=C\c2c([O-])[n-]c(=O)[n-]c2=O)cc(C)n1-c1ccc(C(=O)[N-]CCN(CC)CC)cc1 (cis-trans isomerization)
C=c1/c(=C\c2c([O-])[n-]c(=O)[n-]c2=O)cc(C)n1-c1ccc(C(=O)[N-]CCN(CC)CC)cc1 (3D coordinates assigned)
C=c1/c(=C\c2c([O-])[n-]c(=O)[n-]c2=O)cc(C)n1-c1ccc(C(=O)[N-]CCN(CC)CC)cc1 (optimized conformer: 110.30129445692872 kcal/mol)

> <smiles>
C=c1c(=Cc2c(O)[nH]c(=O)[nH]c2=O)cc(C)n1-c1ccc(C(=O)NCCN(CC)CC)cc1

> <score_type>
oracle

> <origin>
adg

> <m_score__min__energy>
-16.530000000000001

> <m_primary>
energy

> <minimizedAffinity>
-8.32998

> <minimizedRMSD>
1.01601

> <CNNscore>
0.1113397330

> <CNNaffinity>
6.6246953011

> <CNN_VS>
0.7375918031

> <CNNaffinity_variance>
0.1034016088

$$$$
67:0


 30 32  0  0  0  0  0  0  0  0999 V2000
   57.1895   30.2387   44.0981 C   0  0  0  0  0  0  0  0  0  0  0  0
   56.3928   29.9793   43.1565 O   0  0  0  0  0  0  0  0  0  0  0  0
   58.0208   29.1317   44.6767 C   0  0  0  0  0  0  0  0  0  0  0  0
   57.1880   28.2377   45.4067 O   0  0  0  0  0  0  0  0  0  0  0  0
   57.6941   27.3096   46.3214 C   0  0  0  0  0  0  0  0  0  0  0  0
   58.2499   27.6988   47.3864 O   0  0  0  0  0  0  0  0  0  0  0  0
   55.8256   22.6810   45.5163 C   0  0  0  0  0  0  0  0  0  0  0  0
   56.7471   23.8462   45.6856 C   0  0  0  0  0  0  0  0  0  0  0  0
   58.1300   23.8361   45.6383 C   0  0  0  0  0  0  0  0  0  0  0  0
   58.9223   22.7161   45.4003 O   0  0  0  0  0  0  0  0  0  0  0  0
   58.6452   25.0644   45.8538 N   0  0  0  0  0  0  0  0  0  0  0  0
   57.5810   25.8721   46.0471 C   0  0  0  0  0  0  0  0  0  0  0  0
   56.4052   25.1513   45.9521 C   0  0  0  0  0  0  0  0  0  0  0  0
   55.1149   25.6466   46.1007 O   0  0  0  0  0  0  0  0  0  0  0  0
   58.5221   21.8814   45.2555 H   0  0  0  0  0  0  0  0  0  0  0  0
   57.2465   31.5775   44.6068 N   0  0  0  0  0  0  0  0  0  0  0  0
   58.0209   32.0274   45.7285 C   0  0  0  0  0  0  0  0  0  0  0  0
   58.0482   33.3806   46.1072 C   0  0  0  0  0  0  0  0  0  0  0  0
   58.8029   33.7853   47.2119 C   0  0  0  0  0  0  0  0  0  0  0  0
   59.5282   32.8447   47.9564 C   0  0  0  0  0  0  0  0  0  0  0  0
   59.4672   31.4898   47.6022 C   0  0  0  0  0  0  0  0  0  0  0  0
   58.7100   31.0845   46.4991 C   0  0  0  0  0  0  0  0  0  0  0  0
   60.5142   33.3633   49.3246 S   0  0  0  0  0  0  0  0  0  0  0  0
   59.8205   34.4917   50.0341 O   0  0  0  0  0  0  0  0  0  0  0  0
   60.6518   32.2221   50.2938 O   0  0  0  0  0  0  0  0  0  0  0  0
   62.1086   33.8875   48.8202 N   0  0  0  0  0  0  0  0  0  0  0  0
   63.1454   33.3671   49.7194 C   0  0  0  0  0  0  0  0  0  0  0  0
   63.7519   32.1266   49.0822 C   0  0  0  0  0  0  0  0  0  0  0  0
   63.3033   32.1408   47.6357 C   0  0  0  0  0  0  0  0  0  0  0  0
   62.4343   33.3827   47.4831 C   0  0  0  0  0  0  0  0  0  0  0  0
  7  8  1  0
  8  9  2  0
  9 10  1  0
  9 11  1  0
 11 12  1  0
 12  5  1  0
  5  6  2  0
  5  4  1  0
  4  3  1  0
  3  1  1  0
  1  2  2  0
  1 16  1  0
 16 17  1  0
 17 18  2  0
 18 19  1  0
 19 20  2  0
 20 23  1  0
 23 24  2  0
 23 25  2  0
 23 26  1  0
 26 27  1  0
 27 28  1  0
 28 29  1  0
 29 30  1  0
 20 21  1  0
 21 22  2  0
 12 13  2  0
 13 14  1  0
 13  8  1  0
 22 17  1  0
 30 26  1  0
 10 15  1  0
M  CHG 1  11  -1
M  CHG 1  14  -1
M  CHG 1  16  -1
M  END
> <UniqueID>
64

> <SMILES>
Cc1c(O)[n-]c(C(=O)OCC(=O)[N-]c2ccc(S(=O)(=O)N3CCCC3)cc2)c1[O-]

> <Energy>
75.14211098293458

> <Genealogy>
Cc1c(O)[n-]c(C(=O)OCC(=O)[N-]c2ccc(S(=O)(=O)N3CCCC3)cc2)c1[O-] (protonated)
Cc1c(O)[n-]c(C(=O)OCC(=O)[N-]c2ccc(S(=O)(=O)N3CCCC3)cc2)c1[O-] (3D coordinates assigned)
Cc1c(O)[n-]c(C(=O)OCC(=O)[N-]c2ccc(S(=O)(=O)N3CCCC3)cc2)c1[O-] (nonaromatic ring conformer: 75.14211098293458 kcal/mol)

> <smiles>
Cc1c(O)[nH]c(C(=O)OCC(=O)Nc2ccc(S(=O)(=O)N3CCCC3)cc2)c1O

> <score_type>
oracle

> <origin>
adg

> <m_score__min__energy>
-15.140000000000001

> <m_primary>
energy

> <minimizedAffinity>
-8.09845

> <minimizedRMSD>
0.87199

> <CNNscore>
0.6175808907

> <CNNaffinity>
6.7802028656

> <CNN_VS>
4.1873235703

> <CNNaffinity_variance>
0.1984231472

$$$$
73:0


 26 29  0  0  0  0  0  0  0  0999 V2000
   60.8135   29.0077   45.0402 C   0  0  0  0  0  0  0  0  0  0  0  0
   60.0195   28.8961   46.1141 C   0  0  0  0  0  0  0  0  0  0  0  0
   59.1435   27.8411   46.4238 C   0  0  0  0  0  0  0  0  0  0  0  0
   58.7151   26.8015   45.6822 C   0  0  0  0  0  0  0  0  0  0  0  0
   58.7270   28.0545   47.7288 C   0  0  0  0  0  0  0  0  0  0  0  0
   59.2880   29.2454   48.1400 C   0  0  0  0  0  0  0  0  0  0  0  0
   59.1099   29.8571   49.4961 C   0  0  0  0  0  0  0  0  0  0  0  0
   60.0776   29.7492   47.1674 N   0  0  0  0  0  0  0  0  0  0  0  0
   57.8752   25.6934   46.1657 C   0  0  0  0  0  0  0  0  0  0  0  0
   58.3196   24.4474   46.4152 N   0  0  0  0  0  0  0  0  0  0  0  0
   57.1886   23.7628   46.6889 C   0  0  0  0  0  0  0  0  0  0  0  0
   57.1912   22.5413   46.9926 O   0  0  0  0  0  0  0  0  0  0  0  0
   56.0513   24.4857   46.5980 N   0  0  0  0  0  0  0  0  0  0  0  0
   56.5055   25.7022   46.2519 C   0  0  0  0  0  0  0  0  0  0  0  0
   55.6822   26.7943   46.0128 O   0  0  0  0  0  0  0  0  0  0  0  0
   60.8410   30.9641   47.2561 C   0  0  0  0  0  0  0  0  0  0  0  0
   62.1451   30.8968   47.7701 C   0  0  0  0  0  0  0  0  0  0  0  0
   62.9417   32.0389   47.8328 C   0  0  0  0  0  0  0  0  0  0  0  0
   62.4451   33.2612   47.3829 C   0  0  0  0  0  0  0  0  0  0  0  0
   61.1479   33.3460   46.8748 C   0  0  0  0  0  0  0  0  0  0  0  0
   60.3234   32.2070   46.8110 C   0  0  0  0  0  0  0  0  0  0  0  0
   58.9374   32.3537   46.2978 C   0  0  0  0  0  0  0  0  0  0  0  0
   58.0924   33.3341   46.6709 N   0  0  0  0  0  0  0  0  0  0  0  0
   56.9738   33.0911   46.0086 N   0  0  0  0  0  0  0  0  0  0  0  0
   57.1222   32.0076   45.2651 N   0  0  0  0  0  0  0  0  0  0  0  0
   58.3402   31.5193   45.4271 N   0  0  0  0  0  0  0  0  0  0  0  0
  1  2  2  0
  2  3  1  0
  3  4  2  0
  4  9  1  0
  9 10  1  0
 10 11  1  0
 11 12  2  0
 11 13  1  0
 13 14  1  0
 14 15  1  0
  3  5  1  0
  5  6  2  0
  6  7  1  0
  6  8  1  0
  8 16  1  0
 16 17  2  0
 17 18  1  0
 18 19  2  0
 19 20  1  0
 20 21  2  0
 21 22  1  0
 22 23  1  0
 23 24  2  0
 24 25  1  0
 25 26  1  0
  8  2  1  0
 21 16  1  0
 26 22  2  0
 14  9  2  0
M  CHG 1  10  -1
M  CHG 1  13  -1
M  CHG 1  15  -1
M  CHG 1  25  -1
M  END
> <UniqueID>
70

> <SMILES>
C=c1/c(=C\c2[n-]c(=O)[n-]c2[O-])cc(C)n1-c1ccccc1-c1nn[n-]n1

> <Energy>
156.57071237572623

> <Genealogy>
C=c1c(=Cc2[n-]c(=O)[n-]c2[O-])cc(C)n1-c1ccccc1-c1nn[n-]n1 (protonated)
C=c1/c(=C\c2[n-]c(=O)[n-]c2[O-])cc(C)n1-c1ccccc1-c1nn[n-]n1 (cis-trans isomerization)
C=c1/c(=C\c2[n-]c(=O)[n-]c2[O-])cc(C)n1-c1ccccc1-c1nn[n-]n1 (3D coordinates assigned)
C=c1/c(=C\c2[n-]c(=O)[n-]c2[O-])cc(C)n1-c1ccccc1-c1nn[n-]n1 (optimized conformer: 156.57071237572623 kcal/mol)

> <smiles>
C=c1c(=Cc2[nH]c(=O)[nH]c2O)cc(C)n1-c1ccccc1-c1nn[nH]n1

> <score_type>
oracle

> <origin>
adg

> <m_score__min__energy>
-17.120000000000001

> <m_primary>
energy

> <minimizedAffinity>
-8.56779

> <minimizedRMSD>
0.59932

> <CNNscore>
0.3237913549

> <CNNaffinity>
6.5616855621

> <CNN_VS>
2.1246170998

> <CNNaffinity_variance>
0.0309156999

$$$$
75:0


 32 35  0  0  0  0  0  0  0  0999 V2000
   57.8115   27.8292   44.5008 C   0  0  0  0  0  0  0  0  0  0  0  0
   58.3567   27.0602   45.4564 C   0  0  0  0  0  0  0  0  0  0  0  0
   58.3711   25.6563   45.5152 C   0  0  0  0  0  0  0  0  0  0  0  0
   57.7320   24.7308   44.7710 C   0  0  0  0  0  0  0  0  0  0  0  0
   59.2125   25.3194   46.5619 C   0  0  0  0  0  0  0  0  0  0  0  0
   59.6298   26.5018   47.1367 C   0  0  0  0  0  0  0  0  0  0  0  0
   60.5489   26.5954   48.3180 C   0  0  0  0  0  0  0  0  0  0  0  0
   59.1152   27.5569   46.4684 N   0  0  0  0  0  0  0  0  0  0  0  0
   56.4893   24.0302   45.1515 C   0  0  0  0  0  0  0  0  0  0  0  0
   55.4460   24.7303   45.7712 C   0  0  0  0  0  0  0  0  0  0  0  0
   55.5849   26.0775   46.0842 O   0  0  0  0  0  0  0  0  0  0  0  0
   54.2887   24.0893   46.0803 N   0  0  0  0  0  0  0  0  0  0  0  0
   54.1133   22.7770   45.7826 C   0  0  0  0  0  0  0  0  0  0  0  0
   53.0349   22.2021   46.0823 O   0  0  0  0  0  0  0  0  0  0  0  0
   55.0987   22.0832   45.1575 N   0  0  0  0  0  0  0  0  0  0  0  0
   56.2744   22.6777   44.8267 C   0  0  0  0  0  0  0  0  0  0  0  0
   57.1589   22.0109   44.2262 O   0  0  0  0  0  0  0  0  0  0  0  0
   59.3529   28.9428   46.7773 C   0  0  0  0  0  0  0  0  0  0  0  0
   60.1628   29.7250   45.9443 C   0  0  0  0  0  0  0  0  0  0  0  0
   60.4012   31.0687   46.2490 C   0  0  0  0  0  0  0  0  0  0  0  0
   59.8358   31.6501   47.3993 C   0  0  0  0  0  0  0  0  0  0  0  0
   59.0128   30.8618   48.2237 C   0  0  0  0  0  0  0  0  0  0  0  0
   58.7784   29.5193   47.9182 C   0  0  0  0  0  0  0  0  0  0  0  0
   60.0662   33.0791   47.7392 C   0  0  0  0  0  0  0  0  0  0  0  0
   61.1636   33.3970   48.2754 O   0  0  0  0  0  0  0  0  0  0  0  0
   59.0489   34.0908   47.5049 N   0  0  0  0  0  0  0  0  0  0  0  0
   59.5292   35.1383   46.5776 C   0  0  0  0  0  0  0  0  0  0  0  0
   59.5029   34.7016   45.1359 C   0  0  0  0  0  0  0  0  0  0  0  0
   58.6468   33.7734   44.6947 C   0  0  0  0  0  0  0  0  0  0  0  0
   57.7770   32.9708   45.6234 C   0  0  0  0  0  0  0  0  0  0  0  0
   57.7552   33.5193   47.0637 C   0  0  0  0  0  0  0  0  0  0  0  0
   59.6121   34.7129   48.0198 H   0  0  0  0  0  0  0  0  0  0  0  0
  1  2  2  0
  2  3  1  0
  3  4  2  0
  4  9  1  0
  9 10  2  0
 10 11  1  0
 10 12  1  0
 12 13  1  0
 13 14  2  0
 13 15  1  0
 15 16  1  0
 16 17  2  0
  3  5  1  0
  5  6  2  0
  6  7  1  0
  6  8  1  0
  8 18  1  0
 18 19  2  0
 19 20  1  0
 20 21  2  0
 21 24  1  0
 24 25  2  0
 26 24  1  0
 26 27  1  0
 27 28  1  0
 28 29  2  0
 29 30  1  0
 30 31  1  0
 21 22  1  0
 22 23  2  0
  8  2  1  0
 23 18  1  0
 16  9  1  0
 31 26  1  0
 26 32  1  0
M  CHG 1  11  -1
M  CHG 1  12  -1
M  CHG 1  15  -1
M  CHG 1  26   1
M  END
> <UniqueID>
72

> <SMILES>
C=c1c(=Cc2c([O-])[n-]c(=O)[n-]c2=O)cc(C)n1-c1ccc(C(=O)[N@H+]2CC=CCC2)cc1

> <Energy>
113.86053219099904

> <Genealogy>
C=c1c(=Cc2c([O-])[n-]c(=O)[n-]c2=O)cc(C)n1-c1ccc(C(=O)[NH+]2CC=CCC2)cc1 (protonated)
C=c1c(=Cc2c([O-])[n-]c(=O)[n-]c2=O)cc(C)n1-c1ccc(C(=O)[N@H+]2CC=CCC2)cc1 (chirality)
C=c1c(=Cc2c([O-])[n-]c(=O)[n-]c2=O)cc(C)n1-c1ccc(C(=O)[N@H+]2CC=CCC2)cc1 (3D coordinates assigned)
C=c1c(=Cc2c([O-])[n-]c(=O)[n-]c2=O)cc(C)n1-c1ccc(C(=O)[N@H+]2CC=CCC2)cc1 (nonaromatic ring conformer: 113.86053219099904 kcal/mol)

> <smiles>
C=c1c(=Cc2c(O)[nH]c(=O)[nH]c2=O)cc(C)n1-c1ccc(C(=O)N2CC=CCC2)cc1

> <score_type>
oracle

> <origin>
adg

> <m_score__min__energy>
-14.949999999999999

> <m_primary>
energy

> <minimizedAffinity>
-8.17791

> <minimizedRMSD>
0.63130

> <CNNscore>
0.0728058666

> <CNNaffinity>
6.2507195473

> <CNN_VS>
0.4550890625

> <CNNaffinity_variance>
0.0943618342

$$$$
81:0


 29 31  0  0  0  0  0  0  0  0999 V2000
   60.8575   28.2641   49.4459 N   0  0  0  0  0  0  0  0  0  0  0  0
   60.0622   28.0361   48.4401 C   0  0  0  0  0  0  0  0  0  0  0  0
   59.5787   26.7425   48.2209 C   0  0  0  0  0  0  0  0  0  0  0  0
   58.7066   26.5059   47.1559 C   0  0  0  0  0  0  0  0  0  0  0  0
   58.2074   25.2262   46.9418 O   0  0  0  0  0  0  0  0  0  0  0  0
   58.3398   27.5566   46.3079 C   0  0  0  0  0  0  0  0  0  0  0  0
   57.4836   27.3205   45.2353 O   0  0  0  0  0  0  0  0  0  0  0  0
   58.8591   28.8390   46.5445 C   0  0  0  0  0  0  0  0  0  0  0  0
   59.7039   29.0401   47.5894 N   0  0  0  0  0  0  0  0  0  0  0  0
   60.5947   29.1935   50.5107 C   0  0  0  0  0  0  0  0  0  0  0  0
   60.0559   28.7689   51.5666 O   0  0  0  0  0  0  0  0  0  0  0  0
   62.4431   32.4403   49.7793 C   0  0  0  0  0  0  0  0  0  0  0  0
   61.4520   33.3777   50.1112 C   0  0  0  0  0  0  0  0  0  0  0  0
   60.1984   32.9582   50.5620 C   0  0  0  0  0  0  0  0  0  0  0  0
   59.9174   31.5972   50.6899 C   0  0  0  0  0  0  0  0  0  0  0  0
   60.8922   30.6393   50.3697 C   0  0  0  0  0  0  0  0  0  0  0  0
   62.1462   31.0680   49.8965 C   0  0  0  0  0  0  0  0  0  0  0  0
   64.8978   32.8475   49.9561 C   0  0  0  0  0  0  0  0  0  0  0  0
   63.7502   32.9374   49.2810 C   0  0  0  0  0  0  0  0  0  0  0  0
   58.5307   29.9692   45.6643 C   0  0  0  0  0  0  0  0  0  0  0  0
   58.6492   29.8321   44.4187 O   0  0  0  0  0  0  0  0  0  0  0  0
   58.0957   31.2266   46.1908 N   0  0  0  0  0  0  0  0  0  0  0  0
   58.8969   32.0385   47.0998 C   0  0  0  0  0  0  0  0  0  0  0  0
   58.2933   33.4536   47.2173 C   0  0  0  0  0  0  0  0  0  0  0  0
   59.3890   34.5445   47.2885 C   0  0  0  0  0  0  0  0  0  0  0  0
   59.7001   35.1447   45.9036 C   0  0  0  0  0  0  0  0  0  0  0  0
   59.4881   34.1894   44.8849 O   0  0  0  0  0  0  0  0  0  0  0  0
   58.0998   33.9417   44.7165 C   0  0  0  0  0  0  0  0  0  0  0  0
   57.3346   33.7459   46.0486 C   0  0  0  0  0  0  0  0  0  0  0  0
 18 19  2  0
 19 12  1  0
 12 13  2  0
 13 14  1  0
 14 15  2  0
 15 16  1  0
 16 10  1  0
 10 11  2  0
 10  1  1  0
  1  2  2  0
  2  3  1  0
  3  4  2  0
  4  5  1  0
  4  6  1  0
  6  7  1  0
  6  8  2  0
  8 20  1  0
 20 21  2  0
 20 22  1  0
 22 23  1  0
 23 24  1  0
 24 25  1  0
 25 26  1  0
 26 27  1  0
 27 28  1  0
 28 29  1  0
  8  9  1  0
 16 17  2  0
 17 12  1  0
  9  2  1  0
 29 24  1  0
M  CHG 1   5  -1
M  CHG 1   7  -1
M  CHG 1   9  -1
M  CHG 1  22  -1
M  END
> <UniqueID>
78

> <SMILES>
C=Cc1cccc(C(=O)N=c2cc([O-])c([O-])c(C(=O)[N-]CC3CCOCC3)[n-]2)c1

> <Energy>
67.40914721528894

> <Genealogy>
C=Cc1cccc(C(=O)N=c2cc([O-])c([O-])c(C(=O)[N-]CC3CCOCC3)[n-]2)c1 (protonated)
C=Cc1cccc(C(=O)N=c2cc([O-])c([O-])c(C(=O)[N-]CC3CCOCC3)[n-]2)c1 (3D coordinates assigned)
C=Cc1cccc(C(=O)N=c2cc([O-])c([O-])c(C(=O)[N-]CC3CCOCC3)[n-]2)c1 (nonaromatic ring conformer: 67.40914721528894 kcal/mol)

> <smiles>
C=Cc1cccc(C(=O)N=c2cc(O)c(O)c(C(=O)NCC3CCOCC3)[nH]2)c1

> <score_type>
oracle

> <origin>
adg

> <m_score__min__energy>
-18.75

> <m_primary>
energy

> <minimizedAffinity>
-6.53441

> <minimizedRMSD>
2.35556

> <CNNscore>
0.7227934599

> <CNNaffinity>
6.8851075172

> <CNN_VS>
4.9765105247

> <CNNaffinity_variance>
0.3176496327

$$$$
88:0


 35 37  0  0  0  0  0  0  0  0999 V2000
   60.7462   29.4810   46.0757 C   0  0  0  0  0  0  0  0  0  0  0  0
   60.7097   29.6235   47.5717 C   0  0  0  0  0  0  0  0  0  0  0  0
   60.4643   28.6063   48.4850 C   0  0  0  0  0  0  0  0  0  0  0  0
   60.4391   29.1876   49.7380 C   0  0  0  0  0  0  0  0  0  0  0  0
   60.6610   30.5365   49.5455 C   0  0  0  0  0  0  0  0  0  0  0  0
   60.8405   30.8017   48.2295 N   0  0  0  0  0  0  0  0  0  0  0  0
   60.6831   31.5495   50.6181 C   0  0  0  0  0  0  0  0  0  0  0  0
   61.7524   32.1754   50.8364 O   0  0  0  0  0  0  0  0  0  0  0  0
   59.5097   31.8499   51.3971 N   0  0  0  0  0  0  0  0  0  0  0  0
   59.4858   32.9075   52.3923 C   0  0  0  0  0  0  0  0  0  0  0  0
   58.0150   33.1468   52.7122 C   0  0  0  0  0  0  0  0  0  0  0  0
   57.2498   31.9625   52.1267 C   0  0  0  0  0  0  0  0  0  0  0  0
   58.1927   31.2922   51.1371 C   0  0  0  0  0  0  0  0  0  0  0  0
   60.2493   27.1726   48.2067 C   0  0  0  0  0  0  0  0  0  0  0  0
   61.1465   26.3458   48.5305 O   0  0  0  0  0  0  0  0  0  0  0  0
   58.9962   26.6864   47.5795 C   0  0  0  0  0  0  0  0  0  0  0  0
   58.4596   25.4292   47.9220 C   0  0  0  0  0  0  0  0  0  0  0  0
   57.2752   24.9800   47.3350 C   0  0  0  0  0  0  0  0  0  0  0  0
   56.6029   25.7793   46.4063 C   0  0  0  0  0  0  0  0  0  0  0  0
   55.4476   25.2958   45.8030 O   0  0  0  0  0  0  0  0  0  0  0  0
   57.1077   27.0507   46.0798 C   0  0  0  0  0  0  0  0  0  0  0  0
   58.3088   27.4888   46.6500 C   0  0  0  0  0  0  0  0  0  0  0  0
   56.4253   27.8981   45.1506 N   0  0  0  0  0  0  0  0  0  0  0  0
   57.1617   29.3387   44.5310 S   0  0  0  0  0  0  0  0  0  0  0  0
   56.2281   29.9215   43.1311 C   0  0  0  0  0  0  0  0  0  0  0  0
   58.5823   29.0614   44.1218 O   0  0  0  0  0  0  0  0  0  0  0  0
   57.1523   30.3937   45.6013 O   0  0  0  0  0  0  0  0  0  0  0  0
   60.9314   32.1357   47.6225 C   0  0  0  0  0  0  0  0  0  0  0  0
   59.5577   32.6580   47.3512 C   0  0  0  0  0  0  0  0  0  0  0  0
   58.9029   33.2106   48.2769 O   0  0  0  0  0  0  0  0  0  0  0  0
   58.9773   32.4599   46.0565 N   0  0  0  0  0  0  0  0  0  0  0  0
   58.4668   33.4907   45.1465 C   0  0  0  0  0  0  0  0  0  0  0  0
   57.0577   33.9335   45.5823 C   0  0  0  0  0  0  0  0  0  0  0  0
   58.3853   32.8725   43.7431 C   0  0  0  0  0  0  0  0  0  0  0  0
   59.4215   34.6972   45.1128 C   0  0  0  0  0  0  0  0  0  0  0  0
  1  2  1  0
  2  3  2  0
  3 14  1  0
 14 15  2  0
 14 16  1  0
 16 17  2  0
 17 18  1  0
 18 19  2  0
 19 20  1  0
 19 21  1  0
 21 23  1  0
 23 24  1  0
 24 25  1  0
 24 26  2  0
 24 27  2  0
 21 22  2  0
  3  4  1  0
  4  5  2  0
  5  7  1  0
  7  8  2  0
  7  9  1  0
  9 10  1  0
 10 11  1  0
 11 12  1  0
 12 13  1  0
  5  6  1  0
  6 28  1  0
 28 29  1  0
 29 30  2  0
 29 31  1  0
 31 32  1  0
 32 33  1  0
 32 34  1  0
 32 35  1  0
  6  2  1  0
 22 16  1  0
 13  9  1  0
M  CHG 1  20  -1
M  CHG 1  23  -1
M  CHG 1  31  -1
M  END
> <UniqueID>
85

> <SMILES>
Cc1c(C(=O)c2ccc([O-])c([N-]S(C)(=O)=O)c2)cc(C(=O)N2CCCC2)n1CC(=O)[N-]C(C)(C)C

> <Energy>
95.88068011908166

> <Genealogy>
Cc1c(C(=O)c2ccc([O-])c([N-]S(C)(=O)=O)c2)cc(C(=O)N2CCCC2)n1CC(=O)[N-]C(C)(C)C (protonated)
Cc1c(C(=O)c2ccc([O-])c([N-]S(C)(=O)=O)c2)cc(C(=O)N2CCCC2)n1CC(=O)[N-]C(C)(C)C (3D coordinates assigned)
Cc1c(C(=O)c2ccc([O-])c([N-]S(C)(=O)=O)c2)cc(C(=O)N2CCCC2)n1CC(=O)[N-]C(C)(C)C (nonaromatic ring conformer: 95.88068011908166 kcal/mol)

> <smiles>
Cc1c(C(=O)c2ccc(O)c(NS(C)(=O)=O)c2)cc(C(=O)N2CCCC2)n1CC(=O)NC(C)(C)C

> <score_type>
oracle

> <origin>
adg

> <m_score__min__energy>
-15.66

> <m_primary>
energy

> <minimizedAffinity>
-5.23174

> <minimizedRMSD>
1.12900

> <CNNscore>
0.7551041245

> <CNNaffinity>
7.0601100922

> <CNN_VS>
5.3311181068

> <CNNaffinity_variance>
0.6653726101

$$$$
2:0


 30 33  0  0  0  0  0  0  0  0999 V2000
   57.8319   28.9762   45.2148 C   0  0  0  0  0  0  0  0  0  0  0  0
   56.8754   29.4961   44.3285 C   0  0  0  0  0  0  0  0  0  0  0  0
   56.8385   30.8652   44.0613 C   0  0  0  0  0  0  0  0  0  0  0  0
   57.7343   31.7302   44.6969 C   0  0  0  0  0  0  0  0  0  0  0  0
   58.6760   31.2352   45.6044 C   0  0  0  0  0  0  0  0  0  0  0  0
   58.7373   29.8514   45.8390 C   0  0  0  0  0  0  0  0  0  0  0  0
   57.0941   21.4756   46.8554 N   0  0  0  0  0  0  0  0  0  0  0  0
   56.9841   22.7289   46.5554 C   0  0  0  0  0  0  0  0  0  0  0  0
   55.7573   23.2812   46.3501 N   0  0  0  0  0  0  0  0  0  0  0  0
   55.6178   24.5946   46.0352 C   0  0  0  0  0  0  0  0  0  0  0  0
   54.4629   25.0692   45.8561 O   0  0  0  0  0  0  0  0  0  0  0  0
   56.7594   25.4042   45.9133 C   0  0  0  0  0  0  0  0  0  0  0  0
   56.6985   26.7693   45.5868 C   0  0  0  0  0  0  0  0  0  0  0  0
   57.8784   27.5254   45.5108 C   0  0  0  0  0  0  0  0  0  0  0  0
   59.1081   26.8849   45.7521 C   0  0  0  0  0  0  0  0  0  0  0  0
   59.1475   25.5599   46.0523 N   0  0  0  0  0  0  0  0  0  0  0  0
   58.0174   24.8129   46.1395 C   0  0  0  0  0  0  0  0  0  0  0  0
   58.1016   23.4940   46.4505 N   0  0  0  0  0  0  0  0  0  0  0  0
   56.2882   20.9154   46.9330 H   0  0  0  0  0  0  0  0  0  0  0  0
   59.5195   32.1707   46.2942 N   0  0  0  0  0  0  0  0  0  0  0  0
   59.0302   33.3044   47.5184 S   0  0  0  0  0  0  0  0  0  0  0  0
   59.4858   34.6924   47.1593 O   0  0  0  0  0  0  0  0  0  0  0  0
   57.5295   33.3082   47.5786 O   0  0  0  0  0  0  0  0  0  0  0  0
   59.6456   32.8380   49.1330 C   0  0  0  0  0  0  0  0  0  0  0  0
   61.1466   32.8813   49.1970 C   0  0  0  0  0  0  0  0  0  0  0  0
   61.9118   32.0364   48.3725 C   0  0  0  0  0  0  0  0  0  0  0  0
   63.3068   32.0977   48.4040 C   0  0  0  0  0  0  0  0  0  0  0  0
   63.9506   32.9876   49.2702 C   0  0  0  0  0  0  0  0  0  0  0  0
   63.1986   33.8246   50.0998 C   0  0  0  0  0  0  0  0  0  0  0  0
   61.8013   33.7764   50.0614 C   0  0  0  0  0  0  0  0  0  0  0  0
  7  8  2  0
  8  9  1  0
  9 10  1  0
 10 11  2  0
 10 12  1  0
 12 13  2  0
 13 14  1  0
 14  1  1  0
  1  2  2  0
  2  3  1  0
  3  4  2  0
  4  5  1  0
  5 20  1  0
 20 21  1  0
 21 22  2  0
 21 23  2  0
 21 24  1  0
 24 25  1  0
 25 26  2  0
 26 27  1  0
 27 28  2  0
 28 29  1  0
 29 30  2  0
  5  6  2  0
 14 15  2  0
 15 16  1  0
 16 17  2  0
 17 18  1  0
 18  8  1  0
 17 12  1  0
  6  1  1  0
 30 25  1  0
  7 19  1  0
M  CHG 1   9  -1
M  CHG 1  18  -1
M  CHG 1  20  -1
M  END
> <UniqueID>
3

> <SMILES>
N=c1[n-]c(=O)c2cc(-c3cccc([N-]S(=O)(=O)Cc4ccccc4)c3)cnc2[n-]1

> <Energy>
53.29641572683192

> <Genealogy>
N=c1[n-]c(=O)c2cc(-c3cccc([N-]S(=O)(=O)Cc4ccccc4)c3)cnc2[n-]1 (protonated)
N=c1[n-]c(=O)c2cc(-c3cccc([N-]S(=O)(=O)Cc4ccccc4)c3)cnc2[n-]1 (3D coordinates assigned)
N=c1[n-]c(=O)c2cc(-c3cccc([N-]S(=O)(=O)Cc4ccccc4)c3)cnc2[n-]1 (optimized conformer: 53.29641572683192 kcal/mol)

> <smiles>
N=c1[nH]c(=O)c2cc(-c3cccc(NS(=O)(=O)Cc4ccccc4)c3)cnc2[nH]1

> <score_type>
oracle

> <origin>
adg

> <m_score__min__energy>
-14.07

> <m_primary>
energy

> <minimizedAffinity>
-8.50978

> <minimizedRMSD>
1.67778

> <CNNscore>
0.1219599098

> <CNNaffinity>
5.9947333336

> <CNN_VS>
0.7311171293

> <CNNaffinity_variance>
0.0058624111

$$$$
3:0


 39 43  0  0  0  0  0  0  0  0999 V2000
   59.6566   26.2987   47.4938 C   0  0  0  0  0  0  0  0  0  0  0  0
   59.2733   27.4034   46.8335 C   0  0  0  0  0  0  0  0  0  0  0  0
   58.5793   27.4365   45.6224 C   0  0  0  0  0  0  0  0  0  0  0  0
   58.1262   26.3851   44.9094 C   0  0  0  0  0  0  0  0  0  0  0  0
   58.4105   28.7757   45.3071 C   0  0  0  0  0  0  0  0  0  0  0  0
   59.0288   29.5070   46.3047 C   0  0  0  0  0  0  0  0  0  0  0  0
   59.5349   28.6733   47.2487 N   0  0  0  0  0  0  0  0  0  0  0  0
   57.5439   25.1683   45.5057 C   0  0  0  0  0  0  0  0  0  0  0  0
   58.1628   23.9741   45.4911 N   0  0  0  0  0  0  0  0  0  0  0  0
   57.2647   23.1456   46.0644 C   0  0  0  0  0  0  0  0  0  0  0  0
   57.4864   21.9194   46.2371 O   0  0  0  0  0  0  0  0  0  0  0  0
   56.1014   23.7317   46.4214 N   0  0  0  0  0  0  0  0  0  0  0  0
   56.2887   25.0082   46.0508 C   0  0  0  0  0  0  0  0  0  0  0  0
   55.3086   25.9886   46.1581 O   0  0  0  0  0  0  0  0  0  0  0  0
   59.1522   30.9898   46.3011 C   0  0  0  0  0  0  0  0  0  0  0  0
   60.2499   31.5102   45.9623 O   0  0  0  0  0  0  0  0  0  0  0  0
   58.0126   31.8359   46.6138 N   0  0  0  0  0  0  0  0  0  0  0  0
   58.3336   32.8556   47.6496 C   0  0  0  0  0  0  0  0  0  0  0  0
   58.7115   34.2310   47.0641 C   0  0  0  0  0  0  0  0  0  0  0  0
   59.3335   34.0650   45.7418 N   0  0  0  0  0  0  0  0  0  0  0  0
   59.8805   35.3426   45.2611 C   0  0  0  0  0  0  0  0  0  0  0  0
   58.3684   33.5161   44.7675 C   0  0  0  0  0  0  0  0  0  0  0  0
   57.4455   32.4406   45.3891 C   0  0  0  0  0  0  0  0  0  0  0  0
   57.8519   32.1648   47.5277 H   0  0  0  0  0  0  0  0  0  0  0  0
   60.2158   29.0691   48.4909 C   0  0  0  0  0  0  0  0  0  0  0  0
   59.1939   29.6279   49.5047 C   0  0  0  0  0  0  0  0  0  0  0  0
   59.7654   29.9411   50.8330 N   0  0  0  0  0  0  0  0  0  0  0  0
   59.4015   31.2738   51.3672 C   0  0  0  0  0  0  0  0  0  0  0  0
   60.5860   32.2518   51.3133 C   0  0  0  0  0  0  0  0  0  0  0  0
   61.7611   31.7578   52.0772 N   0  0  0  0  0  0  0  0  0  0  0  0
   61.8295   30.2771   52.1691 C   0  0  0  0  0  0  0  0  0  0  0  0
   61.1987   29.5942   50.9519 C   0  0  0  0  0  0  0  0  0  0  0  0
   63.0227   32.3216   51.5500 C   0  0  0  0  0  0  0  0  0  0  0  0
   62.8882   32.6773   50.0909 C   0  0  0  0  0  0  0  0  0  0  0  0
   62.3187   33.9051   49.7166 C   0  0  0  0  0  0  0  0  0  0  0  0
   62.1697   34.2315   48.3652 C   0  0  0  0  0  0  0  0  0  0  0  0
   62.5877   33.3332   47.3787 C   0  0  0  0  0  0  0  0  0  0  0  0
   63.1500   32.1077   47.7424 C   0  0  0  0  0  0  0  0  0  0  0  0
   63.2983   31.7769   49.0931 C   0  0  0  0  0  0  0  0  0  0  0  0
  1  2  2  0
  2  3  1  0
  3  4  2  0
  4  8  1  0
  8  9  1  0
  9 10  1  0
 10 11  2  0
 10 12  1  0
 12 13  1  0
 13 14  1  0
  3  5  1  0
  5  6  2  0
  6 15  1  0
 15 16  2  0
 15 17  1  0
 17 18  1  0
 18 19  1  0
 19 20  1  0
 20 21  1  0
 20 22  1  0
 22 23  1  0
  6  7  1  0
  7 25  1  0
 25 26  1  0
 26 27  1  0
 27 28  1  0
 28 29  1  0
 29 30  1  0
 30 33  1  0
 33 34  1  0
 34 35  2  0
 35 36  1  0
 36 37  2  0
 37 38  1  0
 38 39  2  0
 30 31  1  0
 31 32  1  0
  7  2  1  0
 32 27  1  0
 13  8  2  0
 23 17  1  0
 39 34  1  0
 17 24  1  0
M  CHG 1   9  -1
M  CHG 1  12  -1
M  CHG 1  14  -1
M  CHG 1  17   1
M  END
> <UniqueID>
4

> <SMILES>
C=c1/c(=C/c2[n-]c(=O)[n-]c2[O-])cc(C(=O)[NH+]2CCN(C)CC2)n1CCN1CCN(Cc2ccccc2)CC1

> <Energy>
170.538079804613

> <Genealogy>
C=c1c(=Cc2[n-]c(=O)[n-]c2[O-])cc(C(=O)[NH+]2CCN(C)CC2)n1CCN1CCN(Cc2ccccc2)CC1 (protonated)
C=c1/c(=C/c2[n-]c(=O)[n-]c2[O-])cc(C(=O)[NH+]2CCN(C)CC2)n1CCN1CCN(Cc2ccccc2)CC1 (cis-trans isomerization)
C=c1/c(=C/c2[n-]c(=O)[n-]c2[O-])cc(C(=O)[NH+]2CCN(C)CC2)n1CCN1CCN(Cc2ccccc2)CC1 (3D coordinates assigned)
C=c1/c(=C/c2[n-]c(=O)[n-]c2[O-])cc(C(=O)[NH+]2CCN(C)CC2)n1CCN1CCN(Cc2ccccc2)CC1 (nonaromatic ring conformer: 170.538079804613 kcal/mol)

> <smiles>
C=c1c(=Cc2[nH]c(=O)[nH]c2O)cc(C(=O)N2CCN(C)CC2)n1CCN1CCN(Cc2ccccc2)CC1

> <score_type>
oracle

> <origin>
adg

> <m_score__min__energy>
-16.199999999999999

> <m_primary>
energy

> <minimizedAffinity>
-7.66677

> <minimizedRMSD>
1.10181

> <CNNscore>
0.0795119628

> <CNNaffinity>
6.6441249847

> <CNN_VS>
0.5282874107

> <CNNaffinity_variance>
0.4834897220

$$$$
7:0


 28 30  0  0  0  0  0  0  0  0999 V2000
   58.0654   26.6337   45.9921 N   0  0  0  0  0  0  0  0  0  0  0  0
   58.3012   27.9364   46.2097 C   0  0  0  0  0  0  0  0  0  0  0  0
   58.3716   28.5214   47.4721 O   0  0  0  0  0  0  0  0  0  0  0  0
   58.4581   28.5695   44.9908 C   0  0  0  0  0  0  0  0  0  0  0  0
   58.3209   27.6656   43.9959 N   0  0  0  0  0  0  0  0  0  0  0  0
   58.0939   26.5038   44.6482 C   0  0  0  0  0  0  0  0  0  0  0  0
   57.9312   25.4062   44.0527 O   0  0  0  0  0  0  0  0  0  0  0  0
   58.2492   27.9970   48.2389 H   0  0  0  0  0  0  0  0  0  0  0  0
   57.9032   25.5762   46.9906 C   0  0  0  0  0  0  0  0  0  0  0  0
   55.5756   25.7744   46.4711 O   0  0  0  0  0  0  0  0  0  0  0  0
   56.4723   25.1075   47.0523 C   0  0  0  0  0  0  0  0  0  0  0  0
   56.1033   23.8816   47.6983 N   0  0  0  0  0  0  0  0  0  0  0  0
   55.4124   22.7612   47.0649 C   0  0  0  0  0  0  0  0  0  0  0  0
   55.9016   22.5605   45.6563 C   0  0  0  0  0  0  0  0  0  0  0  0
   57.0484   21.7864   45.4144 C   0  0  0  0  0  0  0  0  0  0  0  0
   57.5068   21.5947   44.1073 C   0  0  0  0  0  0  0  0  0  0  0  0
   56.8260   22.1748   43.0336 C   0  0  0  0  0  0  0  0  0  0  0  0
   55.6846   22.9485   43.2662 C   0  0  0  0  0  0  0  0  0  0  0  0
   55.2235   23.1444   44.5707 C   0  0  0  0  0  0  0  0  0  0  0  0
   58.6955   30.0297   44.7579 C   0  0  0  0  0  0  0  0  0  0  0  0
   57.4214   30.7927   44.9249 C   0  0  0  0  0  0  0  0  0  0  0  0
   56.3218   30.2448   44.6398 O   0  0  0  0  0  0  0  0  0  0  0  0
   57.4557   32.1280   45.4372 N   0  0  0  0  0  0  0  0  0  0  0  0
   58.6819   32.7894   45.8781 C   0  0  0  0  0  0  0  0  0  0  0  0
   58.6369   33.1205   47.3633 C   0  0  0  0  0  0  0  0  0  0  0  0
   59.4944   34.3688   47.5334 C   0  0  0  0  0  0  0  0  0  0  0  0
   59.6479   34.9950   46.1472 C   0  0  0  0  0  0  0  0  0  0  0  0
   58.8501   34.1293   45.1815 C   0  0  0  0  0  0  0  0  0  0  0  0
 10 11  2  0
 11  9  1  0
  9  1  1  0
  1  2  1  0
  2  3  1  0
  2  4  2  0
  4 20  1  0
 20 21  1  0
 21 22  2  0
 21 23  1  0
 23 24  1  0
 24 25  1  0
 25 26  1  0
 26 27  1  0
 27 28  1  0
  4  5  1  0
  5  6  1  0
  6  7  2  0
 11 12  1  0
 12 13  1  0
 13 14  1  0
 14 15  2  0
 15 16  1  0
 16 17  2  0
 17 18  1  0
 18 19  2  0
  6  1  1  0
 19 14  1  0
 28 24  1  0
  3  8  1  0
M  CHG 1   5  -1
M  CHG 1  12  -1
M  CHG 1  23  -1
M  END
> <UniqueID>
8

> <SMILES>
O=C(Cn1c(O)c(CC(=O)[N-]C2CCCC2)[n-]c1=O)[N-]Cc1ccccc1

> <Energy>
72.91154076536488

> <Genealogy>
O=C(Cn1c(O)c(CC(=O)[N-]C2CCCC2)[n-]c1=O)[N-]Cc1ccccc1 (protonated)
O=C(Cn1c(O)c(CC(=O)[N-]C2CCCC2)[n-]c1=O)[N-]Cc1ccccc1 (3D coordinates assigned)
O=C(Cn1c(O)c(CC(=O)[N-]C2CCCC2)[n-]c1=O)[N-]Cc1ccccc1 (nonaromatic ring conformer: 72.91154076536488 kcal/mol)

> <smiles>
O=C(Cn1c(O)c(CC(=O)NC2CCCC2)[nH]c1=O)NCc1ccccc1

> <score_type>
oracle

> <origin>
adg

> <m_score__min__energy>
-14.15

> <m_primary>
energy

> <minimizedAffinity>
-7.21917

> <minimizedRMSD>
1.08651

> <CNNscore>
0.3037492335

> <CNNaffinity>
6.1642556190

> <CNN_VS>
1.8723878860

> <CNNaffinity_variance>
0.0106923608

$$$$
12:0


 25 26  0  0  0  0  0  0  0  0999 V2000
   60.5348   30.2396   47.5584 C   0  0  0  0  0  0  0  0  0  0  0  0
   59.6568   30.8007   46.7127 C   0  0  0  0  0  0  0  0  0  0  0  0
   59.0809   30.1857   45.5952 C   0  0  0  0  0  0  0  0  0  0  0  0
   59.3274   28.9497   45.1209 C   0  0  0  0  0  0  0  0  0  0  0  0
   58.2204   31.1195   45.0364 C   0  0  0  0  0  0  0  0  0  0  0  0
   58.2942   32.2482   45.8267 C   0  0  0  0  0  0  0  0  0  0  0  0
   57.5264   33.5107   45.5746 C   0  0  0  0  0  0  0  0  0  0  0  0
   59.1781   32.0670   46.8362 N   0  0  0  0  0  0  0  0  0  0  0  0
   58.7068   27.7242   45.6767 C   0  0  0  0  0  0  0  0  0  0  0  0
   57.3192   27.5109   45.6219 C   0  0  0  0  0  0  0  0  0  0  0  0
   56.4758   28.4500   45.0388 O   0  0  0  0  0  0  0  0  0  0  0  0
   56.7853   26.3856   46.1640 N   0  0  0  0  0  0  0  0  0  0  0  0
   57.5688   25.4624   46.7769 C   0  0  0  0  0  0  0  0  0  0  0  0
   57.0512   24.4262   47.2677 O   0  0  0  0  0  0  0  0  0  0  0  0
   58.9079   25.6599   46.8681 N   0  0  0  0  0  0  0  0  0  0  0  0
   59.4925   26.7680   46.3411 C   0  0  0  0  0  0  0  0  0  0  0  0
   60.7378   26.9196   46.4473 O   0  0  0  0  0  0  0  0  0  0  0  0
   59.4917   33.0431   47.8898 C   0  0  0  0  0  0  0  0  0  0  0  0
   60.6730   33.9198   47.4657 C   0  0  0  0  0  0  0  0  0  0  0  0
   61.7646   33.8260   48.4316 N   0  0  0  0  0  0  0  0  0  0  0  0
   63.1095   33.4035   48.1658 C   0  0  0  0  0  0  0  0  0  0  0  0
   63.5433   33.4784   46.9866 O   0  0  0  0  0  0  0  0  0  0  0  0
   64.0096   32.8410   49.2278 C   0  0  0  0  0  0  0  0  0  0  0  0
   63.2487   32.6027   50.3925 O   0  0  0  0  0  0  0  0  0  0  0  0
   63.0726   31.2143   50.5618 C   0  0  0  0  0  0  0  0  0  0  0  0
  1  2  2  0
  2  3  1  0
  3  4  2  0
  4  9  1  0
  9 10  2  0
 10 11  1  0
 10 12  1  0
 12 13  1  0
 13 14  2  0
 13 15  1  0
 15 16  1  0
 16 17  2  0
  3  5  1  0
  5  6  2  0
  6  7  1  0
  6  8  1  0
  8 18  1  0
 18 19  1  0
 19 20  1  0
 20 21  1  0
 21 22  2  0
 21 23  1  0
 23 24  1  0
 24 25  1  0
  8  2  1  0
 16  9  1  0
M  CHG 1  11  -1
M  CHG 1  12  -1
M  CHG 1  15  -1
M  CHG 1  20  -1
M  END
> <UniqueID>
13

> <SMILES>
C=c1c(=Cc2c([O-])[n-]c(=O)[n-]c2=O)cc(C)n1CC[N-]C(=O)COC

> <Energy>
75.2422888202395

> <Genealogy>
C=c1c(=Cc2c([O-])[n-]c(=O)[n-]c2=O)cc(C)n1CC[N-]C(=O)COC (protonated)
C=c1c(=Cc2c([O-])[n-]c(=O)[n-]c2=O)cc(C)n1CC[N-]C(=O)COC (3D coordinates assigned)
C=c1c(=Cc2c([O-])[n-]c(=O)[n-]c2=O)cc(C)n1CC[N-]C(=O)COC (optimized conformer: 75.2422888202395 kcal/mol)

> <smiles>
C=c1c(=Cc2c(O)[nH]c(=O)[nH]c2=O)cc(C)n1CCNC(=O)COC

> <score_type>
oracle

> <origin>
adg

> <m_score__min__energy>
-15.130000000000001

> <m_primary>
energy

> <minimizedAffinity>
-6.68039

> <minimizedRMSD>
1.41945

> <CNNscore>
0.4745232463

> <CNNaffinity>
6.5247092247

> <CNN_VS>
3.0961263180

> <CNNaffinity_variance>
0.1815123558

$$$$
18:0


 30 33  0  0  0  0  0  0  0  0999 V2000
   58.2143   29.4284   53.3696 C   0  0  0  0  0  0  0  0  0  0  0  0
   59.5093   29.0812   53.3198 C   0  0  0  0  0  0  0  0  0  0  0  0
   60.1684   28.1301   54.1157 C   0  0  0  0  0  0  0  0  0  0  0  0
   59.6898   27.2054   54.9713 C   0  0  0  0  0  0  0  0  0  0  0  0
   61.5241   28.2820   53.8617 C   0  0  0  0  0  0  0  0  0  0  0  0
   61.6416   29.2451   52.8813 C   0  0  0  0  0  0  0  0  0  0  0  0
   62.9448   29.7831   52.3703 C   0  0  0  0  0  0  0  0  0  0  0  0
   60.4241   29.7311   52.5527 N   0  0  0  0  0  0  0  0  0  0  0  0
   59.3079   25.8241   54.6258 C   0  0  0  0  0  0  0  0  0  0  0  0
   59.0715   25.3824   53.3746 N   0  0  0  0  0  0  0  0  0  0  0  0
   58.9205   24.0497   53.5380 C   0  0  0  0  0  0  0  0  0  0  0  0
   58.6639   23.2740   52.5802 O   0  0  0  0  0  0  0  0  0  0  0  0
   59.0739   23.6127   54.8077 N   0  0  0  0  0  0  0  0  0  0  0  0
   59.3334   24.7472   55.4783 C   0  0  0  0  0  0  0  0  0  0  0  0
   59.5946   24.7979   56.8447 O   0  0  0  0  0  0  0  0  0  0  0  0
   60.1793   30.8161   51.6409 C   0  0  0  0  0  0  0  0  0  0  0  0
   60.1284   32.1330   52.1145 C   0  0  0  0  0  0  0  0  0  0  0  0
   59.9245   33.1911   51.2274 C   0  0  0  0  0  0  0  0  0  0  0  0
   59.7743   32.9393   49.8609 C   0  0  0  0  0  0  0  0  0  0  0  0
   59.8190   31.6252   49.3728 C   0  0  0  0  0  0  0  0  0  0  0  0
   60.0230   30.5609   50.2686 C   0  0  0  0  0  0  0  0  0  0  0  0
   60.0909   29.2828   49.8159 F   0  0  0  0  0  0  0  0  0  0  0  0
   59.6677   31.3304   47.6356 S   0  0  0  0  0  0  0  0  0  0  0  0
   61.0306   31.0362   47.0661 O   0  0  0  0  0  0  0  0  0  0  0  0
   58.8224   30.1038   47.4385 O   0  0  0  0  0  0  0  0  0  0  0  0
   58.9052   32.6622   46.7855 N   0  0  0  0  0  0  0  0  0  0  0  0
   59.8548   33.6639   46.3052 C   0  0  0  0  0  0  0  0  0  0  0  0
   59.1422   34.4149   45.1913 C   0  0  0  0  0  0  0  0  0  0  0  0
   58.0573   33.4633   44.7065 C   0  0  0  0  0  0  0  0  0  0  0  0
   58.1798   32.2327   45.5914 C   0  0  0  0  0  0  0  0  0  0  0  0
  1  2  2  0
  2  3  1  0
  3  4  2  0
  4  9  1  0
  9 10  1  0
 10 11  1  0
 11 12  2  0
 11 13  1  0
 13 14  1  0
 14 15  1  0
  3  5  1  0
  5  6  2  0
  6  7  1  0
  6  8  1  0
  8 16  1  0
 16 17  2  0
 17 18  1  0
 18 19  2  0
 19 20  1  0
 20 23  1  0
 23 24  2  0
 23 25  2  0
 23 26  1  0
 26 27  1  0
 27 28  1  0
 28 29  1  0
 29 30  1  0
 20 21  2  0
 21 22  1  0
  8  2  1  0
 21 16  1  0
 14  9  2  0
 30 26  1  0
M  CHG 1  10  -1
M  CHG 1  13  -1
M  CHG 1  15  -1
M  END
> <UniqueID>
18

> <SMILES>
C=c1/c(=C\c2[n-]c(=O)[n-]c2[O-])cc(C)n1-c1cccc(S(=O)(=O)N2CCCC2)c1F

> <Energy>
130.87522201278992

> <Genealogy>
C=c1c(=Cc2[n-]c(=O)[n-]c2[O-])cc(C)n1-c1cccc(S(=O)(=O)N2CCCC2)c1F (protonated)
C=c1/c(=C\c2[n-]c(=O)[n-]c2[O-])cc(C)n1-c1cccc(S(=O)(=O)N2CCCC2)c1F (cis-trans isomerization)
C=c1/c(=C\c2[n-]c(=O)[n-]c2[O-])cc(C)n1-c1cccc(S(=O)(=O)N2CCCC2)c1F (3D coordinates assigned)
C=c1/c(=C\c2[n-]c(=O)[n-]c2[O-])cc(C)n1-c1cccc(S(=O)(=O)N2CCCC2)c1F (nonaromatic ring conformer: 130.87522201278992 kcal/mol)

> <smiles>
C=c1c(=Cc2[nH]c(=O)[nH]c2O)cc(C)n1-c1cccc(S(=O)(=O)N2CCCC2)c1F

> <score_type>
oracle

> <origin>
adg

> <m_score__min__energy>
-16.82

> <m_primary>
energy

> <minimizedAffinity>
-5.53136

> <minimizedRMSD>
6.88280

> <CNNscore>
0.4075758755

> <CNNaffinity>
6.1824455261

> <CNN_VS>
2.5198156834

> <CNNaffinity_variance>
0.1723998785

$$$$
27:0


 37 41  0  0  0  0  0  0  0  0999 V2000
   59.9709   32.1270   46.5663 C   0  0  0  0  0  0  0  0  0  0  0  0
   59.7134   31.2370   47.5387 C   0  0  0  0  0  0  0  0  0  0  0  0
   59.4011   29.8860   47.3565 C   0  0  0  0  0  0  0  0  0  0  0  0
   59.3370   29.2097   46.1914 C   0  0  0  0  0  0  0  0  0  0  0  0
   59.2275   29.3521   48.6244 C   0  0  0  0  0  0  0  0  0  0  0  0
   59.4104   30.3880   49.5161 C   0  0  0  0  0  0  0  0  0  0  0  0
   59.7161   31.5371   48.8647 N   0  0  0  0  0  0  0  0  0  0  0  0
   59.3150   30.2328   50.9793 C   0  0  0  0  0  0  0  0  0  0  0  0
   58.3969   30.8401   51.5946 O   0  0  0  0  0  0  0  0  0  0  0  0
   60.2765   29.4505   51.7108 N   0  0  0  0  0  0  0  0  0  0  0  0
   61.6455   29.2953   51.1973 C   0  0  0  0  0  0  0  0  0  0  0  0
   62.5493   28.6413   52.2480 C   0  0  0  0  0  0  0  0  0  0  0  0
   62.3161   29.2437   53.5654 N   0  0  0  0  0  0  0  0  0  0  0  0
   60.9426   29.0206   54.0642 C   0  0  0  0  0  0  0  0  0  0  0  0
   59.8970   28.7734   52.9574 C   0  0  0  0  0  0  0  0  0  0  0  0
   62.4786   30.2484   53.4974 H   0  0  0  0  0  0  0  0  0  0  0  0
   58.7920   27.8466   46.0579 C   0  0  0  0  0  0  0  0  0  0  0  0
   59.5235   26.7384   46.2590 N   0  0  0  0  0  0  0  0  0  0  0  0
   58.6696   25.7377   45.9488 C   0  0  0  0  0  0  0  0  0  0  0  0
   58.9918   24.5238   46.0286 O   0  0  0  0  0  0  0  0  0  0  0  0
   57.4501   26.1417   45.5377 N   0  0  0  0  0  0  0  0  0  0  0  0
   57.5457   27.4786   45.5998 C   0  0  0  0  0  0  0  0  0  0  0  0
   56.5325   28.3408   45.1988 O   0  0  0  0  0  0  0  0  0  0  0  0
   60.1393   32.8043   49.4845 C   0  0  0  0  0  0  0  0  0  0  0  0
   61.5646   32.7122   49.9610 C   0  0  0  0  0  0  0  0  0  0  0  0
   62.5758   32.2867   49.0841 C   0  0  0  0  0  0  0  0  0  0  0  0
   63.9018   32.2058   49.5193 C   0  0  0  0  0  0  0  0  0  0  0  0
   64.2381   32.5357   50.8427 C   0  0  0  0  0  0  0  0  0  0  0  0
   63.2247   32.9547   51.7208 C   0  0  0  0  0  0  0  0  0  0  0  0
   61.9002   33.0383   51.2856 C   0  0  0  0  0  0  0  0  0  0  0  0
   65.6474   32.4595   51.2987 C   0  0  0  0  0  0  0  0  0  0  0  0
   66.6196   33.2949   50.7171 C   0  0  0  0  0  0  0  0  0  0  0  0
   67.9500   33.2371   51.1429 C   0  0  0  0  0  0  0  0  0  0  0  0
   68.3244   32.3438   52.1498 C   0  0  0  0  0  0  0  0  0  0  0  0
   67.3708   31.5040   52.7284 C   0  0  0  0  0  0  0  0  0  0  0  0
   66.0376   31.5574   52.3088 C   0  0  0  0  0  0  0  0  0  0  0  0
   65.1398   30.7034   52.8648 F   0  0  0  0  0  0  0  0  0  0  0  0
  1  2  2  0
  2  3  1  0
  3  4  2  0
  4 17  1  0
 17 18  1  0
 18 19  1  0
 19 20  2  0
 19 21  1  0
 21 22  1  0
 22 23  1  0
  3  5  1  0
  5  6  2  0
  6  8  1  0
  8  9  2  0
  8 10  1  0
 10 11  1  0
 11 12  1  0
 12 13  1  0
 13 14  1  0
 14 15  1  0
  6  7  1  0
  7 24  1  0
 24 25  1  0
 25 26  2  0
 26 27  1  0
 27 28  2  0
 28 31  1  0
 31 32  2  0
 32 33  1  0
 33 34  2  0
 34 35  1  0
 35 36  2  0
 36 37  1  0
 28 29  1  0
 29 30  2  0
  7  2  1  0
 30 25  1  0
 22 17  2  0
 15 10  1  0
 36 31  1  0
 13 16  1  0
M  CHG 1  18  -1
M  CHG 1  21  -1
M  CHG 1  23  -1
M  END
> <UniqueID>
27

> <SMILES>
C=c1/c(=C/c2[n-]c(=O)[n-]c2[O-])cc(C(=O)N2CCNCC2)n1Cc1ccc(-c2ccccc2F)cc1

> <Energy>
145.33721045563874

> <Genealogy>
C=c1c(=Cc2[n-]c(=O)[n-]c2[O-])cc(C(=O)N2CCNCC2)n1Cc1ccc(-c2ccccc2F)cc1 (protonated)
C=c1/c(=C/c2[n-]c(=O)[n-]c2[O-])cc(C(=O)N2CCNCC2)n1Cc1ccc(-c2ccccc2F)cc1 (cis-trans isomerization)
C=c1/c(=C/c2[n-]c(=O)[n-]c2[O-])cc(C(=O)N2CCNCC2)n1Cc1ccc(-c2ccccc2F)cc1 (3D coordinates assigned)
C=c1/c(=C/c2[n-]c(=O)[n-]c2[O-])cc(C(=O)N2CCNCC2)n1Cc1ccc(-c2ccccc2F)cc1 (nonaromatic ring conformer: 145.33721045563874 kcal/mol)

> <smiles>
C=c1c(=Cc2[nH]c(=O)[nH]c2O)cc(C(=O)N2CCNCC2)n1Cc1ccc(-c2ccccc2F)cc1

> <score_type>
oracle

> <origin>
adg

> <m_score__min__energy>
-16.02

> <m_primary>
energy

> <minimizedAffinity>
-7.39537

> <minimizedRMSD>
2.71184

> <CNNscore>
0.1090721413

> <CNNaffinity>
6.4374604225

> <CNN_VS>
0.7021476030

> <CNNaffinity_variance>
0.0115233613

$$$$
29:0


 29 31  0  0  0  0  0  0  0  0999 V2000
   60.0415   28.4052   47.6727 C   0  0  0  0  0  0  0  0  0  0  0  0
   59.2619   29.1039   46.8332 C   0  0  0  0  0  0  0  0  0  0  0  0
   58.6399   28.6348   45.6749 C   0  0  0  0  0  0  0  0  0  0  0  0
   58.7016   27.3846   45.1726 C   0  0  0  0  0  0  0  0  0  0  0  0
   57.9613   29.7561   45.1807 C   0  0  0  0  0  0  0  0  0  0  0  0
   57.1166   29.8645   43.9485 C   0  0  0  0  0  0  0  0  0  0  0  0
   58.1743   30.8083   45.9946 N   0  0  0  0  0  0  0  0  0  0  0  0
   58.9533   30.4145   46.9874 N   0  0  0  0  0  0  0  0  0  0  0  0
   57.9736   26.2318   45.7299 C   0  0  0  0  0  0  0  0  0  0  0  0
   56.5895   26.2936   45.9425 C   0  0  0  0  0  0  0  0  0  0  0  0
   55.8698   27.4324   45.5960 O   0  0  0  0  0  0  0  0  0  0  0  0
   55.9403   25.2332   46.4874 N   0  0  0  0  0  0  0  0  0  0  0  0
   56.6118   24.1081   46.8453 C   0  0  0  0  0  0  0  0  0  0  0  0
   55.9898   23.1369   47.3450 O   0  0  0  0  0  0  0  0  0  0  0  0
   57.9567   24.0335   46.6656 N   0  0  0  0  0  0  0  0  0  0  0  0
   58.6506   25.0667   46.1244 C   0  0  0  0  0  0  0  0  0  0  0  0
   59.8980   24.9681   45.9770 O   0  0  0  0  0  0  0  0  0  0  0  0
   59.4048   31.3235   48.0452 C   0  0  0  0  0  0  0  0  0  0  0  0
   60.7109   31.9935   47.6622 C   0  0  0  0  0  0  0  0  0  0  0  0
   61.9193   31.3428   47.9777 C   0  0  0  0  0  0  0  0  0  0  0  0
   63.1474   31.9503   47.7150 C   0  0  0  0  0  0  0  0  0  0  0  0
   63.1918   33.2105   47.1262 C   0  0  0  0  0  0  0  0  0  0  0  0
   62.0082   33.8603   46.7726 C   0  0  0  0  0  0  0  0  0  0  0  0
   60.7609   33.2540   47.0067 C   0  0  0  0  0  0  0  0  0  0  0  0
   59.5489   33.9600   46.5394 C   0  0  0  0  0  0  0  0  0  0  0  0
   58.9926   34.8059   47.2895 O   0  0  0  0  0  0  0  0  0  0  0  0
   59.0360   33.7423   45.2247 N   0  0  0  0  0  0  0  0  0  0  0  0
   59.4646   33.0833   44.6320 H   0  0  0  0  0  0  0  0  0  0  0  0
   58.2539   34.2512   44.9110 H   0  0  0  0  0  0  0  0  0  0  0  0
  1  2  2  0
  2  3  1  0
  3  4  2  0
  4  9  1  0
  9 10  2  0
 10 11  1  0
 10 12  1  0
 12 13  1  0
 13 14  2  0
 13 15  1  0
 15 16  1  0
 16 17  2  0
  3  5  1  0
  5  6  1  0
  5  7  2  0
  7  8  1  0
  8 18  1  0
 18 19  1  0
 19 20  2  0
 20 21  1  0
 21 22  2  0
 22 23  1  0
 23 24  2  0
 24 25  1  0
 25 26  2  0
 25 27  1  0
  8  2  1  0
 24 19  1  0
 16  9  1  0
 27 28  1  0
 27 29  1  0
M  CHG 1  11  -1
M  CHG 1  12  -1
M  CHG 1  15  -1
M  END
> <UniqueID>
29

> <SMILES>
C=c1/c(=C/c2c([O-])[n-]c(=O)[n-]c2=O)c(C)nn1Cc1ccccc1C(N)=O

> <Energy>
93.96637896910896

> <Genealogy>
C=c1c(=Cc2c([O-])[n-]c(=O)[n-]c2=O)c(C)nn1Cc1ccccc1C(N)=O (protonated)
C=c1/c(=C/c2c([O-])[n-]c(=O)[n-]c2=O)c(C)nn1Cc1ccccc1C(N)=O (cis-trans isomerization)
C=c1/c(=C/c2c([O-])[n-]c(=O)[n-]c2=O)c(C)nn1Cc1ccccc1C(N)=O (3D coordinates assigned)
C=c1/c(=C/c2c([O-])[n-]c(=O)[n-]c2=O)c(C)nn1Cc1ccccc1C(N)=O (optimized conformer: 93.96637896910896 kcal/mol)

> <smiles>
C=c1c(=Cc2c(O)[nH]c(=O)[nH]c2=O)c(C)nn1Cc1ccccc1C(N)=O

> <score_type>
oracle

> <origin>
adg

> <m_score__min__energy>
-16.109999999999999

> <m_primary>
energy

> <minimizedAffinity>
-8.26704

> <minimizedRMSD>
1.02740

> <CNNscore>
0.0841842815

> <CNNaffinity>
6.1792378426

> <CNN_VS>
0.5201947093

> <CNNaffinity_variance>
0.0563560389

$$$$
36:0


 36 39  0  0  0  0  0  0  0  0999 V2000
   54.7669   29.0618   55.1425 C   0  0  0  0  0  0  0  0  0  0  0  0
   55.2266   29.6905   54.0474 C   0  0  0  0  0  0  0  0  0  0  0  0
   54.4517   30.1465   52.9701 C   0  0  0  0  0  0  0  0  0  0  0  0
   53.1202   30.3097   52.8459 C   0  0  0  0  0  0  0  0  0  0  0  0
   55.3417   30.4675   51.9624 C   0  0  0  0  0  0  0  0  0  0  0  0
   56.6094   30.2708   52.4687 C   0  0  0  0  0  0  0  0  0  0  0  0
   56.5491   29.8193   53.7476 N   0  0  0  0  0  0  0  0  0  0  0  0
   52.4128   30.5864   51.5851 C   0  0  0  0  0  0  0  0  0  0  0  0
   52.3908   29.7626   50.5213 N   0  0  0  0  0  0  0  0  0  0  0  0
   51.5435   30.3787   49.6684 C   0  0  0  0  0  0  0  0  0  0  0  0
   51.2698   29.9148   48.5313 O   0  0  0  0  0  0  0  0  0  0  0  0
   51.0068   31.5271   50.1331 N   0  0  0  0  0  0  0  0  0  0  0  0
   51.5610   31.6380   51.3512 C   0  0  0  0  0  0  0  0  0  0  0  0
   51.2954   32.6805   52.2306 O   0  0  0  0  0  0  0  0  0  0  0  0
   57.8368   30.5072   51.6840 C   0  0  0  0  0  0  0  0  0  0  0  0
   58.4271   29.5126   51.1740 O   0  0  0  0  0  0  0  0  0  0  0  0
   58.4535   31.8181   51.6412 N   0  0  0  0  0  0  0  0  0  0  0  0
   58.7572   32.2311   50.2407 C   0  0  0  0  0  0  0  0  0  0  0  0
   60.2572   32.4352   49.9813 C   0  0  0  0  0  0  0  0  0  0  0  0
   60.8339   33.3830   50.9453 N   0  0  0  0  0  0  0  0  0  0  0  0
   60.4490   33.1182   52.3493 C   0  0  0  0  0  0  0  0  0  0  0  0
   59.6377   31.8259   52.5298 C   0  0  0  0  0  0  0  0  0  0  0  0
   58.8556   32.2330   52.4382 H   0  0  0  0  0  0  0  0  0  0  0  0
   60.5218   34.3222   50.6983 H   0  0  0  0  0  0  0  0  0  0  0  0
   57.6851   29.7172   54.6828 C   0  0  0  0  0  0  0  0  0  0  0  0
   58.4420   28.4317   54.4546 C   0  0  0  0  0  0  0  0  0  0  0  0
   57.7741   27.1990   54.5090 C   0  0  0  0  0  0  0  0  0  0  0  0
   58.4718   26.0099   54.2901 C   0  0  0  0  0  0  0  0  0  0  0  0
   59.8359   26.0387   53.9975 C   0  0  0  0  0  0  0  0  0  0  0  0
   60.5174   27.2588   53.9164 C   0  0  0  0  0  0  0  0  0  0  0  0
   59.8145   28.4551   54.1569 C   0  0  0  0  0  0  0  0  0  0  0  0
   61.8858   27.2346   53.5970 O   0  0  0  0  0  0  0  0  0  0  0  0
   62.4188   27.1295   52.2778 C   0  0  0  0  0  0  0  0  0  0  0  0
   62.8705   25.8422   52.0480 F   0  0  0  0  0  0  0  0  0  0  0  0
   63.4835   28.0025   52.1546 F   0  0  0  0  0  0  0  0  0  0  0  0
   61.4581   27.4669   51.3411 F   0  0  0  0  0  0  0  0  0  0  0  0
  1  2  2  0
  2  3  1  0
  3  4  2  0
  4  8  1  0
  8  9  1  0
  9 10  1  0
 10 11  2  0
 10 12  1  0
 12 13  1  0
 13 14  1  0
  3  5  1  0
  5  6  2  0
  6 15  1  0
 15 16  2  0
 15 17  1  0
 17 18  1  0
 18 19  1  0
 19 20  1  0
 20 21  1  0
 21 22  1  0
  6  7  1  0
  7 25  1  0
 25 26  1  0
 26 27  2  0
 27 28  1  0
 28 29  2  0
 29 30  1  0
 30 32  1  0
 32 33  1  0
 33 34  1  0
 33 35  1  0
 33 36  1  0
 30 31  2  0
  7  2  1  0
 31 26  1  0
 13  8  2  0
 22 17  1  0
 17 23  1  0
 20 24  1  0
M  CHG 1   9  -1
M  CHG 1  12  -1
M  CHG 1  14  -1
M  CHG 1  17   1
M  END
> <UniqueID>
36

> <SMILES>
C=c1c(=Cc2[n-]c(=O)[n-]c2[O-])cc(C(=O)[NH+]2CCNCC2)n1Cc1cccc(OC(F)(F)F)c1

> <Energy>
144.08009915021597

> <Genealogy>
C=c1c(=Cc2[n-]c(=O)[n-]c2[O-])cc(C(=O)[NH+]2CCNCC2)n1Cc1cccc(OC(F)(F)F)c1 (protonated)
C=c1c(=Cc2[n-]c(=O)[n-]c2[O-])cc(C(=O)[NH+]2CCNCC2)n1Cc1cccc(OC(F)(F)F)c1 (3D coordinates assigned)
C=c1c(=Cc2[n-]c(=O)[n-]c2[O-])cc(C(=O)[NH+]2CCNCC2)n1Cc1cccc(OC(F)(F)F)c1 (nonaromatic ring conformer: 144.08009915021597 kcal/mol)

> <smiles>
C=c1c(=Cc2[nH]c(=O)[nH]c2O)cc(C(=O)N2CCNCC2)n1Cc1cccc(OC(F)(F)F)c1

> <score_type>
oracle

> <origin>
adg

> <m_score__min__energy>
-15.1

> <m_primary>
energy

> <minimizedAffinity>
-4.93494

> <minimizedRMSD>
1.19442

> <CNNscore>
0.1020961478

> <CNNaffinity>
4.7973022461

> <CNN_VS>
0.4897860885

> <CNNaffinity_variance>
1.2332105637

$$$$
39:0


 32 35  0  0  0  0  0  0  0  0999 V2000
   61.6589   31.3681   49.1364 C   0  0  0  0  0  0  0  0  0  0  0  0
   61.8668   31.3944   47.7451 C   0  0  0  0  0  0  0  0  0  0  0  0
   61.0940   30.5993   46.8955 C   0  0  0  0  0  0  0  0  0  0  0  0
   60.1040   29.7589   47.4209 C   0  0  0  0  0  0  0  0  0  0  0  0
   59.9038   29.7121   48.8071 C   0  0  0  0  0  0  0  0  0  0  0  0
   60.6754   30.5061   49.6599 C   0  0  0  0  0  0  0  0  0  0  0  0
   59.3090   28.9392   46.5461 N   0  0  0  0  0  0  0  0  0  0  0  0
   58.3459   29.3823   45.7079 C   0  0  0  0  0  0  0  0  0  0  0  0
   57.9146   30.8130   45.5753 C   0  0  0  0  0  0  0  0  0  0  0  0
   57.7800   28.3267   45.0230 C   0  0  0  0  0  0  0  0  0  0  0  0
   58.4371   27.1791   45.4446 C   0  0  0  0  0  0  0  0  0  0  0  0
   58.1718   25.9179   45.0539 C   0  0  0  0  0  0  0  0  0  0  0  0
   59.3743   27.5924   46.3986 C   0  0  0  0  0  0  0  0  0  0  0  0
   60.2064   26.8003   47.0945 C   0  0  0  0  0  0  0  0  0  0  0  0
   57.4316   24.9384   45.8694 C   0  0  0  0  0  0  0  0  0  0  0  0
   57.9232   23.7330   46.2029 N   0  0  0  0  0  0  0  0  0  0  0  0
   56.9016   23.1487   46.8647 C   0  0  0  0  0  0  0  0  0  0  0  0
   56.9841   21.9916   47.3526 O   0  0  0  0  0  0  0  0  0  0  0  0
   55.7812   23.8959   46.9506 N   0  0  0  0  0  0  0  0  0  0  0  0
   56.1268   25.0214   46.3059 C   0  0  0  0  0  0  0  0  0  0  0  0
   55.2528   26.0783   46.0812 O   0  0  0  0  0  0  0  0  0  0  0  0
   62.4896   32.2262   50.0214 C   0  0  0  0  0  0  0  0  0  0  0  0
   61.9470   33.2183   50.5856 O   0  0  0  0  0  0  0  0  0  0  0  0
   65.9093   29.7712   52.4625 C   0  0  0  0  0  0  0  0  0  0  0  0
   65.5588   30.7507   51.6031 C   0  0  0  0  0  0  0  0  0  0  0  0
   66.5701   31.5632   50.8198 C   0  0  0  0  0  0  0  0  0  0  0  0
   66.1316   33.0322   50.7048 C   0  0  0  0  0  0  0  0  0  0  0  0
   64.6085   33.2303   50.5088 C   0  0  0  0  0  0  0  0  0  0  0  0
   63.9007   31.9640   50.2300 N   0  0  0  0  0  0  0  0  0  0  0  0
   64.0895   31.0009   51.3369 C   0  0  0  0  0  0  0  0  0  0  0  0
   66.3391   28.3979   52.0345 C   0  0  0  0  0  0  0  0  0  0  0  0
   64.5894   32.5830   50.5643 H   0  0  0  0  0  0  0  0  0  0  0  0
 24 25  2  0
 25 26  1  0
 26 27  1  0
 27 28  1  0
 28 29  1  0
 29 22  1  0
 22 23  2  0
 22  1  1  0
  1  2  2  0
  2  3  1  0
  3  4  2  0
  4  7  1  0
  7  8  1  0
  8  9  1  0
  8 10  2  0
 10 11  1  0
 11 12  2  0
 12 15  1  0
 15 16  1  0
 16 17  1  0
 17 18  2  0
 17 19  1  0
 19 20  1  0
 20 21  1  0
 11 13  1  0
 13 14  2  0
  4  5  1  0
  5  6  2  0
 29 30  1  0
 24 31  1  0
 30 25  1  0
  6  1  1  0
 13  7  1  0
 20 15  2  0
 29 32  1  0
M  CHG 1  16  -1
M  CHG 1  19  -1
M  CHG 1  21  -1
M  CHG 1  29   1
M  END
> <UniqueID>
39

> <SMILES>
C=c1/c(=C/c2[n-]c(=O)[n-]c2[O-])cc(C)n1-c1ccc(C(=O)[N@H+]2CCCC(=CC)C2)cc1

> <Energy>
136.60658649534903

> <Genealogy>
C=c1c(=Cc2[n-]c(=O)[n-]c2[O-])cc(C)n1-c1ccc(C(=O)[NH+]2CCCC(=CC)C2)cc1 (protonated)
C=c1c(=Cc2[n-]c(=O)[n-]c2[O-])cc(C)n1-c1ccc(C(=O)[N@H+]2CCCC(=CC)C2)cc1 (chirality)
C=c1/c(=C/c2[n-]c(=O)[n-]c2[O-])cc(C)n1-c1ccc(C(=O)[N@H+]2CCCC(=CC)C2)cc1 (cis-trans isomerization)
C=c1/c(=C/c2[n-]c(=O)[n-]c2[O-])cc(C)n1-c1ccc(C(=O)[N@H+]2CCCC(=CC)C2)cc1 (3D coordinates assigned)
C=c1/c(=C/c2[n-]c(=O)[n-]c2[O-])cc(C)n1-c1ccc(C(=O)[N@H+]2CCCC(=CC)C2)cc1 (nonaromatic ring conformer: 136.60658649534903 kcal/mol)

> <smiles>
C=c1c(=Cc2[nH]c(=O)[nH]c2O)cc(C)n1-c1ccc(C(=O)N2CCCC(=CC)C2)cc1

> <score_type>
oracle

> <origin>
adg

> <m_score__min__energy>
-15.44

> <m_primary>
energy

> <minimizedAffinity>
-9.34386

> <minimizedRMSD>
1.15040

> <CNNscore>
0.2000591010

> <CNNaffinity>
6.4467625618

> <CNN_VS>
1.2897335291

> <CNNaffinity_variance>
0.1242439523

$$$$
45:0


 35 38  0  0  0  0  0  0  0  0999 V2000
   58.1159   30.8001   52.8013 C   0  0  0  0  0  0  0  0  0  0  0  0
   58.8135   29.8280   52.0713 C   0  0  0  0  0  0  0  0  0  0  0  0
   59.7547   30.2133   51.1108 C   0  0  0  0  0  0  0  0  0  0  0  0
   59.9874   31.5723   50.8508 C   0  0  0  0  0  0  0  0  0  0  0  0
   59.2956   32.5436   51.5920 C   0  0  0  0  0  0  0  0  0  0  0  0
   58.3612   32.1598   52.5609 C   0  0  0  0  0  0  0  0  0  0  0  0
   57.6955   33.1084   53.2679 F   0  0  0  0  0  0  0  0  0  0  0  0
   55.2252   30.3135   52.4623 C   0  0  0  0  0  0  0  0  0  0  0  0
   55.8426   30.2003   53.6482 C   0  0  0  0  0  0  0  0  0  0  0  0
   55.2448   30.0138   54.9049 C   0  0  0  0  0  0  0  0  0  0  0  0
   53.9709   29.7371   55.2480 C   0  0  0  0  0  0  0  0  0  0  0  0
   56.2514   30.1915   55.8412 C   0  0  0  0  0  0  0  0  0  0  0  0
   57.4180   30.4126   55.1387 C   0  0  0  0  0  0  0  0  0  0  0  0
   58.7471   30.7234   55.7557 C   0  0  0  0  0  0  0  0  0  0  0  0
   57.1737   30.4044   53.8130 N   0  0  0  0  0  0  0  0  0  0  0  0
   52.8275   29.6330   54.3265 C   0  0  0  0  0  0  0  0  0  0  0  0
   52.7001   28.6470   53.4191 N   0  0  0  0  0  0  0  0  0  0  0  0
   51.6091   29.0104   52.7115 C   0  0  0  0  0  0  0  0  0  0  0  0
   51.1544   28.3171   51.7648 O   0  0  0  0  0  0  0  0  0  0  0  0
   51.0520   30.1818   53.0915 N   0  0  0  0  0  0  0  0  0  0  0  0
   51.8434   30.5697   54.1035 C   0  0  0  0  0  0  0  0  0  0  0  0
   51.6918   31.7699   54.7870 O   0  0  0  0  0  0  0  0  0  0  0  0
   61.0474   31.9651   49.9040 C   0  0  0  0  0  0  0  0  0  0  0  0
   62.2432   31.7800   50.2647 O   0  0  0  0  0  0  0  0  0  0  0  0
   60.7873   32.4580   48.5624 N   0  0  0  0  0  0  0  0  0  0  0  0
   59.3562   32.6726   48.2312 C   0  0  0  0  0  0  0  0  0  0  0  0
   58.6397   31.3961   47.7625 C   0  0  0  0  0  0  0  0  0  0  0  0
   59.3788   30.7865   46.6496 N   0  0  0  0  0  0  0  0  0  0  0  0
   60.7215   30.4096   47.1048 C   0  0  0  0  0  0  0  0  0  0  0  0
   61.4983   31.6607   47.5381 C   0  0  0  0  0  0  0  0  0  0  0  0
   60.7411   33.1025   49.3052 H   0  0  0  0  0  0  0  0  0  0  0  0
   58.5357   29.3640   46.0851 S   0  0  0  0  0  0  0  0  0  0  0  0
   59.5398   28.4847   44.9045 C   0  0  0  0  0  0  0  0  0  0  0  0
   57.2269   29.7425   45.4395 O   0  0  0  0  0  0  0  0  0  0  0  0
   58.2624   28.4481   47.2463 O   0  0  0  0  0  0  0  0  0  0  0  0
  8  9  2  0
  9 10  1  0
 10 11  2  0
 11 16  1  0
 16 17  1  0
 17 18  1  0
 18 19  2  0
 18 20  1  0
 20 21  1  0
 21 22  1  0
 10 12  1  0
 12 13  2  0
 13 14  1  0
 13 15  1  0
 15  1  1  0
  1  2  2  0
  2  3  1  0
  3  4  2  0
  4 23  1  0
 23 24  2  0
 23 25  1  0
 25 26  1  0
 26 27  1  0
 27 28  1  0
 28 32  1  0
 32 33  1  0
 32 34  2  0
 32 35  2  0
 28 29  1  0
 29 30  1  0
  4  5  1  0
  5  6  2  0
  6  7  1  0
 15  9  1  0
  6  1  1  0
 21 16  2  0
 30 25  1  0
 25 31  1  0
M  CHG 1  17  -1
M  CHG 1  20  -1
M  CHG 1  22  -1
M  CHG 1  25   1
M  END
> <UniqueID>
45

> <SMILES>
C=c1c(=Cc2[n-]c(=O)[n-]c2[O-])cc(C)n1-c1ccc(C(=O)[NH+]2CCN(S(C)(=O)=O)CC2)cc1F

> <Energy>
144.6505052577221

> <Genealogy>
C=c1c(=Cc2[n-]c(=O)[n-]c2[O-])cc(C)n1-c1ccc(C(=O)[NH+]2CCN(S(C)(=O)=O)CC2)cc1F (protonated)
C=c1c(=Cc2[n-]c(=O)[n-]c2[O-])cc(C)n1-c1ccc(C(=O)[NH+]2CCN(S(C)(=O)=O)CC2)cc1F (3D coordinates assigned)
C=c1c(=Cc2[n-]c(=O)[n-]c2[O-])cc(C)n1-c1ccc(C(=O)[NH+]2CCN(S(C)(=O)=O)CC2)cc1F (nonaromatic ring conformer: 144.6505052577221 kcal/mol)

> <smiles>
C=c1c(=Cc2[nH]c(=O)[nH]c2O)cc(C)n1-c1ccc(C(=O)N2CCN(S(C)(=O)=O)CC2)cc1F

> <score_type>
oracle

> <origin>
adg

> <m_score__min__energy>
-15.289999999999999

> <m_primary>
energy

> <minimizedAffinity>
-6.82371

> <minimizedRMSD>
2.96051

> <CNNscore>
0.0905481204

> <CNNaffinity>
6.0515427589

> <CNN_VS>
0.5479558110

> <CNNaffinity_variance>
0.1784560829

$$$$
46:0


 31 34  0  0  0  0  0  0  0  0999 V2000
   60.9808   30.9049   47.4434 C   0  0  0  0  0  0  0  0  0  0  0  0
   62.3741   31.0378   47.5498 C   0  0  0  0  0  0  0  0  0  0  0  0
   62.9694   32.3000   47.4898 C   0  0  0  0  0  0  0  0  0  0  0  0
   62.1806   33.4375   47.3061 C   0  0  0  0  0  0  0  0  0  0  0  0
   60.7937   33.3173   47.1988 C   0  0  0  0  0  0  0  0  0  0  0  0
   60.1805   32.0613   47.2877 C   0  0  0  0  0  0  0  0  0  0  0  0
   60.3346   29.2482   45.0555 C   0  0  0  0  0  0  0  0  0  0  0  0
   60.1130   28.8431   46.3146 C   0  0  0  0  0  0  0  0  0  0  0  0
   59.5860   27.6089   46.7106 C   0  0  0  0  0  0  0  0  0  0  0  0
   59.2386   26.5776   45.9158 C   0  0  0  0  0  0  0  0  0  0  0  0
   59.5565   27.6245   48.0993 C   0  0  0  0  0  0  0  0  0  0  0  0
   60.0414   28.8540   48.4915 C   0  0  0  0  0  0  0  0  0  0  0  0
   60.2052   29.2844   49.9179 C   0  0  0  0  0  0  0  0  0  0  0  0
   60.3983   29.5889   47.4125 N   0  0  0  0  0  0  0  0  0  0  0  0
   58.1803   25.6054   46.2430 C   0  0  0  0  0  0  0  0  0  0  0  0
   58.4210   24.3043   46.4743 N   0  0  0  0  0  0  0  0  0  0  0  0
   57.1870   23.7822   46.6464 C   0  0  0  0  0  0  0  0  0  0  0  0
   56.9949   22.5640   46.9004 O   0  0  0  0  0  0  0  0  0  0  0  0
   56.1748   24.6645   46.5129 N   0  0  0  0  0  0  0  0  0  0  0  0
   56.8186   25.8122   46.2462 C   0  0  0  0  0  0  0  0  0  0  0  0
   56.1695   27.0084   45.9640 O   0  0  0  0  0  0  0  0  0  0  0  0
   58.7856   31.9893   47.1895 O   0  0  0  0  0  0  0  0  0  0  0  0
   58.0432   32.6485   46.2018 C   0  0  0  0  0  0  0  0  0  0  0  0
   57.7125   33.8550   46.3628 O   0  0  0  0  0  0  0  0  0  0  0  0
   57.6619   31.9340   44.9658 C   0  0  0  0  0  0  0  0  0  0  0  0
   57.0063   30.6929   45.0287 C   0  0  0  0  0  0  0  0  0  0  0  0
   56.6757   30.0258   43.8475 C   0  0  0  0  0  0  0  0  0  0  0  0
   56.9885   30.5721   42.6406 N   0  0  0  0  0  0  0  0  0  0  0  0
   57.6244   31.7715   42.5506 C   0  0  0  0  0  0  0  0  0  0  0  0
   57.9725   32.4717   43.7070 C   0  0  0  0  0  0  0  0  0  0  0  0
   56.7497   30.0897   41.8163 H   0  0  0  0  0  0  0  0  0  0  0  0
  7  8  2  0
  8  9  1  0
  9 10  2  0
 10 15  1  0
 15 16  1  0
 16 17  1  0
 17 18  2  0
 17 19  1  0
 19 20  1  0
 20 21  1  0
  9 11  1  0
 11 12  2  0
 12 13  1  0
 12 14  1  0
 14  1  1  0
  1  2  2  0
  2  3  1  0
  3  4  2  0
  4  5  1  0
  5  6  2  0
  6 22  1  0
 22 23  1  0
 23 24  2  0
 23 25  1  0
 25 26  2  0
 26 27  1  0
 27 28  2  0
 28 29  1  0
 29 30  2  0
 14  8  1  0
  6  1  1  0
 30 25  1  0
 20 15  2  0
 28 31  1  0
M  CHG 1  16  -1
M  CHG 1  19  -1
M  CHG 1  21  -1
M  CHG 1  28   1
M  END
> <UniqueID>
46

> <SMILES>
C=c1c(=Cc2[n-]c(=O)[n-]c2[O-])cc(C)n1-c1ccccc1OC(=O)c1cc[nH+]cc1

> <Energy>
126.2040565373409

> <Genealogy>
C=c1c(=Cc2[n-]c(=O)[n-]c2[O-])cc(C)n1-c1ccccc1OC(=O)c1cc[nH+]cc1 (protonated)
C=c1c(=Cc2[n-]c(=O)[n-]c2[O-])cc(C)n1-c1ccccc1OC(=O)c1cc[nH+]cc1 (3D coordinates assigned)
C=c1c(=Cc2[n-]c(=O)[n-]c2[O-])cc(C)n1-c1ccccc1OC(=O)c1cc[nH+]cc1 (optimized conformer: 126.2040565373409 kcal/mol)

> <smiles>
C=c1c(=Cc2[nH]c(=O)[nH]c2O)cc(C)n1-c1ccccc1OC(=O)c1ccncc1

> <score_type>
oracle

> <origin>
adg

> <m_score__min__energy>
-15.6

> <m_primary>
energy

> <minimizedAffinity>
-8.45361

> <minimizedRMSD>
1.15517

> <CNNscore>
0.2618375421

> <CNNaffinity>
6.7177734375

> <CNN_VS>
1.7589652538

> <CNNaffinity_variance>
0.0768258050

$$$$
50:0


 31 34  0  0  0  0  0  0  0  0999 V2000
   59.1911   32.6903   46.3728 C   0  0  0  0  0  0  0  0  0  0  0  0
   59.2863   31.3969   46.9035 C   0  0  0  0  0  0  0  0  0  0  0  0
   58.5841   30.3400   46.3181 C   0  0  0  0  0  0  0  0  0  0  0  0
   57.7855   30.5585   45.1829 C   0  0  0  0  0  0  0  0  0  0  0  0
   57.6709   31.8616   44.6701 C   0  0  0  0  0  0  0  0  0  0  0  0
   58.3705   32.9184   45.2611 C   0  0  0  0  0  0  0  0  0  0  0  0
   60.0853   34.0204   47.1035 S   0  0  0  0  0  0  0  0  0  0  0  0
   59.2179   35.2456   47.1767 O   0  0  0  0  0  0  0  0  0  0  0  0
   61.2883   34.3391   46.2613 O   0  0  0  0  0  0  0  0  0  0  0  0
   65.6840   32.0818   50.8463 C   0  0  0  0  0  0  0  0  0  0  0  0
   64.3801   32.4961   50.2326 C   0  0  0  0  0  0  0  0  0  0  0  0
   64.2905   32.6981   48.8365 C   0  0  0  0  0  0  0  0  0  0  0  0
   63.0688   33.0586   48.2467 C   0  0  0  0  0  0  0  0  0  0  0  0
   61.9478   33.1994   49.0685 C   0  0  0  0  0  0  0  0  0  0  0  0
   62.0276   32.9999   50.4195 C   0  0  0  0  0  0  0  0  0  0  0  0
   63.2290   32.6402   51.0312 C   0  0  0  0  0  0  0  0  0  0  0  0
   60.7066   33.2366   51.0658 C   0  0  0  0  0  0  0  0  0  0  0  0
   59.7971   33.6501   49.8846 C   0  0  0  0  0  0  0  0  0  0  0  0
   60.6335   33.5721   48.6896 N   0  0  0  0  0  0  0  0  0  0  0  0
   57.0504   29.4401   44.5428 C   0  0  0  0  0  0  0  0  0  0  0  0
   56.7238   29.5316   43.3300 O   0  0  0  0  0  0  0  0  0  0  0  0
   56.6531   28.2713   45.2728 N   0  0  0  0  0  0  0  0  0  0  0  0
   57.4872   27.1531   45.6053 C   0  0  0  0  0  0  0  0  0  0  0  0
   58.8337   27.3153   45.9594 C   0  0  0  0  0  0  0  0  0  0  0  0
   59.5866   26.1809   46.2647 C   0  0  0  0  0  0  0  0  0  0  0  0
   60.7952   26.2984   46.6036 O   0  0  0  0  0  0  0  0  0  0  0  0
   59.0167   24.9465   46.1965 N   0  0  0  0  0  0  0  0  0  0  0  0
   57.7151   24.8053   45.8255 C   0  0  0  0  0  0  0  0  0  0  0  0
   57.1989   23.6580   45.7550 O   0  0  0  0  0  0  0  0  0  0  0  0
   56.9670   25.9005   45.5303 N   0  0  0  0  0  0  0  0  0  0  0  0
   59.5506   24.1494   46.4174 H   0  0  0  0  0  0  0  0  0  0  0  0
 10 11  1  0
 11 12  2  0
 12 13  1  0
 13 14  2  0
 14 15  1  0
 15 16  2  0
 15 17  1  0
 17 18  1  0
 18 19  1  0
 19  7  1  0
  7  8  2  0
  7  9  2  0
  7  1  1  0
  1  2  2  0
  2  3  1  0
  3  4  2  0
  4 20  1  0
 20 21  2  0
 20 22  1  0
 22 23  1  0
 23 24  2  0
 24 25  1  0
 25 26  2  0
 25 27  1  0
 27 28  1  0
 28 29  2  0
 28 30  1  0
  4  5  1  0
  5  6  2  0
 16 11  1  0
  6  1  1  0
 19 14  1  0
 30 23  1  0
 27 31  1  0
M  CHG 1  22  -1
M  CHG 1  30  -1
M  END
> <UniqueID>
50

> <SMILES>
Cc1ccc2c(c1)CCN2S(=O)(=O)c1ccc(C(=O)[N-]c2cc(=O)[nH]c(=O)[n-]2)cc1

> <Energy>
73.51437193982095

> <Genealogy>
Cc1ccc2c(c1)CCN2S(=O)(=O)c1ccc(C(=O)[N-]c2cc(=O)[nH]c(=O)[n-]2)cc1 (protonated)
Cc1ccc2c(c1)CCN2S(=O)(=O)c1ccc(C(=O)[N-]c2cc(=O)[nH]c(=O)[n-]2)cc1 (3D coordinates assigned)
Cc1ccc2c(c1)CCN2S(=O)(=O)c1ccc(C(=O)[N-]c2cc(=O)[nH]c(=O)[n-]2)cc1 (nonaromatic ring conformer: 73.51437193982095 kcal/mol)

> <smiles>
Cc1ccc2c(c1)CCN2S(=O)(=O)c1ccc(C(=O)Nc2cc(=O)[nH]c(=O)[nH]2)cc1

> <score_type>
oracle

> <origin>
adg

> <m_score__min__energy>
-14.32

> <m_primary>
energy

> <minimizedAffinity>
-7.75659

> <minimizedRMSD>
1.07184

> <CNNscore>
0.4719717503

> <CNNaffinity>
6.8283176422

> <CNN_VS>
3.2227730751

> <CNNaffinity_variance>
0.0740036741

$$$$
53:0


 32 35  0  0  0  0  0  0  0  0999 V2000
   60.8662   29.3559   47.9729 C   0  0  0  0  0  0  0  0  0  0  0  0
   59.9128   29.9196   47.2142 C   0  0  0  0  0  0  0  0  0  0  0  0
   59.3462   29.4033   46.0378 C   0  0  0  0  0  0  0  0  0  0  0  0
   59.4183   28.1765   45.4877 C   0  0  0  0  0  0  0  0  0  0  0  0
   58.6156   30.4376   45.4733 C   0  0  0  0  0  0  0  0  0  0  0  0
   58.6972   31.5063   46.3434 C   0  0  0  0  0  0  0  0  0  0  0  0
   58.0576   32.8432   46.1240 C   0  0  0  0  0  0  0  0  0  0  0  0
   59.4739   31.1892   47.4001 N   0  0  0  0  0  0  0  0  0  0  0  0
   58.4911   27.0633   45.7529 C   0  0  0  0  0  0  0  0  0  0  0  0
   58.8514   25.8690   46.2594 N   0  0  0  0  0  0  0  0  0  0  0  0
   57.6690   25.2448   46.4555 C   0  0  0  0  0  0  0  0  0  0  0  0
   57.5883   24.0754   46.9143 O   0  0  0  0  0  0  0  0  0  0  0  0
   56.5815   25.9767   46.1319 N   0  0  0  0  0  0  0  0  0  0  0  0
   57.1201   27.1310   45.7038 C   0  0  0  0  0  0  0  0  0  0  0  0
   56.3756   28.2275   45.2822 O   0  0  0  0  0  0  0  0  0  0  0  0
   55.4395   28.1858   45.2815 H   0  0  0  0  0  0  0  0  0  0  0  0
   59.8487   32.0883   48.4585 C   0  0  0  0  0  0  0  0  0  0  0  0
   59.1348   32.0617   49.6628 C   0  0  0  0  0  0  0  0  0  0  0  0
   59.4520   32.9465   50.7042 C   0  0  0  0  0  0  0  0  0  0  0  0
   60.5181   33.8444   50.5372 C   0  0  0  0  0  0  0  0  0  0  0  0
   61.2401   33.8705   49.3418 C   0  0  0  0  0  0  0  0  0  0  0  0
   60.9196   32.9910   48.2960 C   0  0  0  0  0  0  0  0  0  0  0  0
   61.6981   33.0400   47.0098 C   0  0  0  0  0  0  0  0  0  0  0  0
   58.6869   32.9206   51.9734 C   0  0  0  0  0  0  0  0  0  0  0  0
   58.4992   33.9998   52.6031 O   0  0  0  0  0  0  0  0  0  0  0  0
   58.1713   31.6884   52.5121 N   0  0  0  0  0  0  0  0  0  0  0  0
   56.7185   31.4965   52.6253 C   0  0  0  0  0  0  0  0  0  0  0  0
   56.3701   30.0481   52.2957 C   0  0  0  0  0  0  0  0  0  0  0  0
   57.1650   29.1427   53.1152 N   0  0  0  0  0  0  0  0  0  0  0  0
   58.5082   29.4505   53.4946 C   0  0  0  0  0  0  0  0  0  0  0  0
   59.2085   28.5693   54.0589 O   0  0  0  0  0  0  0  0  0  0  0  0
   59.0752   30.8298   53.2903 C   0  0  0  0  0  0  0  0  0  0  0  0
  1  2  2  0
  2  3  1  0
  3  4  2  0
  4  9  1  0
  9 10  1  0
 10 11  1  0
 11 12  2  0
 11 13  1  0
 13 14  1  0
 14 15  1  0
  3  5  1  0
  5  6  2  0
  6  7  1  0
  6  8  1  0
  8 17  1  0
 17 18  2  0
 18 19  1  0
 19 24  1  0
 24 25  2  0
 24 26  1  0
 26 27  1  0
 27 28  1  0
 28 29  1  0
 29 30  1  0
 30 31  2  0
 30 32  1  0
 19 20  2  0
 20 21  1  0
 21 22  2  0
 22 23  1  0
  8  2  1  0
 22 17  1  0
 14  9  2  0
 32 26  1  0
 15 16  1  0
M  CHG 1  10  -1
M  CHG 1  13  -1
M  CHG 1  29  -1
M  END
> <UniqueID>
53

> <SMILES>
C=c1c(=Cc2[n-]c(=O)[n-]c2O)cc(C)n1-c1cc(C(=O)N2CC[N-]C(=O)C2)ccc1C

> <Energy>
130.84904800889973

> <Genealogy>
C=c1c(=Cc2[n-]c(=O)[n-]c2O)cc(C)n1-c1cc(C(=O)N2CC[N-]C(=O)C2)ccc1C (protonated)
C=c1c(=Cc2[n-]c(=O)[n-]c2O)cc(C)n1-c1cc(C(=O)N2CC[N-]C(=O)C2)ccc1C (3D coordinates assigned)
C=c1c(=Cc2[n-]c(=O)[n-]c2O)cc(C)n1-c1cc(C(=O)N2CC[N-]C(=O)C2)ccc1C (nonaromatic ring conformer: 130.84904800889973 kcal/mol)

> <smiles>
C=c1c(=Cc2[nH]c(=O)[nH]c2O)cc(C)n1-c1cc(C(=O)N2CCNC(=O)C2)ccc1C

> <score_type>
oracle

> <origin>
adg

> <m_score__min__energy>
-15.15

> <m_primary>
energy

> <minimizedAffinity>
-8.39813

> <minimizedRMSD>
0.91630

> <CNNscore>
0.7654024363

> <CNNaffinity>
7.4325060844

> <CNN_VS>
5.6888580322

> <CNNaffinity_variance>
0.2648490965

$$$$
55:0


 33 36  0  0  0  0  0  0  0  0999 V2000
   59.0143   29.9354   51.5445 C   0  0  0  0  0  0  0  0  0  0  0  0
   58.7553   29.0154   50.5168 C   0  0  0  0  0  0  0  0  0  0  0  0
   59.0699   29.3297   49.1930 C   0  0  0  0  0  0  0  0  0  0  0  0
   59.6610   30.5567   48.8739 C   0  0  0  0  0  0  0  0  0  0  0  0
   59.9094   31.4856   49.9003 C   0  0  0  0  0  0  0  0  0  0  0  0
   59.5959   31.1730   51.2251 C   0  0  0  0  0  0  0  0  0  0  0  0
   58.6531   29.6094   52.9721 C   0  0  0  0  0  0  0  0  0  0  0  0
   56.6423   31.8311   52.5366 C   0  0  0  0  0  0  0  0  0  0  0  0
   56.2954   30.5858   52.9055 C   0  0  0  0  0  0  0  0  0  0  0  0
   55.0035   30.1444   53.2361 C   0  0  0  0  0  0  0  0  0  0  0  0
   53.8005   30.7375   53.1003 C   0  0  0  0  0  0  0  0  0  0  0  0
   55.1510   28.8774   53.7683 C   0  0  0  0  0  0  0  0  0  0  0  0
   56.4873   28.5564   53.6769 C   0  0  0  0  0  0  0  0  0  0  0  0
   57.0781   27.2695   54.1723 C   0  0  0  0  0  0  0  0  0  0  0  0
   57.1913   29.5878   53.1518 N   0  0  0  0  0  0  0  0  0  0  0  0
   52.9023   30.6039   51.9446 C   0  0  0  0  0  0  0  0  0  0  0  0
   53.1203   29.7501   50.9283 N   0  0  0  0  0  0  0  0  0  0  0  0
   52.1409   30.0550   50.0493 C   0  0  0  0  0  0  0  0  0  0  0  0
   51.9986   29.4472   48.9562 O   0  0  0  0  0  0  0  0  0  0  0  0
   51.3325   31.0682   50.4270 N   0  0  0  0  0  0  0  0  0  0  0  0
   51.8386   31.4163   51.6212 C   0  0  0  0  0  0  0  0  0  0  0  0
   51.3547   32.4718   52.3842 O   0  0  0  0  0  0  0  0  0  0  0  0
   59.9285   30.8555   47.4957 N   0  0  0  0  0  0  0  0  0  0  0  0
   59.0627   31.5654   46.6014 C   0  0  0  0  0  0  0  0  0  0  0  0
   58.6339   31.0177   45.5504 O   0  0  0  0  0  0  0  0  0  0  0  0
   58.6113   32.9483   46.9498 C   0  0  0  0  0  0  0  0  0  0  0  0
   59.6657   34.2100   46.1499 S   0  0  0  0  0  0  0  0  0  0  0  0
   61.0732   33.9620   47.2374 C   0  0  0  0  0  0  0  0  0  0  0  0
   60.9604   34.2177   48.6067 C   0  0  0  0  0  0  0  0  0  0  0  0
   62.0704   34.0222   49.4327 C   0  0  0  0  0  0  0  0  0  0  0  0
   63.2433   33.5817   48.9052 N   0  0  0  0  0  0  0  0  0  0  0  0
   63.3732   33.3183   47.5774 C   0  0  0  0  0  0  0  0  0  0  0  0
   62.2863   33.4989   46.7184 C   0  0  0  0  0  0  0  0  0  0  0  0
  8  9  2  0
  9 10  1  0
 10 11  2  0
 11 16  1  0
 16 17  1  0
 17 18  1  0
 18 19  2  0
 18 20  1  0
 20 21  1  0
 21 22  1  0
 10 12  1  0
 12 13  2  0
 13 14  1  0
 13 15  1  0
 15  7  1  0
  7  1  1  0
  1  2  2  0
  2  3  1  0
  3  4  2  0
  4 23  1  0
 23 24  1  0
 24 25  2  0
 24 26  1  0
 26 27  1  0
 27 28  1  0
 28 29  2  0
 29 30  1  0
 30 31  2  0
 31 32  1  0
 32 33  2  0
  4  5  1  0
  5  6  2  0
 15  9  1  0
  6  1  1  0
 21 16  2  0
 33 28  1  0
M  CHG 1  17  -1
M  CHG 1  20  -1
M  CHG 1  22  -1
M  CHG 1  23  -1
M  END
> <UniqueID>
55

> <SMILES>
C=c1/c(=C\c2[n-]c(=O)[n-]c2[O-])cc(C)n1Cc1ccc([N-]C(=O)CSc2ccncc2)cc1

> <Energy>
124.00761549031083

> <Genealogy>
C=c1c(=Cc2[n-]c(=O)[n-]c2[O-])cc(C)n1Cc1ccc([N-]C(=O)CSc2ccncc2)cc1 (protonated)
C=c1/c(=C\c2[n-]c(=O)[n-]c2[O-])cc(C)n1Cc1ccc([N-]C(=O)CSc2ccncc2)cc1 (cis-trans isomerization)
C=c1/c(=C\c2[n-]c(=O)[n-]c2[O-])cc(C)n1Cc1ccc([N-]C(=O)CSc2ccncc2)cc1 (3D coordinates assigned)
C=c1/c(=C\c2[n-]c(=O)[n-]c2[O-])cc(C)n1Cc1ccc([N-]C(=O)CSc2ccncc2)cc1 (optimized conformer: 124.00761549031083 kcal/mol)

> <smiles>
C=c1c(=Cc2[nH]c(=O)[nH]c2O)cc(C)n1Cc1ccc(NC(=O)CSc2ccncc2)cc1

> <score_type>
oracle

> <origin>
adg

> <m_score__min__energy>
-18.460000000000001

> <m_primary>
energy

> <minimizedAffinity>
-5.67914

> <minimizedRMSD>
0.91964

> <CNNscore>
0.1221782565

> <CNNaffinity>
6.2157225609

> <CNN_VS>
0.7594261169

> <CNNaffinity_variance>
0.1394592524

$$$$
60:0


 29 31  0  0  0  0  0  0  0  0999 V2000
   59.5167   26.0881   47.5923 C   0  0  0  0  0  0  0  0  0  0  0  0
   59.2393   27.0838   46.7358 C   0  0  0  0  0  0  0  0  0  0  0  0
   58.4152   27.0128   45.5998 C   0  0  0  0  0  0  0  0  0  0  0  0
   57.8278   25.9655   44.9906 C   0  0  0  0  0  0  0  0  0  0  0  0
   58.3097   28.3047   45.1194 C   0  0  0  0  0  0  0  0  0  0  0  0
   59.0924   29.1014   45.9258 C   0  0  0  0  0  0  0  0  0  0  0  0
   59.3524   30.5548   45.6682 C   0  0  0  0  0  0  0  0  0  0  0  0
   59.6542   28.3680   46.9172 N   0  0  0  0  0  0  0  0  0  0  0  0
   57.2993   24.7637   45.6566 C   0  0  0  0  0  0  0  0  0  0  0  0
   57.9656   23.6001   45.7742 N   0  0  0  0  0  0  0  0  0  0  0  0
   57.0448   22.7678   46.3088 C   0  0  0  0  0  0  0  0  0  0  0  0
   57.2964   21.5678   46.5878 O   0  0  0  0  0  0  0  0  0  0  0  0
   55.8286   23.3212   46.5099 N   0  0  0  0  0  0  0  0  0  0  0  0
   56.0059   24.5802   46.0771 C   0  0  0  0  0  0  0  0  0  0  0  0
   55.0021   25.5401   46.0607 O   0  0  0  0  0  0  0  0  0  0  0  0
   60.5076   28.8923   47.9977 C   0  0  0  0  0  0  0  0  0  0  0  0
   59.7021   29.3159   49.2443 C   0  0  0  0  0  0  0  0  0  0  0  0
   60.3966   30.3724   50.1215 C   0  0  0  0  0  0  0  0  0  0  0  0
   60.6247   31.6697   49.3961 C   0  0  0  0  0  0  0  0  0  0  0  0
   61.7121   31.8594   48.7836 O   0  0  0  0  0  0  0  0  0  0  0  0
   59.5944   32.6682   49.3566 N   0  0  0  0  0  0  0  0  0  0  0  0
   58.7209   32.4649   49.7625 H   0  0  0  0  0  0  0  0  0  0  0  0
   59.7951   33.9749   48.7361 C   0  0  0  0  0  0  0  0  0  0  0  0
   59.2172   33.9888   47.3479 C   0  0  0  0  0  0  0  0  0  0  0  0
   57.9586   33.4174   47.0907 C   0  0  0  0  0  0  0  0  0  0  0  0
   57.4207   33.4536   45.8010 C   0  0  0  0  0  0  0  0  0  0  0  0
   58.1308   34.0611   44.7603 C   0  0  0  0  0  0  0  0  0  0  0  0
   59.3808   34.6329   45.0106 C   0  0  0  0  0  0  0  0  0  0  0  0
   59.9233   34.5993   46.2992 C   0  0  0  0  0  0  0  0  0  0  0  0
  1  2  2  0
  2  3  1  0
  3  4  2  0
  4  9  1  0
  9 10  1  0
 10 11  1  0
 11 12  2  0
 11 13  1  0
 13 14  1  0
 14 15  1  0
  3  5  1  0
  5  6  2  0
  6  7  1  0
  6  8  1  0
  8 16  1  0
 16 17  1  0
 17 18  1  0
 18 19  1  0
 19 20  2  0
 19 21  1  0
 21 23  1  0
 23 24  1  0
 24 25  2  0
 25 26  1  0
 26 27  2  0
 27 28  1  0
 28 29  2  0
  8  2  1  0
 29 24  1  0
 14  9  2  0
 21 22  1  0
M  CHG 1  10  -1
M  CHG 1  13  -1
M  CHG 1  15  -1
M  END
> <UniqueID>
59

> <SMILES>
C=c1c(=Cc2[n-]c(=O)[n-]c2[O-])cc(C)n1CCCC(=O)NCc1ccccc1

> <Energy>
111.10970162077157

> <Genealogy>
C=c1c(=Cc2[n-]c(=O)[n-]c2[O-])cc(C)n1CCCC(=O)NCc1ccccc1 (protonated)
C=c1c(=Cc2[n-]c(=O)[n-]c2[O-])cc(C)n1CCCC(=O)NCc1ccccc1 (3D coordinates assigned)
C=c1c(=Cc2[n-]c(=O)[n-]c2[O-])cc(C)n1CCCC(=O)NCc1ccccc1 (optimized conformer: 111.10970162077157 kcal/mol)

> <smiles>
C=c1c(=Cc2[nH]c(=O)[nH]c2O)cc(C)n1CCCC(=O)NCc1ccccc1

> <score_type>
oracle

> <origin>
adg

> <m_score__min__energy>
-16.760000000000002

> <m_primary>
energy

> <minimizedAffinity>
-7.53907

> <minimizedRMSD>
1.14733

> <CNNscore>
0.1330503076

> <CNNaffinity>
6.3256645203

> <CNN_VS>
0.8416315913

> <CNNaffinity_variance>
0.0222574417

$$$$
82:0


 33 37  0  0  0  0  0  0  0  0999 V2000
   58.6282   30.8757   45.2808 C   0  0  0  0  0  0  0  0  0  0  0  0
   58.0737   31.4436   44.1260 C   0  0  0  0  0  0  0  0  0  0  0  0
   57.9211   32.8275   44.0269 C   0  0  0  0  0  0  0  0  0  0  0  0
   58.3127   33.6533   45.0839 C   0  0  0  0  0  0  0  0  0  0  0  0
   58.8501   33.0986   46.2586 C   0  0  0  0  0  0  0  0  0  0  0  0
   59.0155   31.7056   46.3425 C   0  0  0  0  0  0  0  0  0  0  0  0
   59.2673   33.9753   47.3725 C   0  0  0  0  0  0  0  0  0  0  0  0
   58.9270   35.1892   47.3676 O   0  0  0  0  0  0  0  0  0  0  0  0
   60.0291   33.4574   48.4762 N   0  0  0  0  0  0  0  0  0  0  0  0
   61.4187   33.1673   48.4546 C   0  0  0  0  0  0  0  0  0  0  0  0
   62.2227   32.9565   47.3277 C   0  0  0  0  0  0  0  0  0  0  0  0
   63.5797   32.6514   47.5231 C   0  0  0  0  0  0  0  0  0  0  0  0
   64.1029   32.5508   48.8277 C   0  0  0  0  0  0  0  0  0  0  0  0
   63.2697   32.7494   49.9400 C   0  0  0  0  0  0  0  0  0  0  0  0
   61.9253   33.0555   49.7193 C   0  0  0  0  0  0  0  0  0  0  0  0
   60.8614   33.2854   50.7332 C   0  0  0  0  0  0  0  0  0  0  0  0
   59.6040   33.5660   49.8753 C   0  0  0  0  0  0  0  0  0  0  0  0
   56.8502   28.7521   44.1804 C   0  0  0  0  0  0  0  0  0  0  0  0
   57.9622   28.4924   44.8868 C   0  0  0  0  0  0  0  0  0  0  0  0
   58.4678   27.2271   45.2026 C   0  0  0  0  0  0  0  0  0  0  0  0
   57.9537   26.0317   44.8520 C   0  0  0  0  0  0  0  0  0  0  0  0
   59.6515   27.4415   45.8960 C   0  0  0  0  0  0  0  0  0  0  0  0
   59.8090   28.8088   45.9966 C   0  0  0  0  0  0  0  0  0  0  0  0
   60.9859   29.4792   46.6383 C   0  0  0  0  0  0  0  0  0  0  0  0
   58.7895   29.4500   45.3793 N   0  0  0  0  0  0  0  0  0  0  0  0
   57.2910   25.1102   45.7942 C   0  0  0  0  0  0  0  0  0  0  0  0
   56.0131   25.1960   46.3120 C   0  0  0  0  0  0  0  0  0  0  0  0
   55.0981   26.2140   46.0671 O   0  0  0  0  0  0  0  0  0  0  0  0
   55.7359   24.1145   47.0652 N   0  0  0  0  0  0  0  0  0  0  0  0
   56.8644   23.3817   46.9637 C   0  0  0  0  0  0  0  0  0  0  0  0
   57.0102   22.2684   47.5328 O   0  0  0  0  0  0  0  0  0  0  0  0
   57.8173   23.9417   46.1937 N   0  0  0  0  0  0  0  0  0  0  0  0
   58.7038   23.5750   45.9727 H   0  0  0  0  0  0  0  0  0  0  0  0
 18 19  2  0
 19 20  1  0
 20 21  2  0
 21 26  1  0
 26 27  2  0
 27 28  1  0
 27 29  1  0
 29 30  1  0
 30 31  2  0
 30 32  1  0
 20 22  1  0
 22 23  2  0
 23 24  1  0
 23 25  1  0
 25  1  1  0
  1  2  2  0
  2  3  1  0
  3  4  2  0
  4  5  1  0
  5  7  1  0
  7  8  2  0
  7  9  1  0
  9 10  1  0
 10 11  2  0
 11 12  1  0
 12 13  2  0
 13 14  1  0
 14 15  2  0
 15 16  1  0
 16 17  1  0
  5  6  2  0
 25 19  1  0
  6  1  1  0
 32 26  1  0
 17  9  1  0
 15 10  1  0
 32 33  1  0
M  CHG 1  28  -1
M  CHG 1  29  -1
M  END
> <UniqueID>
80

> <SMILES>
C=c1/c(=C/c2[nH]c(=O)[n-]c2[O-])cc(C)n1-c1cccc(C(=O)N2CCc3ccccc32)c1

> <Energy>
149.80770332553882

> <Genealogy>
C=c1c(=Cc2[nH]c(=O)[n-]c2[O-])cc(C)n1-c1cccc(C(=O)N2CCc3ccccc32)c1 (protonated)
C=c1/c(=C/c2[nH]c(=O)[n-]c2[O-])cc(C)n1-c1cccc(C(=O)N2CCc3ccccc32)c1 (cis-trans isomerization)
C=c1/c(=C/c2[nH]c(=O)[n-]c2[O-])cc(C)n1-c1cccc(C(=O)N2CCc3ccccc32)c1 (3D coordinates assigned)
C=c1/c(=C/c2[nH]c(=O)[n-]c2[O-])cc(C)n1-c1cccc(C(=O)N2CCc3ccccc32)c1 (nonaromatic ring conformer: 149.80770332553882 kcal/mol)

> <smiles>
C=c1c(=Cc2[nH]c(=O)[nH]c2O)cc(C)n1-c1cccc(C(=O)N2CCc3ccccc32)c1

> <score_type>
oracle

> <origin>
adg

> <m_score__min__energy>
-16.629999999999999

> <m_primary>
energy

> <minimizedAffinity>
-9.89037

> <minimizedRMSD>
0.61014

> <CNNscore>
0.2619760633

> <CNNaffinity>
7.0061049461

> <CNN_VS>
1.8354318142

> <CNNaffinity_variance>
0.1039480045

$$$$
84:0


 26 28  0  0  0  0  0  0  0  0999 V2000
   58.6102   31.4343   46.2046 C   0  0  0  0  0  0  0  0  0  0  0  0
   58.0570   31.5239   44.9192 C   0  0  0  0  0  0  0  0  0  0  0  0
   58.0186   32.7467   44.2471 C   0  0  0  0  0  0  0  0  0  0  0  0
   58.5131   33.8978   44.8621 C   0  0  0  0  0  0  0  0  0  0  0  0
   59.0406   33.8304   46.1525 C   0  0  0  0  0  0  0  0  0  0  0  0
   59.0998   32.6033   46.8378 C   0  0  0  0  0  0  0  0  0  0  0  0
   59.5724   32.5860   48.2412 C   0  0  0  0  0  0  0  0  0  0  0  0
   58.7305   32.4020   49.1623 O   0  0  0  0  0  0  0  0  0  0  0  0
   60.9643   32.7800   48.5744 N   0  0  0  0  0  0  0  0  0  0  0  0
   61.3351   33.1507   49.9479 C   0  0  0  0  0  0  0  0  0  0  0  0
   62.6401   33.9542   49.9453 C   0  0  0  0  0  0  0  0  0  0  0  0
   63.7968   33.2086   49.2482 C   0  0  0  0  0  0  0  0  0  0  0  0
   63.3282   32.0865   48.3081 C   0  0  0  0  0  0  0  0  0  0  0  0
   62.0202   32.4507   47.5987 C   0  0  0  0  0  0  0  0  0  0  0  0
   60.3648   29.2752   45.5483 O   0  0  0  0  0  0  0  0  0  0  0  0
   59.5639   29.1199   46.5098 C   0  0  0  0  0  0  0  0  0  0  0  0
   58.6314   30.1544   46.8566 N   0  0  0  0  0  0  0  0  0  0  0  0
   57.9782   29.9793   47.5720 H   0  0  0  0  0  0  0  0  0  0  0  0
   59.5559   27.8208   47.2574 C   0  0  0  0  0  0  0  0  0  0  0  0
   58.8324   26.7754   46.4664 C   0  0  0  0  0  0  0  0  0  0  0  0
   59.3081   25.1647   46.3260 S   0  0  0  0  0  0  0  0  0  0  0  0
   58.0508   24.8005   45.2711 C   0  0  0  0  0  0  0  0  0  0  0  0
   57.8479   23.6622   44.7774 O   0  0  0  0  0  0  0  0  0  0  0  0
   57.2706   25.8683   45.0027 N   0  0  0  0  0  0  0  0  0  0  0  0
   57.7119   26.9710   45.6640 C   0  0  0  0  0  0  0  0  0  0  0  0
   57.0742   28.2006   45.5382 O   0  0  0  0  0  0  0  0  0  0  0  0
 15 16  2  0
 16 19  1  0
 19 20  1  0
 20 21  1  0
 21 22  1  0
 22 23  2  0
 22 24  1  0
 24 25  1  0
 25 26  1  0
 16 17  1  0
 17  1  1  0
  1  2  2  0
  2  3  1  0
  3  4  2  0
  4  5  1  0
  5  6  2  0
  6  7  1  0
  7  8  2  0
  7  9  1  0
  9 10  1  0
 10 11  1  0
 11 12  1  0
 12 13  1  0
 13 14  1  0
 25 20  2  0
  6  1  1  0
 14  9  1  0
 17 18  1  0
M  CHG 1  24  -1
M  CHG 1  26  -1
M  END
> <UniqueID>
82

> <SMILES>
O=C(Cc1sc(=O)[n-]c1[O-])Nc1ccccc1C(=O)N1CCCCC1

> <Energy>
82.8819862292696

> <Genealogy>
O=C(Cc1sc(=O)[n-]c1[O-])Nc1ccccc1C(=O)N1CCCCC1 (protonated)
O=C(Cc1sc(=O)[n-]c1[O-])Nc1ccccc1C(=O)N1CCCCC1 (3D coordinates assigned)
O=C(Cc1sc(=O)[n-]c1[O-])Nc1ccccc1C(=O)N1CCCCC1 (nonaromatic ring conformer: 82.8819862292696 kcal/mol)

> <smiles>
O=C(Cc1sc(=O)[nH]c1O)Nc1ccccc1C(=O)N1CCCCC1

> <score_type>
oracle

> <origin>
adg

> <m_score__min__energy>
-14.470000000000001

> <m_primary>
energy

> <minimizedAffinity>
-7.72041

> <minimizedRMSD>
1.90920

> <CNNscore>
0.7492522597

> <CNNaffinity>
6.8500385284

> <CNN_VS>
5.1324067116

> <CNNaffinity_variance>
0.2239371091

$$$$
87:0


 26 28  0  0  0  0  0  0  0  0999 V2000
   57.8424   25.7765   46.5874 C   0  0  0  0  0  0  0  0  0  0  0  0
   59.1185   26.1792   46.4294 N   0  0  0  0  0  0  0  0  0  0  0  0
   59.0573   27.4088   45.8721 C   0  0  0  0  0  0  0  0  0  0  0  0
   60.2819   28.2006   45.5421 C   0  0  0  0  0  0  0  0  0  0  0  0
   57.7378   27.7914   45.6490 C   0  0  0  0  0  0  0  0  0  0  0  0
   56.9763   26.7328   46.0947 C   0  0  0  0  0  0  0  0  0  0  0  0
   55.5929   26.6233   46.0115 O   0  0  0  0  0  0  0  0  0  0  0  0
   59.5312   23.3846   45.1440 C   0  0  0  0  0  0  0  0  0  0  0  0
   58.3474   22.8432   45.4484 C   0  0  0  0  0  0  0  0  0  0  0  0
   57.3907   23.3410   46.3381 C   0  0  0  0  0  0  0  0  0  0  0  0
   57.4875   24.4433   47.1049 C   0  0  0  0  0  0  0  0  0  0  0  0
   56.3364   22.4363   46.3136 C   0  0  0  0  0  0  0  0  0  0  0  0
   56.6952   21.4446   45.4193 C   0  0  0  0  0  0  0  0  0  0  0  0
   55.8536   20.2683   45.0436 C   0  0  0  0  0  0  0  0  0  0  0  0
   57.9069   21.6958   44.8920 N   0  0  0  0  0  0  0  0  0  0  0  0
   58.3818   21.1470   44.2269 H   0  0  0  0  0  0  0  0  0  0  0  0
   57.2300   29.0381   45.0383 C   0  0  0  0  0  0  0  0  0  0  0  0
   55.9872   29.2139   44.9298 O   0  0  0  0  0  0  0  0  0  0  0  0
   58.1425   30.0616   44.6241 N   0  0  0  0  0  0  0  0  0  0  0  0
   58.2627   31.3795   45.1809 C   0  0  0  0  0  0  0  0  0  0  0  0
   57.9879   32.5363   44.4291 C   0  0  0  0  0  0  0  0  0  0  0  0
   58.1426   33.8016   45.0033 C   0  0  0  0  0  0  0  0  0  0  0  0
   58.5828   33.9227   46.3237 C   0  0  0  0  0  0  0  0  0  0  0  0
   58.8782   32.7788   47.0700 C   0  0  0  0  0  0  0  0  0  0  0  0
   59.3188   32.8965   48.3462 F   0  0  0  0  0  0  0  0  0  0  0  0
   58.7255   31.5125   46.4968 C   0  0  0  0  0  0  0  0  0  0  0  0
  8  9  2  0
  9 10  1  0
 10 11  2  0
 11  1  1  0
  1  2  1  0
  2  3  1  0
  3  4  1  0
  3  5  2  0
  5 17  1  0
 17 18  2  0
 17 19  1  0
 19 20  1  0
 20 21  2  0
 21 22  1  0
 22 23  2  0
 23 24  1  0
 24 25  1  0
 24 26  2  0
  5  6  1  0
  6  7  1  0
 10 12  1  0
 12 13  2  0
 13 14  1  0
 13 15  1  0
 15  9  1  0
  6  1  2  0
 26 20  1  0
 15 16  1  0
M  CHG 1   2  -1
M  CHG 1   7  -1
M  CHG 1  19  -1
M  END
> <UniqueID>
85

> <SMILES>
C=c1[nH]c(C)c/c1=C\c1[n-]c(C)c(C(=O)[N-]c2cccc(F)c2)c1[O-]

> <Energy>
104.34165155248773

> <Genealogy>
C=c1[nH]c(C)cc1=Cc1[n-]c(C)c(C(=O)[N-]c2cccc(F)c2)c1[O-] (protonated)
C=c1[nH]c(C)c/c1=C\c1[n-]c(C)c(C(=O)[N-]c2cccc(F)c2)c1[O-] (cis-trans isomerization)
C=c1[nH]c(C)c/c1=C\c1[n-]c(C)c(C(=O)[N-]c2cccc(F)c2)c1[O-] (3D coordinates assigned)
C=c1[nH]c(C)c/c1=C\c1[n-]c(C)c(C(=O)[N-]c2cccc(F)c2)c1[O-] (optimized conformer: 104.34165155248773 kcal/mol)

> <smiles>
C=c1[nH]c(C)cc1=Cc1[nH]c(C)c(C(=O)Nc2cccc(F)c2)c1O

> <score_type>
oracle

> <origin>
adg

> <m_score__min__energy>
-14.609999999999999

> <m_primary>
energy

> <minimizedAffinity>
-7.37278

> <minimizedRMSD>
0.63104

> <CNNscore>
0.3404796422

> <CNNaffinity>
6.3752360344

> <CNN_VS>
2.1706380844

> <CNNaffinity_variance>
0.0050787744

$$$$
93:0


 28 30  0  0  0  0  0  0  0  0999 V2000
   58.9146   29.3158   46.8928 C   0  0  0  0  0  0  0  0  0  0  0  0
   58.9188   30.1968   45.8131 C   0  0  0  0  0  0  0  0  0  0  0  0
   58.8883   31.5328   46.0232 N   0  0  0  0  0  0  0  0  0  0  0  0
   58.8576   32.1031   47.2561 C   0  0  0  0  0  0  0  0  0  0  0  0
   58.8051   33.4116   47.2761 N   0  0  0  0  0  0  0  0  0  0  0  0
   58.8852   31.2483   48.4055 C   0  0  0  0  0  0  0  0  0  0  0  0
   58.9535   31.7534   49.8268 C   0  0  0  0  0  0  0  0  0  0  0  0
   58.9150   29.8463   48.1939 C   0  0  0  0  0  0  0  0  0  0  0  0
   58.9745   28.9724   49.2780 O   0  0  0  0  0  0  0  0  0  0  0  0
   57.7275   25.7566   46.3026 C   0  0  0  0  0  0  0  0  0  0  0  0
   58.9502   25.0870   46.1605 C   0  0  0  0  0  0  0  0  0  0  0  0
   60.1523   25.7908   46.2627 C   0  0  0  0  0  0  0  0  0  0  0  0
   60.1414   27.1663   46.5048 C   0  0  0  0  0  0  0  0  0  0  0  0
   58.9242   27.8521   46.6506 C   0  0  0  0  0  0  0  0  0  0  0  0
   57.7182   27.1392   46.5365 C   0  0  0  0  0  0  0  0  0  0  0  0
   54.9165   25.9995   45.9095 N   0  0  0  0  0  0  0  0  0  0  0  0
   56.2096   24.8795   46.1501 S   0  0  0  0  0  0  0  0  0  0  0  0
   56.2782   23.9379   44.9801 O   0  0  0  0  0  0  0  0  0  0  0  0
   55.9583   24.0793   47.3978 O   0  0  0  0  0  0  0  0  0  0  0  0
   54.0373   25.4900   45.8213 H   0  0  0  0  0  0  0  0  0  0  0  0
   59.7548   34.4754   47.6052 C   0  0  0  0  0  0  0  0  0  0  0  0
   61.1411   33.9378   47.8828 C   0  0  0  0  0  0  0  0  0  0  0  0
   61.6652   33.8587   49.1894 C   0  0  0  0  0  0  0  0  0  0  0  0
   60.9046   34.2411   50.2890 O   0  0  0  0  0  0  0  0  0  0  0  0
   62.9352   33.4146   49.3894 N   0  0  0  0  0  0  0  0  0  0  0  0
   63.7426   33.0588   48.3561 C   0  0  0  0  0  0  0  0  0  0  0  0
   63.2837   33.1609   47.0449 C   0  0  0  0  0  0  0  0  0  0  0  0
   61.9868   33.6155   46.8085 C   0  0  0  0  0  0  0  0  0  0  0  0
 16 17  1  0
 17 18  2  0
 17 19  2  0
 17 10  1  0
 10 11  2  0
 11 12  1  0
 12 13  2  0
 13 14  1  0
 14  1  1  0
  1  2  2  0
  2  3  1  0
  3  4  1  0
  4  5  2  0
  5 21  1  0
 21 22  1  0
 22 23  2  0
 23 24  1  0
 23 25  1  0
 25 26  2  0
 26 27  1  0
 27 28  2  0
  4  6  1  0
  6  7  1  0
  6  8  2  0
  8  9  1  0
 14 15  2  0
 15 10  1  0
  8  1  1  0
 28 22  1  0
 16 20  1  0
M  CHG 1   3  -1
M  CHG 1   9  -1
M  CHG 1  16  -1
M  CHG 1  24  -1
M  END
> <UniqueID>
90

> <SMILES>
Cc1c([O-])c(-c2cccc(S([NH-])(=O)=O)c2)c[n-]/c1=N/Cc1cccnc1[O-]

> <Energy>
67.45136553007063

> <Genealogy>
Cc1c([O-])c(-c2cccc(S([NH-])(=O)=O)c2)c[n-]c1=NCc1cccnc1[O-] (protonated)
Cc1c([O-])c(-c2cccc(S([NH-])(=O)=O)c2)c[n-]/c1=N/Cc1cccnc1[O-] (cis-trans isomerization)
Cc1c([O-])c(-c2cccc(S([NH-])(=O)=O)c2)c[n-]/c1=N/Cc1cccnc1[O-] (3D coordinates assigned)
Cc1c([O-])c(-c2cccc(S([NH-])(=O)=O)c2)c[n-]/c1=N/Cc1cccnc1[O-] (optimized conformer: 67.45136553007063 kcal/mol)

> <smiles>
Cc1c(O)c(-c2cccc(S(N)(=O)=O)c2)c[nH]c1=NCc1cccnc1O

> <score_type>
oracle

> <origin>
adg

> <m_score__min__energy>
-16.039999999999999

> <m_primary>
energy

> <minimizedAffinity>
-8.77786

> <minimizedRMSD>
0.28275

> <CNNscore>
0.8385229111

> <CNNaffinity>
7.3503594398

> <CNN_VS>
6.1634449959

> <CNNaffinity_variance>
0.3520337641

$$$$
6:0


 23 25  0  0  0  0  0  0  0  0999 V2000
   55.6583   29.5835   53.4255 C   0  0  0  0  0  0  0  0  0  0  0  0
   56.3394   28.7300   54.3145 C   0  0  0  0  0  0  0  0  0  0  0  0
   55.7935   27.4912   54.6644 C   0  0  0  0  0  0  0  0  0  0  0  0
   56.4576   26.6696   55.5219 N   0  0  0  0  0  0  0  0  0  0  0  0
   55.9559   25.4587   55.8844 C   0  0  0  0  0  0  0  0  0  0  0  0
   54.7291   25.0266   55.3761 C   0  0  0  0  0  0  0  0  0  0  0  0
   54.0228   25.8472   54.4941 C   0  0  0  0  0  0  0  0  0  0  0  0
   54.5503   27.0917   54.1292 C   0  0  0  0  0  0  0  0  0  0  0  0
   53.8698   27.9399   53.2468 C   0  0  0  0  0  0  0  0  0  0  0  0
   54.4214   29.1778   52.8902 C   0  0  0  0  0  0  0  0  0  0  0  0
   56.1898   30.8651   53.0551 N   0  0  0  0  0  0  0  0  0  0  0  0
   58.0771   32.9322   52.3830 C   0  0  0  0  0  0  0  0  0  0  0  0
   57.8493   31.3543   53.1734 S   0  0  0  0  0  0  0  0  0  0  0  0
   58.2097   31.4875   54.6252 O   0  0  0  0  0  0  0  0  0  0  0  0
   58.7378   30.3170   52.5467 O   0  0  0  0  0  0  0  0  0  0  0  0
   53.5297   30.2253   51.7351 S   0  0  0  0  0  0  0  0  0  0  0  0
   52.3647   30.7675   52.9839 C   0  0  0  0  0  0  0  0  0  0  0  0
   52.3341   30.2192   54.5749 S   0  0  0  0  0  0  0  0  0  0  0  0
   51.0202   31.1980   54.9621 C   0  0  0  0  0  0  0  0  0  0  0  0
   50.4826   31.2420   56.0983 O   0  0  0  0  0  0  0  0  0  0  0  0
   50.5973   31.9423   53.9189 N   0  0  0  0  0  0  0  0  0  0  0  0
   51.3496   31.7022   52.8147 C   0  0  0  0  0  0  0  0  0  0  0  0
   51.1161   32.3572   51.6124 O   0  0  0  0  0  0  0  0  0  0  0  0
 12 13  1  0
 13 14  2  0
 13 15  2  0
 13 11  1  0
 11  1  1  0
  1  2  2  0
  2  3  1  0
  3  4  2  0
  4  5  1  0
  5  6  2  0
  6  7  1  0
  7  8  2  0
  8  9  1  0
  9 10  2  0
 10 16  1  0
 16 17  1  0
 17 18  1  0
 18 19  1  0
 19 20  2  0
 19 21  1  0
 21 22  1  0
 22 23  1  0
 10  1  1  0
 22 17  2  0
  8  3  1  0
M  CHG 1  11  -1
M  CHG 1  21  -1
M  CHG 1  23  -1
M  END
> <UniqueID>
7

> <SMILES>
CS(=O)(=O)[N-]c1cc2ncccc2cc1Sc1sc(=O)[n-]c1[O-]

> <Energy>
62.942237179349256

> <Genealogy>
CS(=O)(=O)[N-]c1cc2ncccc2cc1Sc1sc(=O)[n-]c1[O-] (protonated)
CS(=O)(=O)[N-]c1cc2ncccc2cc1Sc1sc(=O)[n-]c1[O-] (3D coordinates assigned)
CS(=O)(=O)[N-]c1cc2ncccc2cc1Sc1sc(=O)[n-]c1[O-] (optimized conformer: 62.942237179349256 kcal/mol)

> <smiles>
CS(=O)(=O)Nc1cc2ncccc2cc1Sc1sc(=O)[nH]c1O

> <score_type>
oracle

> <origin>
adg

> <m_score__min__energy>
-15.050000000000001

> <m_primary>
energy

> <minimizedAffinity>
-3.91640

> <minimizedRMSD>
1.63421

> <CNNscore>
0.5426645279

> <CNNaffinity>
5.3670687675

> <CNN_VS>
2.9125177860

> <CNNaffinity_variance>
0.3714681864

$$$$
25:0


 28 30  0  0  0  0  0  0  0  0999 V2000
   58.9417   30.2298   46.8995 N   0  0  0  0  0  0  0  0  0  0  0  0
   58.6695   31.0874   45.8684 C   0  0  0  0  0  0  0  0  0  0  0  0
   59.0878   32.2759   45.8898 O   0  0  0  0  0  0  0  0  0  0  0  0
   57.9546   30.6629   44.7979 N   0  0  0  0  0  0  0  0  0  0  0  0
   57.4928   29.3929   44.7088 C   0  0  0  0  0  0  0  0  0  0  0  0
   56.7813   29.0193   43.5738 O   0  0  0  0  0  0  0  0  0  0  0  0
   57.7497   28.4745   45.7421 C   0  0  0  0  0  0  0  0  0  0  0  0
   58.4878   28.9352   46.8543 C   0  0  0  0  0  0  0  0  0  0  0  0
   58.7081   28.1603   47.8279 O   0  0  0  0  0  0  0  0  0  0  0  0
   61.1909   31.5788   50.2572 C   0  0  0  0  0  0  0  0  0  0  0  0
   61.8364   31.0236   49.1461 C   0  0  0  0  0  0  0  0  0  0  0  0
   61.1006   30.5807   48.0434 C   0  0  0  0  0  0  0  0  0  0  0  0
   59.7026   30.6900   48.0363 C   0  0  0  0  0  0  0  0  0  0  0  0
   59.0510   31.2483   49.1462 C   0  0  0  0  0  0  0  0  0  0  0  0
   59.7868   31.6912   50.2489 C   0  0  0  0  0  0  0  0  0  0  0  0
   61.9834   32.0082   51.3363 O   0  0  0  0  0  0  0  0  0  0  0  0
   62.8316   34.0663   50.3590 C   0  0  0  0  0  0  0  0  0  0  0  0
   62.3386   33.3618   51.6192 C   0  0  0  0  0  0  0  0  0  0  0  0
   57.2527   27.0739   45.6620 C   0  0  0  0  0  0  0  0  0  0  0  0
   56.1113   26.7825   46.1109 O   0  0  0  0  0  0  0  0  0  0  0  0
   58.0457   26.0644   45.0222 N   0  0  0  0  0  0  0  0  0  0  0  0
   57.6733   24.6962   44.7994 C   0  0  0  0  0  0  0  0  0  0  0  0
   56.9114   24.3828   43.6649 C   0  0  0  0  0  0  0  0  0  0  0  0
   56.5442   23.0605   43.4001 C   0  0  0  0  0  0  0  0  0  0  0  0
   56.9520   22.0362   44.2593 C   0  0  0  0  0  0  0  0  0  0  0  0
   57.7352   22.3330   45.3778 C   0  0  0  0  0  0  0  0  0  0  0  0
   58.1561   21.3118   46.2203 O   0  0  0  0  0  0  0  0  0  0  0  0
   58.1015   23.6574   45.6473 C   0  0  0  0  0  0  0  0  0  0  0  0
 17 18  1  0
 18 16  1  0
 16 10  1  0
 10 11  2  0
 11 12  1  0
 12 13  2  0
 13  1  1  0
  1  2  1  0
  2  3  2  0
  2  4  1  0
  4  5  1  0
  5  6  1  0
  5  7  2  0
  7 19  1  0
 19 20  2  0
 19 21  1  0
 21 22  1  0
 22 23  2  0
 23 24  1  0
 24 25  2  0
 25 26  1  0
 26 27  1  0
 26 28  2  0
  7  8  1  0
  8  9  2  0
 13 14  1  0
 14 15  2  0
 15 10  1  0
  8  1  1  0
 28 22  1  0
M  CHG 1   4  -1
M  CHG 1   6  -1
M  CHG 1  21  -1
M  CHG 1  27  -1
M  END
> <UniqueID>
24

> <SMILES>
CCOc1ccc(-n2c(=O)[n-]c([O-])c(C(=O)[N-]c3cccc([O-])c3)c2=O)cc1

> <Energy>
61.16936205328815

> <Genealogy>
CCOc1ccc(-n2c(=O)[n-]c([O-])c(C(=O)[N-]c3cccc([O-])c3)c2=O)cc1 (protonated)
CCOc1ccc(-n2c(=O)[n-]c([O-])c(C(=O)[N-]c3cccc([O-])c3)c2=O)cc1 (3D coordinates assigned)
CCOc1ccc(-n2c(=O)[n-]c([O-])c(C(=O)[N-]c3cccc([O-])c3)c2=O)cc1 (optimized conformer: 61.16936205328815 kcal/mol)

> <smiles>
CCOc1ccc(-n2c(=O)[nH]c(O)c(C(=O)Nc3cccc(O)c3)c2=O)cc1

> <score_type>
oracle

> <origin>
adg

> <m_score__min__energy>
-15.93

> <m_primary>
energy

> <minimizedAffinity>
-7.09860

> <minimizedRMSD>
1.49458

> <CNNscore>
0.2998938262

> <CNNaffinity>
6.5013051033

> <CNN_VS>
1.9497013092

> <CNNaffinity_variance>
0.4060190022

$$$$
27:0


 35 38  0  0  0  0  0  0  0  0999 V2000
   58.7855   30.0889   48.2753 O   0  0  0  0  0  0  0  0  0  0  0  0
   58.6043   29.0917   47.5271 C   0  0  0  0  0  0  0  0  0  0  0  0
   58.3982   29.2995   46.0604 C   0  0  0  0  0  0  0  0  0  0  0  0
   58.3986   30.7299   45.7556 N   0  0  0  0  0  0  0  0  0  0  0  0
   59.3278   31.6508   46.0742 C   0  0  0  0  0  0  0  0  0  0  0  0
   60.5388   31.3938   46.7152 O   0  0  0  0  0  0  0  0  0  0  0  0
   58.8845   32.8896   45.6667 C   0  0  0  0  0  0  0  0  0  0  0  0
   57.6704   32.7679   45.0881 N   0  0  0  0  0  0  0  0  0  0  0  0
   57.4099   31.4443   45.1750 C   0  0  0  0  0  0  0  0  0  0  0  0
   56.3389   30.9323   44.7540 O   0  0  0  0  0  0  0  0  0  0  0  0
   60.7631   30.5174   46.9590 H   0  0  0  0  0  0  0  0  0  0  0  0
   59.6376   34.1832   45.7645 C   0  0  0  0  0  0  0  0  0  0  0  0
   59.8305   34.6162   47.2234 C   0  0  0  0  0  0  0  0  0  0  0  0
   61.1312   34.1047   47.7900 C   0  0  0  0  0  0  0  0  0  0  0  0
   62.2189   33.8368   46.9422 C   0  0  0  0  0  0  0  0  0  0  0  0
   63.4368   33.4019   47.4743 C   0  0  0  0  0  0  0  0  0  0  0  0
   63.5788   33.2401   48.8553 C   0  0  0  0  0  0  0  0  0  0  0  0
   62.5038   33.5115   49.7064 C   0  0  0  0  0  0  0  0  0  0  0  0
   61.2837   33.9456   49.1760 C   0  0  0  0  0  0  0  0  0  0  0  0
   58.7067   27.7574   48.0411 N   0  0  0  0  0  0  0  0  0  0  0  0
   58.7968   26.5527   47.2685 C   0  0  0  0  0  0  0  0  0  0  0  0
   59.9248   26.2514   46.4836 C   0  0  0  0  0  0  0  0  0  0  0  0
   59.9777   25.0591   45.7579 C   0  0  0  0  0  0  0  0  0  0  0  0
   58.9142   24.1562   45.8128 C   0  0  0  0  0  0  0  0  0  0  0  0
   57.7928   24.4354   46.6069 C   0  0  0  0  0  0  0  0  0  0  0  0
   57.7467   25.6275   47.3438 C   0  0  0  0  0  0  0  0  0  0  0  0
   56.4629   23.2831   46.7008 S   0  0  0  0  0  0  0  0  0  0  0  0
   56.8021   22.2276   47.7174 O   0  0  0  0  0  0  0  0  0  0  0  0
   55.2147   23.9930   47.1517 O   0  0  0  0  0  0  0  0  0  0  0  0
   56.2067   22.5361   45.1431 N   0  0  0  0  0  0  0  0  0  0  0  0
   57.3236   21.6235   44.8314 C   0  0  0  0  0  0  0  0  0  0  0  0
   57.3160   21.2252   43.3428 C   0  0  0  0  0  0  0  0  0  0  0  0
   56.0673   21.5163   42.7485 O   0  0  0  0  0  0  0  0  0  0  0  0
   55.8605   22.9201   42.7286 C   0  0  0  0  0  0  0  0  0  0  0  0
   56.0915   23.5737   44.1075 C   0  0  0  0  0  0  0  0  0  0  0  0
  1  2  2  0
  2  3  1  0
  3  4  1  0
  4  5  1  0
  5  6  1  0
  5  7  2  0
  7 12  1  0
 12 13  1  0
 13 14  1  0
 14 15  2  0
 15 16  1  0
 16 17  2  0
 17 18  1  0
 18 19  2  0
  7  8  1  0
  8  9  1  0
  9 10  2  0
  2 20  1  0
 20 21  1  0
 21 22  2  0
 22 23  1  0
 23 24  2  0
 24 25  1  0
 25 27  1  0
 27 28  2  0
 27 29  2  0
 27 30  1  0
 30 31  1  0
 31 32  1  0
 32 33  1  0
 33 34  1  0
 34 35  1  0
 25 26  2  0
  9  4  1  0
 26 21  1  0
 19 14  1  0
 35 30  1  0
  6 11  1  0
M  CHG 1   8  -1
M  CHG 1  20  -1
M  END
> <UniqueID>
26

> <SMILES>
O=C(Cn1c(O)c(CCc2ccccc2)[n-]c1=O)[N-]c1cccc(S(=O)(=O)N2CCOCC2)c1

> <Energy>
97.3548701015984

> <Genealogy>
O=C(Cn1c(O)c(CCc2ccccc2)[n-]c1=O)[N-]c1cccc(S(=O)(=O)N2CCOCC2)c1 (protonated)
O=C(Cn1c(O)c(CCc2ccccc2)[n-]c1=O)[N-]c1cccc(S(=O)(=O)N2CCOCC2)c1 (3D coordinates assigned)
O=C(Cn1c(O)c(CCc2ccccc2)[n-]c1=O)[N-]c1cccc(S(=O)(=O)N2CCOCC2)c1 (nonaromatic ring conformer: 97.3548701015984 kcal/mol)

> <smiles>
O=C(Cn1c(O)c(CCc2ccccc2)[nH]c1=O)Nc1cccc(S(=O)(=O)N2CCOCC2)c1

> <score_type>
oracle

> <origin>
adg

> <m_score__min__energy>
-14.119999999999999

> <m_primary>
energy

> <minimizedAffinity>
-7.12460

> <minimizedRMSD>
0.40414

> <CNNscore>
0.2475147992

> <CNNaffinity>
6.4713516235

> <CNN_VS>
1.6017552614

> <CNNaffinity_variance>
0.0248962510

$$$$
36:0


 31 34  0  0  0  0  0  0  0  0999 V2000
   60.1973   29.1427   49.1920 C   0  0  0  0  0  0  0  0  0  0  0  0
   59.7516   30.0610   48.3217 C   0  0  0  0  0  0  0  0  0  0  0  0
   59.6862   29.9584   46.9210 C   0  0  0  0  0  0  0  0  0  0  0  0
   59.9041   28.9158   46.0971 C   0  0  0  0  0  0  0  0  0  0  0  0
   59.3053   31.2095   46.4575 C   0  0  0  0  0  0  0  0  0  0  0  0
   59.1179   32.0087   47.5666 C   0  0  0  0  0  0  0  0  0  0  0  0
   58.5754   33.4049   47.5297 C   0  0  0  0  0  0  0  0  0  0  0  0
   59.3844   31.3147   48.6927 N   0  0  0  0  0  0  0  0  0  0  0  0
   59.0515   27.7184   45.9816 C   0  0  0  0  0  0  0  0  0  0  0  0
   57.7377   27.8062   45.4909 C   0  0  0  0  0  0  0  0  0  0  0  0
   57.1930   29.0348   45.1340 O   0  0  0  0  0  0  0  0  0  0  0  0
   56.9883   26.6809   45.3566 N   0  0  0  0  0  0  0  0  0  0  0  0
   57.4935   25.4612   45.6722 C   0  0  0  0  0  0  0  0  0  0  0  0
   56.7804   24.4330   45.5421 O   0  0  0  0  0  0  0  0  0  0  0  0
   58.7704   25.3496   46.1236 N   0  0  0  0  0  0  0  0  0  0  0  0
   59.5588   26.4436   46.2767 C   0  0  0  0  0  0  0  0  0  0  0  0
   60.7403   26.3029   46.6909 O   0  0  0  0  0  0  0  0  0  0  0  0
   59.2656   31.8175   50.0348 C   0  0  0  0  0  0  0  0  0  0  0  0
   58.0390   31.6932   50.7020 C   0  0  0  0  0  0  0  0  0  0  0  0
   57.8812   32.2027   51.9929 C   0  0  0  0  0  0  0  0  0  0  0  0
   58.9485   32.8422   52.6254 C   0  0  0  0  0  0  0  0  0  0  0  0
   60.1766   32.9687   51.9724 C   0  0  0  0  0  0  0  0  0  0  0  0
   60.3515   32.4581   50.6748 C   0  0  0  0  0  0  0  0  0  0  0  0
   61.6390   32.5631   50.0357 N   0  0  0  0  0  0  0  0  0  0  0  0
   62.0415   33.8154   49.3836 C   0  0  0  0  0  0  0  0  0  0  0  0
   63.2311   34.4585   50.1194 C   0  0  0  0  0  0  0  0  0  0  0  0
   64.1651   33.4279   50.8005 C   0  0  0  0  0  0  0  0  0  0  0  0
   63.8305   33.3234   52.1622 O   0  0  0  0  0  0  0  0  0  0  0  0
   64.0687   32.0468   50.1269 C   0  0  0  0  0  0  0  0  0  0  0  0
   62.6355   31.4955   50.2111 C   0  0  0  0  0  0  0  0  0  0  0  0
   62.9152   33.0136   52.2474 H   0  0  0  0  0  0  0  0  0  0  0  0
  1  2  2  0
  2  3  1  0
  3  4  2  0
  4  9  1  0
  9 10  2  0
 10 11  1  0
 10 12  1  0
 12 13  1  0
 13 14  2  0
 13 15  1  0
 15 16  1  0
 16 17  2  0
  3  5  1  0
  5  6  2  0
  6  7  1  0
  6  8  1  0
  8 18  1  0
 18 19  2  0
 19 20  1  0
 20 21  2  0
 21 22  1  0
 22 23  2  0
 23 24  1  0
 24 25  1  0
 25 26  1  0
 26 27  1  0
 27 28  1  0
 27 29  1  0
 29 30  1  0
  8  2  1  0
 23 18  1  0
 30 24  1  0
 16  9  1  0
 28 31  1  0
M  CHG 1  11  -1
M  CHG 1  12  -1
M  CHG 1  15  -1
M  END
> <UniqueID>
34

> <SMILES>
C=c1c(=Cc2c([O-])[n-]c(=O)[n-]c2=O)cc(C)n1-c1ccccc1N1CCC(O)CC1

> <Energy>
109.20066923846645

> <Genealogy>
C=c1c(=Cc2c([O-])[n-]c(=O)[n-]c2=O)cc(C)n1-c1ccccc1N1CCC(O)CC1 (protonated)
C=c1c(=Cc2c([O-])[n-]c(=O)[n-]c2=O)cc(C)n1-c1ccccc1N1CCC(O)CC1 (3D coordinates assigned)
C=c1c(=Cc2c([O-])[n-]c(=O)[n-]c2=O)cc(C)n1-c1ccccc1N1CCC(O)CC1 (nonaromatic ring conformer: 109.20066923846645 kcal/mol)

> <smiles>
C=c1c(=Cc2c(O)[nH]c(=O)[nH]c2=O)cc(C)n1-c1ccccc1N1CCC(O)CC1

> <score_type>
oracle

> <origin>
adg

> <m_score__min__energy>
-16.219999999999999

> <m_primary>
energy

> <minimizedAffinity>
-8.14428

> <minimizedRMSD>
1.80028

> <CNNscore>
0.3123351932

> <CNNaffinity>
6.8120417595

> <CNN_VS>
2.1276404858

> <CNNaffinity_variance>
0.1194099858

$$$$
57:0


 37 40  0  0  0  0  0  0  0  0999 V2000
   58.3317   32.0347   52.6410 C   0  0  0  0  0  0  0  0  0  0  0  0
   58.3282   33.1004   53.3120 O   0  0  0  0  0  0  0  0  0  0  0  0
   59.4324   31.7525   51.7595 N   0  0  0  0  0  0  0  0  0  0  0  0
   60.0497   32.8540   51.0089 C   0  0  0  0  0  0  0  0  0  0  0  0
   61.0750   32.3393   49.9917 C   0  0  0  0  0  0  0  0  0  0  0  0
   60.5613   31.1323   49.3308 N   0  0  0  0  0  0  0  0  0  0  0  0
   60.7696   30.9492   47.9203 C   0  0  0  0  0  0  0  0  0  0  0  0
   61.8891   31.2400   47.4190 O   0  0  0  0  0  0  0  0  0  0  0  0
   60.0402   30.0151   50.1362 C   0  0  0  0  0  0  0  0  0  0  0  0
   59.9536   30.3859   51.6197 C   0  0  0  0  0  0  0  0  0  0  0  0
   55.4337   28.2529   53.5588 C   0  0  0  0  0  0  0  0  0  0  0  0
   55.8722   29.4169   53.0502 C   0  0  0  0  0  0  0  0  0  0  0  0
   55.1310   30.3384   52.2909 C   0  0  0  0  0  0  0  0  0  0  0  0
   53.8913   30.2697   51.7671 C   0  0  0  0  0  0  0  0  0  0  0  0
   55.9531   31.4315   52.0999 C   0  0  0  0  0  0  0  0  0  0  0  0
   57.1626   31.1358   52.6918 C   0  0  0  0  0  0  0  0  0  0  0  0
   57.1183   29.9155   53.2796 N   0  0  0  0  0  0  0  0  0  0  0  0
   52.6549   30.7269   52.4157 C   0  0  0  0  0  0  0  0  0  0  0  0
   52.4055   30.5706   53.7274 N   0  0  0  0  0  0  0  0  0  0  0  0
   51.2356   31.2213   53.9030 C   0  0  0  0  0  0  0  0  0  0  0  0
   50.6585   31.2882   55.0193 O   0  0  0  0  0  0  0  0  0  0  0  0
   50.7391   31.8076   52.7913 N   0  0  0  0  0  0  0  0  0  0  0  0
   51.6564   31.5003   51.8590 C   0  0  0  0  0  0  0  0  0  0  0  0
   51.5834   31.9412   50.5399 O   0  0  0  0  0  0  0  0  0  0  0  0
   50.8586   32.4651   50.2605 H   0  0  0  0  0  0  0  0  0  0  0  0
   58.2550   29.2136   53.8991 C   0  0  0  0  0  0  0  0  0  0  0  0
   58.3948   29.6209   55.3621 C   0  0  0  0  0  0  0  0  0  0  0  0
   59.6889   30.4367   47.0475 C   0  0  0  0  0  0  0  0  0  0  0  0
   58.8697   31.3301   46.3405 C   0  0  0  0  0  0  0  0  0  0  0  0
   57.8556   30.8485   45.5098 C   0  0  0  0  0  0  0  0  0  0  0  0
   57.6405   29.4750   45.3864 C   0  0  0  0  0  0  0  0  0  0  0  0
   58.4255   28.5638   46.1110 C   0  0  0  0  0  0  0  0  0  0  0  0
   59.4531   29.0540   46.9394 C   0  0  0  0  0  0  0  0  0  0  0  0
   58.2008   27.0826   45.9352 C   0  0  0  0  0  0  0  0  0  0  0  0
   57.0452   26.7008   46.5935 F   0  0  0  0  0  0  0  0  0  0  0  0
   58.0662   26.8000   44.5897 F   0  0  0  0  0  0  0  0  0  0  0  0
   59.2554   26.3449   46.4436 F   0  0  0  0  0  0  0  0  0  0  0  0
 11 12  2  0
 12 13  1  0
 13 14  2  0
 14 18  1  0
 18 19  1  0
 19 20  1  0
 20 21  2  0
 20 22  1  0
 22 23  1  0
 23 24  1  0
 13 15  1  0
 15 16  2  0
 16  1  1  0
  1  2  2  0
  1  3  1  0
  3  4  1  0
  4  5  1  0
  5  6  1  0
  6  7  1  0
  7  8  2  0
  7 28  1  0
 28 29  2  0
 29 30  1  0
 30 31  2  0
 31 32  1  0
 32 34  1  0
 34 35  1  0
 34 36  1  0
 34 37  1  0
 32 33  2  0
  6  9  1  0
  9 10  1  0
 16 17  1  0
 17 26  1  0
 26 27  1  0
 17 12  1  0
 23 18  2  0
 10  3  1  0
 33 28  1  0
 24 25  1  0
M  CHG 1  19  -1
M  CHG 1  22  -1
M  END
> <UniqueID>
54

> <SMILES>
C=c1c(=Cc2[n-]c(=O)[n-]c2O)cc(C(=O)N2CCN(C(=O)c3cccc(C(F)(F)F)c3)CC2)n1CC

> <Energy>
138.591240886723

> <Genealogy>
C=c1c(=Cc2[n-]c(=O)[n-]c2O)cc(C(=O)N2CCN(C(=O)c3cccc(C(F)(F)F)c3)CC2)n1CC (protonated)
C=c1c(=Cc2[n-]c(=O)[n-]c2O)cc(C(=O)N2CCN(C(=O)c3cccc(C(F)(F)F)c3)CC2)n1CC (3D coordinates assigned)
C=c1c(=Cc2[n-]c(=O)[n-]c2O)cc(C(=O)N2CCN(C(=O)c3cccc(C(F)(F)F)c3)CC2)n1CC (nonaromatic ring conformer: 138.591240886723 kcal/mol)

> <smiles>
C=c1c(=Cc2[nH]c(=O)[nH]c2O)cc(C(=O)N2CCN(C(=O)c3cccc(C(F)(F)F)c3)CC2)n1CC

> <score_type>
oracle

> <origin>
adg

> <m_score__min__energy>
-14.17

> <m_primary>
energy

> <minimizedAffinity>
-8.92501

> <minimizedRMSD>
1.92940

> <CNNscore>
0.1217784658

> <CNNaffinity>
5.7434921265

> <CNN_VS>
0.6994336843

> <CNNaffinity_variance>
0.4257907569

$$$$
59:0


 28 31  0  0  0  0  0  0  0  0999 V2000
   58.5168   27.4582   47.0681 C   0  0  0  0  0  0  0  0  0  0  0  0
   59.4893   26.4955   47.3779 C   0  0  0  0  0  0  0  0  0  0  0  0
   60.5082   26.7912   48.2880 C   0  0  0  0  0  0  0  0  0  0  0  0
   60.5678   28.0477   48.8942 C   0  0  0  0  0  0  0  0  0  0  0  0
   59.6009   29.0229   48.5995 C   0  0  0  0  0  0  0  0  0  0  0  0
   58.5579   28.7063   47.7141 C   0  0  0  0  0  0  0  0  0  0  0  0
   57.4564   27.1630   46.0751 C   0  0  0  0  0  0  0  0  0  0  0  0
   56.5705   26.3125   46.3520 O   0  0  0  0  0  0  0  0  0  0  0  0
   59.1567   30.9473   44.5960 C   0  0  0  0  0  0  0  0  0  0  0  0
   58.8764   29.6320   44.7897 N   0  0  0  0  0  0  0  0  0  0  0  0
   57.6175   29.1272   44.6371 C   0  0  0  0  0  0  0  0  0  0  0  0
   57.3754   27.8606   44.8205 N   0  0  0  0  0  0  0  0  0  0  0  0
   56.5764   29.9866   44.2523 C   0  0  0  0  0  0  0  0  0  0  0  0
   55.2847   29.5023   44.0740 O   0  0  0  0  0  0  0  0  0  0  0  0
   56.8438   31.3438   44.0558 C   0  0  0  0  0  0  0  0  0  0  0  0
   58.1401   31.8304   44.2288 C   0  0  0  0  0  0  0  0  0  0  0  0
   59.6608   30.3829   49.2536 C   0  0  0  0  0  0  0  0  0  0  0  0
   60.5871   31.3153   48.5072 C   0  0  0  0  0  0  0  0  0  0  0  0
   61.9247   31.0905   48.6018 N   0  0  0  0  0  0  0  0  0  0  0  0
   62.8222   31.8828   48.0167 N   0  0  0  0  0  0  0  0  0  0  0  0
   62.4523   32.9690   47.2954 C   0  0  0  0  0  0  0  0  0  0  0  0
   63.3421   33.6897   46.7677 O   0  0  0  0  0  0  0  0  0  0  0  0
   61.0906   33.2738   47.1518 C   0  0  0  0  0  0  0  0  0  0  0  0
   60.6662   34.3968   46.4174 C   0  0  0  0  0  0  0  0  0  0  0  0
   59.3064   34.6895   46.3012 C   0  0  0  0  0  0  0  0  0  0  0  0
   58.3582   33.8671   46.9072 C   0  0  0  0  0  0  0  0  0  0  0  0
   58.7619   32.7462   47.6357 C   0  0  0  0  0  0  0  0  0  0  0  0
   60.1302   32.4334   47.7702 C   0  0  0  0  0  0  0  0  0  0  0  0
  9 10  1  0
 10 11  1  0
 11 12  2  0
 12  7  1  0
  7  8  2  0
  7  1  1  0
  1  2  2  0
  2  3  1  0
  3  4  2  0
  4  5  1  0
  5 17  1  0
 17 18  1  0
 18 19  2  0
 19 20  1  0
 20 21  1  0
 21 22  2  0
 21 23  1  0
 23 24  2  0
 24 25  1  0
 25 26  2  0
 26 27  1  0
 27 28  2  0
  5  6  2  0
 11 13  1  0
 13 14  1  0
 13 15  2  0
 15 16  1  0
 16  9  2  0
  6  1  1  0
 28 18  1  0
 28 23  1  0
M  CHG 1  10  -1
M  CHG 1  14  -1
M  CHG 1  20  -1
M  END
> <UniqueID>
56

> <SMILES>
O=C(/N=c1\[n-]cccc1[O-])c1cccc(Cc2n[n-]c(=O)c3ccccc23)c1

> <Energy>
57.79209136138573

> <Genealogy>
O=C(N=c1[n-]cccc1[O-])c1cccc(Cc2n[n-]c(=O)c3ccccc23)c1 (protonated)
O=C(/N=c1\[n-]cccc1[O-])c1cccc(Cc2n[n-]c(=O)c3ccccc23)c1 (cis-trans isomerization)
O=C(/N=c1\[n-]cccc1[O-])c1cccc(Cc2n[n-]c(=O)c3ccccc23)c1 (3D coordinates assigned)
O=C(/N=c1\[n-]cccc1[O-])c1cccc(Cc2n[n-]c(=O)c3ccccc23)c1 (optimized conformer: 57.79209136138573 kcal/mol)

> <smiles>
O=C(N=c1[nH]cccc1O)c1cccc(Cc2n[nH]c(=O)c3ccccc23)c1

> <score_type>
oracle

> <origin>
adg

> <m_score__min__energy>
-15.77

> <m_primary>
energy

> <minimizedAffinity>
-7.69571

> <minimizedRMSD>
0.51035

> <CNNscore>
0.5120543242

> <CNNaffinity>
6.5902018547

> <CNN_VS>
3.3745412827

> <CNNaffinity_variance>
0.0030422965

$$$$
67:0


 29 32  0  0  0  0  0  0  0  0999 V2000
   58.9563   29.6141   44.3129 C   0  0  0  0  0  0  0  0  0  0  0  0
   58.8742   29.2740   45.6091 C   0  0  0  0  0  0  0  0  0  0  0  0
   58.7134   27.9823   46.1222 C   0  0  0  0  0  0  0  0  0  0  0  0
   58.5428   26.8424   45.4248 C   0  0  0  0  0  0  0  0  0  0  0  0
   58.7096   28.1109   47.5064 C   0  0  0  0  0  0  0  0  0  0  0  0
   58.8666   29.4557   47.7775 C   0  0  0  0  0  0  0  0  0  0  0  0
   58.9163   30.0499   49.1517 C   0  0  0  0  0  0  0  0  0  0  0  0
   58.9721   30.1597   46.6300 N   0  0  0  0  0  0  0  0  0  0  0  0
   57.7676   25.6877   45.9092 C   0  0  0  0  0  0  0  0  0  0  0  0
   58.3281   24.5162   46.2560 N   0  0  0  0  0  0  0  0  0  0  0  0
   57.2855   23.7908   46.7130 C   0  0  0  0  0  0  0  0  0  0  0  0
   57.4104   22.6081   47.1252 O   0  0  0  0  0  0  0  0  0  0  0  0
   56.0988   24.4352   46.7033 N   0  0  0  0  0  0  0  0  0  0  0  0
   56.4224   25.6390   46.2040 C   0  0  0  0  0  0  0  0  0  0  0  0
   55.5151   26.6826   46.0680 O   0  0  0  0  0  0  0  0  0  0  0  0
   59.1480   31.5826   46.5339 C   0  0  0  0  0  0  0  0  0  0  0  0
   60.2804   32.2836   47.0316 C   0  0  0  0  0  0  0  0  0  0  0  0
   60.2389   33.6369   46.8861 N   0  0  0  0  0  0  0  0  0  0  0  0
   58.7884   33.9667   46.1398 S   0  0  0  0  0  0  0  0  0  0  0  0
   58.1944   32.4228   45.9856 C   0  0  0  0  0  0  0  0  0  0  0  0
   56.9718   32.0588   45.4358 O   0  0  0  0  0  0  0  0  0  0  0  0
   61.4588   31.6237   47.6265 C   0  0  0  0  0  0  0  0  0  0  0  0
   61.9384   30.5946   47.0779 O   0  0  0  0  0  0  0  0  0  0  0  0
   62.0924   32.1638   48.7993 N   0  0  0  0  0  0  0  0  0  0  0  0
   63.5282   31.9575   48.9989 C   0  0  0  0  0  0  0  0  0  0  0  0
   64.0844   33.0453   49.9238 C   0  0  0  0  0  0  0  0  0  0  0  0
   63.3301   33.1228   51.1203 O   0  0  0  0  0  0  0  0  0  0  0  0
   62.0084   33.5377   50.8272 C   0  0  0  0  0  0  0  0  0  0  0  0
   61.2854   32.4862   49.9803 C   0  0  0  0  0  0  0  0  0  0  0  0
  1  2  2  0
  2  3  1  0
  3  4  2  0
  4  9  1  0
  9 10  1  0
 10 11  1  0
 11 12  2  0
 11 13  1  0
 13 14  1  0
 14 15  1  0
  3  5  1  0
  5  6  2  0
  6  7  1  0
  6  8  1  0
  8 16  1  0
 16 17  1  0
 17 22  1  0
 22 23  2  0
 22 24  1  0
 24 25  1  0
 25 26  1  0
 26 27  1  0
 27 28  1  0
 28 29  1  0
 17 18  2  0
 18 19  1  0
 19 20  1  0
 20 21  2  0
  8  2  1  0
 20 16  1  0
 14  9  2  0
 29 24  1  0
M  CHG 1  10  -1
M  CHG 1  13  -1
M  CHG 1  15  -1
M  CHG 1  21  -1
M  END
> <UniqueID>
63

> <SMILES>
C=c1/c(=C/c2[n-]c(=O)[n-]c2[O-])cc(C)n1-c1c(C(=O)N2CCOCC2)nsc1[O-]

> <Energy>
156.13989776002194

> <Genealogy>
C=c1c(=Cc2[n-]c(=O)[n-]c2[O-])cc(C)n1-c1c(C(=O)N2CCOCC2)nsc1[O-] (protonated)
C=c1/c(=C/c2[n-]c(=O)[n-]c2[O-])cc(C)n1-c1c(C(=O)N2CCOCC2)nsc1[O-] (cis-trans isomerization)
C=c1/c(=C/c2[n-]c(=O)[n-]c2[O-])cc(C)n1-c1c(C(=O)N2CCOCC2)nsc1[O-] (3D coordinates assigned)
C=c1/c(=C/c2[n-]c(=O)[n-]c2[O-])cc(C)n1-c1c(C(=O)N2CCOCC2)nsc1[O-] (nonaromatic ring conformer: 156.13989776002194 kcal/mol)

> <smiles>
C=c1c(=Cc2[nH]c(=O)[nH]c2O)cc(C)n1-c1c(C(=O)N2CCOCC2)nsc1O

> <score_type>
oracle

> <origin>
adg

> <m_score__min__energy>
-17.050000000000001

> <m_primary>
energy

> <minimizedAffinity>
-7.54582

> <minimizedRMSD>
0.79749

> <CNNscore>
0.2048179507

> <CNNaffinity>
6.4534664154

> <CNN_VS>
1.3217858076

> <CNNaffinity_variance>
0.0108496966

$$$$
72:0


 32 34  0  0  0  0  0  0  0  0999 V2000
   58.7250   26.1012   47.0006 N   0  0  0  0  0  0  0  0  0  0  0  0
   58.4480   27.3498   46.7478 C   0  0  0  0  0  0  0  0  0  0  0  0
   58.9983   28.3406   47.4949 N   0  0  0  0  0  0  0  0  0  0  0  0
   58.7071   29.6399   47.2506 C   0  0  0  0  0  0  0  0  0  0  0  0
   59.2565   30.5968   47.9421 N   0  0  0  0  0  0  0  0  0  0  0  0
   57.8659   29.9514   46.2333 N   0  0  0  0  0  0  0  0  0  0  0  0
   57.3078   28.9768   45.4691 C   0  0  0  0  0  0  0  0  0  0  0  0
   56.5047   29.3287   44.5043 N   0  0  0  0  0  0  0  0  0  0  0  0
   57.5993   27.6650   45.7326 N   0  0  0  0  0  0  0  0  0  0  0  0
   57.1953   26.9512   45.1881 H   0  0  0  0  0  0  0  0  0  0  0  0
   59.5769   31.9203   47.4747 C   0  0  0  0  0  0  0  0  0  0  0  0
   60.9018   32.3292   47.2220 C   0  0  0  0  0  0  0  0  0  0  0  0
   61.1657   33.6269   46.7714 C   0  0  0  0  0  0  0  0  0  0  0  0
   60.1161   34.5318   46.5911 C   0  0  0  0  0  0  0  0  0  0  0  0
   58.8046   34.1453   46.8756 C   0  0  0  0  0  0  0  0  0  0  0  0
   58.5363   32.8484   47.3248 C   0  0  0  0  0  0  0  0  0  0  0  0
   59.0795   25.1201   45.9730 C   0  0  0  0  0  0  0  0  0  0  0  0
   58.4267   23.7521   46.2605 C   0  0  0  0  0  0  0  0  0  0  0  0
   56.1128   23.8184   45.1198 C   0  0  0  0  0  0  0  0  0  0  0  0
   55.2997   23.4767   44.0251 C   0  0  0  0  0  0  0  0  0  0  0  0
   55.7668   22.6212   43.0283 C   0  0  0  0  0  0  0  0  0  0  0  0
   57.0475   22.0805   43.1176 C   0  0  0  0  0  0  0  0  0  0  0  0
   57.8795   22.4234   44.1845 C   0  0  0  0  0  0  0  0  0  0  0  0
   57.4492   23.3294   45.1749 C   0  0  0  0  0  0  0  0  0  0  0  0
   55.0082   25.9481   45.9046 N   0  0  0  0  0  0  0  0  0  0  0  0
   55.5141   24.6461   46.1912 C   0  0  0  0  0  0  0  0  0  0  0  0
   55.5103   24.2284   47.3811 O   0  0  0  0  0  0  0  0  0  0  0  0
   54.6117   26.4915   46.6235 H   0  0  0  0  0  0  0  0  0  0  0  0
   56.7364   30.3588   43.4901 C   0  0  0  0  0  0  0  0  0  0  0  0
   57.9614   31.2072   43.8525 C   0  0  0  0  0  0  0  0  0  0  0  0
   57.9450   32.5435   43.1039 C   0  0  0  0  0  0  0  0  0  0  0  0
   57.7344   32.3354   41.6075 C   0  0  0  0  0  0  0  0  0  0  0  0
 25 26  1  0
 26 27  2  0
 26 19  1  0
 19 20  2  0
 20 21  1  0
 21 22  2  0
 22 23  1  0
 23 24  2  0
 24 18  1  0
 18 17  1  0
 17  1  1  0
  1  2  2  0
  2  3  1  0
  3  4  1  0
  4  5  2  0
  5 11  1  0
 11 12  2  0
 12 13  1  0
 13 14  2  0
 14 15  1  0
 15 16  2  0
  4  6  1  0
  6  7  1  0
  7  8  2  0
  8 29  1  0
 29 30  1  0
 30 31  1  0
 31 32  1  0
  7  9  1  0
 24 19  1  0
  9  2  1  0
 16 11  1  0
 25 28  1  0
  9 10  1  0
M  CHG 1   3  -1
M  CHG 1   6  -1
M  CHG 1  25  -1
M  END
> <UniqueID>
68

> <SMILES>
CCCC/N=c1/[n-]/c(=N/c2ccccc2)[n-]c(=NCCc2ccccc2C([NH-])=O)[nH]1

> <Energy>
59.60756207596361

> <Genealogy>
CCCCN=c1[n-]c(=Nc2ccccc2)[n-]c(=NCCc2ccccc2C([NH-])=O)[nH]1 (protonated)
CCCC/N=c1/[n-]/c(=N/c2ccccc2)[n-]c(=NCCc2ccccc2C([NH-])=O)[nH]1 (cis-trans isomerization)
CCCC/N=c1/[n-]/c(=N/c2ccccc2)[n-]c(=NCCc2ccccc2C([NH-])=O)[nH]1 (3D coordinates assigned)
CCCC/N=c1/[n-]/c(=N/c2ccccc2)[n-]c(=NCCc2ccccc2C([NH-])=O)[nH]1 (optimized conformer: 59.60756207596361 kcal/mol)

> <smiles>
CCCCN=c1[nH]c(=NCCc2ccccc2C(N)=O)[nH]c(=Nc2ccccc2)[nH]1

> <score_type>
oracle

> <origin>
adg

> <m_score__min__energy>
-14.789999999999999

> <m_primary>
energy

> <minimizedAffinity>
-7.89724

> <minimizedRMSD>
1.01311

> <CNNscore>
0.5377695560

> <CNNaffinity>
6.9412407875

> <CNN_VS>
3.7327880859

> <CNNaffinity_variance>
0.0273390468

$$$$
79:0


 34 37  0  0  0  0  0  0  0  0999 V2000
   59.1554   27.7287   45.4173 C   0  0  0  0  0  0  0  0  0  0  0  0
   59.5191   28.7962   46.1523 C   0  0  0  0  0  0  0  0  0  0  0  0
   59.3068   30.1006   45.7287 C   0  0  0  0  0  0  0  0  0  0  0  0
   59.7442   30.9265   46.7417 C   0  0  0  0  0  0  0  0  0  0  0  0
   59.6930   32.4220   46.7128 C   0  0  0  0  0  0  0  0  0  0  0  0
   60.2335   30.1932   47.7660 N   0  0  0  0  0  0  0  0  0  0  0  0
   60.1285   28.8867   47.4173 C   0  0  0  0  0  0  0  0  0  0  0  0
   60.6230   27.8895   48.1689 C   0  0  0  0  0  0  0  0  0  0  0  0
   56.2843   28.3066   45.2765 O   0  0  0  0  0  0  0  0  0  0  0  0
   56.7376   27.0535   45.6936 C   0  0  0  0  0  0  0  0  0  0  0  0
   55.8198   26.1040   46.0192 N   0  0  0  0  0  0  0  0  0  0  0  0
   56.1980   24.8610   46.4112 C   0  0  0  0  0  0  0  0  0  0  0  0
   55.3238   24.0024   46.7077 O   0  0  0  0  0  0  0  0  0  0  0  0
   57.5163   24.5398   46.4803 N   0  0  0  0  0  0  0  0  0  0  0  0
   58.4769   25.4482   46.1699 C   0  0  0  0  0  0  0  0  0  0  0  0
   59.6931   25.1148   46.2442 O   0  0  0  0  0  0  0  0  0  0  0  0
   58.1140   26.7485   45.7816 C   0  0  0  0  0  0  0  0  0  0  0  0
   55.3647   28.4798   45.2280 H   0  0  0  0  0  0  0  0  0  0  0  0
   60.7805   30.7271   48.9840 C   0  0  0  0  0  0  0  0  0  0  0  0
   62.0938   31.2172   48.9891 C   0  0  0  0  0  0  0  0  0  0  0  0
   62.6654   31.7202   50.1672 C   0  0  0  0  0  0  0  0  0  0  0  0
   61.8962   31.7524   51.3410 C   0  0  0  0  0  0  0  0  0  0  0  0
   60.5859   31.2698   51.3429 C   0  0  0  0  0  0  0  0  0  0  0  0
   60.0114   30.7655   50.1666 C   0  0  0  0  0  0  0  0  0  0  0  0
   58.6036   30.2360   50.1930 C   0  0  0  0  0  0  0  0  0  0  0  0
   64.0524   32.2401   50.1564 C   0  0  0  0  0  0  0  0  0  0  0  0
   64.3903   33.0633   49.2625 O   0  0  0  0  0  0  0  0  0  0  0  0
   65.0156   31.8478   51.1519 N   0  0  0  0  0  0  0  0  0  0  0  0
   65.0548   30.4785   51.6766 C   0  0  0  0  0  0  0  0  0  0  0  0
   66.5066   29.9724   51.7421 C   0  0  0  0  0  0  0  0  0  0  0  0
   67.4868   30.9878   52.2256 N   0  0  0  0  0  0  0  0  0  0  0  0
   68.3843   30.4159   53.2452 C   0  0  0  0  0  0  0  0  0  0  0  0
   66.8683   32.2281   52.7328 C   0  0  0  0  0  0  0  0  0  0  0  0
   65.9676   32.8410   51.6580 C   0  0  0  0  0  0  0  0  0  0  0  0
  9 10  1  0
 10 11  1  0
 11 12  1  0
 12 13  2  0
 12 14  1  0
 14 15  1  0
 15 16  2  0
 15 17  1  0
 17  1  1  0
  1  2  2  0
  2  3  1  0
  3  4  2  0
  4  5  1  0
  4  6  1  0
  6 19  1  0
 19 20  2  0
 20 21  1  0
 21 26  1  0
 26 27  2  0
 26 28  1  0
 28 29  1  0
 29 30  1  0
 30 31  1  0
 31 32  1  0
 31 33  1  0
 33 34  1  0
 21 22  2  0
 22 23  1  0
 23 24  2  0
 24 25  1  0
  6  7  1  0
  7  8  2  0
 17 10  2  0
  7  2  1  0
 24 19  1  0
 34 28  1  0
  9 18  1  0
M  CHG 1  11  -1
M  CHG 1  14  -1
M  END
> <UniqueID>
75

> <SMILES>
C=c1/c(=C\c2c(O)[n-]c(=O)[n-]c2=O)cc(C)n1-c1cc(C(=O)N2CCN(C)CC2)ccc1C

> <Energy>
120.00835763934113

> <Genealogy>
C=c1c(=Cc2c(O)[n-]c(=O)[n-]c2=O)cc(C)n1-c1cc(C(=O)N2CCN(C)CC2)ccc1C (protonated)
C=c1/c(=C\c2c(O)[n-]c(=O)[n-]c2=O)cc(C)n1-c1cc(C(=O)N2CCN(C)CC2)ccc1C (cis-trans isomerization)
C=c1/c(=C\c2c(O)[n-]c(=O)[n-]c2=O)cc(C)n1-c1cc(C(=O)N2CCN(C)CC2)ccc1C (3D coordinates assigned)
C=c1/c(=C\c2c(O)[n-]c(=O)[n-]c2=O)cc(C)n1-c1cc(C(=O)N2CCN(C)CC2)ccc1C (nonaromatic ring conformer: 120.00835763934113 kcal/mol)

> <smiles>
C=c1c(=Cc2c(O)[nH]c(=O)[nH]c2=O)cc(C)n1-c1cc(C(=O)N2CCN(C)CC2)ccc1C

> <score_type>
oracle

> <origin>
adg

> <m_score__min__energy>
-14.970000000000001

> <m_primary>
energy

> <minimizedAffinity>
-8.28240

> <minimizedRMSD>
1.39742

> <CNNscore>
0.4731782079

> <CNNaffinity>
7.3180904388

> <CNN_VS>
3.4627609253

> <CNNaffinity_variance>
0.3446818590

$$$$
81:0


 38 41  0  0  0  0  0  0  0  0999 V2000
   58.1895   27.9065   46.5526 C   0  0  0  0  0  0  0  0  0  0  0  0
   58.7891   28.8709   47.3784 C   0  0  0  0  0  0  0  0  0  0  0  0
   59.8263   28.5187   48.2515 C   0  0  0  0  0  0  0  0  0  0  0  0
   60.2991   27.1998   48.2640 C   0  0  0  0  0  0  0  0  0  0  0  0
   59.7242   26.2398   47.4305 C   0  0  0  0  0  0  0  0  0  0  0  0
   58.6729   26.5849   46.5686 C   0  0  0  0  0  0  0  0  0  0  0  0
   58.0668   25.5751   45.7503 N   0  0  0  0  0  0  0  0  0  0  0  0
   57.9011   25.7026   44.3140 C   0  0  0  0  0  0  0  0  0  0  0  0
   57.1500   24.4491   43.8864 C   0  0  0  0  0  0  0  0  0  0  0  0
   57.3166   23.4492   45.0326 C   0  0  0  0  0  0  0  0  0  0  0  0
   57.6747   24.2753   46.2608 C   0  0  0  0  0  0  0  0  0  0  0  0
   60.5129   29.7227   49.3450 S   0  0  0  0  0  0  0  0  0  0  0  0
   61.5454   30.5300   48.6082 O   0  0  0  0  0  0  0  0  0  0  0  0
   59.4261   30.6593   49.7979 O   0  0  0  0  0  0  0  0  0  0  0  0
   61.2420   28.9727   50.7485 N   0  0  0  0  0  0  0  0  0  0  0  0
   62.3986   29.7493   51.2479 C   0  0  0  0  0  0  0  0  0  0  0  0
   62.0617   30.5288   52.5321 C   0  0  0  0  0  0  0  0  0  0  0  0
   61.6113   29.7005   53.5934 O   0  0  0  0  0  0  0  0  0  0  0  0
   60.8866   28.5534   53.1626 C   0  0  0  0  0  0  0  0  0  0  0  0
   60.2253   28.7182   51.7853 C   0  0  0  0  0  0  0  0  0  0  0  0
   57.1141   28.2581   45.6715 N   0  0  0  0  0  0  0  0  0  0  0  0
   57.0234   29.4524   44.8839 C   0  0  0  0  0  0  0  0  0  0  0  0
   55.8882   29.9401   44.6440 O   0  0  0  0  0  0  0  0  0  0  0  0
   58.2500   30.1728   44.3931 C   0  0  0  0  0  0  0  0  0  0  0  0
   58.3905   32.6830   44.6190 C   0  0  0  0  0  0  0  0  0  0  0  0
   58.0296   32.8238   43.4185 O   0  0  0  0  0  0  0  0  0  0  0  0
   58.5017   31.3757   45.1870 N   0  0  0  0  0  0  0  0  0  0  0  0
   58.7534   31.2829   46.1343 H   0  0  0  0  0  0  0  0  0  0  0  0
   58.6501   33.8289   45.4374 N   0  0  0  0  0  0  0  0  0  0  0  0
   61.6771   33.6664   47.6775 C   0  0  0  0  0  0  0  0  0  0  0  0
   61.0537   33.8458   48.9286 C   0  0  0  0  0  0  0  0  0  0  0  0
   59.6684   34.0070   49.0142 C   0  0  0  0  0  0  0  0  0  0  0  0
   58.8871   33.9984   47.8594 C   0  0  0  0  0  0  0  0  0  0  0  0
   59.4853   33.8498   46.6041 C   0  0  0  0  0  0  0  0  0  0  0  0
   60.8781   33.6659   46.5174 C   0  0  0  0  0  0  0  0  0  0  0  0
   63.9651   33.0849   48.8019 C   0  0  0  0  0  0  0  0  0  0  0  0
   63.1514   33.4735   47.6018 C   0  0  0  0  0  0  0  0  0  0  0  0
   63.7456   33.6307   46.5000 O   0  0  0  0  0  0  0  0  0  0  0  0
 36 37  1  0
 37 38  2  0
 37 30  1  0
 30 31  2  0
 31 32  1  0
 32 33  2  0
 33 34  1  0
 34 29  1  0
 29 25  1  0
 25 26  2  0
 25 27  1  0
 27 24  1  0
 24 22  1  0
 22 23  2  0
 22 21  1  0
 21  1  1  0
  1  2  2  0
  2  3  1  0
  3 12  1  0
 12 13  2  0
 12 14  2  0
 12 15  1  0
 15 16  1  0
 16 17  1  0
 17 18  1  0
 18 19  1  0
 19 20  1  0
  3  4  2  0
  4  5  1  0
  5  6  2  0
  6  7  1  0
  7  8  1  0
  8  9  1  0
  9 10  1  0
 10 11  1  0
 34 35  2  0
 35 30  1  0
  6  1  1  0
 11  7  1  0
 20 15  1  0
 27 28  1  0
M  CHG 1  21  -1
M  CHG 1  29  -1
M  END
> <UniqueID>
77

> <SMILES>
CC(=O)c1cccc([N-]C(=O)NCC(=O)[N-]c2cc(S(=O)(=O)N3CCOCC3)ccc2N2CCCC2)c1

> <Energy>
88.99393852098848

> <Genealogy>
CC(=O)c1cccc([N-]C(=O)NCC(=O)[N-]c2cc(S(=O)(=O)N3CCOCC3)ccc2N2CCCC2)c1 (protonated)
CC(=O)c1cccc([N-]C(=O)NCC(=O)[N-]c2cc(S(=O)(=O)N3CCOCC3)ccc2N2CCCC2)c1 (3D coordinates assigned)
CC(=O)c1cccc([N-]C(=O)NCC(=O)[N-]c2cc(S(=O)(=O)N3CCOCC3)ccc2N2CCCC2)c1 (nonaromatic ring conformer: 88.99393852098848 kcal/mol)

> <smiles>
CC(=O)c1cccc(NC(=O)NCC(=O)Nc2cc(S(=O)(=O)N3CCOCC3)ccc2N2CCCC2)c1

> <score_type>
oracle

> <origin>
adg

> <m_score__min__energy>
-14.33

> <m_primary>
energy

> <minimizedAffinity>
-7.65312

> <minimizedRMSD>
1.31568

> <CNNscore>
0.3743323088

> <CNNaffinity>
7.0272679329

> <CNN_VS>
2.6305334568

> <CNNaffinity_variance>
0.2116191238

$$$$
82:0


 28 30  0  0  0  0  0  0  0  0999 V2000
   58.6110   30.5012   46.0869 C   0  0  0  0  0  0  0  0  0  0  0  0
   59.0997   31.5875   46.8252 C   0  0  0  0  0  0  0  0  0  0  0  0
   59.1447   32.8688   46.2639 C   0  0  0  0  0  0  0  0  0  0  0  0
   58.6703   33.0723   44.9622 C   0  0  0  0  0  0  0  0  0  0  0  0
   58.1523   32.0015   44.2300 C   0  0  0  0  0  0  0  0  0  0  0  0
   58.1045   30.7176   44.7885 C   0  0  0  0  0  0  0  0  0  0  0  0
   57.5326   29.6702   44.0684 O   0  0  0  0  0  0  0  0  0  0  0  0
   57.1983   29.8220   43.2063 H   0  0  0  0  0  0  0  0  0  0  0  0
   59.7587   34.2192   47.2148 S   0  0  0  0  0  0  0  0  0  0  0  0
   59.7346   35.4586   46.3626 O   0  0  0  0  0  0  0  0  0  0  0  0
   58.8811   34.4438   48.4148 O   0  0  0  0  0  0  0  0  0  0  0  0
   61.3965   33.8900   47.7268 N   0  0  0  0  0  0  0  0  0  0  0  0
   61.9115   32.6904   47.0278 C   0  0  0  0  0  0  0  0  0  0  0  0
   63.1260   32.0974   47.7478 C   0  0  0  0  0  0  0  0  0  0  0  0
   62.7532   31.6295   49.1655 C   0  0  0  0  0  0  0  0  0  0  0  0
   61.5482   32.3906   49.7449 C   0  0  0  0  0  0  0  0  0  0  0  0
   61.4896   33.8273   49.2073 C   0  0  0  0  0  0  0  0  0  0  0  0
   58.5954   29.2065   46.7042 N   0  0  0  0  0  0  0  0  0  0  0  0
   59.6831   27.8706   45.1535 O   0  0  0  0  0  0  0  0  0  0  0  0
   58.7888   27.9503   46.0373 C   0  0  0  0  0  0  0  0  0  0  0  0
   57.9261   26.7747   46.3116 C   0  0  0  0  0  0  0  0  0  0  0  0
   58.4471   25.6497   46.9727 C   0  0  0  0  0  0  0  0  0  0  0  0
   57.6329   24.5472   47.2334 C   0  0  0  0  0  0  0  0  0  0  0  0
   56.2938   24.5783   46.8402 C   0  0  0  0  0  0  0  0  0  0  0  0
   55.5446   23.5923   47.0687 O   0  0  0  0  0  0  0  0  0  0  0  0
   55.7961   25.6737   46.2083 N   0  0  0  0  0  0  0  0  0  0  0  0
   56.5673   26.7616   45.9387 C   0  0  0  0  0  0  0  0  0  0  0  0
   55.9982   27.8436   45.2781 O   0  0  0  0  0  0  0  0  0  0  0  0
 19 20  2  0
 20 18  1  0
 18  1  1  0
  1  2  2  0
  2  3  1  0
  3  9  1  0
  9 10  2  0
  9 11  2  0
  9 12  1  0
 12 13  1  0
 13 14  1  0
 14 15  1  0
 15 16  1  0
 16 17  1  0
  3  4  2  0
  4  5  1  0
  5  6  2  0
  6  7  1  0
 20 21  1  0
 21 22  1  0
 22 23  2  0
 23 24  1  0
 24 25  2  0
 24 26  1  0
 26 27  1  0
 27 28  1  0
  6  1  1  0
 27 21  2  0
 17 12  1  0
  7  8  1  0
M  CHG 1  18  -1
M  CHG 1  26  -1
M  CHG 1  28  -1
M  END
> <UniqueID>
78

> <SMILES>
O=C([N-]c1cc(S(=O)(=O)N2CCCCC2)ccc1O)c1ccc(=O)[n-]c1[O-]

> <Energy>
59.628404291687765

> <Genealogy>
O=C([N-]c1cc(S(=O)(=O)N2CCCCC2)ccc1O)c1ccc(=O)[n-]c1[O-] (protonated)
O=C([N-]c1cc(S(=O)(=O)N2CCCCC2)ccc1O)c1ccc(=O)[n-]c1[O-] (3D coordinates assigned)
O=C([N-]c1cc(S(=O)(=O)N2CCCCC2)ccc1O)c1ccc(=O)[n-]c1[O-] (nonaromatic ring conformer: 59.628404291687765 kcal/mol)

> <smiles>
O=C(Nc1cc(S(=O)(=O)N2CCCCC2)ccc1O)c1ccc(=O)[nH]c1O

> <score_type>
oracle

> <origin>
adg

> <m_score__min__energy>
-16.170000000000002

> <m_primary>
energy

> <minimizedAffinity>
-6.82757

> <minimizedRMSD>
0.87120

> <CNNscore>
0.4479261339

> <CNNaffinity>
6.5605583191

> <CNN_VS>
2.9386456013

> <CNNaffinity_variance>
0.2811267078

$$$$
83:0


 30 33  0  0  0  0  0  0  0  0999 V2000
   58.4634   26.6114   45.1356 C   0  0  0  0  0  0  0  0  0  0  0  0
   58.0455   27.8882   45.0582 C   0  0  0  0  0  0  0  0  0  0  0  0
   56.8291   28.2503   44.5948 N   0  0  0  0  0  0  0  0  0  0  0  0
   56.8104   29.5903   44.7298 C   0  0  0  0  0  0  0  0  0  0  0  0
   55.8260   30.2956   44.3789 O   0  0  0  0  0  0  0  0  0  0  0  0
   57.9433   30.1010   45.2543 N   0  0  0  0  0  0  0  0  0  0  0  0
   58.7360   29.0266   45.4770 C   0  0  0  0  0  0  0  0  0  0  0  0
   59.9507   29.0765   46.0438 C   0  0  0  0  0  0  0  0  0  0  0  0
   55.4678   26.5527   46.0132 O   0  0  0  0  0  0  0  0  0  0  0  0
   56.3884   25.5276   46.2033 C   0  0  0  0  0  0  0  0  0  0  0  0
   56.0746   24.3415   46.7520 N   0  0  0  0  0  0  0  0  0  0  0  0
   57.2358   23.6575   46.6692 C   0  0  0  0  0  0  0  0  0  0  0  0
   57.3576   22.4761   47.0826 O   0  0  0  0  0  0  0  0  0  0  0  0
   58.2544   24.3394   46.1033 N   0  0  0  0  0  0  0  0  0  0  0  0
   57.7161   25.5403   45.8241 C   0  0  0  0  0  0  0  0  0  0  0  0
   54.5841   26.4492   46.3071 H   0  0  0  0  0  0  0  0  0  0  0  0
   58.2228   31.4930   45.4905 C   0  0  0  0  0  0  0  0  0  0  0  0
   58.2694   32.3988   44.4208 C   0  0  0  0  0  0  0  0  0  0  0  0
   58.5245   33.7515   44.6560 C   0  0  0  0  0  0  0  0  0  0  0  0
   58.7249   34.2128   45.9609 C   0  0  0  0  0  0  0  0  0  0  0  0
   58.6693   33.3162   47.0447 C   0  0  0  0  0  0  0  0  0  0  0  0
   58.4137   31.9618   46.7992 C   0  0  0  0  0  0  0  0  0  0  0  0
   58.8590   33.7275   48.3714 O   0  0  0  0  0  0  0  0  0  0  0  0
   60.0656   34.2958   48.8745 C   0  0  0  0  0  0  0  0  0  0  0  0
   61.2293   33.4717   48.4104 C   0  0  0  0  0  0  0  0  0  0  0  0
   61.4829   32.2158   48.9851 C   0  0  0  0  0  0  0  0  0  0  0  0
   62.5892   31.4640   48.5775 C   0  0  0  0  0  0  0  0  0  0  0  0
   63.4565   31.9669   47.6026 C   0  0  0  0  0  0  0  0  0  0  0  0
   63.2207   33.2232   47.0387 C   0  0  0  0  0  0  0  0  0  0  0  0
   62.1147   33.9777   47.4445 C   0  0  0  0  0  0  0  0  0  0  0  0
  9 10  1  0
 10 11  1  0
 11 12  1  0
 12 13  2  0
 12 14  1  0
 14 15  1  0
 15  1  1  0
  1  2  2  0
  2  3  1  0
  3  4  1  0
  4  5  2  0
  4  6  1  0
  6 17  1  0
 17 18  2  0
 18 19  1  0
 19 20  2  0
 20 21  1  0
 21 23  1  0
 23 24  1  0
 24 25  1  0
 25 26  2  0
 26 27  1  0
 27 28  2  0
 28 29  1  0
 29 30  2  0
 21 22  2  0
  6  7  1  0
  7  8  2  0
 15 10  2  0
  7  2  1  0
 22 17  1  0
 30 25  1  0
  9 16  1  0
M  CHG 1   3  -1
M  CHG 1  11  -1
M  CHG 1  14  -1
M  END
> <UniqueID>
79

> <SMILES>
C=c1/c(=C/c2[n-]c(=O)[n-]c2O)[n-]c(=O)n1-c1cccc(OCc2ccccc2)c1

> <Energy>
121.36533270427789

> <Genealogy>
C=c1c(=Cc2[n-]c(=O)[n-]c2O)[n-]c(=O)n1-c1cccc(OCc2ccccc2)c1 (protonated)
C=c1/c(=C/c2[n-]c(=O)[n-]c2O)[n-]c(=O)n1-c1cccc(OCc2ccccc2)c1 (cis-trans isomerization)
C=c1/c(=C/c2[n-]c(=O)[n-]c2O)[n-]c(=O)n1-c1cccc(OCc2ccccc2)c1 (3D coordinates assigned)
C=c1/c(=C/c2[n-]c(=O)[n-]c2O)[n-]c(=O)n1-c1cccc(OCc2ccccc2)c1 (optimized conformer: 121.36533270427789 kcal/mol)

> <smiles>
C=c1c(=Cc2[nH]c(=O)[nH]c2O)[nH]c(=O)n1-c1cccc(OCc2ccccc2)c1

> <score_type>
oracle

> <origin>
adg

> <m_score__min__energy>
-15.84

> <m_primary>
energy

> <minimizedAffinity>
-9.51456

> <minimizedRMSD>
0.63618

> <CNNscore>
0.8221864700

> <CNNaffinity>
7.2709479332

> <CNN_VS>
5.9780750275

> <CNNaffinity_variance>
0.0372004621

$$$$
84:0


 31 34  0  0  0  0  0  0  0  0999 V2000
   60.2048   28.8842   44.7347 C   0  0  0  0  0  0  0  0  0  0  0  0
   59.6964   28.6739   45.9607 C   0  0  0  0  0  0  0  0  0  0  0  0
   58.8498   27.6243   46.3465 C   0  0  0  0  0  0  0  0  0  0  0  0
   58.1698   26.7205   45.6156 C   0  0  0  0  0  0  0  0  0  0  0  0
   58.7784   27.6743   47.7259 C   0  0  0  0  0  0  0  0  0  0  0  0
   59.5023   28.7772   48.1329 C   0  0  0  0  0  0  0  0  0  0  0  0
   60.0647   29.3909   47.0587 N   0  0  0  0  0  0  0  0  0  0  0  0
   57.5170   25.5084   46.1395 C   0  0  0  0  0  0  0  0  0  0  0  0
   58.1401   24.3342   46.3528 N   0  0  0  0  0  0  0  0  0  0  0  0
   57.1296   23.5035   46.6895 C   0  0  0  0  0  0  0  0  0  0  0  0
   57.3154   22.2942   46.9834 O   0  0  0  0  0  0  0  0  0  0  0  0
   55.9028   24.0674   46.6761 N   0  0  0  0  0  0  0  0  0  0  0  0
   56.1667   25.3333   46.3103 C   0  0  0  0  0  0  0  0  0  0  0  0
   55.1899   26.3059   46.1333 O   0  0  0  0  0  0  0  0  0  0  0  0
   59.6007   29.2272   49.5450 C   0  0  0  0  0  0  0  0  0  0  0  0
   60.6330   28.9378   50.2093 O   0  0  0  0  0  0  0  0  0  0  0  0
   58.5634   30.0561   50.1316 N   0  0  0  0  0  0  0  0  0  0  0  0
   58.3787   29.8082   51.5834 C   0  0  0  0  0  0  0  0  0  0  0  0
   59.4829   30.4143   52.4695 C   0  0  0  0  0  0  0  0  0  0  0  0
   59.8034   31.8136   52.0448 C   0  0  0  0  0  0  0  0  0  0  0  0
   60.0631   32.6661   52.8813 O   0  0  0  0  0  0  0  0  0  0  0  0
   59.9147   32.1315   50.5867 C   0  0  0  0  0  0  0  0  0  0  0  0
   58.7530   31.4913   49.8157 C   0  0  0  0  0  0  0  0  0  0  0  0
   59.2160   30.7850   50.2413 H   0  0  0  0  0  0  0  0  0  0  0  0
   60.9871   30.5384   47.0817 C   0  0  0  0  0  0  0  0  0  0  0  0
   60.2495   31.8290   46.8298 C   0  0  0  0  0  0  0  0  0  0  0  0
   58.9438   31.8081   46.3079 C   0  0  0  0  0  0  0  0  0  0  0  0
   58.2650   33.0038   46.0574 C   0  0  0  0  0  0  0  0  0  0  0  0
   58.8828   34.2293   46.3157 C   0  0  0  0  0  0  0  0  0  0  0  0
   60.1851   34.2607   46.8224 C   0  0  0  0  0  0  0  0  0  0  0  0
   60.8684   33.0684   47.0746 C   0  0  0  0  0  0  0  0  0  0  0  0
  1  2  2  0
  2  3  1  0
  3  4  2  0
  4  8  1  0
  8  9  1  0
  9 10  1  0
 10 11  2  0
 10 12  1  0
 12 13  1  0
 13 14  1  0
  3  5  1  0
  5  6  2  0
  6 15  1  0
 15 16  2  0
 15 17  1  0
 17 18  1  0
 18 19  1  0
 19 20  1  0
 20 21  2  0
 20 22  1  0
 22 23  1  0
  6  7  1  0
  7 25  1  0
 25 26  1  0
 26 27  2  0
 27 28  1  0
 28 29  2  0
 29 30  1  0
 30 31  2  0
  7  2  1  0
 31 26  1  0
 13  8  2  0
 23 17  1  0
 17 24  1  0
M  CHG 1   9  -1
M  CHG 1  12  -1
M  CHG 1  14  -1
M  CHG 1  17   1
M  END
> <UniqueID>
80

> <SMILES>
C=c1/c(=C\c2[n-]c(=O)[n-]c2[O-])cc(C(=O)[NH+]2CCC(=O)CC2)n1Cc1ccccc1

> <Energy>
130.8306551067263

> <Genealogy>
C=c1c(=Cc2[n-]c(=O)[n-]c2[O-])cc(C(=O)[NH+]2CCC(=O)CC2)n1Cc1ccccc1 (protonated)
C=c1/c(=C\c2[n-]c(=O)[n-]c2[O-])cc(C(=O)[NH+]2CCC(=O)CC2)n1Cc1ccccc1 (cis-trans isomerization)
C=c1/c(=C\c2[n-]c(=O)[n-]c2[O-])cc(C(=O)[NH+]2CCC(=O)CC2)n1Cc1ccccc1 (3D coordinates assigned)
C=c1/c(=C\c2[n-]c(=O)[n-]c2[O-])cc(C(=O)[NH+]2CCC(=O)CC2)n1Cc1ccccc1 (nonaromatic ring conformer: 130.8306551067263 kcal/mol)

> <smiles>
C=c1c(=Cc2[nH]c(=O)[nH]c2O)cc(C(=O)N2CCC(=O)CC2)n1Cc1ccccc1

> <score_type>
oracle

> <origin>
adg

> <m_score__min__energy>
-14.630000000000001

> <m_primary>
energy

> <minimizedAffinity>
-8.12002

> <minimizedRMSD>
1.16060

> <CNNscore>
0.2072909176

> <CNNaffinity>
6.5339107513

> <CNN_VS>
1.3544203043

> <CNNaffinity_variance>
0.0235497877

$$$$
91:0


 40 44  0  0  0  0  0  0  0  0999 V2000
   62.0884   29.0804   50.9200 O   0  0  0  0  0  0  0  0  0  0  0  0
   60.9173   29.0507   50.4587 C   0  0  0  0  0  0  0  0  0  0  0  0
   60.4322   27.8481   49.7645 C   0  0  0  0  0  0  0  0  0  0  0  0
   60.8117   26.7139   50.1632 O   0  0  0  0  0  0  0  0  0  0  0  0
   59.5118   27.9611   48.6663 N   0  0  0  0  0  0  0  0  0  0  0  0
   59.0368   28.8153   48.5482 H   0  0  0  0  0  0  0  0  0  0  0  0
   59.2413   26.9042   47.7292 C   0  0  0  0  0  0  0  0  0  0  0  0
   60.3025   26.3430   47.0013 C   0  0  0  0  0  0  0  0  0  0  0  0
   60.0725   25.2913   46.1099 C   0  0  0  0  0  0  0  0  0  0  0  0
   58.7816   24.7809   45.9463 C   0  0  0  0  0  0  0  0  0  0  0  0
   57.7149   25.3180   46.6783 C   0  0  0  0  0  0  0  0  0  0  0  0
   57.9481   26.3696   47.5766 C   0  0  0  0  0  0  0  0  0  0  0  0
   56.1001   24.6285   46.5169 S   0  0  0  0  0  0  0  0  0  0  0  0
   55.6574   24.0637   47.8389 O   0  0  0  0  0  0  0  0  0  0  0  0
   55.1430   25.7176   46.1190 O   0  0  0  0  0  0  0  0  0  0  0  0
   56.1147   23.3800   45.2969 N   0  0  0  0  0  0  0  0  0  0  0  0
   56.5789   23.9364   44.0135 C   0  0  0  0  0  0  0  0  0  0  0  0
   56.8815   22.8123   43.0021 C   0  0  0  0  0  0  0  0  0  0  0  0
   56.3581   21.5757   43.4475 O   0  0  0  0  0  0  0  0  0  0  0  0
   57.0171   21.1782   44.6381 C   0  0  0  0  0  0  0  0  0  0  0  0
   56.9894   22.2776   45.7204 C   0  0  0  0  0  0  0  0  0  0  0  0
   60.0243   30.1537   50.6645 N   0  0  0  0  0  0  0  0  0  0  0  0
   60.0467   31.4107   49.9710 C   0  0  0  0  0  0  0  0  0  0  0  0
   60.0287   32.5911   50.7215 C   0  0  0  0  0  0  0  0  0  0  0  0
   60.0502   33.8341   50.0837 C   0  0  0  0  0  0  0  0  0  0  0  0
   60.0644   33.9073   48.6887 C   0  0  0  0  0  0  0  0  0  0  0  0
   60.0315   32.7341   47.9181 C   0  0  0  0  0  0  0  0  0  0  0  0
   60.0329   31.4865   48.5656 C   0  0  0  0  0  0  0  0  0  0  0  0
   60.0173   32.8083   46.4097 C   0  0  0  0  0  0  0  0  0  0  0  0
   58.8745   32.0101   45.8336 C   0  0  0  0  0  0  0  0  0  0  0  0
   57.7304   32.6761   45.5133 N   0  0  0  0  0  0  0  0  0  0  0  0
   56.6711   32.0590   44.9925 N   0  0  0  0  0  0  0  0  0  0  0  0
   56.6750   30.7252   44.7473 C   0  0  0  0  0  0  0  0  0  0  0  0
   55.6450   30.1802   44.2691 O   0  0  0  0  0  0  0  0  0  0  0  0
   57.8261   29.9754   45.0312 C   0  0  0  0  0  0  0  0  0  0  0  0
   58.9462   30.6212   45.5789 C   0  0  0  0  0  0  0  0  0  0  0  0
   60.1471   29.7656   45.9141 C   0  0  0  0  0  0  0  0  0  0  0  0
   60.4613   28.8024   44.7575 C   0  0  0  0  0  0  0  0  0  0  0  0
   59.2222   28.0599   44.1924 C   0  0  0  0  0  0  0  0  0  0  0  0
   57.8839   28.4798   44.8231 C   0  0  0  0  0  0  0  0  0  0  0  0
  1  2  2  0
  2 22  1  0
 22 23  1  0
 23 24  2  0
 24 25  1  0
 25 26  2  0
 26 27  1  0
 27 29  1  0
 29 30  1  0
 30 31  2  0
 31 32  1  0
 32 33  1  0
 33 34  2  0
 33 35  1  0
 35 36  2  0
 36 37  1  0
 37 38  1  0
 38 39  1  0
 39 40  1  0
 27 28  2  0
  2  3  1  0
  3  4  2  0
  3  5  1  0
  5  7  1  0
  7  8  2  0
  8  9  1  0
  9 10  2  0
 10 11  1  0
 11 13  1  0
 13 14  2  0
 13 15  2  0
 13 16  1  0
 16 17  1  0
 17 18  1  0
 18 19  1  0
 19 20  1  0
 20 21  1  0
 11 12  2  0
 28 23  1  0
 12  7  1  0
 36 30  1  0
 21 16  1  0
 40 35  1  0
  5  6  1  0
M  CHG 1  22  -1
M  CHG 1  32  -1
M  END
> <UniqueID>
87

> <SMILES>
O=C([N-]c1cccc(Cc2n[n-]c(=O)c3c2CCCC3)c1)C(=O)Nc1cccc(S(=O)(=O)N2CCOCC2)c1

> <Energy>
90.85267930032863

> <Genealogy>
O=C([N-]c1cccc(Cc2n[n-]c(=O)c3c2CCCC3)c1)C(=O)Nc1cccc(S(=O)(=O)N2CCOCC2)c1 (protonated)
O=C([N-]c1cccc(Cc2n[n-]c(=O)c3c2CCCC3)c1)C(=O)Nc1cccc(S(=O)(=O)N2CCOCC2)c1 (3D coordinates assigned)
O=C([N-]c1cccc(Cc2n[n-]c(=O)c3c2CCCC3)c1)C(=O)Nc1cccc(S(=O)(=O)N2CCOCC2)c1 (nonaromatic ring conformer: 90.85267930032863 kcal/mol)

> <smiles>
O=C(Nc1cccc(Cc2n[nH]c(=O)c3c2CCCC3)c1)C(=O)Nc1cccc(S(=O)(=O)N2CCOCC2)c1

> <score_type>
oracle

> <origin>
adg

> <m_score__min__energy>
-15.65

> <m_primary>
energy

> <minimizedAffinity>
-7.30679

> <minimizedRMSD>
0.60668

> <CNNscore>
0.3519326150

> <CNNaffinity>
6.8698887825

> <CNN_VS>
2.4177379608

> <CNNaffinity_variance>
0.1479609609

$$$$
12:0


 36 40  0  0  0  0  0  0  0  0999 V2000
   59.3459   30.0910   47.5054 C   0  0  0  0  0  0  0  0  0  0  0  0
   58.5061   30.5205   48.5426 C   0  0  0  0  0  0  0  0  0  0  0  0
   58.9989   31.3627   49.5438 C   0  0  0  0  0  0  0  0  0  0  0  0
   60.3336   31.7976   49.5128 C   0  0  0  0  0  0  0  0  0  0  0  0
   61.1761   31.3535   48.4800 C   0  0  0  0  0  0  0  0  0  0  0  0
   60.6851   30.5078   47.4804 C   0  0  0  0  0  0  0  0  0  0  0  0
   61.5200   30.0720   46.5037 F   0  0  0  0  0  0  0  0  0  0  0  0
   60.8527   32.6797   50.5835 C   0  0  0  0  0  0  0  0  0  0  0  0
   60.0376   33.2488   51.3599 O   0  0  0  0  0  0  0  0  0  0  0  0
   62.2662   32.8761   50.7760 N   0  0  0  0  0  0  0  0  0  0  0  0
   63.1434   33.1780   49.6353 C   0  0  0  0  0  0  0  0  0  0  0  0
   64.4717   32.4214   49.7730 C   0  0  0  0  0  0  0  0  0  0  0  0
   64.9716   32.4464   51.1568 N   0  0  0  0  0  0  0  0  0  0  0  0
   66.1468   31.6836   51.4841 C   0  0  0  0  0  0  0  0  0  0  0  0
   67.0593   31.5521   50.6221 O   0  0  0  0  0  0  0  0  0  0  0  0
   64.2893   33.2793   52.1568 C   0  0  0  0  0  0  0  0  0  0  0  0
   62.7895   32.9707   52.1476 C   0  0  0  0  0  0  0  0  0  0  0  0
   66.3141   31.0538   52.8423 C   0  0  0  0  0  0  0  0  0  0  0  0
   65.3179   29.9032   53.0509 C   0  0  0  0  0  0  0  0  0  0  0  0
   65.8787   28.5048   52.8321 C   0  0  0  0  0  0  0  0  0  0  0  0
   64.9517   29.1246   51.7973 C   0  0  0  0  0  0  0  0  0  0  0  0
   59.1991   27.1192   47.5178 C   0  0  0  0  0  0  0  0  0  0  0  0
   58.7529   27.8756   46.5022 C   0  0  0  0  0  0  0  0  0  0  0  0
   58.1582   27.4159   45.3228 C   0  0  0  0  0  0  0  0  0  0  0  0
   57.9429   26.1358   44.9631 C   0  0  0  0  0  0  0  0  0  0  0  0
   57.8837   28.5448   44.5606 C   0  0  0  0  0  0  0  0  0  0  0  0
   58.2945   29.6330   45.3025 C   0  0  0  0  0  0  0  0  0  0  0  0
   58.1903   31.0579   44.8547 C   0  0  0  0  0  0  0  0  0  0  0  0
   58.8302   29.2294   46.4758 N   0  0  0  0  0  0  0  0  0  0  0  0
   57.2822   25.1359   45.8214 C   0  0  0  0  0  0  0  0  0  0  0  0
   57.9302   24.0954   46.3741 N   0  0  0  0  0  0  0  0  0  0  0  0
   56.9831   23.5046   47.1370 C   0  0  0  0  0  0  0  0  0  0  0  0
   57.2097   22.4700   47.8163 O   0  0  0  0  0  0  0  0  0  0  0  0
   55.7811   24.1184   47.1238 N   0  0  0  0  0  0  0  0  0  0  0  0
   55.9884   25.1566   46.2994 C   0  0  0  0  0  0  0  0  0  0  0  0
   55.0303   26.1254   46.0291 O   0  0  0  0  0  0  0  0  0  0  0  0
 22 23  2  0
 23 24  1  0
 24 25  2  0
 25 30  1  0
 30 31  1  0
 31 32  1  0
 32 33  2  0
 32 34  1  0
 34 35  1  0
 35 36  1  0
 24 26  1  0
 26 27  2  0
 27 28  1  0
 27 29  1  0
 29  1  1  0
  1  2  2  0
  2  3  1  0
  3  4  2  0
  4  8  1  0
  8  9  2  0
  8 10  1  0
 10 11  1  0
 11 12  1  0
 12 13  1  0
 13 14  1  0
 14 15  2  0
 14 18  1  0
 18 19  1  0
 19 20  1  0
 20 21  1  0
 13 16  1  0
 16 17  1  0
  4  5  1  0
  5  6  2  0
  6  7  1  0
 29 23  1  0
  6  1  1  0
 35 30  2  0
 17 10  1  0
 21 19  1  0
M  CHG 1  31  -1
M  CHG 1  34  -1
M  CHG 1  36  -1
M  END
> <UniqueID>
13

> <SMILES>
C=c1/c(=C/c2[n-]c(=O)[n-]c2[O-])cc(C)n1-c1ccc(C(=O)N2CCN(C(=O)CC3CC3)CC2)cc1F

> <Energy>
405.6778002154145

> <Genealogy>
C=c1c(=Cc2[n-]c(=O)[n-]c2[O-])cc(C)n1-c1ccc(C(=O)N2CCN(C(=O)CC3CC3)CC2)cc1F (protonated)
C=c1/c(=C/c2[n-]c(=O)[n-]c2[O-])cc(C)n1-c1ccc(C(=O)N2CCN(C(=O)CC3CC3)CC2)cc1F (cis-trans isomerization)
C=c1/c(=C/c2[n-]c(=O)[n-]c2[O-])cc(C)n1-c1ccc(C(=O)N2CCN(C(=O)CC3CC3)CC2)cc1F (3D coordinates assigned)
C=c1/c(=C/c2[n-]c(=O)[n-]c2[O-])cc(C)n1-c1ccc(C(=O)N2CCN(C(=O)CC3CC3)CC2)cc1F (nonaromatic ring conformer: 405.6778002154145 kcal/mol)

> <smiles>
C=c1c(=Cc2[nH]c(=O)[nH]c2O)cc(C)n1-c1ccc(C(=O)N2CCN(C(=O)CC3CC3)CC2)cc1F

> <score_type>
oracle

> <origin>
adg

> <m_score__min__energy>
-17.559999999999999

> <m_primary>
energy

> <minimizedAffinity>
-8.08135

> <minimizedRMSD>
1.40946

> <CNNscore>
0.0992169157

> <CNNaffinity>
6.6241302490

> <CNN_VS>
0.6572257876

> <CNNaffinity_variance>
0.2093985528

$$$$
21:0


 43 47  0  0  0  0  0  0  0  0999 V2000
   64.3380   33.9306   51.2364 C   0  0  0  0  0  0  0  0  0  0  0  0
   64.0664   34.8804   52.0263 O   0  0  0  0  0  0  0  0  0  0  0  0
   65.6383   33.2814   51.3053 N   0  0  0  0  0  0  0  0  0  0  0  0
   65.5305   31.8055   51.1133 C   0  0  0  0  0  0  0  0  0  0  0  0
   65.7307   30.9900   52.4035 C   0  0  0  0  0  0  0  0  0  0  0  0
   65.1988   31.7209   53.5581 N   0  0  0  0  0  0  0  0  0  0  0  0
   64.3326   31.0945   54.5216 C   0  0  0  0  0  0  0  0  0  0  0  0
   64.4397   31.4014   55.7403 O   0  0  0  0  0  0  0  0  0  0  0  0
   65.6790   33.0842   53.8053 C   0  0  0  0  0  0  0  0  0  0  0  0
   66.3446   33.6706   52.5480 C   0  0  0  0  0  0  0  0  0  0  0  0
   64.7092   33.2019   50.9894 H   0  0  0  0  0  0  0  0  0  0  0  0
   63.3157   30.0646   54.1025 C   0  0  0  0  0  0  0  0  0  0  0  0
   63.8993   28.6425   54.1133 C   0  0  0  0  0  0  0  0  0  0  0  0
   63.6122   27.8739   52.8124 C   0  0  0  0  0  0  0  0  0  0  0  0
   62.7094   28.6527   51.8450 C   0  0  0  0  0  0  0  0  0  0  0  0
   61.4725   27.8813   51.5792 N   0  0  0  0  0  0  0  0  0  0  0  0
   60.5741   27.8128   52.7591 C   0  0  0  0  0  0  0  0  0  0  0  0
   59.4989   28.9217   52.7688 C   0  0  0  0  0  0  0  0  0  0  0  0
   59.9752   30.0948   52.0214 N   0  0  0  0  0  0  0  0  0  0  0  0
   59.0470   31.2219   52.1816 C   0  0  0  0  0  0  0  0  0  0  0  0
   60.1518   29.7702   50.5897 C   0  0  0  0  0  0  0  0  0  0  0  0
   60.7546   28.3628   50.3818 C   0  0  0  0  0  0  0  0  0  0  0  0
   61.4186   32.8966   48.2534 C   0  0  0  0  0  0  0  0  0  0  0  0
   61.0534   33.0033   49.6022 C   0  0  0  0  0  0  0  0  0  0  0  0
   62.0089   33.3343   50.5666 C   0  0  0  0  0  0  0  0  0  0  0  0
   63.3430   33.5716   50.1975 C   0  0  0  0  0  0  0  0  0  0  0  0
   63.7105   33.4391   48.8456 C   0  0  0  0  0  0  0  0  0  0  0  0
   62.7523   33.1092   47.8813 C   0  0  0  0  0  0  0  0  0  0  0  0
   61.0353   30.3072   46.8667 C   0  0  0  0  0  0  0  0  0  0  0  0
   60.2322   31.3646   46.6664 C   0  0  0  0  0  0  0  0  0  0  0  0
   59.1831   31.4748   45.7374 C   0  0  0  0  0  0  0  0  0  0  0  0
   58.5962   30.5508   44.9514 C   0  0  0  0  0  0  0  0  0  0  0  0
   58.7997   32.8061   45.7409 C   0  0  0  0  0  0  0  0  0  0  0  0
   59.5663   33.4408   46.6948 C   0  0  0  0  0  0  0  0  0  0  0  0
   59.4717   34.8976   47.0349 C   0  0  0  0  0  0  0  0  0  0  0  0
   60.4338   32.5705   47.2583 N   0  0  0  0  0  0  0  0  0  0  0  0
   58.2128   29.1947   45.3626 C   0  0  0  0  0  0  0  0  0  0  0  0
   59.0980   28.2457   45.7154 N   0  0  0  0  0  0  0  0  0  0  0  0
   58.3266   27.1518   45.8936 C   0  0  0  0  0  0  0  0  0  0  0  0
   58.7995   26.0400   46.2496 O   0  0  0  0  0  0  0  0  0  0  0  0
   57.0123   27.3377   45.6495 N   0  0  0  0  0  0  0  0  0  0  0  0
   56.9583   28.6322   45.3016 C   0  0  0  0  0  0  0  0  0  0  0  0
   55.7925   29.2798   44.9135 O   0  0  0  0  0  0  0  0  0  0  0  0
 29 30  2  0
 30 31  1  0
 31 32  2  0
 32 37  1  0
 37 38  1  0
 38 39  1  0
 39 40  2  0
 39 41  1  0
 41 42  1  0
 42 43  1  0
 31 33  1  0
 33 34  2  0
 34 35  1  0
 34 36  1  0
 36 23  1  0
 23 24  2  0
 24 25  1  0
 25 26  2  0
 26  1  1  0
  1  2  2  0
  1  3  1  0
  3  4  1  0
  4  5  1  0
  5  6  1  0
  6  7  1  0
  7  8  2  0
  7 12  1  0
 12 13  1  0
 13 14  1  0
 14 15  1  0
 15 16  1  0
 16 17  1  0
 17 18  1  0
 18 19  1  0
 19 20  1  0
 19 21  1  0
 21 22  1  0
  6  9  1  0
  9 10  1  0
 26 27  1  0
 27 28  2  0
 36 30  1  0
 28 23  1  0
 42 37  2  0
 10  3  1  0
 22 16  1  0
  3 11  1  0
M  CHG 1   3   1
M  CHG 1  38  -1
M  CHG 1  41  -1
M  CHG 1  43  -1
M  END
> <UniqueID>
21

> <SMILES>
C=c1/c(=C\c2[n-]c(=O)[n-]c2[O-])cc(C)n1-c1ccc(C(=O)[NH+]2CCN(C(=O)CCCCN3CCN(C)CC3)CC2)cc1

> <Energy>
181.86914439135933

> <Genealogy>
C=c1c(=Cc2[n-]c(=O)[n-]c2[O-])cc(C)n1-c1ccc(C(=O)[NH+]2CCN(C(=O)CCCCN3CCN(C)CC3)CC2)cc1 (protonated)
C=c1/c(=C\c2[n-]c(=O)[n-]c2[O-])cc(C)n1-c1ccc(C(=O)[NH+]2CCN(C(=O)CCCCN3CCN(C)CC3)CC2)cc1 (cis-trans isomerization)
C=c1/c(=C\c2[n-]c(=O)[n-]c2[O-])cc(C)n1-c1ccc(C(=O)[NH+]2CCN(C(=O)CCCCN3CCN(C)CC3)CC2)cc1 (3D coordinates assigned)
C=c1/c(=C\c2[n-]c(=O)[n-]c2[O-])cc(C)n1-c1ccc(C(=O)[NH+]2CCN(C(=O)CCCCN3CCN(C)CC3)CC2)cc1 (nonaromatic ring conformer: 181.86914439135933 kcal/mol)

> <smiles>
C=c1c(=Cc2[nH]c(=O)[nH]c2O)cc(C)n1-c1ccc(C(=O)N2CCN(C(=O)CCCCN3CCN(C)CC3)CC2)cc1

> <score_type>
oracle

> <origin>
adg

> <m_score__min__energy>
-16.48

> <m_primary>
energy

> <minimizedAffinity>
-6.64348

> <minimizedRMSD>
2.28643

> <CNNscore>
0.1386936903

> <CNNaffinity>
6.9221148491

> <CNN_VS>
0.9600536823

> <CNNaffinity_variance>
0.1146258414

$$$$
25:0


 35 38  0  0  0  0  0  0  0  0999 V2000
   57.3043   25.0325   47.3214 C   0  0  0  0  0  0  0  0  0  0  0  0
   58.4184   25.2550   46.5975 C   0  0  0  0  0  0  0  0  0  0  0  0
   56.1598   24.2031   46.8781 C   0  0  0  0  0  0  0  0  0  0  0  0
   55.0895   24.7992   46.2056 C   0  0  0  0  0  0  0  0  0  0  0  0
   55.0994   26.1610   45.9232 O   0  0  0  0  0  0  0  0  0  0  0  0
   54.0337   24.0464   45.8132 N   0  0  0  0  0  0  0  0  0  0  0  0
   53.9781   22.7144   46.0648 C   0  0  0  0  0  0  0  0  0  0  0  0
   52.9824   22.0564   45.6572 O   0  0  0  0  0  0  0  0  0  0  0  0
   54.9943   22.0970   46.7458 N   0  0  0  0  0  0  0  0  0  0  0  0
   56.0745   22.8281   47.1704 C   0  0  0  0  0  0  0  0  0  0  0  0
   56.9849   22.2755   47.8492 O   0  0  0  0  0  0  0  0  0  0  0  0
   54.9264   20.6819   47.0212 C   0  0  0  0  0  0  0  0  0  0  0  0
   54.3147   20.2155   48.1960 C   0  0  0  0  0  0  0  0  0  0  0  0
   54.2559   18.8445   48.4612 C   0  0  0  0  0  0  0  0  0  0  0  0
   54.8039   17.9308   47.5564 C   0  0  0  0  0  0  0  0  0  0  0  0
   55.4130   18.3871   46.3843 C   0  0  0  0  0  0  0  0  0  0  0  0
   55.4758   19.7592   46.1153 C   0  0  0  0  0  0  0  0  0  0  0  0
   58.9265   24.1744   45.7860 C   0  0  0  0  0  0  0  0  0  0  0  0
   59.3352   23.3091   45.1362 N   0  0  0  0  0  0  0  0  0  0  0  0
   59.2101   26.5102   46.6757 C   0  0  0  0  0  0  0  0  0  0  0  0
   60.4217   26.5071   46.3239 O   0  0  0  0  0  0  0  0  0  0  0  0
   58.6105   27.7635   47.0329 N   0  0  0  0  0  0  0  0  0  0  0  0
   58.2644   28.8364   46.1458 C   0  0  0  0  0  0  0  0  0  0  0  0
   57.4464   28.6324   45.0212 C   0  0  0  0  0  0  0  0  0  0  0  0
   57.0986   29.7085   44.2000 C   0  0  0  0  0  0  0  0  0  0  0  0
   57.5600   30.9940   44.4944 C   0  0  0  0  0  0  0  0  0  0  0  0
   58.3811   31.2127   45.6125 C   0  0  0  0  0  0  0  0  0  0  0  0
   58.7048   30.1310   46.4479 C   0  0  0  0  0  0  0  0  0  0  0  0
   58.8626   32.5691   45.9433 C   0  0  0  0  0  0  0  0  0  0  0  0
   58.7295   33.4863   45.0888 O   0  0  0  0  0  0  0  0  0  0  0  0
   59.4546   32.8729   47.2204 N   0  0  0  0  0  0  0  0  0  0  0  0
   60.1131   34.1394   47.4912 C   0  0  0  0  0  0  0  0  0  0  0  0
   60.5088   34.0915   48.9598 C   0  0  0  0  0  0  0  0  0  0  0  0
   59.6543   32.9926   49.5824 C   0  0  0  0  0  0  0  0  0  0  0  0
   59.2323   32.0927   48.4296 C   0  0  0  0  0  0  0  0  0  0  0  0
  1  2  2  0
  2 18  1  0
 18 19  3  0
  2 20  1  0
 20 21  2  0
 20 22  1  0
 22 23  1  0
 23 24  2  0
 24 25  1  0
 25 26  2  0
 26 27  1  0
 27 29  1  0
 29 30  2  0
 29 31  1  0
 31 32  1  0
 32 33  1  0
 33 34  1  0
 34 35  1  0
 27 28  2  0
  1  3  1  0
  3  4  2  0
  4  5  1  0
  4  6  1  0
  6  7  1  0
  7  8  2  0
  7  9  1  0
  9 12  1  0
 12 13  2  0
 13 14  1  0
 14 15  2  0
 15 16  1  0
 16 17  2  0
  9 10  1  0
 10 11  2  0
 28 23  1  0
 10  3  1  0
 35 31  1  0
 17 12  1  0
M  CHG 1   5  -1
M  CHG 1   6  -1
M  CHG 1  22  -1
M  END
> <UniqueID>
25

> <SMILES>
N#C/C(=C/c1c([O-])[n-]c(=O)n(-c2ccccc2)c1=O)C(=O)[N-]c1cccc(C(=O)N2CCCC2)c1

> <Energy>
85.65856743879024

> <Genealogy>
N#CC(=Cc1c([O-])[n-]c(=O)n(-c2ccccc2)c1=O)C(=O)[N-]c1cccc(C(=O)N2CCCC2)c1 (protonated)
N#C/C(=C/c1c([O-])[n-]c(=O)n(-c2ccccc2)c1=O)C(=O)[N-]c1cccc(C(=O)N2CCCC2)c1 (cis-trans isomerization)
N#C/C(=C/c1c([O-])[n-]c(=O)n(-c2ccccc2)c1=O)C(=O)[N-]c1cccc(C(=O)N2CCCC2)c1 (3D coordinates assigned)
N#C/C(=C/c1c([O-])[n-]c(=O)n(-c2ccccc2)c1=O)C(=O)[N-]c1cccc(C(=O)N2CCCC2)c1 (nonaromatic ring conformer: 85.65856743879024 kcal/mol)

> <smiles>
N#CC(=Cc1c(O)[nH]c(=O)n(-c2ccccc2)c1=O)C(=O)Nc1cccc(C(=O)N2CCCC2)c1

> <score_type>
oracle

> <origin>
adg

> <m_score__min__energy>
-15.220000000000001

> <m_primary>
energy

> <minimizedAffinity>
-7.70208

> <minimizedRMSD>
1.43000

> <CNNscore>
0.0532961227

> <CNNaffinity>
5.8660202026

> <CNN_VS>
0.3126361370

> <CNNaffinity_variance>
0.1457994431

$$$$
30:0


 30 33  0  0  0  0  0  0  0  0999 V2000
   59.0921   30.1873   44.2121 C   0  0  0  0  0  0  0  0  0  0  0  0
   58.8507   29.6995   45.4391 C   0  0  0  0  0  0  0  0  0  0  0  0
   58.6217   28.3608   45.7982 C   0  0  0  0  0  0  0  0  0  0  0  0
   58.4252   27.2608   45.0448 C   0  0  0  0  0  0  0  0  0  0  0  0
   58.6060   28.3294   47.1843 C   0  0  0  0  0  0  0  0  0  0  0  0
   58.7721   29.6282   47.6170 C   0  0  0  0  0  0  0  0  0  0  0  0
   58.7570   30.0619   49.0500 C   0  0  0  0  0  0  0  0  0  0  0  0
   58.9040   30.4603   46.5609 N   0  0  0  0  0  0  0  0  0  0  0  0
   57.8237   26.0010   45.5053 C   0  0  0  0  0  0  0  0  0  0  0  0
   58.5173   24.8613   45.6636 N   0  0  0  0  0  0  0  0  0  0  0  0
   57.6204   24.0251   46.2316 C   0  0  0  0  0  0  0  0  0  0  0  0
   57.8978   22.8339   46.5254 O   0  0  0  0  0  0  0  0  0  0  0  0
   56.4103   24.5702   46.4727 N   0  0  0  0  0  0  0  0  0  0  0  0
   56.5596   25.8263   46.0228 C   0  0  0  0  0  0  0  0  0  0  0  0
   55.5722   26.7993   46.1109 O   0  0  0  0  0  0  0  0  0  0  0  0
   59.1420   31.8776   46.6423 C   0  0  0  0  0  0  0  0  0  0  0  0
   58.1871   32.7691   46.1233 C   0  0  0  0  0  0  0  0  0  0  0  0
   57.0117   32.2865   45.5581 O   0  0  0  0  0  0  0  0  0  0  0  0
   58.4141   34.1468   46.1668 C   0  0  0  0  0  0  0  0  0  0  0  0
   59.5919   34.6449   46.7223 C   0  0  0  0  0  0  0  0  0  0  0  0
   60.5493   33.7683   47.2367 C   0  0  0  0  0  0  0  0  0  0  0  0
   60.3415   32.3799   47.1946 C   0  0  0  0  0  0  0  0  0  0  0  0
   61.3634   31.4724   47.7655 C   0  0  0  0  0  0  0  0  0  0  0  0
   61.9235   30.6315   47.0097 O   0  0  0  0  0  0  0  0  0  0  0  0
   61.7152   31.5105   49.1651 N   0  0  0  0  0  0  0  0  0  0  0  0
   62.2772   30.3014   49.7864 C   0  0  0  0  0  0  0  0  0  0  0  0
   62.4562   30.4772   51.2986 C   0  0  0  0  0  0  0  0  0  0  0  0
   63.2558   31.7489   51.6169 C   0  0  0  0  0  0  0  0  0  0  0  0
   62.7950   32.9875   50.8175 C   0  0  0  0  0  0  0  0  0  0  0  0
   61.5450   32.7341   49.9649 C   0  0  0  0  0  0  0  0  0  0  0  0
  1  2  2  0
  2  3  1  0
  3  4  2  0
  4  9  1  0
  9 10  1  0
 10 11  1  0
 11 12  2  0
 11 13  1  0
 13 14  1  0
 14 15  1  0
  3  5  1  0
  5  6  2  0
  6  7  1  0
  6  8  1  0
  8 16  1  0
 16 17  2  0
 17 18  1  0
 17 19  1  0
 19 20  2  0
 20 21  1  0
 21 22  2  0
 22 23  1  0
 23 24  2  0
 23 25  1  0
 25 26  1  0
 26 27  1  0
 27 28  1  0
 28 29  1  0
 29 30  1  0
  8  2  1  0
 22 16  1  0
 30 25  1  0
 14  9  2  0
M  CHG 1  10  -1
M  CHG 1  13  -1
M  CHG 1  15  -1
M  CHG 1  18  -1
M  END
> <UniqueID>
30

> <SMILES>
C=c1c(=Cc2[n-]c(=O)[n-]c2[O-])cc(C)n1-c1c([O-])cccc1C(=O)N1CCCCC1

> <Energy>
134.3073268481723

> <Genealogy>
C=c1c(=Cc2[n-]c(=O)[n-]c2[O-])cc(C)n1-c1c([O-])cccc1C(=O)N1CCCCC1 (protonated)
C=c1c(=Cc2[n-]c(=O)[n-]c2[O-])cc(C)n1-c1c([O-])cccc1C(=O)N1CCCCC1 (3D coordinates assigned)
C=c1c(=Cc2[n-]c(=O)[n-]c2[O-])cc(C)n1-c1c([O-])cccc1C(=O)N1CCCCC1 (nonaromatic ring conformer: 134.3073268481723 kcal/mol)

> <smiles>
C=c1c(=Cc2[nH]c(=O)[nH]c2O)cc(C)n1-c1c(O)cccc1C(=O)N1CCCCC1

> <score_type>
oracle

> <origin>
adg

> <m_score__min__energy>
-17.890000000000001

> <m_primary>
energy

> <minimizedAffinity>
-7.20343

> <minimizedRMSD>
1.27129

> <CNNscore>
0.1636362225

> <CNNaffinity>
6.5949168205

> <CNN_VS>
1.0791672468

> <CNNaffinity_variance>
0.0021431935

$$$$
31:0


 25 26  0  0  0  0  0  0  0  0999 V2000
   57.9213   33.5242   46.2743 C   0  0  0  0  0  0  0  0  0  0  0  0
   60.8866   34.1428   48.5628 C   0  0  0  0  0  0  0  0  0  0  0  0
   60.5746   33.3442   49.6180 N   0  0  0  0  0  0  0  0  0  0  0  0
   59.4463   32.5850   49.6509 C   0  0  0  0  0  0  0  0  0  0  0  0
   59.2360   31.8456   50.7049 N   0  0  0  0  0  0  0  0  0  0  0  0
   58.5462   32.6544   48.5652 C   0  0  0  0  0  0  0  0  0  0  0  0
   58.8461   33.4721   47.4643 C   0  0  0  0  0  0  0  0  0  0  0  0
   60.0356   34.2116   47.4630 C   0  0  0  0  0  0  0  0  0  0  0  0
   58.3928   30.6918   50.8527 C   0  0  0  0  0  0  0  0  0  0  0  0
   57.2830   30.7682   51.4442 O   0  0  0  0  0  0  0  0  0  0  0  0
   58.7931   29.4636   50.2385 N   0  0  0  0  0  0  0  0  0  0  0  0
   60.1831   29.1031   49.9807 C   0  0  0  0  0  0  0  0  0  0  0  0
   60.4956   29.1994   48.4917 C   0  0  0  0  0  0  0  0  0  0  0  0
   58.5823   32.9513   45.0128 C   0  0  0  0  0  0  0  0  0  0  0  0
   57.7550   31.8240   44.3822 C   0  0  0  0  0  0  0  0  0  0  0  0
   58.5601   30.6616   44.1976 O   0  0  0  0  0  0  0  0  0  0  0  0
   58.2220   29.4187   44.7451 C   0  0  0  0  0  0  0  0  0  0  0  0
   59.2076   28.4807   45.1041 C   0  0  0  0  0  0  0  0  0  0  0  0
   60.9196   28.8515   44.9616 Cl  0  0  0  0  0  0  0  0  0  0  0  0
   58.8258   27.2472   45.6374 C   0  0  0  0  0  0  0  0  0  0  0  0
   57.4705   26.9663   45.8185 C   0  0  0  0  0  0  0  0  0  0  0  0
   57.0764   25.7435   46.3465 O   0  0  0  0  0  0  0  0  0  0  0  0
   56.5335   27.8920   45.4842 N   0  0  0  0  0  0  0  0  0  0  0  0
   56.8738   29.0996   44.9623 C   0  0  0  0  0  0  0  0  0  0  0  0
   55.9707   29.9275   44.6680 O   0  0  0  0  0  0  0  0  0  0  0  0
  2  3  1  0
  3  4  1  0
  4  5  2  0
  5  9  1  0
  9 10  2  0
  9 11  1  0
 11 12  1  0
 12 13  1  0
  4  6  1  0
  6  7  2  0
  7  1  1  0
  1 14  1  0
 14 15  1  0
 15 16  1  0
 16 17  1  0
 17 18  2  0
 18 19  1  0
 18 20  1  0
 20 21  2  0
 21 22  1  0
 21 23  1  0
 23 24  1  0
 24 25  2  0
  7  8  1  0
  8  2  2  0
 24 17  1  0
M  CHG 1   3  -1
M  CHG 1  11  -1
M  CHG 1  22  -1
M  CHG 1  23  -1
M  END
> <UniqueID>
31

> <SMILES>
CC[N-]C(=O)/N=c1\cc(CCCOc2c(Cl)cc([O-])[n-]c2=O)cc[n-]1

> <Energy>
46.779669303765566

> <Genealogy>
CC[N-]C(=O)N=c1cc(CCCOc2c(Cl)cc([O-])[n-]c2=O)cc[n-]1 (protonated)
CC[N-]C(=O)/N=c1\cc(CCCOc2c(Cl)cc([O-])[n-]c2=O)cc[n-]1 (cis-trans isomerization)
CC[N-]C(=O)/N=c1\cc(CCCOc2c(Cl)cc([O-])[n-]c2=O)cc[n-]1 (3D coordinates assigned)
CC[N-]C(=O)/N=c1\cc(CCCOc2c(Cl)cc([O-])[n-]c2=O)cc[n-]1 (optimized conformer: 46.779669303765566 kcal/mol)

> <smiles>
CCNC(=O)N=c1cc(CCCOc2c(Cl)cc(O)[nH]c2=O)cc[nH]1

> <score_type>
oracle

> <origin>
adg

> <m_score__min__energy>
-14.390000000000001

> <m_primary>
energy

> <minimizedAffinity>
-5.94773

> <minimizedRMSD>
0.94683

> <CNNscore>
0.6222114563

> <CNNaffinity>
6.5720062256

> <CNN_VS>
4.0891776085

> <CNNaffinity_variance>
0.0567389429

$$$$
34:0


 32 35  0  0  0  0  0  0  0  0999 V2000
   60.4023   32.5798   48.6975 C   0  0  0  0  0  0  0  0  0  0  0  0
   61.6949   33.1177   48.7134 C   0  0  0  0  0  0  0  0  0  0  0  0
   62.2201   33.6461   49.8922 C   0  0  0  0  0  0  0  0  0  0  0  0
   61.4625   33.6364   51.0655 C   0  0  0  0  0  0  0  0  0  0  0  0
   60.1691   33.0852   51.0727 C   0  0  0  0  0  0  0  0  0  0  0  0
   59.6387   32.5621   49.8774 C   0  0  0  0  0  0  0  0  0  0  0  0
   58.4072   31.9914   49.8645 F   0  0  0  0  0  0  0  0  0  0  0  0
   59.3678   33.0861   52.3197 C   0  0  0  0  0  0  0  0  0  0  0  0
   58.9615   34.1832   52.7882 O   0  0  0  0  0  0  0  0  0  0  0  0
   59.0506   31.8604   53.0097 N   0  0  0  0  0  0  0  0  0  0  0  0
   57.7209   31.6549   53.5903 C   0  0  0  0  0  0  0  0  0  0  0  0
   57.0215   30.5218   52.8448 C   0  0  0  0  0  0  0  0  0  0  0  0
   57.8820   29.3428   52.7708 N   0  0  0  0  0  0  0  0  0  0  0  0
   59.3124   29.4465   52.7251 C   0  0  0  0  0  0  0  0  0  0  0  0
   60.0042   28.4259   52.4667 O   0  0  0  0  0  0  0  0  0  0  0  0
   60.0021   30.7429   53.0451 C   0  0  0  0  0  0  0  0  0  0  0  0
   57.4675   28.4500   52.7518 H   0  0  0  0  0  0  0  0  0  0  0  0
   60.5302   29.7797   47.7446 C   0  0  0  0  0  0  0  0  0  0  0  0
   59.9867   30.7693   47.0200 C   0  0  0  0  0  0  0  0  0  0  0  0
   59.3276   30.6560   45.7849 C   0  0  0  0  0  0  0  0  0  0  0  0
   59.2259   29.6209   44.9272 C   0  0  0  0  0  0  0  0  0  0  0  0
   58.7455   31.8901   45.5428 C   0  0  0  0  0  0  0  0  0  0  0  0
   59.1173   32.7197   46.5792 C   0  0  0  0  0  0  0  0  0  0  0  0
   58.7300   34.1623   46.7005 C   0  0  0  0  0  0  0  0  0  0  0  0
   59.8673   32.0427   47.4751 N   0  0  0  0  0  0  0  0  0  0  0  0
   58.5990   28.3237   45.2187 C   0  0  0  0  0  0  0  0  0  0  0  0
   59.2916   27.2262   45.5685 N   0  0  0  0  0  0  0  0  0  0  0  0
   58.3268   26.3292   45.8674 C   0  0  0  0  0  0  0  0  0  0  0  0
   58.5853   25.1518   46.2305 O   0  0  0  0  0  0  0  0  0  0  0  0
   57.0643   26.7959   45.7595 N   0  0  0  0  0  0  0  0  0  0  0  0
   57.2538   28.0649   45.3644 C   0  0  0  0  0  0  0  0  0  0  0  0
   56.2216   28.9733   45.1685 O   0  0  0  0  0  0  0  0  0  0  0  0
 18 19  2  0
 19 20  1  0
 20 21  2  0
 21 26  1  0
 26 27  1  0
 27 28  1  0
 28 29  2  0
 28 30  1  0
 30 31  1  0
 31 32  1  0
 20 22  1  0
 22 23  2  0
 23 24  1  0
 23 25  1  0
 25  1  1  0
  1  2  2  0
  2  3  1  0
  3  4  2  0
  4  5  1  0
  5  8  1  0
  8  9  2  0
  8 10  1  0
 10 11  1  0
 11 12  1  0
 12 13  1  0
 13 14  1  0
 14 15  2  0
 14 16  1  0
  5  6  2  0
  6  7  1  0
 25 19  1  0
  6  1  1  0
 31 26  2  0
 16 10  1  0
 13 17  1  0
M  CHG 1  27  -1
M  CHG 1  30  -1
M  CHG 1  32  -1
M  END
> <UniqueID>
34

> <SMILES>
C=c1c(=Cc2[n-]c(=O)[n-]c2[O-])cc(C)n1-c1cccc(C(=O)N2CCNC(=O)C2)c1F

> <Energy>
132.2527283238155

> <Genealogy>
C=c1c(=Cc2[n-]c(=O)[n-]c2[O-])cc(C)n1-c1cccc(C(=O)N2CCNC(=O)C2)c1F (protonated)
C=c1c(=Cc2[n-]c(=O)[n-]c2[O-])cc(C)n1-c1cccc(C(=O)N2CCNC(=O)C2)c1F (3D coordinates assigned)
C=c1c(=Cc2[n-]c(=O)[n-]c2[O-])cc(C)n1-c1cccc(C(=O)N2CCNC(=O)C2)c1F (nonaromatic ring conformer: 132.2527283238155 kcal/mol)

> <smiles>
C=c1c(=Cc2[nH]c(=O)[nH]c2O)cc(C)n1-c1cccc(C(=O)N2CCNC(=O)C2)c1F

> <score_type>
oracle

> <origin>
adg

> <m_score__min__energy>
-16.609999999999999

> <m_primary>
energy

> <minimizedAffinity>
-7.75745

> <minimizedRMSD>
1.24921

> <CNNscore>
0.3392516077

> <CNNaffinity>
6.8187136650

> <CNN_VS>
2.3132596016

> <CNNaffinity_variance>
0.0823132768

$$$$
37:0


 32 35  0  0  0  0  0  0  0  0999 V2000
   57.3058   29.6215   53.9088 C   0  0  0  0  0  0  0  0  0  0  0  0
   58.0408   30.7011   53.4015 C   0  0  0  0  0  0  0  0  0  0  0  0
   59.3578   30.5171   52.9322 C   0  0  0  0  0  0  0  0  0  0  0  0
   59.9210   29.2233   53.0091 C   0  0  0  0  0  0  0  0  0  0  0  0
   59.1936   28.1534   53.5395 C   0  0  0  0  0  0  0  0  0  0  0  0
   57.8876   28.3495   53.9832 C   0  0  0  0  0  0  0  0  0  0  0  0
   57.1770   27.2994   54.4687 F   0  0  0  0  0  0  0  0  0  0  0  0
   55.0531   30.3696   52.1527 C   0  0  0  0  0  0  0  0  0  0  0  0
   54.8967   30.0863   53.4551 C   0  0  0  0  0  0  0  0  0  0  0  0
   53.7110   30.1508   54.2058 C   0  0  0  0  0  0  0  0  0  0  0  0
   52.4310   30.2996   53.8140 C   0  0  0  0  0  0  0  0  0  0  0  0
   54.0810   29.9824   55.5327 C   0  0  0  0  0  0  0  0  0  0  0  0
   55.4410   29.7465   55.5391 C   0  0  0  0  0  0  0  0  0  0  0  0
   56.2587   29.4690   56.7592 C   0  0  0  0  0  0  0  0  0  0  0  0
   55.9325   29.8061   54.2830 N   0  0  0  0  0  0  0  0  0  0  0  0
   51.9869   30.4730   52.4189 C   0  0  0  0  0  0  0  0  0  0  0  0
   52.2004   29.5693   51.4470 N   0  0  0  0  0  0  0  0  0  0  0  0
   51.7377   30.1900   50.3419 C   0  0  0  0  0  0  0  0  0  0  0  0
   51.7408   29.6403   49.2083 O   0  0  0  0  0  0  0  0  0  0  0  0
   51.2741   31.4419   50.5423 N   0  0  0  0  0  0  0  0  0  0  0  0
   51.4517   31.6115   51.8603 C   0  0  0  0  0  0  0  0  0  0  0  0
   51.1454   32.7833   52.5309 O   0  0  0  0  0  0  0  0  0  0  0  0
   60.0947   31.6175   52.3395 N   0  0  0  0  0  0  0  0  0  0  0  0
   61.4882   31.8422   52.7509 C   0  0  0  0  0  0  0  0  0  0  0  0
   62.0601   33.1241   52.1491 C   0  0  0  0  0  0  0  0  0  0  0  0
   61.7183   33.2406   50.7225 N   0  0  0  0  0  0  0  0  0  0  0  0
   60.2546   33.3595   50.5071 C   0  0  0  0  0  0  0  0  0  0  0  0
   59.3776   32.6605   51.5817 C   0  0  0  0  0  0  0  0  0  0  0  0
   61.2048   33.7310   51.4044 H   0  0  0  0  0  0  0  0  0  0  0  0
   62.3681   32.1991   49.9344 C   0  0  0  0  0  0  0  0  0  0  0  0
   61.6236   31.2268   49.0494 C   0  0  0  0  0  0  0  0  0  0  0  0
   63.5792   32.0720   50.0116 O   0  0  0  0  0  0  0  0  0  0  0  0
  8  9  2  0
  9 10  1  0
 10 11  2  0
 11 16  1  0
 16 17  1  0
 17 18  1  0
 18 19  2  0
 18 20  1  0
 20 21  1  0
 21 22  1  0
 10 12  1  0
 12 13  2  0
 13 14  1  0
 13 15  1  0
 15  1  1  0
  1  2  2  0
  2  3  1  0
  3 23  1  0
 23 24  1  0
 24 25  1  0
 25 26  1  0
 26 30  1  0
 30 31  1  0
 30 32  2  0
 26 27  1  0
 27 28  1  0
  3  4  2  0
  4  5  1  0
  5  6  2  0
  6  7  1  0
 15  9  1  0
  6  1  1  0
 21 16  2  0
 28 23  1  0
 26 29  1  0
M  CHG 1  17  -1
M  CHG 1  20  -1
M  CHG 1  22  -1
M  CHG 1  26   1
M  END
> <UniqueID>
36

> <SMILES>
C=c1c(=Cc2[n-]c(=O)[n-]c2[O-])cc(C)n1-c1cc(N2CC[NH+](C(C)=O)CC2)ccc1F

> <Energy>
147.25340864434145

> <Genealogy>
C=c1c(=Cc2[n-]c(=O)[n-]c2[O-])cc(C)n1-c1cc(N2CC[NH+](C(C)=O)CC2)ccc1F (protonated)
C=c1c(=Cc2[n-]c(=O)[n-]c2[O-])cc(C)n1-c1cc(N2CC[NH+](C(C)=O)CC2)ccc1F (3D coordinates assigned)
C=c1c(=Cc2[n-]c(=O)[n-]c2[O-])cc(C)n1-c1cc(N2CC[NH+](C(C)=O)CC2)ccc1F (nonaromatic ring conformer: 147.25340864434145 kcal/mol)

> <smiles>
C=c1c(=Cc2[nH]c(=O)[nH]c2O)cc(C)n1-c1cc(N2CCN(C(C)=O)CC2)ccc1F

> <score_type>
oracle

> <origin>
adg

> <m_score__min__energy>
-15.32

> <m_primary>
energy

> <minimizedAffinity>
-5.88282

> <minimizedRMSD>
1.02716

> <CNNscore>
0.0412310399

> <CNNaffinity>
4.7323727608

> <CNN_VS>
0.1951206475

> <CNNaffinity_variance>
0.4605485499

$$$$
39:0


 23 24  0  0  0  0  0  0  0  0999 V2000
   58.0412   32.6314   43.5360 O   0  0  0  0  0  0  0  0  0  0  0  0
   58.0540   32.6643   44.7943 C   0  0  0  0  0  0  0  0  0  0  0  0
   58.6430   33.8435   45.4647 C   0  0  0  0  0  0  0  0  0  0  0  0
   59.1663   34.7751   44.7959 O   0  0  0  0  0  0  0  0  0  0  0  0
   58.6094   33.9245   46.8931 N   0  0  0  0  0  0  0  0  0  0  0  0
   59.7043   34.4542   47.6980 C   0  0  0  0  0  0  0  0  0  0  0  0
   60.8619   33.4928   47.7034 C   0  0  0  0  0  0  0  0  0  0  0  0
   62.1155   33.8803   47.2058 C   0  0  0  0  0  0  0  0  0  0  0  0
   63.1663   32.9606   47.2005 C   0  0  0  0  0  0  0  0  0  0  0  0
   62.9722   31.6987   47.6710 N   0  0  0  0  0  0  0  0  0  0  0  0
   61.7673   31.2968   48.1538 C   0  0  0  0  0  0  0  0  0  0  0  0
   60.6894   32.1853   48.1763 C   0  0  0  0  0  0  0  0  0  0  0  0
   57.4901   31.5545   45.5071 N   0  0  0  0  0  0  0  0  0  0  0  0
   58.2267   30.4360   46.0864 C   0  0  0  0  0  0  0  0  0  0  0  0
   57.7530   29.1432   45.4843 C   0  0  0  0  0  0  0  0  0  0  0  0
   56.8018   29.1902   44.6571 O   0  0  0  0  0  0  0  0  0  0  0  0
   58.3446   27.8197   45.8311 C   0  0  0  0  0  0  0  0  0  0  0  0
   59.7423   27.7242   45.9850 C   0  0  0  0  0  0  0  0  0  0  0  0
   60.3461   26.5039   46.2983 C   0  0  0  0  0  0  0  0  0  0  0  0
   59.5658   25.3613   46.4676 C   0  0  0  0  0  0  0  0  0  0  0  0
   58.1792   25.4374   46.3334 C   0  0  0  0  0  0  0  0  0  0  0  0
   57.5622   26.6559   46.0245 C   0  0  0  0  0  0  0  0  0  0  0  0
   56.1755   26.6890   45.9384 O   0  0  0  0  0  0  0  0  0  0  0  0
  1  2  2  0
  2 13  1  0
 13 14  1  0
 14 15  1  0
 15 16  2  0
 15 17  1  0
 17 18  2  0
 18 19  1  0
 19 20  2  0
 20 21  1  0
 21 22  2  0
 22 23  1  0
  2  3  1  0
  3  4  2  0
  3  5  1  0
  5  6  1  0
  6  7  1  0
  7  8  2  0
  8  9  1  0
  9 10  2  0
 10 11  1  0
 11 12  2  0
 22 17  1  0
 12  7  1  0
M  CHG 1   5  -1
M  CHG 1  13  -1
M  CHG 1  23  -1
M  END
> <UniqueID>
38

> <SMILES>
O=C([N-]CC(=O)c1ccccc1[O-])C(=O)[N-]Cc1ccncc1

> <Energy>
37.51731939178779

> <Genealogy>
O=C([N-]CC(=O)c1ccccc1[O-])C(=O)[N-]Cc1ccncc1 (protonated)
O=C([N-]CC(=O)c1ccccc1[O-])C(=O)[N-]Cc1ccncc1 (3D coordinates assigned)
O=C([N-]CC(=O)c1ccccc1[O-])C(=O)[N-]Cc1ccncc1 (optimized conformer: 37.51731939178779 kcal/mol)

> <smiles>
O=C(NCC(=O)c1ccccc1O)C(=O)NCc1ccncc1

> <score_type>
oracle

> <origin>
adg

> <m_score__min__energy>
-14.08

> <m_primary>
energy

> <minimizedAffinity>
-6.42751

> <minimizedRMSD>
1.11450

> <CNNscore>
0.5119993687

> <CNNaffinity>
5.8997302055

> <CNN_VS>
3.0206582546

> <CNNaffinity_variance>
0.0326692015

$$$$
57:0


 34 37  0  0  0  0  0  0  0  0999 V2000
   61.5912   31.3789   49.5663 C   0  0  0  0  0  0  0  0  0  0  0  0
   62.9509   31.3651   49.9112 C   0  0  0  0  0  0  0  0  0  0  0  0
   63.5538   32.4918   50.4719 C   0  0  0  0  0  0  0  0  0  0  0  0
   62.8017   33.6432   50.7011 C   0  0  0  0  0  0  0  0  0  0  0  0
   61.4480   33.6756   50.3610 C   0  0  0  0  0  0  0  0  0  0  0  0
   60.8271   32.5557   49.7777 C   0  0  0  0  0  0  0  0  0  0  0  0
   59.9614   27.7502   46.6490 C   0  0  0  0  0  0  0  0  0  0  0  0
   60.2140   28.5587   47.6966 C   0  0  0  0  0  0  0  0  0  0  0  0
   59.8550   28.2388   48.9959 C   0  0  0  0  0  0  0  0  0  0  0  0
   60.3662   29.2318   49.8073 C   0  0  0  0  0  0  0  0  0  0  0  0
   60.2337   29.2697   51.3001 C   0  0  0  0  0  0  0  0  0  0  0  0
   60.9875   30.1728   49.0625 N   0  0  0  0  0  0  0  0  0  0  0  0
   60.8689   29.7973   47.7628 C   0  0  0  0  0  0  0  0  0  0  0  0
   61.1977   30.5950   46.7340 C   0  0  0  0  0  0  0  0  0  0  0  0
   59.9678   24.7464   46.1132 O   0  0  0  0  0  0  0  0  0  0  0  0
   58.8224   25.5279   46.2224 C   0  0  0  0  0  0  0  0  0  0  0  0
   57.5745   25.0602   46.0448 N   0  0  0  0  0  0  0  0  0  0  0  0
   56.8177   26.1643   46.2245 C   0  0  0  0  0  0  0  0  0  0  0  0
   55.5621   26.1477   46.1322 O   0  0  0  0  0  0  0  0  0  0  0  0
   57.5127   27.2905   46.4983 N   0  0  0  0  0  0  0  0  0  0  0  0
   58.7908   26.8670   46.5213 C   0  0  0  0  0  0  0  0  0  0  0  0
   59.8955   23.8358   45.9045 H   0  0  0  0  0  0  0  0  0  0  0  0
   59.4001   32.6450   49.3846 C   0  0  0  0  0  0  0  0  0  0  0  0
   58.5307   31.9762   50.0060 O   0  0  0  0  0  0  0  0  0  0  0  0
   59.0215   33.4859   48.2814 N   0  0  0  0  0  0  0  0  0  0  0  0
   58.6878   33.0839   47.0907 C   0  0  0  0  0  0  0  0  0  0  0  0
   58.6398   33.8778   45.9971 N   0  0  0  0  0  0  0  0  0  0  0  0
   58.2732   33.2233   44.8968 N   0  0  0  0  0  0  0  0  0  0  0  0
   58.0363   31.9037   45.1001 C   0  0  0  0  0  0  0  0  0  0  0  0
   58.2684   31.4981   46.7283 S   0  0  0  0  0  0  0  0  0  0  0  0
   57.5677   30.9465   44.0208 C   0  0  0  0  0  0  0  0  0  0  0  0
   58.4853   29.7100   44.0074 C   0  0  0  0  0  0  0  0  0  0  0  0
   57.6263   31.6484   42.6492 C   0  0  0  0  0  0  0  0  0  0  0  0
   56.1163   30.4941   44.2878 C   0  0  0  0  0  0  0  0  0  0  0  0
 15 16  1  0
 16 17  1  0
 17 18  1  0
 18 19  2  0
 18 20  1  0
 20 21  1  0
 21  7  1  0
  7  8  2  0
  8  9  1  0
  9 10  2  0
 10 11  1  0
 10 12  1  0
 12  1  1  0
  1  2  2  0
  2  3  1  0
  3  4  2  0
  4  5  1  0
  5  6  2  0
  6 23  1  0
 23 24  2  0
 23 25  1  0
 25 26  2  0
 26 27  1  0
 27 28  1  0
 28 29  2  0
 29 31  1  0
 31 32  1  0
 31 33  1  0
 31 34  1  0
 29 30  1  0
 12 13  1  0
 13 14  2  0
 21 16  2  0
 13  8  1  0
  6  1  1  0
 30 26  1  0
 15 22  1  0
M  CHG 1  17  -1
M  CHG 1  20  -1
M  CHG 1  27  -1
M  END
> <UniqueID>
55

> <SMILES>
C=c1/c(=C\c2[n-]c(=O)[n-]c2O)cc(C)n1-c1ccccc1C(=O)N=c1[n-]nc(C(C)(C)C)s1

> <Energy>
166.09126805463987

> <Genealogy>
C=c1c(=Cc2[n-]c(=O)[n-]c2O)cc(C)n1-c1ccccc1C(=O)N=c1[n-]nc(C(C)(C)C)s1 (protonated)
C=c1/c(=C\c2[n-]c(=O)[n-]c2O)cc(C)n1-c1ccccc1C(=O)N=c1[n-]nc(C(C)(C)C)s1 (cis-trans isomerization)
C=c1/c(=C\c2[n-]c(=O)[n-]c2O)cc(C)n1-c1ccccc1C(=O)N=c1[n-]nc(C(C)(C)C)s1 (3D coordinates assigned)
C=c1/c(=C\c2[n-]c(=O)[n-]c2O)cc(C)n1-c1ccccc1C(=O)N=c1[n-]nc(C(C)(C)C)s1 (optimized conformer: 166.09126805463987 kcal/mol)

> <smiles>
C=c1c(=Cc2[nH]c(=O)[nH]c2O)cc(C)n1-c1ccccc1C(=O)N=c1[nH]nc(C(C)(C)C)s1

> <score_type>
oracle

> <origin>
adg

> <m_score__min__energy>
-15.43

> <m_primary>
energy

> <minimizedAffinity>
-6.94499

> <minimizedRMSD>
1.39602

> <CNNscore>
0.1187804043

> <CNNaffinity>
6.7027249336

> <CNN_VS>
0.7961523533

> <CNNaffinity_variance>
0.0974892378

$$$$
60:0


 31 34  0  0  0  0  0  0  0  0999 V2000
   58.3196   27.1747   46.7966 C   0  0  0  0  0  0  0  0  0  0  0  0
   58.3087   28.2190   45.9476 C   0  0  0  0  0  0  0  0  0  0  0  0
   58.2628   29.5358   46.3759 C   0  0  0  0  0  0  0  0  0  0  0  0
   58.3134   30.3266   45.2448 C   0  0  0  0  0  0  0  0  0  0  0  0
   58.3922   29.5586   44.1422 N   0  0  0  0  0  0  0  0  0  0  0  0
   58.3543   28.2723   44.5457 C   0  0  0  0  0  0  0  0  0  0  0  0
   58.2765   27.2622   43.6727 C   0  0  0  0  0  0  0  0  0  0  0  0
   58.4642   29.8769   43.2133 H   0  0  0  0  0  0  0  0  0  0  0  0
   55.3766   26.4733   46.0930 O   0  0  0  0  0  0  0  0  0  0  0  0
   56.4289   25.5653   46.1939 C   0  0  0  0  0  0  0  0  0  0  0  0
   56.3024   24.2560   45.9232 N   0  0  0  0  0  0  0  0  0  0  0  0
   57.5606   23.7913   46.0976 C   0  0  0  0  0  0  0  0  0  0  0  0
   57.8657   22.5826   45.9262 O   0  0  0  0  0  0  0  0  0  0  0  0
   58.4682   24.7268   46.4574 N   0  0  0  0  0  0  0  0  0  0  0  0
   57.7357   25.8502   46.5441 C   0  0  0  0  0  0  0  0  0  0  0  0
   54.5230   26.1757   45.8465 H   0  0  0  0  0  0  0  0  0  0  0  0
   58.3251   31.8008   45.2233 C   0  0  0  0  0  0  0  0  0  0  0  0
   57.9285   32.4046   44.1924 O   0  0  0  0  0  0  0  0  0  0  0  0
   58.7954   32.5560   46.3518 N   0  0  0  0  0  0  0  0  0  0  0  0
   58.2333   32.3198   47.6862 C   0  0  0  0  0  0  0  0  0  0  0  0
   59.3449   32.2970   48.7410 C   0  0  0  0  0  0  0  0  0  0  0  0
   60.4134   33.4121   48.5567 C   0  0  0  0  0  0  0  0  0  0  0  0
   60.0594   34.4148   47.4315 C   0  0  0  0  0  0  0  0  0  0  0  0
   59.6502   33.7260   46.1159 C   0  0  0  0  0  0  0  0  0  0  0  0
   61.7970   32.8065   48.3871 C   0  0  0  0  0  0  0  0  0  0  0  0
   62.0233   32.0172   47.4308 O   0  0  0  0  0  0  0  0  0  0  0  0
   62.8421   33.0600   49.3457 N   0  0  0  0  0  0  0  0  0  0  0  0
   64.1350   32.3997   49.2906 C   0  0  0  0  0  0  0  0  0  0  0  0
   64.9757   33.0500   50.3821 C   0  0  0  0  0  0  0  0  0  0  0  0
   63.9879   33.7617   51.3008 C   0  0  0  0  0  0  0  0  0  0  0  0
   62.7290   33.9731   50.4715 C   0  0  0  0  0  0  0  0  0  0  0  0
  9 10  1  0
 10 11  1  0
 11 12  1  0
 12 13  2  0
 12 14  1  0
 14 15  1  0
 15  1  1  0
  1  2  2  0
  2  3  1  0
  3  4  2  0
  4 17  1  0
 17 18  2  0
 17 19  1  0
 19 20  1  0
 20 21  1  0
 21 22  1  0
 22 25  1  0
 25 26  2  0
 25 27  1  0
 27 28  1  0
 28 29  1  0
 29 30  1  0
 30 31  1  0
 22 23  1  0
 23 24  1  0
  4  5  1  0
  5  6  1  0
  6  7  2  0
 15 10  2  0
  6  2  1  0
 24 19  1  0
 31 27  1  0
  9 16  1  0
  5  8  1  0
M  CHG 1  11  -1
M  CHG 1  14  -1
M  END
> <UniqueID>
57

> <SMILES>
C=c1[nH]c(C(=O)N2CCC(C(=O)N3CCCC3)CC2)c/c1=C/c1[n-]c(=O)[n-]c1O

> <Energy>
126.87092569520514

> <Genealogy>
C=c1[nH]c(C(=O)N2CCC(C(=O)N3CCCC3)CC2)cc1=Cc1[n-]c(=O)[n-]c1O (protonated)
C=c1[nH]c(C(=O)N2CCC(C(=O)N3CCCC3)CC2)c/c1=C/c1[n-]c(=O)[n-]c1O (cis-trans isomerization)
C=c1[nH]c(C(=O)N2CCC(C(=O)N3CCCC3)CC2)c/c1=C/c1[n-]c(=O)[n-]c1O (3D coordinates assigned)
C=c1[nH]c(C(=O)N2CCC(C(=O)N3CCCC3)CC2)c/c1=C/c1[n-]c(=O)[n-]c1O (nonaromatic ring conformer: 126.87092569520514 kcal/mol)

> <smiles>
C=c1[nH]c(C(=O)N2CCC(C(=O)N3CCCC3)CC2)cc1=Cc1[nH]c(=O)[nH]c1O

> <score_type>
oracle

> <origin>
adg

> <m_score__min__energy>
-14.609999999999999

> <m_primary>
energy

> <minimizedAffinity>
-9.73033

> <minimizedRMSD>
0.89358

> <CNNscore>
0.3689265549

> <CNNaffinity>
7.0878090858

> <CNN_VS>
2.6148810387

> <CNNaffinity_variance>
0.2589315474

$$$$
63:0


 25 27  0  0  0  0  0  0  0  0999 V2000
   56.9369   29.5746   44.6845 C   0  0  0  0  0  0  0  0  0  0  0  0
   55.7253   29.2401   44.7587 O   0  0  0  0  0  0  0  0  0  0  0  0
   57.9449   27.8587   46.1393 C   0  0  0  0  0  0  0  0  0  0  0  0
   57.9711   28.5788   45.0118 C   0  0  0  0  0  0  0  0  0  0  0  0
   55.3719   26.4958   46.0156 O   0  0  0  0  0  0  0  0  0  0  0  0
   56.5579   25.7614   46.0412 C   0  0  0  0  0  0  0  0  0  0  0  0
   56.4757   24.4055   45.9977 N   0  0  0  0  0  0  0  0  0  0  0  0
   57.5849   23.6262   46.0386 C   0  0  0  0  0  0  0  0  0  0  0  0
   57.4762   22.3740   46.0020 O   0  0  0  0  0  0  0  0  0  0  0  0
   58.8126   24.1973   46.1178 N   0  0  0  0  0  0  0  0  0  0  0  0
   58.9598   25.5458   46.1582 C   0  0  0  0  0  0  0  0  0  0  0  0
   60.1215   26.0330   46.1946 O   0  0  0  0  0  0  0  0  0  0  0  0
   57.8236   26.3816   46.1322 C   0  0  0  0  0  0  0  0  0  0  0  0
   54.5482   26.0534   45.9546 H   0  0  0  0  0  0  0  0  0  0  0  0
   57.3034   30.8890   44.2410 N   0  0  0  0  0  0  0  0  0  0  0  0
   58.0576   31.8634   44.9772 C   0  0  0  0  0  0  0  0  0  0  0  0
   58.1533   33.1742   44.4585 C   0  0  0  0  0  0  0  0  0  0  0  0
   58.8985   34.1614   45.1271 C   0  0  0  0  0  0  0  0  0  0  0  0
   59.5530   33.8115   46.3074 C   0  0  0  0  0  0  0  0  0  0  0  0
   59.4781   32.5330   46.8013 C   0  0  0  0  0  0  0  0  0  0  0  0
   58.7504   31.5311   46.1634 C   0  0  0  0  0  0  0  0  0  0  0  0
   60.2800   32.5046   47.9962 C   0  0  0  0  0  0  0  0  0  0  0  0
   60.4691   31.5065   48.7387 O   0  0  0  0  0  0  0  0  0  0  0  0
   60.8276   33.7616   48.2182 O   0  0  0  0  0  0  0  0  0  0  0  0
   60.4175   34.6670   47.1871 C   0  0  0  0  0  0  0  0  0  0  0  0
  5  6  1  0
  6  7  1  0
  7  8  1  0
  8  9  2  0
  8 10  1  0
 10 11  1  0
 11 12  2  0
 11 13  1  0
 13  3  1  0
  3  4  2  0
  4  1  1  0
  1  2  2  0
  1 15  1  0
 15 16  1  0
 16 17  2  0
 17 18  1  0
 18 19  2  0
 19 20  1  0
 20 21  2  0
 20 22  1  0
 22 23  2  0
 22 24  1  0
 24 25  1  0
 13  6  2  0
 21 16  1  0
 25 19  1  0
  5 14  1  0
M  CHG 1   7  -1
M  CHG 1  10  -1
M  CHG 1  15  -1
M  END
> <UniqueID>
60

> <SMILES>
O=C(/C=C/c1c(O)[n-]c(=O)[n-]c1=O)[N-]c1ccc2c(c1)C(=O)OC2

> <Energy>
68.36033484502777

> <Genealogy>
O=C(C=Cc1c(O)[n-]c(=O)[n-]c1=O)[N-]c1ccc2c(c1)C(=O)OC2 (protonated)
O=C(/C=C/c1c(O)[n-]c(=O)[n-]c1=O)[N-]c1ccc2c(c1)C(=O)OC2 (cis-trans isomerization)
O=C(/C=C/c1c(O)[n-]c(=O)[n-]c1=O)[N-]c1ccc2c(c1)C(=O)OC2 (3D coordinates assigned)
O=C(/C=C/c1c(O)[n-]c(=O)[n-]c1=O)[N-]c1ccc2c(c1)C(=O)OC2 (nonaromatic ring conformer: 68.36033484502777 kcal/mol)

> <smiles>
O=C(C=Cc1c(O)[nH]c(=O)[nH]c1=O)Nc1ccc2c(c1)C(=O)OC2

> <score_type>
oracle

> <origin>
adg

> <m_score__min__energy>
-14.279999999999999

> <m_primary>
energy

> <minimizedAffinity>
-8.69194

> <minimizedRMSD>
0.95240

> <CNNscore>
0.7701304555

> <CNNaffinity>
6.6706390381

> <CNN_VS>
5.1372623444

> <CNNaffinity_variance>
0.3437182903

$$$$
78:0


 36 39  0  0  0  0  0  0  0  0999 V2000
   59.4436   28.6504   47.6663 C   0  0  0  0  0  0  0  0  0  0  0  0
   60.0548   28.3813   48.8974 C   0  0  0  0  0  0  0  0  0  0  0  0
   60.2004   29.3889   49.8497 C   0  0  0  0  0  0  0  0  0  0  0  0
   59.7382   30.6887   49.5893 C   0  0  0  0  0  0  0  0  0  0  0  0
   59.1338   30.9606   48.3476 C   0  0  0  0  0  0  0  0  0  0  0  0
   58.9896   29.9552   47.3772 C   0  0  0  0  0  0  0  0  0  0  0  0
   57.9182   26.1454   48.0385 C   0  0  0  0  0  0  0  0  0  0  0  0
   58.5406   26.4502   46.8898 C   0  0  0  0  0  0  0  0  0  0  0  0
   58.6836   25.6347   45.7551 C   0  0  0  0  0  0  0  0  0  0  0  0
   58.0994   24.4658   45.4301 C   0  0  0  0  0  0  0  0  0  0  0  0
   59.6005   26.2717   44.9334 C   0  0  0  0  0  0  0  0  0  0  0  0
   59.9259   27.4651   45.5461 C   0  0  0  0  0  0  0  0  0  0  0  0
   60.9007   28.4675   45.0122 C   0  0  0  0  0  0  0  0  0  0  0  0
   59.2763   27.5781   46.7231 N   0  0  0  0  0  0  0  0  0  0  0  0
   56.7047   24.0959   45.7177 C   0  0  0  0  0  0  0  0  0  0  0  0
   56.2586   22.8270   45.7247 N   0  0  0  0  0  0  0  0  0  0  0  0
   54.9280   22.9668   45.9139 C   0  0  0  0  0  0  0  0  0  0  0  0
   54.1485   21.9809   45.9934 O   0  0  0  0  0  0  0  0  0  0  0  0
   54.4955   24.2437   45.9979 N   0  0  0  0  0  0  0  0  0  0  0  0
   55.6305   24.9455   45.8572 C   0  0  0  0  0  0  0  0  0  0  0  0
   55.6791   26.3344   45.8329 O   0  0  0  0  0  0  0  0  0  0  0  0
   58.1985   30.3287   45.8371 S   0  0  0  0  0  0  0  0  0  0  0  0
   57.6145   32.0090   45.7810 C   0  0  0  0  0  0  0  0  0  0  0  0
   59.1697   30.1483   44.7052 O   0  0  0  0  0  0  0  0  0  0  0  0
   57.0321   29.4037   45.6432 O   0  0  0  0  0  0  0  0  0  0  0  0
   59.8610   31.7492   50.6177 C   0  0  0  0  0  0  0  0  0  0  0  0
   60.3235   31.4639   51.7555 O   0  0  0  0  0  0  0  0  0  0  0  0
   59.4915   33.1023   50.2995 N   0  0  0  0  0  0  0  0  0  0  0  0
   60.2060   34.0003   49.6816 C   0  0  0  0  0  0  0  0  0  0  0  0
   60.8694   33.7795   48.3472 C   0  0  0  0  0  0  0  0  0  0  0  0
   62.3139   34.0952   48.4281 N   0  0  0  0  0  0  0  0  0  0  0  0
   62.9521   33.4666   49.6017 C   0  0  0  0  0  0  0  0  0  0  0  0
   63.1005   31.9369   49.4259 C   0  0  0  0  0  0  0  0  0  0  0  0
   62.9575   31.5103   48.0830 O   0  0  0  0  0  0  0  0  0  0  0  0
   63.6857   32.3606   47.2237 C   0  0  0  0  0  0  0  0  0  0  0  0
   63.0408   33.7616   47.1790 C   0  0  0  0  0  0  0  0  0  0  0  0
  7  8  2  0
  8  9  1  0
  9 10  2  0
 10 15  1  0
 15 16  1  0
 16 17  1  0
 17 18  2  0
 17 19  1  0
 19 20  1  0
 20 21  1  0
  9 11  1  0
 11 12  2  0
 12 13  1  0
 12 14  1  0
 14  1  1  0
  1  2  2  0
  2  3  1  0
  3  4  2  0
  4 26  1  0
 26 27  2  0
 26 28  1  0
 28 29  2  0
 29 30  1  0
 30 31  1  0
 31 32  1  0
 32 33  1  0
 33 34  1  0
 34 35  1  0
 35 36  1  0
  4  5  1  0
  5  6  2  0
  6 22  1  0
 22 23  1  0
 22 24  2  0
 22 25  2  0
 14  8  1  0
  6  1  1  0
 20 15  2  0
 36 31  1  0
M  CHG 1  16  -1
M  CHG 1  19  -1
M  CHG 1  21  -1
M  END
> <UniqueID>
75

> <SMILES>
C=c1c(=Cc2[n-]c(=O)[n-]c2[O-])cc(C)n1-c1ccc(C(=O)N=CCN2CCOCC2)cc1S(C)(=O)=O

> <Energy>
151.83966391369805

> <Genealogy>
C=c1c(=Cc2[n-]c(=O)[n-]c2[O-])cc(C)n1-c1ccc(C(=O)N=CCN2CCOCC2)cc1S(C)(=O)=O (protonated)
C=c1c(=Cc2[n-]c(=O)[n-]c2[O-])cc(C)n1-c1ccc(C(=O)N=CCN2CCOCC2)cc1S(C)(=O)=O (3D coordinates assigned)
C=c1c(=Cc2[n-]c(=O)[n-]c2[O-])cc(C)n1-c1ccc(C(=O)N=CCN2CCOCC2)cc1S(C)(=O)=O (nonaromatic ring conformer: 151.83966391369805 kcal/mol)

> <smiles>
C=c1c(=Cc2[nH]c(=O)[nH]c2O)cc(C)n1-c1ccc(C(=O)N=CCN2CCOCC2)cc1S(C)(=O)=O

> <score_type>
oracle

> <origin>
adg

> <m_score__min__energy>
-17.120000000000001

> <m_primary>
energy

> <minimizedAffinity>
-5.06282

> <minimizedRMSD>
0.90047

> <CNNscore>
0.0710853413

> <CNNaffinity>
6.2162308693

> <CNN_VS>
0.4418828785

> <CNNaffinity_variance>
0.1125874147

$$$$
79:0


 30 33  0  0  0  0  0  0  0  0999 V2000
   59.0893   27.4907   47.3123 C   0  0  0  0  0  0  0  0  0  0  0  0
   58.6600   28.0415   46.1664 C   0  0  0  0  0  0  0  0  0  0  0  0
   58.0131   27.3882   45.1051 C   0  0  0  0  0  0  0  0  0  0  0  0
   57.8575   26.0769   44.8366 C   0  0  0  0  0  0  0  0  0  0  0  0
   57.5201   28.3846   44.2790 C   0  0  0  0  0  0  0  0  0  0  0  0
   57.9425   29.5872   44.8073 C   0  0  0  0  0  0  0  0  0  0  0  0
   57.6469   30.9301   44.2096 C   0  0  0  0  0  0  0  0  0  0  0  0
   58.6323   29.3821   45.9523 N   0  0  0  0  0  0  0  0  0  0  0  0
   57.3235   25.0719   45.7691 C   0  0  0  0  0  0  0  0  0  0  0  0
   57.9566   23.9357   46.1183 N   0  0  0  0  0  0  0  0  0  0  0  0
   57.0384   23.2848   46.8645 C   0  0  0  0  0  0  0  0  0  0  0  0
   57.2672   22.1666   47.3962 O   0  0  0  0  0  0  0  0  0  0  0  0
   55.8529   23.9202   46.9880 N   0  0  0  0  0  0  0  0  0  0  0  0
   56.0478   25.0425   46.2757 C   0  0  0  0  0  0  0  0  0  0  0  0
   55.0755   26.0172   46.0903 O   0  0  0  0  0  0  0  0  0  0  0  0
   59.1950   30.4087   46.7906 C   0  0  0  0  0  0  0  0  0  0  0  0
   59.2679   30.2307   48.1787 C   0  0  0  0  0  0  0  0  0  0  0  0
   59.7939   31.2389   48.9910 C   0  0  0  0  0  0  0  0  0  0  0  0
   60.2450   32.4449   48.4272 C   0  0  0  0  0  0  0  0  0  0  0  0
   60.1907   32.6097   47.0333 C   0  0  0  0  0  0  0  0  0  0  0  0
   59.6639   31.6003   46.2220 C   0  0  0  0  0  0  0  0  0  0  0  0
   60.7844   33.5179   49.2858 C   0  0  0  0  0  0  0  0  0  0  0  0
   60.0003   34.3684   49.7910 O   0  0  0  0  0  0  0  0  0  0  0  0
   62.1909   33.6120   49.5580 N   0  0  0  0  0  0  0  0  0  0  0  0
   62.7041   34.0407   50.8450 C   0  0  0  0  0  0  0  0  0  0  0  0
   64.0287   33.5760   50.9809 O   0  0  0  0  0  0  0  0  0  0  0  0
   64.4555   33.1493   49.7045 C   0  0  0  0  0  0  0  0  0  0  0  0
   63.2168   32.8826   48.8450 C   0  0  0  0  0  0  0  0  0  0  0  0
   62.8833   31.3763   48.8147 C   0  0  0  0  0  0  0  0  0  0  0  0
   63.4024   33.4206   47.4159 C   0  0  0  0  0  0  0  0  0  0  0  0
  1  2  2  0
  2  3  1  0
  3  4  2  0
  4  9  1  0
  9 10  1  0
 10 11  1  0
 11 12  2  0
 11 13  1  0
 13 14  1  0
 14 15  1  0
  3  5  1  0
  5  6  2  0
  6  7  1  0
  6  8  1  0
  8 16  1  0
 16 17  2  0
 17 18  1  0
 18 19  2  0
 19 22  1  0
 22 23  2  0
 22 24  1  0
 24 25  1  0
 25 26  1  0
 26 27  1  0
 27 28  1  0
 28 29  1  0
 28 30  1  0
 19 20  1  0
 20 21  2  0
  8  2  1  0
 21 16  1  0
 14  9  2  0
 28 24  1  0
M  CHG 1  10  -1
M  CHG 1  13  -1
M  CHG 1  15  -1
M  END
> <UniqueID>
76

> <SMILES>
C=c1c(=Cc2[n-]c(=O)[n-]c2[O-])cc(C)n1-c1ccc(C(=O)N2COCC2(C)C)cc1

> <Energy>
134.98782528771844

> <Genealogy>
C=c1c(=Cc2[n-]c(=O)[n-]c2[O-])cc(C)n1-c1ccc(C(=O)N2COCC2(C)C)cc1 (protonated)
C=c1c(=Cc2[n-]c(=O)[n-]c2[O-])cc(C)n1-c1ccc(C(=O)N2COCC2(C)C)cc1 (3D coordinates assigned)
C=c1c(=Cc2[n-]c(=O)[n-]c2[O-])cc(C)n1-c1ccc(C(=O)N2COCC2(C)C)cc1 (nonaromatic ring conformer: 134.98782528771844 kcal/mol)

> <smiles>
C=c1c(=Cc2[nH]c(=O)[nH]c2O)cc(C)n1-c1ccc(C(=O)N2COCC2(C)C)cc1

> <score_type>
oracle

> <origin>
adg

> <m_score__min__energy>
-15.710000000000001

> <m_primary>
energy

> <minimizedAffinity>
-9.14845

> <minimizedRMSD>
0.61282

> <CNNscore>
0.2895465791

> <CNNaffinity>
7.0262694359

> <CNN_VS>
2.0344321728

> <CNNaffinity_variance>
0.1167769656

$$$$
86:0


 40 44  0  0  0  0  0  0  0  0999 V2000
   59.9229   34.0732   47.7074 N   0  0  0  0  0  0  0  0  0  0  0  0
   59.1606   33.4477   46.8587 C   0  0  0  0  0  0  0  0  0  0  0  0
   59.3760   32.1285   46.6226 N   0  0  0  0  0  0  0  0  0  0  0  0
   58.5827   31.4167   45.7756 C   0  0  0  0  0  0  0  0  0  0  0  0
   57.5080   32.0570   45.1356 C   0  0  0  0  0  0  0  0  0  0  0  0
   57.3106   33.4206   45.3790 C   0  0  0  0  0  0  0  0  0  0  0  0
   58.1293   34.0816   46.2360 N   0  0  0  0  0  0  0  0  0  0  0  0
   56.6460   31.3241   44.1420 C   0  0  0  0  0  0  0  0  0  0  0  0
   56.6646   29.8137   44.3905 C   0  0  0  0  0  0  0  0  0  0  0  0
   58.1058   29.3028   44.4844 C   0  0  0  0  0  0  0  0  0  0  0  0
   58.8396   30.0169   45.5356 N   0  0  0  0  0  0  0  0  0  0  0  0
   60.0048   29.3923   46.0932 C   0  0  0  0  0  0  0  0  0  0  0  0
   60.8251   30.0818   46.7507 O   0  0  0  0  0  0  0  0  0  0  0  0
   62.9952   33.3639   49.7186 C   0  0  0  0  0  0  0  0  0  0  0  0
   63.9160   33.0477   48.7075 C   0  0  0  0  0  0  0  0  0  0  0  0
   63.5199   33.0538   47.3677 C   0  0  0  0  0  0  0  0  0  0  0  0
   62.2097   33.3915   47.0256 C   0  0  0  0  0  0  0  0  0  0  0  0
   61.2836   33.7414   48.0260 C   0  0  0  0  0  0  0  0  0  0  0  0
   61.6760   33.6999   49.3713 C   0  0  0  0  0  0  0  0  0  0  0  0
   63.4372   33.3718   51.1570 C   0  0  0  0  0  0  0  0  0  0  0  0
   68.9829   33.5550   51.6332 C   0  0  0  0  0  0  0  0  0  0  0  0
   67.5265   33.5051   51.4420 N   0  0  0  0  0  0  0  0  0  0  0  0
   66.9733   32.2726   52.0330 C   0  0  0  0  0  0  0  0  0  0  0  0
   65.4649   32.1612   51.7329 C   0  0  0  0  0  0  0  0  0  0  0  0
   64.9122   33.4383   51.2347 N   0  0  0  0  0  0  0  0  0  0  0  0
   65.3538   34.5537   52.0931 C   0  0  0  0  0  0  0  0  0  0  0  0
   66.8881   34.6954   52.0424 C   0  0  0  0  0  0  0  0  0  0  0  0
   60.2581   27.9965   45.9061 N   0  0  0  0  0  0  0  0  0  0  0  0
   59.9545   26.9751   46.9018 C   0  0  0  0  0  0  0  0  0  0  0  0
   58.7526   26.1947   46.4566 C   0  0  0  0  0  0  0  0  0  0  0  0
   57.9228   25.5806   47.4082 C   0  0  0  0  0  0  0  0  0  0  0  0
   56.8317   24.8096   46.9989 C   0  0  0  0  0  0  0  0  0  0  0  0
   56.5598   24.6372   45.6341 C   0  0  0  0  0  0  0  0  0  0  0  0
   57.3853   25.2538   44.6821 C   0  0  0  0  0  0  0  0  0  0  0  0
   58.4788   26.0221   45.0915 C   0  0  0  0  0  0  0  0  0  0  0  0
   55.1849   23.6589   45.1305 S   0  0  0  0  0  0  0  0  0  0  0  0
   53.7163   24.4936   45.4908 N   0  0  0  0  0  0  0  0  0  0  0  0
   55.2108   22.3443   45.8614 O   0  0  0  0  0  0  0  0  0  0  0  0
   55.2537   23.3907   43.6539 O   0  0  0  0  0  0  0  0  0  0  0  0
   53.6667   24.6772   46.4929 H   0  0  0  0  0  0  0  0  0  0  0  0
 21 22  1  0
 22 23  1  0
 23 24  1  0
 24 25  1  0
 25 20  1  0
 20 14  1  0
 14 15  2  0
 15 16  1  0
 16 17  2  0
 17 18  1  0
 18  1  1  0
  1  2  2  0
  2  3  1  0
  3  4  2  0
  4  5  1  0
  5  6  2  0
  6  7  1  0
  5  8  1  0
  8  9  1  0
  9 10  1  0
 10 11  1  0
 11 12  1  0
 12 13  2  0
 12 28  1  0
 28 29  1  0
 29 30  1  0
 30 31  2  0
 31 32  1  0
 32 33  2  0
 33 36  1  0
 36 37  1  0
 36 38  2  0
 36 39  2  0
 33 34  1  0
 34 35  2  0
 18 19  2  0
 25 26  1  0
 26 27  1  0
 27 22  1  0
 19 14  1  0
  7  2  1  0
 35 30  1  0
 11  4  1  0
 37 40  1  0
M  CHG 1   7  -1
M  CHG 1  28  -1
M  CHG 1  37  -1
M  END
> <UniqueID>
83

> <SMILES>
CN1CCN(Cc2cccc(N=c3nc4c(c[n-]3)CCCN4C(=O)[N-]Cc3ccc(S([NH-])(=O)=O)cc3)c2)CC1

> <Energy>
90.71017723893827

> <Genealogy>
CN1CCN(Cc2cccc(N=c3nc4c(c[n-]3)CCCN4C(=O)[N-]Cc3ccc(S([NH-])(=O)=O)cc3)c2)CC1 (protonated)
CN1CCN(Cc2cccc(N=c3nc4c(c[n-]3)CCCN4C(=O)[N-]Cc3ccc(S([NH-])(=O)=O)cc3)c2)CC1 (3D coordinates assigned)
CN1CCN(Cc2cccc(N=c3nc4c(c[n-]3)CCCN4C(=O)[N-]Cc3ccc(S([NH-])(=O)=O)cc3)c2)CC1 (nonaromatic ring conformer: 90.71017723893827 kcal/mol)

> <smiles>
CN1CCN(Cc2cccc(N=c3nc4c(c[nH]3)CCCN4C(=O)NCc3ccc(S(N)(=O)=O)cc3)c2)CC1

> <score_type>
oracle

> <origin>
adg

> <m_score__min__energy>
-14.77

> <m_primary>
energy

> <minimizedAffinity>
-10.13930

> <minimizedRMSD>
0.67000

> <CNNscore>
0.4638788700

> <CNNaffinity>
7.0238437653

> <CNN_VS>
3.2582128048

> <CNNaffinity_variance>
0.4789837301

$$$$
22:0


 31 33  0  0  0  0  0  0  0  0999 V2000
   59.0181   33.0205   47.4946 C   0  0  0  0  0  0  0  0  0  0  0  0
   59.2146   34.3210   47.0180 C   0  0  0  0  0  0  0  0  0  0  0  0
   58.9872   34.6194   45.6727 C   0  0  0  0  0  0  0  0  0  0  0  0
   58.5396   33.6259   44.7999 C   0  0  0  0  0  0  0  0  0  0  0  0
   58.3359   32.3199   45.2597 C   0  0  0  0  0  0  0  0  0  0  0  0
   58.5787   32.0169   46.6112 C   0  0  0  0  0  0  0  0  0  0  0  0
   59.1859   32.7620   48.8959 N   0  0  0  0  0  0  0  0  0  0  0  0
   60.0067   31.7272   49.4476 C   0  0  0  0  0  0  0  0  0  0  0  0
   61.2396   31.9395   49.5925 O   0  0  0  0  0  0  0  0  0  0  0  0
   59.4674   30.3984   49.7912 C   0  0  0  0  0  0  0  0  0  0  0  0
   59.0083   30.0977   51.0121 C   0  0  0  0  0  0  0  0  0  0  0  0
   57.7262   30.6185   51.5205 C   0  0  0  0  0  0  0  0  0  0  0  0
   56.8100   29.8331   51.8814 O   0  0  0  0  0  0  0  0  0  0  0  0
   57.5110   32.0263   51.5947 N   0  0  0  0  0  0  0  0  0  0  0  0
   58.2210   32.6482   51.3149 H   0  0  0  0  0  0  0  0  0  0  0  0
   56.6524   32.3762   51.9258 H   0  0  0  0  0  0  0  0  0  0  0  0
   57.7823   31.3499   44.3583 N   0  0  0  0  0  0  0  0  0  0  0  0
   57.2325   30.0819   44.7356 C   0  0  0  0  0  0  0  0  0  0  0  0
   55.9959   29.8917   44.5932 O   0  0  0  0  0  0  0  0  0  0  0  0
   58.0894   28.9798   45.2267 C   0  0  0  0  0  0  0  0  0  0  0  0
   59.4781   29.0121   45.0249 C   0  0  0  0  0  0  0  0  0  0  0  0
   60.2772   27.9485   45.4469 C   0  0  0  0  0  0  0  0  0  0  0  0
   59.7014   26.8477   46.0854 C   0  0  0  0  0  0  0  0  0  0  0  0
   58.3157   26.7990   46.2951 C   0  0  0  0  0  0  0  0  0  0  0  0
   57.5145   27.8675   45.8634 C   0  0  0  0  0  0  0  0  0  0  0  0
   57.7007   25.6403   47.0296 C   0  0  0  0  0  0  0  0  0  0  0  0
   56.7930   24.8791   46.1161 C   0  0  0  0  0  0  0  0  0  0  0  0
   57.2203   24.2903   44.9795 N   0  0  0  0  0  0  0  0  0  0  0  0
   56.1010   23.7696   44.4478 C   0  0  0  0  0  0  0  0  0  0  0  0
   55.0340   24.0638   45.2620 C   0  0  0  0  0  0  0  0  0  0  0  0
   55.4638   24.7729   46.3195 N   0  0  0  0  0  0  0  0  0  0  0  0
 10  8  1  0
  8  9  2  0
  8  7  1  0
  7  1  1  0
  1  2  2  0
  2  3  1  0
  3  4  2  0
  4  5  1  0
  5 17  1  0
 17 18  1  0
 18 19  2  0
 18 20  1  0
 20 21  2  0
 21 22  1  0
 22 23  2  0
 23 24  1  0
 24 26  1  0
 26 27  1  0
 27 28  2  0
 28 29  1  0
 29 30  2  0
 30 31  1  0
 24 25  2  0
  5  6  2  0
 10 11  2  0
 11 12  1  0
 12 13  2  0
 12 14  1  0
  6  1  1  0
 25 20  1  0
 31 27  1  0
 14 15  1  0
 14 16  1  0
M  CHG 1   7  -1
M  CHG 1  17  -1
M  CHG 1  31  -1
M  END
> <UniqueID>
23

> <SMILES>
NC(=O)/C=C/C(=O)[N-]c1cccc([N-]C(=O)c2cccc(Cc3ncc[n-]3)c2)c1

> <Energy>
78.4567915679851

> <Genealogy>
NC(=O)C=CC(=O)[N-]c1cccc([N-]C(=O)c2cccc(Cc3ncc[n-]3)c2)c1 (protonated)
NC(=O)/C=C/C(=O)[N-]c1cccc([N-]C(=O)c2cccc(Cc3ncc[n-]3)c2)c1 (cis-trans isomerization)
NC(=O)/C=C/C(=O)[N-]c1cccc([N-]C(=O)c2cccc(Cc3ncc[n-]3)c2)c1 (3D coordinates assigned)
NC(=O)/C=C/C(=O)[N-]c1cccc([N-]C(=O)c2cccc(Cc3ncc[n-]3)c2)c1 (optimized conformer: 78.4567915679851 kcal/mol)

> <smiles>
NC(=O)C=CC(=O)Nc1cccc(NC(=O)c2cccc(Cc3ncc[nH]3)c2)c1

> <score_type>
oracle

> <origin>
adg

> <m_score__min__energy>
-14.15

> <m_primary>
energy

> <minimizedAffinity>
-8.33508

> <minimizedRMSD>
0.73260

> <CNNscore>
0.3646973968

> <CNNaffinity>
6.8779253960

> <CNN_VS>
2.5083615780

> <CNNaffinity_variance>
0.0065783183

$$$$
30:0


 27 29  0  0  0  0  0  0  0  0999 V2000
   56.8483   23.1830   43.4319 C   0  0  0  0  0  0  0  0  0  0  0  0
   57.1527   24.2140   44.2433 C   0  0  0  0  0  0  0  0  0  0  0  0
   57.4772   25.4082   43.6578 N   0  0  0  0  0  0  0  0  0  0  0  0
   57.8551   26.4678   44.3685 N   0  0  0  0  0  0  0  0  0  0  0  0
   57.9380   26.4334   45.7183 C   0  0  0  0  0  0  0  0  0  0  0  0
   57.5759   25.2668   46.3891 C   0  0  0  0  0  0  0  0  0  0  0  0
   57.1887   24.1144   45.6728 C   0  0  0  0  0  0  0  0  0  0  0  0
   56.8143   22.9886   46.3406 C   0  0  0  0  0  0  0  0  0  0  0  0
   57.4295   25.4856   42.6775 H   0  0  0  0  0  0  0  0  0  0  0  0
   58.3383   27.6514   46.4511 C   0  0  0  0  0  0  0  0  0  0  0  0
   58.3838   27.6185   47.7096 O   0  0  0  0  0  0  0  0  0  0  0  0
   58.6492   28.8783   45.7624 N   0  0  0  0  0  0  0  0  0  0  0  0
   59.7635   29.7175   46.2278 C   0  0  0  0  0  0  0  0  0  0  0  0
   59.3054   31.1699   46.4872 C   0  0  0  0  0  0  0  0  0  0  0  0
   58.0112   31.4636   45.8394 N   0  0  0  0  0  0  0  0  0  0  0  0
   57.8937   30.8656   44.5002 C   0  0  0  0  0  0  0  0  0  0  0  0
   57.7908   29.3471   44.6619 C   0  0  0  0  0  0  0  0  0  0  0  0
   57.5324   32.8604   45.9606 C   0  0  0  0  0  0  0  0  0  0  0  0
   58.1189   33.8758   44.9548 C   0  0  0  0  0  0  0  0  0  0  0  0
   59.3658   34.6007   45.4519 C   0  0  0  0  0  0  0  0  0  0  0  0
   55.4218   22.5839   46.6354 C   0  0  0  0  0  0  0  0  0  0  0  0
   55.0472   21.3932   47.1420 N   0  0  0  0  0  0  0  0  0  0  0  0
   53.6995   21.4536   47.1248 C   0  0  0  0  0  0  0  0  0  0  0  0
   52.9740   20.5123   47.5411 O   0  0  0  0  0  0  0  0  0  0  0  0
   53.1890   22.5955   46.6185 N   0  0  0  0  0  0  0  0  0  0  0  0
   54.2921   23.2940   46.3029 C   0  0  0  0  0  0  0  0  0  0  0  0
   54.2668   24.5551   45.7193 O   0  0  0  0  0  0  0  0  0  0  0  0
  1  2  2  0
  2  3  1  0
  3  4  2  0
  4  5  1  0
  5 10  1  0
 10 11  2  0
 10 12  1  0
 12 13  1  0
 13 14  1  0
 14 15  1  0
 15 18  1  0
 18 19  1  0
 19 20  1  0
 15 16  1  0
 16 17  1  0
  5  6  2  0
  6  7  1  0
  7  8  2  0
  8 21  1  0
 21 22  1  0
 22 23  1  0
 23 24  2  0
 23 25  1  0
 25 26  1  0
 26 27  1  0
  7  2  1  0
 26 21  2  0
 17 12  1  0
  3  9  1  0
M  CHG 1   3   1
M  CHG 1  22  -1
M  CHG 1  25  -1
M  CHG 1  27  -1
M  END
> <UniqueID>
30

> <SMILES>
C=c1[nH+]nc(C(=O)N2CCN(CCC)CC2)cc1=Cc1[n-]c(=O)[n-]c1[O-]

> <Energy>
105.46069734119587

> <Genealogy>
C=c1[nH+]nc(C(=O)N2CCN(CCC)CC2)cc1=Cc1[n-]c(=O)[n-]c1[O-] (protonated)
C=c1[nH+]nc(C(=O)N2CCN(CCC)CC2)cc1=Cc1[n-]c(=O)[n-]c1[O-] (3D coordinates assigned)
C=c1[nH+]nc(C(=O)N2CCN(CCC)CC2)cc1=Cc1[n-]c(=O)[n-]c1[O-] (nonaromatic ring conformer: 105.46069734119587 kcal/mol)

> <smiles>
C=c1nnc(C(=O)N2CCN(CCC)CC2)cc1=Cc1[nH]c(=O)[nH]c1O

> <score_type>
oracle

> <origin>
adg

> <m_score__min__energy>
-16.039999999999999

> <m_primary>
energy

> <minimizedAffinity>
-7.97705

> <minimizedRMSD>
1.37063

> <CNNscore>
0.0683186278

> <CNNaffinity>
5.1738152504

> <CNN_VS>
0.3534679711

> <CNNaffinity_variance>
0.6032214165

$$$$
31:0


 33 35  0  0  0  0  0  0  0  0999 V2000
   60.2124   30.8013   50.1101 C   0  0  0  0  0  0  0  0  0  0  0  0
   61.3213   30.5516   50.9352 C   0  0  0  0  0  0  0  0  0  0  0  0
   61.9320   31.5670   51.5993 F   0  0  0  0  0  0  0  0  0  0  0  0
   61.8213   29.2569   51.0633 C   0  0  0  0  0  0  0  0  0  0  0  0
   61.2213   28.2000   50.3761 C   0  0  0  0  0  0  0  0  0  0  0  0
   60.1140   28.4226   49.5514 C   0  0  0  0  0  0  0  0  0  0  0  0
   59.5937   29.7297   49.4355 C   0  0  0  0  0  0  0  0  0  0  0  0
   58.4589   29.9687   48.7358 F   0  0  0  0  0  0  0  0  0  0  0  0
   59.6796   32.1757   49.9799 C   0  0  0  0  0  0  0  0  0  0  0  0
   59.2796   32.7710   51.0169 O   0  0  0  0  0  0  0  0  0  0  0  0
   59.4207   34.3315   44.1744 H   0  0  0  0  0  0  0  0  0  0  0  0
   59.4755   34.8355   45.0878 N   0  0  0  0  0  0  0  0  0  0  0  0
   59.4974   34.2134   46.2236 C   0  0  0  0  0  0  0  0  0  0  0  0
   60.6852   34.0131   46.8514 N   0  0  0  0  0  0  0  0  0  0  0  0
   60.7722   33.3582   48.0399 C   0  0  0  0  0  0  0  0  0  0  0  0
   59.6142   32.8683   48.6681 C   0  0  0  0  0  0  0  0  0  0  0  0
   58.3767   33.0827   48.0401 C   0  0  0  0  0  0  0  0  0  0  0  0
   58.3152   33.7483   46.8136 C   0  0  0  0  0  0  0  0  0  0  0  0
   59.5497   27.2922   48.8676 N   0  0  0  0  0  0  0  0  0  0  0  0
   59.6310   26.9648   47.1663 S   0  0  0  0  0  0  0  0  0  0  0  0
   58.6805   25.8500   46.8289 O   0  0  0  0  0  0  0  0  0  0  0  0
   61.0275   26.5356   46.8182 O   0  0  0  0  0  0  0  0  0  0  0  0
   59.2505   28.4212   46.2512 C   0  0  0  0  0  0  0  0  0  0  0  0
   60.1444   29.4950   46.2589 C   0  0  0  0  0  0  0  0  0  0  0  0
   59.8548   30.6522   45.5368 C   0  0  0  0  0  0  0  0  0  0  0  0
   58.6719   30.7467   44.7982 C   0  0  0  0  0  0  0  0  0  0  0  0
   58.4250   31.8959   44.1185 F   0  0  0  0  0  0  0  0  0  0  0  0
   57.7556   29.6738   44.7824 C   0  0  0  0  0  0  0  0  0  0  0  0
   58.0618   28.5117   45.5162 C   0  0  0  0  0  0  0  0  0  0  0  0
   56.4821   29.7524   44.0238 C   0  0  0  0  0  0  0  0  0  0  0  0
   56.4995   29.9699   42.7827 O   0  0  0  0  0  0  0  0  0  0  0  0
   55.2247   29.5879   44.6778 N   0  0  0  0  0  0  0  0  0  0  0  0
   55.1924   29.4174   45.6469 H   0  0  0  0  0  0  0  0  0  0  0  0
 11 12  1  0
 12 13  2  0
 13 14  1  0
 14 15  1  0
 15 16  2  0
 16  9  1  0
  9 10  2  0
  9  1  1  0
  1  2  2  0
  2  3  1  0
  2  4  1  0
  4  5  2  0
  5  6  1  0
  6 19  1  0
 19 20  1  0
 20 21  2  0
 20 22  2  0
 20 23  1  0
 23 24  2  0
 24 25  1  0
 25 26  2  0
 26 27  1  0
 26 28  1  0
 28 30  1  0
 30 31  2  0
 30 32  1  0
 28 29  2  0
  6  7  2  0
  7  8  1  0
 16 17  1  0
 17 18  2  0
 18 13  1  0
  7  1  1  0
 29 23  1  0
 32 33  1  0
M  CHG 1  14  -1
M  CHG 1  19  -1
M  CHG 1  32  -1
M  END
> <UniqueID>
31

> <SMILES>
[H]/N=c1\ccc(C(=O)c2c(F)ccc([N-]S(=O)(=O)c3ccc(F)c(C([NH-])=O)c3)c2F)c[n-]1

> <Energy>
56.510967695899105

> <Genealogy>
N=c1ccc(C(=O)c2c(F)ccc([N-]S(=O)(=O)c3ccc(F)c(C([NH-])=O)c3)c2F)c[n-]1 (protonated)
[H]/N=c1\ccc(C(=O)c2c(F)ccc([N-]S(=O)(=O)c3ccc(F)c(C([NH-])=O)c3)c2F)c[n-]1 (cis-trans isomerization)
[H]/N=c1\ccc(C(=O)c2c(F)ccc([N-]S(=O)(=O)c3ccc(F)c(C([NH-])=O)c3)c2F)c[n-]1 (3D coordinates assigned)
[H]/N=c1\ccc(C(=O)c2c(F)ccc([N-]S(=O)(=O)c3ccc(F)c(C([NH-])=O)c3)c2F)c[n-]1 (optimized conformer: 56.510967695899105 kcal/mol)

> <smiles>
N=c1ccc(C(=O)c2c(F)ccc(NS(=O)(=O)c3ccc(F)c(C(N)=O)c3)c2F)c[nH]1

> <score_type>
oracle

> <origin>
adg

> <m_score__min__energy>
-14.609999999999999

> <m_primary>
energy

> <minimizedAffinity>
-6.55160

> <minimizedRMSD>
0.98160

> <CNNscore>
0.2625703514

> <CNNaffinity>
6.7067475319

> <CNN_VS>
1.7609930038

> <CNNaffinity_variance>
0.0886172131

$$$$
49:0


 28 31  0  0  0  0  0  0  0  0999 V2000
   59.5955   30.0918   44.8759 C   0  0  0  0  0  0  0  0  0  0  0  0
   59.3596   29.5060   46.0602 C   0  0  0  0  0  0  0  0  0  0  0  0
   58.6555   28.3141   46.2938 C   0  0  0  0  0  0  0  0  0  0  0  0
   57.8795   27.5730   45.4785 C   0  0  0  0  0  0  0  0  0  0  0  0
   58.8849   27.9831   47.6192 C   0  0  0  0  0  0  0  0  0  0  0  0
   59.6433   29.0011   48.1604 C   0  0  0  0  0  0  0  0  0  0  0  0
   60.1111   29.0595   49.5829 C   0  0  0  0  0  0  0  0  0  0  0  0
   59.9264   29.9254   47.2192 N   0  0  0  0  0  0  0  0  0  0  0  0
   57.5802   26.1440   45.6510 C   0  0  0  0  0  0  0  0  0  0  0  0
   58.5192   25.1817   45.6475 N   0  0  0  0  0  0  0  0  0  0  0  0
   57.8241   24.0667   45.9608 C   0  0  0  0  0  0  0  0  0  0  0  0
   58.3636   22.9313   46.0414 O   0  0  0  0  0  0  0  0  0  0  0  0
   56.5086   24.2634   46.1920 N   0  0  0  0  0  0  0  0  0  0  0  0
   56.3721   25.5863   46.0069 C   0  0  0  0  0  0  0  0  0  0  0  0
   55.1768   26.2723   46.1887 O   0  0  0  0  0  0  0  0  0  0  0  0
   60.7135   31.1134   47.4225 C   0  0  0  0  0  0  0  0  0  0  0  0
   62.1117   31.0281   47.3776 C   0  0  0  0  0  0  0  0  0  0  0  0
   62.8937   32.1690   47.5664 C   0  0  0  0  0  0  0  0  0  0  0  0
   62.2858   33.4007   47.8110 C   0  0  0  0  0  0  0  0  0  0  0  0
   60.8925   33.4976   47.8644 C   0  0  0  0  0  0  0  0  0  0  0  0
   60.0906   32.3611   47.6586 C   0  0  0  0  0  0  0  0  0  0  0  0
   58.6131   32.4517   47.7630 C   0  0  0  0  0  0  0  0  0  0  0  0
   58.0595   31.8862   48.7462 O   0  0  0  0  0  0  0  0  0  0  0  0
   57.7688   33.1343   46.7987 N   0  0  0  0  0  0  0  0  0  0  0  0
   57.5298   32.4727   45.5065 C   0  0  0  0  0  0  0  0  0  0  0  0
   58.2304   33.5769   44.7325 C   0  0  0  0  0  0  0  0  0  0  0  0
   58.4582   34.2211   46.0924 C   0  0  0  0  0  0  0  0  0  0  0  0
   57.8844   33.4333   45.8678 H   0  0  0  0  0  0  0  0  0  0  0  0
  1  2  2  0
  2  3  1  0
  3  4  2  0
  4  9  1  0
  9 10  1  0
 10 11  1  0
 11 12  2  0
 11 13  1  0
 13 14  1  0
 14 15  1  0
  3  5  1  0
  5  6  2  0
  6  7  1  0
  6  8  1  0
  8 16  1  0
 16 17  2  0
 17 18  1  0
 18 19  2  0
 19 20  1  0
 20 21  2  0
 21 22  1  0
 22 23  2  0
 22 24  1  0
 24 25  1  0
 25 26  1  0
 26 27  1  0
  8  2  1  0
 21 16  1  0
 27 24  1  0
 14  9  2  0
 24 28  1  0
M  CHG 1  10  -1
M  CHG 1  13  -1
M  CHG 1  15  -1
M  CHG 1  24   1
M  END
> <UniqueID>
48

> <SMILES>
C=c1/c(=C\c2[n-]c(=O)[n-]c2[O-])cc(C)n1-c1ccccc1C(=O)[NH+]1CCC1

> <Energy>
204.91619067521057

> <Genealogy>
C=c1c(=Cc2[n-]c(=O)[n-]c2[O-])cc(C)n1-c1ccccc1C(=O)[NH+]1CCC1 (protonated)
C=c1/c(=C\c2[n-]c(=O)[n-]c2[O-])cc(C)n1-c1ccccc1C(=O)[NH+]1CCC1 (cis-trans isomerization)
C=c1/c(=C\c2[n-]c(=O)[n-]c2[O-])cc(C)n1-c1ccccc1C(=O)[NH+]1CCC1 (3D coordinates assigned)
C=c1/c(=C\c2[n-]c(=O)[n-]c2[O-])cc(C)n1-c1ccccc1C(=O)[NH+]1CCC1 (nonaromatic ring conformer: 204.91619067521057 kcal/mol)

> <smiles>
C=c1c(=Cc2[nH]c(=O)[nH]c2O)cc(C)n1-c1ccccc1C(=O)N1CCC1

> <score_type>
oracle

> <origin>
adg

> <m_score__min__energy>
-14.52

> <m_primary>
energy

> <minimizedAffinity>
-7.91871

> <minimizedRMSD>
0.73866

> <CNNscore>
0.2765704989

> <CNNaffinity>
6.5569744110

> <CNN_VS>
1.8134657145

> <CNNaffinity_variance>
0.0041487999

$$$$
50:0


 32 35  0  0  0  0  0  0  0  0999 V2000
   57.6706   30.1564   52.6759 C   0  0  0  0  0  0  0  0  0  0  0  0
   58.4897   29.2272   52.9135 O   0  0  0  0  0  0  0  0  0  0  0  0
   58.0595   31.2581   51.8413 N   0  0  0  0  0  0  0  0  0  0  0  0
   57.4314   32.0051   51.7124 H   0  0  0  0  0  0  0  0  0  0  0  0
   53.9396   29.3675   55.6746 C   0  0  0  0  0  0  0  0  0  0  0  0
   54.6271   29.7226   54.5758 C   0  0  0  0  0  0  0  0  0  0  0  0
   54.0775   30.0838   53.3377 C   0  0  0  0  0  0  0  0  0  0  0  0
   52.7646   30.1786   53.0308 C   0  0  0  0  0  0  0  0  0  0  0  0
   55.1581   30.3179   52.4947 C   0  0  0  0  0  0  0  0  0  0  0  0
   56.3032   30.0903   53.2333 C   0  0  0  0  0  0  0  0  0  0  0  0
   55.9835   29.7526   54.5071 N   0  0  0  0  0  0  0  0  0  0  0  0
   56.9270   29.4640   55.5934 C   0  0  0  0  0  0  0  0  0  0  0  0
   52.2043   30.4414   51.6847 C   0  0  0  0  0  0  0  0  0  0  0  0
   52.2324   29.6006   50.6355 N   0  0  0  0  0  0  0  0  0  0  0  0
   51.5699   30.2736   49.6712 C   0  0  0  0  0  0  0  0  0  0  0  0
   51.3904   29.8041   48.5167 O   0  0  0  0  0  0  0  0  0  0  0  0
   51.1175   31.4900   50.0386 N   0  0  0  0  0  0  0  0  0  0  0  0
   51.5239   31.5782   51.3157 C   0  0  0  0  0  0  0  0  0  0  0  0
   51.2763   32.6781   52.1277 O   0  0  0  0  0  0  0  0  0  0  0  0
   59.3646   31.3028   51.1757 C   0  0  0  0  0  0  0  0  0  0  0  0
   59.6051   30.0224   50.3720 C   0  0  0  0  0  0  0  0  0  0  0  0
   60.9151   30.1405   49.5803 C   0  0  0  0  0  0  0  0  0  0  0  0
   62.0296   30.7218   50.3675 N   0  0  0  0  0  0  0  0  0  0  0  0
   61.8254   30.8424   51.8272 C   0  0  0  0  0  0  0  0  0  0  0  0
   60.4863   31.5120   52.2120 C   0  0  0  0  0  0  0  0  0  0  0  0
   62.7669   31.8301   49.7203 C   0  0  0  0  0  0  0  0  0  0  0  0
   61.9042   32.6889   48.8235 C   0  0  0  0  0  0  0  0  0  0  0  0
   62.0620   32.6523   47.4265 C   0  0  0  0  0  0  0  0  0  0  0  0
   61.2454   33.4340   46.6035 C   0  0  0  0  0  0  0  0  0  0  0  0
   60.2794   34.2704   47.1663 C   0  0  0  0  0  0  0  0  0  0  0  0
   60.1353   34.3348   48.5534 C   0  0  0  0  0  0  0  0  0  0  0  0
   60.9464   33.5547   49.3808 C   0  0  0  0  0  0  0  0  0  0  0  0
  5  6  2  0
  6  7  1  0
  7  8  2  0
  8 13  1  0
 13 14  1  0
 14 15  1  0
 15 16  2  0
 15 17  1  0
 17 18  1  0
 18 19  1  0
  7  9  1  0
  9 10  2  0
 10  1  1  0
  1  2  2  0
  1  3  1  0
  3 20  1  0
 20 21  1  0
 21 22  1  0
 22 23  1  0
 23 26  1  0
 26 27  1  0
 27 28  2  0
 28 29  1  0
 29 30  2  0
 30 31  1  0
 31 32  2  0
 23 24  1  0
 24 25  1  0
 10 11  1  0
 11 12  1  0
 11  6  1  0
 18 13  2  0
 25 20  1  0
 32 27  1  0
  3  4  1  0
M  CHG 1  14  -1
M  CHG 1  17  -1
M  CHG 1  19  -1
M  END
> <UniqueID>
49

> <SMILES>
C=c1/c(=C/c2[n-]c(=O)[n-]c2[O-])cc(C(=O)NC2CCN(Cc3ccccc3)CC2)n1C

> <Energy>
133.99002185544478

> <Genealogy>
C=c1c(=Cc2[n-]c(=O)[n-]c2[O-])cc(C(=O)NC2CCN(Cc3ccccc3)CC2)n1C (protonated)
C=c1/c(=C/c2[n-]c(=O)[n-]c2[O-])cc(C(=O)NC2CCN(Cc3ccccc3)CC2)n1C (cis-trans isomerization)
C=c1/c(=C/c2[n-]c(=O)[n-]c2[O-])cc(C(=O)NC2CCN(Cc3ccccc3)CC2)n1C (3D coordinates assigned)
C=c1/c(=C/c2[n-]c(=O)[n-]c2[O-])cc(C(=O)NC2CCN(Cc3ccccc3)CC2)n1C (nonaromatic ring conformer: 133.99002185544478 kcal/mol)

> <smiles>
C=c1c(=Cc2[nH]c(=O)[nH]c2O)cc(C(=O)NC2CCN(Cc3ccccc3)CC2)n1C

> <score_type>
oracle

> <origin>
adg

> <m_score__min__energy>
-18.899999999999999

> <m_primary>
energy

> <minimizedAffinity>
-6.58298

> <minimizedRMSD>
1.20567

> <CNNscore>
0.0628586933

> <CNNaffinity>
5.4087047577

> <CNN_VS>
0.3399841189

> <CNNaffinity_variance>
0.1423711628

$$$$
53:0


 38 41  0  0  0  0  0  0  0  0999 V2000
   58.5489   31.1693   45.7971 C   0  0  0  0  0  0  0  0  0  0  0  0
   58.1466   32.0286   44.7655 C   0  0  0  0  0  0  0  0  0  0  0  0
   57.9612   33.3901   45.0175 C   0  0  0  0  0  0  0  0  0  0  0  0
   58.1723   33.9025   46.3000 C   0  0  0  0  0  0  0  0  0  0  0  0
   58.5525   33.0520   47.3343 C   0  0  0  0  0  0  0  0  0  0  0  0
   58.7479   31.6785   47.1006 C   0  0  0  0  0  0  0  0  0  0  0  0
   57.9990   26.4641   44.5319 C   0  0  0  0  0  0  0  0  0  0  0  0
   58.5659   27.6293   44.9143 C   0  0  0  0  0  0  0  0  0  0  0  0
   59.8976   27.8458   45.2577 C   0  0  0  0  0  0  0  0  0  0  0  0
   60.0097   29.1787   45.5998 C   0  0  0  0  0  0  0  0  0  0  0  0
   61.2619   29.8347   46.0929 C   0  0  0  0  0  0  0  0  0  0  0  0
   58.8150   29.7923   45.4901 N   0  0  0  0  0  0  0  0  0  0  0  0
   57.9201   28.8616   45.0796 C   0  0  0  0  0  0  0  0  0  0  0  0
   56.6158   29.1166   44.8906 C   0  0  0  0  0  0  0  0  0  0  0  0
   55.3469   26.5041   46.0289 O   0  0  0  0  0  0  0  0  0  0  0  0
   56.2671   25.4625   46.0921 C   0  0  0  0  0  0  0  0  0  0  0  0
   56.0877   24.3468   46.8179 N   0  0  0  0  0  0  0  0  0  0  0  0
   57.2128   23.6464   46.5659 C   0  0  0  0  0  0  0  0  0  0  0  0
   57.4322   22.5095   47.0618 O   0  0  0  0  0  0  0  0  0  0  0  0
   58.0818   24.2571   45.7354 N   0  0  0  0  0  0  0  0  0  0  0  0
   57.4778   25.4217   45.4429 C   0  0  0  0  0  0  0  0  0  0  0  0
   54.5424   26.4481   46.5061 H   0  0  0  0  0  0  0  0  0  0  0  0
   59.1140   30.7948   48.2305 C   0  0  0  0  0  0  0  0  0  0  0  0
   58.4151   29.7705   48.4662 O   0  0  0  0  0  0  0  0  0  0  0  0
   60.2015   31.1245   49.1137 N   0  0  0  0  0  0  0  0  0  0  0  0
   61.0494   30.0477   49.6350 C   0  0  0  0  0  0  0  0  0  0  0  0
   60.5971   32.5243   49.3143 C   0  0  0  0  0  0  0  0  0  0  0  0
   61.3080   33.0495   48.0621 C   0  0  0  0  0  0  0  0  0  0  0  0
   62.7512   33.1483   48.3060 N   0  0  0  0  0  0  0  0  0  0  0  0
   63.2323   33.4600   49.6259 C   0  0  0  0  0  0  0  0  0  0  0  0
   62.8318   34.5101   50.1945 O   0  0  0  0  0  0  0  0  0  0  0  0
   63.7064   32.7728   47.2652 C   0  0  0  0  0  0  0  0  0  0  0  0
   64.1736   32.5628   50.3327 C   0  0  0  0  0  0  0  0  0  0  0  0
   63.7008   31.4632   51.0755 C   0  0  0  0  0  0  0  0  0  0  0  0
   64.5995   30.6094   51.7214 C   0  0  0  0  0  0  0  0  0  0  0  0
   65.9754   30.8411   51.6294 C   0  0  0  0  0  0  0  0  0  0  0  0
   66.4548   31.9275   50.8896 C   0  0  0  0  0  0  0  0  0  0  0  0
   65.5591   32.7811   50.2397 C   0  0  0  0  0  0  0  0  0  0  0  0
 15 16  1  0
 16 17  1  0
 17 18  1  0
 18 19  2  0
 18 20  1  0
 20 21  1  0
 21  7  1  0
  7  8  2  0
  8  9  1  0
  9 10  2  0
 10 11  1  0
 10 12  1  0
 12  1  1  0
  1  2  2  0
  2  3  1  0
  3  4  2  0
  4  5  1  0
  5  6  2  0
  6 23  1  0
 23 24  2  0
 23 25  1  0
 25 26  1  0
 25 27  1  0
 27 28  1  0
 28 29  1  0
 29 30  1  0
 30 31  2  0
 30 33  1  0
 33 34  2  0
 34 35  1  0
 35 36  2  0
 36 37  1  0
 37 38  2  0
 29 32  1  0
 12 13  1  0
 13 14  2  0
 21 16  2  0
 13  8  1  0
  6  1  1  0
 38 33  1  0
 15 22  1  0
M  CHG 1  17  -1
M  CHG 1  20  -1
M  END
> <UniqueID>
52

> <SMILES>
C=c1/c(=C/c2[n-]c(=O)[n-]c2O)cc(C)n1-c1ccccc1C(=O)N(C)CCN(C)C(=O)c1ccccc1

> <Energy>
139.90547569101827

> <Genealogy>
C=c1c(=Cc2[n-]c(=O)[n-]c2O)cc(C)n1-c1ccccc1C(=O)N(C)CCN(C)C(=O)c1ccccc1 (protonated)
C=c1/c(=C/c2[n-]c(=O)[n-]c2O)cc(C)n1-c1ccccc1C(=O)N(C)CCN(C)C(=O)c1ccccc1 (cis-trans isomerization)
C=c1/c(=C/c2[n-]c(=O)[n-]c2O)cc(C)n1-c1ccccc1C(=O)N(C)CCN(C)C(=O)c1ccccc1 (3D coordinates assigned)
C=c1/c(=C/c2[n-]c(=O)[n-]c2O)cc(C)n1-c1ccccc1C(=O)N(C)CCN(C)C(=O)c1ccccc1 (optimized conformer: 139.90547569101827 kcal/mol)

> <smiles>
C=c1c(=Cc2[nH]c(=O)[nH]c2O)cc(C)n1-c1ccccc1C(=O)N(C)CCN(C)C(=O)c1ccccc1

> <score_type>
oracle

> <origin>
adg

> <m_score__min__energy>
-14.25

> <m_primary>
energy

> <minimizedAffinity>
-9.24735

> <minimizedRMSD>
0.50180

> <CNNscore>
0.8639883399

> <CNNaffinity>
7.7382769585

> <CNN_VS>
6.6857810020

> <CNNaffinity_variance>
0.0329905301

$$$$
55:0


 30 33  0  0  0  0  0  0  0  0999 V2000
   58.5164   28.4805   47.1952 C   0  0  0  0  0  0  0  0  0  0  0  0
   58.4928   28.9741   48.3552 O   0  0  0  0  0  0  0  0  0  0  0  0
   59.0847   27.1714   46.9910 N   0  0  0  0  0  0  0  0  0  0  0  0
   59.6136   26.7844   45.6878 C   0  0  0  0  0  0  0  0  0  0  0  0
   58.6015   25.8833   44.9837 C   0  0  0  0  0  0  0  0  0  0  0  0
   58.0236   24.8129   45.8999 C   0  0  0  0  0  0  0  0  0  0  0  0
   58.1383   24.9297   47.3093 C   0  0  0  0  0  0  0  0  0  0  0  0
   57.6108   23.9074   48.1175 C   0  0  0  0  0  0  0  0  0  0  0  0
   57.7340   23.9564   49.3702 O   0  0  0  0  0  0  0  0  0  0  0  0
   56.9743   22.8774   47.5768 O   0  0  0  0  0  0  0  0  0  0  0  0
   56.7938   22.7459   46.2695 C   0  0  0  0  0  0  0  0  0  0  0  0
   56.0902   21.6365   45.7879 C   0  0  0  0  0  0  0  0  0  0  0  0
   55.8693   21.4827   44.4187 C   0  0  0  0  0  0  0  0  0  0  0  0
   56.3447   22.4413   43.5226 C   0  0  0  0  0  0  0  0  0  0  0  0
   56.1105   22.2893   42.1606 O   0  0  0  0  0  0  0  0  0  0  0  0
   57.0533   23.5529   43.9885 C   0  0  0  0  0  0  0  0  0  0  0  0
   57.3003   23.7154   45.3705 C   0  0  0  0  0  0  0  0  0  0  0  0
   58.8669   26.0902   47.9551 C   0  0  0  0  0  0  0  0  0  0  0  0
   57.9879   31.3245   44.7467 C   0  0  0  0  0  0  0  0  0  0  0  0
   56.9681   30.8014   43.9347 C   0  0  0  0  0  0  0  0  0  0  0  0
   56.4426   29.5342   44.1932 C   0  0  0  0  0  0  0  0  0  0  0  0
   56.9291   28.7706   45.2578 C   0  0  0  0  0  0  0  0  0  0  0  0
   56.3558   27.5300   45.5164 O   0  0  0  0  0  0  0  0  0  0  0  0
   57.9679   29.2697   46.0670 C   0  0  0  0  0  0  0  0  0  0  0  0
   58.4774   30.5550   45.8102 C   0  0  0  0  0  0  0  0  0  0  0  0
   58.5535   32.6229   44.5271 N   0  0  0  0  0  0  0  0  0  0  0  0
   59.7020   35.0869   45.4834 C   0  0  0  0  0  0  0  0  0  0  0  0
   58.2674   34.0338   45.4950 S   0  0  0  0  0  0  0  0  0  0  0  0
   57.9229   33.6314   46.9011 O   0  0  0  0  0  0  0  0  0  0  0  0
   57.1089   34.7920   44.9111 O   0  0  0  0  0  0  0  0  0  0  0  0
 27 28  1  0
 28 29  2  0
 28 30  2  0
 28 26  1  0
 26 19  1  0
 19 20  2  0
 20 21  1  0
 21 22  2  0
 22 23  1  0
 22 24  1  0
 24  1  1  0
  1  2  2  0
  1  3  1  0
  3  4  1  0
  4  5  1  0
  5  6  1  0
  6  7  2  0
  7  8  1  0
  8  9  2  0
  8 10  1  0
 10 11  1  0
 11 12  2  0
 12 13  1  0
 13 14  2  0
 14 15  1  0
 14 16  1  0
 16 17  2  0
  7 18  1  0
 24 25  2  0
 25 19  1  0
 18  3  1  0
 17  6  1  0
 17 11  1  0
M  CHG 1  15  -1
M  CHG 1  23  -1
M  CHG 1  26  -1
M  END
> <UniqueID>
54

> <SMILES>
CS(=O)(=O)[N-]c1ccc([O-])c(C(=O)N2CCc3c(c(=O)oc4ccc([O-])cc34)C2)c1

> <Energy>
64.58855793046381

> <Genealogy>
CS(=O)(=O)[N-]c1ccc([O-])c(C(=O)N2CCc3c(c(=O)oc4ccc([O-])cc34)C2)c1 (protonated)
CS(=O)(=O)[N-]c1ccc([O-])c(C(=O)N2CCc3c(c(=O)oc4ccc([O-])cc34)C2)c1 (3D coordinates assigned)
CS(=O)(=O)[N-]c1ccc([O-])c(C(=O)N2CCc3c(c(=O)oc4ccc([O-])cc34)C2)c1 (nonaromatic ring conformer: 64.58855793046381 kcal/mol)

> <smiles>
CS(=O)(=O)Nc1ccc(O)c(C(=O)N2CCc3c(c(=O)oc4ccc(O)cc34)C2)c1

> <score_type>
oracle

> <origin>
adg

> <m_score__min__energy>
-14.640000000000001

> <m_primary>
energy

> <minimizedAffinity>
-3.26140

> <minimizedRMSD>
0.45776

> <CNNscore>
0.1367786229

> <CNNaffinity>
5.2825379372

> <CNN_VS>
0.7225382924

> <CNNaffinity_variance>
0.3528960049

$$$$
6:0


 33 36  0  0  0  0  0  0  0  0999 V2000
   58.5833   31.1769   45.3130 C   0  0  0  0  0  0  0  0  0  0  0  0
   57.7838   31.9849   44.4964 C   0  0  0  0  0  0  0  0  0  0  0  0
   57.6108   33.3365   44.8101 C   0  0  0  0  0  0  0  0  0  0  0  0
   58.2136   33.8799   45.9508 C   0  0  0  0  0  0  0  0  0  0  0  0
   58.9913   33.0669   46.7931 C   0  0  0  0  0  0  0  0  0  0  0  0
   59.1970   31.7217   46.4468 C   0  0  0  0  0  0  0  0  0  0  0  0
   56.4851   29.2871   44.4712 C   0  0  0  0  0  0  0  0  0  0  0  0
   57.7674   28.9180   44.6342 C   0  0  0  0  0  0  0  0  0  0  0  0
   58.2799   27.6106   44.6185 C   0  0  0  0  0  0  0  0  0  0  0  0
   57.7174   26.4487   44.2303 C   0  0  0  0  0  0  0  0  0  0  0  0
   59.5746   27.6970   45.1103 C   0  0  0  0  0  0  0  0  0  0  0  0
   59.8283   29.0360   45.3328 C   0  0  0  0  0  0  0  0  0  0  0  0
   61.0877   29.5787   45.9376 C   0  0  0  0  0  0  0  0  0  0  0  0
   58.7388   29.7761   45.0326 N   0  0  0  0  0  0  0  0  0  0  0  0
   57.2844   25.3651   45.1301 C   0  0  0  0  0  0  0  0  0  0  0  0
   57.9634   24.2208   45.3295 N   0  0  0  0  0  0  0  0  0  0  0  0
   57.2773   23.6177   46.3233 C   0  0  0  0  0  0  0  0  0  0  0  0
   57.6015   22.4940   46.7873 O   0  0  0  0  0  0  0  0  0  0  0  0
   56.2204   24.3177   46.7882 N   0  0  0  0  0  0  0  0  0  0  0  0
   56.2485   25.4272   46.0312 C   0  0  0  0  0  0  0  0  0  0  0  0
   55.3494   26.4778   46.1662 O   0  0  0  0  0  0  0  0  0  0  0  0
   59.5675   33.5963   48.0482 C   0  0  0  0  0  0  0  0  0  0  0  0
   59.7242   34.8400   48.2005 O   0  0  0  0  0  0  0  0  0  0  0  0
   59.9687   32.6972   49.0944 N   0  0  0  0  0  0  0  0  0  0  0  0
   61.4157   32.5601   49.3327 C   0  0  0  0  0  0  0  0  0  0  0  0
   61.7772   31.5718   50.4495 C   0  0  0  0  0  0  0  0  0  0  0  0
   60.8393   30.3593   50.4946 C   0  0  0  0  0  0  0  0  0  0  0  0
   59.4220   30.8771   50.7691 C   0  0  0  0  0  0  0  0  0  0  0  0
   58.9193   31.8481   49.6911 C   0  0  0  0  0  0  0  0  0  0  0  0
   60.9268   29.4651   49.2191 C   0  0  0  0  0  0  0  0  0  0  0  0
   59.9725   28.3338   49.2690 N   0  0  0  0  0  0  0  0  0  0  0  0
   60.6339   27.1043   48.8021 C   0  0  0  0  0  0  0  0  0  0  0  0
   58.7871   28.5938   48.4331 C   0  0  0  0  0  0  0  0  0  0  0  0
  7  8  2  0
  8  9  1  0
  9 10  2  0
 10 15  1  0
 15 16  1  0
 16 17  1  0
 17 18  2  0
 17 19  1  0
 19 20  1  0
 20 21  1  0
  9 11  1  0
 11 12  2  0
 12 13  1  0
 12 14  1  0
 14  1  1  0
  1  2  2  0
  2  3  1  0
  3  4  2  0
  4  5  1  0
  5 22  1  0
 22 23  2  0
 22 24  1  0
 24 25  1  0
 25 26  1  0
 26 27  1  0
 27 30  1  0
 30 31  1  0
 31 32  1  0
 31 33  1  0
 27 28  1  0
 28 29  1  0
  5  6  2  0
 14  8  1  0
  6  1  1  0
 20 15  2  0
 29 24  1  0
M  CHG 1  16  -1
M  CHG 1  19  -1
M  CHG 1  21  -1
M  END
> <UniqueID>
5

> <SMILES>
C=c1c(=Cc2[n-]c(=O)[n-]c2[O-])cc(C)n1-c1cccc(C(=O)N2CCC(CN(C)C)CC2)c1

> <Energy>
146.7273311341004

> <Genealogy>
C=c1c(=Cc2[n-]c(=O)[n-]c2[O-])cc(C)n1-c1cccc(C(=O)N2CCC(CN(C)C)CC2)c1 (protonated)
C=c1c(=Cc2[n-]c(=O)[n-]c2[O-])cc(C)n1-c1cccc(C(=O)N2CCC(CN(C)C)CC2)c1 (3D coordinates assigned)
C=c1c(=Cc2[n-]c(=O)[n-]c2[O-])cc(C)n1-c1cccc(C(=O)N2CCC(CN(C)C)CC2)c1 (nonaromatic ring conformer: 146.7273311341004 kcal/mol)

> <smiles>
C=c1c(=Cc2[nH]c(=O)[nH]c2O)cc(C)n1-c1cccc(C(=O)N2CCC(CN(C)C)CC2)c1

> <score_type>
oracle

> <origin>
adg

> <m_score__min__energy>
-17.109999999999999

> <m_primary>
energy

> <minimizedAffinity>
-7.58962

> <minimizedRMSD>
0.65525

> <CNNscore>
0.2670800686

> <CNNaffinity>
7.0245361328

> <CNN_VS>
1.8761135340

> <CNNaffinity_variance>
0.0283855144

$$$$
17:0


 30 32  0  0  0  0  0  0  0  0999 V2000
   58.8108   30.1230   46.6093 C   0  0  0  0  0  0  0  0  0  0  0  0
   58.2270   30.8759   45.5727 C   0  0  0  0  0  0  0  0  0  0  0  0
   57.3708   30.2648   44.6516 C   0  0  0  0  0  0  0  0  0  0  0  0
   57.0664   28.9081   44.7692 C   0  0  0  0  0  0  0  0  0  0  0  0
   57.6207   28.1447   45.8010 C   0  0  0  0  0  0  0  0  0  0  0  0
   58.4837   28.7606   46.7256 C   0  0  0  0  0  0  0  0  0  0  0  0
   61.0634   31.0251   47.4211 C   0  0  0  0  0  0  0  0  0  0  0  0
   61.7520   30.3367   46.6175 O   0  0  0  0  0  0  0  0  0  0  0  0
   59.6686   30.7216   47.6017 N   0  0  0  0  0  0  0  0  0  0  0  0
   59.2673   30.9404   48.4737 H   0  0  0  0  0  0  0  0  0  0  0  0
   61.0660   33.2632   48.6291 C   0  0  0  0  0  0  0  0  0  0  0  0
   61.7464   34.1980   49.4439 C   0  0  0  0  0  0  0  0  0  0  0  0
   63.0679   33.9748   49.8323 C   0  0  0  0  0  0  0  0  0  0  0  0
   63.7324   32.8230   49.4206 C   0  0  0  0  0  0  0  0  0  0  0  0
   63.0738   31.8789   48.6327 C   0  0  0  0  0  0  0  0  0  0  0  0
   61.7350   32.0736   48.2398 C   0  0  0  0  0  0  0  0  0  0  0  0
   59.7511   33.4976   48.1874 O   0  0  0  0  0  0  0  0  0  0  0  0
   59.6460   34.1719   45.8521 C   0  0  0  0  0  0  0  0  0  0  0  0
   59.3365   34.5366   47.2999 C   0  0  0  0  0  0  0  0  0  0  0  0
   57.2270   26.7697   45.9383 N   0  0  0  0  0  0  0  0  0  0  0  0
   57.5129   25.7173   45.0105 C   0  0  0  0  0  0  0  0  0  0  0  0
   58.0056   26.0166   43.8892 O   0  0  0  0  0  0  0  0  0  0  0  0
   57.2819   24.2936   45.3558 C   0  0  0  0  0  0  0  0  0  0  0  0
   58.3429   23.3767   45.3211 C   0  0  0  0  0  0  0  0  0  0  0  0
   58.1294   22.0719   45.6245 N   0  0  0  0  0  0  0  0  0  0  0  0
   56.8923   21.6253   45.9536 C   0  0  0  0  0  0  0  0  0  0  0  0
   56.7156   20.4125   46.2340 O   0  0  0  0  0  0  0  0  0  0  0  0
   55.8452   22.4910   46.0009 N   0  0  0  0  0  0  0  0  0  0  0  0
   56.0097   23.8064   45.7049 C   0  0  0  0  0  0  0  0  0  0  0  0
   55.0178   24.5816   45.7764 O   0  0  0  0  0  0  0  0  0  0  0  0
 18 19  1  0
 19 17  1  0
 17 11  1  0
 11 12  2  0
 12 13  1  0
 13 14  2  0
 14 15  1  0
 15 16  2  0
 16  7  1  0
  7  8  2  0
  7  9  1  0
  9  1  1  0
  1  2  2  0
  2  3  1  0
  3  4  2  0
  4  5  1  0
  5 20  1  0
 20 21  1  0
 21 22  2  0
 21 23  1  0
 23 24  2  0
 24 25  1  0
 25 26  1  0
 26 27  2  0
 26 28  1  0
 28 29  1  0
 29 30  2  0
  5  6  2  0
 16 11  1  0
  6  1  1  0
 29 23  1  0
  9 10  1  0
M  CHG 1  20  -1
M  CHG 1  25  -1
M  CHG 1  28  -1
M  END
> <UniqueID>
16

> <SMILES>
CCOc1ccccc1C(=O)Nc1cccc([N-]C(=O)c2c[n-]c(=O)[n-]c2=O)c1

> <Energy>
62.241539368406784

> <Genealogy>
CCOc1ccccc1C(=O)Nc1cccc([N-]C(=O)c2c[n-]c(=O)[n-]c2=O)c1 (protonated)
CCOc1ccccc1C(=O)Nc1cccc([N-]C(=O)c2c[n-]c(=O)[n-]c2=O)c1 (3D coordinates assigned)
CCOc1ccccc1C(=O)Nc1cccc([N-]C(=O)c2c[n-]c(=O)[n-]c2=O)c1 (optimized conformer: 62.241539368406784 kcal/mol)

> <smiles>
CCOc1ccccc1C(=O)Nc1cccc(NC(=O)c2c[nH]c(=O)[nH]c2=O)c1

> <score_type>
oracle

> <origin>
adg

> <m_score__min__energy>
-14.029999999999999

> <m_primary>
energy

> <minimizedAffinity>
-7.29837

> <minimizedRMSD>
1.54703

> <CNNscore>
0.1957153976

> <CNNaffinity>
6.0417809486

> <CNN_VS>
1.1824696064

> <CNNaffinity_variance>
0.0036008751

$$$$
20:0


 32 35  0  0  0  0  0  0  0  0999 V2000
   58.4727   30.7362   45.2342 C   0  0  0  0  0  0  0  0  0  0  0  0
   58.0574   31.3549   44.0473 C   0  0  0  0  0  0  0  0  0  0  0  0
   57.9385   32.7440   43.9855 C   0  0  0  0  0  0  0  0  0  0  0  0
   58.2384   33.5257   45.1037 C   0  0  0  0  0  0  0  0  0  0  0  0
   58.6659   32.9216   46.3008 C   0  0  0  0  0  0  0  0  0  0  0  0
   58.7814   31.5214   46.3535 C   0  0  0  0  0  0  0  0  0  0  0  0
   56.7794   28.6800   43.9195 C   0  0  0  0  0  0  0  0  0  0  0  0
   57.8121   28.3726   44.7198 C   0  0  0  0  0  0  0  0  0  0  0  0
   58.3179   27.0915   45.0033 C   0  0  0  0  0  0  0  0  0  0  0  0
   57.8334   25.8660   44.7239 C   0  0  0  0  0  0  0  0  0  0  0  0
   59.4930   27.2879   45.7099 C   0  0  0  0  0  0  0  0  0  0  0  0
   59.6354   28.6481   45.8841 C   0  0  0  0  0  0  0  0  0  0  0  0
   60.7587   29.3038   46.6280 C   0  0  0  0  0  0  0  0  0  0  0  0
   58.6118   29.3062   45.2957 N   0  0  0  0  0  0  0  0  0  0  0  0
   57.2730   24.9200   45.7022 C   0  0  0  0  0  0  0  0  0  0  0  0
   57.8404   23.7492   46.0503 N   0  0  0  0  0  0  0  0  0  0  0  0
   56.9100   23.1763   46.8441 C   0  0  0  0  0  0  0  0  0  0  0  0
   57.0814   22.0546   47.3878 O   0  0  0  0  0  0  0  0  0  0  0  0
   55.7755   23.8927   46.9973 N   0  0  0  0  0  0  0  0  0  0  0  0
   56.0187   24.9873   46.2566 C   0  0  0  0  0  0  0  0  0  0  0  0
   55.1081   26.0221   46.0841 O   0  0  0  0  0  0  0  0  0  0  0  0
   58.9889   33.7491   47.4886 C   0  0  0  0  0  0  0  0  0  0  0  0
   59.3034   34.9619   47.3465 O   0  0  0  0  0  0  0  0  0  0  0  0
   58.9457   33.1760   48.7979 N   0  0  0  0  0  0  0  0  0  0  0  0
   59.7819   32.0519   49.1990 C   0  0  0  0  0  0  0  0  0  0  0  0
   61.2245   32.4650   49.1543 C   0  0  0  0  0  0  0  0  0  0  0  0
   62.0532   32.0288   48.1084 C   0  0  0  0  0  0  0  0  0  0  0  0
   63.3883   32.4424   48.0503 C   0  0  0  0  0  0  0  0  0  0  0  0
   63.8994   33.3014   49.0265 C   0  0  0  0  0  0  0  0  0  0  0  0
   63.0752   33.7531   50.0607 C   0  0  0  0  0  0  0  0  0  0  0  0
   63.5708   34.5926   51.0034 F   0  0  0  0  0  0  0  0  0  0  0  0
   61.7399   33.3412   50.1235 C   0  0  0  0  0  0  0  0  0  0  0  0
  7  8  2  0
  8  9  1  0
  9 10  2  0
 10 15  1  0
 15 16  1  0
 16 17  1  0
 17 18  2  0
 17 19  1  0
 19 20  1  0
 20 21  1  0
  9 11  1  0
 11 12  2  0
 12 13  1  0
 12 14  1  0
 14  1  1  0
  1  2  2  0
  2  3  1  0
  3  4  2  0
  4  5  1  0
  5 22  1  0
 22 23  2  0
 22 24  1  0
 24 25  1  0
 25 26  1  0
 26 27  2  0
 27 28  1  0
 28 29  2  0
 29 30  1  0
 30 31  1  0
 30 32  2  0
  5  6  2  0
 14  8  1  0
  6  1  1  0
 20 15  2  0
 32 26  1  0
M  CHG 1  16  -1
M  CHG 1  19  -1
M  CHG 1  21  -1
M  CHG 1  24  -1
M  END
> <UniqueID>
19

> <SMILES>
C=c1c(=Cc2[n-]c(=O)[n-]c2[O-])cc(C)n1-c1cccc(C(=O)[N-]Cc2cccc(F)c2)c1

> <Energy>
126.52452766777061

> <Genealogy>
C=c1c(=Cc2[n-]c(=O)[n-]c2[O-])cc(C)n1-c1cccc(C(=O)[N-]Cc2cccc(F)c2)c1 (protonated)
C=c1c(=Cc2[n-]c(=O)[n-]c2[O-])cc(C)n1-c1cccc(C(=O)[N-]Cc2cccc(F)c2)c1 (3D coordinates assigned)
C=c1c(=Cc2[n-]c(=O)[n-]c2[O-])cc(C)n1-c1cccc(C(=O)[N-]Cc2cccc(F)c2)c1 (optimized conformer: 126.52452766777061 kcal/mol)

> <smiles>
C=c1c(=Cc2[nH]c(=O)[nH]c2O)cc(C)n1-c1cccc(C(=O)NCc2cccc(F)c2)c1

> <score_type>
oracle

> <origin>
adg

> <m_score__min__energy>
-17.960000000000001

> <m_primary>
energy

> <minimizedAffinity>
-8.94436

> <minimizedRMSD>
0.82061

> <CNNscore>
0.3530458808

> <CNNaffinity>
6.9563236237

> <CNN_VS>
2.4559013844

> <CNNaffinity_variance>
0.0352234580

$$$$
21:0


 30 33  0  0  0  0  0  0  0  0999 V2000
   57.8923   29.4404   55.0305 C   0  0  0  0  0  0  0  0  0  0  0  0
   56.9349   27.5600   53.9046 O   0  0  0  0  0  0  0  0  0  0  0  0
   56.7370   28.7076   54.3917 C   0  0  0  0  0  0  0  0  0  0  0  0
   55.4061   29.2671   54.3692 N   0  0  0  0  0  0  0  0  0  0  0  0
   54.8244   29.8517   55.5904 C   0  0  0  0  0  0  0  0  0  0  0  0
   53.2996   29.7618   55.5863 C   0  0  0  0  0  0  0  0  0  0  0  0
   52.7544   30.3487   54.3200 C   0  0  0  0  0  0  0  0  0  0  0  0
   51.5538   31.0764   54.3243 C   0  0  0  0  0  0  0  0  0  0  0  0
   51.0363   31.5877   53.1303 C   0  0  0  0  0  0  0  0  0  0  0  0
   49.8530   32.3140   53.1446 O   0  0  0  0  0  0  0  0  0  0  0  0
   51.7101   31.3615   51.9233 C   0  0  0  0  0  0  0  0  0  0  0  0
   51.1965   31.8623   50.7336 O   0  0  0  0  0  0  0  0  0  0  0  0
   52.8975   30.6236   51.9123 C   0  0  0  0  0  0  0  0  0  0  0  0
   53.4313   30.1207   53.1101 C   0  0  0  0  0  0  0  0  0  0  0  0
   54.6837   29.2776   53.0829 C   0  0  0  0  0  0  0  0  0  0  0  0
   58.2312   30.6963   54.2713 C   0  0  0  0  0  0  0  0  0  0  0  0
   58.5371   31.8759   54.9634 C   0  0  0  0  0  0  0  0  0  0  0  0
   58.8098   33.0531   54.2640 C   0  0  0  0  0  0  0  0  0  0  0  0
   58.7738   33.0705   52.8633 C   0  0  0  0  0  0  0  0  0  0  0  0
   59.0381   34.2555   52.1768 O   0  0  0  0  0  0  0  0  0  0  0  0
   58.4630   31.8910   52.1565 C   0  0  0  0  0  0  0  0  0  0  0  0
   58.1851   30.7132   52.8690 C   0  0  0  0  0  0  0  0  0  0  0  0
   59.2440   35.0364   52.6520 H   0  0  0  0  0  0  0  0  0  0  0  0
   58.3742   31.8755   50.6476 C   0  0  0  0  0  0  0  0  0  0  0  0
   59.7038   32.0955   50.0392 N   0  0  0  0  0  0  0  0  0  0  0  0
   60.3275   30.8181   49.6211 C   0  0  0  0  0  0  0  0  0  0  0  0
   61.3951   31.0551   48.5413 C   0  0  0  0  0  0  0  0  0  0  0  0
   60.8883   31.6477   47.3519 O   0  0  0  0  0  0  0  0  0  0  0  0
   59.7077   32.4104   47.5517 C   0  0  0  0  0  0  0  0  0  0  0  0
   59.6407   33.0840   48.9343 C   0  0  0  0  0  0  0  0  0  0  0  0
  2  3  2  0
  3  1  1  0
  1 16  1  0
 16 17  2  0
 17 18  1  0
 18 19  2  0
 19 20  1  0
 19 21  1  0
 21 24  1  0
 24 25  1  0
 25 26  1  0
 26 27  1  0
 27 28  1  0
 28 29  1  0
 29 30  1  0
 21 22  2  0
  3  4  1  0
  4  5  1  0
  5  6  1  0
  6  7  1  0
  7  8  2  0
  8  9  1  0
  9 10  1  0
  9 11  2  0
 11 12  1  0
 11 13  1  0
 13 14  2  0
 14 15  1  0
 22 16  1  0
 15  4  1  0
 30 25  1  0
 14  7  1  0
 20 23  1  0
M  CHG 1  10  -1
M  CHG 1  12  -1
M  END
> <UniqueID>
20

> <SMILES>
O=C(Cc1ccc(O)c(CN2CCOCC2)c1)N1CCc2cc([O-])c([O-])cc2C1

> <Energy>
72.82713332620123

> <Genealogy>
O=C(Cc1ccc(O)c(CN2CCOCC2)c1)N1CCc2cc([O-])c([O-])cc2C1 (protonated)
O=C(Cc1ccc(O)c(CN2CCOCC2)c1)N1CCc2cc([O-])c([O-])cc2C1 (3D coordinates assigned)
O=C(Cc1ccc(O)c(CN2CCOCC2)c1)N1CCc2cc([O-])c([O-])cc2C1 (nonaromatic ring conformer: 72.82713332620123 kcal/mol)

> <smiles>
O=C(Cc1ccc(O)c(CN2CCOCC2)c1)N1CCc2cc(O)c(O)cc2C1

> <score_type>
oracle

> <origin>
adg

> <m_score__min__energy>
-15.17

> <m_primary>
energy

> <minimizedAffinity>
-6.56307

> <minimizedRMSD>
1.33919

> <CNNscore>
0.0726448894

> <CNNaffinity>
4.0758795738

> <CNN_VS>
0.2960918248

> <CNNaffinity_variance>
0.5366249084

$$$$
23:0


 28 31  0  0  0  0  0  0  0  0999 V2000
   58.0482   28.7065   44.0854 C   0  0  0  0  0  0  0  0  0  0  0  0
   58.2771   28.2597   45.3304 C   0  0  0  0  0  0  0  0  0  0  0  0
   58.2032   26.9332   45.7653 C   0  0  0  0  0  0  0  0  0  0  0  0
   57.8582   25.8537   45.0385 C   0  0  0  0  0  0  0  0  0  0  0  0
   58.4987   26.9523   47.1237 C   0  0  0  0  0  0  0  0  0  0  0  0
   58.7570   28.2673   47.4540 C   0  0  0  0  0  0  0  0  0  0  0  0
   59.0940   28.7497   48.8320 C   0  0  0  0  0  0  0  0  0  0  0  0
   58.6123   29.0628   46.3704 N   0  0  0  0  0  0  0  0  0  0  0  0
   57.2106   24.6543   45.5986 C   0  0  0  0  0  0  0  0  0  0  0  0
   57.8730   23.5166   45.8714 N   0  0  0  0  0  0  0  0  0  0  0  0
   56.9313   22.7308   46.4367 C   0  0  0  0  0  0  0  0  0  0  0  0
   57.1698   21.5579   46.8238 O   0  0  0  0  0  0  0  0  0  0  0  0
   55.7164   23.3060   46.5659 N   0  0  0  0  0  0  0  0  0  0  0  0
   55.9114   24.5268   46.0422 C   0  0  0  0  0  0  0  0  0  0  0  0
   54.9363   25.5161   46.0166 O   0  0  0  0  0  0  0  0  0  0  0  0
   58.8038   30.4867   46.3415 C   0  0  0  0  0  0  0  0  0  0  0  0
   59.9094   31.0534   46.9902 C   0  0  0  0  0  0  0  0  0  0  0  0
   60.1262   32.4530   46.9868 C   0  0  0  0  0  0  0  0  0  0  0  0
   59.1776   33.2601   46.3135 C   0  0  0  0  0  0  0  0  0  0  0  0
   58.0771   32.6916   45.6659 C   0  0  0  0  0  0  0  0  0  0  0  0
   57.8901   31.3106   45.6730 C   0  0  0  0  0  0  0  0  0  0  0  0
   56.8002   30.7621   45.0083 O   0  0  0  0  0  0  0  0  0  0  0  0
   61.2807   33.0420   47.6600 N   0  0  0  0  0  0  0  0  0  0  0  0
   61.1193   33.5997   49.0211 C   0  0  0  0  0  0  0  0  0  0  0  0
   62.3904   34.2525   49.5714 C   0  0  0  0  0  0  0  0  0  0  0  0
   63.5366   33.5288   49.1944 O   0  0  0  0  0  0  0  0  0  0  0  0
   63.7145   33.6732   47.8052 C   0  0  0  0  0  0  0  0  0  0  0  0
   62.6152   32.9398   47.0326 C   0  0  0  0  0  0  0  0  0  0  0  0
  1  2  2  0
  2  3  1  0
  3  4  2  0
  4  9  1  0
  9 10  1  0
 10 11  1  0
 11 12  2  0
 11 13  1  0
 13 14  1  0
 14 15  1  0
  3  5  1  0
  5  6  2  0
  6  7  1  0
  6  8  1  0
  8 16  1  0
 16 17  2  0
 17 18  1  0
 18 23  1  0
 23 24  1  0
 24 25  1  0
 25 26  1  0
 26 27  1  0
 27 28  1  0
 18 19  2  0
 19 20  1  0
 20 21  2  0
 21 22  1  0
  8  2  1  0
 21 16  1  0
 14  9  2  0
 28 23  1  0
M  CHG 1  10  -1
M  CHG 1  13  -1
M  CHG 1  15  -1
M  CHG 1  22  -1
M  END
> <UniqueID>
22

> <SMILES>
C=c1c(=Cc2[n-]c(=O)[n-]c2[O-])cc(C)n1-c1cc(N2CCOCC2)ccc1[O-]

> <Energy>
128.5546102670638

> <Genealogy>
C=c1c(=Cc2[n-]c(=O)[n-]c2[O-])cc(C)n1-c1cc(N2CCOCC2)ccc1[O-] (protonated)
C=c1c(=Cc2[n-]c(=O)[n-]c2[O-])cc(C)n1-c1cc(N2CCOCC2)ccc1[O-] (3D coordinates assigned)
C=c1c(=Cc2[n-]c(=O)[n-]c2[O-])cc(C)n1-c1cc(N2CCOCC2)ccc1[O-] (nonaromatic ring conformer: 128.5546102670638 kcal/mol)

> <smiles>
C=c1c(=Cc2[nH]c(=O)[nH]c2O)cc(C)n1-c1cc(N2CCOCC2)ccc1O

> <score_type>
oracle

> <origin>
adg

> <m_score__min__energy>
-16.949999999999999

> <m_primary>
energy

> <minimizedAffinity>
-9.00751

> <minimizedRMSD>
0.73487

> <CNNscore>
0.3420534432

> <CNNaffinity>
6.9795837402

> <CNN_VS>
2.3873906136

> <CNNaffinity_variance>
0.4370402992

$$$$
36:0


 31 34  0  0  0  0  0  0  0  0999 V2000
   59.4493   31.4575   47.0114 C   0  0  0  0  0  0  0  0  0  0  0  0
   58.4793   32.4626   46.9343 C   0  0  0  0  0  0  0  0  0  0  0  0
   58.8504   33.8041   47.0262 C   0  0  0  0  0  0  0  0  0  0  0  0
   60.1910   34.1527   47.1993 C   0  0  0  0  0  0  0  0  0  0  0  0
   61.1813   33.1564   47.2869 C   0  0  0  0  0  0  0  0  0  0  0  0
   60.8003   31.8024   47.1867 C   0  0  0  0  0  0  0  0  0  0  0  0
   61.7258   30.8159   47.3014 F   0  0  0  0  0  0  0  0  0  0  0  0
   58.5156   30.0107   44.5862 C   0  0  0  0  0  0  0  0  0  0  0  0
   58.6564   29.4246   45.7851 C   0  0  0  0  0  0  0  0  0  0  0  0
   58.3825   28.0885   46.0949 C   0  0  0  0  0  0  0  0  0  0  0  0
   57.9898   27.1181   45.2462 C   0  0  0  0  0  0  0  0  0  0  0  0
   58.6487   27.9407   47.4507 C   0  0  0  0  0  0  0  0  0  0  0  0
   59.0671   29.1743   47.9085 C   0  0  0  0  0  0  0  0  0  0  0  0
   59.4629   29.4701   49.3232 C   0  0  0  0  0  0  0  0  0  0  0  0
   59.0612   30.0763   46.9024 N   0  0  0  0  0  0  0  0  0  0  0  0
   57.6029   25.7600   45.6699 C   0  0  0  0  0  0  0  0  0  0  0  0
   58.4354   24.7063   45.6151 N   0  0  0  0  0  0  0  0  0  0  0  0
   57.6583   23.6718   46.0049 C   0  0  0  0  0  0  0  0  0  0  0  0
   58.0928   22.4946   46.0966 O   0  0  0  0  0  0  0  0  0  0  0  0
   56.3768   23.9971   46.2791 N   0  0  0  0  0  0  0  0  0  0  0  0
   56.3537   25.3199   46.0503 C   0  0  0  0  0  0  0  0  0  0  0  0
   55.2044   26.0947   46.1415 O   0  0  0  0  0  0  0  0  0  0  0  0
   62.6083   33.5287   47.4612 C   0  0  0  0  0  0  0  0  0  0  0  0
   63.3366   33.6583   46.4365 O   0  0  0  0  0  0  0  0  0  0  0  0
   63.1410   33.8141   48.7800 N   0  0  0  0  0  0  0  0  0  0  0  0
   62.2499   33.4658   49.8965 C   0  0  0  0  0  0  0  0  0  0  0  0
   63.1919   32.3822   50.4055 C   0  0  0  0  0  0  0  0  0  0  0  0
   64.0854   32.7870   49.2411 C   0  0  0  0  0  0  0  0  0  0  0  0
   62.9820   34.2828   49.6310 H   0  0  0  0  0  0  0  0  0  0  0  0
   62.6721   31.0813   50.2233 O   0  0  0  0  0  0  0  0  0  0  0  0
   62.9319   30.3156   51.3770 C   0  0  0  0  0  0  0  0  0  0  0  0
  8  9  2  0
  9 10  1  0
 10 11  2  0
 11 16  1  0
 16 17  1  0
 17 18  1  0
 18 19  2  0
 18 20  1  0
 20 21  1  0
 21 22  1  0
 10 12  1  0
 12 13  2  0
 13 14  1  0
 13 15  1  0
 15  1  1  0
  1  2  2  0
  2  3  1  0
  3  4  2  0
  4  5  1  0
  5 23  1  0
 23 24  2  0
 25 23  1  0
 25 26  1  0
 26 27  1  0
 27 30  1  0
 30 31  1  0
 27 28  1  0
  5  6  2  0
  6  7  1  0
 15  9  1  0
  6  1  1  0
 21 16  2  0
 28 25  1  0
 25 29  1  0
M  CHG 1  17  -1
M  CHG 1  20  -1
M  CHG 1  22  -1
M  CHG 1  25   1
M  END
> <UniqueID>
35

> <SMILES>
C=c1/c(=C/c2[n-]c(=O)[n-]c2[O-])cc(C)n1-c1cccc(C(=O)[NH+]2CC(OC)C2)c1F

> <Energy>
202.43961311556532

> <Genealogy>
C=c1c(=Cc2[n-]c(=O)[n-]c2[O-])cc(C)n1-c1cccc(C(=O)[NH+]2CC(OC)C2)c1F (protonated)
C=c1/c(=C/c2[n-]c(=O)[n-]c2[O-])cc(C)n1-c1cccc(C(=O)[NH+]2CC(OC)C2)c1F (cis-trans isomerization)
C=c1/c(=C/c2[n-]c(=O)[n-]c2[O-])cc(C)n1-c1cccc(C(=O)[NH+]2CC(OC)C2)c1F (3D coordinates assigned)
C=c1/c(=C/c2[n-]c(=O)[n-]c2[O-])cc(C)n1-c1cccc(C(=O)[NH+]2CC(OC)C2)c1F (nonaromatic ring conformer: 202.43961311556532 kcal/mol)

> <smiles>
C=c1c(=Cc2[nH]c(=O)[nH]c2O)cc(C)n1-c1cccc(C(=O)N2CC(OC)C2)c1F

> <score_type>
oracle

> <origin>
adg

> <m_score__min__energy>
-14.83

> <m_primary>
energy

> <minimizedAffinity>
-9.29352

> <minimizedRMSD>
1.10288

> <CNNscore>
0.2556464076

> <CNNaffinity>
6.7515521049

> <CNN_VS>
1.7260100842

> <CNNaffinity_variance>
0.0241423566

$$$$
43:0


 28 30  0  0  0  0  0  0  0  0999 V2000
   58.3523   27.2098   43.6552 C   0  0  0  0  0  0  0  0  0  0  0  0
   58.6241   26.6945   44.8664 C   0  0  0  0  0  0  0  0  0  0  0  0
   58.1605   25.4734   45.3658 C   0  0  0  0  0  0  0  0  0  0  0  0
   57.3868   24.5702   44.7311 C   0  0  0  0  0  0  0  0  0  0  0  0
   58.7089   25.3377   46.6327 C   0  0  0  0  0  0  0  0  0  0  0  0
   59.4695   26.4677   46.8584 C   0  0  0  0  0  0  0  0  0  0  0  0
   60.2558   26.7239   48.1086 C   0  0  0  0  0  0  0  0  0  0  0  0
   59.4077   27.3025   45.7948 N   0  0  0  0  0  0  0  0  0  0  0  0
   56.2050   23.9272   45.3350 C   0  0  0  0  0  0  0  0  0  0  0  0
   55.9896   22.6003   45.3001 N   0  0  0  0  0  0  0  0  0  0  0  0
   54.7770   22.4654   45.8790 C   0  0  0  0  0  0  0  0  0  0  0  0
   54.2271   21.3442   46.0453 O   0  0  0  0  0  0  0  0  0  0  0  0
   54.1949   23.6227   46.2548 N   0  0  0  0  0  0  0  0  0  0  0  0
   55.1046   24.5418   45.8919 C   0  0  0  0  0  0  0  0  0  0  0  0
   54.9091   25.9100   46.0261 O   0  0  0  0  0  0  0  0  0  0  0  0
   60.1258   28.5789   45.6634 C   0  0  0  0  0  0  0  0  0  0  0  0
   59.1414   29.7524   45.7418 C   0  0  0  0  0  0  0  0  0  0  0  0
   59.2589   30.6764   44.5282 C   0  0  0  0  0  0  0  0  0  0  0  0
   57.9560   30.8600   43.9033 N   0  0  0  0  0  0  0  0  0  0  0  0
   56.7883   31.1854   44.6566 C   0  0  0  0  0  0  0  0  0  0  0  0
   55.8355   30.3630   44.6999 O   0  0  0  0  0  0  0  0  0  0  0  0
   56.6916   32.4339   45.2901 O   0  0  0  0  0  0  0  0  0  0  0  0
   57.7726   33.1800   45.7836 C   0  0  0  0  0  0  0  0  0  0  0  0
   58.1454   33.0062   47.1227 C   0  0  0  0  0  0  0  0  0  0  0  0
   59.2088   33.7349   47.6627 C   0  0  0  0  0  0  0  0  0  0  0  0
   59.9015   34.6543   46.8697 C   0  0  0  0  0  0  0  0  0  0  0  0
   59.5246   34.8515   45.5386 C   0  0  0  0  0  0  0  0  0  0  0  0
   58.4609   34.1221   44.9957 C   0  0  0  0  0  0  0  0  0  0  0  0
  1  2  2  0
  2  3  1  0
  3  4  2  0
  4  9  1  0
  9 10  1  0
 10 11  1  0
 11 12  2  0
 11 13  1  0
 13 14  1  0
 14 15  1  0
  3  5  1  0
  5  6  2  0
  6  7  1  0
  6  8  1  0
  8 16  1  0
 16 17  1  0
 17 18  1  0
 18 19  1  0
 19 20  1  0
 20 21  2  0
 20 22  1  0
 22 23  1  0
 23 24  2  0
 24 25  1  0
 25 26  2  0
 26 27  1  0
 27 28  2  0
  8  2  1  0
 28 23  1  0
 14  9  2  0
M  CHG 1  10  -1
M  CHG 1  13  -1
M  CHG 1  15  -1
M  CHG 1  19  -1
M  END
> <UniqueID>
41

> <SMILES>
C=c1/c(=C/c2[n-]c(=O)[n-]c2[O-])cc(C)n1CCC[N-]C(=O)Oc1ccccc1

> <Energy>
109.88675181195798

> <Genealogy>
C=c1c(=Cc2[n-]c(=O)[n-]c2[O-])cc(C)n1CCC[N-]C(=O)Oc1ccccc1 (protonated)
C=c1/c(=C/c2[n-]c(=O)[n-]c2[O-])cc(C)n1CCC[N-]C(=O)Oc1ccccc1 (cis-trans isomerization)
C=c1/c(=C/c2[n-]c(=O)[n-]c2[O-])cc(C)n1CCC[N-]C(=O)Oc1ccccc1 (3D coordinates assigned)
C=c1/c(=C/c2[n-]c(=O)[n-]c2[O-])cc(C)n1CCC[N-]C(=O)Oc1ccccc1 (optimized conformer: 109.88675181195798 kcal/mol)

> <smiles>
C=c1c(=Cc2[nH]c(=O)[nH]c2O)cc(C)n1CCCNC(=O)Oc1ccccc1

> <score_type>
oracle

> <origin>
adg

> <m_score__min__energy>
-17.02

> <m_primary>
energy

> <minimizedAffinity>
-7.01479

> <minimizedRMSD>
0.94424

> <CNNscore>
0.2383169681

> <CNNaffinity>
6.5187315941

> <CNN_VS>
1.5535243750

> <CNNaffinity_variance>
0.1662616432

$$$$
47:0


 32 35  0  0  0  0  0  0  0  0999 V2000
   58.1184   27.8403   43.8533 C   0  0  0  0  0  0  0  0  0  0  0  0
   58.2762   27.6333   45.1722 C   0  0  0  0  0  0  0  0  0  0  0  0
   58.3717   26.3994   45.8383 C   0  0  0  0  0  0  0  0  0  0  0  0
   58.1838   25.1389   45.3992 C   0  0  0  0  0  0  0  0  0  0  0  0
   58.7109   26.6915   47.1488 C   0  0  0  0  0  0  0  0  0  0  0  0
   58.7544   28.0647   47.2560 C   0  0  0  0  0  0  0  0  0  0  0  0
   59.0730   28.8096   48.5170 C   0  0  0  0  0  0  0  0  0  0  0  0
   58.4941   28.6391   46.0603 N   0  0  0  0  0  0  0  0  0  0  0  0
   56.9257   24.3730   45.4988 C   0  0  0  0  0  0  0  0  0  0  0  0
   55.7106   25.0103   45.8112 C   0  0  0  0  0  0  0  0  0  0  0  0
   55.6490   26.3755   46.0965 O   0  0  0  0  0  0  0  0  0  0  0  0
   54.5628   24.2858   45.8502 N   0  0  0  0  0  0  0  0  0  0  0  0
   54.5581   22.9551   45.5815 C   0  0  0  0  0  0  0  0  0  0  0  0
   53.4805   22.3078   45.6288 O   0  0  0  0  0  0  0  0  0  0  0  0
   55.7139   22.3223   45.2578 N   0  0  0  0  0  0  0  0  0  0  0  0
   56.8909   22.9980   45.2008 C   0  0  0  0  0  0  0  0  0  0  0  0
   57.9415   22.3819   44.8784 O   0  0  0  0  0  0  0  0  0  0  0  0
   56.4290   26.8942   46.0753 H   0  0  0  0  0  0  0  0  0  0  0  0
   58.4703   30.0534   45.7968 C   0  0  0  0  0  0  0  0  0  0  0  0
   57.6476   30.5725   44.7877 C   0  0  0  0  0  0  0  0  0  0  0  0
   57.6284   31.9445   44.5347 C   0  0  0  0  0  0  0  0  0  0  0  0
   58.4365   32.8082   45.2803 C   0  0  0  0  0  0  0  0  0  0  0  0
   59.2806   32.3019   46.2824 C   0  0  0  0  0  0  0  0  0  0  0  0
   59.2811   30.9212   46.5436 C   0  0  0  0  0  0  0  0  0  0  0  0
   60.1301   33.2096   47.0858 C   0  0  0  0  0  0  0  0  0  0  0  0
   59.7291   34.3851   47.3085 O   0  0  0  0  0  0  0  0  0  0  0  0
   61.4020   32.7877   47.6148 N   0  0  0  0  0  0  0  0  0  0  0  0
   61.6026   31.4100   48.0921 C   0  0  0  0  0  0  0  0  0  0  0  0
   62.3505   31.4276   49.4283 C   0  0  0  0  0  0  0  0  0  0  0  0
   63.6843   32.2019   49.3567 C   0  0  0  0  0  0  0  0  0  0  0  0
   63.8077   33.1152   48.1242 C   0  0  0  0  0  0  0  0  0  0  0  0
   62.4729   33.7829   47.7742 C   0  0  0  0  0  0  0  0  0  0  0  0
  1  2  2  0
  2  3  1  0
  3  4  2  0
  4  9  1  0
  9 10  2  0
 10 11  1  0
 10 12  1  0
 12 13  1  0
 13 14  2  0
 13 15  1  0
 15 16  1  0
 16 17  2  0
  3  5  1  0
  5  6  2  0
  6  7  1  0
  6  8  1  0
  8 19  1  0
 19 20  2  0
 20 21  1  0
 21 22  2  0
 22 23  1  0
 23 25  1  0
 25 26  2  0
 25 27  1  0
 27 28  1  0
 28 29  1  0
 29 30  1  0
 30 31  1  0
 31 32  1  0
 23 24  2  0
  8  2  1  0
 24 19  1  0
 16  9  1  0
 32 27  1  0
 11 18  1  0
M  CHG 1  12  -1
M  CHG 1  15  -1
M  END
> <UniqueID>
45

> <SMILES>
C=c1c(=Cc2c(O)[n-]c(=O)[n-]c2=O)cc(C)n1-c1cccc(C(=O)N2CCCCC2)c1

> <Energy>
110.63696126053163

> <Genealogy>
C=c1c(=Cc2c(O)[n-]c(=O)[n-]c2=O)cc(C)n1-c1cccc(C(=O)N2CCCCC2)c1 (protonated)
C=c1c(=Cc2c(O)[n-]c(=O)[n-]c2=O)cc(C)n1-c1cccc(C(=O)N2CCCCC2)c1 (3D coordinates assigned)
C=c1c(=Cc2c(O)[n-]c(=O)[n-]c2=O)cc(C)n1-c1cccc(C(=O)N2CCCCC2)c1 (nonaromatic ring conformer: 110.63696126053163 kcal/mol)

> <smiles>
C=c1c(=Cc2c(O)[nH]c(=O)[nH]c2=O)cc(C)n1-c1cccc(C(=O)N2CCCCC2)c1

> <score_type>
oracle

> <origin>
adg

> <m_score__min__energy>
-14.92

> <m_primary>
energy

> <minimizedAffinity>
-11.14221

> <minimizedRMSD>
0.68398

> <CNNscore>
0.3804107308

> <CNNaffinity>
7.0664043427

> <CNN_VS>
2.6881361008

> <CNNaffinity_variance>
0.0521984808

$$$$
51:0


 36 39  0  0  0  0  0  0  0  0999 V2000
   61.4880   31.1068   47.5250 C   0  0  0  0  0  0  0  0  0  0  0  0
   60.1552   31.0307   46.7722 C   0  0  0  0  0  0  0  0  0  0  0  0
   59.0773   30.2991   47.5827 C   0  0  0  0  0  0  0  0  0  0  0  0
   57.6538   29.0885   45.2271 C   0  0  0  0  0  0  0  0  0  0  0  0
   58.3661   28.3633   46.1054 C   0  0  0  0  0  0  0  0  0  0  0  0
   58.5826   26.9811   46.0509 C   0  0  0  0  0  0  0  0  0  0  0  0
   58.0724   26.1103   45.1593 C   0  0  0  0  0  0  0  0  0  0  0  0
   59.3891   26.6706   47.1358 C   0  0  0  0  0  0  0  0  0  0  0  0
   59.6438   27.8586   47.7943 C   0  0  0  0  0  0  0  0  0  0  0  0
   60.4728   27.9769   49.0372 C   0  0  0  0  0  0  0  0  0  0  0  0
   59.0120   28.8861   47.1812 N   0  0  0  0  0  0  0  0  0  0  0  0
   57.5336   24.7835   45.5139 C   0  0  0  0  0  0  0  0  0  0  0  0
   58.2863   23.6709   45.5594 N   0  0  0  0  0  0  0  0  0  0  0  0
   57.4288   22.7291   46.0098 C   0  0  0  0  0  0  0  0  0  0  0  0
   57.7673   21.5290   46.1760 O   0  0  0  0  0  0  0  0  0  0  0  0
   56.1849   23.1768   46.2779 N   0  0  0  0  0  0  0  0  0  0  0  0
   56.2689   24.4827   45.9716 C   0  0  0  0  0  0  0  0  0  0  0  0
   55.2273   25.3830   46.1558 O   0  0  0  0  0  0  0  0  0  0  0  0
   61.9280   32.4963   47.6784 N   0  0  0  0  0  0  0  0  0  0  0  0
   61.9805   32.9676   49.3536 S   0  0  0  0  0  0  0  0  0  0  0  0
   60.7234   32.5035   50.0327 O   0  0  0  0  0  0  0  0  0  0  0  0
   62.0615   34.4638   49.4740 O   0  0  0  0  0  0  0  0  0  0  0  0
   63.3662   32.2190   50.1421 C   0  0  0  0  0  0  0  0  0  0  0  0
   63.1949   31.1196   50.9949 C   0  0  0  0  0  0  0  0  0  0  0  0
   64.3001   30.5355   51.6213 C   0  0  0  0  0  0  0  0  0  0  0  0
   65.5933   31.0360   51.3945 C   0  0  0  0  0  0  0  0  0  0  0  0
   65.7567   32.1507   50.5540 C   0  0  0  0  0  0  0  0  0  0  0  0
   64.6508   32.7354   49.9313 C   0  0  0  0  0  0  0  0  0  0  0  0
   66.7622   30.4174   52.0624 C   0  0  0  0  0  0  0  0  0  0  0  0
   67.6416   31.1569   52.5843 O   0  0  0  0  0  0  0  0  0  0  0  0
   66.9243   28.9892   52.1050 N   0  0  0  0  0  0  0  0  0  0  0  0
   65.8601   28.1536   52.6696 C   0  0  0  0  0  0  0  0  0  0  0  0
   65.9558   26.7400   52.0893 C   0  0  0  0  0  0  0  0  0  0  0  0
   67.2591   26.2158   52.2558 O   0  0  0  0  0  0  0  0  0  0  0  0
   68.1843   26.9777   51.5025 C   0  0  0  0  0  0  0  0  0  0  0  0
   68.2677   28.4133   52.0337 C   0  0  0  0  0  0  0  0  0  0  0  0
  4  5  2  0
  5  6  1  0
  6  7  2  0
  7 12  1  0
 12 13  1  0
 13 14  1  0
 14 15  2  0
 14 16  1  0
 16 17  1  0
 17 18  1  0
  6  8  1  0
  8  9  2  0
  9 10  1  0
  9 11  1  0
 11  3  1  0
  3  2  1  0
  2  1  1  0
  1 19  1  0
 19 20  1  0
 20 21  2  0
 20 22  2  0
 20 23  1  0
 23 24  2  0
 24 25  1  0
 25 26  2  0
 26 29  1  0
 29 30  2  0
 29 31  1  0
 31 32  1  0
 32 33  1  0
 33 34  1  0
 34 35  1  0
 35 36  1  0
 26 27  1  0
 27 28  2  0
 11  5  1  0
 28 23  1  0
 17 12  2  0
 36 31  1  0
M  CHG 1  13  -1
M  CHG 1  16  -1
M  CHG 1  18  -1
M  CHG 1  19  -1
M  END
> <UniqueID>
49

> <SMILES>
C=c1c(=Cc2[n-]c(=O)[n-]c2[O-])cc(C)n1CCC[N-]S(=O)(=O)c1ccc(C(=O)N2CCOCC2)cc1

> <Energy>
129.6265130256204

> <Genealogy>
C=c1c(=Cc2[n-]c(=O)[n-]c2[O-])cc(C)n1CCC[N-]S(=O)(=O)c1ccc(C(=O)N2CCOCC2)cc1 (protonated)
C=c1c(=Cc2[n-]c(=O)[n-]c2[O-])cc(C)n1CCC[N-]S(=O)(=O)c1ccc(C(=O)N2CCOCC2)cc1 (3D coordinates assigned)
C=c1c(=Cc2[n-]c(=O)[n-]c2[O-])cc(C)n1CCC[N-]S(=O)(=O)c1ccc(C(=O)N2CCOCC2)cc1 (nonaromatic ring conformer: 129.6265130256204 kcal/mol)

> <smiles>
C=c1c(=Cc2[nH]c(=O)[nH]c2O)cc(C)n1CCCNS(=O)(=O)c1ccc(C(=O)N2CCOCC2)cc1

> <score_type>
oracle

> <origin>
adg

> <m_score__min__energy>
-17.66

> <m_primary>
energy

> <minimizedAffinity>
-8.30532

> <minimizedRMSD>
2.51134

> <CNNscore>
0.1617064625

> <CNNaffinity>
6.5805869102

> <CNN_VS>
1.0641233921

> <CNNaffinity_variance>
0.7871823311

$$$$
52:0


 30 33  0  0  0  0  0  0  0  0999 V2000
   56.9350   27.9523   44.8334 C   0  0  0  0  0  0  0  0  0  0  0  0
   57.8754   27.2106   45.4409 C   0  0  0  0  0  0  0  0  0  0  0  0
   58.0404   25.8271   45.3265 C   0  0  0  0  0  0  0  0  0  0  0  0
   57.3410   24.9795   44.5451 C   0  0  0  0  0  0  0  0  0  0  0  0
   59.1008   25.4888   46.1580 C   0  0  0  0  0  0  0  0  0  0  0  0
   59.5387   26.6637   46.7356 C   0  0  0  0  0  0  0  0  0  0  0  0
   60.6730   26.7614   47.7090 C   0  0  0  0  0  0  0  0  0  0  0  0
   58.7930   27.7076   46.3076 N   0  0  0  0  0  0  0  0  0  0  0  0
   56.3355   24.0293   45.0702 C   0  0  0  0  0  0  0  0  0  0  0  0
   55.2104   24.4683   45.7921 C   0  0  0  0  0  0  0  0  0  0  0  0
   55.0055   25.8205   46.0389 O   0  0  0  0  0  0  0  0  0  0  0  0
   54.2978   23.5661   46.2374 N   0  0  0  0  0  0  0  0  0  0  0  0
   54.4401   22.2408   45.9842 C   0  0  0  0  0  0  0  0  0  0  0  0
   53.5827   21.4247   46.4110 O   0  0  0  0  0  0  0  0  0  0  0  0
   55.5022   21.7957   45.2668 N   0  0  0  0  0  0  0  0  0  0  0  0
   56.4444   22.6558   44.7995 C   0  0  0  0  0  0  0  0  0  0  0  0
   57.4154   22.2065   44.1335 O   0  0  0  0  0  0  0  0  0  0  0  0
   58.9723   29.0820   46.6947 C   0  0  0  0  0  0  0  0  0  0  0  0
   59.0335   30.0876   45.7194 C   0  0  0  0  0  0  0  0  0  0  0  0
   59.2005   31.4230   46.0932 C   0  0  0  0  0  0  0  0  0  0  0  0
   59.2951   31.7720   47.4503 C   0  0  0  0  0  0  0  0  0  0  0  0
   59.2415   30.7636   48.4254 C   0  0  0  0  0  0  0  0  0  0  0  0
   59.0755   29.4274   48.0504 C   0  0  0  0  0  0  0  0  0  0  0  0
   59.5156   33.2041   47.8522 C   0  0  0  0  0  0  0  0  0  0  0  0
   60.9543   33.4212   48.2336 C   0  0  0  0  0  0  0  0  0  0  0  0
   61.2914   33.8139   49.5376 C   0  0  0  0  0  0  0  0  0  0  0  0
   62.6297   34.0470   49.8623 C   0  0  0  0  0  0  0  0  0  0  0  0
   63.5961   33.9024   48.9174 N   0  0  0  0  0  0  0  0  0  0  0  0
   63.2979   33.5334   47.6433 C   0  0  0  0  0  0  0  0  0  0  0  0
   61.9722   33.2904   47.2761 C   0  0  0  0  0  0  0  0  0  0  0  0
  1  2  2  0
  2  3  1  0
  3  4  2  0
  4  9  1  0
  9 10  2  0
 10 11  1  0
 10 12  1  0
 12 13  1  0
 13 14  2  0
 13 15  1  0
 15 16  1  0
 16 17  2  0
  3  5  1  0
  5  6  2  0
  6  7  1  0
  6  8  1  0
  8 18  1  0
 18 19  2  0
 19 20  1  0
 20 21  2  0
 21 24  1  0
 24 25  1  0
 25 26  2  0
 26 27  1  0
 27 28  2  0
 28 29  1  0
 29 30  2  0
 21 22  1  0
 22 23  2  0
  8  2  1  0
 23 18  1  0
 16  9  1  0
 30 25  1  0
M  CHG 1  11  -1
M  CHG 1  12  -1
M  CHG 1  15  -1
M  END
> <UniqueID>
50

> <SMILES>
C=c1/c(=C/c2c([O-])[n-]c(=O)[n-]c2=O)cc(C)n1-c1ccc(Cc2ccncc2)cc1

> <Energy>
96.05734587535544

> <Genealogy>
C=c1c(=Cc2c([O-])[n-]c(=O)[n-]c2=O)cc(C)n1-c1ccc(Cc2ccncc2)cc1 (protonated)
C=c1/c(=C/c2c([O-])[n-]c(=O)[n-]c2=O)cc(C)n1-c1ccc(Cc2ccncc2)cc1 (cis-trans isomerization)
C=c1/c(=C/c2c([O-])[n-]c(=O)[n-]c2=O)cc(C)n1-c1ccc(Cc2ccncc2)cc1 (3D coordinates assigned)
C=c1/c(=C/c2c([O-])[n-]c(=O)[n-]c2=O)cc(C)n1-c1ccc(Cc2ccncc2)cc1 (optimized conformer: 96.05734587535544 kcal/mol)

> <smiles>
C=c1c(=Cc2c(O)[nH]c(=O)[nH]c2=O)cc(C)n1-c1ccc(Cc2ccncc2)cc1

> <score_type>
oracle

> <origin>
adg

> <m_score__min__energy>
-16.050000000000001

> <m_primary>
energy

> <minimizedAffinity>
-8.87732

> <minimizedRMSD>
0.83910

> <CNNscore>
0.2574322820

> <CNNaffinity>
7.1893448830

> <CNN_VS>
1.8507694006

> <CNNaffinity_variance>
0.5790658593

$$$$
56:0


 30 33  0  0  0  0  0  0  0  0999 V2000
   59.2631   29.2478   44.3877 C   0  0  0  0  0  0  0  0  0  0  0  0
   59.0356   28.8433   45.6466 C   0  0  0  0  0  0  0  0  0  0  0  0
   58.5304   27.5992   46.0424 C   0  0  0  0  0  0  0  0  0  0  0  0
   58.1950   26.5653   45.2471 C   0  0  0  0  0  0  0  0  0  0  0  0
   58.5041   27.6134   47.4306 C   0  0  0  0  0  0  0  0  0  0  0  0
   58.9658   28.8530   47.8234 C   0  0  0  0  0  0  0  0  0  0  0  0
   59.1391   29.2874   49.2479 C   0  0  0  0  0  0  0  0  0  0  0  0
   59.2924   29.5982   46.7446 N   0  0  0  0  0  0  0  0  0  0  0  0
   59.8221   30.9351   46.7770 C   0  0  0  0  0  0  0  0  0  0  0  0
   61.1020   31.1683   47.3005 C   0  0  0  0  0  0  0  0  0  0  0  0
   61.6348   32.4672   47.3418 C   0  0  0  0  0  0  0  0  0  0  0  0
   60.8552   33.5387   46.8682 C   0  0  0  0  0  0  0  0  0  0  0  0
   59.5769   33.3111   46.3503 C   0  0  0  0  0  0  0  0  0  0  0  0
   58.6190   34.6649   45.7745 Cl  0  0  0  0  0  0  0  0  0  0  0  0
   59.0580   32.0123   46.3036 C   0  0  0  0  0  0  0  0  0  0  0  0
   57.8103   31.7956   45.8171 F   0  0  0  0  0  0  0  0  0  0  0  0
   62.9883   32.6956   47.9028 C   0  0  0  0  0  0  0  0  0  0  0  0
   63.8655   33.2641   47.1958 O   0  0  0  0  0  0  0  0  0  0  0  0
   63.3135   32.2933   49.2422 N   0  0  0  0  0  0  0  0  0  0  0  0
   62.6052   31.9329   49.8234 H   0  0  0  0  0  0  0  0  0  0  0  0
   64.6740   32.4081   49.7590 C   0  0  0  0  0  0  0  0  0  0  0  0
   64.7842   33.2534   51.0162 C   0  0  0  0  0  0  0  0  0  0  0  0
   64.8595   31.7380   51.1094 C   0  0  0  0  0  0  0  0  0  0  0  0
   57.6768   25.2767   45.7433 C   0  0  0  0  0  0  0  0  0  0  0  0
   58.4026   24.1458   45.7588 N   0  0  0  0  0  0  0  0  0  0  0  0
   57.5272   23.2171   46.2005 C   0  0  0  0  0  0  0  0  0  0  0  0
   57.8454   22.0097   46.3634 O   0  0  0  0  0  0  0  0  0  0  0  0
   56.2830   23.6800   46.4446 N   0  0  0  0  0  0  0  0  0  0  0  0
   56.3885   24.9833   46.1389 C   0  0  0  0  0  0  0  0  0  0  0  0
   55.3199   25.8693   46.1734 O   0  0  0  0  0  0  0  0  0  0  0  0
  1  2  2  0
  2  3  1  0
  3  4  2  0
  4 24  1  0
 24 25  1  0
 25 26  1  0
 26 27  2  0
 26 28  1  0
 28 29  1  0
 29 30  1  0
  3  5  1  0
  5  6  2  0
  6  7  1  0
  6  8  1  0
  8  9  1  0
  9 10  2  0
 10 11  1  0
 11 17  1  0
 17 18  2  0
 17 19  1  0
 19 21  1  0
 21 22  1  0
 22 23  1  0
 11 12  2  0
 12 13  1  0
 13 14  1  0
 13 15  2  0
 15 16  1  0
  8  2  1  0
 15  9  1  0
 29 24  2  0
 23 21  1  0
 19 20  1  0
M  CHG 1  25  -1
M  CHG 1  28  -1
M  CHG 1  30  -1
M  END
> <UniqueID>
54

> <SMILES>
C=c1/c(=C/c2[n-]c(=O)[n-]c2[O-])cc(C)n1-c1cc(C(=O)NC2CC2)cc(Cl)c1F

> <Energy>
383.44775577717627

> <Genealogy>
C=c1c(=Cc2[n-]c(=O)[n-]c2[O-])cc(C)n1-c1cc(C(=O)NC2CC2)cc(Cl)c1F (protonated)
C=c1/c(=C/c2[n-]c(=O)[n-]c2[O-])cc(C)n1-c1cc(C(=O)NC2CC2)cc(Cl)c1F (cis-trans isomerization)
C=c1/c(=C/c2[n-]c(=O)[n-]c2[O-])cc(C)n1-c1cc(C(=O)NC2CC2)cc(Cl)c1F (3D coordinates assigned)
C=c1/c(=C/c2[n-]c(=O)[n-]c2[O-])cc(C)n1-c1cc(C(=O)NC2CC2)cc(Cl)c1F (nonaromatic ring conformer: 383.44775577717627 kcal/mol)

> <smiles>
C=c1c(=Cc2[nH]c(=O)[nH]c2O)cc(C)n1-c1cc(C(=O)NC2CC2)cc(Cl)c1F

> <score_type>
oracle

> <origin>
adg

> <m_score__min__energy>
-15.869999999999999

> <m_primary>
energy

> <minimizedAffinity>
-8.85248

> <minimizedRMSD>
0.96184

> <CNNscore>
0.4954324663

> <CNNaffinity>
7.4989066124

> <CNN_VS>
3.7152018547

> <CNNaffinity_variance>
0.1418590546

$$$$
60:0


 31 34  0  0  0  0  0  0  0  0999 V2000
   58.6576   29.5352   53.0970 C   0  0  0  0  0  0  0  0  0  0  0  0
   59.4649   29.3909   54.2345 C   0  0  0  0  0  0  0  0  0  0  0  0
   60.8535   29.3191   54.1052 C   0  0  0  0  0  0  0  0  0  0  0  0
   61.4421   29.3851   52.8402 C   0  0  0  0  0  0  0  0  0  0  0  0
   60.6441   29.5199   51.7011 C   0  0  0  0  0  0  0  0  0  0  0  0
   59.2433   29.5945   51.8219 C   0  0  0  0  0  0  0  0  0  0  0  0
   56.8782   31.8687   52.6987 C   0  0  0  0  0  0  0  0  0  0  0  0
   56.4158   30.6406   52.9739 C   0  0  0  0  0  0  0  0  0  0  0  0
   55.0813   30.2643   53.1985 C   0  0  0  0  0  0  0  0  0  0  0  0
   53.9287   30.9278   52.9824 C   0  0  0  0  0  0  0  0  0  0  0  0
   55.1210   28.9658   53.6835 C   0  0  0  0  0  0  0  0  0  0  0  0
   56.4423   28.5717   53.6611 C   0  0  0  0  0  0  0  0  0  0  0  0
   56.9359   27.2044   54.0214 C   0  0  0  0  0  0  0  0  0  0  0  0
   57.2266   29.5843   53.2342 N   0  0  0  0  0  0  0  0  0  0  0  0
   53.0829   30.8052   51.7828 C   0  0  0  0  0  0  0  0  0  0  0  0
   53.2335   29.8678   50.8299 N   0  0  0  0  0  0  0  0  0  0  0  0
   52.1628   30.0617   50.0294 C   0  0  0  0  0  0  0  0  0  0  0  0
   51.9556   29.3729   48.9970 O   0  0  0  0  0  0  0  0  0  0  0  0
   51.3261   31.0424   50.4300 N   0  0  0  0  0  0  0  0  0  0  0  0
   51.9164   31.4924   51.5491 C   0  0  0  0  0  0  0  0  0  0  0  0
   51.3963   32.5063   52.3439 O   0  0  0  0  0  0  0  0  0  0  0  0
   58.4028   29.7128   50.7068 O   0  0  0  0  0  0  0  0  0  0  0  0
   58.6263   30.5987   49.6143 C   0  0  0  0  0  0  0  0  0  0  0  0
   59.5122   29.9146   48.5726 C   0  0  0  0  0  0  0  0  0  0  0  0
   58.8410   29.8521   47.2745 N   0  0  0  0  0  0  0  0  0  0  0  0
   58.3569   28.6303   46.6382 C   0  0  0  0  0  0  0  0  0  0  0  0
   57.8161   29.0618   45.2502 C   0  0  0  0  0  0  0  0  0  0  0  0
   58.0529   30.4986   45.1652 N   0  0  0  0  0  0  0  0  0  0  0  0
   57.7762   31.3413   44.0108 C   0  0  0  0  0  0  0  0  0  0  0  0
   58.6404   30.9230   46.3749 C   0  0  0  0  0  0  0  0  0  0  0  0
   58.9443   32.1201   46.6248 O   0  0  0  0  0  0  0  0  0  0  0  0
  7  8  2  0
  8  9  1  0
  9 10  2  0
 10 15  1  0
 15 16  1  0
 16 17  1  0
 17 18  2  0
 17 19  1  0
 19 20  1  0
 20 21  1  0
  9 11  1  0
 11 12  2  0
 12 13  1  0
 12 14  1  0
 14  1  1  0
  1  2  2  0
  2  3  1  0
  3  4  2  0
  4  5  1  0
  5  6  2  0
  6 22  1  0
 22 23  1  0
 23 24  1  0
 24 25  1  0
 25 26  1  0
 26 27  1  0
 27 28  1  0
 28 29  1  0
 28 30  1  0
 30 31  2  0
 14  8  1  0
  6  1  1  0
 30 25  1  0
 20 15  2  0
M  CHG 1  16  -1
M  CHG 1  19  -1
M  CHG 1  21  -1
M  END
> <UniqueID>
57

> <SMILES>
C=c1c(=Cc2[n-]c(=O)[n-]c2[O-])cc(C)n1-c1ccccc1OCCN1CCN(C)C1=O

> <Energy>
132.57850785097406

> <Genealogy>
C=c1c(=Cc2[n-]c(=O)[n-]c2[O-])cc(C)n1-c1ccccc1OCCN1CCN(C)C1=O (protonated)
C=c1c(=Cc2[n-]c(=O)[n-]c2[O-])cc(C)n1-c1ccccc1OCCN1CCN(C)C1=O (3D coordinates assigned)
C=c1c(=Cc2[n-]c(=O)[n-]c2[O-])cc(C)n1-c1ccccc1OCCN1CCN(C)C1=O (nonaromatic ring conformer: 132.57850785097406 kcal/mol)

> <smiles>
C=c1c(=Cc2[nH]c(=O)[nH]c2O)cc(C)n1-c1ccccc1OCCN1CCN(C)C1=O

> <score_type>
oracle

> <origin>
adg

> <m_score__min__energy>
-16.649999999999999

> <m_primary>
energy

> <minimizedAffinity>
-5.40336

> <minimizedRMSD>
1.54206

> <CNNscore>
0.0481889471

> <CNNaffinity>
5.3036036491

> <CNN_VS>
0.2555750906

> <CNNaffinity_variance>
0.2431553155

$$$$
63:0


 30 32  0  0  0  0  0  0  0  0999 V2000
   59.5176   28.4974   45.8288 S   0  0  0  0  0  0  0  0  0  0  0  0
   58.6287   29.5647   45.2532 O   0  0  0  0  0  0  0  0  0  0  0  0
   60.6710   28.2954   44.8858 O   0  0  0  0  0  0  0  0  0  0  0  0
   57.1483   24.5897   46.1184 C   0  0  0  0  0  0  0  0  0  0  0  0
   58.5512   24.5660   46.0482 C   0  0  0  0  0  0  0  0  0  0  0  0
   59.2745   25.7606   45.9861 C   0  0  0  0  0  0  0  0  0  0  0  0
   58.6048   26.9918   45.9581 C   0  0  0  0  0  0  0  0  0  0  0  0
   57.2043   27.0153   46.0119 C   0  0  0  0  0  0  0  0  0  0  0  0
   56.4802   25.8220   46.0844 C   0  0  0  0  0  0  0  0  0  0  0  0
   55.0898   25.8657   46.1275 O   0  0  0  0  0  0  0  0  0  0  0  0
   56.3801   23.3784   46.1433 N   0  0  0  0  0  0  0  0  0  0  0  0
   54.0503   23.3401   45.2555 N   0  0  0  0  0  0  0  0  0  0  0  0
   55.4255   22.9641   45.1602 C   0  0  0  0  0  0  0  0  0  0  0  0
   55.8189   22.3049   44.1618 O   0  0  0  0  0  0  0  0  0  0  0  0
   53.4104   23.0442   44.5684 H   0  0  0  0  0  0  0  0  0  0  0  0
   53.7428   23.8950   46.0083 H   0  0  0  0  0  0  0  0  0  0  0  0
   60.1236   29.0272   47.3830 N   0  0  0  0  0  0  0  0  0  0  0  0
   61.2768   29.9431   47.2509 C   0  0  0  0  0  0  0  0  0  0  0  0
   60.8878   31.4367   47.2822 C   0  0  0  0  0  0  0  0  0  0  0  0
   59.9217   31.7956   48.3540 N   0  0  0  0  0  0  0  0  0  0  0  0
   59.4937   30.6473   49.1694 C   0  0  0  0  0  0  0  0  0  0  0  0
   59.0329   29.5187   48.2493 C   0  0  0  0  0  0  0  0  0  0  0  0
   60.3994   32.9033   49.2079 C   0  0  0  0  0  0  0  0  0  0  0  0
   59.8372   34.2535   48.7351 C   0  0  0  0  0  0  0  0  0  0  0  0
   59.2077   34.1441   47.3704 C   0  0  0  0  0  0  0  0  0  0  0  0
   58.0043   33.4429   47.2014 C   0  0  0  0  0  0  0  0  0  0  0  0
   57.4466   33.3300   45.9256 C   0  0  0  0  0  0  0  0  0  0  0  0
   58.0706   33.8941   44.8562 N   0  0  0  0  0  0  0  0  0  0  0  0
   59.2394   34.5738   44.9903 C   0  0  0  0  0  0  0  0  0  0  0  0
   59.8338   34.7071   46.2476 C   0  0  0  0  0  0  0  0  0  0  0  0
 12 13  1  0
 13 14  2  0
 13 11  1  0
 11  4  1  0
  4  5  2  0
  5  6  1  0
  6  7  2  0
  7  1  1  0
  1  2  2  0
  1  3  2  0
  1 17  1  0
 17 18  1  0
 18 19  1  0
 19 20  1  0
 20 23  1  0
 23 24  1  0
 24 25  1  0
 25 26  2  0
 26 27  1  0
 27 28  2  0
 28 29  1  0
 29 30  2  0
 20 21  1  0
 21 22  1  0
  7  8  1  0
  8  9  2  0
  9 10  1  0
  9  4  1  0
 22 17  1  0
 30 25  1  0
 12 15  1  0
 12 16  1  0
M  CHG 1  10  -1
M  CHG 1  11  -1
M  END
> <UniqueID>
60

> <SMILES>
NC(=O)[N-]c1ccc(S(=O)(=O)N2CCN(CCc3ccncc3)CC2)cc1[O-]

> <Energy>
61.50019711649124

> <Genealogy>
NC(=O)[N-]c1ccc(S(=O)(=O)N2CCN(CCc3ccncc3)CC2)cc1[O-] (protonated)
NC(=O)[N-]c1ccc(S(=O)(=O)N2CCN(CCc3ccncc3)CC2)cc1[O-] (3D coordinates assigned)
NC(=O)[N-]c1ccc(S(=O)(=O)N2CCN(CCc3ccncc3)CC2)cc1[O-] (nonaromatic ring conformer: 61.50019711649124 kcal/mol)

> <smiles>
NC(=O)Nc1ccc(S(=O)(=O)N2CCN(CCc3ccncc3)CC2)cc1O

> <score_type>
oracle

> <origin>
adg

> <m_score__min__energy>
-14.08

> <m_primary>
energy

> <minimizedAffinity>
-7.00557

> <minimizedRMSD>
0.63983

> <CNNscore>
0.1508803666

> <CNNaffinity>
6.1356563568

> <CNN_VS>
0.9257500768

> <CNNaffinity_variance>
0.0439480655

$$$$
75:0


 28 30  0  0  0  0  0  0  0  0999 V2000
   59.6483   27.4800   48.0085 C   0  0  0  0  0  0  0  0  0  0  0  0
   58.9880   27.7475   46.8705 C   0  0  0  0  0  0  0  0  0  0  0  0
   58.7951   26.8725   45.7882 C   0  0  0  0  0  0  0  0  0  0  0  0
   58.9993   25.5463   45.6750 C   0  0  0  0  0  0  0  0  0  0  0  0
   58.2930   27.6421   44.7547 C   0  0  0  0  0  0  0  0  0  0  0  0
   58.1269   28.9185   45.2484 C   0  0  0  0  0  0  0  0  0  0  0  0
   57.5834   30.0683   44.4537 C   0  0  0  0  0  0  0  0  0  0  0  0
   58.5344   28.9871   46.5374 N   0  0  0  0  0  0  0  0  0  0  0  0
   57.9695   24.5062   45.8287 C   0  0  0  0  0  0  0  0  0  0  0  0
   58.2069   23.1814   45.7977 N   0  0  0  0  0  0  0  0  0  0  0  0
   57.0102   22.6431   46.1192 C   0  0  0  0  0  0  0  0  0  0  0  0
   56.8209   21.4008   46.1816 O   0  0  0  0  0  0  0  0  0  0  0  0
   56.0365   23.5414   46.3801 N   0  0  0  0  0  0  0  0  0  0  0  0
   56.6643   24.7149   46.2052 C   0  0  0  0  0  0  0  0  0  0  0  0
   56.0597   25.9503   46.3908 O   0  0  0  0  0  0  0  0  0  0  0  0
   58.5882   30.2073   47.3550 C   0  0  0  0  0  0  0  0  0  0  0  0
   59.7834   31.0282   46.9850 C   0  0  0  0  0  0  0  0  0  0  0  0
   59.6501   32.0179   46.2157 O   0  0  0  0  0  0  0  0  0  0  0  0
   61.0725   30.6663   47.4942 N   0  0  0  0  0  0  0  0  0  0  0  0
   61.9875   31.5245   48.1925 C   0  0  0  0  0  0  0  0  0  0  0  0
   62.8904   32.3502   47.4978 C   0  0  0  0  0  0  0  0  0  0  0  0
   63.7810   33.1691   48.1965 C   0  0  0  0  0  0  0  0  0  0  0  0
   63.7749   33.1790   49.5919 C   0  0  0  0  0  0  0  0  0  0  0  0
   62.8666   32.3850   50.2928 C   0  0  0  0  0  0  0  0  0  0  0  0
   61.9577   31.5665   49.6034 C   0  0  0  0  0  0  0  0  0  0  0  0
   61.0194   30.7677   50.3450 N   0  0  0  0  0  0  0  0  0  0  0  0
   59.7017   31.3015   50.6948 C   0  0  0  0  0  0  0  0  0  0  0  0
   61.3466   29.3762   50.6543 C   0  0  0  0  0  0  0  0  0  0  0  0
  1  2  2  0
  2  3  1  0
  3  4  2  0
  4  9  1  0
  9 10  1  0
 10 11  1  0
 11 12  2  0
 11 13  1  0
 13 14  1  0
 14 15  1  0
  3  5  1  0
  5  6  2  0
  6  7  1  0
  6  8  1  0
  8 16  1  0
 16 17  1  0
 17 18  2  0
 17 19  1  0
 19 20  1  0
 20 21  2  0
 21 22  1  0
 22 23  2  0
 23 24  1  0
 24 25  2  0
 25 26  1  0
 26 27  1  0
 26 28  1  0
  8  2  1  0
 25 20  1  0
 14  9  2  0
M  CHG 1  10  -1
M  CHG 1  13  -1
M  CHG 1  15  -1
M  CHG 1  19  -1
M  END
> <UniqueID>
72

> <SMILES>
C=c1/c(=C\c2[n-]c(=O)[n-]c2[O-])cc(C)n1CC(=O)[N-]c1ccccc1N(C)C

> <Energy>
121.91890300994267

> <Genealogy>
C=c1c(=Cc2[n-]c(=O)[n-]c2[O-])cc(C)n1CC(=O)[N-]c1ccccc1N(C)C (protonated)
C=c1/c(=C\c2[n-]c(=O)[n-]c2[O-])cc(C)n1CC(=O)[N-]c1ccccc1N(C)C (cis-trans isomerization)
C=c1/c(=C\c2[n-]c(=O)[n-]c2[O-])cc(C)n1CC(=O)[N-]c1ccccc1N(C)C (3D coordinates assigned)
C=c1/c(=C\c2[n-]c(=O)[n-]c2[O-])cc(C)n1CC(=O)[N-]c1ccccc1N(C)C (optimized conformer: 121.91890300994267 kcal/mol)

> <smiles>
C=c1c(=Cc2[nH]c(=O)[nH]c2O)cc(C)n1CC(=O)Nc1ccccc1N(C)C

> <score_type>
oracle

> <origin>
adg

> <m_score__min__energy>
-16.82

> <m_primary>
energy

> <minimizedAffinity>
-7.34931

> <minimizedRMSD>
2.52907

> <CNNscore>
0.1272641569

> <CNNaffinity>
6.2818207741

> <CNN_VS>
0.7994506359

> <CNNaffinity_variance>
0.1190085411

$$$$
86:0


 33 36  0  0  0  0  0  0  0  0999 V2000
   59.2073   29.0175   47.7098 C   0  0  0  0  0  0  0  0  0  0  0  0
   58.4760   28.7963   46.6059 C   0  0  0  0  0  0  0  0  0  0  0  0
   58.0042   27.5601   46.1304 C   0  0  0  0  0  0  0  0  0  0  0  0
   57.9806   26.3421   46.7085 C   0  0  0  0  0  0  0  0  0  0  0  0
   57.4950   27.7998   44.8649 C   0  0  0  0  0  0  0  0  0  0  0  0
   57.6065   29.1554   44.6388 C   0  0  0  0  0  0  0  0  0  0  0  0
   57.1573   29.8469   43.3870 C   0  0  0  0  0  0  0  0  0  0  0  0
   58.1991   29.7609   45.6907 N   0  0  0  0  0  0  0  0  0  0  0  0
   57.3934   25.1242   46.1129 C   0  0  0  0  0  0  0  0  0  0  0  0
   56.0120   25.0194   45.8794 C   0  0  0  0  0  0  0  0  0  0  0  0
   55.1522   26.0646   46.2069 O   0  0  0  0  0  0  0  0  0  0  0  0
   55.5036   23.8894   45.3219 N   0  0  0  0  0  0  0  0  0  0  0  0
   56.3127   22.8614   44.9603 C   0  0  0  0  0  0  0  0  0  0  0  0
   55.8199   21.8188   44.4565 O   0  0  0  0  0  0  0  0  0  0  0  0
   57.6550   22.9583   45.1336 N   0  0  0  0  0  0  0  0  0  0  0  0
   58.2118   24.0662   45.6883 C   0  0  0  0  0  0  0  0  0  0  0  0
   59.4616   24.1303   45.8178 O   0  0  0  0  0  0  0  0  0  0  0  0
   58.4829   31.1678   45.8021 C   0  0  0  0  0  0  0  0  0  0  0  0
   58.0412   32.0580   44.8196 C   0  0  0  0  0  0  0  0  0  0  0  0
   58.3401   33.4179   44.9156 C   0  0  0  0  0  0  0  0  0  0  0  0
   59.0832   33.9117   45.9996 C   0  0  0  0  0  0  0  0  0  0  0  0
   59.3846   35.3867   46.0674 C   0  0  0  0  0  0  0  0  0  0  0  0
   59.5419   33.0128   46.9936 C   0  0  0  0  0  0  0  0  0  0  0  0
   59.2243   31.6489   46.8885 C   0  0  0  0  0  0  0  0  0  0  0  0
   60.3607   33.4718   48.1399 C   0  0  0  0  0  0  0  0  0  0  0  0
   59.7778   33.9658   49.1452 O   0  0  0  0  0  0  0  0  0  0  0  0
   61.8076   33.3414   48.1194 N   0  0  0  0  0  0  0  0  0  0  0  0
   62.2279   31.9161   48.1365 C   0  0  0  0  0  0  0  0  0  0  0  0
   62.6357   31.4312   49.5414 C   0  0  0  0  0  0  0  0  0  0  0  0
   61.8787   32.0955   50.5275 O   0  0  0  0  0  0  0  0  0  0  0  0
   62.2622   33.4590   50.5969 C   0  0  0  0  0  0  0  0  0  0  0  0
   62.4322   34.1268   49.2080 C   0  0  0  0  0  0  0  0  0  0  0  0
   62.3540   34.1603   48.1239 H   0  0  0  0  0  0  0  0  0  0  0  0
  1  2  2  0
  2  3  1  0
  3  4  2  0
  4  9  1  0
  9 10  2  0
 10 11  1  0
 10 12  1  0
 12 13  1  0
 13 14  2  0
 13 15  1  0
 15 16  1  0
 16 17  2  0
  3  5  1  0
  5  6  2  0
  6  7  1  0
  6  8  1  0
  8 18  1  0
 18 19  2  0
 19 20  1  0
 20 21  2  0
 21 22  1  0
 21 23  1  0
 23 25  1  0
 25 26  2  0
 25 27  1  0
 27 28  1  0
 28 29  1  0
 29 30  1  0
 30 31  1  0
 31 32  1  0
 23 24  2  0
  8  2  1  0
 24 18  1  0
 16  9  1  0
 32 27  1  0
 27 33  1  0
M  CHG 1  11  -1
M  CHG 1  12  -1
M  CHG 1  15  -1
M  CHG 1  27   1
M  END
> <UniqueID>
83

> <SMILES>
C=c1/c(=C\c2c([O-])[n-]c(=O)[n-]c2=O)cc(C)n1-c1ccc(C)c(C(=O)[NH+]2CCOCC2)c1

> <Energy>
125.30548730445801

> <Genealogy>
C=c1c(=Cc2c([O-])[n-]c(=O)[n-]c2=O)cc(C)n1-c1ccc(C)c(C(=O)[NH+]2CCOCC2)c1 (protonated)
C=c1/c(=C\c2c([O-])[n-]c(=O)[n-]c2=O)cc(C)n1-c1ccc(C)c(C(=O)[NH+]2CCOCC2)c1 (cis-trans isomerization)
C=c1/c(=C\c2c([O-])[n-]c(=O)[n-]c2=O)cc(C)n1-c1ccc(C)c(C(=O)[NH+]2CCOCC2)c1 (3D coordinates assigned)
C=c1/c(=C\c2c([O-])[n-]c(=O)[n-]c2=O)cc(C)n1-c1ccc(C)c(C(=O)[NH+]2CCOCC2)c1 (nonaromatic ring conformer: 125.30548730445801 kcal/mol)

> <smiles>
C=c1c(=Cc2c(O)[nH]c(=O)[nH]c2=O)cc(C)n1-c1ccc(C)c(C(=O)N2CCOCC2)c1

> <score_type>
oracle

> <origin>
adg

> <m_score__min__energy>
-15.75

> <m_primary>
energy

> <minimizedAffinity>
-10.08448

> <minimizedRMSD>
0.95852

> <CNNscore>
0.3141074777

> <CNNaffinity>
6.9095330238

> <CNN_VS>
2.1703360081

> <CNNaffinity_variance>
0.0371110775

$$$$
90:0


 32 35  0  0  0  0  0  0  0  0999 V2000
   60.4111   29.7845   48.4149 C   0  0  0  0  0  0  0  0  0  0  0  0
   60.7838   29.0744   49.3919 O   0  0  0  0  0  0  0  0  0  0  0  0
   59.7842   29.1134   47.2539 C   0  0  0  0  0  0  0  0  0  0  0  0
   58.5873   28.4227   47.2910 C   0  0  0  0  0  0  0  0  0  0  0  0
   58.3769   27.9150   46.0192 C   0  0  0  0  0  0  0  0  0  0  0  0
   57.3193   27.1423   45.7046 C   0  0  0  0  0  0  0  0  0  0  0  0
   59.4523   28.3697   45.2406 C   0  0  0  0  0  0  0  0  0  0  0  0
   59.6167   28.2701   43.9172 C   0  0  0  0  0  0  0  0  0  0  0  0
   60.3078   29.0701   46.0126 N   0  0  0  0  0  0  0  0  0  0  0  0
   61.1573   29.4749   45.7232 H   0  0  0  0  0  0  0  0  0  0  0  0
   57.2331   25.6874   45.8959 C   0  0  0  0  0  0  0  0  0  0  0  0
   58.2938   24.8638   45.8250 N   0  0  0  0  0  0  0  0  0  0  0  0
   57.7418   23.6349   45.9254 C   0  0  0  0  0  0  0  0  0  0  0  0
   58.4289   22.5812   45.9155 O   0  0  0  0  0  0  0  0  0  0  0  0
   56.3948   23.6240   46.0237 N   0  0  0  0  0  0  0  0  0  0  0  0
   56.0877   24.9297   45.9885 C   0  0  0  0  0  0  0  0  0  0  0  0
   54.7856   25.4168   46.0127 O   0  0  0  0  0  0  0  0  0  0  0  0
   59.6882   31.8659   47.5659 C   0  0  0  0  0  0  0  0  0  0  0  0
   59.9373   33.0326   46.9259 C   0  0  0  0  0  0  0  0  0  0  0  0
   61.3311   33.6239   46.8761 C   0  0  0  0  0  0  0  0  0  0  0  0
   62.2737   33.0116   47.9137 C   0  0  0  0  0  0  0  0  0  0  0  0
   62.0560   31.5000   47.9832 C   0  0  0  0  0  0  0  0  0  0  0  0
   60.6699   31.2090   48.4074 N   0  0  0  0  0  0  0  0  0  0  0  0
   60.3365   31.4981   47.5273 H   0  0  0  0  0  0  0  0  0  0  0  0
   58.8423   33.6913   46.1190 C   0  0  0  0  0  0  0  0  0  0  0  0
   58.2327   32.7110   45.1530 C   0  0  0  0  0  0  0  0  0  0  0  0
   57.4701   31.6304   45.6285 C   0  0  0  0  0  0  0  0  0  0  0  0
   56.8734   30.7399   44.7309 C   0  0  0  0  0  0  0  0  0  0  0  0
   57.0272   30.9249   43.3543 C   0  0  0  0  0  0  0  0  0  0  0  0
   56.4460   30.0607   42.4856 F   0  0  0  0  0  0  0  0  0  0  0  0
   57.7764   32.0017   42.8725 C   0  0  0  0  0  0  0  0  0  0  0  0
   58.3748   32.8945   43.7671 C   0  0  0  0  0  0  0  0  0  0  0  0
 18 19  2  0
 19 25  1  0
 25 26  1  0
 26 27  2  0
 27 28  1  0
 28 29  2  0
 29 30  1  0
 29 31  1  0
 31 32  2  0
 19 20  1  0
 20 21  1  0
 21 22  1  0
 22 23  1  0
 23  1  1  0
  1  2  2  0
  1  3  1  0
  3  4  2  0
  4  5  1  0
  5  6  2  0
  6 11  1  0
 11 12  1  0
 12 13  1  0
 13 14  2  0
 13 15  1  0
 15 16  1  0
 16 17  1  0
  5  7  1  0
  7  8  2  0
  7  9  1  0
 23 18  1  0
  9  3  1  0
 32 26  1  0
 16 11  2  0
 23 24  1  0
  9 10  1  0
M  CHG 1  12  -1
M  CHG 1  15  -1
M  CHG 1  17  -1
M  CHG 1  23   1
M  END
> <UniqueID>
86

> <SMILES>
C=c1[nH]c(C(=O)[N@@H+]2C=C(Cc3ccc(F)cc3)CCC2)c/c1=C/c1[n-]c(=O)[n-]c1[O-]

> <Energy>
122.84118896984643

> <Genealogy>
C=c1[nH]c(C(=O)[NH+]2C=C(Cc3ccc(F)cc3)CCC2)cc1=Cc1[n-]c(=O)[n-]c1[O-] (protonated)
C=c1[nH]c(C(=O)[N@@H+]2C=C(Cc3ccc(F)cc3)CCC2)cc1=Cc1[n-]c(=O)[n-]c1[O-] (chirality)
C=c1[nH]c(C(=O)[N@@H+]2C=C(Cc3ccc(F)cc3)CCC2)c/c1=C/c1[n-]c(=O)[n-]c1[O-] (cis-trans isomerization)
C=c1[nH]c(C(=O)[N@@H+]2C=C(Cc3ccc(F)cc3)CCC2)c/c1=C/c1[n-]c(=O)[n-]c1[O-] (3D coordinates assigned)
C=c1[nH]c(C(=O)[N@@H+]2C=C(Cc3ccc(F)cc3)CCC2)c/c1=C/c1[n-]c(=O)[n-]c1[O-] (nonaromatic ring conformer: 122.84118896984643 kcal/mol)

> <smiles>
C=c1[nH]c(C(=O)N2C=C(Cc3ccc(F)cc3)CCC2)cc1=Cc1[nH]c(=O)[nH]c1O

> <score_type>
oracle

> <origin>
adg

> <m_score__min__energy>
-18.23

> <m_primary>
energy

> <minimizedAffinity>
-7.89409

> <minimizedRMSD>
0.85595

> <CNNscore>
0.1776565611

> <CNNaffinity>
6.8464713097

> <CNN_VS>
1.2163205147

> <CNNaffinity_variance>
0.0165724587

$$$$
92:0


 30 32  0  0  0  0  0  0  0  0999 V2000
   58.2618   26.5007   44.6038 C   0  0  0  0  0  0  0  0  0  0  0  0
   58.0160   27.8222   44.6424 C   0  0  0  0  0  0  0  0  0  0  0  0
   56.7608   28.2967   44.4782 N   0  0  0  0  0  0  0  0  0  0  0  0
   56.8764   29.6243   44.6590 C   0  0  0  0  0  0  0  0  0  0  0  0
   55.8899   30.4073   44.6038 O   0  0  0  0  0  0  0  0  0  0  0  0
   58.1380   30.0312   44.9071 N   0  0  0  0  0  0  0  0  0  0  0  0
   58.8824   28.9011   44.8747 C   0  0  0  0  0  0  0  0  0  0  0  0
   60.2238   28.8895   44.9225 C   0  0  0  0  0  0  0  0  0  0  0  0
   55.5154   26.6991   45.9755 O   0  0  0  0  0  0  0  0  0  0  0  0
   56.3839   25.6161   46.0714 C   0  0  0  0  0  0  0  0  0  0  0  0
   56.1428   24.5398   46.8386 N   0  0  0  0  0  0  0  0  0  0  0  0
   57.2409   23.7798   46.6391 C   0  0  0  0  0  0  0  0  0  0  0  0
   57.4047   22.6653   47.2001 O   0  0  0  0  0  0  0  0  0  0  0  0
   58.1535   24.3130   45.8013 N   0  0  0  0  0  0  0  0  0  0  0  0
   57.5891   25.4754   45.4205 C   0  0  0  0  0  0  0  0  0  0  0  0
   54.7140   26.7014   46.4609 H   0  0  0  0  0  0  0  0  0  0  0  0
   58.5727   31.4113   45.1645 C   0  0  0  0  0  0  0  0  0  0  0  0
   58.6361   31.6969   46.6695 C   0  0  0  0  0  0  0  0  0  0  0  0
   60.0551   31.9378   47.1300 C   0  0  0  0  0  0  0  0  0  0  0  0
   60.6769   33.1584   46.8146 C   0  0  0  0  0  0  0  0  0  0  0  0
   61.9777   33.4213   47.2427 C   0  0  0  0  0  0  0  0  0  0  0  0
   62.6700   32.4738   47.9936 C   0  0  0  0  0  0  0  0  0  0  0  0
   62.0626   31.2621   48.3288 C   0  0  0  0  0  0  0  0  0  0  0  0
   60.7454   30.9799   47.9066 C   0  0  0  0  0  0  0  0  0  0  0  0
   60.0812   29.7858   48.2443 O   0  0  0  0  0  0  0  0  0  0  0  0
   60.6537   28.6268   48.8545 C   0  0  0  0  0  0  0  0  0  0  0  0
   59.9935   27.3500   48.3340 C   0  0  0  0  0  0  0  0  0  0  0  0
   59.9383   26.4170   49.3534 F   0  0  0  0  0  0  0  0  0  0  0  0
   58.7045   27.6318   47.9170 F   0  0  0  0  0  0  0  0  0  0  0  0
   60.9027   26.6487   46.9723 Cl  0  0  0  0  0  0  0  0  0  0  0  0
  9 10  1  0
 10 11  1  0
 11 12  1  0
 12 13  2  0
 12 14  1  0
 14 15  1  0
 15  1  1  0
  1  2  2  0
  2  3  1  0
  3  4  1  0
  4  5  2  0
  4  6  1  0
  6 17  1  0
 17 18  1  0
 18 19  1  0
 19 20  2  0
 20 21  1  0
 21 22  2  0
 22 23  1  0
 23 24  2  0
 24 25  1  0
 25 26  1  0
 26 27  1  0
 27 28  1  0
 27 29  1  0
 27 30  1  0
  6  7  1  0
  7  8  2  0
 15 10  2  0
  7  2  1  0
 24 19  1  0
  9 16  1  0
M  CHG 1   3  -1
M  CHG 1  11  -1
M  CHG 1  14  -1
M  END
> <UniqueID>
88

> <SMILES>
C=c1/c(=C\c2[n-]c(=O)[n-]c2O)[n-]c(=O)n1CCc1ccccc1OCC(F)(F)Cl

> <Energy>
112.78078407251225

> <Genealogy>
C=c1c(=Cc2[n-]c(=O)[n-]c2O)[n-]c(=O)n1CCc1ccccc1OCC(F)(F)Cl (protonated)
C=c1/c(=C\c2[n-]c(=O)[n-]c2O)[n-]c(=O)n1CCc1ccccc1OCC(F)(F)Cl (cis-trans isomerization)
C=c1/c(=C\c2[n-]c(=O)[n-]c2O)[n-]c(=O)n1CCc1ccccc1OCC(F)(F)Cl (3D coordinates assigned)
C=c1/c(=C\c2[n-]c(=O)[n-]c2O)[n-]c(=O)n1CCc1ccccc1OCC(F)(F)Cl (optimized conformer: 112.78078407251225 kcal/mol)

> <smiles>
C=c1c(=Cc2[nH]c(=O)[nH]c2O)[nH]c(=O)n1CCc1ccccc1OCC(F)(F)Cl

> <score_type>
oracle

> <origin>
adg

> <m_score__min__energy>
-14.529999999999999

> <m_primary>
energy

> <minimizedAffinity>
-7.74914

> <minimizedRMSD>
0.59180

> <CNNscore>
0.3607925773

> <CNNaffinity>
6.5280990601

> <CNN_VS>
2.3552896976

> <CNNaffinity_variance>
0.0330455378

$$$$
8:0


 26 28  0  0  0  0  0  0  0  0999 V2000
   53.0513   28.2921   54.8777 C   0  0  0  0  0  0  0  0  0  0  0  0
   54.1794   28.5930   54.2071 C   0  0  0  0  0  0  0  0  0  0  0  0
   54.3755   29.8345   53.5281 C   0  0  0  0  0  0  0  0  0  0  0  0
   53.3746   30.6877   53.1702 C   0  0  0  0  0  0  0  0  0  0  0  0
   55.7111   30.1766   53.1928 C   0  0  0  0  0  0  0  0  0  0  0  0
   55.9653   31.3177   52.7103 O   0  0  0  0  0  0  0  0  0  0  0  0
   56.7306   29.2730   53.3536 N   0  0  0  0  0  0  0  0  0  0  0  0
   56.4720   28.0405   53.8876 C   0  0  0  0  0  0  0  0  0  0  0  0
   57.3991   27.1966   54.0327 O   0  0  0  0  0  0  0  0  0  0  0  0
   55.2200   27.7174   54.2984 N   0  0  0  0  0  0  0  0  0  0  0  0
   55.0580   26.8221   54.6744 H   0  0  0  0  0  0  0  0  0  0  0  0
   52.6808   30.7190   51.8671 C   0  0  0  0  0  0  0  0  0  0  0  0
   52.8638   29.7931   50.9105 N   0  0  0  0  0  0  0  0  0  0  0  0
   51.9737   30.1465   49.9588 C   0  0  0  0  0  0  0  0  0  0  0  0
   51.8515   29.5139   48.8766 O   0  0  0  0  0  0  0  0  0  0  0  0
   51.2154   31.2214   50.2604 N   0  0  0  0  0  0  0  0  0  0  0  0
   51.6646   31.5648   51.4780 C   0  0  0  0  0  0  0  0  0  0  0  0
   51.1351   32.6086   52.2283 O   0  0  0  0  0  0  0  0  0  0  0  0
   58.1144   29.6420   52.9862 C   0  0  0  0  0  0  0  0  0  0  0  0
   58.8707   30.1537   54.2148 C   0  0  0  0  0  0  0  0  0  0  0  0
   59.0557   31.6451   54.1427 C   0  0  0  0  0  0  0  0  0  0  0  0
   59.2086   32.3981   55.3185 C   0  0  0  0  0  0  0  0  0  0  0  0
   59.3471   33.7877   55.2523 C   0  0  0  0  0  0  0  0  0  0  0  0
   59.3239   34.4354   54.0136 C   0  0  0  0  0  0  0  0  0  0  0  0
   59.1590   33.6939   52.8396 C   0  0  0  0  0  0  0  0  0  0  0  0
   59.0201   32.3044   52.9027 C   0  0  0  0  0  0  0  0  0  0  0  0
  1  2  2  0
  2  3  1  0
  3  4  2  0
  4 12  1  0
 12 13  1  0
 13 14  1  0
 14 15  2  0
 14 16  1  0
 16 17  1  0
 17 18  1  0
  3  5  1  0
  5  6  2  0
  5  7  1  0
  7 19  1  0
 19 20  1  0
 20 21  1  0
 21 22  2  0
 22 23  1  0
 23 24  2  0
 24 25  1  0
 25 26  2  0
  7  8  1  0
  8  9  2  0
  8 10  1  0
 10  2  1  0
 17 12  2  0
 26 21  1  0
 10 11  1  0
M  CHG 1  13  -1
M  CHG 1  16  -1
M  CHG 1  18  -1
M  END
> <UniqueID>
8

> <SMILES>
C=c1[nH]c(=O)n(CCc2ccccc2)c(=O)/c1=C/c1[n-]c(=O)[n-]c1[O-]

> <Energy>
95.15767127338674

> <Genealogy>
C=c1[nH]c(=O)n(CCc2ccccc2)c(=O)c1=Cc1[n-]c(=O)[n-]c1[O-] (protonated)
C=c1[nH]c(=O)n(CCc2ccccc2)c(=O)/c1=C/c1[n-]c(=O)[n-]c1[O-] (cis-trans isomerization)
C=c1[nH]c(=O)n(CCc2ccccc2)c(=O)/c1=C/c1[n-]c(=O)[n-]c1[O-] (3D coordinates assigned)
C=c1[nH]c(=O)n(CCc2ccccc2)c(=O)/c1=C/c1[n-]c(=O)[n-]c1[O-] (optimized conformer: 95.15767127338674 kcal/mol)

> <smiles>
C=c1[nH]c(=O)n(CCc2ccccc2)c(=O)c1=Cc1[nH]c(=O)[nH]c1O

> <score_type>
oracle

> <origin>
adg

> <m_score__min__energy>
-16.100000000000001

> <m_primary>
energy

> <minimizedAffinity>
-4.58009

> <minimizedRMSD>
1.19612

> <CNNscore>
0.1098250076

> <CNNaffinity>
4.5467820168

> <CNN_VS>
0.4993503690

> <CNNaffinity_variance>
0.1659740359

$$$$
11:0


 34 36  0  0  0  0  0  0  0  0999 V2000
   56.6682   22.6427   48.2753 C   0  0  0  0  0  0  0  0  0  0  0  0
   55.2837   22.1595   47.9205 C   0  0  0  0  0  0  0  0  0  0  0  0
   54.3440   22.3219   48.7410 O   0  0  0  0  0  0  0  0  0  0  0  0
   54.9949   21.5483   46.6551 N   0  0  0  0  0  0  0  0  0  0  0  0
   55.5511   21.9149   45.3792 C   0  0  0  0  0  0  0  0  0  0  0  0
   56.5079   21.0923   44.7558 C   0  0  0  0  0  0  0  0  0  0  0  0
   57.0287   21.4271   43.5019 C   0  0  0  0  0  0  0  0  0  0  0  0
   56.6010   22.5915   42.8654 C   0  0  0  0  0  0  0  0  0  0  0  0
   55.6324   23.4083   43.4617 C   0  0  0  0  0  0  0  0  0  0  0  0
   55.0863   23.0755   44.7121 C   0  0  0  0  0  0  0  0  0  0  0  0
   54.0030   23.9263   45.2717 C   0  0  0  0  0  0  0  0  0  0  0  0
   54.2882   24.9025   46.0158 O   0  0  0  0  0  0  0  0  0  0  0  0
   52.6241   23.6107   45.0315 N   0  0  0  0  0  0  0  0  0  0  0  0
   52.1450   23.5574   43.6386 C   0  0  0  0  0  0  0  0  0  0  0  0
   50.6216   23.3895   43.5642 C   0  0  0  0  0  0  0  0  0  0  0  0
   50.1634   22.4892   44.5488 O   0  0  0  0  0  0  0  0  0  0  0  0
   50.3142   23.0897   45.8169 C   0  0  0  0  0  0  0  0  0  0  0  0
   51.7956   23.2250   46.1823 C   0  0  0  0  0  0  0  0  0  0  0  0
   56.8188   24.0505   47.9187 N   0  0  0  0  0  0  0  0  0  0  0  0
   57.6741   24.5193   46.8699 C   0  0  0  0  0  0  0  0  0  0  0  0
   58.3044   23.6894   46.1598 O   0  0  0  0  0  0  0  0  0  0  0  0
   58.1739   28.7218   46.1033 C   0  0  0  0  0  0  0  0  0  0  0  0
   58.7542   28.1369   47.2362 C   0  0  0  0  0  0  0  0  0  0  0  0
   58.5790   26.7725   47.4964 C   0  0  0  0  0  0  0  0  0  0  0  0
   57.8226   25.9702   46.6217 C   0  0  0  0  0  0  0  0  0  0  0  0
   57.2229   26.5684   45.4980 C   0  0  0  0  0  0  0  0  0  0  0  0
   57.3933   27.9341   45.2433 C   0  0  0  0  0  0  0  0  0  0  0  0
   58.4188   30.4355   45.7805 S   0  0  0  0  0  0  0  0  0  0  0  0
   59.4066   30.5676   44.6560 O   0  0  0  0  0  0  0  0  0  0  0  0
   57.1271   31.0675   45.3452 O   0  0  0  0  0  0  0  0  0  0  0  0
   59.0439   31.2665   47.1764 N   0  0  0  0  0  0  0  0  0  0  0  0
   60.7389   32.9997   47.0523 C   0  0  0  0  0  0  0  0  0  0  0  0
   60.4872   31.4953   47.0905 C   0  0  0  0  0  0  0  0  0  0  0  0
   61.2013   30.8758   48.2990 C   0  0  0  0  0  0  0  0  0  0  0  0
 32 33  1  0
 33 34  1  0
 33 31  1  0
 31 28  1  0
 28 29  2  0
 28 30  2  0
 28 22  1  0
 22 23  2  0
 23 24  1  0
 24 25  2  0
 25 20  1  0
 20 21  2  0
 20 19  1  0
 19  1  1  0
  1  2  1  0
  2  3  2  0
  2  4  1  0
  4  5  1  0
  5  6  2  0
  6  7  1  0
  7  8  2  0
  8  9  1  0
  9 10  2  0
 10 11  1  0
 11 12  2  0
 11 13  1  0
 13 14  1  0
 14 15  1  0
 15 16  1  0
 16 17  1  0
 17 18  1  0
 25 26  1  0
 26 27  2  0
 27 22  1  0
 10  5  1  0
 18 13  1  0
M  CHG 1   4  -1
M  CHG 1  19  -1
M  CHG 1  31  -1
M  END
> <UniqueID>
11

> <SMILES>
CC(C)[N-]S(=O)(=O)c1ccc(C(=O)[N-]CC(=O)[N-]c2ccccc2C(=O)N2CCOCC2)cc1

> <Energy>
70.77055470890734

> <Genealogy>
CC(C)[N-]S(=O)(=O)c1ccc(C(=O)[N-]CC(=O)[N-]c2ccccc2C(=O)N2CCOCC2)cc1 (protonated)
CC(C)[N-]S(=O)(=O)c1ccc(C(=O)[N-]CC(=O)[N-]c2ccccc2C(=O)N2CCOCC2)cc1 (3D coordinates assigned)
CC(C)[N-]S(=O)(=O)c1ccc(C(=O)[N-]CC(=O)[N-]c2ccccc2C(=O)N2CCOCC2)cc1 (nonaromatic ring conformer: 70.77055470890734 kcal/mol)

> <smiles>
CC(C)NS(=O)(=O)c1ccc(C(=O)NCC(=O)Nc2ccccc2C(=O)N2CCOCC2)cc1

> <score_type>
oracle

> <origin>
adg

> <m_score__min__energy>
-14.890000000000001

> <m_primary>
energy

> <minimizedAffinity>
-5.87653

> <minimizedRMSD>
1.63725

> <CNNscore>
0.3117996454

> <CNNaffinity>
6.1547775269

> <CNN_VS>
1.9190574884

> <CNNaffinity_variance>
0.0463835895

$$$$
17:0


 27 29  0  0  0  0  0  0  0  0999 V2000
   59.3382   30.1531   47.9253 C   0  0  0  0  0  0  0  0  0  0  0  0
   58.9892   30.7935   46.7959 C   0  0  0  0  0  0  0  0  0  0  0  0
   58.8242   30.2263   45.5199 C   0  0  0  0  0  0  0  0  0  0  0  0
   59.1032   28.9920   45.0526 C   0  0  0  0  0  0  0  0  0  0  0  0
   58.2838   31.2177   44.7223 C   0  0  0  0  0  0  0  0  0  0  0  0
   58.1886   32.3521   45.4996 C   0  0  0  0  0  0  0  0  0  0  0  0
   57.6304   33.6586   45.0217 C   0  0  0  0  0  0  0  0  0  0  0  0
   58.6292   32.1058   46.7553 N   0  0  0  0  0  0  0  0  0  0  0  0
   58.5953   27.7238   45.6114 C   0  0  0  0  0  0  0  0  0  0  0  0
   57.2203   27.4330   45.6263 C   0  0  0  0  0  0  0  0  0  0  0  0
   56.3001   28.3199   45.0784 O   0  0  0  0  0  0  0  0  0  0  0  0
   56.7796   26.2764   46.1853 N   0  0  0  0  0  0  0  0  0  0  0  0
   57.6447   25.3970   46.7512 C   0  0  0  0  0  0  0  0  0  0  0  0
   57.2139   24.3301   47.2600 O   0  0  0  0  0  0  0  0  0  0  0  0
   58.9747   25.6709   46.7740 N   0  0  0  0  0  0  0  0  0  0  0  0
   59.4657   26.8128   46.2277 C   0  0  0  0  0  0  0  0  0  0  0  0
   60.7048   27.0377   46.2737 O   0  0  0  0  0  0  0  0  0  0  0  0
   58.6025   33.0651   47.8713 C   0  0  0  0  0  0  0  0  0  0  0  0
   59.9011   33.8095   47.9492 C   0  0  0  0  0  0  0  0  0  0  0  0
   60.1149   34.7682   47.1590 O   0  0  0  0  0  0  0  0  0  0  0  0
   60.9030   33.4207   48.9007 N   0  0  0  0  0  0  0  0  0  0  0  0
   60.7063   32.6897   49.5300 H   0  0  0  0  0  0  0  0  0  0  0  0
   62.2131   34.0820   48.9627 C   0  0  0  0  0  0  0  0  0  0  0  0
   63.2264   33.3700   48.0718 C   0  0  0  0  0  0  0  0  0  0  0  0
   63.8434   32.2765   48.9341 C   0  0  0  0  0  0  0  0  0  0  0  0
   63.5893   32.6670   50.3890 C   0  0  0  0  0  0  0  0  0  0  0  0
   62.7992   33.9706   50.3651 C   0  0  0  0  0  0  0  0  0  0  0  0
  1  2  2  0
  2  3  1  0
  3  4  2  0
  4  9  1  0
  9 10  2  0
 10 11  1  0
 10 12  1  0
 12 13  1  0
 13 14  2  0
 13 15  1  0
 15 16  1  0
 16 17  2  0
  3  5  1  0
  5  6  2  0
  6  7  1  0
  6  8  1  0
  8 18  1  0
 18 19  1  0
 19 20  2  0
 19 21  1  0
 21 23  1  0
 23 24  1  0
 24 25  1  0
 25 26  1  0
 26 27  1  0
  8  2  1  0
 27 23  1  0
 16  9  1  0
 21 22  1  0
M  CHG 1  11  -1
M  CHG 1  12  -1
M  CHG 1  15  -1
M  END
> <UniqueID>
16

> <SMILES>
C=c1/c(=C\c2c([O-])[n-]c(=O)[n-]c2=O)cc(C)n1CC(=O)NC1CCCC1

> <Energy>
85.89935146241139

> <Genealogy>
C=c1c(=Cc2c([O-])[n-]c(=O)[n-]c2=O)cc(C)n1CC(=O)NC1CCCC1 (protonated)
C=c1/c(=C\c2c([O-])[n-]c(=O)[n-]c2=O)cc(C)n1CC(=O)NC1CCCC1 (cis-trans isomerization)
C=c1/c(=C\c2c([O-])[n-]c(=O)[n-]c2=O)cc(C)n1CC(=O)NC1CCCC1 (3D coordinates assigned)
C=c1/c(=C\c2c([O-])[n-]c(=O)[n-]c2=O)cc(C)n1CC(=O)NC1CCCC1 (nonaromatic ring conformer: 85.89935146241139 kcal/mol)

> <smiles>
C=c1c(=Cc2c(O)[nH]c(=O)[nH]c2=O)cc(C)n1CC(=O)NC1CCCC1

> <score_type>
oracle

> <origin>
adg

> <m_score__min__energy>
-16.57

> <m_primary>
energy

> <minimizedAffinity>
-7.70932

> <minimizedRMSD>
1.17800

> <CNNscore>
0.2526143193

> <CNNaffinity>
6.4883418083

> <CNN_VS>
1.6390480995

> <CNNaffinity_variance>
0.1406121999

$$$$
19:0


 37 41  0  0  0  0  0  0  0  0999 V2000
   58.5152   29.6916   53.1687 C   0  0  0  0  0  0  0  0  0  0  0  0
   59.2541   29.8321   54.3493 C   0  0  0  0  0  0  0  0  0  0  0  0
   60.6526   29.8150   54.3096 C   0  0  0  0  0  0  0  0  0  0  0  0
   61.3261   29.6575   53.0868 C   0  0  0  0  0  0  0  0  0  0  0  0
   60.5805   29.5553   51.9012 C   0  0  0  0  0  0  0  0  0  0  0  0
   59.1845   29.5676   51.9402 C   0  0  0  0  0  0  0  0  0  0  0  0
   58.4792   29.4646   50.7856 F   0  0  0  0  0  0  0  0  0  0  0  0
   53.7473   30.9587   52.9370 C   0  0  0  0  0  0  0  0  0  0  0  0
   54.9150   30.3115   53.1191 C   0  0  0  0  0  0  0  0  0  0  0  0
   54.9800   29.0203   53.6194 C   0  0  0  0  0  0  0  0  0  0  0  0
   56.3125   28.6708   53.6602 C   0  0  0  0  0  0  0  0  0  0  0  0
   56.8394   27.3488   54.1293 C   0  0  0  0  0  0  0  0  0  0  0  0
   57.0785   29.6895   53.2146 N   0  0  0  0  0  0  0  0  0  0  0  0
   56.2445   30.7086   52.8827 C   0  0  0  0  0  0  0  0  0  0  0  0
   56.6841   31.8957   52.4319 C   0  0  0  0  0  0  0  0  0  0  0  0
   51.2624   32.6050   52.2602 O   0  0  0  0  0  0  0  0  0  0  0  0
   51.7542   31.5547   51.4900 C   0  0  0  0  0  0  0  0  0  0  0  0
   51.2108   31.1501   50.3292 N   0  0  0  0  0  0  0  0  0  0  0  0
   52.0290   30.1391   49.9560 C   0  0  0  0  0  0  0  0  0  0  0  0
   51.8542   29.4826   48.8953 O   0  0  0  0  0  0  0  0  0  0  0  0
   53.0485   29.8882   50.8056 N   0  0  0  0  0  0  0  0  0  0  0  0
   52.8550   30.7896   51.7869 C   0  0  0  0  0  0  0  0  0  0  0  0
   50.5018   33.0751   51.9803 H   0  0  0  0  0  0  0  0  0  0  0  0
   62.8025   29.6298   53.0374 C   0  0  0  0  0  0  0  0  0  0  0  0
   63.3809   29.9261   51.9571 O   0  0  0  0  0  0  0  0  0  0  0  0
   63.5862   29.2486   54.1866 N   0  0  0  0  0  0  0  0  0  0  0  0
   63.1324   28.1470   55.0481 C   0  0  0  0  0  0  0  0  0  0  0  0
   64.3089   27.5052   55.8022 C   0  0  0  0  0  0  0  0  0  0  0  0
   65.5236   27.2396   54.8605 C   0  0  0  0  0  0  0  0  0  0  0  0
   65.9381   28.5647   54.1264 C   0  0  0  0  0  0  0  0  0  0  0  0
   64.9634   29.7324   54.3312 C   0  0  0  0  0  0  0  0  0  0  0  0
   65.2879   26.1446   53.8692 N   0  0  0  0  0  0  0  0  0  0  0  0
   64.6196   26.6053   52.6209 C   0  0  0  0  0  0  0  0  0  0  0  0
   64.0765   25.4349   51.7921 C   0  0  0  0  0  0  0  0  0  0  0  0
   62.9925   24.6653   52.5605 C   0  0  0  0  0  0  0  0  0  0  0  0
   63.1278   24.8286   54.0807 C   0  0  0  0  0  0  0  0  0  0  0  0
   64.6005   24.9700   54.4919 C   0  0  0  0  0  0  0  0  0  0  0  0
 16 17  1  0
 17 18  1  0
 18 19  1  0
 19 20  2  0
 19 21  1  0
 21 22  1  0
 22  8  1  0
  8  9  2  0
  9 10  1  0
 10 11  2  0
 11 12  1  0
 11 13  1  0
 13  1  1  0
  1  2  2  0
  2  3  1  0
  3  4  2  0
  4 24  1  0
 24 25  2  0
 24 26  1  0
 26 27  1  0
 27 28  1  0
 28 29  1  0
 29 32  1  0
 32 33  1  0
 33 34  1  0
 34 35  1  0
 35 36  1  0
 36 37  1  0
 29 30  1  0
 30 31  1  0
  4  5  1  0
  5  6  2  0
  6  7  1  0
 13 14  1  0
 14 15  2  0
 22 17  2  0
 14  9  1  0
  6  1  1  0
 31 26  1  0
 37 32  1  0
 16 23  1  0
M  CHG 1  18  -1
M  CHG 1  21  -1
M  END
> <UniqueID>
18

> <SMILES>
C=c1/c(=C\c2[n-]c(=O)[n-]c2O)cc(C)n1-c1ccc(C(=O)N2CCC(N3CCCCC3)CC2)cc1F

> <Energy>
168.44847827266804

> <Genealogy>
C=c1c(=Cc2[n-]c(=O)[n-]c2O)cc(C)n1-c1ccc(C(=O)N2CCC(N3CCCCC3)CC2)cc1F (protonated)
C=c1/c(=C\c2[n-]c(=O)[n-]c2O)cc(C)n1-c1ccc(C(=O)N2CCC(N3CCCCC3)CC2)cc1F (cis-trans isomerization)
C=c1/c(=C\c2[n-]c(=O)[n-]c2O)cc(C)n1-c1ccc(C(=O)N2CCC(N3CCCCC3)CC2)cc1F (3D coordinates assigned)
C=c1/c(=C\c2[n-]c(=O)[n-]c2O)cc(C)n1-c1ccc(C(=O)N2CCC(N3CCCCC3)CC2)cc1F (nonaromatic ring conformer: 168.44847827266804 kcal/mol)

> <smiles>
C=c1c(=Cc2[nH]c(=O)[nH]c2O)cc(C)n1-c1ccc(C(=O)N2CCC(N3CCCCC3)CC2)cc1F

> <score_type>
oracle

> <origin>
adg

> <m_score__min__energy>
-14.08

> <m_primary>
energy

> <minimizedAffinity>
-4.70228

> <minimizedRMSD>
0.86093

> <CNNscore>
0.1135840118

> <CNNaffinity>
5.1030554771

> <CNN_VS>
0.5796254873

> <CNNaffinity_variance>
0.8532238007

$$$$
25:0


 39 43  0  0  0  0  0  0  0  0999 V2000
   60.1397   29.3422   52.2583 C   0  0  0  0  0  0  0  0  0  0  0  0
   60.8448   29.0507   53.4431 C   0  0  0  0  0  0  0  0  0  0  0  0
   60.1578   28.8067   54.6353 C   0  0  0  0  0  0  0  0  0  0  0  0
   58.7633   28.8460   54.6635 C   0  0  0  0  0  0  0  0  0  0  0  0
   58.0438   29.1295   53.4963 C   0  0  0  0  0  0  0  0  0  0  0  0
   58.7325   29.3690   52.2976 C   0  0  0  0  0  0  0  0  0  0  0  0
   56.6053   29.1589   53.5213 N   0  0  0  0  0  0  0  0  0  0  0  0
   55.8044   28.1457   53.9170 C   0  0  0  0  0  0  0  0  0  0  0  0
   56.2859   26.8194   54.4208 C   0  0  0  0  0  0  0  0  0  0  0  0
   54.4774   28.5107   53.8126 C   0  0  0  0  0  0  0  0  0  0  0  0
   54.4555   29.8108   53.3142 C   0  0  0  0  0  0  0  0  0  0  0  0
   53.3684   30.5684   53.0504 C   0  0  0  0  0  0  0  0  0  0  0  0
   55.7967   30.1819   53.1476 C   0  0  0  0  0  0  0  0  0  0  0  0
   56.2501   31.3708   52.7189 C   0  0  0  0  0  0  0  0  0  0  0  0
   52.6157   30.5980   51.7744 C   0  0  0  0  0  0  0  0  0  0  0  0
   52.7531   29.7358   50.7521 N   0  0  0  0  0  0  0  0  0  0  0  0
   51.8610   30.1790   49.8397 C   0  0  0  0  0  0  0  0  0  0  0  0
   51.6943   29.6191   48.7264 O   0  0  0  0  0  0  0  0  0  0  0  0
   51.1616   31.2689   50.2176 N   0  0  0  0  0  0  0  0  0  0  0  0
   51.6514   31.5210   51.4413 C   0  0  0  0  0  0  0  0  0  0  0  0
   51.2251   32.5755   52.2401 O   0  0  0  0  0  0  0  0  0  0  0  0
   60.8442   29.5955   50.9731 C   0  0  0  0  0  0  0  0  0  0  0  0
   61.4888   28.6484   50.4387 O   0  0  0  0  0  0  0  0  0  0  0  0
   62.2697   34.6068   48.9592 O   0  0  0  0  0  0  0  0  0  0  0  0
   61.4459   33.5373   49.3702 C   0  0  0  0  0  0  0  0  0  0  0  0
   61.7697   32.2817   48.4946 C   0  0  0  0  0  0  0  0  0  0  0  0
   61.8926   30.9784   49.3080 C   0  0  0  0  0  0  0  0  0  0  0  0
   60.8435   30.9042   50.3451 N   0  0  0  0  0  0  0  0  0  0  0  0
   60.9937   31.9650   51.3780 C   0  0  0  0  0  0  0  0  0  0  0  0
   61.7168   33.2327   50.8697 C   0  0  0  0  0  0  0  0  0  0  0  0
   62.1044   34.8010   48.0233 H   0  0  0  0  0  0  0  0  0  0  0  0
   60.2958   30.4777   51.0432 H   0  0  0  0  0  0  0  0  0  0  0  0
   59.9670   33.9726   49.1424 C   0  0  0  0  0  0  0  0  0  0  0  0
   59.4757   33.7367   47.7314 C   0  0  0  0  0  0  0  0  0  0  0  0
   59.7240   34.6842   46.7218 C   0  0  0  0  0  0  0  0  0  0  0  0
   59.2813   34.4551   45.4160 C   0  0  0  0  0  0  0  0  0  0  0  0
   58.5851   33.2836   45.1065 C   0  0  0  0  0  0  0  0  0  0  0  0
   58.3267   32.3402   46.1048 C   0  0  0  0  0  0  0  0  0  0  0  0
   58.7669   32.5650   47.4127 C   0  0  0  0  0  0  0  0  0  0  0  0
 25 24  1  0
 25 33  1  0
 33 34  1  0
 34 35  2  0
 35 36  1  0
 36 37  2  0
 37 38  1  0
 38 39  2  0
 25 26  1  0
 26 27  1  0
 27 28  1  0
 28 22  1  0
 22 23  2  0
 22  1  1  0
  1  2  2  0
  2  3  1  0
  3  4  2  0
  4  5  1  0
  5  7  1  0
  7  8  1  0
  8  9  1  0
  8 10  2  0
 10 11  1  0
 11 12  2  0
 12 15  1  0
 15 16  1  0
 16 17  1  0
 17 18  2  0
 17 19  1  0
 19 20  1  0
 20 21  1  0
 11 13  1  0
 13 14  2  0
  5  6  2  0
 28 29  1  0
 29 30  1  0
 30 25  1  0
 39 34  1  0
  6  1  1  0
 13  7  1  0
 20 15  2  0
 24 31  1  0
 28 32  1  0
M  CHG 1  16  -1
M  CHG 1  19  -1
M  CHG 1  21  -1
M  CHG 1  28   1
M  END
> <UniqueID>
23

> <SMILES>
C=c1/c(=C/c2[n-]c(=O)[n-]c2[O-])cc(C)n1-c1cccc(C(=O)[NH+]2CCC(O)(Cc3ccccc3)CC2)c1

> <Energy>
152.92602999265205

> <Genealogy>
C=c1c(=Cc2[n-]c(=O)[n-]c2[O-])cc(C)n1-c1cccc(C(=O)[NH+]2CCC(O)(Cc3ccccc3)CC2)c1 (protonated)
C=c1/c(=C/c2[n-]c(=O)[n-]c2[O-])cc(C)n1-c1cccc(C(=O)[NH+]2CCC(O)(Cc3ccccc3)CC2)c1 (cis-trans isomerization)
C=c1/c(=C/c2[n-]c(=O)[n-]c2[O-])cc(C)n1-c1cccc(C(=O)[NH+]2CCC(O)(Cc3ccccc3)CC2)c1 (3D coordinates assigned)
C=c1/c(=C/c2[n-]c(=O)[n-]c2[O-])cc(C)n1-c1cccc(C(=O)[NH+]2CCC(O)(Cc3ccccc3)CC2)c1 (nonaromatic ring conformer: 152.92602999265205 kcal/mol)

> <smiles>
C=c1c(=Cc2[nH]c(=O)[nH]c2O)cc(C)n1-c1cccc(C(=O)N2CCC(O)(Cc3ccccc3)CC2)c1

> <score_type>
oracle

> <origin>
adg

> <m_score__min__energy>
-17.93

> <m_primary>
energy

> <minimizedAffinity>
-7.86686

> <minimizedRMSD>
0.88568

> <CNNscore>
0.1417403519

> <CNNaffinity>
5.8326058388

> <CNN_VS>
0.8267155886

> <CNNaffinity_variance>
0.6598286033

$$$$
26:0


 30 33  0  0  0  0  0  0  0  0999 V2000
   56.4174   31.7254   52.2441 C   0  0  0  0  0  0  0  0  0  0  0  0
   56.1087   30.5264   52.7608 C   0  0  0  0  0  0  0  0  0  0  0  0
   54.8410   30.0878   53.1825 C   0  0  0  0  0  0  0  0  0  0  0  0
   53.6195   30.6376   53.0427 C   0  0  0  0  0  0  0  0  0  0  0  0
   55.0420   28.8650   53.8022 C   0  0  0  0  0  0  0  0  0  0  0  0
   56.3849   28.5736   53.6911 C   0  0  0  0  0  0  0  0  0  0  0  0
   57.0283   27.3261   54.2187 C   0  0  0  0  0  0  0  0  0  0  0  0
   57.0339   29.5731   53.0524 N   0  0  0  0  0  0  0  0  0  0  0  0
   52.8385   30.6903   51.7981 C   0  0  0  0  0  0  0  0  0  0  0  0
   52.9404   29.8043   50.7897 N   0  0  0  0  0  0  0  0  0  0  0  0
   51.9468   30.1677   49.9513 C   0  0  0  0  0  0  0  0  0  0  0  0
   51.7249   29.5749   48.8637 O   0  0  0  0  0  0  0  0  0  0  0  0
   51.1995   31.2091   50.3764 N   0  0  0  0  0  0  0  0  0  0  0  0
   51.7692   31.5164   51.5540 C   0  0  0  0  0  0  0  0  0  0  0  0
   51.3165   32.5285   52.3904 O   0  0  0  0  0  0  0  0  0  0  0  0
   58.4542   29.6345   52.8311 C   0  0  0  0  0  0  0  0  0  0  0  0
   59.4184   29.9942   53.7499 C   0  0  0  0  0  0  0  0  0  0  0  0
   60.6042   30.0278   53.1156 N   0  0  0  0  0  0  0  0  0  0  0  0
   60.4222   29.7063   51.8405 N   0  0  0  0  0  0  0  0  0  0  0  0
   59.1109   29.4754   51.6269 C   0  0  0  0  0  0  0  0  0  0  0  0
   61.4679   30.2544   53.5302 H   0  0  0  0  0  0  0  0  0  0  0  0
   61.4605   29.7237   50.7982 C   0  0  0  0  0  0  0  0  0  0  0  0
   62.1350   31.1186   50.6893 C   0  0  0  0  0  0  0  0  0  0  0  0
   61.9774   31.7786   49.3116 C   0  0  0  0  0  0  0  0  0  0  0  0
   60.6060   31.6159   48.8018 N   0  0  0  0  0  0  0  0  0  0  0  0
   59.8924   32.7032   48.1711 C   0  0  0  0  0  0  0  0  0  0  0  0
   60.5522   34.0123   47.8550 C   0  0  0  0  0  0  0  0  0  0  0  0
   58.6727   32.5626   47.8799 O   0  0  0  0  0  0  0  0  0  0  0  0
   59.9863   30.2793   48.7987 C   0  0  0  0  0  0  0  0  0  0  0  0
   60.8828   29.2268   49.4612 C   0  0  0  0  0  0  0  0  0  0  0  0
  1  2  2  0
  2  3  1  0
  3  4  2  0
  4  9  1  0
  9 10  1  0
 10 11  1  0
 11 12  2  0
 11 13  1  0
 13 14  1  0
 14 15  1  0
  3  5  1  0
  5  6  2  0
  6  7  1  0
  6  8  1  0
  8 16  1  0
 16 17  1  0
 17 18  2  0
 18 19  1  0
 19 22  1  0
 22 23  1  0
 23 24  1  0
 24 25  1  0
 25 26  1  0
 26 27  1  0
 26 28  2  0
 25 29  1  0
 29 30  1  0
 19 20  1  0
  8  2  1  0
 20 16  2  0
 14  9  2  0
 30 22  1  0
 18 21  1  0
M  CHG 1  10  -1
M  CHG 1  13  -1
M  CHG 1  15  -1
M  CHG 1  18   1
M  END
> <UniqueID>
24

> <SMILES>
C=c1c(=Cc2[n-]c(=O)[n-]c2[O-])cc(C)n1-c1c[nH+]n(C2CCN(C(C)=O)CC2)c1

> <Energy>
161.84021797920278

> <Genealogy>
C=c1c(=Cc2[n-]c(=O)[n-]c2[O-])cc(C)n1-c1c[nH+]n(C2CCN(C(C)=O)CC2)c1 (protonated)
C=c1c(=Cc2[n-]c(=O)[n-]c2[O-])cc(C)n1-c1c[nH+]n(C2CCN(C(C)=O)CC2)c1 (3D coordinates assigned)
C=c1c(=Cc2[n-]c(=O)[n-]c2[O-])cc(C)n1-c1c[nH+]n(C2CCN(C(C)=O)CC2)c1 (nonaromatic ring conformer: 161.84021797920278 kcal/mol)

> <smiles>
C=c1c(=Cc2[nH]c(=O)[nH]c2O)cc(C)n1-c1cnn(C2CCN(C(C)=O)CC2)c1

> <score_type>
oracle

> <origin>
adg

> <m_score__min__energy>
-15.69

> <m_primary>
energy

> <minimizedAffinity>
-6.05470

> <minimizedRMSD>
1.09628

> <CNNscore>
0.0365178920

> <CNNaffinity>
5.4434723854

> <CNN_VS>
0.1987841427

> <CNNaffinity_variance>
0.0399399363

$$$$
27:0


 33 36  0  0  0  0  0  0  0  0999 V2000
   60.0461   27.8205   44.4463 C   0  0  0  0  0  0  0  0  0  0  0  0
   59.1754   27.4123   45.3720 C   0  0  0  0  0  0  0  0  0  0  0  0
   58.9826   26.1114   45.6698 N   0  0  0  0  0  0  0  0  0  0  0  0
   58.1085   26.0729   46.6991 C   0  0  0  0  0  0  0  0  0  0  0  0
   57.6459   24.9564   47.2801 C   0  0  0  0  0  0  0  0  0  0  0  0
   57.7287   27.3548   47.0565 C   0  0  0  0  0  0  0  0  0  0  0  0
   58.3987   28.2135   46.2046 C   0  0  0  0  0  0  0  0  0  0  0  0
   59.3986   25.3387   45.2234 H   0  0  0  0  0  0  0  0  0  0  0  0
   56.4254   24.2472   46.8342 C   0  0  0  0  0  0  0  0  0  0  0  0
   55.3591   24.9287   46.2221 C   0  0  0  0  0  0  0  0  0  0  0  0
   55.4144   26.3040   46.0193 O   0  0  0  0  0  0  0  0  0  0  0  0
   54.2657   24.2396   45.8036 N   0  0  0  0  0  0  0  0  0  0  0  0
   54.1884   22.8938   45.9473 C   0  0  0  0  0  0  0  0  0  0  0  0
   53.1642   22.2768   45.5559 O   0  0  0  0  0  0  0  0  0  0  0  0
   55.2174   22.2090   46.5081 N   0  0  0  0  0  0  0  0  0  0  0  0
   56.3332   22.8509   46.9455 C   0  0  0  0  0  0  0  0  0  0  0  0
   57.2709   22.1829   47.4555 O   0  0  0  0  0  0  0  0  0  0  0  0
   58.2501   29.6858   46.2258 C   0  0  0  0  0  0  0  0  0  0  0  0
   57.2873   30.1979   45.5899 O   0  0  0  0  0  0  0  0  0  0  0  0
   59.2609   30.5417   46.8158 N   0  0  0  0  0  0  0  0  0  0  0  0
   59.1996   30.4730   48.2987 C   0  0  0  0  0  0  0  0  0  0  0  0
   59.8242   31.7213   48.9340 C   0  0  0  0  0  0  0  0  0  0  0  0
   59.0682   32.9491   48.5781 N   0  0  0  0  0  0  0  0  0  0  0  0
   58.3995   32.8631   47.2544 C   0  0  0  0  0  0  0  0  0  0  0  0
   59.1406   31.9264   46.2844 C   0  0  0  0  0  0  0  0  0  0  0  0
   59.7993   31.3553   46.6838 H   0  0  0  0  0  0  0  0  0  0  0  0
   59.9181   34.1554   48.6802 C   0  0  0  0  0  0  0  0  0  0  0  0
   61.3790   33.7835   48.7089 C   0  0  0  0  0  0  0  0  0  0  0  0
   62.0463   33.4709   47.5136 C   0  0  0  0  0  0  0  0  0  0  0  0
   63.4078   33.1496   47.5321 C   0  0  0  0  0  0  0  0  0  0  0  0
   64.1096   33.1440   48.7407 C   0  0  0  0  0  0  0  0  0  0  0  0
   63.4535   33.4609   49.9331 C   0  0  0  0  0  0  0  0  0  0  0  0
   62.0916   33.7823   49.9185 C   0  0  0  0  0  0  0  0  0  0  0  0
  1  2  2  0
  2  3  1  0
  3  4  1  0
  4  5  2  0
  5  9  1  0
  9 10  2  0
 10 11  1  0
 10 12  1  0
 12 13  1  0
 13 14  2  0
 13 15  1  0
 15 16  1  0
 16 17  2  0
  4  6  1  0
  6  7  2  0
  7 18  1  0
 18 19  2  0
 18 20  1  0
 20 21  1  0
 21 22  1  0
 22 23  1  0
 23 27  1  0
 27 28  1  0
 28 29  2  0
 29 30  1  0
 30 31  2  0
 31 32  1  0
 32 33  2  0
 23 24  1  0
 24 25  1  0
  7  2  1  0
 25 20  1  0
 16  9  1  0
 33 28  1  0
  3  8  1  0
 20 26  1  0
M  CHG 1  11  -1
M  CHG 1  12  -1
M  CHG 1  15  -1
M  CHG 1  20   1
M  END
> <UniqueID>
25

> <SMILES>
C=c1[nH]c(=Cc2c([O-])[n-]c(=O)[n-]c2=O)cc1C(=O)[NH+]1CCN(Cc2ccccc2)CC1

> <Energy>
110.9848653793164

> <Genealogy>
C=c1[nH]c(=Cc2c([O-])[n-]c(=O)[n-]c2=O)cc1C(=O)[NH+]1CCN(Cc2ccccc2)CC1 (protonated)
C=c1[nH]c(=Cc2c([O-])[n-]c(=O)[n-]c2=O)cc1C(=O)[NH+]1CCN(Cc2ccccc2)CC1 (3D coordinates assigned)
C=c1[nH]c(=Cc2c([O-])[n-]c(=O)[n-]c2=O)cc1C(=O)[NH+]1CCN(Cc2ccccc2)CC1 (nonaromatic ring conformer: 110.9848653793164 kcal/mol)

> <smiles>
C=c1[nH]c(=Cc2c(O)[nH]c(=O)[nH]c2=O)cc1C(=O)N1CCN(Cc2ccccc2)CC1

> <score_type>
oracle

> <origin>
adg

> <m_score__min__energy>
-15.34

> <m_primary>
energy

> <minimizedAffinity>
-7.93581

> <minimizedRMSD>
0.58891

> <CNNscore>
0.1240093186

> <CNNaffinity>
6.3849682808

> <CNN_VS>
0.7917955518

> <CNNaffinity_variance>
0.1200265065

$$$$
32:0


 30 33  0  0  0  0  0  0  0  0999 V2000
   58.2011   26.9638   43.4180 C   0  0  0  0  0  0  0  0  0  0  0  0
   58.4414   26.9468   44.7407 C   0  0  0  0  0  0  0  0  0  0  0  0
   58.2928   25.8455   45.5934 C   0  0  0  0  0  0  0  0  0  0  0  0
   57.8775   24.6075   45.2538 C   0  0  0  0  0  0  0  0  0  0  0  0
   58.6603   26.2867   46.8586 C   0  0  0  0  0  0  0  0  0  0  0  0
   58.9907   27.6201   46.7355 C   0  0  0  0  0  0  0  0  0  0  0  0
   59.5230   28.4589   47.8593 C   0  0  0  0  0  0  0  0  0  0  0  0
   58.8552   28.0286   45.4514 N   0  0  0  0  0  0  0  0  0  0  0  0
   56.5232   24.0645   45.4901 C   0  0  0  0  0  0  0  0  0  0  0  0
   56.1782   22.7635   45.4506 N   0  0  0  0  0  0  0  0  0  0  0  0
   54.8799   22.7692   45.8169 C   0  0  0  0  0  0  0  0  0  0  0  0
   54.1922   21.7170   45.8944 O   0  0  0  0  0  0  0  0  0  0  0  0
   54.3763   23.9888   46.1022 N   0  0  0  0  0  0  0  0  0  0  0  0
   55.4301   24.7944   45.8969 C   0  0  0  0  0  0  0  0  0  0  0  0
   55.3974   26.1696   46.0863 O   0  0  0  0  0  0  0  0  0  0  0  0
   59.0891   29.3904   44.9467 C   0  0  0  0  0  0  0  0  0  0  0  0
   57.7823   30.1921   44.8286 C   0  0  0  0  0  0  0  0  0  0  0  0
   57.6482   31.1624   45.9224 N   0  0  0  0  0  0  0  0  0  0  0  0
   58.2013   32.3243   46.1678 C   0  0  0  0  0  0  0  0  0  0  0  0
   58.1496   33.2518   45.1164 C   0  0  0  0  0  0  0  0  0  0  0  0
   59.0121   34.3441   45.0984 C   0  0  0  0  0  0  0  0  0  0  0  0
   59.8787   34.5426   46.1210 N   0  0  0  0  0  0  0  0  0  0  0  0
   59.8828   33.7479   47.2211 C   0  0  0  0  0  0  0  0  0  0  0  0
   60.7496   34.0507   48.2769 C   0  0  0  0  0  0  0  0  0  0  0  0
   60.6647   33.3595   49.4863 C   0  0  0  0  0  0  0  0  0  0  0  0
   59.6618   32.3903   49.6483 C   0  0  0  0  0  0  0  0  0  0  0  0
   58.8094   32.0671   48.5874 C   0  0  0  0  0  0  0  0  0  0  0  0
   58.9779   32.6574   47.3186 C   0  0  0  0  0  0  0  0  0  0  0  0
   61.5714   33.6836   50.5057 O   0  0  0  0  0  0  0  0  0  0  0  0
   62.9354   34.0279   50.2874 C   0  0  0  0  0  0  0  0  0  0  0  0
  1  2  2  0
  2  3  1  0
  3  4  2  0
  4  9  1  0
  9 10  1  0
 10 11  1  0
 11 12  2  0
 11 13  1  0
 13 14  1  0
 14 15  1  0
  3  5  1  0
  5  6  2  0
  6  7  1  0
  6  8  1  0
  8 16  1  0
 16 17  1  0
 17 18  1  0
 18 19  2  0
 19 20  1  0
 20 21  2  0
 21 22  1  0
 22 23  1  0
 23 24  2  0
 24 25  1  0
 25 29  1  0
 29 30  1  0
 25 26  2  0
 26 27  1  0
 27 28  2  0
  8  2  1  0
 28 19  1  0
 14  9  2  0
 28 23  1  0
M  CHG 1  10  -1
M  CHG 1  13  -1
M  CHG 1  15  -1
M  CHG 1  22  -1
M  END
> <UniqueID>
28

> <SMILES>
C=c1/c(=C/c2[n-]c(=O)[n-]c2[O-])cc(C)n1CCN=c1cc[n-]c2cc(OC)ccc12

> <Energy>
130.33535912057775

> <Genealogy>
C=c1c(=Cc2[n-]c(=O)[n-]c2[O-])cc(C)n1CCN=c1cc[n-]c2cc(OC)ccc12 (protonated)
C=c1/c(=C/c2[n-]c(=O)[n-]c2[O-])cc(C)n1CCN=c1cc[n-]c2cc(OC)ccc12 (cis-trans isomerization)
C=c1/c(=C/c2[n-]c(=O)[n-]c2[O-])cc(C)n1CCN=c1cc[n-]c2cc(OC)ccc12 (3D coordinates assigned)
C=c1/c(=C/c2[n-]c(=O)[n-]c2[O-])cc(C)n1CCN=c1cc[n-]c2cc(OC)ccc12 (optimized conformer: 130.33535912057775 kcal/mol)

> <smiles>
C=c1c(=Cc2[nH]c(=O)[nH]c2O)cc(C)n1CCN=c1cc[nH]c2cc(OC)ccc12

> <score_type>
oracle

> <origin>
adg

> <m_score__min__energy>
-17.329999999999998

> <m_primary>
energy

> <minimizedAffinity>
-9.00811

> <minimizedRMSD>
0.81283

> <CNNscore>
0.4601921141

> <CNNaffinity>
7.3391814232

> <CNN_VS>
3.3774333000

> <CNNaffinity_variance>
0.0301968139

$$$$
36:0


 33 36  0  0  0  0  0  0  0  0999 V2000
   59.1059   29.4464   51.7303 C   0  0  0  0  0  0  0  0  0  0  0  0
   59.7506   30.7551   51.3552 C   0  0  0  0  0  0  0  0  0  0  0  0
   60.5799   31.4136   52.2757 C   0  0  0  0  0  0  0  0  0  0  0  0
   61.1555   32.6404   51.9510 C   0  0  0  0  0  0  0  0  0  0  0  0
   60.9014   33.2317   50.7114 C   0  0  0  0  0  0  0  0  0  0  0  0
   60.0568   32.6008   49.7789 C   0  0  0  0  0  0  0  0  0  0  0  0
   59.4821   31.3556   50.1111 C   0  0  0  0  0  0  0  0  0  0  0  0
   58.6394   30.7408   49.2400 F   0  0  0  0  0  0  0  0  0  0  0  0
   59.7858   33.2247   48.4564 C   0  0  0  0  0  0  0  0  0  0  0  0
   60.3473   34.3207   48.1723 O   0  0  0  0  0  0  0  0  0  0  0  0
   58.8743   32.6181   47.5044 N   0  0  0  0  0  0  0  0  0  0  0  0
   59.6006   31.7149   46.5914 C   0  0  0  0  0  0  0  0  0  0  0  0
   58.6276   31.0784   45.5689 C   0  0  0  0  0  0  0  0  0  0  0  0
   57.3395   31.6674   45.6054 O   0  0  0  0  0  0  0  0  0  0  0  0
   57.4529   33.0719   45.5024 C   0  0  0  0  0  0  0  0  0  0  0  0
   58.1591   33.6633   46.7401 C   0  0  0  0  0  0  0  0  0  0  0  0
   58.4964   33.5236   47.4234 H   0  0  0  0  0  0  0  0  0  0  0  0
   58.6396   29.4719   53.1886 C   0  0  0  0  0  0  0  0  0  0  0  0
   56.8634   31.8771   52.7446 C   0  0  0  0  0  0  0  0  0  0  0  0
   56.3903   30.6447   52.9813 C   0  0  0  0  0  0  0  0  0  0  0  0
   55.0549   30.2461   53.1477 C   0  0  0  0  0  0  0  0  0  0  0  0
   53.9106   30.9221   52.9339 C   0  0  0  0  0  0  0  0  0  0  0  0
   55.0290   28.9617   53.5655 N   0  0  0  0  0  0  0  0  0  0  0  0
   56.3235   28.5922   53.5991 C   0  0  0  0  0  0  0  0  0  0  0  0
   56.6912   27.4320   53.9277 O   0  0  0  0  0  0  0  0  0  0  0  0
   57.1774   29.5756   53.2520 N   0  0  0  0  0  0  0  0  0  0  0  0
   53.0501   30.8066   51.7453 C   0  0  0  0  0  0  0  0  0  0  0  0
   53.1881   29.8698   50.7878 N   0  0  0  0  0  0  0  0  0  0  0  0
   52.1073   30.0675   50.0019 C   0  0  0  0  0  0  0  0  0  0  0  0
   51.8852   29.3840   48.9699 O   0  0  0  0  0  0  0  0  0  0  0  0
   51.2768   31.0487   50.4160 N   0  0  0  0  0  0  0  0  0  0  0  0
   51.8813   31.4944   51.5284 C   0  0  0  0  0  0  0  0  0  0  0  0
   51.3733   32.5070   52.3325 O   0  0  0  0  0  0  0  0  0  0  0  0
 19 20  2  0
 20 21  1  0
 21 22  2  0
 22 27  1  0
 27 28  1  0
 28 29  1  0
 29 30  2  0
 29 31  1  0
 31 32  1  0
 32 33  1  0
 21 23  1  0
 23 24  1  0
 24 25  2  0
 24 26  1  0
 26 18  1  0
 18  1  1  0
  1  2  1  0
  2  3  2  0
  3  4  1  0
  4  5  2  0
  5  6  1  0
  6  9  1  0
  9 10  2  0
  9 11  1  0
 11 12  1  0
 12 13  1  0
 13 14  1  0
 14 15  1  0
 15 16  1  0
  6  7  2  0
  7  8  1  0
 26 20  1  0
  7  2  1  0
 32 27  2  0
 16 11  1  0
 11 17  1  0
M  CHG 1  11   1
M  CHG 1  23  -1
M  CHG 1  28  -1
M  CHG 1  31  -1
M  CHG 1  33  -1
M  END
> <UniqueID>
32

> <SMILES>
C=c1c(=Cc2[n-]c(=O)[n-]c2[O-])[n-]c(=O)n1CCc1cccc(C(=O)[NH+]2CCOCC2)c1F

> <Energy>
140.08255613423256

> <Genealogy>
C=c1c(=Cc2[n-]c(=O)[n-]c2[O-])[n-]c(=O)n1CCc1cccc(C(=O)[NH+]2CCOCC2)c1F (protonated)
C=c1c(=Cc2[n-]c(=O)[n-]c2[O-])[n-]c(=O)n1CCc1cccc(C(=O)[NH+]2CCOCC2)c1F (3D coordinates assigned)
C=c1c(=Cc2[n-]c(=O)[n-]c2[O-])[n-]c(=O)n1CCc1cccc(C(=O)[NH+]2CCOCC2)c1F (nonaromatic ring conformer: 140.08255613423256 kcal/mol)

> <smiles>
C=c1c(=Cc2[nH]c(=O)[nH]c2O)[nH]c(=O)n1CCc1cccc(C(=O)N2CCOCC2)c1F

> <score_type>
oracle

> <origin>
adg

> <m_score__min__energy>
-17.629999999999999

> <m_primary>
energy

> <minimizedAffinity>
-6.19512

> <minimizedRMSD>
0.80081

> <CNNscore>
0.1027383953

> <CNNaffinity>
5.7603931427

> <CNN_VS>
0.5918135643

> <CNNaffinity_variance>
0.4980189800

$$$$
43:0


 33 36  0  0  0  0  0  0  0  0999 V2000
   58.5457   27.0523   46.3400 C   0  0  0  0  0  0  0  0  0  0  0  0
   59.0877   27.9135   45.3747 C   0  0  0  0  0  0  0  0  0  0  0  0
   59.8097   29.0450   45.7630 C   0  0  0  0  0  0  0  0  0  0  0  0
   60.0180   29.3217   47.1230 C   0  0  0  0  0  0  0  0  0  0  0  0
   59.4641   28.4664   48.0893 C   0  0  0  0  0  0  0  0  0  0  0  0
   58.7422   27.3359   47.7009 C   0  0  0  0  0  0  0  0  0  0  0  0
   59.5823   24.2994   45.8102 C   0  0  0  0  0  0  0  0  0  0  0  0
   58.3024   24.6542   45.6154 C   0  0  0  0  0  0  0  0  0  0  0  0
   57.2382   23.8113   45.2495 C   0  0  0  0  0  0  0  0  0  0  0  0
   57.2330   22.5495   44.7787 C   0  0  0  0  0  0  0  0  0  0  0  0
   56.0757   24.5415   45.4462 C   0  0  0  0  0  0  0  0  0  0  0  0
   56.4708   25.7954   45.8476 C   0  0  0  0  0  0  0  0  0  0  0  0
   55.6035   26.8514   46.1048 O   0  0  0  0  0  0  0  0  0  0  0  0
   57.8127   25.8801   45.9403 N   0  0  0  0  0  0  0  0  0  0  0  0
   57.0770   21.3344   45.5969 C   0  0  0  0  0  0  0  0  0  0  0  0
   57.6330   21.1578   46.8097 N   0  0  0  0  0  0  0  0  0  0  0  0
   57.3390   19.8728   47.1036 C   0  0  0  0  0  0  0  0  0  0  0  0
   57.6847   19.3287   48.1847 O   0  0  0  0  0  0  0  0  0  0  0  0
   56.6545   19.2148   46.1447 N   0  0  0  0  0  0  0  0  0  0  0  0
   56.5077   20.1470   45.1908 C   0  0  0  0  0  0  0  0  0  0  0  0
   55.8646   19.9103   43.9788 O   0  0  0  0  0  0  0  0  0  0  0  0
   55.5082   19.0634   43.7952 H   0  0  0  0  0  0  0  0  0  0  0  0
   60.7634   30.5319   47.5265 C   0  0  0  0  0  0  0  0  0  0  0  0
   61.7663   30.8782   46.8452 O   0  0  0  0  0  0  0  0  0  0  0  0
   60.3736   31.3145   48.6748 N   0  0  0  0  0  0  0  0  0  0  0  0
   60.5306   30.7594   50.0256 C   0  0  0  0  0  0  0  0  0  0  0  0
   59.9713   32.7161   48.5039 C   0  0  0  0  0  0  0  0  0  0  0  0
   59.3767   32.9425   47.1361 C   0  0  0  0  0  0  0  0  0  0  0  0
   59.8863   33.9461   46.2944 C   0  0  0  0  0  0  0  0  0  0  0  0
   59.3208   34.1627   45.0339 C   0  0  0  0  0  0  0  0  0  0  0  0
   58.2452   33.3818   44.6044 C   0  0  0  0  0  0  0  0  0  0  0  0
   57.7337   32.3818   45.4347 C   0  0  0  0  0  0  0  0  0  0  0  0
   58.2952   32.1611   46.6959 C   0  0  0  0  0  0  0  0  0  0  0  0
  7  8  2  0
  8  9  1  0
  9 10  2  0
 10 15  1  0
 15 16  1  0
 16 17  1  0
 17 18  2  0
 17 19  1  0
 19 20  1  0
 20 21  1  0
  9 11  1  0
 11 12  2  0
 12 13  1  0
 12 14  1  0
 14  1  1  0
  1  2  2  0
  2  3  1  0
  3  4  2  0
  4 23  1  0
 23 24  2  0
 23 25  1  0
 25 26  1  0
 25 27  1  0
 27 28  1  0
 28 29  2  0
 29 30  1  0
 30 31  2  0
 31 32  1  0
 32 33  2  0
  4  5  1  0
  5  6  2  0
 14  8  1  0
  6  1  1  0
 20 15  2  0
 33 28  1  0
 21 22  1  0
M  CHG 1  13  -1
M  CHG 1  16  -1
M  CHG 1  19  -1
M  END
> <UniqueID>
39

> <SMILES>
C=c1c(=Cc2[n-]c(=O)[n-]c2O)cc([O-])n1-c1ccc(C(=O)N(C)Cc2ccccc2)cc1

> <Energy>
134.60087745189028

> <Genealogy>
C=c1c(=Cc2[n-]c(=O)[n-]c2O)cc([O-])n1-c1ccc(C(=O)N(C)Cc2ccccc2)cc1 (protonated)
C=c1c(=Cc2[n-]c(=O)[n-]c2O)cc([O-])n1-c1ccc(C(=O)N(C)Cc2ccccc2)cc1 (3D coordinates assigned)
C=c1c(=Cc2[n-]c(=O)[n-]c2O)cc([O-])n1-c1ccc(C(=O)N(C)Cc2ccccc2)cc1 (optimized conformer: 134.60087745189028 kcal/mol)

> <smiles>
C=c1c(=Cc2[nH]c(=O)[nH]c2O)cc(O)n1-c1ccc(C(=O)N(C)Cc2ccccc2)cc1

> <score_type>
oracle

> <origin>
adg

> <m_score__min__energy>
-15.32

> <m_primary>
energy

> <minimizedAffinity>
-7.88097

> <minimizedRMSD>
0.76149

> <CNNscore>
0.1149291098

> <CNNaffinity>
6.3076667786

> <CNN_VS>
0.7249345183

> <CNNaffinity_variance>
0.0308860298

$$$$
46:0


 38 42  0  0  0  0  0  0  0  0999 V2000
   59.1033   32.1276   50.0465 C   0  0  0  0  0  0  0  0  0  0  0  0
   57.9474   31.9685   50.8348 C   0  0  0  0  0  0  0  0  0  0  0  0
   57.9325   32.3781   52.1683 C   0  0  0  0  0  0  0  0  0  0  0  0
   59.0828   32.9144   52.7419 C   0  0  0  0  0  0  0  0  0  0  0  0
   60.2367   33.0796   51.9754 C   0  0  0  0  0  0  0  0  0  0  0  0
   60.2509   32.7368   50.6133 C   0  0  0  0  0  0  0  0  0  0  0  0
   59.8169   29.3502   49.2189 C   0  0  0  0  0  0  0  0  0  0  0  0
   59.4938   30.3221   48.3503 C   0  0  0  0  0  0  0  0  0  0  0  0
   59.5551   30.2352   46.9602 C   0  0  0  0  0  0  0  0  0  0  0  0
   59.8711   29.1592   46.2160 C   0  0  0  0  0  0  0  0  0  0  0  0
   59.2400   31.4951   46.4745 C   0  0  0  0  0  0  0  0  0  0  0  0
   58.9744   32.2898   47.5698 C   0  0  0  0  0  0  0  0  0  0  0  0
   58.8775   33.7830   47.4962 C   0  0  0  0  0  0  0  0  0  0  0  0
   59.1114   31.5744   48.7150 N   0  0  0  0  0  0  0  0  0  0  0  0
   59.0164   27.9569   46.1673 C   0  0  0  0  0  0  0  0  0  0  0  0
   57.7232   28.0169   45.6292 C   0  0  0  0  0  0  0  0  0  0  0  0
   57.2134   29.2131   45.1396 O   0  0  0  0  0  0  0  0  0  0  0  0
   56.9634   26.8937   45.5623 N   0  0  0  0  0  0  0  0  0  0  0  0
   57.4309   25.7021   46.0170 C   0  0  0  0  0  0  0  0  0  0  0  0
   56.7197   24.6664   45.9197 O   0  0  0  0  0  0  0  0  0  0  0  0
   58.6740   25.6211   46.5578 N   0  0  0  0  0  0  0  0  0  0  0  0
   59.4742   26.7175   46.6449 C   0  0  0  0  0  0  0  0  0  0  0  0
   60.6199   26.6052   47.1592 O   0  0  0  0  0  0  0  0  0  0  0  0
   61.5050   32.9765   49.8558 C   0  0  0  0  0  0  0  0  0  0  0  0
   61.7887   34.1793   49.5957 O   0  0  0  0  0  0  0  0  0  0  0  0
   62.3911   31.9226   49.3681 N   0  0  0  0  0  0  0  0  0  0  0  0
   63.5426   32.3644   48.5464 C   0  0  0  0  0  0  0  0  0  0  0  0
   64.6279   33.0920   49.3571 C   0  0  0  0  0  0  0  0  0  0  0  0
   65.0966   32.2305   50.5476 C   0  0  0  0  0  0  0  0  0  0  0  0
   63.8879   31.7604   51.3713 C   0  0  0  0  0  0  0  0  0  0  0  0
   62.8606   31.0520   50.4713 C   0  0  0  0  0  0  0  0  0  0  0  0
   61.9110   31.1247   49.0486 H   0  0  0  0  0  0  0  0  0  0  0  0
   66.1050   32.8960   51.4156 N   0  0  0  0  0  0  0  0  0  0  0  0
   67.4104   33.0541   50.7366 C   0  0  0  0  0  0  0  0  0  0  0  0
   68.2609   34.1676   51.3796 C   0  0  0  0  0  0  0  0  0  0  0  0
   68.0509   34.2033   52.7758 O   0  0  0  0  0  0  0  0  0  0  0  0
   66.7219   34.6051   53.0855 C   0  0  0  0  0  0  0  0  0  0  0  0
   65.6667   34.1515   52.0528 C   0  0  0  0  0  0  0  0  0  0  0  0
  7  8  2  0
  8  9  1  0
  9 10  2  0
 10 15  1  0
 15 16  2  0
 16 17  1  0
 16 18  1  0
 18 19  1  0
 19 20  2  0
 19 21  1  0
 21 22  1  0
 22 23  2  0
  9 11  1  0
 11 12  2  0
 12 13  1  0
 12 14  1  0
 14  1  1  0
  1  2  2  0
  2  3  1  0
  3  4  2  0
  4  5  1  0
  5  6  2  0
  6 24  1  0
 24 25  2  0
 26 24  1  0
 26 27  1  0
 27 28  1  0
 28 29  1  0
 29 33  1  0
 33 34  1  0
 34 35  1  0
 35 36  1  0
 36 37  1  0
 37 38  1  0
 29 30  1  0
 30 31  1  0
 14  8  1  0
  6  1  1  0
 31 26  1  0
 22 15  1  0
 38 33  1  0
 26 32  1  0
M  CHG 1  17  -1
M  CHG 1  18  -1
M  CHG 1  21  -1
M  CHG 1  26   1
M  END
> <UniqueID>
41

> <SMILES>
C=c1/c(=C/c2c([O-])[n-]c(=O)[n-]c2=O)cc(C)n1-c1ccccc1C(=O)[NH+]1CCC(N2CCOCC2)CC1

> <Energy>
145.54765698958437

> <Genealogy>
C=c1c(=Cc2c([O-])[n-]c(=O)[n-]c2=O)cc(C)n1-c1ccccc1C(=O)[NH+]1CCC(N2CCOCC2)CC1 (protonated)
C=c1/c(=C/c2c([O-])[n-]c(=O)[n-]c2=O)cc(C)n1-c1ccccc1C(=O)[NH+]1CCC(N2CCOCC2)CC1 (cis-trans isomerization)
C=c1/c(=C/c2c([O-])[n-]c(=O)[n-]c2=O)cc(C)n1-c1ccccc1C(=O)[NH+]1CCC(N2CCOCC2)CC1 (3D coordinates assigned)
C=c1/c(=C/c2c([O-])[n-]c(=O)[n-]c2=O)cc(C)n1-c1ccccc1C(=O)[NH+]1CCC(N2CCOCC2)CC1 (nonaromatic ring conformer: 145.54765698958437 kcal/mol)

> <smiles>
C=c1c(=Cc2c(O)[nH]c(=O)[nH]c2=O)cc(C)n1-c1ccccc1C(=O)N1CCC(N2CCOCC2)CC1

> <score_type>
oracle

> <origin>
adg

> <m_score__min__energy>
-16.370000000000001

> <m_primary>
energy

> <minimizedAffinity>
-8.85724

> <minimizedRMSD>
1.96681

> <CNNscore>
0.3737548590

> <CNNaffinity>
7.5492281914

> <CNN_VS>
2.8215606213

> <CNNaffinity_variance>
0.1054264829

$$$$
54:0


 34 37  0  0  0  0  0  0  0  0999 V2000
   60.3983   29.1104   45.3882 C   0  0  0  0  0  0  0  0  0  0  0  0
   60.2408   28.8677   46.6991 C   0  0  0  0  0  0  0  0  0  0  0  0
   59.8958   27.6462   47.2989 C   0  0  0  0  0  0  0  0  0  0  0  0
   59.4350   26.4984   46.7672 C   0  0  0  0  0  0  0  0  0  0  0  0
   60.0993   27.8146   48.6586 C   0  0  0  0  0  0  0  0  0  0  0  0
   60.4837   29.1258   48.8512 C   0  0  0  0  0  0  0  0  0  0  0  0
   60.5555   29.7693   47.6634 N   0  0  0  0  0  0  0  0  0  0  0  0
   58.0220   26.0919   46.7072 C   0  0  0  0  0  0  0  0  0  0  0  0
   57.5527   24.9061   47.1404 N   0  0  0  0  0  0  0  0  0  0  0  0
   56.2574   24.9255   46.7598 C   0  0  0  0  0  0  0  0  0  0  0  0
   55.4659   23.9778   47.0031 O   0  0  0  0  0  0  0  0  0  0  0  0
   55.8782   26.0348   46.0917 N   0  0  0  0  0  0  0  0  0  0  0  0
   57.0095   26.7597   46.0538 C   0  0  0  0  0  0  0  0  0  0  0  0
   57.1044   28.0018   45.4341 O   0  0  0  0  0  0  0  0  0  0  0  0
   56.3543   28.3743   45.0139 H   0  0  0  0  0  0  0  0  0  0  0  0
   61.0450   31.1067   47.4530 C   0  0  0  0  0  0  0  0  0  0  0  0
   62.4317   31.3252   47.4779 C   0  0  0  0  0  0  0  0  0  0  0  0
   62.9532   32.5955   47.2398 C   0  0  0  0  0  0  0  0  0  0  0  0
   62.0966   33.6622   46.9697 C   0  0  0  0  0  0  0  0  0  0  0  0
   60.7138   33.4607   46.9439 C   0  0  0  0  0  0  0  0  0  0  0  0
   60.1657   32.1885   47.1903 C   0  0  0  0  0  0  0  0  0  0  0  0
   58.6883   32.0302   47.1811 C   0  0  0  0  0  0  0  0  0  0  0  0
   57.9896   32.3739   48.1714 O   0  0  0  0  0  0  0  0  0  0  0  0
   58.0469   31.5180   46.0587 O   0  0  0  0  0  0  0  0  0  0  0  0
   60.7654   29.7191   50.1739 C   0  0  0  0  0  0  0  0  0  0  0  0
   61.8976   30.2143   50.4239 O   0  0  0  0  0  0  0  0  0  0  0  0
   59.7576   29.7379   51.1450 O   0  0  0  0  0  0  0  0  0  0  0  0
   58.6724   30.6627   51.1277 C   0  0  0  0  0  0  0  0  0  0  0  0
   58.8850   31.7366   52.1592 C   0  0  0  0  0  0  0  0  0  0  0  0
   58.6738   33.0848   51.8212 C   0  0  0  0  0  0  0  0  0  0  0  0
   58.8404   34.0857   52.7828 C   0  0  0  0  0  0  0  0  0  0  0  0
   59.2130   33.7486   54.0878 C   0  0  0  0  0  0  0  0  0  0  0  0
   59.4190   32.4106   54.4328 C   0  0  0  0  0  0  0  0  0  0  0  0
   59.2551   31.4063   53.4744 C   0  0  0  0  0  0  0  0  0  0  0  0
  1  2  2  0
  2  3  1  0
  3  4  2  0
  4  8  1  0
  8  9  1  0
  9 10  1  0
 10 11  2  0
 10 12  1  0
 12 13  1  0
 13 14  1  0
  3  5  1  0
  5  6  2  0
  6 25  1  0
 25 26  2  0
 25 27  1  0
 27 28  1  0
 28 29  1  0
 29 30  2  0
 30 31  1  0
 31 32  2  0
 32 33  1  0
 33 34  2  0
  6  7  1  0
  7 16  1  0
 16 17  2  0
 17 18  1  0
 18 19  2  0
 19 20  1  0
 20 21  2  0
 21 22  1  0
 22 23  2  0
 22 24  1  0
  7  2  1  0
 21 16  1  0
 13  8  2  0
 34 29  1  0
 14 15  1  0
M  CHG 1   9  -1
M  CHG 1  12  -1
M  CHG 1  24  -1
M  END
> <UniqueID>
49

> <SMILES>
C=c1c(=Cc2[n-]c(=O)[n-]c2O)cc(C(=O)OCc2ccccc2)n1-c1ccccc1C(=O)[O-]

> <Energy>
129.91464591888823

> <Genealogy>
C=c1c(=Cc2[n-]c(=O)[n-]c2O)cc(C(=O)OCc2ccccc2)n1-c1ccccc1C(=O)[O-] (protonated)
C=c1c(=Cc2[n-]c(=O)[n-]c2O)cc(C(=O)OCc2ccccc2)n1-c1ccccc1C(=O)[O-] (3D coordinates assigned)
C=c1c(=Cc2[n-]c(=O)[n-]c2O)cc(C(=O)OCc2ccccc2)n1-c1ccccc1C(=O)[O-] (optimized conformer: 129.91464591888823 kcal/mol)

> <smiles>
C=c1c(=Cc2[nH]c(=O)[nH]c2O)cc(C(=O)OCc2ccccc2)n1-c1ccccc1C(=O)O

> <score_type>
oracle

> <origin>
adg

> <m_score__min__energy>
-14.470000000000001

> <m_primary>
energy

> <minimizedAffinity>
-8.62764

> <minimizedRMSD>
1.04156

> <CNNscore>
0.8173615336

> <CNNaffinity>
6.7234382629

> <CNN_VS>
5.4954795837

> <CNNaffinity_variance>
0.0025866057

$$$$
55:0


 34 38  0  0  0  0  0  0  0  0999 V2000
   59.5344   30.2447   46.9736 C   0  0  0  0  0  0  0  0  0  0  0  0
   58.7823   30.8822   47.9694 C   0  0  0  0  0  0  0  0  0  0  0  0
   59.3878   31.8020   48.8290 C   0  0  0  0  0  0  0  0  0  0  0  0
   60.7538   32.1050   48.7021 C   0  0  0  0  0  0  0  0  0  0  0  0
   61.5082   31.4521   47.7107 C   0  0  0  0  0  0  0  0  0  0  0  0
   60.9011   30.5330   46.8510 C   0  0  0  0  0  0  0  0  0  0  0  0
   61.4005   33.0756   49.6171 C   0  0  0  0  0  0  0  0  0  0  0  0
   61.0776   34.2941   49.5627 O   0  0  0  0  0  0  0  0  0  0  0  0
   62.4041   32.6534   50.5549 N   0  0  0  0  0  0  0  0  0  0  0  0
   62.0660   32.5314   51.9734 C   0  0  0  0  0  0  0  0  0  0  0  0
   63.2146   33.0804   52.8158 C   0  0  0  0  0  0  0  0  0  0  0  0
   64.5509   32.5433   52.3662 C   0  0  0  0  0  0  0  0  0  0  0  0
   65.6431   32.6043   53.2467 C   0  0  0  0  0  0  0  0  0  0  0  0
   66.9059   32.1705   52.8383 C   0  0  0  0  0  0  0  0  0  0  0  0
   67.0943   31.6838   51.5437 C   0  0  0  0  0  0  0  0  0  0  0  0
   66.0212   31.6313   50.6516 C   0  0  0  0  0  0  0  0  0  0  0  0
   64.7474   32.0713   51.0461 C   0  0  0  0  0  0  0  0  0  0  0  0
   63.6024   31.9598   50.0690 C   0  0  0  0  0  0  0  0  0  0  0  0
   59.1188   27.3432   47.4253 C   0  0  0  0  0  0  0  0  0  0  0  0
   58.7887   27.9567   46.2776 C   0  0  0  0  0  0  0  0  0  0  0  0
   58.1294   27.3904   45.1738 C   0  0  0  0  0  0  0  0  0  0  0  0
   57.8479   26.1074   44.8757 C   0  0  0  0  0  0  0  0  0  0  0  0
   57.7872   28.4458   44.3449 C   0  0  0  0  0  0  0  0  0  0  0  0
   58.3000   29.5896   44.9184 C   0  0  0  0  0  0  0  0  0  0  0  0
   58.1747   30.9646   44.3331 C   0  0  0  0  0  0  0  0  0  0  0  0
   58.9080   29.2966   46.0905 N   0  0  0  0  0  0  0  0  0  0  0  0
   57.2019   25.1399   45.7748 C   0  0  0  0  0  0  0  0  0  0  0  0
   57.8554   24.1244   46.3656 N   0  0  0  0  0  0  0  0  0  0  0  0
   56.9230   23.5846   47.1808 C   0  0  0  0  0  0  0  0  0  0  0  0
   57.1539   22.5813   47.9050 O   0  0  0  0  0  0  0  0  0  0  0  0
   55.7273   24.2130   47.1696 N   0  0  0  0  0  0  0  0  0  0  0  0
   55.9251   25.2053   46.2852 C   0  0  0  0  0  0  0  0  0  0  0  0
   54.9692   26.1652   45.9691 O   0  0  0  0  0  0  0  0  0  0  0  0
   54.1216   26.1312   46.3673 H   0  0  0  0  0  0  0  0  0  0  0  0
 19 20  2  0
 20 21  1  0
 21 22  2  0
 22 27  1  0
 27 28  1  0
 28 29  1  0
 29 30  2  0
 29 31  1  0
 31 32  1  0
 32 33  1  0
 21 23  1  0
 23 24  2  0
 24 25  1  0
 24 26  1  0
 26  1  1  0
  1  2  2  0
  2  3  1  0
  3  4  2  0
  4  7  1  0
  7  8  2  0
  7  9  1  0
  9 10  1  0
 10 11  1  0
 11 12  1  0
 12 13  2  0
 13 14  1  0
 14 15  2  0
 15 16  1  0
 16 17  2  0
 17 18  1  0
  4  5  1  0
  5  6  2  0
 26 20  1  0
  6  1  1  0
 32 27  2  0
 18  9  1  0
 17 12  1  0
 33 34  1  0
M  CHG 1  28  -1
M  CHG 1  31  -1
M  END
> <UniqueID>
50

> <SMILES>
C=c1c(=Cc2[n-]c(=O)[n-]c2O)cc(C)n1-c1ccc(C(=O)N2CCc3ccccc3C2)cc1

> <Energy>
141.6587184337939

> <Genealogy>
C=c1c(=Cc2[n-]c(=O)[n-]c2O)cc(C)n1-c1ccc(C(=O)N2CCc3ccccc3C2)cc1 (protonated)
C=c1c(=Cc2[n-]c(=O)[n-]c2O)cc(C)n1-c1ccc(C(=O)N2CCc3ccccc3C2)cc1 (3D coordinates assigned)
C=c1c(=Cc2[n-]c(=O)[n-]c2O)cc(C)n1-c1ccc(C(=O)N2CCc3ccccc3C2)cc1 (nonaromatic ring conformer: 141.6587184337939 kcal/mol)

> <smiles>
C=c1c(=Cc2[nH]c(=O)[nH]c2O)cc(C)n1-c1ccc(C(=O)N2CCc3ccccc3C2)cc1

> <score_type>
oracle

> <origin>
adg

> <m_score__min__energy>
-14.6

> <m_primary>
energy

> <minimizedAffinity>
-9.92929

> <minimizedRMSD>
1.04941

> <CNNscore>
0.3015119135

> <CNNaffinity>
6.9246101379

> <CNN_VS>
2.0878524780

> <CNNaffinity_variance>
0.0787390918

$$$$
56:0


 33 36  0  0  0  0  0  0  0  0999 V2000
   58.5295   29.7605   53.1826 C   0  0  0  0  0  0  0  0  0  0  0  0
   58.7438   29.4501   54.5326 C   0  0  0  0  0  0  0  0  0  0  0  0
   59.9645   28.9287   54.9565 C   0  0  0  0  0  0  0  0  0  0  0  0
   60.9861   28.6928   54.0306 C   0  0  0  0  0  0  0  0  0  0  0  0
   60.7973   29.0373   52.6864 C   0  0  0  0  0  0  0  0  0  0  0  0
   59.5733   29.5723   52.2422 C   0  0  0  0  0  0  0  0  0  0  0  0
   55.9829   28.2661   53.2980 C   0  0  0  0  0  0  0  0  0  0  0  0
   56.0693   29.5094   52.8012 C   0  0  0  0  0  0  0  0  0  0  0  0
   55.0120   30.3382   52.3949 C   0  0  0  0  0  0  0  0  0  0  0  0
   53.7109   30.0671   52.1793 C   0  0  0  0  0  0  0  0  0  0  0  0
   55.5565   31.6004   52.2131 C   0  0  0  0  0  0  0  0  0  0  0  0
   56.9132   31.4856   52.4299 C   0  0  0  0  0  0  0  0  0  0  0  0
   57.8910   32.6162   52.3535 C   0  0  0  0  0  0  0  0  0  0  0  0
   57.2271   30.2176   52.7775 N   0  0  0  0  0  0  0  0  0  0  0  0
   52.5796   30.6884   52.8894 C   0  0  0  0  0  0  0  0  0  0  0  0
   52.3199   30.5363   54.2013 N   0  0  0  0  0  0  0  0  0  0  0  0
   51.1323   31.1612   54.3583 C   0  0  0  0  0  0  0  0  0  0  0  0
   50.5546   31.2480   55.4729 O   0  0  0  0  0  0  0  0  0  0  0  0
   50.6066   31.6743   53.2245 N   0  0  0  0  0  0  0  0  0  0  0  0
   51.5289   31.3535   52.3031 C   0  0  0  0  0  0  0  0  0  0  0  0
   51.4103   31.6543   50.9526 O   0  0  0  0  0  0  0  0  0  0  0  0
   59.4215   29.9334   50.8103 C   0  0  0  0  0  0  0  0  0  0  0  0
   58.5941   29.3186   50.0841 O   0  0  0  0  0  0  0  0  0  0  0  0
   60.2037   30.9267   50.2338 O   0  0  0  0  0  0  0  0  0  0  0  0
   62.2774   28.1305   54.4691 C   0  0  0  0  0  0  0  0  0  0  0  0
   63.2340   28.9300   54.6643 O   0  0  0  0  0  0  0  0  0  0  0  0
   62.4771   26.7070   54.6869 N   0  0  0  0  0  0  0  0  0  0  0  0
   61.3733   25.8865   54.1251 C   0  0  0  0  0  0  0  0  0  0  0  0
   61.7246   25.2507   52.7678 C   0  0  0  0  0  0  0  0  0  0  0  0
   62.6676   26.0363   52.0771 O   0  0  0  0  0  0  0  0  0  0  0  0
   63.9163   25.9724   52.7369 C   0  0  0  0  0  0  0  0  0  0  0  0
   63.8187   26.2492   54.2579 C   0  0  0  0  0  0  0  0  0  0  0  0
   63.3975   26.6281   54.3465 H   0  0  0  0  0  0  0  0  0  0  0  0
  7  8  2  0
  8  9  1  0
  9 10  2  0
 10 15  1  0
 15 16  1  0
 16 17  1  0
 17 18  2  0
 17 19  1  0
 19 20  1  0
 20 21  1  0
  9 11  1  0
 11 12  2  0
 12 13  1  0
 12 14  1  0
 14  1  1  0
  1  2  2  0
  2  3  1  0
  3  4  2  0
  4 25  1  0
 25 26  2  0
 25 27  1  0
 27 28  1  0
 28 29  1  0
 29 30  1  0
 30 31  1  0
 31 32  1  0
  4  5  1  0
  5  6  2  0
  6 22  1  0
 22 23  2  0
 22 24  1  0
 14  8  1  0
  6  1  1  0
 20 15  2  0
 32 27  1  0
 27 33  1  0
M  CHG 1  16  -1
M  CHG 1  19  -1
M  CHG 1  21  -1
M  CHG 1  24  -1
M  CHG 1  27   1
M  END
> <UniqueID>
51

> <SMILES>
C=c1c(=Cc2[n-]c(=O)[n-]c2[O-])cc(C)n1-c1ccc(C(=O)[NH+]2CCOCC2)cc1C(=O)[O-]

> <Energy>
153.30277347784352

> <Genealogy>
C=c1c(=Cc2[n-]c(=O)[n-]c2[O-])cc(C)n1-c1ccc(C(=O)[NH+]2CCOCC2)cc1C(=O)[O-] (protonated)
C=c1c(=Cc2[n-]c(=O)[n-]c2[O-])cc(C)n1-c1ccc(C(=O)[NH+]2CCOCC2)cc1C(=O)[O-] (3D coordinates assigned)
C=c1c(=Cc2[n-]c(=O)[n-]c2[O-])cc(C)n1-c1ccc(C(=O)[NH+]2CCOCC2)cc1C(=O)[O-] (nonaromatic ring conformer: 153.30277347784352 kcal/mol)

> <smiles>
C=c1c(=Cc2[nH]c(=O)[nH]c2O)cc(C)n1-c1ccc(C(=O)N2CCOCC2)cc1C(=O)O

> <score_type>
oracle

> <origin>
adg

> <m_score__min__energy>
-16.260000000000002

> <m_primary>
energy

> <minimizedAffinity>
-4.61134

> <minimizedRMSD>
1.91792

> <CNNscore>
0.2089575231

> <CNNaffinity>
4.9823989868

> <CNN_VS>
1.0411098003

> <CNNaffinity_variance>
0.2866266668

$$$$
64:0


 27 29  0  0  0  0  0  0  0  0999 V2000
   57.7467   29.4671   44.9644 N   0  0  0  0  0  0  0  0  0  0  0  0
   56.4884   29.0123   44.8000 C   0  0  0  0  0  0  0  0  0  0  0  0
   55.4808   29.7632   44.7228 O   0  0  0  0  0  0  0  0  0  0  0  0
   56.4011   27.6681   44.7417 N   0  0  0  0  0  0  0  0  0  0  0  0
   57.6780   27.2465   44.8796 C   0  0  0  0  0  0  0  0  0  0  0  0
   58.0420   25.9513   44.8736 C   0  0  0  0  0  0  0  0  0  0  0  0
   58.5166   28.3554   45.0159 C   0  0  0  0  0  0  0  0  0  0  0  0
   59.8516   28.3587   45.1409 C   0  0  0  0  0  0  0  0  0  0  0  0
   57.4303   24.9259   45.7441 C   0  0  0  0  0  0  0  0  0  0  0  0
   58.0150   23.7744   46.1243 N   0  0  0  0  0  0  0  0  0  0  0  0
   57.0767   23.1876   46.8995 C   0  0  0  0  0  0  0  0  0  0  0  0
   57.2552   22.0705   47.4514 O   0  0  0  0  0  0  0  0  0  0  0  0
   55.9338   23.8918   47.0361 N   0  0  0  0  0  0  0  0  0  0  0  0
   56.1745   24.9870   46.2979 C   0  0  0  0  0  0  0  0  0  0  0  0
   55.2634   26.0247   46.1371 O   0  0  0  0  0  0  0  0  0  0  0  0
   58.6990   31.3214   46.2856 C   0  0  0  0  0  0  0  0  0  0  0  0
   59.1040   32.6691   46.3744 C   0  0  0  0  0  0  0  0  0  0  0  0
   58.9586   33.5337   45.2718 C   0  0  0  0  0  0  0  0  0  0  0  0
   58.4103   33.0401   44.0839 C   0  0  0  0  0  0  0  0  0  0  0  0
   58.0105   31.7065   43.9876 C   0  0  0  0  0  0  0  0  0  0  0  0
   58.1507   30.8426   45.0830 C   0  0  0  0  0  0  0  0  0  0  0  0
   59.3455   34.8812   45.3146 O   0  0  0  0  0  0  0  0  0  0  0  0
   59.6838   35.5852   46.5049 C   0  0  0  0  0  0  0  0  0  0  0  0
   58.8151   30.4369   47.3692 O   0  0  0  0  0  0  0  0  0  0  0  0
   59.9289   30.3810   48.2566 C   0  0  0  0  0  0  0  0  0  0  0  0
   60.3450   27.9824   48.6860 C   0  0  0  0  0  0  0  0  0  0  0  0
   59.8337   29.1460   49.0995 C   0  0  0  0  0  0  0  0  0  0  0  0
 26 27  2  0
 27 25  1  0
 25 24  1  0
 24 16  1  0
 16 17  2  0
 17 18  1  0
 18 22  1  0
 22 23  1  0
 18 19  2  0
 19 20  1  0
 20 21  2  0
 21  1  1  0
  1  2  1  0
  2  3  2  0
  2  4  1  0
  4  5  1  0
  5  6  2  0
  6  9  1  0
  9 10  1  0
 10 11  1  0
 11 12  2  0
 11 13  1  0
 13 14  1  0
 14 15  1  0
  5  7  1  0
  7  8  2  0
 21 16  1  0
  7  1  1  0
 14  9  2  0
M  CHG 1   4  -1
M  CHG 1  10  -1
M  CHG 1  13  -1
M  CHG 1  15  -1
M  END
> <UniqueID>
58

> <SMILES>
C=CCOc1cc(OC)ccc1-n1c(=O)[n-]c(=Cc2[n-]c(=O)[n-]c2[O-])c1=C

> <Energy>
109.86148932111185

> <Genealogy>
C=CCOc1cc(OC)ccc1-n1c(=O)[n-]c(=Cc2[n-]c(=O)[n-]c2[O-])c1=C (protonated)
C=CCOc1cc(OC)ccc1-n1c(=O)[n-]c(=Cc2[n-]c(=O)[n-]c2[O-])c1=C (3D coordinates assigned)
C=CCOc1cc(OC)ccc1-n1c(=O)[n-]c(=Cc2[n-]c(=O)[n-]c2[O-])c1=C (optimized conformer: 109.86148932111185 kcal/mol)

> <smiles>
C=CCOc1cc(OC)ccc1-n1c(=O)[nH]c(=Cc2[nH]c(=O)[nH]c2O)c1=C

> <score_type>
oracle

> <origin>
adg

> <m_score__min__energy>
-16.050000000000001

> <m_primary>
energy

> <minimizedAffinity>
-6.09177

> <minimizedRMSD>
0.73839

> <CNNscore>
0.1616753042

> <CNNaffinity>
6.1366448402

> <CNN_VS>
0.9921439290

> <CNNaffinity_variance>
0.1404250264

$$$$
73:0


 35 38  0  0  0  0  0  0  0  0999 V2000
   59.6407   28.4670   45.2603 C   0  0  0  0  0  0  0  0  0  0  0  0
   60.3280   29.4342   46.0111 C   0  0  0  0  0  0  0  0  0  0  0  0
   59.8582   30.7469   46.0678 C   0  0  0  0  0  0  0  0  0  0  0  0
   58.6957   31.1099   45.3789 C   0  0  0  0  0  0  0  0  0  0  0  0
   58.0393   30.1649   44.5814 C   0  0  0  0  0  0  0  0  0  0  0  0
   58.5102   28.8499   44.5196 C   0  0  0  0  0  0  0  0  0  0  0  0
   57.9830   32.6921   45.6605 S   0  0  0  0  0  0  0  0  0  0  0  0
   58.7606   33.7238   44.8939 O   0  0  0  0  0  0  0  0  0  0  0  0
   56.5568   32.7170   45.1837 O   0  0  0  0  0  0  0  0  0  0  0  0
   58.0535   33.0698   47.3589 N   0  0  0  0  0  0  0  0  0  0  0  0
   58.9792   34.1756   47.6286 C   0  0  0  0  0  0  0  0  0  0  0  0
   59.9078   33.8607   48.8102 C   0  0  0  0  0  0  0  0  0  0  0  0
   61.2523   33.3542   48.3574 C   0  0  0  0  0  0  0  0  0  0  0  0
   61.8111   33.7983   47.1460 C   0  0  0  0  0  0  0  0  0  0  0  0
   63.0659   33.3356   46.7375 C   0  0  0  0  0  0  0  0  0  0  0  0
   63.7695   32.4273   47.5320 C   0  0  0  0  0  0  0  0  0  0  0  0
   63.2232   31.9824   48.7384 C   0  0  0  0  0  0  0  0  0  0  0  0
   61.9697   32.4442   49.1530 C   0  0  0  0  0  0  0  0  0  0  0  0
   60.0327   27.0175   45.3574 C   0  0  0  0  0  0  0  0  0  0  0  0
   57.9534   25.1039   44.2589 C   0  0  0  0  0  0  0  0  0  0  0  0
   58.1584   25.3068   45.5704 C   0  0  0  0  0  0  0  0  0  0  0  0
   57.4630   24.6896   46.6236 C   0  0  0  0  0  0  0  0  0  0  0  0
   56.6395   23.6239   46.6355 C   0  0  0  0  0  0  0  0  0  0  0  0
   57.8246   25.3647   47.7735 C   0  0  0  0  0  0  0  0  0  0  0  0
   58.7653   26.3035   47.4101 C   0  0  0  0  0  0  0  0  0  0  0  0
   59.5173   27.1502   48.3936 C   0  0  0  0  0  0  0  0  0  0  0  0
   58.9847   26.2667   46.0731 N   0  0  0  0  0  0  0  0  0  0  0  0
   55.2620   23.6030   46.1149 C   0  0  0  0  0  0  0  0  0  0  0  0
   54.5132   22.4911   45.9879 N   0  0  0  0  0  0  0  0  0  0  0  0
   53.3065   22.9684   45.6177 C   0  0  0  0  0  0  0  0  0  0  0  0
   52.3238   22.2174   45.3833 O   0  0  0  0  0  0  0  0  0  0  0  0
   53.2330   24.3122   45.5259 N   0  0  0  0  0  0  0  0  0  0  0  0
   54.4739   24.7021   45.8572 C   0  0  0  0  0  0  0  0  0  0  0  0
   54.8675   26.0359   45.9186 O   0  0  0  0  0  0  0  0  0  0  0  0
   54.2523   26.7153   45.7239 H   0  0  0  0  0  0  0  0  0  0  0  0
 20 21  2  0
 21 22  1  0
 22 23  2  0
 23 28  1  0
 28 29  1  0
 29 30  1  0
 30 31  2  0
 30 32  1  0
 32 33  1  0
 33 34  1  0
 22 24  1  0
 24 25  2  0
 25 26  1  0
 25 27  1  0
 27 19  1  0
 19  1  1  0
  1  2  2  0
  2  3  1  0
  3  4  2  0
  4  7  1  0
  7  8  2  0
  7  9  2  0
  7 10  1  0
 10 11  1  0
 11 12  1  0
 12 13  1  0
 13 14  2  0
 14 15  1  0
 15 16  2  0
 16 17  1  0
 17 18  2  0
  4  5  1  0
  5  6  2  0
 27 21  1  0
  6  1  1  0
 33 28  2  0
 18 13  1  0
 34 35  1  0
M  CHG 1  10  -1
M  CHG 1  29  -1
M  CHG 1  32  -1
M  END
> <UniqueID>
66

> <SMILES>
C=c1c(=Cc2[n-]c(=O)[n-]c2O)cc(C)n1Cc1ccc(S(=O)(=O)[N-]CCc2ccccc2)cc1

> <Energy>
122.99625179452241

> <Genealogy>
C=c1c(=Cc2[n-]c(=O)[n-]c2O)cc(C)n1Cc1ccc(S(=O)(=O)[N-]CCc2ccccc2)cc1 (protonated)
C=c1c(=Cc2[n-]c(=O)[n-]c2O)cc(C)n1Cc1ccc(S(=O)(=O)[N-]CCc2ccccc2)cc1 (3D coordinates assigned)
C=c1c(=Cc2[n-]c(=O)[n-]c2O)cc(C)n1Cc1ccc(S(=O)(=O)[N-]CCc2ccccc2)cc1 (optimized conformer: 122.99625179452241 kcal/mol)

> <smiles>
C=c1c(=Cc2[nH]c(=O)[nH]c2O)cc(C)n1Cc1ccc(S(=O)(=O)NCCc2ccccc2)cc1

> <score_type>
oracle

> <origin>
adg

> <m_score__min__energy>
-15.25

> <m_primary>
energy

> <minimizedAffinity>
-7.15212

> <minimizedRMSD>
0.45683

> <CNNscore>
0.2571852803

> <CNNaffinity>
6.8728561401

> <CNN_VS>
1.7675974369

> <CNNaffinity_variance>
0.0252119061

$$$$
74:0


 32 35  0  0  0  0  0  0  0  0999 V2000
   58.8194   30.2108   46.1323 C   0  0  0  0  0  0  0  0  0  0  0  0
   59.8569   31.0736   46.5160 C   0  0  0  0  0  0  0  0  0  0  0  0
   59.7935   32.4401   46.2336 C   0  0  0  0  0  0  0  0  0  0  0  0
   58.6769   32.9445   45.5400 C   0  0  0  0  0  0  0  0  0  0  0  0
   57.6395   32.0928   45.1561 C   0  0  0  0  0  0  0  0  0  0  0  0
   57.6978   30.7197   45.4542 C   0  0  0  0  0  0  0  0  0  0  0  0
   59.0230   27.9332   44.2413 C   0  0  0  0  0  0  0  0  0  0  0  0
   58.9204   27.7714   45.5706 C   0  0  0  0  0  0  0  0  0  0  0  0
   58.9838   26.5622   46.2836 C   0  0  0  0  0  0  0  0  0  0  0  0
   58.9457   25.2852   45.8587 C   0  0  0  0  0  0  0  0  0  0  0  0
   59.0875   26.9072   47.6219 C   0  0  0  0  0  0  0  0  0  0  0  0
   59.0030   28.2829   47.6886 C   0  0  0  0  0  0  0  0  0  0  0  0
   59.0546   29.0783   48.9564 C   0  0  0  0  0  0  0  0  0  0  0  0
   58.9016   28.8084   46.4468 N   0  0  0  0  0  0  0  0  0  0  0  0
   57.7281   24.5179   45.5573 C   0  0  0  0  0  0  0  0  0  0  0  0
   57.7419   23.2425   45.1315 N   0  0  0  0  0  0  0  0  0  0  0  0
   56.4348   22.9007   45.1249 C   0  0  0  0  0  0  0  0  0  0  0  0
   56.0337   21.7656   44.7609 O   0  0  0  0  0  0  0  0  0  0  0  0
   55.5928   23.8672   45.5472 N   0  0  0  0  0  0  0  0  0  0  0  0
   56.4283   24.8792   45.8338 C   0  0  0  0  0  0  0  0  0  0  0  0
   56.0128   26.0945   46.3626 O   0  0  0  0  0  0  0  0  0  0  0  0
   56.6639   29.8349   45.1030 O   0  0  0  0  0  0  0  0  0  0  0  0
   55.9249   29.8993   43.8881 C   0  0  0  0  0  0  0  0  0  0  0  0
   60.8590   33.2544   46.6532 O   0  0  0  0  0  0  0  0  0  0  0  0
   60.7484   34.3705   47.5366 C   0  0  0  0  0  0  0  0  0  0  0  0
   60.5180   33.8976   48.9757 C   0  0  0  0  0  0  0  0  0  0  0  0
   61.7659   34.0323   49.7626 N   0  0  0  0  0  0  0  0  0  0  0  0
   61.7003   33.3083   51.0500 C   0  0  0  0  0  0  0  0  0  0  0  0
   61.8831   31.7815   50.8755 C   0  0  0  0  0  0  0  0  0  0  0  0
   62.0921   31.4155   49.5257 O   0  0  0  0  0  0  0  0  0  0  0  0
   63.2069   32.1119   49.0125 C   0  0  0  0  0  0  0  0  0  0  0  0
   62.9718   33.6384   49.0032 C   0  0  0  0  0  0  0  0  0  0  0  0
  7  8  2  0
  8  9  1  0
  9 10  2  0
 10 15  1  0
 15 16  1  0
 16 17  1  0
 17 18  2  0
 17 19  1  0
 19 20  1  0
 20 21  1  0
  9 11  1  0
 11 12  2  0
 12 13  1  0
 12 14  1  0
 14  1  1  0
  1  2  2  0
  2  3  1  0
  3 24  1  0
 24 25  1  0
 25 26  1  0
 26 27  1  0
 27 28  1  0
 28 29  1  0
 29 30  1  0
 30 31  1  0
 31 32  1  0
  3  4  2  0
  4  5  1  0
  5  6  2  0
  6 22  1  0
 22 23  1  0
 14  8  1  0
  6  1  1  0
 20 15  2  0
 32 27  1  0
M  CHG 1  16  -1
M  CHG 1  19  -1
M  CHG 1  21  -1
M  END
> <UniqueID>
67

> <SMILES>
C=c1/c(=C\c2[n-]c(=O)[n-]c2[O-])cc(C)n1-c1cc(OCCN2CCOCC2)ccc1OC

> <Energy>
145.96648718234812

> <Genealogy>
C=c1c(=Cc2[n-]c(=O)[n-]c2[O-])cc(C)n1-c1cc(OCCN2CCOCC2)ccc1OC (protonated)
C=c1/c(=C\c2[n-]c(=O)[n-]c2[O-])cc(C)n1-c1cc(OCCN2CCOCC2)ccc1OC (cis-trans isomerization)
C=c1/c(=C\c2[n-]c(=O)[n-]c2[O-])cc(C)n1-c1cc(OCCN2CCOCC2)ccc1OC (3D coordinates assigned)
C=c1/c(=C\c2[n-]c(=O)[n-]c2[O-])cc(C)n1-c1cc(OCCN2CCOCC2)ccc1OC (nonaromatic ring conformer: 145.96648718234812 kcal/mol)

> <smiles>
C=c1c(=Cc2[nH]c(=O)[nH]c2O)cc(C)n1-c1cc(OCCN2CCOCC2)ccc1OC

> <score_type>
oracle

> <origin>
adg

> <m_score__min__energy>
-16.289999999999999

> <m_primary>
energy

> <minimizedAffinity>
-8.16387

> <minimizedRMSD>
1.19117

> <CNNscore>
0.1601570100

> <CNNaffinity>
6.2967734337

> <CNN_VS>
1.0084724426

> <CNNaffinity_variance>
0.1427615881

$$$$
75:0


 32 35  0  0  0  0  0  0  0  0999 V2000
   61.0343   30.0521   46.9053 C   0  0  0  0  0  0  0  0  0  0  0  0
   60.2027   31.0657   46.6168 C   0  0  0  0  0  0  0  0  0  0  0  0
   59.2101   31.1043   45.6202 C   0  0  0  0  0  0  0  0  0  0  0  0
   58.7566   30.1513   44.7812 C   0  0  0  0  0  0  0  0  0  0  0  0
   58.6938   32.3909   45.6347 C   0  0  0  0  0  0  0  0  0  0  0  0
   59.3427   33.0713   46.6442 C   0  0  0  0  0  0  0  0  0  0  0  0
   59.0960   34.5041   47.0060 C   0  0  0  0  0  0  0  0  0  0  0  0
   60.2511   32.2704   47.2418 N   0  0  0  0  0  0  0  0  0  0  0  0
   58.2536   28.8232   45.1815 C   0  0  0  0  0  0  0  0  0  0  0  0
   56.8764   28.5723   45.2895 C   0  0  0  0  0  0  0  0  0  0  0  0
   55.9496   29.5821   45.0544 O   0  0  0  0  0  0  0  0  0  0  0  0
   56.4382   27.3311   45.6240 N   0  0  0  0  0  0  0  0  0  0  0  0
   57.3138   26.3151   45.8425 C   0  0  0  0  0  0  0  0  0  0  0  0
   56.8851   25.1745   46.1557 O   0  0  0  0  0  0  0  0  0  0  0  0
   58.6495   26.5283   45.7201 N   0  0  0  0  0  0  0  0  0  0  0  0
   59.1356   27.7518   45.3869 C   0  0  0  0  0  0  0  0  0  0  0  0
   60.3805   27.9124   45.2745 O   0  0  0  0  0  0  0  0  0  0  0  0
   61.1426   32.6686   48.2985 C   0  0  0  0  0  0  0  0  0  0  0  0
   60.7379   32.5661   49.6350 C   0  0  0  0  0  0  0  0  0  0  0  0
   61.6014   32.9501   50.6657 C   0  0  0  0  0  0  0  0  0  0  0  0
   62.8825   33.4526   50.3721 C   0  0  0  0  0  0  0  0  0  0  0  0
   63.2817   33.5495   49.0263 C   0  0  0  0  0  0  0  0  0  0  0  0
   62.4172   33.1646   47.9996 C   0  0  0  0  0  0  0  0  0  0  0  0
   63.8156   33.8556   51.4559 C   0  0  0  0  0  0  0  0  0  0  0  0
   63.7821   35.0468   51.8755 O   0  0  0  0  0  0  0  0  0  0  0  0
   64.7960   32.9201   51.9754 N   0  0  0  0  0  0  0  0  0  0  0  0
   66.1874   33.1635   51.5581 C   0  0  0  0  0  0  0  0  0  0  0  0
   66.2520   31.8639   50.7708 C   0  0  0  0  0  0  0  0  0  0  0  0
   67.1366   30.9448   51.3506 O   0  0  0  0  0  0  0  0  0  0  0  0
   64.8146   31.6551   51.2286 C   0  0  0  0  0  0  0  0  0  0  0  0
   65.6579   32.6493   52.3666 H   0  0  0  0  0  0  0  0  0  0  0  0
   66.9706   30.8942   52.3049 H   0  0  0  0  0  0  0  0  0  0  0  0
  1  2  2  0
  2  3  1  0
  3  4  2  0
  4  9  1  0
  9 10  2  0
 10 11  1  0
 10 12  1  0
 12 13  1  0
 13 14  2  0
 13 15  1  0
 15 16  1  0
 16 17  2  0
  3  5  1  0
  5  6  2  0
  6  7  1  0
  6  8  1  0
  8 18  1  0
 18 19  2  0
 19 20  1  0
 20 21  2  0
 21 24  1  0
 24 25  2  0
 26 24  1  0
 26 27  1  0
 27 28  1  0
 28 29  1  0
 28 30  1  0
 21 22  1  0
 22 23  2  0
  8  2  1  0
 23 18  1  0
 16  9  1  0
 30 26  1  0
 26 31  1  0
 29 32  1  0
M  CHG 1  11  -1
M  CHG 1  12  -1
M  CHG 1  15  -1
M  CHG 1  26   1
M  END
> <UniqueID>
68

> <SMILES>
C=c1c(=Cc2c([O-])[n-]c(=O)[n-]c2=O)cc(C)n1-c1ccc(C(=O)[NH+]2CC(O)C2)cc1

> <Energy>
178.32336290347445

> <Genealogy>
C=c1c(=Cc2c([O-])[n-]c(=O)[n-]c2=O)cc(C)n1-c1ccc(C(=O)[NH+]2CC(O)C2)cc1 (protonated)
C=c1c(=Cc2c([O-])[n-]c(=O)[n-]c2=O)cc(C)n1-c1ccc(C(=O)[NH+]2CC(O)C2)cc1 (3D coordinates assigned)
C=c1c(=Cc2c([O-])[n-]c(=O)[n-]c2=O)cc(C)n1-c1ccc(C(=O)[NH+]2CC(O)C2)cc1 (nonaromatic ring conformer: 178.32336290347445 kcal/mol)

> <smiles>
C=c1c(=Cc2c(O)[nH]c(=O)[nH]c2=O)cc(C)n1-c1ccc(C(=O)N2CC(O)C2)cc1

> <score_type>
oracle

> <origin>
adg

> <m_score__min__energy>
-14.48

> <m_primary>
energy

> <minimizedAffinity>
-6.90787

> <minimizedRMSD>
1.10436

> <CNNscore>
0.3308863044

> <CNNaffinity>
6.8323473930

> <CNN_VS>
2.2607302666

> <CNNaffinity_variance>
0.3624585569

$$$$
77:0


 30 33  0  0  0  0  0  0  0  0999 V2000
   59.1836   27.1428   46.9579 C   0  0  0  0  0  0  0  0  0  0  0  0
   59.2250   28.4758   47.1489 C   0  0  0  0  0  0  0  0  0  0  0  0
   59.5170   29.0478   48.3763 C   0  0  0  0  0  0  0  0  0  0  0  0
   59.3786   30.4095   48.2238 C   0  0  0  0  0  0  0  0  0  0  0  0
   59.0554   30.7127   46.9470 N   0  0  0  0  0  0  0  0  0  0  0  0
   58.9928   29.5410   46.2639 C   0  0  0  0  0  0  0  0  0  0  0  0
   58.8943   29.4732   44.9277 C   0  0  0  0  0  0  0  0  0  0  0  0
   56.5970   27.7681   45.4123 O   0  0  0  0  0  0  0  0  0  0  0  0
   56.8349   26.6094   46.1458 C   0  0  0  0  0  0  0  0  0  0  0  0
   55.9666   25.5871   46.2158 N   0  0  0  0  0  0  0  0  0  0  0  0
   56.6131   24.6985   46.9993 C   0  0  0  0  0  0  0  0  0  0  0  0
   56.1215   23.5814   47.3059 O   0  0  0  0  0  0  0  0  0  0  0  0
   57.8327   25.0965   47.4204 N   0  0  0  0  0  0  0  0  0  0  0  0
   57.9579   26.3283   46.8920 C   0  0  0  0  0  0  0  0  0  0  0  0
   55.7965   27.8643   44.9350 H   0  0  0  0  0  0  0  0  0  0  0  0
   58.9285   32.0383   46.4047 C   0  0  0  0  0  0  0  0  0  0  0  0
   57.6882   32.4893   45.9263 C   0  0  0  0  0  0  0  0  0  0  0  0
   57.5612   33.7843   45.4149 C   0  0  0  0  0  0  0  0  0  0  0  0
   58.6704   34.6339   45.3771 C   0  0  0  0  0  0  0  0  0  0  0  0
   59.9097   34.1881   45.8479 C   0  0  0  0  0  0  0  0  0  0  0  0
   60.0397   32.8953   46.3611 C   0  0  0  0  0  0  0  0  0  0  0  0
   59.5228   31.3803   49.3265 C   0  0  0  0  0  0  0  0  0  0  0  0
   58.4796   31.7736   49.9127 O   0  0  0  0  0  0  0  0  0  0  0  0
   60.8567   31.9673   49.7434 C   0  0  0  0  0  0  0  0  0  0  0  0
   62.0129   31.4096   48.8979 C   0  0  0  0  0  0  0  0  0  0  0  0
   63.3818   31.8976   49.4249 C   0  0  0  0  0  0  0  0  0  0  0  0
   63.2645   33.0587   50.3261 N   0  0  0  0  0  0  0  0  0  0  0  0
   62.3377   34.0591   49.7829 C   0  0  0  0  0  0  0  0  0  0  0  0
   60.8963   33.5163   49.7530 C   0  0  0  0  0  0  0  0  0  0  0  0
   64.1840   33.4847   50.4416 H   0  0  0  0  0  0  0  0  0  0  0  0
  8  9  1  0
  9 10  1  0
 10 11  1  0
 11 12  2  0
 11 13  1  0
 13 14  1  0
 14  1  1  0
  1  2  2  0
  2  3  1  0
  3  4  2  0
  4 22  1  0
 22 23  2  0
 22 24  1  0
 24 25  1  0
 25 26  1  0
 26 27  1  0
 27 28  1  0
 28 29  1  0
  4  5  1  0
  5 16  1  0
 16 17  2  0
 17 18  1  0
 18 19  2  0
 19 20  1  0
 20 21  2  0
  5  6  1  0
  6  7  2  0
 14  9  2  0
  6  2  1  0
 29 24  1  0
 21 16  1  0
  8 15  1  0
 27 30  1  0
M  CHG 1  10  -1
M  CHG 1  13  -1
M  END
> <UniqueID>
70

> <SMILES>
C=c1/c(=C\c2[n-]c(=O)[n-]c2O)cc(C(=O)C2CCNCC2)n1-c1ccccc1

> <Energy>
135.94760111282352

> <Genealogy>
C=c1c(=Cc2[n-]c(=O)[n-]c2O)cc(C(=O)C2CCNCC2)n1-c1ccccc1 (protonated)
C=c1/c(=C\c2[n-]c(=O)[n-]c2O)cc(C(=O)C2CCNCC2)n1-c1ccccc1 (cis-trans isomerization)
C=c1/c(=C\c2[n-]c(=O)[n-]c2O)cc(C(=O)C2CCNCC2)n1-c1ccccc1 (3D coordinates assigned)
C=c1/c(=C\c2[n-]c(=O)[n-]c2O)cc(C(=O)C2CCNCC2)n1-c1ccccc1 (nonaromatic ring conformer: 135.94760111282352 kcal/mol)

> <smiles>
C=c1c(=Cc2[nH]c(=O)[nH]c2O)cc(C(=O)C2CCNCC2)n1-c1ccccc1

> <score_type>
oracle

> <origin>
adg

> <m_score__min__energy>
-14.02

> <m_primary>
energy

> <minimizedAffinity>
-9.11564

> <minimizedRMSD>
1.11479

> <CNNscore>
0.7641846538

> <CNNaffinity>
6.8512115479

> <CNN_VS>
5.2355909348

> <CNNaffinity_variance>
0.0862442479

$$$$
82:0


 39 43  0  0  0  0  0  0  0  0999 V2000
   60.7609   31.4216   49.8090 C   0  0  0  0  0  0  0  0  0  0  0  0
   61.8579   31.3711   50.6830 C   0  0  0  0  0  0  0  0  0  0  0  0
   61.8555   32.0910   51.8898 C   0  0  0  0  0  0  0  0  0  0  0  0
   60.7390   32.8801   52.2065 C   0  0  0  0  0  0  0  0  0  0  0  0
   59.6419   32.9363   51.3417 C   0  0  0  0  0  0  0  0  0  0  0  0
   59.6260   32.1960   50.1475 C   0  0  0  0  0  0  0  0  0  0  0  0
   60.1098   28.0931   46.2623 C   0  0  0  0  0  0  0  0  0  0  0  0
   60.5396   29.1761   46.9394 C   0  0  0  0  0  0  0  0  0  0  0  0
   61.3819   30.1693   46.4548 C   0  0  0  0  0  0  0  0  0  0  0  0
   61.5358   31.0901   47.4730 C   0  0  0  0  0  0  0  0  0  0  0  0
   62.3987   32.3129   47.3942 C   0  0  0  0  0  0  0  0  0  0  0  0
   60.8368   30.7054   48.5635 N   0  0  0  0  0  0  0  0  0  0  0  0
   60.2031   29.5494   48.2432 C   0  0  0  0  0  0  0  0  0  0  0  0
   59.3813   28.8936   49.0765 C   0  0  0  0  0  0  0  0  0  0  0  0
   57.8934   29.6256   44.6772 O   0  0  0  0  0  0  0  0  0  0  0  0
   57.7227   28.4392   45.3837 C   0  0  0  0  0  0  0  0  0  0  0  0
   56.5634   27.7641   45.4121 N   0  0  0  0  0  0  0  0  0  0  0  0
   56.8760   26.6567   46.1153 C   0  0  0  0  0  0  0  0  0  0  0  0
   56.0394   25.7497   46.3607 O   0  0  0  0  0  0  0  0  0  0  0  0
   58.1587   26.5945   46.5301 N   0  0  0  0  0  0  0  0  0  0  0  0
   58.6892   27.7447   46.0875 C   0  0  0  0  0  0  0  0  0  0  0  0
   57.1662   30.0147   44.2324 H   0  0  0  0  0  0  0  0  0  0  0  0
   63.0204   32.0331   52.8027 C   0  0  0  0  0  0  0  0  0  0  0  0
   63.3838   30.9289   53.2915 O   0  0  0  0  0  0  0  0  0  0  0  0
   63.7312   33.2300   53.1384 N   0  0  0  0  0  0  0  0  0  0  0  0
   64.4512   34.2836   51.9654 S   0  0  0  0  0  0  0  0  0  0  0  0
   63.4639   34.5164   50.8569 O   0  0  0  0  0  0  0  0  0  0  0  0
   64.7861   35.6078   52.5945 O   0  0  0  0  0  0  0  0  0  0  0  0
   65.9213   33.5107   51.2908 C   0  0  0  0  0  0  0  0  0  0  0  0
   66.4846   32.4060   52.1784 C   0  0  0  0  0  0  0  0  0  0  0  0
   66.1962   31.3858   51.0879 C   0  0  0  0  0  0  0  0  0  0  0  0
   65.6262   32.4845   50.2023 C   0  0  0  0  0  0  0  0  0  0  0  0
   58.4250   32.3020   49.2306 C   0  0  0  0  0  0  0  0  0  0  0  0
   58.7689   33.0080   47.9432 C   0  0  0  0  0  0  0  0  0  0  0  0
   58.3721   32.4681   46.7068 C   0  0  0  0  0  0  0  0  0  0  0  0
   58.7035   33.1223   45.5166 C   0  0  0  0  0  0  0  0  0  0  0  0
   59.4343   34.3119   45.5494 C   0  0  0  0  0  0  0  0  0  0  0  0
   59.8360   34.8530   46.7746 C   0  0  0  0  0  0  0  0  0  0  0  0
   59.5046   34.2055   47.9689 C   0  0  0  0  0  0  0  0  0  0  0  0
 15 16  1  0
 16 17  1  0
 17 18  1  0
 18 19  2  0
 18 20  1  0
 20 21  1  0
 21  7  1  0
  7  8  2  0
  8  9  1  0
  9 10  2  0
 10 11  1  0
 10 12  1  0
 12  1  1  0
  1  2  2  0
  2  3  1  0
  3 23  1  0
 23 24  2  0
 23 25  1  0
 25 26  1  0
 26 27  2  0
 26 28  2  0
 26 29  1  0
 29 30  1  0
 30 31  1  0
 31 32  1  0
  3  4  2  0
  4  5  1  0
  5  6  2  0
  6 33  1  0
 33 34  1  0
 34 35  2  0
 35 36  1  0
 36 37  2  0
 37 38  1  0
 38 39  2  0
 12 13  1  0
 13 14  2  0
 21 16  2  0
 13  8  1  0
  6  1  1  0
 39 34  1  0
 32 29  1  0
 15 22  1  0
M  CHG 1  17  -1
M  CHG 1  20  -1
M  CHG 1  25  -1
M  END
> <UniqueID>
75

> <SMILES>
C=c1/c(=C/c2[n-]c(=O)[n-]c2O)cc(C)n1-c1cc(C(=O)[N-]S(=O)(=O)C2CCC2)ccc1Cc1ccccc1

> <Energy>
197.24083151599808

> <Genealogy>
C=c1c(=Cc2[n-]c(=O)[n-]c2O)cc(C)n1-c1cc(C(=O)[N-]S(=O)(=O)C2CCC2)ccc1Cc1ccccc1 (protonated)
C=c1/c(=C/c2[n-]c(=O)[n-]c2O)cc(C)n1-c1cc(C(=O)[N-]S(=O)(=O)C2CCC2)ccc1Cc1ccccc1 (cis-trans isomerization)
C=c1/c(=C/c2[n-]c(=O)[n-]c2O)cc(C)n1-c1cc(C(=O)[N-]S(=O)(=O)C2CCC2)ccc1Cc1ccccc1 (3D coordinates assigned)
C=c1/c(=C/c2[n-]c(=O)[n-]c2O)cc(C)n1-c1cc(C(=O)[N-]S(=O)(=O)C2CCC2)ccc1Cc1ccccc1 (nonaromatic ring conformer: 197.24083151599808 kcal/mol)

> <smiles>
C=c1c(=Cc2[nH]c(=O)[nH]c2O)cc(C)n1-c1cc(C(=O)NS(=O)(=O)C2CCC2)ccc1Cc1ccccc1

> <score_type>
oracle

> <origin>
adg

> <m_score__min__energy>
-16.32

> <m_primary>
energy

> <minimizedAffinity>
-7.22707

> <minimizedRMSD>
1.42783

> <CNNscore>
0.5756067038

> <CNNaffinity>
7.3452172279

> <CNN_VS>
4.2279562950

> <CNNaffinity_variance>
0.2229025960

$$$$
0:0


 36 39  0  0  0  0  0  0  0  0999 V2000
   58.9659   27.4277   47.3367 C   0  0  0  0  0  0  0  0  0  0  0  0
   58.6467   28.0625   46.1979 C   0  0  0  0  0  0  0  0  0  0  0  0
   57.9953   27.5200   45.0771 C   0  0  0  0  0  0  0  0  0  0  0  0
   57.6945   26.2450   44.7568 C   0  0  0  0  0  0  0  0  0  0  0  0
   57.6958   28.5896   44.2496 C   0  0  0  0  0  0  0  0  0  0  0  0
   58.2197   29.7188   44.8445 C   0  0  0  0  0  0  0  0  0  0  0  0
   58.1304   31.0999   44.2656 C   0  0  0  0  0  0  0  0  0  0  0  0
   58.7981   29.4014   46.0244 N   0  0  0  0  0  0  0  0  0  0  0  0
   57.2357   25.2076   45.7042 C   0  0  0  0  0  0  0  0  0  0  0  0
   55.9322   25.2393   46.2352 C   0  0  0  0  0  0  0  0  0  0  0  0
   55.0357   26.2663   45.9271 O   0  0  0  0  0  0  0  0  0  0  0  0
   55.5277   24.2537   47.0791 N   0  0  0  0  0  0  0  0  0  0  0  0
   56.3495   23.2255   47.4119 C   0  0  0  0  0  0  0  0  0  0  0  0
   55.9500   22.3308   48.2015 O   0  0  0  0  0  0  0  0  0  0  0  0
   57.6003   23.1579   46.8923 N   0  0  0  0  0  0  0  0  0  0  0  0
   58.0569   24.1125   46.0420 C   0  0  0  0  0  0  0  0  0  0  0  0
   59.2169   24.0056   45.5607 O   0  0  0  0  0  0  0  0  0  0  0  0
   55.2942   26.9557   45.3475 H   0  0  0  0  0  0  0  0  0  0  0  0
   59.4727   30.3221   46.9037 C   0  0  0  0  0  0  0  0  0  0  0  0
   58.7421   31.2475   47.6665 C   0  0  0  0  0  0  0  0  0  0  0  0
   59.4068   32.1503   48.5062 C   0  0  0  0  0  0  0  0  0  0  0  0
   60.8088   32.1449   48.5872 C   0  0  0  0  0  0  0  0  0  0  0  0
   61.5349   31.1991   47.8447 C   0  0  0  0  0  0  0  0  0  0  0  0
   60.8736   30.3045   46.9995 C   0  0  0  0  0  0  0  0  0  0  0  0
   61.5030   33.0751   49.5040 C   0  0  0  0  0  0  0  0  0  0  0  0
   61.5614   34.2981   49.2083 O   0  0  0  0  0  0  0  0  0  0  0  0
   62.0919   32.6354   50.7327 N   0  0  0  0  0  0  0  0  0  0  0  0
   61.5852   31.5360   51.5489 C   0  0  0  0  0  0  0  0  0  0  0  0
   60.1506   31.8060   51.9054 C   0  0  0  0  0  0  0  0  0  0  0  0
   59.7496   33.0895   52.3195 C   0  0  0  0  0  0  0  0  0  0  0  0
   58.4025   33.3514   52.5941 C   0  0  0  0  0  0  0  0  0  0  0  0
   57.4447   32.3404   52.4491 C   0  0  0  0  0  0  0  0  0  0  0  0
   57.8329   31.0511   52.0248 C   0  0  0  0  0  0  0  0  0  0  0  0
   59.1841   30.7953   51.7519 C   0  0  0  0  0  0  0  0  0  0  0  0
   56.9111   30.0036   51.8584 O   0  0  0  0  0  0  0  0  0  0  0  0
   55.7677   29.7974   52.6848 C   0  0  0  0  0  0  0  0  0  0  0  0
  1  2  2  0
  2  3  1  0
  3  4  2  0
  4  9  1  0
  9 10  2  0
 10 11  1  0
 10 12  1  0
 12 13  1  0
 13 14  2  0
 13 15  1  0
 15 16  1  0
 16 17  2  0
  3  5  1  0
  5  6  2  0
  6  7  1  0
  6  8  1  0
  8 19  1  0
 19 20  2  0
 20 21  1  0
 21 22  2  0
 22 25  1  0
 25 26  2  0
 25 27  1  0
 27 28  1  0
 28 29  1  0
 29 30  2  0
 30 31  1  0
 31 32  2  0
 32 33  1  0
 33 35  1  0
 35 36  1  0
 33 34  2  0
 22 23  1  0
 23 24  2  0
  8  2  1  0
 24 19  1  0
 16  9  1  0
 34 29  1  0
 11 18  1  0
M  CHG 1  12  -1
M  CHG 1  15  -1
M  CHG 1  27  -1
M  END
> <UniqueID>
1

> <SMILES>
C=c1c(=Cc2c(O)[n-]c(=O)[n-]c2=O)cc(C)n1-c1ccc(C(=O)[N-]Cc2cccc(OC)c2)cc1

> <Energy>
113.43401434851263

> <Genealogy>
C=c1c(=Cc2c(O)[n-]c(=O)[n-]c2=O)cc(C)n1-c1ccc(C(=O)[N-]Cc2cccc(OC)c2)cc1 (protonated)
C=c1c(=Cc2c(O)[n-]c(=O)[n-]c2=O)cc(C)n1-c1ccc(C(=O)[N-]Cc2cccc(OC)c2)cc1 (3D coordinates assigned)
C=c1c(=Cc2c(O)[n-]c(=O)[n-]c2=O)cc(C)n1-c1ccc(C(=O)[N-]Cc2cccc(OC)c2)cc1 (optimized conformer: 113.43401434851263 kcal/mol)

> <smiles>
C=c1c(=Cc2c(O)[nH]c(=O)[nH]c2=O)cc(C)n1-c1ccc(C(=O)NCc2cccc(OC)c2)cc1

> <score_type>
oracle

> <origin>
adg

> <m_score__min__energy>
-15.68

> <m_primary>
energy

> <minimizedAffinity>
-9.04637

> <minimizedRMSD>
0.85405

> <CNNscore>
0.3885228038

> <CNNaffinity>
7.1687812805

> <CNN_VS>
2.7852349281

> <CNNaffinity_variance>
0.0017369277

$$$$
2:0


 26 28  0  0  0  0  0  0  0  0999 V2000
   58.4023   26.9315   43.4553 C   0  0  0  0  0  0  0  0  0  0  0  0
   58.1621   27.9028   44.3447 C   0  0  0  0  0  0  0  0  0  0  0  0
   58.2259   27.8307   45.7439 C   0  0  0  0  0  0  0  0  0  0  0  0
   57.7807   31.3991   45.0912 C   0  0  0  0  0  0  0  0  0  0  0  0
   58.1120   29.1360   46.1956 C   0  0  0  0  0  0  0  0  0  0  0  0
   57.9217   29.9302   45.0840 C   0  0  0  0  0  0  0  0  0  0  0  0
   57.9541   29.1790   43.9648 N   0  0  0  0  0  0  0  0  0  0  0  0
   57.8458   29.5027   43.0414 H   0  0  0  0  0  0  0  0  0  0  0  0
   57.7783   25.4421   46.3636 C   0  0  0  0  0  0  0  0  0  0  0  0
   56.4313   25.2370   46.1771 C   0  0  0  0  0  0  0  0  0  0  0  0
   55.4551   26.2248   46.1646 O   0  0  0  0  0  0  0  0  0  0  0  0
   56.1717   23.9291   45.9857 N   0  0  0  0  0  0  0  0  0  0  0  0
   57.4010   23.3701   46.0370 C   0  0  0  0  0  0  0  0  0  0  0  0
   57.5988   22.1369   45.8765 O   0  0  0  0  0  0  0  0  0  0  0  0
   58.3974   24.2528   46.2504 N   0  0  0  0  0  0  0  0  0  0  0  0
   59.3626   24.0683   46.3102 H   0  0  0  0  0  0  0  0  0  0  0  0
   58.3604   26.7786   46.5716 C   0  0  0  0  0  0  0  0  0  0  0  0
   57.2486   32.0215   44.1509 N   0  0  0  0  0  0  0  0  0  0  0  0
   58.7686   32.1551   46.0389 C   0  0  0  0  0  0  0  0  0  0  0  0
   58.8869   31.7674   47.3854 C   0  0  0  0  0  0  0  0  0  0  0  0
   59.7480   32.4592   48.2444 C   0  0  0  0  0  0  0  0  0  0  0  0
   60.4875   33.5447   47.7710 C   0  0  0  0  0  0  0  0  0  0  0  0
   60.3623   33.9489   46.4391 C   0  0  0  0  0  0  0  0  0  0  0  0
   59.5072   33.2594   45.5755 C   0  0  0  0  0  0  0  0  0  0  0  0
   57.2443   31.6450   42.8259 O   0  0  0  0  0  0  0  0  0  0  0  0
   57.9526   32.4037   41.8631 C   0  0  0  0  0  0  0  0  0  0  0  0
  1  2  2  0
  2  3  1  0
  3  4  2  0
  4  9  1  0
  9 10  2  0
 10 11  1  0
 10 12  1  0
 12 13  1  0
 13 14  2  0
 13 15  1  0
  3  5  1  0
  5  6  2  0
  6 17  1  0
 17 18  2  0
 18 25  1  0
 25 26  1  0
 17 19  1  0
 19 20  2  0
 20 21  1  0
 21 22  2  0
 22 23  1  0
 23 24  2  0
  6  7  1  0
  7  2  1  0
 15  9  1  0
 24 19  1  0
 15 16  1  0
  7  8  1  0
M  CHG 1  11  -1
M  CHG 1  12  -1
M  END
> <UniqueID>
3

> <SMILES>
C=c1[nH]c(/C(=N/OC)c2ccccc2)c/c1=C/c1[nH]c(=O)[n-]c1[O-]

> <Energy>
111.74552750095351

> <Genealogy>
C=c1[nH]c(C(=NOC)c2ccccc2)cc1=Cc1[nH]c(=O)[n-]c1[O-] (protonated)
C=c1[nH]c(/C(=N/OC)c2ccccc2)c/c1=C/c1[nH]c(=O)[n-]c1[O-] (cis-trans isomerization)
C=c1[nH]c(/C(=N/OC)c2ccccc2)c/c1=C/c1[nH]c(=O)[n-]c1[O-] (3D coordinates assigned)
C=c1[nH]c(/C(=N/OC)c2ccccc2)c/c1=C/c1[nH]c(=O)[n-]c1[O-] (optimized conformer: 111.74552750095351 kcal/mol)

> <smiles>
C=c1[nH]c(C(=NOC)c2ccccc2)cc1=Cc1[nH]c(=O)[nH]c1O

> <score_type>
oracle

> <origin>
adg

> <m_score__min__energy>
-14.18

> <m_primary>
energy

> <minimizedAffinity>
-8.47689

> <minimizedRMSD>
1.14477

> <CNNscore>
0.2871684730

> <CNNaffinity>
6.4151186943

> <CNN_VS>
1.8422198296

> <CNNaffinity_variance>
0.1883213669

$$$$
11:0


 27 29  0  0  0  0  0  0  0  0999 V2000
   57.5760   28.3708   53.8435 C   0  0  0  0  0  0  0  0  0  0  0  0
   57.3963   29.6419   53.4419 C   0  0  0  0  0  0  0  0  0  0  0  0
   56.1630   30.2991   53.3578 C   0  0  0  0  0  0  0  0  0  0  0  0
   54.9405   29.7818   53.5878 C   0  0  0  0  0  0  0  0  0  0  0  0
   56.4373   31.5882   52.9284 C   0  0  0  0  0  0  0  0  0  0  0  0
   57.8041   31.6761   52.7831 C   0  0  0  0  0  0  0  0  0  0  0  0
   58.5149   32.9088   52.3077 C   0  0  0  0  0  0  0  0  0  0  0  0
   58.3964   30.4900   53.0687 N   0  0  0  0  0  0  0  0  0  0  0  0
   53.7532   30.0712   52.7638 C   0  0  0  0  0  0  0  0  0  0  0  0
   53.7021   29.8452   51.4404 N   0  0  0  0  0  0  0  0  0  0  0  0
   52.4288   30.1630   51.1153 C   0  0  0  0  0  0  0  0  0  0  0  0
   51.9916   30.0937   49.9383 O   0  0  0  0  0  0  0  0  0  0  0  0
   51.6607   30.5537   52.1548 N   0  0  0  0  0  0  0  0  0  0  0  0
   52.5074   30.4781   53.1931 C   0  0  0  0  0  0  0  0  0  0  0  0
   52.1362   30.7288   54.5081 O   0  0  0  0  0  0  0  0  0  0  0  0
   59.8494   30.2356   53.0224 C   0  0  0  0  0  0  0  0  0  0  0  0
   60.3526   30.1584   51.6050 C   0  0  0  0  0  0  0  0  0  0  0  0
   61.5235   30.5427   51.3509 O   0  0  0  0  0  0  0  0  0  0  0  0
   59.5512   29.6429   50.5342 N   0  0  0  0  0  0  0  0  0  0  0  0
   58.9080   30.4536   49.5107 C   0  0  0  0  0  0  0  0  0  0  0  0
   59.9467   31.2665   48.7944 C   0  0  0  0  0  0  0  0  0  0  0  0
   59.9705   32.6644   48.9302 C   0  0  0  0  0  0  0  0  0  0  0  0
   60.9591   33.4172   48.2890 C   0  0  0  0  0  0  0  0  0  0  0  0
   61.9381   32.7787   47.5192 C   0  0  0  0  0  0  0  0  0  0  0  0
   63.1788   33.7251   46.7186 Cl  0  0  0  0  0  0  0  0  0  0  0  0
   61.9292   31.3859   47.3936 C   0  0  0  0  0  0  0  0  0  0  0  0
   60.9411   30.6301   48.0343 C   0  0  0  0  0  0  0  0  0  0  0  0
  1  2  2  0
  2  3  1  0
  3  4  2  0
  4  9  1  0
  9 10  1  0
 10 11  1  0
 11 12  2  0
 11 13  1  0
 13 14  1  0
 14 15  1  0
  3  5  1  0
  5  6  2  0
  6  7  1  0
  6  8  1  0
  8 16  1  0
 16 17  1  0
 17 18  2  0
 17 19  1  0
 19 20  1  0
 20 21  1  0
 21 22  2  0
 22 23  1  0
 23 24  2  0
 24 25  1  0
 24 26  1  0
 26 27  2  0
  8  2  1  0
 27 21  1  0
 14  9  2  0
M  CHG 1  10  -1
M  CHG 1  13  -1
M  CHG 1  15  -1
M  CHG 1  19  -1
M  END
> <UniqueID>
12

> <SMILES>
C=c1/c(=C/c2[n-]c(=O)[n-]c2[O-])cc(C)n1CC(=O)[N-]Cc1ccc(Cl)cc1

> <Energy>
106.62932409088847

> <Genealogy>
C=c1c(=Cc2[n-]c(=O)[n-]c2[O-])cc(C)n1CC(=O)[N-]Cc1ccc(Cl)cc1 (protonated)
C=c1/c(=C/c2[n-]c(=O)[n-]c2[O-])cc(C)n1CC(=O)[N-]Cc1ccc(Cl)cc1 (cis-trans isomerization)
C=c1/c(=C/c2[n-]c(=O)[n-]c2[O-])cc(C)n1CC(=O)[N-]Cc1ccc(Cl)cc1 (3D coordinates assigned)
C=c1/c(=C/c2[n-]c(=O)[n-]c2[O-])cc(C)n1CC(=O)[N-]Cc1ccc(Cl)cc1 (optimized conformer: 106.62932409088847 kcal/mol)

> <smiles>
C=c1c(=Cc2[nH]c(=O)[nH]c2O)cc(C)n1CC(=O)NCc1ccc(Cl)cc1

> <score_type>
oracle

> <origin>
adg

> <m_score__min__energy>
-17.390000000000001

> <m_primary>
energy

> <minimizedAffinity>
-6.03968

> <minimizedRMSD>
2.50757

> <CNNscore>
0.1350910366

> <CNNaffinity>
5.3382072449

> <CNN_VS>
0.7211439610

> <CNNaffinity_variance>
0.1058067754

$$$$
20:0


 28 31  0  0  0  0  0  0  0  0999 V2000
   60.3958   29.4294   47.7780 C   0  0  0  0  0  0  0  0  0  0  0  0
   59.7661   30.3691   47.0552 C   0  0  0  0  0  0  0  0  0  0  0  0
   59.1993   30.1976   45.7882 C   0  0  0  0  0  0  0  0  0  0  0  0
   59.1717   29.0718   45.0484 C   0  0  0  0  0  0  0  0  0  0  0  0
   58.6163   31.4126   45.4526 C   0  0  0  0  0  0  0  0  0  0  0  0
   58.8630   32.2725   46.5033 C   0  0  0  0  0  0  0  0  0  0  0  0
   58.3997   33.6975   46.5587 C   0  0  0  0  0  0  0  0  0  0  0  0
   59.5558   31.6429   47.4791 N   0  0  0  0  0  0  0  0  0  0  0  0
   58.6341   27.7837   45.5418 C   0  0  0  0  0  0  0  0  0  0  0  0
   57.2485   27.5858   45.6194 C   0  0  0  0  0  0  0  0  0  0  0  0
   56.3659   28.5769   45.2019 O   0  0  0  0  0  0  0  0  0  0  0  0
   56.7546   26.4128   46.0949 N   0  0  0  0  0  0  0  0  0  0  0  0
   57.5830   25.4234   46.5147 C   0  0  0  0  0  0  0  0  0  0  0  0
   57.1036   24.3439   46.9469 O   0  0  0  0  0  0  0  0  0  0  0  0
   58.9285   25.6005   46.4761 N   0  0  0  0  0  0  0  0  0  0  0  0
   59.4709   26.7544   46.0104 C   0  0  0  0  0  0  0  0  0  0  0  0
   60.7238   26.8958   46.0232 O   0  0  0  0  0  0  0  0  0  0  0  0
   59.9953   32.2348   48.7135 C   0  0  0  0  0  0  0  0  0  0  0  0
   61.1135   33.0585   48.8013 C   0  0  0  0  0  0  0  0  0  0  0  0
   61.2909   33.5125   50.4076 S   0  0  0  0  0  0  0  0  0  0  0  0
   59.9614   32.6685   51.0084 C   0  0  0  0  0  0  0  0  0  0  0  0
   59.3530   32.0100   49.9407 C   0  0  0  0  0  0  0  0  0  0  0  0
   59.5500   32.6526   52.4270 C   0  0  0  0  0  0  0  0  0  0  0  0
   60.0624   33.5903   53.2733 N   0  0  0  0  0  0  0  0  0  0  0  0
   59.7298   33.6385   54.5913 C   0  0  0  0  0  0  0  0  0  0  0  0
   58.8366   32.7054   55.1190 C   0  0  0  0  0  0  0  0  0  0  0  0
   58.2928   31.7318   54.2811 C   0  0  0  0  0  0  0  0  0  0  0  0
   58.6460   31.6985   52.9307 C   0  0  0  0  0  0  0  0  0  0  0  0
  1  2  2  0
  2  3  1  0
  3  4  2  0
  4  9  1  0
  9 10  2  0
 10 11  1  0
 10 12  1  0
 12 13  1  0
 13 14  2  0
 13 15  1  0
 15 16  1  0
 16 17  2  0
  3  5  1  0
  5  6  2  0
  6  7  1  0
  6  8  1  0
  8 18  1  0
 18 19  2  0
 19 20  1  0
 20 21  1  0
 21 23  1  0
 23 24  2  0
 24 25  1  0
 25 26  2  0
 26 27  1  0
 27 28  2  0
 21 22  2  0
  8  2  1  0
 22 18  1  0
 16  9  1  0
 28 23  1  0
M  CHG 1  11  -1
M  CHG 1  12  -1
M  CHG 1  15  -1
M  END
> <UniqueID>
20

> <SMILES>
C=c1/c(=C/c2c([O-])[n-]c(=O)[n-]c2=O)cc(C)n1-c1csc(-c2ccccn2)c1

> <Energy>
117.98628610225454

> <Genealogy>
C=c1c(=Cc2c([O-])[n-]c(=O)[n-]c2=O)cc(C)n1-c1csc(-c2ccccn2)c1 (protonated)
C=c1/c(=C/c2c([O-])[n-]c(=O)[n-]c2=O)cc(C)n1-c1csc(-c2ccccn2)c1 (cis-trans isomerization)
C=c1/c(=C/c2c([O-])[n-]c(=O)[n-]c2=O)cc(C)n1-c1csc(-c2ccccn2)c1 (3D coordinates assigned)
C=c1/c(=C/c2c([O-])[n-]c(=O)[n-]c2=O)cc(C)n1-c1csc(-c2ccccn2)c1 (optimized conformer: 117.98628610225454 kcal/mol)

> <smiles>
C=c1c(=Cc2c(O)[nH]c(=O)[nH]c2=O)cc(C)n1-c1csc(-c2ccccn2)c1

> <score_type>
oracle

> <origin>
adg

> <m_score__min__energy>
-16.23

> <m_primary>
energy

> <minimizedAffinity>
-7.14257

> <minimizedRMSD>
1.55202

> <CNNscore>
0.4618417919

> <CNNaffinity>
7.0251584053

> <CNN_VS>
3.2445118427

> <CNNaffinity_variance>
0.2130437493

$$$$
33:0


 36 40  0  0  0  0  0  0  0  0999 V2000
   58.5310   25.1966   47.2969 C   0  0  0  0  0  0  0  0  0  0  0  0
   58.4126   26.1102   46.3195 C   0  0  0  0  0  0  0  0  0  0  0  0
   57.9648   25.9053   45.0015 C   0  0  0  0  0  0  0  0  0  0  0  0
   57.4527   24.8160   44.3963 C   0  0  0  0  0  0  0  0  0  0  0  0
   58.1204   27.1171   44.3474 C   0  0  0  0  0  0  0  0  0  0  0  0
   58.6131   28.0132   45.2717 C   0  0  0  0  0  0  0  0  0  0  0  0
   58.9073   29.4547   44.9897 C   0  0  0  0  0  0  0  0  0  0  0  0
   58.7825   27.4091   46.4678 N   0  0  0  0  0  0  0  0  0  0  0  0
   56.3795   23.9576   44.9338 C   0  0  0  0  0  0  0  0  0  0  0  0
   55.2968   24.5076   45.6397 C   0  0  0  0  0  0  0  0  0  0  0  0
   55.2307   25.8765   45.8804 O   0  0  0  0  0  0  0  0  0  0  0  0
   54.3004   23.6984   46.0931 N   0  0  0  0  0  0  0  0  0  0  0  0
   54.3256   22.3594   45.8522 C   0  0  0  0  0  0  0  0  0  0  0  0
   53.3967   21.6229   46.2763 O   0  0  0  0  0  0  0  0  0  0  0  0
   55.3488   21.8132   45.1475 N   0  0  0  0  0  0  0  0  0  0  0  0
   56.3685   22.5798   44.6782 C   0  0  0  0  0  0  0  0  0  0  0  0
   57.2985   22.0393   44.0233 O   0  0  0  0  0  0  0  0  0  0  0  0
   53.5522   24.0868   46.6016 H   0  0  0  0  0  0  0  0  0  0  0  0
   59.3175   28.0376   47.6454 C   0  0  0  0  0  0  0  0  0  0  0  0
   60.1948   27.3376   48.4832 C   0  0  0  0  0  0  0  0  0  0  0  0
   60.7277   27.9556   49.6147 C   0  0  0  0  0  0  0  0  0  0  0  0
   60.3899   29.2766   49.9183 C   0  0  0  0  0  0  0  0  0  0  0  0
   59.5069   29.9934   49.0910 C   0  0  0  0  0  0  0  0  0  0  0  0
   58.9815   29.3657   47.9480 C   0  0  0  0  0  0  0  0  0  0  0  0
   59.1519   31.3970   49.4035 C   0  0  0  0  0  0  0  0  0  0  0  0
   58.4561   31.6579   50.4227 O   0  0  0  0  0  0  0  0  0  0  0  0
   59.6242   32.4749   48.5803 N   0  0  0  0  0  0  0  0  0  0  0  0
   60.9927   32.7476   48.3022 C   0  0  0  0  0  0  0  0  0  0  0  0
   62.1057   32.5269   49.1358 C   0  0  0  0  0  0  0  0  0  0  0  0
   61.9592   31.8893   50.7672 Cl  0  0  0  0  0  0  0  0  0  0  0  0
   63.3746   32.9050   48.6625 C   0  0  0  0  0  0  0  0  0  0  0  0
   63.5144   33.5090   47.4001 C   0  0  0  0  0  0  0  0  0  0  0  0
   62.3865   33.7571   46.6080 C   0  0  0  0  0  0  0  0  0  0  0  0
   61.1351   33.3718   47.0899 C   0  0  0  0  0  0  0  0  0  0  0  0
   59.8129   33.5825   46.4453 C   0  0  0  0  0  0  0  0  0  0  0  0
   58.8174   32.9957   47.4720 C   0  0  0  0  0  0  0  0  0  0  0  0
  1  2  2  0
  2  3  1  0
  3  4  2  0
  4  9  1  0
  9 10  2  0
 10 11  1  0
 10 12  1  0
 12 13  1  0
 13 14  2  0
 13 15  1  0
 15 16  1  0
 16 17  2  0
  3  5  1  0
  5  6  2  0
  6  7  1  0
  6  8  1  0
  8 19  1  0
 19 20  2  0
 20 21  1  0
 21 22  2  0
 22 23  1  0
 23 25  1  0
 25 26  2  0
 25 27  1  0
 27 28  1  0
 28 29  2  0
 29 30  1  0
 29 31  1  0
 31 32  2  0
 32 33  1  0
 33 34  2  0
 34 35  1  0
 35 36  1  0
 23 24  2  0
  8  2  1  0
 24 19  1  0
 16  9  1  0
 36 27  1  0
 34 28  1  0
 12 18  1  0
M  CHG 1  11  -1
M  CHG 1  15  -1
M  END
> <UniqueID>
32

> <SMILES>
C=c1/c(=C\c2c([O-])[nH]c(=O)[n-]c2=O)cc(C)n1-c1cccc(C(=O)N2CCc3cccc(Cl)c32)c1

> <Energy>
131.69423315068462

> <Genealogy>
C=c1c(=Cc2c([O-])[nH]c(=O)[n-]c2=O)cc(C)n1-c1cccc(C(=O)N2CCc3cccc(Cl)c32)c1 (protonated)
C=c1/c(=C\c2c([O-])[nH]c(=O)[n-]c2=O)cc(C)n1-c1cccc(C(=O)N2CCc3cccc(Cl)c32)c1 (cis-trans isomerization)
C=c1/c(=C\c2c([O-])[nH]c(=O)[n-]c2=O)cc(C)n1-c1cccc(C(=O)N2CCc3cccc(Cl)c32)c1 (3D coordinates assigned)
C=c1/c(=C\c2c([O-])[nH]c(=O)[n-]c2=O)cc(C)n1-c1cccc(C(=O)N2CCc3cccc(Cl)c32)c1 (nonaromatic ring conformer: 131.69423315068462 kcal/mol)

> <smiles>
C=c1c(=Cc2c(O)[nH]c(=O)[nH]c2=O)cc(C)n1-c1cccc(C(=O)N2CCc3cccc(Cl)c32)c1

> <score_type>
oracle

> <origin>
adg

> <m_score__min__energy>
-16.25

> <m_primary>
energy

> <minimizedAffinity>
-10.72709

> <minimizedRMSD>
0.72899

> <CNNscore>
0.0976369008

> <CNNaffinity>
6.6000494957

> <CNN_VS>
0.6444084048

> <CNNaffinity_variance>
0.1663929373

$$$$
35:0


 32 36  0  0  0  0  0  0  0  0999 V2000
   58.9776   31.7757   46.5677 C   0  0  0  0  0  0  0  0  0  0  0  0
   57.8690   32.5065   46.1089 C   0  0  0  0  0  0  0  0  0  0  0  0
   57.9065   33.9011   46.0704 C   0  0  0  0  0  0  0  0  0  0  0  0
   59.0457   34.5826   46.4998 C   0  0  0  0  0  0  0  0  0  0  0  0
   60.1517   33.8711   46.9655 C   0  0  0  0  0  0  0  0  0  0  0  0
   60.1389   32.4658   46.9939 C   0  0  0  0  0  0  0  0  0  0  0  0
   58.6744   29.8646   44.3111 C   0  0  0  0  0  0  0  0  0  0  0  0
   58.7448   29.4811   45.5972 C   0  0  0  0  0  0  0  0  0  0  0  0
   58.6897   28.1680   46.0742 C   0  0  0  0  0  0  0  0  0  0  0  0
   58.6302   27.0378   45.3444 C   0  0  0  0  0  0  0  0  0  0  0  0
   58.7806   28.2524   47.4568 C   0  0  0  0  0  0  0  0  0  0  0  0
   58.8730   29.5928   47.7677 C   0  0  0  0  0  0  0  0  0  0  0  0
   58.9694   30.1296   49.1636 C   0  0  0  0  0  0  0  0  0  0  0  0
   58.8854   30.3392   46.6378 N   0  0  0  0  0  0  0  0  0  0  0  0
   57.9917   25.7913   45.8057 C   0  0  0  0  0  0  0  0  0  0  0  0
   58.6215   24.6036   45.8270 N   0  0  0  0  0  0  0  0  0  0  0  0
   57.6557   23.7425   46.2125 C   0  0  0  0  0  0  0  0  0  0  0  0
   57.8657   22.5113   46.3595 O   0  0  0  0  0  0  0  0  0  0  0  0
   56.4424   24.3027   46.4107 N   0  0  0  0  0  0  0  0  0  0  0  0
   56.6682   25.5989   46.1373 C   0  0  0  0  0  0  0  0  0  0  0  0
   55.6735   26.5687   46.1447 O   0  0  0  0  0  0  0  0  0  0  0  0
   61.3273   31.7558   47.5196 C   0  0  0  0  0  0  0  0  0  0  0  0
   61.7283   30.7274   46.9092 O   0  0  0  0  0  0  0  0  0  0  0  0
   62.0230   32.2016   48.7023 N   0  0  0  0  0  0  0  0  0  0  0  0
   63.4640   31.9339   48.8164 C   0  0  0  0  0  0  0  0  0  0  0  0
   63.9276   31.9788   50.2729 C   0  0  0  0  0  0  0  0  0  0  0  0
   63.4919   33.2364   50.9014 N   0  0  0  0  0  0  0  0  0  0  0  0
   62.0351   33.5130   50.8252 C   0  0  0  0  0  0  0  0  0  0  0  0
   61.2527   32.5564   49.9016 C   0  0  0  0  0  0  0  0  0  0  0  0
   64.0553   33.5685   52.2371 C   0  0  0  0  0  0  0  0  0  0  0  0
   65.5634   33.3605   52.3629 C   0  0  0  0  0  0  0  0  0  0  0  0
   64.9977   34.7696   52.3871 C   0  0  0  0  0  0  0  0  0  0  0  0
  7  8  2  0
  8  9  1  0
  9 10  2  0
 10 15  1  0
 15 16  1  0
 16 17  1  0
 17 18  2  0
 17 19  1  0
 19 20  1  0
 20 21  1  0
  9 11  1  0
 11 12  2  0
 12 13  1  0
 12 14  1  0
 14  1  1  0
  1  2  2  0
  2  3  1  0
  3  4  2  0
  4  5  1  0
  5  6  2  0
  6 22  1  0
 22 23  2  0
 22 24  1  0
 24 25  1  0
 25 26  1  0
 26 27  1  0
 27 30  1  0
 30 31  1  0
 31 32  1  0
 27 28  1  0
 28 29  1  0
 14  8  1  0
  6  1  1  0
 29 24  1  0
 20 15  2  0
 32 30  1  0
M  CHG 1  16  -1
M  CHG 1  19  -1
M  CHG 1  21  -1
M  END
> <UniqueID>
34

> <SMILES>
C=c1/c(=C/c2[n-]c(=O)[n-]c2[O-])cc(C)n1-c1ccccc1C(=O)N1CCN(C2CC2)CC1

> <Energy>
415.3274482640702

> <Genealogy>
C=c1c(=Cc2[n-]c(=O)[n-]c2[O-])cc(C)n1-c1ccccc1C(=O)N1CCN(C2CC2)CC1 (protonated)
C=c1/c(=C/c2[n-]c(=O)[n-]c2[O-])cc(C)n1-c1ccccc1C(=O)N1CCN(C2CC2)CC1 (cis-trans isomerization)
C=c1/c(=C/c2[n-]c(=O)[n-]c2[O-])cc(C)n1-c1ccccc1C(=O)N1CCN(C2CC2)CC1 (3D coordinates assigned)
C=c1/c(=C/c2[n-]c(=O)[n-]c2[O-])cc(C)n1-c1ccccc1C(=O)N1CCN(C2CC2)CC1 (nonaromatic ring conformer: 415.3274482640702 kcal/mol)

> <smiles>
C=c1c(=Cc2[nH]c(=O)[nH]c2O)cc(C)n1-c1ccccc1C(=O)N1CCN(C2CC2)CC1

> <score_type>
oracle

> <origin>
adg

> <m_score__min__energy>
-16.800000000000001

> <m_primary>
energy

> <minimizedAffinity>
-8.44561

> <minimizedRMSD>
0.94234

> <CNNscore>
0.1916466653

> <CNNaffinity>
6.7191166878

> <CNN_VS>
1.2876963615

> <CNNaffinity_variance>
0.0161037799

$$$$
43:0


 31 33  0  0  0  0  0  0  0  0999 V2000
   61.7510   30.8351   46.7072 C   0  0  0  0  0  0  0  0  0  0  0  0
   60.7919   30.3588   47.5162 C   0  0  0  0  0  0  0  0  0  0  0  0
   59.8779   29.3439   47.2188 C   0  0  0  0  0  0  0  0  0  0  0  0
   59.7858   28.6355   46.0754 C   0  0  0  0  0  0  0  0  0  0  0  0
   59.1038   29.1672   48.3575 C   0  0  0  0  0  0  0  0  0  0  0  0
   59.5571   30.0806   49.2888 C   0  0  0  0  0  0  0  0  0  0  0  0
   59.0234   30.2196   50.6818 C   0  0  0  0  0  0  0  0  0  0  0  0
   60.5795   30.8024   48.7815 N   0  0  0  0  0  0  0  0  0  0  0  0
   59.0172   27.3766   45.9562 C   0  0  0  0  0  0  0  0  0  0  0  0
   57.6540   27.4151   45.6244 C   0  0  0  0  0  0  0  0  0  0  0  0
   57.0215   28.6265   45.3707 O   0  0  0  0  0  0  0  0  0  0  0  0
   56.9433   26.2613   45.5400 N   0  0  0  0  0  0  0  0  0  0  0  0
   57.5245   25.0593   45.7833 C   0  0  0  0  0  0  0  0  0  0  0  0
   56.8478   24.0041   45.6922 O   0  0  0  0  0  0  0  0  0  0  0  0
   58.8351   24.9965   46.1319 N   0  0  0  0  0  0  0  0  0  0  0  0
   59.5888   26.1210   46.2329 C   0  0  0  0  0  0  0  0  0  0  0  0
   60.7930   26.0260   46.5938 O   0  0  0  0  0  0  0  0  0  0  0  0
   61.3089   31.8279   49.4781 C   0  0  0  0  0  0  0  0  0  0  0  0
   62.1813   31.4583   50.5119 C   0  0  0  0  0  0  0  0  0  0  0  0
   62.9361   32.4235   51.1807 C   0  0  0  0  0  0  0  0  0  0  0  0
   62.8273   33.7669   50.8218 C   0  0  0  0  0  0  0  0  0  0  0  0
   61.9588   34.1513   49.7975 C   0  0  0  0  0  0  0  0  0  0  0  0
   61.1879   33.1914   49.1156 C   0  0  0  0  0  0  0  0  0  0  0  0
   60.2452   33.6296   48.0588 C   0  0  0  0  0  0  0  0  0  0  0  0
   60.6160   34.4843   47.2081 O   0  0  0  0  0  0  0  0  0  0  0  0
   58.9166   33.0931   47.9963 N   0  0  0  0  0  0  0  0  0  0  0  0
   58.6185   32.4597   48.6886 H   0  0  0  0  0  0  0  0  0  0  0  0
   57.9955   33.4693   46.9231 C   0  0  0  0  0  0  0  0  0  0  0  0
   58.4022   32.8192   45.5974 C   0  0  0  0  0  0  0  0  0  0  0  0
   57.3840   31.9452   45.1488 O   0  0  0  0  0  0  0  0  0  0  0  0
   57.6831   31.4641   43.8568 C   0  0  0  0  0  0  0  0  0  0  0  0
  1  2  2  0
  2  3  1  0
  3  4  2  0
  4  9  1  0
  9 10  2  0
 10 11  1  0
 10 12  1  0
 12 13  1  0
 13 14  2  0
 13 15  1  0
 15 16  1  0
 16 17  2  0
  3  5  1  0
  5  6  2  0
  6  7  1  0
  6  8  1  0
  8 18  1  0
 18 19  2  0
 19 20  1  0
 20 21  2  0
 21 22  1  0
 22 23  2  0
 23 24  1  0
 24 25  2  0
 24 26  1  0
 26 28  1  0
 28 29  1  0
 29 30  1  0
 30 31  1  0
  8  2  1  0
 23 18  1  0
 16  9  1  0
 26 27  1  0
M  CHG 1  11  -1
M  CHG 1  12  -1
M  CHG 1  15  -1
M  END
> <UniqueID>
41

> <SMILES>
C=c1/c(=C/c2c([O-])[n-]c(=O)[n-]c2=O)cc(C)n1-c1ccccc1C(=O)NCCOC

> <Energy>
97.49405960174187

> <Genealogy>
C=c1c(=Cc2c([O-])[n-]c(=O)[n-]c2=O)cc(C)n1-c1ccccc1C(=O)NCCOC (protonated)
C=c1/c(=C/c2c([O-])[n-]c(=O)[n-]c2=O)cc(C)n1-c1ccccc1C(=O)NCCOC (cis-trans isomerization)
C=c1/c(=C/c2c([O-])[n-]c(=O)[n-]c2=O)cc(C)n1-c1ccccc1C(=O)NCCOC (3D coordinates assigned)
C=c1/c(=C/c2c([O-])[n-]c(=O)[n-]c2=O)cc(C)n1-c1ccccc1C(=O)NCCOC (optimized conformer: 97.49405960174187 kcal/mol)

> <smiles>
C=c1c(=Cc2c(O)[nH]c(=O)[nH]c2=O)cc(C)n1-c1ccccc1C(=O)NCCOC

> <score_type>
oracle

> <origin>
adg

> <m_score__min__energy>
-15.33

> <m_primary>
energy

> <minimizedAffinity>
-7.07554

> <minimizedRMSD>
1.83668

> <CNNscore>
0.2462762147

> <CNNaffinity>
6.4595761299

> <CNN_VS>
1.5908399820

> <CNNaffinity_variance>
0.0187522881

$$$$
49:0


 27 30  0  0  0  0  0  0  0  0999 V2000
   59.9747   26.9452   47.6915 C   0  0  0  0  0  0  0  0  0  0  0  0
   59.2465   27.4249   46.6706 C   0  0  0  0  0  0  0  0  0  0  0  0
   58.6006   26.6644   45.6888 C   0  0  0  0  0  0  0  0  0  0  0  0
   58.5847   25.3207   45.5715 C   0  0  0  0  0  0  0  0  0  0  0  0
   58.0271   27.5714   44.8089 C   0  0  0  0  0  0  0  0  0  0  0  0
   58.3209   28.8316   45.2892 C   0  0  0  0  0  0  0  0  0  0  0  0
   57.8905   30.1072   44.6311 C   0  0  0  0  0  0  0  0  0  0  0  0
   59.0630   28.7462   46.4176 N   0  0  0  0  0  0  0  0  0  0  0  0
   57.4889   24.4637   46.0576 C   0  0  0  0  0  0  0  0  0  0  0  0
   57.6613   23.1808   46.4192 N   0  0  0  0  0  0  0  0  0  0  0  0
   56.4426   22.8153   46.8730 C   0  0  0  0  0  0  0  0  0  0  0  0
   56.1962   21.6562   47.2966 O   0  0  0  0  0  0  0  0  0  0  0  0
   55.5123   23.7935   46.8474 N   0  0  0  0  0  0  0  0  0  0  0  0
   56.1907   24.8345   46.3410 C   0  0  0  0  0  0  0  0  0  0  0  0
   55.6496   26.1053   46.1891 O   0  0  0  0  0  0  0  0  0  0  0  0
   59.5320   29.8596   47.2013 C   0  0  0  0  0  0  0  0  0  0  0  0
   59.0086   30.3173   48.3935 C   0  0  0  0  0  0  0  0  0  0  0  0
   59.7558   31.3536   48.8219 N   0  0  0  0  0  0  0  0  0  0  0  0
   60.7287   31.5473   47.9420 N   0  0  0  0  0  0  0  0  0  0  0  0
   60.6260   30.6505   46.9385 C   0  0  0  0  0  0  0  0  0  0  0  0
   61.7399   32.6012   48.0777 C   0  0  0  0  0  0  0  0  0  0  0  0
   61.2470   33.7348   49.0121 C   0  0  0  0  0  0  0  0  0  0  0  0
   61.9372   33.6881   50.3805 C   0  0  0  0  0  0  0  0  0  0  0  0
   63.4086   33.8172   50.2576 N   0  0  0  0  0  0  0  0  0  0  0  0
   64.0581   33.4207   51.5160 C   0  0  0  0  0  0  0  0  0  0  0  0
   63.9984   33.0997   49.0946 C   0  0  0  0  0  0  0  0  0  0  0  0
   63.0830   32.0011   48.5388 C   0  0  0  0  0  0  0  0  0  0  0  0
  1  2  2  0
  2  3  1  0
  3  4  2  0
  4  9  1  0
  9 10  1  0
 10 11  1  0
 11 12  2  0
 11 13  1  0
 13 14  1  0
 14 15  1  0
  3  5  1  0
  5  6  2  0
  6  7  1  0
  6  8  1  0
  8 16  1  0
 16 17  1  0
 17 18  2  0
 18 19  1  0
 19 21  1  0
 21 22  1  0
 22 23  1  0
 23 24  1  0
 24 25  1  0
 24 26  1  0
 26 27  1  0
 19 20  1  0
  8  2  1  0
 20 16  2  0
 14  9  2  0
 27 21  1  0
M  CHG 1  10  -1
M  CHG 1  13  -1
M  CHG 1  15  -1
M  END
> <UniqueID>
47

> <SMILES>
C=c1/c(=C/c2[n-]c(=O)[n-]c2[O-])cc(C)n1-c1cnn(C2CCN(C)CC2)c1

> <Energy>
159.18884300520904

> <Genealogy>
C=c1c(=Cc2[n-]c(=O)[n-]c2[O-])cc(C)n1-c1cnn(C2CCN(C)CC2)c1 (protonated)
C=c1/c(=C/c2[n-]c(=O)[n-]c2[O-])cc(C)n1-c1cnn(C2CCN(C)CC2)c1 (cis-trans isomerization)
C=c1/c(=C/c2[n-]c(=O)[n-]c2[O-])cc(C)n1-c1cnn(C2CCN(C)CC2)c1 (3D coordinates assigned)
C=c1/c(=C/c2[n-]c(=O)[n-]c2[O-])cc(C)n1-c1cnn(C2CCN(C)CC2)c1 (nonaromatic ring conformer: 159.18884300520904 kcal/mol)

> <smiles>
C=c1c(=Cc2[nH]c(=O)[nH]c2O)cc(C)n1-c1cnn(C2CCN(C)CC2)c1

> <score_type>
oracle

> <origin>
adg

> <m_score__min__energy>
-16.100000000000001

> <m_primary>
energy

> <minimizedAffinity>
-8.30190

> <minimizedRMSD>
1.75810

> <CNNscore>
0.0830707103

> <CNNaffinity>
5.8269634247

> <CNN_VS>
0.4840499759

> <CNNaffinity_variance>
0.2261493653

$$$$
67:0


 37 41  0  0  0  0  0  0  0  0999 V2000
   59.9855   30.0811   47.8952 C   0  0  0  0  0  0  0  0  0  0  0  0
   60.2616   29.1713   48.9249 C   0  0  0  0  0  0  0  0  0  0  0  0
   59.9882   29.5027   50.2553 C   0  0  0  0  0  0  0  0  0  0  0  0
   59.4465   30.7583   50.5872 C   0  0  0  0  0  0  0  0  0  0  0  0
   59.1761   31.6697   49.5484 C   0  0  0  0  0  0  0  0  0  0  0  0
   59.4457   31.3337   48.2173 C   0  0  0  0  0  0  0  0  0  0  0  0
   59.1410   31.0548   52.0181 C   0  0  0  0  0  0  0  0  0  0  0  0
   59.9078   31.8484   52.6305 O   0  0  0  0  0  0  0  0  0  0  0  0
   58.0139   30.4885   52.7402 N   0  0  0  0  0  0  0  0  0  0  0  0
   56.8053   30.4052   51.8761 C   0  0  0  0  0  0  0  0  0  0  0  0
   55.4848   30.5355   52.6605 C   0  0  0  0  0  0  0  0  0  0  0  0
   55.5868   29.8171   54.0227 C   0  0  0  0  0  0  0  0  0  0  0  0
   56.7409   30.3951   54.8798 C   0  0  0  0  0  0  0  0  0  0  0  0
   57.7856   31.1567   54.0419 C   0  0  0  0  0  0  0  0  0  0  0  0
   57.9137   30.1792   53.6695 H   0  0  0  0  0  0  0  0  0  0  0  0
   54.3228   29.8238   54.8084 N   0  0  0  0  0  0  0  0  0  0  0  0
   53.0663   30.1865   54.1105 C   0  0  0  0  0  0  0  0  0  0  0  0
   52.2936   28.9625   53.5878 C   0  0  0  0  0  0  0  0  0  0  0  0
   52.1077   27.9131   54.6832 C   0  0  0  0  0  0  0  0  0  0  0  0
   53.4541   27.5287   55.2978 C   0  0  0  0  0  0  0  0  0  0  0  0
   54.1737   28.7708   55.8352 C   0  0  0  0  0  0  0  0  0  0  0  0
   60.2418   29.7167   46.4554 C   0  0  0  0  0  0  0  0  0  0  0  0
   60.6340   26.7266   46.2692 C   0  0  0  0  0  0  0  0  0  0  0  0
   59.4960   27.3425   45.9176 C   0  0  0  0  0  0  0  0  0  0  0  0
   58.2800   26.7561   45.5320 C   0  0  0  0  0  0  0  0  0  0  0  0
   57.9849   25.4727   45.2528 C   0  0  0  0  0  0  0  0  0  0  0  0
   57.3378   27.7186   45.4453 N   0  0  0  0  0  0  0  0  0  0  0  0
   57.9950   28.8576   45.7281 C   0  0  0  0  0  0  0  0  0  0  0  0
   57.4264   29.9820   45.7369 O   0  0  0  0  0  0  0  0  0  0  0  0
   59.3023   28.6795   46.0065 N   0  0  0  0  0  0  0  0  0  0  0  0
   57.1659   24.5821   46.0865 C   0  0  0  0  0  0  0  0  0  0  0  0
   57.6563   23.5157   46.7450 N   0  0  0  0  0  0  0  0  0  0  0  0
   56.5915   23.0687   47.4469 C   0  0  0  0  0  0  0  0  0  0  0  0
   56.6476   22.0537   48.1898 O   0  0  0  0  0  0  0  0  0  0  0  0
   55.4634   23.7981   47.2963 N   0  0  0  0  0  0  0  0  0  0  0  0
   55.8480   24.7597   46.4429 C   0  0  0  0  0  0  0  0  0  0  0  0
   55.0203   25.7925   46.0170 O   0  0  0  0  0  0  0  0  0  0  0  0
 23 24  2  0
 24 25  1  0
 25 26  2  0
 26 31  1  0
 31 32  1  0
 32 33  1  0
 33 34  2  0
 33 35  1  0
 35 36  1  0
 36 37  1  0
 25 27  1  0
 27 28  1  0
 28 29  2  0
 28 30  1  0
 30 22  1  0
 22  1  1  0
  1  2  2  0
  2  3  1  0
  3  4  2  0
  4  7  1  0
  7  8  2  0
  9  7  1  0
  9 10  1  0
 10 11  1  0
 11 12  1  0
 12 16  1  0
 16 17  1  0
 17 18  1  0
 18 19  1  0
 19 20  1  0
 20 21  1  0
 12 13  1  0
 13 14  1  0
  4  5  1  0
  5  6  2  0
 30 24  1  0
  6  1  1  0
 36 31  2  0
 14  9  1  0
 21 16  1  0
  9 15  1  0
M  CHG 1   9   1
M  CHG 1  27  -1
M  CHG 1  32  -1
M  CHG 1  35  -1
M  CHG 1  37  -1
M  END
> <UniqueID>
63

> <SMILES>
C=c1c(=Cc2[n-]c(=O)[n-]c2[O-])[n-]c(=O)n1Cc1ccc(C(=O)[NH+]2CCC(N3CCCCC3)CC2)cc1

> <Energy>
165.6318734931002

> <Genealogy>
C=c1c(=Cc2[n-]c(=O)[n-]c2[O-])[n-]c(=O)n1Cc1ccc(C(=O)[NH+]2CCC(N3CCCCC3)CC2)cc1 (protonated)
C=c1c(=Cc2[n-]c(=O)[n-]c2[O-])[n-]c(=O)n1Cc1ccc(C(=O)[NH+]2CCC(N3CCCCC3)CC2)cc1 (3D coordinates assigned)
C=c1c(=Cc2[n-]c(=O)[n-]c2[O-])[n-]c(=O)n1Cc1ccc(C(=O)[NH+]2CCC(N3CCCCC3)CC2)cc1 (nonaromatic ring conformer: 165.6318734931002 kcal/mol)

> <smiles>
C=c1c(=Cc2[nH]c(=O)[nH]c2O)[nH]c(=O)n1Cc1ccc(C(=O)N2CCC(N3CCCCC3)CC2)cc1

> <score_type>
oracle

> <origin>
adg

> <m_score__min__energy>
-18.41

> <m_primary>
energy

> <minimizedAffinity>
-7.92889

> <minimizedRMSD>
2.24308

> <CNNscore>
0.1982221454

> <CNNaffinity>
6.3373446465

> <CNN_VS>
1.2562021017

> <CNNaffinity_variance>
0.0804507956

$$$$
1:0


 30 33  0  0  0  0  0  0  0  0999 V2000
   60.0236   29.4900   45.2345 C   0  0  0  0  0  0  0  0  0  0  0  0
   59.5905   29.5671   46.5025 C   0  0  0  0  0  0  0  0  0  0  0  0
   59.4636   28.5182   47.4285 C   0  0  0  0  0  0  0  0  0  0  0  0
   59.5509   27.1832   47.2734 C   0  0  0  0  0  0  0  0  0  0  0  0
   59.1732   29.1116   48.6481 C   0  0  0  0  0  0  0  0  0  0  0  0
   59.0786   30.4693   48.4204 C   0  0  0  0  0  0  0  0  0  0  0  0
   58.6907   31.4891   49.4457 C   0  0  0  0  0  0  0  0  0  0  0  0
   59.3096   30.7402   47.1187 N   0  0  0  0  0  0  0  0  0  0  0  0
   58.4240   26.2650   47.0492 C   0  0  0  0  0  0  0  0  0  0  0  0
   58.2640   25.1116   47.7208 N   0  0  0  0  0  0  0  0  0  0  0  0
   57.0557   24.6731   47.3051 C   0  0  0  0  0  0  0  0  0  0  0  0
   56.5520   23.5913   47.7072 O   0  0  0  0  0  0  0  0  0  0  0  0
   56.4240   25.4884   46.4355 N   0  0  0  0  0  0  0  0  0  0  0  0
   57.2962   26.5008   46.2949 C   0  0  0  0  0  0  0  0  0  0  0  0
   57.0527   27.6230   45.5153 O   0  0  0  0  0  0  0  0  0  0  0  0
   59.2735   32.0491   46.5210 C   0  0  0  0  0  0  0  0  0  0  0  0
   58.2529   32.3376   45.6053 C   0  0  0  0  0  0  0  0  0  0  0  0
   58.1659   33.5988   45.0159 C   0  0  0  0  0  0  0  0  0  0  0  0
   59.0978   34.5838   45.3374 C   0  0  0  0  0  0  0  0  0  0  0  0
   60.1227   34.3110   46.2459 C   0  0  0  0  0  0  0  0  0  0  0  0
   60.2337   33.0437   46.8507 C   0  0  0  0  0  0  0  0  0  0  0  0
   61.3484   32.7791   47.8027 C   0  0  0  0  0  0  0  0  0  0  0  0
   61.4386   33.3327   49.0311 N   0  0  0  0  0  0  0  0  0  0  0  0
   62.5490   32.9396   49.7093 C   0  0  0  0  0  0  0  0  0  0  0  0
   63.3721   32.0497   49.0256 C   0  0  0  0  0  0  0  0  0  0  0  0
   62.6669   31.7635   47.5261 S   0  0  0  0  0  0  0  0  0  0  0  0
   62.8371   33.4571   51.0533 C   0  0  0  0  0  0  0  0  0  0  0  0
   61.9889   33.3323   51.9782 O   0  0  0  0  0  0  0  0  0  0  0  0
   64.0673   34.0764   51.2921 O   0  0  0  0  0  0  0  0  0  0  0  0
   65.0784   33.4925   52.1035 C   0  0  0  0  0  0  0  0  0  0  0  0
  1  2  2  0
  2  3  1  0
  3  4  2  0
  4  9  1  0
  9 10  1  0
 10 11  1  0
 11 12  2  0
 11 13  1  0
 13 14  1  0
 14 15  1  0
  3  5  1  0
  5  6  2  0
  6  7  1  0
  6  8  1  0
  8 16  1  0
 16 17  2  0
 17 18  1  0
 18 19  2  0
 19 20  1  0
 20 21  2  0
 21 22  1  0
 22 23  2  0
 23 24  1  0
 24 27  1  0
 27 28  2  0
 27 29  1  0
 29 30  1  0
 24 25  2  0
 25 26  1  0
  8  2  1  0
 21 16  1  0
 26 22  1  0
 14  9  2  0
M  CHG 1  10  -1
M  CHG 1  13  -1
M  CHG 1  15  -1
M  END
> <UniqueID>
2

> <SMILES>
C=c1c(=Cc2[n-]c(=O)[n-]c2[O-])cc(C)n1-c1ccccc1-c1nc(C(=O)OC)cs1

> <Energy>
150.83249932860005

> <Genealogy>
C=c1c(=Cc2[n-]c(=O)[n-]c2[O-])cc(C)n1-c1ccccc1-c1nc(C(=O)OC)cs1 (protonated)
C=c1c(=Cc2[n-]c(=O)[n-]c2[O-])cc(C)n1-c1ccccc1-c1nc(C(=O)OC)cs1 (3D coordinates assigned)
C=c1c(=Cc2[n-]c(=O)[n-]c2[O-])cc(C)n1-c1ccccc1-c1nc(C(=O)OC)cs1 (optimized conformer: 150.83249932860005 kcal/mol)

> <smiles>
C=c1c(=Cc2[nH]c(=O)[nH]c2O)cc(C)n1-c1ccccc1-c1nc(C(=O)OC)cs1

> <score_type>
oracle

> <origin>
adg

> <m_score__min__energy>
-16.739999999999998

> <m_primary>
energy

> <minimizedAffinity>
-8.03864

> <minimizedRMSD>
1.48864

> <CNNscore>
0.6672884226

> <CNNaffinity>
7.1230640411

> <CNN_VS>
4.7531380653

> <CNNaffinity_variance>
0.0171897057

$$$$
3:0


 30 33  0  0  0  0  0  0  0  0999 V2000
   57.2349   29.6039   44.0861 C   0  0  0  0  0  0  0  0  0  0  0  0
   57.8246   29.1120   45.1818 C   0  0  0  0  0  0  0  0  0  0  0  0
   58.1018   27.7737   45.4653 C   0  0  0  0  0  0  0  0  0  0  0  0
   57.7907   26.6991   44.7173 C   0  0  0  0  0  0  0  0  0  0  0  0
   58.7170   27.7649   46.7102 C   0  0  0  0  0  0  0  0  0  0  0  0
   58.8143   29.0860   47.1107 C   0  0  0  0  0  0  0  0  0  0  0  0
   58.2573   29.8952   46.1889 N   0  0  0  0  0  0  0  0  0  0  0  0
   58.1808   30.8753   46.2414 H   0  0  0  0  0  0  0  0  0  0  0  0
   59.3957   29.5806   48.3769 C   0  0  0  0  0  0  0  0  0  0  0  0
   58.7592   29.3661   49.4437 O   0  0  0  0  0  0  0  0  0  0  0  0
   60.6338   30.3262   48.4211 N   0  0  0  0  0  0  0  0  0  0  0  0
   61.3154   30.5357   49.7012 C   0  0  0  0  0  0  0  0  0  0  0  0
   61.0489   31.9635   50.1832 C   0  0  0  0  0  0  0  0  0  0  0  0
   61.2326   33.0299   49.0637 C   0  0  0  0  0  0  0  0  0  0  0  0
   61.7683   32.4478   47.7289 C   0  0  0  0  0  0  0  0  0  0  0  0
   61.0659   31.1480   47.2790 C   0  0  0  0  0  0  0  0  0  0  0  0
   60.0010   33.9611   48.8926 C   0  0  0  0  0  0  0  0  0  0  0  0
   59.3653   33.9422   47.5212 C   0  0  0  0  0  0  0  0  0  0  0  0
   58.1757   33.2310   47.2873 C   0  0  0  0  0  0  0  0  0  0  0  0
   57.6048   33.2073   46.0121 C   0  0  0  0  0  0  0  0  0  0  0  0
   58.2076   33.9038   44.9608 C   0  0  0  0  0  0  0  0  0  0  0  0
   59.3735   34.6383   45.1892 C   0  0  0  0  0  0  0  0  0  0  0  0
   59.9432   34.6702   46.4650 C   0  0  0  0  0  0  0  0  0  0  0  0
   57.4263   25.3839   45.2756 C   0  0  0  0  0  0  0  0  0  0  0  0
   58.2742   24.3418   45.3217 N   0  0  0  0  0  0  0  0  0  0  0  0
   57.5685   23.3909   45.9718 C   0  0  0  0  0  0  0  0  0  0  0  0
   58.0296   22.2431   46.2017 O   0  0  0  0  0  0  0  0  0  0  0  0
   56.3331   23.7703   46.3648 N   0  0  0  0  0  0  0  0  0  0  0  0
   56.2621   25.0388   45.9277 C   0  0  0  0  0  0  0  0  0  0  0  0
   55.1755   25.8718   46.1653 O   0  0  0  0  0  0  0  0  0  0  0  0
  1  2  2  0
  2  3  1  0
  3  4  2  0
  4 24  1  0
 24 25  1  0
 25 26  1  0
 26 27  2  0
 26 28  1  0
 28 29  1  0
 29 30  1  0
  3  5  1  0
  5  6  2  0
  6  9  1  0
  9 10  2  0
  9 11  1  0
 11 12  1  0
 12 13  1  0
 13 14  1  0
 14 17  1  0
 17 18  1  0
 18 19  2  0
 19 20  1  0
 20 21  2  0
 21 22  1  0
 22 23  2  0
 14 15  1  0
 15 16  1  0
  6  7  1  0
  7  2  1  0
 29 24  2  0
 16 11  1  0
 23 18  1  0
  7  8  1  0
M  CHG 1  25  -1
M  CHG 1  28  -1
M  CHG 1  30  -1
M  END
> <UniqueID>
4

> <SMILES>
C=c1[nH]c(C(=O)N2CCC(Cc3ccccc3)CC2)c/c1=C\c1[n-]c(=O)[n-]c1[O-]

> <Energy>
121.49138854928728

> <Genealogy>
C=c1[nH]c(C(=O)N2CCC(Cc3ccccc3)CC2)cc1=Cc1[n-]c(=O)[n-]c1[O-] (protonated)
C=c1[nH]c(C(=O)N2CCC(Cc3ccccc3)CC2)c/c1=C\c1[n-]c(=O)[n-]c1[O-] (cis-trans isomerization)
C=c1[nH]c(C(=O)N2CCC(Cc3ccccc3)CC2)c/c1=C\c1[n-]c(=O)[n-]c1[O-] (3D coordinates assigned)
C=c1[nH]c(C(=O)N2CCC(Cc3ccccc3)CC2)c/c1=C\c1[n-]c(=O)[n-]c1[O-] (nonaromatic ring conformer: 121.49138854928728 kcal/mol)

> <smiles>
C=c1[nH]c(C(=O)N2CCC(Cc3ccccc3)CC2)cc1=Cc1[nH]c(=O)[nH]c1O

> <score_type>
oracle

> <origin>
adg

> <m_score__min__energy>
-18.140000000000001

> <m_primary>
energy

> <minimizedAffinity>
-10.14104

> <minimizedRMSD>
0.92232

> <CNNscore>
0.6057479382

> <CNNaffinity>
7.1593365669

> <CNN_VS>
4.3367533684

> <CNNaffinity_variance>
0.0000370636

$$$$
4:0


 35 38  0  0  0  0  0  0  0  0999 V2000
   58.9217   28.8407   46.5941 C   0  0  0  0  0  0  0  0  0  0  0  0
   59.0505   29.2306   47.9329 C   0  0  0  0  0  0  0  0  0  0  0  0
   59.2203   30.5786   48.2610 C   0  0  0  0  0  0  0  0  0  0  0  0
   59.2529   31.5580   47.2521 C   0  0  0  0  0  0  0  0  0  0  0  0
   59.1356   31.1581   45.9084 C   0  0  0  0  0  0  0  0  0  0  0  0
   58.9736   29.8091   45.5838 C   0  0  0  0  0  0  0  0  0  0  0  0
   56.8505   27.6090   44.8635 C   0  0  0  0  0  0  0  0  0  0  0  0
   57.7954   26.8925   45.4924 C   0  0  0  0  0  0  0  0  0  0  0  0
   58.0350   25.5126   45.3755 C   0  0  0  0  0  0  0  0  0  0  0  0
   57.3151   24.5327   44.7955 C   0  0  0  0  0  0  0  0  0  0  0  0
   59.2308   25.2714   46.0339 C   0  0  0  0  0  0  0  0  0  0  0  0
   59.6371   26.4715   46.5807 C   0  0  0  0  0  0  0  0  0  0  0  0
   60.8917   26.6715   47.3741 C   0  0  0  0  0  0  0  0  0  0  0  0
   58.7656   27.4527   46.2603 N   0  0  0  0  0  0  0  0  0  0  0  0
   56.1860   23.8154   45.4099 C   0  0  0  0  0  0  0  0  0  0  0  0
   56.0393   22.4763   45.4118 N   0  0  0  0  0  0  0  0  0  0  0  0
   54.8005   22.2983   45.9208 C   0  0  0  0  0  0  0  0  0  0  0  0
   54.2984   21.1592   46.1004 O   0  0  0  0  0  0  0  0  0  0  0  0
   54.1368   23.4383   46.2082 N   0  0  0  0  0  0  0  0  0  0  0  0
   55.0233   24.3871   45.8657 C   0  0  0  0  0  0  0  0  0  0  0  0
   54.7697   25.7512   45.9590 O   0  0  0  0  0  0  0  0  0  0  0  0
   59.4497   32.9845   47.6063 C   0  0  0  0  0  0  0  0  0  0  0  0
   58.4621   33.7691   47.5762 O   0  0  0  0  0  0  0  0  0  0  0  0
   60.7372   33.4909   48.0077 N   0  0  0  0  0  0  0  0  0  0  0  0
   61.8179   33.6483   47.0316 C   0  0  0  0  0  0  0  0  0  0  0  0
   60.9578   33.9190   49.3946 C   0  0  0  0  0  0  0  0  0  0  0  0
   61.6635   32.8205   50.2029 C   0  0  0  0  0  0  0  0  0  0  0  0
   60.8896   32.4769   51.4156 N   0  0  0  0  0  0  0  0  0  0  0  0
   59.5996   33.2208   51.4962 C   0  0  0  0  0  0  0  0  0  0  0  0
   58.3701   32.3952   51.0981 C   0  0  0  0  0  0  0  0  0  0  0  0
   58.1966   31.0365   52.2320 S   0  0  0  0  0  0  0  0  0  0  0  0
   57.5191   29.8785   51.5548 O   0  0  0  0  0  0  0  0  0  0  0  0
   57.4062   31.4557   53.4403 O   0  0  0  0  0  0  0  0  0  0  0  0
   59.8513   30.5953   52.7104 C   0  0  0  0  0  0  0  0  0  0  0  0
   60.8066   31.0042   51.5879 C   0  0  0  0  0  0  0  0  0  0  0  0
  7  8  2  0
  8  9  1  0
  9 10  2  0
 10 15  1  0
 15 16  1  0
 16 17  1  0
 17 18  2  0
 17 19  1  0
 19 20  1  0
 20 21  1  0
  9 11  1  0
 11 12  2  0
 12 13  1  0
 12 14  1  0
 14  1  1  0
  1  2  2  0
  2  3  1  0
  3  4  2  0
  4 22  1  0
 22 23  2  0
 22 24  1  0
 24 25  1  0
 24 26  1  0
 26 27  1  0
 27 28  1  0
 28 29  1  0
 29 30  1  0
 30 31  1  0
 31 32  2  0
 31 33  2  0
 31 34  1  0
 34 35  1  0
  4  5  1  0
  5  6  2  0
 14  8  1  0
  6  1  1  0
 20 15  2  0
 35 28  1  0
M  CHG 1  16  -1
M  CHG 1  19  -1
M  CHG 1  21  -1
M  END
> <UniqueID>
5

> <SMILES>
C=c1c(=Cc2[n-]c(=O)[n-]c2[O-])cc(C)n1-c1ccc(C(=O)N(C)CCN2CCS(=O)(=O)CC2)cc1

> <Energy>
141.43606159322735

> <Genealogy>
C=c1c(=Cc2[n-]c(=O)[n-]c2[O-])cc(C)n1-c1ccc(C(=O)N(C)CCN2CCS(=O)(=O)CC2)cc1 (protonated)
C=c1c(=Cc2[n-]c(=O)[n-]c2[O-])cc(C)n1-c1ccc(C(=O)N(C)CCN2CCS(=O)(=O)CC2)cc1 (3D coordinates assigned)
C=c1c(=Cc2[n-]c(=O)[n-]c2[O-])cc(C)n1-c1ccc(C(=O)N(C)CCN2CCS(=O)(=O)CC2)cc1 (nonaromatic ring conformer: 141.43606159322735 kcal/mol)

> <smiles>
C=c1c(=Cc2[nH]c(=O)[nH]c2O)cc(C)n1-c1ccc(C(=O)N(C)CCN2CCS(=O)(=O)CC2)cc1

> <score_type>
oracle

> <origin>
adg

> <m_score__min__energy>
-16.989999999999998

> <m_primary>
energy

> <minimizedAffinity>
-7.71830

> <minimizedRMSD>
0.83938

> <CNNscore>
0.0896814615

> <CNNaffinity>
6.3913693428

> <CNN_VS>
0.5731873512

> <CNNaffinity_variance>
0.1478138119

$$$$
6:0


 33 36  0  0  0  0  0  0  0  0999 V2000
   57.8843   29.0468   45.7149 C   0  0  0  0  0  0  0  0  0  0  0  0
   56.9039   28.9511   44.7024 C   0  0  0  0  0  0  0  0  0  0  0  0
   56.8520   29.8750   43.6601 C   0  0  0  0  0  0  0  0  0  0  0  0
   57.7521   30.9391   43.6188 C   0  0  0  0  0  0  0  0  0  0  0  0
   57.7037   31.8720   42.5847 O   0  0  0  0  0  0  0  0  0  0  0  0
   58.7004   31.0814   44.6289 C   0  0  0  0  0  0  0  0  0  0  0  0
   58.7863   30.1538   45.6847 C   0  0  0  0  0  0  0  0  0  0  0  0
   57.0682   31.7822   41.9020 H   0  0  0  0  0  0  0  0  0  0  0  0
   57.9156   28.0398   46.8575 C   0  0  0  0  0  0  0  0  0  0  0  0
   58.5539   22.7742   45.2612 O   0  0  0  0  0  0  0  0  0  0  0  0
   58.4112   23.9673   45.6341 C   0  0  0  0  0  0  0  0  0  0  0  0
   57.1681   24.4987   45.7427 N   0  0  0  0  0  0  0  0  0  0  0  0
   56.9871   25.7848   46.1405 C   0  0  0  0  0  0  0  0  0  0  0  0
   55.6958   26.2865   46.2561 O   0  0  0  0  0  0  0  0  0  0  0  0
   58.0991   26.5925   46.4433 C   0  0  0  0  0  0  0  0  0  0  0  0
   59.3775   26.0112   46.3281 C   0  0  0  0  0  0  0  0  0  0  0  0
   60.4147   26.6724   46.5958 O   0  0  0  0  0  0  0  0  0  0  0  0
   59.5007   24.7190   45.9284 N   0  0  0  0  0  0  0  0  0  0  0  0
   59.7927   30.4343   46.7882 C   0  0  0  0  0  0  0  0  0  0  0  0
   59.2797   31.4346   47.8434 C   0  0  0  0  0  0  0  0  0  0  0  0
   59.9221   32.8307   47.7544 C   0  0  0  0  0  0  0  0  0  0  0  0
   61.2503   32.8937   48.4007 N   0  0  0  0  0  0  0  0  0  0  0  0
   62.2726   33.3474   47.4349 C   0  0  0  0  0  0  0  0  0  0  0  0
   63.6660   33.0619   48.0060 C   0  0  0  0  0  0  0  0  0  0  0  0
   63.6561   33.1796   49.4673 N   0  0  0  0  0  0  0  0  0  0  0  0
   62.6836   34.0927   50.0831 C   0  0  0  0  0  0  0  0  0  0  0  0
   61.2539   33.7607   49.6047 C   0  0  0  0  0  0  0  0  0  0  0  0
   64.6406   32.4702   50.2421 C   0  0  0  0  0  0  0  0  0  0  0  0
   64.2859   31.3593   51.0266 C   0  0  0  0  0  0  0  0  0  0  0  0
   65.2766   30.6756   51.7343 C   0  0  0  0  0  0  0  0  0  0  0  0
   66.6051   31.0933   51.6500 C   0  0  0  0  0  0  0  0  0  0  0  0
   66.9269   32.1872   50.8473 C   0  0  0  0  0  0  0  0  0  0  0  0
   65.9499   32.8411   50.1649 N   0  0  0  0  0  0  0  0  0  0  0  0
 10 11  2  0
 11 12  1  0
 12 13  1  0
 13 14  1  0
 13 15  2  0
 15  9  1  0
  9  1  1  0
  1  2  2  0
  2  3  1  0
  3  4  2  0
  4  5  1  0
  4  6  1  0
  6  7  2  0
  7 19  1  0
 19 20  1  0
 20 21  1  0
 21 22  1  0
 22 23  1  0
 23 24  1  0
 24 25  1  0
 25 28  1  0
 28 29  2  0
 29 30  1  0
 30 31  2  0
 31 32  1  0
 32 33  2  0
 25 26  1  0
 26 27  1  0
 15 16  1  0
 16 17  2  0
 16 18  1  0
 18 11  1  0
  7  1  1  0
 27 22  1  0
 33 28  1  0
  5  8  1  0
M  CHG 1  12  -1
M  CHG 1  14  -1
M  CHG 1  18  -1
M  END
> <UniqueID>
6

> <SMILES>
O=c1[n-]c([O-])c(Cc2ccc(O)cc2CCCN2CCN(c3ccccn3)CC2)c(=O)[n-]1

> <Energy>
71.65666726574287

> <Genealogy>
O=c1[n-]c([O-])c(Cc2ccc(O)cc2CCCN2CCN(c3ccccn3)CC2)c(=O)[n-]1 (protonated)
O=c1[n-]c([O-])c(Cc2ccc(O)cc2CCCN2CCN(c3ccccn3)CC2)c(=O)[n-]1 (3D coordinates assigned)
O=c1[n-]c([O-])c(Cc2ccc(O)cc2CCCN2CCN(c3ccccn3)CC2)c(=O)[n-]1 (nonaromatic ring conformer: 71.65666726574287 kcal/mol)

> <smiles>
O=c1[nH]c(O)c(Cc2ccc(O)cc2CCCN2CCN(c3ccccn3)CC2)c(=O)[nH]1

> <score_type>
oracle

> <origin>
adg

> <m_score__min__energy>
-16.170000000000002

> <m_primary>
energy

> <minimizedAffinity>
-7.95678

> <minimizedRMSD>
1.02486

> <CNNscore>
0.1542026252

> <CNNaffinity>
6.3091926575

> <CNN_VS>
0.9728940725

> <CNNaffinity_variance>
0.0774866864

$$$$
13:0


 35 38  0  0  0  0  0  0  0  0999 V2000
   59.9118   32.6419   48.1977 N   0  0  0  0  0  0  0  0  0  0  0  0
   59.7494   32.8694   46.8523 C   0  0  0  0  0  0  0  0  0  0  0  0
   59.9424   34.0157   46.3658 O   0  0  0  0  0  0  0  0  0  0  0  0
   59.3731   31.8658   46.0223 N   0  0  0  0  0  0  0  0  0  0  0  0
   59.1609   30.6106   46.4802 C   0  0  0  0  0  0  0  0  0  0  0  0
   58.7736   29.5991   45.5942 C   0  0  0  0  0  0  0  0  0  0  0  0
   58.6040   28.2811   46.0502 C   0  0  0  0  0  0  0  0  0  0  0  0
   58.8133   27.9913   47.4072 C   0  0  0  0  0  0  0  0  0  0  0  0
   59.1673   29.0071   48.3026 C   0  0  0  0  0  0  0  0  0  0  0  0
   59.3474   30.3268   47.8434 C   0  0  0  0  0  0  0  0  0  0  0  0
   59.7146   31.3768   48.7015 C   0  0  0  0  0  0  0  0  0  0  0  0
   59.8643   31.1525   49.9376 O   0  0  0  0  0  0  0  0  0  0  0  0
   58.2472   27.2118   45.1018 C   0  0  0  0  0  0  0  0  0  0  0  0
   58.3060   27.4285   43.8640 O   0  0  0  0  0  0  0  0  0  0  0  0
   57.8029   25.9430   45.5911 N   0  0  0  0  0  0  0  0  0  0  0  0
   56.4395   25.6995   46.0422 C   0  0  0  0  0  0  0  0  0  0  0  0
   56.1878   24.2188   46.0934 C   0  0  0  0  0  0  0  0  0  0  0  0
   57.2733   23.3464   46.2904 C   0  0  0  0  0  0  0  0  0  0  0  0
   57.0771   21.9619   46.2941 C   0  0  0  0  0  0  0  0  0  0  0  0
   55.7982   21.4362   46.0931 C   0  0  0  0  0  0  0  0  0  0  0  0
   54.7146   22.2915   45.8848 C   0  0  0  0  0  0  0  0  0  0  0  0
   54.9024   23.6795   45.8810 C   0  0  0  0  0  0  0  0  0  0  0  0
   53.8075   24.5086   45.6654 O   0  0  0  0  0  0  0  0  0  0  0  0
   60.2398   33.7679   49.0964 C   0  0  0  0  0  0  0  0  0  0  0  0
   64.2628   33.1118   50.5125 C   0  0  0  0  0  0  0  0  0  0  0  0
   64.0142   33.2904   49.1437 C   0  0  0  0  0  0  0  0  0  0  0  0
   62.7174   33.5422   48.6900 C   0  0  0  0  0  0  0  0  0  0  0  0
   61.6533   33.6325   49.6012 C   0  0  0  0  0  0  0  0  0  0  0  0
   61.9114   33.4995   50.9743 C   0  0  0  0  0  0  0  0  0  0  0  0
   63.2091   33.2526   51.4277 C   0  0  0  0  0  0  0  0  0  0  0  0
   67.5074   33.0354   52.6257 C   0  0  0  0  0  0  0  0  0  0  0  0
   66.3069   33.5672   51.9765 N   0  0  0  0  0  0  0  0  0  0  0  0
   65.8935   34.9534   52.2430 C   0  0  0  0  0  0  0  0  0  0  0  0
   65.6129   32.7576   51.0025 C   0  0  0  0  0  0  0  0  0  0  0  0
   66.1838   31.7441   50.5126 O   0  0  0  0  0  0  0  0  0  0  0  0
 31 32  1  0
 32 33  1  0
 32 34  1  0
 34 35  2  0
 34 25  1  0
 25 26  2  0
 26 27  1  0
 27 28  2  0
 28 24  1  0
 24  1  1  0
  1  2  1  0
  2  3  2  0
  2  4  1  0
  4  5  1  0
  5  6  2  0
  6  7  1  0
  7 13  1  0
 13 14  2  0
 13 15  1  0
 15 16  1  0
 16 17  1  0
 17 18  2  0
 18 19  1  0
 19 20  2  0
 20 21  1  0
 21 22  2  0
 22 23  1  0
  7  8  2  0
  8  9  1  0
  9 10  2  0
 10 11  1  0
 11 12  2  0
 28 29  1  0
 29 30  2  0
 30 25  1  0
 11  1  1  0
 10  5  1  0
 22 17  1  0
M  CHG 1   4  -1
M  CHG 1  15  -1
M  CHG 1  23  -1
M  END
> <UniqueID>
13

> <SMILES>
CN(C)C(=O)c1ccc(Cn2c(=O)[n-]c3cc(C(=O)[N-]Cc4ccccc4[O-])ccc3c2=O)cc1

> <Energy>
73.39893789262749

> <Genealogy>
CN(C)C(=O)c1ccc(Cn2c(=O)[n-]c3cc(C(=O)[N-]Cc4ccccc4[O-])ccc3c2=O)cc1 (protonated)
CN(C)C(=O)c1ccc(Cn2c(=O)[n-]c3cc(C(=O)[N-]Cc4ccccc4[O-])ccc3c2=O)cc1 (3D coordinates assigned)
CN(C)C(=O)c1ccc(Cn2c(=O)[n-]c3cc(C(=O)[N-]Cc4ccccc4[O-])ccc3c2=O)cc1 (optimized conformer: 73.39893789262749 kcal/mol)

> <smiles>
CN(C)C(=O)c1ccc(Cn2c(=O)[nH]c3cc(C(=O)NCc4ccccc4O)ccc3c2=O)cc1

> <score_type>
oracle

> <origin>
adg

> <m_score__min__energy>
-16.390000000000001

> <m_primary>
energy

> <minimizedAffinity>
-8.19801

> <minimizedRMSD>
2.29237

> <CNNscore>
0.2556983829

> <CNNaffinity>
6.5827574730

> <CNN_VS>
1.6832004786

> <CNNaffinity_variance>
0.1182907596

$$$$
16:0


 27 29  0  0  0  0  0  0  0  0999 V2000
   58.1811   31.8110   51.1023 C   0  0  0  0  0  0  0  0  0  0  0  0
   57.6930   32.4047   52.2514 C   0  0  0  0  0  0  0  0  0  0  0  0
   57.0811   31.4744   53.0044 N   0  0  0  0  0  0  0  0  0  0  0  0
   57.2163   30.3406   52.2905 C   0  0  0  0  0  0  0  0  0  0  0  0
   56.7434   29.2036   52.7065 N   0  0  0  0  0  0  0  0  0  0  0  0
   57.8812   30.4988   51.1256 N   0  0  0  0  0  0  0  0  0  0  0  0
   59.1519   33.0754   47.6433 C   0  0  0  0  0  0  0  0  0  0  0  0
   60.3654   33.7143   47.9274 C   0  0  0  0  0  0  0  0  0  0  0  0
   60.8548   33.7378   49.2338 C   0  0  0  0  0  0  0  0  0  0  0  0
   60.1400   33.1204   50.2633 C   0  0  0  0  0  0  0  0  0  0  0  0
   58.9233   32.4650   49.9964 C   0  0  0  0  0  0  0  0  0  0  0  0
   58.4377   32.4481   48.6741 C   0  0  0  0  0  0  0  0  0  0  0  0
   59.2970   34.2786   45.0651 N   0  0  0  0  0  0  0  0  0  0  0  0
   58.5418   33.0328   45.9926 S   0  0  0  0  0  0  0  0  0  0  0  0
   57.0524   33.2393   45.9906 O   0  0  0  0  0  0  0  0  0  0  0  0
   58.8424   31.6967   45.3734 O   0  0  0  0  0  0  0  0  0  0  0  0
   58.9426   34.2529   44.1090 H   0  0  0  0  0  0  0  0  0  0  0  0
   55.7486   29.0209   53.7260 C   0  0  0  0  0  0  0  0  0  0  0  0
   55.9661   29.3628   54.9205 O   0  0  0  0  0  0  0  0  0  0  0  0
   54.4137   28.4605   53.3527 C   0  0  0  0  0  0  0  0  0  0  0  0
   53.4465   29.5778   53.0727 C   0  0  0  0  0  0  0  0  0  0  0  0
   53.4763   30.2489   51.8380 C   0  0  0  0  0  0  0  0  0  0  0  0
   52.5544   31.2635   51.5654 C   0  0  0  0  0  0  0  0  0  0  0  0
   51.5890   31.6083   52.5174 C   0  0  0  0  0  0  0  0  0  0  0  0
   50.6742   32.6169   52.2450 O   0  0  0  0  0  0  0  0  0  0  0  0
   51.5454   30.9363   53.7436 C   0  0  0  0  0  0  0  0  0  0  0  0
   52.4662   29.9212   54.0191 C   0  0  0  0  0  0  0  0  0  0  0  0
 13 14  1  0
 14 15  2  0
 14 16  2  0
 14  7  1  0
  7  8  2  0
  8  9  1  0
  9 10  2  0
 10 11  1  0
 11  1  1  0
  1  2  2  0
  2  3  1  0
  3  4  1  0
  4  5  2  0
  5 18  1  0
 18 19  2  0
 18 20  1  0
 20 21  1  0
 21 22  2  0
 22 23  1  0
 23 24  2  0
 24 25  1  0
 24 26  1  0
 26 27  2  0
  4  6  1  0
 11 12  2  0
 12  7  1  0
  6  1  1  0
 27 21  1  0
 13 17  1  0
M  CHG 1   3  -1
M  CHG 1   6  -1
M  CHG 1  13  -1
M  CHG 1  25  -1
M  END
> <UniqueID>
16

> <SMILES>
[NH-]S(=O)(=O)c1cccc(-c2c[n-]c(=NC(=O)Cc3ccc([O-])cc3)[n-]2)c1

> <Energy>
69.64536204635579

> <Genealogy>
[NH-]S(=O)(=O)c1cccc(-c2c[n-]c(=NC(=O)Cc3ccc([O-])cc3)[n-]2)c1 (protonated)
[NH-]S(=O)(=O)c1cccc(-c2c[n-]c(=NC(=O)Cc3ccc([O-])cc3)[n-]2)c1 (3D coordinates assigned)
[NH-]S(=O)(=O)c1cccc(-c2c[n-]c(=NC(=O)Cc3ccc([O-])cc3)[n-]2)c1 (optimized conformer: 69.64536204635579 kcal/mol)

> <smiles>
NS(=O)(=O)c1cccc(-c2c[nH]c(=NC(=O)Cc3ccc(O)cc3)[nH]2)c1

> <score_type>
oracle

> <origin>
adg

> <m_score__min__energy>
-16.27

> <m_primary>
energy

> <minimizedAffinity>
-6.99195

> <minimizedRMSD>
0.69955

> <CNNscore>
0.4799944758

> <CNNaffinity>
5.4888930321

> <CNN_VS>
2.6346383095

> <CNNaffinity_variance>
0.0640459433

$$$$
18:0


 35 38  0  0  0  0  0  0  0  0999 V2000
   59.5109   33.3580   46.8228 C   0  0  0  0  0  0  0  0  0  0  0  0
   60.4723   33.4803   47.8442 C   0  0  0  0  0  0  0  0  0  0  0  0
   60.5382   32.5522   48.8827 C   0  0  0  0  0  0  0  0  0  0  0  0
   59.6521   31.4692   48.9164 C   0  0  0  0  0  0  0  0  0  0  0  0
   58.6904   31.3337   47.9104 C   0  0  0  0  0  0  0  0  0  0  0  0
   58.5908   32.2778   46.8765 C   0  0  0  0  0  0  0  0  0  0  0  0
   59.7020   35.5942   45.9850 O   0  0  0  0  0  0  0  0  0  0  0  0
   59.4811   34.3777   45.7421 C   0  0  0  0  0  0  0  0  0  0  0  0
   59.1830   34.0022   44.4327 O   0  0  0  0  0  0  0  0  0  0  0  0
   59.7700   30.2498   50.1893 S   0  0  0  0  0  0  0  0  0  0  0  0
   60.9283   30.5871   51.0898 O   0  0  0  0  0  0  0  0  0  0  0  0
   60.0446   28.9103   49.5615 O   0  0  0  0  0  0  0  0  0  0  0  0
   58.3132   30.1639   51.1508 N   0  0  0  0  0  0  0  0  0  0  0  0
   58.5835   29.5132   52.4380 C   0  0  0  0  0  0  0  0  0  0  0  0
   57.2468   29.1352   53.0707 C   0  0  0  0  0  0  0  0  0  0  0  0
   56.2529   30.2095   52.8988 N   0  0  0  0  0  0  0  0  0  0  0  0
   56.6761   31.5545   52.4698 C   0  0  0  0  0  0  0  0  0  0  0  0
   57.7435   31.5115   51.3514 C   0  0  0  0  0  0  0  0  0  0  0  0
   54.9155   30.0172   53.4075 C   0  0  0  0  0  0  0  0  0  0  0  0
   54.6974   29.7417   54.7704 C   0  0  0  0  0  0  0  0  0  0  0  0
   53.3991   29.5655   55.2604 C   0  0  0  0  0  0  0  0  0  0  0  0
   52.3045   29.6575   54.3955 C   0  0  0  0  0  0  0  0  0  0  0  0
   52.5066   29.9339   53.0384 C   0  0  0  0  0  0  0  0  0  0  0  0
   51.4203   30.0339   52.1774 O   0  0  0  0  0  0  0  0  0  0  0  0
   53.8055   30.1087   52.5444 C   0  0  0  0  0  0  0  0  0  0  0  0
   57.5709   32.1328   45.8781 N   0  0  0  0  0  0  0  0  0  0  0  0
   57.4793   30.7745   44.8025 S   0  0  0  0  0  0  0  0  0  0  0  0
   56.0327   30.3693   44.6597 O   0  0  0  0  0  0  0  0  0  0  0  0
   57.9976   31.1834   43.4493 O   0  0  0  0  0  0  0  0  0  0  0  0
   58.4379   29.4190   45.4016 C   0  0  0  0  0  0  0  0  0  0  0  0
   59.8197   29.3537   45.1523 C   0  0  0  0  0  0  0  0  0  0  0  0
   60.5594   28.2413   45.5723 C   0  0  0  0  0  0  0  0  0  0  0  0
   59.9246   27.1926   46.2494 C   0  0  0  0  0  0  0  0  0  0  0  0
   58.5520   27.2621   46.5245 C   0  0  0  0  0  0  0  0  0  0  0  0
   57.8091   28.3727   46.0996 C   0  0  0  0  0  0  0  0  0  0  0  0
  7  8  2  0
  8  9  1  0
  8  1  1  0
  1  2  2  0
  2  3  1  0
  3  4  2  0
  4 10  1  0
 10 11  2  0
 10 12  2  0
 10 13  1  0
 13 14  1  0
 14 15  1  0
 15 16  1  0
 16 19  1  0
 19 20  2  0
 20 21  1  0
 21 22  2  0
 22 23  1  0
 23 24  1  0
 23 25  2  0
 16 17  1  0
 17 18  1  0
  4  5  1  0
  5  6  2  0
  6 26  1  0
 26 27  1  0
 27 28  2  0
 27 29  2  0
 27 30  1  0
 30 31  2  0
 31 32  1  0
 32 33  2  0
 33 34  1  0
 34 35  2  0
  6  1  1  0
 35 30  1  0
 18 13  1  0
 25 19  1  0
M  CHG 1   9  -1
M  CHG 1  24  -1
M  CHG 1  26  -1
M  END
> <UniqueID>
18

> <SMILES>
O=C([O-])c1ccc(S(=O)(=O)N2CCN(c3cccc([O-])c3)CC2)cc1[N-]S(=O)(=O)c1ccccc1

> <Energy>
74.12148681982885

> <Genealogy>
O=C([O-])c1ccc(S(=O)(=O)N2CCN(c3cccc([O-])c3)CC2)cc1[N-]S(=O)(=O)c1ccccc1 (protonated)
O=C([O-])c1ccc(S(=O)(=O)N2CCN(c3cccc([O-])c3)CC2)cc1[N-]S(=O)(=O)c1ccccc1 (3D coordinates assigned)
O=C([O-])c1ccc(S(=O)(=O)N2CCN(c3cccc([O-])c3)CC2)cc1[N-]S(=O)(=O)c1ccccc1 (nonaromatic ring conformer: 74.12148681982885 kcal/mol)

> <smiles>
O=C(O)c1ccc(S(=O)(=O)N2CCN(c3cccc(O)c3)CC2)cc1NS(=O)(=O)c1ccccc1

> <score_type>
oracle

> <origin>
adg

> <m_score__min__energy>
-15.84

> <m_primary>
energy

> <minimizedAffinity>
-8.20137

> <minimizedRMSD>
1.16978

> <CNNscore>
0.2719331682

> <CNNaffinity>
6.4210371971

> <CNN_VS>
1.7460930347

> <CNNaffinity_variance>
0.1112478450

$$$$
24:0


 34 37  0  0  0  0  0  0  0  0999 V2000
   59.6892   30.0525   47.3904 C   0  0  0  0  0  0  0  0  0  0  0  0
   59.1211   30.3058   48.6464 C   0  0  0  0  0  0  0  0  0  0  0  0
   59.7633   31.1525   49.5533 C   0  0  0  0  0  0  0  0  0  0  0  0
   60.9916   31.7487   49.2232 C   0  0  0  0  0  0  0  0  0  0  0  0
   61.5468   31.5119   47.9529 C   0  0  0  0  0  0  0  0  0  0  0  0
   60.9022   30.6666   47.0473 C   0  0  0  0  0  0  0  0  0  0  0  0
   61.6638   32.6475   50.1902 C   0  0  0  0  0  0  0  0  0  0  0  0
   61.0038   33.5909   50.7035 O   0  0  0  0  0  0  0  0  0  0  0  0
   63.0472   32.4742   50.5568 N   0  0  0  0  0  0  0  0  0  0  0  0
   63.8411   33.6600   50.9040 C   0  0  0  0  0  0  0  0  0  0  0  0
   65.3051   33.3042   51.1891 C   0  0  0  0  0  0  0  0  0  0  0  0
   65.3890   32.1555   52.1047 N   0  0  0  0  0  0  0  0  0  0  0  0
   66.4195   32.0631   53.1142 C   0  0  0  0  0  0  0  0  0  0  0  0
   66.3489   31.1557   53.9890 O   0  0  0  0  0  0  0  0  0  0  0  0
   64.4737   31.0143   51.9310 C   0  0  0  0  0  0  0  0  0  0  0  0
   63.6455   31.1364   50.6483 C   0  0  0  0  0  0  0  0  0  0  0  0
   67.5718   33.0353   53.1627 C   0  0  0  0  0  0  0  0  0  0  0  0
   68.6243   32.6137   52.3132 O   0  0  0  0  0  0  0  0  0  0  0  0
   68.9985   33.6575   51.4399 C   0  0  0  0  0  0  0  0  0  0  0  0
   59.5293   27.0951   47.4993 C   0  0  0  0  0  0  0  0  0  0  0  0
   59.0187   27.8147   46.4861 C   0  0  0  0  0  0  0  0  0  0  0  0
   58.2498   27.3365   45.4126 C   0  0  0  0  0  0  0  0  0  0  0  0
   57.9979   26.0814   44.9953 C   0  0  0  0  0  0  0  0  0  0  0  0
   57.7379   28.4557   44.7764 C   0  0  0  0  0  0  0  0  0  0  0  0
   58.2563   29.5581   45.4218 C   0  0  0  0  0  0  0  0  0  0  0  0
   57.9677   30.9789   45.0400 C   0  0  0  0  0  0  0  0  0  0  0  0
   59.0327   29.1734   46.4587 N   0  0  0  0  0  0  0  0  0  0  0  0
   57.3880   25.0179   45.8063 C   0  0  0  0  0  0  0  0  0  0  0  0
   57.9727   23.8372   46.0856 N   0  0  0  0  0  0  0  0  0  0  0  0
   57.0012   23.1528   46.7251 C   0  0  0  0  0  0  0  0  0  0  0  0
   57.1703   21.9858   47.1638 O   0  0  0  0  0  0  0  0  0  0  0  0
   55.8286   23.8137   46.8489 N   0  0  0  0  0  0  0  0  0  0  0  0
   56.0887   24.9858   46.2492 C   0  0  0  0  0  0  0  0  0  0  0  0
   55.1570   26.0084   46.1112 O   0  0  0  0  0  0  0  0  0  0  0  0
 20 21  2  0
 21 22  1  0
 22 23  2  0
 23 28  1  0
 28 29  1  0
 29 30  1  0
 30 31  2  0
 30 32  1  0
 32 33  1  0
 33 34  1  0
 22 24  1  0
 24 25  2  0
 25 26  1  0
 25 27  1  0
 27  1  1  0
  1  2  2  0
  2  3  1  0
  3  4  2  0
  4  7  1  0
  7  8  2  0
  7  9  1  0
  9 10  1  0
 10 11  1  0
 11 12  1  0
 12 13  1  0
 13 14  2  0
 13 17  1  0
 17 18  1  0
 18 19  1  0
 12 15  1  0
 15 16  1  0
  4  5  1  0
  5  6  2  0
 27 21  1  0
  6  1  1  0
 33 28  2  0
 16  9  1  0
M  CHG 1  29  -1
M  CHG 1  32  -1
M  CHG 1  34  -1
M  END
> <UniqueID>
24

> <SMILES>
C=c1/c(=C\c2[n-]c(=O)[n-]c2[O-])cc(C)n1-c1ccc(C(=O)N2CCN(C(=O)COC)CC2)cc1

> <Energy>
142.93535730684195

> <Genealogy>
C=c1c(=Cc2[n-]c(=O)[n-]c2[O-])cc(C)n1-c1ccc(C(=O)N2CCN(C(=O)COC)CC2)cc1 (protonated)
C=c1/c(=C\c2[n-]c(=O)[n-]c2[O-])cc(C)n1-c1ccc(C(=O)N2CCN(C(=O)COC)CC2)cc1 (cis-trans isomerization)
C=c1/c(=C\c2[n-]c(=O)[n-]c2[O-])cc(C)n1-c1ccc(C(=O)N2CCN(C(=O)COC)CC2)cc1 (3D coordinates assigned)
C=c1/c(=C\c2[n-]c(=O)[n-]c2[O-])cc(C)n1-c1ccc(C(=O)N2CCN(C(=O)COC)CC2)cc1 (nonaromatic ring conformer: 142.93535730684195 kcal/mol)

> <smiles>
C=c1c(=Cc2[nH]c(=O)[nH]c2O)cc(C)n1-c1ccc(C(=O)N2CCN(C(=O)COC)CC2)cc1

> <score_type>
oracle

> <origin>
adg

> <m_score__min__energy>
-15.9

> <m_primary>
energy

> <minimizedAffinity>
-8.36590

> <minimizedRMSD>
1.06742

> <CNNscore>
0.2076833844

> <CNNaffinity>
6.4329552650

> <CNN_VS>
1.3360179663

> <CNNaffinity_variance>
0.1048012078

$$$$
27:0


 33 36  0  0  0  0  0  0  0  0999 V2000
   58.6245   31.2035   45.6803 C   0  0  0  0  0  0  0  0  0  0  0  0
   58.2128   31.9262   44.5525 C   0  0  0  0  0  0  0  0  0  0  0  0
   57.9852   33.3000   44.6381 C   0  0  0  0  0  0  0  0  0  0  0  0
   58.1603   33.9622   45.8525 C   0  0  0  0  0  0  0  0  0  0  0  0
   58.5668   33.2532   46.9834 C   0  0  0  0  0  0  0  0  0  0  0  0
   58.8136   31.8723   46.9110 C   0  0  0  0  0  0  0  0  0  0  0  0
   59.2175   31.1390   48.1321 C   0  0  0  0  0  0  0  0  0  0  0  0
   58.5542   30.1231   48.4818 O   0  0  0  0  0  0  0  0  0  0  0  0
   60.3241   31.5742   48.9473 N   0  0  0  0  0  0  0  0  0  0  0  0
   61.4385   32.3350   48.3676 C   0  0  0  0  0  0  0  0  0  0  0  0
   62.7671   31.9122   49.0002 C   0  0  0  0  0  0  0  0  0  0  0  0
   62.6998   31.9447   50.4683 N   0  0  0  0  0  0  0  0  0  0  0  0
   63.9309   32.0149   51.2208 C   0  0  0  0  0  0  0  0  0  0  0  0
   65.0191   31.7042   50.6684 O   0  0  0  0  0  0  0  0  0  0  0  0
   63.9495   32.4295   52.6607 C   0  0  0  0  0  0  0  0  0  0  0  0
   61.3979   32.0089   51.1467 C   0  0  0  0  0  0  0  0  0  0  0  0
   60.3370   31.2170   50.3726 C   0  0  0  0  0  0  0  0  0  0  0  0
   58.0968   26.3993   44.7179 C   0  0  0  0  0  0  0  0  0  0  0  0
   58.5702   27.5990   45.1090 C   0  0  0  0  0  0  0  0  0  0  0  0
   59.8920   27.8043   45.4751 C   0  0  0  0  0  0  0  0  0  0  0  0
   60.0400   29.1546   45.7121 C   0  0  0  0  0  0  0  0  0  0  0  0
   61.3399   29.8120   46.0583 C   0  0  0  0  0  0  0  0  0  0  0  0
   58.8561   29.7891   45.5511 N   0  0  0  0  0  0  0  0  0  0  0  0
   57.9385   28.8489   45.2121 C   0  0  0  0  0  0  0  0  0  0  0  0
   56.6211   29.1015   45.1451 C   0  0  0  0  0  0  0  0  0  0  0  0
   55.3118   26.4638   46.0320 O   0  0  0  0  0  0  0  0  0  0  0  0
   56.2213   25.4202   46.1408 C   0  0  0  0  0  0  0  0  0  0  0  0
   55.9709   24.2734   46.7907 N   0  0  0  0  0  0  0  0  0  0  0  0
   57.1015   23.5634   46.5886 C   0  0  0  0  0  0  0  0  0  0  0  0
   57.2640   22.3988   47.0442 O   0  0  0  0  0  0  0  0  0  0  0  0
   58.0431   24.1932   45.8536 N   0  0  0  0  0  0  0  0  0  0  0  0
   57.4859   25.3912   45.5973 C   0  0  0  0  0  0  0  0  0  0  0  0
   54.4696   26.3955   46.4369 H   0  0  0  0  0  0  0  0  0  0  0  0
 26 27  1  0
 27 28  1  0
 28 29  1  0
 29 30  2  0
 29 31  1  0
 31 32  1  0
 32 18  1  0
 18 19  2  0
 19 20  1  0
 20 21  2  0
 21 22  1  0
 21 23  1  0
 23  1  1  0
  1  2  2  0
  2  3  1  0
  3  4  2  0
  4  5  1  0
  5  6  2  0
  6  7  1  0
  7  8  2  0
  7  9  1  0
  9 10  1  0
 10 11  1  0
 11 12  1  0
 12 13  1  0
 13 14  2  0
 13 15  1  0
 12 16  1  0
 16 17  1  0
 23 24  1  0
 24 25  2  0
 32 27  2  0
 24 19  1  0
  6  1  1  0
 17  9  1  0
 26 33  1  0
M  CHG 1  28  -1
M  CHG 1  31  -1
M  END
> <UniqueID>
27

> <SMILES>
C=c1/c(=C\c2[n-]c(=O)[n-]c2O)cc(C)n1-c1ccccc1C(=O)N1CCN(C(C)=O)CC1

> <Energy>
137.20593912330236

> <Genealogy>
C=c1c(=Cc2[n-]c(=O)[n-]c2O)cc(C)n1-c1ccccc1C(=O)N1CCN(C(C)=O)CC1 (protonated)
C=c1/c(=C\c2[n-]c(=O)[n-]c2O)cc(C)n1-c1ccccc1C(=O)N1CCN(C(C)=O)CC1 (cis-trans isomerization)
C=c1/c(=C\c2[n-]c(=O)[n-]c2O)cc(C)n1-c1ccccc1C(=O)N1CCN(C(C)=O)CC1 (3D coordinates assigned)
C=c1/c(=C\c2[n-]c(=O)[n-]c2O)cc(C)n1-c1ccccc1C(=O)N1CCN(C(C)=O)CC1 (nonaromatic ring conformer: 137.20593912330236 kcal/mol)

> <smiles>
C=c1c(=Cc2[nH]c(=O)[nH]c2O)cc(C)n1-c1ccccc1C(=O)N1CCN(C(C)=O)CC1

> <score_type>
oracle

> <origin>
adg

> <m_score__min__energy>
-14.300000000000001

> <m_primary>
energy

> <minimizedAffinity>
-9.00807

> <minimizedRMSD>
0.81532

> <CNNscore>
0.6607632637

> <CNNaffinity>
7.1905899048

> <CNN_VS>
4.7512774467

> <CNNaffinity_variance>
0.0432783179

$$$$
29:0


 28 30  0  0  0  0  0  0  0  0999 V2000
   58.7552   28.1517   47.2093 C   0  0  0  0  0  0  0  0  0  0  0  0
   59.0816   29.2372   48.0394 C   0  0  0  0  0  0  0  0  0  0  0  0
   60.0206   29.0907   49.0663 C   0  0  0  0  0  0  0  0  0  0  0  0
   60.6983   27.8736   49.2146 C   0  0  0  0  0  0  0  0  0  0  0  0
   60.4217   26.8070   48.3549 C   0  0  0  0  0  0  0  0  0  0  0  0
   59.4497   26.9408   47.3572 C   0  0  0  0  0  0  0  0  0  0  0  0
   59.1702   25.8653   46.5214 O   0  0  0  0  0  0  0  0  0  0  0  0
   60.3147   30.4206   50.1828 S   0  0  0  0  0  0  0  0  0  0  0  0
   60.1746   29.9092   51.5905 O   0  0  0  0  0  0  0  0  0  0  0  0
   61.7181   30.9265   49.9878 O   0  0  0  0  0  0  0  0  0  0  0  0
   59.1339   31.6853   49.8720 N   0  0  0  0  0  0  0  0  0  0  0  0
   58.6429   32.3093   51.1125 C   0  0  0  0  0  0  0  0  0  0  0  0
   59.7145   33.2103   51.7675 C   0  0  0  0  0  0  0  0  0  0  0  0
   60.8118   33.4766   50.9122 O   0  0  0  0  0  0  0  0  0  0  0  0
   60.3456   33.8737   49.6400 C   0  0  0  0  0  0  0  0  0  0  0  0
   59.6403   32.7015   48.9253 C   0  0  0  0  0  0  0  0  0  0  0  0
   57.7423   28.2612   46.1946 N   0  0  0  0  0  0  0  0  0  0  0  0
   58.1073   27.9624   43.9236 O   0  0  0  0  0  0  0  0  0  0  0  0
   57.9220   28.7774   44.8665 C   0  0  0  0  0  0  0  0  0  0  0  0
   57.8611   30.2272   44.5662 C   0  0  0  0  0  0  0  0  0  0  0  0
   57.6992   31.1552   45.6066 C   0  0  0  0  0  0  0  0  0  0  0  0
   57.5936   32.5195   45.3080 C   0  0  0  0  0  0  0  0  0  0  0  0
   57.4123   33.4566   46.3214 O   0  0  0  0  0  0  0  0  0  0  0  0
   57.6618   32.9383   44.0160 N   0  0  0  0  0  0  0  0  0  0  0  0
   57.8356   32.0652   42.9896 C   0  0  0  0  0  0  0  0  0  0  0  0
   57.8956   32.4938   41.8073 O   0  0  0  0  0  0  0  0  0  0  0  0
   57.9472   30.6956   43.2455 C   0  0  0  0  0  0  0  0  0  0  0  0
   57.3641   33.1773   47.2146 H   0  0  0  0  0  0  0  0  0  0  0  0
 18 19  2  0
 19 17  1  0
 17  1  1  0
  1  2  2  0
  2  3  1  0
  3  8  1  0
  8  9  2  0
  8 10  2  0
  8 11  1  0
 11 12  1  0
 12 13  1  0
 13 14  1  0
 14 15  1  0
 15 16  1  0
  3  4  2  0
  4  5  1  0
  5  6  2  0
  6  7  1  0
 19 20  1  0
 20 21  1  0
 21 22  2  0
 22 23  1  0
 22 24  1  0
 24 25  1  0
 25 26  2  0
 25 27  1  0
  6  1  1  0
 27 20  2  0
 16 11  1  0
 23 28  1  0
M  CHG 1   7  -1
M  CHG 1  17  -1
M  CHG 1  24  -1
M  END
> <UniqueID>
29

> <SMILES>
O=C([N-]c1cc(S(=O)(=O)N2CCOCC2)ccc1[O-])c1cc(O)[n-]c(=O)c1

> <Energy>
60.422667088147435

> <Genealogy>
O=C([N-]c1cc(S(=O)(=O)N2CCOCC2)ccc1[O-])c1cc(O)[n-]c(=O)c1 (protonated)
O=C([N-]c1cc(S(=O)(=O)N2CCOCC2)ccc1[O-])c1cc(O)[n-]c(=O)c1 (3D coordinates assigned)
O=C([N-]c1cc(S(=O)(=O)N2CCOCC2)ccc1[O-])c1cc(O)[n-]c(=O)c1 (nonaromatic ring conformer: 60.422667088147435 kcal/mol)

> <smiles>
O=C(Nc1cc(S(=O)(=O)N2CCOCC2)ccc1O)c1cc(O)[nH]c(=O)c1

> <score_type>
oracle

> <origin>
adg

> <m_score__min__energy>
-14.27

> <m_primary>
energy

> <minimizedAffinity>
-6.28478

> <minimizedRMSD>
3.63365

> <CNNscore>
0.1809813976

> <CNNaffinity>
5.6456093788

> <CNN_VS>
1.0217503309

> <CNNaffinity_variance>
0.1581099480

$$$$
32:0


 31 34  0  0  0  0  0  0  0  0999 V2000
   58.0079   29.4573   53.6146 C   0  0  0  0  0  0  0  0  0  0  0  0
   55.3995   27.9566   53.4332 C   0  0  0  0  0  0  0  0  0  0  0  0
   55.5230   29.2555   53.1119 C   0  0  0  0  0  0  0  0  0  0  0  0
   54.5046   30.0903   52.6333 C   0  0  0  0  0  0  0  0  0  0  0  0
   53.1993   29.7831   52.4838 C   0  0  0  0  0  0  0  0  0  0  0  0
   55.0915   31.3265   52.3947 C   0  0  0  0  0  0  0  0  0  0  0  0
   56.4269   31.2003   52.7234 C   0  0  0  0  0  0  0  0  0  0  0  0
   57.4396   32.3021   52.6067 C   0  0  0  0  0  0  0  0  0  0  0  0
   56.6912   29.9514   53.1775 N   0  0  0  0  0  0  0  0  0  0  0  0
   52.3744   30.2237   51.3436 C   0  0  0  0  0  0  0  0  0  0  0  0
   52.2906   29.5399   50.1884 N   0  0  0  0  0  0  0  0  0  0  0  0
   51.5017   30.3224   49.4190 C   0  0  0  0  0  0  0  0  0  0  0  0
   51.1736   30.0078   48.2456 O   0  0  0  0  0  0  0  0  0  0  0  0
   51.0974   31.4715   50.0028 N   0  0  0  0  0  0  0  0  0  0  0  0
   51.6674   31.4006   51.2166 C   0  0  0  0  0  0  0  0  0  0  0  0
   51.5787   32.4108   52.1654 O   0  0  0  0  0  0  0  0  0  0  0  0
   59.1274   30.3143   53.0779 C   0  0  0  0  0  0  0  0  0  0  0  0
   59.8681   30.9404   53.8835 O   0  0  0  0  0  0  0  0  0  0  0  0
   59.3659   30.4137   51.6555 N   0  0  0  0  0  0  0  0  0  0  0  0
   60.2070   31.4934   51.1173 C   0  0  0  0  0  0  0  0  0  0  0  0
   59.5776   32.0505   49.8376 C   0  0  0  0  0  0  0  0  0  0  0  0
   59.2759   30.9537   48.7729 C   0  0  0  0  0  0  0  0  0  0  0  0
   59.4252   29.5189   49.3346 C   0  0  0  0  0  0  0  0  0  0  0  0
   58.8303   29.3904   50.7420 C   0  0  0  0  0  0  0  0  0  0  0  0
   60.1556   31.1527   47.5176 C   0  0  0  0  0  0  0  0  0  0  0  0
   59.5533   32.1411   46.5508 C   0  0  0  0  0  0  0  0  0  0  0  0
   58.5198   31.7408   45.6860 C   0  0  0  0  0  0  0  0  0  0  0  0
   57.9881   32.6429   44.7612 C   0  0  0  0  0  0  0  0  0  0  0  0
   58.4847   33.9472   44.6912 C   0  0  0  0  0  0  0  0  0  0  0  0
   59.5138   34.3534   45.5450 C   0  0  0  0  0  0  0  0  0  0  0  0
   60.0474   33.4543   46.4739 C   0  0  0  0  0  0  0  0  0  0  0  0
  2  3  2  0
  3  4  1  0
  4  5  2  0
  5 10  1  0
 10 11  1  0
 11 12  1  0
 12 13  2  0
 12 14  1  0
 14 15  1  0
 15 16  1  0
  4  6  1  0
  6  7  2  0
  7  8  1  0
  7  9  1  0
  9  1  1  0
  1 17  1  0
 17 18  2  0
 17 19  1  0
 19 20  1  0
 20 21  1  0
 21 22  1  0
 22 25  1  0
 25 26  1  0
 26 27  2  0
 27 28  1  0
 28 29  2  0
 29 30  1  0
 30 31  2  0
 22 23  1  0
 23 24  1  0
  9  3  1  0
 24 19  1  0
 15 10  2  0
 31 26  1  0
M  CHG 1  11  -1
M  CHG 1  14  -1
M  CHG 1  16  -1
M  END
> <UniqueID>
32

> <SMILES>
C=c1c(=Cc2[n-]c(=O)[n-]c2[O-])cc(C)n1CC(=O)N1CCC(Cc2ccccc2)CC1

> <Energy>
124.41459669026382

> <Genealogy>
C=c1c(=Cc2[n-]c(=O)[n-]c2[O-])cc(C)n1CC(=O)N1CCC(Cc2ccccc2)CC1 (protonated)
C=c1c(=Cc2[n-]c(=O)[n-]c2[O-])cc(C)n1CC(=O)N1CCC(Cc2ccccc2)CC1 (3D coordinates assigned)
C=c1c(=Cc2[n-]c(=O)[n-]c2[O-])cc(C)n1CC(=O)N1CCC(Cc2ccccc2)CC1 (nonaromatic ring conformer: 124.41459669026382 kcal/mol)

> <smiles>
C=c1c(=Cc2[nH]c(=O)[nH]c2O)cc(C)n1CC(=O)N1CCC(Cc2ccccc2)CC1

> <score_type>
oracle

> <origin>
adg

> <m_score__min__energy>
-18.48

> <m_primary>
energy

> <minimizedAffinity>
-6.28635

> <minimizedRMSD>
0.89455

> <CNNscore>
0.0767196789

> <CNNaffinity>
5.5318913460

> <CNN_VS>
0.4244049191

> <CNNaffinity_variance>
0.6426956654

$$$$
34:0


 25 28  0  0  0  0  0  0  0  0999 V2000
   59.8403   26.7873   46.6693 C   0  0  0  0  0  0  0  0  0  0  0  0
   59.0116   27.6309   46.0332 C   0  0  0  0  0  0  0  0  0  0  0  0
   58.1719   27.3301   44.9476 C   0  0  0  0  0  0  0  0  0  0  0  0
   57.7970   26.1497   44.4201 C   0  0  0  0  0  0  0  0  0  0  0  0
   57.7243   28.5469   44.4573 C   0  0  0  0  0  0  0  0  0  0  0  0
   58.2295   29.5236   45.2883 C   0  0  0  0  0  0  0  0  0  0  0  0
   57.9684   30.9921   45.1303 C   0  0  0  0  0  0  0  0  0  0  0  0
   59.0101   28.9708   46.2446 N   0  0  0  0  0  0  0  0  0  0  0  0
   59.7287   29.6916   47.2627 C   0  0  0  0  0  0  0  0  0  0  0  0
   59.2563   29.7031   48.5998 C   0  0  0  0  0  0  0  0  0  0  0  0
   59.9575   30.3994   49.6012 C   0  0  0  0  0  0  0  0  0  0  0  0
   61.1189   31.0707   49.2293 C   0  0  0  0  0  0  0  0  0  0  0  0
   61.9384   31.7862   50.0117 N   0  0  0  0  0  0  0  0  0  0  0  0
   62.8877   32.2061   49.1346 C   0  0  0  0  0  0  0  0  0  0  0  0
   64.0711   33.0125   49.5533 C   0  0  0  0  0  0  0  0  0  0  0  0
   62.7098   31.7754   47.8569 N   0  0  0  0  0  0  0  0  0  0  0  0
   61.5763   31.0650   47.9487 C   0  0  0  0  0  0  0  0  0  0  0  0
   60.9128   30.3856   46.9302 C   0  0  0  0  0  0  0  0  0  0  0  0
   57.3452   24.9751   45.1838 C   0  0  0  0  0  0  0  0  0  0  0  0
   58.0488   23.8371   45.3319 N   0  0  0  0  0  0  0  0  0  0  0  0
   57.3107   23.1239   46.2081 C   0  0  0  0  0  0  0  0  0  0  0  0
   57.6388   21.9721   46.5929 O   0  0  0  0  0  0  0  0  0  0  0  0
   56.1954   23.7473   46.6489 N   0  0  0  0  0  0  0  0  0  0  0  0
   56.2416   24.9217   46.0007 C   0  0  0  0  0  0  0  0  0  0  0  0
   55.2986   25.9289   46.1581 O   0  0  0  0  0  0  0  0  0  0  0  0
  1  2  2  0
  2  3  1  0
  3  4  2  0
  4 19  1  0
 19 20  1  0
 20 21  1  0
 21 22  2  0
 21 23  1  0
 23 24  1  0
 24 25  1  0
  3  5  1  0
  5  6  2  0
  6  7  1  0
  6  8  1  0
  8  9  1  0
  9 10  2  0
 10 11  1  0
 11 12  2  0
 12 13  1  0
 13 14  1  0
 14 15  1  0
 14 16  2  0
 16 17  1  0
 17 18  2  0
  8  2  1  0
 18  9  1  0
 24 19  2  0
 17 12  1  0
M  CHG 1  13  -1
M  CHG 1  20  -1
M  CHG 1  23  -1
M  CHG 1  25  -1
M  END
> <UniqueID>
33

> <SMILES>
C=c1/c(=C\c2[n-]c(=O)[n-]c2[O-])cc(C)n1-c1ccc2[n-]c(C)nc2c1

> <Energy>
149.86511694743297

> <Genealogy>
C=c1c(=Cc2[n-]c(=O)[n-]c2[O-])cc(C)n1-c1ccc2[n-]c(C)nc2c1 (protonated)
C=c1/c(=C\c2[n-]c(=O)[n-]c2[O-])cc(C)n1-c1ccc2[n-]c(C)nc2c1 (cis-trans isomerization)
C=c1/c(=C\c2[n-]c(=O)[n-]c2[O-])cc(C)n1-c1ccc2[n-]c(C)nc2c1 (3D coordinates assigned)
C=c1/c(=C\c2[n-]c(=O)[n-]c2[O-])cc(C)n1-c1ccc2[n-]c(C)nc2c1 (optimized conformer: 149.86511694743297 kcal/mol)

> <smiles>
C=c1c(=Cc2[nH]c(=O)[nH]c2O)cc(C)n1-c1ccc2[nH]c(C)nc2c1

> <score_type>
oracle

> <origin>
adg

> <m_score__min__energy>
-16.239999999999998

> <m_primary>
energy

> <minimizedAffinity>
-8.54403

> <minimizedRMSD>
1.94296

> <CNNscore>
0.1535996795

> <CNNaffinity>
6.3181400299

> <CNN_VS>
0.9704642892

> <CNNaffinity_variance>
0.0356056057

$$$$
36:0


 28 30  0  0  0  0  0  0  0  0999 V2000
   58.0248   31.9460   45.2761 N   0  0  0  0  0  0  0  0  0  0  0  0
   58.5006   33.2897   45.4310 C   0  0  0  0  0  0  0  0  0  0  0  0
   58.9945   33.9078   44.4492 O   0  0  0  0  0  0  0  0  0  0  0  0
   57.7415   31.4501   46.0780 H   0  0  0  0  0  0  0  0  0  0  0  0
   57.9432   31.2828   43.9771 C   0  0  0  0  0  0  0  0  0  0  0  0
   57.0410   30.0758   44.0544 C   0  0  0  0  0  0  0  0  0  0  0  0
   56.1926   29.8954   43.1404 O   0  0  0  0  0  0  0  0  0  0  0  0
   60.2154   27.9865   46.0887 C   0  0  0  0  0  0  0  0  0  0  0  0
   59.2260   28.8160   45.6635 N   0  0  0  0  0  0  0  0  0  0  0  0
   57.9164   28.4362   45.6532 C   0  0  0  0  0  0  0  0  0  0  0  0
   56.9862   29.2355   45.2161 N   0  0  0  0  0  0  0  0  0  0  0  0
   57.5731   27.1432   46.0751 C   0  0  0  0  0  0  0  0  0  0  0  0
   56.2487   26.7165   46.0602 O   0  0  0  0  0  0  0  0  0  0  0  0
   58.5774   26.2753   46.5158 C   0  0  0  0  0  0  0  0  0  0  0  0
   59.9063   26.6977   46.5261 C   0  0  0  0  0  0  0  0  0  0  0  0
   58.3565   33.9892   46.7468 C   0  0  0  0  0  0  0  0  0  0  0  0
   59.6271   33.8482   47.5384 C   0  0  0  0  0  0  0  0  0  0  0  0
   59.6063   33.9783   48.9363 C   0  0  0  0  0  0  0  0  0  0  0  0
   60.7766   33.7976   49.6790 C   0  0  0  0  0  0  0  0  0  0  0  0
   61.9850   33.4784   49.0380 C   0  0  0  0  0  0  0  0  0  0  0  0
   61.9978   33.3312   47.6406 C   0  0  0  0  0  0  0  0  0  0  0  0
   60.8284   33.5114   46.8981 C   0  0  0  0  0  0  0  0  0  0  0  0
   63.1874   33.2715   49.8052 N   0  0  0  0  0  0  0  0  0  0  0  0
   64.0117   32.0720   49.6068 C   0  0  0  0  0  0  0  0  0  0  0  0
   64.1730   31.3052   50.9273 C   0  0  0  0  0  0  0  0  0  0  0  0
   64.2920   32.2278   52.1618 C   0  0  0  0  0  0  0  0  0  0  0  0
   64.6354   33.6754   51.7869 C   0  0  0  0  0  0  0  0  0  0  0  0
   63.5729   34.2474   50.8378 C   0  0  0  0  0  0  0  0  0  0  0  0
  8  9  1  0
  9 10  1  0
 10 11  2  0
 11  6  1  0
  6  7  2  0
  6  5  1  0
  5  1  1  0
  1  2  1  0
  2  3  2  0
  2 16  1  0
 16 17  1  0
 17 18  2  0
 18 19  1  0
 19 20  2  0
 20 23  1  0
 23 24  1  0
 24 25  1  0
 25 26  1  0
 26 27  1  0
 27 28  1  0
 20 21  1  0
 21 22  2  0
 10 12  1  0
 12 13  1  0
 12 14  2  0
 14 15  1  0
 15  8  2  0
 22 17  1  0
 28 23  1  0
  1  4  1  0
M  CHG 1   9  -1
M  CHG 1  13  -1
M  END
> <UniqueID>
35

> <SMILES>
O=C(CNC(=O)Cc1ccc(N2CCCCC2)cc1)/N=c1\[n-]cccc1[O-]

> <Energy>
57.879154869051334

> <Genealogy>
O=C(CNC(=O)Cc1ccc(N2CCCCC2)cc1)N=c1[n-]cccc1[O-] (protonated)
O=C(CNC(=O)Cc1ccc(N2CCCCC2)cc1)/N=c1\[n-]cccc1[O-] (cis-trans isomerization)
O=C(CNC(=O)Cc1ccc(N2CCCCC2)cc1)/N=c1\[n-]cccc1[O-] (3D coordinates assigned)
O=C(CNC(=O)Cc1ccc(N2CCCCC2)cc1)/N=c1\[n-]cccc1[O-] (nonaromatic ring conformer: 57.879154869051334 kcal/mol)

> <smiles>
O=C(CNC(=O)Cc1ccc(N2CCCCC2)cc1)N=c1[nH]cccc1O

> <score_type>
oracle

> <origin>
adg

> <m_score__min__energy>
-14.550000000000001

> <m_primary>
energy

> <minimizedAffinity>
-7.63642

> <minimizedRMSD>
1.99650

> <CNNscore>
0.4689470828

> <CNNaffinity>
6.3906073570

> <CNN_VS>
2.9968566895

> <CNNaffinity_variance>
0.0016809814

$$$$
39:0


 28 30  0  0  0  0  0  0  0  0999 V2000
   59.9629   28.1865   45.9679 C   0  0  0  0  0  0  0  0  0  0  0  0
   59.8727   29.2826   46.7466 C   0  0  0  0  0  0  0  0  0  0  0  0
   60.3920   29.4245   48.0231 C   0  0  0  0  0  0  0  0  0  0  0  0
   59.9664   30.6502   48.4930 C   0  0  0  0  0  0  0  0  0  0  0  0
   60.2096   31.1343   49.8917 C   0  0  0  0  0  0  0  0  0  0  0  0
   59.1884   31.2719   47.5738 N   0  0  0  0  0  0  0  0  0  0  0  0
   59.1390   30.4464   46.4897 C   0  0  0  0  0  0  0  0  0  0  0  0
   58.4588   30.7096   45.3600 C   0  0  0  0  0  0  0  0  0  0  0  0
   56.9475   28.3775   45.2780 O   0  0  0  0  0  0  0  0  0  0  0  0
   57.6175   27.2129   45.6427 C   0  0  0  0  0  0  0  0  0  0  0  0
   57.0153   26.0214   45.7929 N   0  0  0  0  0  0  0  0  0  0  0  0
   58.0261   25.2283   46.2055 C   0  0  0  0  0  0  0  0  0  0  0  0
   57.8690   24.0076   46.4663 O   0  0  0  0  0  0  0  0  0  0  0  0
   59.2208   25.8486   46.3239 N   0  0  0  0  0  0  0  0  0  0  0  0
   58.9574   27.1103   45.9418 C   0  0  0  0  0  0  0  0  0  0  0  0
   56.0295   28.3511   45.0917 H   0  0  0  0  0  0  0  0  0  0  0  0
   58.3958   32.4946   47.8083 C   0  0  0  0  0  0  0  0  0  0  0  0
   59.2764   33.7572   47.8071 C   0  0  0  0  0  0  0  0  0  0  0  0
   60.1422   33.8464   46.5860 C   0  0  0  0  0  0  0  0  0  0  0  0
   59.6250   34.0931   45.4636 O   0  0  0  0  0  0  0  0  0  0  0  0
   61.5574   33.6637   46.7274 N   0  0  0  0  0  0  0  0  0  0  0  0
   62.3062   33.4397   47.9328 C   0  0  0  0  0  0  0  0  0  0  0  0
   62.1411   34.2307   49.0863 C   0  0  0  0  0  0  0  0  0  0  0  0
   62.8188   33.9035   50.2658 C   0  0  0  0  0  0  0  0  0  0  0  0
   63.6591   32.7882   50.3074 C   0  0  0  0  0  0  0  0  0  0  0  0
   64.5600   32.3284   51.9277 Br  0  0  0  0  0  0  0  0  0  0  0  0
   63.8257   31.9984   49.1671 C   0  0  0  0  0  0  0  0  0  0  0  0
   63.1502   32.3228   47.9864 C   0  0  0  0  0  0  0  0  0  0  0  0
  9 10  1  0
 10 11  1  0
 11 12  1  0
 12 13  2  0
 12 14  1  0
 14 15  1  0
 15  1  1  0
  1  2  2  0
  2  3  1  0
  3  4  2  0
  4  5  1  0
  4  6  1  0
  6 17  1  0
 17 18  1  0
 18 19  1  0
 19 20  2  0
 19 21  1  0
 21 22  1  0
 22 23  2  0
 23 24  1  0
 24 25  2  0
 25 26  1  0
 25 27  1  0
 27 28  2  0
  6  7  1  0
  7  8  2  0
 15 10  2  0
  7  2  1  0
 28 22  1  0
  9 16  1  0
M  CHG 1  11  -1
M  CHG 1  14  -1
M  CHG 1  21  -1
M  END
> <UniqueID>
38

> <SMILES>
C=c1/c(=C/c2[n-]c(=O)[n-]c2O)cc(C)n1CCC(=O)[N-]c1ccc(Br)cc1

> <Energy>
106.26735872586522

> <Genealogy>
C=c1c(=Cc2[n-]c(=O)[n-]c2O)cc(C)n1CCC(=O)[N-]c1ccc(Br)cc1 (protonated)
C=c1/c(=C/c2[n-]c(=O)[n-]c2O)cc(C)n1CCC(=O)[N-]c1ccc(Br)cc1 (cis-trans isomerization)
C=c1/c(=C/c2[n-]c(=O)[n-]c2O)cc(C)n1CCC(=O)[N-]c1ccc(Br)cc1 (3D coordinates assigned)
C=c1/c(=C/c2[n-]c(=O)[n-]c2O)cc(C)n1CCC(=O)[N-]c1ccc(Br)cc1 (optimized conformer: 106.26735872586522 kcal/mol)

> <smiles>
C=c1c(=Cc2[nH]c(=O)[nH]c2O)cc(C)n1CCC(=O)Nc1ccc(Br)cc1

> <score_type>
oracle

> <origin>
adg

> <m_score__min__energy>
-15.19

> <m_primary>
energy

> <minimizedAffinity>
-7.77362

> <minimizedRMSD>
1.50453

> <CNNscore>
0.4012598991

> <CNNaffinity>
6.8392100334

> <CNN_VS>
2.7443008423

> <CNNaffinity_variance>
0.3324104548

$$$$
58:0


 31 33  0  0  0  0  0  0  0  0999 V2000
   57.4942   32.1981   45.3190 N   0  0  0  0  0  0  0  0  0  0  0  0
   58.7647   32.3907   45.9537 C   0  0  0  0  0  0  0  0  0  0  0  0
   59.3252   33.6723   45.9816 C   0  0  0  0  0  0  0  0  0  0  0  0
   60.5524   33.8932   46.6107 C   0  0  0  0  0  0  0  0  0  0  0  0
   61.2251   32.8351   47.2368 C   0  0  0  0  0  0  0  0  0  0  0  0
   60.6433   31.5594   47.2515 C   0  0  0  0  0  0  0  0  0  0  0  0
   59.4166   31.3385   46.6184 C   0  0  0  0  0  0  0  0  0  0  0  0
   62.7977   33.1035   47.9948 S   0  0  0  0  0  0  0  0  0  0  0  0
   63.4837   31.7809   48.2030 O   0  0  0  0  0  0  0  0  0  0  0  0
   63.6538   33.9335   47.0775 O   0  0  0  0  0  0  0  0  0  0  0  0
   62.6356   33.9222   49.5319 N   0  0  0  0  0  0  0  0  0  0  0  0
   63.7377   33.5409   50.4375 C   0  0  0  0  0  0  0  0  0  0  0  0
   63.3521   33.7997   51.9023 C   0  0  0  0  0  0  0  0  0  0  0  0
   62.2093   33.0714   52.3353 O   0  0  0  0  0  0  0  0  0  0  0  0
   61.3343   32.6939   51.2817 C   0  0  0  0  0  0  0  0  0  0  0  0
   61.2983   33.7094   50.1257 C   0  0  0  0  0  0  0  0  0  0  0  0
   57.2455   31.3791   44.1709 C   0  0  0  0  0  0  0  0  0  0  0  0
   57.7366   31.7208   43.0632 O   0  0  0  0  0  0  0  0  0  0  0  0
   56.5375   30.0600   44.2745 C   0  0  0  0  0  0  0  0  0  0  0  0
   57.5192   28.9869   44.1979 N   0  0  0  0  0  0  0  0  0  0  0  0
   57.8425   28.6793   46.4684 O   0  0  0  0  0  0  0  0  0  0  0  0
   57.9488   28.1941   45.3107 C   0  0  0  0  0  0  0  0  0  0  0  0
   58.6202   26.8542   45.1143 C   0  0  0  0  0  0  0  0  0  0  0  0
   58.3022   25.8406   46.2268 C   0  0  0  0  0  0  0  0  0  0  0  0
   57.5218   24.6567   45.7069 C   0  0  0  0  0  0  0  0  0  0  0  0
   58.2020   23.5089   45.2594 C   0  0  0  0  0  0  0  0  0  0  0  0
   57.4891   22.4066   44.7777 C   0  0  0  0  0  0  0  0  0  0  0  0
   56.0937   22.4414   44.7328 C   0  0  0  0  0  0  0  0  0  0  0  0
   55.4073   23.5757   45.1742 C   0  0  0  0  0  0  0  0  0  0  0  0
   56.1128   24.6761   45.6716 C   0  0  0  0  0  0  0  0  0  0  0  0
   55.4079   25.7864   46.1220 O   0  0  0  0  0  0  0  0  0  0  0  0
 21 22  2  0
 22 23  1  0
 23 24  1  0
 24 25  1  0
 25 26  2  0
 26 27  1  0
 27 28  2  0
 28 29  1  0
 29 30  2  0
 30 31  1  0
 22 20  1  0
 20 19  1  0
 19 17  1  0
 17 18  2  0
 17  1  1  0
  1  2  1  0
  2  3  2  0
  3  4  1  0
  4  5  2  0
  5  8  1  0
  8  9  2  0
  8 10  2  0
  8 11  1  0
 11 12  1  0
 12 13  1  0
 13 14  1  0
 14 15  1  0
 15 16  1  0
  5  6  1  0
  6  7  2  0
 30 25  1  0
  7  2  1  0
 16 11  1  0
M  CHG 1   1  -1
M  CHG 1  20  -1
M  CHG 1  31  -1
M  END
> <UniqueID>
54

> <SMILES>
O=C(CCc1ccccc1[O-])[N-]CC(=O)[N-]c1ccc(S(=O)(=O)N2CCOCC2)cc1

> <Energy>
65.31213560671677

> <Genealogy>
O=C(CCc1ccccc1[O-])[N-]CC(=O)[N-]c1ccc(S(=O)(=O)N2CCOCC2)cc1 (protonated)
O=C(CCc1ccccc1[O-])[N-]CC(=O)[N-]c1ccc(S(=O)(=O)N2CCOCC2)cc1 (3D coordinates assigned)
O=C(CCc1ccccc1[O-])[N-]CC(=O)[N-]c1ccc(S(=O)(=O)N2CCOCC2)cc1 (nonaromatic ring conformer: 65.31213560671677 kcal/mol)

> <smiles>
O=C(CCc1ccccc1O)NCC(=O)Nc1ccc(S(=O)(=O)N2CCOCC2)cc1

> <score_type>
oracle

> <origin>
adg

> <m_score__min__energy>
-15.199999999999999

> <m_primary>
energy

> <minimizedAffinity>
-7.89747

> <minimizedRMSD>
0.93796

> <CNNscore>
0.6218259931

> <CNNaffinity>
6.8386349678

> <CNN_VS>
4.2524409294

> <CNNaffinity_variance>
0.0911247358

$$$$
62:0


 26 28  0  0  0  0  0  0  0  0999 V2000
   58.5277   30.0296   44.5412 C   0  0  0  0  0  0  0  0  0  0  0  0
   58.7539   29.3641   45.6837 C   0  0  0  0  0  0  0  0  0  0  0  0
   58.4966   28.0082   45.9470 C   0  0  0  0  0  0  0  0  0  0  0  0
   58.1352   27.0001   45.1297 C   0  0  0  0  0  0  0  0  0  0  0  0
   58.7052   27.8305   47.3059 C   0  0  0  0  0  0  0  0  0  0  0  0
   59.1298   29.0440   47.8075 C   0  0  0  0  0  0  0  0  0  0  0  0
   59.5023   29.2980   49.2364 C   0  0  0  0  0  0  0  0  0  0  0  0
   59.1732   29.9681   46.8252 N   0  0  0  0  0  0  0  0  0  0  0  0
   57.5849   25.7051   45.5583 C   0  0  0  0  0  0  0  0  0  0  0  0
   58.2937   24.5738   45.7089 N   0  0  0  0  0  0  0  0  0  0  0  0
   57.4256   23.7006   46.2589 C   0  0  0  0  0  0  0  0  0  0  0  0
   57.7347   22.5133   46.5442 O   0  0  0  0  0  0  0  0  0  0  0  0
   56.1995   24.2154   46.4923 N   0  0  0  0  0  0  0  0  0  0  0  0
   56.3214   25.4847   46.0583 C   0  0  0  0  0  0  0  0  0  0  0  0
   55.3015   26.4250   46.1270 O   0  0  0  0  0  0  0  0  0  0  0  0
   59.2361   24.4172   45.4710 H   0  0  0  0  0  0  0  0  0  0  0  0
   59.5172   31.3537   47.0021 C   0  0  0  0  0  0  0  0  0  0  0  0
   58.5110   32.3267   47.0089 C   0  0  0  0  0  0  0  0  0  0  0  0
   58.8375   33.6705   47.1948 C   0  0  0  0  0  0  0  0  0  0  0  0
   60.1687   34.0500   47.3766 C   0  0  0  0  0  0  0  0  0  0  0  0
   61.1952   33.0877   47.3754 C   0  0  0  0  0  0  0  0  0  0  0  0
   60.8564   31.7306   47.1849 C   0  0  0  0  0  0  0  0  0  0  0  0
   61.8175   30.7704   47.1643 F   0  0  0  0  0  0  0  0  0  0  0  0
   62.6016   33.5162   47.5708 C   0  0  0  0  0  0  0  0  0  0  0  0
   63.3767   33.6571   46.5895 O   0  0  0  0  0  0  0  0  0  0  0  0
   63.0871   33.7697   48.8493 O   0  0  0  0  0  0  0  0  0  0  0  0
  1  2  2  0
  2  3  1  0
  3  4  2  0
  4  9  1  0
  9 10  1  0
 10 11  1  0
 11 12  2  0
 11 13  1  0
 13 14  1  0
 14 15  1  0
  3  5  1  0
  5  6  2  0
  6  7  1  0
  6  8  1  0
  8 17  1  0
 17 18  2  0
 18 19  1  0
 19 20  2  0
 20 21  1  0
 21 24  1  0
 24 25  2  0
 24 26  1  0
 21 22  2  0
 22 23  1  0
  8  2  1  0
 22 17  1  0
 14  9  2  0
 10 16  1  0
M  CHG 1  13  -1
M  CHG 1  15  -1
M  CHG 1  26  -1
M  END
> <UniqueID>
57

> <SMILES>
C=c1c(=Cc2[nH]c(=O)[n-]c2[O-])cc(C)n1-c1cccc(C(=O)[O-])c1F

> <Energy>
116.9637627390612

> <Genealogy>
C=c1c(=Cc2[nH]c(=O)[n-]c2[O-])cc(C)n1-c1cccc(C(=O)[O-])c1F (protonated)
C=c1c(=Cc2[nH]c(=O)[n-]c2[O-])cc(C)n1-c1cccc(C(=O)[O-])c1F (3D coordinates assigned)
C=c1c(=Cc2[nH]c(=O)[n-]c2[O-])cc(C)n1-c1cccc(C(=O)[O-])c1F (optimized conformer: 116.9637627390612 kcal/mol)

> <smiles>
C=c1c(=Cc2[nH]c(=O)[nH]c2O)cc(C)n1-c1cccc(C(=O)O)c1F

> <score_type>
oracle

> <origin>
adg

> <m_score__min__energy>
-14.16

> <m_primary>
energy

> <minimizedAffinity>
-8.70703

> <minimizedRMSD>
0.69615

> <CNNscore>
0.2169574499

> <CNNaffinity>
6.4722232819

> <CNN_VS>
1.4041970968

> <CNNaffinity_variance>
0.1515412480

$$$$
68:0


 32 35  0  0  0  0  0  0  0  0999 V2000
   57.1325   28.6762   44.0064 C   0  0  0  0  0  0  0  0  0  0  0  0
   58.1022   28.4017   44.8921 C   0  0  0  0  0  0  0  0  0  0  0  0
   58.5128   27.1344   45.3415 C   0  0  0  0  0  0  0  0  0  0  0  0
   58.1939   25.8972   44.9148 C   0  0  0  0  0  0  0  0  0  0  0  0
   59.3919   27.3611   46.3887 C   0  0  0  0  0  0  0  0  0  0  0  0
   59.5357   28.7272   46.5039 C   0  0  0  0  0  0  0  0  0  0  0  0
   60.4155   29.4079   47.5092 C   0  0  0  0  0  0  0  0  0  0  0  0
   58.7548   29.3603   45.6001 N   0  0  0  0  0  0  0  0  0  0  0  0
   57.4295   24.8941   45.6810 C   0  0  0  0  0  0  0  0  0  0  0  0
   56.1894   25.2290   46.2429 C   0  0  0  0  0  0  0  0  0  0  0  0
   55.6397   26.4905   46.0428 O   0  0  0  0  0  0  0  0  0  0  0  0
   55.5097   24.3143   46.9834 N   0  0  0  0  0  0  0  0  0  0  0  0
   56.0184   23.0768   47.2051 C   0  0  0  0  0  0  0  0  0  0  0  0
   55.3688   22.2441   47.8892 O   0  0  0  0  0  0  0  0  0  0  0  0
   57.2295   22.7363   46.6955 N   0  0  0  0  0  0  0  0  0  0  0  0
   57.9493   23.6155   45.9507 C   0  0  0  0  0  0  0  0  0  0  0  0
   59.0806   23.2733   45.5128 O   0  0  0  0  0  0  0  0  0  0  0  0
   58.6391   30.7868   45.4449 C   0  0  0  0  0  0  0  0  0  0  0  0
   58.0799   31.3272   44.2792 C   0  0  0  0  0  0  0  0  0  0  0  0
   57.9583   32.7113   44.1364 C   0  0  0  0  0  0  0  0  0  0  0  0
   58.4002   33.5647   45.1520 C   0  0  0  0  0  0  0  0  0  0  0  0
   58.9771   33.0377   46.3208 C   0  0  0  0  0  0  0  0  0  0  0  0
   59.0787   31.6434   46.4653 C   0  0  0  0  0  0  0  0  0  0  0  0
   59.4308   33.9329   47.4087 C   0  0  0  0  0  0  0  0  0  0  0  0
   59.0275   35.1267   47.4334 O   0  0  0  0  0  0  0  0  0  0  0  0
   60.3403   33.4795   48.4244 N   0  0  0  0  0  0  0  0  0  0  0  0
   59.9765   33.2382   49.8185 C   0  0  0  0  0  0  0  0  0  0  0  0
   61.2303   32.6161   50.4858 C   0  0  0  0  0  0  0  0  0  0  0  0
   62.1986   32.4436   49.4111 N   0  0  0  0  0  0  0  0  0  0  0  0
   63.5259   31.8573   49.5455 C   0  0  0  0  0  0  0  0  0  0  0  0
   61.6359   32.9478   48.2208 C   0  0  0  0  0  0  0  0  0  0  0  0
   62.2027   32.8731   47.0973 O   0  0  0  0  0  0  0  0  0  0  0  0
  1  2  2  0
  2  3  1  0
  3  4  2  0
  4  9  1  0
  9 10  2  0
 10 11  1  0
 10 12  1  0
 12 13  1  0
 13 14  2  0
 13 15  1  0
 15 16  1  0
 16 17  2  0
  3  5  1  0
  5  6  2  0
  6  7  1  0
  6  8  1  0
  8 18  1  0
 18 19  2  0
 19 20  1  0
 20 21  2  0
 21 22  1  0
 22 24  1  0
 24 25  2  0
 24 26  1  0
 26 27  1  0
 27 28  1  0
 28 29  1  0
 29 30  1  0
 29 31  1  0
 31 32  2  0
 22 23  2  0
  8  2  1  0
 23 18  1  0
 16  9  1  0
 31 26  1  0
M  CHG 1  11  -1
M  CHG 1  12  -1
M  CHG 1  15  -1
M  END
> <UniqueID>
63

> <SMILES>
C=c1c(=Cc2c([O-])[n-]c(=O)[n-]c2=O)cc(C)n1-c1cccc(C(=O)N2CCN(C)C2=O)c1

> <Energy>
118.63598714257257

> <Genealogy>
C=c1c(=Cc2c([O-])[n-]c(=O)[n-]c2=O)cc(C)n1-c1cccc(C(=O)N2CCN(C)C2=O)c1 (protonated)
C=c1c(=Cc2c([O-])[n-]c(=O)[n-]c2=O)cc(C)n1-c1cccc(C(=O)N2CCN(C)C2=O)c1 (3D coordinates assigned)
C=c1c(=Cc2c([O-])[n-]c(=O)[n-]c2=O)cc(C)n1-c1cccc(C(=O)N2CCN(C)C2=O)c1 (nonaromatic ring conformer: 118.63598714257257 kcal/mol)

> <smiles>
C=c1c(=Cc2c(O)[nH]c(=O)[nH]c2=O)cc(C)n1-c1cccc(C(=O)N2CCN(C)C2=O)c1

> <score_type>
oracle

> <origin>
adg

> <m_score__min__energy>
-16.829999999999998

> <m_primary>
energy

> <minimizedAffinity>
-9.94388

> <minimizedRMSD>
0.93844

> <CNNscore>
0.4442666173

> <CNNaffinity>
7.1368236542

> <CNN_VS>
3.1706523895

> <CNNaffinity_variance>
0.0067442502

$$$$
70:0


 31 34  0  0  0  0  0  0  0  0999 V2000
   54.8327   28.6312   54.9881 C   0  0  0  0  0  0  0  0  0  0  0  0
   55.1931   29.5762   54.1039 C   0  0  0  0  0  0  0  0  0  0  0  0
   54.3648   30.1752   53.1401 C   0  0  0  0  0  0  0  0  0  0  0  0
   53.0291   30.1408   52.9722 C   0  0  0  0  0  0  0  0  0  0  0  0
   55.2032   30.8829   52.2995 C   0  0  0  0  0  0  0  0  0  0  0  0
   56.4898   30.7445   52.7863 C   0  0  0  0  0  0  0  0  0  0  0  0
   56.4769   29.9888   53.9168 N   0  0  0  0  0  0  0  0  0  0  0  0
   57.6456   29.6224   54.7323 C   0  0  0  0  0  0  0  0  0  0  0  0
   52.3167   30.3672   51.7061 C   0  0  0  0  0  0  0  0  0  0  0  0
   52.3911   29.5329   50.6582 N   0  0  0  0  0  0  0  0  0  0  0  0
   51.6728   30.1602   49.7037 C   0  0  0  0  0  0  0  0  0  0  0  0
   51.5046   29.6818   48.5537 O   0  0  0  0  0  0  0  0  0  0  0  0
   51.1593   31.3535   50.0750 N   0  0  0  0  0  0  0  0  0  0  0  0
   51.5888   31.4819   51.3398 C   0  0  0  0  0  0  0  0  0  0  0  0
   51.3419   32.6108   52.1198 O   0  0  0  0  0  0  0  0  0  0  0  0
   50.8322   33.3170   51.7739 H   0  0  0  0  0  0  0  0  0  0  0  0
   57.6886   31.3241   52.1248 C   0  0  0  0  0  0  0  0  0  0  0  0
   57.9713   32.5439   52.2575 O   0  0  0  0  0  0  0  0  0  0  0  0
   58.5573   30.5028   51.3316 N   0  0  0  0  0  0  0  0  0  0  0  0
   58.7872   30.8608   49.9289 C   0  0  0  0  0  0  0  0  0  0  0  0
   60.0244   30.1466   49.3690 C   0  0  0  0  0  0  0  0  0  0  0  0
   61.2031   30.1952   50.3707 C   0  0  0  0  0  0  0  0  0  0  0  0
   60.8130   29.5823   51.7480 C   0  0  0  0  0  0  0  0  0  0  0  0
   59.2996   29.3977   51.9432 C   0  0  0  0  0  0  0  0  0  0  0  0
   61.7716   31.6237   50.5542 C   0  0  0  0  0  0  0  0  0  0  0  0
   62.0520   32.3121   49.2424 C   0  0  0  0  0  0  0  0  0  0  0  0
   63.2072   31.9961   48.5067 C   0  0  0  0  0  0  0  0  0  0  0  0
   63.4519   32.6149   47.2777 C   0  0  0  0  0  0  0  0  0  0  0  0
   62.5468   33.5503   46.7704 C   0  0  0  0  0  0  0  0  0  0  0  0
   61.3969   33.8728   47.4948 C   0  0  0  0  0  0  0  0  0  0  0  0
   61.1500   33.2633   48.7316 C   0  0  0  0  0  0  0  0  0  0  0  0
  1  2  2  0
  2  3  1  0
  3  4  2  0
  4  9  1  0
  9 10  1  0
 10 11  1  0
 11 12  2  0
 11 13  1  0
 13 14  1  0
 14 15  1  0
  3  5  1  0
  5  6  2  0
  6 17  1  0
 17 18  2  0
 17 19  1  0
 19 20  1  0
 20 21  1  0
 21 22  1  0
 22 25  1  0
 25 26  1  0
 26 27  2  0
 27 28  1  0
 28 29  2  0
 29 30  1  0
 30 31  2  0
 22 23  1  0
 23 24  1  0
  6  7  1  0
  7  8  1  0
  7  2  1  0
 14  9  2  0
 24 19  1  0
 31 26  1  0
 15 16  1  0
M  CHG 1  10  -1
M  CHG 1  13  -1
M  END
> <UniqueID>
65

> <SMILES>
C=c1c(=Cc2[n-]c(=O)[n-]c2O)cc(C(=O)N2CCC(Cc3ccccc3)CC2)n1C

> <Energy>
136.0885083303118

> <Genealogy>
C=c1c(=Cc2[n-]c(=O)[n-]c2O)cc(C(=O)N2CCC(Cc3ccccc3)CC2)n1C (protonated)
C=c1c(=Cc2[n-]c(=O)[n-]c2O)cc(C(=O)N2CCC(Cc3ccccc3)CC2)n1C (3D coordinates assigned)
C=c1c(=Cc2[n-]c(=O)[n-]c2O)cc(C(=O)N2CCC(Cc3ccccc3)CC2)n1C (nonaromatic ring conformer: 136.0885083303118 kcal/mol)

> <smiles>
C=c1c(=Cc2[nH]c(=O)[nH]c2O)cc(C(=O)N2CCC(Cc3ccccc3)CC2)n1C

> <score_type>
oracle

> <origin>
adg

> <m_score__min__energy>
-14.130000000000001

> <m_primary>
energy

> <minimizedAffinity>
-6.57501

> <minimizedRMSD>
0.62791

> <CNNscore>
0.0620250702

> <CNNaffinity>
5.1259026527

> <CNN_VS>
0.3179344833

> <CNNaffinity_variance>
0.2842516303

$$$$
74:0


 35 38  0  0  0  0  0  0  0  0999 V2000
   58.3200   29.4091   46.5107 C   0  0  0  0  0  0  0  0  0  0  0  0
   59.0464   28.5307   47.2198 C   0  0  0  0  0  0  0  0  0  0  0  0
   59.2929   27.1957   46.8917 C   0  0  0  0  0  0  0  0  0  0  0  0
   58.8742   26.5283   45.7996 C   0  0  0  0  0  0  0  0  0  0  0  0
   60.0880   26.6811   47.9086 C   0  0  0  0  0  0  0  0  0  0  0  0
   60.2830   27.7071   48.8124 C   0  0  0  0  0  0  0  0  0  0  0  0
   61.1045   27.6062   50.0609 C   0  0  0  0  0  0  0  0  0  0  0  0
   59.6626   28.8301   48.3879 N   0  0  0  0  0  0  0  0  0  0  0  0
   57.9097   25.4082   45.8594 C   0  0  0  0  0  0  0  0  0  0  0  0
   56.5150   25.6191   45.9212 C   0  0  0  0  0  0  0  0  0  0  0  0
   55.9579   26.8978   45.8913 O   0  0  0  0  0  0  0  0  0  0  0  0
   55.6796   24.5502   45.9921 N   0  0  0  0  0  0  0  0  0  0  0  0
   56.1548   23.2786   45.9836 C   0  0  0  0  0  0  0  0  0  0  0  0
   55.3563   22.3090   46.0514 O   0  0  0  0  0  0  0  0  0  0  0  0
   57.4893   23.0527   45.8937 N   0  0  0  0  0  0  0  0  0  0  0  0
   58.3724   24.0818   45.8275 C   0  0  0  0  0  0  0  0  0  0  0  0
   59.6045   23.8340   45.7473 O   0  0  0  0  0  0  0  0  0  0  0  0
   56.5143   27.6502   45.8424 H   0  0  0  0  0  0  0  0  0  0  0  0
   59.6498   30.0917   49.0734 C   0  0  0  0  0  0  0  0  0  0  0  0
   58.8215   30.2613   50.1899 C   0  0  0  0  0  0  0  0  0  0  0  0
   58.7863   31.4866   50.8665 C   0  0  0  0  0  0  0  0  0  0  0  0
   59.5862   32.5479   50.4208 C   0  0  0  0  0  0  0  0  0  0  0  0
   60.4149   32.3823   49.3083 C   0  0  0  0  0  0  0  0  0  0  0  0
   60.4500   31.1590   48.6297 C   0  0  0  0  0  0  0  0  0  0  0  0
   61.4758   30.9937   47.2120 Cl  0  0  0  0  0  0  0  0  0  0  0  0
   57.7050   31.6867   52.2425 S   0  0  0  0  0  0  0  0  0  0  0  0
   56.3933   31.0031   51.9706 O   0  0  0  0  0  0  0  0  0  0  0  0
   57.4458   33.1565   52.4281 O   0  0  0  0  0  0  0  0  0  0  0  0
   58.4396   31.0391   53.6933 N   0  0  0  0  0  0  0  0  0  0  0  0
   58.8766   32.1024   54.6161 C   0  0  0  0  0  0  0  0  0  0  0  0
   60.1706   32.8006   54.1467 C   0  0  0  0  0  0  0  0  0  0  0  0
   61.1381   31.8942   53.5009 N   0  0  0  0  0  0  0  0  0  0  0  0
   60.9023   30.4868   53.8337 C   0  0  0  0  0  0  0  0  0  0  0  0
   59.4967   30.0468   53.3840 C   0  0  0  0  0  0  0  0  0  0  0  0
   62.0776   32.1488   53.8057 H   0  0  0  0  0  0  0  0  0  0  0  0
  1  2  2  0
  2  3  1  0
  3  4  2  0
  4  9  1  0
  9 10  2  0
 10 11  1  0
 10 12  1  0
 12 13  1  0
 13 14  2  0
 13 15  1  0
 15 16  1  0
 16 17  2  0
  3  5  1  0
  5  6  2  0
  6  7  1  0
  6  8  1  0
  8 19  1  0
 19 20  2  0
 20 21  1  0
 21 26  1  0
 26 27  2  0
 26 28  2  0
 26 29  1  0
 29 30  1  0
 30 31  1  0
 31 32  1  0
 32 33  1  0
 33 34  1  0
 21 22  2  0
 22 23  1  0
 23 24  2  0
 24 25  1  0
  8  2  1  0
 24 19  1  0
 16  9  1  0
 34 29  1  0
 11 18  1  0
 32 35  1  0
M  CHG 1  12  -1
M  CHG 1  15  -1
M  END
> <UniqueID>
68

> <SMILES>
C=c1c(=Cc2c(O)[n-]c(=O)[n-]c2=O)cc(C)n1-c1cc(S(=O)(=O)N2CCNCC2)ccc1Cl

> <Energy>
111.66735122016702

> <Genealogy>
C=c1c(=Cc2c(O)[n-]c(=O)[n-]c2=O)cc(C)n1-c1cc(S(=O)(=O)N2CCNCC2)ccc1Cl (protonated)
C=c1c(=Cc2c(O)[n-]c(=O)[n-]c2=O)cc(C)n1-c1cc(S(=O)(=O)N2CCNCC2)ccc1Cl (3D coordinates assigned)
C=c1c(=Cc2c(O)[n-]c(=O)[n-]c2=O)cc(C)n1-c1cc(S(=O)(=O)N2CCNCC2)ccc1Cl (nonaromatic ring conformer: 111.66735122016702 kcal/mol)

> <smiles>
C=c1c(=Cc2c(O)[nH]c(=O)[nH]c2=O)cc(C)n1-c1cc(S(=O)(=O)N2CCNCC2)ccc1Cl

> <score_type>
oracle

> <origin>
adg

> <m_score__min__energy>
-14.67

> <m_primary>
energy

> <minimizedAffinity>
-7.90681

> <minimizedRMSD>
1.56571

> <CNNscore>
0.3981477916

> <CNNaffinity>
6.4337601662

> <CNN_VS>
2.5615873337

> <CNNaffinity_variance>
0.1706718057

$$$$
82:0


 29 31  0  0  0  0  0  0  0  0999 V2000
   58.3791   30.8982   45.5790 C   0  0  0  0  0  0  0  0  0  0  0  0
   57.9170   31.2017   44.2945 C   0  0  0  0  0  0  0  0  0  0  0  0
   57.9487   32.5180   43.8278 C   0  0  0  0  0  0  0  0  0  0  0  0
   58.4195   33.5429   44.6503 C   0  0  0  0  0  0  0  0  0  0  0  0
   58.8439   33.2644   45.9631 C   0  0  0  0  0  0  0  0  0  0  0  0
   58.8014   31.9363   46.4250 C   0  0  0  0  0  0  0  0  0  0  0  0
   59.3329   34.3520   46.8422 C   0  0  0  0  0  0  0  0  0  0  0  0
   59.8303   35.3961   46.3394 O   0  0  0  0  0  0  0  0  0  0  0  0
   59.2383   34.2258   48.2656 N   0  0  0  0  0  0  0  0  0  0  0  0
   59.7029   33.0604   49.0088 C   0  0  0  0  0  0  0  0  0  0  0  0
   61.2064   33.0484   49.0668 C   0  0  0  0  0  0  0  0  0  0  0  0
   61.9360   32.2195   48.1991 C   0  0  0  0  0  0  0  0  0  0  0  0
   63.3323   32.1845   48.2659 C   0  0  0  0  0  0  0  0  0  0  0  0
   64.0093   32.9736   49.2016 C   0  0  0  0  0  0  0  0  0  0  0  0
   63.2897   33.7965   50.0729 C   0  0  0  0  0  0  0  0  0  0  0  0
   61.8929   33.8353   50.0080 C   0  0  0  0  0  0  0  0  0  0  0  0
   58.3399   29.5382   46.0260 N   0  0  0  0  0  0  0  0  0  0  0  0
   56.4136   28.7017   45.0440 O   0  0  0  0  0  0  0  0  0  0  0  0
   57.5847   28.4662   45.4433 C   0  0  0  0  0  0  0  0  0  0  0  0
   58.1858   27.1104   45.1635 C   0  0  0  0  0  0  0  0  0  0  0  0
   58.0100   26.1531   46.3484 C   0  0  0  0  0  0  0  0  0  0  0  0
   56.9404   25.1245   46.0929 C   0  0  0  0  0  0  0  0  0  0  0  0
   55.6327   25.4939   46.1294 N   0  0  0  0  0  0  0  0  0  0  0  0
   54.6578   24.6143   45.8947 N   0  0  0  0  0  0  0  0  0  0  0  0
   54.9433   23.3200   45.6058 C   0  0  0  0  0  0  0  0  0  0  0  0
   54.0146   22.5024   45.3834 O   0  0  0  0  0  0  0  0  0  0  0  0
   56.2359   22.9126   45.5556 N   0  0  0  0  0  0  0  0  0  0  0  0
   57.2457   23.7876   45.7925 C   0  0  0  0  0  0  0  0  0  0  0  0
   58.4398   23.3900   45.7398 O   0  0  0  0  0  0  0  0  0  0  0  0
 18 19  2  0
 19 20  1  0
 20 21  1  0
 21 22  1  0
 22 23  2  0
 23 24  1  0
 24 25  1  0
 25 26  2  0
 25 27  1  0
 27 28  1  0
 28 29  2  0
 19 17  1  0
 17  1  1  0
  1  2  2  0
  2  3  1  0
  3  4  2  0
  4  5  1  0
  5  7  1  0
  7  8  2  0
  7  9  1  0
  9 10  1  0
 10 11  1  0
 11 12  2  0
 12 13  1  0
 13 14  2  0
 14 15  1  0
 15 16  2  0
  5  6  2  0
 28 22  1  0
  6  1  1  0
 16 11  1  0
M  CHG 1   9  -1
M  CHG 1  17  -1
M  CHG 1  24  -1
M  CHG 1  27  -1
M  END
> <UniqueID>
74

> <SMILES>
O=C(CCc1n[n-]c(=O)[n-]c1=O)[N-]c1cccc(C(=O)[N-]Cc2ccccc2)c1

> <Energy>
47.458554164044564

> <Genealogy>
O=C(CCc1n[n-]c(=O)[n-]c1=O)[N-]c1cccc(C(=O)[N-]Cc2ccccc2)c1 (protonated)
O=C(CCc1n[n-]c(=O)[n-]c1=O)[N-]c1cccc(C(=O)[N-]Cc2ccccc2)c1 (3D coordinates assigned)
O=C(CCc1n[n-]c(=O)[n-]c1=O)[N-]c1cccc(C(=O)[N-]Cc2ccccc2)c1 (optimized conformer: 47.458554164044564 kcal/mol)

> <smiles>
O=C(CCc1n[nH]c(=O)[nH]c1=O)Nc1cccc(C(=O)NCc2ccccc2)c1

> <score_type>
oracle

> <origin>
adg

> <m_score__min__energy>
-16.09

> <m_primary>
energy

> <minimizedAffinity>
-8.33378

> <minimizedRMSD>
0.96606

> <CNNscore>
0.6429842710

> <CNNaffinity>
7.0784220695

> <CNN_VS>
4.5513138771

> <CNNaffinity_variance>
0.4004150629

$$$$
0:0


 30 33  0  0  0  0  0  0  0  0999 V2000
   59.4721   27.7738   47.1839 C   0  0  0  0  0  0  0  0  0  0  0  0
   58.8865   28.2454   46.0734 C   0  0  0  0  0  0  0  0  0  0  0  0
   58.3560   27.5000   45.0064 C   0  0  0  0  0  0  0  0  0  0  0  0
   58.1388   26.1769   44.8733 C   0  0  0  0  0  0  0  0  0  0  0  0
   58.0444   28.4129   44.0121 C   0  0  0  0  0  0  0  0  0  0  0  0
   58.3370   29.6656   44.5125 C   0  0  0  0  0  0  0  0  0  0  0  0
   58.1470   30.9510   43.7661 C   0  0  0  0  0  0  0  0  0  0  0  0
   58.8330   29.5676   45.7644 N   0  0  0  0  0  0  0  0  0  0  0  0
   57.4682   25.3169   45.8593 C   0  0  0  0  0  0  0  0  0  0  0  0
   58.0650   24.3167   46.5349 N   0  0  0  0  0  0  0  0  0  0  0  0
   57.1096   23.9140   47.4008 C   0  0  0  0  0  0  0  0  0  0  0  0
   57.2861   22.9681   48.2112 O   0  0  0  0  0  0  0  0  0  0  0  0
   55.9542   24.6105   47.3353 N   0  0  0  0  0  0  0  0  0  0  0  0
   56.2050   25.5043   46.3644 C   0  0  0  0  0  0  0  0  0  0  0  0
   55.2986   26.4731   45.9532 O   0  0  0  0  0  0  0  0  0  0  0  0
   59.3415   30.6647   46.5425 C   0  0  0  0  0  0  0  0  0  0  0  0
   60.6747   30.6545   46.9786 C   0  0  0  0  0  0  0  0  0  0  0  0
   61.1877   31.7229   47.7319 C   0  0  0  0  0  0  0  0  0  0  0  0
   60.3433   32.7968   48.0583 C   0  0  0  0  0  0  0  0  0  0  0  0
   59.0163   32.8112   47.6199 C   0  0  0  0  0  0  0  0  0  0  0  0
   58.5146   31.7501   46.8627 C   0  0  0  0  0  0  0  0  0  0  0  0
   57.2195   31.7669   46.4586 F   0  0  0  0  0  0  0  0  0  0  0  0
   62.5863   31.6979   48.2133 C   0  0  0  0  0  0  0  0  0  0  0  0
   63.5326   31.7572   47.3834 O   0  0  0  0  0  0  0  0  0  0  0  0
   62.8913   31.6116   49.6138 N   0  0  0  0  0  0  0  0  0  0  0  0
   63.6252   32.6972   50.2638 C   0  0  0  0  0  0  0  0  0  0  0  0
   64.4708   32.1358   51.4112 C   0  0  0  0  0  0  0  0  0  0  0  0
   63.6844   31.3316   52.2715 O   0  0  0  0  0  0  0  0  0  0  0  0
   63.2262   30.1884   51.5742 C   0  0  0  0  0  0  0  0  0  0  0  0
   62.2631   30.5879   50.4527 C   0  0  0  0  0  0  0  0  0  0  0  0
  1  2  2  0
  2  3  1  0
  3  4  2  0
  4  9  1  0
  9 10  1  0
 10 11  1  0
 11 12  2  0
 11 13  1  0
 13 14  1  0
 14 15  1  0
  3  5  1  0
  5  6  2  0
  6  7  1  0
  6  8  1  0
  8 16  1  0
 16 17  2  0
 17 18  1  0
 18 23  1  0
 23 24  2  0
 23 25  1  0
 25 26  1  0
 26 27  1  0
 27 28  1  0
 28 29  1  0
 29 30  1  0
 18 19  2  0
 19 20  1  0
 20 21  2  0
 21 22  1  0
  8  2  1  0
 21 16  1  0
 14  9  2  0
 30 25  1  0
M  CHG 1  10  -1
M  CHG 1  13  -1
M  CHG 1  15  -1
M  END
> <UniqueID>
1

> <SMILES>
C=c1c(=Cc2[n-]c(=O)[n-]c2[O-])cc(C)n1-c1cc(C(=O)N2CCOCC2)ccc1F

> <Energy>
133.46472191813942

> <Genealogy>
C=c1c(=Cc2[n-]c(=O)[n-]c2[O-])cc(C)n1-c1cc(C(=O)N2CCOCC2)ccc1F (protonated)
C=c1c(=Cc2[n-]c(=O)[n-]c2[O-])cc(C)n1-c1cc(C(=O)N2CCOCC2)ccc1F (3D coordinates assigned)
C=c1c(=Cc2[n-]c(=O)[n-]c2[O-])cc(C)n1-c1cc(C(=O)N2CCOCC2)ccc1F (nonaromatic ring conformer: 133.46472191813942 kcal/mol)

> <smiles>
C=c1c(=Cc2[nH]c(=O)[nH]c2O)cc(C)n1-c1cc(C(=O)N2CCOCC2)ccc1F

> <score_type>
oracle

> <origin>
adg

> <m_score__min__energy>
-16.609999999999999

> <m_primary>
energy

> <minimizedAffinity>
-6.90507

> <minimizedRMSD>
0.65057

> <CNNscore>
0.0830738619

> <CNNaffinity>
6.5407295227

> <CNN_VS>
0.5433636904

> <CNNaffinity_variance>
0.0594299175

$$$$
11:0


 27 29  0  0  0  0  0  0  0  0999 V2000
   54.2551   27.8225   53.7578 C   0  0  0  0  0  0  0  0  0  0  0  0
   55.1174   28.7854   53.4173 C   0  0  0  0  0  0  0  0  0  0  0  0
   56.4512   28.5177   53.3674 N   0  0  0  0  0  0  0  0  0  0  0  0
   57.1768   29.5934   52.9992 C   0  0  0  0  0  0  0  0  0  0  0  0
   56.2076   30.9296   52.7189 S   0  0  0  0  0  0  0  0  0  0  0  0
   54.7720   30.1137   53.0890 C   0  0  0  0  0  0  0  0  0  0  0  0
   53.5344   30.6378   53.0090 C   0  0  0  0  0  0  0  0  0  0  0  0
   52.7425   30.6944   51.7682 C   0  0  0  0  0  0  0  0  0  0  0  0
   52.8623   29.7923   50.7774 N   0  0  0  0  0  0  0  0  0  0  0  0
   51.9147   30.1701   49.8923 C   0  0  0  0  0  0  0  0  0  0  0  0
   51.7224   29.5653   48.8062 O   0  0  0  0  0  0  0  0  0  0  0  0
   51.1830   31.2407   50.2679 N   0  0  0  0  0  0  0  0  0  0  0  0
   51.7093   31.5548   51.4630 C   0  0  0  0  0  0  0  0  0  0  0  0
   51.2194   32.5714   52.2721 O   0  0  0  0  0  0  0  0  0  0  0  0
   58.9543   29.5575   52.7814 S   0  0  0  0  0  0  0  0  0  0  0  0
   59.1468   31.3757   52.7589 C   0  0  0  0  0  0  0  0  0  0  0  0
   59.4192   31.8754   51.3654 C   0  0  0  0  0  0  0  0  0  0  0  0
   59.9316   33.1671   51.1609 C   0  0  0  0  0  0  0  0  0  0  0  0
   60.1227   33.6526   49.8637 C   0  0  0  0  0  0  0  0  0  0  0  0
   59.8131   32.8512   48.7583 C   0  0  0  0  0  0  0  0  0  0  0  0
   59.3023   31.5617   48.9586 C   0  0  0  0  0  0  0  0  0  0  0  0
   59.1072   31.0761   50.2546 C   0  0  0  0  0  0  0  0  0  0  0  0
   60.0218   33.4813   47.1271 S   0  0  0  0  0  0  0  0  0  0  0  0
   61.7060   33.5826   46.7608 N   0  0  0  0  0  0  0  0  0  0  0  0
   59.3460   32.5693   46.1411 O   0  0  0  0  0  0  0  0  0  0  0  0
   59.4034   34.8474   47.0231 O   0  0  0  0  0  0  0  0  0  0  0  0
   62.1256   32.6556   46.8314 H   0  0  0  0  0  0  0  0  0  0  0  0
  1  2  2  0
  2  3  1  0
  3  4  2  0
  4 15  1  0
 15 16  1  0
 16 17  1  0
 17 18  2  0
 18 19  1  0
 19 20  2  0
 20 23  1  0
 23 24  1  0
 23 25  2  0
 23 26  2  0
 20 21  1  0
 21 22  2  0
  4  5  1  0
  5  6  1  0
  6  7  2  0
  7  8  1  0
  8  9  1  0
  9 10  1  0
 10 11  2  0
 10 12  1  0
 12 13  1  0
 13 14  1  0
  6  2  1  0
 13  8  2  0
 22 17  1  0
 24 27  1  0
M  CHG 1   9  -1
M  CHG 1  12  -1
M  CHG 1  14  -1
M  CHG 1  24  -1
M  END
> <UniqueID>
12

> <SMILES>
C=c1nc(SCc2ccc(S([NH-])(=O)=O)cc2)sc1=Cc1[n-]c(=O)[n-]c1[O-]

> <Energy>
100.37003851766353

> <Genealogy>
C=c1nc(SCc2ccc(S([NH-])(=O)=O)cc2)sc1=Cc1[n-]c(=O)[n-]c1[O-] (protonated)
C=c1nc(SCc2ccc(S([NH-])(=O)=O)cc2)sc1=Cc1[n-]c(=O)[n-]c1[O-] (3D coordinates assigned)
C=c1nc(SCc2ccc(S([NH-])(=O)=O)cc2)sc1=Cc1[n-]c(=O)[n-]c1[O-] (optimized conformer: 100.37003851766353 kcal/mol)

> <smiles>
C=c1nc(SCc2ccc(S(N)(=O)=O)cc2)sc1=Cc1[nH]c(=O)[nH]c1O

> <score_type>
oracle

> <origin>
adg

> <m_score__min__energy>
-18.489999999999998

> <m_primary>
energy

> <minimizedAffinity>
-5.74141

> <minimizedRMSD>
1.07400

> <CNNscore>
0.1218203604

> <CNNaffinity>
5.2285671234

> <CNN_VS>
0.6369459033

> <CNNaffinity_variance>
0.1560646147

$$$$
22:0


 32 35  0  0  0  0  0  0  0  0999 V2000
   58.3174   26.2522   46.8352 C   0  0  0  0  0  0  0  0  0  0  0  0
   58.5683   26.9033   47.8858 O   0  0  0  0  0  0  0  0  0  0  0  0
   58.7463   26.7917   45.5560 N   0  0  0  0  0  0  0  0  0  0  0  0
   57.6020   27.2428   44.7156 C   0  0  0  0  0  0  0  0  0  0  0  0
   57.8950   28.5382   43.9556 C   0  0  0  0  0  0  0  0  0  0  0  0
   58.3607   29.5572   44.8959 N   0  0  0  0  0  0  0  0  0  0  0  0
   57.6421   30.7997   45.0467 C   0  0  0  0  0  0  0  0  0  0  0  0
   56.4030   30.8354   44.8201 O   0  0  0  0  0  0  0  0  0  0  0  0
   59.4505   29.2227   45.8219 C   0  0  0  0  0  0  0  0  0  0  0  0
   59.8779   27.7502   45.6992 C   0  0  0  0  0  0  0  0  0  0  0  0
   59.6838   26.7228   45.2634 H   0  0  0  0  0  0  0  0  0  0  0  0
   58.3228   32.0370   45.4846 C   0  0  0  0  0  0  0  0  0  0  0  0
   58.9884   32.0889   46.7209 C   0  0  0  0  0  0  0  0  0  0  0  0
   59.6392   33.2600   47.1221 C   0  0  0  0  0  0  0  0  0  0  0  0
   59.6393   34.3829   46.2877 C   0  0  0  0  0  0  0  0  0  0  0  0
   58.9963   34.3326   45.0488 C   0  0  0  0  0  0  0  0  0  0  0  0
   58.3462   33.1619   44.6441 C   0  0  0  0  0  0  0  0  0  0  0  0
   56.4979   22.3056   48.8736 C   0  0  0  0  0  0  0  0  0  0  0  0
   56.7379   23.2125   47.9195 C   0  0  0  0  0  0  0  0  0  0  0  0
   56.2782   23.1984   46.6007 C   0  0  0  0  0  0  0  0  0  0  0  0
   55.4817   22.2718   46.0309 C   0  0  0  0  0  0  0  0  0  0  0  0
   56.7939   24.3460   46.0071 C   0  0  0  0  0  0  0  0  0  0  0  0
   57.5355   25.0001   46.9796 C   0  0  0  0  0  0  0  0  0  0  0  0
   57.5092   24.2964   48.1287 N   0  0  0  0  0  0  0  0  0  0  0  0
   57.9692   24.5316   48.9668 H   0  0  0  0  0  0  0  0  0  0  0  0
   54.0179   22.3965   45.8671 C   0  0  0  0  0  0  0  0  0  0  0  0
   53.1251   21.4014   46.0214 N   0  0  0  0  0  0  0  0  0  0  0  0
   51.9341   22.0210   45.8693 C   0  0  0  0  0  0  0  0  0  0  0  0
   50.8379   21.4080   45.9389 O   0  0  0  0  0  0  0  0  0  0  0  0
   52.0123   23.3492   45.6423 N   0  0  0  0  0  0  0  0  0  0  0  0
   53.3365   23.5694   45.6515 C   0  0  0  0  0  0  0  0  0  0  0  0
   53.9092   24.8224   45.4696 O   0  0  0  0  0  0  0  0  0  0  0  0
 18 19  2  0
 19 20  1  0
 20 21  2  0
 21 26  1  0
 26 27  1  0
 27 28  1  0
 28 29  2  0
 28 30  1  0
 30 31  1  0
 31 32  1  0
 20 22  1  0
 22 23  2  0
 23  1  1  0
  1  2  2  0
  1  3  1  0
  3  4  1  0
  4  5  1  0
  5  6  1  0
  6  7  1  0
  7  8  2  0
  7 12  1  0
 12 13  2  0
 13 14  1  0
 14 15  2  0
 15 16  1  0
 16 17  2  0
  6  9  1  0
  9 10  1  0
 23 24  1  0
 24 19  1  0
 31 26  2  0
 10  3  1  0
 17 12  1  0
  3 11  1  0
 24 25  1  0
M  CHG 1   3   1
M  CHG 1  27  -1
M  CHG 1  30  -1
M  CHG 1  32  -1
M  END
> <UniqueID>
21

> <SMILES>
C=c1[nH]c(C(=O)[NH+]2CCN(C(=O)c3ccccc3)CC2)c/c1=C\c1[n-]c(=O)[n-]c1[O-]

> <Energy>
131.32904889723716

> <Genealogy>
C=c1[nH]c(C(=O)[NH+]2CCN(C(=O)c3ccccc3)CC2)cc1=Cc1[n-]c(=O)[n-]c1[O-] (protonated)
C=c1[nH]c(C(=O)[NH+]2CCN(C(=O)c3ccccc3)CC2)c/c1=C\c1[n-]c(=O)[n-]c1[O-] (cis-trans isomerization)
C=c1[nH]c(C(=O)[NH+]2CCN(C(=O)c3ccccc3)CC2)c/c1=C\c1[n-]c(=O)[n-]c1[O-] (3D coordinates assigned)
C=c1[nH]c(C(=O)[NH+]2CCN(C(=O)c3ccccc3)CC2)c/c1=C\c1[n-]c(=O)[n-]c1[O-] (nonaromatic ring conformer: 131.32904889723716 kcal/mol)

> <smiles>
C=c1[nH]c(C(=O)N2CCN(C(=O)c3ccccc3)CC2)cc1=Cc1[nH]c(=O)[nH]c1O

> <score_type>
oracle

> <origin>
adg

> <m_score__min__energy>
-16.940000000000001

> <m_primary>
energy

> <minimizedAffinity>
-7.38099

> <minimizedRMSD>
1.30654

> <CNNscore>
0.1198249459

> <CNNaffinity>
5.9705138206

> <CNN_VS>
0.7154164910

> <CNNaffinity_variance>
0.0489630289

$$$$
23:0


 30 32  0  0  0  0  0  0  0  0999 V2000
   54.8663   29.1524   54.9761 C   0  0  0  0  0  0  0  0  0  0  0  0
   55.2730   29.8501   53.9008 C   0  0  0  0  0  0  0  0  0  0  0  0
   54.4620   30.2741   52.8408 C   0  0  0  0  0  0  0  0  0  0  0  0
   53.1330   30.0655   52.6986 C   0  0  0  0  0  0  0  0  0  0  0  0
   55.3051   30.9238   51.9508 C   0  0  0  0  0  0  0  0  0  0  0  0
   56.5780   30.8747   52.4858 C   0  0  0  0  0  0  0  0  0  0  0  0
   56.5597   30.2382   53.6888 N   0  0  0  0  0  0  0  0  0  0  0  0
   52.3414   30.3552   51.4829 C   0  0  0  0  0  0  0  0  0  0  0  0
   52.2839   29.5876   50.3787 N   0  0  0  0  0  0  0  0  0  0  0  0
   51.4913   30.2952   49.5448 C   0  0  0  0  0  0  0  0  0  0  0  0
   51.1951   29.8936   48.3907 O   0  0  0  0  0  0  0  0  0  0  0  0
   51.0463   31.4688   50.0440 N   0  0  0  0  0  0  0  0  0  0  0  0
   51.5961   31.4919   51.2680 C   0  0  0  0  0  0  0  0  0  0  0  0
   51.4312   32.5383   52.1666 O   0  0  0  0  0  0  0  0  0  0  0  0
   57.7684   31.4128   51.7887 C   0  0  0  0  0  0  0  0  0  0  0  0
   58.1356   32.6020   51.9765 O   0  0  0  0  0  0  0  0  0  0  0  0
   58.5198   30.5420   50.9272 N   0  0  0  0  0  0  0  0  0  0  0  0
   59.5206   30.8530   50.1565 C   0  0  0  0  0  0  0  0  0  0  0  0
   60.8009   30.6224   50.5183 N   0  0  0  0  0  0  0  0  0  0  0  0
   61.6771   31.0177   49.5555 C   0  0  0  0  0  0  0  0  0  0  0  0
   61.0990   31.5665   48.4172 C   0  0  0  0  0  0  0  0  0  0  0  0
   59.4299   31.5561   48.6250 S   0  0  0  0  0  0  0  0  0  0  0  0
   57.7017   30.0104   54.5892 C   0  0  0  0  0  0  0  0  0  0  0  0
   58.5515   28.8706   54.0824 C   0  0  0  0  0  0  0  0  0  0  0  0
   58.1359   27.7266   54.2120 O   0  0  0  0  0  0  0  0  0  0  0  0
   59.8380   29.1200   53.4583 N   0  0  0  0  0  0  0  0  0  0  0  0
   60.5175   30.2689   54.0775 C   0  0  0  0  0  0  0  0  0  0  0  0
   59.8259   29.8613   52.8106 H   0  0  0  0  0  0  0  0  0  0  0  0
   60.6783   27.8981   53.4153 C   0  0  0  0  0  0  0  0  0  0  0  0
   61.0341   27.4064   52.0046 C   0  0  0  0  0  0  0  0  0  0  0  0
  1  2  2  0
  2  3  1  0
  3  4  2  0
  4  8  1  0
  8  9  1  0
  9 10  1  0
 10 11  2  0
 10 12  1  0
 12 13  1  0
 13 14  1  0
  3  5  1  0
  5  6  2  0
  6 15  1  0
 15 16  2  0
 15 17  1  0
 17 18  2  0
 18 19  1  0
 19 20  1  0
 20 21  2  0
 21 22  1  0
  6  7  1  0
  7 23  1  0
 23 24  1  0
 24 25  2  0
 24 26  1  0
 26 27  1  0
 26 29  1  0
 29 30  1  0
  7  2  1  0
 13  8  2  0
 22 18  1  0
 26 28  1  0
M  CHG 1   9  -1
M  CHG 1  12  -1
M  CHG 1  14  -1
M  CHG 1  19  -1
M  CHG 1  26   1
M  END
> <UniqueID>
22

> <SMILES>
C=c1c(=Cc2[n-]c(=O)[n-]c2[O-])cc(C(=O)N=c2[n-]ccs2)n1CC(=O)[N@@H+](C)CC

> <Energy>
147.58769360858437

> <Genealogy>
C=c1c(=Cc2[n-]c(=O)[n-]c2[O-])cc(C(=O)N=c2[n-]ccs2)n1CC(=O)[NH+](C)CC (protonated)
C=c1c(=Cc2[n-]c(=O)[n-]c2[O-])cc(C(=O)N=c2[n-]ccs2)n1CC(=O)[N@@H+](C)CC (chirality)
C=c1c(=Cc2[n-]c(=O)[n-]c2[O-])cc(C(=O)N=c2[n-]ccs2)n1CC(=O)[N@@H+](C)CC (3D coordinates assigned)
C=c1c(=Cc2[n-]c(=O)[n-]c2[O-])cc(C(=O)N=c2[n-]ccs2)n1CC(=O)[N@@H+](C)CC (optimized conformer: 147.58769360858437 kcal/mol)

> <smiles>
C=c1c(=Cc2[nH]c(=O)[nH]c2O)cc(C(=O)N=c2[nH]ccs2)n1CC(=O)N(C)CC

> <score_type>
oracle

> <origin>
adg

> <m_score__min__energy>
-15.09

> <m_primary>
energy

> <minimizedAffinity>
-4.30387

> <minimizedRMSD>
1.07778

> <CNNscore>
0.1317257285

> <CNNaffinity>
4.9876494408

> <CNN_VS>
0.6570017338

> <CNNaffinity_variance>
0.4972498715

$$$$
35:0


 39 42  0  0  0  0  0  0  0  0999 V2000
   59.2941   30.1380   53.4973 C   0  0  0  0  0  0  0  0  0  0  0  0
   58.6772   28.8770   53.4639 C   0  0  0  0  0  0  0  0  0  0  0  0
   57.3465   28.7327   53.8650 C   0  0  0  0  0  0  0  0  0  0  0  0
   56.6235   29.8423   54.3269 C   0  0  0  0  0  0  0  0  0  0  0  0
   57.2478   31.0966   54.3899 C   0  0  0  0  0  0  0  0  0  0  0  0
   58.5766   31.2431   53.9802 C   0  0  0  0  0  0  0  0  0  0  0  0
   61.6248   31.2905   48.1606 C   0  0  0  0  0  0  0  0  0  0  0  0
   62.6484   31.6748   47.5360 O   0  0  0  0  0  0  0  0  0  0  0  0
   61.7729   30.3956   49.2752 N   0  0  0  0  0  0  0  0  0  0  0  0
   60.9180   29.2082   49.4236 C   0  0  0  0  0  0  0  0  0  0  0  0
   60.2616   29.2193   50.8087 C   0  0  0  0  0  0  0  0  0  0  0  0
   61.1970   29.6942   51.8498 N   0  0  0  0  0  0  0  0  0  0  0  0
   60.6941   30.3092   53.0576 C   0  0  0  0  0  0  0  0  0  0  0  0
   61.4521   31.0424   53.7550 O   0  0  0  0  0  0  0  0  0  0  0  0
   62.6285   29.7751   51.5137 C   0  0  0  0  0  0  0  0  0  0  0  0
   62.8132   30.6659   50.2788 C   0  0  0  0  0  0  0  0  0  0  0  0
   60.2622   31.7902   47.7389 C   0  0  0  0  0  0  0  0  0  0  0  0
   58.4798   32.7413   49.0070 O   0  0  0  0  0  0  0  0  0  0  0  0
   59.7798   33.0344   48.5418 C   0  0  0  0  0  0  0  0  0  0  0  0
   57.8951   32.5771   48.2507 H   0  0  0  0  0  0  0  0  0  0  0  0
   59.6819   34.3081   47.6352 C   0  0  0  0  0  0  0  0  0  0  0  0
   59.8082   34.0801   46.1265 C   0  0  0  0  0  0  0  0  0  0  0  0
   60.6805   33.2906   49.8020 C   0  0  0  0  0  0  0  0  0  0  0  0
   61.9045   34.1973   49.6045 C   0  0  0  0  0  0  0  0  0  0  0  0
   55.2521   29.6924   54.7385 N   0  0  0  0  0  0  0  0  0  0  0  0
   54.8338   29.2127   55.9318 C   0  0  0  0  0  0  0  0  0  0  0  0
   55.7332   28.7940   57.0546 C   0  0  0  0  0  0  0  0  0  0  0  0
   53.4547   29.1790   55.9787 C   0  0  0  0  0  0  0  0  0  0  0  0
   53.0000   29.7030   54.7792 C   0  0  0  0  0  0  0  0  0  0  0  0
   51.6912   29.8869   54.5141 C   0  0  0  0  0  0  0  0  0  0  0  0
   54.1412   29.9733   54.0078 C   0  0  0  0  0  0  0  0  0  0  0  0
   54.1794   30.3037   52.7068 C   0  0  0  0  0  0  0  0  0  0  0  0
   51.0803   31.1448   54.0620 C   0  0  0  0  0  0  0  0  0  0  0  0
   50.6905   32.1242   54.8950 N   0  0  0  0  0  0  0  0  0  0  0  0
   50.3218   33.1170   54.0557 C   0  0  0  0  0  0  0  0  0  0  0  0
   49.8744   34.2192   54.4672 O   0  0  0  0  0  0  0  0  0  0  0  0
   50.4804   32.8415   52.7427 N   0  0  0  0  0  0  0  0  0  0  0  0
   50.9755   31.5942   52.7633 C   0  0  0  0  0  0  0  0  0  0  0  0
   51.3537   30.8936   51.6234 O   0  0  0  0  0  0  0  0  0  0  0  0
 18 19  1  0
 19 17  1  0
 17  7  1  0
  7  8  2  0
  7  9  1  0
  9 10  1  0
 10 11  1  0
 11 12  1  0
 12 13  1  0
 13 14  2  0
 13  1  1  0
  1  2  2  0
  2  3  1  0
  3  4  2  0
  4 25  1  0
 25 26  1  0
 26 27  1  0
 26 28  2  0
 28 29  1  0
 29 30  2  0
 30 33  1  0
 33 34  1  0
 34 35  1  0
 35 36  2  0
 35 37  1  0
 37 38  1  0
 38 39  1  0
 29 31  1  0
 31 32  2  0
  4  5  1  0
  5  6  2  0
 12 15  1  0
 15 16  1  0
 19 21  1  0
 21 22  1  0
 19 23  1  0
 23 24  1  0
 16  9  1  0
  6  1  1  0
 31 25  1  0
 38 33  2  0
 18 20  1  0
M  CHG 1  34  -1
M  CHG 1  37  -1
M  CHG 1  39  -1
M  END
> <UniqueID>
34

> <SMILES>
C=c1/c(=C\c2[n-]c(=O)[n-]c2[O-])cc(C)n1-c1ccc(C(=O)N2CCN(C(=O)CC(O)(CC)CC)CC2)cc1

> <Energy>
157.68067751510515

> <Genealogy>
C=c1c(=Cc2[n-]c(=O)[n-]c2[O-])cc(C)n1-c1ccc(C(=O)N2CCN(C(=O)CC(O)(CC)CC)CC2)cc1 (protonated)
C=c1/c(=C\c2[n-]c(=O)[n-]c2[O-])cc(C)n1-c1ccc(C(=O)N2CCN(C(=O)CC(O)(CC)CC)CC2)cc1 (cis-trans isomerization)
C=c1/c(=C\c2[n-]c(=O)[n-]c2[O-])cc(C)n1-c1ccc(C(=O)N2CCN(C(=O)CC(O)(CC)CC)CC2)cc1 (3D coordinates assigned)
C=c1/c(=C\c2[n-]c(=O)[n-]c2[O-])cc(C)n1-c1ccc(C(=O)N2CCN(C(=O)CC(O)(CC)CC)CC2)cc1 (nonaromatic ring conformer: 157.68067751510515 kcal/mol)

> <smiles>
C=c1c(=Cc2[nH]c(=O)[nH]c2O)cc(C)n1-c1ccc(C(=O)N2CCN(C(=O)CC(O)(CC)CC)CC2)cc1

> <score_type>
oracle

> <origin>
adg

> <m_score__min__energy>
-17.41

> <m_primary>
energy

> <minimizedAffinity>
-6.96787

> <minimizedRMSD>
1.32989

> <CNNscore>
0.0818480849

> <CNNaffinity>
5.7102274895

> <CNN_VS>
0.4673711956

> <CNNaffinity_variance>
0.2902794182

$$$$
47:0


 31 33  0  0  0  0  0  0  0  0999 V2000
   58.5051   30.8909   45.5742 C   0  0  0  0  0  0  0  0  0  0  0  0
   58.2038   31.8073   44.5559 C   0  0  0  0  0  0  0  0  0  0  0  0
   58.0369   31.3808   43.2781 F   0  0  0  0  0  0  0  0  0  0  0  0
   58.0748   33.1664   44.8515 C   0  0  0  0  0  0  0  0  0  0  0  0
   58.2593   33.6198   46.1584 C   0  0  0  0  0  0  0  0  0  0  0  0
   58.5824   32.7201   47.1833 C   0  0  0  0  0  0  0  0  0  0  0  0
   58.6810   31.3463   46.8911 C   0  0  0  0  0  0  0  0  0  0  0  0
   58.8881   30.4455   47.8855 F   0  0  0  0  0  0  0  0  0  0  0  0
   56.3543   29.0020   44.8200 C   0  0  0  0  0  0  0  0  0  0  0  0
   57.6484   28.6500   44.8622 C   0  0  0  0  0  0  0  0  0  0  0  0
   58.1833   27.3635   44.6835 C   0  0  0  0  0  0  0  0  0  0  0  0
   57.6233   26.2293   44.2229 C   0  0  0  0  0  0  0  0  0  0  0  0
   59.5115   27.4388   45.0741 C   0  0  0  0  0  0  0  0  0  0  0  0
   59.7594   28.7570   45.3967 C   0  0  0  0  0  0  0  0  0  0  0  0
   61.0810   29.2842   45.8683 C   0  0  0  0  0  0  0  0  0  0  0  0
   58.6332   29.4918   45.2695 N   0  0  0  0  0  0  0  0  0  0  0  0
   57.2534   25.0625   45.0404 C   0  0  0  0  0  0  0  0  0  0  0  0
   57.9911   23.9436   45.1580 N   0  0  0  0  0  0  0  0  0  0  0  0
   57.3358   23.2343   46.1024 C   0  0  0  0  0  0  0  0  0  0  0  0
   57.7173   22.0988   46.4848 O   0  0  0  0  0  0  0  0  0  0  0  0
   56.2432   23.8451   46.6130 N   0  0  0  0  0  0  0  0  0  0  0  0
   56.2166   25.0066   45.9387 C   0  0  0  0  0  0  0  0  0  0  0  0
   55.2651   25.9978   46.1473 O   0  0  0  0  0  0  0  0  0  0  0  0
   58.7727   33.2138   48.5161 N   0  0  0  0  0  0  0  0  0  0  0  0
   58.0249   33.6720   48.9633 H   0  0  0  0  0  0  0  0  0  0  0  0
   60.2729   33.0333   49.3700 S   0  0  0  0  0  0  0  0  0  0  0  0
   60.0910   32.1216   50.5522 O   0  0  0  0  0  0  0  0  0  0  0  0
   60.7340   34.3785   49.8525 O   0  0  0  0  0  0  0  0  0  0  0  0
   61.5151   32.3331   48.2871 C   0  0  0  0  0  0  0  0  0  0  0  0
   61.9468   33.2924   47.1682 C   0  0  0  0  0  0  0  0  0  0  0  0
   63.4611   33.4831   47.0937 C   0  0  0  0  0  0  0  0  0  0  0  0
  9 10  2  0
 10 11  1  0
 11 12  2  0
 12 17  1  0
 17 18  1  0
 18 19  1  0
 19 20  2  0
 19 21  1  0
 21 22  1  0
 22 23  1  0
 11 13  1  0
 13 14  2  0
 14 15  1  0
 14 16  1  0
 16  1  1  0
  1  2  2  0
  2  3  1  0
  2  4  1  0
  4  5  2  0
  5  6  1  0
  6 24  1  0
 24 26  1  0
 26 27  2  0
 26 28  2  0
 26 29  1  0
 29 30  1  0
 30 31  1  0
  6  7  2  0
  7  8  1  0
 16 10  1  0
  7  1  1  0
 22 17  2  0
 24 25  1  0
M  CHG 1  18  -1
M  CHG 1  21  -1
M  CHG 1  23  -1
M  END
> <UniqueID>
45

> <SMILES>
C=c1/c(=C\c2[n-]c(=O)[n-]c2[O-])cc(C)n1-c1c(F)ccc(NS(=O)(=O)CCC)c1F

> <Energy>
121.08019634950088

> <Genealogy>
C=c1c(=Cc2[n-]c(=O)[n-]c2[O-])cc(C)n1-c1c(F)ccc(NS(=O)(=O)CCC)c1F (protonated)
C=c1/c(=C\c2[n-]c(=O)[n-]c2[O-])cc(C)n1-c1c(F)ccc(NS(=O)(=O)CCC)c1F (cis-trans isomerization)
C=c1/c(=C\c2[n-]c(=O)[n-]c2[O-])cc(C)n1-c1c(F)ccc(NS(=O)(=O)CCC)c1F (3D coordinates assigned)
C=c1/c(=C\c2[n-]c(=O)[n-]c2[O-])cc(C)n1-c1c(F)ccc(NS(=O)(=O)CCC)c1F (optimized conformer: 121.08019634950088 kcal/mol)

> <smiles>
C=c1c(=Cc2[nH]c(=O)[nH]c2O)cc(C)n1-c1c(F)ccc(NS(=O)(=O)CCC)c1F

> <score_type>
oracle

> <origin>
adg

> <m_score__min__energy>
-15.789999999999999

> <m_primary>
energy

> <minimizedAffinity>
-7.53602

> <minimizedRMSD>
0.90184

> <CNNscore>
0.6793332696

> <CNNaffinity>
7.6984744072

> <CNN_VS>
5.2298297882

> <CNNaffinity_variance>
0.0949974284

$$$$
70:0


 34 37  0  0  0  0  0  0  0  0999 V2000
   59.7846   29.7191   52.4086 C   0  0  0  0  0  0  0  0  0  0  0  0
   60.4931   29.1724   53.4883 C   0  0  0  0  0  0  0  0  0  0  0  0
   61.7506   28.6012   53.2922 C   0  0  0  0  0  0  0  0  0  0  0  0
   62.3115   28.5688   52.0144 C   0  0  0  0  0  0  0  0  0  0  0  0
   61.6128   29.1035   50.9279 C   0  0  0  0  0  0  0  0  0  0  0  0
   60.3445   29.6809   51.1108 C   0  0  0  0  0  0  0  0  0  0  0  0
   57.2458   28.4125   53.1737 C   0  0  0  0  0  0  0  0  0  0  0  0
   57.3698   29.7444   53.0622 C   0  0  0  0  0  0  0  0  0  0  0  0
   56.3506   30.7052   53.1631 C   0  0  0  0  0  0  0  0  0  0  0  0
   55.0766   30.6016   53.5902 C   0  0  0  0  0  0  0  0  0  0  0  0
   56.9015   31.9018   52.7306 C   0  0  0  0  0  0  0  0  0  0  0  0
   58.2320   31.6545   52.4618 C   0  0  0  0  0  0  0  0  0  0  0  0
   59.2059   32.6810   51.9658 C   0  0  0  0  0  0  0  0  0  0  0  0
   58.5142   30.3483   52.6538 N   0  0  0  0  0  0  0  0  0  0  0  0
   53.8917   30.4698   52.7276 C   0  0  0  0  0  0  0  0  0  0  0  0
   53.9296   30.2374   51.4027 N   0  0  0  0  0  0  0  0  0  0  0  0
   52.6296   30.0556   51.0814 C   0  0  0  0  0  0  0  0  0  0  0  0
   52.2487   29.8246   49.9046 O   0  0  0  0  0  0  0  0  0  0  0  0
   51.7730   30.1276   52.1228 N   0  0  0  0  0  0  0  0  0  0  0  0
   52.5908   30.3772   53.1578 C   0  0  0  0  0  0  0  0  0  0  0  0
   52.1571   30.5087   54.4715 O   0  0  0  0  0  0  0  0  0  0  0  0
   59.6001   30.2010   49.9433 C   0  0  0  0  0  0  0  0  0  0  0  0
   58.4107   29.8257   49.7546 O   0  0  0  0  0  0  0  0  0  0  0  0
   60.2261   31.1092   49.0195 N   0  0  0  0  0  0  0  0  0  0  0  0
   61.2011   31.2320   49.0796 H   0  0  0  0  0  0  0  0  0  0  0  0
   59.5120   31.8478   48.0139 C   0  0  0  0  0  0  0  0  0  0  0  0
   59.4381   33.2499   48.0482 C   0  0  0  0  0  0  0  0  0  0  0  0
   58.7617   33.9440   47.0448 C   0  0  0  0  0  0  0  0  0  0  0  0
   58.1660   33.2510   45.9887 C   0  0  0  0  0  0  0  0  0  0  0  0
   58.2459   31.8479   45.9186 C   0  0  0  0  0  0  0  0  0  0  0  0
   58.9316   31.1575   46.9381 C   0  0  0  0  0  0  0  0  0  0  0  0
   57.6142   31.1235   44.7818 C   0  0  0  0  0  0  0  0  0  0  0  0
   56.8978   30.1086   45.0068 O   0  0  0  0  0  0  0  0  0  0  0  0
   57.8005   31.5620   43.3611 C   0  0  0  0  0  0  0  0  0  0  0  0
  7  8  2  0
  8  9  1  0
  9 10  2  0
 10 15  1  0
 15 16  1  0
 16 17  1  0
 17 18  2  0
 17 19  1  0
 19 20  1  0
 20 21  1  0
  9 11  1  0
 11 12  2  0
 12 13  1  0
 12 14  1  0
 14  1  1  0
  1  2  2  0
  2  3  1  0
  3  4  2  0
  4  5  1  0
  5  6  2  0
  6 22  1  0
 22 23  2  0
 22 24  1  0
 24 26  1  0
 26 27  2  0
 27 28  1  0
 28 29  2  0
 29 30  1  0
 30 32  1  0
 32 33  2  0
 32 34  1  0
 30 31  2  0
 14  8  1  0
  6  1  1  0
 31 26  1  0
 20 15  2  0
 24 25  1  0
M  CHG 1  16  -1
M  CHG 1  19  -1
M  CHG 1  21  -1
M  END
> <UniqueID>
67

> <SMILES>
C=c1/c(=C\c2[n-]c(=O)[n-]c2[O-])cc(C)n1-c1ccccc1C(=O)Nc1cccc(C(C)=O)c1

> <Energy>
138.4163779610064

> <Genealogy>
C=c1c(=Cc2[n-]c(=O)[n-]c2[O-])cc(C)n1-c1ccccc1C(=O)Nc1cccc(C(C)=O)c1 (protonated)
C=c1/c(=C\c2[n-]c(=O)[n-]c2[O-])cc(C)n1-c1ccccc1C(=O)Nc1cccc(C(C)=O)c1 (cis-trans isomerization)
C=c1/c(=C\c2[n-]c(=O)[n-]c2[O-])cc(C)n1-c1ccccc1C(=O)Nc1cccc(C(C)=O)c1 (3D coordinates assigned)
C=c1/c(=C\c2[n-]c(=O)[n-]c2[O-])cc(C)n1-c1ccccc1C(=O)Nc1cccc(C(C)=O)c1 (optimized conformer: 138.4163779610064 kcal/mol)

> <smiles>
C=c1c(=Cc2[nH]c(=O)[nH]c2O)cc(C)n1-c1ccccc1C(=O)Nc1cccc(C(C)=O)c1

> <score_type>
oracle

> <origin>
adg

> <m_score__min__energy>
-17.68

> <m_primary>
energy

> <minimizedAffinity>
-7.26451

> <minimizedRMSD>
2.29014

> <CNNscore>
0.1621418893

> <CNNaffinity>
6.1494121552

> <CNN_VS>
0.9970772862

> <CNNaffinity_variance>
0.2536085546

$$$$
72:0


 23 25  0  0  0  0  0  0  0  0999 V2000
   58.8144   29.0676   47.3675 C   0  0  0  0  0  0  0  0  0  0  0  0
   58.3994   28.8162   46.1187 C   0  0  0  0  0  0  0  0  0  0  0  0
   58.5251   27.6139   45.4145 C   0  0  0  0  0  0  0  0  0  0  0  0
   59.0535   26.4586   45.8636 C   0  0  0  0  0  0  0  0  0  0  0  0
   57.9317   27.8248   44.1743 C   0  0  0  0  0  0  0  0  0  0  0  0
   57.4756   29.1291   44.1676 C   0  0  0  0  0  0  0  0  0  0  0  0
   56.6822   29.7444   43.0540 C   0  0  0  0  0  0  0  0  0  0  0  0
   57.7914   29.7330   45.3347 N   0  0  0  0  0  0  0  0  0  0  0  0
   58.3063   25.1927   45.9577 C   0  0  0  0  0  0  0  0  0  0  0  0
   58.8597   23.9904   45.7154 N   0  0  0  0  0  0  0  0  0  0  0  0
   57.8203   23.1365   45.8292 C   0  0  0  0  0  0  0  0  0  0  0  0
   57.9454   21.8939   45.6819 O   0  0  0  0  0  0  0  0  0  0  0  0
   56.6346   23.7213   46.1043 N   0  0  0  0  0  0  0  0  0  0  0  0
   56.9551   25.0226   46.1694 C   0  0  0  0  0  0  0  0  0  0  0  0
   56.0232   26.0348   46.3701 O   0  0  0  0  0  0  0  0  0  0  0  0
   57.4305   31.0314   45.7384 N   0  0  0  0  0  0  0  0  0  0  0  0
   58.1498   32.2051   45.3435 C   0  0  0  0  0  0  0  0  0  0  0  0
   58.1462   32.5758   44.1402 O   0  0  0  0  0  0  0  0  0  0  0  0
   58.9287   32.9552   46.3357 C   0  0  0  0  0  0  0  0  0  0  0  0
   58.9042   32.6912   47.9971 S   0  0  0  0  0  0  0  0  0  0  0  0
   60.0100   33.8949   48.3912 C   0  0  0  0  0  0  0  0  0  0  0  0
   60.4132   34.5191   47.2185 C   0  0  0  0  0  0  0  0  0  0  0  0
   59.8107   33.9957   46.0673 C   0  0  0  0  0  0  0  0  0  0  0  0
  1  2  2  0
  2  3  1  0
  3  4  2  0
  4  9  1  0
  9 10  1  0
 10 11  1  0
 11 12  2  0
 11 13  1  0
 13 14  1  0
 14 15  1  0
  3  5  1  0
  5  6  2  0
  6  7  1  0
  6  8  1  0
  8 16  1  0
 16 17  1  0
 17 18  2  0
 17 19  1  0
 19 20  1  0
 20 21  1  0
 21 22  2  0
 22 23  1  0
  8  2  1  0
 23 19  2  0
 14  9  2  0
M  CHG 1  10  -1
M  CHG 1  13  -1
M  CHG 1  15  -1
M  CHG 1  16  -1
M  END
> <UniqueID>
69

> <SMILES>
C=c1/c(=C/c2[n-]c(=O)[n-]c2[O-])cc(C)n1[N-]C(=O)c1cccs1

> <Energy>
130.31582935067874

> <Genealogy>
C=c1c(=Cc2[n-]c(=O)[n-]c2[O-])cc(C)n1[N-]C(=O)c1cccs1 (protonated)
C=c1/c(=C/c2[n-]c(=O)[n-]c2[O-])cc(C)n1[N-]C(=O)c1cccs1 (cis-trans isomerization)
C=c1/c(=C/c2[n-]c(=O)[n-]c2[O-])cc(C)n1[N-]C(=O)c1cccs1 (3D coordinates assigned)
C=c1/c(=C/c2[n-]c(=O)[n-]c2[O-])cc(C)n1[N-]C(=O)c1cccs1 (optimized conformer: 130.31582935067874 kcal/mol)

> <smiles>
C=c1c(=Cc2[nH]c(=O)[nH]c2O)cc(C)n1NC(=O)c1cccs1

> <score_type>
oracle

> <origin>
adg

> <m_score__min__energy>
-16.399999999999999

> <m_primary>
energy

> <minimizedAffinity>
-7.48212

> <minimizedRMSD>
1.32729

> <CNNscore>
0.3180819750

> <CNNaffinity>
6.4686150551

> <CNN_VS>
2.0575499535

> <CNNaffinity_variance>
0.1340972632

$$$$
73:0


 33 36  0  0  0  0  0  0  0  0999 V2000
   59.5215   32.2093   48.8684 C   0  0  0  0  0  0  0  0  0  0  0  0
   58.8269   32.0249   50.0716 C   0  0  0  0  0  0  0  0  0  0  0  0
   59.0912   32.8563   51.1642 C   0  0  0  0  0  0  0  0  0  0  0  0
   60.0512   33.8706   51.0595 C   0  0  0  0  0  0  0  0  0  0  0  0
   60.7430   34.0594   49.8589 C   0  0  0  0  0  0  0  0  0  0  0  0
   60.4749   33.2363   48.7522 C   0  0  0  0  0  0  0  0  0  0  0  0
   60.1642   29.3313   48.5309 C   0  0  0  0  0  0  0  0  0  0  0  0
   59.6283   30.0823   47.5570 C   0  0  0  0  0  0  0  0  0  0  0  0
   59.2557   29.6633   46.2685 C   0  0  0  0  0  0  0  0  0  0  0  0
   59.5368   28.5382   45.5806 C   0  0  0  0  0  0  0  0  0  0  0  0
   58.5418   30.7138   45.7140 C   0  0  0  0  0  0  0  0  0  0  0  0
   58.5695   31.7458   46.6288 C   0  0  0  0  0  0  0  0  0  0  0  0
   58.0490   33.1289   46.3706 C   0  0  0  0  0  0  0  0  0  0  0  0
   59.2350   31.3683   47.7392 N   0  0  0  0  0  0  0  0  0  0  0  0
   58.8775   27.2285   45.7503 C   0  0  0  0  0  0  0  0  0  0  0  0
   59.5244   26.0580   45.9181 N   0  0  0  0  0  0  0  0  0  0  0  0
   58.5350   25.1417   45.8398 C   0  0  0  0  0  0  0  0  0  0  0  0
   58.7422   23.9077   45.9742 O   0  0  0  0  0  0  0  0  0  0  0  0
   57.3087   25.6509   45.5986 N   0  0  0  0  0  0  0  0  0  0  0  0
   57.5473   26.9699   45.5315 C   0  0  0  0  0  0  0  0  0  0  0  0
   56.5698   27.9203   45.2639 O   0  0  0  0  0  0  0  0  0  0  0  0
   61.1892   33.3677   47.5152 N   0  0  0  0  0  0  0  0  0  0  0  0
   62.5596   33.0498   47.2546 C   0  0  0  0  0  0  0  0  0  0  0  0
   63.2693   33.7862   46.5162 O   0  0  0  0  0  0  0  0  0  0  0  0
   63.1257   31.7751   47.7999 C   0  0  0  0  0  0  0  0  0  0  0  0
   63.4960   31.9616   49.2484 C   0  0  0  0  0  0  0  0  0  0  0  0
   64.3650   32.9980   49.6303 C   0  0  0  0  0  0  0  0  0  0  0  0
   64.6393   33.2267   50.9825 C   0  0  0  0  0  0  0  0  0  0  0  0
   64.0459   32.4344   51.9751 C   0  0  0  0  0  0  0  0  0  0  0  0
   63.1799   31.3931   51.5916 C   0  0  0  0  0  0  0  0  0  0  0  0
   62.9015   31.1654   50.2390 C   0  0  0  0  0  0  0  0  0  0  0  0
   64.3342   32.7164   53.3201 O   0  0  0  0  0  0  0  0  0  0  0  0
   63.5962   33.6397   54.1196 C   0  0  0  0  0  0  0  0  0  0  0  0
  7  8  2  0
  8  9  1  0
  9 10  2  0
 10 15  1  0
 15 16  1  0
 16 17  1  0
 17 18  2  0
 17 19  1  0
 19 20  1  0
 20 21  1  0
  9 11  1  0
 11 12  2  0
 12 13  1  0
 12 14  1  0
 14  1  1  0
  1  2  2  0
  2  3  1  0
  3  4  2  0
  4  5  1  0
  5  6  2  0
  6 22  1  0
 22 23  1  0
 23 24  2  0
 23 25  1  0
 25 26  1  0
 26 27  2  0
 27 28  1  0
 28 29  2  0
 29 32  1  0
 32 33  1  0
 29 30  1  0
 30 31  2  0
 14  8  1  0
  6  1  1  0
 31 26  1  0
 20 15  2  0
M  CHG 1  16  -1
M  CHG 1  19  -1
M  CHG 1  21  -1
M  CHG 1  22  -1
M  END
> <UniqueID>
70

> <SMILES>
C=c1c(=Cc2[n-]c(=O)[n-]c2[O-])cc(C)n1-c1ccccc1[N-]C(=O)Cc1ccc(OC)cc1

> <Energy>
129.09665902735

> <Genealogy>
C=c1c(=Cc2[n-]c(=O)[n-]c2[O-])cc(C)n1-c1ccccc1[N-]C(=O)Cc1ccc(OC)cc1 (protonated)
C=c1c(=Cc2[n-]c(=O)[n-]c2[O-])cc(C)n1-c1ccccc1[N-]C(=O)Cc1ccc(OC)cc1 (3D coordinates assigned)
C=c1c(=Cc2[n-]c(=O)[n-]c2[O-])cc(C)n1-c1ccccc1[N-]C(=O)Cc1ccc(OC)cc1 (optimized conformer: 129.09665902735 kcal/mol)

> <smiles>
C=c1c(=Cc2[nH]c(=O)[nH]c2O)cc(C)n1-c1ccccc1NC(=O)Cc1ccc(OC)cc1

> <score_type>
oracle

> <origin>
adg

> <m_score__min__energy>
-17.870000000000001

> <m_primary>
energy

> <minimizedAffinity>
-7.45694

> <minimizedRMSD>
1.10988

> <CNNscore>
0.1486272216

> <CNNaffinity>
6.5940933228

> <CNN_VS>
0.9800617695

> <CNNaffinity_variance>
0.0388734788

$$$$
76:0


 31 34  0  0  0  0  0  0  0  0999 V2000
   60.3961   29.6461   46.3492 C   0  0  0  0  0  0  0  0  0  0  0  0
   60.4165   26.6382   46.3335 C   0  0  0  0  0  0  0  0  0  0  0  0
   59.4181   27.3671   45.8095 C   0  0  0  0  0  0  0  0  0  0  0  0
   58.2574   26.8680   45.2098 C   0  0  0  0  0  0  0  0  0  0  0  0
   57.9005   25.5758   45.0681 C   0  0  0  0  0  0  0  0  0  0  0  0
   57.5030   27.9724   44.8407 C   0  0  0  0  0  0  0  0  0  0  0  0
   58.2232   29.0881   45.2174 C   0  0  0  0  0  0  0  0  0  0  0  0
   57.7645   30.5015   45.0159 C   0  0  0  0  0  0  0  0  0  0  0  0
   59.3963   28.7263   45.7893 N   0  0  0  0  0  0  0  0  0  0  0  0
   57.1902   24.7992   46.1006 C   0  0  0  0  0  0  0  0  0  0  0  0
   57.7346   23.7479   46.7370 N   0  0  0  0  0  0  0  0  0  0  0  0
   56.7286   23.2953   47.5156 C   0  0  0  0  0  0  0  0  0  0  0  0
   56.8592   22.3092   48.2860 O   0  0  0  0  0  0  0  0  0  0  0  0
   55.5690   23.9764   47.3951 N   0  0  0  0  0  0  0  0  0  0  0  0
   55.8730   24.9167   46.4868 C   0  0  0  0  0  0  0  0  0  0  0  0
   54.9515   25.8312   45.9891 O   0  0  0  0  0  0  0  0  0  0  0  0
   60.0861   29.9351   47.8196 C   0  0  0  0  0  0  0  0  0  0  0  0
   61.1735   30.7734   48.4348 C   0  0  0  0  0  0  0  0  0  0  0  0
   61.3312   30.8160   49.8284 C   0  0  0  0  0  0  0  0  0  0  0  0
   62.3613   31.5684   50.3996 C   0  0  0  0  0  0  0  0  0  0  0  0
   63.2546   32.2827   49.5843 C   0  0  0  0  0  0  0  0  0  0  0  0
   63.1069   32.2232   48.1889 C   0  0  0  0  0  0  0  0  0  0  0  0
   62.0768   31.4711   47.6191 C   0  0  0  0  0  0  0  0  0  0  0  0
   64.3631   33.1019   50.2073 C   0  0  0  0  0  0  0  0  0  0  0  0
   65.6274   32.3336   50.3236 N   0  0  0  0  0  0  0  0  0  0  0  0
   66.7403   33.2480   50.6757 C   0  0  0  0  0  0  0  0  0  0  0  0
   67.9096   32.4743   51.3079 C   0  0  0  0  0  0  0  0  0  0  0  0
   67.5693   31.7894   52.5072 O   0  0  0  0  0  0  0  0  0  0  0  0
   66.1834   31.5039   52.6291 C   0  0  0  0  0  0  0  0  0  0  0  0
   65.5068   31.1994   51.2808 C   0  0  0  0  0  0  0  0  0  0  0  0
   65.8335   31.9126   49.4177 H   0  0  0  0  0  0  0  0  0  0  0  0
  2  3  2  0
  3  4  1  0
  4  5  2  0
  5 10  1  0
 10 11  1  0
 11 12  1  0
 12 13  2  0
 12 14  1  0
 14 15  1  0
 15 16  1  0
  4  6  1  0
  6  7  2  0
  7  8  1  0
  7  9  1  0
  9  1  1  0
  1 17  1  0
 17 18  1  0
 18 19  2  0
 19 20  1  0
 20 21  2  0
 21 24  1  0
 24 25  1  0
 25 26  1  0
 26 27  1  0
 27 28  1  0
 28 29  1  0
 29 30  1  0
 21 22  1  0
 22 23  2  0
  9  3  1  0
 23 18  1  0
 15 10  2  0
 30 25  1  0
 25 31  1  0
M  CHG 1  11  -1
M  CHG 1  14  -1
M  CHG 1  16  -1
M  CHG 1  25   1
M  END
> <UniqueID>
73

> <SMILES>
C=c1/c(=C/c2[n-]c(=O)[n-]c2[O-])cc(C)n1CCc1ccc(C[NH+]2CCOCC2)cc1

> <Energy>
135.23394936194893

> <Genealogy>
C=c1c(=Cc2[n-]c(=O)[n-]c2[O-])cc(C)n1CCc1ccc(C[NH+]2CCOCC2)cc1 (protonated)
C=c1/c(=C/c2[n-]c(=O)[n-]c2[O-])cc(C)n1CCc1ccc(C[NH+]2CCOCC2)cc1 (cis-trans isomerization)
C=c1/c(=C/c2[n-]c(=O)[n-]c2[O-])cc(C)n1CCc1ccc(C[NH+]2CCOCC2)cc1 (3D coordinates assigned)
C=c1/c(=C/c2[n-]c(=O)[n-]c2[O-])cc(C)n1CCc1ccc(C[NH+]2CCOCC2)cc1 (nonaromatic ring conformer: 135.23394936194893 kcal/mol)

> <smiles>
C=c1c(=Cc2[nH]c(=O)[nH]c2O)cc(C)n1CCc1ccc(CN2CCOCC2)cc1

> <score_type>
oracle

> <origin>
adg

> <m_score__min__energy>
-15.699999999999999

> <m_primary>
energy

> <minimizedAffinity>
-8.09872

> <minimizedRMSD>
1.26633

> <CNNscore>
0.1401179135

> <CNNaffinity>
6.0216813087

> <CNN_VS>
0.8437454104

> <CNNaffinity_variance>
0.1356985569

$$$$
77:0


 32 34  0  0  0  0  0  0  0  0999 V2000
   57.5694   27.0773   45.0254 C   0  0  0  0  0  0  0  0  0  0  0  0
   57.8622   28.2991   45.5177 C   0  0  0  0  0  0  0  0  0  0  0  0
   57.4320   29.5002   44.9641 C   0  0  0  0  0  0  0  0  0  0  0  0
   56.5914   29.6766   43.7385 C   0  0  0  0  0  0  0  0  0  0  0  0
   57.8459   30.5311   45.7230 N   0  0  0  0  0  0  0  0  0  0  0  0
   58.5406   30.0426   46.7378 N   0  0  0  0  0  0  0  0  0  0  0  0
   58.6071   28.6907   46.6402 C   0  0  0  0  0  0  0  0  0  0  0  0
   59.3594   27.9177   47.4396 C   0  0  0  0  0  0  0  0  0  0  0  0
   54.9457   26.3839   45.9888 O   0  0  0  0  0  0  0  0  0  0  0  0
   56.0199   25.5427   46.2707 C   0  0  0  0  0  0  0  0  0  0  0  0
   55.8117   24.3979   46.9745 N   0  0  0  0  0  0  0  0  0  0  0  0
   56.8316   23.5462   47.2461 C   0  0  0  0  0  0  0  0  0  0  0  0
   56.6142   22.4946   47.9011 O   0  0  0  0  0  0  0  0  0  0  0  0
   58.0864   23.8251   46.8054 N   0  0  0  0  0  0  0  0  0  0  0  0
   58.3483   24.9557   46.1016 C   0  0  0  0  0  0  0  0  0  0  0  0
   59.5224   25.1791   45.7028 O   0  0  0  0  0  0  0  0  0  0  0  0
   57.3153   25.8667   45.8311 C   0  0  0  0  0  0  0  0  0  0  0  0
   54.0854   26.1606   46.2855 H   0  0  0  0  0  0  0  0  0  0  0  0
   59.1953   30.9111   47.7193 C   0  0  0  0  0  0  0  0  0  0  0  0
   60.3952   31.6180   47.0868 C   0  0  0  0  0  0  0  0  0  0  0  0
   60.1120   33.0839   46.9000 C   0  0  0  0  0  0  0  0  0  0  0  0
   59.4405   33.4516   45.9016 O   0  0  0  0  0  0  0  0  0  0  0  0
   60.5480   34.0706   47.8420 N   0  0  0  0  0  0  0  0  0  0  0  0
   60.2268   34.0606   49.2648 C   0  0  0  0  0  0  0  0  0  0  0  0
   61.4151   33.5701   50.0384 C   0  0  0  0  0  0  0  0  0  0  0  0
   61.2691   33.1384   51.3678 C   0  0  0  0  0  0  0  0  0  0  0  0
   62.3845   32.7094   52.0944 C   0  0  0  0  0  0  0  0  0  0  0  0
   62.2374   32.2863   53.3748 F   0  0  0  0  0  0  0  0  0  0  0  0
   63.6523   32.7195   51.5050 C   0  0  0  0  0  0  0  0  0  0  0  0
   63.8071   33.1631   50.1880 C   0  0  0  0  0  0  0  0  0  0  0  0
   65.0379   33.1807   49.6196 F   0  0  0  0  0  0  0  0  0  0  0  0
   62.6936   33.5899   49.4573 C   0  0  0  0  0  0  0  0  0  0  0  0
  9 10  1  0
 10 11  1  0
 11 12  1  0
 12 13  2  0
 12 14  1  0
 14 15  1  0
 15 16  2  0
 15 17  1  0
 17  1  1  0
  1  2  2  0
  2  3  1  0
  3  4  1  0
  3  5  2  0
  5  6  1  0
  6 19  1  0
 19 20  1  0
 20 21  1  0
 21 22  2  0
 21 23  1  0
 23 24  1  0
 24 25  1  0
 25 26  2  0
 26 27  1  0
 27 28  1  0
 27 29  2  0
 29 30  1  0
 30 31  1  0
 30 32  2  0
  6  7  1  0
  7  8  2  0
 17 10  2  0
  7  2  1  0
 32 25  1  0
  9 18  1  0
M  CHG 1  11  -1
M  CHG 1  14  -1
M  CHG 1  23  -1
M  END
> <UniqueID>
74

> <SMILES>
C=c1/c(=C\c2c(O)[n-]c(=O)[n-]c2=O)c(C)nn1CCC(=O)[N-]Cc1cc(F)cc(F)c1

> <Energy>
88.42971904237919

> <Genealogy>
C=c1c(=Cc2c(O)[n-]c(=O)[n-]c2=O)c(C)nn1CCC(=O)[N-]Cc1cc(F)cc(F)c1 (protonated)
C=c1/c(=C\c2c(O)[n-]c(=O)[n-]c2=O)c(C)nn1CCC(=O)[N-]Cc1cc(F)cc(F)c1 (cis-trans isomerization)
C=c1/c(=C\c2c(O)[n-]c(=O)[n-]c2=O)c(C)nn1CCC(=O)[N-]Cc1cc(F)cc(F)c1 (3D coordinates assigned)
C=c1/c(=C\c2c(O)[n-]c(=O)[n-]c2=O)c(C)nn1CCC(=O)[N-]Cc1cc(F)cc(F)c1 (optimized conformer: 88.42971904237919 kcal/mol)

> <smiles>
C=c1c(=Cc2c(O)[nH]c(=O)[nH]c2=O)c(C)nn1CCC(=O)NCc1cc(F)cc(F)c1

> <score_type>
oracle

> <origin>
adg

> <m_score__min__energy>
-14.34

> <m_primary>
energy

> <minimizedAffinity>
-8.01112

> <minimizedRMSD>
1.72693

> <CNNscore>
0.1660338193

> <CNNaffinity>
6.6081962585

> <CNN_VS>
1.0971840620

> <CNNaffinity_variance>
0.0579106808

$$$$
80:0


 31 33  0  0  0  0  0  0  0  0999 V2000
   60.1353   32.5405   50.3223 C   0  0  0  0  0  0  0  0  0  0  0  0
   61.2047   32.6893   49.2588 C   0  0  0  0  0  0  0  0  0  0  0  0
   62.3535   31.8802   49.3615 C   0  0  0  0  0  0  0  0  0  0  0  0
   63.3571   31.9367   48.3948 C   0  0  0  0  0  0  0  0  0  0  0  0
   63.2350   32.8013   47.3116 C   0  0  0  0  0  0  0  0  0  0  0  0
   62.1112   33.6204   47.1940 C   0  0  0  0  0  0  0  0  0  0  0  0
   61.0843   33.5813   48.1569 C   0  0  0  0  0  0  0  0  0  0  0  0
   59.9048   34.5178   47.9828 C   0  0  0  0  0  0  0  0  0  0  0  0
   59.0410   34.0941   46.8746 N   0  0  0  0  0  0  0  0  0  0  0  0
   59.0203   34.6262   45.6334 C   0  0  0  0  0  0  0  0  0  0  0  0
   59.8734   35.6363   45.2040 O   0  0  0  0  0  0  0  0  0  0  0  0
   58.0390   34.0501   44.8555 C   0  0  0  0  0  0  0  0  0  0  0  0
   57.4039   33.1276   45.6636 C   0  0  0  0  0  0  0  0  0  0  0  0
   58.0318   33.1900   46.8914 C   0  0  0  0  0  0  0  0  0  0  0  0
   57.6498   32.4224   47.9925 O   0  0  0  0  0  0  0  0  0  0  0  0
   56.9376   31.8181   47.9179 H   0  0  0  0  0  0  0  0  0  0  0  0
   59.7208   31.0785   50.5122 C   0  0  0  0  0  0  0  0  0  0  0  0
   59.3335   30.4890   49.2374 N   0  0  0  0  0  0  0  0  0  0  0  0
   59.8449   29.2371   48.7698 C   0  0  0  0  0  0  0  0  0  0  0  0
   60.6892   28.6088   49.4657 O   0  0  0  0  0  0  0  0  0  0  0  0
   58.1229   27.0118   43.6804 C   0  0  0  0  0  0  0  0  0  0  0  0
   58.5174   27.6162   45.0043 C   0  0  0  0  0  0  0  0  0  0  0  0
   59.3844   26.8900   45.8371 C   0  0  0  0  0  0  0  0  0  0  0  0
   59.8113   27.4122   47.0559 C   0  0  0  0  0  0  0  0  0  0  0  0
   59.3795   28.6784   47.4785 C   0  0  0  0  0  0  0  0  0  0  0  0
   58.5010   29.4056   46.6579 C   0  0  0  0  0  0  0  0  0  0  0  0
   58.0489   28.8895   45.4276 C   0  0  0  0  0  0  0  0  0  0  0  0
   57.0973   29.7061   44.6262 C   0  0  0  0  0  0  0  0  0  0  0  0
   55.6911   29.5428   44.7994 N   0  0  0  0  0  0  0  0  0  0  0  0
   57.5143   30.5289   43.7684 O   0  0  0  0  0  0  0  0  0  0  0  0
   55.3481   28.9040   45.4654 H   0  0  0  0  0  0  0  0  0  0  0  0
 21 22  1  0
 22 23  2  0
 23 24  1  0
 24 25  2  0
 25 19  1  0
 19 20  2  0
 19 18  1  0
 18 17  1  0
 17  1  1  0
  1  2  1  0
  2  3  2  0
  3  4  1  0
  4  5  2  0
  5  6  1  0
  6  7  2  0
  7  8  1  0
  8  9  1  0
  9 10  1  0
 10 11  1  0
 10 12  2  0
 12 13  1  0
 13 14  2  0
 14 15  1  0
 25 26  1  0
 26 27  2  0
 27 28  1  0
 28 29  1  0
 28 30  2  0
 27 22  1  0
  7  2  1  0
 14  9  1  0
 15 16  1  0
 29 31  1  0
M  CHG 1  11  -1
M  CHG 1  18  -1
M  CHG 1  29  -1
M  END
> <UniqueID>
77

> <SMILES>
Cc1ccc(C(=O)[N-]CCc2ccccc2Cn2c([O-])ccc2O)cc1C([NH-])=O

> <Energy>
80.62231726984395

> <Genealogy>
Cc1ccc(C(=O)[N-]CCc2ccccc2Cn2c([O-])ccc2O)cc1C([NH-])=O (protonated)
Cc1ccc(C(=O)[N-]CCc2ccccc2Cn2c([O-])ccc2O)cc1C([NH-])=O (3D coordinates assigned)
Cc1ccc(C(=O)[N-]CCc2ccccc2Cn2c([O-])ccc2O)cc1C([NH-])=O (optimized conformer: 80.62231726984395 kcal/mol)

> <smiles>
Cc1ccc(C(=O)NCCc2ccccc2Cn2c(O)ccc2O)cc1C(N)=O

> <score_type>
oracle

> <origin>
adg

> <m_score__min__energy>
-15.57

> <m_primary>
energy

> <minimizedAffinity>
-8.21479

> <minimizedRMSD>
0.47721

> <CNNscore>
0.9263513684

> <CNNaffinity>
7.0738844872

> <CNN_VS>
6.5529026985

> <CNNaffinity_variance>
0.0669007897

$$$$
90:0


 29 31  0  0  0  0  0  0  0  0999 V2000
   59.0066   27.8588   49.2348 C   0  0  0  0  0  0  0  0  0  0  0  0
   59.3411   27.7361   47.9407 C   0  0  0  0  0  0  0  0  0  0  0  0
   59.1780   26.5972   47.1442 C   0  0  0  0  0  0  0  0  0  0  0  0
   58.5993   25.4324   47.4960 C   0  0  0  0  0  0  0  0  0  0  0  0
   59.6846   26.9219   45.8920 C   0  0  0  0  0  0  0  0  0  0  0  0
   60.1305   28.2256   45.9718 C   0  0  0  0  0  0  0  0  0  0  0  0
   60.7484   28.9872   44.8375 C   0  0  0  0  0  0  0  0  0  0  0  0
   59.9346   28.7169   47.2161 N   0  0  0  0  0  0  0  0  0  0  0  0
   60.2620   30.0458   47.6565 C   0  0  0  0  0  0  0  0  0  0  0  0
   59.6935   31.1542   47.0160 C   0  0  0  0  0  0  0  0  0  0  0  0
   60.0086   32.4656   47.4194 C   0  0  0  0  0  0  0  0  0  0  0  0
   60.9116   32.6461   48.4996 C   0  0  0  0  0  0  0  0  0  0  0  0
   61.3298   34.2328   49.1417 Cl  0  0  0  0  0  0  0  0  0  0  0  0
   61.4741   31.5320   49.1330 C   0  0  0  0  0  0  0  0  0  0  0  0
   61.1556   30.2397   48.7162 C   0  0  0  0  0  0  0  0  0  0  0  0
   61.6963   29.1749   49.3603 F   0  0  0  0  0  0  0  0  0  0  0  0
   59.3856   33.6052   46.6969 C   0  0  0  0  0  0  0  0  0  0  0  0
   59.0143   34.6366   47.3198 O   0  0  0  0  0  0  0  0  0  0  0  0
   59.2285   33.5453   45.2759 N   0  0  0  0  0  0  0  0  0  0  0  0
   57.9267   33.4986   44.6258 C   0  0  0  0  0  0  0  0  0  0  0  0
   57.3955   32.1373   44.7038 C   0  0  0  0  0  0  0  0  0  0  0  0
   56.9754   31.0617   44.7646 N   0  0  0  0  0  0  0  0  0  0  0  0
   57.4339   24.8488   46.8063 C   0  0  0  0  0  0  0  0  0  0  0  0
   57.2804   23.5288   46.6067 N   0  0  0  0  0  0  0  0  0  0  0  0
   56.1460   23.4521   45.8782 C   0  0  0  0  0  0  0  0  0  0  0  0
   55.6578   22.3559   45.4978 O   0  0  0  0  0  0  0  0  0  0  0  0
   55.5815   24.6421   45.5797 N   0  0  0  0  0  0  0  0  0  0  0  0
   56.4142   25.5171   46.1632 C   0  0  0  0  0  0  0  0  0  0  0  0
   56.2691   26.8954   46.0668 O   0  0  0  0  0  0  0  0  0  0  0  0
  1  2  2  0
  2  3  1  0
  3  4  2  0
  4 23  1  0
 23 24  1  0
 24 25  1  0
 25 26  2  0
 25 27  1  0
 27 28  1  0
 28 29  1  0
  3  5  1  0
  5  6  2  0
  6  7  1  0
  6  8  1  0
  8  9  1  0
  9 10  2  0
 10 11  1  0
 11 17  1  0
 17 18  2  0
 17 19  1  0
 19 20  1  0
 20 21  1  0
 21 22  3  0
 11 12  2  0
 12 13  1  0
 12 14  1  0
 14 15  2  0
 15 16  1  0
  8  2  1  0
 15  9  1  0
 28 23  2  0
M  CHG 1  19  -1
M  CHG 1  24  -1
M  CHG 1  27  -1
M  CHG 1  29  -1
M  END
> <UniqueID>
86

> <SMILES>
C=c1c(=Cc2[n-]c(=O)[n-]c2[O-])cc(C)n1-c1cc(C(=O)[N-]CC#N)c(Cl)cc1F

> <Energy>
114.04550278631882

> <Genealogy>
C=c1c(=Cc2[n-]c(=O)[n-]c2[O-])cc(C)n1-c1cc(C(=O)[N-]CC#N)c(Cl)cc1F (protonated)
C=c1c(=Cc2[n-]c(=O)[n-]c2[O-])cc(C)n1-c1cc(C(=O)[N-]CC#N)c(Cl)cc1F (3D coordinates assigned)
C=c1c(=Cc2[n-]c(=O)[n-]c2[O-])cc(C)n1-c1cc(C(=O)[N-]CC#N)c(Cl)cc1F (optimized conformer: 114.04550278631882 kcal/mol)

> <smiles>
C=c1c(=Cc2[nH]c(=O)[nH]c2O)cc(C)n1-c1cc(C(=O)NCC#N)c(Cl)cc1F

> <score_type>
oracle

> <origin>
adg

> <m_score__min__energy>
-16.030000000000001

> <m_primary>
energy

> <minimizedAffinity>
-5.39411

> <minimizedRMSD>
1.11874

> <CNNscore>
0.1774212271

> <CNNaffinity>
6.7892785072

> <CNN_VS>
1.2045620680

> <CNNaffinity_variance>
0.0426331460

$$$$
9:0


 26 28  0  0  0  0  0  0  0  0999 V2000
   58.9827   27.1209   48.1157 C   0  0  0  0  0  0  0  0  0  0  0  0
   58.9411   28.1984   47.3041 C   0  0  0  0  0  0  0  0  0  0  0  0
   58.6111   28.1142   45.9181 C   0  0  0  0  0  0  0  0  0  0  0  0
   58.6256   26.9903   45.1652 C   0  0  0  0  0  0  0  0  0  0  0  0
   58.2697   29.2574   45.2713 N   0  0  0  0  0  0  0  0  0  0  0  0
   58.3418   30.4793   45.8456 C   0  0  0  0  0  0  0  0  0  0  0  0
   58.0064   31.4873   45.1680 O   0  0  0  0  0  0  0  0  0  0  0  0
   58.7968   30.6131   47.1296 N   0  0  0  0  0  0  0  0  0  0  0  0
   59.0919   29.4923   47.8630 C   0  0  0  0  0  0  0  0  0  0  0  0
   59.4788   29.6140   49.0611 O   0  0  0  0  0  0  0  0  0  0  0  0
   57.9900   25.7011   45.4975 C   0  0  0  0  0  0  0  0  0  0  0  0
   58.6499   24.5330   45.5582 N   0  0  0  0  0  0  0  0  0  0  0  0
   57.7350   23.6470   45.9998 C   0  0  0  0  0  0  0  0  0  0  0  0
   57.9916   22.4270   46.1716 O   0  0  0  0  0  0  0  0  0  0  0  0
   56.5240   24.1839   46.2542 N   0  0  0  0  0  0  0  0  0  0  0  0
   56.7014   25.4827   45.9451 C   0  0  0  0  0  0  0  0  0  0  0  0
   55.7176   26.4516   46.1039 O   0  0  0  0  0  0  0  0  0  0  0  0
   59.5923   24.3618   45.3308 H   0  0  0  0  0  0  0  0  0  0  0  0
   58.9078   31.9526   47.7455 C   0  0  0  0  0  0  0  0  0  0  0  0
   60.3519   32.3037   47.9952 C   0  0  0  0  0  0  0  0  0  0  0  0
   60.6912   33.3253   48.8996 C   0  0  0  0  0  0  0  0  0  0  0  0
   62.0306   33.6677   49.1084 C   0  0  0  0  0  0  0  0  0  0  0  0
   63.0419   32.9973   48.4149 C   0  0  0  0  0  0  0  0  0  0  0  0
   64.3401   33.3321   48.6184 F   0  0  0  0  0  0  0  0  0  0  0  0
   62.7138   31.9816   47.5120 C   0  0  0  0  0  0  0  0  0  0  0  0
   61.3754   31.6366   47.3014 C   0  0  0  0  0  0  0  0  0  0  0  0
  1  2  2  0
  2  3  1  0
  3  4  2  0
  4 11  1  0
 11 12  1  0
 12 13  1  0
 13 14  2  0
 13 15  1  0
 15 16  1  0
 16 17  1  0
  3  5  1  0
  5  6  1  0
  6  7  2  0
  6  8  1  0
  8 19  1  0
 19 20  1  0
 20 21  2  0
 21 22  1  0
 22 23  2  0
 23 24  1  0
 23 25  1  0
 25 26  2  0
  8  9  1  0
  9 10  2  0
  9  2  1  0
 16 11  2  0
 26 20  1  0
 12 18  1  0
M  CHG 1   5  -1
M  CHG 1  15  -1
M  CHG 1  17  -1
M  END
> <UniqueID>
9

> <SMILES>
C=c1c(=Cc2[nH]c(=O)[n-]c2[O-])[n-]c(=O)n(Cc2ccc(F)cc2)c1=O

> <Energy>
94.6756833837613

> <Genealogy>
C=c1c(=Cc2[nH]c(=O)[n-]c2[O-])[n-]c(=O)n(Cc2ccc(F)cc2)c1=O (protonated)
C=c1c(=Cc2[nH]c(=O)[n-]c2[O-])[n-]c(=O)n(Cc2ccc(F)cc2)c1=O (3D coordinates assigned)
C=c1c(=Cc2[nH]c(=O)[n-]c2[O-])[n-]c(=O)n(Cc2ccc(F)cc2)c1=O (optimized conformer: 94.6756833837613 kcal/mol)

> <smiles>
C=c1c(=Cc2[nH]c(=O)[nH]c2O)[nH]c(=O)n(Cc2ccc(F)cc2)c1=O

> <score_type>
oracle

> <origin>
adg

> <m_score__min__energy>
-15.460000000000001

> <m_primary>
energy

> <minimizedAffinity>
-7.72252

> <minimizedRMSD>
1.12938

> <CNNscore>
0.2806347907

> <CNNaffinity>
6.4960632324

> <CNN_VS>
1.8230212927

> <CNNaffinity_variance>
0.4793797433

$$$$
11:0


 29 32  0  0  0  0  0  0  0  0999 V2000
   58.9588   29.6272   46.6909 N   0  0  0  0  0  0  0  0  0  0  0  0
   58.8913   28.8559   47.7963 C   0  0  0  0  0  0  0  0  0  0  0  0
   59.1895   29.3307   49.1865 C   0  0  0  0  0  0  0  0  0  0  0  0
   58.5811   27.5543   47.4566 C   0  0  0  0  0  0  0  0  0  0  0  0
   58.4257   27.5300   46.0760 C   0  0  0  0  0  0  0  0  0  0  0  0
   58.1531   26.4493   45.3198 C   0  0  0  0  0  0  0  0  0  0  0  0
   58.6734   28.8338   45.6308 C   0  0  0  0  0  0  0  0  0  0  0  0
   58.6466   29.2645   44.3598 C   0  0  0  0  0  0  0  0  0  0  0  0
   61.5458   30.6028   47.4259 O   0  0  0  0  0  0  0  0  0  0  0  0
   60.5408   31.4993   47.0519 C   0  0  0  0  0  0  0  0  0  0  0  0
   60.8125   32.8845   47.0364 C   0  0  0  0  0  0  0  0  0  0  0  0
   59.8055   33.7783   46.6371 C   0  0  0  0  0  0  0  0  0  0  0  0
   58.5529   33.3067   46.2449 C   0  0  0  0  0  0  0  0  0  0  0  0
   58.2836   31.9388   46.2564 C   0  0  0  0  0  0  0  0  0  0  0  0
   59.2669   31.0304   46.6653 C   0  0  0  0  0  0  0  0  0  0  0  0
   62.3884   30.9235   47.6810 H   0  0  0  0  0  0  0  0  0  0  0  0
   62.1342   33.4006   47.4541 C   0  0  0  0  0  0  0  0  0  0  0  0
   62.9600   33.7821   46.5829 O   0  0  0  0  0  0  0  0  0  0  0  0
   62.4856   33.5004   48.8358 N   0  0  0  0  0  0  0  0  0  0  0  0
   61.8410   33.3729   50.1568 C   0  0  0  0  0  0  0  0  0  0  0  0
   63.0122   33.8442   50.9517 C   0  0  0  0  0  0  0  0  0  0  0  0
   63.6507   33.9646   49.6081 C   0  0  0  0  0  0  0  0  0  0  0  0
   57.5142   25.2242   45.8348 C   0  0  0  0  0  0  0  0  0  0  0  0
   58.1558   24.0460   45.9378 N   0  0  0  0  0  0  0  0  0  0  0  0
   57.1916   23.2006   46.3608 C   0  0  0  0  0  0  0  0  0  0  0  0
   57.4124   21.9823   46.5890 O   0  0  0  0  0  0  0  0  0  0  0  0
   55.9722   23.7594   46.5108 N   0  0  0  0  0  0  0  0  0  0  0  0
   56.1896   25.0375   46.1618 C   0  0  0  0  0  0  0  0  0  0  0  0
   55.1865   25.9968   46.0991 O   0  0  0  0  0  0  0  0  0  0  0  0
  9 10  1  0
 10 11  2  0
 11 17  1  0
 17 18  2  0
 17 19  1  0
 19 20  1  0
 20 21  1  0
 21 22  1  0
 11 12  1  0
 12 13  2  0
 13 14  1  0
 14 15  2  0
 15  1  1  0
  1  2  1  0
  2  3  1  0
  2  4  2  0
  4  5  1  0
  5  6  2  0
  6 23  1  0
 23 24  1  0
 24 25  1  0
 25 26  2  0
 25 27  1  0
 27 28  1  0
 28 29  1  0
  5  7  1  0
  7  8  2  0
 15 10  1  0
  7  1  1  0
 22 19  1  0
 28 23  2  0
  9 16  1  0
M  CHG 1  24  -1
M  CHG 1  27  -1
M  CHG 1  29  -1
M  END
> <UniqueID>
11

> <SMILES>
C=c1/c(=C/c2[n-]c(=O)[n-]c2[O-])cc(C)n1-c1cccc(C(=O)N2CCC2)c1O

> <Energy>
166.9505919486722

> <Genealogy>
C=c1c(=Cc2[n-]c(=O)[n-]c2[O-])cc(C)n1-c1cccc(C(=O)N2CCC2)c1O (protonated)
C=c1/c(=C/c2[n-]c(=O)[n-]c2[O-])cc(C)n1-c1cccc(C(=O)N2CCC2)c1O (cis-trans isomerization)
C=c1/c(=C/c2[n-]c(=O)[n-]c2[O-])cc(C)n1-c1cccc(C(=O)N2CCC2)c1O (3D coordinates assigned)
C=c1/c(=C/c2[n-]c(=O)[n-]c2[O-])cc(C)n1-c1cccc(C(=O)N2CCC2)c1O (nonaromatic ring conformer: 166.9505919486722 kcal/mol)

> <smiles>
C=c1c(=Cc2[nH]c(=O)[nH]c2O)cc(C)n1-c1cccc(C(=O)N2CCC2)c1O

> <score_type>
oracle

> <origin>
adg

> <m_score__min__energy>
-15.98

> <m_primary>
energy

> <minimizedAffinity>
-8.78559

> <minimizedRMSD>
1.02559

> <CNNscore>
0.1384703815

> <CNNaffinity>
6.4565968513

> <CNN_VS>
0.8940474391

> <CNNaffinity_variance>
0.1175712049

$$$$
27:0


 41 45  0  0  0  0  0  0  0  0999 V2000
   60.2447   26.3764   47.3777 C   0  0  0  0  0  0  0  0  0  0  0  0
   60.2051   27.5369   48.1012 C   0  0  0  0  0  0  0  0  0  0  0  0
   60.5430   27.5433   49.4827 C   0  0  0  0  0  0  0  0  0  0  0  0
   60.9197   26.4983   50.0797 O   0  0  0  0  0  0  0  0  0  0  0  0
   60.5142   28.7005   50.1867 N   0  0  0  0  0  0  0  0  0  0  0  0
   60.2285   29.8973   49.6120 C   0  0  0  0  0  0  0  0  0  0  0  0
   60.2522   31.0032   50.4002 C   0  0  0  0  0  0  0  0  0  0  0  0
   59.8999   29.9172   48.2359 C   0  0  0  0  0  0  0  0  0  0  0  0
   59.5954   31.0082   47.6780 O   0  0  0  0  0  0  0  0  0  0  0  0
   59.8867   28.7500   47.4998 N   0  0  0  0  0  0  0  0  0  0  0  0
   60.7078   28.6728   51.1516 H   0  0  0  0  0  0  0  0  0  0  0  0
   59.1250   25.7622   46.6368 C   0  0  0  0  0  0  0  0  0  0  0  0
   59.3345   24.6353   45.8222 C   0  0  0  0  0  0  0  0  0  0  0  0
   58.2555   24.0314   45.1699 C   0  0  0  0  0  0  0  0  0  0  0  0
   56.9614   24.5291   45.3440 C   0  0  0  0  0  0  0  0  0  0  0  0
   56.7432   25.6286   46.1791 C   0  0  0  0  0  0  0  0  0  0  0  0
   55.4544   26.1152   46.3645 O   0  0  0  0  0  0  0  0  0  0  0  0
   57.8202   26.2383   46.8318 C   0  0  0  0  0  0  0  0  0  0  0  0
   61.4604   31.7112   50.8668 C   0  0  0  0  0  0  0  0  0  0  0  0
   62.0952   31.2879   52.0461 C   0  0  0  0  0  0  0  0  0  0  0  0
   63.1872   31.9954   52.5515 C   0  0  0  0  0  0  0  0  0  0  0  0
   63.6428   33.1413   51.8970 C   0  0  0  0  0  0  0  0  0  0  0  0
   63.0089   33.5806   50.7312 C   0  0  0  0  0  0  0  0  0  0  0  0
   61.9169   32.8729   50.2056 C   0  0  0  0  0  0  0  0  0  0  0  0
   61.2939   33.3307   48.9928 N   0  0  0  0  0  0  0  0  0  0  0  0
   60.0475   34.1079   49.0509 C   0  0  0  0  0  0  0  0  0  0  0  0
   59.1075   33.6604   47.9295 C   0  0  0  0  0  0  0  0  0  0  0  0
   59.7682   33.7460   46.5249 C   0  0  0  0  0  0  0  0  0  0  0  0
   61.3086   33.8584   46.5766 C   0  0  0  0  0  0  0  0  0  0  0  0
   61.9032   33.0003   47.6983 C   0  0  0  0  0  0  0  0  0  0  0  0
   59.2037   34.8938   45.7320 C   0  0  0  0  0  0  0  0  0  0  0  0
   58.0904   34.7772   45.1545 O   0  0  0  0  0  0  0  0  0  0  0  0
   59.9190   36.0785   45.6051 O   0  0  0  0  0  0  0  0  0  0  0  0
   59.5031   28.8658   46.0657 C   0  0  0  0  0  0  0  0  0  0  0  0
   58.0011   29.1593   45.8990 C   0  0  0  0  0  0  0  0  0  0  0  0
   57.7148   30.0459   44.7173 C   0  0  0  0  0  0  0  0  0  0  0  0
   58.3441   31.2979   44.5997 C   0  0  0  0  0  0  0  0  0  0  0  0
   58.1130   32.0997   43.4793 C   0  0  0  0  0  0  0  0  0  0  0  0
   57.2534   31.6603   42.4679 C   0  0  0  0  0  0  0  0  0  0  0  0
   56.6251   30.4170   42.5770 C   0  0  0  0  0  0  0  0  0  0  0  0
   56.8532   29.6110   43.6959 C   0  0  0  0  0  0  0  0  0  0  0  0
  1 12  1  0
 12 13  2  0
 13 14  1  0
 14 15  2  0
 15 16  1  0
 16 17  1  0
 16 18  2  0
  1  2  2  0
  2  3  1  0
  3  4  2  0
  3  5  1  0
  5  6  1  0
  6  7  2  0
  7 19  1  0
 19 20  2  0
 20 21  1  0
 21 22  2  0
 22 23  1  0
 23 24  2  0
 24 25  1  0
 25 26  1  0
 26 27  1  0
 27 28  1  0
 28 31  1  0
 31 32  2  0
 31 33  1  0
 28 29  1  0
 29 30  1  0
  6  8  1  0
  8  9  2  0
  8 10  1  0
 10 34  1  0
 34 35  1  0
 35 36  1  0
 36 37  2  0
 37 38  1  0
 38 39  2  0
 39 40  1  0
 40 41  2  0
 18 12  1  0
 10  2  1  0
 41 36  1  0
 24 19  1  0
 30 25  1  0
  5 11  1  0
M  CHG 1  17  -1
M  CHG 1  33  -1
M  END
> <UniqueID>
25

> <SMILES>
O=C([O-])C1CCN(c2ccccc2/C=c2/[nH]c(=O)c(=Cc3cccc([O-])c3)n(CCc3ccccc3)c2=O)CC1

> <Energy>
114.93138322325548

> <Genealogy>
O=C([O-])C1CCN(c2ccccc2C=c2[nH]c(=O)c(=Cc3cccc([O-])c3)n(CCc3ccccc3)c2=O)CC1 (protonated)
O=C([O-])C1CCN(c2ccccc2/C=c2/[nH]c(=O)c(=Cc3cccc([O-])c3)n(CCc3ccccc3)c2=O)CC1 (cis-trans isomerization)
O=C([O-])C1CCN(c2ccccc2/C=c2/[nH]c(=O)c(=Cc3cccc([O-])c3)n(CCc3ccccc3)c2=O)CC1 (3D coordinates assigned)
O=C([O-])C1CCN(c2ccccc2/C=c2/[nH]c(=O)c(=Cc3cccc([O-])c3)n(CCc3ccccc3)c2=O)CC1 (nonaromatic ring conformer: 114.93138322325548 kcal/mol)

> <smiles>
O=C(O)C1CCN(c2ccccc2C=c2[nH]c(=O)c(=Cc3cccc(O)c3)n(CCc3ccccc3)c2=O)CC1

> <score_type>
oracle

> <origin>
adg

> <m_score__min__energy>
-16.079999999999998

> <m_primary>
energy

> <minimizedAffinity>
-7.45335

> <minimizedRMSD>
0.66098

> <CNNscore>
0.0927523673

> <CNNaffinity>
6.2919259071

> <CNN_VS>
0.5835910439

> <CNNaffinity_variance>
0.9862949252

$$$$
29:0


 32 35  0  0  0  0  0  0  0  0999 V2000
   54.0511   29.7900   56.0683 C   0  0  0  0  0  0  0  0  0  0  0  0
   54.6805   29.9799   54.8977 C   0  0  0  0  0  0  0  0  0  0  0  0
   54.0850   30.0915   53.6307 C   0  0  0  0  0  0  0  0  0  0  0  0
   52.7994   30.2574   53.2687 C   0  0  0  0  0  0  0  0  0  0  0  0
   55.1151   29.9983   52.7113 C   0  0  0  0  0  0  0  0  0  0  0  0
   56.2906   29.9094   53.4287 C   0  0  0  0  0  0  0  0  0  0  0  0
   56.0323   29.9222   54.7589 N   0  0  0  0  0  0  0  0  0  0  0  0
   57.0254   29.8071   55.8325 C   0  0  0  0  0  0  0  0  0  0  0  0
   52.3217   30.4972   51.8969 C   0  0  0  0  0  0  0  0  0  0  0  0
   52.4041   29.6002   50.8953 N   0  0  0  0  0  0  0  0  0  0  0  0
   51.7291   30.1946   49.8881 C   0  0  0  0  0  0  0  0  0  0  0  0
   51.5949   29.6622   48.7556 O   0  0  0  0  0  0  0  0  0  0  0  0
   51.2005   31.3982   50.1930 N   0  0  0  0  0  0  0  0  0  0  0  0
   51.5730   31.5717   51.4719 C   0  0  0  0  0  0  0  0  0  0  0  0
   51.2313   32.6906   52.2253 O   0  0  0  0  0  0  0  0  0  0  0  0
   50.7149   33.3728   51.8434 H   0  0  0  0  0  0  0  0  0  0  0  0
   57.6259   29.7327   52.8180 C   0  0  0  0  0  0  0  0  0  0  0  0
   58.2315   28.6398   52.9807 O   0  0  0  0  0  0  0  0  0  0  0  0
   58.2337   30.7788   52.0338 N   0  0  0  0  0  0  0  0  0  0  0  0
   59.2334   30.4557   51.0067 C   0  0  0  0  0  0  0  0  0  0  0  0
   60.5885   31.1039   51.3366 C   0  0  0  0  0  0  0  0  0  0  0  0
   60.4536   32.4643   52.0727 C   0  0  0  0  0  0  0  0  0  0  0  0
   59.0765   33.1118   51.8262 C   0  0  0  0  0  0  0  0  0  0  0  0
   57.9624   32.1924   52.3499 C   0  0  0  0  0  0  0  0  0  0  0  0
   61.6319   33.4263   51.7847 C   0  0  0  0  0  0  0  0  0  0  0  0
   62.1043   33.4269   50.3478 C   0  0  0  0  0  0  0  0  0  0  0  0
   63.4212   33.0477   50.0341 C   0  0  0  0  0  0  0  0  0  0  0  0
   63.8586   33.0482   48.7054 C   0  0  0  0  0  0  0  0  0  0  0  0
   62.9834   33.4159   47.6795 C   0  0  0  0  0  0  0  0  0  0  0  0
   63.4086   33.4139   46.3915 F   0  0  0  0  0  0  0  0  0  0  0  0
   61.6675   33.7773   47.9813 C   0  0  0  0  0  0  0  0  0  0  0  0
   61.2267   33.7791   49.3079 C   0  0  0  0  0  0  0  0  0  0  0  0
  1  2  2  0
  2  3  1  0
  3  4  2  0
  4  9  1  0
  9 10  1  0
 10 11  1  0
 11 12  2  0
 11 13  1  0
 13 14  1  0
 14 15  1  0
  3  5  1  0
  5  6  2  0
  6 17  1  0
 17 18  2  0
 17 19  1  0
 19 20  1  0
 20 21  1  0
 21 22  1  0
 22 25  1  0
 25 26  1  0
 26 27  2  0
 27 28  1  0
 28 29  2  0
 29 30  1  0
 29 31  1  0
 31 32  2  0
 22 23  1  0
 23 24  1  0
  6  7  1  0
  7  8  1  0
  7  2  1  0
 14  9  2  0
 24 19  1  0
 32 26  1  0
 15 16  1  0
M  CHG 1  10  -1
M  CHG 1  13  -1
M  END
> <UniqueID>
27

> <SMILES>
C=c1c(=Cc2[n-]c(=O)[n-]c2O)cc(C(=O)N2CCC(Cc3ccc(F)cc3)CC2)n1C

> <Energy>
133.2458922441177

> <Genealogy>
C=c1c(=Cc2[n-]c(=O)[n-]c2O)cc(C(=O)N2CCC(Cc3ccc(F)cc3)CC2)n1C (protonated)
C=c1c(=Cc2[n-]c(=O)[n-]c2O)cc(C(=O)N2CCC(Cc3ccc(F)cc3)CC2)n1C (3D coordinates assigned)
C=c1c(=Cc2[n-]c(=O)[n-]c2O)cc(C(=O)N2CCC(Cc3ccc(F)cc3)CC2)n1C (nonaromatic ring conformer: 133.2458922441177 kcal/mol)

> <smiles>
C=c1c(=Cc2[nH]c(=O)[nH]c2O)cc(C(=O)N2CCC(Cc3ccc(F)cc3)CC2)n1C

> <score_type>
oracle

> <origin>
adg

> <m_score__min__energy>
-14.039999999999999

> <m_primary>
energy

> <minimizedAffinity>
-6.89855

> <minimizedRMSD>
1.57127

> <CNNscore>
0.1840077490

> <CNNaffinity>
5.5179486275

> <CNN_VS>
1.0153453350

> <CNNaffinity_variance>
0.2973106802

$$$$
31:0


 33 36  0  0  0  0  0  0  0  0999 V2000
   59.4517   30.0111   51.6250 C   0  0  0  0  0  0  0  0  0  0  0  0
   58.8357   29.4037   50.5185 C   0  0  0  0  0  0  0  0  0  0  0  0
   59.2723   29.6844   49.2214 C   0  0  0  0  0  0  0  0  0  0  0  0
   60.3355   30.5703   49.0115 C   0  0  0  0  0  0  0  0  0  0  0  0
   60.9584   31.1756   50.1111 C   0  0  0  0  0  0  0  0  0  0  0  0
   60.5244   30.8962   51.4109 C   0  0  0  0  0  0  0  0  0  0  0  0
   61.1519   31.4909   52.4558 F   0  0  0  0  0  0  0  0  0  0  0  0
   60.8459   30.9499   47.3686 S   0  0  0  0  0  0  0  0  0  0  0  0
   60.5763   29.7623   46.4888 O   0  0  0  0  0  0  0  0  0  0  0  0
   62.3223   31.2381   47.3462 O   0  0  0  0  0  0  0  0  0  0  0  0
   59.9551   32.3323   46.7832 N   0  0  0  0  0  0  0  0  0  0  0  0
   58.5129   32.0188   46.7086 C   0  0  0  0  0  0  0  0  0  0  0  0
   57.6663   33.2972   46.5443 C   0  0  0  0  0  0  0  0  0  0  0  0
   58.4670   34.3867   46.1362 O   0  0  0  0  0  0  0  0  0  0  0  0
   59.3844   34.7189   47.1649 C   0  0  0  0  0  0  0  0  0  0  0  0
   60.1942   33.4958   47.6535 C   0  0  0  0  0  0  0  0  0  0  0  0
   60.2804   32.5617   45.8441 H   0  0  0  0  0  0  0  0  0  0  0  0
   58.9570   29.7240   53.0206 C   0  0  0  0  0  0  0  0  0  0  0  0
   57.2378   32.1688   52.4511 C   0  0  0  0  0  0  0  0  0  0  0  0
   56.7340   30.9609   52.7553 C   0  0  0  0  0  0  0  0  0  0  0  0
   55.3736   30.6434   52.9102 C   0  0  0  0  0  0  0  0  0  0  0  0
   54.2605   31.3453   52.6186 C   0  0  0  0  0  0  0  0  0  0  0  0
   55.3308   29.3634   53.4293 C   0  0  0  0  0  0  0  0  0  0  0  0
   56.6316   28.9208   53.5185 C   0  0  0  0  0  0  0  0  0  0  0  0
   57.0181   27.5377   53.9478 C   0  0  0  0  0  0  0  0  0  0  0  0
   57.4932   29.8794   53.0959 N   0  0  0  0  0  0  0  0  0  0  0  0
   53.1994   30.9266   51.6903 C   0  0  0  0  0  0  0  0  0  0  0  0
   53.3810   30.0210   50.7140 N   0  0  0  0  0  0  0  0  0  0  0  0
   52.2059   30.0414   50.0476 C   0  0  0  0  0  0  0  0  0  0  0  0
   51.9762   29.2999   49.0554 O   0  0  0  0  0  0  0  0  0  0  0  0
   51.2996   30.9229   50.5194 N   0  0  0  0  0  0  0  0  0  0  0  0
   51.9494   31.4876   51.5494 C   0  0  0  0  0  0  0  0  0  0  0  0
   51.4222   32.5110   52.3287 O   0  0  0  0  0  0  0  0  0  0  0  0
 19 20  2  0
 20 21  1  0
 21 22  2  0
 22 27  1  0
 27 28  1  0
 28 29  1  0
 29 30  2  0
 29 31  1  0
 31 32  1  0
 32 33  1  0
 21 23  1  0
 23 24  2  0
 24 25  1  0
 24 26  1  0
 26 18  1  0
 18  1  1  0
  1  2  2  0
  2  3  1  0
  3  4  2  0
  4  8  1  0
  8  9  2  0
  8 10  2  0
  8 11  1  0
 11 12  1  0
 12 13  1  0
 13 14  1  0
 14 15  1  0
 15 16  1  0
  4  5  1  0
  5  6  2  0
  6  7  1  0
 26 20  1  0
  6  1  1  0
 32 27  2  0
 16 11  1  0
 11 17  1  0
M  CHG 1  11   1
M  CHG 1  28  -1
M  CHG 1  31  -1
M  CHG 1  33  -1
M  END
> <UniqueID>
29

> <SMILES>
C=c1/c(=C\c2[n-]c(=O)[n-]c2[O-])cc(C)n1Cc1ccc(S(=O)(=O)[NH+]2CCOCC2)cc1F

> <Energy>
133.39757872793155

> <Genealogy>
C=c1c(=Cc2[n-]c(=O)[n-]c2[O-])cc(C)n1Cc1ccc(S(=O)(=O)[NH+]2CCOCC2)cc1F (protonated)
C=c1/c(=C\c2[n-]c(=O)[n-]c2[O-])cc(C)n1Cc1ccc(S(=O)(=O)[NH+]2CCOCC2)cc1F (cis-trans isomerization)
C=c1/c(=C\c2[n-]c(=O)[n-]c2[O-])cc(C)n1Cc1ccc(S(=O)(=O)[NH+]2CCOCC2)cc1F (3D coordinates assigned)
C=c1/c(=C\c2[n-]c(=O)[n-]c2[O-])cc(C)n1Cc1ccc(S(=O)(=O)[NH+]2CCOCC2)cc1F (nonaromatic ring conformer: 133.39757872793155 kcal/mol)

> <smiles>
C=c1c(=Cc2[nH]c(=O)[nH]c2O)cc(C)n1Cc1ccc(S(=O)(=O)N2CCOCC2)cc1F

> <score_type>
oracle

> <origin>
adg

> <m_score__min__energy>
-16.41

> <m_primary>
energy

> <minimizedAffinity>
-5.70812

> <minimizedRMSD>
0.73142

> <CNNscore>
0.0658762082

> <CNNaffinity>
5.3659381866

> <CNN_VS>
0.3534876704

> <CNNaffinity_variance>
0.3771128654

$$$$
37:0


 30 33  0  0  0  0  0  0  0  0999 V2000
   59.1795   27.5955   47.3784 C   0  0  0  0  0  0  0  0  0  0  0  0
   58.8147   28.1304   46.2014 C   0  0  0  0  0  0  0  0  0  0  0  0
   58.1578   27.4867   45.1400 C   0  0  0  0  0  0  0  0  0  0  0  0
   57.8962   26.1827   44.9217 C   0  0  0  0  0  0  0  0  0  0  0  0
   57.8314   28.4781   44.2272 C   0  0  0  0  0  0  0  0  0  0  0  0
   58.3533   29.6601   44.7142 C   0  0  0  0  0  0  0  0  0  0  0  0
   58.3526   30.9666   43.9794 C   0  0  0  0  0  0  0  0  0  0  0  0
   58.9356   29.4521   45.9155 N   0  0  0  0  0  0  0  0  0  0  0  0
   57.3203   25.2474   45.9018 C   0  0  0  0  0  0  0  0  0  0  0  0
   57.9299   24.1322   46.3488 N   0  0  0  0  0  0  0  0  0  0  0  0
   56.9684   23.5219   47.0784 C   0  0  0  0  0  0  0  0  0  0  0  0
   57.1617   22.4316   47.6740 O   0  0  0  0  0  0  0  0  0  0  0  0
   55.7794   24.1636   47.1002 N   0  0  0  0  0  0  0  0  0  0  0  0
   56.0189   25.2455   46.3414 C   0  0  0  0  0  0  0  0  0  0  0  0
   55.0578   26.2024   46.0418 O   0  0  0  0  0  0  0  0  0  0  0  0
   59.6318   30.4448   46.6893 C   0  0  0  0  0  0  0  0  0  0  0  0
   60.9114   30.1461   47.1723 C   0  0  0  0  0  0  0  0  0  0  0  0
   61.6143   31.0757   47.9418 C   0  0  0  0  0  0  0  0  0  0  0  0
   61.0495   32.3244   48.2426 C   0  0  0  0  0  0  0  0  0  0  0  0
   59.7736   32.6360   47.7412 C   0  0  0  0  0  0  0  0  0  0  0  0
   59.0472   31.7006   46.9823 C   0  0  0  0  0  0  0  0  0  0  0  0
   61.8059   33.2955   49.0688 C   0  0  0  0  0  0  0  0  0  0  0  0
   61.5529   34.5282   48.9478 O   0  0  0  0  0  0  0  0  0  0  0  0
   62.7968   32.8468   50.0279 N   0  0  0  0  0  0  0  0  0  0  0  0
   63.3596   33.9200   50.8636 C   0  0  0  0  0  0  0  0  0  0  0  0
   62.7598   33.3391   52.1371 C   0  0  0  0  0  0  0  0  0  0  0  0
   62.1999   32.2506   51.2315 C   0  0  0  0  0  0  0  0  0  0  0  0
   61.9142   32.6358   50.4097 H   0  0  0  0  0  0  0  0  0  0  0  0
   57.6816   32.0916   46.4631 C   0  0  0  0  0  0  0  0  0  0  0  0
   57.6217   33.5783   46.1404 C   0  0  0  0  0  0  0  0  0  0  0  0
  1  2  2  0
  2  3  1  0
  3  4  2  0
  4  9  1  0
  9 10  1  0
 10 11  1  0
 11 12  2  0
 11 13  1  0
 13 14  1  0
 14 15  1  0
  3  5  1  0
  5  6  2  0
  6  7  1  0
  6  8  1  0
  8 16  1  0
 16 17  2  0
 17 18  1  0
 18 19  2  0
 19 22  1  0
 22 23  2  0
 22 24  1  0
 24 25  1  0
 25 26  1  0
 26 27  1  0
 19 20  1  0
 20 21  2  0
 21 29  1  0
 29 30  1  0
  8  2  1  0
 21 16  1  0
 14  9  2  0
 27 24  1  0
 24 28  1  0
M  CHG 1  10  -1
M  CHG 1  13  -1
M  CHG 1  15  -1
M  CHG 1  24   1
M  END
> <UniqueID>
35

> <SMILES>
C=c1c(=Cc2[n-]c(=O)[n-]c2[O-])cc(C)n1-c1ccc(C(=O)[NH+]2CCC2)cc1CC

> <Energy>
203.00463596516326

> <Genealogy>
C=c1c(=Cc2[n-]c(=O)[n-]c2[O-])cc(C)n1-c1ccc(C(=O)[NH+]2CCC2)cc1CC (protonated)
C=c1c(=Cc2[n-]c(=O)[n-]c2[O-])cc(C)n1-c1ccc(C(=O)[NH+]2CCC2)cc1CC (3D coordinates assigned)
C=c1c(=Cc2[n-]c(=O)[n-]c2[O-])cc(C)n1-c1ccc(C(=O)[NH+]2CCC2)cc1CC (nonaromatic ring conformer: 203.00463596516326 kcal/mol)

> <smiles>
C=c1c(=Cc2[nH]c(=O)[nH]c2O)cc(C)n1-c1ccc(C(=O)N2CCC2)cc1CC

> <score_type>
oracle

> <origin>
adg

> <m_score__min__energy>
-15.01

> <m_primary>
energy

> <minimizedAffinity>
-7.39962

> <minimizedRMSD>
1.27121

> <CNNscore>
0.1219067723

> <CNNaffinity>
6.5364146233

> <CNN_VS>
0.7968332171

> <CNNaffinity_variance>
0.0060233888

$$$$
47:0


 33 36  0  0  0  0  0  0  0  0999 V2000
   56.9385   31.4765   45.1558 O   0  0  0  0  0  0  0  0  0  0  0  0
   58.0856   31.9449   45.7975 C   0  0  0  0  0  0  0  0  0  0  0  0
   58.3455   33.3202   45.8056 C   0  0  0  0  0  0  0  0  0  0  0  0
   57.4933   34.1748   45.1857 F   0  0  0  0  0  0  0  0  0  0  0  0
   59.4747   33.8229   46.4570 C   0  0  0  0  0  0  0  0  0  0  0  0
   60.3667   32.9538   47.1066 C   0  0  0  0  0  0  0  0  0  0  0  0
   60.1051   31.5752   47.1003 C   0  0  0  0  0  0  0  0  0  0  0  0
   58.9775   31.0649   46.4445 C   0  0  0  0  0  0  0  0  0  0  0  0
   56.3595   32.0791   44.7321 H   0  0  0  0  0  0  0  0  0  0  0  0
   61.5234   33.4720   47.7901 N   0  0  0  0  0  0  0  0  0  0  0  0
   62.8521   33.3944   47.1756 C   0  0  0  0  0  0  0  0  0  0  0  0
   63.8140   32.6930   48.1365 C   0  0  0  0  0  0  0  0  0  0  0  0
   63.7230   33.2478   49.4979 N   0  0  0  0  0  0  0  0  0  0  0  0
   64.6852   32.8105   50.4837 C   0  0  0  0  0  0  0  0  0  0  0  0
   65.3729   31.7747   50.2694 O   0  0  0  0  0  0  0  0  0  0  0  0
   64.8890   33.5489   51.7731 C   0  0  0  0  0  0  0  0  0  0  0  0
   62.7456   34.3109   49.7926 C   0  0  0  0  0  0  0  0  0  0  0  0
   61.3835   33.9906   49.1589 C   0  0  0  0  0  0  0  0  0  0  0  0
   58.7408   29.6475   46.4514 N   0  0  0  0  0  0  0  0  0  0  0  0
   58.7701   28.8535   47.5419 C   0  0  0  0  0  0  0  0  0  0  0  0
   59.0496   29.3270   48.9354 C   0  0  0  0  0  0  0  0  0  0  0  0
   58.5483   27.5402   47.1822 C   0  0  0  0  0  0  0  0  0  0  0  0
   58.3228   27.5309   45.8147 C   0  0  0  0  0  0  0  0  0  0  0  0
   57.9918   26.4130   45.1394 C   0  0  0  0  0  0  0  0  0  0  0  0
   58.4944   28.8555   45.3796 C   0  0  0  0  0  0  0  0  0  0  0  0
   58.5676   29.2954   44.1140 C   0  0  0  0  0  0  0  0  0  0  0  0
   57.5249   25.1549   45.7423 C   0  0  0  0  0  0  0  0  0  0  0  0
   58.2549   24.0269   45.8246 N   0  0  0  0  0  0  0  0  0  0  0  0
   57.3757   23.1226   46.3077 C   0  0  0  0  0  0  0  0  0  0  0  0
   57.6930   21.9253   46.5391 O   0  0  0  0  0  0  0  0  0  0  0  0
   56.1276   23.5954   46.5101 N   0  0  0  0  0  0  0  0  0  0  0  0
   56.2377   24.8796   46.1334 C   0  0  0  0  0  0  0  0  0  0  0  0
   55.1791   25.7784   46.1357 O   0  0  0  0  0  0  0  0  0  0  0  0
  1  2  1  0
  2  3  2  0
  3  4  1  0
  3  5  1  0
  5  6  2  0
  6 10  1  0
 10 11  1  0
 11 12  1  0
 12 13  1  0
 13 14  1  0
 14 15  2  0
 14 16  1  0
 13 17  1  0
 17 18  1  0
  6  7  1  0
  7  8  2  0
  8 19  1  0
 19 20  1  0
 20 21  1  0
 20 22  2  0
 22 23  1  0
 23 24  2  0
 24 27  1  0
 27 28  1  0
 28 29  1  0
 29 30  2  0
 29 31  1  0
 31 32  1  0
 32 33  1  0
 23 25  1  0
 25 26  2  0
  8  2  1  0
 25 19  1  0
 18 10  1  0
 32 27  2  0
  1  9  1  0
M  CHG 1  28  -1
M  CHG 1  31  -1
M  CHG 1  33  -1
M  END
> <UniqueID>
45

> <SMILES>
C=c1/c(=C\c2[n-]c(=O)[n-]c2[O-])cc(C)n1-c1cc(N2CCN(C(C)=O)CC2)cc(F)c1O

> <Energy>
134.96934345295693

> <Genealogy>
C=c1c(=Cc2[n-]c(=O)[n-]c2[O-])cc(C)n1-c1cc(N2CCN(C(C)=O)CC2)cc(F)c1O (protonated)
C=c1/c(=C\c2[n-]c(=O)[n-]c2[O-])cc(C)n1-c1cc(N2CCN(C(C)=O)CC2)cc(F)c1O (cis-trans isomerization)
C=c1/c(=C\c2[n-]c(=O)[n-]c2[O-])cc(C)n1-c1cc(N2CCN(C(C)=O)CC2)cc(F)c1O (3D coordinates assigned)
C=c1/c(=C\c2[n-]c(=O)[n-]c2[O-])cc(C)n1-c1cc(N2CCN(C(C)=O)CC2)cc(F)c1O (nonaromatic ring conformer: 134.96934345295693 kcal/mol)

> <smiles>
C=c1c(=Cc2[nH]c(=O)[nH]c2O)cc(C)n1-c1cc(N2CCN(C(C)=O)CC2)cc(F)c1O

> <score_type>
oracle

> <origin>
adg

> <m_score__min__energy>
-16.579999999999998

> <m_primary>
energy

> <minimizedAffinity>
-10.20388

> <minimizedRMSD>
0.73915

> <CNNscore>
0.3001039922

> <CNNaffinity>
7.6264896393

> <CNN_VS>
2.2887399197

> <CNNaffinity_variance>
0.2960535586

$$$$
51:0


 31 33  0  0  0  0  0  0  0  0999 V2000
   59.0344   29.3272   44.5271 C   0  0  0  0  0  0  0  0  0  0  0  0
   59.9907   28.3362   44.2733 C   0  0  0  0  0  0  0  0  0  0  0  0
   61.1534   28.3396   44.9755 N   0  0  0  0  0  0  0  0  0  0  0  0
   61.4052   29.2711   45.9326 C   0  0  0  0  0  0  0  0  0  0  0  0
   60.4349   30.2551   46.2168 C   0  0  0  0  0  0  0  0  0  0  0  0
   60.5886   31.1825   47.1231 N   0  0  0  0  0  0  0  0  0  0  0  0
   59.2826   30.2538   45.4909 N   0  0  0  0  0  0  0  0  0  0  0  0
   61.6958   31.4254   48.0084 C   0  0  0  0  0  0  0  0  0  0  0  0
   62.8780   31.5044   47.5794 O   0  0  0  0  0  0  0  0  0  0  0  0
   61.4495   31.4950   49.4829 C   0  0  0  0  0  0  0  0  0  0  0  0
   60.1254   32.0567   49.7562 N   0  0  0  0  0  0  0  0  0  0  0  0
   60.0346   33.7302   49.2855 S   0  0  0  0  0  0  0  0  0  0  0  0
   59.2085   34.4956   50.2872 O   0  0  0  0  0  0  0  0  0  0  0  0
   61.4207   34.3079   49.2665 O   0  0  0  0  0  0  0  0  0  0  0  0
   59.3369   33.8715   47.6743 C   0  0  0  0  0  0  0  0  0  0  0  0
   58.1099   33.2499   47.3947 C   0  0  0  0  0  0  0  0  0  0  0  0
   57.5479   33.3532   46.1170 C   0  0  0  0  0  0  0  0  0  0  0  0
   58.2101   34.0706   45.1133 C   0  0  0  0  0  0  0  0  0  0  0  0
   59.4328   34.6908   45.3882 C   0  0  0  0  0  0  0  0  0  0  0  0
   59.9974   34.5933   46.6654 C   0  0  0  0  0  0  0  0  0  0  0  0
   57.7320   29.3592   43.7803 C   0  0  0  0  0  0  0  0  0  0  0  0
   56.5873   29.2985   44.7390 C   0  0  0  0  0  0  0  0  0  0  0  0
   55.7825   30.2674   44.8116 O   0  0  0  0  0  0  0  0  0  0  0  0
   56.3688   28.1011   45.4984 N   0  0  0  0  0  0  0  0  0  0  0  0
   60.1694   26.9725   48.5580 C   0  0  0  0  0  0  0  0  0  0  0  0
   59.2501   26.6229   47.4232 C   0  0  0  0  0  0  0  0  0  0  0  0
   59.3304   25.3635   46.8131 C   0  0  0  0  0  0  0  0  0  0  0  0
   58.4622   25.0300   45.7679 C   0  0  0  0  0  0  0  0  0  0  0  0
   57.4975   25.9456   45.3392 C   0  0  0  0  0  0  0  0  0  0  0  0
   57.3728   27.1917   45.9696 C   0  0  0  0  0  0  0  0  0  0  0  0
   58.2640   27.5320   47.0063 C   0  0  0  0  0  0  0  0  0  0  0  0
 25 26  1  0
 26 27  2  0
 27 28  1  0
 28 29  2  0
 29 30  1  0
 30 24  1  0
 24 22  1  0
 22 23  2  0
 22 21  1  0
 21  1  1  0
  1  2  2  0
  2  3  1  0
  3  4  2  0
  4  5  1  0
  5  6  2  0
  6  8  1  0
  8  9  2  0
  8 10  1  0
 10 11  1  0
 11 12  1  0
 12 13  2  0
 12 14  2  0
 12 15  1  0
 15 16  2  0
 16 17  1  0
 17 18  2  0
 18 19  1  0
 19 20  2  0
  5  7  1  0
 30 31  2  0
 31 26  1  0
  7  1  1  0
 20 15  1  0
M  CHG 1   7  -1
M  CHG 1  11  -1
M  CHG 1  24  -1
M  END
> <UniqueID>
49

> <SMILES>
Cc1cccc([N-]C(=O)Cc2cncc(=NC(=O)C[N-]S(=O)(=O)c3ccccc3)[n-]2)c1

> <Energy>
59.391399255731514

> <Genealogy>
Cc1cccc([N-]C(=O)Cc2cncc(=NC(=O)C[N-]S(=O)(=O)c3ccccc3)[n-]2)c1 (protonated)
Cc1cccc([N-]C(=O)Cc2cncc(=NC(=O)C[N-]S(=O)(=O)c3ccccc3)[n-]2)c1 (3D coordinates assigned)
Cc1cccc([N-]C(=O)Cc2cncc(=NC(=O)C[N-]S(=O)(=O)c3ccccc3)[n-]2)c1 (optimized conformer: 59.391399255731514 kcal/mol)

> <smiles>
Cc1cccc(NC(=O)Cc2cncc(=NC(=O)CNS(=O)(=O)c3ccccc3)[nH]2)c1

> <score_type>
oracle

> <origin>
adg

> <m_score__min__energy>
-14.19

> <m_primary>
energy

> <minimizedAffinity>
-4.62179

> <minimizedRMSD>
0.60035

> <CNNscore>
0.6557427645

> <CNNaffinity>
6.8905167580

> <CNN_VS>
4.5184063911

> <CNNaffinity_variance>
0.2564335763

$$$$
56:0


 29 32  0  0  0  0  0  0  0  0999 V2000
   59.6221   28.7690   47.7120 C   0  0  0  0  0  0  0  0  0  0  0  0
   59.1771   28.8745   46.4510 C   0  0  0  0  0  0  0  0  0  0  0  0
   58.9268   27.8213   45.5650 C   0  0  0  0  0  0  0  0  0  0  0  0
   59.0522   26.5025   45.8099 C   0  0  0  0  0  0  0  0  0  0  0  0
   58.4569   28.4016   44.3937 C   0  0  0  0  0  0  0  0  0  0  0  0
   58.4590   29.7664   44.5986 C   0  0  0  0  0  0  0  0  0  0  0  0
   57.9946   30.7781   43.5963 C   0  0  0  0  0  0  0  0  0  0  0  0
   58.8858   30.0542   45.8480 N   0  0  0  0  0  0  0  0  0  0  0  0
   57.9902   25.6693   46.4025 C   0  0  0  0  0  0  0  0  0  0  0  0
   58.2254   24.4791   46.9831 N   0  0  0  0  0  0  0  0  0  0  0  0
   56.9899   24.0360   47.3004 C   0  0  0  0  0  0  0  0  0  0  0  0
   56.7923   22.9378   47.8829 O   0  0  0  0  0  0  0  0  0  0  0  0
   55.9811   24.8566   46.9366 N   0  0  0  0  0  0  0  0  0  0  0  0
   56.6294   25.8801   46.3571 C   0  0  0  0  0  0  0  0  0  0  0  0
   55.9859   26.9579   45.7609 O   0  0  0  0  0  0  0  0  0  0  0  0
   59.0106   31.3708   46.4114 C   0  0  0  0  0  0  0  0  0  0  0  0
   57.9127   32.2423   46.4051 C   0  0  0  0  0  0  0  0  0  0  0  0
   58.0190   33.5101   46.9782 C   0  0  0  0  0  0  0  0  0  0  0  0
   59.2216   33.9185   47.5587 C   0  0  0  0  0  0  0  0  0  0  0  0
   60.3354   33.0626   47.5616 C   0  0  0  0  0  0  0  0  0  0  0  0
   60.2214   31.7824   46.9896 C   0  0  0  0  0  0  0  0  0  0  0  0
   61.2803   30.9317   47.0075 F   0  0  0  0  0  0  0  0  0  0  0  0
   61.5684   33.4846   48.1680 N   0  0  0  0  0  0  0  0  0  0  0  0
   61.5785   33.9550   49.5574 C   0  0  0  0  0  0  0  0  0  0  0  0
   63.0091   33.9558   50.1191 C   0  0  0  0  0  0  0  0  0  0  0  0
   63.7888   32.7939   49.6395 N   0  0  0  0  0  0  0  0  0  0  0  0
   63.2695   31.5240   50.1766 C   0  0  0  0  0  0  0  0  0  0  0  0
   63.9294   32.7542   48.1608 C   0  0  0  0  0  0  0  0  0  0  0  0
   62.8160   33.5054   47.4023 C   0  0  0  0  0  0  0  0  0  0  0  0
  1  2  2  0
  2  3  1  0
  3  4  2  0
  4  9  1  0
  9 10  1  0
 10 11  1  0
 11 12  2  0
 11 13  1  0
 13 14  1  0
 14 15  1  0
  3  5  1  0
  5  6  2  0
  6  7  1  0
  6  8  1  0
  8 16  1  0
 16 17  2  0
 17 18  1  0
 18 19  2  0
 19 20  1  0
 20 23  1  0
 23 24  1  0
 24 25  1  0
 25 26  1  0
 26 27  1  0
 26 28  1  0
 28 29  1  0
 20 21  2  0
 21 22  1  0
  8  2  1  0
 21 16  1  0
 14  9  2  0
 29 23  1  0
M  CHG 1  10  -1
M  CHG 1  13  -1
M  CHG 1  15  -1
M  END
> <UniqueID>
54

> <SMILES>
C=c1c(=Cc2[n-]c(=O)[n-]c2[O-])cc(C)n1-c1cccc(N2CCN(C)CC2)c1F

> <Energy>
136.03770127273563

> <Genealogy>
C=c1c(=Cc2[n-]c(=O)[n-]c2[O-])cc(C)n1-c1cccc(N2CCN(C)CC2)c1F (protonated)
C=c1c(=Cc2[n-]c(=O)[n-]c2[O-])cc(C)n1-c1cccc(N2CCN(C)CC2)c1F (3D coordinates assigned)
C=c1c(=Cc2[n-]c(=O)[n-]c2[O-])cc(C)n1-c1cccc(N2CCN(C)CC2)c1F (nonaromatic ring conformer: 136.03770127273563 kcal/mol)

> <smiles>
C=c1c(=Cc2[nH]c(=O)[nH]c2O)cc(C)n1-c1cccc(N2CCN(C)CC2)c1F

> <score_type>
oracle

> <origin>
adg

> <m_score__min__energy>
-15.890000000000001

> <m_primary>
energy

> <minimizedAffinity>
-7.86361

> <minimizedRMSD>
0.77706

> <CNNscore>
0.1018173695

> <CNNaffinity>
6.5017375946

> <CNN_VS>
0.6619898081

> <CNNaffinity_variance>
0.0696329549

$$$$
69:0


 30 32  0  0  0  0  0  0  0  0999 V2000
   57.7049   28.1283   53.5436 C   0  0  0  0  0  0  0  0  0  0  0  0
   57.0376   29.2362   53.1518 C   0  0  0  0  0  0  0  0  0  0  0  0
   55.6217   29.2351   53.2071 C   0  0  0  0  0  0  0  0  0  0  0  0
   54.9924   28.2037   53.5824 O   0  0  0  0  0  0  0  0  0  0  0  0
   54.9174   30.3982   52.8529 C   0  0  0  0  0  0  0  0  0  0  0  0
   53.5702   30.4387   52.8650 C   0  0  0  0  0  0  0  0  0  0  0  0
   55.6210   31.4875   52.4623 N   0  0  0  0  0  0  0  0  0  0  0  0
   56.9727   31.4969   52.3972 C   0  0  0  0  0  0  0  0  0  0  0  0
   57.5470   32.5632   52.0450 O   0  0  0  0  0  0  0  0  0  0  0  0
   57.6999   30.3719   52.7108 N   0  0  0  0  0  0  0  0  0  0  0  0
   52.7340   30.5678   51.6554 C   0  0  0  0  0  0  0  0  0  0  0  0
   52.7375   29.4542   50.3915 S   0  0  0  0  0  0  0  0  0  0  0  0
   51.5266   30.2649   49.5565 C   0  0  0  0  0  0  0  0  0  0  0  0
   51.0642   29.8995   48.4451 O   0  0  0  0  0  0  0  0  0  0  0  0
   51.0849   31.3575   50.2131 N   0  0  0  0  0  0  0  0  0  0  0  0
   51.7462   31.5215   51.3894 C   0  0  0  0  0  0  0  0  0  0  0  0
   51.4140   32.5460   52.2666 O   0  0  0  0  0  0  0  0  0  0  0  0
   59.1767   30.4291   52.5946 C   0  0  0  0  0  0  0  0  0  0  0  0
   59.5800   30.7950   51.1949 C   0  0  0  0  0  0  0  0  0  0  0  0
   59.4660   29.9375   50.2769 O   0  0  0  0  0  0  0  0  0  0  0  0
   60.1307   32.0888   50.9121 N   0  0  0  0  0  0  0  0  0  0  0  0
   60.2600   32.7217   51.6550 H   0  0  0  0  0  0  0  0  0  0  0  0
   60.5005   32.4953   49.5846 C   0  0  0  0  0  0  0  0  0  0  0  0
   59.5005   32.9959   48.7414 C   0  0  0  0  0  0  0  0  0  0  0  0
   59.8156   33.4401   47.4605 C   0  0  0  0  0  0  0  0  0  0  0  0
   61.1294   33.3861   47.0018 C   0  0  0  0  0  0  0  0  0  0  0  0
   62.1513   32.8716   47.8178 C   0  0  0  0  0  0  0  0  0  0  0  0
   63.5569   32.8210   47.2742 C   0  0  0  0  0  0  0  0  0  0  0  0
   61.8336   32.3791   49.1104 C   0  0  0  0  0  0  0  0  0  0  0  0
   62.9062   31.7546   49.9758 C   0  0  0  0  0  0  0  0  0  0  0  0
  1  2  2  0
  2  3  1  0
  3  4  2  0
  3  5  1  0
  5  6  2  0
  6 11  1  0
 11 12  1  0
 12 13  1  0
 13 14  2  0
 13 15  1  0
 15 16  1  0
 16 17  1  0
  5  7  1  0
  7  8  1  0
  8  9  2  0
  8 10  1  0
 10 18  1  0
 18 19  1  0
 19 20  2  0
 19 21  1  0
 21 23  1  0
 23 24  2  0
 24 25  1  0
 25 26  2  0
 26 27  1  0
 27 28  1  0
 27 29  2  0
 29 30  1  0
 10  2  1  0
 29 23  1  0
 16 11  2  0
 21 22  1  0
M  CHG 1   7  -1
M  CHG 1  15  -1
M  CHG 1  17  -1
M  END
> <UniqueID>
66

> <SMILES>
C=c1c(=O)c(=Cc2sc(=O)[n-]c2[O-])[n-]c(=O)n1CC(=O)Nc1cccc(C)c1C

> <Energy>
101.43942753550716

> <Genealogy>
C=c1c(=O)c(=Cc2sc(=O)[n-]c2[O-])[n-]c(=O)n1CC(=O)Nc1cccc(C)c1C (protonated)
C=c1c(=O)c(=Cc2sc(=O)[n-]c2[O-])[n-]c(=O)n1CC(=O)Nc1cccc(C)c1C (3D coordinates assigned)
C=c1c(=O)c(=Cc2sc(=O)[n-]c2[O-])[n-]c(=O)n1CC(=O)Nc1cccc(C)c1C (optimized conformer: 101.43942753550716 kcal/mol)

> <smiles>
C=c1c(=O)c(=Cc2sc(=O)[nH]c2O)[nH]c(=O)n1CC(=O)Nc1cccc(C)c1C

> <score_type>
oracle

> <origin>
adg

> <m_score__min__energy>
-16.52

> <m_primary>
energy

> <minimizedAffinity>
-4.76611

> <minimizedRMSD>
0.87582

> <CNNscore>
0.2550100982

> <CNNaffinity>
5.9349694252

> <CNN_VS>
1.5134770870

> <CNNaffinity_variance>
0.0141544715

$$$$
79:0


 32 35  0  0  0  0  0  0  0  0999 V2000
   59.7048   29.8980   46.8548 C   0  0  0  0  0  0  0  0  0  0  0  0
   59.1162   30.6557   47.7505 O   0  0  0  0  0  0  0  0  0  0  0  0
   60.0403   31.3512   48.3709 C   0  0  0  0  0  0  0  0  0  0  0  0
   61.2892   31.0366   47.8648 C   0  0  0  0  0  0  0  0  0  0  0  0
   61.0727   30.0949   46.8814 C   0  0  0  0  0  0  0  0  0  0  0  0
   59.6117   26.9271   46.9876 C   0  0  0  0  0  0  0  0  0  0  0  0
   58.9476   27.6418   46.0635 C   0  0  0  0  0  0  0  0  0  0  0  0
   58.1959   27.1365   44.9888 C   0  0  0  0  0  0  0  0  0  0  0  0
   57.7982   25.8837   44.6948 C   0  0  0  0  0  0  0  0  0  0  0  0
   57.8621   28.2272   44.2055 C   0  0  0  0  0  0  0  0  0  0  0  0
   58.3559   29.3463   44.8408 C   0  0  0  0  0  0  0  0  0  0  0  0
   58.2045   30.7451   44.3212 C   0  0  0  0  0  0  0  0  0  0  0  0
   59.0013   28.9972   45.9779 N   0  0  0  0  0  0  0  0  0  0  0  0
   57.2090   24.9229   45.6423 C   0  0  0  0  0  0  0  0  0  0  0  0
   57.8469   23.8466   46.1379 N   0  0  0  0  0  0  0  0  0  0  0  0
   56.9787   23.3658   47.0551 C   0  0  0  0  0  0  0  0  0  0  0  0
   57.2146   22.3339   47.7354 O   0  0  0  0  0  0  0  0  0  0  0  0
   55.8447   24.0847   47.1928 N   0  0  0  0  0  0  0  0  0  0  0  0
   56.0149   25.0743   46.3017 C   0  0  0  0  0  0  0  0  0  0  0  0
   55.0979   26.0986   46.0996 O   0  0  0  0  0  0  0  0  0  0  0  0
   59.7576   32.3267   49.4387 C   0  0  0  0  0  0  0  0  0  0  0  0
   59.2237   33.4279   49.1301 O   0  0  0  0  0  0  0  0  0  0  0  0
   60.0382   31.9953   50.8248 N   0  0  0  0  0  0  0  0  0  0  0  0
   59.1876   32.7228   51.7963 C   0  0  0  0  0  0  0  0  0  0  0  0
   57.7487   32.1777   51.8973 C   0  0  0  0  0  0  0  0  0  0  0  0
   57.7285   30.7105   51.9621 N   0  0  0  0  0  0  0  0  0  0  0  0
   56.6555   30.0135   52.6384 C   0  0  0  0  0  0  0  0  0  0  0  0
   56.6789   28.7545   52.7255 O   0  0  0  0  0  0  0  0  0  0  0  0
   55.5102   30.7459   53.2713 C   0  0  0  0  0  0  0  0  0  0  0  0
   58.5832   29.9776   51.0210 C   0  0  0  0  0  0  0  0  0  0  0  0
   60.0070   30.5373   51.0502 C   0  0  0  0  0  0  0  0  0  0  0  0
   59.4898   31.2840   50.4215 H   0  0  0  0  0  0  0  0  0  0  0  0
  6  7  2  0
  7  8  1  0
  8  9  2  0
  9 14  1  0
 14 15  1  0
 15 16  1  0
 16 17  2  0
 16 18  1  0
 18 19  1  0
 19 20  1  0
  8 10  1  0
 10 11  2  0
 11 12  1  0
 11 13  1  0
 13  1  1  0
  1  2  1  0
  2  3  1  0
  3 21  1  0
 21 22  2  0
 21 23  1  0
 23 24  1  0
 24 25  1  0
 25 26  1  0
 26 27  1  0
 27 28  2  0
 27 29  1  0
 26 30  1  0
 30 31  1  0
  3  4  2  0
  4  5  1  0
 13  7  1  0
  5  1  2  0
 19 14  2  0
 31 23  1  0
 23 32  1  0
M  CHG 1  15  -1
M  CHG 1  18  -1
M  CHG 1  20  -1
M  CHG 1  23   1
M  END
> <UniqueID>
76

> <SMILES>
C=c1/c(=C\c2[n-]c(=O)[n-]c2[O-])cc(C)n1-c1ccc(C(=O)[NH+]2CCN(C(C)=O)CC2)o1

> <Energy>
159.90433651824046

> <Genealogy>
C=c1c(=Cc2[n-]c(=O)[n-]c2[O-])cc(C)n1-c1ccc(C(=O)[NH+]2CCN(C(C)=O)CC2)o1 (protonated)
C=c1/c(=C\c2[n-]c(=O)[n-]c2[O-])cc(C)n1-c1ccc(C(=O)[NH+]2CCN(C(C)=O)CC2)o1 (cis-trans isomerization)
C=c1/c(=C\c2[n-]c(=O)[n-]c2[O-])cc(C)n1-c1ccc(C(=O)[NH+]2CCN(C(C)=O)CC2)o1 (3D coordinates assigned)
C=c1/c(=C\c2[n-]c(=O)[n-]c2[O-])cc(C)n1-c1ccc(C(=O)[NH+]2CCN(C(C)=O)CC2)o1 (nonaromatic ring conformer: 159.90433651824046 kcal/mol)

> <smiles>
C=c1c(=Cc2[nH]c(=O)[nH]c2O)cc(C)n1-c1ccc(C(=O)N2CCN(C(C)=O)CC2)o1

> <score_type>
oracle

> <origin>
adg

> <m_score__min__energy>
-16.010000000000002

> <m_primary>
energy

> <minimizedAffinity>
-7.69041

> <minimizedRMSD>
0.88695

> <CNNscore>
0.0879870206

> <CNNaffinity>
6.0651316643

> <CNN_VS>
0.5336528420

> <CNNaffinity_variance>
0.0397405773

$$$$
80:0


 31 34  0  0  0  0  0  0  0  0999 V2000
   59.6928   31.9694   46.8819 C   0  0  0  0  0  0  0  0  0  0  0  0
   58.6110   32.6366   46.2855 C   0  0  0  0  0  0  0  0  0  0  0  0
   57.4564   31.9708   46.0293 F   0  0  0  0  0  0  0  0  0  0  0  0
   58.7081   33.9918   45.9667 C   0  0  0  0  0  0  0  0  0  0  0  0
   59.8830   34.6932   46.2403 C   0  0  0  0  0  0  0  0  0  0  0  0
   60.9668   34.0404   46.8306 C   0  0  0  0  0  0  0  0  0  0  0  0
   60.8863   32.6766   47.1590 C   0  0  0  0  0  0  0  0  0  0  0  0
   62.0614   32.0063   47.7639 C   0  0  0  0  0  0  0  0  0  0  0  0
   62.7297   31.1921   47.0701 O   0  0  0  0  0  0  0  0  0  0  0  0
   62.4814   32.3020   49.1095 N   0  0  0  0  0  0  0  0  0  0  0  0
   63.9000   32.1792   49.4598 C   0  0  0  0  0  0  0  0  0  0  0  0
   64.1534   32.6731   50.8896 C   0  0  0  0  0  0  0  0  0  0  0  0
   63.3749   33.8896   51.1559 N   0  0  0  0  0  0  0  0  0  0  0  0
   61.9191   33.6459   51.1178 C   0  0  0  0  0  0  0  0  0  0  0  0
   61.4984   32.4922   50.1847 C   0  0  0  0  0  0  0  0  0  0  0  0
   63.6085   34.5888   50.4511 H   0  0  0  0  0  0  0  0  0  0  0  0
   59.8514   29.6207   45.0829 C   0  0  0  0  0  0  0  0  0  0  0  0
   59.6628   29.5095   46.4064 C   0  0  0  0  0  0  0  0  0  0  0  0
   59.4092   28.3361   47.1361 C   0  0  0  0  0  0  0  0  0  0  0  0
   59.4699   27.0383   46.7762 C   0  0  0  0  0  0  0  0  0  0  0  0
   59.0731   28.7422   48.4181 C   0  0  0  0  0  0  0  0  0  0  0  0
   59.1986   30.1152   48.4493 C   0  0  0  0  0  0  0  0  0  0  0  0
   58.8953   30.9791   49.6354 C   0  0  0  0  0  0  0  0  0  0  0  0
   59.5528   30.5803   47.2321 N   0  0  0  0  0  0  0  0  0  0  0  0
   58.3427   26.0922   46.7907 C   0  0  0  0  0  0  0  0  0  0  0  0
   58.2957   24.9672   47.5295 N   0  0  0  0  0  0  0  0  0  0  0  0
   57.0401   24.5140   47.3255 C   0  0  0  0  0  0  0  0  0  0  0  0
   56.6103   23.4516   47.8460 O   0  0  0  0  0  0  0  0  0  0  0  0
   56.2764   25.2949   46.5321 N   0  0  0  0  0  0  0  0  0  0  0  0
   57.1130   26.2964   46.2149 C   0  0  0  0  0  0  0  0  0  0  0  0
   56.7585   27.3780   45.4182 O   0  0  0  0  0  0  0  0  0  0  0  0
 17 18  2  0
 18 19  1  0
 19 20  2  0
 20 25  1  0
 25 26  1  0
 26 27  1  0
 27 28  2  0
 27 29  1  0
 29 30  1  0
 30 31  1  0
 19 21  1  0
 21 22  2  0
 22 23  1  0
 22 24  1  0
 24  1  1  0
  1  2  2  0
  2  3  1  0
  2  4  1  0
  4  5  2  0
  5  6  1  0
  6  7  2  0
  7  8  1  0
  8  9  2  0
  8 10  1  0
 10 11  1  0
 11 12  1  0
 12 13  1  0
 13 14  1  0
 14 15  1  0
 24 18  1  0
  7  1  1  0
 15 10  1  0
 30 25  2  0
 13 16  1  0
M  CHG 1  26  -1
M  CHG 1  29  -1
M  CHG 1  31  -1
M  END
> <UniqueID>
77

> <SMILES>
C=c1/c(=C\c2[n-]c(=O)[n-]c2[O-])cc(C)n1-c1c(F)cccc1C(=O)N1CCNCC1

> <Energy>
136.09474456539553

> <Genealogy>
C=c1c(=Cc2[n-]c(=O)[n-]c2[O-])cc(C)n1-c1c(F)cccc1C(=O)N1CCNCC1 (protonated)
C=c1/c(=C\c2[n-]c(=O)[n-]c2[O-])cc(C)n1-c1c(F)cccc1C(=O)N1CCNCC1 (cis-trans isomerization)
C=c1/c(=C\c2[n-]c(=O)[n-]c2[O-])cc(C)n1-c1c(F)cccc1C(=O)N1CCNCC1 (3D coordinates assigned)
C=c1/c(=C\c2[n-]c(=O)[n-]c2[O-])cc(C)n1-c1c(F)cccc1C(=O)N1CCNCC1 (nonaromatic ring conformer: 136.09474456539553 kcal/mol)

> <smiles>
C=c1c(=Cc2[nH]c(=O)[nH]c2O)cc(C)n1-c1c(F)cccc1C(=O)N1CCNCC1

> <score_type>
oracle

> <origin>
adg

> <m_score__min__energy>
-16.32

> <m_primary>
energy

> <minimizedAffinity>
-7.86939

> <minimizedRMSD>
1.09379

> <CNNscore>
0.4123072326

> <CNNaffinity>
6.8100028038

> <CNN_VS>
2.8078134060

> <CNNaffinity_variance>
0.0421452262

$$$$
87:0


 40 44  0  0  0  0  0  0  0  0999 V2000
   59.2335   28.7887   45.3472 C   0  0  0  0  0  0  0  0  0  0  0  0
   59.6109   28.7306   46.6324 C   0  0  0  0  0  0  0  0  0  0  0  0
   59.8655   27.5683   47.3655 C   0  0  0  0  0  0  0  0  0  0  0  0
   59.8592   26.2893   46.9422 C   0  0  0  0  0  0  0  0  0  0  0  0
   60.2058   27.9928   48.6487 C   0  0  0  0  0  0  0  0  0  0  0  0
   60.2210   29.3801   48.6341 C   0  0  0  0  0  0  0  0  0  0  0  0
   59.8113   29.8208   47.4142 N   0  0  0  0  0  0  0  0  0  0  0  0
   59.6623   31.1866   47.0023 C   0  0  0  0  0  0  0  0  0  0  0  0
   60.6856   31.8696   46.7418 O   0  0  0  0  0  0  0  0  0  0  0  0
   60.7176   30.2354   49.7424 C   0  0  0  0  0  0  0  0  0  0  0  0
   59.9148   30.6465   50.6190 O   0  0  0  0  0  0  0  0  0  0  0  0
   62.1099   30.6147   49.8414 N   0  0  0  0  0  0  0  0  0  0  0  0
   62.7512   31.3412   48.7343 C   0  0  0  0  0  0  0  0  0  0  0  0
   63.8105   32.3717   49.1758 C   0  0  0  0  0  0  0  0  0  0  0  0
   64.1189   32.4115   50.7002 C   0  0  0  0  0  0  0  0  0  0  0  0
   65.4918   33.0692   50.9314 C   0  0  0  0  0  0  0  0  0  0  0  0
   64.1936   30.9422   51.1903 C   0  0  0  0  0  0  0  0  0  0  0  0
   62.8417   30.2217   51.0489 C   0  0  0  0  0  0  0  0  0  0  0  0
   63.0830   33.1984   51.5021 C   0  0  0  0  0  0  0  0  0  0  0  0
   63.4341   33.7703   52.5689 O   0  0  0  0  0  0  0  0  0  0  0  0
   61.7268   33.3608   51.0569 N   0  0  0  0  0  0  0  0  0  0  0  0
   60.6243   33.2806   51.9952 C   0  0  0  0  0  0  0  0  0  0  0  0
   59.3717   33.6403   51.2048 C   0  0  0  0  0  0  0  0  0  0  0  0
   59.8312   34.0625   49.8055 C   0  0  0  0  0  0  0  0  0  0  0  0
   61.3542   34.0306   49.8151 C   0  0  0  0  0  0  0  0  0  0  0  0
   58.6686   25.6971   46.3163 C   0  0  0  0  0  0  0  0  0  0  0  0
   57.4227   26.1604   46.5028 N   0  0  0  0  0  0  0  0  0  0  0  0
   56.6455   25.1491   46.0580 C   0  0  0  0  0  0  0  0  0  0  0  0
   55.3866   25.2091   46.0756 O   0  0  0  0  0  0  0  0  0  0  0  0
   57.3208   24.0567   45.6290 N   0  0  0  0  0  0  0  0  0  0  0  0
   58.6003   24.4237   45.7995 C   0  0  0  0  0  0  0  0  0  0  0  0
   59.6877   23.5878   45.5699 O   0  0  0  0  0  0  0  0  0  0  0  0
   59.5534   22.7316   45.2138 H   0  0  0  0  0  0  0  0  0  0  0  0
   58.2859   31.7342   46.7289 C   0  0  0  0  0  0  0  0  0  0  0  0
   57.9687   31.7290   45.2548 C   0  0  0  0  0  0  0  0  0  0  0  0
   57.2174   30.6777   44.6990 C   0  0  0  0  0  0  0  0  0  0  0  0
   56.9337   30.6683   43.3288 C   0  0  0  0  0  0  0  0  0  0  0  0
   57.3936   31.7073   42.5113 C   0  0  0  0  0  0  0  0  0  0  0  0
   58.1397   32.7575   43.0571 C   0  0  0  0  0  0  0  0  0  0  0  0
   58.4295   32.7659   44.4241 C   0  0  0  0  0  0  0  0  0  0  0  0
  1  2  2  0
  2  3  1  0
  3  4  2  0
  4 26  1  0
 26 27  1  0
 27 28  1  0
 28 29  2  0
 28 30  1  0
 30 31  1  0
 31 32  1  0
  3  5  1  0
  5  6  2  0
  6 10  1  0
 10 11  2  0
 10 12  1  0
 12 13  1  0
 13 14  1  0
 14 15  1  0
 15 16  1  0
 15 19  1  0
 19 20  2  0
 19 21  1  0
 21 22  1  0
 22 23  1  0
 23 24  1  0
 24 25  1  0
 15 17  1  0
 17 18  1  0
  6  7  1  0
  7  8  1  0
  8  9  2  0
  8 34  1  0
 34 35  1  0
 35 36  2  0
 36 37  1  0
 37 38  2  0
 38 39  1  0
 39 40  2  0
  7  2  1  0
 40 35  1  0
 31 26  2  0
 18 12  1  0
 25 21  1  0
 32 33  1  0
M  CHG 1  27  -1
M  CHG 1  30  -1
M  END
> <UniqueID>
84

> <SMILES>
C=c1c(=Cc2[n-]c(=O)[n-]c2O)cc(C(=O)N2CCC(C)(C(=O)N3CCCC3)CC2)n1C(=O)Cc1ccccc1

> <Energy>
166.46070825824413

> <Genealogy>
C=c1c(=Cc2[n-]c(=O)[n-]c2O)cc(C(=O)N2CCC(C)(C(=O)N3CCCC3)CC2)n1C(=O)Cc1ccccc1 (protonated)
C=c1c(=Cc2[n-]c(=O)[n-]c2O)cc(C(=O)N2CCC(C)(C(=O)N3CCCC3)CC2)n1C(=O)Cc1ccccc1 (3D coordinates assigned)
C=c1c(=Cc2[n-]c(=O)[n-]c2O)cc(C(=O)N2CCC(C)(C(=O)N3CCCC3)CC2)n1C(=O)Cc1ccccc1 (nonaromatic ring conformer: 166.46070825824413 kcal/mol)

> <smiles>
C=c1c(=Cc2[nH]c(=O)[nH]c2O)cc(C(=O)N2CCC(C)(C(=O)N3CCCC3)CC2)n1C(=O)Cc1ccccc1

> <score_type>
oracle

> <origin>
adg

> <m_score__min__energy>
-14.199999999999999

> <m_primary>
energy

> <minimizedAffinity>
-8.76427

> <minimizedRMSD>
1.07572

> <CNNscore>
0.2538180053

> <CNNaffinity>
7.2553877831

> <CNN_VS>
1.8415480852

> <CNNaffinity_variance>
0.1587738693

$$$$
8:0


 27 30  0  0  0  0  0  0  0  0999 V2000
   60.5291   26.7375   46.1482 C   0  0  0  0  0  0  0  0  0  0  0  0
   59.4001   27.4190   45.8975 C   0  0  0  0  0  0  0  0  0  0  0  0
   58.1738   26.8987   45.4789 C   0  0  0  0  0  0  0  0  0  0  0  0
   57.8760   25.6076   45.2465 C   0  0  0  0  0  0  0  0  0  0  0  0
   57.2896   27.9109   45.3317 N   0  0  0  0  0  0  0  0  0  0  0  0
   57.9912   29.0122   45.6595 C   0  0  0  0  0  0  0  0  0  0  0  0
   57.4904   30.1687   45.6335 O   0  0  0  0  0  0  0  0  0  0  0  0
   59.2691   28.7600   46.0132 N   0  0  0  0  0  0  0  0  0  0  0  0
   57.1503   24.7501   46.2055 C   0  0  0  0  0  0  0  0  0  0  0  0
   57.6911   23.7482   46.9246 N   0  0  0  0  0  0  0  0  0  0  0  0
   56.6470   23.2749   47.6394 C   0  0  0  0  0  0  0  0  0  0  0  0
   56.7564   22.3165   48.4460 O   0  0  0  0  0  0  0  0  0  0  0  0
   55.4758   23.9106   47.4197 N   0  0  0  0  0  0  0  0  0  0  0  0
   55.8124   24.8400   46.5102 C   0  0  0  0  0  0  0  0  0  0  0  0
   54.9149   25.7527   45.9716 O   0  0  0  0  0  0  0  0  0  0  0  0
   60.2893   29.7550   46.3679 C   0  0  0  0  0  0  0  0  0  0  0  0
   59.9974   30.3475   47.7226 C   0  0  0  0  0  0  0  0  0  0  0  0
   59.7772   31.7249   47.8697 C   0  0  0  0  0  0  0  0  0  0  0  0
   59.4955   32.2662   49.1264 C   0  0  0  0  0  0  0  0  0  0  0  0
   59.4300   31.4418   50.2674 C   0  0  0  0  0  0  0  0  0  0  0  0
   59.6587   30.0604   50.1111 C   0  0  0  0  0  0  0  0  0  0  0  0
   59.9398   29.5218   48.8528 C   0  0  0  0  0  0  0  0  0  0  0  0
   59.1362   32.0018   51.5694 N   0  0  0  0  0  0  0  0  0  0  0  0
   59.2039   33.4225   51.8776 C   0  0  0  0  0  0  0  0  0  0  0  0
   58.9863   33.5324   53.3799 C   0  0  0  0  0  0  0  0  0  0  0  0
   58.3629   32.2100   53.8079 C   0  0  0  0  0  0  0  0  0  0  0  0
   58.7348   31.2090   52.7227 C   0  0  0  0  0  0  0  0  0  0  0  0
  1  2  2  0
  2  3  1  0
  3  4  2  0
  4  9  1  0
  9 10  1  0
 10 11  1  0
 11 12  2  0
 11 13  1  0
 13 14  1  0
 14 15  1  0
  3  5  1  0
  5  6  1  0
  6  7  2  0
  6  8  1  0
  8 16  1  0
 16 17  1  0
 17 18  2  0
 18 19  1  0
 19 20  2  0
 20 23  1  0
 23 24  1  0
 24 25  1  0
 25 26  1  0
 26 27  1  0
 20 21  1  0
 21 22  2  0
  8  2  1  0
 22 17  1  0
 14  9  2  0
 27 23  1  0
M  CHG 1   5  -1
M  CHG 1  10  -1
M  CHG 1  13  -1
M  CHG 1  15  -1
M  END
> <UniqueID>
8

> <SMILES>
C=c1/c(=C/c2[n-]c(=O)[n-]c2[O-])[n-]c(=O)n1Cc1ccc(N2CCCC2)cc1

> <Energy>
111.80194632892461

> <Genealogy>
C=c1c(=Cc2[n-]c(=O)[n-]c2[O-])[n-]c(=O)n1Cc1ccc(N2CCCC2)cc1 (protonated)
C=c1/c(=C/c2[n-]c(=O)[n-]c2[O-])[n-]c(=O)n1Cc1ccc(N2CCCC2)cc1 (cis-trans isomerization)
C=c1/c(=C/c2[n-]c(=O)[n-]c2[O-])[n-]c(=O)n1Cc1ccc(N2CCCC2)cc1 (3D coordinates assigned)
C=c1/c(=C/c2[n-]c(=O)[n-]c2[O-])[n-]c(=O)n1Cc1ccc(N2CCCC2)cc1 (nonaromatic ring conformer: 111.80194632892461 kcal/mol)

> <smiles>
C=c1c(=Cc2[nH]c(=O)[nH]c2O)[nH]c(=O)n1Cc1ccc(N2CCCC2)cc1

> <score_type>
oracle

> <origin>
adg

> <m_score__min__energy>
-17.469999999999999

> <m_primary>
energy

> <minimizedAffinity>
-7.59283

> <minimizedRMSD>
1.65267

> <CNNscore>
0.3713468015

> <CNNaffinity>
6.7096538544

> <CNN_VS>
2.4916083813

> <CNNaffinity_variance>
0.3273406923

$$$$
13:0


 30 33  0  0  0  0  0  0  0  0999 V2000
   60.7674   27.0910   48.9117 C   0  0  0  0  0  0  0  0  0  0  0  0
   60.1051   28.0169   48.1982 C   0  0  0  0  0  0  0  0  0  0  0  0
   59.2342   27.7707   47.1201 C   0  0  0  0  0  0  0  0  0  0  0  0
   58.9891   26.6480   46.4149 C   0  0  0  0  0  0  0  0  0  0  0  0
   58.5938   28.9670   46.8584 C   0  0  0  0  0  0  0  0  0  0  0  0
   59.1331   29.9050   47.7109 C   0  0  0  0  0  0  0  0  0  0  0  0
   60.0634   29.3409   48.5196 N   0  0  0  0  0  0  0  0  0  0  0  0
   58.6962   31.3117   47.7689 C   0  0  0  0  0  0  0  0  0  0  0  0
   58.5296   31.8554   48.8944 O   0  0  0  0  0  0  0  0  0  0  0  0
   58.4767   32.0701   46.5639 N   0  0  0  0  0  0  0  0  0  0  0  0
   58.4421   33.5340   46.6334 C   0  0  0  0  0  0  0  0  0  0  0  0
   58.7615   34.1287   45.2584 C   0  0  0  0  0  0  0  0  0  0  0  0
   57.9234   33.5720   44.2647 O   0  0  0  0  0  0  0  0  0  0  0  0
   58.2041   32.1922   44.1255 C   0  0  0  0  0  0  0  0  0  0  0  0
   57.8415   31.4318   45.4035 C   0  0  0  0  0  0  0  0  0  0  0  0
   57.8762   25.7122   46.6405 C   0  0  0  0  0  0  0  0  0  0  0  0
   57.9843   24.5975   47.3825 N   0  0  0  0  0  0  0  0  0  0  0  0
   56.7187   24.1253   47.4210 C   0  0  0  0  0  0  0  0  0  0  0  0
   56.4108   23.0615   48.0205 O   0  0  0  0  0  0  0  0  0  0  0  0
   55.8084   24.8853   46.7772 N   0  0  0  0  0  0  0  0  0  0  0  0
   56.5536   25.8965   46.3016 C   0  0  0  0  0  0  0  0  0  0  0  0
   56.0323   26.9745   45.5994 O   0  0  0  0  0  0  0  0  0  0  0  0
   60.7224   30.0294   49.6436 C   0  0  0  0  0  0  0  0  0  0  0  0
   61.5914   31.1528   49.1376 C   0  0  0  0  0  0  0  0  0  0  0  0
   61.8233   32.2857   49.9358 C   0  0  0  0  0  0  0  0  0  0  0  0
   62.5975   33.3439   49.4519 C   0  0  0  0  0  0  0  0  0  0  0  0
   63.1505   33.2800   48.1704 C   0  0  0  0  0  0  0  0  0  0  0  0
   63.8986   34.3091   47.7004 F   0  0  0  0  0  0  0  0  0  0  0  0
   62.9297   32.1547   47.3712 C   0  0  0  0  0  0  0  0  0  0  0  0
   62.1537   31.0945   47.8503 C   0  0  0  0  0  0  0  0  0  0  0  0
  1  2  2  0
  2  3  1  0
  3  4  2  0
  4 16  1  0
 16 17  1  0
 17 18  1  0
 18 19  2  0
 18 20  1  0
 20 21  1  0
 21 22  1  0
  3  5  1  0
  5  6  2  0
  6  8  1  0
  8  9  2  0
  8 10  1  0
 10 11  1  0
 11 12  1  0
 12 13  1  0
 13 14  1  0
 14 15  1  0
  6  7  1  0
  7 23  1  0
 23 24  1  0
 24 25  2  0
 25 26  1  0
 26 27  2  0
 27 28  1  0
 27 29  1  0
 29 30  2  0
  7  2  1  0
 30 24  1  0
 21 16  2  0
 15 10  1  0
M  CHG 1  17  -1
M  CHG 1  20  -1
M  CHG 1  22  -1
M  END
> <UniqueID>
13

> <SMILES>
C=c1c(=Cc2[n-]c(=O)[n-]c2[O-])cc(C(=O)N2CCOCC2)n1Cc1ccc(F)cc1

> <Energy>
127.03138823671057

> <Genealogy>
C=c1c(=Cc2[n-]c(=O)[n-]c2[O-])cc(C(=O)N2CCOCC2)n1Cc1ccc(F)cc1 (protonated)
C=c1c(=Cc2[n-]c(=O)[n-]c2[O-])cc(C(=O)N2CCOCC2)n1Cc1ccc(F)cc1 (3D coordinates assigned)
C=c1c(=Cc2[n-]c(=O)[n-]c2[O-])cc(C(=O)N2CCOCC2)n1Cc1ccc(F)cc1 (nonaromatic ring conformer: 127.03138823671057 kcal/mol)

> <smiles>
C=c1c(=Cc2[nH]c(=O)[nH]c2O)cc(C(=O)N2CCOCC2)n1Cc1ccc(F)cc1

> <score_type>
oracle

> <origin>
adg

> <m_score__min__energy>
-16.449999999999999

> <m_primary>
energy

> <minimizedAffinity>
-7.31752

> <minimizedRMSD>
1.20420

> <CNNscore>
0.5564368963

> <CNNaffinity>
6.6959185600

> <CNN_VS>
3.7258560658

> <CNNaffinity_variance>
0.0133979889

$$$$
30:0


 28 30  0  0  0  0  0  0  0  0999 V2000
   57.3566   30.8246   51.9237 C   0  0  0  0  0  0  0  0  0  0  0  0
   57.9791   29.7910   52.6423 C   0  0  0  0  0  0  0  0  0  0  0  0
   59.3350   29.5157   52.4456 C   0  0  0  0  0  0  0  0  0  0  0  0
   60.0854   30.2731   51.5422 C   0  0  0  0  0  0  0  0  0  0  0  0
   61.4002   29.9848   51.3732 F   0  0  0  0  0  0  0  0  0  0  0  0
   59.4810   31.3259   50.8338 C   0  0  0  0  0  0  0  0  0  0  0  0
   58.1184   31.5972   51.0346 C   0  0  0  0  0  0  0  0  0  0  0  0
   55.2332   28.9684   52.5820 O   0  0  0  0  0  0  0  0  0  0  0  0
   54.9759   30.2015   52.5546 C   0  0  0  0  0  0  0  0  0  0  0  0
   55.9690   31.1470   52.1248 N   0  0  0  0  0  0  0  0  0  0  0  0
   55.6818   32.0737   51.9575 H   0  0  0  0  0  0  0  0  0  0  0  0
   53.5945   30.6712   52.8835 C   0  0  0  0  0  0  0  0  0  0  0  0
   52.7559   30.7044   51.6442 C   0  0  0  0  0  0  0  0  0  0  0  0
   52.8596   29.8173   50.6392 N   0  0  0  0  0  0  0  0  0  0  0  0
   51.8791   30.1951   49.7902 C   0  0  0  0  0  0  0  0  0  0  0  0
   51.6543   29.5997   48.7053 O   0  0  0  0  0  0  0  0  0  0  0  0
   51.1530   31.2590   50.1986 N   0  0  0  0  0  0  0  0  0  0  0  0
   51.7184   31.5639   51.3774 C   0  0  0  0  0  0  0  0  0  0  0  0
   51.2900   32.6023   52.1956 O   0  0  0  0  0  0  0  0  0  0  0  0
   60.4148   32.3152   49.7052 S   0  0  0  0  0  0  0  0  0  0  0  0
   61.5704   31.5095   49.1821 O   0  0  0  0  0  0  0  0  0  0  0  0
   60.9748   33.5079   50.4299 O   0  0  0  0  0  0  0  0  0  0  0  0
   59.4389   32.8605   48.3620 N   0  0  0  0  0  0  0  0  0  0  0  0
   59.4393   31.8568   47.2861 C   0  0  0  0  0  0  0  0  0  0  0  0
   58.3943   32.2194   46.2113 C   0  0  0  0  0  0  0  0  0  0  0  0
   58.0515   33.7187   46.2090 C   0  0  0  0  0  0  0  0  0  0  0  0
   59.2859   34.5671   46.5242 C   0  0  0  0  0  0  0  0  0  0  0  0
   59.9301   34.1637   47.8706 C   0  0  0  0  0  0  0  0  0  0  0  0
  8  9  2  0
  9 12  1  0
 12 13  1  0
 13 14  1  0
 14 15  1  0
 15 16  2  0
 15 17  1  0
 17 18  1  0
 18 19  1  0
  9 10  1  0
 10  1  1  0
  1  2  2  0
  2  3  1  0
  3  4  2  0
  4  5  1  0
  4  6  1  0
  6 20  1  0
 20 21  2  0
 20 22  2  0
 20 23  1  0
 23 24  1  0
 24 25  1  0
 25 26  1  0
 26 27  1  0
 27 28  1  0
  6  7  2  0
 18 13  2  0
  7  1  1  0
 28 23  1  0
 10 11  1  0
M  CHG 1  14  -1
M  CHG 1  17  -1
M  CHG 1  19  -1
M  END
> <UniqueID>
29

> <SMILES>
O=C(Cc1[n-]c(=O)[n-]c1[O-])Nc1ccc(F)c(S(=O)(=O)N2CCCCC2)c1

> <Energy>
77.41214535518108

> <Genealogy>
O=C(Cc1[n-]c(=O)[n-]c1[O-])Nc1ccc(F)c(S(=O)(=O)N2CCCCC2)c1 (protonated)
O=C(Cc1[n-]c(=O)[n-]c1[O-])Nc1ccc(F)c(S(=O)(=O)N2CCCCC2)c1 (3D coordinates assigned)
O=C(Cc1[n-]c(=O)[n-]c1[O-])Nc1ccc(F)c(S(=O)(=O)N2CCCCC2)c1 (nonaromatic ring conformer: 77.41214535518108 kcal/mol)

> <smiles>
O=C(Cc1[nH]c(=O)[nH]c1O)Nc1ccc(F)c(S(=O)(=O)N2CCCCC2)c1

> <score_type>
oracle

> <origin>
adg

> <m_score__min__energy>
-17.789999999999999

> <m_primary>
energy

> <minimizedAffinity>
-6.80705

> <minimizedRMSD>
1.14355

> <CNNscore>
0.4976121783

> <CNNaffinity>
6.2195487022

> <CNN_VS>
3.0949232578

> <CNNaffinity_variance>
0.2188196033

$$$$
31:0


 25 27  0  0  0  0  0  0  0  0999 V2000
   57.8793   29.4201   45.1738 C   0  0  0  0  0  0  0  0  0  0  0  0
   59.2712   29.5539   45.1899 C   0  0  0  0  0  0  0  0  0  0  0  0
   60.0822   28.4534   45.4687 C   0  0  0  0  0  0  0  0  0  0  0  0
   59.5094   27.2032   45.7114 C   0  0  0  0  0  0  0  0  0  0  0  0
   58.1153   27.0347   45.6575 C   0  0  0  0  0  0  0  0  0  0  0  0
   57.3045   28.1552   45.3914 C   0  0  0  0  0  0  0  0  0  0  0  0
   57.5324   25.6940   45.8978 C   0  0  0  0  0  0  0  0  0  0  0  0
   58.2608   24.5614   45.9200 N   0  0  0  0  0  0  0  0  0  0  0  0
   57.3483   23.5950   46.1547 C   0  0  0  0  0  0  0  0  0  0  0  0
   57.6558   22.3792   46.2491 O   0  0  0  0  0  0  0  0  0  0  0  0
   56.0789   24.0360   46.2735 N   0  0  0  0  0  0  0  0  0  0  0  0
   56.2056   25.3623   46.1049 C   0  0  0  0  0  0  0  0  0  0  0  0
   55.1274   26.2417   46.1093 O   0  0  0  0  0  0  0  0  0  0  0  0
   54.2606   25.9194   46.2597 H   0  0  0  0  0  0  0  0  0  0  0  0
   57.0800   30.5726   44.8718 N   0  0  0  0  0  0  0  0  0  0  0  0
   58.0011   32.2533   43.5228 O   0  0  0  0  0  0  0  0  0  0  0  0
   57.5637   31.9027   44.6529 C   0  0  0  0  0  0  0  0  0  0  0  0
   57.5513   32.8861   45.7778 C   0  0  0  0  0  0  0  0  0  0  0  0
   58.8845   32.8788   46.4769 C   0  0  0  0  0  0  0  0  0  0  0  0
   59.0988   32.0191   47.5689 C   0  0  0  0  0  0  0  0  0  0  0  0
   60.3199   32.0350   48.2497 C   0  0  0  0  0  0  0  0  0  0  0  0
   61.3321   32.9124   47.8541 C   0  0  0  0  0  0  0  0  0  0  0  0
   61.1225   33.7808   46.7798 C   0  0  0  0  0  0  0  0  0  0  0  0
   59.9031   33.7712   46.0933 C   0  0  0  0  0  0  0  0  0  0  0  0
   59.7153   34.6341   45.0623 F   0  0  0  0  0  0  0  0  0  0  0  0
 16 17  2  0
 17 18  1  0
 18 19  1  0
 19 20  2  0
 20 21  1  0
 21 22  2  0
 22 23  1  0
 23 24  2  0
 24 25  1  0
 17 15  1  0
 15  1  1  0
  1  2  2  0
  2  3  1  0
  3  4  2  0
  4  5  1  0
  5  7  1  0
  7  8  1  0
  8  9  1  0
  9 10  2  0
  9 11  1  0
 11 12  1  0
 12 13  1  0
  5  6  2  0
 24 19  1  0
  6  1  1  0
 12  7  2  0
 13 14  1  0
M  CHG 1   8  -1
M  CHG 1  11  -1
M  CHG 1  15  -1
M  END
> <UniqueID>
30

> <SMILES>
O=C(Cc1ccccc1F)[N-]c1cccc(-c2[n-]c(=O)[n-]c2O)c1

> <Energy>
71.27932764316415

> <Genealogy>
O=C(Cc1ccccc1F)[N-]c1cccc(-c2[n-]c(=O)[n-]c2O)c1 (protonated)
O=C(Cc1ccccc1F)[N-]c1cccc(-c2[n-]c(=O)[n-]c2O)c1 (3D coordinates assigned)
O=C(Cc1ccccc1F)[N-]c1cccc(-c2[n-]c(=O)[n-]c2O)c1 (optimized conformer: 71.27932764316415 kcal/mol)

> <smiles>
O=C(Cc1ccccc1F)Nc1cccc(-c2[nH]c(=O)[nH]c2O)c1

> <score_type>
oracle

> <origin>
adg

> <m_score__min__energy>
-14.49

> <m_primary>
energy

> <minimizedAffinity>
-8.92023

> <minimizedRMSD>
0.96500

> <CNNscore>
0.8760505915

> <CNNaffinity>
7.2003836632

> <CNN_VS>
6.3079004288

> <CNNaffinity_variance>
0.4157598019

$$$$
53:0


 34 36  0  0  0  0  0  0  0  0999 V2000
   58.9251   30.1331   47.6473 C   0  0  0  0  0  0  0  0  0  0  0  0
   57.8624   30.5714   47.0443 N   0  0  0  0  0  0  0  0  0  0  0  0
   57.8649   31.0788   45.7272 N   0  0  0  0  0  0  0  0  0  0  0  0
   58.2249   32.3772   45.4620 C   0  0  0  0  0  0  0  0  0  0  0  0
   58.6243   33.2330   46.4827 O   0  0  0  0  0  0  0  0  0  0  0  0
   58.2294   32.8517   44.1512 C   0  0  0  0  0  0  0  0  0  0  0  0
   57.9066   31.9724   43.1228 C   0  0  0  0  0  0  0  0  0  0  0  0
   57.9144   32.3643   41.9256 O   0  0  0  0  0  0  0  0  0  0  0  0
   57.5959   30.6854   43.4114 N   0  0  0  0  0  0  0  0  0  0  0  0
   57.5687   30.2284   44.6953 C   0  0  0  0  0  0  0  0  0  0  0  0
   57.2907   28.9791   44.9439 N   0  0  0  0  0  0  0  0  0  0  0  0
   58.2238   27.9841   45.3925 C   0  0  0  0  0  0  0  0  0  0  0  0
   59.5950   28.2545   45.2973 C   0  0  0  0  0  0  0  0  0  0  0  0
   60.5341   27.3143   45.7336 C   0  0  0  0  0  0  0  0  0  0  0  0
   60.1068   26.1042   46.2852 C   0  0  0  0  0  0  0  0  0  0  0  0
   58.7393   25.8397   46.4194 C   0  0  0  0  0  0  0  0  0  0  0  0
   57.7949   26.7812   45.9920 C   0  0  0  0  0  0  0  0  0  0  0  0
   56.4425   26.5264   46.1901 O   0  0  0  0  0  0  0  0  0  0  0  0
   60.6558   31.4437   50.5845 C   0  0  0  0  0  0  0  0  0  0  0  0
   60.4159   30.4045   49.6918 C   0  0  0  0  0  0  0  0  0  0  0  0
   60.8898   28.9852   49.7924 C   0  0  0  0  0  0  0  0  0  0  0  0
   59.5110   30.8948   48.7617 C   0  0  0  0  0  0  0  0  0  0  0  0
   59.2089   32.1795   49.0344 N   0  0  0  0  0  0  0  0  0  0  0  0
   59.9090   32.5243   50.1318 C   0  0  0  0  0  0  0  0  0  0  0  0
   59.8168   33.8754   50.7722 C   0  0  0  0  0  0  0  0  0  0  0  0
   58.5931   32.7566   48.5274 H   0  0  0  0  0  0  0  0  0  0  0  0
   61.5371   31.4137   51.7702 C   0  0  0  0  0  0  0  0  0  0  0  0
   61.0580   31.0829   52.8866 O   0  0  0  0  0  0  0  0  0  0  0  0
   63.5183   32.6170   50.9983 C   0  0  0  0  0  0  0  0  0  0  0  0
   62.9463   31.6581   51.6693 N   0  0  0  0  0  0  0  0  0  0  0  0
   64.0886   32.4342   49.6152 C   0  0  0  0  0  0  0  0  0  0  0  0
   63.0662   32.7485   48.5950 N   0  0  0  0  0  0  0  0  0  0  0  0
   63.3839   34.0149   47.9093 C   0  0  0  0  0  0  0  0  0  0  0  0
   62.9787   31.6638   47.6076 C   0  0  0  0  0  0  0  0  0  0  0  0
 29 30  2  0
 30 27  1  0
 27 28  2  0
 27 19  1  0
 19 20  1  0
 20 21  1  0
 20 22  2  0
 22  1  1  0
  1  2  2  0
  2  3  1  0
  3  4  1  0
  4  5  1  0
  4  6  2  0
  6  7  1  0
  7  8  2  0
  7  9  1  0
  9 10  1  0
 10 11  2  0
 11 12  1  0
 12 13  2  0
 13 14  1  0
 14 15  2  0
 15 16  1  0
 16 17  2  0
 17 18  1  0
 22 23  1  0
 23 24  1  0
 24 25  1  0
 29 31  1  0
 31 32  1  0
 32 33  1  0
 32 34  1  0
 24 19  2  0
 10  3  1  0
 17 12  1  0
 23 26  1  0
M  CHG 1   5  -1
M  CHG 1   9  -1
M  CHG 1  18  -1
M  END
> <UniqueID>
50

> <SMILES>
Cc1[nH]c(/C=N/n2c([O-])cc(=O)[n-]c2=Nc2ccccc2[O-])c(C)c1C(=O)N=CCN(C)C

> <Energy>
104.42604022045964

> <Genealogy>
Cc1[nH]c(C=Nn2c([O-])cc(=O)[n-]c2=Nc2ccccc2[O-])c(C)c1C(=O)N=CCN(C)C (protonated)
Cc1[nH]c(/C=N/n2c([O-])cc(=O)[n-]c2=Nc2ccccc2[O-])c(C)c1C(=O)N=CCN(C)C (cis-trans isomerization)
Cc1[nH]c(/C=N/n2c([O-])cc(=O)[n-]c2=Nc2ccccc2[O-])c(C)c1C(=O)N=CCN(C)C (3D coordinates assigned)
Cc1[nH]c(/C=N/n2c([O-])cc(=O)[n-]c2=Nc2ccccc2[O-])c(C)c1C(=O)N=CCN(C)C (optimized conformer: 104.42604022045964 kcal/mol)

> <smiles>
Cc1[nH]c(C=Nn2c(O)cc(=O)[nH]c2=Nc2ccccc2O)c(C)c1C(=O)N=CCN(C)C

> <score_type>
oracle

> <origin>
adg

> <m_score__min__energy>
-14.710000000000001

> <m_primary>
energy

> <minimizedAffinity>
-6.33603

> <minimizedRMSD>
1.31033

> <CNNscore>
0.1755127609

> <CNNaffinity>
6.3606934547

> <CNN_VS>
1.1163828373

> <CNNaffinity_variance>
0.7871708274

$$$$
58:0


 33 36  0  0  0  0  0  0  0  0999 V2000
   59.1239   27.6343   46.4533 N   0  0  0  0  0  0  0  0  0  0  0  0
   59.4671   27.8778   45.1686 C   0  0  0  0  0  0  0  0  0  0  0  0
   60.4485   28.9219   44.7279 C   0  0  0  0  0  0  0  0  0  0  0  0
   58.7707   27.0441   44.3162 C   0  0  0  0  0  0  0  0  0  0  0  0
   57.9640   26.2440   45.1161 C   0  0  0  0  0  0  0  0  0  0  0  0
   57.1404   25.2671   44.6899 C   0  0  0  0  0  0  0  0  0  0  0  0
   58.2069   26.6344   46.4361 C   0  0  0  0  0  0  0  0  0  0  0  0
   57.6094   26.1453   47.5350 C   0  0  0  0  0  0  0  0  0  0  0  0
   56.8259   24.0586   45.4850 C   0  0  0  0  0  0  0  0  0  0  0  0
   55.5320   23.8693   45.9923 C   0  0  0  0  0  0  0  0  0  0  0  0
   54.5433   24.8249   45.7864 O   0  0  0  0  0  0  0  0  0  0  0  0
   55.2378   22.7483   46.7010 N   0  0  0  0  0  0  0  0  0  0  0  0
   56.1743   21.7906   46.9201 C   0  0  0  0  0  0  0  0  0  0  0  0
   55.8801   20.7645   47.5843 O   0  0  0  0  0  0  0  0  0  0  0  0
   57.4276   21.9371   46.4176 N   0  0  0  0  0  0  0  0  0  0  0  0
   57.7717   23.0386   45.6995 C   0  0  0  0  0  0  0  0  0  0  0  0
   58.9332   23.1232   45.2193 O   0  0  0  0  0  0  0  0  0  0  0  0
   59.9825   30.3893   48.8492 C   0  0  0  0  0  0  0  0  0  0  0  0
   60.6734   29.6661   49.8366 C   0  0  0  0  0  0  0  0  0  0  0  0
   60.8587   28.2879   49.7053 C   0  0  0  0  0  0  0  0  0  0  0  0
   60.3502   27.6130   48.5918 C   0  0  0  0  0  0  0  0  0  0  0  0
   60.5524   26.2783   48.4678 F   0  0  0  0  0  0  0  0  0  0  0  0
   59.6445   28.3192   47.6048 C   0  0  0  0  0  0  0  0  0  0  0  0
   59.4647   29.7042   47.7376 C   0  0  0  0  0  0  0  0  0  0  0  0
   59.4769   34.1289   47.5728 N   0  0  0  0  0  0  0  0  0  0  0  0
   58.2223   33.4607   48.0110 C   0  0  0  0  0  0  0  0  0  0  0  0
   58.4293   32.3777   49.0890 C   0  0  0  0  0  0  0  0  0  0  0  0
   59.7768   31.8071   48.9914 N   0  0  0  0  0  0  0  0  0  0  0  0
   60.9236   32.7189   49.0523 C   0  0  0  0  0  0  0  0  0  0  0  0
   60.5059   34.1409   48.6407 C   0  0  0  0  0  0  0  0  0  0  0  0
   59.9739   33.5819   46.2901 C   0  0  0  0  0  0  0  0  0  0  0  0
   58.2803   33.2581   44.5002 C   0  0  0  0  0  0  0  0  0  0  0  0
   59.1345   34.0634   45.1362 C   0  0  0  0  0  0  0  0  0  0  0  0
 32 33  2  0
 33 31  1  0
 31 25  1  0
 25 26  1  0
 26 27  1  0
 27 28  1  0
 28 18  1  0
 18 19  2  0
 19 20  1  0
 20 21  2  0
 21 22  1  0
 21 23  1  0
 23  1  1  0
  1  2  1  0
  2  3  1  0
  2  4  2  0
  4  5  1  0
  5  6  2  0
  6  9  1  0
  9 10  2  0
 10 11  1  0
 10 12  1  0
 12 13  1  0
 13 14  2  0
 13 15  1  0
 15 16  1  0
 16 17  2  0
  5  7  1  0
  7  8  2  0
 23 24  2  0
 28 29  1  0
 29 30  1  0
 30 25  1  0
 24 18  1  0
  7  1  1  0
 16  9  1  0
M  CHG 1  11  -1
M  CHG 1  12  -1
M  CHG 1  15  -1
M  END
> <UniqueID>
55

> <SMILES>
C=CCN1CCN(c2ccc(F)c(-n3c(C)cc(=Cc4c([O-])[n-]c(=O)[n-]c4=O)c3=C)c2)CC1

> <Energy>
115.25379186309074

> <Genealogy>
C=CCN1CCN(c2ccc(F)c(-n3c(C)cc(=Cc4c([O-])[n-]c(=O)[n-]c4=O)c3=C)c2)CC1 (protonated)
C=CCN1CCN(c2ccc(F)c(-n3c(C)cc(=Cc4c([O-])[n-]c(=O)[n-]c4=O)c3=C)c2)CC1 (3D coordinates assigned)
C=CCN1CCN(c2ccc(F)c(-n3c(C)cc(=Cc4c([O-])[n-]c(=O)[n-]c4=O)c3=C)c2)CC1 (nonaromatic ring conformer: 115.25379186309074 kcal/mol)

> <smiles>
C=CCN1CCN(c2ccc(F)c(-n3c(C)cc(=Cc4c(O)[nH]c(=O)[nH]c4=O)c3=C)c2)CC1

> <score_type>
oracle

> <origin>
adg

> <m_score__min__energy>
-16.300000000000001

> <m_primary>
energy

> <minimizedAffinity>
-7.36825

> <minimizedRMSD>
1.28977

> <CNNscore>
0.1194685251

> <CNNaffinity>
6.6324138641

> <CNN_VS>
0.7923647165

> <CNNaffinity_variance>
0.1367707700

$$$$
64:0


 36 40  0  0  0  0  0  0  0  0999 V2000
   60.4104   29.4270   52.1752 C   0  0  0  0  0  0  0  0  0  0  0  0
   59.4139   28.6005   52.5397 C   0  0  0  0  0  0  0  0  0  0  0  0
   58.6159   29.0703   53.5834 O   0  0  0  0  0  0  0  0  0  0  0  0
   59.1926   30.5786   54.0687 S   0  0  0  0  0  0  0  0  0  0  0  0
   58.1843   31.6646   53.8216 O   0  0  0  0  0  0  0  0  0  0  0  0
   59.6756   30.5642   55.4917 O   0  0  0  0  0  0  0  0  0  0  0  0
   60.4912   30.6358   52.9490 N   0  0  0  0  0  0  0  0  0  0  0  0
   61.3958   29.0739   51.0942 C   0  0  0  0  0  0  0  0  0  0  0  0
   60.6192   30.2300   46.4843 C   0  0  0  0  0  0  0  0  0  0  0  0
   60.3658   29.6996   47.6855 C   0  0  0  0  0  0  0  0  0  0  0  0
   61.1503   29.9520   48.7525 N   0  0  0  0  0  0  0  0  0  0  0  0
   60.7439   29.1392   49.7457 C   0  0  0  0  0  0  0  0  0  0  0  0
   59.6744   28.3691   49.3324 C   0  0  0  0  0  0  0  0  0  0  0  0
   59.4031   28.7352   48.0243 C   0  0  0  0  0  0  0  0  0  0  0  0
   58.3920   28.2027   47.3102 C   0  0  0  0  0  0  0  0  0  0  0  0
   61.8832   30.6078   48.7970 H   0  0  0  0  0  0  0  0  0  0  0  0
   58.4021   26.8810   46.6679 C   0  0  0  0  0  0  0  0  0  0  0  0
   59.5004   26.1131   46.5623 N   0  0  0  0  0  0  0  0  0  0  0  0
   59.0273   24.9618   46.0355 C   0  0  0  0  0  0  0  0  0  0  0  0
   59.7703   23.9837   45.7681 O   0  0  0  0  0  0  0  0  0  0  0  0
   57.6926   24.9389   45.8274 N   0  0  0  0  0  0  0  0  0  0  0  0
   57.3087   26.1550   46.2478 C   0  0  0  0  0  0  0  0  0  0  0  0
   55.9874   26.5833   46.2707 O   0  0  0  0  0  0  0  0  0  0  0  0
   61.1629   31.8736   52.5556 C   0  0  0  0  0  0  0  0  0  0  0  0
   60.6414   32.3400   51.2249 C   0  0  0  0  0  0  0  0  0  0  0  0
   59.3127   32.0792   50.8632 C   0  0  0  0  0  0  0  0  0  0  0  0
   58.8291   32.4747   49.6141 C   0  0  0  0  0  0  0  0  0  0  0  0
   59.6705   33.1327   48.6991 C   0  0  0  0  0  0  0  0  0  0  0  0
   61.0073   33.3827   49.0618 C   0  0  0  0  0  0  0  0  0  0  0  0
   61.4890   32.9857   50.3123 C   0  0  0  0  0  0  0  0  0  0  0  0
   59.1589   33.5519   47.3692 C   0  0  0  0  0  0  0  0  0  0  0  0
   59.9126   34.4174   46.5517 C   0  0  0  0  0  0  0  0  0  0  0  0
   59.4285   34.8106   45.3000 C   0  0  0  0  0  0  0  0  0  0  0  0
   58.1908   34.3450   44.8501 C   0  0  0  0  0  0  0  0  0  0  0  0
   57.4333   33.4875   45.6508 C   0  0  0  0  0  0  0  0  0  0  0  0
   57.9126   33.0915   46.9044 C   0  0  0  0  0  0  0  0  0  0  0  0
  9 10  2  0
 10 11  1  0
 11 12  1  0
 12  8  1  0
  8  1  1  0
  1  2  2  0
  2  3  1  0
  3  4  1  0
  4  5  2  0
  4  6  2  0
  4  7  1  0
  7 24  1  0
 24 25  1  0
 25 26  2  0
 26 27  1  0
 27 28  2  0
 28 31  1  0
 31 32  2  0
 32 33  1  0
 33 34  2  0
 34 35  1  0
 35 36  2  0
 28 29  1  0
 29 30  2  0
 12 13  2  0
 13 14  1  0
 14 15  2  0
 15 17  1  0
 17 18  1  0
 18 19  1  0
 19 20  2  0
 19 21  1  0
 21 22  1  0
 22 23  1  0
 14 10  1  0
 22 17  2  0
  7  1  1  0
 30 25  1  0
 36 31  1  0
 11 16  1  0
M  CHG 1  18  -1
M  CHG 1  21  -1
M  CHG 1  23  -1
M  END
> <UniqueID>
61

> <SMILES>
C=c1[nH]c(CC2=COS(=O)(=O)N2Cc2ccc(-c3ccccc3)cc2)cc1=Cc1[n-]c(=O)[n-]c1[O-]

> <Energy>
148.87911107671238

> <Genealogy>
C=c1[nH]c(CC2=COS(=O)(=O)N2Cc2ccc(-c3ccccc3)cc2)cc1=Cc1[n-]c(=O)[n-]c1[O-] (protonated)
C=c1[nH]c(CC2=COS(=O)(=O)N2Cc2ccc(-c3ccccc3)cc2)cc1=Cc1[n-]c(=O)[n-]c1[O-] (3D coordinates assigned)
C=c1[nH]c(CC2=COS(=O)(=O)N2Cc2ccc(-c3ccccc3)cc2)cc1=Cc1[n-]c(=O)[n-]c1[O-] (nonaromatic ring conformer: 148.87911107671238 kcal/mol)

> <smiles>
C=c1[nH]c(CC2=COS(=O)(=O)N2Cc2ccc(-c3ccccc3)cc2)cc1=Cc1[nH]c(=O)[nH]c1O

> <score_type>
oracle

> <origin>
adg

> <m_score__min__energy>
-19.07

> <m_primary>
energy

> <minimizedAffinity>
-7.22273

> <minimizedRMSD>
2.64049

> <CNNscore>
0.3836326003

> <CNNaffinity>
6.6746497154

> <CNN_VS>
2.5606131554

> <CNNaffinity_variance>
0.0957785621

$$$$
71:0


 31 33  0  0  0  0  0  0  0  0999 V2000
   56.5326   31.7319   51.9572 C   0  0  0  0  0  0  0  0  0  0  0  0
   56.2145   30.5965   52.5939 C   0  0  0  0  0  0  0  0  0  0  0  0
   54.9956   29.9021   52.5268 C   0  0  0  0  0  0  0  0  0  0  0  0
   53.8045   30.2464   52.0048 C   0  0  0  0  0  0  0  0  0  0  0  0
   55.2002   28.6973   53.1776 C   0  0  0  0  0  0  0  0  0  0  0  0
   56.4842   28.7277   53.6808 C   0  0  0  0  0  0  0  0  0  0  0  0
   57.1145   27.5979   54.4398 C   0  0  0  0  0  0  0  0  0  0  0  0
   57.1011   29.8743   53.3254 N   0  0  0  0  0  0  0  0  0  0  0  0
   58.4493   30.2348   53.6730 C   0  0  0  0  0  0  0  0  0  0  0  0
   58.6691   30.7603   54.8010 O   0  0  0  0  0  0  0  0  0  0  0  0
   59.5521   29.8730   52.8051 N   0  0  0  0  0  0  0  0  0  0  0  0
   60.6006   30.9339   52.8291 C   0  0  0  0  0  0  0  0  0  0  0  0
   61.1605   31.2794   51.4445 C   0  0  0  0  0  0  0  0  0  0  0  0
   60.0556   31.5696   50.5376 N   0  0  0  0  0  0  0  0  0  0  0  0
   60.0035   32.8064   49.8234 C   0  0  0  0  0  0  0  0  0  0  0  0
   59.8192   33.8808   50.4601 O   0  0  0  0  0  0  0  0  0  0  0  0
   60.1266   32.8269   48.3925 N   0  0  0  0  0  0  0  0  0  0  0  0
   58.8814   30.6956   50.5114 C   0  0  0  0  0  0  0  0  0  0  0  0
   59.0704   29.4923   51.4492 C   0  0  0  0  0  0  0  0  0  0  0  0
   58.7604   30.3265   52.4352 H   0  0  0  0  0  0  0  0  0  0  0  0
   59.4818   33.8936   47.6198 C   0  0  0  0  0  0  0  0  0  0  0  0
   58.2206   33.3662   46.9413 C   0  0  0  0  0  0  0  0  0  0  0  0
   60.9636   31.8300   47.7075 C   0  0  0  0  0  0  0  0  0  0  0  0
   62.4310   32.2561   47.7443 C   0  0  0  0  0  0  0  0  0  0  0  0
   52.6664   30.8133   52.7479 C   0  0  0  0  0  0  0  0  0  0  0  0
   52.3694   30.5321   54.0298 N   0  0  0  0  0  0  0  0  0  0  0  0
   51.1785   31.1428   54.2150 C   0  0  0  0  0  0  0  0  0  0  0  0
   50.5677   31.1227   55.3157 O   0  0  0  0  0  0  0  0  0  0  0  0
   50.6845   31.7666   53.1226 N   0  0  0  0  0  0  0  0  0  0  0  0
   51.6330   31.5357   52.2009 C   0  0  0  0  0  0  0  0  0  0  0  0
   51.5475   31.9642   50.8830 O   0  0  0  0  0  0  0  0  0  0  0  0
  1  2  2  0
  2  3  1  0
  3  4  2  0
  4 25  1  0
 25 26  1  0
 26 27  1  0
 27 28  2  0
 27 29  1  0
 29 30  1  0
 30 31  1  0
  3  5  1  0
  5  6  2  0
  6  7  1  0
  6  8  1  0
  8  9  1  0
  9 10  2  0
  9 11  1  0
 11 12  1  0
 12 13  1  0
 13 14  1  0
 14 15  1  0
 15 16  2  0
 15 17  1  0
 17 21  1  0
 21 22  1  0
 17 23  1  0
 23 24  1  0
 14 18  1  0
 18 19  1  0
  8  2  1  0
 19 11  1  0
 30 25  2  0
 11 20  1  0
M  CHG 1  11   1
M  CHG 1  26  -1
M  CHG 1  29  -1
M  CHG 1  31  -1
M  END
> <UniqueID>
68

> <SMILES>
C=c1c(=Cc2[n-]c(=O)[n-]c2[O-])cc(C)n1C(=O)[NH+]1CCN(C(=O)N(CC)CC)CC1

> <Energy>
139.77739344251424

> <Genealogy>
C=c1c(=Cc2[n-]c(=O)[n-]c2[O-])cc(C)n1C(=O)[NH+]1CCN(C(=O)N(CC)CC)CC1 (protonated)
C=c1c(=Cc2[n-]c(=O)[n-]c2[O-])cc(C)n1C(=O)[NH+]1CCN(C(=O)N(CC)CC)CC1 (3D coordinates assigned)
C=c1c(=Cc2[n-]c(=O)[n-]c2[O-])cc(C)n1C(=O)[NH+]1CCN(C(=O)N(CC)CC)CC1 (nonaromatic ring conformer: 139.77739344251424 kcal/mol)

> <smiles>
C=c1c(=Cc2[nH]c(=O)[nH]c2O)cc(C)n1C(=O)N1CCN(C(=O)N(CC)CC)CC1

> <score_type>
oracle

> <origin>
adg

> <m_score__min__energy>
-14.67

> <m_primary>
energy

> <minimizedAffinity>
-6.85925

> <minimizedRMSD>
0.89583

> <CNNscore>
0.1550495923

> <CNNaffinity>
5.4786853790

> <CNN_VS>
0.8494679332

> <CNNaffinity_variance>
0.1081273332

$$$$
77:0


 26 28  0  0  0  0  0  0  0  0999 V2000
   57.0282   30.2705   52.1460 C   0  0  0  0  0  0  0  0  0  0  0  0
   56.9053   29.3101   53.1364 C   0  0  0  0  0  0  0  0  0  0  0  0
   55.5770   29.3080   53.5144 C   0  0  0  0  0  0  0  0  0  0  0  0
   55.0536   28.5106   54.4502 C   0  0  0  0  0  0  0  0  0  0  0  0
   54.9361   30.2814   52.7486 C   0  0  0  0  0  0  0  0  0  0  0  0
   53.6241   30.5878   52.7836 C   0  0  0  0  0  0  0  0  0  0  0  0
   55.8322   30.8533   51.9130 N   0  0  0  0  0  0  0  0  0  0  0  0
   55.6472   31.5631   51.2564 H   0  0  0  0  0  0  0  0  0  0  0  0
   52.7733   30.6973   51.5844 C   0  0  0  0  0  0  0  0  0  0  0  0
   51.7315   31.5763   51.3603 C   0  0  0  0  0  0  0  0  0  0  0  0
   51.3082   32.5788   52.2234 O   0  0  0  0  0  0  0  0  0  0  0  0
   51.1285   31.3013   50.1873 N   0  0  0  0  0  0  0  0  0  0  0  0
   51.8197   30.2320   49.7381 C   0  0  0  0  0  0  0  0  0  0  0  0
   51.5573   29.6558   48.6499 O   0  0  0  0  0  0  0  0  0  0  0  0
   52.8073   29.8300   50.5622 N   0  0  0  0  0  0  0  0  0  0  0  0
   53.4187   29.0679   50.4406 H   0  0  0  0  0  0  0  0  0  0  0  0
   59.5390   32.1041   49.9549 C   0  0  0  0  0  0  0  0  0  0  0  0
   60.6426   31.2450   50.0360 C   0  0  0  0  0  0  0  0  0  0  0  0
   60.5792   30.0920   50.8215 C   0  0  0  0  0  0  0  0  0  0  0  0
   59.4090   29.7776   51.5161 C   0  0  0  0  0  0  0  0  0  0  0  0
   58.2797   30.6100   51.4227 C   0  0  0  0  0  0  0  0  0  0  0  0
   58.3524   31.7689   50.6270 C   0  0  0  0  0  0  0  0  0  0  0  0
   59.6215   33.3029   49.0968 C   0  0  0  0  0  0  0  0  0  0  0  0
   59.2947   33.3283   47.7897 C   0  0  0  0  0  0  0  0  0  0  0  0
   58.9496   32.0306   47.1132 C   0  0  0  0  0  0  0  0  0  0  0  0
   59.3376   34.5982   46.9742 C   0  0  0  0  0  0  0  0  0  0  0  0
 23 24  2  0
 24 25  1  0
 24 26  1  0
 23 17  1  0
 17 18  2  0
 18 19  1  0
 19 20  2  0
 20 21  1  0
 21  1  1  0
  1  2  2  0
  2  3  1  0
  3  4  2  0
  3  5  1  0
  5  6  2  0
  6  9  1  0
  9 10  2  0
 10 11  1  0
 10 12  1  0
 12 13  1  0
 13 14  2  0
 13 15  1  0
  5  7  1  0
 21 22  2  0
 22 17  1  0
  7  1  1  0
 15  9  1  0
 15 16  1  0
  7  8  1  0
M  CHG 1  11  -1
M  CHG 1  12  -1
M  END
> <UniqueID>
73

> <SMILES>
C=c1cc(-c2cccc(C=C(C)C)c2)[nH]/c1=C\c1[nH]c(=O)[n-]c1[O-]

> <Energy>
113.1860622660111

> <Genealogy>
C=c1cc(-c2cccc(C=C(C)C)c2)[nH]c1=Cc1[nH]c(=O)[n-]c1[O-] (protonated)
C=c1cc(-c2cccc(C=C(C)C)c2)[nH]/c1=C\c1[nH]c(=O)[n-]c1[O-] (cis-trans isomerization)
C=c1cc(-c2cccc(C=C(C)C)c2)[nH]/c1=C\c1[nH]c(=O)[n-]c1[O-] (3D coordinates assigned)
C=c1cc(-c2cccc(C=C(C)C)c2)[nH]/c1=C\c1[nH]c(=O)[n-]c1[O-] (optimized conformer: 113.1860622660111 kcal/mol)

> <smiles>
C=c1cc(-c2cccc(C=C(C)C)c2)[nH]c1=Cc1[nH]c(=O)[nH]c1O

> <score_type>
oracle

> <origin>
adg

> <m_score__min__energy>
-15.35

> <m_primary>
energy

> <minimizedAffinity>
-6.80696

> <minimizedRMSD>
0.56636

> <CNNscore>
0.5527933240

> <CNNaffinity>
6.2085323334

> <CNN_VS>
3.4320352077

> <CNNaffinity_variance>
0.2204409987

$$$$
82:0


 25 27  0  0  0  0  0  0  0  0999 V2000
   57.7756   31.0591   44.9447 C   0  0  0  0  0  0  0  0  0  0  0  0
   57.8695   32.3137   44.3248 C   0  0  0  0  0  0  0  0  0  0  0  0
   58.4593   33.3885   44.9914 C   0  0  0  0  0  0  0  0  0  0  0  0
   58.9673   33.2348   46.2851 C   0  0  0  0  0  0  0  0  0  0  0  0
   59.7653   34.7844   47.0899 Br  0  0  0  0  0  0  0  0  0  0  0  0
   58.8838   31.9758   46.9266 C   0  0  0  0  0  0  0  0  0  0  0  0
   58.2824   30.9037   46.2464 C   0  0  0  0  0  0  0  0  0  0  0  0
   59.4990   31.6892   48.5696 S   0  0  0  0  0  0  0  0  0  0  0  0
   58.9576   32.7191   49.5193 O   0  0  0  0  0  0  0  0  0  0  0  0
   59.0023   30.3483   49.0387 O   0  0  0  0  0  0  0  0  0  0  0  0
   61.2445   31.6950   48.6560 N   0  0  0  0  0  0  0  0  0  0  0  0
   61.7711   32.9134   49.2625 C   0  0  0  0  0  0  0  0  0  0  0  0
   63.2009   33.0436   48.7668 C   0  0  0  0  0  0  0  0  0  0  0  0
   63.2365   32.2663   47.4578 C   0  0  0  0  0  0  0  0  0  0  0  0
   61.8594   31.6264   47.3301 C   0  0  0  0  0  0  0  0  0  0  0  0
   56.7804   30.0420   43.0381 O   0  0  0  0  0  0  0  0  0  0  0  0
   57.1454   29.9168   44.2394 C   0  0  0  0  0  0  0  0  0  0  0  0
   56.8440   28.7077   44.9532 N   0  0  0  0  0  0  0  0  0  0  0  0
   57.6618   27.8161   45.4447 C   0  0  0  0  0  0  0  0  0  0  0  0
   58.9968   28.0234   45.2719 N   0  0  0  0  0  0  0  0  0  0  0  0
   59.9392   27.1688   45.7488 C   0  0  0  0  0  0  0  0  0  0  0  0
   59.5556   26.0240   46.4428 C   0  0  0  0  0  0  0  0  0  0  0  0
   58.1987   25.7575   46.6177 C   0  0  0  0  0  0  0  0  0  0  0  0
   57.2372   26.6338   46.1070 C   0  0  0  0  0  0  0  0  0  0  0  0
   55.8983   26.2829   46.2245 O   0  0  0  0  0  0  0  0  0  0  0  0
 16 17  2  0
 17 18  1  0
 18 19  2  0
 19 20  1  0
 20 21  1  0
 21 22  2  0
 22 23  1  0
 23 24  2  0
 24 25  1  0
 17  1  1  0
  1  2  2  0
  2  3  1  0
  3  4  2  0
  4  5  1  0
  4  6  1  0
  6  8  1  0
  8  9  2  0
  8 10  2  0
  8 11  1  0
 11 12  1  0
 12 13  1  0
 13 14  1  0
 14 15  1  0
  6  7  2  0
 24 19  1  0
  7  1  1  0
 15 11  1  0
M  CHG 1  20  -1
M  CHG 1  25  -1
M  END
> <UniqueID>
78

> <SMILES>
O=C(N=c1[n-]cccc1[O-])c1ccc(Br)c(S(=O)(=O)N2CCCC2)c1

> <Energy>
58.43132810464843

> <Genealogy>
O=C(N=c1[n-]cccc1[O-])c1ccc(Br)c(S(=O)(=O)N2CCCC2)c1 (protonated)
O=C(N=c1[n-]cccc1[O-])c1ccc(Br)c(S(=O)(=O)N2CCCC2)c1 (3D coordinates assigned)
O=C(N=c1[n-]cccc1[O-])c1ccc(Br)c(S(=O)(=O)N2CCCC2)c1 (nonaromatic ring conformer: 58.43132810464843 kcal/mol)

> <smiles>
O=C(N=c1[nH]cccc1O)c1ccc(Br)c(S(=O)(=O)N2CCCC2)c1

> <score_type>
oracle

> <origin>
adg

> <m_score__min__energy>
-14.529999999999999

> <m_primary>
energy

> <minimizedAffinity>
-7.97787

> <minimizedRMSD>
0.65706

> <CNNscore>
0.9244850278

> <CNNaffinity>
7.5398292542

> <CNN_VS>
6.9704594612

> <CNNaffinity_variance>
0.3722969592

$$$$
84:0


 33 36  0  0  0  0  0  0  0  0999 V2000
   58.7426   30.9613   45.4865 C   0  0  0  0  0  0  0  0  0  0  0  0
   59.2388   31.4361   46.7090 C   0  0  0  0  0  0  0  0  0  0  0  0
   59.1641   32.8013   47.0282 C   0  0  0  0  0  0  0  0  0  0  0  0
   58.6188   33.6949   46.0923 C   0  0  0  0  0  0  0  0  0  0  0  0
   58.1214   33.2238   44.8741 C   0  0  0  0  0  0  0  0  0  0  0  0
   58.1742   31.8609   44.5722 C   0  0  0  0  0  0  0  0  0  0  0  0
   57.6537   31.4155   43.4016 F   0  0  0  0  0  0  0  0  0  0  0  0
   56.5361   29.2003   44.5913 C   0  0  0  0  0  0  0  0  0  0  0  0
   57.7683   28.7430   44.8586 C   0  0  0  0  0  0  0  0  0  0  0  0
   58.2441   27.4335   44.6802 C   0  0  0  0  0  0  0  0  0  0  0  0
   57.5892   26.2812   44.4354 C   0  0  0  0  0  0  0  0  0  0  0  0
   59.6197   27.4966   44.8341 C   0  0  0  0  0  0  0  0  0  0  0  0
   59.9248   28.7970   45.1762 C   0  0  0  0  0  0  0  0  0  0  0  0
   61.3060   29.2961   45.4762 C   0  0  0  0  0  0  0  0  0  0  0  0
   58.8061   29.5540   45.1880 N   0  0  0  0  0  0  0  0  0  0  0  0
   57.2038   25.2858   45.4493 C   0  0  0  0  0  0  0  0  0  0  0  0
   57.8839   24.1541   45.7131 N   0  0  0  0  0  0  0  0  0  0  0  0
   57.0946   23.5164   46.6034 C   0  0  0  0  0  0  0  0  0  0  0  0
   57.4052   22.4084   47.1108 O   0  0  0  0  0  0  0  0  0  0  0  0
   55.9429   24.1575   46.9007 N   0  0  0  0  0  0  0  0  0  0  0  0
   56.0228   25.2666   46.1501 C   0  0  0  0  0  0  0  0  0  0  0  0
   55.0350   26.2415   46.1041 O   0  0  0  0  0  0  0  0  0  0  0  0
   59.6839   33.2862   48.3261 C   0  0  0  0  0  0  0  0  0  0  0  0
   59.2316   34.3628   48.7995 O   0  0  0  0  0  0  0  0  0  0  0  0
   60.7145   32.5723   49.0391 N   0  0  0  0  0  0  0  0  0  0  0  0
   60.8295   32.7032   50.4986 C   0  0  0  0  0  0  0  0  0  0  0  0
   62.1274   33.4376   50.8792 C   0  0  0  0  0  0  0  0  0  0  0  0
   63.2857   33.1864   49.8768 C   0  0  0  0  0  0  0  0  0  0  0  0
   63.0990   31.8610   49.1144 C   0  0  0  0  0  0  0  0  0  0  0  0
   61.7959   31.8993   48.2996 C   0  0  0  0  0  0  0  0  0  0  0  0
   64.6611   33.2641   50.5628 C   0  0  0  0  0  0  0  0  0  0  0  0
   65.6414   32.5818   49.8246 O   0  0  0  0  0  0  0  0  0  0  0  0
   65.3990   31.6453   49.7533 H   0  0  0  0  0  0  0  0  0  0  0  0
  8  9  2  0
  9 10  1  0
 10 11  2  0
 11 16  1  0
 16 17  1  0
 17 18  1  0
 18 19  2  0
 18 20  1  0
 20 21  1  0
 21 22  1  0
 10 12  1  0
 12 13  2  0
 13 14  1  0
 13 15  1  0
 15  1  1  0
  1  2  2  0
  2  3  1  0
  3 23  1  0
 23 24  2  0
 23 25  1  0
 25 26  1  0
 26 27  1  0
 27 28  1  0
 28 31  1  0
 31 32  1  0
 28 29  1  0
 29 30  1  0
  3  4  2  0
  4  5  1  0
  5  6  2  0
  6  7  1  0
 15  9  1  0
  6  1  1  0
 21 16  2  0
 30 25  1  0
 32 33  1  0
M  CHG 1  17  -1
M  CHG 1  20  -1
M  CHG 1  22  -1
M  END
> <UniqueID>
80

> <SMILES>
C=c1c(=Cc2[n-]c(=O)[n-]c2[O-])cc(C)n1-c1cc(C(=O)N2CCC(CO)CC2)ccc1F

> <Energy>
138.6155452253384

> <Genealogy>
C=c1c(=Cc2[n-]c(=O)[n-]c2[O-])cc(C)n1-c1cc(C(=O)N2CCC(CO)CC2)ccc1F (protonated)
C=c1c(=Cc2[n-]c(=O)[n-]c2[O-])cc(C)n1-c1cc(C(=O)N2CCC(CO)CC2)ccc1F (3D coordinates assigned)
C=c1c(=Cc2[n-]c(=O)[n-]c2[O-])cc(C)n1-c1cc(C(=O)N2CCC(CO)CC2)ccc1F (nonaromatic ring conformer: 138.6155452253384 kcal/mol)

> <smiles>
C=c1c(=Cc2[nH]c(=O)[nH]c2O)cc(C)n1-c1cc(C(=O)N2CCC(CO)CC2)ccc1F

> <score_type>
oracle

> <origin>
adg

> <m_score__min__energy>
-17.18

> <m_primary>
energy

> <minimizedAffinity>
-8.62466

> <minimizedRMSD>
0.54115

> <CNNscore>
0.5073136091

> <CNNaffinity>
7.4277157784

> <CNN_VS>
3.7681813240

> <CNNaffinity_variance>
0.0950937346

$$$$
4:0


 28 30  0  0  0  0  0  0  0  0999 V2000
   57.4035   31.6561   44.3208 C   0  0  0  0  0  0  0  0  0  0  0  0
   58.4273   32.0734   45.3415 C   0  0  0  0  0  0  0  0  0  0  0  0
   59.0584   31.1167   46.1502 C   0  0  0  0  0  0  0  0  0  0  0  0
   59.9788   31.5143   47.1219 C   0  0  0  0  0  0  0  0  0  0  0  0
   60.2854   32.8734   47.3029 C   0  0  0  0  0  0  0  0  0  0  0  0
   59.6513   33.8319   46.4894 C   0  0  0  0  0  0  0  0  0  0  0  0
   59.9471   35.1834   46.6222 O   0  0  0  0  0  0  0  0  0  0  0  0
   58.7246   33.4302   45.5220 C   0  0  0  0  0  0  0  0  0  0  0  0
   61.2161   33.2767   48.3250 N   0  0  0  0  0  0  0  0  0  0  0  0
   60.8425   33.6313   49.6967 C   0  0  0  0  0  0  0  0  0  0  0  0
   62.1522   33.5895   50.5237 C   0  0  0  0  0  0  0  0  0  0  0  0
   63.2033   33.2374   49.5774 N   0  0  0  0  0  0  0  0  0  0  0  0
   64.6152   33.0694   49.8966 C   0  0  0  0  0  0  0  0  0  0  0  0
   62.6146   33.0561   48.3099 C   0  0  0  0  0  0  0  0  0  0  0  0
   63.2683   32.7560   47.2744 O   0  0  0  0  0  0  0  0  0  0  0  0
   56.5789   30.5730   44.8466 N   0  0  0  0  0  0  0  0  0  0  0  0
   56.8764   29.1847   44.6586 C   0  0  0  0  0  0  0  0  0  0  0  0
   57.3503   28.7819   43.5635 O   0  0  0  0  0  0  0  0  0  0  0  0
   56.6947   28.2458   45.7240 N   0  0  0  0  0  0  0  0  0  0  0  0
   57.1410   24.5628   46.2007 C   0  0  0  0  0  0  0  0  0  0  0  0
   58.5442   24.4545   46.1826 C   0  0  0  0  0  0  0  0  0  0  0  0
   59.3357   25.5939   46.0256 C   0  0  0  0  0  0  0  0  0  0  0  0
   58.7395   26.8474   45.8717 C   0  0  0  0  0  0  0  0  0  0  0  0
   57.3398   26.9690   45.8549 C   0  0  0  0  0  0  0  0  0  0  0  0
   56.5481   25.8242   46.0420 C   0  0  0  0  0  0  0  0  0  0  0  0
   55.1612   25.9387   46.0662 O   0  0  0  0  0  0  0  0  0  0  0  0
   56.3980   22.5346   47.4634 C   0  0  0  0  0  0  0  0  0  0  0  0
   56.3057   23.4471   46.3736 O   0  0  0  0  0  0  0  0  0  0  0  0
 27 28  1  0
 28 20  1  0
 20 21  2  0
 21 22  1  0
 22 23  2  0
 23 24  1  0
 24 19  1  0
 19 17  1  0
 17 18  2  0
 17 16  1  0
 16  1  1  0
  1  2  1  0
  2  3  2  0
  3  4  1  0
  4  5  2  0
  5  9  1  0
  9 10  1  0
 10 11  1  0
 11 12  1  0
 12 13  1  0
 12 14  1  0
 14 15  2  0
  5  6  1  0
  6  7  1  0
  6  8  2  0
 24 25  2  0
 25 26  1  0
 25 20  1  0
  8  2  1  0
 14  9  1  0
M  CHG 1   7  -1
M  CHG 1  16  -1
M  CHG 1  19  -1
M  CHG 1  26  -1
M  END
> <UniqueID>
4

> <SMILES>
COc1cccc([N-]C(=O)[N-]Cc2ccc(N3CCN(C)C3=O)c([O-])c2)c1[O-]

> <Energy>
65.21850162012093

> <Genealogy>
COc1cccc([N-]C(=O)[N-]Cc2ccc(N3CCN(C)C3=O)c([O-])c2)c1[O-] (protonated)
COc1cccc([N-]C(=O)[N-]Cc2ccc(N3CCN(C)C3=O)c([O-])c2)c1[O-] (3D coordinates assigned)
COc1cccc([N-]C(=O)[N-]Cc2ccc(N3CCN(C)C3=O)c([O-])c2)c1[O-] (nonaromatic ring conformer: 65.21850162012093 kcal/mol)

> <smiles>
COc1cccc(NC(=O)NCc2ccc(N3CCN(C)C3=O)c(O)c2)c1O

> <score_type>
oracle

> <origin>
adg

> <m_score__min__energy>
-16.780000000000001

> <m_primary>
energy

> <minimizedAffinity>
-6.92341

> <minimizedRMSD>
0.81539

> <CNNscore>
0.5736647248

> <CNNaffinity>
6.6219010353

> <CNN_VS>
3.7987511158

> <CNNaffinity_variance>
0.0749062672

$$$$
9:0


 31 34  0  0  0  0  0  0  0  0999 V2000
   60.1006   29.0415   44.7769 C   0  0  0  0  0  0  0  0  0  0  0  0
   59.8038   28.6799   46.0357 C   0  0  0  0  0  0  0  0  0  0  0  0
   58.9584   27.6292   46.4195 C   0  0  0  0  0  0  0  0  0  0  0  0
   58.3002   26.7786   45.6050 C   0  0  0  0  0  0  0  0  0  0  0  0
   58.9627   27.6198   47.8092 C   0  0  0  0  0  0  0  0  0  0  0  0
   59.7946   28.6435   48.2087 C   0  0  0  0  0  0  0  0  0  0  0  0
   60.2944   29.3020   47.1394 N   0  0  0  0  0  0  0  0  0  0  0  0
   57.6013   25.5490   46.0413 C   0  0  0  0  0  0  0  0  0  0  0  0
   58.1899   24.3800   46.3532 N   0  0  0  0  0  0  0  0  0  0  0  0
   57.1581   23.6046   46.7540 C   0  0  0  0  0  0  0  0  0  0  0  0
   57.3126   22.4121   47.1252 O   0  0  0  0  0  0  0  0  0  0  0  0
   55.9527   24.2091   46.7273 N   0  0  0  0  0  0  0  0  0  0  0  0
   56.2518   25.4404   46.2812 C   0  0  0  0  0  0  0  0  0  0  0  0
   55.3095   26.4442   46.0981 O   0  0  0  0  0  0  0  0  0  0  0  0
   60.0907   28.9679   49.6186 C   0  0  0  0  0  0  0  0  0  0  0  0
   61.2073   28.5973   50.0733 O   0  0  0  0  0  0  0  0  0  0  0  0
   59.1965   29.7423   50.4701 N   0  0  0  0  0  0  0  0  0  0  0  0
   58.5951   30.8541   49.6784 C   0  0  0  0  0  0  0  0  0  0  0  0
   58.2243   32.0604   50.5502 C   0  0  0  0  0  0  0  0  0  0  0  0
   59.4296   32.6381   51.1856 N   0  0  0  0  0  0  0  0  0  0  0  0
   59.0481   33.5051   52.3107 C   0  0  0  0  0  0  0  0  0  0  0  0
   60.4266   31.6183   51.5988 C   0  0  0  0  0  0  0  0  0  0  0  0
   59.8035   30.2199   51.7470 C   0  0  0  0  0  0  0  0  0  0  0  0
   58.7404   29.1936   49.7918 H   0  0  0  0  0  0  0  0  0  0  0  0
   61.1934   30.4663   47.1815 C   0  0  0  0  0  0  0  0  0  0  0  0
   60.4131   31.7560   47.1119 C   0  0  0  0  0  0  0  0  0  0  0  0
   60.8997   32.9138   47.7415 C   0  0  0  0  0  0  0  0  0  0  0  0
   60.1650   34.1040   47.6969 C   0  0  0  0  0  0  0  0  0  0  0  0
   58.9360   34.1430   47.0316 C   0  0  0  0  0  0  0  0  0  0  0  0
   58.4394   32.9939   46.4115 C   0  0  0  0  0  0  0  0  0  0  0  0
   59.1725   31.8028   46.4537 C   0  0  0  0  0  0  0  0  0  0  0  0
  1  2  2  0
  2  3  1  0
  3  4  2  0
  4  8  1  0
  8  9  1  0
  9 10  1  0
 10 11  2  0
 10 12  1  0
 12 13  1  0
 13 14  1  0
  3  5  1  0
  5  6  2  0
  6 15  1  0
 15 16  2  0
 15 17  1  0
 17 18  1  0
 18 19  1  0
 19 20  1  0
 20 21  1  0
 20 22  1  0
 22 23  1  0
  6  7  1  0
  7 25  1  0
 25 26  1  0
 26 27  2  0
 27 28  1  0
 28 29  2  0
 29 30  1  0
 30 31  2  0
  7  2  1  0
 31 26  1  0
 13  8  2  0
 23 17  1  0
 17 24  1  0
M  CHG 1   9  -1
M  CHG 1  12  -1
M  CHG 1  14  -1
M  CHG 1  17   1
M  END
> <UniqueID>
8

> <SMILES>
C=c1/c(=C/c2[n-]c(=O)[n-]c2[O-])cc(C(=O)[NH+]2CCN(C)CC2)n1Cc1ccccc1

> <Energy>
143.04401390137974

> <Genealogy>
C=c1c(=Cc2[n-]c(=O)[n-]c2[O-])cc(C(=O)[NH+]2CCN(C)CC2)n1Cc1ccccc1 (protonated)
C=c1/c(=C/c2[n-]c(=O)[n-]c2[O-])cc(C(=O)[NH+]2CCN(C)CC2)n1Cc1ccccc1 (cis-trans isomerization)
C=c1/c(=C/c2[n-]c(=O)[n-]c2[O-])cc(C(=O)[NH+]2CCN(C)CC2)n1Cc1ccccc1 (3D coordinates assigned)
C=c1/c(=C/c2[n-]c(=O)[n-]c2[O-])cc(C(=O)[NH+]2CCN(C)CC2)n1Cc1ccccc1 (nonaromatic ring conformer: 143.04401390137974 kcal/mol)

> <smiles>
C=c1c(=Cc2[nH]c(=O)[nH]c2O)cc(C(=O)N2CCN(C)CC2)n1Cc1ccccc1

> <score_type>
oracle

> <origin>
adg

> <m_score__min__energy>
-15.369999999999999

> <m_primary>
energy

> <minimizedAffinity>
-7.47875

> <minimizedRMSD>
0.64950

> <CNNscore>
0.1961834282

> <CNNaffinity>
6.4084773064

> <CNN_VS>
1.2572370768

> <CNNaffinity_variance>
0.0079615200

$$$$
16:0


 27 30  0  0  0  0  0  0  0  0999 V2000
   56.0127   31.0878   52.2021 C   0  0  0  0  0  0  0  0  0  0  0  0
   55.6232   30.0335   52.9373 C   0  0  0  0  0  0  0  0  0  0  0  0
   54.3482   29.8126   53.4873 C   0  0  0  0  0  0  0  0  0  0  0  0
   53.1768   30.4480   53.2890 C   0  0  0  0  0  0  0  0  0  0  0  0
   54.4768   28.7335   54.3415 C   0  0  0  0  0  0  0  0  0  0  0  0
   55.7814   28.2994   54.2474 C   0  0  0  0  0  0  0  0  0  0  0  0
   56.3387   27.1215   54.9868 C   0  0  0  0  0  0  0  0  0  0  0  0
   56.4756   29.0703   53.3787 N   0  0  0  0  0  0  0  0  0  0  0  0
   52.4398   30.5180   52.0176 C   0  0  0  0  0  0  0  0  0  0  0  0
   52.6360   29.6679   50.9967 N   0  0  0  0  0  0  0  0  0  0  0  0
   51.8594   30.1747   50.0139 C   0  0  0  0  0  0  0  0  0  0  0  0
   51.7611   29.6357   48.8818 O   0  0  0  0  0  0  0  0  0  0  0  0
   51.2037   31.3097   50.3368 N   0  0  0  0  0  0  0  0  0  0  0  0
   51.5941   31.5234   51.6032 C   0  0  0  0  0  0  0  0  0  0  0  0
   51.2084   32.6269   52.3543 O   0  0  0  0  0  0  0  0  0  0  0  0
   57.9106   28.9400   53.0818 C   0  0  0  0  0  0  0  0  0  0  0  0
   58.6091   30.2958   53.2137 C   0  0  0  0  0  0  0  0  0  0  0  0
   59.4000   30.5988   51.9834 C   0  0  0  0  0  0  0  0  0  0  0  0
   59.2156   29.9658   50.8052 N   0  0  0  0  0  0  0  0  0  0  0  0
   60.1064   30.3755   49.8610 C   0  0  0  0  0  0  0  0  0  0  0  0
   61.0213   31.3366   50.2954 C   0  0  0  0  0  0  0  0  0  0  0  0
   60.6934   31.6681   51.9104 S   0  0  0  0  0  0  0  0  0  0  0  0
   60.0938   29.8272   48.4962 C   0  0  0  0  0  0  0  0  0  0  0  0
   60.3362   30.7002   47.0764 S   0  0  0  0  0  0  0  0  0  0  0  0
   60.1710   29.3981   46.0249 C   0  0  0  0  0  0  0  0  0  0  0  0
   59.9234   28.2595   46.7789 C   0  0  0  0  0  0  0  0  0  0  0  0
   59.8805   28.4953   48.1594 C   0  0  0  0  0  0  0  0  0  0  0  0
  1  2  2  0
  2  3  1  0
  3  4  2  0
  4  9  1  0
  9 10  1  0
 10 11  1  0
 11 12  2  0
 11 13  1  0
 13 14  1  0
 14 15  1  0
  3  5  1  0
  5  6  2  0
  6  7  1  0
  6  8  1  0
  8 16  1  0
 16 17  1  0
 17 18  1  0
 18 19  2  0
 19 20  1  0
 20 23  1  0
 23 24  1  0
 24 25  1  0
 25 26  2  0
 26 27  1  0
 20 21  2  0
 21 22  1  0
  8  2  1  0
 22 18  1  0
 14  9  2  0
 27 23  2  0
M  CHG 1  10  -1
M  CHG 1  13  -1
M  CHG 1  15  -1
M  END
> <UniqueID>
14

> <SMILES>
C=c1/c(=C\c2[n-]c(=O)[n-]c2[O-])cc(C)n1CCc1nc(-c2cccs2)cs1

> <Energy>
166.32529358805644

> <Genealogy>
C=c1c(=Cc2[n-]c(=O)[n-]c2[O-])cc(C)n1CCc1nc(-c2cccs2)cs1 (protonated)
C=c1/c(=C\c2[n-]c(=O)[n-]c2[O-])cc(C)n1CCc1nc(-c2cccs2)cs1 (cis-trans isomerization)
C=c1/c(=C\c2[n-]c(=O)[n-]c2[O-])cc(C)n1CCc1nc(-c2cccs2)cs1 (3D coordinates assigned)
C=c1/c(=C\c2[n-]c(=O)[n-]c2[O-])cc(C)n1CCc1nc(-c2cccs2)cs1 (optimized conformer: 166.32529358805644 kcal/mol)

> <smiles>
C=c1c(=Cc2[nH]c(=O)[nH]c2O)cc(C)n1CCc1nc(-c2cccs2)cs1

> <score_type>
oracle

> <origin>
adg

> <m_score__min__energy>
-17.039999999999999

> <m_primary>
energy

> <minimizedAffinity>
-5.41682

> <minimizedRMSD>
1.10867

> <CNNscore>
0.0457866378

> <CNNaffinity>
5.2365512848

> <CNN_VS>
0.2397640795

> <CNNaffinity_variance>
0.2965304255

$$$$
20:0


 27 29  0  0  0  0  0  0  0  0999 V2000
   56.0313   29.1490   44.9795 O   0  0  0  0  0  0  0  0  0  0  0  0
   57.2144   28.8086   45.2550 C   0  0  0  0  0  0  0  0  0  0  0  0
   58.3204   29.6741   44.9577 N   0  0  0  0  0  0  0  0  0  0  0  0
   58.5190   30.8871   45.3863 C   0  0  0  0  0  0  0  0  0  0  0  0
   58.2329   31.9666   44.6264 N   0  0  0  0  0  0  0  0  0  0  0  0
   58.5281   33.1301   45.2643 C   0  0  0  0  0  0  0  0  0  0  0  0
   59.0449   32.9758   46.5463 C   0  0  0  0  0  0  0  0  0  0  0  0
   59.1619   31.3322   46.8854 S   0  0  0  0  0  0  0  0  0  0  0  0
   59.5273   34.0777   47.4352 C   0  0  0  0  0  0  0  0  0  0  0  0
   60.9492   33.8201   47.8514 C   0  0  0  0  0  0  0  0  0  0  0  0
   61.9322   33.5451   46.8852 C   0  0  0  0  0  0  0  0  0  0  0  0
   63.2611   33.3427   47.2701 C   0  0  0  0  0  0  0  0  0  0  0  0
   63.6187   33.4224   48.6186 C   0  0  0  0  0  0  0  0  0  0  0  0
   62.6498   33.7076   49.5835 C   0  0  0  0  0  0  0  0  0  0  0  0
   61.3195   33.9114   49.2034 C   0  0  0  0  0  0  0  0  0  0  0  0
   57.4992   27.4827   45.8396 C   0  0  0  0  0  0  0  0  0  0  0  0
   57.5530   26.3253   45.1618 C   0  0  0  0  0  0  0  0  0  0  0  0
   57.1569   25.0059   45.7013 C   0  0  0  0  0  0  0  0  0  0  0  0
   55.8325   24.7376   46.0874 C   0  0  0  0  0  0  0  0  0  0  0  0
   54.8458   25.7120   45.9573 O   0  0  0  0  0  0  0  0  0  0  0  0
   55.5080   23.5225   46.6074 N   0  0  0  0  0  0  0  0  0  0  0  0
   56.4553   22.5631   46.7829 C   0  0  0  0  0  0  0  0  0  0  0  0
   56.1397   21.4430   47.2657 O   0  0  0  0  0  0  0  0  0  0  0  0
   57.7458   22.8116   46.4436 N   0  0  0  0  0  0  0  0  0  0  0  0
   58.1184   24.0063   45.9176 C   0  0  0  0  0  0  0  0  0  0  0  0
   59.3270   24.2016   45.6194 O   0  0  0  0  0  0  0  0  0  0  0  0
   54.5750   23.3358   46.8599 H   0  0  0  0  0  0  0  0  0  0  0  0
  1  2  2  0
  2 16  1  0
 16 17  2  0
 17 18  1  0
 18 19  2  0
 19 20  1  0
 19 21  1  0
 21 22  1  0
 22 23  2  0
 22 24  1  0
 24 25  1  0
 25 26  2  0
  2  3  1  0
  3  4  2  0
  4  5  1  0
  5  6  1  0
  6  7  2  0
  7  9  1  0
  9 10  1  0
 10 11  2  0
 11 12  1  0
 12 13  2  0
 13 14  1  0
 14 15  2  0
  7  8  1  0
 25 18  1  0
  8  4  1  0
 15 10  1  0
 21 27  1  0
M  CHG 1   5  -1
M  CHG 1  20  -1
M  CHG 1  24  -1
M  END
> <UniqueID>
18

> <SMILES>
O=C(C=Cc1c([O-])[nH]c(=O)[n-]c1=O)N=c1[n-]cc(Cc2ccccc2)s1

> <Energy>
81.34760908140254

> <Genealogy>
O=C(C=Cc1c([O-])[nH]c(=O)[n-]c1=O)N=c1[n-]cc(Cc2ccccc2)s1 (protonated)
O=C(C=Cc1c([O-])[nH]c(=O)[n-]c1=O)N=c1[n-]cc(Cc2ccccc2)s1 (3D coordinates assigned)
O=C(C=Cc1c([O-])[nH]c(=O)[n-]c1=O)N=c1[n-]cc(Cc2ccccc2)s1 (optimized conformer: 81.34760908140254 kcal/mol)

> <smiles>
O=C(C=Cc1c(O)[nH]c(=O)[nH]c1=O)N=c1[nH]cc(Cc2ccccc2)s1

> <score_type>
oracle

> <origin>
adg

> <m_score__min__energy>
-15.960000000000001

> <m_primary>
energy

> <minimizedAffinity>
-8.19067

> <minimizedRMSD>
1.29063

> <CNNscore>
0.3008542657

> <CNNaffinity>
6.7978630066

> <CNN_VS>
2.0451660156

> <CNNaffinity_variance>
0.2511579692

$$$$
32:0


 30 33  0  0  0  0  0  0  0  0999 V2000
   59.5387   27.0843   45.9058 C   0  0  0  0  0  0  0  0  0  0  0  0
   59.4966   28.2715   46.5408 C   0  0  0  0  0  0  0  0  0  0  0  0
   58.9001   29.3950   45.9909 C   0  0  0  0  0  0  0  0  0  0  0  0
   59.1035   30.4313   46.8758 C   0  0  0  0  0  0  0  0  0  0  0  0
   58.6171   31.8351   46.6724 C   0  0  0  0  0  0  0  0  0  0  0  0
   59.7672   29.9942   47.9679 N   0  0  0  0  0  0  0  0  0  0  0  0
   59.9940   28.6666   47.7951 C   0  0  0  0  0  0  0  0  0  0  0  0
   60.4939   27.8772   48.7588 C   0  0  0  0  0  0  0  0  0  0  0  0
   56.4611   27.4016   45.6380 O   0  0  0  0  0  0  0  0  0  0  0  0
   57.1390   26.2082   45.8753 C   0  0  0  0  0  0  0  0  0  0  0  0
   56.5180   25.0354   46.0800 N   0  0  0  0  0  0  0  0  0  0  0  0
   57.5442   24.1898   46.3151 C   0  0  0  0  0  0  0  0  0  0  0  0
   57.3744   22.9671   46.5619 O   0  0  0  0  0  0  0  0  0  0  0  0
   58.7686   24.7588   46.2755 N   0  0  0  0  0  0  0  0  0  0  0  0
   58.5062   26.0410   45.9672 C   0  0  0  0  0  0  0  0  0  0  0  0
   55.5251   27.4079   45.5938 H   0  0  0  0  0  0  0  0  0  0  0  0
   60.1047   30.7908   49.1182 C   0  0  0  0  0  0  0  0  0  0  0  0
   61.2230   31.6329   49.0802 C   0  0  0  0  0  0  0  0  0  0  0  0
   61.5790   32.4035   50.1970 C   0  0  0  0  0  0  0  0  0  0  0  0
   60.7731   32.3597   51.3613 C   0  0  0  0  0  0  0  0  0  0  0  0
   61.0550   33.2066   52.5748 C   0  0  0  0  0  0  0  0  0  0  0  0
   59.6639   31.4990   51.3951 C   0  0  0  0  0  0  0  0  0  0  0  0
   59.3316   30.7186   50.2857 C   0  0  0  0  0  0  0  0  0  0  0  0
   58.2325   29.8691   50.3480 O   0  0  0  0  0  0  0  0  0  0  0  0
   62.7848   33.2432   50.1075 C   0  0  0  0  0  0  0  0  0  0  0  0
   62.6921   34.4273   49.6880 O   0  0  0  0  0  0  0  0  0  0  0  0
   64.0671   32.7112   50.4424 N   0  0  0  0  0  0  0  0  0  0  0  0
   65.4529   33.2044   50.5140 C   0  0  0  0  0  0  0  0  0  0  0  0
   66.0744   31.8830   50.8302 C   0  0  0  0  0  0  0  0  0  0  0  0
   64.6644   31.3998   50.7516 C   0  0  0  0  0  0  0  0  0  0  0  0
  9 10  1  0
 10 11  1  0
 11 12  1  0
 12 13  2  0
 12 14  1  0
 14 15  1  0
 15  1  1  0
  1  2  2  0
  2  3  1  0
  3  4  2  0
  4  5  1  0
  4  6  1  0
  6 17  1  0
 17 18  2  0
 18 19  1  0
 19 25  1  0
 25 26  2  0
 25 27  1  0
 27 28  1  0
 28 29  1  0
 29 30  1  0
 19 20  2  0
 20 21  1  0
 20 22  1  0
 22 23  2  0
 23 24  1  0
  6  7  1  0
  7  8  2  0
 15 10  2  0
  7  2  1  0
 23 17  1  0
 30 27  1  0
  9 16  1  0
M  CHG 1  11  -1
M  CHG 1  14  -1
M  CHG 1  24  -1
M  END
> <UniqueID>
29

> <SMILES>
C=c1/c(=C\c2[n-]c(=O)[n-]c2O)cc(C)n1-c1cc(C(=O)N2CCC2)c(C)cc1[O-]

> <Energy>
175.668561158371

> <Genealogy>
C=c1c(=Cc2[n-]c(=O)[n-]c2O)cc(C)n1-c1cc(C(=O)N2CCC2)c(C)cc1[O-] (protonated)
C=c1/c(=C\c2[n-]c(=O)[n-]c2O)cc(C)n1-c1cc(C(=O)N2CCC2)c(C)cc1[O-] (cis-trans isomerization)
C=c1/c(=C\c2[n-]c(=O)[n-]c2O)cc(C)n1-c1cc(C(=O)N2CCC2)c(C)cc1[O-] (3D coordinates assigned)
C=c1/c(=C\c2[n-]c(=O)[n-]c2O)cc(C)n1-c1cc(C(=O)N2CCC2)c(C)cc1[O-] (nonaromatic ring conformer: 175.668561158371 kcal/mol)

> <smiles>
C=c1c(=Cc2[nH]c(=O)[nH]c2O)cc(C)n1-c1cc(C(=O)N2CCC2)c(C)cc1O

> <score_type>
oracle

> <origin>
adg

> <m_score__min__energy>
-15.17

> <m_primary>
energy

> <minimizedAffinity>
-8.51566

> <minimizedRMSD>
1.96610

> <CNNscore>
0.3978196681

> <CNNaffinity>
6.9710707664

> <CNN_VS>
2.7732291222

> <CNNaffinity_variance>
0.1892594844

$$$$
39:0


 32 35  0  0  0  0  0  0  0  0999 V2000
   59.0347   29.0942   47.9621 C   0  0  0  0  0  0  0  0  0  0  0  0
   58.4458   28.9018   46.7703 C   0  0  0  0  0  0  0  0  0  0  0  0
   58.0822   27.6754   46.1881 C   0  0  0  0  0  0  0  0  0  0  0  0
   58.0558   26.4257   46.6932 C   0  0  0  0  0  0  0  0  0  0  0  0
   57.7028   27.9627   44.8865 C   0  0  0  0  0  0  0  0  0  0  0  0
   57.7875   29.3297   44.7364 C   0  0  0  0  0  0  0  0  0  0  0  0
   57.4538   30.0693   43.4746 C   0  0  0  0  0  0  0  0  0  0  0  0
   58.2388   29.9029   45.8751 N   0  0  0  0  0  0  0  0  0  0  0  0
   57.4937   25.2391   46.0234 C   0  0  0  0  0  0  0  0  0  0  0  0
   56.1072   25.1216   45.8394 C   0  0  0  0  0  0  0  0  0  0  0  0
   55.2524   26.1417   46.2382 O   0  0  0  0  0  0  0  0  0  0  0  0
   55.5925   24.0070   45.2581 N   0  0  0  0  0  0  0  0  0  0  0  0
   56.3963   22.9873   44.8635 C   0  0  0  0  0  0  0  0  0  0  0  0
   55.8959   21.9657   44.3243 O   0  0  0  0  0  0  0  0  0  0  0  0
   57.7379   23.0645   45.0547 N   0  0  0  0  0  0  0  0  0  0  0  0
   58.3027   24.1566   45.6321 C   0  0  0  0  0  0  0  0  0  0  0  0
   59.5484   24.1848   45.8158 O   0  0  0  0  0  0  0  0  0  0  0  0
   58.4701   31.3083   46.0723 C   0  0  0  0  0  0  0  0  0  0  0  0
   57.5463   32.2488   45.5965 C   0  0  0  0  0  0  0  0  0  0  0  0
   57.7802   33.6136   45.7739 C   0  0  0  0  0  0  0  0  0  0  0  0
   58.9344   34.0498   46.4273 C   0  0  0  0  0  0  0  0  0  0  0  0
   59.8696   33.1201   46.9159 C   0  0  0  0  0  0  0  0  0  0  0  0
   59.6298   31.7488   46.7291 C   0  0  0  0  0  0  0  0  0  0  0  0
   61.0713   33.5701   47.5719 N   0  0  0  0  0  0  0  0  0  0  0  0
   62.3437   33.6510   46.8440 C   0  0  0  0  0  0  0  0  0  0  0  0
   63.4656   32.9370   47.6252 C   0  0  0  0  0  0  0  0  0  0  0  0
   63.1984   32.8711   49.0833 N   0  0  0  0  0  0  0  0  0  0  0  0
   62.4361   34.0319   49.5789 C   0  0  0  0  0  0  0  0  0  0  0  0
   61.0278   33.9966   48.9769 C   0  0  0  0  0  0  0  0  0  0  0  0
   64.4210   32.6079   49.8709 C   0  0  0  0  0  0  0  0  0  0  0  0
   64.5091   33.4384   51.0871 C   0  0  0  0  0  0  0  0  0  0  0  0
   64.5777   34.0888   52.0413 N   0  0  0  0  0  0  0  0  0  0  0  0
  1  2  2  0
  2  3  1  0
  3  4  2  0
  4  9  1  0
  9 10  2  0
 10 11  1  0
 10 12  1  0
 12 13  1  0
 13 14  2  0
 13 15  1  0
 15 16  1  0
 16 17  2  0
  3  5  1  0
  5  6  2  0
  6  7  1  0
  6  8  1  0
  8 18  1  0
 18 19  2  0
 19 20  1  0
 20 21  2  0
 21 22  1  0
 22 24  1  0
 24 25  1  0
 25 26  1  0
 26 27  1  0
 27 30  1  0
 30 31  1  0
 31 32  3  0
 27 28  1  0
 28 29  1  0
 22 23  2  0
  8  2  1  0
 23 18  1  0
 16  9  1  0
 29 24  1  0
M  CHG 1  11  -1
M  CHG 1  12  -1
M  CHG 1  15  -1
M  END
> <UniqueID>
36

> <SMILES>
C=c1c(=Cc2c([O-])[n-]c(=O)[n-]c2=O)cc(C)n1-c1cccc(N2CCN(CC#N)CC2)c1

> <Energy>
116.16096787983668

> <Genealogy>
C=c1c(=Cc2c([O-])[n-]c(=O)[n-]c2=O)cc(C)n1-c1cccc(N2CCN(CC#N)CC2)c1 (protonated)
C=c1c(=Cc2c([O-])[n-]c(=O)[n-]c2=O)cc(C)n1-c1cccc(N2CCN(CC#N)CC2)c1 (3D coordinates assigned)
C=c1c(=Cc2c([O-])[n-]c(=O)[n-]c2=O)cc(C)n1-c1cccc(N2CCN(CC#N)CC2)c1 (nonaromatic ring conformer: 116.16096787983668 kcal/mol)

> <smiles>
C=c1c(=Cc2c(O)[nH]c(=O)[nH]c2=O)cc(C)n1-c1cccc(N2CCN(CC#N)CC2)c1

> <score_type>
oracle

> <origin>
adg

> <m_score__min__energy>
-16.77

> <m_primary>
energy

> <minimizedAffinity>
-9.30770

> <minimizedRMSD>
0.62440

> <CNNscore>
0.4272038341

> <CNNaffinity>
7.1399135590

> <CNN_VS>
3.0501985550

> <CNNaffinity_variance>
0.0774929747

$$$$
57:0


 26 28  0  0  0  0  0  0  0  0999 V2000
   59.8570   29.1831   44.6494 C   0  0  0  0  0  0  0  0  0  0  0  0
   59.4132   28.8429   45.8700 C   0  0  0  0  0  0  0  0  0  0  0  0
   58.6821   27.6985   46.2024 C   0  0  0  0  0  0  0  0  0  0  0  0
   58.2457   26.7346   45.3683 C   0  0  0  0  0  0  0  0  0  0  0  0
   58.4563   27.7633   47.5720 C   0  0  0  0  0  0  0  0  0  0  0  0
   59.0492   28.9285   48.0153 C   0  0  0  0  0  0  0  0  0  0  0  0
   59.0593   29.4004   49.4369 C   0  0  0  0  0  0  0  0  0  0  0  0
   59.6375   29.5765   46.9864 N   0  0  0  0  0  0  0  0  0  0  0  0
   57.6192   25.4761   45.8318 C   0  0  0  0  0  0  0  0  0  0  0  0
   56.2548   25.4116   46.1662 C   0  0  0  0  0  0  0  0  0  0  0  0
   55.4433   26.5365   46.0673 O   0  0  0  0  0  0  0  0  0  0  0  0
   55.7210   24.2440   46.6093 N   0  0  0  0  0  0  0  0  0  0  0  0
   56.4864   23.1331   46.7565 C   0  0  0  0  0  0  0  0  0  0  0  0
   55.9699   22.0624   47.1651 O   0  0  0  0  0  0  0  0  0  0  0  0
   57.8133   23.1786   46.4681 N   0  0  0  0  0  0  0  0  0  0  0  0
   58.3946   24.3206   46.0190 C   0  0  0  0  0  0  0  0  0  0  0  0
   59.6298   24.3276   45.7654 O   0  0  0  0  0  0  0  0  0  0  0  0
   60.3395   30.8257   47.0754 C   0  0  0  0  0  0  0  0  0  0  0  0
   61.6785   30.8338   47.4933 C   0  0  0  0  0  0  0  0  0  0  0  0
   62.3862   32.0355   47.5717 C   0  0  0  0  0  0  0  0  0  0  0  0
   61.7615   33.2379   47.2337 C   0  0  0  0  0  0  0  0  0  0  0  0
   60.4273   33.2419   46.8190 C   0  0  0  0  0  0  0  0  0  0  0  0
   59.7042   32.0411   46.7398 C   0  0  0  0  0  0  0  0  0  0  0  0
   58.3303   32.0696   46.3356 N   0  0  0  0  0  0  0  0  0  0  0  0
   57.9027   32.9259   46.1051 H   0  0  0  0  0  0  0  0  0  0  0  0
   57.8136   31.2329   46.2884 H   0  0  0  0  0  0  0  0  0  0  0  0
  1  2  2  0
  2  3  1  0
  3  4  2  0
  4  9  1  0
  9 10  2  0
 10 11  1  0
 10 12  1  0
 12 13  1  0
 13 14  2  0
 13 15  1  0
 15 16  1  0
 16 17  2  0
  3  5  1  0
  5  6  2  0
  6  7  1  0
  6  8  1  0
  8 18  1  0
 18 19  2  0
 19 20  1  0
 20 21  2  0
 21 22  1  0
 22 23  2  0
 23 24  1  0
  8  2  1  0
 23 18  1  0
 16  9  1  0
 24 25  1  0
 24 26  1  0
M  CHG 1  11  -1
M  CHG 1  12  -1
M  CHG 1  15  -1
M  END
> <UniqueID>
52

> <SMILES>
C=c1c(=Cc2c([O-])[n-]c(=O)[n-]c2=O)cc(C)n1-c1ccccc1N

> <Energy>
84.50972626749972

> <Genealogy>
C=c1c(=Cc2c([O-])[n-]c(=O)[n-]c2=O)cc(C)n1-c1ccccc1N (protonated)
C=c1c(=Cc2c([O-])[n-]c(=O)[n-]c2=O)cc(C)n1-c1ccccc1N (3D coordinates assigned)
C=c1c(=Cc2c([O-])[n-]c(=O)[n-]c2=O)cc(C)n1-c1ccccc1N (optimized conformer: 84.50972626749972 kcal/mol)

> <smiles>
C=c1c(=Cc2c(O)[nH]c(=O)[nH]c2=O)cc(C)n1-c1ccccc1N

> <score_type>
oracle

> <origin>
adg

> <m_score__min__energy>
-15.050000000000001

> <m_primary>
energy

> <minimizedAffinity>
-7.43065

> <minimizedRMSD>
1.68195

> <CNNscore>
0.1276756674

> <CNNaffinity>
5.8621172905

> <CNN_VS>
0.7484497428

> <CNNaffinity_variance>
0.1793341190

$$$$
84:0


 37 40  0  0  0  0  0  0  0  0999 V2000
   57.9369   25.4477   44.3355 O   0  0  0  0  0  0  0  0  0  0  0  0
   58.0066   24.8685   45.4534 C   0  0  0  0  0  0  0  0  0  0  0  0
   59.1682   25.0410   46.2805 N   0  0  0  0  0  0  0  0  0  0  0  0
   59.2041   24.5812   47.1502 H   0  0  0  0  0  0  0  0  0  0  0  0
   56.8673   24.0446   45.9196 C   0  0  0  0  0  0  0  0  0  0  0  0
   55.6292   24.6399   46.2002 C   0  0  0  0  0  0  0  0  0  0  0  0
   55.4455   26.0117   46.0493 O   0  0  0  0  0  0  0  0  0  0  0  0
   54.5996   23.8809   46.6458 N   0  0  0  0  0  0  0  0  0  0  0  0
   54.7285   22.5443   46.8270 C   0  0  0  0  0  0  0  0  0  0  0  0
   53.7427   21.8933   47.2707 O   0  0  0  0  0  0  0  0  0  0  0  0
   55.9150   21.9184   46.5437 N   0  0  0  0  0  0  0  0  0  0  0  0
   56.9819   22.6509   46.0851 C   0  0  0  0  0  0  0  0  0  0  0  0
   58.0607   22.0720   45.7763 O   0  0  0  0  0  0  0  0  0  0  0  0
   56.0360   20.4883   46.7107 C   0  0  0  0  0  0  0  0  0  0  0  0
   55.7000   19.6178   45.6607 C   0  0  0  0  0  0  0  0  0  0  0  0
   55.8149   18.2340   45.8275 C   0  0  0  0  0  0  0  0  0  0  0  0
   56.2689   17.7104   47.0409 C   0  0  0  0  0  0  0  0  0  0  0  0
   56.6072   18.5687   48.0898 C   0  0  0  0  0  0  0  0  0  0  0  0
   56.4892   19.9539   47.9286 C   0  0  0  0  0  0  0  0  0  0  0  0
   60.2989   25.8748   45.8770 C   0  0  0  0  0  0  0  0  0  0  0  0
   60.2219   27.2261   46.5355 C   0  0  0  0  0  0  0  0  0  0  0  0
   59.8955   27.3299   47.8954 C   0  0  0  0  0  0  0  0  0  0  0  0
   59.8001   28.5841   48.5066 C   0  0  0  0  0  0  0  0  0  0  0  0
   60.0551   29.7507   47.7708 C   0  0  0  0  0  0  0  0  0  0  0  0
   60.3736   29.6491   46.4045 C   0  0  0  0  0  0  0  0  0  0  0  0
   60.4598   28.3957   45.7916 C   0  0  0  0  0  0  0  0  0  0  0  0
   59.9924   31.1038   48.4325 C   0  0  0  0  0  0  0  0  0  0  0  0
   58.7217   31.7666   48.1343 N   0  0  0  0  0  0  0  0  0  0  0  0
   58.8608   32.8040   46.7449 S   0  0  0  0  0  0  0  0  0  0  0  0
   58.0992   34.0732   47.0035 O   0  0  0  0  0  0  0  0  0  0  0  0
   60.3065   33.1550   46.5251 O   0  0  0  0  0  0  0  0  0  0  0  0
   58.1962   32.0276   45.3083 C   0  0  0  0  0  0  0  0  0  0  0  0
   58.2612   32.6820   44.0704 C   0  0  0  0  0  0  0  0  0  0  0  0
   57.6975   32.0938   42.9338 C   0  0  0  0  0  0  0  0  0  0  0  0
   57.0675   30.8500   43.0276 C   0  0  0  0  0  0  0  0  0  0  0  0
   57.0038   30.1906   44.2600 C   0  0  0  0  0  0  0  0  0  0  0  0
   57.5663   30.7766   45.3980 C   0  0  0  0  0  0  0  0  0  0  0  0
  1  2  2  0
  2  3  1  0
  3 20  1  0
 20 21  1  0
 21 22  2  0
 22 23  1  0
 23 24  2  0
 24 27  1  0
 27 28  1  0
 28 29  1  0
 29 30  2  0
 29 31  2  0
 29 32  1  0
 32 33  2  0
 33 34  1  0
 34 35  2  0
 35 36  1  0
 36 37  2  0
 24 25  1  0
 25 26  2  0
  2  5  1  0
  5  6  2  0
  6  7  1  0
  6  8  1  0
  8  9  1  0
  9 10  2  0
  9 11  1  0
 11 14  1  0
 14 15  2  0
 15 16  1  0
 16 17  2  0
 17 18  1  0
 18 19  2  0
 11 12  1  0
 12 13  2  0
 26 21  1  0
 12  5  1  0
 37 32  1  0
 19 14  1  0
  3  4  1  0
M  CHG 1   7  -1
M  CHG 1   8  -1
M  CHG 1  28  -1
M  END
> <UniqueID>
78

> <SMILES>
O=C(NCc1ccc(C[N-]S(=O)(=O)c2ccccc2)cc1)c1c([O-])[n-]c(=O)n(-c2ccccc2)c1=O

> <Energy>
70.24043260519987

> <Genealogy>
O=C(NCc1ccc(C[N-]S(=O)(=O)c2ccccc2)cc1)c1c([O-])[n-]c(=O)n(-c2ccccc2)c1=O (protonated)
O=C(NCc1ccc(C[N-]S(=O)(=O)c2ccccc2)cc1)c1c([O-])[n-]c(=O)n(-c2ccccc2)c1=O (3D coordinates assigned)
O=C(NCc1ccc(C[N-]S(=O)(=O)c2ccccc2)cc1)c1c([O-])[n-]c(=O)n(-c2ccccc2)c1=O (optimized conformer: 70.24043260519987 kcal/mol)

> <smiles>
O=C(NCc1ccc(CNS(=O)(=O)c2ccccc2)cc1)c1c(O)[nH]c(=O)n(-c2ccccc2)c1=O

> <score_type>
oracle

> <origin>
adg

> <m_score__min__energy>
-14.539999999999999

> <m_primary>
energy

> <minimizedAffinity>
-7.23756

> <minimizedRMSD>
1.38782

> <CNNscore>
0.0409613550

> <CNNaffinity>
5.4793410301

> <CNN_VS>
0.2244412303

> <CNNaffinity_variance>
0.3620900810

$$$$
85:0


 36 39  0  0  0  0  0  0  0  0999 V2000
   55.4774   30.5942   52.0795 C   0  0  0  0  0  0  0  0  0  0  0  0
   55.3498   29.9440   53.2573 C   0  0  0  0  0  0  0  0  0  0  0  0
   56.4901   29.3289   53.8237 C   0  0  0  0  0  0  0  0  0  0  0  0
   56.3441   28.4036   54.7968 N   0  0  0  0  0  0  0  0  0  0  0  0
   55.1450   28.0303   55.2974 C   0  0  0  0  0  0  0  0  0  0  0  0
   55.1483   26.9592   56.3529 C   0  0  0  0  0  0  0  0  0  0  0  0
   53.9640   28.6794   54.8590 C   0  0  0  0  0  0  0  0  0  0  0  0
   54.0710   29.7158   53.8698 C   0  0  0  0  0  0  0  0  0  0  0  0
   52.9711   30.4588   53.5530 C   0  0  0  0  0  0  0  0  0  0  0  0
   52.3526   30.5312   52.2117 C   0  0  0  0  0  0  0  0  0  0  0  0
   52.5647   29.6512   51.2153 N   0  0  0  0  0  0  0  0  0  0  0  0
   51.8940   30.1886   50.1748 C   0  0  0  0  0  0  0  0  0  0  0  0
   51.8444   29.6393   49.0429 O   0  0  0  0  0  0  0  0  0  0  0  0
   51.2846   31.3643   50.4389 N   0  0  0  0  0  0  0  0  0  0  0  0
   51.5962   31.5716   51.7274 C   0  0  0  0  0  0  0  0  0  0  0  0
   51.1942   32.6874   52.4494 O   0  0  0  0  0  0  0  0  0  0  0  0
   57.8565   29.5856   53.3546 C   0  0  0  0  0  0  0  0  0  0  0  0
   58.6878   28.6399   53.3120 O   0  0  0  0  0  0  0  0  0  0  0  0
   58.2491   30.9180   53.0081 N   0  0  0  0  0  0  0  0  0  0  0  0
   59.6083   31.4173   53.1765 C   0  0  0  0  0  0  0  0  0  0  0  0
   60.2206   31.6560   51.8318 C   0  0  0  0  0  0  0  0  0  0  0  0
   60.2596   30.7294   50.7957 C   0  0  0  0  0  0  0  0  0  0  0  0
   60.6370   31.2873   49.5682 C   0  0  0  0  0  0  0  0  0  0  0  0
   60.8847   32.6536   49.6403 C   0  0  0  0  0  0  0  0  0  0  0  0
   60.6273   33.1690   51.2205 S   0  0  0  0  0  0  0  0  0  0  0  0
   61.1086   33.5663   48.4746 C   0  0  0  0  0  0  0  0  0  0  0  0
   60.0846   33.3207   47.4413 N   0  0  0  0  0  0  0  0  0  0  0  0
   60.0941   34.3653   46.4040 C   0  0  0  0  0  0  0  0  0  0  0  0
   59.2469   33.9050   45.2090 C   0  0  0  0  0  0  0  0  0  0  0  0
   58.0985   33.0576   45.6061 N   0  0  0  0  0  0  0  0  0  0  0  0
   57.6156   33.2452   46.9907 C   0  0  0  0  0  0  0  0  0  0  0  0
   58.7435   33.2258   48.0476 C   0  0  0  0  0  0  0  0  0  0  0  0
   58.1573   31.6550   45.1392 C   0  0  0  0  0  0  0  0  0  0  0  0
   57.7562   31.4700   43.6724 C   0  0  0  0  0  0  0  0  0  0  0  0
   52.6241   28.2756   55.4753 C   0  0  0  0  0  0  0  0  0  0  0  0
   52.3311   29.1011   56.7264 C   0  0  0  0  0  0  0  0  0  0  0  0
  1  2  2  0
  2  3  1  0
  3 17  1  0
 17 18  2  0
 17 19  1  0
 19 20  1  0
 20 21  1  0
 21 22  2  0
 22 23  1  0
 23 24  2  0
 24 26  1  0
 26 27  1  0
 27 28  1  0
 28 29  1  0
 29 30  1  0
 30 33  1  0
 33 34  1  0
 30 31  1  0
 31 32  1  0
 24 25  1  0
  3  4  2  0
  4  5  1  0
  5  6  1  0
  5  7  2  0
  7 35  1  0
 35 36  1  0
  7  8  1  0
  8  9  2  0
  9 10  1  0
 10 11  1  0
 11 12  1  0
 12 13  2  0
 12 14  1  0
 14 15  1  0
 15 16  1  0
  8  2  1  0
 15 10  2  0
 25 21  1  0
 32 27  1  0
M  CHG 1  11  -1
M  CHG 1  14  -1
M  CHG 1  16  -1
M  CHG 1  19  -1
M  END
> <UniqueID>
79

> <SMILES>
C=c1c(C(=O)[N-]Cc2ccc(CN3CCN(CC)CC3)s2)nc(C)c(CC)c1=Cc1[n-]c(=O)[n-]c1[O-]

> <Energy>
166.80232328630527

> <Genealogy>
C=c1c(C(=O)[N-]Cc2ccc(CN3CCN(CC)CC3)s2)nc(C)c(CC)c1=Cc1[n-]c(=O)[n-]c1[O-] (protonated)
C=c1c(C(=O)[N-]Cc2ccc(CN3CCN(CC)CC3)s2)nc(C)c(CC)c1=Cc1[n-]c(=O)[n-]c1[O-] (3D coordinates assigned)
C=c1c(C(=O)[N-]Cc2ccc(CN3CCN(CC)CC3)s2)nc(C)c(CC)c1=Cc1[n-]c(=O)[n-]c1[O-] (nonaromatic ring conformer: 166.80232328630527 kcal/mol)

> <smiles>
C=c1c(C(=O)NCc2ccc(CN3CCN(CC)CC3)s2)nc(C)c(CC)c1=Cc1[nH]c(=O)[nH]c1O

> <score_type>
oracle

> <origin>
adg

> <m_score__min__energy>
-19.010000000000002

> <m_primary>
energy

> <minimizedAffinity>
-5.87017

> <minimizedRMSD>
1.35363

> <CNNscore>
0.0445891768

> <CNNaffinity>
5.4114098549

> <CNN_VS>
0.2412903160

> <CNNaffinity_variance>
1.3203262091

$$$$
1:0


 29 31  0  0  0  0  0  0  0  0999 V2000
   59.6830   28.6741   48.9760 C   0  0  0  0  0  0  0  0  0  0  0  0
   60.4647   29.4748   48.2360 C   0  0  0  0  0  0  0  0  0  0  0  0
   60.4700   29.5846   46.8345 C   0  0  0  0  0  0  0  0  0  0  0  0
   59.8955   28.8203   45.8857 C   0  0  0  0  0  0  0  0  0  0  0  0
   61.2511   30.6865   46.5361 C   0  0  0  0  0  0  0  0  0  0  0  0
   61.7481   31.1626   47.7309 C   0  0  0  0  0  0  0  0  0  0  0  0
   62.6607   32.3472   47.8546 C   0  0  0  0  0  0  0  0  0  0  0  0
   61.2773   30.4298   48.7670 N   0  0  0  0  0  0  0  0  0  0  0  0
   58.8618   27.7989   46.1195 C   0  0  0  0  0  0  0  0  0  0  0  0
   59.1021   26.5595   46.5862 N   0  0  0  0  0  0  0  0  0  0  0  0
   57.8954   25.9566   46.5039 C   0  0  0  0  0  0  0  0  0  0  0  0
   57.7057   24.7668   46.8679 O   0  0  0  0  0  0  0  0  0  0  0  0
   56.9123   26.7250   45.9885 N   0  0  0  0  0  0  0  0  0  0  0  0
   57.5452   27.8824   45.7376 C   0  0  0  0  0  0  0  0  0  0  0  0
   56.9331   28.9902   45.1662 O   0  0  0  0  0  0  0  0  0  0  0  0
   61.5959   30.6400   50.1902 C   0  0  0  0  0  0  0  0  0  0  0  0
   60.3341   30.9605   50.9982 C   0  0  0  0  0  0  0  0  0  0  0  0
   59.5542   32.0773   50.3704 C   0  0  0  0  0  0  0  0  0  0  0  0
   58.3050   32.1287   50.5327 O   0  0  0  0  0  0  0  0  0  0  0  0
   60.2344   33.1014   49.6339 N   0  0  0  0  0  0  0  0  0  0  0  0
   61.2128   33.0464   49.5395 H   0  0  0  0  0  0  0  0  0  0  0  0
   59.5308   34.2235   49.0177 C   0  0  0  0  0  0  0  0  0  0  0  0
   59.2054   33.9115   47.5813 C   0  0  0  0  0  0  0  0  0  0  0  0
   59.6897   34.7263   46.5439 C   0  0  0  0  0  0  0  0  0  0  0  0
   59.3686   34.4366   45.2145 C   0  0  0  0  0  0  0  0  0  0  0  0
   58.5615   33.3353   44.9112 C   0  0  0  0  0  0  0  0  0  0  0  0
   58.2494   33.0584   43.6209 F   0  0  0  0  0  0  0  0  0  0  0  0
   58.0747   32.5227   45.9382 C   0  0  0  0  0  0  0  0  0  0  0  0
   58.3946   32.8081   47.2695 C   0  0  0  0  0  0  0  0  0  0  0  0
  1  2  2  0
  2  3  1  0
  3  4  2  0
  4  9  1  0
  9 10  1  0
 10 11  1  0
 11 12  2  0
 11 13  1  0
 13 14  1  0
 14 15  1  0
  3  5  1  0
  5  6  2  0
  6  7  1  0
  6  8  1  0
  8 16  1  0
 16 17  1  0
 17 18  1  0
 18 19  2  0
 18 20  1  0
 20 22  1  0
 22 23  1  0
 23 24  2  0
 24 25  1  0
 25 26  2  0
 26 27  1  0
 26 28  1  0
 28 29  2  0
  8  2  1  0
 29 23  1  0
 14  9  2  0
 20 21  1  0
M  CHG 1  10  -1
M  CHG 1  13  -1
M  CHG 1  15  -1
M  END
> <UniqueID>
2

> <SMILES>
C=c1/c(=C\c2[n-]c(=O)[n-]c2[O-])cc(C)n1CCC(=O)NCc1ccc(F)cc1

> <Energy>
109.48870409403511

> <Genealogy>
C=c1c(=Cc2[n-]c(=O)[n-]c2[O-])cc(C)n1CCC(=O)NCc1ccc(F)cc1 (protonated)
C=c1/c(=C\c2[n-]c(=O)[n-]c2[O-])cc(C)n1CCC(=O)NCc1ccc(F)cc1 (cis-trans isomerization)
C=c1/c(=C\c2[n-]c(=O)[n-]c2[O-])cc(C)n1CCC(=O)NCc1ccc(F)cc1 (3D coordinates assigned)
C=c1/c(=C\c2[n-]c(=O)[n-]c2[O-])cc(C)n1CCC(=O)NCc1ccc(F)cc1 (optimized conformer: 109.48870409403511 kcal/mol)

> <smiles>
C=c1c(=Cc2[nH]c(=O)[nH]c2O)cc(C)n1CCC(=O)NCc1ccc(F)cc1

> <score_type>
oracle

> <origin>
adg

> <m_score__min__energy>
-16.32

> <m_primary>
energy

> <minimizedAffinity>
-7.44421

> <minimizedRMSD>
1.26128

> <CNNscore>
0.5118037462

> <CNNaffinity>
6.8338093758

> <CNN_VS>
3.4975693226

> <CNNaffinity_variance>
0.0097096898

$$$$
2:0


 25 28  0  0  0  0  0  0  0  0999 V2000
   56.5154   31.7747   52.3472 C   0  0  0  0  0  0  0  0  0  0  0  0
   56.1682   30.5549   52.7890 C   0  0  0  0  0  0  0  0  0  0  0  0
   54.8927   30.1353   53.2025 C   0  0  0  0  0  0  0  0  0  0  0  0
   53.6873   30.7246   53.0845 C   0  0  0  0  0  0  0  0  0  0  0  0
   55.0677   28.8992   53.8030 C   0  0  0  0  0  0  0  0  0  0  0  0
   56.4023   28.5762   53.6734 C   0  0  0  0  0  0  0  0  0  0  0  0
   57.0191   27.3037   54.1712 C   0  0  0  0  0  0  0  0  0  0  0  0
   57.0721   29.5764   53.0595 N   0  0  0  0  0  0  0  0  0  0  0  0
   52.7982   30.6337   51.9164 C   0  0  0  0  0  0  0  0  0  0  0  0
   53.0025   29.7854   50.8922 N   0  0  0  0  0  0  0  0  0  0  0  0
   52.0407   30.1282   50.0086 C   0  0  0  0  0  0  0  0  0  0  0  0
   51.8922   29.5388   48.9063 O   0  0  0  0  0  0  0  0  0  0  0  0
   51.2580   31.1593   50.3913 N   0  0  0  0  0  0  0  0  0  0  0  0
   51.7607   31.4779   51.5944 C   0  0  0  0  0  0  0  0  0  0  0  0
   51.2975   32.5347   52.3681 O   0  0  0  0  0  0  0  0  0  0  0  0
   58.4834   29.5923   52.7801 C   0  0  0  0  0  0  0  0  0  0  0  0
   58.9384   29.4815   51.4595 C   0  0  0  0  0  0  0  0  0  0  0  0
   60.3206   29.4890   51.1876 C   0  0  0  0  0  0  0  0  0  0  0  0
   61.2104   29.6012   52.2652 C   0  0  0  0  0  0  0  0  0  0  0  0
   60.7209   29.7058   53.5682 C   0  0  0  0  0  0  0  0  0  0  0  0
   59.3820   29.6996   53.7995 N   0  0  0  0  0  0  0  0  0  0  0  0
   59.0534   29.7744   54.7245 H   0  0  0  0  0  0  0  0  0  0  0  0
   60.9089   29.3827   49.7910 C   0  0  0  0  0  0  0  0  0  0  0  0
   60.0416   29.8569   48.6340 C   0  0  0  0  0  0  0  0  0  0  0  0
   60.2823   28.3672   48.8442 C   0  0  0  0  0  0  0  0  0  0  0  0
  1  2  2  0
  2  3  1  0
  3  4  2  0
  4  9  1  0
  9 10  1  0
 10 11  1  0
 11 12  2  0
 11 13  1  0
 13 14  1  0
 14 15  1  0
  3  5  1  0
  5  6  2  0
  6  7  1  0
  6  8  1  0
  8 16  1  0
 16 17  2  0
 17 18  1  0
 18 23  1  0
 23 24  1  0
 24 25  1  0
 18 19  2  0
 19 20  1  0
 20 21  2  0
  8  2  1  0
 21 16  1  0
 14  9  2  0
 25 23  1  0
 21 22  1  0
M  CHG 1  10  -1
M  CHG 1  13  -1
M  CHG 1  15  -1
M  CHG 1  21   1
M  END
> <UniqueID>
3

> <SMILES>
C=c1/c(=C\c2[n-]c(=O)[n-]c2[O-])cc(C)n1-c1cc(C2CC2)cc[nH+]1

> <Energy>
385.7945519098059

> <Genealogy>
C=c1c(=Cc2[n-]c(=O)[n-]c2[O-])cc(C)n1-c1cc(C2CC2)cc[nH+]1 (protonated)
C=c1/c(=C\c2[n-]c(=O)[n-]c2[O-])cc(C)n1-c1cc(C2CC2)cc[nH+]1 (cis-trans isomerization)
C=c1/c(=C\c2[n-]c(=O)[n-]c2[O-])cc(C)n1-c1cc(C2CC2)cc[nH+]1 (3D coordinates assigned)
C=c1/c(=C\c2[n-]c(=O)[n-]c2[O-])cc(C)n1-c1cc(C2CC2)cc[nH+]1 (nonaromatic ring conformer: 385.7945519098059 kcal/mol)

> <smiles>
C=c1c(=Cc2[nH]c(=O)[nH]c2O)cc(C)n1-c1cc(C2CC2)ccn1

> <score_type>
oracle

> <origin>
adg

> <m_score__min__energy>
-14.44

> <m_primary>
energy

> <minimizedAffinity>
-4.75638

> <minimizedRMSD>
1.20812

> <CNNscore>
0.1058606058

> <CNNaffinity>
4.7549700737

> <CNN_VS>
0.5033640265

> <CNNaffinity_variance>
0.6828593612

$$$$
4:0


 27 29  0  0  0  0  0  0  0  0999 V2000
   56.8328   31.4478   52.2005 N   0  0  0  0  0  0  0  0  0  0  0  0
   58.0247   31.9907   51.6104 C   0  0  0  0  0  0  0  0  0  0  0  0
   58.3174   31.8221   50.2437 C   0  0  0  0  0  0  0  0  0  0  0  0
   59.4805   32.3824   49.6895 C   0  0  0  0  0  0  0  0  0  0  0  0
   60.3355   33.1395   50.5027 C   0  0  0  0  0  0  0  0  0  0  0  0
   60.0365   33.3292   51.8539 C   0  0  0  0  0  0  0  0  0  0  0  0
   58.8842   32.7618   52.4054 C   0  0  0  0  0  0  0  0  0  0  0  0
   58.5970   32.9670   53.7503 O   0  0  0  0  0  0  0  0  0  0  0  0
   59.7773   32.2294   48.2206 C   0  0  0  0  0  0  0  0  0  0  0  0
   59.2016   33.3569   47.4616 N   0  0  0  0  0  0  0  0  0  0  0  0
   60.1279   33.8454   46.4386 C   0  0  0  0  0  0  0  0  0  0  0  0
   59.2813   34.4890   45.3514 C   0  0  0  0  0  0  0  0  0  0  0  0
   57.8823   33.9245   45.5429 C   0  0  0  0  0  0  0  0  0  0  0  0
   57.9852   32.9816   46.7308 C   0  0  0  0  0  0  0  0  0  0  0  0
   56.6515   30.1103   52.6841 C   0  0  0  0  0  0  0  0  0  0  0  0
   57.6148   29.2991   52.7137 O   0  0  0  0  0  0  0  0  0  0  0  0
   53.3702   29.8315   53.9838 C   0  0  0  0  0  0  0  0  0  0  0  0
   53.6366   28.4805   53.8784 C   0  0  0  0  0  0  0  0  0  0  0  0
   54.9144   28.3901   53.3716 C   0  0  0  0  0  0  0  0  0  0  0  0
   55.3445   29.6933   53.2009 C   0  0  0  0  0  0  0  0  0  0  0  0
   54.4023   30.5308   53.5737 O   0  0  0  0  0  0  0  0  0  0  0  0
   52.0928   30.4389   54.4701 C   0  0  0  0  0  0  0  0  0  0  0  0
   51.1578   30.6013   53.3618 N   0  0  0  0  0  0  0  0  0  0  0  0
   51.1870   31.7119   52.4617 C   0  0  0  0  0  0  0  0  0  0  0  0
   50.5701   32.7769   52.7412 O   0  0  0  0  0  0  0  0  0  0  0  0
   52.3274   30.3247   50.6797 C   0  0  0  0  0  0  0  0  0  0  0  0
   51.9255   31.6045   51.2434 N   0  0  0  0  0  0  0  0  0  0  0  0
 26 27  1  0
 27 24  1  0
 24 25  2  0
 24 23  1  0
 23 22  1  0
 22 17  1  0
 17 18  2  0
 18 19  1  0
 19 20  2  0
 20 15  1  0
 15 16  2  0
 15  1  1  0
  1  2  1  0
  2  3  2  0
  3  4  1  0
  4  9  1  0
  9 10  1  0
 10 11  1  0
 11 12  1  0
 12 13  1  0
 13 14  1  0
  4  5  2  0
  5  6  1  0
  6  7  2  0
  7  8  1  0
 20 21  1  0
 21 17  1  0
  7  2  1  0
 14 10  1  0
M  CHG 1   1  -1
M  CHG 1   8  -1
M  CHG 1  23  -1
M  CHG 1  27  -1
M  END
> <UniqueID>
5

> <SMILES>
C[N-]C(=O)[N-]Cc1ccc(C(=O)[N-]c2cc(CN3CCCC3)ccc2[O-])o1

> <Energy>
71.96919646938304

> <Genealogy>
C[N-]C(=O)[N-]Cc1ccc(C(=O)[N-]c2cc(CN3CCCC3)ccc2[O-])o1 (protonated)
C[N-]C(=O)[N-]Cc1ccc(C(=O)[N-]c2cc(CN3CCCC3)ccc2[O-])o1 (3D coordinates assigned)
C[N-]C(=O)[N-]Cc1ccc(C(=O)[N-]c2cc(CN3CCCC3)ccc2[O-])o1 (nonaromatic ring conformer: 71.96919646938304 kcal/mol)

> <smiles>
CNC(=O)NCc1ccc(C(=O)Nc2cc(CN3CCCC3)ccc2O)o1

> <score_type>
oracle

> <origin>
adg

> <m_score__min__energy>
-15.26

> <m_primary>
energy

> <minimizedAffinity>
-5.81848

> <minimizedRMSD>
0.96635

> <CNNscore>
0.5391321778

> <CNNaffinity>
5.6531929970

> <CNN_VS>
3.0478181839

> <CNNaffinity_variance>
0.0305501688

$$$$
6:0


 39 43  0  0  0  0  0  0  0  0999 V2000
   59.8416   32.4978   47.1679 C   0  0  0  0  0  0  0  0  0  0  0  0
   59.4217   33.3677   48.1899 C   0  0  0  0  0  0  0  0  0  0  0  0
   60.3450   33.9017   49.0912 C   0  0  0  0  0  0  0  0  0  0  0  0
   61.7078   33.5806   48.9869 C   0  0  0  0  0  0  0  0  0  0  0  0
   62.1273   32.6986   47.9799 C   0  0  0  0  0  0  0  0  0  0  0  0
   61.2041   32.1588   47.0815 C   0  0  0  0  0  0  0  0  0  0  0  0
   57.8527   27.8046   46.1238 C   0  0  0  0  0  0  0  0  0  0  0  0
   58.6482   28.2433   47.1188 C   0  0  0  0  0  0  0  0  0  0  0  0
   59.2443   29.6263   47.1518 C   0  0  0  0  0  0  0  0  0  0  0  0
   58.6780   30.4973   46.1173 N   0  0  0  0  0  0  0  0  0  0  0  0
   58.8570   31.9187   46.2221 C   0  0  0  0  0  0  0  0  0  0  0  0
   58.1564   32.6830   45.5027 O   0  0  0  0  0  0  0  0  0  0  0  0
   58.3573   29.9058   44.8217 C   0  0  0  0  0  0  0  0  0  0  0  0
   57.3917   28.7413   45.0296 C   0  0  0  0  0  0  0  0  0  0  0  0
   53.9300   24.6027   45.7752 H   0  0  0  0  0  0  0  0  0  0  0  0
   54.8090   24.1630   46.1309 N   0  0  0  0  0  0  0  0  0  0  0  0
   55.9242   24.8154   46.1430 C   0  0  0  0  0  0  0  0  0  0  0  0
   57.1280   24.2087   46.1937 N   0  0  0  0  0  0  0  0  0  0  0  0
   57.9977   25.2340   46.1927 C   0  0  0  0  0  0  0  0  0  0  0  0
   57.2970   26.4264   46.1424 C   0  0  0  0  0  0  0  0  0  0  0  0
   55.9766   26.1610   46.1077 N   0  0  0  0  0  0  0  0  0  0  0  0
   62.7099   34.1560   49.9475 C   0  0  0  0  0  0  0  0  0  0  0  0
   63.9930   33.4689   49.8184 N   0  0  0  0  0  0  0  0  0  0  0  0
   64.5165   32.4952   50.7306 C   0  0  0  0  0  0  0  0  0  0  0  0
   65.6200   31.9487   50.4656 O   0  0  0  0  0  0  0  0  0  0  0  0
   63.7697   32.0785   51.9677 C   0  0  0  0  0  0  0  0  0  0  0  0
   63.3921   30.6546   51.8834 N   0  0  0  0  0  0  0  0  0  0  0  0
   63.2123   30.0333   53.2231 C   0  0  0  0  0  0  0  0  0  0  0  0
   61.7481   29.6839   53.5277 C   0  0  0  0  0  0  0  0  0  0  0  0
   61.1912   28.7600   52.5087 N   0  0  0  0  0  0  0  0  0  0  0  0
   61.6526   29.0580   51.1272 C   0  0  0  0  0  0  0  0  0  0  0  0
   62.2301   30.4732   50.9867 C   0  0  0  0  0  0  0  0  0  0  0  0
   59.7170   28.7020   52.5863 C   0  0  0  0  0  0  0  0  0  0  0  0
   59.1138   30.0800   52.4800 C   0  0  0  0  0  0  0  0  0  0  0  0
   59.0295   30.9128   53.6079 C   0  0  0  0  0  0  0  0  0  0  0  0
   58.4577   32.1864   53.5001 C   0  0  0  0  0  0  0  0  0  0  0  0
   57.9677   32.6327   52.2704 C   0  0  0  0  0  0  0  0  0  0  0  0
   58.0447   31.8078   51.1453 C   0  0  0  0  0  0  0  0  0  0  0  0
   58.6159   30.5358   51.2475 C   0  0  0  0  0  0  0  0  0  0  0  0
 15 16  1  0
 16 17  2  0
 17 18  1  0
 18 19  1  0
 19 20  2  0
 20  7  1  0
  7  8  2  0
  8  9  1  0
  9 10  1  0
 10 11  1  0
 11 12  2  0
 11  1  1  0
  1  2  2  0
  2  3  1  0
  3  4  2  0
  4 22  1  0
 22 23  1  0
 23 24  1  0
 24 25  2  0
 24 26  1  0
 26 27  1  0
 27 28  1  0
 28 29  1  0
 29 30  1  0
 30 33  1  0
 33 34  1  0
 34 35  2  0
 35 36  1  0
 36 37  2  0
 37 38  1  0
 38 39  2  0
 30 31  1  0
 31 32  1  0
  4  5  1  0
  5  6  2  0
 10 13  1  0
 13 14  1  0
 20 21  1  0
 21 17  1  0
 14  7  1  0
  6  1  1  0
 32 27  1  0
 39 34  1  0
M  CHG 1  18  -1
M  CHG 1  21  -1
M  CHG 1  23  -1
M  END
> <UniqueID>
7

> <SMILES>
[H]/N=c1\[n-]cc(C2=CCN(C(=O)c3ccc(C[N-]C(=O)CN4CCN(Cc5ccccc5)CC4)cc3)CC2)[n-]1

> <Energy>
119.11420764204406

> <Genealogy>
N=c1[n-]cc(C2=CCN(C(=O)c3ccc(C[N-]C(=O)CN4CCN(Cc5ccccc5)CC4)cc3)CC2)[n-]1 (protonated)
[H]/N=c1\[n-]cc(C2=CCN(C(=O)c3ccc(C[N-]C(=O)CN4CCN(Cc5ccccc5)CC4)cc3)CC2)[n-]1 (cis-trans isomerization)
[H]/N=c1\[n-]cc(C2=CCN(C(=O)c3ccc(C[N-]C(=O)CN4CCN(Cc5ccccc5)CC4)cc3)CC2)[n-]1 (3D coordinates assigned)
[H]/N=c1\[n-]cc(C2=CCN(C(=O)c3ccc(C[N-]C(=O)CN4CCN(Cc5ccccc5)CC4)cc3)CC2)[n-]1 (nonaromatic ring conformer: 119.11420764204406 kcal/mol)

> <smiles>
N=c1[nH]cc(C2=CCN(C(=O)c3ccc(CNC(=O)CN4CCN(Cc5ccccc5)CC4)cc3)CC2)[nH]1

> <score_type>
oracle

> <origin>
adg

> <m_score__min__energy>
-14.73

> <m_primary>
energy

> <minimizedAffinity>
-7.96962

> <minimizedRMSD>
1.39625

> <CNNscore>
0.0895628482

> <CNNaffinity>
6.7716712952

> <CNN_VS>
0.6064901948

> <CNNaffinity_variance>
0.0338070318

$$$$
7:0


 29 32  0  0  0  0  0  0  0  0999 V2000
   57.0345   31.8552   53.2616 C   0  0  0  0  0  0  0  0  0  0  0  0
   56.9646   30.5252   53.4128 C   0  0  0  0  0  0  0  0  0  0  0  0
   55.8746   29.7787   53.8889 C   0  0  0  0  0  0  0  0  0  0  0  0
   54.5904   30.1257   54.1061 C   0  0  0  0  0  0  0  0  0  0  0  0
   56.3491   28.4941   54.1038 C   0  0  0  0  0  0  0  0  0  0  0  0
   57.6656   28.4801   53.6904 C   0  0  0  0  0  0  0  0  0  0  0  0
   58.5686   27.2872   53.7358 C   0  0  0  0  0  0  0  0  0  0  0  0
   58.0373   29.7089   53.2715 N   0  0  0  0  0  0  0  0  0  0  0  0
   53.5381   30.2074   53.0776 C   0  0  0  0  0  0  0  0  0  0  0  0
   53.7396   30.0261   51.7570 N   0  0  0  0  0  0  0  0  0  0  0  0
   52.4872   30.0490   51.2457 C   0  0  0  0  0  0  0  0  0  0  0  0
   52.2568   29.9250   50.0153 O   0  0  0  0  0  0  0  0  0  0  0  0
   51.5034   30.2039   52.1580 N   0  0  0  0  0  0  0  0  0  0  0  0
   52.1855   30.2884   53.3115 C   0  0  0  0  0  0  0  0  0  0  0  0
   51.5826   30.4262   54.5553 O   0  0  0  0  0  0  0  0  0  0  0  0
   59.3532   30.0784   52.8236 C   0  0  0  0  0  0  0  0  0  0  0  0
   59.5938   30.2417   51.4553 C   0  0  0  0  0  0  0  0  0  0  0  0
   60.8761   30.6000   51.0104 C   0  0  0  0  0  0  0  0  0  0  0  0
   61.8740   30.7675   51.9231 N   0  0  0  0  0  0  0  0  0  0  0  0
   61.6676   30.6202   53.2593 C   0  0  0  0  0  0  0  0  0  0  0  0
   60.3999   30.2770   53.7412 C   0  0  0  0  0  0  0  0  0  0  0  0
   61.1579   30.7579   49.6055 N   0  0  0  0  0  0  0  0  0  0  0  0
   60.5472   29.8328   48.6456 C   0  0  0  0  0  0  0  0  0  0  0  0
   60.4766   30.4874   47.2616 C   0  0  0  0  0  0  0  0  0  0  0  0
   61.7449   30.9825   46.8727 O   0  0  0  0  0  0  0  0  0  0  0  0
   62.1385   32.0262   47.7446 C   0  0  0  0  0  0  0  0  0  0  0  0
   62.3494   31.4955   49.1673 C   0  0  0  0  0  0  0  0  0  0  0  0
   60.1858   30.1416   55.1604 C   0  0  0  0  0  0  0  0  0  0  0  0
   60.0135   30.0303   56.3000 N   0  0  0  0  0  0  0  0  0  0  0  0
  1  2  2  0
  2  3  1  0
  3  4  2  0
  4  9  1  0
  9 10  1  0
 10 11  1  0
 11 12  2  0
 11 13  1  0
 13 14  1  0
 14 15  1  0
  3  5  1  0
  5  6  2  0
  6  7  1  0
  6  8  1  0
  8 16  1  0
 16 17  2  0
 17 18  1  0
 18 22  1  0
 22 23  1  0
 23 24  1  0
 24 25  1  0
 25 26  1  0
 26 27  1  0
 18 19  2  0
 19 20  1  0
 20 21  2  0
 21 28  1  0
 28 29  3  0
  8  2  1  0
 21 16  1  0
 14  9  2  0
 27 22  1  0
M  CHG 1  10  -1
M  CHG 1  13  -1
M  CHG 1  15  -1
M  END
> <UniqueID>
8

> <SMILES>
C=c1c(=Cc2[n-]c(=O)[n-]c2[O-])cc(C)n1-c1cc(N2CCOCC2)ncc1C#N

> <Energy>
128.73965491333178

> <Genealogy>
C=c1c(=Cc2[n-]c(=O)[n-]c2[O-])cc(C)n1-c1cc(N2CCOCC2)ncc1C#N (protonated)
C=c1c(=Cc2[n-]c(=O)[n-]c2[O-])cc(C)n1-c1cc(N2CCOCC2)ncc1C#N (3D coordinates assigned)
C=c1c(=Cc2[n-]c(=O)[n-]c2[O-])cc(C)n1-c1cc(N2CCOCC2)ncc1C#N (nonaromatic ring conformer: 128.73965491333178 kcal/mol)

> <smiles>
C=c1c(=Cc2[nH]c(=O)[nH]c2O)cc(C)n1-c1cc(N2CCOCC2)ncc1C#N

> <score_type>
oracle

> <origin>
adg

> <m_score__min__energy>
-15.25

> <m_primary>
energy

> <minimizedAffinity>
-4.91895

> <minimizedRMSD>
2.25487

> <CNNscore>
0.0365541130

> <CNNaffinity>
4.7753505707

> <CNN_VS>
0.1745586991

> <CNNaffinity_variance>
0.2707340717

$$$$
12:0


 34 38  0  0  0  0  0  0  0  0999 V2000
   59.5921   29.5307   44.7270 C   0  0  0  0  0  0  0  0  0  0  0  0
   59.5522   28.8850   45.9051 C   0  0  0  0  0  0  0  0  0  0  0  0
   58.6368   27.8819   46.2670 C   0  0  0  0  0  0  0  0  0  0  0  0
   57.7729   27.1607   45.5253 C   0  0  0  0  0  0  0  0  0  0  0  0
   58.7797   27.6989   47.6279 C   0  0  0  0  0  0  0  0  0  0  0  0
   59.7986   28.5305   48.0365 C   0  0  0  0  0  0  0  0  0  0  0  0
   60.2908   29.2420   46.9935 N   0  0  0  0  0  0  0  0  0  0  0  0
   60.2382   28.6404   49.4391 C   0  0  0  0  0  0  0  0  0  0  0  0
   61.0342   27.7660   49.8809 O   0  0  0  0  0  0  0  0  0  0  0  0
   59.7407   29.6791   50.3151 N   0  0  0  0  0  0  0  0  0  0  0  0
   60.2830   29.7886   51.6823 C   0  0  0  0  0  0  0  0  0  0  0  0
   60.3308   31.2499   52.1451 C   0  0  0  0  0  0  0  0  0  0  0  0
   59.0373   31.9398   51.8290 C   0  0  0  0  0  0  0  0  0  0  0  0
   58.5096   32.6736   52.6505 O   0  0  0  0  0  0  0  0  0  0  0  0
   58.4543   31.7893   50.4568 C   0  0  0  0  0  0  0  0  0  0  0  0
   58.4354   30.3136   50.0532 C   0  0  0  0  0  0  0  0  0  0  0  0
   57.3510   25.7762   45.8009 C   0  0  0  0  0  0  0  0  0  0  0  0
   58.1897   24.7370   45.9729 N   0  0  0  0  0  0  0  0  0  0  0  0
   57.3680   23.7303   46.3404 C   0  0  0  0  0  0  0  0  0  0  0  0
   57.7851   22.5686   46.5805 O   0  0  0  0  0  0  0  0  0  0  0  0
   56.0655   24.0718   46.4421 N   0  0  0  0  0  0  0  0  0  0  0  0
   56.0759   25.3721   46.1112 C   0  0  0  0  0  0  0  0  0  0  0  0
   54.9428   26.1772   46.0992 O   0  0  0  0  0  0  0  0  0  0  0  0
   61.4958   30.0921   47.0317 C   0  0  0  0  0  0  0  0  0  0  0  0
   61.1449   31.4788   47.5479 C   0  0  0  0  0  0  0  0  0  0  0  0
   61.8407   31.9287   48.6857 C   0  0  0  0  0  0  0  0  0  0  0  0
   61.5296   33.1439   49.2909 C   0  0  0  0  0  0  0  0  0  0  0  0
   60.5151   33.9436   48.7771 C   0  0  0  0  0  0  0  0  0  0  0  0
   59.8108   33.5422   47.6352 C   0  0  0  0  0  0  0  0  0  0  0  0
   58.7963   34.3691   47.1236 C   0  0  0  0  0  0  0  0  0  0  0  0
   58.0968   33.9979   45.9786 C   0  0  0  0  0  0  0  0  0  0  0  0
   58.4064   32.8068   45.3277 C   0  0  0  0  0  0  0  0  0  0  0  0
   59.4114   31.9725   45.8215 C   0  0  0  0  0  0  0  0  0  0  0  0
   60.1244   32.3086   46.9945 C   0  0  0  0  0  0  0  0  0  0  0  0
  1  2  2  0
  2  3  1  0
  3  4  2  0
  4 17  1  0
 17 18  1  0
 18 19  1  0
 19 20  2  0
 19 21  1  0
 21 22  1  0
 22 23  1  0
  3  5  1  0
  5  6  2  0
  6  8  1  0
  8  9  2  0
  8 10  1  0
 10 11  1  0
 11 12  1  0
 12 13  1  0
 13 14  2  0
 13 15  1  0
 15 16  1  0
  6  7  1  0
  7 24  1  0
 24 25  1  0
 25 26  2  0
 26 27  1  0
 27 28  2  0
 28 29  1  0
 29 30  2  0
 30 31  1  0
 31 32  2  0
 32 33  1  0
 33 34  2  0
  7  2  1  0
 34 25  1  0
 22 17  2  0
 16 10  1  0
 34 29  1  0
M  CHG 1  18  -1
M  CHG 1  21  -1
M  CHG 1  23  -1
M  END
> <UniqueID>
13

> <SMILES>
C=c1c(=Cc2[n-]c(=O)[n-]c2[O-])cc(C(=O)N2CCC(=O)CC2)n1Cc1cccc2ccccc12

> <Energy>
141.4945173146248

> <Genealogy>
C=c1c(=Cc2[n-]c(=O)[n-]c2[O-])cc(C(=O)N2CCC(=O)CC2)n1Cc1cccc2ccccc12 (protonated)
C=c1c(=Cc2[n-]c(=O)[n-]c2[O-])cc(C(=O)N2CCC(=O)CC2)n1Cc1cccc2ccccc12 (3D coordinates assigned)
C=c1c(=Cc2[n-]c(=O)[n-]c2[O-])cc(C(=O)N2CCC(=O)CC2)n1Cc1cccc2ccccc12 (nonaromatic ring conformer: 141.4945173146248 kcal/mol)

> <smiles>
C=c1c(=Cc2[nH]c(=O)[nH]c2O)cc(C(=O)N2CCC(=O)CC2)n1Cc1cccc2ccccc12

> <score_type>
oracle

> <origin>
adg

> <m_score__min__energy>
-16.620000000000001

> <m_primary>
energy

> <minimizedAffinity>
-7.74403

> <minimizedRMSD>
0.81073

> <CNNscore>
0.1685544103

> <CNNaffinity>
6.6565856934

> <CNN_VS>
1.1219968796

> <CNNaffinity_variance>
0.0493578203

$$$$
14:0


 33 36  0  0  0  0  0  0  0  0999 V2000
   54.7118   28.9639   55.1300 C   0  0  0  0  0  0  0  0  0  0  0  0
   55.2002   29.6758   54.1005 C   0  0  0  0  0  0  0  0  0  0  0  0
   54.4414   30.2206   53.0571 C   0  0  0  0  0  0  0  0  0  0  0  0
   53.1156   30.0869   52.8508 C   0  0  0  0  0  0  0  0  0  0  0  0
   55.3310   30.8889   52.2323 C   0  0  0  0  0  0  0  0  0  0  0  0
   56.5808   30.7295   52.7887 C   0  0  0  0  0  0  0  0  0  0  0  0
   56.5137   29.9998   53.9294 N   0  0  0  0  0  0  0  0  0  0  0  0
   52.4380   30.4315   51.5881 C   0  0  0  0  0  0  0  0  0  0  0  0
   52.4012   29.6134   50.5212 N   0  0  0  0  0  0  0  0  0  0  0  0
   51.6203   30.2760   49.6428 C   0  0  0  0  0  0  0  0  0  0  0  0
   51.3576   29.8275   48.4961 O   0  0  0  0  0  0  0  0  0  0  0  0
   51.1353   31.4538   50.0906 N   0  0  0  0  0  0  0  0  0  0  0  0
   51.6504   31.5330   51.3273 C   0  0  0  0  0  0  0  0  0  0  0  0
   51.3660   32.5664   52.2131 O   0  0  0  0  0  0  0  0  0  0  0  0
   57.8096   31.2750   52.1861 C   0  0  0  0  0  0  0  0  0  0  0  0
   58.4795   32.1203   52.8423 O   0  0  0  0  0  0  0  0  0  0  0  0
   58.1442   30.9887   50.8082 N   0  0  0  0  0  0  0  0  0  0  0  0
   58.9874   29.7662   50.6867 C   0  0  0  0  0  0  0  0  0  0  0  0
   60.4606   30.0934   50.4035 C   0  0  0  0  0  0  0  0  0  0  0  0
   60.6050   30.8581   49.1437 N   0  0  0  0  0  0  0  0  0  0  0  0
   61.9246   31.5062   49.0900 C   0  0  0  0  0  0  0  0  0  0  0  0
   59.5114   31.8344   48.9086 C   0  0  0  0  0  0  0  0  0  0  0  0
   58.7578   32.1926   50.1979 C   0  0  0  0  0  0  0  0  0  0  0  0
   58.1456   30.0653   51.1497 H   0  0  0  0  0  0  0  0  0  0  0  0
   57.6514   29.7126   54.8247 C   0  0  0  0  0  0  0  0  0  0  0  0
   58.4015   28.4774   54.3849 C   0  0  0  0  0  0  0  0  0  0  0  0
   57.8003   27.2131   54.5208 C   0  0  0  0  0  0  0  0  0  0  0  0
   58.4834   26.0575   54.1302 C   0  0  0  0  0  0  0  0  0  0  0  0
   59.7790   26.1500   53.6174 C   0  0  0  0  0  0  0  0  0  0  0  0
   60.4412   25.0266   53.2427 F   0  0  0  0  0  0  0  0  0  0  0  0
   60.3986   27.3965   53.5069 C   0  0  0  0  0  0  0  0  0  0  0  0
   59.7211   28.5578   53.8950 C   0  0  0  0  0  0  0  0  0  0  0  0
   60.3584   29.7499   53.8029 F   0  0  0  0  0  0  0  0  0  0  0  0
  1  2  2  0
  2  3  1  0
  3  4  2  0
  4  8  1  0
  8  9  1  0
  9 10  1  0
 10 11  2  0
 10 12  1  0
 12 13  1  0
 13 14  1  0
  3  5  1  0
  5  6  2  0
  6 15  1  0
 15 16  2  0
 15 17  1  0
 17 18  1  0
 18 19  1  0
 19 20  1  0
 20 21  1  0
 20 22  1  0
 22 23  1  0
  6  7  1  0
  7 25  1  0
 25 26  1  0
 26 27  2  0
 27 28  1  0
 28 29  2  0
 29 30  1  0
 29 31  1  0
 31 32  2  0
 32 33  1  0
  7  2  1  0
 32 26  1  0
 13  8  2  0
 23 17  1  0
 17 24  1  0
M  CHG 1   9  -1
M  CHG 1  12  -1
M  CHG 1  14  -1
M  CHG 1  17   1
M  END
> <UniqueID>
15

> <SMILES>
C=c1c(=Cc2[n-]c(=O)[n-]c2[O-])cc(C(=O)[NH+]2CCN(C)CC2)n1Cc1ccc(F)cc1F

> <Energy>
142.43877730759016

> <Genealogy>
C=c1c(=Cc2[n-]c(=O)[n-]c2[O-])cc(C(=O)[NH+]2CCN(C)CC2)n1Cc1ccc(F)cc1F (protonated)
C=c1c(=Cc2[n-]c(=O)[n-]c2[O-])cc(C(=O)[NH+]2CCN(C)CC2)n1Cc1ccc(F)cc1F (3D coordinates assigned)
C=c1c(=Cc2[n-]c(=O)[n-]c2[O-])cc(C(=O)[NH+]2CCN(C)CC2)n1Cc1ccc(F)cc1F (nonaromatic ring conformer: 142.43877730759016 kcal/mol)

> <smiles>
C=c1c(=Cc2[nH]c(=O)[nH]c2O)cc(C(=O)N2CCN(C)CC2)n1Cc1ccc(F)cc1F

> <score_type>
oracle

> <origin>
adg

> <m_score__min__energy>
-15.369999999999999

> <m_primary>
energy

> <minimizedAffinity>
-5.12012

> <minimizedRMSD>
1.03549

> <CNNscore>
0.0550463237

> <CNNaffinity>
4.7203693390

> <CNN_VS>
0.2598389685

> <CNNaffinity_variance>
0.7237760425

$$$$
17:0


 34 37  0  0  0  0  0  0  0  0999 V2000
   60.5096   31.3889   48.0318 C   0  0  0  0  0  0  0  0  0  0  0  0
   60.0961   31.9009   49.2793 C   0  0  0  0  0  0  0  0  0  0  0  0
   58.6470   31.8774   49.6819 C   0  0  0  0  0  0  0  0  0  0  0  0
   61.0599   32.3851   50.1787 C   0  0  0  0  0  0  0  0  0  0  0  0
   62.4217   32.4005   49.8349 C   0  0  0  0  0  0  0  0  0  0  0  0
   62.8192   31.8870   48.5906 C   0  0  0  0  0  0  0  0  0  0  0  0
   61.8696   31.3888   47.6954 C   0  0  0  0  0  0  0  0  0  0  0  0
   62.2741   30.8980   46.4969 F   0  0  0  0  0  0  0  0  0  0  0  0
   59.4734   28.6242   47.8737 C   0  0  0  0  0  0  0  0  0  0  0  0
   59.1118   29.5837   47.0089 C   0  0  0  0  0  0  0  0  0  0  0  0
   58.1444   29.4985   45.9939 C   0  0  0  0  0  0  0  0  0  0  0  0
   57.4773   28.4408   45.4940 C   0  0  0  0  0  0  0  0  0  0  0  0
   57.9644   30.7908   45.5207 C   0  0  0  0  0  0  0  0  0  0  0  0
   58.8606   31.5919   46.1959 C   0  0  0  0  0  0  0  0  0  0  0  0
   58.9926   33.0731   46.0178 C   0  0  0  0  0  0  0  0  0  0  0  0
   59.5529   30.8637   47.0978 N   0  0  0  0  0  0  0  0  0  0  0  0
   57.7432   27.0303   45.8156 C   0  0  0  0  0  0  0  0  0  0  0  0
   58.9407   26.4272   45.6898 N   0  0  0  0  0  0  0  0  0  0  0  0
   58.6648   25.1320   45.9549 C   0  0  0  0  0  0  0  0  0  0  0  0
   59.5496   24.2379   45.9505 O   0  0  0  0  0  0  0  0  0  0  0  0
   57.3657   24.8679   46.2117 N   0  0  0  0  0  0  0  0  0  0  0  0
   56.7950   26.0795   46.1042 C   0  0  0  0  0  0  0  0  0  0  0  0
   55.4338   26.3088   46.2615 O   0  0  0  0  0  0  0  0  0  0  0  0
   63.4366   32.9093   50.7851 C   0  0  0  0  0  0  0  0  0  0  0  0
   63.2826   34.0546   51.2907 O   0  0  0  0  0  0  0  0  0  0  0  0
   64.6002   32.1367   51.1351 N   0  0  0  0  0  0  0  0  0  0  0  0
   64.5179   30.6766   51.2964 C   0  0  0  0  0  0  0  0  0  0  0  0
   65.1998   30.2354   52.6005 C   0  0  0  0  0  0  0  0  0  0  0  0
   66.5805   30.9278   52.8465 C   0  0  0  0  0  0  0  0  0  0  0  0
   67.0038   31.8466   51.6804 C   0  0  0  0  0  0  0  0  0  0  0  0
   65.8777   32.8319   51.3458 C   0  0  0  0  0  0  0  0  0  0  0  0
   67.6745   29.9952   53.2282 N   0  0  0  0  0  0  0  0  0  0  0  0
   69.0004   30.6253   53.3768 C   0  0  0  0  0  0  0  0  0  0  0  0
   67.7419   28.8217   52.3396 C   0  0  0  0  0  0  0  0  0  0  0  0
  9 10  2  0
 10 11  1  0
 11 12  2  0
 12 17  1  0
 17 18  1  0
 18 19  1  0
 19 20  2  0
 19 21  1  0
 21 22  1  0
 22 23  1  0
 11 13  1  0
 13 14  2  0
 14 15  1  0
 14 16  1  0
 16  1  1  0
  1  2  2  0
  2  3  1  0
  2  4  1  0
  4  5  2  0
  5 24  1  0
 24 25  2  0
 24 26  1  0
 26 27  1  0
 27 28  1  0
 28 29  1  0
 29 32  1  0
 32 33  1  0
 32 34  1  0
 29 30  1  0
 30 31  1  0
  5  6  1  0
  6  7  2  0
  7  8  1  0
 16 10  1  0
  7  1  1  0
 22 17  2  0
 31 26  1  0
M  CHG 1  18  -1
M  CHG 1  21  -1
M  CHG 1  23  -1
M  END
> <UniqueID>
17

> <SMILES>
C=c1c(=Cc2[n-]c(=O)[n-]c2[O-])cc(C)n1-c1c(C)cc(C(=O)N2CCC(N(C)C)CC2)cc1F

> <Energy>
151.02073457183235

> <Genealogy>
C=c1c(=Cc2[n-]c(=O)[n-]c2[O-])cc(C)n1-c1c(C)cc(C(=O)N2CCC(N(C)C)CC2)cc1F (protonated)
C=c1c(=Cc2[n-]c(=O)[n-]c2[O-])cc(C)n1-c1c(C)cc(C(=O)N2CCC(N(C)C)CC2)cc1F (3D coordinates assigned)
C=c1c(=Cc2[n-]c(=O)[n-]c2[O-])cc(C)n1-c1c(C)cc(C(=O)N2CCC(N(C)C)CC2)cc1F (nonaromatic ring conformer: 151.02073457183235 kcal/mol)

> <smiles>
C=c1c(=Cc2[nH]c(=O)[nH]c2O)cc(C)n1-c1c(C)cc(C(=O)N2CCC(N(C)C)CC2)cc1F

> <score_type>
oracle

> <origin>
adg

> <m_score__min__energy>
-16.57

> <m_primary>
energy

> <minimizedAffinity>
-7.89567

> <minimizedRMSD>
1.48936

> <CNNscore>
0.3445482254

> <CNNaffinity>
7.1390361786

> <CNN_VS>
2.4597423077

> <CNNaffinity_variance>
0.2064818591

$$$$
33:0


 31 33  0  0  0  0  0  0  0  0999 V2000
   60.3350   28.1453   45.8765 N   0  0  0  0  0  0  0  0  0  0  0  0
   59.7375   29.2977   45.8012 C   0  0  0  0  0  0  0  0  0  0  0  0
   60.1705   30.3663   46.5288 N   0  0  0  0  0  0  0  0  0  0  0  0
   59.5385   31.5703   46.4597 C   0  0  0  0  0  0  0  0  0  0  0  0
   58.4251   31.7173   45.6284 C   0  0  0  0  0  0  0  0  0  0  0  0
   57.5081   33.3893   45.4840 Br  0  0  0  0  0  0  0  0  0  0  0  0
   57.9854   30.6101   44.9027 C   0  0  0  0  0  0  0  0  0  0  0  0
   58.6428   29.4262   45.0059 N   0  0  0  0  0  0  0  0  0  0  0  0
   59.9407   27.0562   46.7245 C   0  0  0  0  0  0  0  0  0  0  0  0
   60.5085   26.9277   47.8421 O   0  0  0  0  0  0  0  0  0  0  0  0
   56.7542   24.3429   45.6967 C   0  0  0  0  0  0  0  0  0  0  0  0
   58.0955   23.9450   45.5968 C   0  0  0  0  0  0  0  0  0  0  0  0
   59.1272   24.8257   45.9303 C   0  0  0  0  0  0  0  0  0  0  0  0
   58.8397   26.1324   46.3547 C   0  0  0  0  0  0  0  0  0  0  0  0
   57.4975   26.5342   46.4558 C   0  0  0  0  0  0  0  0  0  0  0  0
   56.4606   25.6591   46.1149 C   0  0  0  0  0  0  0  0  0  0  0  0
   55.1515   26.1251   46.1590 O   0  0  0  0  0  0  0  0  0  0  0  0
   55.7891   22.6317   44.1867 C   0  0  0  0  0  0  0  0  0  0  0  0
   55.7041   23.3810   45.2933 C   0  0  0  0  0  0  0  0  0  0  0  0
   57.2517   21.0017   42.9297 N   0  0  0  0  0  0  0  0  0  0  0  0
   56.5888   21.3968   44.1295 C   0  0  0  0  0  0  0  0  0  0  0  0
   56.6836   20.6759   45.1574 O   0  0  0  0  0  0  0  0  0  0  0  0
   57.7821   20.1724   42.9106 H   0  0  0  0  0  0  0  0  0  0  0  0
   59.9818   32.6603   47.2178 O   0  0  0  0  0  0  0  0  0  0  0  0
   59.5512   32.9340   48.5522 C   0  0  0  0  0  0  0  0  0  0  0  0
   60.2555   34.1994   49.0489 C   0  0  0  0  0  0  0  0  0  0  0  0
   61.7732   33.9722   49.1934 C   0  0  0  0  0  0  0  0  0  0  0  0
   62.1369   32.6700   49.8135 N   0  0  0  0  0  0  0  0  0  0  0  0
   62.8658   31.7930   48.8792 C   0  0  0  0  0  0  0  0  0  0  0  0
   61.0042   31.9709   50.4542 C   0  0  0  0  0  0  0  0  0  0  0  0
   59.8347   31.7324   49.4816 C   0  0  0  0  0  0  0  0  0  0  0  0
 20 21  1  0
 21 22  2  0
 21 18  1  0
 18 19  2  0
 19 11  1  0
 11 12  2  0
 12 13  1  0
 13 14  2  0
 14  9  1  0
  9 10  2  0
  9  1  1  0
  1  2  2  0
  2  3  1  0
  3  4  2  0
  4 24  1  0
 24 25  1  0
 25 26  1  0
 26 27  1  0
 27 28  1  0
 28 29  1  0
 28 30  1  0
 30 31  1  0
  4  5  1  0
  5  6  1  0
  5  7  2  0
  7  8  1  0
 14 15  1  0
 15 16  2  0
 16 17  1  0
 16 11  1  0
  8  2  1  0
 31 25  1  0
 20 23  1  0
M  CHG 1   8  -1
M  CHG 1  17  -1
M  CHG 1  20  -1
M  END
> <UniqueID>
32

> <SMILES>
CN1CCC(Oc2nc(=NC(=O)c3ccc(/C=C/C([NH-])=O)c([O-])c3)[n-]cc2Br)CC1

> <Energy>
65.1608609020138

> <Genealogy>
CN1CCC(Oc2nc(=NC(=O)c3ccc(C=CC([NH-])=O)c([O-])c3)[n-]cc2Br)CC1 (protonated)
CN1CCC(Oc2nc(=NC(=O)c3ccc(/C=C/C([NH-])=O)c([O-])c3)[n-]cc2Br)CC1 (cis-trans isomerization)
CN1CCC(Oc2nc(=NC(=O)c3ccc(/C=C/C([NH-])=O)c([O-])c3)[n-]cc2Br)CC1 (3D coordinates assigned)
CN1CCC(Oc2nc(=NC(=O)c3ccc(/C=C/C([NH-])=O)c([O-])c3)[n-]cc2Br)CC1 (nonaromatic ring conformer: 65.1608609020138 kcal/mol)

> <smiles>
CN1CCC(Oc2nc(=NC(=O)c3ccc(C=CC(N)=O)c(O)c3)[nH]cc2Br)CC1

> <score_type>
oracle

> <origin>
adg

> <m_score__min__energy>
-16.140000000000001

> <m_primary>
energy

> <minimizedAffinity>
-8.57803

> <minimizedRMSD>
0.93010

> <CNNscore>
0.2400153279

> <CNNaffinity>
6.6281337738

> <CNN_VS>
1.5908536911

> <CNNaffinity_variance>
0.0674243644

$$$$
42:0


 32 35  0  0  0  0  0  0  0  0999 V2000
   58.4423   30.4522   53.2768 C   0  0  0  0  0  0  0  0  0  0  0  0
   59.0717   29.6491   52.3174 C   0  0  0  0  0  0  0  0  0  0  0  0
   60.2179   30.1048   51.6600 C   0  0  0  0  0  0  0  0  0  0  0  0
   60.7538   31.3689   51.9587 C   0  0  0  0  0  0  0  0  0  0  0  0
   60.1031   32.1810   52.9023 C   0  0  0  0  0  0  0  0  0  0  0  0
   58.9554   31.7256   53.5589 C   0  0  0  0  0  0  0  0  0  0  0  0
   58.3336   32.5308   54.4565 F   0  0  0  0  0  0  0  0  0  0  0  0
   61.9642   31.8488   51.2524 C   0  0  0  0  0  0  0  0  0  0  0  0
   63.0119   32.0719   51.9204 O   0  0  0  0  0  0  0  0  0  0  0  0
   61.9757   32.0606   49.8279 N   0  0  0  0  0  0  0  0  0  0  0  0
   60.7876   32.5797   49.1317 C   0  0  0  0  0  0  0  0  0  0  0  0
   61.2065   33.6494   48.1212 C   0  0  0  0  0  0  0  0  0  0  0  0
   62.2420   33.1250   47.0943 C   0  0  0  0  0  0  0  0  0  0  0  0
   63.1744   34.1326   46.8002 O   0  0  0  0  0  0  0  0  0  0  0  0
   62.9924   31.8657   47.5763 C   0  0  0  0  0  0  0  0  0  0  0  0
   63.2343   31.8769   49.0902 C   0  0  0  0  0  0  0  0  0  0  0  0
   63.6626   34.3663   47.6051 H   0  0  0  0  0  0  0  0  0  0  0  0
   55.6182   30.8561   52.4611 C   0  0  0  0  0  0  0  0  0  0  0  0
   55.9676   30.2016   53.5802 C   0  0  0  0  0  0  0  0  0  0  0  0
   55.1152   29.5426   54.4825 C   0  0  0  0  0  0  0  0  0  0  0  0
   53.7726   29.5315   54.5878 C   0  0  0  0  0  0  0  0  0  0  0  0
   55.9393   28.8540   55.3606 C   0  0  0  0  0  0  0  0  0  0  0  0
   57.2384   29.1556   55.0092 C   0  0  0  0  0  0  0  0  0  0  0  0
   58.4588   28.6525   55.7195 C   0  0  0  0  0  0  0  0  0  0  0  0
   57.2572   29.9800   53.9395 N   0  0  0  0  0  0  0  0  0  0  0  0
   52.8262   29.8889   53.5181 C   0  0  0  0  0  0  0  0  0  0  0  0
   52.9337   29.4940   52.2359 N   0  0  0  0  0  0  0  0  0  0  0  0
   51.9448   30.1748   51.6161 C   0  0  0  0  0  0  0  0  0  0  0  0
   51.7090   30.0588   50.3863 O   0  0  0  0  0  0  0  0  0  0  0  0
   51.2371   31.0003   52.4180 N   0  0  0  0  0  0  0  0  0  0  0  0
   51.8185   30.8179   53.6134 C   0  0  0  0  0  0  0  0  0  0  0  0
   51.4413   31.4900   54.7693 O   0  0  0  0  0  0  0  0  0  0  0  0
 18 19  2  0
 19 20  1  0
 20 21  2  0
 21 26  1  0
 26 27  1  0
 27 28  1  0
 28 29  2  0
 28 30  1  0
 30 31  1  0
 31 32  1  0
 20 22  1  0
 22 23  2  0
 23 24  1  0
 23 25  1  0
 25  1  1  0
  1  2  2  0
  2  3  1  0
  3  4  2  0
  4  8  1  0
  8  9  2  0
  8 10  1  0
 10 11  1  0
 11 12  1  0
 12 13  1  0
 13 14  1  0
 13 15  1  0
 15 16  1  0
  4  5  1  0
  5  6  2  0
  6  7  1  0
 25 19  1  0
  6  1  1  0
 31 26  2  0
 16 10  1  0
 14 17  1  0
M  CHG 1  27  -1
M  CHG 1  30  -1
M  CHG 1  32  -1
M  END
> <UniqueID>
40

> <SMILES>
C=c1c(=Cc2[n-]c(=O)[n-]c2[O-])cc(C)n1-c1ccc(C(=O)N2CCC(O)CC2)cc1F

> <Energy>
135.65946700300148

> <Genealogy>
C=c1c(=Cc2[n-]c(=O)[n-]c2[O-])cc(C)n1-c1ccc(C(=O)N2CCC(O)CC2)cc1F (protonated)
C=c1c(=Cc2[n-]c(=O)[n-]c2[O-])cc(C)n1-c1ccc(C(=O)N2CCC(O)CC2)cc1F (3D coordinates assigned)
C=c1c(=Cc2[n-]c(=O)[n-]c2[O-])cc(C)n1-c1ccc(C(=O)N2CCC(O)CC2)cc1F (nonaromatic ring conformer: 135.65946700300148 kcal/mol)

> <smiles>
C=c1c(=Cc2[nH]c(=O)[nH]c2O)cc(C)n1-c1ccc(C(=O)N2CCC(O)CC2)cc1F

> <score_type>
oracle

> <origin>
adg

> <m_score__min__energy>
-15.609999999999999

> <m_primary>
energy

> <minimizedAffinity>
-6.55129

> <minimizedRMSD>
2.11154

> <CNNscore>
0.1344326586

> <CNNaffinity>
5.8536071777

> <CNN_VS>
0.7869159579

> <CNNaffinity_variance>
0.0259239282

$$$$
45:0


 25 27  0  0  0  0  0  0  0  0999 V2000
   56.4013   29.2024   44.7715 C   0  0  0  0  0  0  0  0  0  0  0  0
   57.6512   28.8438   45.1005 C   0  0  0  0  0  0  0  0  0  0  0  0
   58.1938   27.5566   45.0396 C   0  0  0  0  0  0  0  0  0  0  0  0
   57.5704   26.4223   44.6649 C   0  0  0  0  0  0  0  0  0  0  0  0
   59.5049   27.6614   45.4903 C   0  0  0  0  0  0  0  0  0  0  0  0
   59.7117   28.9944   45.7899 C   0  0  0  0  0  0  0  0  0  0  0  0
   60.9821   29.5604   46.3478 C   0  0  0  0  0  0  0  0  0  0  0  0
   58.5901   29.7074   45.5573 N   0  0  0  0  0  0  0  0  0  0  0  0
   57.2620   25.3138   45.5959 C   0  0  0  0  0  0  0  0  0  0  0  0
   56.0307   25.2814   46.2670 C   0  0  0  0  0  0  0  0  0  0  0  0
   55.1031   26.3020   46.0942 O   0  0  0  0  0  0  0  0  0  0  0  0
   55.7393   24.2520   47.1025 N   0  0  0  0  0  0  0  0  0  0  0  0
   56.6166   23.2342   47.2938 C   0  0  0  0  0  0  0  0  0  0  0  0
   56.3264   22.2927   48.0763 O   0  0  0  0  0  0  0  0  0  0  0  0
   57.8041   23.2268   46.6353 N   0  0  0  0  0  0  0  0  0  0  0  0
   58.1425   24.2321   45.7881 C   0  0  0  0  0  0  0  0  0  0  0  0
   59.2377   24.1730   45.1685 O   0  0  0  0  0  0  0  0  0  0  0  0
   58.4352   31.1197   45.7812 C   0  0  0  0  0  0  0  0  0  0  0  0
   58.5777   31.6399   47.0764 C   0  0  0  0  0  0  0  0  0  0  0  0
   58.8530   30.8154   48.1175 F   0  0  0  0  0  0  0  0  0  0  0  0
   58.4314   33.0123   47.3014 C   0  0  0  0  0  0  0  0  0  0  0  0
   58.1418   33.8694   46.2363 C   0  0  0  0  0  0  0  0  0  0  0  0
   58.0003   33.3572   44.9433 C   0  0  0  0  0  0  0  0  0  0  0  0
   58.1470   31.9841   44.7092 C   0  0  0  0  0  0  0  0  0  0  0  0
   57.9836   31.3724   43.0706 Cl  0  0  0  0  0  0  0  0  0  0  0  0
  1  2  2  0
  2  3  1  0
  3  4  2  0
  4  9  1  0
  9 10  2  0
 10 11  1  0
 10 12  1  0
 12 13  1  0
 13 14  2  0
 13 15  1  0
 15 16  1  0
 16 17  2  0
  3  5  1  0
  5  6  2  0
  6  7  1  0
  6  8  1  0
  8 18  1  0
 18 19  2  0
 19 20  1  0
 19 21  1  0
 21 22  2  0
 22 23  1  0
 23 24  2  0
 24 25  1  0
  8  2  1  0
 24 18  1  0
 16  9  1  0
M  CHG 1  11  -1
M  CHG 1  12  -1
M  CHG 1  15  -1
M  END
> <UniqueID>
43

> <SMILES>
C=c1/c(=C/c2c([O-])[n-]c(=O)[n-]c2=O)cc(C)n1-c1c(F)cccc1Cl

> <Energy>
83.39223052408448

> <Genealogy>
C=c1c(=Cc2c([O-])[n-]c(=O)[n-]c2=O)cc(C)n1-c1c(F)cccc1Cl (protonated)
C=c1/c(=C/c2c([O-])[n-]c(=O)[n-]c2=O)cc(C)n1-c1c(F)cccc1Cl (cis-trans isomerization)
C=c1/c(=C/c2c([O-])[n-]c(=O)[n-]c2=O)cc(C)n1-c1c(F)cccc1Cl (3D coordinates assigned)
C=c1/c(=C/c2c([O-])[n-]c(=O)[n-]c2=O)cc(C)n1-c1c(F)cccc1Cl (optimized conformer: 83.39223052408448 kcal/mol)

> <smiles>
C=c1c(=Cc2c(O)[nH]c(=O)[nH]c2=O)cc(C)n1-c1c(F)cccc1Cl

> <score_type>
oracle

> <origin>
adg

> <m_score__min__energy>
-15.49

> <m_primary>
energy

> <minimizedAffinity>
-7.18995

> <minimizedRMSD>
0.64689

> <CNNscore>
0.4729067683

> <CNNaffinity>
6.6913495064

> <CNN_VS>
3.1643843651

> <CNNaffinity_variance>
0.0075205280

$$$$
51:0


 37 40  0  0  0  0  0  0  0  0999 V2000
   60.1277   32.4636   48.5732 C   0  0  0  0  0  0  0  0  0  0  0  0
   59.2807   32.5234   49.6894 C   0  0  0  0  0  0  0  0  0  0  0  0
   59.7209   33.1258   50.8747 C   0  0  0  0  0  0  0  0  0  0  0  0
   61.0075   33.6803   50.9404 C   0  0  0  0  0  0  0  0  0  0  0  0
   61.8435   33.6443   49.8205 C   0  0  0  0  0  0  0  0  0  0  0  0
   61.4034   33.0489   48.6341 C   0  0  0  0  0  0  0  0  0  0  0  0
   62.2197   33.0294   47.5498 F   0  0  0  0  0  0  0  0  0  0  0  0
   60.5616   29.6339   47.7897 C   0  0  0  0  0  0  0  0  0  0  0  0
   59.8671   30.5035   47.0363 C   0  0  0  0  0  0  0  0  0  0  0  0
   59.2776   30.2653   45.7830 C   0  0  0  0  0  0  0  0  0  0  0  0
   59.1359   29.1293   45.0709 C   0  0  0  0  0  0  0  0  0  0  0  0
   58.7743   31.4834   45.3533 C   0  0  0  0  0  0  0  0  0  0  0  0
   59.0348   32.4004   46.3487 C   0  0  0  0  0  0  0  0  0  0  0  0
   58.5845   33.8307   46.3289 C   0  0  0  0  0  0  0  0  0  0  0  0
   59.6866   31.8069   47.3726 N   0  0  0  0  0  0  0  0  0  0  0  0
   58.5848   27.8569   45.5777 C   0  0  0  0  0  0  0  0  0  0  0  0
   57.1981   27.6622   45.6417 C   0  0  0  0  0  0  0  0  0  0  0  0
   56.3244   28.6301   45.1574 O   0  0  0  0  0  0  0  0  0  0  0  0
   56.6974   26.5194   46.1730 N   0  0  0  0  0  0  0  0  0  0  0  0
   57.5195   25.5574   46.6697 C   0  0  0  0  0  0  0  0  0  0  0  0
   57.0352   24.5140   47.1748 O   0  0  0  0  0  0  0  0  0  0  0  0
   58.8671   25.7286   46.6353 N   0  0  0  0  0  0  0  0  0  0  0  0
   59.4152   26.8519   46.1050 C   0  0  0  0  0  0  0  0  0  0  0  0
   60.6682   26.9824   46.0995 O   0  0  0  0  0  0  0  0  0  0  0  0
   58.8617   33.1111   52.0665 C   0  0  0  0  0  0  0  0  0  0  0  0
   58.5579   34.2049   52.6172 O   0  0  0  0  0  0  0  0  0  0  0  0
   58.3677   31.8600   52.5990 N   0  0  0  0  0  0  0  0  0  0  0  0
   59.4390   30.8335   52.6120 C   0  0  0  0  0  0  0  0  0  0  0  0
   58.9133   29.3950   52.4105 C   0  0  0  0  0  0  0  0  0  0  0  0
   57.5494   29.1739   52.9546 N   0  0  0  0  0  0  0  0  0  0  0  0
   56.5525   30.2017   52.5431 C   0  0  0  0  0  0  0  0  0  0  0  0
   57.1844   31.4168   51.8430 C   0  0  0  0  0  0  0  0  0  0  0  0
   58.8566   31.7715   53.4489 H   0  0  0  0  0  0  0  0  0  0  0  0
   57.4151   28.6080   54.3391 C   0  0  0  0  0  0  0  0  0  0  0  0
   58.7176   27.9228   54.8058 C   0  0  0  0  0  0  0  0  0  0  0  0
   57.0498   29.7387   55.3387 C   0  0  0  0  0  0  0  0  0  0  0  0
   56.2590   27.5766   54.4082 C   0  0  0  0  0  0  0  0  0  0  0  0
  8  9  2  0
  9 10  1  0
 10 11  2  0
 11 16  1  0
 16 17  2  0
 17 18  1  0
 17 19  1  0
 19 20  1  0
 20 21  2  0
 20 22  1  0
 22 23  1  0
 23 24  2  0
 10 12  1  0
 12 13  2  0
 13 14  1  0
 13 15  1  0
 15  1  1  0
  1  2  2  0
  2  3  1  0
  3 25  1  0
 25 26  2  0
 25 27  1  0
 27 28  1  0
 28 29  1  0
 29 30  1  0
 30 34  1  0
 34 35  1  0
 34 36  1  0
 34 37  1  0
 30 31  1  0
 31 32  1  0
  3  4  2  0
  4  5  1  0
  5  6  2  0
  6  7  1  0
 15  9  1  0
  6  1  1  0
 23 16  1  0
 32 27  1  0
 27 33  1  0
M  CHG 1  18  -1
M  CHG 1  19  -1
M  CHG 1  22  -1
M  CHG 1  27   1
M  END
> <UniqueID>
46

> <SMILES>
C=c1c(=Cc2c([O-])[n-]c(=O)[n-]c2=O)cc(C)n1-c1cc(C(=O)[NH+]2CCN(C(C)(C)C)CC2)ccc1F

> <Energy>
146.1430140052196

> <Genealogy>
C=c1c(=Cc2c([O-])[n-]c(=O)[n-]c2=O)cc(C)n1-c1cc(C(=O)[NH+]2CCN(C(C)(C)C)CC2)ccc1F (protonated)
C=c1c(=Cc2c([O-])[n-]c(=O)[n-]c2=O)cc(C)n1-c1cc(C(=O)[NH+]2CCN(C(C)(C)C)CC2)ccc1F (3D coordinates assigned)
C=c1c(=Cc2c([O-])[n-]c(=O)[n-]c2=O)cc(C)n1-c1cc(C(=O)[NH+]2CCN(C(C)(C)C)CC2)ccc1F (nonaromatic ring conformer: 146.1430140052196 kcal/mol)

> <smiles>
C=c1c(=Cc2c(O)[nH]c(=O)[nH]c2=O)cc(C)n1-c1cc(C(=O)N2CCN(C(C)(C)C)CC2)ccc1F

> <score_type>
oracle

> <origin>
adg

> <m_score__min__energy>
-16.420000000000002

> <m_primary>
energy

> <minimizedAffinity>
-7.87658

> <minimizedRMSD>
1.18251

> <CNNscore>
0.3030253351

> <CNNaffinity>
7.2205638885

> <CNN_VS>
2.1880137920

> <CNNaffinity_variance>
0.1391298771

$$$$
53:0


 30 32  0  0  0  0  0  0  0  0999 V2000
   57.8047   31.8608   44.8204 C   0  0  0  0  0  0  0  0  0  0  0  0
   58.2300   33.0382   44.1790 C   0  0  0  0  0  0  0  0  0  0  0  0
   58.1793   33.1456   42.7886 C   0  0  0  0  0  0  0  0  0  0  0  0
   57.6999   32.0834   42.0234 C   0  0  0  0  0  0  0  0  0  0  0  0
   57.2503   30.9175   42.6475 C   0  0  0  0  0  0  0  0  0  0  0  0
   57.2731   30.8028   44.0480 C   0  0  0  0  0  0  0  0  0  0  0  0
   56.7872   29.5508   44.6695 C   0  0  0  0  0  0  0  0  0  0  0  0
   55.6183   29.5183   45.1464 O   0  0  0  0  0  0  0  0  0  0  0  0
   57.6436   28.3590   44.7977 C   0  0  0  0  0  0  0  0  0  0  0  0
   58.5309   28.1268   43.9308 O   0  0  0  0  0  0  0  0  0  0  0  0
   57.4818   27.4989   45.9393 N   0  0  0  0  0  0  0  0  0  0  0  0
   57.4743   26.1973   45.9438 C   0  0  0  0  0  0  0  0  0  0  0  0
   58.6355   25.4814   45.8896 N   0  0  0  0  0  0  0  0  0  0  0  0
   58.6461   24.1212   45.8989 C   0  0  0  0  0  0  0  0  0  0  0  0
   57.4453   23.4145   45.9663 C   0  0  0  0  0  0  0  0  0  0  0  0
   56.2407   24.1175   46.0276 C   0  0  0  0  0  0  0  0  0  0  0  0
   56.2481   25.5146   46.0097 C   0  0  0  0  0  0  0  0  0  0  0  0
   55.0461   26.2135   46.0563 O   0  0  0  0  0  0  0  0  0  0  0  0
   57.8824   31.7458   46.2495 N   0  0  0  0  0  0  0  0  0  0  0  0
   58.6430   32.5962   47.1161 C   0  0  0  0  0  0  0  0  0  0  0  0
   58.0819   33.6002   47.6274 O   0  0  0  0  0  0  0  0  0  0  0  0
   60.0421   32.2452   47.5358 C   0  0  0  0  0  0  0  0  0  0  0  0
   60.4224   26.5875   48.1953 O   0  0  0  0  0  0  0  0  0  0  0  0
   60.3314   27.9687   48.0449 C   0  0  0  0  0  0  0  0  0  0  0  0
   60.0098   28.7867   49.1374 C   0  0  0  0  0  0  0  0  0  0  0  0
   59.9210   30.1727   48.9758 C   0  0  0  0  0  0  0  0  0  0  0  0
   60.1627   30.7565   47.7214 C   0  0  0  0  0  0  0  0  0  0  0  0
   60.4742   29.9325   46.6271 C   0  0  0  0  0  0  0  0  0  0  0  0
   60.5593   28.5454   46.7902 C   0  0  0  0  0  0  0  0  0  0  0  0
   60.2707   26.1964   49.0332 H   0  0  0  0  0  0  0  0  0  0  0  0
 23 24  1  0
 24 25  2  0
 25 26  1  0
 26 27  2  0
 27 22  1  0
 22 20  1  0
 20 21  2  0
 20 19  1  0
 19  1  1  0
  1  2  2  0
  2  3  1  0
  3  4  2  0
  4  5  1  0
  5  6  2  0
  6  7  1  0
  7  8  2  0
  7  9  1  0
  9 10  2  0
  9 11  1  0
 11 12  2  0
 12 13  1  0
 13 14  1  0
 14 15  2  0
 15 16  1  0
 16 17  2  0
 17 18  1  0
 27 28  1  0
 28 29  2  0
 29 24  1  0
  6  1  1  0
 17 12  1  0
 23 30  1  0
M  CHG 1  13  -1
M  CHG 1  18  -1
M  CHG 1  19  -1
M  END
> <UniqueID>
48

> <SMILES>
O=C(Cc1ccc(O)cc1)[N-]c1ccccc1C(=O)C(=O)/N=c1\[n-]cccc1[O-]

> <Energy>
58.58392719236301

> <Genealogy>
O=C(Cc1ccc(O)cc1)[N-]c1ccccc1C(=O)C(=O)N=c1[n-]cccc1[O-] (protonated)
O=C(Cc1ccc(O)cc1)[N-]c1ccccc1C(=O)C(=O)/N=c1\[n-]cccc1[O-] (cis-trans isomerization)
O=C(Cc1ccc(O)cc1)[N-]c1ccccc1C(=O)C(=O)/N=c1\[n-]cccc1[O-] (3D coordinates assigned)
O=C(Cc1ccc(O)cc1)[N-]c1ccccc1C(=O)C(=O)/N=c1\[n-]cccc1[O-] (optimized conformer: 58.58392719236301 kcal/mol)

> <smiles>
O=C(Cc1ccc(O)cc1)Nc1ccccc1C(=O)C(=O)N=c1[nH]cccc1O

> <score_type>
oracle

> <origin>
adg

> <m_score__min__energy>
-15.470000000000001

> <m_primary>
energy

> <minimizedAffinity>
-5.89786

> <minimizedRMSD>
0.78873

> <CNNscore>
0.2385430336

> <CNNaffinity>
6.0138392448

> <CNN_VS>
1.4345594645

> <CNNaffinity_variance>
0.0103599606

$$$$
57:0


 33 36  0  0  0  0  0  0  0  0999 V2000
   57.1236   25.5105   44.5451 C   0  0  0  0  0  0  0  0  0  0  0  0
   58.0403   26.0657   45.3619 C   0  0  0  0  0  0  0  0  0  0  0  0
   59.0891   25.4015   45.9843 C   0  0  0  0  0  0  0  0  0  0  0  0
   59.7899   26.3531   46.6993 C   0  0  0  0  0  0  0  0  0  0  0  0
   61.0151   26.0728   47.5131 C   0  0  0  0  0  0  0  0  0  0  0  0
   59.2322   27.5742   46.5327 N   0  0  0  0  0  0  0  0  0  0  0  0
   58.1606   27.4119   45.7154 C   0  0  0  0  0  0  0  0  0  0  0  0
   57.3719   28.4176   45.3018 C   0  0  0  0  0  0  0  0  0  0  0  0
   54.6138   25.9511   45.9448 O   0  0  0  0  0  0  0  0  0  0  0  0
   55.0391   24.6525   45.6578 C   0  0  0  0  0  0  0  0  0  0  0  0
   54.2620   23.6111   46.0561 N   0  0  0  0  0  0  0  0  0  0  0  0
   54.6178   22.3266   45.8038 C   0  0  0  0  0  0  0  0  0  0  0  0
   53.8757   21.3835   46.1808 O   0  0  0  0  0  0  0  0  0  0  0  0
   55.7738   22.0574   45.1483 N   0  0  0  0  0  0  0  0  0  0  0  0
   56.5927   23.0562   44.7297 C   0  0  0  0  0  0  0  0  0  0  0  0
   57.6729   22.7654   44.1497 O   0  0  0  0  0  0  0  0  0  0  0  0
   56.2369   24.3996   44.9595 C   0  0  0  0  0  0  0  0  0  0  0  0
   53.8128   26.0895   46.4108 H   0  0  0  0  0  0  0  0  0  0  0  0
   59.6971   28.7974   47.1289 C   0  0  0  0  0  0  0  0  0  0  0  0
   60.5623   29.6429   46.4215 C   0  0  0  0  0  0  0  0  0  0  0  0
   61.0243   30.8261   47.0052 C   0  0  0  0  0  0  0  0  0  0  0  0
   60.6383   31.1721   48.3115 C   0  0  0  0  0  0  0  0  0  0  0  0
   59.7575   30.3304   49.0105 C   0  0  0  0  0  0  0  0  0  0  0  0
   59.2961   29.1486   48.4258 C   0  0  0  0  0  0  0  0  0  0  0  0
   61.1218   32.4304   48.9198 C   0  0  0  0  0  0  0  0  0  0  0  0
   60.7887   33.5311   48.4011 O   0  0  0  0  0  0  0  0  0  0  0  0
   61.9798   32.4233   50.0780 N   0  0  0  0  0  0  0  0  0  0  0  0
   61.9060   33.5150   51.0572 C   0  0  0  0  0  0  0  0  0  0  0  0
   63.2201   34.3130   51.0843 C   0  0  0  0  0  0  0  0  0  0  0  0
   64.4773   33.4370   50.8247 C   0  0  0  0  0  0  0  0  0  0  0  0
   65.6717   33.9252   51.6521 C   0  0  0  0  0  0  0  0  0  0  0  0
   64.2027   31.9456   51.0894 C   0  0  0  0  0  0  0  0  0  0  0  0
   63.0750   31.4432   50.1734 C   0  0  0  0  0  0  0  0  0  0  0  0
  9 10  1  0
 10 11  1  0
 11 12  1  0
 12 13  2  0
 12 14  1  0
 14 15  1  0
 15 16  2  0
 15 17  1  0
 17  1  1  0
  1  2  2  0
  2  3  1  0
  3  4  2  0
  4  5  1  0
  4  6  1  0
  6 19  1  0
 19 20  2  0
 20 21  1  0
 21 22  2  0
 22 25  1  0
 25 26  2  0
 25 27  1  0
 27 28  1  0
 28 29  1  0
 29 30  1  0
 30 31  1  0
 30 32  1  0
 32 33  1  0
 22 23  1  0
 23 24  2  0
  6  7  1  0
  7  8  2  0
 17 10  2  0
  7  2  1  0
 24 19  1  0
 33 27  1  0
  9 18  1  0
M  CHG 1  11  -1
M  CHG 1  14  -1
M  END
> <UniqueID>
52

> <SMILES>
C=c1/c(=C/c2c(O)[n-]c(=O)[n-]c2=O)cc(C)n1-c1ccc(C(=O)N2CCC(C)CC2)cc1

> <Energy>
109.87883162693143

> <Genealogy>
C=c1c(=Cc2c(O)[n-]c(=O)[n-]c2=O)cc(C)n1-c1ccc(C(=O)N2CCC(C)CC2)cc1 (protonated)
C=c1/c(=C/c2c(O)[n-]c(=O)[n-]c2=O)cc(C)n1-c1ccc(C(=O)N2CCC(C)CC2)cc1 (cis-trans isomerization)
C=c1/c(=C/c2c(O)[n-]c(=O)[n-]c2=O)cc(C)n1-c1ccc(C(=O)N2CCC(C)CC2)cc1 (3D coordinates assigned)
C=c1/c(=C/c2c(O)[n-]c(=O)[n-]c2=O)cc(C)n1-c1ccc(C(=O)N2CCC(C)CC2)cc1 (nonaromatic ring conformer: 109.87883162693143 kcal/mol)

> <smiles>
C=c1c(=Cc2c(O)[nH]c(=O)[nH]c2=O)cc(C)n1-c1ccc(C(=O)N2CCC(C)CC2)cc1

> <score_type>
oracle

> <origin>
adg

> <m_score__min__energy>
-14.039999999999999

> <m_primary>
energy

> <minimizedAffinity>
-7.82760

> <minimizedRMSD>
0.77487

> <CNNscore>
0.1110915393

> <CNNaffinity>
6.3545341492

> <CNN_VS>
0.7059350014

> <CNNaffinity_variance>
0.2303684801

$$$$
73:0


 32 35  0  0  0  0  0  0  0  0999 V2000
   60.9756   27.0833   48.9815 C   0  0  0  0  0  0  0  0  0  0  0  0
   60.2060   28.0276   48.4151 C   0  0  0  0  0  0  0  0  0  0  0  0
   59.2829   27.8366   47.3729 C   0  0  0  0  0  0  0  0  0  0  0  0
   59.0590   26.7775   46.5698 C   0  0  0  0  0  0  0  0  0  0  0  0
   58.5843   29.0207   47.2524 C   0  0  0  0  0  0  0  0  0  0  0  0
   59.1305   29.9091   48.1557 C   0  0  0  0  0  0  0  0  0  0  0  0
   60.1213   29.3127   48.8658 N   0  0  0  0  0  0  0  0  0  0  0  0
   58.6913   31.3162   48.2896 C   0  0  0  0  0  0  0  0  0  0  0  0
   58.4699   31.7915   49.4356 O   0  0  0  0  0  0  0  0  0  0  0  0
   58.5751   32.1693   47.1349 N   0  0  0  0  0  0  0  0  0  0  0  0
   58.8967   33.5950   47.2674 C   0  0  0  0  0  0  0  0  0  0  0  0
   59.1909   34.2229   45.9344 C   0  0  0  0  0  0  0  0  0  0  0  0
   59.6828   35.3817   45.8920 O   0  0  0  0  0  0  0  0  0  0  0  0
   58.8648   33.5471   44.7136 N   0  0  0  0  0  0  0  0  0  0  0  0
   58.5151   32.1300   44.6904 C   0  0  0  0  0  0  0  0  0  0  0  0
   57.7910   31.7339   45.9737 C   0  0  0  0  0  0  0  0  0  0  0  0
   58.8769   34.0517   43.8684 H   0  0  0  0  0  0  0  0  0  0  0  0
   57.8888   25.8891   46.6255 C   0  0  0  0  0  0  0  0  0  0  0  0
   57.8546   24.7471   47.3353 N   0  0  0  0  0  0  0  0  0  0  0  0
   56.5745   24.3376   47.2048 C   0  0  0  0  0  0  0  0  0  0  0  0
   56.1471   23.2748   47.7266 O   0  0  0  0  0  0  0  0  0  0  0  0
   55.7835   25.1605   46.4823 N   0  0  0  0  0  0  0  0  0  0  0  0
   56.6284   26.1463   46.1359 C   0  0  0  0  0  0  0  0  0  0  0  0
   56.2459   27.2687   45.4118 O   0  0  0  0  0  0  0  0  0  0  0  0
   60.8893   29.9403   49.9564 C   0  0  0  0  0  0  0  0  0  0  0  0
   61.7149   31.1003   49.4542 C   0  0  0  0  0  0  0  0  0  0  0  0
   62.1297   31.1384   48.1115 C   0  0  0  0  0  0  0  0  0  0  0  0
   62.8728   32.2218   47.6312 C   0  0  0  0  0  0  0  0  0  0  0  0
   63.1943   33.2838   48.4804 C   0  0  0  0  0  0  0  0  0  0  0  0
   63.9125   34.3336   48.0125 F   0  0  0  0  0  0  0  0  0  0  0  0
   62.7690   33.2656   49.8109 C   0  0  0  0  0  0  0  0  0  0  0  0
   62.0270   32.1838   50.2962 C   0  0  0  0  0  0  0  0  0  0  0  0
  1  2  2  0
  2  3  1  0
  3  4  2  0
  4 18  1  0
 18 19  1  0
 19 20  1  0
 20 21  2  0
 20 22  1  0
 22 23  1  0
 23 24  1  0
  3  5  1  0
  5  6  2  0
  6  8  1  0
  8  9  2  0
  8 10  1  0
 10 11  1  0
 11 12  1  0
 12 13  2  0
 12 14  1  0
 14 15  1  0
 15 16  1  0
  6  7  1  0
  7 25  1  0
 25 26  1  0
 26 27  2  0
 27 28  1  0
 28 29  2  0
 29 30  1  0
 29 31  1  0
 31 32  2  0
  7  2  1  0
 32 26  1  0
 23 18  2  0
 16 10  1  0
 14 17  1  0
M  CHG 1  19  -1
M  CHG 1  22  -1
M  CHG 1  24  -1
M  END
> <UniqueID>
65

> <SMILES>
C=c1/c(=C\c2[n-]c(=O)[n-]c2[O-])cc(C(=O)N2CCNC(=O)C2)n1Cc1ccc(F)cc1

> <Energy>
126.05068717068211

> <Genealogy>
C=c1c(=Cc2[n-]c(=O)[n-]c2[O-])cc(C(=O)N2CCNC(=O)C2)n1Cc1ccc(F)cc1 (protonated)
C=c1/c(=C\c2[n-]c(=O)[n-]c2[O-])cc(C(=O)N2CCNC(=O)C2)n1Cc1ccc(F)cc1 (cis-trans isomerization)
C=c1/c(=C\c2[n-]c(=O)[n-]c2[O-])cc(C(=O)N2CCNC(=O)C2)n1Cc1ccc(F)cc1 (3D coordinates assigned)
C=c1/c(=C\c2[n-]c(=O)[n-]c2[O-])cc(C(=O)N2CCNC(=O)C2)n1Cc1ccc(F)cc1 (nonaromatic ring conformer: 126.05068717068211 kcal/mol)

> <smiles>
C=c1c(=Cc2[nH]c(=O)[nH]c2O)cc(C(=O)N2CCNC(=O)C2)n1Cc1ccc(F)cc1

> <score_type>
oracle

> <origin>
adg

> <m_score__min__energy>
-16.530000000000001

> <m_primary>
energy

> <minimizedAffinity>
-6.63886

> <minimizedRMSD>
1.00619

> <CNNscore>
0.2327298373

> <CNNaffinity>
6.4244980812

> <CNN_VS>
1.4951723814

> <CNNaffinity_variance>
0.0254626479

$$$$
82:0


 30 33  0  0  0  0  0  0  0  0999 V2000
   58.9625   29.1561   45.5040 C   0  0  0  0  0  0  0  0  0  0  0  0
   59.7624   29.4016   46.6276 C   0  0  0  0  0  0  0  0  0  0  0  0
   59.7286   30.6445   47.2570 C   0  0  0  0  0  0  0  0  0  0  0  0
   58.8887   31.6501   46.7601 C   0  0  0  0  0  0  0  0  0  0  0  0
   58.1376   31.4086   45.6439 N   0  0  0  0  0  0  0  0  0  0  0  0
   58.1566   30.2004   45.0116 C   0  0  0  0  0  0  0  0  0  0  0  0
   57.4537   30.0316   43.9784 O   0  0  0  0  0  0  0  0  0  0  0  0
   57.5670   32.1269   45.2865 H   0  0  0  0  0  0  0  0  0  0  0  0
   58.8433   32.9723   47.4205 C   0  0  0  0  0  0  0  0  0  0  0  0
   57.9808   33.8181   47.0582 O   0  0  0  0  0  0  0  0  0  0  0  0
   59.7909   33.3158   48.4449 N   0  0  0  0  0  0  0  0  0  0  0  0
   61.2036   33.3049   48.2990 C   0  0  0  0  0  0  0  0  0  0  0  0
   61.9328   33.3480   47.1048 C   0  0  0  0  0  0  0  0  0  0  0  0
   63.3356   33.3579   47.1785 C   0  0  0  0  0  0  0  0  0  0  0  0
   63.9789   33.3348   48.4310 C   0  0  0  0  0  0  0  0  0  0  0  0
   63.2241   33.3097   49.6140 C   0  0  0  0  0  0  0  0  0  0  0  0
   61.8316   33.2984   49.5140 C   0  0  0  0  0  0  0  0  0  0  0  0
   60.8359   33.2940   50.6190 C   0  0  0  0  0  0  0  0  0  0  0  0
   59.4770   33.2968   49.8774 C   0  0  0  0  0  0  0  0  0  0  0  0
   59.0304   27.8142   44.8124 C   0  0  0  0  0  0  0  0  0  0  0  0
   58.9377   26.6684   45.7920 C   0  0  0  0  0  0  0  0  0  0  0  0
   59.9798   26.2645   46.3743 O   0  0  0  0  0  0  0  0  0  0  0  0
   57.5668   22.7616   44.6201 C   0  0  0  0  0  0  0  0  0  0  0  0
   58.0442   23.9285   45.1279 N   0  0  0  0  0  0  0  0  0  0  0  0
   57.2193   24.9075   45.5967 C   0  0  0  0  0  0  0  0  0  0  0  0
   57.6928   26.0141   46.0979 N   0  0  0  0  0  0  0  0  0  0  0  0
   55.8297   24.7050   45.5705 C   0  0  0  0  0  0  0  0  0  0  0  0
   54.9602   25.6776   46.0521 O   0  0  0  0  0  0  0  0  0  0  0  0
   55.3198   23.5119   45.0512 C   0  0  0  0  0  0  0  0  0  0  0  0
   56.1911   22.5326   44.5725 C   0  0  0  0  0  0  0  0  0  0  0  0
 23 24  1  0
 24 25  1  0
 25 26  2  0
 26 21  1  0
 21 22  2  0
 21 20  1  0
 20  1  1  0
  1  2  2  0
  2  3  1  0
  3  4  2  0
  4  9  1  0
  9 10  2  0
  9 11  1  0
 11 12  1  0
 12 13  2  0
 13 14  1  0
 14 15  2  0
 15 16  1  0
 16 17  2  0
 17 18  1  0
 18 19  1  0
  4  5  1  0
  5  6  1  0
  6  7  2  0
 25 27  1  0
 27 28  1  0
 27 29  2  0
 29 30  1  0
 30 23  2  0
  6  1  1  0
 19 11  1  0
 17 12  1  0
  5  8  1  0
M  CHG 1  24  -1
M  CHG 1  28  -1
M  END
> <UniqueID>
73

> <SMILES>
O=C(Cc1ccc(C(=O)N2CCc3ccccc32)[nH]c1=O)/N=c1\[n-]cccc1[O-]

> <Energy>
76.67951581623997

> <Genealogy>
O=C(Cc1ccc(C(=O)N2CCc3ccccc32)[nH]c1=O)N=c1[n-]cccc1[O-] (protonated)
O=C(Cc1ccc(C(=O)N2CCc3ccccc32)[nH]c1=O)/N=c1\[n-]cccc1[O-] (cis-trans isomerization)
O=C(Cc1ccc(C(=O)N2CCc3ccccc32)[nH]c1=O)/N=c1\[n-]cccc1[O-] (3D coordinates assigned)
O=C(Cc1ccc(C(=O)N2CCc3ccccc32)[nH]c1=O)/N=c1\[n-]cccc1[O-] (nonaromatic ring conformer: 76.67951581623997 kcal/mol)

> <smiles>
O=C(Cc1ccc(C(=O)N2CCc3ccccc32)[nH]c1=O)N=c1[nH]cccc1O

> <score_type>
oracle

> <origin>
adg

> <m_score__min__energy>
-15.34

> <m_primary>
energy

> <minimizedAffinity>
-9.50407

> <minimizedRMSD>
0.92458

> <CNNscore>
0.4624032974

> <CNNaffinity>
7.2446975708

> <CNN_VS>
3.3499720097

> <CNNaffinity_variance>
0.9461149573

$$$$
86:0


 28 31  0  0  0  0  0  0  0  0999 V2000
   58.9504   28.1034   47.2816 C   0  0  0  0  0  0  0  0  0  0  0  0
   58.6225   28.4900   46.0396 C   0  0  0  0  0  0  0  0  0  0  0  0
   58.1774   27.6760   44.9836 C   0  0  0  0  0  0  0  0  0  0  0  0
   58.1281   26.3366   44.8577 C   0  0  0  0  0  0  0  0  0  0  0  0
   57.7806   28.5367   43.9725 C   0  0  0  0  0  0  0  0  0  0  0  0
   58.0444   29.8182   44.4086 C   0  0  0  0  0  0  0  0  0  0  0  0
   57.8027   31.0617   43.6091 C   0  0  0  0  0  0  0  0  0  0  0  0
   58.5656   29.7925   45.6556 N   0  0  0  0  0  0  0  0  0  0  0  0
   57.5213   25.4053   45.8213 C   0  0  0  0  0  0  0  0  0  0  0  0
   58.0769   24.2458   46.2232 N   0  0  0  0  0  0  0  0  0  0  0  0
   57.1080   23.6795   46.9744 C   0  0  0  0  0  0  0  0  0  0  0  0
   57.2593   22.5709   47.5497 O   0  0  0  0  0  0  0  0  0  0  0  0
   55.9633   24.3901   47.0525 N   0  0  0  0  0  0  0  0  0  0  0  0
   56.2371   25.4713   46.3051 C   0  0  0  0  0  0  0  0  0  0  0  0
   55.3294   26.4946   46.0625 O   0  0  0  0  0  0  0  0  0  0  0  0
   58.9059   30.9498   46.4362 C   0  0  0  0  0  0  0  0  0  0  0  0
   58.0079   32.0214   46.5386 C   0  0  0  0  0  0  0  0  0  0  0  0
   58.3511   33.1547   47.2796 C   0  0  0  0  0  0  0  0  0  0  0  0
   59.5927   33.2295   47.9146 C   0  0  0  0  0  0  0  0  0  0  0  0
   60.5089   32.1668   47.8163 C   0  0  0  0  0  0  0  0  0  0  0  0
   60.1549   31.0272   47.0704 C   0  0  0  0  0  0  0  0  0  0  0  0
   61.8310   32.2451   48.4885 C   0  0  0  0  0  0  0  0  0  0  0  0
   62.8136   33.1448   48.0477 C   0  0  0  0  0  0  0  0  0  0  0  0
   64.0151   33.1975   48.6786 N   0  0  0  0  0  0  0  0  0  0  0  0
   64.2914   32.4114   49.7210 N   0  0  0  0  0  0  0  0  0  0  0  0
   63.3820   31.5218   50.1960 C   0  0  0  0  0  0  0  0  0  0  0  0
   63.6691   30.7959   51.1828 O   0  0  0  0  0  0  0  0  0  0  0  0
   62.1325   31.4223   49.5842 C   0  0  0  0  0  0  0  0  0  0  0  0
  1  2  2  0
  2  3  1  0
  3  4  2  0
  4  9  1  0
  9 10  1  0
 10 11  1  0
 11 12  2  0
 11 13  1  0
 13 14  1  0
 14 15  1  0
  3  5  1  0
  5  6  2  0
  6  7  1  0
  6  8  1  0
  8 16  1  0
 16 17  2  0
 17 18  1  0
 18 19  2  0
 19 20  1  0
 20 22  1  0
 22 23  1  0
 23 24  2  0
 24 25  1  0
 25 26  1  0
 26 27  2  0
 26 28  1  0
 20 21  2  0
  8  2  1  0
 21 16  1  0
 14  9  2  0
 28 22  2  0
M  CHG 1  10  -1
M  CHG 1  13  -1
M  CHG 1  15  -1
M  CHG 1  25  -1
M  END
> <UniqueID>
77

> <SMILES>
C=c1c(=Cc2[n-]c(=O)[n-]c2[O-])cc(C)n1-c1cccc(-c2cn[n-]c(=O)c2)c1

> <Energy>
127.3823744495145

> <Genealogy>
C=c1c(=Cc2[n-]c(=O)[n-]c2[O-])cc(C)n1-c1cccc(-c2cn[n-]c(=O)c2)c1 (protonated)
C=c1c(=Cc2[n-]c(=O)[n-]c2[O-])cc(C)n1-c1cccc(-c2cn[n-]c(=O)c2)c1 (3D coordinates assigned)
C=c1c(=Cc2[n-]c(=O)[n-]c2[O-])cc(C)n1-c1cccc(-c2cn[n-]c(=O)c2)c1 (optimized conformer: 127.3823744495145 kcal/mol)

> <smiles>
C=c1c(=Cc2[nH]c(=O)[nH]c2O)cc(C)n1-c1cccc(-c2cn[nH]c(=O)c2)c1

> <score_type>
oracle

> <origin>
adg

> <m_score__min__energy>
-17.379999999999999

> <m_primary>
energy

> <minimizedAffinity>
-8.23491

> <minimizedRMSD>
0.80021

> <CNNscore>
0.1618796587

> <CNNaffinity>
6.6513895988

> <CNN_VS>
1.0767246485

> <CNNaffinity_variance>
0.0206786729

$$$$
1:0


 37 41  0  0  0  0  0  0  0  0999 V2000
   58.4920   30.8028   45.6170 C   0  0  0  0  0  0  0  0  0  0  0  0
   57.9755   31.1379   44.3580 C   0  0  0  0  0  0  0  0  0  0  0  0
   57.9536   32.4706   43.9413 C   0  0  0  0  0  0  0  0  0  0  0  0
   58.4383   33.4774   44.7798 C   0  0  0  0  0  0  0  0  0  0  0  0
   58.9424   33.1575   46.0530 C   0  0  0  0  0  0  0  0  0  0  0  0
   58.9800   31.8130   46.4576 C   0  0  0  0  0  0  0  0  0  0  0  0
   59.4758   34.2131   46.9426 C   0  0  0  0  0  0  0  0  0  0  0  0
   58.9877   35.3760   46.8722 O   0  0  0  0  0  0  0  0  0  0  0  0
   60.5483   33.9461   47.8681 N   0  0  0  0  0  0  0  0  0  0  0  0
   61.8643   33.5269   47.3579 C   0  0  0  0  0  0  0  0  0  0  0  0
   62.2763   32.2658   48.0486 C   0  0  0  0  0  0  0  0  0  0  0  0
   62.8886   31.3593   47.4176 O   0  0  0  0  0  0  0  0  0  0  0  0
   61.9559   32.1170   49.4415 N   0  0  0  0  0  0  0  0  0  0  0  0
   61.4076   33.2907   50.1308 C   0  0  0  0  0  0  0  0  0  0  0  0
   60.2469   33.8893   49.3161 C   0  0  0  0  0  0  0  0  0  0  0  0
   62.1167   30.8328   50.1336 C   0  0  0  0  0  0  0  0  0  0  0  0
   63.4500   30.7797   50.8217 C   0  0  0  0  0  0  0  0  0  0  0  0
   63.7262   29.7469   51.6668 N   0  0  0  0  0  0  0  0  0  0  0  0
   64.9162   29.6538   52.3217 C   0  0  0  0  0  0  0  0  0  0  0  0
   65.8953   30.6340   52.1412 C   0  0  0  0  0  0  0  0  0  0  0  0
   65.6356   31.7078   51.2876 C   0  0  0  0  0  0  0  0  0  0  0  0
   64.4072   31.7879   50.6238 C   0  0  0  0  0  0  0  0  0  0  0  0
   58.0012   28.3690   43.9720 C   0  0  0  0  0  0  0  0  0  0  0  0
   58.3267   28.3239   45.2753 C   0  0  0  0  0  0  0  0  0  0  0  0
   58.4691   27.1717   46.0614 C   0  0  0  0  0  0  0  0  0  0  0  0
   58.3083   25.8923   45.6584 C   0  0  0  0  0  0  0  0  0  0  0  0
   58.7734   27.6172   47.3439 C   0  0  0  0  0  0  0  0  0  0  0  0
   58.8171   28.9956   47.2874 C   0  0  0  0  0  0  0  0  0  0  0  0
   59.0969   29.8880   48.4583 C   0  0  0  0  0  0  0  0  0  0  0  0
   58.5426   29.4268   46.0369 N   0  0  0  0  0  0  0  0  0  0  0  0
   57.4657   24.8779   46.3330 C   0  0  0  0  0  0  0  0  0  0  0  0
   57.8894   23.6959   46.8183 N   0  0  0  0  0  0  0  0  0  0  0  0
   56.7586   23.1209   47.2819 C   0  0  0  0  0  0  0  0  0  0  0  0
   56.7481   21.9856   47.8248 O   0  0  0  0  0  0  0  0  0  0  0  0
   55.6380   23.8563   47.1150 N   0  0  0  0  0  0  0  0  0  0  0  0
   56.1029   24.9619   46.5083 C   0  0  0  0  0  0  0  0  0  0  0  0
   55.2966   26.0263   46.1219 O   0  0  0  0  0  0  0  0  0  0  0  0
 23 24  2  0
 24 25  1  0
 25 26  2  0
 26 31  1  0
 31 32  1  0
 32 33  1  0
 33 34  2  0
 33 35  1  0
 35 36  1  0
 36 37  1  0
 25 27  1  0
 27 28  2  0
 28 29  1  0
 28 30  1  0
 30  1  1  0
  1  2  2  0
  2  3  1  0
  3  4  2  0
  4  5  1  0
  5  7  1  0
  7  8  2  0
  7  9  1  0
  9 10  1  0
 10 11  1  0
 11 12  2  0
 11 13  1  0
 13 16  1  0
 16 17  1  0
 17 18  2  0
 18 19  1  0
 19 20  2  0
 20 21  1  0
 21 22  2  0
 13 14  1  0
 14 15  1  0
  5  6  2  0
 30 24  1  0
  6  1  1  0
 36 31  2  0
 15  9  1  0
 22 17  1  0
M  CHG 1  32  -1
M  CHG 1  35  -1
M  CHG 1  37  -1
M  END
> <UniqueID>
2

> <SMILES>
C=c1/c(=C/c2[n-]c(=O)[n-]c2[O-])cc(C)n1-c1cccc(C(=O)N2CCN(Cc3ccccn3)C(=O)C2)c1

> <Energy>
139.64531413698967

> <Genealogy>
C=c1c(=Cc2[n-]c(=O)[n-]c2[O-])cc(C)n1-c1cccc(C(=O)N2CCN(Cc3ccccn3)C(=O)C2)c1 (protonated)
C=c1/c(=C/c2[n-]c(=O)[n-]c2[O-])cc(C)n1-c1cccc(C(=O)N2CCN(Cc3ccccn3)C(=O)C2)c1 (cis-trans isomerization)
C=c1/c(=C/c2[n-]c(=O)[n-]c2[O-])cc(C)n1-c1cccc(C(=O)N2CCN(Cc3ccccn3)C(=O)C2)c1 (3D coordinates assigned)
C=c1/c(=C/c2[n-]c(=O)[n-]c2[O-])cc(C)n1-c1cccc(C(=O)N2CCN(Cc3ccccn3)C(=O)C2)c1 (nonaromatic ring conformer: 139.64531413698967 kcal/mol)

> <smiles>
C=c1c(=Cc2[nH]c(=O)[nH]c2O)cc(C)n1-c1cccc(C(=O)N2CCN(Cc3ccccn3)C(=O)C2)c1

> <score_type>
oracle

> <origin>
adg

> <m_score__min__energy>
-19.420000000000002

> <m_primary>
energy

> <minimizedAffinity>
-10.17922

> <minimizedRMSD>
0.84805

> <CNNscore>
0.2788380086

> <CNNaffinity>
7.0860896111

> <CNN_VS>
1.9758710861

> <CNNaffinity_variance>
0.2613524199

$$$$
17:0


 39 42  0  0  0  0  0  0  0  0999 V2000
   58.1334   29.7225   52.9408 C   0  0  0  0  0  0  0  0  0  0  0  0
   58.5462   29.7827   51.6027 C   0  0  0  0  0  0  0  0  0  0  0  0
   59.8942   30.0279   51.2744 C   0  0  0  0  0  0  0  0  0  0  0  0
   60.8217   30.2037   52.3181 C   0  0  0  0  0  0  0  0  0  0  0  0
   60.4130   30.1237   53.6511 C   0  0  0  0  0  0  0  0  0  0  0  0
   59.0748   29.8811   53.9646 C   0  0  0  0  0  0  0  0  0  0  0  0
   58.6936   29.8011   55.2635 F   0  0  0  0  0  0  0  0  0  0  0  0
   55.8501   31.5421   52.3762 C   0  0  0  0  0  0  0  0  0  0  0  0
   55.7141   30.3582   52.9923 C   0  0  0  0  0  0  0  0  0  0  0  0
   54.5174   29.7883   53.4411 C   0  0  0  0  0  0  0  0  0  0  0  0
   53.2757   30.2975   53.3185 C   0  0  0  0  0  0  0  0  0  0  0  0
   54.8529   28.5525   53.9818 C   0  0  0  0  0  0  0  0  0  0  0  0
   56.2227   28.4264   53.8593 C   0  0  0  0  0  0  0  0  0  0  0  0
   57.0054   27.2187   54.2669 C   0  0  0  0  0  0  0  0  0  0  0  0
   56.7449   29.5190   53.2585 N   0  0  0  0  0  0  0  0  0  0  0  0
   52.5604   30.4191   52.0361 C   0  0  0  0  0  0  0  0  0  0  0  0
   52.7728   29.5996   50.9892 N   0  0  0  0  0  0  0  0  0  0  0  0
   51.9930   30.1252   50.0169 C   0  0  0  0  0  0  0  0  0  0  0  0
   51.9186   29.6250   48.8647 O   0  0  0  0  0  0  0  0  0  0  0  0
   51.3179   31.2398   50.3724 N   0  0  0  0  0  0  0  0  0  0  0  0
   51.6966   31.4211   51.6478 C   0  0  0  0  0  0  0  0  0  0  0  0
   51.3015   32.5075   52.4202 O   0  0  0  0  0  0  0  0  0  0  0  0
   60.3043   30.0829   49.8443 C   0  0  0  0  0  0  0  0  0  0  0  0
   60.5960   28.9994   49.2611 O   0  0  0  0  0  0  0  0  0  0  0  0
   60.3780   31.3396   49.1153 N   0  0  0  0  0  0  0  0  0  0  0  0
   61.3999   31.2743   48.0501 C   0  0  0  0  0  0  0  0  0  0  0  0
   60.9930   30.3363   46.8935 C   0  0  0  0  0  0  0  0  0  0  0  0
   59.5196   30.2290   46.7275 N   0  0  0  0  0  0  0  0  0  0  0  0
   58.8526   31.4931   47.0956 C   0  0  0  0  0  0  0  0  0  0  0  0
   59.0501   31.7748   48.5982 C   0  0  0  0  0  0  0  0  0  0  0  0
   59.9992   30.5027   49.4693 H   0  0  0  0  0  0  0  0  0  0  0  0
   59.0630   29.6543   45.4192 C   0  0  0  0  0  0  0  0  0  0  0  0
   58.5988   30.7652   44.4347 C   0  0  0  0  0  0  0  0  0  0  0  0
   60.2016   28.8433   44.7536 C   0  0  0  0  0  0  0  0  0  0  0  0
   57.9309   28.6678   45.6978 C   0  0  0  0  0  0  0  0  0  0  0  0
   56.7384   29.0386   45.5177 O   0  0  0  0  0  0  0  0  0  0  0  0
   58.1799   27.3180   46.1337 N   0  0  0  0  0  0  0  0  0  0  0  0
   58.6185   27.0512   47.5061 C   0  0  0  0  0  0  0  0  0  0  0  0
   57.6261   26.2075   45.3638 C   0  0  0  0  0  0  0  0  0  0  0  0
  8  9  2  0
  9 10  1  0
 10 11  2  0
 11 16  1  0
 16 17  1  0
 17 18  1  0
 18 19  2  0
 18 20  1  0
 20 21  1  0
 21 22  1  0
 10 12  1  0
 12 13  2  0
 13 14  1  0
 13 15  1  0
 15  1  1  0
  1  2  2  0
  2  3  1  0
  3 23  1  0
 23 24  2  0
 23 25  1  0
 25 26  1  0
 26 27  1  0
 27 28  1  0
 28 32  1  0
 32 33  1  0
 32 34  1  0
 32 35  1  0
 35 36  2  0
 35 37  1  0
 37 38  1  0
 37 39  1  0
 28 29  1  0
 29 30  1  0
  3  4  2  0
  4  5  1  0
  5  6  2  0
  6  7  1  0
 15  9  1  0
  6  1  1  0
 21 16  2  0
 30 25  1  0
 25 31  1  0
M  CHG 1  17  -1
M  CHG 1  20  -1
M  CHG 1  22  -1
M  CHG 1  25   1
M  END
> <UniqueID>
16

> <SMILES>
C=c1c(=Cc2[n-]c(=O)[n-]c2[O-])cc(C)n1-c1cc(C(=O)[NH+]2CCN(C(C)(C)C(=O)N(C)C)CC2)ccc1F

> <Energy>
169.3399254357228

> <Genealogy>
C=c1c(=Cc2[n-]c(=O)[n-]c2[O-])cc(C)n1-c1cc(C(=O)[NH+]2CCN(C(C)(C)C(=O)N(C)C)CC2)ccc1F (protonated)
C=c1c(=Cc2[n-]c(=O)[n-]c2[O-])cc(C)n1-c1cc(C(=O)[NH+]2CCN(C(C)(C)C(=O)N(C)C)CC2)ccc1F (3D coordinates assigned)
C=c1c(=Cc2[n-]c(=O)[n-]c2[O-])cc(C)n1-c1cc(C(=O)[NH+]2CCN(C(C)(C)C(=O)N(C)C)CC2)ccc1F (nonaromatic ring conformer: 169.3399254357228 kcal/mol)

> <smiles>
C=c1c(=Cc2[nH]c(=O)[nH]c2O)cc(C)n1-c1cc(C(=O)N2CCN(C(C)(C)C(=O)N(C)C)CC2)ccc1F

> <score_type>
oracle

> <origin>
adg

> <m_score__min__energy>
-16.98

> <m_primary>
energy

> <minimizedAffinity>
-6.67824

> <minimizedRMSD>
0.82406

> <CNNscore>
0.0209959298

> <CNNaffinity>
5.7999839783

> <CNN_VS>
0.1217760593

> <CNNaffinity_variance>
0.6486384869

$$$$
18:0


 31 34  0  0  0  0  0  0  0  0999 V2000
   59.3476   32.0639   48.0660 C   0  0  0  0  0  0  0  0  0  0  0  0
   58.8979   31.7568   49.2051 O   0  0  0  0  0  0  0  0  0  0  0  0
   57.9593   29.8261   43.9865 C   0  0  0  0  0  0  0  0  0  0  0  0
   58.5490   30.0498   45.1681 C   0  0  0  0  0  0  0  0  0  0  0  0
   59.3546   29.1510   45.8766 C   0  0  0  0  0  0  0  0  0  0  0  0
   59.6556   27.8814   45.5385 C   0  0  0  0  0  0  0  0  0  0  0  0
   59.7546   29.8108   47.0277 C   0  0  0  0  0  0  0  0  0  0  0  0
   59.1790   31.0640   46.9873 C   0  0  0  0  0  0  0  0  0  0  0  0
   58.4655   31.2234   45.8476 N   0  0  0  0  0  0  0  0  0  0  0  0
   57.8132   32.4489   45.3726 C   0  0  0  0  0  0  0  0  0  0  0  0
   58.7252   26.7466   45.6903 C   0  0  0  0  0  0  0  0  0  0  0  0
   59.1297   25.4868   45.9346 N   0  0  0  0  0  0  0  0  0  0  0  0
   57.9727   24.8188   46.1321 C   0  0  0  0  0  0  0  0  0  0  0  0
   57.9361   23.5865   46.3827 O   0  0  0  0  0  0  0  0  0  0  0  0
   56.8602   25.5782   46.0540 N   0  0  0  0  0  0  0  0  0  0  0  0
   57.3522   26.7969   45.7849 C   0  0  0  0  0  0  0  0  0  0  0  0
   56.5622   27.9353   45.6810 O   0  0  0  0  0  0  0  0  0  0  0  0
   60.0221   33.3431   47.8654 N   0  0  0  0  0  0  0  0  0  0  0  0
   60.1605   34.1463   49.1058 C   0  0  0  0  0  0  0  0  0  0  0  0
   61.1462   33.5171   50.1026 C   0  0  0  0  0  0  0  0  0  0  0  0
   62.4163   33.2217   49.4361 N   0  0  0  0  0  0  0  0  0  0  0  0
   62.3628   32.5040   48.1588 C   0  0  0  0  0  0  0  0  0  0  0  0
   61.3506   33.1821   47.2244 C   0  0  0  0  0  0  0  0  0  0  0  0
   60.6630   34.0860   47.7849 H   0  0  0  0  0  0  0  0  0  0  0  0
   63.6539   33.2885   50.1675 C   0  0  0  0  0  0  0  0  0  0  0  0
   64.7748   32.5534   49.7461 C   0  0  0  0  0  0  0  0  0  0  0  0
   65.9669   32.6078   50.4726 C   0  0  0  0  0  0  0  0  0  0  0  0
   66.0520   33.3987   51.6220 C   0  0  0  0  0  0  0  0  0  0  0  0
   67.2098   33.4547   52.3242 F   0  0  0  0  0  0  0  0  0  0  0  0
   64.9430   34.1342   52.0459 C   0  0  0  0  0  0  0  0  0  0  0  0
   63.7478   34.0791   51.3253 C   0  0  0  0  0  0  0  0  0  0  0  0
  3  4  2  0
  4  5  1  0
  5  6  2  0
  6 11  1  0
 11 12  1  0
 12 13  1  0
 13 14  2  0
 13 15  1  0
 15 16  1  0
 16 17  1  0
  5  7  1  0
  7  8  2  0
  8  1  1  0
  1  2  2  0
  1 18  1  0
 18 19  1  0
 19 20  1  0
 20 21  1  0
 21 25  1  0
 25 26  2  0
 26 27  1  0
 27 28  2  0
 28 29  1  0
 28 30  1  0
 30 31  2  0
 21 22  1  0
 22 23  1  0
  8  9  1  0
  9 10  1  0
  9  4  1  0
 16 11  2  0
 23 18  1  0
 31 25  1  0
 18 24  1  0
M  CHG 1  12  -1
M  CHG 1  15  -1
M  CHG 1  17  -1
M  CHG 1  18   1
M  END
> <UniqueID>
17

> <SMILES>
C=c1c(=Cc2[n-]c(=O)[n-]c2[O-])cc(C(=O)[NH+]2CCN(c3ccc(F)cc3)CC2)n1C

> <Energy>
135.80156297159638

> <Genealogy>
C=c1c(=Cc2[n-]c(=O)[n-]c2[O-])cc(C(=O)[NH+]2CCN(c3ccc(F)cc3)CC2)n1C (protonated)
C=c1c(=Cc2[n-]c(=O)[n-]c2[O-])cc(C(=O)[NH+]2CCN(c3ccc(F)cc3)CC2)n1C (3D coordinates assigned)
C=c1c(=Cc2[n-]c(=O)[n-]c2[O-])cc(C(=O)[NH+]2CCN(c3ccc(F)cc3)CC2)n1C (nonaromatic ring conformer: 135.80156297159638 kcal/mol)

> <smiles>
C=c1c(=Cc2[nH]c(=O)[nH]c2O)cc(C(=O)N2CCN(c3ccc(F)cc3)CC2)n1C

> <score_type>
oracle

> <origin>
adg

> <m_score__min__energy>
-16.809999999999999

> <m_primary>
energy

> <minimizedAffinity>
-7.93421

> <minimizedRMSD>
1.10566

> <CNNscore>
0.1755840033

> <CNNaffinity>
6.6059136391

> <CNN_VS>
1.1598927975

> <CNNaffinity_variance>
0.0421473570

$$$$
19:0


 34 37  0  0  0  0  0  0  0  0999 V2000
   57.3458   28.5189   43.6465 C   0  0  0  0  0  0  0  0  0  0  0  0
   58.1211   28.2316   44.7049 C   0  0  0  0  0  0  0  0  0  0  0  0
   58.5076   26.9591   45.1584 C   0  0  0  0  0  0  0  0  0  0  0  0
   58.0816   25.7280   44.8085 C   0  0  0  0  0  0  0  0  0  0  0  0
   59.4612   27.1718   46.1428 C   0  0  0  0  0  0  0  0  0  0  0  0
   59.5734   28.5375   46.3047 C   0  0  0  0  0  0  0  0  0  0  0  0
   60.4454   29.2079   47.3212 C   0  0  0  0  0  0  0  0  0  0  0  0
   58.7650   29.1809   45.4345 N   0  0  0  0  0  0  0  0  0  0  0  0
   57.3842   24.7825   45.7021 C   0  0  0  0  0  0  0  0  0  0  0  0
   56.1430   25.1201   46.2590 C   0  0  0  0  0  0  0  0  0  0  0  0
   55.5626   26.3555   45.9964 O   0  0  0  0  0  0  0  0  0  0  0  0
   55.5000   24.2374   47.0667 N   0  0  0  0  0  0  0  0  0  0  0  0
   56.0296   23.0138   47.3321 C   0  0  0  0  0  0  0  0  0  0  0  0
   55.4163   22.2122   48.0836 O   0  0  0  0  0  0  0  0  0  0  0  0
   57.2174   22.6538   46.7823 N   0  0  0  0  0  0  0  0  0  0  0  0
   57.8992   23.5008   45.9700 C   0  0  0  0  0  0  0  0  0  0  0  0
   58.9871   23.1224   45.4549 O   0  0  0  0  0  0  0  0  0  0  0  0
   58.5516   30.6029   45.3748 C   0  0  0  0  0  0  0  0  0  0  0  0
   57.9056   31.1838   44.2748 C   0  0  0  0  0  0  0  0  0  0  0  0
   57.7123   32.5672   44.2279 C   0  0  0  0  0  0  0  0  0  0  0  0
   58.1526   33.3753   45.2824 C   0  0  0  0  0  0  0  0  0  0  0  0
   58.7881   32.8029   46.3957 C   0  0  0  0  0  0  0  0  0  0  0  0
   59.0048   31.4160   46.4222 C   0  0  0  0  0  0  0  0  0  0  0  0
   59.2605   33.6501   47.5133 C   0  0  0  0  0  0  0  0  0  0  0  0
   59.2182   34.9063   47.4003 O   0  0  0  0  0  0  0  0  0  0  0  0
   59.7964   33.0650   48.7131 N   0  0  0  0  0  0  0  0  0  0  0  0
   60.9878   33.6473   49.3360 C   0  0  0  0  0  0  0  0  0  0  0  0
   61.8938   32.5302   49.8660 C   0  0  0  0  0  0  0  0  0  0  0  0
   61.1378   31.5205   50.6264 N   0  0  0  0  0  0  0  0  0  0  0  0
   61.8763   30.4802   51.3100 C   0  0  0  0  0  0  0  0  0  0  0  0
   61.2243   29.5635   52.3045 C   0  0  0  0  0  0  0  0  0  0  0  0
   63.1038   30.3183   51.0657 O   0  0  0  0  0  0  0  0  0  0  0  0
   59.6762   31.6578   50.7634 C   0  0  0  0  0  0  0  0  0  0  0  0
   59.0402   32.0121   49.4109 C   0  0  0  0  0  0  0  0  0  0  0  0
  1  2  2  0
  2  3  1  0
  3  4  2  0
  4  9  1  0
  9 10  2  0
 10 11  1  0
 10 12  1  0
 12 13  1  0
 13 14  2  0
 13 15  1  0
 15 16  1  0
 16 17  2  0
  3  5  1  0
  5  6  2  0
  6  7  1  0
  6  8  1  0
  8 18  1  0
 18 19  2  0
 19 20  1  0
 20 21  2  0
 21 22  1  0
 22 24  1  0
 24 25  2  0
 24 26  1  0
 26 27  1  0
 27 28  1  0
 28 29  1  0
 29 30  1  0
 30 31  1  0
 30 32  2  0
 29 33  1  0
 33 34  1  0
 22 23  2  0
  8  2  1  0
 23 18  1  0
 16  9  1  0
 34 26  1  0
M  CHG 1  11  -1
M  CHG 1  12  -1
M  CHG 1  15  -1
M  END
> <UniqueID>
18

> <SMILES>
C=c1c(=Cc2c([O-])[n-]c(=O)[n-]c2=O)cc(C)n1-c1cccc(C(=O)N2CCN(C(C)=O)CC2)c1

> <Energy>
111.12643716347495

> <Genealogy>
C=c1c(=Cc2c([O-])[n-]c(=O)[n-]c2=O)cc(C)n1-c1cccc(C(=O)N2CCN(C(C)=O)CC2)c1 (protonated)
C=c1c(=Cc2c([O-])[n-]c(=O)[n-]c2=O)cc(C)n1-c1cccc(C(=O)N2CCN(C(C)=O)CC2)c1 (3D coordinates assigned)
C=c1c(=Cc2c([O-])[n-]c(=O)[n-]c2=O)cc(C)n1-c1cccc(C(=O)N2CCN(C(C)=O)CC2)c1 (nonaromatic ring conformer: 111.12643716347495 kcal/mol)

> <smiles>
C=c1c(=Cc2c(O)[nH]c(=O)[nH]c2=O)cc(C)n1-c1cccc(C(=O)N2CCN(C(C)=O)CC2)c1

> <score_type>
oracle

> <origin>
adg

> <m_score__min__energy>
-17.16

> <m_primary>
energy

> <minimizedAffinity>
-10.27221

> <minimizedRMSD>
0.88453

> <CNNscore>
0.2915635407

> <CNNaffinity>
7.1154541969

> <CNN_VS>
2.0746071339

> <CNNaffinity_variance>
0.0094003016

$$$$
35:0


 33 36  0  0  0  0  0  0  0  0999 V2000
   58.8512   29.5012   47.3463 C   0  0  0  0  0  0  0  0  0  0  0  0
   57.2983   28.5023   44.9754 C   0  0  0  0  0  0  0  0  0  0  0  0
   58.0520   27.7002   45.7438 C   0  0  0  0  0  0  0  0  0  0  0  0
   58.2421   26.3180   45.5890 C   0  0  0  0  0  0  0  0  0  0  0  0
   57.6212   25.4218   44.7957 C   0  0  0  0  0  0  0  0  0  0  0  0
   59.2274   25.9570   46.4915 C   0  0  0  0  0  0  0  0  0  0  0  0
   59.5457   27.0911   47.2095 C   0  0  0  0  0  0  0  0  0  0  0  0
   60.5070   27.1239   48.3590 C   0  0  0  0  0  0  0  0  0  0  0  0
   58.8439   28.1548   46.7534 N   0  0  0  0  0  0  0  0  0  0  0  0
   56.5825   24.4742   45.2251 C   0  0  0  0  0  0  0  0  0  0  0  0
   56.7740   23.1448   45.3037 N   0  0  0  0  0  0  0  0  0  0  0  0
   55.6345   22.6987   45.8735 C   0  0  0  0  0  0  0  0  0  0  0  0
   55.4256   21.4790   46.1050 O   0  0  0  0  0  0  0  0  0  0  0  0
   54.7434   23.6611   46.1929 N   0  0  0  0  0  0  0  0  0  0  0  0
   55.3646   24.7828   45.7933 C   0  0  0  0  0  0  0  0  0  0  0  0
   54.8455   26.0630   45.9623 O   0  0  0  0  0  0  0  0  0  0  0  0
   54.0052   26.1791   46.3604 H   0  0  0  0  0  0  0  0  0  0  0  0
   59.6869   30.4399   46.4727 C   0  0  0  0  0  0  0  0  0  0  0  0
   58.8363   31.5686   45.8616 C   0  0  0  0  0  0  0  0  0  0  0  0
   59.0611   32.8839   46.4993 N   0  0  0  0  0  0  0  0  0  0  0  0
   58.3346   33.1144   47.7660 C   0  0  0  0  0  0  0  0  0  0  0  0
   59.1033   32.6136   49.0016 C   0  0  0  0  0  0  0  0  0  0  0  0
   60.5515   32.7581   48.8322 N   0  0  0  0  0  0  0  0  0  0  0  0
   61.4481   31.9624   49.6303 C   0  0  0  0  0  0  0  0  0  0  0  0
   61.1484   30.7635   49.8826 O   0  0  0  0  0  0  0  0  0  0  0  0
   61.0528   33.6978   47.8268 C   0  0  0  0  0  0  0  0  0  0  0  0
   60.4621   33.3686   46.4485 C   0  0  0  0  0  0  0  0  0  0  0  0
   62.7071   32.5188   50.1740 C   0  0  0  0  0  0  0  0  0  0  0  0
   62.6828   33.4680   51.2091 C   0  0  0  0  0  0  0  0  0  0  0  0
   63.8786   33.9708   51.7315 C   0  0  0  0  0  0  0  0  0  0  0  0
   65.1039   33.5256   51.2323 C   0  0  0  0  0  0  0  0  0  0  0  0
   65.1381   32.5739   50.2130 C   0  0  0  0  0  0  0  0  0  0  0  0
   63.9468   32.0656   49.6881 C   0  0  0  0  0  0  0  0  0  0  0  0
  2  3  2  0
  3  4  1  0
  4  5  2  0
  5 10  1  0
 10 11  1  0
 11 12  1  0
 12 13  2  0
 12 14  1  0
 14 15  1  0
 15 16  1  0
  4  6  1  0
  6  7  2  0
  7  8  1  0
  7  9  1  0
  9  1  1  0
  1 18  1  0
 18 19  1  0
 19 20  1  0
 20 21  1  0
 21 22  1  0
 22 23  1  0
 23 24  1  0
 24 25  2  0
 24 28  1  0
 28 29  2  0
 29 30  1  0
 30 31  2  0
 31 32  1  0
 32 33  2  0
 23 26  1  0
 26 27  1  0
  9  3  1  0
 27 20  1  0
 15 10  2  0
 33 28  1  0
 16 17  1  0
M  CHG 1  11  -1
M  CHG 1  14  -1
M  END
> <UniqueID>
32

> <SMILES>
C=c1c(=Cc2[n-]c(=O)[n-]c2O)cc(C)n1CCCN1CCN(C(=O)c2ccccc2)CC1

> <Energy>
142.83819879860891

> <Genealogy>
C=c1c(=Cc2[n-]c(=O)[n-]c2O)cc(C)n1CCCN1CCN(C(=O)c2ccccc2)CC1 (protonated)
C=c1c(=Cc2[n-]c(=O)[n-]c2O)cc(C)n1CCCN1CCN(C(=O)c2ccccc2)CC1 (3D coordinates assigned)
C=c1c(=Cc2[n-]c(=O)[n-]c2O)cc(C)n1CCCN1CCN(C(=O)c2ccccc2)CC1 (nonaromatic ring conformer: 142.83819879860891 kcal/mol)

> <smiles>
C=c1c(=Cc2[nH]c(=O)[nH]c2O)cc(C)n1CCCN1CCN(C(=O)c2ccccc2)CC1

> <score_type>
oracle

> <origin>
adg

> <m_score__min__energy>
-14.039999999999999

> <m_primary>
energy

> <minimizedAffinity>
-8.80353

> <minimizedRMSD>
2.17745

> <CNNscore>
0.0872134790

> <CNNaffinity>
5.9140281677

> <CNN_VS>
0.5157829523

> <CNNaffinity_variance>
0.2999020517

$$$$
41:0


 33 36  0  0  0  0  0  0  0  0999 V2000
   59.7607   26.6790   47.5253 C   0  0  0  0  0  0  0  0  0  0  0  0
   59.1498   27.2622   46.4821 C   0  0  0  0  0  0  0  0  0  0  0  0
   58.4671   26.6116   45.4496 C   0  0  0  0  0  0  0  0  0  0  0  0
   58.2922   25.2843   45.2912 C   0  0  0  0  0  0  0  0  0  0  0  0
   58.0396   27.6028   44.5767 C   0  0  0  0  0  0  0  0  0  0  0  0
   58.4526   28.8057   45.1117 C   0  0  0  0  0  0  0  0  0  0  0  0
   58.2156   30.1434   44.4796 C   0  0  0  0  0  0  0  0  0  0  0  0
   59.1324   28.6013   46.2630 N   0  0  0  0  0  0  0  0  0  0  0  0
   56.9630   24.6341   45.2552 C   0  0  0  0  0  0  0  0  0  0  0  0
   55.8320   25.2330   45.8391 C   0  0  0  0  0  0  0  0  0  0  0  0
   55.9268   26.4681   46.4714 O   0  0  0  0  0  0  0  0  0  0  0  0
   54.6347   24.5962   45.8043 N   0  0  0  0  0  0  0  0  0  0  0  0
   54.5068   23.3722   45.2307 C   0  0  0  0  0  0  0  0  0  0  0  0
   53.3852   22.8018   45.2073 O   0  0  0  0  0  0  0  0  0  0  0  0
   55.5896   22.7601   44.6868 N   0  0  0  0  0  0  0  0  0  0  0  0
   56.8096   23.3561   44.6929 C   0  0  0  0  0  0  0  0  0  0  0  0
   57.7946   22.7574   44.1825 O   0  0  0  0  0  0  0  0  0  0  0  0
   59.7078   29.6276   47.0912 C   0  0  0  0  0  0  0  0  0  0  0  0
   59.0770   30.0085   48.2835 C   0  0  0  0  0  0  0  0  0  0  0  0
   59.6415   30.9973   49.0950 C   0  0  0  0  0  0  0  0  0  0  0  0
   60.8414   31.6243   48.7196 C   0  0  0  0  0  0  0  0  0  0  0  0
   61.4808   31.2251   47.5344 C   0  0  0  0  0  0  0  0  0  0  0  0
   60.9152   30.2366   46.7237 C   0  0  0  0  0  0  0  0  0  0  0  0
   61.4490   32.6660   49.5766 C   0  0  0  0  0  0  0  0  0  0  0  0
   60.7902   33.7139   49.8254 O   0  0  0  0  0  0  0  0  0  0  0  0
   62.7626   32.5015   50.1456 N   0  0  0  0  0  0  0  0  0  0  0  0
   63.1841   31.1895   50.6639 C   0  0  0  0  0  0  0  0  0  0  0  0
   64.1685   31.3394   51.8382 C   0  0  0  0  0  0  0  0  0  0  0  0
   63.7990   32.5296   52.7656 C   0  0  0  0  0  0  0  0  0  0  0  0
   62.4377   32.2589   53.4486 C   0  0  0  0  0  0  0  0  0  0  0  0
   64.8724   32.6429   53.8684 C   0  0  0  0  0  0  0  0  0  0  0  0
   63.7341   33.8701   51.9586 C   0  0  0  0  0  0  0  0  0  0  0  0
   63.5925   33.6744   50.4394 C   0  0  0  0  0  0  0  0  0  0  0  0
  1  2  2  0
  2  3  1  0
  3  4  2  0
  4  9  1  0
  9 10  2  0
 10 11  1  0
 10 12  1  0
 12 13  1  0
 13 14  2  0
 13 15  1  0
 15 16  1  0
 16 17  2  0
  3  5  1  0
  5  6  2  0
  6  7  1  0
  6  8  1  0
  8 18  1  0
 18 19  2  0
 19 20  1  0
 20 21  2  0
 21 24  1  0
 24 25  2  0
 24 26  1  0
 26 27  1  0
 27 28  1  0
 28 29  1  0
 29 30  1  0
 29 31  1  0
 29 32  1  0
 32 33  1  0
 21 22  1  0
 22 23  2  0
  8  2  1  0
 23 18  1  0
 16  9  1  0
 33 26  1  0
M  CHG 1  11  -1
M  CHG 1  12  -1
M  CHG 1  15  -1
M  END
> <UniqueID>
38

> <SMILES>
C=c1/c(=C/c2c([O-])[n-]c(=O)[n-]c2=O)cc(C)n1-c1ccc(C(=O)N2CCC(C)(C)CC2)cc1

> <Energy>
113.00027303710945

> <Genealogy>
C=c1c(=Cc2c([O-])[n-]c(=O)[n-]c2=O)cc(C)n1-c1ccc(C(=O)N2CCC(C)(C)CC2)cc1 (protonated)
C=c1/c(=C/c2c([O-])[n-]c(=O)[n-]c2=O)cc(C)n1-c1ccc(C(=O)N2CCC(C)(C)CC2)cc1 (cis-trans isomerization)
C=c1/c(=C/c2c([O-])[n-]c(=O)[n-]c2=O)cc(C)n1-c1ccc(C(=O)N2CCC(C)(C)CC2)cc1 (3D coordinates assigned)
C=c1/c(=C/c2c([O-])[n-]c(=O)[n-]c2=O)cc(C)n1-c1ccc(C(=O)N2CCC(C)(C)CC2)cc1 (nonaromatic ring conformer: 113.00027303710945 kcal/mol)

> <smiles>
C=c1c(=Cc2c(O)[nH]c(=O)[nH]c2=O)cc(C)n1-c1ccc(C(=O)N2CCC(C)(C)CC2)cc1

> <score_type>
oracle

> <origin>
adg

> <m_score__min__energy>
-16.109999999999999

> <m_primary>
energy

> <minimizedAffinity>
-9.00004

> <minimizedRMSD>
1.24704

> <CNNscore>
0.0845814422

> <CNNaffinity>
6.2543692589

> <CNN_VS>
0.5290035605

> <CNNaffinity_variance>
0.0186447073

$$$$
49:0


 37 41  0  0  0  0  0  0  0  0999 V2000
   56.7323   28.9405   54.4584 C   0  0  0  0  0  0  0  0  0  0  0  0
   57.2543   29.1511   55.7209 C   0  0  0  0  0  0  0  0  0  0  0  0
   58.6068   29.3519   55.5380 C   0  0  0  0  0  0  0  0  0  0  0  0
   58.8145   29.2826   54.1744 C   0  0  0  0  0  0  0  0  0  0  0  0
   57.6852   29.0231   53.5611 O   0  0  0  0  0  0  0  0  0  0  0  0
   60.1138   29.4296   53.5024 C   0  0  0  0  0  0  0  0  0  0  0  0
   60.2958   29.6028   52.1715 C   0  0  0  0  0  0  0  0  0  0  0  0
   60.6617   28.4343   51.3358 C   0  0  0  0  0  0  0  0  0  0  0  0
   60.8124   27.2918   51.8461 O   0  0  0  0  0  0  0  0  0  0  0  0
   60.8334   28.5813   49.9309 N   0  0  0  0  0  0  0  0  0  0  0  0
   60.7095   29.8466   49.2877 C   0  0  0  0  0  0  0  0  0  0  0  0
   60.8566   29.9118   48.0381 O   0  0  0  0  0  0  0  0  0  0  0  0
   60.4375   31.0344   50.0575 N   0  0  0  0  0  0  0  0  0  0  0  0
   60.2271   30.9321   51.4845 C   0  0  0  0  0  0  0  0  0  0  0  0
   60.0445   31.9849   52.1531 O   0  0  0  0  0  0  0  0  0  0  0  0
   60.4473   32.3504   49.3913 C   0  0  0  0  0  0  0  0  0  0  0  0
   59.0440   32.7637   48.9359 C   0  0  0  0  0  0  0  0  0  0  0  0
   59.0359   33.2691   47.5168 C   0  0  0  0  0  0  0  0  0  0  0  0
   59.6730   34.4778   47.1871 C   0  0  0  0  0  0  0  0  0  0  0  0
   59.6162   34.9686   45.8801 C   0  0  0  0  0  0  0  0  0  0  0  0
   58.9333   34.2530   44.8910 C   0  0  0  0  0  0  0  0  0  0  0  0
   58.3358   33.0292   45.1982 C   0  0  0  0  0  0  0  0  0  0  0  0
   58.3862   32.5362   46.5073 C   0  0  0  0  0  0  0  0  0  0  0  0
   55.1232   30.4091   52.4143 C   0  0  0  0  0  0  0  0  0  0  0  0
   54.5578   29.4626   53.1879 C   0  0  0  0  0  0  0  0  0  0  0  0
   55.3121   28.7112   54.1320 C   0  0  0  0  0  0  0  0  0  0  0  0
   54.5560   27.8153   54.8768 C   0  0  0  0  0  0  0  0  0  0  0  0
   52.9576   27.9732   54.4160 S   0  0  0  0  0  0  0  0  0  0  0  0
   53.1786   29.1402   53.2227 C   0  0  0  0  0  0  0  0  0  0  0  0
   52.1343   29.5963   52.5043 C   0  0  0  0  0  0  0  0  0  0  0  0
   51.1984   30.6516   52.9105 C   0  0  0  0  0  0  0  0  0  0  0  0
   50.3919   30.5825   53.9867 N   0  0  0  0  0  0  0  0  0  0  0  0
   49.8136   31.8034   54.0157 C   0  0  0  0  0  0  0  0  0  0  0  0
   48.9734   32.1336   54.8927 O   0  0  0  0  0  0  0  0  0  0  0  0
   50.2175   32.6464   53.0402 N   0  0  0  0  0  0  0  0  0  0  0  0
   51.1041   31.9045   52.3571 C   0  0  0  0  0  0  0  0  0  0  0  0
   51.8084   32.3591   51.2507 O   0  0  0  0  0  0  0  0  0  0  0  0
 24 25  2  0
 25 26  1  0
 26  1  1  0
  1  2  2  0
  2  3  1  0
  3  4  2  0
  4  6  1  0
  6  7  2  0
  7  8  1  0
  8  9  2  0
  8 10  1  0
 10 11  1  0
 11 12  2  0
 11 13  1  0
 13 16  1  0
 16 17  1  0
 17 18  1  0
 18 19  2  0
 19 20  1  0
 20 21  2  0
 21 22  1  0
 22 23  2  0
 13 14  1  0
 14 15  2  0
  4  5  1  0
 26 27  2  0
 27 28  1  0
 28 29  1  0
 29 30  2  0
 30 31  1  0
 31 32  1  0
 32 33  1  0
 33 34  2  0
 33 35  1  0
 35 36  1  0
 36 37  1  0
 29 25  1  0
 36 31  2  0
  5  1  1  0
 14  7  1  0
 23 18  1  0
M  CHG 1  10  -1
M  CHG 1  32  -1
M  CHG 1  35  -1
M  CHG 1  37  -1
M  END
> <UniqueID>
46

> <SMILES>
C=c1c(-c2ccc(C=C3C(=O)[N-]C(=O)N(CCc4ccccc4)C3=O)o2)csc1=Cc1[n-]c(=O)[n-]c1[O-]

> <Energy>
160.935499166694

> <Genealogy>
C=c1c(-c2ccc(C=C3C(=O)[N-]C(=O)N(CCc4ccccc4)C3=O)o2)csc1=Cc1[n-]c(=O)[n-]c1[O-] (protonated)
C=c1c(-c2ccc(C=C3C(=O)[N-]C(=O)N(CCc4ccccc4)C3=O)o2)csc1=Cc1[n-]c(=O)[n-]c1[O-] (3D coordinates assigned)
C=c1c(-c2ccc(C=C3C(=O)[N-]C(=O)N(CCc4ccccc4)C3=O)o2)csc1=Cc1[n-]c(=O)[n-]c1[O-] (nonaromatic ring conformer: 160.935499166694 kcal/mol)

> <smiles>
C=c1c(-c2ccc(C=C3C(=O)NC(=O)N(CCc4ccccc4)C3=O)o2)csc1=Cc1[nH]c(=O)[nH]c1O

> <score_type>
oracle

> <origin>
adg

> <m_score__min__energy>
-20.16

> <m_primary>
energy

> <minimizedAffinity>
-8.32600

> <minimizedRMSD>
1.16009

> <CNNscore>
0.2523907125

> <CNNaffinity>
6.5266671181

> <CNN_VS>
1.6472702026

> <CNNaffinity_variance>
0.0859099329

$$$$
54:0


 31 34  0  0  0  0  0  0  0  0999 V2000
   59.7739   30.1409   49.1957 C   0  0  0  0  0  0  0  0  0  0  0  0
   58.7843   30.2044   50.1842 C   0  0  0  0  0  0  0  0  0  0  0  0
   59.0265   30.8814   51.3790 C   0  0  0  0  0  0  0  0  0  0  0  0
   60.2599   31.5001   51.5957 C   0  0  0  0  0  0  0  0  0  0  0  0
   61.2675   31.4490   50.6162 C   0  0  0  0  0  0  0  0  0  0  0  0
   61.0120   30.7713   49.4069 C   0  0  0  0  0  0  0  0  0  0  0  0
   61.9401   30.7556   48.4170 F   0  0  0  0  0  0  0  0  0  0  0  0
   60.3520   27.3116   48.5191 C   0  0  0  0  0  0  0  0  0  0  0  0
   59.7403   28.1534   47.6707 C   0  0  0  0  0  0  0  0  0  0  0  0
   59.3590   27.8984   46.3431 C   0  0  0  0  0  0  0  0  0  0  0  0
   59.3260   26.7520   45.6351 C   0  0  0  0  0  0  0  0  0  0  0  0
   58.9561   29.1137   45.8159 C   0  0  0  0  0  0  0  0  0  0  0  0
   59.0421   30.0406   46.8334 C   0  0  0  0  0  0  0  0  0  0  0  0
   58.6792   31.4896   46.7089 C   0  0  0  0  0  0  0  0  0  0  0  0
   59.5078   29.4595   47.9588 N   0  0  0  0  0  0  0  0  0  0  0  0
   58.3496   25.6634   45.8109 C   0  0  0  0  0  0  0  0  0  0  0  0
   58.6697   24.3700   46.0076 N   0  0  0  0  0  0  0  0  0  0  0  0
   57.4763   23.7891   46.2547 C   0  0  0  0  0  0  0  0  0  0  0  0
   57.3566   22.5566   46.4767 O   0  0  0  0  0  0  0  0  0  0  0  0
   56.4237   24.6335   46.2577 N   0  0  0  0  0  0  0  0  0  0  0  0
   56.9975   25.8173   45.9898 C   0  0  0  0  0  0  0  0  0  0  0  0
   56.2990   27.0162   45.9152 O   0  0  0  0  0  0  0  0  0  0  0  0
   62.5381   32.0895   50.8506 N   0  0  0  0  0  0  0  0  0  0  0  0
   63.0484   33.0729   49.8816 C   0  0  0  0  0  0  0  0  0  0  0  0
   64.5656   33.2346   50.0126 C   0  0  0  0  0  0  0  0  0  0  0  0
   64.9736   33.6476   51.4483 C   0  0  0  0  0  0  0  0  0  0  0  0
   64.0683   33.0150   52.5491 C   0  0  0  0  0  0  0  0  0  0  0  0
   63.3169   31.7731   52.0588 C   0  0  0  0  0  0  0  0  0  0  0  0
   66.4326   33.4331   51.6520 N   0  0  0  0  0  0  0  0  0  0  0  0
   67.0110   32.5638   50.6143 C   0  0  0  0  0  0  0  0  0  0  0  0
   67.2291   34.6684   51.7911 C   0  0  0  0  0  0  0  0  0  0  0  0
  8  9  2  0
  9 10  1  0
 10 11  2  0
 11 16  1  0
 16 17  1  0
 17 18  1  0
 18 19  2  0
 18 20  1  0
 20 21  1  0
 21 22  1  0
 10 12  1  0
 12 13  2  0
 13 14  1  0
 13 15  1  0
 15  1  1  0
  1  2  2  0
  2  3  1  0
  3  4  2  0
  4  5  1  0
  5 23  1  0
 23 24  1  0
 24 25  1  0
 25 26  1  0
 26 29  1  0
 29 30  1  0
 29 31  1  0
 26 27  1  0
 27 28  1  0
  5  6  2  0
  6  7  1  0
 15  9  1  0
  6  1  1  0
 21 16  2  0
 28 23  1  0
M  CHG 1  17  -1
M  CHG 1  20  -1
M  CHG 1  22  -1
M  END
> <UniqueID>
50

> <SMILES>
C=c1/c(=C\c2[n-]c(=O)[n-]c2[O-])cc(C)n1-c1cccc(N2CCC(N(C)C)CC2)c1F

> <Energy>
146.02339885470468

> <Genealogy>
C=c1c(=Cc2[n-]c(=O)[n-]c2[O-])cc(C)n1-c1cccc(N2CCC(N(C)C)CC2)c1F (protonated)
C=c1/c(=C\c2[n-]c(=O)[n-]c2[O-])cc(C)n1-c1cccc(N2CCC(N(C)C)CC2)c1F (cis-trans isomerization)
C=c1/c(=C\c2[n-]c(=O)[n-]c2[O-])cc(C)n1-c1cccc(N2CCC(N(C)C)CC2)c1F (3D coordinates assigned)
C=c1/c(=C\c2[n-]c(=O)[n-]c2[O-])cc(C)n1-c1cccc(N2CCC(N(C)C)CC2)c1F (nonaromatic ring conformer: 146.02339885470468 kcal/mol)

> <smiles>
C=c1c(=Cc2[nH]c(=O)[nH]c2O)cc(C)n1-c1cccc(N2CCC(N(C)C)CC2)c1F

> <score_type>
oracle

> <origin>
adg

> <m_score__min__energy>
-16.66

> <m_primary>
energy

> <minimizedAffinity>
-7.41748

> <minimizedRMSD>
2.18795

> <CNNscore>
0.1762976497

> <CNNaffinity>
6.5167961121

> <CNN_VS>
1.1488958597

> <CNNaffinity_variance>
0.0425477959

$$$$
55:0


 33 36  0  0  0  0  0  0  0  0999 V2000
   57.4214   25.0148   47.2638 C   0  0  0  0  0  0  0  0  0  0  0  0
   58.7703   25.0681   47.3042 N   0  0  0  0  0  0  0  0  0  0  0  0
   59.0804   26.0113   46.3888 C   0  0  0  0  0  0  0  0  0  0  0  0
   60.2663   26.3440   46.1292 O   0  0  0  0  0  0  0  0  0  0  0  0
   58.0023   26.5623   45.7894 N   0  0  0  0  0  0  0  0  0  0  0  0
   56.9556   25.9293   46.3461 C   0  0  0  0  0  0  0  0  0  0  0  0
   55.6239   26.1753   46.0321 O   0  0  0  0  0  0  0  0  0  0  0  0
   56.5925   24.1429   48.1532 C   0  0  0  0  0  0  0  0  0  0  0  0
   56.4107   21.2886   45.6308 C   0  0  0  0  0  0  0  0  0  0  0  0
   56.2056   20.1911   46.4828 C   0  0  0  0  0  0  0  0  0  0  0  0
   56.1596   20.3737   47.8674 C   0  0  0  0  0  0  0  0  0  0  0  0
   56.3022   21.6515   48.4113 C   0  0  0  0  0  0  0  0  0  0  0  0
   56.4898   22.7599   47.5703 C   0  0  0  0  0  0  0  0  0  0  0  0
   56.5229   22.5727   46.1781 C   0  0  0  0  0  0  0  0  0  0  0  0
   56.4303   21.1388   44.2047 N   0  0  0  0  0  0  0  0  0  0  0  0
   56.8577   23.5913   43.5868 C   0  0  0  0  0  0  0  0  0  0  0  0
   56.4458   22.1952   43.2353 C   0  0  0  0  0  0  0  0  0  0  0  0
   56.0658   21.9485   42.0592 O   0  0  0  0  0  0  0  0  0  0  0  0
   57.9719   27.5591   44.7196 C   0  0  0  0  0  0  0  0  0  0  0  0
   57.7604   28.9355   45.2990 C   0  0  0  0  0  0  0  0  0  0  0  0
   56.5819   29.3871   45.3104 O   0  0  0  0  0  0  0  0  0  0  0  0
   58.8472   29.7433   45.8233 N   0  0  0  0  0  0  0  0  0  0  0  0
   58.5776   31.0968   46.3361 C   0  0  0  0  0  0  0  0  0  0  0  0
   59.3523   31.3296   47.6337 C   0  0  0  0  0  0  0  0  0  0  0  0
   60.7771   30.9954   47.4822 N   0  0  0  0  0  0  0  0  0  0  0  0
   61.2390   30.3103   46.2662 C   0  0  0  0  0  0  0  0  0  0  0  0
   60.2320   29.2430   45.8193 C   0  0  0  0  0  0  0  0  0  0  0  0
   61.7295   31.4801   48.4576 C   0  0  0  0  0  0  0  0  0  0  0  0
   61.6122   31.1271   49.8176 C   0  0  0  0  0  0  0  0  0  0  0  0
   62.5379   31.5947   50.7548 C   0  0  0  0  0  0  0  0  0  0  0  0
   63.5932   32.4125   50.3502 C   0  0  0  0  0  0  0  0  0  0  0  0
   63.7257   32.7675   49.0059 C   0  0  0  0  0  0  0  0  0  0  0  0
   62.8020   32.3051   48.0629 C   0  0  0  0  0  0  0  0  0  0  0  0
 16 17  1  0
 17 18  2  0
 17 15  1  0
 15  9  1  0
  9 10  2  0
 10 11  1  0
 11 12  2  0
 12 13  1  0
 13  8  1  0
  8  1  1  0
  1  2  1  0
  2  3  1  0
  3  4  2  0
  3  5  1  0
  5 19  1  0
 19 20  1  0
 20 21  2  0
 20 22  1  0
 22 23  1  0
 23 24  1  0
 24 25  1  0
 25 28  1  0
 28 29  2  0
 29 30  1  0
 30 31  2  0
 31 32  1  0
 32 33  2  0
 25 26  1  0
 26 27  1  0
  5  6  1  0
  6  7  1  0
 13 14  2  0
 14  9  1  0
  6  1  2  0
 27 22  1  0
 33 28  1  0
M  CHG 1   2  -1
M  CHG 1   7  -1
M  CHG 1  15  -1
M  END
> <UniqueID>
51

> <SMILES>
CC(=O)[N-]c1cccc(Cc2[n-]c(=O)n(CC(=O)N3CCN(c4ccccc4)CC3)c2[O-])c1

> <Energy>
97.95600582834817

> <Genealogy>
CC(=O)[N-]c1cccc(Cc2[n-]c(=O)n(CC(=O)N3CCN(c4ccccc4)CC3)c2[O-])c1 (protonated)
CC(=O)[N-]c1cccc(Cc2[n-]c(=O)n(CC(=O)N3CCN(c4ccccc4)CC3)c2[O-])c1 (3D coordinates assigned)
CC(=O)[N-]c1cccc(Cc2[n-]c(=O)n(CC(=O)N3CCN(c4ccccc4)CC3)c2[O-])c1 (nonaromatic ring conformer: 97.95600582834817 kcal/mol)

> <smiles>
CC(=O)Nc1cccc(Cc2[nH]c(=O)n(CC(=O)N3CCN(c4ccccc4)CC3)c2O)c1

> <score_type>
oracle

> <origin>
adg

> <m_score__min__energy>
-14.369999999999999

> <m_primary>
energy

> <minimizedAffinity>
-6.13152

> <minimizedRMSD>
0.74575

> <CNNscore>
0.0745592713

> <CNNaffinity>
5.7495741844

> <CNN_VS>
0.4286840558

> <CNNaffinity_variance>
0.1572713703

$$$$
86:0


 29 31  0  0  0  0  0  0  0  0999 V2000
   59.2919   29.2734   47.7747 C   0  0  0  0  0  0  0  0  0  0  0  0
   58.7887   29.2996   46.5318 C   0  0  0  0  0  0  0  0  0  0  0  0
   58.7937   28.2649   45.5856 C   0  0  0  0  0  0  0  0  0  0  0  0
   59.1005   26.9587   45.7023 C   0  0  0  0  0  0  0  0  0  0  0  0
   58.3852   28.8362   44.3922 C   0  0  0  0  0  0  0  0  0  0  0  0
   58.0827   30.1590   44.6540 C   0  0  0  0  0  0  0  0  0  0  0  0
   57.6647   31.1324   43.5933 C   0  0  0  0  0  0  0  0  0  0  0  0
   58.3189   30.4332   45.9632 N   0  0  0  0  0  0  0  0  0  0  0  0
   58.1481   25.8777   46.0027 C   0  0  0  0  0  0  0  0  0  0  0  0
   58.4945   24.6244   46.3508 N   0  0  0  0  0  0  0  0  0  0  0  0
   57.3133   24.0496   46.6610 C   0  0  0  0  0  0  0  0  0  0  0  0
   57.2193   22.8483   47.0269 O   0  0  0  0  0  0  0  0  0  0  0  0
   56.2410   24.8645   46.5624 N   0  0  0  0  0  0  0  0  0  0  0  0
   56.7902   26.0219   46.1585 C   0  0  0  0  0  0  0  0  0  0  0  0
   56.0669   27.1871   45.9429 O   0  0  0  0  0  0  0  0  0  0  0  0
   58.2181   31.6416   46.6424 O   0  0  0  0  0  0  0  0  0  0  0  0
   57.6438   32.8266   46.1041 C   0  0  0  0  0  0  0  0  0  0  0  0
   58.7113   33.8665   45.9327 C   0  0  0  0  0  0  0  0  0  0  0  0
   59.0258   34.2366   44.7716 O   0  0  0  0  0  0  0  0  0  0  0  0
   59.3652   34.4763   47.0551 N   0  0  0  0  0  0  0  0  0  0  0  0
   60.4517   33.9275   47.8125 C   0  0  0  0  0  0  0  0  0  0  0  0
   60.4560   33.9443   49.2164 C   0  0  0  0  0  0  0  0  0  0  0  0
   61.5202   33.3802   49.9256 C   0  0  0  0  0  0  0  0  0  0  0  0
   62.5926   32.7704   49.2485 C   0  0  0  0  0  0  0  0  0  0  0  0
   62.5653   32.7317   47.8401 C   0  0  0  0  0  0  0  0  0  0  0  0
   61.4984   33.2969   47.1333 C   0  0  0  0  0  0  0  0  0  0  0  0
   63.7189   32.1775   50.0177 C   0  0  0  0  0  0  0  0  0  0  0  0
   63.5500   31.0901   50.6345 O   0  0  0  0  0  0  0  0  0  0  0  0
   65.0653   32.8340   50.0860 C   0  0  0  0  0  0  0  0  0  0  0  0
  1  2  2  0
  2  3  1  0
  3  4  2  0
  4  9  1  0
  9 10  1  0
 10 11  1  0
 11 12  2  0
 11 13  1  0
 13 14  1  0
 14 15  1  0
  3  5  1  0
  5  6  2  0
  6  7  1  0
  6  8  1  0
  8 16  1  0
 16 17  1  0
 17 18  1  0
 18 19  2  0
 18 20  1  0
 20 21  1  0
 21 22  2  0
 22 23  1  0
 23 24  2  0
 24 27  1  0
 27 28  2  0
 27 29  1  0
 24 25  1  0
 25 26  2  0
  8  2  1  0
 26 21  1  0
 14  9  2  0
M  CHG 1  10  -1
M  CHG 1  13  -1
M  CHG 1  15  -1
M  CHG 1  20  -1
M  END
> <UniqueID>
81

> <SMILES>
C=c1/c(=C\c2[n-]c(=O)[n-]c2[O-])cc(C)n1OCC(=O)[N-]c1ccc(C(C)=O)cc1

> <Energy>
121.96507351875417

> <Genealogy>
C=c1c(=Cc2[n-]c(=O)[n-]c2[O-])cc(C)n1OCC(=O)[N-]c1ccc(C(C)=O)cc1 (protonated)
C=c1/c(=C\c2[n-]c(=O)[n-]c2[O-])cc(C)n1OCC(=O)[N-]c1ccc(C(C)=O)cc1 (cis-trans isomerization)
C=c1/c(=C\c2[n-]c(=O)[n-]c2[O-])cc(C)n1OCC(=O)[N-]c1ccc(C(C)=O)cc1 (3D coordinates assigned)
C=c1/c(=C\c2[n-]c(=O)[n-]c2[O-])cc(C)n1OCC(=O)[N-]c1ccc(C(C)=O)cc1 (optimized conformer: 121.96507351875417 kcal/mol)

> <smiles>
C=c1c(=Cc2[nH]c(=O)[nH]c2O)cc(C)n1OCC(=O)Nc1ccc(C(C)=O)cc1

> <score_type>
oracle

> <origin>
adg

> <m_score__min__energy>
-17.91

> <m_primary>
energy

> <minimizedAffinity>
-8.02223

> <minimizedRMSD>
1.10614

> <CNNscore>
0.4239223301

> <CNNaffinity>
6.7713532448

> <CNN_VS>
2.8705277443

> <CNNaffinity_variance>
0.0155913634

$$$$
87:0


 32 35  0  0  0  0  0  0  0  0999 V2000
   57.6341   30.2079   54.6640 N   0  0  0  0  0  0  0  0  0  0  0  0
   57.8007   30.8525   55.3893 H   0  0  0  0  0  0  0  0  0  0  0  0
   57.5632   29.3609   55.1608 H   0  0  0  0  0  0  0  0  0  0  0  0
   54.7907   29.4298   55.2229 C   0  0  0  0  0  0  0  0  0  0  0  0
   55.2272   29.9224   54.0535 C   0  0  0  0  0  0  0  0  0  0  0  0
   54.4096   30.2880   52.9752 C   0  0  0  0  0  0  0  0  0  0  0  0
   53.0747   30.1019   52.8658 C   0  0  0  0  0  0  0  0  0  0  0  0
   55.2412   30.9144   52.0570 C   0  0  0  0  0  0  0  0  0  0  0  0
   56.5114   30.8968   52.5775 C   0  0  0  0  0  0  0  0  0  0  0  0
   57.6974   31.5480   51.9254 C   0  0  0  0  0  0  0  0  0  0  0  0
   56.5206   30.2644   53.7821 N   0  0  0  0  0  0  0  0  0  0  0  0
   52.2840   30.3302   51.6339 C   0  0  0  0  0  0  0  0  0  0  0  0
   52.2832   29.5357   50.5542 N   0  0  0  0  0  0  0  0  0  0  0  0
   51.5708   30.2361   49.6418 C   0  0  0  0  0  0  0  0  0  0  0  0
   51.3581   29.8078   48.4772 O   0  0  0  0  0  0  0  0  0  0  0  0
   51.1162   31.4356   50.0734 N   0  0  0  0  0  0  0  0  0  0  0  0
   51.5921   31.4792   51.3270 C   0  0  0  0  0  0  0  0  0  0  0  0
   51.3977   32.5585   52.1779 O   0  0  0  0  0  0  0  0  0  0  0  0
   58.4929   29.0810   54.3596 C   0  0  0  0  0  0  0  0  0  0  0  0
   57.9422   27.7831   54.2991 C   0  0  0  0  0  0  0  0  0  0  0  0
   58.7575   26.6652   54.0947 C   0  0  0  0  0  0  0  0  0  0  0  0
   60.1317   26.8293   53.9185 C   0  0  0  0  0  0  0  0  0  0  0  0
   60.6932   28.1036   53.9239 C   0  0  0  0  0  0  0  0  0  0  0  0
   59.8849   29.2443   54.0948 C   0  0  0  0  0  0  0  0  0  0  0  0
   60.5308   30.5787   54.0998 C   0  0  0  0  0  0  0  0  0  0  0  0
   60.5875   31.2105   55.1917 O   0  0  0  0  0  0  0  0  0  0  0  0
   61.0759   31.1786   52.8954 N   0  0  0  0  0  0  0  0  0  0  0  0
   61.2604   32.6485   52.8770 C   0  0  0  0  0  0  0  0  0  0  0  0
   62.1568   33.1056   51.7180 C   0  0  0  0  0  0  0  0  0  0  0  0
   61.7907   32.4499   50.5206 O   0  0  0  0  0  0  0  0  0  0  0  0
   62.1144   31.0762   50.6290 C   0  0  0  0  0  0  0  0  0  0  0  0
   61.2104   30.3824   51.6574 C   0  0  0  0  0  0  0  0  0  0  0  0
  4  5  2  0
  5  6  1  0
  6  7  2  0
  7 12  1  0
 12 13  1  0
 13 14  1  0
 14 15  2  0
 14 16  1  0
 16 17  1  0
 17 18  1  0
  6  8  1  0
  8  9  2  0
  9 10  1  0
  9 11  1  0
 11  1  1  0
  1 19  1  0
 19 20  2  0
 20 21  1  0
 21 22  2  0
 22 23  1  0
 23 24  2  0
 24 25  1  0
 25 26  2  0
 25 27  1  0
 27 28  1  0
 28 29  1  0
 29 30  1  0
 30 31  1  0
 31 32  1  0
 11  5  1  0
 24 19  1  0
 32 27  1  0
 17 12  2  0
  1  2  1  0
  1  3  1  0
M  CHG 1   1   1
M  CHG 1  13  -1
M  CHG 1  16  -1
M  CHG 1  18  -1
M  END
> <UniqueID>
82

> <SMILES>
C=c1c(=Cc2[n-]c(=O)[n-]c2[O-])cc(C)n1[NH2+]c1ccccc1C(=O)N1CCOCC1

> <Energy>
136.9666108250101

> <Genealogy>
C=c1c(=Cc2[n-]c(=O)[n-]c2[O-])cc(C)n1[NH2+]c1ccccc1C(=O)N1CCOCC1 (protonated)
C=c1c(=Cc2[n-]c(=O)[n-]c2[O-])cc(C)n1[NH2+]c1ccccc1C(=O)N1CCOCC1 (3D coordinates assigned)
C=c1c(=Cc2[n-]c(=O)[n-]c2[O-])cc(C)n1[NH2+]c1ccccc1C(=O)N1CCOCC1 (nonaromatic ring conformer: 136.9666108250101 kcal/mol)

> <smiles>
C=c1c(=Cc2[nH]c(=O)[nH]c2O)cc(C)n1Nc1ccccc1C(=O)N1CCOCC1

> <score_type>
oracle

> <origin>
adg

> <m_score__min__energy>
-15.390000000000001

> <m_primary>
energy

> <minimizedAffinity>
-4.66608

> <minimizedRMSD>
1.51546

> <CNNscore>
0.0762835890

> <CNNaffinity>
4.3166317940

> <CNN_VS>
0.3292881548

> <CNNaffinity_variance>
1.0890984535

$$$$
0:0


 22 23  0  0  0  0  0  0  0  0999 V2000
   56.8233   29.6618   52.9325 C   0  0  0  0  0  0  0  0  0  0  0  0
   58.2243   29.5450   52.9350 C   0  0  0  0  0  0  0  0  0  0  0  0
   59.0280   30.6469   52.6231 C   0  0  0  0  0  0  0  0  0  0  0  0
   58.4525   31.8859   52.2945 C   0  0  0  0  0  0  0  0  0  0  0  0
   57.0506   31.9994   52.2936 C   0  0  0  0  0  0  0  0  0  0  0  0
   56.2481   30.8977   52.6060 C   0  0  0  0  0  0  0  0  0  0  0  0
   55.9613   28.5514   53.2470 N   0  0  0  0  0  0  0  0  0  0  0  0
   55.1874   28.3921   52.6597 H   0  0  0  0  0  0  0  0  0  0  0  0
   54.6832   26.5930   54.9355 C   0  0  0  0  0  0  0  0  0  0  0  0
   56.1911   27.4743   54.5890 S   0  0  0  0  0  0  0  0  0  0  0  0
   57.2555   26.4758   54.2315 O   0  0  0  0  0  0  0  0  0  0  0  0
   56.6408   28.2440   55.7990 O   0  0  0  0  0  0  0  0  0  0  0  0
   59.3238   33.0467   51.9683 C   0  0  0  0  0  0  0  0  0  0  0  0
   59.0895   34.1625   52.5117 O   0  0  0  0  0  0  0  0  0  0  0  0
   60.4482   32.9310   50.9688 C   0  0  0  0  0  0  0  0  0  0  0  0
   59.9860   33.1926   49.5657 C   0  0  0  0  0  0  0  0  0  0  0  0
   60.1480   34.3609   48.9213 N   0  0  0  0  0  0  0  0  0  0  0  0
   59.6432   34.1102   47.6925 C   0  0  0  0  0  0  0  0  0  0  0  0
   59.6085   34.9806   46.7847 O   0  0  0  0  0  0  0  0  0  0  0  0
   59.1809   32.8540   47.5154 N   0  0  0  0  0  0  0  0  0  0  0  0
   59.4124   32.2847   48.7084 C   0  0  0  0  0  0  0  0  0  0  0  0
   59.1096   30.9619   49.0070 O   0  0  0  0  0  0  0  0  0  0  0  0
  9 10  1  0
 10 11  2  0
 10 12  2  0
 10  7  1  0
  7  1  1  0
  1  2  2  0
  2  3  1  0
  3  4  2  0
  4 13  1  0
 13 14  2  0
 13 15  1  0
 15 16  1  0
 16 17  1  0
 17 18  1  0
 18 19  2  0
 18 20  1  0
 20 21  1  0
 21 22  1  0
  4  5  1  0
  5  6  2  0
  6  1  1  0
 21 16  2  0
  7  8  1  0
M  CHG 1  17  -1
M  CHG 1  20  -1
M  CHG 1  22  -1
M  END
> <UniqueID>
1

> <SMILES>
CS(=O)(=O)Nc1ccc(C(=O)Cc2[n-]c(=O)[n-]c2[O-])cc1

> <Energy>
61.079064027985495

> <Genealogy>
CS(=O)(=O)Nc1ccc(C(=O)Cc2[n-]c(=O)[n-]c2[O-])cc1 (protonated)
CS(=O)(=O)Nc1ccc(C(=O)Cc2[n-]c(=O)[n-]c2[O-])cc1 (3D coordinates assigned)
CS(=O)(=O)Nc1ccc(C(=O)Cc2[n-]c(=O)[n-]c2[O-])cc1 (optimized conformer: 61.079064027985495 kcal/mol)

> <smiles>
CS(=O)(=O)Nc1ccc(C(=O)Cc2[nH]c(=O)[nH]c2O)cc1

> <score_type>
oracle

> <origin>
adg

> <m_score__min__energy>
-15.08

> <m_primary>
energy

> <minimizedAffinity>
-4.56991

> <minimizedRMSD>
7.17037

> <CNNscore>
0.6265020370

> <CNNaffinity>
5.2710714340

> <CNN_VS>
3.3023369312

> <CNNaffinity_variance>
0.7926009297

$$$$
49:0


 28 31  0  0  0  0  0  0  0  0999 V2000
   58.2125   27.2639   43.2853 C   0  0  0  0  0  0  0  0  0  0  0  0
   58.2671   28.1186   44.3237 C   0  0  0  0  0  0  0  0  0  0  0  0
   57.8247   29.4360   44.0982 C   0  0  0  0  0  0  0  0  0  0  0  0
   58.0810   30.4620   45.0170 C   0  0  0  0  0  0  0  0  0  0  0  0
   57.6213   31.8632   44.7017 C   0  0  0  0  0  0  0  0  0  0  0  0
   58.7942   30.1701   46.1969 C   0  0  0  0  0  0  0  0  0  0  0  0
   59.1808   28.8506   46.4606 C   0  0  0  0  0  0  0  0  0  0  0  0
   58.8631   27.7922   45.5843 C   0  0  0  0  0  0  0  0  0  0  0  0
   59.1312   26.5356   46.0242 C   0  0  0  0  0  0  0  0  0  0  0  0
   59.1061   31.2170   47.1965 C   0  0  0  0  0  0  0  0  0  0  0  0
   58.1923   31.6362   47.9565 O   0  0  0  0  0  0  0  0  0  0  0  0
   60.4377   31.7470   47.3184 N   0  0  0  0  0  0  0  0  0  0  0  0
   61.4454   31.2738   48.1883 C   0  0  0  0  0  0  0  0  0  0  0  0
   61.2893   30.4196   49.2224 N   0  0  0  0  0  0  0  0  0  0  0  0
   62.3261   30.7397   50.0388 C   0  0  0  0  0  0  0  0  0  0  0  0
   63.0158   31.8165   49.5069 C   0  0  0  0  0  0  0  0  0  0  0  0
   62.4554   32.1063   48.3271 N   0  0  0  0  0  0  0  0  0  0  0  0
   62.2277   33.3411   47.5992 C   0  0  0  0  0  0  0  0  0  0  0  0
   60.8817   33.0747   46.8644 C   0  0  0  0  0  0  0  0  0  0  0  0
   63.9883   32.6293   50.1861 C   0  0  0  0  0  0  0  0  0  0  0  0
   64.7722   33.2829   50.7315 N   0  0  0  0  0  0  0  0  0  0  0  0
   58.1825   25.4077   46.0780 C   0  0  0  0  0  0  0  0  0  0  0  0
   58.5663   24.1200   46.1282 N   0  0  0  0  0  0  0  0  0  0  0  0
   57.4013   23.4514   46.2724 C   0  0  0  0  0  0  0  0  0  0  0  0
   57.3459   22.1963   46.3451 O   0  0  0  0  0  0  0  0  0  0  0  0
   56.3043   24.2336   46.3456 N   0  0  0  0  0  0  0  0  0  0  0  0
   56.8145   25.4695   46.2342 C   0  0  0  0  0  0  0  0  0  0  0  0
   56.0521   26.6283   46.3074 O   0  0  0  0  0  0  0  0  0  0  0  0
  1  2  2  0
  2  3  1  0
  3  4  2  0
  4  5  1  0
  4  6  1  0
  6 10  1  0
 10 11  2  0
 10 12  1  0
 12 13  1  0
 13 14  2  0
 14 15  1  0
 15 16  2  0
 16 20  1  0
 20 21  3  0
 16 17  1  0
 17 18  1  0
 18 19  1  0
  6  7  2  0
  7  8  1  0
  8  9  2  0
  9 22  1  0
 22 23  1  0
 23 24  1  0
 24 25  2  0
 24 26  1  0
 26 27  1  0
 27 28  1  0
  8  2  1  0
 27 22  2  0
 19 12  1  0
 17 13  1  0
M  CHG 1  23  -1
M  CHG 1  26  -1
M  CHG 1  28  -1
M  END
> <UniqueID>
48

> <SMILES>
C=c1cc(C)c(C(=O)N2CCn3c(C#N)cnc32)c/c1=C/c1[n-]c(=O)[n-]c1[O-]

> <Energy>
161.48853773023652

> <Genealogy>
C=c1cc(C)c(C(=O)N2CCn3c(C#N)cnc32)cc1=Cc1[n-]c(=O)[n-]c1[O-] (protonated)
C=c1cc(C)c(C(=O)N2CCn3c(C#N)cnc32)c/c1=C/c1[n-]c(=O)[n-]c1[O-] (cis-trans isomerization)
C=c1cc(C)c(C(=O)N2CCn3c(C#N)cnc32)c/c1=C/c1[n-]c(=O)[n-]c1[O-] (3D coordinates assigned)
C=c1cc(C)c(C(=O)N2CCn3c(C#N)cnc32)c/c1=C/c1[n-]c(=O)[n-]c1[O-] (nonaromatic ring conformer: 161.48853773023652 kcal/mol)

> <smiles>
C=c1cc(C)c(C(=O)N2CCn3c(C#N)cnc32)cc1=Cc1[nH]c(=O)[nH]c1O

> <score_type>
oracle

> <origin>
adg

> <m_score__min__energy>
-16.68

> <m_primary>
energy

> <minimizedAffinity>
-7.90822

> <minimizedRMSD>
1.99548

> <CNNscore>
0.1272382289

> <CNNaffinity>
6.4581093788

> <CNN_VS>
0.8217183948

> <CNNaffinity_variance>
0.0631412193

$$$$
55:0


 34 38  0  0  0  0  0  0  0  0999 V2000
   59.0857   27.7488   44.3227 C   0  0  0  0  0  0  0  0  0  0  0  0
   59.2332   27.2097   45.5442 C   0  0  0  0  0  0  0  0  0  0  0  0
   58.7573   25.9534   45.9516 C   0  0  0  0  0  0  0  0  0  0  0  0
   58.0724   25.0627   45.1989 C   0  0  0  0  0  0  0  0  0  0  0  0
   59.1309   25.8175   47.2823 C   0  0  0  0  0  0  0  0  0  0  0  0
   59.7956   26.9724   47.6300 C   0  0  0  0  0  0  0  0  0  0  0  0
   59.8725   27.8227   46.5787 N   0  0  0  0  0  0  0  0  0  0  0  0
   60.3376   27.2261   48.9767 C   0  0  0  0  0  0  0  0  0  0  0  0
   60.8248   26.2633   49.6281 O   0  0  0  0  0  0  0  0  0  0  0  0
   60.2761   28.5370   49.5671 N   0  0  0  0  0  0  0  0  0  0  0  0
   61.2065   28.9087   50.6326 C   0  0  0  0  0  0  0  0  0  0  0  0
   61.5484   30.3955   50.5113 C   0  0  0  0  0  0  0  0  0  0  0  0
   60.3418   31.2680   50.5118 N   0  0  0  0  0  0  0  0  0  0  0  0
   59.0510   30.5841   50.2548 C   0  0  0  0  0  0  0  0  0  0  0  0
   59.1649   29.4396   49.2360 C   0  0  0  0  0  0  0  0  0  0  0  0
   60.4477   32.5683   49.7956 C   0  0  0  0  0  0  0  0  0  0  0  0
   61.7791   32.8274   49.0866 C   0  0  0  0  0  0  0  0  0  0  0  0
   62.0118   34.0403   49.9822 C   0  0  0  0  0  0  0  0  0  0  0  0
   60.6819   33.7902   50.6863 C   0  0  0  0  0  0  0  0  0  0  0  0
   56.7134   24.5460   45.4846 C   0  0  0  0  0  0  0  0  0  0  0  0
   56.3023   23.2730   45.3449 N   0  0  0  0  0  0  0  0  0  0  0  0
   55.0020   23.3164   45.7049 C   0  0  0  0  0  0  0  0  0  0  0  0
   54.2642   22.2978   45.7065 O   0  0  0  0  0  0  0  0  0  0  0  0
   54.5552   24.5393   46.0617 N   0  0  0  0  0  0  0  0  0  0  0  0
   55.6494   25.3040   45.9144 C   0  0  0  0  0  0  0  0  0  0  0  0
   55.6731   26.6698   46.1678 O   0  0  0  0  0  0  0  0  0  0  0  0
   60.6880   29.0497   46.5329 C   0  0  0  0  0  0  0  0  0  0  0  0
   59.8233   30.2436   46.2208 C   0  0  0  0  0  0  0  0  0  0  0  0
   60.2237   31.5298   46.6218 C   0  0  0  0  0  0  0  0  0  0  0  0
   59.4428   32.6444   46.3028 C   0  0  0  0  0  0  0  0  0  0  0  0
   58.2590   32.4850   45.5760 C   0  0  0  0  0  0  0  0  0  0  0  0
   57.1936   34.0099   45.1382 Br  0  0  0  0  0  0  0  0  0  0  0  0
   57.8538   31.2101   45.1711 C   0  0  0  0  0  0  0  0  0  0  0  0
   58.6318   30.0933   45.4910 C   0  0  0  0  0  0  0  0  0  0  0  0
  1  2  2  0
  2  3  1  0
  3  4  2  0
  4 20  1  0
 20 21  1  0
 21 22  1  0
 22 23  2  0
 22 24  1  0
 24 25  1  0
 25 26  1  0
  3  5  1  0
  5  6  2  0
  6  8  1  0
  8  9  2  0
  8 10  1  0
 10 11  1  0
 11 12  1  0
 12 13  1  0
 13 16  1  0
 16 17  1  0
 17 18  1  0
 18 19  1  0
 13 14  1  0
 14 15  1  0
  6  7  1  0
  7 27  1  0
 27 28  1  0
 28 29  2  0
 29 30  1  0
 30 31  2  0
 31 32  1  0
 31 33  1  0
 33 34  2  0
  7  2  1  0
 34 28  1  0
 25 20  2  0
 15 10  1  0
 19 16  1  0
M  CHG 1  21  -1
M  CHG 1  24  -1
M  CHG 1  26  -1
M  END
> <UniqueID>
54

> <SMILES>
C=c1/c(=C/c2[n-]c(=O)[n-]c2[O-])cc(C(=O)N2CCN(C3CCC3)CC2)n1Cc1ccc(Br)cc1

> <Energy>
202.94862768231576

> <Genealogy>
C=c1c(=Cc2[n-]c(=O)[n-]c2[O-])cc(C(=O)N2CCN(C3CCC3)CC2)n1Cc1ccc(Br)cc1 (protonated)
C=c1/c(=C/c2[n-]c(=O)[n-]c2[O-])cc(C(=O)N2CCN(C3CCC3)CC2)n1Cc1ccc(Br)cc1 (cis-trans isomerization)
C=c1/c(=C/c2[n-]c(=O)[n-]c2[O-])cc(C(=O)N2CCN(C3CCC3)CC2)n1Cc1ccc(Br)cc1 (3D coordinates assigned)
C=c1/c(=C/c2[n-]c(=O)[n-]c2[O-])cc(C(=O)N2CCN(C3CCC3)CC2)n1Cc1ccc(Br)cc1 (nonaromatic ring conformer: 202.94862768231576 kcal/mol)

> <smiles>
C=c1c(=Cc2[nH]c(=O)[nH]c2O)cc(C(=O)N2CCN(C3CCC3)CC2)n1Cc1ccc(Br)cc1

> <score_type>
oracle

> <origin>
adg

> <m_score__min__energy>
-17.23

> <m_primary>
energy

> <minimizedAffinity>
-6.74969

> <minimizedRMSD>
0.94141

> <CNNscore>
0.1532836854

> <CNNaffinity>
6.7275795937

> <CNN_VS>
1.0312281847

> <CNNaffinity_variance>
0.1381548792

$$$$
58:0


 28 31  0  0  0  0  0  0  0  0999 V2000
   59.9532   29.5690   45.0638 C   0  0  0  0  0  0  0  0  0  0  0  0
   59.5006   29.5850   46.3276 C   0  0  0  0  0  0  0  0  0  0  0  0
   59.3746   28.4933   47.2015 C   0  0  0  0  0  0  0  0  0  0  0  0
   59.4493   27.1686   46.9731 C   0  0  0  0  0  0  0  0  0  0  0  0
   59.1126   29.0272   48.4535 C   0  0  0  0  0  0  0  0  0  0  0  0
   59.0113   30.3938   48.2920 C   0  0  0  0  0  0  0  0  0  0  0  0
   58.7370   31.3690   49.3942 C   0  0  0  0  0  0  0  0  0  0  0  0
   59.2391   30.7316   47.0047 N   0  0  0  0  0  0  0  0  0  0  0  0
   58.3278   26.2203   47.0648 C   0  0  0  0  0  0  0  0  0  0  0  0
   58.3739   25.0374   47.7073 N   0  0  0  0  0  0  0  0  0  0  0  0
   57.1858   24.4716   47.4014 C   0  0  0  0  0  0  0  0  0  0  0  0
   56.8412   23.3421   47.8370 O   0  0  0  0  0  0  0  0  0  0  0  0
   56.4017   25.2054   46.5825 N   0  0  0  0  0  0  0  0  0  0  0  0
   57.1465   26.3022   46.3689 C   0  0  0  0  0  0  0  0  0  0  0  0
   56.7567   27.3534   45.5499 O   0  0  0  0  0  0  0  0  0  0  0  0
   59.3010   32.0740   46.4916 C   0  0  0  0  0  0  0  0  0  0  0  0
   58.2841   32.5175   45.6297 C   0  0  0  0  0  0  0  0  0  0  0  0
   57.2772   31.6796   45.2740 F   0  0  0  0  0  0  0  0  0  0  0  0
   58.2852   33.8277   45.1486 C   0  0  0  0  0  0  0  0  0  0  0  0
   59.2988   34.7074   45.5258 C   0  0  0  0  0  0  0  0  0  0  0  0
   60.3173   34.2814   46.3806 C   0  0  0  0  0  0  0  0  0  0  0  0
   60.3407   32.9623   46.8703 C   0  0  0  0  0  0  0  0  0  0  0  0
   61.4573   32.5451   47.7561 C   0  0  0  0  0  0  0  0  0  0  0  0
   61.6697   33.0719   48.9846 N   0  0  0  0  0  0  0  0  0  0  0  0
   62.7736   32.4039   49.3621 C   0  0  0  0  0  0  0  0  0  0  0  0
   63.3442   32.5719   50.4708 O   0  0  0  0  0  0  0  0  0  0  0  0
   63.1863   31.5662   48.4489 O   0  0  0  0  0  0  0  0  0  0  0  0
   62.3898   31.6255   47.4271 N   0  0  0  0  0  0  0  0  0  0  0  0
  1  2  2  0
  2  3  1  0
  3  4  2  0
  4  9  1  0
  9 10  1  0
 10 11  1  0
 11 12  2  0
 11 13  1  0
 13 14  1  0
 14 15  1  0
  3  5  1  0
  5  6  2  0
  6  7  1  0
  6  8  1  0
  8 16  1  0
 16 17  2  0
 17 18  1  0
 17 19  1  0
 19 20  2  0
 20 21  1  0
 21 22  2  0
 22 23  1  0
 23 24  2  0
 24 25  1  0
 25 26  2  0
 25 27  1  0
 27 28  1  0
  8  2  1  0
 22 16  1  0
 28 23  1  0
 14  9  2  0
M  CHG 1  10  -1
M  CHG 1  13  -1
M  CHG 1  15  -1
M  CHG 1  28  -1
M  END
> <UniqueID>
57

> <SMILES>
C=c1/c(=C\c2[n-]c(=O)[n-]c2[O-])cc(C)n1-c1c(F)cccc1-c1nc(=O)o[n-]1

> <Energy>
153.5914053785725

> <Genealogy>
C=c1c(=Cc2[n-]c(=O)[n-]c2[O-])cc(C)n1-c1c(F)cccc1-c1nc(=O)o[n-]1 (protonated)
C=c1/c(=C\c2[n-]c(=O)[n-]c2[O-])cc(C)n1-c1c(F)cccc1-c1nc(=O)o[n-]1 (cis-trans isomerization)
C=c1/c(=C\c2[n-]c(=O)[n-]c2[O-])cc(C)n1-c1c(F)cccc1-c1nc(=O)o[n-]1 (3D coordinates assigned)
C=c1/c(=C\c2[n-]c(=O)[n-]c2[O-])cc(C)n1-c1c(F)cccc1-c1nc(=O)o[n-]1 (optimized conformer: 153.5914053785725 kcal/mol)

> <smiles>
C=c1c(=Cc2[nH]c(=O)[nH]c2O)cc(C)n1-c1c(F)cccc1-c1nc(=O)o[nH]1

> <score_type>
oracle

> <origin>
adg

> <m_score__min__energy>
-16.41

> <m_primary>
energy

> <minimizedAffinity>
-7.99183

> <minimizedRMSD>
1.24798

> <CNNscore>
0.4119806290

> <CNNaffinity>
6.8654365540

> <CNN_VS>
2.8284268379

> <CNNaffinity_variance>
0.0718986318

$$$$
87:0


 34 37  0  0  0  0  0  0  0  0999 V2000
   59.4044   33.3780   48.4047 C   0  0  0  0  0  0  0  0  0  0  0  0
   58.9706   32.0491   48.5464 C   0  0  0  0  0  0  0  0  0  0  0  0
   58.5325   31.3282   47.4324 C   0  0  0  0  0  0  0  0  0  0  0  0
   58.5112   31.9284   46.1668 C   0  0  0  0  0  0  0  0  0  0  0  0
   58.9363   33.2563   46.0222 C   0  0  0  0  0  0  0  0  0  0  0  0
   59.3755   33.9782   47.1352 C   0  0  0  0  0  0  0  0  0  0  0  0
   57.9682   30.9989   44.7716 S   0  0  0  0  0  0  0  0  0  0  0  0
   58.1677   31.7918   43.5102 O   0  0  0  0  0  0  0  0  0  0  0  0
   56.5017   30.7071   44.9300 O   0  0  0  0  0  0  0  0  0  0  0  0
   58.8658   29.5037   44.6825 N   0  0  0  0  0  0  0  0  0  0  0  0
   57.9626   28.3459   44.4780 C   0  0  0  0  0  0  0  0  0  0  0  0
   57.7150   27.5550   45.7734 C   0  0  0  0  0  0  0  0  0  0  0  0
   58.9752   27.0534   46.3783 N   0  0  0  0  0  0  0  0  0  0  0  0
   60.1515   27.9127   46.0823 C   0  0  0  0  0  0  0  0  0  0  0  0
   59.7421   29.3731   45.8645 C   0  0  0  0  0  0  0  0  0  0  0  0
   59.2312   25.6444   46.0119 C   0  0  0  0  0  0  0  0  0  0  0  0
   57.9378   24.8953   45.8171 C   0  0  0  0  0  0  0  0  0  0  0  0
   57.4999   24.5741   44.5208 C   0  0  0  0  0  0  0  0  0  0  0  0
   56.2908   23.8983   44.3333 C   0  0  0  0  0  0  0  0  0  0  0  0
   55.5082   23.5437   45.4364 C   0  0  0  0  0  0  0  0  0  0  0  0
   55.9300   23.8684   46.7283 C   0  0  0  0  0  0  0  0  0  0  0  0
   55.1478   23.5205   47.8239 O   0  0  0  0  0  0  0  0  0  0  0  0
   57.1421   24.5436   46.9202 C   0  0  0  0  0  0  0  0  0  0  0  0
   59.8424   34.1709   49.6082 C   0  0  0  0  0  0  0  0  0  0  0  0
   59.7636   33.3337   50.8852 C   0  0  0  0  0  0  0  0  0  0  0  0
   61.0590   33.3178   51.5565 N   0  0  0  0  0  0  0  0  0  0  0  0
   62.8937   31.9516   51.9304 O   0  0  0  0  0  0  0  0  0  0  0  0
   62.2111   32.6012   51.0952 C   0  0  0  0  0  0  0  0  0  0  0  0
   62.6022   32.5739   49.6729 C   0  0  0  0  0  0  0  0  0  0  0  0
   62.3295   31.4555   48.8714 C   0  0  0  0  0  0  0  0  0  0  0  0
   62.6967   31.4686   47.5243 C   0  0  0  0  0  0  0  0  0  0  0  0
   63.2993   32.5649   46.9921 N   0  0  0  0  0  0  0  0  0  0  0  0
   63.5565   33.6710   47.7404 C   0  0  0  0  0  0  0  0  0  0  0  0
   63.2047   33.6988   49.0927 C   0  0  0  0  0  0  0  0  0  0  0  0
 27 28  2  0
 28 26  1  0
 26 25  1  0
 25 24  1  0
 24  1  1  0
  1  2  2  0
  2  3  1  0
  3  4  2  0
  4  7  1  0
  7  8  2  0
  7  9  2  0
  7 10  1  0
 10 11  1  0
 11 12  1  0
 12 13  1  0
 13 16  1  0
 16 17  1  0
 17 18  2  0
 18 19  1  0
 19 20  2  0
 20 21  1  0
 21 22  1  0
 21 23  2  0
 13 14  1  0
 14 15  1  0
  4  5  1  0
  5  6  2  0
 28 29  1  0
 29 30  2  0
 30 31  1  0
 31 32  2  0
 32 33  1  0
 33 34  2  0
  6  1  1  0
 34 29  1  0
 15 10  1  0
 23 17  1  0
M  CHG 1  22  -1
M  CHG 1  26  -1
M  END
> <UniqueID>
82

> <SMILES>
O=C([N-]CCc1ccc(S(=O)(=O)N2CCN(Cc3cccc([O-])c3)CC2)cc1)c1ccncc1

> <Energy>
76.83189340587927

> <Genealogy>
O=C([N-]CCc1ccc(S(=O)(=O)N2CCN(Cc3cccc([O-])c3)CC2)cc1)c1ccncc1 (protonated)
O=C([N-]CCc1ccc(S(=O)(=O)N2CCN(Cc3cccc([O-])c3)CC2)cc1)c1ccncc1 (3D coordinates assigned)
O=C([N-]CCc1ccc(S(=O)(=O)N2CCN(Cc3cccc([O-])c3)CC2)cc1)c1ccncc1 (nonaromatic ring conformer: 76.83189340587927 kcal/mol)

> <smiles>
O=C(NCCc1ccc(S(=O)(=O)N2CCN(Cc3cccc(O)c3)CC2)cc1)c1ccncc1

> <score_type>
oracle

> <origin>
adg

> <m_score__min__energy>
-14.44

> <m_primary>
energy

> <minimizedAffinity>
-7.80406

> <minimizedRMSD>
1.21110

> <CNNscore>
0.3626502454

> <CNNaffinity>
6.8672313690

> <CNN_VS>
2.4904031754

> <CNNaffinity_variance>
0.1154775545

$$$$
4:0


 31 34  0  0  0  0  0  0  0  0999 V2000
   57.0749   30.2357   44.0290 C   0  0  0  0  0  0  0  0  0  0  0  0
   56.7367   29.9624   42.8462 O   0  0  0  0  0  0  0  0  0  0  0  0
   57.4781   26.2230   46.9339 C   0  0  0  0  0  0  0  0  0  0  0  0
   57.9085   27.2900   46.2249 C   0  0  0  0  0  0  0  0  0  0  0  0
   57.0448   28.2029   45.5789 C   0  0  0  0  0  0  0  0  0  0  0  0
   57.7060   29.1923   44.8579 C   0  0  0  0  0  0  0  0  0  0  0  0
   59.3597   28.9416   44.9914 S   0  0  0  0  0  0  0  0  0  0  0  0
   59.2656   27.5866   45.9828 C   0  0  0  0  0  0  0  0  0  0  0  0
   60.3456   26.9437   46.4367 C   0  0  0  0  0  0  0  0  0  0  0  0
   54.6679   25.5128   45.8499 O   0  0  0  0  0  0  0  0  0  0  0  0
   55.7584   24.6499   45.8786 C   0  0  0  0  0  0  0  0  0  0  0  0
   55.7048   23.3646   45.4900 N   0  0  0  0  0  0  0  0  0  0  0  0
   56.9531   22.9231   45.7529 C   0  0  0  0  0  0  0  0  0  0  0  0
   57.3144   21.7389   45.5301 O   0  0  0  0  0  0  0  0  0  0  0  0
   57.7817   23.8488   46.2841 N   0  0  0  0  0  0  0  0  0  0  0  0
   57.0211   24.9561   46.3374 C   0  0  0  0  0  0  0  0  0  0  0  0
   53.8436   25.2151   45.5185 H   0  0  0  0  0  0  0  0  0  0  0  0
   56.7787   31.5381   44.5517 N   0  0  0  0  0  0  0  0  0  0  0  0
   57.5804   32.2494   45.2902 C   0  0  0  0  0  0  0  0  0  0  0  0
   57.9238   31.8422   46.5457 N   0  0  0  0  0  0  0  0  0  0  0  0
   58.7773   32.5563   47.3269 C   0  0  0  0  0  0  0  0  0  0  0  0
   59.3269   33.7570   46.8554 C   0  0  0  0  0  0  0  0  0  0  0  0
   59.0052   34.1804   45.5584 C   0  0  0  0  0  0  0  0  0  0  0  0
   58.1310   33.4267   44.7723 C   0  0  0  0  0  0  0  0  0  0  0  0
   60.2896   34.5427   47.7023 C   0  0  0  0  0  0  0  0  0  0  0  0
   61.3955   33.6499   48.1950 C   0  0  0  0  0  0  0  0  0  0  0  0
   62.2564   33.0176   47.2810 C   0  0  0  0  0  0  0  0  0  0  0  0
   63.3065   32.2177   47.7416 C   0  0  0  0  0  0  0  0  0  0  0  0
   63.5089   32.0475   49.1139 C   0  0  0  0  0  0  0  0  0  0  0  0
   62.6649   32.6828   50.0283 C   0  0  0  0  0  0  0  0  0  0  0  0
   61.6135   33.4856   49.5733 C   0  0  0  0  0  0  0  0  0  0  0  0
 10 11  1  0
 11 12  1  0
 12 13  1  0
 13 14  2  0
 13 15  1  0
 15 16  1  0
 16  3  1  0
  3  4  2  0
  4  5  1  0
  5  6  2  0
  6  1  1  0
  1  2  2  0
  1 18  1  0
 18 19  2  0
 19 20  1  0
 20 21  1  0
 21 22  2  0
 22 25  1  0
 25 26  1  0
 26 27  2  0
 27 28  1  0
 28 29  2  0
 29 30  1  0
 30 31  2  0
 22 23  1  0
 23 24  2  0
  6  7  1  0
  7  8  1  0
  8  9  2  0
 16 11  2  0
  8  4  1  0
 24 19  1  0
 31 26  1  0
 10 17  1  0
M  CHG 1  12  -1
M  CHG 1  15  -1
M  CHG 1  20  -1
M  END
> <UniqueID>
5

> <SMILES>
C=c1sc(C(=O)N=c2ccc(Cc3ccccc3)c[n-]2)c/c1=C\c1[n-]c(=O)[n-]c1O

> <Energy>
117.71467638379752

> <Genealogy>
C=c1sc(C(=O)N=c2ccc(Cc3ccccc3)c[n-]2)cc1=Cc1[n-]c(=O)[n-]c1O (protonated)
C=c1sc(C(=O)N=c2ccc(Cc3ccccc3)c[n-]2)c/c1=C\c1[n-]c(=O)[n-]c1O (cis-trans isomerization)
C=c1sc(C(=O)N=c2ccc(Cc3ccccc3)c[n-]2)c/c1=C\c1[n-]c(=O)[n-]c1O (3D coordinates assigned)
C=c1sc(C(=O)N=c2ccc(Cc3ccccc3)c[n-]2)c/c1=C\c1[n-]c(=O)[n-]c1O (optimized conformer: 117.71467638379752 kcal/mol)

> <smiles>
C=c1sc(C(=O)N=c2ccc(Cc3ccccc3)c[nH]2)cc1=Cc1[nH]c(=O)[nH]c1O

> <score_type>
oracle

> <origin>
adg

> <m_score__min__energy>
-16.100000000000001

> <m_primary>
energy

> <minimizedAffinity>
-10.18044

> <minimizedRMSD>
0.86774

> <CNNscore>
0.7128558159

> <CNNaffinity>
7.3626785278

> <CNN_VS>
5.2485280037

> <CNNaffinity_variance>
0.0334534459

$$$$
9:0


 28 31  0  0  0  0  0  0  0  0999 V2000
   59.2818   32.7633   45.9815 C   0  0  0  0  0  0  0  0  0  0  0  0
   58.9511   33.5947   45.0910 O   0  0  0  0  0  0  0  0  0  0  0  0
   60.0709   33.2073   47.1011 N   0  0  0  0  0  0  0  0  0  0  0  0
   61.3085   33.9757   46.8617 C   0  0  0  0  0  0  0  0  0  0  0  0
   62.4028   33.5903   47.8721 C   0  0  0  0  0  0  0  0  0  0  0  0
   61.8212   33.5120   49.2529 C   0  0  0  0  0  0  0  0  0  0  0  0
   60.4951   33.2654   49.4939 C   0  0  0  0  0  0  0  0  0  0  0  0
   60.3002   32.9860   50.7943 N   0  0  0  0  0  0  0  0  0  0  0  0
   61.4817   33.0165   51.3959 N   0  0  0  0  0  0  0  0  0  0  0  0
   62.4282   33.3295   50.4859 C   0  0  0  0  0  0  0  0  0  0  0  0
   59.4424   33.2604   48.4314 C   0  0  0  0  0  0  0  0  0  0  0  0
   57.9562   28.6718   45.6633 C   0  0  0  0  0  0  0  0  0  0  0  0
   59.1887   28.9867   46.2681 C   0  0  0  0  0  0  0  0  0  0  0  0
   59.6187   30.3105   46.3708 C   0  0  0  0  0  0  0  0  0  0  0  0
   58.8337   31.3566   45.8656 C   0  0  0  0  0  0  0  0  0  0  0  0
   57.5974   31.0539   45.2737 C   0  0  0  0  0  0  0  0  0  0  0  0
   57.1588   29.7291   45.1672 C   0  0  0  0  0  0  0  0  0  0  0  0
   55.9300   29.4861   44.5642 O   0  0  0  0  0  0  0  0  0  0  0  0
   56.2010   26.8491   45.8867 N   0  0  0  0  0  0  0  0  0  0  0  0
   57.5329   27.2478   45.5706 C   0  0  0  0  0  0  0  0  0  0  0  0
   58.3581   26.3660   45.2053 O   0  0  0  0  0  0  0  0  0  0  0  0
   55.9414   25.9019   45.8188 H   0  0  0  0  0  0  0  0  0  0  0  0
   63.8669   33.3495   50.8024 C   0  0  0  0  0  0  0  0  0  0  0  0
   64.7789   32.5176   50.1334 C   0  0  0  0  0  0  0  0  0  0  0  0
   66.1359   32.5885   50.4584 C   0  0  0  0  0  0  0  0  0  0  0  0
   66.5721   33.4905   51.4289 C   0  0  0  0  0  0  0  0  0  0  0  0
   65.6428   34.3212   52.0561 C   0  0  0  0  0  0  0  0  0  0  0  0
   64.3254   34.2366   51.7280 N   0  0  0  0  0  0  0  0  0  0  0  0
 19 20  1  0
 20 21  2  0
 20 12  1  0
 12 13  2  0
 13 14  1  0
 14 15  2  0
 15  1  1  0
  1  2  2  0
  1  3  1  0
  3  4  1  0
  4  5  1  0
  5  6  1  0
  6  7  1  0
  7  8  2  0
  8  9  1  0
  9 10  1  0
 10 23  1  0
 23 24  2  0
 24 25  1  0
 25 26  2  0
 26 27  1  0
 27 28  2  0
  7 11  1  0
 15 16  1  0
 16 17  2  0
 17 18  1  0
 17 12  1  0
 11  3  1  0
 10  6  2  0
 28 23  1  0
 19 22  1  0
M  CHG 1   9  -1
M  CHG 1  18  -1
M  CHG 1  19  -1
M  END
> <UniqueID>
10

> <SMILES>
[NH-]C(=O)c1ccc(C(=O)N2CCc3c(n[n-]c3-c3ccccn3)C2)cc1[O-]

> <Energy>
89.90430535699389

> <Genealogy>
[NH-]C(=O)c1ccc(C(=O)N2CCc3c(n[n-]c3-c3ccccn3)C2)cc1[O-] (protonated)
[NH-]C(=O)c1ccc(C(=O)N2CCc3c(n[n-]c3-c3ccccn3)C2)cc1[O-] (3D coordinates assigned)
[NH-]C(=O)c1ccc(C(=O)N2CCc3c(n[n-]c3-c3ccccn3)C2)cc1[O-] (nonaromatic ring conformer: 89.90430535699389 kcal/mol)

> <smiles>
NC(=O)c1ccc(C(=O)N2CCc3c(n[nH]c3-c3ccccn3)C2)cc1O

> <score_type>
oracle

> <origin>
adg

> <m_score__min__energy>
-15.17

> <m_primary>
energy

> <minimizedAffinity>
-8.64369

> <minimizedRMSD>
1.04490

> <CNNscore>
0.3313292265

> <CNNaffinity>
6.4282956123

> <CNN_VS>
2.1298820972

> <CNNaffinity_variance>
0.0395893268

$$$$
37:0


 33 35  0  0  0  0  0  0  0  0999 V2000
   58.7658   26.7163   46.0151 C   0  0  0  0  0  0  0  0  0  0  0  0
   59.7479   25.8550   45.5044 C   0  0  0  0  0  0  0  0  0  0  0  0
   60.9442   25.6638   46.2001 C   0  0  0  0  0  0  0  0  0  0  0  0
   61.1634   26.3165   47.4157 C   0  0  0  0  0  0  0  0  0  0  0  0
   60.1773   27.1561   47.9570 C   0  0  0  0  0  0  0  0  0  0  0  0
   58.9825   27.3582   47.2459 C   0  0  0  0  0  0  0  0  0  0  0  0
   60.4040   27.8604   49.2384 C   0  0  0  0  0  0  0  0  0  0  0  0
   60.6733   27.1827   50.2675 O   0  0  0  0  0  0  0  0  0  0  0  0
   60.3294   29.2947   49.3340 N   0  0  0  0  0  0  0  0  0  0  0  0
   60.8296   30.1395   48.2405 C   0  0  0  0  0  0  0  0  0  0  0  0
   61.3218   31.4833   48.7904 C   0  0  0  0  0  0  0  0  0  0  0  0
   60.2578   32.1937   49.5382 N   0  0  0  0  0  0  0  0  0  0  0  0
   59.4035   31.3137   50.3861 C   0  0  0  0  0  0  0  0  0  0  0  0
   60.0011   29.9190   50.6196 C   0  0  0  0  0  0  0  0  0  0  0  0
   59.6209   32.5815   48.8422 H   0  0  0  0  0  0  0  0  0  0  0  0
   60.9783   33.4714   50.4912 S   0  0  0  0  0  0  0  0  0  0  0  0
   61.3357   32.9495   51.8555 O   0  0  0  0  0  0  0  0  0  0  0  0
   60.0089   34.6120   50.6392 O   0  0  0  0  0  0  0  0  0  0  0  0
   62.4664   34.0599   49.7070 C   0  0  0  0  0  0  0  0  0  0  0  0
   57.4754   26.9323   45.2678 C   0  0  0  0  0  0  0  0  0  0  0  0
   56.8400   28.1393   45.6905 O   0  0  0  0  0  0  0  0  0  0  0  0
   58.0420   32.0707   44.7277 C   0  0  0  0  0  0  0  0  0  0  0  0
   58.8125   31.3094   45.6200 C   0  0  0  0  0  0  0  0  0  0  0  0
   58.4300   30.0070   45.9508 C   0  0  0  0  0  0  0  0  0  0  0  0
   57.2758   29.4374   45.3775 C   0  0  0  0  0  0  0  0  0  0  0  0
   56.5306   30.1876   44.4563 C   0  0  0  0  0  0  0  0  0  0  0  0
   55.3982   29.6377   43.8672 O   0  0  0  0  0  0  0  0  0  0  0  0
   56.9170   31.4905   44.1263 C   0  0  0  0  0  0  0  0  0  0  0  0
   58.9140   34.3767   45.1669 C   0  0  0  0  0  0  0  0  0  0  0  0
   58.4524   33.4335   44.3317 C   0  0  0  0  0  0  0  0  0  0  0  0
   59.5161   34.1287   46.4911 C   0  0  0  0  0  0  0  0  0  0  0  0
   58.7852   34.1611   47.5142 O   0  0  0  0  0  0  0  0  0  0  0  0
   60.8584   33.7918   46.6279 O   0  0  0  0  0  0  0  0  0  0  0  0
 29 31  1  0
 31 32  2  0
 31 33  1  0
 29 30  2  0
 30 22  1  0
 22 23  2  0
 23 24  1  0
 24 25  2  0
 25 21  1  0
 21 20  1  0
 20  1  1  0
  1  2  2  0
  2  3  1  0
  3  4  2  0
  4  5  1  0
  5  7  1  0
  7  8  2  0
  7  9  1  0
  9 10  1  0
 10 11  1  0
 11 12  1  0
 12 16  1  0
 16 17  2  0
 16 18  2  0
 16 19  1  0
 12 13  1  0
 13 14  1  0
  5  6  2  0
 25 26  1  0
 26 27  1  0
 26 28  2  0
 28 22  1  0
  6  1  1  0
 14  9  1  0
 12 15  1  0
M  CHG 1  12   1
M  CHG 1  27  -1
M  CHG 1  33  -1
M  END
> <UniqueID>
33

> <SMILES>
CS(=O)(=O)[NH+]1CCN(C(=O)c2cccc(COc3ccc(/C=C\C(=O)[O-])cc3[O-])c2)CC1

> <Energy>
68.90196319380419

> <Genealogy>
CS(=O)(=O)[NH+]1CCN(C(=O)c2cccc(COc3ccc(C=CC(=O)[O-])cc3[O-])c2)CC1 (protonated)
CS(=O)(=O)[NH+]1CCN(C(=O)c2cccc(COc3ccc(/C=C\C(=O)[O-])cc3[O-])c2)CC1 (cis-trans isomerization)
CS(=O)(=O)[NH+]1CCN(C(=O)c2cccc(COc3ccc(/C=C\C(=O)[O-])cc3[O-])c2)CC1 (3D coordinates assigned)
CS(=O)(=O)[NH+]1CCN(C(=O)c2cccc(COc3ccc(/C=C\C(=O)[O-])cc3[O-])c2)CC1 (nonaromatic ring conformer: 68.90196319380419 kcal/mol)

> <smiles>
CS(=O)(=O)N1CCN(C(=O)c2cccc(COc3ccc(C=CC(=O)O)cc3O)c2)CC1

> <score_type>
oracle

> <origin>
adg

> <m_score__min__energy>
-14.380000000000001

> <m_primary>
energy

> <minimizedAffinity>
-4.54102

> <minimizedRMSD>
1.22027

> <CNNscore>
0.4343872070

> <CNNaffinity>
6.0397925377

> <CNN_VS>
2.6236085892

> <CNNaffinity_variance>
0.2998679578

$$$$
48:0


 32 34  0  0  0  0  0  0  0  0999 V2000
   59.2701   29.1840   45.8214 C   0  0  0  0  0  0  0  0  0  0  0  0
   58.7717   30.1294   44.9196 C   0  0  0  0  0  0  0  0  0  0  0  0
   58.4808   31.4320   45.3378 C   0  0  0  0  0  0  0  0  0  0  0  0
   57.8529   32.5693   44.1485 Cl  0  0  0  0  0  0  0  0  0  0  0  0
   58.7006   31.8068   46.6803 C   0  0  0  0  0  0  0  0  0  0  0  0
   59.2451   30.8678   47.5718 C   0  0  0  0  0  0  0  0  0  0  0  0
   59.5331   29.5673   47.1483 C   0  0  0  0  0  0  0  0  0  0  0  0
   60.1110   28.7033   48.0206 F   0  0  0  0  0  0  0  0  0  0  0  0
   59.5740   27.8658   45.3455 N   0  0  0  0  0  0  0  0  0  0  0  0
   57.8042   26.1804   44.8441 N   0  0  0  0  0  0  0  0  0  0  0  0
   58.8623   26.6702   45.6855 C   0  0  0  0  0  0  0  0  0  0  0  0
   59.1996   26.0395   46.7227 O   0  0  0  0  0  0  0  0  0  0  0  0
   57.5844   26.6895   44.0306 H   0  0  0  0  0  0  0  0  0  0  0  0
   56.7069   22.5776   44.9027 C   0  0  0  0  0  0  0  0  0  0  0  0
   55.5176   22.6907   45.6308 C   0  0  0  0  0  0  0  0  0  0  0  0
   55.0832   23.9353   46.0893 C   0  0  0  0  0  0  0  0  0  0  0  0
   55.8393   25.0819   45.8340 C   0  0  0  0  0  0  0  0  0  0  0  0
   55.3896   26.3142   46.2983 O   0  0  0  0  0  0  0  0  0  0  0  0
   57.0486   24.9884   45.1237 C   0  0  0  0  0  0  0  0  0  0  0  0
   57.4682   23.7343   44.6452 C   0  0  0  0  0  0  0  0  0  0  0  0
   56.9194   20.8385   43.1180 C   0  0  0  0  0  0  0  0  0  0  0  0
   57.0931   21.3061   44.4515 O   0  0  0  0  0  0  0  0  0  0  0  0
   58.4228   33.2096   47.1617 C   0  0  0  0  0  0  0  0  0  0  0  0
   59.6576   34.0644   47.0335 C   0  0  0  0  0  0  0  0  0  0  0  0
   59.6433   35.0207   46.2101 O   0  0  0  0  0  0  0  0  0  0  0  0
   60.8420   33.8254   47.8244 N   0  0  0  0  0  0  0  0  0  0  0  0
   62.0460   33.3248   47.1331 C   0  0  0  0  0  0  0  0  0  0  0  0
   63.3144   33.5720   47.9529 C   0  0  0  0  0  0  0  0  0  0  0  0
   63.1381   33.0404   49.2933 N   0  0  0  0  0  0  0  0  0  0  0  0
   61.9132   33.2721   49.9810 C   0  0  0  0  0  0  0  0  0  0  0  0
   61.7854   32.8956   51.1754 O   0  0  0  0  0  0  0  0  0  0  0  0
   60.7950   33.9970   49.2902 C   0  0  0  0  0  0  0  0  0  0  0  0
 21 22  1  0
 22 14  1  0
 14 15  2  0
 15 16  1  0
 16 17  2  0
 17 18  1  0
 17 19  1  0
 19 10  1  0
 10 11  1  0
 11 12  2  0
 11  9  1  0
  9  1  1  0
  1  2  2  0
  2  3  1  0
  3  4  1  0
  3  5  2  0
  5 23  1  0
 23 24  1  0
 24 25  2  0
 24 26  1  0
 26 27  1  0
 27 28  1  0
 28 29  1  0
 29 30  1  0
 30 31  2  0
 30 32  1  0
  5  6  1  0
  6  7  2  0
  7  8  1  0
 19 20  2  0
 20 14  1  0
  7  1  1  0
 32 26  1  0
 10 13  1  0
M  CHG 1   9  -1
M  CHG 1  18  -1
M  CHG 1  29  -1
M  END
> <UniqueID>
44

> <SMILES>
COc1ccc([O-])c(NC(=O)[N-]c2cc(Cl)c(CC(=O)N3CC[N-]C(=O)C3)cc2F)c1

> <Energy>
59.39684054803425

> <Genealogy>
COc1ccc([O-])c(NC(=O)[N-]c2cc(Cl)c(CC(=O)N3CC[N-]C(=O)C3)cc2F)c1 (protonated)
COc1ccc([O-])c(NC(=O)[N-]c2cc(Cl)c(CC(=O)N3CC[N-]C(=O)C3)cc2F)c1 (3D coordinates assigned)
COc1ccc([O-])c(NC(=O)[N-]c2cc(Cl)c(CC(=O)N3CC[N-]C(=O)C3)cc2F)c1 (nonaromatic ring conformer: 59.39684054803425 kcal/mol)

> <smiles>
COc1ccc(O)c(NC(=O)Nc2cc(Cl)c(CC(=O)N3CCNC(=O)C3)cc2F)c1

> <score_type>
oracle

> <origin>
adg

> <m_score__min__energy>
-14.640000000000001

> <m_primary>
energy

> <minimizedAffinity>
-8.15609

> <minimizedRMSD>
0.86478

> <CNNscore>
0.2752708793

> <CNNaffinity>
7.0876469612

> <CNN_VS>
1.9510228634

> <CNNaffinity_variance>
0.0316474549

$$$$
54:0


 29 31  0  0  0  0  0  0  0  0999 V2000
   59.5293   30.4885   50.0693 C   0  0  0  0  0  0  0  0  0  0  0  0
   60.1346   31.7499   49.9453 C   0  0  0  0  0  0  0  0  0  0  0  0
   59.7170   32.8133   50.7480 C   0  0  0  0  0  0  0  0  0  0  0  0
   58.7039   32.6257   51.6904 C   0  0  0  0  0  0  0  0  0  0  0  0
   58.1123   31.3636   51.8521 C   0  0  0  0  0  0  0  0  0  0  0  0
   58.5310   30.2973   51.0393 C   0  0  0  0  0  0  0  0  0  0  0  0
   59.9672   29.3433   49.1948 C   0  0  0  0  0  0  0  0  0  0  0  0
   58.8571   28.8537   48.3811 N   0  0  0  0  0  0  0  0  0  0  0  0
   58.1304   27.9095   46.3920 O   0  0  0  0  0  0  0  0  0  0  0  0
   58.8212   28.8049   46.9476 C   0  0  0  0  0  0  0  0  0  0  0  0
   59.6104   29.7533   46.0859 C   0  0  0  0  0  0  0  0  0  0  0  0
   58.9225   31.0884   45.9827 C   0  0  0  0  0  0  0  0  0  0  0  0
   59.4458   32.2121   46.6424 C   0  0  0  0  0  0  0  0  0  0  0  0
   58.8014   33.4465   46.5412 C   0  0  0  0  0  0  0  0  0  0  0  0
   57.6385   33.5492   45.7751 C   0  0  0  0  0  0  0  0  0  0  0  0
   57.1448   32.4544   45.1373 N   0  0  0  0  0  0  0  0  0  0  0  0
   57.7555   31.2415   45.2204 C   0  0  0  0  0  0  0  0  0  0  0  0
   56.9930   31.1615   52.8363 C   0  0  0  0  0  0  0  0  0  0  0  0
   55.6960   31.3021   52.1742 N   0  0  0  0  0  0  0  0  0  0  0  0
   54.7705   30.2146   52.0940 C   0  0  0  0  0  0  0  0  0  0  0  0
   55.0323   29.1152   52.6556 O   0  0  0  0  0  0  0  0  0  0  0  0
   55.4539   32.1681   51.7734 H   0  0  0  0  0  0  0  0  0  0  0  0
   53.5510   30.3824   51.3662 N   0  0  0  0  0  0  0  0  0  0  0  0
   52.2619   29.8862   51.8307 C   0  0  0  0  0  0  0  0  0  0  0  0
   51.4461   31.0091   52.3893 C   0  0  0  0  0  0  0  0  0  0  0  0
   50.7385   30.9901   53.5701 C   0  0  0  0  0  0  0  0  0  0  0  0
   50.1864   32.2496   53.6461 C   0  0  0  0  0  0  0  0  0  0  0  0
   50.5560   32.9695   52.5695 N   0  0  0  0  0  0  0  0  0  0  0  0
   51.3279   32.2144   51.8039 N   0  0  0  0  0  0  0  0  0  0  0  0
  9 10  2  0
 10 11  1  0
 11 12  1  0
 12 13  2  0
 13 14  1  0
 14 15  2  0
 15 16  1  0
 16 17  2  0
 10  8  1  0
  8  7  1  0
  7  1  1  0
  1  2  2  0
  2  3  1  0
  3  4  2  0
  4  5  1  0
  5 18  1  0
 18 19  1  0
 19 20  1  0
 20 21  2  0
 20 23  1  0
 23 24  1  0
 24 25  1  0
 25 26  1  0
 26 27  2  0
 27 28  1  0
 28 29  1  0
  5  6  2  0
 17 12  1  0
  6  1  1  0
 29 25  2  0
 19 22  1  0
M  CHG 1   8  -1
M  CHG 1  23  -1
M  CHG 1  28  -1
M  END
> <UniqueID>
49

> <SMILES>
O=C(Cc1cccnc1)[N-]Cc1cccc(CNC(=O)[N-]Cc2cc[n-]n2)c1

> <Energy>
70.1975219621583

> <Genealogy>
O=C(Cc1cccnc1)[N-]Cc1cccc(CNC(=O)[N-]Cc2cc[n-]n2)c1 (protonated)
O=C(Cc1cccnc1)[N-]Cc1cccc(CNC(=O)[N-]Cc2cc[n-]n2)c1 (3D coordinates assigned)
O=C(Cc1cccnc1)[N-]Cc1cccc(CNC(=O)[N-]Cc2cc[n-]n2)c1 (optimized conformer: 70.1975219621583 kcal/mol)

> <smiles>
O=C(Cc1cccnc1)NCc1cccc(CNC(=O)NCc2cc[nH]n2)c1

> <score_type>
oracle

> <origin>
adg

> <m_score__min__energy>
-14.56

> <m_primary>
energy

> <minimizedAffinity>
-7.23096

> <minimizedRMSD>
2.38660

> <CNNscore>
0.6168380976

> <CNNaffinity>
6.2128090858

> <CNN_VS>
3.8322973251

> <CNNaffinity_variance>
0.0099167759

$$$$
55:0


 34 37  0  0  0  0  0  0  0  0999 V2000
   60.4333   27.5461   49.5416 C   0  0  0  0  0  0  0  0  0  0  0  0
   60.4138   28.5790   48.6855 C   0  0  0  0  0  0  0  0  0  0  0  0
   60.0792   28.5273   47.3247 C   0  0  0  0  0  0  0  0  0  0  0  0
   59.9781   27.4831   46.4764 C   0  0  0  0  0  0  0  0  0  0  0  0
   59.8971   29.8357   46.9206 C   0  0  0  0  0  0  0  0  0  0  0  0
   60.2163   30.6355   47.9960 C   0  0  0  0  0  0  0  0  0  0  0  0
   60.5412   29.8772   49.0728 N   0  0  0  0  0  0  0  0  0  0  0  0
   60.1889   32.1109   47.9385 C   0  0  0  0  0  0  0  0  0  0  0  0
   59.1332   32.7169   47.6180 O   0  0  0  0  0  0  0  0  0  0  0  0
   61.3492   32.8651   48.3081 N   0  0  0  0  0  0  0  0  0  0  0  0
   61.3418   33.6075   49.5733 C   0  0  0  0  0  0  0  0  0  0  0  0
   62.6817   34.3204   49.8129 C   0  0  0  0  0  0  0  0  0  0  0  0
   63.9081   33.3938   49.6023 C   0  0  0  0  0  0  0  0  0  0  0  0
   63.7350   32.3815   48.4334 C   0  0  0  0  0  0  0  0  0  0  0  0
   62.5758   32.7562   47.5137 C   0  0  0  0  0  0  0  0  0  0  0  0
   64.2639   32.6831   50.8974 C   0  0  0  0  0  0  0  0  0  0  0  0
   63.3338   32.3943   51.7001 O   0  0  0  0  0  0  0  0  0  0  0  0
   65.6309   32.3812   51.2629 N   0  0  0  0  0  0  0  0  0  0  0  0
   66.7644   32.9084   50.4956 C   0  0  0  0  0  0  0  0  0  0  0  0
   65.8788   31.5727   52.4598 C   0  0  0  0  0  0  0  0  0  0  0  0
   58.7937   26.6243   46.3091 C   0  0  0  0  0  0  0  0  0  0  0  0
   58.7841   25.2858   46.4529 N   0  0  0  0  0  0  0  0  0  0  0  0
   57.5468   24.9344   46.0460 C   0  0  0  0  0  0  0  0  0  0  0  0
   57.1475   23.7410   46.0461 O   0  0  0  0  0  0  0  0  0  0  0  0
   56.7780   25.9606   45.6219 N   0  0  0  0  0  0  0  0  0  0  0  0
   57.5883   27.0186   45.7812 C   0  0  0  0  0  0  0  0  0  0  0  0
   57.2382   28.3178   45.4344 O   0  0  0  0  0  0  0  0  0  0  0  0
   60.7845   30.3620   50.4437 C   0  0  0  0  0  0  0  0  0  0  0  0
   59.5214   30.8251   51.1373 C   0  0  0  0  0  0  0  0  0  0  0  0
   58.3947   29.9929   51.2965 C   0  0  0  0  0  0  0  0  0  0  0  0
   57.2358   30.4808   51.9060 C   0  0  0  0  0  0  0  0  0  0  0  0
   57.1810   31.8013   52.3551 C   0  0  0  0  0  0  0  0  0  0  0  0
   58.2865   32.6386   52.1934 C   0  0  0  0  0  0  0  0  0  0  0  0
   59.4498   32.1559   51.5865 C   0  0  0  0  0  0  0  0  0  0  0  0
  1  2  2  0
  2  3  1  0
  3  4  2  0
  4 21  1  0
 21 22  1  0
 22 23  1  0
 23 24  2  0
 23 25  1  0
 25 26  1  0
 26 27  1  0
  3  5  1  0
  5  6  2  0
  6  8  1  0
  8  9  2  0
  8 10  1  0
 10 11  1  0
 11 12  1  0
 12 13  1  0
 13 16  1  0
 16 17  2  0
 16 18  1  0
 18 19  1  0
 18 20  1  0
 13 14  1  0
 14 15  1  0
  6  7  1  0
  7 28  1  0
 28 29  1  0
 29 30  2  0
 30 31  1  0
 31 32  2  0
 32 33  1  0
 33 34  2  0
  7  2  1  0
 34 29  1  0
 26 21  2  0
 15 10  1  0
M  CHG 1  22  -1
M  CHG 1  25  -1
M  CHG 1  27  -1
M  END
> <UniqueID>
50

> <SMILES>
C=c1c(=Cc2[n-]c(=O)[n-]c2[O-])cc(C(=O)N2CCC(C(=O)N(C)C)CC2)n1Cc1ccccc1

> <Energy>
142.14800417284175

> <Genealogy>
C=c1c(=Cc2[n-]c(=O)[n-]c2[O-])cc(C(=O)N2CCC(C(=O)N(C)C)CC2)n1Cc1ccccc1 (protonated)
C=c1c(=Cc2[n-]c(=O)[n-]c2[O-])cc(C(=O)N2CCC(C(=O)N(C)C)CC2)n1Cc1ccccc1 (3D coordinates assigned)
C=c1c(=Cc2[n-]c(=O)[n-]c2[O-])cc(C(=O)N2CCC(C(=O)N(C)C)CC2)n1Cc1ccccc1 (nonaromatic ring conformer: 142.14800417284175 kcal/mol)

> <smiles>
C=c1c(=Cc2[nH]c(=O)[nH]c2O)cc(C(=O)N2CCC(C(=O)N(C)C)CC2)n1Cc1ccccc1

> <score_type>
oracle

> <origin>
adg

> <m_score__min__energy>
-16.390000000000001

> <m_primary>
energy

> <minimizedAffinity>
-8.01408

> <minimizedRMSD>
1.35898

> <CNNscore>
0.3618679047

> <CNNaffinity>
6.8856048584

> <CNN_VS>
2.4916794300

> <CNNaffinity_variance>
0.0305495728

$$$$
58:0


 30 33  0  0  0  0  0  0  0  0999 V2000
   58.9420   31.0855   45.8744 C   0  0  0  0  0  0  0  0  0  0  0  0
   59.2448   30.4898   47.0400 C   0  0  0  0  0  0  0  0  0  0  0  0
   59.7433   29.1905   47.2043 C   0  0  0  0  0  0  0  0  0  0  0  0
   60.0677   28.3179   46.2254 C   0  0  0  0  0  0  0  0  0  0  0  0
   59.8712   29.0003   48.5750 C   0  0  0  0  0  0  0  0  0  0  0  0
   59.4761   30.1758   49.1815 C   0  0  0  0  0  0  0  0  0  0  0  0
   59.0953   31.0815   48.2509 N   0  0  0  0  0  0  0  0  0  0  0  0
   58.6094   32.4419   48.5103 C   0  0  0  0  0  0  0  0  0  0  0  0
   59.4676   30.4197   50.6373 C   0  0  0  0  0  0  0  0  0  0  0  0
   58.3615   30.6362   51.2029 O   0  0  0  0  0  0  0  0  0  0  0  0
   60.6908   30.5042   51.3996 N   0  0  0  0  0  0  0  0  0  0  0  0
   61.8913   29.7575   51.0012 C   0  0  0  0  0  0  0  0  0  0  0  0
   63.1269   30.1949   51.8053 C   0  0  0  0  0  0  0  0  0  0  0  0
   63.2060   31.6661   51.9619 N   0  0  0  0  0  0  0  0  0  0  0  0
   61.9562   32.3531   52.3718 C   0  0  0  0  0  0  0  0  0  0  0  0
   60.7744   31.3965   52.5589 C   0  0  0  0  0  0  0  0  0  0  0  0
   64.0000   32.3775   50.9317 C   0  0  0  0  0  0  0  0  0  0  0  0
   63.2111   32.7315   49.6867 C   0  0  0  0  0  0  0  0  0  0  0  0
   62.3951   33.8766   49.6491 C   0  0  0  0  0  0  0  0  0  0  0  0
   61.6361   34.1659   48.5094 C   0  0  0  0  0  0  0  0  0  0  0  0
   61.6870   33.3210   47.4006 C   0  0  0  0  0  0  0  0  0  0  0  0
   62.5129   32.1949   47.4162 C   0  0  0  0  0  0  0  0  0  0  0  0
   63.2816   31.9068   48.5488 C   0  0  0  0  0  0  0  0  0  0  0  0
   59.3050   27.1020   45.8662 C   0  0  0  0  0  0  0  0  0  0  0  0
   59.4334   25.8905   46.4358 N   0  0  0  0  0  0  0  0  0  0  0  0
   58.5072   25.1409   45.8006 C   0  0  0  0  0  0  0  0  0  0  0  0
   58.3250   23.9238   46.0607 O   0  0  0  0  0  0  0  0  0  0  0  0
   57.7899   25.8003   44.8663 N   0  0  0  0  0  0  0  0  0  0  0  0
   58.3051   27.0383   44.9236 C   0  0  0  0  0  0  0  0  0  0  0  0
   57.8683   28.0932   44.1295 O   0  0  0  0  0  0  0  0  0  0  0  0
  1  2  2  0
  2  3  1  0
  3  4  2  0
  4 24  1  0
 24 25  1  0
 25 26  1  0
 26 27  2  0
 26 28  1  0
 28 29  1  0
 29 30  1  0
  3  5  1  0
  5  6  2  0
  6  9  1  0
  9 10  2  0
  9 11  1  0
 11 12  1  0
 12 13  1  0
 13 14  1  0
 14 17  1  0
 17 18  1  0
 18 19  2  0
 19 20  1  0
 20 21  2  0
 21 22  1  0
 22 23  2  0
 14 15  1  0
 15 16  1  0
  6  7  1  0
  7  8  1  0
  7  2  1  0
 29 24  2  0
 16 11  1  0
 23 18  1  0
M  CHG 1  25  -1
M  CHG 1  28  -1
M  CHG 1  30  -1
M  END
> <UniqueID>
53

> <SMILES>
C=c1/c(=C/c2[n-]c(=O)[n-]c2[O-])cc(C(=O)N2CCN(Cc3ccccc3)CC2)n1C

> <Energy>
132.63472741818026

> <Genealogy>
C=c1c(=Cc2[n-]c(=O)[n-]c2[O-])cc(C(=O)N2CCN(Cc3ccccc3)CC2)n1C (protonated)
C=c1/c(=C/c2[n-]c(=O)[n-]c2[O-])cc(C(=O)N2CCN(Cc3ccccc3)CC2)n1C (cis-trans isomerization)
C=c1/c(=C/c2[n-]c(=O)[n-]c2[O-])cc(C(=O)N2CCN(Cc3ccccc3)CC2)n1C (3D coordinates assigned)
C=c1/c(=C/c2[n-]c(=O)[n-]c2[O-])cc(C(=O)N2CCN(Cc3ccccc3)CC2)n1C (nonaromatic ring conformer: 132.63472741818026 kcal/mol)

> <smiles>
C=c1c(=Cc2[nH]c(=O)[nH]c2O)cc(C(=O)N2CCN(Cc3ccccc3)CC2)n1C

> <score_type>
oracle

> <origin>
adg

> <m_score__min__energy>
-18.120000000000001

> <m_primary>
energy

> <minimizedAffinity>
-7.92224

> <minimizedRMSD>
1.81165

> <CNNscore>
0.2116740495

> <CNNaffinity>
6.4090647697

> <CNN_VS>
1.3566327095

> <CNNaffinity_variance>
0.0146383876

$$$$
63:0


 33 36  0  0  0  0  0  0  0  0999 V2000
   54.4513   29.0291   55.2849 C   0  0  0  0  0  0  0  0  0  0  0  0
   55.0202   29.6241   54.2249 C   0  0  0  0  0  0  0  0  0  0  0  0
   54.3393   30.2353   53.1629 C   0  0  0  0  0  0  0  0  0  0  0  0
   53.0025   30.3499   53.0093 C   0  0  0  0  0  0  0  0  0  0  0  0
   55.3146   30.6414   52.2647 C   0  0  0  0  0  0  0  0  0  0  0  0
   56.5282   30.2603   52.7945 C   0  0  0  0  0  0  0  0  0  0  0  0
   56.3636   29.6809   54.0101 N   0  0  0  0  0  0  0  0  0  0  0  0
   57.8108   30.4414   52.0884 C   0  0  0  0  0  0  0  0  0  0  0  0
   58.2030   29.5323   51.3122 O   0  0  0  0  0  0  0  0  0  0  0  0
   58.6413   31.6003   52.3128 N   0  0  0  0  0  0  0  0  0  0  0  0
   59.4238   32.1656   51.2081 C   0  0  0  0  0  0  0  0  0  0  0  0
   60.7202   32.7826   51.7461 C   0  0  0  0  0  0  0  0  0  0  0  0
   60.4505   33.6716   52.8138 O   0  0  0  0  0  0  0  0  0  0  0  0
   59.9240   32.9513   53.9118 C   0  0  0  0  0  0  0  0  0  0  0  0
   58.5543   32.3622   53.5646 C   0  0  0  0  0  0  0  0  0  0  0  0
   52.3137   30.4962   51.7113 C   0  0  0  0  0  0  0  0  0  0  0  0
   52.3917   29.6345   50.6826 N   0  0  0  0  0  0  0  0  0  0  0  0
   51.6418   30.2207   49.7245 C   0  0  0  0  0  0  0  0  0  0  0  0
   51.4600   29.7009   48.5953 O   0  0  0  0  0  0  0  0  0  0  0  0
   51.1006   31.4065   50.0744 N   0  0  0  0  0  0  0  0  0  0  0  0
   51.5438   31.5703   51.3292 C   0  0  0  0  0  0  0  0  0  0  0  0
   51.2509   32.6804   52.1103 O   0  0  0  0  0  0  0  0  0  0  0  0
   57.4363   29.2255   54.9154 C   0  0  0  0  0  0  0  0  0  0  0  0
   57.9928   27.8668   54.5131 C   0  0  0  0  0  0  0  0  0  0  0  0
   57.1050   26.7801   54.4697 C   0  0  0  0  0  0  0  0  0  0  0  0
   57.5841   25.5238   54.1358 C   0  0  0  0  0  0  0  0  0  0  0  0
   56.7411   24.4610   54.1082 F   0  0  0  0  0  0  0  0  0  0  0  0
   58.8964   25.3567   53.8432 N   0  0  0  0  0  0  0  0  0  0  0  0
   59.7584   26.4090   53.8507 C   0  0  0  0  0  0  0  0  0  0  0  0
   60.9724   26.2011   53.5715 O   0  0  0  0  0  0  0  0  0  0  0  0
   59.3118   27.6752   54.1516 N   0  0  0  0  0  0  0  0  0  0  0  0
   60.2593   28.8044   54.1182 C   0  0  0  0  0  0  0  0  0  0  0  0
   59.2320   24.4582   53.6213 H   0  0  0  0  0  0  0  0  0  0  0  0
  1  2  2  0
  2  3  1  0
  3  4  2  0
  4 16  1  0
 16 17  1  0
 17 18  1  0
 18 19  2  0
 18 20  1  0
 20 21  1  0
 21 22  1  0
  3  5  1  0
  5  6  2  0
  6  8  1  0
  8  9  2  0
  8 10  1  0
 10 11  1  0
 11 12  1  0
 12 13  1  0
 13 14  1  0
 14 15  1  0
  6  7  1  0
  7 23  1  0
 23 24  1  0
 24 25  2  0
 25 26  1  0
 26 27  1  0
 26 28  2  0
 28 29  1  0
 29 30  2  0
 29 31  1  0
 31 32  1  0
  7  2  1  0
 31 24  1  0
 21 16  2  0
 15 10  1  0
 28 33  1  0
M  CHG 1  17  -1
M  CHG 1  20  -1
M  CHG 1  22  -1
M  CHG 1  28   1
M  END
> <UniqueID>
58

> <SMILES>
C=c1/c(=C/c2[n-]c(=O)[n-]c2[O-])cc(C(=O)N2CCOCC2)n1Cc1cc(F)[nH+]c(=O)n1C

> <Energy>
130.06630869957885

> <Genealogy>
C=c1c(=Cc2[n-]c(=O)[n-]c2[O-])cc(C(=O)N2CCOCC2)n1Cc1cc(F)[nH+]c(=O)n1C (protonated)
C=c1/c(=C/c2[n-]c(=O)[n-]c2[O-])cc(C(=O)N2CCOCC2)n1Cc1cc(F)[nH+]c(=O)n1C (cis-trans isomerization)
C=c1/c(=C/c2[n-]c(=O)[n-]c2[O-])cc(C(=O)N2CCOCC2)n1Cc1cc(F)[nH+]c(=O)n1C (3D coordinates assigned)
C=c1/c(=C/c2[n-]c(=O)[n-]c2[O-])cc(C(=O)N2CCOCC2)n1Cc1cc(F)[nH+]c(=O)n1C (nonaromatic ring conformer: 130.06630869957885 kcal/mol)

> <smiles>
C=c1c(=Cc2[nH]c(=O)[nH]c2O)cc(C(=O)N2CCOCC2)n1Cc1cc(F)nc(=O)n1C

> <score_type>
oracle

> <origin>
adg

> <m_score__min__energy>
-15.9

> <m_primary>
energy

> <minimizedAffinity>
-4.98354

> <minimizedRMSD>
1.18342

> <CNNscore>
0.1426490694

> <CNNaffinity>
4.9424281120

> <CNN_VS>
0.7050327659

> <CNNaffinity_variance>
0.5079708099

$$$$
64:0


 37 41  0  0  0  0  0  0  0  0999 V2000
   61.9117   31.4718   49.6647 C   0  0  0  0  0  0  0  0  0  0  0  0
   63.2863   31.2459   49.8328 C   0  0  0  0  0  0  0  0  0  0  0  0
   64.1146   32.2223   50.4109 C   0  0  0  0  0  0  0  0  0  0  0  0
   63.5460   33.4335   50.8324 C   0  0  0  0  0  0  0  0  0  0  0  0
   62.1791   33.6700   50.6730 C   0  0  0  0  0  0  0  0  0  0  0  0
   61.3525   32.7067   50.0748 C   0  0  0  0  0  0  0  0  0  0  0  0
   59.9117   33.0057   49.9226 C   0  0  0  0  0  0  0  0  0  0  0  0
   59.1569   32.9258   50.9289 O   0  0  0  0  0  0  0  0  0  0  0  0
   59.3592   33.3916   48.6539 N   0  0  0  0  0  0  0  0  0  0  0  0
   59.8322   34.6391   48.0223 C   0  0  0  0  0  0  0  0  0  0  0  0
   59.0863   34.9751   46.7196 C   0  0  0  0  0  0  0  0  0  0  0  0
   58.7820   33.7325   45.9289 C   0  0  0  0  0  0  0  0  0  0  0  0
   58.8828   33.7169   44.5298 C   0  0  0  0  0  0  0  0  0  0  0  0
   58.5275   32.5689   43.8155 C   0  0  0  0  0  0  0  0  0  0  0  0
   58.0482   31.4425   44.4915 C   0  0  0  0  0  0  0  0  0  0  0  0
   57.9314   31.4575   45.8846 C   0  0  0  0  0  0  0  0  0  0  0  0
   58.3142   32.5973   46.6073 C   0  0  0  0  0  0  0  0  0  0  0  0
   58.2217   32.6384   48.1054 C   0  0  0  0  0  0  0  0  0  0  0  0
   61.3951   30.8658   46.7999 C   0  0  0  0  0  0  0  0  0  0  0  0
   60.8305   30.1776   47.8038 C   0  0  0  0  0  0  0  0  0  0  0  0
   59.9616   29.0771   47.6973 C   0  0  0  0  0  0  0  0  0  0  0  0
   59.3740   28.5054   46.6294 C   0  0  0  0  0  0  0  0  0  0  0  0
   59.7442   28.6317   48.9902 C   0  0  0  0  0  0  0  0  0  0  0  0
   60.4250   29.4834   49.8313 C   0  0  0  0  0  0  0  0  0  0  0  0
   60.3402   29.4190   51.3282 C   0  0  0  0  0  0  0  0  0  0  0  0
   61.0979   30.4150   49.1157 N   0  0  0  0  0  0  0  0  0  0  0  0
   58.4538   27.3589   46.6628 C   0  0  0  0  0  0  0  0  0  0  0  0
   58.7655   26.1500   47.1673 N   0  0  0  0  0  0  0  0  0  0  0  0
   57.6890   25.3963   46.8543 C   0  0  0  0  0  0  0  0  0  0  0  0
   57.5962   24.1837   47.1774 O   0  0  0  0  0  0  0  0  0  0  0  0
   56.7291   26.0401   46.1590 N   0  0  0  0  0  0  0  0  0  0  0  0
   57.2332   27.2789   46.0329 C   0  0  0  0  0  0  0  0  0  0  0  0
   56.5841   28.3066   45.3533 O   0  0  0  0  0  0  0  0  0  0  0  0
   55.7501   28.1516   44.9552 H   0  0  0  0  0  0  0  0  0  0  0  0
   65.5629   31.9699   50.5776 C   0  0  0  0  0  0  0  0  0  0  0  0
   66.4103   32.8088   50.1733 O   0  0  0  0  0  0  0  0  0  0  0  0
   66.0094   30.7989   51.1829 O   0  0  0  0  0  0  0  0  0  0  0  0
 19 20  2  0
 20 21  1  0
 21 22  2  0
 22 27  1  0
 27 28  1  0
 28 29  1  0
 29 30  2  0
 29 31  1  0
 31 32  1  0
 32 33  1  0
 21 23  1  0
 23 24  2  0
 24 25  1  0
 24 26  1  0
 26  1  1  0
  1  2  2  0
  2  3  1  0
  3 35  1  0
 35 36  2  0
 35 37  1  0
  3  4  2  0
  4  5  1  0
  5  6  2  0
  6  7  1  0
  7  8  2  0
  7  9  1  0
  9 10  1  0
 10 11  1  0
 11 12  1  0
 12 13  2  0
 13 14  1  0
 14 15  2  0
 15 16  1  0
 16 17  2  0
 17 18  1  0
 26 20  1  0
  6  1  1  0
 18  9  1  0
 32 27  2  0
 17 12  1  0
 33 34  1  0
M  CHG 1  28  -1
M  CHG 1  31  -1
M  CHG 1  37  -1
M  END
> <UniqueID>
59

> <SMILES>
C=c1c(=Cc2[n-]c(=O)[n-]c2O)cc(C)n1-c1cc(C(=O)[O-])ccc1C(=O)N1CCc2ccccc2C1

> <Energy>
140.70900200282549

> <Genealogy>
C=c1c(=Cc2[n-]c(=O)[n-]c2O)cc(C)n1-c1cc(C(=O)[O-])ccc1C(=O)N1CCc2ccccc2C1 (protonated)
C=c1c(=Cc2[n-]c(=O)[n-]c2O)cc(C)n1-c1cc(C(=O)[O-])ccc1C(=O)N1CCc2ccccc2C1 (3D coordinates assigned)
C=c1c(=Cc2[n-]c(=O)[n-]c2O)cc(C)n1-c1cc(C(=O)[O-])ccc1C(=O)N1CCc2ccccc2C1 (nonaromatic ring conformer: 140.70900200282549 kcal/mol)

> <smiles>
C=c1c(=Cc2[nH]c(=O)[nH]c2O)cc(C)n1-c1cc(C(=O)O)ccc1C(=O)N1CCc2ccccc2C1

> <score_type>
oracle

> <origin>
adg

> <m_score__min__energy>
-14.789999999999999

> <m_primary>
energy

> <minimizedAffinity>
-8.61540

> <minimizedRMSD>
0.96781

> <CNNscore>
0.4583857358

> <CNNaffinity>
6.9289765358

> <CNN_VS>
3.1761441231

> <CNNaffinity_variance>
0.1086621955

$$$$
67:0


 33 36  0  0  0  0  0  0  0  0999 V2000
   59.2127   32.9767   47.9880 C   0  0  0  0  0  0  0  0  0  0  0  0
   59.6482   34.2992   47.8045 C   0  0  0  0  0  0  0  0  0  0  0  0
   59.6527   34.8697   46.5306 C   0  0  0  0  0  0  0  0  0  0  0  0
   59.1972   34.1359   45.4316 C   0  0  0  0  0  0  0  0  0  0  0  0
   58.7166   32.8270   45.6033 C   0  0  0  0  0  0  0  0  0  0  0  0
   58.7383   32.2486   46.8851 C   0  0  0  0  0  0  0  0  0  0  0  0
   59.2064   32.3763   49.3380 C   0  0  0  0  0  0  0  0  0  0  0  0
   59.4888   33.0914   50.3362 O   0  0  0  0  0  0  0  0  0  0  0  0
   58.9287   30.9858   49.5380 N   0  0  0  0  0  0  0  0  0  0  0  0
   59.8464   29.9134   49.1680 C   0  0  0  0  0  0  0  0  0  0  0  0
   60.3926   29.2698   50.4099 C   0  0  0  0  0  0  0  0  0  0  0  0
   60.7313   28.0566   50.3691 O   0  0  0  0  0  0  0  0  0  0  0  0
   60.5397   29.9836   51.6458 N   0  0  0  0  0  0  0  0  0  0  0  0
   61.6636   30.8531   51.9764 C   0  0  0  0  0  0  0  0  0  0  0  0
   62.9228   30.3606   51.2696 C   0  0  0  0  0  0  0  0  0  0  0  0
   62.8126   31.8993   48.5425 C   0  0  0  0  0  0  0  0  0  0  0  0
   63.7335   32.1294   49.6511 N   0  0  0  0  0  0  0  0  0  0  0  0
   64.6938   33.0670   49.7331 C   0  0  0  0  0  0  0  0  0  0  0  0
   65.3162   33.0183   50.9271 N   0  0  0  0  0  0  0  0  0  0  0  0
   64.7462   32.0477   51.6278 N   0  0  0  0  0  0  0  0  0  0  0  0
   63.7755   31.5230   50.8539 C   0  0  0  0  0  0  0  0  0  0  0  0
   58.2276   32.0322   44.4161 C   0  0  0  0  0  0  0  0  0  0  0  0
   57.7600   30.6590   44.8266 C   0  0  0  0  0  0  0  0  0  0  0  0
   56.4506   30.3444   44.6283 N   0  0  0  0  0  0  0  0  0  0  0  0
   55.9545   29.1492   44.9449 N   0  0  0  0  0  0  0  0  0  0  0  0
   56.7304   28.1739   45.4781 C   0  0  0  0  0  0  0  0  0  0  0  0
   56.2147   27.0624   45.7725 O   0  0  0  0  0  0  0  0  0  0  0  0
   58.0937   28.4184   45.6931 C   0  0  0  0  0  0  0  0  0  0  0  0
   58.6227   29.6774   45.3665 C   0  0  0  0  0  0  0  0  0  0  0  0
   60.0820   29.9228   45.6787 C   0  0  0  0  0  0  0  0  0  0  0  0
   60.9474   28.7338   45.2259 C   0  0  0  0  0  0  0  0  0  0  0  0
   60.3516   27.3411   45.5588 C   0  0  0  0  0  0  0  0  0  0  0  0
   59.0113   27.3896   46.3086 C   0  0  0  0  0  0  0  0  0  0  0  0
 16 17  1  0
 17 18  1  0
 18 19  2  0
 19 20  1  0
 20 21  2  0
 21 15  1  0
 15 14  1  0
 14 13  1  0
 13 11  1  0
 11 12  2  0
 11 10  1  0
 10  9  1  0
  9  7  1  0
  7  8  2  0
  7  1  1  0
  1  2  2  0
  2  3  1  0
  3  4  2  0
  4  5  1  0
  5 22  1  0
 22 23  1  0
 23 24  2  0
 24 25  1  0
 25 26  1  0
 26 27  2  0
 26 28  1  0
 28 29  2  0
 29 30  1  0
 30 31  1  0
 31 32  1  0
 32 33  1  0
  5  6  2  0
 21 17  1  0
  6  1  1  0
 29 23  1  0
 33 28  1  0
M  CHG 1   9  -1
M  CHG 1  13  -1
M  CHG 1  25  -1
M  END
> <UniqueID>
61

> <SMILES>
Cn1cnnc1CC[N-]C(=O)C[N-]C(=O)c1cccc(Cc2n[n-]c(=O)c3c2CCCC3)c1

> <Energy>
99.90596500290691

> <Genealogy>
Cn1cnnc1CC[N-]C(=O)C[N-]C(=O)c1cccc(Cc2n[n-]c(=O)c3c2CCCC3)c1 (protonated)
Cn1cnnc1CC[N-]C(=O)C[N-]C(=O)c1cccc(Cc2n[n-]c(=O)c3c2CCCC3)c1 (3D coordinates assigned)
Cn1cnnc1CC[N-]C(=O)C[N-]C(=O)c1cccc(Cc2n[n-]c(=O)c3c2CCCC3)c1 (nonaromatic ring conformer: 99.90596500290691 kcal/mol)

> <smiles>
Cn1cnnc1CCNC(=O)CNC(=O)c1cccc(Cc2n[nH]c(=O)c3c2CCCC3)c1

> <score_type>
oracle

> <origin>
adg

> <m_score__min__energy>
-15.49

> <m_primary>
energy

> <minimizedAffinity>
-6.43586

> <minimizedRMSD>
1.41168

> <CNNscore>
0.4909874499

> <CNNaffinity>
6.7559762001

> <CNN_VS>
3.3170995712

> <CNNaffinity_variance>
0.7286646366

$$$$
69:0


 24 26  0  0  0  0  0  0  0  0999 V2000
   57.1286   30.2246   45.0718 N   0  0  0  0  0  0  0  0  0  0  0  0
   57.8963   29.2252   45.3928 C   0  0  0  0  0  0  0  0  0  0  0  0
   57.4165   28.1443   46.0395 N   0  0  0  0  0  0  0  0  0  0  0  0
   58.3849   27.2152   46.2681 C   0  0  0  0  0  0  0  0  0  0  0  0
   59.6455   27.5476   45.7751 C   0  0  0  0  0  0  0  0  0  0  0  0
   59.5403   29.0638   45.0522 S   0  0  0  0  0  0  0  0  0  0  0  0
   58.1055   31.5019   43.3630 O   0  0  0  0  0  0  0  0  0  0  0  0
   57.4990   31.4731   44.4663 C   0  0  0  0  0  0  0  0  0  0  0  0
   57.2258   32.7542   45.1543 C   0  0  0  0  0  0  0  0  0  0  0  0
   57.6977   33.1146   46.3600 C   0  0  0  0  0  0  0  0  0  0  0  0
   59.0909   32.9298   46.8126 C   0  0  0  0  0  0  0  0  0  0  0  0
   60.1077   33.8024   46.3887 C   0  0  0  0  0  0  0  0  0  0  0  0
   61.4182   33.6270   46.8436 C   0  0  0  0  0  0  0  0  0  0  0  0
   61.7260   32.5690   47.7050 C   0  0  0  0  0  0  0  0  0  0  0  0
   63.5100   32.3456   48.3448 Br  0  0  0  0  0  0  0  0  0  0  0  0
   60.7231   31.6747   48.0972 C   0  0  0  0  0  0  0  0  0  0  0  0
   59.4113   31.8480   47.6450 C   0  0  0  0  0  0  0  0  0  0  0  0
   58.0877   25.8874   46.9027 C   0  0  0  0  0  0  0  0  0  0  0  0
   56.9760   25.1814   46.1896 C   0  0  0  0  0  0  0  0  0  0  0  0
   55.6785   25.2940   46.5330 N   0  0  0  0  0  0  0  0  0  0  0  0
   54.9900   24.5983   45.6462 N   0  0  0  0  0  0  0  0  0  0  0  0
   55.8920   24.0953   44.7864 C   0  0  0  0  0  0  0  0  0  0  0  0
   55.5804   23.3767   43.8011 O   0  0  0  0  0  0  0  0  0  0  0  0
   57.1594   24.4369   45.0796 N   0  0  0  0  0  0  0  0  0  0  0  0
  7  8  2  0
  8  9  1  0
  9 10  2  0
 10 11  1  0
 11 12  2  0
 12 13  1  0
 13 14  2  0
 14 15  1  0
 14 16  1  0
 16 17  2  0
  8  1  1  0
  1  2  2  0
  2  3  1  0
  3  4  1  0
  4 18  1  0
 18 19  1  0
 19 20  2  0
 20 21  1  0
 21 22  1  0
 22 23  2  0
 22 24  1  0
  4  5  2  0
  5  6  1  0
 17 11  1  0
  6  2  1  0
 24 19  1  0
M  CHG 1   3  -1
M  CHG 1  21  -1
M  CHG 1  24  -1
M  END
> <UniqueID>
63

> <SMILES>
O=C(C=Cc1ccc(Br)cc1)N=c1[n-]c(Cc2n[n-]c(=O)[n-]2)cs1

> <Energy>
106.00724931949762

> <Genealogy>
O=C(C=Cc1ccc(Br)cc1)N=c1[n-]c(Cc2n[n-]c(=O)[n-]2)cs1 (protonated)
O=C(C=Cc1ccc(Br)cc1)N=c1[n-]c(Cc2n[n-]c(=O)[n-]2)cs1 (3D coordinates assigned)
O=C(C=Cc1ccc(Br)cc1)N=c1[n-]c(Cc2n[n-]c(=O)[n-]2)cs1 (optimized conformer: 106.00724931949762 kcal/mol)

> <smiles>
O=C(C=Cc1ccc(Br)cc1)N=c1[nH]c(Cc2n[nH]c(=O)[nH]2)cs1

> <score_type>
oracle

> <origin>
adg

> <m_score__min__energy>
-14.85

> <m_primary>
energy

> <minimizedAffinity>
-7.95438

> <minimizedRMSD>
1.01792

> <CNNscore>
0.7229838967

> <CNNaffinity>
7.4657616615

> <CNN_VS>
5.3976254463

> <CNNaffinity_variance>
0.8538773656

$$$$
70:0


 35 39  0  0  0  0  0  0  0  0999 V2000
   58.5544   31.0421   45.4111 C   0  0  0  0  0  0  0  0  0  0  0  0
   58.2759   31.8370   44.2902 C   0  0  0  0  0  0  0  0  0  0  0  0
   58.1840   33.2245   44.4127 C   0  0  0  0  0  0  0  0  0  0  0  0
   58.3688   33.8303   45.6546 C   0  0  0  0  0  0  0  0  0  0  0  0
   58.6413   33.0503   46.7820 C   0  0  0  0  0  0  0  0  0  0  0  0
   58.7395   31.6529   46.6763 C   0  0  0  0  0  0  0  0  0  0  0  0
   58.9830   30.8459   47.8985 C   0  0  0  0  0  0  0  0  0  0  0  0
   58.5429   29.6657   47.9588 O   0  0  0  0  0  0  0  0  0  0  0  0
   59.7107   31.3870   49.0198 N   0  0  0  0  0  0  0  0  0  0  0  0
   59.0998   31.3807   50.3587 C   0  0  0  0  0  0  0  0  0  0  0  0
   59.3675   32.6707   51.0782 C   0  0  0  0  0  0  0  0  0  0  0  0
   58.5854   33.0669   51.9803 O   0  0  0  0  0  0  0  0  0  0  0  0
   60.5535   33.4125   50.7923 N   0  0  0  0  0  0  0  0  0  0  0  0
   61.4108   33.0244   49.7178 C   0  0  0  0  0  0  0  0  0  0  0  0
   62.6439   33.6613   49.5427 C   0  0  0  0  0  0  0  0  0  0  0  0
   63.4889   33.2756   48.4991 C   0  0  0  0  0  0  0  0  0  0  0  0
   63.1037   32.2519   47.6296 C   0  0  0  0  0  0  0  0  0  0  0  0
   61.8689   31.6175   47.7947 C   0  0  0  0  0  0  0  0  0  0  0  0
   61.0032   32.0084   48.8342 C   0  0  0  0  0  0  0  0  0  0  0  0
   56.4041   29.0678   44.9044 C   0  0  0  0  0  0  0  0  0  0  0  0
   57.7038   28.7365   44.9333 C   0  0  0  0  0  0  0  0  0  0  0  0
   58.2524   27.4493   44.8333 C   0  0  0  0  0  0  0  0  0  0  0  0
   57.6985   26.2841   44.4494 C   0  0  0  0  0  0  0  0  0  0  0  0
   59.5854   27.5674   45.1954 C   0  0  0  0  0  0  0  0  0  0  0  0
   59.8226   28.9086   45.4156 C   0  0  0  0  0  0  0  0  0  0  0  0
   61.1458   29.4930   45.8070 C   0  0  0  0  0  0  0  0  0  0  0  0
   58.6862   29.6188   45.2484 N   0  0  0  0  0  0  0  0  0  0  0  0
   57.1971   25.2406   45.3578 C   0  0  0  0  0  0  0  0  0  0  0  0
   57.8728   24.1232   45.6898 N   0  0  0  0  0  0  0  0  0  0  0  0
   57.0890   23.5537   46.6309 C   0  0  0  0  0  0  0  0  0  0  0  0
   57.3810   22.4621   47.1848 O   0  0  0  0  0  0  0  0  0  0  0  0
   55.9744   24.2503   46.9396 N   0  0  0  0  0  0  0  0  0  0  0  0
   56.0674   25.3234   46.1349 C   0  0  0  0  0  0  0  0  0  0  0  0
   55.1404   26.3598   46.1093 O   0  0  0  0  0  0  0  0  0  0  0  0
   54.3948   26.3356   46.6763 H   0  0  0  0  0  0  0  0  0  0  0  0
 20 21  2  0
 21 22  1  0
 22 23  2  0
 23 28  1  0
 28 29  1  0
 29 30  1  0
 30 31  2  0
 30 32  1  0
 32 33  1  0
 33 34  1  0
 22 24  1  0
 24 25  2  0
 25 26  1  0
 25 27  1  0
 27  1  1  0
  1  2  2  0
  2  3  1  0
  3  4  2  0
  4  5  1  0
  5  6  2  0
  6  7  1  0
  7  8  2  0
  7  9  1  0
  9 10  1  0
 10 11  1  0
 11 12  2  0
 11 13  1  0
 13 14  1  0
 14 15  2  0
 15 16  1  0
 16 17  2  0
 17 18  1  0
 18 19  2  0
 27 21  1  0
  6  1  1  0
 19  9  1  0
 33 28  2  0
 19 14  1  0
 34 35  1  0
M  CHG 1  13  -1
M  CHG 1  29  -1
M  CHG 1  32  -1
M  END
> <UniqueID>
64

> <SMILES>
C=c1c(=Cc2[n-]c(=O)[n-]c2O)cc(C)n1-c1ccccc1C(=O)N1CC(=O)[N-]c2ccccc21

> <Energy>
141.21749376077204

> <Genealogy>
C=c1c(=Cc2[n-]c(=O)[n-]c2O)cc(C)n1-c1ccccc1C(=O)N1CC(=O)[N-]c2ccccc21 (protonated)
C=c1c(=Cc2[n-]c(=O)[n-]c2O)cc(C)n1-c1ccccc1C(=O)N1CC(=O)[N-]c2ccccc21 (3D coordinates assigned)
C=c1c(=Cc2[n-]c(=O)[n-]c2O)cc(C)n1-c1ccccc1C(=O)N1CC(=O)[N-]c2ccccc21 (nonaromatic ring conformer: 141.21749376077204 kcal/mol)

> <smiles>
C=c1c(=Cc2[nH]c(=O)[nH]c2O)cc(C)n1-c1ccccc1C(=O)N1CC(=O)Nc2ccccc21

> <score_type>
oracle

> <origin>
adg

> <m_score__min__energy>
-15.710000000000001

> <m_primary>
energy

> <minimizedAffinity>
-10.59000

> <minimizedRMSD>
0.37140

> <CNNscore>
0.8490926027

> <CNNaffinity>
7.5211753845

> <CNN_VS>
6.3861742020

> <CNNaffinity_variance>
0.1785370559

$$$$
73:0


 30 32  0  0  0  0  0  0  0  0999 V2000
   59.5713   26.9071   47.5672 C   0  0  0  0  0  0  0  0  0  0  0  0
   58.9417   27.6779   46.6646 C   0  0  0  0  0  0  0  0  0  0  0  0
   58.2830   27.2369   45.5035 C   0  0  0  0  0  0  0  0  0  0  0  0
   57.9570   25.9986   45.0831 C   0  0  0  0  0  0  0  0  0  0  0  0
   57.9738   28.3734   44.7800 C   0  0  0  0  0  0  0  0  0  0  0  0
   58.3811   29.4535   45.5325 C   0  0  0  0  0  0  0  0  0  0  0  0
   58.2239   30.8822   45.1002 C   0  0  0  0  0  0  0  0  0  0  0  0
   58.9714   29.0400   46.6785 N   0  0  0  0  0  0  0  0  0  0  0  0
   57.3211   24.9520   45.8969 C   0  0  0  0  0  0  0  0  0  0  0  0
   57.9189   23.7910   46.2136 N   0  0  0  0  0  0  0  0  0  0  0  0
   56.9430   23.0995   46.8435 C   0  0  0  0  0  0  0  0  0  0  0  0
   57.1245   21.9469   47.3128 O   0  0  0  0  0  0  0  0  0  0  0  0
   55.7547   23.7365   46.9186 N   0  0  0  0  0  0  0  0  0  0  0  0
   56.0061   24.9016   46.3018 C   0  0  0  0  0  0  0  0  0  0  0  0
   55.0483   25.8853   46.0903 O   0  0  0  0  0  0  0  0  0  0  0  0
   59.6074   29.9201   47.6758 C   0  0  0  0  0  0  0  0  0  0  0  0
   60.8101   30.6794   47.0883 C   0  0  0  0  0  0  0  0  0  0  0  0
   61.4058   31.6713   48.0633 C   0  0  0  0  0  0  0  0  0  0  0  0
   62.7287   31.4623   48.4974 C   0  0  0  0  0  0  0  0  0  0  0  0
   63.3206   32.3208   49.4233 C   0  0  0  0  0  0  0  0  0  0  0  0
   62.6060   33.4051   49.9267 C   0  0  0  0  0  0  0  0  0  0  0  0
   61.2946   33.6334   49.5095 C   0  0  0  0  0  0  0  0  0  0  0  0
   60.6709   32.7688   48.5915 C   0  0  0  0  0  0  0  0  0  0  0  0
   59.2583   33.0879   48.1618 C   0  0  0  0  0  0  0  0  0  0  0  0
   59.1742   34.4883   47.7392 N   0  0  0  0  0  0  0  0  0  0  0  0
   59.9573   35.0082   48.1353 H   0  0  0  0  0  0  0  0  0  0  0  0
   59.2336   34.5915   46.0041 S   0  0  0  0  0  0  0  0  0  0  0  0
   57.6458   34.1990   45.3010 C   0  0  0  0  0  0  0  0  0  0  0  0
   59.6001   35.9962   45.6132 O   0  0  0  0  0  0  0  0  0  0  0  0
   60.2703   33.6477   45.4642 O   0  0  0  0  0  0  0  0  0  0  0  0
  1  2  2  0
  2  3  1  0
  3  4  2  0
  4  9  1  0
  9 10  1  0
 10 11  1  0
 11 12  2  0
 11 13  1  0
 13 14  1  0
 14 15  1  0
  3  5  1  0
  5  6  2  0
  6  7  1  0
  6  8  1  0
  8 16  1  0
 16 17  1  0
 17 18  1  0
 18 19  2  0
 19 20  1  0
 20 21  2  0
 21 22  1  0
 22 23  2  0
 23 24  1  0
 24 25  1  0
 25 27  1  0
 27 28  1  0
 27 29  2  0
 27 30  2  0
  8  2  1  0
 23 18  1  0
 14  9  2  0
 25 26  1  0
M  CHG 1  10  -1
M  CHG 1  13  -1
M  CHG 1  15  -1
M  END
> <UniqueID>
67

> <SMILES>
C=c1c(=Cc2[n-]c(=O)[n-]c2[O-])cc(C)n1CCc1ccccc1CNS(C)(=O)=O

> <Energy>
111.9832790445242

> <Genealogy>
C=c1c(=Cc2[n-]c(=O)[n-]c2[O-])cc(C)n1CCc1ccccc1CNS(C)(=O)=O (protonated)
C=c1c(=Cc2[n-]c(=O)[n-]c2[O-])cc(C)n1CCc1ccccc1CNS(C)(=O)=O (3D coordinates assigned)
C=c1c(=Cc2[n-]c(=O)[n-]c2[O-])cc(C)n1CCc1ccccc1CNS(C)(=O)=O (optimized conformer: 111.9832790445242 kcal/mol)

> <smiles>
C=c1c(=Cc2[nH]c(=O)[nH]c2O)cc(C)n1CCc1ccccc1CNS(C)(=O)=O

> <score_type>
oracle

> <origin>
adg

> <m_score__min__energy>
-16.309999999999999

> <m_primary>
energy

> <minimizedAffinity>
-7.89098

> <minimizedRMSD>
0.76613

> <CNNscore>
0.1574502289

> <CNNaffinity>
6.3838515282

> <CNN_VS>
1.0051388741

> <CNNaffinity_variance>
0.0117346821

$$$$
77:0


 28 30  0  0  0  0  0  0  0  0999 V2000
   58.4115   26.8403   44.6194 C   0  0  0  0  0  0  0  0  0  0  0  0
   58.0728   28.1273   44.8121 C   0  0  0  0  0  0  0  0  0  0  0  0
   56.8122   28.5564   44.5783 N   0  0  0  0  0  0  0  0  0  0  0  0
   56.8624   29.8830   44.7970 C   0  0  0  0  0  0  0  0  0  0  0  0
   55.8574   30.6343   44.6776 O   0  0  0  0  0  0  0  0  0  0  0  0
   58.0805   30.3232   45.1659 N   0  0  0  0  0  0  0  0  0  0  0  0
   58.8548   29.2167   45.2260 C   0  0  0  0  0  0  0  0  0  0  0  0
   60.1069   29.2070   45.7075 C   0  0  0  0  0  0  0  0  0  0  0  0
   55.6448   26.7049   45.9634 O   0  0  0  0  0  0  0  0  0  0  0  0
   56.5528   25.6521   45.8980 C   0  0  0  0  0  0  0  0  0  0  0  0
   56.3589   24.4577   46.4806 N   0  0  0  0  0  0  0  0  0  0  0  0
   57.5043   23.8006   46.1950 C   0  0  0  0  0  0  0  0  0  0  0  0
   57.7231   22.6220   46.5787 O   0  0  0  0  0  0  0  0  0  0  0  0
   58.4014   24.5100   45.4760 N   0  0  0  0  0  0  0  0  0  0  0  0
   57.7761   25.6811   45.2660 C   0  0  0  0  0  0  0  0  0  0  0  0
   54.8323   26.5954   46.4171 H   0  0  0  0  0  0  0  0  0  0  0  0
   58.4101   31.6680   45.5497 C   0  0  0  0  0  0  0  0  0  0  0  0
   58.4017   32.6764   44.5731 C   0  0  0  0  0  0  0  0  0  0  0  0
   58.8172   33.9722   44.8872 C   0  0  0  0  0  0  0  0  0  0  0  0
   59.2650   34.2671   46.1750 C   0  0  0  0  0  0  0  0  0  0  0  0
   59.2816   33.2719   47.1545 C   0  0  0  0  0  0  0  0  0  0  0  0
   58.8356   31.9754   46.8651 C   0  0  0  0  0  0  0  0  0  0  0  0
   58.8319   31.0396   47.9109 O   0  0  0  0  0  0  0  0  0  0  0  0
   59.5835   31.1557   49.1224 C   0  0  0  0  0  0  0  0  0  0  0  0
   60.9481   30.4630   49.0110 C   0  0  0  0  0  0  0  0  0  0  0  0
   62.0475   31.4337   49.2006 N   0  0  0  0  0  0  0  0  0  0  0  0
   61.5862   32.6179   49.9441 C   0  0  0  0  0  0  0  0  0  0  0  0
   62.5940   31.8499   47.8999 C   0  0  0  0  0  0  0  0  0  0  0  0
  9 10  1  0
 10 11  1  0
 11 12  1  0
 12 13  2  0
 12 14  1  0
 14 15  1  0
 15  1  1  0
  1  2  2  0
  2  3  1  0
  3  4  1  0
  4  5  2  0
  4  6  1  0
  6 17  1  0
 17 18  2  0
 18 19  1  0
 19 20  2  0
 20 21  1  0
 21 22  2  0
 22 23  1  0
 23 24  1  0
 24 25  1  0
 25 26  1  0
 26 27  1  0
 26 28  1  0
  6  7  1  0
  7  8  2  0
 15 10  2  0
  7  2  1  0
 22 17  1  0
  9 16  1  0
M  CHG 1   3  -1
M  CHG 1  11  -1
M  CHG 1  14  -1
M  END
> <UniqueID>
71

> <SMILES>
C=c1/c(=C\c2[n-]c(=O)[n-]c2O)[n-]c(=O)n1-c1ccccc1OCCN(C)C

> <Energy>
129.0305697116885

> <Genealogy>
C=c1c(=Cc2[n-]c(=O)[n-]c2O)[n-]c(=O)n1-c1ccccc1OCCN(C)C (protonated)
C=c1/c(=C\c2[n-]c(=O)[n-]c2O)[n-]c(=O)n1-c1ccccc1OCCN(C)C (cis-trans isomerization)
C=c1/c(=C\c2[n-]c(=O)[n-]c2O)[n-]c(=O)n1-c1ccccc1OCCN(C)C (3D coordinates assigned)
C=c1/c(=C\c2[n-]c(=O)[n-]c2O)[n-]c(=O)n1-c1ccccc1OCCN(C)C (optimized conformer: 129.0305697116885 kcal/mol)

> <smiles>
C=c1c(=Cc2[nH]c(=O)[nH]c2O)[nH]c(=O)n1-c1ccccc1OCCN(C)C

> <score_type>
oracle

> <origin>
adg

> <m_score__min__energy>
-14.25

> <m_primary>
energy

> <minimizedAffinity>
-8.29069

> <minimizedRMSD>
0.85079

> <CNNscore>
0.7403453588

> <CNNaffinity>
6.8757610321

> <CNN_VS>
5.0904378891

> <CNNaffinity_variance>
0.0363818593

$$$$
80:0


 31 34  0  0  0  0  0  0  0  0999 V2000
   58.1331   29.9769   53.3713 C   0  0  0  0  0  0  0  0  0  0  0  0
   59.1487   29.3915   53.8419 O   0  0  0  0  0  0  0  0  0  0  0  0
   58.3069   31.1940   52.6206 N   0  0  0  0  0  0  0  0  0  0  0  0
   57.4617   31.4841   51.4514 C   0  0  0  0  0  0  0  0  0  0  0  0
   58.3247   31.9677   50.2783 C   0  0  0  0  0  0  0  0  0  0  0  0
   59.3347   32.9408   50.7150 N   0  0  0  0  0  0  0  0  0  0  0  0
   60.1690   33.5535   49.7238 C   0  0  0  0  0  0  0  0  0  0  0  0
   59.6565   34.3304   48.8738 O   0  0  0  0  0  0  0  0  0  0  0  0
   61.5473   33.1809   49.6005 N   0  0  0  0  0  0  0  0  0  0  0  0
   62.4707   33.4249   50.7101 C   0  0  0  0  0  0  0  0  0  0  0  0
   63.9185   33.3963   50.2093 C   0  0  0  0  0  0  0  0  0  0  0  0
   64.1671   32.2252   49.4565 O   0  0  0  0  0  0  0  0  0  0  0  0
   63.3892   32.2473   48.2743 C   0  0  0  0  0  0  0  0  0  0  0  0
   61.8978   32.1634   48.6064 C   0  0  0  0  0  0  0  0  0  0  0  0
   59.3939   33.3648   52.1162 C   0  0  0  0  0  0  0  0  0  0  0  0
   59.3650   32.1319   53.0226 C   0  0  0  0  0  0  0  0  0  0  0  0
   53.1622   27.5284   54.1681 C   0  0  0  0  0  0  0  0  0  0  0  0
   54.2787   28.2662   54.1080 C   0  0  0  0  0  0  0  0  0  0  0  0
   55.4267   27.6732   54.5389 N   0  0  0  0  0  0  0  0  0  0  0  0
   56.6547   28.2147   54.3452 C   0  0  0  0  0  0  0  0  0  0  0  0
   56.7924   29.3986   53.6177 C   0  0  0  0  0  0  0  0  0  0  0  0
   55.6331   30.0631   53.1964 C   0  0  0  0  0  0  0  0  0  0  0  0
   54.3501   29.5582   53.4979 C   0  0  0  0  0  0  0  0  0  0  0  0
   53.2900   30.3589   53.2192 C   0  0  0  0  0  0  0  0  0  0  0  0
   52.6624   30.5400   51.8963 C   0  0  0  0  0  0  0  0  0  0  0  0
   52.7988   29.6950   50.8574 N   0  0  0  0  0  0  0  0  0  0  0  0
   51.9560   30.2016   49.9317 C   0  0  0  0  0  0  0  0  0  0  0  0
   51.8113   29.6846   48.7933 O   0  0  0  0  0  0  0  0  0  0  0  0
   51.2756   31.2981   50.3231 N   0  0  0  0  0  0  0  0  0  0  0  0
   51.7256   31.4903   51.5742 C   0  0  0  0  0  0  0  0  0  0  0  0
   51.2860   32.5143   52.4040 O   0  0  0  0  0  0  0  0  0  0  0  0
 17 18  2  0
 18 19  1  0
 19 20  2  0
 20 21  1  0
 21  1  1  0
  1  2  2  0
  1  3  1  0
  3  4  1  0
  4  5  1  0
  5  6  1  0
  6  7  1  0
  7  8  2  0
  7  9  1  0
  9 10  1  0
 10 11  1  0
 11 12  1  0
 12 13  1  0
 13 14  1  0
  6 15  1  0
 15 16  1  0
 21 22  2  0
 22 23  1  0
 23 24  2  0
 24 25  1  0
 25 26  1  0
 26 27  1  0
 27 28  2  0
 27 29  1  0
 29 30  1  0
 30 31  1  0
 23 18  1  0
 30 25  2  0
 16  3  1  0
 14  9  1  0
M  CHG 1  26  -1
M  CHG 1  29  -1
M  CHG 1  31  -1
M  END
> <UniqueID>
74

> <SMILES>
C=c1ncc(C(=O)N2CCN(C(=O)N3CCOCC3)CC2)c/c1=C/c1[n-]c(=O)[n-]c1[O-]

> <Energy>
119.503882620165

> <Genealogy>
C=c1ncc(C(=O)N2CCN(C(=O)N3CCOCC3)CC2)cc1=Cc1[n-]c(=O)[n-]c1[O-] (protonated)
C=c1ncc(C(=O)N2CCN(C(=O)N3CCOCC3)CC2)c/c1=C/c1[n-]c(=O)[n-]c1[O-] (cis-trans isomerization)
C=c1ncc(C(=O)N2CCN(C(=O)N3CCOCC3)CC2)c/c1=C/c1[n-]c(=O)[n-]c1[O-] (3D coordinates assigned)
C=c1ncc(C(=O)N2CCN(C(=O)N3CCOCC3)CC2)c/c1=C/c1[n-]c(=O)[n-]c1[O-] (nonaromatic ring conformer: 119.503882620165 kcal/mol)

> <smiles>
C=c1ncc(C(=O)N2CCN(C(=O)N3CCOCC3)CC2)cc1=Cc1[nH]c(=O)[nH]c1O

> <score_type>
oracle

> <origin>
adg

> <m_score__min__energy>
-17.879999999999999

> <m_primary>
energy

> <minimizedAffinity>
-6.89420

> <minimizedRMSD>
0.98483

> <CNNscore>
0.0805297866

> <CNNaffinity>
4.5424041748

> <CNN_VS>
0.3657988310

> <CNNaffinity_variance>
0.6557747722

$$$$
83:0


 26 28  0  0  0  0  0  0  0  0999 V2000
   58.3430   27.2460   43.6305 C   0  0  0  0  0  0  0  0  0  0  0  0
   58.5917   27.9818   44.7324 C   0  0  0  0  0  0  0  0  0  0  0  0
   59.1610   27.4406   45.9341 C   0  0  0  0  0  0  0  0  0  0  0  0
   59.4115   26.1125   46.0962 C   0  0  0  0  0  0  0  0  0  0  0  0
   59.4074   28.3409   46.9975 C   0  0  0  0  0  0  0  0  0  0  0  0
   59.1019   29.7001   46.8934 C   0  0  0  0  0  0  0  0  0  0  0  0
   58.5587   30.1702   45.6990 C   0  0  0  0  0  0  0  0  0  0  0  0
   58.3135   29.3209   44.6695 N   0  0  0  0  0  0  0  0  0  0  0  0
   57.9191   29.6826   43.8431 H   0  0  0  0  0  0  0  0  0  0  0  0
   59.3678   30.6294   48.0180 C   0  0  0  0  0  0  0  0  0  0  0  0
   58.5641   30.6861   48.9917 O   0  0  0  0  0  0  0  0  0  0  0  0
   60.5162   31.4868   48.0099 N   0  0  0  0  0  0  0  0  0  0  0  0
   60.3388   32.9415   48.1207 C   0  0  0  0  0  0  0  0  0  0  0  0
   61.5135   33.5604   48.8826 C   0  0  0  0  0  0  0  0  0  0  0  0
   62.8770   33.2370   48.2223 C   0  0  0  0  0  0  0  0  0  0  0  0
   62.8744   31.9133   47.4239 C   0  0  0  0  0  0  0  0  0  0  0  0
   61.8639   30.9017   47.9751 C   0  0  0  0  0  0  0  0  0  0  0  0
   63.9381   33.2171   49.2441 C   0  0  0  0  0  0  0  0  0  0  0  0
   64.7761   33.2059   50.0418 N   0  0  0  0  0  0  0  0  0  0  0  0
   58.3950   25.0343   46.0557 C   0  0  0  0  0  0  0  0  0  0  0  0
   58.6268   23.7658   45.6683 N   0  0  0  0  0  0  0  0  0  0  0  0
   57.3970   23.2065   45.6690 C   0  0  0  0  0  0  0  0  0  0  0  0
   57.1974   21.9997   45.3605 O   0  0  0  0  0  0  0  0  0  0  0  0
   56.3940   24.0427   46.0125 N   0  0  0  0  0  0  0  0  0  0  0  0
   57.0433   25.1947   46.2442 C   0  0  0  0  0  0  0  0  0  0  0  0
   56.4110   26.3721   46.6304 O   0  0  0  0  0  0  0  0  0  0  0  0
  1  2  2  0
  2  3  1  0
  3  4  2  0
  4 20  1  0
 20 21  1  0
 21 22  1  0
 22 23  2  0
 22 24  1  0
 24 25  1  0
 25 26  1  0
  3  5  1  0
  5  6  2  0
  6 10  1  0
 10 11  2  0
 10 12  1  0
 12 13  1  0
 13 14  1  0
 14 15  1  0
 15 18  1  0
 18 19  3  0
 15 16  1  0
 16 17  1  0
  6  7  1  0
  7  8  2  0
  8  2  1  0
 25 20  2  0
 17 12  1  0
  8  9  1  0
M  CHG 1   8   1
M  CHG 1  21  -1
M  CHG 1  24  -1
M  CHG 1  26  -1
M  END
> <UniqueID>
77

> <SMILES>
C=c1[nH+]cc(C(=O)N2CCC(C#N)CC2)c/c1=C\c1[n-]c(=O)[n-]c1[O-]

> <Energy>
92.91497153167323

> <Genealogy>
C=c1[nH+]cc(C(=O)N2CCC(C#N)CC2)cc1=Cc1[n-]c(=O)[n-]c1[O-] (protonated)
C=c1[nH+]cc(C(=O)N2CCC(C#N)CC2)c/c1=C\c1[n-]c(=O)[n-]c1[O-] (cis-trans isomerization)
C=c1[nH+]cc(C(=O)N2CCC(C#N)CC2)c/c1=C\c1[n-]c(=O)[n-]c1[O-] (3D coordinates assigned)
C=c1[nH+]cc(C(=O)N2CCC(C#N)CC2)c/c1=C\c1[n-]c(=O)[n-]c1[O-] (nonaromatic ring conformer: 92.91497153167323 kcal/mol)

> <smiles>
C=c1ncc(C(=O)N2CCC(C#N)CC2)cc1=Cc1[nH]c(=O)[nH]c1O

> <score_type>
oracle

> <origin>
adg

> <m_score__min__energy>
-15.289999999999999

> <m_primary>
energy

> <minimizedAffinity>
-7.35038

> <minimizedRMSD>
1.43470

> <CNNscore>
0.1614884734

> <CNNaffinity>
6.5299134254

> <CNN_VS>
1.0545057058

> <CNNaffinity_variance>
0.7235682607

$$$$
88:0


 32 35  0  0  0  0  0  0  0  0999 V2000
   55.4943   31.2808   52.7536 C   0  0  0  0  0  0  0  0  0  0  0  0
   55.7057   29.9954   53.0746 C   0  0  0  0  0  0  0  0  0  0  0  0
   54.7486   28.9711   53.1596 C   0  0  0  0  0  0  0  0  0  0  0  0
   53.4634   28.9304   52.7614 C   0  0  0  0  0  0  0  0  0  0  0  0
   55.3853   27.8928   53.7546 C   0  0  0  0  0  0  0  0  0  0  0  0
   56.7033   28.2602   53.9393 C   0  0  0  0  0  0  0  0  0  0  0  0
   57.7588   27.3894   54.5501 C   0  0  0  0  0  0  0  0  0  0  0  0
   56.8986   29.5296   53.5227 N   0  0  0  0  0  0  0  0  0  0  0  0
   52.6670   30.0862   52.3198 C   0  0  0  0  0  0  0  0  0  0  0  0
   52.0178   30.9057   53.1647 N   0  0  0  0  0  0  0  0  0  0  0  0
   51.3347   31.7279   52.3384 C   0  0  0  0  0  0  0  0  0  0  0  0
   50.6058   32.6623   52.7630 O   0  0  0  0  0  0  0  0  0  0  0  0
   51.4858   31.4648   51.0231 N   0  0  0  0  0  0  0  0  0  0  0  0
   52.3197   30.4111   51.0283 C   0  0  0  0  0  0  0  0  0  0  0  0
   52.7367   29.7449   49.8802 O   0  0  0  0  0  0  0  0  0  0  0  0
   52.4488   30.0376   49.0380 H   0  0  0  0  0  0  0  0  0  0  0  0
   58.1400   30.2525   53.5964 C   0  0  0  0  0  0  0  0  0  0  0  0
   58.6601   30.5888   54.8539 C   0  0  0  0  0  0  0  0  0  0  0  0
   59.8488   31.3100   54.9561 C   0  0  0  0  0  0  0  0  0  0  0  0
   60.5228   31.7125   53.8048 C   0  0  0  0  0  0  0  0  0  0  0  0
   60.0197   31.3898   52.5380 C   0  0  0  0  0  0  0  0  0  0  0  0
   58.8333   30.6282   52.4222 C   0  0  0  0  0  0  0  0  0  0  0  0
   58.2971   30.2408   51.0660 C   0  0  0  0  0  0  0  0  0  0  0  0
   60.7227   31.8403   51.3708 N   0  0  0  0  0  0  0  0  0  0  0  0
   61.6710   30.9474   50.7079 C   0  0  0  0  0  0  0  0  0  0  0  0
   61.5458   31.0545   49.1785 C   0  0  0  0  0  0  0  0  0  0  0  0
   61.1358   32.4629   48.6459 C   0  0  0  0  0  0  0  0  0  0  0  0
   61.4457   33.5431   49.7173 C   0  0  0  0  0  0  0  0  0  0  0  0
   60.6683   33.2589   51.0106 C   0  0  0  0  0  0  0  0  0  0  0  0
   61.8085   32.7314   47.3387 N   0  0  0  0  0  0  0  0  0  0  0  0
   63.1888   33.2322   47.5009 C   0  0  0  0  0  0  0  0  0  0  0  0
   61.0458   33.7266   46.5557 C   0  0  0  0  0  0  0  0  0  0  0  0
  1  2  2  0
  2  3  1  0
  3  4  2  0
  4  9  1  0
  9 10  1  0
 10 11  1  0
 11 12  2  0
 11 13  1  0
 13 14  1  0
 14 15  1  0
  3  5  1  0
  5  6  2  0
  6  7  1  0
  6  8  1  0
  8 17  1  0
 17 18  2  0
 18 19  1  0
 19 20  2  0
 20 21  1  0
 21 24  1  0
 24 25  1  0
 25 26  1  0
 26 27  1  0
 27 30  1  0
 30 31  1  0
 30 32  1  0
 27 28  1  0
 28 29  1  0
 21 22  2  0
 22 23  1  0
  8  2  1  0
 22 17  1  0
 14  9  2  0
 29 24  1  0
 15 16  1  0
M  CHG 1  10  -1
M  CHG 1  13  -1
M  END
> <UniqueID>
82

> <SMILES>
C=c1c(=Cc2[n-]c(=O)[n-]c2O)cc(C)n1-c1cccc(N2CCC(N(C)C)CC2)c1C

> <Energy>
149.7507502196954

> <Genealogy>
C=c1c(=Cc2[n-]c(=O)[n-]c2O)cc(C)n1-c1cccc(N2CCC(N(C)C)CC2)c1C (protonated)
C=c1c(=Cc2[n-]c(=O)[n-]c2O)cc(C)n1-c1cccc(N2CCC(N(C)C)CC2)c1C (3D coordinates assigned)
C=c1c(=Cc2[n-]c(=O)[n-]c2O)cc(C)n1-c1cccc(N2CCC(N(C)C)CC2)c1C (nonaromatic ring conformer: 149.7507502196954 kcal/mol)

> <smiles>
C=c1c(=Cc2[nH]c(=O)[nH]c2O)cc(C)n1-c1cccc(N2CCC(N(C)C)CC2)c1C

> <score_type>
oracle

> <origin>
adg

> <m_score__min__energy>
-14.08

> <m_primary>
energy

> <minimizedAffinity>
-6.96478

> <minimizedRMSD>
0.67131

> <CNNscore>
0.0952753276

> <CNNaffinity>
4.7897891998

> <CNN_VS>
0.4563487470

> <CNNaffinity_variance>
1.2034571171

$$$$
12:0


 29 31  0  0  0  0  0  0  0  0999 V2000
   54.4642   29.6700   55.6131 C   0  0  0  0  0  0  0  0  0  0  0  0
   54.9552   29.8764   54.3805 C   0  0  0  0  0  0  0  0  0  0  0  0
   54.1946   30.1947   53.2428 C   0  0  0  0  0  0  0  0  0  0  0  0
   52.8641   30.1668   53.0248 C   0  0  0  0  0  0  0  0  0  0  0  0
   55.0934   30.5818   52.2710 C   0  0  0  0  0  0  0  0  0  0  0  0
   56.3527   30.3942   52.7932 C   0  0  0  0  0  0  0  0  0  0  0  0
   56.2867   29.9727   54.0848 N   0  0  0  0  0  0  0  0  0  0  0  0
   52.1968   30.3833   51.7298 C   0  0  0  0  0  0  0  0  0  0  0  0
   52.2697   29.5464   50.6777 N   0  0  0  0  0  0  0  0  0  0  0  0
   51.6255   30.2215   49.7017 C   0  0  0  0  0  0  0  0  0  0  0  0
   51.4654   29.7520   48.5441 O   0  0  0  0  0  0  0  0  0  0  0  0
   51.1719   31.4438   50.0573 N   0  0  0  0  0  0  0  0  0  0  0  0
   51.5560   31.5329   51.3404 C   0  0  0  0  0  0  0  0  0  0  0  0
   51.3302   32.6487   52.1383 O   0  0  0  0  0  0  0  0  0  0  0  0
   57.4584   29.8218   54.9795 C   0  0  0  0  0  0  0  0  0  0  0  0
   58.2190   31.1440   55.1780 C   0  0  0  0  0  0  0  0  0  0  0  0
   58.3717   28.6759   54.5272 C   0  0  0  0  0  0  0  0  0  0  0  0
   57.5840   30.7405   52.0469 C   0  0  0  0  0  0  0  0  0  0  0  0
   58.4398   29.8253   51.8995 O   0  0  0  0  0  0  0  0  0  0  0  0
   57.8009   32.0422   51.4218 N   0  0  0  0  0  0  0  0  0  0  0  0
   58.5478   33.0090   52.2623 C   0  0  0  0  0  0  0  0  0  0  0  0
   60.0261   32.6286   52.4379 C   0  0  0  0  0  0  0  0  0  0  0  0
   60.6517   32.3255   51.1431 N   0  0  0  0  0  0  0  0  0  0  0  0
   62.0729   32.5412   50.9808 C   0  0  0  0  0  0  0  0  0  0  0  0
   62.8669   31.8305   49.9253 C   0  0  0  0  0  0  0  0  0  0  0  0
   62.6725   33.3630   51.7268 O   0  0  0  0  0  0  0  0  0  0  0  0
   59.9114   31.4612   50.2139 C   0  0  0  0  0  0  0  0  0  0  0  0
   58.4549   31.9247   50.0987 C   0  0  0  0  0  0  0  0  0  0  0  0
   57.2960   31.6808   52.1858 H   0  0  0  0  0  0  0  0  0  0  0  0
  1  2  2  0
  2  3  1  0
  3  4  2  0
  4  8  1  0
  8  9  1  0
  9 10  1  0
 10 11  2  0
 10 12  1  0
 12 13  1  0
 13 14  1  0
  3  5  1  0
  5  6  2  0
  6 18  1  0
 18 19  2  0
 18 20  1  0
 20 21  1  0
 21 22  1  0
 22 23  1  0
 23 24  1  0
 24 25  1  0
 24 26  2  0
 23 27  1  0
 27 28  1  0
  6  7  1  0
  7 15  1  0
 15 16  1  0
 15 17  1  0
  7  2  1  0
 13  8  2  0
 28 20  1  0
 20 29  1  0
M  CHG 1   9  -1
M  CHG 1  12  -1
M  CHG 1  14  -1
M  CHG 1  20   1
M  END
> <UniqueID>
11

> <SMILES>
C=c1c(=Cc2[n-]c(=O)[n-]c2[O-])cc(C(=O)[NH+]2CCN(C(C)=O)CC2)n1C(C)C

> <Energy>
135.4733017280205

> <Genealogy>
C=c1c(=Cc2[n-]c(=O)[n-]c2[O-])cc(C(=O)[NH+]2CCN(C(C)=O)CC2)n1C(C)C (protonated)
C=c1c(=Cc2[n-]c(=O)[n-]c2[O-])cc(C(=O)[NH+]2CCN(C(C)=O)CC2)n1C(C)C (3D coordinates assigned)
C=c1c(=Cc2[n-]c(=O)[n-]c2[O-])cc(C(=O)[NH+]2CCN(C(C)=O)CC2)n1C(C)C (nonaromatic ring conformer: 135.4733017280205 kcal/mol)

> <smiles>
C=c1c(=Cc2[nH]c(=O)[nH]c2O)cc(C(=O)N2CCN(C(C)=O)CC2)n1C(C)C

> <score_type>
oracle

> <origin>
adg

> <m_score__min__energy>
-15.43

> <m_primary>
energy

> <minimizedAffinity>
-5.34593

> <minimizedRMSD>
0.90807

> <CNNscore>
0.0807123408

> <CNNaffinity>
4.5684342384

> <CNN_VS>
0.3687290251

> <CNNaffinity_variance>
0.5888259411

$$$$
32:0


 32 35  0  0  0  0  0  0  0  0999 V2000
   56.7629   30.4535   52.8484 C   0  0  0  0  0  0  0  0  0  0  0  0
   56.8289   31.8575   52.8029 C   0  0  0  0  0  0  0  0  0  0  0  0
   57.8047   32.5018   52.0378 C   0  0  0  0  0  0  0  0  0  0  0  0
   58.7378   31.7494   51.3025 C   0  0  0  0  0  0  0  0  0  0  0  0
   59.7358   32.3499   50.5156 C   0  0  0  0  0  0  0  0  0  0  0  0
   59.8075   33.6101   50.4574 O   0  0  0  0  0  0  0  0  0  0  0  0
   60.6207   31.5709   49.8073 N   0  0  0  0  0  0  0  0  0  0  0  0
   60.5264   30.2029   49.8738 C   0  0  0  0  0  0  0  0  0  0  0  0
   61.3234   29.4689   49.2283 O   0  0  0  0  0  0  0  0  0  0  0  0
   59.5682   29.6150   50.6334 N   0  0  0  0  0  0  0  0  0  0  0  0
   58.6767   30.3474   51.3441 C   0  0  0  0  0  0  0  0  0  0  0  0
   57.6987   29.7048   52.1104 C   0  0  0  0  0  0  0  0  0  0  0  0
   55.6253   30.0239   54.8928 O   0  0  0  0  0  0  0  0  0  0  0  0
   55.7280   29.7721   53.6616 C   0  0  0  0  0  0  0  0  0  0  0  0
   54.8449   28.8215   53.0540 N   0  0  0  0  0  0  0  0  0  0  0  0
   53.4775   28.5852   53.5037 C   0  0  0  0  0  0  0  0  0  0  0  0
   52.6309   29.8039   53.2629 C   0  0  0  0  0  0  0  0  0  0  0  0
   52.5639   30.3887   51.9875 C   0  0  0  0  0  0  0  0  0  0  0  0
   51.7572   31.5102   51.7685 C   0  0  0  0  0  0  0  0  0  0  0  0
   51.0105   32.0538   52.8182 C   0  0  0  0  0  0  0  0  0  0  0  0
   50.2124   33.1689   52.5917 O   0  0  0  0  0  0  0  0  0  0  0  0
   51.0678   31.4736   54.0906 C   0  0  0  0  0  0  0  0  0  0  0  0
   50.3239   32.0079   55.1362 O   0  0  0  0  0  0  0  0  0  0  0  0
   51.8734   30.3514   54.3117 C   0  0  0  0  0  0  0  0  0  0  0  0
   61.6371   32.1956   48.9342 C   0  0  0  0  0  0  0  0  0  0  0  0
   61.4382   31.7887   47.4660 C   0  0  0  0  0  0  0  0  0  0  0  0
   60.3112   32.5557   46.8240 C   0  0  0  0  0  0  0  0  0  0  0  0
   60.4474   33.9297   46.5610 C   0  0  0  0  0  0  0  0  0  0  0  0
   59.4218   34.6267   45.9151 C   0  0  0  0  0  0  0  0  0  0  0  0
   58.2574   33.9589   45.5268 C   0  0  0  0  0  0  0  0  0  0  0  0
   58.1177   32.5914   45.7803 C   0  0  0  0  0  0  0  0  0  0  0  0
   59.1403   31.8896   46.4240 C   0  0  0  0  0  0  0  0  0  0  0  0
 13 14  2  0
 14 15  1  0
 15 16  1  0
 16 17  1  0
 17 18  2  0
 18 19  1  0
 19 20  2  0
 20 21  1  0
 20 22  1  0
 22 23  1  0
 22 24  2  0
 14  1  1  0
  1  2  2  0
  2  3  1  0
  3  4  2  0
  4  5  1  0
  5  6  2  0
  5  7  1  0
  7 25  1  0
 25 26  1  0
 26 27  1  0
 27 28  2  0
 28 29  1  0
 29 30  2  0
 30 31  1  0
 31 32  2  0
  7  8  1  0
  8  9  2  0
  8 10  1  0
 10 11  1  0
 11 12  2  0
 24 17  1  0
 12  1  1  0
 11  4  1  0
 32 27  1  0
M  CHG 1  10  -1
M  CHG 1  15  -1
M  CHG 1  21  -1
M  CHG 1  23  -1
M  END
> <UniqueID>
30

> <SMILES>
O=C([N-]Cc1ccc([O-])c([O-])c1)c1ccc2c(=O)n(CCc3ccccc3)c(=O)[n-]c2c1

> <Energy>
57.018280297335096

> <Genealogy>
O=C([N-]Cc1ccc([O-])c([O-])c1)c1ccc2c(=O)n(CCc3ccccc3)c(=O)[n-]c2c1 (protonated)
O=C([N-]Cc1ccc([O-])c([O-])c1)c1ccc2c(=O)n(CCc3ccccc3)c(=O)[n-]c2c1 (3D coordinates assigned)
O=C([N-]Cc1ccc([O-])c([O-])c1)c1ccc2c(=O)n(CCc3ccccc3)c(=O)[n-]c2c1 (optimized conformer: 57.018280297335096 kcal/mol)

> <smiles>
O=C(NCc1ccc(O)c(O)c1)c1ccc2c(=O)n(CCc3ccccc3)c(=O)[nH]c2c1

> <score_type>
oracle

> <origin>
adg

> <m_score__min__energy>
-20.23

> <m_primary>
energy

> <minimizedAffinity>
-7.70848

> <minimizedRMSD>
1.32188

> <CNNscore>
0.3142090142

> <CNNaffinity>
5.7515168190

> <CNN_VS>
1.8071783781

> <CNNaffinity_variance>
0.2528573275

$$$$
33:0


 33 36  0  0  0  0  0  0  0  0999 V2000
   57.3941   29.9794   54.6608 C   0  0  0  0  0  0  0  0  0  0  0  0
   55.2362   30.9042   52.8121 C   0  0  0  0  0  0  0  0  0  0  0  0
   55.1773   29.7246   53.4506 C   0  0  0  0  0  0  0  0  0  0  0  0
   54.1872   28.7344   53.3181 C   0  0  0  0  0  0  0  0  0  0  0  0
   53.0071   28.7397   52.6669 C   0  0  0  0  0  0  0  0  0  0  0  0
   54.6314   27.6446   54.0456 C   0  0  0  0  0  0  0  0  0  0  0  0
   55.8287   28.0073   54.6252 C   0  0  0  0  0  0  0  0  0  0  0  0
   56.6105   27.1351   55.5620 C   0  0  0  0  0  0  0  0  0  0  0  0
   56.1611   29.2712   54.2748 N   0  0  0  0  0  0  0  0  0  0  0  0
   52.2716   29.9347   52.2295 C   0  0  0  0  0  0  0  0  0  0  0  0
   51.7191   30.8178   53.0791 N   0  0  0  0  0  0  0  0  0  0  0  0
   51.2496   31.7839   52.2617 C   0  0  0  0  0  0  0  0  0  0  0  0
   50.6407   32.7982   52.6928 O   0  0  0  0  0  0  0  0  0  0  0  0
   51.4931   31.5858   50.9492 N   0  0  0  0  0  0  0  0  0  0  0  0
   52.1531   30.4172   50.9418 C   0  0  0  0  0  0  0  0  0  0  0  0
   52.6513   29.8258   49.7832 O   0  0  0  0  0  0  0  0  0  0  0  0
   52.5161   30.2368   48.9521 H   0  0  0  0  0  0  0  0  0  0  0  0
   58.1054   30.5311   53.4510 C   0  0  0  0  0  0  0  0  0  0  0  0
   58.5206   29.6730   52.4203 C   0  0  0  0  0  0  0  0  0  0  0  0
   59.1763   30.1809   51.2959 C   0  0  0  0  0  0  0  0  0  0  0  0
   59.4178   31.5599   51.1706 C   0  0  0  0  0  0  0  0  0  0  0  0
   58.9863   32.4193   52.1969 C   0  0  0  0  0  0  0  0  0  0  0  0
   58.3337   31.9116   53.3232 C   0  0  0  0  0  0  0  0  0  0  0  0
   60.0993   32.0833   50.0093 N   0  0  0  0  0  0  0  0  0  0  0  0
   61.2617   32.9733   50.1711 C   0  0  0  0  0  0  0  0  0  0  0  0
   61.3734   33.9354   48.9825 C   0  0  0  0  0  0  0  0  0  0  0  0
   61.4446   33.1939   47.6226 C   0  0  0  0  0  0  0  0  0  0  0  0
   60.8136   31.7826   47.6625 C   0  0  0  0  0  0  0  0  0  0  0  0
   59.6517   31.7078   48.6587 C   0  0  0  0  0  0  0  0  0  0  0  0
   62.8602   33.1108   47.1173 C   0  0  0  0  0  0  0  0  0  0  0  0
   63.6967   32.0280   47.5153 N   0  0  0  0  0  0  0  0  0  0  0  0
   63.3217   34.0088   46.3621 O   0  0  0  0  0  0  0  0  0  0  0  0
   63.3427   31.3235   48.1048 H   0  0  0  0  0  0  0  0  0  0  0  0
  2  3  2  0
  3  4  1  0
  4  5  2  0
  5 10  1  0
 10 11  1  0
 11 12  1  0
 12 13  2  0
 12 14  1  0
 14 15  1  0
 15 16  1  0
  4  6  1  0
  6  7  2  0
  7  8  1  0
  7  9  1  0
  9  1  1  0
  1 18  1  0
 18 19  2  0
 19 20  1  0
 20 21  2  0
 21 24  1  0
 24 25  1  0
 25 26  1  0
 26 27  1  0
 27 30  1  0
 30 31  1  0
 30 32  2  0
 27 28  1  0
 28 29  1  0
 21 22  1  0
 22 23  2  0
  9  3  1  0
 23 18  1  0
 15 10  2  0
 29 24  1  0
 16 17  1  0
 31 33  1  0
M  CHG 1  11  -1
M  CHG 1  14  -1
M  CHG 1  31  -1
M  END
> <UniqueID>
31

> <SMILES>
C=c1c(=Cc2[n-]c(=O)[n-]c2O)cc(C)n1Cc1ccc(N2CCC(C([NH-])=O)CC2)cc1

> <Energy>
130.57787945201508

> <Genealogy>
C=c1c(=Cc2[n-]c(=O)[n-]c2O)cc(C)n1Cc1ccc(N2CCC(C([NH-])=O)CC2)cc1 (protonated)
C=c1c(=Cc2[n-]c(=O)[n-]c2O)cc(C)n1Cc1ccc(N2CCC(C([NH-])=O)CC2)cc1 (3D coordinates assigned)
C=c1c(=Cc2[n-]c(=O)[n-]c2O)cc(C)n1Cc1ccc(N2CCC(C([NH-])=O)CC2)cc1 (nonaromatic ring conformer: 130.57787945201508 kcal/mol)

> <smiles>
C=c1c(=Cc2[nH]c(=O)[nH]c2O)cc(C)n1Cc1ccc(N2CCC(C(N)=O)CC2)cc1

> <score_type>
oracle

> <origin>
adg

> <m_score__min__energy>
-14.08

> <m_primary>
energy

> <minimizedAffinity>
-7.55872

> <minimizedRMSD>
0.75804

> <CNNscore>
0.1452976465

> <CNNaffinity>
5.4416732788

> <CNN_VS>
0.7906623483

> <CNNaffinity_variance>
0.1911146641

$$$$
37:0


 24 26  0  0  0  0  0  0  0  0999 V2000
   60.6531   32.3661   49.1098 N   0  0  0  0  0  0  0  0  0  0  0  0
   60.6554   31.1737   48.5899 C   0  0  0  0  0  0  0  0  0  0  0  0
   61.0908   30.9396   47.3330 N   0  0  0  0  0  0  0  0  0  0  0  0
   60.9919   29.6235   47.0018 C   0  0  0  0  0  0  0  0  0  0  0  0
   60.4863   28.8131   48.0089 C   0  0  0  0  0  0  0  0  0  0  0  0
   60.1571   29.7519   49.3606 S   0  0  0  0  0  0  0  0  0  0  0  0
   59.5143   34.3237   49.6108 O   0  0  0  0  0  0  0  0  0  0  0  0
   59.7749   33.4425   48.7472 C   0  0  0  0  0  0  0  0  0  0  0  0
   59.2097   33.5775   47.3839 C   0  0  0  0  0  0  0  0  0  0  0  0
   57.8590   33.2562   47.1599 C   0  0  0  0  0  0  0  0  0  0  0  0
   57.3115   33.3483   45.8784 C   0  0  0  0  0  0  0  0  0  0  0  0
   58.1005   33.7729   44.8072 C   0  0  0  0  0  0  0  0  0  0  0  0
   59.4377   34.1168   45.0188 C   0  0  0  0  0  0  0  0  0  0  0  0
   59.9927   34.0323   46.3005 C   0  0  0  0  0  0  0  0  0  0  0  0
   61.3165   34.4172   46.4876 O   0  0  0  0  0  0  0  0  0  0  0  0
   60.1492   27.0623   47.8752 S   0  0  0  0  0  0  0  0  0  0  0  0
   58.7009   27.3482   46.8564 C   0  0  0  0  0  0  0  0  0  0  0  0
   57.6392   26.4390   46.8741 C   0  0  0  0  0  0  0  0  0  0  0  0
   56.5303   26.6668   46.0534 C   0  0  0  0  0  0  0  0  0  0  0  0
   55.4679   25.7737   46.0552 O   0  0  0  0  0  0  0  0  0  0  0  0
   56.4937   27.7627   45.2489 N   0  0  0  0  0  0  0  0  0  0  0  0
   57.5140   28.6608   45.2152 C   0  0  0  0  0  0  0  0  0  0  0  0
   57.4446   29.6613   44.4538 O   0  0  0  0  0  0  0  0  0  0  0  0
   58.6378   28.4726   46.0259 C   0  0  0  0  0  0  0  0  0  0  0  0
  7  8  2  0
  8  1  1  0
  1  2  2  0
  2  3  1  0
  3  4  1  0
  4  5  2  0
  5 16  1  0
 16 17  1  0
 17 18  1  0
 18 19  2  0
 19 20  1  0
 19 21  1  0
 21 22  1  0
 22 23  2  0
 22 24  1  0
  5  6  1  0
  8  9  1  0
  9 10  2  0
 10 11  1  0
 11 12  2  0
 12 13  1  0
 13 14  2  0
 14 15  1  0
  6  2  1  0
 14  9  1  0
 24 17  2  0
M  CHG 1   3  -1
M  CHG 1  15  -1
M  CHG 1  20  -1
M  CHG 1  21  -1
M  END
> <UniqueID>
35

> <SMILES>
O=C(N=c1[n-]cc(Sc2cc([O-])[n-]c(=O)c2)s1)c1ccccc1[O-]

> <Energy>
70.6020093473766

> <Genealogy>
O=C(N=c1[n-]cc(Sc2cc([O-])[n-]c(=O)c2)s1)c1ccccc1[O-] (protonated)
O=C(N=c1[n-]cc(Sc2cc([O-])[n-]c(=O)c2)s1)c1ccccc1[O-] (3D coordinates assigned)
O=C(N=c1[n-]cc(Sc2cc([O-])[n-]c(=O)c2)s1)c1ccccc1[O-] (optimized conformer: 70.6020093473766 kcal/mol)

> <smiles>
O=C(N=c1[nH]cc(Sc2cc(O)[nH]c(=O)c2)s1)c1ccccc1O

> <score_type>
oracle

> <origin>
adg

> <m_score__min__energy>
-17.16

> <m_primary>
energy

> <minimizedAffinity>
-5.78776

> <minimizedRMSD>
0.91400

> <CNNscore>
0.6181522012

> <CNNaffinity>
6.6913027763

> <CNN_VS>
4.1362433434

> <CNNaffinity_variance>
0.1366615146

$$$$
67:0


 27 30  0  0  0  0  0  0  0  0999 V2000
   60.0898   28.9436   47.7356 C   0  0  0  0  0  0  0  0  0  0  0  0
   59.5197   29.1010   46.5307 C   0  0  0  0  0  0  0  0  0  0  0  0
   59.1456   28.0858   45.6439 C   0  0  0  0  0  0  0  0  0  0  0  0
   59.2291   26.7569   45.8453 C   0  0  0  0  0  0  0  0  0  0  0  0
   58.6115   28.7204   44.5278 C   0  0  0  0  0  0  0  0  0  0  0  0
   58.6920   30.0782   44.7688 C   0  0  0  0  0  0  0  0  0  0  0  0
   58.1919   31.1477   43.8471 C   0  0  0  0  0  0  0  0  0  0  0  0
   59.2360   30.3078   45.9827 N   0  0  0  0  0  0  0  0  0  0  0  0
   58.1311   25.9333   46.3840 C   0  0  0  0  0  0  0  0  0  0  0  0
   58.3272   24.7546   46.9993 N   0  0  0  0  0  0  0  0  0  0  0  0
   57.0737   24.3159   47.2464 C   0  0  0  0  0  0  0  0  0  0  0  0
   56.8399   23.2287   47.8349 O   0  0  0  0  0  0  0  0  0  0  0  0
   56.0919   25.1297   46.8031 N   0  0  0  0  0  0  0  0  0  0  0  0
   56.7761   26.1433   46.2480 C   0  0  0  0  0  0  0  0  0  0  0  0
   56.1723   27.2083   45.5924 O   0  0  0  0  0  0  0  0  0  0  0  0
   59.4546   31.6002   46.5697 C   0  0  0  0  0  0  0  0  0  0  0  0
   60.6302   31.8324   47.2972 C   0  0  0  0  0  0  0  0  0  0  0  0
   60.8700   33.0817   47.8904 C   0  0  0  0  0  0  0  0  0  0  0  0
   59.9172   34.1013   47.7475 C   0  0  0  0  0  0  0  0  0  0  0  0
   58.7455   33.8780   47.0185 C   0  0  0  0  0  0  0  0  0  0  0  0
   58.5086   32.6361   46.4133 C   0  0  0  0  0  0  0  0  0  0  0  0
   57.2407   32.4100   45.6375 C   0  0  0  0  0  0  0  0  0  0  0  0
   62.1103   33.3192   48.6582 C   0  0  0  0  0  0  0  0  0  0  0  0
   62.2185   34.1798   49.6871 N   0  0  0  0  0  0  0  0  0  0  0  0
   63.4781   34.0821   50.0793 N   0  0  0  0  0  0  0  0  0  0  0  0
   64.1143   33.2008   49.3240 N   0  0  0  0  0  0  0  0  0  0  0  0
   63.2853   32.7034   48.4219 N   0  0  0  0  0  0  0  0  0  0  0  0
  1  2  2  0
  2  3  1  0
  3  4  2  0
  4  9  1  0
  9 10  1  0
 10 11  1  0
 11 12  2  0
 11 13  1  0
 13 14  1  0
 14 15  1  0
  3  5  1  0
  5  6  2  0
  6  7  1  0
  6  8  1  0
  8 16  1  0
 16 17  2  0
 17 18  1  0
 18 23  1  0
 23 24  1  0
 24 25  2  0
 25 26  1  0
 26 27  1  0
 18 19  2  0
 19 20  1  0
 20 21  2  0
 21 22  1  0
  8  2  1  0
 21 16  1  0
 14  9  2  0
 27 23  2  0
M  CHG 1  10  -1
M  CHG 1  13  -1
M  CHG 1  15  -1
M  CHG 1  26  -1
M  END
> <UniqueID>
63

> <SMILES>
C=c1/c(=C/c2[n-]c(=O)[n-]c2[O-])cc(C)n1-c1cc(-c2nn[n-]n2)ccc1C

> <Energy>
153.35928086262385

> <Genealogy>
C=c1c(=Cc2[n-]c(=O)[n-]c2[O-])cc(C)n1-c1cc(-c2nn[n-]n2)ccc1C (protonated)
C=c1/c(=C/c2[n-]c(=O)[n-]c2[O-])cc(C)n1-c1cc(-c2nn[n-]n2)ccc1C (cis-trans isomerization)
C=c1/c(=C/c2[n-]c(=O)[n-]c2[O-])cc(C)n1-c1cc(-c2nn[n-]n2)ccc1C (3D coordinates assigned)
C=c1/c(=C/c2[n-]c(=O)[n-]c2[O-])cc(C)n1-c1cc(-c2nn[n-]n2)ccc1C (optimized conformer: 153.35928086262385 kcal/mol)

> <smiles>
C=c1c(=Cc2[nH]c(=O)[nH]c2O)cc(C)n1-c1cc(-c2nn[nH]n2)ccc1C

> <score_type>
oracle

> <origin>
adg

> <m_score__min__energy>
-17.039999999999999

> <m_primary>
energy

> <minimizedAffinity>
-7.88009

> <minimizedRMSD>
1.12443

> <CNNscore>
0.3925481141

> <CNNaffinity>
6.9086956978

> <CNN_VS>
2.7119953632

> <CNNaffinity_variance>
0.0835291743

$$$$
69:0


 23 24  0  0  0  0  0  0  0  0999 V2000
   58.7778   29.0421   47.1151 C   0  0  0  0  0  0  0  0  0  0  0  0
   59.7230   28.9970   48.1541 C   0  0  0  0  0  0  0  0  0  0  0  0
   60.3828   27.8047   48.4511 C   0  0  0  0  0  0  0  0  0  0  0  0
   60.1131   26.6468   47.7184 C   0  0  0  0  0  0  0  0  0  0  0  0
   59.1742   26.6681   46.6691 C   0  0  0  0  0  0  0  0  0  0  0  0
   58.5123   27.8774   46.3822 C   0  0  0  0  0  0  0  0  0  0  0  0
   58.8706   25.4503   45.8646 C   0  0  0  0  0  0  0  0  0  0  0  0
   59.5199   24.3910   46.0799 O   0  0  0  0  0  0  0  0  0  0  0  0
   57.7870   25.4125   44.8202 C   0  0  0  0  0  0  0  0  0  0  0  0
   56.7029   24.4547   45.2133 C   0  0  0  0  0  0  0  0  0  0  0  0
   56.7420   22.7864   44.9790 S   0  0  0  0  0  0  0  0  0  0  0  0
   55.2239   22.5715   45.6677 C   0  0  0  0  0  0  0  0  0  0  0  0
   54.6535   21.4568   45.7915 O   0  0  0  0  0  0  0  0  0  0  0  0
   54.6703   23.7310   46.0803 N   0  0  0  0  0  0  0  0  0  0  0  0
   55.4946   24.7797   45.8284 C   0  0  0  0  0  0  0  0  0  0  0  0
   55.1448   26.0805   46.1664 O   0  0  0  0  0  0  0  0  0  0  0  0
   58.0669   30.2391   46.7659 N   0  0  0  0  0  0  0  0  0  0  0  0
   57.9848   31.0103   45.2109 S   0  0  0  0  0  0  0  0  0  0  0  0
   56.5468   31.0348   44.7783 O   0  0  0  0  0  0  0  0  0  0  0  0
   58.7624   30.2264   44.1898 O   0  0  0  0  0  0  0  0  0  0  0  0
   59.5092   32.9037   46.4959 C   0  0  0  0  0  0  0  0  0  0  0  0
   58.5797   32.7015   45.2980 C   0  0  0  0  0  0  0  0  0  0  0  0
   57.3992   33.6731   45.3617 C   0  0  0  0  0  0  0  0  0  0  0  0
 21 22  1  0
 22 23  1  0
 22 18  1  0
 18 19  2  0
 18 20  2  0
 18 17  1  0
 17  1  1  0
  1  2  2  0
  2  3  1  0
  3  4  2  0
  4  5  1  0
  5  7  1  0
  7  8  2  0
  7  9  1  0
  9 10  1  0
 10 11  1  0
 11 12  1  0
 12 13  2  0
 12 14  1  0
 14 15  1  0
 15 16  1  0
  5  6  2  0
  6  1  1  0
 15 10  2  0
M  CHG 1  14  -1
M  CHG 1  16  -1
M  CHG 1  17  -1
M  END
> <UniqueID>
65

> <SMILES>
CC(C)S(=O)(=O)[N-]c1cccc(C(=O)Cc2sc(=O)[n-]c2[O-])c1

> <Energy>
62.92153507024258

> <Genealogy>
CC(C)S(=O)(=O)[N-]c1cccc(C(=O)Cc2sc(=O)[n-]c2[O-])c1 (protonated)
CC(C)S(=O)(=O)[N-]c1cccc(C(=O)Cc2sc(=O)[n-]c2[O-])c1 (3D coordinates assigned)
CC(C)S(=O)(=O)[N-]c1cccc(C(=O)Cc2sc(=O)[n-]c2[O-])c1 (optimized conformer: 62.92153507024258 kcal/mol)

> <smiles>
CC(C)S(=O)(=O)Nc1cccc(C(=O)Cc2sc(=O)[nH]c2O)c1

> <score_type>
oracle

> <origin>
adg

> <m_score__min__energy>
-15.16

> <m_primary>
energy

> <minimizedAffinity>
-6.65304

> <minimizedRMSD>
0.68311

> <CNNscore>
0.3560555279

> <CNNaffinity>
5.9605622292

> <CNN_VS>
2.1222910881

> <CNNaffinity_variance>
0.0338361487

$$$$
85:0


 29 31  0  0  0  0  0  0  0  0999 V2000
   60.2637   24.3601   45.7176 C   0  0  0  0  0  0  0  0  0  0  0  0
   59.6049   25.4742   46.0406 C   0  0  0  0  0  0  0  0  0  0  0  0
   60.1262   26.4144   46.8568 N   0  0  0  0  0  0  0  0  0  0  0  0
   59.2418   27.3912   46.9783 N   0  0  0  0  0  0  0  0  0  0  0  0
   59.4646   28.5527   47.7939 C   0  0  0  0  0  0  0  0  0  0  0  0
   59.8348   28.4005   48.9890 O   0  0  0  0  0  0  0  0  0  0  0  0
   58.1409   27.0812   46.2599 C   0  0  0  0  0  0  0  0  0  0  0  0
   57.1179   27.8121   46.1812 O   0  0  0  0  0  0  0  0  0  0  0  0
   58.3219   25.8531   45.6356 C   0  0  0  0  0  0  0  0  0  0  0  0
   57.4893   25.1889   44.8102 C   0  0  0  0  0  0  0  0  0  0  0  0
   59.3409   29.9168   47.2409 C   0  0  0  0  0  0  0  0  0  0  0  0
   60.0897   31.0376   47.5921 C   0  0  0  0  0  0  0  0  0  0  0  0
   61.1483   31.1176   48.6534 C   0  0  0  0  0  0  0  0  0  0  0  0
   59.6656   32.0694   46.7515 C   0  0  0  0  0  0  0  0  0  0  0  0
   58.6831   31.5188   45.9363 C   0  0  0  0  0  0  0  0  0  0  0  0
   57.9318   32.2223   44.8492 C   0  0  0  0  0  0  0  0  0  0  0  0
   58.4962   30.2204   46.2383 N   0  0  0  0  0  0  0  0  0  0  0  0
   57.8594   29.6067   45.8058 H   0  0  0  0  0  0  0  0  0  0  0  0
   60.1616   33.4664   46.6888 C   0  0  0  0  0  0  0  0  0  0  0  0
   61.3674   33.6806   46.3914 O   0  0  0  0  0  0  0  0  0  0  0  0
   59.2758   34.6387   46.9682 C   0  0  0  0  0  0  0  0  0  0  0  0
   56.5840   24.1037   45.2416 C   0  0  0  0  0  0  0  0  0  0  0  0
   56.9281   22.7589   45.0204 C   0  0  0  0  0  0  0  0  0  0  0  0
   56.0478   21.7369   45.3875 C   0  0  0  0  0  0  0  0  0  0  0  0
   54.8097   22.0483   45.9560 C   0  0  0  0  0  0  0  0  0  0  0  0
   53.9361   21.0315   46.3194 O   0  0  0  0  0  0  0  0  0  0  0  0
   54.4496   23.3842   46.1549 C   0  0  0  0  0  0  0  0  0  0  0  0
   55.3271   24.4126   45.7919 C   0  0  0  0  0  0  0  0  0  0  0  0
   54.9471   25.7360   45.9882 O   0  0  0  0  0  0  0  0  0  0  0  0
  1  2  2  0
  2  3  1  0
  3  4  1  0
  4  5  1  0
  5  6  2  0
  5 11  1  0
 11 12  2  0
 12 13  1  0
 12 14  1  0
 14 19  1  0
 19 20  2  0
 19 21  1  0
 14 15  2  0
 15 16  1  0
 15 17  1  0
  4  7  1  0
  7  8  2  0
  7  9  1  0
  9 10  2  0
 10 22  1  0
 22 23  2  0
 23 24  1  0
 24 25  2  0
 25 26  1  0
 25 27  1  0
 27 28  2  0
 28 29  1  0
  9  2  1  0
 28 22  1  0
 17 11  1  0
 17 18  1  0
M  CHG 1   3  -1
M  CHG 1  26  -1
M  CHG 1  29  -1
M  END
> <UniqueID>
80

> <SMILES>
C=c1[n-]n(C(=O)c2[nH]c(C)c(C(C)=O)c2C)c(=O)/c1=C\c1ccc([O-])cc1[O-]

> <Energy>
121.38739277396957

> <Genealogy>
C=c1[n-]n(C(=O)c2[nH]c(C)c(C(C)=O)c2C)c(=O)c1=Cc1ccc([O-])cc1[O-] (protonated)
C=c1[n-]n(C(=O)c2[nH]c(C)c(C(C)=O)c2C)c(=O)/c1=C\c1ccc([O-])cc1[O-] (cis-trans isomerization)
C=c1[n-]n(C(=O)c2[nH]c(C)c(C(C)=O)c2C)c(=O)/c1=C\c1ccc([O-])cc1[O-] (3D coordinates assigned)
C=c1[n-]n(C(=O)c2[nH]c(C)c(C(C)=O)c2C)c(=O)/c1=C\c1ccc([O-])cc1[O-] (optimized conformer: 121.38739277396957 kcal/mol)

> <smiles>
C=c1[nH]n(C(=O)c2[nH]c(C)c(C(C)=O)c2C)c(=O)c1=Cc1ccc(O)cc1O

> <score_type>
oracle

> <origin>
adg

> <m_score__min__energy>
-15.199999999999999

> <m_primary>
energy

> <minimizedAffinity>
-7.27524

> <minimizedRMSD>
1.00654

> <CNNscore>
0.1061426997

> <CNNaffinity>
6.1405062675

> <CNN_VS>
0.6517699361

> <CNNaffinity_variance>
0.1439429075

$$$$
15:0


 24 25  0  0  0  0  0  0  0  0999 V2000
   57.4849   30.2636   44.3041 C   0  0  0  0  0  0  0  0  0  0  0  0
   57.3517   30.7669   43.1573 O   0  0  0  0  0  0  0  0  0  0  0  0
   60.2819   32.9555   46.9675 C   0  0  0  0  0  0  0  0  0  0  0  0
   59.7066   31.3846   46.7502 S   0  0  0  0  0  0  0  0  0  0  0  0
   58.3111   31.8868   45.9502 C   0  0  0  0  0  0  0  0  0  0  0  0
   57.3848   31.1215   45.4506 N   0  0  0  0  0  0  0  0  0  0  0  0
   58.2739   33.2281   45.8172 N   0  0  0  0  0  0  0  0  0  0  0  0
   59.3555   33.8336   46.3820 C   0  0  0  0  0  0  0  0  0  0  0  0
   59.5028   35.3222   46.3491 C   0  0  0  0  0  0  0  0  0  0  0  0
   62.8445   33.2753   46.9097 C   0  0  0  0  0  0  0  0  0  0  0  0
   61.5464   33.3015   47.6508 C   0  0  0  0  0  0  0  0  0  0  0  0
   61.5439   33.6453   48.8629 O   0  0  0  0  0  0  0  0  0  0  0  0
   57.6413   28.7772   44.4248 C   0  0  0  0  0  0  0  0  0  0  0  0
   57.7517   28.4071   45.8293 N   0  0  0  0  0  0  0  0  0  0  0  0
   58.6276   27.3740   46.2870 C   0  0  0  0  0  0  0  0  0  0  0  0
   59.8601   27.4179   46.0238 O   0  0  0  0  0  0  0  0  0  0  0  0
   58.0713   26.2190   47.0560 C   0  0  0  0  0  0  0  0  0  0  0  0
   57.6246   25.1297   46.1150 C   0  0  0  0  0  0  0  0  0  0  0  0
   58.5480   24.1709   45.6688 C   0  0  0  0  0  0  0  0  0  0  0  0
   58.1470   23.1581   44.7919 C   0  0  0  0  0  0  0  0  0  0  0  0
   56.8188   23.0871   44.3659 C   0  0  0  0  0  0  0  0  0  0  0  0
   55.8862   24.0207   44.8251 C   0  0  0  0  0  0  0  0  0  0  0  0
   56.2803   25.0387   45.6995 C   0  0  0  0  0  0  0  0  0  0  0  0
   55.3348   25.9545   46.1481 O   0  0  0  0  0  0  0  0  0  0  0  0
 10 11  1  0
 11 12  2  0
 11  3  1  0
  3  4  1  0
  4  5  1  0
  5  6  2  0
  6  1  1  0
  1  2  2  0
  1 13  1  0
 13 14  1  0
 14 15  1  0
 15 16  2  0
 15 17  1  0
 17 18  1  0
 18 19  2  0
 19 20  1  0
 20 21  2  0
 21 22  1  0
 22 23  2  0
 23 24  1  0
  5  7  1  0
  7  8  1  0
  8  9  1  0
  8  3  2  0
 23 18  1  0
M  CHG 1   7  -1
M  CHG 1  14  -1
M  CHG 1  24  -1
M  END
> <UniqueID>
14

> <SMILES>
CC(=O)c1sc(=NC(=O)C[N-]C(=O)Cc2ccccc2[O-])[n-]c1C

> <Energy>
65.76282973765736

> <Genealogy>
CC(=O)c1sc(=NC(=O)C[N-]C(=O)Cc2ccccc2[O-])[n-]c1C (protonated)
CC(=O)c1sc(=NC(=O)C[N-]C(=O)Cc2ccccc2[O-])[n-]c1C (3D coordinates assigned)
CC(=O)c1sc(=NC(=O)C[N-]C(=O)Cc2ccccc2[O-])[n-]c1C (optimized conformer: 65.76282973765736 kcal/mol)

> <smiles>
CC(=O)c1sc(=NC(=O)CNC(=O)Cc2ccccc2O)[nH]c1C

> <score_type>
oracle

> <origin>
adg

> <m_score__min__energy>
-14.26

> <m_primary>
energy

> <minimizedAffinity>
-7.08134

> <minimizedRMSD>
1.26014

> <CNNscore>
0.5697252750

> <CNNaffinity>
6.4548974037

> <CNN_VS>
3.6775181293

> <CNNaffinity_variance>
0.0988884196

$$$$
28:0


 27 29  0  0  0  0  0  0  0  0999 V2000
   58.2228   29.5475   45.6933 C   0  0  0  0  0  0  0  0  0  0  0  0
   59.2639   30.2847   46.3110 C   0  0  0  0  0  0  0  0  0  0  0  0
   60.3094   29.4824   46.7694 C   0  0  0  0  0  0  0  0  0  0  0  0
   59.9413   27.8749   46.4492 S   0  0  0  0  0  0  0  0  0  0  0  0
   58.4707   28.1765   45.6917 C   0  0  0  0  0  0  0  0  0  0  0  0
   59.2503   31.7447   46.5520 C   0  0  0  0  0  0  0  0  0  0  0  0
   59.0961   32.2432   47.8579 C   0  0  0  0  0  0  0  0  0  0  0  0
   59.0693   33.6219   48.0880 C   0  0  0  0  0  0  0  0  0  0  0  0
   59.1844   34.5128   47.0182 C   0  0  0  0  0  0  0  0  0  0  0  0
   59.3225   34.0283   45.7153 C   0  0  0  0  0  0  0  0  0  0  0  0
   59.3496   32.6499   45.4803 C   0  0  0  0  0  0  0  0  0  0  0  0
   55.9207   29.3176   44.6651 N   0  0  0  0  0  0  0  0  0  0  0  0
   57.0225   30.1382   45.0598 C   0  0  0  0  0  0  0  0  0  0  0  0
   56.9517   31.3843   44.8943 O   0  0  0  0  0  0  0  0  0  0  0  0
   55.1292   29.7251   44.2449 H   0  0  0  0  0  0  0  0  0  0  0  0
   55.9535   28.3449   44.8135 H   0  0  0  0  0  0  0  0  0  0  0  0
   57.5629   27.1838   45.1946 N   0  0  0  0  0  0  0  0  0  0  0  0
   56.8738   26.1900   45.9649 C   0  0  0  0  0  0  0  0  0  0  0  0
   55.6591   26.3777   46.2407 O   0  0  0  0  0  0  0  0  0  0  0  0
   57.5605   24.9388   46.4420 C   0  0  0  0  0  0  0  0  0  0  0  0
   57.2146   23.7635   45.5794 C   0  0  0  0  0  0  0  0  0  0  0  0
   56.9697   23.8172   43.9125 S   0  0  0  0  0  0  0  0  0  0  0  0
   56.7341   22.1549   43.8120 C   0  0  0  0  0  0  0  0  0  0  0  0
   56.4847   21.5388   42.7449 O   0  0  0  0  0  0  0  0  0  0  0  0
   56.8438   21.5400   45.0084 N   0  0  0  0  0  0  0  0  0  0  0  0
   57.1173   22.4365   45.9933 C   0  0  0  0  0  0  0  0  0  0  0  0
   57.2905   22.0403   47.3131 O   0  0  0  0  0  0  0  0  0  0  0  0
 12 13  1  0
 13 14  2  0
 13  1  1  0
  1  2  1  0
  2  6  1  0
  6  7  2  0
  7  8  1  0
  8  9  2  0
  9 10  1  0
 10 11  2  0
  2  3  2  0
  3  4  1  0
  4  5  1  0
  5 17  1  0
 17 18  1  0
 18 19  2  0
 18 20  1  0
 20 21  1  0
 21 22  1  0
 22 23  1  0
 23 24  2  0
 23 25  1  0
 25 26  1  0
 26 27  1  0
  5  1  2  0
 26 21  2  0
 11  6  1  0
 12 15  1  0
 12 16  1  0
M  CHG 1  17  -1
M  CHG 1  25  -1
M  CHG 1  27  -1
M  END
> <UniqueID>
27

> <SMILES>
NC(=O)c1c(-c2ccccc2)csc1[N-]C(=O)Cc1sc(=O)[n-]c1[O-]

> <Energy>
105.36201247334124

> <Genealogy>
NC(=O)c1c(-c2ccccc2)csc1[N-]C(=O)Cc1sc(=O)[n-]c1[O-] (protonated)
NC(=O)c1c(-c2ccccc2)csc1[N-]C(=O)Cc1sc(=O)[n-]c1[O-] (3D coordinates assigned)
NC(=O)c1c(-c2ccccc2)csc1[N-]C(=O)Cc1sc(=O)[n-]c1[O-] (optimized conformer: 105.36201247334124 kcal/mol)

> <smiles>
NC(=O)c1c(-c2ccccc2)csc1NC(=O)Cc1sc(=O)[nH]c1O

> <score_type>
oracle

> <origin>
adg

> <m_score__min__energy>
-15.48

> <m_primary>
energy

> <minimizedAffinity>
-7.84892

> <minimizedRMSD>
0.77619

> <CNNscore>
0.8624436855

> <CNNaffinity>
7.1687493324

> <CNN_VS>
6.1826424599

> <CNNaffinity_variance>
0.4854404032

$$$$
33:0


 31 34  0  0  0  0  0  0  0  0999 V2000
   57.0522   30.4223   44.9396 C   0  0  0  0  0  0  0  0  0  0  0  0
   55.8759   30.7674   44.6472 O   0  0  0  0  0  0  0  0  0  0  0  0
   57.9626   31.3974   45.4733 N   0  0  0  0  0  0  0  0  0  0  0  0
   58.6139   31.1719   46.7699 C   0  0  0  0  0  0  0  0  0  0  0  0
   60.0184   31.7774   46.7378 C   0  0  0  0  0  0  0  0  0  0  0  0
   59.9902   33.2999   46.4282 C   0  0  0  0  0  0  0  0  0  0  0  0
   58.6816   33.7571   45.7299 C   0  0  0  0  0  0  0  0  0  0  0  0
   58.1229   32.6869   44.7824 C   0  0  0  0  0  0  0  0  0  0  0  0
   58.1447   26.3312   42.6910 C   0  0  0  0  0  0  0  0  0  0  0  0
   58.0276   27.1893   43.7094 C   0  0  0  0  0  0  0  0  0  0  0  0
   57.6844   28.4792   43.5162 N   0  0  0  0  0  0  0  0  0  0  0  0
   57.4661   29.0214   44.7281 C   0  0  0  0  0  0  0  0  0  0  0  0
   57.6972   28.0874   45.7208 C   0  0  0  0  0  0  0  0  0  0  0  0
   58.0847   26.9179   45.0845 C   0  0  0  0  0  0  0  0  0  0  0  0
   58.4376   25.8039   45.7547 C   0  0  0  0  0  0  0  0  0  0  0  0
   57.6078   28.9389   42.6490 H   0  0  0  0  0  0  0  0  0  0  0  0
   57.5090   24.7817   46.2634 C   0  0  0  0  0  0  0  0  0  0  0  0
   57.8808   23.5928   46.7716 N   0  0  0  0  0  0  0  0  0  0  0  0
   56.7209   23.0721   47.2266 C   0  0  0  0  0  0  0  0  0  0  0  0
   56.6552   21.9411   47.7693 O   0  0  0  0  0  0  0  0  0  0  0  0
   55.6401   23.8651   47.0658 N   0  0  0  0  0  0  0  0  0  0  0  0
   56.1620   24.9509   46.4704 C   0  0  0  0  0  0  0  0  0  0  0  0
   55.4192   26.0710   46.1211 O   0  0  0  0  0  0  0  0  0  0  0  0
   60.3340   34.1760   47.6631 C   0  0  0  0  0  0  0  0  0  0  0  0
   61.6104   33.7797   48.3779 C   0  0  0  0  0  0  0  0  0  0  0  0
   61.6654   33.7540   49.7830 C   0  0  0  0  0  0  0  0  0  0  0  0
   62.8537   33.4160   50.4401 C   0  0  0  0  0  0  0  0  0  0  0  0
   63.9927   33.0813   49.7025 C   0  0  0  0  0  0  0  0  0  0  0  0
   65.1459   32.7599   50.3404 F   0  0  0  0  0  0  0  0  0  0  0  0
   63.9396   33.0713   48.3056 C   0  0  0  0  0  0  0  0  0  0  0  0
   62.7533   33.4107   47.6456 C   0  0  0  0  0  0  0  0  0  0  0  0
  9 10  2  0
 10 11  1  0
 11 12  1  0
 12  1  1  0
  1  2  2  0
  1  3  1  0
  3  4  1  0
  4  5  1  0
  5  6  1  0
  6 24  1  0
 24 25  1  0
 25 26  2  0
 26 27  1  0
 27 28  2  0
 28 29  1  0
 28 30  1  0
 30 31  2  0
  6  7  1  0
  7  8  1  0
 12 13  2  0
 13 14  1  0
 14 15  2  0
 15 17  1  0
 17 18  1  0
 18 19  1  0
 19 20  2  0
 19 21  1  0
 21 22  1  0
 22 23  1  0
 14 10  1  0
 22 17  2  0
  8  3  1  0
 31 25  1  0
 11 16  1  0
M  CHG 1  18  -1
M  CHG 1  21  -1
M  CHG 1  23  -1
M  END
> <UniqueID>
32

> <SMILES>
C=c1[nH]c(C(=O)N2CCC(Cc3ccc(F)cc3)CC2)cc1=Cc1[n-]c(=O)[n-]c1[O-]

> <Energy>
126.14288630931868

> <Genealogy>
C=c1[nH]c(C(=O)N2CCC(Cc3ccc(F)cc3)CC2)cc1=Cc1[n-]c(=O)[n-]c1[O-] (protonated)
C=c1[nH]c(C(=O)N2CCC(Cc3ccc(F)cc3)CC2)cc1=Cc1[n-]c(=O)[n-]c1[O-] (3D coordinates assigned)
C=c1[nH]c(C(=O)N2CCC(Cc3ccc(F)cc3)CC2)cc1=Cc1[n-]c(=O)[n-]c1[O-] (nonaromatic ring conformer: 126.14288630931868 kcal/mol)

> <smiles>
C=c1[nH]c(C(=O)N2CCC(Cc3ccc(F)cc3)CC2)cc1=Cc1[nH]c(=O)[nH]c1O

> <score_type>
oracle

> <origin>
adg

> <m_score__min__energy>
-18.27

> <m_primary>
energy

> <minimizedAffinity>
-9.19516

> <minimizedRMSD>
0.55362

> <CNNscore>
0.2495981157

> <CNNaffinity>
6.7374806404

> <CNN_VS>
1.6816624403

> <CNNaffinity_variance>
0.1197336391

$$$$
46:0


 27 30  0  0  0  0  0  0  0  0999 V2000
   60.4297   29.0796   44.9684 C   0  0  0  0  0  0  0  0  0  0  0  0
   59.8782   28.8179   46.1636 C   0  0  0  0  0  0  0  0  0  0  0  0
   59.0716   27.7180   46.4914 C   0  0  0  0  0  0  0  0  0  0  0  0
   58.7041   26.7129   45.6689 C   0  0  0  0  0  0  0  0  0  0  0  0
   58.7557   27.8642   47.8392 C   0  0  0  0  0  0  0  0  0  0  0  0
   59.3551   29.0311   48.2658 C   0  0  0  0  0  0  0  0  0  0  0  0
   59.3028   29.5479   49.6723 C   0  0  0  0  0  0  0  0  0  0  0  0
   60.0473   29.6008   47.2563 N   0  0  0  0  0  0  0  0  0  0  0  0
   57.8840   25.5407   46.0488 C   0  0  0  0  0  0  0  0  0  0  0  0
   58.3431   24.3023   46.3030 N   0  0  0  0  0  0  0  0  0  0  0  0
   57.2323   23.6135   46.6398 C   0  0  0  0  0  0  0  0  0  0  0  0
   57.2568   22.3940   46.9478 O   0  0  0  0  0  0  0  0  0  0  0  0
   56.0927   24.3370   46.6248 N   0  0  0  0  0  0  0  0  0  0  0  0
   56.5226   25.5525   46.2528 C   0  0  0  0  0  0  0  0  0  0  0  0
   55.6879   26.6536   46.1048 O   0  0  0  0  0  0  0  0  0  0  0  0
   60.7988   30.8263   47.3366 C   0  0  0  0  0  0  0  0  0  0  0  0
   62.1799   30.7648   47.5698 C   0  0  0  0  0  0  0  0  0  0  0  0
   62.9399   31.9363   47.6200 C   0  0  0  0  0  0  0  0  0  0  0  0
   62.3233   33.1753   47.4416 C   0  0  0  0  0  0  0  0  0  0  0  0
   60.9475   33.2479   47.2131 C   0  0  0  0  0  0  0  0  0  0  0  0
   60.1721   32.0782   47.1488 C   0  0  0  0  0  0  0  0  0  0  0  0
   58.7112   32.1769   46.9434 C   0  0  0  0  0  0  0  0  0  0  0  0
   57.9726   32.5086   47.9090 O   0  0  0  0  0  0  0  0  0  0  0  0
   58.1021   31.8899   45.6790 N   0  0  0  0  0  0  0  0  0  0  0  0
   57.9675   32.8641   44.6035 C   0  0  0  0  0  0  0  0  0  0  0  0
   58.8454   34.0905   44.7715 C   0  0  0  0  0  0  0  0  0  0  0  0
   57.3584   34.1697   45.0802 C   0  0  0  0  0  0  0  0  0  0  0  0
  1  2  2  0
  2  3  1  0
  3  4  2  0
  4  9  1  0
  9 10  1  0
 10 11  1  0
 11 12  2  0
 11 13  1  0
 13 14  1  0
 14 15  1  0
  3  5  1  0
  5  6  2  0
  6  7  1  0
  6  8  1  0
  8 16  1  0
 16 17  2  0
 17 18  1  0
 18 19  2  0
 19 20  1  0
 20 21  2  0
 21 22  1  0
 22 23  2  0
 22 24  1  0
 24 25  1  0
 25 26  1  0
 26 27  1  0
  8  2  1  0
 21 16  1  0
 27 25  1  0
 14  9  2  0
M  CHG 1  10  -1
M  CHG 1  13  -1
M  CHG 1  15  -1
M  CHG 1  24  -1
M  END
> <UniqueID>
45

> <SMILES>
C=c1/c(=C/c2[n-]c(=O)[n-]c2[O-])cc(C)n1-c1ccccc1C(=O)[N-]C1CC1

> <Energy>
382.3823973774836

> <Genealogy>
C=c1c(=Cc2[n-]c(=O)[n-]c2[O-])cc(C)n1-c1ccccc1C(=O)[N-]C1CC1 (protonated)
C=c1/c(=C/c2[n-]c(=O)[n-]c2[O-])cc(C)n1-c1ccccc1C(=O)[N-]C1CC1 (cis-trans isomerization)
C=c1/c(=C/c2[n-]c(=O)[n-]c2[O-])cc(C)n1-c1ccccc1C(=O)[N-]C1CC1 (3D coordinates assigned)
C=c1/c(=C/c2[n-]c(=O)[n-]c2[O-])cc(C)n1-c1ccccc1C(=O)[N-]C1CC1 (nonaromatic ring conformer: 382.3823973774836 kcal/mol)

> <smiles>
C=c1c(=Cc2[nH]c(=O)[nH]c2O)cc(C)n1-c1ccccc1C(=O)NC1CC1

> <score_type>
oracle

> <origin>
adg

> <m_score__min__energy>
-16.66

> <m_primary>
energy

> <minimizedAffinity>
-7.92571

> <minimizedRMSD>
0.62436

> <CNNscore>
0.5042579770

> <CNNaffinity>
6.9110188484

> <CNN_VS>
3.4849364758

> <CNNaffinity_variance>
0.0710785389

$$$$
55:0


 34 38  0  0  0  0  0  0  0  0999 V2000
   58.5586   29.0694   53.1071 C   0  0  0  0  0  0  0  0  0  0  0  0
   59.1365   28.2432   54.0816 C   0  0  0  0  0  0  0  0  0  0  0  0
   60.5052   27.9664   54.0478 C   0  0  0  0  0  0  0  0  0  0  0  0
   61.3076   28.5118   53.0423 C   0  0  0  0  0  0  0  0  0  0  0  0
   60.7469   29.3454   52.0612 C   0  0  0  0  0  0  0  0  0  0  0  0
   59.3664   29.6051   52.0894 C   0  0  0  0  0  0  0  0  0  0  0  0
   61.5866   29.9096   50.9843 C   0  0  0  0  0  0  0  0  0  0  0  0
   62.8294   30.0289   51.1710 O   0  0  0  0  0  0  0  0  0  0  0  0
   61.0176   30.3173   49.7259 N   0  0  0  0  0  0  0  0  0  0  0  0
   61.6368   31.4205   48.9824 C   0  0  0  0  0  0  0  0  0  0  0  0
   60.5812   32.1727   48.1620 C   0  0  0  0  0  0  0  0  0  0  0  0
   59.6928   31.2545   47.4290 N   0  0  0  0  0  0  0  0  0  0  0  0
   58.6771   31.7822   46.5439 C   0  0  0  0  0  0  0  0  0  0  0  0
   57.8794   31.0003   45.9581 O   0  0  0  0  0  0  0  0  0  0  0  0
   59.8680   29.8028   47.5853 C   0  0  0  0  0  0  0  0  0  0  0  0
   60.0280   29.4495   49.0658 C   0  0  0  0  0  0  0  0  0  0  0  0
   58.5127   33.2665   46.3476 C   0  0  0  0  0  0  0  0  0  0  0  0
   58.7848   33.7435   44.9297 C   0  0  0  0  0  0  0  0  0  0  0  0
   57.3604   33.6916   45.4472 C   0  0  0  0  0  0  0  0  0  0  0  0
   57.0854   31.6121   52.4030 C   0  0  0  0  0  0  0  0  0  0  0  0
   56.4909   30.4715   52.7839 C   0  0  0  0  0  0  0  0  0  0  0  0
   55.1236   30.2479   52.9548 C   0  0  0  0  0  0  0  0  0  0  0  0
   54.1236   31.1055   52.6861 C   0  0  0  0  0  0  0  0  0  0  0  0
   54.9312   28.9881   53.4035 N   0  0  0  0  0  0  0  0  0  0  0  0
   56.1741   28.4792   53.5028 C   0  0  0  0  0  0  0  0  0  0  0  0
   56.3968   27.3001   53.8878 O   0  0  0  0  0  0  0  0  0  0  0  0
   57.1451   29.3393   53.1342 N   0  0  0  0  0  0  0  0  0  0  0  0
   53.0609   30.8494   51.6926 C   0  0  0  0  0  0  0  0  0  0  0  0
   53.1973   29.9595   50.6937 N   0  0  0  0  0  0  0  0  0  0  0  0
   52.0451   30.0801   50.0015 C   0  0  0  0  0  0  0  0  0  0  0  0
   51.7918   29.3876   48.9799 O   0  0  0  0  0  0  0  0  0  0  0  0
   51.1903   31.0060   50.4827 N   0  0  0  0  0  0  0  0  0  0  0  0
   51.8483   31.4931   51.5457 C   0  0  0  0  0  0  0  0  0  0  0  0
   51.3676   32.5346   52.3285 O   0  0  0  0  0  0  0  0  0  0  0  0
 20 21  2  0
 21 22  1  0
 22 23  2  0
 23 28  1  0
 28 29  1  0
 29 30  1  0
 30 31  2  0
 30 32  1  0
 32 33  1  0
 33 34  1  0
 22 24  1  0
 24 25  1  0
 25 26  2  0
 25 27  1  0
 27  1  1  0
  1  2  2  0
  2  3  1  0
  3  4  2  0
  4  5  1  0
  5  7  1  0
  7  8  2  0
  7  9  1  0
  9 10  1  0
 10 11  1  0
 11 12  1  0
 12 13  1  0
 13 14  2  0
 13 17  1  0
 17 18  1  0
 18 19  1  0
 12 15  1  0
 15 16  1  0
  5  6  2  0
 27 21  1  0
  6  1  1  0
 33 28  2  0
 16  9  1  0
 19 17  1  0
M  CHG 1  24  -1
M  CHG 1  29  -1
M  CHG 1  32  -1
M  CHG 1  34  -1
M  END
> <UniqueID>
54

> <SMILES>
C=c1/c(=C/c2[n-]c(=O)[n-]c2[O-])[n-]c(=O)n1-c1cccc(C(=O)N2CCN(C(=O)C3CC3)CC2)c1

> <Energy>
401.2482049847653

> <Genealogy>
C=c1c(=Cc2[n-]c(=O)[n-]c2[O-])[n-]c(=O)n1-c1cccc(C(=O)N2CCN(C(=O)C3CC3)CC2)c1 (protonated)
C=c1/c(=C/c2[n-]c(=O)[n-]c2[O-])[n-]c(=O)n1-c1cccc(C(=O)N2CCN(C(=O)C3CC3)CC2)c1 (cis-trans isomerization)
C=c1/c(=C/c2[n-]c(=O)[n-]c2[O-])[n-]c(=O)n1-c1cccc(C(=O)N2CCN(C(=O)C3CC3)CC2)c1 (3D coordinates assigned)
C=c1/c(=C/c2[n-]c(=O)[n-]c2[O-])[n-]c(=O)n1-c1cccc(C(=O)N2CCN(C(=O)C3CC3)CC2)c1 (nonaromatic ring conformer: 401.2482049847653 kcal/mol)

> <smiles>
C=c1c(=Cc2[nH]c(=O)[nH]c2O)[nH]c(=O)n1-c1cccc(C(=O)N2CCN(C(=O)C3CC3)CC2)c1

> <score_type>
oracle

> <origin>
adg

> <m_score__min__energy>
-19.300000000000001

> <m_primary>
energy

> <minimizedAffinity>
-7.07814

> <minimizedRMSD>
0.95039

> <CNNscore>
0.1001508757

> <CNNaffinity>
5.8918991089

> <CNN_VS>
0.5900788307

> <CNNaffinity_variance>
0.3364421129

$$$$
60:0


 26 27  0  0  0  0  0  0  0  0999 V2000
   56.9131   24.4565   45.8085 C   0  0  0  0  0  0  0  0  0  0  0  0
   56.4868   25.7728   46.0385 C   0  0  0  0  0  0  0  0  0  0  0  0
   55.1334   26.0697   46.1292 O   0  0  0  0  0  0  0  0  0  0  0  0
   57.4002   26.7695   46.1623 N   0  0  0  0  0  0  0  0  0  0  0  0
   58.7318   26.5165   46.0757 C   0  0  0  0  0  0  0  0  0  0  0  0
   59.1701   25.2464   45.8834 N   0  0  0  0  0  0  0  0  0  0  0  0
   58.2966   24.2124   45.7562 C   0  0  0  0  0  0  0  0  0  0  0  0
   58.7428   23.0438   45.6183 O   0  0  0  0  0  0  0  0  0  0  0  0
   54.3056   21.7032   46.6203 C   0  0  0  0  0  0  0  0  0  0  0  0
   55.3864   22.7153   46.8222 C   0  0  0  0  0  0  0  0  0  0  0  0
   55.8473   22.9065   47.9802 O   0  0  0  0  0  0  0  0  0  0  0  0
   55.9485   23.3966   45.6913 N   0  0  0  0  0  0  0  0  0  0  0  0
   55.6593   23.1248   44.7903 H   0  0  0  0  0  0  0  0  0  0  0  0
   59.9088   27.8564   46.2293 S   0  0  0  0  0  0  0  0  0  0  0  0
   58.7205   29.1552   45.7479 C   0  0  0  0  0  0  0  0  0  0  0  0
   58.6882   30.2441   46.7702 C   0  0  0  0  0  0  0  0  0  0  0  0
   59.0752   30.0105   47.9474 O   0  0  0  0  0  0  0  0  0  0  0  0
   58.2493   31.5533   46.3974 N   0  0  0  0  0  0  0  0  0  0  0  0
   59.1533   32.6173   45.9751 C   0  0  0  0  0  0  0  0  0  0  0  0
   60.0845   32.9882   47.0982 C   0  0  0  0  0  0  0  0  0  0  0  0
   59.5959   33.6226   48.2516 C   0  0  0  0  0  0  0  0  0  0  0  0
   60.4701   33.9826   49.2820 C   0  0  0  0  0  0  0  0  0  0  0  0
   61.8452   33.7294   49.1644 C   0  0  0  0  0  0  0  0  0  0  0  0
   62.7762   34.0816   50.2863 C   0  0  0  0  0  0  0  0  0  0  0  0
   62.3312   33.0833   48.0173 C   0  0  0  0  0  0  0  0  0  0  0  0
   61.4578   32.7233   46.9882 C   0  0  0  0  0  0  0  0  0  0  0  0
  9 10  1  0
 10 11  2  0
 10 12  1  0
 12  1  1  0
  1  2  2  0
  2  3  1  0
  2  4  1  0
  4  5  1  0
  5 14  1  0
 14 15  1  0
 15 16  1  0
 16 17  2  0
 16 18  1  0
 18 19  1  0
 19 20  1  0
 20 21  2  0
 21 22  1  0
 22 23  2  0
 23 24  1  0
 23 25  1  0
 25 26  2  0
  5  6  2  0
  6  7  1  0
  7  8  2  0
  7  1  1  0
 26 20  1  0
 12 13  1  0
M  CHG 1   3  -1
M  CHG 1   4  -1
M  CHG 1  18  -1
M  END
> <UniqueID>
59

> <SMILES>
CC(=O)Nc1c([O-])[n-]c(SCC(=O)[N-]Cc2ccc(C)cc2)nc1=O

> <Energy>
36.71529575240135

> <Genealogy>
CC(=O)Nc1c([O-])[n-]c(SCC(=O)[N-]Cc2ccc(C)cc2)nc1=O (protonated)
CC(=O)Nc1c([O-])[n-]c(SCC(=O)[N-]Cc2ccc(C)cc2)nc1=O (3D coordinates assigned)
CC(=O)Nc1c([O-])[n-]c(SCC(=O)[N-]Cc2ccc(C)cc2)nc1=O (optimized conformer: 36.71529575240135 kcal/mol)

> <smiles>
CC(=O)Nc1c(O)[nH]c(SCC(=O)NCc2ccc(C)cc2)nc1=O

> <score_type>
oracle

> <origin>
adg

> <m_score__min__energy>
-15.48

> <m_primary>
energy

> <minimizedAffinity>
-6.75958

> <minimizedRMSD>
1.73002

> <CNNscore>
0.5969787836

> <CNNaffinity>
6.7393927574

> <CNN_VS>
4.0232744217

> <CNNaffinity_variance>
1.2704021931

$$$$
64:0


 24 25  0  0  0  0  0  0  0  0999 V2000
   55.5569   29.2789   43.9487 O   0  0  0  0  0  0  0  0  0  0  0  0
   56.5599   29.6375   44.6200 C   0  0  0  0  0  0  0  0  0  0  0  0
   57.6316   28.6603   44.8863 C   0  0  0  0  0  0  0  0  0  0  0  0
   57.7079   27.8771   45.9731 C   0  0  0  0  0  0  0  0  0  0  0  0
   57.6770   26.3946   45.9609 C   0  0  0  0  0  0  0  0  0  0  0  0
   58.8604   25.6410   45.9333 C   0  0  0  0  0  0  0  0  0  0  0  0
   58.8059   24.2852   45.9642 N   0  0  0  0  0  0  0  0  0  0  0  0
   57.6172   23.6354   46.0415 C   0  0  0  0  0  0  0  0  0  0  0  0
   57.5874   22.3785   46.0637 O   0  0  0  0  0  0  0  0  0  0  0  0
   56.4582   24.3415   46.1007 N   0  0  0  0  0  0  0  0  0  0  0  0
   56.4618   25.7005   46.0711 C   0  0  0  0  0  0  0  0  0  0  0  0
   55.3684   26.3224   46.1335 O   0  0  0  0  0  0  0  0  0  0  0  0
   56.6787   30.9927   45.0637 N   0  0  0  0  0  0  0  0  0  0  0  0
   58.0509   31.9801   44.7000 S   0  0  0  0  0  0  0  0  0  0  0  0
   59.2942   31.2466   45.1154 O   0  0  0  0  0  0  0  0  0  0  0  0
   58.1055   32.2442   43.2210 O   0  0  0  0  0  0  0  0  0  0  0  0
   57.9229   33.5131   45.6143 C   0  0  0  0  0  0  0  0  0  0  0  0
   59.2192   34.3314   45.5727 C   0  0  0  0  0  0  0  0  0  0  0  0
   60.1011   34.0611   46.7654 C   0  0  0  0  0  0  0  0  0  0  0  0
   59.6000   34.2245   48.0676 C   0  0  0  0  0  0  0  0  0  0  0  0
   60.4107   33.9585   49.1741 C   0  0  0  0  0  0  0  0  0  0  0  0
   61.7275   33.5269   48.9896 C   0  0  0  0  0  0  0  0  0  0  0  0
   62.2331   33.3573   47.6983 C   0  0  0  0  0  0  0  0  0  0  0  0
   61.4258   33.6233   46.5881 C   0  0  0  0  0  0  0  0  0  0  0  0
  1  2  2  0
  2  3  1  0
  3  4  2  0
  4  5  1  0
  5  6  2  0
  6  7  1  0
  7  8  1  0
  8  9  2  0
  8 10  1  0
 10 11  1  0
 11 12  2  0
  2 13  1  0
 13 14  1  0
 14 15  2  0
 14 16  2  0
 14 17  1  0
 17 18  1  0
 18 19  1  0
 19 20  2  0
 20 21  1  0
 21 22  2  0
 22 23  1  0
 23 24  2  0
 11  5  1  0
 24 19  1  0
M  CHG 1   7  -1
M  CHG 1  10  -1
M  CHG 1  13  -1
M  END
> <UniqueID>
63

> <SMILES>
O=C(C=Cc1c[n-]c(=O)[n-]c1=O)[N-]S(=O)(=O)CCc1ccccc1

> <Energy>
40.65382784228879

> <Genealogy>
O=C(C=Cc1c[n-]c(=O)[n-]c1=O)[N-]S(=O)(=O)CCc1ccccc1 (protonated)
O=C(C=Cc1c[n-]c(=O)[n-]c1=O)[N-]S(=O)(=O)CCc1ccccc1 (3D coordinates assigned)
O=C(C=Cc1c[n-]c(=O)[n-]c1=O)[N-]S(=O)(=O)CCc1ccccc1 (optimized conformer: 40.65382784228879 kcal/mol)

> <smiles>
O=C(C=Cc1c[nH]c(=O)[nH]c1=O)NS(=O)(=O)CCc1ccccc1

> <score_type>
oracle

> <origin>
adg

> <m_score__min__energy>
-14.07

> <m_primary>
energy

> <minimizedAffinity>
-6.97458

> <minimizedRMSD>
0.81095

> <CNNscore>
0.8650321364

> <CNNaffinity>
6.9462018013

> <CNN_VS>
6.0086879730

> <CNNaffinity_variance>
0.5235976577

$$$$
81:0


 37 40  0  0  0  0  0  0  0  0999 V2000
   59.1849   28.9124   44.6638 C   0  0  0  0  0  0  0  0  0  0  0  0
   58.0895   26.6141   43.0315 C   0  0  0  0  0  0  0  0  0  0  0  0
   58.2579   26.5688   44.3619 C   0  0  0  0  0  0  0  0  0  0  0  0
   57.9715   25.4937   45.2071 C   0  0  0  0  0  0  0  0  0  0  0  0
   57.4557   24.2975   44.8502 C   0  0  0  0  0  0  0  0  0  0  0  0
   58.3361   25.9566   46.4768 C   0  0  0  0  0  0  0  0  0  0  0  0
   58.2449   25.2438   47.7893 C   0  0  0  0  0  0  0  0  0  0  0  0
   58.8059   27.2144   46.3795 N   0  0  0  0  0  0  0  0  0  0  0  0
   58.7605   27.5827   45.1099 N   0  0  0  0  0  0  0  0  0  0  0  0
   56.1038   23.8377   45.2135 C   0  0  0  0  0  0  0  0  0  0  0  0
   55.1463   24.7396   45.6995 C   0  0  0  0  0  0  0  0  0  0  0  0
   55.4469   26.0946   45.8150 O   0  0  0  0  0  0  0  0  0  0  0  0
   53.9146   24.2885   46.0589 N   0  0  0  0  0  0  0  0  0  0  0  0
   53.5969   22.9723   45.9647 C   0  0  0  0  0  0  0  0  0  0  0  0
   52.1087   22.4604   46.4010 S   0  0  0  0  0  0  0  0  0  0  0  0
   54.5158   22.0790   45.5166 N   0  0  0  0  0  0  0  0  0  0  0  0
   55.7600   22.4787   45.1466 C   0  0  0  0  0  0  0  0  0  0  0  0
   56.5926   21.6237   44.7404 O   0  0  0  0  0  0  0  0  0  0  0  0
   56.2944   26.4091   45.5685 H   0  0  0  0  0  0  0  0  0  0  0  0
   58.0481   29.8964   44.7650 C   0  0  0  0  0  0  0  0  0  0  0  0
   57.0045   29.6778   44.0946 O   0  0  0  0  0  0  0  0  0  0  0  0
   58.1258   31.0747   45.5985 N   0  0  0  0  0  0  0  0  0  0  0  0
   57.1977   32.1917   45.3557 C   0  0  0  0  0  0  0  0  0  0  0  0
   57.8770   33.5215   45.6912 C   0  0  0  0  0  0  0  0  0  0  0  0
   58.3521   33.5768   47.1629 C   0  0  0  0  0  0  0  0  0  0  0  0
   58.6332   32.1745   47.7625 C   0  0  0  0  0  0  0  0  0  0  0  0
   59.0920   31.1609   46.7059 C   0  0  0  0  0  0  0  0  0  0  0  0
   59.5498   34.5011   47.2746 C   0  0  0  0  0  0  0  0  0  0  0  0
   59.7481   35.3778   46.3907 O   0  0  0  0  0  0  0  0  0  0  0  0
   60.3681   34.5262   48.4515 N   0  0  0  0  0  0  0  0  0  0  0  0
   61.4977   33.6810   48.7066 C   0  0  0  0  0  0  0  0  0  0  0  0
   62.4789   33.4909   47.7206 C   0  0  0  0  0  0  0  0  0  0  0  0
   63.5969   32.6936   47.9811 C   0  0  0  0  0  0  0  0  0  0  0  0
   63.7509   32.0947   49.2318 C   0  0  0  0  0  0  0  0  0  0  0  0
   62.7940   32.2971   50.2294 C   0  0  0  0  0  0  0  0  0  0  0  0
   61.6684   33.1009   49.9808 C   0  0  0  0  0  0  0  0  0  0  0  0
   60.6347   33.3038   51.0553 C   0  0  0  0  0  0  0  0  0  0  0  0
  2  3  2  0
  3  4  1  0
  4  5  2  0
  5 10  1  0
 10 11  2  0
 11 12  1  0
 11 13  1  0
 13 14  1  0
 14 15  2  0
 14 16  1  0
 16 17  1  0
 17 18  2  0
  4  6  1  0
  6  7  1  0
  6  8  2  0
  8  9  1  0
  9  1  1  0
  1 20  1  0
 20 21  2  0
 20 22  1  0
 22 23  1  0
 23 24  1  0
 24 25  1  0
 25 28  1  0
 28 29  2  0
 28 30  1  0
 30 31  1  0
 31 32  2  0
 32 33  1  0
 33 34  2  0
 34 35  1  0
 35 36  2  0
 36 37  1  0
 25 26  1  0
 26 27  1  0
  9  3  1  0
 27 22  1  0
 17 10  1  0
 36 31  1  0
 12 19  1  0
M  CHG 1  13  -1
M  CHG 1  16  -1
M  CHG 1  30  -1
M  END
> <UniqueID>
78

> <SMILES>
C=c1c(=Cc2c(O)[n-]c(=S)[n-]c2=O)c(C)nn1CC(=O)N1CCC(C(=O)[N-]c2ccccc2C)CC1

> <Energy>
116.30135421106148

> <Genealogy>
C=c1c(=Cc2c(O)[n-]c(=S)[n-]c2=O)c(C)nn1CC(=O)N1CCC(C(=O)[N-]c2ccccc2C)CC1 (protonated)
C=c1c(=Cc2c(O)[n-]c(=S)[n-]c2=O)c(C)nn1CC(=O)N1CCC(C(=O)[N-]c2ccccc2C)CC1 (3D coordinates assigned)
C=c1c(=Cc2c(O)[n-]c(=S)[n-]c2=O)c(C)nn1CC(=O)N1CCC(C(=O)[N-]c2ccccc2C)CC1 (nonaromatic ring conformer: 116.30135421106148 kcal/mol)

> <smiles>
C=c1c(=Cc2c(O)[nH]c(=S)[nH]c2=O)c(C)nn1CC(=O)N1CCC(C(=O)Nc2ccccc2C)CC1

> <score_type>
oracle

> <origin>
adg

> <m_score__min__energy>
-16.309999999999999

> <m_primary>
energy

> <minimizedAffinity>
-9.10217

> <minimizedRMSD>
0.80517

> <CNNscore>
0.1499787420

> <CNNaffinity>
6.7415928841

> <CNN_VS>
1.0110956430

> <CNNaffinity_variance>
0.1518829018

$$$$
10:0


 32 35  0  0  0  0  0  0  0  0999 V2000
   58.3813   26.5774   44.9821 C   0  0  0  0  0  0  0  0  0  0  0  0
   58.3118   27.9067   45.2006 C   0  0  0  0  0  0  0  0  0  0  0  0
   58.2023   28.8216   44.1713 C   0  0  0  0  0  0  0  0  0  0  0  0
   58.0710   30.0644   44.7506 C   0  0  0  0  0  0  0  0  0  0  0  0
   57.9546   31.3416   43.9732 C   0  0  0  0  0  0  0  0  0  0  0  0
   58.1357   29.9716   46.1005 N   0  0  0  0  0  0  0  0  0  0  0  0
   58.3109   28.6520   46.3938 C   0  0  0  0  0  0  0  0  0  0  0  0
   58.5509   28.1837   47.6306 C   0  0  0  0  0  0  0  0  0  0  0  0
   55.4418   26.5602   45.9763 O   0  0  0  0  0  0  0  0  0  0  0  0
   56.3696   25.5398   46.1646 C   0  0  0  0  0  0  0  0  0  0  0  0
   56.0743   24.3759   46.7663 N   0  0  0  0  0  0  0  0  0  0  0  0
   57.2347   23.6912   46.6794 C   0  0  0  0  0  0  0  0  0  0  0  0
   57.3691   22.5246   47.1324 O   0  0  0  0  0  0  0  0  0  0  0  0
   58.2369   24.3502   46.0590 N   0  0  0  0  0  0  0  0  0  0  0  0
   57.6885   25.5387   45.7582 C   0  0  0  0  0  0  0  0  0  0  0  0
   54.5655   26.4609   46.2929 H   0  0  0  0  0  0  0  0  0  0  0  0
   58.0926   31.1145   47.0305 C   0  0  0  0  0  0  0  0  0  0  0  0
   59.4839   31.5209   47.4466 C   0  0  0  0  0  0  0  0  0  0  0  0
   59.6763   32.6055   48.3161 C   0  0  0  0  0  0  0  0  0  0  0  0
   60.9655   32.9886   48.6959 C   0  0  0  0  0  0  0  0  0  0  0  0
   62.0848   32.2827   48.2239 C   0  0  0  0  0  0  0  0  0  0  0  0
   61.8924   31.2089   47.3421 C   0  0  0  0  0  0  0  0  0  0  0  0
   60.6019   30.8272   46.9608 C   0  0  0  0  0  0  0  0  0  0  0  0
   63.4513   32.6871   48.6181 C   0  0  0  0  0  0  0  0  0  0  0  0
   64.2065   33.2183   47.7596 O   0  0  0  0  0  0  0  0  0  0  0  0
   63.9415   32.4804   49.9571 N   0  0  0  0  0  0  0  0  0  0  0  0
   63.6455   31.2203   50.6580 C   0  0  0  0  0  0  0  0  0  0  0  0
   64.7301   30.8985   51.6922 C   0  0  0  0  0  0  0  0  0  0  0  0
   64.9185   32.0573   52.6975 C   0  0  0  0  0  0  0  0  0  0  0  0
   66.2470   31.8945   53.4468 C   0  0  0  0  0  0  0  0  0  0  0  0
   64.8134   33.4598   52.0385 C   0  0  0  0  0  0  0  0  0  0  0  0
   64.9324   33.4123   50.5109 C   0  0  0  0  0  0  0  0  0  0  0  0
  9 10  1  0
 10 11  1  0
 11 12  1  0
 12 13  2  0
 12 14  1  0
 14 15  1  0
 15  1  1  0
  1  2  2  0
  2  3  1  0
  3  4  2  0
  4  5  1  0
  4  6  1  0
  6 17  1  0
 17 18  1  0
 18 19  2  0
 19 20  1  0
 20 21  2  0
 21 24  1  0
 24 25  2  0
 24 26  1  0
 26 27  1  0
 27 28  1  0
 28 29  1  0
 29 30  1  0
 29 31  1  0
 31 32  1  0
 21 22  1  0
 22 23  2  0
  6  7  1  0
  7  8  2  0
 15 10  2  0
  7  2  1  0
 23 18  1  0
 32 26  1  0
  9 16  1  0
M  CHG 1  11  -1
M  CHG 1  14  -1
M  END
> <UniqueID>
11

> <SMILES>
C=c1/c(=C\c2[n-]c(=O)[n-]c2O)cc(C)n1Cc1ccc(C(=O)N2CCC(C)CC2)cc1

> <Energy>
133.21345397439782

> <Genealogy>
C=c1c(=Cc2[n-]c(=O)[n-]c2O)cc(C)n1Cc1ccc(C(=O)N2CCC(C)CC2)cc1 (protonated)
C=c1/c(=C\c2[n-]c(=O)[n-]c2O)cc(C)n1Cc1ccc(C(=O)N2CCC(C)CC2)cc1 (cis-trans isomerization)
C=c1/c(=C\c2[n-]c(=O)[n-]c2O)cc(C)n1Cc1ccc(C(=O)N2CCC(C)CC2)cc1 (3D coordinates assigned)
C=c1/c(=C\c2[n-]c(=O)[n-]c2O)cc(C)n1Cc1ccc(C(=O)N2CCC(C)CC2)cc1 (nonaromatic ring conformer: 133.21345397439782 kcal/mol)

> <smiles>
C=c1c(=Cc2[nH]c(=O)[nH]c2O)cc(C)n1Cc1ccc(C(=O)N2CCC(C)CC2)cc1

> <score_type>
oracle

> <origin>
adg

> <m_score__min__energy>
-14.550000000000001

> <m_primary>
energy

> <minimizedAffinity>
-8.15318

> <minimizedRMSD>
0.74958

> <CNNscore>
0.2521008849

> <CNNaffinity>
6.8266129494

> <CNN_VS>
1.7209951878

> <CNNaffinity_variance>
0.3267572224

$$$$
17:0


 31 33  0  0  0  0  0  0  0  0999 V2000
   57.8440   31.0189   45.2278 C   0  0  0  0  0  0  0  0  0  0  0  0
   57.3863   32.2181   44.6704 C   0  0  0  0  0  0  0  0  0  0  0  0
   57.9951   33.4266   45.0099 C   0  0  0  0  0  0  0  0  0  0  0  0
   59.0669   33.4557   45.9085 C   0  0  0  0  0  0  0  0  0  0  0  0
   59.8517   35.1587   46.3141 Br  0  0  0  0  0  0  0  0  0  0  0  0
   59.5352   32.2526   46.4787 C   0  0  0  0  0  0  0  0  0  0  0  0
   58.9178   31.0402   46.1286 C   0  0  0  0  0  0  0  0  0  0  0  0
   57.0656   29.5044   44.7855 S   0  0  0  0  0  0  0  0  0  0  0  0
   55.6200   29.7721   44.4717 O   0  0  0  0  0  0  0  0  0  0  0  0
   57.7415   28.9080   43.5830 O   0  0  0  0  0  0  0  0  0  0  0  0
   57.1906   28.4050   46.1198 N   0  0  0  0  0  0  0  0  0  0  0  0
   58.0487   24.7644   46.1200 C   0  0  0  0  0  0  0  0  0  0  0  0
   59.4510   24.8164   46.1551 C   0  0  0  0  0  0  0  0  0  0  0  0
   60.1102   26.0466   46.1953 C   0  0  0  0  0  0  0  0  0  0  0  0
   59.3795   27.2348   46.1879 C   0  0  0  0  0  0  0  0  0  0  0  0
   57.9747   27.2035   46.1345 C   0  0  0  0  0  0  0  0  0  0  0  0
   57.3148   25.9650   46.0963 C   0  0  0  0  0  0  0  0  0  0  0  0
   55.9231   25.9321   46.0504 O   0  0  0  0  0  0  0  0  0  0  0  0
   57.3581   23.4591   46.0609 C   0  0  0  0  0  0  0  0  0  0  0  0
   57.0611   22.9747   44.9383 O   0  0  0  0  0  0  0  0  0  0  0  0
   56.3334   21.4372   47.2503 C   0  0  0  0  0  0  0  0  0  0  0  0
   56.9893   22.7383   47.2441 N   0  0  0  0  0  0  0  0  0  0  0  0
   60.8946   32.2449   47.6100 S   0  0  0  0  0  0  0  0  0  0  0  0
   61.3892   30.8331   47.7546 O   0  0  0  0  0  0  0  0  0  0  0  0
   62.0148   33.0915   47.0721 O   0  0  0  0  0  0  0  0  0  0  0  0
   60.3554   32.8648   49.1574 N   0  0  0  0  0  0  0  0  0  0  0  0
   59.0189   32.3558   49.5116 C   0  0  0  0  0  0  0  0  0  0  0  0
   59.0536   30.8768   49.9642 C   0  0  0  0  0  0  0  0  0  0  0  0
   60.3459   30.4266   50.3356 O   0  0  0  0  0  0  0  0  0  0  0  0
   61.0033   31.4086   51.1015 C   0  0  0  0  0  0  0  0  0  0  0  0
   61.3514   32.6250   50.2248 C   0  0  0  0  0  0  0  0  0  0  0  0
 21 22  1  0
 22 19  1  0
 19 20  2  0
 19 12  1  0
 12 13  2  0
 13 14  1  0
 14 15  2  0
 15 16  1  0
 16 11  1  0
 11  8  1  0
  8  9  2  0
  8 10  2  0
  8  1  1  0
  1  2  2  0
  2  3  1  0
  3  4  2  0
  4  5  1  0
  4  6  1  0
  6 23  1  0
 23 24  2  0
 23 25  2  0
 23 26  1  0
 26 27  1  0
 27 28  1  0
 28 29  1  0
 29 30  1  0
 30 31  1  0
  6  7  2  0
 16 17  2  0
 17 18  1  0
 17 12  1  0
  7  1  1  0
 31 26  1  0
M  CHG 1  11  -1
M  CHG 1  18  -1
M  CHG 1  22  -1
M  END
> <UniqueID>
18

> <SMILES>
C[N-]C(=O)c1cccc([N-]S(=O)(=O)c2ccc(Br)c(S(=O)(=O)N3CCOCC3)c2)c1[O-]

> <Energy>
70.49341816820562

> <Genealogy>
C[N-]C(=O)c1cccc([N-]S(=O)(=O)c2ccc(Br)c(S(=O)(=O)N3CCOCC3)c2)c1[O-] (protonated)
C[N-]C(=O)c1cccc([N-]S(=O)(=O)c2ccc(Br)c(S(=O)(=O)N3CCOCC3)c2)c1[O-] (3D coordinates assigned)
C[N-]C(=O)c1cccc([N-]S(=O)(=O)c2ccc(Br)c(S(=O)(=O)N3CCOCC3)c2)c1[O-] (nonaromatic ring conformer: 70.49341816820562 kcal/mol)

> <smiles>
CNC(=O)c1cccc(NS(=O)(=O)c2ccc(Br)c(S(=O)(=O)N3CCOCC3)c2)c1O

> <score_type>
oracle

> <origin>
adg

> <m_score__min__energy>
-17.16

> <m_primary>
energy

> <minimizedAffinity>
-7.09903

> <minimizedRMSD>
1.45880

> <CNNscore>
0.6851534247

> <CNNaffinity>
7.2743868828

> <CNN_VS>
4.9840712547

> <CNNaffinity_variance>
0.2432113141

$$$$
27:0


 27 29  0  0  0  0  0  0  0  0999 V2000
   58.6006   29.8554   45.7089 N   0  0  0  0  0  0  0  0  0  0  0  0
   59.4939   30.8026   46.1406 C   0  0  0  0  0  0  0  0  0  0  0  0
   60.7297   30.4152   46.6544 O   0  0  0  0  0  0  0  0  0  0  0  0
   59.1744   32.1715   46.0695 C   0  0  0  0  0  0  0  0  0  0  0  0
   57.9123   32.5245   45.5674 C   0  0  0  0  0  0  0  0  0  0  0  0
   57.5656   33.7322   45.4809 O   0  0  0  0  0  0  0  0  0  0  0  0
   57.0503   31.5596   45.1679 N   0  0  0  0  0  0  0  0  0  0  0  0
   57.3731   30.2439   45.2372 C   0  0  0  0  0  0  0  0  0  0  0  0
   56.5234   29.3901   44.8640 O   0  0  0  0  0  0  0  0  0  0  0  0
   58.9365   28.4235   45.8123 C   0  0  0  0  0  0  0  0  0  0  0  0
   58.8195   28.5094   48.1971 O   0  0  0  0  0  0  0  0  0  0  0  0
   58.5049   27.8886   47.1473 C   0  0  0  0  0  0  0  0  0  0  0  0
   57.6057   26.7771   47.2327 N   0  0  0  0  0  0  0  0  0  0  0  0
   57.5442   25.7353   46.4485 C   0  0  0  0  0  0  0  0  0  0  0  0
   58.7097   25.0991   46.1473 N   0  0  0  0  0  0  0  0  0  0  0  0
   58.7607   24.0005   45.3498 C   0  0  0  0  0  0  0  0  0  0  0  0
   57.5891   23.4826   44.8019 C   0  0  0  0  0  0  0  0  0  0  0  0
   56.3774   24.1152   45.0662 C   0  0  0  0  0  0  0  0  0  0  0  0
   56.3370   25.2535   45.8780 C   0  0  0  0  0  0  0  0  0  0  0  0
   55.1186   25.8944   46.0617 O   0  0  0  0  0  0  0  0  0  0  0  0
   60.1375   33.2238   46.5758 C   0  0  0  0  0  0  0  0  0  0  0  0
   60.2210   33.1849   48.0799 C   0  0  0  0  0  0  0  0  0  0  0  0
   59.1648   32.6468   48.8344 C   0  0  0  0  0  0  0  0  0  0  0  0
   59.2561   32.5821   50.2291 C   0  0  0  0  0  0  0  0  0  0  0  0
   60.4013   33.0482   50.8778 C   0  0  0  0  0  0  0  0  0  0  0  0
   61.4576   33.5812   50.1350 C   0  0  0  0  0  0  0  0  0  0  0  0
   61.3710   33.6487   48.7418 C   0  0  0  0  0  0  0  0  0  0  0  0
 11 12  2  0
 12 10  1  0
 10  1  1  0
  1  2  1  0
  2  3  1  0
  2  4  2  0
  4 21  1  0
 21 22  1  0
 22 23  2  0
 23 24  1  0
 24 25  2  0
 25 26  1  0
 26 27  2  0
  4  5  1  0
  5  6  2  0
  5  7  1  0
  7  8  1  0
  8  9  2  0
 12 13  1  0
 13 14  2  0
 14 15  1  0
 15 16  1  0
 16 17  2  0
 17 18  1  0
 18 19  2  0
 19 20  1  0
  8  1  1  0
 19 14  1  0
 27 22  1  0
M  CHG 1   3  -1
M  CHG 1   7  -1
M  CHG 1  15  -1
M  CHG 1  20  -1
M  END
> <UniqueID>
26

> <SMILES>
O=C(Cn1c([O-])c(Cc2ccccc2)c(=O)[n-]c1=O)N=c1[n-]cccc1[O-]

> <Energy>
58.97317691397178

> <Genealogy>
O=C(Cn1c([O-])c(Cc2ccccc2)c(=O)[n-]c1=O)N=c1[n-]cccc1[O-] (protonated)
O=C(Cn1c([O-])c(Cc2ccccc2)c(=O)[n-]c1=O)N=c1[n-]cccc1[O-] (3D coordinates assigned)
O=C(Cn1c([O-])c(Cc2ccccc2)c(=O)[n-]c1=O)N=c1[n-]cccc1[O-] (optimized conformer: 58.97317691397178 kcal/mol)

> <smiles>
O=C(Cn1c(O)c(Cc2ccccc2)c(=O)[nH]c1=O)N=c1[nH]cccc1O

> <score_type>
oracle

> <origin>
adg

> <m_score__min__energy>
-16.5

> <m_primary>
energy

> <minimizedAffinity>
-8.11681

> <minimizedRMSD>
0.92964

> <CNNscore>
0.6967238784

> <CNNaffinity>
6.7548422813

> <CNN_VS>
4.7062597275

> <CNNaffinity_variance>
0.3873231411

$$$$
31:0


 24 25  0  0  0  0  0  0  0  0999 V2000
   58.7103   32.3123   45.6893 C   0  0  0  0  0  0  0  0  0  0  0  0
   58.0764   31.8958   44.5080 C   0  0  0  0  0  0  0  0  0  0  0  0
   57.6727   30.5672   44.3550 C   0  0  0  0  0  0  0  0  0  0  0  0
   57.8965   29.6266   45.3747 C   0  0  0  0  0  0  0  0  0  0  0  0
   58.5714   30.0353   46.5451 C   0  0  0  0  0  0  0  0  0  0  0  0
   58.8714   29.1189   47.5515 O   0  0  0  0  0  0  0  0  0  0  0  0
   58.9687   31.3731   46.6908 C   0  0  0  0  0  0  0  0  0  0  0  0
   58.6100   28.2235   47.4629 H   0  0  0  0  0  0  0  0  0  0  0  0
   57.4215   28.2341   45.1791 C   0  0  0  0  0  0  0  0  0  0  0  0
   56.1815   28.0071   45.1793 O   0  0  0  0  0  0  0  0  0  0  0  0
   58.3629   27.0675   45.0182 C   0  0  0  0  0  0  0  0  0  0  0  0
   58.0990   25.9982   46.0411 C   0  0  0  0  0  0  0  0  0  0  0  0
   58.4189   26.2089   47.2416 O   0  0  0  0  0  0  0  0  0  0  0  0
   57.4626   24.7183   45.6666 C   0  0  0  0  0  0  0  0  0  0  0  0
   58.2674   23.3525   45.0828 S   0  0  0  0  0  0  0  0  0  0  0  0
   56.8486   22.4659   44.9370 C   0  0  0  0  0  0  0  0  0  0  0  0
   56.7914   21.2812   44.5198 O   0  0  0  0  0  0  0  0  0  0  0  0
   55.7588   23.1661   45.3175 N   0  0  0  0  0  0  0  0  0  0  0  0
   56.0988   24.4175   45.7234 C   0  0  0  0  0  0  0  0  0  0  0  0
   55.1390   25.3224   46.1587 O   0  0  0  0  0  0  0  0  0  0  0  0
   59.1375   33.6346   45.8844 O   0  0  0  0  0  0  0  0  0  0  0  0
   61.4253   33.7515   46.8735 C   0  0  0  0  0  0  0  0  0  0  0  0
   59.9712   34.0718   46.9233 C   0  0  0  0  0  0  0  0  0  0  0  0
   59.4956   34.6424   47.9408 O   0  0  0  0  0  0  0  0  0  0  0  0
 22 23  1  0
 23 24  2  0
 23 21  1  0
 21  1  1  0
  1  2  2  0
  2  3  1  0
  3  4  2  0
  4  9  1  0
  9 10  2  0
  9 11  1  0
 11 12  1  0
 12 13  2  0
 12 14  1  0
 14 15  1  0
 15 16  1  0
 16 17  2  0
 16 18  1  0
 18 19  1  0
 19 20  1  0
  4  5  1  0
  5  6  1  0
  5  7  2  0
  7  1  1  0
 19 14  2  0
  6  8  1  0
M  CHG 1  18  -1
M  CHG 1  20  -1
M  END
> <UniqueID>
30

> <SMILES>
CC(=O)Oc1ccc(C(=O)CC(=O)c2sc(=O)[n-]c2[O-])c(O)c1

> <Energy>
69.18748421777781

> <Genealogy>
CC(=O)Oc1ccc(C(=O)CC(=O)c2sc(=O)[n-]c2[O-])c(O)c1 (protonated)
CC(=O)Oc1ccc(C(=O)CC(=O)c2sc(=O)[n-]c2[O-])c(O)c1 (3D coordinates assigned)
CC(=O)Oc1ccc(C(=O)CC(=O)c2sc(=O)[n-]c2[O-])c(O)c1 (optimized conformer: 69.18748421777781 kcal/mol)

> <smiles>
CC(=O)Oc1ccc(C(=O)CC(=O)c2sc(=O)[nH]c2O)c(O)c1

> <score_type>
oracle

> <origin>
adg

> <m_score__min__energy>
-14.050000000000001

> <m_primary>
energy

> <minimizedAffinity>
-6.27965

> <minimizedRMSD>
1.66343

> <CNNscore>
0.3991651237

> <CNNaffinity>
5.9505405426

> <CNN_VS>
2.3752481937

> <CNNaffinity_variance>
0.2345294207

$$$$
35:0


 25 27  0  0  0  0  0  0  0  0999 V2000
   60.7323   26.4016   46.5716 C   0  0  0  0  0  0  0  0  0  0  0  0
   60.0485   27.5461   46.7406 C   0  0  0  0  0  0  0  0  0  0  0  0
   60.5590   28.4182   47.6433 N   0  0  0  0  0  0  0  0  0  0  0  0
   59.9674   29.5949   47.9462 C   0  0  0  0  0  0  0  0  0  0  0  0
   60.4983   30.3322   48.8184 O   0  0  0  0  0  0  0  0  0  0  0  0
   58.8194   29.9734   47.3077 N   0  0  0  0  0  0  0  0  0  0  0  0
   58.2633   29.1491   46.3603 C   0  0  0  0  0  0  0  0  0  0  0  0
   57.2661   29.5641   45.7058 O   0  0  0  0  0  0  0  0  0  0  0  0
   58.8261   27.8693   46.0734 C   0  0  0  0  0  0  0  0  0  0  0  0
   58.2449   27.0109   45.1849 C   0  0  0  0  0  0  0  0  0  0  0  0
   57.7320   25.6569   45.4941 C   0  0  0  0  0  0  0  0  0  0  0  0
   58.5306   24.5237   45.2491 C   0  0  0  0  0  0  0  0  0  0  0  0
   58.0321   23.2425   45.5009 C   0  0  0  0  0  0  0  0  0  0  0  0
   58.8323   22.1282   45.2752 O   0  0  0  0  0  0  0  0  0  0  0  0
   56.7264   23.0804   45.9756 C   0  0  0  0  0  0  0  0  0  0  0  0
   55.9174   24.1984   46.1925 C   0  0  0  0  0  0  0  0  0  0  0  0
   56.4119   25.4844   45.9468 C   0  0  0  0  0  0  0  0  0  0  0  0
   55.5905   26.5866   46.1621 O   0  0  0  0  0  0  0  0  0  0  0  0
   58.1552   31.2458   47.6603 C   0  0  0  0  0  0  0  0  0  0  0  0
   58.6484   32.3556   46.7687 C   0  0  0  0  0  0  0  0  0  0  0  0
   57.9416   32.6922   45.6016 C   0  0  0  0  0  0  0  0  0  0  0  0
   58.4202   33.6927   44.7513 C   0  0  0  0  0  0  0  0  0  0  0  0
   59.6102   34.3608   45.0555 C   0  0  0  0  0  0  0  0  0  0  0  0
   60.3227   34.0291   46.2109 C   0  0  0  0  0  0  0  0  0  0  0  0
   59.8462   33.0290   47.0641 C   0  0  0  0  0  0  0  0  0  0  0  0
  1  2  2  0
  2  3  1  0
  3  4  1  0
  4  5  2  0
  4  6  1  0
  6 19  1  0
 19 20  1  0
 20 21  2  0
 21 22  1  0
 22 23  2  0
 23 24  1  0
 24 25  2  0
  6  7  1  0
  7  8  2  0
  7  9  1  0
  9 10  2  0
 10 11  1  0
 11 12  2  0
 12 13  1  0
 13 14  1  0
 13 15  2  0
 15 16  1  0
 16 17  2  0
 17 18  1  0
  9  2  1  0
 17 11  1  0
 25 20  1  0
M  CHG 1   3  -1
M  CHG 1  14  -1
M  CHG 1  18  -1
M  END
> <UniqueID>
33

> <SMILES>
C=c1[n-]c(=O)n(Cc2ccccc2)c(=O)c1=Cc1cc([O-])ccc1[O-]

> <Energy>
65.87369111201755

> <Genealogy>
C=c1[n-]c(=O)n(Cc2ccccc2)c(=O)c1=Cc1cc([O-])ccc1[O-] (protonated)
C=c1[n-]c(=O)n(Cc2ccccc2)c(=O)c1=Cc1cc([O-])ccc1[O-] (3D coordinates assigned)
C=c1[n-]c(=O)n(Cc2ccccc2)c(=O)c1=Cc1cc([O-])ccc1[O-] (optimized conformer: 65.87369111201755 kcal/mol)

> <smiles>
C=c1[nH]c(=O)n(Cc2ccccc2)c(=O)c1=Cc1cc(O)ccc1O

> <score_type>
oracle

> <origin>
adg

> <m_score__min__energy>
-14.359999999999999

> <m_primary>
energy

> <minimizedAffinity>
-7.04626

> <minimizedRMSD>
0.54477

> <CNNscore>
0.4319758415

> <CNNaffinity>
6.2708725929

> <CNN_VS>
2.7088654041

> <CNNaffinity_variance>
0.0537548065

$$$$
57:0


 36 40  0  0  0  0  0  0  0  0999 V2000
   59.5600   29.4659   44.9591 C   0  0  0  0  0  0  0  0  0  0  0  0
   59.4893   28.8716   46.1609 C   0  0  0  0  0  0  0  0  0  0  0  0
   58.8838   27.6354   46.4491 C   0  0  0  0  0  0  0  0  0  0  0  0
   58.0988   26.8376   45.6964 C   0  0  0  0  0  0  0  0  0  0  0  0
   59.2318   27.3255   47.7521 C   0  0  0  0  0  0  0  0  0  0  0  0
   59.9695   28.3848   48.2267 C   0  0  0  0  0  0  0  0  0  0  0  0
   60.1274   29.3318   47.2723 N   0  0  0  0  0  0  0  0  0  0  0  0
   60.5264   28.4594   49.5896 C   0  0  0  0  0  0  0  0  0  0  0  0
   61.0426   27.4133   50.0648 O   0  0  0  0  0  0  0  0  0  0  0  0
   60.5036   29.6941   50.3606 N   0  0  0  0  0  0  0  0  0  0  0  0
   61.6897   30.2749   50.7353 C   0  0  0  0  0  0  0  0  0  0  0  0
   61.7193   31.4391   51.5010 C   0  0  0  0  0  0  0  0  0  0  0  0
   60.5237   32.0360   51.8975 C   0  0  0  0  0  0  0  0  0  0  0  0
   60.5334   33.2017   52.6803 C   0  0  0  0  0  0  0  0  0  0  0  0
   59.3295   33.7894   53.0789 C   0  0  0  0  0  0  0  0  0  0  0  0
   58.1118   33.2206   52.6980 C   0  0  0  0  0  0  0  0  0  0  0  0
   58.0917   32.0620   51.9190 C   0  0  0  0  0  0  0  0  0  0  0  0
   59.2967   31.4546   51.5096 C   0  0  0  0  0  0  0  0  0  0  0  0
   59.3099   30.2789   50.7296 C   0  0  0  0  0  0  0  0  0  0  0  0
   58.2102   29.7752   50.3638 O   0  0  0  0  0  0  0  0  0  0  0  0
   57.4561   25.5963   46.1518 C   0  0  0  0  0  0  0  0  0  0  0  0
   58.0996   24.4309   46.3502 N   0  0  0  0  0  0  0  0  0  0  0  0
   57.0998   23.5707   46.6391 C   0  0  0  0  0  0  0  0  0  0  0  0
   57.3052   22.3565   46.8996 O   0  0  0  0  0  0  0  0  0  0  0  0
   55.8606   24.1099   46.6153 N   0  0  0  0  0  0  0  0  0  0  0  0
   56.1050   25.3909   46.2909 C   0  0  0  0  0  0  0  0  0  0  0  0
   55.1152   26.3557   46.1264 O   0  0  0  0  0  0  0  0  0  0  0  0
   54.2139   26.1266   46.2411 H   0  0  0  0  0  0  0  0  0  0  0  0
   60.9710   30.5322   47.4053 C   0  0  0  0  0  0  0  0  0  0  0  0
   60.1400   31.7339   47.8727 C   0  0  0  0  0  0  0  0  0  0  0  0
   59.6056   32.4746   46.7101 N   0  0  0  0  0  0  0  0  0  0  0  0
   60.2607   33.7942   46.5640 C   0  0  0  0  0  0  0  0  0  0  0  0
   59.5684   34.6827   45.5048 C   0  0  0  0  0  0  0  0  0  0  0  0
   58.6323   33.8677   44.6074 C   0  0  0  0  0  0  0  0  0  0  0  0
   57.5776   33.1258   45.4435 C   0  0  0  0  0  0  0  0  0  0  0  0
   58.1404   32.6244   46.7887 C   0  0  0  0  0  0  0  0  0  0  0  0
  1  2  2  0
  2  3  1  0
  3  4  2  0
  4 21  1  0
 21 22  1  0
 22 23  1  0
 23 24  2  0
 23 25  1  0
 25 26  1  0
 26 27  1  0
  3  5  1  0
  5  6  2  0
  6  8  1  0
  8  9  2  0
  8 10  1  0
 10 11  1  0
 11 12  2  0
 12 13  1  0
 13 14  2  0
 14 15  1  0
 15 16  2  0
 16 17  1  0
 17 18  2  0
 18 19  1  0
 19 20  2  0
  6  7  1  0
  7 29  1  0
 29 30  1  0
 30 31  1  0
 31 32  1  0
 32 33  1  0
 33 34  1  0
 34 35  1  0
 35 36  1  0
  7  2  1  0
 36 31  1  0
 26 21  2  0
 19 10  1  0
 18 13  1  0
 27 28  1  0
M  CHG 1  22  -1
M  CHG 1  25  -1
M  END
> <UniqueID>
54

> <SMILES>
C=c1c(=Cc2[n-]c(=O)[n-]c2O)cc(C(=O)n2ccc3ccccc3c2=O)n1CCN1CCCCC1

> <Energy>
154.04557961518134

> <Genealogy>
C=c1c(=Cc2[n-]c(=O)[n-]c2O)cc(C(=O)n2ccc3ccccc3c2=O)n1CCN1CCCCC1 (protonated)
C=c1c(=Cc2[n-]c(=O)[n-]c2O)cc(C(=O)n2ccc3ccccc3c2=O)n1CCN1CCCCC1 (3D coordinates assigned)
C=c1c(=Cc2[n-]c(=O)[n-]c2O)cc(C(=O)n2ccc3ccccc3c2=O)n1CCN1CCCCC1 (nonaromatic ring conformer: 154.04557961518134 kcal/mol)

> <smiles>
C=c1c(=Cc2[nH]c(=O)[nH]c2O)cc(C(=O)n2ccc3ccccc3c2=O)n1CCN1CCCCC1

> <score_type>
oracle

> <origin>
adg

> <m_score__min__energy>
-14.23

> <m_primary>
energy

> <minimizedAffinity>
-9.95070

> <minimizedRMSD>
0.49501

> <CNNscore>
0.6427915692

> <CNNaffinity>
7.4972991943

> <CNN_VS>
4.8192005157

> <CNNaffinity_variance>
0.0165225398

$$$$
76:0


 34 37  0  0  0  0  0  0  0  0999 V2000
   59.3645   32.7283   47.8007 C   0  0  0  0  0  0  0  0  0  0  0  0
   58.7175   33.8001   47.9486 O   0  0  0  0  0  0  0  0  0  0  0  0
   60.2965   32.3143   48.8200 N   0  0  0  0  0  0  0  0  0  0  0  0
   60.1045   32.8019   50.1937 C   0  0  0  0  0  0  0  0  0  0  0  0
   61.1080   32.1668   51.1592 C   0  0  0  0  0  0  0  0  0  0  0  0
   62.4597   32.2683   50.5965 N   0  0  0  0  0  0  0  0  0  0  0  0
   63.4890   32.9703   51.3182 C   0  0  0  0  0  0  0  0  0  0  0  0
   63.1952   34.0192   51.9547 O   0  0  0  0  0  0  0  0  0  0  0  0
   62.6988   31.8734   49.1998 C   0  0  0  0  0  0  0  0  0  0  0  0
   61.4127   31.4044   48.5082 C   0  0  0  0  0  0  0  0  0  0  0  0
   59.2475   28.8630   44.8376 C   0  0  0  0  0  0  0  0  0  0  0  0
   59.0399   30.1263   45.2620 C   0  0  0  0  0  0  0  0  0  0  0  0
   59.5926   30.6175   46.4303 C   0  0  0  0  0  0  0  0  0  0  0  0
   59.1050   31.8962   46.6042 C   0  0  0  0  0  0  0  0  0  0  0  0
   58.3033   32.2385   45.5658 N   0  0  0  0  0  0  0  0  0  0  0  0
   57.6498   33.5366   45.3597 C   0  0  0  0  0  0  0  0  0  0  0  0
   58.2647   31.1686   44.7274 C   0  0  0  0  0  0  0  0  0  0  0  0
   57.6374   31.1864   43.5396 C   0  0  0  0  0  0  0  0  0  0  0  0
   56.1902   28.4520   45.1875 O   0  0  0  0  0  0  0  0  0  0  0  0
   57.1776   27.5192   45.4943 C   0  0  0  0  0  0  0  0  0  0  0  0
   56.9159   26.3238   46.0468 N   0  0  0  0  0  0  0  0  0  0  0  0
   58.1475   25.7923   46.2086 C   0  0  0  0  0  0  0  0  0  0  0  0
   58.3329   24.6566   46.7157 O   0  0  0  0  0  0  0  0  0  0  0  0
   59.1639   26.5802   45.7959 N   0  0  0  0  0  0  0  0  0  0  0  0
   58.5392   27.6680   45.3142 C   0  0  0  0  0  0  0  0  0  0  0  0
   55.2895   28.2512   45.3497 H   0  0  0  0  0  0  0  0  0  0  0  0
   64.8922   32.5009   51.3094 C   0  0  0  0  0  0  0  0  0  0  0  0
   65.1854   31.1460   51.5464 C   0  0  0  0  0  0  0  0  0  0  0  0
   66.5090   30.6987   51.5363 C   0  0  0  0  0  0  0  0  0  0  0  0
   67.5508   31.5921   51.2779 C   0  0  0  0  0  0  0  0  0  0  0  0
   67.2703   32.9400   51.0194 C   0  0  0  0  0  0  0  0  0  0  0  0
   65.9435   33.3911   51.0286 C   0  0  0  0  0  0  0  0  0  0  0  0
   68.3441   33.8575   50.7420 C   0  0  0  0  0  0  0  0  0  0  0  0
   69.2062   34.5964   50.5180 N   0  0  0  0  0  0  0  0  0  0  0  0
 19 20  1  0
 20 21  1  0
 21 22  1  0
 22 23  2  0
 22 24  1  0
 24 25  1  0
 25 11  1  0
 11 12  2  0
 12 13  1  0
 13 14  2  0
 14  1  1  0
  1  2  2  0
  1  3  1  0
  3  4  1  0
  4  5  1  0
  5  6  1  0
  6  7  1  0
  7  8  2  0
  7 27  1  0
 27 28  2  0
 28 29  1  0
 29 30  2  0
 30 31  1  0
 31 33  1  0
 33 34  3  0
 31 32  2  0
  6  9  1  0
  9 10  1  0
 14 15  1  0
 15 16  1  0
 15 17  1  0
 17 18  2  0
 25 20  2  0
 17 12  1  0
 10  3  1  0
 32 27  1  0
 19 26  1  0
M  CHG 1  21  -1
M  CHG 1  24  -1
M  END
> <UniqueID>
71

> <SMILES>
C=c1/c(=C\c2[n-]c(=O)[n-]c2O)cc(C(=O)N2CCN(C(=O)c3cccc(C#N)c3)CC2)n1C

> <Energy>
136.26763404748237

> <Genealogy>
C=c1c(=Cc2[n-]c(=O)[n-]c2O)cc(C(=O)N2CCN(C(=O)c3cccc(C#N)c3)CC2)n1C (protonated)
C=c1/c(=C\c2[n-]c(=O)[n-]c2O)cc(C(=O)N2CCN(C(=O)c3cccc(C#N)c3)CC2)n1C (cis-trans isomerization)
C=c1/c(=C\c2[n-]c(=O)[n-]c2O)cc(C(=O)N2CCN(C(=O)c3cccc(C#N)c3)CC2)n1C (3D coordinates assigned)
C=c1/c(=C\c2[n-]c(=O)[n-]c2O)cc(C(=O)N2CCN(C(=O)c3cccc(C#N)c3)CC2)n1C (nonaromatic ring conformer: 136.26763404748237 kcal/mol)

> <smiles>
C=c1c(=Cc2[nH]c(=O)[nH]c2O)cc(C(=O)N2CCN(C(=O)c3cccc(C#N)c3)CC2)n1C

> <score_type>
oracle

> <origin>
adg

> <m_score__min__energy>
-14.1

> <m_primary>
energy

> <minimizedAffinity>
-9.17406

> <minimizedRMSD>
0.89088

> <CNNscore>
0.6059814095

> <CNNaffinity>
7.0013122559

> <CNN_VS>
4.2426652908

> <CNNaffinity_variance>
0.0425593965

$$$$
5:0


 34 36  0  0  0  0  0  0  0  0999 V2000
   59.0169   30.2576   53.1051 N   0  0  0  0  0  0  0  0  0  0  0  0
   60.2973   30.6190   52.7400 C   0  0  0  0  0  0  0  0  0  0  0  0
   61.3201   30.7704   53.6858 O   0  0  0  0  0  0  0  0  0  0  0  0
   60.6192   30.8274   51.3857 C   0  0  0  0  0  0  0  0  0  0  0  0
   59.6250   30.5982   50.4284 C   0  0  0  0  0  0  0  0  0  0  0  0
   59.8646   30.7367   49.1992 O   0  0  0  0  0  0  0  0  0  0  0  0
   58.3956   30.2011   50.8205 N   0  0  0  0  0  0  0  0  0  0  0  0
   58.0764   30.0166   52.1277 C   0  0  0  0  0  0  0  0  0  0  0  0
   56.8859   29.5888   52.4470 N   0  0  0  0  0  0  0  0  0  0  0  0
   61.1400   30.6390   54.5959 H   0  0  0  0  0  0  0  0  0  0  0  0
   58.1942   31.3897   55.1422 C   0  0  0  0  0  0  0  0  0  0  0  0
   58.6579   30.0715   54.5283 C   0  0  0  0  0  0  0  0  0  0  0  0
   62.0258   31.1863   50.9669 C   0  0  0  0  0  0  0  0  0  0  0  0
   62.2541   32.6510   51.1711 C   0  0  0  0  0  0  0  0  0  0  0  0
   62.2802   33.1213   52.3404 O   0  0  0  0  0  0  0  0  0  0  0  0
   62.4372   33.5003   50.0318 N   0  0  0  0  0  0  0  0  0  0  0  0
   61.5309   33.6547   48.9306 C   0  0  0  0  0  0  0  0  0  0  0  0
   60.2015   34.0710   49.1132 C   0  0  0  0  0  0  0  0  0  0  0  0
   59.3348   34.1708   48.0205 C   0  0  0  0  0  0  0  0  0  0  0  0
   59.7767   33.8480   46.7227 C   0  0  0  0  0  0  0  0  0  0  0  0
   61.1052   33.4128   46.5530 C   0  0  0  0  0  0  0  0  0  0  0  0
   61.9669   33.3086   47.6488 C   0  0  0  0  0  0  0  0  0  0  0  0
   58.8717   33.9531   45.5476 C   0  0  0  0  0  0  0  0  0  0  0  0
   57.4360   33.5200   45.6115 C   0  0  0  0  0  0  0  0  0  0  0  0
   59.3072   34.4262   44.4617 O   0  0  0  0  0  0  0  0  0  0  0  0
   55.6369   30.3329   52.2756 C   0  0  0  0  0  0  0  0  0  0  0  0
   54.4254   29.4775   52.6708 C   0  0  0  0  0  0  0  0  0  0  0  0
   53.1584   30.2893   52.7463 C   0  0  0  0  0  0  0  0  0  0  0  0
   52.4310   30.3551   53.9471 C   0  0  0  0  0  0  0  0  0  0  0  0
   51.2900   31.1573   54.0355 C   0  0  0  0  0  0  0  0  0  0  0  0
   50.8651   31.8992   52.9299 C   0  0  0  0  0  0  0  0  0  0  0  0
   49.7325   32.6974   53.0217 O   0  0  0  0  0  0  0  0  0  0  0  0
   51.5833   31.8378   51.7298 C   0  0  0  0  0  0  0  0  0  0  0  0
   52.7261   31.0372   51.6376 C   0  0  0  0  0  0  0  0  0  0  0  0
 11 12  1  0
 12  1  1  0
  1  2  1  0
  2  3  1  0
  2  4  2  0
  4 13  1  0
 13 14  1  0
 14 15  2  0
 14 16  1  0
 16 17  1  0
 17 18  2  0
 18 19  1  0
 19 20  2  0
 20 23  1  0
 23 24  1  0
 23 25  2  0
 20 21  1  0
 21 22  2  0
  4  5  1  0
  5  6  2  0
  5  7  1  0
  7  8  1  0
  8  9  2  0
  9 26  1  0
 26 27  1  0
 27 28  1  0
 28 29  2  0
 29 30  1  0
 30 31  2  0
 31 32  1  0
 31 33  1  0
 33 34  2  0
  8  1  1  0
 34 28  1  0
 22 17  1  0
  3 10  1  0
M  CHG 1   7  -1
M  CHG 1  16  -1
M  CHG 1  32  -1
M  END
> <UniqueID>
6

> <SMILES>
CCn1c(O)c(CC(=O)[N-]c2ccc(C(C)=O)cc2)c(=O)[n-]c1=NCCc1ccc([O-])cc1

> <Energy>
58.99547236252908

> <Genealogy>
CCn1c(O)c(CC(=O)[N-]c2ccc(C(C)=O)cc2)c(=O)[n-]c1=NCCc1ccc([O-])cc1 (protonated)
CCn1c(O)c(CC(=O)[N-]c2ccc(C(C)=O)cc2)c(=O)[n-]c1=NCCc1ccc([O-])cc1 (3D coordinates assigned)
CCn1c(O)c(CC(=O)[N-]c2ccc(C(C)=O)cc2)c(=O)[n-]c1=NCCc1ccc([O-])cc1 (optimized conformer: 58.99547236252908 kcal/mol)

> <smiles>
CCn1c(O)c(CC(=O)Nc2ccc(C(C)=O)cc2)c(=O)[nH]c1=NCCc1ccc(O)cc1

> <score_type>
oracle

> <origin>
adg

> <m_score__min__energy>
-15.09

> <m_primary>
energy

> <minimizedAffinity>
-7.44349

> <minimizedRMSD>
0.83802

> <CNNscore>
0.3075622022

> <CNNaffinity>
5.8629508018

> <CNN_VS>
1.8032220602

> <CNNaffinity_variance>
0.5214042068

$$$$
6:0


 32 34  0  0  0  0  0  0  0  0999 V2000
   60.1149   29.1152   49.1027 C   0  0  0  0  0  0  0  0  0  0  0  0
   58.8653   29.2271   49.2068 O   0  0  0  0  0  0  0  0  0  0  0  0
   60.6968   27.7859   48.7180 C   0  0  0  0  0  0  0  0  0  0  0  0
   59.6152   26.8330   48.4868 N   0  0  0  0  0  0  0  0  0  0  0  0
   57.9956   25.7768   47.2127 O   0  0  0  0  0  0  0  0  0  0  0  0
   59.0117   26.5217   47.2232 C   0  0  0  0  0  0  0  0  0  0  0  0
   59.5607   27.0725   45.9296 C   0  0  0  0  0  0  0  0  0  0  0  0
   59.0066   28.4387   45.5974 C   0  0  0  0  0  0  0  0  0  0  0  0
   59.8459   29.5634   45.6566 C   0  0  0  0  0  0  0  0  0  0  0  0
   59.3451   30.8358   45.3706 C   0  0  0  0  0  0  0  0  0  0  0  0
   58.0012   30.9982   45.0308 C   0  0  0  0  0  0  0  0  0  0  0  0
   57.1488   29.8906   44.9826 C   0  0  0  0  0  0  0  0  0  0  0  0
   55.8116   30.0728   44.6508 O   0  0  0  0  0  0  0  0  0  0  0  0
   57.6449   28.6071   45.2726 C   0  0  0  0  0  0  0  0  0  0  0  0
   56.7971   27.4988   45.2462 O   0  0  0  0  0  0  0  0  0  0  0  0
   55.8916   27.6065   45.0308 H   0  0  0  0  0  0  0  0  0  0  0  0
   60.9416   30.2183   49.4973 N   0  0  0  0  0  0  0  0  0  0  0  0
   61.2988   31.3337   48.6713 C   0  0  0  0  0  0  0  0  0  0  0  0
   62.5413   31.3643   48.0177 C   0  0  0  0  0  0  0  0  0  0  0  0
   62.8787   32.4368   47.1917 C   0  0  0  0  0  0  0  0  0  0  0  0
   61.9753   33.4805   46.9960 C   0  0  0  0  0  0  0  0  0  0  0  0
   60.7199   33.4523   47.6127 C   0  0  0  0  0  0  0  0  0  0  0  0
   59.6429   34.8265   47.3731 Cl  0  0  0  0  0  0  0  0  0  0  0  0
   60.3635   32.3652   48.4389 C   0  0  0  0  0  0  0  0  0  0  0  0
   59.0410   32.3206   49.0981 C   0  0  0  0  0  0  0  0  0  0  0  0
   58.0121   32.1840   48.3818 O   0  0  0  0  0  0  0  0  0  0  0  0
   58.9085   32.4555   50.5273 N   0  0  0  0  0  0  0  0  0  0  0  0
   59.9727   33.0751   51.3259 C   0  0  0  0  0  0  0  0  0  0  0  0
   59.3684   33.7652   52.5523 C   0  0  0  0  0  0  0  0  0  0  0  0
   58.5312   32.8754   53.2659 O   0  0  0  0  0  0  0  0  0  0  0  0
   57.4103   32.5348   52.4717 C   0  0  0  0  0  0  0  0  0  0  0  0
   57.8390   31.7422   51.2342 C   0  0  0  0  0  0  0  0  0  0  0  0
  5  6  2  0
  6  7  1  0
  7  8  1  0
  8  9  2  0
  9 10  1  0
 10 11  2  0
 11 12  1  0
 12 13  1  0
 12 14  2  0
 14 15  1  0
  6  4  1  0
  4  3  1  0
  3  1  1  0
  1  2  2  0
  1 17  1  0
 17 18  1  0
 18 19  2  0
 19 20  1  0
 20 21  2  0
 21 22  1  0
 22 23  1  0
 22 24  2  0
 24 25  1  0
 25 26  2  0
 25 27  1  0
 27 28  1  0
 28 29  1  0
 29 30  1  0
 30 31  1  0
 31 32  1  0
 14  8  1  0
 24 18  1  0
 32 27  1  0
 15 16  1  0
M  CHG 1   4  -1
M  CHG 1  13  -1
M  CHG 1  17  -1
M  END
> <UniqueID>
7

> <SMILES>
O=C(Cc1cccc([O-])c1O)[N-]CC(=O)[N-]c1cccc(Cl)c1C(=O)N1CCOCC1

> <Energy>
64.02317680127918

> <Genealogy>
O=C(Cc1cccc([O-])c1O)[N-]CC(=O)[N-]c1cccc(Cl)c1C(=O)N1CCOCC1 (protonated)
O=C(Cc1cccc([O-])c1O)[N-]CC(=O)[N-]c1cccc(Cl)c1C(=O)N1CCOCC1 (3D coordinates assigned)
O=C(Cc1cccc([O-])c1O)[N-]CC(=O)[N-]c1cccc(Cl)c1C(=O)N1CCOCC1 (nonaromatic ring conformer: 64.02317680127918 kcal/mol)

> <smiles>
O=C(Cc1cccc(O)c1O)NCC(=O)Nc1cccc(Cl)c1C(=O)N1CCOCC1

> <score_type>
oracle

> <origin>
adg

> <m_score__min__energy>
-15.32

> <m_primary>
energy

> <minimizedAffinity>
-7.00056

> <minimizedRMSD>
0.85690

> <CNNscore>
0.8702410460

> <CNNaffinity>
7.6822834015

> <CNN_VS>
6.6854381561

> <CNNaffinity_variance>
0.6131732464

$$$$
13:0


 29 31  0  0  0  0  0  0  0  0999 V2000
   59.3427   27.3781   47.4758 C   0  0  0  0  0  0  0  0  0  0  0  0
   58.8319   28.0273   46.4160 C   0  0  0  0  0  0  0  0  0  0  0  0
   58.3162   27.4330   45.2542 C   0  0  0  0  0  0  0  0  0  0  0  0
   58.2393   26.1108   44.9875 C   0  0  0  0  0  0  0  0  0  0  0  0
   57.8794   28.4784   44.4526 C   0  0  0  0  0  0  0  0  0  0  0  0
   58.1280   29.6456   45.1428 C   0  0  0  0  0  0  0  0  0  0  0  0
   58.7129   29.3816   46.3351 N   0  0  0  0  0  0  0  0  0  0  0  0
   57.5059   25.1025   45.7891 C   0  0  0  0  0  0  0  0  0  0  0  0
   57.9641   23.8892   46.1512 N   0  0  0  0  0  0  0  0  0  0  0  0
   56.9184   23.3344   46.7958 C   0  0  0  0  0  0  0  0  0  0  0  0
   56.9628   22.1747   47.2859 O   0  0  0  0  0  0  0  0  0  0  0  0
   55.8194   24.1152   46.8708 N   0  0  0  0  0  0  0  0  0  0  0  0
   56.2091   25.2280   46.2281 C   0  0  0  0  0  0  0  0  0  0  0  0
   55.3894   26.3328   46.0337 O   0  0  0  0  0  0  0  0  0  0  0  0
   57.7667   30.9849   44.6389 C   0  0  0  0  0  0  0  0  0  0  0  0
   57.9802   31.2827   43.4331 O   0  0  0  0  0  0  0  0  0  0  0  0
   57.1155   31.9393   45.4861 N   0  0  0  0  0  0  0  0  0  0  0  0
   57.4501   33.3641   45.4960 C   0  0  0  0  0  0  0  0  0  0  0  0
   58.6604   33.6434   46.3420 C   0  0  0  0  0  0  0  0  0  0  0  0
   58.5221   33.7780   47.6922 N   0  0  0  0  0  0  0  0  0  0  0  0
   59.5903   34.0112   48.5037 C   0  0  0  0  0  0  0  0  0  0  0  0
   60.8750   34.1071   47.9597 C   0  0  0  0  0  0  0  0  0  0  0  0
   61.0454   33.9728   46.5792 C   0  0  0  0  0  0  0  0  0  0  0  0
   59.9360   33.7441   45.7604 C   0  0  0  0  0  0  0  0  0  0  0  0
   59.1135   30.3845   47.3362 C   0  0  0  0  0  0  0  0  0  0  0  0
   60.6407   30.4293   47.4951 C   0  0  0  0  0  0  0  0  0  0  0  0
   61.0330   30.2482   48.9103 N   0  0  0  0  0  0  0  0  0  0  0  0
   59.8844   30.4660   49.8074 C   0  0  0  0  0  0  0  0  0  0  0  0
   62.1195   31.1760   49.2690 C   0  0  0  0  0  0  0  0  0  0  0  0
  1  2  2  0
  2  3  1  0
  3  4  2  0
  4  8  1  0
  8  9  1  0
  9 10  1  0
 10 11  2  0
 10 12  1  0
 12 13  1  0
 13 14  1  0
  3  5  1  0
  5  6  2  0
  6 15  1  0
 15 16  2  0
 15 17  1  0
 17 18  1  0
 18 19  1  0
 19 20  2  0
 20 21  1  0
 21 22  2  0
 22 23  1  0
 23 24  2  0
  6  7  1  0
  7 25  1  0
 25 26  1  0
 26 27  1  0
 27 28  1  0
 27 29  1  0
  7  2  1  0
 13  8  2  0
 24 19  1  0
M  CHG 1   9  -1
M  CHG 1  12  -1
M  CHG 1  14  -1
M  CHG 1  17  -1
M  END
> <UniqueID>
14

> <SMILES>
C=c1/c(=C/c2[n-]c(=O)[n-]c2[O-])cc(C(=O)[N-]Cc2ccccn2)n1CCN(C)C

> <Energy>
116.9670155118467

> <Genealogy>
C=c1c(=Cc2[n-]c(=O)[n-]c2[O-])cc(C(=O)[N-]Cc2ccccn2)n1CCN(C)C (protonated)
C=c1/c(=C/c2[n-]c(=O)[n-]c2[O-])cc(C(=O)[N-]Cc2ccccn2)n1CCN(C)C (cis-trans isomerization)
C=c1/c(=C/c2[n-]c(=O)[n-]c2[O-])cc(C(=O)[N-]Cc2ccccn2)n1CCN(C)C (3D coordinates assigned)
C=c1/c(=C/c2[n-]c(=O)[n-]c2[O-])cc(C(=O)[N-]Cc2ccccn2)n1CCN(C)C (optimized conformer: 116.9670155118467 kcal/mol)

> <smiles>
C=c1c(=Cc2[nH]c(=O)[nH]c2O)cc(C(=O)NCc2ccccn2)n1CCN(C)C

> <score_type>
oracle

> <origin>
adg

> <m_score__min__energy>
-16.629999999999999

> <m_primary>
energy

> <minimizedAffinity>
-7.79001

> <minimizedRMSD>
0.80416

> <CNNscore>
0.3715294600

> <CNNaffinity>
6.9178833961

> <CNN_VS>
2.5701975822

> <CNNaffinity_variance>
0.1722028404

$$$$
14:0


 40 44  0  0  0  0  0  0  0  0999 V2000
   60.2994   26.7085   46.3446 C   0  0  0  0  0  0  0  0  0  0  0  0
   59.4747   27.5258   45.6694 C   0  0  0  0  0  0  0  0  0  0  0  0
   58.3373   27.1289   44.9577 C   0  0  0  0  0  0  0  0  0  0  0  0
   57.8833   25.8764   44.7626 C   0  0  0  0  0  0  0  0  0  0  0  0
   57.7811   28.2841   44.4343 C   0  0  0  0  0  0  0  0  0  0  0  0
   58.5730   29.3290   44.8559 C   0  0  0  0  0  0  0  0  0  0  0  0
   59.6106   28.8797   45.6048 N   0  0  0  0  0  0  0  0  0  0  0  0
   58.3210   30.7342   44.4949 C   0  0  0  0  0  0  0  0  0  0  0  0
   58.0431   31.0080   43.2936 O   0  0  0  0  0  0  0  0  0  0  0  0
   58.3539   31.7838   45.4846 N   0  0  0  0  0  0  0  0  0  0  0  0
   58.3262   33.1822   45.0363 C   0  0  0  0  0  0  0  0  0  0  0  0
   58.8158   34.1215   46.1477 C   0  0  0  0  0  0  0  0  0  0  0  0
   58.1577   33.8518   47.3706 O   0  0  0  0  0  0  0  0  0  0  0  0
   58.4894   32.5524   47.8134 C   0  0  0  0  0  0  0  0  0  0  0  0
   57.9213   31.5010   46.8584 C   0  0  0  0  0  0  0  0  0  0  0  0
   57.2542   25.0684   45.8232 C   0  0  0  0  0  0  0  0  0  0  0  0
   57.8905   24.0939   46.4997 N   0  0  0  0  0  0  0  0  0  0  0  0
   56.9745   23.6946   47.4080 C   0  0  0  0  0  0  0  0  0  0  0  0
   57.1921   22.7645   48.2327 O   0  0  0  0  0  0  0  0  0  0  0  0
   55.8073   24.3757   47.3749 N   0  0  0  0  0  0  0  0  0  0  0  0
   56.0044   25.2493   46.3738 C   0  0  0  0  0  0  0  0  0  0  0  0
   55.0798   26.2208   46.0042 O   0  0  0  0  0  0  0  0  0  0  0  0
   60.7532   29.6906   46.0580 C   0  0  0  0  0  0  0  0  0  0  0  0
   60.6753   29.9175   47.5465 C   0  0  0  0  0  0  0  0  0  0  0  0
   59.9124   29.0609   48.3523 C   0  0  0  0  0  0  0  0  0  0  0  0
   59.7867   29.3074   49.7209 C   0  0  0  0  0  0  0  0  0  0  0  0
   60.4193   30.4106   50.2968 C   0  0  0  0  0  0  0  0  0  0  0  0
   61.1989   31.2754   49.5087 C   0  0  0  0  0  0  0  0  0  0  0  0
   61.3172   31.0203   48.1311 C   0  0  0  0  0  0  0  0  0  0  0  0
   61.8588   32.4641   50.1079 C   0  0  0  0  0  0  0  0  0  0  0  0
   61.3830   33.6122   49.8935 O   0  0  0  0  0  0  0  0  0  0  0  0
   63.0321   32.3325   50.9301 N   0  0  0  0  0  0  0  0  0  0  0  0
   63.1916   33.1529   52.1293 C   0  0  0  0  0  0  0  0  0  0  0  0
   64.2520   34.2260   51.8762 C   0  0  0  0  0  0  0  0  0  0  0  0
   65.4709   33.6272   51.3046 N   0  0  0  0  0  0  0  0  0  0  0  0
   66.7557   34.2160   51.6147 C   0  0  0  0  0  0  0  0  0  0  0  0
   66.8146   35.2746   52.3012 O   0  0  0  0  0  0  0  0  0  0  0  0
   68.0418   33.6081   51.1394 C   0  0  0  0  0  0  0  0  0  0  0  0
   65.3158   32.7263   50.1468 C   0  0  0  0  0  0  0  0  0  0  0  0
   64.2340   31.6767   50.4132 C   0  0  0  0  0  0  0  0  0  0  0  0
  1  2  2  0
  2  3  1  0
  3  4  2  0
  4 16  1  0
 16 17  1  0
 17 18  1  0
 18 19  2  0
 18 20  1  0
 20 21  1  0
 21 22  1  0
  3  5  1  0
  5  6  2  0
  6  8  1  0
  8  9  2  0
  8 10  1  0
 10 11  1  0
 11 12  1  0
 12 13  1  0
 13 14  1  0
 14 15  1  0
  6  7  1  0
  7 23  1  0
 23 24  1  0
 24 25  2  0
 25 26  1  0
 26 27  2  0
 27 28  1  0
 28 30  1  0
 30 31  2  0
 30 32  1  0
 32 33  1  0
 33 34  1  0
 34 35  1  0
 35 36  1  0
 36 37  2  0
 36 38  1  0
 35 39  1  0
 39 40  1  0
 28 29  2  0
  7  2  1  0
 29 24  1  0
 21 16  2  0
 15 10  1  0
 40 32  1  0
M  CHG 1  17  -1
M  CHG 1  20  -1
M  CHG 1  22  -1
M  END
> <UniqueID>
15

> <SMILES>
C=c1/c(=C/c2[n-]c(=O)[n-]c2[O-])cc(C(=O)N2CCOCC2)n1Cc1cccc(C(=O)N2CCN(C(C)=O)CC2)c1

> <Energy>
148.83900142276156

> <Genealogy>
C=c1c(=Cc2[n-]c(=O)[n-]c2[O-])cc(C(=O)N2CCOCC2)n1Cc1cccc(C(=O)N2CCN(C(C)=O)CC2)c1 (protonated)
C=c1/c(=C/c2[n-]c(=O)[n-]c2[O-])cc(C(=O)N2CCOCC2)n1Cc1cccc(C(=O)N2CCN(C(C)=O)CC2)c1 (cis-trans isomerization)
C=c1/c(=C/c2[n-]c(=O)[n-]c2[O-])cc(C(=O)N2CCOCC2)n1Cc1cccc(C(=O)N2CCN(C(C)=O)CC2)c1 (3D coordinates assigned)
C=c1/c(=C/c2[n-]c(=O)[n-]c2[O-])cc(C(=O)N2CCOCC2)n1Cc1cccc(C(=O)N2CCN(C(C)=O)CC2)c1 (nonaromatic ring conformer: 148.83900142276156 kcal/mol)

> <smiles>
C=c1c(=Cc2[nH]c(=O)[nH]c2O)cc(C(=O)N2CCOCC2)n1Cc1cccc(C(=O)N2CCN(C(C)=O)CC2)c1

> <score_type>
oracle

> <origin>
adg

> <m_score__min__energy>
-17.449999999999999

> <m_primary>
energy

> <minimizedAffinity>
-9.06865

> <minimizedRMSD>
0.53798

> <CNNscore>
0.2154170424

> <CNNaffinity>
6.8847308159

> <CNN_VS>
1.4830883741

> <CNNaffinity_variance>
1.1258087158

$$$$
20:0


 37 41  0  0  0  0  0  0  0  0999 V2000
   60.3436   29.3192   45.9542 C   0  0  0  0  0  0  0  0  0  0  0  0
   59.0731   28.8945   45.7656 C   0  0  0  0  0  0  0  0  0  0  0  0
   58.7712   27.5159   45.9053 C   0  0  0  0  0  0  0  0  0  0  0  0
   59.7005   26.6945   46.1488 O   0  0  0  0  0  0  0  0  0  0  0  0
   57.4387   27.0752   45.7088 C   0  0  0  0  0  0  0  0  0  0  0  0
   57.0262   25.7875   45.8261 C   0  0  0  0  0  0  0  0  0  0  0  0
   55.6529   25.5483   46.1536 N   0  0  0  0  0  0  0  0  0  0  0  0
   54.9999   23.9563   46.1688 S   0  0  0  0  0  0  0  0  0  0  0  0
   53.7044   23.9405   45.4070 O   0  0  0  0  0  0  0  0  0  0  0  0
   54.7759   23.5107   47.5848 O   0  0  0  0  0  0  0  0  0  0  0  0
   56.1684   22.9191   45.3894 C   0  0  0  0  0  0  0  0  0  0  0  0
   55.7944   21.6377   44.9618 C   0  0  0  0  0  0  0  0  0  0  0  0
   56.7405   20.7882   44.3857 C   0  0  0  0  0  0  0  0  0  0  0  0
   58.0635   21.2103   44.2445 C   0  0  0  0  0  0  0  0  0  0  0  0
   58.4424   22.4858   44.6763 C   0  0  0  0  0  0  0  0  0  0  0  0
   57.4975   23.3580   45.2379 C   0  0  0  0  0  0  0  0  0  0  0  0
   57.9184   24.6625   45.6743 N   0  0  0  0  0  0  0  0  0  0  0  0
   56.5163   27.9969   45.3313 N   0  0  0  0  0  0  0  0  0  0  0  0
   56.8011   29.3103   45.1838 C   0  0  0  0  0  0  0  0  0  0  0  0
   55.8761   30.0988   44.8430 O   0  0  0  0  0  0  0  0  0  0  0  0
   58.0685   29.7738   45.4096 N   0  0  0  0  0  0  0  0  0  0  0  0
   58.8715   24.7961   45.8818 H   0  0  0  0  0  0  0  0  0  0  0  0
   58.3176   31.1849   45.2340 C   0  0  0  0  0  0  0  0  0  0  0  0
   57.9652   31.8191   44.0332 C   0  0  0  0  0  0  0  0  0  0  0  0
   58.2322   33.1782   43.8580 C   0  0  0  0  0  0  0  0  0  0  0  0
   58.8508   33.9128   44.8729 C   0  0  0  0  0  0  0  0  0  0  0  0
   59.2173   33.2890   46.0811 C   0  0  0  0  0  0  0  0  0  0  0  0
   58.9432   31.9185   46.2499 C   0  0  0  0  0  0  0  0  0  0  0  0
   59.9019   34.0524   47.1526 C   0  0  0  0  0  0  0  0  0  0  0  0
   59.4164   35.1395   47.5674 O   0  0  0  0  0  0  0  0  0  0  0  0
   61.1118   33.5656   47.7455 N   0  0  0  0  0  0  0  0  0  0  0  0
   61.0263   32.7323   48.9527 C   0  0  0  0  0  0  0  0  0  0  0  0
   62.2393   32.9551   49.8627 C   0  0  0  0  0  0  0  0  0  0  0  0
   63.5247   32.8832   49.0855 C   0  0  0  0  0  0  0  0  0  0  0  0
   64.5877   32.7826   49.6816 O   0  0  0  0  0  0  0  0  0  0  0  0
   63.5072   32.9140   47.5814 C   0  0  0  0  0  0  0  0  0  0  0  0
   62.3902   33.8383   47.0749 C   0  0  0  0  0  0  0  0  0  0  0  0
  1  2  2  0
  2  3  1  0
  3  4  2  0
  3  5  1  0
  5  6  2  0
  6  7  1  0
  7  8  1  0
  8  9  2  0
  8 10  2  0
  8 11  1  0
 11 12  2  0
 12 13  1  0
 13 14  2  0
 14 15  1  0
 15 16  2  0
 16 17  1  0
  5 18  1  0
 18 19  1  0
 19 20  2  0
 19 21  1  0
 21 23  1  0
 23 24  2  0
 24 25  1  0
 25 26  2  0
 26 27  1  0
 27 29  1  0
 29 30  2  0
 29 31  1  0
 31 32  1  0
 32 33  1  0
 33 34  1  0
 34 35  2  0
 34 36  1  0
 36 37  1  0
 27 28  2  0
 21  2  1  0
 28 23  1  0
 17  6  1  0
 37 31  1  0
 16 11  1  0
 17 22  1  0
M  CHG 1   7  -1
M  CHG 1  18  -1
M  END
> <UniqueID>
21

> <SMILES>
C=c1c(=O)c(=C2[N-]S(=O)(=O)c3ccccc3N2)[n-]c(=O)n1-c1cccc(C(=O)N2CCC(=O)CC2)c1

> <Energy>
98.33256510828633

> <Genealogy>
C=c1c(=O)c(=C2[N-]S(=O)(=O)c3ccccc3N2)[n-]c(=O)n1-c1cccc(C(=O)N2CCC(=O)CC2)c1 (protonated)
C=c1c(=O)c(=C2[N-]S(=O)(=O)c3ccccc3N2)[n-]c(=O)n1-c1cccc(C(=O)N2CCC(=O)CC2)c1 (3D coordinates assigned)
C=c1c(=O)c(=C2[N-]S(=O)(=O)c3ccccc3N2)[n-]c(=O)n1-c1cccc(C(=O)N2CCC(=O)CC2)c1 (nonaromatic ring conformer: 98.33256510828633 kcal/mol)

> <smiles>
C=c1c(=O)c(=C2Nc3ccccc3S(=O)(=O)N2)[nH]c(=O)n1-c1cccc(C(=O)N2CCC(=O)CC2)c1

> <score_type>
oracle

> <origin>
adg

> <m_score__min__energy>
-15.289999999999999

> <m_primary>
energy

> <minimizedAffinity>
-10.43078

> <minimizedRMSD>
0.33970

> <CNNscore>
0.2300435454

> <CNNaffinity>
6.9746036530

> <CNN_VS>
1.6044625044

> <CNNaffinity_variance>
0.0383695550

$$$$
34:0


 32 35  0  0  0  0  0  0  0  0999 V2000
   58.2035   29.2585   53.7679 C   0  0  0  0  0  0  0  0  0  0  0  0
   56.2461   31.4433   52.9969 C   0  0  0  0  0  0  0  0  0  0  0  0
   55.8714   30.2010   53.3483 C   0  0  0  0  0  0  0  0  0  0  0  0
   54.5508   29.7384   53.4434 C   0  0  0  0  0  0  0  0  0  0  0  0
   53.4220   30.4513   53.2273 C   0  0  0  0  0  0  0  0  0  0  0  0
   54.6354   28.4111   53.8408 C   0  0  0  0  0  0  0  0  0  0  0  0
   55.9764   28.1144   53.9610 C   0  0  0  0  0  0  0  0  0  0  0  0
   56.5017   26.7956   54.4451 C   0  0  0  0  0  0  0  0  0  0  0  0
   56.7347   29.1982   53.6670 N   0  0  0  0  0  0  0  0  0  0  0  0
   52.6580   30.4899   51.9605 C   0  0  0  0  0  0  0  0  0  0  0  0
   52.8168   29.6569   50.9169 N   0  0  0  0  0  0  0  0  0  0  0  0
   51.9421   30.1261   49.9999 C   0  0  0  0  0  0  0  0  0  0  0  0
   51.7949   29.5942   48.8691 O   0  0  0  0  0  0  0  0  0  0  0  0
   51.2452   31.2131   50.3900 N   0  0  0  0  0  0  0  0  0  0  0  0
   51.7121   31.4332   51.6293 C   0  0  0  0  0  0  0  0  0  0  0  0
   51.2859   32.4781   52.4402 O   0  0  0  0  0  0  0  0  0  0  0  0
   58.7854   30.0027   52.5930 C   0  0  0  0  0  0  0  0  0  0  0  0
   58.5694   29.5441   51.2848 C   0  0  0  0  0  0  0  0  0  0  0  0
   59.0834   30.2492   50.1944 C   0  0  0  0  0  0  0  0  0  0  0  0
   59.8262   31.4247   50.3908 C   0  0  0  0  0  0  0  0  0  0  0  0
   60.0396   31.8845   51.7012 C   0  0  0  0  0  0  0  0  0  0  0  0
   59.5275   31.1772   52.7924 C   0  0  0  0  0  0  0  0  0  0  0  0
   60.3354   32.1661   49.2648 N   0  0  0  0  0  0  0  0  0  0  0  0
   60.1829   33.6293   49.2251 C   0  0  0  0  0  0  0  0  0  0  0  0
   60.3864   34.1793   47.8037 C   0  0  0  0  0  0  0  0  0  0  0  0
   59.6978   33.2532   46.7759 C   0  0  0  0  0  0  0  0  0  0  0  0
   60.2540   31.8011   46.8185 C   0  0  0  0  0  0  0  0  0  0  0  0
   60.9743   31.4756   48.1372 C   0  0  0  0  0  0  0  0  0  0  0  0
   59.6261   33.8648   45.3490 C   0  0  0  0  0  0  0  0  0  0  0  0
   58.2897   33.7877   44.7103 N   0  0  0  0  0  0  0  0  0  0  0  0
   58.2257   32.6031   43.8377 C   0  0  0  0  0  0  0  0  0  0  0  0
   57.2029   33.7267   45.7045 C   0  0  0  0  0  0  0  0  0  0  0  0
  2  3  2  0
  3  4  1  0
  4  5  2  0
  5 10  1  0
 10 11  1  0
 11 12  1  0
 12 13  2  0
 12 14  1  0
 14 15  1  0
 15 16  1  0
  4  6  1  0
  6  7  2  0
  7  8  1  0
  7  9  1  0
  9  1  1  0
  1 17  1  0
 17 18  2  0
 18 19  1  0
 19 20  2  0
 20 23  1  0
 23 24  1  0
 24 25  1  0
 25 26  1  0
 26 29  1  0
 29 30  1  0
 30 31  1  0
 30 32  1  0
 26 27  1  0
 27 28  1  0
 20 21  1  0
 21 22  2  0
  9  3  1  0
 22 17  1  0
 15 10  2  0
 28 23  1  0
M  CHG 1  11  -1
M  CHG 1  14  -1
M  CHG 1  16  -1
M  END
> <UniqueID>
35

> <SMILES>
C=c1/c(=C/c2[n-]c(=O)[n-]c2[O-])cc(C)n1Cc1ccc(N2CCC(CN(C)C)CC2)cc1

> <Energy>
137.1947370922166

> <Genealogy>
C=c1c(=Cc2[n-]c(=O)[n-]c2[O-])cc(C)n1Cc1ccc(N2CCC(CN(C)C)CC2)cc1 (protonated)
C=c1/c(=C/c2[n-]c(=O)[n-]c2[O-])cc(C)n1Cc1ccc(N2CCC(CN(C)C)CC2)cc1 (cis-trans isomerization)
C=c1/c(=C/c2[n-]c(=O)[n-]c2[O-])cc(C)n1Cc1ccc(N2CCC(CN(C)C)CC2)cc1 (3D coordinates assigned)
C=c1/c(=C/c2[n-]c(=O)[n-]c2[O-])cc(C)n1Cc1ccc(N2CCC(CN(C)C)CC2)cc1 (nonaromatic ring conformer: 137.1947370922166 kcal/mol)

> <smiles>
C=c1c(=Cc2[nH]c(=O)[nH]c2O)cc(C)n1Cc1ccc(N2CCC(CN(C)C)CC2)cc1

> <score_type>
oracle

> <origin>
adg

> <m_score__min__energy>
-18.149999999999999

> <m_primary>
energy

> <minimizedAffinity>
-6.09567

> <minimizedRMSD>
0.81431

> <CNNscore>
0.0467125289

> <CNNaffinity>
5.5217914581

> <CNN_VS>
0.2579368353

> <CNNaffinity_variance>
0.4408896863

$$$$
41:0


 35 38  0  0  0  0  0  0  0  0999 V2000
   58.1534   31.8887   52.7268 C   0  0  0  0  0  0  0  0  0  0  0  0
   58.3589   32.7343   53.6402 O   0  0  0  0  0  0  0  0  0  0  0  0
   58.9022   31.9644   51.4986 N   0  0  0  0  0  0  0  0  0  0  0  0
   59.2769   30.7418   50.7668 C   0  0  0  0  0  0  0  0  0  0  0  0
   59.1534   30.9564   49.2503 C   0  0  0  0  0  0  0  0  0  0  0  0
   59.6203   32.2922   48.8462 N   0  0  0  0  0  0  0  0  0  0  0  0
   60.3133   33.1369   49.8254 C   0  0  0  0  0  0  0  0  0  0  0  0
   59.4551   33.2643   51.0855 C   0  0  0  0  0  0  0  0  0  0  0  0
   56.0624   27.7824   54.2082 C   0  0  0  0  0  0  0  0  0  0  0  0
   56.1952   29.0092   53.6749 C   0  0  0  0  0  0  0  0  0  0  0  0
   55.2682   29.6745   52.8546 C   0  0  0  0  0  0  0  0  0  0  0  0
   53.9910   29.3810   52.5367 C   0  0  0  0  0  0  0  0  0  0  0  0
   55.9144   30.7998   52.3758 C   0  0  0  0  0  0  0  0  0  0  0  0
   57.1583   30.8262   52.9632 C   0  0  0  0  0  0  0  0  0  0  0  0
   57.3378   29.7449   53.7599 N   0  0  0  0  0  0  0  0  0  0  0  0
   52.9615   30.3506   52.1329 C   0  0  0  0  0  0  0  0  0  0  0  0
   52.3460   31.1775   52.9946 N   0  0  0  0  0  0  0  0  0  0  0  0
   51.4289   31.8051   52.2267 C   0  0  0  0  0  0  0  0  0  0  0  0
   50.6508   32.6826   52.6815 O   0  0  0  0  0  0  0  0  0  0  0  0
   51.4046   31.4091   50.9368 N   0  0  0  0  0  0  0  0  0  0  0  0
   52.3688   30.4754   50.8921 C   0  0  0  0  0  0  0  0  0  0  0  0
   52.6756   29.7478   49.7450 O   0  0  0  0  0  0  0  0  0  0  0  0
   52.2105   29.9113   48.9481 H   0  0  0  0  0  0  0  0  0  0  0  0
   58.6087   29.3448   54.3850 C   0  0  0  0  0  0  0  0  0  0  0  0
   58.6902   29.8700   55.8133 C   0  0  0  0  0  0  0  0  0  0  0  0
   59.3224   32.7836   47.5244 C   0  0  0  0  0  0  0  0  0  0  0  0
   59.5383   34.1335   47.2027 C   0  0  0  0  0  0  0  0  0  0  0  0
   59.2236   34.6158   45.9309 C   0  0  0  0  0  0  0  0  0  0  0  0
   58.6921   33.7590   44.9654 C   0  0  0  0  0  0  0  0  0  0  0  0
   58.4849   32.4005   45.2588 C   0  0  0  0  0  0  0  0  0  0  0  0
   58.7784   31.9273   46.5514 C   0  0  0  0  0  0  0  0  0  0  0  0
   57.8613   31.4870   44.2336 C   0  0  0  0  0  0  0  0  0  0  0  0
   57.9165   32.0595   42.9749 F   0  0  0  0  0  0  0  0  0  0  0  0
   58.5280   30.2750   44.1855 F   0  0  0  0  0  0  0  0  0  0  0  0
   56.5380   31.2607   44.5688 F   0  0  0  0  0  0  0  0  0  0  0  0
  9 10  2  0
 10 11  1  0
 11 12  2  0
 12 16  1  0
 16 17  1  0
 17 18  1  0
 18 19  2  0
 18 20  1  0
 20 21  1  0
 21 22  1  0
 11 13  1  0
 13 14  2  0
 14  1  1  0
  1  2  2  0
  1  3  1  0
  3  4  1  0
  4  5  1  0
  5  6  1  0
  6 26  1  0
 26 27  2  0
 27 28  1  0
 28 29  2  0
 29 30  1  0
 30 32  1  0
 32 33  1  0
 32 34  1  0
 32 35  1  0
 30 31  2  0
  6  7  1  0
  7  8  1  0
 14 15  1  0
 15 24  1  0
 24 25  1  0
 15 10  1  0
 21 16  2  0
  8  3  1  0
 31 26  1  0
 22 23  1  0
M  CHG 1  17  -1
M  CHG 1  20  -1
M  END
> <UniqueID>
42

> <SMILES>
C=c1c(=Cc2[n-]c(=O)[n-]c2O)cc(C(=O)N2CCN(c3cccc(C(F)(F)F)c3)CC2)n1CC

> <Energy>
136.5994401419719

> <Genealogy>
C=c1c(=Cc2[n-]c(=O)[n-]c2O)cc(C(=O)N2CCN(c3cccc(C(F)(F)F)c3)CC2)n1CC (protonated)
C=c1c(=Cc2[n-]c(=O)[n-]c2O)cc(C(=O)N2CCN(c3cccc(C(F)(F)F)c3)CC2)n1CC (3D coordinates assigned)
C=c1c(=Cc2[n-]c(=O)[n-]c2O)cc(C(=O)N2CCN(c3cccc(C(F)(F)F)c3)CC2)n1CC (nonaromatic ring conformer: 136.5994401419719 kcal/mol)

> <smiles>
C=c1c(=Cc2[nH]c(=O)[nH]c2O)cc(C(=O)N2CCN(c3cccc(C(F)(F)F)c3)CC2)n1CC

> <score_type>
oracle

> <origin>
adg

> <m_score__min__energy>
-14.109999999999999

> <m_primary>
energy

> <minimizedAffinity>
-9.68809

> <minimizedRMSD>
0.67979

> <CNNscore>
0.2693389058

> <CNNaffinity>
5.7018070221

> <CNN_VS>
1.5357184410

> <CNNaffinity_variance>
0.9460865855

$$$$
48:0


 32 35  0  0  0  0  0  0  0  0999 V2000
   59.0195   27.5830   44.6666 C   0  0  0  0  0  0  0  0  0  0  0  0
   57.6968   25.0056   43.8237 C   0  0  0  0  0  0  0  0  0  0  0  0
   57.7817   25.4015   45.1021 C   0  0  0  0  0  0  0  0  0  0  0  0
   57.4150   24.6898   46.2543 C   0  0  0  0  0  0  0  0  0  0  0  0
   56.7172   23.5451   46.3854 C   0  0  0  0  0  0  0  0  0  0  0  0
   57.8665   25.3527   47.3404 N   0  0  0  0  0  0  0  0  0  0  0  0
   58.4453   26.4608   46.8429 C   0  0  0  0  0  0  0  0  0  0  0  0
   58.9829   27.3331   47.5750 O   0  0  0  0  0  0  0  0  0  0  0  0
   58.4036   26.5381   45.4969 N   0  0  0  0  0  0  0  0  0  0  0  0
   55.2644   23.3967   46.2084 C   0  0  0  0  0  0  0  0  0  0  0  0
   54.6207   22.2188   46.1065 N   0  0  0  0  0  0  0  0  0  0  0  0
   53.3522   22.5822   45.8156 C   0  0  0  0  0  0  0  0  0  0  0  0
   52.4264   21.7433   45.6561 O   0  0  0  0  0  0  0  0  0  0  0  0
   53.1571   23.9131   45.6958 N   0  0  0  0  0  0  0  0  0  0  0  0
   54.3808   24.4114   45.9330 C   0  0  0  0  0  0  0  0  0  0  0  0
   54.6842   25.7665   45.8942 O   0  0  0  0  0  0  0  0  0  0  0  0
   58.2449   28.8756   44.7665 C   0  0  0  0  0  0  0  0  0  0  0  0
   56.9235   28.9368   44.2978 C   0  0  0  0  0  0  0  0  0  0  0  0
   56.2129   30.1341   44.3875 C   0  0  0  0  0  0  0  0  0  0  0  0
   56.8009   31.2381   44.9155 N   0  0  0  0  0  0  0  0  0  0  0  0
   58.0858   31.2193   45.3682 C   0  0  0  0  0  0  0  0  0  0  0  0
   58.8328   30.0385   45.2971 C   0  0  0  0  0  0  0  0  0  0  0  0
   60.1171   30.0351   45.7372 F   0  0  0  0  0  0  0  0  0  0  0  0
   58.6714   32.3702   45.9026 O   0  0  0  0  0  0  0  0  0  0  0  0
   58.4932   32.7727   47.2568 C   0  0  0  0  0  0  0  0  0  0  0  0
   59.5132   32.0932   48.1169 C   0  0  0  0  0  0  0  0  0  0  0  0
   59.1274   31.2607   48.9819 O   0  0  0  0  0  0  0  0  0  0  0  0
   60.9183   32.3597   47.9612 N   0  0  0  0  0  0  0  0  0  0  0  0
   61.9409   31.6827   48.7398 C   0  0  0  0  0  0  0  0  0  0  0  0
   63.2717   32.1241   48.1415 C   0  0  0  0  0  0  0  0  0  0  0  0
   62.9651   33.3665   47.3109 C   0  0  0  0  0  0  0  0  0  0  0  0
   61.4710   33.3166   47.0167 C   0  0  0  0  0  0  0  0  0  0  0  0
  2  3  2  0
  3  4  1  0
  4  5  2  0
  5 10  1  0
 10 11  1  0
 11 12  1  0
 12 13  2  0
 12 14  1  0
 14 15  1  0
 15 16  1  0
  4  6  1  0
  6  7  1  0
  7  8  2  0
  7  9  1  0
  9  1  1  0
  1 17  1  0
 17 18  2  0
 18 19  1  0
 19 20  2  0
 20 21  1  0
 21 24  1  0
 24 25  1  0
 25 26  1  0
 26 27  2  0
 26 28  1  0
 28 29  1  0
 29 30  1  0
 30 31  1  0
 31 32  1  0
 21 22  2  0
 22 23  1  0
  9  3  1  0
 22 17  1  0
 15 10  2  0
 32 28  1  0
M  CHG 1   6  -1
M  CHG 1  11  -1
M  CHG 1  14  -1
M  CHG 1  16  -1
M  END
> <UniqueID>
49

> <SMILES>
C=c1c(=Cc2[n-]c(=O)[n-]c2[O-])[n-]c(=O)n1Cc1ccnc(OCC(=O)N2CCCC2)c1F

> <Energy>
121.81720182203968

> <Genealogy>
C=c1c(=Cc2[n-]c(=O)[n-]c2[O-])[n-]c(=O)n1Cc1ccnc(OCC(=O)N2CCCC2)c1F (protonated)
C=c1c(=Cc2[n-]c(=O)[n-]c2[O-])[n-]c(=O)n1Cc1ccnc(OCC(=O)N2CCCC2)c1F (3D coordinates assigned)
C=c1c(=Cc2[n-]c(=O)[n-]c2[O-])[n-]c(=O)n1Cc1ccnc(OCC(=O)N2CCCC2)c1F (nonaromatic ring conformer: 121.81720182203968 kcal/mol)

> <smiles>
C=c1c(=Cc2[nH]c(=O)[nH]c2O)[nH]c(=O)n1Cc1ccnc(OCC(=O)N2CCCC2)c1F

> <score_type>
oracle

> <origin>
adg

> <m_score__min__energy>
-18.010000000000002

> <m_primary>
energy

> <minimizedAffinity>
-8.07155

> <minimizedRMSD>
1.02079

> <CNNscore>
0.0975883976

> <CNNaffinity>
6.6369833946

> <CNN_VS>
0.6476925611

> <CNNaffinity_variance>
0.0159893204

$$$$
51:0


 37 41  0  0  0  0  0  0  0  0999 V2000
   59.8575   32.9516   48.3988 C   0  0  0  0  0  0  0  0  0  0  0  0
   59.8351   33.0482   49.7994 C   0  0  0  0  0  0  0  0  0  0  0  0
   61.0135   33.2867   50.5125 C   0  0  0  0  0  0  0  0  0  0  0  0
   62.2340   33.4466   49.8356 C   0  0  0  0  0  0  0  0  0  0  0  0
   62.2572   33.3410   48.4353 C   0  0  0  0  0  0  0  0  0  0  0  0
   61.0779   33.1004   47.7230 C   0  0  0  0  0  0  0  0  0  0  0  0
   63.4927   33.6700   50.5824 C   0  0  0  0  0  0  0  0  0  0  0  0
   63.6817   34.7847   51.1414 O   0  0  0  0  0  0  0  0  0  0  0  0
   64.5097   32.6522   50.6805 N   0  0  0  0  0  0  0  0  0  0  0  0
   64.1540   31.2285   50.7698 C   0  0  0  0  0  0  0  0  0  0  0  0
   65.0074   30.4900   51.8269 C   0  0  0  0  0  0  0  0  0  0  0  0
   66.2809   31.1814   52.1539 N   0  0  0  0  0  0  0  0  0  0  0  0
   66.8353   31.8750   50.9797 C   0  0  0  0  0  0  0  0  0  0  0  0
   65.9215   33.0491   50.6308 C   0  0  0  0  0  0  0  0  0  0  0  0
   67.2716   30.2445   52.7233 C   0  0  0  0  0  0  0  0  0  0  0  0
   67.1683   28.8941   52.0624 C   0  0  0  0  0  0  0  0  0  0  0  0
   67.9532   28.6012   50.9340 C   0  0  0  0  0  0  0  0  0  0  0  0
   67.8759   27.3436   50.3307 C   0  0  0  0  0  0  0  0  0  0  0  0
   67.0189   26.3689   50.8495 C   0  0  0  0  0  0  0  0  0  0  0  0
   66.2319   26.6527   51.9690 C   0  0  0  0  0  0  0  0  0  0  0  0
   66.3057   27.9100   52.5776 C   0  0  0  0  0  0  0  0  0  0  0  0
   58.5896   32.6697   47.6330 C   0  0  0  0  0  0  0  0  0  0  0  0
   59.3393   29.8077   48.2766 C   0  0  0  0  0  0  0  0  0  0  0  0
   59.1546   30.2546   47.0243 C   0  0  0  0  0  0  0  0  0  0  0  0
   59.1721   29.4798   45.8508 C   0  0  0  0  0  0  0  0  0  0  0  0
   59.5475   28.2034   45.6355 C   0  0  0  0  0  0  0  0  0  0  0  0
   58.7086   30.2970   44.8383 C   0  0  0  0  0  0  0  0  0  0  0  0
   58.5003   31.5433   45.3911 C   0  0  0  0  0  0  0  0  0  0  0  0
   57.9703   32.7180   44.6265 C   0  0  0  0  0  0  0  0  0  0  0  0
   58.7699   31.5277   46.7188 N   0  0  0  0  0  0  0  0  0  0  0  0
   58.7178   27.0094   45.8666 C   0  0  0  0  0  0  0  0  0  0  0  0
   59.2004   25.7697   46.0757 N   0  0  0  0  0  0  0  0  0  0  0  0
   58.0887   25.0012   46.0787 C   0  0  0  0  0  0  0  0  0  0  0  0
   58.1261   23.7558   46.2626 O   0  0  0  0  0  0  0  0  0  0  0  0
   56.9360   25.6701   45.8614 N   0  0  0  0  0  0  0  0  0  0  0  0
   57.3547   26.9372   45.7157 C   0  0  0  0  0  0  0  0  0  0  0  0
   56.5094   28.0049   45.4399 O   0  0  0  0  0  0  0  0  0  0  0  0
 23 24  2  0
 24 25  1  0
 25 26  2  0
 26 31  1  0
 31 32  1  0
 32 33  1  0
 33 34  2  0
 33 35  1  0
 35 36  1  0
 36 37  1  0
 25 27  1  0
 27 28  2  0
 28 29  1  0
 28 30  1  0
 30 22  1  0
 22  1  1  0
  1  2  2  0
  2  3  1  0
  3  4  2  0
  4  7  1  0
  7  8  2  0
  7  9  1  0
  9 10  1  0
 10 11  1  0
 11 12  1  0
 12 15  1  0
 15 16  1  0
 16 17  2  0
 17 18  1  0
 18 19  2  0
 19 20  1  0
 20 21  2  0
 12 13  1  0
 13 14  1  0
  4  5  1  0
  5  6  2  0
 30 24  1  0
  6  1  1  0
 36 31  2  0
 14  9  1  0
 21 16  1  0
M  CHG 1  32  -1
M  CHG 1  35  -1
M  CHG 1  37  -1
M  END
> <UniqueID>
52

> <SMILES>
C=c1c(=Cc2[n-]c(=O)[n-]c2[O-])cc(C)n1Cc1ccc(C(=O)N2CCN(Cc3ccccc3)CC2)cc1

> <Energy>
149.12528376635362

> <Genealogy>
C=c1c(=Cc2[n-]c(=O)[n-]c2[O-])cc(C)n1Cc1ccc(C(=O)N2CCN(Cc3ccccc3)CC2)cc1 (protonated)
C=c1c(=Cc2[n-]c(=O)[n-]c2[O-])cc(C)n1Cc1ccc(C(=O)N2CCN(Cc3ccccc3)CC2)cc1 (3D coordinates assigned)
C=c1c(=Cc2[n-]c(=O)[n-]c2[O-])cc(C)n1Cc1ccc(C(=O)N2CCN(Cc3ccccc3)CC2)cc1 (nonaromatic ring conformer: 149.12528376635362 kcal/mol)

> <smiles>
C=c1c(=Cc2[nH]c(=O)[nH]c2O)cc(C)n1Cc1ccc(C(=O)N2CCN(Cc3ccccc3)CC2)cc1

> <score_type>
oracle

> <origin>
adg

> <m_score__min__energy>
-17.379999999999999

> <m_primary>
energy

> <minimizedAffinity>
-8.94738

> <minimizedRMSD>
0.88768

> <CNNscore>
0.4778766930

> <CNNaffinity>
7.1330695152

> <CNN_VS>
3.4087276459

> <CNNaffinity_variance>
0.0578194596

$$$$
56:0


 31 34  0  0  0  0  0  0  0  0999 V2000
   58.6713   30.2060   46.0669 C   0  0  0  0  0  0  0  0  0  0  0  0
   59.2610   29.6010   47.1129 C   0  0  0  0  0  0  0  0  0  0  0  0
   59.4144   28.2179   47.2985 C   0  0  0  0  0  0  0  0  0  0  0  0
   59.2286   27.1833   46.4559 C   0  0  0  0  0  0  0  0  0  0  0  0
   59.8487   28.0478   48.6003 C   0  0  0  0  0  0  0  0  0  0  0  0
   60.0129   29.3066   49.1394 C   0  0  0  0  0  0  0  0  0  0  0  0
   59.6612   30.2571   48.2385 N   0  0  0  0  0  0  0  0  0  0  0  0
   60.4982   29.5543   50.5152 C   0  0  0  0  0  0  0  0  0  0  0  0
   61.5993   29.0635   50.8829 O   0  0  0  0  0  0  0  0  0  0  0  0
   59.7587   30.3930   51.4223 N   0  0  0  0  0  0  0  0  0  0  0  0
   58.3028   30.2772   51.5459 C   0  0  0  0  0  0  0  0  0  0  0  0
   57.7072   31.6764   51.7234 C   0  0  0  0  0  0  0  0  0  0  0  0
   58.2857   32.4106   52.8788 N   0  0  0  0  0  0  0  0  0  0  0  0
   58.4139   33.8478   52.5859 C   0  0  0  0  0  0  0  0  0  0  0  0
   59.5505   31.8517   53.4156 C   0  0  0  0  0  0  0  0  0  0  0  0
   60.4790   31.3017   52.3202 C   0  0  0  0  0  0  0  0  0  0  0  0
   58.0609   26.2871   46.4448 C   0  0  0  0  0  0  0  0  0  0  0  0
   58.0029   25.0959   47.0700 N   0  0  0  0  0  0  0  0  0  0  0  0
   56.7142   24.7225   46.9102 C   0  0  0  0  0  0  0  0  0  0  0  0
   56.2625   23.6352   47.3552 O   0  0  0  0  0  0  0  0  0  0  0  0
   55.9433   25.6132   46.2465 N   0  0  0  0  0  0  0  0  0  0  0  0
   56.8096   26.6027   45.9731 C   0  0  0  0  0  0  0  0  0  0  0  0
   56.4605   27.7758   45.3170 O   0  0  0  0  0  0  0  0  0  0  0  0
   59.7249   31.7133   48.4560 C   0  0  0  0  0  0  0  0  0  0  0  0
   61.1448   32.1964   48.6557 C   0  0  0  0  0  0  0  0  0  0  0  0
   62.2134   31.6732   47.8998 C   0  0  0  0  0  0  0  0  0  0  0  0
   63.5199   32.1158   48.1247 C   0  0  0  0  0  0  0  0  0  0  0  0
   63.7785   33.0697   49.1122 C   0  0  0  0  0  0  0  0  0  0  0  0
   65.0467   33.4975   49.3270 F   0  0  0  0  0  0  0  0  0  0  0  0
   62.7297   33.5739   49.8843 C   0  0  0  0  0  0  0  0  0  0  0  0
   61.4210   33.1357   49.6640 C   0  0  0  0  0  0  0  0  0  0  0  0
  1  2  2  0
  2  3  1  0
  3  4  2  0
  4 17  1  0
 17 18  1  0
 18 19  1  0
 19 20  2  0
 19 21  1  0
 21 22  1  0
 22 23  1  0
  3  5  1  0
  5  6  2  0
  6  8  1  0
  8  9  2  0
  8 10  1  0
 10 11  1  0
 11 12  1  0
 12 13  1  0
 13 14  1  0
 13 15  1  0
 15 16  1  0
  6  7  1  0
  7 24  1  0
 24 25  1  0
 25 26  2  0
 26 27  1  0
 27 28  2  0
 28 29  1  0
 28 30  1  0
 30 31  2  0
  7  2  1  0
 31 25  1  0
 22 17  2  0
 16 10  1  0
M  CHG 1  18  -1
M  CHG 1  21  -1
M  CHG 1  23  -1
M  END
> <UniqueID>
57

> <SMILES>
C=c1/c(=C\c2[n-]c(=O)[n-]c2[O-])cc(C(=O)N2CCN(C)CC2)n1Cc1ccc(F)cc1

> <Energy>
137.4229820317474

> <Genealogy>
C=c1c(=Cc2[n-]c(=O)[n-]c2[O-])cc(C(=O)N2CCN(C)CC2)n1Cc1ccc(F)cc1 (protonated)
C=c1/c(=C\c2[n-]c(=O)[n-]c2[O-])cc(C(=O)N2CCN(C)CC2)n1Cc1ccc(F)cc1 (cis-trans isomerization)
C=c1/c(=C\c2[n-]c(=O)[n-]c2[O-])cc(C(=O)N2CCN(C)CC2)n1Cc1ccc(F)cc1 (3D coordinates assigned)
C=c1/c(=C\c2[n-]c(=O)[n-]c2[O-])cc(C(=O)N2CCN(C)CC2)n1Cc1ccc(F)cc1 (nonaromatic ring conformer: 137.4229820317474 kcal/mol)

> <smiles>
C=c1c(=Cc2[nH]c(=O)[nH]c2O)cc(C(=O)N2CCN(C)CC2)n1Cc1ccc(F)cc1

> <score_type>
oracle

> <origin>
adg

> <m_score__min__energy>
-16.289999999999999

> <m_primary>
energy

> <minimizedAffinity>
-7.28902

> <minimizedRMSD>
1.00448

> <CNNscore>
0.1703113317

> <CNNaffinity>
5.9165501595

> <CNN_VS>
1.0076555014

> <CNNaffinity_variance>
0.1563955098

$$$$
65:0


 33 36  0  0  0  0  0  0  0  0999 V2000
   58.6905   27.2344   45.9116 C   0  0  0  0  0  0  0  0  0  0  0  0
   57.8841   28.3484   45.6294 C   0  0  0  0  0  0  0  0  0  0  0  0
   58.4455   29.5338   45.1437 C   0  0  0  0  0  0  0  0  0  0  0  0
   59.8358   29.6414   45.0153 C   0  0  0  0  0  0  0  0  0  0  0  0
   60.6526   28.5581   45.3461 C   0  0  0  0  0  0  0  0  0  0  0  0
   60.0883   27.3543   45.7839 C   0  0  0  0  0  0  0  0  0  0  0  0
   60.9056   26.3052   46.0538 F   0  0  0  0  0  0  0  0  0  0  0  0
   57.3801   30.8371   44.6361 S   0  0  0  0  0  0  0  0  0  0  0  0
   57.8820   31.3912   43.3326 O   0  0  0  0  0  0  0  0  0  0  0  0
   55.9900   30.2985   44.4395 O   0  0  0  0  0  0  0  0  0  0  0  0
   57.4110   32.0478   45.9078 N   0  0  0  0  0  0  0  0  0  0  0  0
   58.2913   31.7058   47.0319 C   0  0  0  0  0  0  0  0  0  0  0  0
   59.7739   31.9595   46.7160 C   0  0  0  0  0  0  0  0  0  0  0  0
   60.0165   33.3011   46.1579 N   0  0  0  0  0  0  0  0  0  0  0  0
   59.0903   33.7156   45.0877 C   0  0  0  0  0  0  0  0  0  0  0  0
   57.6182   33.4196   45.4238 C   0  0  0  0  0  0  0  0  0  0  0  0
   60.4533   34.3493   47.1041 C   0  0  0  0  0  0  0  0  0  0  0  0
   61.5516   33.9095   48.0410 C   0  0  0  0  0  0  0  0  0  0  0  0
   61.3542   33.9426   49.4322 C   0  0  0  0  0  0  0  0  0  0  0  0
   62.3806   33.5552   50.3004 C   0  0  0  0  0  0  0  0  0  0  0  0
   63.6131   33.1451   49.7882 C   0  0  0  0  0  0  0  0  0  0  0  0
   63.8254   33.1243   48.4062 C   0  0  0  0  0  0  0  0  0  0  0  0
   62.8033   33.5156   47.5363 C   0  0  0  0  0  0  0  0  0  0  0  0
   58.0645   25.9546   46.3328 C   0  0  0  0  0  0  0  0  0  0  0  0
   57.7597   25.7848   47.5421 O   0  0  0  0  0  0  0  0  0  0  0  0
   56.0500   21.7692   45.4494 C   0  0  0  0  0  0  0  0  0  0  0  0
   57.0240   22.7111   45.3271 N   0  0  0  0  0  0  0  0  0  0  0  0
   56.7768   24.0379   45.5211 C   0  0  0  0  0  0  0  0  0  0  0  0
   57.7241   24.9247   45.3880 N   0  0  0  0  0  0  0  0  0  0  0  0
   55.4849   24.4530   45.8822 C   0  0  0  0  0  0  0  0  0  0  0  0
   55.2022   25.7967   46.0967 O   0  0  0  0  0  0  0  0  0  0  0  0
   54.4715   23.4984   46.0140 C   0  0  0  0  0  0  0  0  0  0  0  0
   54.7530   22.1488   45.7952 C   0  0  0  0  0  0  0  0  0  0  0  0
 26 27  1  0
 27 28  1  0
 28 29  2  0
 29 24  1  0
 24 25  2  0
 24  1  1  0
  1  2  2  0
  2  3  1  0
  3  8  1  0
  8  9  2  0
  8 10  2  0
  8 11  1  0
 11 12  1  0
 12 13  1  0
 13 14  1  0
 14 17  1  0
 17 18  1  0
 18 19  2  0
 19 20  1  0
 20 21  2  0
 21 22  1  0
 22 23  2  0
 14 15  1  0
 15 16  1  0
  3  4  2  0
  4  5  1  0
  5  6  2  0
  6  7  1  0
 28 30  1  0
 30 31  1  0
 30 32  2  0
 32 33  1  0
 33 26  2  0
  6  1  1  0
 16 11  1  0
 23 18  1  0
M  CHG 1  27  -1
M  CHG 1  31  -1
M  END
> <UniqueID>
64

> <SMILES>
O=C(/N=c1\[n-]cccc1[O-])c1cc(S(=O)(=O)N2CCN(Cc3ccccc3)CC2)ccc1F

> <Energy>
77.3312738510525

> <Genealogy>
O=C(N=c1[n-]cccc1[O-])c1cc(S(=O)(=O)N2CCN(Cc3ccccc3)CC2)ccc1F (protonated)
O=C(/N=c1\[n-]cccc1[O-])c1cc(S(=O)(=O)N2CCN(Cc3ccccc3)CC2)ccc1F (cis-trans isomerization)
O=C(/N=c1\[n-]cccc1[O-])c1cc(S(=O)(=O)N2CCN(Cc3ccccc3)CC2)ccc1F (3D coordinates assigned)
O=C(/N=c1\[n-]cccc1[O-])c1cc(S(=O)(=O)N2CCN(Cc3ccccc3)CC2)ccc1F (nonaromatic ring conformer: 77.3312738510525 kcal/mol)

> <smiles>
O=C(N=c1[nH]cccc1O)c1cc(S(=O)(=O)N2CCN(Cc3ccccc3)CC2)ccc1F

> <score_type>
oracle

> <origin>
adg

> <m_score__min__energy>
-16.100000000000001

> <m_primary>
energy

> <minimizedAffinity>
-8.96505

> <minimizedRMSD>
0.77551

> <CNNscore>
0.5006974936

> <CNNaffinity>
6.7731270790

> <CNN_VS>
3.3912878036

> <CNNaffinity_variance>
0.0862858072

$$$$
82:0


 32 35  0  0  0  0  0  0  0  0999 V2000
   58.4735   29.0036   45.1673 N   0  0  0  0  0  0  0  0  0  0  0  0
   58.3971   30.4333   45.2242 C   0  0  0  0  0  0  0  0  0  0  0  0
   59.0787   31.1589   46.2161 C   0  0  0  0  0  0  0  0  0  0  0  0
   58.9681   32.5568   46.2766 C   0  0  0  0  0  0  0  0  0  0  0  0
   58.1688   33.2292   45.3435 C   0  0  0  0  0  0  0  0  0  0  0  0
   57.4494   32.5077   44.3874 C   0  0  0  0  0  0  0  0  0  0  0  0
   57.5457   31.1136   44.3403 C   0  0  0  0  0  0  0  0  0  0  0  0
   56.7918   30.4058   43.4108 O   0  0  0  0  0  0  0  0  0  0  0  0
   59.7965   33.4589   47.5510 S   0  0  0  0  0  0  0  0  0  0  0  0
   58.8916   33.5767   48.7480 O   0  0  0  0  0  0  0  0  0  0  0  0
   60.0996   34.8473   47.0590 O   0  0  0  0  0  0  0  0  0  0  0  0
   61.2863   32.6737   48.0263 N   0  0  0  0  0  0  0  0  0  0  0  0
   61.0539   31.7748   49.1800 C   0  0  0  0  0  0  0  0  0  0  0  0
   62.3655   31.4155   49.8830 C   0  0  0  0  0  0  0  0  0  0  0  0
   63.0405   32.6719   50.4622 C   0  0  0  0  0  0  0  0  0  0  0  0
   62.6770   33.9521   49.6908 C   0  0  0  0  0  0  0  0  0  0  0  0
   62.3878   33.6523   48.2120 C   0  0  0  0  0  0  0  0  0  0  0  0
   60.6642   28.3017   44.8854 O   0  0  0  0  0  0  0  0  0  0  0  0
   59.5941   28.1871   45.5373 C   0  0  0  0  0  0  0  0  0  0  0  0
   59.5842   27.3083   46.7620 C   0  0  0  0  0  0  0  0  0  0  0  0
   58.1709   26.8204   47.0995 C   0  0  0  0  0  0  0  0  0  0  0  0
   57.8054   25.6506   46.2972 N   0  0  0  0  0  0  0  0  0  0  0  0
   56.5685   25.3218   45.8658 C   0  0  0  0  0  0  0  0  0  0  0  0
   55.4273   26.0774   46.1063 O   0  0  0  0  0  0  0  0  0  0  0  0
   56.6034   24.1270   45.1757 C   0  0  0  0  0  0  0  0  0  0  0  0
   57.9104   23.7086   45.1847 C   0  0  0  0  0  0  0  0  0  0  0  0
   58.6243   24.6606   45.8832 C   0  0  0  0  0  0  0  0  0  0  0  0
   59.9903   24.6100   46.1468 O   0  0  0  0  0  0  0  0  0  0  0  0
   58.3884   22.4374   44.5583 C   0  0  0  0  0  0  0  0  0  0  0  0
   57.2365   21.6116   44.0216 C   0  0  0  0  0  0  0  0  0  0  0  0
   55.9483   22.0180   44.0232 C   0  0  0  0  0  0  0  0  0  0  0  0
   55.4785   23.3517   44.5732 C   0  0  0  0  0  0  0  0  0  0  0  0
 18 19  2  0
 19 20  1  0
 20 21  1  0
 21 22  1  0
 22 23  1  0
 23 24  1  0
 23 25  2  0
 25 26  1  0
 26 27  2  0
 27 28  1  0
 26 29  1  0
 29 30  1  0
 30 31  2  0
 31 32  1  0
 19  1  1  0
  1  2  1  0
  2  3  2  0
  3  4  1  0
  4  9  1  0
  9 10  2  0
  9 11  2  0
  9 12  1  0
 12 13  1  0
 13 14  1  0
 14 15  1  0
 15 16  1  0
 16 17  1  0
  4  5  2  0
  5  6  1  0
  6  7  2  0
  7  8  1  0
 27 22  1  0
  7  2  1  0
 32 25  1  0
 17 12  1  0
M  CHG 1   1  -1
M  CHG 1   8  -1
M  CHG 1  24  -1
M  CHG 1  28  -1
M  END
> <UniqueID>
80

> <SMILES>
O=C(CCn1c([O-])c2c(c1[O-])CC=CC2)[N-]c1cc(S(=O)(=O)N2CCCCC2)ccc1[O-]

> <Energy>
92.24972392029208

> <Genealogy>
O=C(CCn1c([O-])c2c(c1[O-])CC=CC2)[N-]c1cc(S(=O)(=O)N2CCCCC2)ccc1[O-] (protonated)
O=C(CCn1c([O-])c2c(c1[O-])CC=CC2)[N-]c1cc(S(=O)(=O)N2CCCCC2)ccc1[O-] (3D coordinates assigned)
O=C(CCn1c([O-])c2c(c1[O-])CC=CC2)[N-]c1cc(S(=O)(=O)N2CCCCC2)ccc1[O-] (nonaromatic ring conformer: 92.24972392029208 kcal/mol)

> <smiles>
O=C(CCn1c(O)c2c(c1O)CC=CC2)Nc1cc(S(=O)(=O)N2CCCCC2)ccc1O

> <score_type>
oracle

> <origin>
adg

> <m_score__min__energy>
-17.289999999999999

> <m_primary>
energy

> <minimizedAffinity>
-8.06638

> <minimizedRMSD>
1.07088

> <CNNscore>
0.3852423131

> <CNNaffinity>
7.0562629700

> <CNN_VS>
2.7183711529

> <CNNaffinity_variance>
0.0237813499

$$$$
89:0


 31 34  0  0  0  0  0  0  0  0999 V2000
   60.7969   26.9563   46.9364 C   0  0  0  0  0  0  0  0  0  0  0  0
   59.8369   27.8955   46.9602 C   0  0  0  0  0  0  0  0  0  0  0  0
   58.7375   27.9789   46.0912 C   0  0  0  0  0  0  0  0  0  0  0  0
   58.2247   27.0850   45.2233 C   0  0  0  0  0  0  0  0  0  0  0  0
   58.1784   29.2262   46.2916 C   0  0  0  0  0  0  0  0  0  0  0  0
   58.8972   29.8285   47.3003 C   0  0  0  0  0  0  0  0  0  0  0  0
   59.8956   29.0173   47.7315 N   0  0  0  0  0  0  0  0  0  0  0  0
   58.5976   31.1754   47.8199 C   0  0  0  0  0  0  0  0  0  0  0  0
   58.3059   31.3043   49.0399 O   0  0  0  0  0  0  0  0  0  0  0  0
   58.5853   32.3240   46.9538 N   0  0  0  0  0  0  0  0  0  0  0  0
   58.8486   33.6608   47.5022 C   0  0  0  0  0  0  0  0  0  0  0  0
   59.7481   34.4685   46.5516 C   0  0  0  0  0  0  0  0  0  0  0  0
   59.4259   34.2549   45.0569 C   0  0  0  0  0  0  0  0  0  0  0  0
   58.0969   33.5260   44.8319 C   0  0  0  0  0  0  0  0  0  0  0  0
   58.0992   32.1821   45.5706 C   0  0  0  0  0  0  0  0  0  0  0  0
   57.6619   25.7712   45.5790 C   0  0  0  0  0  0  0  0  0  0  0  0
   58.3727   24.6324   45.6769 N   0  0  0  0  0  0  0  0  0  0  0  0
   57.4731   23.7431   46.1520 C   0  0  0  0  0  0  0  0  0  0  0  0
   57.7598   22.5372   46.3671 O   0  0  0  0  0  0  0  0  0  0  0  0
   56.2442   24.2524   46.3888 N   0  0  0  0  0  0  0  0  0  0  0  0
   56.3872   25.5392   46.0347 C   0  0  0  0  0  0  0  0  0  0  0  0
   55.3736   26.4844   46.1300 O   0  0  0  0  0  0  0  0  0  0  0  0
   60.7248   29.2419   48.9319 C   0  0  0  0  0  0  0  0  0  0  0  0
   61.4691   30.5487   48.8179 C   0  0  0  0  0  0  0  0  0  0  0  0
   61.9179   30.9897   47.5598 C   0  0  0  0  0  0  0  0  0  0  0  0
   62.5739   32.2166   47.4304 C   0  0  0  0  0  0  0  0  0  0  0  0
   62.7855   33.0185   48.5547 C   0  0  0  0  0  0  0  0  0  0  0  0
   63.4211   34.2089   48.4264 F   0  0  0  0  0  0  0  0  0  0  0  0
   62.3457   32.5919   49.8081 C   0  0  0  0  0  0  0  0  0  0  0  0
   61.6910   31.3636   49.9456 C   0  0  0  0  0  0  0  0  0  0  0  0
   61.2879   30.9693   51.1785 F   0  0  0  0  0  0  0  0  0  0  0  0
  1  2  2  0
  2  3  1  0
  3  4  2  0
  4 16  1  0
 16 17  1  0
 17 18  1  0
 18 19  2  0
 18 20  1  0
 20 21  1  0
 21 22  1  0
  3  5  1  0
  5  6  2  0
  6  8  1  0
  8  9  2  0
  8 10  1  0
 10 11  1  0
 11 12  1  0
 12 13  1  0
 13 14  1  0
 14 15  1  0
  6  7  1  0
  7 23  1  0
 23 24  1  0
 24 25  2  0
 25 26  1  0
 26 27  2  0
 27 28  1  0
 27 29  1  0
 29 30  2  0
 30 31  1  0
  7  2  1  0
 30 24  1  0
 21 16  2  0
 15 10  1  0
M  CHG 1  17  -1
M  CHG 1  20  -1
M  CHG 1  22  -1
M  END
> <UniqueID>
86

> <SMILES>
C=c1c(=Cc2[n-]c(=O)[n-]c2[O-])cc(C(=O)N2CCCCC2)n1Cc1ccc(F)cc1F

> <Energy>
128.8483261610255

> <Genealogy>
C=c1c(=Cc2[n-]c(=O)[n-]c2[O-])cc(C(=O)N2CCCCC2)n1Cc1ccc(F)cc1F (protonated)
C=c1c(=Cc2[n-]c(=O)[n-]c2[O-])cc(C(=O)N2CCCCC2)n1Cc1ccc(F)cc1F (3D coordinates assigned)
C=c1c(=Cc2[n-]c(=O)[n-]c2[O-])cc(C(=O)N2CCCCC2)n1Cc1ccc(F)cc1F (nonaromatic ring conformer: 128.8483261610255 kcal/mol)

> <smiles>
C=c1c(=Cc2[nH]c(=O)[nH]c2O)cc(C(=O)N2CCCCC2)n1Cc1ccc(F)cc1F

> <score_type>
oracle

> <origin>
adg

> <m_score__min__energy>
-16.32

> <m_primary>
energy

> <minimizedAffinity>
-8.47101

> <minimizedRMSD>
0.80272

> <CNNscore>
0.4800714552

> <CNNaffinity>
7.1159529686

> <CNN_VS>
3.4161658287

> <CNNaffinity_variance>
0.0670663640

$$$$
5:0


 39 43  0  0  0  0  0  0  0  0999 V2000
   57.7990   26.4488   43.4504 C   0  0  0  0  0  0  0  0  0  0  0  0
   58.3406   26.0979   44.6275 C   0  0  0  0  0  0  0  0  0  0  0  0
   57.9936   24.9827   45.4082 C   0  0  0  0  0  0  0  0  0  0  0  0
   57.2136   23.9161   45.1393 C   0  0  0  0  0  0  0  0  0  0  0  0
   58.6509   25.1358   46.6141 C   0  0  0  0  0  0  0  0  0  0  0  0
   59.4244   26.2726   46.5125 C   0  0  0  0  0  0  0  0  0  0  0  0
   59.2401   26.8672   45.3040 N   0  0  0  0  0  0  0  0  0  0  0  0
   55.7888   23.7786   45.4783 C   0  0  0  0  0  0  0  0  0  0  0  0
   55.0954   22.6380   45.3162 N   0  0  0  0  0  0  0  0  0  0  0  0
   53.8268   22.9984   45.6092 C   0  0  0  0  0  0  0  0  0  0  0  0
   52.8685   22.1833   45.5808 O   0  0  0  0  0  0  0  0  0  0  0  0
   53.6625   24.3027   45.9158 N   0  0  0  0  0  0  0  0  0  0  0  0
   54.9104   24.7891   45.8118 C   0  0  0  0  0  0  0  0  0  0  0  0
   55.2389   26.1276   45.9886 O   0  0  0  0  0  0  0  0  0  0  0  0
   54.5736   26.7472   46.2155 H   0  0  0  0  0  0  0  0  0  0  0  0
   60.3437   26.7173   47.5781 C   0  0  0  0  0  0  0  0  0  0  0  0
   61.5873   26.5703   47.4490 O   0  0  0  0  0  0  0  0  0  0  0  0
   59.8065   27.2479   48.7932 N   0  0  0  0  0  0  0  0  0  0  0  0
   60.3935   28.3660   49.5278 C   0  0  0  0  0  0  0  0  0  0  0  0
   60.1861   29.6645   48.7971 C   0  0  0  0  0  0  0  0  0  0  0  0
   61.1881   30.1781   47.9589 C   0  0  0  0  0  0  0  0  0  0  0  0
   60.9933   31.3838   47.2812 C   0  0  0  0  0  0  0  0  0  0  0  0
   59.7916   32.0982   47.4268 C   0  0  0  0  0  0  0  0  0  0  0  0
   58.7822   31.5734   48.2496 C   0  0  0  0  0  0  0  0  0  0  0  0
   58.9824   30.3721   48.9375 C   0  0  0  0  0  0  0  0  0  0  0  0
   59.5892   33.3408   46.7290 N   0  0  0  0  0  0  0  0  0  0  0  0
   59.3345   33.4577   45.3011 C   0  0  0  0  0  0  0  0  0  0  0  0
   59.3930   34.9634   44.9757 C   0  0  0  0  0  0  0  0  0  0  0  0
   59.5153   35.7165   46.3076 C   0  0  0  0  0  0  0  0  0  0  0  0
   59.6588   34.6352   47.3018 C   0  0  0  0  0  0  0  0  0  0  0  0
   59.7680   34.8408   48.5407 O   0  0  0  0  0  0  0  0  0  0  0  0
   59.7183   28.2071   44.9120 C   0  0  0  0  0  0  0  0  0  0  0  0
   58.6588   29.2845   45.1913 C   0  0  0  0  0  0  0  0  0  0  0  0
   58.2996   30.0082   43.9512 N   0  0  0  0  0  0  0  0  0  0  0  0
   57.2536   29.3149   43.1660 C   0  0  0  0  0  0  0  0  0  0  0  0
   55.8335   29.8147   43.5033 C   0  0  0  0  0  0  0  0  0  0  0  0
   55.7856   30.3234   44.8182 O   0  0  0  0  0  0  0  0  0  0  0  0
   56.5488   31.5157   44.9066 C   0  0  0  0  0  0  0  0  0  0  0  0
   57.9251   31.4116   44.2074 C   0  0  0  0  0  0  0  0  0  0  0  0
  1  2  2  0
  2  3  1  0
  3  4  2  0
  4  8  1  0
  8  9  1  0
  9 10  1  0
 10 11  2  0
 10 12  1  0
 12 13  1  0
 13 14  1  0
  3  5  1  0
  5  6  2  0
  6 16  1  0
 16 17  2  0
 16 18  1  0
 18 19  1  0
 19 20  1  0
 20 21  2  0
 21 22  1  0
 22 23  2  0
 23 26  1  0
 26 27  1  0
 27 28  1  0
 28 29  1  0
 29 30  1  0
 30 31  2  0
 23 24  1  0
 24 25  2  0
  6  7  1  0
  7 32  1  0
 32 33  1  0
 33 34  1  0
 34 35  1  0
 35 36  1  0
 36 37  1  0
 37 38  1  0
 38 39  1  0
  7  2  1  0
 39 34  1  0
 13  8  2  0
 25 20  1  0
 30 26  1  0
 14 15  1  0
M  CHG 1   9  -1
M  CHG 1  12  -1
M  CHG 1  18  -1
M  END
> <UniqueID>
6

> <SMILES>
C=c1c(=Cc2[n-]c(=O)[n-]c2O)cc(C(=O)[N-]Cc2ccc(N3CCCC3=O)cc2)n1CCN1CCOCC1

> <Energy>
159.25309752284616

> <Genealogy>
C=c1c(=Cc2[n-]c(=O)[n-]c2O)cc(C(=O)[N-]Cc2ccc(N3CCCC3=O)cc2)n1CCN1CCOCC1 (protonated)
C=c1c(=Cc2[n-]c(=O)[n-]c2O)cc(C(=O)[N-]Cc2ccc(N3CCCC3=O)cc2)n1CCN1CCOCC1 (3D coordinates assigned)
C=c1c(=Cc2[n-]c(=O)[n-]c2O)cc(C(=O)[N-]Cc2ccc(N3CCCC3=O)cc2)n1CCN1CCOCC1 (nonaromatic ring conformer: 159.25309752284616 kcal/mol)

> <smiles>
C=c1c(=Cc2[nH]c(=O)[nH]c2O)cc(C(=O)NCc2ccc(N3CCCC3=O)cc2)n1CCN1CCOCC1

> <score_type>
oracle

> <origin>
adg

> <m_score__min__energy>
-15.380000000000001

> <m_primary>
energy

> <minimizedAffinity>
-4.56000

> <minimizedRMSD>
0.48749

> <CNNscore>
0.1447331309

> <CNNaffinity>
6.8530921936

> <CNN_VS>
0.9918695092

> <CNNaffinity_variance>
0.1496651918

$$$$
16:0


 24 26  0  0  0  0  0  0  0  0999 V2000
   54.5724   28.3597   54.7432 C   0  0  0  0  0  0  0  0  0  0  0  0
   55.2077   29.0508   53.7852 C   0  0  0  0  0  0  0  0  0  0  0  0
   54.7109   30.1472   53.0594 C   0  0  0  0  0  0  0  0  0  0  0  0
   53.4672   30.6556   52.9637 C   0  0  0  0  0  0  0  0  0  0  0  0
   55.7889   30.6700   52.3662 C   0  0  0  0  0  0  0  0  0  0  0  0
   56.8734   29.8666   52.6429 C   0  0  0  0  0  0  0  0  0  0  0  0
   56.5180   28.8657   53.4819 N   0  0  0  0  0  0  0  0  0  0  0  0
   57.3783   27.7779   53.9624 C   0  0  0  0  0  0  0  0  0  0  0  0
   58.2195   30.0756   52.0791 C   0  0  0  0  0  0  0  0  0  0  0  0
   58.3992   29.8735   50.8471 O   0  0  0  0  0  0  0  0  0  0  0  0
   59.3059   30.5540   52.8932 N   0  0  0  0  0  0  0  0  0  0  0  0
   59.0368   31.4649   54.0151 C   0  0  0  0  0  0  0  0  0  0  0  0
   60.3262   32.1336   54.4940 C   0  0  0  0  0  0  0  0  0  0  0  0
   61.1245   32.5188   53.3198 N   0  0  0  0  0  0  0  0  0  0  0  0
   62.2217   33.4159   53.7121 C   0  0  0  0  0  0  0  0  0  0  0  0
   61.6549   31.3315   52.6079 C   0  0  0  0  0  0  0  0  0  0  0  0
   60.6840   30.1301   52.6177 C   0  0  0  0  0  0  0  0  0  0  0  0
   52.6098   30.6049   51.7674 C   0  0  0  0  0  0  0  0  0  0  0  0
   52.7701   29.7458   50.7449 N   0  0  0  0  0  0  0  0  0  0  0  0
   51.8615   30.1675   49.8385 C   0  0  0  0  0  0  0  0  0  0  0  0
   51.6933   29.5954   48.7306 O   0  0  0  0  0  0  0  0  0  0  0  0
   51.1556   31.2582   50.2093 N   0  0  0  0  0  0  0  0  0  0  0  0
   51.6534   31.5289   51.4258 C   0  0  0  0  0  0  0  0  0  0  0  0
   51.2442   32.6037   52.2051 O   0  0  0  0  0  0  0  0  0  0  0  0
  1  2  2  0
  2  3  1  0
  3  4  2  0
  4 18  1  0
 18 19  1  0
 19 20  1  0
 20 21  2  0
 20 22  1  0
 22 23  1  0
 23 24  1  0
  3  5  1  0
  5  6  2  0
  6  9  1  0
  9 10  2  0
  9 11  1  0
 11 12  1  0
 12 13  1  0
 13 14  1  0
 14 15  1  0
 14 16  1  0
 16 17  1  0
  6  7  1  0
  7  8  1  0
  7  2  1  0
 23 18  2  0
 17 11  1  0
M  CHG 1  19  -1
M  CHG 1  22  -1
M  CHG 1  24  -1
M  END
> <UniqueID>
15

> <SMILES>
C=c1c(=Cc2[n-]c(=O)[n-]c2[O-])cc(C(=O)N2CCN(C)CC2)n1C

> <Energy>
123.1947936915342

> <Genealogy>
C=c1c(=Cc2[n-]c(=O)[n-]c2[O-])cc(C(=O)N2CCN(C)CC2)n1C (protonated)
C=c1c(=Cc2[n-]c(=O)[n-]c2[O-])cc(C(=O)N2CCN(C)CC2)n1C (3D coordinates assigned)
C=c1c(=Cc2[n-]c(=O)[n-]c2[O-])cc(C(=O)N2CCN(C)CC2)n1C (nonaromatic ring conformer: 123.1947936915342 kcal/mol)

> <smiles>
C=c1c(=Cc2[nH]c(=O)[nH]c2O)cc(C(=O)N2CCN(C)CC2)n1C

> <score_type>
oracle

> <origin>
adg

> <m_score__min__energy>
-16.059999999999999

> <m_primary>
energy

> <minimizedAffinity>
-4.68805

> <minimizedRMSD>
0.80770

> <CNNscore>
0.1306896806

> <CNNaffinity>
4.0716862679

> <CNN_VS>
0.5321273804

> <CNNaffinity_variance>
0.5646948218

$$$$
24:0


 37 40  0  0  0  0  0  0  0  0999 V2000
   58.5381   31.4857   51.2402 C   0  0  0  0  0  0  0  0  0  0  0  0
   58.7855   30.1168   51.0536 C   0  0  0  0  0  0  0  0  0  0  0  0
   59.5856   29.6806   49.9999 C   0  0  0  0  0  0  0  0  0  0  0  0
   60.1597   30.5914   49.1071 C   0  0  0  0  0  0  0  0  0  0  0  0
   60.9129   30.0642   48.0558 O   0  0  0  0  0  0  0  0  0  0  0  0
   59.9429   31.9817   49.2941 C   0  0  0  0  0  0  0  0  0  0  0  0
   59.1209   32.4061   50.3530 C   0  0  0  0  0  0  0  0  0  0  0  0
   61.0249   29.1372   47.9786 H   0  0  0  0  0  0  0  0  0  0  0  0
   60.6641   33.2422   48.2722 S   0  0  0  0  0  0  0  0  0  0  0  0
   61.2419   34.2960   49.1766 O   0  0  0  0  0  0  0  0  0  0  0  0
   61.7926   32.7013   47.4379 O   0  0  0  0  0  0  0  0  0  0  0  0
   59.4468   33.9859   47.2571 N   0  0  0  0  0  0  0  0  0  0  0  0
   58.1193   33.3527   47.4313 C   0  0  0  0  0  0  0  0  0  0  0  0
   57.8343   32.3084   46.3438 C   0  0  0  0  0  0  0  0  0  0  0  0
   57.8212   32.9217   44.9922 N   0  0  0  0  0  0  0  0  0  0  0  0
   58.7355   34.0865   44.8673 C   0  0  0  0  0  0  0  0  0  0  0  0
   59.9121   34.0113   45.8520 C   0  0  0  0  0  0  0  0  0  0  0  0
   58.0813   31.9152   43.9407 C   0  0  0  0  0  0  0  0  0  0  0  0
   58.1188   30.5222   44.5223 C   0  0  0  0  0  0  0  0  0  0  0  0
   59.3494   29.9694   44.9176 C   0  0  0  0  0  0  0  0  0  0  0  0
   59.4078   28.6682   45.4274 C   0  0  0  0  0  0  0  0  0  0  0  0
   58.2428   27.9084   45.5424 C   0  0  0  0  0  0  0  0  0  0  0  0
   57.0144   28.4470   45.1473 C   0  0  0  0  0  0  0  0  0  0  0  0
   56.9480   29.7487   44.6373 C   0  0  0  0  0  0  0  0  0  0  0  0
   55.7450   30.2460   44.2544 F   0  0  0  0  0  0  0  0  0  0  0  0
   57.6841   31.9517   52.3596 C   0  0  0  0  0  0  0  0  0  0  0  0
   57.5251   33.1884   52.5512 O   0  0  0  0  0  0  0  0  0  0  0  0
   53.8949   30.0064   52.1528 C   0  0  0  0  0  0  0  0  0  0  0  0
   53.9900   28.8549   52.9336 C   0  0  0  0  0  0  0  0  0  0  0  0
   55.4773   28.8806   53.7166 S   0  0  0  0  0  0  0  0  0  0  0  0
   55.9373   30.3477   53.0214 C   0  0  0  0  0  0  0  0  0  0  0  0
   57.0519   30.9880   53.2227 N   0  0  0  0  0  0  0  0  0  0  0  0
   54.9793   30.8272   52.1998 N   0  0  0  0  0  0  0  0  0  0  0  0
   52.7141   30.3124   51.2879 C   0  0  0  0  0  0  0  0  0  0  0  0
   51.4670   32.3498   51.4043 O   0  0  0  0  0  0  0  0  0  0  0  0
   51.8064   31.2806   51.9764 C   0  0  0  0  0  0  0  0  0  0  0  0
   51.2992   30.9826   53.2362 O   0  0  0  0  0  0  0  0  0  0  0  0
 35 36  2  0
 36 37  1  0
 36 34  1  0
 34 28  1  0
 28 29  2  0
 29 30  1  0
 30 31  1  0
 31 32  2  0
 32 26  1  0
 26 27  2  0
 26  1  1  0
  1  2  2  0
  2  3  1  0
  3  4  2  0
  4  5  1  0
  4  6  1  0
  6  9  1  0
  9 10  2  0
  9 11  2  0
  9 12  1  0
 12 13  1  0
 13 14  1  0
 14 15  1  0
 15 18  1  0
 18 19  1  0
 19 20  2  0
 20 21  1  0
 21 22  2  0
 22 23  1  0
 23 24  2  0
 24 25  1  0
 15 16  1  0
 16 17  1  0
  6  7  2  0
 31 33  1  0
 33 28  1  0
  7  1  1  0
 17 12  1  0
 24 19  1  0
  5  8  1  0
M  CHG 1  33  -1
M  CHG 1  37  -1
M  END
> <UniqueID>
23

> <SMILES>
O=C([O-])Cc1csc(=NC(=O)c2ccc(O)c(S(=O)(=O)N3CCN(Cc4ccccc4F)CC3)c2)[n-]1

> <Energy>
108.9517205503579

> <Genealogy>
O=C([O-])Cc1csc(=NC(=O)c2ccc(O)c(S(=O)(=O)N3CCN(Cc4ccccc4F)CC3)c2)[n-]1 (protonated)
O=C([O-])Cc1csc(=NC(=O)c2ccc(O)c(S(=O)(=O)N3CCN(Cc4ccccc4F)CC3)c2)[n-]1 (3D coordinates assigned)
O=C([O-])Cc1csc(=NC(=O)c2ccc(O)c(S(=O)(=O)N3CCN(Cc4ccccc4F)CC3)c2)[n-]1 (nonaromatic ring conformer: 108.9517205503579 kcal/mol)

> <smiles>
O=C(O)Cc1csc(=NC(=O)c2ccc(O)c(S(=O)(=O)N3CCN(Cc4ccccc4F)CC3)c2)[nH]1

> <score_type>
oracle

> <origin>
adg

> <m_score__min__energy>
-15.140000000000001

> <m_primary>
energy

> <minimizedAffinity>
-8.37403

> <minimizedRMSD>
0.88831

> <CNNscore>
0.2191156000

> <CNNaffinity>
6.5448031425

> <CNN_VS>
1.4340684414

> <CNNaffinity_variance>
0.9152486324

$$$$
25:0


 32 34  0  0  0  0  0  0  0  0999 V2000
   60.2879   29.5326   44.8842 C   0  0  0  0  0  0  0  0  0  0  0  0
   59.8899   29.1433   46.1093 C   0  0  0  0  0  0  0  0  0  0  0  0
   58.9589   28.1315   46.3905 C   0  0  0  0  0  0  0  0  0  0  0  0
   58.1028   27.4638   45.5911 C   0  0  0  0  0  0  0  0  0  0  0  0
   59.0507   27.8919   47.7461 C   0  0  0  0  0  0  0  0  0  0  0  0
   59.9551   28.7945   48.2653 C   0  0  0  0  0  0  0  0  0  0  0  0
   60.4628   29.5756   47.2706 N   0  0  0  0  0  0  0  0  0  0  0  0
   57.6664   26.0702   45.7664 C   0  0  0  0  0  0  0  0  0  0  0  0
   58.5135   25.0271   45.8032 N   0  0  0  0  0  0  0  0  0  0  0  0
   57.7120   23.9835   46.1084 C   0  0  0  0  0  0  0  0  0  0  0  0
   58.1462   22.8069   46.2180 O   0  0  0  0  0  0  0  0  0  0  0  0
   56.4135   24.3011   46.2975 N   0  0  0  0  0  0  0  0  0  0  0  0
   56.4035   25.6284   46.0940 C   0  0  0  0  0  0  0  0  0  0  0  0
   55.2704   26.4205   46.2347 O   0  0  0  0  0  0  0  0  0  0  0  0
   60.3249   28.8207   49.7028 C   0  0  0  0  0  0  0  0  0  0  0  0
   60.5722   27.7282   50.2870 O   0  0  0  0  0  0  0  0  0  0  0  0
   60.3387   30.0445   50.4491 N   0  0  0  0  0  0  0  0  0  0  0  0
   59.3359   30.6363   51.0368 C   0  0  0  0  0  0  0  0  0  0  0  0
   58.1520   29.9562   51.4022 C   0  0  0  0  0  0  0  0  0  0  0  0
   57.1351   30.6547   52.0552 C   0  0  0  0  0  0  0  0  0  0  0  0
   57.2945   32.0089   52.3481 C   0  0  0  0  0  0  0  0  0  0  0  0
   58.4809   32.6492   51.9883 C   0  0  0  0  0  0  0  0  0  0  0  0
   59.4621   31.9553   51.3545 N   0  0  0  0  0  0  0  0  0  0  0  0
   61.4527   30.6586   47.4191 C   0  0  0  0  0  0  0  0  0  0  0  0
   60.8268   32.0275   47.2666 C   0  0  0  0  0  0  0  0  0  0  0  0
   61.2942   32.7861   46.4256 O   0  0  0  0  0  0  0  0  0  0  0  0
   59.7673   32.4855   48.1531 N   0  0  0  0  0  0  0  0  0  0  0  0
   59.7777   31.7313   47.5203 H   0  0  0  0  0  0  0  0  0  0  0  0
   59.9112   33.9221   48.4909 C   0  0  0  0  0  0  0  0  0  0  0  0
   59.4709   34.8308   47.3358 C   0  0  0  0  0  0  0  0  0  0  0  0
   58.4231   32.1599   47.6111 C   0  0  0  0  0  0  0  0  0  0  0  0
   58.2878   32.2845   46.0836 C   0  0  0  0  0  0  0  0  0  0  0  0
  1  2  2  0
  2  3  1  0
  3  4  2  0
  4  8  1  0
  8  9  1  0
  9 10  1  0
 10 11  2  0
 10 12  1  0
 12 13  1  0
 13 14  1  0
  3  5  1  0
  5  6  2  0
  6 15  1  0
 15 16  2  0
 15 17  1  0
 17 18  2  0
 18 19  1  0
 19 20  2  0
 20 21  1  0
 21 22  2  0
 22 23  1  0
  6  7  1  0
  7 24  1  0
 24 25  1  0
 25 26  2  0
 25 27  1  0
 27 29  1  0
 29 30  1  0
 27 31  1  0
 31 32  1  0
  7  2  1  0
 13  8  2  0
 23 18  1  0
 27 28  1  0
M  CHG 1   9  -1
M  CHG 1  12  -1
M  CHG 1  14  -1
M  CHG 1  23  -1
M  CHG 1  27   1
M  END
> <UniqueID>
24

> <SMILES>
C=c1c(=Cc2[n-]c(=O)[n-]c2[O-])cc(C(=O)N=c2cccc[n-]2)n1CC(=O)[NH+](CC)CC

> <Energy>
133.14369360794157

> <Genealogy>
C=c1c(=Cc2[n-]c(=O)[n-]c2[O-])cc(C(=O)N=c2cccc[n-]2)n1CC(=O)[NH+](CC)CC (protonated)
C=c1c(=Cc2[n-]c(=O)[n-]c2[O-])cc(C(=O)N=c2cccc[n-]2)n1CC(=O)[NH+](CC)CC (3D coordinates assigned)
C=c1c(=Cc2[n-]c(=O)[n-]c2[O-])cc(C(=O)N=c2cccc[n-]2)n1CC(=O)[NH+](CC)CC (optimized conformer: 133.14369360794157 kcal/mol)

> <smiles>
C=c1c(=Cc2[nH]c(=O)[nH]c2O)cc(C(=O)N=c2cccc[nH]2)n1CC(=O)N(CC)CC

> <score_type>
oracle

> <origin>
adg

> <m_score__min__energy>
-15.279999999999999

> <m_primary>
energy

> <minimizedAffinity>
-5.83189

> <minimizedRMSD>
0.69301

> <CNNscore>
0.1897355169

> <CNNaffinity>
6.5229530334

> <CNN_VS>
1.2376358509

> <CNNaffinity_variance>
0.0188153256

$$$$
34:0


 32 35  0  0  0  0  0  0  0  0999 V2000
   60.8446   29.3340   45.5737 C   0  0  0  0  0  0  0  0  0  0  0  0
   60.5243   28.8399   46.7819 C   0  0  0  0  0  0  0  0  0  0  0  0
   59.7677   27.6883   47.0198 C   0  0  0  0  0  0  0  0  0  0  0  0
   59.1924   26.8819   46.1059 C   0  0  0  0  0  0  0  0  0  0  0  0
   59.6672   27.5664   48.3957 C   0  0  0  0  0  0  0  0  0  0  0  0
   60.3678   28.6221   48.9460 C   0  0  0  0  0  0  0  0  0  0  0  0
   60.8913   29.4023   47.9676 N   0  0  0  0  0  0  0  0  0  0  0  0
   60.4803   28.8714   50.4014 C   0  0  0  0  0  0  0  0  0  0  0  0
   61.2417   28.1445   51.0944 O   0  0  0  0  0  0  0  0  0  0  0  0
   59.7681   29.9531   51.0357 N   0  0  0  0  0  0  0  0  0  0  0  0
   58.4694   30.4127   50.5159 C   0  0  0  0  0  0  0  0  0  0  0  0
   57.5237   30.7358   51.6757 C   0  0  0  0  0  0  0  0  0  0  0  0
   58.1167   31.7752   52.6472 C   0  0  0  0  0  0  0  0  0  0  0  0
   59.6498   31.8863   52.5814 C   0  0  0  0  0  0  0  0  0  0  0  0
   60.3113   30.5386   52.2708 C   0  0  0  0  0  0  0  0  0  0  0  0
   57.9208   26.1678   46.3215 C   0  0  0  0  0  0  0  0  0  0  0  0
   57.8284   25.0204   47.0147 N   0  0  0  0  0  0  0  0  0  0  0  0
   56.5004   24.7734   47.0368 C   0  0  0  0  0  0  0  0  0  0  0  0
   56.0089   23.7575   47.5948 O   0  0  0  0  0  0  0  0  0  0  0  0
   55.7399   25.7042   46.4233 N   0  0  0  0  0  0  0  0  0  0  0  0
   56.6508   26.5888   45.9861 C   0  0  0  0  0  0  0  0  0  0  0  0
   56.3230   27.7737   45.3404 O   0  0  0  0  0  0  0  0  0  0  0  0
   61.7284   30.5968   48.1756 C   0  0  0  0  0  0  0  0  0  0  0  0
   60.9107   31.8676   48.1571 C   0  0  0  0  0  0  0  0  0  0  0  0
   60.9473   32.7309   49.2612 C   0  0  0  0  0  0  0  0  0  0  0  0
   60.2252   33.9233   49.2494 C   0  0  0  0  0  0  0  0  0  0  0  0
   59.4663   34.2764   48.1318 C   0  0  0  0  0  0  0  0  0  0  0  0
   59.4245   33.4407   46.9984 C   0  0  0  0  0  0  0  0  0  0  0  0
   60.1635   32.2383   47.0240 C   0  0  0  0  0  0  0  0  0  0  0  0
   58.6404   33.8078   45.8310 N   0  0  0  0  0  0  0  0  0  0  0  0
   57.2587   33.3350   45.6798 C   0  0  0  0  0  0  0  0  0  0  0  0
   59.2166   34.6610   44.7850 C   0  0  0  0  0  0  0  0  0  0  0  0
  1  2  2  0
  2  3  1  0
  3  4  2  0
  4 16  1  0
 16 17  1  0
 17 18  1  0
 18 19  2  0
 18 20  1  0
 20 21  1  0
 21 22  1  0
  3  5  1  0
  5  6  2  0
  6  8  1  0
  8  9  2  0
  8 10  1  0
 10 11  1  0
 11 12  1  0
 12 13  1  0
 13 14  1  0
 14 15  1  0
  6  7  1  0
  7 23  1  0
 23 24  1  0
 24 25  2  0
 25 26  1  0
 26 27  2  0
 27 28  1  0
 28 30  1  0
 30 31  1  0
 30 32  1  0
 28 29  2  0
  7  2  1  0
 29 24  1  0
 21 16  2  0
 15 10  1  0
M  CHG 1  17  -1
M  CHG 1  20  -1
M  CHG 1  22  -1
M  END
> <UniqueID>
32

> <SMILES>
C=c1/c(=C/c2[n-]c(=O)[n-]c2[O-])cc(C(=O)N2CCCCC2)n1Cc1cccc(N(C)C)c1

> <Energy>
132.49287177583858

> <Genealogy>
C=c1c(=Cc2[n-]c(=O)[n-]c2[O-])cc(C(=O)N2CCCCC2)n1Cc1cccc(N(C)C)c1 (protonated)
C=c1/c(=C/c2[n-]c(=O)[n-]c2[O-])cc(C(=O)N2CCCCC2)n1Cc1cccc(N(C)C)c1 (cis-trans isomerization)
C=c1/c(=C/c2[n-]c(=O)[n-]c2[O-])cc(C(=O)N2CCCCC2)n1Cc1cccc(N(C)C)c1 (3D coordinates assigned)
C=c1/c(=C/c2[n-]c(=O)[n-]c2[O-])cc(C(=O)N2CCCCC2)n1Cc1cccc(N(C)C)c1 (nonaromatic ring conformer: 132.49287177583858 kcal/mol)

> <smiles>
C=c1c(=Cc2[nH]c(=O)[nH]c2O)cc(C(=O)N2CCCCC2)n1Cc1cccc(N(C)C)c1

> <score_type>
oracle

> <origin>
adg

> <m_score__min__energy>
-16.68

> <m_primary>
energy

> <minimizedAffinity>
-5.92305

> <minimizedRMSD>
0.74195

> <CNNscore>
0.2012028396

> <CNNaffinity>
6.7240557671

> <CNN_VS>
1.3528990746

> <CNNaffinity_variance>
0.0984028578

$$$$
37:0


 26 28  0  0  0  0  0  0  0  0999 V2000
   57.9676   28.4358   45.2910 C   0  0  0  0  0  0  0  0  0  0  0  0
   56.6538   28.1363   45.3496 N   0  0  0  0  0  0  0  0  0  0  0  0
   56.5926   26.8967   45.8791 C   0  0  0  0  0  0  0  0  0  0  0  0
   55.3937   26.2377   46.1188 O   0  0  0  0  0  0  0  0  0  0  0  0
   57.8506   26.3865   46.1447 C   0  0  0  0  0  0  0  0  0  0  0  0
   58.7262   27.3725   45.7469 C   0  0  0  0  0  0  0  0  0  0  0  0
   60.1139   27.2990   45.7750 O   0  0  0  0  0  0  0  0  0  0  0  0
   57.6960   30.7583   44.4066 C   0  0  0  0  0  0  0  0  0  0  0  0
   58.4682   29.7229   44.7746 C   0  0  0  0  0  0  0  0  0  0  0  0
   58.1267   32.1731   44.3545 C   0  0  0  0  0  0  0  0  0  0  0  0
   58.0210   32.7841   43.2578 O   0  0  0  0  0  0  0  0  0  0  0  0
   58.6324   32.9058   45.5417 C   0  0  0  0  0  0  0  0  0  0  0  0
   59.1705   34.1968   45.3950 C   0  0  0  0  0  0  0  0  0  0  0  0
   59.6813   34.8811   46.5013 C   0  0  0  0  0  0  0  0  0  0  0  0
   59.6483   34.2892   47.7670 C   0  0  0  0  0  0  0  0  0  0  0  0
   59.0964   33.0160   47.9280 C   0  0  0  0  0  0  0  0  0  0  0  0
   58.5852   32.3285   46.8243 C   0  0  0  0  0  0  0  0  0  0  0  0
   58.1864   25.0824   46.7412 C   0  0  0  0  0  0  0  0  0  0  0  0
   58.2035   24.9599   47.9962 O   0  0  0  0  0  0  0  0  0  0  0  0
   58.5666   23.9888   45.8904 N   0  0  0  0  0  0  0  0  0  0  0  0
   57.8369   23.3171   45.0422 C   0  0  0  0  0  0  0  0  0  0  0  0
   57.8789   21.9563   45.0974 N   0  0  0  0  0  0  0  0  0  0  0  0
   57.1634   21.1702   44.2505 C   0  0  0  0  0  0  0  0  0  0  0  0
   56.3526   21.7493   43.2758 C   0  0  0  0  0  0  0  0  0  0  0  0
   56.2970   23.1391   43.1754 C   0  0  0  0  0  0  0  0  0  0  0  0
   57.0401   23.9328   44.0526 C   0  0  0  0  0  0  0  0  0  0  0  0
  8 10  1  0
 10 11  2  0
 10 12  1  0
 12 13  2  0
 13 14  1  0
 14 15  2  0
 15 16  1  0
 16 17  2  0
  8  9  2  0
  9  1  1  0
  1  2  1  0
  2  3  1  0
  3  4  1  0
  3  5  2  0
  5 18  1  0
 18 19  2  0
 18 20  1  0
 20 21  2  0
 21 22  1  0
 22 23  1  0
 23 24  2  0
 24 25  1  0
 25 26  2  0
  5  6  1  0
  6  7  1  0
 17 12  1  0
  6  1  2  0
 26 21  1  0
M  CHG 1   2  -1
M  CHG 1   4  -1
M  CHG 1   7  -1
M  CHG 1  22  -1
M  END
> <UniqueID>
34

> <SMILES>
O=C(C=Cc1[n-]c([O-])c(C(=O)/N=c2\cccc[n-]2)c1[O-])c1ccccc1

> <Energy>
85.75249112568743

> <Genealogy>
O=C(C=Cc1[n-]c([O-])c(C(=O)N=c2cccc[n-]2)c1[O-])c1ccccc1 (protonated)
O=C(C=Cc1[n-]c([O-])c(C(=O)/N=c2\cccc[n-]2)c1[O-])c1ccccc1 (cis-trans isomerization)
O=C(C=Cc1[n-]c([O-])c(C(=O)/N=c2\cccc[n-]2)c1[O-])c1ccccc1 (3D coordinates assigned)
O=C(C=Cc1[n-]c([O-])c(C(=O)/N=c2\cccc[n-]2)c1[O-])c1ccccc1 (optimized conformer: 85.75249112568743 kcal/mol)

> <smiles>
O=C(C=Cc1[nH]c(O)c(C(=O)N=c2cccc[nH]2)c1O)c1ccccc1

> <score_type>
oracle

> <origin>
adg

> <m_score__min__energy>
-16.989999999999998

> <m_primary>
energy

> <minimizedAffinity>
-7.23551

> <minimizedRMSD>
0.86768

> <CNNscore>
0.7107819319

> <CNNaffinity>
6.6672263145

> <CNN_VS>
4.7389440536

> <CNNaffinity_variance>
0.2359443903

$$$$
45:0


 25 27  0  0  0  0  0  0  0  0999 V2000
   55.6360   28.2135   53.9406 C   0  0  0  0  0  0  0  0  0  0  0  0
   55.8394   29.4053   53.3689 C   0  0  0  0  0  0  0  0  0  0  0  0
   54.8886   30.2761   52.8199 C   0  0  0  0  0  0  0  0  0  0  0  0
   53.5415   30.2531   52.8526 C   0  0  0  0  0  0  0  0  0  0  0  0
   55.6094   31.2683   52.1783 C   0  0  0  0  0  0  0  0  0  0  0  0
   56.9493   31.0070   52.4013 C   0  0  0  0  0  0  0  0  0  0  0  0
   57.0812   29.8758   53.1261 N   0  0  0  0  0  0  0  0  0  0  0  0
   57.9271   29.4689   53.4230 H   0  0  0  0  0  0  0  0  0  0  0  0
   52.6543   30.3893   51.6881 C   0  0  0  0  0  0  0  0  0  0  0  0
   52.7376   29.6110   50.5959 N   0  0  0  0  0  0  0  0  0  0  0  0
   51.8426   30.1656   49.7486 C   0  0  0  0  0  0  0  0  0  0  0  0
   51.6167   29.7001   48.6017 O   0  0  0  0  0  0  0  0  0  0  0  0
   51.2194   31.2657   50.2224 N   0  0  0  0  0  0  0  0  0  0  0  0
   51.7553   31.4036   51.4458 C   0  0  0  0  0  0  0  0  0  0  0  0
   51.4510   32.4487   52.3085 O   0  0  0  0  0  0  0  0  0  0  0  0
   58.0588   31.8535   51.8755 C   0  0  0  0  0  0  0  0  0  0  0  0
   58.3032   32.9374   52.4736 O   0  0  0  0  0  0  0  0  0  0  0  0
   58.8740   31.4950   50.7297 N   0  0  0  0  0  0  0  0  0  0  0  0
   58.7225   32.4713   49.6212 C   0  0  0  0  0  0  0  0  0  0  0  0
   59.0969   31.8660   48.2577 C   0  0  0  0  0  0  0  0  0  0  0  0
   60.1477   30.8515   48.4398 N   0  0  0  0  0  0  0  0  0  0  0  0
   60.6885   30.4302   47.1386 C   0  0  0  0  0  0  0  0  0  0  0  0
   59.6301   29.6828   49.1864 C   0  0  0  0  0  0  0  0  0  0  0  0
   58.6568   30.0911   50.3164 C   0  0  0  0  0  0  0  0  0  0  0  0
   59.5830   31.3491   50.0624 H   0  0  0  0  0  0  0  0  0  0  0  0
  1  2  2  0
  2  3  1  0
  3  4  2  0
  4  9  1  0
  9 10  1  0
 10 11  1  0
 11 12  2  0
 11 13  1  0
 13 14  1  0
 14 15  1  0
  3  5  1  0
  5  6  2  0
  6 16  1  0
 16 17  2  0
 16 18  1  0
 18 19  1  0
 19 20  1  0
 20 21  1  0
 21 22  1  0
 21 23  1  0
 23 24  1  0
  6  7  1  0
  7  2  1  0
 14  9  2  0
 24 18  1  0
 18 25  1  0
  7  8  1  0
M  CHG 1  10  -1
M  CHG 1  13  -1
M  CHG 1  15  -1
M  CHG 1  18   1
M  END
> <UniqueID>
42

> <SMILES>
C=c1[nH]c(C(=O)[NH+]2CCN(C)CC2)c/c1=C/c1[n-]c(=O)[n-]c1[O-]

> <Energy>
122.4418579308686

> <Genealogy>
C=c1[nH]c(C(=O)[NH+]2CCN(C)CC2)cc1=Cc1[n-]c(=O)[n-]c1[O-] (protonated)
C=c1[nH]c(C(=O)[NH+]2CCN(C)CC2)c/c1=C/c1[n-]c(=O)[n-]c1[O-] (cis-trans isomerization)
C=c1[nH]c(C(=O)[NH+]2CCN(C)CC2)c/c1=C/c1[n-]c(=O)[n-]c1[O-] (3D coordinates assigned)
C=c1[nH]c(C(=O)[NH+]2CCN(C)CC2)c/c1=C/c1[n-]c(=O)[n-]c1[O-] (nonaromatic ring conformer: 122.4418579308686 kcal/mol)

> <smiles>
C=c1[nH]c(C(=O)N2CCN(C)CC2)cc1=Cc1[nH]c(=O)[nH]c1O

> <score_type>
oracle

> <origin>
adg

> <m_score__min__energy>
-14.960000000000001

> <m_primary>
energy

> <minimizedAffinity>
-4.74935

> <minimizedRMSD>
1.12776

> <CNNscore>
0.0574148819

> <CNNaffinity>
4.1061096191

> <CNN_VS>
0.2357517928

> <CNNaffinity_variance>
0.3732384741

$$$$
49:0


 36 40  0  0  0  0  0  0  0  0999 V2000
   59.1288   30.4284   52.3239 N   0  0  0  0  0  0  0  0  0  0  0  0
   58.3467   31.6448   51.9660 C   0  0  0  0  0  0  0  0  0  0  0  0
   58.5891   32.1220   50.5211 C   0  0  0  0  0  0  0  0  0  0  0  0
   60.0653   31.9534   50.1339 C   0  0  0  0  0  0  0  0  0  0  0  0
   60.5143   30.4730   50.2480 C   0  0  0  0  0  0  0  0  0  0  0  0
   59.6008   29.6368   51.1648 C   0  0  0  0  0  0  0  0  0  0  0  0
   58.4652   31.0548   52.6933 H   0  0  0  0  0  0  0  0  0  0  0  0
   60.3047   32.4987   48.7446 C   0  0  0  0  0  0  0  0  0  0  0  0
   61.3198   33.2164   48.5318 O   0  0  0  0  0  0  0  0  0  0  0  0
   59.3991   32.2152   47.6601 N   0  0  0  0  0  0  0  0  0  0  0  0
   58.5580   33.2734   47.0906 C   0  0  0  0  0  0  0  0  0  0  0  0
   58.5143   33.1240   45.5748 C   0  0  0  0  0  0  0  0  0  0  0  0
   58.1014   31.7282   45.1913 C   0  0  0  0  0  0  0  0  0  0  0  0
   57.4683   31.5080   43.9568 C   0  0  0  0  0  0  0  0  0  0  0  0
   57.1056   30.2158   43.5703 C   0  0  0  0  0  0  0  0  0  0  0  0
   57.3842   29.1321   44.4044 C   0  0  0  0  0  0  0  0  0  0  0  0
   58.0263   29.3355   45.6281 C   0  0  0  0  0  0  0  0  0  0  0  0
   58.3935   30.6300   46.0324 C   0  0  0  0  0  0  0  0  0  0  0  0
   59.0641   30.8134   47.3771 C   0  0  0  0  0  0  0  0  0  0  0  0
   58.4184   29.5892   53.2713 C   0  0  0  0  0  0  0  0  0  0  0  0
   59.0886   28.8914   54.0826 O   0  0  0  0  0  0  0  0  0  0  0  0
   53.9326   27.7883   53.5606 C   0  0  0  0  0  0  0  0  0  0  0  0
   54.9156   28.6879   53.4397 C   0  0  0  0  0  0  0  0  0  0  0  0
   56.2198   28.3504   53.4883 N   0  0  0  0  0  0  0  0  0  0  0  0
   56.9330   29.4859   53.3266 C   0  0  0  0  0  0  0  0  0  0  0  0
   56.0755   30.5633   53.1750 C   0  0  0  0  0  0  0  0  0  0  0  0
   54.7831   30.0619   53.2474 C   0  0  0  0  0  0  0  0  0  0  0  0
   53.6432   30.7585   53.0944 C   0  0  0  0  0  0  0  0  0  0  0  0
   56.5844   27.4451   53.6175 H   0  0  0  0  0  0  0  0  0  0  0  0
   52.8338   30.7391   51.8629 C   0  0  0  0  0  0  0  0  0  0  0  0
   53.0063   29.8394   50.8781 N   0  0  0  0  0  0  0  0  0  0  0  0
   52.0344   30.1549   49.9952 C   0  0  0  0  0  0  0  0  0  0  0  0
   51.8736   29.5321   48.9142 O   0  0  0  0  0  0  0  0  0  0  0  0
   51.2429   31.1847   50.3669 N   0  0  0  0  0  0  0  0  0  0  0  0
   51.7562   31.5381   51.5557 C   0  0  0  0  0  0  0  0  0  0  0  0
   51.2236   32.5406   52.3575 O   0  0  0  0  0  0  0  0  0  0  0  0
 22 23  2  0
 23 24  1  0
 24 25  1  0
 25 20  1  0
 20 21  2  0
  1 20  1  0
  1  2  1  0
  2  3  1  0
  3  4  1  0
  4  8  1  0
  8  9  2  0
  8 10  1  0
 10 11  1  0
 11 12  1  0
 12 13  1  0
 13 14  2  0
 14 15  1  0
 15 16  2  0
 16 17  1  0
 17 18  2  0
 18 19  1  0
  4  5  1  0
  5  6  1  0
 25 26  2  0
 26 27  1  0
 27 28  2  0
 28 30  1  0
 30 31  1  0
 31 32  1  0
 32 33  2  0
 32 34  1  0
 34 35  1  0
 35 36  1  0
 27 23  1  0
 35 30  2  0
  6  1  1  0
 19 10  1  0
 18 13  1  0
 24 29  1  0
  1  7  1  0
M  CHG 1   1   1
M  CHG 1  31  -1
M  CHG 1  34  -1
M  CHG 1  36  -1
M  END
> <UniqueID>
46

> <SMILES>
C=c1[nH]c(C(=O)[NH+]2CCC(C(=O)N3CCc4ccccc4C3)CC2)cc1=Cc1[n-]c(=O)[n-]c1[O-]

> <Energy>
142.3951114560733

> <Genealogy>
C=c1[nH]c(C(=O)[NH+]2CCC(C(=O)N3CCc4ccccc4C3)CC2)cc1=Cc1[n-]c(=O)[n-]c1[O-] (protonated)
C=c1[nH]c(C(=O)[NH+]2CCC(C(=O)N3CCc4ccccc4C3)CC2)cc1=Cc1[n-]c(=O)[n-]c1[O-] (3D coordinates assigned)
C=c1[nH]c(C(=O)[NH+]2CCC(C(=O)N3CCc4ccccc4C3)CC2)cc1=Cc1[n-]c(=O)[n-]c1[O-] (nonaromatic ring conformer: 142.3951114560733 kcal/mol)

> <smiles>
C=c1[nH]c(C(=O)N2CCC(C(=O)N3CCc4ccccc4C3)CC2)cc1=Cc1[nH]c(=O)[nH]c1O

> <score_type>
oracle

> <origin>
adg

> <m_score__min__energy>
-18.09

> <m_primary>
energy

> <minimizedAffinity>
-8.10699

> <minimizedRMSD>
0.87730

> <CNNscore>
0.0534506775

> <CNNaffinity>
5.9493851662

> <CNN_VS>
0.3179986775

> <CNNaffinity_variance>
0.5078458190

$$$$
53:0


 30 33  0  0  0  0  0  0  0  0999 V2000
   53.4871   27.3851   54.1490 C   0  0  0  0  0  0  0  0  0  0  0  0
   54.4330   28.3051   53.8977 C   0  0  0  0  0  0  0  0  0  0  0  0
   54.2352   29.6606   53.5889 C   0  0  0  0  0  0  0  0  0  0  0  0
   53.1145   30.3499   53.2964 C   0  0  0  0  0  0  0  0  0  0  0  0
   55.4875   30.2485   53.6172 C   0  0  0  0  0  0  0  0  0  0  0  0
   56.3982   29.2470   53.8789 C   0  0  0  0  0  0  0  0  0  0  0  0
   55.7621   28.0619   54.0402 N   0  0  0  0  0  0  0  0  0  0  0  0
   56.3725   26.7891   54.4437 C   0  0  0  0  0  0  0  0  0  0  0  0
   57.8597   29.4483   53.9208 C   0  0  0  0  0  0  0  0  0  0  0  0
   58.4268   29.5390   55.0422 O   0  0  0  0  0  0  0  0  0  0  0  0
   58.6391   29.5254   52.7084 N   0  0  0  0  0  0  0  0  0  0  0  0
   60.0875   29.2700   52.7325 C   0  0  0  0  0  0  0  0  0  0  0  0
   60.8381   30.4837   52.1725 C   0  0  0  0  0  0  0  0  0  0  0  0
   60.1984   30.9908   50.9485 N   0  0  0  0  0  0  0  0  0  0  0  0
   60.5228   32.3096   50.4786 C   0  0  0  0  0  0  0  0  0  0  0  0
   59.5997   33.1462   50.2898 O   0  0  0  0  0  0  0  0  0  0  0  0
   59.0547   30.2739   50.3724 C   0  0  0  0  0  0  0  0  0  0  0  0
   58.0116   29.9999   51.4623 C   0  0  0  0  0  0  0  0  0  0  0  0
   61.9162   32.7116   50.2235 C   0  0  0  0  0  0  0  0  0  0  0  0
   62.6745   33.6017   50.9759 C   0  0  0  0  0  0  0  0  0  0  0  0
   63.9849   33.7469   50.5059 C   0  0  0  0  0  0  0  0  0  0  0  0
   64.2702   32.9650   49.3941 C   0  0  0  0  0  0  0  0  0  0  0  0
   62.8902   32.0898   49.0007 S   0  0  0  0  0  0  0  0  0  0  0  0
   52.5539   30.5495   51.9538 C   0  0  0  0  0  0  0  0  0  0  0  0
   52.7162   29.6776   50.9427 N   0  0  0  0  0  0  0  0  0  0  0  0
   51.9346   30.1858   49.9649 C   0  0  0  0  0  0  0  0  0  0  0  0
   51.8304   29.6455   48.8333 O   0  0  0  0  0  0  0  0  0  0  0  0
   51.2631   31.3087   50.2988 N   0  0  0  0  0  0  0  0  0  0  0  0
   51.6548   31.5178   51.5662 C   0  0  0  0  0  0  0  0  0  0  0  0
   51.1796   32.5551   52.3602 O   0  0  0  0  0  0  0  0  0  0  0  0
  1  2  2  0
  2  3  1  0
  3  4  2  0
  4 24  1  0
 24 25  1  0
 25 26  1  0
 26 27  2  0
 26 28  1  0
 28 29  1  0
 29 30  1  0
  3  5  1  0
  5  6  2  0
  6  9  1  0
  9 10  2  0
  9 11  1  0
 11 12  1  0
 12 13  1  0
 13 14  1  0
 14 15  1  0
 15 16  2  0
 15 19  1  0
 19 20  2  0
 20 21  1  0
 21 22  2  0
 22 23  1  0
 14 17  1  0
 17 18  1  0
  6  7  1  0
  7  8  1  0
  7  2  1  0
 29 24  2  0
 18 11  1  0
 23 19  1  0
M  CHG 1  25  -1
M  CHG 1  28  -1
M  CHG 1  30  -1
M  END
> <UniqueID>
50

> <SMILES>
C=c1c(=Cc2[n-]c(=O)[n-]c2[O-])cc(C(=O)N2CCN(C(=O)c3cccs3)CC2)n1C

> <Energy>
158.22302833829718

> <Genealogy>
C=c1c(=Cc2[n-]c(=O)[n-]c2[O-])cc(C(=O)N2CCN(C(=O)c3cccs3)CC2)n1C (protonated)
C=c1c(=Cc2[n-]c(=O)[n-]c2[O-])cc(C(=O)N2CCN(C(=O)c3cccs3)CC2)n1C (3D coordinates assigned)
C=c1c(=Cc2[n-]c(=O)[n-]c2[O-])cc(C(=O)N2CCN(C(=O)c3cccs3)CC2)n1C (nonaromatic ring conformer: 158.22302833829718 kcal/mol)

> <smiles>
C=c1c(=Cc2[nH]c(=O)[nH]c2O)cc(C(=O)N2CCN(C(=O)c3cccs3)CC2)n1C

> <score_type>
oracle

> <origin>
adg

> <m_score__min__energy>
-17.010000000000002

> <m_primary>
energy

> <minimizedAffinity>
-5.90628

> <minimizedRMSD>
1.15173

> <CNNscore>
0.0582696907

> <CNNaffinity>
4.6681995392

> <CNN_VS>
0.2720145285

> <CNNaffinity_variance>
0.4416820109

$$$$
56:0


 38 42  0  0  0  0  0  0  0  0999 V2000
   57.3244   29.6617   54.2522 C   0  0  0  0  0  0  0  0  0  0  0  0
   57.9939   28.8494   53.3264 C   0  0  0  0  0  0  0  0  0  0  0  0
   59.3862   28.9006   53.2136 C   0  0  0  0  0  0  0  0  0  0  0  0
   60.1416   29.7738   54.0249 C   0  0  0  0  0  0  0  0  0  0  0  0
   59.4567   30.5919   54.9462 C   0  0  0  0  0  0  0  0  0  0  0  0
   58.0656   30.5374   55.0552 C   0  0  0  0  0  0  0  0  0  0  0  0
   55.2588   30.8035   52.3932 C   0  0  0  0  0  0  0  0  0  0  0  0
   54.9647   30.2087   53.5597 C   0  0  0  0  0  0  0  0  0  0  0  0
   53.6961   29.8946   54.0694 C   0  0  0  0  0  0  0  0  0  0  0  0
   52.4764   30.3031   53.6770 C   0  0  0  0  0  0  0  0  0  0  0  0
   53.8410   29.0590   55.1217 N   0  0  0  0  0  0  0  0  0  0  0  0
   55.1724   28.9238   55.2642 C   0  0  0  0  0  0  0  0  0  0  0  0
   55.6920   28.2263   56.1753 O   0  0  0  0  0  0  0  0  0  0  0  0
   55.8886   29.6161   54.3533 N   0  0  0  0  0  0  0  0  0  0  0  0
   52.0248   30.4488   52.2835 C   0  0  0  0  0  0  0  0  0  0  0  0
   52.2412   29.5470   51.3071 N   0  0  0  0  0  0  0  0  0  0  0  0
   51.7737   30.1673   50.2020 C   0  0  0  0  0  0  0  0  0  0  0  0
   51.7873   29.6267   49.0655 O   0  0  0  0  0  0  0  0  0  0  0  0
   51.2992   31.4151   50.4088 N   0  0  0  0  0  0  0  0  0  0  0  0
   51.4792   31.5807   51.7289 C   0  0  0  0  0  0  0  0  0  0  0  0
   51.1557   32.7458   52.4134 O   0  0  0  0  0  0  0  0  0  0  0  0
   61.6332   29.8574   53.9330 C   0  0  0  0  0  0  0  0  0  0  0  0
   62.2931   28.7859   54.0309 O   0  0  0  0  0  0  0  0  0  0  0  0
   62.3238   31.1202   53.6981 N   0  0  0  0  0  0  0  0  0  0  0  0
   63.5500   30.9924   52.8756 C   0  0  0  0  0  0  0  0  0  0  0  0
   63.2880   30.6095   51.3987 C   0  0  0  0  0  0  0  0  0  0  0  0
   61.9615   31.0094   50.9056 N   0  0  0  0  0  0  0  0  0  0  0  0
   61.0844   31.8290   51.6989 C   0  0  0  0  0  0  0  0  0  0  0  0
   60.0418   32.3273   51.1927 O   0  0  0  0  0  0  0  0  0  0  0  0
   61.4205   32.1363   53.1234 C   0  0  0  0  0  0  0  0  0  0  0  0
   61.9908   30.4592   53.0490 H   0  0  0  0  0  0  0  0  0  0  0  0
   61.5391   30.5523   49.5752 C   0  0  0  0  0  0  0  0  0  0  0  0
   61.8153   31.6191   48.5477 C   0  0  0  0  0  0  0  0  0  0  0  0
   63.1286   32.0605   48.3098 C   0  0  0  0  0  0  0  0  0  0  0  0
   63.3727   33.0854   47.3910 C   0  0  0  0  0  0  0  0  0  0  0  0
   62.3096   33.6787   46.7044 C   0  0  0  0  0  0  0  0  0  0  0  0
   61.0005   33.2468   46.9347 C   0  0  0  0  0  0  0  0  0  0  0  0
   60.7525   32.2213   47.8536 C   0  0  0  0  0  0  0  0  0  0  0  0
  7  8  2  0
  8  9  1  0
  9 10  2  0
 10 15  1  0
 15 16  1  0
 16 17  1  0
 17 18  2  0
 17 19  1  0
 19 20  1  0
 20 21  1  0
  9 11  1  0
 11 12  1  0
 12 13  2  0
 12 14  1  0
 14  1  1  0
  1  2  2  0
  2  3  1  0
  3  4  2  0
  4 22  1  0
 22 23  2  0
 24 22  1  0
 24 25  1  0
 25 26  1  0
 26 27  1  0
 27 32  1  0
 32 33  1  0
 33 34  2  0
 34 35  1  0
 35 36  2  0
 36 37  1  0
 37 38  2  0
 27 28  1  0
 28 29  2  0
 28 30  1  0
  4  5  1  0
  5  6  2  0
 14  8  1  0
  6  1  1  0
 20 15  2  0
 30 24  1  0
 38 33  1  0
 24 31  1  0
M  CHG 1  11  -1
M  CHG 1  16  -1
M  CHG 1  19  -1
M  CHG 1  21  -1
M  CHG 1  24   1
M  END
> <UniqueID>
51

> <SMILES>
C=c1c(=Cc2[n-]c(=O)[n-]c2[O-])[n-]c(=O)n1-c1ccc(C(=O)[N@H+]2CCN(Cc3ccccc3)C(=O)C2)cc1

> <Energy>
152.8787084500198

> <Genealogy>
C=c1c(=Cc2[n-]c(=O)[n-]c2[O-])[n-]c(=O)n1-c1ccc(C(=O)[NH+]2CCN(Cc3ccccc3)C(=O)C2)cc1 (protonated)
C=c1c(=Cc2[n-]c(=O)[n-]c2[O-])[n-]c(=O)n1-c1ccc(C(=O)[N@H+]2CCN(Cc3ccccc3)C(=O)C2)cc1 (chirality)
C=c1c(=Cc2[n-]c(=O)[n-]c2[O-])[n-]c(=O)n1-c1ccc(C(=O)[N@H+]2CCN(Cc3ccccc3)C(=O)C2)cc1 (3D coordinates assigned)
C=c1c(=Cc2[n-]c(=O)[n-]c2[O-])[n-]c(=O)n1-c1ccc(C(=O)[N@H+]2CCN(Cc3ccccc3)C(=O)C2)cc1 (nonaromatic ring conformer: 152.8787084500198 kcal/mol)

> <smiles>
C=c1c(=Cc2[nH]c(=O)[nH]c2O)[nH]c(=O)n1-c1ccc(C(=O)N2CCN(Cc3ccccc3)C(=O)C2)cc1

> <score_type>
oracle

> <origin>
adg

> <m_score__min__energy>
-17.629999999999999

> <m_primary>
energy

> <minimizedAffinity>
-6.76217

> <minimizedRMSD>
0.72285

> <CNNscore>
0.0741206408

> <CNNaffinity>
5.5289025307

> <CNN_VS>
0.4098058045

> <CNNaffinity_variance>
0.2422290593

$$$$
64:0


 30 32  0  0  0  0  0  0  0  0999 V2000
   57.7220   29.2180   45.1787 C   0  0  0  0  0  0  0  0  0  0  0  0
   58.5640   29.6109   46.2253 C   0  0  0  0  0  0  0  0  0  0  0  0
   58.9023   30.9597   46.4041 C   0  0  0  0  0  0  0  0  0  0  0  0
   58.3573   31.9267   45.5496 C   0  0  0  0  0  0  0  0  0  0  0  0
   57.4912   31.5466   44.5211 C   0  0  0  0  0  0  0  0  0  0  0  0
   57.1578   30.2008   44.3388 C   0  0  0  0  0  0  0  0  0  0  0  0
   56.2436   29.8592   43.3495 O   0  0  0  0  0  0  0  0  0  0  0  0
   59.9598   31.4382   47.7296 S   0  0  0  0  0  0  0  0  0  0  0  0
   61.2300   30.6357   47.6465 O   0  0  0  0  0  0  0  0  0  0  0  0
   59.2922   31.0973   49.0324 O   0  0  0  0  0  0  0  0  0  0  0  0
   60.3582   33.1436   47.7176 N   0  0  0  0  0  0  0  0  0  0  0  0
   61.7133   33.4270   47.2068 C   0  0  0  0  0  0  0  0  0  0  0  0
   62.7692   33.4621   48.3205 C   0  0  0  0  0  0  0  0  0  0  0  0
   62.3805   34.3434   49.3503 O   0  0  0  0  0  0  0  0  0  0  0  0
   61.2150   33.8443   49.9679 C   0  0  0  0  0  0  0  0  0  0  0  0
   60.0369   33.8329   48.9832 C   0  0  0  0  0  0  0  0  0  0  0  0
   57.4023   27.8270   45.0454 N   0  0  0  0  0  0  0  0  0  0  0  0
   56.8471   26.9926   46.0669 C   0  0  0  0  0  0  0  0  0  0  0  0
   55.6930   26.5054   45.9329 O   0  0  0  0  0  0  0  0  0  0  0  0
   57.6762   26.6068   47.2537 C   0  0  0  0  0  0  0  0  0  0  0  0
   58.3003   25.3032   47.0463 N   0  0  0  0  0  0  0  0  0  0  0  0
   60.3401   25.8834   46.1178 O   0  0  0  0  0  0  0  0  0  0  0  0
   59.4201   25.0258   46.1939 C   0  0  0  0  0  0  0  0  0  0  0  0
   59.5698   23.7095   45.4719 C   0  0  0  0  0  0  0  0  0  0  0  0
   58.2473   23.2088   44.9494 C   0  0  0  0  0  0  0  0  0  0  0  0
   57.4447   24.0393   44.1481 C   0  0  0  0  0  0  0  0  0  0  0  0
   56.2280   23.5707   43.6445 C   0  0  0  0  0  0  0  0  0  0  0  0
   55.8070   22.2686   43.9287 C   0  0  0  0  0  0  0  0  0  0  0  0
   56.6041   21.4319   44.7135 C   0  0  0  0  0  0  0  0  0  0  0  0
   57.8218   21.8974   45.2199 C   0  0  0  0  0  0  0  0  0  0  0  0
 22 23  2  0
 23 24  1  0
 24 25  1  0
 25 26  2  0
 26 27  1  0
 27 28  2  0
 28 29  1  0
 29 30  2  0
 23 21  1  0
 21 20  1  0
 20 18  1  0
 18 19  2  0
 18 17  1  0
 17  1  1  0
  1  2  2  0
  2  3  1  0
  3  8  1  0
  8  9  2  0
  8 10  2  0
  8 11  1  0
 11 12  1  0
 12 13  1  0
 13 14  1  0
 14 15  1  0
 15 16  1  0
  3  4  2  0
  4  5  1  0
  5  6  2  0
  6  7  1  0
 30 25  1  0
  6  1  1  0
 16 11  1  0
M  CHG 1   7  -1
M  CHG 1  17  -1
M  CHG 1  21  -1
M  END
> <UniqueID>
59

> <SMILES>
O=C(Cc1ccccc1)[N-]CC(=O)[N-]c1cc(S(=O)(=O)N2CCOCC2)ccc1[O-]

> <Energy>
59.10690665861483

> <Genealogy>
O=C(Cc1ccccc1)[N-]CC(=O)[N-]c1cc(S(=O)(=O)N2CCOCC2)ccc1[O-] (protonated)
O=C(Cc1ccccc1)[N-]CC(=O)[N-]c1cc(S(=O)(=O)N2CCOCC2)ccc1[O-] (3D coordinates assigned)
O=C(Cc1ccccc1)[N-]CC(=O)[N-]c1cc(S(=O)(=O)N2CCOCC2)ccc1[O-] (nonaromatic ring conformer: 59.10690665861483 kcal/mol)

> <smiles>
O=C(Cc1ccccc1)NCC(=O)Nc1cc(S(=O)(=O)N2CCOCC2)ccc1O

> <score_type>
oracle

> <origin>
adg

> <m_score__min__energy>
-15.58

> <m_primary>
energy

> <minimizedAffinity>
-6.03235

> <minimizedRMSD>
2.55558

> <CNNscore>
0.3946819305

> <CNNaffinity>
6.5594315529

> <CNN_VS>
2.5888891220

> <CNNaffinity_variance>
0.1261055470

$$$$
68:0


 31 34  0  0  0  0  0  0  0  0999 V2000
   59.3909   31.1672   46.8238 C   0  0  0  0  0  0  0  0  0  0  0  0
   58.3981   32.1139   46.5452 C   0  0  0  0  0  0  0  0  0  0  0  0
   58.6884   33.4755   46.5870 C   0  0  0  0  0  0  0  0  0  0  0  0
   59.9725   33.9053   46.9163 C   0  0  0  0  0  0  0  0  0  0  0  0
   60.9879   32.9780   47.2028 C   0  0  0  0  0  0  0  0  0  0  0  0
   60.7040   31.5867   47.1471 C   0  0  0  0  0  0  0  0  0  0  0  0
   61.7761   30.5697   47.4524 C   0  0  0  0  0  0  0  0  0  0  0  0
   62.3261   33.5007   47.5723 C   0  0  0  0  0  0  0  0  0  0  0  0
   63.1105   33.8930   46.6669 O   0  0  0  0  0  0  0  0  0  0  0  0
   62.7645   33.5157   48.9439 N   0  0  0  0  0  0  0  0  0  0  0  0
   61.8423   33.8487   50.0356 C   0  0  0  0  0  0  0  0  0  0  0  0
   62.0122   32.8597   51.2063 C   0  0  0  0  0  0  0  0  0  0  0  0
   63.4053   32.3853   51.4037 N   0  0  0  0  0  0  0  0  0  0  0  0
   63.5636   30.9700   51.0229 C   0  0  0  0  0  0  0  0  0  0  0  0
   64.4235   33.2432   50.7599 C   0  0  0  0  0  0  0  0  0  0  0  0
   64.1910   33.3704   49.2444 C   0  0  0  0  0  0  0  0  0  0  0  0
   58.7111   29.5679   44.4202 C   0  0  0  0  0  0  0  0  0  0  0  0
   58.7135   29.0618   45.6614 C   0  0  0  0  0  0  0  0  0  0  0  0
   58.3698   27.7582   46.0347 C   0  0  0  0  0  0  0  0  0  0  0  0
   58.0106   26.7469   45.2196 C   0  0  0  0  0  0  0  0  0  0  0  0
   58.5137   27.6950   47.4152 C   0  0  0  0  0  0  0  0  0  0  0  0
   58.9266   28.9475   47.8266 C   0  0  0  0  0  0  0  0  0  0  0  0
   59.1970   29.3430   49.2443 C   0  0  0  0  0  0  0  0  0  0  0  0
   59.0456   29.7723   46.7647 N   0  0  0  0  0  0  0  0  0  0  0  0
   57.4977   25.4494   45.6999 C   0  0  0  0  0  0  0  0  0  0  0  0
   58.2302   24.3217   45.7036 N   0  0  0  0  0  0  0  0  0  0  0  0
   57.3498   23.3813   46.1122 C   0  0  0  0  0  0  0  0  0  0  0  0
   57.6702   22.1724   46.2563 O   0  0  0  0  0  0  0  0  0  0  0  0
   56.0983   23.8329   46.3412 N   0  0  0  0  0  0  0  0  0  0  0  0
   56.2052   25.1426   46.0650 C   0  0  0  0  0  0  0  0  0  0  0  0
   55.1326   26.0247   46.1041 O   0  0  0  0  0  0  0  0  0  0  0  0
 17 18  2  0
 18 19  1  0
 19 20  2  0
 20 25  1  0
 25 26  1  0
 26 27  1  0
 27 28  2  0
 27 29  1  0
 29 30  1  0
 30 31  1  0
 19 21  1  0
 21 22  2  0
 22 23  1  0
 22 24  1  0
 24  1  1  0
  1  2  2  0
  2  3  1  0
  3  4  2  0
  4  5  1  0
  5  8  1  0
  8  9  2  0
  8 10  1  0
 10 11  1  0
 11 12  1  0
 12 13  1  0
 13 14  1  0
 13 15  1  0
 15 16  1  0
  5  6  2  0
  6  7  1  0
 24 18  1  0
  6  1  1  0
 30 25  2  0
 16 10  1  0
M  CHG 1  26  -1
M  CHG 1  29  -1
M  CHG 1  31  -1
M  END
> <UniqueID>
63

> <SMILES>
C=c1/c(=C/c2[n-]c(=O)[n-]c2[O-])cc(C)n1-c1cccc(C(=O)N2CCN(C)CC2)c1C

> <Energy>
143.63512677369798

> <Genealogy>
C=c1c(=Cc2[n-]c(=O)[n-]c2[O-])cc(C)n1-c1cccc(C(=O)N2CCN(C)CC2)c1C (protonated)
C=c1/c(=C/c2[n-]c(=O)[n-]c2[O-])cc(C)n1-c1cccc(C(=O)N2CCN(C)CC2)c1C (cis-trans isomerization)
C=c1/c(=C/c2[n-]c(=O)[n-]c2[O-])cc(C)n1-c1cccc(C(=O)N2CCN(C)CC2)c1C (3D coordinates assigned)
C=c1/c(=C/c2[n-]c(=O)[n-]c2[O-])cc(C)n1-c1cccc(C(=O)N2CCN(C)CC2)c1C (nonaromatic ring conformer: 143.63512677369798 kcal/mol)

> <smiles>
C=c1c(=Cc2[nH]c(=O)[nH]c2O)cc(C)n1-c1cccc(C(=O)N2CCN(C)CC2)c1C

> <score_type>
oracle

> <origin>
adg

> <m_score__min__energy>
-16.52

> <m_primary>
energy

> <minimizedAffinity>
-9.21120

> <minimizedRMSD>
0.74178

> <CNNscore>
0.2308905721

> <CNNaffinity>
6.6838054657

> <CNN_VS>
1.5432276726

> <CNNaffinity_variance>
0.0509570576

$$$$
73:0


 34 37  0  0  0  0  0  0  0  0999 V2000
   58.4639   30.3622   46.6837 N   0  0  0  0  0  0  0  0  0  0  0  0
   58.9142   29.5284   47.6581 C   0  0  0  0  0  0  0  0  0  0  0  0
   58.8960   28.2195   47.2151 C   0  0  0  0  0  0  0  0  0  0  0  0
   58.4102   28.2325   45.9164 C   0  0  0  0  0  0  0  0  0  0  0  0
   58.2222   27.1646   45.1094 C   0  0  0  0  0  0  0  0  0  0  0  0
   58.1294   29.5746   45.6227 C   0  0  0  0  0  0  0  0  0  0  0  0
   57.5930   30.0299   44.4752 C   0  0  0  0  0  0  0  0  0  0  0  0
   57.8085   25.8122   45.5480 C   0  0  0  0  0  0  0  0  0  0  0  0
   58.5735   24.7039   45.5302 N   0  0  0  0  0  0  0  0  0  0  0  0
   57.7434   23.7365   45.9757 C   0  0  0  0  0  0  0  0  0  0  0  0
   58.1070   22.5386   46.1062 O   0  0  0  0  0  0  0  0  0  0  0  0
   56.4940   24.1533   46.2676 N   0  0  0  0  0  0  0  0  0  0  0  0
   56.5511   25.4667   45.9872 C   0  0  0  0  0  0  0  0  0  0  0  0
   55.4734   26.3320   46.1268 O   0  0  0  0  0  0  0  0  0  0  0  0
   59.3305   29.9316   49.0273 C   0  0  0  0  0  0  0  0  0  0  0  0
   58.5048   29.8418   49.9809 O   0  0  0  0  0  0  0  0  0  0  0  0
   60.6467   30.4880   49.2694 N   0  0  0  0  0  0  0  0  0  0  0  0
   61.3697   30.6469   47.9825 C   0  0  0  0  0  0  0  0  0  0  0  0
   62.5800   31.6078   48.0742 C   0  0  0  0  0  0  0  0  0  0  0  0
   63.0586   31.8049   49.5240 C   0  0  0  0  0  0  0  0  0  0  0  0
   61.9208   32.2705   50.4585 C   0  0  0  0  0  0  0  0  0  0  0  0
   60.5374   31.7741   49.9917 C   0  0  0  0  0  0  0  0  0  0  0  0
   60.0699   30.9248   48.6018 H   0  0  0  0  0  0  0  0  0  0  0  0
   64.2734   32.7043   49.6019 C   0  0  0  0  0  0  0  0  0  0  0  0
   64.3451   33.6847   48.8133 O   0  0  0  0  0  0  0  0  0  0  0  0
   65.3159   32.5166   50.5795 N   0  0  0  0  0  0  0  0  0  0  0  0
   65.9880   33.6388   51.2126 C   0  0  0  0  0  0  0  0  0  0  0  0
   67.2120   33.0519   51.9026 C   0  0  0  0  0  0  0  0  0  0  0  0
   66.9691   31.5457   51.9717 C   0  0  0  0  0  0  0  0  0  0  0  0
   65.9536   31.2432   50.8791 C   0  0  0  0  0  0  0  0  0  0  0  0
   58.2601   31.8156   46.8200 C   0  0  0  0  0  0  0  0  0  0  0  0
   59.9716   33.5408   46.3120 C   0  0  0  0  0  0  0  0  0  0  0  0
   59.1643   32.5593   45.8767 C   0  0  0  0  0  0  0  0  0  0  0  0
   59.5818   34.4014   47.4733 C   0  0  0  0  0  0  0  0  0  0  0  0
 32 33  2  0
 33 31  1  0
 31  1  1  0
  1  2  1  0
  2 15  1  0
 15 16  2  0
 17 15  1  0
 17 18  1  0
 18 19  1  0
 19 20  1  0
 20 24  1  0
 24 25  2  0
 24 26  1  0
 26 27  1  0
 27 28  1  0
 28 29  1  0
 29 30  1  0
 20 21  1  0
 21 22  1  0
  2  3  2  0
  3  4  1  0
  4  5  2  0
  5  8  1  0
  8  9  1  0
  9 10  1  0
 10 11  2  0
 10 12  1  0
 12 13  1  0
 13 14  1  0
  4  6  1  0
  6  7  2  0
 32 34  1  0
  6  1  1  0
 22 17  1  0
 13  8  2  0
 30 26  1  0
 17 23  1  0
M  CHG 1   9  -1
M  CHG 1  12  -1
M  CHG 1  14  -1
M  CHG 1  17   1
M  END
> <UniqueID>
68

> <SMILES>
C=c1/c(=C/c2[n-]c(=O)[n-]c2[O-])cc(C(=O)[NH+]2CCC(C(=O)N3CCCC3)CC2)n1CC=CC

> <Energy>
135.71286345503518

> <Genealogy>
C=c1c(=Cc2[n-]c(=O)[n-]c2[O-])cc(C(=O)[NH+]2CCC(C(=O)N3CCCC3)CC2)n1CC=CC (protonated)
C=c1/c(=C/c2[n-]c(=O)[n-]c2[O-])cc(C(=O)[NH+]2CCC(C(=O)N3CCCC3)CC2)n1CC=CC (cis-trans isomerization)
C=c1/c(=C/c2[n-]c(=O)[n-]c2[O-])cc(C(=O)[NH+]2CCC(C(=O)N3CCCC3)CC2)n1CC=CC (3D coordinates assigned)
C=c1/c(=C/c2[n-]c(=O)[n-]c2[O-])cc(C(=O)[NH+]2CCC(C(=O)N3CCCC3)CC2)n1CC=CC (nonaromatic ring conformer: 135.71286345503518 kcal/mol)

> <smiles>
C=c1c(=Cc2[nH]c(=O)[nH]c2O)cc(C(=O)N2CCC(C(=O)N3CCCC3)CC2)n1CC=CC

> <score_type>
oracle

> <origin>
adg

> <m_score__min__energy>
-16.489999999999998

> <m_primary>
energy

> <minimizedAffinity>
-8.02751

> <minimizedRMSD>
0.76252

> <CNNscore>
0.1530085057

> <CNNaffinity>
6.6546459198

> <CNN_VS>
1.0182174444

> <CNNaffinity_variance>
0.1012626514

$$$$
85:0


 32 35  0  0  0  0  0  0  0  0999 V2000
   58.4239   30.1425   52.5413 C   0  0  0  0  0  0  0  0  0  0  0  0
   59.2843   29.2580   52.8119 O   0  0  0  0  0  0  0  0  0  0  0  0
   54.3849   27.8897   53.9353 C   0  0  0  0  0  0  0  0  0  0  0  0
   55.1997   28.8839   53.5667 C   0  0  0  0  0  0  0  0  0  0  0  0
   54.8220   30.1305   53.0430 C   0  0  0  0  0  0  0  0  0  0  0  0
   53.6230   30.7228   52.9412 C   0  0  0  0  0  0  0  0  0  0  0  0
   55.9819   30.7103   52.5740 C   0  0  0  0  0  0  0  0  0  0  0  0
   57.0131   29.8397   52.8517 C   0  0  0  0  0  0  0  0  0  0  0  0
   56.5537   28.7458   53.5001 N   0  0  0  0  0  0  0  0  0  0  0  0
   57.3520   27.6165   53.9904 C   0  0  0  0  0  0  0  0  0  0  0  0
   52.7006   30.6269   51.8007 C   0  0  0  0  0  0  0  0  0  0  0  0
   52.8793   29.7762   50.7776 N   0  0  0  0  0  0  0  0  0  0  0  0
   51.9367   30.1479   49.8900 C   0  0  0  0  0  0  0  0  0  0  0  0
   51.7811   29.5651   48.7904 O   0  0  0  0  0  0  0  0  0  0  0  0
   51.1917   31.2083   50.2654 N   0  0  0  0  0  0  0  0  0  0  0  0
   51.6989   31.5097   51.4667 C   0  0  0  0  0  0  0  0  0  0  0  0
   51.2783   32.5884   52.2291 O   0  0  0  0  0  0  0  0  0  0  0  0
   58.8737   31.4255   52.0187 N   0  0  0  0  0  0  0  0  0  0  0  0
   58.2311   31.8311   50.7422 C   0  0  0  0  0  0  0  0  0  0  0  0
   59.0324   31.5255   49.4486 C   0  0  0  0  0  0  0  0  0  0  0  0
   60.4867   31.3926   49.6494 N   0  0  0  0  0  0  0  0  0  0  0  0
   60.9422   32.1690   50.8075 C   0  0  0  0  0  0  0  0  0  0  0  0
   60.3597   31.5128   52.0523 C   0  0  0  0  0  0  0  0  0  0  0  0
   59.8441   31.2595   52.0110 H   0  0  0  0  0  0  0  0  0  0  0  0
   61.2269   31.7638   48.4279 C   0  0  0  0  0  0  0  0  0  0  0  0
   60.3540   32.5677   47.4989 C   0  0  0  0  0  0  0  0  0  0  0  0
   60.3554   33.9671   47.5765 C   0  0  0  0  0  0  0  0  0  0  0  0
   59.5420   34.7234   46.7264 C   0  0  0  0  0  0  0  0  0  0  0  0
   58.7348   34.0813   45.7768 C   0  0  0  0  0  0  0  0  0  0  0  0
   58.7332   32.6831   45.6787 C   0  0  0  0  0  0  0  0  0  0  0  0
   57.8184   31.9974   44.7158 C   0  0  0  0  0  0  0  0  0  0  0  0
   59.5341   31.9350   46.5569 C   0  0  0  0  0  0  0  0  0  0  0  0
  3  4  2  0
  4  5  1  0
  5  6  2  0
  6 11  1  0
 11 12  1  0
 12 13  1  0
 13 14  2  0
 13 15  1  0
 15 16  1  0
 16 17  1  0
  5  7  1  0
  7  8  2  0
  8  1  1  0
  1  2  2  0
  1 18  1  0
 18 19  1  0
 19 20  1  0
 20 21  1  0
 21 25  1  0
 25 26  1  0
 26 27  2  0
 27 28  1  0
 28 29  2  0
 29 30  1  0
 30 31  1  0
 30 32  2  0
 21 22  1  0
 22 23  1  0
  8  9  1  0
  9 10  1  0
  9  4  1  0
 16 11  2  0
 23 18  1  0
 32 26  1  0
 18 24  1  0
M  CHG 1  12  -1
M  CHG 1  15  -1
M  CHG 1  17  -1
M  CHG 1  18   1
M  END
> <UniqueID>
80

> <SMILES>
C=c1/c(=C\c2[n-]c(=O)[n-]c2[O-])cc(C(=O)[NH+]2CCN(Cc3cccc(C)c3)CC2)n1C

> <Energy>
156.2639496189754

> <Genealogy>
C=c1c(=Cc2[n-]c(=O)[n-]c2[O-])cc(C(=O)[NH+]2CCN(Cc3cccc(C)c3)CC2)n1C (protonated)
C=c1/c(=C\c2[n-]c(=O)[n-]c2[O-])cc(C(=O)[NH+]2CCN(Cc3cccc(C)c3)CC2)n1C (cis-trans isomerization)
C=c1/c(=C\c2[n-]c(=O)[n-]c2[O-])cc(C(=O)[NH+]2CCN(Cc3cccc(C)c3)CC2)n1C (3D coordinates assigned)
C=c1/c(=C\c2[n-]c(=O)[n-]c2[O-])cc(C(=O)[NH+]2CCN(Cc3cccc(C)c3)CC2)n1C (nonaromatic ring conformer: 156.2639496189754 kcal/mol)

> <smiles>
C=c1c(=Cc2[nH]c(=O)[nH]c2O)cc(C(=O)N2CCN(Cc3cccc(C)c3)CC2)n1C

> <score_type>
oracle

> <origin>
adg

> <m_score__min__energy>
-17.52

> <m_primary>
energy

> <minimizedAffinity>
-7.48692

> <minimizedRMSD>
0.69652

> <CNNscore>
0.1197275892

> <CNNaffinity>
5.5685153008

> <CNN_VS>
0.6667048931

> <CNNaffinity_variance>
0.3332109749

$$$$
1:0


 36 40  0  0  0  0  0  0  0  0999 V2000
   60.2219   30.4224   46.1338 C   0  0  0  0  0  0  0  0  0  0  0  0
   59.8670   29.8925   47.3162 C   0  0  0  0  0  0  0  0  0  0  0  0
   59.6496   28.5351   47.6018 C   0  0  0  0  0  0  0  0  0  0  0  0
   59.5507   27.4627   46.7916 C   0  0  0  0  0  0  0  0  0  0  0  0
   59.5192   28.4456   48.9778 C   0  0  0  0  0  0  0  0  0  0  0  0
   59.5834   29.7307   49.4695 C   0  0  0  0  0  0  0  0  0  0  0  0
   59.7995   30.6126   48.4657 N   0  0  0  0  0  0  0  0  0  0  0  0
   59.4468   30.0969   50.8898 C   0  0  0  0  0  0  0  0  0  0  0  0
   58.3503   30.5771   51.2852 O   0  0  0  0  0  0  0  0  0  0  0  0
   60.5020   29.8369   51.8396 N   0  0  0  0  0  0  0  0  0  0  0  0
   61.8750   29.6084   51.3753 C   0  0  0  0  0  0  0  0  0  0  0  0
   62.8661   29.8414   52.5184 C   0  0  0  0  0  0  0  0  0  0  0  0
   62.5001   29.0880   53.6548 O   0  0  0  0  0  0  0  0  0  0  0  0
   61.2802   29.5807   54.1723 C   0  0  0  0  0  0  0  0  0  0  0  0
   60.1329   29.3603   53.1790 C   0  0  0  0  0  0  0  0  0  0  0  0
   58.3658   26.6012   46.6418 C   0  0  0  0  0  0  0  0  0  0  0  0
   58.2215   25.4228   47.2754 N   0  0  0  0  0  0  0  0  0  0  0  0
   56.9576   25.0555   46.9695 C   0  0  0  0  0  0  0  0  0  0  0  0
   56.4481   23.9759   47.3735 O   0  0  0  0  0  0  0  0  0  0  0  0
   56.2781   25.9405   46.2107 N   0  0  0  0  0  0  0  0  0  0  0  0
   57.1769   26.9217   46.0265 C   0  0  0  0  0  0  0  0  0  0  0  0
   56.9066   28.0956   45.3358 O   0  0  0  0  0  0  0  0  0  0  0  0
   59.9889   32.0645   48.6247 C   0  0  0  0  0  0  0  0  0  0  0  0
   61.3518   32.3904   49.1881 C   0  0  0  0  0  0  0  0  0  0  0  0
   62.5264   31.9138   48.5870 C   0  0  0  0  0  0  0  0  0  0  0  0
   63.7699   32.2300   49.1319 C   0  0  0  0  0  0  0  0  0  0  0  0
   63.8408   33.0088   50.2987 C   0  0  0  0  0  0  0  0  0  0  0  0
   62.6836   33.4356   50.8904 N   0  0  0  0  0  0  0  0  0  0  0  0
   61.4623   33.1419   50.3662 C   0  0  0  0  0  0  0  0  0  0  0  0
   62.7355   33.9688   51.7163 H   0  0  0  0  0  0  0  0  0  0  0  0
   65.1568   33.3574   50.8890 C   0  0  0  0  0  0  0  0  0  0  0  0
   65.2485   34.2982   51.9330 C   0  0  0  0  0  0  0  0  0  0  0  0
   66.4906   34.6154   52.4915 C   0  0  0  0  0  0  0  0  0  0  0  0
   67.6525   34.0044   52.0128 C   0  0  0  0  0  0  0  0  0  0  0  0
   67.5724   33.0732   50.9738 C   0  0  0  0  0  0  0  0  0  0  0  0
   66.3326   32.7470   50.4140 C   0  0  0  0  0  0  0  0  0  0  0  0
  1  2  2  0
  2  3  1  0
  3  4  2  0
  4 16  1  0
 16 17  1  0
 17 18  1  0
 18 19  2  0
 18 20  1  0
 20 21  1  0
 21 22  1  0
  3  5  1  0
  5  6  2  0
  6  8  1  0
  8  9  2  0
  8 10  1  0
 10 11  1  0
 11 12  1  0
 12 13  1  0
 13 14  1  0
 14 15  1  0
  6  7  1  0
  7 23  1  0
 23 24  1  0
 24 25  2  0
 25 26  1  0
 26 27  2  0
 27 31  1  0
 31 32  2  0
 32 33  1  0
 33 34  2  0
 34 35  1  0
 35 36  2  0
 27 28  1  0
 28 29  2  0
  7  2  1  0
 29 24  1  0
 21 16  2  0
 15 10  1  0
 36 31  1  0
 28 30  1  0
M  CHG 1  17  -1
M  CHG 1  20  -1
M  CHG 1  22  -1
M  CHG 1  28   1
M  END
> <UniqueID>
2

> <SMILES>
C=c1c(=Cc2[n-]c(=O)[n-]c2[O-])cc(C(=O)N2CCOCC2)n1Cc1ccc(-c2ccccc2)[nH+]c1

> <Energy>
148.57637830369947

> <Genealogy>
C=c1c(=Cc2[n-]c(=O)[n-]c2[O-])cc(C(=O)N2CCOCC2)n1Cc1ccc(-c2ccccc2)[nH+]c1 (protonated)
C=c1c(=Cc2[n-]c(=O)[n-]c2[O-])cc(C(=O)N2CCOCC2)n1Cc1ccc(-c2ccccc2)[nH+]c1 (3D coordinates assigned)
C=c1c(=Cc2[n-]c(=O)[n-]c2[O-])cc(C(=O)N2CCOCC2)n1Cc1ccc(-c2ccccc2)[nH+]c1 (nonaromatic ring conformer: 148.57637830369947 kcal/mol)

> <smiles>
C=c1c(=Cc2[nH]c(=O)[nH]c2O)cc(C(=O)N2CCOCC2)n1Cc1ccc(-c2ccccc2)nc1

> <score_type>
oracle

> <origin>
adg

> <m_score__min__energy>
-16.59

> <m_primary>
energy

> <minimizedAffinity>
-7.17153

> <minimizedRMSD>
1.13294

> <CNNscore>
0.1875740141

> <CNNaffinity>
6.2699356079

> <CNN_VS>
1.1760770082

> <CNNaffinity_variance>
0.0620699637

$$$$
16:0


 25 27  0  0  0  0  0  0  0  0999 V2000
   59.4688   27.5053   47.5043 C   0  0  0  0  0  0  0  0  0  0  0  0
   58.7176   28.2810   46.7066 C   0  0  0  0  0  0  0  0  0  0  0  0
   58.0417   27.9116   45.5359 C   0  0  0  0  0  0  0  0  0  0  0  0
   57.8205   26.7022   44.9798 C   0  0  0  0  0  0  0  0  0  0  0  0
   57.5981   29.1197   45.0090 C   0  0  0  0  0  0  0  0  0  0  0  0
   56.8160   29.3194   43.7481 C   0  0  0  0  0  0  0  0  0  0  0  0
   57.9402   30.1313   45.8268 N   0  0  0  0  0  0  0  0  0  0  0  0
   58.5932   29.6234   46.8613 N   0  0  0  0  0  0  0  0  0  0  0  0
   57.3977   25.4911   45.7085 C   0  0  0  0  0  0  0  0  0  0  0  0
   56.1032   25.4021   46.2402 C   0  0  0  0  0  0  0  0  0  0  0  0
   55.1873   26.4290   46.0466 O   0  0  0  0  0  0  0  0  0  0  0  0
   55.7339   24.3011   46.9437 N   0  0  0  0  0  0  0  0  0  0  0  0
   56.6030   23.2819   47.1590 C   0  0  0  0  0  0  0  0  0  0  0  0
   56.1286   21.9705   48.0072 S   0  0  0  0  0  0  0  0  0  0  0  0
   57.8710   23.3564   46.6796 N   0  0  0  0  0  0  0  0  0  0  0  0
   58.2901   24.4358   45.9703 C   0  0  0  0  0  0  0  0  0  0  0  0
   59.4812   24.4813   45.5580 O   0  0  0  0  0  0  0  0  0  0  0  0
   59.1815   30.4513   47.9250 C   0  0  0  0  0  0  0  0  0  0  0  0
   59.4569   31.8562   47.4425 C   0  0  0  0  0  0  0  0  0  0  0  0
   58.3844   32.7349   47.2124 C   0  0  0  0  0  0  0  0  0  0  0  0
   58.6196   34.0457   46.7920 C   0  0  0  0  0  0  0  0  0  0  0  0
   59.9275   34.4958   46.6032 C   0  0  0  0  0  0  0  0  0  0  0  0
   61.0040   33.6373   46.8398 C   0  0  0  0  0  0  0  0  0  0  0  0
   60.7781   32.3219   47.2624 C   0  0  0  0  0  0  0  0  0  0  0  0
   62.1720   31.2899   47.5714 Cl  0  0  0  0  0  0  0  0  0  0  0  0
  1  2  2  0
  2  3  1  0
  3  4  2  0
  4  9  1  0
  9 10  2  0
 10 11  1  0
 10 12  1  0
 12 13  1  0
 13 14  2  0
 13 15  1  0
 15 16  1  0
 16 17  2  0
  3  5  1  0
  5  6  1  0
  5  7  2  0
  7  8  1  0
  8 18  1  0
 18 19  1  0
 19 20  2  0
 20 21  1  0
 21 22  2  0
 22 23  1  0
 23 24  2  0
 24 25  1  0
  8  2  1  0
 24 19  1  0
 16  9  1  0
M  CHG 1  11  -1
M  CHG 1  12  -1
M  CHG 1  15  -1
M  END
> <UniqueID>
17

> <SMILES>
C=c1c(=Cc2c([O-])[n-]c(=S)[n-]c2=O)c(C)nn1Cc1ccccc1Cl

> <Energy>
86.79803703627647

> <Genealogy>
C=c1c(=Cc2c([O-])[n-]c(=S)[n-]c2=O)c(C)nn1Cc1ccccc1Cl (protonated)
C=c1c(=Cc2c([O-])[n-]c(=S)[n-]c2=O)c(C)nn1Cc1ccccc1Cl (3D coordinates assigned)
C=c1c(=Cc2c([O-])[n-]c(=S)[n-]c2=O)c(C)nn1Cc1ccccc1Cl (optimized conformer: 86.79803703627647 kcal/mol)

> <smiles>
C=c1c(=Cc2c(O)[nH]c(=S)[nH]c2=O)c(C)nn1Cc1ccccc1Cl

> <score_type>
oracle

> <origin>
adg

> <m_score__min__energy>
-16.050000000000001

> <m_primary>
energy

> <minimizedAffinity>
-8.11679

> <minimizedRMSD>
0.81101

> <CNNscore>
0.3099005520

> <CNNaffinity>
6.3751797676

> <CNN_VS>
1.9756717682

> <CNNaffinity_variance>
0.0491689183

$$$$
20:0


 30 33  0  0  0  0  0  0  0  0999 V2000
   59.6842   29.2745   45.5969 C   0  0  0  0  0  0  0  0  0  0  0  0
   59.5274   30.5492   46.0019 C   0  0  0  0  0  0  0  0  0  0  0  0
   58.5224   31.3651   45.5143 C   0  0  0  0  0  0  0  0  0  0  0  0
   58.5969   32.5537   46.2073 C   0  0  0  0  0  0  0  0  0  0  0  0
   57.6320   33.6880   46.0400 C   0  0  0  0  0  0  0  0  0  0  0  0
   59.6249   32.5280   47.0885 N   0  0  0  0  0  0  0  0  0  0  0  0
   60.2240   31.3109   46.9585 C   0  0  0  0  0  0  0  0  0  0  0  0
   61.3578   30.9609   47.5895 C   0  0  0  0  0  0  0  0  0  0  0  0
   60.6414   27.6568   47.8129 O   0  0  0  0  0  0  0  0  0  0  0  0
   59.4461   27.3320   47.1707 C   0  0  0  0  0  0  0  0  0  0  0  0
   58.7569   26.2400   47.5926 N   0  0  0  0  0  0  0  0  0  0  0  0
   57.5878   25.8723   47.0074 C   0  0  0  0  0  0  0  0  0  0  0  0
   56.9690   24.8583   47.4220 O   0  0  0  0  0  0  0  0  0  0  0  0
   57.0885   26.5931   45.9730 N   0  0  0  0  0  0  0  0  0  0  0  0
   57.7358   27.6931   45.5081 C   0  0  0  0  0  0  0  0  0  0  0  0
   57.2520   28.3271   44.5313 O   0  0  0  0  0  0  0  0  0  0  0  0
   58.9366   28.1105   46.1132 C   0  0  0  0  0  0  0  0  0  0  0  0
   60.9573   27.1211   48.5138 H   0  0  0  0  0  0  0  0  0  0  0  0
   59.9447   33.6034   48.0424 C   0  0  0  0  0  0  0  0  0  0  0  0
   59.9085   33.0821   49.4571 C   0  0  0  0  0  0  0  0  0  0  0  0
   60.9806   33.3224   50.3301 C   0  0  0  0  0  0  0  0  0  0  0  0
   60.9357   32.8542   51.6452 C   0  0  0  0  0  0  0  0  0  0  0  0
   59.8227   32.1440   52.1021 C   0  0  0  0  0  0  0  0  0  0  0  0
   58.7407   31.8912   51.2408 C   0  0  0  0  0  0  0  0  0  0  0  0
   58.7939   32.3602   49.9176 C   0  0  0  0  0  0  0  0  0  0  0  0
   57.5600   31.1462   51.7234 C   0  0  0  0  0  0  0  0  0  0  0  0
   57.4375   29.8062   51.6942 N   0  0  0  0  0  0  0  0  0  0  0  0
   56.2465   29.5633   52.2162 N   0  0  0  0  0  0  0  0  0  0  0  0
   55.6643   30.7039   52.5510 N   0  0  0  0  0  0  0  0  0  0  0  0
   56.4622   31.7173   52.2544 N   0  0  0  0  0  0  0  0  0  0  0  0
  9 10  1  0
 10 11  1  0
 11 12  1  0
 12 13  2  0
 12 14  1  0
 14 15  1  0
 15 16  2  0
 15 17  1  0
 17  1  1  0
  1  2  2  0
  2  3  1  0
  3  4  2  0
  4  5  1  0
  4  6  1  0
  6 19  1  0
 19 20  1  0
 20 21  2  0
 21 22  1  0
 22 23  2  0
 23 24  1  0
 24 26  1  0
 26 27  1  0
 27 28  2  0
 28 29  1  0
 29 30  1  0
 24 25  2  0
  6  7  1  0
  7  8  2  0
 17 10  2  0
  7  2  1  0
 25 20  1  0
 30 26  2  0
  9 18  1  0
M  CHG 1  11  -1
M  CHG 1  14  -1
M  CHG 1  29  -1
M  END
> <UniqueID>
21

> <SMILES>
C=c1/c(=C\c2c(O)[n-]c(=O)[n-]c2=O)cc(C)n1Cc1cccc(-c2nn[n-]n2)c1

> <Energy>
128.77901378989893

> <Genealogy>
C=c1c(=Cc2c(O)[n-]c(=O)[n-]c2=O)cc(C)n1Cc1cccc(-c2nn[n-]n2)c1 (protonated)
C=c1/c(=C\c2c(O)[n-]c(=O)[n-]c2=O)cc(C)n1Cc1cccc(-c2nn[n-]n2)c1 (cis-trans isomerization)
C=c1/c(=C\c2c(O)[n-]c(=O)[n-]c2=O)cc(C)n1Cc1cccc(-c2nn[n-]n2)c1 (3D coordinates assigned)
C=c1/c(=C\c2c(O)[n-]c(=O)[n-]c2=O)cc(C)n1Cc1cccc(-c2nn[n-]n2)c1 (optimized conformer: 128.77901378989893 kcal/mol)

> <smiles>
C=c1c(=Cc2c(O)[nH]c(=O)[nH]c2=O)cc(C)n1Cc1cccc(-c2nn[nH]n2)c1

> <score_type>
oracle

> <origin>
adg

> <m_score__min__energy>
-14.59

> <m_primary>
energy

> <minimizedAffinity>
-7.90560

> <minimizedRMSD>
1.10137

> <CNNscore>
0.2023299634

> <CNNaffinity>
6.5883240700

> <CNN_VS>
1.3330153227

> <CNNaffinity_variance>
0.0333008505

$$$$
25:0


 30 32  0  0  0  0  0  0  0  0999 V2000
   59.4719   30.6824   51.4057 C   0  0  0  0  0  0  0  0  0  0  0  0
   60.1508   31.1660   50.2720 C   0  0  0  0  0  0  0  0  0  0  0  0
   60.2700   32.5442   50.0495 C   0  0  0  0  0  0  0  0  0  0  0  0
   59.7190   33.4442   50.9710 C   0  0  0  0  0  0  0  0  0  0  0  0
   59.0383   32.9704   52.0950 C   0  0  0  0  0  0  0  0  0  0  0  0
   58.9044   31.5948   52.3064 C   0  0  0  0  0  0  0  0  0  0  0  0
   58.2012   31.1370   53.4161 O   0  0  0  0  0  0  0  0  0  0  0  0
   61.0748   33.1399   48.5962 S   0  0  0  0  0  0  0  0  0  0  0  0
   62.2524   32.2584   48.2872 O   0  0  0  0  0  0  0  0  0  0  0  0
   61.5865   34.5297   48.8494 O   0  0  0  0  0  0  0  0  0  0  0  0
   59.9928   33.1708   47.2238 N   0  0  0  0  0  0  0  0  0  0  0  0
   60.1667   34.4129   46.4593 C   0  0  0  0  0  0  0  0  0  0  0  0
   59.2099   34.4251   45.2476 C   0  0  0  0  0  0  0  0  0  0  0  0
   58.3307   33.3131   45.2496 O   0  0  0  0  0  0  0  0  0  0  0  0
   57.6302   33.2580   46.4774 C   0  0  0  0  0  0  0  0  0  0  0  0
   58.5935   33.0383   47.6635 C   0  0  0  0  0  0  0  0  0  0  0  0
   59.2500   29.2789   51.6030 N   0  0  0  0  0  0  0  0  0  0  0  0
   60.2676   28.2775   51.7205 C   0  0  0  0  0  0  0  0  0  0  0  0
   60.3727   27.6016   52.7773 O   0  0  0  0  0  0  0  0  0  0  0  0
   60.7443   27.2758   49.4863 C   0  0  0  0  0  0  0  0  0  0  0  0
   61.1368   27.9580   50.5746 C   0  0  0  0  0  0  0  0  0  0  0  0
   58.2321   27.5780   46.6672 C   0  0  0  0  0  0  0  0  0  0  0  0
   58.9840   27.0610   47.7403 C   0  0  0  0  0  0  0  0  0  0  0  0
   59.9661   27.8448   48.3649 C   0  0  0  0  0  0  0  0  0  0  0  0
   60.2353   29.1340   47.8732 C   0  0  0  0  0  0  0  0  0  0  0  0
   59.4878   29.6522   46.8135 C   0  0  0  0  0  0  0  0  0  0  0  0
   58.4888   28.8806   46.2143 C   0  0  0  0  0  0  0  0  0  0  0  0
   57.7522   29.4104   45.1624 O   0  0  0  0  0  0  0  0  0  0  0  0
   57.4120   25.5311   45.4851 C   0  0  0  0  0  0  0  0  0  0  0  0
   57.2277   26.8340   46.0285 O   0  0  0  0  0  0  0  0  0  0  0  0
 29 30  1  0
 30 22  1  0
 22 23  2  0
 23 24  1  0
 24 20  1  0
 20 21  2  0
 21 18  1  0
 18 19  2  0
 18 17  1  0
 17  1  1  0
  1  2  2  0
  2  3  1  0
  3  8  1  0
  8  9  2  0
  8 10  2  0
  8 11  1  0
 11 12  1  0
 12 13  1  0
 13 14  1  0
 14 15  1  0
 15 16  1  0
  3  4  2  0
  4  5  1  0
  5  6  2  0
  6  7  1  0
 24 25  2  0
 25 26  1  0
 26 27  2  0
 27 28  1  0
 27 22  1  0
  6  1  1  0
 16 11  1  0
M  CHG 1   7  -1
M  CHG 1  17  -1
M  CHG 1  28  -1
M  END
> <UniqueID>
26

> <SMILES>
COc1cc(C=CC(=O)[N-]c2cc(S(=O)(=O)N3CCOCC3)ccc2[O-])ccc1[O-]

> <Energy>
65.75102318287759

> <Genealogy>
COc1cc(C=CC(=O)[N-]c2cc(S(=O)(=O)N3CCOCC3)ccc2[O-])ccc1[O-] (protonated)
COc1cc(C=CC(=O)[N-]c2cc(S(=O)(=O)N3CCOCC3)ccc2[O-])ccc1[O-] (3D coordinates assigned)
COc1cc(C=CC(=O)[N-]c2cc(S(=O)(=O)N3CCOCC3)ccc2[O-])ccc1[O-] (nonaromatic ring conformer: 65.75102318287759 kcal/mol)

> <smiles>
COc1cc(C=CC(=O)Nc2cc(S(=O)(=O)N3CCOCC3)ccc2O)ccc1O

> <score_type>
oracle

> <origin>
adg

> <m_score__min__energy>
-15.359999999999999

> <m_primary>
energy

> <minimizedAffinity>
-6.31360

> <minimizedRMSD>
2.10090

> <CNNscore>
0.4693730175

> <CNNaffinity>
6.0253853798

> <CNN_VS>
2.8281533718

> <CNNaffinity_variance>
0.0423678458

$$$$
46:0


 30 33  0  0  0  0  0  0  0  0999 V2000
   53.2476   29.6681   54.9843 C   0  0  0  0  0  0  0  0  0  0  0  0
   53.9929   29.9953   53.9230 C   0  0  0  0  0  0  0  0  0  0  0  0
   55.3224   29.7776   53.8770 N   0  0  0  0  0  0  0  0  0  0  0  0
   55.7561   30.2131   52.6783 C   0  0  0  0  0  0  0  0  0  0  0  0
   54.7005   30.7335   51.9476 C   0  0  0  0  0  0  0  0  0  0  0  0
   53.5615   30.5877   52.7321 C   0  0  0  0  0  0  0  0  0  0  0  0
   52.3048   30.9722   52.4267 C   0  0  0  0  0  0  0  0  0  0  0  0
   55.8734   29.3754   54.5868 H   0  0  0  0  0  0  0  0  0  0  0  0
   51.7479   31.0235   51.0561 C   0  0  0  0  0  0  0  0  0  0  0  0
   51.4175   32.1490   50.3968 N   0  0  0  0  0  0  0  0  0  0  0  0
   51.0343   31.7055   49.1819 C   0  0  0  0  0  0  0  0  0  0  0  0
   50.6403   32.4808   48.2701 O   0  0  0  0  0  0  0  0  0  0  0  0
   51.1108   30.3690   49.0178 N   0  0  0  0  0  0  0  0  0  0  0  0
   51.5685   29.9486   50.2078 C   0  0  0  0  0  0  0  0  0  0  0  0
   51.8053   28.6077   50.5008 O   0  0  0  0  0  0  0  0  0  0  0  0
   51.6505   27.9516   49.8500 H   0  0  0  0  0  0  0  0  0  0  0  0
   57.1747   30.1939   52.2675 C   0  0  0  0  0  0  0  0  0  0  0  0
   57.7572   29.0804   52.1549 O   0  0  0  0  0  0  0  0  0  0  0  0
   57.9383   31.4331   51.9952 C   0  0  0  0  0  0  0  0  0  0  0  0
   57.9635   32.4870   52.9249 C   0  0  0  0  0  0  0  0  0  0  0  0
   58.6861   33.6501   52.6531 C   0  0  0  0  0  0  0  0  0  0  0  0
   59.3740   33.7830   51.4459 C   0  0  0  0  0  0  0  0  0  0  0  0
   59.3333   32.7575   50.4901 C   0  0  0  0  0  0  0  0  0  0  0  0
   58.6175   31.5826   50.7740 C   0  0  0  0  0  0  0  0  0  0  0  0
   60.0466   32.9015   49.2488 N   0  0  0  0  0  0  0  0  0  0  0  0
   59.6736   33.6704   48.2103 C   0  0  0  0  0  0  0  0  0  0  0  0
   60.6179   33.5378   47.2168 C   0  0  0  0  0  0  0  0  0  0  0  0
   61.5783   32.6799   47.6167 N   0  0  0  0  0  0  0  0  0  0  0  0
   61.1955   32.3034   48.8553 C   0  0  0  0  0  0  0  0  0  0  0  0
   61.9736   31.3159   49.6675 C   0  0  0  0  0  0  0  0  0  0  0  0
  1  2  2  0
  2  3  1  0
  3  4  1  0
  4 17  1  0
 17 18  2  0
 17 19  1  0
 19 20  2  0
 20 21  1  0
 21 22  2  0
 22 23  1  0
 23 25  1  0
 25 26  1  0
 26 27  2  0
 27 28  1  0
 28 29  2  0
 29 30  1  0
 23 24  2  0
  4  5  2  0
  5  6  1  0
  6  7  2  0
  7  9  1  0
  9 10  1  0
 10 11  1  0
 11 12  2  0
 11 13  1  0
 13 14  1  0
 14 15  1  0
  6  2  1  0
 14  9  2  0
 24 19  1  0
 29 25  1  0
  3  8  1  0
 15 16  1  0
M  CHG 1  10  -1
M  CHG 1  13  -1
M  END
> <UniqueID>
47

> <SMILES>
C=c1[nH]c(C(=O)c2cccc(-n3ccnc3C)c2)cc1=Cc1[n-]c(=O)[n-]c1O

> <Energy>
145.24004258880422

> <Genealogy>
C=c1[nH]c(C(=O)c2cccc(-n3ccnc3C)c2)cc1=Cc1[n-]c(=O)[n-]c1O (protonated)
C=c1[nH]c(C(=O)c2cccc(-n3ccnc3C)c2)cc1=Cc1[n-]c(=O)[n-]c1O (3D coordinates assigned)
C=c1[nH]c(C(=O)c2cccc(-n3ccnc3C)c2)cc1=Cc1[n-]c(=O)[n-]c1O (optimized conformer: 145.24004258880422 kcal/mol)

> <smiles>
C=c1[nH]c(C(=O)c2cccc(-n3ccnc3C)c2)cc1=Cc1[nH]c(=O)[nH]c1O

> <score_type>
oracle

> <origin>
adg

> <m_score__min__energy>
-14.039999999999999

> <m_primary>
energy

> <minimizedAffinity>
-4.31787

> <minimizedRMSD>
0.62070

> <CNNscore>
0.1427161992

> <CNNaffinity>
5.4783234596

> <CNN_VS>
0.7818455100

> <CNNaffinity_variance>
0.0818498284

$$$$
49:0


 32 35  0  0  0  0  0  0  0  0999 V2000
   59.7834   29.9125   44.9811 C   0  0  0  0  0  0  0  0  0  0  0  0
   59.7055   29.2306   46.1339 C   0  0  0  0  0  0  0  0  0  0  0  0
   59.0630   28.0045   46.3369 C   0  0  0  0  0  0  0  0  0  0  0  0
   58.4533   27.2426   45.4083 C   0  0  0  0  0  0  0  0  0  0  0  0
   59.2251   27.6993   47.6835 C   0  0  0  0  0  0  0  0  0  0  0  0
   59.9443   28.7370   48.2418 C   0  0  0  0  0  0  0  0  0  0  0  0
   60.3642   28.8181   49.6774 C   0  0  0  0  0  0  0  0  0  0  0  0
   60.2389   29.6617   47.3034 N   0  0  0  0  0  0  0  0  0  0  0  0
   57.9352   25.8838   45.6604 C   0  0  0  0  0  0  0  0  0  0  0  0
   58.6636   24.7523   45.6663 N   0  0  0  0  0  0  0  0  0  0  0  0
   57.7978   23.7928   46.0482 C   0  0  0  0  0  0  0  0  0  0  0  0
   58.1237   22.5844   46.1737 O   0  0  0  0  0  0  0  0  0  0  0  0
   56.5514   24.2458   46.3026 N   0  0  0  0  0  0  0  0  0  0  0  0
   56.6588   25.5674   46.0652 C   0  0  0  0  0  0  0  0  0  0  0  0
   55.6113   26.4663   46.2187 O   0  0  0  0  0  0  0  0  0  0  0  0
   59.6166   24.6486   45.4418 H   0  0  0  0  0  0  0  0  0  0  0  0
   60.9614   30.8854   47.5319 C   0  0  0  0  0  0  0  0  0  0  0  0
   62.3259   30.9299   47.2106 C   0  0  0  0  0  0  0  0  0  0  0  0
   63.0768   32.0781   47.4620 C   0  0  0  0  0  0  0  0  0  0  0  0
   62.4737   33.1925   48.0415 C   0  0  0  0  0  0  0  0  0  0  0  0
   61.1136   33.1663   48.3633 C   0  0  0  0  0  0  0  0  0  0  0  0
   60.3356   32.0216   48.1066 C   0  0  0  0  0  0  0  0  0  0  0  0
   58.8862   32.0456   48.4310 C   0  0  0  0  0  0  0  0  0  0  0  0
   58.4634   31.4805   49.4765 O   0  0  0  0  0  0  0  0  0  0  0  0
   57.9710   32.6960   47.5314 N   0  0  0  0  0  0  0  0  0  0  0  0
   57.9519   32.6096   46.2329 C   0  0  0  0  0  0  0  0  0  0  0  0
   58.7773   33.4531   45.4791 C   0  0  0  0  0  0  0  0  0  0  0  0
   58.7607   33.3707   44.0873 C   0  0  0  0  0  0  0  0  0  0  0  0
   57.9112   32.4580   43.4480 C   0  0  0  0  0  0  0  0  0  0  0  0
   57.9125   32.3288   41.9538 C   0  0  0  0  0  0  0  0  0  0  0  0
   57.1113   31.6180   44.2352 C   0  0  0  0  0  0  0  0  0  0  0  0
   57.1471   31.7167   45.5917 N   0  0  0  0  0  0  0  0  0  0  0  0
  1  2  2  0
  2  3  1  0
  3  4  2  0
  4  9  1  0
  9 10  1  0
 10 11  1  0
 11 12  2  0
 11 13  1  0
 13 14  1  0
 14 15  1  0
  3  5  1  0
  5  6  2  0
  6  7  1  0
  6  8  1  0
  8 17  1  0
 17 18  2  0
 18 19  1  0
 19 20  2  0
 20 21  1  0
 21 22  2  0
 22 23  1  0
 23 24  2  0
 23 25  1  0
 25 26  2  0
 26 27  1  0
 27 28  2  0
 28 29  1  0
 29 30  1  0
 29 31  2  0
 31 32  1  0
  8  2  1  0
 22 17  1  0
 32 26  1  0
 14  9  2  0
 10 16  1  0
M  CHG 1  13  -1
M  CHG 1  15  -1
M  CHG 1  32  -1
M  END
> <UniqueID>
50

> <SMILES>
C=c1c(=Cc2[nH]c(=O)[n-]c2[O-])cc(C)n1-c1ccccc1C(=O)N=c1ccc(C)c[n-]1

> <Energy>
129.82925367928092

> <Genealogy>
C=c1c(=Cc2[nH]c(=O)[n-]c2[O-])cc(C)n1-c1ccccc1C(=O)N=c1ccc(C)c[n-]1 (protonated)
C=c1c(=Cc2[nH]c(=O)[n-]c2[O-])cc(C)n1-c1ccccc1C(=O)N=c1ccc(C)c[n-]1 (3D coordinates assigned)
C=c1c(=Cc2[nH]c(=O)[n-]c2[O-])cc(C)n1-c1ccccc1C(=O)N=c1ccc(C)c[n-]1 (optimized conformer: 129.82925367928092 kcal/mol)

> <smiles>
C=c1c(=Cc2[nH]c(=O)[nH]c2O)cc(C)n1-c1ccccc1C(=O)N=c1ccc(C)c[nH]1

> <score_type>
oracle

> <origin>
adg

> <m_score__min__energy>
-16.41

> <m_primary>
energy

> <minimizedAffinity>
-7.77629

> <minimizedRMSD>
0.82924

> <CNNscore>
0.3340339065

> <CNNaffinity>
7.1175708771

> <CNN_VS>
2.3775100708

> <CNNaffinity_variance>
0.0053638467

$$$$
50:0


 35 39  0  0  0  0  0  0  0  0999 V2000
   54.6598   27.9687   54.1393 C   0  0  0  0  0  0  0  0  0  0  0  0
   55.3939   28.9490   53.5825 C   0  0  0  0  0  0  0  0  0  0  0  0
   54.8881   30.1443   53.0500 C   0  0  0  0  0  0  0  0  0  0  0  0
   53.5936   30.5207   52.9757 C   0  0  0  0  0  0  0  0  0  0  0  0
   55.9824   30.8429   52.5647 C   0  0  0  0  0  0  0  0  0  0  0  0
   57.1021   30.0765   52.8210 C   0  0  0  0  0  0  0  0  0  0  0  0
   56.7498   28.9180   53.4395 N   0  0  0  0  0  0  0  0  0  0  0  0
   58.4818   30.4286   52.4146 C   0  0  0  0  0  0  0  0  0  0  0  0
   59.4022   30.4227   53.2729 O   0  0  0  0  0  0  0  0  0  0  0  0
   58.8189   30.6766   51.0421 N   0  0  0  0  0  0  0  0  0  0  0  0
   59.5900   29.6604   50.3193 C   0  0  0  0  0  0  0  0  0  0  0  0
   60.6012   30.3316   49.3904 C   0  0  0  0  0  0  0  0  0  0  0  0
   59.8990   31.3310   48.4369 C   0  0  0  0  0  0  0  0  0  0  0  0
   59.2333   32.4057   49.3297 C   0  0  0  0  0  0  0  0  0  0  0  0
   58.2141   31.7846   50.2961 C   0  0  0  0  0  0  0  0  0  0  0  0
   58.9046   30.6896   47.5194 N   0  0  0  0  0  0  0  0  0  0  0  0
   58.5401   31.6178   46.4132 C   0  0  0  0  0  0  0  0  0  0  0  0
   58.0411   30.8868   45.1539 C   0  0  0  0  0  0  0  0  0  0  0  0
   57.3821   29.6999   45.5247 O   0  0  0  0  0  0  0  0  0  0  0  0
   58.3262   28.7673   46.0301 C   0  0  0  0  0  0  0  0  0  0  0  0
   59.3755   29.3934   46.9789 C   0  0  0  0  0  0  0  0  0  0  0  0
   52.7793   30.5590   51.7369 C   0  0  0  0  0  0  0  0  0  0  0  0
   52.8954   29.7235   50.6891 N   0  0  0  0  0  0  0  0  0  0  0  0
   51.9536   30.1619   49.8281 C   0  0  0  0  0  0  0  0  0  0  0  0
   51.7500   29.6163   48.7125 O   0  0  0  0  0  0  0  0  0  0  0  0
   51.2431   31.2265   50.2602 N   0  0  0  0  0  0  0  0  0  0  0  0
   51.7843   31.4701   51.4633 C   0  0  0  0  0  0  0  0  0  0  0  0
   51.3698   32.4987   52.2992 O   0  0  0  0  0  0  0  0  0  0  0  0
   57.6796   27.8252   53.7854 C   0  0  0  0  0  0  0  0  0  0  0  0
   58.2882   28.0300   55.1520 C   0  0  0  0  0  0  0  0  0  0  0  0
   57.5869   28.7566   56.1308 C   0  0  0  0  0  0  0  0  0  0  0  0
   58.1488   28.9622   57.3932 C   0  0  0  0  0  0  0  0  0  0  0  0
   59.4086   28.4370   57.6941 C   0  0  0  0  0  0  0  0  0  0  0  0
   60.1009   27.6900   56.7361 C   0  0  0  0  0  0  0  0  0  0  0  0
   59.5368   27.4722   55.4760 C   0  0  0  0  0  0  0  0  0  0  0  0
  1  2  2  0
  2  3  1  0
  3  4  2  0
  4 22  1  0
 22 23  1  0
 23 24  1  0
 24 25  2  0
 24 26  1  0
 26 27  1  0
 27 28  1  0
  3  5  1  0
  5  6  2  0
  6  8  1  0
  8  9  2  0
  8 10  1  0
 10 11  1  0
 11 12  1  0
 12 13  1  0
 13 16  1  0
 16 17  1  0
 17 18  1  0
 18 19  1  0
 19 20  1  0
 20 21  1  0
 13 14  1  0
 14 15  1  0
  6  7  1  0
  7 29  1  0
 29 30  1  0
 30 31  2  0
 31 32  1  0
 32 33  2  0
 33 34  1  0
 34 35  2  0
  7  2  1  0
 35 30  1  0
 27 22  2  0
 15 10  1  0
 21 16  1  0
M  CHG 1  23  -1
M  CHG 1  26  -1
M  CHG 1  28  -1
M  END
> <UniqueID>
51

> <SMILES>
C=c1c(=Cc2[n-]c(=O)[n-]c2[O-])cc(C(=O)N2CCC(N3CCOCC3)CC2)n1Cc1ccccc1

> <Energy>
152.04711792018261

> <Genealogy>
C=c1c(=Cc2[n-]c(=O)[n-]c2[O-])cc(C(=O)N2CCC(N3CCOCC3)CC2)n1Cc1ccccc1 (protonated)
C=c1c(=Cc2[n-]c(=O)[n-]c2[O-])cc(C(=O)N2CCC(N3CCOCC3)CC2)n1Cc1ccccc1 (3D coordinates assigned)
C=c1c(=Cc2[n-]c(=O)[n-]c2[O-])cc(C(=O)N2CCC(N3CCOCC3)CC2)n1Cc1ccccc1 (nonaromatic ring conformer: 152.04711792018261 kcal/mol)

> <smiles>
C=c1c(=Cc2[nH]c(=O)[nH]c2O)cc(C(=O)N2CCC(N3CCOCC3)CC2)n1Cc1ccccc1

> <score_type>
oracle

> <origin>
adg

> <m_score__min__energy>
-17.620000000000001

> <m_primary>
energy

> <minimizedAffinity>
-6.28239

> <minimizedRMSD>
1.22825

> <CNNscore>
0.0391312204

> <CNNaffinity>
4.9703860283

> <CNN_VS>
0.1944972724

> <CNNaffinity_variance>
1.0206933022

$$$$
63:0


 29 32  0  0  0  0  0  0  0  0999 V2000
   58.9890   27.9903   47.0906 C   0  0  0  0  0  0  0  0  0  0  0  0
   58.6000   28.4707   45.8987 C   0  0  0  0  0  0  0  0  0  0  0  0
   58.1616   27.7208   44.8024 C   0  0  0  0  0  0  0  0  0  0  0  0
   58.0720   26.3792   44.7149 C   0  0  0  0  0  0  0  0  0  0  0  0
   57.8915   28.6322   43.7892 C   0  0  0  0  0  0  0  0  0  0  0  0
   58.1527   29.8867   44.3063 C   0  0  0  0  0  0  0  0  0  0  0  0
   58.0166   31.1672   43.5402 C   0  0  0  0  0  0  0  0  0  0  0  0
   58.5925   29.7886   45.5798 N   0  0  0  0  0  0  0  0  0  0  0  0
   57.4228   25.5277   45.7299 C   0  0  0  0  0  0  0  0  0  0  0  0
   56.1658   25.6731   46.2844 C   0  0  0  0  0  0  0  0  0  0  0  0
   55.2364   26.6532   45.9575 O   0  0  0  0  0  0  0  0  0  0  0  0
   55.9667   24.7526   47.2471 N   0  0  0  0  0  0  0  0  0  0  0  0
   57.1353   24.0767   47.2627 C   0  0  0  0  0  0  0  0  0  0  0  0
   57.3609   23.1175   48.0465 O   0  0  0  0  0  0  0  0  0  0  0  0
   58.0422   24.5264   46.3731 N   0  0  0  0  0  0  0  0  0  0  0  0
   58.9572   24.1936   46.2274 H   0  0  0  0  0  0  0  0  0  0  0  0
   58.9565   30.8897   46.4306 C   0  0  0  0  0  0  0  0  0  0  0  0
   60.1343   30.8269   47.1902 C   0  0  0  0  0  0  0  0  0  0  0  0
   60.5025   31.8914   48.0327 C   0  0  0  0  0  0  0  0  0  0  0  0
   59.6563   33.0110   48.1209 C   0  0  0  0  0  0  0  0  0  0  0  0
   58.4844   33.0764   47.3634 C   0  0  0  0  0  0  0  0  0  0  0  0
   58.1347   32.0224   46.5163 C   0  0  0  0  0  0  0  0  0  0  0  0
   57.0057   32.1090   45.7717 F   0  0  0  0  0  0  0  0  0  0  0  0
   61.7080   31.8292   48.8186 N   0  0  0  0  0  0  0  0  0  0  0  0
   63.0167   32.2005   48.4256 C   0  0  0  0  0  0  0  0  0  0  0  0
   63.2927   32.7856   47.3452 O   0  0  0  0  0  0  0  0  0  0  0  0
   63.9559   31.9164   49.3888 O   0  0  0  0  0  0  0  0  0  0  0  0
   63.3198   31.3180   50.5111 C   0  0  0  0  0  0  0  0  0  0  0  0
   61.8106   31.3077   50.1790 C   0  0  0  0  0  0  0  0  0  0  0  0
  1  2  2  0
  2  3  1  0
  3  4  2  0
  4  9  1  0
  9 10  2  0
 10 11  1  0
 10 12  1  0
 12 13  1  0
 13 14  2  0
 13 15  1  0
  3  5  1  0
  5  6  2  0
  6  7  1  0
  6  8  1  0
  8 17  1  0
 17 18  2  0
 18 19  1  0
 19 24  1  0
 24 25  1  0
 25 26  2  0
 25 27  1  0
 27 28  1  0
 28 29  1  0
 19 20  2  0
 20 21  1  0
 21 22  2  0
 22 23  1  0
  8  2  1  0
 22 17  1  0
 15  9  1  0
 29 24  1  0
 15 16  1  0
M  CHG 1  11  -1
M  CHG 1  12  -1
M  END
> <UniqueID>
64

> <SMILES>
C=c1/c(=C/c2[nH]c(=O)[n-]c2[O-])cc(C)n1-c1cc(N2CCOC2=O)ccc1F

> <Energy>
137.44610033151167

> <Genealogy>
C=c1c(=Cc2[nH]c(=O)[n-]c2[O-])cc(C)n1-c1cc(N2CCOC2=O)ccc1F (protonated)
C=c1/c(=C/c2[nH]c(=O)[n-]c2[O-])cc(C)n1-c1cc(N2CCOC2=O)ccc1F (cis-trans isomerization)
C=c1/c(=C/c2[nH]c(=O)[n-]c2[O-])cc(C)n1-c1cc(N2CCOC2=O)ccc1F (3D coordinates assigned)
C=c1/c(=C/c2[nH]c(=O)[n-]c2[O-])cc(C)n1-c1cc(N2CCOC2=O)ccc1F (nonaromatic ring conformer: 137.44610033151167 kcal/mol)

> <smiles>
C=c1c(=Cc2[nH]c(=O)[nH]c2O)cc(C)n1-c1cc(N2CCOC2=O)ccc1F

> <score_type>
oracle

> <origin>
adg

> <m_score__min__energy>
-14.109999999999999

> <m_primary>
energy

> <minimizedAffinity>
-6.56154

> <minimizedRMSD>
0.90177

> <CNNscore>
0.0727161542

> <CNNaffinity>
6.2738933563

> <CNN_VS>
0.4562133849

> <CNNaffinity_variance>
0.0787736252

$$$$
75:0


 25 27  0  0  0  0  0  0  0  0999 V2000
   59.6899   28.4765   48.2615 C   0  0  0  0  0  0  0  0  0  0  0  0
   59.3335   28.9751   47.0645 C   0  0  0  0  0  0  0  0  0  0  0  0
   59.0669   28.2324   45.9008 C   0  0  0  0  0  0  0  0  0  0  0  0
   59.2802   26.9345   45.6069 C   0  0  0  0  0  0  0  0  0  0  0  0
   58.5241   29.1183   44.9858 C   0  0  0  0  0  0  0  0  0  0  0  0
   58.5513   30.3656   45.5692 C   0  0  0  0  0  0  0  0  0  0  0  0
   58.0777   31.6191   44.8988 C   0  0  0  0  0  0  0  0  0  0  0  0
   59.0270   30.2848   46.8367 N   0  0  0  0  0  0  0  0  0  0  0  0
   58.3822   25.8168   45.9484 C   0  0  0  0  0  0  0  0  0  0  0  0
   58.7636   24.5300   46.0492 N   0  0  0  0  0  0  0  0  0  0  0  0
   57.5970   23.8746   46.2309 C   0  0  0  0  0  0  0  0  0  0  0  0
   57.5380   22.6260   46.3857 O   0  0  0  0  0  0  0  0  0  0  0  0
   56.4969   24.6582   46.2220 N   0  0  0  0  0  0  0  0  0  0  0  0
   57.0128   25.8820   46.0272 C   0  0  0  0  0  0  0  0  0  0  0  0
   56.2458   27.0349   45.9191 O   0  0  0  0  0  0  0  0  0  0  0  0
   59.2025   31.3857   47.7146 N   0  0  0  0  0  0  0  0  0  0  0  0
   58.5318   31.6994   48.3634 H   0  0  0  0  0  0  0  0  0  0  0  0
   59.8353   30.7708   47.2779 H   0  0  0  0  0  0  0  0  0  0  0  0
   60.5058   31.9817   47.5216 C   0  0  0  0  0  0  0  0  0  0  0  0
   61.6646   31.2974   47.9364 C   0  0  0  0  0  0  0  0  0  0  0  0
   62.9285   31.8668   47.7595 C   0  0  0  0  0  0  0  0  0  0  0  0
   63.0517   33.1309   47.1786 C   0  0  0  0  0  0  0  0  0  0  0  0
   61.9111   33.8293   46.7788 C   0  0  0  0  0  0  0  0  0  0  0  0
   60.6427   33.2663   46.9522 C   0  0  0  0  0  0  0  0  0  0  0  0
   59.5537   33.9759   46.5692 F   0  0  0  0  0  0  0  0  0  0  0  0
  1  2  2  0
  2  3  1  0
  3  4  2  0
  4  9  1  0
  9 10  1  0
 10 11  1  0
 11 12  2  0
 11 13  1  0
 13 14  1  0
 14 15  1  0
  3  5  1  0
  5  6  2  0
  6  7  1  0
  6  8  1  0
  8 16  1  0
 16 19  1  0
 19 20  2  0
 20 21  1  0
 21 22  2  0
 22 23  1  0
 23 24  2  0
 24 25  1  0
  8  2  1  0
 24 19  1  0
 14  9  2  0
 16 17  1  0
 16 18  1  0
M  CHG 1  10  -1
M  CHG 1  13  -1
M  CHG 1  15  -1
M  CHG 1  16   1
M  END
> <UniqueID>
75

> <SMILES>
C=c1c(=Cc2[n-]c(=O)[n-]c2[O-])cc(C)n1[NH2+]c1ccccc1F

> <Energy>
112.90719209439293

> <Genealogy>
C=c1c(=Cc2[n-]c(=O)[n-]c2[O-])cc(C)n1[NH2+]c1ccccc1F (protonated)
C=c1c(=Cc2[n-]c(=O)[n-]c2[O-])cc(C)n1[NH2+]c1ccccc1F (3D coordinates assigned)
C=c1c(=Cc2[n-]c(=O)[n-]c2[O-])cc(C)n1[NH2+]c1ccccc1F (optimized conformer: 112.90719209439293 kcal/mol)

> <smiles>
C=c1c(=Cc2[nH]c(=O)[nH]c2O)cc(C)n1Nc1ccccc1F

> <score_type>
oracle

> <origin>
adg

> <m_score__min__energy>
-14.06

> <m_primary>
energy

> <minimizedAffinity>
-7.99491

> <minimizedRMSD>
1.36982

> <CNNscore>
0.4091631770

> <CNNaffinity>
6.7451190948

> <CNN_VS>
2.7598543167

> <CNNaffinity_variance>
0.4435316622

$$$$
91:0


 33 36  0  0  0  0  0  0  0  0999 V2000
   55.1716   30.5006   52.6286 C   0  0  0  0  0  0  0  0  0  0  0  0
   54.7182   30.2347   53.8640 C   0  0  0  0  0  0  0  0  0  0  0  0
   53.3871   30.2006   54.3054 C   0  0  0  0  0  0  0  0  0  0  0  0
   52.2377   30.5524   53.6922 C   0  0  0  0  0  0  0  0  0  0  0  0
   53.4762   29.7107   55.6039 C   0  0  0  0  0  0  0  0  0  0  0  0
   52.3442   29.4712   56.5542 C   0  0  0  0  0  0  0  0  0  0  0  0
   54.7641   29.5112   55.9342 N   0  0  0  0  0  0  0  0  0  0  0  0
   55.5126   29.8400   54.8929 N   0  0  0  0  0  0  0  0  0  0  0  0
   51.8961   30.2709   52.2836 C   0  0  0  0  0  0  0  0  0  0  0  0
   51.7481   31.3230   51.3698 C   0  0  0  0  0  0  0  0  0  0  0  0
   51.8664   32.6443   51.7838 O   0  0  0  0  0  0  0  0  0  0  0  0
   51.4773   31.0548   50.0651 N   0  0  0  0  0  0  0  0  0  0  0  0
   51.3629   29.7768   49.6217 C   0  0  0  0  0  0  0  0  0  0  0  0
   51.1077   29.5531   48.4103 O   0  0  0  0  0  0  0  0  0  0  0  0
   51.5290   28.7400   50.4827 N   0  0  0  0  0  0  0  0  0  0  0  0
   51.8017   28.9544   51.7958 C   0  0  0  0  0  0  0  0  0  0  0  0
   51.9696   27.9690   52.5624 O   0  0  0  0  0  0  0  0  0  0  0  0
   56.9685   29.6832   54.9008 C   0  0  0  0  0  0  0  0  0  0  0  0
   57.6521   31.0542   54.8138 C   0  0  0  0  0  0  0  0  0  0  0  0
   59.1135   30.9483   54.3593 C   0  0  0  0  0  0  0  0  0  0  0  0
   59.2370   31.0716   52.8681 C   0  0  0  0  0  0  0  0  0  0  0  0
   59.1579   30.0355   52.1538 O   0  0  0  0  0  0  0  0  0  0  0  0
   59.4509   32.3587   52.2686 N   0  0  0  0  0  0  0  0  0  0  0  0
   59.2665   33.1582   52.8128 H   0  0  0  0  0  0  0  0  0  0  0  0
   59.9178   32.5520   50.9223 C   0  0  0  0  0  0  0  0  0  0  0  0
   59.0571   32.3622   49.8062 C   0  0  0  0  0  0  0  0  0  0  0  0
   59.5390   32.5252   48.4963 C   0  0  0  0  0  0  0  0  0  0  0  0
   60.8794   32.8618   48.3339 C   0  0  0  0  0  0  0  0  0  0  0  0
   61.7113   33.0287   49.3916 C   0  0  0  0  0  0  0  0  0  0  0  0
   61.2749   32.8757   50.7045 C   0  0  0  0  0  0  0  0  0  0  0  0
   62.9759   33.3506   48.9369 O   0  0  0  0  0  0  0  0  0  0  0  0
   62.9349   33.3863   47.5034 C   0  0  0  0  0  0  0  0  0  0  0  0
   61.5786   33.0691   47.1599 O   0  0  0  0  0  0  0  0  0  0  0  0
  1  2  2  0
  2  3  1  0
  3  4  2  0
  4  9  1  0
  9 10  2  0
 10 11  1  0
 10 12  1  0
 12 13  1  0
 13 14  2  0
 13 15  1  0
 15 16  1  0
 16 17  2  0
  3  5  1  0
  5  6  1  0
  5  7  2  0
  7  8  1  0
  8 18  1  0
 18 19  1  0
 19 20  1  0
 20 21  1  0
 21 22  2  0
 21 23  1  0
 23 25  1  0
 25 26  2  0
 26 27  1  0
 27 28  2  0
 28 29  1  0
 29 30  2  0
 29 31  1  0
 31 32  1  0
 32 33  1  0
  8  2  1  0
 30 25  1  0
 16  9  1  0
 33 28  1  0
 23 24  1  0
M  CHG 1  11  -1
M  CHG 1  12  -1
M  CHG 1  15  -1
M  END
> <UniqueID>
89

> <SMILES>
C=c1/c(=C\c2c([O-])[n-]c(=O)[n-]c2=O)c(C)nn1CCCC(=O)Nc1ccc2c(c1)OCO2

> <Energy>
125.59041668309233

> <Genealogy>
C=c1c(=Cc2c([O-])[n-]c(=O)[n-]c2=O)c(C)nn1CCCC(=O)Nc1ccc2c(c1)OCO2 (protonated)
C=c1/c(=C\c2c([O-])[n-]c(=O)[n-]c2=O)c(C)nn1CCCC(=O)Nc1ccc2c(c1)OCO2 (cis-trans isomerization)
C=c1/c(=C\c2c([O-])[n-]c(=O)[n-]c2=O)c(C)nn1CCCC(=O)Nc1ccc2c(c1)OCO2 (3D coordinates assigned)
C=c1/c(=C\c2c([O-])[n-]c(=O)[n-]c2=O)c(C)nn1CCCC(=O)Nc1ccc2c(c1)OCO2 (nonaromatic ring conformer: 125.59041668309233 kcal/mol)

> <smiles>
C=c1c(=Cc2c(O)[nH]c(=O)[nH]c2=O)c(C)nn1CCCC(=O)Nc1ccc2c(c1)OCO2

> <score_type>
oracle

> <origin>
adg

> <m_score__min__energy>
-16.710000000000001

> <m_primary>
energy

> <minimizedAffinity>
-3.78809

> <minimizedRMSD>
1.23618

> <CNNscore>
0.0499390289

> <CNNaffinity>
5.3323826790

> <CNN_VS>
0.2662940025

> <CNNaffinity_variance>
0.0129114203

$$$$
0:0


 32 35  0  0  0  0  0  0  0  0999 V2000
   60.1897   29.7039   48.2255 C   0  0  0  0  0  0  0  0  0  0  0  0
   59.4639   30.4080   47.3432 C   0  0  0  0  0  0  0  0  0  0  0  0
   59.0786   30.0088   46.0610 C   0  0  0  0  0  0  0  0  0  0  0  0
   59.3682   28.8378   45.4569 C   0  0  0  0  0  0  0  0  0  0  0  0
   58.3340   31.0943   45.5804 C   0  0  0  0  0  0  0  0  0  0  0  0
   57.6508   31.2408   44.2567 C   0  0  0  0  0  0  0  0  0  0  0  0
   58.2894   32.0608   46.5177 N   0  0  0  0  0  0  0  0  0  0  0  0
   58.9740   31.6509   47.5719 N   0  0  0  0  0  0  0  0  0  0  0  0
   58.7281   27.5536   45.7928 C   0  0  0  0  0  0  0  0  0  0  0  0
   57.3535   27.3646   45.5912 C   0  0  0  0  0  0  0  0  0  0  0  0
   56.5608   28.3973   45.1065 O   0  0  0  0  0  0  0  0  0  0  0  0
   56.7883   26.1638   45.8752 N   0  0  0  0  0  0  0  0  0  0  0  0
   57.5341   25.1299   46.3424 C   0  0  0  0  0  0  0  0  0  0  0  0
   56.9893   24.0265   46.6028 O   0  0  0  0  0  0  0  0  0  0  0  0
   58.8714   25.2846   46.5266 N   0  0  0  0  0  0  0  0  0  0  0  0
   59.4837   26.4665   46.2575 C   0  0  0  0  0  0  0  0  0  0  0  0
   60.7262   26.5753   46.4331 O   0  0  0  0  0  0  0  0  0  0  0  0
   59.1041   32.4528   48.7907 C   0  0  0  0  0  0  0  0  0  0  0  0
   60.2894   33.3760   48.6876 C   0  0  0  0  0  0  0  0  0  0  0  0
   60.2097   34.3842   47.9347 O   0  0  0  0  0  0  0  0  0  0  0  0
   61.5101   33.1248   49.4136 N   0  0  0  0  0  0  0  0  0  0  0  0
   61.8521   31.7706   49.8718 C   0  0  0  0  0  0  0  0  0  0  0  0
   63.3701   31.5699   49.8975 C   0  0  0  0  0  0  0  0  0  0  0  0
   64.0505   32.6523   50.6248 N   0  0  0  0  0  0  0  0  0  0  0  0
   63.3544   33.9241   50.8670 C   0  0  0  0  0  0  0  0  0  0  0  0
   62.3977   34.2539   49.7173 C   0  0  0  0  0  0  0  0  0  0  0  0
   65.3743   32.4341   51.1636 C   0  0  0  0  0  0  0  0  0  0  0  0
   66.4773   33.1537   50.6655 C   0  0  0  0  0  0  0  0  0  0  0  0
   67.7582   32.9404   51.1848 C   0  0  0  0  0  0  0  0  0  0  0  0
   67.9538   32.0063   52.2048 C   0  0  0  0  0  0  0  0  0  0  0  0
   66.8692   31.2835   52.7060 C   0  0  0  0  0  0  0  0  0  0  0  0
   65.5863   31.4937   52.1900 C   0  0  0  0  0  0  0  0  0  0  0  0
  1  2  2  0
  2  3  1  0
  3  4  2  0
  4  9  1  0
  9 10  2  0
 10 11  1  0
 10 12  1  0
 12 13  1  0
 13 14  2  0
 13 15  1  0
 15 16  1  0
 16 17  2  0
  3  5  1  0
  5  6  1  0
  5  7  2  0
  7  8  1  0
  8 18  1  0
 18 19  1  0
 19 20  2  0
 19 21  1  0
 21 22  1  0
 22 23  1  0
 23 24  1  0
 24 27  1  0
 27 28  2  0
 28 29  1  0
 29 30  2  0
 30 31  1  0
 31 32  2  0
 24 25  1  0
 25 26  1  0
  8  2  1  0
 26 21  1  0
 16  9  1  0
 32 27  1  0
M  CHG 1  11  -1
M  CHG 1  12  -1
M  CHG 1  15  -1
M  END
> <UniqueID>
1

> <SMILES>
C=c1/c(=C/c2c([O-])[n-]c(=O)[n-]c2=O)c(C)nn1CC(=O)N1CCN(c2ccccc2)CC1

> <Energy>
104.8516742927308

> <Genealogy>
C=c1c(=Cc2c([O-])[n-]c(=O)[n-]c2=O)c(C)nn1CC(=O)N1CCN(c2ccccc2)CC1 (protonated)
C=c1/c(=C/c2c([O-])[n-]c(=O)[n-]c2=O)c(C)nn1CC(=O)N1CCN(c2ccccc2)CC1 (cis-trans isomerization)
C=c1/c(=C/c2c([O-])[n-]c(=O)[n-]c2=O)c(C)nn1CC(=O)N1CCN(c2ccccc2)CC1 (3D coordinates assigned)
C=c1/c(=C/c2c([O-])[n-]c(=O)[n-]c2=O)c(C)nn1CC(=O)N1CCN(c2ccccc2)CC1 (nonaromatic ring conformer: 104.8516742927308 kcal/mol)

> <smiles>
C=c1c(=Cc2c(O)[nH]c(=O)[nH]c2=O)c(C)nn1CC(=O)N1CCN(c2ccccc2)CC1

> <score_type>
oracle

> <origin>
adg

> <m_score__min__energy>
-16.73

> <m_primary>
energy

> <minimizedAffinity>
-8.46692

> <minimizedRMSD>
1.31567

> <CNNscore>
0.1885798275

> <CNNaffinity>
6.4276003838

> <CNN_VS>
1.2121157646

> <CNNaffinity_variance>
0.0033460062

$$$$
2:0


 24 26  0  0  0  0  0  0  0  0999 V2000
   59.6321   30.4585   48.4834 C   0  0  0  0  0  0  0  0  0  0  0  0
   59.2402   30.5797   47.2057 C   0  0  0  0  0  0  0  0  0  0  0  0
   59.4625   29.6604   46.1664 C   0  0  0  0  0  0  0  0  0  0  0  0
   59.9298   28.3959   46.1845 C   0  0  0  0  0  0  0  0  0  0  0  0
   59.0596   30.2868   45.0022 C   0  0  0  0  0  0  0  0  0  0  0  0
   58.5545   31.5181   45.3617 C   0  0  0  0  0  0  0  0  0  0  0  0
   57.9283   32.4842   44.4003 C   0  0  0  0  0  0  0  0  0  0  0  0
   58.6621   31.7035   46.7000 N   0  0  0  0  0  0  0  0  0  0  0  0
   59.1314   27.1811   45.9542 C   0  0  0  0  0  0  0  0  0  0  0  0
   59.5664   25.9250   46.1670 N   0  0  0  0  0  0  0  0  0  0  0  0
   58.4623   25.1737   45.9652 C   0  0  0  0  0  0  0  0  0  0  0  0
   58.4695   23.9193   46.0575 O   0  0  0  0  0  0  0  0  0  0  0  0
   57.3469   25.8739   45.6671 N   0  0  0  0  0  0  0  0  0  0  0  0
   57.7855   27.1428   45.6798 C   0  0  0  0  0  0  0  0  0  0  0  0
   56.9718   28.2458   45.4511 O   0  0  0  0  0  0  0  0  0  0  0  0
   58.3051   32.9319   47.4310 C   0  0  0  0  0  0  0  0  0  0  0  0
   59.2487   34.0952   47.0881 C   0  0  0  0  0  0  0  0  0  0  0  0
   60.6469   33.8620   47.6041 C   0  0  0  0  0  0  0  0  0  0  0  0
   61.6758   33.5292   46.7094 C   0  0  0  0  0  0  0  0  0  0  0  0
   62.9746   33.3493   47.1866 C   0  0  0  0  0  0  0  0  0  0  0  0
   63.2409   33.4981   48.5105 N   0  0  0  0  0  0  0  0  0  0  0  0
   62.2676   33.8240   49.4019 C   0  0  0  0  0  0  0  0  0  0  0  0
   60.9533   34.0172   48.9680 C   0  0  0  0  0  0  0  0  0  0  0  0
   59.9699   34.3673   49.8873 O   0  0  0  0  0  0  0  0  0  0  0  0
  1  2  2  0
  2  3  1  0
  3  4  2  0
  4  9  1  0
  9 10  1  0
 10 11  1  0
 11 12  2  0
 11 13  1  0
 13 14  1  0
 14 15  1  0
  3  5  1  0
  5  6  2  0
  6  7  1  0
  6  8  1  0
  8 16  1  0
 16 17  1  0
 17 18  1  0
 18 19  2  0
 19 20  1  0
 20 21  2  0
 21 22  1  0
 22 23  2  0
 23 24  1  0
  8  2  1  0
 23 18  1  0
 14  9  2  0
M  CHG 1  10  -1
M  CHG 1  13  -1
M  CHG 1  15  -1
M  CHG 1  24  -1
M  END
> <UniqueID>
3

> <SMILES>
C=c1/c(=C\c2[n-]c(=O)[n-]c2[O-])cc(C)n1CCc1ccncc1[O-]

> <Energy>
106.32243315810157

> <Genealogy>
C=c1c(=Cc2[n-]c(=O)[n-]c2[O-])cc(C)n1CCc1ccncc1[O-] (protonated)
C=c1/c(=C\c2[n-]c(=O)[n-]c2[O-])cc(C)n1CCc1ccncc1[O-] (cis-trans isomerization)
C=c1/c(=C\c2[n-]c(=O)[n-]c2[O-])cc(C)n1CCc1ccncc1[O-] (3D coordinates assigned)
C=c1/c(=C\c2[n-]c(=O)[n-]c2[O-])cc(C)n1CCc1ccncc1[O-] (optimized conformer: 106.32243315810157 kcal/mol)

> <smiles>
C=c1c(=Cc2[nH]c(=O)[nH]c2O)cc(C)n1CCc1ccncc1O

> <score_type>
oracle

> <origin>
adg

> <m_score__min__energy>
-17.09

> <m_primary>
energy

> <minimizedAffinity>
-7.92991

> <minimizedRMSD>
1.40706

> <CNNscore>
0.6876838803

> <CNNaffinity>
7.0344958305

> <CNN_VS>
4.8375091553

> <CNNaffinity_variance>
0.1804945320

$$$$
18:0


 36 40  0  0  0  0  0  0  0  0999 V2000
   57.9709   29.5981   53.0461 C   0  0  0  0  0  0  0  0  0  0  0  0
   58.4164   29.7571   51.7252 C   0  0  0  0  0  0  0  0  0  0  0  0
   59.7225   30.2001   51.4616 C   0  0  0  0  0  0  0  0  0  0  0  0
   60.5687   30.5217   52.5348 C   0  0  0  0  0  0  0  0  0  0  0  0
   60.1279   30.3658   53.8515 C   0  0  0  0  0  0  0  0  0  0  0  0
   58.8369   29.8985   54.1099 C   0  0  0  0  0  0  0  0  0  0  0  0
   58.4316   29.7301   55.3934 F   0  0  0  0  0  0  0  0  0  0  0  0
   55.3946   30.8692   52.2881 C   0  0  0  0  0  0  0  0  0  0  0  0
   55.4676   29.7509   53.0266 C   0  0  0  0  0  0  0  0  0  0  0  0
   54.3944   28.9549   53.4576 C   0  0  0  0  0  0  0  0  0  0  0  0
   53.0696   29.1928   53.4708 C   0  0  0  0  0  0  0  0  0  0  0  0
   54.9509   27.7790   53.9347 C   0  0  0  0  0  0  0  0  0  0  0  0
   56.3203   27.9263   53.8582 C   0  0  0  0  0  0  0  0  0  0  0  0
   57.3082   26.8838   54.2914 C   0  0  0  0  0  0  0  0  0  0  0  0
   56.6375   29.1196   53.3090 N   0  0  0  0  0  0  0  0  0  0  0  0
   52.4000   30.3420   52.8395 C   0  0  0  0  0  0  0  0  0  0  0  0
   51.6856   31.2710   53.5014 N   0  0  0  0  0  0  0  0  0  0  0  0
   51.1464   32.0154   52.5122 C   0  0  0  0  0  0  0  0  0  0  0  0
   50.4062   33.0086   52.7363 O   0  0  0  0  0  0  0  0  0  0  0  0
   51.4546   31.6045   51.2630 N   0  0  0  0  0  0  0  0  0  0  0  0
   52.2369   30.5347   51.4891 C   0  0  0  0  0  0  0  0  0  0  0  0
   52.7875   29.7466   50.4847 O   0  0  0  0  0  0  0  0  0  0  0  0
   52.6234   29.9518   49.5853 H   0  0  0  0  0  0  0  0  0  0  0  0
   60.1970   30.3719   50.0726 C   0  0  0  0  0  0  0  0  0  0  0  0
   60.2776   29.3528   49.3309 O   0  0  0  0  0  0  0  0  0  0  0  0
   60.5384   31.6717   49.5449 N   0  0  0  0  0  0  0  0  0  0  0  0
   59.7964   32.8594   49.9890 C   0  0  0  0  0  0  0  0  0  0  0  0
   60.1408   34.1084   49.1532 C   0  0  0  0  0  0  0  0  0  0  0  0
   60.2030   33.8591   47.6858 N   0  0  0  0  0  0  0  0  0  0  0  0
   60.6551   32.5112   47.2690 C   0  0  0  0  0  0  0  0  0  0  0  0
   61.4190   31.7925   48.3793 C   0  0  0  0  0  0  0  0  0  0  0  0
   59.0646   34.3589   46.8682 C   0  0  0  0  0  0  0  0  0  0  0  0
   57.8844   33.3747   46.8563 C   0  0  0  0  0  0  0  0  0  0  0  0
   57.6390   32.9826   45.3992 C   0  0  0  0  0  0  0  0  0  0  0  0
   58.8221   33.4972   44.5904 C   0  0  0  0  0  0  0  0  0  0  0  0
   59.4252   34.6302   45.4018 C   0  0  0  0  0  0  0  0  0  0  0  0
  8  9  2  0
  9 10  1  0
 10 11  2  0
 11 16  1  0
 16 17  1  0
 17 18  1  0
 18 19  2  0
 18 20  1  0
 20 21  1  0
 21 22  1  0
 10 12  1  0
 12 13  2  0
 13 14  1  0
 13 15  1  0
 15  1  1  0
  1  2  2  0
  2  3  1  0
  3 24  1  0
 24 25  2  0
 24 26  1  0
 26 27  1  0
 27 28  1  0
 28 29  1  0
 29 32  1  0
 32 33  1  0
 33 34  1  0
 34 35  1  0
 35 36  1  0
 29 30  1  0
 30 31  1  0
  3  4  2  0
  4  5  1  0
  5  6  2  0
  6  7  1  0
 15  9  1  0
  6  1  1  0
 21 16  2  0
 31 26  1  0
 36 32  1  0
 22 23  1  0
M  CHG 1  17  -1
M  CHG 1  20  -1
M  END
> <UniqueID>
18

> <SMILES>
C=c1c(=Cc2[n-]c(=O)[n-]c2O)cc(C)n1-c1cc(C(=O)N2CCN(C3CCCC3)CC2)ccc1F

> <Energy>
159.70442174149903

> <Genealogy>
C=c1c(=Cc2[n-]c(=O)[n-]c2O)cc(C)n1-c1cc(C(=O)N2CCN(C3CCCC3)CC2)ccc1F (protonated)
C=c1c(=Cc2[n-]c(=O)[n-]c2O)cc(C)n1-c1cc(C(=O)N2CCN(C3CCCC3)CC2)ccc1F (3D coordinates assigned)
C=c1c(=Cc2[n-]c(=O)[n-]c2O)cc(C)n1-c1cc(C(=O)N2CCN(C3CCCC3)CC2)ccc1F (nonaromatic ring conformer: 159.70442174149903 kcal/mol)

> <smiles>
C=c1c(=Cc2[nH]c(=O)[nH]c2O)cc(C)n1-c1cc(C(=O)N2CCN(C3CCCC3)CC2)ccc1F

> <score_type>
oracle

> <origin>
adg

> <m_score__min__energy>
-14.880000000000001

> <m_primary>
energy

> <minimizedAffinity>
-9.46005

> <minimizedRMSD>
0.62201

> <CNNscore>
0.1662574261

> <CNNaffinity>
5.3845138550

> <CNN_VS>
0.8952153921

> <CNNaffinity_variance>
1.5331922770

$$$$
28:0


 31 33  0  0  0  0  0  0  0  0999 V2000
   53.6606   28.4358   54.4451 C   0  0  0  0  0  0  0  0  0  0  0  0
   54.6768   29.0472   53.8136 C   0  0  0  0  0  0  0  0  0  0  0  0
   54.5950   29.8074   52.6349 C   0  0  0  0  0  0  0  0  0  0  0  0
   53.5334   30.2783   51.9536 C   0  0  0  0  0  0  0  0  0  0  0  0
   55.8972   30.0708   52.2545 C   0  0  0  0  0  0  0  0  0  0  0  0
   56.7161   29.5364   53.2252 C   0  0  0  0  0  0  0  0  0  0  0  0
   55.9823   28.9047   54.1736 N   0  0  0  0  0  0  0  0  0  0  0  0
   58.1858   29.6831   53.2239 C   0  0  0  0  0  0  0  0  0  0  0  0
   58.8814   28.9133   53.9408 O   0  0  0  0  0  0  0  0  0  0  0  0
   58.8347   30.6373   52.3605 N   0  0  0  0  0  0  0  0  0  0  0  0
   58.2059   31.9247   52.0348 C   0  0  0  0  0  0  0  0  0  0  0  0
   58.3435   32.2268   50.5322 C   0  0  0  0  0  0  0  0  0  0  0  0
   59.5772   31.6640   49.9331 N   0  0  0  0  0  0  0  0  0  0  0  0
   60.6604   31.4451   50.9039 C   0  0  0  0  0  0  0  0  0  0  0  0
   60.2150   30.3930   51.9254 C   0  0  0  0  0  0  0  0  0  0  0  0
   60.1331   32.6222   48.5790 S   0  0  0  0  0  0  0  0  0  0  0  0
   61.5859   32.3381   48.3170 O   0  0  0  0  0  0  0  0  0  0  0  0
   59.9918   34.0725   48.9412 O   0  0  0  0  0  0  0  0  0  0  0  0
   59.1976   32.3417   47.0736 C   0  0  0  0  0  0  0  0  0  0  0  0
   59.1074   30.8641   46.7114 C   0  0  0  0  0  0  0  0  0  0  0  0
   52.3302   30.8846   52.5474 C   0  0  0  0  0  0  0  0  0  0  0  0
   52.0051   30.8193   53.8512 N   0  0  0  0  0  0  0  0  0  0  0  0
   50.9356   31.6368   53.9462 C   0  0  0  0  0  0  0  0  0  0  0  0
   50.3238   31.8302   55.0283 O   0  0  0  0  0  0  0  0  0  0  0  0
   50.5799   32.2423   52.7925 N   0  0  0  0  0  0  0  0  0  0  0  0
   51.4832   31.7657   51.9217 C   0  0  0  0  0  0  0  0  0  0  0  0
   51.5369   32.1331   50.5835 O   0  0  0  0  0  0  0  0  0  0  0  0
   56.4994   28.3052   55.4161 C   0  0  0  0  0  0  0  0  0  0  0  0
   56.3771   26.7789   55.3726 C   0  0  0  0  0  0  0  0  0  0  0  0
   56.8602   26.2697   54.1421 O   0  0  0  0  0  0  0  0  0  0  0  0
   58.0217   25.4982   54.3509 C   0  0  0  0  0  0  0  0  0  0  0  0
  1  2  2  0
  2  3  1  0
  3  4  2  0
  4 21  1  0
 21 22  1  0
 22 23  1  0
 23 24  2  0
 23 25  1  0
 25 26  1  0
 26 27  1  0
  3  5  1  0
  5  6  2  0
  6  8  1  0
  8  9  2  0
  8 10  1  0
 10 11  1  0
 11 12  1  0
 12 13  1  0
 13 16  1  0
 16 17  2  0
 16 18  2  0
 16 19  1  0
 19 20  1  0
 13 14  1  0
 14 15  1  0
  6  7  1  0
  7 28  1  0
 28 29  1  0
 29 30  1  0
 30 31  1  0
  7  2  1  0
 26 21  2  0
 15 10  1  0
M  CHG 1  22  -1
M  CHG 1  25  -1
M  CHG 1  27  -1
M  END
> <UniqueID>
28

> <SMILES>
C=c1/c(=C\c2[n-]c(=O)[n-]c2[O-])cc(C(=O)N2CCN(S(=O)(=O)CC)CC2)n1CCOC

> <Energy>
127.57653125750967

> <Genealogy>
C=c1c(=Cc2[n-]c(=O)[n-]c2[O-])cc(C(=O)N2CCN(S(=O)(=O)CC)CC2)n1CCOC (protonated)
C=c1/c(=C\c2[n-]c(=O)[n-]c2[O-])cc(C(=O)N2CCN(S(=O)(=O)CC)CC2)n1CCOC (cis-trans isomerization)
C=c1/c(=C\c2[n-]c(=O)[n-]c2[O-])cc(C(=O)N2CCN(S(=O)(=O)CC)CC2)n1CCOC (3D coordinates assigned)
C=c1/c(=C\c2[n-]c(=O)[n-]c2[O-])cc(C(=O)N2CCN(S(=O)(=O)CC)CC2)n1CCOC (nonaromatic ring conformer: 127.57653125750967 kcal/mol)

> <smiles>
C=c1c(=Cc2[nH]c(=O)[nH]c2O)cc(C(=O)N2CCN(S(=O)(=O)CC)CC2)n1CCOC

> <score_type>
oracle

> <origin>
adg

> <m_score__min__energy>
-15.92

> <m_primary>
energy

> <minimizedAffinity>
-5.65969

> <minimizedRMSD>
1.08314

> <CNNscore>
0.1507036239

> <CNNaffinity>
5.2702431679

> <CNN_VS>
0.7942447662

> <CNNaffinity_variance>
0.0757447258

$$$$
29:0


 31 33  0  0  0  0  0  0  0  0999 V2000
   59.0589   32.4037   48.7163 C   0  0  0  0  0  0  0  0  0  0  0  0
   59.4242   33.6866   48.2899 C   0  0  0  0  0  0  0  0  0  0  0  0
   59.5669   33.9650   46.9283 C   0  0  0  0  0  0  0  0  0  0  0  0
   59.3271   32.9683   45.9804 C   0  0  0  0  0  0  0  0  0  0  0  0
   58.9333   31.6889   46.3897 C   0  0  0  0  0  0  0  0  0  0  0  0
   58.7986   31.4085   47.7569 C   0  0  0  0  0  0  0  0  0  0  0  0
   58.6217   30.4456   45.1820 S   0  0  0  0  0  0  0  0  0  0  0  0
   58.0363   31.0454   43.9329 O   0  0  0  0  0  0  0  0  0  0  0  0
   59.9177   29.7759   44.8264 O   0  0  0  0  0  0  0  0  0  0  0  0
   57.5264   29.2628   45.8220 N   0  0  0  0  0  0  0  0  0  0  0  0
   57.7975   27.9996   45.9370 C   0  0  0  0  0  0  0  0  0  0  0  0
   56.8337   27.0546   45.9417 N   0  0  0  0  0  0  0  0  0  0  0  0
   57.3556   25.8045   46.0717 C   0  0  0  0  0  0  0  0  0  0  0  0
   58.7469   25.7502   46.1695 C   0  0  0  0  0  0  0  0  0  0  0  0
   59.3359   27.3240   46.0912 S   0  0  0  0  0  0  0  0  0  0  0  0
   56.4946   24.6144   46.1040 C   0  0  0  0  0  0  0  0  0  0  0  0
   56.9978   23.4599   46.1339 O   0  0  0  0  0  0  0  0  0  0  0  0
   55.1127   24.7576   46.1006 O   0  0  0  0  0  0  0  0  0  0  0  0
   58.8899   32.1674   50.1206 N   0  0  0  0  0  0  0  0  0  0  0  0
   60.1346   32.4282   52.0893 O   0  0  0  0  0  0  0  0  0  0  0  0
   59.9078   31.7622   51.0440 C   0  0  0  0  0  0  0  0  0  0  0  0
   60.7138   30.5324   50.7549 C   0  0  0  0  0  0  0  0  0  0  0  0
   62.2186   30.8300   50.7611 C   0  0  0  0  0  0  0  0  0  0  0  0
   62.6246   31.7118   49.6023 C   0  0  0  0  0  0  0  0  0  0  0  0
   62.4226   31.2592   48.2870 C   0  0  0  0  0  0  0  0  0  0  0  0
   62.7326   32.0798   47.2014 C   0  0  0  0  0  0  0  0  0  0  0  0
   63.2427   33.3620   47.4152 C   0  0  0  0  0  0  0  0  0  0  0  0
   63.4469   33.8244   48.7164 C   0  0  0  0  0  0  0  0  0  0  0  0
   63.1419   33.0069   49.8143 C   0  0  0  0  0  0  0  0  0  0  0  0
   63.3481   33.4810   51.1091 O   0  0  0  0  0  0  0  0  0  0  0  0
   63.6920   34.3422   51.2435 H   0  0  0  0  0  0  0  0  0  0  0  0
 20 21  2  0
 21 22  1  0
 22 23  1  0
 23 24  1  0
 24 25  2  0
 25 26  1  0
 26 27  2  0
 27 28  1  0
 28 29  2  0
 29 30  1  0
 21 19  1  0
 19  1  1  0
  1  2  2  0
  2  3  1  0
  3  4  2  0
  4  5  1  0
  5  7  1  0
  7  8  2  0
  7  9  2  0
  7 10  1  0
 10 11  2  0
 11 12  1  0
 12 13  1  0
 13 16  1  0
 16 17  2  0
 16 18  1  0
 13 14  2  0
 14 15  1  0
  5  6  2  0
 29 24  1  0
  6  1  1  0
 15 11  1  0
 30 31  1  0
M  CHG 1  12  -1
M  CHG 1  18  -1
M  CHG 1  19  -1
M  END
> <UniqueID>
29

> <SMILES>
O=C(CCc1ccccc1O)[N-]c1cccc(S(=O)(=O)N=c2[n-]c(C(=O)[O-])cs2)c1

> <Energy>
77.01467891892727

> <Genealogy>
O=C(CCc1ccccc1O)[N-]c1cccc(S(=O)(=O)N=c2[n-]c(C(=O)[O-])cs2)c1 (protonated)
O=C(CCc1ccccc1O)[N-]c1cccc(S(=O)(=O)N=c2[n-]c(C(=O)[O-])cs2)c1 (3D coordinates assigned)
O=C(CCc1ccccc1O)[N-]c1cccc(S(=O)(=O)N=c2[n-]c(C(=O)[O-])cs2)c1 (optimized conformer: 77.01467891892727 kcal/mol)

> <smiles>
O=C(CCc1ccccc1O)Nc1cccc(S(=O)(=O)N=c2[nH]c(C(=O)O)cs2)c1

> <score_type>
oracle

> <origin>
adg

> <m_score__min__energy>
-15.01

> <m_primary>
energy

> <minimizedAffinity>
-6.86099

> <minimizedRMSD>
1.50743

> <CNNscore>
0.6217789054

> <CNNaffinity>
6.6950335503

> <CNN_VS>
4.1628308296

> <CNNaffinity_variance>
0.0446277149

$$$$
38:0


 34 37  0  0  0  0  0  0  0  0999 V2000
   57.3142   30.4081   44.9851 C   0  0  0  0  0  0  0  0  0  0  0  0
   56.3075   29.6657   44.8411 O   0  0  0  0  0  0  0  0  0  0  0  0
   58.6866   29.7838   45.0037 C   0  0  0  0  0  0  0  0  0  0  0  0
   58.0831   27.1332   43.6284 C   0  0  0  0  0  0  0  0  0  0  0  0
   58.4636   27.2353   44.9124 C   0  0  0  0  0  0  0  0  0  0  0  0
   58.5593   26.1778   45.8315 C   0  0  0  0  0  0  0  0  0  0  0  0
   58.5590   24.8417   45.6505 C   0  0  0  0  0  0  0  0  0  0  0  0
   58.6946   26.7588   47.0789 C   0  0  0  0  0  0  0  0  0  0  0  0
   58.7448   28.1210   46.8831 C   0  0  0  0  0  0  0  0  0  0  0  0
   58.9491   29.1164   47.9854 C   0  0  0  0  0  0  0  0  0  0  0  0
   58.6445   28.4200   45.5662 N   0  0  0  0  0  0  0  0  0  0  0  0
   57.3642   23.9885   45.5514 C   0  0  0  0  0  0  0  0  0  0  0  0
   57.3831   22.6663   45.2987 N   0  0  0  0  0  0  0  0  0  0  0  0
   56.0913   22.3018   45.4485 C   0  0  0  0  0  0  0  0  0  0  0  0
   55.6963   21.1206   45.2788 O   0  0  0  0  0  0  0  0  0  0  0  0
   55.2580   23.3024   45.8067 N   0  0  0  0  0  0  0  0  0  0  0  0
   56.0827   24.3587   45.8805 C   0  0  0  0  0  0  0  0  0  0  0  0
   55.6741   25.6348   46.2459 O   0  0  0  0  0  0  0  0  0  0  0  0
   57.1152   31.8144   45.1820 N   0  0  0  0  0  0  0  0  0  0  0  0
   58.0795   32.7258   45.7195 C   0  0  0  0  0  0  0  0  0  0  0  0
   58.4883   33.8205   44.9492 C   0  0  0  0  0  0  0  0  0  0  0  0
   59.4511   34.7062   45.4419 C   0  0  0  0  0  0  0  0  0  0  0  0
   60.0264   34.4888   46.6963 C   0  0  0  0  0  0  0  0  0  0  0  0
   59.6368   33.3855   47.4679 C   0  0  0  0  0  0  0  0  0  0  0  0
   58.6731   32.4993   46.9711 C   0  0  0  0  0  0  0  0  0  0  0  0
   60.3892   33.0734   49.0295 S   0  0  0  0  0  0  0  0  0  0  0  0
   61.0807   34.3134   49.5224 O   0  0  0  0  0  0  0  0  0  0  0  0
   59.3090   32.7156   50.0124 O   0  0  0  0  0  0  0  0  0  0  0  0
   61.5231   31.7430   48.9068 N   0  0  0  0  0  0  0  0  0  0  0  0
   62.1408   31.6692   47.5705 C   0  0  0  0  0  0  0  0  0  0  0  0
   63.1919   32.7815   47.3484 C   0  0  0  0  0  0  0  0  0  0  0  0
   63.6540   33.3756   48.5500 O   0  0  0  0  0  0  0  0  0  0  0  0
   63.8725   32.3867   49.5306 C   0  0  0  0  0  0  0  0  0  0  0  0
   62.5317   31.7809   49.9890 C   0  0  0  0  0  0  0  0  0  0  0  0
  4  5  2  0
  5  6  1  0
  6  7  2  0
  7 12  1  0
 12 13  1  0
 13 14  1  0
 14 15  2  0
 14 16  1  0
 16 17  1  0
 17 18  1  0
  6  8  1  0
  8  9  2  0
  9 10  1  0
  9 11  1  0
 11  3  1  0
  3  1  1  0
  1  2  2  0
  1 19  1  0
 19 20  1  0
 20 21  2  0
 21 22  1  0
 22 23  2  0
 23 24  1  0
 24 26  1  0
 26 27  2  0
 26 28  2  0
 26 29  1  0
 29 30  1  0
 30 31  1  0
 31 32  1  0
 32 33  1  0
 33 34  1  0
 24 25  2  0
 11  5  1  0
 25 20  1  0
 17 12  2  0
 34 29  1  0
M  CHG 1  13  -1
M  CHG 1  16  -1
M  CHG 1  18  -1
M  CHG 1  19  -1
M  END
> <UniqueID>
37

> <SMILES>
C=c1c(=Cc2[n-]c(=O)[n-]c2[O-])cc(C)n1CC(=O)[N-]c1cccc(S(=O)(=O)N2CCOCC2)c1

> <Energy>
138.22259344848382

> <Genealogy>
C=c1c(=Cc2[n-]c(=O)[n-]c2[O-])cc(C)n1CC(=O)[N-]c1cccc(S(=O)(=O)N2CCOCC2)c1 (protonated)
C=c1c(=Cc2[n-]c(=O)[n-]c2[O-])cc(C)n1CC(=O)[N-]c1cccc(S(=O)(=O)N2CCOCC2)c1 (3D coordinates assigned)
C=c1c(=Cc2[n-]c(=O)[n-]c2[O-])cc(C)n1CC(=O)[N-]c1cccc(S(=O)(=O)N2CCOCC2)c1 (nonaromatic ring conformer: 138.22259344848382 kcal/mol)

> <smiles>
C=c1c(=Cc2[nH]c(=O)[nH]c2O)cc(C)n1CC(=O)Nc1cccc(S(=O)(=O)N2CCOCC2)c1

> <score_type>
oracle

> <origin>
adg

> <m_score__min__energy>
-19.329999999999998

> <m_primary>
energy

> <minimizedAffinity>
-10.14387

> <minimizedRMSD>
0.89417

> <CNNscore>
0.7730592489

> <CNNaffinity>
7.6530680656

> <CNN_VS>
5.9162750244

> <CNNaffinity_variance>
0.0071507343

$$$$
42:0


 34 37  0  0  0  0  0  0  0  0999 V2000
   59.3573   30.3589   46.8185 C   0  0  0  0  0  0  0  0  0  0  0  0
   58.4763   31.1891   47.5212 C   0  0  0  0  0  0  0  0  0  0  0  0
   58.9664   32.2292   48.3140 C   0  0  0  0  0  0  0  0  0  0  0  0
   60.3511   32.4562   48.4154 C   0  0  0  0  0  0  0  0  0  0  0  0
   61.2320   31.6197   47.7069 C   0  0  0  0  0  0  0  0  0  0  0  0
   60.7374   30.5815   46.9118 C   0  0  0  0  0  0  0  0  0  0  0  0
   59.4771   27.4223   47.2670 C   0  0  0  0  0  0  0  0  0  0  0  0
   58.8758   27.9747   46.2020 C   0  0  0  0  0  0  0  0  0  0  0  0
   58.2970   27.3053   45.1099 C   0  0  0  0  0  0  0  0  0  0  0  0
   58.0268   26.0000   44.9094 C   0  0  0  0  0  0  0  0  0  0  0  0
   57.9840   28.2829   44.1793 C   0  0  0  0  0  0  0  0  0  0  0  0
   58.3184   29.4964   44.7433 C   0  0  0  0  0  0  0  0  0  0  0  0
   58.1090   30.8278   44.0886 C   0  0  0  0  0  0  0  0  0  0  0  0
   58.8465   29.3137   45.9731 N   0  0  0  0  0  0  0  0  0  0  0  0
   57.3530   25.1048   45.8651 C   0  0  0  0  0  0  0  0  0  0  0  0
   57.9473   24.0827   46.5091 N   0  0  0  0  0  0  0  0  0  0  0  0
   56.9940   23.6597   47.3669 C   0  0  0  0  0  0  0  0  0  0  0  0
   57.1675   22.6878   48.1469 O   0  0  0  0  0  0  0  0  0  0  0  0
   55.8442   24.3654   47.3306 N   0  0  0  0  0  0  0  0  0  0  0  0
   56.0958   25.2850   46.3850 C   0  0  0  0  0  0  0  0  0  0  0  0
   55.1964   26.2754   46.0114 O   0  0  0  0  0  0  0  0  0  0  0  0
   60.8725   33.5780   49.2286 C   0  0  0  0  0  0  0  0  0  0  0  0
   60.0773   34.3421   49.8383 O   0  0  0  0  0  0  0  0  0  0  0  0
   62.2786   33.8392   49.2865 N   0  0  0  0  0  0  0  0  0  0  0  0
   63.1301   33.7681   50.4790 C   0  0  0  0  0  0  0  0  0  0  0  0
   64.3854   32.9218   50.2126 C   0  0  0  0  0  0  0  0  0  0  0  0
   64.1222   31.4229   50.3700 C   0  0  0  0  0  0  0  0  0  0  0  0
   63.5908   31.1367   51.7173 N   0  0  0  0  0  0  0  0  0  0  0  0
   62.2695   31.7810   51.8747 C   0  0  0  0  0  0  0  0  0  0  0  0
   62.3806   33.3108   51.7480 C   0  0  0  0  0  0  0  0  0  0  0  0
   63.4916   29.6741   51.9284 C   0  0  0  0  0  0  0  0  0  0  0  0
   62.0397   29.2595   52.1889 C   0  0  0  0  0  0  0  0  0  0  0  0
   61.6080   28.3554   51.1891 O   0  0  0  0  0  0  0  0  0  0  0  0
   60.6346   28.9573   50.3641 C   0  0  0  0  0  0  0  0  0  0  0  0
  7  8  2  0
  8  9  1  0
  9 10  2  0
 10 15  1  0
 15 16  1  0
 16 17  1  0
 17 18  2  0
 17 19  1  0
 19 20  1  0
 20 21  1  0
  9 11  1  0
 11 12  2  0
 12 13  1  0
 12 14  1  0
 14  1  1  0
  1  2  2  0
  2  3  1  0
  3  4  2  0
  4 22  1  0
 22 23  2  0
 22 24  1  0
 24 25  1  0
 25 26  1  0
 26 27  1  0
 27 28  1  0
 28 31  1  0
 31 32  1  0
 32 33  1  0
 33 34  1  0
 28 29  1  0
 29 30  1  0
  4  5  1  0
  5  6  2  0
 14  8  1  0
  6  1  1  0
 20 15  2  0
 30 25  1  0
M  CHG 1  16  -1
M  CHG 1  19  -1
M  CHG 1  21  -1
M  CHG 1  24  -1
M  END
> <UniqueID>
41

> <SMILES>
C=c1/c(=C\c2[n-]c(=O)[n-]c2[O-])cc(C)n1-c1ccc(C(=O)[N-]C2CCN(CCOC)CC2)cc1

> <Energy>
148.0166203216378

> <Genealogy>
C=c1c(=Cc2[n-]c(=O)[n-]c2[O-])cc(C)n1-c1ccc(C(=O)[N-]C2CCN(CCOC)CC2)cc1 (protonated)
C=c1/c(=C\c2[n-]c(=O)[n-]c2[O-])cc(C)n1-c1ccc(C(=O)[N-]C2CCN(CCOC)CC2)cc1 (cis-trans isomerization)
C=c1/c(=C\c2[n-]c(=O)[n-]c2[O-])cc(C)n1-c1ccc(C(=O)[N-]C2CCN(CCOC)CC2)cc1 (3D coordinates assigned)
C=c1/c(=C\c2[n-]c(=O)[n-]c2[O-])cc(C)n1-c1ccc(C(=O)[N-]C2CCN(CCOC)CC2)cc1 (nonaromatic ring conformer: 148.0166203216378 kcal/mol)

> <smiles>
C=c1c(=Cc2[nH]c(=O)[nH]c2O)cc(C)n1-c1ccc(C(=O)NC2CCN(CCOC)CC2)cc1

> <score_type>
oracle

> <origin>
adg

> <m_score__min__energy>
-16.809999999999999

> <m_primary>
energy

> <minimizedAffinity>
-7.12492

> <minimizedRMSD>
1.10103

> <CNNscore>
0.0721491873

> <CNNaffinity>
6.5332870483

> <CNN_VS>
0.4713713527

> <CNNaffinity_variance>
0.0280147698

$$$$
47:0


 29 31  0  0  0  0  0  0  0  0999 V2000
   56.5649   29.9568   43.2648 C   0  0  0  0  0  0  0  0  0  0  0  0
   57.2441   29.5324   44.3340 C   0  0  0  0  0  0  0  0  0  0  0  0
   57.3889   28.2237   44.6264 N   0  0  0  0  0  0  0  0  0  0  0  0
   58.1117   28.1532   45.7649 C   0  0  0  0  0  0  0  0  0  0  0  0
   58.4490   27.0247   46.4078 C   0  0  0  0  0  0  0  0  0  0  0  0
   58.4227   29.4242   46.2137 C   0  0  0  0  0  0  0  0  0  0  0  0
   57.8804   30.3122   45.3014 C   0  0  0  0  0  0  0  0  0  0  0  0
   57.0352   27.4647   44.1087 H   0  0  0  0  0  0  0  0  0  0  0  0
   57.9324   25.6879   46.0631 C   0  0  0  0  0  0  0  0  0  0  0  0
   58.6754   24.5824   45.8736 N   0  0  0  0  0  0  0  0  0  0  0  0
   57.7757   23.5948   45.6977 C   0  0  0  0  0  0  0  0  0  0  0  0
   58.1030   22.3966   45.4929 O   0  0  0  0  0  0  0  0  0  0  0  0
   56.4897   23.9991   45.7789 N   0  0  0  0  0  0  0  0  0  0  0  0
   56.6072   25.3183   46.0219 C   0  0  0  0  0  0  0  0  0  0  0  0
   55.5232   26.1685   46.2072 O   0  0  0  0  0  0  0  0  0  0  0  0
   59.6573   24.5110   45.8652 H   0  0  0  0  0  0  0  0  0  0  0  0
   57.9938   31.7813   45.4088 C   0  0  0  0  0  0  0  0  0  0  0  0
   57.2881   32.5391   44.6899 O   0  0  0  0  0  0  0  0  0  0  0  0
   58.9009   32.3271   46.3240 O   0  0  0  0  0  0  0  0  0  0  0  0
   58.5195   32.8203   47.6075 C   0  0  0  0  0  0  0  0  0  0  0  0
   59.2450   32.0777   48.6963 C   0  0  0  0  0  0  0  0  0  0  0  0
   60.3816   31.3937   48.5061 C   0  0  0  0  0  0  0  0  0  0  0  0
   61.7325   31.9449   48.7380 C   0  0  0  0  0  0  0  0  0  0  0  0
   62.2887   32.8953   47.8637 C   0  0  0  0  0  0  0  0  0  0  0  0
   63.5796   33.3828   48.0823 C   0  0  0  0  0  0  0  0  0  0  0  0
   64.3332   32.9159   49.1620 C   0  0  0  0  0  0  0  0  0  0  0  0
   63.7989   31.9497   50.0198 C   0  0  0  0  0  0  0  0  0  0  0  0
   62.5075   31.4574   49.8046 C   0  0  0  0  0  0  0  0  0  0  0  0
   62.0058   30.5172   50.6465 F   0  0  0  0  0  0  0  0  0  0  0  0
  1  2  2  0
  2  3  1  0
  3  4  1  0
  4  5  2  0
  5  9  1  0
  9 10  1  0
 10 11  1  0
 11 12  2  0
 11 13  1  0
 13 14  1  0
 14 15  1  0
  4  6  1  0
  6  7  2  0
  7 17  1  0
 17 18  2  0
 17 19  1  0
 19 20  1  0
 20 21  1  0
 21 22  2  0
 22 23  1  0
 23 24  2  0
 24 25  1  0
 25 26  2  0
 26 27  1  0
 27 28  2  0
 28 29  1  0
  7  2  1  0
 28 23  1  0
 14  9  2  0
  3  8  1  0
 10 16  1  0
M  CHG 1  13  -1
M  CHG 1  15  -1
M  END
> <UniqueID>
45

> <SMILES>
C=c1[nH]c(=Cc2[nH]c(=O)[n-]c2[O-])cc1C(=O)OCC=Cc1ccccc1F

> <Energy>
110.54871008233013

> <Genealogy>
C=c1[nH]c(=Cc2[nH]c(=O)[n-]c2[O-])cc1C(=O)OCC=Cc1ccccc1F (protonated)
C=c1[nH]c(=Cc2[nH]c(=O)[n-]c2[O-])cc1C(=O)OCC=Cc1ccccc1F (3D coordinates assigned)
C=c1[nH]c(=Cc2[nH]c(=O)[n-]c2[O-])cc1C(=O)OCC=Cc1ccccc1F (optimized conformer: 110.54871008233013 kcal/mol)

> <smiles>
C=c1[nH]c(=Cc2[nH]c(=O)[nH]c2O)cc1C(=O)OCC=Cc1ccccc1F

> <score_type>
oracle

> <origin>
adg

> <m_score__min__energy>
-15.029999999999999

> <m_primary>
energy

> <minimizedAffinity>
-8.14467

> <minimizedRMSD>
1.46444

> <CNNscore>
0.2039546221

> <CNNaffinity>
6.5326981544

> <CNN_VS>
1.3323739767

> <CNNaffinity_variance>
0.0920271277

$$$$
55:0


 33 36  0  0  0  0  0  0  0  0999 V2000
   57.6084   27.6005   45.1489 C   0  0  0  0  0  0  0  0  0  0  0  0
   58.1224   28.6077   45.8876 C   0  0  0  0  0  0  0  0  0  0  0  0
   58.6979   28.2743   47.0687 N   0  0  0  0  0  0  0  0  0  0  0  0
   59.2379   29.1938   47.9024 C   0  0  0  0  0  0  0  0  0  0  0  0
   59.7554   28.8031   48.9846 O   0  0  0  0  0  0  0  0  0  0  0  0
   59.2230   30.5219   47.5740 N   0  0  0  0  0  0  0  0  0  0  0  0
   58.6661   30.9336   46.3804 C   0  0  0  0  0  0  0  0  0  0  0  0
   58.6366   32.2401   46.0354 C   0  0  0  0  0  0  0  0  0  0  0  0
   58.1161   29.9682   45.5014 C   0  0  0  0  0  0  0  0  0  0  0  0
   57.6526   30.3231   44.3814 O   0  0  0  0  0  0  0  0  0  0  0  0
   57.4110   22.1700   46.7933 O   0  0  0  0  0  0  0  0  0  0  0  0
   57.4423   23.5044   46.3923 C   0  0  0  0  0  0  0  0  0  0  0  0
   58.6320   24.0489   45.8990 C   0  0  0  0  0  0  0  0  0  0  0  0
   58.6772   25.3849   45.4897 C   0  0  0  0  0  0  0  0  0  0  0  0
   57.5263   26.1835   45.5540 C   0  0  0  0  0  0  0  0  0  0  0  0
   56.3362   25.6420   46.0747 C   0  0  0  0  0  0  0  0  0  0  0  0
   55.1939   26.4284   46.1934 O   0  0  0  0  0  0  0  0  0  0  0  0
   56.2948   24.3040   46.4824 C   0  0  0  0  0  0  0  0  0  0  0  0
   58.1833   21.6433   46.7293 H   0  0  0  0  0  0  0  0  0  0  0  0
   59.8025   31.4596   48.5042 C   0  0  0  0  0  0  0  0  0  0  0  0
   59.0140   32.0325   49.5107 C   0  0  0  0  0  0  0  0  0  0  0  0
   59.5792   32.9340   50.4147 C   0  0  0  0  0  0  0  0  0  0  0  0
   60.9314   33.2734   50.3149 C   0  0  0  0  0  0  0  0  0  0  0  0
   61.7300   32.7216   49.2981 C   0  0  0  0  0  0  0  0  0  0  0  0
   61.1590   31.8016   48.4029 C   0  0  0  0  0  0  0  0  0  0  0  0
   63.1663   33.0657   49.1921 C   0  0  0  0  0  0  0  0  0  0  0  0
   63.6282   33.4136   48.0706 O   0  0  0  0  0  0  0  0  0  0  0  0
   64.0425   33.0298   50.3354 N   0  0  0  0  0  0  0  0  0  0  0  0
   65.4258   32.5623   50.1998 C   0  0  0  0  0  0  0  0  0  0  0  0
   66.3489   33.4456   51.0429 C   0  0  0  0  0  0  0  0  0  0  0  0
   65.8848   33.5333   52.3760 O   0  0  0  0  0  0  0  0  0  0  0  0
   64.6323   34.1935   52.4044 C   0  0  0  0  0  0  0  0  0  0  0  0
   63.5644   33.3692   51.6802 C   0  0  0  0  0  0  0  0  0  0  0  0
 11 12  1  0
 12 13  2  0
 13 14  1  0
 14 15  2  0
 15  1  1  0
  1  2  2  0
  2  3  1  0
  3  4  1  0
  4  5  2  0
  4  6  1  0
  6 20  1  0
 20 21  2  0
 21 22  1  0
 22 23  2  0
 23 24  1  0
 24 26  1  0
 26 27  2  0
 26 28  1  0
 28 29  1  0
 29 30  1  0
 30 31  1  0
 31 32  1  0
 32 33  1  0
 24 25  2  0
  6  7  1  0
  7  8  2  0
  7  9  1  0
  9 10  2  0
 15 16  1  0
 16 17  1  0
 16 18  2  0
 18 12  1  0
  9  2  1  0
 25 20  1  0
 33 28  1  0
 11 19  1  0
M  CHG 1   3  -1
M  CHG 1  17  -1
M  END
> <UniqueID>
53

> <SMILES>
C=c1c(=O)/c(=C\c2ccc(O)cc2[O-])[n-]c(=O)n1-c1cccc(C(=O)N2CCOCC2)c1

> <Energy>
90.36009500271156

> <Genealogy>
C=c1c(=O)c(=Cc2ccc(O)cc2[O-])[n-]c(=O)n1-c1cccc(C(=O)N2CCOCC2)c1 (protonated)
C=c1c(=O)/c(=C\c2ccc(O)cc2[O-])[n-]c(=O)n1-c1cccc(C(=O)N2CCOCC2)c1 (cis-trans isomerization)
C=c1c(=O)/c(=C\c2ccc(O)cc2[O-])[n-]c(=O)n1-c1cccc(C(=O)N2CCOCC2)c1 (3D coordinates assigned)
C=c1c(=O)/c(=C\c2ccc(O)cc2[O-])[n-]c(=O)n1-c1cccc(C(=O)N2CCOCC2)c1 (nonaromatic ring conformer: 90.36009500271156 kcal/mol)

> <smiles>
C=c1c(=O)c(=Cc2ccc(O)cc2O)[nH]c(=O)n1-c1cccc(C(=O)N2CCOCC2)c1

> <score_type>
oracle

> <origin>
adg

> <m_score__min__energy>
-14.93

> <m_primary>
energy

> <minimizedAffinity>
-8.76918

> <minimizedRMSD>
1.37449

> <CNNscore>
0.4886727631

> <CNNaffinity>
6.7304534912

> <CNN_VS>
3.2889893055

> <CNNaffinity_variance>
0.0875633359

$$$$
57:0


 32 35  0  0  0  0  0  0  0  0999 V2000
   58.5001   29.2539   45.6528 C   0  0  0  0  0  0  0  0  0  0  0  0
   57.6816   29.2187   44.5126 C   0  0  0  0  0  0  0  0  0  0  0  0
   57.2252   30.4056   43.9367 C   0  0  0  0  0  0  0  0  0  0  0  0
   57.5596   31.6364   44.5067 C   0  0  0  0  0  0  0  0  0  0  0  0
   58.3408   31.6825   45.6689 C   0  0  0  0  0  0  0  0  0  0  0  0
   58.8099   30.4906   46.2380 C   0  0  0  0  0  0  0  0  0  0  0  0
   58.7593   33.2308   46.3956 S   0  0  0  0  0  0  0  0  0  0  0  0
   57.4980   33.9771   46.7291 O   0  0  0  0  0  0  0  0  0  0  0  0
   59.5652   34.0437   45.4226 O   0  0  0  0  0  0  0  0  0  0  0  0
   59.6826   32.9727   47.8388 N   0  0  0  0  0  0  0  0  0  0  0  0
   59.1136   32.7121   49.1579 C   0  0  0  0  0  0  0  0  0  0  0  0
   60.3178   32.5958   50.1225 C   0  0  0  0  0  0  0  0  0  0  0  0
   61.4914   32.8576   49.2409 C   0  0  0  0  0  0  0  0  0  0  0  0
   62.8425   32.9217   49.5956 C   0  0  0  0  0  0  0  0  0  0  0  0
   63.7855   33.2001   48.5942 C   0  0  0  0  0  0  0  0  0  0  0  0
   63.3675   33.4131   47.2676 C   0  0  0  0  0  0  0  0  0  0  0  0
   62.0033   33.3480   46.9344 C   0  0  0  0  0  0  0  0  0  0  0  0
   61.0910   33.0698   47.9506 C   0  0  0  0  0  0  0  0  0  0  0  0
   58.9705   28.0018   46.2789 C   0  0  0  0  0  0  0  0  0  0  0  0
   60.2084   27.8182   46.4275 O   0  0  0  0  0  0  0  0  0  0  0  0
   58.0684   26.9748   46.7056 N   0  0  0  0  0  0  0  0  0  0  0  0
   57.5686   25.8977   45.8554 C   0  0  0  0  0  0  0  0  0  0  0  0
   56.2319   25.4655   46.3572 C   0  0  0  0  0  0  0  0  0  0  0  0
   55.2349   26.2104   46.1684 O   0  0  0  0  0  0  0  0  0  0  0  0
   56.8025   20.9457   43.3203 C   0  0  0  0  0  0  0  0  0  0  0  0
   56.7058   21.3178   44.7708 C   0  0  0  0  0  0  0  0  0  0  0  0
   56.9649   20.3571   45.7512 C   0  0  0  0  0  0  0  0  0  0  0  0
   56.9027   20.7185   47.0937 C   0  0  0  0  0  0  0  0  0  0  0  0
   56.6096   21.9982   47.4432 N   0  0  0  0  0  0  0  0  0  0  0  0
   56.3703   22.9733   46.5248 C   0  0  0  0  0  0  0  0  0  0  0  0
   56.1081   24.1715   46.9718 N   0  0  0  0  0  0  0  0  0  0  0  0
   56.4121   22.6365   45.1536 C   0  0  0  0  0  0  0  0  0  0  0  0
 25 26  1  0
 26 27  1  0
 27 28  2  0
 28 29  1  0
 29 30  1  0
 30 31  2  0
 31 23  1  0
 23 24  2  0
 23 22  1  0
 22 21  1  0
 21 19  1  0
 19 20  2  0
 19  1  1  0
  1  2  2  0
  2  3  1  0
  3  4  2  0
  4  5  1  0
  5  7  1  0
  7  8  2  0
  7  9  2  0
  7 10  1  0
 10 11  1  0
 11 12  1  0
 12 13  1  0
 13 14  2  0
 14 15  1  0
 15 16  2  0
 16 17  1  0
 17 18  2  0
  5  6  2  0
 30 32  1  0
 32 26  2  0
  6  1  1  0
 18 10  1  0
 18 13  1  0
M  CHG 1  21  -1
M  CHG 1  29  -1
M  END
> <UniqueID>
55

> <SMILES>
Cc1cc[n-]c(=NC(=O)C[N-]C(=O)c2cccc(S(=O)(=O)N3CCc4ccccc43)c2)c1

> <Energy>
82.52638966410974

> <Genealogy>
Cc1cc[n-]c(=NC(=O)C[N-]C(=O)c2cccc(S(=O)(=O)N3CCc4ccccc43)c2)c1 (protonated)
Cc1cc[n-]c(=NC(=O)C[N-]C(=O)c2cccc(S(=O)(=O)N3CCc4ccccc43)c2)c1 (3D coordinates assigned)
Cc1cc[n-]c(=NC(=O)C[N-]C(=O)c2cccc(S(=O)(=O)N3CCc4ccccc43)c2)c1 (nonaromatic ring conformer: 82.52638966410974 kcal/mol)

> <smiles>
Cc1cc[nH]c(=NC(=O)CNC(=O)c2cccc(S(=O)(=O)N3CCc4ccccc43)c2)c1

> <score_type>
oracle

> <origin>
adg

> <m_score__min__energy>
-14.449999999999999

> <m_primary>
energy

> <minimizedAffinity>
-8.41815

> <minimizedRMSD>
0.77545

> <CNNscore>
0.4379362762

> <CNNaffinity>
6.7744698524

> <CNN_VS>
2.9667861462

> <CNNaffinity_variance>
0.0307956692

$$$$
58:0


 24 26  0  0  0  0  0  0  0  0999 V2000
   58.7594   28.3253   47.4519 C   0  0  0  0  0  0  0  0  0  0  0  0
   58.6041   28.2642   46.1207 C   0  0  0  0  0  0  0  0  0  0  0  0
   58.5308   27.1056   45.3366 C   0  0  0  0  0  0  0  0  0  0  0  0
   58.6690   25.8333   45.7634 C   0  0  0  0  0  0  0  0  0  0  0  0
   58.2900   27.5817   44.0419 C   0  0  0  0  0  0  0  0  0  0  0  0
   58.1337   26.8000   42.7728 C   0  0  0  0  0  0  0  0  0  0  0  0
   58.2249   28.9271   44.0777 N   0  0  0  0  0  0  0  0  0  0  0  0
   58.4246   29.3431   45.3184 N   0  0  0  0  0  0  0  0  0  0  0  0
   58.0553   29.5097   43.3024 H   0  0  0  0  0  0  0  0  0  0  0  0
   57.5614   24.8656   45.8568 C   0  0  0  0  0  0  0  0  0  0  0  0
   56.2544   25.2952   46.1253 C   0  0  0  0  0  0  0  0  0  0  0  0
   55.9695   26.6481   46.2723 O   0  0  0  0  0  0  0  0  0  0  0  0
   55.2526   24.3844   46.2419 N   0  0  0  0  0  0  0  0  0  0  0  0
   55.4979   23.0539   46.1129 C   0  0  0  0  0  0  0  0  0  0  0  0
   54.5542   22.2299   46.2206 O   0  0  0  0  0  0  0  0  0  0  0  0
   56.7594   22.6147   45.8727 N   0  0  0  0  0  0  0  0  0  0  0  0
   57.7934   23.4867   45.7484 C   0  0  0  0  0  0  0  0  0  0  0  0
   58.9544   23.0448   45.5322 O   0  0  0  0  0  0  0  0  0  0  0  0
   58.4524   30.7353   45.6786 C   0  0  0  0  0  0  0  0  0  0  0  0
   57.6255   31.6628   45.0229 C   0  0  0  0  0  0  0  0  0  0  0  0
   57.6377   33.0079   45.4025 C   0  0  0  0  0  0  0  0  0  0  0  0
   58.4654   33.4358   46.4448 C   0  0  0  0  0  0  0  0  0  0  0  0
   59.2768   32.5149   47.1143 C   0  0  0  0  0  0  0  0  0  0  0  0
   59.2669   31.1676   46.7373 C   0  0  0  0  0  0  0  0  0  0  0  0
  1  2  2  0
  2  3  1  0
  3  4  2  0
  4 10  1  0
 10 11  2  0
 11 12  1  0
 11 13  1  0
 13 14  1  0
 14 15  2  0
 14 16  1  0
 16 17  1  0
 17 18  2  0
  3  5  1  0
  5  6  1  0
  5  7  2  0
  7  8  1  0
  8 19  1  0
 19 20  2  0
 20 21  1  0
 21 22  2  0
 22 23  1  0
 23 24  2  0
  8  2  1  0
 24 19  1  0
 17 10  1  0
  7  9  1  0
M  CHG 1   7   1
M  CHG 1  12  -1
M  CHG 1  13  -1
M  CHG 1  16  -1
M  END
> <UniqueID>
56

> <SMILES>
C=c1c(=Cc2c([O-])[n-]c(=O)[n-]c2=O)c(C)[nH+]n1-c1ccccc1

> <Energy>
89.76236290175032

> <Genealogy>
C=c1c(=Cc2c([O-])[n-]c(=O)[n-]c2=O)c(C)[nH+]n1-c1ccccc1 (protonated)
C=c1c(=Cc2c([O-])[n-]c(=O)[n-]c2=O)c(C)[nH+]n1-c1ccccc1 (3D coordinates assigned)
C=c1c(=Cc2c([O-])[n-]c(=O)[n-]c2=O)c(C)[nH+]n1-c1ccccc1 (optimized conformer: 89.76236290175032 kcal/mol)

> <smiles>
C=c1c(=Cc2c(O)[nH]c(=O)[nH]c2=O)c(C)nn1-c1ccccc1

> <score_type>
oracle

> <origin>
adg

> <m_score__min__energy>
-14.039999999999999

> <m_primary>
energy

> <minimizedAffinity>
-8.17769

> <minimizedRMSD>
1.00364

> <CNNscore>
0.1500068903

> <CNNaffinity>
6.0226497650

> <CNN_VS>
0.9034389853

> <CNNaffinity_variance>
0.3730581999

$$$$
66:0


 34 38  0  0  0  0  0  0  0  0999 V2000
   58.9723   32.7289   46.9285 N   0  0  0  0  0  0  0  0  0  0  0  0
   58.2756   33.2803   45.8790 C   0  0  0  0  0  0  0  0  0  0  0  0
   57.6743   32.4914   44.9483 N   0  0  0  0  0  0  0  0  0  0  0  0
   57.7834   31.1492   45.0549 C   0  0  0  0  0  0  0  0  0  0  0  0
   57.0928   30.0097   44.0350 S   0  0  0  0  0  0  0  0  0  0  0  0
   57.7136   28.6940   44.8939 C   0  0  0  0  0  0  0  0  0  0  0  0
   58.4659   29.1351   45.9763 C   0  0  0  0  0  0  0  0  0  0  0  0
   58.4876   30.5425   46.0760 C   0  0  0  0  0  0  0  0  0  0  0  0
   59.0920   31.3617   47.0413 C   0  0  0  0  0  0  0  0  0  0  0  0
   59.7322   30.8545   48.0018 O   0  0  0  0  0  0  0  0  0  0  0  0
   59.0681   28.1494   46.9302 C   0  0  0  0  0  0  0  0  0  0  0  0
   59.3850   26.8311   46.2126 C   0  0  0  0  0  0  0  0  0  0  0  0
   58.2409   26.3370   45.4210 N   0  0  0  0  0  0  0  0  0  0  0  0
   58.0271   24.9182   45.2327 C   0  0  0  0  0  0  0  0  0  0  0  0
   58.6978   24.0967   45.9155 O   0  0  0  0  0  0  0  0  0  0  0  0
   57.4215   27.2547   44.6045 C   0  0  0  0  0  0  0  0  0  0  0  0
   59.6270   33.6188   47.9006 C   0  0  0  0  0  0  0  0  0  0  0  0
   61.5157   33.9639   46.4824 O   0  0  0  0  0  0  0  0  0  0  0  0
   61.1116   33.6864   47.6465 C   0  0  0  0  0  0  0  0  0  0  0  0
   62.0695   33.4917   48.7081 N   0  0  0  0  0  0  0  0  0  0  0  0
   63.4832   33.2562   48.3771 C   0  0  0  0  0  0  0  0  0  0  0  0
   64.1176   32.3200   49.4112 C   0  0  0  0  0  0  0  0  0  0  0  0
   63.9617   32.8316   50.8581 C   0  0  0  0  0  0  0  0  0  0  0  0
   62.8749   33.9084   51.0206 C   0  0  0  0  0  0  0  0  0  0  0  0
   61.6651   33.6429   50.1171 C   0  0  0  0  0  0  0  0  0  0  0  0
   56.9812   24.3698   44.2941 C   0  0  0  0  0  0  0  0  0  0  0  0
   55.8470   23.7642   45.0642 C   0  0  0  0  0  0  0  0  0  0  0  0
   55.6147   22.4399   45.1361 N   0  0  0  0  0  0  0  0  0  0  0  0
   54.4931   22.3605   45.8848 C   0  0  0  0  0  0  0  0  0  0  0  0
   53.9547   21.2639   46.1850 O   0  0  0  0  0  0  0  0  0  0  0  0
   53.9932   23.5492   46.2846 N   0  0  0  0  0  0  0  0  0  0  0  0
   54.8592   24.4295   45.7545 C   0  0  0  0  0  0  0  0  0  0  0  0
   54.7508   25.8087   45.8997 O   0  0  0  0  0  0  0  0  0  0  0  0
   54.0407   26.1738   46.3899 H   0  0  0  0  0  0  0  0  0  0  0  0
 18 19  2  0
 19 17  1  0
 17  1  1  0
  1  2  1  0
  2  3  2  0
  3  4  1  0
  4  5  1  0
  5  6  1  0
  6  7  2  0
  7  8  1  0
  8  9  1  0
  9 10  2  0
  7 11  1  0
 11 12  1  0
 12 13  1  0
 13 14  1  0
 14 15  2  0
 14 26  1  0
 26 27  1  0
 27 28  1  0
 28 29  1  0
 29 30  2  0
 29 31  1  0
 31 32  1  0
 32 33  1  0
 13 16  1  0
 19 20  1  0
 20 21  1  0
 21 22  1  0
 22 23  1  0
 23 24  1  0
 24 25  1  0
  9  1  1  0
 32 27  2  0
 25 20  1  0
  8  4  2  0
 16  6  1  0
 33 34  1  0
M  CHG 1  28  -1
M  CHG 1  31  -1
M  END
> <UniqueID>
64

> <SMILES>
O=C(Cn1cnc2sc3c(c2c1=O)CCN(C(=O)Cc1[n-]c(=O)[n-]c1O)C3)N1CCCCC1

> <Energy>
128.51513193749923

> <Genealogy>
O=C(Cn1cnc2sc3c(c2c1=O)CCN(C(=O)Cc1[n-]c(=O)[n-]c1O)C3)N1CCCCC1 (protonated)
O=C(Cn1cnc2sc3c(c2c1=O)CCN(C(=O)Cc1[n-]c(=O)[n-]c1O)C3)N1CCCCC1 (3D coordinates assigned)
O=C(Cn1cnc2sc3c(c2c1=O)CCN(C(=O)Cc1[n-]c(=O)[n-]c1O)C3)N1CCCCC1 (nonaromatic ring conformer: 128.51513193749923 kcal/mol)

> <smiles>
O=C(Cn1cnc2sc3c(c2c1=O)CCN(C(=O)Cc1[nH]c(=O)[nH]c1O)C3)N1CCCCC1

> <score_type>
oracle

> <origin>
adg

> <m_score__min__energy>
-14.17

> <m_primary>
energy

> <minimizedAffinity>
-10.20746

> <minimizedRMSD>
1.09212

> <CNNscore>
0.3917268515

> <CNNaffinity>
7.1150374413

> <CNN_VS>
2.7871510983

> <CNNaffinity_variance>
0.0259900857

$$$$
73:0


 26 28  0  0  0  0  0  0  0  0999 V2000
   57.7786   30.7196   45.8137 N   0  0  0  0  0  0  0  0  0  0  0  0
   58.3862   32.3339   46.0434 S   0  0  0  0  0  0  0  0  0  0  0  0
   57.3780   33.1206   46.8335 O   0  0  0  0  0  0  0  0  0  0  0  0
   58.5479   32.9982   44.7034 O   0  0  0  0  0  0  0  0  0  0  0  0
   59.9173   32.3196   46.9335 C   0  0  0  0  0  0  0  0  0  0  0  0
   60.8902   33.2759   46.6055 C   0  0  0  0  0  0  0  0  0  0  0  0
   62.1055   33.3219   47.2936 C   0  0  0  0  0  0  0  0  0  0  0  0
   62.3661   32.4147   48.3210 C   0  0  0  0  0  0  0  0  0  0  0  0
   61.4078   31.4545   48.6694 C   0  0  0  0  0  0  0  0  0  0  0  0
   61.6466   30.5413   49.7056 C   0  0  0  0  0  0  0  0  0  0  0  0
   60.6690   29.6064   50.0458 C   0  0  0  0  0  0  0  0  0  0  0  0
   59.4633   29.5869   49.3423 C   0  0  0  0  0  0  0  0  0  0  0  0
   59.2458   30.4741   48.3363 N   0  0  0  0  0  0  0  0  0  0  0  0
   60.1741   31.4040   47.9763 C   0  0  0  0  0  0  0  0  0  0  0  0
   58.4731   30.0452   44.7150 C   0  0  0  0  0  0  0  0  0  0  0  0
   60.5291   28.8542   44.9996 O   0  0  0  0  0  0  0  0  0  0  0  0
   59.2899   28.8896   45.2292 C   0  0  0  0  0  0  0  0  0  0  0  0
   58.7163   27.8642   46.0475 N   0  0  0  0  0  0  0  0  0  0  0  0
   57.3570   27.3578   45.9069 C   0  0  0  0  0  0  0  0  0  0  0  0
   57.3835   25.8567   45.8283 C   0  0  0  0  0  0  0  0  0  0  0  0
   58.6044   25.1806   45.6536 C   0  0  0  0  0  0  0  0  0  0  0  0
   58.6342   23.7858   45.5749 C   0  0  0  0  0  0  0  0  0  0  0  0
   57.4488   23.0535   45.6623 C   0  0  0  0  0  0  0  0  0  0  0  0
   56.2285   23.7141   45.8257 C   0  0  0  0  0  0  0  0  0  0  0  0
   56.1909   25.1115   45.9052 C   0  0  0  0  0  0  0  0  0  0  0  0
   54.9646   25.7500   46.0540 O   0  0  0  0  0  0  0  0  0  0  0  0
 16 17  2  0
 17 15  1  0
 15  1  1  0
  1  2  1  0
  2  3  2  0
  2  4  2  0
  2  5  1  0
  5  6  2  0
  6  7  1  0
  7  8  2  0
  8  9  1  0
  9 10  2  0
 10 11  1  0
 11 12  2  0
 12 13  1  0
 13 14  2  0
 17 18  1  0
 18 19  1  0
 19 20  1  0
 20 21  2  0
 21 22  1  0
 22 23  2  0
 23 24  1  0
 24 25  2  0
 25 26  1  0
 14  5  1  0
 25 20  1  0
 14  9  1  0
M  CHG 1   1  -1
M  CHG 1  18  -1
M  CHG 1  26  -1
M  END
> <UniqueID>
70

> <SMILES>
O=C(C[N-]S(=O)(=O)c1cccc2cccnc12)[N-]Cc1ccccc1[O-]

> <Energy>
41.70984917053561

> <Genealogy>
O=C(C[N-]S(=O)(=O)c1cccc2cccnc12)[N-]Cc1ccccc1[O-] (protonated)
O=C(C[N-]S(=O)(=O)c1cccc2cccnc12)[N-]Cc1ccccc1[O-] (3D coordinates assigned)
O=C(C[N-]S(=O)(=O)c1cccc2cccnc12)[N-]Cc1ccccc1[O-] (optimized conformer: 41.70984917053561 kcal/mol)

> <smiles>
O=C(CNS(=O)(=O)c1cccc2cccnc12)NCc1ccccc1O

> <score_type>
oracle

> <origin>
adg

> <m_score__min__energy>
-15.380000000000001

> <m_primary>
energy

> <minimizedAffinity>
-7.74917

> <minimizedRMSD>
1.11152

> <CNNscore>
0.5037347078

> <CNNaffinity>
6.1476683617

> <CNN_VS>
3.0967938900

> <CNNaffinity_variance>
0.0969886556

$$$$
80:0


 31 34  0  0  0  0  0  0  0  0999 V2000
   60.3449   32.0171   48.0299 C   0  0  0  0  0  0  0  0  0  0  0  0
   61.1772   33.1215   48.2839 C   0  0  0  0  0  0  0  0  0  0  0  0
   62.5418   33.0660   47.9842 C   0  0  0  0  0  0  0  0  0  0  0  0
   63.3333   34.1394   48.2293 F   0  0  0  0  0  0  0  0  0  0  0  0
   63.0911   31.9097   47.4275 C   0  0  0  0  0  0  0  0  0  0  0  0
   62.2779   30.8047   47.1720 C   0  0  0  0  0  0  0  0  0  0  0  0
   60.9073   30.8472   47.4669 C   0  0  0  0  0  0  0  0  0  0  0  0
   60.1063   29.6725   47.2458 N   0  0  0  0  0  0  0  0  0  0  0  0
   59.9393   28.6636   48.1271 C   0  0  0  0  0  0  0  0  0  0  0  0
   60.5010   28.6378   49.5156 C   0  0  0  0  0  0  0  0  0  0  0  0
   59.1381   27.6809   47.5840 C   0  0  0  0  0  0  0  0  0  0  0  0
   58.7846   28.1078   46.3129 C   0  0  0  0  0  0  0  0  0  0  0  0
   57.9480   27.4134   45.5187 C   0  0  0  0  0  0  0  0  0  0  0  0
   59.4401   29.3355   46.1139 C   0  0  0  0  0  0  0  0  0  0  0  0
   59.5148   30.0462   44.9788 C   0  0  0  0  0  0  0  0  0  0  0  0
   57.6179   25.9873   45.6573 C   0  0  0  0  0  0  0  0  0  0  0  0
   58.5365   25.0066   45.6398 N   0  0  0  0  0  0  0  0  0  0  0  0
   57.8178   23.9008   45.9304 C   0  0  0  0  0  0  0  0  0  0  0  0
   58.3334   22.7534   45.9920 O   0  0  0  0  0  0  0  0  0  0  0  0
   56.5051   24.1203   46.1618 N   0  0  0  0  0  0  0  0  0  0  0  0
   56.3985   25.4494   46.0013 C   0  0  0  0  0  0  0  0  0  0  0  0
   55.2181   26.1571   46.1912 O   0  0  0  0  0  0  0  0  0  0  0  0
   58.8960   32.1077   48.3264 C   0  0  0  0  0  0  0  0  0  0  0  0
   58.4201   31.4331   49.2827 O   0  0  0  0  0  0  0  0  0  0  0  0
   57.6551   34.3979   44.7278 O   0  0  0  0  0  0  0  0  0  0  0  0
   58.5103   33.5898   45.5022 C   0  0  0  0  0  0  0  0  0  0  0  0
   57.8135   32.3953   46.1456 C   0  0  0  0  0  0  0  0  0  0  0  0
   58.0267   32.9241   47.5033 N   0  0  0  0  0  0  0  0  0  0  0  0
   58.7077   34.0926   46.9294 C   0  0  0  0  0  0  0  0  0  0  0  0
   57.5745   34.0225   43.8370 H   0  0  0  0  0  0  0  0  0  0  0  0
   58.7893   33.4932   47.2507 H   0  0  0  0  0  0  0  0  0  0  0  0
 26 25  1  0
 26 27  1  0
 27 28  1  0
 28 23  1  0
 23 24  2  0
 23  1  1  0
  1  2  2  0
  2  3  1  0
  3  4  1  0
  3  5  2  0
  5  6  1  0
  6  7  2  0
  7  8  1  0
  8  9  1  0
  9 10  1  0
  9 11  2  0
 11 12  1  0
 12 13  2  0
 13 16  1  0
 16 17  1  0
 17 18  1  0
 18 19  2  0
 18 20  1  0
 20 21  1  0
 21 22  1  0
 12 14  1  0
 14 15  2  0
 28 29  1  0
 29 26  1  0
  7  1  1  0
 14  8  1  0
 21 16  2  0
 25 30  1  0
 28 31  1  0
M  CHG 1  17  -1
M  CHG 1  20  -1
M  CHG 1  22  -1
M  CHG 1  28   1
M  END
> <UniqueID>
77

> <SMILES>
C=c1/c(=C\c2[n-]c(=O)[n-]c2[O-])cc(C)n1-c1ccc(F)cc1C(=O)[NH+]1CC(O)C1

> <Energy>
205.38482441954048

> <Genealogy>
C=c1c(=Cc2[n-]c(=O)[n-]c2[O-])cc(C)n1-c1ccc(F)cc1C(=O)[NH+]1CC(O)C1 (protonated)
C=c1/c(=C\c2[n-]c(=O)[n-]c2[O-])cc(C)n1-c1ccc(F)cc1C(=O)[NH+]1CC(O)C1 (cis-trans isomerization)
C=c1/c(=C\c2[n-]c(=O)[n-]c2[O-])cc(C)n1-c1ccc(F)cc1C(=O)[NH+]1CC(O)C1 (3D coordinates assigned)
C=c1/c(=C\c2[n-]c(=O)[n-]c2[O-])cc(C)n1-c1ccc(F)cc1C(=O)[NH+]1CC(O)C1 (nonaromatic ring conformer: 205.38482441954048 kcal/mol)

> <smiles>
C=c1c(=Cc2[nH]c(=O)[nH]c2O)cc(C)n1-c1ccc(F)cc1C(=O)N1CC(O)C1

> <score_type>
oracle

> <origin>
adg

> <m_score__min__energy>
-14.220000000000001

> <m_primary>
energy

> <minimizedAffinity>
-7.65592

> <minimizedRMSD>
0.90735

> <CNNscore>
0.1089712083

> <CNNaffinity>
6.1921572685

> <CNN_VS>
0.6747668386

> <CNNaffinity_variance>
0.0180722252

$$$$
86:0


 32 35  0  0  0  0  0  0  0  0999 V2000
   59.4577   26.7006   47.1096 C   0  0  0  0  0  0  0  0  0  0  0  0
   58.8578   27.5117   46.2229 C   0  0  0  0  0  0  0  0  0  0  0  0
   58.0742   27.1178   45.1341 C   0  0  0  0  0  0  0  0  0  0  0  0
   57.7649   25.8602   44.7599 C   0  0  0  0  0  0  0  0  0  0  0  0
   57.6347   28.2844   44.5247 C   0  0  0  0  0  0  0  0  0  0  0  0
   58.1732   29.3330   45.2435 C   0  0  0  0  0  0  0  0  0  0  0  0
   57.9674   30.7822   44.9229 C   0  0  0  0  0  0  0  0  0  0  0  0
   58.9120   28.8662   46.2757 N   0  0  0  0  0  0  0  0  0  0  0  0
   57.2550   24.8308   45.6944 C   0  0  0  0  0  0  0  0  0  0  0  0
   56.0051   24.9610   46.3264 C   0  0  0  0  0  0  0  0  0  0  0  0
   55.2036   26.0747   46.0985 O   0  0  0  0  0  0  0  0  0  0  0  0
   55.5584   23.9811   47.1518 N   0  0  0  0  0  0  0  0  0  0  0  0
   56.2909   22.8587   47.3701 C   0  0  0  0  0  0  0  0  0  0  0  0
   55.8568   21.9655   48.1418 O   0  0  0  0  0  0  0  0  0  0  0  0
   57.4868   22.6970   46.7500 N   0  0  0  0  0  0  0  0  0  0  0  0
   57.9807   23.6487   45.9149 C   0  0  0  0  0  0  0  0  0  0  0  0
   59.0936   23.4619   45.3550 O   0  0  0  0  0  0  0  0  0  0  0  0
   59.6528   29.6722   47.2099 C   0  0  0  0  0  0  0  0  0  0  0  0
   59.1842   29.8652   48.5142 C   0  0  0  0  0  0  0  0  0  0  0  0
   59.8900   30.6342   49.3852 N   0  0  0  0  0  0  0  0  0  0  0  0
   61.0629   31.2355   49.0391 C   0  0  0  0  0  0  0  0  0  0  0  0
   61.5502   31.0836   47.7304 C   0  0  0  0  0  0  0  0  0  0  0  0
   60.8435   30.2970   46.8197 C   0  0  0  0  0  0  0  0  0  0  0  0
   61.7561   32.0530   50.0024 N   0  0  0  0  0  0  0  0  0  0  0  0
   62.1811   33.4044   49.6238 C   0  0  0  0  0  0  0  0  0  0  0  0
   63.0950   34.0105   50.6962 C   0  0  0  0  0  0  0  0  0  0  0  0
   64.0366   32.9742   51.1786 N   0  0  0  0  0  0  0  0  0  0  0  0
   63.3032   31.9125   51.9262 C   0  0  0  0  0  0  0  0  0  0  0  0
   61.8742   31.6546   51.4089 C   0  0  0  0  0  0  0  0  0  0  0  0
   65.1523   33.5457   51.9931 C   0  0  0  0  0  0  0  0  0  0  0  0
   64.8532   34.9958   52.4328 C   0  0  0  0  0  0  0  0  0  0  0  0
   66.4768   33.5612   51.1961 C   0  0  0  0  0  0  0  0  0  0  0  0
  1  2  2  0
  2  3  1  0
  3  4  2  0
  4  9  1  0
  9 10  2  0
 10 11  1  0
 10 12  1  0
 12 13  1  0
 13 14  2  0
 13 15  1  0
 15 16  1  0
 16 17  2  0
  3  5  1  0
  5  6  2  0
  6  7  1  0
  6  8  1  0
  8 18  1  0
 18 19  2  0
 19 20  1  0
 20 21  2  0
 21 24  1  0
 24 25  1  0
 25 26  1  0
 26 27  1  0
 27 30  1  0
 30 31  1  0
 30 32  1  0
 27 28  1  0
 28 29  1  0
 21 22  1  0
 22 23  2  0
  8  2  1  0
 23 18  1  0
 16  9  1  0
 29 24  1  0
M  CHG 1  11  -1
M  CHG 1  12  -1
M  CHG 1  15  -1
M  END
> <UniqueID>
82

> <SMILES>
C=c1/c(=C/c2c([O-])[n-]c(=O)[n-]c2=O)cc(C)n1-c1ccc(N2CCN(C(C)C)CC2)nc1

> <Energy>
117.34224291713343

> <Genealogy>
C=c1c(=Cc2c([O-])[n-]c(=O)[n-]c2=O)cc(C)n1-c1ccc(N2CCN(C(C)C)CC2)nc1 (protonated)
C=c1/c(=C/c2c([O-])[n-]c(=O)[n-]c2=O)cc(C)n1-c1ccc(N2CCN(C(C)C)CC2)nc1 (cis-trans isomerization)
C=c1/c(=C/c2c([O-])[n-]c(=O)[n-]c2=O)cc(C)n1-c1ccc(N2CCN(C(C)C)CC2)nc1 (3D coordinates assigned)
C=c1/c(=C/c2c([O-])[n-]c(=O)[n-]c2=O)cc(C)n1-c1ccc(N2CCN(C(C)C)CC2)nc1 (nonaromatic ring conformer: 117.34224291713343 kcal/mol)

> <smiles>
C=c1c(=Cc2c(O)[nH]c(=O)[nH]c2=O)cc(C)n1-c1ccc(N2CCN(C(C)C)CC2)nc1

> <score_type>
oracle

> <origin>
adg

> <m_score__min__energy>
-15.76

> <m_primary>
energy

> <minimizedAffinity>
-8.67758

> <minimizedRMSD>
1.23592

> <CNNscore>
0.0973558947

> <CNNaffinity>
6.1059412956

> <CNN_VS>
0.5944494009

> <CNNaffinity_variance>
0.1642815024

$$$$
1:0


 27 29  0  0  0  0  0  0  0  0999 V2000
   56.8788   29.1916   44.8404 C   0  0  0  0  0  0  0  0  0  0  0  0
   55.6701   29.4149   44.5661 O   0  0  0  0  0  0  0  0  0  0  0  0
   58.9421   26.2180   45.9449 N   0  0  0  0  0  0  0  0  0  0  0  0
   57.9473   25.3615   46.3461 C   0  0  0  0  0  0  0  0  0  0  0  0
   58.2245   24.2108   46.7817 O   0  0  0  0  0  0  0  0  0  0  0  0
   56.6484   25.7420   46.2794 N   0  0  0  0  0  0  0  0  0  0  0  0
   56.2839   26.9601   45.8153 C   0  0  0  0  0  0  0  0  0  0  0  0
   54.9343   27.2836   45.7458 O   0  0  0  0  0  0  0  0  0  0  0  0
   57.2644   27.8666   45.3930 C   0  0  0  0  0  0  0  0  0  0  0  0
   58.6149   27.4769   45.5003 C   0  0  0  0  0  0  0  0  0  0  0  0
   59.5241   28.2948   45.1889 O   0  0  0  0  0  0  0  0  0  0  0  0
   60.3529   25.7862   46.0157 C   0  0  0  0  0  0  0  0  0  0  0  0
   60.4809   26.9467   48.2053 C   0  0  0  0  0  0  0  0  0  0  0  0
   61.0877   26.5418   47.0878 C   0  0  0  0  0  0  0  0  0  0  0  0
   57.8283   30.2587   44.6698 N   0  0  0  0  0  0  0  0  0  0  0  0
   58.2401   31.0805   45.5918 C   0  0  0  0  0  0  0  0  0  0  0  0
   58.5478   30.6623   46.8394 N   0  0  0  0  0  0  0  0  0  0  0  0
   58.9966   31.6825   47.6174 C   0  0  0  0  0  0  0  0  0  0  0  0
   59.0244   32.9259   46.9924 C   0  0  0  0  0  0  0  0  0  0  0  0
   58.4816   32.7420   45.4125 S   0  0  0  0  0  0  0  0  0  0  0  0
   59.6384   34.1734   47.5418 C   0  0  0  0  0  0  0  0  0  0  0  0
   61.0513   33.8892   47.9726 C   0  0  0  0  0  0  0  0  0  0  0  0
   62.0350   33.5846   47.0174 C   0  0  0  0  0  0  0  0  0  0  0  0
   63.3643   33.3936   47.4113 C   0  0  0  0  0  0  0  0  0  0  0  0
   63.7215   33.5171   48.7569 C   0  0  0  0  0  0  0  0  0  0  0  0
   62.7497   33.8311   49.7123 C   0  0  0  0  0  0  0  0  0  0  0  0
   61.4206   34.0198   49.3237 C   0  0  0  0  0  0  0  0  0  0  0  0
 13 14  2  0
 14 12  1  0
 12  3  1  0
  3  4  1  0
  4  5  2  0
  4  6  1  0
  6  7  1  0
  7  8  1  0
  7  9  2  0
  9  1  1  0
  1  2  2  0
  1 15  1  0
 15 16  2  0
 16 17  1  0
 17 18  1  0
 18 19  2  0
 19 21  1  0
 21 22  1  0
 22 23  2  0
 23 24  1  0
 24 25  2  0
 25 26  1  0
 26 27  2  0
 19 20  1  0
  9 10  1  0
 10 11  2  0
 10  3  1  0
 20 16  1  0
 27 22  1  0
M  CHG 1   6  -1
M  CHG 1   8  -1
M  CHG 1  17  -1
M  END
> <UniqueID>
1

> <SMILES>
C=CCn1c(=O)[n-]c([O-])c(C(=O)N=c2[n-]cc(Cc3ccccc3)s2)c1=O

> <Energy>
82.38239348927623

> <Genealogy>
C=CCn1c(=O)[n-]c([O-])c(C(=O)N=c2[n-]cc(Cc3ccccc3)s2)c1=O (protonated)
C=CCn1c(=O)[n-]c([O-])c(C(=O)N=c2[n-]cc(Cc3ccccc3)s2)c1=O (3D coordinates assigned)
C=CCn1c(=O)[n-]c([O-])c(C(=O)N=c2[n-]cc(Cc3ccccc3)s2)c1=O (optimized conformer: 82.38239348927623 kcal/mol)

> <smiles>
C=CCn1c(=O)[nH]c(O)c(C(=O)N=c2[nH]cc(Cc3ccccc3)s2)c1=O

> <score_type>
oracle

> <origin>
adg

> <m_score__min__energy>
-16.329999999999998

> <m_primary>
energy

> <minimizedAffinity>
-4.29173

> <minimizedRMSD>
0.66643

> <CNNscore>
0.6466825008

> <CNNaffinity>
6.8097891808

> <CNN_VS>
4.4037714005

> <CNNaffinity_variance>
0.3250703812

$$$$
5:0


 40 43  0  0  0  0  0  0  0  0999 V2000
   59.0839   32.1124   46.6016 C   0  0  0  0  0  0  0  0  0  0  0  0
   58.1424   33.0316   46.1177 C   0  0  0  0  0  0  0  0  0  0  0  0
   58.4618   34.3878   46.0217 C   0  0  0  0  0  0  0  0  0  0  0  0
   59.7282   34.8373   46.3997 C   0  0  0  0  0  0  0  0  0  0  0  0
   60.6763   33.9348   46.8850 C   0  0  0  0  0  0  0  0  0  0  0  0
   60.3606   32.5724   47.0066 C   0  0  0  0  0  0  0  0  0  0  0  0
   57.7766   27.5118   45.3441 C   0  0  0  0  0  0  0  0  0  0  0  0
   58.1658   28.6210   46.0045 C   0  0  0  0  0  0  0  0  0  0  0  0
   58.3929   28.6286   47.3695 C   0  0  0  0  0  0  0  0  0  0  0  0
   58.7421   29.9161   47.7155 C   0  0  0  0  0  0  0  0  0  0  0  0
   58.9330   30.3848   49.1260 C   0  0  0  0  0  0  0  0  0  0  0  0
   58.7571   30.7087   46.6204 N   0  0  0  0  0  0  0  0  0  0  0  0
   58.3910   29.9374   45.5623 C   0  0  0  0  0  0  0  0  0  0  0  0
   58.2468   30.4217   44.3170 C   0  0  0  0  0  0  0  0  0  0  0  0
   55.1125   26.4945   45.9598 O   0  0  0  0  0  0  0  0  0  0  0  0
   56.2437   25.7261   46.2344 C   0  0  0  0  0  0  0  0  0  0  0  0
   56.0787   24.4976   46.7906 N   0  0  0  0  0  0  0  0  0  0  0  0
   57.1422   23.7033   47.0768 C   0  0  0  0  0  0  0  0  0  0  0  0
   56.9592   22.5699   47.5931 O   0  0  0  0  0  0  0  0  0  0  0  0
   58.4024   24.1275   46.8021 N   0  0  0  0  0  0  0  0  0  0  0  0
   58.6260   25.3462   46.2474 C   0  0  0  0  0  0  0  0  0  0  0  0
   59.8091   25.7067   45.9993 O   0  0  0  0  0  0  0  0  0  0  0  0
   57.5432   26.1929   45.9563 C   0  0  0  0  0  0  0  0  0  0  0  0
   54.2596   26.1592   46.1551 H   0  0  0  0  0  0  0  0  0  0  0  0
   61.3769   31.6463   47.5435 C   0  0  0  0  0  0  0  0  0  0  0  0
   61.6206   30.5752   46.9227 O   0  0  0  0  0  0  0  0  0  0  0  0
   62.0890   31.9515   48.7554 N   0  0  0  0  0  0  0  0  0  0  0  0
   62.6075   33.3152   48.9430 C   0  0  0  0  0  0  0  0  0  0  0  0
   63.4162   33.4433   50.2375 C   0  0  0  0  0  0  0  0  0  0  0  0
   62.6650   32.7704   51.3901 C   0  0  0  0  0  0  0  0  0  0  0  0
   62.4408   31.2610   51.1212 C   0  0  0  0  0  0  0  0  0  0  0  0
   62.5280   30.8624   49.6367 C   0  0  0  0  0  0  0  0  0  0  0  0
   63.4136   32.9665   52.6293 N   0  0  0  0  0  0  0  0  0  0  0  0
   64.6538   32.3187   52.9190 C   0  0  0  0  0  0  0  0  0  0  0  0
   64.6592   31.1783   53.4586 O   0  0  0  0  0  0  0  0  0  0  0  0
   65.8496   32.9700   52.5831 O   0  0  0  0  0  0  0  0  0  0  0  0
   66.9048   32.4429   51.7648 C   0  0  0  0  0  0  0  0  0  0  0  0
   66.3712   31.3478   50.8240 C   0  0  0  0  0  0  0  0  0  0  0  0
   67.5838   33.5681   50.9615 C   0  0  0  0  0  0  0  0  0  0  0  0
   67.9396   31.8183   52.7131 C   0  0  0  0  0  0  0  0  0  0  0  0
 15 16  1  0
 16 17  1  0
 17 18  1  0
 18 19  2  0
 18 20  1  0
 20 21  1  0
 21 22  2  0
 21 23  1  0
 23  7  1  0
  7  8  2  0
  8  9  1  0
  9 10  2  0
 10 11  1  0
 10 12  1  0
 12  1  1  0
  1  2  2  0
  2  3  1  0
  3  4  2  0
  4  5  1  0
  5  6  2  0
  6 25  1  0
 25 26  2  0
 25 27  1  0
 27 28  1  0
 28 29  1  0
 29 30  1  0
 30 33  1  0
 33 34  1  0
 34 35  2  0
 34 36  1  0
 36 37  1  0
 37 38  1  0
 37 39  1  0
 37 40  1  0
 30 31  1  0
 31 32  1  0
 12 13  1  0
 13 14  2  0
 23 16  2  0
 13  8  1  0
  6  1  1  0
 32 27  1  0
 15 24  1  0
M  CHG 1  17  -1
M  CHG 1  20  -1
M  CHG 1  33  -1
M  END
> <UniqueID>
5

> <SMILES>
C=c1/c(=C\c2c(O)[n-]c(=O)[n-]c2=O)cc(C)n1-c1ccccc1C(=O)N1CCC([N-]C(=O)OC(C)(C)C)CC1

> <Energy>
118.40548738228857

> <Genealogy>
C=c1c(=Cc2c(O)[n-]c(=O)[n-]c2=O)cc(C)n1-c1ccccc1C(=O)N1CCC([N-]C(=O)OC(C)(C)C)CC1 (protonated)
C=c1/c(=C\c2c(O)[n-]c(=O)[n-]c2=O)cc(C)n1-c1ccccc1C(=O)N1CCC([N-]C(=O)OC(C)(C)C)CC1 (cis-trans isomerization)
C=c1/c(=C\c2c(O)[n-]c(=O)[n-]c2=O)cc(C)n1-c1ccccc1C(=O)N1CCC([N-]C(=O)OC(C)(C)C)CC1 (3D coordinates assigned)
C=c1/c(=C\c2c(O)[n-]c(=O)[n-]c2=O)cc(C)n1-c1ccccc1C(=O)N1CCC([N-]C(=O)OC(C)(C)C)CC1 (nonaromatic ring conformer: 118.40548738228857 kcal/mol)

> <smiles>
C=c1c(=Cc2c(O)[nH]c(=O)[nH]c2=O)cc(C)n1-c1ccccc1C(=O)N1CCC(NC(=O)OC(C)(C)C)CC1

> <score_type>
oracle

> <origin>
adg

> <m_score__min__energy>
-15.109999999999999

> <m_primary>
energy

> <minimizedAffinity>
-8.73520

> <minimizedRMSD>
0.86439

> <CNNscore>
0.2845598161

> <CNNaffinity>
6.9972348213

> <CNN_VS>
1.9911319017

> <CNNaffinity_variance>
0.3963747323

$$$$
9:0


 26 28  0  0  0  0  0  0  0  0999 V2000
   54.6822   27.9700   53.6566 C   0  0  0  0  0  0  0  0  0  0  0  0
   55.4915   28.9898   53.3339 C   0  0  0  0  0  0  0  0  0  0  0  0
   56.8291   28.7582   53.4321 N   0  0  0  0  0  0  0  0  0  0  0  0
   57.7743   29.6114   52.9607 C   0  0  0  0  0  0  0  0  0  0  0  0
   59.2188   29.2355   53.1211 C   0  0  0  0  0  0  0  0  0  0  0  0
   57.3750   30.7813   52.2899 C   0  0  0  0  0  0  0  0  0  0  0  0
   56.0080   31.0677   52.2001 C   0  0  0  0  0  0  0  0  0  0  0  0
   55.0381   30.2273   52.7815 C   0  0  0  0  0  0  0  0  0  0  0  0
   53.7571   30.6781   52.7881 C   0  0  0  0  0  0  0  0  0  0  0  0
   58.3505   31.7354   51.7127 C   0  0  0  0  0  0  0  0  0  0  0  0
   58.5395   32.8408   52.2870 O   0  0  0  0  0  0  0  0  0  0  0  0
   59.0495   31.4404   50.4857 N   0  0  0  0  0  0  0  0  0  0  0  0
   59.4735   30.0610   50.1837 C   0  0  0  0  0  0  0  0  0  0  0  0
   58.9470   29.6128   48.8189 C   0  0  0  0  0  0  0  0  0  0  0  0
   59.4627   30.7653   47.5613 S   0  0  0  0  0  0  0  0  0  0  0  0
   58.2690   31.2300   46.7740 O   0  0  0  0  0  0  0  0  0  0  0  0
   60.4501   30.1116   46.6360 O   0  0  0  0  0  0  0  0  0  0  0  0
   60.2266   32.1513   48.3754 C   0  0  0  0  0  0  0  0  0  0  0  0
   59.4052   32.5685   49.6013 C   0  0  0  0  0  0  0  0  0  0  0  0
   52.8057   30.6268   51.6629 C   0  0  0  0  0  0  0  0  0  0  0  0
   52.9289   29.7785   50.6265 N   0  0  0  0  0  0  0  0  0  0  0  0
   51.9294   30.1494   49.7979 C   0  0  0  0  0  0  0  0  0  0  0  0
   51.7040   29.5673   48.7050 O   0  0  0  0  0  0  0  0  0  0  0  0
   51.1952   31.1980   50.2280 N   0  0  0  0  0  0  0  0  0  0  0  0
   51.7713   31.4985   51.4020 C   0  0  0  0  0  0  0  0  0  0  0  0
   51.3791   32.5648   52.2015 O   0  0  0  0  0  0  0  0  0  0  0  0
  1  2  2  0
  2  3  1  0
  3  4  2  0
  4  5  1  0
  4  6  1  0
  6 10  1  0
 10 11  2  0
 10 12  1  0
 12 13  1  0
 13 14  1  0
 14 15  1  0
 15 16  2  0
 15 17  2  0
 15 18  1  0
 18 19  1  0
  6  7  2  0
  7  8  1  0
  8  9  2  0
  9 20  1  0
 20 21  1  0
 21 22  1  0
 22 23  2  0
 22 24  1  0
 24 25  1  0
 25 26  1  0
  8  2  1  0
 25 20  2  0
 19 12  1  0
M  CHG 1  21  -1
M  CHG 1  24  -1
M  CHG 1  26  -1
M  END
> <UniqueID>
9

> <SMILES>
C=c1nc(C)c(C(=O)N2CCS(=O)(=O)CC2)cc1=Cc1[n-]c(=O)[n-]c1[O-]

> <Energy>
93.58530849217091

> <Genealogy>
C=c1nc(C)c(C(=O)N2CCS(=O)(=O)CC2)cc1=Cc1[n-]c(=O)[n-]c1[O-] (protonated)
C=c1nc(C)c(C(=O)N2CCS(=O)(=O)CC2)cc1=Cc1[n-]c(=O)[n-]c1[O-] (3D coordinates assigned)
C=c1nc(C)c(C(=O)N2CCS(=O)(=O)CC2)cc1=Cc1[n-]c(=O)[n-]c1[O-] (nonaromatic ring conformer: 93.58530849217091 kcal/mol)

> <smiles>
C=c1nc(C)c(C(=O)N2CCS(=O)(=O)CC2)cc1=Cc1[nH]c(=O)[nH]c1O

> <score_type>
oracle

> <origin>
adg

> <m_score__min__energy>
-16.870000000000001

> <m_primary>
energy

> <minimizedAffinity>
-6.26981

> <minimizedRMSD>
0.70687

> <CNNscore>
0.0677546859

> <CNNaffinity>
4.7145476341

> <CNN_VS>
0.3194327056

> <CNNaffinity_variance>
0.0985060260

$$$$
14:0


 26 28  0  0  0  0  0  0  0  0999 V2000
   60.0461   32.2902   54.6498 C   0  0  0  0  0  0  0  0  0  0  0  0
   58.7358   31.5584   54.7838 C   0  0  0  0  0  0  0  0  0  0  0  0
   58.3857   30.9928   56.0195 C   0  0  0  0  0  0  0  0  0  0  0  0
   57.1611   30.3471   56.1815 C   0  0  0  0  0  0  0  0  0  0  0  0
   56.2758   30.2452   55.1089 C   0  0  0  0  0  0  0  0  0  0  0  0
   56.6117   30.7760   53.8593 C   0  0  0  0  0  0  0  0  0  0  0  0
   57.8367   31.4636   53.6933 C   0  0  0  0  0  0  0  0  0  0  0  0
   58.1460   32.1565   52.4232 C   0  0  0  0  0  0  0  0  0  0  0  0
   57.8309   33.3711   52.3082 O   0  0  0  0  0  0  0  0  0  0  0  0
   58.7180   31.4469   51.3018 N   0  0  0  0  0  0  0  0  0  0  0  0
   59.1355   30.0465   51.4623 C   0  0  0  0  0  0  0  0  0  0  0  0
   60.0301   29.6005   50.3054 C   0  0  0  0  0  0  0  0  0  0  0  0
   59.4408   29.9286   49.0658 O   0  0  0  0  0  0  0  0  0  0  0  0
   59.4196   31.3334   48.9199 C   0  0  0  0  0  0  0  0  0  0  0  0
   58.4900   31.9812   49.9503 C   0  0  0  0  0  0  0  0  0  0  0  0
   55.6637   30.6564   52.7918 N   0  0  0  0  0  0  0  0  0  0  0  0
   54.5043   29.8196   52.8468 C   0  0  0  0  0  0  0  0  0  0  0  0
   54.6044   28.5746   52.6776 O   0  0  0  0  0  0  0  0  0  0  0  0
   53.1691   30.4266   53.1279 C   0  0  0  0  0  0  0  0  0  0  0  0
   52.4422   30.6868   51.8476 C   0  0  0  0  0  0  0  0  0  0  0  0
   52.5130   29.7134   50.4741 S   0  0  0  0  0  0  0  0  0  0  0  0
   51.4430   30.6950   49.6256 C   0  0  0  0  0  0  0  0  0  0  0  0
   51.0754   30.4816   48.4417 O   0  0  0  0  0  0  0  0  0  0  0  0
   51.0096   31.7446   50.3540 N   0  0  0  0  0  0  0  0  0  0  0  0
   51.5612   31.7358   51.5956 C   0  0  0  0  0  0  0  0  0  0  0  0
   51.2571   32.7108   52.5362 O   0  0  0  0  0  0  0  0  0  0  0  0
  1  2  1  0
  2  3  2  0
  3  4  1  0
  4  5  2  0
  5  6  1  0
  6 16  1  0
 16 17  1  0
 17 18  2  0
 17 19  1  0
 19 20  1  0
 20 21  1  0
 21 22  1  0
 22 23  2  0
 22 24  1  0
 24 25  1  0
 25 26  1  0
  6  7  2  0
  7  8  1  0
  8  9  2  0
  8 10  1  0
 10 11  1  0
 11 12  1  0
 12 13  1  0
 13 14  1  0
 14 15  1  0
  7  2  1  0
 15 10  1  0
 25 20  2  0
M  CHG 1  16  -1
M  CHG 1  24  -1
M  CHG 1  26  -1
M  END
> <UniqueID>
13

> <SMILES>
Cc1cccc([N-]C(=O)Cc2sc(=O)[n-]c2[O-])c1C(=O)N1CCOCC1

> <Energy>
84.60108092773164

> <Genealogy>
Cc1cccc([N-]C(=O)Cc2sc(=O)[n-]c2[O-])c1C(=O)N1CCOCC1 (protonated)
Cc1cccc([N-]C(=O)Cc2sc(=O)[n-]c2[O-])c1C(=O)N1CCOCC1 (3D coordinates assigned)
Cc1cccc([N-]C(=O)Cc2sc(=O)[n-]c2[O-])c1C(=O)N1CCOCC1 (nonaromatic ring conformer: 84.60108092773164 kcal/mol)

> <smiles>
Cc1cccc(NC(=O)Cc2sc(=O)[nH]c2O)c1C(=O)N1CCOCC1

> <score_type>
oracle

> <origin>
adg

> <m_score__min__energy>
-15.640000000000001

> <m_primary>
energy

> <minimizedAffinity>
-3.37763

> <minimizedRMSD>
0.96437

> <CNNscore>
0.1208442003

> <CNNaffinity>
4.6723723412

> <CNN_VS>
0.5646290779

> <CNNaffinity_variance>
0.0862232149

$$$$
22:0


 34 38  0  0  0  0  0  0  0  0999 V2000
   60.8095   29.1725   52.9697 C   0  0  0  0  0  0  0  0  0  0  0  0
   62.1021   29.4778   52.5615 C   0  0  0  0  0  0  0  0  0  0  0  0
   62.2079   29.7267   51.1875 C   0  0  0  0  0  0  0  0  0  0  0  0
   60.9923   29.6245   50.5118 C   0  0  0  0  0  0  0  0  0  0  0  0
   59.8006   29.2123   51.6257 S   0  0  0  0  0  0  0  0  0  0  0  0
   60.7524   29.8206   49.0662 C   0  0  0  0  0  0  0  0  0  0  0  0
   60.5807   28.7980   48.3437 O   0  0  0  0  0  0  0  0  0  0  0  0
   60.7574   31.1411   48.4642 N   0  0  0  0  0  0  0  0  0  0  0  0
   60.1009   31.1089   47.1287 C   0  0  0  0  0  0  0  0  0  0  0  0
   58.6883   31.7192   47.1392 C   0  0  0  0  0  0  0  0  0  0  0  0
   58.6725   33.1082   47.6614 N   0  0  0  0  0  0  0  0  0  0  0  0
   59.7415   33.4051   48.6512 C   0  0  0  0  0  0  0  0  0  0  0  0
   60.1725   32.1362   49.3961 C   0  0  0  0  0  0  0  0  0  0  0  0
   61.5870   30.6872   48.1903 H   0  0  0  0  0  0  0  0  0  0  0  0
   58.4348   34.1080   46.5837 C   0  0  0  0  0  0  0  0  0  0  0  0
   57.6643   33.6162   45.3748 C   0  0  0  0  0  0  0  0  0  0  0  0
   58.7665   33.8029   44.5156 O   0  0  0  0  0  0  0  0  0  0  0  0
   59.5543   34.2899   45.5765 C   0  0  0  0  0  0  0  0  0  0  0  0
   60.3700   28.9266   54.3799 C   0  0  0  0  0  0  0  0  0  0  0  0
   57.7240   27.4956   54.2319 C   0  0  0  0  0  0  0  0  0  0  0  0
   57.8335   28.7970   54.5478 C   0  0  0  0  0  0  0  0  0  0  0  0
   56.7759   29.7068   54.7220 C   0  0  0  0  0  0  0  0  0  0  0  0
   55.4466   29.5144   54.8204 C   0  0  0  0  0  0  0  0  0  0  0  0
   57.3533   30.9613   54.7977 C   0  0  0  0  0  0  0  0  0  0  0  0
   58.7169   30.7805   54.7382 C   0  0  0  0  0  0  0  0  0  0  0  0
   59.7182   31.8955   54.7860 C   0  0  0  0  0  0  0  0  0  0  0  0
   59.0181   29.4670   54.5972 N   0  0  0  0  0  0  0  0  0  0  0  0
   54.4486   29.8891   53.8046 C   0  0  0  0  0  0  0  0  0  0  0  0
   54.6320   29.7828   52.4751 N   0  0  0  0  0  0  0  0  0  0  0  0
   53.4188   30.0976   51.9678 C   0  0  0  0  0  0  0  0  0  0  0  0
   53.1871   30.1241   50.7301 O   0  0  0  0  0  0  0  0  0  0  0  0
   52.4718   30.3711   52.8913 N   0  0  0  0  0  0  0  0  0  0  0  0
   53.1382   30.2203   54.0485 C   0  0  0  0  0  0  0  0  0  0  0  0
   52.5588   30.3766   55.3019 O   0  0  0  0  0  0  0  0  0  0  0  0
 20 21  2  0
 21 22  1  0
 22 23  2  0
 23 28  1  0
 28 29  1  0
 29 30  1  0
 30 31  2  0
 30 32  1  0
 32 33  1  0
 33 34  1  0
 22 24  1  0
 24 25  2  0
 25 26  1  0
 25 27  1  0
 27 19  1  0
 19  1  1  0
  1  2  2  0
  2  3  1  0
  3  4  2  0
  4  6  1  0
  6  7  2  0
  6  8  1  0
  8  9  1  0
  9 10  1  0
 10 11  1  0
 11 15  1  0
 15 16  1  0
 16 17  1  0
 17 18  1  0
 11 12  1  0
 12 13  1  0
  4  5  1  0
 27 21  1  0
  5  1  1  0
 33 28  2  0
 13  8  1  0
 18 15  1  0
  8 14  1  0
M  CHG 1   8   1
M  CHG 1  29  -1
M  CHG 1  32  -1
M  CHG 1  34  -1
M  END
> <UniqueID>
21

> <SMILES>
C=c1c(=Cc2[n-]c(=O)[n-]c2[O-])cc(C)n1Cc1ccc(C(=O)[NH+]2CCN(C3COC3)CC2)s1

> <Energy>
242.26656801815346

> <Genealogy>
C=c1c(=Cc2[n-]c(=O)[n-]c2[O-])cc(C)n1Cc1ccc(C(=O)[NH+]2CCN(C3COC3)CC2)s1 (protonated)
C=c1c(=Cc2[n-]c(=O)[n-]c2[O-])cc(C)n1Cc1ccc(C(=O)[NH+]2CCN(C3COC3)CC2)s1 (3D coordinates assigned)
C=c1c(=Cc2[n-]c(=O)[n-]c2[O-])cc(C)n1Cc1ccc(C(=O)[NH+]2CCN(C3COC3)CC2)s1 (nonaromatic ring conformer: 242.26656801815346 kcal/mol)

> <smiles>
C=c1c(=Cc2[nH]c(=O)[nH]c2O)cc(C)n1Cc1ccc(C(=O)N2CCN(C3COC3)CC2)s1

> <score_type>
oracle

> <origin>
adg

> <m_score__min__energy>
-16.98

> <m_primary>
energy

> <minimizedAffinity>
-6.23576

> <minimizedRMSD>
2.62599

> <CNNscore>
0.0420358181

> <CNNaffinity>
4.7989997864

> <CNN_VS>
0.2017298788

> <CNNaffinity_variance>
0.9458436966

$$$$
23:0


 38 41  0  0  0  0  0  0  0  0999 V2000
   61.6926   32.6170   48.1215 C   0  0  0  0  0  0  0  0  0  0  0  0
   60.8693   33.3732   48.9730 C   0  0  0  0  0  0  0  0  0  0  0  0
   59.4810   33.2251   48.9321 C   0  0  0  0  0  0  0  0  0  0  0  0
   58.8972   32.3145   48.0497 C   0  0  0  0  0  0  0  0  0  0  0  0
   59.7022   31.5412   47.2039 C   0  0  0  0  0  0  0  0  0  0  0  0
   61.0961   31.6934   47.2417 C   0  0  0  0  0  0  0  0  0  0  0  0
   59.1060   30.5935   46.3000 N   0  0  0  0  0  0  0  0  0  0  0  0
   58.3447   30.8997   45.2260 C   0  0  0  0  0  0  0  0  0  0  0  0
   57.9766   32.2881   44.7988 C   0  0  0  0  0  0  0  0  0  0  0  0
   57.9353   29.7492   44.5835 C   0  0  0  0  0  0  0  0  0  0  0  0
   58.5018   28.6843   45.2655 C   0  0  0  0  0  0  0  0  0  0  0  0
   58.3598   27.4056   44.8627 C   0  0  0  0  0  0  0  0  0  0  0  0
   59.1960   29.2385   46.3551 C   0  0  0  0  0  0  0  0  0  0  0  0
   59.7589   28.5807   47.3809 C   0  0  0  0  0  0  0  0  0  0  0  0
   57.9344   26.2792   45.7175 C   0  0  0  0  0  0  0  0  0  0  0  0
   56.5935   26.1226   46.1058 C   0  0  0  0  0  0  0  0  0  0  0  0
   55.6173   27.0075   45.6639 O   0  0  0  0  0  0  0  0  0  0  0  0
   56.2414   25.0988   46.9266 N   0  0  0  0  0  0  0  0  0  0  0  0
   57.1703   24.2291   47.3993 C   0  0  0  0  0  0  0  0  0  0  0  0
   56.8193   23.2868   48.1560 O   0  0  0  0  0  0  0  0  0  0  0  0
   58.4757   24.3767   47.0610 N   0  0  0  0  0  0  0  0  0  0  0  0
   58.8791   25.3827   46.2421 C   0  0  0  0  0  0  0  0  0  0  0  0
   60.1008   25.4941   45.9526 O   0  0  0  0  0  0  0  0  0  0  0  0
   63.1684   32.7764   48.1864 C   0  0  0  0  0  0  0  0  0  0  0  0
   63.7219   33.6009   47.4052 O   0  0  0  0  0  0  0  0  0  0  0  0
   64.7766   31.0979   52.9212 O   0  0  0  0  0  0  0  0  0  0  0  0
   64.5225   32.2469   52.1437 C   0  0  0  0  0  0  0  0  0  0  0  0
   63.0897   32.1597   51.5327 C   0  0  0  0  0  0  0  0  0  0  0  0
   63.0904   31.4181   50.1851 C   0  0  0  0  0  0  0  0  0  0  0  0
   63.9674   32.0610   49.1656 N   0  0  0  0  0  0  0  0  0  0  0  0
   65.0195   32.9464   49.7321 C   0  0  0  0  0  0  0  0  0  0  0  0
   65.6049   32.3629   51.0242 C   0  0  0  0  0  0  0  0  0  0  0  0
   64.1053   31.0237   53.6175 H   0  0  0  0  0  0  0  0  0  0  0  0
   63.6761   32.9661   49.4207 H   0  0  0  0  0  0  0  0  0  0  0  0
   64.6006   33.4634   53.0990 C   0  0  0  0  0  0  0  0  0  0  0  0
   65.9227   33.7736   53.3693 F   0  0  0  0  0  0  0  0  0  0  0  0
   63.9710   33.1667   54.2969 F   0  0  0  0  0  0  0  0  0  0  0  0
   63.9906   34.5743   52.5407 F   0  0  0  0  0  0  0  0  0  0  0  0
 27 26  1  0
 27 35  1  0
 35 36  1  0
 35 37  1  0
 35 38  1  0
 27 28  1  0
 28 29  1  0
 29 30  1  0
 30 24  1  0
 24 25  2  0
 24  1  1  0
  1  2  2  0
  2  3  1  0
  3  4  2  0
  4  5  1  0
  5  7  1  0
  7  8  1  0
  8  9  1  0
  8 10  2  0
 10 11  1  0
 11 12  2  0
 12 15  1  0
 15 16  2  0
 16 17  1  0
 16 18  1  0
 18 19  1  0
 19 20  2  0
 19 21  1  0
 21 22  1  0
 22 23  2  0
 11 13  1  0
 13 14  2  0
  5  6  2  0
 30 31  1  0
 31 32  1  0
 32 27  1  0
  6  1  1  0
 13  7  1  0
 22 15  1  0
 26 33  1  0
 30 34  1  0
M  CHG 1  17  -1
M  CHG 1  18  -1
M  CHG 1  21  -1
M  CHG 1  30   1
M  END
> <UniqueID>
22

> <SMILES>
C=c1/c(=C\c2c([O-])[n-]c(=O)[n-]c2=O)cc(C)n1-c1cccc(C(=O)[NH+]2CCC(O)(C(F)(F)F)CC2)c1

> <Energy>
124.43143017569766

> <Genealogy>
C=c1c(=Cc2c([O-])[n-]c(=O)[n-]c2=O)cc(C)n1-c1cccc(C(=O)[NH+]2CCC(O)(C(F)(F)F)CC2)c1 (protonated)
C=c1/c(=C\c2c([O-])[n-]c(=O)[n-]c2=O)cc(C)n1-c1cccc(C(=O)[NH+]2CCC(O)(C(F)(F)F)CC2)c1 (cis-trans isomerization)
C=c1/c(=C\c2c([O-])[n-]c(=O)[n-]c2=O)cc(C)n1-c1cccc(C(=O)[NH+]2CCC(O)(C(F)(F)F)CC2)c1 (3D coordinates assigned)
C=c1/c(=C\c2c([O-])[n-]c(=O)[n-]c2=O)cc(C)n1-c1cccc(C(=O)[NH+]2CCC(O)(C(F)(F)F)CC2)c1 (nonaromatic ring conformer: 124.43143017569766 kcal/mol)

> <smiles>
C=c1c(=Cc2c(O)[nH]c(=O)[nH]c2=O)cc(C)n1-c1cccc(C(=O)N2CCC(O)(C(F)(F)F)CC2)c1

> <score_type>
oracle

> <origin>
adg

> <m_score__min__energy>
-15.31

> <m_primary>
energy

> <minimizedAffinity>
-7.53914

> <minimizedRMSD>
0.84855

> <CNNscore>
0.1909669638

> <CNNaffinity>
6.9240288734

> <CNN_VS>
1.3222607374

> <CNNaffinity_variance>
0.1754908562

$$$$
30:0


 32 35  0  0  0  0  0  0  0  0999 V2000
   60.7679   29.0158   45.4083 C   0  0  0  0  0  0  0  0  0  0  0  0
   60.2621   29.0453   46.6513 C   0  0  0  0  0  0  0  0  0  0  0  0
   59.6239   27.9874   47.3079 C   0  0  0  0  0  0  0  0  0  0  0  0
   59.4451   26.7320   46.8528 C   0  0  0  0  0  0  0  0  0  0  0  0
   59.2544   28.4697   48.5537 C   0  0  0  0  0  0  0  0  0  0  0  0
   59.6496   29.7907   48.6012 C   0  0  0  0  0  0  0  0  0  0  0  0
   60.2823   30.1400   47.4566 N   0  0  0  0  0  0  0  0  0  0  0  0
   58.1508   26.0261   46.8738 C   0  0  0  0  0  0  0  0  0  0  0  0
   57.9725   24.8307   47.4646 N   0  0  0  0  0  0  0  0  0  0  0  0
   56.6899   24.5250   47.1736 C   0  0  0  0  0  0  0  0  0  0  0  0
   56.1387   23.4666   47.5718 O   0  0  0  0  0  0  0  0  0  0  0  0
   56.0487   25.4369   46.4130 N   0  0  0  0  0  0  0  0  0  0  0  0
   56.9895   26.3751   46.2209 C   0  0  0  0  0  0  0  0  0  0  0  0
   56.8011   27.4982   45.4257 O   0  0  0  0  0  0  0  0  0  0  0  0
   59.4641   30.6654   49.7798 C   0  0  0  0  0  0  0  0  0  0  0  0
   58.4194   31.3710   49.8204 O   0  0  0  0  0  0  0  0  0  0  0  0
   60.4266   30.7653   50.8674 N   0  0  0  0  0  0  0  0  0  0  0  0
   60.5275   32.1191   51.4785 C   0  0  0  0  0  0  0  0  0  0  0  0
   61.4882   33.0430   50.7148 C   0  0  0  0  0  0  0  0  0  0  0  0
   62.7851   32.3945   50.5180 N   0  0  0  0  0  0  0  0  0  0  0  0
   63.8792   33.1763   50.0130 C   0  0  0  0  0  0  0  0  0  0  0  0
   65.0335   32.6828   49.9024 O   0  0  0  0  0  0  0  0  0  0  0  0
   62.9584   30.9939   50.9136 C   0  0  0  0  0  0  0  0  0  0  0  0
   61.7390   30.1812   50.4535 C   0  0  0  0  0  0  0  0  0  0  0  0
   60.4344   30.3777   49.9625 H   0  0  0  0  0  0  0  0  0  0  0  0
   60.8799   31.4503   47.1572 C   0  0  0  0  0  0  0  0  0  0  0  0
   59.8776   32.3657   46.4978 C   0  0  0  0  0  0  0  0  0  0  0  0
   60.1880   33.7200   46.2833 C   0  0  0  0  0  0  0  0  0  0  0  0
   59.2649   34.5634   45.6568 C   0  0  0  0  0  0  0  0  0  0  0  0
   58.0332   34.0622   45.2297 C   0  0  0  0  0  0  0  0  0  0  0  0
   57.7215   32.7152   45.4269 C   0  0  0  0  0  0  0  0  0  0  0  0
   58.6401   31.8675   46.0535 C   0  0  0  0  0  0  0  0  0  0  0  0
  1  2  2  0
  2  3  1  0
  3  4  2  0
  4  8  1  0
  8  9  1  0
  9 10  1  0
 10 11  2  0
 10 12  1  0
 12 13  1  0
 13 14  1  0
  3  5  1  0
  5  6  2  0
  6 15  1  0
 15 16  2  0
 15 17  1  0
 17 18  1  0
 18 19  1  0
 19 20  1  0
 20 21  1  0
 21 22  2  0
 20 23  1  0
 23 24  1  0
  6  7  1  0
  7 26  1  0
 26 27  1  0
 27 28  2  0
 28 29  1  0
 29 30  2  0
 30 31  1  0
 31 32  2  0
  7  2  1  0
 32 27  1  0
 13  8  2  0
 24 17  1  0
 17 25  1  0
M  CHG 1   9  -1
M  CHG 1  12  -1
M  CHG 1  14  -1
M  CHG 1  17   1
M  END
> <UniqueID>
29

> <SMILES>
C=c1c(=Cc2[n-]c(=O)[n-]c2[O-])cc(C(=O)[NH+]2CCN(C=O)CC2)n1Cc1ccccc1

> <Energy>
138.19686676223824

> <Genealogy>
C=c1c(=Cc2[n-]c(=O)[n-]c2[O-])cc(C(=O)[NH+]2CCN(C=O)CC2)n1Cc1ccccc1 (protonated)
C=c1c(=Cc2[n-]c(=O)[n-]c2[O-])cc(C(=O)[NH+]2CCN(C=O)CC2)n1Cc1ccccc1 (3D coordinates assigned)
C=c1c(=Cc2[n-]c(=O)[n-]c2[O-])cc(C(=O)[NH+]2CCN(C=O)CC2)n1Cc1ccccc1 (nonaromatic ring conformer: 138.19686676223824 kcal/mol)

> <smiles>
C=c1c(=Cc2[nH]c(=O)[nH]c2O)cc(C(=O)N2CCN(C=O)CC2)n1Cc1ccccc1

> <score_type>
oracle

> <origin>
adg

> <m_score__min__energy>
-15.44

> <m_primary>
energy

> <minimizedAffinity>
-8.13178

> <minimizedRMSD>
1.31397

> <CNNscore>
0.3822775185

> <CNNaffinity>
6.7870602608

> <CNN_VS>
2.5945405960

> <CNNaffinity_variance>
0.0502212942

$$$$
31:0


 36 40  0  0  0  0  0  0  0  0999 V2000
   55.0235   28.8594   54.9771 C   0  0  0  0  0  0  0  0  0  0  0  0
   55.3387   29.7695   54.0401 C   0  0  0  0  0  0  0  0  0  0  0  0
   54.5346   30.1775   52.9648 C   0  0  0  0  0  0  0  0  0  0  0  0
   53.2295   29.9699   52.7039 C   0  0  0  0  0  0  0  0  0  0  0  0
   55.3481   30.9276   52.1377 C   0  0  0  0  0  0  0  0  0  0  0  0
   56.5805   31.0163   52.7527 C   0  0  0  0  0  0  0  0  0  0  0  0
   56.5767   30.3233   53.9186 N   0  0  0  0  0  0  0  0  0  0  0  0
   57.7147   31.7974   52.2075 C   0  0  0  0  0  0  0  0  0  0  0  0
   58.1240   32.8113   52.8349 O   0  0  0  0  0  0  0  0  0  0  0  0
   58.3175   31.4535   50.9463 N   0  0  0  0  0  0  0  0  0  0  0  0
   58.9579   32.5050   50.1429 C   0  0  0  0  0  0  0  0  0  0  0  0
   59.1134   32.0588   48.6853 C   0  0  0  0  0  0  0  0  0  0  0  0
   59.9054   30.7414   48.5596 C   0  0  0  0  0  0  0  0  0  0  0  0
   59.6621   29.7741   49.7471 C   0  0  0  0  0  0  0  0  0  0  0  0
   58.3498   30.0575   50.4821 C   0  0  0  0  0  0  0  0  0  0  0  0
   59.5452   30.1160   47.3230 O   0  0  0  0  0  0  0  0  0  0  0  0
   59.3930   28.7345   47.1177 C   0  0  0  0  0  0  0  0  0  0  0  0
   58.1340   28.2222   47.0652 N   0  0  0  0  0  0  0  0  0  0  0  0
   57.9104   26.8962   46.8710 C   0  0  0  0  0  0  0  0  0  0  0  0
   58.9942   26.0331   46.7177 C   0  0  0  0  0  0  0  0  0  0  0  0
   60.2574   26.5329   46.7648 N   0  0  0  0  0  0  0  0  0  0  0  0
   60.4845   27.8591   46.9598 C   0  0  0  0  0  0  0  0  0  0  0  0
   52.5279   30.3512   51.4676 C   0  0  0  0  0  0  0  0  0  0  0  0
   52.4385   29.5824   50.3661 N   0  0  0  0  0  0  0  0  0  0  0  0
   51.6021   30.2795   49.5666 C   0  0  0  0  0  0  0  0  0  0  0  0
   51.2787   29.8855   48.4157 O   0  0  0  0  0  0  0  0  0  0  0  0
   51.1312   31.4275   50.1009 N   0  0  0  0  0  0  0  0  0  0  0  0
   51.7163   31.4478   51.3092 C   0  0  0  0  0  0  0  0  0  0  0  0
   51.5081   32.4480   52.2512 O   0  0  0  0  0  0  0  0  0  0  0  0
   57.7213   30.1229   54.8242 C   0  0  0  0  0  0  0  0  0  0  0  0
   58.6699   29.0909   54.2681 C   0  0  0  0  0  0  0  0  0  0  0  0
   58.3395   27.7247   54.3045 C   0  0  0  0  0  0  0  0  0  0  0  0
   59.2252   26.7703   53.7958 C   0  0  0  0  0  0  0  0  0  0  0  0
   60.4501   27.1695   53.2538 C   0  0  0  0  0  0  0  0  0  0  0  0
   60.7938   28.5226   53.2241 C   0  0  0  0  0  0  0  0  0  0  0  0
   59.9111   29.4809   53.7332 C   0  0  0  0  0  0  0  0  0  0  0  0
  1  2  2  0
  2  3  1  0
  3  4  2  0
  4 23  1  0
 23 24  1  0
 24 25  1  0
 25 26  2  0
 25 27  1  0
 27 28  1  0
 28 29  1  0
  3  5  1  0
  5  6  2  0
  6  8  1  0
  8  9  2  0
  8 10  1  0
 10 11  1  0
 11 12  1  0
 12 13  1  0
 13 16  1  0
 16 17  1  0
 17 18  2  0
 18 19  1  0
 19 20  2  0
 20 21  1  0
 21 22  2  0
 13 14  1  0
 14 15  1  0
  6  7  1  0
  7 30  1  0
 30 31  1  0
 31 32  2  0
 32 33  1  0
 33 34  2  0
 34 35  1  0
 35 36  2  0
  7  2  1  0
 36 31  1  0
 28 23  2  0
 15 10  1  0
 22 17  1  0
M  CHG 1  24  -1
M  CHG 1  27  -1
M  CHG 1  29  -1
M  END
> <UniqueID>
30

> <SMILES>
C=c1/c(=C\c2[n-]c(=O)[n-]c2[O-])cc(C(=O)N2CCC(Oc3cnccn3)CC2)n1Cc1ccccc1

> <Energy>
142.7632554666082

> <Genealogy>
C=c1c(=Cc2[n-]c(=O)[n-]c2[O-])cc(C(=O)N2CCC(Oc3cnccn3)CC2)n1Cc1ccccc1 (protonated)
C=c1/c(=C\c2[n-]c(=O)[n-]c2[O-])cc(C(=O)N2CCC(Oc3cnccn3)CC2)n1Cc1ccccc1 (cis-trans isomerization)
C=c1/c(=C\c2[n-]c(=O)[n-]c2[O-])cc(C(=O)N2CCC(Oc3cnccn3)CC2)n1Cc1ccccc1 (3D coordinates assigned)
C=c1/c(=C\c2[n-]c(=O)[n-]c2[O-])cc(C(=O)N2CCC(Oc3cnccn3)CC2)n1Cc1ccccc1 (nonaromatic ring conformer: 142.7632554666082 kcal/mol)

> <smiles>
C=c1c(=Cc2[nH]c(=O)[nH]c2O)cc(C(=O)N2CCC(Oc3cnccn3)CC2)n1Cc1ccccc1

> <score_type>
oracle

> <origin>
adg

> <m_score__min__energy>
-17.07

> <m_primary>
energy

> <minimizedAffinity>
-5.86812

> <minimizedRMSD>
0.89947

> <CNNscore>
0.0428863205

> <CNNaffinity>
5.4189381599

> <CNN_VS>
0.2323983163

> <CNNaffinity_variance>
0.6181688309

$$$$
44:0


 29 32  0  0  0  0  0  0  0  0999 V2000
   57.8852   30.5399   45.2927 C   0  0  0  0  0  0  0  0  0  0  0  0
   58.6018   30.2479   46.4666 C   0  0  0  0  0  0  0  0  0  0  0  0
   59.3537   31.2380   47.1049 C   0  0  0  0  0  0  0  0  0  0  0  0
   59.4104   32.5382   46.5788 C   0  0  0  0  0  0  0  0  0  0  0  0
   58.6729   32.8400   45.4256 C   0  0  0  0  0  0  0  0  0  0  0  0
   57.9203   31.8510   44.7852 C   0  0  0  0  0  0  0  0  0  0  0  0
   60.2028   33.5877   47.2554 C   0  0  0  0  0  0  0  0  0  0  0  0
   59.9556   34.8004   47.0102 O   0  0  0  0  0  0  0  0  0  0  0  0
   61.2515   33.2521   48.1825 N   0  0  0  0  0  0  0  0  0  0  0  0
   62.2572   32.2530   47.7885 C   0  0  0  0  0  0  0  0  0  0  0  0
   63.4368   32.2161   48.7704 C   0  0  0  0  0  0  0  0  0  0  0  0
   62.9573   32.1798   50.2452 C   0  0  0  0  0  0  0  0  0  0  0  0
   62.3986   30.8263   50.5588 C   0  0  0  0  0  0  0  0  0  0  0  0
   61.2668   30.4209   50.1837 O   0  0  0  0  0  0  0  0  0  0  0  0
   63.2696   30.0149   51.3189 N   0  0  0  0  0  0  0  0  0  0  0  0
   64.4936   30.7517   51.5576 C   0  0  0  0  0  0  0  0  0  0  0  0
   64.1833   32.2125   51.1996 C   0  0  0  0  0  0  0  0  0  0  0  0
   61.9313   33.3203   50.5626 C   0  0  0  0  0  0  0  0  0  0  0  0
   61.5018   34.1308   49.3305 C   0  0  0  0  0  0  0  0  0  0  0  0
   57.0965   29.4896   44.6012 C   0  0  0  0  0  0  0  0  0  0  0  0
   56.7715   29.6399   43.3926 O   0  0  0  0  0  0  0  0  0  0  0  0
   59.4573   26.2953   45.9461 C   0  0  0  0  0  0  0  0  0  0  0  0
   58.6562   27.3446   45.6227 N   0  0  0  0  0  0  0  0  0  0  0  0
   57.2979   27.2654   45.6450 C   0  0  0  0  0  0  0  0  0  0  0  0
   56.6224   28.3297   45.3017 N   0  0  0  0  0  0  0  0  0  0  0  0
   56.6922   26.0496   46.0567 C   0  0  0  0  0  0  0  0  0  0  0  0
   55.3156   25.9070   46.1832 O   0  0  0  0  0  0  0  0  0  0  0  0
   57.5056   24.9597   46.3805 C   0  0  0  0  0  0  0  0  0  0  0  0
   58.8922   25.0786   46.3229 C   0  0  0  0  0  0  0  0  0  0  0  0
 22 23  1  0
 23 24  1  0
 24 25  2  0
 25 20  1  0
 20 21  2  0
 20  1  1  0
  1  2  2  0
  2  3  1  0
  3  4  2  0
  4  7  1  0
  7  8  2  0
  7  9  1  0
  9 10  1  0
 10 11  1  0
 11 12  1  0
 12 13  1  0
 13 14  2  0
 13 15  1  0
 15 16  1  0
 16 17  1  0
 12 18  1  0
 18 19  1  0
  4  5  1  0
  5  6  2  0
 24 26  1  0
 26 27  1  0
 26 28  2  0
 28 29  1  0
 29 22  2  0
  6  1  1  0
 19  9  1  0
 17 12  1  0
M  CHG 1  15  -1
M  CHG 1  23  -1
M  CHG 1  27  -1
M  END
> <UniqueID>
40

> <SMILES>
O=C(/N=c1/[n-]cccc1[O-])c1ccc(C(=O)N2CCC3(CC[N-]C3=O)CC2)cc1

> <Energy>
83.83589665336403

> <Genealogy>
O=C(N=c1[n-]cccc1[O-])c1ccc(C(=O)N2CCC3(CC[N-]C3=O)CC2)cc1 (protonated)
O=C(/N=c1/[n-]cccc1[O-])c1ccc(C(=O)N2CCC3(CC[N-]C3=O)CC2)cc1 (cis-trans isomerization)
O=C(/N=c1/[n-]cccc1[O-])c1ccc(C(=O)N2CCC3(CC[N-]C3=O)CC2)cc1 (3D coordinates assigned)
O=C(/N=c1/[n-]cccc1[O-])c1ccc(C(=O)N2CCC3(CC[N-]C3=O)CC2)cc1 (nonaromatic ring conformer: 83.83589665336403 kcal/mol)

> <smiles>
O=C(N=c1[nH]cccc1O)c1ccc(C(=O)N2CCC3(CCNC3=O)CC2)cc1

> <score_type>
oracle

> <origin>
adg

> <m_score__min__energy>
-15.529999999999999

> <m_primary>
energy

> <minimizedAffinity>
-8.82436

> <minimizedRMSD>
1.03969

> <CNNscore>
0.2877238989

> <CNNaffinity>
6.3958353996

> <CNN_VS>
1.8402347565

> <CNNaffinity_variance>
0.0402697064

$$$$
60:0


 32 34  0  0  0  0  0  0  0  0999 V2000
   57.0253   28.9592   43.2253 C   0  0  0  0  0  0  0  0  0  0  0  0
   57.5480   28.8480   44.4560 C   0  0  0  0  0  0  0  0  0  0  0  0
   57.9806   27.6677   45.0901 C   0  0  0  0  0  0  0  0  0  0  0  0
   57.8697   26.3740   44.7327 C   0  0  0  0  0  0  0  0  0  0  0  0
   58.5702   28.0625   46.2791 C   0  0  0  0  0  0  0  0  0  0  0  0
   58.4320   29.4316   46.3610 C   0  0  0  0  0  0  0  0  0  0  0  0
   58.8974   30.2671   47.5168 C   0  0  0  0  0  0  0  0  0  0  0  0
   57.8172   29.9106   45.2578 N   0  0  0  0  0  0  0  0  0  0  0  0
   57.5775   31.3063   44.9910 C   0  0  0  0  0  0  0  0  0  0  0  0
   56.6187   31.8849   45.5744 O   0  0  0  0  0  0  0  0  0  0  0  0
   57.3784   25.2809   45.5882 C   0  0  0  0  0  0  0  0  0  0  0  0
   58.0189   24.1149   45.7851 N   0  0  0  0  0  0  0  0  0  0  0  0
   57.1335   23.3899   46.5015 C   0  0  0  0  0  0  0  0  0  0  0  0
   57.3791   22.2240   46.9029 O   0  0  0  0  0  0  0  0  0  0  0  0
   55.9581   24.0102   46.7449 N   0  0  0  0  0  0  0  0  0  0  0  0
   56.1257   25.1999   46.1459 C   0  0  0  0  0  0  0  0  0  0  0  0
   55.1516   26.1897   46.1063 O   0  0  0  0  0  0  0  0  0  0  0  0
   58.5040   32.0689   44.1822 N   0  0  0  0  0  0  0  0  0  0  0  0
   58.0880   32.0418   42.7656 C   0  0  0  0  0  0  0  0  0  0  0  0
   59.3864   32.5032   44.2277 H   0  0  0  0  0  0  0  0  0  0  0  0
   58.5813   33.4507   44.7035 C   0  0  0  0  0  0  0  0  0  0  0  0
   59.2792   33.5125   46.0428 C   0  0  0  0  0  0  0  0  0  0  0  0
   58.8493   34.4266   47.0170 C   0  0  0  0  0  0  0  0  0  0  0  0
   59.4796   34.4767   48.2614 C   0  0  0  0  0  0  0  0  0  0  0  0
   60.5449   33.6156   48.5436 C   0  0  0  0  0  0  0  0  0  0  0  0
   61.1485   33.6776   49.7571 F   0  0  0  0  0  0  0  0  0  0  0  0
   60.9885   32.6951   47.5854 C   0  0  0  0  0  0  0  0  0  0  0  0
   60.3431   32.6425   46.3340 C   0  0  0  0  0  0  0  0  0  0  0  0
   62.0625   31.8536   47.9237 O   0  0  0  0  0  0  0  0  0  0  0  0
   63.4467   32.2043   47.8825 C   0  0  0  0  0  0  0  0  0  0  0  0
   63.9658   32.3119   49.3152 C   0  0  0  0  0  0  0  0  0  0  0  0
   63.6389   33.5377   47.1496 C   0  0  0  0  0  0  0  0  0  0  0  0
  1  2  2  0
  2  3  1  0
  3  4  2  0
  4 11  1  0
 11 12  1  0
 12 13  1  0
 13 14  2  0
 13 15  1  0
 15 16  1  0
 16 17  1  0
  3  5  1  0
  5  6  2  0
  6  7  1  0
  6  8  1  0
  8  9  1  0
  9 10  2  0
  9 18  1  0
 18 19  1  0
 18 21  1  0
 21 22  1  0
 22 23  2  0
 23 24  1  0
 24 25  2  0
 25 26  1  0
 25 27  1  0
 27 29  1  0
 29 30  1  0
 30 31  1  0
 30 32  1  0
 27 28  2  0
  8  2  1  0
 28 22  1  0
 16 11  2  0
 18 20  1  0
M  CHG 1  12  -1
M  CHG 1  15  -1
M  CHG 1  17  -1
M  CHG 1  18   1
M  END
> <UniqueID>
55

> <SMILES>
C=c1/c(=C\c2[n-]c(=O)[n-]c2[O-])cc(C)n1C(=O)[N@@H+](C)Cc1ccc(F)c(OC(C)C)c1

> <Energy>
128.08454083677836

> <Genealogy>
C=c1c(=Cc2[n-]c(=O)[n-]c2[O-])cc(C)n1C(=O)[NH+](C)Cc1ccc(F)c(OC(C)C)c1 (protonated)
C=c1c(=Cc2[n-]c(=O)[n-]c2[O-])cc(C)n1C(=O)[N@@H+](C)Cc1ccc(F)c(OC(C)C)c1 (chirality)
C=c1/c(=C\c2[n-]c(=O)[n-]c2[O-])cc(C)n1C(=O)[N@@H+](C)Cc1ccc(F)c(OC(C)C)c1 (cis-trans isomerization)
C=c1/c(=C\c2[n-]c(=O)[n-]c2[O-])cc(C)n1C(=O)[N@@H+](C)Cc1ccc(F)c(OC(C)C)c1 (3D coordinates assigned)
C=c1/c(=C\c2[n-]c(=O)[n-]c2[O-])cc(C)n1C(=O)[N@@H+](C)Cc1ccc(F)c(OC(C)C)c1 (optimized conformer: 128.08454083677836 kcal/mol)

> <smiles>
C=c1c(=Cc2[nH]c(=O)[nH]c2O)cc(C)n1C(=O)N(C)Cc1ccc(F)c(OC(C)C)c1

> <score_type>
oracle

> <origin>
adg

> <m_score__min__energy>
-15.42

> <m_primary>
energy

> <minimizedAffinity>
-6.93751

> <minimizedRMSD>
0.65900

> <CNNscore>
0.1290242672

> <CNNaffinity>
6.7889590263

> <CNN_VS>
0.8759404421

> <CNNaffinity_variance>
0.0764491409

$$$$
89:0


 33 36  0  0  0  0  0  0  0  0999 V2000
   59.1922   30.3694   45.3292 C   0  0  0  0  0  0  0  0  0  0  0  0
   59.3148   29.4982   46.3432 C   0  0  0  0  0  0  0  0  0  0  0  0
   58.7239   28.2260   46.4482 C   0  0  0  0  0  0  0  0  0  0  0  0
   58.0501   27.4839   45.5490 C   0  0  0  0  0  0  0  0  0  0  0  0
   58.9832   27.7827   47.7346 C   0  0  0  0  0  0  0  0  0  0  0  0
   59.7501   28.7526   48.3456 C   0  0  0  0  0  0  0  0  0  0  0  0
   59.9660   29.7852   47.5001 N   0  0  0  0  0  0  0  0  0  0  0  0
   60.7700   30.9418   47.7832 C   0  0  0  0  0  0  0  0  0  0  0  0
   61.8627   31.1058   47.1776 O   0  0  0  0  0  0  0  0  0  0  0  0
   60.2086   28.6889   49.7448 C   0  0  0  0  0  0  0  0  0  0  0  0
   60.9943   27.7669   50.0923 O   0  0  0  0  0  0  0  0  0  0  0  0
   59.7507   29.6443   50.7156 N   0  0  0  0  0  0  0  0  0  0  0  0
   60.6437   30.0478   51.8079 C   0  0  0  0  0  0  0  0  0  0  0  0
   60.3607   31.4936   52.2765 C   0  0  0  0  0  0  0  0  0  0  0  0
   59.0204   31.9912   51.8836 N   0  0  0  0  0  0  0  0  0  0  0  0
   58.6170   33.1100   52.7493 C   0  0  0  0  0  0  0  0  0  0  0  0
   58.0111   30.9200   51.9254 C   0  0  0  0  0  0  0  0  0  0  0  0
   58.3086   29.9206   50.8091 C   0  0  0  0  0  0  0  0  0  0  0  0
   57.6961   26.0631   45.6974 C   0  0  0  0  0  0  0  0  0  0  0  0
   58.5789   25.0462   45.6669 N   0  0  0  0  0  0  0  0  0  0  0  0
   57.8257   23.9731   45.9927 C   0  0  0  0  0  0  0  0  0  0  0  0
   58.2985   22.8085   46.0602 O   0  0  0  0  0  0  0  0  0  0  0  0
   56.5293   24.2471   46.2505 N   0  0  0  0  0  0  0  0  0  0  0  0
   56.4686   25.5765   46.0701 C   0  0  0  0  0  0  0  0  0  0  0  0
   55.3112   26.3313   46.2375 O   0  0  0  0  0  0  0  0  0  0  0  0
   60.3532   31.8743   48.7813 N   0  0  0  0  0  0  0  0  0  0  0  0
   60.2583   33.3089   48.5338 C   0  0  0  0  0  0  0  0  0  0  0  0
   59.4451   33.5608   47.2928 C   0  0  0  0  0  0  0  0  0  0  0  0
   60.0250   34.1960   46.1807 C   0  0  0  0  0  0  0  0  0  0  0  0
   59.2661   34.4333   45.0296 C   0  0  0  0  0  0  0  0  0  0  0  0
   57.9249   34.0458   44.9828 C   0  0  0  0  0  0  0  0  0  0  0  0
   57.3363   33.4299   46.0891 C   0  0  0  0  0  0  0  0  0  0  0  0
   58.0898   33.1934   47.2425 C   0  0  0  0  0  0  0  0  0  0  0  0
  1  2  2  0
  2  3  1  0
  3  4  2  0
  4 19  1  0
 19 20  1  0
 20 21  1  0
 21 22  2  0
 21 23  1  0
 23 24  1  0
 24 25  1  0
  3  5  1  0
  5  6  2  0
  6 10  1  0
 10 11  2  0
 10 12  1  0
 12 13  1  0
 13 14  1  0
 14 15  1  0
 15 16  1  0
 15 17  1  0
 17 18  1  0
  6  7  1  0
  7  8  1  0
  8  9  2  0
  8 26  1  0
 26 27  1  0
 27 28  1  0
 28 29  2  0
 29 30  1  0
 30 31  2  0
 31 32  1  0
 32 33  2  0
  7  2  1  0
 33 28  1  0
 24 19  2  0
 18 12  1  0
M  CHG 1  20  -1
M  CHG 1  23  -1
M  CHG 1  25  -1
M  CHG 1  26  -1
M  END
> <UniqueID>
80

> <SMILES>
C=c1c(=Cc2[n-]c(=O)[n-]c2[O-])cc(C(=O)N2CCN(C)CC2)n1C(=O)[N-]Cc1ccccc1

> <Energy>
138.04343756581926

> <Genealogy>
C=c1c(=Cc2[n-]c(=O)[n-]c2[O-])cc(C(=O)N2CCN(C)CC2)n1C(=O)[N-]Cc1ccccc1 (protonated)
C=c1c(=Cc2[n-]c(=O)[n-]c2[O-])cc(C(=O)N2CCN(C)CC2)n1C(=O)[N-]Cc1ccccc1 (3D coordinates assigned)
C=c1c(=Cc2[n-]c(=O)[n-]c2[O-])cc(C(=O)N2CCN(C)CC2)n1C(=O)[N-]Cc1ccccc1 (nonaromatic ring conformer: 138.04343756581926 kcal/mol)

> <smiles>
C=c1c(=Cc2[nH]c(=O)[nH]c2O)cc(C(=O)N2CCN(C)CC2)n1C(=O)NCc1ccccc1

> <score_type>
oracle

> <origin>
adg

> <m_score__min__energy>
-17.66

> <m_primary>
energy

> <minimizedAffinity>
-8.49810

> <minimizedRMSD>
0.85690

> <CNNscore>
0.3533590138

> <CNNaffinity>
6.6884365082

> <CNN_VS>
2.3634192944

> <CNNaffinity_variance>
0.0710859075

$$$$
4:0


 23 25  0  0  0  0  0  0  0  0999 V2000
   55.2184   29.0424   53.5075 C   0  0  0  0  0  0  0  0  0  0  0  0
   56.8416   29.3025   53.1494 S   0  0  0  0  0  0  0  0  0  0  0  0
   56.5303   30.6963   52.2510 C   0  0  0  0  0  0  0  0  0  0  0  0
   57.4081   31.4507   51.6565 N   0  0  0  0  0  0  0  0  0  0  0  0
   55.2106   30.9781   52.2161 N   0  0  0  0  0  0  0  0  0  0  0  0
   54.4796   30.0576   52.9031 C   0  0  0  0  0  0  0  0  0  0  0  0
   58.8187   31.2125   51.5186 C   0  0  0  0  0  0  0  0  0  0  0  0
   59.6103   31.3645   52.4874 O   0  0  0  0  0  0  0  0  0  0  0  0
   59.3633   30.8227   50.1810 C   0  0  0  0  0  0  0  0  0  0  0  0
   59.5040   32.0386   49.3092 C   0  0  0  0  0  0  0  0  0  0  0  0
   58.7154   32.1781   48.1537 C   0  0  0  0  0  0  0  0  0  0  0  0
   58.8712   33.2938   47.3254 C   0  0  0  0  0  0  0  0  0  0  0  0
   59.8206   34.2700   47.6377 C   0  0  0  0  0  0  0  0  0  0  0  0
   60.6170   34.1322   48.7759 C   0  0  0  0  0  0  0  0  0  0  0  0
   60.4641   33.0195   49.6088 C   0  0  0  0  0  0  0  0  0  0  0  0
   52.9956   30.1852   53.0513 C   0  0  0  0  0  0  0  0  0  0  0  0
   52.3703   30.4612   51.7213 C   0  0  0  0  0  0  0  0  0  0  0  0
   52.4100   29.6133   50.6773 N   0  0  0  0  0  0  0  0  0  0  0  0
   51.6700   30.2431   49.7381 C   0  0  0  0  0  0  0  0  0  0  0  0
   51.4721   29.7578   48.5938 O   0  0  0  0  0  0  0  0  0  0  0  0
   51.1517   31.4285   50.1245 N   0  0  0  0  0  0  0  0  0  0  0  0
   51.6004   31.5485   51.3838 C   0  0  0  0  0  0  0  0  0  0  0  0
   51.3070   32.6259   52.2122 O   0  0  0  0  0  0  0  0  0  0  0  0
  1  2  1  0
  2  3  1  0
  3  4  2  0
  4  7  1  0
  7  8  2  0
  7  9  1  0
  9 10  1  0
 10 11  2  0
 11 12  1  0
 12 13  2  0
 13 14  1  0
 14 15  2  0
  3  5  1  0
  5  6  1  0
  6 16  1  0
 16 17  1  0
 17 18  1  0
 18 19  1  0
 19 20  2  0
 19 21  1  0
 21 22  1  0
 22 23  1  0
  6  1  2  0
 22 17  2  0
 15 10  1  0
M  CHG 1   5  -1
M  CHG 1  18  -1
M  CHG 1  21  -1
M  CHG 1  23  -1
M  END
> <UniqueID>
4

> <SMILES>
O=C(Cc1ccccc1)/N=c1/[n-]c(Cc2[n-]c(=O)[n-]c2[O-])cs1

> <Energy>
93.71338420053752

> <Genealogy>
O=C(Cc1ccccc1)N=c1[n-]c(Cc2[n-]c(=O)[n-]c2[O-])cs1 (protonated)
O=C(Cc1ccccc1)/N=c1/[n-]c(Cc2[n-]c(=O)[n-]c2[O-])cs1 (cis-trans isomerization)
O=C(Cc1ccccc1)/N=c1/[n-]c(Cc2[n-]c(=O)[n-]c2[O-])cs1 (3D coordinates assigned)
O=C(Cc1ccccc1)/N=c1/[n-]c(Cc2[n-]c(=O)[n-]c2[O-])cs1 (optimized conformer: 93.71338420053752 kcal/mol)

> <smiles>
O=C(Cc1ccccc1)N=c1[nH]c(Cc2[nH]c(=O)[nH]c2O)cs1

> <score_type>
oracle

> <origin>
adg

> <m_score__min__energy>
-17.300000000000001

> <m_primary>
energy

> <minimizedAffinity>
-5.12280

> <minimizedRMSD>
0.89750

> <CNNscore>
0.4406138062

> <CNNaffinity>
5.4948573112

> <CNN_VS>
2.4211099148

> <CNNaffinity_variance>
0.2433717996

$$$$
17:0


 38 41  0  0  0  0  0  0  0  0999 V2000
   59.5380   29.6940   47.1252 C   0  0  0  0  0  0  0  0  0  0  0  0
   58.9504   29.8923   48.3793 C   0  0  0  0  0  0  0  0  0  0  0  0
   59.5539   30.7320   49.3200 C   0  0  0  0  0  0  0  0  0  0  0  0
   60.7626   31.3920   49.0215 C   0  0  0  0  0  0  0  0  0  0  0  0
   61.3466   31.1818   47.7567 C   0  0  0  0  0  0  0  0  0  0  0  0
   60.7390   30.3449   46.8167 C   0  0  0  0  0  0  0  0  0  0  0  0
   61.4523   32.2875   49.9902 C   0  0  0  0  0  0  0  0  0  0  0  0
   61.2403   33.5302   49.9198 O   0  0  0  0  0  0  0  0  0  0  0  0
   62.2538   31.7893   51.0816 N   0  0  0  0  0  0  0  0  0  0  0  0
   61.9799   32.3292   52.4209 C   0  0  0  0  0  0  0  0  0  0  0  0
   62.6326   31.4769   53.5163 C   0  0  0  0  0  0  0  0  0  0  0  0
   64.0473   31.2028   53.2214 N   0  0  0  0  0  0  0  0  0  0  0  0
   64.9184   30.7430   54.2725 C   0  0  0  0  0  0  0  0  0  0  0  0
   64.4448   30.4928   55.4137 O   0  0  0  0  0  0  0  0  0  0  0  0
   64.5812   31.4524   51.8756 C   0  0  0  0  0  0  0  0  0  0  0  0
   63.5304   31.1056   50.8185 C   0  0  0  0  0  0  0  0  0  0  0  0
   66.2895   30.5770   54.0157 O   0  0  0  0  0  0  0  0  0  0  0  0
   66.9703   29.3374   53.7710 C   0  0  0  0  0  0  0  0  0  0  0  0
   67.5476   28.8634   55.1139 C   0  0  0  0  0  0  0  0  0  0  0  0
   65.9842   28.2742   53.2503 C   0  0  0  0  0  0  0  0  0  0  0  0
   68.1282   29.5395   52.7752 C   0  0  0  0  0  0  0  0  0  0  0  0
   59.3050   26.7236   47.1857 C   0  0  0  0  0  0  0  0  0  0  0  0
   58.8317   27.4823   46.1843 C   0  0  0  0  0  0  0  0  0  0  0  0
   58.1700   27.0274   45.0394 C   0  0  0  0  0  0  0  0  0  0  0  0
   57.8758   25.7539   44.7138 C   0  0  0  0  0  0  0  0  0  0  0  0
   57.8291   28.1594   44.3093 C   0  0  0  0  0  0  0  0  0  0  0  0
   58.3048   29.2451   45.0186 C   0  0  0  0  0  0  0  0  0  0  0  0
   58.1477   30.6738   44.5941 C   0  0  0  0  0  0  0  0  0  0  0  0
   58.9097   28.8373   46.1571 N   0  0  0  0  0  0  0  0  0  0  0  0
   57.3223   24.7726   45.6747 C   0  0  0  0  0  0  0  0  0  0  0  0
   56.0875   24.9827   46.3150 C   0  0  0  0  0  0  0  0  0  0  0  0
   55.3384   26.1254   46.0613 O   0  0  0  0  0  0  0  0  0  0  0  0
   55.6046   24.0504   47.1772 N   0  0  0  0  0  0  0  0  0  0  0  0
   56.2855   22.9028   47.4217 C   0  0  0  0  0  0  0  0  0  0  0  0
   55.8209   22.0564   48.2282 O   0  0  0  0  0  0  0  0  0  0  0  0
   57.4633   22.6632   46.7923 N   0  0  0  0  0  0  0  0  0  0  0  0
   57.9917   23.5632   45.9230 C   0  0  0  0  0  0  0  0  0  0  0  0
   59.0847   23.3044   45.3534 O   0  0  0  0  0  0  0  0  0  0  0  0
 22 23  2  0
 23 24  1  0
 24 25  2  0
 25 30  1  0
 30 31  2  0
 31 32  1  0
 31 33  1  0
 33 34  1  0
 34 35  2  0
 34 36  1  0
 36 37  1  0
 37 38  2  0
 24 26  1  0
 26 27  2  0
 27 28  1  0
 27 29  1  0
 29  1  1  0
  1  2  2  0
  2  3  1  0
  3  4  2  0
  4  7  1  0
  7  8  2  0
  7  9  1  0
  9 10  1  0
 10 11  1  0
 11 12  1  0
 12 13  1  0
 13 14  2  0
 13 17  1  0
 17 18  1  0
 18 19  1  0
 18 20  1  0
 18 21  1  0
 12 15  1  0
 15 16  1  0
  4  5  1  0
  5  6  2  0
 29 23  1  0
  6  1  1  0
 37 30  1  0
 16  9  1  0
M  CHG 1  32  -1
M  CHG 1  33  -1
M  CHG 1  36  -1
M  END
> <UniqueID>
17

> <SMILES>
C=c1c(=Cc2c([O-])[n-]c(=O)[n-]c2=O)cc(C)n1-c1ccc(C(=O)N2CCN(C(=O)OC(C)(C)C)CC2)cc1

> <Energy>
119.3866990866741

> <Genealogy>
C=c1c(=Cc2c([O-])[n-]c(=O)[n-]c2=O)cc(C)n1-c1ccc(C(=O)N2CCN(C(=O)OC(C)(C)C)CC2)cc1 (protonated)
C=c1c(=Cc2c([O-])[n-]c(=O)[n-]c2=O)cc(C)n1-c1ccc(C(=O)N2CCN(C(=O)OC(C)(C)C)CC2)cc1 (3D coordinates assigned)
C=c1c(=Cc2c([O-])[n-]c(=O)[n-]c2=O)cc(C)n1-c1ccc(C(=O)N2CCN(C(=O)OC(C)(C)C)CC2)cc1 (nonaromatic ring conformer: 119.3866990866741 kcal/mol)

> <smiles>
C=c1c(=Cc2c(O)[nH]c(=O)[nH]c2=O)cc(C)n1-c1ccc(C(=O)N2CCN(C(=O)OC(C)(C)C)CC2)cc1

> <score_type>
oracle

> <origin>
adg

> <m_score__min__energy>
-16.199999999999999

> <m_primary>
energy

> <minimizedAffinity>
-8.34227

> <minimizedRMSD>
2.22189

> <CNNscore>
0.1839575320

> <CNNaffinity>
6.6880984306

> <CNN_VS>
1.2303260565

> <CNNaffinity_variance>
0.1749964505

$$$$
21:0


 24 26  0  0  0  0  0  0  0  0999 V2000
   59.4392   29.7157   45.0396 C   0  0  0  0  0  0  0  0  0  0  0  0
   59.8303   29.2763   46.2478 C   0  0  0  0  0  0  0  0  0  0  0  0
   59.9391   27.9457   46.6625 C   0  0  0  0  0  0  0  0  0  0  0  0
   59.8958   26.7924   45.9657 C   0  0  0  0  0  0  0  0  0  0  0  0
   60.1358   27.9865   48.0294 C   0  0  0  0  0  0  0  0  0  0  0  0
   60.2278   29.3202   48.4086 C   0  0  0  0  0  0  0  0  0  0  0  0
   60.0316   30.1012   47.3089 N   0  0  0  0  0  0  0  0  0  0  0  0
   58.7898   25.8226   45.9806 C   0  0  0  0  0  0  0  0  0  0  0  0
   58.9300   24.5028   46.2091 N   0  0  0  0  0  0  0  0  0  0  0  0
   57.6546   24.0601   46.2665 C   0  0  0  0  0  0  0  0  0  0  0  0
   57.3653   22.8502   46.4548 O   0  0  0  0  0  0  0  0  0  0  0  0
   56.7147   25.0178   46.1186 N   0  0  0  0  0  0  0  0  0  0  0  0
   57.4508   26.1282   45.9541 C   0  0  0  0  0  0  0  0  0  0  0  0
   56.9105   27.3971   45.7873 O   0  0  0  0  0  0  0  0  0  0  0  0
   59.9642   31.5356   47.2553 C   0  0  0  0  0  0  0  0  0  0  0  0
   58.7225   32.1849   47.2438 C   0  0  0  0  0  0  0  0  0  0  0  0
   58.6603   33.5793   47.1416 C   0  0  0  0  0  0  0  0  0  0  0  0
   59.8378   34.3251   47.0295 C   0  0  0  0  0  0  0  0  0  0  0  0
   61.0765   33.6780   47.0073 C   0  0  0  0  0  0  0  0  0  0  0  0
   61.1411   32.2859   47.1078 C   0  0  0  0  0  0  0  0  0  0  0  0
   60.4143   29.8044   49.8612 C   0  0  0  0  0  0  0  0  0  0  0  0
   59.1656   30.5510   50.3800 C   0  0  0  0  0  0  0  0  0  0  0  0
   61.6095   30.7858   49.9610 C   0  0  0  0  0  0  0  0  0  0  0  0
   60.7111   28.5969   50.7694 C   0  0  0  0  0  0  0  0  0  0  0  0
  1  2  2  0
  2  3  1  0
  3  4  2  0
  4  8  1  0
  8  9  1  0
  9 10  1  0
 10 11  2  0
 10 12  1  0
 12 13  1  0
 13 14  1  0
  3  5  1  0
  5  6  2  0
  6 21  1  0
 21 22  1  0
 21 23  1  0
 21 24  1  0
  6  7  1  0
  7 15  1  0
 15 16  2  0
 16 17  1  0
 17 18  2  0
 18 19  1  0
 19 20  2  0
  7  2  1  0
 20 15  1  0
 13  8  2  0
M  CHG 1   9  -1
M  CHG 1  12  -1
M  CHG 1  14  -1
M  END
> <UniqueID>
21

> <SMILES>
C=c1/c(=C\c2[n-]c(=O)[n-]c2[O-])cc(C(C)(C)C)n1-c1ccccc1

> <Energy>
121.30171020810019

> <Genealogy>
C=c1c(=Cc2[n-]c(=O)[n-]c2[O-])cc(C(C)(C)C)n1-c1ccccc1 (protonated)
C=c1/c(=C\c2[n-]c(=O)[n-]c2[O-])cc(C(C)(C)C)n1-c1ccccc1 (cis-trans isomerization)
C=c1/c(=C\c2[n-]c(=O)[n-]c2[O-])cc(C(C)(C)C)n1-c1ccccc1 (3D coordinates assigned)
C=c1/c(=C\c2[n-]c(=O)[n-]c2[O-])cc(C(C)(C)C)n1-c1ccccc1 (optimized conformer: 121.30171020810019 kcal/mol)

> <smiles>
C=c1c(=Cc2[nH]c(=O)[nH]c2O)cc(C(C)(C)C)n1-c1ccccc1

> <score_type>
oracle

> <origin>
adg

> <m_score__min__energy>
-15.67

> <m_primary>
energy

> <minimizedAffinity>
-7.91002

> <minimizedRMSD>
1.73391

> <CNNscore>
0.5319473147

> <CNNaffinity>
6.7393031120

> <CNN_VS>
3.5849542618

> <CNNaffinity_variance>
0.2308672518

$$$$
26:0


 36 40  0  0  0  0  0  0  0  0999 V2000
   58.7569   31.1746   46.4972 C   0  0  0  0  0  0  0  0  0  0  0  0
   57.8675   31.8219   45.8745 O   0  0  0  0  0  0  0  0  0  0  0  0
   59.5353   31.8296   47.5226 N   0  0  0  0  0  0  0  0  0  0  0  0
   60.9641   31.5306   47.6776 C   0  0  0  0  0  0  0  0  0  0  0  0
   61.3003   31.4264   49.1606 C   0  0  0  0  0  0  0  0  0  0  0  0
   60.9956   32.7501   49.8904 C   0  0  0  0  0  0  0  0  0  0  0  0
   59.9003   33.6416   49.2325 C   0  0  0  0  0  0  0  0  0  0  0  0
   58.9188   32.9263   48.2846 C   0  0  0  0  0  0  0  0  0  0  0  0
   60.7781   32.5324   51.3404 N   0  0  0  0  0  0  0  0  0  0  0  0
   61.7078   33.1184   52.2799 C   0  0  0  0  0  0  0  0  0  0  0  0
   62.8833   33.4023   51.9269 O   0  0  0  0  0  0  0  0  0  0  0  0
   61.3021   33.3405   53.7137 C   0  0  0  0  0  0  0  0  0  0  0  0
   59.7787   33.4621   53.8349 C   0  0  0  0  0  0  0  0  0  0  0  0
   59.1062   32.3109   53.1391 C   0  0  0  0  0  0  0  0  0  0  0  0
   57.9629   31.7116   53.6942 C   0  0  0  0  0  0  0  0  0  0  0  0
   57.3502   30.6416   53.0410 C   0  0  0  0  0  0  0  0  0  0  0  0
   57.8651   30.1755   51.8265 C   0  0  0  0  0  0  0  0  0  0  0  0
   58.9894   30.7810   51.2579 C   0  0  0  0  0  0  0  0  0  0  0  0
   59.6069   31.8763   51.8920 C   0  0  0  0  0  0  0  0  0  0  0  0
   58.3903   27.4124   46.4101 C   0  0  0  0  0  0  0  0  0  0  0  0
   59.3496   27.0707   45.4485 C   0  0  0  0  0  0  0  0  0  0  0  0
   60.1061   28.0655   44.8220 C   0  0  0  0  0  0  0  0  0  0  0  0
   59.9118   29.4076   45.1597 C   0  0  0  0  0  0  0  0  0  0  0  0
   58.9817   29.7593   46.1521 C   0  0  0  0  0  0  0  0  0  0  0  0
   58.2461   28.7555   46.7987 C   0  0  0  0  0  0  0  0  0  0  0  0
   57.5441   26.3893   46.9474 N   0  0  0  0  0  0  0  0  0  0  0  0
   55.4112   25.8702   46.1819 O   0  0  0  0  0  0  0  0  0  0  0  0
   56.6368   25.5722   46.1865 C   0  0  0  0  0  0  0  0  0  0  0  0
   57.0785   24.3630   45.4541 C   0  0  0  0  0  0  0  0  0  0  0  0
   56.2755   23.7631   44.4695 C   0  0  0  0  0  0  0  0  0  0  0  0
   56.7403   22.6076   43.8388 C   0  0  0  0  0  0  0  0  0  0  0  0
   56.0331   22.0342   42.9668 O   0  0  0  0  0  0  0  0  0  0  0  0
   57.9594   22.1018   44.1633 N   0  0  0  0  0  0  0  0  0  0  0  0
   58.7383   22.7074   45.0987 C   0  0  0  0  0  0  0  0  0  0  0  0
   59.8683   22.2281   45.3818 O   0  0  0  0  0  0  0  0  0  0  0  0
   58.2988   23.8258   45.7332 N   0  0  0  0  0  0  0  0  0  0  0  0
 27 28  2  0
 28 26  1  0
 26 20  1  0
 20 21  2  0
 21 22  1  0
 22 23  2  0
 23 24  1  0
 24  1  1  0
  1  2  2  0
  1  3  1  0
  3  4  1  0
  4  5  1  0
  5  6  1  0
  6  9  1  0
  9 10  1  0
 10 11  2  0
 10 12  1  0
 12 13  1  0
 13 14  1  0
 14 15  2  0
 15 16  1  0
 16 17  2  0
 17 18  1  0
 18 19  2  0
  6  7  1  0
  7  8  1  0
 24 25  2  0
 28 29  1  0
 29 30  2  0
 30 31  1  0
 31 32  2  0
 31 33  1  0
 33 34  1  0
 34 35  2  0
 34 36  1  0
 25 20  1  0
 36 29  1  0
  8  3  1  0
 19  9  1  0
 19 14  1  0
M  CHG 1  26  -1
M  CHG 1  33  -1
M  CHG 1  36  -1
M  END
> <UniqueID>
26

> <SMILES>
O=C([N-]c1cccc(C(=O)N2CCC(N3C(=O)CCc4ccccc43)CC2)c1)c1cc(=O)[n-]c(=O)[n-]1

> <Energy>
89.00340766271586

> <Genealogy>
O=C([N-]c1cccc(C(=O)N2CCC(N3C(=O)CCc4ccccc43)CC2)c1)c1cc(=O)[n-]c(=O)[n-]1 (protonated)
O=C([N-]c1cccc(C(=O)N2CCC(N3C(=O)CCc4ccccc43)CC2)c1)c1cc(=O)[n-]c(=O)[n-]1 (3D coordinates assigned)
O=C([N-]c1cccc(C(=O)N2CCC(N3C(=O)CCc4ccccc43)CC2)c1)c1cc(=O)[n-]c(=O)[n-]1 (nonaromatic ring conformer: 89.00340766271586 kcal/mol)

> <smiles>
O=C(Nc1cccc(C(=O)N2CCC(N3C(=O)CCc4ccccc43)CC2)c1)c1cc(=O)[nH]c(=O)[nH]1

> <score_type>
oracle

> <origin>
adg

> <m_score__min__energy>
-16.699999999999999

> <m_primary>
energy

> <minimizedAffinity>
-9.94666

> <minimizedRMSD>
1.30595

> <CNNscore>
0.2873984277

> <CNNaffinity>
6.8233971596

> <CNN_VS>
1.9610335827

> <CNNaffinity_variance>
0.0131899370

$$$$
33:0


 33 36  0  0  0  0  0  0  0  0999 V2000
   59.3904   28.5333   46.9347 C   0  0  0  0  0  0  0  0  0  0  0  0
   58.9087   28.9226   48.1920 C   0  0  0  0  0  0  0  0  0  0  0  0
   59.2059   30.1890   48.6999 C   0  0  0  0  0  0  0  0  0  0  0  0
   59.9993   31.0816   47.9637 C   0  0  0  0  0  0  0  0  0  0  0  0
   60.4624   30.7000   46.6937 C   0  0  0  0  0  0  0  0  0  0  0  0
   60.1664   29.4327   46.1811 C   0  0  0  0  0  0  0  0  0  0  0  0
   60.7519   29.0006   44.5794 Cl  0  0  0  0  0  0  0  0  0  0  0  0
   60.3078   32.4284   48.4934 C   0  0  0  0  0  0  0  0  0  0  0  0
   59.4609   33.3529   48.3533 O   0  0  0  0  0  0  0  0  0  0  0  0
   61.5557   32.7058   49.1571 N   0  0  0  0  0  0  0  0  0  0  0  0
   62.8100   32.1845   48.5902 C   0  0  0  0  0  0  0  0  0  0  0  0
   64.0290   32.9676   49.0906 C   0  0  0  0  0  0  0  0  0  0  0  0
   63.9833   33.1158   50.5544 N   0  0  0  0  0  0  0  0  0  0  0  0
   65.1883   33.0963   51.3493 C   0  0  0  0  0  0  0  0  0  0  0  0
   66.5493   33.1585   50.7231 C   0  0  0  0  0  0  0  0  0  0  0  0
   65.1086   33.0115   52.6054 O   0  0  0  0  0  0  0  0  0  0  0  0
   62.7024   33.3979   51.2231 C   0  0  0  0  0  0  0  0  0  0  0  0
   61.5917   33.7175   50.2183 C   0  0  0  0  0  0  0  0  0  0  0  0
   57.1338   27.7679   45.1786 C   0  0  0  0  0  0  0  0  0  0  0  0
   58.0094   26.8746   45.6664 C   0  0  0  0  0  0  0  0  0  0  0  0
   58.0913   25.5087   45.3536 C   0  0  0  0  0  0  0  0  0  0  0  0
   57.2327   24.6972   44.7059 C   0  0  0  0  0  0  0  0  0  0  0  0
   59.2951   25.0628   45.8760 C   0  0  0  0  0  0  0  0  0  0  0  0
   59.8599   26.1294   46.5457 C   0  0  0  0  0  0  0  0  0  0  0  0
   61.1750   26.0897   47.2624 C   0  0  0  0  0  0  0  0  0  0  0  0
   59.0788   27.2249   46.4251 N   0  0  0  0  0  0  0  0  0  0  0  0
   56.1611   23.9068   45.3331 C   0  0  0  0  0  0  0  0  0  0  0  0
   56.0977   22.5624   45.3314 N   0  0  0  0  0  0  0  0  0  0  0  0
   54.8920   22.3071   45.8864 C   0  0  0  0  0  0  0  0  0  0  0  0
   54.4673   21.1385   46.0742 O   0  0  0  0  0  0  0  0  0  0  0  0
   54.1748   23.4036   46.2144 N   0  0  0  0  0  0  0  0  0  0  0  0
   54.9884   24.4059   45.8431 C   0  0  0  0  0  0  0  0  0  0  0  0
   54.6594   25.7511   45.9612 O   0  0  0  0  0  0  0  0  0  0  0  0
 19 20  2  0
 20 21  1  0
 21 22  2  0
 22 27  1  0
 27 28  1  0
 28 29  1  0
 29 30  2  0
 29 31  1  0
 31 32  1  0
 32 33  1  0
 21 23  1  0
 23 24  2  0
 24 25  1  0
 24 26  1  0
 26  1  1  0
  1  2  2  0
  2  3  1  0
  3  4  2  0
  4  8  1  0
  8  9  2  0
  8 10  1  0
 10 11  1  0
 11 12  1  0
 12 13  1  0
 13 14  1  0
 14 15  1  0
 14 16  2  0
 13 17  1  0
 17 18  1  0
  4  5  1  0
  5  6  2  0
  6  7  1  0
 26 20  1  0
  6  1  1  0
 32 27  2  0
 18 10  1  0
M  CHG 1  28  -1
M  CHG 1  31  -1
M  CHG 1  33  -1
M  END
> <UniqueID>
33

> <SMILES>
C=c1c(=Cc2[n-]c(=O)[n-]c2[O-])cc(C)n1-c1ccc(C(=O)N2CCN(C(C)=O)CC2)cc1Cl

> <Energy>
136.0821270315193

> <Genealogy>
C=c1c(=Cc2[n-]c(=O)[n-]c2[O-])cc(C)n1-c1ccc(C(=O)N2CCN(C(C)=O)CC2)cc1Cl (protonated)
C=c1c(=Cc2[n-]c(=O)[n-]c2[O-])cc(C)n1-c1ccc(C(=O)N2CCN(C(C)=O)CC2)cc1Cl (3D coordinates assigned)
C=c1c(=Cc2[n-]c(=O)[n-]c2[O-])cc(C)n1-c1ccc(C(=O)N2CCN(C(C)=O)CC2)cc1Cl (nonaromatic ring conformer: 136.0821270315193 kcal/mol)

> <smiles>
C=c1c(=Cc2[nH]c(=O)[nH]c2O)cc(C)n1-c1ccc(C(=O)N2CCN(C(C)=O)CC2)cc1Cl

> <score_type>
oracle

> <origin>
adg

> <m_score__min__energy>
-15.81

> <m_primary>
energy

> <minimizedAffinity>
-7.20779

> <minimizedRMSD>
0.93136

> <CNNscore>
0.0786706656

> <CNNaffinity>
6.3909931183

> <CNN_VS>
0.5027836561

> <CNNaffinity_variance>
0.1091435775

$$$$
37:0


 33 37  0  0  0  0  0  0  0  0999 V2000
   57.9409   25.9641   45.2084 C   0  0  0  0  0  0  0  0  0  0  0  0
   58.3967   27.1316   45.7071 C   0  0  0  0  0  0  0  0  0  0  0  0
   57.7256   28.3272   45.5252 C   0  0  0  0  0  0  0  0  0  0  0  0
   58.5102   29.3116   46.0818 C   0  0  0  0  0  0  0  0  0  0  0  0
   59.6348   28.7858   46.6207 N   0  0  0  0  0  0  0  0  0  0  0  0
   59.5649   27.4387   46.4247 C   0  0  0  0  0  0  0  0  0  0  0  0
   60.4413   26.5640   46.9435 C   0  0  0  0  0  0  0  0  0  0  0  0
   54.9280   26.0905   45.9542 O   0  0  0  0  0  0  0  0  0  0  0  0
   55.8048   25.0624   46.2853 C   0  0  0  0  0  0  0  0  0  0  0  0
   55.4538   24.0075   47.0390 N   0  0  0  0  0  0  0  0  0  0  0  0
   56.6086   23.3182   47.1450 C   0  0  0  0  0  0  0  0  0  0  0  0
   56.6992   22.2449   47.7985 O   0  0  0  0  0  0  0  0  0  0  0  0
   57.6619   23.8742   46.5095 N   0  0  0  0  0  0  0  0  0  0  0  0
   57.1383   24.9709   45.9373 C   0  0  0  0  0  0  0  0  0  0  0  0
   54.0368   26.0570   46.2416 H   0  0  0  0  0  0  0  0  0  0  0  0
   58.1722   30.7405   46.0480 C   0  0  0  0  0  0  0  0  0  0  0  0
   58.1305   31.3974   47.1219 O   0  0  0  0  0  0  0  0  0  0  0  0
   57.9521   31.4034   44.8048 N   0  0  0  0  0  0  0  0  0  0  0  0
   58.1187   31.1192   43.3660 C   0  0  0  0  0  0  0  0  0  0  0  0
   57.7475   32.4859   42.8928 C   0  0  0  0  0  0  0  0  0  0  0  0
   57.5908   32.7578   44.3532 C   0  0  0  0  0  0  0  0  0  0  0  0
   60.7857   29.5652   47.1092 C   0  0  0  0  0  0  0  0  0  0  0  0
   60.6823   29.7904   48.6218 C   0  0  0  0  0  0  0  0  0  0  0  0
   61.7379   30.7208   49.0849 N   0  0  0  0  0  0  0  0  0  0  0  0
   62.2134   31.6288   48.0245 C   0  0  0  0  0  0  0  0  0  0  0  0
   61.2096   32.7077   47.7112 C   0  0  0  0  0  0  0  0  0  0  0  0
   61.2260   33.3293   46.4527 C   0  0  0  0  0  0  0  0  0  0  0  0
   60.3459   34.3782   46.1728 C   0  0  0  0  0  0  0  0  0  0  0  0
   59.4536   34.8205   47.1500 C   0  0  0  0  0  0  0  0  0  0  0  0
   59.4388   34.2177   48.4105 C   0  0  0  0  0  0  0  0  0  0  0  0
   60.3221   33.1670   48.7050 C   0  0  0  0  0  0  0  0  0  0  0  0
   60.2518   32.5085   50.0615 C   0  0  0  0  0  0  0  0  0  0  0  0
   61.3700   31.4756   50.3026 C   0  0  0  0  0  0  0  0  0  0  0  0
  8  9  1  0
  9 10  1  0
 10 11  1  0
 11 12  2  0
 11 13  1  0
 13 14  1  0
 14  1  1  0
  1  2  2  0
  2  3  1  0
  3  4  2  0
  4 16  1  0
 16 17  2  0
 16 18  1  0
 18 19  1  0
 19 20  1  0
 20 21  1  0
  4  5  1  0
  5 22  1  0
 22 23  1  0
 23 24  1  0
 24 25  1  0
 25 26  1  0
 26 27  2  0
 27 28  1  0
 28 29  2  0
 29 30  1  0
 30 31  2  0
 31 32  1  0
 32 33  1  0
  5  6  1  0
  6  7  2  0
 14  9  2  0
  6  2  1  0
 21 18  1  0
 33 24  1  0
 31 26  1  0
  8 15  1  0
M  CHG 1  10  -1
M  CHG 1  13  -1
M  END
> <UniqueID>
37

> <SMILES>
C=c1/c(=C\c2[n-]c(=O)[n-]c2O)cc(C(=O)N2CCC2)n1CCN1CCc2ccccc2C1

> <Energy>
184.031689088047

> <Genealogy>
C=c1c(=Cc2[n-]c(=O)[n-]c2O)cc(C(=O)N2CCC2)n1CCN1CCc2ccccc2C1 (protonated)
C=c1/c(=C\c2[n-]c(=O)[n-]c2O)cc(C(=O)N2CCC2)n1CCN1CCc2ccccc2C1 (cis-trans isomerization)
C=c1/c(=C\c2[n-]c(=O)[n-]c2O)cc(C(=O)N2CCC2)n1CCN1CCc2ccccc2C1 (3D coordinates assigned)
C=c1/c(=C\c2[n-]c(=O)[n-]c2O)cc(C(=O)N2CCC2)n1CCN1CCc2ccccc2C1 (nonaromatic ring conformer: 184.031689088047 kcal/mol)

> <smiles>
C=c1c(=Cc2[nH]c(=O)[nH]c2O)cc(C(=O)N2CCC2)n1CCN1CCc2ccccc2C1

> <score_type>
oracle

> <origin>
adg

> <m_score__min__energy>
-14.289999999999999

> <m_primary>
energy

> <minimizedAffinity>
-8.57306

> <minimizedRMSD>
0.92129

> <CNNscore>
0.2115118057

> <CNNaffinity>
6.7649798393

> <CNN_VS>
1.4308731556

> <CNNaffinity_variance>
0.1022749543

$$$$
65:0


 37 41  0  0  0  0  0  0  0  0999 V2000
   58.7773   30.3159   51.8250 C   0  0  0  0  0  0  0  0  0  0  0  0
   59.0755   30.6146   50.5457 C   0  0  0  0  0  0  0  0  0  0  0  0
   59.5563   29.6724   49.6515 C   0  0  0  0  0  0  0  0  0  0  0  0
   59.6802   30.3009   48.4284 C   0  0  0  0  0  0  0  0  0  0  0  0
   59.3397   31.6048   48.5388 N   0  0  0  0  0  0  0  0  0  0  0  0
   58.9839   31.8221   49.8316 C   0  0  0  0  0  0  0  0  0  0  0  0
   58.6920   33.0371   50.3214 C   0  0  0  0  0  0  0  0  0  0  0  0
   56.5725   32.4223   52.2245 O   0  0  0  0  0  0  0  0  0  0  0  0
   56.4392   31.0642   52.4983 C   0  0  0  0  0  0  0  0  0  0  0  0
   55.2971   30.4923   52.9124 N   0  0  0  0  0  0  0  0  0  0  0  0
   55.6339   29.1861   52.9942 C   0  0  0  0  0  0  0  0  0  0  0  0
   54.8175   28.2969   53.3493 O   0  0  0  0  0  0  0  0  0  0  0  0
   56.9111   28.9072   52.6548 N   0  0  0  0  0  0  0  0  0  0  0  0
   57.4272   30.1152   52.3683 C   0  0  0  0  0  0  0  0  0  0  0  0
   55.8425   32.9978   52.3422 H   0  0  0  0  0  0  0  0  0  0  0  0
   60.1990   29.6576   47.2040 C   0  0  0  0  0  0  0  0  0  0  0  0
   61.2493   30.1079   46.6691 O   0  0  0  0  0  0  0  0  0  0  0  0
   59.5340   28.5214   46.6176 N   0  0  0  0  0  0  0  0  0  0  0  0
   58.0625   28.4941   46.5697 C   0  0  0  0  0  0  0  0  0  0  0  0
   57.5506   27.4549   45.5703 C   0  0  0  0  0  0  0  0  0  0  0  0
   58.2480   26.1828   45.7781 N   0  0  0  0  0  0  0  0  0  0  0  0
   59.7081   26.1539   45.9369 C   0  0  0  0  0  0  0  0  0  0  0  0
   60.3165   27.5581   45.8309 C   0  0  0  0  0  0  0  0  0  0  0  0
   57.5119   24.9506   45.7955 C   0  0  0  0  0  0  0  0  0  0  0  0
   58.1759   23.7317   45.5874 C   0  0  0  0  0  0  0  0  0  0  0  0
   57.4651   22.5281   45.6001 C   0  0  0  0  0  0  0  0  0  0  0  0
   56.0858   22.5333   45.8243 C   0  0  0  0  0  0  0  0  0  0  0  0
   55.4161   23.7412   46.0387 C   0  0  0  0  0  0  0  0  0  0  0  0
   56.1233   24.9487   46.0283 C   0  0  0  0  0  0  0  0  0  0  0  0
   55.4469   26.1407   46.2643 O   0  0  0  0  0  0  0  0  0  0  0  0
   59.3686   32.5716   47.4731 C   0  0  0  0  0  0  0  0  0  0  0  0
   60.2717   33.6452   47.5205 C   0  0  0  0  0  0  0  0  0  0  0  0
   60.3130   34.5744   46.4762 C   0  0  0  0  0  0  0  0  0  0  0  0
   59.4602   34.4336   45.3789 C   0  0  0  0  0  0  0  0  0  0  0  0
   58.5635   33.3621   45.3228 C   0  0  0  0  0  0  0  0  0  0  0  0
   58.5166   32.4312   46.3647 C   0  0  0  0  0  0  0  0  0  0  0  0
   57.6398   31.3974   46.3029 F   0  0  0  0  0  0  0  0  0  0  0  0
  8  9  1  0
  9 10  1  0
 10 11  1  0
 11 12  2  0
 11 13  1  0
 13 14  1  0
 14  1  1  0
  1  2  2  0
  2  3  1  0
  3  4  2  0
  4 16  1  0
 16 17  2  0
 16 18  1  0
 18 19  1  0
 19 20  1  0
 20 21  1  0
 21 24  1  0
 24 25  2  0
 25 26  1  0
 26 27  2  0
 27 28  1  0
 28 29  2  0
 29 30  1  0
 21 22  1  0
 22 23  1  0
  4  5  1  0
  5 31  1  0
 31 32  2  0
 32 33  1  0
 33 34  2  0
 34 35  1  0
 35 36  2  0
 36 37  1  0
  5  6  1  0
  6  7  2  0
 14  9  2  0
  6  2  1  0
 23 18  1  0
 36 31  1  0
 29 24  1  0
  8 15  1  0
M  CHG 1  10  -1
M  CHG 1  13  -1
M  CHG 1  30  -1
M  END
> <UniqueID>
64

> <SMILES>
C=c1/c(=C\c2[n-]c(=O)[n-]c2O)cc(C(=O)N2CCN(c3ccccc3[O-])CC2)n1-c1ccccc1F

> <Energy>
148.36553318186898

> <Genealogy>
C=c1c(=Cc2[n-]c(=O)[n-]c2O)cc(C(=O)N2CCN(c3ccccc3[O-])CC2)n1-c1ccccc1F (protonated)
C=c1/c(=C\c2[n-]c(=O)[n-]c2O)cc(C(=O)N2CCN(c3ccccc3[O-])CC2)n1-c1ccccc1F (cis-trans isomerization)
C=c1/c(=C\c2[n-]c(=O)[n-]c2O)cc(C(=O)N2CCN(c3ccccc3[O-])CC2)n1-c1ccccc1F (3D coordinates assigned)
C=c1/c(=C\c2[n-]c(=O)[n-]c2O)cc(C(=O)N2CCN(c3ccccc3[O-])CC2)n1-c1ccccc1F (nonaromatic ring conformer: 148.36553318186898 kcal/mol)

> <smiles>
C=c1c(=Cc2[nH]c(=O)[nH]c2O)cc(C(=O)N2CCN(c3ccccc3O)CC2)n1-c1ccccc1F

> <score_type>
oracle

> <origin>
adg

> <m_score__min__energy>
-15.029999999999999

> <m_primary>
energy

> <minimizedAffinity>
-8.32781

> <minimizedRMSD>
0.66138

> <CNNscore>
0.0911578909

> <CNNaffinity>
6.2092785835

> <CNN_VS>
0.5660247207

> <CNNaffinity_variance>
0.4211564064

$$$$
66:0


 36 40  0  0  0  0  0  0  0  0999 V2000
   60.3955   28.3100   48.9675 C   0  0  0  0  0  0  0  0  0  0  0  0
   60.8405   29.5634   48.8029 C   0  0  0  0  0  0  0  0  0  0  0  0
   60.7680   30.3381   47.6338 C   0  0  0  0  0  0  0  0  0  0  0  0
   60.4254   30.0079   46.3725 C   0  0  0  0  0  0  0  0  0  0  0  0
   61.1071   31.6312   48.0026 C   0  0  0  0  0  0  0  0  0  0  0  0
   61.4138   31.5946   49.3458 C   0  0  0  0  0  0  0  0  0  0  0  0
   61.2817   30.3380   49.8291 N   0  0  0  0  0  0  0  0  0  0  0  0
   61.8153   32.7591   50.1538 C   0  0  0  0  0  0  0  0  0  0  0  0
   60.9090   33.5066   50.6147 O   0  0  0  0  0  0  0  0  0  0  0  0
   63.2032   33.0958   50.3573 N   0  0  0  0  0  0  0  0  0  0  0  0
   64.2589   32.0999   50.0948 C   0  0  0  0  0  0  0  0  0  0  0  0
   65.6403   32.5916   50.5531 C   0  0  0  0  0  0  0  0  0  0  0  0
   65.5788   33.2683   51.9393 C   0  0  0  0  0  0  0  0  0  0  0  0
   64.5106   34.3950   52.0102 C   0  0  0  0  0  0  0  0  0  0  0  0
   63.5908   34.4516   50.7799 C   0  0  0  0  0  0  0  0  0  0  0  0
   65.3925   32.2406   53.0318 C   0  0  0  0  0  0  0  0  0  0  0  0
   66.4291   30.9426   53.3035 S   0  0  0  0  0  0  0  0  0  0  0  0
   65.5046   30.3030   54.5535 C   0  0  0  0  0  0  0  0  0  0  0  0
   64.3924   31.1210   54.7193 C   0  0  0  0  0  0  0  0  0  0  0  0
   64.3340   32.1827   53.8733 N   0  0  0  0  0  0  0  0  0  0  0  0
   63.6005   32.8394   53.8725 H   0  0  0  0  0  0  0  0  0  0  0  0
   59.1295   29.4543   45.9615 C   0  0  0  0  0  0  0  0  0  0  0  0
   58.8410   28.1389   45.9524 N   0  0  0  0  0  0  0  0  0  0  0  0
   57.5426   28.1091   45.5770 C   0  0  0  0  0  0  0  0  0  0  0  0
   56.9016   27.0352   45.4324 O   0  0  0  0  0  0  0  0  0  0  0  0
   56.9837   29.3232   45.3695 N   0  0  0  0  0  0  0  0  0  0  0  0
   58.0009   30.1625   45.6222 C   0  0  0  0  0  0  0  0  0  0  0  0
   57.8953   31.5465   45.5509 O   0  0  0  0  0  0  0  0  0  0  0  0
   61.4724   29.9273   51.2307 C   0  0  0  0  0  0  0  0  0  0  0  0
   60.7968   30.8927   52.1719 C   0  0  0  0  0  0  0  0  0  0  0  0
   61.5035   31.6068   52.9348 O   0  0  0  0  0  0  0  0  0  0  0  0
   59.3616   30.9639   52.2666 N   0  0  0  0  0  0  0  0  0  0  0  0
   58.6762   31.7999   53.2353 C   0  0  0  0  0  0  0  0  0  0  0  0
   57.2089   31.3986   53.1627 C   0  0  0  0  0  0  0  0  0  0  0  0
   57.0472   30.6316   51.8531 C   0  0  0  0  0  0  0  0  0  0  0  0
   58.4460   30.1772   51.4556 C   0  0  0  0  0  0  0  0  0  0  0  0
  1  2  2  0
  2  3  1  0
  3  4  2  0
  4 22  1  0
 22 23  1  0
 23 24  1  0
 24 25  2  0
 24 26  1  0
 26 27  1  0
 27 28  1  0
  3  5  1  0
  5  6  2  0
  6  8  1  0
  8  9  2  0
  8 10  1  0
 10 11  1  0
 11 12  1  0
 12 13  1  0
 13 16  1  0
 16 17  1  0
 17 18  1  0
 18 19  2  0
 19 20  1  0
 13 14  1  0
 14 15  1  0
  6  7  1  0
  7 29  1  0
 29 30  1  0
 30 31  2  0
 30 32  1  0
 32 33  1  0
 33 34  1  0
 34 35  1  0
 35 36  1  0
  7  2  1  0
 36 32  1  0
 27 22  2  0
 15 10  1  0
 20 16  2  0
 20 21  1  0
M  CHG 1  20   1
M  CHG 1  23  -1
M  CHG 1  26  -1
M  CHG 1  28  -1
M  END
> <UniqueID>
65

> <SMILES>
C=c1/c(=C\c2[n-]c(=O)[n-]c2[O-])cc(C(=O)N2CCC(c3[nH+]ccs3)CC2)n1CC(=O)N1CCCC1

> <Energy>
171.8775173230636

> <Genealogy>
C=c1c(=Cc2[n-]c(=O)[n-]c2[O-])cc(C(=O)N2CCC(c3[nH+]ccs3)CC2)n1CC(=O)N1CCCC1 (protonated)
C=c1/c(=C\c2[n-]c(=O)[n-]c2[O-])cc(C(=O)N2CCC(c3[nH+]ccs3)CC2)n1CC(=O)N1CCCC1 (cis-trans isomerization)
C=c1/c(=C\c2[n-]c(=O)[n-]c2[O-])cc(C(=O)N2CCC(c3[nH+]ccs3)CC2)n1CC(=O)N1CCCC1 (3D coordinates assigned)
C=c1/c(=C\c2[n-]c(=O)[n-]c2[O-])cc(C(=O)N2CCC(c3[nH+]ccs3)CC2)n1CC(=O)N1CCCC1 (nonaromatic ring conformer: 171.8775173230636 kcal/mol)

> <smiles>
C=c1c(=Cc2[nH]c(=O)[nH]c2O)cc(C(=O)N2CCC(c3nccs3)CC2)n1CC(=O)N1CCCC1

> <score_type>
oracle

> <origin>
adg

> <m_score__min__energy>
-15.550000000000001

> <m_primary>
energy

> <minimizedAffinity>
-6.99840

> <minimizedRMSD>
2.88740

> <CNNscore>
0.1109934226

> <CNNaffinity>
6.4597568512

> <CNN_VS>
0.7169905305

> <CNNaffinity_variance>
0.0214750078

$$$$
69:0


 28 30  0  0  0  0  0  0  0  0999 V2000
   59.3044   30.0845   46.2625 C   0  0  0  0  0  0  0  0  0  0  0  0
   59.8118   29.2536   47.1865 C   0  0  0  0  0  0  0  0  0  0  0  0
   59.9244   27.8569   47.0773 C   0  0  0  0  0  0  0  0  0  0  0  0
   59.7707   27.0343   46.0202 C   0  0  0  0  0  0  0  0  0  0  0  0
   60.2740   27.3968   48.3333 C   0  0  0  0  0  0  0  0  0  0  0  0
   60.4417   28.5042   49.1341 C   0  0  0  0  0  0  0  0  0  0  0  0
   60.8283   28.4412   50.5809 C   0  0  0  0  0  0  0  0  0  0  0  0
   60.1634   29.6380   48.4472 N   0  0  0  0  0  0  0  0  0  0  0  0
   58.8031   25.9299   45.9243 C   0  0  0  0  0  0  0  0  0  0  0  0
   59.1120   24.6249   46.0449 N   0  0  0  0  0  0  0  0  0  0  0  0
   57.9063   24.0164   46.0289 C   0  0  0  0  0  0  0  0  0  0  0  0
   57.7772   22.7669   46.1077 O   0  0  0  0  0  0  0  0  0  0  0  0
   56.8498   24.8528   45.9335 N   0  0  0  0  0  0  0  0  0  0  0  0
   57.4364   26.0595   45.8824 C   0  0  0  0  0  0  0  0  0  0  0  0
   56.7352   27.2565   45.8075 O   0  0  0  0  0  0  0  0  0  0  0  0
   60.1807   30.9979   49.0144 C   0  0  0  0  0  0  0  0  0  0  0  0
   61.2411   31.8496   48.3501 C   0  0  0  0  0  0  0  0  0  0  0  0
   62.5654   31.3811   48.2932 C   0  0  0  0  0  0  0  0  0  0  0  0
   63.5643   32.1453   47.6886 C   0  0  0  0  0  0  0  0  0  0  0  0
   63.2545   33.3829   47.1289 C   0  0  0  0  0  0  0  0  0  0  0  0
   61.9453   33.8654   47.1788 C   0  0  0  0  0  0  0  0  0  0  0  0
   60.9299   33.1141   47.8016 C   0  0  0  0  0  0  0  0  0  0  0  0
   59.6050   33.5765   47.8441 O   0  0  0  0  0  0  0  0  0  0  0  0
   58.9146   34.1720   46.7815 C   0  0  0  0  0  0  0  0  0  0  0  0
   59.2717   35.2883   46.3194 O   0  0  0  0  0  0  0  0  0  0  0  0
   57.6702   33.5203   46.2673 C   0  0  0  0  0  0  0  0  0  0  0  0
   57.5074   33.7965   44.8895 O   0  0  0  0  0  0  0  0  0  0  0  0
   57.9982   32.7258   44.1135 C   0  0  0  0  0  0  0  0  0  0  0  0
  1  2  2  0
  2  3  1  0
  3  4  2  0
  4  9  1  0
  9 10  1  0
 10 11  1  0
 11 12  2  0
 11 13  1  0
 13 14  1  0
 14 15  1  0
  3  5  1  0
  5  6  2  0
  6  7  1  0
  6  8  1  0
  8 16  1  0
 16 17  1  0
 17 18  2  0
 18 19  1  0
 19 20  2  0
 20 21  1  0
 21 22  2  0
 22 23  1  0
 23 24  1  0
 24 25  2  0
 24 26  1  0
 26 27  1  0
 27 28  1  0
  8  2  1  0
 22 17  1  0
 14  9  2  0
M  CHG 1  10  -1
M  CHG 1  13  -1
M  CHG 1  15  -1
M  END
> <UniqueID>
68

> <SMILES>
C=c1c(=Cc2[n-]c(=O)[n-]c2[O-])cc(C)n1Cc1ccccc1OC(=O)COC

> <Energy>
121.52998326051686

> <Genealogy>
C=c1c(=Cc2[n-]c(=O)[n-]c2[O-])cc(C)n1Cc1ccccc1OC(=O)COC (protonated)
C=c1c(=Cc2[n-]c(=O)[n-]c2[O-])cc(C)n1Cc1ccccc1OC(=O)COC (3D coordinates assigned)
C=c1c(=Cc2[n-]c(=O)[n-]c2[O-])cc(C)n1Cc1ccccc1OC(=O)COC (optimized conformer: 121.52998326051686 kcal/mol)

> <smiles>
C=c1c(=Cc2[nH]c(=O)[nH]c2O)cc(C)n1Cc1ccccc1OC(=O)COC

> <score_type>
oracle

> <origin>
adg

> <m_score__min__energy>
-15.119999999999999

> <m_primary>
energy

> <minimizedAffinity>
-7.72151

> <minimizedRMSD>
1.46003

> <CNNscore>
0.4269101322

> <CNNaffinity>
6.1952538490

> <CNN_VS>
2.6448166370

> <CNNaffinity_variance>
0.0644532368

$$$$
72:0


 35 38  0  0  0  0  0  0  0  0999 V2000
   59.4624   34.0253   46.1488 S   0  0  0  0  0  0  0  0  0  0  0  0
   59.3244   35.1651   45.1793 O   0  0  0  0  0  0  0  0  0  0  0  0
   58.7503   34.3956   47.4197 O   0  0  0  0  0  0  0  0  0  0  0  0
   58.7172   32.5881   45.4530 C   0  0  0  0  0  0  0  0  0  0  0  0
   58.1462   32.6370   44.1740 C   0  0  0  0  0  0  0  0  0  0  0  0
   57.5894   31.4863   43.6117 C   0  0  0  0  0  0  0  0  0  0  0  0
   57.6004   30.2826   44.3193 C   0  0  0  0  0  0  0  0  0  0  0  0
   58.1597   30.2198   45.6077 C   0  0  0  0  0  0  0  0  0  0  0  0
   58.7265   31.3801   46.1634 C   0  0  0  0  0  0  0  0  0  0  0  0
   58.1996   28.9412   46.3552 C   0  0  0  0  0  0  0  0  0  0  0  0
   59.0906   28.7655   47.2281 O   0  0  0  0  0  0  0  0  0  0  0  0
   57.2931   27.8628   46.0764 N   0  0  0  0  0  0  0  0  0  0  0  0
   57.6016   26.5990   46.0110 C   0  0  0  0  0  0  0  0  0  0  0  0
   58.8996   26.1982   45.8777 N   0  0  0  0  0  0  0  0  0  0  0  0
   59.2434   24.8851   45.7946 C   0  0  0  0  0  0  0  0  0  0  0  0
   58.2559   23.8998   45.8353 C   0  0  0  0  0  0  0  0  0  0  0  0
   56.9182   24.2795   45.9598 C   0  0  0  0  0  0  0  0  0  0  0  0
   56.5836   25.6331   46.0445 C   0  0  0  0  0  0  0  0  0  0  0  0
   55.2505   26.0105   46.1635 O   0  0  0  0  0  0  0  0  0  0  0  0
   61.1452   33.7783   46.4879 N   0  0  0  0  0  0  0  0  0  0  0  0
   63.0540   31.2258   51.2756 C   0  0  0  0  0  0  0  0  0  0  0  0
   62.5384   31.9231   50.0426 C   0  0  0  0  0  0  0  0  0  0  0  0
   63.3207   31.8974   48.8767 C   0  0  0  0  0  0  0  0  0  0  0  0
   62.8712   32.5112   47.7069 C   0  0  0  0  0  0  0  0  0  0  0  0
   61.6222   33.1445   47.6766 C   0  0  0  0  0  0  0  0  0  0  0  0
   60.8601   33.2202   48.8455 C   0  0  0  0  0  0  0  0  0  0  0  0
   61.3104   32.6265   50.0331 C   0  0  0  0  0  0  0  0  0  0  0  0
   60.4755   32.7513   51.2440 C   0  0  0  0  0  0  0  0  0  0  0  0
   60.8677   33.5055   52.1745 O   0  0  0  0  0  0  0  0  0  0  0  0
   59.2430   32.0145   51.3837 N   0  0  0  0  0  0  0  0  0  0  0  0
   58.1263   32.5891   52.1416 C   0  0  0  0  0  0  0  0  0  0  0  0
   57.3098   31.4709   52.7973 C   0  0  0  0  0  0  0  0  0  0  0  0
   56.9440   30.4906   51.8436 O   0  0  0  0  0  0  0  0  0  0  0  0
   58.1025   29.8411   51.3608 C   0  0  0  0  0  0  0  0  0  0  0  0
   58.9853   30.8151   50.5760 C   0  0  0  0  0  0  0  0  0  0  0  0
 21 22  1  0
 22 23  2  0
 23 24  1  0
 24 25  2  0
 25 20  1  0
 20  1  1  0
  1  2  2  0
  1  3  2  0
  1  4  1  0
  4  5  2  0
  5  6  1  0
  6  7  2  0
  7  8  1  0
  8 10  1  0
 10 11  2  0
 10 12  1  0
 12 13  2  0
 13 14  1  0
 14 15  1  0
 15 16  2  0
 16 17  1  0
 17 18  2  0
 18 19  1  0
  8  9  2  0
 25 26  1  0
 26 27  2  0
 27 28  1  0
 28 29  2  0
 28 30  1  0
 30 31  1  0
 31 32  1  0
 32 33  1  0
 33 34  1  0
 34 35  1  0
 27 22  1  0
 35 30  1  0
  9  4  1  0
 18 13  1  0
M  CHG 1  14  -1
M  CHG 1  19  -1
M  CHG 1  20  -1
M  END
> <UniqueID>
71

> <SMILES>
Cc1ccc([N-]S(=O)(=O)c2cccc(C(=O)N=c3[n-]cccc3[O-])c2)cc1C(=O)N1CCOCC1

> <Energy>
86.11312891226088

> <Genealogy>
Cc1ccc([N-]S(=O)(=O)c2cccc(C(=O)N=c3[n-]cccc3[O-])c2)cc1C(=O)N1CCOCC1 (protonated)
Cc1ccc([N-]S(=O)(=O)c2cccc(C(=O)N=c3[n-]cccc3[O-])c2)cc1C(=O)N1CCOCC1 (3D coordinates assigned)
Cc1ccc([N-]S(=O)(=O)c2cccc(C(=O)N=c3[n-]cccc3[O-])c2)cc1C(=O)N1CCOCC1 (nonaromatic ring conformer: 86.11312891226088 kcal/mol)

> <smiles>
Cc1ccc(NS(=O)(=O)c2cccc(C(=O)N=c3[nH]cccc3O)c2)cc1C(=O)N1CCOCC1

> <score_type>
oracle

> <origin>
adg

> <m_score__min__energy>
-17.199999999999999

> <m_primary>
energy

> <minimizedAffinity>
-9.00565

> <minimizedRMSD>
0.75053

> <CNNscore>
0.4079445302

> <CNNaffinity>
7.0174369812

> <CNN_VS>
2.8627250195

> <CNNaffinity_variance>
0.0044706934

$$$$
82:0


 32 35  0  0  0  0  0  0  0  0999 V2000
   60.3071   33.1958   51.8962 N   0  0  0  0  0  0  0  0  0  0  0  0
   59.1058   33.8910   52.4067 C   0  0  0  0  0  0  0  0  0  0  0  0
   58.0116   32.8928   52.8267 C   0  0  0  0  0  0  0  0  0  0  0  0
   57.9766   31.7430   51.9166 N   0  0  0  0  0  0  0  0  0  0  0  0
   57.5544   30.4426   52.3674 C   0  0  0  0  0  0  0  0  0  0  0  0
   58.3227   29.4614   52.1916 O   0  0  0  0  0  0  0  0  0  0  0  0
   58.5660   31.8889   50.5818 C   0  0  0  0  0  0  0  0  0  0  0  0
   60.0202   32.3998   50.6741 C   0  0  0  0  0  0  0  0  0  0  0  0
   56.2195   30.2129   52.9766 C   0  0  0  0  0  0  0  0  0  0  0  0
   55.0219   30.1722   52.2868 C   0  0  0  0  0  0  0  0  0  0  0  0
   54.0182   29.9908   53.2259 C   0  0  0  0  0  0  0  0  0  0  0  0
   52.6935   29.9367   52.9759 C   0  0  0  0  0  0  0  0  0  0  0  0
   54.6488   29.9420   54.4706 C   0  0  0  0  0  0  0  0  0  0  0  0
   54.0400   29.8009   55.6605 C   0  0  0  0  0  0  0  0  0  0  0  0
   55.9937   30.0615   54.3074 N   0  0  0  0  0  0  0  0  0  0  0  0
   52.0808   30.3026   51.6846 C   0  0  0  0  0  0  0  0  0  0  0  0
   52.1090   29.5032   50.6039 N   0  0  0  0  0  0  0  0  0  0  0  0
   51.5238   30.2526   49.6433 C   0  0  0  0  0  0  0  0  0  0  0  0
   51.3531   29.8365   48.4682 O   0  0  0  0  0  0  0  0  0  0  0  0
   51.1494   31.4879   50.0377 N   0  0  0  0  0  0  0  0  0  0  0  0
   51.5205   31.5108   51.3279 C   0  0  0  0  0  0  0  0  0  0  0  0
   51.3897   32.6283   52.1444 O   0  0  0  0  0  0  0  0  0  0  0  0
   57.0153   30.0196   55.3672 C   0  0  0  0  0  0  0  0  0  0  0  0
   57.5129   28.5917   55.5792 C   0  0  0  0  0  0  0  0  0  0  0  0
   60.9778   32.3981   52.9460 C   0  0  0  0  0  0  0  0  0  0  0  0
   63.1394   33.7024   52.7999 C   0  0  0  0  0  0  0  0  0  0  0  0
   62.1393   33.1698   53.5162 C   0  0  0  0  0  0  0  0  0  0  0  0
   63.5114   33.3026   51.4330 C   0  0  0  0  0  0  0  0  0  0  0  0
   63.1479   34.1918   50.0542 S   0  0  0  0  0  0  0  0  0  0  0  0
   63.7113   33.0601   48.9459 C   0  0  0  0  0  0  0  0  0  0  0  0
   64.1653   31.9516   49.6487 C   0  0  0  0  0  0  0  0  0  0  0  0
   64.0339   32.0751   51.0380 C   0  0  0  0  0  0  0  0  0  0  0  0
 26 27  2  0
 27 25  1  0
 25  1  1  0
  1  2  1  0
  2  3  1  0
  3  4  1  0
  4  5  1  0
  5  6  2  0
  5  9  1  0
  9 10  2  0
 10 11  1  0
 11 12  2  0
 12 16  1  0
 16 17  1  0
 17 18  1  0
 18 19  2  0
 18 20  1  0
 20 21  1  0
 21 22  1  0
 11 13  1  0
 13 14  2  0
 13 15  1  0
 15 23  1  0
 23 24  1  0
  4  7  1  0
  7  8  1  0
 26 28  1  0
 28 29  1  0
 29 30  1  0
 30 31  2  0
 31 32  1  0
  8  1  1  0
 32 28  2  0
 15  9  1  0
 21 16  2  0
M  CHG 1  17  -1
M  CHG 1  20  -1
M  CHG 1  22  -1
M  END
> <UniqueID>
80

> <SMILES>
C=c1/c(=C/c2[n-]c(=O)[n-]c2[O-])cc(C(=O)N2CCN(CC=Cc3cccs3)CC2)n1CC

> <Energy>
169.1100100626396

> <Genealogy>
C=c1c(=Cc2[n-]c(=O)[n-]c2[O-])cc(C(=O)N2CCN(CC=Cc3cccs3)CC2)n1CC (protonated)
C=c1/c(=C/c2[n-]c(=O)[n-]c2[O-])cc(C(=O)N2CCN(CC=Cc3cccs3)CC2)n1CC (cis-trans isomerization)
C=c1/c(=C/c2[n-]c(=O)[n-]c2[O-])cc(C(=O)N2CCN(CC=Cc3cccs3)CC2)n1CC (3D coordinates assigned)
C=c1/c(=C/c2[n-]c(=O)[n-]c2[O-])cc(C(=O)N2CCN(CC=Cc3cccs3)CC2)n1CC (nonaromatic ring conformer: 169.1100100626396 kcal/mol)

> <smiles>
C=c1c(=Cc2[nH]c(=O)[nH]c2O)cc(C(=O)N2CCN(CC=Cc3cccs3)CC2)n1CC

> <score_type>
oracle

> <origin>
adg

> <m_score__min__energy>
-18.260000000000002

> <m_primary>
energy

> <minimizedAffinity>
-5.23142

> <minimizedRMSD>
0.98774

> <CNNscore>
0.0930859596

> <CNNaffinity>
4.7495446205

> <CNN_VS>
0.4421159327

> <CNNaffinity_variance>
1.2821462154

$$$$
89:0


 29 31  0  0  0  0  0  0  0  0999 V2000
   58.6724   32.8120   46.8499 C   0  0  0  0  0  0  0  0  0  0  0  0
   57.6355   33.0740   47.5173 O   0  0  0  0  0  0  0  0  0  0  0  0
   58.7809   31.5307   46.2025 N   0  0  0  0  0  0  0  0  0  0  0  0
   58.5197   31.2990   44.8976 C   0  0  0  0  0  0  0  0  0  0  0  0
   57.9454   32.3081   43.9465 C   0  0  0  0  0  0  0  0  0  0  0  0
   58.7258   29.9701   44.5909 C   0  0  0  0  0  0  0  0  0  0  0  0
   59.1167   29.3467   45.7682 C   0  0  0  0  0  0  0  0  0  0  0  0
   59.3825   28.0351   45.9224 C   0  0  0  0  0  0  0  0  0  0  0  0
   59.0985   30.3339   46.7589 C   0  0  0  0  0  0  0  0  0  0  0  0
   59.2805   30.1393   48.0751 C   0  0  0  0  0  0  0  0  0  0  0  0
   58.3778   27.0339   46.3208 C   0  0  0  0  0  0  0  0  0  0  0  0
   58.6821   25.9052   46.9857 N   0  0  0  0  0  0  0  0  0  0  0  0
   57.5003   25.2576   47.0649 C   0  0  0  0  0  0  0  0  0  0  0  0
   57.3738   24.1457   47.6394 O   0  0  0  0  0  0  0  0  0  0  0  0
   56.4668   25.8906   46.4692 N   0  0  0  0  0  0  0  0  0  0  0  0
   57.0398   27.0073   45.9932 C   0  0  0  0  0  0  0  0  0  0  0  0
   56.3617   27.9539   45.2329 O   0  0  0  0  0  0  0  0  0  0  0  0
   59.7451   33.8711   46.7512 C   0  0  0  0  0  0  0  0  0  0  0  0
   61.1925   33.3834   46.9623 C   0  0  0  0  0  0  0  0  0  0  0  0
   62.4362   32.1750   50.8341 N   0  0  0  0  0  0  0  0  0  0  0  0
   61.9414   33.5692   50.6716 C   0  0  0  0  0  0  0  0  0  0  0  0
   61.8237   34.0184   49.2022 C   0  0  0  0  0  0  0  0  0  0  0  0
   61.4461   32.8863   48.3344 N   0  0  0  0  0  0  0  0  0  0  0  0
   62.4932   31.8361   48.3426 C   0  0  0  0  0  0  0  0  0  0  0  0
   63.2613   31.7535   49.6820 C   0  0  0  0  0  0  0  0  0  0  0  0
   63.0302   32.1706   51.6633 H   0  0  0  0  0  0  0  0  0  0  0  0
   61.3326   31.2137   51.0793 C   0  0  0  0  0  0  0  0  0  0  0  0
   58.9033   31.6751   51.3513 C   0  0  0  0  0  0  0  0  0  0  0  0
   60.1572   31.8601   51.7727 C   0  0  0  0  0  0  0  0  0  0  0  0
 28 29  2  0
 29 27  1  0
 27 20  1  0
 20 21  1  0
 21 22  1  0
 22 23  1  0
 23 19  1  0
 19 18  1  0
 18  1  1  0
  1  2  2  0
  1  3  1  0
  3  4  1  0
  4  5  1  0
  4  6  2  0
  6  7  1  0
  7  8  2  0
  8 11  1  0
 11 12  1  0
 12 13  1  0
 13 14  2  0
 13 15  1  0
 15 16  1  0
 16 17  1  0
  7  9  1  0
  9 10  2  0
 23 24  1  0
 24 25  1  0
 25 20  1  0
  9  3  1  0
 16 11  2  0
 20 26  1  0
M  CHG 1  12  -1
M  CHG 1  15  -1
M  CHG 1  17  -1
M  CHG 1  20   1
M  END
> <UniqueID>
87

> <SMILES>
C=CC[NH+]1CCN(CCC(=O)n2c(C)c/c(=C\c3[n-]c(=O)[n-]c3[O-])c2=C)CC1

> <Energy>
130.79640078154608

> <Genealogy>
C=CC[NH+]1CCN(CCC(=O)n2c(C)cc(=Cc3[n-]c(=O)[n-]c3[O-])c2=C)CC1 (protonated)
C=CC[NH+]1CCN(CCC(=O)n2c(C)c/c(=C\c3[n-]c(=O)[n-]c3[O-])c2=C)CC1 (cis-trans isomerization)
C=CC[NH+]1CCN(CCC(=O)n2c(C)c/c(=C\c3[n-]c(=O)[n-]c3[O-])c2=C)CC1 (3D coordinates assigned)
C=CC[NH+]1CCN(CCC(=O)n2c(C)c/c(=C\c3[n-]c(=O)[n-]c3[O-])c2=C)CC1 (nonaromatic ring conformer: 130.79640078154608 kcal/mol)

> <smiles>
C=CCN1CCN(CCC(=O)n2c(C)cc(=Cc3[nH]c(=O)[nH]c3O)c2=C)CC1

> <score_type>
oracle

> <origin>
adg

> <m_score__min__energy>
-14.210000000000001

> <m_primary>
energy

> <minimizedAffinity>
-6.71464

> <minimizedRMSD>
0.96158

> <CNNscore>
0.1362553835

> <CNNaffinity>
6.0536499023

> <CNN_VS>
0.8248423934

> <CNNaffinity_variance>
0.4729772806

$$$$
11:0


 31 34  0  0  0  0  0  0  0  0999 V2000
   59.7242   26.9280   47.9164 C   0  0  0  0  0  0  0  0  0  0  0  0
   59.1840   27.9377   47.2134 C   0  0  0  0  0  0  0  0  0  0  0  0
   58.6451   27.8450   45.9212 C   0  0  0  0  0  0  0  0  0  0  0  0
   58.3277   26.7732   45.1662 C   0  0  0  0  0  0  0  0  0  0  0  0
   58.4199   29.1394   45.5006 C   0  0  0  0  0  0  0  0  0  0  0  0
   58.7472   29.9753   46.5500 C   0  0  0  0  0  0  0  0  0  0  0  0
   59.2121   29.2471   47.6021 N   0  0  0  0  0  0  0  0  0  0  0  0
   57.6251   25.5687   45.6376 C   0  0  0  0  0  0  0  0  0  0  0  0
   58.2067   24.3740   45.8458 N   0  0  0  0  0  0  0  0  0  0  0  0
   57.2186   23.6380   46.3993 C   0  0  0  0  0  0  0  0  0  0  0  0
   57.3726   22.4333   46.7298 O   0  0  0  0  0  0  0  0  0  0  0  0
   56.0541   24.2982   46.5824 N   0  0  0  0  0  0  0  0  0  0  0  0
   56.3349   25.5228   46.1074 C   0  0  0  0  0  0  0  0  0  0  0  0
   55.4327   26.5789   46.1092 O   0  0  0  0  0  0  0  0  0  0  0  0
   58.5597   31.4537   46.5282 C   0  0  0  0  0  0  0  0  0  0  0  0
   57.8336   31.9925   47.4093 O   0  0  0  0  0  0  0  0  0  0  0  0
   59.1943   32.2696   45.5015 N   0  0  0  0  0  0  0  0  0  0  0  0
   58.1833   32.8752   44.6084 C   0  0  0  0  0  0  0  0  0  0  0  0
   57.4006   34.0132   45.3068 C   0  0  0  0  0  0  0  0  0  0  0  0
   57.9331   34.3467   46.5740 O   0  0  0  0  0  0  0  0  0  0  0  0
   59.3180   34.5962   46.4614 C   0  0  0  0  0  0  0  0  0  0  0  0
   60.0875   33.3179   46.0538 C   0  0  0  0  0  0  0  0  0  0  0  0
   59.7558   31.9967   44.7402 H   0  0  0  0  0  0  0  0  0  0  0  0
   59.5669   29.7831   48.9304 C   0  0  0  0  0  0  0  0  0  0  0  0
   60.6644   30.8116   48.8161 C   0  0  0  0  0  0  0  0  0  0  0  0
   61.6904   30.6473   47.8716 C   0  0  0  0  0  0  0  0  0  0  0  0
   62.7015   31.6049   47.7529 C   0  0  0  0  0  0  0  0  0  0  0  0
   62.7030   32.7389   48.5779 C   0  0  0  0  0  0  0  0  0  0  0  0
   63.7713   33.7806   48.4319 C   0  0  0  0  0  0  0  0  0  0  0  0
   61.6591   32.9231   49.4970 C   0  0  0  0  0  0  0  0  0  0  0  0
   60.6479   31.9643   49.6166 C   0  0  0  0  0  0  0  0  0  0  0  0
  1  2  2  0
  2  3  1  0
  3  4  2  0
  4  8  1  0
  8  9  1  0
  9 10  1  0
 10 11  2  0
 10 12  1  0
 12 13  1  0
 13 14  1  0
  3  5  1  0
  5  6  2  0
  6 15  1  0
 15 16  2  0
 15 17  1  0
 17 18  1  0
 18 19  1  0
 19 20  1  0
 20 21  1  0
 21 22  1  0
  6  7  1  0
  7 24  1  0
 24 25  1  0
 25 26  2  0
 26 27  1  0
 27 28  2  0
 28 29  1  0
 28 30  1  0
 30 31  2  0
  7  2  1  0
 31 25  1  0
 13  8  2  0
 22 17  1  0
 17 23  1  0
M  CHG 1   9  -1
M  CHG 1  12  -1
M  CHG 1  14  -1
M  CHG 1  17   1
M  END
> <UniqueID>
12

> <SMILES>
C=c1c(=Cc2[n-]c(=O)[n-]c2[O-])cc(C(=O)[NH+]2CCOCC2)n1Cc1ccc(C)cc1

> <Energy>
139.64606128417904

> <Genealogy>
C=c1c(=Cc2[n-]c(=O)[n-]c2[O-])cc(C(=O)[NH+]2CCOCC2)n1Cc1ccc(C)cc1 (protonated)
C=c1c(=Cc2[n-]c(=O)[n-]c2[O-])cc(C(=O)[NH+]2CCOCC2)n1Cc1ccc(C)cc1 (3D coordinates assigned)
C=c1c(=Cc2[n-]c(=O)[n-]c2[O-])cc(C(=O)[NH+]2CCOCC2)n1Cc1ccc(C)cc1 (nonaromatic ring conformer: 139.64606128417904 kcal/mol)

> <smiles>
C=c1c(=Cc2[nH]c(=O)[nH]c2O)cc(C(=O)N2CCOCC2)n1Cc1ccc(C)cc1

> <score_type>
oracle

> <origin>
adg

> <m_score__min__energy>
-15.210000000000001

> <m_primary>
energy

> <minimizedAffinity>
-7.47146

> <minimizedRMSD>
0.60129

> <CNNscore>
0.2205619812

> <CNNaffinity>
6.7075476646

> <CNN_VS>
1.4794299603

> <CNNaffinity_variance>
0.0252816062

$$$$
15:0


 37 40  0  0  0  0  0  0  0  0999 V2000
   59.1332   29.0944   45.2089 C   0  0  0  0  0  0  0  0  0  0  0  0
   59.9574   29.8742   46.0396 C   0  0  0  0  0  0  0  0  0  0  0  0
   59.5690   31.1522   46.4392 C   0  0  0  0  0  0  0  0  0  0  0  0
   58.3401   31.6881   46.0319 C   0  0  0  0  0  0  0  0  0  0  0  0
   57.4953   30.9048   45.2256 C   0  0  0  0  0  0  0  0  0  0  0  0
   57.8728   29.6131   44.8147 C   0  0  0  0  0  0  0  0  0  0  0  0
   56.9098   28.8121   43.9757 C   0  0  0  0  0  0  0  0  0  0  0  0
   57.9410   33.0455   46.4955 C   0  0  0  0  0  0  0  0  0  0  0  0
   57.0170   33.6465   45.8778 O   0  0  0  0  0  0  0  0  0  0  0  0
   58.6015   33.7074   47.6074 N   0  0  0  0  0  0  0  0  0  0  0  0
   59.7362   34.5530   47.1177 C   0  0  0  0  0  0  0  0  0  0  0  0
   61.1147   33.9211   47.3609 C   0  0  0  0  0  0  0  0  0  0  0  0
   61.2709   33.6595   48.7917 N   0  0  0  0  0  0  0  0  0  0  0  0
   60.1367   33.1023   49.4668 C   0  0  0  0  0  0  0  0  0  0  0  0
   60.1425   32.9258   50.7153 O   0  0  0  0  0  0  0  0  0  0  0  0
   58.9494   32.6935   48.6461 C   0  0  0  0  0  0  0  0  0  0  0  0
   59.5545   33.5026   47.4697 H   0  0  0  0  0  0  0  0  0  0  0  0
   62.4912   34.0381   49.5150 C   0  0  0  0  0  0  0  0  0  0  0  0
   63.4983   32.8851   49.5304 C   0  0  0  0  0  0  0  0  0  0  0  0
   64.2860   32.9022   48.3712 O   0  0  0  0  0  0  0  0  0  0  0  0
   63.7169   32.8025   47.5921 H   0  0  0  0  0  0  0  0  0  0  0  0
   59.5923   27.6987   44.8321 C   0  0  0  0  0  0  0  0  0  0  0  0
   58.1051   25.1653   44.0546 C   0  0  0  0  0  0  0  0  0  0  0  0
   58.2475   25.5797   45.3255 C   0  0  0  0  0  0  0  0  0  0  0  0
   57.8225   24.8950   46.4772 C   0  0  0  0  0  0  0  0  0  0  0  0
   57.0341   23.8123   46.6274 C   0  0  0  0  0  0  0  0  0  0  0  0
   58.3584   25.5786   47.5540 C   0  0  0  0  0  0  0  0  0  0  0  0
   59.0185   26.6753   47.0442 C   0  0  0  0  0  0  0  0  0  0  0  0
   59.7115   27.7093   47.8794 C   0  0  0  0  0  0  0  0  0  0  0  0
   58.9599   26.6828   45.6921 N   0  0  0  0  0  0  0  0  0  0  0  0
   55.5928   23.7535   46.3345 C   0  0  0  0  0  0  0  0  0  0  0  0
   54.8888   22.6168   46.1742 N   0  0  0  0  0  0  0  0  0  0  0  0
   53.6702   23.0582   45.7919 C   0  0  0  0  0  0  0  0  0  0  0  0
   52.7109   22.2779   45.5572 O   0  0  0  0  0  0  0  0  0  0  0  0
   53.5642   24.3992   45.6728 N   0  0  0  0  0  0  0  0  0  0  0  0
   54.7943   24.8217   46.0067 C   0  0  0  0  0  0  0  0  0  0  0  0
   55.1788   26.1567   46.0110 O   0  0  0  0  0  0  0  0  0  0  0  0
 23 24  2  0
 24 25  1  0
 25 26  2  0
 26 31  1  0
 31 32  1  0
 32 33  1  0
 33 34  2  0
 33 35  1  0
 35 36  1  0
 36 37  1  0
 25 27  1  0
 27 28  2  0
 28 29  1  0
 28 30  1  0
 30 22  1  0
 22  1  1  0
  1  2  2  0
  2  3  1  0
  3  4  2  0
  4  8  1  0
  8  9  2  0
 10  8  1  0
 10 11  1  0
 11 12  1  0
 12 13  1  0
 13 18  1  0
 18 19  1  0
 19 20  1  0
 13 14  1  0
 14 15  2  0
 14 16  1  0
  4  5  1  0
  5  6  2  0
  6  7  1  0
 30 24  1  0
  6  1  1  0
 36 31  2  0
 16 10  1  0
 10 17  1  0
 20 21  1  0
M  CHG 1  10   1
M  CHG 1  32  -1
M  CHG 1  35  -1
M  CHG 1  37  -1
M  END
> <UniqueID>
15

> <SMILES>
C=c1c(=Cc2[n-]c(=O)[n-]c2[O-])cc(C)n1Cc1ccc(C(=O)[N@@H+]2CCN(CCO)C(=O)C2)cc1C

> <Energy>
145.87390276346989

> <Genealogy>
C=c1c(=Cc2[n-]c(=O)[n-]c2[O-])cc(C)n1Cc1ccc(C(=O)[NH+]2CCN(CCO)C(=O)C2)cc1C (protonated)
C=c1c(=Cc2[n-]c(=O)[n-]c2[O-])cc(C)n1Cc1ccc(C(=O)[N@@H+]2CCN(CCO)C(=O)C2)cc1C (chirality)
C=c1c(=Cc2[n-]c(=O)[n-]c2[O-])cc(C)n1Cc1ccc(C(=O)[N@@H+]2CCN(CCO)C(=O)C2)cc1C (3D coordinates assigned)
C=c1c(=Cc2[n-]c(=O)[n-]c2[O-])cc(C)n1Cc1ccc(C(=O)[N@@H+]2CCN(CCO)C(=O)C2)cc1C (nonaromatic ring conformer: 145.87390276346989 kcal/mol)

> <smiles>
C=c1c(=Cc2[nH]c(=O)[nH]c2O)cc(C)n1Cc1ccc(C(=O)N2CCN(CCO)C(=O)C2)cc1C

> <score_type>
oracle

> <origin>
adg

> <m_score__min__energy>
-16.870000000000001

> <m_primary>
energy

> <minimizedAffinity>
-7.67901

> <minimizedRMSD>
0.87000

> <CNNscore>
0.0601013154

> <CNNaffinity>
6.0811820030

> <CNN_VS>
0.3654870391

> <CNNaffinity_variance>
0.2627753317

$$$$
16:0


 31 34  0  0  0  0  0  0  0  0999 V2000
   57.9157   31.6180   44.4926 C   0  0  0  0  0  0  0  0  0  0  0  0
   58.2616   31.1132   45.7501 C   0  0  0  0  0  0  0  0  0  0  0  0
   58.8826   31.9367   46.6956 C   0  0  0  0  0  0  0  0  0  0  0  0
   59.1397   33.2860   46.4030 C   0  0  0  0  0  0  0  0  0  0  0  0
   58.7786   33.7925   45.1422 C   0  0  0  0  0  0  0  0  0  0  0  0
   58.1548   32.9685   44.2018 C   0  0  0  0  0  0  0  0  0  0  0  0
   59.8136   34.1466   47.4000 C   0  0  0  0  0  0  0  0  0  0  0  0
   59.3778   35.3133   47.5982 O   0  0  0  0  0  0  0  0  0  0  0  0
   60.9569   33.6844   48.1446 N   0  0  0  0  0  0  0  0  0  0  0  0
   62.0397   32.9728   47.4443 C   0  0  0  0  0  0  0  0  0  0  0  0
   63.3511   33.0227   48.2343 C   0  0  0  0  0  0  0  0  0  0  0  0
   63.1234   32.6413   49.6372 N   0  0  0  0  0  0  0  0  0  0  0  0
   61.9264   33.1356   50.3397 C   0  0  0  0  0  0  0  0  0  0  0  0
   61.1657   34.1753   49.5100 C   0  0  0  0  0  0  0  0  0  0  0  0
   64.1434   31.9125   50.3584 C   0  0  0  0  0  0  0  0  0  0  0  0
   63.8199   30.8189   51.1857 C   0  0  0  0  0  0  0  0  0  0  0  0
   64.8351   30.1421   51.8670 C   0  0  0  0  0  0  0  0  0  0  0  0
   66.1611   30.5499   51.7207 C   0  0  0  0  0  0  0  0  0  0  0  0
   66.4529   31.6338   50.8926 C   0  0  0  0  0  0  0  0  0  0  0  0
   65.4526   32.2818   50.2412 N   0  0  0  0  0  0  0  0  0  0  0  0
   57.2521   30.7615   43.5546 N   0  0  0  0  0  0  0  0  0  0  0  0
   56.9586   28.6327   42.6893 O   0  0  0  0  0  0  0  0  0  0  0  0
   56.9989   29.3593   43.7179 C   0  0  0  0  0  0  0  0  0  0  0  0
   56.5987   28.7778   45.0508 C   0  0  0  0  0  0  0  0  0  0  0  0
   57.6011   27.7745   45.5407 C   0  0  0  0  0  0  0  0  0  0  0  0
   59.2752   27.9880   45.5106 S   0  0  0  0  0  0  0  0  0  0  0  0
   59.5625   26.4933   46.2210 C   0  0  0  0  0  0  0  0  0  0  0  0
   60.7064   26.0410   46.4845 O   0  0  0  0  0  0  0  0  0  0  0  0
   58.4259   25.8167   46.4885 N   0  0  0  0  0  0  0  0  0  0  0  0
   57.3333   26.5291   46.1094 C   0  0  0  0  0  0  0  0  0  0  0  0
   56.0471   26.0282   46.2761 O   0  0  0  0  0  0  0  0  0  0  0  0
 22 23  2  0
 23 24  1  0
 24 25  1  0
 25 26  1  0
 26 27  1  0
 27 28  2  0
 27 29  1  0
 29 30  1  0
 30 31  1  0
 23 21  1  0
 21  1  1  0
  1  2  2  0
  2  3  1  0
  3  4  2  0
  4  7  1  0
  7  8  2  0
  7  9  1  0
  9 10  1  0
 10 11  1  0
 11 12  1  0
 12 15  1  0
 15 16  2  0
 16 17  1  0
 17 18  2  0
 18 19  1  0
 19 20  2  0
 12 13  1  0
 13 14  1  0
  4  5  1  0
  5  6  2  0
 30 25  2  0
  6  1  1  0
 14  9  1  0
 20 15  1  0
M  CHG 1  21  -1
M  CHG 1  29  -1
M  CHG 1  31  -1
M  END
> <UniqueID>
16

> <SMILES>
O=C(Cc1sc(=O)[n-]c1[O-])[N-]c1ccc(C(=O)N2CCN(c3ccccn3)CC2)cc1

> <Energy>
96.00892721723444

> <Genealogy>
O=C(Cc1sc(=O)[n-]c1[O-])[N-]c1ccc(C(=O)N2CCN(c3ccccn3)CC2)cc1 (protonated)
O=C(Cc1sc(=O)[n-]c1[O-])[N-]c1ccc(C(=O)N2CCN(c3ccccn3)CC2)cc1 (3D coordinates assigned)
O=C(Cc1sc(=O)[n-]c1[O-])[N-]c1ccc(C(=O)N2CCN(c3ccccn3)CC2)cc1 (nonaromatic ring conformer: 96.00892721723444 kcal/mol)

> <smiles>
O=C(Cc1sc(=O)[nH]c1O)Nc1ccc(C(=O)N2CCN(c3ccccn3)CC2)cc1

> <score_type>
oracle

> <origin>
adg

> <m_score__min__energy>
-16.609999999999999

> <m_primary>
energy

> <minimizedAffinity>
-7.30402

> <minimizedRMSD>
0.88397

> <CNNscore>
0.4093359709

> <CNNaffinity>
6.5631995201

> <CNN_VS>
2.6865537167

> <CNNaffinity_variance>
0.0602730624

$$$$
25:0


 30 33  0  0  0  0  0  0  0  0999 V2000
   59.5434   34.7862   45.4228 O   0  0  0  0  0  0  0  0  0  0  0  0
   58.7715   34.0210   46.0604 C   0  0  0  0  0  0  0  0  0  0  0  0
   57.3843   33.7799   45.5586 C   0  0  0  0  0  0  0  0  0  0  0  0
   57.1095   32.3522   45.4120 N   0  0  0  0  0  0  0  0  0  0  0  0
   57.7704   31.4242   44.5377 C   0  0  0  0  0  0  0  0  0  0  0  0
   57.9513   31.7600   43.3386 O   0  0  0  0  0  0  0  0  0  0  0  0
   58.2749   30.1069   44.9923 C   0  0  0  0  0  0  0  0  0  0  0  0
   59.6345   29.9345   45.2922 C   0  0  0  0  0  0  0  0  0  0  0  0
   60.1173   28.7000   45.7261 C   0  0  0  0  0  0  0  0  0  0  0  0
   59.2392   27.6272   45.9187 C   0  0  0  0  0  0  0  0  0  0  0  0
   59.7203   26.3883   46.3723 C   0  0  0  0  0  0  0  0  0  0  0  0
   58.8359   25.3329   46.6027 C   0  0  0  0  0  0  0  0  0  0  0  0
   57.4675   25.5044   46.3875 C   0  0  0  0  0  0  0  0  0  0  0  0
   56.9753   26.7287   45.9268 C   0  0  0  0  0  0  0  0  0  0  0  0
   57.8534   27.7998   45.6767 C   0  0  0  0  0  0  0  0  0  0  0  0
   57.3798   29.0377   45.2006 C   0  0  0  0  0  0  0  0  0  0  0  0
   56.0237   29.2068   44.9270 O   0  0  0  0  0  0  0  0  0  0  0  0
   59.1867   33.4341   47.2968 N   0  0  0  0  0  0  0  0  0  0  0  0
   59.6432   34.2035   48.4477 C   0  0  0  0  0  0  0  0  0  0  0  0
   61.0713   33.8847   48.7659 C   0  0  0  0  0  0  0  0  0  0  0  0
   61.9184   33.4987   47.7738 N   0  0  0  0  0  0  0  0  0  0  0  0
   63.2063   33.1593   48.0344 C   0  0  0  0  0  0  0  0  0  0  0  0
   63.9564   32.8093   47.0858 O   0  0  0  0  0  0  0  0  0  0  0  0
   63.6828   33.1992   49.3553 C   0  0  0  0  0  0  0  0  0  0  0  0
   65.0031   32.8542   49.6940 C   0  0  0  0  0  0  0  0  0  0  0  0
   65.4300   32.9431   51.0231 C   0  0  0  0  0  0  0  0  0  0  0  0
   64.5466   33.3724   52.0180 C   0  0  0  0  0  0  0  0  0  0  0  0
   63.2294   33.7058   51.6918 C   0  0  0  0  0  0  0  0  0  0  0  0
   62.7922   33.6208   50.3663 C   0  0  0  0  0  0  0  0  0  0  0  0
   61.5140   33.9464   50.0483 N   0  0  0  0  0  0  0  0  0  0  0  0
  1  2  2  0
  2  3  1  0
  3  4  1  0
  4  5  1  0
  5  6  2  0
  5  7  1  0
  7  8  2  0
  8  9  1  0
  9 10  2  0
 10 11  1  0
 11 12  2  0
 12 13  1  0
 13 14  2  0
 14 15  1  0
 15 16  2  0
 16 17  1  0
  2 18  1  0
 18 19  1  0
 19 20  1  0
 20 21  2  0
 21 22  1  0
 22 23  2  0
 22 24  1  0
 24 25  2  0
 25 26  1  0
 26 27  2  0
 27 28  1  0
 28 29  2  0
 29 30  1  0
 16  7  1  0
 30 20  1  0
 15 10  1  0
 29 24  1  0
M  CHG 1   4  -1
M  CHG 1  17  -1
M  CHG 1  18  -1
M  CHG 1  30  -1
M  END
> <UniqueID>
24

> <SMILES>
O=C(C[N-]C(=O)c1ccc2ccccc2c1[O-])[N-]Cc1nc(=O)c2ccccc2[n-]1

> <Energy>
51.77082768833407

> <Genealogy>
O=C(C[N-]C(=O)c1ccc2ccccc2c1[O-])[N-]Cc1nc(=O)c2ccccc2[n-]1 (protonated)
O=C(C[N-]C(=O)c1ccc2ccccc2c1[O-])[N-]Cc1nc(=O)c2ccccc2[n-]1 (3D coordinates assigned)
O=C(C[N-]C(=O)c1ccc2ccccc2c1[O-])[N-]Cc1nc(=O)c2ccccc2[n-]1 (optimized conformer: 51.77082768833407 kcal/mol)

> <smiles>
O=C(CNC(=O)c1ccc2ccccc2c1O)NCc1nc(=O)c2ccccc2[nH]1

> <score_type>
oracle

> <origin>
adg

> <m_score__min__energy>
-16.199999999999999

> <m_primary>
energy

> <minimizedAffinity>
-8.57784

> <minimizedRMSD>
0.93824

> <CNNscore>
0.4255575538

> <CNNaffinity>
6.3649048805

> <CNN_VS>
2.7086334229

> <CNNaffinity_variance>
0.0893369690

$$$$
35:0


 38 42  0  0  0  0  0  0  0  0999 V2000
   61.1087   30.8245   53.6246 C   0  0  0  0  0  0  0  0  0  0  0  0
   61.8081   32.0242   53.8373 C   0  0  0  0  0  0  0  0  0  0  0  0
   62.7149   32.4913   52.8813 C   0  0  0  0  0  0  0  0  0  0  0  0
   62.9736   31.7428   51.7277 C   0  0  0  0  0  0  0  0  0  0  0  0
   62.2615   30.5567   51.5017 C   0  0  0  0  0  0  0  0  0  0  0  0
   61.3470   30.0927   52.4514 C   0  0  0  0  0  0  0  0  0  0  0  0
   63.9148   32.2609   50.7152 C   0  0  0  0  0  0  0  0  0  0  0  0
   65.0714   31.7524   50.6937 O   0  0  0  0  0  0  0  0  0  0  0  0
   63.6023   33.3656   49.8102 N   0  0  0  0  0  0  0  0  0  0  0  0
   62.2318   33.9162   49.9284 C   0  0  0  0  0  0  0  0  0  0  0  0
   61.1539   32.9683   49.3600 C   0  0  0  0  0  0  0  0  0  0  0  0
   61.4467   32.5248   47.9773 N   0  0  0  0  0  0  0  0  0  0  0  0
   62.8238   32.0012   47.8660 C   0  0  0  0  0  0  0  0  0  0  0  0
   63.8697   32.9954   48.4011 C   0  0  0  0  0  0  0  0  0  0  0  0
   63.0257   32.6429   50.1486 H   0  0  0  0  0  0  0  0  0  0  0  0
   61.1558   33.5589   46.9584 C   0  0  0  0  0  0  0  0  0  0  0  0
   59.8539   33.2733   46.2556 C   0  0  0  0  0  0  0  0  0  0  0  0
   59.1681   34.2973   45.5792 C   0  0  0  0  0  0  0  0  0  0  0  0
   57.9576   34.0270   44.9356 C   0  0  0  0  0  0  0  0  0  0  0  0
   57.4209   32.7362   44.9654 C   0  0  0  0  0  0  0  0  0  0  0  0
   58.0947   31.7134   45.6379 C   0  0  0  0  0  0  0  0  0  0  0  0
   59.3112   31.9760   46.2766 C   0  0  0  0  0  0  0  0  0  0  0  0
   60.1492   30.2890   54.6597 C   0  0  0  0  0  0  0  0  0  0  0  0
   58.3193   27.9608   54.0169 C   0  0  0  0  0  0  0  0  0  0  0  0
   57.9634   29.2462   53.8834 C   0  0  0  0  0  0  0  0  0  0  0  0
   56.7471   29.7451   53.4153 C   0  0  0  0  0  0  0  0  0  0  0  0
   55.6616   29.0365   53.0570 C   0  0  0  0  0  0  0  0  0  0  0  0
   56.7907   31.0961   53.4166 N   0  0  0  0  0  0  0  0  0  0  0  0
   58.0233   31.3865   53.8726 C   0  0  0  0  0  0  0  0  0  0  0  0
   58.4378   32.5691   54.0068 O   0  0  0  0  0  0  0  0  0  0  0  0
   58.7652   30.2990   54.1672 N   0  0  0  0  0  0  0  0  0  0  0  0
   54.3347   29.6420   52.8352 C   0  0  0  0  0  0  0  0  0  0  0  0
   53.8522   29.9319   51.6125 N   0  0  0  0  0  0  0  0  0  0  0  0
   52.6623   30.5171   51.8728 C   0  0  0  0  0  0  0  0  0  0  0  0
   51.8935   30.9261   50.9639 O   0  0  0  0  0  0  0  0  0  0  0  0
   52.3685   30.6416   53.1849 N   0  0  0  0  0  0  0  0  0  0  0  0
   53.4367   30.0898   53.7818 C   0  0  0  0  0  0  0  0  0  0  0  0
   53.6090   30.0528   55.1611 O   0  0  0  0  0  0  0  0  0  0  0  0
 24 25  2  0
 25 26  1  0
 26 27  2  0
 27 32  1  0
 32 33  1  0
 33 34  1  0
 34 35  2  0
 34 36  1  0
 36 37  1  0
 37 38  1  0
 26 28  1  0
 28 29  1  0
 29 30  2  0
 29 31  1  0
 31 23  1  0
 23  1  1  0
  1  2  2  0
  2  3  1  0
  3  4  2  0
  4  7  1  0
  7  8  2  0
  7  9  1  0
  9 10  1  0
 10 11  1  0
 11 12  1  0
 12 16  1  0
 16 17  1  0
 17 18  2  0
 18 19  1  0
 19 20  2  0
 20 21  1  0
 21 22  2  0
 12 13  1  0
 13 14  1  0
  4  5  1  0
  5  6  2  0
 31 25  1  0
  6  1  1  0
 37 32  2  0
 14  9  1  0
 22 17  1  0
  9 15  1  0
M  CHG 1   9   1
M  CHG 1  28  -1
M  CHG 1  33  -1
M  CHG 1  36  -1
M  CHG 1  38  -1
M  END
> <UniqueID>
33

> <SMILES>
C=c1/c(=C/c2[n-]c(=O)[n-]c2[O-])[n-]c(=O)n1Cc1ccc(C(=O)[NH+]2CCN(Cc3ccccc3)CC2)cc1

> <Energy>
153.87466747602306

> <Genealogy>
C=c1c(=Cc2[n-]c(=O)[n-]c2[O-])[n-]c(=O)n1Cc1ccc(C(=O)[NH+]2CCN(Cc3ccccc3)CC2)cc1 (protonated)
C=c1/c(=C/c2[n-]c(=O)[n-]c2[O-])[n-]c(=O)n1Cc1ccc(C(=O)[NH+]2CCN(Cc3ccccc3)CC2)cc1 (cis-trans isomerization)
C=c1/c(=C/c2[n-]c(=O)[n-]c2[O-])[n-]c(=O)n1Cc1ccc(C(=O)[NH+]2CCN(Cc3ccccc3)CC2)cc1 (3D coordinates assigned)
C=c1/c(=C/c2[n-]c(=O)[n-]c2[O-])[n-]c(=O)n1Cc1ccc(C(=O)[NH+]2CCN(Cc3ccccc3)CC2)cc1 (nonaromatic ring conformer: 153.87466747602306 kcal/mol)

> <smiles>
C=c1c(=Cc2[nH]c(=O)[nH]c2O)[nH]c(=O)n1Cc1ccc(C(=O)N2CCN(Cc3ccccc3)CC2)cc1

> <score_type>
oracle

> <origin>
adg

> <m_score__min__energy>
-18.690000000000001

> <m_primary>
energy

> <minimizedAffinity>
-7.67967

> <minimizedRMSD>
2.94595

> <CNNscore>
0.1074534357

> <CNNaffinity>
5.8145561218

> <CNN_VS>
0.6247940063

> <CNNaffinity_variance>
0.3172856867

$$$$
40:0


 24 26  0  0  0  0  0  0  0  0999 V2000
   60.6896   29.4390   46.0813 C   0  0  0  0  0  0  0  0  0  0  0  0
   59.5367   28.7609   45.8910 C   0  0  0  0  0  0  0  0  0  0  0  0
   59.5205   27.3544   46.0557 C   0  0  0  0  0  0  0  0  0  0  0  0
   60.5848   26.7400   46.3480 O   0  0  0  0  0  0  0  0  0  0  0  0
   58.3085   26.6541   45.8583 C   0  0  0  0  0  0  0  0  0  0  0  0
   58.1630   25.3189   46.0034 C   0  0  0  0  0  0  0  0  0  0  0  0
   57.2137   27.3552   45.4729 N   0  0  0  0  0  0  0  0  0  0  0  0
   57.2288   28.6985   45.3055 C   0  0  0  0  0  0  0  0  0  0  0  0
   56.1649   29.2798   44.9551 O   0  0  0  0  0  0  0  0  0  0  0  0
   58.3756   29.4129   45.5225 N   0  0  0  0  0  0  0  0  0  0  0  0
   57.1553   24.4789   45.3273 C   0  0  0  0  0  0  0  0  0  0  0  0
   57.5712   23.5497   44.3640 C   0  0  0  0  0  0  0  0  0  0  0  0
   56.6308   22.7667   43.6851 C   0  0  0  0  0  0  0  0  0  0  0  0
   57.0518   21.8376   42.7419 O   0  0  0  0  0  0  0  0  0  0  0  0
   55.2680   22.9217   43.9552 C   0  0  0  0  0  0  0  0  0  0  0  0
   54.8430   23.8642   44.8949 C   0  0  0  0  0  0  0  0  0  0  0  0
   55.7788   24.6513   45.5756 C   0  0  0  0  0  0  0  0  0  0  0  0
   55.3372   25.6023   46.4899 O   0  0  0  0  0  0  0  0  0  0  0  0
   58.3300   30.8440   45.3542 C   0  0  0  0  0  0  0  0  0  0  0  0
   58.5163   31.6915   46.4563 C   0  0  0  0  0  0  0  0  0  0  0  0
   58.4729   33.0784   46.2903 C   0  0  0  0  0  0  0  0  0  0  0  0
   58.2471   33.6259   45.0230 C   0  0  0  0  0  0  0  0  0  0  0  0
   58.0634   32.7855   43.9198 C   0  0  0  0  0  0  0  0  0  0  0  0
   58.1075   31.3968   44.0835 C   0  0  0  0  0  0  0  0  0  0  0  0
  1  2  2  0
  2  3  1  0
  3  4  2  0
  3  5  1  0
  5  6  2  0
  6 11  1  0
 11 12  2  0
 12 13  1  0
 13 14  1  0
 13 15  2  0
 15 16  1  0
 16 17  2  0
 17 18  1  0
  5  7  1  0
  7  8  1  0
  8  9  2  0
  8 10  1  0
 10 19  1  0
 19 20  2  0
 20 21  1  0
 21 22  2  0
 22 23  1  0
 23 24  2  0
 10  2  1  0
 24 19  1  0
 17 11  1  0
M  CHG 1   7  -1
M  CHG 1  14  -1
M  CHG 1  18  -1
M  END
> <UniqueID>
38

> <SMILES>
C=c1c(=O)c(=Cc2cc([O-])ccc2[O-])[n-]c(=O)n1-c1ccccc1

> <Energy>
67.44739856807777

> <Genealogy>
C=c1c(=O)c(=Cc2cc([O-])ccc2[O-])[n-]c(=O)n1-c1ccccc1 (protonated)
C=c1c(=O)c(=Cc2cc([O-])ccc2[O-])[n-]c(=O)n1-c1ccccc1 (3D coordinates assigned)
C=c1c(=O)c(=Cc2cc([O-])ccc2[O-])[n-]c(=O)n1-c1ccccc1 (optimized conformer: 67.44739856807777 kcal/mol)

> <smiles>
C=c1c(=O)c(=Cc2cc(O)ccc2O)[nH]c(=O)n1-c1ccccc1

> <score_type>
oracle

> <origin>
adg

> <m_score__min__energy>
-15.369999999999999

> <m_primary>
energy

> <minimizedAffinity>
-8.39721

> <minimizedRMSD>
0.78026

> <CNNscore>
0.2729988694

> <CNNaffinity>
5.8121018410

> <CNN_VS>
1.5866972208

> <CNNaffinity_variance>
0.1096218750

$$$$
8:0


 38 42  0  0  0  0  0  0  0  0999 V2000
   58.7030   30.9263   45.5643 C   0  0  0  0  0  0  0  0  0  0  0  0
   59.2117   31.4655   46.7558 C   0  0  0  0  0  0  0  0  0  0  0  0
   59.0952   32.8379   47.0154 C   0  0  0  0  0  0  0  0  0  0  0  0
   58.4972   33.6779   46.0655 C   0  0  0  0  0  0  0  0  0  0  0  0
   58.0052   33.1463   44.8697 C   0  0  0  0  0  0  0  0  0  0  0  0
   58.1022   31.7738   44.6203 C   0  0  0  0  0  0  0  0  0  0  0  0
   57.6194   31.2678   43.4583 F   0  0  0  0  0  0  0  0  0  0  0  0
   57.6335   26.2248   44.5045 C   0  0  0  0  0  0  0  0  0  0  0  0
   58.2460   27.3660   44.8772 C   0  0  0  0  0  0  0  0  0  0  0  0
   59.5833   27.4170   45.2446 C   0  0  0  0  0  0  0  0  0  0  0  0
   59.8822   28.7425   45.4851 C   0  0  0  0  0  0  0  0  0  0  0  0
   61.2232   29.2495   45.9257 C   0  0  0  0  0  0  0  0  0  0  0  0
   58.7808   29.5092   45.3248 N   0  0  0  0  0  0  0  0  0  0  0  0
   57.7584   28.6799   44.9864 C   0  0  0  0  0  0  0  0  0  0  0  0
   56.4737   29.0718   44.9586 C   0  0  0  0  0  0  0  0  0  0  0  0
   54.9577   26.2180   45.9703 O   0  0  0  0  0  0  0  0  0  0  0  0
   55.9325   25.2359   46.1033 C   0  0  0  0  0  0  0  0  0  0  0  0
   55.8329   24.1849   46.9354 N   0  0  0  0  0  0  0  0  0  0  0  0
   56.9995   23.5370   46.7326 C   0  0  0  0  0  0  0  0  0  0  0  0
   57.3010   22.4788   47.3421 O   0  0  0  0  0  0  0  0  0  0  0  0
   57.8239   24.1173   45.8311 N   0  0  0  0  0  0  0  0  0  0  0  0
   57.1208   25.1877   45.4145 C   0  0  0  0  0  0  0  0  0  0  0  0
   54.1739   26.1725   46.4818 H   0  0  0  0  0  0  0  0  0  0  0  0
   59.5867   33.3828   48.2923 C   0  0  0  0  0  0  0  0  0  0  0  0
   60.2688   34.4437   48.2651 O   0  0  0  0  0  0  0  0  0  0  0  0
   59.3359   32.7063   49.5455 N   0  0  0  0  0  0  0  0  0  0  0  0
   59.9023   33.2204   50.8028 C   0  0  0  0  0  0  0  0  0  0  0  0
   60.6415   32.1007   51.5413 C   0  0  0  0  0  0  0  0  0  0  0  0
   59.8551   30.8597   51.5532 N   0  0  0  0  0  0  0  0  0  0  0  0
   58.5158   30.8195   50.9589 C   0  0  0  0  0  0  0  0  0  0  0  0
   58.5448   31.4614   49.5668 C   0  0  0  0  0  0  0  0  0  0  0  0
   60.3241   29.7411   52.3195 C   0  0  0  0  0  0  0  0  0  0  0  0
   60.3070   29.8023   53.7194 C   0  0  0  0  0  0  0  0  0  0  0  0
   60.7505   28.7503   54.4558 N   0  0  0  0  0  0  0  0  0  0  0  0
   61.2172   27.6164   53.8702 C   0  0  0  0  0  0  0  0  0  0  0  0
   61.2515   27.5072   52.4777 C   0  0  0  0  0  0  0  0  0  0  0  0
   60.7886   28.5693   51.6863 C   0  0  0  0  0  0  0  0  0  0  0  0
   60.8390   28.4613   50.1880 C   0  0  0  0  0  0  0  0  0  0  0  0
 16 17  1  0
 17 18  1  0
 18 19  1  0
 19 20  2  0
 19 21  1  0
 21 22  1  0
 22  8  1  0
  8  9  2  0
  9 10  1  0
 10 11  2  0
 11 12  1  0
 11 13  1  0
 13  1  1  0
  1  2  2  0
  2  3  1  0
  3 24  1  0
 24 25  2  0
 24 26  1  0
 26 27  1  0
 27 28  1  0
 28 29  1  0
 29 32  1  0
 32 33  2  0
 33 34  1  0
 34 35  2  0
 35 36  1  0
 36 37  2  0
 37 38  1  0
 29 30  1  0
 30 31  1  0
  3  4  2  0
  4  5  1  0
  5  6  2  0
  6  7  1  0
 13 14  1  0
 14 15  2  0
 22 17  2  0
 14  9  1  0
  6  1  1  0
 31 26  1  0
 37 32  1  0
 16 23  1  0
M  CHG 1  18  -1
M  CHG 1  21  -1
M  END
> <UniqueID>
9

> <SMILES>
C=c1/c(=C\c2[n-]c(=O)[n-]c2O)cc(C)n1-c1cc(C(=O)N2CCN(c3cnccc3C)CC2)ccc1F

> <Energy>
153.99989680023597

> <Genealogy>
C=c1c(=Cc2[n-]c(=O)[n-]c2O)cc(C)n1-c1cc(C(=O)N2CCN(c3cnccc3C)CC2)ccc1F (protonated)
C=c1/c(=C\c2[n-]c(=O)[n-]c2O)cc(C)n1-c1cc(C(=O)N2CCN(c3cnccc3C)CC2)ccc1F (cis-trans isomerization)
C=c1/c(=C\c2[n-]c(=O)[n-]c2O)cc(C)n1-c1cc(C(=O)N2CCN(c3cnccc3C)CC2)ccc1F (3D coordinates assigned)
C=c1/c(=C\c2[n-]c(=O)[n-]c2O)cc(C)n1-c1cc(C(=O)N2CCN(c3cnccc3C)CC2)ccc1F (nonaromatic ring conformer: 153.99989680023597 kcal/mol)

> <smiles>
C=c1c(=Cc2[nH]c(=O)[nH]c2O)cc(C)n1-c1cc(C(=O)N2CCN(c3cnccc3C)CC2)ccc1F

> <score_type>
oracle

> <origin>
adg

> <m_score__min__energy>
-14.800000000000001

> <m_primary>
energy

> <minimizedAffinity>
-9.51176

> <minimizedRMSD>
0.83274

> <CNNscore>
0.4180507064

> <CNNaffinity>
7.5567536354

> <CNN_VS>
3.1591062546

> <CNNaffinity_variance>
0.0690871477

$$$$
18:0


 36 39  0  0  0  0  0  0  0  0999 V2000
   57.9399   26.5953   43.0252 C   0  0  0  0  0  0  0  0  0  0  0  0
   58.2381   26.3989   44.3215 C   0  0  0  0  0  0  0  0  0  0  0  0
   57.8799   25.2780   45.0854 C   0  0  0  0  0  0  0  0  0  0  0  0
   57.1927   24.1934   44.6651 C   0  0  0  0  0  0  0  0  0  0  0  0
   58.3351   25.5308   46.3711 C   0  0  0  0  0  0  0  0  0  0  0  0
   58.9628   26.7572   46.3404 C   0  0  0  0  0  0  0  0  0  0  0  0
   58.9160   27.2904   45.0960 N   0  0  0  0  0  0  0  0  0  0  0  0
   55.9587   23.6650   45.2866 C   0  0  0  0  0  0  0  0  0  0  0  0
   55.5825   22.3728   45.3236 N   0  0  0  0  0  0  0  0  0  0  0  0
   54.3840   22.4092   45.9429 C   0  0  0  0  0  0  0  0  0  0  0  0
   53.7049   21.3736   46.1647 O   0  0  0  0  0  0  0  0  0  0  0  0
   53.9650   23.6443   46.2924 N   0  0  0  0  0  0  0  0  0  0  0  0
   54.9702   24.4254   45.8674 C   0  0  0  0  0  0  0  0  0  0  0  0
   54.9828   25.8098   46.0067 O   0  0  0  0  0  0  0  0  0  0  0  0
   59.5045   27.4153   47.5448 C   0  0  0  0  0  0  0  0  0  0  0  0
   60.1407   26.7085   48.3772 O   0  0  0  0  0  0  0  0  0  0  0  0
   59.4612   28.8541   47.6942 N   0  0  0  0  0  0  0  0  0  0  0  0
   60.7983   29.4133   47.4261 C   0  0  0  0  0  0  0  0  0  0  0  0
   60.7124   30.9397   47.3238 C   0  0  0  0  0  0  0  0  0  0  0  0
   59.8080   31.4889   48.3463 N   0  0  0  0  0  0  0  0  0  0  0  0
   59.6414   32.9172   48.4335 C   0  0  0  0  0  0  0  0  0  0  0  0
   59.7387   33.4840   49.5561 O   0  0  0  0  0  0  0  0  0  0  0  0
   59.4114   30.6521   49.4866 C   0  0  0  0  0  0  0  0  0  0  0  0
   58.9662   29.2382   49.0426 C   0  0  0  0  0  0  0  0  0  0  0  0
   59.9043   28.2785   47.0297 H   0  0  0  0  0  0  0  0  0  0  0  0
   59.3411   33.7286   47.2318 C   0  0  0  0  0  0  0  0  0  0  0  0
   60.1090   34.8721   46.9426 C   0  0  0  0  0  0  0  0  0  0  0  0
   59.8431   35.6329   45.8006 C   0  0  0  0  0  0  0  0  0  0  0  0
   58.8154   35.2585   44.9333 C   0  0  0  0  0  0  0  0  0  0  0  0
   58.0555   34.1169   45.2029 C   0  0  0  0  0  0  0  0  0  0  0  0
   58.3157   33.3502   46.3430 C   0  0  0  0  0  0  0  0  0  0  0  0
   57.5533   32.2538   46.5882 F   0  0  0  0  0  0  0  0  0  0  0  0
   59.3553   28.6466   44.7262 C   0  0  0  0  0  0  0  0  0  0  0  0
   58.1767   29.4873   44.2350 C   0  0  0  0  0  0  0  0  0  0  0  0
   57.1860   29.5455   45.2394 O   0  0  0  0  0  0  0  0  0  0  0  0
   55.9569   29.9207   44.6606 C   0  0  0  0  0  0  0  0  0  0  0  0
  1  2  2  0
  2  3  1  0
  3  4  2  0
  4  8  1  0
  8  9  1  0
  9 10  1  0
 10 11  2  0
 10 12  1  0
 12 13  1  0
 13 14  1  0
  3  5  1  0
  5  6  2  0
  6 15  1  0
 15 16  2  0
 15 17  1  0
 17 18  1  0
 18 19  1  0
 19 20  1  0
 20 21  1  0
 21 22  2  0
 21 26  1  0
 26 27  2  0
 27 28  1  0
 28 29  2  0
 29 30  1  0
 30 31  2  0
 31 32  1  0
 20 23  1  0
 23 24  1  0
  6  7  1  0
  7 33  1  0
 33 34  1  0
 34 35  1  0
 35 36  1  0
  7  2  1  0
 13  8  2  0
 24 17  1  0
 31 26  1  0
 17 25  1  0
M  CHG 1   9  -1
M  CHG 1  12  -1
M  CHG 1  14  -1
M  CHG 1  17   1
M  END
> <UniqueID>
19

> <SMILES>
C=c1/c(=C/c2[n-]c(=O)[n-]c2[O-])cc(C(=O)[NH+]2CCN(C(=O)c3ccccc3F)CC2)n1CCOC

> <Energy>
142.82718826451918

> <Genealogy>
C=c1c(=Cc2[n-]c(=O)[n-]c2[O-])cc(C(=O)[NH+]2CCN(C(=O)c3ccccc3F)CC2)n1CCOC (protonated)
C=c1/c(=C/c2[n-]c(=O)[n-]c2[O-])cc(C(=O)[NH+]2CCN(C(=O)c3ccccc3F)CC2)n1CCOC (cis-trans isomerization)
C=c1/c(=C/c2[n-]c(=O)[n-]c2[O-])cc(C(=O)[NH+]2CCN(C(=O)c3ccccc3F)CC2)n1CCOC (3D coordinates assigned)
C=c1/c(=C/c2[n-]c(=O)[n-]c2[O-])cc(C(=O)[NH+]2CCN(C(=O)c3ccccc3F)CC2)n1CCOC (nonaromatic ring conformer: 142.82718826451918 kcal/mol)

> <smiles>
C=c1c(=Cc2[nH]c(=O)[nH]c2O)cc(C(=O)N2CCN(C(=O)c3ccccc3F)CC2)n1CCOC

> <score_type>
oracle

> <origin>
adg

> <m_score__min__energy>
-16.98

> <m_primary>
energy

> <minimizedAffinity>
-6.90403

> <minimizedRMSD>
0.63945

> <CNNscore>
0.1256855279

> <CNNaffinity>
6.7041802406

> <CNN_VS>
0.8426184058

> <CNNaffinity_variance>
0.0894905850

$$$$
19:0


 33 36  0  0  0  0  0  0  0  0999 V2000
   59.5019   28.6208   46.5048 N   0  0  0  0  0  0  0  0  0  0  0  0
   58.7890   28.6775   45.3583 C   0  0  0  0  0  0  0  0  0  0  0  0
   58.4309   29.9383   44.6324 C   0  0  0  0  0  0  0  0  0  0  0  0
   58.4314   27.4074   44.9494 C   0  0  0  0  0  0  0  0  0  0  0  0
   58.9436   26.5271   45.8941 C   0  0  0  0  0  0  0  0  0  0  0  0
   58.7947   25.1875   45.8951 C   0  0  0  0  0  0  0  0  0  0  0  0
   59.6005   27.3103   46.8472 C   0  0  0  0  0  0  0  0  0  0  0  0
   60.2690   26.8618   47.9213 C   0  0  0  0  0  0  0  0  0  0  0  0
   57.4931   24.5109   45.6983 C   0  0  0  0  0  0  0  0  0  0  0  0
   56.3369   25.0208   46.3083 C   0  0  0  0  0  0  0  0  0  0  0  0
   56.3930   26.1815   47.0707 O   0  0  0  0  0  0  0  0  0  0  0  0
   55.1475   24.3860   46.1475 N   0  0  0  0  0  0  0  0  0  0  0  0
   55.0539   23.2484   45.4126 C   0  0  0  0  0  0  0  0  0  0  0  0
   53.9406   22.6797   45.2720 O   0  0  0  0  0  0  0  0  0  0  0  0
   56.1626   22.7191   44.8340 N   0  0  0  0  0  0  0  0  0  0  0  0
   57.3758   23.3148   44.9667 C   0  0  0  0  0  0  0  0  0  0  0  0
   58.3872   22.7748   44.4442 O   0  0  0  0  0  0  0  0  0  0  0  0
   61.0474   31.9620   48.6362 C   0  0  0  0  0  0  0  0  0  0  0  0
   59.8590   31.3393   49.0540 C   0  0  0  0  0  0  0  0  0  0  0  0
   59.3547   30.2394   48.3547 C   0  0  0  0  0  0  0  0  0  0  0  0
   60.0251   29.7505   47.2255 C   0  0  0  0  0  0  0  0  0  0  0  0
   61.1975   30.3834   46.7922 C   0  0  0  0  0  0  0  0  0  0  0  0
   61.7022   31.4852   47.4894 C   0  0  0  0  0  0  0  0  0  0  0  0
   66.1756   34.2937   51.7842 O   0  0  0  0  0  0  0  0  0  0  0  0
   65.3177   33.1879   51.6542 C   0  0  0  0  0  0  0  0  0  0  0  0
   63.9546   33.4647   52.3354 C   0  0  0  0  0  0  0  0  0  0  0  0
   62.8943   33.9580   51.3443 C   0  0  0  0  0  0  0  0  0  0  0  0
   62.7482   33.0236   50.2175 N   0  0  0  0  0  0  0  0  0  0  0  0
   61.5878   33.1302   49.3675 C   0  0  0  0  0  0  0  0  0  0  0  0
   61.0146   34.2474   49.2408 O   0  0  0  0  0  0  0  0  0  0  0  0
   63.8495   32.1091   49.8723 C   0  0  0  0  0  0  0  0  0  0  0  0
   65.1965   32.7727   50.1691 C   0  0  0  0  0  0  0  0  0  0  0  0
   66.2424   34.5430   52.7192 H   0  0  0  0  0  0  0  0  0  0  0  0
 24 25  1  0
 25 26  1  0
 26 27  1  0
 27 28  1  0
 28 29  1  0
 29 30  2  0
 29 18  1  0
 18 19  2  0
 19 20  1  0
 20 21  2  0
 21  1  1  0
  1  2  1  0
  2  3  1  0
  2  4  2  0
  4  5  1  0
  5  6  2  0
  6  9  1  0
  9 10  2  0
 10 11  1  0
 10 12  1  0
 12 13  1  0
 13 14  2  0
 13 15  1  0
 15 16  1  0
 16 17  2  0
  5  7  1  0
  7  8  2  0
 21 22  1  0
 22 23  2  0
 28 31  1  0
 31 32  1  0
 32 25  1  0
 23 18  1  0
  7  1  1  0
 16  9  1  0
 24 33  1  0
M  CHG 1  11  -1
M  CHG 1  12  -1
M  CHG 1  15  -1
M  END
> <UniqueID>
20

> <SMILES>
C=c1/c(=C/c2c([O-])[n-]c(=O)[n-]c2=O)cc(C)n1-c1ccc(C(=O)N2CCC(O)CC2)cc1

> <Energy>
108.29257159403278

> <Genealogy>
C=c1c(=Cc2c([O-])[n-]c(=O)[n-]c2=O)cc(C)n1-c1ccc(C(=O)N2CCC(O)CC2)cc1 (protonated)
C=c1/c(=C/c2c([O-])[n-]c(=O)[n-]c2=O)cc(C)n1-c1ccc(C(=O)N2CCC(O)CC2)cc1 (cis-trans isomerization)
C=c1/c(=C/c2c([O-])[n-]c(=O)[n-]c2=O)cc(C)n1-c1ccc(C(=O)N2CCC(O)CC2)cc1 (3D coordinates assigned)
C=c1/c(=C/c2c([O-])[n-]c(=O)[n-]c2=O)cc(C)n1-c1ccc(C(=O)N2CCC(O)CC2)cc1 (nonaromatic ring conformer: 108.29257159403278 kcal/mol)

> <smiles>
C=c1c(=Cc2c(O)[nH]c(=O)[nH]c2=O)cc(C)n1-c1ccc(C(=O)N2CCC(O)CC2)cc1

> <score_type>
oracle

> <origin>
adg

> <m_score__min__energy>
-15.880000000000001

> <m_primary>
energy

> <minimizedAffinity>
-9.12828

> <minimizedRMSD>
1.23073

> <CNNscore>
0.1036395803

> <CNNaffinity>
6.1165575981

> <CNN_VS>
0.6339174509

> <CNNaffinity_variance>
0.0817472637

$$$$
32:0


 33 35  0  0  0  0  0  0  0  0999 V2000
   55.6579   30.1584   44.3097 O   0  0  0  0  0  0  0  0  0  0  0  0
   56.8221   30.0720   44.7732 C   0  0  0  0  0  0  0  0  0  0  0  0
   57.1451   28.8911   45.6490 C   0  0  0  0  0  0  0  0  0  0  0  0
   56.5978   27.6552   45.0983 N   0  0  0  0  0  0  0  0  0  0  0  0
   56.6000   26.3940   45.7844 C   0  0  0  0  0  0  0  0  0  0  0  0
   55.5340   26.0003   46.3217 O   0  0  0  0  0  0  0  0  0  0  0  0
   57.8254   25.5688   45.9189 C   0  0  0  0  0  0  0  0  0  0  0  0
   57.9895   24.5608   45.1792 O   0  0  0  0  0  0  0  0  0  0  0  0
   58.9007   25.9456   46.7848 N   0  0  0  0  0  0  0  0  0  0  0  0
   59.5291   27.2324   46.8791 C   0  0  0  0  0  0  0  0  0  0  0  0
   59.7943   27.8433   48.1256 C   0  0  0  0  0  0  0  0  0  0  0  0
   60.4870   29.0618   48.1741 C   0  0  0  0  0  0  0  0  0  0  0  0
   60.9053   29.6815   46.9914 C   0  0  0  0  0  0  0  0  0  0  0  0
   61.5633   30.8675   47.0435 F   0  0  0  0  0  0  0  0  0  0  0  0
   60.6494   29.0744   45.7547 C   0  0  0  0  0  0  0  0  0  0  0  0
   59.9728   27.8503   45.6985 C   0  0  0  0  0  0  0  0  0  0  0  0
   59.7478   27.2579   44.4918 F   0  0  0  0  0  0  0  0  0  0  0  0
   57.7751   31.0804   44.3999 N   0  0  0  0  0  0  0  0  0  0  0  0
   58.3069   32.1839   45.1492 C   0  0  0  0  0  0  0  0  0  0  0  0
   58.3884   33.4315   44.5183 C   0  0  0  0  0  0  0  0  0  0  0  0
   58.8673   34.5469   45.2093 C   0  0  0  0  0  0  0  0  0  0  0  0
   59.2619   34.4240   46.5415 C   0  0  0  0  0  0  0  0  0  0  0  0
   59.1479   33.1946   47.2028 C   0  0  0  0  0  0  0  0  0  0  0  0
   58.6649   32.0753   46.5026 C   0  0  0  0  0  0  0  0  0  0  0  0
   59.6724   33.0459   48.8897 S   0  0  0  0  0  0  0  0  0  0  0  0
   58.8294   32.0035   49.5700 O   0  0  0  0  0  0  0  0  0  0  0  0
   59.4312   34.3575   49.5799 O   0  0  0  0  0  0  0  0  0  0  0  0
   61.3483   32.5671   49.0592 N   0  0  0  0  0  0  0  0  0  0  0  0
   62.2531   33.6943   48.7919 C   0  0  0  0  0  0  0  0  0  0  0  0
   63.7169   33.2054   48.8297 C   0  0  0  0  0  0  0  0  0  0  0  0
   63.9029   32.0294   49.6112 O   0  0  0  0  0  0  0  0  0  0  0  0
   63.0960   32.0617   50.7680 C   0  0  0  0  0  0  0  0  0  0  0  0
   61.6125   31.9439   50.3726 C   0  0  0  0  0  0  0  0  0  0  0  0
  1  2  2  0
  2  3  1  0
  3  4  1  0
  4  5  1  0
  5  6  2  0
  5  7  1  0
  7  8  2  0
  7  9  1  0
  9 10  1  0
 10 11  2  0
 11 12  1  0
 12 13  2  0
 13 14  1  0
 13 15  1  0
 15 16  2  0
 16 17  1  0
  2 18  1  0
 18 19  1  0
 19 20  2  0
 20 21  1  0
 21 22  2  0
 22 23  1  0
 23 25  1  0
 25 26  2  0
 25 27  2  0
 25 28  1  0
 28 29  1  0
 29 30  1  0
 30 31  1  0
 31 32  1  0
 32 33  1  0
 23 24  2  0
 16 10  1  0
 24 19  1  0
 33 28  1  0
M  CHG 1   4  -1
M  CHG 1   9  -1
M  CHG 1  18  -1
M  END
> <UniqueID>
33

> <SMILES>
O=C(C[N-]C(=O)C(=O)[N-]c1ccc(F)cc1F)[N-]c1cccc(S(=O)(=O)N2CCOCC2)c1

> <Energy>
71.18294114413614

> <Genealogy>
O=C(C[N-]C(=O)C(=O)[N-]c1ccc(F)cc1F)[N-]c1cccc(S(=O)(=O)N2CCOCC2)c1 (protonated)
O=C(C[N-]C(=O)C(=O)[N-]c1ccc(F)cc1F)[N-]c1cccc(S(=O)(=O)N2CCOCC2)c1 (3D coordinates assigned)
O=C(C[N-]C(=O)C(=O)[N-]c1ccc(F)cc1F)[N-]c1cccc(S(=O)(=O)N2CCOCC2)c1 (nonaromatic ring conformer: 71.18294114413614 kcal/mol)

> <smiles>
O=C(CNC(=O)C(=O)Nc1ccc(F)cc1F)Nc1cccc(S(=O)(=O)N2CCOCC2)c1

> <score_type>
oracle

> <origin>
adg

> <m_score__min__energy>
-14.470000000000001

> <m_primary>
energy

> <minimizedAffinity>
-6.62954

> <minimizedRMSD>
1.08385

> <CNNscore>
0.8449592590

> <CNNaffinity>
7.4001603127

> <CNN_VS>
6.2528338432

> <CNNaffinity_variance>
0.0489868559

$$$$
33:0


 29 32  0  0  0  0  0  0  0  0999 V2000
   59.4967   28.0084   45.5259 C   0  0  0  0  0  0  0  0  0  0  0  0
   59.2311   29.2977   45.8159 C   0  0  0  0  0  0  0  0  0  0  0  0
   58.7601   30.1895   44.8715 C   0  0  0  0  0  0  0  0  0  0  0  0
   58.5010   31.3715   45.5290 C   0  0  0  0  0  0  0  0  0  0  0  0
   57.9619   32.5999   44.8590 C   0  0  0  0  0  0  0  0  0  0  0  0
   58.8449   31.2782   46.8363 N   0  0  0  0  0  0  0  0  0  0  0  0
   59.3198   30.0129   47.0233 C   0  0  0  0  0  0  0  0  0  0  0  0
   59.9054   29.5870   48.1557 C   0  0  0  0  0  0  0  0  0  0  0  0
   56.4240   28.0443   45.3779 O   0  0  0  0  0  0  0  0  0  0  0  0
   57.2004   26.9362   45.7090 C   0  0  0  0  0  0  0  0  0  0  0  0
   56.6823   25.7491   46.0626 N   0  0  0  0  0  0  0  0  0  0  0  0
   57.7814   25.0049   46.3072 C   0  0  0  0  0  0  0  0  0  0  0  0
   57.7186   23.8040   46.6786 O   0  0  0  0  0  0  0  0  0  0  0  0
   58.9539   25.6508   46.1326 N   0  0  0  0  0  0  0  0  0  0  0  0
   58.5759   26.8773   45.7262 C   0  0  0  0  0  0  0  0  0  0  0  0
   55.4891   27.9837   45.3963 H   0  0  0  0  0  0  0  0  0  0  0  0
   58.7134   32.3661   47.8240 C   0  0  0  0  0  0  0  0  0  0  0  0
   60.0244   32.6318   48.5289 C   0  0  0  0  0  0  0  0  0  0  0  0
   61.1713   32.9321   47.7786 C   0  0  0  0  0  0  0  0  0  0  0  0
   62.3937   33.1732   48.4107 C   0  0  0  0  0  0  0  0  0  0  0  0
   62.4989   33.1275   49.8134 C   0  0  0  0  0  0  0  0  0  0  0  0
   61.3432   32.8391   50.5639 C   0  0  0  0  0  0  0  0  0  0  0  0
   60.1188   32.5976   49.9328 C   0  0  0  0  0  0  0  0  0  0  0  0
   59.0016   32.3262   50.7138 O   0  0  0  0  0  0  0  0  0  0  0  0
   63.7653   33.3739   50.4687 N   0  0  0  0  0  0  0  0  0  0  0  0
   65.0449   32.8778   49.9790 C   0  0  0  0  0  0  0  0  0  0  0  0
   66.0641   33.2185   51.0574 C   0  0  0  0  0  0  0  0  0  0  0  0
   65.4094   34.2896   51.9216 C   0  0  0  0  0  0  0  0  0  0  0  0
   63.9110   34.1460   51.6952 C   0  0  0  0  0  0  0  0  0  0  0  0
  9 10  1  0
 10 11  1  0
 11 12  1  0
 12 13  2  0
 12 14  1  0
 14 15  1  0
 15  1  1  0
  1  2  2  0
  2  3  1  0
  3  4  2  0
  4  5  1  0
  4  6  1  0
  6 17  1  0
 17 18  1  0
 18 19  2  0
 19 20  1  0
 20 21  2  0
 21 25  1  0
 25 26  1  0
 26 27  1  0
 27 28  1  0
 28 29  1  0
 21 22  1  0
 22 23  2  0
 23 24  1  0
  6  7  1  0
  7  8  2  0
 15 10  2  0
  7  2  1  0
 23 18  1  0
 29 25  1  0
  9 16  1  0
M  CHG 1  11  -1
M  CHG 1  14  -1
M  CHG 1  24  -1
M  END
> <UniqueID>
34

> <SMILES>
C=c1/c(=C\c2[n-]c(=O)[n-]c2O)cc(C)n1Cc1ccc(N2CCCC2)cc1[O-]

> <Energy>
122.79741935068047

> <Genealogy>
C=c1c(=Cc2[n-]c(=O)[n-]c2O)cc(C)n1Cc1ccc(N2CCCC2)cc1[O-] (protonated)
C=c1/c(=C\c2[n-]c(=O)[n-]c2O)cc(C)n1Cc1ccc(N2CCCC2)cc1[O-] (cis-trans isomerization)
C=c1/c(=C\c2[n-]c(=O)[n-]c2O)cc(C)n1Cc1ccc(N2CCCC2)cc1[O-] (3D coordinates assigned)
C=c1/c(=C\c2[n-]c(=O)[n-]c2O)cc(C)n1Cc1ccc(N2CCCC2)cc1[O-] (nonaromatic ring conformer: 122.79741935068047 kcal/mol)

> <smiles>
C=c1c(=Cc2[nH]c(=O)[nH]c2O)cc(C)n1Cc1ccc(N2CCCC2)cc1O

> <score_type>
oracle

> <origin>
adg

> <m_score__min__energy>
-14.050000000000001

> <m_primary>
energy

> <minimizedAffinity>
-8.55864

> <minimizedRMSD>
0.95377

> <CNNscore>
0.6897955537

> <CNNaffinity>
7.1418547630

> <CNN_VS>
4.9264197350

> <CNNaffinity_variance>
0.2159426957

$$$$
34:0


 34 36  0  0  0  0  0  0  0  0999 V2000
   59.5100   31.2661   48.8707 C   0  0  0  0  0  0  0  0  0  0  0  0
   59.4534   30.0293   49.5421 C   0  0  0  0  0  0  0  0  0  0  0  0
   59.1818   29.9829   50.9123 C   0  0  0  0  0  0  0  0  0  0  0  0
   58.9320   31.1646   51.6299 C   0  0  0  0  0  0  0  0  0  0  0  0
   58.9508   32.3934   50.9532 C   0  0  0  0  0  0  0  0  0  0  0  0
   59.2394   32.4421   49.5849 C   0  0  0  0  0  0  0  0  0  0  0  0
   59.7707   31.3673   47.4618 N   0  0  0  0  0  0  0  0  0  0  0  0
   58.8338   31.2038   46.3869 C   0  0  0  0  0  0  0  0  0  0  0  0
   57.8730   32.0071   46.2429 O   0  0  0  0  0  0  0  0  0  0  0  0
   58.0043   27.2795   45.0249 N   0  0  0  0  0  0  0  0  0  0  0  0
   59.4459   27.5703   45.2390 C   0  0  0  0  0  0  0  0  0  0  0  0
   59.6842   28.8326   46.0803 C   0  0  0  0  0  0  0  0  0  0  0  0
   59.0401   30.0705   45.4093 C   0  0  0  0  0  0  0  0  0  0  0  0
   57.7151   29.7233   44.6853 C   0  0  0  0  0  0  0  0  0  0  0  0
   57.0994   28.4303   45.2281 C   0  0  0  0  0  0  0  0  0  0  0  0
   57.7307   24.3644   45.1186 C   0  0  0  0  0  0  0  0  0  0  0  0
   57.4719   25.9085   45.9753 S   0  0  0  0  0  0  0  0  0  0  0  0
   58.2265   25.8771   47.2746 O   0  0  0  0  0  0  0  0  0  0  0  0
   56.0075   26.0548   46.2725 O   0  0  0  0  0  0  0  0  0  0  0  0
   58.6041   31.1022   53.0966 C   0  0  0  0  0  0  0  0  0  0  0  0
   57.3088   30.3749   53.2994 C   0  0  0  0  0  0  0  0  0  0  0  0
   57.0818   29.8098   54.4024 O   0  0  0  0  0  0  0  0  0  0  0  0
   56.3319   30.3434   52.2469 N   0  0  0  0  0  0  0  0  0  0  0  0
   56.6440   30.4807   51.3233 H   0  0  0  0  0  0  0  0  0  0  0  0
   54.9278   30.1241   52.4576 C   0  0  0  0  0  0  0  0  0  0  0  0
   54.5073   28.9711   53.1352 C   0  0  0  0  0  0  0  0  0  0  0  0
   53.1490   28.7156   53.3212 C   0  0  0  0  0  0  0  0  0  0  0  0
   52.1927   29.6016   52.8193 C   0  0  0  0  0  0  0  0  0  0  0  0
   52.5873   30.7573   52.1194 C   0  0  0  0  0  0  0  0  0  0  0  0
   53.9605   31.0083   51.9388 C   0  0  0  0  0  0  0  0  0  0  0  0
   51.5733   31.6937   51.5772 C   0  0  0  0  0  0  0  0  0  0  0  0
   51.2733   31.7087   50.1814 N   0  0  0  0  0  0  0  0  0  0  0  0
   50.9634   32.4857   52.3456 O   0  0  0  0  0  0  0  0  0  0  0  0
   51.7422   31.0955   49.5705 H   0  0  0  0  0  0  0  0  0  0  0  0
 16 17  1  0
 17 18  2  0
 17 19  2  0
 17 10  1  0
 10 11  1  0
 11 12  1  0
 12 13  1  0
 13  8  1  0
  8  9  2  0
  8  7  1  0
  7  1  1  0
  1  2  2  0
  2  3  1  0
  3  4  2  0
  4 20  1  0
 20 21  1  0
 21 22  2  0
 21 23  1  0
 23 25  1  0
 25 26  2  0
 26 27  1  0
 27 28  2  0
 28 29  1  0
 29 31  1  0
 31 32  1  0
 31 33  2  0
 29 30  2  0
  4  5  1  0
  5  6  2  0
 13 14  1  0
 14 15  1  0
 15 10  1  0
  6  1  1  0
 30 25  1  0
 23 24  1  0
 32 34  1  0
M  CHG 1   7  -1
M  CHG 1  32  -1
M  END
> <UniqueID>
35

> <SMILES>
CS(=O)(=O)N1CCC(C(=O)[N-]c2ccc(CC(=O)Nc3cccc(C([NH-])=O)c3)cc2)CC1

> <Energy>
65.27511286734637

> <Genealogy>
CS(=O)(=O)N1CCC(C(=O)[N-]c2ccc(CC(=O)Nc3cccc(C([NH-])=O)c3)cc2)CC1 (protonated)
CS(=O)(=O)N1CCC(C(=O)[N-]c2ccc(CC(=O)Nc3cccc(C([NH-])=O)c3)cc2)CC1 (3D coordinates assigned)
CS(=O)(=O)N1CCC(C(=O)[N-]c2ccc(CC(=O)Nc3cccc(C([NH-])=O)c3)cc2)CC1 (nonaromatic ring conformer: 65.27511286734637 kcal/mol)

> <smiles>
CS(=O)(=O)N1CCC(C(=O)Nc2ccc(CC(=O)Nc3cccc(C(N)=O)c3)cc2)CC1

> <score_type>
oracle

> <origin>
adg

> <m_score__min__energy>
-15.140000000000001

> <m_primary>
energy

> <minimizedAffinity>
-7.99474

> <minimizedRMSD>
0.73823

> <CNNscore>
0.7200850844

> <CNNaffinity>
7.1937775612

> <CNN_VS>
5.1801319122

> <CNNaffinity_variance>
0.1210165247

$$$$
45:0


 33 36  0  0  0  0  0  0  0  0999 V2000
   58.5332   30.7754   45.4074 C   0  0  0  0  0  0  0  0  0  0  0  0
   58.8828   31.4749   46.5711 C   0  0  0  0  0  0  0  0  0  0  0  0
   58.7297   32.8677   46.6357 C   0  0  0  0  0  0  0  0  0  0  0  0
   58.2629   33.5626   45.5102 C   0  0  0  0  0  0  0  0  0  0  0  0
   57.9162   32.8670   44.3482 C   0  0  0  0  0  0  0  0  0  0  0  0
   58.0445   31.4763   44.2959 C   0  0  0  0  0  0  0  0  0  0  0  0
   57.7227   30.8138   43.1576 F   0  0  0  0  0  0  0  0  0  0  0  0
   57.6727   25.9853   44.7939 C   0  0  0  0  0  0  0  0  0  0  0  0
   58.3037   27.1473   45.0665 C   0  0  0  0  0  0  0  0  0  0  0  0
   59.6439   27.3188   45.4023 C   0  0  0  0  0  0  0  0  0  0  0  0
   59.8401   28.6752   45.5735 C   0  0  0  0  0  0  0  0  0  0  0  0
   61.1613   29.3186   45.8652 C   0  0  0  0  0  0  0  0  0  0  0  0
   58.6911   29.3490   45.3547 N   0  0  0  0  0  0  0  0  0  0  0  0
   57.7435   28.4314   45.0410 C   0  0  0  0  0  0  0  0  0  0  0  0
   56.4659   28.7444   44.7692 C   0  0  0  0  0  0  0  0  0  0  0  0
   54.8418   26.0742   45.9128 O   0  0  0  0  0  0  0  0  0  0  0  0
   55.8102   25.1523   46.3016 C   0  0  0  0  0  0  0  0  0  0  0  0
   55.6151   24.2128   47.2418 N   0  0  0  0  0  0  0  0  0  0  0  0
   56.8082   23.5844   47.2840 C   0  0  0  0  0  0  0  0  0  0  0  0
   57.0444   22.6261   48.0634 O   0  0  0  0  0  0  0  0  0  0  0  0
   57.7335   24.0732   46.4305 N   0  0  0  0  0  0  0  0  0  0  0  0
   57.0876   25.0688   45.7979 C   0  0  0  0  0  0  0  0  0  0  0  0
   53.9937   26.0588   46.3109 H   0  0  0  0  0  0  0  0  0  0  0  0
   59.1099   33.6074   47.8528 C   0  0  0  0  0  0  0  0  0  0  0  0
   59.3327   34.8447   47.7752 O   0  0  0  0  0  0  0  0  0  0  0  0
   59.2242   32.9636   49.1269 N   0  0  0  0  0  0  0  0  0  0  0  0
   60.2419   33.2793   50.1234 C   0  0  0  0  0  0  0  0  0  0  0  0
   61.5969   33.0166   49.5455 C   0  0  0  0  0  0  0  0  0  0  0  0
   62.5176   33.9779   49.1806 C   0  0  0  0  0  0  0  0  0  0  0  0
   63.5632   33.2611   48.6280 C   0  0  0  0  0  0  0  0  0  0  0  0
   63.2741   31.9447   48.6495 N   0  0  0  0  0  0  0  0  0  0  0  0
   62.0784   31.8057   49.1977 N   0  0  0  0  0  0  0  0  0  0  0  0
   61.4238   30.5160   49.3961 C   0  0  0  0  0  0  0  0  0  0  0  0
 16 17  1  0
 17 18  1  0
 18 19  1  0
 19 20  2  0
 19 21  1  0
 21 22  1  0
 22  8  1  0
  8  9  2  0
  9 10  1  0
 10 11  2  0
 11 12  1  0
 11 13  1  0
 13  1  1  0
  1  2  2  0
  2  3  1  0
  3 24  1  0
 24 25  2  0
 24 26  1  0
 26 27  1  0
 27 28  1  0
 28 29  2  0
 29 30  1  0
 30 31  2  0
 31 32  1  0
 32 33  1  0
  3  4  2  0
  4  5  1  0
  5  6  2  0
  6  7  1  0
 13 14  1  0
 14 15  2  0
 22 17  2  0
 14  9  1  0
  6  1  1  0
 32 28  1  0
 16 23  1  0
M  CHG 1  18  -1
M  CHG 1  21  -1
M  CHG 1  26  -1
M  END
> <UniqueID>
46

> <SMILES>
C=c1/c(=C/c2[n-]c(=O)[n-]c2O)cc(C)n1-c1cc(C(=O)[N-]Cc2ccnn2C)ccc1F

> <Energy>
153.11221002066367

> <Genealogy>
C=c1c(=Cc2[n-]c(=O)[n-]c2O)cc(C)n1-c1cc(C(=O)[N-]Cc2ccnn2C)ccc1F (protonated)
C=c1/c(=C/c2[n-]c(=O)[n-]c2O)cc(C)n1-c1cc(C(=O)[N-]Cc2ccnn2C)ccc1F (cis-trans isomerization)
C=c1/c(=C/c2[n-]c(=O)[n-]c2O)cc(C)n1-c1cc(C(=O)[N-]Cc2ccnn2C)ccc1F (3D coordinates assigned)
C=c1/c(=C/c2[n-]c(=O)[n-]c2O)cc(C)n1-c1cc(C(=O)[N-]Cc2ccnn2C)ccc1F (optimized conformer: 153.11221002066367 kcal/mol)

> <smiles>
C=c1c(=Cc2[nH]c(=O)[nH]c2O)cc(C)n1-c1cc(C(=O)NCc2ccnn2C)ccc1F

> <score_type>
oracle

> <origin>
adg

> <m_score__min__energy>
-14.619999999999999

> <m_primary>
energy

> <minimizedAffinity>
-8.69569

> <minimizedRMSD>
0.64687

> <CNNscore>
0.6933966875

> <CNNaffinity>
7.4780173302

> <CNN_VS>
5.1852326393

> <CNNaffinity_variance>
0.0731137022

$$$$
53:0


 26 29  0  0  0  0  0  0  0  0999 V2000
   56.3237   30.4837   53.6460 N   0  0  0  0  0  0  0  0  0  0  0  0
   57.1535   30.8610   52.7189 C   0  0  0  0  0  0  0  0  0  0  0  0
   57.4887   30.1041   51.6436 N   0  0  0  0  0  0  0  0  0  0  0  0
   58.3772   30.7612   50.8553 C   0  0  0  0  0  0  0  0  0  0  0  0
   58.9099   30.2479   49.6720 C   0  0  0  0  0  0  0  0  0  0  0  0
   59.8306   31.0294   48.9425 C   0  0  0  0  0  0  0  0  0  0  0  0
   60.1792   32.3206   49.4044 C   0  0  0  0  0  0  0  0  0  0  0  0
   59.6357   32.8233   50.5974 C   0  0  0  0  0  0  0  0  0  0  0  0
   58.7409   32.0220   51.2992 C   0  0  0  0  0  0  0  0  0  0  0  0
   57.9375   32.3597   52.7356 S   0  0  0  0  0  0  0  0  0  0  0  0
   55.5208   28.4274   52.8385 O   0  0  0  0  0  0  0  0  0  0  0  0
   55.3175   29.4688   53.5187 C   0  0  0  0  0  0  0  0  0  0  0  0
   54.0220   29.6296   54.2472 C   0  0  0  0  0  0  0  0  0  0  0  0
   53.0280   30.3316   53.3772 C   0  0  0  0  0  0  0  0  0  0  0  0
   53.2692   30.7362   51.7596 S   0  0  0  0  0  0  0  0  0  0  0  0
   51.7864   31.5196   51.6499 C   0  0  0  0  0  0  0  0  0  0  0  0
   51.3498   32.0698   50.6064 O   0  0  0  0  0  0  0  0  0  0  0  0
   51.1009   31.5034   52.8137 N   0  0  0  0  0  0  0  0  0  0  0  0
   51.7978   30.8464   53.7778 C   0  0  0  0  0  0  0  0  0  0  0  0
   51.3032   30.7112   55.0698 O   0  0  0  0  0  0  0  0  0  0  0  0
   60.3848   30.5190   47.6424 C   0  0  0  0  0  0  0  0  0  0  0  0
   59.3073   30.3628   46.6693 N   0  0  0  0  0  0  0  0  0  0  0  0
   58.7808   29.2107   46.2271 C   0  0  0  0  0  0  0  0  0  0  0  0
   57.7376   29.5215   45.3838 C   0  0  0  0  0  0  0  0  0  0  0  0
   57.5995   30.8615   45.3082 N   0  0  0  0  0  0  0  0  0  0  0  0
   58.5724   31.3437   46.1108 C   0  0  0  0  0  0  0  0  0  0  0  0
 11 12  2  0
 12 13  1  0
 13 14  1  0
 14 15  1  0
 15 16  1  0
 16 17  2  0
 16 18  1  0
 18 19  1  0
 19 20  1  0
 12  1  1  0
  1  2  2  0
  2  3  1  0
  3  4  1  0
  4  5  2  0
  5  6  1  0
  6 21  1  0
 21 22  1  0
 22 23  1  0
 23 24  2  0
 24 25  1  0
 25 26  2  0
  6  7  2  0
  7  8  1  0
  8  9  2  0
  9 10  1  0
 19 14  2  0
 10  2  1  0
  9  4  1  0
 26 22  1  0
M  CHG 1   3  -1
M  CHG 1  18  -1
M  CHG 1  20  -1
M  END
> <UniqueID>
54

> <SMILES>
O=C(Cc1sc(=O)[n-]c1[O-])N=c1[n-]c2cc(Cn3ccnc3)ccc2s1

> <Energy>
132.72089772166555

> <Genealogy>
O=C(Cc1sc(=O)[n-]c1[O-])N=c1[n-]c2cc(Cn3ccnc3)ccc2s1 (protonated)
O=C(Cc1sc(=O)[n-]c1[O-])N=c1[n-]c2cc(Cn3ccnc3)ccc2s1 (3D coordinates assigned)
O=C(Cc1sc(=O)[n-]c1[O-])N=c1[n-]c2cc(Cn3ccnc3)ccc2s1 (optimized conformer: 132.72089772166555 kcal/mol)

> <smiles>
O=C(Cc1sc(=O)[nH]c1O)N=c1[nH]c2cc(Cn3ccnc3)ccc2s1

> <score_type>
oracle

> <origin>
adg

> <m_score__min__energy>
-16.510000000000002

> <m_primary>
energy

> <minimizedAffinity>
-6.50043

> <minimizedRMSD>
1.96604

> <CNNscore>
0.2201357037

> <CNNaffinity>
5.9484710693

> <CNN_VS>
1.3094708920

> <CNNaffinity_variance>
0.0821495056

$$$$
56:0


 31 34  0  0  0  0  0  0  0  0999 V2000
   57.1875   30.0922   55.0343 C   0  0  0  0  0  0  0  0  0  0  0  0
   54.2506   29.3735   55.3171 C   0  0  0  0  0  0  0  0  0  0  0  0
   54.7965   29.8435   54.1823 C   0  0  0  0  0  0  0  0  0  0  0  0
   54.1225   30.0361   52.9707 C   0  0  0  0  0  0  0  0  0  0  0  0
   52.8106   29.8478   52.7240 C   0  0  0  0  0  0  0  0  0  0  0  0
   55.0640   30.5153   52.0723 C   0  0  0  0  0  0  0  0  0  0  0  0
   56.2603   30.5928   52.7553 C   0  0  0  0  0  0  0  0  0  0  0  0
   57.5533   31.0311   52.1376 C   0  0  0  0  0  0  0  0  0  0  0  0
   56.1062   30.1852   54.0383 N   0  0  0  0  0  0  0  0  0  0  0  0
   52.1283   30.3050   51.5000 C   0  0  0  0  0  0  0  0  0  0  0  0
   52.1061   29.5947   50.3600 N   0  0  0  0  0  0  0  0  0  0  0  0
   51.4647   30.4101   49.4937 C   0  0  0  0  0  0  0  0  0  0  0  0
   51.2343   30.0845   48.3005 O   0  0  0  0  0  0  0  0  0  0  0  0
   51.1001   31.6046   50.0053 N   0  0  0  0  0  0  0  0  0  0  0  0
   51.5383   31.5292   51.2724 C   0  0  0  0  0  0  0  0  0  0  0  0
   51.4419   32.5750   52.1813 O   0  0  0  0  0  0  0  0  0  0  0  0
   58.0339   28.8712   54.7863 C   0  0  0  0  0  0  0  0  0  0  0  0
   59.4309   28.9779   54.7147 C   0  0  0  0  0  0  0  0  0  0  0  0
   60.2174   27.8436   54.4993 C   0  0  0  0  0  0  0  0  0  0  0  0
   59.6221   26.5785   54.3507 C   0  0  0  0  0  0  0  0  0  0  0  0
   58.2227   26.4742   54.4191 C   0  0  0  0  0  0  0  0  0  0  0  0
   57.4364   27.6108   54.6328 C   0  0  0  0  0  0  0  0  0  0  0  0
   60.4346   25.4051   54.1384 N   0  0  0  0  0  0  0  0  0  0  0  0
   61.8851   25.4913   54.3520 C   0  0  0  0  0  0  0  0  0  0  0  0
   62.5758   24.1857   53.9454 C   0  0  0  0  0  0  0  0  0  0  0  0
   61.8517   23.0335   54.5247 N   0  0  0  0  0  0  0  0  0  0  0  0
   60.4508   22.9154   54.0312 C   0  0  0  0  0  0  0  0  0  0  0  0
   59.8685   24.2278   53.4662 C   0  0  0  0  0  0  0  0  0  0  0  0
   61.7822   23.2259   55.5240 H   0  0  0  0  0  0  0  0  0  0  0  0
   62.6052   21.7609   54.3874 C   0  0  0  0  0  0  0  0  0  0  0  0
   63.8878   21.6817   55.2325 C   0  0  0  0  0  0  0  0  0  0  0  0
  2  3  2  0
  3  4  1  0
  4  5  2  0
  5 10  1  0
 10 11  1  0
 11 12  1  0
 12 13  2  0
 12 14  1  0
 14 15  1  0
 15 16  1  0
  4  6  1  0
  6  7  2  0
  7  8  1  0
  7  9  1  0
  9  1  1  0
  1 17  1  0
 17 18  2  0
 18 19  1  0
 19 20  2  0
 20 23  1  0
 23 24  1  0
 24 25  1  0
 25 26  1  0
 26 30  1  0
 30 31  1  0
 26 27  1  0
 27 28  1  0
 20 21  1  0
 21 22  2  0
  9  3  1  0
 22 17  1  0
 15 10  2  0
 28 23  1  0
 26 29  1  0
M  CHG 1  11  -1
M  CHG 1  14  -1
M  CHG 1  16  -1
M  CHG 1  26   1
M  END
> <UniqueID>
57

> <SMILES>
C=c1/c(=C/c2[n-]c(=O)[n-]c2[O-])cc(C)n1Cc1ccc(N2CC[NH+](CC)CC2)cc1

> <Energy>
135.8910969440508

> <Genealogy>
C=c1c(=Cc2[n-]c(=O)[n-]c2[O-])cc(C)n1Cc1ccc(N2CC[NH+](CC)CC2)cc1 (protonated)
C=c1/c(=C/c2[n-]c(=O)[n-]c2[O-])cc(C)n1Cc1ccc(N2CC[NH+](CC)CC2)cc1 (cis-trans isomerization)
C=c1/c(=C/c2[n-]c(=O)[n-]c2[O-])cc(C)n1Cc1ccc(N2CC[NH+](CC)CC2)cc1 (3D coordinates assigned)
C=c1/c(=C/c2[n-]c(=O)[n-]c2[O-])cc(C)n1Cc1ccc(N2CC[NH+](CC)CC2)cc1 (nonaromatic ring conformer: 135.8910969440508 kcal/mol)

> <smiles>
C=c1c(=Cc2[nH]c(=O)[nH]c2O)cc(C)n1Cc1ccc(N2CCN(CC)CC2)cc1

> <score_type>
oracle

> <origin>
adg

> <m_score__min__energy>
-15.18

> <m_primary>
energy

> <minimizedAffinity>
-3.89034

> <minimizedRMSD>
0.82262

> <CNNscore>
0.1659650952

> <CNNaffinity>
5.3492627144

> <CNN_VS>
0.8877909184

> <CNNaffinity_variance>
0.0461176224

$$$$
63:0


 27 30  0  0  0  0  0  0  0  0999 V2000
   54.6805   27.9764   53.4383 C   0  0  0  0  0  0  0  0  0  0  0  0
   55.4421   29.0388   53.1668 C   0  0  0  0  0  0  0  0  0  0  0  0
   56.7530   28.9750   53.1396 O   0  0  0  0  0  0  0  0  0  0  0  0
   57.2282   30.1626   52.8443 C   0  0  0  0  0  0  0  0  0  0  0  0
   56.1924   31.0611   52.6754 C   0  0  0  0  0  0  0  0  0  0  0  0
   55.0223   30.3400   52.8752 C   0  0  0  0  0  0  0  0  0  0  0  0
   53.7521   30.7927   52.8224 C   0  0  0  0  0  0  0  0  0  0  0  0
   58.6632   30.4684   52.7465 C   0  0  0  0  0  0  0  0  0  0  0  0
   59.3315   30.6223   53.8036 O   0  0  0  0  0  0  0  0  0  0  0  0
   59.3038   30.6299   51.4710 N   0  0  0  0  0  0  0  0  0  0  0  0
   59.2284   29.5673   50.4593 C   0  0  0  0  0  0  0  0  0  0  0  0
   59.0420   30.1575   49.0427 C   0  0  0  0  0  0  0  0  0  0  0  0
   59.4198   31.5863   48.9729 N   0  0  0  0  0  0  0  0  0  0  0  0
   60.6133   31.8749   49.7958 C   0  0  0  0  0  0  0  0  0  0  0  0
   60.2180   31.7616   51.2694 C   0  0  0  0  0  0  0  0  0  0  0  0
   59.4565   32.0860   47.5742 C   0  0  0  0  0  0  0  0  0  0  0  0
   60.7925   32.7239   47.1510 C   0  0  0  0  0  0  0  0  0  0  0  0
   60.4238   33.9656   46.3548 C   0  0  0  0  0  0  0  0  0  0  0  0
   59.0753   34.4064   46.8934 C   0  0  0  0  0  0  0  0  0  0  0  0
   58.3592   33.1288   47.3074 C   0  0  0  0  0  0  0  0  0  0  0  0
   52.8674   30.7267   51.6389 C   0  0  0  0  0  0  0  0  0  0  0  0
   52.9558   29.8370   50.6337 N   0  0  0  0  0  0  0  0  0  0  0  0
   51.9207   30.1616   49.8301 C   0  0  0  0  0  0  0  0  0  0  0  0
   51.6720   29.5425   48.7623 O   0  0  0  0  0  0  0  0  0  0  0  0
   51.1722   31.1983   50.2616 N   0  0  0  0  0  0  0  0  0  0  0  0
   51.7825   31.5412   51.4073 C   0  0  0  0  0  0  0  0  0  0  0  0
   51.3552   32.5790   52.2273 O   0  0  0  0  0  0  0  0  0  0  0  0
  1  2  2  0
  2  3  1  0
  3  4  1  0
  4  8  1  0
  8  9  2  0
  8 10  1  0
 10 11  1  0
 11 12  1  0
 12 13  1  0
 13 16  1  0
 16 17  1  0
 17 18  1  0
 18 19  1  0
 19 20  1  0
 13 14  1  0
 14 15  1  0
  4  5  2  0
  5  6  1  0
  6  7  2  0
  7 21  1  0
 21 22  1  0
 22 23  1  0
 23 24  2  0
 23 25  1  0
 25 26  1  0
 26 27  1  0
  6  2  1  0
 26 21  2  0
 15 10  1  0
 20 16  1  0
M  CHG 1  22  -1
M  CHG 1  25  -1
M  CHG 1  27  -1
M  END
> <UniqueID>
64

> <SMILES>
C=c1oc(C(=O)N2CCN(C3CCCC3)CC2)c/c1=C\c1[n-]c(=O)[n-]c1[O-]

> <Energy>
123.83541464084348

> <Genealogy>
C=c1oc(C(=O)N2CCN(C3CCCC3)CC2)cc1=Cc1[n-]c(=O)[n-]c1[O-] (protonated)
C=c1oc(C(=O)N2CCN(C3CCCC3)CC2)c/c1=C\c1[n-]c(=O)[n-]c1[O-] (cis-trans isomerization)
C=c1oc(C(=O)N2CCN(C3CCCC3)CC2)c/c1=C\c1[n-]c(=O)[n-]c1[O-] (3D coordinates assigned)
C=c1oc(C(=O)N2CCN(C3CCCC3)CC2)c/c1=C\c1[n-]c(=O)[n-]c1[O-] (nonaromatic ring conformer: 123.83541464084348 kcal/mol)

> <smiles>
C=c1oc(C(=O)N2CCN(C3CCCC3)CC2)cc1=Cc1[nH]c(=O)[nH]c1O

> <score_type>
oracle

> <origin>
adg

> <m_score__min__energy>
-18.07

> <m_primary>
energy

> <minimizedAffinity>
-6.50012

> <minimizedRMSD>
1.15892

> <CNNscore>
0.0984886661

> <CNNaffinity>
5.3540997505

> <CNN_VS>
0.5273181200

> <CNNaffinity_variance>
0.0711319298

$$$$
64:0


 30 33  0  0  0  0  0  0  0  0999 V2000
   56.5040   23.1631   45.1632 C   0  0  0  0  0  0  0  0  0  0  0  0
   57.0914   24.3618   44.9887 C   0  0  0  0  0  0  0  0  0  0  0  0
   57.3461   24.8990   43.7366 C   0  0  0  0  0  0  0  0  0  0  0  0
   57.8644   26.1600   43.9391 C   0  0  0  0  0  0  0  0  0  0  0  0
   58.2691   27.1011   42.8444 C   0  0  0  0  0  0  0  0  0  0  0  0
   57.9907   26.4095   45.2608 N   0  0  0  0  0  0  0  0  0  0  0  0
   57.5454   25.3101   45.9202 C   0  0  0  0  0  0  0  0  0  0  0  0
   57.6900   25.1428   47.2455 C   0  0  0  0  0  0  0  0  0  0  0  0
   54.3180   25.2901   45.5723 O   0  0  0  0  0  0  0  0  0  0  0  0
   54.1651   23.9267   45.8034 C   0  0  0  0  0  0  0  0  0  0  0  0
   53.0417   23.3800   46.2952 N   0  0  0  0  0  0  0  0  0  0  0  0
   53.3537   22.0686   46.3677 C   0  0  0  0  0  0  0  0  0  0  0  0
   52.5457   21.2040   46.7946 O   0  0  0  0  0  0  0  0  0  0  0  0
   54.6021   21.7603   45.9578 N   0  0  0  0  0  0  0  0  0  0  0  0
   55.1058   22.9476   45.5735 C   0  0  0  0  0  0  0  0  0  0  0  0
   53.6146   25.8793   45.7624 H   0  0  0  0  0  0  0  0  0  0  0  0
   58.5348   27.6067   45.8404 C   0  0  0  0  0  0  0  0  0  0  0  0
   59.7752   27.5631   46.4921 C   0  0  0  0  0  0  0  0  0  0  0  0
   60.3115   28.7197   47.0662 C   0  0  0  0  0  0  0  0  0  0  0  0
   59.6066   29.9312   47.0070 C   0  0  0  0  0  0  0  0  0  0  0  0
   58.3795   29.9805   46.3289 C   0  0  0  0  0  0  0  0  0  0  0  0
   57.8429   28.8254   45.7499 C   0  0  0  0  0  0  0  0  0  0  0  0
   56.6325   28.8971   45.0700 O   0  0  0  0  0  0  0  0  0  0  0  0
   60.1865   31.1509   47.6043 C   0  0  0  0  0  0  0  0  0  0  0  0
   61.1517   31.7138   47.0209 O   0  0  0  0  0  0  0  0  0  0  0  0
   59.6824   31.7022   48.8356 N   0  0  0  0  0  0  0  0  0  0  0  0
   59.9819   33.0574   49.2664 C   0  0  0  0  0  0  0  0  0  0  0  0
   59.6209   33.1125   50.7455 C   0  0  0  0  0  0  0  0  0  0  0  0
   58.7682   31.8776   51.0186 C   0  0  0  0  0  0  0  0  0  0  0  0
   59.0581   30.9076   49.8816 C   0  0  0  0  0  0  0  0  0  0  0  0
  9 10  1  0
 10 11  1  0
 11 12  1  0
 12 13  2  0
 12 14  1  0
 14 15  1  0
 15  1  1  0
  1  2  2  0
  2  3  1  0
  3  4  2  0
  4  5  1  0
  4  6  1  0
  6 17  1  0
 17 18  2  0
 18 19  1  0
 19 20  2  0
 20 24  1  0
 24 25  2  0
 24 26  1  0
 26 27  1  0
 27 28  1  0
 28 29  1  0
 29 30  1  0
 20 21  1  0
 21 22  2  0
 22 23  1  0
  6  7  1  0
  7  8  2  0
 15 10  2  0
  7  2  1  0
 22 17  1  0
 30 26  1  0
  9 16  1  0
M  CHG 1  11  -1
M  CHG 1  14  -1
M  CHG 1  23  -1
M  END
> <UniqueID>
65

> <SMILES>
C=c1/c(=C\c2[n-]c(=O)[n-]c2O)cc(C)n1-c1ccc(C(=O)N2CCCC2)cc1[O-]

> <Energy>
130.1891268327943

> <Genealogy>
C=c1c(=Cc2[n-]c(=O)[n-]c2O)cc(C)n1-c1ccc(C(=O)N2CCCC2)cc1[O-] (protonated)
C=c1/c(=C\c2[n-]c(=O)[n-]c2O)cc(C)n1-c1ccc(C(=O)N2CCCC2)cc1[O-] (cis-trans isomerization)
C=c1/c(=C\c2[n-]c(=O)[n-]c2O)cc(C)n1-c1ccc(C(=O)N2CCCC2)cc1[O-] (3D coordinates assigned)
C=c1/c(=C\c2[n-]c(=O)[n-]c2O)cc(C)n1-c1ccc(C(=O)N2CCCC2)cc1[O-] (nonaromatic ring conformer: 130.1891268327943 kcal/mol)

> <smiles>
C=c1c(=Cc2[nH]c(=O)[nH]c2O)cc(C)n1-c1ccc(C(=O)N2CCCC2)cc1O

> <score_type>
oracle

> <origin>
adg

> <m_score__min__energy>
-15.619999999999999

> <m_primary>
energy

> <minimizedAffinity>
-7.76401

> <minimizedRMSD>
2.23454

> <CNNscore>
0.1277290285

> <CNNaffinity>
6.1911759377

> <CNN_VS>
0.7907928824

> <CNNaffinity_variance>
0.1216868982

$$$$
83:0


 30 33  0  0  0  0  0  0  0  0999 V2000
   57.3751   29.0208   44.3494 C   0  0  0  0  0  0  0  0  0  0  0  0
   58.2576   28.5232   45.2398 C   0  0  0  0  0  0  0  0  0  0  0  0
   58.3312   27.1371   45.5699 C   0  0  0  0  0  0  0  0  0  0  0  0
   57.8058   26.1200   44.8502 C   0  0  0  0  0  0  0  0  0  0  0  0
   59.0029   26.7808   46.6944 N   0  0  0  0  0  0  0  0  0  0  0  0
   59.7014   27.6625   47.4451 C   0  0  0  0  0  0  0  0  0  0  0  0
   60.3001   27.2457   48.4735 O   0  0  0  0  0  0  0  0  0  0  0  0
   59.7735   28.9795   47.0773 N   0  0  0  0  0  0  0  0  0  0  0  0
   59.0614   29.4192   45.9890 C   0  0  0  0  0  0  0  0  0  0  0  0
   59.1008   30.6416   45.6683 O   0  0  0  0  0  0  0  0  0  0  0  0
   57.2992   24.8390   45.3740 C   0  0  0  0  0  0  0  0  0  0  0  0
   58.1108   23.3705   45.2352 S   0  0  0  0  0  0  0  0  0  0  0  0
   56.8388   22.5060   45.9133 C   0  0  0  0  0  0  0  0  0  0  0  0
   56.8491   21.2622   46.1056 O   0  0  0  0  0  0  0  0  0  0  0  0
   55.7847   23.2893   46.2238 N   0  0  0  0  0  0  0  0  0  0  0  0
   56.0336   24.5884   45.9092 C   0  0  0  0  0  0  0  0  0  0  0  0
   55.0727   25.5744   46.0904 O   0  0  0  0  0  0  0  0  0  0  0  0
   60.5821   29.9170   47.8877 C   0  0  0  0  0  0  0  0  0  0  0  0
   59.7805   30.4400   49.0650 C   0  0  0  0  0  0  0  0  0  0  0  0
   59.5792   29.5880   50.1687 C   0  0  0  0  0  0  0  0  0  0  0  0
   58.9037   30.0366   51.3034 C   0  0  0  0  0  0  0  0  0  0  0  0
   58.4163   31.3400   51.3590 C   0  0  0  0  0  0  0  0  0  0  0  0
   58.5886   32.1956   50.2714 C   0  0  0  0  0  0  0  0  0  0  0  0
   59.2537   31.7584   49.1137 C   0  0  0  0  0  0  0  0  0  0  0  0
   59.3586   32.6977   47.9759 C   0  0  0  0  0  0  0  0  0  0  0  0
   58.2043   33.1037   47.2868 C   0  0  0  0  0  0  0  0  0  0  0  0
   58.3043   33.9755   46.1985 C   0  0  0  0  0  0  0  0  0  0  0  0
   59.5567   34.4395   45.7858 C   0  0  0  0  0  0  0  0  0  0  0  0
   60.7106   34.0277   46.4569 C   0  0  0  0  0  0  0  0  0  0  0  0
   60.6145   33.1548   47.5464 C   0  0  0  0  0  0  0  0  0  0  0  0
  1  2  2  0
  2  3  1  0
  3  4  2  0
  4 11  1  0
 11 12  1  0
 12 13  1  0
 13 14  2  0
 13 15  1  0
 15 16  1  0
 16 17  1  0
  3  5  1  0
  5  6  1  0
  6  7  2  0
  6  8  1  0
  8 18  1  0
 18 19  1  0
 19 20  2  0
 20 21  1  0
 21 22  2  0
 22 23  1  0
 23 24  2  0
 24 25  1  0
 25 26  2  0
 26 27  1  0
 27 28  2  0
 28 29  1  0
 29 30  2  0
  8  9  1  0
  9 10  2  0
  9  2  1  0
 16 11  2  0
 24 19  1  0
 30 25  1  0
M  CHG 1   5  -1
M  CHG 1  15  -1
M  CHG 1  17  -1
M  END
> <UniqueID>
83

> <SMILES>
C=c1c(=Cc2sc(=O)[n-]c2[O-])[n-]c(=O)n(Cc2ccccc2-c2ccccc2)c1=O

> <Energy>
115.01227815436116

> <Genealogy>
C=c1c(=Cc2sc(=O)[n-]c2[O-])[n-]c(=O)n(Cc2ccccc2-c2ccccc2)c1=O (protonated)
C=c1c(=Cc2sc(=O)[n-]c2[O-])[n-]c(=O)n(Cc2ccccc2-c2ccccc2)c1=O (3D coordinates assigned)
C=c1c(=Cc2sc(=O)[n-]c2[O-])[n-]c(=O)n(Cc2ccccc2-c2ccccc2)c1=O (optimized conformer: 115.01227815436116 kcal/mol)

> <smiles>
C=c1c(=Cc2sc(=O)[nH]c2O)[nH]c(=O)n(Cc2ccccc2-c2ccccc2)c1=O

> <score_type>
oracle

> <origin>
adg

> <m_score__min__energy>
-16.539999999999999

> <m_primary>
energy

> <minimizedAffinity>
-8.99166

> <minimizedRMSD>
1.66466

> <CNNscore>
0.7458241582

> <CNNaffinity>
6.9433155060

> <CNN_VS>
5.1784925461

> <CNNaffinity_variance>
0.1090503410

$$$$
6:0


 23 25  0  0  0  0  0  0  0  0999 V2000
   58.2208   27.8707   46.9123 C   0  0  0  0  0  0  0  0  0  0  0  0
   58.4790   29.2798   46.6039 N   0  0  0  0  0  0  0  0  0  0  0  0
   59.4784   30.0502   47.0868 C   0  0  0  0  0  0  0  0  0  0  0  0
   60.4453   29.6117   47.9850 O   0  0  0  0  0  0  0  0  0  0  0  0
   59.4063   31.3210   46.5534 C   0  0  0  0  0  0  0  0  0  0  0  0
   58.3311   31.3289   45.7008 C   0  0  0  0  0  0  0  0  0  0  0  0
   57.7868   30.0615   45.7466 C   0  0  0  0  0  0  0  0  0  0  0  0
   56.6839   29.6346   45.0145 O   0  0  0  0  0  0  0  0  0  0  0  0
   57.9063   32.5125   44.8960 C   0  0  0  0  0  0  0  0  0  0  0  0
   58.7741   33.7235   45.1767 C   0  0  0  0  0  0  0  0  0  0  0  0
   59.8349   33.7165   46.0159 C   0  0  0  0  0  0  0  0  0  0  0  0
   60.2987   32.4981   46.7876 C   0  0  0  0  0  0  0  0  0  0  0  0
   59.0102   27.4625   44.7011 O   0  0  0  0  0  0  0  0  0  0  0  0
   58.3428   27.0203   45.6755 C   0  0  0  0  0  0  0  0  0  0  0  0
   57.6647   25.7072   45.5480 C   0  0  0  0  0  0  0  0  0  0  0  0
   58.4245   24.5746   45.2213 C   0  0  0  0  0  0  0  0  0  0  0  0
   57.8086   23.3312   45.0606 C   0  0  0  0  0  0  0  0  0  0  0  0
   58.7751   21.9277   44.6304 Cl  0  0  0  0  0  0  0  0  0  0  0  0
   56.4249   23.2292   45.2402 C   0  0  0  0  0  0  0  0  0  0  0  0
   55.8417   22.1225   45.0972 O   0  0  0  0  0  0  0  0  0  0  0  0
   55.7029   24.3289   45.5773 N   0  0  0  0  0  0  0  0  0  0  0  0
   56.2768   25.5503   45.7392 C   0  0  0  0  0  0  0  0  0  0  0  0
   55.4801   26.6201   46.1237 O   0  0  0  0  0  0  0  0  0  0  0  0
 13 14  2  0
 14  1  1  0
  1  2  1  0
  2  3  1  0
  3  4  1  0
  3  5  2  0
  5  6  1  0
  6  7  2  0
  7  8  1  0
  6  9  1  0
  9 10  1  0
 10 11  2  0
 11 12  1  0
 14 15  1  0
 15 16  1  0
 16 17  2  0
 17 18  1  0
 17 19  1  0
 19 20  2  0
 19 21  1  0
 21 22  1  0
 22 23  1  0
  7  2  1  0
 22 15  2  0
 12  5  1  0
M  CHG 1   4  -1
M  CHG 1   8  -1
M  CHG 1  21  -1
M  CHG 1  23  -1
M  END
> <UniqueID>
7

> <SMILES>
O=C(Cn1c([O-])c2c(c1[O-])CC=CC2)c1cc(Cl)c(=O)[n-]c1[O-]

> <Energy>
71.80383999268905

> <Genealogy>
O=C(Cn1c([O-])c2c(c1[O-])CC=CC2)c1cc(Cl)c(=O)[n-]c1[O-] (protonated)
O=C(Cn1c([O-])c2c(c1[O-])CC=CC2)c1cc(Cl)c(=O)[n-]c1[O-] (3D coordinates assigned)
O=C(Cn1c([O-])c2c(c1[O-])CC=CC2)c1cc(Cl)c(=O)[n-]c1[O-] (nonaromatic ring conformer: 71.80383999268905 kcal/mol)

> <smiles>
O=C(Cn1c(O)c2c(c1O)CC=CC2)c1cc(Cl)c(=O)[nH]c1O

> <score_type>
oracle

> <origin>
adg

> <m_score__min__energy>
-16.370000000000001

> <m_primary>
energy

> <minimizedAffinity>
-7.67312

> <minimizedRMSD>
1.57808

> <CNNscore>
0.3259406388

> <CNNaffinity>
6.2703299522

> <CNN_VS>
2.0437552929

> <CNNaffinity_variance>
0.4885141551

$$$$
15:0


 34 38  0  0  0  0  0  0  0  0999 V2000
   59.5404   29.6451   47.5399 N   0  0  0  0  0  0  0  0  0  0  0  0
   59.2461   30.3695   48.5846 C   0  0  0  0  0  0  0  0  0  0  0  0
   58.9258   29.8313   49.8118 C   0  0  0  0  0  0  0  0  0  0  0  0
   58.7836   30.9372   50.6303 C   0  0  0  0  0  0  0  0  0  0  0  0
   58.9829   32.0676   49.9222 N   0  0  0  0  0  0  0  0  0  0  0  0
   59.2554   31.7244   48.6715 N   0  0  0  0  0  0  0  0  0  0  0  0
   58.5009   30.9216   52.0744 C   0  0  0  0  0  0  0  0  0  0  0  0
   59.3241   31.4555   52.8678 O   0  0  0  0  0  0  0  0  0  0  0  0
   57.3251   30.2855   52.5965 N   0  0  0  0  0  0  0  0  0  0  0  0
   56.0191   30.9516   52.4652 C   0  0  0  0  0  0  0  0  0  0  0  0
   54.9352   29.9248   52.3841 C   0  0  0  0  0  0  0  0  0  0  0  0
   53.9134   30.1167   51.6724 O   0  0  0  0  0  0  0  0  0  0  0  0
   55.0681   28.7280   53.1432 N   0  0  0  0  0  0  0  0  0  0  0  0
   56.1891   28.5999   54.0634 C   0  0  0  0  0  0  0  0  0  0  0  0
   57.4922   29.0474   53.3845 C   0  0  0  0  0  0  0  0  0  0  0  0
   59.2970   32.7004   47.6189 C   0  0  0  0  0  0  0  0  0  0  0  0
   60.5230   33.2396   47.1937 C   0  0  0  0  0  0  0  0  0  0  0  0
   60.5581   34.1752   46.1553 C   0  0  0  0  0  0  0  0  0  0  0  0
   59.3724   34.5618   45.5227 C   0  0  0  0  0  0  0  0  0  0  0  0
   58.1532   34.0046   45.9203 C   0  0  0  0  0  0  0  0  0  0  0  0
   58.1150   33.0707   46.9606 C   0  0  0  0  0  0  0  0  0  0  0  0
   58.6331   29.0709   46.5924 C   0  0  0  0  0  0  0  0  0  0  0  0
   57.8190   29.8055   45.9698 O   0  0  0  0  0  0  0  0  0  0  0  0
   58.1954   25.5470   45.7216 C   0  0  0  0  0  0  0  0  0  0  0  0
   59.4804   25.5306   46.1382 N   0  0  0  0  0  0  0  0  0  0  0  0
   59.7837   26.8004   46.4834 C   0  0  0  0  0  0  0  0  0  0  0  0
   58.6992   27.6337   46.2930 C   0  0  0  0  0  0  0  0  0  0  0  0
   57.6878   26.8310   45.8149 C   0  0  0  0  0  0  0  0  0  0  0  0
   56.3950   27.2444   45.5150 O   0  0  0  0  0  0  0  0  0  0  0  0
   57.0569   24.1061   44.0390 C   0  0  0  0  0  0  0  0  0  0  0  0
   57.4955   24.3258   45.2678 C   0  0  0  0  0  0  0  0  0  0  0  0
   57.2494   23.1636   46.1628 C   0  0  0  0  0  0  0  0  0  0  0  0
   56.4529   22.1791   45.3020 C   0  0  0  0  0  0  0  0  0  0  0  0
   56.4303   22.7704   43.8913 C   0  0  0  0  0  0  0  0  0  0  0  0
 30 31  2  0
 31 24  1  0
 24 25  1  0
 25 26  1  0
 26 27  2  0
 27 22  1  0
 22 23  2  0
 22  1  1  0
  1  2  2  0
  2  3  1  0
  3  4  2  0
  4  7  1  0
  7  8  2  0
  7  9  1  0
  9 10  1  0
 10 11  1  0
 11 12  2  0
 11 13  1  0
 13 14  1  0
 14 15  1  0
  4  5  1  0
  5  6  1  0
  6 16  1  0
 16 17  2  0
 17 18  1  0
 18 19  2  0
 19 20  1  0
 20 21  2  0
 27 28  1  0
 28 29  1  0
 31 32  1  0
 32 33  1  0
 33 34  1  0
 34 30  1  0
 28 24  2  0
  6  2  1  0
 21 16  1  0
 15  9  1  0
M  CHG 1   5  -1
M  CHG 1  13  -1
M  CHG 1  25  -1
M  CHG 1  29  -1
M  END
> <UniqueID>
16

> <SMILES>
O=C1CN(C(=O)c2c/c(=N/C(=O)c3c[n-]c(C4=CCCC4)c3[O-])n(-c3ccccc3)[n-]2)CC[N-]1

> <Energy>
139.7374435372388

> <Genealogy>
O=C1CN(C(=O)c2cc(=NC(=O)c3c[n-]c(C4=CCCC4)c3[O-])n(-c3ccccc3)[n-]2)CC[N-]1 (protonated)
O=C1CN(C(=O)c2c/c(=N/C(=O)c3c[n-]c(C4=CCCC4)c3[O-])n(-c3ccccc3)[n-]2)CC[N-]1 (cis-trans isomerization)
O=C1CN(C(=O)c2c/c(=N/C(=O)c3c[n-]c(C4=CCCC4)c3[O-])n(-c3ccccc3)[n-]2)CC[N-]1 (3D coordinates assigned)
O=C1CN(C(=O)c2c/c(=N/C(=O)c3c[n-]c(C4=CCCC4)c3[O-])n(-c3ccccc3)[n-]2)CC[N-]1 (nonaromatic ring conformer: 139.7374435372388 kcal/mol)

> <smiles>
O=C1CN(C(=O)c2cc(=NC(=O)c3c[nH]c(C4=CCCC4)c3O)n(-c3ccccc3)[nH]2)CCN1

> <score_type>
oracle

> <origin>
adg

> <m_score__min__energy>
-15.359999999999999

> <m_primary>
energy

> <minimizedAffinity>
-9.11344

> <minimizedRMSD>
1.29629

> <CNNscore>
0.3125877082

> <CNNaffinity>
6.6937866211

> <CNN_VS>
2.0923953056

> <CNNaffinity_variance>
0.0678531155

$$$$
16:0


 28 30  0  0  0  0  0  0  0  0999 V2000
   59.9311   29.5603   48.1254 C   0  0  0  0  0  0  0  0  0  0  0  0
   59.3433   30.3343   47.1994 C   0  0  0  0  0  0  0  0  0  0  0  0
   59.0225   29.9791   45.8832 C   0  0  0  0  0  0  0  0  0  0  0  0
   59.2582   28.7919   45.2875 C   0  0  0  0  0  0  0  0  0  0  0  0
   58.4078   31.1243   45.3595 C   0  0  0  0  0  0  0  0  0  0  0  0
   57.8328   31.3337   43.9907 C   0  0  0  0  0  0  0  0  0  0  0  0
   58.3784   32.0768   46.3109 N   0  0  0  0  0  0  0  0  0  0  0  0
   58.9435   31.6125   47.4129 N   0  0  0  0  0  0  0  0  0  0  0  0
   57.9962   32.9776   46.2031 H   0  0  0  0  0  0  0  0  0  0  0  0
   58.6321   27.5220   45.6943 C   0  0  0  0  0  0  0  0  0  0  0  0
   57.2419   27.3567   45.6279 C   0  0  0  0  0  0  0  0  0  0  0  0
   56.4305   28.3741   45.1398 O   0  0  0  0  0  0  0  0  0  0  0  0
   56.6777   26.1922   46.0410 N   0  0  0  0  0  0  0  0  0  0  0  0
   57.4393   25.1797   46.5323 C   0  0  0  0  0  0  0  0  0  0  0  0
   56.8954   24.1094   46.9059 O   0  0  0  0  0  0  0  0  0  0  0  0
   58.7867   25.3240   46.6214 N   0  0  0  0  0  0  0  0  0  0  0  0
   59.3976   26.4704   46.2216 C   0  0  0  0  0  0  0  0  0  0  0  0
   60.6494   26.5756   46.3263 O   0  0  0  0  0  0  0  0  0  0  0  0
   59.0372   32.3867   48.6561 C   0  0  0  0  0  0  0  0  0  0  0  0
   60.1819   33.3604   48.5936 C   0  0  0  0  0  0  0  0  0  0  0  0
   60.0548   34.4117   47.9063 O   0  0  0  0  0  0  0  0  0  0  0  0
   61.4302   33.0979   49.2671 N   0  0  0  0  0  0  0  0  0  0  0  0
   62.1882   34.2127   49.8567 C   0  0  0  0  0  0  0  0  0  0  0  0
   63.6799   34.0719   49.5439 C   0  0  0  0  0  0  0  0  0  0  0  0
   64.1367   32.6736   49.8437 C   0  0  0  0  0  0  0  0  0  0  0  0
   65.1874   32.4783   50.4381 O   0  0  0  0  0  0  0  0  0  0  0  0
   63.3334   31.5184   49.3214 C   0  0  0  0  0  0  0  0  0  0  0  0
   61.8418   31.7272   49.6123 C   0  0  0  0  0  0  0  0  0  0  0  0
  1  2  2  0
  2  3  1  0
  3  4  2  0
  4 10  1  0
 10 11  2  0
 11 12  1  0
 11 13  1  0
 13 14  1  0
 14 15  2  0
 14 16  1  0
 16 17  1  0
 17 18  2  0
  3  5  1  0
  5  6  1  0
  5  7  2  0
  7  8  1  0
  8 19  1  0
 19 20  1  0
 20 21  2  0
 20 22  1  0
 22 23  1  0
 23 24  1  0
 24 25  1  0
 25 26  2  0
 25 27  1  0
 27 28  1  0
  8  2  1  0
 28 22  1  0
 17 10  1  0
  7  9  1  0
M  CHG 1   7   1
M  CHG 1  12  -1
M  CHG 1  13  -1
M  CHG 1  16  -1
M  END
> <UniqueID>
17

> <SMILES>
C=c1c(=Cc2c([O-])[n-]c(=O)[n-]c2=O)c(C)[nH+]n1CC(=O)N1CCC(=O)CC1

> <Energy>
90.54765682211244

> <Genealogy>
C=c1c(=Cc2c([O-])[n-]c(=O)[n-]c2=O)c(C)[nH+]n1CC(=O)N1CCC(=O)CC1 (protonated)
C=c1c(=Cc2c([O-])[n-]c(=O)[n-]c2=O)c(C)[nH+]n1CC(=O)N1CCC(=O)CC1 (3D coordinates assigned)
C=c1c(=Cc2c([O-])[n-]c(=O)[n-]c2=O)c(C)[nH+]n1CC(=O)N1CCC(=O)CC1 (nonaromatic ring conformer: 90.54765682211244 kcal/mol)

> <smiles>
C=c1c(=Cc2c(O)[nH]c(=O)[nH]c2=O)c(C)nn1CC(=O)N1CCC(=O)CC1

> <score_type>
oracle

> <origin>
adg

> <m_score__min__energy>
-14.869999999999999

> <m_primary>
energy

> <minimizedAffinity>
-7.23098

> <minimizedRMSD>
1.13567

> <CNNscore>
0.0978149176

> <CNNaffinity>
6.0139765739

> <CNN_VS>
0.5882565975

> <CNNaffinity_variance>
0.0237260703

$$$$
17:0


 30 33  0  0  0  0  0  0  0  0999 V2000
   54.1540   28.2966   54.9296 C   0  0  0  0  0  0  0  0  0  0  0  0
   54.9034   28.8708   53.9751 C   0  0  0  0  0  0  0  0  0  0  0  0
   54.5616   29.9892   53.1995 C   0  0  0  0  0  0  0  0  0  0  0  0
   53.3836   30.6188   53.0250 C   0  0  0  0  0  0  0  0  0  0  0  0
   55.7259   30.3930   52.5706 C   0  0  0  0  0  0  0  0  0  0  0  0
   56.7073   29.4861   52.9164 C   0  0  0  0  0  0  0  0  0  0  0  0
   56.2040   28.5437   53.7488 N   0  0  0  0  0  0  0  0  0  0  0  0
   56.9511   27.4342   54.3530 C   0  0  0  0  0  0  0  0  0  0  0  0
   58.1197   29.5963   52.4983 C   0  0  0  0  0  0  0  0  0  0  0  0
   58.9925   28.8653   53.0364 O   0  0  0  0  0  0  0  0  0  0  0  0
   58.5197   30.5464   51.5079 N   0  0  0  0  0  0  0  0  0  0  0  0
   58.5884   31.9628   51.4309 C   0  0  0  0  0  0  0  0  0  0  0  0
   59.1238   32.0253   50.1003 C   0  0  0  0  0  0  0  0  0  0  0  0
   59.4460   32.9281   49.1713 C   0  0  0  0  0  0  0  0  0  0  0  0
   59.1158   30.5228   50.1727 C   0  0  0  0  0  0  0  0  0  0  0  0
   59.4853   29.6113   49.3867 O   0  0  0  0  0  0  0  0  0  0  0  0
   60.8205   33.1317   48.6536 C   0  0  0  0  0  0  0  0  0  0  0  0
   61.1139   33.0508   47.2788 C   0  0  0  0  0  0  0  0  0  0  0  0
   62.4150   33.2624   46.8169 C   0  0  0  0  0  0  0  0  0  0  0  0
   63.4367   33.5698   47.7166 C   0  0  0  0  0  0  0  0  0  0  0  0
   63.1577   33.6726   49.0810 C   0  0  0  0  0  0  0  0  0  0  0  0
   61.8566   33.4602   49.5518 C   0  0  0  0  0  0  0  0  0  0  0  0
   61.6064   33.5672   50.9154 O   0  0  0  0  0  0  0  0  0  0  0  0
   52.5709   30.5932   51.7979 C   0  0  0  0  0  0  0  0  0  0  0  0
   52.7526   29.7357   50.7750 N   0  0  0  0  0  0  0  0  0  0  0  0
   51.8830   30.1782   49.8416 C   0  0  0  0  0  0  0  0  0  0  0  0
   51.7430   29.6149   48.7240 O   0  0  0  0  0  0  0  0  0  0  0  0
   51.1812   31.2771   50.1944 N   0  0  0  0  0  0  0  0  0  0  0  0
   51.6400   31.5335   51.4291 C   0  0  0  0  0  0  0  0  0  0  0  0
   51.2206   32.6081   52.2020 O   0  0  0  0  0  0  0  0  0  0  0  0
  1  2  2  0
  2  3  1  0
  3  4  2  0
  4 24  1  0
 24 25  1  0
 25 26  1  0
 26 27  2  0
 26 28  1  0
 28 29  1  0
 29 30  1  0
  3  5  1  0
  5  6  2  0
  6  9  1  0
  9 10  2  0
  9 11  1  0
 11 12  1  0
 12 13  1  0
 13 14  2  0
 14 17  1  0
 17 18  2  0
 18 19  1  0
 19 20  2  0
 20 21  1  0
 21 22  2  0
 22 23  1  0
 13 15  1  0
 15 16  2  0
  6  7  1  0
  7  8  1  0
  7  2  1  0
 29 24  2  0
 15 11  1  0
 22 17  1  0
M  CHG 1  23  -1
M  CHG 1  25  -1
M  CHG 1  28  -1
M  CHG 1  30  -1
M  END
> <UniqueID>
18

> <SMILES>
C=c1c(=Cc2[n-]c(=O)[n-]c2[O-])cc(C(=O)N2CC(=Cc3ccccc3[O-])C2=O)n1C

> <Energy>
131.91046105913674

> <Genealogy>
C=c1c(=Cc2[n-]c(=O)[n-]c2[O-])cc(C(=O)N2CC(=Cc3ccccc3[O-])C2=O)n1C (protonated)
C=c1c(=Cc2[n-]c(=O)[n-]c2[O-])cc(C(=O)N2CC(=Cc3ccccc3[O-])C2=O)n1C (3D coordinates assigned)
C=c1c(=Cc2[n-]c(=O)[n-]c2[O-])cc(C(=O)N2CC(=Cc3ccccc3[O-])C2=O)n1C (nonaromatic ring conformer: 131.91046105913674 kcal/mol)

> <smiles>
C=c1c(=Cc2[nH]c(=O)[nH]c2O)cc(C(=O)N2CC(=Cc3ccccc3O)C2=O)n1C

> <score_type>
oracle

> <origin>
adg

> <m_score__min__energy>
-19.449999999999999

> <m_primary>
energy

> <minimizedAffinity>
-7.35662

> <minimizedRMSD>
0.76664

> <CNNscore>
0.1340579689

> <CNNaffinity>
5.8364887238

> <CNN_VS>
0.7824278474

> <CNNaffinity_variance>
0.0003994576

$$$$
20:0


 26 27  0  0  0  0  0  0  0  0999 V2000
   57.3955   29.3422   44.7957 C   0  0  0  0  0  0  0  0  0  0  0  0
   56.1475   29.4932   44.8899 O   0  0  0  0  0  0  0  0  0  0  0  0
   58.2579   30.4789   44.6865 N   0  0  0  0  0  0  0  0  0  0  0  0
   57.8264   31.8481   44.9440 C   0  0  0  0  0  0  0  0  0  0  0  0
   60.3346   33.6736   47.9501 C   0  0  0  0  0  0  0  0  0  0  0  0
   59.2496   34.3798   47.3965 C   0  0  0  0  0  0  0  0  0  0  0  0
   58.4454   33.7877   46.4227 C   0  0  0  0  0  0  0  0  0  0  0  0
   58.6920   32.4739   46.0028 C   0  0  0  0  0  0  0  0  0  0  0  0
   59.7710   31.7668   46.5497 C   0  0  0  0  0  0  0  0  0  0  0  0
   60.5986   32.3632   47.5227 C   0  0  0  0  0  0  0  0  0  0  0  0
   61.2692   33.8001   50.2667 C   0  0  0  0  0  0  0  0  0  0  0  0
   61.1789   34.2423   48.9160 O   0  0  0  0  0  0  0  0  0  0  0  0
   61.6962   31.6889   48.0807 O   0  0  0  0  0  0  0  0  0  0  0  0
   63.0415   31.8333   47.6369 C   0  0  0  0  0  0  0  0  0  0  0  0
   57.9788   27.9652   44.7231 C   0  0  0  0  0  0  0  0  0  0  0  0
   57.5994   27.1709   45.8888 N   0  0  0  0  0  0  0  0  0  0  0  0
   56.5832   26.1598   45.9274 C   0  0  0  0  0  0  0  0  0  0  0  0
   55.3932   26.5091   46.1474 O   0  0  0  0  0  0  0  0  0  0  0  0
   56.8863   24.7243   45.7370 C   0  0  0  0  0  0  0  0  0  0  0  0
   56.9305   24.1657   44.4522 C   0  0  0  0  0  0  0  0  0  0  0  0
   57.1610   22.8365   44.2932 N   0  0  0  0  0  0  0  0  0  0  0  0
   57.3403   22.0265   45.3673 C   0  0  0  0  0  0  0  0  0  0  0  0
   57.5541   20.7989   45.1982 O   0  0  0  0  0  0  0  0  0  0  0  0
   57.2835   22.5381   46.6231 N   0  0  0  0  0  0  0  0  0  0  0  0
   57.0596   23.8615   46.8334 C   0  0  0  0  0  0  0  0  0  0  0  0
   57.0188   24.3011   48.0124 O   0  0  0  0  0  0  0  0  0  0  0  0
 11 12  1  0
 12  5  1  0
  5  6  2  0
  6  7  1  0
  7  8  2  0
  8  4  1  0
  4  3  1  0
  3  1  1  0
  1  2  2  0
  1 15  1  0
 15 16  1  0
 16 17  1  0
 17 18  2  0
 17 19  1  0
 19 20  2  0
 20 21  1  0
 21 22  1  0
 22 23  2  0
 22 24  1  0
 24 25  1  0
 25 26  2  0
  8  9  1  0
  9 10  2  0
 10 13  1  0
 13 14  1  0
 10  5  1  0
 25 19  1  0
M  CHG 1   3  -1
M  CHG 1  16  -1
M  CHG 1  21  -1
M  CHG 1  24  -1
M  END
> <UniqueID>
21

> <SMILES>
COc1ccc(C[N-]C(=O)C[N-]C(=O)c2c[n-]c(=O)[n-]c2=O)cc1OC

> <Energy>
37.78116487520134

> <Genealogy>
COc1ccc(C[N-]C(=O)C[N-]C(=O)c2c[n-]c(=O)[n-]c2=O)cc1OC (protonated)
COc1ccc(C[N-]C(=O)C[N-]C(=O)c2c[n-]c(=O)[n-]c2=O)cc1OC (3D coordinates assigned)
COc1ccc(C[N-]C(=O)C[N-]C(=O)c2c[n-]c(=O)[n-]c2=O)cc1OC (optimized conformer: 37.78116487520134 kcal/mol)

> <smiles>
COc1ccc(CNC(=O)CNC(=O)c2c[nH]c(=O)[nH]c2=O)cc1OC

> <score_type>
oracle

> <origin>
adg

> <m_score__min__energy>
-14.140000000000001

> <m_primary>
energy

> <minimizedAffinity>
-6.52952

> <minimizedRMSD>
1.48132

> <CNNscore>
0.5693802834

> <CNNaffinity>
6.3317999840

> <CNN_VS>
3.6052019596

> <CNNaffinity_variance>
0.2416170239

$$$$
23:0


 35 39  0  0  0  0  0  0  0  0999 V2000
   58.4985   30.7121   45.7177 C   0  0  0  0  0  0  0  0  0  0  0  0
   57.8730   31.2365   44.5791 C   0  0  0  0  0  0  0  0  0  0  0  0
   57.8804   32.6153   44.3480 C   0  0  0  0  0  0  0  0  0  0  0  0
   58.5237   33.4749   45.2424 C   0  0  0  0  0  0  0  0  0  0  0  0
   59.1866   32.9559   46.3675 C   0  0  0  0  0  0  0  0  0  0  0  0
   59.1588   31.5744   46.6060 C   0  0  0  0  0  0  0  0  0  0  0  0
   57.5649   28.5634   43.8928 C   0  0  0  0  0  0  0  0  0  0  0  0
   58.0933   28.3167   45.1008 C   0  0  0  0  0  0  0  0  0  0  0  0
   58.2187   27.0694   45.7335 C   0  0  0  0  0  0  0  0  0  0  0  0
   58.0519   25.8189   45.2608 C   0  0  0  0  0  0  0  0  0  0  0  0
   58.6183   27.3329   47.0341 C   0  0  0  0  0  0  0  0  0  0  0  0
   58.7851   28.6982   47.1334 C   0  0  0  0  0  0  0  0  0  0  0  0
   59.2730   29.4135   48.3555 C   0  0  0  0  0  0  0  0  0  0  0  0
   58.4822   29.2959   45.9593 N   0  0  0  0  0  0  0  0  0  0  0  0
   57.2630   24.7571   45.9104 C   0  0  0  0  0  0  0  0  0  0  0  0
   57.7678   23.5946   46.3643 N   0  0  0  0  0  0  0  0  0  0  0  0
   56.7198   23.0244   46.9956 C   0  0  0  0  0  0  0  0  0  0  0  0
   56.7955   21.8987   47.5541 O   0  0  0  0  0  0  0  0  0  0  0  0
   55.5881   23.7614   46.9957 N   0  0  0  0  0  0  0  0  0  0  0  0
   55.9549   24.8596   46.3157 C   0  0  0  0  0  0  0  0  0  0  0  0
   55.1109   25.9377   46.0744 O   0  0  0  0  0  0  0  0  0  0  0  0
   59.8561   33.8382   47.3437 C   0  0  0  0  0  0  0  0  0  0  0  0
   59.2503   34.8723   47.7298 O   0  0  0  0  0  0  0  0  0  0  0  0
   61.1295   33.4956   47.9302 N   0  0  0  0  0  0  0  0  0  0  0  0
   61.4088   33.8788   49.3214 C   0  0  0  0  0  0  0  0  0  0  0  0
   62.0581   32.7042   50.0674 C   0  0  0  0  0  0  0  0  0  0  0  0
   63.2601   32.0742   49.3017 C   0  0  0  0  0  0  0  0  0  0  0  0
   63.4932   32.7228   47.9090 C   0  0  0  0  0  0  0  0  0  0  0  0
   62.1737   32.8286   47.1339 C   0  0  0  0  0  0  0  0  0  0  0  0
   64.4718   32.0604   50.1635 N   0  0  0  0  0  0  0  0  0  0  0  0
   64.9431   33.4125   50.5361 C   0  0  0  0  0  0  0  0  0  0  0  0
   66.0366   33.3317   51.6213 C   0  0  0  0  0  0  0  0  0  0  0  0
   66.6932   32.0798   51.5702 O   0  0  0  0  0  0  0  0  0  0  0  0
   65.8078   31.0346   51.9523 C   0  0  0  0  0  0  0  0  0  0  0  0
   64.3965   31.1835   51.3476 C   0  0  0  0  0  0  0  0  0  0  0  0
  7  8  2  0
  8  9  1  0
  9 10  2  0
 10 15  1  0
 15 16  1  0
 16 17  1  0
 17 18  2  0
 17 19  1  0
 19 20  1  0
 20 21  1  0
  9 11  1  0
 11 12  2  0
 12 13  1  0
 12 14  1  0
 14  1  1  0
  1  2  2  0
  2  3  1  0
  3  4  2  0
  4  5  1  0
  5 22  1  0
 22 23  2  0
 22 24  1  0
 24 25  1  0
 25 26  1  0
 26 27  1  0
 27 30  1  0
 30 31  1  0
 31 32  1  0
 32 33  1  0
 33 34  1  0
 34 35  1  0
 27 28  1  0
 28 29  1  0
  5  6  2  0
 14  8  1  0
  6  1  1  0
 20 15  2  0
 29 24  1  0
 35 30  1  0
M  CHG 1  16  -1
M  CHG 1  19  -1
M  CHG 1  21  -1
M  END
> <UniqueID>
24

> <SMILES>
C=c1c(=Cc2[n-]c(=O)[n-]c2[O-])cc(C)n1-c1cccc(C(=O)N2CCC(N3CCOCC3)CC2)c1

> <Energy>
167.63671292928908

> <Genealogy>
C=c1c(=Cc2[n-]c(=O)[n-]c2[O-])cc(C)n1-c1cccc(C(=O)N2CCC(N3CCOCC3)CC2)c1 (protonated)
C=c1c(=Cc2[n-]c(=O)[n-]c2[O-])cc(C)n1-c1cccc(C(=O)N2CCC(N3CCOCC3)CC2)c1 (3D coordinates assigned)
C=c1c(=Cc2[n-]c(=O)[n-]c2[O-])cc(C)n1-c1cccc(C(=O)N2CCC(N3CCOCC3)CC2)c1 (nonaromatic ring conformer: 167.63671292928908 kcal/mol)

> <smiles>
C=c1c(=Cc2[nH]c(=O)[nH]c2O)cc(C)n1-c1cccc(C(=O)N2CCC(N3CCOCC3)CC2)c1

> <score_type>
oracle

> <origin>
adg

> <m_score__min__energy>
-18.370000000000001

> <m_primary>
energy

> <minimizedAffinity>
-10.76098

> <minimizedRMSD>
0.80820

> <CNNscore>
0.3518899977

> <CNNaffinity>
7.1214447021

> <CNN_VS>
2.5059652328

> <CNNaffinity_variance>
0.0539134629

$$$$
26:0


 34 37  0  0  0  0  0  0  0  0999 V2000
   58.5874   26.5494   45.7570 C   0  0  0  0  0  0  0  0  0  0  0  0
   58.9942   27.6203   46.4733 C   0  0  0  0  0  0  0  0  0  0  0  0
   58.6998   27.8859   47.8005 C   0  0  0  0  0  0  0  0  0  0  0  0
   59.3401   29.0641   48.1315 C   0  0  0  0  0  0  0  0  0  0  0  0
   60.0362   29.5430   47.0642 N   0  0  0  0  0  0  0  0  0  0  0  0
   59.8284   28.6616   46.0428 C   0  0  0  0  0  0  0  0  0  0  0  0
   60.3532   28.7798   44.8099 C   0  0  0  0  0  0  0  0  0  0  0  0
   55.5055   26.5764   45.9627 O   0  0  0  0  0  0  0  0  0  0  0  0
   56.3307   25.5317   46.3732 C   0  0  0  0  0  0  0  0  0  0  0  0
   55.8616   24.4068   46.9416 N   0  0  0  0  0  0  0  0  0  0  0  0
   56.9864   23.6973   47.1719 C   0  0  0  0  0  0  0  0  0  0  0  0
   56.9721   22.5589   47.7074 O   0  0  0  0  0  0  0  0  0  0  0  0
   58.1276   24.3076   46.7862 N   0  0  0  0  0  0  0  0  0  0  0  0
   57.7049   25.4739   46.2654 C   0  0  0  0  0  0  0  0  0  0  0  0
   54.5781   26.5157   46.0824 H   0  0  0  0  0  0  0  0  0  0  0  0
   59.2416   29.6817   49.4746 C   0  0  0  0  0  0  0  0  0  0  0  0
   58.3024   29.3850   50.2571 O   0  0  0  0  0  0  0  0  0  0  0  0
   60.2450   30.6163   49.8942 N   0  0  0  0  0  0  0  0  0  0  0  0
   61.5163   30.2223   50.4926 C   0  0  0  0  0  0  0  0  0  0  0  0
   62.4125   31.4224   50.6477 C   0  0  0  0  0  0  0  0  0  0  0  0
   62.3579   32.1934   51.8199 C   0  0  0  0  0  0  0  0  0  0  0  0
   63.1701   33.3248   51.9572 C   0  0  0  0  0  0  0  0  0  0  0  0
   64.0352   33.6956   50.9238 C   0  0  0  0  0  0  0  0  0  0  0  0
   64.0894   32.9368   49.7509 C   0  0  0  0  0  0  0  0  0  0  0  0
   63.2822   31.8045   49.6109 C   0  0  0  0  0  0  0  0  0  0  0  0
   60.8587   30.7701   47.0406 C   0  0  0  0  0  0  0  0  0  0  0  0
   60.0684   31.9653   46.5558 C   0  0  0  0  0  0  0  0  0  0  0  0
   58.8093   31.7739   45.9579 C   0  0  0  0  0  0  0  0  0  0  0  0
   58.0732   32.8639   45.4846 C   0  0  0  0  0  0  0  0  0  0  0  0
   58.5926   34.1560   45.5848 C   0  0  0  0  0  0  0  0  0  0  0  0
   57.8806   35.2113   45.1199 F   0  0  0  0  0  0  0  0  0  0  0  0
   59.8546   34.3584   46.1492 C   0  0  0  0  0  0  0  0  0  0  0  0
   60.5951   33.2713   46.6278 C   0  0  0  0  0  0  0  0  0  0  0  0
   61.8275   33.5001   47.1454 F   0  0  0  0  0  0  0  0  0  0  0  0
  8  9  1  0
  9 10  1  0
 10 11  1  0
 11 12  2  0
 11 13  1  0
 13 14  1  0
 14  1  1  0
  1  2  2  0
  2  3  1  0
  3  4  2  0
  4 16  1  0
 16 17  2  0
 16 18  1  0
 18 19  1  0
 19 20  1  0
 20 21  2  0
 21 22  1  0
 22 23  2  0
 23 24  1  0
 24 25  2  0
  4  5  1  0
  5 26  1  0
 26 27  1  0
 27 28  2  0
 28 29  1  0
 29 30  2  0
 30 31  1  0
 30 32  1  0
 32 33  2  0
 33 34  1  0
  5  6  1  0
  6  7  2  0
 14  9  2  0
  6  2  1  0
 25 20  1  0
 33 27  1  0
  8 15  1  0
M  CHG 1  10  -1
M  CHG 1  13  -1
M  CHG 1  18  -1
M  END
> <UniqueID>
27

> <SMILES>
C=c1/c(=C/c2[n-]c(=O)[n-]c2O)cc(C(=O)[N-]Cc2ccccc2)n1Cc1ccc(F)cc1F

> <Energy>
118.62736268729235

> <Genealogy>
C=c1c(=Cc2[n-]c(=O)[n-]c2O)cc(C(=O)[N-]Cc2ccccc2)n1Cc1ccc(F)cc1F (protonated)
C=c1/c(=C/c2[n-]c(=O)[n-]c2O)cc(C(=O)[N-]Cc2ccccc2)n1Cc1ccc(F)cc1F (cis-trans isomerization)
C=c1/c(=C/c2[n-]c(=O)[n-]c2O)cc(C(=O)[N-]Cc2ccccc2)n1Cc1ccc(F)cc1F (3D coordinates assigned)
C=c1/c(=C/c2[n-]c(=O)[n-]c2O)cc(C(=O)[N-]Cc2ccccc2)n1Cc1ccc(F)cc1F (optimized conformer: 118.62736268729235 kcal/mol)

> <smiles>
C=c1c(=Cc2[nH]c(=O)[nH]c2O)cc(C(=O)NCc2ccccc2)n1Cc1ccc(F)cc1F

> <score_type>
oracle

> <origin>
adg

> <m_score__min__energy>
-14.789999999999999

> <m_primary>
energy

> <minimizedAffinity>
-8.65364

> <minimizedRMSD>
1.38821

> <CNNscore>
0.8089237809

> <CNNaffinity>
7.7466893196

> <CNN_VS>
6.2664813995

> <CNNaffinity_variance>
0.0452178530

$$$$
28:0


 31 34  0  0  0  0  0  0  0  0999 V2000
   56.4016   28.0093   45.5092 C   0  0  0  0  0  0  0  0  0  0  0  0
   57.5778   27.8885   46.1468 C   0  0  0  0  0  0  0  0  0  0  0  0
   58.0319   26.7908   46.8995 C   0  0  0  0  0  0  0  0  0  0  0  0
   57.5269   25.5506   47.0500 C   0  0  0  0  0  0  0  0  0  0  0  0
   59.1994   27.2028   47.5197 C   0  0  0  0  0  0  0  0  0  0  0  0
   59.4506   28.4883   47.0897 C   0  0  0  0  0  0  0  0  0  0  0  0
   60.6310   29.3105   47.5117 C   0  0  0  0  0  0  0  0  0  0  0  0
   58.4700   28.9072   46.2588 N   0  0  0  0  0  0  0  0  0  0  0  0
   57.1476   24.6371   45.9539 C   0  0  0  0  0  0  0  0  0  0  0  0
   55.8359   24.6034   45.4545 C   0  0  0  0  0  0  0  0  0  0  0  0
   54.8481   25.4129   46.0081 O   0  0  0  0  0  0  0  0  0  0  0  0
   55.5245   23.7792   44.4168 N   0  0  0  0  0  0  0  0  0  0  0  0
   56.4737   22.9986   43.8365 C   0  0  0  0  0  0  0  0  0  0  0  0
   56.1710   22.2397   42.8776 O   0  0  0  0  0  0  0  0  0  0  0  0
   57.7541   23.0383   44.2857 N   0  0  0  0  0  0  0  0  0  0  0  0
   58.1132   23.8409   45.3198 C   0  0  0  0  0  0  0  0  0  0  0  0
   59.3126   23.8560   45.7065 O   0  0  0  0  0  0  0  0  0  0  0  0
   54.5992   23.7481   44.0822 H   0  0  0  0  0  0  0  0  0  0  0  0
   58.3943   30.2038   45.6377 C   0  0  0  0  0  0  0  0  0  0  0  0
   57.8699   30.3338   44.3436 C   0  0  0  0  0  0  0  0  0  0  0  0
   57.7970   31.5897   43.7388 C   0  0  0  0  0  0  0  0  0  0  0  0
   58.2554   32.7222   44.4167 C   0  0  0  0  0  0  0  0  0  0  0  0
   58.8024   32.6021   45.7061 C   0  0  0  0  0  0  0  0  0  0  0  0
   58.8524   31.3422   46.3161 C   0  0  0  0  0  0  0  0  0  0  0  0
   59.2569   33.7163   46.4264 O   0  0  0  0  0  0  0  0  0  0  0  0
   60.3487   33.7251   47.3063 C   0  0  0  0  0  0  0  0  0  0  0  0
   61.6635   33.4865   46.8646 C   0  0  0  0  0  0  0  0  0  0  0  0
   62.7238   33.4865   47.7775 C   0  0  0  0  0  0  0  0  0  0  0  0
   62.4795   33.7134   49.1349 C   0  0  0  0  0  0  0  0  0  0  0  0
   61.1731   33.9319   49.5812 C   0  0  0  0  0  0  0  0  0  0  0  0
   60.1125   33.9316   48.6714 C   0  0  0  0  0  0  0  0  0  0  0  0
  1  2  2  0
  2  3  1  0
  3  4  2  0
  4  9  1  0
  9 10  2  0
 10 11  1  0
 10 12  1  0
 12 13  1  0
 13 14  2  0
 13 15  1  0
 15 16  1  0
 16 17  2  0
  3  5  1  0
  5  6  2  0
  6  7  1  0
  6  8  1  0
  8 19  1  0
 19 20  2  0
 20 21  1  0
 21 22  2  0
 22 23  1  0
 23 25  1  0
 25 26  1  0
 26 27  2  0
 27 28  1  0
 28 29  2  0
 29 30  1  0
 30 31  2  0
 23 24  2  0
  8  2  1  0
 24 19  1  0
 16  9  1  0
 31 26  1  0
 12 18  1  0
M  CHG 1  11  -1
M  CHG 1  15  -1
M  END
> <UniqueID>
29

> <SMILES>
C=c1/c(=C\c2c([O-])[nH]c(=O)[n-]c2=O)cc(C)n1-c1cccc(Oc2ccccc2)c1

> <Energy>
106.75322874742

> <Genealogy>
C=c1c(=Cc2c([O-])[nH]c(=O)[n-]c2=O)cc(C)n1-c1cccc(Oc2ccccc2)c1 (protonated)
C=c1/c(=C\c2c([O-])[nH]c(=O)[n-]c2=O)cc(C)n1-c1cccc(Oc2ccccc2)c1 (cis-trans isomerization)
C=c1/c(=C\c2c([O-])[nH]c(=O)[n-]c2=O)cc(C)n1-c1cccc(Oc2ccccc2)c1 (3D coordinates assigned)
C=c1/c(=C\c2c([O-])[nH]c(=O)[n-]c2=O)cc(C)n1-c1cccc(Oc2ccccc2)c1 (optimized conformer: 106.75322874742 kcal/mol)

> <smiles>
C=c1c(=Cc2c(O)[nH]c(=O)[nH]c2=O)cc(C)n1-c1cccc(Oc2ccccc2)c1

> <score_type>
oracle

> <origin>
adg

> <m_score__min__energy>
-14.949999999999999

> <m_primary>
energy

> <minimizedAffinity>
-9.14098

> <minimizedRMSD>
0.80496

> <CNNscore>
0.2279593945

> <CNNaffinity>
6.6506142616

> <CNN_VS>
1.5160700083

> <CNNaffinity_variance>
0.0312569626

$$$$
37:0


 36 39  0  0  0  0  0  0  0  0999 V2000
   57.4650   33.0618   47.0806 O   0  0  0  0  0  0  0  0  0  0  0  0
   58.5306   32.3851   47.0329 C   0  0  0  0  0  0  0  0  0  0  0  0
   59.6999   32.8527   47.7278 N   0  0  0  0  0  0  0  0  0  0  0  0
   61.0045   32.7495   47.0539 C   0  0  0  0  0  0  0  0  0  0  0  0
   62.1146   33.5098   47.7797 C   0  0  0  0  0  0  0  0  0  0  0  0
   62.0571   33.3172   49.2365 N   0  0  0  0  0  0  0  0  0  0  0  0
   60.8012   33.8845   49.7670 C   0  0  0  0  0  0  0  0  0  0  0  0
   59.5290   33.2974   49.1227 C   0  0  0  0  0  0  0  0  0  0  0  0
   62.9075   33.1605   49.7071 H   0  0  0  0  0  0  0  0  0  0  0  0
   58.5476   31.1091   46.2843 C   0  0  0  0  0  0  0  0  0  0  0  0
   58.7843   29.9033   46.9661 C   0  0  0  0  0  0  0  0  0  0  0  0
   58.8172   28.6828   46.2726 C   0  0  0  0  0  0  0  0  0  0  0  0
   58.5791   28.6713   44.8892 C   0  0  0  0  0  0  0  0  0  0  0  0
   58.3219   29.8632   44.2104 C   0  0  0  0  0  0  0  0  0  0  0  0
   58.3023   31.0791   44.8991 C   0  0  0  0  0  0  0  0  0  0  0  0
   58.0694   32.2257   44.2108 F   0  0  0  0  0  0  0  0  0  0  0  0
   59.0651   27.3995   47.0189 C   0  0  0  0  0  0  0  0  0  0  0  0
   58.1147   26.3237   46.5540 C   0  0  0  0  0  0  0  0  0  0  0  0
   56.7328   26.5578   46.5289 C   0  0  0  0  0  0  0  0  0  0  0  0
   55.8834   25.5903   46.0984 N   0  0  0  0  0  0  0  0  0  0  0  0
   56.3518   24.3885   45.6759 C   0  0  0  0  0  0  0  0  0  0  0  0
   55.5484   23.5053   45.2812 O   0  0  0  0  0  0  0  0  0  0  0  0
   57.6882   24.1395   45.6754 N   0  0  0  0  0  0  0  0  0  0  0  0
   58.5770   25.0749   46.1012 C   0  0  0  0  0  0  0  0  0  0  0  0
   59.8097   24.8103   46.0843 O   0  0  0  0  0  0  0  0  0  0  0  0
   62.2916   31.9295   49.6183 C   0  0  0  0  0  0  0  0  0  0  0  0
   61.4030   31.0907   49.5265 O   0  0  0  0  0  0  0  0  0  0  0  0
   63.6388   31.4996   50.1381 C   0  0  0  0  0  0  0  0  0  0  0  0
   64.7452   32.4408   49.6413 C   0  0  0  0  0  0  0  0  0  0  0  0
   65.6710   32.8204   50.7700 C   0  0  0  0  0  0  0  0  0  0  0  0
   66.9458   32.2351   50.8569 C   0  0  0  0  0  0  0  0  0  0  0  0
   67.8260   32.6006   51.8816 C   0  0  0  0  0  0  0  0  0  0  0  0
   67.4421   33.5617   52.8216 C   0  0  0  0  0  0  0  0  0  0  0  0
   66.1810   34.1589   52.7390 C   0  0  0  0  0  0  0  0  0  0  0  0
   65.2915   33.7947   51.7196 C   0  0  0  0  0  0  0  0  0  0  0  0
   64.0431   34.4069   51.6483 O   0  0  0  0  0  0  0  0  0  0  0  0
  1  2  2  0
  2 10  1  0
 10 11  2  0
 11 12  1  0
 12 17  1  0
 17 18  1  0
 18 19  2  0
 19 20  1  0
 20 21  1  0
 21 22  2  0
 21 23  1  0
 23 24  1  0
 24 25  2  0
 12 13  2  0
 13 14  1  0
 14 15  2  0
 15 16  1  0
  2  3  1  0
  3  4  1  0
  4  5  1  0
  5  6  1  0
  6 26  1  0
 26 27  2  0
 26 28  1  0
 28 29  1  0
 29 30  1  0
 30 31  2  0
 31 32  1  0
 32 33  2  0
 33 34  1  0
 34 35  2  0
 35 36  1  0
  6  7  1  0
  7  8  1  0
 15 10  1  0
  8  3  1  0
 24 18  1  0
 35 30  1  0
  6  9  1  0
M  CHG 1   6   1
M  CHG 1  20  -1
M  CHG 1  23  -1
M  CHG 1  36  -1
M  END
> <UniqueID>
38

> <SMILES>
O=C(c1cc(Cc2c[n-]c(=O)[n-]c2=O)ccc1F)N1CC[NH+](C(=O)CCc2ccccc2[O-])CC1

> <Energy>
71.70523066749756

> <Genealogy>
O=C(c1cc(Cc2c[n-]c(=O)[n-]c2=O)ccc1F)N1CC[NH+](C(=O)CCc2ccccc2[O-])CC1 (protonated)
O=C(c1cc(Cc2c[n-]c(=O)[n-]c2=O)ccc1F)N1CC[NH+](C(=O)CCc2ccccc2[O-])CC1 (3D coordinates assigned)
O=C(c1cc(Cc2c[n-]c(=O)[n-]c2=O)ccc1F)N1CC[NH+](C(=O)CCc2ccccc2[O-])CC1 (nonaromatic ring conformer: 71.70523066749756 kcal/mol)

> <smiles>
O=C(CCc1ccccc1O)N1CCN(C(=O)c2cc(Cc3c[nH]c(=O)[nH]c3=O)ccc2F)CC1

> <score_type>
oracle

> <origin>
adg

> <m_score__min__energy>
-16.899999999999999

> <m_primary>
energy

> <minimizedAffinity>
-7.90522

> <minimizedRMSD>
1.07581

> <CNNscore>
0.1911157817

> <CNNaffinity>
6.6675658226

> <CNN_VS>
1.2742770910

> <CNNaffinity_variance>
0.0234681387

$$$$
40:0


 27 30  0  0  0  0  0  0  0  0999 V2000
   59.6416   26.8765   47.0618 C   0  0  0  0  0  0  0  0  0  0  0  0
   58.9404   27.6979   46.2631 C   0  0  0  0  0  0  0  0  0  0  0  0
   58.2431   27.3525   45.0926 C   0  0  0  0  0  0  0  0  0  0  0  0
   57.9635   26.1524   44.5474 C   0  0  0  0  0  0  0  0  0  0  0  0
   57.8200   28.5442   44.5285 C   0  0  0  0  0  0  0  0  0  0  0  0
   58.2142   29.5533   45.3811 C   0  0  0  0  0  0  0  0  0  0  0  0
   57.9330   31.0093   45.1594 C   0  0  0  0  0  0  0  0  0  0  0  0
   58.8846   29.0443   46.4373 N   0  0  0  0  0  0  0  0  0  0  0  0
   57.4223   24.9892   45.2686 C   0  0  0  0  0  0  0  0  0  0  0  0
   56.2716   24.9608   46.0206 C   0  0  0  0  0  0  0  0  0  0  0  0
   55.3490   25.9941   46.1276 O   0  0  0  0  0  0  0  0  0  0  0  0
   56.1537   23.7826   46.6626 N   0  0  0  0  0  0  0  0  0  0  0  0
   57.2736   23.1256   46.2898 C   0  0  0  0  0  0  0  0  0  0  0  0
   57.5529   21.9673   46.6940 O   0  0  0  0  0  0  0  0  0  0  0  0
   58.0716   23.8274   45.4606 N   0  0  0  0  0  0  0  0  0  0  0  0
   58.9367   23.5510   45.0805 H   0  0  0  0  0  0  0  0  0  0  0  0
   59.4930   29.8183   47.4852 C   0  0  0  0  0  0  0  0  0  0  0  0
   60.8058   30.8508   47.2841 S   0  0  0  0  0  0  0  0  0  0  0  0
   60.9241   31.2701   48.9130 C   0  0  0  0  0  0  0  0  0  0  0  0
   59.9456   30.5849   49.6341 C   0  0  0  0  0  0  0  0  0  0  0  0
   59.1436   29.7694   48.8290 C   0  0  0  0  0  0  0  0  0  0  0  0
   61.9220   32.1568   49.4529 N   0  0  0  0  0  0  0  0  0  0  0  0
   61.8392   33.5672   49.5726 C   0  0  0  0  0  0  0  0  0  0  0  0
   60.8595   34.2468   49.1693 O   0  0  0  0  0  0  0  0  0  0  0  0
   63.0431   34.1690   50.1772 C   0  0  0  0  0  0  0  0  0  0  0  0
   63.9334   32.9558   50.4839 C   0  0  0  0  0  0  0  0  0  0  0  0
   63.2222   31.7096   49.9258 C   0  0  0  0  0  0  0  0  0  0  0  0
  1  2  2  0
  2  3  1  0
  3  4  2  0
  4  9  1  0
  9 10  2  0
 10 11  1  0
 10 12  1  0
 12 13  1  0
 13 14  2  0
 13 15  1  0
  3  5  1  0
  5  6  2  0
  6  7  1  0
  6  8  1  0
  8 17  1  0
 17 18  1  0
 18 19  1  0
 19 22  1  0
 22 23  1  0
 23 24  2  0
 23 25  1  0
 25 26  1  0
 26 27  1  0
 19 20  2  0
 20 21  1  0
  8  2  1  0
 21 17  2  0
 15  9  1  0
 27 22  1  0
 15 16  1  0
M  CHG 1  11  -1
M  CHG 1  12  -1
M  END
> <UniqueID>
41

> <SMILES>
C=c1/c(=C\c2[nH]c(=O)[n-]c2[O-])cc(C)n1-c1ccc(N2CCCC2=O)s1

> <Energy>
156.46489737244926

> <Genealogy>
C=c1c(=Cc2[nH]c(=O)[n-]c2[O-])cc(C)n1-c1ccc(N2CCCC2=O)s1 (protonated)
C=c1/c(=C\c2[nH]c(=O)[n-]c2[O-])cc(C)n1-c1ccc(N2CCCC2=O)s1 (cis-trans isomerization)
C=c1/c(=C\c2[nH]c(=O)[n-]c2[O-])cc(C)n1-c1ccc(N2CCCC2=O)s1 (3D coordinates assigned)
C=c1/c(=C\c2[nH]c(=O)[n-]c2[O-])cc(C)n1-c1ccc(N2CCCC2=O)s1 (nonaromatic ring conformer: 156.46489737244926 kcal/mol)

> <smiles>
C=c1c(=Cc2[nH]c(=O)[nH]c2O)cc(C)n1-c1ccc(N2CCCC2=O)s1

> <score_type>
oracle

> <origin>
adg

> <m_score__min__energy>
-14.029999999999999

> <m_primary>
energy

> <minimizedAffinity>
-8.34511

> <minimizedRMSD>
1.76049

> <CNNscore>
0.1226022542

> <CNNaffinity>
6.3779873848

> <CNN_VS>
0.7819556594

> <CNNaffinity_variance>
0.0560315065

$$$$
64:0


 27 29  0  0  0  0  0  0  0  0999 V2000
   58.0094   28.6378   46.0827 C   0  0  0  0  0  0  0  0  0  0  0  0
   59.1889   29.1330   46.6656 C   0  0  0  0  0  0  0  0  0  0  0  0
   59.6548   30.4217   46.3495 C   0  0  0  0  0  0  0  0  0  0  0  0
   58.9053   31.2242   45.4710 C   0  0  0  0  0  0  0  0  0  0  0  0
   57.7213   30.7429   44.9118 C   0  0  0  0  0  0  0  0  0  0  0  0
   57.2692   29.4581   45.2200 C   0  0  0  0  0  0  0  0  0  0  0  0
   56.0824   28.9953   44.6583 O   0  0  0  0  0  0  0  0  0  0  0  0
   60.8989   30.9423   46.9634 C   0  0  0  0  0  0  0  0  0  0  0  0
   61.9457   30.2394   46.9398 O   0  0  0  0  0  0  0  0  0  0  0  0
   60.9321   32.2340   47.5970 N   0  0  0  0  0  0  0  0  0  0  0  0
   61.6702   32.3881   48.8594 C   0  0  0  0  0  0  0  0  0  0  0  0
   61.4634   33.7829   49.4681 C   0  0  0  0  0  0  0  0  0  0  0  0
   60.0053   34.2227   49.2925 C   0  0  0  0  0  0  0  0  0  0  0  0
   59.6082   34.3231   47.8061 C   0  0  0  0  0  0  0  0  0  0  0  0
   60.4482   33.4233   46.8817 C   0  0  0  0  0  0  0  0  0  0  0  0
   57.5106   27.3264   46.3862 N   0  0  0  0  0  0  0  0  0  0  0  0
   57.9085   26.1600   44.3929 O   0  0  0  0  0  0  0  0  0  0  0  0
   57.7596   26.1269   45.6439 C   0  0  0  0  0  0  0  0  0  0  0  0
   57.7539   24.8091   46.3521 C   0  0  0  0  0  0  0  0  0  0  0  0
   56.4097   24.1616   46.2251 C   0  0  0  0  0  0  0  0  0  0  0  0
   56.1532   22.4934   46.2133 S   0  0  0  0  0  0  0  0  0  0  0  0
   54.5056   22.6623   45.9402 C   0  0  0  0  0  0  0  0  0  0  0  0
   53.7030   21.6994   45.8339 O   0  0  0  0  0  0  0  0  0  0  0  0
   54.1254   23.9517   45.8362 N   0  0  0  0  0  0  0  0  0  0  0  0
   55.1826   24.7915   45.9893 C   0  0  0  0  0  0  0  0  0  0  0  0
   55.0208   26.1727   45.8968 O   0  0  0  0  0  0  0  0  0  0  0  0
   54.1717   26.5352   45.7371 H   0  0  0  0  0  0  0  0  0  0  0  0
 17 18  2  0
 18 19  1  0
 19 20  1  0
 20 21  1  0
 21 22  1  0
 22 23  2  0
 22 24  1  0
 24 25  1  0
 25 26  1  0
 18 16  1  0
 16  1  1  0
  1  2  2  0
  2  3  1  0
  3  8  1  0
  8  9  2  0
  8 10  1  0
 10 11  1  0
 11 12  1  0
 12 13  1  0
 13 14  1  0
 14 15  1  0
  3  4  2  0
  4  5  1  0
  5  6  2  0
  6  7  1  0
 25 20  2  0
  6  1  1  0
 15 10  1  0
 26 27  1  0
M  CHG 1   7  -1
M  CHG 1  16  -1
M  CHG 1  24  -1
M  END
> <UniqueID>
64

> <SMILES>
O=C(Cc1sc(=O)[n-]c1O)[N-]c1cc(C(=O)N2CCCCC2)ccc1[O-]

> <Energy>
80.94660276549469

> <Genealogy>
O=C(Cc1sc(=O)[n-]c1O)[N-]c1cc(C(=O)N2CCCCC2)ccc1[O-] (protonated)
O=C(Cc1sc(=O)[n-]c1O)[N-]c1cc(C(=O)N2CCCCC2)ccc1[O-] (3D coordinates assigned)
O=C(Cc1sc(=O)[n-]c1O)[N-]c1cc(C(=O)N2CCCCC2)ccc1[O-] (nonaromatic ring conformer: 80.94660276549469 kcal/mol)

> <smiles>
O=C(Cc1sc(=O)[nH]c1O)Nc1cc(C(=O)N2CCCCC2)ccc1O

> <score_type>
oracle

> <origin>
adg

> <m_score__min__energy>
-15.73

> <m_primary>
energy

> <minimizedAffinity>
-7.07307

> <minimizedRMSD>
0.78169

> <CNNscore>
0.1913647652

> <CNNaffinity>
6.1284918785

> <CNN_VS>
1.1727774143

> <CNNaffinity_variance>
0.1490948200

$$$$
85:0


 33 36  0  0  0  0  0  0  0  0999 V2000
   60.7648   29.2028   46.3620 C   0  0  0  0  0  0  0  0  0  0  0  0
   57.5776   25.7947   44.6887 C   0  0  0  0  0  0  0  0  0  0  0  0
   58.1644   26.9849   44.9494 C   0  0  0  0  0  0  0  0  0  0  0  0
   57.7335   28.2380   44.5369 C   0  0  0  0  0  0  0  0  0  0  0  0
   58.6462   29.1532   45.0195 C   0  0  0  0  0  0  0  0  0  0  0  0
   58.5078   30.6372   44.8703 C   0  0  0  0  0  0  0  0  0  0  0  0
   59.6244   28.5303   45.7187 N   0  0  0  0  0  0  0  0  0  0  0  0
   59.3305   27.2025   45.6976 C   0  0  0  0  0  0  0  0  0  0  0  0
   60.0619   26.2531   46.3095 C   0  0  0  0  0  0  0  0  0  0  0  0
   54.8191   25.9802   45.9608 O   0  0  0  0  0  0  0  0  0  0  0  0
   55.7652   25.0129   46.2816 C   0  0  0  0  0  0  0  0  0  0  0  0
   55.5926   24.0792   47.2336 N   0  0  0  0  0  0  0  0  0  0  0  0
   56.7558   23.3990   47.1950 C   0  0  0  0  0  0  0  0  0  0  0  0
   56.9966   22.4248   47.9540 O   0  0  0  0  0  0  0  0  0  0  0  0
   57.6448   23.8500   46.2857 N   0  0  0  0  0  0  0  0  0  0  0  0
   57.0041   24.8762   45.6977 C   0  0  0  0  0  0  0  0  0  0  0  0
   53.9977   25.9997   46.4112 H   0  0  0  0  0  0  0  0  0  0  0  0
   60.5161   29.4046   47.8334 C   0  0  0  0  0  0  0  0  0  0  0  0
   60.3969   28.2991   48.6890 C   0  0  0  0  0  0  0  0  0  0  0  0
   60.1086   28.4838   50.0433 C   0  0  0  0  0  0  0  0  0  0  0  0
   59.9277   29.7702   50.5535 C   0  0  0  0  0  0  0  0  0  0  0  0
   60.0297   30.8870   49.7070 C   0  0  0  0  0  0  0  0  0  0  0  0
   60.3389   30.6959   48.3547 C   0  0  0  0  0  0  0  0  0  0  0  0
   59.8095   32.2193   50.1821 N   0  0  0  0  0  0  0  0  0  0  0  0
   59.9091   33.6447   49.1969 S   0  0  0  0  0  0  0  0  0  0  0  0
   59.1752   33.4217   47.9038 O   0  0  0  0  0  0  0  0  0  0  0  0
   59.2624   34.7843   49.9338 O   0  0  0  0  0  0  0  0  0  0  0  0
   61.6317   34.0516   48.8788 C   0  0  0  0  0  0  0  0  0  0  0  0
   62.5222   33.7579   50.1063 C   0  0  0  0  0  0  0  0  0  0  0  0
   63.2589   32.4162   49.9426 C   0  0  0  0  0  0  0  0  0  0  0  0
   64.1001   32.3446   48.7943 O   0  0  0  0  0  0  0  0  0  0  0  0
   63.6612   33.1357   47.6960 C   0  0  0  0  0  0  0  0  0  0  0  0
   62.1360   33.3099   47.6271 C   0  0  0  0  0  0  0  0  0  0  0  0
 10 11  1  0
 11 12  1  0
 12 13  1  0
 13 14  2  0
 13 15  1  0
 15 16  1  0
 16  2  1  0
  2  3  2  0
  3  4  1  0
  4  5  2  0
  5  6  1  0
  5  7  1  0
  7  1  1  0
  1 18  1  0
 18 19  2  0
 19 20  1  0
 20 21  2  0
 21 22  1  0
 22 24  1  0
 24 25  1  0
 25 26  2  0
 25 27  2  0
 25 28  1  0
 28 29  1  0
 29 30  1  0
 30 31  1  0
 31 32  1  0
 32 33  1  0
 22 23  2  0
  7  8  1  0
  8  9  2  0
 16 11  2  0
  8  3  1  0
 23 18  1  0
 33 28  1  0
 10 17  1  0
M  CHG 1  12  -1
M  CHG 1  15  -1
M  CHG 1  24  -1
M  END
> <UniqueID>
84

> <SMILES>
C=c1/c(=C/c2[n-]c(=O)[n-]c2O)cc(C)n1Cc1cccc([N-]S(=O)(=O)C2CCOCC2)c1

> <Energy>
128.53274690568804

> <Genealogy>
C=c1c(=Cc2[n-]c(=O)[n-]c2O)cc(C)n1Cc1cccc([N-]S(=O)(=O)C2CCOCC2)c1 (protonated)
C=c1/c(=C/c2[n-]c(=O)[n-]c2O)cc(C)n1Cc1cccc([N-]S(=O)(=O)C2CCOCC2)c1 (cis-trans isomerization)
C=c1/c(=C/c2[n-]c(=O)[n-]c2O)cc(C)n1Cc1cccc([N-]S(=O)(=O)C2CCOCC2)c1 (3D coordinates assigned)
C=c1/c(=C/c2[n-]c(=O)[n-]c2O)cc(C)n1Cc1cccc([N-]S(=O)(=O)C2CCOCC2)c1 (nonaromatic ring conformer: 128.53274690568804 kcal/mol)

> <smiles>
C=c1c(=Cc2[nH]c(=O)[nH]c2O)cc(C)n1Cc1cccc(NS(=O)(=O)C2CCOCC2)c1

> <score_type>
oracle

> <origin>
adg

> <m_score__min__energy>
-15.58

> <m_primary>
energy

> <minimizedAffinity>
-8.00962

> <minimizedRMSD>
0.48163

> <CNNscore>
0.2227318287

> <CNNaffinity>
6.7863354683

> <CNN_VS>
1.5115329027

> <CNNaffinity_variance>
0.0575246513

$$$$
91:0


 32 35  0  0  0  0  0  0  0  0999 V2000
   58.9712   34.8855   45.3288 C   0  0  0  0  0  0  0  0  0  0  0  0
   59.5039   35.0580   46.5648 N   0  0  0  0  0  0  0  0  0  0  0  0
   59.6552   34.0076   47.4141 C   0  0  0  0  0  0  0  0  0  0  0  0
   60.1732   34.2074   48.5892 N   0  0  0  0  0  0  0  0  0  0  0  0
   59.2610   32.7639   47.0239 N   0  0  0  0  0  0  0  0  0  0  0  0
   58.7135   32.5374   45.7986 C   0  0  0  0  0  0  0  0  0  0  0  0
   58.5656   33.6175   44.9138 C   0  0  0  0  0  0  0  0  0  0  0  0
   61.4629   33.6772   49.0495 C   0  0  0  0  0  0  0  0  0  0  0  0
   61.8456   32.4433   48.1927 C   0  0  0  0  0  0  0  0  0  0  0  0
   61.8689   31.1159   48.9691 C   0  0  0  0  0  0  0  0  0  0  0  0
   60.7332   31.0291   49.9034 N   0  0  0  0  0  0  0  0  0  0  0  0
   59.9785   29.8085   50.0786 C   0  0  0  0  0  0  0  0  0  0  0  0
   59.0167   29.7823   50.8960 O   0  0  0  0  0  0  0  0  0  0  0  0
   60.2887   28.5588   49.3068 C   0  0  0  0  0  0  0  0  0  0  0  0
   60.4526   32.1588   50.8041 C   0  0  0  0  0  0  0  0  0  0  0  0
   61.3952   33.3414   50.5508 C   0  0  0  0  0  0  0  0  0  0  0  0
   58.3133   31.1581   45.4242 C   0  0  0  0  0  0  0  0  0  0  0  0
   57.2516   30.9592   44.5246 C   0  0  0  0  0  0  0  0  0  0  0  0
   56.8663   29.6701   44.1555 C   0  0  0  0  0  0  0  0  0  0  0  0
   57.5378   28.5600   44.6709 C   0  0  0  0  0  0  0  0  0  0  0  0
   58.6092   28.7284   45.5656 C   0  0  0  0  0  0  0  0  0  0  0  0
   58.9952   30.0338   45.9317 C   0  0  0  0  0  0  0  0  0  0  0  0
   59.3308   27.5504   46.1025 C   0  0  0  0  0  0  0  0  0  0  0  0
   60.5683   27.4222   45.8901 O   0  0  0  0  0  0  0  0  0  0  0  0
   58.6047   26.4981   46.7585 N   0  0  0  0  0  0  0  0  0  0  0  0
   58.0075   25.4609   46.2395 C   0  0  0  0  0  0  0  0  0  0  0  0
   58.7744   24.3760   45.9410 N   0  0  0  0  0  0  0  0  0  0  0  0
   58.2594   23.2337   45.4128 C   0  0  0  0  0  0  0  0  0  0  0  0
   56.8961   23.1426   45.1494 C   0  0  0  0  0  0  0  0  0  0  0  0
   56.0769   24.2400   45.4108 C   0  0  0  0  0  0  0  0  0  0  0  0
   56.6206   25.4145   45.9381 C   0  0  0  0  0  0  0  0  0  0  0  0
   55.7849   26.5137   46.0953 O   0  0  0  0  0  0  0  0  0  0  0  0
  1  2  1  0
  2  3  1  0
  3  4  2  0
  4  8  1  0
  8  9  1  0
  9 10  1  0
 10 11  1  0
 11 12  1  0
 12 13  2  0
 12 14  1  0
 11 15  1  0
 15 16  1  0
  3  5  1  0
  5  6  2  0
  6 17  1  0
 17 18  2  0
 18 19  1  0
 19 20  2  0
 20 21  1  0
 21 23  1  0
 23 24  2  0
 23 25  1  0
 25 26  2  0
 26 27  1  0
 27 28  1  0
 28 29  2  0
 29 30  1  0
 30 31  2  0
 31 32  1  0
 21 22  2  0
  6  7  1  0
  7  1  2  0
 16  8  1  0
 22 17  1  0
 31 26  1  0
M  CHG 1   2  -1
M  CHG 1  27  -1
M  CHG 1  32  -1
M  END
> <UniqueID>
90

> <SMILES>
CC(=O)N1CCC(/N=c2\nc(-c3cccc(C(=O)/N=c4/[n-]cccc4[O-])c3)cc[n-]2)CC1

> <Energy>
76.71665228495407

> <Genealogy>
CC(=O)N1CCC(N=c2nc(-c3cccc(C(=O)N=c4[n-]cccc4[O-])c3)cc[n-]2)CC1 (protonated)
CC(=O)N1CCC(/N=c2\nc(-c3cccc(C(=O)/N=c4/[n-]cccc4[O-])c3)cc[n-]2)CC1 (cis-trans isomerization)
CC(=O)N1CCC(/N=c2\nc(-c3cccc(C(=O)/N=c4/[n-]cccc4[O-])c3)cc[n-]2)CC1 (3D coordinates assigned)
CC(=O)N1CCC(/N=c2\nc(-c3cccc(C(=O)/N=c4/[n-]cccc4[O-])c3)cc[n-]2)CC1 (nonaromatic ring conformer: 76.71665228495407 kcal/mol)

> <smiles>
CC(=O)N1CCC(N=c2nc(-c3cccc(C(=O)N=c4[nH]cccc4O)c3)cc[nH]2)CC1

> <score_type>
oracle

> <origin>
adg

> <m_score__min__energy>
-15.94

> <m_primary>
energy

> <minimizedAffinity>
-9.52125

> <minimizedRMSD>
0.93732

> <CNNscore>
0.3448428214

> <CNNaffinity>
6.9777088165

> <CNN_VS>
2.4062128067

> <CNNaffinity_variance>
0.0524546802

$$$$
93:0


 40 44  0  0  0  0  0  0  0  0999 V2000
   59.3753   29.9362   47.2527 C   0  0  0  0  0  0  0  0  0  0  0  0
   60.4089   29.5739   48.1256 C   0  0  0  0  0  0  0  0  0  0  0  0
   60.8652   30.4760   49.0893 C   0  0  0  0  0  0  0  0  0  0  0  0
   60.3096   31.7643   49.1811 C   0  0  0  0  0  0  0  0  0  0  0  0
   59.2680   32.1208   48.3070 C   0  0  0  0  0  0  0  0  0  0  0  0
   58.8046   31.2145   47.3475 C   0  0  0  0  0  0  0  0  0  0  0  0
   57.7916   31.5730   46.5206 F   0  0  0  0  0  0  0  0  0  0  0  0
   60.7737   32.7137   50.2201 C   0  0  0  0  0  0  0  0  0  0  0  0
   59.9374   33.4620   50.7948 O   0  0  0  0  0  0  0  0  0  0  0  0
   62.1554   32.7714   50.6152 N   0  0  0  0  0  0  0  0  0  0  0  0
   63.2081   32.9851   49.6150 C   0  0  0  0  0  0  0  0  0  0  0  0
   64.4192   32.1038   49.9328 C   0  0  0  0  0  0  0  0  0  0  0  0
   64.7644   32.1464   51.3659 N   0  0  0  0  0  0  0  0  0  0  0  0
   65.9627   31.5065   51.8435 C   0  0  0  0  0  0  0  0  0  0  0  0
   66.6774   32.0890   52.7044 O   0  0  0  0  0  0  0  0  0  0  0  0
   63.9865   32.9891   52.2818 C   0  0  0  0  0  0  0  0  0  0  0  0
   62.4850   32.7895   52.0468 C   0  0  0  0  0  0  0  0  0  0  0  0
   66.3055   30.0920   51.4456 C   0  0  0  0  0  0  0  0  0  0  0  0
   66.9148   29.2596   52.6002 C   0  0  0  0  0  0  0  0  0  0  0  0
   68.2746   28.6045   52.2259 C   0  0  0  0  0  0  0  0  0  0  0  0
   68.1711   27.0864   51.9810 C   0  0  0  0  0  0  0  0  0  0  0  0
   66.9313   26.7432   51.2730 N   0  0  0  0  0  0  0  0  0  0  0  0
   65.7206   27.0558   52.0600 C   0  0  0  0  0  0  0  0  0  0  0  0
   65.9128   28.1956   53.0870 C   0  0  0  0  0  0  0  0  0  0  0  0
   66.9384   25.7440   51.0680 H   0  0  0  0  0  0  0  0  0  0  0  0
   59.0251   27.0053   47.5327 C   0  0  0  0  0  0  0  0  0  0  0  0
   58.7231   27.6697   46.4075 C   0  0  0  0  0  0  0  0  0  0  0  0
   58.3045   27.1251   45.1826 C   0  0  0  0  0  0  0  0  0  0  0  0
   57.9161   25.8748   44.8587 C   0  0  0  0  0  0  0  0  0  0  0  0
   58.3224   28.1649   44.2670 C   0  0  0  0  0  0  0  0  0  0  0  0
   58.6850   29.3012   44.9603 C   0  0  0  0  0  0  0  0  0  0  0  0
   58.8245   30.6645   44.3568 C   0  0  0  0  0  0  0  0  0  0  0  0
   58.9117   29.0075   46.2598 N   0  0  0  0  0  0  0  0  0  0  0  0
   57.2682   24.9183   45.7708 C   0  0  0  0  0  0  0  0  0  0  0  0
   57.8689   23.8380   46.3002 N   0  0  0  0  0  0  0  0  0  0  0  0
   56.9411   23.3542   47.1540 C   0  0  0  0  0  0  0  0  0  0  0  0
   57.1285   22.3173   47.8422 O   0  0  0  0  0  0  0  0  0  0  0  0
   55.7984   24.0744   47.2191 N   0  0  0  0  0  0  0  0  0  0  0  0
   56.0313   25.0694   46.3475 C   0  0  0  0  0  0  0  0  0  0  0  0
   55.1329   26.0988   46.0930 O   0  0  0  0  0  0  0  0  0  0  0  0
 26 27  2  0
 27 28  1  0
 28 29  2  0
 29 34  1  0
 34 35  1  0
 35 36  1  0
 36 37  2  0
 36 38  1  0
 38 39  1  0
 39 40  1  0
 28 30  1  0
 30 31  2  0
 31 32  1  0
 31 33  1  0
 33  1  1  0
  1  2  2  0
  2  3  1  0
  3  4  2  0
  4  8  1  0
  8  9  2  0
  8 10  1  0
 10 11  1  0
 11 12  1  0
 12 13  1  0
 13 14  1  0
 14 15  2  0
 14 18  1  0
 18 19  1  0
 19 20  1  0
 20 21  1  0
 21 22  1  0
 22 23  1  0
 23 24  1  0
 13 16  1  0
 16 17  1  0
  4  5  1  0
  5  6  2  0
  6  7  1  0
 33 27  1  0
  6  1  1  0
 39 34  2  0
 17 10  1  0
 24 19  1  0
 22 25  1  0
M  CHG 1  35  -1
M  CHG 1  38  -1
M  CHG 1  40  -1
M  END
> <UniqueID>
92

> <SMILES>
C=c1c(=Cc2[n-]c(=O)[n-]c2[O-])cc(C)n1-c1ccc(C(=O)N2CCN(C(=O)CC3CCNCC3)CC2)cc1F

> <Energy>
160.54554981224794

> <Genealogy>
C=c1c(=Cc2[n-]c(=O)[n-]c2[O-])cc(C)n1-c1ccc(C(=O)N2CCN(C(=O)CC3CCNCC3)CC2)cc1F (protonated)
C=c1c(=Cc2[n-]c(=O)[n-]c2[O-])cc(C)n1-c1ccc(C(=O)N2CCN(C(=O)CC3CCNCC3)CC2)cc1F (3D coordinates assigned)
C=c1c(=Cc2[n-]c(=O)[n-]c2[O-])cc(C)n1-c1ccc(C(=O)N2CCN(C(=O)CC3CCNCC3)CC2)cc1F (nonaromatic ring conformer: 160.54554981224794 kcal/mol)

> <smiles>
C=c1c(=Cc2[nH]c(=O)[nH]c2O)cc(C)n1-c1ccc(C(=O)N2CCN(C(=O)CC3CCNCC3)CC2)cc1F

> <score_type>
oracle

> <origin>
adg

> <m_score__min__energy>
-16.739999999999998

> <m_primary>
energy

> <minimizedAffinity>
-8.49368

> <minimizedRMSD>
1.36961

> <CNNscore>
0.0785012543

> <CNNaffinity>
7.0394654274

> <CNN_VS>
0.5526068807

> <CNNaffinity_variance>
0.0687541738

$$$$
10:0


 30 33  0  0  0  0  0  0  0  0999 V2000
   58.1283   26.8131   42.9459 C   0  0  0  0  0  0  0  0  0  0  0  0
   58.1675   27.5181   44.0821 C   0  0  0  0  0  0  0  0  0  0  0  0
   58.3743   27.0319   45.3775 C   0  0  0  0  0  0  0  0  0  0  0  0
   58.5826   25.7455   45.7337 C   0  0  0  0  0  0  0  0  0  0  0  0
   58.3373   28.1481   46.2082 C   0  0  0  0  0  0  0  0  0  0  0  0
   58.1066   29.2426   45.3944 C   0  0  0  0  0  0  0  0  0  0  0  0
   58.0076   28.8569   44.1068 N   0  0  0  0  0  0  0  0  0  0  0  0
   57.8487   29.4418   43.3310 H   0  0  0  0  0  0  0  0  0  0  0  0
   57.5333   24.7731   46.1117 C   0  0  0  0  0  0  0  0  0  0  0  0
   57.7231   23.4682   46.3821 N   0  0  0  0  0  0  0  0  0  0  0  0
   56.4873   23.0265   46.7002 C   0  0  0  0  0  0  0  0  0  0  0  0
   56.2547   21.8323   47.0161 O   0  0  0  0  0  0  0  0  0  0  0  0
   55.5219   23.9697   46.6562 N   0  0  0  0  0  0  0  0  0  0  0  0
   56.2000   25.0669   46.2851 C   0  0  0  0  0  0  0  0  0  0  0  0
   55.6126   26.3130   46.1099 O   0  0  0  0  0  0  0  0  0  0  0  0
   58.0157   30.6424   45.8697 C   0  0  0  0  0  0  0  0  0  0  0  0
   57.4185   31.4873   45.1462 O   0  0  0  0  0  0  0  0  0  0  0  0
   58.5299   31.0354   47.1691 N   0  0  0  0  0  0  0  0  0  0  0  0
   59.8444   30.3948   47.4549 C   0  0  0  0  0  0  0  0  0  0  0  0
   61.0519   31.2701   47.0672 C   0  0  0  0  0  0  0  0  0  0  0  0
   60.9910   32.6893   47.6884 C   0  0  0  0  0  0  0  0  0  0  0  0
   59.5979   33.0318   48.2425 C   0  0  0  0  0  0  0  0  0  0  0  0
   58.5257   32.5190   47.2767 C   0  0  0  0  0  0  0  0  0  0  0  0
   58.6744   32.0008   47.0416 H   0  0  0  0  0  0  0  0  0  0  0  0
   62.0269   32.8817   48.7109 N   0  0  0  0  0  0  0  0  0  0  0  0
   63.3849   33.2359   48.5010 C   0  0  0  0  0  0  0  0  0  0  0  0
   63.8856   33.4212   47.3612 O   0  0  0  0  0  0  0  0  0  0  0  0
   64.1495   33.3728   49.7548 C   0  0  0  0  0  0  0  0  0  0  0  0
   63.1213   33.0222   50.8410 C   0  0  0  0  0  0  0  0  0  0  0  0
   61.7750   32.7617   50.1372 C   0  0  0  0  0  0  0  0  0  0  0  0
  1  2  2  0
  2  3  1  0
  3  4  2  0
  4  9  1  0
  9 10  1  0
 10 11  1  0
 11 12  2  0
 11 13  1  0
 13 14  1  0
 14 15  1  0
  3  5  1  0
  5  6  2  0
  6 16  1  0
 16 17  2  0
 18 16  1  0
 18 19  1  0
 19 20  1  0
 20 21  1  0
 21 25  1  0
 25 26  1  0
 26 27  2  0
 26 28  1  0
 28 29  1  0
 29 30  1  0
 21 22  1  0
 22 23  1  0
  6  7  1  0
  7  2  1  0
 14  9  2  0
 23 18  1  0
 30 25  1  0
 18 24  1  0
  7  8  1  0
M  CHG 1  10  -1
M  CHG 1  13  -1
M  CHG 1  15  -1
M  CHG 1  18   1
M  END
> <UniqueID>
11

> <SMILES>
C=c1[nH]c(C(=O)[NH+]2CCC(N3CCCC3=O)CC2)c/c1=C\c1[n-]c(=O)[n-]c1[O-]

> <Energy>
127.81479717213558

> <Genealogy>
C=c1[nH]c(C(=O)[NH+]2CCC(N3CCCC3=O)CC2)cc1=Cc1[n-]c(=O)[n-]c1[O-] (protonated)
C=c1[nH]c(C(=O)[NH+]2CCC(N3CCCC3=O)CC2)c/c1=C\c1[n-]c(=O)[n-]c1[O-] (cis-trans isomerization)
C=c1[nH]c(C(=O)[NH+]2CCC(N3CCCC3=O)CC2)c/c1=C\c1[n-]c(=O)[n-]c1[O-] (3D coordinates assigned)
C=c1[nH]c(C(=O)[NH+]2CCC(N3CCCC3=O)CC2)c/c1=C\c1[n-]c(=O)[n-]c1[O-] (nonaromatic ring conformer: 127.81479717213558 kcal/mol)

> <smiles>
C=c1[nH]c(C(=O)N2CCC(N3CCCC3=O)CC2)cc1=Cc1[nH]c(=O)[nH]c1O

> <score_type>
oracle

> <origin>
adg

> <m_score__min__energy>
-16.34

> <m_primary>
energy

> <minimizedAffinity>
-8.30923

> <minimizedRMSD>
0.68780

> <CNNscore>
0.0931213945

> <CNNaffinity>
6.3144326210

> <CNN_VS>
0.5880087614

> <CNNaffinity_variance>
0.2492070645

$$$$
12:0


 28 31  0  0  0  0  0  0  0  0999 V2000
   59.8536   26.1526   46.7949 C   0  0  0  0  0  0  0  0  0  0  0  0
   59.2132   27.3251   46.6328 C   0  0  0  0  0  0  0  0  0  0  0  0
   58.3900   27.5842   45.4769 C   0  0  0  0  0  0  0  0  0  0  0  0
   57.7898   26.6285   44.7237 C   0  0  0  0  0  0  0  0  0  0  0  0
   58.1605   28.9323   45.0949 C   0  0  0  0  0  0  0  0  0  0  0  0
   58.5570   30.0004   45.9032 C   0  0  0  0  0  0  0  0  0  0  0  0
   59.1855   29.7193   47.1128 C   0  0  0  0  0  0  0  0  0  0  0  0
   59.4920   28.4240   47.4878 C   0  0  0  0  0  0  0  0  0  0  0  0
   60.1084   28.5247   48.7421 C   0  0  0  0  0  0  0  0  0  0  0  0
   60.5765   27.4425   49.6664 C   0  0  0  0  0  0  0  0  0  0  0  0
   60.1593   29.8815   49.0255 C   0  0  0  0  0  0  0  0  0  0  0  0
   60.7173   30.4345   50.1727 O   0  0  0  0  0  0  0  0  0  0  0  0
   59.5928   30.6109   48.0434 N   0  0  0  0  0  0  0  0  0  0  0  0
   57.4698   25.2556   45.1632 C   0  0  0  0  0  0  0  0  0  0  0  0
   58.2948   24.1974   45.0538 N   0  0  0  0  0  0  0  0  0  0  0  0
   57.6174   23.2079   45.6764 C   0  0  0  0  0  0  0  0  0  0  0  0
   58.0680   22.0375   45.7755 O   0  0  0  0  0  0  0  0  0  0  0  0
   56.4260   23.5762   46.1933 N   0  0  0  0  0  0  0  0  0  0  0  0
   56.3531   24.8759   45.8680 C   0  0  0  0  0  0  0  0  0  0  0  0
   55.2894   25.7012   46.2121 O   0  0  0  0  0  0  0  0  0  0  0  0
   59.5390   32.0759   47.9826 C   0  0  0  0  0  0  0  0  0  0  0  0
   60.5305   32.6072   46.9449 C   0  0  0  0  0  0  0  0  0  0  0  0
   61.2662   33.7754   47.4817 N   0  0  0  0  0  0  0  0  0  0  0  0
   62.6223   33.8925   46.9127 C   0  0  0  0  0  0  0  0  0  0  0  0
   63.5614   32.7824   47.4424 C   0  0  0  0  0  0  0  0  0  0  0  0
   63.0569   32.1315   48.5959 O   0  0  0  0  0  0  0  0  0  0  0  0
   62.5709   33.0842   49.5171 C   0  0  0  0  0  0  0  0  0  0  0  0
   61.3129   33.7851   48.9637 C   0  0  0  0  0  0  0  0  0  0  0  0
  1  2  2  0
  2  3  1  0
  3  4  2  0
  4 14  1  0
 14 15  1  0
 15 16  1  0
 16 17  2  0
 16 18  1  0
 18 19  1  0
 19 20  1  0
  3  5  1  0
  5  6  2  0
  6  7  1  0
  7  8  2  0
  8  9  1  0
  9 10  1  0
  9 11  2  0
 11 12  1  0
 11 13  1  0
 13 21  1  0
 21 22  1  0
 22 23  1  0
 23 24  1  0
 24 25  1  0
 25 26  1  0
 26 27  1  0
 27 28  1  0
  8  2  1  0
 28 23  1  0
 19 14  2  0
 13  7  1  0
M  CHG 1  12  -1
M  CHG 1  15  -1
M  CHG 1  18  -1
M  CHG 1  20  -1
M  END
> <UniqueID>
13

> <SMILES>
C=c1/c(=C\c2[n-]c(=O)[n-]c2[O-])ccc2c1c(C)c([O-])n2CCN1CCOCC1

> <Energy>
148.15574522390347

> <Genealogy>
C=c1c(=Cc2[n-]c(=O)[n-]c2[O-])ccc2c1c(C)c([O-])n2CCN1CCOCC1 (protonated)
C=c1/c(=C\c2[n-]c(=O)[n-]c2[O-])ccc2c1c(C)c([O-])n2CCN1CCOCC1 (cis-trans isomerization)
C=c1/c(=C\c2[n-]c(=O)[n-]c2[O-])ccc2c1c(C)c([O-])n2CCN1CCOCC1 (3D coordinates assigned)
C=c1/c(=C\c2[n-]c(=O)[n-]c2[O-])ccc2c1c(C)c([O-])n2CCN1CCOCC1 (nonaromatic ring conformer: 148.15574522390347 kcal/mol)

> <smiles>
C=c1c(=Cc2[nH]c(=O)[nH]c2O)ccc2c1c(C)c(O)n2CCN1CCOCC1

> <score_type>
oracle

> <origin>
adg

> <m_score__min__energy>
-16.850000000000001

> <m_primary>
energy

> <minimizedAffinity>
-7.89330

> <minimizedRMSD>
1.37578

> <CNNscore>
0.1261982024

> <CNNaffinity>
5.9888920784

> <CNN_VS>
0.7557874322

> <CNNaffinity_variance>
0.0503961705

$$$$
20:0


 31 34  0  0  0  0  0  0  0  0999 V2000
   60.1868   32.0346   48.6356 C   0  0  0  0  0  0  0  0  0  0  0  0
   59.4193   32.1093   49.6322 O   0  0  0  0  0  0  0  0  0  0  0  0
   61.4683   32.6901   48.6674 N   0  0  0  0  0  0  0  0  0  0  0  0
   61.6211   33.9826   49.3507 C   0  0  0  0  0  0  0  0  0  0  0  0
   62.8003   33.9224   50.3283 C   0  0  0  0  0  0  0  0  0  0  0  0
   63.9806   33.2907   49.7137 N   0  0  0  0  0  0  0  0  0  0  0  0
   65.1126   32.9541   50.5358 C   0  0  0  0  0  0  0  0  0  0  0  0
   65.6005   31.7927   50.4702 O   0  0  0  0  0  0  0  0  0  0  0  0
   63.9226   32.8290   48.3212 C   0  0  0  0  0  0  0  0  0  0  0  0
   62.6446   32.0135   48.0969 C   0  0  0  0  0  0  0  0  0  0  0  0
   58.1791   30.7098   44.4424 C   0  0  0  0  0  0  0  0  0  0  0  0
   58.8192   30.6000   45.6167 C   0  0  0  0  0  0  0  0  0  0  0  0
   59.6097   29.5266   46.0577 C   0  0  0  0  0  0  0  0  0  0  0  0
   59.7956   28.2937   45.5436 C   0  0  0  0  0  0  0  0  0  0  0  0
   60.2271   29.9509   47.2212 C   0  0  0  0  0  0  0  0  0  0  0  0
   59.7700   31.2275   47.4744 C   0  0  0  0  0  0  0  0  0  0  0  0
   58.8916   31.6141   46.5191 N   0  0  0  0  0  0  0  0  0  0  0  0
   58.1507   32.8797   46.4715 C   0  0  0  0  0  0  0  0  0  0  0  0
   58.8693   27.1592   45.6744 C   0  0  0  0  0  0  0  0  0  0  0  0
   59.2472   25.9324   46.0758 N   0  0  0  0  0  0  0  0  0  0  0  0
   58.0786   25.2627   46.1754 C   0  0  0  0  0  0  0  0  0  0  0  0
   58.0173   24.0542   46.5171 O   0  0  0  0  0  0  0  0  0  0  0  0
   56.9788   25.9950   45.8928 N   0  0  0  0  0  0  0  0  0  0  0  0
   57.4955   27.1975   45.5935 C   0  0  0  0  0  0  0  0  0  0  0  0
   56.7255   28.3104   45.2791 O   0  0  0  0  0  0  0  0  0  0  0  0
   65.7112   33.9398   51.4607 C   0  0  0  0  0  0  0  0  0  0  0  0
   67.0930   34.1994   51.4217 C   0  0  0  0  0  0  0  0  0  0  0  0
   67.6597   35.1426   52.2851 C   0  0  0  0  0  0  0  0  0  0  0  0
   66.8530   35.8404   53.1866 C   0  0  0  0  0  0  0  0  0  0  0  0
   65.4772   35.6030   53.2212 C   0  0  0  0  0  0  0  0  0  0  0  0
   64.9062   34.6612   52.3595 C   0  0  0  0  0  0  0  0  0  0  0  0
 11 12  2  0
 12 13  1  0
 13 14  2  0
 14 19  1  0
 19 20  1  0
 20 21  1  0
 21 22  2  0
 21 23  1  0
 23 24  1  0
 24 25  1  0
 13 15  1  0
 15 16  2  0
 16  1  1  0
  1  2  2  0
  1  3  1  0
  3  4  1  0
  4  5  1  0
  5  6  1  0
  6  7  1  0
  7  8  2  0
  7 26  1  0
 26 27  2  0
 27 28  1  0
 28 29  2  0
 29 30  1  0
 30 31  2  0
  6  9  1  0
  9 10  1  0
 16 17  1  0
 17 18  1  0
 17 12  1  0
 24 19  2  0
 10  3  1  0
 31 26  1  0
M  CHG 1  20  -1
M  CHG 1  23  -1
M  CHG 1  25  -1
M  END
> <UniqueID>
21

> <SMILES>
C=c1c(=Cc2[n-]c(=O)[n-]c2[O-])cc(C(=O)N2CCN(C(=O)c3ccccc3)CC2)n1C

> <Energy>
136.7238545182671

> <Genealogy>
C=c1c(=Cc2[n-]c(=O)[n-]c2[O-])cc(C(=O)N2CCN(C(=O)c3ccccc3)CC2)n1C (protonated)
C=c1c(=Cc2[n-]c(=O)[n-]c2[O-])cc(C(=O)N2CCN(C(=O)c3ccccc3)CC2)n1C (3D coordinates assigned)
C=c1c(=Cc2[n-]c(=O)[n-]c2[O-])cc(C(=O)N2CCN(C(=O)c3ccccc3)CC2)n1C (nonaromatic ring conformer: 136.7238545182671 kcal/mol)

> <smiles>
C=c1c(=Cc2[nH]c(=O)[nH]c2O)cc(C(=O)N2CCN(C(=O)c3ccccc3)CC2)n1C

> <score_type>
oracle

> <origin>
adg

> <m_score__min__energy>
-17.66

> <m_primary>
energy

> <minimizedAffinity>
-8.60853

> <minimizedRMSD>
1.19199

> <CNNscore>
0.2813153565

> <CNNaffinity>
6.4912853241

> <CNN_VS>
1.8260982037

> <CNNaffinity_variance>
0.1524863988

$$$$
22:0


 35 38  0  0  0  0  0  0  0  0999 V2000
   59.7827   29.0348   47.1398 C   0  0  0  0  0  0  0  0  0  0  0  0
   60.6660   30.0173   46.6692 C   0  0  0  0  0  0  0  0  0  0  0  0
   61.4926   30.7050   47.5617 C   0  0  0  0  0  0  0  0  0  0  0  0
   61.4443   30.4205   48.9369 C   0  0  0  0  0  0  0  0  0  0  0  0
   60.5714   29.4246   49.4011 C   0  0  0  0  0  0  0  0  0  0  0  0
   59.7458   28.7370   48.5086 C   0  0  0  0  0  0  0  0  0  0  0  0
   59.6504   26.1010   46.6968 C   0  0  0  0  0  0  0  0  0  0  0  0
   58.8640   26.9723   46.0489 C   0  0  0  0  0  0  0  0  0  0  0  0
   57.9398   26.6877   45.0306 C   0  0  0  0  0  0  0  0  0  0  0  0
   57.4633   25.5154   44.5681 C   0  0  0  0  0  0  0  0  0  0  0  0
   57.5219   27.9116   44.5358 C   0  0  0  0  0  0  0  0  0  0  0  0
   58.1432   28.8851   45.2899 C   0  0  0  0  0  0  0  0  0  0  0  0
   57.9359   30.3587   45.1225 C   0  0  0  0  0  0  0  0  0  0  0  0
   58.9453   28.3170   46.2175 N   0  0  0  0  0  0  0  0  0  0  0  0
   56.8415   24.4599   45.3845 C   0  0  0  0  0  0  0  0  0  0  0  0
   57.4694   23.3465   45.8052 N   0  0  0  0  0  0  0  0  0  0  0  0
   56.5682   22.7715   46.6276 C   0  0  0  0  0  0  0  0  0  0  0  0
   56.7883   21.6828   47.2175 O   0  0  0  0  0  0  0  0  0  0  0  0
   55.4193   23.4639   46.7816 N   0  0  0  0  0  0  0  0  0  0  0  0
   55.6150   24.5363   45.9978 C   0  0  0  0  0  0  0  0  0  0  0  0
   54.6969   25.5706   45.8494 O   0  0  0  0  0  0  0  0  0  0  0  0
   53.8801   25.5414   46.3076 H   0  0  0  0  0  0  0  0  0  0  0  0
   62.3568   31.1418   49.8949 C   0  0  0  0  0  0  0  0  0  0  0  0
   63.4744   31.8885   49.1564 C   0  0  0  0  0  0  0  0  0  0  0  0
   63.0466   33.2246   48.7547 N   0  0  0  0  0  0  0  0  0  0  0  0
   62.3280   34.1215   49.6075 C   0  0  0  0  0  0  0  0  0  0  0  0
   62.9124   35.1005   50.1455 O   0  0  0  0  0  0  0  0  0  0  0  0
   60.8833   33.8688   49.8965 C   0  0  0  0  0  0  0  0  0  0  0  0
   60.1007   33.8280   48.6155 C   0  0  0  0  0  0  0  0  0  0  0  0
   58.9297   33.0564   48.5232 C   0  0  0  0  0  0  0  0  0  0  0  0
   58.1857   33.0424   47.3392 C   0  0  0  0  0  0  0  0  0  0  0  0
   58.5982   33.8052   46.2418 C   0  0  0  0  0  0  0  0  0  0  0  0
   57.6639   33.7865   44.7568 Cl  0  0  0  0  0  0  0  0  0  0  0  0
   59.7559   34.5871   46.3308 C   0  0  0  0  0  0  0  0  0  0  0  0
   60.5016   34.6034   47.5140 C   0  0  0  0  0  0  0  0  0  0  0  0
  7  8  2  0
  8  9  1  0
  9 10  2  0
 10 15  1  0
 15 16  1  0
 16 17  1  0
 17 18  2  0
 17 19  1  0
 19 20  1  0
 20 21  1  0
  9 11  1  0
 11 12  2  0
 12 13  1  0
 12 14  1  0
 14  1  1  0
  1  2  2  0
  2  3  1  0
  3  4  2  0
  4 23  1  0
 23 24  1  0
 24 25  1  0
 25 26  1  0
 26 27  2  0
 26 28  1  0
 28 29  1  0
 29 30  2  0
 30 31  1  0
 31 32  2  0
 32 33  1  0
 32 34  1  0
 34 35  2  0
  4  5  1  0
  5  6  2  0
 14  8  1  0
  6  1  1  0
 20 15  2  0
 35 29  1  0
 21 22  1  0
M  CHG 1  16  -1
M  CHG 1  19  -1
M  CHG 1  25  -1
M  END
> <UniqueID>
23

> <SMILES>
C=c1c(=Cc2[n-]c(=O)[n-]c2O)cc(C)n1-c1ccc(CC[N-]C(=O)Cc2ccc(Cl)cc2)cc1

> <Energy>
127.48805072065925

> <Genealogy>
C=c1c(=Cc2[n-]c(=O)[n-]c2O)cc(C)n1-c1ccc(CC[N-]C(=O)Cc2ccc(Cl)cc2)cc1 (protonated)
C=c1c(=Cc2[n-]c(=O)[n-]c2O)cc(C)n1-c1ccc(CC[N-]C(=O)Cc2ccc(Cl)cc2)cc1 (3D coordinates assigned)
C=c1c(=Cc2[n-]c(=O)[n-]c2O)cc(C)n1-c1ccc(CC[N-]C(=O)Cc2ccc(Cl)cc2)cc1 (optimized conformer: 127.48805072065925 kcal/mol)

> <smiles>
C=c1c(=Cc2[nH]c(=O)[nH]c2O)cc(C)n1-c1ccc(CCNC(=O)Cc2ccc(Cl)cc2)cc1

> <score_type>
oracle

> <origin>
adg

> <m_score__min__energy>
-14.33

> <m_primary>
energy

> <minimizedAffinity>
-8.59937

> <minimizedRMSD>
0.55760

> <CNNscore>
0.6717479825

> <CNNaffinity>
7.8022308350

> <CNN_VS>
5.2411327362

> <CNNaffinity_variance>
0.0558057129

$$$$
26:0


 33 36  0  0  0  0  0  0  0  0999 V2000
   60.6758   27.7611   49.7836 C   0  0  0  0  0  0  0  0  0  0  0  0
   60.1321   28.5554   48.8445 C   0  0  0  0  0  0  0  0  0  0  0  0
   59.7386   28.1557   47.5600 C   0  0  0  0  0  0  0  0  0  0  0  0
   59.5484   26.9289   47.0374 C   0  0  0  0  0  0  0  0  0  0  0  0
   59.4977   29.3150   46.8504 C   0  0  0  0  0  0  0  0  0  0  0  0
   59.6394   30.3656   47.7325 C   0  0  0  0  0  0  0  0  0  0  0  0
   60.0250   29.9103   48.9556 N   0  0  0  0  0  0  0  0  0  0  0  0
   58.2617   26.2151   46.9805 C   0  0  0  0  0  0  0  0  0  0  0  0
   58.0718   24.9871   47.4917 N   0  0  0  0  0  0  0  0  0  0  0  0
   56.8296   24.6610   47.0714 C   0  0  0  0  0  0  0  0  0  0  0  0
   56.2787   23.5695   47.3732 O   0  0  0  0  0  0  0  0  0  0  0  0
   56.2267   25.5903   46.3036 N   0  0  0  0  0  0  0  0  0  0  0  0
   57.1512   26.5629   46.2414 C   0  0  0  0  0  0  0  0  0  0  0  0
   57.0008   27.7259   45.4923 O   0  0  0  0  0  0  0  0  0  0  0  0
   56.2066   27.8791   45.0193 H   0  0  0  0  0  0  0  0  0  0  0  0
   59.3760   31.7705   47.3582 C   0  0  0  0  0  0  0  0  0  0  0  0
   60.2229   32.6662   47.6086 O   0  0  0  0  0  0  0  0  0  0  0  0
   58.1430   32.1009   46.6994 N   0  0  0  0  0  0  0  0  0  0  0  0
   57.8783   31.9008   45.4417 C   0  0  0  0  0  0  0  0  0  0  0  0
   57.3281   30.7662   44.9485 N   0  0  0  0  0  0  0  0  0  0  0  0
   57.1902   30.8254   43.5975 C   0  0  0  0  0  0  0  0  0  0  0  0
   57.6328   32.0131   43.0211 C   0  0  0  0  0  0  0  0  0  0  0  0
   57.6430   32.3306   41.5632 C   0  0  0  0  0  0  0  0  0  0  0  0
   58.2351   33.0153   44.2324 S   0  0  0  0  0  0  0  0  0  0  0  0
   60.3022   30.7384   50.1451 C   0  0  0  0  0  0  0  0  0  0  0  0
   61.7771   31.0513   50.2603 C   0  0  0  0  0  0  0  0  0  0  0  0
   62.5603   30.4555   51.2634 C   0  0  0  0  0  0  0  0  0  0  0  0
   63.9267   30.7286   51.3553 C   0  0  0  0  0  0  0  0  0  0  0  0
   64.5374   31.6065   50.4424 C   0  0  0  0  0  0  0  0  0  0  0  0
   63.7598   32.1929   49.4373 C   0  0  0  0  0  0  0  0  0  0  0  0
   62.3960   31.9117   49.3368 C   0  0  0  0  0  0  0  0  0  0  0  0
   65.9037   31.9247   50.4996 O   0  0  0  0  0  0  0  0  0  0  0  0
   66.8775   31.1622   51.2030 C   0  0  0  0  0  0  0  0  0  0  0  0
  1  2  2  0
  2  3  1  0
  3  4  2  0
  4  8  1  0
  8  9  1  0
  9 10  1  0
 10 11  2  0
 10 12  1  0
 12 13  1  0
 13 14  1  0
  3  5  1  0
  5  6  2  0
  6 16  1  0
 16 17  2  0
 16 18  1  0
 18 19  2  0
 19 20  1  0
 20 21  1  0
 21 22  2  0
 22 23  1  0
 22 24  1  0
  6  7  1  0
  7 25  1  0
 25 26  1  0
 26 27  2  0
 27 28  1  0
 28 29  2  0
 29 32  1  0
 32 33  1  0
 29 30  1  0
 30 31  2  0
  7  2  1  0
 31 26  1  0
 13  8  2  0
 24 19  1  0
 14 15  1  0
M  CHG 1   9  -1
M  CHG 1  12  -1
M  CHG 1  20  -1
M  END
> <UniqueID>
27

> <SMILES>
C=c1c(=Cc2[n-]c(=O)[n-]c2O)cc(C(=O)N=c2[n-]cc(C)s2)n1Cc1ccc(OC)cc1

> <Energy>
157.74430480226673

> <Genealogy>
C=c1c(=Cc2[n-]c(=O)[n-]c2O)cc(C(=O)N=c2[n-]cc(C)s2)n1Cc1ccc(OC)cc1 (protonated)
C=c1c(=Cc2[n-]c(=O)[n-]c2O)cc(C(=O)N=c2[n-]cc(C)s2)n1Cc1ccc(OC)cc1 (3D coordinates assigned)
C=c1c(=Cc2[n-]c(=O)[n-]c2O)cc(C(=O)N=c2[n-]cc(C)s2)n1Cc1ccc(OC)cc1 (optimized conformer: 157.74430480226673 kcal/mol)

> <smiles>
C=c1c(=Cc2[nH]c(=O)[nH]c2O)cc(C(=O)N=c2[nH]cc(C)s2)n1Cc1ccc(OC)cc1

> <score_type>
oracle

> <origin>
adg

> <m_score__min__energy>
-14.35

> <m_primary>
energy

> <minimizedAffinity>
-8.20854

> <minimizedRMSD>
1.11653

> <CNNscore>
0.4745934308

> <CNNaffinity>
7.1077561378

> <CNN_VS>
3.3732943535

> <CNNaffinity_variance>
0.3298482001

$$$$
30:0


 33 35  0  0  0  0  0  0  0  0999 V2000
   61.9779   29.6893   50.7352 O   0  0  0  0  0  0  0  0  0  0  0  0
   60.8627   29.5224   50.1714 C   0  0  0  0  0  0  0  0  0  0  0  0
   60.4965   28.1780   49.6113 C   0  0  0  0  0  0  0  0  0  0  0  0
   60.2278   28.2125   48.1007 C   0  0  0  0  0  0  0  0  0  0  0  0
   59.7339   26.8601   47.5663 C   0  0  0  0  0  0  0  0  0  0  0  0
   58.2922   26.9023   47.3440 N   0  0  0  0  0  0  0  0  0  0  0  0
   57.5777   25.9047   46.6084 C   0  0  0  0  0  0  0  0  0  0  0  0
   56.3286   26.0079   46.4935 O   0  0  0  0  0  0  0  0  0  0  0  0
   58.2751   24.7778   46.0573 N   0  0  0  0  0  0  0  0  0  0  0  0
   57.7122   23.6717   45.3352 C   0  0  0  0  0  0  0  0  0  0  0  0
   57.6338   22.3785   45.8889 C   0  0  0  0  0  0  0  0  0  0  0  0
   57.0775   21.3290   45.1535 C   0  0  0  0  0  0  0  0  0  0  0  0
   56.5774   21.5599   43.8699 C   0  0  0  0  0  0  0  0  0  0  0  0
   56.6195   22.8442   43.3241 C   0  0  0  0  0  0  0  0  0  0  0  0
   57.1806   23.9029   44.0543 C   0  0  0  0  0  0  0  0  0  0  0  0
   57.2165   25.1877   43.5118 O   0  0  0  0  0  0  0  0  0  0  0  0
   56.8633   25.3460   42.6585 H   0  0  0  0  0  0  0  0  0  0  0  0
   59.9211   30.5987   50.0723 N   0  0  0  0  0  0  0  0  0  0  0  0
   60.0330   31.7754   49.2578 C   0  0  0  0  0  0  0  0  0  0  0  0
   60.7589   32.9105   49.6703 C   0  0  0  0  0  0  0  0  0  0  0  0
   60.8140   34.0442   48.8568 C   0  0  0  0  0  0  0  0  0  0  0  0
   60.1268   34.0705   47.6429 C   0  0  0  0  0  0  0  0  0  0  0  0
   59.3682   32.9644   47.2369 C   0  0  0  0  0  0  0  0  0  0  0  0
   59.3311   31.8189   48.0459 C   0  0  0  0  0  0  0  0  0  0  0  0
   58.4366   33.0288   45.7367 S   0  0  0  0  0  0  0  0  0  0  0  0
   58.8430   34.2464   44.9515 O   0  0  0  0  0  0  0  0  0  0  0  0
   56.9755   33.1554   46.0687 O   0  0  0  0  0  0  0  0  0  0  0  0
   58.6819   31.5953   44.7656 N   0  0  0  0  0  0  0  0  0  0  0  0
   58.7904   30.4007   45.6251 C   0  0  0  0  0  0  0  0  0  0  0  0
   58.4654   29.1249   44.8289 C   0  0  0  0  0  0  0  0  0  0  0  0
   57.1532   29.1035   44.2798 O   0  0  0  0  0  0  0  0  0  0  0  0
   56.5951   30.3952   44.0805 C   0  0  0  0  0  0  0  0  0  0  0  0
   57.6460   31.4624   43.7179 C   0  0  0  0  0  0  0  0  0  0  0  0
  1  2  2  0
  2  3  1  0
  3  4  1  0
  4  5  1  0
  5  6  1  0
  6  7  1  0
  7  8  2  0
  7  9  1  0
  9 10  1  0
 10 11  2  0
 11 12  1  0
 12 13  2  0
 13 14  1  0
 14 15  2  0
 15 16  1  0
  2 18  1  0
 18 19  1  0
 19 20  2  0
 20 21  1  0
 21 22  2  0
 22 23  1  0
 23 25  1  0
 25 26  2  0
 25 27  2  0
 25 28  1  0
 28 29  1  0
 29 30  1  0
 30 31  1  0
 31 32  1  0
 32 33  1  0
 23 24  2  0
 15 10  1  0
 24 19  1  0
 33 28  1  0
 16 17  1  0
M  CHG 1   6  -1
M  CHG 1   9  -1
M  CHG 1  18  -1
M  END
> <UniqueID>
31

> <SMILES>
O=C(CCC[N-]C(=O)[N-]c1ccccc1O)[N-]c1cccc(S(=O)(=O)N2CCOCC2)c1

> <Energy>
68.10499299332915

> <Genealogy>
O=C(CCC[N-]C(=O)[N-]c1ccccc1O)[N-]c1cccc(S(=O)(=O)N2CCOCC2)c1 (protonated)
O=C(CCC[N-]C(=O)[N-]c1ccccc1O)[N-]c1cccc(S(=O)(=O)N2CCOCC2)c1 (3D coordinates assigned)
O=C(CCC[N-]C(=O)[N-]c1ccccc1O)[N-]c1cccc(S(=O)(=O)N2CCOCC2)c1 (nonaromatic ring conformer: 68.10499299332915 kcal/mol)

> <smiles>
O=C(CCCNC(=O)Nc1ccccc1O)Nc1cccc(S(=O)(=O)N2CCOCC2)c1

> <score_type>
oracle

> <origin>
adg

> <m_score__min__energy>
-14.75

> <m_primary>
energy

> <minimizedAffinity>
-7.43096

> <minimizedRMSD>
1.67612

> <CNNscore>
0.2734359205

> <CNNaffinity>
6.5092129707

> <CNN_VS>
1.7798526287

> <CNNaffinity_variance>
0.0329954587

$$$$
40:0


 29 31  0  0  0  0  0  0  0  0999 V2000
   55.7592   29.9738   55.2602 C   0  0  0  0  0  0  0  0  0  0  0  0
   55.9827   30.1751   53.9527 C   0  0  0  0  0  0  0  0  0  0  0  0
   55.0381   30.3636   52.9312 C   0  0  0  0  0  0  0  0  0  0  0  0
   53.7083   30.5575   52.9993 C   0  0  0  0  0  0  0  0  0  0  0  0
   55.6721   30.3338   51.7383 N   0  0  0  0  0  0  0  0  0  0  0  0
   56.9709   30.1748   52.0504 C   0  0  0  0  0  0  0  0  0  0  0  0
   57.8761   30.1027   51.1758 O   0  0  0  0  0  0  0  0  0  0  0  0
   57.2051   30.0902   53.3758 N   0  0  0  0  0  0  0  0  0  0  0  0
   52.7761   30.5554   51.8638 C   0  0  0  0  0  0  0  0  0  0  0  0
   52.8913   29.7300   50.8086 N   0  0  0  0  0  0  0  0  0  0  0  0
   51.9227   30.1593   49.9691 C   0  0  0  0  0  0  0  0  0  0  0  0
   51.7009   29.6158   48.8567 O   0  0  0  0  0  0  0  0  0  0  0  0
   51.2189   31.2235   50.4121 N   0  0  0  0  0  0  0  0  0  0  0  0
   51.7821   31.4715   51.6050 C   0  0  0  0  0  0  0  0  0  0  0  0
   51.4124   32.5290   52.4270 O   0  0  0  0  0  0  0  0  0  0  0  0
   58.4998   29.8073   54.0116 C   0  0  0  0  0  0  0  0  0  0  0  0
   59.3874   31.0236   53.9527 C   0  0  0  0  0  0  0  0  0  0  0  0
   59.7015   31.5698   55.0008 O   0  0  0  0  0  0  0  0  0  0  0  0
   59.9009   31.5065   52.6794 N   0  0  0  0  0  0  0  0  0  0  0  0
   60.5191   31.0698   52.0499 H   0  0  0  0  0  0  0  0  0  0  0  0
   59.8634   32.9865   52.5132 C   0  0  0  0  0  0  0  0  0  0  0  0
   58.4656   33.6282   52.5100 C   0  0  0  0  0  0  0  0  0  0  0  0
   61.1913   30.8726   52.3028 C   0  0  0  0  0  0  0  0  0  0  0  0
   61.6752   31.1894   50.9051 C   0  0  0  0  0  0  0  0  0  0  0  0
   62.9043   31.8412   50.7074 C   0  0  0  0  0  0  0  0  0  0  0  0
   63.3572   32.1174   49.4141 C   0  0  0  0  0  0  0  0  0  0  0  0
   62.5980   31.7284   48.3084 C   0  0  0  0  0  0  0  0  0  0  0  0
   61.3874   31.0565   48.4933 C   0  0  0  0  0  0  0  0  0  0  0  0
   60.9297   30.7791   49.7843 C   0  0  0  0  0  0  0  0  0  0  0  0
  1  2  2  0
  2  3  1  0
  3  4  2  0
  4  9  1  0
  9 10  1  0
 10 11  1  0
 11 12  2  0
 11 13  1  0
 13 14  1  0
 14 15  1  0
  3  5  1  0
  5  6  1  0
  6  7  2  0
  6  8  1  0
  8 16  1  0
 16 17  1  0
 17 18  2  0
 17 19  1  0
 19 23  1  0
 23 24  1  0
 24 25  2  0
 25 26  1  0
 26 27  2  0
 27 28  1  0
 28 29  2  0
 19 21  1  0
 21 22  1  0
  8  2  1  0
 29 24  1  0
 14  9  2  0
 19 20  1  0
M  CHG 1   5  -1
M  CHG 1  10  -1
M  CHG 1  13  -1
M  CHG 1  15  -1
M  CHG 1  19   1
M  END
> <UniqueID>
41

> <SMILES>
C=c1/c(=C\c2[n-]c(=O)[n-]c2[O-])[n-]c(=O)n1CC(=O)[N@@H+](CC)Cc1ccccc1

> <Energy>
129.08469085569982

> <Genealogy>
C=c1c(=Cc2[n-]c(=O)[n-]c2[O-])[n-]c(=O)n1CC(=O)[NH+](CC)Cc1ccccc1 (protonated)
C=c1c(=Cc2[n-]c(=O)[n-]c2[O-])[n-]c(=O)n1CC(=O)[N@@H+](CC)Cc1ccccc1 (chirality)
C=c1/c(=C\c2[n-]c(=O)[n-]c2[O-])[n-]c(=O)n1CC(=O)[N@@H+](CC)Cc1ccccc1 (cis-trans isomerization)
C=c1/c(=C\c2[n-]c(=O)[n-]c2[O-])[n-]c(=O)n1CC(=O)[N@@H+](CC)Cc1ccccc1 (3D coordinates assigned)
C=c1/c(=C\c2[n-]c(=O)[n-]c2[O-])[n-]c(=O)n1CC(=O)[N@@H+](CC)Cc1ccccc1 (optimized conformer: 129.08469085569982 kcal/mol)

> <smiles>
C=c1c(=Cc2[nH]c(=O)[nH]c2O)[nH]c(=O)n1CC(=O)N(CC)Cc1ccccc1

> <score_type>
oracle

> <origin>
adg

> <m_score__min__energy>
-15.789999999999999

> <m_primary>
energy

> <minimizedAffinity>
-5.16584

> <minimizedRMSD>
0.94123

> <CNNscore>
0.1893876493

> <CNNaffinity>
4.8100872040

> <CNN_VS>
0.9109711051

> <CNNaffinity_variance>
0.2045741826

$$$$
46:0


 38 42  0  0  0  0  0  0  0  0999 V2000
   59.2627   30.2536   53.2257 C   0  0  0  0  0  0  0  0  0  0  0  0
   59.9869   30.1926   54.4237 C   0  0  0  0  0  0  0  0  0  0  0  0
   61.3751   30.0450   54.4044 C   0  0  0  0  0  0  0  0  0  0  0  0
   62.0526   29.9583   53.1877 C   0  0  0  0  0  0  0  0  0  0  0  0
   61.3459   30.0286   51.9868 C   0  0  0  0  0  0  0  0  0  0  0  0
   59.9500   30.1773   51.9914 C   0  0  0  0  0  0  0  0  0  0  0  0
   57.2206   28.1610   53.7158 C   0  0  0  0  0  0  0  0  0  0  0  0
   56.9023   29.4425   53.4807 C   0  0  0  0  0  0  0  0  0  0  0  0
   55.6175   29.9864   53.2945 C   0  0  0  0  0  0  0  0  0  0  0  0
   54.3930   29.4383   53.4138 C   0  0  0  0  0  0  0  0  0  0  0  0
   55.8088   31.3077   52.9248 C   0  0  0  0  0  0  0  0  0  0  0  0
   57.1665   31.5393   52.9406 C   0  0  0  0  0  0  0  0  0  0  0  0
   57.8215   32.8339   52.5673 C   0  0  0  0  0  0  0  0  0  0  0  0
   57.8319   30.4106   53.2729 N   0  0  0  0  0  0  0  0  0  0  0  0
   53.1210   30.0754   53.0451 C   0  0  0  0  0  0  0  0  0  0  0  0
   52.2703   30.6534   53.9145 N   0  0  0  0  0  0  0  0  0  0  0  0
   51.3327   31.2017   53.1138 C   0  0  0  0  0  0  0  0  0  0  0  0
   50.3408   31.8306   53.5638 O   0  0  0  0  0  0  0  0  0  0  0  0
   51.5482   31.0363   51.7913 N   0  0  0  0  0  0  0  0  0  0  0  0
   52.6925   30.3336   51.7660 C   0  0  0  0  0  0  0  0  0  0  0  0
   53.3398   29.9396   50.6003 O   0  0  0  0  0  0  0  0  0  0  0  0
   52.9759   30.1593   49.7652 H   0  0  0  0  0  0  0  0  0  0  0  0
   59.2267   30.3126   50.7060 C   0  0  0  0  0  0  0  0  0  0  0  0
   58.4320   29.3932   50.3637 O   0  0  0  0  0  0  0  0  0  0  0  0
   59.3991   31.4627   49.8489 N   0  0  0  0  0  0  0  0  0  0  0  0
   58.4894   31.6317   48.7083 C   0  0  0  0  0  0  0  0  0  0  0  0
   58.3855   33.1094   48.2946 C   0  0  0  0  0  0  0  0  0  0  0  0
   59.7054   33.7645   48.1526 N   0  0  0  0  0  0  0  0  0  0  0  0
   60.5018   33.6212   49.3891 C   0  0  0  0  0  0  0  0  0  0  0  0
   60.6965   32.1516   49.7830 C   0  0  0  0  0  0  0  0  0  0  0  0
   60.4498   33.3370   46.9456 C   0  0  0  0  0  0  0  0  0  0  0  0
   59.5435   32.6074   45.9892 C   0  0  0  0  0  0  0  0  0  0  0  0
   58.7302   33.3255   45.0981 C   0  0  0  0  0  0  0  0  0  0  0  0
   57.8775   32.6525   44.2202 C   0  0  0  0  0  0  0  0  0  0  0  0
   57.8336   31.2554   44.2173 C   0  0  0  0  0  0  0  0  0  0  0  0
   56.7734   30.4089   43.1083 Cl  0  0  0  0  0  0  0  0  0  0  0  0
   58.6438   30.5319   45.0971 C   0  0  0  0  0  0  0  0  0  0  0  0
   59.4948   31.2051   45.9801 C   0  0  0  0  0  0  0  0  0  0  0  0
  7  8  2  0
  8  9  1  0
  9 10  2  0
 10 15  1  0
 15 16  1  0
 16 17  1  0
 17 18  2  0
 17 19  1  0
 19 20  1  0
 20 21  1  0
  9 11  1  0
 11 12  2  0
 12 13  1  0
 12 14  1  0
 14  1  1  0
  1  2  2  0
  2  3  1  0
  3  4  2  0
  4  5  1  0
  5  6  2  0
  6 23  1  0
 23 24  2  0
 23 25  1  0
 25 26  1  0
 26 27  1  0
 27 28  1  0
 28 31  1  0
 31 32  1  0
 32 33  2  0
 33 34  1  0
 34 35  2  0
 35 36  1  0
 35 37  1  0
 37 38  2  0
 28 29  1  0
 29 30  1  0
 14  8  1  0
  6  1  1  0
 30 25  1  0
 20 15  2  0
 38 32  1  0
 21 22  1  0
M  CHG 1  16  -1
M  CHG 1  19  -1
M  END
> <UniqueID>
45

> <SMILES>
C=c1c(=Cc2[n-]c(=O)[n-]c2O)cc(C)n1-c1ccccc1C(=O)N1CCN(Cc2ccc(Cl)cc2)CC1

> <Energy>
150.6934759844308

> <Genealogy>
C=c1c(=Cc2[n-]c(=O)[n-]c2O)cc(C)n1-c1ccccc1C(=O)N1CCN(Cc2ccc(Cl)cc2)CC1 (protonated)
C=c1c(=Cc2[n-]c(=O)[n-]c2O)cc(C)n1-c1ccccc1C(=O)N1CCN(Cc2ccc(Cl)cc2)CC1 (3D coordinates assigned)
C=c1c(=Cc2[n-]c(=O)[n-]c2O)cc(C)n1-c1ccccc1C(=O)N1CCN(Cc2ccc(Cl)cc2)CC1 (nonaromatic ring conformer: 150.6934759844308 kcal/mol)

> <smiles>
C=c1c(=Cc2[nH]c(=O)[nH]c2O)cc(C)n1-c1ccccc1C(=O)N1CCN(Cc2ccc(Cl)cc2)CC1

> <score_type>
oracle

> <origin>
adg

> <m_score__min__energy>
-15.390000000000001

> <m_primary>
energy

> <minimizedAffinity>
-7.66490

> <minimizedRMSD>
1.10397

> <CNNscore>
0.0668953955

> <CNNaffinity>
5.5962653160

> <CNN_VS>
0.3743643761

> <CNNaffinity_variance>
1.2975869179

$$$$
53:0


 29 32  0  0  0  0  0  0  0  0999 V2000
   57.9792   27.7642   45.7245 C   0  0  0  0  0  0  0  0  0  0  0  0
   58.6639   28.6152   46.5113 C   0  0  0  0  0  0  0  0  0  0  0  0
   58.6369   28.6497   47.9002 C   0  0  0  0  0  0  0  0  0  0  0  0
   59.5119   29.6448   48.2870 C   0  0  0  0  0  0  0  0  0  0  0  0
   59.7908   30.0342   49.7056 C   0  0  0  0  0  0  0  0  0  0  0  0
   60.0776   30.2219   47.2041 N   0  0  0  0  0  0  0  0  0  0  0  0
   59.5638   29.6062   46.1093 C   0  0  0  0  0  0  0  0  0  0  0  0
   59.8674   29.9444   44.8474 C   0  0  0  0  0  0  0  0  0  0  0  0
   55.3524   26.5796   45.9692 O   0  0  0  0  0  0  0  0  0  0  0  0
   56.4802   25.7871   46.1657 C   0  0  0  0  0  0  0  0  0  0  0  0
   56.3307   24.4661   46.4486 N   0  0  0  0  0  0  0  0  0  0  0  0
   57.4068   23.6556   46.6105 C   0  0  0  0  0  0  0  0  0  0  0  0
   57.2430   22.4375   46.8755 O   0  0  0  0  0  0  0  0  0  0  0  0
   58.6609   24.1586   46.4781 N   0  0  0  0  0  0  0  0  0  0  0  0
   58.8660   25.4712   46.1975 C   0  0  0  0  0  0  0  0  0  0  0  0
   60.0440   25.9013   46.0787 O   0  0  0  0  0  0  0  0  0  0  0  0
   57.7689   26.3356   46.0540 C   0  0  0  0  0  0  0  0  0  0  0  0
   54.4971   26.2046   46.0459 H   0  0  0  0  0  0  0  0  0  0  0  0
   61.0163   31.3129   47.2300 C   0  0  0  0  0  0  0  0  0  0  0  0
   62.3465   31.0525   47.5931 C   0  0  0  0  0  0  0  0  0  0  0  0
   63.2714   32.0914   47.6959 C   0  0  0  0  0  0  0  0  0  0  0  0
   62.8766   33.4046   47.4411 C   0  0  0  0  0  0  0  0  0  0  0  0
   61.5583   33.6807   47.0737 C   0  0  0  0  0  0  0  0  0  0  0  0
   60.6154   32.6439   46.9492 C   0  0  0  0  0  0  0  0  0  0  0  0
   59.2358   32.9770   46.5229 C   0  0  0  0  0  0  0  0  0  0  0  0
   58.0831   32.9744   47.2821 C   0  0  0  0  0  0  0  0  0  0  0  0
   57.0406   33.3053   46.4979 N   0  0  0  0  0  0  0  0  0  0  0  0
   57.4843   33.5109   45.2668 N   0  0  0  0  0  0  0  0  0  0  0  0
   58.8154   33.3128   45.2524 C   0  0  0  0  0  0  0  0  0  0  0  0
  9 10  1  0
 10 11  1  0
 11 12  1  0
 12 13  2  0
 12 14  1  0
 14 15  1  0
 15 16  2  0
 15 17  1  0
 17  1  1  0
  1  2  2  0
  2  3  1  0
  3  4  2  0
  4  5  1  0
  4  6  1  0
  6 19  1  0
 19 20  2  0
 20 21  1  0
 21 22  2  0
 22 23  1  0
 23 24  2  0
 24 25  1  0
 25 26  1  0
 26 27  2  0
 27 28  1  0
 28 29  1  0
  6  7  1  0
  7  8  2  0
 17 10  2  0
  7  2  1  0
 24 19  1  0
 29 25  2  0
  9 18  1  0
M  CHG 1  11  -1
M  CHG 1  14  -1
M  CHG 1  28  -1
M  END
> <UniqueID>
52

> <SMILES>
C=c1/c(=C/c2c(O)[n-]c(=O)[n-]c2=O)cc(C)n1-c1ccccc1-c1cn[n-]c1

> <Energy>
123.8549483512903

> <Genealogy>
C=c1c(=Cc2c(O)[n-]c(=O)[n-]c2=O)cc(C)n1-c1ccccc1-c1cn[n-]c1 (protonated)
C=c1/c(=C/c2c(O)[n-]c(=O)[n-]c2=O)cc(C)n1-c1ccccc1-c1cn[n-]c1 (cis-trans isomerization)
C=c1/c(=C/c2c(O)[n-]c(=O)[n-]c2=O)cc(C)n1-c1ccccc1-c1cn[n-]c1 (3D coordinates assigned)
C=c1/c(=C/c2c(O)[n-]c(=O)[n-]c2=O)cc(C)n1-c1ccccc1-c1cn[n-]c1 (optimized conformer: 123.8549483512903 kcal/mol)

> <smiles>
C=c1c(=Cc2c(O)[nH]c(=O)[nH]c2=O)cc(C)n1-c1ccccc1-c1cn[nH]c1

> <score_type>
oracle

> <origin>
adg

> <m_score__min__energy>
-14.470000000000001

> <m_primary>
energy

> <minimizedAffinity>
-8.70197

> <minimizedRMSD>
0.42726

> <CNNscore>
0.2671737373

> <CNNaffinity>
6.5254592896

> <CNN_VS>
1.7434313297

> <CNNaffinity_variance>
0.0377582274

$$$$
63:0


 37 41  0  0  0  0  0  0  0  0999 V2000
   58.8245   31.0630   46.2432 C   0  0  0  0  0  0  0  0  0  0  0  0
   58.3459   31.8391   45.1776 C   0  0  0  0  0  0  0  0  0  0  0  0
   58.4645   33.2302   45.2129 C   0  0  0  0  0  0  0  0  0  0  0  0
   59.0545   33.8564   46.3136 C   0  0  0  0  0  0  0  0  0  0  0  0
   59.5306   33.0930   47.3935 C   0  0  0  0  0  0  0  0  0  0  0  0
   59.4203   31.6941   47.3448 C   0  0  0  0  0  0  0  0  0  0  0  0
   57.0451   29.4263   44.5133 C   0  0  0  0  0  0  0  0  0  0  0  0
   57.9371   28.8889   45.3615 C   0  0  0  0  0  0  0  0  0  0  0  0
   58.1518   27.5235   45.6151 C   0  0  0  0  0  0  0  0  0  0  0  0
   57.7141   26.4238   44.9742 C   0  0  0  0  0  0  0  0  0  0  0  0
   58.9935   27.4620   46.7164 C   0  0  0  0  0  0  0  0  0  0  0  0
   59.3226   28.7610   47.0435 C   0  0  0  0  0  0  0  0  0  0  0  0
   60.2522   29.1505   48.1551 C   0  0  0  0  0  0  0  0  0  0  0  0
   58.6843   29.6292   46.2237 N   0  0  0  0  0  0  0  0  0  0  0  0
   57.1839   25.2054   45.6061 C   0  0  0  0  0  0  0  0  0  0  0  0
   57.9045   24.0775   45.7478 N   0  0  0  0  0  0  0  0  0  0  0  0
   57.0172   23.1993   46.2635 C   0  0  0  0  0  0  0  0  0  0  0  0
   57.3281   22.0142   46.5530 O   0  0  0  0  0  0  0  0  0  0  0  0
   55.7720   23.6887   46.4368 N   0  0  0  0  0  0  0  0  0  0  0  0
   55.8828   24.9548   46.0005 C   0  0  0  0  0  0  0  0  0  0  0  0
   54.8079   25.8390   45.9437 O   0  0  0  0  0  0  0  0  0  0  0  0
   53.9612   25.5667   46.2386 H   0  0  0  0  0  0  0  0  0  0  0  0
   60.1641   33.7480   48.5615 C   0  0  0  0  0  0  0  0  0  0  0  0
   59.6261   34.7815   49.0463 O   0  0  0  0  0  0  0  0  0  0  0  0
   61.3855   33.2420   49.1443 N   0  0  0  0  0  0  0  0  0  0  0  0
   62.4566   32.6861   48.3059 C   0  0  0  0  0  0  0  0  0  0  0  0
   63.8028   33.2950   48.7047 C   0  0  0  0  0  0  0  0  0  0  0  0
   63.9631   33.2660   50.1649 N   0  0  0  0  0  0  0  0  0  0  0  0
   62.8891   33.8396   50.9865 C   0  0  0  0  0  0  0  0  0  0  0  0
   61.5522   33.2070   50.6006 C   0  0  0  0  0  0  0  0  0  0  0  0
   65.2429   32.9569   50.7454 C   0  0  0  0  0  0  0  0  0  0  0  0
   65.9850   33.9587   51.3906 C   0  0  0  0  0  0  0  0  0  0  0  0
   67.2397   33.6664   51.9353 C   0  0  0  0  0  0  0  0  0  0  0  0
   67.7613   32.3729   51.8426 C   0  0  0  0  0  0  0  0  0  0  0  0
   68.9759   32.0913   52.3726 F   0  0  0  0  0  0  0  0  0  0  0  0
   67.0264   31.3702   51.2042 C   0  0  0  0  0  0  0  0  0  0  0  0
   65.7769   31.6602   50.6500 C   0  0  0  0  0  0  0  0  0  0  0  0
  7  8  2  0
  8  9  1  0
  9 10  2  0
 10 15  1  0
 15 16  1  0
 16 17  1  0
 17 18  2  0
 17 19  1  0
 19 20  1  0
 20 21  1  0
  9 11  1  0
 11 12  2  0
 12 13  1  0
 12 14  1  0
 14  1  1  0
  1  2  2  0
  2  3  1  0
  3  4  2  0
  4  5  1  0
  5 23  1  0
 23 24  2  0
 23 25  1  0
 25 26  1  0
 26 27  1  0
 27 28  1  0
 28 31  1  0
 31 32  2  0
 32 33  1  0
 33 34  2  0
 34 35  1  0
 34 36  1  0
 36 37  2  0
 28 29  1  0
 29 30  1  0
  5  6  2  0
 14  8  1  0
  6  1  1  0
 20 15  2  0
 30 25  1  0
 37 31  1  0
 21 22  1  0
M  CHG 1  16  -1
M  CHG 1  19  -1
M  END
> <UniqueID>
61

> <SMILES>
C=c1c(=Cc2[n-]c(=O)[n-]c2O)cc(C)n1-c1cccc(C(=O)N2CCN(c3ccc(F)cc3)CC2)c1

> <Energy>
148.91924860510912

> <Genealogy>
C=c1c(=Cc2[n-]c(=O)[n-]c2O)cc(C)n1-c1cccc(C(=O)N2CCN(c3ccc(F)cc3)CC2)c1 (protonated)
C=c1c(=Cc2[n-]c(=O)[n-]c2O)cc(C)n1-c1cccc(C(=O)N2CCN(c3ccc(F)cc3)CC2)c1 (3D coordinates assigned)
C=c1c(=Cc2[n-]c(=O)[n-]c2O)cc(C)n1-c1cccc(C(=O)N2CCN(c3ccc(F)cc3)CC2)c1 (nonaromatic ring conformer: 148.91924860510912 kcal/mol)

> <smiles>
C=c1c(=Cc2[nH]c(=O)[nH]c2O)cc(C)n1-c1cccc(C(=O)N2CCN(c3ccc(F)cc3)CC2)c1

> <score_type>
oracle

> <origin>
adg

> <m_score__min__energy>
-15.01

> <m_primary>
energy

> <minimizedAffinity>
-10.98455

> <minimizedRMSD>
1.07267

> <CNNscore>
0.6519785523

> <CNNaffinity>
7.3429112434

> <CNN_VS>
4.7874207497

> <CNNaffinity_variance>
0.0994661748

$$$$
64:0


 26 28  0  0  0  0  0  0  0  0999 V2000
   58.3523   27.0002   43.9581 C   0  0  0  0  0  0  0  0  0  0  0  0
   58.8383   27.0585   45.2077 C   0  0  0  0  0  0  0  0  0  0  0  0
   58.6466   26.1125   46.2280 C   0  0  0  0  0  0  0  0  0  0  0  0
   58.1642   24.8552   46.1880 C   0  0  0  0  0  0  0  0  0  0  0  0
   59.0881   26.7080   47.3954 C   0  0  0  0  0  0  0  0  0  0  0  0
   59.5963   27.9428   47.0490 C   0  0  0  0  0  0  0  0  0  0  0  0
   60.1867   28.9166   48.0226 C   0  0  0  0  0  0  0  0  0  0  0  0
   59.4638   28.1532   45.7183 N   0  0  0  0  0  0  0  0  0  0  0  0
   56.7741   24.4803   45.8813 C   0  0  0  0  0  0  0  0  0  0  0  0
   56.3551   23.2270   45.6285 N   0  0  0  0  0  0  0  0  0  0  0  0
   55.0139   23.3571   45.5453 C   0  0  0  0  0  0  0  0  0  0  0  0
   54.2522   22.3854   45.3005 O   0  0  0  0  0  0  0  0  0  0  0  0
   54.5510   24.6075   45.7575 N   0  0  0  0  0  0  0  0  0  0  0  0
   55.6780   25.3030   45.9820 C   0  0  0  0  0  0  0  0  0  0  0  0
   55.7045   26.6588   46.2794 O   0  0  0  0  0  0  0  0  0  0  0  0
   59.8433   29.3781   44.9911 C   0  0  0  0  0  0  0  0  0  0  0  0
   59.2220   30.6145   45.6220 C   0  0  0  0  0  0  0  0  0  0  0  0
   59.9565   31.3449   46.5827 C   0  0  0  0  0  0  0  0  0  0  0  0
   61.1696   30.9128   47.0099 F   0  0  0  0  0  0  0  0  0  0  0  0
   59.4529   32.5357   47.1106 C   0  0  0  0  0  0  0  0  0  0  0  0
   58.2090   33.0093   46.7067 C   0  0  0  0  0  0  0  0  0  0  0  0
   57.4433   32.2794   45.7995 C   0  0  0  0  0  0  0  0  0  0  0  0
   57.9180   31.0657   45.2713 C   0  0  0  0  0  0  0  0  0  0  0  0
   57.0095   30.2916   44.3957 C   0  0  0  0  0  0  0  0  0  0  0  0
   57.0555   30.4409   43.1462 O   0  0  0  0  0  0  0  0  0  0  0  0
   56.0479   29.4486   44.9420 O   0  0  0  0  0  0  0  0  0  0  0  0
  1  2  2  0
  2  3  1  0
  3  4  2  0
  4  9  1  0
  9 10  1  0
 10 11  1  0
 11 12  2  0
 11 13  1  0
 13 14  1  0
 14 15  1  0
  3  5  1  0
  5  6  2  0
  6  7  1  0
  6  8  1  0
  8 16  1  0
 16 17  1  0
 17 18  2  0
 18 19  1  0
 18 20  1  0
 20 21  2  0
 21 22  1  0
 22 23  2  0
 23 24  1  0
 24 25  2  0
 24 26  1  0
  8  2  1  0
 23 17  1  0
 14  9  2  0
M  CHG 1  10  -1
M  CHG 1  13  -1
M  CHG 1  15  -1
M  CHG 1  26  -1
M  END
> <UniqueID>
62

> <SMILES>
C=c1c(=Cc2[n-]c(=O)[n-]c2[O-])cc(C)n1Cc1c(F)cccc1C(=O)[O-]

> <Energy>
116.56402792368131

> <Genealogy>
C=c1c(=Cc2[n-]c(=O)[n-]c2[O-])cc(C)n1Cc1c(F)cccc1C(=O)[O-] (protonated)
C=c1c(=Cc2[n-]c(=O)[n-]c2[O-])cc(C)n1Cc1c(F)cccc1C(=O)[O-] (3D coordinates assigned)
C=c1c(=Cc2[n-]c(=O)[n-]c2[O-])cc(C)n1Cc1c(F)cccc1C(=O)[O-] (optimized conformer: 116.56402792368131 kcal/mol)

> <smiles>
C=c1c(=Cc2[nH]c(=O)[nH]c2O)cc(C)n1Cc1c(F)cccc1C(=O)O

> <score_type>
oracle

> <origin>
adg

> <m_score__min__energy>
-17.149999999999999

> <m_primary>
energy

> <minimizedAffinity>
-7.60023

> <minimizedRMSD>
0.89620

> <CNNscore>
0.2430556417

> <CNNaffinity>
6.1059889793

> <CNN_VS>
1.4840950966

> <CNNaffinity_variance>
0.0029572018

$$$$
66:0


 32 35  0  0  0  0  0  0  0  0999 V2000
   58.8110   30.4537   52.8245 C   0  0  0  0  0  0  0  0  0  0  0  0
   59.5110   30.6039   53.8653 O   0  0  0  0  0  0  0  0  0  0  0  0
   54.6139   28.1214   53.4593 C   0  0  0  0  0  0  0  0  0  0  0  0
   55.4735   29.1437   53.3193 C   0  0  0  0  0  0  0  0  0  0  0  0
   55.1658   30.4579   52.9289 C   0  0  0  0  0  0  0  0  0  0  0  0
   53.9830   31.0852   52.7836 C   0  0  0  0  0  0  0  0  0  0  0  0
   56.3780   31.0822   52.6922 C   0  0  0  0  0  0  0  0  0  0  0  0
   57.3692   30.1685   52.9865 C   0  0  0  0  0  0  0  0  0  0  0  0
   56.8225   29.0002   53.4028 N   0  0  0  0  0  0  0  0  0  0  0  0
   57.5500   27.8090   53.8530 C   0  0  0  0  0  0  0  0  0  0  0  0
   52.9823   30.8016   51.7444 C   0  0  0  0  0  0  0  0  0  0  0  0
   53.1706   29.9134   50.7529 N   0  0  0  0  0  0  0  0  0  0  0  0
   52.0752   30.0724   49.9792 C   0  0  0  0  0  0  0  0  0  0  0  0
   51.8761   29.3906   48.9390 O   0  0  0  0  0  0  0  0  0  0  0  0
   51.2167   31.0269   50.3987 N   0  0  0  0  0  0  0  0  0  0  0  0
   51.8119   31.4899   51.5080 C   0  0  0  0  0  0  0  0  0  0  0  0
   51.3113   32.5354   52.2731 O   0  0  0  0  0  0  0  0  0  0  0  0
   59.3785   30.7327   51.5204 N   0  0  0  0  0  0  0  0  0  0  0  0
   59.2597   32.1752   51.1825 C   0  0  0  0  0  0  0  0  0  0  0  0
   59.4117   32.4583   49.6697 C   0  0  0  0  0  0  0  0  0  0  0  0
   60.1748   31.3301   48.9568 C   0  0  0  0  0  0  0  0  0  0  0  0
   59.4146   30.0009   49.1318 C   0  0  0  0  0  0  0  0  0  0  0  0
   58.7216   29.8820   50.5080 C   0  0  0  0  0  0  0  0  0  0  0  0
   60.0408   31.2972   51.9808 H   0  0  0  0  0  0  0  0  0  0  0  0
   60.3047   31.6229   47.5276 N   0  0  0  0  0  0  0  0  0  0  0  0
   59.5797   32.3982   46.7666 C   0  0  0  0  0  0  0  0  0  0  0  0
   58.2826   32.0387   46.5538 N   0  0  0  0  0  0  0  0  0  0  0  0
   57.4354   32.7681   45.7831 C   0  0  0  0  0  0  0  0  0  0  0  0
   57.8820   33.9371   45.1714 C   0  0  0  0  0  0  0  0  0  0  0  0
   59.2026   34.3404   45.3584 C   0  0  0  0  0  0  0  0  0  0  0  0
   60.0654   33.5802   46.1527 C   0  0  0  0  0  0  0  0  0  0  0  0
   61.3443   34.0093   46.2865 F   0  0  0  0  0  0  0  0  0  0  0  0
  3  4  2  0
  4  5  1  0
  5  6  2  0
  6 11  1  0
 11 12  1  0
 12 13  1  0
 13 14  2  0
 13 15  1  0
 15 16  1  0
 16 17  1  0
  5  7  1  0
  7  8  2  0
  8  1  1  0
  1  2  2  0
 18  1  1  0
 18 19  1  0
 19 20  1  0
 21 20  1  0
 21 25  1  0
 25 26  2  0
 26 27  1  0
 27 28  1  0
 28 29  2  0
 29 30  1  0
 30 31  2  0
 31 32  1  0
 21 22  1  0
 22 23  1  0
  8  9  1  0
  9 10  1  0
  9  4  1  0
 16 11  2  0
 23 18  1  0
 31 26  1  0
 18 24  1  0
M  CHG 1  12  -1
M  CHG 1  15  -1
M  CHG 1  17  -1
M  CHG 1  18   1
M  CHG 1  27  -1
M  END
> <UniqueID>
64

> <SMILES>
C=c1c(=Cc2[n-]c(=O)[n-]c2[O-])cc(C(=O)[NH+]2CCC(N=c3[n-]cccc3F)CC2)n1C

> <Energy>
143.7080331519478

> <Genealogy>
C=c1c(=Cc2[n-]c(=O)[n-]c2[O-])cc(C(=O)[NH+]2CCC(N=c3[n-]cccc3F)CC2)n1C (protonated)
C=c1c(=Cc2[n-]c(=O)[n-]c2[O-])cc(C(=O)[NH+]2CCC(N=c3[n-]cccc3F)CC2)n1C (3D coordinates assigned)
C=c1c(=Cc2[n-]c(=O)[n-]c2[O-])cc(C(=O)[NH+]2CCC(N=c3[n-]cccc3F)CC2)n1C (nonaromatic ring conformer: 143.7080331519478 kcal/mol)

> <smiles>
C=c1c(=Cc2[nH]c(=O)[nH]c2O)cc(C(=O)N2CCC(N=c3[nH]cccc3F)CC2)n1C

> <score_type>
oracle

> <origin>
adg

> <m_score__min__energy>
-17.620000000000001

> <m_primary>
energy

> <minimizedAffinity>
-7.12631

> <minimizedRMSD>
0.91560

> <CNNscore>
0.1028107107

> <CNNaffinity>
5.6469140053

> <CNN_VS>
0.5805632472

> <CNNaffinity_variance>
0.4319930375

$$$$
72:0


 34 37  0  0  0  0  0  0  0  0999 V2000
   60.9937   29.7206   47.2757 C   0  0  0  0  0  0  0  0  0  0  0  0
   60.0804   30.5651   46.7715 C   0  0  0  0  0  0  0  0  0  0  0  0
   59.1581   30.2826   45.7590 C   0  0  0  0  0  0  0  0  0  0  0  0
   59.0413   29.1417   45.0516 C   0  0  0  0  0  0  0  0  0  0  0  0
   58.3886   31.4289   45.5997 C   0  0  0  0  0  0  0  0  0  0  0  0
   58.8657   32.3528   46.5081 C   0  0  0  0  0  0  0  0  0  0  0  0
   58.2973   33.7252   46.7048 C   0  0  0  0  0  0  0  0  0  0  0  0
   59.8874   31.8298   47.2223 N   0  0  0  0  0  0  0  0  0  0  0  0
   58.3112   27.9501   45.5399 C   0  0  0  0  0  0  0  0  0  0  0  0
   56.9065   27.8908   45.5302 C   0  0  0  0  0  0  0  0  0  0  0  0
   56.1549   28.9623   45.0558 O   0  0  0  0  0  0  0  0  0  0  0  0
   56.2737   26.7865   46.0067 N   0  0  0  0  0  0  0  0  0  0  0  0
   56.9731   25.7391   46.5127 C   0  0  0  0  0  0  0  0  0  0  0  0
   56.3651   24.7272   46.9432 O   0  0  0  0  0  0  0  0  0  0  0  0
   58.3299   25.7871   46.5595 N   0  0  0  0  0  0  0  0  0  0  0  0
   59.0109   26.8659   46.0945 C   0  0  0  0  0  0  0  0  0  0  0  0
   60.2690   26.8772   46.1592 O   0  0  0  0  0  0  0  0  0  0  0  0
   56.5850   29.7267   44.7259 H   0  0  0  0  0  0  0  0  0  0  0  0
   60.6105   32.5005   48.2692 C   0  0  0  0  0  0  0  0  0  0  0  0
   60.2050   32.3533   49.6028 C   0  0  0  0  0  0  0  0  0  0  0  0
   60.9005   33.0006   50.6392 C   0  0  0  0  0  0  0  0  0  0  0  0
   61.9928   33.8241   50.3177 C   0  0  0  0  0  0  0  0  0  0  0  0
   62.3941   33.9790   48.9876 C   0  0  0  0  0  0  0  0  0  0  0  0
   61.7073   33.3204   47.9634 C   0  0  0  0  0  0  0  0  0  0  0  0
   62.0961   33.4946   46.6758 F   0  0  0  0  0  0  0  0  0  0  0  0
   60.4693   32.8455   52.0472 C   0  0  0  0  0  0  0  0  0  0  0  0
   61.0098   33.5541   52.9408 O   0  0  0  0  0  0  0  0  0  0  0  0
   59.4343   31.9170   52.4156 N   0  0  0  0  0  0  0  0  0  0  0  0
   58.3838   32.3389   53.3482 C   0  0  0  0  0  0  0  0  0  0  0  0
   57.5900   31.1303   53.8694 C   0  0  0  0  0  0  0  0  0  0  0  0
   57.1173   30.2393   52.7824 N   0  0  0  0  0  0  0  0  0  0  0  0
   55.8079   30.6698   52.2666 C   0  0  0  0  0  0  0  0  0  0  0  0
   58.0859   30.0188   51.6753 C   0  0  0  0  0  0  0  0  0  0  0  0
   59.5001   30.5141   51.9996 C   0  0  0  0  0  0  0  0  0  0  0  0
  1  2  2  0
  2  3  1  0
  3  4  2  0
  4  9  1  0
  9 10  2  0
 10 11  1  0
 10 12  1  0
 12 13  1  0
 13 14  2  0
 13 15  1  0
 15 16  1  0
 16 17  2  0
  3  5  1  0
  5  6  2  0
  6  7  1  0
  6  8  1  0
  8 19  1  0
 19 20  2  0
 20 21  1  0
 21 26  1  0
 26 27  2  0
 26 28  1  0
 28 29  1  0
 29 30  1  0
 30 31  1  0
 31 32  1  0
 31 33  1  0
 33 34  1  0
 21 22  2  0
 22 23  1  0
 23 24  2  0
 24 25  1  0
  8  2  1  0
 24 19  1  0
 16  9  1  0
 34 28  1  0
 11 18  1  0
M  CHG 1  12  -1
M  CHG 1  15  -1
M  END
> <UniqueID>
70

> <SMILES>
C=c1c(=Cc2c(O)[n-]c(=O)[n-]c2=O)cc(C)n1-c1cc(C(=O)N2CCN(C)CC2)ccc1F

> <Energy>
113.9972087724449

> <Genealogy>
C=c1c(=Cc2c(O)[n-]c(=O)[n-]c2=O)cc(C)n1-c1cc(C(=O)N2CCN(C)CC2)ccc1F (protonated)
C=c1c(=Cc2c(O)[n-]c(=O)[n-]c2=O)cc(C)n1-c1cc(C(=O)N2CCN(C)CC2)ccc1F (3D coordinates assigned)
C=c1c(=Cc2c(O)[n-]c(=O)[n-]c2=O)cc(C)n1-c1cc(C(=O)N2CCN(C)CC2)ccc1F (nonaromatic ring conformer: 113.9972087724449 kcal/mol)

> <smiles>
C=c1c(=Cc2c(O)[nH]c(=O)[nH]c2=O)cc(C)n1-c1cc(C(=O)N2CCN(C)CC2)ccc1F

> <score_type>
oracle

> <origin>
adg

> <m_score__min__energy>
-14.69

> <m_primary>
energy

> <minimizedAffinity>
-9.05060

> <minimizedRMSD>
0.94090

> <CNNscore>
0.6316936612

> <CNNaffinity>
7.4527344704

> <CNN_VS>
4.7078452110

> <CNNaffinity_variance>
0.0918713734

$$$$
74:0


 24 26  0  0  0  0  0  0  0  0999 V2000
   59.1975   27.7497   47.6816 C   0  0  0  0  0  0  0  0  0  0  0  0
   58.7548   28.5892   46.7347 C   0  0  0  0  0  0  0  0  0  0  0  0
   58.1525   28.2591   45.5130 C   0  0  0  0  0  0  0  0  0  0  0  0
   58.0244   27.0775   44.8763 C   0  0  0  0  0  0  0  0  0  0  0  0
   57.6725   29.4750   45.0364 C   0  0  0  0  0  0  0  0  0  0  0  0
   56.9307   29.7114   43.7572 C   0  0  0  0  0  0  0  0  0  0  0  0
   58.0147   30.4660   45.8784 N   0  0  0  0  0  0  0  0  0  0  0  0
   58.6880   29.9368   46.8892 N   0  0  0  0  0  0  0  0  0  0  0  0
   57.5526   25.8290   45.4888 C   0  0  0  0  0  0  0  0  0  0  0  0
   58.5172   24.4753   45.7585 S   0  0  0  0  0  0  0  0  0  0  0  0
   57.3030   23.6718   46.5968 C   0  0  0  0  0  0  0  0  0  0  0  0
   57.4185   22.5149   47.0776 O   0  0  0  0  0  0  0  0  0  0  0  0
   56.1771   24.4084   46.7173 N   0  0  0  0  0  0  0  0  0  0  0  0
   56.3229   25.6178   46.1143 C   0  0  0  0  0  0  0  0  0  0  0  0
   55.3147   26.5734   46.1490 O   0  0  0  0  0  0  0  0  0  0  0  0
   59.1518   30.7218   48.0424 C   0  0  0  0  0  0  0  0  0  0  0  0
   60.3793   31.5350   47.6938 C   0  0  0  0  0  0  0  0  0  0  0  0
   61.6551   30.9972   47.9346 C   0  0  0  0  0  0  0  0  0  0  0  0
   62.8027   31.7383   47.6421 C   0  0  0  0  0  0  0  0  0  0  0  0
   62.6911   33.0259   47.1162 C   0  0  0  0  0  0  0  0  0  0  0  0
   61.4296   33.5790   46.8822 C   0  0  0  0  0  0  0  0  0  0  0  0
   60.2707   32.8462   47.1717 C   0  0  0  0  0  0  0  0  0  0  0  0
   58.9847   33.4570   46.9373 C   0  0  0  0  0  0  0  0  0  0  0  0
   57.9532   33.9465   46.7478 N   0  0  0  0  0  0  0  0  0  0  0  0
  1  2  2  0
  2  3  1  0
  3  4  2  0
  4  9  1  0
  9 10  1  0
 10 11  1  0
 11 12  2  0
 11 13  1  0
 13 14  1  0
 14 15  1  0
  3  5  1  0
  5  6  1  0
  5  7  2  0
  7  8  1  0
  8 16  1  0
 16 17  1  0
 17 18  2  0
 18 19  1  0
 19 20  2  0
 20 21  1  0
 21 22  2  0
 22 23  1  0
 23 24  3  0
  8  2  1  0
 22 17  1  0
 14  9  2  0
M  CHG 1  13  -1
M  CHG 1  15  -1
M  END
> <UniqueID>
71

> <SMILES>
C=c1c(=Cc2sc(=O)[n-]c2[O-])c(C)nn1Cc1ccccc1C#N

> <Energy>
113.4154490327523

> <Genealogy>
C=c1c(=Cc2sc(=O)[n-]c2[O-])c(C)nn1Cc1ccccc1C#N (protonated)
C=c1c(=Cc2sc(=O)[n-]c2[O-])c(C)nn1Cc1ccccc1C#N (3D coordinates assigned)
C=c1c(=Cc2sc(=O)[n-]c2[O-])c(C)nn1Cc1ccccc1C#N (optimized conformer: 113.4154490327523 kcal/mol)

> <smiles>
C=c1c(=Cc2sc(=O)[nH]c2O)c(C)nn1Cc1ccccc1C#N

> <score_type>
oracle

> <origin>
adg

> <m_score__min__energy>
-14.800000000000001

> <m_primary>
energy

> <minimizedAffinity>
-7.93739

> <minimizedRMSD>
0.96087

> <CNNscore>
0.3716730773

> <CNNaffinity>
6.5064640045

> <CNN_VS>
2.4182775021

> <CNNaffinity_variance>
0.1699567437

$$$$
76:0


 30 33  0  0  0  0  0  0  0  0999 V2000
   57.9027   30.4847   44.0260 C   0  0  0  0  0  0  0  0  0  0  0  0
   58.4052   30.0512   45.1944 C   0  0  0  0  0  0  0  0  0  0  0  0
   58.4711   28.7132   45.6163 C   0  0  0  0  0  0  0  0  0  0  0  0
   58.2856   27.5605   44.9446 C   0  0  0  0  0  0  0  0  0  0  0  0
   58.7726   28.7478   46.9604 C   0  0  0  0  0  0  0  0  0  0  0  0
   58.9320   30.0712   47.3042 C   0  0  0  0  0  0  0  0  0  0  0  0
   58.7624   30.8794   46.2216 N   0  0  0  0  0  0  0  0  0  0  0  0
   57.8746   26.2769   45.5354 C   0  0  0  0  0  0  0  0  0  0  0  0
   58.6458   25.1758   45.5290 N   0  0  0  0  0  0  0  0  0  0  0  0
   57.8405   24.2274   46.0536 C   0  0  0  0  0  0  0  0  0  0  0  0
   58.2157   23.0395   46.2284 O   0  0  0  0  0  0  0  0  0  0  0  0
   56.5964   24.6501   46.3675 N   0  0  0  0  0  0  0  0  0  0  0  0
   56.6290   25.9450   46.0190 C   0  0  0  0  0  0  0  0  0  0  0  0
   55.5362   26.7985   46.1147 O   0  0  0  0  0  0  0  0  0  0  0  0
   58.8637   32.3584   46.1576 C   0  0  0  0  0  0  0  0  0  0  0  0
   57.6344   33.0224   46.7803 C   0  0  0  0  0  0  0  0  0  0  0  0
   60.1644   32.9010   46.7667 C   0  0  0  0  0  0  0  0  0  0  0  0
   59.1848   30.5050   48.6923 C   0  0  0  0  0  0  0  0  0  0  0  0
   58.4320   31.3974   49.1701 O   0  0  0  0  0  0  0  0  0  0  0  0
   60.2323   29.9213   49.5220 N   0  0  0  0  0  0  0  0  0  0  0  0
   60.1555   30.4025   50.9206 C   0  0  0  0  0  0  0  0  0  0  0  0
   60.4052   31.9158   51.0269 C   0  0  0  0  0  0  0  0  0  0  0  0
   61.5681   32.3654   50.1812 C   0  0  0  0  0  0  0  0  0  0  0  0
   62.0599   33.6714   50.3301 C   0  0  0  0  0  0  0  0  0  0  0  0
   63.0884   34.1379   49.5071 C   0  0  0  0  0  0  0  0  0  0  0  0
   63.6293   33.3059   48.5243 C   0  0  0  0  0  0  0  0  0  0  0  0
   63.1433   32.0066   48.3612 C   0  0  0  0  0  0  0  0  0  0  0  0
   62.1002   31.5335   49.1724 C   0  0  0  0  0  0  0  0  0  0  0  0
   61.6084   30.1147   49.0049 C   0  0  0  0  0  0  0  0  0  0  0  0
   59.6065   30.5264   49.0621 H   0  0  0  0  0  0  0  0  0  0  0  0
  1  2  2  0
  2  3  1  0
  3  4  2  0
  4  8  1  0
  8  9  1  0
  9 10  1  0
 10 11  2  0
 10 12  1  0
 12 13  1  0
 13 14  1  0
  3  5  1  0
  5  6  2  0
  6 18  1  0
 18 19  2  0
 20 18  1  0
 20 21  1  0
 21 22  1  0
 22 23  1  0
 23 24  2  0
 24 25  1  0
 25 26  2  0
 26 27  1  0
 27 28  2  0
 28 29  1  0
  6  7  1  0
  7 15  1  0
 15 16  1  0
 15 17  1  0
  7  2  1  0
 13  8  2  0
 29 20  1  0
 28 23  1  0
 20 30  1  0
M  CHG 1   9  -1
M  CHG 1  12  -1
M  CHG 1  14  -1
M  CHG 1  20   1
M  END
> <UniqueID>
73

> <SMILES>
C=c1c(=Cc2[n-]c(=O)[n-]c2[O-])cc(C(=O)[N@@H+]2CCc3ccccc3C2)n1C(C)C

> <Energy>
140.18832271164806

> <Genealogy>
C=c1c(=Cc2[n-]c(=O)[n-]c2[O-])cc(C(=O)[NH+]2CCc3ccccc3C2)n1C(C)C (protonated)
C=c1c(=Cc2[n-]c(=O)[n-]c2[O-])cc(C(=O)[N@@H+]2CCc3ccccc3C2)n1C(C)C (chirality)
C=c1c(=Cc2[n-]c(=O)[n-]c2[O-])cc(C(=O)[N@@H+]2CCc3ccccc3C2)n1C(C)C (3D coordinates assigned)
C=c1c(=Cc2[n-]c(=O)[n-]c2[O-])cc(C(=O)[N@@H+]2CCc3ccccc3C2)n1C(C)C (nonaromatic ring conformer: 140.18832271164806 kcal/mol)

> <smiles>
C=c1c(=Cc2[nH]c(=O)[nH]c2O)cc(C(=O)N2CCc3ccccc3C2)n1C(C)C

> <score_type>
oracle

> <origin>
adg

> <m_score__min__energy>
-15.99

> <m_primary>
energy

> <minimizedAffinity>
-7.14215

> <minimizedRMSD>
0.99376

> <CNNscore>
0.2644933164

> <CNNaffinity>
6.7460579872

> <CNN_VS>
1.7842872143

> <CNNaffinity_variance>
0.0788357332

$$$$
78:0


 34 37  0  0  0  0  0  0  0  0999 V2000
   56.8035   25.7822   46.1254 C   0  0  0  0  0  0  0  0  0  0  0  0
   56.9031   27.1131   46.3892 N   0  0  0  0  0  0  0  0  0  0  0  0
   58.1021   27.7413   46.5198 C   0  0  0  0  0  0  0  0  0  0  0  0
   58.1443   29.1119   46.7955 C   0  0  0  0  0  0  0  0  0  0  0  0
   59.3755   29.7791   46.9254 C   0  0  0  0  0  0  0  0  0  0  0  0
   60.5672   29.0434   46.7939 C   0  0  0  0  0  0  0  0  0  0  0  0
   60.5322   27.6736   46.5209 C   0  0  0  0  0  0  0  0  0  0  0  0
   59.3016   27.0085   46.3790 C   0  0  0  0  0  0  0  0  0  0  0  0
   59.2243   25.6300   46.1075 C   0  0  0  0  0  0  0  0  0  0  0  0
   60.2682   24.9359   45.9776 O   0  0  0  0  0  0  0  0  0  0  0  0
   57.9738   25.0184   45.9803 C   0  0  0  0  0  0  0  0  0  0  0  0
   59.4042   31.2287   47.2290 C   0  0  0  0  0  0  0  0  0  0  0  0
   58.6700   31.6853   48.1472 O   0  0  0  0  0  0  0  0  0  0  0  0
   60.2457   32.1249   46.4855 N   0  0  0  0  0  0  0  0  0  0  0  0
   60.6519   31.8080   45.6465 H   0  0  0  0  0  0  0  0  0  0  0  0
   60.5208   33.4898   46.9296 C   0  0  0  0  0  0  0  0  0  0  0  0
   61.6531   33.4909   47.9266 C   0  0  0  0  0  0  0  0  0  0  0  0
   62.9519   33.1979   47.4773 C   0  0  0  0  0  0  0  0  0  0  0  0
   64.0199   33.1617   48.3746 C   0  0  0  0  0  0  0  0  0  0  0  0
   63.8046   33.4145   49.7275 C   0  0  0  0  0  0  0  0  0  0  0  0
   62.5184   33.7029   50.1918 C   0  0  0  0  0  0  0  0  0  0  0  0
   61.4282   33.7418   49.2990 C   0  0  0  0  0  0  0  0  0  0  0  0
   60.1246   34.0222   49.7394 O   0  0  0  0  0  0  0  0  0  0  0  0
   59.5540   33.5247   50.9455 C   0  0  0  0  0  0  0  0  0  0  0  0
   55.4680   25.1712   45.9996 C   0  0  0  0  0  0  0  0  0  0  0  0
   54.4395   25.9021   45.9655 O   0  0  0  0  0  0  0  0  0  0  0  0
   56.2649   22.1379   42.8527 C   0  0  0  0  0  0  0  0  0  0  0  0
   55.6426   22.9512   43.7466 N   0  0  0  0  0  0  0  0  0  0  0  0
   55.9668   22.9538   45.0729 C   0  0  0  0  0  0  0  0  0  0  0  0
   55.3597   23.7402   45.9154 N   0  0  0  0  0  0  0  0  0  0  0  0
   56.9737   22.0918   45.5341 C   0  0  0  0  0  0  0  0  0  0  0  0
   57.3284   22.0697   46.8799 O   0  0  0  0  0  0  0  0  0  0  0  0
   57.6251   21.2495   44.6303 C   0  0  0  0  0  0  0  0  0  0  0  0
   57.2713   21.2708   43.2814 C   0  0  0  0  0  0  0  0  0  0  0  0
 27 28  1  0
 28 29  1  0
 29 30  2  0
 30 25  1  0
 25 26  2  0
 25  1  1  0
  1  2  1  0
  2  3  1  0
  3  4  2  0
  4  5  1  0
  5 12  1  0
 12 13  2  0
 12 14  1  0
 14 16  1  0
 16 17  1  0
 17 18  2  0
 18 19  1  0
 19 20  2  0
 20 21  1  0
 21 22  2  0
 22 23  1  0
 23 24  1  0
  5  6  2  0
  6  7  1  0
  7  8  2  0
  8  9  1  0
  9 10  2  0
  9 11  1  0
 29 31  1  0
 31 32  1  0
 31 33  2  0
 33 34  1  0
 34 27  2  0
 11  1  2  0
  8  3  1  0
 22 17  1  0
 14 15  1  0
M  CHG 1   2  -1
M  CHG 1  28  -1
M  CHG 1  32  -1
M  END
> <UniqueID>
75

> <SMILES>
COc1ccccc1CNC(=O)c1ccc2c(=O)cc(C(=O)/N=c3\[n-]cccc3[O-])[n-]c2c1

> <Energy>
63.23722215403789

> <Genealogy>
COc1ccccc1CNC(=O)c1ccc2c(=O)cc(C(=O)N=c3[n-]cccc3[O-])[n-]c2c1 (protonated)
COc1ccccc1CNC(=O)c1ccc2c(=O)cc(C(=O)/N=c3\[n-]cccc3[O-])[n-]c2c1 (cis-trans isomerization)
COc1ccccc1CNC(=O)c1ccc2c(=O)cc(C(=O)/N=c3\[n-]cccc3[O-])[n-]c2c1 (3D coordinates assigned)
COc1ccccc1CNC(=O)c1ccc2c(=O)cc(C(=O)/N=c3\[n-]cccc3[O-])[n-]c2c1 (optimized conformer: 63.23722215403789 kcal/mol)

> <smiles>
COc1ccccc1CNC(=O)c1ccc2c(=O)cc(C(=O)N=c3[nH]cccc3O)[nH]c2c1

> <score_type>
oracle

> <origin>
adg

> <m_score__min__energy>
-15.68

> <m_primary>
energy

> <minimizedAffinity>
-6.79533

> <minimizedRMSD>
0.65525

> <CNNscore>
0.1741431952

> <CNNaffinity>
6.5417137146

> <CNN_VS>
1.1391949654

> <CNNaffinity_variance>
0.1659250408

$$$$
82:0


 26 28  0  0  0  0  0  0  0  0999 V2000
   56.3636   31.4890   52.3680 C   0  0  0  0  0  0  0  0  0  0  0  0
   56.0277   30.3332   52.9656 C   0  0  0  0  0  0  0  0  0  0  0  0
   54.7268   29.9141   53.2814 C   0  0  0  0  0  0  0  0  0  0  0  0
   53.5814   30.6006   53.0731 C   0  0  0  0  0  0  0  0  0  0  0  0
   54.8548   28.6412   53.8235 C   0  0  0  0  0  0  0  0  0  0  0  0
   56.2027   28.3436   53.8324 C   0  0  0  0  0  0  0  0  0  0  0  0
   56.7766   27.0590   54.3487 C   0  0  0  0  0  0  0  0  0  0  0  0
   56.9185   29.3661   53.3127 N   0  0  0  0  0  0  0  0  0  0  0  0
   58.3525   29.4068   53.1842 C   0  0  0  0  0  0  0  0  0  0  0  0
   59.0762   29.4684   54.2144 O   0  0  0  0  0  0  0  0  0  0  0  0
   52.7966   30.6125   51.8185 C   0  0  0  0  0  0  0  0  0  0  0  0
   52.9284   29.7500   50.7940 N   0  0  0  0  0  0  0  0  0  0  0  0
   51.9761   30.1465   49.9219 C   0  0  0  0  0  0  0  0  0  0  0  0
   51.7882   29.5727   48.8170 O   0  0  0  0  0  0  0  0  0  0  0  0
   51.2396   31.1998   50.3288 N   0  0  0  0  0  0  0  0  0  0  0  0
   51.7684   31.4805   51.5299 C   0  0  0  0  0  0  0  0  0  0  0  0
   51.3192   32.5084   52.3488 O   0  0  0  0  0  0  0  0  0  0  0  0
   58.9585   29.3138   51.8908 N   0  0  0  0  0  0  0  0  0  0  0  0
   60.3003   29.7149   51.5829 C   0  0  0  0  0  0  0  0  0  0  0  0
   61.3560   28.9281   52.0599 C   0  0  0  0  0  0  0  0  0  0  0  0
   62.6811   29.2760   51.7847 C   0  0  0  0  0  0  0  0  0  0  0  0
   62.9611   30.4047   51.0111 C   0  0  0  0  0  0  0  0  0  0  0  0
   61.9175   31.1789   50.4995 C   0  0  0  0  0  0  0  0  0  0  0  0
   60.5845   30.8377   50.7707 C   0  0  0  0  0  0  0  0  0  0  0  0
   59.5334   31.6065   50.1488 C   0  0  0  0  0  0  0  0  0  0  0  0
   58.6920   32.2253   49.6521 N   0  0  0  0  0  0  0  0  0  0  0  0
  1  2  2  0
  2  3  1  0
  3  4  2  0
  4 11  1  0
 11 12  1  0
 12 13  1  0
 13 14  2  0
 13 15  1  0
 15 16  1  0
 16 17  1  0
  3  5  1  0
  5  6  2  0
  6  7  1  0
  6  8  1  0
  8  9  1  0
  9 10  2  0
  9 18  1  0
 18 19  1  0
 19 20  2  0
 20 21  1  0
 21 22  2  0
 22 23  1  0
 23 24  2  0
 24 25  1  0
 25 26  3  0
  8  2  1  0
 24 19  1  0
 16 11  2  0
M  CHG 1  12  -1
M  CHG 1  15  -1
M  CHG 1  17  -1
M  CHG 1  18  -1
M  END
> <UniqueID>
79

> <SMILES>
C=c1/c(=C/c2[n-]c(=O)[n-]c2[O-])cc(C)n1C(=O)[N-]c1ccccc1C#N

> <Energy>
112.08743196114203

> <Genealogy>
C=c1c(=Cc2[n-]c(=O)[n-]c2[O-])cc(C)n1C(=O)[N-]c1ccccc1C#N (protonated)
C=c1/c(=C/c2[n-]c(=O)[n-]c2[O-])cc(C)n1C(=O)[N-]c1ccccc1C#N (cis-trans isomerization)
C=c1/c(=C/c2[n-]c(=O)[n-]c2[O-])cc(C)n1C(=O)[N-]c1ccccc1C#N (3D coordinates assigned)
C=c1/c(=C/c2[n-]c(=O)[n-]c2[O-])cc(C)n1C(=O)[N-]c1ccccc1C#N (optimized conformer: 112.08743196114203 kcal/mol)

> <smiles>
C=c1c(=Cc2[nH]c(=O)[nH]c2O)cc(C)n1C(=O)Nc1ccccc1C#N

> <score_type>
oracle

> <origin>
adg

> <m_score__min__energy>
-16.91

> <m_primary>
energy

> <minimizedAffinity>
-4.93215

> <minimizedRMSD>
1.07066

> <CNNscore>
0.1043224856

> <CNNaffinity>
4.6615200043

> <CNN_VS>
0.4863013625

> <CNNaffinity_variance>
0.2190774679

$$$$
84:0


 35 38  0  0  0  0  0  0  0  0999 V2000
   56.9843   29.8176   54.2938 C   0  0  0  0  0  0  0  0  0  0  0  0
   57.4963   28.7389   53.5599 C   0  0  0  0  0  0  0  0  0  0  0  0
   58.8628   28.6706   53.2809 C   0  0  0  0  0  0  0  0  0  0  0  0
   59.7280   29.6702   53.7442 C   0  0  0  0  0  0  0  0  0  0  0  0
   59.2286   30.7572   54.4861 C   0  0  0  0  0  0  0  0  0  0  0  0
   57.8467   30.8299   54.7319 C   0  0  0  0  0  0  0  0  0  0  0  0
   54.7428   30.6291   52.5138 C   0  0  0  0  0  0  0  0  0  0  0  0
   54.5692   30.2244   53.7820 C   0  0  0  0  0  0  0  0  0  0  0  0
   53.3469   30.0517   54.4355 C   0  0  0  0  0  0  0  0  0  0  0  0
   52.1138   30.2208   53.9207 C   0  0  0  0  0  0  0  0  0  0  0  0
   53.6493   29.5755   55.7061 C   0  0  0  0  0  0  0  0  0  0  0  0
   55.0238   29.4916   55.7806 C   0  0  0  0  0  0  0  0  0  0  0  0
   55.7764   28.9425   56.9545 C   0  0  0  0  0  0  0  0  0  0  0  0
   55.5839   29.8836   54.6149 N   0  0  0  0  0  0  0  0  0  0  0  0
   51.8437   30.4390   52.4870 C   0  0  0  0  0  0  0  0  0  0  0  0
   52.1053   29.5231   51.5400 N   0  0  0  0  0  0  0  0  0  0  0  0
   51.7915   30.1613   50.3913 C   0  0  0  0  0  0  0  0  0  0  0  0
   51.8966   29.6150   49.2630 O   0  0  0  0  0  0  0  0  0  0  0  0
   51.3721   31.4354   50.5467 N   0  0  0  0  0  0  0  0  0  0  0  0
   51.4194   31.6000   51.8773 C   0  0  0  0  0  0  0  0  0  0  0  0
   51.1312   32.8016   52.5135 O   0  0  0  0  0  0  0  0  0  0  0  0
   60.1492   31.7879   55.0319 C   0  0  0  0  0  0  0  0  0  0  0  0
   60.8045   31.5586   56.0836 O   0  0  0  0  0  0  0  0  0  0  0  0
   60.2810   33.0668   54.3952 N   0  0  0  0  0  0  0  0  0  0  0  0
   59.1622   34.0057   54.4543 C   0  0  0  0  0  0  0  0  0  0  0  0
   61.4972   33.3731   53.6319 C   0  0  0  0  0  0  0  0  0  0  0  0
   61.2728   33.1020   52.1682 C   0  0  0  0  0  0  0  0  0  0  0  0
   59.9738   32.9211   51.6734 C   0  0  0  0  0  0  0  0  0  0  0  0
   59.7720   32.5946   50.3323 C   0  0  0  0  0  0  0  0  0  0  0  0
   60.8637   32.4225   49.4785 C   0  0  0  0  0  0  0  0  0  0  0  0
   62.1776   32.5691   49.9598 C   0  0  0  0  0  0  0  0  0  0  0  0
   62.3708   32.9319   51.3073 C   0  0  0  0  0  0  0  0  0  0  0  0
   63.3283   32.3120   49.0565 C   0  0  0  0  0  0  0  0  0  0  0  0
   64.5018   32.3288   49.5185 O   0  0  0  0  0  0  0  0  0  0  0  0
   63.1390   32.0282   47.5978 C   0  0  0  0  0  0  0  0  0  0  0  0
  7  8  2  0
  8  9  1  0
  9 10  2  0
 10 15  1  0
 15 16  1  0
 16 17  1  0
 17 18  2  0
 17 19  1  0
 19 20  1  0
 20 21  1  0
  9 11  1  0
 11 12  2  0
 12 13  1  0
 12 14  1  0
 14  1  1  0
  1  2  2  0
  2  3  1  0
  3  4  2  0
  4  5  1  0
  5 22  1  0
 22 23  2  0
 22 24  1  0
 24 25  1  0
 24 26  1  0
 26 27  1  0
 27 28  2  0
 28 29  1  0
 29 30  2  0
 30 31  1  0
 31 33  1  0
 33 34  2  0
 33 35  1  0
 31 32  2  0
  5  6  2  0
 14  8  1  0
  6  1  1  0
 20 15  2  0
 32 27  1  0
M  CHG 1  16  -1
M  CHG 1  19  -1
M  CHG 1  21  -1
M  END
> <UniqueID>
81

> <SMILES>
C=c1/c(=C/c2[n-]c(=O)[n-]c2[O-])cc(C)n1-c1cccc(C(=O)N(C)Cc2cccc(C(C)=O)c2)c1

> <Energy>
129.4873331278399

> <Genealogy>
C=c1c(=Cc2[n-]c(=O)[n-]c2[O-])cc(C)n1-c1cccc(C(=O)N(C)Cc2cccc(C(C)=O)c2)c1 (protonated)
C=c1/c(=C/c2[n-]c(=O)[n-]c2[O-])cc(C)n1-c1cccc(C(=O)N(C)Cc2cccc(C(C)=O)c2)c1 (cis-trans isomerization)
C=c1/c(=C/c2[n-]c(=O)[n-]c2[O-])cc(C)n1-c1cccc(C(=O)N(C)Cc2cccc(C(C)=O)c2)c1 (3D coordinates assigned)
C=c1/c(=C/c2[n-]c(=O)[n-]c2[O-])cc(C)n1-c1cccc(C(=O)N(C)Cc2cccc(C(C)=O)c2)c1 (optimized conformer: 129.4873331278399 kcal/mol)

> <smiles>
C=c1c(=Cc2[nH]c(=O)[nH]c2O)cc(C)n1-c1cccc(C(=O)N(C)Cc2cccc(C(C)=O)c2)c1

> <score_type>
oracle

> <origin>
adg

> <m_score__min__energy>
-18.690000000000001

> <m_primary>
energy

> <minimizedAffinity>
-6.06730

> <minimizedRMSD>
1.10091

> <CNNscore>
0.1243230775

> <CNNaffinity>
5.7097897530

> <CNN_VS>
0.7098586559

> <CNNaffinity_variance>
0.0294343811

$$$$
89:0


 32 36  0  0  0  0  0  0  0  0999 V2000
   58.9172   27.9916   45.1926 C   0  0  0  0  0  0  0  0  0  0  0  0
   58.7433   29.3177   45.2993 C   0  0  0  0  0  0  0  0  0  0  0  0
   58.7361   30.0593   46.4697 C   0  0  0  0  0  0  0  0  0  0  0  0
   58.4931   31.3713   46.1034 C   0  0  0  0  0  0  0  0  0  0  0  0
   58.3562   31.3702   44.7187 C   0  0  0  0  0  0  0  0  0  0  0  0
   58.0846   32.4186   43.9368 C   0  0  0  0  0  0  0  0  0  0  0  0
   58.5031   30.1177   44.2400 N   0  0  0  0  0  0  0  0  0  0  0  0
   58.4458   29.8403   43.2971 H   0  0  0  0  0  0  0  0  0  0  0  0
   55.8689   28.4802   45.4964 O   0  0  0  0  0  0  0  0  0  0  0  0
   56.4762   27.2295   45.5420 C   0  0  0  0  0  0  0  0  0  0  0  0
   55.7898   26.0852   45.7754 N   0  0  0  0  0  0  0  0  0  0  0  0
   56.7389   25.1270   45.7996 C   0  0  0  0  0  0  0  0  0  0  0  0
   56.5443   23.7569   46.0205 C   0  0  0  0  0  0  0  0  0  0  0  0
   55.1672   23.1850   46.2105 C   0  0  0  0  0  0  0  0  0  0  0  0
   57.6859   22.9205   45.9894 C   0  0  0  0  0  0  0  0  0  0  0  0
   57.5578   21.5479   46.1672 O   0  0  0  0  0  0  0  0  0  0  0  0
   58.9690   23.4697   45.7739 C   0  0  0  0  0  0  0  0  0  0  0  0
   59.1335   24.8500   45.5726 C   0  0  0  0  0  0  0  0  0  0  0  0
   57.9935   25.6492   45.5901 C   0  0  0  0  0  0  0  0  0  0  0  0
   57.8415   27.0036   45.3983 C   0  0  0  0  0  0  0  0  0  0  0  0
   54.9408   28.5545   45.6017 H   0  0  0  0  0  0  0  0  0  0  0  0
   58.4551   32.5145   47.0419 C   0  0  0  0  0  0  0  0  0  0  0  0
   57.5615   33.3945   46.9175 O   0  0  0  0  0  0  0  0  0  0  0  0
   59.4703   32.6740   48.0486 N   0  0  0  0  0  0  0  0  0  0  0  0
   59.8482   31.5554   48.9187 C   0  0  0  0  0  0  0  0  0  0  0  0
   61.3754   31.4895   49.0632 C   0  0  0  0  0  0  0  0  0  0  0  0
   62.0052   32.8234   49.2089 N   0  0  0  0  0  0  0  0  0  0  0  0
   61.0961   33.9717   49.4001 C   0  0  0  0  0  0  0  0  0  0  0  0
   59.9992   34.0147   48.3234 C   0  0  0  0  0  0  0  0  0  0  0  0
   63.2690   32.9966   48.4494 C   0  0  0  0  0  0  0  0  0  0  0  0
   63.4322   32.0367   47.2745 C   0  0  0  0  0  0  0  0  0  0  0  0
   63.2208   33.5173   47.0114 C   0  0  0  0  0  0  0  0  0  0  0  0
  9 10  1  0
 10 11  1  0
 11 12  1  0
 12 13  2  0
 13 14  1  0
 13 15  1  0
 15 16  1  0
 15 17  2  0
 17 18  1  0
 18 19  2  0
 19 20  1  0
 20  1  1  0
  1  2  2  0
  2  3  1  0
  3  4  2  0
  4 22  1  0
 22 23  2  0
 22 24  1  0
 24 25  1  0
 25 26  1  0
 26 27  1  0
 27 30  1  0
 30 31  1  0
 31 32  1  0
 27 28  1  0
 28 29  1  0
  4  5  1  0
  5  6  2  0
  5  7  1  0
 20 10  2  0
  7  2  1  0
 19 12  1  0
 29 24  1  0
 32 30  1  0
  9 21  1  0
  7  8  1  0
M  CHG 1  11  -1
M  CHG 1  16  -1
M  END
> <UniqueID>
86

> <SMILES>
C=c1[nH]/c(=C/c2c(O)[n-]c3c(C)c([O-])ccc23)cc1C(=O)N1CCN(C2CC2)CC1

> <Energy>
407.81182750686406

> <Genealogy>
C=c1[nH]c(=Cc2c(O)[n-]c3c(C)c([O-])ccc23)cc1C(=O)N1CCN(C2CC2)CC1 (protonated)
C=c1[nH]/c(=C/c2c(O)[n-]c3c(C)c([O-])ccc23)cc1C(=O)N1CCN(C2CC2)CC1 (cis-trans isomerization)
C=c1[nH]/c(=C/c2c(O)[n-]c3c(C)c([O-])ccc23)cc1C(=O)N1CCN(C2CC2)CC1 (3D coordinates assigned)
C=c1[nH]/c(=C/c2c(O)[n-]c3c(C)c([O-])ccc23)cc1C(=O)N1CCN(C2CC2)CC1 (nonaromatic ring conformer: 407.81182750686406 kcal/mol)

> <smiles>
C=c1[nH]c(=Cc2c(O)[nH]c3c(C)c(O)ccc23)cc1C(=O)N1CCN(C2CC2)CC1

> <score_type>
oracle

> <origin>
adg

> <m_score__min__energy>
-14.449999999999999

> <m_primary>
energy

> <minimizedAffinity>
-8.09437

> <minimizedRMSD>
0.85147

> <CNNscore>
0.4255500436

> <CNNaffinity>
6.7588162422

> <CNN_VS>
2.8762145042

> <CNNaffinity_variance>
0.0017392441

$$$$
2:0


 37 40  0  0  0  0  0  0  0  0999 V2000
   58.8657   32.2222   48.8252 C   0  0  0  0  0  0  0  0  0  0  0  0
   59.8085   29.3987   48.8695 C   0  0  0  0  0  0  0  0  0  0  0  0
   59.5158   30.0413   47.7235 C   0  0  0  0  0  0  0  0  0  0  0  0
   59.6726   29.5327   46.4306 C   0  0  0  0  0  0  0  0  0  0  0  0
   59.9892   28.2968   45.9911 C   0  0  0  0  0  0  0  0  0  0  0  0
   59.4006   30.5738   45.5732 C   0  0  0  0  0  0  0  0  0  0  0  0
   59.0070   31.6697   46.3347 C   0  0  0  0  0  0  0  0  0  0  0  0
   59.1044   31.3429   47.6615 N   0  0  0  0  0  0  0  0  0  0  0  0
   59.0903   27.1336   45.9767 C   0  0  0  0  0  0  0  0  0  0  0  0
   59.5004   25.8721   46.1892 N   0  0  0  0  0  0  0  0  0  0  0  0
   58.3836   25.1411   45.9779 C   0  0  0  0  0  0  0  0  0  0  0  0
   58.3607   23.8894   46.0989 O   0  0  0  0  0  0  0  0  0  0  0  0
   57.2970   25.8572   45.6159 N   0  0  0  0  0  0  0  0  0  0  0  0
   57.7652   27.1162   45.6054 C   0  0  0  0  0  0  0  0  0  0  0  0
   57.0039   28.2202   45.2389 O   0  0  0  0  0  0  0  0  0  0  0  0
   58.6231   33.0383   45.7230 C   0  0  0  0  0  0  0  0  0  0  0  0
   58.2556   32.8560   44.2366 C   0  0  0  0  0  0  0  0  0  0  0  0
   57.3811   33.6288   46.4399 C   0  0  0  0  0  0  0  0  0  0  0  0
   59.7574   34.0790   45.8736 C   0  0  0  0  0  0  0  0  0  0  0  0
   60.1276   32.5082   49.6091 C   0  0  0  0  0  0  0  0  0  0  0  0
   61.2651   33.0789   49.0130 C   0  0  0  0  0  0  0  0  0  0  0  0
   62.4116   33.3305   49.7696 C   0  0  0  0  0  0  0  0  0  0  0  0
   62.4498   33.0298   51.1441 C   0  0  0  0  0  0  0  0  0  0  0  0
   61.2917   32.5004   51.7457 C   0  0  0  0  0  0  0  0  0  0  0  0
   60.1452   32.2516   50.9866 C   0  0  0  0  0  0  0  0  0  0  0  0
   63.7037   33.2791   51.9185 C   0  0  0  0  0  0  0  0  0  0  0  0
   63.8837   34.4314   52.4025 O   0  0  0  0  0  0  0  0  0  0  0  0
   64.7168   32.2456   52.0977 N   0  0  0  0  0  0  0  0  0  0  0  0
   65.4960   32.0217   50.8619 C   0  0  0  0  0  0  0  0  0  0  0  0
   66.4267   33.1940   50.5481 C   0  0  0  0  0  0  0  0  0  0  0  0
   67.2951   33.4764   51.6968 N   0  0  0  0  0  0  0  0  0  0  0  0
   68.6214   34.0099   51.4665 C   0  0  0  0  0  0  0  0  0  0  0  0
   69.4921   34.4847   52.5919 C   0  0  0  0  0  0  0  0  0  0  0  0
   69.0766   34.0860   50.2923 O   0  0  0  0  0  0  0  0  0  0  0  0
   66.6593   33.5915   53.0175 C   0  0  0  0  0  0  0  0  0  0  0  0
   65.6185   32.4765   53.2521 C   0  0  0  0  0  0  0  0  0  0  0  0
   65.4450   32.0442   51.4665 H   0  0  0  0  0  0  0  0  0  0  0  0
  2  3  2  0
  3  4  1  0
  4  5  2  0
  5  9  1  0
  9 10  1  0
 10 11  1  0
 11 12  2  0
 11 13  1  0
 13 14  1  0
 14 15  1  0
  4  6  1  0
  6  7  2  0
  7 16  1  0
 16 17  1  0
 16 18  1  0
 16 19  1  0
  7  8  1  0
  8  1  1  0
  1 20  1  0
 20 21  2  0
 21 22  1  0
 22 23  2  0
 23 26  1  0
 26 27  2  0
 26 28  1  0
 28 29  1  0
 29 30  1  0
 30 31  1  0
 31 32  1  0
 32 33  1  0
 32 34  2  0
 31 35  1  0
 35 36  1  0
 23 24  1  0
 24 25  2  0
  8  3  1  0
 25 20  1  0
 14  9  2  0
 36 28  1  0
 28 37  1  0
M  CHG 1  10  -1
M  CHG 1  13  -1
M  CHG 1  15  -1
M  CHG 1  28   1
M  END
> <UniqueID>
2

> <SMILES>
C=c1c(=Cc2[n-]c(=O)[n-]c2[O-])cc(C(C)(C)C)n1Cc1ccc(C(=O)[NH+]2CCN(C(C)=O)CC2)cc1

> <Energy>
154.4612766705801

> <Genealogy>
C=c1c(=Cc2[n-]c(=O)[n-]c2[O-])cc(C(C)(C)C)n1Cc1ccc(C(=O)[NH+]2CCN(C(C)=O)CC2)cc1 (protonated)
C=c1c(=Cc2[n-]c(=O)[n-]c2[O-])cc(C(C)(C)C)n1Cc1ccc(C(=O)[NH+]2CCN(C(C)=O)CC2)cc1 (3D coordinates assigned)
C=c1c(=Cc2[n-]c(=O)[n-]c2[O-])cc(C(C)(C)C)n1Cc1ccc(C(=O)[NH+]2CCN(C(C)=O)CC2)cc1 (nonaromatic ring conformer: 154.4612766705801 kcal/mol)

> <smiles>
C=c1c(=Cc2[nH]c(=O)[nH]c2O)cc(C(C)(C)C)n1Cc1ccc(C(=O)N2CCN(C(C)=O)CC2)cc1

> <score_type>
oracle

> <origin>
adg

> <m_score__min__energy>
-15.859999999999999

> <m_primary>
energy

> <minimizedAffinity>
-8.21113

> <minimizedRMSD>
1.39037

> <CNNscore>
0.5758620501

> <CNNaffinity>
7.4714241028

> <CNN_VS>
4.3025097847

> <CNNaffinity_variance>
0.0555690043

$$$$
18:0


 22 24  0  0  0  0  0  0  0  0999 V2000
   57.2090   31.3948   44.6054 C   0  0  0  0  0  0  0  0  0  0  0  0
   58.2190   32.2393   45.3121 C   0  0  0  0  0  0  0  0  0  0  0  0
   58.4923   33.5727   45.0410 C   0  0  0  0  0  0  0  0  0  0  0  0
   59.5183   34.1005   45.8352 C   0  0  0  0  0  0  0  0  0  0  0  0
   60.0606   33.1770   46.7301 C   0  0  0  0  0  0  0  0  0  0  0  0
   59.2548   31.7108   46.5243 S   0  0  0  0  0  0  0  0  0  0  0  0
   61.1519   33.4004   47.7022 C   0  0  0  0  0  0  0  0  0  0  0  0
   60.8967   33.7320   49.0452 C   0  0  0  0  0  0  0  0  0  0  0  0
   61.9675   33.9311   49.9192 C   0  0  0  0  0  0  0  0  0  0  0  0
   63.2770   33.8022   49.4568 C   0  0  0  0  0  0  0  0  0  0  0  0
   63.4983   33.4720   48.1197 C   0  0  0  0  0  0  0  0  0  0  0  0
   62.4436   33.2816   47.2835 N   0  0  0  0  0  0  0  0  0  0  0  0
   57.0228   30.1323   45.3097 N   0  0  0  0  0  0  0  0  0  0  0  0
   57.6056   28.5806   43.6637 O   0  0  0  0  0  0  0  0  0  0  0  0
   57.6024   28.8938   44.8843 C   0  0  0  0  0  0  0  0  0  0  0  0
   58.1998   27.9797   45.8691 C   0  0  0  0  0  0  0  0  0  0  0  0
   59.4221   28.1500   46.4041 N   0  0  0  0  0  0  0  0  0  0  0  0
   59.5486   27.0924   47.2361 C   0  0  0  0  0  0  0  0  0  0  0  0
   60.5786   26.8971   47.9317 O   0  0  0  0  0  0  0  0  0  0  0  0
   58.4848   26.2616   47.2632 N   0  0  0  0  0  0  0  0  0  0  0  0
   57.6399   26.8365   46.3928 C   0  0  0  0  0  0  0  0  0  0  0  0
   56.3853   26.3244   46.0855 O   0  0  0  0  0  0  0  0  0  0  0  0
 14 15  2  0
 15 13  1  0
 13  1  1  0
  1  2  1  0
  2  3  2  0
  3  4  1  0
  4  5  2  0
  5  7  1  0
  7  8  2  0
  8  9  1  0
  9 10  2  0
 10 11  1  0
 11 12  2  0
  5  6  1  0
 15 16  1  0
 16 17  1  0
 17 18  1  0
 18 19  2  0
 18 20  1  0
 20 21  1  0
 21 22  1  0
  6  2  1  0
 21 16  2  0
 12  7  1  0
M  CHG 1  13  -1
M  CHG 1  17  -1
M  CHG 1  20  -1
M  CHG 1  22  -1
M  END
> <UniqueID>
16

> <SMILES>
O=C([N-]Cc1ccc(-c2ccccn2)s1)c1[n-]c(=O)[n-]c1[O-]

> <Energy>
86.35812999381284

> <Genealogy>
O=C([N-]Cc1ccc(-c2ccccn2)s1)c1[n-]c(=O)[n-]c1[O-] (protonated)
O=C([N-]Cc1ccc(-c2ccccn2)s1)c1[n-]c(=O)[n-]c1[O-] (3D coordinates assigned)
O=C([N-]Cc1ccc(-c2ccccn2)s1)c1[n-]c(=O)[n-]c1[O-] (optimized conformer: 86.35812999381284 kcal/mol)

> <smiles>
O=C(NCc1ccc(-c2ccccn2)s1)c1[nH]c(=O)[nH]c1O

> <score_type>
oracle

> <origin>
adg

> <m_score__min__energy>
-16.850000000000001

> <m_primary>
energy

> <minimizedAffinity>
-7.02638

> <minimizedRMSD>
1.23761

> <CNNscore>
0.7761064768

> <CNNaffinity>
6.6316514015

> <CNN_VS>
5.1468677521

> <CNNaffinity_variance>
0.2476965040

$$$$
22:0


 36 39  0  0  0  0  0  0  0  0999 V2000
   59.4903   30.1166   47.7812 C   0  0  0  0  0  0  0  0  0  0  0  0
   58.9352   30.1779   48.9099 O   0  0  0  0  0  0  0  0  0  0  0  0
   60.8294   30.6065   47.6019 N   0  0  0  0  0  0  0  0  0  0  0  0
   61.2962   30.3806   46.7650 H   0  0  0  0  0  0  0  0  0  0  0  0
   57.1279   29.2512   43.6347 C   0  0  0  0  0  0  0  0  0  0  0  0
   57.8126   29.0317   44.7696 C   0  0  0  0  0  0  0  0  0  0  0  0
   58.0889   27.7873   45.3603 C   0  0  0  0  0  0  0  0  0  0  0  0
   57.9161   26.5322   44.8996 C   0  0  0  0  0  0  0  0  0  0  0  0
   58.6620   28.0608   46.5891 C   0  0  0  0  0  0  0  0  0  0  0  0
   58.7935   29.4307   46.6753 C   0  0  0  0  0  0  0  0  0  0  0  0
   58.2512   30.0265   45.5837 N   0  0  0  0  0  0  0  0  0  0  0  0
   58.0982   31.4695   45.3621 C   0  0  0  0  0  0  0  0  0  0  0  0
   57.4020   25.4027   45.6849 C   0  0  0  0  0  0  0  0  0  0  0  0
   58.0761   24.2548   45.8759 N   0  0  0  0  0  0  0  0  0  0  0  0
   57.1852   23.4741   46.5248 C   0  0  0  0  0  0  0  0  0  0  0  0
   57.4551   22.3030   46.8967 O   0  0  0  0  0  0  0  0  0  0  0  0
   55.9775   24.0416   46.7307 N   0  0  0  0  0  0  0  0  0  0  0  0
   56.1264   25.2575   46.1817 C   0  0  0  0  0  0  0  0  0  0  0  0
   55.1104   26.2013   46.1078 O   0  0  0  0  0  0  0  0  0  0  0  0
   61.5292   31.4070   48.5709 C   0  0  0  0  0  0  0  0  0  0  0  0
   61.9423   32.7016   48.2235 C   0  0  0  0  0  0  0  0  0  0  0  0
   62.6201   33.5014   49.1451 C   0  0  0  0  0  0  0  0  0  0  0  0
   62.8977   33.0207   50.4337 C   0  0  0  0  0  0  0  0  0  0  0  0
   62.4448   31.7434   50.8002 C   0  0  0  0  0  0  0  0  0  0  0  0
   61.7627   30.9433   49.8780 C   0  0  0  0  0  0  0  0  0  0  0  0
   63.6309   33.8710   51.3970 C   0  0  0  0  0  0  0  0  0  0  0  0
   63.5158   35.1250   51.3073 O   0  0  0  0  0  0  0  0  0  0  0  0
   64.4960   33.3023   52.4025 N   0  0  0  0  0  0  0  0  0  0  0  0
   64.8947   34.0863   53.5740 C   0  0  0  0  0  0  0  0  0  0  0  0
   66.3877   34.4396   53.4833 C   0  0  0  0  0  0  0  0  0  0  0  0
   67.2007   33.3814   52.8279 N   0  0  0  0  0  0  0  0  0  0  0  0
   66.5871   32.0342   52.8189 C   0  0  0  0  0  0  0  0  0  0  0  0
   65.1958   32.0311   52.1656 C   0  0  0  0  0  0  0  0  0  0  0  0
   67.9393   33.7562   51.5912 C   0  0  0  0  0  0  0  0  0  0  0  0
   69.4728   33.6642   51.7134 C   0  0  0  0  0  0  0  0  0  0  0  0
   67.4403   32.9171   50.4087 C   0  0  0  0  0  0  0  0  0  0  0  0
  5  6  2  0
  6  7  1  0
  7  8  2  0
  8 13  1  0
 13 14  1  0
 14 15  1  0
 15 16  2  0
 15 17  1  0
 17 18  1  0
 18 19  1  0
  7  9  1  0
  9 10  2  0
 10  1  1  0
  1  2  2  0
  1  3  1  0
  3 20  1  0
 20 21  2  0
 21 22  1  0
 22 23  2  0
 23 26  1  0
 26 27  2  0
 26 28  1  0
 28 29  1  0
 29 30  1  0
 30 31  1  0
 31 34  1  0
 34 35  1  0
 34 36  1  0
 31 32  1  0
 32 33  1  0
 23 24  1  0
 24 25  2  0
 10 11  1  0
 11 12  1  0
 11  6  1  0
 18 13  2  0
 25 20  1  0
 33 28  1  0
  3  4  1  0
M  CHG 1  14  -1
M  CHG 1  17  -1
M  CHG 1  19  -1
M  END
> <UniqueID>
20

> <SMILES>
C=c1c(=Cc2[n-]c(=O)[n-]c2[O-])cc(C(=O)Nc2ccc(C(=O)N3CCN(C(C)C)CC3)cc2)n1C

> <Energy>
158.80413704528905

> <Genealogy>
C=c1c(=Cc2[n-]c(=O)[n-]c2[O-])cc(C(=O)Nc2ccc(C(=O)N3CCN(C(C)C)CC3)cc2)n1C (protonated)
C=c1c(=Cc2[n-]c(=O)[n-]c2[O-])cc(C(=O)Nc2ccc(C(=O)N3CCN(C(C)C)CC3)cc2)n1C (3D coordinates assigned)
C=c1c(=Cc2[n-]c(=O)[n-]c2[O-])cc(C(=O)Nc2ccc(C(=O)N3CCN(C(C)C)CC3)cc2)n1C (nonaromatic ring conformer: 158.80413704528905 kcal/mol)

> <smiles>
C=c1c(=Cc2[nH]c(=O)[nH]c2O)cc(C(=O)Nc2ccc(C(=O)N3CCN(C(C)C)CC3)cc2)n1C

> <score_type>
oracle

> <origin>
adg

> <m_score__min__energy>
-17.940000000000001

> <m_primary>
energy

> <minimizedAffinity>
-7.89325

> <minimizedRMSD>
1.02010

> <CNNscore>
0.1228533983

> <CNNaffinity>
6.4589424133

> <CNN_VS>
0.7935030460

> <CNNaffinity_variance>
0.1437396258

$$$$
36:0


 32 35  0  0  0  0  0  0  0  0999 V2000
   57.4124   28.5671   54.4923 C   0  0  0  0  0  0  0  0  0  0  0  0
   57.9598   27.4040   53.9333 C   0  0  0  0  0  0  0  0  0  0  0  0
   58.9624   26.6889   54.6119 C   0  0  0  0  0  0  0  0  0  0  0  0
   59.4123   27.1549   55.8579 C   0  0  0  0  0  0  0  0  0  0  0  0
   58.8733   28.3154   56.4154 C   0  0  0  0  0  0  0  0  0  0  0  0
   57.8780   29.0240   55.7358 C   0  0  0  0  0  0  0  0  0  0  0  0
   57.3882   30.1681   56.2759 F   0  0  0  0  0  0  0  0  0  0  0  0
   54.4898   28.0845   54.5887 C   0  0  0  0  0  0  0  0  0  0  0  0
   55.0380   29.0918   53.8917 C   0  0  0  0  0  0  0  0  0  0  0  0
   54.3772   29.9815   53.0285 C   0  0  0  0  0  0  0  0  0  0  0  0
   53.0650   30.2084   52.8269 C   0  0  0  0  0  0  0  0  0  0  0  0
   55.3682   30.6713   52.3492 C   0  0  0  0  0  0  0  0  0  0  0  0
   56.5753   30.2462   52.8621 C   0  0  0  0  0  0  0  0  0  0  0  0
   57.9105   30.7601   52.4160 C   0  0  0  0  0  0  0  0  0  0  0  0
   56.3784   29.2836   53.7920 N   0  0  0  0  0  0  0  0  0  0  0  0
   52.4303   30.5135   51.5349 C   0  0  0  0  0  0  0  0  0  0  0  0
   52.3999   29.6786   50.4784 N   0  0  0  0  0  0  0  0  0  0  0  0
   51.5773   30.3043   49.6096 C   0  0  0  0  0  0  0  0  0  0  0  0
   51.3006   29.8301   48.4767 O   0  0  0  0  0  0  0  0  0  0  0  0
   51.0559   31.4667   50.0602 N   0  0  0  0  0  0  0  0  0  0  0  0
   51.5976   31.5767   51.2837 C   0  0  0  0  0  0  0  0  0  0  0  0
   51.3297   32.6236   52.1559 O   0  0  0  0  0  0  0  0  0  0  0  0
   59.5343   25.5003   54.0356 N   0  0  0  0  0  0  0  0  0  0  0  0
   60.9526   25.4425   53.6842 C   0  0  0  0  0  0  0  0  0  0  0  0
   61.4999   24.0573   54.0216 C   0  0  0  0  0  0  0  0  0  0  0  0
   60.6950   22.9927   53.3618 N   0  0  0  0  0  0  0  0  0  0  0  0
   59.2859   23.0710   53.8328 C   0  0  0  0  0  0  0  0  0  0  0  0
   58.6763   24.4389   53.5131 C   0  0  0  0  0  0  0  0  0  0  0  0
   61.3121   21.6217   53.4588 C   0  0  0  0  0  0  0  0  0  0  0  0
   60.3146   20.6005   54.0697 C   0  0  0  0  0  0  0  0  0  0  0  0
   61.6498   21.0969   52.0381 C   0  0  0  0  0  0  0  0  0  0  0  0
   62.6053   21.6065   54.3131 C   0  0  0  0  0  0  0  0  0  0  0  0
  8  9  2  0
  9 10  1  0
 10 11  2  0
 11 16  1  0
 16 17  1  0
 17 18  1  0
 18 19  2  0
 18 20  1  0
 20 21  1  0
 21 22  1  0
 10 12  1  0
 12 13  2  0
 13 14  1  0
 13 15  1  0
 15  1  1  0
  1  2  2  0
  2  3  1  0
  3 23  1  0
 23 24  1  0
 24 25  1  0
 25 26  1  0
 26 29  1  0
 29 30  1  0
 29 31  1  0
 29 32  1  0
 26 27  1  0
 27 28  1  0
  3  4  2  0
  4  5  1  0
  5  6  2  0
  6  7  1  0
 15  9  1  0
  6  1  1  0
 21 16  2  0
 28 23  1  0
M  CHG 1  17  -1
M  CHG 1  20  -1
M  CHG 1  22  -1
M  END
> <UniqueID>
33

> <SMILES>
C=c1c(=Cc2[n-]c(=O)[n-]c2[O-])cc(C)n1-c1cc(N2CCN(C(C)(C)C)CC2)ccc1F

> <Energy>
147.53313750211092

> <Genealogy>
C=c1c(=Cc2[n-]c(=O)[n-]c2[O-])cc(C)n1-c1cc(N2CCN(C(C)(C)C)CC2)ccc1F (protonated)
C=c1c(=Cc2[n-]c(=O)[n-]c2[O-])cc(C)n1-c1cc(N2CCN(C(C)(C)C)CC2)ccc1F (3D coordinates assigned)
C=c1c(=Cc2[n-]c(=O)[n-]c2[O-])cc(C)n1-c1cc(N2CCN(C(C)(C)C)CC2)ccc1F (nonaromatic ring conformer: 147.53313750211092 kcal/mol)

> <smiles>
C=c1c(=Cc2[nH]c(=O)[nH]c2O)cc(C)n1-c1cc(N2CCN(C(C)(C)C)CC2)ccc1F

> <score_type>
oracle

> <origin>
adg

> <m_score__min__energy>
-17.449999999999999

> <m_primary>
energy

> <minimizedAffinity>
-4.30371

> <minimizedRMSD>
0.96114

> <CNNscore>
0.1095681787

> <CNNaffinity>
4.8083109856

> <CNN_VS>
0.5268378854

> <CNNaffinity_variance>
0.5508007407

$$$$
40:0


 34 37  0  0  0  0  0  0  0  0999 V2000
   57.4804   31.3019   52.1968 C   0  0  0  0  0  0  0  0  0  0  0  0
   57.2277   32.5295   52.3473 O   0  0  0  0  0  0  0  0  0  0  0  0
   53.6065   27.7749   54.2428 C   0  0  0  0  0  0  0  0  0  0  0  0
   54.4987   28.5128   53.5568 C   0  0  0  0  0  0  0  0  0  0  0  0
   55.8628   28.2620   53.7972 C   0  0  0  0  0  0  0  0  0  0  0  0
   56.8613   29.1215   53.3191 C   0  0  0  0  0  0  0  0  0  0  0  0
   58.3038   28.7796   53.5974 C   0  0  0  0  0  0  0  0  0  0  0  0
   56.4890   30.2974   52.6361 C   0  0  0  0  0  0  0  0  0  0  0  0
   55.1402   30.5168   52.3267 C   0  0  0  0  0  0  0  0  0  0  0  0
   54.1332   29.6036   52.7034 C   0  0  0  0  0  0  0  0  0  0  0  0
   52.8904   29.8260   52.2074 C   0  0  0  0  0  0  0  0  0  0  0  0
   51.9423   30.8579   52.6725 C   0  0  0  0  0  0  0  0  0  0  0  0
   51.5930   31.0176   53.9613 N   0  0  0  0  0  0  0  0  0  0  0  0
   50.7990   32.1110   53.9364 C   0  0  0  0  0  0  0  0  0  0  0  0
   50.2532   32.5760   54.9709 O   0  0  0  0  0  0  0  0  0  0  0  0
   50.6425   32.6711   52.7173 N   0  0  0  0  0  0  0  0  0  0  0  0
   51.3820   31.8731   51.9293 C   0  0  0  0  0  0  0  0  0  0  0  0
   51.5646   32.0896   50.5700 O   0  0  0  0  0  0  0  0  0  0  0  0
   58.8024   30.8868   51.6153 C   0  0  0  0  0  0  0  0  0  0  0  0
   59.2720   31.8950   50.6003 C   0  0  0  0  0  0  0  0  0  0  0  0
   60.2701   32.8194   50.9392 C   0  0  0  0  0  0  0  0  0  0  0  0
   60.6867   33.7750   50.0111 C   0  0  0  0  0  0  0  0  0  0  0  0
   60.1130   33.8166   48.7377 C   0  0  0  0  0  0  0  0  0  0  0  0
   59.1086   32.8974   48.3764 C   0  0  0  0  0  0  0  0  0  0  0  0
   58.6862   31.9480   49.3252 C   0  0  0  0  0  0  0  0  0  0  0  0
   58.4754   32.9278   47.0321 C   0  0  0  0  0  0  0  0  0  0  0  0
   58.2807   34.0472   46.4792 O   0  0  0  0  0  0  0  0  0  0  0  0
   58.1051   31.7105   46.3361 N   0  0  0  0  0  0  0  0  0  0  0  0
   59.2599   30.7899   46.2614 C   0  0  0  0  0  0  0  0  0  0  0  0
   59.0295   29.6774   45.2169 C   0  0  0  0  0  0  0  0  0  0  0  0
   57.6543   29.5424   44.9200 O   0  0  0  0  0  0  0  0  0  0  0  0
   57.1853   30.7055   44.2588 C   0  0  0  0  0  0  0  0  0  0  0  0
   57.5933   32.0091   44.9833 C   0  0  0  0  0  0  0  0  0  0  0  0
   57.3137   31.9622   45.8074 H   0  0  0  0  0  0  0  0  0  0  0  0
  3  4  2  0
  4  5  1  0
  5  6  2  0
  6  7  1  0
  6  8  1  0
  8  1  1  0
  1  2  2  0
  1 19  1  0
 19 20  1  0
 20 21  2  0
 21 22  1  0
 22 23  2  0
 23 24  1  0
 24 26  1  0
 26 27  2  0
 26 28  1  0
 28 29  1  0
 29 30  1  0
 30 31  1  0
 31 32  1  0
 32 33  1  0
 24 25  2  0
  8  9  2  0
  9 10  1  0
 10 11  2  0
 11 12  1  0
 12 13  1  0
 13 14  1  0
 14 15  2  0
 14 16  1  0
 16 17  1  0
 17 18  1  0
 10  4  1  0
 17 12  2  0
 25 20  1  0
 33 28  1  0
 28 34  1  0
M  CHG 1  13  -1
M  CHG 1  16  -1
M  CHG 1  18  -1
M  CHG 1  28   1
M  END
> <UniqueID>
37

> <SMILES>
C=c1cc(C)c(C(=O)Cc2cccc(C(=O)[NH+]3CCOCC3)c2)cc1=Cc1[n-]c(=O)[n-]c1[O-]

> <Energy>
129.32052308020508

> <Genealogy>
C=c1cc(C)c(C(=O)Cc2cccc(C(=O)[NH+]3CCOCC3)c2)cc1=Cc1[n-]c(=O)[n-]c1[O-] (protonated)
C=c1cc(C)c(C(=O)Cc2cccc(C(=O)[NH+]3CCOCC3)c2)cc1=Cc1[n-]c(=O)[n-]c1[O-] (3D coordinates assigned)
C=c1cc(C)c(C(=O)Cc2cccc(C(=O)[NH+]3CCOCC3)c2)cc1=Cc1[n-]c(=O)[n-]c1[O-] (nonaromatic ring conformer: 129.32052308020508 kcal/mol)

> <smiles>
C=c1cc(C)c(C(=O)Cc2cccc(C(=O)N3CCOCC3)c2)cc1=Cc1[nH]c(=O)[nH]c1O

> <score_type>
oracle

> <origin>
adg

> <m_score__min__energy>
-17.870000000000001

> <m_primary>
energy

> <minimizedAffinity>
-8.62184

> <minimizedRMSD>
0.66447

> <CNNscore>
0.1733507663

> <CNNaffinity>
5.6580986977

> <CNN_VS>
0.9808357358

> <CNNaffinity_variance>
0.1682518721

$$$$
48:0


 29 32  0  0  0  0  0  0  0  0999 V2000
   56.5243   28.6671   44.9359 C   0  0  0  0  0  0  0  0  0  0  0  0
   57.8114   28.2760   44.9595 C   0  0  0  0  0  0  0  0  0  0  0  0
   58.2729   26.9489   44.9418 C   0  0  0  0  0  0  0  0  0  0  0  0
   57.6291   25.7903   44.6965 C   0  0  0  0  0  0  0  0  0  0  0  0
   59.6272   27.0010   45.2132 C   0  0  0  0  0  0  0  0  0  0  0  0
   59.9644   28.3334   45.2995 C   0  0  0  0  0  0  0  0  0  0  0  0
   61.3553   28.8256   45.5711 C   0  0  0  0  0  0  0  0  0  0  0  0
   58.8666   29.1181   45.1600 N   0  0  0  0  0  0  0  0  0  0  0  0
   57.0551   24.8941   45.7157 C   0  0  0  0  0  0  0  0  0  0  0  0
   57.7432   23.9348   46.3682 N   0  0  0  0  0  0  0  0  0  0  0  0
   56.8873   23.5365   47.3328 C   0  0  0  0  0  0  0  0  0  0  0  0
   57.1749   22.6325   48.1632 O   0  0  0  0  0  0  0  0  0  0  0  0
   55.7107   24.1992   47.3523 N   0  0  0  0  0  0  0  0  0  0  0  0
   55.8390   25.0604   46.3300 C   0  0  0  0  0  0  0  0  0  0  0  0
   54.8644   25.9842   45.9618 O   0  0  0  0  0  0  0  0  0  0  0  0
   58.8655   30.5914   45.2490 C   0  0  0  0  0  0  0  0  0  0  0  0
   58.9665   31.0514   46.6865 C   0  0  0  0  0  0  0  0  0  0  0  0
   59.0225   30.1011   47.7246 C   0  0  0  0  0  0  0  0  0  0  0  0
   59.0668   30.5096   49.0597 C   0  0  0  0  0  0  0  0  0  0  0  0
   59.0570   31.8766   49.3864 C   0  0  0  0  0  0  0  0  0  0  0  0
   59.0264   32.8283   48.3485 C   0  0  0  0  0  0  0  0  0  0  0  0
   58.9846   32.4224   47.0095 C   0  0  0  0  0  0  0  0  0  0  0  0
   58.9548   33.3899   46.0122 O   0  0  0  0  0  0  0  0  0  0  0  0
   59.0659   32.2961   50.7649 N   0  0  0  0  0  0  0  0  0  0  0  0
   57.9138   31.9359   51.6120 C   0  0  0  0  0  0  0  0  0  0  0  0
   58.0999   32.3400   53.0818 C   0  0  0  0  0  0  0  0  0  0  0  0
   58.7782   33.5707   53.2002 O   0  0  0  0  0  0  0  0  0  0  0  0
   60.0999   33.4060   52.7346 C   0  0  0  0  0  0  0  0  0  0  0  0
   60.1097   33.2404   51.2148 C   0  0  0  0  0  0  0  0  0  0  0  0
  1  2  2  0
  2  3  1  0
  3  4  2  0
  4  9  1  0
  9 10  1  0
 10 11  1  0
 11 12  2  0
 11 13  1  0
 13 14  1  0
 14 15  1  0
  3  5  1  0
  5  6  2  0
  6  7  1  0
  6  8  1  0
  8 16  1  0
 16 17  1  0
 17 18  2  0
 18 19  1  0
 19 20  2  0
 20 24  1  0
 24 25  1  0
 25 26  1  0
 26 27  1  0
 27 28  1  0
 28 29  1  0
 20 21  1  0
 21 22  2  0
 22 23  1  0
  8  2  1  0
 22 17  1  0
 14  9  2  0
 29 24  1  0
M  CHG 1  10  -1
M  CHG 1  13  -1
M  CHG 1  15  -1
M  CHG 1  23  -1
M  END
> <UniqueID>
44

> <SMILES>
C=c1/c(=C\c2[n-]c(=O)[n-]c2[O-])cc(C)n1Cc1ccc(N2CCOCC2)cc1[O-]

> <Energy>
130.10692664249808

> <Genealogy>
C=c1c(=Cc2[n-]c(=O)[n-]c2[O-])cc(C)n1Cc1ccc(N2CCOCC2)cc1[O-] (protonated)
C=c1/c(=C\c2[n-]c(=O)[n-]c2[O-])cc(C)n1Cc1ccc(N2CCOCC2)cc1[O-] (cis-trans isomerization)
C=c1/c(=C\c2[n-]c(=O)[n-]c2[O-])cc(C)n1Cc1ccc(N2CCOCC2)cc1[O-] (3D coordinates assigned)
C=c1/c(=C\c2[n-]c(=O)[n-]c2[O-])cc(C)n1Cc1ccc(N2CCOCC2)cc1[O-] (nonaromatic ring conformer: 130.10692664249808 kcal/mol)

> <smiles>
C=c1c(=Cc2[nH]c(=O)[nH]c2O)cc(C)n1Cc1ccc(N2CCOCC2)cc1O

> <score_type>
oracle

> <origin>
adg

> <m_score__min__energy>
-16.960000000000001

> <m_primary>
energy

> <minimizedAffinity>
-6.20616

> <minimizedRMSD>
0.63668

> <CNNscore>
0.2488562763

> <CNNaffinity>
6.6033897400

> <CNN_VS>
1.6432949305

> <CNNaffinity_variance>
0.1839090586

$$$$
69:0


 40 44  0  0  0  0  0  0  0  0999 V2000
   55.9795   27.9744   55.2476 C   0  0  0  0  0  0  0  0  0  0  0  0
   56.3417   28.9088   54.3521 C   0  0  0  0  0  0  0  0  0  0  0  0
   55.5341   29.4822   53.3559 C   0  0  0  0  0  0  0  0  0  0  0  0
   54.2915   29.1752   52.9317 C   0  0  0  0  0  0  0  0  0  0  0  0
   56.2811   30.4999   52.7911 C   0  0  0  0  0  0  0  0  0  0  0  0
   57.5183   30.4811   53.4015 C   0  0  0  0  0  0  0  0  0  0  0  0
   57.5597   29.5185   54.3571 N   0  0  0  0  0  0  0  0  0  0  0  0
   53.2451   30.1415   52.5697 C   0  0  0  0  0  0  0  0  0  0  0  0
   53.0561   30.6028   51.3212 N   0  0  0  0  0  0  0  0  0  0  0  0
   51.9459   31.3635   51.4346 C   0  0  0  0  0  0  0  0  0  0  0  0
   51.4553   31.9956   50.4633 O   0  0  0  0  0  0  0  0  0  0  0  0
   51.3993   31.3902   52.6702 N   0  0  0  0  0  0  0  0  0  0  0  0
   52.2259   30.5979   53.3743 C   0  0  0  0  0  0  0  0  0  0  0  0
   52.0447   30.2820   54.7174 O   0  0  0  0  0  0  0  0  0  0  0  0
   51.3189   30.6405   55.1892 H   0  0  0  0  0  0  0  0  0  0  0  0
   58.6204   31.4001   53.0475 C   0  0  0  0  0  0  0  0  0  0  0  0
   58.8482   32.4040   53.7767 O   0  0  0  0  0  0  0  0  0  0  0  0
   59.3961   31.2016   51.8488 N   0  0  0  0  0  0  0  0  0  0  0  0
   59.8474   32.3642   51.0748 C   0  0  0  0  0  0  0  0  0  0  0  0
   60.9977   31.9879   50.1230 C   0  0  0  0  0  0  0  0  0  0  0  0
   60.7120   30.7943   49.2924 N   0  0  0  0  0  0  0  0  0  0  0  0
   59.8114   29.7877   49.9081 C   0  0  0  0  0  0  0  0  0  0  0  0
   59.8178   29.8601   51.4345 C   0  0  0  0  0  0  0  0  0  0  0  0
   60.4427   30.9987   47.8405 C   0  0  0  0  0  0  0  0  0  0  0  0
   58.9509   31.2560   47.4610 C   0  0  0  0  0  0  0  0  0  0  0  0
   58.4413   32.7012   47.5507 C   0  0  0  0  0  0  0  0  0  0  0  0
   59.5743   33.8439   46.7915 S   0  0  0  0  0  0  0  0  0  0  0  0
   59.4770   33.7341   45.2937 O   0  0  0  0  0  0  0  0  0  0  0  0
   59.2383   35.2455   47.2146 O   0  0  0  0  0  0  0  0  0  0  0  0
   61.2246   33.4379   47.3112 C   0  0  0  0  0  0  0  0  0  0  0  0
   61.4778   31.9362   47.1673 C   0  0  0  0  0  0  0  0  0  0  0  0
   58.7215   29.1589   55.1889 C   0  0  0  0  0  0  0  0  0  0  0  0
   59.6601   28.2042   54.4820 C   0  0  0  0  0  0  0  0  0  0  0  0
   59.1540   26.9837   53.9960 C   0  0  0  0  0  0  0  0  0  0  0  0
   59.9828   26.0940   53.3089 C   0  0  0  0  0  0  0  0  0  0  0  0
   61.3241   26.4146   53.0878 C   0  0  0  0  0  0  0  0  0  0  0  0
   62.1272   25.5507   52.4193 F   0  0  0  0  0  0  0  0  0  0  0  0
   61.8365   27.6279   53.5515 C   0  0  0  0  0  0  0  0  0  0  0  0
   61.0137   28.5262   54.2381 C   0  0  0  0  0  0  0  0  0  0  0  0
   61.5455   29.6971   54.6633 F   0  0  0  0  0  0  0  0  0  0  0  0
  1  2  2  0
  2  3  1  0
  3  4  2  0
  4  8  1  0
  8  9  1  0
  9 10  1  0
 10 11  2  0
 10 12  1  0
 12 13  1  0
 13 14  1  0
  3  5  1  0
  5  6  2  0
  6 16  1  0
 16 17  2  0
 16 18  1  0
 18 19  1  0
 19 20  1  0
 20 21  1  0
 21 24  1  0
 24 25  1  0
 25 26  1  0
 26 27  1  0
 27 28  2  0
 27 29  2  0
 27 30  1  0
 30 31  1  0
 21 22  1  0
 22 23  1  0
  6  7  1  0
  7 32  1  0
 32 33  1  0
 33 34  2  0
 34 35  1  0
 35 36  2  0
 36 37  1  0
 36 38  1  0
 38 39  2  0
 39 40  1  0
  7  2  1  0
 39 33  1  0
 13  8  2  0
 23 18  1  0
 31 24  1  0
 14 15  1  0
M  CHG 1   9  -1
M  CHG 1  12  -1
M  END
> <UniqueID>
63

> <SMILES>
C=c1c(=Cc2[n-]c(=O)[n-]c2O)cc(C(=O)N2CCN(C3CCS(=O)(=O)CC3)CC2)n1Cc1ccc(F)cc1F

> <Energy>
158.9005716501

> <Genealogy>
C=c1c(=Cc2[n-]c(=O)[n-]c2O)cc(C(=O)N2CCN(C3CCS(=O)(=O)CC3)CC2)n1Cc1ccc(F)cc1F (protonated)
C=c1c(=Cc2[n-]c(=O)[n-]c2O)cc(C(=O)N2CCN(C3CCS(=O)(=O)CC3)CC2)n1Cc1ccc(F)cc1F (3D coordinates assigned)
C=c1c(=Cc2[n-]c(=O)[n-]c2O)cc(C(=O)N2CCN(C3CCS(=O)(=O)CC3)CC2)n1Cc1ccc(F)cc1F (nonaromatic ring conformer: 158.9005716501 kcal/mol)

> <smiles>
C=c1c(=Cc2[nH]c(=O)[nH]c2O)cc(C(=O)N2CCN(C3CCS(=O)(=O)CC3)CC2)n1Cc1ccc(F)cc1F

> <score_type>
oracle

> <origin>
adg

> <m_score__min__energy>
-14.15

> <m_primary>
energy

> <minimizedAffinity>
-7.44699

> <minimizedRMSD>
1.50939

> <CNNscore>
0.0639473498

> <CNNaffinity>
6.0154814720

> <CNN_VS>
0.3846741021

> <CNNaffinity_variance>
0.0904085711

$$$$
78:0


 29 33  0  0  0  0  0  0  0  0999 V2000
   56.3832   28.2700   45.0377 O   0  0  0  0  0  0  0  0  0  0  0  0
   57.5405   27.7837   45.1740 C   0  0  0  0  0  0  0  0  0  0  0  0
   58.5646   28.5524   45.8324 N   0  0  0  0  0  0  0  0  0  0  0  0
   58.1867   29.5223   46.8633 C   0  0  0  0  0  0  0  0  0  0  0  0
   59.2679   29.6056   47.9452 C   0  0  0  0  0  0  0  0  0  0  0  0
   60.6312   29.7013   47.3901 N   0  0  0  0  0  0  0  0  0  0  0  0
   60.9576   28.7232   46.3306 C   0  0  0  0  0  0  0  0  0  0  0  0
   59.8933   28.6857   45.2331 C   0  0  0  0  0  0  0  0  0  0  0  0
   61.2533   31.0489   47.3356 C   0  0  0  0  0  0  0  0  0  0  0  0
   60.2327   32.0536   46.8707 C   0  0  0  0  0  0  0  0  0  0  0  0
   59.5554   32.0788   45.6491 C   0  0  0  0  0  0  0  0  0  0  0  0
   58.6167   33.0991   45.4207 C   0  0  0  0  0  0  0  0  0  0  0  0
   58.3682   34.0732   46.4065 C   0  0  0  0  0  0  0  0  0  0  0  0
   59.0567   34.0343   47.6304 C   0  0  0  0  0  0  0  0  0  0  0  0
   59.9798   33.0099   47.8361 C   0  0  0  0  0  0  0  0  0  0  0  0
   60.8403   32.7472   48.9702 C   0  0  0  0  0  0  0  0  0  0  0  0
   61.0251   33.4948   50.1343 C   0  0  0  0  0  0  0  0  0  0  0  0
   62.0374   33.1007   51.0215 C   0  0  0  0  0  0  0  0  0  0  0  0
   62.8632   32.0030   50.7151 C   0  0  0  0  0  0  0  0  0  0  0  0
   62.6680   31.2755   49.5290 C   0  0  0  0  0  0  0  0  0  0  0  0
   61.6110   31.6311   48.6859 C   0  0  0  0  0  0  0  0  0  0  0  0
   57.8331   26.4138   44.6278 C   0  0  0  0  0  0  0  0  0  0  0  0
   57.3215   25.3499   45.5513 C   0  0  0  0  0  0  0  0  0  0  0  0
   57.9953   24.2300   45.8619 N   0  0  0  0  0  0  0  0  0  0  0  0
   57.1351   23.5624   46.6628 C   0  0  0  0  0  0  0  0  0  0  0  0
   57.4112   22.4464   47.1731 O   0  0  0  0  0  0  0  0  0  0  0  0
   55.9545   24.1861   46.8711 N   0  0  0  0  0  0  0  0  0  0  0  0
   56.0877   25.3135   46.1552 C   0  0  0  0  0  0  0  0  0  0  0  0
   55.1005   26.2852   46.0501 O   0  0  0  0  0  0  0  0  0  0  0  0
  1  2  2  0
  2 22  1  0
 22 23  1  0
 23 24  1  0
 24 25  1  0
 25 26  2  0
 25 27  1  0
 27 28  1  0
 28 29  1  0
  2  3  1  0
  3  4  1  0
  4  5  1  0
  5  6  1  0
  6  9  1  0
  9 10  1  0
 10 11  2  0
 11 12  1  0
 12 13  2  0
 13 14  1  0
 14 15  2  0
 15 16  1  0
 16 17  2  0
 17 18  1  0
 18 19  2  0
 19 20  1  0
 20 21  2  0
  6  7  1  0
  7  8  1  0
 28 23  2  0
  8  3  1  0
 21  9  1  0
 15 10  1  0
 21 16  1  0
M  CHG 1  24  -1
M  CHG 1  27  -1
M  CHG 1  29  -1
M  END
> <UniqueID>
72

> <SMILES>
O=C(Cc1[n-]c(=O)[n-]c1[O-])N1CCN(C2c3ccccc3-c3ccccc32)CC1

> <Energy>
118.10210972663099

> <Genealogy>
O=C(Cc1[n-]c(=O)[n-]c1[O-])N1CCN(C2c3ccccc3-c3ccccc32)CC1 (protonated)
O=C(Cc1[n-]c(=O)[n-]c1[O-])N1CCN(C2c3ccccc3-c3ccccc32)CC1 (3D coordinates assigned)
O=C(Cc1[n-]c(=O)[n-]c1[O-])N1CCN(C2c3ccccc3-c3ccccc32)CC1 (nonaromatic ring conformer: 118.10210972663099 kcal/mol)

> <smiles>
O=C(Cc1[nH]c(=O)[nH]c1O)N1CCN(C2c3ccccc3-c3ccccc32)CC1

> <score_type>
oracle

> <origin>
adg

> <m_score__min__energy>
-16.719999999999999

> <m_primary>
energy

> <minimizedAffinity>
-6.84462

> <minimizedRMSD>
0.88033

> <CNNscore>
0.2505644560

> <CNNaffinity>
6.4523024559

> <CNN_VS>
1.6167176962

> <CNNaffinity_variance>
0.0596634150

$$$$
79:0


 25 27  0  0  0  0  0  0  0  0999 V2000
   54.8343   28.2634   54.1626 C   0  0  0  0  0  0  0  0  0  0  0  0
   55.5673   29.0834   53.3882 C   0  0  0  0  0  0  0  0  0  0  0  0
   55.0882   30.3463   52.9122 C   0  0  0  0  0  0  0  0  0  0  0  0
   53.7877   30.7343   52.8705 C   0  0  0  0  0  0  0  0  0  0  0  0
   56.0419   31.2612   52.4232 C   0  0  0  0  0  0  0  0  0  0  0  0
   57.3830   30.8964   52.2678 C   0  0  0  0  0  0  0  0  0  0  0  0
   57.7649   29.5951   52.5990 C   0  0  0  0  0  0  0  0  0  0  0  0
   56.8706   28.7348   53.1520 N   0  0  0  0  0  0  0  0  0  0  0  0
   57.1702   27.8281   53.3917 H   0  0  0  0  0  0  0  0  0  0  0  0
   58.3605   31.8495   51.6983 C   0  0  0  0  0  0  0  0  0  0  0  0
   58.8360   32.7547   52.4360 O   0  0  0  0  0  0  0  0  0  0  0  0
   58.7915   31.7517   50.3262 N   0  0  0  0  0  0  0  0  0  0  0  0
   59.1553   32.9630   49.5804 C   0  0  0  0  0  0  0  0  0  0  0  0
   60.6442   32.9394   49.1922 C   0  0  0  0  0  0  0  0  0  0  0  0
   61.1767   31.5127   48.8853 C   0  0  0  0  0  0  0  0  0  0  0  0
   62.2140   31.5431   47.7563 C   0  0  0  0  0  0  0  0  0  0  0  0
   60.0366   30.5338   48.5492 C   0  0  0  0  0  0  0  0  0  0  0  0
   59.0613   30.4318   49.7329 C   0  0  0  0  0  0  0  0  0  0  0  0
   52.9144   30.7402   51.6824 C   0  0  0  0  0  0  0  0  0  0  0  0
   53.0004   29.8295   50.6964 N   0  0  0  0  0  0  0  0  0  0  0  0
   51.9646   30.1448   49.8871 C   0  0  0  0  0  0  0  0  0  0  0  0
   51.7188   29.5139   48.8262 O   0  0  0  0  0  0  0  0  0  0  0  0
   51.2102   31.1800   50.3102 N   0  0  0  0  0  0  0  0  0  0  0  0
   51.8144   31.5376   51.4533 C   0  0  0  0  0  0  0  0  0  0  0  0
   51.3506   32.5495   52.2859 O   0  0  0  0  0  0  0  0  0  0  0  0
  1  2  2  0
  2  3  1  0
  3  4  2  0
  4 19  1  0
 19 20  1  0
 20 21  1  0
 21 22  2  0
 21 23  1  0
 23 24  1  0
 24 25  1  0
  3  5  1  0
  5  6  2  0
  6 10  1  0
 10 11  2  0
 10 12  1  0
 12 13  1  0
 13 14  1  0
 14 15  1  0
 15 16  1  0
 15 17  1  0
 17 18  1  0
  6  7  1  0
  7  8  2  0
  8  2  1  0
 24 19  2  0
 18 12  1  0
  8  9  1  0
M  CHG 1   8   1
M  CHG 1  20  -1
M  CHG 1  23  -1
M  CHG 1  25  -1
M  END
> <UniqueID>
73

> <SMILES>
C=c1[nH+]cc(C(=O)N2CCC(C)CC2)c/c1=C/c1[n-]c(=O)[n-]c1[O-]

> <Energy>
99.24934512888127

> <Genealogy>
C=c1[nH+]cc(C(=O)N2CCC(C)CC2)cc1=Cc1[n-]c(=O)[n-]c1[O-] (protonated)
C=c1[nH+]cc(C(=O)N2CCC(C)CC2)c/c1=C/c1[n-]c(=O)[n-]c1[O-] (cis-trans isomerization)
C=c1[nH+]cc(C(=O)N2CCC(C)CC2)c/c1=C/c1[n-]c(=O)[n-]c1[O-] (3D coordinates assigned)
C=c1[nH+]cc(C(=O)N2CCC(C)CC2)c/c1=C/c1[n-]c(=O)[n-]c1[O-] (nonaromatic ring conformer: 99.24934512888127 kcal/mol)

> <smiles>
C=c1ncc(C(=O)N2CCC(C)CC2)cc1=Cc1[nH]c(=O)[nH]c1O

> <score_type>
oracle

> <origin>
adg

> <m_score__min__energy>
-15.529999999999999

> <m_primary>
energy

> <minimizedAffinity>
-5.67621

> <minimizedRMSD>
0.81874

> <CNNscore>
0.0752430037

> <CNNaffinity>
4.9503860474

> <CNN_VS>
0.3724819124

> <CNNaffinity_variance>
0.0238259677

$$$$
87:0


 27 29  0  0  0  0  0  0  0  0999 V2000
   59.7257   31.2593   46.5100 N   0  0  0  0  0  0  0  0  0  0  0  0
   60.7304   30.4998   46.9945 C   0  0  0  0  0  0  0  0  0  0  0  0
   61.8308   31.0003   47.8798 C   0  0  0  0  0  0  0  0  0  0  0  0
   60.6240   29.2033   46.5286 C   0  0  0  0  0  0  0  0  0  0  0  0
   59.4899   29.1650   45.7265 C   0  0  0  0  0  0  0  0  0  0  0  0
   59.0322   28.0926   45.0492 C   0  0  0  0  0  0  0  0  0  0  0  0
   58.9620   30.4591   45.7265 C   0  0  0  0  0  0  0  0  0  0  0  0
   57.8890   30.8837   45.0423 C   0  0  0  0  0  0  0  0  0  0  0  0
   58.3845   26.9324   45.6975 C   0  0  0  0  0  0  0  0  0  0  0  0
   56.9879   26.8925   45.8328 C   0  0  0  0  0  0  0  0  0  0  0  0
   56.1988   27.9217   45.3304 O   0  0  0  0  0  0  0  0  0  0  0  0
   56.3947   25.8380   46.4513 N   0  0  0  0  0  0  0  0  0  0  0  0
   57.1315   24.8177   46.9570 C   0  0  0  0  0  0  0  0  0  0  0  0
   56.5597   23.8490   47.5201 O   0  0  0  0  0  0  0  0  0  0  0  0
   58.4848   24.8432   46.8626 N   0  0  0  0  0  0  0  0  0  0  0  0
   59.1270   25.8763   46.2573 C   0  0  0  0  0  0  0  0  0  0  0  0
   60.3874   25.8824   46.2209 O   0  0  0  0  0  0  0  0  0  0  0  0
   59.6815   36.1015   46.0835 O   0  0  0  0  0  0  0  0  0  0  0  0
   59.5494   34.8334   46.5990 N   0  0  0  0  0  0  0  0  0  0  0  0
   59.2635   34.5782   47.8680 N   0  0  0  0  0  0  0  0  0  0  0  0
   59.2289   33.2357   48.0055 C   0  0  0  0  0  0  0  0  0  0  0  0
   59.5250   32.6539   46.7826 C   0  0  0  0  0  0  0  0  0  0  0  0
   59.7305   33.6965   45.9068 C   0  0  0  0  0  0  0  0  0  0  0  0
   59.5382   36.8475   46.6320 H   0  0  0  0  0  0  0  0  0  0  0  0
   59.0978   32.5304   49.3263 C   0  0  0  0  0  0  0  0  0  0  0  0
   59.6578   33.3563   50.4917 C   0  0  0  0  0  0  0  0  0  0  0  0
   61.1752   33.2314   50.6157 C   0  0  0  0  0  0  0  0  0  0  0  0
 18 19  1  0
 19 20  1  0
 20 21  2  0
 21 25  1  0
 25 26  1  0
 26 27  1  0
 21 22  1  0
 22  1  1  0
  1  2  1  0
  2  3  1  0
  2  4  2  0
  4  5  1  0
  5  6  2  0
  6  9  1  0
  9 10  2  0
 10 11  1  0
 10 12  1  0
 12 13  1  0
 13 14  2  0
 13 15  1  0
 15 16  1  0
 16 17  2  0
  5  7  1  0
  7  8  2  0
 22 23  2  0
 23 19  1  0
  7  1  1  0
 16  9  1  0
 18 24  1  0
M  CHG 1  11  -1
M  CHG 1  12  -1
M  CHG 1  15  -1
M  END
> <UniqueID>
81

> <SMILES>
C=c1/c(=C/c2c([O-])[n-]c(=O)[n-]c2=O)cc(C)n1-c1cn(O)nc1CCC

> <Energy>
114.68184274779256

> <Genealogy>
C=c1c(=Cc2c([O-])[n-]c(=O)[n-]c2=O)cc(C)n1-c1cn(O)nc1CCC (protonated)
C=c1/c(=C/c2c([O-])[n-]c(=O)[n-]c2=O)cc(C)n1-c1cn(O)nc1CCC (cis-trans isomerization)
C=c1/c(=C/c2c([O-])[n-]c(=O)[n-]c2=O)cc(C)n1-c1cn(O)nc1CCC (3D coordinates assigned)
C=c1/c(=C/c2c([O-])[n-]c(=O)[n-]c2=O)cc(C)n1-c1cn(O)nc1CCC (optimized conformer: 114.68184274779256 kcal/mol)

> <smiles>
C=c1c(=Cc2c(O)[nH]c(=O)[nH]c2=O)cc(C)n1-c1cn(O)nc1CCC

> <score_type>
oracle

> <origin>
adg

> <m_score__min__energy>
-15.56

> <m_primary>
energy

> <minimizedAffinity>
-6.70018

> <minimizedRMSD>
0.72627

> <CNNscore>
0.0747358650

> <CNNaffinity>
6.2877087593

> <CNN_VS>
0.4699173570

> <CNNaffinity_variance>
0.0642540157

$$$$
3:0


 28 30  0  0  0  0  0  0  0  0999 V2000
   58.8798   30.2983   45.3276 C   0  0  0  0  0  0  0  0  0  0  0  0
   59.3171   30.9515   46.4925 C   0  0  0  0  0  0  0  0  0  0  0  0
   58.9437   32.2785   46.7490 C   0  0  0  0  0  0  0  0  0  0  0  0
   58.0814   32.9339   45.8629 C   0  0  0  0  0  0  0  0  0  0  0  0
   57.6084   32.2795   44.7230 C   0  0  0  0  0  0  0  0  0  0  0  0
   57.9973   30.9621   44.4521 C   0  0  0  0  0  0  0  0  0  0  0  0
   57.5052   30.3377   43.3050 O   0  0  0  0  0  0  0  0  0  0  0  0
   56.9193   30.7972   42.7362 H   0  0  0  0  0  0  0  0  0  0  0  0
   59.5466   33.1110   48.1886 S   0  0  0  0  0  0  0  0  0  0  0  0
   58.9857   34.5059   48.2175 O   0  0  0  0  0  0  0  0  0  0  0  0
   59.0602   32.3851   49.4145 O   0  0  0  0  0  0  0  0  0  0  0  0
   61.2943   33.1972   48.2372 N   0  0  0  0  0  0  0  0  0  0  0  0
   61.8468   33.6989   46.9817 C   0  0  0  0  0  0  0  0  0  0  0  0
   63.2674   33.1685   46.9051 C   0  0  0  0  0  0  0  0  0  0  0  0
   63.2524   31.8931   47.7296 C   0  0  0  0  0  0  0  0  0  0  0  0
   61.9085   31.8846   48.4498 C   0  0  0  0  0  0  0  0  0  0  0  0
   59.2549   28.9375   45.0665 N   0  0  0  0  0  0  0  0  0  0  0  0
   58.3744   27.8075   45.0122 C   0  0  0  0  0  0  0  0  0  0  0  0
   58.1926   27.2301   43.9043 O   0  0  0  0  0  0  0  0  0  0  0  0
   57.7974   27.1814   46.2536 C   0  0  0  0  0  0  0  0  0  0  0  0
   55.5135   22.7288   45.6703 C   0  0  0  0  0  0  0  0  0  0  0  0
   56.5243   23.7665   45.8303 N   0  0  0  0  0  0  0  0  0  0  0  0
   56.3240   25.0855   45.9812 C   0  0  0  0  0  0  0  0  0  0  0  0
   55.0739   25.6910   46.0728 O   0  0  0  0  0  0  0  0  0  0  0  0
   57.5508   25.7206   46.0269 C   0  0  0  0  0  0  0  0  0  0  0  0
   58.5355   24.8047   45.8889 N   0  0  0  0  0  0  0  0  0  0  0  0
   57.8674   23.6350   45.7610 C   0  0  0  0  0  0  0  0  0  0  0  0
   58.4494   22.5290   45.5906 O   0  0  0  0  0  0  0  0  0  0  0  0
 21 22  1  0
 22 23  1  0
 23 24  1  0
 23 25  2  0
 25 20  1  0
 20 18  1  0
 18 19  2  0
 18 17  1  0
 17  1  1  0
  1  2  2  0
  2  3  1  0
  3  9  1  0
  9 10  2  0
  9 11  2  0
  9 12  1  0
 12 13  1  0
 13 14  1  0
 14 15  1  0
 15 16  1  0
  3  4  2  0
  4  5  1  0
  5  6  2  0
  6  7  1  0
 25 26  1  0
 26 27  1  0
 27 28  2  0
 27 22  1  0
  6  1  1  0
 16 12  1  0
  7  8  1  0
M  CHG 1  17  -1
M  CHG 1  24  -1
M  CHG 1  26  -1
M  END
> <UniqueID>
4

> <SMILES>
Cn1c([O-])c(CC(=O)[N-]c2cc(S(=O)(=O)N3CCCC3)ccc2O)[n-]c1=O

> <Energy>
79.34228977466171

> <Genealogy>
Cn1c([O-])c(CC(=O)[N-]c2cc(S(=O)(=O)N3CCCC3)ccc2O)[n-]c1=O (protonated)
Cn1c([O-])c(CC(=O)[N-]c2cc(S(=O)(=O)N3CCCC3)ccc2O)[n-]c1=O (3D coordinates assigned)
Cn1c([O-])c(CC(=O)[N-]c2cc(S(=O)(=O)N3CCCC3)ccc2O)[n-]c1=O (nonaromatic ring conformer: 79.34228977466171 kcal/mol)

> <smiles>
Cn1c(O)c(CC(=O)Nc2cc(S(=O)(=O)N3CCCC3)ccc2O)[nH]c1=O

> <score_type>
oracle

> <origin>
adg

> <m_score__min__energy>
-15.4

> <m_primary>
energy

> <minimizedAffinity>
-8.44925

> <minimizedRMSD>
0.89190

> <CNNscore>
0.4848290682

> <CNNaffinity>
6.9219365120

> <CNN_VS>
3.3559560776

> <CNNaffinity_variance>
0.4228940904

$$$$
6:0


 24 25  0  0  0  0  0  0  0  0999 V2000
   57.5722   25.5254   44.6417 C   0  0  0  0  0  0  0  0  0  0  0  0
   58.4600   26.3033   45.2718 C   0  0  0  0  0  0  0  0  0  0  0  0
   54.9901   26.0795   45.8766 O   0  0  0  0  0  0  0  0  0  0  0  0
   55.5423   24.7996   45.9411 C   0  0  0  0  0  0  0  0  0  0  0  0
   54.8438   23.8342   46.5948 N   0  0  0  0  0  0  0  0  0  0  0  0
   55.3127   22.5663   46.6926 C   0  0  0  0  0  0  0  0  0  0  0  0
   54.6385   21.6936   47.2994 O   0  0  0  0  0  0  0  0  0  0  0  0
   56.5056   22.2391   46.1420 N   0  0  0  0  0  0  0  0  0  0  0  0
   57.2530   23.1586   45.4811 C   0  0  0  0  0  0  0  0  0  0  0  0
   58.3765   22.8187   45.0248 O   0  0  0  0  0  0  0  0  0  0  0  0
   56.7816   24.4828   45.3407 C   0  0  0  0  0  0  0  0  0  0  0  0
   54.1658   26.2553   46.2861 H   0  0  0  0  0  0  0  0  0  0  0  0
   58.0463   27.4420   46.1159 C   0  0  0  0  0  0  0  0  0  0  0  0
   58.4917   27.5179   47.2912 O   0  0  0  0  0  0  0  0  0  0  0  0
   57.1337   28.4499   45.6557 N   0  0  0  0  0  0  0  0  0  0  0  0
   57.4757   29.6467   45.2795 C   0  0  0  0  0  0  0  0  0  0  0  0
   58.0896   30.5445   46.0812 N   0  0  0  0  0  0  0  0  0  0  0  0
   58.3004   31.7321   45.4465 C   0  0  0  0  0  0  0  0  0  0  0  0
   57.8265   31.7722   44.1302 C   0  0  0  0  0  0  0  0  0  0  0  0
   57.1410   30.2790   43.7642 S   0  0  0  0  0  0  0  0  0  0  0  0
   58.9451   32.9227   46.1446 C   0  0  0  0  0  0  0  0  0  0  0  0
   58.0404   33.4096   47.2950 C   0  0  0  0  0  0  0  0  0  0  0  0
   59.1529   34.0899   45.1551 C   0  0  0  0  0  0  0  0  0  0  0  0
   60.3143   32.4997   46.7103 C   0  0  0  0  0  0  0  0  0  0  0  0
  3  4  1  0
  4  5  1  0
  5  6  1  0
  6  7  2  0
  6  8  1  0
  8  9  1  0
  9 10  2  0
  9 11  1  0
 11  1  1  0
  1  2  2  0
  2 13  1  0
 13 14  2  0
 13 15  1  0
 15 16  2  0
 16 17  1  0
 17 18  1  0
 18 21  1  0
 21 22  1  0
 21 23  1  0
 21 24  1  0
 18 19  2  0
 19 20  1  0
 11  4  2  0
 20 16  1  0
  3 12  1  0
M  CHG 1   5  -1
M  CHG 1   8  -1
M  CHG 1  17  -1
M  END
> <UniqueID>
7

> <SMILES>
CC(C)(C)c1csc(=NC(=O)/C=C/c2c(O)[n-]c(=O)[n-]c2=O)[n-]1

> <Energy>
73.98836771464151

> <Genealogy>
CC(C)(C)c1csc(=NC(=O)C=Cc2c(O)[n-]c(=O)[n-]c2=O)[n-]1 (protonated)
CC(C)(C)c1csc(=NC(=O)/C=C/c2c(O)[n-]c(=O)[n-]c2=O)[n-]1 (cis-trans isomerization)
CC(C)(C)c1csc(=NC(=O)/C=C/c2c(O)[n-]c(=O)[n-]c2=O)[n-]1 (3D coordinates assigned)
CC(C)(C)c1csc(=NC(=O)/C=C/c2c(O)[n-]c(=O)[n-]c2=O)[n-]1 (optimized conformer: 73.98836771464151 kcal/mol)

> <smiles>
CC(C)(C)c1csc(=NC(=O)C=Cc2c(O)[nH]c(=O)[nH]c2=O)[nH]1

> <score_type>
oracle

> <origin>
adg

> <m_score__min__energy>
-14.210000000000001

> <m_primary>
energy

> <minimizedAffinity>
-7.81559

> <minimizedRMSD>
1.20579

> <CNNscore>
0.6797931790

> <CNNaffinity>
6.5944876671

> <CNN_VS>
4.4828877449

> <CNNaffinity_variance>
0.1874345541

$$$$
12:0


 40 44  0  0  0  0  0  0  0  0999 V2000
   60.0024   28.9885   44.8715 C   0  0  0  0  0  0  0  0  0  0  0  0
   59.7767   28.4978   46.0996 C   0  0  0  0  0  0  0  0  0  0  0  0
   59.0303   27.3517   46.4185 C   0  0  0  0  0  0  0  0  0  0  0  0
   58.1952   26.6035   45.6728 C   0  0  0  0  0  0  0  0  0  0  0  0
   59.2626   27.0995   47.7572 C   0  0  0  0  0  0  0  0  0  0  0  0
   60.0541   28.1252   48.2254 C   0  0  0  0  0  0  0  0  0  0  0  0
   60.3783   28.9785   47.2235 N   0  0  0  0  0  0  0  0  0  0  0  0
   60.4417   28.2757   49.6401 C   0  0  0  0  0  0  0  0  0  0  0  0
   61.1443   27.3769   50.1757 O   0  0  0  0  0  0  0  0  0  0  0  0
   60.0015   29.4027   50.4225 N   0  0  0  0  0  0  0  0  0  0  0  0
   60.8300   29.8514   51.5497 C   0  0  0  0  0  0  0  0  0  0  0  0
   60.3217   31.1753   52.1298 C   0  0  0  0  0  0  0  0  0  0  0  0
   58.8722   31.1043   52.3641 N   0  0  0  0  0  0  0  0  0  0  0  0
   58.2927   31.5825   53.5941 C   0  0  0  0  0  0  0  0  0  0  0  0
   57.3047   30.9748   54.0888 O   0  0  0  0  0  0  0  0  0  0  0  0
   57.9948   30.4662   51.3730 C   0  0  0  0  0  0  0  0  0  0  0  0
   58.7527   30.1056   50.0929 C   0  0  0  0  0  0  0  0  0  0  0  0
   58.8256   32.7727   54.2975 C   0  0  0  0  0  0  0  0  0  0  0  0
   59.2722   32.6864   55.6283 C   0  0  0  0  0  0  0  0  0  0  0  0
   59.7826   33.8153   56.2773 C   0  0  0  0  0  0  0  0  0  0  0  0
   59.8666   35.0359   55.6025 C   0  0  0  0  0  0  0  0  0  0  0  0
   60.3631   36.1287   56.2325 F   0  0  0  0  0  0  0  0  0  0  0  0
   59.4446   35.1253   54.2722 C   0  0  0  0  0  0  0  0  0  0  0  0
   58.9278   34.0002   53.6216 C   0  0  0  0  0  0  0  0  0  0  0  0
   57.4541   25.4196   46.1440 C   0  0  0  0  0  0  0  0  0  0  0  0
   58.0034   24.2040   46.3320 N   0  0  0  0  0  0  0  0  0  0  0  0
   56.9408   23.4192   46.6134 C   0  0  0  0  0  0  0  0  0  0  0  0
   57.0523   22.1948   46.8759 O   0  0  0  0  0  0  0  0  0  0  0  0
   55.7489   24.0498   46.5871 N   0  0  0  0  0  0  0  0  0  0  0  0
   56.0879   25.3125   46.2753 C   0  0  0  0  0  0  0  0  0  0  0  0
   55.1587   26.3378   46.1178 O   0  0  0  0  0  0  0  0  0  0  0  0
   54.2449   26.1631   46.2288 H   0  0  0  0  0  0  0  0  0  0  0  0
   61.3563   30.0791   47.3072 C   0  0  0  0  0  0  0  0  0  0  0  0
   60.6713   31.4175   47.1886 C   0  0  0  0  0  0  0  0  0  0  0  0
   59.2810   31.4824   46.9867 C   0  0  0  0  0  0  0  0  0  0  0  0
   58.6404   32.7192   46.8750 C   0  0  0  0  0  0  0  0  0  0  0  0
   59.3827   33.9016   46.9558 C   0  0  0  0  0  0  0  0  0  0  0  0
   58.7595   35.1001   46.8466 F   0  0  0  0  0  0  0  0  0  0  0  0
   60.7656   33.8482   47.1502 C   0  0  0  0  0  0  0  0  0  0  0  0
   61.4103   32.6121   47.2600 C   0  0  0  0  0  0  0  0  0  0  0  0
  1  2  2  0
  2  3  1  0
  3  4  2  0
  4 25  1  0
 25 26  1  0
 26 27  1  0
 27 28  2  0
 27 29  1  0
 29 30  1  0
 30 31  1  0
  3  5  1  0
  5  6  2  0
  6  8  1  0
  8  9  2  0
  8 10  1  0
 10 11  1  0
 11 12  1  0
 12 13  1  0
 13 14  1  0
 14 15  2  0
 14 18  1  0
 18 19  2  0
 19 20  1  0
 20 21  2  0
 21 22  1  0
 21 23  1  0
 23 24  2  0
 13 16  1  0
 16 17  1  0
  6  7  1  0
  7 33  1  0
 33 34  1  0
 34 35  2  0
 35 36  1  0
 36 37  2  0
 37 38  1  0
 37 39  1  0
 39 40  2  0
  7  2  1  0
 40 34  1  0
 30 25  2  0
 17 10  1  0
 24 18  1  0
 31 32  1  0
M  CHG 1  26  -1
M  CHG 1  29  -1
M  END
> <UniqueID>
13

> <SMILES>
C=c1c(=Cc2[n-]c(=O)[n-]c2O)cc(C(=O)N2CCN(C(=O)c3ccc(F)cc3)CC2)n1Cc1ccc(F)cc1

> <Energy>
145.48142460685654

> <Genealogy>
C=c1c(=Cc2[n-]c(=O)[n-]c2O)cc(C(=O)N2CCN(C(=O)c3ccc(F)cc3)CC2)n1Cc1ccc(F)cc1 (protonated)
C=c1c(=Cc2[n-]c(=O)[n-]c2O)cc(C(=O)N2CCN(C(=O)c3ccc(F)cc3)CC2)n1Cc1ccc(F)cc1 (3D coordinates assigned)
C=c1c(=Cc2[n-]c(=O)[n-]c2O)cc(C(=O)N2CCN(C(=O)c3ccc(F)cc3)CC2)n1Cc1ccc(F)cc1 (nonaromatic ring conformer: 145.48142460685654 kcal/mol)

> <smiles>
C=c1c(=Cc2[nH]c(=O)[nH]c2O)cc(C(=O)N2CCN(C(=O)c3ccc(F)cc3)CC2)n1Cc1ccc(F)cc1

> <score_type>
oracle

> <origin>
adg

> <m_score__min__energy>
-14.029999999999999

> <m_primary>
energy

> <minimizedAffinity>
-9.23190

> <minimizedRMSD>
0.48617

> <CNNscore>
0.4809045196

> <CNNaffinity>
7.1732630730

> <CNN_VS>
3.4496545792

> <CNNaffinity_variance>
0.0481416881

$$$$
13:0


 32 34  0  0  0  0  0  0  0  0999 V2000
   59.2293   30.9085   48.7296 C   0  0  0  0  0  0  0  0  0  0  0  0
   58.7419   30.0162   47.7997 C   0  0  0  0  0  0  0  0  0  0  0  0
   58.5858   28.6498   48.0131 O   0  0  0  0  0  0  0  0  0  0  0  0
   58.4030   30.6370   46.6530 N   0  0  0  0  0  0  0  0  0  0  0  0
   58.6875   31.9575   46.8249 C   0  0  0  0  0  0  0  0  0  0  0  0
   58.6718   32.8565   45.8275 C   0  0  0  0  0  0  0  0  0  0  0  0
   59.1612   32.1707   48.1361 C   0  0  0  0  0  0  0  0  0  0  0  0
   59.5138   33.3203   48.7504 C   0  0  0  0  0  0  0  0  0  0  0  0
   60.8818   30.1866   50.3860 C   0  0  0  0  0  0  0  0  0  0  0  0
   59.6283   30.5598   50.1130 C   0  0  0  0  0  0  0  0  0  0  0  0
   58.6580   30.7714   51.2395 C   0  0  0  0  0  0  0  0  0  0  0  0
   60.6546   33.4790   49.6639 C   0  0  0  0  0  0  0  0  0  0  0  0
   60.4631   33.4087   50.9062 O   0  0  0  0  0  0  0  0  0  0  0  0
   61.9471   33.8138   49.1505 N   0  0  0  0  0  0  0  0  0  0  0  0
   62.5139   33.2645   47.6108 S   0  0  0  0  0  0  0  0  0  0  0  0
   62.4965   31.4864   47.5605 C   0  0  0  0  0  0  0  0  0  0  0  0
   63.9210   33.7517   47.4057 O   0  0  0  0  0  0  0  0  0  0  0  0
   61.6400   33.8196   46.5225 O   0  0  0  0  0  0  0  0  0  0  0  0
   57.7949   29.9584   45.4997 C   0  0  0  0  0  0  0  0  0  0  0  0
   58.1533   28.5015   45.5139 C   0  0  0  0  0  0  0  0  0  0  0  0
   57.2459   27.5159   45.6493 N   0  0  0  0  0  0  0  0  0  0  0  0
   57.9818   26.3868   45.5298 C   0  0  0  0  0  0  0  0  0  0  0  0
   59.2577   26.6392   45.3227 O   0  0  0  0  0  0  0  0  0  0  0  0
   59.3964   27.9413   45.3048 C   0  0  0  0  0  0  0  0  0  0  0  0
   60.6894   28.6444   45.0582 C   0  0  0  0  0  0  0  0  0  0  0  0
   57.4239   25.0170   45.6138 C   0  0  0  0  0  0  0  0  0  0  0  0
   58.2728   23.9174   45.3845 C   0  0  0  0  0  0  0  0  0  0  0  0
   57.7786   22.6119   45.4557 C   0  0  0  0  0  0  0  0  0  0  0  0
   56.4355   22.3869   45.7565 C   0  0  0  0  0  0  0  0  0  0  0  0
   55.5799   23.4656   45.9844 C   0  0  0  0  0  0  0  0  0  0  0  0
   56.0640   24.7783   45.9157 C   0  0  0  0  0  0  0  0  0  0  0  0
   55.1829   25.8284   46.1479 O   0  0  0  0  0  0  0  0  0  0  0  0
  9 10  2  0
 10 11  1  0
 10  1  1  0
  1  2  2  0
  2  3  1  0
  2  4  1  0
  4 19  1  0
 19 20  1  0
 20 21  1  0
 21 22  2  0
 22 26  1  0
 26 27  2  0
 27 28  1  0
 28 29  2  0
 29 30  1  0
 30 31  2  0
 31 32  1  0
 22 23  1  0
 23 24  1  0
 24 25  1  0
  4  5  1  0
  5  6  2  0
  5  7  1  0
  7  8  2  0
  8 12  1  0
 12 13  2  0
 12 14  1  0
 14 15  1  0
 15 16  1  0
 15 17  2  0
 15 18  2  0
  7  1  1  0
 24 20  2  0
 31 26  1  0
M  CHG 1   3  -1
M  CHG 1  14  -1
M  CHG 1  32  -1
M  END
> <UniqueID>
14

> <SMILES>
C=C(C)c1c([O-])n(Cc2nc(-c3ccccc3[O-])oc2C)c(=C)c1=CC(=O)[N-]S(C)(=O)=O

> <Energy>
125.27066516899005

> <Genealogy>
C=C(C)c1c([O-])n(Cc2nc(-c3ccccc3[O-])oc2C)c(=C)c1=CC(=O)[N-]S(C)(=O)=O (protonated)
C=C(C)c1c([O-])n(Cc2nc(-c3ccccc3[O-])oc2C)c(=C)c1=CC(=O)[N-]S(C)(=O)=O (3D coordinates assigned)
C=C(C)c1c([O-])n(Cc2nc(-c3ccccc3[O-])oc2C)c(=C)c1=CC(=O)[N-]S(C)(=O)=O (optimized conformer: 125.27066516899005 kcal/mol)

> <smiles>
C=C(C)c1c(O)n(Cc2nc(-c3ccccc3O)oc2C)c(=C)c1=CC(=O)NS(C)(=O)=O

> <score_type>
oracle

> <origin>
adg

> <m_score__min__energy>
-15

> <m_primary>
energy

> <minimizedAffinity>
-7.98242

> <minimizedRMSD>
0.90055

> <CNNscore>
0.4711725712

> <CNNaffinity>
6.9493670464

> <CNN_VS>
3.2743511200

> <CNNaffinity_variance>
0.0441473722

$$$$
31:0


 32 35  0  0  0  0  0  0  0  0999 V2000
   54.6879   27.8647   54.0238 C   0  0  0  0  0  0  0  0  0  0  0  0
   55.4423   28.8849   53.5758 C   0  0  0  0  0  0  0  0  0  0  0  0
   54.8965   30.0209   52.8949 C   0  0  0  0  0  0  0  0  0  0  0  0
   53.5897   30.3905   52.8972 C   0  0  0  0  0  0  0  0  0  0  0  0
   55.7901   30.8442   52.1833 C   0  0  0  0  0  0  0  0  0  0  0  0
   57.1714   30.6649   52.2766 C   0  0  0  0  0  0  0  0  0  0  0  0
   57.6669   29.5940   53.0318 C   0  0  0  0  0  0  0  0  0  0  0  0
   56.8018   28.7581   53.6736 N   0  0  0  0  0  0  0  0  0  0  0  0
   57.1698   28.0340   54.2299 H   0  0  0  0  0  0  0  0  0  0  0  0
   58.0837   31.5859   51.5633 C   0  0  0  0  0  0  0  0  0  0  0  0
   58.4718   32.6401   52.1382 O   0  0  0  0  0  0  0  0  0  0  0  0
   58.5369   31.3014   50.2286 N   0  0  0  0  0  0  0  0  0  0  0  0
   59.0062   29.9436   49.9066 C   0  0  0  0  0  0  0  0  0  0  0  0
   59.7350   29.9004   48.5629 C   0  0  0  0  0  0  0  0  0  0  0  0
   59.0310   30.6388   47.5896 O   0  0  0  0  0  0  0  0  0  0  0  0
   59.1162   32.0114   47.9087 C   0  0  0  0  0  0  0  0  0  0  0  0
   58.3485   32.3315   49.1963 C   0  0  0  0  0  0  0  0  0  0  0  0
   52.7076   30.4829   51.7188 C   0  0  0  0  0  0  0  0  0  0  0  0
   52.8172   29.6806   50.6457 N   0  0  0  0  0  0  0  0  0  0  0  0
   51.8975   30.1762   49.7889 C   0  0  0  0  0  0  0  0  0  0  0  0
   51.6852   29.6730   48.6562 O   0  0  0  0  0  0  0  0  0  0  0  0
   51.2282   31.2601   50.2400 N   0  0  0  0  0  0  0  0  0  0  0  0
   51.7618   31.4497   51.4568 C   0  0  0  0  0  0  0  0  0  0  0  0
   51.4141   32.5026   52.2946 O   0  0  0  0  0  0  0  0  0  0  0  0
   59.0545   29.3888   53.1010 O   0  0  0  0  0  0  0  0  0  0  0  0
   59.9133   30.0330   53.9986 C   0  0  0  0  0  0  0  0  0  0  0  0
   59.4470   30.2904   55.2941 C   0  0  0  0  0  0  0  0  0  0  0  0
   60.2740   30.9124   56.2336 C   0  0  0  0  0  0  0  0  0  0  0  0
   61.5713   31.2893   55.8805 C   0  0  0  0  0  0  0  0  0  0  0  0
   62.0385   31.0640   54.5827 C   0  0  0  0  0  0  0  0  0  0  0  0
   61.2107   30.4599   53.6216 C   0  0  0  0  0  0  0  0  0  0  0  0
   61.7243   30.2781   52.2194 C   0  0  0  0  0  0  0  0  0  0  0  0
  1  2  2  0
  2  3  1  0
  3  4  2  0
  4 18  1  0
 18 19  1  0
 19 20  1  0
 20 21  2  0
 20 22  1  0
 22 23  1  0
 23 24  1  0
  3  5  1  0
  5  6  2  0
  6 10  1  0
 10 11  2  0
 10 12  1  0
 12 13  1  0
 13 14  1  0
 14 15  1  0
 15 16  1  0
 16 17  1  0
  6  7  1  0
  7 25  1  0
 25 26  1  0
 26 27  2  0
 27 28  1  0
 28 29  2  0
 29 30  1  0
 30 31  2  0
 31 32  1  0
  7  8  2  0
  8  2  1  0
 23 18  2  0
 17 12  1  0
 31 26  1  0
  8  9  1  0
M  CHG 1   8   1
M  CHG 1  19  -1
M  CHG 1  22  -1
M  CHG 1  24  -1
M  END
> <UniqueID>
30

> <SMILES>
C=c1[nH+]c(Oc2ccccc2C)c(C(=O)N2CCOCC2)c/c1=C/c1[n-]c(=O)[n-]c1[O-]

> <Energy>
120.99054457164407

> <Genealogy>
C=c1[nH+]c(Oc2ccccc2C)c(C(=O)N2CCOCC2)cc1=Cc1[n-]c(=O)[n-]c1[O-] (protonated)
C=c1[nH+]c(Oc2ccccc2C)c(C(=O)N2CCOCC2)c/c1=C/c1[n-]c(=O)[n-]c1[O-] (cis-trans isomerization)
C=c1[nH+]c(Oc2ccccc2C)c(C(=O)N2CCOCC2)c/c1=C/c1[n-]c(=O)[n-]c1[O-] (3D coordinates assigned)
C=c1[nH+]c(Oc2ccccc2C)c(C(=O)N2CCOCC2)c/c1=C/c1[n-]c(=O)[n-]c1[O-] (nonaromatic ring conformer: 120.99054457164407 kcal/mol)

> <smiles>
C=c1nc(Oc2ccccc2C)c(C(=O)N2CCOCC2)cc1=Cc1[nH]c(=O)[nH]c1O

> <score_type>
oracle

> <origin>
adg

> <m_score__min__energy>
-14.949999999999999

> <m_primary>
energy

> <minimizedAffinity>
-5.21952

> <minimizedRMSD>
0.97848

> <CNNscore>
0.0448586456

> <CNNaffinity>
4.5502114296

> <CNN_VS>
0.2041163296

> <CNNaffinity_variance>
0.5356692672

$$$$
36:0


 24 26  0  0  0  0  0  0  0  0999 V2000
   58.2408   27.4222   43.8169 C   0  0  0  0  0  0  0  0  0  0  0  0
   58.6348   27.2968   45.0923 C   0  0  0  0  0  0  0  0  0  0  0  0
   58.6795   26.1239   45.8680 C   0  0  0  0  0  0  0  0  0  0  0  0
   58.2775   24.8655   45.5981 C   0  0  0  0  0  0  0  0  0  0  0  0
   59.2386   26.4825   47.0861 C   0  0  0  0  0  0  0  0  0  0  0  0
   59.4546   27.8438   47.0432 C   0  0  0  0  0  0  0  0  0  0  0  0
   60.0979   28.6489   48.1280 C   0  0  0  0  0  0  0  0  0  0  0  0
   59.1228   28.3252   45.8318 N   0  0  0  0  0  0  0  0  0  0  0  0
   57.1926   24.1448   46.2752 C   0  0  0  0  0  0  0  0  0  0  0  0
   57.3578   22.9702   46.9088 N   0  0  0  0  0  0  0  0  0  0  0  0
   56.1568   22.7564   47.4895 C   0  0  0  0  0  0  0  0  0  0  0  0
   55.9085   21.7298   48.1715 O   0  0  0  0  0  0  0  0  0  0  0  0
   55.2474   23.7350   47.2907 N   0  0  0  0  0  0  0  0  0  0  0  0
   55.9245   24.6147   46.5350 C   0  0  0  0  0  0  0  0  0  0  0  0
   55.4033   25.8300   46.1099 O   0  0  0  0  0  0  0  0  0  0  0  0
   59.3097   29.6637   45.4356 N   0  0  0  0  0  0  0  0  0  0  0  0
   58.3269   30.6966   45.5937 C   0  0  0  0  0  0  0  0  0  0  0  0
   57.1210   30.4231   45.3475 O   0  0  0  0  0  0  0  0  0  0  0  0
   58.6831   32.0608   46.0463 C   0  0  0  0  0  0  0  0  0  0  0  0
   59.1910   32.2617   47.3392 C   0  0  0  0  0  0  0  0  0  0  0  0
   59.5173   33.5521   47.7615 C   0  0  0  0  0  0  0  0  0  0  0  0
   59.3563   34.6078   46.9183 N   0  0  0  0  0  0  0  0  0  0  0  0
   58.8819   34.4416   45.6552 C   0  0  0  0  0  0  0  0  0  0  0  0
   58.5423   33.1673   45.1946 C   0  0  0  0  0  0  0  0  0  0  0  0
  1  2  2  0
  2  3  1  0
  3  4  2  0
  4  9  1  0
  9 10  1  0
 10 11  1  0
 11 12  2  0
 11 13  1  0
 13 14  1  0
 14 15  1  0
  3  5  1  0
  5  6  2  0
  6  7  1  0
  6  8  1  0
  8 16  1  0
 16 17  1  0
 17 18  2  0
 17 19  1  0
 19 20  2  0
 20 21  1  0
 21 22  2  0
 22 23  1  0
 23 24  2  0
  8  2  1  0
 24 19  1  0
 14  9  2  0
M  CHG 1  10  -1
M  CHG 1  13  -1
M  CHG 1  15  -1
M  CHG 1  16  -1
M  END
> <UniqueID>
35

> <SMILES>
C=c1/c(=C\c2[n-]c(=O)[n-]c2[O-])cc(C)n1[N-]C(=O)c1ccncc1

> <Energy>
116.81575283552347

> <Genealogy>
C=c1c(=Cc2[n-]c(=O)[n-]c2[O-])cc(C)n1[N-]C(=O)c1ccncc1 (protonated)
C=c1/c(=C\c2[n-]c(=O)[n-]c2[O-])cc(C)n1[N-]C(=O)c1ccncc1 (cis-trans isomerization)
C=c1/c(=C\c2[n-]c(=O)[n-]c2[O-])cc(C)n1[N-]C(=O)c1ccncc1 (3D coordinates assigned)
C=c1/c(=C\c2[n-]c(=O)[n-]c2[O-])cc(C)n1[N-]C(=O)c1ccncc1 (optimized conformer: 116.81575283552347 kcal/mol)

> <smiles>
C=c1c(=Cc2[nH]c(=O)[nH]c2O)cc(C)n1NC(=O)c1ccncc1

> <score_type>
oracle

> <origin>
adg

> <m_score__min__energy>
-16.829999999999998

> <m_primary>
energy

> <minimizedAffinity>
-8.29564

> <minimizedRMSD>
1.72419

> <CNNscore>
0.3439663351

> <CNNaffinity>
6.9055352211

> <CNN_VS>
2.3752715588

> <CNNaffinity_variance>
0.5498814583

$$$$
43:0


 35 38  0  0  0  0  0  0  0  0999 V2000
   56.1775   30.1800   44.9458 O   0  0  0  0  0  0  0  0  0  0  0  0
   57.4062   29.9111   45.0208 C   0  0  0  0  0  0  0  0  0  0  0  0
   57.8323   28.6129   45.5973 C   0  0  0  0  0  0  0  0  0  0  0  0
   58.7163   28.5690   46.6863 C   0  0  0  0  0  0  0  0  0  0  0  0
   59.1300   27.3428   47.2079 C   0  0  0  0  0  0  0  0  0  0  0  0
   58.6564   26.1487   46.6599 C   0  0  0  0  0  0  0  0  0  0  0  0
   57.7443   26.1677   45.5877 C   0  0  0  0  0  0  0  0  0  0  0  0
   57.3395   27.4097   45.0638 C   0  0  0  0  0  0  0  0  0  0  0  0
   57.2388   24.9037   44.9887 C   0  0  0  0  0  0  0  0  0  0  0  0
   57.4607   24.6616   43.7710 O   0  0  0  0  0  0  0  0  0  0  0  0
   56.4505   23.9273   45.7705 C   0  0  0  0  0  0  0  0  0  0  0  0
   57.0616   22.7448   46.2159 C   0  0  0  0  0  0  0  0  0  0  0  0
   56.3490   21.8331   46.9926 C   0  0  0  0  0  0  0  0  0  0  0  0
   55.0249   22.1140   47.3318 C   0  0  0  0  0  0  0  0  0  0  0  0
   54.3684   21.3062   48.0389 O   0  0  0  0  0  0  0  0  0  0  0  0
   54.4417   23.2613   46.8987 N   0  0  0  0  0  0  0  0  0  0  0  0
   55.1042   24.1668   46.1307 C   0  0  0  0  0  0  0  0  0  0  0  0
   54.4148   25.3020   45.7000 O   0  0  0  0  0  0  0  0  0  0  0  0
   53.5229   25.4333   45.9552 H   0  0  0  0  0  0  0  0  0  0  0  0
   58.3514   30.8982   44.5882 N   0  0  0  0  0  0  0  0  0  0  0  0
   58.7156   32.0946   45.2943 C   0  0  0  0  0  0  0  0  0  0  0  0
   58.4533   33.3723   44.7682 C   0  0  0  0  0  0  0  0  0  0  0  0
   58.8147   34.5140   45.4856 C   0  0  0  0  0  0  0  0  0  0  0  0
   59.4235   34.3937   46.7372 C   0  0  0  0  0  0  0  0  0  0  0  0
   59.6651   33.1260   47.2825 C   0  0  0  0  0  0  0  0  0  0  0  0
   59.2989   31.9810   46.5622 C   0  0  0  0  0  0  0  0  0  0  0  0
   60.3952   32.9592   48.8775 S   0  0  0  0  0  0  0  0  0  0  0  0
   59.3615   32.4816   49.8599 O   0  0  0  0  0  0  0  0  0  0  0  0
   60.8873   34.3101   49.3203 O   0  0  0  0  0  0  0  0  0  0  0  0
   61.7301   31.8298   48.7830 N   0  0  0  0  0  0  0  0  0  0  0  0
   62.7133   32.0445   49.8672 C   0  0  0  0  0  0  0  0  0  0  0  0
   63.9359   32.8630   49.4097 C   0  0  0  0  0  0  0  0  0  0  0  0
   63.5626   33.7840   48.4103 O   0  0  0  0  0  0  0  0  0  0  0  0
   63.2238   33.0985   47.2169 C   0  0  0  0  0  0  0  0  0  0  0  0
   62.3578   31.8374   47.4514 C   0  0  0  0  0  0  0  0  0  0  0  0
  1  2  2  0
  2 20  1  0
 20 21  1  0
 21 22  2  0
 22 23  1  0
 23 24  2  0
 24 25  1  0
 25 27  1  0
 27 28  2  0
 27 29  2  0
 27 30  1  0
 30 31  1  0
 31 32  1  0
 32 33  1  0
 33 34  1  0
 34 35  1  0
 25 26  2  0
  2  3  1  0
  3  4  2  0
  4  5  1  0
  5  6  2  0
  6  7  1  0
  7  9  1  0
  9 10  2  0
  9 11  1  0
 11 12  1  0
 12 13  2  0
 13 14  1  0
 14 15  2  0
 14 16  1  0
 16 17  1  0
 17 18  1  0
  7  8  2  0
 26 21  1  0
  8  3  1  0
 35 30  1  0
 17 11  2  0
 18 19  1  0
M  CHG 1  16  -1
M  CHG 1  20  -1
M  END
> <UniqueID>
42

> <SMILES>
O=C([N-]c1cccc(S(=O)(=O)N2CCOCC2)c1)c1cccc(C(=O)c2ccc(=O)[n-]c2O)c1

> <Energy>
84.12252819647063

> <Genealogy>
O=C([N-]c1cccc(S(=O)(=O)N2CCOCC2)c1)c1cccc(C(=O)c2ccc(=O)[n-]c2O)c1 (protonated)
O=C([N-]c1cccc(S(=O)(=O)N2CCOCC2)c1)c1cccc(C(=O)c2ccc(=O)[n-]c2O)c1 (3D coordinates assigned)
O=C([N-]c1cccc(S(=O)(=O)N2CCOCC2)c1)c1cccc(C(=O)c2ccc(=O)[n-]c2O)c1 (nonaromatic ring conformer: 84.12252819647063 kcal/mol)

> <smiles>
O=C(Nc1cccc(S(=O)(=O)N2CCOCC2)c1)c1cccc(C(=O)c2ccc(=O)[nH]c2O)c1

> <score_type>
oracle

> <origin>
adg

> <m_score__min__energy>
-14.82

> <m_primary>
energy

> <minimizedAffinity>
-9.58413

> <minimizedRMSD>
0.85213

> <CNNscore>
0.7521109581

> <CNNaffinity>
7.0948319435

> <CNN_VS>
5.3361010551

> <CNNaffinity_variance>
0.0293568466

$$$$
75:0


 31 33  0  0  0  0  0  0  0  0999 V2000
   60.2381   26.6735   47.2388 C   0  0  0  0  0  0  0  0  0  0  0  0
   60.3675   27.6695   48.3591 C   0  0  0  0  0  0  0  0  0  0  0  0
   60.1707   29.0389   48.1340 C   0  0  0  0  0  0  0  0  0  0  0  0
   60.3503   29.9580   49.1756 C   0  0  0  0  0  0  0  0  0  0  0  0
   60.7367   29.5147   50.4479 C   0  0  0  0  0  0  0  0  0  0  0  0
   60.9070   28.1466   50.6810 C   0  0  0  0  0  0  0  0  0  0  0  0
   60.7240   27.2256   49.6444 C   0  0  0  0  0  0  0  0  0  0  0  0
   61.0349   30.6742   51.7447 S   0  0  0  0  0  0  0  0  0  0  0  0
   59.7497   31.3882   52.0818 O   0  0  0  0  0  0  0  0  0  0  0  0
   61.4907   29.9341   52.9691 O   0  0  0  0  0  0  0  0  0  0  0  0
   62.2430   31.8549   51.2982 N   0  0  0  0  0  0  0  0  0  0  0  0
   63.1700   31.2954   50.3040 C   0  0  0  0  0  0  0  0  0  0  0  0
   64.2882   32.3218   50.0127 C   0  0  0  0  0  0  0  0  0  0  0  0
   63.9757   33.6260   50.4876 O   0  0  0  0  0  0  0  0  0  0  0  0
   62.6657   33.9891   50.0962 C   0  0  0  0  0  0  0  0  0  0  0  0
   61.6150   33.0806   50.7738 C   0  0  0  0  0  0  0  0  0  0  0  0
   59.8746   27.3612   46.0077 N   0  0  0  0  0  0  0  0  0  0  0  0
   58.6695   27.0948   45.2835 C   0  0  0  0  0  0  0  0  0  0  0  0
   58.0585   26.0013   45.4502 O   0  0  0  0  0  0  0  0  0  0  0  0
   58.1977   28.0881   44.2621 C   0  0  0  0  0  0  0  0  0  0  0  0
   58.5346   29.4566   44.6520 N   0  0  0  0  0  0  0  0  0  0  0  0
   57.5917   30.3809   45.2042 C   0  0  0  0  0  0  0  0  0  0  0  0
   56.4635   30.5074   44.6530 O   0  0  0  0  0  0  0  0  0  0  0  0
   57.9227   31.1572   46.3639 N   0  0  0  0  0  0  0  0  0  0  0  0
   58.7273   32.5566   48.7960 C   0  0  0  0  0  0  0  0  0  0  0  0
   58.9019   33.1613   47.4247 C   0  0  0  0  0  0  0  0  0  0  0  0
   59.4032   34.4667   47.2998 C   0  0  0  0  0  0  0  0  0  0  0  0
   59.5026   35.0700   46.0381 C   0  0  0  0  0  0  0  0  0  0  0  0
   59.0883   34.3815   44.8926 C   0  0  0  0  0  0  0  0  0  0  0  0
   58.5743   33.0867   45.0060 C   0  0  0  0  0  0  0  0  0  0  0  0
   58.4704   32.4751   46.2666 C   0  0  0  0  0  0  0  0  0  0  0  0
 25 26  1  0
 26 27  2  0
 27 28  1  0
 28 29  2  0
 29 30  1  0
 30 31  2  0
 31 24  1  0
 24 22  1  0
 22 23  2  0
 22 21  1  0
 21 20  1  0
 20 18  1  0
 18 19  2  0
 18 17  1  0
 17  1  1  0
  1  2  1  0
  2  3  2  0
  3  4  1  0
  4  5  2  0
  5  8  1  0
  8  9  2  0
  8 10  2  0
  8 11  1  0
 11 12  1  0
 12 13  1  0
 13 14  1  0
 14 15  1  0
 15 16  1  0
  5  6  1  0
  6  7  2  0
 31 26  1  0
  7  2  1  0
 16 11  1  0
M  CHG 1  17  -1
M  CHG 1  21  -1
M  CHG 1  24  -1
M  END
> <UniqueID>
72

> <SMILES>
Cc1ccccc1[N-]C(=O)[N-]CC(=O)[N-]Cc1ccc(S(=O)(=O)N2CCOCC2)cc1

> <Energy>
60.02610815448544

> <Genealogy>
Cc1ccccc1[N-]C(=O)[N-]CC(=O)[N-]Cc1ccc(S(=O)(=O)N2CCOCC2)cc1 (protonated)
Cc1ccccc1[N-]C(=O)[N-]CC(=O)[N-]Cc1ccc(S(=O)(=O)N2CCOCC2)cc1 (3D coordinates assigned)
Cc1ccccc1[N-]C(=O)[N-]CC(=O)[N-]Cc1ccc(S(=O)(=O)N2CCOCC2)cc1 (nonaromatic ring conformer: 60.02610815448544 kcal/mol)

> <smiles>
Cc1ccccc1NC(=O)NCC(=O)NCc1ccc(S(=O)(=O)N2CCOCC2)cc1

> <score_type>
oracle

> <origin>
adg

> <m_score__min__energy>
-15

> <m_primary>
energy

> <minimizedAffinity>
-7.10876

> <minimizedRMSD>
2.38953

> <CNNscore>
0.5758733749

> <CNNaffinity>
6.6369051933

> <CNN_VS>
3.8220169544

> <CNNaffinity_variance>
0.0473396815

$$$$
77:0


 31 33  0  0  0  0  0  0  0  0999 V2000
   58.1423   30.2594   45.2089 C   0  0  0  0  0  0  0  0  0  0  0  0
   58.4457   31.5666   45.6370 C   0  0  0  0  0  0  0  0  0  0  0  0
   59.5274   31.8093   46.4901 C   0  0  0  0  0  0  0  0  0  0  0  0
   60.3089   30.7409   46.9423 C   0  0  0  0  0  0  0  0  0  0  0  0
   60.0319   29.4418   46.5144 C   0  0  0  0  0  0  0  0  0  0  0  0
   58.9773   29.1909   45.6290 C   0  0  0  0  0  0  0  0  0  0  0  0
   55.8467   29.2581   44.9134 N   0  0  0  0  0  0  0  0  0  0  0  0
   56.9223   30.0393   44.3964 C   0  0  0  0  0  0  0  0  0  0  0  0
   56.8344   30.5115   43.2318 O   0  0  0  0  0  0  0  0  0  0  0  0
   55.0379   29.1140   44.3710 H   0  0  0  0  0  0  0  0  0  0  0  0
   59.8554   33.4505   47.0413 S   0  0  0  0  0  0  0  0  0  0  0  0
   61.2091   33.8933   46.5527 O   0  0  0  0  0  0  0  0  0  0  0  0
   58.8167   34.3713   46.4662 O   0  0  0  0  0  0  0  0  0  0  0  0
   59.7953   33.5099   48.7840 N   0  0  0  0  0  0  0  0  0  0  0  0
   58.9015   32.4549   49.2954 C   0  0  0  0  0  0  0  0  0  0  0  0
   59.0622   32.2863   50.8194 C   0  0  0  0  0  0  0  0  0  0  0  0
   59.7692   33.3750   51.3774 O   0  0  0  0  0  0  0  0  0  0  0  0
   61.0970   33.3890   50.8795 C   0  0  0  0  0  0  0  0  0  0  0  0
   61.1476   33.3442   49.3371 C   0  0  0  0  0  0  0  0  0  0  0  0
   58.7928   27.8476   45.1673 N   0  0  0  0  0  0  0  0  0  0  0  0
   58.8655   26.6934   46.0124 C   0  0  0  0  0  0  0  0  0  0  0  0
   59.9742   26.1384   46.2431 O   0  0  0  0  0  0  0  0  0  0  0  0
   57.6277   26.1886   46.6796 C   0  0  0  0  0  0  0  0  0  0  0  0
   57.0925   24.9918   45.9379 C   0  0  0  0  0  0  0  0  0  0  0  0
   57.9738   23.9752   45.5295 C   0  0  0  0  0  0  0  0  0  0  0  0
   57.5002   22.8740   44.8123 C   0  0  0  0  0  0  0  0  0  0  0  0
   56.1453   22.7816   44.4867 C   0  0  0  0  0  0  0  0  0  0  0  0
   55.2619   23.7914   44.8735 C   0  0  0  0  0  0  0  0  0  0  0  0
   55.7291   24.9023   45.5926 C   0  0  0  0  0  0  0  0  0  0  0  0
   54.8432   25.9152   45.9625 O   0  0  0  0  0  0  0  0  0  0  0  0
   53.9373   25.8527   45.7314 H   0  0  0  0  0  0  0  0  0  0  0  0
  7  8  1  0
  8  9  2  0
  8  1  1  0
  1  2  2  0
  2  3  1  0
  3 11  1  0
 11 12  2  0
 11 13  2  0
 11 14  1  0
 14 15  1  0
 15 16  1  0
 16 17  1  0
 17 18  1  0
 18 19  1  0
  3  4  2  0
  4  5  1  0
  5  6  2  0
  6 20  1  0
 20 21  1  0
 21 22  2  0
 21 23  1  0
 23 24  1  0
 24 25  2  0
 25 26  1  0
 26 27  2  0
 27 28  1  0
 28 29  2  0
 29 30  1  0
  6  1  1  0
 29 24  1  0
 19 14  1  0
  7 10  1  0
 30 31  1  0
M  CHG 1   7  -1
M  CHG 1  20  -1
M  END
> <UniqueID>
74

> <SMILES>
[NH-]C(=O)c1cc(S(=O)(=O)N2CCOCC2)ccc1[N-]C(=O)Cc1ccccc1O

> <Energy>
64.11622251529323

> <Genealogy>
[NH-]C(=O)c1cc(S(=O)(=O)N2CCOCC2)ccc1[N-]C(=O)Cc1ccccc1O (protonated)
[NH-]C(=O)c1cc(S(=O)(=O)N2CCOCC2)ccc1[N-]C(=O)Cc1ccccc1O (3D coordinates assigned)
[NH-]C(=O)c1cc(S(=O)(=O)N2CCOCC2)ccc1[N-]C(=O)Cc1ccccc1O (nonaromatic ring conformer: 64.11622251529323 kcal/mol)

> <smiles>
NC(=O)c1cc(S(=O)(=O)N2CCOCC2)ccc1NC(=O)Cc1ccccc1O

> <score_type>
oracle

> <origin>
adg

> <m_score__min__energy>
-14.32

> <m_primary>
energy

> <minimizedAffinity>
-9.61259

> <minimizedRMSD>
0.96146

> <CNNscore>
0.5322998762

> <CNNaffinity>
6.7322678566

> <CNN_VS>
3.5835852623

> <CNNaffinity_variance>
0.0493679605

$$$$
2:0


 32 35  0  0  0  0  0  0  0  0999 V2000
   57.9858   30.9759   45.5049 C   0  0  0  0  0  0  0  0  0  0  0  0
   56.8892   31.5385   45.2265 O   0  0  0  0  0  0  0  0  0  0  0  0
   59.0218   31.7062   46.2091 N   0  0  0  0  0  0  0  0  0  0  0  0
   59.0360   33.1410   45.8227 C   0  0  0  0  0  0  0  0  0  0  0  0
   59.8086   34.0229   46.8302 C   0  0  0  0  0  0  0  0  0  0  0  0
   60.6786   33.2050   47.6807 N   0  0  0  0  0  0  0  0  0  0  0  0
   62.1099   33.3544   47.6135 C   0  0  0  0  0  0  0  0  0  0  0  0
   62.6508   33.6700   46.5202 O   0  0  0  0  0  0  0  0  0  0  0  0
   60.0751   32.0832   48.4161 C   0  0  0  0  0  0  0  0  0  0  0  0
   58.8470   31.5402   47.6653 C   0  0  0  0  0  0  0  0  0  0  0  0
   58.8312   30.9981   46.8660 H   0  0  0  0  0  0  0  0  0  0  0  0
   62.9698   33.1383   48.7940 C   0  0  0  0  0  0  0  0  0  0  0  0
   62.8944   33.8133   49.9990 C   0  0  0  0  0  0  0  0  0  0  0  0
   63.9130   33.3161   50.7868 C   0  0  0  0  0  0  0  0  0  0  0  0
   64.5715   32.3686   50.0289 C   0  0  0  0  0  0  0  0  0  0  0  0
   63.9988   32.2689   48.8170 N   0  0  0  0  0  0  0  0  0  0  0  0
   64.2783   31.6732   48.0847 H   0  0  0  0  0  0  0  0  0  0  0  0
   58.2160   26.9660   42.8837 C   0  0  0  0  0  0  0  0  0  0  0  0
   58.2985   27.7348   43.9746 C   0  0  0  0  0  0  0  0  0  0  0  0
   58.2006   29.0783   43.9066 N   0  0  0  0  0  0  0  0  0  0  0  0
   58.1445   29.5426   45.1699 C   0  0  0  0  0  0  0  0  0  0  0  0
   58.2095   28.4902   46.0669 C   0  0  0  0  0  0  0  0  0  0  0  0
   58.3474   27.3320   45.3176 C   0  0  0  0  0  0  0  0  0  0  0  0
   58.4913   26.1134   45.8695 C   0  0  0  0  0  0  0  0  0  0  0  0
   58.1750   29.6200   43.0849 H   0  0  0  0  0  0  0  0  0  0  0  0
   57.4713   25.0545   45.8801 C   0  0  0  0  0  0  0  0  0  0  0  0
   57.7774   23.3946   45.8838 S   0  0  0  0  0  0  0  0  0  0  0  0
   56.1605   23.0132   46.1370 C   0  0  0  0  0  0  0  0  0  0  0  0
   55.7133   21.8400   46.2221 O   0  0  0  0  0  0  0  0  0  0  0  0
   55.3807   24.1081   46.2571 N   0  0  0  0  0  0  0  0  0  0  0  0
   56.1154   25.2454   46.1326 C   0  0  0  0  0  0  0  0  0  0  0  0
   55.5383   26.5030   46.2541 O   0  0  0  0  0  0  0  0  0  0  0  0
 18 19  2  0
 19 20  1  0
 20 21  1  0
 21  1  1  0
  1  2  2  0
  1  3  1  0
  3  4  1  0
  4  5  1  0
  5  6  1  0
  6  7  1  0
  7  8  2  0
  7 12  1  0
 12 13  2  0
 13 14  1  0
 14 15  2  0
 15 16  1  0
  6  9  1  0
  9 10  1  0
 21 22  2  0
 22 23  1  0
 23 24  2  0
 24 26  1  0
 26 27  1  0
 27 28  1  0
 28 29  2  0
 28 30  1  0
 30 31  1  0
 31 32  1  0
 23 19  1  0
 31 26  2  0
 10  3  1  0
 16 12  1  0
 20 25  1  0
  3 11  1  0
 16 17  1  0
M  CHG 1   3   1
M  CHG 1  30  -1
M  CHG 1  32  -1
M  END
> <UniqueID>
2

> <SMILES>
C=c1[nH]c(C(=O)[NH+]2CCN(C(=O)c3ccc[nH]3)CC2)cc1=Cc1sc(=O)[n-]c1[O-]

> <Energy>
157.41320913533193

> <Genealogy>
C=c1[nH]c(C(=O)[NH+]2CCN(C(=O)c3ccc[nH]3)CC2)cc1=Cc1sc(=O)[n-]c1[O-] (protonated)
C=c1[nH]c(C(=O)[NH+]2CCN(C(=O)c3ccc[nH]3)CC2)cc1=Cc1sc(=O)[n-]c1[O-] (3D coordinates assigned)
C=c1[nH]c(C(=O)[NH+]2CCN(C(=O)c3ccc[nH]3)CC2)cc1=Cc1sc(=O)[n-]c1[O-] (nonaromatic ring conformer: 157.41320913533193 kcal/mol)

> <smiles>
C=c1[nH]c(C(=O)N2CCN(C(=O)c3ccc[nH]3)CC2)cc1=Cc1sc(=O)[nH]c1O

> <score_type>
oracle

> <origin>
adg

> <m_score__min__energy>
-14.56

> <m_primary>
energy

> <minimizedAffinity>
-8.37986

> <minimizedRMSD>
0.53264

> <CNNscore>
0.3980655670

> <CNNaffinity>
7.1147599220

> <CNN_VS>
2.8321409225

> <CNNaffinity_variance>
0.4817589223

$$$$
8:0


 23 25  0  0  0  0  0  0  0  0999 V2000
   58.9953   32.5060   47.0620 C   0  0  0  0  0  0  0  0  0  0  0  0
   59.2953   30.9875   47.7227 S   0  0  0  0  0  0  0  0  0  0  0  0
   58.4629   30.2062   46.4879 C   0  0  0  0  0  0  0  0  0  0  0  0
   58.3269   28.9153   46.4256 N   0  0  0  0  0  0  0  0  0  0  0  0
   57.9582   31.0710   45.5778 N   0  0  0  0  0  0  0  0  0  0  0  0
   58.2561   32.3575   45.8974 C   0  0  0  0  0  0  0  0  0  0  0  0
   57.8893   28.1638   45.2824 C   0  0  0  0  0  0  0  0  0  0  0  0
   56.9970   28.6089   44.5108 O   0  0  0  0  0  0  0  0  0  0  0  0
   58.5382   26.8532   44.9775 C   0  0  0  0  0  0  0  0  0  0  0  0
   57.7915   25.7452   45.6505 C   0  0  0  0  0  0  0  0  0  0  0  0
   58.3249   24.5480   45.9521 N   0  0  0  0  0  0  0  0  0  0  0  0
   57.3208   23.9143   46.5947 C   0  0  0  0  0  0  0  0  0  0  0  0
   57.4330   22.7410   47.0375 O   0  0  0  0  0  0  0  0  0  0  0  0
   56.1870   24.6355   46.7312 N   0  0  0  0  0  0  0  0  0  0  0  0
   56.5045   25.7952   46.1323 C   0  0  0  0  0  0  0  0  0  0  0  0
   55.6415   26.8782   46.0349 O   0  0  0  0  0  0  0  0  0  0  0  0
   59.5424   34.0582   47.7626 S   0  0  0  0  0  0  0  0  0  0  0  0
   62.6644   32.5576   49.7952 C   0  0  0  0  0  0  0  0  0  0  0  0
   61.4478   33.0540   49.4463 N   0  0  0  0  0  0  0  0  0  0  0  0
   61.1595   33.4028   48.1625 C   0  0  0  0  0  0  0  0  0  0  0  0
   62.1266   33.2486   47.1630 C   0  0  0  0  0  0  0  0  0  0  0  0
   63.3824   32.7406   47.5017 C   0  0  0  0  0  0  0  0  0  0  0  0
   63.6570   32.3919   48.8256 C   0  0  0  0  0  0  0  0  0  0  0  0
 18 19  2  0
 19 20  1  0
 20 17  1  0
 17  1  1  0
  1  2  1  0
  2  3  1  0
  3  4  2  0
  4  7  1  0
  7  8  2  0
  7  9  1  0
  9 10  1  0
 10 11  1  0
 11 12  1  0
 12 13  2  0
 12 14  1  0
 14 15  1  0
 15 16  1  0
  3  5  1  0
  5  6  1  0
 20 21  2  0
 21 22  1  0
 22 23  2  0
 23 18  1  0
  6  1  2  0
 15 10  2  0
M  CHG 1   5  -1
M  CHG 1  11  -1
M  CHG 1  14  -1
M  CHG 1  16  -1
M  END
> <UniqueID>
8

> <SMILES>
O=C(Cc1[n-]c(=O)[n-]c1[O-])/N=c1\[n-]cc(Sc2ccccn2)s1

> <Energy>
88.57993214729758

> <Genealogy>
O=C(Cc1[n-]c(=O)[n-]c1[O-])N=c1[n-]cc(Sc2ccccn2)s1 (protonated)
O=C(Cc1[n-]c(=O)[n-]c1[O-])/N=c1\[n-]cc(Sc2ccccn2)s1 (cis-trans isomerization)
O=C(Cc1[n-]c(=O)[n-]c1[O-])/N=c1\[n-]cc(Sc2ccccn2)s1 (3D coordinates assigned)
O=C(Cc1[n-]c(=O)[n-]c1[O-])/N=c1\[n-]cc(Sc2ccccn2)s1 (optimized conformer: 88.57993214729758 kcal/mol)

> <smiles>
O=C(Cc1[nH]c(=O)[nH]c1O)N=c1[nH]cc(Sc2ccccn2)s1

> <score_type>
oracle

> <origin>
adg

> <m_score__min__energy>
-17.920000000000002

> <m_primary>
energy

> <minimizedAffinity>
-6.60217

> <minimizedRMSD>
0.89209

> <CNNscore>
0.6577872038

> <CNNaffinity>
7.0047898293

> <CNN_VS>
4.6076612473

> <CNNaffinity_variance>
1.1581352949

$$$$
20:0


 29 32  0  0  0  0  0  0  0  0999 V2000
   59.6250   28.3058   47.0733 C   0  0  0  0  0  0  0  0  0  0  0  0
   58.8615   28.3146   45.9686 C   0  0  0  0  0  0  0  0  0  0  0  0
   58.3289   27.2012   45.2974 C   0  0  0  0  0  0  0  0  0  0  0  0
   58.5784   25.8839   45.4317 C   0  0  0  0  0  0  0  0  0  0  0  0
   57.4217   27.7006   44.3782 C   0  0  0  0  0  0  0  0  0  0  0  0
   57.4808   29.0761   44.4643 C   0  0  0  0  0  0  0  0  0  0  0  0
   56.6664   30.0155   43.6250 C   0  0  0  0  0  0  0  0  0  0  0  0
   58.3512   29.4512   45.4283 N   0  0  0  0  0  0  0  0  0  0  0  0
   57.6396   24.8817   45.9577 C   0  0  0  0  0  0  0  0  0  0  0  0
   57.9980   23.6320   46.2962 N   0  0  0  0  0  0  0  0  0  0  0  0
   56.8739   23.1190   46.8409 C   0  0  0  0  0  0  0  0  0  0  0  0
   56.8064   21.9396   47.2718 O   0  0  0  0  0  0  0  0  0  0  0  0
   55.8311   23.9753   46.8986 N   0  0  0  0  0  0  0  0  0  0  0  0
   56.3361   25.0922   46.3505 C   0  0  0  0  0  0  0  0  0  0  0  0
   55.6294   26.2830   46.2367 O   0  0  0  0  0  0  0  0  0  0  0  0
   58.6440   30.8056   45.8154 C   0  0  0  0  0  0  0  0  0  0  0  0
   58.2153   31.8722   45.0169 C   0  0  0  0  0  0  0  0  0  0  0  0
   58.4962   33.1874   45.3894 C   0  0  0  0  0  0  0  0  0  0  0  0
   59.2125   33.4604   46.5669 C   0  0  0  0  0  0  0  0  0  0  0  0
   59.5304   34.8948   46.9032 C   0  0  0  0  0  0  0  0  0  0  0  0
   59.6145   32.3868   47.3986 C   0  0  0  0  0  0  0  0  0  0  0  0
   59.3443   31.0669   46.9999 C   0  0  0  0  0  0  0  0  0  0  0  0
   60.3209   32.5976   48.6805 C   0  0  0  0  0  0  0  0  0  0  0  0
   59.6609   33.0054   49.6785 O   0  0  0  0  0  0  0  0  0  0  0  0
   61.7500   32.3942   48.7741 N   0  0  0  0  0  0  0  0  0  0  0  0
   62.5230   33.6444   48.7671 C   0  0  0  0  0  0  0  0  0  0  0  0
   63.1928   33.3091   47.4449 C   0  0  0  0  0  0  0  0  0  0  0  0
   62.3769   32.0277   47.4962 C   0  0  0  0  0  0  0  0  0  0  0  0
   62.3925   33.1373   48.7089 H   0  0  0  0  0  0  0  0  0  0  0  0
  1  2  2  0
  2  3  1  0
  3  4  2  0
  4  9  1  0
  9 10  1  0
 10 11  1  0
 11 12  2  0
 11 13  1  0
 13 14  1  0
 14 15  1  0
  3  5  1  0
  5  6  2  0
  6  7  1  0
  6  8  1  0
  8 16  1  0
 16 17  2  0
 17 18  1  0
 18 19  2  0
 19 20  1  0
 19 21  1  0
 21 23  1  0
 23 24  2  0
 23 25  1  0
 25 26  1  0
 26 27  1  0
 27 28  1  0
 21 22  2  0
  8  2  1  0
 22 16  1  0
 14  9  2  0
 28 25  1  0
 25 29  1  0
M  CHG 1  10  -1
M  CHG 1  13  -1
M  CHG 1  15  -1
M  CHG 1  25   1
M  END
> <UniqueID>
19

> <SMILES>
C=c1c(=Cc2[n-]c(=O)[n-]c2[O-])cc(C)n1-c1ccc(C)c(C(=O)[NH+]2CCC2)c1

> <Energy>
205.9853757021666

> <Genealogy>
C=c1c(=Cc2[n-]c(=O)[n-]c2[O-])cc(C)n1-c1ccc(C)c(C(=O)[NH+]2CCC2)c1 (protonated)
C=c1c(=Cc2[n-]c(=O)[n-]c2[O-])cc(C)n1-c1ccc(C)c(C(=O)[NH+]2CCC2)c1 (3D coordinates assigned)
C=c1c(=Cc2[n-]c(=O)[n-]c2[O-])cc(C)n1-c1ccc(C)c(C(=O)[NH+]2CCC2)c1 (nonaromatic ring conformer: 205.9853757021666 kcal/mol)

> <smiles>
C=c1c(=Cc2[nH]c(=O)[nH]c2O)cc(C)n1-c1ccc(C)c(C(=O)N2CCC2)c1

> <score_type>
oracle

> <origin>
adg

> <m_score__min__energy>
-15.029999999999999

> <m_primary>
energy

> <minimizedAffinity>
-8.98576

> <minimizedRMSD>
0.94121

> <CNNscore>
0.5321966410

> <CNNaffinity>
7.0613379478

> <CNN_VS>
3.7580204010

> <CNNaffinity_variance>
0.0190449748

$$$$
44:0


 34 37  0  0  0  0  0  0  0  0999 V2000
   59.4958   31.3096   46.9111 C   0  0  0  0  0  0  0  0  0  0  0  0
   58.4960   32.2683   46.7018 C   0  0  0  0  0  0  0  0  0  0  0  0
   58.7989   33.6288   46.7877 C   0  0  0  0  0  0  0  0  0  0  0  0
   60.1011   34.0426   47.0818 C   0  0  0  0  0  0  0  0  0  0  0  0
   61.1181   33.0941   47.2935 C   0  0  0  0  0  0  0  0  0  0  0  0
   60.8024   31.7256   47.2080 C   0  0  0  0  0  0  0  0  0  0  0  0
   58.5253   29.8231   44.5350 C   0  0  0  0  0  0  0  0  0  0  0  0
   58.7970   29.2262   45.7059 C   0  0  0  0  0  0  0  0  0  0  0  0
   58.5805   27.8795   46.0412 C   0  0  0  0  0  0  0  0  0  0  0  0
   58.2476   26.8201   45.2786 C   0  0  0  0  0  0  0  0  0  0  0  0
   58.7816   27.7833   47.4094 C   0  0  0  0  0  0  0  0  0  0  0  0
   59.1723   29.0306   47.8457 C   0  0  0  0  0  0  0  0  0  0  0  0
   59.5023   29.3686   49.2684 C   0  0  0  0  0  0  0  0  0  0  0  0
   59.1826   29.9087   46.8166 N   0  0  0  0  0  0  0  0  0  0  0  0
   57.6728   25.5585   45.7681 C   0  0  0  0  0  0  0  0  0  0  0  0
   58.3444   24.3942   45.7903 N   0  0  0  0  0  0  0  0  0  0  0  0
   57.4108   23.5015   46.1848 C   0  0  0  0  0  0  0  0  0  0  0  0
   57.6648   22.2783   46.3401 O   0  0  0  0  0  0  0  0  0  0  0  0
   56.1797   24.0190   46.3858 N   0  0  0  0  0  0  0  0  0  0  0  0
   56.3591   25.3195   46.1031 C   0  0  0  0  0  0  0  0  0  0  0  0
   55.3366   26.2622   46.1209 O   0  0  0  0  0  0  0  0  0  0  0  0
   62.5010   33.5271   47.6015 C   0  0  0  0  0  0  0  0  0  0  0  0
   63.3863   33.5018   46.7036 O   0  0  0  0  0  0  0  0  0  0  0  0
   62.8404   33.9741   48.9173 N   0  0  0  0  0  0  0  0  0  0  0  0
   63.0848   32.8834   50.2378 S   0  0  0  0  0  0  0  0  0  0  0  0
   63.6860   31.6055   49.7238 O   0  0  0  0  0  0  0  0  0  0  0  0
   64.0367   33.4951   51.2276 O   0  0  0  0  0  0  0  0  0  0  0  0
   61.5372   32.5295   51.0009 C   0  0  0  0  0  0  0  0  0  0  0  0
   61.4078   31.4469   51.8831 C   0  0  0  0  0  0  0  0  0  0  0  0
   60.1810   31.1856   52.4999 C   0  0  0  0  0  0  0  0  0  0  0  0
   59.0763   32.0070   52.2406 C   0  0  0  0  0  0  0  0  0  0  0  0
   57.5391   31.6815   53.0193 Cl  0  0  0  0  0  0  0  0  0  0  0  0
   59.2034   33.0902   51.3656 C   0  0  0  0  0  0  0  0  0  0  0  0
   60.4311   33.3529   50.7480 C   0  0  0  0  0  0  0  0  0  0  0  0
  7  8  2  0
  8  9  1  0
  9 10  2  0
 10 15  1  0
 15 16  1  0
 16 17  1  0
 17 18  2  0
 17 19  1  0
 19 20  1  0
 20 21  1  0
  9 11  1  0
 11 12  2  0
 12 13  1  0
 12 14  1  0
 14  1  1  0
  1  2  2  0
  2  3  1  0
  3  4  2  0
  4  5  1  0
  5 22  1  0
 22 23  2  0
 22 24  1  0
 24 25  1  0
 25 26  2  0
 25 27  2  0
 25 28  1  0
 28 29  2  0
 29 30  1  0
 30 31  2  0
 31 32  1  0
 31 33  1  0
 33 34  2  0
  5  6  2  0
 14  8  1  0
  6  1  1  0
 20 15  2  0
 34 28  1  0
M  CHG 1  16  -1
M  CHG 1  19  -1
M  CHG 1  21  -1
M  CHG 1  24  -1
M  END
> <UniqueID>
42

> <SMILES>
C=c1c(=Cc2[n-]c(=O)[n-]c2[O-])cc(C)n1-c1cccc(C(=O)[N-]S(=O)(=O)c2ccc(Cl)cc2)c1

> <Energy>
131.81622066116608

> <Genealogy>
C=c1c(=Cc2[n-]c(=O)[n-]c2[O-])cc(C)n1-c1cccc(C(=O)[N-]S(=O)(=O)c2ccc(Cl)cc2)c1 (protonated)
C=c1c(=Cc2[n-]c(=O)[n-]c2[O-])cc(C)n1-c1cccc(C(=O)[N-]S(=O)(=O)c2ccc(Cl)cc2)c1 (3D coordinates assigned)
C=c1c(=Cc2[n-]c(=O)[n-]c2[O-])cc(C)n1-c1cccc(C(=O)[N-]S(=O)(=O)c2ccc(Cl)cc2)c1 (optimized conformer: 131.81622066116608 kcal/mol)

> <smiles>
C=c1c(=Cc2[nH]c(=O)[nH]c2O)cc(C)n1-c1cccc(C(=O)NS(=O)(=O)c2ccc(Cl)cc2)c1

> <score_type>
oracle

> <origin>
adg

> <m_score__min__energy>
-18.98

> <m_primary>
energy

> <minimizedAffinity>
-9.13758

> <minimizedRMSD>
0.96525

> <CNNscore>
0.3655255139

> <CNNaffinity>
7.2445721626

> <CNN_VS>
2.6480760574

> <CNNaffinity_variance>
0.0382825360

$$$$
49:0


 34 37  0  0  0  0  0  0  0  0999 V2000
   60.1074   32.4105   46.7662 C   0  0  0  0  0  0  0  0  0  0  0  0
   59.7579   31.4942   47.6853 C   0  0  0  0  0  0  0  0  0  0  0  0
   59.5053   30.1295   47.4544 C   0  0  0  0  0  0  0  0  0  0  0  0
   59.6765   29.3647   46.3577 C   0  0  0  0  0  0  0  0  0  0  0  0
   59.0149   29.6207   48.6424 C   0  0  0  0  0  0  0  0  0  0  0  0
   59.0381   30.6471   49.5605 C   0  0  0  0  0  0  0  0  0  0  0  0
   58.5554   30.5209   50.9749 C   0  0  0  0  0  0  0  0  0  0  0  0
   59.4906   31.7893   48.9890 N   0  0  0  0  0  0  0  0  0  0  0  0
   59.1494   27.9990   46.1674 C   0  0  0  0  0  0  0  0  0  0  0  0
   57.9237   27.7747   45.5175 C   0  0  0  0  0  0  0  0  0  0  0  0
   57.1538   28.8419   45.0663 O   0  0  0  0  0  0  0  0  0  0  0  0
   57.4837   26.5056   45.3198 N   0  0  0  0  0  0  0  0  0  0  0  0
   58.2183   25.4384   45.7248 C   0  0  0  0  0  0  0  0  0  0  0  0
   57.7899   24.2713   45.5337 O   0  0  0  0  0  0  0  0  0  0  0  0
   59.4191   25.6292   46.3292 N   0  0  0  0  0  0  0  0  0  0  0  0
   59.9023   26.8789   46.5516 C   0  0  0  0  0  0  0  0  0  0  0  0
   61.0224   27.0191   47.1099 O   0  0  0  0  0  0  0  0  0  0  0  0
   59.5862   33.0929   49.6682 C   0  0  0  0  0  0  0  0  0  0  0  0
   60.9306   33.2556   50.3304 C   0  0  0  0  0  0  0  0  0  0  0  0
   61.1063   32.9324   51.6813 C   0  0  0  0  0  0  0  0  0  0  0  0
   62.3524   33.0972   52.2847 C   0  0  0  0  0  0  0  0  0  0  0  0
   63.4322   33.5726   51.5280 C   0  0  0  0  0  0  0  0  0  0  0  0
   63.2398   33.8975   50.2157 N   0  0  0  0  0  0  0  0  0  0  0  0
   62.0311   33.7434   49.6101 C   0  0  0  0  0  0  0  0  0  0  0  0
   63.9955   34.2526   49.6940 H   0  0  0  0  0  0  0  0  0  0  0  0
   64.7580   33.7710   52.1528 C   0  0  0  0  0  0  0  0  0  0  0  0
   65.2038   34.9440   52.2759 O   0  0  0  0  0  0  0  0  0  0  0  0
   65.5552   32.6570   52.6000 N   0  0  0  0  0  0  0  0  0  0  0  0
   66.4307   32.7927   53.7684 C   0  0  0  0  0  0  0  0  0  0  0  0
   67.8993   32.5254   53.3815 C   0  0  0  0  0  0  0  0  0  0  0  0
   68.0597   31.6073   52.2350 N   0  0  0  0  0  0  0  0  0  0  0  0
   66.9365   30.6712   52.0957 C   0  0  0  0  0  0  0  0  0  0  0  0
   65.6397   31.4341   51.7895 C   0  0  0  0  0  0  0  0  0  0  0  0
   68.9174   31.0706   52.3645 H   0  0  0  0  0  0  0  0  0  0  0  0
  1  2  2  0
  2  3  1  0
  3  4  2  0
  4  9  1  0
  9 10  2  0
 10 11  1  0
 10 12  1  0
 12 13  1  0
 13 14  2  0
 13 15  1  0
 15 16  1  0
 16 17  2  0
  3  5  1  0
  5  6  2  0
  6  7  1  0
  6  8  1  0
  8 18  1  0
 18 19  1  0
 19 20  2  0
 20 21  1  0
 21 22  2  0
 22 26  1  0
 26 27  2  0
 26 28  1  0
 28 29  1  0
 29 30  1  0
 30 31  1  0
 31 32  1  0
 32 33  1  0
 22 23  1  0
 23 24  2  0
  8  2  1  0
 24 19  1  0
 16  9  1  0
 33 28  1  0
 31 34  1  0
 23 25  1  0
M  CHG 1  11  -1
M  CHG 1  12  -1
M  CHG 1  15  -1
M  CHG 1  23   1
M  END
> <UniqueID>
47

> <SMILES>
C=c1c(=Cc2c([O-])[n-]c(=O)[n-]c2=O)cc(C)n1Cc1ccc(C(=O)N2CCNCC2)[nH+]c1

> <Energy>
109.94050918202423

> <Genealogy>
C=c1c(=Cc2c([O-])[n-]c(=O)[n-]c2=O)cc(C)n1Cc1ccc(C(=O)N2CCNCC2)[nH+]c1 (protonated)
C=c1c(=Cc2c([O-])[n-]c(=O)[n-]c2=O)cc(C)n1Cc1ccc(C(=O)N2CCNCC2)[nH+]c1 (3D coordinates assigned)
C=c1c(=Cc2c([O-])[n-]c(=O)[n-]c2=O)cc(C)n1Cc1ccc(C(=O)N2CCNCC2)[nH+]c1 (nonaromatic ring conformer: 109.94050918202423 kcal/mol)

> <smiles>
C=c1c(=Cc2c(O)[nH]c(=O)[nH]c2=O)cc(C)n1Cc1ccc(C(=O)N2CCNCC2)nc1

> <score_type>
oracle

> <origin>
adg

> <m_score__min__energy>
-14.869999999999999

> <m_primary>
energy

> <minimizedAffinity>
-7.14890

> <minimizedRMSD>
1.94810

> <CNNscore>
0.1561363190

> <CNNaffinity>
6.6782164574

> <CNN_VS>
1.0427120924

> <CNNaffinity_variance>
0.2503727973

$$$$
50:0


 34 37  0  0  0  0  0  0  0  0999 V2000
   57.2022   30.9677   44.2698 S   0  0  0  0  0  0  0  0  0  0  0  0
   55.8754   30.4297   43.8113 O   0  0  0  0  0  0  0  0  0  0  0  0
   57.9238   31.5412   43.0826 O   0  0  0  0  0  0  0  0  0  0  0  0
   58.1624   29.6875   44.9998 C   0  0  0  0  0  0  0  0  0  0  0  0
   58.6875   28.6538   44.2121 C   0  0  0  0  0  0  0  0  0  0  0  0
   59.3750   27.5947   44.8097 C   0  0  0  0  0  0  0  0  0  0  0  0
   59.5388   27.5515   46.2041 C   0  0  0  0  0  0  0  0  0  0  0  0
   59.0226   28.5938   46.9891 C   0  0  0  0  0  0  0  0  0  0  0  0
   58.3363   29.6535   46.3897 C   0  0  0  0  0  0  0  0  0  0  0  0
   60.2086   26.3705   46.8588 C   0  0  0  0  0  0  0  0  0  0  0  0
   59.2144   25.4127   47.3445 N   0  0  0  0  0  0  0  0  0  0  0  0
   58.2321   24.9318   46.6400 C   0  0  0  0  0  0  0  0  0  0  0  0
   58.4026   23.8293   45.8572 N   0  0  0  0  0  0  0  0  0  0  0  0
   57.3891   23.3399   45.0962 C   0  0  0  0  0  0  0  0  0  0  0  0
   57.6163   22.1371   44.2364 C   0  0  0  0  0  0  0  0  0  0  0  0
   56.1423   23.9719   45.1167 C   0  0  0  0  0  0  0  0  0  0  0  0
   55.9792   25.0938   45.9306 C   0  0  0  0  0  0  0  0  0  0  0  0
   54.8708   25.6872   45.9778 O   0  0  0  0  0  0  0  0  0  0  0  0
   57.0220   25.5489   46.6745 N   0  0  0  0  0  0  0  0  0  0  0  0
   56.9351   32.1916   45.4620 N   0  0  0  0  0  0  0  0  0  0  0  0
   59.4170   34.9748   45.4155 C   0  0  0  0  0  0  0  0  0  0  0  0
   58.3996   34.1060   45.0120 C   0  0  0  0  0  0  0  0  0  0  0  0
   57.9838   33.0719   45.8592 C   0  0  0  0  0  0  0  0  0  0  0  0
   58.5976   32.9001   47.1045 C   0  0  0  0  0  0  0  0  0  0  0  0
   59.6414   33.7515   47.5044 C   0  0  0  0  0  0  0  0  0  0  0  0
   60.0320   34.8039   46.6589 C   0  0  0  0  0  0  0  0  0  0  0  0
   60.3160   33.5544   48.8047 C   0  0  0  0  0  0  0  0  0  0  0  0
   59.8396   34.1168   49.8287 O   0  0  0  0  0  0  0  0  0  0  0  0
   61.5061   32.7480   48.9218 N   0  0  0  0  0  0  0  0  0  0  0  0
   61.8440   32.0673   50.1756 C   0  0  0  0  0  0  0  0  0  0  0  0
   63.2784   32.4346   50.5713 C   0  0  0  0  0  0  0  0  0  0  0  0
   64.1796   32.1628   49.5128 O   0  0  0  0  0  0  0  0  0  0  0  0
   63.8796   32.9785   48.3944 C   0  0  0  0  0  0  0  0  0  0  0  0
   62.4886   32.6572   47.8367 C   0  0  0  0  0  0  0  0  0  0  0  0
 21 22  2  0
 22 23  1  0
 23 20  1  0
 20  1  1  0
  1  2  2  0
  1  3  2  0
  1  4  1  0
  4  5  2  0
  5  6  1  0
  6  7  2  0
  7 10  1  0
 10 11  1  0
 11 12  2  0
 12 13  1  0
 13 14  1  0
 14 15  1  0
 14 16  2  0
 16 17  1  0
 17 18  2  0
 17 19  1  0
  7  8  1  0
  8  9  2  0
 23 24  2  0
 24 25  1  0
 25 27  1  0
 27 28  2  0
 27 29  1  0
 29 30  1  0
 30 31  1  0
 31 32  1  0
 32 33  1  0
 33 34  1  0
 25 26  2  0
 26 21  1  0
  9  4  1  0
 34 29  1  0
 19 12  1  0
M  CHG 1  13  -1
M  CHG 1  19  -1
M  CHG 1  20  -1
M  END
> <UniqueID>
48

> <SMILES>
Cc1cc(=O)[n-]/c(=N/Cc2ccc(S(=O)(=O)[N-]c3cccc(C(=O)N4CCOCC4)c3)cc2)[n-]1

> <Energy>
68.368658081748

> <Genealogy>
Cc1cc(=O)[n-]c(=NCc2ccc(S(=O)(=O)[N-]c3cccc(C(=O)N4CCOCC4)c3)cc2)[n-]1 (protonated)
Cc1cc(=O)[n-]/c(=N/Cc2ccc(S(=O)(=O)[N-]c3cccc(C(=O)N4CCOCC4)c3)cc2)[n-]1 (cis-trans isomerization)
Cc1cc(=O)[n-]/c(=N/Cc2ccc(S(=O)(=O)[N-]c3cccc(C(=O)N4CCOCC4)c3)cc2)[n-]1 (3D coordinates assigned)
Cc1cc(=O)[n-]/c(=N/Cc2ccc(S(=O)(=O)[N-]c3cccc(C(=O)N4CCOCC4)c3)cc2)[n-]1 (nonaromatic ring conformer: 68.368658081748 kcal/mol)

> <smiles>
Cc1cc(=O)[nH]c(=NCc2ccc(S(=O)(=O)Nc3cccc(C(=O)N4CCOCC4)c3)cc2)[nH]1

> <score_type>
oracle

> <origin>
adg

> <m_score__min__energy>
-14.99

> <m_primary>
energy

> <minimizedAffinity>
-8.84239

> <minimizedRMSD>
0.77207

> <CNNscore>
0.3406118155

> <CNNaffinity>
6.9240155220

> <CNN_VS>
2.3584015369

> <CNNaffinity_variance>
0.1306911558

$$$$
76:0


 26 28  0  0  0  0  0  0  0  0999 V2000
   59.6552   31.5467   46.8441 N   0  0  0  0  0  0  0  0  0  0  0  0
   58.8681   31.9682   45.8270 C   0  0  0  0  0  0  0  0  0  0  0  0
   58.4690   33.3919   45.5840 C   0  0  0  0  0  0  0  0  0  0  0  0
   58.4896   30.8996   45.0369 C   0  0  0  0  0  0  0  0  0  0  0  0
   59.0628   29.7792   45.6039 C   0  0  0  0  0  0  0  0  0  0  0  0
   59.7851   30.2048   46.7112 C   0  0  0  0  0  0  0  0  0  0  0  0
   60.6632   29.3445   47.5736 C   0  0  0  0  0  0  0  0  0  0  0  0
   59.0076   28.4197   45.0366 C   0  0  0  0  0  0  0  0  0  0  0  0
   58.4174   27.3348   45.6181 C   0  0  0  0  0  0  0  0  0  0  0  0
   59.1908   26.3069   46.2515 C   0  0  0  0  0  0  0  0  0  0  0  0
   60.5269   26.3347   46.3904 C   0  0  0  0  0  0  0  0  0  0  0  0
   58.5550   25.2328   46.7880 N   0  0  0  0  0  0  0  0  0  0  0  0
   57.2124   25.0929   46.7576 C   0  0  0  0  0  0  0  0  0  0  0  0
   56.6828   24.0748   47.2785 O   0  0  0  0  0  0  0  0  0  0  0  0
   56.4432   26.0420   46.1717 N   0  0  0  0  0  0  0  0  0  0  0  0
   55.0750   25.8803   46.1427 O   0  0  0  0  0  0  0  0  0  0  0  0
   57.0021   27.1409   45.5929 C   0  0  0  0  0  0  0  0  0  0  0  0
   56.2408   27.9624   45.0136 O   0  0  0  0  0  0  0  0  0  0  0  0
   63.5415   33.9147   48.5902 O   0  0  0  0  0  0  0  0  0  0  0  0
   62.2035   33.5502   48.7204 C   0  0  0  0  0  0  0  0  0  0  0  0
   61.4493   33.9777   49.8220 C   0  0  0  0  0  0  0  0  0  0  0  0
   60.1080   33.6048   49.9388 C   0  0  0  0  0  0  0  0  0  0  0  0
   59.5144   32.8042   48.9588 C   0  0  0  0  0  0  0  0  0  0  0  0
   60.2617   32.3725   47.8523 C   0  0  0  0  0  0  0  0  0  0  0  0
   61.6092   32.7485   47.7392 C   0  0  0  0  0  0  0  0  0  0  0  0
   63.9465   34.4513   49.2430 H   0  0  0  0  0  0  0  0  0  0  0  0
 19 20  1  0
 20 21  2  0
 21 22  1  0
 22 23  2  0
 23 24  1  0
 24  1  1  0
  1  2  1  0
  2  3  1  0
  2  4  2  0
  4  5  1  0
  5  8  1  0
  8  9  2  0
  9 10  1  0
 10 11  2  0
 10 12  1  0
 12 13  1  0
 13 14  2  0
 13 15  1  0
 15 16  1  0
 15 17  1  0
 17 18  2  0
  5  6  2  0
  6  7  1  0
 24 25  2  0
 25 20  1  0
  6  1  1  0
 17  9  1  0
 19 26  1  0
M  CHG 1  12  -1
M  CHG 1  16  -1
M  END
> <UniqueID>
73

> <SMILES>
C=c1[n-]c(=O)n([O-])c(=O)/c1=C\c1cc(C)n(-c2cccc(O)c2)c1C

> <Energy>
95.02887833695844

> <Genealogy>
C=c1[n-]c(=O)n([O-])c(=O)c1=Cc1cc(C)n(-c2cccc(O)c2)c1C (protonated)
C=c1[n-]c(=O)n([O-])c(=O)/c1=C\c1cc(C)n(-c2cccc(O)c2)c1C (cis-trans isomerization)
C=c1[n-]c(=O)n([O-])c(=O)/c1=C\c1cc(C)n(-c2cccc(O)c2)c1C (3D coordinates assigned)
C=c1[n-]c(=O)n([O-])c(=O)/c1=C\c1cc(C)n(-c2cccc(O)c2)c1C (optimized conformer: 95.02887833695844 kcal/mol)

> <smiles>
C=c1[nH]c(=O)n(O)c(=O)c1=Cc1cc(C)n(-c2cccc(O)c2)c1C

> <score_type>
oracle

> <origin>
adg

> <m_score__min__energy>
-14.58

> <m_primary>
energy

> <minimizedAffinity>
-7.48456

> <minimizedRMSD>
0.81260

> <CNNscore>
0.4767927527

> <CNNaffinity>
7.0228972435

> <CNN_VS>
3.3484663963

> <CNNaffinity_variance>
0.5114092827

$$$$
2:0


 42 46  0  0  0  0  0  0  0  0999 V2000
   59.2195   32.2969   46.8064 C   0  0  0  0  0  0  0  0  0  0  0  0
   60.0294   31.4754   47.4947 C   0  0  0  0  0  0  0  0  0  0  0  0
   60.3167   30.1368   47.1788 C   0  0  0  0  0  0  0  0  0  0  0  0
   60.0325   29.3972   46.0892 C   0  0  0  0  0  0  0  0  0  0  0  0
   61.0332   29.6314   48.2458 C   0  0  0  0  0  0  0  0  0  0  0  0
   61.2203   30.6682   49.1347 C   0  0  0  0  0  0  0  0  0  0  0  0
   60.6176   31.7996   48.6819 N   0  0  0  0  0  0  0  0  0  0  0  0
   59.1055   28.2485   46.0401 C   0  0  0  0  0  0  0  0  0  0  0  0
   57.7518   28.4156   45.7039 C   0  0  0  0  0  0  0  0  0  0  0  0
   57.2332   29.6806   45.4461 O   0  0  0  0  0  0  0  0  0  0  0  0
   56.9366   27.3317   45.6211 N   0  0  0  0  0  0  0  0  0  0  0  0
   57.4103   26.0789   45.8408 C   0  0  0  0  0  0  0  0  0  0  0  0
   56.6360   25.0897   45.7630 O   0  0  0  0  0  0  0  0  0  0  0  0
   58.7220   25.8887   46.1409 N   0  0  0  0  0  0  0  0  0  0  0  0
   59.5791   26.9397   46.2350 C   0  0  0  0  0  0  0  0  0  0  0  0
   60.7912   26.7277   46.5028 O   0  0  0  0  0  0  0  0  0  0  0  0
   61.9814   30.5386   50.4017 C   0  0  0  0  0  0  0  0  0  0  0  0
   62.8599   31.4032   50.6688 O   0  0  0  0  0  0  0  0  0  0  0  0
   61.7395   29.4166   51.2997 N   0  0  0  0  0  0  0  0  0  0  0  0
   62.3017   29.6366   52.6572 C   0  0  0  0  0  0  0  0  0  0  0  0
   61.3811   30.5025   53.5308 C   0  0  0  0  0  0  0  0  0  0  0  0
   60.0213   29.9479   53.5698 N   0  0  0  0  0  0  0  0  0  0  0  0
   59.6915   28.8186   52.6904 C   0  0  0  0  0  0  0  0  0  0  0  0
   60.2912   29.0426   51.2944 C   0  0  0  0  0  0  0  0  0  0  0  0
   61.2591   30.0176   51.9140 H   0  0  0  0  0  0  0  0  0  0  0  0
   59.0805   30.4188   54.5619 C   0  0  0  0  0  0  0  0  0  0  0  0
   59.4763   31.3590   55.5307 C   0  0  0  0  0  0  0  0  0  0  0  0
   58.5724   31.8115   56.4921 C   0  0  0  0  0  0  0  0  0  0  0  0
   57.2614   31.3365   56.5023 C   0  0  0  0  0  0  0  0  0  0  0  0
   56.8343   30.4119   55.5349 C   0  0  0  0  0  0  0  0  0  0  0  0
   57.7572   29.9396   54.5841 C   0  0  0  0  0  0  0  0  0  0  0  0
   55.4279   29.8712   55.5820 C   0  0  0  0  0  0  0  0  0  0  0  0
   55.4436   28.5226   55.8942 F   0  0  0  0  0  0  0  0  0  0  0  0
   54.8322   30.0405   54.3447 F   0  0  0  0  0  0  0  0  0  0  0  0
   54.6729   30.5289   56.5395 F   0  0  0  0  0  0  0  0  0  0  0  0
   60.4875   33.0633   49.4336 C   0  0  0  0  0  0  0  0  0  0  0  0
   59.4777   32.9222   50.5469 C   0  0  0  0  0  0  0  0  0  0  0  0
   58.4498   31.9657   50.4631 C   0  0  0  0  0  0  0  0  0  0  0  0
   57.5004   31.8590   51.4831 C   0  0  0  0  0  0  0  0  0  0  0  0
   57.5754   32.6931   52.5998 C   0  0  0  0  0  0  0  0  0  0  0  0
   58.6009   33.6411   52.6985 C   0  0  0  0  0  0  0  0  0  0  0  0
   59.5441   33.7590   51.6742 C   0  0  0  0  0  0  0  0  0  0  0  0
  1  2  2  0
  2  3  1  0
  3  4  2  0
  4  8  1  0
  8  9  2  0
  9 10  1  0
  9 11  1  0
 11 12  1  0
 12 13  2  0
 12 14  1  0
 14 15  1  0
 15 16  2  0
  3  5  1  0
  5  6  2  0
  6 17  1  0
 17 18  2  0
 17 19  1  0
 19 20  1  0
 20 21  1  0
 21 22  1  0
 22 26  1  0
 26 27  2  0
 27 28  1  0
 28 29  2  0
 29 30  1  0
 30 32  1  0
 32 33  1  0
 32 34  1  0
 32 35  1  0
 30 31  2  0
 22 23  1  0
 23 24  1  0
  6  7  1  0
  7 36  1  0
 36 37  1  0
 37 38  2  0
 38 39  1  0
 39 40  2  0
 40 41  1  0
 41 42  2  0
  7  2  1  0
 42 37  1  0
 15  8  1  0
 24 19  1  0
 31 26  1  0
 19 25  1  0
M  CHG 1  10  -1
M  CHG 1  11  -1
M  CHG 1  14  -1
M  CHG 1  19   1
M  END
> <UniqueID>
2

> <SMILES>
C=c1/c(=C\c2c([O-])[n-]c(=O)[n-]c2=O)cc(C(=O)[NH+]2CCN(c3cccc(C(F)(F)F)c3)CC2)n1Cc1ccccc1

> <Energy>
130.4078658198042

> <Genealogy>
C=c1c(=Cc2c([O-])[n-]c(=O)[n-]c2=O)cc(C(=O)[NH+]2CCN(c3cccc(C(F)(F)F)c3)CC2)n1Cc1ccccc1 (protonated)
C=c1/c(=C\c2c([O-])[n-]c(=O)[n-]c2=O)cc(C(=O)[NH+]2CCN(c3cccc(C(F)(F)F)c3)CC2)n1Cc1ccccc1 (cis-trans isomerization)
C=c1/c(=C\c2c([O-])[n-]c(=O)[n-]c2=O)cc(C(=O)[NH+]2CCN(c3cccc(C(F)(F)F)c3)CC2)n1Cc1ccccc1 (3D coordinates assigned)
C=c1/c(=C\c2c([O-])[n-]c(=O)[n-]c2=O)cc(C(=O)[NH+]2CCN(c3cccc(C(F)(F)F)c3)CC2)n1Cc1ccccc1 (nonaromatic ring conformer: 130.4078658198042 kcal/mol)

> <smiles>
C=c1c(=Cc2c(O)[nH]c(=O)[nH]c2=O)cc(C(=O)N2CCN(c3cccc(C(F)(F)F)c3)CC2)n1Cc1ccccc1

> <score_type>
oracle

> <origin>
adg

> <m_score__min__energy>
-15.68

> <m_primary>
energy

> <minimizedAffinity>
-7.47795

> <minimizedRMSD>
1.77739

> <CNNscore>
0.1861219406

> <CNNaffinity>
6.9915351868

> <CNN_VS>
1.3012781143

> <CNNaffinity_variance>
0.0841247663

$$$$
13:0


 29 32  0  0  0  0  0  0  0  0999 V2000
   58.4563   30.1587   45.8214 C   0  0  0  0  0  0  0  0  0  0  0  0
   57.9917   29.9842   44.5265 C   0  0  0  0  0  0  0  0  0  0  0  0
   57.8292   28.7528   43.9042 O   0  0  0  0  0  0  0  0  0  0  0  0
   57.7236   31.1559   43.9158 N   0  0  0  0  0  0  0  0  0  0  0  0
   58.0351   32.0857   44.8380 C   0  0  0  0  0  0  0  0  0  0  0  0
   57.9385   33.4619   44.6574 C   0  0  0  0  0  0  0  0  0  0  0  0
   58.3169   34.2981   45.7165 C   0  0  0  0  0  0  0  0  0  0  0  0
   58.7721   33.7503   46.9297 C   0  0  0  0  0  0  0  0  0  0  0  0
   58.8574   32.3536   47.1123 C   0  0  0  0  0  0  0  0  0  0  0  0
   58.4924   31.5330   46.0206 C   0  0  0  0  0  0  0  0  0  0  0  0
   60.6328   26.4464   46.5541 C   0  0  0  0  0  0  0  0  0  0  0  0
   59.3063   26.6089   46.5842 C   0  0  0  0  0  0  0  0  0  0  0  0
   58.4659   25.5592   46.5310 N   0  0  0  0  0  0  0  0  0  0  0  0
   57.2448   26.1246   46.5137 C   0  0  0  0  0  0  0  0  0  0  0  0
   56.1833   25.4501   46.4608 O   0  0  0  0  0  0  0  0  0  0  0  0
   57.2504   27.4697   46.5516 N   0  0  0  0  0  0  0  0  0  0  0  0
   58.5583   27.7920   46.6095 C   0  0  0  0  0  0  0  0  0  0  0  0
   58.9536   29.0753   46.6778 C   0  0  0  0  0  0  0  0  0  0  0  0
   59.3927   31.7338   48.6823 S   0  0  0  0  0  0  0  0  0  0  0  0
   58.5164   32.3035   49.7647 O   0  0  0  0  0  0  0  0  0  0  0  0
   59.2467   30.2399   48.7179 O   0  0  0  0  0  0  0  0  0  0  0  0
   61.0513   32.1955   48.9780 N   0  0  0  0  0  0  0  0  0  0  0  0
   61.8941   31.8751   47.8009 C   0  0  0  0  0  0  0  0  0  0  0  0
   63.1065   32.8203   47.6441 C   0  0  0  0  0  0  0  0  0  0  0  0
   63.6045   33.3306   48.9353 N   0  0  0  0  0  0  0  0  0  0  0  0
   64.3282   32.2963   49.6950 C   0  0  0  0  0  0  0  0  0  0  0  0
   62.5564   34.0049   49.7430 C   0  0  0  0  0  0  0  0  0  0  0  0
   61.1210   33.6208   49.3323 C   0  0  0  0  0  0  0  0  0  0  0  0
   61.4157   31.6614   49.7669 H   0  0  0  0  0  0  0  0  0  0  0  0
 11 12  2  0
 12 13  1  0
 13 14  1  0
 14 15  2  0
 14 16  1  0
 16 17  1  0
 17 18  2  0
 18  1  1  0
  1  2  2  0
  2  3  1  0
  2  4  1  0
  4  5  1  0
  5  6  2  0
  6  7  1  0
  7  8  2  0
  8  9  1  0
  9 19  1  0
 19 20  2  0
 19 21  2  0
 19 22  1  0
 22 23  1  0
 23 24  1  0
 24 25  1  0
 25 26  1  0
 25 27  1  0
 27 28  1  0
  9 10  2  0
 17 12  1  0
 10  1  1  0
 10  5  1  0
 28 22  1  0
 22 29  1  0
M  CHG 1   3  -1
M  CHG 1   4  -1
M  CHG 1  13  -1
M  CHG 1  16  -1
M  CHG 1  22   1
M  END
> <UniqueID>
11

> <SMILES>
C=c1[n-]c(=O)[n-]/c1=C/c1c([O-])[n-]c2cccc(S(=O)(=O)[NH+]3CCN(C)CC3)c12

> <Energy>
135.14085189260553

> <Genealogy>
C=c1[n-]c(=O)[n-]c1=Cc1c([O-])[n-]c2cccc(S(=O)(=O)[NH+]3CCN(C)CC3)c12 (protonated)
C=c1[n-]c(=O)[n-]/c1=C/c1c([O-])[n-]c2cccc(S(=O)(=O)[NH+]3CCN(C)CC3)c12 (cis-trans isomerization)
C=c1[n-]c(=O)[n-]/c1=C/c1c([O-])[n-]c2cccc(S(=O)(=O)[NH+]3CCN(C)CC3)c12 (3D coordinates assigned)
C=c1[n-]c(=O)[n-]/c1=C/c1c([O-])[n-]c2cccc(S(=O)(=O)[NH+]3CCN(C)CC3)c12 (nonaromatic ring conformer: 135.14085189260553 kcal/mol)

> <smiles>
C=c1[nH]c(=O)[nH]c1=Cc1c(O)[nH]c2cccc(S(=O)(=O)N3CCN(C)CC3)c12

> <score_type>
oracle

> <origin>
adg

> <m_score__min__energy>
-15.76

> <m_primary>
energy

> <minimizedAffinity>
-9.11802

> <minimizedRMSD>
1.81755

> <CNNscore>
0.6990128160

> <CNNaffinity>
6.9757905006

> <CNN_VS>
4.8761668205

> <CNNaffinity_variance>
0.0093688592

$$$$
17:0


 31 34  0  0  0  0  0  0  0  0999 V2000
   53.5728   30.3443   51.7494 C   0  0  0  0  0  0  0  0  0  0  0  0
   54.7448   30.0076   52.3240 C   0  0  0  0  0  0  0  0  0  0  0  0
   55.9151   30.7080   52.0947 C   0  0  0  0  0  0  0  0  0  0  0  0
   56.8922   30.1283   52.8754 C   0  0  0  0  0  0  0  0  0  0  0  0
   56.3810   29.0897   53.5772 N   0  0  0  0  0  0  0  0  0  0  0  0
   57.1339   28.1612   54.4275 C   0  0  0  0  0  0  0  0  0  0  0  0
   55.0752   28.9776   53.2206 C   0  0  0  0  0  0  0  0  0  0  0  0
   54.2963   27.9523   53.6010 C   0  0  0  0  0  0  0  0  0  0  0  0
   51.4121   32.2010   50.5162 O   0  0  0  0  0  0  0  0  0  0  0  0
   51.4744   31.7968   51.8484 C   0  0  0  0  0  0  0  0  0  0  0  0
   50.5470   32.1255   52.7624 N   0  0  0  0  0  0  0  0  0  0  0  0
   50.9800   31.4850   53.8695 C   0  0  0  0  0  0  0  0  0  0  0  0
   50.3656   31.5390   54.9665 O   0  0  0  0  0  0  0  0  0  0  0  0
   52.1163   30.7733   53.7071 N   0  0  0  0  0  0  0  0  0  0  0  0
   52.4423   30.9982   52.4228 C   0  0  0  0  0  0  0  0  0  0  0  0
   50.7086   32.7471   50.2248 H   0  0  0  0  0  0  0  0  0  0  0  0
   58.2930   30.5900   52.9328 C   0  0  0  0  0  0  0  0  0  0  0  0
   58.9451   30.4369   53.9983 O   0  0  0  0  0  0  0  0  0  0  0  0
   58.9279   31.2184   51.8130 N   0  0  0  0  0  0  0  0  0  0  0  0
   59.1034   30.6099   50.4938 C   0  0  0  0  0  0  0  0  0  0  0  0
   60.2778   29.6271   50.5089 C   0  0  0  0  0  0  0  0  0  0  0  0
   60.3190   28.8455   49.1940 C   0  0  0  0  0  0  0  0  0  0  0  0
   60.2229   29.7519   47.9260 C   0  0  0  0  0  0  0  0  0  0  0  0
   60.1747   31.2772   48.2228 C   0  0  0  0  0  0  0  0  0  0  0  0
   59.3310   31.7142   49.4443 C   0  0  0  0  0  0  0  0  0  0  0  0
   59.1712   29.3459   46.9538 N   0  0  0  0  0  0  0  0  0  0  0  0
   58.8595   30.4172   45.9819 C   0  0  0  0  0  0  0  0  0  0  0  0
   57.9071   29.9127   44.8828 C   0  0  0  0  0  0  0  0  0  0  0  0
   57.2208   28.7559   45.3163 O   0  0  0  0  0  0  0  0  0  0  0  0
   58.1326   27.6785   45.4463 C   0  0  0  0  0  0  0  0  0  0  0  0
   59.3802   28.0499   46.2799 C   0  0  0  0  0  0  0  0  0  0  0  0
  9 10  1  0
 10 11  1  0
 11 12  1  0
 12 13  2  0
 12 14  1  0
 14 15  1  0
 15  1  1  0
  1  2  2  0
  2  3  1  0
  3  4  2  0
  4 17  1  0
 17 18  2  0
 17 19  1  0
 20 19  1  0
 20 21  1  0
 21 22  1  0
 22 23  1  0
 23 26  1  0
 26 27  1  0
 27 28  1  0
 28 29  1  0
 29 30  1  0
 30 31  1  0
 23 24  1  0
 24 25  1  0
  4  5  1  0
  5  6  1  0
  5  7  1  0
  7  8  2  0
 15 10  2  0
  7  2  1  0
 25 20  1  0
 31 26  1  0
  9 16  1  0
M  CHG 1  11  -1
M  CHG 1  14  -1
M  CHG 1  19  -1
M  END
> <UniqueID>
14

> <SMILES>
C=c1/c(=C\c2[n-]c(=O)[n-]c2O)cc(C(=O)[N-]C2CCC(N3CCOCC3)CC2)n1C

> <Energy>
152.0865223943544

> <Genealogy>
C=c1c(=Cc2[n-]c(=O)[n-]c2O)cc(C(=O)[N-]C2CCC(N3CCOCC3)CC2)n1C (protonated)
C=c1/c(=C\c2[n-]c(=O)[n-]c2O)cc(C(=O)[N-]C2CCC(N3CCOCC3)CC2)n1C (cis-trans isomerization)
C=c1/c(=C\c2[n-]c(=O)[n-]c2O)cc(C(=O)[N-]C2CCC(N3CCOCC3)CC2)n1C (3D coordinates assigned)
C=c1/c(=C\c2[n-]c(=O)[n-]c2O)cc(C(=O)[N-]C2CCC(N3CCOCC3)CC2)n1C (nonaromatic ring conformer: 152.0865223943544 kcal/mol)

> <smiles>
C=c1c(=Cc2[nH]c(=O)[nH]c2O)cc(C(=O)NC2CCC(N3CCOCC3)CC2)n1C

> <score_type>
oracle

> <origin>
adg

> <m_score__min__energy>
-15.640000000000001

> <m_primary>
energy

> <minimizedAffinity>
-7.65803

> <minimizedRMSD>
1.08296

> <CNNscore>
0.1351279169

> <CNNaffinity>
5.0934309959

> <CNN_VS>
0.6882647276

> <CNNaffinity_variance>
0.4716366529

$$$$
22:0


 30 33  0  0  0  0  0  0  0  0999 V2000
   58.2023   27.5787   44.3906 C   0  0  0  0  0  0  0  0  0  0  0  0
   58.6181   27.1758   45.6019 C   0  0  0  0  0  0  0  0  0  0  0  0
   58.7416   25.8534   46.0580 C   0  0  0  0  0  0  0  0  0  0  0  0
   58.3121   24.6909   45.5287 C   0  0  0  0  0  0  0  0  0  0  0  0
   59.4322   25.9203   47.2576 C   0  0  0  0  0  0  0  0  0  0  0  0
   59.6398   27.2568   47.5260 C   0  0  0  0  0  0  0  0  0  0  0  0
   60.3353   27.7811   48.7455 C   0  0  0  0  0  0  0  0  0  0  0  0
   59.1486   28.0198   46.5236 N   0  0  0  0  0  0  0  0  0  0  0  0
   56.9239   24.2043   45.5415 C   0  0  0  0  0  0  0  0  0  0  0  0
   56.5860   22.9168   45.3532 N   0  0  0  0  0  0  0  0  0  0  0  0
   55.2530   22.9089   45.5714 C   0  0  0  0  0  0  0  0  0  0  0  0
   54.5574   21.8651   45.4719 O   0  0  0  0  0  0  0  0  0  0  0  0
   54.7269   24.1035   45.9182 N   0  0  0  0  0  0  0  0  0  0  0  0
   55.8005   24.9104   45.9088 C   0  0  0  0  0  0  0  0  0  0  0  0
   55.7567   26.2545   46.2568 O   0  0  0  0  0  0  0  0  0  0  0  0
   59.2069   29.4571   46.4543 C   0  0  0  0  0  0  0  0  0  0  0  0
   58.2309   30.1716   45.7496 C   0  0  0  0  0  0  0  0  0  0  0  0
   58.2901   31.5649   45.6824 C   0  0  0  0  0  0  0  0  0  0  0  0
   59.3320   32.2671   46.3179 C   0  0  0  0  0  0  0  0  0  0  0  0
   60.3106   31.5494   47.0343 C   0  0  0  0  0  0  0  0  0  0  0  0
   60.2441   30.1482   47.0927 C   0  0  0  0  0  0  0  0  0  0  0  0
   61.3794   32.2354   47.7089 N   0  0  0  0  0  0  0  0  0  0  0  0
   62.7605   32.0579   47.2402 C   0  0  0  0  0  0  0  0  0  0  0  0
   63.5168   33.3765   47.3520 C   0  0  0  0  0  0  0  0  0  0  0  0
   63.4532   33.8552   48.7226 N   0  0  0  0  0  0  0  0  0  0  0  0
   62.2623   33.7081   49.4972 C   0  0  0  0  0  0  0  0  0  0  0  0
   62.2090   34.2032   50.6532 O   0  0  0  0  0  0  0  0  0  0  0  0
   61.0691   32.9763   48.9444 C   0  0  0  0  0  0  0  0  0  0  0  0
   59.4314   33.6671   46.2503 O   0  0  0  0  0  0  0  0  0  0  0  0
   59.0396   34.4503   45.1282 C   0  0  0  0  0  0  0  0  0  0  0  0
  1  2  2  0
  2  3  1  0
  3  4  2  0
  4  9  1  0
  9 10  1  0
 10 11  1  0
 11 12  2  0
 11 13  1  0
 13 14  1  0
 14 15  1  0
  3  5  1  0
  5  6  2  0
  6  7  1  0
  6  8  1  0
  8 16  1  0
 16 17  2  0
 17 18  1  0
 18 19  2  0
 19 29  1  0
 29 30  1  0
 19 20  1  0
 20 22  1  0
 22 23  1  0
 23 24  1  0
 24 25  1  0
 25 26  1  0
 26 27  2  0
 26 28  1  0
 20 21  2  0
  8  2  1  0
 21 16  1  0
 14  9  2  0
 28 22  1  0
M  CHG 1  10  -1
M  CHG 1  13  -1
M  CHG 1  15  -1
M  CHG 1  25  -1
M  END
> <UniqueID>
19

> <SMILES>
C=c1c(=Cc2[n-]c(=O)[n-]c2[O-])cc(C)n1-c1ccc(OC)c(N2CC[N-]C(=O)C2)c1

> <Energy>
131.4324925167604

> <Genealogy>
C=c1c(=Cc2[n-]c(=O)[n-]c2[O-])cc(C)n1-c1ccc(OC)c(N2CC[N-]C(=O)C2)c1 (protonated)
C=c1c(=Cc2[n-]c(=O)[n-]c2[O-])cc(C)n1-c1ccc(OC)c(N2CC[N-]C(=O)C2)c1 (3D coordinates assigned)
C=c1c(=Cc2[n-]c(=O)[n-]c2[O-])cc(C)n1-c1ccc(OC)c(N2CC[N-]C(=O)C2)c1 (nonaromatic ring conformer: 131.4324925167604 kcal/mol)

> <smiles>
C=c1c(=Cc2[nH]c(=O)[nH]c2O)cc(C)n1-c1ccc(OC)c(N2CCNC(=O)C2)c1

> <score_type>
oracle

> <origin>
adg

> <m_score__min__energy>
-16.510000000000002

> <m_primary>
energy

> <minimizedAffinity>
-8.87087

> <minimizedRMSD>
0.80465

> <CNNscore>
0.4182130396

> <CNNaffinity>
6.9637780190

> <CNN_VS>
2.9123427868

> <CNNaffinity_variance>
0.0335487388

$$$$
25:0


 33 36  0  0  0  0  0  0  0  0999 V2000
   58.3372   31.5795   45.8032 C   0  0  0  0  0  0  0  0  0  0  0  0
   57.9662   32.2200   44.7872 O   0  0  0  0  0  0  0  0  0  0  0  0
   59.5555   31.9857   46.5382 C   0  0  0  0  0  0  0  0  0  0  0  0
   60.4290   31.0137   47.0648 C   0  0  0  0  0  0  0  0  0  0  0  0
   61.6503   31.3917   47.6294 C   0  0  0  0  0  0  0  0  0  0  0  0
   62.0142   32.7477   47.6785 C   0  0  0  0  0  0  0  0  0  0  0  0
   61.1497   33.7153   47.1508 C   0  0  0  0  0  0  0  0  0  0  0  0
   59.9159   33.3448   46.6213 C   0  0  0  0  0  0  0  0  0  0  0  0
   63.3765   33.1318   48.0876 C   0  0  0  0  0  0  0  0  0  0  0  0
   64.2324   33.3076   47.1741 O   0  0  0  0  0  0  0  0  0  0  0  0
   63.7602   33.3376   49.4753 N   0  0  0  0  0  0  0  0  0  0  0  0
   62.7204   34.0587   50.2589 C   0  0  0  0  0  0  0  0  0  0  0  0
   61.6659   33.1452   50.9019 C   0  0  0  0  0  0  0  0  0  0  0  0
   62.3310   32.0319   51.6951 C   0  0  0  0  0  0  0  0  0  0  0  0
   63.2192   31.2156   50.7638 C   0  0  0  0  0  0  0  0  0  0  0  0
   64.2975   32.1146   50.1296 C   0  0  0  0  0  0  0  0  0  0  0  0
   63.4277   33.6092   50.3612 H   0  0  0  0  0  0  0  0  0  0  0  0
   57.6177   30.4616   46.2258 O   0  0  0  0  0  0  0  0  0  0  0  0
   58.1511   27.7967   47.1150 C   0  0  0  0  0  0  0  0  0  0  0  0
   57.7602   28.0633   45.8578 C   0  0  0  0  0  0  0  0  0  0  0  0
   57.7296   27.1875   44.7568 C   0  0  0  0  0  0  0  0  0  0  0  0
   57.9195   25.8547   44.6683 C   0  0  0  0  0  0  0  0  0  0  0  0
   57.4910   27.9772   43.6428 C   0  0  0  0  0  0  0  0  0  0  0  0
   57.3598   29.2806   44.0878 C   0  0  0  0  0  0  0  0  0  0  0  0
   57.2539   30.4742   43.1794 C   0  0  0  0  0  0  0  0  0  0  0  0
   57.4778   29.3225   45.4399 N   0  0  0  0  0  0  0  0  0  0  0  0
   57.3214   24.8291   45.5352 C   0  0  0  0  0  0  0  0  0  0  0  0
   57.9525   23.7277   45.9864 N   0  0  0  0  0  0  0  0  0  0  0  0
   57.0617   23.1921   46.8639 C   0  0  0  0  0  0  0  0  0  0  0  0
   57.2860   22.1282   47.5028 O   0  0  0  0  0  0  0  0  0  0  0  0
   55.9211   23.8995   47.0180 N   0  0  0  0  0  0  0  0  0  0  0  0
   56.1119   24.9388   46.1794 C   0  0  0  0  0  0  0  0  0  0  0  0
   55.1930   25.9655   46.0029 O   0  0  0  0  0  0  0  0  0  0  0  0
 19 20  2  0
 20 21  1  0
 21 22  2  0
 22 27  1  0
 27 28  1  0
 28 29  1  0
 29 30  2  0
 29 31  1  0
 31 32  1  0
 32 33  1  0
 21 23  1  0
 23 24  2  0
 24 25  1  0
 24 26  1  0
 26 18  1  0
 18  1  1  0
  1  2  2  0
  1  3  1  0
  3  4  2  0
  4  5  1  0
  5  6  2  0
  6  9  1  0
  9 10  2  0
  9 11  1  0
 11 12  1  0
 12 13  1  0
 13 14  1  0
 14 15  1  0
 15 16  1  0
  6  7  1  0
  7  8  2  0
 26 20  1  0
  8  3  1  0
 32 27  2  0
 16 11  1  0
 11 17  1  0
M  CHG 1  11   1
M  CHG 1  28  -1
M  CHG 1  31  -1
M  CHG 1  33  -1
M  END
> <UniqueID>
22

> <SMILES>
C=c1/c(=C\c2[n-]c(=O)[n-]c2[O-])cc(C)n1OC(=O)c1ccc(C(=O)[NH+]2CCCCC2)cc1

> <Energy>
146.42465535842905

> <Genealogy>
C=c1c(=Cc2[n-]c(=O)[n-]c2[O-])cc(C)n1OC(=O)c1ccc(C(=O)[NH+]2CCCCC2)cc1 (protonated)
C=c1/c(=C\c2[n-]c(=O)[n-]c2[O-])cc(C)n1OC(=O)c1ccc(C(=O)[NH+]2CCCCC2)cc1 (cis-trans isomerization)
C=c1/c(=C\c2[n-]c(=O)[n-]c2[O-])cc(C)n1OC(=O)c1ccc(C(=O)[NH+]2CCCCC2)cc1 (3D coordinates assigned)
C=c1/c(=C\c2[n-]c(=O)[n-]c2[O-])cc(C)n1OC(=O)c1ccc(C(=O)[NH+]2CCCCC2)cc1 (nonaromatic ring conformer: 146.42465535842905 kcal/mol)

> <smiles>
C=c1c(=Cc2[nH]c(=O)[nH]c2O)cc(C)n1OC(=O)c1ccc(C(=O)N2CCCCC2)cc1

> <score_type>
oracle

> <origin>
adg

> <m_score__min__energy>
-17.27

> <m_primary>
energy

> <minimizedAffinity>
-8.20821

> <minimizedRMSD>
0.89597

> <CNNscore>
0.1032474861

> <CNNaffinity>
6.5329995155

> <CNN_VS>
0.6745157838

> <CNNaffinity_variance>
0.0209070314

$$$$
28:0


 36 39  0  0  0  0  0  0  0  0999 V2000
   58.7523   30.3474   51.5937 C   0  0  0  0  0  0  0  0  0  0  0  0
   58.7744   29.7868   50.3060 C   0  0  0  0  0  0  0  0  0  0  0  0
   58.9504   30.6017   49.1849 C   0  0  0  0  0  0  0  0  0  0  0  0
   59.1228   31.9836   49.3383 C   0  0  0  0  0  0  0  0  0  0  0  0
   59.1099   32.5458   50.6228 C   0  0  0  0  0  0  0  0  0  0  0  0
   58.9235   31.7323   51.7441 C   0  0  0  0  0  0  0  0  0  0  0  0
   59.3062   33.0089   47.9156 S   0  0  0  0  0  0  0  0  0  0  0  0
   58.0738   32.9067   47.0592 O   0  0  0  0  0  0  0  0  0  0  0  0
   59.4425   34.4341   48.3726 O   0  0  0  0  0  0  0  0  0  0  0  0
   60.7372   32.5537   47.0097 N   0  0  0  0  0  0  0  0  0  0  0  0
   61.7519   33.6181   46.9890 C   0  0  0  0  0  0  0  0  0  0  0  0
   62.4172   33.8298   48.3657 C   0  0  0  0  0  0  0  0  0  0  0  0
   62.3369   32.6370   49.2495 N   0  0  0  0  0  0  0  0  0  0  0  0
   62.4809   31.4090   48.4404 C   0  0  0  0  0  0  0  0  0  0  0  0
   61.2947   31.2626   47.4641 C   0  0  0  0  0  0  0  0  0  0  0  0
   63.3252   32.7386   50.3688 C   0  0  0  0  0  0  0  0  0  0  0  0
   63.2601   34.1040   51.1024 C   0  0  0  0  0  0  0  0  0  0  0  0
   64.4240   34.2969   52.1036 C   0  0  0  0  0  0  0  0  0  0  0  0
   65.3581   33.2358   52.0717 O   0  0  0  0  0  0  0  0  0  0  0  0
   65.8517   33.0891   50.7593 C   0  0  0  0  0  0  0  0  0  0  0  0
   64.7661   32.5272   49.8275 C   0  0  0  0  0  0  0  0  0  0  0  0
   58.5301   29.4674   52.7957 C   0  0  0  0  0  0  0  0  0  0  0  0
   56.3023   30.1250   53.8134 C   0  0  0  0  0  0  0  0  0  0  0  0
   56.8683   30.9225   54.6105 O   0  0  0  0  0  0  0  0  0  0  0  0
   57.1009   29.2459   53.0050 N   0  0  0  0  0  0  0  0  0  0  0  0
   56.6716   28.4694   52.5783 H   0  0  0  0  0  0  0  0  0  0  0  0
   52.7759   30.3908   52.4105 C   0  0  0  0  0  0  0  0  0  0  0  0
   52.0169   30.0439   53.5417 C   0  0  0  0  0  0  0  0  0  0  0  0
   52.6472   29.7256   54.7456 C   0  0  0  0  0  0  0  0  0  0  0  0
   54.0393   29.7523   54.8403 C   0  0  0  0  0  0  0  0  0  0  0  0
   54.8208   30.1068   53.7267 C   0  0  0  0  0  0  0  0  0  0  0  0
   54.1797   30.4158   52.5131 C   0  0  0  0  0  0  0  0  0  0  0  0
   51.5483   32.0195   50.9193 N   0  0  0  0  0  0  0  0  0  0  0  0
   52.1087   30.7245   51.1294 C   0  0  0  0  0  0  0  0  0  0  0  0
   52.0274   29.8632   50.2106 O   0  0  0  0  0  0  0  0  0  0  0  0
   51.1071   32.2323   50.0653 H   0  0  0  0  0  0  0  0  0  0  0  0
 33 34  1  0
 34 35  2  0
 34 27  1  0
 27 28  2  0
 28 29  1  0
 29 30  2  0
 30 31  1  0
 31 23  1  0
 23 24  2  0
 23 25  1  0
 25 22  1  0
 22  1  1  0
  1  2  2  0
  2  3  1  0
  3  4  2  0
  4  7  1  0
  7  8  2  0
  7  9  2  0
  7 10  1  0
 10 11  1  0
 11 12  1  0
 12 13  1  0
 13 16  1  0
 16 17  1  0
 17 18  1  0
 18 19  1  0
 19 20  1  0
 20 21  1  0
 13 14  1  0
 14 15  1  0
  4  5  1  0
  5  6  2  0
 31 32  2  0
 32 27  1  0
  6  1  1  0
 15 10  1  0
 21 16  1  0
 33 36  1  0
 25 26  1  0
M  CHG 1  33  -1
M  END
> <UniqueID>
25

> <SMILES>
[NH-]C(=O)c1cccc(C(=O)NCc2ccc(S(=O)(=O)N3CCN(C4CCOCC4)CC3)cc2)c1

> <Energy>
87.78098030471322

> <Genealogy>
[NH-]C(=O)c1cccc(C(=O)NCc2ccc(S(=O)(=O)N3CCN(C4CCOCC4)CC3)cc2)c1 (protonated)
[NH-]C(=O)c1cccc(C(=O)NCc2ccc(S(=O)(=O)N3CCN(C4CCOCC4)CC3)cc2)c1 (3D coordinates assigned)
[NH-]C(=O)c1cccc(C(=O)NCc2ccc(S(=O)(=O)N3CCN(C4CCOCC4)CC3)cc2)c1 (nonaromatic ring conformer: 87.78098030471322 kcal/mol)

> <smiles>
NC(=O)c1cccc(C(=O)NCc2ccc(S(=O)(=O)N3CCN(C4CCOCC4)CC3)cc2)c1

> <score_type>
oracle

> <origin>
adg

> <m_score__min__energy>
-14.77

> <m_primary>
energy

> <minimizedAffinity>
-7.63053

> <minimizedRMSD>
1.20148

> <CNNscore>
0.1388440728

> <CNNaffinity>
5.2967410088

> <CNN_VS>
0.7354211211

> <CNNaffinity_variance>
0.4692967832

$$$$
34:0


 23 25  0  0  0  0  0  0  0  0999 V2000
   57.3676   31.0636   44.4581 C   0  0  0  0  0  0  0  0  0  0  0  0
   58.2579   30.9497   45.4444 C   0  0  0  0  0  0  0  0  0  0  0  0
   58.4522   31.9208   46.3616 N   0  0  0  0  0  0  0  0  0  0  0  0
   59.3907   31.5130   47.2038 N   0  0  0  0  0  0  0  0  0  0  0  0
   59.8152   30.2878   46.8262 C   0  0  0  0  0  0  0  0  0  0  0  0
   60.7146   29.6345   47.4187 O   0  0  0  0  0  0  0  0  0  0  0  0
   59.1186   29.8796   45.6967 C   0  0  0  0  0  0  0  0  0  0  0  0
   59.2172   28.7216   45.0126 C   0  0  0  0  0  0  0  0  0  0  0  0
   58.6842   27.4358   45.4995 C   0  0  0  0  0  0  0  0  0  0  0  0
   59.5786   26.4501   45.9437 C   0  0  0  0  0  0  0  0  0  0  0  0
   59.0995   25.2332   46.4343 C   0  0  0  0  0  0  0  0  0  0  0  0
   57.7227   24.9973   46.5040 C   0  0  0  0  0  0  0  0  0  0  0  0
   57.2540   23.7820   46.9896 O   0  0  0  0  0  0  0  0  0  0  0  0
   56.8227   25.9850   46.0895 C   0  0  0  0  0  0  0  0  0  0  0  0
   55.4524   25.7550   46.1716 O   0  0  0  0  0  0  0  0  0  0  0  0
   57.2968   27.2082   45.5983 C   0  0  0  0  0  0  0  0  0  0  0  0
   56.3932   28.1950   45.2192 O   0  0  0  0  0  0  0  0  0  0  0  0
   59.8555   32.3091   48.3108 C   0  0  0  0  0  0  0  0  0  0  0  0
   60.9653   33.1654   48.1800 C   0  0  0  0  0  0  0  0  0  0  0  0
   61.4084   33.9216   49.2695 C   0  0  0  0  0  0  0  0  0  0  0  0
   60.7550   33.8254   50.5010 C   0  0  0  0  0  0  0  0  0  0  0  0
   59.6627   32.9678   50.6461 C   0  0  0  0  0  0  0  0  0  0  0  0
   59.2174   32.2095   49.5597 C   0  0  0  0  0  0  0  0  0  0  0  0
  1  2  2  0
  2  3  1  0
  3  4  1  0
  4 18  1  0
 18 19  2  0
 19 20  1  0
 20 21  2  0
 21 22  1  0
 22 23  2  0
  4  5  1  0
  5  6  2  0
  5  7  1  0
  7  8  2  0
  8  9  1  0
  9 10  2  0
 10 11  1  0
 11 12  2  0
 12 13  1  0
 12 14  1  0
 14 15  1  0
 14 16  2  0
 16 17  1  0
  7  2  1  0
 16  9  1  0
 23 18  1  0
M  CHG 1   3  -1
M  CHG 1  13  -1
M  CHG 1  15  -1
M  CHG 1  17  -1
M  END
> <UniqueID>
31

> <SMILES>
C=c1[n-]n(-c2ccccc2)c(=O)/c1=C\c1ccc([O-])c([O-])c1[O-]

> <Energy>
84.18897731918483

> <Genealogy>
C=c1[n-]n(-c2ccccc2)c(=O)c1=Cc1ccc([O-])c([O-])c1[O-] (protonated)
C=c1[n-]n(-c2ccccc2)c(=O)/c1=C\c1ccc([O-])c([O-])c1[O-] (cis-trans isomerization)
C=c1[n-]n(-c2ccccc2)c(=O)/c1=C\c1ccc([O-])c([O-])c1[O-] (3D coordinates assigned)
C=c1[n-]n(-c2ccccc2)c(=O)/c1=C\c1ccc([O-])c([O-])c1[O-] (optimized conformer: 84.18897731918483 kcal/mol)

> <smiles>
C=c1[nH]n(-c2ccccc2)c(=O)c1=Cc1ccc(O)c(O)c1O

> <score_type>
oracle

> <origin>
adg

> <m_score__min__energy>
-17.280000000000001

> <m_primary>
energy

> <minimizedAffinity>
-7.41186

> <minimizedRMSD>
1.09621

> <CNNscore>
0.5440809131

> <CNNaffinity>
6.5673470497

> <CNN_VS>
3.5731682777

> <CNNaffinity_variance>
0.7301595807

$$$$
52:0


 26 28  0  0  0  0  0  0  0  0999 V2000
   57.3944   25.2086   45.7938 C   0  0  0  0  0  0  0  0  0  0  0  0
   56.1441   25.8242   45.9371 C   0  0  0  0  0  0  0  0  0  0  0  0
   56.0116   27.2034   45.8167 O   0  0  0  0  0  0  0  0  0  0  0  0
   55.0480   25.0752   46.2117 N   0  0  0  0  0  0  0  0  0  0  0  0
   55.1249   23.7285   46.3483 C   0  0  0  0  0  0  0  0  0  0  0  0
   54.0778   23.0806   46.6224 O   0  0  0  0  0  0  0  0  0  0  0  0
   56.3262   23.0869   46.1967 N   0  0  0  0  0  0  0  0  0  0  0  0
   57.4577   23.8074   45.9134 C   0  0  0  0  0  0  0  0  0  0  0  0
   58.5555   23.2101   45.7283 O   0  0  0  0  0  0  0  0  0  0  0  0
   56.4004   21.6542   46.3362 C   0  0  0  0  0  0  0  0  0  0  0  0
   56.1504   20.8275   45.2288 C   0  0  0  0  0  0  0  0  0  0  0  0
   56.2222   19.4380   45.3554 C   0  0  0  0  0  0  0  0  0  0  0  0
   56.5401   18.8634   46.5890 C   0  0  0  0  0  0  0  0  0  0  0  0
   56.7868   19.6774   47.6982 C   0  0  0  0  0  0  0  0  0  0  0  0
   56.7141   21.0701   47.5774 C   0  0  0  0  0  0  0  0  0  0  0  0
   56.9475   21.8691   48.6917 O   0  0  0  0  0  0  0  0  0  0  0  0
   58.6107   26.7089   44.4360 O   0  0  0  0  0  0  0  0  0  0  0  0
   58.5927   26.0251   45.4944 C   0  0  0  0  0  0  0  0  0  0  0  0
   59.7574   26.0203   46.4134 C   0  0  0  0  0  0  0  0  0  0  0  0
   60.5173   27.0854   46.7150 C   0  0  0  0  0  0  0  0  0  0  0  0
   60.0107   28.4196   47.0950 C   0  0  0  0  0  0  0  0  0  0  0  0
   59.9818   29.4437   46.1404 C   0  0  0  0  0  0  0  0  0  0  0  0
   59.5526   30.7201   46.5132 C   0  0  0  0  0  0  0  0  0  0  0  0
   59.1863   30.9690   47.7983 N   0  0  0  0  0  0  0  0  0  0  0  0
   59.2306   30.0022   48.7516 C   0  0  0  0  0  0  0  0  0  0  0  0
   59.6542   28.7120   48.4223 C   0  0  0  0  0  0  0  0  0  0  0  0
 17 18  2  0
 18 19  1  0
 19 20  2  0
 20 21  1  0
 21 22  2  0
 22 23  1  0
 23 24  2  0
 24 25  1  0
 25 26  2  0
 18  1  1  0
  1  2  2  0
  2  3  1  0
  2  4  1  0
  4  5  1  0
  5  6  2  0
  5  7  1  0
  7 10  1  0
 10 11  2  0
 11 12  1  0
 12 13  2  0
 13 14  1  0
 14 15  2  0
 15 16  1  0
  7  8  1  0
  8  9  2  0
 26 21  1  0
  8  1  1  0
 15 10  1  0
M  CHG 1   3  -1
M  CHG 1   4  -1
M  CHG 1  16  -1
M  END
> <UniqueID>
48

> <SMILES>
O=C(C=Cc1ccncc1)c1c([O-])[n-]c(=O)n(-c2ccccc2[O-])c1=O

> <Energy>
66.32584898831578

> <Genealogy>
O=C(C=Cc1ccncc1)c1c([O-])[n-]c(=O)n(-c2ccccc2[O-])c1=O (protonated)
O=C(C=Cc1ccncc1)c1c([O-])[n-]c(=O)n(-c2ccccc2[O-])c1=O (3D coordinates assigned)
O=C(C=Cc1ccncc1)c1c([O-])[n-]c(=O)n(-c2ccccc2[O-])c1=O (optimized conformer: 66.32584898831578 kcal/mol)

> <smiles>
O=C(C=Cc1ccncc1)c1c(O)[nH]c(=O)n(-c2ccccc2O)c1=O

> <score_type>
oracle

> <origin>
adg

> <m_score__min__energy>
-14.27

> <m_primary>
energy

> <minimizedAffinity>
-6.18918

> <minimizedRMSD>
1.75526

> <CNNscore>
0.0721527934

> <CNNaffinity>
5.4612708092

> <CNN_VS>
0.3940459490

> <CNNaffinity_variance>
0.1925838441

$$$$
54:0


 36 40  0  0  0  0  0  0  0  0999 V2000
   57.6577   29.2995   53.2199 C   0  0  0  0  0  0  0  0  0  0  0  0
   58.4843   28.9218   54.2854 C   0  0  0  0  0  0  0  0  0  0  0  0
   59.8655   29.0906   54.1933 C   0  0  0  0  0  0  0  0  0  0  0  0
   60.4303   29.6334   53.0386 C   0  0  0  0  0  0  0  0  0  0  0  0
   59.6220   30.0192   51.9499 C   0  0  0  0  0  0  0  0  0  0  0  0
   58.2252   29.8498   52.0610 C   0  0  0  0  0  0  0  0  0  0  0  0
   55.5348   31.2084   52.3767 C   0  0  0  0  0  0  0  0  0  0  0  0
   55.2733   30.0212   52.9510 C   0  0  0  0  0  0  0  0  0  0  0  0
   54.0047   29.4904   53.2274 C   0  0  0  0  0  0  0  0  0  0  0  0
   52.8120   30.0777   52.9855 C   0  0  0  0  0  0  0  0  0  0  0  0
   54.2286   28.2313   53.7743 C   0  0  0  0  0  0  0  0  0  0  0  0
   55.5959   28.0543   53.8228 C   0  0  0  0  0  0  0  0  0  0  0  0
   56.2788   26.8259   54.3451 C   0  0  0  0  0  0  0  0  0  0  0  0
   56.2315   29.1348   53.3188 N   0  0  0  0  0  0  0  0  0  0  0  0
   52.2429   30.3604   51.6492 C   0  0  0  0  0  0  0  0  0  0  0  0
   52.2593   29.5331   50.5881 N   0  0  0  0  0  0  0  0  0  0  0  0
   51.6037   30.2270   49.6343 C   0  0  0  0  0  0  0  0  0  0  0  0
   51.4177   29.7745   48.4734 O   0  0  0  0  0  0  0  0  0  0  0  0
   51.1610   31.4413   50.0205 N   0  0  0  0  0  0  0  0  0  0  0  0
   51.5701   31.5081   51.2984 C   0  0  0  0  0  0  0  0  0  0  0  0
   51.3386   32.5989   52.1261 O   0  0  0  0  0  0  0  0  0  0  0  0
   60.2605   30.5840   50.7221 C   0  0  0  0  0  0  0  0  0  0  0  0
   60.0016   31.7835   50.4126 O   0  0  0  0  0  0  0  0  0  0  0  0
   61.1991   29.8169   49.9132 N   0  0  0  0  0  0  0  0  0  0  0  0
   60.6313   28.5378   49.4108 C   0  0  0  0  0  0  0  0  0  0  0  0
   59.9042   28.6805   48.0541 C   0  0  0  0  0  0  0  0  0  0  0  0
   59.4753   30.0736   47.8429 N   0  0  0  0  0  0  0  0  0  0  0  0
   60.6500   30.9694   47.7478 C   0  0  0  0  0  0  0  0  0  0  0  0
   61.7314   30.6308   48.7988 C   0  0  0  0  0  0  0  0  0  0  0  0
   61.3576   29.1181   50.5883 H   0  0  0  0  0  0  0  0  0  0  0  0
   58.6162   30.1834   46.6482 C   0  0  0  0  0  0  0  0  0  0  0  0
   58.4350   31.6238   46.2635 C   0  0  0  0  0  0  0  0  0  0  0  0
   58.5127   32.6834   47.1820 C   0  0  0  0  0  0  0  0  0  0  0  0
   58.2538   33.9243   46.6187 C   0  0  0  0  0  0  0  0  0  0  0  0
   57.9238   33.6979   44.9855 S   0  0  0  0  0  0  0  0  0  0  0  0
   58.1064   32.0276   44.9735 C   0  0  0  0  0  0  0  0  0  0  0  0
  7  8  2  0
  8  9  1  0
  9 10  2  0
 10 15  1  0
 15 16  1  0
 16 17  1  0
 17 18  2  0
 17 19  1  0
 19 20  1  0
 20 21  1  0
  9 11  1  0
 11 12  2  0
 12 13  1  0
 12 14  1  0
 14  1  1  0
  1  2  2  0
  2  3  1  0
  3  4  2  0
  4  5  1  0
  5 22  1  0
 22 23  2  0
 22 24  1  0
 24 25  1  0
 25 26  1  0
 26 27  1  0
 27 31  1  0
 31 32  1  0
 32 33  1  0
 33 34  2  0
 34 35  1  0
 35 36  1  0
 27 28  1  0
 28 29  1  0
  5  6  2  0
 14  8  1  0
  6  1  1  0
 20 15  2  0
 29 24  1  0
 36 32  2  0
 24 30  1  0
M  CHG 1  16  -1
M  CHG 1  19  -1
M  CHG 1  21  -1
M  CHG 1  24   1
M  END
> <UniqueID>
50

> <SMILES>
C=c1c(=Cc2[n-]c(=O)[n-]c2[O-])cc(C)n1-c1cccc(C(=O)[NH+]2CCN(Cc3ccsc3)CC2)c1

> <Energy>
173.9126412245092

> <Genealogy>
C=c1c(=Cc2[n-]c(=O)[n-]c2[O-])cc(C)n1-c1cccc(C(=O)[NH+]2CCN(Cc3ccsc3)CC2)c1 (protonated)
C=c1c(=Cc2[n-]c(=O)[n-]c2[O-])cc(C)n1-c1cccc(C(=O)[NH+]2CCN(Cc3ccsc3)CC2)c1 (3D coordinates assigned)
C=c1c(=Cc2[n-]c(=O)[n-]c2[O-])cc(C)n1-c1cccc(C(=O)[NH+]2CCN(Cc3ccsc3)CC2)c1 (nonaromatic ring conformer: 173.9126412245092 kcal/mol)

> <smiles>
C=c1c(=Cc2[nH]c(=O)[nH]c2O)cc(C)n1-c1cccc(C(=O)N2CCN(Cc3ccsc3)CC2)c1

> <score_type>
oracle

> <origin>
adg

> <m_score__min__energy>
-17.120000000000001

> <m_primary>
energy

> <minimizedAffinity>
-6.53557

> <minimizedRMSD>
1.20531

> <CNNscore>
0.0672298446

> <CNNaffinity>
6.3236851692

> <CNN_VS>
0.4251403809

> <CNNaffinity_variance>
0.4046889842

$$$$
63:0


 31 34  0  0  0  0  0  0  0  0999 V2000
   58.1562   30.7188   44.8207 C   0  0  0  0  0  0  0  0  0  0  0  0
   58.1944   31.4105   43.7664 O   0  0  0  0  0  0  0  0  0  0  0  0
   58.1175   31.3750   46.1016 N   0  0  0  0  0  0  0  0  0  0  0  0
   58.9386   30.8816   47.2162 C   0  0  0  0  0  0  0  0  0  0  0  0
   59.3475   32.0361   48.1398 C   0  0  0  0  0  0  0  0  0  0  0  0
   59.6416   33.2290   47.3246 N   0  0  0  0  0  0  0  0  0  0  0  0
   58.4105   33.7627   46.6847 C   0  0  0  0  0  0  0  0  0  0  0  0
   57.4231   32.6581   46.2563 C   0  0  0  0  0  0  0  0  0  0  0  0
   57.8403   26.3092   42.9461 C   0  0  0  0  0  0  0  0  0  0  0  0
   58.0978   27.2553   43.8555 C   0  0  0  0  0  0  0  0  0  0  0  0
   58.0015   28.5680   43.5605 N   0  0  0  0  0  0  0  0  0  0  0  0
   58.1685   29.2481   44.7099 C   0  0  0  0  0  0  0  0  0  0  0  0
   58.3996   28.3754   45.7558 C   0  0  0  0  0  0  0  0  0  0  0  0
   58.3808   27.0974   45.2206 C   0  0  0  0  0  0  0  0  0  0  0  0
   58.6132   25.9938   45.9560 C   0  0  0  0  0  0  0  0  0  0  0  0
   57.8394   28.9563   42.6705 H   0  0  0  0  0  0  0  0  0  0  0  0
   57.5989   25.0165   46.3803 C   0  0  0  0  0  0  0  0  0  0  0  0
   57.8688   23.7226   46.6242 N   0  0  0  0  0  0  0  0  0  0  0  0
   56.6484   23.1866   46.8428 C   0  0  0  0  0  0  0  0  0  0  0  0
   56.4836   21.9713   47.1263 O   0  0  0  0  0  0  0  0  0  0  0  0
   55.6183   24.0518   46.7245 N   0  0  0  0  0  0  0  0  0  0  0  0
   56.2362   25.2027   46.4147 C   0  0  0  0  0  0  0  0  0  0  0  0
   55.5666   26.3907   46.1455 O   0  0  0  0  0  0  0  0  0  0  0  0
   60.3158   34.2601   48.1369 C   0  0  0  0  0  0  0  0  0  0  0  0
   61.6688   33.7781   48.5971 C   0  0  0  0  0  0  0  0  0  0  0  0
   62.0356   33.8679   49.9497 C   0  0  0  0  0  0  0  0  0  0  0  0
   63.3045   33.4480   50.3635 C   0  0  0  0  0  0  0  0  0  0  0  0
   64.2140   32.9424   49.4306 C   0  0  0  0  0  0  0  0  0  0  0  0
   65.4432   32.5374   49.8331 F   0  0  0  0  0  0  0  0  0  0  0  0
   63.8568   32.8569   48.0810 C   0  0  0  0  0  0  0  0  0  0  0  0
   62.5892   33.2749   47.6652 C   0  0  0  0  0  0  0  0  0  0  0  0
  9 10  2  0
 10 11  1  0
 11 12  1  0
 12  1  1  0
  1  2  2  0
  1  3  1  0
  3  4  1  0
  4  5  1  0
  5  6  1  0
  6 24  1  0
 24 25  1  0
 25 26  2  0
 26 27  1  0
 27 28  2  0
 28 29  1  0
 28 30  1  0
 30 31  2  0
  6  7  1  0
  7  8  1  0
 12 13  2  0
 13 14  1  0
 14 15  2  0
 15 17  1  0
 17 18  1  0
 18 19  1  0
 19 20  2  0
 19 21  1  0
 21 22  1  0
 22 23  1  0
 14 10  1  0
 22 17  2  0
  8  3  1  0
 31 25  1  0
 11 16  1  0
M  CHG 1  18  -1
M  CHG 1  21  -1
M  CHG 1  23  -1
M  END
> <UniqueID>
59

> <SMILES>
C=c1[nH]c(C(=O)N2CCN(Cc3ccc(F)cc3)CC2)cc1=Cc1[n-]c(=O)[n-]c1[O-]

> <Energy>
130.096993716899

> <Genealogy>
C=c1[nH]c(C(=O)N2CCN(Cc3ccc(F)cc3)CC2)cc1=Cc1[n-]c(=O)[n-]c1[O-] (protonated)
C=c1[nH]c(C(=O)N2CCN(Cc3ccc(F)cc3)CC2)cc1=Cc1[n-]c(=O)[n-]c1[O-] (3D coordinates assigned)
C=c1[nH]c(C(=O)N2CCN(Cc3ccc(F)cc3)CC2)cc1=Cc1[n-]c(=O)[n-]c1[O-] (nonaromatic ring conformer: 130.096993716899 kcal/mol)

> <smiles>
C=c1[nH]c(C(=O)N2CCN(Cc3ccc(F)cc3)CC2)cc1=Cc1[nH]c(=O)[nH]c1O

> <score_type>
oracle

> <origin>
adg

> <m_score__min__energy>
-17.710000000000001

> <m_primary>
energy

> <minimizedAffinity>
-8.27554

> <minimizedRMSD>
0.60868

> <CNNscore>
0.1188834012

> <CNNaffinity>
6.2972946167

> <CNN_VS>
0.7486438155

> <CNNaffinity_variance>
0.2906615734

$$$$
64:0


 29 31  0  0  0  0  0  0  0  0999 V2000
   60.4895   27.5530   48.3887 C   0  0  0  0  0  0  0  0  0  0  0  0
   60.6055   26.9919   49.5117 O   0  0  0  0  0  0  0  0  0  0  0  0
   60.3290   28.9761   48.3142 N   0  0  0  0  0  0  0  0  0  0  0  0
   60.2301   29.3960   47.4293 H   0  0  0  0  0  0  0  0  0  0  0  0
   60.5630   26.7661   47.1380 C   0  0  0  0  0  0  0  0  0  0  0  0
   59.5352   26.5131   46.3141 C   0  0  0  0  0  0  0  0  0  0  0  0
   58.7142   27.5433   45.6403 C   0  0  0  0  0  0  0  0  0  0  0  0
   57.3100   27.4795   45.6392 C   0  0  0  0  0  0  0  0  0  0  0  0
   56.6449   26.4273   46.2585 O   0  0  0  0  0  0  0  0  0  0  0  0
   56.5879   28.4597   45.0379 N   0  0  0  0  0  0  0  0  0  0  0  0
   57.1992   29.5202   44.4489 C   0  0  0  0  0  0  0  0  0  0  0  0
   56.5091   30.4148   43.8956 O   0  0  0  0  0  0  0  0  0  0  0  0
   58.5522   29.6180   44.4621 N   0  0  0  0  0  0  0  0  0  0  0  0
   59.3200   28.6637   45.0492 C   0  0  0  0  0  0  0  0  0  0  0  0
   60.5736   28.7912   45.0477 O   0  0  0  0  0  0  0  0  0  0  0  0
   60.3069   29.8260   49.5022 C   0  0  0  0  0  0  0  0  0  0  0  0
   61.5628   30.6588   49.5772 C   0  0  0  0  0  0  0  0  0  0  0  0
   62.3338   30.6593   50.7508 C   0  0  0  0  0  0  0  0  0  0  0  0
   63.5080   31.4135   50.8238 C   0  0  0  0  0  0  0  0  0  0  0  0
   63.9281   32.1635   49.7239 C   0  0  0  0  0  0  0  0  0  0  0  0
   63.1727   32.1664   48.5501 C   0  0  0  0  0  0  0  0  0  0  0  0
   61.9768   31.4277   48.4689 C   0  0  0  0  0  0  0  0  0  0  0  0
   61.2146   31.4002   47.2894 O   0  0  0  0  0  0  0  0  0  0  0  0
   60.2716   32.3629   46.9066 C   0  0  0  0  0  0  0  0  0  0  0  0
   58.9104   32.0465   46.7378 C   0  0  0  0  0  0  0  0  0  0  0  0
   58.0041   33.0338   46.3370 C   0  0  0  0  0  0  0  0  0  0  0  0
   58.4485   34.3352   46.0909 C   0  0  0  0  0  0  0  0  0  0  0  0
   59.8028   34.6494   46.2370 C   0  0  0  0  0  0  0  0  0  0  0  0
   60.7112   33.6644   46.6378 C   0  0  0  0  0  0  0  0  0  0  0  0
  5  1  1  0
  1  2  2  0
  1  3  1  0
  3 16  1  0
 16 17  1  0
 17 18  2  0
 18 19  1  0
 19 20  2  0
 20 21  1  0
 21 22  2  0
 22 23  1  0
 23 24  1  0
 24 25  2  0
 25 26  1  0
 26 27  2  0
 27 28  1  0
 28 29  2  0
  5  6  2  0
  6  7  1  0
  7  8  2  0
  8  9  1  0
  8 10  1  0
 10 11  1  0
 11 12  2  0
 11 13  1  0
 13 14  1  0
 14 15  2  0
 22 17  1  0
 29 24  1  0
 14  7  1  0
  3  4  1  0
M  CHG 1   9  -1
M  CHG 1  10  -1
M  CHG 1  13  -1
M  END
> <UniqueID>
60

> <SMILES>
O=C(/C=C\c1c([O-])[n-]c(=O)[n-]c1=O)NCc1ccccc1Oc1ccccc1

> <Energy>
59.41351733556436

> <Genealogy>
O=C(C=Cc1c([O-])[n-]c(=O)[n-]c1=O)NCc1ccccc1Oc1ccccc1 (protonated)
O=C(/C=C\c1c([O-])[n-]c(=O)[n-]c1=O)NCc1ccccc1Oc1ccccc1 (cis-trans isomerization)
O=C(/C=C\c1c([O-])[n-]c(=O)[n-]c1=O)NCc1ccccc1Oc1ccccc1 (3D coordinates assigned)
O=C(/C=C\c1c([O-])[n-]c(=O)[n-]c1=O)NCc1ccccc1Oc1ccccc1 (optimized conformer: 59.41351733556436 kcal/mol)

> <smiles>
O=C(C=Cc1c(O)[nH]c(=O)[nH]c1=O)NCc1ccccc1Oc1ccccc1

> <score_type>
oracle

> <origin>
adg

> <m_score__min__energy>
-16.41

> <m_primary>
energy

> <minimizedAffinity>
-8.30043

> <minimizedRMSD>
1.06047

> <CNNscore>
0.5403684378

> <CNNaffinity>
6.6976370811

> <CNN_VS>
3.6191916466

> <CNNaffinity_variance>
0.0795496926

$$$$
68:0


 37 41  0  0  0  0  0  0  0  0999 V2000
   60.9931   26.5625   46.8930 C   0  0  0  0  0  0  0  0  0  0  0  0
   59.9835   27.4192   46.7059 C   0  0  0  0  0  0  0  0  0  0  0  0
   60.1621   28.7263   46.2874 C   0  0  0  0  0  0  0  0  0  0  0  0
   58.9017   29.2366   46.0552 C   0  0  0  0  0  0  0  0  0  0  0  0
   57.9629   28.3032   46.3060 N   0  0  0  0  0  0  0  0  0  0  0  0
   58.5993   27.1950   46.7421 C   0  0  0  0  0  0  0  0  0  0  0  0
   57.9133   26.1007   47.1285 C   0  0  0  0  0  0  0  0  0  0  0  0
   56.9908   28.4097   46.1921 H   0  0  0  0  0  0  0  0  0  0  0  0
   58.6181   30.5934   45.5482 C   0  0  0  0  0  0  0  0  0  0  0  0
   58.7784   30.8266   44.3180 O   0  0  0  0  0  0  0  0  0  0  0  0
   58.1958   31.6564   46.4256 N   0  0  0  0  0  0  0  0  0  0  0  0
   57.4438   32.7983   45.8994 C   0  0  0  0  0  0  0  0  0  0  0  0
   58.3223   34.0657   45.9049 C   0  0  0  0  0  0  0  0  0  0  0  0
   59.3707   34.0659   46.9607 N   0  0  0  0  0  0  0  0  0  0  0  0
   58.9783   33.2589   48.1404 C   0  0  0  0  0  0  0  0  0  0  0  0
   58.7580   31.7789   47.7776 C   0  0  0  0  0  0  0  0  0  0  0  0
   60.7008   33.7019   46.4189 C   0  0  0  0  0  0  0  0  0  0  0  0
   61.6830   33.4030   47.5218 C   0  0  0  0  0  0  0  0  0  0  0  0
   62.5272   32.2817   47.4428 C   0  0  0  0  0  0  0  0  0  0  0  0
   63.4218   31.9999   48.4804 C   0  0  0  0  0  0  0  0  0  0  0  0
   63.4792   32.8330   49.6018 C   0  0  0  0  0  0  0  0  0  0  0  0
   62.6416   33.9486   49.6876 C   0  0  0  0  0  0  0  0  0  0  0  0
   61.7457   34.2340   48.6522 C   0  0  0  0  0  0  0  0  0  0  0  0
   57.3287   25.0976   46.2270 C   0  0  0  0  0  0  0  0  0  0  0  0
   58.0411   24.1088   45.6460 N   0  0  0  0  0  0  0  0  0  0  0  0
   57.1334   23.4790   44.8660 C   0  0  0  0  0  0  0  0  0  0  0  0
   57.4133   22.4635   44.1768 O   0  0  0  0  0  0  0  0  0  0  0  0
   55.9048   24.0398   44.9019 N   0  0  0  0  0  0  0  0  0  0  0  0
   56.0335   25.0658   45.7563 C   0  0  0  0  0  0  0  0  0  0  0  0
   55.0101   25.9470   46.0926 O   0  0  0  0  0  0  0  0  0  0  0  0
   54.6782   23.5656   44.2651 C   0  0  0  0  0  0  0  0  0  0  0  0
   53.7602   22.9877   45.3004 C   0  0  0  0  0  0  0  0  0  0  0  0
   54.2759   22.3010   46.4103 C   0  0  0  0  0  0  0  0  0  0  0  0
   53.3980   21.8213   47.3850 C   0  0  0  0  0  0  0  0  0  0  0  0
   52.0261   22.0372   47.2533 C   0  0  0  0  0  0  0  0  0  0  0  0
   51.5487   22.7374   46.1424 C   0  0  0  0  0  0  0  0  0  0  0  0
   52.4173   23.1975   45.2021 N   0  0  0  0  0  0  0  0  0  0  0  0
  1  2  2  0
  2  3  1  0
  3  4  2  0
  4  9  1  0
  9 10  2  0
  9 11  1  0
 11 12  1  0
 12 13  1  0
 13 14  1  0
 14 17  1  0
 17 18  1  0
 18 19  2  0
 19 20  1  0
 20 21  2  0
 21 22  1  0
 22 23  2  0
 14 15  1  0
 15 16  1  0
  4  5  1  0
  5  6  1  0
  6  7  2  0
  7 24  1  0
 24 25  1  0
 25 26  1  0
 26 27  2  0
 26 28  1  0
 28 31  1  0
 31 32  1  0
 32 33  2  0
 33 34  1  0
 34 35  2  0
 35 36  1  0
 36 37  2  0
 28 29  1  0
 29 30  1  0
  6  2  1  0
 29 24  2  0
 16 11  1  0
 37 32  1  0
 23 18  1  0
  5  8  1  0
M  CHG 1  25  -1
M  CHG 1  30  -1
M  END
> <UniqueID>
64

> <SMILES>
C=c1cc(C(=O)N2CCN(Cc3ccccc3)CC2)[nH]c1=Cc1[n-]c(=O)n(Cc2ccccn2)c1[O-]

> <Energy>
148.95685186672665

> <Genealogy>
C=c1cc(C(=O)N2CCN(Cc3ccccc3)CC2)[nH]c1=Cc1[n-]c(=O)n(Cc2ccccn2)c1[O-] (protonated)
C=c1cc(C(=O)N2CCN(Cc3ccccc3)CC2)[nH]c1=Cc1[n-]c(=O)n(Cc2ccccn2)c1[O-] (3D coordinates assigned)
C=c1cc(C(=O)N2CCN(Cc3ccccc3)CC2)[nH]c1=Cc1[n-]c(=O)n(Cc2ccccn2)c1[O-] (nonaromatic ring conformer: 148.95685186672665 kcal/mol)

> <smiles>
C=c1cc(C(=O)N2CCN(Cc3ccccc3)CC2)[nH]c1=Cc1[nH]c(=O)n(Cc2ccccn2)c1O

> <score_type>
oracle

> <origin>
adg

> <m_score__min__energy>
-14.85

> <m_primary>
energy

> <minimizedAffinity>
-8.79965

> <minimizedRMSD>
0.66056

> <CNNscore>
0.1356488317

> <CNNaffinity>
6.3975090981

> <CNN_VS>
0.8678146601

> <CNNaffinity_variance>
0.3044863641

$$$$
69:0


 31 34  0  0  0  0  0  0  0  0999 V2000
   54.9589   28.8459   55.0809 C   0  0  0  0  0  0  0  0  0  0  0  0
   55.4284   29.3357   53.9193 C   0  0  0  0  0  0  0  0  0  0  0  0
   54.7089   30.1228   53.0075 C   0  0  0  0  0  0  0  0  0  0  0  0
   53.3910   30.3885   52.9110 C   0  0  0  0  0  0  0  0  0  0  0  0
   55.6386   30.6396   52.1274 C   0  0  0  0  0  0  0  0  0  0  0  0
   56.8635   30.1174   52.4807 C   0  0  0  0  0  0  0  0  0  0  0  0
   56.7386   29.2795   53.5450 N   0  0  0  0  0  0  0  0  0  0  0  0
   52.6436   30.5825   51.6587 C   0  0  0  0  0  0  0  0  0  0  0  0
   52.6920   29.7238   50.6249 N   0  0  0  0  0  0  0  0  0  0  0  0
   51.7784   30.2209   49.7634 C   0  0  0  0  0  0  0  0  0  0  0  0
   51.5407   29.6896   48.6478 O   0  0  0  0  0  0  0  0  0  0  0  0
   51.1305   31.3225   50.1964 N   0  0  0  0  0  0  0  0  0  0  0  0
   51.6786   31.5309   51.4044 C   0  0  0  0  0  0  0  0  0  0  0  0
   51.2846   32.5473   52.2658 O   0  0  0  0  0  0  0  0  0  0  0  0
   58.1081   30.4600   51.7591 C   0  0  0  0  0  0  0  0  0  0  0  0
   58.3145   29.9162   50.6382 O   0  0  0  0  0  0  0  0  0  0  0  0
   58.9702   31.5290   52.2232 N   0  0  0  0  0  0  0  0  0  0  0  0
   58.1509   32.6776   52.6645 C   0  0  0  0  0  0  0  0  0  0  0  0
   59.0096   33.9511   52.8293 C   0  0  0  0  0  0  0  0  0  0  0  0
   60.3798   33.6242   52.9453 O   0  0  0  0  0  0  0  0  0  0  0  0
   60.8530   33.0680   51.7305 C   0  0  0  0  0  0  0  0  0  0  0  0
   59.9273   31.9577   51.1828 C   0  0  0  0  0  0  0  0  0  0  0  0
   58.7174   30.6701   51.8139 H   0  0  0  0  0  0  0  0  0  0  0  0
   57.8028   28.4698   54.1743 C   0  0  0  0  0  0  0  0  0  0  0  0
   58.7996   29.3132   54.9290 C   0  0  0  0  0  0  0  0  0  0  0  0
   60.1797   29.1458   54.7325 C   0  0  0  0  0  0  0  0  0  0  0  0
   61.0882   29.9060   55.4699 C   0  0  0  0  0  0  0  0  0  0  0  0
   60.6092   30.8127   56.4202 C   0  0  0  0  0  0  0  0  0  0  0  0
   61.4154   31.5073   57.0934 O   0  0  0  0  0  0  0  0  0  0  0  0
   59.2706   30.9397   56.6233 N   0  0  0  0  0  0  0  0  0  0  0  0
   58.3662   30.2137   55.9142 C   0  0  0  0  0  0  0  0  0  0  0  0
  1  2  2  0
  2  3  1  0
  3  4  2  0
  4  8  1  0
  8  9  1  0
  9 10  1  0
 10 11  2  0
 10 12  1  0
 12 13  1  0
 13 14  1  0
  3  5  1  0
  5  6  2  0
  6 15  1  0
 15 16  2  0
 15 17  1  0
 17 18  1  0
 18 19  1  0
 19 20  1  0
 20 21  1  0
 21 22  1  0
  6  7  1  0
  7 24  1  0
 24 25  1  0
 25 26  1  0
 26 27  2  0
 27 28  1  0
 28 29  2  0
 28 30  1  0
 30 31  1  0
  7  2  1  0
 31 25  2  0
 13  8  2  0
 22 17  1  0
 17 23  1  0
M  CHG 1   9  -1
M  CHG 1  12  -1
M  CHG 1  14  -1
M  CHG 1  17   1
M  CHG 1  30  -1
M  END
> <UniqueID>
65

> <SMILES>
C=c1c(=Cc2[n-]c(=O)[n-]c2[O-])cc(C(=O)[NH+]2CCOCC2)n1Cc1ccc(=O)[n-]c1

> <Energy>
141.11336275604282

> <Genealogy>
C=c1c(=Cc2[n-]c(=O)[n-]c2[O-])cc(C(=O)[NH+]2CCOCC2)n1Cc1ccc(=O)[n-]c1 (protonated)
C=c1c(=Cc2[n-]c(=O)[n-]c2[O-])cc(C(=O)[NH+]2CCOCC2)n1Cc1ccc(=O)[n-]c1 (3D coordinates assigned)
C=c1c(=Cc2[n-]c(=O)[n-]c2[O-])cc(C(=O)[NH+]2CCOCC2)n1Cc1ccc(=O)[n-]c1 (nonaromatic ring conformer: 141.11336275604282 kcal/mol)

> <smiles>
C=c1c(=Cc2[nH]c(=O)[nH]c2O)cc(C(=O)N2CCOCC2)n1Cc1ccc(=O)[nH]c1

> <score_type>
oracle

> <origin>
adg

> <m_score__min__energy>
-16.239999999999998

> <m_primary>
energy

> <minimizedAffinity>
-4.83735

> <minimizedRMSD>
1.08571

> <CNNscore>
0.1351959258

> <CNNaffinity>
4.7185611725

> <CNN_VS>
0.6379302740

> <CNNaffinity_variance>
0.5257527828

$$$$
73:0


 30 32  0  0  0  0  0  0  0  0999 V2000
   59.2465   33.6218   46.8935 S   0  0  0  0  0  0  0  0  0  0  0  0
   59.2424   34.9785   47.5405 O   0  0  0  0  0  0  0  0  0  0  0  0
   60.0217   33.7154   45.6087 O   0  0  0  0  0  0  0  0  0  0  0  0
   65.0767   31.5712   51.3842 C   0  0  0  0  0  0  0  0  0  0  0  0
   63.7573   31.2578   50.8061 N   0  0  0  0  0  0  0  0  0  0  0  0
   63.1590   32.1483   49.9557 C   0  0  0  0  0  0  0  0  0  0  0  0
   63.7428   33.2287   49.6586 O   0  0  0  0  0  0  0  0  0  0  0  0
   61.8973   31.8692   49.4163 C   0  0  0  0  0  0  0  0  0  0  0  0
   61.2726   32.7643   48.5240 C   0  0  0  0  0  0  0  0  0  0  0  0
   60.0160   32.4753   47.9889 C   0  0  0  0  0  0  0  0  0  0  0  0
   59.3693   31.2918   48.3487 C   0  0  0  0  0  0  0  0  0  0  0  0
   59.9741   30.3973   49.2324 C   0  0  0  0  0  0  0  0  0  0  0  0
   61.2508   30.6681   49.7833 C   0  0  0  0  0  0  0  0  0  0  0  0
   61.8629   29.8042   50.6665 N   0  0  0  0  0  0  0  0  0  0  0  0
   61.1920   28.5508   51.0716 C   0  0  0  0  0  0  0  0  0  0  0  0
   63.1025   30.1123   51.1805 C   0  0  0  0  0  0  0  0  0  0  0  0
   63.6500   29.3330   52.0129 O   0  0  0  0  0  0  0  0  0  0  0  0
   57.6047   33.1519   46.5568 N   0  0  0  0  0  0  0  0  0  0  0  0
   57.3404   33.1153   45.1170 C   0  0  0  0  0  0  0  0  0  0  0  0
   57.5004   31.7247   44.5690 C   0  0  0  0  0  0  0  0  0  0  0  0
   57.8811   31.5742   43.3782 O   0  0  0  0  0  0  0  0  0  0  0  0
   57.2202   30.5634   45.3593 N   0  0  0  0  0  0  0  0  0  0  0  0
   57.1710   29.2038   44.8356 C   0  0  0  0  0  0  0  0  0  0  0  0
   58.2357   28.3755   45.5009 C   0  0  0  0  0  0  0  0  0  0  0  0
   59.5697   28.8206   45.5054 C   0  0  0  0  0  0  0  0  0  0  0  0
   60.5707   28.0444   46.0946 C   0  0  0  0  0  0  0  0  0  0  0  0
   60.2534   26.8141   46.6752 C   0  0  0  0  0  0  0  0  0  0  0  0
   58.9342   26.3548   46.6613 C   0  0  0  0  0  0  0  0  0  0  0  0
   57.9252   27.1267   46.0734 C   0  0  0  0  0  0  0  0  0  0  0  0
   56.6205   26.6444   46.0580 O   0  0  0  0  0  0  0  0  0  0  0  0
  4  5  1  0
  5  6  1  0
  6  7  2  0
  6  8  1  0
  8  9  2  0
  9 10  1  0
 10  1  1  0
  1  2  2  0
  1  3  2  0
  1 18  1  0
 18 19  1  0
 19 20  1  0
 20 21  2  0
 20 22  1  0
 22 23  1  0
 23 24  1  0
 24 25  2  0
 25 26  1  0
 26 27  2  0
 27 28  1  0
 28 29  2  0
 29 30  1  0
 10 11  2  0
 11 12  1  0
 12 13  2  0
 13 14  1  0
 14 15  1  0
 14 16  1  0
 16 17  2  0
 16  5  1  0
 13  8  1  0
 29 24  1  0
M  CHG 1  18  -1
M  CHG 1  22  -1
M  CHG 1  30  -1
M  END
> <UniqueID>
69

> <SMILES>
Cn1c(=O)c2cc(S(=O)(=O)[N-]CC(=O)[N-]Cc3ccccc3[O-])ccc2n(C)c1=O

> <Energy>
61.00292574997998

> <Genealogy>
Cn1c(=O)c2cc(S(=O)(=O)[N-]CC(=O)[N-]Cc3ccccc3[O-])ccc2n(C)c1=O (protonated)
Cn1c(=O)c2cc(S(=O)(=O)[N-]CC(=O)[N-]Cc3ccccc3[O-])ccc2n(C)c1=O (3D coordinates assigned)
Cn1c(=O)c2cc(S(=O)(=O)[N-]CC(=O)[N-]Cc3ccccc3[O-])ccc2n(C)c1=O (optimized conformer: 61.00292574997998 kcal/mol)

> <smiles>
Cn1c(=O)c2cc(S(=O)(=O)NCC(=O)NCc3ccccc3O)ccc2n(C)c1=O

> <score_type>
oracle

> <origin>
adg

> <m_score__min__energy>
-15.130000000000001

> <m_primary>
energy

> <minimizedAffinity>
-7.78707

> <minimizedRMSD>
1.33596

> <CNNscore>
0.8254919052

> <CNNaffinity>
6.9820246696

> <CNN_VS>
5.7636046410

> <CNNaffinity_variance>
0.2471840382

$$$$
74:0


 37 40  0  0  0  0  0  0  0  0999 V2000
   59.0690   31.5825   46.5557 C   0  0  0  0  0  0  0  0  0  0  0  0
   58.7847   32.7364   45.8107 C   0  0  0  0  0  0  0  0  0  0  0  0
   58.9845   34.0000   46.3697 C   0  0  0  0  0  0  0  0  0  0  0  0
   59.4770   34.1223   47.6702 C   0  0  0  0  0  0  0  0  0  0  0  0
   59.7828   32.9765   48.4244 C   0  0  0  0  0  0  0  0  0  0  0  0
   59.5594   31.7083   47.8648 C   0  0  0  0  0  0  0  0  0  0  0  0
   60.3001   33.0976   49.8044 C   0  0  0  0  0  0  0  0  0  0  0  0
   59.4920   33.3364   50.7428 O   0  0  0  0  0  0  0  0  0  0  0  0
   61.7000   32.9285   50.0986 N   0  0  0  0  0  0  0  0  0  0  0  0
   62.4575   31.8607   49.4252 C   0  0  0  0  0  0  0  0  0  0  0  0
   63.7010   31.4578   50.2247 C   0  0  0  0  0  0  0  0  0  0  0  0
   64.4676   32.6522   50.6089 N   0  0  0  0  0  0  0  0  0  0  0  0
   65.9067   32.6267   50.6330 C   0  0  0  0  0  0  0  0  0  0  0  0
   66.5218   31.5449   50.4306 O   0  0  0  0  0  0  0  0  0  0  0  0
   63.7707   33.8620   51.0654 C   0  0  0  0  0  0  0  0  0  0  0  0
   62.2715   33.6148   51.2637 C   0  0  0  0  0  0  0  0  0  0  0  0
   66.6133   33.8143   50.8868 O   0  0  0  0  0  0  0  0  0  0  0  0
   67.4678   34.0755   52.0108 C   0  0  0  0  0  0  0  0  0  0  0  0
   68.8696   33.4793   51.7750 C   0  0  0  0  0  0  0  0  0  0  0  0
   66.8358   33.3895   53.2295 C   0  0  0  0  0  0  0  0  0  0  0  0
   67.5580   35.5898   52.2847 C   0  0  0  0  0  0  0  0  0  0  0  0
   60.2522   29.0061   47.4307 C   0  0  0  0  0  0  0  0  0  0  0  0
   59.3668   29.0975   46.4257 C   0  0  0  0  0  0  0  0  0  0  0  0
   58.9489   28.0649   45.5705 C   0  0  0  0  0  0  0  0  0  0  0  0
   59.1214   26.7316   45.6433 C   0  0  0  0  0  0  0  0  0  0  0  0
   58.2486   28.6732   44.5409 C   0  0  0  0  0  0  0  0  0  0  0  0
   58.1962   30.0187   44.8343 C   0  0  0  0  0  0  0  0  0  0  0  0
   57.5111   31.0456   43.9823 C   0  0  0  0  0  0  0  0  0  0  0  0
   58.8731   30.2800   45.9745 N   0  0  0  0  0  0  0  0  0  0  0  0
   58.0961   25.7561   46.0488 C   0  0  0  0  0  0  0  0  0  0  0  0
   58.3637   24.5369   46.5539 N   0  0  0  0  0  0  0  0  0  0  0  0
   57.1466   24.0686   46.9035 C   0  0  0  0  0  0  0  0  0  0  0  0
   56.9787   22.9298   47.4116 O   0  0  0  0  0  0  0  0  0  0  0  0
   56.1251   24.9216   46.6783 N   0  0  0  0  0  0  0  0  0  0  0  0
   56.7423   25.9913   46.1479 C   0  0  0  0  0  0  0  0  0  0  0  0
   56.0742   27.1520   45.7673 O   0  0  0  0  0  0  0  0  0  0  0  0
   55.1456   27.2151   45.8757 H   0  0  0  0  0  0  0  0  0  0  0  0
 22 23  2  0
 23 24  1  0
 24 25  2  0
 25 30  1  0
 30 31  1  0
 31 32  1  0
 32 33  2  0
 32 34  1  0
 34 35  1  0
 35 36  1  0
 24 26  1  0
 26 27  2  0
 27 28  1  0
 27 29  1  0
 29  1  1  0
  1  2  2  0
  2  3  1  0
  3  4  2  0
  4  5  1  0
  5  7  1  0
  7  8  2  0
  7  9  1  0
  9 10  1  0
 10 11  1  0
 11 12  1  0
 12 13  1  0
 13 14  2  0
 13 17  1  0
 17 18  1  0
 18 19  1  0
 18 20  1  0
 18 21  1  0
 12 15  1  0
 15 16  1  0
  5  6  2  0
 29 23  1  0
  6  1  1  0
 35 30  2  0
 16  9  1  0
 36 37  1  0
M  CHG 1  31  -1
M  CHG 1  34  -1
M  END
> <UniqueID>
70

> <SMILES>
C=c1c(=Cc2[n-]c(=O)[n-]c2O)cc(C)n1-c1cccc(C(=O)N2CCN(C(=O)OC(C)(C)C)CC2)c1

> <Energy>
140.98375534261152

> <Genealogy>
C=c1c(=Cc2[n-]c(=O)[n-]c2O)cc(C)n1-c1cccc(C(=O)N2CCN(C(=O)OC(C)(C)C)CC2)c1 (protonated)
C=c1c(=Cc2[n-]c(=O)[n-]c2O)cc(C)n1-c1cccc(C(=O)N2CCN(C(=O)OC(C)(C)C)CC2)c1 (3D coordinates assigned)
C=c1c(=Cc2[n-]c(=O)[n-]c2O)cc(C)n1-c1cccc(C(=O)N2CCN(C(=O)OC(C)(C)C)CC2)c1 (nonaromatic ring conformer: 140.98375534261152 kcal/mol)

> <smiles>
C=c1c(=Cc2[nH]c(=O)[nH]c2O)cc(C)n1-c1cccc(C(=O)N2CCN(C(=O)OC(C)(C)C)CC2)c1

> <score_type>
oracle

> <origin>
adg

> <m_score__min__energy>
-14.23

> <m_primary>
energy

> <minimizedAffinity>
-10.00368

> <minimizedRMSD>
0.87929

> <CNNscore>
0.6987051964

> <CNNaffinity>
7.3027057648

> <CNN_VS>
5.1024384499

> <CNNaffinity_variance>
0.0114995344

$$$$
77:0


 28 31  0  0  0  0  0  0  0  0999 V2000
   54.1580   27.7883   53.7414 C   0  0  0  0  0  0  0  0  0  0  0  0
   54.8847   28.8924   53.4823 C   0  0  0  0  0  0  0  0  0  0  0  0
   56.1523   28.9963   54.0860 C   0  0  0  0  0  0  0  0  0  0  0  0
   57.0257   29.9618   53.7061 N   0  0  0  0  0  0  0  0  0  0  0  0
   56.7263   30.8681   52.7406 C   0  0  0  0  0  0  0  0  0  0  0  0
   55.4849   30.8090   52.1005 C   0  0  0  0  0  0  0  0  0  0  0  0
   54.5008   29.8911   52.5226 C   0  0  0  0  0  0  0  0  0  0  0  0
   53.2529   30.0443   52.0135 C   0  0  0  0  0  0  0  0  0  0  0  0
   57.7338   31.8750   52.3588 C   0  0  0  0  0  0  0  0  0  0  0  0
   57.4583   33.0971   52.5137 O   0  0  0  0  0  0  0  0  0  0  0  0
   59.0172   31.4941   51.8224 N   0  0  0  0  0  0  0  0  0  0  0  0
   60.2149   32.2606   52.1743 C   0  0  0  0  0  0  0  0  0  0  0  0
   61.3305   31.2999   52.5929 C   0  0  0  0  0  0  0  0  0  0  0  0
   61.4113   30.1395   51.6922 N   0  0  0  0  0  0  0  0  0  0  0  0
   62.4548   29.1758   51.8986 C   0  0  0  0  0  0  0  0  0  0  0  0
   63.6303   29.4517   51.5308 O   0  0  0  0  0  0  0  0  0  0  0  0
   60.5829   30.0805   50.4810 C   0  0  0  0  0  0  0  0  0  0  0  0
   59.1178   30.4187   50.8167 C   0  0  0  0  0  0  0  0  0  0  0  0
   62.2304   27.9106   52.6874 C   0  0  0  0  0  0  0  0  0  0  0  0
   60.7951   27.4413   52.8832 C   0  0  0  0  0  0  0  0  0  0  0  0
   61.6868   26.7511   51.8654 C   0  0  0  0  0  0  0  0  0  0  0  0
   52.1415   30.7285   52.6985 C   0  0  0  0  0  0  0  0  0  0  0  0
   51.8069   30.5287   53.9868 N   0  0  0  0  0  0  0  0  0  0  0  0
   50.8249   31.4325   54.1977 C   0  0  0  0  0  0  0  0  0  0  0  0
   50.2459   31.5515   55.3052 O   0  0  0  0  0  0  0  0  0  0  0  0
   50.5198   32.1936   53.1226 N   0  0  0  0  0  0  0  0  0  0  0  0
   51.3648   31.7431   52.1875 C   0  0  0  0  0  0  0  0  0  0  0  0
   51.4447   32.2577   50.8978 O   0  0  0  0  0  0  0  0  0  0  0  0
  1  2  2  0
  2  3  1  0
  3  4  2  0
  4  5  1  0
  5  9  1  0
  9 10  2  0
  9 11  1  0
 11 12  1  0
 12 13  1  0
 13 14  1  0
 14 15  1  0
 15 16  2  0
 15 19  1  0
 19 20  1  0
 20 21  1  0
 14 17  1  0
 17 18  1  0
  5  6  2  0
  6  7  1  0
  7  8  2  0
  8 22  1  0
 22 23  1  0
 23 24  1  0
 24 25  2  0
 24 26  1  0
 26 27  1  0
 27 28  1  0
  7  2  1  0
 27 22  2  0
 18 11  1  0
 21 19  1  0
M  CHG 1  23  -1
M  CHG 1  26  -1
M  CHG 1  28  -1
M  END
> <UniqueID>
72

> <SMILES>
C=c1cnc(C(=O)N2CCN(C(=O)C3CC3)CC2)cc1=Cc1[n-]c(=O)[n-]c1[O-]

> <Energy>
373.16729940666096

> <Genealogy>
C=c1cnc(C(=O)N2CCN(C(=O)C3CC3)CC2)cc1=Cc1[n-]c(=O)[n-]c1[O-] (protonated)
C=c1cnc(C(=O)N2CCN(C(=O)C3CC3)CC2)cc1=Cc1[n-]c(=O)[n-]c1[O-] (3D coordinates assigned)
C=c1cnc(C(=O)N2CCN(C(=O)C3CC3)CC2)cc1=Cc1[n-]c(=O)[n-]c1[O-] (nonaromatic ring conformer: 373.16729940666096 kcal/mol)

> <smiles>
C=c1cnc(C(=O)N2CCN(C(=O)C3CC3)CC2)cc1=Cc1[nH]c(=O)[nH]c1O

> <score_type>
oracle

> <origin>
adg

> <m_score__min__energy>
-16.550000000000001

> <m_primary>
energy

> <minimizedAffinity>
-6.33125

> <minimizedRMSD>
0.79624

> <CNNscore>
0.1840583086

> <CNNaffinity>
4.6627445221

> <CNN_VS>
0.8582168818

> <CNNaffinity_variance>
0.3899004459

$$$$
1:0


 30 33  0  0  0  0  0  0  0  0999 V2000
   58.6479   26.5913   47.4329 C   0  0  0  0  0  0  0  0  0  0  0  0
   58.5632   27.3047   46.2987 C   0  0  0  0  0  0  0  0  0  0  0  0
   57.9745   26.9073   45.0838 C   0  0  0  0  0  0  0  0  0  0  0  0
   57.5106   25.7095   44.6750 C   0  0  0  0  0  0  0  0  0  0  0  0
   57.9470   28.0345   44.2802 C   0  0  0  0  0  0  0  0  0  0  0  0
   58.5577   29.0479   44.9881 C   0  0  0  0  0  0  0  0  0  0  0  0
   58.7495   30.4440   44.4773 C   0  0  0  0  0  0  0  0  0  0  0  0
   58.9301   28.6102   46.2108 N   0  0  0  0  0  0  0  0  0  0  0  0
   57.0896   24.6050   45.5574 C   0  0  0  0  0  0  0  0  0  0  0  0
   55.8587   24.6396   46.2332 C   0  0  0  0  0  0  0  0  0  0  0  0
   54.9810   25.7048   46.0564 O   0  0  0  0  0  0  0  0  0  0  0  0
   55.5164   23.6289   47.0741 N   0  0  0  0  0  0  0  0  0  0  0  0
   56.3567   22.5838   47.2892 C   0  0  0  0  0  0  0  0  0  0  0  0
   56.0189   21.6569   48.0686 O   0  0  0  0  0  0  0  0  0  0  0  0
   57.5645   22.5417   46.6688 N   0  0  0  0  0  0  0  0  0  0  0  0
   57.9519   23.5277   45.8194 C   0  0  0  0  0  0  0  0  0  0  0  0
   59.0825   23.4617   45.2676 O   0  0  0  0  0  0  0  0  0  0  0  0
   59.5721   29.4023   47.2275 C   0  0  0  0  0  0  0  0  0  0  0  0
   59.0385   29.4754   48.5178 C   0  0  0  0  0  0  0  0  0  0  0  0
   59.6659   30.2537   49.4920 C   0  0  0  0  0  0  0  0  0  0  0  0
   60.8401   30.9580   49.1686 C   0  0  0  0  0  0  0  0  0  0  0  0
   61.3327   30.8749   47.8994 N   0  0  0  0  0  0  0  0  0  0  0  0
   60.7354   30.1253   46.9350 C   0  0  0  0  0  0  0  0  0  0  0  0
   61.5202   31.7735   50.1466 N   0  0  0  0  0  0  0  0  0  0  0  0
   60.8013   32.2269   51.3424 C   0  0  0  0  0  0  0  0  0  0  0  0
   61.7943   32.4654   52.4851 C   0  0  0  0  0  0  0  0  0  0  0  0
   62.8321   33.4636   52.1324 N   0  0  0  0  0  0  0  0  0  0  0  0
   64.0315   33.2724   52.9617 C   0  0  0  0  0  0  0  0  0  0  0  0
   63.1757   33.5198   50.6887 C   0  0  0  0  0  0  0  0  0  0  0  0
   62.9114   32.2006   49.9500 C   0  0  0  0  0  0  0  0  0  0  0  0
  1  2  2  0
  2  3  1  0
  3  4  2  0
  4  9  1  0
  9 10  2  0
 10 11  1  0
 10 12  1  0
 12 13  1  0
 13 14  2  0
 13 15  1  0
 15 16  1  0
 16 17  2  0
  3  5  1  0
  5  6  2  0
  6  7  1  0
  6  8  1  0
  8 18  1  0
 18 19  2  0
 19 20  1  0
 20 21  2  0
 21 24  1  0
 24 25  1  0
 25 26  1  0
 26 27  1  0
 27 28  1  0
 27 29  1  0
 29 30  1  0
 21 22  1  0
 22 23  2  0
  8  2  1  0
 23 18  1  0
 16  9  1  0
 30 24  1  0
M  CHG 1  11  -1
M  CHG 1  12  -1
M  CHG 1  15  -1
M  END
> <UniqueID>
2

> <SMILES>
C=c1c(=Cc2c([O-])[n-]c(=O)[n-]c2=O)cc(C)n1-c1ccc(N2CCN(C)CC2)nc1

> <Energy>
112.41401748044873

> <Genealogy>
C=c1c(=Cc2c([O-])[n-]c(=O)[n-]c2=O)cc(C)n1-c1ccc(N2CCN(C)CC2)nc1 (protonated)
C=c1c(=Cc2c([O-])[n-]c(=O)[n-]c2=O)cc(C)n1-c1ccc(N2CCN(C)CC2)nc1 (3D coordinates assigned)
C=c1c(=Cc2c([O-])[n-]c(=O)[n-]c2=O)cc(C)n1-c1ccc(N2CCN(C)CC2)nc1 (nonaromatic ring conformer: 112.41401748044873 kcal/mol)

> <smiles>
C=c1c(=Cc2c(O)[nH]c(=O)[nH]c2=O)cc(C)n1-c1ccc(N2CCN(C)CC2)nc1

> <score_type>
oracle

> <origin>
adg

> <m_score__min__energy>
-15.41

> <m_primary>
energy

> <minimizedAffinity>
-7.76921

> <minimizedRMSD>
1.95334

> <CNNscore>
0.0727041364

> <CNNaffinity>
5.9254775047

> <CNN_VS>
0.4308067262

> <CNNaffinity_variance>
0.0253736693

$$$$
8:0


 31 34  0  0  0  0  0  0  0  0999 V2000
   56.5918   29.2956   44.6354 C   0  0  0  0  0  0  0  0  0  0  0  0
   57.8236   28.9188   45.0126 C   0  0  0  0  0  0  0  0  0  0  0  0
   58.4242   27.6585   44.8420 C   0  0  0  0  0  0  0  0  0  0  0  0
   57.9147   26.4857   44.4190 C   0  0  0  0  0  0  0  0  0  0  0  0
   59.7557   27.8130   45.1942 C   0  0  0  0  0  0  0  0  0  0  0  0
   59.9104   29.1163   45.6176 C   0  0  0  0  0  0  0  0  0  0  0  0
   61.2065   29.7224   46.0600 C   0  0  0  0  0  0  0  0  0  0  0  0
   58.7445   29.7892   45.4983 N   0  0  0  0  0  0  0  0  0  0  0  0
   57.4330   25.3994   45.2808 C   0  0  0  0  0  0  0  0  0  0  0  0
   58.3104   24.0054   45.6401 S   0  0  0  0  0  0  0  0  0  0  0  0
   57.1678   23.4662   46.7512 C   0  0  0  0  0  0  0  0  0  0  0  0
   57.2558   22.3903   47.3984 O   0  0  0  0  0  0  0  0  0  0  0  0
   56.1402   24.3309   46.8839 N   0  0  0  0  0  0  0  0  0  0  0  0
   56.2921   25.4181   46.0854 C   0  0  0  0  0  0  0  0  0  0  0  0
   55.3840   26.4708   46.0966 O   0  0  0  0  0  0  0  0  0  0  0  0
   55.3741   24.1905   47.4862 H   0  0  0  0  0  0  0  0  0  0  0  0
   58.5607   31.1926   45.7580 C   0  0  0  0  0  0  0  0  0  0  0  0
   58.1956   32.0313   44.6961 C   0  0  0  0  0  0  0  0  0  0  0  0
   57.9305   33.3841   44.9217 C   0  0  0  0  0  0  0  0  0  0  0  0
   58.0234   33.9071   46.2114 C   0  0  0  0  0  0  0  0  0  0  0  0
   58.3941   33.0842   47.2785 C   0  0  0  0  0  0  0  0  0  0  0  0
   58.6816   31.7237   47.0666 C   0  0  0  0  0  0  0  0  0  0  0  0
   59.1136   30.8877   48.2113 C   0  0  0  0  0  0  0  0  0  0  0  0
   58.6197   29.7385   48.3689 O   0  0  0  0  0  0  0  0  0  0  0  0
   60.0122   31.4287   49.1909 N   0  0  0  0  0  0  0  0  0  0  0  0
   61.2205   31.8851   49.0119 C   0  0  0  0  0  0  0  0  0  0  0  0
   62.3275   31.4316   49.7593 C   0  0  0  0  0  0  0  0  0  0  0  0
   63.5985   31.9372   49.4766 C   0  0  0  0  0  0  0  0  0  0  0  0
   63.7654   32.8751   48.4587 C   0  0  0  0  0  0  0  0  0  0  0  0
   62.6530   33.2929   47.7276 C   0  0  0  0  0  0  0  0  0  0  0  0
   61.4227   32.7920   48.0169 N   0  0  0  0  0  0  0  0  0  0  0  0
  1  2  2  0
  2  3  1  0
  3  4  2  0
  4  9  1  0
  9 10  1  0
 10 11  1  0
 11 12  2  0
 11 13  1  0
 13 14  1  0
 14 15  1  0
  3  5  1  0
  5  6  2  0
  6  7  1  0
  6  8  1  0
  8 17  1  0
 17 18  2  0
 18 19  1  0
 19 20  2  0
 20 21  1  0
 21 22  2  0
 22 23  1  0
 23 24  2  0
 23 25  1  0
 25 26  2  0
 26 27  1  0
 27 28  2  0
 28 29  1  0
 29 30  2  0
 30 31  1  0
  8  2  1  0
 22 17  1  0
 31 26  1  0
 14  9  2  0
 13 16  1  0
M  CHG 1  15  -1
M  CHG 1  31  -1
M  END
> <UniqueID>
9

> <SMILES>
C=c1c(=Cc2sc(=O)[nH]c2[O-])cc(C)n1-c1ccccc1C(=O)N=c1cccc[n-]1

> <Energy>
136.34120100061222

> <Genealogy>
C=c1c(=Cc2sc(=O)[nH]c2[O-])cc(C)n1-c1ccccc1C(=O)N=c1cccc[n-]1 (protonated)
C=c1c(=Cc2sc(=O)[nH]c2[O-])cc(C)n1-c1ccccc1C(=O)N=c1cccc[n-]1 (3D coordinates assigned)
C=c1c(=Cc2sc(=O)[nH]c2[O-])cc(C)n1-c1ccccc1C(=O)N=c1cccc[n-]1 (optimized conformer: 136.34120100061222 kcal/mol)

> <smiles>
C=c1c(=Cc2sc(=O)[nH]c2O)cc(C)n1-c1ccccc1C(=O)N=c1cccc[nH]1

> <score_type>
oracle

> <origin>
adg

> <m_score__min__energy>
-14.85

> <m_primary>
energy

> <minimizedAffinity>
-8.20018

> <minimizedRMSD>
0.61370

> <CNNscore>
0.7618470192

> <CNNaffinity>
7.2737007141

> <CNN_VS>
5.5414471626

> <CNNaffinity_variance>
0.0813927650

$$$$
11:0


 36 40  0  0  0  0  0  0  0  0999 V2000
   58.5962   31.2686   45.7067 C   0  0  0  0  0  0  0  0  0  0  0  0
   58.2046   32.1039   44.6477 C   0  0  0  0  0  0  0  0  0  0  0  0
   58.0212   33.4733   44.8534 C   0  0  0  0  0  0  0  0  0  0  0  0
   58.2155   34.0210   46.1209 C   0  0  0  0  0  0  0  0  0  0  0  0
   58.6010   33.2030   47.1855 C   0  0  0  0  0  0  0  0  0  0  0  0
   58.8109   31.8276   46.9929 C   0  0  0  0  0  0  0  0  0  0  0  0
   56.5262   29.4104   44.7021 C   0  0  0  0  0  0  0  0  0  0  0  0
   57.7568   29.0021   45.0551 C   0  0  0  0  0  0  0  0  0  0  0  0
   58.2929   27.7090   44.9255 C   0  0  0  0  0  0  0  0  0  0  0  0
   57.7221   26.5391   44.5804 C   0  0  0  0  0  0  0  0  0  0  0  0
   59.6385   27.8163   45.2407 C   0  0  0  0  0  0  0  0  0  0  0  0
   59.8639   29.1256   45.6052 C   0  0  0  0  0  0  0  0  0  0  0  0
   61.1828   29.6482   46.0907 C   0  0  0  0  0  0  0  0  0  0  0  0
   58.7327   29.8547   45.4627 N   0  0  0  0  0  0  0  0  0  0  0  0
   57.3167   25.4724   45.5075 C   0  0  0  0  0  0  0  0  0  0  0  0
   58.0005   24.3308   45.7078 N   0  0  0  0  0  0  0  0  0  0  0  0
   57.1845   23.6178   46.5143 C   0  0  0  0  0  0  0  0  0  0  0  0
   57.4890   22.4753   46.9455 O   0  0  0  0  0  0  0  0  0  0  0  0
   56.0135   24.2197   46.8139 N   0  0  0  0  0  0  0  0  0  0  0  0
   56.1080   25.3878   46.1536 C   0  0  0  0  0  0  0  0  0  0  0  0
   55.1088   26.3544   46.1375 O   0  0  0  0  0  0  0  0  0  0  0  0
   54.3118   26.2122   46.6093 H   0  0  0  0  0  0  0  0  0  0  0  0
   59.2069   31.0039   48.1572 C   0  0  0  0  0  0  0  0  0  0  0  0
   58.4120   30.1103   48.5579 O   0  0  0  0  0  0  0  0  0  0  0  0
   60.4542   31.2097   48.8519 N   0  0  0  0  0  0  0  0  0  0  0  0
   61.1195   30.0528   49.4758 C   0  0  0  0  0  0  0  0  0  0  0  0
   62.0367   30.4732   50.6260 C   0  0  0  0  0  0  0  0  0  0  0  0
   62.9232   31.5632   50.2019 N   0  0  0  0  0  0  0  0  0  0  0  0
   62.3963   32.6585   49.3771 C   0  0  0  0  0  0  0  0  0  0  0  0
   60.8741   32.5743   49.1987 C   0  0  0  0  0  0  0  0  0  0  0  0
   64.2827   31.6268   50.6848 C   0  0  0  0  0  0  0  0  0  0  0  0
   65.1702   32.6045   50.1959 C   0  0  0  0  0  0  0  0  0  0  0  0
   66.4871   32.6606   50.6622 C   0  0  0  0  0  0  0  0  0  0  0  0
   66.9329   31.7463   51.6182 C   0  0  0  0  0  0  0  0  0  0  0  0
   66.0626   30.7710   52.1107 C   0  0  0  0  0  0  0  0  0  0  0  0
   64.7446   30.7090   51.6479 C   0  0  0  0  0  0  0  0  0  0  0  0
  7  8  2  0
  8  9  1  0
  9 10  2  0
 10 15  1  0
 15 16  1  0
 16 17  1  0
 17 18  2  0
 17 19  1  0
 19 20  1  0
 20 21  1  0
  9 11  1  0
 11 12  2  0
 12 13  1  0
 12 14  1  0
 14  1  1  0
  1  2  2  0
  2  3  1  0
  3  4  2  0
  4  5  1  0
  5  6  2  0
  6 23  1  0
 23 24  2  0
 23 25  1  0
 25 26  1  0
 26 27  1  0
 27 28  1  0
 28 31  1  0
 31 32  2  0
 32 33  1  0
 33 34  2  0
 34 35  1  0
 35 36  2  0
 28 29  1  0
 29 30  1  0
 14  8  1  0
  6  1  1  0
 30 25  1  0
 20 15  2  0
 36 31  1  0
 21 22  1  0
M  CHG 1  16  -1
M  CHG 1  19  -1
M  END
> <UniqueID>
12

> <SMILES>
C=c1c(=Cc2[n-]c(=O)[n-]c2O)cc(C)n1-c1ccccc1C(=O)N1CCN(c2ccccc2)CC1

> <Energy>
145.67026527715822

> <Genealogy>
C=c1c(=Cc2[n-]c(=O)[n-]c2O)cc(C)n1-c1ccccc1C(=O)N1CCN(c2ccccc2)CC1 (protonated)
C=c1c(=Cc2[n-]c(=O)[n-]c2O)cc(C)n1-c1ccccc1C(=O)N1CCN(c2ccccc2)CC1 (3D coordinates assigned)
C=c1c(=Cc2[n-]c(=O)[n-]c2O)cc(C)n1-c1ccccc1C(=O)N1CCN(c2ccccc2)CC1 (nonaromatic ring conformer: 145.67026527715822 kcal/mol)

> <smiles>
C=c1c(=Cc2[nH]c(=O)[nH]c2O)cc(C)n1-c1ccccc1C(=O)N1CCN(c2ccccc2)CC1

> <score_type>
oracle

> <origin>
adg

> <m_score__min__energy>
-14.970000000000001

> <m_primary>
energy

> <minimizedAffinity>
-9.94239

> <minimizedRMSD>
1.06721

> <CNNscore>
0.7507240176

> <CNNaffinity>
7.4041423798

> <CNN_VS>
5.5584673882

> <CNNaffinity_variance>
0.0604212172

$$$$
13:0


 35 38  0  0  0  0  0  0  0  0999 V2000
   60.4208   28.7615   44.7970 C   0  0  0  0  0  0  0  0  0  0  0  0
   59.8307   28.6260   45.9959 C   0  0  0  0  0  0  0  0  0  0  0  0
   58.9965   27.5697   46.3833 C   0  0  0  0  0  0  0  0  0  0  0  0
   58.6031   26.5207   45.6347 C   0  0  0  0  0  0  0  0  0  0  0  0
   58.6092   27.8373   47.6856 C   0  0  0  0  0  0  0  0  0  0  0  0
   59.2246   29.0173   48.0514 C   0  0  0  0  0  0  0  0  0  0  0  0
   59.9712   29.5017   47.0285 N   0  0  0  0  0  0  0  0  0  0  0  0
   59.0765   29.6563   49.3773 C   0  0  0  0  0  0  0  0  0  0  0  0
   58.3242   30.6606   49.4853 O   0  0  0  0  0  0  0  0  0  0  0  0
   59.7757   29.1566   50.5396 N   0  0  0  0  0  0  0  0  0  0  0  0
   59.3749   29.5611   51.8915 C   0  0  0  0  0  0  0  0  0  0  0  0
   60.5039   30.3625   52.5742 C   0  0  0  0  0  0  0  0  0  0  0  0
   61.8638   30.0391   52.0672 N   0  0  0  0  0  0  0  0  0  0  0  0
   61.9507   28.6367   51.5920 C   0  0  0  0  0  0  0  0  0  0  0  0
   61.0173   28.3823   50.3976 C   0  0  0  0  0  0  0  0  0  0  0  0
   62.3361   31.0390   51.0764 C   0  0  0  0  0  0  0  0  0  0  0  0
   62.0822   32.4926   51.5203 C   0  0  0  0  0  0  0  0  0  0  0  0
   63.0434   33.4933   50.8686 C   0  0  0  0  0  0  0  0  0  0  0  0
   63.9418   32.7892   49.9234 N   0  0  0  0  0  0  0  0  0  0  0  0
   63.7561   33.2675   48.5457 C   0  0  0  0  0  0  0  0  0  0  0  0
   65.3529   32.9254   50.3222 C   0  0  0  0  0  0  0  0  0  0  0  0
   57.7194   25.4443   46.1164 C   0  0  0  0  0  0  0  0  0  0  0  0
   58.1784   24.2710   46.5854 N   0  0  0  0  0  0  0  0  0  0  0  0
   57.0598   23.6386   47.0029 C   0  0  0  0  0  0  0  0  0  0  0  0
   57.0812   22.4849   47.5031 O   0  0  0  0  0  0  0  0  0  0  0  0
   55.9207   24.3468   46.8553 N   0  0  0  0  0  0  0  0  0  0  0  0
   56.3549   25.4933   46.3060 C   0  0  0  0  0  0  0  0  0  0  0  0
   55.5281   26.5762   46.0378 O   0  0  0  0  0  0  0  0  0  0  0  0
   60.8331   30.6961   47.0896 C   0  0  0  0  0  0  0  0  0  0  0  0
   60.0890   31.9426   46.6756 C   0  0  0  0  0  0  0  0  0  0  0  0
   60.6355   33.2201   46.8956 C   0  0  0  0  0  0  0  0  0  0  0  0
   59.9167   34.3658   46.5397 C   0  0  0  0  0  0  0  0  0  0  0  0
   58.6452   34.2498   45.9751 C   0  0  0  0  0  0  0  0  0  0  0  0
   58.0864   32.9872   45.7680 C   0  0  0  0  0  0  0  0  0  0  0  0
   58.8000   31.8376   46.1245 C   0  0  0  0  0  0  0  0  0  0  0  0
  1  2  2  0
  2  3  1  0
  3  4  2  0
  4 22  1  0
 22 23  1  0
 23 24  1  0
 24 25  2  0
 24 26  1  0
 26 27  1  0
 27 28  1  0
  3  5  1  0
  5  6  2  0
  6  8  1  0
  8  9  2  0
  8 10  1  0
 10 11  1  0
 11 12  1  0
 12 13  1  0
 13 16  1  0
 16 17  1  0
 17 18  1  0
 18 19  1  0
 19 20  1  0
 19 21  1  0
 13 14  1  0
 14 15  1  0
  6  7  1  0
  7 29  1  0
 29 30  1  0
 30 31  2  0
 31 32  1  0
 32 33  2  0
 33 34  1  0
 34 35  2  0
  7  2  1  0
 35 30  1  0
 27 22  2  0
 15 10  1  0
M  CHG 1  23  -1
M  CHG 1  26  -1
M  CHG 1  28  -1
M  END
> <UniqueID>
14

> <SMILES>
C=c1/c(=C/c2[n-]c(=O)[n-]c2[O-])cc(C(=O)N2CCN(CCCN(C)C)CC2)n1Cc1ccccc1

> <Energy>
147.63226678615484

> <Genealogy>
C=c1c(=Cc2[n-]c(=O)[n-]c2[O-])cc(C(=O)N2CCN(CCCN(C)C)CC2)n1Cc1ccccc1 (protonated)
C=c1/c(=C/c2[n-]c(=O)[n-]c2[O-])cc(C(=O)N2CCN(CCCN(C)C)CC2)n1Cc1ccccc1 (cis-trans isomerization)
C=c1/c(=C/c2[n-]c(=O)[n-]c2[O-])cc(C(=O)N2CCN(CCCN(C)C)CC2)n1Cc1ccccc1 (3D coordinates assigned)
C=c1/c(=C/c2[n-]c(=O)[n-]c2[O-])cc(C(=O)N2CCN(CCCN(C)C)CC2)n1Cc1ccccc1 (nonaromatic ring conformer: 147.63226678615484 kcal/mol)

> <smiles>
C=c1c(=Cc2[nH]c(=O)[nH]c2O)cc(C(=O)N2CCN(CCCN(C)C)CC2)n1Cc1ccccc1

> <score_type>
oracle

> <origin>
adg

> <m_score__min__energy>
-16.710000000000001

> <m_primary>
energy

> <minimizedAffinity>
-7.61352

> <minimizedRMSD>
0.72902

> <CNNscore>
0.2224224210

> <CNNaffinity>
6.6707615852

> <CNN_VS>
1.4837269783

> <CNNaffinity_variance>
0.3097924590

$$$$
34:0


 32 35  0  0  0  0  0  0  0  0999 V2000
   60.2479   28.2079   48.3192 C   0  0  0  0  0  0  0  0  0  0  0  0
   59.8480   29.4219   49.1164 C   0  0  0  0  0  0  0  0  0  0  0  0
   59.0982   29.2887   50.2943 C   0  0  0  0  0  0  0  0  0  0  0  0
   58.7213   30.4224   51.0221 C   0  0  0  0  0  0  0  0  0  0  0  0
   59.0980   31.6964   50.5862 C   0  0  0  0  0  0  0  0  0  0  0  0
   58.7067   32.7789   51.3014 F   0  0  0  0  0  0  0  0  0  0  0  0
   59.8701   31.8418   49.4205 C   0  0  0  0  0  0  0  0  0  0  0  0
   60.2566   30.6986   48.7017 C   0  0  0  0  0  0  0  0  0  0  0  0
   60.3297   33.4437   48.8196 S   0  0  0  0  0  0  0  0  0  0  0  0
   61.7792   33.4088   48.4226 O   0  0  0  0  0  0  0  0  0  0  0  0
   60.1769   34.4636   49.9110 O   0  0  0  0  0  0  0  0  0  0  0  0
   59.3543   33.9309   47.4529 N   0  0  0  0  0  0  0  0  0  0  0  0
   60.1681   33.9574   46.2263 C   0  0  0  0  0  0  0  0  0  0  0  0
   59.2796   34.1327   44.9788 C   0  0  0  0  0  0  0  0  0  0  0  0
   57.9666   34.5226   45.3395 O   0  0  0  0  0  0  0  0  0  0  0  0
   57.3466   33.4885   46.0867 C   0  0  0  0  0  0  0  0  0  0  0  0
   58.2051   33.0320   47.2867 C   0  0  0  0  0  0  0  0  0  0  0  0
   59.0981   27.6460   47.6022 N   0  0  0  0  0  0  0  0  0  0  0  0
   58.6675   26.8381   47.9645 H   0  0  0  0  0  0  0  0  0  0  0  0
   57.9459   27.4074   45.4076 C   0  0  0  0  0  0  0  0  0  0  0  0
   57.5116   27.9811   44.1998 C   0  0  0  0  0  0  0  0  0  0  0  0
   57.6748   29.3424   43.9615 C   0  0  0  0  0  0  0  0  0  0  0  0
   58.2724   30.1532   44.9249 C   0  0  0  0  0  0  0  0  0  0  0  0
   58.7169   29.6028   46.1282 C   0  0  0  0  0  0  0  0  0  0  0  0
   58.5690   28.2238   46.3889 C   0  0  0  0  0  0  0  0  0  0  0  0
   58.5437   22.7477   45.8466 O   0  0  0  0  0  0  0  0  0  0  0  0
   57.9899   23.8773   45.8355 C   0  0  0  0  0  0  0  0  0  0  0  0
   56.6850   24.0481   46.1362 N   0  0  0  0  0  0  0  0  0  0  0  0
   56.5232   25.3738   45.9990 C   0  0  0  0  0  0  0  0  0  0  0  0
   55.3087   26.0216   46.1861 O   0  0  0  0  0  0  0  0  0  0  0  0
   57.7066   25.9653   45.6223 C   0  0  0  0  0  0  0  0  0  0  0  0
   58.6524   25.0111   45.5196 N   0  0  0  0  0  0  0  0  0  0  0  0
 26 27  2  0
 27 28  1  0
 28 29  1  0
 29 30  1  0
 29 31  2  0
 31 20  1  0
 20 21  2  0
 21 22  1  0
 22 23  2  0
 23 24  1  0
 24 25  2  0
 25 18  1  0
 18  1  1  0
  1  2  1  0
  2  3  2  0
  3  4  1  0
  4  5  2  0
  5  6  1  0
  5  7  1  0
  7  9  1  0
  9 10  2  0
  9 11  2  0
  9 12  1  0
 12 13  1  0
 13 14  1  0
 14 15  1  0
 15 16  1  0
 16 17  1  0
  7  8  2  0
 31 32  1  0
 32 27  1  0
 25 20  1  0
  8  2  1  0
 17 12  1  0
 18 19  1  0
M  CHG 1  28  -1
M  CHG 1  30  -1
M  CHG 1  32  -1
M  END
> <UniqueID>
32

> <SMILES>
O=c1[n-]c([O-])c(-c2ccccc2NCc2ccc(F)c(S(=O)(=O)N3CCOCC3)c2)[n-]1

> <Energy>
97.4584815897859

> <Genealogy>
O=c1[n-]c([O-])c(-c2ccccc2NCc2ccc(F)c(S(=O)(=O)N3CCOCC3)c2)[n-]1 (protonated)
O=c1[n-]c([O-])c(-c2ccccc2NCc2ccc(F)c(S(=O)(=O)N3CCOCC3)c2)[n-]1 (3D coordinates assigned)
O=c1[n-]c([O-])c(-c2ccccc2NCc2ccc(F)c(S(=O)(=O)N3CCOCC3)c2)[n-]1 (nonaromatic ring conformer: 97.4584815897859 kcal/mol)

> <smiles>
O=c1[nH]c(O)c(-c2ccccc2NCc2ccc(F)c(S(=O)(=O)N3CCOCC3)c2)[nH]1

> <score_type>
oracle

> <origin>
adg

> <m_score__min__energy>
-18.02

> <m_primary>
energy

> <minimizedAffinity>
-7.46990

> <minimizedRMSD>
0.78287

> <CNNscore>
0.1161961630

> <CNNaffinity>
5.9915637970

> <CNN_VS>
0.6961967349

> <CNNaffinity_variance>
0.1113037094

$$$$
38:0


 33 36  0  0  0  0  0  0  0  0999 V2000
   59.2675   30.3153   45.7958 C   0  0  0  0  0  0  0  0  0  0  0  0
   58.7512   30.4243   44.4908 C   0  0  0  0  0  0  0  0  0  0  0  0
   57.8250   31.4203   44.1735 C   0  0  0  0  0  0  0  0  0  0  0  0
   57.3335   31.5105   42.9137 F   0  0  0  0  0  0  0  0  0  0  0  0
   57.4277   32.3382   45.1445 C   0  0  0  0  0  0  0  0  0  0  0  0
   57.9397   32.2544   46.4404 C   0  0  0  0  0  0  0  0  0  0  0  0
   57.5955   33.2022   47.3472 F   0  0  0  0  0  0  0  0  0  0  0  0
   58.8368   31.2297   46.7854 C   0  0  0  0  0  0  0  0  0  0  0  0
   60.3297   29.2748   46.0824 C   0  0  0  0  0  0  0  0  0  0  0  0
   58.9221   27.4220   44.1096 C   0  0  0  0  0  0  0  0  0  0  0  0
   59.1170   27.1277   45.4083 C   0  0  0  0  0  0  0  0  0  0  0  0
   58.7050   25.9499   46.0433 C   0  0  0  0  0  0  0  0  0  0  0  0
   58.1206   24.8749   45.4770 C   0  0  0  0  0  0  0  0  0  0  0  0
   59.0868   26.0665   47.3692 C   0  0  0  0  0  0  0  0  0  0  0  0
   59.6982   27.2958   47.4987 C   0  0  0  0  0  0  0  0  0  0  0  0
   60.2839   27.8027   48.7823 C   0  0  0  0  0  0  0  0  0  0  0  0
   59.7493   27.9362   46.3056 N   0  0  0  0  0  0  0  0  0  0  0  0
   56.7105   24.5005   45.6832 C   0  0  0  0  0  0  0  0  0  0  0  0
   56.2455   23.2501   45.5070 N   0  0  0  0  0  0  0  0  0  0  0  0
   54.9166   23.3765   45.7176 C   0  0  0  0  0  0  0  0  0  0  0  0
   54.1260   22.4011   45.6541 O   0  0  0  0  0  0  0  0  0  0  0  0
   54.5038   24.6328   45.9916 N   0  0  0  0  0  0  0  0  0  0  0  0
   55.6474   25.3337   45.9536 C   0  0  0  0  0  0  0  0  0  0  0  0
   55.7084   26.7128   46.1177 O   0  0  0  0  0  0  0  0  0  0  0  0
   59.3294   31.1467   48.0922 O   0  0  0  0  0  0  0  0  0  0  0  0
   59.2489   32.2362   49.0145 C   0  0  0  0  0  0  0  0  0  0  0  0
   60.5941   32.5088   49.6921 C   0  0  0  0  0  0  0  0  0  0  0  0
   61.1260   33.8273   49.2749 N   0  0  0  0  0  0  0  0  0  0  0  0
   62.5204   34.0336   49.7113 C   0  0  0  0  0  0  0  0  0  0  0  0
   63.5055   33.2614   48.8225 C   0  0  0  0  0  0  0  0  0  0  0  0
   63.3734   33.6624   47.4743 O   0  0  0  0  0  0  0  0  0  0  0  0
   62.0796   33.3378   47.0076 C   0  0  0  0  0  0  0  0  0  0  0  0
   60.9950   34.0712   47.8211 C   0  0  0  0  0  0  0  0  0  0  0  0
 10 11  2  0
 11 12  1  0
 12 13  2  0
 13 18  1  0
 18 19  1  0
 19 20  1  0
 20 21  2  0
 20 22  1  0
 22 23  1  0
 23 24  1  0
 12 14  1  0
 14 15  2  0
 15 16  1  0
 15 17  1  0
 17  9  1  0
  9  1  1  0
  1  2  2  0
  2  3  1  0
  3  4  1  0
  3  5  2  0
  5  6  1  0
  6  7  1  0
  6  8  2  0
  8 25  1  0
 25 26  1  0
 26 27  1  0
 27 28  1  0
 28 29  1  0
 29 30  1  0
 30 31  1  0
 31 32  1  0
 32 33  1  0
 17 11  1  0
  8  1  1  0
 33 28  1  0
 23 18  2  0
M  CHG 1  19  -1
M  CHG 1  22  -1
M  CHG 1  24  -1
M  END
> <UniqueID>
36

> <SMILES>
C=c1/c(=C/c2[n-]c(=O)[n-]c2[O-])cc(C)n1Cc1cc(F)cc(F)c1OCCN1CCOCC1

> <Energy>
135.41330999967997

> <Genealogy>
C=c1c(=Cc2[n-]c(=O)[n-]c2[O-])cc(C)n1Cc1cc(F)cc(F)c1OCCN1CCOCC1 (protonated)
C=c1/c(=C/c2[n-]c(=O)[n-]c2[O-])cc(C)n1Cc1cc(F)cc(F)c1OCCN1CCOCC1 (cis-trans isomerization)
C=c1/c(=C/c2[n-]c(=O)[n-]c2[O-])cc(C)n1Cc1cc(F)cc(F)c1OCCN1CCOCC1 (3D coordinates assigned)
C=c1/c(=C/c2[n-]c(=O)[n-]c2[O-])cc(C)n1Cc1cc(F)cc(F)c1OCCN1CCOCC1 (nonaromatic ring conformer: 135.41330999967997 kcal/mol)

> <smiles>
C=c1c(=Cc2[nH]c(=O)[nH]c2O)cc(C)n1Cc1cc(F)cc(F)c1OCCN1CCOCC1

> <score_type>
oracle

> <origin>
adg

> <m_score__min__energy>
-15.970000000000001

> <m_primary>
energy

> <minimizedAffinity>
-7.84743

> <minimizedRMSD>
1.14402

> <CNNscore>
0.2424144894

> <CNNaffinity>
6.7293758392

> <CNN_VS>
1.6312981844

> <CNNaffinity_variance>
0.1008669361

$$$$
51:0


 32 35  0  0  0  0  0  0  0  0999 V2000
   56.9188   28.5769   53.6951 C   0  0  0  0  0  0  0  0  0  0  0  0
   57.5949   27.5851   54.0792 O   0  0  0  0  0  0  0  0  0  0  0  0
   57.5938   29.7625   53.2408 N   0  0  0  0  0  0  0  0  0  0  0  0
   57.0880   31.0981   53.5857 C   0  0  0  0  0  0  0  0  0  0  0  0
   57.0737   32.0174   52.3515 C   0  0  0  0  0  0  0  0  0  0  0  0
   58.2049   31.7121   51.3344 C   0  0  0  0  0  0  0  0  0  0  0  0
   59.3735   30.9739   51.9992 C   0  0  0  0  0  0  0  0  0  0  0  0
   58.8963   29.6325   52.5732 C   0  0  0  0  0  0  0  0  0  0  0  0
   52.4158   26.8667   54.1452 C   0  0  0  0  0  0  0  0  0  0  0  0
   53.4075   27.7329   53.8824 C   0  0  0  0  0  0  0  0  0  0  0  0
   53.3390   28.8612   53.0473 C   0  0  0  0  0  0  0  0  0  0  0  0
   52.2874   29.4774   52.4726 C   0  0  0  0  0  0  0  0  0  0  0  0
   54.6423   29.2930   52.8772 C   0  0  0  0  0  0  0  0  0  0  0  0
   55.4435   28.4745   53.6472 C   0  0  0  0  0  0  0  0  0  0  0  0
   54.6929   27.5426   54.2806 N   0  0  0  0  0  0  0  0  0  0  0  0
   55.1927   26.4828   55.1657 C   0  0  0  0  0  0  0  0  0  0  0  0
   51.7117   30.7637   52.8950 C   0  0  0  0  0  0  0  0  0  0  0  0
   51.2936   31.0147   54.1476 N   0  0  0  0  0  0  0  0  0  0  0  0
   50.7354   32.2418   54.0498 C   0  0  0  0  0  0  0  0  0  0  0  0
   50.2354   32.8382   55.0381 O   0  0  0  0  0  0  0  0  0  0  0  0
   50.7456   32.7723   52.8083 N   0  0  0  0  0  0  0  0  0  0  0  0
   51.3533   31.8177   52.0847 C   0  0  0  0  0  0  0  0  0  0  0  0
   51.5512   31.8978   50.7135 O   0  0  0  0  0  0  0  0  0  0  0  0
   58.6978   32.9253   50.7591 O   0  0  0  0  0  0  0  0  0  0  0  0
   59.9281   33.0800   50.0964 C   0  0  0  0  0  0  0  0  0  0  0  0
   61.1143   33.4211   50.7735 C   0  0  0  0  0  0  0  0  0  0  0  0
   62.3063   33.5625   50.0656 C   0  0  0  0  0  0  0  0  0  0  0  0
   62.3122   33.3669   48.6867 C   0  0  0  0  0  0  0  0  0  0  0  0
   61.1625   33.0410   48.0364 N   0  0  0  0  0  0  0  0  0  0  0  0
   59.9791   32.8967   48.7011 C   0  0  0  0  0  0  0  0  0  0  0  0
   58.7319   32.5327   47.9466 C   0  0  0  0  0  0  0  0  0  0  0  0
   61.1847   32.9056   47.0615 H   0  0  0  0  0  0  0  0  0  0  0  0
  9 10  2  0
 10 11  1  0
 11 12  2  0
 12 17  1  0
 17 18  1  0
 18 19  1  0
 19 20  2  0
 19 21  1  0
 21 22  1  0
 22 23  1  0
 11 13  1  0
 13 14  2  0
 14  1  1  0
  1  2  2  0
  1  3  1  0
  3  4  1  0
  4  5  1  0
  5  6  1  0
  6 24  1  0
 24 25  1  0
 25 26  2  0
 26 27  1  0
 27 28  2  0
 28 29  1  0
 29 30  2  0
 30 31  1  0
  6  7  1  0
  7  8  1  0
 14 15  1  0
 15 16  1  0
 15 10  1  0
 22 17  2  0
  8  3  1  0
 30 25  1  0
 29 32  1  0
M  CHG 1  18  -1
M  CHG 1  21  -1
M  CHG 1  23  -1
M  CHG 1  29   1
M  END
> <UniqueID>
49

> <SMILES>
C=c1c(=Cc2[n-]c(=O)[n-]c2[O-])cc(C(=O)N2CCC(Oc3ccc[nH+]c3C)CC2)n1C

> <Energy>
133.68216288388808

> <Genealogy>
C=c1c(=Cc2[n-]c(=O)[n-]c2[O-])cc(C(=O)N2CCC(Oc3ccc[nH+]c3C)CC2)n1C (protonated)
C=c1c(=Cc2[n-]c(=O)[n-]c2[O-])cc(C(=O)N2CCC(Oc3ccc[nH+]c3C)CC2)n1C (3D coordinates assigned)
C=c1c(=Cc2[n-]c(=O)[n-]c2[O-])cc(C(=O)N2CCC(Oc3ccc[nH+]c3C)CC2)n1C (nonaromatic ring conformer: 133.68216288388808 kcal/mol)

> <smiles>
C=c1c(=Cc2[nH]c(=O)[nH]c2O)cc(C(=O)N2CCC(Oc3cccnc3C)CC2)n1C

> <score_type>
oracle

> <origin>
adg

> <m_score__min__energy>
-16.309999999999999

> <m_primary>
energy

> <minimizedAffinity>
-6.58813

> <minimizedRMSD>
0.71416

> <CNNscore>
0.1562834382

> <CNNaffinity>
5.4705090523

> <CNN_VS>
0.8549499512

> <CNNaffinity_variance>
0.1480420828

$$$$
70:0


 33 36  0  0  0  0  0  0  0  0999 V2000
   57.1403   29.7125   53.8844 C   0  0  0  0  0  0  0  0  0  0  0  0
   57.6072   28.5831   53.5644 O   0  0  0  0  0  0  0  0  0  0  0  0
   57.9119   30.9140   53.6315 N   0  0  0  0  0  0  0  0  0  0  0  0
   57.8682   31.2465   52.1802 C   0  0  0  0  0  0  0  0  0  0  0  0
   59.1078   30.7668   51.4124 C   0  0  0  0  0  0  0  0  0  0  0  0
   60.3286   31.3019   52.0320 N   0  0  0  0  0  0  0  0  0  0  0  0
   61.5260   31.5209   51.2584 C   0  0  0  0  0  0  0  0  0  0  0  0
   62.3900   32.3430   51.6718 O   0  0  0  0  0  0  0  0  0  0  0  0
   60.3011   31.6658   53.4531 C   0  0  0  0  0  0  0  0  0  0  0  0
   59.2848   30.7893   54.1935 C   0  0  0  0  0  0  0  0  0  0  0  0
   57.6558   31.8348   53.3954 H   0  0  0  0  0  0  0  0  0  0  0  0
   61.7428   30.8323   49.9350 C   0  0  0  0  0  0  0  0  0  0  0  0
   61.9310   31.8291   48.8222 C   0  0  0  0  0  0  0  0  0  0  0  0
   63.2188   32.1300   48.3462 C   0  0  0  0  0  0  0  0  0  0  0  0
   63.3858   33.0370   47.2931 C   0  0  0  0  0  0  0  0  0  0  0  0
   62.2708   33.6392   46.7036 C   0  0  0  0  0  0  0  0  0  0  0  0
   60.9868   33.3353   47.1627 C   0  0  0  0  0  0  0  0  0  0  0  0
   60.8155   32.4295   48.2152 C   0  0  0  0  0  0  0  0  0  0  0  0
   53.1822   29.9975   56.6819 C   0  0  0  0  0  0  0  0  0  0  0  0
   53.9587   29.9389   55.5883 C   0  0  0  0  0  0  0  0  0  0  0  0
   53.5336   30.0870   54.2641 C   0  0  0  0  0  0  0  0  0  0  0  0
   52.2843   30.3448   53.8302 C   0  0  0  0  0  0  0  0  0  0  0  0
   54.6722   29.9867   53.4778 C   0  0  0  0  0  0  0  0  0  0  0  0
   55.7337   29.7862   54.3364 C   0  0  0  0  0  0  0  0  0  0  0  0
   55.3006   29.7280   55.6186 N   0  0  0  0  0  0  0  0  0  0  0  0
   56.1184   29.4480   56.8033 C   0  0  0  0  0  0  0  0  0  0  0  0
   51.9260   30.5344   52.4120 C   0  0  0  0  0  0  0  0  0  0  0  0
   52.1966   29.6286   51.4558 N   0  0  0  0  0  0  0  0  0  0  0  0
   51.7830   30.2341   50.3233 C   0  0  0  0  0  0  0  0  0  0  0  0
   51.8603   29.6852   49.1931 O   0  0  0  0  0  0  0  0  0  0  0  0
   51.2897   31.4799   50.4939 N   0  0  0  0  0  0  0  0  0  0  0  0
   51.3975   31.6606   51.8200 C   0  0  0  0  0  0  0  0  0  0  0  0
   51.0656   32.8465   52.4624 O   0  0  0  0  0  0  0  0  0  0  0  0
 19 20  2  0
 20 21  1  0
 21 22  2  0
 22 27  1  0
 27 28  1  0
 28 29  1  0
 29 30  2  0
 29 31  1  0
 31 32  1  0
 32 33  1  0
 21 23  1  0
 23 24  2  0
 24  1  1  0
  1  2  2  0
  1  3  1  0
  3  4  1  0
  4  5  1  0
  5  6  1  0
  6  7  1  0
  7  8  2  0
  7 12  1  0
 12 13  1  0
 13 14  2  0
 14 15  1  0
 15 16  2  0
 16 17  1  0
 17 18  2  0
  6  9  1  0
  9 10  1  0
 24 25  1  0
 25 26  1  0
 25 20  1  0
 32 27  2  0
 10  3  1  0
 18 13  1  0
  3 11  1  0
M  CHG 1   3   1
M  CHG 1  28  -1
M  CHG 1  31  -1
M  CHG 1  33  -1
M  END
> <UniqueID>
64

> <SMILES>
C=c1c(=Cc2[n-]c(=O)[n-]c2[O-])cc(C(=O)[NH+]2CCN(C(=O)Cc3ccccc3)CC2)n1C

> <Energy>
138.24602678182623

> <Genealogy>
C=c1c(=Cc2[n-]c(=O)[n-]c2[O-])cc(C(=O)[NH+]2CCN(C(=O)Cc3ccccc3)CC2)n1C (protonated)
C=c1c(=Cc2[n-]c(=O)[n-]c2[O-])cc(C(=O)[NH+]2CCN(C(=O)Cc3ccccc3)CC2)n1C (3D coordinates assigned)
C=c1c(=Cc2[n-]c(=O)[n-]c2[O-])cc(C(=O)[NH+]2CCN(C(=O)Cc3ccccc3)CC2)n1C (nonaromatic ring conformer: 138.24602678182623 kcal/mol)

> <smiles>
C=c1c(=Cc2[nH]c(=O)[nH]c2O)cc(C(=O)N2CCN(C(=O)Cc3ccccc3)CC2)n1C

> <score_type>
oracle

> <origin>
adg

> <m_score__min__energy>
-17.68

> <m_primary>
energy

> <minimizedAffinity>
-6.87624

> <minimizedRMSD>
1.68250

> <CNNscore>
0.0745991617

> <CNNaffinity>
5.2558212280

> <CNN_VS>
0.3920798600

> <CNNaffinity_variance>
0.1331371814

$$$$
77:0


 29 31  0  0  0  0  0  0  0  0999 V2000
   54.7449   27.9256   53.5355 C   0  0  0  0  0  0  0  0  0  0  0  0
   55.3831   29.0627   53.2179 C   0  0  0  0  0  0  0  0  0  0  0  0
   54.8738   30.1113   52.4457 C   0  0  0  0  0  0  0  0  0  0  0  0
   53.6337   30.2160   51.9280 C   0  0  0  0  0  0  0  0  0  0  0  0
   55.8877   31.0535   52.3494 C   0  0  0  0  0  0  0  0  0  0  0  0
   56.9640   30.5518   53.0559 C   0  0  0  0  0  0  0  0  0  0  0  0
   56.6585   29.3459   53.5875 N   0  0  0  0  0  0  0  0  0  0  0  0
   57.5502   28.5007   54.3923 C   0  0  0  0  0  0  0  0  0  0  0  0
   52.4904   30.8043   52.6478 C   0  0  0  0  0  0  0  0  0  0  0  0
   52.1666   30.4787   53.9115 N   0  0  0  0  0  0  0  0  0  0  0  0
   51.0284   31.1716   54.1331 C   0  0  0  0  0  0  0  0  0  0  0  0
   50.4180   31.1374   55.2332 O   0  0  0  0  0  0  0  0  0  0  0  0
   50.5924   31.8975   53.0827 N   0  0  0  0  0  0  0  0  0  0  0  0
   51.5206   31.6467   52.1456 C   0  0  0  0  0  0  0  0  0  0  0  0
   51.4541   32.1339   50.8463 O   0  0  0  0  0  0  0  0  0  0  0  0
   58.2818   31.2083   53.1493 C   0  0  0  0  0  0  0  0  0  0  0  0
   58.6412   31.6665   54.2676 O   0  0  0  0  0  0  0  0  0  0  0  0
   59.1521   31.3409   52.0010 N   0  0  0  0  0  0  0  0  0  0  0  0
   59.7757   32.6302   51.6802 C   0  0  0  0  0  0  0  0  0  0  0  0
   59.4507   30.1685   51.1643 C   0  0  0  0  0  0  0  0  0  0  0  0
   60.2521   30.5503   49.9112 C   0  0  0  0  0  0  0  0  0  0  0  0
   59.7019   29.8853   48.6414 C   0  0  0  0  0  0  0  0  0  0  0  0
   59.4249   30.9079   47.6113 N   0  0  0  0  0  0  0  0  0  0  0  0
   58.8209   32.1157   48.2172 C   0  0  0  0  0  0  0  0  0  0  0  0
   58.2980   33.0950   47.1440 C   0  0  0  0  0  0  0  0  0  0  0  0
   58.8515   32.7512   45.8227 N   0  0  0  0  0  0  0  0  0  0  0  0
   58.4515   33.7522   44.8224 C   0  0  0  0  0  0  0  0  0  0  0  0
   58.4075   31.4037   45.4062 C   0  0  0  0  0  0  0  0  0  0  0  0
   58.5398   30.3811   46.5530 C   0  0  0  0  0  0  0  0  0  0  0  0
  1  2  2  0
  2  3  1  0
  3  4  2  0
  4  9  1  0
  9 10  1  0
 10 11  1  0
 11 12  2  0
 11 13  1  0
 13 14  1  0
 14 15  1  0
  3  5  1  0
  5  6  2  0
  6 16  1  0
 16 17  2  0
 16 18  1  0
 18 19  1  0
 18 20  1  0
 20 21  1  0
 21 22  1  0
 22 23  1  0
 23 24  1  0
 24 25  1  0
 25 26  1  0
 26 27  1  0
 26 28  1  0
 28 29  1  0
  6  7  1  0
  7  8  1  0
  7  2  1  0
 14  9  2  0
 29 23  1  0
M  CHG 1  10  -1
M  CHG 1  13  -1
M  CHG 1  15  -1
M  END
> <UniqueID>
70

> <SMILES>
C=c1c(=Cc2[n-]c(=O)[n-]c2[O-])cc(C(=O)N(C)CCCN2CCN(C)CC2)n1C

> <Energy>
130.1139021911382

> <Genealogy>
C=c1c(=Cc2[n-]c(=O)[n-]c2[O-])cc(C(=O)N(C)CCCN2CCN(C)CC2)n1C (protonated)
C=c1c(=Cc2[n-]c(=O)[n-]c2[O-])cc(C(=O)N(C)CCCN2CCN(C)CC2)n1C (3D coordinates assigned)
C=c1c(=Cc2[n-]c(=O)[n-]c2[O-])cc(C(=O)N(C)CCCN2CCN(C)CC2)n1C (nonaromatic ring conformer: 130.1139021911382 kcal/mol)

> <smiles>
C=c1c(=Cc2[nH]c(=O)[nH]c2O)cc(C(=O)N(C)CCCN2CCN(C)CC2)n1C

> <score_type>
oracle

> <origin>
adg

> <m_score__min__energy>
-17.91

> <m_primary>
energy

> <minimizedAffinity>
-6.54096

> <minimizedRMSD>
1.25392

> <CNNscore>
0.0953998268

> <CNNaffinity>
4.7954049110

> <CNN_VS>
0.4574807882

> <CNNaffinity_variance>
0.8464035988

$$$$
2:0


 33 36  0  0  0  0  0  0  0  0999 V2000
   59.3343   29.7052   44.7000 C   0  0  0  0  0  0  0  0  0  0  0  0
   59.3143   29.3899   46.0040 C   0  0  0  0  0  0  0  0  0  0  0  0
   59.2369   28.1039   46.5473 C   0  0  0  0  0  0  0  0  0  0  0  0
   59.2234   26.9339   45.8805 C   0  0  0  0  0  0  0  0  0  0  0  0
   59.2132   28.2627   47.9271 C   0  0  0  0  0  0  0  0  0  0  0  0
   59.2792   29.6203   48.1693 C   0  0  0  0  0  0  0  0  0  0  0  0
   59.2769   30.2468   49.5300 C   0  0  0  0  0  0  0  0  0  0  0  0
   59.3349   30.3043   47.0060 N   0  0  0  0  0  0  0  0  0  0  0  0
   58.1160   25.9549   45.9728 C   0  0  0  0  0  0  0  0  0  0  0  0
   56.7701   26.3607   45.9598 C   0  0  0  0  0  0  0  0  0  0  0  0
   56.4329   27.7054   45.8606 O   0  0  0  0  0  0  0  0  0  0  0  0
   55.7819   25.4309   46.0241 N   0  0  0  0  0  0  0  0  0  0  0  0
   56.0690   24.1054   46.0827 C   0  0  0  0  0  0  0  0  0  0  0  0
   55.1366   23.2638   46.1455 O   0  0  0  0  0  0  0  0  0  0  0  0
   57.3599   23.6877   46.0686 N   0  0  0  0  0  0  0  0  0  0  0  0
   58.3850   24.5772   46.0068 C   0  0  0  0  0  0  0  0  0  0  0  0
   59.5716   24.1520   45.9906 O   0  0  0  0  0  0  0  0  0  0  0  0
   59.4197   31.7349   46.8778 C   0  0  0  0  0  0  0  0  0  0  0  0
   58.2795   32.4685   46.5211 C   0  0  0  0  0  0  0  0  0  0  0  0
   58.3444   33.8567   46.4012 C   0  0  0  0  0  0  0  0  0  0  0  0
   59.5480   34.5223   46.6383 C   0  0  0  0  0  0  0  0  0  0  0  0
   60.6899   33.8017   47.0000 C   0  0  0  0  0  0  0  0  0  0  0  0
   60.6347   32.3989   47.1299 C   0  0  0  0  0  0  0  0  0  0  0  0
   61.7505   31.6315   47.5054 O   0  0  0  0  0  0  0  0  0  0  0  0
   63.1165   32.0094   47.3400 C   0  0  0  0  0  0  0  0  0  0  0  0
   63.3980   33.3340   48.0774 C   0  0  0  0  0  0  0  0  0  0  0  0
   63.5330   33.1927   49.5426 N   0  0  0  0  0  0  0  0  0  0  0  0
   62.3539   33.6657   50.2963 C   0  0  0  0  0  0  0  0  0  0  0  0
   62.4989   33.3281   51.7848 C   0  0  0  0  0  0  0  0  0  0  0  0
   62.6477   31.8703   52.0289 N   0  0  0  0  0  0  0  0  0  0  0  0
   61.4245   31.2955   52.6064 C   0  0  0  0  0  0  0  0  0  0  0  0
   63.0610   31.0993   50.8336 C   0  0  0  0  0  0  0  0  0  0  0  0
   64.0715   31.8843   49.9867 C   0  0  0  0  0  0  0  0  0  0  0  0
  1  2  2  0
  2  3  1  0
  3  4  2  0
  4  9  1  0
  9 10  2  0
 10 11  1  0
 10 12  1  0
 12 13  1  0
 13 14  2  0
 13 15  1  0
 15 16  1  0
 16 17  2  0
  3  5  1  0
  5  6  2  0
  6  7  1  0
  6  8  1  0
  8 18  1  0
 18 19  2  0
 19 20  1  0
 20 21  2  0
 21 22  1  0
 22 23  2  0
 23 24  1  0
 24 25  1  0
 25 26  1  0
 26 27  1  0
 27 28  1  0
 28 29  1  0
 29 30  1  0
 30 31  1  0
 30 32  1  0
 32 33  1  0
  8  2  1  0
 23 18  1  0
 33 27  1  0
 16  9  1  0
M  CHG 1  11  -1
M  CHG 1  12  -1
M  CHG 1  15  -1
M  END
> <UniqueID>
3

> <SMILES>
C=c1c(=Cc2c([O-])[n-]c(=O)[n-]c2=O)cc(C)n1-c1ccccc1OCCN1CCN(C)CC1

> <Energy>
120.46922784479953

> <Genealogy>
C=c1c(=Cc2c([O-])[n-]c(=O)[n-]c2=O)cc(C)n1-c1ccccc1OCCN1CCN(C)CC1 (protonated)
C=c1c(=Cc2c([O-])[n-]c(=O)[n-]c2=O)cc(C)n1-c1ccccc1OCCN1CCN(C)CC1 (3D coordinates assigned)
C=c1c(=Cc2c([O-])[n-]c(=O)[n-]c2=O)cc(C)n1-c1ccccc1OCCN1CCN(C)CC1 (nonaromatic ring conformer: 120.46922784479953 kcal/mol)

> <smiles>
C=c1c(=Cc2c(O)[nH]c(=O)[nH]c2=O)cc(C)n1-c1ccccc1OCCN1CCN(C)CC1

> <score_type>
oracle

> <origin>
adg

> <m_score__min__energy>
-16.5

> <m_primary>
energy

> <minimizedAffinity>
-8.00026

> <minimizedRMSD>
1.04888

> <CNNscore>
0.1383265853

> <CNNaffinity>
6.6005949974

> <CNN_VS>
0.9130377769

> <CNNaffinity_variance>
0.1342730224

$$$$
6:0


 32 35  0  0  0  0  0  0  0  0999 V2000
   59.7364   30.4654   46.6389 C   0  0  0  0  0  0  0  0  0  0  0  0
   59.9256   29.1467   46.2923 C   0  0  0  0  0  0  0  0  0  0  0  0
   58.9555   28.8317   45.3600 C   0  0  0  0  0  0  0  0  0  0  0  0
   58.7948   27.6458   44.7329 C   0  0  0  0  0  0  0  0  0  0  0  0
   58.2127   30.0037   45.1677 C   0  0  0  0  0  0  0  0  0  0  0  0
   57.2038   30.1435   44.2845 C   0  0  0  0  0  0  0  0  0  0  0  0
   58.6713   31.0028   45.9810 N   0  0  0  0  0  0  0  0  0  0  0  0
   59.7864   31.6739   51.6839 N   0  0  0  0  0  0  0  0  0  0  0  0
   60.7186   32.5956   51.0087 C   0  0  0  0  0  0  0  0  0  0  0  0
   61.3989   31.8679   49.8481 C   0  0  0  0  0  0  0  0  0  0  0  0
   60.3903   31.2636   48.9634 N   0  0  0  0  0  0  0  0  0  0  0  0
   60.6602   31.1543   47.5461 C   0  0  0  0  0  0  0  0  0  0  0  0
   61.7477   31.5789   47.0728 O   0  0  0  0  0  0  0  0  0  0  0  0
   59.3068   30.4873   49.5889 C   0  0  0  0  0  0  0  0  0  0  0  0
   58.7112   31.2543   50.7710 C   0  0  0  0  0  0  0  0  0  0  0  0
   59.2994   32.1815   52.9863 C   0  0  0  0  0  0  0  0  0  0  0  0
   58.5138   34.4672   52.7004 O   0  0  0  0  0  0  0  0  0  0  0  0
   59.5449   33.6853   53.2381 C   0  0  0  0  0  0  0  0  0  0  0  0
   58.6947   35.4044   52.8734 H   0  0  0  0  0  0  0  0  0  0  0  0
   58.1665   26.4438   45.3243 C   0  0  0  0  0  0  0  0  0  0  0  0
   58.7773   25.2639   45.5437 N   0  0  0  0  0  0  0  0  0  0  0  0
   57.8265   24.5271   46.1566 C   0  0  0  0  0  0  0  0  0  0  0  0
   58.0234   23.3397   46.5252 O   0  0  0  0  0  0  0  0  0  0  0  0
   56.6536   25.1645   46.3524 N   0  0  0  0  0  0  0  0  0  0  0  0
   56.8886   26.3763   45.8252 C   0  0  0  0  0  0  0  0  0  0  0  0
   55.9499   27.4022   45.8003 O   0  0  0  0  0  0  0  0  0  0  0  0
   58.0938   32.3739   46.0604 C   0  0  0  0  0  0  0  0  0  0  0  0
   58.5235   33.2457   44.8584 C   0  0  0  0  0  0  0  0  0  0  0  0
   59.7484   34.1110   45.1434 C   0  0  0  0  0  0  0  0  0  0  0  0
   59.4967   34.9913   46.3651 C   0  0  0  0  0  0  0  0  0  0  0  0
   59.3077   34.1296   47.6107 C   0  0  0  0  0  0  0  0  0  0  0  0
   58.1912   33.0778   47.4476 C   0  0  0  0  0  0  0  0  0  0  0  0
 17 18  1  0
 18 16  1  0
 16  8  1  0
  8  9  1  0
  9 10  1  0
 10 11  1  0
 11 12  1  0
 12 13  2  0
 12  1  1  0
  1  2  2  0
  2  3  1  0
  3  4  2  0
  4 20  1  0
 20 21  1  0
 21 22  1  0
 22 23  2  0
 22 24  1  0
 24 25  1  0
 25 26  1  0
  3  5  1  0
  5  6  2  0
  5  7  1  0
  7 27  1  0
 27 28  1  0
 28 29  1  0
 29 30  1  0
 30 31  1  0
 31 32  1  0
 11 14  1  0
 14 15  1  0
 15  8  1  0
  7  1  1  0
 32 27  1  0
 25 20  2  0
 17 19  1  0
M  CHG 1  21  -1
M  CHG 1  24  -1
M  CHG 1  26  -1
M  END
> <UniqueID>
7

> <SMILES>
C=c1/c(=C/c2[n-]c(=O)[n-]c2[O-])cc(C(=O)N2CCN(CCO)CC2)n1C1CCCCC1

> <Energy>
140.31370669029644

> <Genealogy>
C=c1c(=Cc2[n-]c(=O)[n-]c2[O-])cc(C(=O)N2CCN(CCO)CC2)n1C1CCCCC1 (protonated)
C=c1/c(=C/c2[n-]c(=O)[n-]c2[O-])cc(C(=O)N2CCN(CCO)CC2)n1C1CCCCC1 (cis-trans isomerization)
C=c1/c(=C/c2[n-]c(=O)[n-]c2[O-])cc(C(=O)N2CCN(CCO)CC2)n1C1CCCCC1 (3D coordinates assigned)
C=c1/c(=C/c2[n-]c(=O)[n-]c2[O-])cc(C(=O)N2CCN(CCO)CC2)n1C1CCCCC1 (nonaromatic ring conformer: 140.31370669029644 kcal/mol)

> <smiles>
C=c1c(=Cc2[nH]c(=O)[nH]c2O)cc(C(=O)N2CCN(CCO)CC2)n1C1CCCCC1

> <score_type>
oracle

> <origin>
adg

> <m_score__min__energy>
-16.41

> <m_primary>
energy

> <minimizedAffinity>
-7.99412

> <minimizedRMSD>
0.76252

> <CNNscore>
0.2638992369

> <CNNaffinity>
6.6820545197

> <CNN_VS>
1.7633891106

> <CNNaffinity_variance>
0.1611216813

$$$$
10:0


 30 32  0  0  0  0  0  0  0  0999 V2000
   57.6856   29.8943   44.5368 C   0  0  0  0  0  0  0  0  0  0  0  0
   58.6144   28.5640   44.9865 S   0  0  0  0  0  0  0  0  0  0  0  0
   57.2682   27.6919   45.5117 C   0  0  0  0  0  0  0  0  0  0  0  0
   57.2700   26.4761   45.9757 N   0  0  0  0  0  0  0  0  0  0  0  0
   56.1244   28.3901   45.3479 N   0  0  0  0  0  0  0  0  0  0  0  0
   56.3506   29.6199   44.8138 C   0  0  0  0  0  0  0  0  0  0  0  0
   56.2449   25.4820   45.8121 C   0  0  0  0  0  0  0  0  0  0  0  0
   55.0386   25.7443   46.0765 O   0  0  0  0  0  0  0  0  0  0  0  0
   56.5936   24.1613   45.2447 C   0  0  0  0  0  0  0  0  0  0  0  0
   56.7458   24.0552   43.8495 C   0  0  0  0  0  0  0  0  0  0  0  0
   57.1774   22.8622   43.2708 C   0  0  0  0  0  0  0  0  0  0  0  0
   57.4617   21.7586   44.0714 C   0  0  0  0  0  0  0  0  0  0  0  0
   57.2904   21.8343   45.4547 C   0  0  0  0  0  0  0  0  0  0  0  0
   56.8401   23.0230   46.0594 C   0  0  0  0  0  0  0  0  0  0  0  0
   56.5933   23.0209   47.5215 C   0  0  0  0  0  0  0  0  0  0  0  0
   57.2559   23.7811   48.2784 O   0  0  0  0  0  0  0  0  0  0  0  0
   55.5659   22.1842   48.0722 N   0  0  0  0  0  0  0  0  0  0  0  0
   54.1423   22.4350   47.8891 C   0  0  0  0  0  0  0  0  0  0  0  0
   53.7056   21.9699   46.5333 C   0  0  0  0  0  0  0  0  0  0  0  0
   53.2751   22.8006   45.6889 O   0  0  0  0  0  0  0  0  0  0  0  0
   53.8134   20.6291   46.1876 O   0  0  0  0  0  0  0  0  0  0  0  0
   58.2143   31.1547   43.9240 C   0  0  0  0  0  0  0  0  0  0  0  0
   58.9762   32.4049   48.6536 O   0  0  0  0  0  0  0  0  0  0  0  0
   58.8419   32.7751   47.3184 C   0  0  0  0  0  0  0  0  0  0  0  0
   58.9480   34.1243   46.9605 C   0  0  0  0  0  0  0  0  0  0  0  0
   58.8275   34.5077   45.6228 C   0  0  0  0  0  0  0  0  0  0  0  0
   58.5884   33.5463   44.6357 C   0  0  0  0  0  0  0  0  0  0  0  0
   58.4652   32.1912   44.9836 C   0  0  0  0  0  0  0  0  0  0  0  0
   58.6067   31.8091   46.3276 C   0  0  0  0  0  0  0  0  0  0  0  0
   59.1330   33.0577   49.3073 H   0  0  0  0  0  0  0  0  0  0  0  0
 23 24  1  0
 24 25  2  0
 25 26  1  0
 26 27  2  0
 27 28  1  0
 28 22  1  0
 22  1  1  0
  1  2  1  0
  2  3  1  0
  3  4  2  0
  4  7  1  0
  7  8  2  0
  7  9  1  0
  9 10  2  0
 10 11  1  0
 11 12  2  0
 12 13  1  0
 13 14  2  0
 14 15  1  0
 15 16  2  0
 15 17  1  0
 17 18  1  0
 18 19  1  0
 19 20  2  0
 19 21  1  0
  3  5  1  0
  5  6  1  0
 28 29  2  0
 29 24  1  0
  6  1  2  0
 14  9  1  0
 23 30  1  0
M  CHG 1   5  -1
M  CHG 1  17  -1
M  CHG 1  21  -1
M  END
> <UniqueID>
10

> <SMILES>
O=C([O-])C[N-]C(=O)c1ccccc1C(=O)/N=c1/[n-]cc(Cc2cccc(O)c2)s1

> <Energy>
82.8381319744414

> <Genealogy>
O=C([O-])C[N-]C(=O)c1ccccc1C(=O)N=c1[n-]cc(Cc2cccc(O)c2)s1 (protonated)
O=C([O-])C[N-]C(=O)c1ccccc1C(=O)/N=c1/[n-]cc(Cc2cccc(O)c2)s1 (cis-trans isomerization)
O=C([O-])C[N-]C(=O)c1ccccc1C(=O)/N=c1/[n-]cc(Cc2cccc(O)c2)s1 (3D coordinates assigned)
O=C([O-])C[N-]C(=O)c1ccccc1C(=O)/N=c1/[n-]cc(Cc2cccc(O)c2)s1 (optimized conformer: 82.8381319744414 kcal/mol)

> <smiles>
O=C(O)CNC(=O)c1ccccc1C(=O)N=c1[nH]cc(Cc2cccc(O)c2)s1

> <score_type>
oracle

> <origin>
adg

> <m_score__min__energy>
-14.710000000000001

> <m_primary>
energy

> <minimizedAffinity>
-6.61727

> <minimizedRMSD>
0.53245

> <CNNscore>
0.2676366568

> <CNNaffinity>
6.1766052246

> <CNN_VS>
1.6530859470

> <CNNaffinity_variance>
0.0592259802

$$$$
24:0


 36 39  0  0  0  0  0  0  0  0999 V2000
   58.5381   24.5139   47.1652 C   0  0  0  0  0  0  0  0  0  0  0  0
   58.6658   25.3483   46.1210 C   0  0  0  0  0  0  0  0  0  0  0  0
   57.8911   25.3419   44.9477 C   0  0  0  0  0  0  0  0  0  0  0  0
   57.0409   24.4114   44.4638 C   0  0  0  0  0  0  0  0  0  0  0  0
   58.1644   26.5333   44.2961 C   0  0  0  0  0  0  0  0  0  0  0  0
   59.1303   27.1808   45.0359 C   0  0  0  0  0  0  0  0  0  0  0  0
   59.4530   26.4603   46.1389 N   0  0  0  0  0  0  0  0  0  0  0  0
   55.7922   23.9862   45.1211 C   0  0  0  0  0  0  0  0  0  0  0  0
   55.2466   22.7600   44.9906 N   0  0  0  0  0  0  0  0  0  0  0  0
   54.0768   22.8700   45.6515 C   0  0  0  0  0  0  0  0  0  0  0  0
   53.2726   21.9062   45.7606 O   0  0  0  0  0  0  0  0  0  0  0  0
   53.8289   24.0937   46.1727 N   0  0  0  0  0  0  0  0  0  0  0  0
   54.9203   24.7914   45.8213 C   0  0  0  0  0  0  0  0  0  0  0  0
   55.1119   26.1331   46.1241 O   0  0  0  0  0  0  0  0  0  0  0  0
   59.5632   28.5669   44.7843 C   0  0  0  0  0  0  0  0  0  0  0  0
   60.7927   28.8440   44.9056 O   0  0  0  0  0  0  0  0  0  0  0  0
   58.6046   29.5996   44.4327 N   0  0  0  0  0  0  0  0  0  0  0  0
   57.2309   29.1589   44.7497 C   0  0  0  0  0  0  0  0  0  0  0  0
   56.2101   30.2543   44.3658 C   0  0  0  0  0  0  0  0  0  0  0  0
   56.8260   31.4968   44.0683 O   0  0  0  0  0  0  0  0  0  0  0  0
   57.7393   31.8446   45.0929 C   0  0  0  0  0  0  0  0  0  0  0  0
   58.9181   30.8519   45.1567 C   0  0  0  0  0  0  0  0  0  0  0  0
   58.2598   30.2642   45.0721 H   0  0  0  0  0  0  0  0  0  0  0  0
   60.5366   26.7882   47.0841 C   0  0  0  0  0  0  0  0  0  0  0  0
   60.0642   27.7762   48.1242 C   0  0  0  0  0  0  0  0  0  0  0  0
   60.6856   27.8358   49.3851 C   0  0  0  0  0  0  0  0  0  0  0  0
   60.3182   28.8177   50.3062 C   0  0  0  0  0  0  0  0  0  0  0  0
   59.3333   29.7624   49.9887 C   0  0  0  0  0  0  0  0  0  0  0  0
   58.6796   29.6761   48.7430 C   0  0  0  0  0  0  0  0  0  0  0  0
   59.0452   28.6987   47.8186 C   0  0  0  0  0  0  0  0  0  0  0  0
   59.0542   30.7839   50.9149 O   0  0  0  0  0  0  0  0  0  0  0  0
   58.8294   32.1469   50.5605 C   0  0  0  0  0  0  0  0  0  0  0  0
   60.1383   32.9331   50.6550 C   0  0  0  0  0  0  0  0  0  0  0  0
   60.2978   33.7872   49.4549 N   0  0  0  0  0  0  0  0  0  0  0  0
   59.5713   33.2206   48.3059 C   0  0  0  0  0  0  0  0  0  0  0  0
   61.7242   33.9589   49.1071 C   0  0  0  0  0  0  0  0  0  0  0  0
  1  2  2  0
  2  3  1  0
  3  4  2  0
  4  8  1  0
  8  9  1  0
  9 10  1  0
 10 11  2  0
 10 12  1  0
 12 13  1  0
 13 14  1  0
  3  5  1  0
  5  6  2  0
  6 15  1  0
 15 16  2  0
 15 17  1  0
 17 18  1  0
 18 19  1  0
 19 20  1  0
 20 21  1  0
 21 22  1  0
  6  7  1  0
  7 24  1  0
 24 25  1  0
 25 26  2  0
 26 27  1  0
 27 28  2  0
 28 31  1  0
 31 32  1  0
 32 33  1  0
 33 34  1  0
 34 35  1  0
 34 36  1  0
 28 29  1  0
 29 30  2  0
  7  2  1  0
 30 25  1  0
 13  8  2  0
 22 17  1  0
 17 23  1  0
M  CHG 1   9  -1
M  CHG 1  12  -1
M  CHG 1  14  -1
M  CHG 1  17   1
M  END
> <UniqueID>
24

> <SMILES>
C=c1c(=Cc2[n-]c(=O)[n-]c2[O-])cc(C(=O)[NH+]2CCOCC2)n1Cc1ccc(OCCN(C)C)cc1

> <Energy>
152.45221310474614

> <Genealogy>
C=c1c(=Cc2[n-]c(=O)[n-]c2[O-])cc(C(=O)[NH+]2CCOCC2)n1Cc1ccc(OCCN(C)C)cc1 (protonated)
C=c1c(=Cc2[n-]c(=O)[n-]c2[O-])cc(C(=O)[NH+]2CCOCC2)n1Cc1ccc(OCCN(C)C)cc1 (3D coordinates assigned)
C=c1c(=Cc2[n-]c(=O)[n-]c2[O-])cc(C(=O)[NH+]2CCOCC2)n1Cc1ccc(OCCN(C)C)cc1 (nonaromatic ring conformer: 152.45221310474614 kcal/mol)

> <smiles>
C=c1c(=Cc2[nH]c(=O)[nH]c2O)cc(C(=O)N2CCOCC2)n1Cc1ccc(OCCN(C)C)cc1

> <score_type>
oracle

> <origin>
adg

> <m_score__min__energy>
-14.67

> <m_primary>
energy

> <minimizedAffinity>
-6.54489

> <minimizedRMSD>
1.25264

> <CNNscore>
0.0476529449

> <CNNaffinity>
5.9440975189

> <CNN_VS>
0.2832537591

> <CNNaffinity_variance>
0.2955543101

$$$$
26:0


 37 41  0  0  0  0  0  0  0  0999 V2000
   58.9067   28.7324   54.0353 C   0  0  0  0  0  0  0  0  0  0  0  0
   59.4500   29.0086   52.7731 C   0  0  0  0  0  0  0  0  0  0  0  0
   60.8411   29.1520   52.6044 C   0  0  0  0  0  0  0  0  0  0  0  0
   61.6753   29.0330   53.7295 C   0  0  0  0  0  0  0  0  0  0  0  0
   61.1338   28.7620   54.9888 C   0  0  0  0  0  0  0  0  0  0  0  0
   59.7559   28.6119   55.1460 C   0  0  0  0  0  0  0  0  0  0  0  0
   59.2439   28.3778   56.3793 F   0  0  0  0  0  0  0  0  0  0  0  0
   56.9072   30.8878   54.3776 C   0  0  0  0  0  0  0  0  0  0  0  0
   56.5689   29.5940   54.2605 C   0  0  0  0  0  0  0  0  0  0  0  0
   55.2832   29.0405   54.3691 C   0  0  0  0  0  0  0  0  0  0  0  0
   54.0702   29.6226   54.3903 C   0  0  0  0  0  0  0  0  0  0  0  0
   55.4584   27.6659   54.4346 C   0  0  0  0  0  0  0  0  0  0  0  0
   56.8078   27.4269   54.2851 C   0  0  0  0  0  0  0  0  0  0  0  0
   57.4350   26.0657   54.2598 C   0  0  0  0  0  0  0  0  0  0  0  0
   57.4836   28.5927   54.1852 N   0  0  0  0  0  0  0  0  0  0  0  0
   53.3037   30.0433   53.2051 C   0  0  0  0  0  0  0  0  0  0  0  0
   53.5921   29.6895   51.9392 N   0  0  0  0  0  0  0  0  0  0  0  0
   52.5575   30.1915   51.2319 C   0  0  0  0  0  0  0  0  0  0  0  0
   52.4725   30.0771   49.9807 O   0  0  0  0  0  0  0  0  0  0  0  0
   51.6161   30.8171   51.9702 N   0  0  0  0  0  0  0  0  0  0  0  0
   52.0978   30.7010   53.2178 C   0  0  0  0  0  0  0  0  0  0  0  0
   51.4511   31.1919   54.3460 O   0  0  0  0  0  0  0  0  0  0  0  0
   61.4331   29.4496   51.2715 C   0  0  0  0  0  0  0  0  0  0  0  0
   62.6900   29.5462   51.1748 O   0  0  0  0  0  0  0  0  0  0  0  0
   60.6024   29.6762   50.1051 N   0  0  0  0  0  0  0  0  0  0  0  0
   60.4836   28.4515   49.3007 C   0  0  0  0  0  0  0  0  0  0  0  0
   59.4839   28.6374   48.1531 C   0  0  0  0  0  0  0  0  0  0  0  0
   59.5198   29.9744   47.5157 N   0  0  0  0  0  0  0  0  0  0  0  0
   60.2653   31.1072   48.1114 C   0  0  0  0  0  0  0  0  0  0  0  0
   61.1947   30.7263   49.2691 C   0  0  0  0  0  0  0  0  0  0  0  0
   61.1962   29.3431   50.8163 H   0  0  0  0  0  0  0  0  0  0  0  0
   58.6607   30.2252   46.3580 C   0  0  0  0  0  0  0  0  0  0  0  0
   57.9321   29.1789   45.7398 C   0  0  0  0  0  0  0  0  0  0  0  0
   57.1114   29.4243   44.6353 C   0  0  0  0  0  0  0  0  0  0  0  0
   56.9922   30.7131   44.1218 C   0  0  0  0  0  0  0  0  0  0  0  0
   57.6906   31.7642   44.7134 C   0  0  0  0  0  0  0  0  0  0  0  0
   58.5129   31.5291   45.8195 C   0  0  0  0  0  0  0  0  0  0  0  0
  8  9  2  0
  9 10  1  0
 10 11  2  0
 11 16  1  0
 16 17  1  0
 17 18  1  0
 18 19  2  0
 18 20  1  0
 20 21  1  0
 21 22  1  0
 10 12  1  0
 12 13  2  0
 13 14  1  0
 13 15  1  0
 15  1  1  0
  1  2  2  0
  2  3  1  0
  3 23  1  0
 23 24  2  0
 23 25  1  0
 25 26  1  0
 26 27  1  0
 27 28  1  0
 28 32  1  0
 32 33  2  0
 33 34  1  0
 34 35  2  0
 35 36  1  0
 36 37  2  0
 28 29  1  0
 29 30  1  0
  3  4  2  0
  4  5  1  0
  5  6  2  0
  6  7  1  0
 15  9  1  0
  6  1  1  0
 21 16  2  0
 30 25  1  0
 37 32  1  0
 25 31  1  0
M  CHG 1  17  -1
M  CHG 1  20  -1
M  CHG 1  22  -1
M  CHG 1  25   1
M  END
> <UniqueID>
26

> <SMILES>
C=c1c(=Cc2[n-]c(=O)[n-]c2[O-])cc(C)n1-c1cc(C(=O)[NH+]2CCN(c3ccccc3)CC2)ccc1F

> <Energy>
153.06474680729295

> <Genealogy>
C=c1c(=Cc2[n-]c(=O)[n-]c2[O-])cc(C)n1-c1cc(C(=O)[NH+]2CCN(c3ccccc3)CC2)ccc1F (protonated)
C=c1c(=Cc2[n-]c(=O)[n-]c2[O-])cc(C)n1-c1cc(C(=O)[NH+]2CCN(c3ccccc3)CC2)ccc1F (3D coordinates assigned)
C=c1c(=Cc2[n-]c(=O)[n-]c2[O-])cc(C)n1-c1cc(C(=O)[NH+]2CCN(c3ccccc3)CC2)ccc1F (nonaromatic ring conformer: 153.06474680729295 kcal/mol)

> <smiles>
C=c1c(=Cc2[nH]c(=O)[nH]c2O)cc(C)n1-c1cc(C(=O)N2CCN(c3ccccc3)CC2)ccc1F

> <score_type>
oracle

> <origin>
adg

> <m_score__min__energy>
-17.27

> <m_primary>
energy

> <minimizedAffinity>
-7.05864

> <minimizedRMSD>
2.04441

> <CNNscore>
0.0325758643

> <CNNaffinity>
5.1556448936

> <CNN_VS>
0.1679495871

> <CNNaffinity_variance>
0.7053601146

$$$$
29:0


 27 30  0  0  0  0  0  0  0  0999 V2000
   55.2736   28.1257   54.0120 C   0  0  0  0  0  0  0  0  0  0  0  0
   55.7267   29.2151   53.3684 C   0  0  0  0  0  0  0  0  0  0  0  0
   54.9444   30.2495   52.8377 C   0  0  0  0  0  0  0  0  0  0  0  0
   53.5999   30.3518   52.8585 C   0  0  0  0  0  0  0  0  0  0  0  0
   55.8293   31.1348   52.2352 C   0  0  0  0  0  0  0  0  0  0  0  0
   57.0939   30.6225   52.4354 C   0  0  0  0  0  0  0  0  0  0  0  0
   57.0398   29.4675   53.1393 N   0  0  0  0  0  0  0  0  0  0  0  0
   58.1804   28.6268   53.5164 C   0  0  0  0  0  0  0  0  0  0  0  0
   52.7699   30.5354   51.6537 C   0  0  0  0  0  0  0  0  0  0  0  0
   52.8024   29.6970   50.6025 N   0  0  0  0  0  0  0  0  0  0  0  0
   51.8523   30.1896   49.7779 C   0  0  0  0  0  0  0  0  0  0  0  0
   51.5885   29.6737   48.6597 O   0  0  0  0  0  0  0  0  0  0  0  0
   51.1998   31.2747   50.2495 N   0  0  0  0  0  0  0  0  0  0  0  0
   51.7796   31.4710   51.4431 C   0  0  0  0  0  0  0  0  0  0  0  0
   51.3814   32.4617   52.3389 O   0  0  0  0  0  0  0  0  0  0  0  0
   58.3310   31.2430   51.9181 C   0  0  0  0  0  0  0  0  0  0  0  0
   59.2337   31.5317   52.7497 O   0  0  0  0  0  0  0  0  0  0  0  0
   58.5250   31.5680   50.5134 N   0  0  0  0  0  0  0  0  0  0  0  0
   59.1207   30.4579   49.7315 C   0  0  0  0  0  0  0  0  0  0  0  0
   59.2744   30.8304   48.2387 C   0  0  0  0  0  0  0  0  0  0  0  0
   58.9985   32.2599   48.0001 N   0  0  0  0  0  0  0  0  0  0  0  0
   59.7768   33.0832   48.9409 C   0  0  0  0  0  0  0  0  0  0  0  0
   59.3598   32.7896   50.3994 C   0  0  0  0  0  0  0  0  0  0  0  0
   58.2334   32.1546   51.2484 H   0  0  0  0  0  0  0  0  0  0  0  0
   59.3655   32.6121   46.6225 C   0  0  0  0  0  0  0  0  0  0  0  0
   59.3381   34.1082   46.3524 C   0  0  0  0  0  0  0  0  0  0  0  0
   58.2215   33.2213   45.8251 C   0  0  0  0  0  0  0  0  0  0  0  0
  1  2  2  0
  2  3  1  0
  3  4  2  0
  4  9  1  0
  9 10  1  0
 10 11  1  0
 11 12  2  0
 11 13  1  0
 13 14  1  0
 14 15  1  0
  3  5  1  0
  5  6  2  0
  6 16  1  0
 16 17  2  0
 16 18  1  0
 18 19  1  0
 19 20  1  0
 20 21  1  0
 21 25  1  0
 25 26  1  0
 26 27  1  0
 21 22  1  0
 22 23  1  0
  6  7  1  0
  7  8  1  0
  7  2  1  0
 14  9  2  0
 23 18  1  0
 27 25  1  0
 18 24  1  0
M  CHG 1  10  -1
M  CHG 1  13  -1
M  CHG 1  15  -1
M  CHG 1  18   1
M  END
> <UniqueID>
28

> <SMILES>
C=c1/c(=C/c2[n-]c(=O)[n-]c2[O-])cc(C(=O)[NH+]2CCN(C3CC3)CC2)n1C

> <Energy>
397.05794476273525

> <Genealogy>
C=c1c(=Cc2[n-]c(=O)[n-]c2[O-])cc(C(=O)[NH+]2CCN(C3CC3)CC2)n1C (protonated)
C=c1/c(=C/c2[n-]c(=O)[n-]c2[O-])cc(C(=O)[NH+]2CCN(C3CC3)CC2)n1C (cis-trans isomerization)
C=c1/c(=C/c2[n-]c(=O)[n-]c2[O-])cc(C(=O)[NH+]2CCN(C3CC3)CC2)n1C (3D coordinates assigned)
C=c1/c(=C/c2[n-]c(=O)[n-]c2[O-])cc(C(=O)[NH+]2CCN(C3CC3)CC2)n1C (nonaromatic ring conformer: 397.05794476273525 kcal/mol)

> <smiles>
C=c1c(=Cc2[nH]c(=O)[nH]c2O)cc(C(=O)N2CCN(C3CC3)CC2)n1C

> <score_type>
oracle

> <origin>
adg

> <m_score__min__energy>
-16.359999999999999

> <m_primary>
energy

> <minimizedAffinity>
-6.13574

> <minimizedRMSD>
1.13565

> <CNNscore>
0.0852797776

> <CNNaffinity>
5.3375611305

> <CNN_VS>
0.4551860392

> <CNNaffinity_variance>
0.0328435600

$$$$
33:0


 38 42  0  0  0  0  0  0  0  0999 V2000
   58.9585   30.0285   47.6951 C   0  0  0  0  0  0  0  0  0  0  0  0
   59.1863   31.3618   47.3340 C   0  0  0  0  0  0  0  0  0  0  0  0
   59.5245   32.3035   48.3052 C   0  0  0  0  0  0  0  0  0  0  0  0
   59.6420   31.9297   49.6538 C   0  0  0  0  0  0  0  0  0  0  0  0
   59.3786   30.5895   50.0263 C   0  0  0  0  0  0  0  0  0  0  0  0
   59.0537   29.6480   49.0379 C   0  0  0  0  0  0  0  0  0  0  0  0
   59.4222   27.1100   47.7634 C   0  0  0  0  0  0  0  0  0  0  0  0
   58.8595   27.7296   46.7134 C   0  0  0  0  0  0  0  0  0  0  0  0
   58.2968   27.1307   45.5737 C   0  0  0  0  0  0  0  0  0  0  0  0
   58.3370   25.8597   45.1295 C   0  0  0  0  0  0  0  0  0  0  0  0
   57.6270   28.1390   44.8979 C   0  0  0  0  0  0  0  0  0  0  0  0
   57.8532   29.3076   45.5939 C   0  0  0  0  0  0  0  0  0  0  0  0
   57.3048   30.6495   45.2147 C   0  0  0  0  0  0  0  0  0  0  0  0
   58.5993   29.0619   46.6934 N   0  0  0  0  0  0  0  0  0  0  0  0
   57.6182   24.7199   45.7251 C   0  0  0  0  0  0  0  0  0  0  0  0
   58.1143   23.4723   45.8323 N   0  0  0  0  0  0  0  0  0  0  0  0
   57.0681   22.7625   46.3083 C   0  0  0  0  0  0  0  0  0  0  0  0
   57.1431   21.5315   46.5645 O   0  0  0  0  0  0  0  0  0  0  0  0
   55.9312   23.4723   46.4840 N   0  0  0  0  0  0  0  0  0  0  0  0
   56.2960   24.7062   46.0927 C   0  0  0  0  0  0  0  0  0  0  0  0
   55.4355   25.7977   46.0793 O   0  0  0  0  0  0  0  0  0  0  0  0
   59.3632   30.1549   51.4338 C   0  0  0  0  0  0  0  0  0  0  0  0
   60.3711   29.5758   51.9199 O   0  0  0  0  0  0  0  0  0  0  0  0
   58.1847   30.3104   52.2274 N   0  0  0  0  0  0  0  0  0  0  0  0
   56.8009   30.7897   52.0550 C   0  0  0  0  0  0  0  0  0  0  0  0
   56.3294   30.4050   53.4186 C   0  0  0  0  0  0  0  0  0  0  0  0
   57.7349   29.9236   53.5758 C   0  0  0  0  0  0  0  0  0  0  0  0
   60.1097   32.9471   50.6235 C   0  0  0  0  0  0  0  0  0  0  0  0
   59.2558   33.5229   51.3548 O   0  0  0  0  0  0  0  0  0  0  0  0
   61.4854   33.4025   50.6180 N   0  0  0  0  0  0  0  0  0  0  0  0
   62.3969   32.2822   50.9846 C   0  0  0  0  0  0  0  0  0  0  0  0
   62.9965   31.5852   49.7521 C   0  0  0  0  0  0  0  0  0  0  0  0
   63.8398   32.5669   48.9164 C   0  0  0  0  0  0  0  0  0  0  0  0
   63.8278   32.1525   47.5733 O   0  0  0  0  0  0  0  0  0  0  0  0
   63.3227   34.0211   49.0277 C   0  0  0  0  0  0  0  0  0  0  0  0
   61.8172   34.0565   49.3216 C   0  0  0  0  0  0  0  0  0  0  0  0
   62.1775   32.9157   51.1212 H   0  0  0  0  0  0  0  0  0  0  0  0
   62.9172   32.1649   47.2392 H   0  0  0  0  0  0  0  0  0  0  0  0
  7  8  2  0
  8  9  1  0
  9 10  2  0
 10 15  1  0
 15 16  1  0
 16 17  1  0
 17 18  2  0
 17 19  1  0
 19 20  1  0
 20 21  1  0
  9 11  1  0
 11 12  2  0
 12 13  1  0
 12 14  1  0
 14  1  1  0
  1  2  2  0
  2  3  1  0
  3  4  2  0
  4 28  1  0
 28 29  2  0
 30 28  1  0
 30 31  1  0
 31 32  1  0
 32 33  1  0
 33 34  1  0
 33 35  1  0
 35 36  1  0
  4  5  1  0
  5 22  1  0
 22 23  2  0
 22 24  1  0
 24 25  1  0
 25 26  1  0
 26 27  1  0
  5  6  2  0
 14  8  1  0
  6  1  1  0
 20 15  2  0
 36 30  1  0
 27 24  1  0
 30 37  1  0
 34 38  1  0
M  CHG 1  16  -1
M  CHG 1  19  -1
M  CHG 1  21  -1
M  CHG 1  30   1
M  END
> <UniqueID>
30

> <SMILES>
C=c1c(=Cc2[n-]c(=O)[n-]c2[O-])cc(C)n1-c1ccc(C(=O)[NH+]2CCC(O)CC2)c(C(=O)N2CCC2)c1

> <Energy>
204.4732155363395

> <Genealogy>
C=c1c(=Cc2[n-]c(=O)[n-]c2[O-])cc(C)n1-c1ccc(C(=O)[NH+]2CCC(O)CC2)c(C(=O)N2CCC2)c1 (protonated)
C=c1c(=Cc2[n-]c(=O)[n-]c2[O-])cc(C)n1-c1ccc(C(=O)[NH+]2CCC(O)CC2)c(C(=O)N2CCC2)c1 (3D coordinates assigned)
C=c1c(=Cc2[n-]c(=O)[n-]c2[O-])cc(C)n1-c1ccc(C(=O)[NH+]2CCC(O)CC2)c(C(=O)N2CCC2)c1 (nonaromatic ring conformer: 204.4732155363395 kcal/mol)

> <smiles>
C=c1c(=Cc2[nH]c(=O)[nH]c2O)cc(C)n1-c1ccc(C(=O)N2CCC(O)CC2)c(C(=O)N2CCC2)c1

> <score_type>
oracle

> <origin>
adg

> <m_score__min__energy>
-15.19

> <m_primary>
energy

> <minimizedAffinity>
-8.93859

> <minimizedRMSD>
0.97098

> <CNNscore>
0.0769201592

> <CNNaffinity>
6.1648788452

> <CNN_VS>
0.4742034674

> <CNNaffinity_variance>
0.1544833928

$$$$
35:0


 32 35  0  0  0  0  0  0  0  0999 V2000
   57.8305   27.9867   43.1038 C   0  0  0  0  0  0  0  0  0  0  0  0
   58.0418   28.4681   44.3400 C   0  0  0  0  0  0  0  0  0  0  0  0
   58.5156   27.7540   45.4526 C   0  0  0  0  0  0  0  0  0  0  0  0
   58.6665   26.4312   45.6583 C   0  0  0  0  0  0  0  0  0  0  0  0
   58.8133   28.6996   46.4174 C   0  0  0  0  0  0  0  0  0  0  0  0
   58.4561   29.9275   45.9015 C   0  0  0  0  0  0  0  0  0  0  0  0
   57.9700   29.7906   44.6457 N   0  0  0  0  0  0  0  0  0  0  0  0
   57.6111   30.8744   43.7241 C   0  0  0  0  0  0  0  0  0  0  0  0
   57.7598   25.5782   46.4459 C   0  0  0  0  0  0  0  0  0  0  0  0
   58.1393   24.4638   47.0987 N   0  0  0  0  0  0  0  0  0  0  0  0
   56.9744   23.9492   47.5441 C   0  0  0  0  0  0  0  0  0  0  0  0
   56.9162   22.8930   48.2262 O   0  0  0  0  0  0  0  0  0  0  0  0
   55.8756   24.6497   47.1949 N   0  0  0  0  0  0  0  0  0  0  0  0
   56.3872   25.6705   46.4878 C   0  0  0  0  0  0  0  0  0  0  0  0
   55.6058   26.6599   45.8969 O   0  0  0  0  0  0  0  0  0  0  0  0
   54.6732   26.6343   45.9833 H   0  0  0  0  0  0  0  0  0  0  0  0
   58.5617   31.1998   46.6450 C   0  0  0  0  0  0  0  0  0  0  0  0
   57.6713   32.0760   46.4723 O   0  0  0  0  0  0  0  0  0  0  0  0
   59.6502   31.4460   47.5611 N   0  0  0  0  0  0  0  0  0  0  0  0
   59.5494   32.4939   48.5874 C   0  0  0  0  0  0  0  0  0  0  0  0
   60.7755   33.4319   48.5464 C   0  0  0  0  0  0  0  0  0  0  0  0
   61.9409   32.8315   47.8555 N   0  0  0  0  0  0  0  0  0  0  0  0
   62.0501   31.3915   48.1573 C   0  0  0  0  0  0  0  0  0  0  0  0
   60.8893   30.6571   47.4772 C   0  0  0  0  0  0  0  0  0  0  0  0
   63.1807   33.5523   48.2069 C   0  0  0  0  0  0  0  0  0  0  0  0
   63.6270   33.1853   49.5989 C   0  0  0  0  0  0  0  0  0  0  0  0
   64.8267   32.4843   49.8039 C   0  0  0  0  0  0  0  0  0  0  0  0
   65.2375   32.1574   51.1002 C   0  0  0  0  0  0  0  0  0  0  0  0
   64.4545   32.5273   52.1983 C   0  0  0  0  0  0  0  0  0  0  0  0
   63.2602   33.2272   52.0017 C   0  0  0  0  0  0  0  0  0  0  0  0
   62.4847   33.5968   53.0933 O   0  0  0  0  0  0  0  0  0  0  0  0
   62.8459   33.5562   50.7066 C   0  0  0  0  0  0  0  0  0  0  0  0
  1  2  2  0
  2  3  1  0
  3  4  2  0
  4  9  1  0
  9 10  1  0
 10 11  1  0
 11 12  2  0
 11 13  1  0
 13 14  1  0
 14 15  1  0
  3  5  1  0
  5  6  2  0
  6 17  1  0
 17 18  2  0
 17 19  1  0
 19 20  1  0
 20 21  1  0
 21 22  1  0
 22 25  1  0
 25 26  1  0
 26 27  2  0
 27 28  1  0
 28 29  2  0
 29 30  1  0
 30 31  1  0
 30 32  2  0
 22 23  1  0
 23 24  1  0
  6  7  1  0
  7  8  1  0
  7  2  1  0
 14  9  2  0
 24 19  1  0
 32 26  1  0
 15 16  1  0
M  CHG 1  10  -1
M  CHG 1  13  -1
M  CHG 1  31  -1
M  END
> <UniqueID>
32

> <SMILES>
C=c1c(=Cc2[n-]c(=O)[n-]c2O)cc(C(=O)N2CCN(Cc3cccc([O-])c3)CC2)n1C

> <Energy>
136.43519868943997

> <Genealogy>
C=c1c(=Cc2[n-]c(=O)[n-]c2O)cc(C(=O)N2CCN(Cc3cccc([O-])c3)CC2)n1C (protonated)
C=c1c(=Cc2[n-]c(=O)[n-]c2O)cc(C(=O)N2CCN(Cc3cccc([O-])c3)CC2)n1C (3D coordinates assigned)
C=c1c(=Cc2[n-]c(=O)[n-]c2O)cc(C(=O)N2CCN(Cc3cccc([O-])c3)CC2)n1C (nonaromatic ring conformer: 136.43519868943997 kcal/mol)

> <smiles>
C=c1c(=Cc2[nH]c(=O)[nH]c2O)cc(C(=O)N2CCN(Cc3cccc(O)c3)CC2)n1C

> <score_type>
oracle

> <origin>
adg

> <m_score__min__energy>
-17.539999999999999

> <m_primary>
energy

> <minimizedAffinity>
-8.12068

> <minimizedRMSD>
1.19067

> <CNNscore>
0.1788495630

> <CNNaffinity>
6.5938777924

> <CNN_VS>
1.1793121099

> <CNNaffinity_variance>
0.0092160851

$$$$
37:0


 40 44  0  0  0  0  0  0  0  0999 V2000
   58.2166   28.7216   46.6704 C   0  0  0  0  0  0  0  0  0  0  0  0
   59.2984   29.3853   47.2683 C   0  0  0  0  0  0  0  0  0  0  0  0
   59.7373   30.6113   46.7633 C   0  0  0  0  0  0  0  0  0  0  0  0
   59.1076   31.1888   45.6551 C   0  0  0  0  0  0  0  0  0  0  0  0
   57.9906   30.5480   45.0880 C   0  0  0  0  0  0  0  0  0  0  0  0
   57.5440   29.3221   45.5938 C   0  0  0  0  0  0  0  0  0  0  0  0
   56.4446   28.6993   45.0125 O   0  0  0  0  0  0  0  0  0  0  0  0
   60.4275   26.2683   46.7290 C   0  0  0  0  0  0  0  0  0  0  0  0
   59.2851   25.6742   46.3406 C   0  0  0  0  0  0  0  0  0  0  0  0
   59.4181   24.4964   45.6837 N   0  0  0  0  0  0  0  0  0  0  0  0
   58.3663   23.7936   45.2136 C   0  0  0  0  0  0  0  0  0  0  0  0
   58.5857   22.7153   44.5982 O   0  0  0  0  0  0  0  0  0  0  0  0
   57.0916   24.2456   45.4079 N   0  0  0  0  0  0  0  0  0  0  0  0
   56.8800   25.4255   46.0784 C   0  0  0  0  0  0  0  0  0  0  0  0
   55.6931   25.7911   46.3031 O   0  0  0  0  0  0  0  0  0  0  0  0
   57.9766   26.2118   46.5481 C   0  0  0  0  0  0  0  0  0  0  0  0
   57.7854   27.4062   47.1832 C   0  0  0  0  0  0  0  0  0  0  0  0
   55.9425   23.4851   44.8683 C   0  0  0  0  0  0  0  0  0  0  0  0
   55.5016   22.4334   45.8535 C   0  0  0  0  0  0  0  0  0  0  0  0
   55.9270   21.1008   45.7042 C   0  0  0  0  0  0  0  0  0  0  0  0
   55.4871   20.1158   46.5954 C   0  0  0  0  0  0  0  0  0  0  0  0
   54.6169   20.4523   47.6353 C   0  0  0  0  0  0  0  0  0  0  0  0
   54.1825   21.7724   47.7880 C   0  0  0  0  0  0  0  0  0  0  0  0
   54.6203   22.7605   46.8995 C   0  0  0  0  0  0  0  0  0  0  0  0
   59.6252   32.3917   45.1486 O   0  0  0  0  0  0  0  0  0  0  0  0
   59.4890   33.6677   45.7758 C   0  0  0  0  0  0  0  0  0  0  0  0
   60.1424   33.6490   47.1329 C   0  0  0  0  0  0  0  0  0  0  0  0
   61.5329   33.5130   47.2580 C   0  0  0  0  0  0  0  0  0  0  0  0
   62.1214   33.4274   48.5234 C   0  0  0  0  0  0  0  0  0  0  0  0
   61.3286   33.4752   49.6832 C   0  0  0  0  0  0  0  0  0  0  0  0
   59.9390   33.6402   49.5560 C   0  0  0  0  0  0  0  0  0  0  0  0
   59.3506   33.7178   48.2904 C   0  0  0  0  0  0  0  0  0  0  0  0
   61.9509   33.3864   51.0234 C   0  0  0  0  0  0  0  0  0  0  0  0
   61.2332   33.5410   52.0511 O   0  0  0  0  0  0  0  0  0  0  0  0
   63.3633   33.1744   51.1750 N   0  0  0  0  0  0  0  0  0  0  0  0
   64.0144   32.0392   50.5021 C   0  0  0  0  0  0  0  0  0  0  0  0
   65.5137   32.3154   50.2374 C   0  0  0  0  0  0  0  0  0  0  0  0
   65.9591   33.5529   50.7655 O   0  0  0  0  0  0  0  0  0  0  0  0
   65.5848   33.6580   52.1231 C   0  0  0  0  0  0  0  0  0  0  0  0
   64.0817   33.9147   52.2186 C   0  0  0  0  0  0  0  0  0  0  0  0
  8  9  2  0
  9 10  1  0
 10 11  1  0
 11 12  2  0
 11 13  1  0
 13 18  1  0
 18 19  1  0
 19 20  2  0
 20 21  1  0
 21 22  2  0
 22 23  1  0
 23 24  2  0
 13 14  1  0
 14 15  2  0
 14 16  1  0
 16 17  2  0
 17  1  1  0
  1  2  2  0
  2  3  1  0
  3  4  2  0
  4 25  1  0
 25 26  1  0
 26 27  1  0
 27 28  2  0
 28 29  1  0
 29 30  2  0
 30 33  1  0
 33 34  2  0
 33 35  1  0
 35 36  1  0
 36 37  1  0
 37 38  1  0
 38 39  1  0
 39 40  1  0
 30 31  1  0
 31 32  2  0
  4  5  1  0
  5  6  2  0
  6  7  1  0
 16  9  1  0
  6  1  1  0
 24 19  1  0
 32 27  1  0
 40 35  1  0
M  CHG 1   7  -1
M  CHG 1  10  -1
M  END
> <UniqueID>
34

> <SMILES>
C=c1[n-]c(=O)n(Cc2ccccc2)c(=O)c1=Cc1ccc(OCc2ccc(C(=O)N3CCOCC3)cc2)cc1[O-]

> <Energy>
108.00666269739365

> <Genealogy>
C=c1[n-]c(=O)n(Cc2ccccc2)c(=O)c1=Cc1ccc(OCc2ccc(C(=O)N3CCOCC3)cc2)cc1[O-] (protonated)
C=c1[n-]c(=O)n(Cc2ccccc2)c(=O)c1=Cc1ccc(OCc2ccc(C(=O)N3CCOCC3)cc2)cc1[O-] (3D coordinates assigned)
C=c1[n-]c(=O)n(Cc2ccccc2)c(=O)c1=Cc1ccc(OCc2ccc(C(=O)N3CCOCC3)cc2)cc1[O-] (nonaromatic ring conformer: 108.00666269739365 kcal/mol)

> <smiles>
C=c1[nH]c(=O)n(Cc2ccccc2)c(=O)c1=Cc1ccc(OCc2ccc(C(=O)N3CCOCC3)cc2)cc1O

> <score_type>
oracle

> <origin>
adg

> <m_score__min__energy>
-15.01

> <m_primary>
energy

> <minimizedAffinity>
-7.56644

> <minimizedRMSD>
2.48839

> <CNNscore>
0.2092072815

> <CNNaffinity>
6.9001727104

> <CNN_VS>
1.4435663223

> <CNNaffinity_variance>
0.0253907945

$$$$
50:0


 25 27  0  0  0  0  0  0  0  0999 V2000
   60.5603   29.5935   46.5534 C   0  0  0  0  0  0  0  0  0  0  0  0
   59.4296   29.1651   45.9496 C   0  0  0  0  0  0  0  0  0  0  0  0
   59.2802   27.7909   45.6435 C   0  0  0  0  0  0  0  0  0  0  0  0
   60.2218   26.9829   45.8855 O   0  0  0  0  0  0  0  0  0  0  0  0
   58.0792   27.3471   45.0425 C   0  0  0  0  0  0  0  0  0  0  0  0
   57.8120   26.0632   44.7240 C   0  0  0  0  0  0  0  0  0  0  0  0
   57.1303   28.2692   44.7422 N   0  0  0  0  0  0  0  0  0  0  0  0
   57.2771   29.5855   45.0189 C   0  0  0  0  0  0  0  0  0  0  0  0
   56.3477   30.3797   44.7066 O   0  0  0  0  0  0  0  0  0  0  0  0
   58.4154   30.0449   45.6253 N   0  0  0  0  0  0  0  0  0  0  0  0
   57.2906   25.0312   45.6450 C   0  0  0  0  0  0  0  0  0  0  0  0
   56.0505   25.2064   46.2745 C   0  0  0  0  0  0  0  0  0  0  0  0
   55.2717   26.3267   46.0069 O   0  0  0  0  0  0  0  0  0  0  0  0
   55.5956   24.2719   47.1499 N   0  0  0  0  0  0  0  0  0  0  0  0
   56.3317   23.1677   47.4406 C   0  0  0  0  0  0  0  0  0  0  0  0
   55.7577   22.0616   48.4951 S   0  0  0  0  0  0  0  0  0  0  0  0
   57.5471   22.9880   46.8643 N   0  0  0  0  0  0  0  0  0  0  0  0
   58.0459   23.8936   45.9821 C   0  0  0  0  0  0  0  0  0  0  0  0
   59.1857   23.7071   45.4804 O   0  0  0  0  0  0  0  0  0  0  0  0
   58.5189   31.4570   45.8971 C   0  0  0  0  0  0  0  0  0  0  0  0
   58.4655   32.3839   44.8445 C   0  0  0  0  0  0  0  0  0  0  0  0
   58.5650   33.7529   45.1100 C   0  0  0  0  0  0  0  0  0  0  0  0
   58.7144   34.2019   46.4255 C   0  0  0  0  0  0  0  0  0  0  0  0
   58.7655   33.2819   47.4784 C   0  0  0  0  0  0  0  0  0  0  0  0
   58.6663   31.9118   47.2159 C   0  0  0  0  0  0  0  0  0  0  0  0
  1  2  2  0
  2  3  1  0
  3  4  2  0
  3  5  1  0
  5  6  2  0
  6 11  1  0
 11 12  2  0
 12 13  1  0
 12 14  1  0
 14 15  1  0
 15 16  2  0
 15 17  1  0
 17 18  1  0
 18 19  2  0
  5  7  1  0
  7  8  1  0
  8  9  2  0
  8 10  1  0
 10 20  1  0
 20 21  2  0
 21 22  1  0
 22 23  2  0
 23 24  1  0
 24 25  2  0
 10  2  1  0
 25 20  1  0
 18 11  1  0
M  CHG 1   7  -1
M  CHG 1  13  -1
M  CHG 1  14  -1
M  CHG 1  17  -1
M  END
> <UniqueID>
46

> <SMILES>
C=c1c(=O)c(=Cc2c([O-])[n-]c(=S)[n-]c2=O)[n-]c(=O)n1-c1ccccc1

> <Energy>
67.12697463632556

> <Genealogy>
C=c1c(=O)c(=Cc2c([O-])[n-]c(=S)[n-]c2=O)[n-]c(=O)n1-c1ccccc1 (protonated)
C=c1c(=O)c(=Cc2c([O-])[n-]c(=S)[n-]c2=O)[n-]c(=O)n1-c1ccccc1 (3D coordinates assigned)
C=c1c(=O)c(=Cc2c([O-])[n-]c(=S)[n-]c2=O)[n-]c(=O)n1-c1ccccc1 (optimized conformer: 67.12697463632556 kcal/mol)

> <smiles>
C=c1c(=O)c(=Cc2c(O)[nH]c(=S)[nH]c2=O)[nH]c(=O)n1-c1ccccc1

> <score_type>
oracle

> <origin>
adg

> <m_score__min__energy>
-16.84

> <m_primary>
energy

> <minimizedAffinity>
-8.63384

> <minimizedRMSD>
0.53745

> <CNNscore>
0.5391210318

> <CNNaffinity>
6.6816329956

> <CNN_VS>
3.6022088528

> <CNNaffinity_variance>
0.1894969940

$$$$
55:0


 24 26  0  0  0  0  0  0  0  0999 V2000
   56.9605   29.9125   43.6788 C   0  0  0  0  0  0  0  0  0  0  0  0
   57.6297   29.7935   44.8389 C   0  0  0  0  0  0  0  0  0  0  0  0
   57.7481   30.9220   45.5786 N   0  0  0  0  0  0  0  0  0  0  0  0
   58.3475   30.9482   46.7882 C   0  0  0  0  0  0  0  0  0  0  0  0
   58.3979   32.0426   47.4134 O   0  0  0  0  0  0  0  0  0  0  0  0
   58.8860   29.8092   47.3159 N   0  0  0  0  0  0  0  0  0  0  0  0
   58.8319   28.6352   46.6047 C   0  0  0  0  0  0  0  0  0  0  0  0
   59.4388   27.6253   47.0562 O   0  0  0  0  0  0  0  0  0  0  0  0
   58.1635   28.5676   45.3459 C   0  0  0  0  0  0  0  0  0  0  0  0
   58.0845   27.4069   44.6306 C   0  0  0  0  0  0  0  0  0  0  0  0
   57.7534   26.0696   45.1639 C   0  0  0  0  0  0  0  0  0  0  0  0
   58.5841   25.0103   45.1578 N   0  0  0  0  0  0  0  0  0  0  0  0
   57.9068   24.0770   45.8623 C   0  0  0  0  0  0  0  0  0  0  0  0
   58.3609   22.9209   46.0664 O   0  0  0  0  0  0  0  0  0  0  0  0
   56.7127   24.4848   46.3401 N   0  0  0  0  0  0  0  0  0  0  0  0
   56.6375   25.7517   45.9011 C   0  0  0  0  0  0  0  0  0  0  0  0
   55.5736   26.6024   46.1730 O   0  0  0  0  0  0  0  0  0  0  0  0
   59.5809   29.8518   48.6211 C   0  0  0  0  0  0  0  0  0  0  0  0
   60.7616   30.7868   48.5660 C   0  0  0  0  0  0  0  0  0  0  0  0
   61.5695   30.8500   47.4169 C   0  0  0  0  0  0  0  0  0  0  0  0
   62.6484   31.7374   47.3594 C   0  0  0  0  0  0  0  0  0  0  0  0
   62.9293   32.5688   48.4458 C   0  0  0  0  0  0  0  0  0  0  0  0
   62.1322   32.5131   49.5924 C   0  0  0  0  0  0  0  0  0  0  0  0
   61.0524   31.6271   49.6545 C   0  0  0  0  0  0  0  0  0  0  0  0
  1  2  2  0
  2  3  1  0
  3  4  1  0
  4  5  2  0
  4  6  1  0
  6 18  1  0
 18 19  1  0
 19 20  2  0
 20 21  1  0
 21 22  2  0
 22 23  1  0
 23 24  2  0
  6  7  1  0
  7  8  2  0
  7  9  1  0
  9 10  2  0
 10 11  1  0
 11 12  1  0
 12 13  1  0
 13 14  2  0
 13 15  1  0
 15 16  1  0
 16 17  1  0
  9  2  1  0
 16 11  2  0
 24 19  1  0
M  CHG 1   3  -1
M  CHG 1  12  -1
M  CHG 1  15  -1
M  CHG 1  17  -1
M  END
> <UniqueID>
51

> <SMILES>
C=c1[n-]c(=O)n(Cc2ccccc2)c(=O)/c1=C\c1[n-]c(=O)[n-]c1[O-]

> <Energy>
89.71785121673135

> <Genealogy>
C=c1[n-]c(=O)n(Cc2ccccc2)c(=O)c1=Cc1[n-]c(=O)[n-]c1[O-] (protonated)
C=c1[n-]c(=O)n(Cc2ccccc2)c(=O)/c1=C\c1[n-]c(=O)[n-]c1[O-] (cis-trans isomerization)
C=c1[n-]c(=O)n(Cc2ccccc2)c(=O)/c1=C\c1[n-]c(=O)[n-]c1[O-] (3D coordinates assigned)
C=c1[n-]c(=O)n(Cc2ccccc2)c(=O)/c1=C\c1[n-]c(=O)[n-]c1[O-] (optimized conformer: 89.71785121673135 kcal/mol)

> <smiles>
C=c1[nH]c(=O)n(Cc2ccccc2)c(=O)c1=Cc1[nH]c(=O)[nH]c1O

> <score_type>
oracle

> <origin>
adg

> <m_score__min__energy>
-16.870000000000001

> <m_primary>
energy

> <minimizedAffinity>
-6.97117

> <minimizedRMSD>
1.07500

> <CNNscore>
0.2521994412

> <CNNaffinity>
6.1130051613

> <CNN_VS>
1.5416964293

> <CNNaffinity_variance>
0.2018530965

$$$$
67:0


 30 33  0  0  0  0  0  0  0  0999 V2000
   57.2067   28.2702   45.3425 C   0  0  0  0  0  0  0  0  0  0  0  0
   58.0890   27.3041   45.6452 C   0  0  0  0  0  0  0  0  0  0  0  0
   58.0014   25.9387   45.3259 C   0  0  0  0  0  0  0  0  0  0  0  0
   57.1474   25.2673   44.5277 C   0  0  0  0  0  0  0  0  0  0  0  0
   59.0287   25.3138   46.0147 C   0  0  0  0  0  0  0  0  0  0  0  0
   59.7344   26.3016   46.6678 C   0  0  0  0  0  0  0  0  0  0  0  0
   60.9406   26.0606   47.5236 C   0  0  0  0  0  0  0  0  0  0  0  0
   59.1655   27.5073   46.4483 N   0  0  0  0  0  0  0  0  0  0  0  0
   56.2564   24.1697   44.9510 C   0  0  0  0  0  0  0  0  0  0  0  0
   55.1021   24.4451   45.6971 C   0  0  0  0  0  0  0  0  0  0  0  0
   54.7540   25.7552   46.0049 O   0  0  0  0  0  0  0  0  0  0  0  0
   54.3092   23.4273   46.1210 N   0  0  0  0  0  0  0  0  0  0  0  0
   54.6210   22.1344   45.8456 C   0  0  0  0  0  0  0  0  0  0  0  0
   53.8690   21.2081   46.2431 O   0  0  0  0  0  0  0  0  0  0  0  0
   55.7469   21.8406   45.1463 N   0  0  0  0  0  0  0  0  0  0  0  0
   56.5743   22.8220   44.7025 C   0  0  0  0  0  0  0  0  0  0  0  0
   57.6231   22.5109   44.0768 O   0  0  0  0  0  0  0  0  0  0  0  0
   59.6217   28.7607   46.9921 C   0  0  0  0  0  0  0  0  0  0  0  0
   59.1785   29.1840   48.2516 C   0  0  0  0  0  0  0  0  0  0  0  0
   59.6120   30.4041   48.7779 C   0  0  0  0  0  0  0  0  0  0  0  0
   60.4991   31.2180   48.0524 C   0  0  0  0  0  0  0  0  0  0  0  0
   60.9337   30.7924   46.7841 C   0  0  0  0  0  0  0  0  0  0  0  0
   60.4999   29.5718   46.2607 C   0  0  0  0  0  0  0  0  0  0  0  0
   60.9338   32.4832   48.5851 N   0  0  0  0  0  0  0  0  0  0  0  0
   61.4837   33.5289   47.7162 C   0  0  0  0  0  0  0  0  0  0  0  0
   62.8798   33.9526   48.2071 C   0  0  0  0  0  0  0  0  0  0  0  0
   63.0595   33.8513   49.6798 N   0  0  0  0  0  0  0  0  0  0  0  0
   63.8735   32.6823   50.0533 C   0  0  0  0  0  0  0  0  0  0  0  0
   61.7852   33.8956   50.4293 C   0  0  0  0  0  0  0  0  0  0  0  0
   60.8436   32.7475   50.0252 C   0  0  0  0  0  0  0  0  0  0  0  0
  1  2  2  0
  2  3  1  0
  3  4  2  0
  4  9  1  0
  9 10  2  0
 10 11  1  0
 10 12  1  0
 12 13  1  0
 13 14  2  0
 13 15  1  0
 15 16  1  0
 16 17  2  0
  3  5  1  0
  5  6  2  0
  6  7  1  0
  6  8  1  0
  8 18  1  0
 18 19  2  0
 19 20  1  0
 20 21  2  0
 21 24  1  0
 24 25  1  0
 25 26  1  0
 26 27  1  0
 27 28  1  0
 27 29  1  0
 29 30  1  0
 21 22  1  0
 22 23  2  0
  8  2  1  0
 23 18  1  0
 16  9  1  0
 30 24  1  0
M  CHG 1  11  -1
M  CHG 1  12  -1
M  CHG 1  15  -1
M  END
> <UniqueID>
63

> <SMILES>
C=c1c(=Cc2c([O-])[n-]c(=O)[n-]c2=O)cc(C)n1-c1ccc(N2CCN(C)CC2)cc1

> <Energy>
115.59309641264447

> <Genealogy>
C=c1c(=Cc2c([O-])[n-]c(=O)[n-]c2=O)cc(C)n1-c1ccc(N2CCN(C)CC2)cc1 (protonated)
C=c1c(=Cc2c([O-])[n-]c(=O)[n-]c2=O)cc(C)n1-c1ccc(N2CCN(C)CC2)cc1 (3D coordinates assigned)
C=c1c(=Cc2c([O-])[n-]c(=O)[n-]c2=O)cc(C)n1-c1ccc(N2CCN(C)CC2)cc1 (nonaromatic ring conformer: 115.59309641264447 kcal/mol)

> <smiles>
C=c1c(=Cc2c(O)[nH]c(=O)[nH]c2=O)cc(C)n1-c1ccc(N2CCN(C)CC2)cc1

> <score_type>
oracle

> <origin>
adg

> <m_score__min__energy>
-15.74

> <m_primary>
energy

> <minimizedAffinity>
-6.78891

> <minimizedRMSD>
1.17270

> <CNNscore>
0.0731695369

> <CNNaffinity>
5.9912581444

> <CNN_VS>
0.4383775890

> <CNNaffinity_variance>
0.3769449890

$$$$
85:0


 27 29  0  0  0  0  0  0  0  0999 V2000
   57.8639   26.6593   46.0676 C   0  0  0  0  0  0  0  0  0  0  0  0
   59.5527   26.6284   46.1740 S   0  0  0  0  0  0  0  0  0  0  0  0
   59.7370   28.0908   45.3719 C   0  0  0  0  0  0  0  0  0  0  0  0
   60.8473   28.6473   45.1609 O   0  0  0  0  0  0  0  0  0  0  0  0
   58.5444   28.6213   45.0085 N   0  0  0  0  0  0  0  0  0  0  0  0
   57.5039   27.8322   45.4026 C   0  0  0  0  0  0  0  0  0  0  0  0
   56.1771   28.1885   45.1769 O   0  0  0  0  0  0  0  0  0  0  0  0
   57.7919   23.4710   44.7884 C   0  0  0  0  0  0  0  0  0  0  0  0
   56.5423   23.8444   45.0770 C   0  0  0  0  0  0  0  0  0  0  0  0
   55.4659   23.2399   44.5438 N   0  0  0  0  0  0  0  0  0  0  0  0
   54.4292   23.9133   45.0786 C   0  0  0  0  0  0  0  0  0  0  0  0
   53.2324   23.6338   44.8168 O   0  0  0  0  0  0  0  0  0  0  0  0
   54.7784   24.9056   45.9205 N   0  0  0  0  0  0  0  0  0  0  0  0
   56.1243   24.8685   45.9209 C   0  0  0  0  0  0  0  0  0  0  0  0
   56.9055   25.6914   46.6433 C   0  0  0  0  0  0  0  0  0  0  0  0
   58.3771   29.9466   44.4033 C   0  0  0  0  0  0  0  0  0  0  0  0
   57.9069   30.9077   45.4457 C   0  0  0  0  0  0  0  0  0  0  0  0
   56.9597   31.6983   45.1913 O   0  0  0  0  0  0  0  0  0  0  0  0
   58.5022   30.8873   46.7462 N   0  0  0  0  0  0  0  0  0  0  0  0
   59.1329   32.0140   47.3691 C   0  0  0  0  0  0  0  0  0  0  0  0
   59.6040   33.0517   46.5553 C   0  0  0  0  0  0  0  0  0  0  0  0
   60.2385   34.1610   47.1169 C   0  0  0  0  0  0  0  0  0  0  0  0
   60.4210   34.2342   48.4983 C   0  0  0  0  0  0  0  0  0  0  0  0
   59.9853   33.1921   49.3195 C   0  0  0  0  0  0  0  0  0  0  0  0
   59.3524   32.0620   48.7641 C   0  0  0  0  0  0  0  0  0  0  0  0
   58.9601   30.9716   49.5578 O   0  0  0  0  0  0  0  0  0  0  0  0
   59.3559   30.7686   50.9092 C   0  0  0  0  0  0  0  0  0  0  0  0
  8  9  2  0
  9 10  1  0
 10 11  1  0
 11 12  2  0
 11 13  1  0
 13 14  1  0
 14 15  2  0
 15  1  1  0
  1  2  1  0
  2  3  1  0
  3  4  2  0
  3  5  1  0
  5 16  1  0
 16 17  1  0
 17 18  2  0
 17 19  1  0
 19 20  1  0
 20 21  2  0
 21 22  1  0
 22 23  2  0
 23 24  1  0
 24 25  2  0
 25 26  1  0
 26 27  1  0
  5  6  1  0
  6  7  1  0
 14  9  1  0
  6  1  2  0
 25 20  1  0
M  CHG 1   7  -1
M  CHG 1  10  -1
M  CHG 1  13  -1
M  CHG 1  19  -1
M  END
> <UniqueID>
79

> <SMILES>
C=c1[n-]c(=O)[n-]c1=Cc1sc(=O)n(CC(=O)[N-]c2ccccc2OC)c1[O-]

> <Energy>
107.46983970268603

> <Genealogy>
C=c1[n-]c(=O)[n-]c1=Cc1sc(=O)n(CC(=O)[N-]c2ccccc2OC)c1[O-] (protonated)
C=c1[n-]c(=O)[n-]c1=Cc1sc(=O)n(CC(=O)[N-]c2ccccc2OC)c1[O-] (3D coordinates assigned)
C=c1[n-]c(=O)[n-]c1=Cc1sc(=O)n(CC(=O)[N-]c2ccccc2OC)c1[O-] (optimized conformer: 107.46983970268603 kcal/mol)

> <smiles>
C=c1[nH]c(=O)[nH]c1=Cc1sc(=O)n(CC(=O)Nc2ccccc2OC)c1O

> <score_type>
oracle

> <origin>
adg

> <m_score__min__energy>
-15.52

> <m_primary>
energy

> <minimizedAffinity>
-7.55237

> <minimizedRMSD>
1.41093

> <CNNscore>
0.3354578018

> <CNNaffinity>
6.1374149323

> <CNN_VS>
2.0588436127

> <CNNaffinity_variance>
0.0151213286

$$$$
86:0


 30 33  0  0  0  0  0  0  0  0999 V2000
   60.7450   26.8704   46.0440 C   0  0  0  0  0  0  0  0  0  0  0  0
   59.7141   27.6793   45.7423 C   0  0  0  0  0  0  0  0  0  0  0  0
   58.5344   27.2978   45.0861 C   0  0  0  0  0  0  0  0  0  0  0  0
   58.0342   26.0798   44.7936 C   0  0  0  0  0  0  0  0  0  0  0  0
   57.8645   28.4640   44.7841 C   0  0  0  0  0  0  0  0  0  0  0  0
   58.5963   29.5073   45.3135 C   0  0  0  0  0  0  0  0  0  0  0  0
   59.7285   29.0363   45.9076 N   0  0  0  0  0  0  0  0  0  0  0  0
   57.3546   25.1817   45.7421 C   0  0  0  0  0  0  0  0  0  0  0  0
   57.9235   24.1010   46.3085 N   0  0  0  0  0  0  0  0  0  0  0  0
   56.9919   23.6824   47.1913 C   0  0  0  0  0  0  0  0  0  0  0  0
   57.1535   22.6670   47.9171 O   0  0  0  0  0  0  0  0  0  0  0  0
   55.8776   24.4429   47.2417 N   0  0  0  0  0  0  0  0  0  0  0  0
   56.1276   25.3966   46.3289 C   0  0  0  0  0  0  0  0  0  0  0  0
   55.2445   26.4359   46.0444 O   0  0  0  0  0  0  0  0  0  0  0  0
   54.4286   26.4957   46.5011 H   0  0  0  0  0  0  0  0  0  0  0  0
   58.1432   30.9172   45.2482 C   0  0  0  0  0  0  0  0  0  0  0  0
   56.9061   31.1540   45.1628 O   0  0  0  0  0  0  0  0  0  0  0  0
   59.0870   31.9984   45.2420 N   0  0  0  0  0  0  0  0  0  0  0  0
   59.3821   32.7686   46.2459 C   0  0  0  0  0  0  0  0  0  0  0  0
   60.4569   33.5866   46.2918 N   0  0  0  0  0  0  0  0  0  0  0  0
   60.5096   34.2714   47.4647 C   0  0  0  0  0  0  0  0  0  0  0  0
   59.4750   33.9999   48.3550 C   0  0  0  0  0  0  0  0  0  0  0  0
   58.4597   32.8598   47.6451 S   0  0  0  0  0  0  0  0  0  0  0  0
   60.7124   29.8392   46.6595 C   0  0  0  0  0  0  0  0  0  0  0  0
   60.3459   29.9222   48.1218 C   0  0  0  0  0  0  0  0  0  0  0  0
   61.1919   30.5897   49.0244 C   0  0  0  0  0  0  0  0  0  0  0  0
   60.8671   30.6506   50.3818 C   0  0  0  0  0  0  0  0  0  0  0  0
   59.7084   30.0288   50.8541 C   0  0  0  0  0  0  0  0  0  0  0  0
   58.8765   29.3385   49.9692 C   0  0  0  0  0  0  0  0  0  0  0  0
   59.1965   29.2767   48.6102 C   0  0  0  0  0  0  0  0  0  0  0  0
  1  2  2  0
  2  3  1  0
  3  4  2  0
  4  8  1  0
  8  9  1  0
  9 10  1  0
 10 11  2  0
 10 12  1  0
 12 13  1  0
 13 14  1  0
  3  5  1  0
  5  6  2  0
  6 16  1  0
 16 17  2  0
 16 18  1  0
 18 19  2  0
 19 20  1  0
 20 21  1  0
 21 22  2  0
 22 23  1  0
  6  7  1  0
  7 24  1  0
 24 25  1  0
 25 26  2  0
 26 27  1  0
 27 28  2  0
 28 29  1  0
 29 30  2  0
  7  2  1  0
 30 25  1  0
 13  8  2  0
 23 19  1  0
 14 15  1  0
M  CHG 1   9  -1
M  CHG 1  12  -1
M  CHG 1  20  -1
M  END
> <UniqueID>
80

> <SMILES>
C=c1c(=Cc2[n-]c(=O)[n-]c2O)cc(C(=O)N=c2[n-]ccs2)n1Cc1ccccc1

> <Energy>
151.2829168619331

> <Genealogy>
C=c1c(=Cc2[n-]c(=O)[n-]c2O)cc(C(=O)N=c2[n-]ccs2)n1Cc1ccccc1 (protonated)
C=c1c(=Cc2[n-]c(=O)[n-]c2O)cc(C(=O)N=c2[n-]ccs2)n1Cc1ccccc1 (3D coordinates assigned)
C=c1c(=Cc2[n-]c(=O)[n-]c2O)cc(C(=O)N=c2[n-]ccs2)n1Cc1ccccc1 (optimized conformer: 151.2829168619331 kcal/mol)

> <smiles>
C=c1c(=Cc2[nH]c(=O)[nH]c2O)cc(C(=O)N=c2[nH]ccs2)n1Cc1ccccc1

> <score_type>
oracle

> <origin>
adg

> <m_score__min__energy>
-14.34

> <m_primary>
energy

> <minimizedAffinity>
-8.05030

> <minimizedRMSD>
0.96929

> <CNNscore>
0.5232942104

> <CNNaffinity>
6.9092369080

> <CNN_VS>
3.6155636311

> <CNNaffinity_variance>
0.0494173132

$$$$
0:0


 33 36  0  0  0  0  0  0  0  0999 V2000
   58.5096   29.3038   53.7548 O   0  0  0  0  0  0  0  0  0  0  0  0
   54.3781   30.0185   53.2375 C   0  0  0  0  0  0  0  0  0  0  0  0
   55.3101   30.7620   52.5044 C   0  0  0  0  0  0  0  0  0  0  0  0
   56.6795   30.5372   52.6642 C   0  0  0  0  0  0  0  0  0  0  0  0
   57.1419   29.5686   53.5739 C   0  0  0  0  0  0  0  0  0  0  0  0
   56.2176   28.8404   54.3380 C   0  0  0  0  0  0  0  0  0  0  0  0
   54.8389   29.0740   54.1733 C   0  0  0  0  0  0  0  0  0  0  0  0
   51.5919   29.7222   48.6211 C   0  0  0  0  0  0  0  0  0  0  0  0
   51.7390   30.2396   49.8373 C   0  0  0  0  0  0  0  0  0  0  0  0
   51.1782   31.4117   50.2080 N   0  0  0  0  0  0  0  0  0  0  0  0
   51.5769   31.5480   51.4846 C   0  0  0  0  0  0  0  0  0  0  0  0
   51.2379   32.6317   52.2861 O   0  0  0  0  0  0  0  0  0  0  0  0
   52.3498   30.4737   51.8561 C   0  0  0  0  0  0  0  0  0  0  0  0
   52.9349   30.3000   53.0510 C   0  0  0  0  0  0  0  0  0  0  0  0
   52.4636   29.6375   50.8068 N   0  0  0  0  0  0  0  0  0  0  0  0
   56.7094   27.8928   55.2496 O   0  0  0  0  0  0  0  0  0  0  0  0
   56.1205   27.6087   56.5144 C   0  0  0  0  0  0  0  0  0  0  0  0
   59.4156   28.8841   52.7328 C   0  0  0  0  0  0  0  0  0  0  0  0
   59.6923   30.0090   51.7711 C   0  0  0  0  0  0  0  0  0  0  0  0
   60.2667   31.2087   52.2217 C   0  0  0  0  0  0  0  0  0  0  0  0
   60.5286   32.2448   51.3210 C   0  0  0  0  0  0  0  0  0  0  0  0
   60.2349   32.0906   49.9591 C   0  0  0  0  0  0  0  0  0  0  0  0
   59.6666   30.8921   49.5082 C   0  0  0  0  0  0  0  0  0  0  0  0
   59.4035   29.8552   50.4070 C   0  0  0  0  0  0  0  0  0  0  0  0
   60.5818   33.3928   48.8200 S   0  0  0  0  0  0  0  0  0  0  0  0
   61.9289   33.9820   49.1412 O   0  0  0  0  0  0  0  0  0  0  0  0
   59.5541   34.4750   48.9958 O   0  0  0  0  0  0  0  0  0  0  0  0
   60.5687   32.8519   47.1535 N   0  0  0  0  0  0  0  0  0  0  0  0
   60.6746   33.9671   46.1884 C   0  0  0  0  0  0  0  0  0  0  0  0
   59.3270   34.3343   45.5460 C   0  0  0  0  0  0  0  0  0  0  0  0
   58.2691   34.0570   46.4329 O   0  0  0  0  0  0  0  0  0  0  0  0
   58.1210   32.6583   46.5786 C   0  0  0  0  0  0  0  0  0  0  0  0
   59.4555   31.9291   46.8664 C   0  0  0  0  0  0  0  0  0  0  0  0
  8  9  2  0
  9 10  1  0
 10 11  2  0
 11 12  1  0
 11 13  1  0
 13 14  2  0
 14  2  1  0
  2  3  2  0
  3  4  1  0
  4  5  2  0
  5  1  1  0
  1 18  1  0
 18 19  1  0
 19 20  2  0
 20 21  1  0
 21 22  2  0
 22 25  1  0
 25 26  2  0
 25 27  2  0
 25 28  1  0
 28 29  1  0
 29 30  1  0
 30 31  1  0
 31 32  1  0
 32 33  1  0
 22 23  1  0
 23 24  2  0
  5  6  1  0
  6 16  1  0
 16 17  1  0
  6  7  2  0
 13 15  1  0
 15  9  1  0
  7  2  1  0
 24 19  1  0
 33 28  1  0
M  CHG 1  12  -1
M  CHG 1  15  -1
M  END
> <UniqueID>
1

> <SMILES>
C=c1nc([O-])/c(=C/c2ccc(OCc3ccc(S(=O)(=O)N4CCOCC4)cc3)c(OC)c2)[n-]1

> <Energy>
101.7570622291261

> <Genealogy>
C=c1nc([O-])c(=Cc2ccc(OCc3ccc(S(=O)(=O)N4CCOCC4)cc3)c(OC)c2)[n-]1 (protonated)
C=c1nc([O-])/c(=C/c2ccc(OCc3ccc(S(=O)(=O)N4CCOCC4)cc3)c(OC)c2)[n-]1 (cis-trans isomerization)
C=c1nc([O-])/c(=C/c2ccc(OCc3ccc(S(=O)(=O)N4CCOCC4)cc3)c(OC)c2)[n-]1 (3D coordinates assigned)
C=c1nc([O-])/c(=C/c2ccc(OCc3ccc(S(=O)(=O)N4CCOCC4)cc3)c(OC)c2)[n-]1 (nonaromatic ring conformer: 101.7570622291261 kcal/mol)

> <smiles>
C=c1nc(O)c(=Cc2ccc(OCc3ccc(S(=O)(=O)N4CCOCC4)cc3)c(OC)c2)[nH]1

> <score_type>
oracle

> <origin>
adg

> <m_score__min__energy>
-15.27

> <m_primary>
energy

> <minimizedAffinity>
-5.82987

> <minimizedRMSD>
0.85751

> <CNNscore>
0.1720151305

> <CNNaffinity>
5.6641483307

> <CNN_VS>
0.9743192196

> <CNNaffinity_variance>
0.1743417978

$$$$
16:0


 34 37  0  0  0  0  0  0  0  0999 V2000
   59.6229   33.4376   52.3031 C   0  0  0  0  0  0  0  0  0  0  0  0
   58.7261   34.2539   52.6444 O   0  0  0  0  0  0  0  0  0  0  0  0
   59.2036   31.5498   53.8975 C   0  0  0  0  0  0  0  0  0  0  0  0
   60.0328   32.3909   53.2590 C   0  0  0  0  0  0  0  0  0  0  0  0
   56.0763   30.3848   52.7607 C   0  0  0  0  0  0  0  0  0  0  0  0
   56.8462   29.7301   51.8614 N   0  0  0  0  0  0  0  0  0  0  0  0
   58.0911   30.1063   52.2175 C   0  0  0  0  0  0  0  0  0  0  0  0
   58.0665   30.9250   53.2827 N   0  0  0  0  0  0  0  0  0  0  0  0
   56.8047   31.1290   53.6149 N   0  0  0  0  0  0  0  0  0  0  0  0
   52.5926   29.7162   54.1118 C   0  0  0  0  0  0  0  0  0  0  0  0
   51.8153   29.9866   52.9818 C   0  0  0  0  0  0  0  0  0  0  0  0
   52.4191   30.3792   51.7831 C   0  0  0  0  0  0  0  0  0  0  0  0
   51.6369   30.6287   50.6623 O   0  0  0  0  0  0  0  0  0  0  0  0
   53.8072   30.5158   51.7082 C   0  0  0  0  0  0  0  0  0  0  0  0
   54.6054   30.2639   52.8368 C   0  0  0  0  0  0  0  0  0  0  0  0
   53.9918   29.8646   54.0371 C   0  0  0  0  0  0  0  0  0  0  0  0
   50.6771   28.6465   55.3092 C   0  0  0  0  0  0  0  0  0  0  0  0
   51.9452   29.2934   55.2834 O   0  0  0  0  0  0  0  0  0  0  0  0
   60.2195   33.5092   51.0005 N   0  0  0  0  0  0  0  0  0  0  0  0
   60.1964   32.5120   49.9692 C   0  0  0  0  0  0  0  0  0  0  0  0
   60.9928   31.3537   50.0244 C   0  0  0  0  0  0  0  0  0  0  0  0
   60.9696   30.4371   48.9702 C   0  0  0  0  0  0  0  0  0  0  0  0
   60.1592   30.6666   47.8565 C   0  0  0  0  0  0  0  0  0  0  0  0
   59.3526   31.8139   47.7878 C   0  0  0  0  0  0  0  0  0  0  0  0
   59.3966   32.7404   48.8424 C   0  0  0  0  0  0  0  0  0  0  0  0
   58.5083   32.0811   46.5983 C   0  0  0  0  0  0  0  0  0  0  0  0
   57.6222   32.9772   46.6643 O   0  0  0  0  0  0  0  0  0  0  0  0
   58.6656   31.3356   45.3757 N   0  0  0  0  0  0  0  0  0  0  0  0
   58.4161   31.9773   44.0818 C   0  0  0  0  0  0  0  0  0  0  0  0
   57.1597   31.3769   43.4224 C   0  0  0  0  0  0  0  0  0  0  0  0
   56.9413   29.9399   43.7372 N   0  0  0  0  0  0  0  0  0  0  0  0
   55.8491   29.7537   44.7079 C   0  0  0  0  0  0  0  0  0  0  0  0
   58.1744   29.2372   44.1566 C   0  0  0  0  0  0  0  0  0  0  0  0
   58.7956   29.8730   45.4130 C   0  0  0  0  0  0  0  0  0  0  0  0
 17 18  1  0
 18 10  1  0
 10 11  2  0
 11 12  1  0
 12 13  1  0
 12 14  2  0
 14 15  1  0
 15  5  1  0
  5  6  1  0
  6  7  2  0
  7  8  1  0
  8  3  1  0
  3  4  2  0
  4  1  1  0
  1  2  2  0
  1 19  1  0
 19 20  1  0
 20 21  2  0
 21 22  1  0
 22 23  2  0
 23 24  1  0
 24 26  1  0
 26 27  2  0
 26 28  1  0
 28 29  1  0
 29 30  1  0
 30 31  1  0
 31 32  1  0
 31 33  1  0
 33 34  1  0
 24 25  2  0
  8  9  1  0
 15 16  2  0
 16 10  1  0
  9  5  2  0
 25 20  1  0
 34 28  1  0
M  CHG 1  13  -1
M  CHG 1  19  -1
M  END
> <UniqueID>
17

> <SMILES>
COc1cc([O-])cc(-c2ncn(C=CC(=O)[N-]c3cccc(C(=O)N4CCN(C)CC4)c3)n2)c1

> <Energy>
109.91830803835232

> <Genealogy>
COc1cc([O-])cc(-c2ncn(C=CC(=O)[N-]c3cccc(C(=O)N4CCN(C)CC4)c3)n2)c1 (protonated)
COc1cc([O-])cc(-c2ncn(C=CC(=O)[N-]c3cccc(C(=O)N4CCN(C)CC4)c3)n2)c1 (3D coordinates assigned)
COc1cc([O-])cc(-c2ncn(C=CC(=O)[N-]c3cccc(C(=O)N4CCN(C)CC4)c3)n2)c1 (nonaromatic ring conformer: 109.91830803835232 kcal/mol)

> <smiles>
COc1cc(O)cc(-c2ncn(C=CC(=O)Nc3cccc(C(=O)N4CCN(C)CC4)c3)n2)c1

> <score_type>
oracle

> <origin>
adg

> <m_score__min__energy>
-15.09

> <m_primary>
energy

> <minimizedAffinity>
-6.77732

> <minimizedRMSD>
1.67994

> <CNNscore>
0.0572447628

> <CNNaffinity>
5.6457829475

> <CNN_VS>
0.3231914937

> <CNNaffinity_variance>
0.1809793711

$$$$
17:0


 36 39  0  0  0  0  0  0  0  0999 V2000
   58.0013   30.1501   44.4879 C   0  0  0  0  0  0  0  0  0  0  0  0
   57.7664   30.9118   43.3335 C   0  0  0  0  0  0  0  0  0  0  0  0
   57.7849   32.3065   43.3932 C   0  0  0  0  0  0  0  0  0  0  0  0
   57.9986   32.9562   44.6118 C   0  0  0  0  0  0  0  0  0  0  0  0
   58.0648   34.3117   44.6345 F   0  0  0  0  0  0  0  0  0  0  0  0
   58.1806   32.2061   45.7883 C   0  0  0  0  0  0  0  0  0  0  0  0
   58.2172   30.8049   45.7115 C   0  0  0  0  0  0  0  0  0  0  0  0
   58.3410   32.8707   47.1003 C   0  0  0  0  0  0  0  0  0  0  0  0
   57.3146   33.2820   47.7051 O   0  0  0  0  0  0  0  0  0  0  0  0
   59.6449   33.1117   47.6646 N   0  0  0  0  0  0  0  0  0  0  0  0
   59.7845   33.2371   49.1232 C   0  0  0  0  0  0  0  0  0  0  0  0
   61.1574   32.7231   49.5818 C   0  0  0  0  0  0  0  0  0  0  0  0
   62.2383   33.1773   48.6889 N   0  0  0  0  0  0  0  0  0  0  0  0
   63.5130   32.5091   48.7322 C   0  0  0  0  0  0  0  0  0  0  0  0
   64.0664   32.1544   47.6551 O   0  0  0  0  0  0  0  0  0  0  0  0
   61.9226   34.0850   47.5822 C   0  0  0  0  0  0  0  0  0  0  0  0
   60.7516   33.5170   46.7803 C   0  0  0  0  0  0  0  0  0  0  0  0
   64.1791   32.2064   50.0165 C   0  0  0  0  0  0  0  0  0  0  0  0
   63.7074   31.1602   50.8265 C   0  0  0  0  0  0  0  0  0  0  0  0
   64.3368   30.8691   52.0411 C   0  0  0  0  0  0  0  0  0  0  0  0
   65.4488   31.6095   52.4480 C   0  0  0  0  0  0  0  0  0  0  0  0
   65.9379   32.6379   51.6390 C   0  0  0  0  0  0  0  0  0  0  0  0
   65.3074   32.9377   50.4269 C   0  0  0  0  0  0  0  0  0  0  0  0
   57.9642   28.6484   44.4182 C   0  0  0  0  0  0  0  0  0  0  0  0
   58.9343   28.0795   45.3504 N   0  0  0  0  0  0  0  0  0  0  0  0
   58.2832   27.4831   47.4930 O   0  0  0  0  0  0  0  0  0  0  0  0
   58.6951   27.0932   46.3668 C   0  0  0  0  0  0  0  0  0  0  0  0
   58.8216   25.6132   46.1189 C   0  0  0  0  0  0  0  0  0  0  0  0
   57.5277   24.9083   46.3918 C   0  0  0  0  0  0  0  0  0  0  0  0
   57.4328   23.6371   46.8205 N   0  0  0  0  0  0  0  0  0  0  0  0
   56.0996   23.4358   46.9110 C   0  0  0  0  0  0  0  0  0  0  0  0
   55.6017   22.3385   47.2741 O   0  0  0  0  0  0  0  0  0  0  0  0
   55.3416   24.5005   46.5745 N   0  0  0  0  0  0  0  0  0  0  0  0
   56.2622   25.4258   46.2515 C   0  0  0  0  0  0  0  0  0  0  0  0
   55.9535   26.7157   45.8340 O   0  0  0  0  0  0  0  0  0  0  0  0
   55.0584   26.9848   45.7667 H   0  0  0  0  0  0  0  0  0  0  0  0
 26 27  2  0
 27 28  1  0
 28 29  1  0
 29 30  1  0
 30 31  1  0
 31 32  2  0
 31 33  1  0
 33 34  1  0
 34 35  1  0
 27 25  1  0
 25 24  1  0
 24  1  1  0
  1  2  2  0
  2  3  1  0
  3  4  2  0
  4  5  1  0
  4  6  1  0
  6  8  1  0
  8  9  2  0
  8 10  1  0
 10 11  1  0
 11 12  1  0
 12 13  1  0
 13 14  1  0
 14 15  2  0
 14 18  1  0
 18 19  2  0
 19 20  1  0
 20 21  2  0
 21 22  1  0
 22 23  2  0
 13 16  1  0
 16 17  1  0
  6  7  2  0
 34 29  2  0
  7  1  1  0
 17 10  1  0
 23 18  1  0
 35 36  1  0
M  CHG 1  25  -1
M  CHG 1  30  -1
M  CHG 1  33  -1
M  END
> <UniqueID>
18

> <SMILES>
O=C(Cc1[n-]c(=O)[n-]c1O)[N-]Cc1ccc(F)c(C(=O)N2CCN(C(=O)c3ccccc3)CC2)c1

> <Energy>
96.89717289546685

> <Genealogy>
O=C(Cc1[n-]c(=O)[n-]c1O)[N-]Cc1ccc(F)c(C(=O)N2CCN(C(=O)c3ccccc3)CC2)c1 (protonated)
O=C(Cc1[n-]c(=O)[n-]c1O)[N-]Cc1ccc(F)c(C(=O)N2CCN(C(=O)c3ccccc3)CC2)c1 (3D coordinates assigned)
O=C(Cc1[n-]c(=O)[n-]c1O)[N-]Cc1ccc(F)c(C(=O)N2CCN(C(=O)c3ccccc3)CC2)c1 (nonaromatic ring conformer: 96.89717289546685 kcal/mol)

> <smiles>
O=C(Cc1[nH]c(=O)[nH]c1O)NCc1ccc(F)c(C(=O)N2CCN(C(=O)c3ccccc3)CC2)c1

> <score_type>
oracle

> <origin>
adg

> <m_score__min__energy>
-16.489999999999998

> <m_primary>
energy

> <minimizedAffinity>
-8.42186

> <minimizedRMSD>
1.28916

> <CNNscore>
0.1571379155

> <CNNaffinity>
6.6316661835

> <CNN_VS>
1.0420862436

> <CNNaffinity_variance>
0.0298031103

$$$$
29:0


 28 31  0  0  0  0  0  0  0  0999 V2000
   57.3356   24.6655   43.6736 C   0  0  0  0  0  0  0  0  0  0  0  0
   57.5329   25.0967   44.9294 C   0  0  0  0  0  0  0  0  0  0  0  0
   57.1913   24.4100   46.1002 C   0  0  0  0  0  0  0  0  0  0  0  0
   56.6339   23.1868   46.1978 C   0  0  0  0  0  0  0  0  0  0  0  0
   57.5999   25.2131   47.1559 C   0  0  0  0  0  0  0  0  0  0  0  0
   58.1599   26.3453   46.5989 C   0  0  0  0  0  0  0  0  0  0  0  0
   58.7561   27.4707   47.3889 C   0  0  0  0  0  0  0  0  0  0  0  0
   58.1072   26.2870   45.2474 N   0  0  0  0  0  0  0  0  0  0  0  0
   55.1812   22.9390   46.1848 C   0  0  0  0  0  0  0  0  0  0  0  0
   54.6440   21.7078   46.2392 N   0  0  0  0  0  0  0  0  0  0  0  0
   53.3188   21.9371   46.1151 C   0  0  0  0  0  0  0  0  0  0  0  0
   52.4652   21.0125   46.1348 O   0  0  0  0  0  0  0  0  0  0  0  0
   52.9805   23.2353   45.9589 N   0  0  0  0  0  0  0  0  0  0  0  0
   54.1709   23.8558   45.9920 C   0  0  0  0  0  0  0  0  0  0  0  0
   54.3286   25.2223   45.8018 O   0  0  0  0  0  0  0  0  0  0  0  0
   58.6599   27.2887   44.3241 C   0  0  0  0  0  0  0  0  0  0  0  0
   58.1773   28.6511   44.7001 C   0  0  0  0  0  0  0  0  0  0  0  0
   58.9873   29.6842   44.9960 N   0  0  0  0  0  0  0  0  0  0  0  0
   58.0912   30.6488   45.2955 C   0  0  0  0  0  0  0  0  0  0  0  0
   56.8185   30.2174   45.1912 N   0  0  0  0  0  0  0  0  0  0  0  0
   56.9138   28.9765   44.8230 O   0  0  0  0  0  0  0  0  0  0  0  0
   58.4661   32.0207   45.7020 C   0  0  0  0  0  0  0  0  0  0  0  0
   58.3021   33.0978   44.8118 C   0  0  0  0  0  0  0  0  0  0  0  0
   58.6567   34.3936   45.1978 C   0  0  0  0  0  0  0  0  0  0  0  0
   59.1787   34.6283   46.4717 C   0  0  0  0  0  0  0  0  0  0  0  0
   59.3465   33.5660   47.3645 C   0  0  0  0  0  0  0  0  0  0  0  0
   60.0025   33.8616   48.9649 Cl  0  0  0  0  0  0  0  0  0  0  0  0
   58.9930   32.2669   46.9833 C   0  0  0  0  0  0  0  0  0  0  0  0
  1  2  2  0
  2  3  1  0
  3  4  2  0
  4  9  1  0
  9 10  1  0
 10 11  1  0
 11 12  2  0
 11 13  1  0
 13 14  1  0
 14 15  1  0
  3  5  1  0
  5  6  2  0
  6  7  1  0
  6  8  1  0
  8 16  1  0
 16 17  1  0
 17 18  2  0
 18 19  1  0
 19 22  1  0
 22 23  2  0
 23 24  1  0
 24 25  2  0
 25 26  1  0
 26 27  1  0
 26 28  2  0
 19 20  2  0
 20 21  1  0
  8  2  1  0
 21 17  1  0
 14  9  2  0
 28 22  1  0
M  CHG 1  10  -1
M  CHG 1  13  -1
M  CHG 1  15  -1
M  END
> <UniqueID>
29

> <SMILES>
C=c1/c(=C/c2[n-]c(=O)[n-]c2[O-])cc(C)n1Cc1nc(-c2cccc(Cl)c2)no1

> <Energy>
141.7278252545496

> <Genealogy>
C=c1c(=Cc2[n-]c(=O)[n-]c2[O-])cc(C)n1Cc1nc(-c2cccc(Cl)c2)no1 (protonated)
C=c1/c(=C/c2[n-]c(=O)[n-]c2[O-])cc(C)n1Cc1nc(-c2cccc(Cl)c2)no1 (cis-trans isomerization)
C=c1/c(=C/c2[n-]c(=O)[n-]c2[O-])cc(C)n1Cc1nc(-c2cccc(Cl)c2)no1 (3D coordinates assigned)
C=c1/c(=C/c2[n-]c(=O)[n-]c2[O-])cc(C)n1Cc1nc(-c2cccc(Cl)c2)no1 (optimized conformer: 141.7278252545496 kcal/mol)

> <smiles>
C=c1c(=Cc2[nH]c(=O)[nH]c2O)cc(C)n1Cc1nc(-c2cccc(Cl)c2)no1

> <score_type>
oracle

> <origin>
adg

> <m_score__min__energy>
-17.690000000000001

> <m_primary>
energy

> <minimizedAffinity>
-8.84017

> <minimizedRMSD>
0.99204

> <CNNscore>
0.2023101747

> <CNNaffinity>
6.6481146812

> <CNN_VS>
1.3449811935

> <CNNaffinity_variance>
0.0331014358

$$$$
33:0


 31 34  0  0  0  0  0  0  0  0999 V2000
   59.6008   29.7665   47.0274 C   0  0  0  0  0  0  0  0  0  0  0  0
   58.9803   30.1762   48.2150 C   0  0  0  0  0  0  0  0  0  0  0  0
   59.6021   31.1072   49.0492 C   0  0  0  0  0  0  0  0  0  0  0  0
   60.8574   31.6376   48.7118 C   0  0  0  0  0  0  0  0  0  0  0  0
   61.4665   31.2434   47.5077 C   0  0  0  0  0  0  0  0  0  0  0  0
   60.8419   30.3113   46.6737 C   0  0  0  0  0  0  0  0  0  0  0  0
   61.5168   32.6307   49.5876 C   0  0  0  0  0  0  0  0  0  0  0  0
   61.4460   33.8547   49.2904 O   0  0  0  0  0  0  0  0  0  0  0  0
   62.2512   32.2260   50.7594 N   0  0  0  0  0  0  0  0  0  0  0  0
   62.3126   33.1042   51.9312 C   0  0  0  0  0  0  0  0  0  0  0  0
   63.7431   33.6243   52.1448 C   0  0  0  0  0  0  0  0  0  0  0  0
   64.8574   32.5807   51.7891 C   0  0  0  0  0  0  0  0  0  0  0  0
   65.9564   32.6107   52.8720 C   0  0  0  0  0  0  0  0  0  0  0  0
   65.5082   32.9475   50.4347 C   0  0  0  0  0  0  0  0  0  0  0  0
   64.2730   31.1428   51.7202 C   0  0  0  0  0  0  0  0  0  0  0  0
   63.1137   31.0353   50.7146 C   0  0  0  0  0  0  0  0  0  0  0  0
   59.7474   26.8044   47.1417 C   0  0  0  0  0  0  0  0  0  0  0  0
   58.9941   27.4630   46.2476 C   0  0  0  0  0  0  0  0  0  0  0  0
   58.2449   26.9107   45.1959 C   0  0  0  0  0  0  0  0  0  0  0  0
   57.9277   25.6325   44.9081 C   0  0  0  0  0  0  0  0  0  0  0  0
   57.8084   27.9792   44.4290 C   0  0  0  0  0  0  0  0  0  0  0  0
   58.2410   29.1272   45.0586 C   0  0  0  0  0  0  0  0  0  0  0  0
   57.9769   30.5208   44.5764 C   0  0  0  0  0  0  0  0  0  0  0  0
   58.9511   28.8173   46.1648 N   0  0  0  0  0  0  0  0  0  0  0  0
   57.2303   24.6976   45.8053 C   0  0  0  0  0  0  0  0  0  0  0  0
   57.7880   23.6027   46.3547 N   0  0  0  0  0  0  0  0  0  0  0  0
   56.8306   23.1548   47.1966 C   0  0  0  0  0  0  0  0  0  0  0  0
   56.9717   22.1155   47.8930 O   0  0  0  0  0  0  0  0  0  0  0  0
   55.7119   23.9109   47.2358 N   0  0  0  0  0  0  0  0  0  0  0  0
   55.9903   24.8903   46.3614 C   0  0  0  0  0  0  0  0  0  0  0  0
   55.1316   25.9471   46.0849 O   0  0  0  0  0  0  0  0  0  0  0  0
 17 18  2  0
 18 19  1  0
 19 20  2  0
 20 25  1  0
 25 26  1  0
 26 27  1  0
 27 28  2  0
 27 29  1  0
 29 30  1  0
 30 31  1  0
 19 21  1  0
 21 22  2  0
 22 23  1  0
 22 24  1  0
 24  1  1  0
  1  2  2  0
  2  3  1  0
  3  4  2  0
  4  7  1  0
  7  8  2  0
  7  9  1  0
  9 10  1  0
 10 11  1  0
 11 12  1  0
 12 13  1  0
 12 14  1  0
 12 15  1  0
 15 16  1  0
  4  5  1  0
  5  6  2  0
 24 18  1  0
  6  1  1  0
 30 25  2  0
 16  9  1  0
M  CHG 1  26  -1
M  CHG 1  29  -1
M  CHG 1  31  -1
M  END
> <UniqueID>
33

> <SMILES>
C=c1c(=Cc2[n-]c(=O)[n-]c2[O-])cc(C)n1-c1ccc(C(=O)N2CCC(C)(C)CC2)cc1

> <Energy>
140.82285297373602

> <Genealogy>
C=c1c(=Cc2[n-]c(=O)[n-]c2[O-])cc(C)n1-c1ccc(C(=O)N2CCC(C)(C)CC2)cc1 (protonated)
C=c1c(=Cc2[n-]c(=O)[n-]c2[O-])cc(C)n1-c1ccc(C(=O)N2CCC(C)(C)CC2)cc1 (3D coordinates assigned)
C=c1c(=Cc2[n-]c(=O)[n-]c2[O-])cc(C)n1-c1ccc(C(=O)N2CCC(C)(C)CC2)cc1 (nonaromatic ring conformer: 140.82285297373602 kcal/mol)

> <smiles>
C=c1c(=Cc2[nH]c(=O)[nH]c2O)cc(C)n1-c1ccc(C(=O)N2CCC(C)(C)CC2)cc1

> <score_type>
oracle

> <origin>
adg

> <m_score__min__energy>
-16.050000000000001

> <m_primary>
energy

> <minimizedAffinity>
-9.12560

> <minimizedRMSD>
1.20041

> <CNNscore>
0.1743060797

> <CNNaffinity>
6.5211501122

> <CNN_VS>
1.1366760731

> <CNNaffinity_variance>
0.0356006660

$$$$
45:0


 32 35  0  0  0  0  0  0  0  0999 V2000
   58.4453   27.9199   44.0634 C   0  0  0  0  0  0  0  0  0  0  0  0
   58.5335   27.6399   45.3734 C   0  0  0  0  0  0  0  0  0  0  0  0
   58.5719   26.3691   45.9741 C   0  0  0  0  0  0  0  0  0  0  0  0
   58.3555   25.1415   45.4613 C   0  0  0  0  0  0  0  0  0  0  0  0
   58.8756   26.5804   47.3083 C   0  0  0  0  0  0  0  0  0  0  0  0
   58.9482   27.9452   47.4928 C   0  0  0  0  0  0  0  0  0  0  0  0
   59.2399   28.6127   48.8019 C   0  0  0  0  0  0  0  0  0  0  0  0
   58.7405   28.5885   46.3231 N   0  0  0  0  0  0  0  0  0  0  0  0
   57.0721   24.4123   45.4890 C   0  0  0  0  0  0  0  0  0  0  0  0
   55.8916   25.0752   45.8517 C   0  0  0  0  0  0  0  0  0  0  0  0
   55.9185   26.4109   46.2371 O   0  0  0  0  0  0  0  0  0  0  0  0
   54.7077   24.4093   45.8375 N   0  0  0  0  0  0  0  0  0  0  0  0
   54.6400   23.1063   45.4607 C   0  0  0  0  0  0  0  0  0  0  0  0
   53.5338   22.5079   45.4625 O   0  0  0  0  0  0  0  0  0  0  0  0
   55.7654   22.4514   45.0766 N   0  0  0  0  0  0  0  0  0  0  0  0
   56.9717   23.0719   45.0707 C   0  0  0  0  0  0  0  0  0  0  0  0
   57.9917   22.4410   44.6812 O   0  0  0  0  0  0  0  0  0  0  0  0
   58.7468   30.0154   46.1367 C   0  0  0  0  0  0  0  0  0  0  0  0
   57.7147   30.6372   45.4177 C   0  0  0  0  0  0  0  0  0  0  0  0
   57.7240   32.0192   45.2287 C   0  0  0  0  0  0  0  0  0  0  0  0
   58.7538   32.7954   45.7679 C   0  0  0  0  0  0  0  0  0  0  0  0
   59.7836   32.1903   46.5069 C   0  0  0  0  0  0  0  0  0  0  0  0
   59.7874   30.7934   46.6677 C   0  0  0  0  0  0  0  0  0  0  0  0
   60.8251   30.1792   47.2948 F   0  0  0  0  0  0  0  0  0  0  0  0
   60.8529   33.0236   47.0925 C   0  0  0  0  0  0  0  0  0  0  0  0
   61.5126   33.7880   46.3374 O   0  0  0  0  0  0  0  0  0  0  0  0
   61.1409   32.9967   48.5047 N   0  0  0  0  0  0  0  0  0  0  0  0
   60.0915   32.7081   49.4889 C   0  0  0  0  0  0  0  0  0  0  0  0
   60.3287   33.5394   50.7531 C   0  0  0  0  0  0  0  0  0  0  0  0
   61.6503   33.3685   51.2281 O   0  0  0  0  0  0  0  0  0  0  0  0
   62.5683   33.8896   50.2862 C   0  0  0  0  0  0  0  0  0  0  0  0
   62.5235   33.0885   48.9816 C   0  0  0  0  0  0  0  0  0  0  0  0
  1  2  2  0
  2  3  1  0
  3  4  2  0
  4  9  1  0
  9 10  2  0
 10 11  1  0
 10 12  1  0
 12 13  1  0
 13 14  2  0
 13 15  1  0
 15 16  1  0
 16 17  2  0
  3  5  1  0
  5  6  2  0
  6  7  1  0
  6  8  1  0
  8 18  1  0
 18 19  2  0
 19 20  1  0
 20 21  2  0
 21 22  1  0
 22 25  1  0
 25 26  2  0
 25 27  1  0
 27 28  1  0
 28 29  1  0
 29 30  1  0
 30 31  1  0
 31 32  1  0
 22 23  2  0
 23 24  1  0
  8  2  1  0
 23 18  1  0
 16  9  1  0
 32 27  1  0
M  CHG 1  11  -1
M  CHG 1  12  -1
M  CHG 1  15  -1
M  END
> <UniqueID>
44

> <SMILES>
C=c1/c(=C\c2c([O-])[n-]c(=O)[n-]c2=O)cc(C)n1-c1cccc(C(=O)N2CCOCC2)c1F

> <Energy>
109.79905431470021

> <Genealogy>
C=c1c(=Cc2c([O-])[n-]c(=O)[n-]c2=O)cc(C)n1-c1cccc(C(=O)N2CCOCC2)c1F (protonated)
C=c1/c(=C\c2c([O-])[n-]c(=O)[n-]c2=O)cc(C)n1-c1cccc(C(=O)N2CCOCC2)c1F (cis-trans isomerization)
C=c1/c(=C\c2c([O-])[n-]c(=O)[n-]c2=O)cc(C)n1-c1cccc(C(=O)N2CCOCC2)c1F (3D coordinates assigned)
C=c1/c(=C\c2c([O-])[n-]c(=O)[n-]c2=O)cc(C)n1-c1cccc(C(=O)N2CCOCC2)c1F (nonaromatic ring conformer: 109.79905431470021 kcal/mol)

> <smiles>
C=c1c(=Cc2c(O)[nH]c(=O)[nH]c2=O)cc(C)n1-c1cccc(C(=O)N2CCOCC2)c1F

> <score_type>
oracle

> <origin>
adg

> <m_score__min__energy>
-16.489999999999998

> <m_primary>
energy

> <minimizedAffinity>
-9.82530

> <minimizedRMSD>
0.88648

> <CNNscore>
0.1783704162

> <CNNaffinity>
6.6480870247

> <CNN_VS>
1.1858220100

> <CNNaffinity_variance>
0.1458090693

$$$$
57:0


 28 30  0  0  0  0  0  0  0  0999 V2000
   61.1353   30.4933   48.8614 C   0  0  0  0  0  0  0  0  0  0  0  0
   59.8111   30.2836   49.2751 C   0  0  0  0  0  0  0  0  0  0  0  0
   58.7985   30.0874   48.3348 C   0  0  0  0  0  0  0  0  0  0  0  0
   59.0941   30.0660   46.9598 C   0  0  0  0  0  0  0  0  0  0  0  0
   60.4165   30.3124   46.5473 C   0  0  0  0  0  0  0  0  0  0  0  0
   61.4238   30.5426   47.4893 C   0  0  0  0  0  0  0  0  0  0  0  0
   58.0258   29.8581   45.9458 C   0  0  0  0  0  0  0  0  0  0  0  0
   57.5920   30.8497   45.3003 O   0  0  0  0  0  0  0  0  0  0  0  0
   57.4080   28.5811   45.7213 N   0  0  0  0  0  0  0  0  0  0  0  0
   57.9435   27.4114   45.9264 C   0  0  0  0  0  0  0  0  0  0  0  0
   59.2979   27.2470   45.9283 N   0  0  0  0  0  0  0  0  0  0  0  0
   59.8755   26.0343   46.1360 C   0  0  0  0  0  0  0  0  0  0  0  0
   59.0791   24.9069   46.3458 C   0  0  0  0  0  0  0  0  0  0  0  0
   57.6907   25.0419   46.3363 C   0  0  0  0  0  0  0  0  0  0  0  0
   57.1132   26.2962   46.1250 C   0  0  0  0  0  0  0  0  0  0  0  0
   55.7297   26.4296   46.1149 O   0  0  0  0  0  0  0  0  0  0  0  0
   62.2236   30.7087   49.8856 C   0  0  0  0  0  0  0  0  0  0  0  0
   62.0935   31.9998   50.5663 N   0  0  0  0  0  0  0  0  0  0  0  0
   62.6337   33.3215   49.5672 S   0  0  0  0  0  0  0  0  0  0  0  0
   62.8793   34.5291   50.4273 O   0  0  0  0  0  0  0  0  0  0  0  0
   63.9251   32.9624   48.8814 O   0  0  0  0  0  0  0  0  0  0  0  0
   59.5795   33.8128   50.1764 C   0  0  0  0  0  0  0  0  0  0  0  0
   60.0289   33.8948   48.7411 C   0  0  0  0  0  0  0  0  0  0  0  0
   59.0690   34.1359   47.7429 C   0  0  0  0  0  0  0  0  0  0  0  0
   59.4414   34.2022   46.4005 C   0  0  0  0  0  0  0  0  0  0  0  0
   60.7747   34.0268   46.0359 C   0  0  0  0  0  0  0  0  0  0  0  0
   61.7409   33.7728   47.0112 C   0  0  0  0  0  0  0  0  0  0  0  0
   61.3841   33.7021   48.3677 C   0  0  0  0  0  0  0  0  0  0  0  0
 22 23  1  0
 23 24  2  0
 24 25  1  0
 25 26  2  0
 26 27  1  0
 27 28  2  0
 28 19  1  0
 19 20  2  0
 19 21  2  0
 19 18  1  0
 18 17  1  0
 17  1  1  0
  1  2  2  0
  2  3  1  0
  3  4  2  0
  4  7  1  0
  7  8  2  0
  7  9  1  0
  9 10  2  0
 10 11  1  0
 11 12  1  0
 12 13  2  0
 13 14  1  0
 14 15  2  0
 15 16  1  0
  4  5  1  0
  5  6  2  0
 28 23  1  0
  6  1  1  0
 15 10  1  0
M  CHG 1  11  -1
M  CHG 1  16  -1
M  CHG 1  18  -1
M  END
> <UniqueID>
56

> <SMILES>
Cc1ccccc1S(=O)(=O)[N-]Cc1ccc(C(=O)N=c2[n-]cccc2[O-])cc1

> <Energy>
53.02615792777448

> <Genealogy>
Cc1ccccc1S(=O)(=O)[N-]Cc1ccc(C(=O)N=c2[n-]cccc2[O-])cc1 (protonated)
Cc1ccccc1S(=O)(=O)[N-]Cc1ccc(C(=O)N=c2[n-]cccc2[O-])cc1 (3D coordinates assigned)
Cc1ccccc1S(=O)(=O)[N-]Cc1ccc(C(=O)N=c2[n-]cccc2[O-])cc1 (optimized conformer: 53.02615792777448 kcal/mol)

> <smiles>
Cc1ccccc1S(=O)(=O)NCc1ccc(C(=O)N=c2[nH]cccc2O)cc1

> <score_type>
oracle

> <origin>
adg

> <m_score__min__energy>
-15.06

> <m_primary>
energy

> <minimizedAffinity>
-6.85165

> <minimizedRMSD>
1.47022

> <CNNscore>
0.6360352635

> <CNNaffinity>
6.6356215477

> <CNN_VS>
4.2204895020

> <CNNaffinity_variance>
0.1513252407

$$$$
61:0


 28 30  0  0  0  0  0  0  0  0999 V2000
   54.4587   27.8278   53.8496 C   0  0  0  0  0  0  0  0  0  0  0  0
   55.3143   28.8052   53.5212 C   0  0  0  0  0  0  0  0  0  0  0  0
   56.6403   28.5179   53.6401 N   0  0  0  0  0  0  0  0  0  0  0  0
   57.6272   29.3246   53.1776 C   0  0  0  0  0  0  0  0  0  0  0  0
   59.0536   28.8829   53.3406 C   0  0  0  0  0  0  0  0  0  0  0  0
   57.2877   30.5089   52.5023 C   0  0  0  0  0  0  0  0  0  0  0  0
   55.9378   30.8417   52.3603 C   0  0  0  0  0  0  0  0  0  0  0  0
   54.9232   30.0516   52.9380 C   0  0  0  0  0  0  0  0  0  0  0  0
   53.6628   30.5535   52.9124 C   0  0  0  0  0  0  0  0  0  0  0  0
   58.3143   31.4184   51.9593 C   0  0  0  0  0  0  0  0  0  0  0  0
   58.8057   32.3008   52.7131 O   0  0  0  0  0  0  0  0  0  0  0  0
   58.7625   31.3090   50.5962 N   0  0  0  0  0  0  0  0  0  0  0  0
   58.7579   30.0098   49.9048 C   0  0  0  0  0  0  0  0  0  0  0  0
   60.0299   29.8612   49.0644 C   0  0  0  0  0  0  0  0  0  0  0  0
   60.2335   31.0339   48.0622 C   0  0  0  0  0  0  0  0  0  0  0  0
   59.3711   32.2729   48.4000 C   0  0  0  0  0  0  0  0  0  0  0  0
   59.2747   32.5037   49.9116 C   0  0  0  0  0  0  0  0  0  0  0  0
   59.9680   30.5872   46.6151 C   0  0  0  0  0  0  0  0  0  0  0  0
   58.5762   30.4608   46.4061 O   0  0  0  0  0  0  0  0  0  0  0  0
   58.2461   30.7390   45.0578 C   0  0  0  0  0  0  0  0  0  0  0  0
   57.9639   32.2268   44.8822 C   0  0  0  0  0  0  0  0  0  0  0  0
   52.7479   30.5637   51.7567 C   0  0  0  0  0  0  0  0  0  0  0  0
   52.8767   29.7369   50.7043 N   0  0  0  0  0  0  0  0  0  0  0  0
   51.9173   30.1615   49.8538 C   0  0  0  0  0  0  0  0  0  0  0  0
   51.7098   29.6159   48.7382 O   0  0  0  0  0  0  0  0  0  0  0  0
   51.2038   31.2235   50.2856 N   0  0  0  0  0  0  0  0  0  0  0  0
   51.7509   31.4751   51.4868 C   0  0  0  0  0  0  0  0  0  0  0  0
   51.3684   32.5333   52.3004 O   0  0  0  0  0  0  0  0  0  0  0  0
  1  2  2  0
  2  3  1  0
  3  4  2  0
  4  5  1  0
  4  6  1  0
  6 10  1  0
 10 11  2  0
 10 12  1  0
 12 13  1  0
 13 14  1  0
 14 15  1  0
 15 18  1  0
 18 19  1  0
 19 20  1  0
 20 21  1  0
 15 16  1  0
 16 17  1  0
  6  7  2  0
  7  8  1  0
  8  9  2  0
  9 22  1  0
 22 23  1  0
 23 24  1  0
 24 25  2  0
 24 26  1  0
 26 27  1  0
 27 28  1  0
  8  2  1  0
 27 22  2  0
 17 12  1  0
M  CHG 1  23  -1
M  CHG 1  26  -1
M  CHG 1  28  -1
M  END
> <UniqueID>
59

> <SMILES>
C=c1nc(C)c(C(=O)N2CCC(COCC)CC2)cc1=Cc1[n-]c(=O)[n-]c1[O-]

> <Energy>
108.03000423420512

> <Genealogy>
C=c1nc(C)c(C(=O)N2CCC(COCC)CC2)cc1=Cc1[n-]c(=O)[n-]c1[O-] (protonated)
C=c1nc(C)c(C(=O)N2CCC(COCC)CC2)cc1=Cc1[n-]c(=O)[n-]c1[O-] (3D coordinates assigned)
C=c1nc(C)c(C(=O)N2CCC(COCC)CC2)cc1=Cc1[n-]c(=O)[n-]c1[O-] (nonaromatic ring conformer: 108.03000423420512 kcal/mol)

> <smiles>
C=c1nc(C)c(C(=O)N2CCC(COCC)CC2)cc1=Cc1[nH]c(=O)[nH]c1O

> <score_type>
oracle

> <origin>
adg

> <m_score__min__energy>
-17.100000000000001

> <m_primary>
energy

> <minimizedAffinity>
-6.32021

> <minimizedRMSD>
0.78004

> <CNNscore>
0.0611032136

> <CNNaffinity>
5.4529380798

> <CNN_VS>
0.3331920505

> <CNNaffinity_variance>
0.2977202237

$$$$
65:0


 31 34  0  0  0  0  0  0  0  0999 V2000
   59.9027   28.9336   44.7754 C   0  0  0  0  0  0  0  0  0  0  0  0
   59.7504   28.4788   46.0303 C   0  0  0  0  0  0  0  0  0  0  0  0
   58.9549   27.3995   46.4240 C   0  0  0  0  0  0  0  0  0  0  0  0
   58.2258   26.5890   45.6322 C   0  0  0  0  0  0  0  0  0  0  0  0
   59.1083   27.2858   47.7968 C   0  0  0  0  0  0  0  0  0  0  0  0
   59.9694   28.2909   48.1884 C   0  0  0  0  0  0  0  0  0  0  0  0
   60.3574   29.0239   47.1165 N   0  0  0  0  0  0  0  0  0  0  0  0
   60.3791   28.5253   49.5896 C   0  0  0  0  0  0  0  0  0  0  0  0
   61.1364   27.6901   50.1539 O   0  0  0  0  0  0  0  0  0  0  0  0
   59.9416   29.6950   50.3090 N   0  0  0  0  0  0  0  0  0  0  0  0
   60.7291   30.2158   51.4358 C   0  0  0  0  0  0  0  0  0  0  0  0
   59.8999   30.1887   52.7300 C   0  0  0  0  0  0  0  0  0  0  0  0
   58.4127   30.5489   52.5140 C   0  0  0  0  0  0  0  0  0  0  0  0
   58.1539   31.2089   51.1537 C   0  0  0  0  0  0  0  0  0  0  0  0
   58.6265   30.2900   50.0173 C   0  0  0  0  0  0  0  0  0  0  0  0
   57.5013   25.3987   46.1155 C   0  0  0  0  0  0  0  0  0  0  0  0
   58.0893   24.2051   46.3088 N   0  0  0  0  0  0  0  0  0  0  0  0
   57.0623   23.4031   46.6638 C   0  0  0  0  0  0  0  0  0  0  0  0
   57.2192   22.1861   46.9443 O   0  0  0  0  0  0  0  0  0  0  0  0
   55.8543   24.0031   46.6820 N   0  0  0  0  0  0  0  0  0  0  0  0
   56.1452   25.2626   46.3216 C   0  0  0  0  0  0  0  0  0  0  0  0
   55.1855   26.2511   46.1393 O   0  0  0  0  0  0  0  0  0  0  0  0
   61.2968   30.1581   47.1226 C   0  0  0  0  0  0  0  0  0  0  0  0
   60.5877   31.4520   47.4420 C   0  0  0  0  0  0  0  0  0  0  0  0
   61.1661   32.3922   48.3106 C   0  0  0  0  0  0  0  0  0  0  0  0
   60.5143   33.5955   48.5833 C   0  0  0  0  0  0  0  0  0  0  0  0
   59.2843   33.8803   47.9839 C   0  0  0  0  0  0  0  0  0  0  0  0
   58.6980   32.9562   47.0986 C   0  0  0  0  0  0  0  0  0  0  0  0
   59.3585   31.7512   46.8314 C   0  0  0  0  0  0  0  0  0  0  0  0
   57.4681   33.1965   46.4683 O   0  0  0  0  0  0  0  0  0  0  0  0
   57.3255   33.7762   45.1758 C   0  0  0  0  0  0  0  0  0  0  0  0
  1  2  2  0
  2  3  1  0
  3  4  2  0
  4 16  1  0
 16 17  1  0
 17 18  1  0
 18 19  2  0
 18 20  1  0
 20 21  1  0
 21 22  1  0
  3  5  1  0
  5  6  2  0
  6  8  1  0
  8  9  2  0
  8 10  1  0
 10 11  1  0
 11 12  1  0
 12 13  1  0
 13 14  1  0
 14 15  1  0
  6  7  1  0
  7 23  1  0
 23 24  1  0
 24 25  2  0
 25 26  1  0
 26 27  2  0
 27 28  1  0
 28 30  1  0
 30 31  1  0
 28 29  2  0
  7  2  1  0
 29 24  1  0
 21 16  2  0
 15 10  1  0
M  CHG 1  17  -1
M  CHG 1  20  -1
M  CHG 1  22  -1
M  END
> <UniqueID>
63

> <SMILES>
C=c1/c(=C/c2[n-]c(=O)[n-]c2[O-])cc(C(=O)N2CCCCC2)n1Cc1cccc(OC)c1

> <Energy>
128.00016374918528

> <Genealogy>
C=c1c(=Cc2[n-]c(=O)[n-]c2[O-])cc(C(=O)N2CCCCC2)n1Cc1cccc(OC)c1 (protonated)
C=c1/c(=C/c2[n-]c(=O)[n-]c2[O-])cc(C(=O)N2CCCCC2)n1Cc1cccc(OC)c1 (cis-trans isomerization)
C=c1/c(=C/c2[n-]c(=O)[n-]c2[O-])cc(C(=O)N2CCCCC2)n1Cc1cccc(OC)c1 (3D coordinates assigned)
C=c1/c(=C/c2[n-]c(=O)[n-]c2[O-])cc(C(=O)N2CCCCC2)n1Cc1cccc(OC)c1 (nonaromatic ring conformer: 128.00016374918528 kcal/mol)

> <smiles>
C=c1c(=Cc2[nH]c(=O)[nH]c2O)cc(C(=O)N2CCCCC2)n1Cc1cccc(OC)c1

> <score_type>
oracle

> <origin>
adg

> <m_score__min__energy>
-16.550000000000001

> <m_primary>
energy

> <minimizedAffinity>
-7.63385

> <minimizedRMSD>
0.82061

> <CNNscore>
0.3216385841

> <CNNaffinity>
6.6048388481

> <CNN_VS>
2.1243710518

> <CNNaffinity_variance>
0.1583202332

$$$$
71:0


 32 35  0  0  0  0  0  0  0  0999 V2000
   53.8235   27.9260   53.5308 C   0  0  0  0  0  0  0  0  0  0  0  0
   54.8219   28.7630   53.2087 C   0  0  0  0  0  0  0  0  0  0  0  0
   54.7233   29.9700   52.4960 C   0  0  0  0  0  0  0  0  0  0  0  0
   53.6928   30.5252   51.8287 C   0  0  0  0  0  0  0  0  0  0  0  0
   55.9716   30.5636   52.5683 C   0  0  0  0  0  0  0  0  0  0  0  0
   56.7935   29.6894   53.2449 C   0  0  0  0  0  0  0  0  0  0  0  0
   56.0986   28.5978   53.6458 N   0  0  0  0  0  0  0  0  0  0  0  0
   56.5847   27.5226   54.5180 C   0  0  0  0  0  0  0  0  0  0  0  0
   52.4341   30.9921   52.4245 C   0  0  0  0  0  0  0  0  0  0  0  0
   52.1337   30.8508   53.7274 N   0  0  0  0  0  0  0  0  0  0  0  0
   50.9583   31.5035   53.8511 C   0  0  0  0  0  0  0  0  0  0  0  0
   50.3392   31.5820   54.9427 O   0  0  0  0  0  0  0  0  0  0  0  0
   50.5063   32.0765   52.7153 N   0  0  0  0  0  0  0  0  0  0  0  0
   51.4572   31.7600   51.8217 C   0  0  0  0  0  0  0  0  0  0  0  0
   51.4351   32.1880   50.4961 O   0  0  0  0  0  0  0  0  0  0  0  0
   50.7215   32.7088   50.1838 H   0  0  0  0  0  0  0  0  0  0  0  0
   58.2277   29.9323   53.4885 C   0  0  0  0  0  0  0  0  0  0  0  0
   58.7382   29.5279   54.5672 O   0  0  0  0  0  0  0  0  0  0  0  0
   59.0343   30.6529   52.5389 N   0  0  0  0  0  0  0  0  0  0  0  0
   58.4453   31.7503   51.7603 C   0  0  0  0  0  0  0  0  0  0  0  0
   59.5258   32.4974   50.9651 C   0  0  0  0  0  0  0  0  0  0  0  0
   60.3945   31.5683   50.2095 N   0  0  0  0  0  0  0  0  0  0  0  0
   60.9579   30.4547   51.0253 C   0  0  0  0  0  0  0  0  0  0  0  0
   60.4822   30.4380   52.4862 C   0  0  0  0  0  0  0  0  0  0  0  0
   59.7333   31.0835   48.9784 C   0  0  0  0  0  0  0  0  0  0  0  0
   59.6548   32.1831   47.9513 C   0  0  0  0  0  0  0  0  0  0  0  0
   58.4036   32.6441   47.5109 C   0  0  0  0  0  0  0  0  0  0  0  0
   58.3227   33.6766   46.5715 C   0  0  0  0  0  0  0  0  0  0  0  0
   59.4905   34.2574   46.0678 C   0  0  0  0  0  0  0  0  0  0  0  0
   59.4091   35.2843   45.1358 O   0  0  0  0  0  0  0  0  0  0  0  0
   60.7401   33.8056   46.5024 C   0  0  0  0  0  0  0  0  0  0  0  0
   60.8237   32.7715   47.4412 C   0  0  0  0  0  0  0  0  0  0  0  0
  1  2  2  0
  2  3  1  0
  3  4  2  0
  4  9  1  0
  9 10  1  0
 10 11  1  0
 11 12  2  0
 11 13  1  0
 13 14  1  0
 14 15  1  0
  3  5  1  0
  5  6  2  0
  6 17  1  0
 17 18  2  0
 17 19  1  0
 19 20  1  0
 20 21  1  0
 21 22  1  0
 22 25  1  0
 25 26  1  0
 26 27  2  0
 27 28  1  0
 28 29  2  0
 29 30  1  0
 29 31  1  0
 31 32  2  0
 22 23  1  0
 23 24  1  0
  6  7  1  0
  7  8  1  0
  7  2  1  0
 14  9  2  0
 24 19  1  0
 32 26  1  0
 15 16  1  0
M  CHG 1  10  -1
M  CHG 1  13  -1
M  CHG 1  30  -1
M  END
> <UniqueID>
68

> <SMILES>
C=c1c(=Cc2[n-]c(=O)[n-]c2O)cc(C(=O)N2CCN(Cc3ccc([O-])cc3)CC2)n1C

> <Energy>
138.1257518853896

> <Genealogy>
C=c1c(=Cc2[n-]c(=O)[n-]c2O)cc(C(=O)N2CCN(Cc3ccc([O-])cc3)CC2)n1C (protonated)
C=c1c(=Cc2[n-]c(=O)[n-]c2O)cc(C(=O)N2CCN(Cc3ccc([O-])cc3)CC2)n1C (3D coordinates assigned)
C=c1c(=Cc2[n-]c(=O)[n-]c2O)cc(C(=O)N2CCN(Cc3ccc([O-])cc3)CC2)n1C (nonaromatic ring conformer: 138.1257518853896 kcal/mol)

> <smiles>
C=c1c(=Cc2[nH]c(=O)[nH]c2O)cc(C(=O)N2CCN(Cc3ccc(O)cc3)CC2)n1C

> <score_type>
oracle

> <origin>
adg

> <m_score__min__energy>
-17.18

> <m_primary>
energy

> <minimizedAffinity>
-7.94375

> <minimizedRMSD>
0.71490

> <CNNscore>
0.2429230213

> <CNNaffinity>
5.7047495842

> <CNN_VS>
1.3858150244

> <CNNaffinity_variance>
0.2074131221

$$$$
77:0


 36 40  0  0  0  0  0  0  0  0999 V2000
   60.3187   29.9466   48.0457 C   0  0  0  0  0  0  0  0  0  0  0  0
   61.2681   30.5415   48.8943 C   0  0  0  0  0  0  0  0  0  0  0  0
   61.0699   30.5550   50.2786 C   0  0  0  0  0  0  0  0  0  0  0  0
   59.9096   29.9933   50.8311 C   0  0  0  0  0  0  0  0  0  0  0  0
   58.9926   29.3466   49.9898 C   0  0  0  0  0  0  0  0  0  0  0  0
   59.1965   29.3199   48.6085 C   0  0  0  0  0  0  0  0  0  0  0  0
   59.6322   30.0574   52.2817 C   0  0  0  0  0  0  0  0  0  0  0  0
   60.3043   29.3098   53.0466 O   0  0  0  0  0  0  0  0  0  0  0  0
   58.5976   30.9039   52.8514 N   0  0  0  0  0  0  0  0  0  0  0  0
   57.6688   31.4201   51.8097 C   0  0  0  0  0  0  0  0  0  0  0  0
   56.1973   31.1878   52.1480 C   0  0  0  0  0  0  0  0  0  0  0  0
   56.0056   29.7728   52.4931 N   0  0  0  0  0  0  0  0  0  0  0  0
   56.7442   29.3832   53.7218 C   0  0  0  0  0  0  0  0  0  0  0  0
   57.9432   30.3055   54.0440 C   0  0  0  0  0  0  0  0  0  0  0  0
   58.5894   30.0838   52.3068 H   0  0  0  0  0  0  0  0  0  0  0  0
   54.5681   29.3841   52.4626 C   0  0  0  0  0  0  0  0  0  0  0  0
   53.9935   29.1414   53.8666 C   0  0  0  0  0  0  0  0  0  0  0  0
   52.9801   30.2477   54.1077 C   0  0  0  0  0  0  0  0  0  0  0  0
   52.4836   30.6446   52.7269 C   0  0  0  0  0  0  0  0  0  0  0  0
   53.6502   30.4165   51.7780 C   0  0  0  0  0  0  0  0  0  0  0  0
   60.5107   29.9696   46.5495 C   0  0  0  0  0  0  0  0  0  0  0  0
   60.4733   26.9491   46.2615 C   0  0  0  0  0  0  0  0  0  0  0  0
   59.5011   27.7511   45.7905 C   0  0  0  0  0  0  0  0  0  0  0  0
   58.3235   27.3293   45.1566 C   0  0  0  0  0  0  0  0  0  0  0  0
   57.9456   26.0542   44.9105 C   0  0  0  0  0  0  0  0  0  0  0  0
   57.6137   28.4872   44.8605 C   0  0  0  0  0  0  0  0  0  0  0  0
   58.3684   29.5461   45.3159 C   0  0  0  0  0  0  0  0  0  0  0  0
   57.9379   30.9814   45.2455 C   0  0  0  0  0  0  0  0  0  0  0  0
   59.5171   29.1082   45.8817 N   0  0  0  0  0  0  0  0  0  0  0  0
   57.3218   25.1250   45.8787 C   0  0  0  0  0  0  0  0  0  0  0  0
   57.9000   24.0394   46.4264 N   0  0  0  0  0  0  0  0  0  0  0  0
   56.9379   23.5344   47.2265 C   0  0  0  0  0  0  0  0  0  0  0  0
   57.1050   22.4962   47.9168 O   0  0  0  0  0  0  0  0  0  0  0  0
   55.7813   24.2302   47.2271 N   0  0  0  0  0  0  0  0  0  0  0  0
   56.0414   25.2323   46.3710 C   0  0  0  0  0  0  0  0  0  0  0  0
   55.1260   26.2261   46.0468 O   0  0  0  0  0  0  0  0  0  0  0  0
 22 23  2  0
 23 24  1  0
 24 25  2  0
 25 30  1  0
 30 31  1  0
 31 32  1  0
 32 33  2  0
 32 34  1  0
 34 35  1  0
 35 36  1  0
 24 26  1  0
 26 27  2  0
 27 28  1  0
 27 29  1  0
 29 21  1  0
 21  1  1  0
  1  2  2  0
  2  3  1  0
  3  4  2  0
  4  7  1  0
  7  8  2  0
  7  9  1  0
  9 10  1  0
 10 11  1  0
 11 12  1  0
 12 16  1  0
 16 17  1  0
 17 18  1  0
 18 19  1  0
 19 20  1  0
 12 13  1  0
 13 14  1  0
  4  5  1  0
  5  6  2  0
 29 23  1  0
  6  1  1  0
 35 30  2  0
 14  9  1  0
 20 16  1  0
  9 15  1  0
M  CHG 1   9   1
M  CHG 1  31  -1
M  CHG 1  34  -1
M  CHG 1  36  -1
M  END
> <UniqueID>
74

> <SMILES>
C=c1/c(=C/c2[n-]c(=O)[n-]c2[O-])cc(C)n1Cc1ccc(C(=O)[NH+]2CCN(C3CCCC3)CC2)cc1

> <Energy>
158.15621915936808

> <Genealogy>
C=c1c(=Cc2[n-]c(=O)[n-]c2[O-])cc(C)n1Cc1ccc(C(=O)[NH+]2CCN(C3CCCC3)CC2)cc1 (protonated)
C=c1/c(=C/c2[n-]c(=O)[n-]c2[O-])cc(C)n1Cc1ccc(C(=O)[NH+]2CCN(C3CCCC3)CC2)cc1 (cis-trans isomerization)
C=c1/c(=C/c2[n-]c(=O)[n-]c2[O-])cc(C)n1Cc1ccc(C(=O)[NH+]2CCN(C3CCCC3)CC2)cc1 (3D coordinates assigned)
C=c1/c(=C/c2[n-]c(=O)[n-]c2[O-])cc(C)n1Cc1ccc(C(=O)[NH+]2CCN(C3CCCC3)CC2)cc1 (nonaromatic ring conformer: 158.15621915936808 kcal/mol)

> <smiles>
C=c1c(=Cc2[nH]c(=O)[nH]c2O)cc(C)n1Cc1ccc(C(=O)N2CCN(C3CCCC3)CC2)cc1

> <score_type>
oracle

> <origin>
adg

> <m_score__min__energy>
-16.68

> <m_primary>
energy

> <minimizedAffinity>
-8.34116

> <minimizedRMSD>
0.69094

> <CNNscore>
0.1224250942

> <CNNaffinity>
6.0516800880

> <CNN_VS>
0.7408775091

> <CNNaffinity_variance>
0.4881198406

$$$$
83:0


 23 24  0  0  0  0  0  0  0  0999 V2000
   59.2989   32.6776   47.8987 C   0  0  0  0  0  0  0  0  0  0  0  0
   58.2741   33.3354   47.1924 C   0  0  0  0  0  0  0  0  0  0  0  0
   57.8278   32.8331   45.9671 C   0  0  0  0  0  0  0  0  0  0  0  0
   58.3741   31.6513   45.4439 C   0  0  0  0  0  0  0  0  0  0  0  0
   59.3815   30.9847   46.1579 C   0  0  0  0  0  0  0  0  0  0  0  0
   59.8277   31.4880   47.3835 C   0  0  0  0  0  0  0  0  0  0  0  0
   59.1786   33.1130   52.6908 C   0  0  0  0  0  0  0  0  0  0  0  0
   59.6251   33.4977   51.4674 N   0  0  0  0  0  0  0  0  0  0  0  0
   59.3169   32.7861   50.3474 C   0  0  0  0  0  0  0  0  0  0  0  0
   59.7634   33.1410   49.1775 N   0  0  0  0  0  0  0  0  0  0  0  0
   58.5697   31.6571   50.4566 N   0  0  0  0  0  0  0  0  0  0  0  0
   58.1011   31.2316   51.6571 C   0  0  0  0  0  0  0  0  0  0  0  0
   57.4132   30.1777   51.7159 O   0  0  0  0  0  0  0  0  0  0  0  0
   58.3881   31.9647   52.8206 C   0  0  0  0  0  0  0  0  0  0  0  0
   57.9051   31.5119   54.1692 C   0  0  0  0  0  0  0  0  0  0  0  0
   57.9179   31.1299   44.1082 C   0  0  0  0  0  0  0  0  0  0  0  0
   56.9463   30.0103   44.3026 C   0  0  0  0  0  0  0  0  0  0  0  0
   55.8379   30.0297   43.7013 O   0  0  0  0  0  0  0  0  0  0  0  0
   57.3008   28.9016   45.1323 N   0  0  0  0  0  0  0  0  0  0  0  0
   58.1836   27.8335   44.6854 C   0  0  0  0  0  0  0  0  0  0  0  0
   58.0328   26.6571   45.5903 C   0  0  0  0  0  0  0  0  0  0  0  0
   56.8994   26.3463   46.0417 O   0  0  0  0  0  0  0  0  0  0  0  0
   59.1519   25.9321   45.9793 O   0  0  0  0  0  0  0  0  0  0  0  0
  7  8  1  0
  8  9  1  0
  9 10  2  0
 10  1  1  0
  1  2  2  0
  2  3  1  0
  3  4  2  0
  4 16  1  0
 16 17  1  0
 17 18  2  0
 17 19  1  0
 19 20  1  0
 20 21  1  0
 21 22  2  0
 21 23  1  0
  4  5  1  0
  5  6  2  0
  9 11  1  0
 11 12  1  0
 12 13  2  0
 12 14  1  0
 14 15  1  0
 14  7  2  0
  6  1  1  0
M  CHG 1   8  -1
M  CHG 1  11  -1
M  CHG 1  19  -1
M  CHG 1  23  -1
M  END
> <UniqueID>
80

> <SMILES>
Cc1c[n-]/c(=N\c2ccc(CC(=O)[N-]CC(=O)[O-])cc2)[n-]c1=O

> <Energy>
37.15544157787687

> <Genealogy>
Cc1c[n-]c(=Nc2ccc(CC(=O)[N-]CC(=O)[O-])cc2)[n-]c1=O (protonated)
Cc1c[n-]/c(=N\c2ccc(CC(=O)[N-]CC(=O)[O-])cc2)[n-]c1=O (cis-trans isomerization)
Cc1c[n-]/c(=N\c2ccc(CC(=O)[N-]CC(=O)[O-])cc2)[n-]c1=O (3D coordinates assigned)
Cc1c[n-]/c(=N\c2ccc(CC(=O)[N-]CC(=O)[O-])cc2)[n-]c1=O (optimized conformer: 37.15544157787687 kcal/mol)

> <smiles>
Cc1c[nH]c(=Nc2ccc(CC(=O)NCC(=O)O)cc2)[nH]c1=O

> <score_type>
oracle

> <origin>
adg

> <m_score__min__energy>
-14.16

> <m_primary>
energy

> <minimizedAffinity>
-6.48960

> <minimizedRMSD>
1.26820

> <CNNscore>
0.6987760663

> <CNNaffinity>
6.3009953499

> <CNN_VS>
4.4029846191

> <CNNaffinity_variance>
0.4092811346

$$$$
84:0


 30 34  0  0  0  0  0  0  0  0999 V2000
   53.0052   29.8803   52.3258 C   0  0  0  0  0  0  0  0  0  0  0  0
   54.0838   29.5720   53.0558 C   0  0  0  0  0  0  0  0  0  0  0  0
   54.2901   28.5156   53.9656 C   0  0  0  0  0  0  0  0  0  0  0  0
   55.5842   28.5065   54.3936 N   0  0  0  0  0  0  0  0  0  0  0  0
   56.1281   29.5804   53.8514 N   0  0  0  0  0  0  0  0  0  0  0  0
   57.3815   29.8937   53.4943 C   0  0  0  0  0  0  0  0  0  0  0  0
   57.2347   30.8185   52.4443 C   0  0  0  0  0  0  0  0  0  0  0  0
   55.9143   30.9927   52.1503 N   0  0  0  0  0  0  0  0  0  0  0  0
   55.3018   30.2069   53.0533 C   0  0  0  0  0  0  0  0  0  0  0  0
   55.5099   31.5545   51.4503 H   0  0  0  0  0  0  0  0  0  0  0  0
   51.9844   30.8585   52.7401 C   0  0  0  0  0  0  0  0  0  0  0  0
   51.5743   31.0028   54.0116 N   0  0  0  0  0  0  0  0  0  0  0  0
   50.7172   32.0438   53.9502 C   0  0  0  0  0  0  0  0  0  0  0  0
   50.1044   32.4783   54.9599 O   0  0  0  0  0  0  0  0  0  0  0  0
   50.5744   32.5886   52.7237 N   0  0  0  0  0  0  0  0  0  0  0  0
   51.3938   31.8369   51.9695 C   0  0  0  0  0  0  0  0  0  0  0  0
   51.6325   32.0789   50.6229 O   0  0  0  0  0  0  0  0  0  0  0  0
   58.2992   31.4194   51.6942 N   0  0  0  0  0  0  0  0  0  0  0  0
   59.1404   32.4417   52.3236 C   0  0  0  0  0  0  0  0  0  0  0  0
   59.5897   33.5123   51.3034 C   0  0  0  0  0  0  0  0  0  0  0  0
   59.3918   33.0902   49.8994 N   0  0  0  0  0  0  0  0  0  0  0  0
   60.1726   33.9449   48.9934 C   0  0  0  0  0  0  0  0  0  0  0  0
   59.7536   31.6760   49.7154 C   0  0  0  0  0  0  0  0  0  0  0  0
   58.7211   30.8030   50.4294 C   0  0  0  0  0  0  0  0  0  0  0  0
   58.5905   29.1642   53.9302 C   0  0  0  0  0  0  0  0  0  0  0  0
   59.0952   29.3629   55.2264 C   0  0  0  0  0  0  0  0  0  0  0  0
   60.2362   28.6752   55.6517 C   0  0  0  0  0  0  0  0  0  0  0  0
   60.8739   27.7771   54.7931 C   0  0  0  0  0  0  0  0  0  0  0  0
   60.3704   27.5612   53.5090 C   0  0  0  0  0  0  0  0  0  0  0  0
   59.2304   28.2463   53.0779 C   0  0  0  0  0  0  0  0  0  0  0  0
  1 11  1  0
 11 12  1  0
 12 13  1  0
 13 14  2  0
 13 15  1  0
 15 16  1  0
 16 17  1  0
  1  2  2  0
  2  3  1  0
  3  4  2  0
  4  5  1  0
  5  6  1  0
  6 25  1  0
 25 26  2  0
 26 27  1  0
 27 28  2  0
 28 29  1  0
 29 30  2  0
  6  7  2  0
  7 18  1  0
 18 19  1  0
 19 20  1  0
 20 21  1  0
 21 22  1  0
 21 23  1  0
 23 24  1  0
  7  8  1  0
  8  9  2  0
 16 11  2  0
  9  2  1  0
  9  5  1  0
 30 25  1  0
 24 18  1  0
  8 10  1  0
M  CHG 1   8   1
M  CHG 1  12  -1
M  CHG 1  15  -1
M  CHG 1  17  -1
M  END
> <UniqueID>
81

> <SMILES>
CN1CCN(c2[nH+]c3/c(=C/c4[n-]c(=O)[n-]c4[O-])cnn3c2-c2ccccc2)CC1

> <Energy>
190.81818895515622

> <Genealogy>
CN1CCN(c2[nH+]c3c(=Cc4[n-]c(=O)[n-]c4[O-])cnn3c2-c2ccccc2)CC1 (protonated)
CN1CCN(c2[nH+]c3/c(=C/c4[n-]c(=O)[n-]c4[O-])cnn3c2-c2ccccc2)CC1 (cis-trans isomerization)
CN1CCN(c2[nH+]c3/c(=C/c4[n-]c(=O)[n-]c4[O-])cnn3c2-c2ccccc2)CC1 (3D coordinates assigned)
CN1CCN(c2[nH+]c3/c(=C/c4[n-]c(=O)[n-]c4[O-])cnn3c2-c2ccccc2)CC1 (nonaromatic ring conformer: 190.81818895515622 kcal/mol)

> <smiles>
CN1CCN(c2nc3c(=Cc4[nH]c(=O)[nH]c4O)cnn3c2-c2ccccc2)CC1

> <score_type>
oracle

> <origin>
adg

> <m_score__min__energy>
-15.640000000000001

> <m_primary>
energy

> <minimizedAffinity>
-6.04632

> <minimizedRMSD>
0.94153

> <CNNscore>
0.1095980033

> <CNNaffinity>
4.7067260742

> <CNN_VS>
0.5158478022

> <CNNaffinity_variance>
0.3800069392

$$$$
85:0


 29 32  0  0  0  0  0  0  0  0999 V2000
   60.7211   26.9205   49.5300 C   0  0  0  0  0  0  0  0  0  0  0  0
   60.3495   28.1082   49.0208 C   0  0  0  0  0  0  0  0  0  0  0  0
   59.5844   28.2997   47.8596 C   0  0  0  0  0  0  0  0  0  0  0  0
   59.2624   27.4531   46.8611 C   0  0  0  0  0  0  0  0  0  0  0  0
   59.1771   29.6159   47.8816 C   0  0  0  0  0  0  0  0  0  0  0  0
   59.7478   30.1990   48.9916 C   0  0  0  0  0  0  0  0  0  0  0  0
   60.5043   29.2967   49.6748 N   0  0  0  0  0  0  0  0  0  0  0  0
   58.1276   26.5149   46.8643 C   0  0  0  0  0  0  0  0  0  0  0  0
   58.1468   25.2883   47.4210 N   0  0  0  0  0  0  0  0  0  0  0  0
   56.9562   24.7635   47.0578 C   0  0  0  0  0  0  0  0  0  0  0  0
   56.5893   23.6118   47.4059 O   0  0  0  0  0  0  0  0  0  0  0  0
   56.1952   25.5662   46.2846 N   0  0  0  0  0  0  0  0  0  0  0  0
   56.9587   26.6633   46.1607 C   0  0  0  0  0  0  0  0  0  0  0  0
   56.5963   27.7779   45.4144 O   0  0  0  0  0  0  0  0  0  0  0  0
   61.3458   29.5245   50.8764 C   0  0  0  0  0  0  0  0  0  0  0  0
   62.3544   30.6684   50.6956 C   0  0  0  0  0  0  0  0  0  0  0  0
   60.4806   29.7083   52.1265 C   0  0  0  0  0  0  0  0  0  0  0  0
   59.4896   31.6046   49.3678 C   0  0  0  0  0  0  0  0  0  0  0  0
   58.5837   31.8613   50.2077 O   0  0  0  0  0  0  0  0  0  0  0  0
   60.1969   32.6847   48.7116 N   0  0  0  0  0  0  0  0  0  0  0  0
   60.8911   32.1974   47.4894 C   0  0  0  0  0  0  0  0  0  0  0  0
   60.0888   32.4885   46.2104 C   0  0  0  0  0  0  0  0  0  0  0  0
   59.8327   33.9373   46.0217 N   0  0  0  0  0  0  0  0  0  0  0  0
   59.7897   34.6929   47.3049 C   0  0  0  0  0  0  0  0  0  0  0  0
   59.2772   33.8217   48.4573 C   0  0  0  0  0  0  0  0  0  0  0  0
   60.1124   32.0543   49.4631 H   0  0  0  0  0  0  0  0  0  0  0  0
   58.7201   34.0985   45.0443 C   0  0  0  0  0  0  0  0  0  0  0  0
   58.1289   32.8778   44.3443 C   0  0  0  0  0  0  0  0  0  0  0  0
   57.3765   33.5424   45.4965 C   0  0  0  0  0  0  0  0  0  0  0  0
  1  2  2  0
  2  3  1  0
  3  4  2  0
  4  8  1  0
  8  9  1  0
  9 10  1  0
 10 11  2  0
 10 12  1  0
 12 13  1  0
 13 14  1  0
  3  5  1  0
  5  6  2  0
  6 18  1  0
 18 19  2  0
 18 20  1  0
 20 21  1  0
 21 22  1  0
 22 23  1  0
 23 27  1  0
 27 28  1  0
 28 29  1  0
 23 24  1  0
 24 25  1  0
  6  7  1  0
  7 15  1  0
 15 16  1  0
 15 17  1  0
  7  2  1  0
 13  8  2  0
 25 20  1  0
 29 27  1  0
 20 26  1  0
M  CHG 1   9  -1
M  CHG 1  12  -1
M  CHG 1  14  -1
M  CHG 1  20   1
M  END
> <UniqueID>
82

> <SMILES>
C=c1c(=Cc2[n-]c(=O)[n-]c2[O-])cc(C(=O)[NH+]2CCN(C3CC3)CC2)n1C(C)C

> <Energy>
419.1780991517197

> <Genealogy>
C=c1c(=Cc2[n-]c(=O)[n-]c2[O-])cc(C(=O)[NH+]2CCN(C3CC3)CC2)n1C(C)C (protonated)
C=c1c(=Cc2[n-]c(=O)[n-]c2[O-])cc(C(=O)[NH+]2CCN(C3CC3)CC2)n1C(C)C (3D coordinates assigned)
C=c1c(=Cc2[n-]c(=O)[n-]c2[O-])cc(C(=O)[NH+]2CCN(C3CC3)CC2)n1C(C)C (nonaromatic ring conformer: 419.1780991517197 kcal/mol)

> <smiles>
C=c1c(=Cc2[nH]c(=O)[nH]c2O)cc(C(=O)N2CCN(C3CC3)CC2)n1C(C)C

> <score_type>
oracle

> <origin>
adg

> <m_score__min__energy>
-15.699999999999999

> <m_primary>
energy

> <minimizedAffinity>
-6.60797

> <minimizedRMSD>
0.94920

> <CNNscore>
0.1177669689

> <CNNaffinity>
6.0959229469

> <CNN_VS>
0.7178983688

> <CNNaffinity_variance>
0.0920196995

$$$$
7:0


 30 33  0  0  0  0  0  0  0  0999 V2000
   54.2189   27.6010   53.7637 C   0  0  0  0  0  0  0  0  0  0  0  0
   54.9686   28.7076   53.6372 C   0  0  0  0  0  0  0  0  0  0  0  0
   54.5111   30.0315   53.5277 C   0  0  0  0  0  0  0  0  0  0  0  0
   53.2775   30.5296   53.3174 C   0  0  0  0  0  0  0  0  0  0  0  0
   55.6303   30.8373   53.6606 C   0  0  0  0  0  0  0  0  0  0  0  0
   56.7157   29.9989   53.7943 C   0  0  0  0  0  0  0  0  0  0  0  0
   56.3216   28.7040   53.7500 N   0  0  0  0  0  0  0  0  0  0  0  0
   57.1872   27.5218   53.8108 C   0  0  0  0  0  0  0  0  0  0  0  0
   58.1041   30.4733   53.9538 C   0  0  0  0  0  0  0  0  0  0  0  0
   58.7888   30.0224   54.9116 O   0  0  0  0  0  0  0  0  0  0  0  0
   58.6978   31.4036   53.0277 N   0  0  0  0  0  0  0  0  0  0  0  0
   59.7787   32.2842   53.4999 C   0  0  0  0  0  0  0  0  0  0  0  0
   60.2514   33.2274   52.3921 C   0  0  0  0  0  0  0  0  0  0  0  0
   60.4883   32.4577   51.1641 N   0  0  0  0  0  0  0  0  0  0  0  0
   59.4596   31.5225   50.6816 C   0  0  0  0  0  0  0  0  0  0  0  0
   58.2517   31.4703   51.6276 C   0  0  0  0  0  0  0  0  0  0  0  0
   61.7589   32.5236   50.4860 C   0  0  0  0  0  0  0  0  0  0  0  0
   62.9349   32.0966   51.1293 C   0  0  0  0  0  0  0  0  0  0  0  0
   64.1630   32.1483   50.4650 C   0  0  0  0  0  0  0  0  0  0  0  0
   64.2301   32.6218   49.1524 C   0  0  0  0  0  0  0  0  0  0  0  0
   63.0677   33.0369   48.4969 C   0  0  0  0  0  0  0  0  0  0  0  0
   63.1534   33.6222   46.8458 Cl  0  0  0  0  0  0  0  0  0  0  0  0
   61.8370   32.9895   49.1602 C   0  0  0  0  0  0  0  0  0  0  0  0
   52.5539   30.5108   52.0359 C   0  0  0  0  0  0  0  0  0  0  0  0
   52.8029   29.6551   51.0271 N   0  0  0  0  0  0  0  0  0  0  0  0
   51.9955   30.0953   50.0379 C   0  0  0  0  0  0  0  0  0  0  0  0
   51.9309   29.5320   48.9149 O   0  0  0  0  0  0  0  0  0  0  0  0
   51.2719   31.1943   50.3444 N   0  0  0  0  0  0  0  0  0  0  0  0
   51.6508   31.4511   51.6059 C   0  0  0  0  0  0  0  0  0  0  0  0
   51.1837   32.5288   52.3482 O   0  0  0  0  0  0  0  0  0  0  0  0
  1  2  2  0
  2  3  1  0
  3  4  2  0
  4 24  1  0
 24 25  1  0
 25 26  1  0
 26 27  2  0
 26 28  1  0
 28 29  1  0
 29 30  1  0
  3  5  1  0
  5  6  2  0
  6  9  1  0
  9 10  2  0
  9 11  1  0
 11 12  1  0
 12 13  1  0
 13 14  1  0
 14 17  1  0
 17 18  2  0
 18 19  1  0
 19 20  2  0
 20 21  1  0
 21 22  1  0
 21 23  2  0
 14 15  1  0
 15 16  1  0
  6  7  1  0
  7  8  1  0
  7  2  1  0
 29 24  2  0
 16 11  1  0
 23 17  1  0
M  CHG 1  25  -1
M  CHG 1  28  -1
M  CHG 1  30  -1
M  END
> <UniqueID>
8

> <SMILES>
C=c1c(=Cc2[n-]c(=O)[n-]c2[O-])cc(C(=O)N2CCN(c3cccc(Cl)c3)CC2)n1C

> <Energy>
131.33956701187734

> <Genealogy>
C=c1c(=Cc2[n-]c(=O)[n-]c2[O-])cc(C(=O)N2CCN(c3cccc(Cl)c3)CC2)n1C (protonated)
C=c1c(=Cc2[n-]c(=O)[n-]c2[O-])cc(C(=O)N2CCN(c3cccc(Cl)c3)CC2)n1C (3D coordinates assigned)
C=c1c(=Cc2[n-]c(=O)[n-]c2[O-])cc(C(=O)N2CCN(c3cccc(Cl)c3)CC2)n1C (nonaromatic ring conformer: 131.33956701187734 kcal/mol)

> <smiles>
C=c1c(=Cc2[nH]c(=O)[nH]c2O)cc(C(=O)N2CCN(c3cccc(Cl)c3)CC2)n1C

> <score_type>
oracle

> <origin>
adg

> <m_score__min__energy>
-17.489999999999998

> <m_primary>
energy

> <minimizedAffinity>
-5.77496

> <minimizedRMSD>
1.15218

> <CNNscore>
0.0901602060

> <CNNaffinity>
4.8822765350

> <CNN_VS>
0.4401870668

> <CNNaffinity_variance>
0.6012445092

$$$$
17:0


 30 33  0  0  0  0  0  0  0  0999 V2000
   58.7540   26.5021   45.7775 C   0  0  0  0  0  0  0  0  0  0  0  0
   58.4261   27.7574   45.4149 C   0  0  0  0  0  0  0  0  0  0  0  0
   58.4653   28.8825   46.2254 C   0  0  0  0  0  0  0  0  0  0  0  0
   58.0968   29.9537   45.4369 C   0  0  0  0  0  0  0  0  0  0  0  0
   57.8162   29.5405   44.1775 N   0  0  0  0  0  0  0  0  0  0  0  0
   57.2854   30.3560   43.0792 C   0  0  0  0  0  0  0  0  0  0  0  0
   58.0246   28.1988   44.1512 C   0  0  0  0  0  0  0  0  0  0  0  0
   57.8507   27.4350   43.0606 C   0  0  0  0  0  0  0  0  0  0  0  0
   55.6397   26.6894   45.9193 O   0  0  0  0  0  0  0  0  0  0  0  0
   56.4204   25.6495   46.4227 C   0  0  0  0  0  0  0  0  0  0  0  0
   55.9011   24.5550   47.0010 N   0  0  0  0  0  0  0  0  0  0  0  0
   56.9952   23.8069   47.2649 C   0  0  0  0  0  0  0  0  0  0  0  0
   56.9276   22.6746   47.8159 O   0  0  0  0  0  0  0  0  0  0  0  0
   58.1675   24.3628   46.8864 N   0  0  0  0  0  0  0  0  0  0  0  0
   57.7976   25.5488   46.3700 C   0  0  0  0  0  0  0  0  0  0  0  0
   54.7073   26.6605   46.0077 H   0  0  0  0  0  0  0  0  0  0  0  0
   58.0341   31.3454   45.9228 C   0  0  0  0  0  0  0  0  0  0  0  0
   57.0845   32.0790   45.5366 O   0  0  0  0  0  0  0  0  0  0  0  0
   59.0144   31.8711   46.8377 N   0  0  0  0  0  0  0  0  0  0  0  0
   59.3080   33.3126   46.8059 C   0  0  0  0  0  0  0  0  0  0  0  0
   60.4144   33.6930   47.8003 C   0  0  0  0  0  0  0  0  0  0  0  0
   61.5416   32.6455   47.7561 C   0  0  0  0  0  0  0  0  0  0  0  0
   61.0362   31.2308   48.1516 C   0  0  0  0  0  0  0  0  0  0  0  0
   59.5218   31.0426   47.9439 C   0  0  0  0  0  0  0  0  0  0  0  0
   62.7237   33.0927   48.5385 N   0  0  0  0  0  0  0  0  0  0  0  0
   63.4992   31.9532   49.0779 C   0  0  0  0  0  0  0  0  0  0  0  0
   64.6883   32.4466   49.9078 C   0  0  0  0  0  0  0  0  0  0  0  0
   64.2381   33.3077   51.1027 C   0  0  0  0  0  0  0  0  0  0  0  0
   62.7956   33.8235   50.9613 C   0  0  0  0  0  0  0  0  0  0  0  0
   62.4755   34.2016   49.5063 C   0  0  0  0  0  0  0  0  0  0  0  0
  9 10  1  0
 10 11  1  0
 11 12  1  0
 12 13  2  0
 12 14  1  0
 14 15  1  0
 15  1  1  0
  1  2  2  0
  2  3  1  0
  3  4  2  0
  4 17  1  0
 17 18  2  0
 17 19  1  0
 19 20  1  0
 20 21  1  0
 21 22  1  0
 22 25  1  0
 25 26  1  0
 26 27  1  0
 27 28  1  0
 28 29  1  0
 29 30  1  0
 22 23  1  0
 23 24  1  0
  4  5  1  0
  5  6  1  0
  5  7  1  0
  7  8  2  0
 15 10  2  0
  7  2  1  0
 24 19  1  0
 30 25  1  0
  9 16  1  0
M  CHG 1  11  -1
M  CHG 1  14  -1
M  END
> <UniqueID>
16

> <SMILES>
C=c1/c(=C/c2[n-]c(=O)[n-]c2O)cc(C(=O)N2CCC(N3CCCCC3)CC2)n1C

> <Energy>
141.17214959158125

> <Genealogy>
C=c1c(=Cc2[n-]c(=O)[n-]c2O)cc(C(=O)N2CCC(N3CCCCC3)CC2)n1C (protonated)
C=c1/c(=C/c2[n-]c(=O)[n-]c2O)cc(C(=O)N2CCC(N3CCCCC3)CC2)n1C (cis-trans isomerization)
C=c1/c(=C/c2[n-]c(=O)[n-]c2O)cc(C(=O)N2CCC(N3CCCCC3)CC2)n1C (3D coordinates assigned)
C=c1/c(=C/c2[n-]c(=O)[n-]c2O)cc(C(=O)N2CCC(N3CCCCC3)CC2)n1C (nonaromatic ring conformer: 141.17214959158125 kcal/mol)

> <smiles>
C=c1c(=Cc2[nH]c(=O)[nH]c2O)cc(C(=O)N2CCC(N3CCCCC3)CC2)n1C

> <score_type>
oracle

> <origin>
adg

> <m_score__min__energy>
-14.359999999999999

> <m_primary>
energy

> <minimizedAffinity>
-8.75096

> <minimizedRMSD>
0.53288

> <CNNscore>
0.1205784976

> <CNNaffinity>
6.4033865929

> <CNN_VS>
0.7721107602

> <CNNaffinity_variance>
0.0166211408

$$$$
34:0


 31 34  0  0  0  0  0  0  0  0999 V2000
   57.2886   24.5124   46.3336 C   0  0  0  0  0  0  0  0  0  0  0  0
   56.8712   25.7817   46.0008 C   0  0  0  0  0  0  0  0  0  0  0  0
   55.6192   26.3243   46.2661 O   0  0  0  0  0  0  0  0  0  0  0  0
   57.8626   26.4253   45.3520 N   0  0  0  0  0  0  0  0  0  0  0  0
   58.8929   25.6068   45.1975 N   0  0  0  0  0  0  0  0  0  0  0  0
   58.5563   24.4400   45.7806 C   0  0  0  0  0  0  0  0  0  0  0  0
   59.2943   23.4193   45.7702 O   0  0  0  0  0  0  0  0  0  0  0  0
   54.5773   22.6209   48.9039 C   0  0  0  0  0  0  0  0  0  0  0  0
   54.2679   22.5980   47.5827 C   0  0  0  0  0  0  0  0  0  0  0  0
   55.1635   23.1565   46.6065 C   0  0  0  0  0  0  0  0  0  0  0  0
   56.4674   23.4261   46.9056 C   0  0  0  0  0  0  0  0  0  0  0  0
   54.6484   23.3426   45.2973 C   0  0  0  0  0  0  0  0  0  0  0  0
   55.3611   23.7779   44.3555 O   0  0  0  0  0  0  0  0  0  0  0  0
   53.3726   23.0041   45.0157 N   0  0  0  0  0  0  0  0  0  0  0  0
   52.5668   22.4167   45.9235 C   0  0  0  0  0  0  0  0  0  0  0  0
   51.3812   22.1416   45.5903 O   0  0  0  0  0  0  0  0  0  0  0  0
   53.0297   22.1232   47.1790 N   0  0  0  0  0  0  0  0  0  0  0  0
   52.1294   21.3961   48.1034 C   0  0  0  0  0  0  0  0  0  0  0  0
   51.9030   19.9248   47.7537 C   0  0  0  0  0  0  0  0  0  0  0  0
   52.8113   20.2913   48.9091 C   0  0  0  0  0  0  0  0  0  0  0  0
   57.8008   27.7680   44.7822 C   0  0  0  0  0  0  0  0  0  0  0  0
   57.9044   28.8161   45.8944 C   0  0  0  0  0  0  0  0  0  0  0  0
   57.3820   30.1285   45.4537 N   0  0  0  0  0  0  0  0  0  0  0  0
   56.2148   29.9565   44.5717 C   0  0  0  0  0  0  0  0  0  0  0  0
   58.4035   31.0237   44.8535 C   0  0  0  0  0  0  0  0  0  0  0  0
   58.7535   32.2273   45.7054 C   0  0  0  0  0  0  0  0  0  0  0  0
   58.9470   32.0849   47.0923 C   0  0  0  0  0  0  0  0  0  0  0  0
   59.2693   33.1972   47.8772 C   0  0  0  0  0  0  0  0  0  0  0  0
   59.3905   34.4586   47.2880 C   0  0  0  0  0  0  0  0  0  0  0  0
   59.1851   34.6117   45.9147 C   0  0  0  0  0  0  0  0  0  0  0  0
   58.8642   33.5030   45.1263 C   0  0  0  0  0  0  0  0  0  0  0  0
  8  9  2  0
  9 10  1  0
 10 11  2  0
 11  1  1  0
  1  2  2  0
  2  3  1  0
  2  4  1  0
  4 21  1  0
 21 22  1  0
 22 23  1  0
 23 24  1  0
 23 25  1  0
 25 26  1  0
 26 27  2  0
 27 28  1  0
 28 29  2  0
 29 30  1  0
 30 31  2  0
  4  5  1  0
  5  6  1  0
  6  7  2  0
 10 12  1  0
 12 13  2  0
 12 14  1  0
 14 15  1  0
 15 16  2  0
 15 17  1  0
 17 18  1  0
 18 19  1  0
 19 20  1  0
 17  9  1  0
 20 18  1  0
  6  1  1  0
 31 26  1  0
M  CHG 1   3  -1
M  CHG 1   5  -1
M  CHG 1  14  -1
M  END
> <UniqueID>
33

> <SMILES>
C=c1/c(=C/c2c([O-])n(CCN(C)Cc3ccccc3)[n-]c2=O)c(=O)[n-]c(=O)n1C1CC1

> <Energy>
386.91377821179276

> <Genealogy>
C=c1c(=Cc2c([O-])n(CCN(C)Cc3ccccc3)[n-]c2=O)c(=O)[n-]c(=O)n1C1CC1 (protonated)
C=c1/c(=C/c2c([O-])n(CCN(C)Cc3ccccc3)[n-]c2=O)c(=O)[n-]c(=O)n1C1CC1 (cis-trans isomerization)
C=c1/c(=C/c2c([O-])n(CCN(C)Cc3ccccc3)[n-]c2=O)c(=O)[n-]c(=O)n1C1CC1 (3D coordinates assigned)
C=c1/c(=C/c2c([O-])n(CCN(C)Cc3ccccc3)[n-]c2=O)c(=O)[n-]c(=O)n1C1CC1 (nonaromatic ring conformer: 386.91377821179276 kcal/mol)

> <smiles>
C=c1c(=Cc2c(O)n(CCN(C)Cc3ccccc3)[nH]c2=O)c(=O)[nH]c(=O)n1C1CC1

> <score_type>
oracle

> <origin>
adg

> <m_score__min__energy>
-14.92

> <m_primary>
energy

> <minimizedAffinity>
-6.95750

> <minimizedRMSD>
0.80542

> <CNNscore>
0.0711652860

> <CNNaffinity>
5.3625392914

> <CNN_VS>
0.3816266358

> <CNNaffinity_variance>
0.2280962914

$$$$
41:0


 31 34  0  0  0  0  0  0  0  0999 V2000
   59.1256   30.6123   46.5225 C   0  0  0  0  0  0  0  0  0  0  0  0
   58.1587   31.5119   46.0588 C   0  0  0  0  0  0  0  0  0  0  0  0
   58.4133   32.8841   46.0691 C   0  0  0  0  0  0  0  0  0  0  0  0
   59.6443   33.3803   46.5268 C   0  0  0  0  0  0  0  0  0  0  0  0
   59.8918   34.8656   46.5182 C   0  0  0  0  0  0  0  0  0  0  0  0
   60.6246   32.4732   46.9975 C   0  0  0  0  0  0  0  0  0  0  0  0
   60.3521   31.0961   46.9935 C   0  0  0  0  0  0  0  0  0  0  0  0
   61.9255   32.9407   47.5150 C   0  0  0  0  0  0  0  0  0  0  0  0
   62.6625   33.6422   46.7699 O   0  0  0  0  0  0  0  0  0  0  0  0
   62.3623   32.6112   48.8451 N   0  0  0  0  0  0  0  0  0  0  0  0
   63.7385   32.2612   49.1571 C   0  0  0  0  0  0  0  0  0  0  0  0
   63.7028   31.6591   50.5569 C   0  0  0  0  0  0  0  0  0  0  0  0
   62.3755   32.1333   51.1813 C   0  0  0  0  0  0  0  0  0  0  0  0
   61.7719   31.0575   52.1039 C   0  0  0  0  0  0  0  0  0  0  0  0
   62.6055   33.4304   51.9851 C   0  0  0  0  0  0  0  0  0  0  0  0
   61.4637   32.4115   49.9726 C   0  0  0  0  0  0  0  0  0  0  0  0
   58.2835   28.9415   44.2035 C   0  0  0  0  0  0  0  0  0  0  0  0
   58.4611   28.4517   45.4415 C   0  0  0  0  0  0  0  0  0  0  0  0
   58.3051   27.1197   45.8366 C   0  0  0  0  0  0  0  0  0  0  0  0
   57.8834   26.0877   45.0810 C   0  0  0  0  0  0  0  0  0  0  0  0
   58.6250   27.0749   47.1888 C   0  0  0  0  0  0  0  0  0  0  0  0
   58.9605   28.3636   47.5585 C   0  0  0  0  0  0  0  0  0  0  0  0
   59.3571   28.7775   48.9418 C   0  0  0  0  0  0  0  0  0  0  0  0
   58.8679   29.1972   46.4987 N   0  0  0  0  0  0  0  0  0  0  0  0
   57.2838   24.8573   45.6267 C   0  0  0  0  0  0  0  0  0  0  0  0
   57.9933   23.7451   45.8914 N   0  0  0  0  0  0  0  0  0  0  0  0
   57.0834   22.9179   46.4482 C   0  0  0  0  0  0  0  0  0  0  0  0
   57.3701   21.7523   46.8266 O   0  0  0  0  0  0  0  0  0  0  0  0
   55.8460   23.4401   46.5793 N   0  0  0  0  0  0  0  0  0  0  0  0
   55.9916   24.6724   46.0668 C   0  0  0  0  0  0  0  0  0  0  0  0
   54.9749   25.6213   46.0500 O   0  0  0  0  0  0  0  0  0  0  0  0
 17 18  2  0
 18 19  1  0
 19 20  2  0
 20 25  1  0
 25 26  1  0
 26 27  1  0
 27 28  2  0
 27 29  1  0
 29 30  1  0
 30 31  1  0
 19 21  1  0
 21 22  2  0
 22 23  1  0
 22 24  1  0
 24  1  1  0
  1  2  2  0
  2  3  1  0
  3  4  2  0
  4  5  1  0
  4  6  1  0
  6  8  1  0
  8  9  2  0
  8 10  1  0
 10 11  1  0
 11 12  1  0
 12 13  1  0
 13 14  1  0
 13 15  1  0
 13 16  1  0
  6  7  2  0
 24 18  1  0
  7  1  1  0
 30 25  2  0
 16 10  1  0
M  CHG 1  26  -1
M  CHG 1  29  -1
M  CHG 1  31  -1
M  END
> <UniqueID>
39

> <SMILES>
C=c1/c(=C/c2[n-]c(=O)[n-]c2[O-])cc(C)n1-c1ccc(C)c(C(=O)N2CCC(C)(C)C2)c1

> <Energy>
133.77133856627955

> <Genealogy>
C=c1c(=Cc2[n-]c(=O)[n-]c2[O-])cc(C)n1-c1ccc(C)c(C(=O)N2CCC(C)(C)C2)c1 (protonated)
C=c1/c(=C/c2[n-]c(=O)[n-]c2[O-])cc(C)n1-c1ccc(C)c(C(=O)N2CCC(C)(C)C2)c1 (cis-trans isomerization)
C=c1/c(=C/c2[n-]c(=O)[n-]c2[O-])cc(C)n1-c1ccc(C)c(C(=O)N2CCC(C)(C)C2)c1 (3D coordinates assigned)
C=c1/c(=C/c2[n-]c(=O)[n-]c2[O-])cc(C)n1-c1ccc(C)c(C(=O)N2CCC(C)(C)C2)c1 (nonaromatic ring conformer: 133.77133856627955 kcal/mol)

> <smiles>
C=c1c(=Cc2[nH]c(=O)[nH]c2O)cc(C)n1-c1ccc(C)c(C(=O)N2CCC(C)(C)C2)c1

> <score_type>
oracle

> <origin>
adg

> <m_score__min__energy>
-17.09

> <m_primary>
energy

> <minimizedAffinity>
-9.81172

> <minimizedRMSD>
1.08360

> <CNNscore>
0.4056893289

> <CNNaffinity>
7.1897273064

> <CNN_VS>
2.9167957306

> <CNNaffinity_variance>
0.1055565476

$$$$
44:0


 32 35  0  0  0  0  0  0  0  0999 V2000
   59.6527   30.0306   45.3600 C   0  0  0  0  0  0  0  0  0  0  0  0
   59.4934   29.5216   46.5927 C   0  0  0  0  0  0  0  0  0  0  0  0
   59.4441   28.1616   46.9202 C   0  0  0  0  0  0  0  0  0  0  0  0
   59.5026   27.1138   46.0746 C   0  0  0  0  0  0  0  0  0  0  0  0
   59.2659   28.0972   48.2940 C   0  0  0  0  0  0  0  0  0  0  0  0
   59.2126   29.3971   48.7468 C   0  0  0  0  0  0  0  0  0  0  0  0
   59.3639   30.2702   47.7210 N   0  0  0  0  0  0  0  0  0  0  0  0
   58.5344   26.0008   46.0694 C   0  0  0  0  0  0  0  0  0  0  0  0
   58.8807   24.7210   46.2878 N   0  0  0  0  0  0  0  0  0  0  0  0
   57.6981   24.0693   46.2826 C   0  0  0  0  0  0  0  0  0  0  0  0
   57.6097   22.8236   46.4451 O   0  0  0  0  0  0  0  0  0  0  0  0
   56.6173   24.8583   46.0997 N   0  0  0  0  0  0  0  0  0  0  0  0
   57.1615   26.0799   45.9789 C   0  0  0  0  0  0  0  0  0  0  0  0
   56.4141   27.2429   45.8399 O   0  0  0  0  0  0  0  0  0  0  0  0
   59.0497   29.7592   50.1672 C   0  0  0  0  0  0  0  0  0  0  0  0
   57.9036   30.0955   50.5755 O   0  0  0  0  0  0  0  0  0  0  0  0
   60.1886   29.8377   51.0557 N   0  0  0  0  0  0  0  0  0  0  0  0
   61.4285   29.5657   50.2854 C   0  0  0  0  0  0  0  0  0  0  0  0
   62.6747   30.1222   50.9830 C   0  0  0  0  0  0  0  0  0  0  0  0
   62.5362   31.5709   51.1751 N   0  0  0  0  0  0  0  0  0  0  0  0
   63.7140   32.4003   51.2571 C   0  0  0  0  0  0  0  0  0  0  0  0
   64.8407   31.8714   51.4615 O   0  0  0  0  0  0  0  0  0  0  0  0
   63.6338   33.8916   51.1275 C   0  0  0  0  0  0  0  0  0  0  0  0
   61.1889   32.1521   51.2421 C   0  0  0  0  0  0  0  0  0  0  0  0
   60.1959   31.1243   51.8060 C   0  0  0  0  0  0  0  0  0  0  0  0
   59.6321   30.3394   50.4172 H   0  0  0  0  0  0  0  0  0  0  0  0
   59.4619   31.7350   47.8415 C   0  0  0  0  0  0  0  0  0  0  0  0
   60.8666   32.2240   47.6156 C   0  0  0  0  0  0  0  0  0  0  0  0
   61.1497   33.5595   47.3439 C   0  0  0  0  0  0  0  0  0  0  0  0
   62.8155   33.7225   47.1951 S   0  0  0  0  0  0  0  0  0  0  0  0
   63.1992   32.1159   47.4948 C   0  0  0  0  0  0  0  0  0  0  0  0
   62.0175   31.4218   47.7161 C   0  0  0  0  0  0  0  0  0  0  0  0
  1  2  2  0
  2  3  1  0
  3  4  2  0
  4  8  1  0
  8  9  1  0
  9 10  1  0
 10 11  2  0
 10 12  1  0
 12 13  1  0
 13 14  1  0
  3  5  1  0
  5  6  2  0
  6 15  1  0
 15 16  2  0
 15 17  1  0
 17 18  1  0
 18 19  1  0
 19 20  1  0
 20 21  1  0
 21 22  2  0
 21 23  1  0
 20 24  1  0
 24 25  1  0
  6  7  1  0
  7 27  1  0
 27 28  1  0
 28 29  2  0
 29 30  1  0
 30 31  1  0
 31 32  2  0
  7  2  1  0
 32 28  1  0
 13  8  2  0
 25 17  1  0
 17 26  1  0
M  CHG 1   9  -1
M  CHG 1  12  -1
M  CHG 1  14  -1
M  CHG 1  17   1
M  END
> <UniqueID>
42

> <SMILES>
C=c1/c(=C/c2[n-]c(=O)[n-]c2[O-])cc(C(=O)[NH+]2CCN(C(C)=O)CC2)n1Cc1ccsc1

> <Energy>
157.73207061677277

> <Genealogy>
C=c1c(=Cc2[n-]c(=O)[n-]c2[O-])cc(C(=O)[NH+]2CCN(C(C)=O)CC2)n1Cc1ccsc1 (protonated)
C=c1/c(=C/c2[n-]c(=O)[n-]c2[O-])cc(C(=O)[NH+]2CCN(C(C)=O)CC2)n1Cc1ccsc1 (cis-trans isomerization)
C=c1/c(=C/c2[n-]c(=O)[n-]c2[O-])cc(C(=O)[NH+]2CCN(C(C)=O)CC2)n1Cc1ccsc1 (3D coordinates assigned)
C=c1/c(=C/c2[n-]c(=O)[n-]c2[O-])cc(C(=O)[NH+]2CCN(C(C)=O)CC2)n1Cc1ccsc1 (nonaromatic ring conformer: 157.73207061677277 kcal/mol)

> <smiles>
C=c1c(=Cc2[nH]c(=O)[nH]c2O)cc(C(=O)N2CCN(C(C)=O)CC2)n1Cc1ccsc1

> <score_type>
oracle

> <origin>
adg

> <m_score__min__energy>
-15.4

> <m_primary>
energy

> <minimizedAffinity>
-6.84381

> <minimizedRMSD>
1.11868

> <CNNscore>
0.1481004655

> <CNNaffinity>
6.4678306580

> <CNN_VS>
0.9578887224

> <CNNaffinity_variance>
0.0482470132

$$$$
45:0


 25 26  0  0  0  0  0  0  0  0999 V2000
   59.2047   28.2715   47.7653 C   0  0  0  0  0  0  0  0  0  0  0  0
   60.2015   32.3958   46.9039 C   0  0  0  0  0  0  0  0  0  0  0  0
   59.0009   31.8287   46.4319 C   0  0  0  0  0  0  0  0  0  0  0  0
   58.6789   30.5010   46.7080 C   0  0  0  0  0  0  0  0  0  0  0  0
   59.5555   29.7007   47.4481 C   0  0  0  0  0  0  0  0  0  0  0  0
   60.7515   30.2506   47.9268 C   0  0  0  0  0  0  0  0  0  0  0  0
   61.0887   31.5924   47.6719 C   0  0  0  0  0  0  0  0  0  0  0  0
   62.3425   32.1256   48.2620 C   0  0  0  0  0  0  0  0  0  0  0  0
   63.5600   32.0746   47.5213 N   0  0  0  0  0  0  0  0  0  0  0  0
   62.3547   32.5938   49.4327 O   0  0  0  0  0  0  0  0  0  0  0  0
   63.5647   31.7114   46.6062 H   0  0  0  0  0  0  0  0  0  0  0  0
   59.6672   34.7669   46.4285 C   0  0  0  0  0  0  0  0  0  0  0  0
   60.5601   33.7804   46.5076 C   0  0  0  0  0  0  0  0  0  0  0  0
   58.4064   27.6954   46.6843 N   0  0  0  0  0  0  0  0  0  0  0  0
   58.8192   26.5284   45.9603 C   0  0  0  0  0  0  0  0  0  0  0  0
   59.8794   25.9235   46.2766 O   0  0  0  0  0  0  0  0  0  0  0  0
   57.5535   28.1248   46.4445 H   0  0  0  0  0  0  0  0  0  0  0  0
   57.9661   25.9886   44.8538 C   0  0  0  0  0  0  0  0  0  0  0  0
   57.2448   24.7624   45.3167 C   0  0  0  0  0  0  0  0  0  0  0  0
   57.8643   23.1969   45.2672 S   0  0  0  0  0  0  0  0  0  0  0  0
   56.5069   22.5487   46.0183 C   0  0  0  0  0  0  0  0  0  0  0  0
   56.3563   21.3263   46.2763 O   0  0  0  0  0  0  0  0  0  0  0  0
   55.5847   23.4839   46.3245 N   0  0  0  0  0  0  0  0  0  0  0  0
   55.9977   24.7194   45.9395 C   0  0  0  0  0  0  0  0  0  0  0  0
   55.2219   25.8502   46.1603 O   0  0  0  0  0  0  0  0  0  0  0  0
 12 13  2  0
 13  2  1  0
  2  3  2  0
  3  4  1  0
  4  5  2  0
  5  1  1  0
  1 14  1  0
 14 15  1  0
 15 16  2  0
 15 18  1  0
 18 19  1  0
 19 20  1  0
 20 21  1  0
 21 22  2  0
 21 23  1  0
 23 24  1  0
 24 25  1  0
  5  6  1  0
  6  7  2  0
  7  8  1  0
  8  9  1  0
  8 10  2  0
  7  2  1  0
 24 19  2  0
 14 17  1  0
  9 11  1  0
M  CHG 1   9  -1
M  CHG 1  23  -1
M  CHG 1  25  -1
M  END
> <UniqueID>
43

> <SMILES>
C=Cc1ccc(CNC(=O)Cc2sc(=O)[n-]c2[O-])cc1C([NH-])=O

> <Energy>
68.05763473283989

> <Genealogy>
C=Cc1ccc(CNC(=O)Cc2sc(=O)[n-]c2[O-])cc1C([NH-])=O (protonated)
C=Cc1ccc(CNC(=O)Cc2sc(=O)[n-]c2[O-])cc1C([NH-])=O (3D coordinates assigned)
C=Cc1ccc(CNC(=O)Cc2sc(=O)[n-]c2[O-])cc1C([NH-])=O (optimized conformer: 68.05763473283989 kcal/mol)

> <smiles>
C=Cc1ccc(CNC(=O)Cc2sc(=O)[nH]c2O)cc1C(N)=O

> <score_type>
oracle

> <origin>
adg

> <m_score__min__energy>
-15.48

> <m_primary>
energy

> <minimizedAffinity>
-7.31474

> <minimizedRMSD>
1.51769

> <CNNscore>
0.2184359729

> <CNNaffinity>
6.1121468544

> <CNN_VS>
1.3351126909

> <CNNaffinity_variance>
0.3951292932

$$$$
53:0


 30 32  0  0  0  0  0  0  0  0999 V2000
   54.3424   27.4836   53.8435 C   0  0  0  0  0  0  0  0  0  0  0  0
   54.8302   28.6420   53.3683 C   0  0  0  0  0  0  0  0  0  0  0  0
   54.0888   29.6781   52.7877 C   0  0  0  0  0  0  0  0  0  0  0  0
   52.7520   29.7330   52.6116 C   0  0  0  0  0  0  0  0  0  0  0  0
   54.9969   30.6847   52.4855 C   0  0  0  0  0  0  0  0  0  0  0  0
   56.2350   30.2258   52.8735 C   0  0  0  0  0  0  0  0  0  0  0  0
   56.1442   28.9788   53.3943 N   0  0  0  0  0  0  0  0  0  0  0  0
   57.2399   28.1999   53.9815 C   0  0  0  0  0  0  0  0  0  0  0  0
   52.1093   30.2119   51.3741 C   0  0  0  0  0  0  0  0  0  0  0  0
   52.0554   29.4900   50.2396 N   0  0  0  0  0  0  0  0  0  0  0  0
   51.4463   30.3256   49.3687 C   0  0  0  0  0  0  0  0  0  0  0  0
   51.2124   30.0056   48.1733 O   0  0  0  0  0  0  0  0  0  0  0  0
   51.1261   31.5397   49.8714 N   0  0  0  0  0  0  0  0  0  0  0  0
   51.5591   31.4564   51.1424 C   0  0  0  0  0  0  0  0  0  0  0  0
   51.4880   32.5063   52.0500 O   0  0  0  0  0  0  0  0  0  0  0  0
   57.4839   31.0045   52.7350 C   0  0  0  0  0  0  0  0  0  0  0  0
   58.0424   31.4108   53.7923 O   0  0  0  0  0  0  0  0  0  0  0  0
   58.0231   31.4058   51.4455 N   0  0  0  0  0  0  0  0  0  0  0  0
   58.8016   30.3400   50.7744 C   0  0  0  0  0  0  0  0  0  0  0  0
   59.2091   30.7715   49.3468 C   0  0  0  0  0  0  0  0  0  0  0  0
   59.2376   32.2471   49.1969 N   0  0  0  0  0  0  0  0  0  0  0  0
   59.7876   32.8831   50.4059 C   0  0  0  0  0  0  0  0  0  0  0  0
   58.8422   32.6382   51.6012 C   0  0  0  0  0  0  0  0  0  0  0  0
   57.1365   31.8333   51.4241 H   0  0  0  0  0  0  0  0  0  0  0  0
   59.9989   32.6574   48.0000 C   0  0  0  0  0  0  0  0  0  0  0  0
   59.1473   33.5059   47.0893 C   0  0  0  0  0  0  0  0  0  0  0  0
   59.1621   34.7586   47.2438 O   0  0  0  0  0  0  0  0  0  0  0  0
   58.3607   32.9283   46.0239 N   0  0  0  0  0  0  0  0  0  0  0  0
   57.4989   33.8049   45.2195 C   0  0  0  0  0  0  0  0  0  0  0  0
   58.4250   31.4918   45.7273 C   0  0  0  0  0  0  0  0  0  0  0  0
  1  2  2  0
  2  3  1  0
  3  4  2  0
  4  9  1  0
  9 10  1  0
 10 11  1  0
 11 12  2  0
 11 13  1  0
 13 14  1  0
 14 15  1  0
  3  5  1  0
  5  6  2  0
  6 16  1  0
 16 17  2  0
 16 18  1  0
 18 19  1  0
 19 20  1  0
 20 21  1  0
 21 25  1  0
 25 26  1  0
 26 27  2  0
 26 28  1  0
 28 29  1  0
 28 30  1  0
 21 22  1  0
 22 23  1  0
  6  7  1  0
  7  8  1  0
  7  2  1  0
 14  9  2  0
 23 18  1  0
 18 24  1  0
M  CHG 1  10  -1
M  CHG 1  13  -1
M  CHG 1  15  -1
M  CHG 1  18   1
M  END
> <UniqueID>
50

> <SMILES>
C=c1/c(=C/c2[n-]c(=O)[n-]c2[O-])cc(C(=O)[NH+]2CCN(CC(=O)N(C)C)CC2)n1C

> <Energy>
136.55157379886342

> <Genealogy>
C=c1c(=Cc2[n-]c(=O)[n-]c2[O-])cc(C(=O)[NH+]2CCN(CC(=O)N(C)C)CC2)n1C (protonated)
C=c1/c(=C/c2[n-]c(=O)[n-]c2[O-])cc(C(=O)[NH+]2CCN(CC(=O)N(C)C)CC2)n1C (cis-trans isomerization)
C=c1/c(=C/c2[n-]c(=O)[n-]c2[O-])cc(C(=O)[NH+]2CCN(CC(=O)N(C)C)CC2)n1C (3D coordinates assigned)
C=c1/c(=C/c2[n-]c(=O)[n-]c2[O-])cc(C(=O)[NH+]2CCN(CC(=O)N(C)C)CC2)n1C (nonaromatic ring conformer: 136.55157379886342 kcal/mol)

> <smiles>
C=c1c(=Cc2[nH]c(=O)[nH]c2O)cc(C(=O)N2CCN(CC(=O)N(C)C)CC2)n1C

> <score_type>
oracle

> <origin>
adg

> <m_score__min__energy>
-16.57

> <m_primary>
energy

> <minimizedAffinity>
-6.34410

> <minimizedRMSD>
0.72557

> <CNNscore>
0.0681879669

> <CNNaffinity>
4.7650508881

> <CNN_VS>
0.3249191344

> <CNNaffinity_variance>
0.6100953817

$$$$
59:0


 26 28  0  0  0  0  0  0  0  0999 V2000
   58.1889   27.0053   44.7346 C   0  0  0  0  0  0  0  0  0  0  0  0
   58.4705   28.1088   45.4735 C   0  0  0  0  0  0  0  0  0  0  0  0
   59.1674   27.9007   46.6822 C   0  0  0  0  0  0  0  0  0  0  0  0
   59.3621   28.9343   47.6037 C   0  0  0  0  0  0  0  0  0  0  0  0
   58.8865   30.2255   47.3210 C   0  0  0  0  0  0  0  0  0  0  0  0
   58.2401   30.4637   46.0995 C   0  0  0  0  0  0  0  0  0  0  0  0
   58.0957   29.4501   45.1350 C   0  0  0  0  0  0  0  0  0  0  0  0
   57.7233   29.8276   43.8969 C   0  0  0  0  0  0  0  0  0  0  0  0
   57.7473   25.6961   45.2525 C   0  0  0  0  0  0  0  0  0  0  0  0
   58.5289   24.6027   45.2613 N   0  0  0  0  0  0  0  0  0  0  0  0
   57.7779   23.6853   45.9064 C   0  0  0  0  0  0  0  0  0  0  0  0
   58.1694   22.5047   46.1033 O   0  0  0  0  0  0  0  0  0  0  0  0
   56.5780   24.1332   46.3341 N   0  0  0  0  0  0  0  0  0  0  0  0
   56.5790   25.4117   45.9242 C   0  0  0  0  0  0  0  0  0  0  0  0
   55.5490   26.3053   46.1904 O   0  0  0  0  0  0  0  0  0  0  0  0
   60.0568   28.6449   48.8369 C   0  0  0  0  0  0  0  0  0  0  0  0
   60.6128   28.4131   49.8243 N   0  0  0  0  0  0  0  0  0  0  0  0
   59.0441   31.3224   48.3097 C   0  0  0  0  0  0  0  0  0  0  0  0
   59.8200   32.4060   48.1408 C   0  0  0  0  0  0  0  0  0  0  0  0
   61.2599   32.4826   48.4725 C   0  0  0  0  0  0  0  0  0  0  0  0
   61.7277   31.8557   49.6375 C   0  0  0  0  0  0  0  0  0  0  0  0
   63.0866   31.8989   49.9674 C   0  0  0  0  0  0  0  0  0  0  0  0
   63.9911   32.5540   49.1273 C   0  0  0  0  0  0  0  0  0  0  0  0
   65.3071   32.5952   49.4489 F   0  0  0  0  0  0  0  0  0  0  0  0
   63.5392   33.1576   47.9506 C   0  0  0  0  0  0  0  0  0  0  0  0
   62.1820   33.1146   47.6164 C   0  0  0  0  0  0  0  0  0  0  0  0
  1  9  1  0
  9 10  1  0
 10 11  1  0
 11 12  2  0
 11 13  1  0
 13 14  1  0
 14 15  1  0
  1  2  2  0
  2  3  1  0
  3  4  2  0
  4 16  1  0
 16 17  3  0
  4  5  1  0
  5 18  1  0
 18 19  2  0
 19 20  1  0
 20 21  2  0
 21 22  1  0
 22 23  2  0
 23 24  1  0
 23 25  1  0
 25 26  2  0
  5  6  2  0
  6  7  1  0
  7  8  2  0
 14  9  2  0
  7  2  1  0
 26 20  1  0
M  CHG 1  10  -1
M  CHG 1  13  -1
M  CHG 1  15  -1
M  END
> <UniqueID>
56

> <SMILES>
C=c1cc(/C=C\c2ccc(F)cc2)c(C#N)cc1=Cc1[n-]c(=O)[n-]c1[O-]

> <Energy>
100.72100388227622

> <Genealogy>
C=c1cc(C=Cc2ccc(F)cc2)c(C#N)cc1=Cc1[n-]c(=O)[n-]c1[O-] (protonated)
C=c1cc(/C=C\c2ccc(F)cc2)c(C#N)cc1=Cc1[n-]c(=O)[n-]c1[O-] (cis-trans isomerization)
C=c1cc(/C=C\c2ccc(F)cc2)c(C#N)cc1=Cc1[n-]c(=O)[n-]c1[O-] (3D coordinates assigned)
C=c1cc(/C=C\c2ccc(F)cc2)c(C#N)cc1=Cc1[n-]c(=O)[n-]c1[O-] (optimized conformer: 100.72100388227622 kcal/mol)

> <smiles>
C=c1cc(C=Cc2ccc(F)cc2)c(C#N)cc1=Cc1[nH]c(=O)[nH]c1O

> <score_type>
oracle

> <origin>
adg

> <m_score__min__energy>
-16.190000000000001

> <m_primary>
energy

> <minimizedAffinity>
-7.51454

> <minimizedRMSD>
1.08816

> <CNNscore>
0.1685053408

> <CNNaffinity>
6.4709873199

> <CNN_VS>
1.0903959274

> <CNNaffinity_variance>
0.1356213838

$$$$
76:0


 27 29  0  0  0  0  0  0  0  0999 V2000
   58.8928   30.2493   44.8572 C   0  0  0  0  0  0  0  0  0  0  0  0
   59.2159   30.1004   46.1518 C   0  0  0  0  0  0  0  0  0  0  0  0
   59.6175   28.9161   46.7914 C   0  0  0  0  0  0  0  0  0  0  0  0
   59.9930   27.7230   46.2920 C   0  0  0  0  0  0  0  0  0  0  0  0
   59.5915   29.1851   48.1508 C   0  0  0  0  0  0  0  0  0  0  0  0
   59.2562   30.5149   48.2915 C   0  0  0  0  0  0  0  0  0  0  0  0
   59.1779   31.2345   49.6028 C   0  0  0  0  0  0  0  0  0  0  0  0
   59.0238   31.0713   47.0813 N   0  0  0  0  0  0  0  0  0  0  0  0
   58.6041   32.4258   46.8361 C   0  0  0  0  0  0  0  0  0  0  0  0
   57.5465   32.8508   47.3831 O   0  0  0  0  0  0  0  0  0  0  0  0
   59.0950   26.5941   46.0040 C   0  0  0  0  0  0  0  0  0  0  0  0
   59.4238   25.2973   46.1452 N   0  0  0  0  0  0  0  0  0  0  0  0
   58.2594   24.6520   45.9066 C   0  0  0  0  0  0  0  0  0  0  0  0
   58.1622   23.3979   45.9321 O   0  0  0  0  0  0  0  0  0  0  0  0
   57.2082   25.4591   45.6519 N   0  0  0  0  0  0  0  0  0  0  0  0
   57.7514   26.6848   45.7309 C   0  0  0  0  0  0  0  0  0  0  0  0
   57.0329   27.8613   45.5650 O   0  0  0  0  0  0  0  0  0  0  0  0
   59.4346   33.3201   46.0636 N   0  0  0  0  0  0  0  0  0  0  0  0
   58.6395   33.9623   45.0004 C   0  0  0  0  0  0  0  0  0  0  0  0
   59.1133   32.4133   46.2729 H   0  0  0  0  0  0  0  0  0  0  0  0
   60.0483   34.3194   46.9683 C   0  0  0  0  0  0  0  0  0  0  0  0
   61.2271   33.7473   47.7211 C   0  0  0  0  0  0  0  0  0  0  0  0
   62.1721   32.9514   47.0537 C   0  0  0  0  0  0  0  0  0  0  0  0
   63.2742   32.4383   47.7444 C   0  0  0  0  0  0  0  0  0  0  0  0
   63.4434   32.7203   49.1023 C   0  0  0  0  0  0  0  0  0  0  0  0
   62.5110   33.5161   49.7724 C   0  0  0  0  0  0  0  0  0  0  0  0
   61.4055   34.0309   49.0859 C   0  0  0  0  0  0  0  0  0  0  0  0
  1  2  2  0
  2  3  1  0
  3  4  2  0
  4 11  1  0
 11 12  1  0
 12 13  1  0
 13 14  2  0
 13 15  1  0
 15 16  1  0
 16 17  1  0
  3  5  1  0
  5  6  2  0
  6  7  1  0
  6  8  1  0
  8  9  1  0
  9 10  2  0
  9 18  1  0
 18 19  1  0
 18 21  1  0
 21 22  1  0
 22 23  2  0
 23 24  1  0
 24 25  2  0
 25 26  1  0
 26 27  2  0
  8  2  1  0
 27 22  1  0
 16 11  2  0
 18 20  1  0
M  CHG 1  12  -1
M  CHG 1  15  -1
M  CHG 1  17  -1
M  CHG 1  18   1
M  END
> <UniqueID>
70

> <SMILES>
C=c1/c(=C\c2[n-]c(=O)[n-]c2[O-])cc(C)n1C(=O)[N@@H+](C)Cc1ccccc1

> <Energy>
121.61268338020015

> <Genealogy>
C=c1c(=Cc2[n-]c(=O)[n-]c2[O-])cc(C)n1C(=O)[NH+](C)Cc1ccccc1 (protonated)
C=c1c(=Cc2[n-]c(=O)[n-]c2[O-])cc(C)n1C(=O)[N@@H+](C)Cc1ccccc1 (chirality)
C=c1/c(=C\c2[n-]c(=O)[n-]c2[O-])cc(C)n1C(=O)[N@@H+](C)Cc1ccccc1 (cis-trans isomerization)
C=c1/c(=C\c2[n-]c(=O)[n-]c2[O-])cc(C)n1C(=O)[N@@H+](C)Cc1ccccc1 (3D coordinates assigned)
C=c1/c(=C\c2[n-]c(=O)[n-]c2[O-])cc(C)n1C(=O)[N@@H+](C)Cc1ccccc1 (optimized conformer: 121.61268338020015 kcal/mol)

> <smiles>
C=c1c(=Cc2[nH]c(=O)[nH]c2O)cc(C)n1C(=O)N(C)Cc1ccccc1

> <score_type>
oracle

> <origin>
adg

> <m_score__min__energy>
-14.779999999999999

> <m_primary>
energy

> <minimizedAffinity>
-8.58428

> <minimizedRMSD>
1.40685

> <CNNscore>
0.5285973549

> <CNNaffinity>
6.7228579521

> <CNN_VS>
3.5536849499

> <CNNaffinity_variance>
0.1962419897

$$$$
15:0


 26 28  0  0  0  0  0  0  0  0999 V2000
   57.5232   31.1286   43.2709 C   0  0  0  0  0  0  0  0  0  0  0  0
   58.0261   30.8664   44.4905 C   0  0  0  0  0  0  0  0  0  0  0  0
   58.2086   29.5861   45.0304 C   0  0  0  0  0  0  0  0  0  0  0  0
   57.9227   28.4024   44.4535 C   0  0  0  0  0  0  0  0  0  0  0  0
   58.6663   29.7720   46.3224 C   0  0  0  0  0  0  0  0  0  0  0  0
   58.7597   31.1305   46.5190 C   0  0  0  0  0  0  0  0  0  0  0  0
   58.4018   31.8159   45.3984 N   0  0  0  0  0  0  0  0  0  0  0  0
   59.0915   31.7211   47.8236 C   0  0  0  0  0  0  0  0  0  0  0  0
   58.1682   32.2555   48.4960 O   0  0  0  0  0  0  0  0  0  0  0  0
   60.4481   31.7337   48.3136 N   0  0  0  0  0  0  0  0  0  0  0  0
   61.5629   31.4971   47.3820 C   0  0  0  0  0  0  0  0  0  0  0  0
   62.9095   31.6585   48.0834 C   0  0  0  0  0  0  0  0  0  0  0  0
   62.8557   32.8582   48.9305 N   0  0  0  0  0  0  0  0  0  0  0  0
   64.2042   33.2295   49.3875 C   0  0  0  0  0  0  0  0  0  0  0  0
   61.9503   32.6660   50.0856 C   0  0  0  0  0  0  0  0  0  0  0  0
   60.7081   31.8069   49.7597 C   0  0  0  0  0  0  0  0  0  0  0  0
   57.9849   27.1063   45.1550 C   0  0  0  0  0  0  0  0  0  0  0  0
   59.1184   26.3973   45.2969 N   0  0  0  0  0  0  0  0  0  0  0  0
   58.7397   25.3482   46.0581 C   0  0  0  0  0  0  0  0  0  0  0  0
   59.5388   24.4382   46.4020 O   0  0  0  0  0  0  0  0  0  0  0  0
   57.4437   25.3571   46.4316 N   0  0  0  0  0  0  0  0  0  0  0  0
   56.9801   26.4816   45.8622 C   0  0  0  0  0  0  0  0  0  0  0  0
   55.6826   26.9484   46.0291 O   0  0  0  0  0  0  0  0  0  0  0  0
   58.3482   33.2878   45.2194 C   0  0  0  0  0  0  0  0  0  0  0  0
   57.0602   33.8587   45.8160 C   0  0  0  0  0  0  0  0  0  0  0  0
   59.5882   34.0018   45.7771 C   0  0  0  0  0  0  0  0  0  0  0  0
  1  2  2  0
  2  3  1  0
  3  4  2  0
  4 17  1  0
 17 18  1  0
 18 19  1  0
 19 20  2  0
 19 21  1  0
 21 22  1  0
 22 23  1  0
  3  5  1  0
  5  6  2  0
  6  8  1  0
  8  9  2  0
  8 10  1  0
 10 11  1  0
 11 12  1  0
 12 13  1  0
 13 14  1  0
 13 15  1  0
 15 16  1  0
  6  7  1  0
  7 24  1  0
 24 25  1  0
 24 26  1  0
  7  2  1  0
 22 17  2  0
 16 10  1  0
M  CHG 1  18  -1
M  CHG 1  21  -1
M  CHG 1  23  -1
M  END
> <UniqueID>
16

> <SMILES>
C=c1c(=Cc2[n-]c(=O)[n-]c2[O-])cc(C(=O)N2CCN(C)CC2)n1C(C)C

> <Energy>
126.41439019219112

> <Genealogy>
C=c1c(=Cc2[n-]c(=O)[n-]c2[O-])cc(C(=O)N2CCN(C)CC2)n1C(C)C (protonated)
C=c1c(=Cc2[n-]c(=O)[n-]c2[O-])cc(C(=O)N2CCN(C)CC2)n1C(C)C (3D coordinates assigned)
C=c1c(=Cc2[n-]c(=O)[n-]c2[O-])cc(C(=O)N2CCN(C)CC2)n1C(C)C (nonaromatic ring conformer: 126.41439019219112 kcal/mol)

> <smiles>
C=c1c(=Cc2[nH]c(=O)[nH]c2O)cc(C(=O)N2CCN(C)CC2)n1C(C)C

> <score_type>
oracle

> <origin>
adg

> <m_score__min__energy>
-16.309999999999999

> <m_primary>
energy

> <minimizedAffinity>
-6.16836

> <minimizedRMSD>
1.09260

> <CNNscore>
0.1248117313

> <CNNaffinity>
6.0124325752

> <CNN_VS>
0.7504221201

> <CNNaffinity_variance>
0.0603113063

$$$$
22:0


 35 38  0  0  0  0  0  0  0  0999 V2000
   60.7820   26.6618   46.1250 O   0  0  0  0  0  0  0  0  0  0  0  0
   59.8537   27.2033   46.7814 C   0  0  0  0  0  0  0  0  0  0  0  0
   58.7787   27.9324   46.0594 C   0  0  0  0  0  0  0  0  0  0  0  0
   57.4980   27.3781   45.9500 C   0  0  0  0  0  0  0  0  0  0  0  0
   57.1989   26.1486   46.5293 O   0  0  0  0  0  0  0  0  0  0  0  0
   56.5362   28.0293   45.2546 N   0  0  0  0  0  0  0  0  0  0  0  0
   56.7776   29.2181   44.6468 C   0  0  0  0  0  0  0  0  0  0  0  0
   55.8437   29.7746   44.0085 O   0  0  0  0  0  0  0  0  0  0  0  0
   58.0159   29.8008   44.7310 N   0  0  0  0  0  0  0  0  0  0  0  0
   59.0078   29.1841   45.4562 C   0  0  0  0  0  0  0  0  0  0  0  0
   60.1298   29.7463   45.6000 O   0  0  0  0  0  0  0  0  0  0  0  0
   58.2639   31.1007   44.0718 C   0  0  0  0  0  0  0  0  0  0  0  0
   57.4703   32.2304   44.7422 C   0  0  0  0  0  0  0  0  0  0  0  0
   58.3321   33.0349   45.6792 C   0  0  0  0  0  0  0  0  0  0  0  0
   58.4819   32.6372   47.0184 C   0  0  0  0  0  0  0  0  0  0  0  0
   59.2402   33.4122   47.9010 C   0  0  0  0  0  0  0  0  0  0  0  0
   59.8464   34.5914   47.4570 C   0  0  0  0  0  0  0  0  0  0  0  0
   59.6936   34.9986   46.1282 C   0  0  0  0  0  0  0  0  0  0  0  0
   58.9385   34.2255   45.2416 C   0  0  0  0  0  0  0  0  0  0  0  0
   59.8521   27.0659   48.2109 N   0  0  0  0  0  0  0  0  0  0  0  0
   60.0683   28.1254   49.1518 C   0  0  0  0  0  0  0  0  0  0  0  0
   60.9645   27.9833   50.2243 C   0  0  0  0  0  0  0  0  0  0  0  0
   61.2446   29.0717   51.0548 C   0  0  0  0  0  0  0  0  0  0  0  0
   60.6154   30.3041   50.8360 C   0  0  0  0  0  0  0  0  0  0  0  0
   59.6748   30.4293   49.8053 C   0  0  0  0  0  0  0  0  0  0  0  0
   59.3934   29.3397   48.9753 C   0  0  0  0  0  0  0  0  0  0  0  0
   61.0923   31.7238   51.7630 S   0  0  0  0  0  0  0  0  0  0  0  0
   61.4629   31.3194   53.1631 O   0  0  0  0  0  0  0  0  0  0  0  0
   59.9308   32.6768   51.8291 O   0  0  0  0  0  0  0  0  0  0  0  0
   62.4486   32.5031   50.9842 N   0  0  0  0  0  0  0  0  0  0  0  0
   62.0048   33.7586   50.3348 C   0  0  0  0  0  0  0  0  0  0  0  0
   63.0139   34.2367   49.2877 C   0  0  0  0  0  0  0  0  0  0  0  0
   63.1635   33.2083   48.1530 C   0  0  0  0  0  0  0  0  0  0  0  0
   62.8186   31.7765   48.6001 C   0  0  0  0  0  0  0  0  0  0  0  0
   63.1595   31.5608   50.0826 C   0  0  0  0  0  0  0  0  0  0  0  0
  1  2  2  0
  2 20  1  0
 20 21  1  0
 21 22  2  0
 22 23  1  0
 23 24  2  0
 24 27  1  0
 27 28  2  0
 27 29  2  0
 27 30  1  0
 30 31  1  0
 31 32  1  0
 32 33  1  0
 33 34  1  0
 34 35  1  0
 24 25  1  0
 25 26  2  0
  2  3  1  0
  3  4  2  0
  4  5  1  0
  4  6  1  0
  6  7  1  0
  7  8  2  0
  7  9  1  0
  9 12  1  0
 12 13  1  0
 13 14  1  0
 14 15  2  0
 15 16  1  0
 16 17  2  0
 17 18  1  0
 18 19  2  0
  9 10  1  0
 10 11  2  0
 26 21  1  0
 10  3  1  0
 35 30  1  0
 19 14  1  0
M  CHG 1   5  -1
M  CHG 1   6  -1
M  CHG 1  20  -1
M  END
> <UniqueID>
23

> <SMILES>
O=C([N-]c1ccc(S(=O)(=O)N2CCCCC2)cc1)c1c([O-])[n-]c(=O)n(CCc2ccccc2)c1=O

> <Energy>
75.32765738962073

> <Genealogy>
O=C([N-]c1ccc(S(=O)(=O)N2CCCCC2)cc1)c1c([O-])[n-]c(=O)n(CCc2ccccc2)c1=O (protonated)
O=C([N-]c1ccc(S(=O)(=O)N2CCCCC2)cc1)c1c([O-])[n-]c(=O)n(CCc2ccccc2)c1=O (3D coordinates assigned)
O=C([N-]c1ccc(S(=O)(=O)N2CCCCC2)cc1)c1c([O-])[n-]c(=O)n(CCc2ccccc2)c1=O (nonaromatic ring conformer: 75.32765738962073 kcal/mol)

> <smiles>
O=C(Nc1ccc(S(=O)(=O)N2CCCCC2)cc1)c1c(O)[nH]c(=O)n(CCc2ccccc2)c1=O

> <score_type>
oracle

> <origin>
adg

> <m_score__min__energy>
-15.5

> <m_primary>
energy

> <minimizedAffinity>
-7.69404

> <minimizedRMSD>
1.38477

> <CNNscore>
0.6976270080

> <CNNaffinity>
7.1925253868

> <CNN_VS>
5.0177001953

> <CNNaffinity_variance>
0.1327020079

$$$$
24:0


 29 31  0  0  0  0  0  0  0  0999 V2000
   57.7454   29.2706   44.0269 C   0  0  0  0  0  0  0  0  0  0  0  0
   58.0269   28.8557   45.2737 C   0  0  0  0  0  0  0  0  0  0  0  0
   57.8948   27.5492   45.7543 C   0  0  0  0  0  0  0  0  0  0  0  0
   57.4481   26.4684   45.0835 C   0  0  0  0  0  0  0  0  0  0  0  0
   58.2655   27.5839   47.0896 C   0  0  0  0  0  0  0  0  0  0  0  0
   58.6158   28.8890   47.3692 C   0  0  0  0  0  0  0  0  0  0  0  0
   59.0365   29.3790   48.7220 C   0  0  0  0  0  0  0  0  0  0  0  0
   58.4824   29.6650   46.2668 N   0  0  0  0  0  0  0  0  0  0  0  0
   57.1717   25.1641   45.7271 C   0  0  0  0  0  0  0  0  0  0  0  0
   55.8710   24.8538   46.1538 C   0  0  0  0  0  0  0  0  0  0  0  0
   54.8406   25.7745   46.0075 O   0  0  0  0  0  0  0  0  0  0  0  0
   55.6135   23.6477   46.7221 N   0  0  0  0  0  0  0  0  0  0  0  0
   56.5922   22.7217   46.8765 C   0  0  0  0  0  0  0  0  0  0  0  0
   56.3310   21.6130   47.4122 O   0  0  0  0  0  0  0  0  0  0  0  0
   57.8533   22.9863   46.4500 N   0  0  0  0  0  0  0  0  0  0  0  0
   58.1640   24.1764   45.8731 C   0  0  0  0  0  0  0  0  0  0  0  0
   59.3368   24.3723   45.4566 O   0  0  0  0  0  0  0  0  0  0  0  0
   58.7137   31.1170   46.2064 C   0  0  0  0  0  0  0  0  0  0  0  0
   59.6979   31.5325   47.2602 C   0  0  0  0  0  0  0  0  0  0  0  0
   59.2862   32.1677   48.2686 O   0  0  0  0  0  0  0  0  0  0  0  0
   61.0815   31.1637   47.1438 N   0  0  0  0  0  0  0  0  0  0  0  0
   61.3383   30.5583   46.4111 H   0  0  0  0  0  0  0  0  0  0  0  0
   62.1150   31.6246   48.0322 C   0  0  0  0  0  0  0  0  0  0  0  0
   62.9486   32.6791   47.6280 C   0  0  0  0  0  0  0  0  0  0  0  0
   63.9460   33.1593   48.4819 C   0  0  0  0  0  0  0  0  0  0  0  0
   64.1100   32.6010   49.7524 C   0  0  0  0  0  0  0  0  0  0  0  0
   63.2696   31.5679   50.1741 C   0  0  0  0  0  0  0  0  0  0  0  0
   63.4150   31.0406   51.4136 F   0  0  0  0  0  0  0  0  0  0  0  0
   62.2710   31.0831   49.3227 C   0  0  0  0  0  0  0  0  0  0  0  0
  1  2  2  0
  2  3  1  0
  3  4  2  0
  4  9  1  0
  9 10  2  0
 10 11  1  0
 10 12  1  0
 12 13  1  0
 13 14  2  0
 13 15  1  0
 15 16  1  0
 16 17  2  0
  3  5  1  0
  5  6  2  0
  6  7  1  0
  6  8  1  0
  8 18  1  0
 18 19  1  0
 19 20  2  0
 19 21  1  0
 21 23  1  0
 23 24  2  0
 24 25  1  0
 25 26  2  0
 26 27  1  0
 27 28  1  0
 27 29  2  0
  8  2  1  0
 29 23  1  0
 16  9  1  0
 21 22  1  0
M  CHG 1  11  -1
M  CHG 1  12  -1
M  CHG 1  15  -1
M  END
> <UniqueID>
25

> <SMILES>
C=c1c(=Cc2c([O-])[n-]c(=O)[n-]c2=O)cc(C)n1CC(=O)Nc1cccc(F)c1

> <Energy>
85.43494990885088

> <Genealogy>
C=c1c(=Cc2c([O-])[n-]c(=O)[n-]c2=O)cc(C)n1CC(=O)Nc1cccc(F)c1 (protonated)
C=c1c(=Cc2c([O-])[n-]c(=O)[n-]c2=O)cc(C)n1CC(=O)Nc1cccc(F)c1 (3D coordinates assigned)
C=c1c(=Cc2c([O-])[n-]c(=O)[n-]c2=O)cc(C)n1CC(=O)Nc1cccc(F)c1 (optimized conformer: 85.43494990885088 kcal/mol)

> <smiles>
C=c1c(=Cc2c(O)[nH]c(=O)[nH]c2=O)cc(C)n1CC(=O)Nc1cccc(F)c1

> <score_type>
oracle

> <origin>
adg

> <m_score__min__energy>
-15.380000000000001

> <m_primary>
energy

> <minimizedAffinity>
-7.78149

> <minimizedRMSD>
1.40453

> <CNNscore>
0.0897641778

> <CNNaffinity>
6.2245755196

> <CNN_VS>
0.5587438941

> <CNNaffinity_variance>
0.1266706884

$$$$
32:0


 24 25  0  0  0  0  0  0  0  0999 V2000
   59.2000   31.4144   46.4274 C   0  0  0  0  0  0  0  0  0  0  0  0
   58.2176   32.0576   46.9878 N   0  0  0  0  0  0  0  0  0  0  0  0
   58.6992   30.2655   44.3631 C   0  0  0  0  0  0  0  0  0  0  0  0
   59.2050   31.2759   45.0027 N   0  0  0  0  0  0  0  0  0  0  0  0
   58.5044   28.9483   45.0215 C   0  0  0  0  0  0  0  0  0  0  0  0
   57.2279   28.4462   45.3596 C   0  0  0  0  0  0  0  0  0  0  0  0
   56.0724   29.1698   45.0912 O   0  0  0  0  0  0  0  0  0  0  0  0
   57.1129   27.2345   45.9612 N   0  0  0  0  0  0  0  0  0  0  0  0
   58.2047   26.4831   46.2489 C   0  0  0  0  0  0  0  0  0  0  0  0
   58.0687   25.3635   46.8062 O   0  0  0  0  0  0  0  0  0  0  0  0
   59.4428   26.9393   45.9365 N   0  0  0  0  0  0  0  0  0  0  0  0
   59.6183   28.1423   45.3337 C   0  0  0  0  0  0  0  0  0  0  0  0
   60.7881   28.5257   45.0620 O   0  0  0  0  0  0  0  0  0  0  0  0
   60.2317   30.8054   47.2207 N   0  0  0  0  0  0  0  0  0  0  0  0
   60.1667   29.8417   47.4111 H   0  0  0  0  0  0  0  0  0  0  0  0
   61.3549   31.5314   47.7512 C   0  0  0  0  0  0  0  0  0  0  0  0
   61.8575   32.6340   47.0426 C   0  0  0  0  0  0  0  0  0  0  0  0
   62.9469   33.3575   47.5371 C   0  0  0  0  0  0  0  0  0  0  0  0
   63.5409   32.9890   48.7472 C   0  0  0  0  0  0  0  0  0  0  0  0
   63.0437   31.8969   49.4646 C   0  0  0  0  0  0  0  0  0  0  0  0
   61.9538   31.1712   48.9740 C   0  0  0  0  0  0  0  0  0  0  0  0
   58.1457   33.5060   47.1701 C   0  0  0  0  0  0  0  0  0  0  0  0
   58.2614   34.2098   45.8458 C   0  0  0  0  0  0  0  0  0  0  0  0
   59.3791   34.8410   45.4760 C   0  0  0  0  0  0  0  0  0  0  0  0
  3  4  2  0
  4  1  1  0
  1  2  2  0
  2 22  1  0
 22 23  1  0
 23 24  2  0
  1 14  1  0
 14 16  1  0
 16 17  2  0
 17 18  1  0
 18 19  2  0
 19 20  1  0
 20 21  2  0
  3  5  1  0
  5  6  2  0
  6  7  1  0
  6  8  1  0
  8  9  1  0
  9 10  2  0
  9 11  1  0
 11 12  1  0
 12 13  2  0
 21 16  1  0
 12  5  1  0
 14 15  1  0
M  CHG 1   7  -1
M  CHG 1   8  -1
M  CHG 1  11  -1
M  END
> <UniqueID>
33

> <SMILES>
C=CC/N=C(/N=Cc1c([O-])[n-]c(=O)[n-]c1=O)Nc1ccccc1

> <Energy>
42.83508588440018

> <Genealogy>
C=CCN=C(N=Cc1c([O-])[n-]c(=O)[n-]c1=O)Nc1ccccc1 (protonated)
C=CC/N=C(/N=Cc1c([O-])[n-]c(=O)[n-]c1=O)Nc1ccccc1 (cis-trans isomerization)
C=CC/N=C(/N=Cc1c([O-])[n-]c(=O)[n-]c1=O)Nc1ccccc1 (3D coordinates assigned)
C=CC/N=C(/N=Cc1c([O-])[n-]c(=O)[n-]c1=O)Nc1ccccc1 (optimized conformer: 42.83508588440018 kcal/mol)

> <smiles>
C=CCN=C(N=Cc1c(O)[nH]c(=O)[nH]c1=O)Nc1ccccc1

> <score_type>
oracle

> <origin>
adg

> <m_score__min__energy>
-14.75

> <m_primary>
energy

> <minimizedAffinity>
-6.11265

> <minimizedRMSD>
0.94729

> <CNNscore>
0.3940666020

> <CNNaffinity>
5.9609580040

> <CNN_VS>
2.3490145206

> <CNNaffinity_variance>
0.0599935837

$$$$
42:0


 37 40  0  0  0  0  0  0  0  0999 V2000
   59.0423   29.6801   48.9204 C   0  0  0  0  0  0  0  0  0  0  0  0
   58.2658   29.9757   51.1547 O   0  0  0  0  0  0  0  0  0  0  0  0
   58.7431   30.5149   50.1203 C   0  0  0  0  0  0  0  0  0  0  0  0
   59.0378   31.9177   50.0911 N   0  0  0  0  0  0  0  0  0  0  0  0
   59.5079   32.6667   48.9601 C   0  0  0  0  0  0  0  0  0  0  0  0
   60.6880   33.4316   49.0080 C   0  0  0  0  0  0  0  0  0  0  0  0
   61.0986   34.1606   47.8895 C   0  0  0  0  0  0  0  0  0  0  0  0
   60.3322   34.1466   46.7222 C   0  0  0  0  0  0  0  0  0  0  0  0
   59.1428   33.4080   46.6698 C   0  0  0  0  0  0  0  0  0  0  0  0
   58.7305   32.6793   47.7944 C   0  0  0  0  0  0  0  0  0  0  0  0
   58.1698   33.3950   45.1961 S   0  0  0  0  0  0  0  0  0  0  0  0
   57.1578   34.5044   45.2634 O   0  0  0  0  0  0  0  0  0  0  0  0
   59.0626   33.6519   44.0136 O   0  0  0  0  0  0  0  0  0  0  0  0
   57.3449   31.8714   44.9745 N   0  0  0  0  0  0  0  0  0  0  0  0
   57.2497   31.5402   43.5452 C   0  0  0  0  0  0  0  0  0  0  0  0
   56.5338   30.1855   43.3626 C   0  0  0  0  0  0  0  0  0  0  0  0
   56.2355   29.5694   44.6032 O   0  0  0  0  0  0  0  0  0  0  0  0
   57.4200   29.4248   45.3620 C   0  0  0  0  0  0  0  0  0  0  0  0
   58.0437   30.7967   45.6962 C   0  0  0  0  0  0  0  0  0  0  0  0
   60.1381   28.7703   49.2271 N   0  0  0  0  0  0  0  0  0  0  0  0
   60.2502   27.4271   48.7415 C   0  0  0  0  0  0  0  0  0  0  0  0
   60.9552   26.6061   49.3844 O   0  0  0  0  0  0  0  0  0  0  0  0
   59.5981   26.9854   47.4920 C   0  0  0  0  0  0  0  0  0  0  0  0
   60.0875   27.3938   46.2415 C   0  0  0  0  0  0  0  0  0  0  0  0
   59.4507   26.9838   45.0674 C   0  0  0  0  0  0  0  0  0  0  0  0
   58.3120   26.1766   45.1314 C   0  0  0  0  0  0  0  0  0  0  0  0
   57.7970   25.7850   46.3743 C   0  0  0  0  0  0  0  0  0  0  0  0
   58.4398   26.1943   47.5515 C   0  0  0  0  0  0  0  0  0  0  0  0
   56.3422   24.7865   46.4556 S   0  0  0  0  0  0  0  0  0  0  0  0
   55.1445   25.6256   46.1044 O   0  0  0  0  0  0  0  0  0  0  0  0
   56.1654   24.2880   47.8623 O   0  0  0  0  0  0  0  0  0  0  0  0
   56.4305   23.4223   45.3684 N   0  0  0  0  0  0  0  0  0  0  0  0
   55.9059   23.7837   44.0396 C   0  0  0  0  0  0  0  0  0  0  0  0
   56.2027   22.6712   43.0141 C   0  0  0  0  0  0  0  0  0  0  0  0
   56.6338   21.4872   43.6589 O   0  0  0  0  0  0  0  0  0  0  0  0
   57.8690   21.7188   44.3131 C   0  0  0  0  0  0  0  0  0  0  0  0
   57.8147   22.9424   45.2534 C   0  0  0  0  0  0  0  0  0  0  0  0
  2  3  2  0
  3  1  1  0
  1 20  1  0
 20 21  1  0
 21 22  2  0
 21 23  1  0
 23 24  2  0
 24 25  1  0
 25 26  2  0
 26 27  1  0
 27 29  1  0
 29 30  2  0
 29 31  2  0
 29 32  1  0
 32 33  1  0
 33 34  1  0
 34 35  1  0
 35 36  1  0
 36 37  1  0
 27 28  2  0
  3  4  1  0
  4  5  1  0
  5  6  2  0
  6  7  1  0
  7  8  2  0
  8  9  1  0
  9 11  1  0
 11 12  2  0
 11 13  2  0
 11 14  1  0
 14 15  1  0
 15 16  1  0
 16 17  1  0
 17 18  1  0
 18 19  1  0
  9 10  2  0
 28 23  1  0
 10  5  1  0
 37 32  1  0
 19 14  1  0
M  CHG 1   4  -1
M  CHG 1  20  -1
M  END
> <UniqueID>
43

> <SMILES>
O=C(C[N-]C(=O)c1cccc(S(=O)(=O)N2CCOCC2)c1)[N-]c1cccc(S(=O)(=O)N2CCOCC2)c1

> <Energy>
85.17000746667351

> <Genealogy>
O=C(C[N-]C(=O)c1cccc(S(=O)(=O)N2CCOCC2)c1)[N-]c1cccc(S(=O)(=O)N2CCOCC2)c1 (protonated)
O=C(C[N-]C(=O)c1cccc(S(=O)(=O)N2CCOCC2)c1)[N-]c1cccc(S(=O)(=O)N2CCOCC2)c1 (3D coordinates assigned)
O=C(C[N-]C(=O)c1cccc(S(=O)(=O)N2CCOCC2)c1)[N-]c1cccc(S(=O)(=O)N2CCOCC2)c1 (nonaromatic ring conformer: 85.17000746667351 kcal/mol)

> <smiles>
O=C(CNC(=O)c1cccc(S(=O)(=O)N2CCOCC2)c1)Nc1cccc(S(=O)(=O)N2CCOCC2)c1

> <score_type>
oracle

> <origin>
adg

> <m_score__min__energy>
-14.31

> <m_primary>
energy

> <minimizedAffinity>
-7.50488

> <minimizedRMSD>
0.46797

> <CNNscore>
0.5452830791

> <CNNaffinity>
6.5288472176

> <CNN_VS>
3.5600697994

> <CNNaffinity_variance>
0.1744071245

$$$$
59:0


 28 30  0  0  0  0  0  0  0  0999 V2000
   58.1650   30.1096   45.2795 C   0  0  0  0  0  0  0  0  0  0  0  0
   57.7515   31.3599   45.0204 C   0  0  0  0  0  0  0  0  0  0  0  0
   58.3540   32.5974   45.5752 C   0  0  0  0  0  0  0  0  0  0  0  0
   58.7189   33.6321   44.7018 C   0  0  0  0  0  0  0  0  0  0  0  0
   59.2488   34.8262   45.2005 C   0  0  0  0  0  0  0  0  0  0  0  0
   59.4107   35.0026   46.5758 C   0  0  0  0  0  0  0  0  0  0  0  0
   59.0348   33.9936   47.4701 C   0  0  0  0  0  0  0  0  0  0  0  0
   58.4852   32.7993   46.9616 C   0  0  0  0  0  0  0  0  0  0  0  0
   59.1960   34.2249   48.8478 O   0  0  0  0  0  0  0  0  0  0  0  0
   60.0918   33.5061   49.7017 C   0  0  0  0  0  0  0  0  0  0  0  0
   61.3367   33.0878   48.9597 C   0  0  0  0  0  0  0  0  0  0  0  0
   61.4264   31.8071   48.3862 C   0  0  0  0  0  0  0  0  0  0  0  0
   62.5771   31.4261   47.6880 C   0  0  0  0  0  0  0  0  0  0  0  0
   63.6552   32.3119   47.5793 C   0  0  0  0  0  0  0  0  0  0  0  0
   63.5870   33.5754   48.1739 C   0  0  0  0  0  0  0  0  0  0  0  0
   62.4360   33.9604   48.8668 C   0  0  0  0  0  0  0  0  0  0  0  0
   57.2733   28.9348   45.3061 C   0  0  0  0  0  0  0  0  0  0  0  0
   56.0409   29.1361   45.1197 O   0  0  0  0  0  0  0  0  0  0  0  0
   57.7729   27.5400   45.5513 C   0  0  0  0  0  0  0  0  0  0  0  0
   56.8671   26.4980   45.8716 C   0  0  0  0  0  0  0  0  0  0  0  0
   55.4978   26.7367   45.9650 O   0  0  0  0  0  0  0  0  0  0  0  0
   57.3170   25.2353   46.0887 N   0  0  0  0  0  0  0  0  0  0  0  0
   58.6371   24.9320   45.9785 C   0  0  0  0  0  0  0  0  0  0  0  0
   59.0333   23.7505   46.1694 O   0  0  0  0  0  0  0  0  0  0  0  0
   59.5316   25.9012   45.6620 N   0  0  0  0  0  0  0  0  0  0  0  0
   59.1413   27.1837   45.4440 C   0  0  0  0  0  0  0  0  0  0  0  0
   60.0242   28.0343   45.1448 O   0  0  0  0  0  0  0  0  0  0  0  0
   56.6762   24.5279   46.3299 H   0  0  0  0  0  0  0  0  0  0  0  0
  1 17  1  0
 17 18  2  0
 17 19  1  0
 19 20  2  0
 20 21  1  0
 20 22  1  0
 22 23  1  0
 23 24  2  0
 23 25  1  0
 25 26  1  0
 26 27  2  0
  1  2  2  0
  2  3  1  0
  3  4  2  0
  4  5  1  0
  5  6  2  0
  6  7  1  0
  7  9  1  0
  9 10  1  0
 10 11  1  0
 11 12  2  0
 12 13  1  0
 13 14  2  0
 14 15  1  0
 15 16  2  0
  7  8  2  0
 26 19  1  0
  8  3  1  0
 16 11  1  0
 22 28  1  0
M  CHG 1  21  -1
M  CHG 1  25  -1
M  END
> <UniqueID>
60

> <SMILES>
O=C(/C=C\c1cccc(OCc2ccccc2)c1)c1c([O-])[nH]c(=O)[n-]c1=O

> <Energy>
58.052014567151694

> <Genealogy>
O=C(C=Cc1cccc(OCc2ccccc2)c1)c1c([O-])[nH]c(=O)[n-]c1=O (protonated)
O=C(/C=C\c1cccc(OCc2ccccc2)c1)c1c([O-])[nH]c(=O)[n-]c1=O (cis-trans isomerization)
O=C(/C=C\c1cccc(OCc2ccccc2)c1)c1c([O-])[nH]c(=O)[n-]c1=O (3D coordinates assigned)
O=C(/C=C\c1cccc(OCc2ccccc2)c1)c1c([O-])[nH]c(=O)[n-]c1=O (optimized conformer: 58.052014567151694 kcal/mol)

> <smiles>
O=C(C=Cc1cccc(OCc2ccccc2)c1)c1c(O)[nH]c(=O)[nH]c1=O

> <score_type>
oracle

> <origin>
adg

> <m_score__min__energy>
-14.550000000000001

> <m_primary>
energy

> <minimizedAffinity>
-7.16366

> <minimizedRMSD>
0.65546

> <CNNscore>
0.3041641712

> <CNNaffinity>
6.3711738586

> <CNN_VS>
1.9378827810

> <CNNaffinity_variance>
0.0040469128

$$$$
73:0


 33 36  0  0  0  0  0  0  0  0999 V2000
   60.3104   28.8316   44.7356 C   0  0  0  0  0  0  0  0  0  0  0  0
   59.8143   28.6240   45.9668 C   0  0  0  0  0  0  0  0  0  0  0  0
   58.8907   27.6358   46.3360 C   0  0  0  0  0  0  0  0  0  0  0  0
   58.3245   26.7152   45.5226 C   0  0  0  0  0  0  0  0  0  0  0  0
   58.6797   27.7992   47.6997 C   0  0  0  0  0  0  0  0  0  0  0  0
   59.4772   28.8491   48.1054 C   0  0  0  0  0  0  0  0  0  0  0  0
   60.1551   29.3662   47.0535 N   0  0  0  0  0  0  0  0  0  0  0  0
   57.6285   25.4823   45.9582 C   0  0  0  0  0  0  0  0  0  0  0  0
   58.1970   24.2845   46.1799 N   0  0  0  0  0  0  0  0  0  0  0  0
   57.1638   23.5071   46.5684 C   0  0  0  0  0  0  0  0  0  0  0  0
   57.3036   22.2936   46.8697 O   0  0  0  0  0  0  0  0  0  0  0  0
   55.9701   24.1353   46.6106 N   0  0  0  0  0  0  0  0  0  0  0  0
   56.2814   25.3815   46.2233 C   0  0  0  0  0  0  0  0  0  0  0  0
   55.3516   26.4071   46.1100 O   0  0  0  0  0  0  0  0  0  0  0  0
   59.5512   29.3348   49.4956 C   0  0  0  0  0  0  0  0  0  0  0  0
   58.5323   29.8561   50.0236 O   0  0  0  0  0  0  0  0  0  0  0  0
   60.7529   29.1697   50.2608 N   0  0  0  0  0  0  0  0  0  0  0  0
   61.3867   28.4627   50.0003 H   0  0  0  0  0  0  0  0  0  0  0  0
   61.0721   30.0097   51.4107 C   0  0  0  0  0  0  0  0  0  0  0  0
   61.7150   31.2820   50.9379 C   0  0  0  0  0  0  0  0  0  0  0  0
   60.9788   32.4740   50.8871 C   0  0  0  0  0  0  0  0  0  0  0  0
   61.5767   33.6313   50.3836 C   0  0  0  0  0  0  0  0  0  0  0  0
   62.8592   33.5949   49.9338 N   0  0  0  0  0  0  0  0  0  0  0  0
   63.5906   32.4484   49.9583 C   0  0  0  0  0  0  0  0  0  0  0  0
   63.0304   31.2691   50.4533 C   0  0  0  0  0  0  0  0  0  0  0  0
   60.9918   30.5788   47.0673 C   0  0  0  0  0  0  0  0  0  0  0  0
   60.1924   31.8592   46.9492 C   0  0  0  0  0  0  0  0  0  0  0  0
   58.7851   31.8664   46.8665 C   0  0  0  0  0  0  0  0  0  0  0  0
   58.0917   33.0726   46.7252 C   0  0  0  0  0  0  0  0  0  0  0  0
   58.7884   34.2788   46.6577 C   0  0  0  0  0  0  0  0  0  0  0  0
   60.1829   34.2839   46.7281 C   0  0  0  0  0  0  0  0  0  0  0  0
   60.8837   33.0821   46.8725 C   0  0  0  0  0  0  0  0  0  0  0  0
   62.2390   33.1124   46.9335 F   0  0  0  0  0  0  0  0  0  0  0  0
  1  2  2  0
  2  3  1  0
  3  4  2  0
  4  8  1  0
  8  9  1  0
  9 10  1  0
 10 11  2  0
 10 12  1  0
 12 13  1  0
 13 14  1  0
  3  5  1  0
  5  6  2  0
  6 15  1  0
 15 16  2  0
 15 17  1  0
 17 19  1  0
 19 20  1  0
 20 21  2  0
 21 22  1  0
 22 23  2  0
 23 24  1  0
 24 25  2  0
  6  7  1  0
  7 26  1  0
 26 27  1  0
 27 28  2  0
 28 29  1  0
 29 30  2  0
 30 31  1  0
 31 32  2  0
 32 33  1  0
  7  2  1  0
 32 27  1  0
 13  8  2  0
 25 20  1  0
 17 18  1  0
M  CHG 1   9  -1
M  CHG 1  12  -1
M  CHG 1  14  -1
M  END
> <UniqueID>
72

> <SMILES>
C=c1c(=Cc2[n-]c(=O)[n-]c2[O-])cc(C(=O)NCc2ccncc2)n1Cc1ccccc1F

> <Energy>
118.02851297941712

> <Genealogy>
C=c1c(=Cc2[n-]c(=O)[n-]c2[O-])cc(C(=O)NCc2ccncc2)n1Cc1ccccc1F (protonated)
C=c1c(=Cc2[n-]c(=O)[n-]c2[O-])cc(C(=O)NCc2ccncc2)n1Cc1ccccc1F (3D coordinates assigned)
C=c1c(=Cc2[n-]c(=O)[n-]c2[O-])cc(C(=O)NCc2ccncc2)n1Cc1ccccc1F (optimized conformer: 118.02851297941712 kcal/mol)

> <smiles>
C=c1c(=Cc2[nH]c(=O)[nH]c2O)cc(C(=O)NCc2ccncc2)n1Cc1ccccc1F

> <score_type>
oracle

> <origin>
adg

> <m_score__min__energy>
-17.199999999999999

> <m_primary>
energy

> <minimizedAffinity>
-8.66208

> <minimizedRMSD>
0.62701

> <CNNscore>
0.4408940077

> <CNNaffinity>
7.2020373344

> <CNN_VS>
3.1753351688

> <CNNaffinity_variance>
0.0057803788

$$$$
0:0


 38 42  0  0  0  0  0  0  0  0999 V2000
   56.9393   28.4221   44.0388 C   0  0  0  0  0  0  0  0  0  0  0  0
   57.9097   28.3025   44.9598 C   0  0  0  0  0  0  0  0  0  0  0  0
   58.3212   27.1046   45.5614 C   0  0  0  0  0  0  0  0  0  0  0  0
   57.8878   25.8544   45.3034 C   0  0  0  0  0  0  0  0  0  0  0  0
   59.3588   27.4384   46.4112 C   0  0  0  0  0  0  0  0  0  0  0  0
   59.5514   28.7944   46.2971 C   0  0  0  0  0  0  0  0  0  0  0  0
   58.6720   29.3358   45.4175 N   0  0  0  0  0  0  0  0  0  0  0  0
   60.6815   29.4907   46.9335 C   0  0  0  0  0  0  0  0  0  0  0  0
   61.2470   30.4465   46.3378 O   0  0  0  0  0  0  0  0  0  0  0  0
   61.0574   29.1627   48.2838 N   0  0  0  0  0  0  0  0  0  0  0  0
   61.2495   30.2459   49.2578 C   0  0  0  0  0  0  0  0  0  0  0  0
   61.2814   29.7046   50.6939 C   0  0  0  0  0  0  0  0  0  0  0  0
   60.2522   28.6703   50.8599 N   0  0  0  0  0  0  0  0  0  0  0  0
   59.5054   28.5841   52.0779 C   0  0  0  0  0  0  0  0  0  0  0  0
   59.7802   27.6605   52.8934 O   0  0  0  0  0  0  0  0  0  0  0  0
   58.3875   29.4661   52.3202 N   0  0  0  0  0  0  0  0  0  0  0  0
   57.5985   29.3238   53.5584 C   0  0  0  0  0  0  0  0  0  0  0  0
   56.1216   29.7625   53.3926 C   0  0  0  0  0  0  0  0  0  0  0  0
   55.8009   30.2175   52.0912 O   0  0  0  0  0  0  0  0  0  0  0  0
   56.7378   31.1847   51.6806 C   0  0  0  0  0  0  0  0  0  0  0  0
   58.0407   30.4862   51.3182 C   0  0  0  0  0  0  0  0  0  0  0  0
   60.1509   27.5626   49.9052 C   0  0  0  0  0  0  0  0  0  0  0  0
   61.1009   27.7628   48.7241 C   0  0  0  0  0  0  0  0  0  0  0  0
   57.2042   25.0115   46.3023 C   0  0  0  0  0  0  0  0  0  0  0  0
   57.8514   24.1252   47.0886 N   0  0  0  0  0  0  0  0  0  0  0  0
   56.8682   23.6058   47.8506 C   0  0  0  0  0  0  0  0  0  0  0  0
   57.0891   22.7402   48.7426 O   0  0  0  0  0  0  0  0  0  0  0  0
   55.6342   24.0873   47.5875 N   0  0  0  0  0  0  0  0  0  0  0  0
   55.8614   24.9672   46.5986 C   0  0  0  0  0  0  0  0  0  0  0  0
   54.8572   25.6906   45.9608 O   0  0  0  0  0  0  0  0  0  0  0  0
   58.6586   30.7424   44.9796 C   0  0  0  0  0  0  0  0  0  0  0  0
   58.7723   31.6806   46.1574 C   0  0  0  0  0  0  0  0  0  0  0  0
   58.3862   31.2621   47.4424 C   0  0  0  0  0  0  0  0  0  0  0  0
   58.4645   32.1429   48.5247 C   0  0  0  0  0  0  0  0  0  0  0  0
   58.9269   33.4464   48.3350 C   0  0  0  0  0  0  0  0  0  0  0  0
   59.3234   33.8770   47.0604 C   0  0  0  0  0  0  0  0  0  0  0  0
   59.7836   35.2909   46.8480 C   0  0  0  0  0  0  0  0  0  0  0  0
   59.2290   32.9960   45.9724 C   0  0  0  0  0  0  0  0  0  0  0  0
  1  2  2  0
  2  3  1  0
  3  4  2  0
  4 24  1  0
 24 25  1  0
 25 26  1  0
 26 27  2  0
 26 28  1  0
 28 29  1  0
 29 30  1  0
  3  5  1  0
  5  6  2  0
  6  8  1  0
  8  9  2  0
  8 10  1  0
 10 11  1  0
 11 12  1  0
 12 13  1  0
 13 14  1  0
 14 15  2  0
 14 16  1  0
 16 17  1  0
 17 18  1  0
 18 19  1  0
 19 20  1  0
 20 21  1  0
 13 22  1  0
 22 23  1  0
  6  7  1  0
  7 31  1  0
 31 32  1  0
 32 33  2  0
 33 34  1  0
 34 35  2  0
 35 36  1  0
 36 37  1  0
 36 38  2  0
  7  2  1  0
 38 32  1  0
 29 24  2  0
 23 10  1  0
 21 16  1  0
M  CHG 1  25  -1
M  CHG 1  28  -1
M  CHG 1  30  -1
M  END
> <UniqueID>
1

> <SMILES>
C=c1/c(=C/c2[n-]c(=O)[n-]c2[O-])cc(C(=O)N2CCN(C(=O)N3CCOCC3)CC2)n1Cc1cccc(C)c1

> <Energy>
152.01436981288873

> <Genealogy>
C=c1c(=Cc2[n-]c(=O)[n-]c2[O-])cc(C(=O)N2CCN(C(=O)N3CCOCC3)CC2)n1Cc1cccc(C)c1 (protonated)
C=c1/c(=C/c2[n-]c(=O)[n-]c2[O-])cc(C(=O)N2CCN(C(=O)N3CCOCC3)CC2)n1Cc1cccc(C)c1 (cis-trans isomerization)
C=c1/c(=C/c2[n-]c(=O)[n-]c2[O-])cc(C(=O)N2CCN(C(=O)N3CCOCC3)CC2)n1Cc1cccc(C)c1 (3D coordinates assigned)
C=c1/c(=C/c2[n-]c(=O)[n-]c2[O-])cc(C(=O)N2CCN(C(=O)N3CCOCC3)CC2)n1Cc1cccc(C)c1 (nonaromatic ring conformer: 152.01436981288873 kcal/mol)

> <smiles>
C=c1c(=Cc2[nH]c(=O)[nH]c2O)cc(C(=O)N2CCN(C(=O)N3CCOCC3)CC2)n1Cc1cccc(C)c1

> <score_type>
oracle

> <origin>
adg

> <m_score__min__energy>
-17.16

> <m_primary>
energy

> <minimizedAffinity>
-3.64974

> <minimizedRMSD>
0.63898

> <CNNscore>
0.0682822838

> <CNNaffinity>
6.0746498108

> <CNN_VS>
0.4147909582

> <CNNaffinity_variance>
0.5259344578

$$$$
3:0


 30 33  0  0  0  0  0  0  0  0999 V2000
   56.1913   31.6487   52.1532 C   0  0  0  0  0  0  0  0  0  0  0  0
   56.0023   30.4656   52.7598 C   0  0  0  0  0  0  0  0  0  0  0  0
   54.7792   29.9471   53.1981 C   0  0  0  0  0  0  0  0  0  0  0  0
   53.5653   30.5269   53.1072 C   0  0  0  0  0  0  0  0  0  0  0  0
   55.0676   28.7351   53.8110 C   0  0  0  0  0  0  0  0  0  0  0  0
   56.4312   28.5518   53.7058 C   0  0  0  0  0  0  0  0  0  0  0  0
   57.1678   27.3615   54.2419 C   0  0  0  0  0  0  0  0  0  0  0  0
   57.0019   29.6024   53.0724 N   0  0  0  0  0  0  0  0  0  0  0  0
   52.7890   30.6247   51.8588 C   0  0  0  0  0  0  0  0  0  0  0  0
   52.9111   29.7505   50.8437 N   0  0  0  0  0  0  0  0  0  0  0  0
   51.9731   30.1598   49.9624 C   0  0  0  0  0  0  0  0  0  0  0  0
   51.7857   29.5871   48.8578 O   0  0  0  0  0  0  0  0  0  0  0  0
   51.2446   31.2228   50.3638 N   0  0  0  0  0  0  0  0  0  0  0  0
   51.7636   31.4985   51.5706 C   0  0  0  0  0  0  0  0  0  0  0  0
   51.2765   32.4955   52.4060 O   0  0  0  0  0  0  0  0  0  0  0  0
   58.4004   29.7441   52.7674 C   0  0  0  0  0  0  0  0  0  0  0  0
   59.3728   30.2494   53.6138 C   0  0  0  0  0  0  0  0  0  0  0  0
   60.5468   30.1293   52.8944 C   0  0  0  0  0  0  0  0  0  0  0  0
   60.2650   29.5855   51.6914 N   0  0  0  0  0  0  0  0  0  0  0  0
   58.9665   29.3412   51.6152 N   0  0  0  0  0  0  0  0  0  0  0  0
   58.4974   28.9360   50.8503 H   0  0  0  0  0  0  0  0  0  0  0  0
   61.2364   29.2062   50.6712 C   0  0  0  0  0  0  0  0  0  0  0  0
   60.7229   29.5851   49.3095 C   0  0  0  0  0  0  0  0  0  0  0  0
   60.2295   28.5910   48.4468 C   0  0  0  0  0  0  0  0  0  0  0  0
   59.7093   28.9364   47.1963 C   0  0  0  0  0  0  0  0  0  0  0  0
   59.6689   30.2754   46.7993 C   0  0  0  0  0  0  0  0  0  0  0  0
   59.1621   30.6090   45.5869 F   0  0  0  0  0  0  0  0  0  0  0  0
   60.1439   31.2724   47.6571 C   0  0  0  0  0  0  0  0  0  0  0  0
   60.6649   30.9329   48.9103 C   0  0  0  0  0  0  0  0  0  0  0  0
   61.1089   31.9182   49.7302 F   0  0  0  0  0  0  0  0  0  0  0  0
  1  2  2  0
  2  3  1  0
  3  4  2  0
  4  9  1  0
  9 10  1  0
 10 11  1  0
 11 12  2  0
 11 13  1  0
 13 14  1  0
 14 15  1  0
  3  5  1  0
  5  6  2  0
  6  7  1  0
  6  8  1  0
  8 16  1  0
 16 17  1  0
 17 18  2  0
 18 19  1  0
 19 22  1  0
 22 23  1  0
 23 24  2  0
 24 25  1  0
 25 26  2  0
 26 27  1  0
 26 28  1  0
 28 29  2  0
 29 30  1  0
 19 20  1  0
  8  2  1  0
 20 16  2  0
 14  9  2  0
 29 23  1  0
 20 21  1  0
M  CHG 1  10  -1
M  CHG 1  13  -1
M  CHG 1  15  -1
M  CHG 1  20   1
M  END
> <UniqueID>
3

> <SMILES>
C=c1c(=Cc2[n-]c(=O)[n-]c2[O-])cc(C)n1-c1ccn(Cc2ccc(F)cc2F)[nH+]1

> <Energy>
147.65168014634997

> <Genealogy>
C=c1c(=Cc2[n-]c(=O)[n-]c2[O-])cc(C)n1-c1ccn(Cc2ccc(F)cc2F)[nH+]1 (protonated)
C=c1c(=Cc2[n-]c(=O)[n-]c2[O-])cc(C)n1-c1ccn(Cc2ccc(F)cc2F)[nH+]1 (3D coordinates assigned)
C=c1c(=Cc2[n-]c(=O)[n-]c2[O-])cc(C)n1-c1ccn(Cc2ccc(F)cc2F)[nH+]1 (optimized conformer: 147.65168014634997 kcal/mol)

> <smiles>
C=c1c(=Cc2[nH]c(=O)[nH]c2O)cc(C)n1-c1ccn(Cc2ccc(F)cc2F)n1

> <score_type>
oracle

> <origin>
adg

> <m_score__min__energy>
-15.08

> <m_primary>
energy

> <minimizedAffinity>
-6.06773

> <minimizedRMSD>
1.28036

> <CNNscore>
0.0491379946

> <CNNaffinity>
5.4194664955

> <CNN_VS>
0.2663017213

> <CNNaffinity_variance>
0.1710922718

$$$$
6:0


 25 27  0  0  0  0  0  0  0  0999 V2000
   56.4337   29.9803   53.9454 N   0  0  0  0  0  0  0  0  0  0  0  0
   56.5606   30.3644   52.6507 C   0  0  0  0  0  0  0  0  0  0  0  0
   55.3208   30.4957   52.0597 C   0  0  0  0  0  0  0  0  0  0  0  0
   54.3765   30.1653   53.0191 C   0  0  0  0  0  0  0  0  0  0  0  0
   53.0341   30.1330   52.8593 C   0  0  0  0  0  0  0  0  0  0  0  0
   55.0986   29.8348   54.1755 C   0  0  0  0  0  0  0  0  0  0  0  0
   54.5652   29.4154   55.3374 C   0  0  0  0  0  0  0  0  0  0  0  0
   57.8340   30.5839   51.9268 C   0  0  0  0  0  0  0  0  0  0  0  0
   58.1647   29.8112   50.9875 O   0  0  0  0  0  0  0  0  0  0  0  0
   58.7305   31.6361   52.3249 N   0  0  0  0  0  0  0  0  0  0  0  0
   58.2294   33.0041   52.4893 C   0  0  0  0  0  0  0  0  0  0  0  0
   59.1186   33.7583   53.4820 C   0  0  0  0  0  0  0  0  0  0  0  0
   60.4785   33.6795   53.0954 O   0  0  0  0  0  0  0  0  0  0  0  0
   60.9210   32.3378   53.1655 C   0  0  0  0  0  0  0  0  0  0  0  0
   60.1746   31.4622   52.1527 C   0  0  0  0  0  0  0  0  0  0  0  0
   52.3060   30.4175   51.6018 C   0  0  0  0  0  0  0  0  0  0  0  0
   52.2859   29.6384   50.5062 N   0  0  0  0  0  0  0  0  0  0  0  0
   51.5322   30.3393   49.6315 C   0  0  0  0  0  0  0  0  0  0  0  0
   51.2775   29.9242   48.4705 O   0  0  0  0  0  0  0  0  0  0  0  0
   51.0792   31.5218   50.0971 N   0  0  0  0  0  0  0  0  0  0  0  0
   51.5807   31.5569   51.3431 C   0  0  0  0  0  0  0  0  0  0  0  0
   51.3785   32.6108   52.2251 O   0  0  0  0  0  0  0  0  0  0  0  0
   57.5479   29.6586   54.8566 C   0  0  0  0  0  0  0  0  0  0  0  0
   59.0894   27.8901   54.0535 C   0  0  0  0  0  0  0  0  0  0  0  0
   57.9656   28.2245   54.6943 C   0  0  0  0  0  0  0  0  0  0  0  0
 24 25  2  0
 25 23  1  0
 23  1  1  0
  1  2  1  0
  2  8  1  0
  8  9  2  0
  8 10  1  0
 10 11  1  0
 11 12  1  0
 12 13  1  0
 13 14  1  0
 14 15  1  0
  2  3  2  0
  3  4  1  0
  4  5  2  0
  5 16  1  0
 16 17  1  0
 17 18  1  0
 18 19  2  0
 18 20  1  0
 20 21  1  0
 21 22  1  0
  4  6  1  0
  6  7  2  0
  6  1  1  0
 15 10  1  0
 21 16  2  0
M  CHG 1  17  -1
M  CHG 1  20  -1
M  CHG 1  22  -1
M  END
> <UniqueID>
6

> <SMILES>
C=CCn1c(C(=O)N2CCOCC2)cc(=Cc2[n-]c(=O)[n-]c2[O-])c1=C

> <Energy>
109.63976868271573

> <Genealogy>
C=CCn1c(C(=O)N2CCOCC2)cc(=Cc2[n-]c(=O)[n-]c2[O-])c1=C (protonated)
C=CCn1c(C(=O)N2CCOCC2)cc(=Cc2[n-]c(=O)[n-]c2[O-])c1=C (3D coordinates assigned)
C=CCn1c(C(=O)N2CCOCC2)cc(=Cc2[n-]c(=O)[n-]c2[O-])c1=C (nonaromatic ring conformer: 109.63976868271573 kcal/mol)

> <smiles>
C=CCn1c(C(=O)N2CCOCC2)cc(=Cc2[nH]c(=O)[nH]c2O)c1=C

> <score_type>
oracle

> <origin>
adg

> <m_score__min__energy>
-15.91

> <m_primary>
energy

> <minimizedAffinity>
-4.49451

> <minimizedRMSD>
0.80477

> <CNNscore>
0.1308256537

> <CNNaffinity>
4.0971655846

> <CNN_VS>
0.5360143781

> <CNNaffinity_variance>
0.7506714463

$$$$
13:0


 33 36  0  0  0  0  0  0  0  0999 V2000
   59.6611   29.2557   44.7223 C   0  0  0  0  0  0  0  0  0  0  0  0
   59.5841   28.7071   45.9439 C   0  0  0  0  0  0  0  0  0  0  0  0
   58.8891   27.5369   46.2910 C   0  0  0  0  0  0  0  0  0  0  0  0
   58.0375   26.7627   45.5887 C   0  0  0  0  0  0  0  0  0  0  0  0
   59.1873   27.2886   47.6166 C   0  0  0  0  0  0  0  0  0  0  0  0
   59.9726   28.3330   48.0538 C   0  0  0  0  0  0  0  0  0  0  0  0
   60.2630   29.1769   47.0301 N   0  0  0  0  0  0  0  0  0  0  0  0
   60.3856   28.4972   49.4611 C   0  0  0  0  0  0  0  0  0  0  0  0
   61.0849   27.5950   49.9930 O   0  0  0  0  0  0  0  0  0  0  0  0
   59.9568   29.6269   50.2468 N   0  0  0  0  0  0  0  0  0  0  0  0
   60.8344   30.1873   51.2794 C   0  0  0  0  0  0  0  0  0  0  0  0
   59.9943   30.6550   52.4718 C   0  0  0  0  0  0  0  0  0  0  0  0
   58.9517   31.5133   52.0474 O   0  0  0  0  0  0  0  0  0  0  0  0
   58.0443   30.7969   51.2310 C   0  0  0  0  0  0  0  0  0  0  0  0
   58.7201   30.3487   49.9323 C   0  0  0  0  0  0  0  0  0  0  0  0
   57.5208   25.4504   46.0053 C   0  0  0  0  0  0  0  0  0  0  0  0
   58.2589   24.3273   46.0872 N   0  0  0  0  0  0  0  0  0  0  0  0
   57.3435   23.3715   46.3560 C   0  0  0  0  0  0  0  0  0  0  0  0
   57.6541   22.1636   46.5242 O   0  0  0  0  0  0  0  0  0  0  0  0
   56.0679   23.8096   46.4197 N   0  0  0  0  0  0  0  0  0  0  0  0
   56.1981   25.1250   46.1790 C   0  0  0  0  0  0  0  0  0  0  0  0
   55.1287   26.0088   46.1146 O   0  0  0  0  0  0  0  0  0  0  0  0
   61.1589   30.3489   47.1052 C   0  0  0  0  0  0  0  0  0  0  0  0
   60.4155   31.6809   47.1258 C   0  0  0  0  0  0  0  0  0  0  0  0
   59.0651   31.6744   46.7218 C   0  0  0  0  0  0  0  0  0  0  0  0
   58.3190   32.8496   46.6791 C   0  0  0  0  0  0  0  0  0  0  0  0
   58.8999   34.0561   47.0514 C   0  0  0  0  0  0  0  0  0  0  0  0
   60.2214   34.0877   47.4967 C   0  0  0  0  0  0  0  0  0  0  0  0
   60.9899   32.9073   47.5795 C   0  0  0  0  0  0  0  0  0  0  0  0
   62.4038   33.0042   48.1215 C   0  0  0  0  0  0  0  0  0  0  0  0
   62.6200   34.2403   48.6969 F   0  0  0  0  0  0  0  0  0  0  0  0
   62.6134   32.0074   49.0544 F   0  0  0  0  0  0  0  0  0  0  0  0
   63.3442   32.8524   47.1164 F   0  0  0  0  0  0  0  0  0  0  0  0
  1  2  2  0
  2  3  1  0
  3  4  2  0
  4 16  1  0
 16 17  1  0
 17 18  1  0
 18 19  2  0
 18 20  1  0
 20 21  1  0
 21 22  1  0
  3  5  1  0
  5  6  2  0
  6  8  1  0
  8  9  2  0
  8 10  1  0
 10 11  1  0
 11 12  1  0
 12 13  1  0
 13 14  1  0
 14 15  1  0
  6  7  1  0
  7 23  1  0
 23 24  1  0
 24 25  2  0
 25 26  1  0
 26 27  2  0
 27 28  1  0
 28 29  2  0
 29 30  1  0
 30 31  1  0
 30 32  1  0
 30 33  1  0
  7  2  1  0
 29 24  1  0
 21 16  2  0
 15 10  1  0
M  CHG 1  17  -1
M  CHG 1  20  -1
M  CHG 1  22  -1
M  END
> <UniqueID>
11

> <SMILES>
C=c1c(=Cc2[n-]c(=O)[n-]c2[O-])cc(C(=O)N2CCOCC2)n1Cc1ccccc1C(F)(F)F

> <Energy>
137.38746927422218

> <Genealogy>
C=c1c(=Cc2[n-]c(=O)[n-]c2[O-])cc(C(=O)N2CCOCC2)n1Cc1ccccc1C(F)(F)F (protonated)
C=c1c(=Cc2[n-]c(=O)[n-]c2[O-])cc(C(=O)N2CCOCC2)n1Cc1ccccc1C(F)(F)F (3D coordinates assigned)
C=c1c(=Cc2[n-]c(=O)[n-]c2[O-])cc(C(=O)N2CCOCC2)n1Cc1ccccc1C(F)(F)F (nonaromatic ring conformer: 137.38746927422218 kcal/mol)

> <smiles>
C=c1c(=Cc2[nH]c(=O)[nH]c2O)cc(C(=O)N2CCOCC2)n1Cc1ccccc1C(F)(F)F

> <score_type>
oracle

> <origin>
adg

> <m_score__min__energy>
-16.199999999999999

> <m_primary>
energy

> <minimizedAffinity>
-8.75183

> <minimizedRMSD>
0.87820

> <CNNscore>
0.4065048099

> <CNNaffinity>
6.7933144569

> <CNN_VS>
2.7615149021

> <CNNaffinity_variance>
0.0491319709

$$$$
29:0


 27 29  0  0  0  0  0  0  0  0999 V2000
   58.3259   27.0533   45.7692 C   0  0  0  0  0  0  0  0  0  0  0  0
   59.5859   26.5980   46.1569 C   0  0  0  0  0  0  0  0  0  0  0  0
   59.9059   25.2881   46.0333 N   0  0  0  0  0  0  0  0  0  0  0  0
   59.0485   24.3542   45.5354 C   0  0  0  0  0  0  0  0  0  0  0  0
   59.4901   23.0870   45.5158 C   0  0  0  0  0  0  0  0  0  0  0  0
   57.7450   24.7612   45.1024 C   0  0  0  0  0  0  0  0  0  0  0  0
   56.8573   23.8964   44.5424 C   0  0  0  0  0  0  0  0  0  0  0  0
   57.4206   26.1330   45.2262 C   0  0  0  0  0  0  0  0  0  0  0  0
   61.9821   31.4149   48.3735 C   0  0  0  0  0  0  0  0  0  0  0  0
   62.3602   31.3501   49.5739 O   0  0  0  0  0  0  0  0  0  0  0  0
   60.7404   30.8000   47.9880 N   0  0  0  0  0  0  0  0  0  0  0  0
   59.7035   31.5907   47.3105 C   0  0  0  0  0  0  0  0  0  0  0  0
   59.0049   30.7423   46.2402 C   0  0  0  0  0  0  0  0  0  0  0  0
   58.7196   29.3832   46.7211 N   0  0  0  0  0  0  0  0  0  0  0  0
   57.9729   28.4879   45.8757 C   0  0  0  0  0  0  0  0  0  0  0  0
   57.0102   28.9388   45.1972 O   0  0  0  0  0  0  0  0  0  0  0  0
   59.0079   29.0218   48.1159 C   0  0  0  0  0  0  0  0  0  0  0  0
   60.4302   29.4547   48.4918 C   0  0  0  0  0  0  0  0  0  0  0  0
   63.3249   33.3389   47.6191 C   0  0  0  0  0  0  0  0  0  0  0  0
   62.8396   32.1186   47.4012 C   0  0  0  0  0  0  0  0  0  0  0  0
   55.5226   23.5750   45.0857 C   0  0  0  0  0  0  0  0  0  0  0  0
   55.0264   22.3258   45.1393 N   0  0  0  0  0  0  0  0  0  0  0  0
   53.8568   22.4806   45.7956 C   0  0  0  0  0  0  0  0  0  0  0  0
   53.0799   21.5193   46.0331 O   0  0  0  0  0  0  0  0  0  0  0  0
   53.5895   23.7451   46.1886 N   0  0  0  0  0  0  0  0  0  0  0  0
   54.6592   24.4224   45.7442 C   0  0  0  0  0  0  0  0  0  0  0  0
   54.8580   25.7798   45.9693 O   0  0  0  0  0  0  0  0  0  0  0  0
 19 20  2  0
 20  9  1  0
  9 10  2  0
  9 11  1  0
 11 12  1  0
 12 13  1  0
 13 14  1  0
 14 15  1  0
 15 16  2  0
 15  1  1  0
  1  2  1  0
  2  3  2  0
  3  4  1  0
  4  5  2  0
  4  6  1  0
  6  7  2  0
  7 21  1  0
 21 22  1  0
 22 23  1  0
 23 24  2  0
 23 25  1  0
 25 26  1  0
 26 27  1  0
  6  8  1  0
 14 17  1  0
 17 18  1  0
 18 11  1  0
  8  1  2  0
 26 21  2  0
M  CHG 1  22  -1
M  CHG 1  25  -1
M  CHG 1  27  -1
M  END
> <UniqueID>
25

> <SMILES>
C=CC(=O)N1CCN(C(=O)c2cnc(=C)/c(=C/c3[n-]c(=O)[n-]c3[O-])c2)CC1

> <Energy>
97.40039940112356

> <Genealogy>
C=CC(=O)N1CCN(C(=O)c2cnc(=C)c(=Cc3[n-]c(=O)[n-]c3[O-])c2)CC1 (protonated)
C=CC(=O)N1CCN(C(=O)c2cnc(=C)/c(=C/c3[n-]c(=O)[n-]c3[O-])c2)CC1 (cis-trans isomerization)
C=CC(=O)N1CCN(C(=O)c2cnc(=C)/c(=C/c3[n-]c(=O)[n-]c3[O-])c2)CC1 (3D coordinates assigned)
C=CC(=O)N1CCN(C(=O)c2cnc(=C)/c(=C/c3[n-]c(=O)[n-]c3[O-])c2)CC1 (nonaromatic ring conformer: 97.40039940112356 kcal/mol)

> <smiles>
C=CC(=O)N1CCN(C(=O)c2cnc(=C)c(=Cc3[nH]c(=O)[nH]c3O)c2)CC1

> <score_type>
oracle

> <origin>
adg

> <m_score__min__energy>
-17.530000000000001

> <m_primary>
energy

> <minimizedAffinity>
-7.47514

> <minimizedRMSD>
1.57224

> <CNNscore>
0.0455571674

> <CNNaffinity>
5.4472918510

> <CNN_VS>
0.2481631935

> <CNNaffinity_variance>
0.0322036743

$$$$
39:0


 34 37  0  0  0  0  0  0  0  0999 V2000
   59.7147   27.7917   45.4302 C   0  0  0  0  0  0  0  0  0  0  0  0
   60.3956   27.7638   44.3676 O   0  0  0  0  0  0  0  0  0  0  0  0
   59.7384   28.9677   46.2692 N   0  0  0  0  0  0  0  0  0  0  0  0
   60.8724   29.9014   46.1491 C   0  0  0  0  0  0  0  0  0  0  0  0
   60.6475   31.1942   46.9434 C   0  0  0  0  0  0  0  0  0  0  0  0
   60.1154   30.8968   48.2820 N   0  0  0  0  0  0  0  0  0  0  0  0
   60.5457   31.6454   49.4344 C   0  0  0  0  0  0  0  0  0  0  0  0
   60.6185   31.0713   50.5564 O   0  0  0  0  0  0  0  0  0  0  0  0
   59.0744   29.8737   48.4583 C   0  0  0  0  0  0  0  0  0  0  0  0
   58.5881   29.3294   47.1115 C   0  0  0  0  0  0  0  0  0  0  0  0
   57.5569   24.2347   47.9082 C   0  0  0  0  0  0  0  0  0  0  0  0
   57.8688   25.0470   46.8845 C   0  0  0  0  0  0  0  0  0  0  0  0
   57.5667   24.8486   45.5260 C   0  0  0  0  0  0  0  0  0  0  0  0
   56.7608   23.9561   44.9158 C   0  0  0  0  0  0  0  0  0  0  0  0
   58.2723   25.8154   44.8298 C   0  0  0  0  0  0  0  0  0  0  0  0
   58.9013   26.6081   45.7680 C   0  0  0  0  0  0  0  0  0  0  0  0
   58.6681   26.1369   47.0170 N   0  0  0  0  0  0  0  0  0  0  0  0
   59.2867   26.6170   48.2588 C   0  0  0  0  0  0  0  0  0  0  0  0
   55.3115   23.8201   45.1373 C   0  0  0  0  0  0  0  0  0  0  0  0
   54.6286   22.6630   45.0306 N   0  0  0  0  0  0  0  0  0  0  0  0
   53.3884   22.9928   45.4495 C   0  0  0  0  0  0  0  0  0  0  0  0
   52.4410   22.1633   45.4830 O   0  0  0  0  0  0  0  0  0  0  0  0
   53.2456   24.2777   45.8423 N   0  0  0  0  0  0  0  0  0  0  0  0
   54.4743   24.7851   45.6518 C   0  0  0  0  0  0  0  0  0  0  0  0
   54.8147   26.1048   45.9425 O   0  0  0  0  0  0  0  0  0  0  0  0
   54.1705   26.6886   46.2921 H   0  0  0  0  0  0  0  0  0  0  0  0
   60.8437   33.1211   49.3544 C   0  0  0  0  0  0  0  0  0  0  0  0
   59.5665   33.9419   49.1271 C   0  0  0  0  0  0  0  0  0  0  0  0
   59.1732   33.9641   47.6689 C   0  0  0  0  0  0  0  0  0  0  0  0
   59.9574   34.6573   46.7315 C   0  0  0  0  0  0  0  0  0  0  0  0
   59.5694   34.7107   45.3882 C   0  0  0  0  0  0  0  0  0  0  0  0
   58.3983   34.0698   44.9734 C   0  0  0  0  0  0  0  0  0  0  0  0
   57.6088   33.3850   45.8997 C   0  0  0  0  0  0  0  0  0  0  0  0
   57.9929   33.3329   47.2440 C   0  0  0  0  0  0  0  0  0  0  0  0
 11 12  2  0
 12 13  1  0
 13 14  2  0
 14 19  1  0
 19 20  1  0
 20 21  1  0
 21 22  2  0
 21 23  1  0
 23 24  1  0
 24 25  1  0
 13 15  1  0
 15 16  2  0
 16  1  1  0
  1  2  2  0
  1  3  1  0
  3  4  1  0
  4  5  1  0
  5  6  1  0
  6  7  1  0
  7  8  2  0
  7 27  1  0
 27 28  1  0
 28 29  1  0
 29 30  2  0
 30 31  1  0
 31 32  2  0
 32 33  1  0
 33 34  2  0
  6  9  1  0
  9 10  1  0
 16 17  1  0
 17 18  1  0
 17 12  1  0
 24 19  2  0
 10  3  1  0
 34 29  1  0
 25 26  1  0
M  CHG 1  20  -1
M  CHG 1  23  -1
M  END
> <UniqueID>
35

> <SMILES>
C=c1c(=Cc2[n-]c(=O)[n-]c2O)cc(C(=O)N2CCN(C(=O)CCc3ccccc3)CC2)n1C

> <Energy>
132.64043241666866

> <Genealogy>
C=c1c(=Cc2[n-]c(=O)[n-]c2O)cc(C(=O)N2CCN(C(=O)CCc3ccccc3)CC2)n1C (protonated)
C=c1c(=Cc2[n-]c(=O)[n-]c2O)cc(C(=O)N2CCN(C(=O)CCc3ccccc3)CC2)n1C (3D coordinates assigned)
C=c1c(=Cc2[n-]c(=O)[n-]c2O)cc(C(=O)N2CCN(C(=O)CCc3ccccc3)CC2)n1C (nonaromatic ring conformer: 132.64043241666866 kcal/mol)

> <smiles>
C=c1c(=Cc2[nH]c(=O)[nH]c2O)cc(C(=O)N2CCN(C(=O)CCc3ccccc3)CC2)n1C

> <score_type>
oracle

> <origin>
adg

> <m_score__min__energy>
-14.48

> <m_primary>
energy

> <minimizedAffinity>
-6.70076

> <minimizedRMSD>
0.34108

> <CNNscore>
0.1075126231

> <CNNaffinity>
6.0657424927

> <CNN_VS>
0.6521438956

> <CNNaffinity_variance>
0.2878095210

$$$$
54:0


 35 38  0  0  0  0  0  0  0  0999 V2000
   60.5679   30.0408   48.3075 C   0  0  0  0  0  0  0  0  0  0  0  0
   60.5705   31.3588   48.7948 C   0  0  0  0  0  0  0  0  0  0  0  0
   60.3820   31.6091   50.1577 C   0  0  0  0  0  0  0  0  0  0  0  0
   60.1938   30.5460   51.0503 C   0  0  0  0  0  0  0  0  0  0  0  0
   60.1838   29.2308   50.5672 C   0  0  0  0  0  0  0  0  0  0  0  0
   60.3703   28.9795   49.2053 C   0  0  0  0  0  0  0  0  0  0  0  0
   59.9244   30.8737   52.7599 S   0  0  0  0  0  0  0  0  0  0  0  0
   60.3949   29.7056   53.5818 O   0  0  0  0  0  0  0  0  0  0  0  0
   60.7214   32.0868   53.1531 O   0  0  0  0  0  0  0  0  0  0  0  0
   58.2260   31.1670   53.0475 N   0  0  0  0  0  0  0  0  0  0  0  0
   57.4779   31.1330   51.7712 C   0  0  0  0  0  0  0  0  0  0  0  0
   56.0058   30.7836   51.9996 C   0  0  0  0  0  0  0  0  0  0  0  0
   55.8988   29.4177   52.5471 N   0  0  0  0  0  0  0  0  0  0  0  0
   56.9619   29.0352   53.5065 C   0  0  0  0  0  0  0  0  0  0  0  0
   57.6933   30.2575   54.0923 C   0  0  0  0  0  0  0  0  0  0  0  0
   54.5263   29.0039   52.9150 C   0  0  0  0  0  0  0  0  0  0  0  0
   53.6497   30.1159   53.5198 C   0  0  0  0  0  0  0  0  0  0  0  0
   53.7202   30.1103   54.9170 O   0  0  0  0  0  0  0  0  0  0  0  0
   53.3990   29.2592   55.2535 H   0  0  0  0  0  0  0  0  0  0  0  0
   60.7801   29.7682   46.8416 C   0  0  0  0  0  0  0  0  0  0  0  0
   60.3350   26.7761   46.6371 C   0  0  0  0  0  0  0  0  0  0  0  0
   59.4944   27.6859   46.1160 C   0  0  0  0  0  0  0  0  0  0  0  0
   58.2806   27.4193   45.4614 C   0  0  0  0  0  0  0  0  0  0  0  0
   57.7566   26.2659   45.0008 C   0  0  0  0  0  0  0  0  0  0  0  0
   57.6483   28.6384   45.3042 C   0  0  0  0  0  0  0  0  0  0  0  0
   58.5065   29.6010   45.7907 C   0  0  0  0  0  0  0  0  0  0  0  0
   58.2379   31.0748   45.7368 C   0  0  0  0  0  0  0  0  0  0  0  0
   59.6333   29.0312   46.2824 N   0  0  0  0  0  0  0  0  0  0  0  0
   57.2466   25.1628   45.8299 C   0  0  0  0  0  0  0  0  0  0  0  0
   57.9480   24.0595   46.1548 N   0  0  0  0  0  0  0  0  0  0  0  0
   57.0404   23.2928   46.7963 C   0  0  0  0  0  0  0  0  0  0  0  0
   57.3245   22.1641   47.2743 O   0  0  0  0  0  0  0  0  0  0  0  0
   55.8019   23.8247   46.8736 N   0  0  0  0  0  0  0  0  0  0  0  0
   55.9482   25.0004   46.2447 C   0  0  0  0  0  0  0  0  0  0  0  0
   54.9138   25.9059   46.0468 O   0  0  0  0  0  0  0  0  0  0  0  0
 21 22  2  0
 22 23  1  0
 23 24  2  0
 24 29  1  0
 29 30  1  0
 30 31  1  0
 31 32  2  0
 31 33  1  0
 33 34  1  0
 34 35  1  0
 23 25  1  0
 25 26  2  0
 26 27  1  0
 26 28  1  0
 28 20  1  0
 20  1  1  0
  1  2  2  0
  2  3  1  0
  3  4  2  0
  4  7  1  0
  7  8  2  0
  7  9  2  0
  7 10  1  0
 10 11  1  0
 11 12  1  0
 12 13  1  0
 13 16  1  0
 16 17  1  0
 17 18  1  0
 13 14  1  0
 14 15  1  0
  4  5  1  0
  5  6  2  0
 28 22  1  0
  6  1  1  0
 34 29  2  0
 15 10  1  0
 18 19  1  0
M  CHG 1  30  -1
M  CHG 1  33  -1
M  CHG 1  35  -1
M  END
> <UniqueID>
47

> <SMILES>
C=c1c(=Cc2[n-]c(=O)[n-]c2[O-])cc(C)n1Cc1ccc(S(=O)(=O)N2CCN(CCO)CC2)cc1

> <Energy>
144.83875866189695

> <Genealogy>
C=c1c(=Cc2[n-]c(=O)[n-]c2[O-])cc(C)n1Cc1ccc(S(=O)(=O)N2CCN(CCO)CC2)cc1 (protonated)
C=c1c(=Cc2[n-]c(=O)[n-]c2[O-])cc(C)n1Cc1ccc(S(=O)(=O)N2CCN(CCO)CC2)cc1 (3D coordinates assigned)
C=c1c(=Cc2[n-]c(=O)[n-]c2[O-])cc(C)n1Cc1ccc(S(=O)(=O)N2CCN(CCO)CC2)cc1 (nonaromatic ring conformer: 144.83875866189695 kcal/mol)

> <smiles>
C=c1c(=Cc2[nH]c(=O)[nH]c2O)cc(C)n1Cc1ccc(S(=O)(=O)N2CCN(CCO)CC2)cc1

> <score_type>
oracle

> <origin>
adg

> <m_score__min__energy>
-18.120000000000001

> <m_primary>
energy

> <minimizedAffinity>
-7.43924

> <minimizedRMSD>
1.57253

> <CNNscore>
0.1018533930

> <CNNaffinity>
6.0898499489

> <CNN_VS>
0.6202718616

> <CNNaffinity_variance>
0.1395399421

$$$$
86:0


 33 36  0  0  0  0  0  0  0  0999 V2000
   58.1408   30.1640   52.6707 C   0  0  0  0  0  0  0  0  0  0  0  0
   58.9328   30.3915   53.6264 O   0  0  0  0  0  0  0  0  0  0  0  0
   58.5370   30.4568   51.3085 N   0  0  0  0  0  0  0  0  0  0  0  0
   58.9000   31.8852   51.1999 C   0  0  0  0  0  0  0  0  0  0  0  0
   59.0824   32.2726   49.7234 C   0  0  0  0  0  0  0  0  0  0  0  0
   59.6815   31.1641   48.9670 N   0  0  0  0  0  0  0  0  0  0  0  0
   59.3538   30.9664   47.5777 C   0  0  0  0  0  0  0  0  0  0  0  0
   59.1850   29.7954   47.1394 O   0  0  0  0  0  0  0  0  0  0  0  0
   60.4642   30.1610   49.6954 C   0  0  0  0  0  0  0  0  0  0  0  0
   59.6478   29.5695   50.8655 C   0  0  0  0  0  0  0  0  0  0  0  0
   58.1877   29.7969   50.6668 H   0  0  0  0  0  0  0  0  0  0  0  0
   59.1887   32.1095   46.6516 C   0  0  0  0  0  0  0  0  0  0  0  0
   58.1644   32.1111   45.6888 C   0  0  0  0  0  0  0  0  0  0  0  0
   58.0101   33.1989   44.8233 C   0  0  0  0  0  0  0  0  0  0  0  0
   58.8690   34.2960   44.9188 C   0  0  0  0  0  0  0  0  0  0  0  0
   59.8793   34.3117   45.8843 C   0  0  0  0  0  0  0  0  0  0  0  0
   60.0367   33.2260   46.7516 C   0  0  0  0  0  0  0  0  0  0  0  0
   54.2487   27.7628   54.3022 C   0  0  0  0  0  0  0  0  0  0  0  0
   55.0065   28.7002   53.7082 C   0  0  0  0  0  0  0  0  0  0  0  0
   54.5429   29.8979   53.1527 C   0  0  0  0  0  0  0  0  0  0  0  0
   53.2627   30.3027   53.0315 C   0  0  0  0  0  0  0  0  0  0  0  0
   55.6638   30.5763   52.7018 C   0  0  0  0  0  0  0  0  0  0  0  0
   56.7524   29.7804   52.9884 C   0  0  0  0  0  0  0  0  0  0  0  0
   56.3608   28.6336   53.5966 N   0  0  0  0  0  0  0  0  0  0  0  0
   52.5863   30.5231   51.7409 C   0  0  0  0  0  0  0  0  0  0  0  0
   52.6798   29.6710   50.7045 N   0  0  0  0  0  0  0  0  0  0  0  0
   51.8525   30.2075   49.7814 C   0  0  0  0  0  0  0  0  0  0  0  0
   51.6794   29.6917   48.6462 O   0  0  0  0  0  0  0  0  0  0  0  0
   51.2178   31.3313   50.1737 N   0  0  0  0  0  0  0  0  0  0  0  0
   51.6824   31.5128   51.4203 C   0  0  0  0  0  0  0  0  0  0  0  0
   51.2518   32.5316   52.2607 O   0  0  0  0  0  0  0  0  0  0  0  0
   57.2483   27.6205   54.1883 C   0  0  0  0  0  0  0  0  0  0  0  0
   57.5466   27.9591   55.6444 C   0  0  0  0  0  0  0  0  0  0  0  0
 18 19  2  0
 19 20  1  0
 20 21  2  0
 21 25  1  0
 25 26  1  0
 26 27  1  0
 27 28  2  0
 27 29  1  0
 29 30  1  0
 30 31  1  0
 20 22  1  0
 22 23  2  0
 23  1  1  0
  1  2  2  0
  1  3  1  0
  3  4  1  0
  4  5  1  0
  5  6  1  0
  6  7  1  0
  7  8  2  0
  7 12  1  0
 12 13  2  0
 13 14  1  0
 14 15  2  0
 15 16  1  0
 16 17  2  0
  6  9  1  0
  9 10  1  0
 23 24  1  0
 24 32  1  0
 32 33  1  0
 24 19  1  0
 30 25  2  0
 10  3  1  0
 17 12  1  0
  3 11  1  0
M  CHG 1   3   1
M  CHG 1  26  -1
M  CHG 1  29  -1
M  CHG 1  31  -1
M  END
> <UniqueID>
77

> <SMILES>
C=c1c(=Cc2[n-]c(=O)[n-]c2[O-])cc(C(=O)[NH+]2CCN(C(=O)c3ccccc3)CC2)n1CC

> <Energy>
140.6425014090115

> <Genealogy>
C=c1c(=Cc2[n-]c(=O)[n-]c2[O-])cc(C(=O)[NH+]2CCN(C(=O)c3ccccc3)CC2)n1CC (protonated)
C=c1c(=Cc2[n-]c(=O)[n-]c2[O-])cc(C(=O)[NH+]2CCN(C(=O)c3ccccc3)CC2)n1CC (3D coordinates assigned)
C=c1c(=Cc2[n-]c(=O)[n-]c2[O-])cc(C(=O)[NH+]2CCN(C(=O)c3ccccc3)CC2)n1CC (nonaromatic ring conformer: 140.6425014090115 kcal/mol)

> <smiles>
C=c1c(=Cc2[nH]c(=O)[nH]c2O)cc(C(=O)N2CCN(C(=O)c3ccccc3)CC2)n1CC

> <score_type>
oracle

> <origin>
adg

> <m_score__min__energy>
-17.239999999999998

> <m_primary>
energy

> <minimizedAffinity>
-7.66793

> <minimizedRMSD>
0.88999

> <CNNscore>
0.0893224403

> <CNNaffinity>
5.5268912315

> <CNN_VS>
0.4936754107

> <CNNaffinity_variance>
0.3903792799

$$$$
2:0


 35 39  0  0  0  0  0  0  0  0999 V2000
   60.7382   28.9812   45.1988 C   0  0  0  0  0  0  0  0  0  0  0  0
   60.0438   28.8187   46.3366 C   0  0  0  0  0  0  0  0  0  0  0  0
   59.1771   27.7618   46.6267 C   0  0  0  0  0  0  0  0  0  0  0  0
   58.8231   26.7492   45.8122 C   0  0  0  0  0  0  0  0  0  0  0  0
   58.7220   27.9716   47.9210 C   0  0  0  0  0  0  0  0  0  0  0  0
   59.3224   29.1340   48.3632 C   0  0  0  0  0  0  0  0  0  0  0  0
   60.1216   29.6543   47.4016 N   0  0  0  0  0  0  0  0  0  0  0  0
   59.1905   29.6837   49.7228 C   0  0  0  0  0  0  0  0  0  0  0  0
   58.0534   29.7624   50.2551 O   0  0  0  0  0  0  0  0  0  0  0  0
   60.3286   30.2294   50.4000 N   0  0  0  0  0  0  0  0  0  0  0  0
   61.4531   29.3694   50.7778 C   0  0  0  0  0  0  0  0  0  0  0  0
   62.3503   30.1074   51.7759 C   0  0  0  0  0  0  0  0  0  0  0  0
   62.8355   31.4054   51.2327 N   0  0  0  0  0  0  0  0  0  0  0  0
   61.7408   32.2127   50.6048 C   0  0  0  0  0  0  0  0  0  0  0  0
   60.3298   31.6376   50.7907 C   0  0  0  0  0  0  0  0  0  0  0  0
   64.0283   31.3046   50.3290 C   0  0  0  0  0  0  0  0  0  0  0  0
   65.3033   30.7792   51.0329 C   0  0  0  0  0  0  0  0  0  0  0  0
   65.7249   31.7260   52.1808 C   0  0  0  0  0  0  0  0  0  0  0  0
   65.0536   32.9789   52.1369 O   0  0  0  0  0  0  0  0  0  0  0  0
   65.1563   33.5492   50.8430 C   0  0  0  0  0  0  0  0  0  0  0  0
   64.4156   32.7018   49.7799 C   0  0  0  0  0  0  0  0  0  0  0  0
   57.9170   25.6549   46.2021 C   0  0  0  0  0  0  0  0  0  0  0  0
   58.3481   24.4704   46.6672 N   0  0  0  0  0  0  0  0  0  0  0  0
   57.2051   23.8341   47.0087 C   0  0  0  0  0  0  0  0  0  0  0  0
   57.1966   22.6734   47.4885 O   0  0  0  0  0  0  0  0  0  0  0  0
   56.0758   24.5505   46.8167 N   0  0  0  0  0  0  0  0  0  0  0  0
   56.5432   25.7047   46.3168 C   0  0  0  0  0  0  0  0  0  0  0  0
   55.7329   26.7981   46.0261 O   0  0  0  0  0  0  0  0  0  0  0  0
   61.0240   30.8071   47.5601 C   0  0  0  0  0  0  0  0  0  0  0  0
   60.3885   32.0956   47.0914 C   0  0  0  0  0  0  0  0  0  0  0  0
   59.0899   32.1269   46.5425 C   0  0  0  0  0  0  0  0  0  0  0  0
   58.5570   33.3234   46.0534 C   0  0  0  0  0  0  0  0  0  0  0  0
   59.3181   34.4921   46.0860 C   0  0  0  0  0  0  0  0  0  0  0  0
   60.6165   34.4650   46.5970 C   0  0  0  0  0  0  0  0  0  0  0  0
   61.1521   33.2736   47.0958 C   0  0  0  0  0  0  0  0  0  0  0  0
  1  2  2  0
  2  3  1  0
  3  4  2  0
  4 22  1  0
 22 23  1  0
 23 24  1  0
 24 25  2  0
 24 26  1  0
 26 27  1  0
 27 28  1  0
  3  5  1  0
  5  6  2  0
  6  8  1  0
  8  9  2  0
  8 10  1  0
 10 11  1  0
 11 12  1  0
 12 13  1  0
 13 16  1  0
 16 17  1  0
 17 18  1  0
 18 19  1  0
 19 20  1  0
 20 21  1  0
 13 14  1  0
 14 15  1  0
  6  7  1  0
  7 29  1  0
 29 30  1  0
 30 31  2  0
 31 32  1  0
 32 33  2  0
 33 34  1  0
 34 35  2  0
  7  2  1  0
 35 30  1  0
 27 22  2  0
 15 10  1  0
 21 16  1  0
M  CHG 1  23  -1
M  CHG 1  26  -1
M  CHG 1  28  -1
M  END
> <UniqueID>
3

> <SMILES>
C=c1/c(=C/c2[n-]c(=O)[n-]c2[O-])cc(C(=O)N2CCN(C3CCOCC3)CC2)n1Cc1ccccc1

> <Energy>
164.61950805739784

> <Genealogy>
C=c1c(=Cc2[n-]c(=O)[n-]c2[O-])cc(C(=O)N2CCN(C3CCOCC3)CC2)n1Cc1ccccc1 (protonated)
C=c1/c(=C/c2[n-]c(=O)[n-]c2[O-])cc(C(=O)N2CCN(C3CCOCC3)CC2)n1Cc1ccccc1 (cis-trans isomerization)
C=c1/c(=C/c2[n-]c(=O)[n-]c2[O-])cc(C(=O)N2CCN(C3CCOCC3)CC2)n1Cc1ccccc1 (3D coordinates assigned)
C=c1/c(=C/c2[n-]c(=O)[n-]c2[O-])cc(C(=O)N2CCN(C3CCOCC3)CC2)n1Cc1ccccc1 (nonaromatic ring conformer: 164.61950805739784 kcal/mol)

> <smiles>
C=c1c(=Cc2[nH]c(=O)[nH]c2O)cc(C(=O)N2CCN(C3CCOCC3)CC2)n1Cc1ccccc1

> <score_type>
oracle

> <origin>
adg

> <m_score__min__energy>
-16.98

> <m_primary>
energy

> <minimizedAffinity>
-7.62857

> <minimizedRMSD>
1.12257

> <CNNscore>
0.2677319944

> <CNNaffinity>
6.8229317665

> <CNN_VS>
1.8267171383

> <CNNaffinity_variance>
0.1871148497

$$$$
5:0


 35 38  0  0  0  0  0  0  0  0999 V2000
   57.3422   30.6076   54.3165 C   0  0  0  0  0  0  0  0  0  0  0  0
   57.6224   31.0170   55.4773 O   0  0  0  0  0  0  0  0  0  0  0  0
   58.2660   30.8301   53.2337 N   0  0  0  0  0  0  0  0  0  0  0  0
   59.6924   31.0281   53.5236 C   0  0  0  0  0  0  0  0  0  0  0  0
   60.5494   30.4577   52.3918 C   0  0  0  0  0  0  0  0  0  0  0  0
   60.0474   30.9317   51.0994 N   0  0  0  0  0  0  0  0  0  0  0  0
   60.9743   31.2104   50.0365 C   0  0  0  0  0  0  0  0  0  0  0  0
   61.9667   30.4521   49.8592 O   0  0  0  0  0  0  0  0  0  0  0  0
   58.6300   30.7056   50.8014 C   0  0  0  0  0  0  0  0  0  0  0  0
   57.7647   31.2757   51.9248 C   0  0  0  0  0  0  0  0  0  0  0  0
   53.9693   27.1791   53.7829 C   0  0  0  0  0  0  0  0  0  0  0  0
   54.5445   28.3923   53.7673 C   0  0  0  0  0  0  0  0  0  0  0  0
   53.8915   29.6339   53.6776 C   0  0  0  0  0  0  0  0  0  0  0  0
   52.6185   29.9450   53.3657 C   0  0  0  0  0  0  0  0  0  0  0  0
   54.8515   30.5941   53.9457 C   0  0  0  0  0  0  0  0  0  0  0  0
   56.0522   29.9290   54.0982 C   0  0  0  0  0  0  0  0  0  0  0  0
   55.8690   28.5906   53.9949 N   0  0  0  0  0  0  0  0  0  0  0  0
   56.8753   27.5481   54.2314 C   0  0  0  0  0  0  0  0  0  0  0  0
   52.1127   30.2335   52.0139 C   0  0  0  0  0  0  0  0  0  0  0  0
   52.2401   29.4145   50.9547 N   0  0  0  0  0  0  0  0  0  0  0  0
   51.7267   30.1396   49.9369 C   0  0  0  0  0  0  0  0  0  0  0  0
   51.6515   29.6979   48.7613 O   0  0  0  0  0  0  0  0  0  0  0  0
   51.3081   31.3778   50.2768 N   0  0  0  0  0  0  0  0  0  0  0  0
   51.5735   31.4247   51.5929 C   0  0  0  0  0  0  0  0  0  0  0  0
   51.3258   32.5326   52.3917 O   0  0  0  0  0  0  0  0  0  0  0  0
   60.8424   32.4547   49.2014 C   0  0  0  0  0  0  0  0  0  0  0  0
   61.3033   32.2156   47.7572 C   0  0  0  0  0  0  0  0  0  0  0  0
   60.2255   31.5666   46.9254 C   0  0  0  0  0  0  0  0  0  0  0  0
   60.3089   30.2043   46.5981 C   0  0  0  0  0  0  0  0  0  0  0  0
   59.3427   29.6135   45.7769 C   0  0  0  0  0  0  0  0  0  0  0  0
   58.2880   30.3790   45.2723 C   0  0  0  0  0  0  0  0  0  0  0  0
   57.3411   29.7818   44.4435 O   0  0  0  0  0  0  0  0  0  0  0  0
   58.1971   31.7397   45.5996 C   0  0  0  0  0  0  0  0  0  0  0  0
   59.1612   32.3299   46.4220 C   0  0  0  0  0  0  0  0  0  0  0  0
   57.4115   28.8719   44.2313 H   0  0  0  0  0  0  0  0  0  0  0  0
 11 12  2  0
 12 13  1  0
 13 14  2  0
 14 19  1  0
 19 20  1  0
 20 21  1  0
 21 22  2  0
 21 23  1  0
 23 24  1  0
 24 25  1  0
 13 15  1  0
 15 16  2  0
 16  1  1  0
  1  2  2  0
  1  3  1  0
  3  4  1  0
  4  5  1  0
  5  6  1  0
  6  7  1  0
  7  8  2  0
  7 26  1  0
 26 27  1  0
 27 28  1  0
 28 29  2  0
 29 30  1  0
 30 31  2  0
 31 32  1  0
 31 33  1  0
 33 34  2  0
  6  9  1  0
  9 10  1  0
 16 17  1  0
 17 18  1  0
 17 12  1  0
 24 19  2  0
 10  3  1  0
 34 28  1  0
 32 35  1  0
M  CHG 1  20  -1
M  CHG 1  23  -1
M  CHG 1  25  -1
M  END
> <UniqueID>
6

> <SMILES>
C=c1c(=Cc2[n-]c(=O)[n-]c2[O-])cc(C(=O)N2CCN(C(=O)CCc3ccc(O)cc3)CC2)n1C

> <Energy>
133.71880407031819

> <Genealogy>
C=c1c(=Cc2[n-]c(=O)[n-]c2[O-])cc(C(=O)N2CCN(C(=O)CCc3ccc(O)cc3)CC2)n1C (protonated)
C=c1c(=Cc2[n-]c(=O)[n-]c2[O-])cc(C(=O)N2CCN(C(=O)CCc3ccc(O)cc3)CC2)n1C (3D coordinates assigned)
C=c1c(=Cc2[n-]c(=O)[n-]c2[O-])cc(C(=O)N2CCN(C(=O)CCc3ccc(O)cc3)CC2)n1C (nonaromatic ring conformer: 133.71880407031819 kcal/mol)

> <smiles>
C=c1c(=Cc2[nH]c(=O)[nH]c2O)cc(C(=O)N2CCN(C(=O)CCc3ccc(O)cc3)CC2)n1C

> <score_type>
oracle

> <origin>
adg

> <m_score__min__energy>
-17.68

> <m_primary>
energy

> <minimizedAffinity>
-6.86078

> <minimizedRMSD>
1.34076

> <CNNscore>
0.0579706319

> <CNNaffinity>
6.2561087608

> <CNN_VS>
0.3626705706

> <CNNaffinity_variance>
0.0122525580

$$$$
6:0


 28 31  0  0  0  0  0  0  0  0999 V2000
   54.0072   27.6261   53.7711 C   0  0  0  0  0  0  0  0  0  0  0  0
   54.9639   28.5637   53.6542 C   0  0  0  0  0  0  0  0  0  0  0  0
   56.2882   28.1719   53.9284 C   0  0  0  0  0  0  0  0  0  0  0  0
   57.3638   28.9938   53.5965 C   0  0  0  0  0  0  0  0  0  0  0  0
   57.1484   30.2173   52.9566 C   0  0  0  0  0  0  0  0  0  0  0  0
   55.8339   30.6523   52.7357 C   0  0  0  0  0  0  0  0  0  0  0  0
   54.7231   29.8836   53.1471 C   0  0  0  0  0  0  0  0  0  0  0  0
   53.5035   30.4738   53.0529 C   0  0  0  0  0  0  0  0  0  0  0  0
   58.2969   31.0700   52.5796 C   0  0  0  0  0  0  0  0  0  0  0  0
   59.0394   31.5425   53.4837 O   0  0  0  0  0  0  0  0  0  0  0  0
   58.5924   31.3607   51.2015 N   0  0  0  0  0  0  0  0  0  0  0  0
   58.6539   30.2598   50.2262 C   0  0  0  0  0  0  0  0  0  0  0  0
   59.2298   30.7219   48.8812 C   0  0  0  0  0  0  0  0  0  0  0  0
   60.4227   31.5561   49.0920 N   0  0  0  0  0  0  0  0  0  0  0  0
   61.5455   31.4501   48.1905 C   0  0  0  0  0  0  0  0  0  0  0  0
   61.4151   30.8598   47.0848 O   0  0  0  0  0  0  0  0  0  0  0  0
   60.4174   32.5966   50.1336 C   0  0  0  0  0  0  0  0  0  0  0  0
   59.0515   32.7002   50.8156 C   0  0  0  0  0  0  0  0  0  0  0  0
   62.8693   32.0828   48.5235 C   0  0  0  0  0  0  0  0  0  0  0  0
   62.9906   33.5568   48.1583 C   0  0  0  0  0  0  0  0  0  0  0  0
   63.6835   32.5067   47.3089 C   0  0  0  0  0  0  0  0  0  0  0  0
   52.6549   30.5216   51.8465 C   0  0  0  0  0  0  0  0  0  0  0  0
   52.8126   29.6980   50.7965 N   0  0  0  0  0  0  0  0  0  0  0  0
   51.9173   30.1598   49.8975 C   0  0  0  0  0  0  0  0  0  0  0  0
   51.7541   29.6277   48.7690 O   0  0  0  0  0  0  0  0  0  0  0  0
   51.2190   31.2444   50.2985 N   0  0  0  0  0  0  0  0  0  0  0  0
   51.7055   31.4680   51.5276 C   0  0  0  0  0  0  0  0  0  0  0  0
   51.3139   32.5374   52.3277 O   0  0  0  0  0  0  0  0  0  0  0  0
  1  2  2  0
  2  3  1  0
  3  4  2  0
  4  5  1  0
  5  9  1  0
  9 10  2  0
  9 11  1  0
 11 12  1  0
 12 13  1  0
 13 14  1  0
 14 15  1  0
 15 16  2  0
 15 19  1  0
 19 20  1  0
 20 21  1  0
 14 17  1  0
 17 18  1  0
  5  6  2  0
  6  7  1  0
  7  8  2  0
  8 22  1  0
 22 23  1  0
 23 24  1  0
 24 25  2  0
 24 26  1  0
 26 27  1  0
 27 28  1  0
  7  2  1  0
 27 22  2  0
 18 11  1  0
 21 19  1  0
M  CHG 1  23  -1
M  CHG 1  26  -1
M  CHG 1  28  -1
M  END
> <UniqueID>
7

> <SMILES>
C=c1ccc(C(=O)N2CCN(C(=O)C3CC3)CC2)c/c1=C/c1[n-]c(=O)[n-]c1[O-]

> <Energy>
368.8459815400106

> <Genealogy>
C=c1ccc(C(=O)N2CCN(C(=O)C3CC3)CC2)cc1=Cc1[n-]c(=O)[n-]c1[O-] (protonated)
C=c1ccc(C(=O)N2CCN(C(=O)C3CC3)CC2)c/c1=C/c1[n-]c(=O)[n-]c1[O-] (cis-trans isomerization)
C=c1ccc(C(=O)N2CCN(C(=O)C3CC3)CC2)c/c1=C/c1[n-]c(=O)[n-]c1[O-] (3D coordinates assigned)
C=c1ccc(C(=O)N2CCN(C(=O)C3CC3)CC2)c/c1=C/c1[n-]c(=O)[n-]c1[O-] (nonaromatic ring conformer: 368.8459815400106 kcal/mol)

> <smiles>
C=c1ccc(C(=O)N2CCN(C(=O)C3CC3)CC2)cc1=Cc1[nH]c(=O)[nH]c1O

> <score_type>
oracle

> <origin>
adg

> <m_score__min__energy>
-17.649999999999999

> <m_primary>
energy

> <minimizedAffinity>
-6.86614

> <minimizedRMSD>
0.95665

> <CNNscore>
0.0603707992

> <CNNaffinity>
4.8054447174

> <CNN_VS>
0.2901085317

> <CNNaffinity_variance>
0.2215163708

$$$$
11:0


 35 39  0  0  0  0  0  0  0  0999 V2000
   60.1646   29.0600   47.9893 C   0  0  0  0  0  0  0  0  0  0  0  0
   60.2142   27.8096   48.6622 C   0  0  0  0  0  0  0  0  0  0  0  0
   59.4628   26.7128   48.2051 C   0  0  0  0  0  0  0  0  0  0  0  0
   58.6710   26.8886   47.0720 C   0  0  0  0  0  0  0  0  0  0  0  0
   57.8454   26.0115   46.3911 C   0  0  0  0  0  0  0  0  0  0  0  0
   57.3257   26.7345   45.3211 C   0  0  0  0  0  0  0  0  0  0  0  0
   57.7951   28.0043   45.3450 N   0  0  0  0  0  0  0  0  0  0  0  0
   57.4991   29.0522   44.3738 C   0  0  0  0  0  0  0  0  0  0  0  0
   58.6172   28.0882   46.4100 C   0  0  0  0  0  0  0  0  0  0  0  0
   59.3546   29.1950   46.8372 C   0  0  0  0  0  0  0  0  0  0  0  0
   61.0010   30.5181   49.7865 C   0  0  0  0  0  0  0  0  0  0  0  0
   60.9751   30.2122   48.4715 C   0  0  0  0  0  0  0  0  0  0  0  0
   61.6716   31.0957   47.4557 C   0  0  0  0  0  0  0  0  0  0  0  0
   62.8390   31.8579   48.0767 C   0  0  0  0  0  0  0  0  0  0  0  0
   62.3769   32.4992   49.3059 N   0  0  0  0  0  0  0  0  0  0  0  0
   62.2293   33.9313   49.3809 C   0  0  0  0  0  0  0  0  0  0  0  0
   63.0310   34.6048   50.0809 O   0  0  0  0  0  0  0  0  0  0  0  0
   61.8420   31.6310   50.3604 C   0  0  0  0  0  0  0  0  0  0  0  0
   61.2234   34.6220   48.6272 N   0  0  0  0  0  0  0  0  0  0  0  0
   60.2756   34.0637   47.9315 C   0  0  0  0  0  0  0  0  0  0  0  0
   60.2381   34.1781   46.5725 N   0  0  0  0  0  0  0  0  0  0  0  0
   59.2666   33.5863   45.8264 C   0  0  0  0  0  0  0  0  0  0  0  0
   58.2718   32.8289   46.4499 C   0  0  0  0  0  0  0  0  0  0  0  0
   57.2753   32.2228   45.6971 O   0  0  0  0  0  0  0  0  0  0  0  0
   58.2933   32.6872   47.8399 C   0  0  0  0  0  0  0  0  0  0  0  0
   59.2999   33.3012   48.5868 C   0  0  0  0  0  0  0  0  0  0  0  0
   57.6169   24.5564   46.6723 C   0  0  0  0  0  0  0  0  0  0  0  0
   56.8823   23.9121   45.5309 C   0  0  0  0  0  0  0  0  0  0  0  0
   55.5556   24.0975   45.2015 C   0  0  0  0  0  0  0  0  0  0  0  0
   54.6678   24.9384   45.8574 O   0  0  0  0  0  0  0  0  0  0  0  0
   55.2198   23.3463   44.1345 N   0  0  0  0  0  0  0  0  0  0  0  0
   56.3719   22.7064   43.8388 C   0  0  0  0  0  0  0  0  0  0  0  0
   56.4764   21.9040   42.8729 O   0  0  0  0  0  0  0  0  0  0  0  0
   57.3947   23.0103   44.6680 N   0  0  0  0  0  0  0  0  0  0  0  0
   58.7752   22.5409   44.5811 C   0  0  0  0  0  0  0  0  0  0  0  0
 11 12  2  0
 12  1  1  0
  1  2  2  0
  2  3  1  0
  3  4  2  0
  4  5  1  0
  5 27  1  0
 27 28  1  0
 28 29  2  0
 29 30  1  0
 29 31  1  0
 31 32  1  0
 32 33  2  0
 32 34  1  0
 34 35  1  0
  5  6  2  0
  6  7  1  0
  7  8  1  0
  7  9  1  0
  9 10  2  0
 12 13  1  0
 13 14  1  0
 14 15  1  0
 15 16  1  0
 16 17  2  0
 16 19  1  0
 19 20  2  0
 20 21  1  0
 21 22  1  0
 22 23  2  0
 23 24  1  0
 23 25  1  0
 25 26  2  0
 15 18  1  0
 18 11  1  0
 10  1  1  0
 26 20  1  0
  9  4  1  0
 34 28  1  0
M  CHG 1  21  -1
M  CHG 1  24  -1
M  CHG 1  30  -1
M  CHG 1  31  -1
M  END
> <UniqueID>
11

> <SMILES>
Cn1c(Cc2cn(C)c3cc(C4=CCN(C(=O)/N=c5/ccc([O-])c[n-]5)CC4)ccc23)c([O-])[n-]c1=O

> <Energy>
138.24822184906984

> <Genealogy>
Cn1c(Cc2cn(C)c3cc(C4=CCN(C(=O)N=c5ccc([O-])c[n-]5)CC4)ccc23)c([O-])[n-]c1=O (protonated)
Cn1c(Cc2cn(C)c3cc(C4=CCN(C(=O)/N=c5/ccc([O-])c[n-]5)CC4)ccc23)c([O-])[n-]c1=O (cis-trans isomerization)
Cn1c(Cc2cn(C)c3cc(C4=CCN(C(=O)/N=c5/ccc([O-])c[n-]5)CC4)ccc23)c([O-])[n-]c1=O (3D coordinates assigned)
Cn1c(Cc2cn(C)c3cc(C4=CCN(C(=O)/N=c5/ccc([O-])c[n-]5)CC4)ccc23)c([O-])[n-]c1=O (nonaromatic ring conformer: 138.24822184906984 kcal/mol)

> <smiles>
Cn1c(Cc2cn(C)c3cc(C4=CCN(C(=O)N=c5ccc(O)c[nH]5)CC4)ccc23)c(O)[nH]c1=O

> <score_type>
oracle

> <origin>
adg

> <m_score__min__energy>
-16.32

> <m_primary>
energy

> <minimizedAffinity>
-10.43662

> <minimizedRMSD>
0.57186

> <CNNscore>
0.3240978122

> <CNNaffinity>
7.1824746132

> <CNN_VS>
2.3278243542

> <CNNaffinity_variance>
0.1069850996

$$$$
19:0


 19 20  0  0  0  0  0  0  0  0999 V2000
   56.7522   29.4259   53.7461 O   0  0  0  0  0  0  0  0  0  0  0  0
   55.8470   29.8909   53.0031 C   0  0  0  0  0  0  0  0  0  0  0  0
   54.4442   29.3456   53.1228 C   0  0  0  0  0  0  0  0  0  0  0  0
   53.3749   30.4472   53.1638 C   0  0  0  0  0  0  0  0  0  0  0  0
   52.6439   30.5652   51.8610 C   0  0  0  0  0  0  0  0  0  0  0  0
   52.7933   29.7089   50.8338 N   0  0  0  0  0  0  0  0  0  0  0  0
   51.9185   30.1713   49.9136 C   0  0  0  0  0  0  0  0  0  0  0  0
   51.7640   29.6254   48.7910 O   0  0  0  0  0  0  0  0  0  0  0  0
   51.2176   31.2617   50.2943 N   0  0  0  0  0  0  0  0  0  0  0  0
   51.6876   31.4959   51.5303 C   0  0  0  0  0  0  0  0  0  0  0  0
   51.2478   32.5357   52.3392 O   0  0  0  0  0  0  0  0  0  0  0  0
   56.1434   31.0451   52.2055 N   0  0  0  0  0  0  0  0  0  0  0  0
   57.4464   31.5692   51.9201 C   0  0  0  0  0  0  0  0  0  0  0  0
   58.2836   30.8741   51.0387 C   0  0  0  0  0  0  0  0  0  0  0  0
   59.5471   31.3803   50.7190 C   0  0  0  0  0  0  0  0  0  0  0  0
   59.9746   32.5960   51.2630 C   0  0  0  0  0  0  0  0  0  0  0  0
   61.6997   33.2892   50.8248 Br  0  0  0  0  0  0  0  0  0  0  0  0
   59.1303   33.3099   52.1197 C   0  0  0  0  0  0  0  0  0  0  0  0
   57.8674   32.8046   52.4385 C   0  0  0  0  0  0  0  0  0  0  0  0
  1  2  2  0
  2  3  1  0
  3  4  1  0
  4  5  1  0
  5  6  1  0
  6  7  1  0
  7  8  2  0
  7  9  1  0
  9 10  1  0
 10 11  1  0
  2 12  1  0
 12 13  1  0
 13 14  2  0
 14 15  1  0
 15 16  2  0
 16 17  1  0
 16 18  1  0
 18 19  2  0
 10  5  2  0
 19 13  1  0
M  CHG 1   6  -1
M  CHG 1   9  -1
M  CHG 1  11  -1
M  CHG 1  12  -1
M  END
> <UniqueID>
19

> <SMILES>
O=C(CCc1[n-]c(=O)[n-]c1[O-])[N-]c1ccc(Br)cc1

> <Energy>
58.5889615524748

> <Genealogy>
O=C(CCc1[n-]c(=O)[n-]c1[O-])[N-]c1ccc(Br)cc1 (protonated)
O=C(CCc1[n-]c(=O)[n-]c1[O-])[N-]c1ccc(Br)cc1 (3D coordinates assigned)
O=C(CCc1[n-]c(=O)[n-]c1[O-])[N-]c1ccc(Br)cc1 (optimized conformer: 58.5889615524748 kcal/mol)

> <smiles>
O=C(CCc1[nH]c(=O)[nH]c1O)Nc1ccc(Br)cc1

> <score_type>
oracle

> <origin>
adg

> <m_score__min__energy>
-16.91

> <m_primary>
energy

> <minimizedAffinity>
-4.29160

> <minimizedRMSD>
1.09029

> <CNNscore>
0.3274578750

> <CNNaffinity>
4.5541901588

> <CNN_VS>
1.4913054705

> <CNNaffinity_variance>
0.0362714678

$$$$
41:0


 29 31  0  0  0  0  0  0  0  0999 V2000
   60.5050   27.8709   49.3418 C   0  0  0  0  0  0  0  0  0  0  0  0
   60.9578   27.3621   50.4009 O   0  0  0  0  0  0  0  0  0  0  0  0
   60.7201   29.3085   49.0868 C   0  0  0  0  0  0  0  0  0  0  0  0
   60.9922   29.7775   47.7922 C   0  0  0  0  0  0  0  0  0  0  0  0
   61.1741   31.1426   47.5593 C   0  0  0  0  0  0  0  0  0  0  0  0
   61.0641   32.0602   48.6136 C   0  0  0  0  0  0  0  0  0  0  0  0
   60.7777   31.5956   49.9047 C   0  0  0  0  0  0  0  0  0  0  0  0
   60.5971   30.2304   50.1382 C   0  0  0  0  0  0  0  0  0  0  0  0
   61.2678   33.7873   48.3140 S   0  0  0  0  0  0  0  0  0  0  0  0
   62.1883   33.9802   47.1409 O   0  0  0  0  0  0  0  0  0  0  0  0
   61.9109   34.4243   49.5158 O   0  0  0  0  0  0  0  0  0  0  0  0
   59.7406   34.5836   47.9881 N   0  0  0  0  0  0  0  0  0  0  0  0
   59.6824   35.0723   46.6065 C   0  0  0  0  0  0  0  0  0  0  0  0
   58.9133   34.0604   45.7708 C   0  0  0  0  0  0  0  0  0  0  0  0
   58.2241   33.1437   46.7631 C   0  0  0  0  0  0  0  0  0  0  0  0
   58.6164   33.6552   48.1406 C   0  0  0  0  0  0  0  0  0  0  0  0
   59.8249   27.0225   48.4065 N   0  0  0  0  0  0  0  0  0  0  0  0
   60.3504   26.6304   47.1039 C   0  0  0  0  0  0  0  0  0  0  0  0
   60.4806   27.7275   44.9942 O   0  0  0  0  0  0  0  0  0  0  0  0
   59.8294   27.5664   46.0626 C   0  0  0  0  0  0  0  0  0  0  0  0
   58.6455   28.3365   46.3193 N   0  0  0  0  0  0  0  0  0  0  0  0
   58.2415   28.2880   47.2158 H   0  0  0  0  0  0  0  0  0  0  0  0
   58.0205   29.1743   45.3343 C   0  0  0  0  0  0  0  0  0  0  0  0
   58.6940   30.3211   44.8851 C   0  0  0  0  0  0  0  0  0  0  0  0
   58.1069   31.1592   43.9328 C   0  0  0  0  0  0  0  0  0  0  0  0
   56.8367   30.8687   43.4324 C   0  0  0  0  0  0  0  0  0  0  0  0
   56.1454   29.7433   43.8922 C   0  0  0  0  0  0  0  0  0  0  0  0
   56.7244   28.9035   44.8501 C   0  0  0  0  0  0  0  0  0  0  0  0
   55.9935   27.8242   45.3362 O   0  0  0  0  0  0  0  0  0  0  0  0
 19 20  2  0
 20 18  1  0
 18 17  1  0
 17  1  1  0
  1  2  2  0
  1  3  1  0
  3  4  2  0
  4  5  1  0
  5  6  2  0
  6  9  1  0
  9 10  2  0
  9 11  2  0
  9 12  1  0
 12 13  1  0
 13 14  1  0
 14 15  1  0
 15 16  1  0
  6  7  1  0
  7  8  2  0
 20 21  1  0
 21 23  1  0
 23 24  2  0
 24 25  1  0
 25 26  2  0
 26 27  1  0
 27 28  2  0
 28 29  1  0
  8  3  1  0
 28 23  1  0
 16 12  1  0
 21 22  1  0
M  CHG 1  17  -1
M  CHG 1  29  -1
M  END
> <UniqueID>
40

> <SMILES>
O=C(C[N-]C(=O)c1ccc(S(=O)(=O)N2CCCC2)cc1)Nc1ccccc1[O-]

> <Energy>
55.69302038216831

> <Genealogy>
O=C(C[N-]C(=O)c1ccc(S(=O)(=O)N2CCCC2)cc1)Nc1ccccc1[O-] (protonated)
O=C(C[N-]C(=O)c1ccc(S(=O)(=O)N2CCCC2)cc1)Nc1ccccc1[O-] (3D coordinates assigned)
O=C(C[N-]C(=O)c1ccc(S(=O)(=O)N2CCCC2)cc1)Nc1ccccc1[O-] (nonaromatic ring conformer: 55.69302038216831 kcal/mol)

> <smiles>
O=C(CNC(=O)c1ccc(S(=O)(=O)N2CCCC2)cc1)Nc1ccccc1O

> <score_type>
oracle

> <origin>
adg

> <m_score__min__energy>
-14.720000000000001

> <m_primary>
energy

> <minimizedAffinity>
-5.12799

> <minimizedRMSD>
0.61648

> <CNNscore>
0.2816898823

> <CNNaffinity>
6.0079841614

> <CNN_VS>
1.6923882961

> <CNNaffinity_variance>
0.2870948017

$$$$
48:0


 34 39  0  0  0  0  0  0  0  0999 V2000
   58.9961   26.7954   47.0433 C   0  0  0  0  0  0  0  0  0  0  0  0
   59.1657   28.0662   46.6427 C   0  0  0  0  0  0  0  0  0  0  0  0
   59.3849   28.5903   45.3626 C   0  0  0  0  0  0  0  0  0  0  0  0
   59.5131   29.9397   45.4320 N   0  0  0  0  0  0  0  0  0  0  0  0
   59.3831   30.2697   46.7059 N   0  0  0  0  0  0  0  0  0  0  0  0
   59.4419   31.5028   47.2595 C   0  0  0  0  0  0  0  0  0  0  0  0
   59.6496   32.5516   46.5196 N   0  0  0  0  0  0  0  0  0  0  0  0
   59.2850   31.6064   48.6104 N   0  0  0  0  0  0  0  0  0  0  0  0
   59.0747   30.4943   49.3827 C   0  0  0  0  0  0  0  0  0  0  0  0
   59.0207   29.2625   48.7931 N   0  0  0  0  0  0  0  0  0  0  0  0
   59.1782   29.1829   47.4505 C   0  0  0  0  0  0  0  0  0  0  0  0
   56.4173   27.5887   45.5260 O   0  0  0  0  0  0  0  0  0  0  0  0
   56.6036   26.4082   46.2414 C   0  0  0  0  0  0  0  0  0  0  0  0
   55.6590   25.4583   46.3418 N   0  0  0  0  0  0  0  0  0  0  0  0
   56.2555   24.5198   47.1064 C   0  0  0  0  0  0  0  0  0  0  0  0
   55.6838   23.4478   47.4337 O   0  0  0  0  0  0  0  0  0  0  0  0
   57.5129   24.8221   47.4900 N   0  0  0  0  0  0  0  0  0  0  0  0
   57.7343   26.0299   46.9400 C   0  0  0  0  0  0  0  0  0  0  0  0
   55.6054   27.7464   45.0856 H   0  0  0  0  0  0  0  0  0  0  0  0
   58.9178   30.6161   50.8127 N   0  0  0  0  0  0  0  0  0  0  0  0
   59.5904   29.6883   51.7365 C   0  0  0  0  0  0  0  0  0  0  0  0
   58.6048   29.1563   52.7869 C   0  0  0  0  0  0  0  0  0  0  0  0
   57.6458   30.2439   53.3541 C   0  0  0  0  0  0  0  0  0  0  0  0
   58.0061   31.6677   52.8795 C   0  0  0  0  0  0  0  0  0  0  0  0
   58.1499   31.7476   51.3545 C   0  0  0  0  0  0  0  0  0  0  0  0
   56.1771   29.9370   53.0948 C   0  0  0  0  0  0  0  0  0  0  0  0
   55.4165   30.8092   52.2924 C   0  0  0  0  0  0  0  0  0  0  0  0
   54.0762   30.5292   52.0096 C   0  0  0  0  0  0  0  0  0  0  0  0
   53.4807   29.3696   52.5136 C   0  0  0  0  0  0  0  0  0  0  0  0
   54.2267   28.4877   53.2977 C   0  0  0  0  0  0  0  0  0  0  0  0
   55.5669   28.7640   53.5839 C   0  0  0  0  0  0  0  0  0  0  0  0
   58.7335   33.6864   46.4649 C   0  0  0  0  0  0  0  0  0  0  0  0
   58.6395   34.3257   45.0922 C   0  0  0  0  0  0  0  0  0  0  0  0
   57.5203   33.4237   45.5942 C   0  0  0  0  0  0  0  0  0  0  0  0
 12 13  1  0
 13 14  1  0
 14 15  1  0
 15 16  2  0
 15 17  1  0
 17 18  1  0
 18  1  1  0
  1  2  2  0
  2  3  1  0
  3  4  2  0
  4  5  1  0
  5  6  1  0
  6  7  2  0
  7 32  1  0
 32 33  1  0
 33 34  1  0
  6  8  1  0
  8  9  2  0
  9 20  1  0
 20 21  1  0
 21 22  1  0
 22 23  1  0
 23 26  1  0
 26 27  2  0
 27 28  1  0
 28 29  2  0
 29 30  1  0
 30 31  2  0
 23 24  1  0
 24 25  1  0
  9 10  1  0
 10 11  2  0
 18 13  2  0
 11  2  1  0
 11  5  1  0
 34 32  1  0
 25 20  1  0
 31 26  1  0
 12 19  1  0
M  CHG 1  14  -1
M  CHG 1  17  -1
M  END
> <UniqueID>
47

> <SMILES>
O=c1[n-]c(O)c(/C=c2\cnn3/c(=N/C4CC4)nc(N4CCC(c5ccccc5)CC4)nc23)[n-]1

> <Energy>
400.3573865263173

> <Genealogy>
O=c1[n-]c(O)c(C=c2cnn3c(=NC4CC4)nc(N4CCC(c5ccccc5)CC4)nc23)[n-]1 (protonated)
O=c1[n-]c(O)c(/C=c2\cnn3/c(=N/C4CC4)nc(N4CCC(c5ccccc5)CC4)nc23)[n-]1 (cis-trans isomerization)
O=c1[n-]c(O)c(/C=c2\cnn3/c(=N/C4CC4)nc(N4CCC(c5ccccc5)CC4)nc23)[n-]1 (3D coordinates assigned)
O=c1[n-]c(O)c(/C=c2\cnn3/c(=N/C4CC4)nc(N4CCC(c5ccccc5)CC4)nc23)[n-]1 (nonaromatic ring conformer: 400.3573865263173 kcal/mol)

> <smiles>
O=c1[nH]c(O)c(C=c2cnn3c(=NC4CC4)nc(N4CCC(c5ccccc5)CC4)nc23)[nH]1

> <score_type>
oracle

> <origin>
adg

> <m_score__min__energy>
-14.720000000000001

> <m_primary>
energy

> <minimizedAffinity>
-9.85268

> <minimizedRMSD>
0.62048

> <CNNscore>
0.5086781979

> <CNNaffinity>
6.8451118469

> <CNN_VS>
3.4819591045

> <CNNaffinity_variance>
0.2290142328

$$$$
51:0


 29 32  0  0  0  0  0  0  0  0999 V2000
   60.0496   26.8925   46.2655 C   0  0  0  0  0  0  0  0  0  0  0  0
   59.3152   27.7881   45.5884 C   0  0  0  0  0  0  0  0  0  0  0  0
   58.2404   27.4995   44.7415 C   0  0  0  0  0  0  0  0  0  0  0  0
   57.7627   26.2846   44.4106 C   0  0  0  0  0  0  0  0  0  0  0  0
   57.7915   28.7186   44.2545 C   0  0  0  0  0  0  0  0  0  0  0  0
   58.5820   29.6889   44.8311 C   0  0  0  0  0  0  0  0  0  0  0  0
   59.5173   29.1316   45.6356 N   0  0  0  0  0  0  0  0  0  0  0  0
   57.2524   25.3044   45.3863 C   0  0  0  0  0  0  0  0  0  0  0  0
   57.9085   24.1754   45.7097 N   0  0  0  0  0  0  0  0  0  0  0  0
   57.1414   23.6339   46.6806 C   0  0  0  0  0  0  0  0  0  0  0  0
   57.4253   22.5427   47.2377 O   0  0  0  0  0  0  0  0  0  0  0  0
   56.0529   24.3600   47.0147 N   0  0  0  0  0  0  0  0  0  0  0  0
   56.1426   25.4201   46.1965 C   0  0  0  0  0  0  0  0  0  0  0  0
   55.2567   26.4897   46.2238 O   0  0  0  0  0  0  0  0  0  0  0  0
   58.4259   31.1307   44.5742 C   0  0  0  0  0  0  0  0  0  0  0  0
   58.1502   31.5176   43.4063 O   0  0  0  0  0  0  0  0  0  0  0  0
   58.5451   32.0898   45.6375 N   0  0  0  0  0  0  0  0  0  0  0  0
   58.3869   31.7576   47.0439 C   0  0  0  0  0  0  0  0  0  0  0  0
   58.2891   33.0941   47.7681 C   0  0  0  0  0  0  0  0  0  0  0  0
   58.8049   34.1431   46.7850 C   0  0  0  0  0  0  0  0  0  0  0  0
   58.6761   33.5149   45.4045 C   0  0  0  0  0  0  0  0  0  0  0  0
   60.6351   29.8369   46.2867 C   0  0  0  0  0  0  0  0  0  0  0  0
   60.4161   29.9202   47.7760 C   0  0  0  0  0  0  0  0  0  0  0  0
   61.3077   30.6379   48.5918 C   0  0  0  0  0  0  0  0  0  0  0  0
   61.0982   30.7107   49.9705 C   0  0  0  0  0  0  0  0  0  0  0  0
   60.0009   30.0638   50.5496 C   0  0  0  0  0  0  0  0  0  0  0  0
   59.7396   30.1564   52.2808 Cl  0  0  0  0  0  0  0  0  0  0  0  0
   59.1156   29.3401   49.7461 C   0  0  0  0  0  0  0  0  0  0  0  0
   59.3228   29.2644   48.3657 C   0  0  0  0  0  0  0  0  0  0  0  0
  1  2  2  0
  2  3  1  0
  3  4  2  0
  4  8  1  0
  8  9  1  0
  9 10  1  0
 10 11  2  0
 10 12  1  0
 12 13  1  0
 13 14  1  0
  3  5  1  0
  5  6  2  0
  6 15  1  0
 15 16  2  0
 15 17  1  0
 17 18  1  0
 18 19  1  0
 19 20  1  0
 20 21  1  0
  6  7  1  0
  7 22  1  0
 22 23  1  0
 23 24  2  0
 24 25  1  0
 25 26  2  0
 26 27  1  0
 26 28  1  0
 28 29  2  0
  7  2  1  0
 29 23  1  0
 13  8  2  0
 21 17  1  0
M  CHG 1   9  -1
M  CHG 1  12  -1
M  CHG 1  14  -1
M  END
> <UniqueID>
50

> <SMILES>
C=c1/c(=C/c2[n-]c(=O)[n-]c2[O-])cc(C(=O)N2CCCC2)n1Cc1ccc(Cl)cc1

> <Energy>
119.04490095455081

> <Genealogy>
C=c1c(=Cc2[n-]c(=O)[n-]c2[O-])cc(C(=O)N2CCCC2)n1Cc1ccc(Cl)cc1 (protonated)
C=c1/c(=C/c2[n-]c(=O)[n-]c2[O-])cc(C(=O)N2CCCC2)n1Cc1ccc(Cl)cc1 (cis-trans isomerization)
C=c1/c(=C/c2[n-]c(=O)[n-]c2[O-])cc(C(=O)N2CCCC2)n1Cc1ccc(Cl)cc1 (3D coordinates assigned)
C=c1/c(=C/c2[n-]c(=O)[n-]c2[O-])cc(C(=O)N2CCCC2)n1Cc1ccc(Cl)cc1 (nonaromatic ring conformer: 119.04490095455081 kcal/mol)

> <smiles>
C=c1c(=Cc2[nH]c(=O)[nH]c2O)cc(C(=O)N2CCCC2)n1Cc1ccc(Cl)cc1

> <score_type>
oracle

> <origin>
adg

> <m_score__min__energy>
-16.77

> <m_primary>
energy

> <minimizedAffinity>
-7.71756

> <minimizedRMSD>
1.05693

> <CNNscore>
0.3460595906

> <CNNaffinity>
6.7759895325

> <CNN_VS>
2.3448960781

> <CNNaffinity_variance>
0.0119272852

$$$$
56:0


 35 39  0  0  0  0  0  0  0  0999 V2000
   59.8785   32.1020   48.3748 C   0  0  0  0  0  0  0  0  0  0  0  0
   59.0910   32.2997   49.3397 O   0  0  0  0  0  0  0  0  0  0  0  0
   61.1452   32.7870   48.3302 N   0  0  0  0  0  0  0  0  0  0  0  0
   61.3202   34.0637   49.0305 C   0  0  0  0  0  0  0  0  0  0  0  0
   62.2786   33.8647   50.2014 C   0  0  0  0  0  0  0  0  0  0  0  0
   63.6293   33.2452   49.7449 C   0  0  0  0  0  0  0  0  0  0  0  0
   63.6487   32.7137   48.2851 C   0  0  0  0  0  0  0  0  0  0  0  0
   62.3283   32.0871   47.8018 C   0  0  0  0  0  0  0  0  0  0  0  0
   64.1391   32.2333   50.7053 N   0  0  0  0  0  0  0  0  0  0  0  0
   65.4232   32.4716   51.3645 C   0  0  0  0  0  0  0  0  0  0  0  0
   66.4523   31.4742   50.8491 C   0  0  0  0  0  0  0  0  0  0  0  0
   66.4879   30.2384   51.7038 C   0  0  0  0  0  0  0  0  0  0  0  0
   67.7416   29.7809   52.1561 C   0  0  0  0  0  0  0  0  0  0  0  0
   67.8426   28.6394   52.9513 C   0  0  0  0  0  0  0  0  0  0  0  0
   66.6950   27.9414   53.3156 C   0  0  0  0  0  0  0  0  0  0  0  0
   65.4440   28.3880   52.8907 C   0  0  0  0  0  0  0  0  0  0  0  0
   65.3163   29.5339   52.0898 C   0  0  0  0  0  0  0  0  0  0  0  0
   63.9748   29.9310   51.7558 N   0  0  0  0  0  0  0  0  0  0  0  0
   63.4123   31.0165   51.0009 C   0  0  0  0  0  0  0  0  0  0  0  0
   62.2393   30.8684   50.5732 O   0  0  0  0  0  0  0  0  0  0  0  0
   58.0931   30.3987   44.2237 C   0  0  0  0  0  0  0  0  0  0  0  0
   58.6374   30.3831   45.4514 C   0  0  0  0  0  0  0  0  0  0  0  0
   59.4207   29.3618   46.0114 C   0  0  0  0  0  0  0  0  0  0  0  0
   59.6504   28.0992   45.6042 C   0  0  0  0  0  0  0  0  0  0  0  0
   59.9809   29.8913   47.1605 C   0  0  0  0  0  0  0  0  0  0  0  0
   59.4795   31.1685   47.3011 C   0  0  0  0  0  0  0  0  0  0  0  0
   58.6409   31.4607   46.2787 N   0  0  0  0  0  0  0  0  0  0  0  0
   57.9411   32.7351   46.0754 C   0  0  0  0  0  0  0  0  0  0  0  0
   58.7663   26.9484   45.8441 C   0  0  0  0  0  0  0  0  0  0  0  0
   59.1914   25.6878   46.0594 N   0  0  0  0  0  0  0  0  0  0  0  0
   58.0436   24.9740   46.0851 C   0  0  0  0  0  0  0  0  0  0  0  0
   58.0237   23.7310   46.2809 O   0  0  0  0  0  0  0  0  0  0  0  0
   56.9211   25.6940   45.8741 N   0  0  0  0  0  0  0  0  0  0  0  0
   57.3988   26.9387   45.7070 C   0  0  0  0  0  0  0  0  0  0  0  0
   56.6040   28.0404   45.4228 O   0  0  0  0  0  0  0  0  0  0  0  0
 21 22  2  0
 22 23  1  0
 23 24  2  0
 24 29  1  0
 29 30  1  0
 30 31  1  0
 31 32  2  0
 31 33  1  0
 33 34  1  0
 34 35  1  0
 23 25  1  0
 25 26  2  0
 26  1  1  0
  1  2  2  0
  1  3  1  0
  3  4  1  0
  4  5  1  0
  5  6  1  0
  6  9  1  0
  9 10  1  0
 10 11  1  0
 11 12  1  0
 12 13  2  0
 13 14  1  0
 14 15  2  0
 15 16  1  0
 16 17  2  0
 17 18  1  0
 18 19  1  0
 19 20  2  0
  6  7  1  0
  7  8  1  0
 26 27  1  0
 27 28  1  0
 27 22  1  0
 34 29  2  0
  8  3  1  0
 19  9  1  0
 17 12  1  0
M  CHG 1  18  -1
M  CHG 1  30  -1
M  CHG 1  33  -1
M  CHG 1  35  -1
M  END
> <UniqueID>
55

> <SMILES>
C=c1c(=Cc2[n-]c(=O)[n-]c2[O-])cc(C(=O)N2CCC(N3CCc4ccccc4[N-]C3=O)CC2)n1C

> <Energy>
154.74268940948602

> <Genealogy>
C=c1c(=Cc2[n-]c(=O)[n-]c2[O-])cc(C(=O)N2CCC(N3CCc4ccccc4[N-]C3=O)CC2)n1C (protonated)
C=c1c(=Cc2[n-]c(=O)[n-]c2[O-])cc(C(=O)N2CCC(N3CCc4ccccc4[N-]C3=O)CC2)n1C (3D coordinates assigned)
C=c1c(=Cc2[n-]c(=O)[n-]c2[O-])cc(C(=O)N2CCC(N3CCc4ccccc4[N-]C3=O)CC2)n1C (nonaromatic ring conformer: 154.74268940948602 kcal/mol)

> <smiles>
C=c1c(=Cc2[nH]c(=O)[nH]c2O)cc(C(=O)N2CCC(N3CCc4ccccc4NC3=O)CC2)n1C

> <score_type>
oracle

> <origin>
adg

> <m_score__min__energy>
-18.219999999999999

> <m_primary>
energy

> <minimizedAffinity>
-9.43757

> <minimizedRMSD>
1.41962

> <CNNscore>
0.2325802296

> <CNNaffinity>
6.7769827843

> <CNN_VS>
1.5761922598

> <CNNaffinity_variance>
0.1889687181

$$$$
60:0


 30 33  0  0  0  0  0  0  0  0999 V2000
   56.2353   31.5502   52.6688 C   0  0  0  0  0  0  0  0  0  0  0  0
   55.9114   30.3464   53.1651 C   0  0  0  0  0  0  0  0  0  0  0  0
   54.6236   29.8885   53.4613 C   0  0  0  0  0  0  0  0  0  0  0  0
   53.4630   30.5507   53.2927 C   0  0  0  0  0  0  0  0  0  0  0  0
   54.7683   28.5804   53.9074 C   0  0  0  0  0  0  0  0  0  0  0  0
   56.1206   28.3023   53.8864 C   0  0  0  0  0  0  0  0  0  0  0  0
   56.7248   26.9819   54.2573 C   0  0  0  0  0  0  0  0  0  0  0  0
   56.8146   29.3709   53.4328 N   0  0  0  0  0  0  0  0  0  0  0  0
   52.6873   30.5507   52.0389 C   0  0  0  0  0  0  0  0  0  0  0  0
   52.9295   29.7044   51.0228 N   0  0  0  0  0  0  0  0  0  0  0  0
   52.0636   30.1043   50.0672 C   0  0  0  0  0  0  0  0  0  0  0  0
   51.9777   29.5349   48.9482 O   0  0  0  0  0  0  0  0  0  0  0  0
   51.3036   31.1689   50.4007 N   0  0  0  0  0  0  0  0  0  0  0  0
   51.7192   31.4484   51.6471 C   0  0  0  0  0  0  0  0  0  0  0  0
   51.2539   32.5297   52.3857 O   0  0  0  0  0  0  0  0  0  0  0  0
   58.2415   29.4321   53.2644 C   0  0  0  0  0  0  0  0  0  0  0  0
   59.0885   29.3779   54.3766 C   0  0  0  0  0  0  0  0  0  0  0  0
   60.4355   29.4430   54.2114 N   0  0  0  0  0  0  0  0  0  0  0  0
   61.0154   29.5687   52.9837 C   0  0  0  0  0  0  0  0  0  0  0  0
   60.1930   29.6280   51.8447 C   0  0  0  0  0  0  0  0  0  0  0  0
   58.8072   29.5621   51.9895 C   0  0  0  0  0  0  0  0  0  0  0  0
   58.0126   29.6349   50.8913 F   0  0  0  0  0  0  0  0  0  0  0  0
   62.4537   29.6324   52.8760 N   0  0  0  0  0  0  0  0  0  0  0  0
   63.1130   29.7645   51.5686 C   0  0  0  0  0  0  0  0  0  0  0  0
   64.5237   30.3475   51.7298 C   0  0  0  0  0  0  0  0  0  0  0  0
   65.3671   29.5695   52.6703 N   0  0  0  0  0  0  0  0  0  0  0  0
   64.6201   28.9657   53.8078 C   0  0  0  0  0  0  0  0  0  0  0  0
   63.2830   29.6597   54.0877 C   0  0  0  0  0  0  0  0  0  0  0  0
   66.1873   28.5652   51.9566 C   0  0  0  0  0  0  0  0  0  0  0  0
   65.7364   27.1419   52.2836 C   0  0  0  0  0  0  0  0  0  0  0  0
  1  2  2  0
  2  3  1  0
  3  4  2  0
  4  9  1  0
  9 10  1  0
 10 11  1  0
 11 12  2  0
 11 13  1  0
 13 14  1  0
 14 15  1  0
  3  5  1  0
  5  6  2  0
  6  7  1  0
  6  8  1  0
  8 16  1  0
 16 17  2  0
 17 18  1  0
 18 19  2  0
 19 23  1  0
 23 24  1  0
 24 25  1  0
 25 26  1  0
 26 29  1  0
 29 30  1  0
 26 27  1  0
 27 28  1  0
 19 20  1  0
 20 21  2  0
 21 22  1  0
  8  2  1  0
 21 16  1  0
 14  9  2  0
 28 23  1  0
M  CHG 1  10  -1
M  CHG 1  13  -1
M  CHG 1  15  -1
M  END
> <UniqueID>
59

> <SMILES>
C=c1/c(=C/c2[n-]c(=O)[n-]c2[O-])cc(C)n1-c1cnc(N2CCN(CC)CC2)cc1F

> <Energy>
134.71709352096562

> <Genealogy>
C=c1c(=Cc2[n-]c(=O)[n-]c2[O-])cc(C)n1-c1cnc(N2CCN(CC)CC2)cc1F (protonated)
C=c1/c(=C/c2[n-]c(=O)[n-]c2[O-])cc(C)n1-c1cnc(N2CCN(CC)CC2)cc1F (cis-trans isomerization)
C=c1/c(=C/c2[n-]c(=O)[n-]c2[O-])cc(C)n1-c1cnc(N2CCN(CC)CC2)cc1F (3D coordinates assigned)
C=c1/c(=C/c2[n-]c(=O)[n-]c2[O-])cc(C)n1-c1cnc(N2CCN(CC)CC2)cc1F (nonaromatic ring conformer: 134.71709352096562 kcal/mol)

> <smiles>
C=c1c(=Cc2[nH]c(=O)[nH]c2O)cc(C)n1-c1cnc(N2CCN(CC)CC2)cc1F

> <score_type>
oracle

> <origin>
adg

> <m_score__min__energy>
-15.369999999999999

> <m_primary>
energy

> <minimizedAffinity>
-4.52532

> <minimizedRMSD>
1.33163

> <CNNscore>
0.0682955906

> <CNNaffinity>
4.7835888863

> <CNN_VS>
0.3266980350

> <CNNaffinity_variance>
0.5027115345

$$$$
63:0


 24 26  0  0  0  0  0  0  0  0999 V2000
   56.1513   29.3484   44.9306 O   0  0  0  0  0  0  0  0  0  0  0  0
   57.3078   29.0793   45.3520 C   0  0  0  0  0  0  0  0  0  0  0  0
   57.8524   27.6954   45.1825 C   0  0  0  0  0  0  0  0  0  0  0  0
   57.5493   26.8186   46.4052 C   0  0  0  0  0  0  0  0  0  0  0  0
   57.3120   25.4137   46.0167 N   0  0  0  0  0  0  0  0  0  0  0  0
   58.3731   24.5622   45.8117 C   0  0  0  0  0  0  0  0  0  0  0  0
   59.6838   25.0005   45.9787 O   0  0  0  0  0  0  0  0  0  0  0  0
   58.1560   23.2374   45.4248 C   0  0  0  0  0  0  0  0  0  0  0  0
   56.8533   22.7782   45.2397 C   0  0  0  0  0  0  0  0  0  0  0  0
   56.6454   21.5883   44.8856 O   0  0  0  0  0  0  0  0  0  0  0  0
   55.7825   23.6466   45.4420 C   0  0  0  0  0  0  0  0  0  0  0  0
   56.0271   24.9674   45.8294 C   0  0  0  0  0  0  0  0  0  0  0  0
   54.9424   25.8183   46.0214 O   0  0  0  0  0  0  0  0  0  0  0  0
   58.0652   30.0393   46.0980 N   0  0  0  0  0  0  0  0  0  0  0  0
   58.3054   31.4128   45.7526 C   0  0  0  0  0  0  0  0  0  0  0  0
   57.9816   31.9090   44.4763 C   0  0  0  0  0  0  0  0  0  0  0  0
   58.2171   33.2462   44.1518 C   0  0  0  0  0  0  0  0  0  0  0  0
   58.7890   34.1081   45.0880 C   0  0  0  0  0  0  0  0  0  0  0  0
   59.1455   33.6336   46.3562 C   0  0  0  0  0  0  0  0  0  0  0  0
   59.7300   34.4969   47.2979 C   0  0  0  0  0  0  0  0  0  0  0  0
   60.0880   34.0216   48.5606 C   0  0  0  0  0  0  0  0  0  0  0  0
   59.8721   32.6836   48.8954 C   0  0  0  0  0  0  0  0  0  0  0  0
   59.2917   31.8115   47.9699 C   0  0  0  0  0  0  0  0  0  0  0  0
   58.9157   32.2731   46.6932 C   0  0  0  0  0  0  0  0  0  0  0  0
  1  2  2  0
  2  3  1  0
  3  4  1  0
  4  5  1  0
  5  6  1  0
  6  7  1  0
  6  8  2  0
  8  9  1  0
  9 10  2  0
  9 11  1  0
 11 12  2  0
 12 13  1  0
  2 14  1  0
 14 15  1  0
 15 16  2  0
 16 17  1  0
 17 18  2  0
 18 19  1  0
 19 20  2  0
 20 21  1  0
 21 22  2  0
 22 23  1  0
 23 24  2  0
 12  5  1  0
 24 15  1  0
 24 19  1  0
M  CHG 1   7  -1
M  CHG 1  13  -1
M  CHG 1  14  -1
M  END
> <UniqueID>
62

> <SMILES>
O=C(CCn1c([O-])cc(=O)cc1[O-])[N-]c1cccc2ccccc12

> <Energy>
45.06269729719827

> <Genealogy>
O=C(CCn1c([O-])cc(=O)cc1[O-])[N-]c1cccc2ccccc12 (protonated)
O=C(CCn1c([O-])cc(=O)cc1[O-])[N-]c1cccc2ccccc12 (3D coordinates assigned)
O=C(CCn1c([O-])cc(=O)cc1[O-])[N-]c1cccc2ccccc12 (optimized conformer: 45.06269729719827 kcal/mol)

> <smiles>
O=C(CCn1c(O)cc(=O)cc1O)Nc1cccc2ccccc12

> <score_type>
oracle

> <origin>
adg

> <m_score__min__energy>
-14.949999999999999

> <m_primary>
energy

> <minimizedAffinity>
-8.24358

> <minimizedRMSD>
0.77796

> <CNNscore>
0.7897521257

> <CNNaffinity>
6.3243412971

> <CNN_VS>
4.9946618080

> <CNNaffinity_variance>
0.1035704687

$$$$
5:0


 23 24  0  0  0  0  0  0  0  0999 V2000
   58.8500   27.9077   45.4867 C   0  0  0  0  0  0  0  0  0  0  0  0
   59.1740   28.7498   46.5727 C   0  0  0  0  0  0  0  0  0  0  0  0
   59.2372   28.2582   47.8729 C   0  0  0  0  0  0  0  0  0  0  0  0
   58.9420   26.9275   48.1318 C   0  0  0  0  0  0  0  0  0  0  0  0
   58.5603   26.0737   47.0972 C   0  0  0  0  0  0  0  0  0  0  0  0
   58.1323   24.4207   47.5314 Cl  0  0  0  0  0  0  0  0  0  0  0  0
   58.4981   26.5471   45.7610 C   0  0  0  0  0  0  0  0  0  0  0  0
   58.7671   28.4764   44.0680 C   0  0  0  0  0  0  0  0  0  0  0  0
   57.3628   28.8141   43.5338 C   0  0  0  0  0  0  0  0  0  0  0  0
   55.6006   29.7847   44.8295 O   0  0  0  0  0  0  0  0  0  0  0  0
   56.7275   29.9410   44.2884 C   0  0  0  0  0  0  0  0  0  0  0  0
   57.3727   31.1685   44.3907 O   0  0  0  0  0  0  0  0  0  0  0  0
   58.0038   25.6004   44.6729 C   0  0  0  0  0  0  0  0  0  0  0  0
   56.8075   24.7639   45.1045 C   0  0  0  0  0  0  0  0  0  0  0  0
   55.6739   25.3505   45.7098 C   0  0  0  0  0  0  0  0  0  0  0  0
   55.6015   26.7242   45.9092 O   0  0  0  0  0  0  0  0  0  0  0  0
   54.6315   24.5713   46.1079 N   0  0  0  0  0  0  0  0  0  0  0  0
   54.6387   23.2236   45.9570 C   0  0  0  0  0  0  0  0  0  0  0  0
   53.5460   22.4749   46.3764 O   0  0  0  0  0  0  0  0  0  0  0  0
   55.7410   22.5916   45.3861 C   0  0  0  0  0  0  0  0  0  0  0  0
   56.8310   23.3569   44.9672 C   0  0  0  0  0  0  0  0  0  0  0  0
   57.8307   22.7714   44.4678 O   0  0  0  0  0  0  0  0  0  0  0  0
   56.3107   27.2746   45.6409 H   0  0  0  0  0  0  0  0  0  0  0  0
 10 11  2  0
 11 12  1  0
 11  9  1  0
  9  8  1  0
  8  1  1  0
  1  2  2  0
  2  3  1  0
  3  4  2  0
  4  5  1  0
  5  6  1  0
  5  7  2  0
  7 13  1  0
 13 14  1  0
 14 15  2  0
 15 16  1  0
 15 17  1  0
 17 18  1  0
 18 19  1  0
 18 20  2  0
 20 21  1  0
 21 22  2  0
  7  1  1  0
 21 14  1  0
 16 23  1  0
M  CHG 1  12  -1
M  CHG 1  17  -1
M  CHG 1  19  -1
M  END
> <UniqueID>
6

> <SMILES>
O=C([O-])CCc1cccc(Cl)c1Cc1c(O)[n-]c([O-])cc1=O

> <Energy>
42.546531523559636

> <Genealogy>
O=C([O-])CCc1cccc(Cl)c1Cc1c(O)[n-]c([O-])cc1=O (protonated)
O=C([O-])CCc1cccc(Cl)c1Cc1c(O)[n-]c([O-])cc1=O (3D coordinates assigned)
O=C([O-])CCc1cccc(Cl)c1Cc1c(O)[n-]c([O-])cc1=O (optimized conformer: 42.546531523559636 kcal/mol)

> <smiles>
O=C(O)CCc1cccc(Cl)c1Cc1c(O)[nH]c(O)cc1=O

> <score_type>
oracle

> <origin>
adg

> <m_score__min__energy>
-14.32

> <m_primary>
energy

> <minimizedAffinity>
-4.75484

> <minimizedRMSD>
0.70294

> <CNNscore>
0.1187670529

> <CNNaffinity>
5.1614799500

> <CNN_VS>
0.6130137444

> <CNNaffinity_variance>
0.0138904350

$$$$
8:0


 32 35  0  0  0  0  0  0  0  0999 V2000
   59.9388   26.7042   47.2692 C   0  0  0  0  0  0  0  0  0  0  0  0
   59.4554   27.8084   46.6757 C   0  0  0  0  0  0  0  0  0  0  0  0
   59.8219   28.9964   47.2244 N   0  0  0  0  0  0  0  0  0  0  0  0
   59.3864   30.1993   46.7757 C   0  0  0  0  0  0  0  0  0  0  0  0
   58.4923   30.2578   45.6935 C   0  0  0  0  0  0  0  0  0  0  0  0
   58.1093   29.0535   45.0842 C   0  0  0  0  0  0  0  0  0  0  0  0
   58.5723   27.7994   45.5501 C   0  0  0  0  0  0  0  0  0  0  0  0
   58.2221   26.6514   44.9071 C   0  0  0  0  0  0  0  0  0  0  0  0
   57.6935   25.4265   45.5473 C   0  0  0  0  0  0  0  0  0  0  0  0
   58.3203   24.2345   45.5816 N   0  0  0  0  0  0  0  0  0  0  0  0
   57.4077   23.4179   46.1493 C   0  0  0  0  0  0  0  0  0  0  0  0
   57.6327   22.1981   46.3687 O   0  0  0  0  0  0  0  0  0  0  0  0
   56.2327   24.0057   46.4580 N   0  0  0  0  0  0  0  0  0  0  0  0
   56.4272   25.2741   46.0583 C   0  0  0  0  0  0  0  0  0  0  0  0
   55.4637   26.2698   46.1565 O   0  0  0  0  0  0  0  0  0  0  0  0
   59.8963   31.3880   47.3967 N   0  0  0  0  0  0  0  0  0  0  0  0
   60.8490   32.2281   46.6569 C   0  0  0  0  0  0  0  0  0  0  0  0
   61.5210   33.2534   47.5791 C   0  0  0  0  0  0  0  0  0  0  0  0
   62.0453   32.5545   48.8520 C   0  0  0  0  0  0  0  0  0  0  0  0
   60.9638   31.7218   49.5948 C   0  0  0  0  0  0  0  0  0  0  0  0
   59.6402   31.6257   48.8223 C   0  0  0  0  0  0  0  0  0  0  0  0
   62.7803   33.4989   49.7818 C   0  0  0  0  0  0  0  0  0  0  0  0
   62.4067   34.7028   49.8139 O   0  0  0  0  0  0  0  0  0  0  0  0
   63.8661   33.0835   50.6389 N   0  0  0  0  0  0  0  0  0  0  0  0
   63.9875   33.7192   51.9612 C   0  0  0  0  0  0  0  0  0  0  0  0
   65.1669   33.1500   52.7604 C   0  0  0  0  0  0  0  0  0  0  0  0
   66.4653   33.1855   51.9399 C   0  0  0  0  0  0  0  0  0  0  0  0
   66.2895   32.7134   50.4784 C   0  0  0  0  0  0  0  0  0  0  0  0
   64.8992   32.1338   50.1978 C   0  0  0  0  0  0  0  0  0  0  0  0
   57.9314   31.5484   45.2156 C   0  0  0  0  0  0  0  0  0  0  0  0
   57.3844   32.3374   46.0334 O   0  0  0  0  0  0  0  0  0  0  0  0
   57.9441   31.9188   43.7643 C   0  0  0  0  0  0  0  0  0  0  0  0
  1  2  2  0
  2  3  1  0
  3  4  2  0
  4 16  1  0
 16 17  1  0
 17 18  1  0
 18 19  1  0
 19 22  1  0
 22 23  2  0
 22 24  1  0
 24 25  1  0
 25 26  1  0
 26 27  1  0
 27 28  1  0
 28 29  1  0
 19 20  1  0
 20 21  1  0
  4  5  1  0
  5 30  1  0
 30 31  2  0
 30 32  1  0
  5  6  2  0
  6  7  1  0
  7  8  2  0
  8  9  1  0
  9 10  1  0
 10 11  1  0
 11 12  2  0
 11 13  1  0
 13 14  1  0
 14 15  1  0
  7  2  1  0
 14  9  2  0
 21 16  1  0
 29 24  1  0
M  CHG 1  10  -1
M  CHG 1  13  -1
M  CHG 1  15  -1
M  END
> <UniqueID>
8

> <SMILES>
C=c1nc(N2CCC(C(=O)N3CCCCC3)CC2)c(C(C)=O)c/c1=C\c1[n-]c(=O)[n-]c1[O-]

> <Energy>
118.45878793975108

> <Genealogy>
C=c1nc(N2CCC(C(=O)N3CCCCC3)CC2)c(C(C)=O)cc1=Cc1[n-]c(=O)[n-]c1[O-] (protonated)
C=c1nc(N2CCC(C(=O)N3CCCCC3)CC2)c(C(C)=O)c/c1=C\c1[n-]c(=O)[n-]c1[O-] (cis-trans isomerization)
C=c1nc(N2CCC(C(=O)N3CCCCC3)CC2)c(C(C)=O)c/c1=C\c1[n-]c(=O)[n-]c1[O-] (3D coordinates assigned)
C=c1nc(N2CCC(C(=O)N3CCCCC3)CC2)c(C(C)=O)c/c1=C\c1[n-]c(=O)[n-]c1[O-] (nonaromatic ring conformer: 118.45878793975108 kcal/mol)

> <smiles>
C=c1nc(N2CCC(C(=O)N3CCCCC3)CC2)c(C(C)=O)cc1=Cc1[nH]c(=O)[nH]c1O

> <score_type>
oracle

> <origin>
adg

> <m_score__min__energy>
-16.949999999999999

> <m_primary>
energy

> <minimizedAffinity>
-9.30985

> <minimizedRMSD>
0.83132

> <CNNscore>
0.2975791097

> <CNNaffinity>
6.9672293663

> <CNN_VS>
2.0733020306

> <CNNaffinity_variance>
0.0223094951

$$$$
12:0


 31 33  0  0  0  0  0  0  0  0999 V2000
   60.4755   32.0630   50.9767 C   0  0  0  0  0  0  0  0  0  0  0  0
   59.1501   32.2247   51.4078 C   0  0  0  0  0  0  0  0  0  0  0  0
   58.2835   31.1292   51.3861 C   0  0  0  0  0  0  0  0  0  0  0  0
   57.0910   31.2607   51.7712 O   0  0  0  0  0  0  0  0  0  0  0  0
   58.7401   29.8877   50.9389 C   0  0  0  0  0  0  0  0  0  0  0  0
   60.0716   29.7551   50.5139 C   0  0  0  0  0  0  0  0  0  0  0  0
   60.8931   30.8412   50.5443 N   0  0  0  0  0  0  0  0  0  0  0  0
   61.4262   33.1917   50.9801 C   0  0  0  0  0  0  0  0  0  0  0  0
   62.1677   33.3787   51.9832 O   0  0  0  0  0  0  0  0  0  0  0  0
   61.5097   34.0730   49.8557 N   0  0  0  0  0  0  0  0  0  0  0  0
   61.8956   33.6228   48.5255 C   0  0  0  0  0  0  0  0  0  0  0  0
   57.2492   33.9607   45.0484 C   0  0  0  0  0  0  0  0  0  0  0  0
   58.4526   33.8312   45.9340 C   0  0  0  0  0  0  0  0  0  0  0  0
   59.7299   34.1237   45.4373 C   0  0  0  0  0  0  0  0  0  0  0  0
   60.8485   34.0450   46.2728 C   0  0  0  0  0  0  0  0  0  0  0  0
   60.7012   33.6711   47.6182 C   0  0  0  0  0  0  0  0  0  0  0  0
   59.4187   33.4113   48.1234 C   0  0  0  0  0  0  0  0  0  0  0  0
   58.3011   33.4909   47.2876 C   0  0  0  0  0  0  0  0  0  0  0  0
   60.5976   28.4658   50.0293 C   0  0  0  0  0  0  0  0  0  0  0  0
   60.9120   27.5737   50.8646 O   0  0  0  0  0  0  0  0  0  0  0  0
   60.7014   28.2084   48.6219 N   0  0  0  0  0  0  0  0  0  0  0  0
   59.8080   28.6716   47.5982 C   0  0  0  0  0  0  0  0  0  0  0  0
   59.9755   29.9164   46.9684 C   0  0  0  0  0  0  0  0  0  0  0  0
   59.0697   30.3393   45.9910 C   0  0  0  0  0  0  0  0  0  0  0  0
   57.9731   29.5358   45.6345 C   0  0  0  0  0  0  0  0  0  0  0  0
   57.7980   28.3007   46.2867 C   0  0  0  0  0  0  0  0  0  0  0  0
   58.7033   27.8797   47.2628 C   0  0  0  0  0  0  0  0  0  0  0  0
   57.0151   29.9854   44.5984 C   0  0  0  0  0  0  0  0  0  0  0  0
   55.6490   29.5734   44.6437 N   0  0  0  0  0  0  0  0  0  0  0  0
   57.3972   30.7376   43.6628 O   0  0  0  0  0  0  0  0  0  0  0  0
   55.3359   28.9857   45.3688 H   0  0  0  0  0  0  0  0  0  0  0  0
 12 13  1  0
 13 14  2  0
 14 15  1  0
 15 16  2  0
 16 11  1  0
 11 10  1  0
 10  8  1  0
  8  9  2  0
  8  1  1  0
  1  2  2  0
  2  3  1  0
  3  4  2  0
  3  5  1  0
  5  6  2  0
  6 19  1  0
 19 20  2  0
 19 21  1  0
 21 22  1  0
 22 23  2  0
 23 24  1  0
 24 25  2  0
 25 28  1  0
 28 29  1  0
 28 30  2  0
 25 26  1  0
 26 27  2  0
  6  7  1  0
 16 17  1  0
 17 18  2  0
 18 13  1  0
  7  1  1  0
 27 22  1  0
 29 31  1  0
M  CHG 1   7  -1
M  CHG 1  10  -1
M  CHG 1  21  -1
M  CHG 1  29  -1
M  END
> <UniqueID>
12

> <SMILES>
Cc1ccc(C[N-]C(=O)c2cc(=O)cc(C(=O)[N-]c3ccc(C([NH-])=O)cc3)[n-]2)cc1

> <Energy>
49.46371061726334

> <Genealogy>
Cc1ccc(C[N-]C(=O)c2cc(=O)cc(C(=O)[N-]c3ccc(C([NH-])=O)cc3)[n-]2)cc1 (protonated)
Cc1ccc(C[N-]C(=O)c2cc(=O)cc(C(=O)[N-]c3ccc(C([NH-])=O)cc3)[n-]2)cc1 (3D coordinates assigned)
Cc1ccc(C[N-]C(=O)c2cc(=O)cc(C(=O)[N-]c3ccc(C([NH-])=O)cc3)[n-]2)cc1 (optimized conformer: 49.46371061726334 kcal/mol)

> <smiles>
Cc1ccc(CNC(=O)c2cc(=O)cc(C(=O)Nc3ccc(C(N)=O)cc3)[nH]2)cc1

> <score_type>
oracle

> <origin>
adg

> <m_score__min__energy>
-15.210000000000001

> <m_primary>
energy

> <minimizedAffinity>
-7.84483

> <minimizedRMSD>
0.67507

> <CNNscore>
0.8149595261

> <CNNaffinity>
6.9395995140

> <CNN_VS>
5.6554927826

> <CNNaffinity_variance>
0.3493367732

$$$$
14:0


 35 38  0  0  0  0  0  0  0  0999 V2000
   55.9362   29.4905   45.0602 O   0  0  0  0  0  0  0  0  0  0  0  0
   56.9133   30.2129   44.7293 C   0  0  0  0  0  0  0  0  0  0  0  0
   58.0940   29.6023   44.0784 C   0  0  0  0  0  0  0  0  0  0  0  0
   59.2331   29.2772   44.7060 C   0  0  0  0  0  0  0  0  0  0  0  0
   59.3488   28.3909   45.8843 C   0  0  0  0  0  0  0  0  0  0  0  0
   60.2020   28.7015   46.9549 C   0  0  0  0  0  0  0  0  0  0  0  0
   60.2429   27.8773   48.0814 C   0  0  0  0  0  0  0  0  0  0  0  0
   59.4084   26.7614   48.1668 C   0  0  0  0  0  0  0  0  0  0  0  0
   58.5111   26.4671   47.1341 C   0  0  0  0  0  0  0  0  0  0  0  0
   58.4971   27.2779   45.9857 C   0  0  0  0  0  0  0  0  0  0  0  0
   57.6306   25.3464   47.3057 N   0  0  0  0  0  0  0  0  0  0  0  0
   56.3339   24.8285   46.2689 S   0  0  0  0  0  0  0  0  0  0  0  0
   55.4462   26.0129   46.0138 O   0  0  0  0  0  0  0  0  0  0  0  0
   55.5013   23.7709   46.9350 O   0  0  0  0  0  0  0  0  0  0  0  0
   56.9395   24.2575   44.7275 N   0  0  0  0  0  0  0  0  0  0  0  0
   58.0996   23.3713   44.9139 C   0  0  0  0  0  0  0  0  0  0  0  0
   57.7993   22.0410   44.2384 C   0  0  0  0  0  0  0  0  0  0  0  0
   56.3013   22.0288   44.0605 C   0  0  0  0  0  0  0  0  0  0  0  0
   55.9287   23.4957   43.9850 C   0  0  0  0  0  0  0  0  0  0  0  0
   56.8395   31.6236   44.9656 N   0  0  0  0  0  0  0  0  0  0  0  0
   57.9144   32.4384   45.4451 C   0  0  0  0  0  0  0  0  0  0  0  0
   58.3109   33.5925   44.7534 C   0  0  0  0  0  0  0  0  0  0  0  0
   59.3675   34.3693   45.2338 C   0  0  0  0  0  0  0  0  0  0  0  0
   60.0389   33.9960   46.4005 C   0  0  0  0  0  0  0  0  0  0  0  0
   59.6639   32.8322   47.0859 C   0  0  0  0  0  0  0  0  0  0  0  0
   58.6148   32.0460   46.5922 C   0  0  0  0  0  0  0  0  0  0  0  0
   60.4872   32.3755   48.5772 S   0  0  0  0  0  0  0  0  0  0  0  0
   60.8915   33.6174   49.3200 O   0  0  0  0  0  0  0  0  0  0  0  0
   61.7342   31.6078   48.2372 O   0  0  0  0  0  0  0  0  0  0  0  0
   59.4690   31.3948   49.6007 N   0  0  0  0  0  0  0  0  0  0  0  0
   60.2866   30.4799   50.4142 C   0  0  0  0  0  0  0  0  0  0  0  0
   59.4151   29.7590   51.4617 C   0  0  0  0  0  0  0  0  0  0  0  0
   58.0392   29.9832   51.2228 O   0  0  0  0  0  0  0  0  0  0  0  0
   57.7447   31.3609   51.3621 C   0  0  0  0  0  0  0  0  0  0  0  0
   58.6397   32.2413   50.4687 C   0  0  0  0  0  0  0  0  0  0  0  0
  1  2  2  0
  2  3  1  0
  3  4  2  0
  4  5  1  0
  5  6  2  0
  6  7  1  0
  7  8  2  0
  8  9  1  0
  9 11  1  0
 11 12  1  0
 12 13  2  0
 12 14  2  0
 12 15  1  0
 15 16  1  0
 16 17  1  0
 17 18  1  0
 18 19  1  0
  9 10  2  0
  2 20  1  0
 20 21  1  0
 21 22  2  0
 22 23  1  0
 23 24  2  0
 24 25  1  0
 25 27  1  0
 27 28  2  0
 27 29  2  0
 27 30  1  0
 30 31  1  0
 31 32  1  0
 32 33  1  0
 33 34  1  0
 34 35  1  0
 25 26  2  0
 10  5  1  0
 26 21  1  0
 19 15  1  0
 35 30  1  0
M  CHG 1  11  -1
M  CHG 1  20  -1
M  END
> <UniqueID>
14

> <SMILES>
O=C(C=Cc1cccc([N-]S(=O)(=O)N2CCCC2)c1)[N-]c1cccc(S(=O)(=O)N2CCOCC2)c1

> <Energy>
89.13101956706393

> <Genealogy>
O=C(C=Cc1cccc([N-]S(=O)(=O)N2CCCC2)c1)[N-]c1cccc(S(=O)(=O)N2CCOCC2)c1 (protonated)
O=C(C=Cc1cccc([N-]S(=O)(=O)N2CCCC2)c1)[N-]c1cccc(S(=O)(=O)N2CCOCC2)c1 (3D coordinates assigned)
O=C(C=Cc1cccc([N-]S(=O)(=O)N2CCCC2)c1)[N-]c1cccc(S(=O)(=O)N2CCOCC2)c1 (nonaromatic ring conformer: 89.13101956706393 kcal/mol)

> <smiles>
O=C(C=Cc1cccc(NS(=O)(=O)N2CCCC2)c1)Nc1cccc(S(=O)(=O)N2CCOCC2)c1

> <score_type>
oracle

> <origin>
adg

> <m_score__min__energy>
-14.5

> <m_primary>
energy

> <minimizedAffinity>
-8.84236

> <minimizedRMSD>
0.54690

> <CNNscore>
0.8070458770

> <CNNaffinity>
7.4328207970

> <CNN_VS>
5.9986271858

> <CNNaffinity_variance>
0.0381441563

$$$$
15:0


 28 30  0  0  0  0  0  0  0  0999 V2000
   58.5625   31.1360   44.3793 C   0  0  0  0  0  0  0  0  0  0  0  0
   58.6962   30.7877   45.6688 C   0  0  0  0  0  0  0  0  0  0  0  0
   58.8577   29.4870   46.1579 C   0  0  0  0  0  0  0  0  0  0  0  0
   58.8538   28.3392   45.4537 C   0  0  0  0  0  0  0  0  0  0  0  0
   59.0014   29.6017   47.5330 C   0  0  0  0  0  0  0  0  0  0  0  0
   58.9357   30.9467   47.8238 C   0  0  0  0  0  0  0  0  0  0  0  0
   58.7293   31.6720   46.7016 N   0  0  0  0  0  0  0  0  0  0  0  0
   58.2917   27.0679   45.9659 C   0  0  0  0  0  0  0  0  0  0  0  0
   56.9084   26.8444   45.9241 C   0  0  0  0  0  0  0  0  0  0  0  0
   56.0479   27.8209   45.4353 O   0  0  0  0  0  0  0  0  0  0  0  0
   56.3969   25.6692   46.3723 N   0  0  0  0  0  0  0  0  0  0  0  0
   57.2040   24.6905   46.8518 C   0  0  0  0  0  0  0  0  0  0  0  0
   56.7071   23.6125   47.2677 O   0  0  0  0  0  0  0  0  0  0  0  0
   58.5500   24.8707   46.8796 N   0  0  0  0  0  0  0  0  0  0  0  0
   59.1112   26.0265   46.4403 C   0  0  0  0  0  0  0  0  0  0  0  0
   60.3667   26.1436   46.4487 O   0  0  0  0  0  0  0  0  0  0  0  0
   59.0945   31.5168   49.1733 C   0  0  0  0  0  0  0  0  0  0  0  0
   58.0653   31.9371   49.7706 O   0  0  0  0  0  0  0  0  0  0  0  0
   60.3935   31.6306   49.7923 N   0  0  0  0  0  0  0  0  0  0  0  0
   61.5736   31.0070   49.1749 C   0  0  0  0  0  0  0  0  0  0  0  0
   62.8128   31.1129   50.0794 C   0  0  0  0  0  0  0  0  0  0  0  0
   63.0367   32.4812   50.6034 N   0  0  0  0  0  0  0  0  0  0  0  0
   61.8248   33.2940   50.8603 C   0  0  0  0  0  0  0  0  0  0  0  0
   60.5701   32.4319   51.0087 C   0  0  0  0  0  0  0  0  0  0  0  0
   64.1232   33.2308   49.9378 C   0  0  0  0  0  0  0  0  0  0  0  0
   63.8812   33.4819   48.4429 C   0  0  0  0  0  0  0  0  0  0  0  0
   58.6850   33.1404   46.6296 C   0  0  0  0  0  0  0  0  0  0  0  0
   57.4094   33.6000   45.9349 C   0  0  0  0  0  0  0  0  0  0  0  0
  1  2  2  0
  2  3  1  0
  3  4  2  0
  4  8  1  0
  8  9  2  0
  9 10  1  0
  9 11  1  0
 11 12  1  0
 12 13  2  0
 12 14  1  0
 14 15  1  0
 15 16  2  0
  3  5  1  0
  5  6  2  0
  6 17  1  0
 17 18  2  0
 17 19  1  0
 19 20  1  0
 20 21  1  0
 21 22  1  0
 22 25  1  0
 25 26  1  0
 22 23  1  0
 23 24  1  0
  6  7  1  0
  7 27  1  0
 27 28  1  0
  7  2  1  0
 15  8  1  0
 24 19  1  0
M  CHG 1  10  -1
M  CHG 1  11  -1
M  CHG 1  14  -1
M  END
> <UniqueID>
15

> <SMILES>
C=c1c(=Cc2c([O-])[n-]c(=O)[n-]c2=O)cc(C(=O)N2CCN(CC)CC2)n1CC

> <Energy>
101.41813629468636

> <Genealogy>
C=c1c(=Cc2c([O-])[n-]c(=O)[n-]c2=O)cc(C(=O)N2CCN(CC)CC2)n1CC (protonated)
C=c1c(=Cc2c([O-])[n-]c(=O)[n-]c2=O)cc(C(=O)N2CCN(CC)CC2)n1CC (3D coordinates assigned)
C=c1c(=Cc2c([O-])[n-]c(=O)[n-]c2=O)cc(C(=O)N2CCN(CC)CC2)n1CC (nonaromatic ring conformer: 101.41813629468636 kcal/mol)

> <smiles>
C=c1c(=Cc2c(O)[nH]c(=O)[nH]c2=O)cc(C(=O)N2CCN(CC)CC2)n1CC

> <score_type>
oracle

> <origin>
adg

> <m_score__min__energy>
-16.039999999999999

> <m_primary>
energy

> <minimizedAffinity>
-6.02700

> <minimizedRMSD>
1.94052

> <CNNscore>
0.1296284497

> <CNNaffinity>
6.1315398216

> <CNN_VS>
0.7948219776

> <CNNaffinity_variance>
0.0365281999

$$$$
16:0


 36 39  0  0  0  0  0  0  0  0999 V2000
   57.5239   27.0242   43.9941 C   0  0  0  0  0  0  0  0  0  0  0  0
   58.2644   26.6117   45.0370 C   0  0  0  0  0  0  0  0  0  0  0  0
   58.1849   25.3675   45.6819 C   0  0  0  0  0  0  0  0  0  0  0  0
   57.5597   24.2259   45.3318 C   0  0  0  0  0  0  0  0  0  0  0  0
   58.9268   25.4861   46.8443 C   0  0  0  0  0  0  0  0  0  0  0  0
   59.4812   26.7495   46.8422 C   0  0  0  0  0  0  0  0  0  0  0  0
   59.0928   27.4308   45.7378 N   0  0  0  0  0  0  0  0  0  0  0  0
   59.4380   28.7951   45.4294 C   0  0  0  0  0  0  0  0  0  0  0  0
   60.5990   29.0679   45.0215 O   0  0  0  0  0  0  0  0  0  0  0  0
   58.4478   29.8280   45.5472 N   0  0  0  0  0  0  0  0  0  0  0  0
   57.5031   29.5556   45.5994 H   0  0  0  0  0  0  0  0  0  0  0  0
   60.4413   27.2392   47.8552 C   0  0  0  0  0  0  0  0  0  0  0  0
   61.6376   26.8477   47.7998 O   0  0  0  0  0  0  0  0  0  0  0  0
   60.0312   28.1280   48.9138 N   0  0  0  0  0  0  0  0  0  0  0  0
   58.9004   29.0492   48.7359 C   0  0  0  0  0  0  0  0  0  0  0  0
   59.2452   30.4295   49.3032 C   0  0  0  0  0  0  0  0  0  0  0  0
   59.8326   30.3408   50.6505 N   0  0  0  0  0  0  0  0  0  0  0  0
   60.0134   31.5376   51.4413 C   0  0  0  0  0  0  0  0  0  0  0  0
   59.8325   32.9034   50.8484 C   0  0  0  0  0  0  0  0  0  0  0  0
   60.3094   31.4485   52.6645 O   0  0  0  0  0  0  0  0  0  0  0  0
   60.1293   29.0235   51.2306 C   0  0  0  0  0  0  0  0  0  0  0  0
   60.7745   28.1109   50.1807 C   0  0  0  0  0  0  0  0  0  0  0  0
   56.1646   23.8793   45.6430 C   0  0  0  0  0  0  0  0  0  0  0  0
   55.6566   22.6433   45.4983 N   0  0  0  0  0  0  0  0  0  0  0  0
   54.3434   22.8122   45.7630 C   0  0  0  0  0  0  0  0  0  0  0  0
   53.5216   21.8586   45.7487 O   0  0  0  0  0  0  0  0  0  0  0  0
   53.9768   24.0828   46.0347 N   0  0  0  0  0  0  0  0  0  0  0  0
   55.1387   24.7491   45.9411 C   0  0  0  0  0  0  0  0  0  0  0  0
   55.2524   26.1262   46.0918 O   0  0  0  0  0  0  0  0  0  0  0  0
   58.7452   31.2348   45.5939 C   0  0  0  0  0  0  0  0  0  0  0  0
   58.0427   32.1109   44.7509 C   0  0  0  0  0  0  0  0  0  0  0  0
   58.2922   33.4859   44.7925 C   0  0  0  0  0  0  0  0  0  0  0  0
   59.2367   33.9994   45.6865 C   0  0  0  0  0  0  0  0  0  0  0  0
   59.5465   35.7251   45.7417 Cl  0  0  0  0  0  0  0  0  0  0  0  0
   59.9242   33.1382   46.5473 C   0  0  0  0  0  0  0  0  0  0  0  0
   59.6761   31.7624   46.5082 C   0  0  0  0  0  0  0  0  0  0  0  0
  1  2  2  0
  2  3  1  0
  3  4  2  0
  4 23  1  0
 23 24  1  0
 24 25  1  0
 25 26  2  0
 25 27  1  0
 27 28  1  0
 28 29  1  0
  3  5  1  0
  5  6  2  0
  6 12  1  0
 12 13  2  0
 12 14  1  0
 14 15  1  0
 15 16  1  0
 16 17  1  0
 17 18  1  0
 18 19  1  0
 18 20  2  0
 17 21  1  0
 21 22  1  0
  6  7  1  0
  7  8  1  0
  8  9  2  0
  8 10  1  0
 10 30  1  0
 30 31  2  0
 31 32  1  0
 32 33  2  0
 33 34  1  0
 33 35  1  0
 35 36  2  0
  7  2  1  0
 36 30  1  0
 28 23  2  0
 22 14  1  0
 10 11  1  0
M  CHG 1  24  -1
M  CHG 1  27  -1
M  CHG 1  29  -1
M  END
> <UniqueID>
16

> <SMILES>
C=c1c(=Cc2[n-]c(=O)[n-]c2[O-])cc(C(=O)N2CCN(C(C)=O)CC2)n1C(=O)Nc1ccc(Cl)cc1

> <Energy>
139.2206558053891

> <Genealogy>
C=c1c(=Cc2[n-]c(=O)[n-]c2[O-])cc(C(=O)N2CCN(C(C)=O)CC2)n1C(=O)Nc1ccc(Cl)cc1 (protonated)
C=c1c(=Cc2[n-]c(=O)[n-]c2[O-])cc(C(=O)N2CCN(C(C)=O)CC2)n1C(=O)Nc1ccc(Cl)cc1 (3D coordinates assigned)
C=c1c(=Cc2[n-]c(=O)[n-]c2[O-])cc(C(=O)N2CCN(C(C)=O)CC2)n1C(=O)Nc1ccc(Cl)cc1 (nonaromatic ring conformer: 139.2206558053891 kcal/mol)

> <smiles>
C=c1c(=Cc2[nH]c(=O)[nH]c2O)cc(C(=O)N2CCN(C(C)=O)CC2)n1C(=O)Nc1ccc(Cl)cc1

> <score_type>
oracle

> <origin>
adg

> <m_score__min__energy>
-16.48

> <m_primary>
energy

> <minimizedAffinity>
-7.41816

> <minimizedRMSD>
0.76742

> <CNNscore>
0.0964064598

> <CNNaffinity>
6.5439209938

> <CNN_VS>
0.6308762431

> <CNNaffinity_variance>
0.1531532854

$$$$
24:0


 35 38  0  0  0  0  0  0  0  0999 V2000
   58.2678   31.8070   46.1081 C   0  0  0  0  0  0  0  0  0  0  0  0
   57.2960   32.6107   46.1211 O   0  0  0  0  0  0  0  0  0  0  0  0
   59.4897   32.1721   46.7756 N   0  0  0  0  0  0  0  0  0  0  0  0
   60.0711   33.5054   46.5774 C   0  0  0  0  0  0  0  0  0  0  0  0
   60.4497   34.1116   47.9298 C   0  0  0  0  0  0  0  0  0  0  0  0
   61.2288   33.1371   48.6992 N   0  0  0  0  0  0  0  0  0  0  0  0
   62.6515   33.2997   48.8516 C   0  0  0  0  0  0  0  0  0  0  0  0
   63.3160   33.8396   47.9252 O   0  0  0  0  0  0  0  0  0  0  0  0
   60.6002   31.8341   48.9407 C   0  0  0  0  0  0  0  0  0  0  0  0
   60.2212   31.1979   47.6006 C   0  0  0  0  0  0  0  0  0  0  0  0
   58.0508   26.9760   43.2220 C   0  0  0  0  0  0  0  0  0  0  0  0
   57.9439   28.0479   44.0292 C   0  0  0  0  0  0  0  0  0  0  0  0
   57.4825   29.2455   43.4485 C   0  0  0  0  0  0  0  0  0  0  0  0
   57.5725   30.4558   44.1294 C   0  0  0  0  0  0  0  0  0  0  0  0
   58.1264   30.5071   45.4122 C   0  0  0  0  0  0  0  0  0  0  0  0
   58.5533   29.3197   46.0226 C   0  0  0  0  0  0  0  0  0  0  0  0
   58.3988   28.0659   45.3890 C   0  0  0  0  0  0  0  0  0  0  0  0
   58.6839   26.9692   46.1365 C   0  0  0  0  0  0  0  0  0  0  0  0
   58.0232   25.6535   46.0439 C   0  0  0  0  0  0  0  0  0  0  0  0
   58.6943   24.4897   46.0045 N   0  0  0  0  0  0  0  0  0  0  0  0
   57.7128   23.5624   46.0338 C   0  0  0  0  0  0  0  0  0  0  0  0
   57.9451   22.3263   45.9971 O   0  0  0  0  0  0  0  0  0  0  0  0
   56.4601   24.0636   46.1167 N   0  0  0  0  0  0  0  0  0  0  0  0
   56.6748   25.3875   46.1352 C   0  0  0  0  0  0  0  0  0  0  0  0
   55.6633   26.3304   46.2686 O   0  0  0  0  0  0  0  0  0  0  0  0
   63.3468   32.8506   50.0799 C   0  0  0  0  0  0  0  0  0  0  0  0
   62.6620   32.7771   51.3033 C   0  0  0  0  0  0  0  0  0  0  0  0
   63.3275   32.3724   52.4619 C   0  0  0  0  0  0  0  0  0  0  0  0
   64.6801   32.0289   52.4122 C   0  0  0  0  0  0  0  0  0  0  0  0
   65.3818   32.0772   51.1951 C   0  0  0  0  0  0  0  0  0  0  0  0
   64.7136   32.5168   50.0383 C   0  0  0  0  0  0  0  0  0  0  0  0
   66.8539   31.7492   51.1395 C   0  0  0  0  0  0  0  0  0  0  0  0
   67.4033   31.9018   52.3998 F   0  0  0  0  0  0  0  0  0  0  0  0
   67.5026   32.5972   50.2583 F   0  0  0  0  0  0  0  0  0  0  0  0
   67.0558   30.4473   50.7152 F   0  0  0  0  0  0  0  0  0  0  0  0
 11 12  2  0
 12 13  1  0
 13 14  2  0
 14 15  1  0
 15  1  1  0
  1  2  2  0
  1  3  1  0
  3  4  1  0
  4  5  1  0
  5  6  1  0
  6  7  1  0
  7  8  2  0
  7 26  1  0
 26 27  2  0
 27 28  1  0
 28 29  2  0
 29 30  1  0
 30 32  1  0
 32 33  1  0
 32 34  1  0
 32 35  1  0
 30 31  2  0
  6  9  1  0
  9 10  1  0
 15 16  2  0
 16 17  1  0
 17 18  2  0
 18 19  1  0
 19 20  1  0
 20 21  1  0
 21 22  2  0
 21 23  1  0
 23 24  1  0
 24 25  1  0
 17 12  1  0
 24 19  2  0
 10  3  1  0
 31 26  1  0
M  CHG 1  20  -1
M  CHG 1  23  -1
M  CHG 1  25  -1
M  END
> <UniqueID>
24

> <SMILES>
C=c1ccc(C(=O)N2CCN(C(=O)c3cccc(C(F)(F)F)c3)CC2)cc1=Cc1[n-]c(=O)[n-]c1[O-]

> <Energy>
117.51517747389313

> <Genealogy>
C=c1ccc(C(=O)N2CCN(C(=O)c3cccc(C(F)(F)F)c3)CC2)cc1=Cc1[n-]c(=O)[n-]c1[O-] (protonated)
C=c1ccc(C(=O)N2CCN(C(=O)c3cccc(C(F)(F)F)c3)CC2)cc1=Cc1[n-]c(=O)[n-]c1[O-] (3D coordinates assigned)
C=c1ccc(C(=O)N2CCN(C(=O)c3cccc(C(F)(F)F)c3)CC2)cc1=Cc1[n-]c(=O)[n-]c1[O-] (nonaromatic ring conformer: 117.51517747389313 kcal/mol)

> <smiles>
C=c1ccc(C(=O)N2CCN(C(=O)c3cccc(C(F)(F)F)c3)CC2)cc1=Cc1[nH]c(=O)[nH]c1O

> <score_type>
oracle

> <origin>
adg

> <m_score__min__energy>
-18.539999999999999

> <m_primary>
energy

> <minimizedAffinity>
-9.50333

> <minimizedRMSD>
1.03360

> <CNNscore>
0.0976796001

> <CNNaffinity>
6.3839764595

> <CNN_VS>
0.6235842705

> <CNNaffinity_variance>
0.0429989062

$$$$
28:0


 32 34  0  0  0  0  0  0  0  0999 V2000
   59.7127   32.5847   51.9541 C   0  0  0  0  0  0  0  0  0  0  0  0
   58.8003   32.6005   53.0132 C   0  0  0  0  0  0  0  0  0  0  0  0
   57.8151   31.6157   53.1137 C   0  0  0  0  0  0  0  0  0  0  0  0
   57.7064   30.6146   52.1440 C   0  0  0  0  0  0  0  0  0  0  0  0
   58.6229   30.5856   51.0671 C   0  0  0  0  0  0  0  0  0  0  0  0
   59.6263   31.5678   50.9864 C   0  0  0  0  0  0  0  0  0  0  0  0
   61.9354   33.4688   51.2232 C   0  0  0  0  0  0  0  0  0  0  0  0
   60.6921   33.5891   51.9070 O   0  0  0  0  0  0  0  0  0  0  0  0
   56.6990   29.6476   52.3049 O   0  0  0  0  0  0  0  0  0  0  0  0
   55.3742   29.9049   52.6906 C   0  0  0  0  0  0  0  0  0  0  0  0
   55.0252   29.7585   54.0347 C   0  0  0  0  0  0  0  0  0  0  0  0
   53.7069   29.9602   54.4453 C   0  0  0  0  0  0  0  0  0  0  0  0
   52.7254   30.3234   53.5190 C   0  0  0  0  0  0  0  0  0  0  0  0
   51.4523   30.4856   53.9601 F   0  0  0  0  0  0  0  0  0  0  0  0
   53.0622   30.5076   52.1605 C   0  0  0  0  0  0  0  0  0  0  0  0
   54.4009   30.3183   51.7642 C   0  0  0  0  0  0  0  0  0  0  0  0
   52.0406   30.8756   51.1469 C   0  0  0  0  0  0  0  0  0  0  0  0
   51.4377   32.1687   51.1445 N   0  0  0  0  0  0  0  0  0  0  0  0
   51.6881   30.0388   50.2716 O   0  0  0  0  0  0  0  0  0  0  0  0
   51.6999   32.8353   51.8199 H   0  0  0  0  0  0  0  0  0  0  0  0
   58.5635   29.5122   50.1185 N   0  0  0  0  0  0  0  0  0  0  0  0
   59.4353   29.3175   48.9981 C   0  0  0  0  0  0  0  0  0  0  0  0
   60.5560   28.7603   49.1455 O   0  0  0  0  0  0  0  0  0  0  0  0
   59.0434   29.8640   47.6871 C   0  0  0  0  0  0  0  0  0  0  0  0
   59.2062   31.2164   47.3813 C   0  0  0  0  0  0  0  0  0  0  0  0
   58.7734   31.6847   46.1403 C   0  0  0  0  0  0  0  0  0  0  0  0
   58.9023   32.9114   45.8739 O   0  0  0  0  0  0  0  0  0  0  0  0
   58.2131   30.8249   45.2304 N   0  0  0  0  0  0  0  0  0  0  0  0
   57.7250   31.3280   43.9352 C   0  0  0  0  0  0  0  0  0  0  0  0
   58.0417   29.5057   45.5670 C   0  0  0  0  0  0  0  0  0  0  0  0
   57.4895   28.7016   44.7692 O   0  0  0  0  0  0  0  0  0  0  0  0
   58.4617   29.0462   46.7742 N   0  0  0  0  0  0  0  0  0  0  0  0
  7  8  1  0
  8  1  1  0
  1  2  2  0
  2  3  1  0
  3  4  2  0
  4  9  1  0
  9 10  1  0
 10 11  2  0
 11 12  1  0
 12 13  2  0
 13 14  1  0
 13 15  1  0
 15 17  1  0
 17 18  1  0
 17 19  2  0
 15 16  2  0
  4  5  1  0
  5 21  1  0
 21 22  1  0
 22 23  2  0
 22 24  1  0
 24 25  2  0
 25 26  1  0
 26 27  2  0
 26 28  1  0
 28 29  1  0
 28 30  1  0
 30 31  2  0
 30 32  1  0
  5  6  2  0
  6  1  1  0
 16 10  1  0
 32 24  1  0
 18 20  1  0
M  CHG 1  18  -1
M  CHG 1  21  -1
M  CHG 1  32  -1
M  END
> <UniqueID>
28

> <SMILES>
COc1ccc(Oc2ccc(F)c(C([NH-])=O)c2)c([N-]C(=O)c2cc(=O)n(C)c(=O)[n-]2)c1

> <Energy>
61.8607486993694

> <Genealogy>
COc1ccc(Oc2ccc(F)c(C([NH-])=O)c2)c([N-]C(=O)c2cc(=O)n(C)c(=O)[n-]2)c1 (protonated)
COc1ccc(Oc2ccc(F)c(C([NH-])=O)c2)c([N-]C(=O)c2cc(=O)n(C)c(=O)[n-]2)c1 (3D coordinates assigned)
COc1ccc(Oc2ccc(F)c(C([NH-])=O)c2)c([N-]C(=O)c2cc(=O)n(C)c(=O)[n-]2)c1 (optimized conformer: 61.8607486993694 kcal/mol)

> <smiles>
COc1ccc(Oc2ccc(F)c(C(N)=O)c2)c(NC(=O)c2cc(=O)n(C)c(=O)[nH]2)c1

> <score_type>
oracle

> <origin>
adg

> <m_score__min__energy>
-14.07

> <m_primary>
energy

> <minimizedAffinity>
-7.67474

> <minimizedRMSD>
1.00982

> <CNNscore>
0.4222694337

> <CNNaffinity>
6.1949744225

> <CNN_VS>
2.6159484386

> <CNNaffinity_variance>
0.3678531945

$$$$
30:0


 26 28  0  0  0  0  0  0  0  0999 V2000
   60.6829   28.7386   44.9405 C   0  0  0  0  0  0  0  0  0  0  0  0
   60.0438   28.5650   46.1107 C   0  0  0  0  0  0  0  0  0  0  0  0
   59.0549   27.6043   46.3705 C   0  0  0  0  0  0  0  0  0  0  0  0
   58.5535   26.6985   45.5007 C   0  0  0  0  0  0  0  0  0  0  0  0
   58.6696   27.7975   47.6897 C   0  0  0  0  0  0  0  0  0  0  0  0
   59.4291   28.8378   48.1792 C   0  0  0  0  0  0  0  0  0  0  0  0
   59.2841   29.4092   49.5589 C   0  0  0  0  0  0  0  0  0  0  0  0
   60.2692   29.3094   47.2281 N   0  0  0  0  0  0  0  0  0  0  0  0
   57.8622   25.4428   45.8688 C   0  0  0  0  0  0  0  0  0  0  0  0
   58.4256   24.2241   45.9476 N   0  0  0  0  0  0  0  0  0  0  0  0
   57.3909   23.4162   46.2632 C   0  0  0  0  0  0  0  0  0  0  0  0
   57.5257   22.1758   46.4313 O   0  0  0  0  0  0  0  0  0  0  0  0
   56.2005   24.0408   46.3800 N   0  0  0  0  0  0  0  0  0  0  0  0
   56.5154   25.3207   46.1229 C   0  0  0  0  0  0  0  0  0  0  0  0
   55.5905   26.3568   46.1180 O   0  0  0  0  0  0  0  0  0  0  0  0
   61.1831   30.4521   47.3984 C   0  0  0  0  0  0  0  0  0  0  0  0
   60.4339   31.7593   47.2858 C   0  0  0  0  0  0  0  0  0  0  0  0
   59.5613   31.9664   46.2033 C   0  0  0  0  0  0  0  0  0  0  0  0
   58.8369   33.1676   46.0727 C   0  0  0  0  0  0  0  0  0  0  0  0
   59.0101   34.1689   47.0437 C   0  0  0  0  0  0  0  0  0  0  0  0
   59.8828   33.9755   48.1160 C   0  0  0  0  0  0  0  0  0  0  0  0
   60.5941   32.7810   48.2426 C   0  0  0  0  0  0  0  0  0  0  0  0
   61.4581   32.6225   49.3215 O   0  0  0  0  0  0  0  0  0  0  0  0
   57.9020   33.3873   44.9356 C   0  0  0  0  0  0  0  0  0  0  0  0
   57.8970   32.4960   43.7298 C   0  0  0  0  0  0  0  0  0  0  0  0
   57.0847   34.3488   44.9744 O   0  0  0  0  0  0  0  0  0  0  0  0
  1  2  2  0
  2  3  1  0
  3  4  2  0
  4  9  1  0
  9 10  1  0
 10 11  1  0
 11 12  2  0
 11 13  1  0
 13 14  1  0
 14 15  1  0
  3  5  1  0
  5  6  2  0
  6  7  1  0
  6  8  1  0
  8 16  1  0
 16 17  1  0
 17 18  2  0
 18 19  1  0
 19 24  1  0
 24 25  1  0
 24 26  2  0
 19 20  2  0
 20 21  1  0
 21 22  2  0
 22 23  1  0
  8  2  1  0
 22 17  1  0
 14  9  2  0
M  CHG 1  10  -1
M  CHG 1  13  -1
M  CHG 1  15  -1
M  CHG 1  23  -1
M  END
> <UniqueID>
30

> <SMILES>
C=c1c(=Cc2[n-]c(=O)[n-]c2[O-])cc(C)n1Cc1cc(C(C)=O)ccc1[O-]

> <Energy>
106.18906923002955

> <Genealogy>
C=c1c(=Cc2[n-]c(=O)[n-]c2[O-])cc(C)n1Cc1cc(C(C)=O)ccc1[O-] (protonated)
C=c1c(=Cc2[n-]c(=O)[n-]c2[O-])cc(C)n1Cc1cc(C(C)=O)ccc1[O-] (3D coordinates assigned)
C=c1c(=Cc2[n-]c(=O)[n-]c2[O-])cc(C)n1Cc1cc(C(C)=O)ccc1[O-] (optimized conformer: 106.18906923002955 kcal/mol)

> <smiles>
C=c1c(=Cc2[nH]c(=O)[nH]c2O)cc(C)n1Cc1cc(C(C)=O)ccc1O

> <score_type>
oracle

> <origin>
adg

> <m_score__min__energy>
-15.77

> <m_primary>
energy

> <minimizedAffinity>
-8.04983

> <minimizedRMSD>
0.80172

> <CNNscore>
0.2741886377

> <CNNaffinity>
6.5345973969

> <CNN_VS>
1.7917124033

> <CNNaffinity_variance>
0.0242172386

$$$$
43:0


 32 35  0  0  0  0  0  0  0  0999 V2000
   60.0050   30.4038   47.1866 C   0  0  0  0  0  0  0  0  0  0  0  0
   59.6113   29.5796   46.1542 C   0  0  0  0  0  0  0  0  0  0  0  0
   59.7561   28.2774   46.6109 C   0  0  0  0  0  0  0  0  0  0  0  0
   59.5151   27.1544   45.9056 C   0  0  0  0  0  0  0  0  0  0  0  0
   60.2543   28.3698   47.9140 C   0  0  0  0  0  0  0  0  0  0  0  0
   60.5355   27.3419   48.7305 C   0  0  0  0  0  0  0  0  0  0  0  0
   60.4085   29.6754   48.2551 N   0  0  0  0  0  0  0  0  0  0  0  0
   58.3127   26.3193   46.0770 C   0  0  0  0  0  0  0  0  0  0  0  0
   58.3458   25.0703   46.5754 N   0  0  0  0  0  0  0  0  0  0  0  0
   57.0425   24.7220   46.6333 C   0  0  0  0  0  0  0  0  0  0  0  0
   56.6604   23.5954   47.0435 O   0  0  0  0  0  0  0  0  0  0  0  0
   56.1811   25.6783   46.2273 N   0  0  0  0  0  0  0  0  0  0  0  0
   56.9994   26.6883   45.8898 C   0  0  0  0  0  0  0  0  0  0  0  0
   56.5490   27.9333   45.4684 O   0  0  0  0  0  0  0  0  0  0  0  0
   60.0190   31.8775   47.1078 C   0  0  0  0  0  0  0  0  0  0  0  0
   61.1304   32.4418   46.9126 O   0  0  0  0  0  0  0  0  0  0  0  0
   59.1615   34.3991   45.0067 C   0  0  0  0  0  0  0  0  0  0  0  0
   58.3197   33.3613   44.9146 C   0  0  0  0  0  0  0  0  0  0  0  0
   57.8589   32.6024   46.1358 C   0  0  0  0  0  0  0  0  0  0  0  0
   58.8214   32.6912   47.2619 N   0  0  0  0  0  0  0  0  0  0  0  0
   59.1688   34.1083   47.5155 C   0  0  0  0  0  0  0  0  0  0  0  0
   59.8484   34.7576   46.2971 C   0  0  0  0  0  0  0  0  0  0  0  0
   58.5484   31.7456   47.2835 H   0  0  0  0  0  0  0  0  0  0  0  0
   60.9642   30.2118   49.5076 C   0  0  0  0  0  0  0  0  0  0  0  0
   59.8903   30.8805   50.3294 C   0  0  0  0  0  0  0  0  0  0  0  0
   58.7489   30.1628   50.7239 C   0  0  0  0  0  0  0  0  0  0  0  0
   57.7599   30.7789   51.4969 C   0  0  0  0  0  0  0  0  0  0  0  0
   57.9052   32.1131   51.8885 C   0  0  0  0  0  0  0  0  0  0  0  0
   56.9447   32.7060   52.6386 F   0  0  0  0  0  0  0  0  0  0  0  0
   59.0442   32.8323   51.5098 C   0  0  0  0  0  0  0  0  0  0  0  0
   59.1900   34.1238   51.8938 F   0  0  0  0  0  0  0  0  0  0  0  0
   60.0352   32.2172   50.7372 C   0  0  0  0  0  0  0  0  0  0  0  0
 17 18  2  0
 18 19  1  0
 19 20  1  0
 20 15  1  0
 15 16  2  0
 15  1  1  0
  1  2  2  0
  2  3  1  0
  3  4  2  0
  4  8  1  0
  8  9  1  0
  9 10  1  0
 10 11  2  0
 10 12  1  0
 12 13  1  0
 13 14  1  0
  3  5  1  0
  5  6  2  0
  5  7  1  0
  7 24  1  0
 24 25  1  0
 25 26  2  0
 26 27  1  0
 27 28  2  0
 28 29  1  0
 28 30  1  0
 30 31  1  0
 30 32  2  0
 20 21  1  0
 21 22  1  0
 22 17  1  0
  7  1  1  0
 32 25  1  0
 13  8  2  0
 20 23  1  0
M  CHG 1   9  -1
M  CHG 1  12  -1
M  CHG 1  14  -1
M  CHG 1  20   1
M  END
> <UniqueID>
42

> <SMILES>
C=c1/c(=C/c2[n-]c(=O)[n-]c2[O-])cc(C(=O)[N@@H+]2CC=CCC2)n1Cc1ccc(F)c(F)c1

> <Energy>
130.7450087121225

> <Genealogy>
C=c1c(=Cc2[n-]c(=O)[n-]c2[O-])cc(C(=O)[NH+]2CC=CCC2)n1Cc1ccc(F)c(F)c1 (protonated)
C=c1c(=Cc2[n-]c(=O)[n-]c2[O-])cc(C(=O)[N@@H+]2CC=CCC2)n1Cc1ccc(F)c(F)c1 (chirality)
C=c1/c(=C/c2[n-]c(=O)[n-]c2[O-])cc(C(=O)[N@@H+]2CC=CCC2)n1Cc1ccc(F)c(F)c1 (cis-trans isomerization)
C=c1/c(=C/c2[n-]c(=O)[n-]c2[O-])cc(C(=O)[N@@H+]2CC=CCC2)n1Cc1ccc(F)c(F)c1 (3D coordinates assigned)
C=c1/c(=C/c2[n-]c(=O)[n-]c2[O-])cc(C(=O)[N@@H+]2CC=CCC2)n1Cc1ccc(F)c(F)c1 (nonaromatic ring conformer: 130.7450087121225 kcal/mol)

> <smiles>
C=c1c(=Cc2[nH]c(=O)[nH]c2O)cc(C(=O)N2CC=CCC2)n1Cc1ccc(F)c(F)c1

> <score_type>
oracle

> <origin>
adg

> <m_score__min__energy>
-15.02

> <m_primary>
energy

> <minimizedAffinity>
-8.69368

> <minimizedRMSD>
0.89849

> <CNNscore>
0.2727247179

> <CNNaffinity>
6.8299560547

> <CNN_VS>
1.8626978397

> <CNNaffinity_variance>
0.1474108100

$$$$
53:0


 37 40  0  0  0  0  0  0  0  0999 V2000
   57.8827   27.0945   43.1820 C   0  0  0  0  0  0  0  0  0  0  0  0
   58.2807   26.8131   44.4312 C   0  0  0  0  0  0  0  0  0  0  0  0
   58.0410   25.6263   45.1332 C   0  0  0  0  0  0  0  0  0  0  0  0
   57.3810   24.5355   44.6978 C   0  0  0  0  0  0  0  0  0  0  0  0
   58.6438   25.7783   46.3784 C   0  0  0  0  0  0  0  0  0  0  0  0
   59.1923   27.0441   46.3948 C   0  0  0  0  0  0  0  0  0  0  0  0
   58.9767   27.6767   45.2192 N   0  0  0  0  0  0  0  0  0  0  0  0
   56.3822   23.8009   45.4892 C   0  0  0  0  0  0  0  0  0  0  0  0
   56.4075   22.4665   45.6580 N   0  0  0  0  0  0  0  0  0  0  0  0
   55.2632   22.2076   46.3319 C   0  0  0  0  0  0  0  0  0  0  0  0
   54.9339   21.0433   46.6967 O   0  0  0  0  0  0  0  0  0  0  0  0
   54.4942   23.2905   46.5745 N   0  0  0  0  0  0  0  0  0  0  0  0
   55.2089   24.2910   46.0317 C   0  0  0  0  0  0  0  0  0  0  0  0
   54.7692   25.6102   45.9858 O   0  0  0  0  0  0  0  0  0  0  0  0
   59.9161   27.6316   47.5350 C   0  0  0  0  0  0  0  0  0  0  0  0
   60.5546   26.8644   48.3108 O   0  0  0  0  0  0  0  0  0  0  0  0
   59.7821   29.0412   47.8435 N   0  0  0  0  0  0  0  0  0  0  0  0
   60.9923   29.7975   47.4101 C   0  0  0  0  0  0  0  0  0  0  0  0
   61.2487   31.0788   48.2443 C   0  0  0  0  0  0  0  0  0  0  0  0
   59.9298   31.6751   48.7953 C   0  0  0  0  0  0  0  0  0  0  0  0
   59.1476   30.6411   49.6440 C   0  0  0  0  0  0  0  0  0  0  0  0
   59.5132   29.1867   49.2918 C   0  0  0  0  0  0  0  0  0  0  0  0
   60.3700   28.3214   48.1683 H   0  0  0  0  0  0  0  0  0  0  0  0
   60.1102   32.9326   49.5739 N   0  0  0  0  0  0  0  0  0  0  0  0
   60.3573   32.8051   51.0285 C   0  0  0  0  0  0  0  0  0  0  0  0
   61.8506   32.9074   51.3705 C   0  0  0  0  0  0  0  0  0  0  0  0
   62.4111   34.0824   50.8200 O   0  0  0  0  0  0  0  0  0  0  0  0
   62.3634   34.0114   49.4113 C   0  0  0  0  0  0  0  0  0  0  0  0
   60.9109   33.9938   48.9209 C   0  0  0  0  0  0  0  0  0  0  0  0
   59.4041   29.0473   44.8880 C   0  0  0  0  0  0  0  0  0  0  0  0
   58.2818   30.0265   45.0944 C   0  0  0  0  0  0  0  0  0  0  0  0
   57.8987   30.2871   46.2703 O   0  0  0  0  0  0  0  0  0  0  0  0
   57.6751   30.7305   43.9938 N   0  0  0  0  0  0  0  0  0  0  0  0
   56.7539   29.9709   43.1418 C   0  0  0  0  0  0  0  0  0  0  0  0
   58.0447   32.1210   43.6227 C   0  0  0  0  0  0  0  0  0  0  0  0
   57.7141   32.4356   42.1586 C   0  0  0  0  0  0  0  0  0  0  0  0
   57.4182   33.1429   44.5808 C   0  0  0  0  0  0  0  0  0  0  0  0
  1  2  2  0
  2  3  1  0
  3  4  2  0
  4  8  1  0
  8  9  1  0
  9 10  1  0
 10 11  2  0
 10 12  1  0
 12 13  1  0
 13 14  1  0
  3  5  1  0
  5  6  2  0
  6 15  1  0
 15 16  2  0
 17 15  1  0
 17 18  1  0
 18 19  1  0
 19 20  1  0
 20 24  1  0
 24 25  1  0
 25 26  1  0
 26 27  1  0
 27 28  1  0
 28 29  1  0
 20 21  1  0
 21 22  1  0
  6  7  1  0
  7 30  1  0
 30 31  1  0
 31 32  2  0
 31 33  1  0
 33 34  1  0
 33 35  1  0
 35 36  1  0
 35 37  1  0
  7  2  1  0
 13  8  2  0
 22 17  1  0
 29 24  1  0
 17 23  1  0
M  CHG 1   9  -1
M  CHG 1  12  -1
M  CHG 1  14  -1
M  CHG 1  17   1
M  END
> <UniqueID>
51

> <SMILES>
C=c1/c(=C/c2[n-]c(=O)[n-]c2[O-])cc(C(=O)[NH+]2CCC(N3CCOCC3)CC2)n1CC(=O)N(C)C(C)C

> <Energy>
162.6393130841291

> <Genealogy>
C=c1c(=Cc2[n-]c(=O)[n-]c2[O-])cc(C(=O)[NH+]2CCC(N3CCOCC3)CC2)n1CC(=O)N(C)C(C)C (protonated)
C=c1/c(=C/c2[n-]c(=O)[n-]c2[O-])cc(C(=O)[NH+]2CCC(N3CCOCC3)CC2)n1CC(=O)N(C)C(C)C (cis-trans isomerization)
C=c1/c(=C/c2[n-]c(=O)[n-]c2[O-])cc(C(=O)[NH+]2CCC(N3CCOCC3)CC2)n1CC(=O)N(C)C(C)C (3D coordinates assigned)
C=c1/c(=C/c2[n-]c(=O)[n-]c2[O-])cc(C(=O)[NH+]2CCC(N3CCOCC3)CC2)n1CC(=O)N(C)C(C)C (nonaromatic ring conformer: 162.6393130841291 kcal/mol)

> <smiles>
C=c1c(=Cc2[nH]c(=O)[nH]c2O)cc(C(=O)N2CCC(N3CCOCC3)CC2)n1CC(=O)N(C)C(C)C

> <score_type>
oracle

> <origin>
adg

> <m_score__min__energy>
-16.170000000000002

> <m_primary>
energy

> <minimizedAffinity>
-8.32385

> <minimizedRMSD>
0.96050

> <CNNscore>
0.1608620137

> <CNNaffinity>
6.8585162163

> <CNN_VS>
1.1032747030

> <CNNaffinity_variance>
0.0886070207

$$$$
69:0


 32 35  0  0  0  0  0  0  0  0999 V2000
   60.1077   28.6610   45.8920 C   0  0  0  0  0  0  0  0  0  0  0  0
   58.8324   28.8029   45.4991 C   0  0  0  0  0  0  0  0  0  0  0  0
   58.0254   27.8601   44.8437 C   0  0  0  0  0  0  0  0  0  0  0  0
   58.2064   26.5397   44.6599 C   0  0  0  0  0  0  0  0  0  0  0  0
   56.9196   28.4803   44.3770 N   0  0  0  0  0  0  0  0  0  0  0  0
   57.0461   29.7533   44.7939 C   0  0  0  0  0  0  0  0  0  0  0  0
   56.1754   30.6346   44.5611 O   0  0  0  0  0  0  0  0  0  0  0  0
   58.1771   29.9862   45.4909 N   0  0  0  0  0  0  0  0  0  0  0  0
   57.5609   25.4670   45.4369 C   0  0  0  0  0  0  0  0  0  0  0  0
   58.1555   24.3117   45.7898 N   0  0  0  0  0  0  0  0  0  0  0  0
   57.2418   23.7242   46.5934 C   0  0  0  0  0  0  0  0  0  0  0  0
   57.4275   22.5976   47.1209 O   0  0  0  0  0  0  0  0  0  0  0  0
   56.1185   24.4458   46.7952 N   0  0  0  0  0  0  0  0  0  0  0  0
   56.3450   25.5519   46.0668 C   0  0  0  0  0  0  0  0  0  0  0  0
   55.4598   26.6222   45.9826 O   0  0  0  0  0  0  0  0  0  0  0  0
   54.6472   26.5959   46.4484 H   0  0  0  0  0  0  0  0  0  0  0  0
   58.5935   31.2479   46.0468 C   0  0  0  0  0  0  0  0  0  0  0  0
   58.5267   32.4167   45.2743 C   0  0  0  0  0  0  0  0  0  0  0  0
   58.9545   33.6365   45.8054 C   0  0  0  0  0  0  0  0  0  0  0  0
   59.4471   33.6990   47.1106 C   0  0  0  0  0  0  0  0  0  0  0  0
   59.5093   32.5412   47.9026 C   0  0  0  0  0  0  0  0  0  0  0  0
   59.0972   31.3138   47.3554 C   0  0  0  0  0  0  0  0  0  0  0  0
   60.0378   32.6111   49.2820 C   0  0  0  0  0  0  0  0  0  0  0  0
   59.2497   32.4265   50.2502 O   0  0  0  0  0  0  0  0  0  0  0  0
   61.4313   32.8660   49.5413 N   0  0  0  0  0  0  0  0  0  0  0  0
   62.4651   32.2312   48.7041 C   0  0  0  0  0  0  0  0  0  0  0  0
   63.7823   32.0576   49.4769 C   0  0  0  0  0  0  0  0  0  0  0  0
   63.5110   31.6108   50.9265 C   0  0  0  0  0  0  0  0  0  0  0  0
   62.6512   32.6539   51.6831 C   0  0  0  0  0  0  0  0  0  0  0  0
   61.8385   33.5778   50.7587 C   0  0  0  0  0  0  0  0  0  0  0  0
   62.8211   30.3691   50.9209 O   0  0  0  0  0  0  0  0  0  0  0  0
   62.1153   30.1815   52.1278 C   0  0  0  0  0  0  0  0  0  0  0  0
  1  2  2  0
  2  3  1  0
  3  4  2  0
  4  9  1  0
  9 10  1  0
 10 11  1  0
 11 12  2  0
 11 13  1  0
 13 14  1  0
 14 15  1  0
  3  5  1  0
  5  6  1  0
  6  7  2  0
  6  8  1  0
  8 17  1  0
 17 18  2  0
 18 19  1  0
 19 20  2  0
 20 21  1  0
 21 23  1  0
 23 24  2  0
 23 25  1  0
 25 26  1  0
 26 27  1  0
 27 28  1  0
 28 31  1  0
 31 32  1  0
 28 29  1  0
 29 30  1  0
 21 22  2  0
  8  2  1  0
 22 17  1  0
 14  9  2  0
 30 25  1  0
 15 16  1  0
M  CHG 1   5  -1
M  CHG 1  10  -1
M  CHG 1  13  -1
M  END
> <UniqueID>
67

> <SMILES>
C=c1c(=Cc2[n-]c(=O)[n-]c2O)[n-]c(=O)n1-c1cccc(C(=O)N2CCC(OC)CC2)c1

> <Energy>
142.9173722869312

> <Genealogy>
C=c1c(=Cc2[n-]c(=O)[n-]c2O)[n-]c(=O)n1-c1cccc(C(=O)N2CCC(OC)CC2)c1 (protonated)
C=c1c(=Cc2[n-]c(=O)[n-]c2O)[n-]c(=O)n1-c1cccc(C(=O)N2CCC(OC)CC2)c1 (3D coordinates assigned)
C=c1c(=Cc2[n-]c(=O)[n-]c2O)[n-]c(=O)n1-c1cccc(C(=O)N2CCC(OC)CC2)c1 (nonaromatic ring conformer: 142.9173722869312 kcal/mol)

> <smiles>
C=c1c(=Cc2[nH]c(=O)[nH]c2O)[nH]c(=O)n1-c1cccc(C(=O)N2CCC(OC)CC2)c1

> <score_type>
oracle

> <origin>
adg

> <m_score__min__energy>
-16.309999999999999

> <m_primary>
energy

> <minimizedAffinity>
-9.53524

> <minimizedRMSD>
1.26906

> <CNNscore>
0.7851723433

> <CNNaffinity>
7.3246855736

> <CNN_VS>
5.7511405945

> <CNNaffinity_variance>
0.1852955967

$$$$
77:0


 29 32  0  0  0  0  0  0  0  0999 V2000
   57.5751   31.5167   52.1493 C   0  0  0  0  0  0  0  0  0  0  0  0
   57.4564   32.7695   52.2539 O   0  0  0  0  0  0  0  0  0  0  0  0
   58.8482   30.9682   51.7058 N   0  0  0  0  0  0  0  0  0  0  0  0
   59.7917   32.0436   51.3304 C   0  0  0  0  0  0  0  0  0  0  0  0
   59.4766   32.6442   49.9551 C   0  0  0  0  0  0  0  0  0  0  0  0
   59.2085   31.5953   48.9626 N   0  0  0  0  0  0  0  0  0  0  0  0
   58.9803   31.9485   47.5815 C   0  0  0  0  0  0  0  0  0  0  0  0
   59.2181   31.1027   46.6752 O   0  0  0  0  0  0  0  0  0  0  0  0
   59.3860   30.1876   49.3397 C   0  0  0  0  0  0  0  0  0  0  0  0
   58.7126   29.8825   50.6923 C   0  0  0  0  0  0  0  0  0  0  0  0
   58.1322   31.3236   52.2805 H   0  0  0  0  0  0  0  0  0  0  0  0
   58.5072   33.3384   47.2028 C   0  0  0  0  0  0  0  0  0  0  0  0
   59.6187   34.2042   46.6162 C   0  0  0  0  0  0  0  0  0  0  0  0
   58.8518   34.3016   45.3031 C   0  0  0  0  0  0  0  0  0  0  0  0
   57.7379   33.4396   45.8821 C   0  0  0  0  0  0  0  0  0  0  0  0
   54.8682   27.9495   53.8069 C   0  0  0  0  0  0  0  0  0  0  0  0
   55.1672   29.0849   53.1743 C   0  0  0  0  0  0  0  0  0  0  0  0
   56.3921   29.5530   53.1033 O   0  0  0  0  0  0  0  0  0  0  0  0
   56.3816   30.6813   52.4282 C   0  0  0  0  0  0  0  0  0  0  0  0
   55.0891   30.9787   52.0331 C   0  0  0  0  0  0  0  0  0  0  0  0
   54.2966   29.9434   52.5071 C   0  0  0  0  0  0  0  0  0  0  0  0
   52.9598   29.8307   52.3960 C   0  0  0  0  0  0  0  0  0  0  0  0
   52.0070   30.8688   52.8291 C   0  0  0  0  0  0  0  0  0  0  0  0
   51.4982   30.9283   54.0727 N   0  0  0  0  0  0  0  0  0  0  0  0
   50.6328   31.9635   54.0087 C   0  0  0  0  0  0  0  0  0  0  0  0
   49.9597   32.3466   54.9998 O   0  0  0  0  0  0  0  0  0  0  0  0
   50.5407   32.5511   52.7965 N   0  0  0  0  0  0  0  0  0  0  0  0
   51.4050   31.8382   52.0563 C   0  0  0  0  0  0  0  0  0  0  0  0
   51.6027   32.0422   50.6957 O   0  0  0  0  0  0  0  0  0  0  0  0
 16 17  2  0
 17 18  1  0
 18 19  1  0
 19  1  1  0
  1  2  2  0
  1  3  1  0
  3  4  1  0
  4  5  1  0
  5  6  1  0
  6  7  1  0
  7  8  2  0
  7 12  1  0
 12 13  1  0
 13 14  1  0
 14 15  1  0
  6  9  1  0
  9 10  1  0
 19 20  2  0
 20 21  1  0
 21 22  2  0
 22 23  1  0
 23 24  1  0
 24 25  1  0
 25 26  2  0
 25 27  1  0
 27 28  1  0
 28 29  1  0
 21 17  1  0
 28 23  2  0
 10  3  1  0
 15 12  1  0
  3 11  1  0
M  CHG 1   3   1
M  CHG 1  24  -1
M  CHG 1  27  -1
M  CHG 1  29  -1
M  END
> <UniqueID>
75

> <SMILES>
C=c1oc(C(=O)[NH+]2CCN(C(=O)C3CCC3)CC2)c/c1=C\c1[n-]c(=O)[n-]c1[O-]

> <Energy>
183.8770042491922

> <Genealogy>
C=c1oc(C(=O)[NH+]2CCN(C(=O)C3CCC3)CC2)cc1=Cc1[n-]c(=O)[n-]c1[O-] (protonated)
C=c1oc(C(=O)[NH+]2CCN(C(=O)C3CCC3)CC2)c/c1=C\c1[n-]c(=O)[n-]c1[O-] (cis-trans isomerization)
C=c1oc(C(=O)[NH+]2CCN(C(=O)C3CCC3)CC2)c/c1=C\c1[n-]c(=O)[n-]c1[O-] (3D coordinates assigned)
C=c1oc(C(=O)[NH+]2CCN(C(=O)C3CCC3)CC2)c/c1=C\c1[n-]c(=O)[n-]c1[O-] (nonaromatic ring conformer: 183.8770042491922 kcal/mol)

> <smiles>
C=c1oc(C(=O)N2CCN(C(=O)C3CCC3)CC2)cc1=Cc1[nH]c(=O)[nH]c1O

> <score_type>
oracle

> <origin>
adg

> <m_score__min__energy>
-17.109999999999999

> <m_primary>
energy

> <minimizedAffinity>
-8.01080

> <minimizedRMSD>
1.27336

> <CNNscore>
0.3004133701

> <CNNaffinity>
5.5919404030

> <CNN_VS>
1.6798936129

> <CNNaffinity_variance>
0.0471205823

$$$$
5:0


 34 36  0  0  0  0  0  0  0  0999 V2000
   60.3662   27.0225   47.4255 C   0  0  0  0  0  0  0  0  0  0  0  0
   59.6786   27.9302   46.7121 C   0  0  0  0  0  0  0  0  0  0  0  0
   58.6820   27.6699   45.7584 C   0  0  0  0  0  0  0  0  0  0  0  0
   58.2867   26.5177   45.1808 C   0  0  0  0  0  0  0  0  0  0  0  0
   58.1016   28.8897   45.4605 C   0  0  0  0  0  0  0  0  0  0  0  0
   58.7911   29.8474   46.1729 C   0  0  0  0  0  0  0  0  0  0  0  0
   59.7573   29.2711   46.9286 N   0  0  0  0  0  0  0  0  0  0  0  0
   57.5360   25.4385   45.8395 C   0  0  0  0  0  0  0  0  0  0  0  0
   58.1007   24.2975   46.2725 N   0  0  0  0  0  0  0  0  0  0  0  0
   57.0894   23.6737   46.9142 C   0  0  0  0  0  0  0  0  0  0  0  0
   57.2249   22.5442   47.4542 O   0  0  0  0  0  0  0  0  0  0  0  0
   55.9255   24.3595   46.9448 N   0  0  0  0  0  0  0  0  0  0  0  0
   56.2304   25.4807   46.2732 C   0  0  0  0  0  0  0  0  0  0  0  0
   55.3411   26.5322   46.0863 O   0  0  0  0  0  0  0  0  0  0  0  0
   58.4651   31.2894   46.1623 C   0  0  0  0  0  0  0  0  0  0  0  0
   58.7360   31.9789   47.1813 O   0  0  0  0  0  0  0  0  0  0  0  0
   57.8341   31.9128   45.0241 N   0  0  0  0  0  0  0  0  0  0  0  0
   57.8975   31.2899   43.6978 C   0  0  0  0  0  0  0  0  0  0  0  0
   57.2252   33.2378   45.1849 C   0  0  0  0  0  0  0  0  0  0  0  0
   60.6767   29.9819   47.8322 C   0  0  0  0  0  0  0  0  0  0  0  0
   60.1537   29.9691   49.2402 C   0  0  0  0  0  0  0  0  0  0  0  0
   60.5662   29.0914   50.0457 O   0  0  0  0  0  0  0  0  0  0  0  0
   59.1832   30.9440   49.6578 N   0  0  0  0  0  0  0  0  0  0  0  0
   58.8573   31.5922   48.9922 H   0  0  0  0  0  0  0  0  0  0  0  0
   58.6635   31.0226   50.9955 C   0  0  0  0  0  0  0  0  0  0  0  0
   57.8427   30.0039   51.5071 C   0  0  0  0  0  0  0  0  0  0  0  0
   57.3534   30.0617   52.8161 C   0  0  0  0  0  0  0  0  0  0  0  0
   57.7013   31.1542   53.6289 C   0  0  0  0  0  0  0  0  0  0  0  0
   58.5306   32.1639   53.1376 C   0  0  0  0  0  0  0  0  0  0  0  0
   59.0223   32.1058   51.8198 C   0  0  0  0  0  0  0  0  0  0  0  0
   56.5348   29.0174   53.2690 O   0  0  0  0  0  0  0  0  0  0  0  0
   56.9624   27.9843   54.1509 C   0  0  0  0  0  0  0  0  0  0  0  0
   59.8544   33.1071   51.2923 O   0  0  0  0  0  0  0  0  0  0  0  0
   61.2583   33.1951   51.5193 C   0  0  0  0  0  0  0  0  0  0  0  0
  1  2  2  0
  2  3  1  0
  3  4  2  0
  4  8  1  0
  8  9  1  0
  9 10  1  0
 10 11  2  0
 10 12  1  0
 12 13  1  0
 13 14  1  0
  3  5  1  0
  5  6  2  0
  6 15  1  0
 15 16  2  0
 15 17  1  0
 17 18  1  0
 17 19  1  0
  6  7  1  0
  7 20  1  0
 20 21  1  0
 21 22  2  0
 21 23  1  0
 23 25  1  0
 25 26  2  0
 26 27  1  0
 27 31  1  0
 31 32  1  0
 27 28  2  0
 28 29  1  0
 29 30  2  0
 30 33  1  0
 33 34  1  0
  7  2  1  0
 30 25  1  0
 13  8  2  0
 23 24  1  0
M  CHG 1   9  -1
M  CHG 1  12  -1
M  CHG 1  14  -1
M  END
> <UniqueID>
6

> <SMILES>
C=c1c(=Cc2[n-]c(=O)[n-]c2[O-])cc(C(=O)N(C)C)n1CC(=O)Nc1cc(OC)ccc1OC

> <Energy>
131.50794326919356

> <Genealogy>
C=c1c(=Cc2[n-]c(=O)[n-]c2[O-])cc(C(=O)N(C)C)n1CC(=O)Nc1cc(OC)ccc1OC (protonated)
C=c1c(=Cc2[n-]c(=O)[n-]c2[O-])cc(C(=O)N(C)C)n1CC(=O)Nc1cc(OC)ccc1OC (3D coordinates assigned)
C=c1c(=Cc2[n-]c(=O)[n-]c2[O-])cc(C(=O)N(C)C)n1CC(=O)Nc1cc(OC)ccc1OC (optimized conformer: 131.50794326919356 kcal/mol)

> <smiles>
C=c1c(=Cc2[nH]c(=O)[nH]c2O)cc(C(=O)N(C)C)n1CC(=O)Nc1cc(OC)ccc1OC

> <score_type>
oracle

> <origin>
adg

> <m_score__min__energy>
-15.48

> <m_primary>
energy

> <minimizedAffinity>
-7.44014

> <minimizedRMSD>
2.16869

> <CNNscore>
0.1353072673

> <CNNaffinity>
6.3316388130

> <CNN_VS>
0.8567167521

> <CNNaffinity_variance>
0.0822035745

$$$$
17:0


 32 35  0  0  0  0  0  0  0  0999 V2000
   59.3887   30.9655   46.7636 C   0  0  0  0  0  0  0  0  0  0  0  0
   60.5404   31.3834   47.4437 C   0  0  0  0  0  0  0  0  0  0  0  0
   60.9212   32.7358   47.4427 C   0  0  0  0  0  0  0  0  0  0  0  0
   60.1276   33.6696   46.7568 C   0  0  0  0  0  0  0  0  0  0  0  0
   58.9715   33.2576   46.0883 C   0  0  0  0  0  0  0  0  0  0  0  0
   58.6027   31.9100   46.0862 C   0  0  0  0  0  0  0  0  0  0  0  0
   57.4997   31.5197   45.3998 F   0  0  0  0  0  0  0  0  0  0  0  0
   58.8240   29.2589   44.3964 C   0  0  0  0  0  0  0  0  0  0  0  0
   58.7983   28.7980   45.6584 C   0  0  0  0  0  0  0  0  0  0  0  0
   58.5146   27.4858   46.0623 C   0  0  0  0  0  0  0  0  0  0  0  0
   58.2137   26.4415   45.2609 C   0  0  0  0  0  0  0  0  0  0  0  0
   58.5858   27.4896   47.4519 C   0  0  0  0  0  0  0  0  0  0  0  0
   58.9175   28.7744   47.8325 C   0  0  0  0  0  0  0  0  0  0  0  0
   59.0921   29.2227   49.2520 C   0  0  0  0  0  0  0  0  0  0  0  0
   59.0334   29.5716   46.7489 N   0  0  0  0  0  0  0  0  0  0  0  0
   57.6399   25.1497   45.7029 C   0  0  0  0  0  0  0  0  0  0  0  0
   58.2930   23.9755   45.7758 N   0  0  0  0  0  0  0  0  0  0  0  0
   57.3435   23.1097   46.1887 C   0  0  0  0  0  0  0  0  0  0  0  0
   57.5786   21.8881   46.3807 O   0  0  0  0  0  0  0  0  0  0  0  0
   56.1234   23.6540   46.3752 N   0  0  0  0  0  0  0  0  0  0  0  0
   56.3281   24.9438   46.0607 C   0  0  0  0  0  0  0  0  0  0  0  0
   55.3334   25.9123   46.0982 O   0  0  0  0  0  0  0  0  0  0  0  0
   62.1427   33.1512   48.0824 N   0  0  0  0  0  0  0  0  0  0  0  0
   62.1613   34.2685   49.0316 C   0  0  0  0  0  0  0  0  0  0  0  0
   62.4621   33.7653   50.4586 C   0  0  0  0  0  0  0  0  0  0  0  0
   63.2561   32.4160   50.5043 C   0  0  0  0  0  0  0  0  0  0  0  0
   64.1765   32.3521   49.2494 C   0  0  0  0  0  0  0  0  0  0  0  0
   63.3559   32.3315   47.9464 C   0  0  0  0  0  0  0  0  0  0  0  0
   62.3613   31.2163   50.6476 N   0  0  0  0  0  0  0  0  0  0  0  0
   63.0214   30.1200   51.3912 C   0  0  0  0  0  0  0  0  0  0  0  0
   61.1038   31.5562   51.3553 C   0  0  0  0  0  0  0  0  0  0  0  0
   62.1540   30.9085   49.6975 H   0  0  0  0  0  0  0  0  0  0  0  0
  8  9  2  0
  9 10  1  0
 10 11  2  0
 11 16  1  0
 16 17  1  0
 17 18  1  0
 18 19  2  0
 18 20  1  0
 20 21  1  0
 21 22  1  0
 10 12  1  0
 12 13  2  0
 13 14  1  0
 13 15  1  0
 15  1  1  0
  1  2  2  0
  2  3  1  0
  3 23  1  0
 23 24  1  0
 24 25  1  0
 25 26  1  0
 26 29  1  0
 29 30  1  0
 29 31  1  0
 26 27  1  0
 27 28  1  0
  3  4  2  0
  4  5  1  0
  5  6  2  0
  6  7  1  0
 15  9  1  0
  6  1  1  0
 21 16  2  0
 28 23  1  0
 29 32  1  0
M  CHG 1  17  -1
M  CHG 1  20  -1
M  CHG 1  22  -1
M  CHG 1  29   1
M  END
> <UniqueID>
17

> <SMILES>
C=c1/c(=C/c2[n-]c(=O)[n-]c2[O-])cc(C)n1-c1cc(N2CCC([NH+](C)C)CC2)ccc1F

> <Energy>
142.7963097036791

> <Genealogy>
C=c1c(=Cc2[n-]c(=O)[n-]c2[O-])cc(C)n1-c1cc(N2CCC([NH+](C)C)CC2)ccc1F (protonated)
C=c1/c(=C/c2[n-]c(=O)[n-]c2[O-])cc(C)n1-c1cc(N2CCC([NH+](C)C)CC2)ccc1F (cis-trans isomerization)
C=c1/c(=C/c2[n-]c(=O)[n-]c2[O-])cc(C)n1-c1cc(N2CCC([NH+](C)C)CC2)ccc1F (3D coordinates assigned)
C=c1/c(=C/c2[n-]c(=O)[n-]c2[O-])cc(C)n1-c1cc(N2CCC([NH+](C)C)CC2)ccc1F (nonaromatic ring conformer: 142.7963097036791 kcal/mol)

> <smiles>
C=c1c(=Cc2[nH]c(=O)[nH]c2O)cc(C)n1-c1cc(N2CCC(N(C)C)CC2)ccc1F

> <score_type>
oracle

> <origin>
adg

> <m_score__min__energy>
-15.6

> <m_primary>
energy

> <minimizedAffinity>
-8.91586

> <minimizedRMSD>
0.98486

> <CNNscore>
0.2256322056

> <CNNaffinity>
7.2488551140

> <CNN_VS>
1.6355751753

> <CNNaffinity_variance>
0.1382044703

$$$$
29:0


 38 41  0  0  0  0  0  0  0  0999 V2000
   59.9519   29.6184   45.7017 C   0  0  0  0  0  0  0  0  0  0  0  0
   60.0307   28.8857   46.8221 C   0  0  0  0  0  0  0  0  0  0  0  0
   60.0159   27.4857   46.9235 C   0  0  0  0  0  0  0  0  0  0  0  0
   59.7287   26.5328   46.0163 C   0  0  0  0  0  0  0  0  0  0  0  0
   60.3092   27.1926   48.2432 C   0  0  0  0  0  0  0  0  0  0  0  0
   60.4269   28.3934   48.9093 C   0  0  0  0  0  0  0  0  0  0  0  0
   60.2593   29.4224   48.0475 N   0  0  0  0  0  0  0  0  0  0  0  0
   60.1820   30.8169   48.3817 C   0  0  0  0  0  0  0  0  0  0  0  0
   59.1101   31.2727   48.8692 O   0  0  0  0  0  0  0  0  0  0  0  0
   58.6588   25.5272   46.1416 C   0  0  0  0  0  0  0  0  0  0  0  0
   58.8534   24.1943   46.1311 N   0  0  0  0  0  0  0  0  0  0  0  0
   57.5971   23.6935   46.0846 C   0  0  0  0  0  0  0  0  0  0  0  0
   57.3583   22.4583   46.0934 O   0  0  0  0  0  0  0  0  0  0  0  0
   56.6206   24.6235   46.0301 N   0  0  0  0  0  0  0  0  0  0  0  0
   57.3128   25.7763   46.0524 C   0  0  0  0  0  0  0  0  0  0  0  0
   56.7248   27.0333   45.9807 O   0  0  0  0  0  0  0  0  0  0  0  0
   61.3483   31.7082   48.1813 C   0  0  0  0  0  0  0  0  0  0  0  0
   61.3218   32.7078   47.1888 C   0  0  0  0  0  0  0  0  0  0  0  0
   62.4096   33.5718   47.0227 C   0  0  0  0  0  0  0  0  0  0  0  0
   63.5348   33.4515   47.8422 C   0  0  0  0  0  0  0  0  0  0  0  0
   63.5805   32.4509   48.8184 C   0  0  0  0  0  0  0  0  0  0  0  0
   62.4954   31.5826   48.9871 C   0  0  0  0  0  0  0  0  0  0  0  0
   60.6020   28.4979   50.3744 C   0  0  0  0  0  0  0  0  0  0  0  0
   61.1004   27.5128   50.9872 O   0  0  0  0  0  0  0  0  0  0  0  0
   60.2981   29.7141   51.0972 N   0  0  0  0  0  0  0  0  0  0  0  0
   58.8618   29.7540   51.4393 C   0  0  0  0  0  0  0  0  0  0  0  0
   58.5122   31.0479   52.1817 C   0  0  0  0  0  0  0  0  0  0  0  0
   59.4151   31.2308   53.3208 N   0  0  0  0  0  0  0  0  0  0  0  0
   58.8951   31.6539   54.5957 C   0  0  0  0  0  0  0  0  0  0  0  0
   57.8100   31.1648   55.0073 O   0  0  0  0  0  0  0  0  0  0  0  0
   60.8576   31.0788   53.0902 C   0  0  0  0  0  0  0  0  0  0  0  0
   61.1281   29.7828   52.3173 C   0  0  0  0  0  0  0  0  0  0  0  0
   60.5830   29.1546   50.3389 H   0  0  0  0  0  0  0  0  0  0  0  0
   59.6635   32.6106   55.4838 C   0  0  0  0  0  0  0  0  0  0  0  0
   59.8365   34.0530   54.9187 C   0  0  0  0  0  0  0  0  0  0  0  0
   59.0621   34.2417   53.5959 C   0  0  0  0  0  0  0  0  0  0  0  0
   61.3309   34.3723   54.6989 C   0  0  0  0  0  0  0  0  0  0  0  0
   59.2692   35.0470   55.9533 C   0  0  0  0  0  0  0  0  0  0  0  0
  1  2  2  0
  2  3  1  0
  3  4  2  0
  4 10  1  0
 10 11  1  0
 11 12  1  0
 12 13  2  0
 12 14  1  0
 14 15  1  0
 15 16  1  0
  3  5  1  0
  5  6  2  0
  6 23  1  0
 23 24  2  0
 23 25  1  0
 25 26  1  0
 26 27  1  0
 27 28  1  0
 28 29  1  0
 29 30  2  0
 29 34  1  0
 34 35  1  0
 35 36  1  0
 35 37  1  0
 35 38  1  0
 28 31  1  0
 31 32  1  0
  6  7  1  0
  7  8  1  0
  8  9  2  0
  8 17  1  0
 17 18  2  0
 18 19  1  0
 19 20  2  0
 20 21  1  0
 21 22  2  0
  7  2  1  0
 22 17  1  0
 15 10  2  0
 32 25  1  0
 25 33  1  0
M  CHG 1  11  -1
M  CHG 1  14  -1
M  CHG 1  16  -1
M  CHG 1  25   1
M  END
> <UniqueID>
29

> <SMILES>
C=c1c(=Cc2[n-]c(=O)[n-]c2[O-])cc(C(=O)[NH+]2CCN(C(=O)CC(C)(C)C)CC2)n1C(=O)c1ccccc1

> <Energy>
149.75419748180917

> <Genealogy>
C=c1c(=Cc2[n-]c(=O)[n-]c2[O-])cc(C(=O)[NH+]2CCN(C(=O)CC(C)(C)C)CC2)n1C(=O)c1ccccc1 (protonated)
C=c1c(=Cc2[n-]c(=O)[n-]c2[O-])cc(C(=O)[NH+]2CCN(C(=O)CC(C)(C)C)CC2)n1C(=O)c1ccccc1 (3D coordinates assigned)
C=c1c(=Cc2[n-]c(=O)[n-]c2[O-])cc(C(=O)[NH+]2CCN(C(=O)CC(C)(C)C)CC2)n1C(=O)c1ccccc1 (nonaromatic ring conformer: 149.75419748180917 kcal/mol)

> <smiles>
C=c1c(=Cc2[nH]c(=O)[nH]c2O)cc(C(=O)N2CCN(C(=O)CC(C)(C)C)CC2)n1C(=O)c1ccccc1

> <score_type>
oracle

> <origin>
adg

> <m_score__min__energy>
-16.989999999999998

> <m_primary>
energy

> <minimizedAffinity>
-8.45102

> <minimizedRMSD>
1.25415

> <CNNscore>
0.2591412663

> <CNNaffinity>
6.5415263176

> <CNN_VS>
1.6951794624

> <CNNaffinity_variance>
0.0949097574

$$$$
37:0


 33 36  0  0  0  0  0  0  0  0999 V2000
   52.3864   27.7830   54.1499 C   0  0  0  0  0  0  0  0  0  0  0  0
   53.6307   28.2876   54.0830 C   0  0  0  0  0  0  0  0  0  0  0  0
   53.9542   29.5933   53.6917 C   0  0  0  0  0  0  0  0  0  0  0  0
   53.1096   30.5773   53.3228 C   0  0  0  0  0  0  0  0  0  0  0  0
   55.3337   29.6623   53.6820 C   0  0  0  0  0  0  0  0  0  0  0  0
   55.7998   28.4292   54.0819 C   0  0  0  0  0  0  0  0  0  0  0  0
   54.7679   27.5850   54.3611 N   0  0  0  0  0  0  0  0  0  0  0  0
   57.2396   28.1104   54.0998 C   0  0  0  0  0  0  0  0  0  0  0  0
   57.6070   26.9045   54.0729 O   0  0  0  0  0  0  0  0  0  0  0  0
   58.2198   29.1602   54.0286 N   0  0  0  0  0  0  0  0  0  0  0  0
   57.9855   30.4375   54.7250 C   0  0  0  0  0  0  0  0  0  0  0  0
   59.0922   31.4462   54.4089 C   0  0  0  0  0  0  0  0  0  0  0  0
   59.3642   31.4223   52.9642 N   0  0  0  0  0  0  0  0  0  0  0  0
   58.9664   32.5348   52.1323 C   0  0  0  0  0  0  0  0  0  0  0  0
   58.0978   33.3509   52.5497 O   0  0  0  0  0  0  0  0  0  0  0  0
   59.7159   30.1328   52.3375 C   0  0  0  0  0  0  0  0  0  0  0  0
   59.4736   28.9517   53.2899 C   0  0  0  0  0  0  0  0  0  0  0  0
   59.5199   32.7207   50.7753 C   0  0  0  0  0  0  0  0  0  0  0  0
   58.8474   32.2129   49.6503 C   0  0  0  0  0  0  0  0  0  0  0  0
   59.3774   32.4022   48.3698 C   0  0  0  0  0  0  0  0  0  0  0  0
   60.5847   33.0880   48.2048 C   0  0  0  0  0  0  0  0  0  0  0  0
   61.2687   33.5800   49.3200 C   0  0  0  0  0  0  0  0  0  0  0  0
   60.7429   33.3923   50.6025 C   0  0  0  0  0  0  0  0  0  0  0  0
   52.4961   30.6811   51.9853 C   0  0  0  0  0  0  0  0  0  0  0  0
   52.6762   29.7611   51.0218 N   0  0  0  0  0  0  0  0  0  0  0  0
   51.8915   30.2005   50.0145 C   0  0  0  0  0  0  0  0  0  0  0  0
   51.8017   29.5976   48.9133 O   0  0  0  0  0  0  0  0  0  0  0  0
   51.2014   31.3285   50.2840 N   0  0  0  0  0  0  0  0  0  0  0  0
   51.5837   31.6152   51.5401 C   0  0  0  0  0  0  0  0  0  0  0  0
   51.0717   32.6773   52.2742 O   0  0  0  0  0  0  0  0  0  0  0  0
   54.8365   26.1916   54.8663 C   0  0  0  0  0  0  0  0  0  0  0  0
   54.5377   26.1452   56.3680 C   0  0  0  0  0  0  0  0  0  0  0  0
   53.9531   25.2164   54.0702 C   0  0  0  0  0  0  0  0  0  0  0  0
  1  2  2  0
  2  3  1  0
  3  4  2  0
  4 24  1  0
 24 25  1  0
 25 26  1  0
 26 27  2  0
 26 28  1  0
 28 29  1  0
 29 30  1  0
  3  5  1  0
  5  6  2  0
  6  8  1  0
  8  9  2  0
  8 10  1  0
 10 11  1  0
 11 12  1  0
 12 13  1  0
 13 14  1  0
 14 15  2  0
 14 18  1  0
 18 19  2  0
 19 20  1  0
 20 21  2  0
 21 22  1  0
 22 23  2  0
 13 16  1  0
 16 17  1  0
  6  7  1  0
  7 31  1  0
 31 32  1  0
 31 33  1  0
  7  2  1  0
 29 24  2  0
 17 10  1  0
 23 18  1  0
M  CHG 1  25  -1
M  CHG 1  28  -1
M  CHG 1  30  -1
M  END
> <UniqueID>
36

> <SMILES>
C=c1c(=Cc2[n-]c(=O)[n-]c2[O-])cc(C(=O)N2CCN(C(=O)c3ccccc3)CC2)n1C(C)C

> <Energy>
138.11048209885374

> <Genealogy>
C=c1c(=Cc2[n-]c(=O)[n-]c2[O-])cc(C(=O)N2CCN(C(=O)c3ccccc3)CC2)n1C(C)C (protonated)
C=c1c(=Cc2[n-]c(=O)[n-]c2[O-])cc(C(=O)N2CCN(C(=O)c3ccccc3)CC2)n1C(C)C (3D coordinates assigned)
C=c1c(=Cc2[n-]c(=O)[n-]c2[O-])cc(C(=O)N2CCN(C(=O)c3ccccc3)CC2)n1C(C)C (nonaromatic ring conformer: 138.11048209885374 kcal/mol)

> <smiles>
C=c1c(=Cc2[nH]c(=O)[nH]c2O)cc(C(=O)N2CCN(C(=O)c3ccccc3)CC2)n1C(C)C

> <score_type>
oracle

> <origin>
adg

> <m_score__min__energy>
-17.449999999999999

> <m_primary>
energy

> <minimizedAffinity>
-5.95026

> <minimizedRMSD>
0.84675

> <CNNscore>
0.1168263927

> <CNNaffinity>
5.2371940613

> <CNN_VS>
0.6118425131

> <CNNaffinity_variance>
0.1036019996

$$$$
38:0


 27 29  0  0  0  0  0  0  0  0999 V2000
   58.3632   32.0282   45.6472 C   0  0  0  0  0  0  0  0  0  0  0  0
   58.7407   33.3508   45.9318 C   0  0  0  0  0  0  0  0  0  0  0  0
   59.3818   33.6605   47.1344 C   0  0  0  0  0  0  0  0  0  0  0  0
   59.6366   32.6565   48.0781 C   0  0  0  0  0  0  0  0  0  0  0  0
   59.2529   31.3387   47.8029 C   0  0  0  0  0  0  0  0  0  0  0  0
   58.6169   31.0256   46.5980 C   0  0  0  0  0  0  0  0  0  0  0  0
   60.3843   33.0614   49.6258 S   0  0  0  0  0  0  0  0  0  0  0  0
   59.8159   32.1732   50.6997 O   0  0  0  0  0  0  0  0  0  0  0  0
   60.0485   34.4841   49.9783 O   0  0  0  0  0  0  0  0  0  0  0  0
   62.1267   32.8704   49.5810 N   0  0  0  0  0  0  0  0  0  0  0  0
   62.5029   31.5834   48.9864 C   0  0  0  0  0  0  0  0  0  0  0  0
   62.8347   31.8125   47.5183 C   0  0  0  0  0  0  0  0  0  0  0  0
   63.0594   33.3052   47.3789 C   0  0  0  0  0  0  0  0  0  0  0  0
   62.7531   33.9021   48.7486 C   0  0  0  0  0  0  0  0  0  0  0  0
   58.2218   32.0924   43.2801 O   0  0  0  0  0  0  0  0  0  0  0  0
   57.6967   31.7096   44.3621 C   0  0  0  0  0  0  0  0  0  0  0  0
   56.4125   30.9279   44.3112 C   0  0  0  0  0  0  0  0  0  0  0  0
   56.5957   29.6067   44.9098 N   0  0  0  0  0  0  0  0  0  0  0  0
   57.4716   28.5903   44.3992 C   0  0  0  0  0  0  0  0  0  0  0  0
   57.4544   28.3271   43.1666 O   0  0  0  0  0  0  0  0  0  0  0  0
   58.4266   27.8762   45.2703 C   0  0  0  0  0  0  0  0  0  0  0  0
   59.7791   28.2475   45.2598 C   0  0  0  0  0  0  0  0  0  0  0  0
   60.6866   27.6211   46.1190 C   0  0  0  0  0  0  0  0  0  0  0  0
   60.2538   26.6101   46.9814 C   0  0  0  0  0  0  0  0  0  0  0  0
   58.9145   26.2147   46.9785 C   0  0  0  0  0  0  0  0  0  0  0  0
   58.0003   26.8367   46.1206 C   0  0  0  0  0  0  0  0  0  0  0  0
   56.6768   26.4073   46.1040 O   0  0  0  0  0  0  0  0  0  0  0  0
 15 16  2  0
 16 17  1  0
 17 18  1  0
 18 19  1  0
 19 20  2  0
 19 21  1  0
 21 22  2  0
 22 23  1  0
 23 24  2  0
 24 25  1  0
 25 26  2  0
 26 27  1  0
 16  1  1  0
  1  2  2  0
  2  3  1  0
  3  4  2  0
  4  7  1  0
  7  8  2  0
  7  9  2  0
  7 10  1  0
 10 11  1  0
 11 12  1  0
 12 13  1  0
 13 14  1  0
  4  5  1  0
  5  6  2  0
 26 21  1  0
  6  1  1  0
 14 10  1  0
M  CHG 1  18  -1
M  CHG 1  27  -1
M  END
> <UniqueID>
37

> <SMILES>
O=C(C[N-]C(=O)c1ccccc1[O-])c1ccc(S(=O)(=O)N2CCCC2)cc1

> <Energy>
50.889542077572585

> <Genealogy>
O=C(C[N-]C(=O)c1ccccc1[O-])c1ccc(S(=O)(=O)N2CCCC2)cc1 (protonated)
O=C(C[N-]C(=O)c1ccccc1[O-])c1ccc(S(=O)(=O)N2CCCC2)cc1 (3D coordinates assigned)
O=C(C[N-]C(=O)c1ccccc1[O-])c1ccc(S(=O)(=O)N2CCCC2)cc1 (nonaromatic ring conformer: 50.889542077572585 kcal/mol)

> <smiles>
O=C(CNC(=O)c1ccccc1O)c1ccc(S(=O)(=O)N2CCCC2)cc1

> <score_type>
oracle

> <origin>
adg

> <m_score__min__energy>
-14.710000000000001

> <m_primary>
energy

> <minimizedAffinity>
-7.03619

> <minimizedRMSD>
1.45073

> <CNNscore>
0.7653996348

> <CNNaffinity>
6.7722630501

> <CNN_VS>
5.1834878922

> <CNNaffinity_variance>
0.1180779338

$$$$
51:0


 36 40  0  0  0  0  0  0  0  0999 V2000
   60.6518   27.5049   49.1596 C   0  0  0  0  0  0  0  0  0  0  0  0
   60.1448   28.5609   48.5039 C   0  0  0  0  0  0  0  0  0  0  0  0
   59.9633   28.6798   47.1162 C   0  0  0  0  0  0  0  0  0  0  0  0
   60.0343   27.7628   46.1322 C   0  0  0  0  0  0  0  0  0  0  0  0
   59.6323   30.0015   46.8830 C   0  0  0  0  0  0  0  0  0  0  0  0
   59.5621   30.6214   48.1098 C   0  0  0  0  0  0  0  0  0  0  0  0
   59.8605   29.7493   49.1036 N   0  0  0  0  0  0  0  0  0  0  0  0
   59.0886   26.6561   45.9208 C   0  0  0  0  0  0  0  0  0  0  0  0
   59.3548   25.3608   46.1737 N   0  0  0  0  0  0  0  0  0  0  0  0
   58.1659   24.7529   45.9715 C   0  0  0  0  0  0  0  0  0  0  0  0
   58.0094   23.5104   46.0965 O   0  0  0  0  0  0  0  0  0  0  0  0
   57.1546   25.5826   45.6339 N   0  0  0  0  0  0  0  0  0  0  0  0
   57.7539   26.7837   45.6220 C   0  0  0  0  0  0  0  0  0  0  0  0
   57.0923   27.9740   45.3481 O   0  0  0  0  0  0  0  0  0  0  0  0
   59.1857   32.0390   48.2810 C   0  0  0  0  0  0  0  0  0  0  0  0
   58.0036   32.3799   48.0020 O   0  0  0  0  0  0  0  0  0  0  0  0
   60.1858   33.0384   48.6092 N   0  0  0  0  0  0  0  0  0  0  0  0
   59.7050   34.4107   48.3317 C   0  0  0  0  0  0  0  0  0  0  0  0
   59.7247   34.7632   46.8242 C   0  0  0  0  0  0  0  0  0  0  0  0
   60.4234   33.8166   46.0378 O   0  0  0  0  0  0  0  0  0  0  0  0
   61.6701   33.5351   46.6311 C   0  0  0  0  0  0  0  0  0  0  0  0
   61.4786   32.7445   47.9385 C   0  0  0  0  0  0  0  0  0  0  0  0
   60.8759   32.3409   48.6898 H   0  0  0  0  0  0  0  0  0  0  0  0
   59.7496   30.0015   50.5505 C   0  0  0  0  0  0  0  0  0  0  0  0
   60.8872   30.8716   51.0184 C   0  0  0  0  0  0  0  0  0  0  0  0
   62.2147   30.5440   50.7104 C   0  0  0  0  0  0  0  0  0  0  0  0
   63.2644   31.3462   51.1654 C   0  0  0  0  0  0  0  0  0  0  0  0
   63.0072   32.4964   51.9345 C   0  0  0  0  0  0  0  0  0  0  0  0
   61.6718   32.8209   52.2383 C   0  0  0  0  0  0  0  0  0  0  0  0
   60.6238   32.0160   51.7842 C   0  0  0  0  0  0  0  0  0  0  0  0
   64.1310   33.3427   52.4158 C   0  0  0  0  0  0  0  0  0  0  0  0
   65.2761   33.6997   51.7041 C   0  0  0  0  0  0  0  0  0  0  0  0
   66.1606   34.5074   52.4350 C   0  0  0  0  0  0  0  0  0  0  0  0
   67.4305   35.0511   51.8605 C   0  0  0  0  0  0  0  0  0  0  0  0
   65.7167   34.8126   53.7151 C   0  0  0  0  0  0  0  0  0  0  0  0
   64.2362   34.0541   53.9419 S   0  0  0  0  0  0  0  0  0  0  0  0
  1  2  2  0
  2  3  1  0
  3  4  2  0
  4  8  1  0
  8  9  1  0
  9 10  1  0
 10 11  2  0
 10 12  1  0
 12 13  1  0
 13 14  1  0
  3  5  1  0
  5  6  2  0
  6 15  1  0
 15 16  2  0
 15 17  1  0
 17 18  1  0
 18 19  1  0
 19 20  1  0
 20 21  1  0
 21 22  1  0
  6  7  1  0
  7 24  1  0
 24 25  1  0
 25 26  2  0
 26 27  1  0
 27 28  2  0
 28 31  1  0
 31 32  2  0
 32 33  1  0
 33 34  1  0
 33 35  2  0
 35 36  1  0
 28 29  1  0
 29 30  2  0
  7  2  1  0
 30 25  1  0
 13  8  2  0
 22 17  1  0
 36 31  1  0
 17 23  1  0
M  CHG 1   9  -1
M  CHG 1  12  -1
M  CHG 1  14  -1
M  CHG 1  17   1
M  END
> <UniqueID>
49

> <SMILES>
C=c1c(=Cc2[n-]c(=O)[n-]c2[O-])cc(C(=O)[NH+]2CCOCC2)n1Cc1ccc(-c2cc(C)cs2)cc1

> <Energy>
179.3374609331022

> <Genealogy>
C=c1c(=Cc2[n-]c(=O)[n-]c2[O-])cc(C(=O)[NH+]2CCOCC2)n1Cc1ccc(-c2cc(C)cs2)cc1 (protonated)
C=c1c(=Cc2[n-]c(=O)[n-]c2[O-])cc(C(=O)[NH+]2CCOCC2)n1Cc1ccc(-c2cc(C)cs2)cc1 (3D coordinates assigned)
C=c1c(=Cc2[n-]c(=O)[n-]c2[O-])cc(C(=O)[NH+]2CCOCC2)n1Cc1ccc(-c2cc(C)cs2)cc1 (nonaromatic ring conformer: 179.3374609331022 kcal/mol)

> <smiles>
C=c1c(=Cc2[nH]c(=O)[nH]c2O)cc(C(=O)N2CCOCC2)n1Cc1ccc(-c2cc(C)cs2)cc1

> <score_type>
oracle

> <origin>
adg

> <m_score__min__energy>
-14.73

> <m_primary>
energy

> <minimizedAffinity>
-7.66739

> <minimizedRMSD>
1.67669

> <CNNscore>
0.1157288328

> <CNNaffinity>
6.2589907646

> <CNN_VS>
0.7243456841

> <CNNaffinity_variance>
0.4880352318

$$$$
56:0


 30 33  0  0  0  0  0  0  0  0999 V2000
   59.9521   32.7837   50.1338 C   0  0  0  0  0  0  0  0  0  0  0  0
   60.2319   33.9370   49.3825 C   0  0  0  0  0  0  0  0  0  0  0  0
   60.0473   33.9397   47.9968 C   0  0  0  0  0  0  0  0  0  0  0  0
   59.5634   32.8003   47.3455 C   0  0  0  0  0  0  0  0  0  0  0  0
   59.3170   31.6349   48.0885 C   0  0  0  0  0  0  0  0  0  0  0  0
   59.4987   31.6302   49.4730 C   0  0  0  0  0  0  0  0  0  0  0  0
   59.3676   35.7193   55.6890 C   0  0  0  0  0  0  0  0  0  0  0  0
   60.4351   34.7431   55.2935 C   0  0  0  0  0  0  0  0  0  0  0  0
   61.4643   34.6496   56.0160 O   0  0  0  0  0  0  0  0  0  0  0  0
   60.2892   33.9015   54.1288 N   0  0  0  0  0  0  0  0  0  0  0  0
   58.9691   33.7509   53.4925 C   0  0  0  0  0  0  0  0  0  0  0  0
   58.9697   32.6276   52.4553 C   0  0  0  0  0  0  0  0  0  0  0  0
   60.1240   32.7843   51.5639 N   0  0  0  0  0  0  0  0  0  0  0  0
   61.4602   33.0084   52.1374 C   0  0  0  0  0  0  0  0  0  0  0  0
   61.4219   33.0760   53.6703 C   0  0  0  0  0  0  0  0  0  0  0  0
   59.3074   32.8564   45.9371 N   0  0  0  0  0  0  0  0  0  0  0  0
   58.1595   32.2666   45.3170 C   0  0  0  0  0  0  0  0  0  0  0  0
   57.0034   32.6369   45.6727 O   0  0  0  0  0  0  0  0  0  0  0  0
   58.3164   31.1412   44.3262 C   0  0  0  0  0  0  0  0  0  0  0  0
   58.2556   29.8395   44.9958 N   0  0  0  0  0  0  0  0  0  0  0  0
   59.3015   29.1030   45.4335 C   0  0  0  0  0  0  0  0  0  0  0  0
   60.6245   29.5286   45.4026 O   0  0  0  0  0  0  0  0  0  0  0  0
   58.8721   27.8652   45.8633 C   0  0  0  0  0  0  0  0  0  0  0  0
   57.5123   27.8353   45.6796 C   0  0  0  0  0  0  0  0  0  0  0  0
   57.1613   29.0590   45.1432 C   0  0  0  0  0  0  0  0  0  0  0  0
   55.8779   29.4297   44.7547 O   0  0  0  0  0  0  0  0  0  0  0  0
   56.6602   26.6284   45.8986 C   0  0  0  0  0  0  0  0  0  0  0  0
   57.4694   25.4587   46.4191 C   0  0  0  0  0  0  0  0  0  0  0  0
   58.8084   25.4888   46.6052 C   0  0  0  0  0  0  0  0  0  0  0  0
   59.6815   26.6979   46.3259 C   0  0  0  0  0  0  0  0  0  0  0  0
  7  8  1  0
  8  9  2  0
  8 10  1  0
 10 11  1  0
 11 12  1  0
 12 13  1  0
 13  1  1  0
  1  2  2  0
  2  3  1  0
  3  4  2  0
  4 16  1  0
 16 17  1  0
 17 18  2  0
 17 19  1  0
 19 20  1  0
 20 21  1  0
 21 22  1  0
 21 23  2  0
 23 24  1  0
 24 25  2  0
 25 26  1  0
 24 27  1  0
 27 28  1  0
 28 29  2  0
 29 30  1  0
  4  5  1  0
  5  6  2  0
 13 14  1  0
 14 15  1  0
 15 10  1  0
  6  1  1  0
 25 20  1  0
 30 23  1  0
M  CHG 1  16  -1
M  CHG 1  22  -1
M  CHG 1  26  -1
M  END
> <UniqueID>
53

> <SMILES>
CC(=O)N1CCN(c2ccc([N-]C(=O)Cn3c([O-])c4c(c3[O-])CC=CC4)cc2)CC1

> <Energy>
93.91967644378425

> <Genealogy>
CC(=O)N1CCN(c2ccc([N-]C(=O)Cn3c([O-])c4c(c3[O-])CC=CC4)cc2)CC1 (protonated)
CC(=O)N1CCN(c2ccc([N-]C(=O)Cn3c([O-])c4c(c3[O-])CC=CC4)cc2)CC1 (3D coordinates assigned)
CC(=O)N1CCN(c2ccc([N-]C(=O)Cn3c([O-])c4c(c3[O-])CC=CC4)cc2)CC1 (nonaromatic ring conformer: 93.91967644378425 kcal/mol)

> <smiles>
CC(=O)N1CCN(c2ccc(NC(=O)Cn3c(O)c4c(c3O)CC=CC4)cc2)CC1

> <score_type>
oracle

> <origin>
adg

> <m_score__min__energy>
-14.970000000000001

> <m_primary>
energy

> <minimizedAffinity>
-7.61932

> <minimizedRMSD>
0.87088

> <CNNscore>
0.3652736247

> <CNNaffinity>
6.3007769585

> <CNN_VS>
2.3015077114

> <CNNaffinity_variance>
0.0601128377

$$$$
57:0


 33 36  0  0  0  0  0  0  0  0999 V2000
   57.8842   29.5893   52.4663 C   0  0  0  0  0  0  0  0  0  0  0  0
   58.4839   28.4862   52.5682 O   0  0  0  0  0  0  0  0  0  0  0  0
   58.4072   30.6118   51.5942 N   0  0  0  0  0  0  0  0  0  0  0  0
   58.1700   32.0307   51.9060 C   0  0  0  0  0  0  0  0  0  0  0  0
   59.1945   32.9394   51.2204 C   0  0  0  0  0  0  0  0  0  0  0  0
   59.2968   32.6116   49.7922 N   0  0  0  0  0  0  0  0  0  0  0  0
   59.7033   33.6359   48.8635 C   0  0  0  0  0  0  0  0  0  0  0  0
   60.4272   34.5879   49.2670 O   0  0  0  0  0  0  0  0  0  0  0  0
   59.2412   31.2098   49.3504 C   0  0  0  0  0  0  0  0  0  0  0  0
   59.3525   30.2404   50.5321 C   0  0  0  0  0  0  0  0  0  0  0  0
   53.1910   30.4708   53.4184 C   0  0  0  0  0  0  0  0  0  0  0  0
   54.4878   30.1875   53.6515 C   0  0  0  0  0  0  0  0  0  0  0  0
   55.4474   30.2191   52.6566 C   0  0  0  0  0  0  0  0  0  0  0  0
   56.6320   29.7967   53.2247 C   0  0  0  0  0  0  0  0  0  0  0  0
   56.4577   29.5399   54.5428 N   0  0  0  0  0  0  0  0  0  0  0  0
   57.4978   29.1455   55.5027 C   0  0  0  0  0  0  0  0  0  0  0  0
   55.1520   29.7951   54.8254 C   0  0  0  0  0  0  0  0  0  0  0  0
   54.6525   29.7758   56.0709 C   0  0  0  0  0  0  0  0  0  0  0  0
   51.1640   32.6028   52.5129 O   0  0  0  0  0  0  0  0  0  0  0  0
   51.6278   31.5564   51.7237 C   0  0  0  0  0  0  0  0  0  0  0  0
   51.1908   31.3051   50.4782 N   0  0  0  0  0  0  0  0  0  0  0  0
   51.8745   30.1894   50.1447 C   0  0  0  0  0  0  0  0  0  0  0  0
   51.7391   29.6190   49.0314 O   0  0  0  0  0  0  0  0  0  0  0  0
   52.7068   29.7258   51.1033 N   0  0  0  0  0  0  0  0  0  0  0  0
   52.5665   30.6193   52.0966 C   0  0  0  0  0  0  0  0  0  0  0  0
   50.5213   33.1951   52.1751 H   0  0  0  0  0  0  0  0  0  0  0  0
   59.2893   33.5985   47.4435 C   0  0  0  0  0  0  0  0  0  0  0  0
   57.9410   33.3809   47.1068 C   0  0  0  0  0  0  0  0  0  0  0  0
   57.5416   33.3614   45.7687 C   0  0  0  0  0  0  0  0  0  0  0  0
   58.4788   33.5672   44.7534 C   0  0  0  0  0  0  0  0  0  0  0  0
   59.8180   33.7994   45.0778 C   0  0  0  0  0  0  0  0  0  0  0  0
   60.2257   33.8210   46.4155 C   0  0  0  0  0  0  0  0  0  0  0  0
   61.5347   34.0346   46.7037 F   0  0  0  0  0  0  0  0  0  0  0  0
 19 20  1  0
 20 21  1  0
 21 22  1  0
 22 23  2  0
 22 24  1  0
 24 25  1  0
 25 11  1  0
 11 12  2  0
 12 13  1  0
 13 14  2  0
 14  1  1  0
  1  2  2  0
  1  3  1  0
  3  4  1  0
  4  5  1  0
  5  6  1  0
  6  7  1  0
  7  8  2  0
  7 27  1  0
 27 28  2  0
 28 29  1  0
 29 30  2  0
 30 31  1  0
 31 32  2  0
 32 33  1  0
  6  9  1  0
  9 10  1  0
 14 15  1  0
 15 16  1  0
 15 17  1  0
 17 18  2  0
 25 20  2  0
 17 12  1  0
 10  3  1  0
 32 27  1  0
 19 26  1  0
M  CHG 1  21  -1
M  CHG 1  24  -1
M  END
> <UniqueID>
54

> <SMILES>
C=c1/c(=C\c2[n-]c(=O)[n-]c2O)cc(C(=O)N2CCN(C(=O)c3ccccc3F)CC2)n1C

> <Energy>
135.47624234601903

> <Genealogy>
C=c1c(=Cc2[n-]c(=O)[n-]c2O)cc(C(=O)N2CCN(C(=O)c3ccccc3F)CC2)n1C (protonated)
C=c1/c(=C\c2[n-]c(=O)[n-]c2O)cc(C(=O)N2CCN(C(=O)c3ccccc3F)CC2)n1C (cis-trans isomerization)
C=c1/c(=C\c2[n-]c(=O)[n-]c2O)cc(C(=O)N2CCN(C(=O)c3ccccc3F)CC2)n1C (3D coordinates assigned)
C=c1/c(=C\c2[n-]c(=O)[n-]c2O)cc(C(=O)N2CCN(C(=O)c3ccccc3F)CC2)n1C (nonaromatic ring conformer: 135.47624234601903 kcal/mol)

> <smiles>
C=c1c(=Cc2[nH]c(=O)[nH]c2O)cc(C(=O)N2CCN(C(=O)c3ccccc3F)CC2)n1C

> <score_type>
oracle

> <origin>
adg

> <m_score__min__energy>
-14.35

> <m_primary>
energy

> <minimizedAffinity>
-7.50440

> <minimizedRMSD>
0.69567

> <CNNscore>
0.1565858275

> <CNNaffinity>
5.6440768242

> <CNN_VS>
0.8837824464

> <CNNaffinity_variance>
0.2837605178

$$$$
64:0


 25 27  0  0  0  0  0  0  0  0999 V2000
   59.7636   30.5991   46.8845 C   0  0  0  0  0  0  0  0  0  0  0  0
   58.8514   30.2320   45.8760 C   0  0  0  0  0  0  0  0  0  0  0  0
   58.6003   28.8727   45.6409 C   0  0  0  0  0  0  0  0  0  0  0  0
   59.2437   27.8580   46.3804 C   0  0  0  0  0  0  0  0  0  0  0  0
   59.0669   26.5821   45.9498 C   0  0  0  0  0  0  0  0  0  0  0  0
   60.0497   28.2460   47.4971 C   0  0  0  0  0  0  0  0  0  0  0  0
   60.4273   27.3967   48.4687 C   0  0  0  0  0  0  0  0  0  0  0  0
   60.3558   29.6078   47.6763 C   0  0  0  0  0  0  0  0  0  0  0  0
   60.1336   32.0140   47.1062 C   0  0  0  0  0  0  0  0  0  0  0  0
   61.1072   32.4171   47.9348 C   0  0  0  0  0  0  0  0  0  0  0  0
   62.8383   32.2042   47.5037 S   0  0  0  0  0  0  0  0  0  0  0  0
   63.2487   32.9134   49.1015 C   0  0  0  0  0  0  0  0  0  0  0  0
   64.4373   33.0127   49.5009 O   0  0  0  0  0  0  0  0  0  0  0  0
   62.1609   33.3561   49.9006 N   0  0  0  0  0  0  0  0  0  0  0  0
   60.9427   33.0878   49.2298 C   0  0  0  0  0  0  0  0  0  0  0  0
   59.8360   33.4436   49.7121 O   0  0  0  0  0  0  0  0  0  0  0  0
   58.0160   25.6504   46.4040 C   0  0  0  0  0  0  0  0  0  0  0  0
   58.2389   24.4140   46.8895 N   0  0  0  0  0  0  0  0  0  0  0  0
   56.9949   23.9139   47.0534 C   0  0  0  0  0  0  0  0  0  0  0  0
   56.7822   22.7618   47.5107 O   0  0  0  0  0  0  0  0  0  0  0  0
   55.9963   24.7442   46.6811 N   0  0  0  0  0  0  0  0  0  0  0  0
   56.6619   25.8318   46.2604 C   0  0  0  0  0  0  0  0  0  0  0  0
   56.0432   26.9682   45.7530 O   0  0  0  0  0  0  0  0  0  0  0  0
   58.1776   31.2603   44.9936 C   0  0  0  0  0  0  0  0  0  0  0  0
   57.1226   30.6083   44.1068 C   0  0  0  0  0  0  0  0  0  0  0  0
  9 10  2  0
 10 11  1  0
 11 12  1  0
 12 13  2  0
 12 14  1  0
 14 15  1  0
 15 16  2  0
  9  1  1  0
  1  2  1  0
  2 24  1  0
 24 25  1  0
  2  3  2  0
  3  4  1  0
  4  5  2  0
  5 17  1  0
 17 18  1  0
 18 19  1  0
 19 20  2  0
 19 21  1  0
 21 22  1  0
 22 23  1  0
  4  6  1  0
  6  7  2  0
  6  8  1  0
 15 10  1  0
  8  1  2  0
 22 17  2  0
M  CHG 1  14  -1
M  CHG 1  18  -1
M  CHG 1  21  -1
M  CHG 1  23  -1
M  END
> <UniqueID>
61

> <SMILES>
C=c1cc(C=C2SC(=O)[N-]C2=O)c(CC)c/c1=C/c1[n-]c(=O)[n-]c1[O-]

> <Energy>
112.37462694046773

> <Genealogy>
C=c1cc(C=C2SC(=O)[N-]C2=O)c(CC)cc1=Cc1[n-]c(=O)[n-]c1[O-] (protonated)
C=c1cc(C=C2SC(=O)[N-]C2=O)c(CC)c/c1=C/c1[n-]c(=O)[n-]c1[O-] (cis-trans isomerization)
C=c1cc(C=C2SC(=O)[N-]C2=O)c(CC)c/c1=C/c1[n-]c(=O)[n-]c1[O-] (3D coordinates assigned)
C=c1cc(C=C2SC(=O)[N-]C2=O)c(CC)c/c1=C/c1[n-]c(=O)[n-]c1[O-] (nonaromatic ring conformer: 112.37462694046773 kcal/mol)

> <smiles>
C=c1cc(C=C2SC(=O)NC2=O)c(CC)cc1=Cc1[nH]c(=O)[nH]c1O

> <score_type>
oracle

> <origin>
adg

> <m_score__min__energy>
-16.879999999999999

> <m_primary>
energy

> <minimizedAffinity>
-7.87277

> <minimizedRMSD>
1.46960

> <CNNscore>
0.2779479623

> <CNNaffinity>
6.6478571892

> <CNN_VS>
1.8477584124

> <CNNaffinity_variance>
0.2387221307

$$$$
68:0


 33 36  0  0  0  0  0  0  0  0999 V2000
   54.7526   27.9425   53.8573 C   0  0  0  0  0  0  0  0  0  0  0  0
   55.2218   29.0172   53.2004 C   0  0  0  0  0  0  0  0  0  0  0  0
   54.4612   29.9511   52.4825 C   0  0  0  0  0  0  0  0  0  0  0  0
   53.1730   29.9222   52.0842 C   0  0  0  0  0  0  0  0  0  0  0  0
   55.3137   30.9940   52.1770 C   0  0  0  0  0  0  0  0  0  0  0  0
   56.5663   30.6482   52.6461 C   0  0  0  0  0  0  0  0  0  0  0  0
   56.5207   29.4288   53.2499 N   0  0  0  0  0  0  0  0  0  0  0  0
   52.1036   30.7998   52.5896 C   0  0  0  0  0  0  0  0  0  0  0  0
   51.7620   30.8779   53.8880 N   0  0  0  0  0  0  0  0  0  0  0  0
   50.8366   31.8585   53.9078 C   0  0  0  0  0  0  0  0  0  0  0  0
   50.2593   32.2227   54.9636 O   0  0  0  0  0  0  0  0  0  0  0  0
   50.5860   32.4284   52.7099 N   0  0  0  0  0  0  0  0  0  0  0  0
   51.4067   31.7595   51.8839 C   0  0  0  0  0  0  0  0  0  0  0  0
   51.5299   32.0546   50.5289 O   0  0  0  0  0  0  0  0  0  0  0  0
   51.0052   32.7304   50.1470 H   0  0  0  0  0  0  0  0  0  0  0  0
   57.7589   31.5103   52.4858 C   0  0  0  0  0  0  0  0  0  0  0  0
   57.6378   32.7441   52.2654 O   0  0  0  0  0  0  0  0  0  0  0  0
   59.0670   30.9230   52.5616 N   0  0  0  0  0  0  0  0  0  0  0  0
   59.8605   30.4604   51.4183 C   0  0  0  0  0  0  0  0  0  0  0  0
   60.7985   31.5782   50.9314 C   0  0  0  0  0  0  0  0  0  0  0  0
   61.5590   31.1680   49.6574 C   0  0  0  0  0  0  0  0  0  0  0  0
   60.7349   30.4174   48.6645 N   0  0  0  0  0  0  0  0  0  0  0  0
   59.2853   30.5031   48.9239 C   0  0  0  0  0  0  0  0  0  0  0  0
   58.9585   29.8992   50.2935 C   0  0  0  0  0  0  0  0  0  0  0  0
   61.0292   30.8413   47.2791 C   0  0  0  0  0  0  0  0  0  0  0  0
   60.1441   31.9904   46.8686 C   0  0  0  0  0  0  0  0  0  0  0  0
   60.5448   33.3150   47.1217 C   0  0  0  0  0  0  0  0  0  0  0  0
   59.7278   34.3848   46.7385 C   0  0  0  0  0  0  0  0  0  0  0  0
   58.5065   34.1404   46.1058 C   0  0  0  0  0  0  0  0  0  0  0  0
   58.1003   32.8253   45.8517 C   0  0  0  0  0  0  0  0  0  0  0  0
   58.9134   31.7524   46.2334 C   0  0  0  0  0  0  0  0  0  0  0  0
   57.6425   28.7115   53.8778 C   0  0  0  0  0  0  0  0  0  0  0  0
   57.7910   29.1206   55.3418 C   0  0  0  0  0  0  0  0  0  0  0  0
  1  2  2  0
  2  3  1  0
  3  4  2  0
  4  8  1  0
  8  9  1  0
  9 10  1  0
 10 11  2  0
 10 12  1  0
 12 13  1  0
 13 14  1  0
  3  5  1  0
  5  6  2  0
  6 16  1  0
 16 17  2  0
 16 18  1  0
 18 19  1  0
 19 20  1  0
 20 21  1  0
 21 22  1  0
 22 25  1  0
 25 26  1  0
 26 27  2  0
 27 28  1  0
 28 29  2  0
 29 30  1  0
 30 31  2  0
 22 23  1  0
 23 24  1  0
  6  7  1  0
  7 32  1  0
 32 33  1  0
  7  2  1  0
 13  8  2  0
 24 19  1  0
 31 26  1  0
 14 15  1  0
M  CHG 1   9  -1
M  CHG 1  12  -1
M  CHG 1  18  -1
M  END
> <UniqueID>
65

> <SMILES>
C=c1c(=Cc2[n-]c(=O)[n-]c2O)cc(C(=O)[N-]C2CCN(Cc3ccccc3)CC2)n1CC

> <Energy>
137.60236874057296

> <Genealogy>
C=c1c(=Cc2[n-]c(=O)[n-]c2O)cc(C(=O)[N-]C2CCN(Cc3ccccc3)CC2)n1CC (protonated)
C=c1c(=Cc2[n-]c(=O)[n-]c2O)cc(C(=O)[N-]C2CCN(Cc3ccccc3)CC2)n1CC (3D coordinates assigned)
C=c1c(=Cc2[n-]c(=O)[n-]c2O)cc(C(=O)[N-]C2CCN(Cc3ccccc3)CC2)n1CC (nonaromatic ring conformer: 137.60236874057296 kcal/mol)

> <smiles>
C=c1c(=Cc2[nH]c(=O)[nH]c2O)cc(C(=O)NC2CCN(Cc3ccccc3)CC2)n1CC

> <score_type>
oracle

> <origin>
adg

> <m_score__min__energy>
-15.24

> <m_primary>
energy

> <minimizedAffinity>
-8.09407

> <minimizedRMSD>
0.76139

> <CNNscore>
0.2076786757

> <CNNaffinity>
5.6203026772

> <CNN_VS>
1.1672170162

> <CNNaffinity_variance>
0.2826610804

$$$$
76:0


 35 38  0  0  0  0  0  0  0  0999 V2000
   55.7934   26.3851   46.2092 O   0  0  0  0  0  0  0  0  0  0  0  0
   57.0501   26.4792   46.2279 C   0  0  0  0  0  0  0  0  0  0  0  0
   57.8544   25.2928   46.3427 N   0  0  0  0  0  0  0  0  0  0  0  0
   58.7311   25.3747   46.7830 H   0  0  0  0  0  0  0  0  0  0  0  0
   57.6926   27.8216   46.1742 C   0  0  0  0  0  0  0  0  0  0  0  0
   57.1660   28.8402   45.3659 C   0  0  0  0  0  0  0  0  0  0  0  0
   56.0205   28.6350   44.6061 O   0  0  0  0  0  0  0  0  0  0  0  0
   57.7677   30.0527   45.3285 N   0  0  0  0  0  0  0  0  0  0  0  0
   58.8778   30.3239   46.0565 C   0  0  0  0  0  0  0  0  0  0  0  0
   59.3813   31.4769   45.9885 O   0  0  0  0  0  0  0  0  0  0  0  0
   59.4301   29.3577   46.8582 N   0  0  0  0  0  0  0  0  0  0  0  0
   58.8613   28.1096   46.9111 C   0  0  0  0  0  0  0  0  0  0  0  0
   59.3947   27.2042   47.6104 O   0  0  0  0  0  0  0  0  0  0  0  0
   60.6075   29.6643   47.7005 C   0  0  0  0  0  0  0  0  0  0  0  0
   60.3061   30.7881   48.7036 C   0  0  0  0  0  0  0  0  0  0  0  0
   61.3418   31.8868   48.6496 C   0  0  0  0  0  0  0  0  0  0  0  0
   62.6113   31.6584   49.0344 C   0  0  0  0  0  0  0  0  0  0  0  0
   63.6320   32.7586   48.9119 C   0  0  0  0  0  0  0  0  0  0  0  0
   63.5269   33.4549   47.5403 C   0  0  0  0  0  0  0  0  0  0  0  0
   62.0700   33.6576   47.0410 C   0  0  0  0  0  0  0  0  0  0  0  0
   61.0046   33.2430   48.0703 C   0  0  0  0  0  0  0  0  0  0  0  0
   57.4670   23.9937   45.8586 C   0  0  0  0  0  0  0  0  0  0  0  0
   58.1966   23.3270   44.8538 C   0  0  0  0  0  0  0  0  0  0  0  0
   57.8158   22.0478   44.4364 C   0  0  0  0  0  0  0  0  0  0  0  0
   56.7208   21.4122   45.0238 C   0  0  0  0  0  0  0  0  0  0  0  0
   55.9992   22.0556   46.0357 C   0  0  0  0  0  0  0  0  0  0  0  0
   56.3771   23.3395   46.4531 C   0  0  0  0  0  0  0  0  0  0  0  0
   54.8499   21.3866   46.6674 C   0  0  0  0  0  0  0  0  0  0  0  0
   53.7439   21.4031   46.0635 O   0  0  0  0  0  0  0  0  0  0  0  0
   54.9725   20.7282   47.9478 N   0  0  0  0  0  0  0  0  0  0  0  0
   53.8878   19.8531   48.4137 C   0  0  0  0  0  0  0  0  0  0  0  0
   53.9103   19.7425   49.9404 C   0  0  0  0  0  0  0  0  0  0  0  0
   55.1987   19.3837   50.3980 O   0  0  0  0  0  0  0  0  0  0  0  0
   56.1066   20.4312   50.1175 C   0  0  0  0  0  0  0  0  0  0  0  0
   56.2821   20.6122   48.6075 C   0  0  0  0  0  0  0  0  0  0  0  0
  1  2  2  0
  2  3  1  0
  3 22  1  0
 22 23  2  0
 23 24  1  0
 24 25  2  0
 25 26  1  0
 26 28  1  0
 28 29  2  0
 28 30  1  0
 30 31  1  0
 31 32  1  0
 32 33  1  0
 33 34  1  0
 34 35  1  0
 26 27  2  0
  2  5  1  0
  5  6  2  0
  6  7  1  0
  6  8  1  0
  8  9  1  0
  9 10  2  0
  9 11  1  0
 11 14  1  0
 14 15  1  0
 15 16  1  0
 16 17  2  0
 17 18  1  0
 18 19  1  0
 19 20  1  0
 20 21  1  0
 11 12  1  0
 12 13  2  0
 27 22  1  0
 12  5  1  0
 35 30  1  0
 21 16  1  0
  3  4  1  0
M  CHG 1   7  -1
M  CHG 1   8  -1
M  END
> <UniqueID>
73

> <SMILES>
O=C(Nc1cccc(C(=O)N2CCOCC2)c1)c1c([O-])[n-]c(=O)n(CCC2=CCCCC2)c1=O

> <Energy>
82.57520262224911

> <Genealogy>
O=C(Nc1cccc(C(=O)N2CCOCC2)c1)c1c([O-])[n-]c(=O)n(CCC2=CCCCC2)c1=O (protonated)
O=C(Nc1cccc(C(=O)N2CCOCC2)c1)c1c([O-])[n-]c(=O)n(CCC2=CCCCC2)c1=O (3D coordinates assigned)
O=C(Nc1cccc(C(=O)N2CCOCC2)c1)c1c([O-])[n-]c(=O)n(CCC2=CCCCC2)c1=O (nonaromatic ring conformer: 82.57520262224911 kcal/mol)

> <smiles>
O=C(Nc1cccc(C(=O)N2CCOCC2)c1)c1c(O)[nH]c(=O)n(CCC2=CCCCC2)c1=O

> <score_type>
oracle

> <origin>
adg

> <m_score__min__energy>
-14.31

> <m_primary>
energy

> <minimizedAffinity>
-7.50181

> <minimizedRMSD>
1.29361

> <CNNscore>
0.0851838067

> <CNNaffinity>
6.4614925385

> <CNN_VS>
0.5504145026

> <CNNaffinity_variance>
0.1778905988

$$$$
80:0


 32 34  0  0  0  0  0  0  0  0999 V2000
   58.7253   28.5664   45.6801 C   0  0  0  0  0  0  0  0  0  0  0  0
   59.5347   29.5840   45.3481 C   0  0  0  0  0  0  0  0  0  0  0  0
   59.1127   30.9930   45.2836 C   0  0  0  0  0  0  0  0  0  0  0  0
   58.3582   31.4605   44.1950 C   0  0  0  0  0  0  0  0  0  0  0  0
   57.9422   32.7931   44.1529 C   0  0  0  0  0  0  0  0  0  0  0  0
   58.2788   33.6663   45.1897 C   0  0  0  0  0  0  0  0  0  0  0  0
   59.0451   33.2147   46.2768 C   0  0  0  0  0  0  0  0  0  0  0  0
   59.4668   31.8757   46.3130 C   0  0  0  0  0  0  0  0  0  0  0  0
   59.3775   34.1504   47.4081 C   0  0  0  0  0  0  0  0  0  0  0  0
   60.7520   33.8561   47.9560 C   0  0  0  0  0  0  0  0  0  0  0  0
   61.8472   33.7330   47.0896 C   0  0  0  0  0  0  0  0  0  0  0  0
   63.0817   33.4664   47.5843 N   0  0  0  0  0  0  0  0  0  0  0  0
   63.2851   33.3231   48.9197 C   0  0  0  0  0  0  0  0  0  0  0  0
   64.4364   33.0649   49.3556 O   0  0  0  0  0  0  0  0  0  0  0  0
   62.2457   33.4592   49.7828 N   0  0  0  0  0  0  0  0  0  0  0  0
   60.9910   33.7249   49.3351 C   0  0  0  0  0  0  0  0  0  0  0  0
   60.0519   33.8467   50.1663 O   0  0  0  0  0  0  0  0  0  0  0  0
   57.2684   28.5159   45.4298 C   0  0  0  0  0  0  0  0  0  0  0  0
   56.6399   29.5998   45.3009 O   0  0  0  0  0  0  0  0  0  0  0  0
   56.6032   27.2630   45.2182 N   0  0  0  0  0  0  0  0  0  0  0  0
   56.6983   26.0710   46.0092 C   0  0  0  0  0  0  0  0  0  0  0  0
   57.5587   25.9698   47.1150 C   0  0  0  0  0  0  0  0  0  0  0  0
   57.6285   24.7806   47.8420 C   0  0  0  0  0  0  0  0  0  0  0  0
   56.8557   23.6749   47.4692 C   0  0  0  0  0  0  0  0  0  0  0  0
   56.9445   22.5048   48.2151 O   0  0  0  0  0  0  0  0  0  0  0  0
   56.0072   23.7562   46.3482 C   0  0  0  0  0  0  0  0  0  0  0  0
   55.9476   24.9555   45.6187 C   0  0  0  0  0  0  0  0  0  0  0  0
   55.1764   22.5814   45.9002 C   0  0  0  0  0  0  0  0  0  0  0  0
   55.3245   22.3709   44.4980 O   0  0  0  0  0  0  0  0  0  0  0  0
   56.4901   21.8611   43.9166 C   0  0  0  0  0  0  0  0  0  0  0  0
   56.5462   21.6328   42.6781 O   0  0  0  0  0  0  0  0  0  0  0  0
   57.6577   21.5345   44.7832 C   0  0  0  0  0  0  0  0  0  0  0  0
  1 18  1  0
 18 19  2  0
 18 20  1  0
 20 21  1  0
 21 22  2  0
 22 23  1  0
 23 24  2  0
 24 25  1  0
 24 26  1  0
 26 28  1  0
 28 29  1  0
 29 30  1  0
 30 31  2  0
 30 32  1  0
 26 27  2  0
  1  2  2  0
  2  3  1  0
  3  4  2  0
  4  5  1  0
  5  6  2  0
  6  7  1  0
  7  9  1  0
  9 10  1  0
 10 11  2  0
 11 12  1  0
 12 13  1  0
 13 14  2  0
 13 15  1  0
 15 16  1  0
 16 17  2  0
  7  8  2  0
 27 21  1  0
  8  3  1  0
 16 10  1  0
M  CHG 1  12  -1
M  CHG 1  15  -1
M  CHG 1  20  -1
M  CHG 1  25  -1
M  END
> <UniqueID>
76

> <SMILES>
CC(=O)OCc1cc([N-]C(=O)/C=C\c2cccc(Cc3c[n-]c(=O)[n-]c3=O)c2)ccc1[O-]

> <Energy>
57.10774291562899

> <Genealogy>
CC(=O)OCc1cc([N-]C(=O)C=Cc2cccc(Cc3c[n-]c(=O)[n-]c3=O)c2)ccc1[O-] (protonated)
CC(=O)OCc1cc([N-]C(=O)/C=C\c2cccc(Cc3c[n-]c(=O)[n-]c3=O)c2)ccc1[O-] (cis-trans isomerization)
CC(=O)OCc1cc([N-]C(=O)/C=C\c2cccc(Cc3c[n-]c(=O)[n-]c3=O)c2)ccc1[O-] (3D coordinates assigned)
CC(=O)OCc1cc([N-]C(=O)/C=C\c2cccc(Cc3c[n-]c(=O)[n-]c3=O)c2)ccc1[O-] (optimized conformer: 57.10774291562899 kcal/mol)

> <smiles>
CC(=O)OCc1cc(NC(=O)C=Cc2cccc(Cc3c[nH]c(=O)[nH]c3=O)c2)ccc1O

> <score_type>
oracle

> <origin>
adg

> <m_score__min__energy>
-16.699999999999999

> <m_primary>
energy

> <minimizedAffinity>
-7.25448

> <minimizedRMSD>
0.62623

> <CNNscore>
0.3948810101

> <CNNaffinity>
7.0463328362

> <CNN_VS>
2.7824630737

> <CNNaffinity_variance>
0.0618659668

$$$$
81:0


 28 30  0  0  0  0  0  0  0  0999 V2000
   55.2234   29.5189   55.2545 C   0  0  0  0  0  0  0  0  0  0  0  0
   55.6431   30.0229   54.0815 C   0  0  0  0  0  0  0  0  0  0  0  0
   54.8249   30.4160   53.0123 C   0  0  0  0  0  0  0  0  0  0  0  0
   53.4754   30.3751   52.9664 C   0  0  0  0  0  0  0  0  0  0  0  0
   55.6849   30.8188   51.9997 C   0  0  0  0  0  0  0  0  0  0  0  0
   56.9667   30.6813   52.4880 C   0  0  0  0  0  0  0  0  0  0  0  0
   56.9517   30.2044   53.7547 N   0  0  0  0  0  0  0  0  0  0  0  0
   52.6515   30.4752   51.7399 C   0  0  0  0  0  0  0  0  0  0  0  0
   52.7244   29.6635   50.6689 N   0  0  0  0  0  0  0  0  0  0  0  0
   51.8214   30.1877   49.8119 C   0  0  0  0  0  0  0  0  0  0  0  0
   51.5948   29.6902   48.6791 O   0  0  0  0  0  0  0  0  0  0  0  0
   51.1837   31.2869   50.2652 N   0  0  0  0  0  0  0  0  0  0  0  0
   51.7234   31.4586   51.4815 C   0  0  0  0  0  0  0  0  0  0  0  0
   51.3748   32.4926   52.3413 O   0  0  0  0  0  0  0  0  0  0  0  0
   58.1727   30.9774   51.6915 C   0  0  0  0  0  0  0  0  0  0  0  0
   58.8559   30.0128   51.2466 O   0  0  0  0  0  0  0  0  0  0  0  0
   58.4796   32.3342   51.2907 N   0  0  0  0  0  0  0  0  0  0  0  0
   58.5132   33.2174   52.4724 C   0  0  0  0  0  0  0  0  0  0  0  0
   58.9123   31.8476   50.5523 H   0  0  0  0  0  0  0  0  0  0  0  0
   59.7696   32.3455   50.5647 C   0  0  0  0  0  0  0  0  0  0  0  0
   59.6000   32.7730   49.1249 C   0  0  0  0  0  0  0  0  0  0  0  0
   59.9973   34.0551   48.7111 C   0  0  0  0  0  0  0  0  0  0  0  0
   59.8177   34.4542   47.3827 C   0  0  0  0  0  0  0  0  0  0  0  0
   59.2374   33.5776   46.4608 C   0  0  0  0  0  0  0  0  0  0  0  0
   58.8346   32.3018   46.8669 C   0  0  0  0  0  0  0  0  0  0  0  0
   59.0135   31.8998   48.1948 C   0  0  0  0  0  0  0  0  0  0  0  0
   58.1262   29.7825   54.5352 C   0  0  0  0  0  0  0  0  0  0  0  0
   58.4476   28.3175   54.2627 C   0  0  0  0  0  0  0  0  0  0  0  0
  1  2  2  0
  2  3  1  0
  3  4  2  0
  4  8  1  0
  8  9  1  0
  9 10  1  0
 10 11  2  0
 10 12  1  0
 12 13  1  0
 13 14  1  0
  3  5  1  0
  5  6  2  0
  6 15  1  0
 15 16  2  0
 15 17  1  0
 17 18  1  0
 17 20  1  0
 20 21  1  0
 21 22  2  0
 22 23  1  0
 23 24  2  0
 24 25  1  0
 25 26  2  0
  6  7  1  0
  7 27  1  0
 27 28  1  0
  7  2  1  0
 13  8  2  0
 26 21  1  0
 17 19  1  0
M  CHG 1   9  -1
M  CHG 1  12  -1
M  CHG 1  14  -1
M  CHG 1  17   1
M  END
> <UniqueID>
77

> <SMILES>
C=c1/c(=C/c2[n-]c(=O)[n-]c2[O-])cc(C(=O)[N@@H+](C)Cc2ccccc2)n1CC

> <Energy>
116.96311214770506

> <Genealogy>
C=c1c(=Cc2[n-]c(=O)[n-]c2[O-])cc(C(=O)[NH+](C)Cc2ccccc2)n1CC (protonated)
C=c1c(=Cc2[n-]c(=O)[n-]c2[O-])cc(C(=O)[N@@H+](C)Cc2ccccc2)n1CC (chirality)
C=c1/c(=C/c2[n-]c(=O)[n-]c2[O-])cc(C(=O)[N@@H+](C)Cc2ccccc2)n1CC (cis-trans isomerization)
C=c1/c(=C/c2[n-]c(=O)[n-]c2[O-])cc(C(=O)[N@@H+](C)Cc2ccccc2)n1CC (3D coordinates assigned)
C=c1/c(=C/c2[n-]c(=O)[n-]c2[O-])cc(C(=O)[N@@H+](C)Cc2ccccc2)n1CC (optimized conformer: 116.96311214770506 kcal/mol)

> <smiles>
C=c1c(=Cc2[nH]c(=O)[nH]c2O)cc(C(=O)N(C)Cc2ccccc2)n1CC

> <score_type>
oracle

> <origin>
adg

> <m_score__min__energy>
-16.550000000000001

> <m_primary>
energy

> <minimizedAffinity>
-5.66525

> <minimizedRMSD>
1.12170

> <CNNscore>
0.3094158769

> <CNNaffinity>
5.8127264977

> <CNN_VS>
1.7985498905

> <CNNaffinity_variance>
0.0680531934

$$$$
0:0


 30 33  0  0  0  0  0  0  0  0999 V2000
   54.2892   27.7777   53.9253 C   0  0  0  0  0  0  0  0  0  0  0  0
   54.8150   28.8819   53.3725 C   0  0  0  0  0  0  0  0  0  0  0  0
   54.1719   29.8034   52.5262 C   0  0  0  0  0  0  0  0  0  0  0  0
   52.8808   29.9221   52.1592 C   0  0  0  0  0  0  0  0  0  0  0  0
   55.1568   30.6752   52.0844 C   0  0  0  0  0  0  0  0  0  0  0  0
   56.3360   30.2803   52.6803 C   0  0  0  0  0  0  0  0  0  0  0  0
   56.1316   29.2053   53.4738 N   0  0  0  0  0  0  0  0  0  0  0  0
   57.1319   28.5512   54.3234 C   0  0  0  0  0  0  0  0  0  0  0  0
   51.8963   30.8182   52.7775 C   0  0  0  0  0  0  0  0  0  0  0  0
   51.3798   30.6333   54.0038 N   0  0  0  0  0  0  0  0  0  0  0  0
   50.4747   31.6319   54.1131 C   0  0  0  0  0  0  0  0  0  0  0  0
   49.7804   31.8056   55.1490 O   0  0  0  0  0  0  0  0  0  0  0  0
   50.3671   32.4242   53.0270 N   0  0  0  0  0  0  0  0  0  0  0  0
   51.2680   31.8890   52.1856 C   0  0  0  0  0  0  0  0  0  0  0  0
   51.4999   32.3633   50.8996 O   0  0  0  0  0  0  0  0  0  0  0  0
   57.6423   30.9157   52.4419 C   0  0  0  0  0  0  0  0  0  0  0  0
   58.6396   30.5162   53.1052 O   0  0  0  0  0  0  0  0  0  0  0  0
   57.7865   31.9705   51.4601 N   0  0  0  0  0  0  0  0  0  0  0  0
   58.5144   33.1387   52.0415 C   0  0  0  0  0  0  0  0  0  0  0  0
   59.9359   33.3015   51.4856 C   0  0  0  0  0  0  0  0  0  0  0  0
   59.8876   33.4810   49.9536 C   0  0  0  0  0  0  0  0  0  0  0  0
   58.8611   32.5317   49.2777 C   0  0  0  0  0  0  0  0  0  0  0  0
   58.3960   31.4167   50.2260 C   0  0  0  0  0  0  0  0  0  0  0  0
   58.1921   31.0781   51.5516 H   0  0  0  0  0  0  0  0  0  0  0  0
   61.2723   33.3498   49.3443 C   0  0  0  0  0  0  0  0  0  0  0  0
   61.4508   33.3170   47.9462 C   0  0  0  0  0  0  0  0  0  0  0  0
   62.7342   33.2213   47.3978 C   0  0  0  0  0  0  0  0  0  0  0  0
   63.8495   33.1561   48.2350 C   0  0  0  0  0  0  0  0  0  0  0  0
   63.6844   33.1833   49.6225 C   0  0  0  0  0  0  0  0  0  0  0  0
   62.4050   33.2756   50.1767 C   0  0  0  0  0  0  0  0  0  0  0  0
  1  2  2  0
  2  3  1  0
  3  4  2  0
  4  9  1  0
  9 10  1  0
 10 11  1  0
 11 12  2  0
 11 13  1  0
 13 14  1  0
 14 15  1  0
  3  5  1  0
  5  6  2  0
  6 16  1  0
 16 17  2  0
 18 16  1  0
 18 19  1  0
 19 20  1  0
 20 21  1  0
 21 25  1  0
 25 26  2  0
 26 27  1  0
 27 28  2  0
 28 29  1  0
 29 30  2  0
 21 22  1  0
 22 23  1  0
  6  7  1  0
  7  8  1  0
  7  2  1  0
 14  9  2  0
 23 18  1  0
 30 25  1  0
 18 24  1  0
M  CHG 1  10  -1
M  CHG 1  13  -1
M  CHG 1  15  -1
M  CHG 1  18   1
M  END
> <UniqueID>
1

> <SMILES>
C=c1/c(=C\c2[n-]c(=O)[n-]c2[O-])cc(C(=O)[NH+]2CCC(c3ccccc3)CC2)n1C

> <Energy>
141.41805201824897

> <Genealogy>
C=c1c(=Cc2[n-]c(=O)[n-]c2[O-])cc(C(=O)[NH+]2CCC(c3ccccc3)CC2)n1C (protonated)
C=c1/c(=C\c2[n-]c(=O)[n-]c2[O-])cc(C(=O)[NH+]2CCC(c3ccccc3)CC2)n1C (cis-trans isomerization)
C=c1/c(=C\c2[n-]c(=O)[n-]c2[O-])cc(C(=O)[NH+]2CCC(c3ccccc3)CC2)n1C (3D coordinates assigned)
C=c1/c(=C\c2[n-]c(=O)[n-]c2[O-])cc(C(=O)[NH+]2CCC(c3ccccc3)CC2)n1C (nonaromatic ring conformer: 141.41805201824897 kcal/mol)

> <smiles>
C=c1c(=Cc2[nH]c(=O)[nH]c2O)cc(C(=O)N2CCC(c3ccccc3)CC2)n1C

> <score_type>
oracle

> <origin>
adg

> <m_score__min__energy>
-17.32

> <m_primary>
energy

> <minimizedAffinity>
-7.53481

> <minimizedRMSD>
0.73579

> <CNNscore>
0.3344770968

> <CNNaffinity>
5.9185957909

> <CNN_VS>
1.9796347618

> <CNNaffinity_variance>
0.0567457080

$$$$
5:0


 32 35  0  0  0  0  0  0  0  0999 V2000
   57.3601   31.1380   52.8448 C   0  0  0  0  0  0  0  0  0  0  0  0
   57.1873   32.2661   52.3048 O   0  0  0  0  0  0  0  0  0  0  0  0
   54.6493   27.3756   54.1329 C   0  0  0  0  0  0  0  0  0  0  0  0
   54.9366   28.5982   53.6740 C   0  0  0  0  0  0  0  0  0  0  0  0
   54.1041   29.4751   52.9610 C   0  0  0  0  0  0  0  0  0  0  0  0
   52.7872   29.4178   52.6845 C   0  0  0  0  0  0  0  0  0  0  0  0
   54.9189   30.5151   52.5428 C   0  0  0  0  0  0  0  0  0  0  0  0
   56.1794   30.2679   53.0541 C   0  0  0  0  0  0  0  0  0  0  0  0
   56.1829   29.1091   53.7412 N   0  0  0  0  0  0  0  0  0  0  0  0
   56.9529   28.7092   54.2064 H   0  0  0  0  0  0  0  0  0  0  0  0
   52.1143   30.1061   51.5740 C   0  0  0  0  0  0  0  0  0  0  0  0
   51.9895   29.5828   50.3413 N   0  0  0  0  0  0  0  0  0  0  0  0
   51.4391   30.5904   49.6302 C   0  0  0  0  0  0  0  0  0  0  0  0
   51.1490   30.4797   48.4101 O   0  0  0  0  0  0  0  0  0  0  0  0
   51.2329   31.7306   50.3239 N   0  0  0  0  0  0  0  0  0  0  0  0
   51.6804   31.4133   51.5488 C   0  0  0  0  0  0  0  0  0  0  0  0
   51.7176   32.3053   52.6140 O   0  0  0  0  0  0  0  0  0  0  0  0
   58.6989   30.6904   53.1922 N   0  0  0  0  0  0  0  0  0  0  0  0
   59.1332   29.5997   52.2917 C   0  0  0  0  0  0  0  0  0  0  0  0
   59.2975   30.0866   50.8411 C   0  0  0  0  0  0  0  0  0  0  0  0
   59.8434   31.4476   50.8060 N   0  0  0  0  0  0  0  0  0  0  0  0
   60.5536   31.9501   51.9863 C   0  0  0  0  0  0  0  0  0  0  0  0
   59.6784   31.8147   53.2495 C   0  0  0  0  0  0  0  0  0  0  0  0
   57.9862   31.3349   53.4060 H   0  0  0  0  0  0  0  0  0  0  0  0
   59.7060   32.2538   49.6184 C   0  0  0  0  0  0  0  0  0  0  0  0
   60.3817   33.4806   49.5065 C   0  0  0  0  0  0  0  0  0  0  0  0
   60.2617   34.2540   48.3485 C   0  0  0  0  0  0  0  0  0  0  0  0
   59.4656   33.8084   47.2759 C   0  0  0  0  0  0  0  0  0  0  0  0
   58.8006   32.5818   47.3835 C   0  0  0  0  0  0  0  0  0  0  0  0
   58.9207   31.8084   48.5425 C   0  0  0  0  0  0  0  0  0  0  0  0
   59.3124   34.5475   46.0929 O   0  0  0  0  0  0  0  0  0  0  0  0
   58.7030   34.0498   44.9068 C   0  0  0  0  0  0  0  0  0  0  0  0
  3  4  2  0
  4  5  1  0
  5  6  2  0
  6 11  1  0
 11 12  1  0
 12 13  1  0
 13 14  2  0
 13 15  1  0
 15 16  1  0
 16 17  1  0
  5  7  1  0
  7  8  2  0
  8  1  1  0
  1  2  2  0
  1 18  1  0
 18 19  1  0
 19 20  1  0
 20 21  1  0
 21 25  1  0
 25 26  2  0
 26 27  1  0
 27 28  2  0
 28 31  1  0
 31 32  1  0
 28 29  1  0
 29 30  2  0
 21 22  1  0
 22 23  1  0
  8  9  1  0
  9  4  1  0
 16 11  2  0
 23 18  1  0
 30 25  1  0
 18 24  1  0
  9 10  1  0
M  CHG 1  12  -1
M  CHG 1  15  -1
M  CHG 1  17  -1
M  CHG 1  18   1
M  END
> <UniqueID>
5

> <SMILES>
C=c1[nH]c(C(=O)[NH+]2CCN(c3ccc(OC)cc3)CC2)c/c1=C/c1[n-]c(=O)[n-]c1[O-]

> <Energy>
135.5987747331524

> <Genealogy>
C=c1[nH]c(C(=O)[NH+]2CCN(c3ccc(OC)cc3)CC2)cc1=Cc1[n-]c(=O)[n-]c1[O-] (protonated)
C=c1[nH]c(C(=O)[NH+]2CCN(c3ccc(OC)cc3)CC2)c/c1=C/c1[n-]c(=O)[n-]c1[O-] (cis-trans isomerization)
C=c1[nH]c(C(=O)[NH+]2CCN(c3ccc(OC)cc3)CC2)c/c1=C/c1[n-]c(=O)[n-]c1[O-] (3D coordinates assigned)
C=c1[nH]c(C(=O)[NH+]2CCN(c3ccc(OC)cc3)CC2)c/c1=C/c1[n-]c(=O)[n-]c1[O-] (nonaromatic ring conformer: 135.5987747331524 kcal/mol)

> <smiles>
C=c1[nH]c(C(=O)N2CCN(c3ccc(OC)cc3)CC2)cc1=Cc1[nH]c(=O)[nH]c1O

> <score_type>
oracle

> <origin>
adg

> <m_score__min__energy>
-16.73

> <m_primary>
energy

> <minimizedAffinity>
-6.07025

> <minimizedRMSD>
0.92398

> <CNNscore>
0.1286707520

> <CNNaffinity>
5.2849125862

> <CNN_VS>
0.6800136566

> <CNNaffinity_variance>
0.2026634663

$$$$
9:0


 26 28  0  0  0  0  0  0  0  0999 V2000
   54.0569   27.8791   54.1086 C   0  0  0  0  0  0  0  0  0  0  0  0
   54.9896   28.7220   53.6307 C   0  0  0  0  0  0  0  0  0  0  0  0
   54.7117   30.0890   53.3109 C   0  0  0  0  0  0  0  0  0  0  0  0
   53.4775   30.6193   53.1106 C   0  0  0  0  0  0  0  0  0  0  0  0
   55.8081   30.9576   53.1751 C   0  0  0  0  0  0  0  0  0  0  0  0
   57.1191   30.4774   53.1684 C   0  0  0  0  0  0  0  0  0  0  0  0
   57.3400   29.0988   53.3294 C   0  0  0  0  0  0  0  0  0  0  0  0
   58.7337   28.5277   53.2984 C   0  0  0  0  0  0  0  0  0  0  0  0
   56.2822   28.2739   53.5714 N   0  0  0  0  0  0  0  0  0  0  0  0
   56.4550   27.3146   53.7095 H   0  0  0  0  0  0  0  0  0  0  0  0
   58.2352   31.4275   52.9886 C   0  0  0  0  0  0  0  0  0  0  0  0
   58.7686   31.9414   54.0087 O   0  0  0  0  0  0  0  0  0  0  0  0
   58.7267   31.7632   51.6784 N   0  0  0  0  0  0  0  0  0  0  0  0
   58.5898   30.9022   50.5138 C   0  0  0  0  0  0  0  0  0  0  0  0
   59.2468   31.6597   49.3674 C   0  0  0  0  0  0  0  0  0  0  0  0
   60.1743   32.6987   50.0304 C   0  0  0  0  0  0  0  0  0  0  0  0
   60.2289   34.0044   49.2145 C   0  0  0  0  0  0  0  0  0  0  0  0
   61.5980   32.1186   50.1708 C   0  0  0  0  0  0  0  0  0  0  0  0
   59.5549   32.9307   51.4216 C   0  0  0  0  0  0  0  0  0  0  0  0
   52.7473   30.6731   51.8307 C   0  0  0  0  0  0  0  0  0  0  0  0
   52.9024   29.7636   50.8521 N   0  0  0  0  0  0  0  0  0  0  0  0
   51.9846   30.1343   49.9328 C   0  0  0  0  0  0  0  0  0  0  0  0
   51.8311   29.5219   48.8445 O   0  0  0  0  0  0  0  0  0  0  0  0
   51.2359   31.2034   50.2769 N   0  0  0  0  0  0  0  0  0  0  0  0
   51.7208   31.5250   51.4864 C   0  0  0  0  0  0  0  0  0  0  0  0
   51.2128   32.5532   52.2710 O   0  0  0  0  0  0  0  0  0  0  0  0
  1  2  2  0
  2  3  1  0
  3  4  2  0
  4 20  1  0
 20 21  1  0
 21 22  1  0
 22 23  2  0
 22 24  1  0
 24 25  1  0
 25 26  1  0
  3  5  1  0
  5  6  2  0
  6 11  1  0
 11 12  2  0
 11 13  1  0
 13 14  1  0
 14 15  1  0
 15 16  1  0
 16 17  1  0
 16 18  1  0
 16 19  1  0
  6  7  1  0
  7  8  1  0
  7  9  2  0
  9  2  1  0
 25 20  2  0
 19 13  1  0
  9 10  1  0
M  CHG 1   9   1
M  CHG 1  21  -1
M  CHG 1  24  -1
M  CHG 1  26  -1
M  END
> <UniqueID>
9

> <SMILES>
C=c1[nH+]c(C)c(C(=O)N2CCC(C)(C)C2)c/c1=C/c1[n-]c(=O)[n-]c1[O-]

> <Energy>
101.34228744441428

> <Genealogy>
C=c1[nH+]c(C)c(C(=O)N2CCC(C)(C)C2)cc1=Cc1[n-]c(=O)[n-]c1[O-] (protonated)
C=c1[nH+]c(C)c(C(=O)N2CCC(C)(C)C2)c/c1=C/c1[n-]c(=O)[n-]c1[O-] (cis-trans isomerization)
C=c1[nH+]c(C)c(C(=O)N2CCC(C)(C)C2)c/c1=C/c1[n-]c(=O)[n-]c1[O-] (3D coordinates assigned)
C=c1[nH+]c(C)c(C(=O)N2CCC(C)(C)C2)c/c1=C/c1[n-]c(=O)[n-]c1[O-] (nonaromatic ring conformer: 101.34228744441428 kcal/mol)

> <smiles>
C=c1nc(C)c(C(=O)N2CCC(C)(C)C2)cc1=Cc1[nH]c(=O)[nH]c1O

> <score_type>
oracle

> <origin>
adg

> <m_score__min__energy>
-15.52

> <m_primary>
energy

> <minimizedAffinity>
-5.36204

> <minimizedRMSD>
1.07839

> <CNNscore>
0.1248552799

> <CNNaffinity>
4.9483046532

> <CNN_VS>
0.6178219914

> <CNNaffinity_variance>
0.2700004876

$$$$
29:0


 31 34  0  0  0  0  0  0  0  0999 V2000
   60.0548   31.7450   48.8978 C   0  0  0  0  0  0  0  0  0  0  0  0
   59.2147   31.8128   49.8337 O   0  0  0  0  0  0  0  0  0  0  0  0
   61.3266   32.4124   49.0299 N   0  0  0  0  0  0  0  0  0  0  0  0
   62.5201   31.9170   48.3236 C   0  0  0  0  0  0  0  0  0  0  0  0
   63.7374   31.9397   49.2563 C   0  0  0  0  0  0  0  0  0  0  0  0
   63.8253   33.2037   50.0004 N   0  0  0  0  0  0  0  0  0  0  0  0
   62.8059   34.2415   49.8185 C   0  0  0  0  0  0  0  0  0  0  0  0
   61.4117   33.6100   49.8797 C   0  0  0  0  0  0  0  0  0  0  0  0
   58.2599   30.3921   44.6090 C   0  0  0  0  0  0  0  0  0  0  0  0
   58.9858   30.3537   45.7374 C   0  0  0  0  0  0  0  0  0  0  0  0
   59.6284   29.2356   46.2914 C   0  0  0  0  0  0  0  0  0  0  0  0
   59.8714   28.0112   45.7833 C   0  0  0  0  0  0  0  0  0  0  0  0
   60.0389   29.6133   47.5580 C   0  0  0  0  0  0  0  0  0  0  0  0
   59.7199   30.9463   47.7017 C   0  0  0  0  0  0  0  0  0  0  0  0
   59.0710   31.3996   46.6024 N   0  0  0  0  0  0  0  0  0  0  0  0
   58.4247   32.7092   46.4470 C   0  0  0  0  0  0  0  0  0  0  0  0
   58.9315   26.8788   45.7867 C   0  0  0  0  0  0  0  0  0  0  0  0
   59.2634   25.6069   46.0775 N   0  0  0  0  0  0  0  0  0  0  0  0
   58.0722   24.9701   46.0935 C   0  0  0  0  0  0  0  0  0  0  0  0
   57.9655   23.7363   46.3189 O   0  0  0  0  0  0  0  0  0  0  0  0
   57.0024   25.7614   45.8622 N   0  0  0  0  0  0  0  0  0  0  0  0
   57.5651   26.9679   45.6846 C   0  0  0  0  0  0  0  0  0  0  0  0
   56.8423   28.1289   45.4387 O   0  0  0  0  0  0  0  0  0  0  0  0
   64.8517   33.3698   50.9925 C   0  0  0  0  0  0  0  0  0  0  0  0
   66.1971   33.1610   50.6498 C   0  0  0  0  0  0  0  0  0  0  0  0
   67.2030   33.3305   51.6070 C   0  0  0  0  0  0  0  0  0  0  0  0
   66.8726   33.7059   52.9124 C   0  0  0  0  0  0  0  0  0  0  0  0
   68.1349   33.9163   54.1111 Cl  0  0  0  0  0  0  0  0  0  0  0  0
   65.5337   33.9103   53.2617 C   0  0  0  0  0  0  0  0  0  0  0  0
   64.5235   33.7432   52.3086 C   0  0  0  0  0  0  0  0  0  0  0  0
   63.2297   33.9133   52.6753 F   0  0  0  0  0  0  0  0  0  0  0  0
  9 10  2  0
 10 11  1  0
 11 12  2  0
 12 17  1  0
 17 18  1  0
 18 19  1  0
 19 20  2  0
 19 21  1  0
 21 22  1  0
 22 23  1  0
 11 13  1  0
 13 14  2  0
 14  1  1  0
  1  2  2  0
  1  3  1  0
  3  4  1  0
  4  5  1  0
  5  6  1  0
  6 24  1  0
 24 25  2  0
 25 26  1  0
 26 27  2  0
 27 28  1  0
 27 29  1  0
 29 30  2  0
 30 31  1  0
  6  7  1  0
  7  8  1  0
 14 15  1  0
 15 16  1  0
 15 10  1  0
 22 17  2  0
  8  3  1  0
 30 24  1  0
M  CHG 1  18  -1
M  CHG 1  21  -1
M  CHG 1  23  -1
M  END
> <UniqueID>
29

> <SMILES>
C=c1c(=Cc2[n-]c(=O)[n-]c2[O-])cc(C(=O)N2CCN(c3ccc(Cl)cc3F)CC2)n1C

> <Energy>
132.239002315513

> <Genealogy>
C=c1c(=Cc2[n-]c(=O)[n-]c2[O-])cc(C(=O)N2CCN(c3ccc(Cl)cc3F)CC2)n1C (protonated)
C=c1c(=Cc2[n-]c(=O)[n-]c2[O-])cc(C(=O)N2CCN(c3ccc(Cl)cc3F)CC2)n1C (3D coordinates assigned)
C=c1c(=Cc2[n-]c(=O)[n-]c2[O-])cc(C(=O)N2CCN(c3ccc(Cl)cc3F)CC2)n1C (nonaromatic ring conformer: 132.239002315513 kcal/mol)

> <smiles>
C=c1c(=Cc2[nH]c(=O)[nH]c2O)cc(C(=O)N2CCN(c3ccc(Cl)cc3F)CC2)n1C

> <score_type>
oracle

> <origin>
adg

> <m_score__min__energy>
-17.34

> <m_primary>
energy

> <minimizedAffinity>
-8.21507

> <minimizedRMSD>
1.53177

> <CNNscore>
0.1107177287

> <CNNaffinity>
6.2909035683

> <CNN_VS>
0.6965145469

> <CNNaffinity_variance>
0.0974584818

$$$$
37:0


 32 34  0  0  0  0  0  0  0  0999 V2000
   58.0166   27.3246   43.3622 C   0  0  0  0  0  0  0  0  0  0  0  0
   58.4753   27.4223   44.6219 C   0  0  0  0  0  0  0  0  0  0  0  0
   58.5115   26.3898   45.5696 C   0  0  0  0  0  0  0  0  0  0  0  0
   58.1206   25.1081   45.3887 C   0  0  0  0  0  0  0  0  0  0  0  0
   58.9996   26.9598   46.7374 C   0  0  0  0  0  0  0  0  0  0  0  0
   59.2583   28.2856   46.4588 C   0  0  0  0  0  0  0  0  0  0  0  0
   58.9525   28.5719   45.1698 N   0  0  0  0  0  0  0  0  0  0  0  0
   57.1718   24.3640   46.2459 C   0  0  0  0  0  0  0  0  0  0  0  0
   57.4000   23.1768   46.8336 N   0  0  0  0  0  0  0  0  0  0  0  0
   56.2325   22.8968   47.4516 C   0  0  0  0  0  0  0  0  0  0  0  0
   56.0547   21.8476   48.1240 O   0  0  0  0  0  0  0  0  0  0  0  0
   55.2690   23.8277   47.2868 N   0  0  0  0  0  0  0  0  0  0  0  0
   55.8787   24.7468   46.5178 C   0  0  0  0  0  0  0  0  0  0  0  0
   55.2645   25.9106   46.0676 O   0  0  0  0  0  0  0  0  0  0  0  0
   54.3758   26.0924   46.3025 H   0  0  0  0  0  0  0  0  0  0  0  0
   59.7486   29.2529   47.4578 C   0  0  0  0  0  0  0  0  0  0  0  0
   59.1133   29.3517   48.7036 C   0  0  0  0  0  0  0  0  0  0  0  0
   59.5849   30.2510   49.6645 C   0  0  0  0  0  0  0  0  0  0  0  0
   60.7006   31.0467   49.3918 C   0  0  0  0  0  0  0  0  0  0  0  0
   61.3596   30.9454   48.1580 C   0  0  0  0  0  0  0  0  0  0  0  0
   60.8803   30.0404   47.1934 C   0  0  0  0  0  0  0  0  0  0  0  0
   62.5427   31.7823   47.8925 C   0  0  0  0  0  0  0  0  0  0  0  0
   62.4223   32.9709   47.4896 O   0  0  0  0  0  0  0  0  0  0  0  0
   58.9492   29.9131   44.5619 C   0  0  0  0  0  0  0  0  0  0  0  0
   57.5625   30.5408   44.6777 C   0  0  0  0  0  0  0  0  0  0  0  0
   57.5631   31.5193   45.7601 N   0  0  0  0  0  0  0  0  0  0  0  0
   57.9981   33.0952   45.1640 S   0  0  0  0  0  0  0  0  0  0  0  0
   56.8239   34.0096   45.3667 O   0  0  0  0  0  0  0  0  0  0  0  0
   58.3005   33.0283   43.6920 O   0  0  0  0  0  0  0  0  0  0  0  0
   59.3989   33.7841   46.0638 C   0  0  0  0  0  0  0  0  0  0  0  0
   59.1426   33.8204   47.5737 C   0  0  0  0  0  0  0  0  0  0  0  0
   59.7563   35.1735   45.5326 C   0  0  0  0  0  0  0  0  0  0  0  0
  1  2  2  0
  2  3  1  0
  3  4  2  0
  4  8  1  0
  8  9  1  0
  9 10  1  0
 10 11  2  0
 10 12  1  0
 12 13  1  0
 13 14  1  0
  3  5  1  0
  5  6  2  0
  6 16  1  0
 16 17  2  0
 17 18  1  0
 18 19  2  0
 19 20  1  0
 20 22  1  0
 22 23  2  0
 20 21  2  0
  6  7  1  0
  7 24  1  0
 24 25  1  0
 25 26  1  0
 26 27  1  0
 27 28  2  0
 27 29  2  0
 27 30  1  0
 30 31  1  0
 30 32  1  0
  7  2  1  0
 13  8  2  0
 21 16  1  0
 14 15  1  0
M  CHG 1   9  -1
M  CHG 1  12  -1
M  CHG 1  26  -1
M  END
> <UniqueID>
37

> <SMILES>
C=c1c(=Cc2[n-]c(=O)[n-]c2O)cc(-c2cccc(C=O)c2)n1CC[N-]S(=O)(=O)C(C)C

> <Energy>
109.96051986329154

> <Genealogy>
C=c1c(=Cc2[n-]c(=O)[n-]c2O)cc(-c2cccc(C=O)c2)n1CC[N-]S(=O)(=O)C(C)C (protonated)
C=c1c(=Cc2[n-]c(=O)[n-]c2O)cc(-c2cccc(C=O)c2)n1CC[N-]S(=O)(=O)C(C)C (3D coordinates assigned)
C=c1c(=Cc2[n-]c(=O)[n-]c2O)cc(-c2cccc(C=O)c2)n1CC[N-]S(=O)(=O)C(C)C (optimized conformer: 109.96051986329154 kcal/mol)

> <smiles>
C=c1c(=Cc2[nH]c(=O)[nH]c2O)cc(-c2cccc(C=O)c2)n1CCNS(=O)(=O)C(C)C

> <score_type>
oracle

> <origin>
adg

> <m_score__min__energy>
-14.199999999999999

> <m_primary>
energy

> <minimizedAffinity>
-8.14788

> <minimizedRMSD>
0.75006

> <CNNscore>
0.6628407836

> <CNNaffinity>
7.1455712318

> <CNN_VS>
4.7363758087

> <CNNaffinity_variance>
0.0095990319

$$$$
40:0


 26 28  0  0  0  0  0  0  0  0999 V2000
   52.9776   27.9945   53.5068 C   0  0  0  0  0  0  0  0  0  0  0  0
   54.2377   28.4388   53.6595 C   0  0  0  0  0  0  0  0  0  0  0  0
   55.1411   27.5968   54.2509 N   0  0  0  0  0  0  0  0  0  0  0  0
   56.4769   27.8351   54.2346 C   0  0  0  0  0  0  0  0  0  0  0  0
   56.9889   28.9587   53.5839 C   0  0  0  0  0  0  0  0  0  0  0  0
   56.0897   29.8811   53.0376 C   0  0  0  0  0  0  0  0  0  0  0  0
   54.6971   29.6869   53.1283 C   0  0  0  0  0  0  0  0  0  0  0  0
   53.9061   30.7117   52.7189 C   0  0  0  0  0  0  0  0  0  0  0  0
   54.8093   26.7887   54.7048 H   0  0  0  0  0  0  0  0  0  0  0  0
   52.8857   30.6571   51.6549 C   0  0  0  0  0  0  0  0  0  0  0  0
   52.9670   29.8358   50.5944 N   0  0  0  0  0  0  0  0  0  0  0  0
   51.9022   30.1893   49.8412 C   0  0  0  0  0  0  0  0  0  0  0  0
   51.6250   29.6251   48.7516 O   0  0  0  0  0  0  0  0  0  0  0  0
   51.1659   31.2047   50.3429 N   0  0  0  0  0  0  0  0  0  0  0  0
   51.8076   31.4989   51.4838 C   0  0  0  0  0  0  0  0  0  0  0  0
   51.4362   32.5344   52.3317 O   0  0  0  0  0  0  0  0  0  0  0  0
   58.4453   29.2098   53.5189 C   0  0  0  0  0  0  0  0  0  0  0  0
   59.1258   29.2012   54.5797 O   0  0  0  0  0  0  0  0  0  0  0  0
   59.0988   29.5111   52.2828 N   0  0  0  0  0  0  0  0  0  0  0  0
   60.4713   29.8523   51.8681 C   0  0  0  0  0  0  0  0  0  0  0  0
   60.1352   30.1799   50.4444 C   0  0  0  0  0  0  0  0  0  0  0  0
   58.7461   29.8270   50.8844 C   0  0  0  0  0  0  0  0  0  0  0  0
   60.3493   31.6601   50.0808 C   0  0  0  0  0  0  0  0  0  0  0  0
   59.0746   32.4867   50.2732 C   0  0  0  0  0  0  0  0  0  0  0  0
   59.1841   33.3227   51.3938 O   0  0  0  0  0  0  0  0  0  0  0  0
   59.3175   32.7826   52.1884 H   0  0  0  0  0  0  0  0  0  0  0  0
  1  2  2  0
  2  3  1  0
  3  4  2  0
  4  5  1  0
  5 17  1  0
 17 18  2  0
 17 19  1  0
 19 20  1  0
 20 21  1  0
 21 23  1  0
 23 24  1  0
 24 25  1  0
 21 22  1  0
  5  6  2  0
  6  7  1  0
  7  8  2  0
  8 10  1  0
 10 11  1  0
 11 12  1  0
 12 13  2  0
 12 14  1  0
 14 15  1  0
 15 16  1  0
  7  2  1  0
 15 10  2  0
 22 19  1  0
  3  9  1  0
 25 26  1  0
M  CHG 1   3   1
M  CHG 1  11  -1
M  CHG 1  14  -1
M  CHG 1  16  -1
M  END
> <UniqueID>
40

> <SMILES>
C=c1[nH+]cc(C(=O)N2CC(CCO)C2)cc1=Cc1[n-]c(=O)[n-]c1[O-]

> <Energy>
136.581193953485

> <Genealogy>
C=c1[nH+]cc(C(=O)N2CC(CCO)C2)cc1=Cc1[n-]c(=O)[n-]c1[O-] (protonated)
C=c1[nH+]cc(C(=O)N2CC(CCO)C2)cc1=Cc1[n-]c(=O)[n-]c1[O-] (3D coordinates assigned)
C=c1[nH+]cc(C(=O)N2CC(CCO)C2)cc1=Cc1[n-]c(=O)[n-]c1[O-] (nonaromatic ring conformer: 136.581193953485 kcal/mol)

> <smiles>
C=c1ncc(C(=O)N2CC(CCO)C2)cc1=Cc1[nH]c(=O)[nH]c1O

> <score_type>
oracle

> <origin>
adg

> <m_score__min__energy>
-14.83

> <m_primary>
energy

> <minimizedAffinity>
-4.18417

> <minimizedRMSD>
1.11793

> <CNNscore>
0.0750781149

> <CNNaffinity>
4.0436835289

> <CNN_VS>
0.3035921454

> <CNNaffinity_variance>
0.3472921848

$$$$
41:0


 31 34  0  0  0  0  0  0  0  0999 V2000
   55.2108   28.0718   53.6788 C   0  0  0  0  0  0  0  0  0  0  0  0
   55.7229   29.2372   53.2476 C   0  0  0  0  0  0  0  0  0  0  0  0
   55.0068   30.3382   52.7515 C   0  0  0  0  0  0  0  0  0  0  0  0
   53.6863   30.6026   52.7292 C   0  0  0  0  0  0  0  0  0  0  0  0
   55.9492   31.2188   52.2524 C   0  0  0  0  0  0  0  0  0  0  0  0
   57.1911   30.6687   52.5034 C   0  0  0  0  0  0  0  0  0  0  0  0
   57.0588   29.4634   53.1088 N   0  0  0  0  0  0  0  0  0  0  0  0
   52.8434   30.6684   51.5259 C   0  0  0  0  0  0  0  0  0  0  0  0
   52.8843   29.7864   50.5111 N   0  0  0  0  0  0  0  0  0  0  0  0
   51.8584   30.1713   49.7207 C   0  0  0  0  0  0  0  0  0  0  0  0
   51.5779   29.5887   48.6418 O   0  0  0  0  0  0  0  0  0  0  0  0
   51.1524   31.2257   50.1820 N   0  0  0  0  0  0  0  0  0  0  0  0
   51.7806   31.5190   51.3336 C   0  0  0  0  0  0  0  0  0  0  0  0
   51.3934   32.5392   52.1937 O   0  0  0  0  0  0  0  0  0  0  0  0
   50.6530   33.0735   51.9834 H   0  0  0  0  0  0  0  0  0  0  0  0
   58.4701   31.3512   52.2124 C   0  0  0  0  0  0  0  0  0  0  0  0
   58.9743   32.1078   53.0850 O   0  0  0  0  0  0  0  0  0  0  0  0
   59.1251   31.1986   50.9379 N   0  0  0  0  0  0  0  0  0  0  0  0
   60.0366   32.2399   50.4538 C   0  0  0  0  0  0  0  0  0  0  0  0
   59.9430   32.3241   48.9293 C   0  0  0  0  0  0  0  0  0  0  0  0
   60.2084   31.0221   48.2630 N   0  0  0  0  0  0  0  0  0  0  0  0
   60.1329   29.8217   49.1314 C   0  0  0  0  0  0  0  0  0  0  0  0
   59.0414   29.9249   50.2082 C   0  0  0  0  0  0  0  0  0  0  0  0
   59.5658   30.8403   46.9336 C   0  0  0  0  0  0  0  0  0  0  0  0
   58.8866   29.4586   46.7538 C   0  0  0  0  0  0  0  0  0  0  0  0
   57.8013   29.5078   45.6647 C   0  0  0  0  0  0  0  0  0  0  0  0
   58.1281   30.4696   44.6821 O   0  0  0  0  0  0  0  0  0  0  0  0
   57.9645   31.7841   45.1989 C   0  0  0  0  0  0  0  0  0  0  0  0
   58.5810   31.9803   46.6051 C   0  0  0  0  0  0  0  0  0  0  0  0
   58.1573   28.5582   53.4797 C   0  0  0  0  0  0  0  0  0  0  0  0
   58.6256   28.8410   54.9048 C   0  0  0  0  0  0  0  0  0  0  0  0
  1  2  2  0
  2  3  1  0
  3  4  2  0
  4  8  1  0
  8  9  1  0
  9 10  1  0
 10 11  2  0
 10 12  1  0
 12 13  1  0
 13 14  1  0
  3  5  1  0
  5  6  2  0
  6 16  1  0
 16 17  2  0
 16 18  1  0
 18 19  1  0
 19 20  1  0
 20 21  1  0
 21 24  1  0
 24 25  1  0
 25 26  1  0
 26 27  1  0
 27 28  1  0
 28 29  1  0
 21 22  1  0
 22 23  1  0
  6  7  1  0
  7 30  1  0
 30 31  1  0
  7  2  1  0
 13  8  2  0
 23 18  1  0
 29 24  1  0
 14 15  1  0
M  CHG 1   9  -1
M  CHG 1  12  -1
M  END
> <UniqueID>
41

> <SMILES>
C=c1c(=Cc2[n-]c(=O)[n-]c2O)cc(C(=O)N2CCN(C3CCOCC3)CC2)n1CC

> <Energy>
147.944663579479

> <Genealogy>
C=c1c(=Cc2[n-]c(=O)[n-]c2O)cc(C(=O)N2CCN(C3CCOCC3)CC2)n1CC (protonated)
C=c1c(=Cc2[n-]c(=O)[n-]c2O)cc(C(=O)N2CCN(C3CCOCC3)CC2)n1CC (3D coordinates assigned)
C=c1c(=Cc2[n-]c(=O)[n-]c2O)cc(C(=O)N2CCN(C3CCOCC3)CC2)n1CC (nonaromatic ring conformer: 147.944663579479 kcal/mol)

> <smiles>
C=c1c(=Cc2[nH]c(=O)[nH]c2O)cc(C(=O)N2CCN(C3CCOCC3)CC2)n1CC

> <score_type>
oracle

> <origin>
adg

> <m_score__min__energy>
-14.08

> <m_primary>
energy

> <minimizedAffinity>
-6.54497

> <minimizedRMSD>
1.12655

> <CNNscore>
0.0553923361

> <CNNaffinity>
5.0697860718

> <CNN_VS>
0.2808272839

> <CNNaffinity_variance>
0.6572632790

$$$$
44:0


 33 36  0  0  0  0  0  0  0  0999 V2000
   58.0545   30.1840   44.6918 C   0  0  0  0  0  0  0  0  0  0  0  0
   58.4862   29.5086   45.7704 C   0  0  0  0  0  0  0  0  0  0  0  0
   58.4255   28.1161   45.9529 C   0  0  0  0  0  0  0  0  0  0  0  0
   58.1621   27.1202   45.0847 C   0  0  0  0  0  0  0  0  0  0  0  0
   58.7181   27.8864   47.2818 C   0  0  0  0  0  0  0  0  0  0  0  0
   59.0342   29.1046   47.8406 C   0  0  0  0  0  0  0  0  0  0  0  0
   58.8987   30.1018   46.9288 N   0  0  0  0  0  0  0  0  0  0  0  0
   57.7214   25.7623   45.4451 C   0  0  0  0  0  0  0  0  0  0  0  0
   58.5192   24.6777   45.4723 N   0  0  0  0  0  0  0  0  0  0  0  0
   57.7189   23.7160   45.9814 C   0  0  0  0  0  0  0  0  0  0  0  0
   58.1080   22.5305   46.1501 O   0  0  0  0  0  0  0  0  0  0  0  0
   56.4733   24.1260   46.3052 N   0  0  0  0  0  0  0  0  0  0  0  0
   56.4991   25.4269   45.9724 C   0  0  0  0  0  0  0  0  0  0  0  0
   55.4254   26.2903   46.1511 O   0  0  0  0  0  0  0  0  0  0  0  0
   59.3994   29.2756   49.2583 C   0  0  0  0  0  0  0  0  0  0  0  0
   58.5505   29.7587   50.0556 O   0  0  0  0  0  0  0  0  0  0  0  0
   60.6795   28.8483   49.7416 N   0  0  0  0  0  0  0  0  0  0  0  0
   61.2766   28.3569   49.1322 H   0  0  0  0  0  0  0  0  0  0  0  0
   61.1303   29.1150   51.1042 C   0  0  0  0  0  0  0  0  0  0  0  0
   62.0484   30.3067   51.1217 C   0  0  0  0  0  0  0  0  0  0  0  0
   63.4135   30.1374   51.4119 C   0  0  0  0  0  0  0  0  0  0  0  0
   64.2666   31.2433   51.4515 C   0  0  0  0  0  0  0  0  0  0  0  0
   63.7656   32.5249   51.2069 C   0  0  0  0  0  0  0  0  0  0  0  0
   62.4083   32.7025   50.9224 C   0  0  0  0  0  0  0  0  0  0  0  0
   61.9222   33.9465   50.6882 F   0  0  0  0  0  0  0  0  0  0  0  0
   61.5511   31.5973   50.8823 C   0  0  0  0  0  0  0  0  0  0  0  0
   58.9737   31.5441   47.2294 C   0  0  0  0  0  0  0  0  0  0  0  0
   60.4060   32.0122   47.2450 C   0  0  0  0  0  0  0  0  0  0  0  0
   61.4535   31.0889   47.3967 C   0  0  0  0  0  0  0  0  0  0  0  0
   62.7829   31.5212   47.3916 C   0  0  0  0  0  0  0  0  0  0  0  0
   63.0769   32.8772   47.2347 C   0  0  0  0  0  0  0  0  0  0  0  0
   62.0422   33.8040   47.0836 C   0  0  0  0  0  0  0  0  0  0  0  0
   60.7113   33.3757   47.0904 C   0  0  0  0  0  0  0  0  0  0  0  0
  1  2  2  0
  2  3  1  0
  3  4  2  0
  4  8  1  0
  8  9  1  0
  9 10  1  0
 10 11  2  0
 10 12  1  0
 12 13  1  0
 13 14  1  0
  3  5  1  0
  5  6  2  0
  6 15  1  0
 15 16  2  0
 15 17  1  0
 17 19  1  0
 19 20  1  0
 20 21  2  0
 21 22  1  0
 22 23  2  0
 23 24  1  0
 24 25  1  0
 24 26  2  0
  6  7  1  0
  7 27  1  0
 27 28  1  0
 28 29  2  0
 29 30  1  0
 30 31  2  0
 31 32  1  0
 32 33  2  0
  7  2  1  0
 33 28  1  0
 13  8  2  0
 26 20  1  0
 17 18  1  0
M  CHG 1   9  -1
M  CHG 1  12  -1
M  CHG 1  14  -1
M  END
> <UniqueID>
44

> <SMILES>
C=c1/c(=C\c2[n-]c(=O)[n-]c2[O-])cc(C(=O)NCc2cccc(F)c2)n1Cc1ccccc1

> <Energy>
125.78028247245386

> <Genealogy>
C=c1c(=Cc2[n-]c(=O)[n-]c2[O-])cc(C(=O)NCc2cccc(F)c2)n1Cc1ccccc1 (protonated)
C=c1/c(=C\c2[n-]c(=O)[n-]c2[O-])cc(C(=O)NCc2cccc(F)c2)n1Cc1ccccc1 (cis-trans isomerization)
C=c1/c(=C\c2[n-]c(=O)[n-]c2[O-])cc(C(=O)NCc2cccc(F)c2)n1Cc1ccccc1 (3D coordinates assigned)
C=c1/c(=C\c2[n-]c(=O)[n-]c2[O-])cc(C(=O)NCc2cccc(F)c2)n1Cc1ccccc1 (optimized conformer: 125.78028247245386 kcal/mol)

> <smiles>
C=c1c(=Cc2[nH]c(=O)[nH]c2O)cc(C(=O)NCc2cccc(F)c2)n1Cc1ccccc1

> <score_type>
oracle

> <origin>
adg

> <m_score__min__energy>
-17.77

> <m_primary>
energy

> <minimizedAffinity>
-8.87512

> <minimizedRMSD>
0.84386

> <CNNscore>
0.1246763617

> <CNNaffinity>
6.2713427544

> <CNN_VS>
0.7818881869

> <CNNaffinity_variance>
0.0557919107

$$$$
47:0


 29 32  0  0  0  0  0  0  0  0999 V2000
   58.0168   31.2485   44.9368 C   0  0  0  0  0  0  0  0  0  0  0  0
   58.9293   31.1012   45.9124 C   0  0  0  0  0  0  0  0  0  0  0  0
   59.8541   30.0514   46.0549 C   0  0  0  0  0  0  0  0  0  0  0  0
   59.9669   28.8763   45.4064 C   0  0  0  0  0  0  0  0  0  0  0  0
   60.7301   30.4433   47.0539 C   0  0  0  0  0  0  0  0  0  0  0  0
   60.2939   31.6673   47.5123 C   0  0  0  0  0  0  0  0  0  0  0  0
   59.1845   32.0561   46.8431 N   0  0  0  0  0  0  0  0  0  0  0  0
   58.4344   33.2973   47.0593 C   0  0  0  0  0  0  0  0  0  0  0  0
   59.1526   27.6789   45.6634 C   0  0  0  0  0  0  0  0  0  0  0  0
   59.6464   26.4848   46.0383 N   0  0  0  0  0  0  0  0  0  0  0  0
   58.5624   25.6776   46.0171 C   0  0  0  0  0  0  0  0  0  0  0  0
   58.6221   24.4548   46.3158 O   0  0  0  0  0  0  0  0  0  0  0  0
   57.4167   26.2780   45.6280 N   0  0  0  0  0  0  0  0  0  0  0  0
   57.8127   27.5393   45.3935 C   0  0  0  0  0  0  0  0  0  0  0  0
   56.9629   28.5466   44.9467 O   0  0  0  0  0  0  0  0  0  0  0  0
   61.0037   32.4569   48.5391 C   0  0  0  0  0  0  0  0  0  0  0  0
   61.7652   33.3936   48.1604 O   0  0  0  0  0  0  0  0  0  0  0  0
   60.6946   32.2947   49.9456 N   0  0  0  0  0  0  0  0  0  0  0  0
   59.6385   33.2554   50.3622 C   0  0  0  0  0  0  0  0  0  0  0  0
   58.9552   32.8407   51.6718 C   0  0  0  0  0  0  0  0  0  0  0  0
   58.4170   31.4804   51.5597 N   0  0  0  0  0  0  0  0  0  0  0  0
   57.3877   31.0183   52.4509 C   0  0  0  0  0  0  0  0  0  0  0  0
   56.4314   30.3348   51.9921 O   0  0  0  0  0  0  0  0  0  0  0  0
   58.8777   30.6150   50.4721 C   0  0  0  0  0  0  0  0  0  0  0  0
   60.3742   30.8647   50.2304 C   0  0  0  0  0  0  0  0  0  0  0  0
   60.1170   31.9983   50.6857 H   0  0  0  0  0  0  0  0  0  0  0  0
   57.5111   31.2027   53.9394 C   0  0  0  0  0  0  0  0  0  0  0  0
   56.7490   30.2326   54.8362 C   0  0  0  0  0  0  0  0  0  0  0  0
   58.2475   30.0601   54.6366 C   0  0  0  0  0  0  0  0  0  0  0  0
  1  2  2  0
  2  3  1  0
  3  4  2  0
  4  9  1  0
  9 10  1  0
 10 11  1  0
 11 12  2  0
 11 13  1  0
 13 14  1  0
 14 15  1  0
  3  5  1  0
  5  6  2  0
  6 16  1  0
 16 17  2  0
 16 18  1  0
 18 19  1  0
 19 20  1  0
 20 21  1  0
 21 22  1  0
 22 23  2  0
 22 27  1  0
 27 28  1  0
 28 29  1  0
 21 24  1  0
 24 25  1  0
  6  7  1  0
  7  8  1  0
  7  2  1  0
 14  9  2  0
 25 18  1  0
 29 27  1  0
 18 26  1  0
M  CHG 1  10  -1
M  CHG 1  13  -1
M  CHG 1  15  -1
M  CHG 1  18   1
M  END
> <UniqueID>
47

> <SMILES>
C=c1c(=Cc2[n-]c(=O)[n-]c2[O-])cc(C(=O)[NH+]2CCN(C(=O)C3CC3)CC2)n1C

> <Energy>
401.8799114540254

> <Genealogy>
C=c1c(=Cc2[n-]c(=O)[n-]c2[O-])cc(C(=O)[NH+]2CCN(C(=O)C3CC3)CC2)n1C (protonated)
C=c1c(=Cc2[n-]c(=O)[n-]c2[O-])cc(C(=O)[NH+]2CCN(C(=O)C3CC3)CC2)n1C (3D coordinates assigned)
C=c1c(=Cc2[n-]c(=O)[n-]c2[O-])cc(C(=O)[NH+]2CCN(C(=O)C3CC3)CC2)n1C (nonaromatic ring conformer: 401.8799114540254 kcal/mol)

> <smiles>
C=c1c(=Cc2[nH]c(=O)[nH]c2O)cc(C(=O)N2CCN(C(=O)C3CC3)CC2)n1C

> <score_type>
oracle

> <origin>
adg

> <m_score__min__energy>
-16.109999999999999

> <m_primary>
energy

> <minimizedAffinity>
-7.63827

> <minimizedRMSD>
1.65157

> <CNNscore>
0.1424626708

> <CNNaffinity>
6.3223876953

> <CNN_VS>
0.9007042646

> <CNNaffinity_variance>
0.0811102763

$$$$
50:0


 28 30  0  0  0  0  0  0  0  0999 V2000
   57.2845   29.5456   44.9855 C   0  0  0  0  0  0  0  0  0  0  0  0
   58.3010   28.9735   45.9487 C   0  0  0  0  0  0  0  0  0  0  0  0
   58.5410   27.5753   45.9598 C   0  0  0  0  0  0  0  0  0  0  0  0
   59.5200   27.0423   46.8115 C   0  0  0  0  0  0  0  0  0  0  0  0
   60.2537   27.8715   47.6525 C   0  0  0  0  0  0  0  0  0  0  0  0
   60.0014   29.2400   47.6779 C   0  0  0  0  0  0  0  0  0  0  0  0
   59.0183   29.8058   46.8538 C   0  0  0  0  0  0  0  0  0  0  0  0
   57.7542   26.6858   45.1513 N   0  0  0  0  0  0  0  0  0  0  0  0
   57.9126   25.2587   45.1753 C   0  0  0  0  0  0  0  0  0  0  0  0
   58.7867   24.7233   45.9085 O   0  0  0  0  0  0  0  0  0  0  0  0
   57.0748   27.0726   44.5528 H   0  0  0  0  0  0  0  0  0  0  0  0
   57.0932   24.4010   44.2615 C   0  0  0  0  0  0  0  0  0  0  0  0
   56.0037   23.7285   45.0366 C   0  0  0  0  0  0  0  0  0  0  0  0
   55.7778   22.4027   45.0221 N   0  0  0  0  0  0  0  0  0  0  0  0
   54.6728   22.2697   45.7882 C   0  0  0  0  0  0  0  0  0  0  0  0
   54.1440   21.1522   46.0243 O   0  0  0  0  0  0  0  0  0  0  0  0
   54.1757   23.4260   46.2761 N   0  0  0  0  0  0  0  0  0  0  0  0
   55.0271   24.3406   45.7846 C   0  0  0  0  0  0  0  0  0  0  0  0
   54.9100   25.7062   46.0129 O   0  0  0  0  0  0  0  0  0  0  0  0
   58.7488   31.5572   47.0180 S   0  0  0  0  0  0  0  0  0  0  0  0
   58.2781   31.8125   48.4228 O   0  0  0  0  0  0  0  0  0  0  0  0
   57.6658   32.0354   46.0910 O   0  0  0  0  0  0  0  0  0  0  0  0
   60.2401   32.4430   46.7622 N   0  0  0  0  0  0  0  0  0  0  0  0
   60.0997   33.5700   45.8160 C   0  0  0  0  0  0  0  0  0  0  0  0
   59.8175   34.9106   46.5200 C   0  0  0  0  0  0  0  0  0  0  0  0
   59.2198   34.6992   47.7783 O   0  0  0  0  0  0  0  0  0  0  0  0
   60.1500   34.0925   48.6552 C   0  0  0  0  0  0  0  0  0  0  0  0
   60.8505   32.8589   48.0375 C   0  0  0  0  0  0  0  0  0  0  0  0
  1  2  1  0
  2  3  2  0
  3  8  1  0
  8  9  1  0
  9 10  2  0
  9 12  1  0
 12 13  1  0
 13 14  1  0
 14 15  1  0
 15 16  2  0
 15 17  1  0
 17 18  1  0
 18 19  1  0
  3  4  1  0
  4  5  2  0
  5  6  1  0
  6  7  2  0
  7 20  1  0
 20 21  2  0
 20 22  2  0
 20 23  1  0
 23 24  1  0
 24 25  1  0
 25 26  1  0
 26 27  1  0
 27 28  1  0
  7  2  1  0
 28 23  1  0
 18 13  2  0
  8 11  1  0
M  CHG 1  14  -1
M  CHG 1  17  -1
M  CHG 1  19  -1
M  END
> <UniqueID>
50

> <SMILES>
Cc1c(NC(=O)Cc2[n-]c(=O)[n-]c2[O-])cccc1S(=O)(=O)N1CCOCC1

> <Energy>
91.91542942362271

> <Genealogy>
Cc1c(NC(=O)Cc2[n-]c(=O)[n-]c2[O-])cccc1S(=O)(=O)N1CCOCC1 (protonated)
Cc1c(NC(=O)Cc2[n-]c(=O)[n-]c2[O-])cccc1S(=O)(=O)N1CCOCC1 (3D coordinates assigned)
Cc1c(NC(=O)Cc2[n-]c(=O)[n-]c2[O-])cccc1S(=O)(=O)N1CCOCC1 (nonaromatic ring conformer: 91.91542942362271 kcal/mol)

> <smiles>
Cc1c(NC(=O)Cc2[nH]c(=O)[nH]c2O)cccc1S(=O)(=O)N1CCOCC1

> <score_type>
oracle

> <origin>
adg

> <m_score__min__energy>
-15.81

> <m_primary>
energy

> <minimizedAffinity>
-8.24966

> <minimizedRMSD>
1.27024

> <CNNscore>
0.2696741223

> <CNNaffinity>
6.4288172722

> <CNN_VS>
1.7336856127

> <CNNaffinity_variance>
0.6779913306

$$$$
51:0


 29 31  0  0  0  0  0  0  0  0999 V2000
   58.1849   27.0559   46.5938 C   0  0  0  0  0  0  0  0  0  0  0  0
   58.8356   26.3603   47.5967 C   0  0  0  0  0  0  0  0  0  0  0  0
   58.6309   25.0325   47.9527 O   0  0  0  0  0  0  0  0  0  0  0  0
   59.7391   27.2172   48.1734 C   0  0  0  0  0  0  0  0  0  0  0  0
   60.5793   26.9001   49.2347 O   0  0  0  0  0  0  0  0  0  0  0  0
   59.6847   28.4256   47.5776 N   0  0  0  0  0  0  0  0  0  0  0  0
   58.7329   28.3416   46.6120 C   0  0  0  0  0  0  0  0  0  0  0  0
   58.3676   29.4572   45.7146 C   0  0  0  0  0  0  0  0  0  0  0  0
   57.8950   29.1971   44.4178 C   0  0  0  0  0  0  0  0  0  0  0  0
   57.5170   30.2525   43.5821 C   0  0  0  0  0  0  0  0  0  0  0  0
   57.5982   31.5705   44.0382 C   0  0  0  0  0  0  0  0  0  0  0  0
   57.2284   32.5936   43.2275 F   0  0  0  0  0  0  0  0  0  0  0  0
   58.0587   31.8360   45.3321 C   0  0  0  0  0  0  0  0  0  0  0  0
   58.4399   30.7825   46.1687 C   0  0  0  0  0  0  0  0  0  0  0  0
   60.4604   29.5808   47.9469 C   0  0  0  0  0  0  0  0  0  0  0  0
   61.2158   30.2695   46.9851 C   0  0  0  0  0  0  0  0  0  0  0  0
   61.9759   31.3836   47.3481 C   0  0  0  0  0  0  0  0  0  0  0  0
   61.9889   31.8246   48.6787 C   0  0  0  0  0  0  0  0  0  0  0  0
   61.2229   31.1503   49.6383 C   0  0  0  0  0  0  0  0  0  0  0  0
   60.4628   30.0351   49.2752 C   0  0  0  0  0  0  0  0  0  0  0  0
   62.9372   33.2369   49.1362 S   0  0  0  0  0  0  0  0  0  0  0  0
   63.9760   33.6805   47.8294 N   0  0  0  0  0  0  0  0  0  0  0  0
   62.0196   34.3813   49.4608 O   0  0  0  0  0  0  0  0  0  0  0  0
   63.7661   32.9231   50.3499 O   0  0  0  0  0  0  0  0  0  0  0  0
   63.4138   33.8936   47.0055 H   0  0  0  0  0  0  0  0  0  0  0  0
   55.7930   26.5623   45.9544 N   0  0  0  0  0  0  0  0  0  0  0  0
   57.1855   26.4912   45.6622 C   0  0  0  0  0  0  0  0  0  0  0  0
   57.5619   25.9647   44.5813 O   0  0  0  0  0  0  0  0  0  0  0  0
   55.1381   26.1821   45.3253 H   0  0  0  0  0  0  0  0  0  0  0  0
 26 27  1  0
 27 28  2  0
 27  1  1  0
  1  2  1  0
  2  3  1  0
  2  4  2  0
  4  5  1  0
  4  6  1  0
  6 15  1  0
 15 16  2  0
 16 17  1  0
 17 18  2  0
 18 21  1  0
 21 22  1  0
 21 23  2  0
 21 24  2  0
 18 19  1  0
 19 20  2  0
  6  7  1  0
  7  8  1  0
  8  9  2  0
  9 10  1  0
 10 11  2  0
 11 12  1  0
 11 13  1  0
 13 14  2  0
  7  1  2  0
 14  8  1  0
 20 15  1  0
 26 29  1  0
 22 25  1  0
M  CHG 1   3  -1
M  CHG 1   5  -1
M  CHG 1  22  -1
M  CHG 1  26  -1
M  END
> <UniqueID>
51

> <SMILES>
[NH-]C(=O)c1c([O-])c([O-])n(-c2ccc(S([NH-])(=O)=O)cc2)c1-c1ccc(F)cc1

> <Energy>
80.5718465609606

> <Genealogy>
[NH-]C(=O)c1c([O-])c([O-])n(-c2ccc(S([NH-])(=O)=O)cc2)c1-c1ccc(F)cc1 (protonated)
[NH-]C(=O)c1c([O-])c([O-])n(-c2ccc(S([NH-])(=O)=O)cc2)c1-c1ccc(F)cc1 (3D coordinates assigned)
[NH-]C(=O)c1c([O-])c([O-])n(-c2ccc(S([NH-])(=O)=O)cc2)c1-c1ccc(F)cc1 (optimized conformer: 80.5718465609606 kcal/mol)

> <smiles>
NC(=O)c1c(O)c(O)n(-c2ccc(S(N)(=O)=O)cc2)c1-c1ccc(F)cc1

> <score_type>
oracle

> <origin>
adg

> <m_score__min__energy>
-14.26

> <m_primary>
energy

> <minimizedAffinity>
-6.56829

> <minimizedRMSD>
1.03384

> <CNNscore>
0.2994983196

> <CNNaffinity>
6.5201582909

> <CNN_VS>
1.9527764320

> <CNNaffinity_variance>
0.0291111376

$$$$
64:0


 36 39  0  0  0  0  0  0  0  0999 V2000
   58.7619   31.9703   50.9982 C   0  0  0  0  0  0  0  0  0  0  0  0
   58.5524   32.3817   49.6700 C   0  0  0  0  0  0  0  0  0  0  0  0
   59.6350   32.6778   48.8316 C   0  0  0  0  0  0  0  0  0  0  0  0
   60.9392   32.5947   49.3336 C   0  0  0  0  0  0  0  0  0  0  0  0
   61.1619   32.2114   50.6550 C   0  0  0  0  0  0  0  0  0  0  0  0
   60.0845   31.9018   51.4991 C   0  0  0  0  0  0  0  0  0  0  0  0
   60.3524   31.5919   52.8792 N   0  0  0  0  0  0  0  0  0  0  0  0
   60.3666   32.6402   53.9001 C   0  0  0  0  0  0  0  0  0  0  0  0
   59.4762   32.2141   55.0718 C   0  0  0  0  0  0  0  0  0  0  0  0
   59.8462   30.9296   55.5410 O   0  0  0  0  0  0  0  0  0  0  0  0
   59.6066   29.9616   54.5338 C   0  0  0  0  0  0  0  0  0  0  0  0
   60.5117   30.2063   53.3219 C   0  0  0  0  0  0  0  0  0  0  0  0
   59.3575   33.1594   47.1539 S   0  0  0  0  0  0  0  0  0  0  0  0
   60.6709   33.1723   46.4242 O   0  0  0  0  0  0  0  0  0  0  0  0
   58.7999   34.5539   47.1330 O   0  0  0  0  0  0  0  0  0  0  0  0
   58.2528   32.0945   46.3191 N   0  0  0  0  0  0  0  0  0  0  0  0
   58.7430   30.7165   46.2754 C   0  0  0  0  0  0  0  0  0  0  0  0
   58.1146   30.0719   45.0479 C   0  0  0  0  0  0  0  0  0  0  0  0
   57.6421   31.2303   44.1806 C   0  0  0  0  0  0  0  0  0  0  0  0
   58.0620   32.4875   44.9243 C   0  0  0  0  0  0  0  0  0  0  0  0
   57.5958   31.5784   51.8169 C   0  0  0  0  0  0  0  0  0  0  0  0
   57.0764   32.4092   52.6112 O   0  0  0  0  0  0  0  0  0  0  0  0
   57.0326   30.2691   51.6814 N   0  0  0  0  0  0  0  0  0  0  0  0
   56.7166   29.4196   52.8201 C   0  0  0  0  0  0  0  0  0  0  0  0
   54.7200   28.2673   53.4312 O   0  0  0  0  0  0  0  0  0  0  0  0
   55.2307   29.3265   52.9751 C   0  0  0  0  0  0  0  0  0  0  0  0
   54.3949   30.4419   52.6334 N   0  0  0  0  0  0  0  0  0  0  0  0
   54.8194   31.2763   52.3289 H   0  0  0  0  0  0  0  0  0  0  0  0
   52.9365   30.3857   52.7204 C   0  0  0  0  0  0  0  0  0  0  0  0
   52.3194   30.5324   51.3521 C   0  0  0  0  0  0  0  0  0  0  0  0
   52.4599   29.5060   50.4019 C   0  0  0  0  0  0  0  0  0  0  0  0
   51.8775   29.6308   49.1362 C   0  0  0  0  0  0  0  0  0  0  0  0
   51.1479   30.7770   48.8109 C   0  0  0  0  0  0  0  0  0  0  0  0
   50.9993   31.8008   49.7494 C   0  0  0  0  0  0  0  0  0  0  0  0
   51.5801   31.6843   51.0177 C   0  0  0  0  0  0  0  0  0  0  0  0
   51.4169   32.7134   51.9389 O   0  0  0  0  0  0  0  0  0  0  0  0
 25 26  2  0
 26 24  1  0
 24 23  1  0
 23 21  1  0
 21 22  2  0
 21  1  1  0
  1  2  2  0
  2  3  1  0
  3 13  1  0
 13 14  2  0
 13 15  2  0
 13 16  1  0
 16 17  1  0
 17 18  1  0
 18 19  1  0
 19 20  1  0
  3  4  2  0
  4  5  1  0
  5  6  2  0
  6  7  1  0
  7  8  1  0
  8  9  1  0
  9 10  1  0
 10 11  1  0
 11 12  1  0
 26 27  1  0
 27 29  1  0
 29 30  1  0
 30 31  2  0
 31 32  1  0
 32 33  2  0
 33 34  1  0
 34 35  2  0
 35 36  1  0
  6  1  1  0
 12  7  1  0
 35 30  1  0
 20 16  1  0
 27 28  1  0
M  CHG 1  23  -1
M  CHG 1  36  -1
M  END
> <UniqueID>
64

> <SMILES>
O=C(C[N-]C(=O)c1cc(S(=O)(=O)N2CCCC2)ccc1N1CCOCC1)NCc1ccccc1[O-]

> <Energy>
70.39378555836791

> <Genealogy>
O=C(C[N-]C(=O)c1cc(S(=O)(=O)N2CCCC2)ccc1N1CCOCC1)NCc1ccccc1[O-] (protonated)
O=C(C[N-]C(=O)c1cc(S(=O)(=O)N2CCCC2)ccc1N1CCOCC1)NCc1ccccc1[O-] (3D coordinates assigned)
O=C(C[N-]C(=O)c1cc(S(=O)(=O)N2CCCC2)ccc1N1CCOCC1)NCc1ccccc1[O-] (nonaromatic ring conformer: 70.39378555836791 kcal/mol)

> <smiles>
O=C(CNC(=O)c1cc(S(=O)(=O)N2CCCC2)ccc1N1CCOCC1)NCc1ccccc1O

> <score_type>
oracle

> <origin>
adg

> <m_score__min__energy>
-15.33

> <m_primary>
energy

> <minimizedAffinity>
-4.31170

> <minimizedRMSD>
1.02108

> <CNNscore>
0.3081367612

> <CNNaffinity>
6.0964064598

> <CNN_VS>
1.8785269260

> <CNNaffinity_variance>
0.1722081453

$$$$
66:0


 31 34  0  0  0  0  0  0  0  0999 V2000
   59.3325   31.1441   46.2162 N   0  0  0  0  0  0  0  0  0  0  0  0
   58.6706   31.4890   45.0918 C   0  0  0  0  0  0  0  0  0  0  0  0
   58.3358   32.8954   44.6977 C   0  0  0  0  0  0  0  0  0  0  0  0
   58.3389   30.3625   44.3650 C   0  0  0  0  0  0  0  0  0  0  0  0
   58.8303   29.2730   45.0748 C   0  0  0  0  0  0  0  0  0  0  0  0
   58.7528   27.9813   44.7034 C   0  0  0  0  0  0  0  0  0  0  0  0
   59.4483   29.7947   46.2157 C   0  0  0  0  0  0  0  0  0  0  0  0
   60.0521   29.0948   47.1884 C   0  0  0  0  0  0  0  0  0  0  0  0
   58.3081   26.8967   45.6068 C   0  0  0  0  0  0  0  0  0  0  0  0
   56.9518   26.7276   45.9432 C   0  0  0  0  0  0  0  0  0  0  0  0
   55.9802   27.5800   45.4330 O   0  0  0  0  0  0  0  0  0  0  0  0
   56.5845   25.7355   46.7942 N   0  0  0  0  0  0  0  0  0  0  0  0
   57.5069   24.9061   47.3455 C   0  0  0  0  0  0  0  0  0  0  0  0
   57.1426   23.9902   48.1277 O   0  0  0  0  0  0  0  0  0  0  0  0
   58.8243   25.0681   47.0589 N   0  0  0  0  0  0  0  0  0  0  0  0
   59.2438   26.0442   46.2123 C   0  0  0  0  0  0  0  0  0  0  0  0
   60.4753   26.1658   45.9714 O   0  0  0  0  0  0  0  0  0  0  0  0
   57.5888   32.6495   47.9368 O   0  0  0  0  0  0  0  0  0  0  0  0
   58.9732   32.7968   48.0225 C   0  0  0  0  0  0  0  0  0  0  0  0
   59.4999   33.6982   48.9523 C   0  0  0  0  0  0  0  0  0  0  0  0
   60.8820   33.8563   49.0800 C   0  0  0  0  0  0  0  0  0  0  0  0
   61.7615   33.1067   48.2842 C   0  0  0  0  0  0  0  0  0  0  0  0
   61.2305   32.2171   47.3347 C   0  0  0  0  0  0  0  0  0  0  0  0
   59.8436   32.0569   47.1994 C   0  0  0  0  0  0  0  0  0  0  0  0
   57.0287   33.1525   48.4947 H   0  0  0  0  0  0  0  0  0  0  0  0
   63.2265   33.2621   48.4081 C   0  0  0  0  0  0  0  0  0  0  0  0
   63.8839   33.7280   47.4386 O   0  0  0  0  0  0  0  0  0  0  0  0
   63.9272   32.8538   49.5862 N   0  0  0  0  0  0  0  0  0  0  0  0
   63.6738   32.1027   50.8313 C   0  0  0  0  0  0  0  0  0  0  0  0
   65.0965   32.0526   51.2792 C   0  0  0  0  0  0  0  0  0  0  0  0
   65.3343   32.8179   50.0203 C   0  0  0  0  0  0  0  0  0  0  0  0
 18 19  1  0
 19 20  2  0
 20 21  1  0
 21 22  2  0
 22 26  1  0
 26 27  2  0
 26 28  1  0
 28 29  1  0
 29 30  1  0
 30 31  1  0
 22 23  1  0
 23 24  2  0
 24  1  1  0
  1  2  1  0
  2  3  1  0
  2  4  2  0
  4  5  1  0
  5  6  2  0
  6  9  1  0
  9 10  2  0
 10 11  1  0
 10 12  1  0
 12 13  1  0
 13 14  2  0
 13 15  1  0
 15 16  1  0
 16 17  2  0
  5  7  1  0
  7  8  2  0
 24 19  1  0
  7  1  1  0
 31 28  1  0
 16  9  1  0
 18 25  1  0
M  CHG 1  11  -1
M  CHG 1  12  -1
M  CHG 1  15  -1
M  END
> <UniqueID>
65

> <SMILES>
C=c1/c(=C/c2c([O-])[n-]c(=O)[n-]c2=O)cc(C)n1-c1cc(C(=O)N2CCC2)ccc1O

> <Energy>
142.07238656728728

> <Genealogy>
C=c1c(=Cc2c([O-])[n-]c(=O)[n-]c2=O)cc(C)n1-c1cc(C(=O)N2CCC2)ccc1O (protonated)
C=c1/c(=C/c2c([O-])[n-]c(=O)[n-]c2=O)cc(C)n1-c1cc(C(=O)N2CCC2)ccc1O (cis-trans isomerization)
C=c1/c(=C/c2c([O-])[n-]c(=O)[n-]c2=O)cc(C)n1-c1cc(C(=O)N2CCC2)ccc1O (3D coordinates assigned)
C=c1/c(=C/c2c([O-])[n-]c(=O)[n-]c2=O)cc(C)n1-c1cc(C(=O)N2CCC2)ccc1O (nonaromatic ring conformer: 142.07238656728728 kcal/mol)

> <smiles>
C=c1c(=Cc2c(O)[nH]c(=O)[nH]c2=O)cc(C)n1-c1cc(C(=O)N2CCC2)ccc1O

> <score_type>
oracle

> <origin>
adg

> <m_score__min__energy>
-16.609999999999999

> <m_primary>
energy

> <minimizedAffinity>
-7.30597

> <minimizedRMSD>
1.21861

> <CNNscore>
0.1559111178

> <CNNaffinity>
6.2037334442

> <CNN_VS>
0.9672310352

> <CNNaffinity_variance>
0.1235611364

$$$$
71:0


 32 35  0  0  0  0  0  0  0  0999 V2000
   60.5632   30.1852   47.1215 C   0  0  0  0  0  0  0  0  0  0  0  0
   60.0473   31.3269   46.6343 C   0  0  0  0  0  0  0  0  0  0  0  0
   59.1375   31.4650   45.5726 C   0  0  0  0  0  0  0  0  0  0  0  0
   58.6744   30.5693   44.6783 C   0  0  0  0  0  0  0  0  0  0  0  0
   58.7491   32.7957   45.5669 C   0  0  0  0  0  0  0  0  0  0  0  0
   59.4626   33.4268   46.5629 C   0  0  0  0  0  0  0  0  0  0  0  0
   59.3558   34.8845   46.8923 C   0  0  0  0  0  0  0  0  0  0  0  0
   60.2496   32.5392   47.2128 N   0  0  0  0  0  0  0  0  0  0  0  0
   58.3963   29.1457   44.9532 C   0  0  0  0  0  0  0  0  0  0  0  0
   57.0925   28.6965   45.2238 C   0  0  0  0  0  0  0  0  0  0  0  0
   56.0191   29.5798   45.2057 O   0  0  0  0  0  0  0  0  0  0  0  0
   56.8733   27.3880   45.5117 N   0  0  0  0  0  0  0  0  0  0  0  0
   57.8995   26.5000   45.5612 C   0  0  0  0  0  0  0  0  0  0  0  0
   57.6053   24.9327   45.9085 S   0  0  0  0  0  0  0  0  0  0  0  0
   59.1719   26.9160   45.3327 N   0  0  0  0  0  0  0  0  0  0  0  0
   59.4430   28.2142   45.0392 C   0  0  0  0  0  0  0  0  0  0  0  0
   60.6360   28.5680   44.8393 O   0  0  0  0  0  0  0  0  0  0  0  0
   61.1165   32.8404   48.3204 C   0  0  0  0  0  0  0  0  0  0  0  0
   62.4751   33.1073   48.0995 C   0  0  0  0  0  0  0  0  0  0  0  0
   63.3193   33.4068   49.1709 C   0  0  0  0  0  0  0  0  0  0  0  0
   62.8172   33.4361   50.4849 C   0  0  0  0  0  0  0  0  0  0  0  0
   61.4521   33.1844   50.6997 C   0  0  0  0  0  0  0  0  0  0  0  0
   60.6102   32.8851   49.6255 C   0  0  0  0  0  0  0  0  0  0  0  0
   63.7157   33.7628   51.6165 C   0  0  0  0  0  0  0  0  0  0  0  0
   64.0495   34.9644   51.8071 O   0  0  0  0  0  0  0  0  0  0  0  0
   64.2162   32.7425   52.5026 N   0  0  0  0  0  0  0  0  0  0  0  0
   64.6433   31.4338   51.9979 C   0  0  0  0  0  0  0  0  0  0  0  0
   66.0393   31.1055   52.5413 C   0  0  0  0  0  0  0  0  0  0  0  0
   66.0919   31.2459   54.0026 N   0  0  0  0  0  0  0  0  0  0  0  0
   65.7403   32.6135   54.4153 C   0  0  0  0  0  0  0  0  0  0  0  0
   64.3328   32.9913   53.9410 C   0  0  0  0  0  0  0  0  0  0  0  0
   67.0363   31.0332   54.3241 H   0  0  0  0  0  0  0  0  0  0  0  0
  1  2  2  0
  2  3  1  0
  3  4  2  0
  4  9  1  0
  9 10  2  0
 10 11  1  0
 10 12  1  0
 12 13  1  0
 13 14  2  0
 13 15  1  0
 15 16  1  0
 16 17  2  0
  3  5  1  0
  5  6  2  0
  6  7  1  0
  6  8  1  0
  8 18  1  0
 18 19  2  0
 19 20  1  0
 20 21  2  0
 21 24  1  0
 24 25  2  0
 24 26  1  0
 26 27  1  0
 27 28  1  0
 28 29  1  0
 29 30  1  0
 30 31  1  0
 21 22  1  0
 22 23  2  0
  8  2  1  0
 23 18  1  0
 16  9  1  0
 31 26  1  0
 29 32  1  0
M  CHG 1  11  -1
M  CHG 1  12  -1
M  CHG 1  15  -1
M  END
> <UniqueID>
70

> <SMILES>
C=c1c(=Cc2c([O-])[n-]c(=S)[n-]c2=O)cc(C)n1-c1ccc(C(=O)N2CCNCC2)cc1

> <Energy>
107.20355322820804

> <Genealogy>
C=c1c(=Cc2c([O-])[n-]c(=S)[n-]c2=O)cc(C)n1-c1ccc(C(=O)N2CCNCC2)cc1 (protonated)
C=c1c(=Cc2c([O-])[n-]c(=S)[n-]c2=O)cc(C)n1-c1ccc(C(=O)N2CCNCC2)cc1 (3D coordinates assigned)
C=c1c(=Cc2c([O-])[n-]c(=S)[n-]c2=O)cc(C)n1-c1ccc(C(=O)N2CCNCC2)cc1 (nonaromatic ring conformer: 107.20355322820804 kcal/mol)

> <smiles>
C=c1c(=Cc2c(O)[nH]c(=S)[nH]c2=O)cc(C)n1-c1ccc(C(=O)N2CCNCC2)cc1

> <score_type>
oracle

> <origin>
adg

> <m_score__min__energy>
-15.59

> <m_primary>
energy

> <minimizedAffinity>
-7.74053

> <minimizedRMSD>
1.61199

> <CNNscore>
0.3578401804

> <CNNaffinity>
6.9890975952

> <CNN_VS>
2.5009799004

> <CNNaffinity_variance>
0.1051482037

$$$$
72:0


 33 36  0  0  0  0  0  0  0  0999 V2000
   59.6183   33.0079   48.6935 C   0  0  0  0  0  0  0  0  0  0  0  0
   60.1557   34.1184   48.4363 O   0  0  0  0  0  0  0  0  0  0  0  0
   59.3793   32.6404   50.0652 N   0  0  0  0  0  0  0  0  0  0  0  0
   60.2695   33.1587   51.1077 C   0  0  0  0  0  0  0  0  0  0  0  0
   59.9498   32.5549   52.4839 C   0  0  0  0  0  0  0  0  0  0  0  0
   59.5573   31.1304   52.4114 N   0  0  0  0  0  0  0  0  0  0  0  0
   58.5226   30.7714   51.4105 C   0  0  0  0  0  0  0  0  0  0  0  0
   58.1638   31.9257   50.4659 C   0  0  0  0  0  0  0  0  0  0  0  0
   59.7370   29.0915   45.7404 C   0  0  0  0  0  0  0  0  0  0  0  0
   59.4416   30.3070   46.2414 C   0  0  0  0  0  0  0  0  0  0  0  0
   59.8992   30.8328   47.4388 C   0  0  0  0  0  0  0  0  0  0  0  0
   59.3172   32.0765   47.5822 C   0  0  0  0  0  0  0  0  0  0  0  0
   58.5022   32.3375   46.5291 N   0  0  0  0  0  0  0  0  0  0  0  0
   57.7057   33.5540   46.3285 C   0  0  0  0  0  0  0  0  0  0  0  0
   58.5868   31.2680   45.6932 C   0  0  0  0  0  0  0  0  0  0  0  0
   57.9611   31.1842   44.5075 C   0  0  0  0  0  0  0  0  0  0  0  0
   56.7329   28.6950   45.0968 O   0  0  0  0  0  0  0  0  0  0  0  0
   57.5650   27.7373   45.6669 C   0  0  0  0  0  0  0  0  0  0  0  0
   57.1445   26.5265   46.0672 N   0  0  0  0  0  0  0  0  0  0  0  0
   58.2590   25.9877   46.6054 C   0  0  0  0  0  0  0  0  0  0  0  0
   58.2803   24.8342   47.1065 O   0  0  0  0  0  0  0  0  0  0  0  0
   59.3479   26.7862   46.5708 N   0  0  0  0  0  0  0  0  0  0  0  0
   58.9041   27.8920   45.9495 C   0  0  0  0  0  0  0  0  0  0  0  0
   55.8302   28.4982   44.9408 H   0  0  0  0  0  0  0  0  0  0  0  0
   60.6653   30.1595   52.5420 C   0  0  0  0  0  0  0  0  0  0  0  0
   61.2538   29.6843   51.1910 C   0  0  0  0  0  0  0  0  0  0  0  0
   62.7714   29.8993   51.1069 C   0  0  0  0  0  0  0  0  0  0  0  0
   63.0845   31.3404   50.9782 N   0  0  0  0  0  0  0  0  0  0  0  0
   64.3069   31.7315   51.7253 C   0  0  0  0  0  0  0  0  0  0  0  0
   65.5096   31.9530   50.7910 C   0  0  0  0  0  0  0  0  0  0  0  0
   65.2839   32.9566   49.8107 O   0  0  0  0  0  0  0  0  0  0  0  0
   63.9306   33.0441   49.3814 C   0  0  0  0  0  0  0  0  0  0  0  0
   63.1390   31.7384   49.5550 C   0  0  0  0  0  0  0  0  0  0  0  0
 17 18  1  0
 18 19  1  0
 19 20  1  0
 20 21  2  0
 20 22  1  0
 22 23  1  0
 23  9  1  0
  9 10  2  0
 10 11  1  0
 11 12  2  0
 12  1  1  0
  1  2  2  0
  1  3  1  0
  3  4  1  0
  4  5  1  0
  5  6  1  0
  6 25  1  0
 25 26  1  0
 26 27  1  0
 27 28  1  0
 28 29  1  0
 29 30  1  0
 30 31  1  0
 31 32  1  0
 32 33  1  0
  6  7  1  0
  7  8  1  0
 12 13  1  0
 13 14  1  0
 13 15  1  0
 15 16  2  0
 23 18  2  0
 15 10  1  0
  8  3  1  0
 33 28  1  0
 17 24  1  0
M  CHG 1  19  -1
M  CHG 1  22  -1
M  END
> <UniqueID>
71

> <SMILES>
C=c1/c(=C/c2[n-]c(=O)[n-]c2O)cc(C(=O)N2CCN(CCCN3CCOCC3)CC2)n1C

> <Energy>
155.02454355994124

> <Genealogy>
C=c1c(=Cc2[n-]c(=O)[n-]c2O)cc(C(=O)N2CCN(CCCN3CCOCC3)CC2)n1C (protonated)
C=c1/c(=C/c2[n-]c(=O)[n-]c2O)cc(C(=O)N2CCN(CCCN3CCOCC3)CC2)n1C (cis-trans isomerization)
C=c1/c(=C/c2[n-]c(=O)[n-]c2O)cc(C(=O)N2CCN(CCCN3CCOCC3)CC2)n1C (3D coordinates assigned)
C=c1/c(=C/c2[n-]c(=O)[n-]c2O)cc(C(=O)N2CCN(CCCN3CCOCC3)CC2)n1C (nonaromatic ring conformer: 155.02454355994124 kcal/mol)

> <smiles>
C=c1c(=Cc2[nH]c(=O)[nH]c2O)cc(C(=O)N2CCN(CCCN3CCOCC3)CC2)n1C

> <score_type>
oracle

> <origin>
adg

> <m_score__min__energy>
-14.26

> <m_primary>
energy

> <minimizedAffinity>
-7.73001

> <minimizedRMSD>
2.13673

> <CNNscore>
0.3650979698

> <CNNaffinity>
6.5363178253

> <CNN_VS>
2.3863964081

> <CNNaffinity_variance>
0.3227130473

$$$$
81:0


 25 27  0  0  0  0  0  0  0  0999 V2000
   55.2972   28.6187   55.0420 C   0  0  0  0  0  0  0  0  0  0  0  0
   55.4837   29.5820   54.1248 C   0  0  0  0  0  0  0  0  0  0  0  0
   54.6287   29.9128   53.0606 C   0  0  0  0  0  0  0  0  0  0  0  0
   53.3709   29.5206   52.7796 C   0  0  0  0  0  0  0  0  0  0  0  0
   55.3311   30.7984   52.2626 C   0  0  0  0  0  0  0  0  0  0  0  0
   56.5496   31.0123   52.8733 C   0  0  0  0  0  0  0  0  0  0  0  0
   56.6312   30.3003   54.0240 N   0  0  0  0  0  0  0  0  0  0  0  0
   57.7481   30.2999   54.9771 C   0  0  0  0  0  0  0  0  0  0  0  0
   57.5978   31.8986   52.3285 C   0  0  0  0  0  0  0  0  0  0  0  0
   57.4191   33.1453   52.3718 O   0  0  0  0  0  0  0  0  0  0  0  0
   58.7976   31.3709   51.7341 N   0  0  0  0  0  0  0  0  0  0  0  0
   60.0284   32.1700   51.8079 C   0  0  0  0  0  0  0  0  0  0  0  0
   61.2302   31.3829   51.2817 C   0  0  0  0  0  0  0  0  0  0  0  0
   61.0852   29.9708   51.6772 N   0  0  0  0  0  0  0  0  0  0  0  0
   59.9959   29.3380   50.9040 C   0  0  0  0  0  0  0  0  0  0  0  0
   58.7282   30.2195   50.8219 C   0  0  0  0  0  0  0  0  0  0  0  0
   62.3507   29.2264   51.4964 C   0  0  0  0  0  0  0  0  0  0  0  0
   62.2672   27.8617   52.1754 C   0  0  0  0  0  0  0  0  0  0  0  0
   52.4826   30.1306   51.7792 C   0  0  0  0  0  0  0  0  0  0  0  0
   52.3443   29.6669   50.5261 N   0  0  0  0  0  0  0  0  0  0  0  0
   51.5519   30.5890   49.9370 C   0  0  0  0  0  0  0  0  0  0  0  0
   51.1765   30.4946   48.7395 O   0  0  0  0  0  0  0  0  0  0  0  0
   51.2027   31.6261   50.7286 N   0  0  0  0  0  0  0  0  0  0  0  0
   51.8120   31.3282   51.8875 C   0  0  0  0  0  0  0  0  0  0  0  0
   51.7797   32.1492   53.0088 O   0  0  0  0  0  0  0  0  0  0  0  0
  1  2  2  0
  2  3  1  0
  3  4  2  0
  4 19  1  0
 19 20  1  0
 20 21  1  0
 21 22  2  0
 21 23  1  0
 23 24  1  0
 24 25  1  0
  3  5  1  0
  5  6  2  0
  6  9  1  0
  9 10  2  0
  9 11  1  0
 11 12  1  0
 12 13  1  0
 13 14  1  0
 14 17  1  0
 17 18  1  0
 14 15  1  0
 15 16  1  0
  6  7  1  0
  7  8  1  0
  7  2  1  0
 24 19  2  0
 16 11  1  0
M  CHG 1  20  -1
M  CHG 1  23  -1
M  CHG 1  25  -1
M  END
> <UniqueID>
79

> <SMILES>
C=c1c(=Cc2[n-]c(=O)[n-]c2[O-])cc(C(=O)N2CCN(CC)CC2)n1C

> <Energy>
124.67776938259527

> <Genealogy>
C=c1c(=Cc2[n-]c(=O)[n-]c2[O-])cc(C(=O)N2CCN(CC)CC2)n1C (protonated)
C=c1c(=Cc2[n-]c(=O)[n-]c2[O-])cc(C(=O)N2CCN(CC)CC2)n1C (3D coordinates assigned)
C=c1c(=Cc2[n-]c(=O)[n-]c2[O-])cc(C(=O)N2CCN(CC)CC2)n1C (nonaromatic ring conformer: 124.67776938259527 kcal/mol)

> <smiles>
C=c1c(=Cc2[nH]c(=O)[nH]c2O)cc(C(=O)N2CCN(CC)CC2)n1C

> <score_type>
oracle

> <origin>
adg

> <m_score__min__energy>
-16.27

> <m_primary>
energy

> <minimizedAffinity>
-4.15796

> <minimizedRMSD>
1.55022

> <CNNscore>
0.0473221131

> <CNNaffinity>
3.8852341175

> <CNN_VS>
0.1838574857

> <CNNaffinity_variance>
0.7788283825

$$$$
84:0


 29 32  0  0  0  0  0  0  0  0999 V2000
   60.4252   28.3609   48.9223 C   0  0  0  0  0  0  0  0  0  0  0  0
   59.9919   29.1265   47.9047 C   0  0  0  0  0  0  0  0  0  0  0  0
   59.7881   28.6939   46.5909 C   0  0  0  0  0  0  0  0  0  0  0  0
   60.0351   27.4704   46.0814 C   0  0  0  0  0  0  0  0  0  0  0  0
   59.3216   29.7936   45.8887 C   0  0  0  0  0  0  0  0  0  0  0  0
   59.2459   30.8428   46.7850 C   0  0  0  0  0  0  0  0  0  0  0  0
   59.6590   30.4419   48.0163 N   0  0  0  0  0  0  0  0  0  0  0  0
   59.0145   26.4188   45.9305 C   0  0  0  0  0  0  0  0  0  0  0  0
   59.2604   25.1156   46.1487 N   0  0  0  0  0  0  0  0  0  0  0  0
   58.0514   24.5354   45.9829 C   0  0  0  0  0  0  0  0  0  0  0  0
   57.8726   23.2951   46.0952 O   0  0  0  0  0  0  0  0  0  0  0  0
   57.0462   25.3910   45.6983 N   0  0  0  0  0  0  0  0  0  0  0  0
   57.6679   26.5813   45.6813 C   0  0  0  0  0  0  0  0  0  0  0  0
   57.0092   27.7890   45.4887 O   0  0  0  0  0  0  0  0  0  0  0  0
   58.7774   32.2027   46.4227 C   0  0  0  0  0  0  0  0  0  0  0  0
   57.5397   32.4212   46.3068 O   0  0  0  0  0  0  0  0  0  0  0  0
   59.7374   33.2389   46.0986 N   0  0  0  0  0  0  0  0  0  0  0  0
   59.2211   34.1978   45.1145 C   0  0  0  0  0  0  0  0  0  0  0  0
   59.2906   35.3556   46.0958 C   0  0  0  0  0  0  0  0  0  0  0  0
   59.8299   34.3306   47.0807 C   0  0  0  0  0  0  0  0  0  0  0  0
   60.2869   33.6607   45.3990 H   0  0  0  0  0  0  0  0  0  0  0  0
   59.7665   31.2965   49.2117 C   0  0  0  0  0  0  0  0  0  0  0  0
   61.1644   31.8440   49.3842 C   0  0  0  0  0  0  0  0  0  0  0  0
   62.1006   31.7085   48.3423 C   0  0  0  0  0  0  0  0  0  0  0  0
   63.4064   32.1832   48.4983 C   0  0  0  0  0  0  0  0  0  0  0  0
   63.7953   32.7843   49.6976 C   0  0  0  0  0  0  0  0  0  0  0  0
   65.0623   33.2433   49.8467 F   0  0  0  0  0  0  0  0  0  0  0  0
   62.8798   32.9052   50.7460 C   0  0  0  0  0  0  0  0  0  0  0  0
   61.5731   32.4309   50.5950 C   0  0  0  0  0  0  0  0  0  0  0  0
  1  2  2  0
  2  3  1  0
  3  4  2  0
  4  8  1  0
  8  9  1  0
  9 10  1  0
 10 11  2  0
 10 12  1  0
 12 13  1  0
 13 14  1  0
  3  5  1  0
  5  6  2  0
  6 15  1  0
 15 16  2  0
 15 17  1  0
 17 18  1  0
 18 19  1  0
 19 20  1  0
  6  7  1  0
  7 22  1  0
 22 23  1  0
 23 24  2  0
 24 25  1  0
 25 26  2  0
 26 27  1  0
 26 28  1  0
 28 29  2  0
  7  2  1  0
 29 23  1  0
 13  8  2  0
 20 17  1  0
 17 21  1  0
M  CHG 1   9  -1
M  CHG 1  12  -1
M  CHG 1  14  -1
M  CHG 1  17   1
M  END
> <UniqueID>
82

> <SMILES>
C=c1/c(=C/c2[n-]c(=O)[n-]c2[O-])cc(C(=O)[NH+]2CCC2)n1Cc1ccc(F)cc1

> <Energy>
190.82601989499312

> <Genealogy>
C=c1c(=Cc2[n-]c(=O)[n-]c2[O-])cc(C(=O)[NH+]2CCC2)n1Cc1ccc(F)cc1 (protonated)
C=c1/c(=C/c2[n-]c(=O)[n-]c2[O-])cc(C(=O)[NH+]2CCC2)n1Cc1ccc(F)cc1 (cis-trans isomerization)
C=c1/c(=C/c2[n-]c(=O)[n-]c2[O-])cc(C(=O)[NH+]2CCC2)n1Cc1ccc(F)cc1 (3D coordinates assigned)
C=c1/c(=C/c2[n-]c(=O)[n-]c2[O-])cc(C(=O)[NH+]2CCC2)n1Cc1ccc(F)cc1 (nonaromatic ring conformer: 190.82601989499312 kcal/mol)

> <smiles>
C=c1c(=Cc2[nH]c(=O)[nH]c2O)cc(C(=O)N2CCC2)n1Cc1ccc(F)cc1

> <score_type>
oracle

> <origin>
adg

> <m_score__min__energy>
-15.130000000000001

> <m_primary>
energy

> <minimizedAffinity>
-8.20994

> <minimizedRMSD>
1.58763

> <CNNscore>
0.1990121156

> <CNNaffinity>
6.4640173912

> <CNN_VS>
1.2864177227

> <CNNaffinity_variance>
0.1700368077

$$$$
86:0


 33 37  0  0  0  0  0  0  0  0999 V2000
   60.3553   27.6393   48.9735 C   0  0  0  0  0  0  0  0  0  0  0  0
   60.4764   28.7732   48.2632 C   0  0  0  0  0  0  0  0  0  0  0  0
   60.3194   28.9192   46.8755 C   0  0  0  0  0  0  0  0  0  0  0  0
   59.8482   28.0706   45.9419 C   0  0  0  0  0  0  0  0  0  0  0  0
   60.7408   30.2019   46.5730 C   0  0  0  0  0  0  0  0  0  0  0  0
   61.0737   30.8108   47.7649 C   0  0  0  0  0  0  0  0  0  0  0  0
   60.9138   29.9457   48.7974 N   0  0  0  0  0  0  0  0  0  0  0  0
   61.5572   32.2044   47.8718 C   0  0  0  0  0  0  0  0  0  0  0  0
   62.7691   32.4130   48.1548 O   0  0  0  0  0  0  0  0  0  0  0  0
   60.6761   33.3238   47.6321 N   0  0  0  0  0  0  0  0  0  0  0  0
   59.5527   33.5600   48.5480 C   0  0  0  0  0  0  0  0  0  0  0  0
   58.3346   32.7416   48.1149 C   0  0  0  0  0  0  0  0  0  0  0  0
   57.7112   33.2251   46.8022 C   0  0  0  0  0  0  0  0  0  0  0  0
   58.6821   33.1822   45.6866 N   0  0  0  0  0  0  0  0  0  0  0  0
   59.5660   34.3721   45.6250 C   0  0  0  0  0  0  0  0  0  0  0  0
   60.8569   34.1430   46.4211 C   0  0  0  0  0  0  0  0  0  0  0  0
   58.1246   32.7983   44.3599 C   0  0  0  0  0  0  0  0  0  0  0  0
   58.2582   31.3450   43.8793 C   0  0  0  0  0  0  0  0  0  0  0  0
   56.9252   31.8479   44.3923 C   0  0  0  0  0  0  0  0  0  0  0  0
   58.7291   27.1313   46.1240 C   0  0  0  0  0  0  0  0  0  0  0  0
   58.8209   25.9443   46.7529 N   0  0  0  0  0  0  0  0  0  0  0  0
   57.5408   25.5197   46.8042 C   0  0  0  0  0  0  0  0  0  0  0  0
   57.2121   24.4171   47.3130 O   0  0  0  0  0  0  0  0  0  0  0  0
   56.6381   26.3735   46.2731 N   0  0  0  0  0  0  0  0  0  0  0  0
   57.4071   27.3936   45.8623 C   0  0  0  0  0  0  0  0  0  0  0  0
   56.9103   28.5461   45.2631 O   0  0  0  0  0  0  0  0  0  0  0  0
   61.1665   30.2269   50.2195 C   0  0  0  0  0  0  0  0  0  0  0  0
   59.9834   30.9068   50.8693 C   0  0  0  0  0  0  0  0  0  0  0  0
   58.7089   30.3137   50.8564 C   0  0  0  0  0  0  0  0  0  0  0  0
   57.6300   30.9441   51.4832 C   0  0  0  0  0  0  0  0  0  0  0  0
   57.8153   32.1638   52.1388 C   0  0  0  0  0  0  0  0  0  0  0  0
   59.0807   32.7543   52.1702 C   0  0  0  0  0  0  0  0  0  0  0  0
   60.1624   32.1278   51.5446 C   0  0  0  0  0  0  0  0  0  0  0  0
  1  2  2  0
  2  3  1  0
  3  4  2  0
  4 20  1  0
 20 21  1  0
 21 22  1  0
 22 23  2  0
 22 24  1  0
 24 25  1  0
 25 26  1  0
  3  5  1  0
  5  6  2  0
  6  8  1  0
  8  9  2  0
  8 10  1  0
 10 11  1  0
 11 12  1  0
 12 13  1  0
 13 14  1  0
 14 17  1  0
 17 18  1  0
 18 19  1  0
 14 15  1  0
 15 16  1  0
  6  7  1  0
  7 27  1  0
 27 28  1  0
 28 29  2  0
 29 30  1  0
 30 31  2  0
 31 32  1  0
 32 33  2  0
  7  2  1  0
 33 28  1  0
 25 20  2  0
 16 10  1  0
 19 17  1  0
M  CHG 1  21  -1
M  CHG 1  24  -1
M  CHG 1  26  -1
M  END
> <UniqueID>
84

> <SMILES>
C=c1c(=Cc2[n-]c(=O)[n-]c2[O-])cc(C(=O)N2CCCN(C3CC3)CC2)n1Cc1ccccc1

> <Energy>
416.59614474331386

> <Genealogy>
C=c1c(=Cc2[n-]c(=O)[n-]c2[O-])cc(C(=O)N2CCCN(C3CC3)CC2)n1Cc1ccccc1 (protonated)
C=c1c(=Cc2[n-]c(=O)[n-]c2[O-])cc(C(=O)N2CCCN(C3CC3)CC2)n1Cc1ccccc1 (3D coordinates assigned)
C=c1c(=Cc2[n-]c(=O)[n-]c2[O-])cc(C(=O)N2CCCN(C3CC3)CC2)n1Cc1ccccc1 (nonaromatic ring conformer: 416.59614474331386 kcal/mol)

> <smiles>
C=c1c(=Cc2[nH]c(=O)[nH]c2O)cc(C(=O)N2CCCN(C3CC3)CC2)n1Cc1ccccc1

> <score_type>
oracle

> <origin>
adg

> <m_score__min__energy>
-14.4

> <m_primary>
energy

> <minimizedAffinity>
-7.74417

> <minimizedRMSD>
1.14985

> <CNNscore>
0.1939223260

> <CNNaffinity>
6.6998362541

> <CNN_VS>
1.2992478609

> <CNNaffinity_variance>
0.4072629511

$$$$
90:0


 36 39  0  0  0  0  0  0  0  0999 V2000
   56.5092   21.8907   47.5447 C   0  0  0  0  0  0  0  0  0  0  0  0
   53.8325   21.5297   50.2380 C   0  0  0  0  0  0  0  0  0  0  0  0
   52.6680   21.7452   49.4825 C   0  0  0  0  0  0  0  0  0  0  0  0
   52.7497   21.9875   48.1094 C   0  0  0  0  0  0  0  0  0  0  0  0
   53.9938   22.0232   47.4757 C   0  0  0  0  0  0  0  0  0  0  0  0
   55.1681   21.8087   48.2143 C   0  0  0  0  0  0  0  0  0  0  0  0
   55.0829   21.5797   49.5968 C   0  0  0  0  0  0  0  0  0  0  0  0
   53.3918   27.3162   53.8973 C   0  0  0  0  0  0  0  0  0  0  0  0
   53.5367   26.0436   54.6783 C   0  0  0  0  0  0  0  0  0  0  0  0
   53.8598   26.1189   55.8945 O   0  0  0  0  0  0  0  0  0  0  0  0
   53.2973   24.7553   54.0698 N   0  0  0  0  0  0  0  0  0  0  0  0
   52.6170   24.6749   52.7645 C   0  0  0  0  0  0  0  0  0  0  0  0
   52.2814   23.2295   52.3845 C   0  0  0  0  0  0  0  0  0  0  0  0
   53.4469   22.3678   52.6127 N   0  0  0  0  0  0  0  0  0  0  0  0
   53.7530   21.2970   51.6990 C   0  0  0  0  0  0  0  0  0  0  0  0
   53.9707   20.1413   52.1529 O   0  0  0  0  0  0  0  0  0  0  0  0
   54.1903   22.4574   53.8771 C   0  0  0  0  0  0  0  0  0  0  0  0
   53.6003   23.5220   54.8126 C   0  0  0  0  0  0  0  0  0  0  0  0
   56.9304   23.2837   47.4778 N   0  0  0  0  0  0  0  0  0  0  0  0
   57.6749   23.8424   46.3906 C   0  0  0  0  0  0  0  0  0  0  0  0
   58.4034   23.0874   45.6944 O   0  0  0  0  0  0  0  0  0  0  0  0
   57.6297   25.2853   46.0826 C   0  0  0  0  0  0  0  0  0  0  0  0
   56.4036   25.9348   45.8216 C   0  0  0  0  0  0  0  0  0  0  0  0
   55.1918   25.2404   45.8062 O   0  0  0  0  0  0  0  0  0  0  0  0
   56.3876   27.2675   45.5609 N   0  0  0  0  0  0  0  0  0  0  0  0
   57.5198   28.0175   45.5263 C   0  0  0  0  0  0  0  0  0  0  0  0
   57.4420   29.3924   45.2525 C   0  0  0  0  0  0  0  0  0  0  0  0
   56.2045   29.9864   45.0225 O   0  0  0  0  0  0  0  0  0  0  0  0
   58.6104   30.1641   45.2103 C   0  0  0  0  0  0  0  0  0  0  0  0
   58.5304   31.8855   44.8648 Cl  0  0  0  0  0  0  0  0  0  0  0  0
   59.8526   29.5666   45.4402 C   0  0  0  0  0  0  0  0  0  0  0  0
   59.9388   28.1990   45.7139 C   0  0  0  0  0  0  0  0  0  0  0  0
   58.7744   27.4121   45.7610 C   0  0  0  0  0  0  0  0  0  0  0  0
   58.8213   26.0326   46.0392 C   0  0  0  0  0  0  0  0  0  0  0  0
   59.9265   25.4641   46.2578 O   0  0  0  0  0  0  0  0  0  0  0  0
   55.1768   24.3203   45.9829 H   0  0  0  0  0  0  0  0  0  0  0  0
  8  9  1  0
  9 10  2  0
  9 11  1  0
 11 12  1  0
 12 13  1  0
 13 14  1  0
 14 15  1  0
 15 16  2  0
 15  2  1  0
  2  3  2  0
  3  4  1  0
  4  5  2  0
  5  6  1  0
  6  1  1  0
  1 19  1  0
 19 20  1  0
 20 21  2  0
 20 22  1  0
 22 23  2  0
 23 24  1  0
 23 25  1  0
 25 26  1  0
 26 27  2  0
 27 28  1  0
 27 29  1  0
 29 30  1  0
 29 31  2  0
 31 32  1  0
 32 33  2  0
 33 34  1  0
 34 35  2  0
  6  7  2  0
 14 17  1  0
 17 18  1  0
 18 11  1  0
  7  2  1  0
 34 22  1  0
 33 26  1  0
 24 36  1  0
M  CHG 1  19  -1
M  CHG 1  25  -1
M  CHG 1  28  -1
M  END
> <UniqueID>
88

> <SMILES>
CC(=O)N1CCN(C(=O)c2cccc(C[N-]C(=O)c3c(O)[n-]c4c([O-])c(Cl)ccc4c3=O)c2)CC1

> <Energy>
73.68593822658043

> <Genealogy>
CC(=O)N1CCN(C(=O)c2cccc(C[N-]C(=O)c3c(O)[n-]c4c([O-])c(Cl)ccc4c3=O)c2)CC1 (protonated)
CC(=O)N1CCN(C(=O)c2cccc(C[N-]C(=O)c3c(O)[n-]c4c([O-])c(Cl)ccc4c3=O)c2)CC1 (3D coordinates assigned)
CC(=O)N1CCN(C(=O)c2cccc(C[N-]C(=O)c3c(O)[n-]c4c([O-])c(Cl)ccc4c3=O)c2)CC1 (nonaromatic ring conformer: 73.68593822658043 kcal/mol)

> <smiles>
CC(=O)N1CCN(C(=O)c2cccc(CNC(=O)c3c(O)[nH]c4c(O)c(Cl)ccc4c3=O)c2)CC1

> <score_type>
oracle

> <origin>
adg

> <m_score__min__energy>
-16.25

> <m_primary>
energy

> <minimizedAffinity>
-6.64514

> <minimizedRMSD>
1.09364

> <CNNscore>
0.4118362367

> <CNNaffinity>
5.9339871407

> <CNN_VS>
2.4438309669

> <CNNaffinity_variance>
0.0453217030

$$$$
2:0


 24 26  0  0  0  0  0  0  0  0999 V2000
   54.1336   27.6789   53.8739 C   0  0  0  0  0  0  0  0  0  0  0  0
   54.8885   28.6084   53.2702 C   0  0  0  0  0  0  0  0  0  0  0  0
   56.2322   28.5274   53.4737 N   0  0  0  0  0  0  0  0  0  0  0  0
   57.0987   29.4942   53.0857 C   0  0  0  0  0  0  0  0  0  0  0  0
   56.6250   30.6632   52.4853 C   0  0  0  0  0  0  0  0  0  0  0  0
   55.2480   30.7815   52.2513 C   0  0  0  0  0  0  0  0  0  0  0  0
   54.3602   29.7280   52.5521 C   0  0  0  0  0  0  0  0  0  0  0  0
   53.0814   29.8563   52.1159 C   0  0  0  0  0  0  0  0  0  0  0  0
   52.0716   30.7975   52.6345 C   0  0  0  0  0  0  0  0  0  0  0  0
   51.7467   30.8939   53.9362 N   0  0  0  0  0  0  0  0  0  0  0  0
   50.8848   31.9341   53.9674 C   0  0  0  0  0  0  0  0  0  0  0  0
   50.3394   32.3287   55.0320 O   0  0  0  0  0  0  0  0  0  0  0  0
   50.6620   32.5228   52.7732 N   0  0  0  0  0  0  0  0  0  0  0  0
   51.4311   31.8019   51.9422 C   0  0  0  0  0  0  0  0  0  0  0  0
   51.5669   32.0770   50.5873 O   0  0  0  0  0  0  0  0  0  0  0  0
   57.5660   31.7447   52.1011 C   0  0  0  0  0  0  0  0  0  0  0  0
   57.3223   32.9319   52.4486 O   0  0  0  0  0  0  0  0  0  0  0  0
   58.7129   31.4935   51.2747 N   0  0  0  0  0  0  0  0  0  0  0  0
   59.1231   32.2027   50.2583 C   0  0  0  0  0  0  0  0  0  0  0  0
   60.1570   33.1248   50.4609 C   0  0  0  0  0  0  0  0  0  0  0  0
   60.6168   33.8979   49.3912 C   0  0  0  0  0  0  0  0  0  0  0  0
   60.0720   33.7467   48.1566 N   0  0  0  0  0  0  0  0  0  0  0  0
   59.0781   32.8510   47.9211 C   0  0  0  0  0  0  0  0  0  0  0  0
   58.5881   32.0569   48.9614 C   0  0  0  0  0  0  0  0  0  0  0  0
  1  2  2  0
  2  3  1  0
  3  4  2  0
  4  5  1  0
  5 16  1  0
 16 17  2  0
 16 18  1  0
 18 19  2  0
 19 20  1  0
 20 21  2  0
 21 22  1  0
 22 23  1  0
 23 24  2  0
  5  6  2  0
  6  7  1  0
  7  8  2  0
  8  9  1  0
  9 10  1  0
 10 11  1  0
 11 12  2  0
 11 13  1  0
 13 14  1  0
 14 15  1  0
  7  2  1  0
 14  9  2  0
 24 19  1  0
M  CHG 1  10  -1
M  CHG 1  13  -1
M  CHG 1  15  -1
M  CHG 1  22  -1
M  END
> <UniqueID>
2

> <SMILES>
C=c1ncc(C(=O)N=c2cc[n-]cc2)cc1=Cc1[n-]c(=O)[n-]c1[O-]

> <Energy>
97.31767992623726

> <Genealogy>
C=c1ncc(C(=O)N=c2cc[n-]cc2)cc1=Cc1[n-]c(=O)[n-]c1[O-] (protonated)
C=c1ncc(C(=O)N=c2cc[n-]cc2)cc1=Cc1[n-]c(=O)[n-]c1[O-] (3D coordinates assigned)
C=c1ncc(C(=O)N=c2cc[n-]cc2)cc1=Cc1[n-]c(=O)[n-]c1[O-] (optimized conformer: 97.31767992623726 kcal/mol)

> <smiles>
C=c1ncc(C(=O)N=c2cc[nH]cc2)cc1=Cc1[nH]c(=O)[nH]c1O

> <score_type>
oracle

> <origin>
adg

> <m_score__min__energy>
-17.16

> <m_primary>
energy

> <minimizedAffinity>
-6.52573

> <minimizedRMSD>
0.66953

> <CNNscore>
0.4132492244

> <CNNaffinity>
5.3098449707

> <CNN_VS>
2.1942892075

> <CNNaffinity_variance>
0.2188920379

$$$$
10:0


 33 36  0  0  0  0  0  0  0  0999 V2000
   60.6267   28.6932   44.7220 C   0  0  0  0  0  0  0  0  0  0  0  0
   60.0165   28.6843   45.9192 C   0  0  0  0  0  0  0  0  0  0  0  0
   58.8680   27.9464   46.2472 C   0  0  0  0  0  0  0  0  0  0  0  0
   58.0770   27.2505   45.4032 C   0  0  0  0  0  0  0  0  0  0  0  0
   58.6619   28.1461   47.6018 C   0  0  0  0  0  0  0  0  0  0  0  0
   59.6532   28.9993   48.0403 C   0  0  0  0  0  0  0  0  0  0  0  0
   60.4506   29.3810   47.0053 N   0  0  0  0  0  0  0  0  0  0  0  0
   57.5757   25.8772   45.6540 C   0  0  0  0  0  0  0  0  0  0  0  0
   58.3348   24.7668   45.7170 N   0  0  0  0  0  0  0  0  0  0  0  0
   57.4882   23.8262   46.1822 C   0  0  0  0  0  0  0  0  0  0  0  0
   57.8577   22.6513   46.4357 O   0  0  0  0  0  0  0  0  0  0  0  0
   56.2336   24.2642   46.4301 N   0  0  0  0  0  0  0  0  0  0  0  0
   56.3055   25.5619   46.0834 C   0  0  0  0  0  0  0  0  0  0  0  0
   55.2424   26.4497   46.2002 O   0  0  0  0  0  0  0  0  0  0  0  0
   59.7919   29.3758   49.4683 C   0  0  0  0  0  0  0  0  0  0  0  0
   60.9494   29.3111   49.9750 O   0  0  0  0  0  0  0  0  0  0  0  0
   58.6682   29.7785   50.3006 N   0  0  0  0  0  0  0  0  0  0  0  0
   59.0188   29.8650   51.7296 C   0  0  0  0  0  0  0  0  0  0  0  0
   58.8087   31.3675   51.7759 C   0  0  0  0  0  0  0  0  0  0  0  0
   58.3992   31.2299   50.3231 C   0  0  0  0  0  0  0  0  0  0  0  0
   58.8581   28.9511   49.8019 H   0  0  0  0  0  0  0  0  0  0  0  0
   61.3549   30.5456   47.0014 C   0  0  0  0  0  0  0  0  0  0  0  0
   60.6091   31.8075   47.3893 C   0  0  0  0  0  0  0  0  0  0  0  0
   61.1141   32.6063   48.4346 C   0  0  0  0  0  0  0  0  0  0  0  0
   60.4533   33.7685   48.8283 C   0  0  0  0  0  0  0  0  0  0  0  0
   59.2880   34.1605   48.1722 C   0  0  0  0  0  0  0  0  0  0  0  0
   58.7774   33.3941   47.1243 C   0  0  0  0  0  0  0  0  0  0  0  0
   59.4159   32.2000   46.7311 C   0  0  0  0  0  0  0  0  0  0  0  0
   58.9059   31.3987   45.6917 O   0  0  0  0  0  0  0  0  0  0  0  0
   57.6813   31.6260   44.9931 C   0  0  0  0  0  0  0  0  0  0  0  0
   57.6611   30.9252   43.6131 C   0  0  0  0  0  0  0  0  0  0  0  0
   57.7005   31.9474   42.4696 C   0  0  0  0  0  0  0  0  0  0  0  0
   56.4102   30.0444   43.4917 C   0  0  0  0  0  0  0  0  0  0  0  0
  1  2  2  0
  2  3  1  0
  3  4  2  0
  4  8  1  0
  8  9  1  0
  9 10  1  0
 10 11  2  0
 10 12  1  0
 12 13  1  0
 13 14  1  0
  3  5  1  0
  5  6  2  0
  6 15  1  0
 15 16  2  0
 15 17  1  0
 17 18  1  0
 18 19  1  0
 19 20  1  0
  6  7  1  0
  7 22  1  0
 22 23  1  0
 23 24  2  0
 24 25  1  0
 25 26  2  0
 26 27  1  0
 27 28  2  0
 28 29  1  0
 29 30  1  0
 30 31  1  0
 31 32  1  0
 31 33  1  0
  7  2  1  0
 28 23  1  0
 13  8  2  0
 20 17  1  0
 17 21  1  0
M  CHG 1   9  -1
M  CHG 1  12  -1
M  CHG 1  14  -1
M  CHG 1  17   1
M  END
> <UniqueID>
9

> <SMILES>
C=c1/c(=C/c2[n-]c(=O)[n-]c2[O-])cc(C(=O)[NH+]2CCC2)n1Cc1ccccc1OCC(C)C

> <Energy>
203.21080518752265

> <Genealogy>
C=c1c(=Cc2[n-]c(=O)[n-]c2[O-])cc(C(=O)[NH+]2CCC2)n1Cc1ccccc1OCC(C)C (protonated)
C=c1/c(=C/c2[n-]c(=O)[n-]c2[O-])cc(C(=O)[NH+]2CCC2)n1Cc1ccccc1OCC(C)C (cis-trans isomerization)
C=c1/c(=C/c2[n-]c(=O)[n-]c2[O-])cc(C(=O)[NH+]2CCC2)n1Cc1ccccc1OCC(C)C (3D coordinates assigned)
C=c1/c(=C/c2[n-]c(=O)[n-]c2[O-])cc(C(=O)[NH+]2CCC2)n1Cc1ccccc1OCC(C)C (nonaromatic ring conformer: 203.21080518752265 kcal/mol)

> <smiles>
C=c1c(=Cc2[nH]c(=O)[nH]c2O)cc(C(=O)N2CCC2)n1Cc1ccccc1OCC(C)C

> <score_type>
oracle

> <origin>
adg

> <m_score__min__energy>
-14.779999999999999

> <m_primary>
energy

> <minimizedAffinity>
-7.36853

> <minimizedRMSD>
0.90945

> <CNNscore>
0.1843695343

> <CNNaffinity>
6.6349844933

> <CNN_VS>
1.2232890129

> <CNNaffinity_variance>
0.0634090230

$$$$
24:0


 30 33  0  0  0  0  0  0  0  0999 V2000
   60.6533   27.0820   46.4871 C   0  0  0  0  0  0  0  0  0  0  0  0
   59.6046   27.7293   45.9523 C   0  0  0  0  0  0  0  0  0  0  0  0
   58.5395   27.1515   45.2420 C   0  0  0  0  0  0  0  0  0  0  0  0
   58.1789   25.8646   45.0759 C   0  0  0  0  0  0  0  0  0  0  0  0
   57.8336   28.2014   44.6838 C   0  0  0  0  0  0  0  0  0  0  0  0
   58.4379   29.3668   45.1095 C   0  0  0  0  0  0  0  0  0  0  0  0
   59.5032   29.0862   45.8996 N   0  0  0  0  0  0  0  0  0  0  0  0
   57.3844   25.0647   46.0207 C   0  0  0  0  0  0  0  0  0  0  0  0
   57.8058   23.9001   46.5443 N   0  0  0  0  0  0  0  0  0  0  0  0
   56.7311   23.4650   47.2381 C   0  0  0  0  0  0  0  0  0  0  0  0
   56.7397   22.3915   47.8957 O   0  0  0  0  0  0  0  0  0  0  0  0
   55.6454   24.2628   47.1645 N   0  0  0  0  0  0  0  0  0  0  0  0
   56.0695   25.2640   46.3761 C   0  0  0  0  0  0  0  0  0  0  0  0
   55.2673   26.3262   45.9693 O   0  0  0  0  0  0  0  0  0  0  0  0
   54.3790   26.3813   46.2621 H   0  0  0  0  0  0  0  0  0  0  0  0
   57.9931   30.7184   44.7227 C   0  0  0  0  0  0  0  0  0  0  0  0
   56.8458   31.1284   45.0452 O   0  0  0  0  0  0  0  0  0  0  0  0
   60.4354   30.0767   46.4643 C   0  0  0  0  0  0  0  0  0  0  0  0
   59.8192   30.7419   47.6548 C   0  0  0  0  0  0  0  0  0  0  0  0
   59.9949   30.3949   48.9741 C   0  0  0  0  0  0  0  0  0  0  0  0
   59.3491   31.3271   49.6981 N   0  0  0  0  0  0  0  0  0  0  0  0
   58.8286   32.2117   48.8598 N   0  0  0  0  0  0  0  0  0  0  0  0
   59.0985   31.8794   47.6058 N   0  0  0  0  0  0  0  0  0  0  0  0
   59.3144   31.4734   51.1578 C   0  0  0  0  0  0  0  0  0  0  0  0
   58.2179   32.4681   51.6137 C   0  0  0  0  0  0  0  0  0  0  0  0
   57.2374   31.8448   52.6186 C   0  0  0  0  0  0  0  0  0  0  0  0
   56.7062   30.5709   52.1174 N   0  0  0  0  0  0  0  0  0  0  0  0
   57.7419   29.5571   51.8229 C   0  0  0  0  0  0  0  0  0  0  0  0
   59.1878   30.0942   51.8345 C   0  0  0  0  0  0  0  0  0  0  0  0
   56.1866   30.7562   51.2595 H   0  0  0  0  0  0  0  0  0  0  0  0
  1  2  2  0
  2  3  1  0
  3  4  2  0
  4  8  1  0
  8  9  1  0
  9 10  1  0
 10 11  2  0
 10 12  1  0
 12 13  1  0
 13 14  1  0
  3  5  1  0
  5  6  2  0
  6 16  1  0
 16 17  2  0
  6  7  1  0
  7 18  1  0
 18 19  1  0
 19 20  2  0
 20 21  1  0
 21 24  1  0
 24 25  1  0
 25 26  1  0
 26 27  1  0
 27 28  1  0
 28 29  1  0
 21 22  1  0
 22 23  2  0
  7  2  1  0
 23 19  1  0
 13  8  2  0
 29 24  1  0
 14 15  1  0
 27 30  1  0
M  CHG 1   9  -1
M  CHG 1  12  -1
M  END
> <UniqueID>
23

> <SMILES>
C=c1c(=Cc2[n-]c(=O)[n-]c2O)cc(C=O)n1Cc1cn(C2CCNCC2)nn1

> <Energy>
159.25233298279656

> <Genealogy>
C=c1c(=Cc2[n-]c(=O)[n-]c2O)cc(C=O)n1Cc1cn(C2CCNCC2)nn1 (protonated)
C=c1c(=Cc2[n-]c(=O)[n-]c2O)cc(C=O)n1Cc1cn(C2CCNCC2)nn1 (3D coordinates assigned)
C=c1c(=Cc2[n-]c(=O)[n-]c2O)cc(C=O)n1Cc1cn(C2CCNCC2)nn1 (nonaromatic ring conformer: 159.25233298279656 kcal/mol)

> <smiles>
C=c1c(=Cc2[nH]c(=O)[nH]c2O)cc(C=O)n1Cc1cn(C2CCNCC2)nn1

> <score_type>
oracle

> <origin>
adg

> <m_score__min__energy>
-14.18

> <m_primary>
energy

> <minimizedAffinity>
-7.89580

> <minimizedRMSD>
0.74061

> <CNNscore>
0.1467751265

> <CNNaffinity>
6.0898947716

> <CNN_VS>
0.8938450813

> <CNNaffinity_variance>
0.1221532449

$$$$
42:0


 33 37  0  0  0  0  0  0  0  0999 V2000
   58.9832   27.5757   47.3058 C   0  0  0  0  0  0  0  0  0  0  0  0
   58.4998   28.8897   47.3277 C   0  0  0  0  0  0  0  0  0  0  0  0
   59.0504   29.8091   48.2192 C   0  0  0  0  0  0  0  0  0  0  0  0
   60.0758   29.4183   49.0916 C   0  0  0  0  0  0  0  0  0  0  0  0
   60.5392   28.0945   49.0290 C   0  0  0  0  0  0  0  0  0  0  0  0
   59.9917   27.2120   48.1496 N   0  0  0  0  0  0  0  0  0  0  0  0
   60.3316   26.2885   48.1216 H   0  0  0  0  0  0  0  0  0  0  0  0
   57.9036   24.8368   47.8220 C   0  0  0  0  0  0  0  0  0  0  0  0
   57.9434   25.4023   46.6035 C   0  0  0  0  0  0  0  0  0  0  0  0
   57.4936   24.8281   45.4083 C   0  0  0  0  0  0  0  0  0  0  0  0
   56.9421   23.6103   45.2430 C   0  0  0  0  0  0  0  0  0  0  0  0
   57.7757   25.7477   44.4074 C   0  0  0  0  0  0  0  0  0  0  0  0
   58.3524   26.8401   45.0202 C   0  0  0  0  0  0  0  0  0  0  0  0
   58.8154   28.0721   44.3025 C   0  0  0  0  0  0  0  0  0  0  0  0
   58.4610   26.6317   46.3520 N   0  0  0  0  0  0  0  0  0  0  0  0
   55.5111   23.3197   45.4432 C   0  0  0  0  0  0  0  0  0  0  0  0
   55.0083   22.0735   45.4851 N   0  0  0  0  0  0  0  0  0  0  0  0
   53.7025   22.2697   45.7726 C   0  0  0  0  0  0  0  0  0  0  0  0
   52.8827   21.3228   45.8841 O   0  0  0  0  0  0  0  0  0  0  0  0
   53.3485   23.5618   45.9442 N   0  0  0  0  0  0  0  0  0  0  0  0
   54.5059   24.2135   45.7453 C   0  0  0  0  0  0  0  0  0  0  0  0
   54.6464   25.5885   45.8908 O   0  0  0  0  0  0  0  0  0  0  0  0
   60.6918   30.4046   50.0106 C   0  0  0  0  0  0  0  0  0  0  0  0
   60.6113   30.2123   51.2560 O   0  0  0  0  0  0  0  0  0  0  0  0
   61.3689   31.5789   49.5227 N   0  0  0  0  0  0  0  0  0  0  0  0
   62.1948   31.5406   48.3129 C   0  0  0  0  0  0  0  0  0  0  0  0
   63.5820   32.1332   48.6076 C   0  0  0  0  0  0  0  0  0  0  0  0
   63.5521   33.4059   49.3790 N   0  0  0  0  0  0  0  0  0  0  0  0
   62.1951   33.9063   49.6869 C   0  0  0  0  0  0  0  0  0  0  0  0
   61.3050   32.8170   50.3045 C   0  0  0  0  0  0  0  0  0  0  0  0
   64.3544   33.2955   50.6100 C   0  0  0  0  0  0  0  0  0  0  0  0
   64.9293   31.9061   50.8230 C   0  0  0  0  0  0  0  0  0  0  0  0
   65.8336   33.0384   50.3660 C   0  0  0  0  0  0  0  0  0  0  0  0
  8  9  2  0
  9 10  1  0
 10 11  2  0
 11 16  1  0
 16 17  1  0
 17 18  1  0
 18 19  2  0
 18 20  1  0
 20 21  1  0
 21 22  1  0
 10 12  1  0
 12 13  2  0
 13 14  1  0
 13 15  1  0
 15  1  1  0
  1  2  2  0
  2  3  1  0
  3  4  2  0
  4 23  1  0
 23 24  2  0
 23 25  1  0
 25 26  1  0
 26 27  1  0
 27 28  1  0
 28 31  1  0
 31 32  1  0
 32 33  1  0
 28 29  1  0
 29 30  1  0
  4  5  1  0
  5  6  2  0
 15  9  1  0
  6  1  1  0
 21 16  2  0
 30 25  1  0
 33 31  1  0
  6  7  1  0
M  CHG 1   6   1
M  CHG 1  17  -1
M  CHG 1  20  -1
M  CHG 1  22  -1
M  END
> <UniqueID>
38

> <SMILES>
C=c1c(=Cc2[n-]c(=O)[n-]c2[O-])cc(C)n1-c1ccc(C(=O)N2CCN(C3CC3)CC2)c[nH+]1

> <Energy>
406.3801462545905

> <Genealogy>
C=c1c(=Cc2[n-]c(=O)[n-]c2[O-])cc(C)n1-c1ccc(C(=O)N2CCN(C3CC3)CC2)c[nH+]1 (protonated)
C=c1c(=Cc2[n-]c(=O)[n-]c2[O-])cc(C)n1-c1ccc(C(=O)N2CCN(C3CC3)CC2)c[nH+]1 (3D coordinates assigned)
C=c1c(=Cc2[n-]c(=O)[n-]c2[O-])cc(C)n1-c1ccc(C(=O)N2CCN(C3CC3)CC2)c[nH+]1 (nonaromatic ring conformer: 406.3801462545905 kcal/mol)

> <smiles>
C=c1c(=Cc2[nH]c(=O)[nH]c2O)cc(C)n1-c1ccc(C(=O)N2CCN(C3CC3)CC2)cn1

> <score_type>
oracle

> <origin>
adg

> <m_score__min__energy>
-15.33

> <m_primary>
energy

> <minimizedAffinity>
-7.31654

> <minimizedRMSD>
0.71952

> <CNNscore>
0.0362954289

> <CNNaffinity>
4.8825988770

> <CNN_VS>
0.1772160232

> <CNNaffinity_variance>
0.9778605103

$$$$
64:0


 32 35  0  0  0  0  0  0  0  0999 V2000
   59.4117   24.0928   46.1295 C   0  0  0  0  0  0  0  0  0  0  0  0
   58.8544   25.2499   45.7340 C   0  0  0  0  0  0  0  0  0  0  0  0
   57.7569   25.4174   44.8695 C   0  0  0  0  0  0  0  0  0  0  0  0
   56.9001   24.5221   44.3385 C   0  0  0  0  0  0  0  0  0  0  0  0
   57.6720   26.7757   44.6132 C   0  0  0  0  0  0  0  0  0  0  0  0
   58.6713   27.3887   45.3406 C   0  0  0  0  0  0  0  0  0  0  0  0
   59.3795   26.4687   46.0377 N   0  0  0  0  0  0  0  0  0  0  0  0
   60.6011   26.7193   46.8157 C   0  0  0  0  0  0  0  0  0  0  0  0
   55.7583   23.9095   45.0317 C   0  0  0  0  0  0  0  0  0  0  0  0
   55.4899   22.5917   45.0039 N   0  0  0  0  0  0  0  0  0  0  0  0
   54.3284   22.4966   45.6835 C   0  0  0  0  0  0  0  0  0  0  0  0
   53.7529   21.3967   45.8877 O   0  0  0  0  0  0  0  0  0  0  0  0
   53.8284   23.6743   46.1198 N   0  0  0  0  0  0  0  0  0  0  0  0
   54.7371   24.5633   45.6896 C   0  0  0  0  0  0  0  0  0  0  0  0
   54.6174   25.9396   45.8781 O   0  0  0  0  0  0  0  0  0  0  0  0
   53.8809   26.2867   46.3418 H   0  0  0  0  0  0  0  0  0  0  0  0
   58.9074   28.8438   45.3567 C   0  0  0  0  0  0  0  0  0  0  0  0
   60.0345   29.2908   45.0157 O   0  0  0  0  0  0  0  0  0  0  0  0
   57.8946   29.7641   45.7827 N   0  0  0  0  0  0  0  0  0  0  0  0
   57.3905   30.8817   44.9875 C   0  0  0  0  0  0  0  0  0  0  0  0
   58.0629   32.1589   45.4078 C   0  0  0  0  0  0  0  0  0  0  0  0
   58.1834   33.2387   44.5190 C   0  0  0  0  0  0  0  0  0  0  0  0
   58.8757   34.3915   44.9012 C   0  0  0  0  0  0  0  0  0  0  0  0
   59.4458   34.4803   46.1726 C   0  0  0  0  0  0  0  0  0  0  0  0
   59.3313   33.4090   47.0720 C   0  0  0  0  0  0  0  0  0  0  0  0
   58.6398   32.2489   46.6829 C   0  0  0  0  0  0  0  0  0  0  0  0
   59.8900   33.5295   48.4663 C   0  0  0  0  0  0  0  0  0  0  0  0
   61.2249   32.9071   48.5425 N   0  0  0  0  0  0  0  0  0  0  0  0
   62.0590   33.2191   47.3790 C   0  0  0  0  0  0  0  0  0  0  0  0
   63.4980   33.0732   47.8378 C   0  0  0  0  0  0  0  0  0  0  0  0
   63.4623   33.3009   49.3397 C   0  0  0  0  0  0  0  0  0  0  0  0
   61.9833   33.3883   49.7041 C   0  0  0  0  0  0  0  0  0  0  0  0
  1  2  2  0
  2  3  1  0
  3  4  2  0
  4  9  1  0
  9 10  1  0
 10 11  1  0
 11 12  2  0
 11 13  1  0
 13 14  1  0
 14 15  1  0
  3  5  1  0
  5  6  2  0
  6 17  1  0
 17 18  2  0
 17 19  1  0
 19 20  1  0
 20 21  1  0
 21 22  2  0
 22 23  1  0
 23 24  2  0
 24 25  1  0
 25 27  1  0
 27 28  1  0
 28 29  1  0
 29 30  1  0
 30 31  1  0
 31 32  1  0
 25 26  2  0
  6  7  1  0
  7  8  1  0
  7  2  1  0
 14  9  2  0
 26 21  1  0
 32 28  1  0
 15 16  1  0
M  CHG 1  10  -1
M  CHG 1  13  -1
M  CHG 1  19  -1
M  END
> <UniqueID>
58

> <SMILES>
C=c1c(=Cc2[n-]c(=O)[n-]c2O)cc(C(=O)[N-]Cc2cccc(CN3CCCC3)c2)n1C

> <Energy>
130.77021571842369

> <Genealogy>
C=c1c(=Cc2[n-]c(=O)[n-]c2O)cc(C(=O)[N-]Cc2cccc(CN3CCCC3)c2)n1C (protonated)
C=c1c(=Cc2[n-]c(=O)[n-]c2O)cc(C(=O)[N-]Cc2cccc(CN3CCCC3)c2)n1C (3D coordinates assigned)
C=c1c(=Cc2[n-]c(=O)[n-]c2O)cc(C(=O)[N-]Cc2cccc(CN3CCCC3)c2)n1C (nonaromatic ring conformer: 130.77021571842369 kcal/mol)

> <smiles>
C=c1c(=Cc2[nH]c(=O)[nH]c2O)cc(C(=O)NCc2cccc(CN3CCCC3)c2)n1C

> <score_type>
oracle

> <origin>
adg

> <m_score__min__energy>
-15.19

> <m_primary>
energy

> <minimizedAffinity>
-8.63209

> <minimizedRMSD>
0.73070

> <CNNscore>
0.1849349439

> <CNNaffinity>
6.3739128113

> <CNN_VS>
1.1787592173

> <CNNaffinity_variance>
0.1604020745

$$$$
67:0


 31 33  0  0  0  0  0  0  0  0999 V2000
   60.7448   31.1983   49.1141 C   0  0  0  0  0  0  0  0  0  0  0  0
   59.8767   32.0804   49.7760 C   0  0  0  0  0  0  0  0  0  0  0  0
   59.3674   31.7540   51.0348 C   0  0  0  0  0  0  0  0  0  0  0  0
   59.7123   30.5432   51.6388 C   0  0  0  0  0  0  0  0  0  0  0  0
   60.5617   29.6423   50.9855 C   0  0  0  0  0  0  0  0  0  0  0  0
   61.1002   29.9880   49.7323 C   0  0  0  0  0  0  0  0  0  0  0  0
   61.3023   31.5645   47.7641 C   0  0  0  0  0  0  0  0  0  0  0  0
   60.9842   30.5612   46.7981 O   0  0  0  0  0  0  0  0  0  0  0  0
   57.9972   28.7216   45.5832 C   0  0  0  0  0  0  0  0  0  0  0  0
   59.2591   29.0212   46.1365 C   0  0  0  0  0  0  0  0  0  0  0  0
   59.7114   30.3401   46.2444 C   0  0  0  0  0  0  0  0  0  0  0  0
   58.8858   31.3870   45.8010 C   0  0  0  0  0  0  0  0  0  0  0  0
   57.6354   31.1098   45.2523 C   0  0  0  0  0  0  0  0  0  0  0  0
   57.1850   29.7906   45.1392 C   0  0  0  0  0  0  0  0  0  0  0  0
   55.9304   29.5655   44.5829 O   0  0  0  0  0  0  0  0  0  0  0  0
   56.2434   26.9057   45.8611 N   0  0  0  0  0  0  0  0  0  0  0  0
   57.5620   27.3020   45.4866 C   0  0  0  0  0  0  0  0  0  0  0  0
   58.3625   26.4220   45.0692 O   0  0  0  0  0  0  0  0  0  0  0  0
   55.9743   25.9614   45.7900 H   0  0  0  0  0  0  0  0  0  0  0  0
   60.9018   28.4150   51.6469 N   0  0  0  0  0  0  0  0  0  0  0  0
   62.1674   28.0861   52.2321 C   0  0  0  0  0  0  0  0  0  0  0  0
   62.6568   26.9311   52.1097 O   0  0  0  0  0  0  0  0  0  0  0  0
   62.8995   29.1214   53.0287 C   0  0  0  0  0  0  0  0  0  0  0  0
   63.9881   29.7689   52.2124 C   0  0  0  0  0  0  0  0  0  0  0  0
   65.0500   29.1248   51.9884 O   0  0  0  0  0  0  0  0  0  0  0  0
   63.8645   31.1259   51.7346 N   0  0  0  0  0  0  0  0  0  0  0  0
   62.9229   32.0601   52.3750 C   0  0  0  0  0  0  0  0  0  0  0  0
   63.3090   33.5163   52.0985 C   0  0  0  0  0  0  0  0  0  0  0  0
   63.4435   33.8017   50.5932 C   0  0  0  0  0  0  0  0  0  0  0  0
   64.0332   32.6245   49.7881 C   0  0  0  0  0  0  0  0  0  0  0  0
   64.7613   31.6078   50.6730 C   0  0  0  0  0  0  0  0  0  0  0  0
 16 17  1  0
 17 18  2  0
 17  9  1  0
  9 10  2  0
 10 11  1  0
 11  8  1  0
  8  7  1  0
  7  1  1  0
  1  2  2  0
  2  3  1  0
  3  4  2  0
  4  5  1  0
  5 20  1  0
 20 21  1  0
 21 22  2  0
 21 23  1  0
 23 24  1  0
 24 25  2  0
 24 26  1  0
 26 27  1  0
 27 28  1  0
 28 29  1  0
 29 30  1  0
 30 31  1  0
  5  6  2  0
 11 12  2  0
 12 13  1  0
 13 14  2  0
 14 15  1  0
 14  9  1  0
  6  1  1  0
 31 26  1  0
 16 19  1  0
M  CHG 1  15  -1
M  CHG 1  16  -1
M  CHG 1  20  -1
M  END
> <UniqueID>
61

> <SMILES>
[NH-]C(=O)c1cc(OCc2cccc([N-]C(=O)CC(=O)N3CCCCC3)c2)ccc1[O-]

> <Energy>
58.6900210612426

> <Genealogy>
[NH-]C(=O)c1cc(OCc2cccc([N-]C(=O)CC(=O)N3CCCCC3)c2)ccc1[O-] (protonated)
[NH-]C(=O)c1cc(OCc2cccc([N-]C(=O)CC(=O)N3CCCCC3)c2)ccc1[O-] (3D coordinates assigned)
[NH-]C(=O)c1cc(OCc2cccc([N-]C(=O)CC(=O)N3CCCCC3)c2)ccc1[O-] (nonaromatic ring conformer: 58.6900210612426 kcal/mol)

> <smiles>
NC(=O)c1cc(OCc2cccc(NC(=O)CC(=O)N3CCCCC3)c2)ccc1O

> <score_type>
oracle

> <origin>
adg

> <m_score__min__energy>
-17.52

> <m_primary>
energy

> <minimizedAffinity>
-6.34694

> <minimizedRMSD>
1.65000

> <CNNscore>
0.1399080008

> <CNNaffinity>
5.5721096992

> <CNN_VS>
0.7795827389

> <CNNaffinity_variance>
0.2010428160

$$$$
27:0


 28 30  0  0  0  0  0  0  0  0999 V2000
   54.6972   27.5958   53.5982 C   0  0  0  0  0  0  0  0  0  0  0  0
   55.2427   28.8221   53.6477 C   0  0  0  0  0  0  0  0  0  0  0  0
   54.5928   30.0470   53.4210 C   0  0  0  0  0  0  0  0  0  0  0  0
   53.2862   30.3438   53.2782 C   0  0  0  0  0  0  0  0  0  0  0  0
   55.5865   31.0080   53.3739 C   0  0  0  0  0  0  0  0  0  0  0  0
   56.7780   30.3692   53.6441 C   0  0  0  0  0  0  0  0  0  0  0  0
   56.5751   29.0387   53.8003 N   0  0  0  0  0  0  0  0  0  0  0  0
   57.6103   28.0077   53.9449 C   0  0  0  0  0  0  0  0  0  0  0  0
   58.0776   31.0608   53.7369 C   0  0  0  0  0  0  0  0  0  0  0  0
   58.5701   31.2600   54.8796 O   0  0  0  0  0  0  0  0  0  0  0  0
   58.8016   31.4818   52.5616 N   0  0  0  0  0  0  0  0  0  0  0  0
   58.7228   30.7155   51.3096 C   0  0  0  0  0  0  0  0  0  0  0  0
   58.7129   31.6644   50.1059 C   0  0  0  0  0  0  0  0  0  0  0  0
   59.7544   32.6994   50.2124 N   0  0  0  0  0  0  0  0  0  0  0  0
   60.0312   33.5639   49.0884 C   0  0  0  0  0  0  0  0  0  0  0  0
   61.1079   34.2193   49.0496 O   0  0  0  0  0  0  0  0  0  0  0  0
   60.6085   32.7517   51.4077 C   0  0  0  0  0  0  0  0  0  0  0  0
   59.7681   32.5839   52.6806 C   0  0  0  0  0  0  0  0  0  0  0  0
   59.0723   33.6704   47.9330 C   0  0  0  0  0  0  0  0  0  0  0  0
   59.1699   34.9319   47.3309 O   0  0  0  0  0  0  0  0  0  0  0  0
   58.9498   35.6180   47.9802 H   0  0  0  0  0  0  0  0  0  0  0  0
   52.5593   30.4370   52.0036 C   0  0  0  0  0  0  0  0  0  0  0  0
   52.7748   29.6137   50.9638 N   0  0  0  0  0  0  0  0  0  0  0  0
   52.0016   30.1369   49.9873 C   0  0  0  0  0  0  0  0  0  0  0  0
   51.9213   29.6252   48.8395 O   0  0  0  0  0  0  0  0  0  0  0  0
   51.3334   31.2591   50.3307 N   0  0  0  0  0  0  0  0  0  0  0  0
   51.7087   31.4438   51.6063 C   0  0  0  0  0  0  0  0  0  0  0  0
   51.3047   32.5255   52.3796 O   0  0  0  0  0  0  0  0  0  0  0  0
  1  2  2  0
  2  3  1  0
  3  4  2  0
  4 22  1  0
 22 23  1  0
 23 24  1  0
 24 25  2  0
 24 26  1  0
 26 27  1  0
 27 28  1  0
  3  5  1  0
  5  6  2  0
  6  9  1  0
  9 10  2  0
  9 11  1  0
 11 12  1  0
 12 13  1  0
 13 14  1  0
 14 15  1  0
 15 16  2  0
 15 19  1  0
 19 20  1  0
 14 17  1  0
 17 18  1  0
  6  7  1  0
  7  8  1  0
  7  2  1  0
 27 22  2  0
 18 11  1  0
 20 21  1  0
M  CHG 1  23  -1
M  CHG 1  26  -1
M  CHG 1  28  -1
M  END
> <UniqueID>
28

> <SMILES>
C=c1c(=Cc2[n-]c(=O)[n-]c2[O-])cc(C(=O)N2CCN(C(=O)CO)CC2)n1C

> <Energy>
121.25959869106491

> <Genealogy>
C=c1c(=Cc2[n-]c(=O)[n-]c2[O-])cc(C(=O)N2CCN(C(=O)CO)CC2)n1C (protonated)
C=c1c(=Cc2[n-]c(=O)[n-]c2[O-])cc(C(=O)N2CCN(C(=O)CO)CC2)n1C (3D coordinates assigned)
C=c1c(=Cc2[n-]c(=O)[n-]c2[O-])cc(C(=O)N2CCN(C(=O)CO)CC2)n1C (nonaromatic ring conformer: 121.25959869106491 kcal/mol)

> <smiles>
C=c1c(=Cc2[nH]c(=O)[nH]c2O)cc(C(=O)N2CCN(C(=O)CO)CC2)n1C

> <score_type>
oracle

> <origin>
adg

> <m_score__min__energy>
-15.94

> <m_primary>
energy

> <minimizedAffinity>
-5.55108

> <minimizedRMSD>
1.45601

> <CNNscore>
0.0522825345

> <CNNaffinity>
4.3372054100

> <CNN_VS>
0.2267600894

> <CNNaffinity_variance>
0.2228931934

$$$$
29:0


 30 33  0  0  0  0  0  0  0  0999 V2000
   60.2069   29.3730   47.0786 N   0  0  0  0  0  0  0  0  0  0  0  0
   59.7364   28.5773   48.0749 C   0  0  0  0  0  0  0  0  0  0  0  0
   58.9581   27.5650   47.5544 C   0  0  0  0  0  0  0  0  0  0  0  0
   58.9321   27.7343   46.1856 C   0  0  0  0  0  0  0  0  0  0  0  0
   58.1950   26.9587   45.3666 C   0  0  0  0  0  0  0  0  0  0  0  0
   59.7829   28.8134   45.9104 C   0  0  0  0  0  0  0  0  0  0  0  0
   60.2694   29.1460   44.7037 C   0  0  0  0  0  0  0  0  0  0  0  0
   57.6062   25.6576   45.7222 C   0  0  0  0  0  0  0  0  0  0  0  0
   58.3246   24.5314   45.8618 N   0  0  0  0  0  0  0  0  0  0  0  0
   57.4171   23.6334   46.3013 C   0  0  0  0  0  0  0  0  0  0  0  0
   57.7113   22.4331   46.5378 O   0  0  0  0  0  0  0  0  0  0  0  0
   56.1719   24.1256   46.4781 N   0  0  0  0  0  0  0  0  0  0  0  0
   56.3110   25.4117   46.1225 C   0  0  0  0  0  0  0  0  0  0  0  0
   55.2832   26.3451   46.1895 O   0  0  0  0  0  0  0  0  0  0  0  0
   60.0406   28.7052   49.5169 C   0  0  0  0  0  0  0  0  0  0  0  0
   60.8098   27.8851   50.0837 O   0  0  0  0  0  0  0  0  0  0  0  0
   59.4843   29.7747   50.2821 N   0  0  0  0  0  0  0  0  0  0  0  0
   58.5157   30.8727   50.1066 C   0  0  0  0  0  0  0  0  0  0  0  0
   58.5472   31.3396   51.5237 C   0  0  0  0  0  0  0  0  0  0  0  0
   59.5304   30.2276   51.6831 C   0  0  0  0  0  0  0  0  0  0  0  0
   61.1396   30.5069   47.2298 C   0  0  0  0  0  0  0  0  0  0  0  0
   57.0248   33.0769   46.3081 O   0  0  0  0  0  0  0  0  0  0  0  0
   58.3870   33.0726   46.5956 C   0  0  0  0  0  0  0  0  0  0  0  0
   59.0660   34.2820   46.7279 C   0  0  0  0  0  0  0  0  0  0  0  0
   60.4337   34.2937   47.0026 C   0  0  0  0  0  0  0  0  0  0  0  0
   61.1472   33.0916   47.1499 C   0  0  0  0  0  0  0  0  0  0  0  0
   62.6245   33.1655   47.4267 C   0  0  0  0  0  0  0  0  0  0  0  0
   60.4539   31.8540   47.0590 C   0  0  0  0  0  0  0  0  0  0  0  0
   59.0789   31.8653   46.7525 C   0  0  0  0  0  0  0  0  0  0  0  0
   56.5703   33.8898   46.2048 H   0  0  0  0  0  0  0  0  0  0  0  0
 22 23  1  0
 23 24  2  0
 24 25  1  0
 25 26  2  0
 26 27  1  0
 26 28  1  0
 28 21  1  0
 21  1  1  0
  1  2  1  0
  2 15  1  0
 15 16  2  0
 15 17  1  0
 17 18  1  0
 18 19  1  0
 19 20  1  0
  2  3  2  0
  3  4  1  0
  4  5  2  0
  5  8  1  0
  8  9  1  0
  9 10  1  0
 10 11  2  0
 10 12  1  0
 12 13  1  0
 13 14  1  0
  4  6  1  0
  6  7  2  0
 28 29  2  0
 29 23  1  0
  6  1  1  0
 20 17  1  0
 13  8  2  0
 22 30  1  0
M  CHG 1   9  -1
M  CHG 1  12  -1
M  CHG 1  14  -1
M  END
> <UniqueID>
30

> <SMILES>
C=c1/c(=C\c2[n-]c(=O)[n-]c2[O-])cc(C(=O)N2CCC2)n1Cc1cc(O)ccc1C

> <Energy>
170.26347137199247

> <Genealogy>
C=c1c(=Cc2[n-]c(=O)[n-]c2[O-])cc(C(=O)N2CCC2)n1Cc1cc(O)ccc1C (protonated)
C=c1/c(=C\c2[n-]c(=O)[n-]c2[O-])cc(C(=O)N2CCC2)n1Cc1cc(O)ccc1C (cis-trans isomerization)
C=c1/c(=C\c2[n-]c(=O)[n-]c2[O-])cc(C(=O)N2CCC2)n1Cc1cc(O)ccc1C (3D coordinates assigned)
C=c1/c(=C\c2[n-]c(=O)[n-]c2[O-])cc(C(=O)N2CCC2)n1Cc1cc(O)ccc1C (nonaromatic ring conformer: 170.26347137199247 kcal/mol)

> <smiles>
C=c1c(=Cc2[nH]c(=O)[nH]c2O)cc(C(=O)N2CCC2)n1Cc1cc(O)ccc1C

> <score_type>
oracle

> <origin>
adg

> <m_score__min__energy>
-16.07

> <m_primary>
energy

> <minimizedAffinity>
-8.64463

> <minimizedRMSD>
0.80436

> <CNNscore>
0.3279492855

> <CNNaffinity>
6.9115328789

> <CNN_VS>
2.2666323185

> <CNNaffinity_variance>
0.0813234076

$$$$
30:0


 37 41  0  0  0  0  0  0  0  0999 V2000
   59.5610   29.8817   47.7704 C   0  0  0  0  0  0  0  0  0  0  0  0
   58.8540   30.0339   48.9708 C   0  0  0  0  0  0  0  0  0  0  0  0
   59.4442   30.6558   50.0979 C   0  0  0  0  0  0  0  0  0  0  0  0
   60.7766   31.1174   49.9667 C   0  0  0  0  0  0  0  0  0  0  0  0
   61.4774   30.9648   48.7691 C   0  0  0  0  0  0  0  0  0  0  0  0
   60.8768   30.3491   47.6737 C   0  0  0  0  0  0  0  0  0  0  0  0
   61.5809   30.1885   46.5250 F   0  0  0  0  0  0  0  0  0  0  0  0
   59.3615   26.9723   47.1934 C   0  0  0  0  0  0  0  0  0  0  0  0
   58.8395   27.9188   46.3981 C   0  0  0  0  0  0  0  0  0  0  0  0
   58.1393   27.7089   45.2057 C   0  0  0  0  0  0  0  0  0  0  0  0
   57.8794   26.5290   44.6073 C   0  0  0  0  0  0  0  0  0  0  0  0
   57.8139   28.9686   44.7175 C   0  0  0  0  0  0  0  0  0  0  0  0
   58.3013   29.8842   45.6298 C   0  0  0  0  0  0  0  0  0  0  0  0
   58.1902   31.3715   45.4863 C   0  0  0  0  0  0  0  0  0  0  0  0
   58.9324   29.2490   46.6425 N   0  0  0  0  0  0  0  0  0  0  0  0
   57.3977   25.3316   45.3196 C   0  0  0  0  0  0  0  0  0  0  0  0
   58.1341   24.2170   45.4670 N   0  0  0  0  0  0  0  0  0  0  0  0
   57.3589   23.4278   46.2423 C   0  0  0  0  0  0  0  0  0  0  0  0
   57.7082   22.2709   46.5951 O   0  0  0  0  0  0  0  0  0  0  0  0
   56.1868   23.9806   46.6205 N   0  0  0  0  0  0  0  0  0  0  0  0
   56.2313   25.1896   46.0403 C   0  0  0  0  0  0  0  0  0  0  0  0
   55.2486   26.1580   46.2078 O   0  0  0  0  0  0  0  0  0  0  0  0
   58.7108   30.8052   51.3533 N   0  0  0  0  0  0  0  0  0  0  0  0
   58.7864   29.7231   52.3542 C   0  0  0  0  0  0  0  0  0  0  0  0
   58.1158   30.0573   53.6863 C   0  0  0  0  0  0  0  0  0  0  0  0
   56.8262   30.7366   53.5097 N   0  0  0  0  0  0  0  0  0  0  0  0
   57.0320   32.0371   52.8514 C   0  0  0  0  0  0  0  0  0  0  0  0
   57.8093   31.9685   51.5191 C   0  0  0  0  0  0  0  0  0  0  0  0
   57.1556   31.4022   54.1560 H   0  0  0  0  0  0  0  0  0  0  0  0
   55.8417   29.8996   52.8390 C   0  0  0  0  0  0  0  0  0  0  0  0
   56.2048   28.8242   52.2856 O   0  0  0  0  0  0  0  0  0  0  0  0
   54.3945   30.2577   52.8060 C   0  0  0  0  0  0  0  0  0  0  0  0
   53.7734   30.7492   51.6387 C   0  0  0  0  0  0  0  0  0  0  0  0
   52.4139   31.0815   51.6433 C   0  0  0  0  0  0  0  0  0  0  0  0
   51.6578   30.9315   52.8064 C   0  0  0  0  0  0  0  0  0  0  0  0
   52.2586   30.4525   53.9713 C   0  0  0  0  0  0  0  0  0  0  0  0
   53.6167   30.1193   53.9747 C   0  0  0  0  0  0  0  0  0  0  0  0
  8  9  2  0
  9 10  1  0
 10 11  2  0
 11 16  1  0
 16 17  1  0
 17 18  1  0
 18 19  2  0
 18 20  1  0
 20 21  1  0
 21 22  1  0
 10 12  1  0
 12 13  2  0
 13 14  1  0
 13 15  1  0
 15  1  1  0
  1  2  2  0
  2  3  1  0
  3 23  1  0
 23 24  1  0
 24 25  1  0
 25 26  1  0
 26 30  1  0
 30 31  2  0
 30 32  1  0
 32 33  2  0
 33 34  1  0
 34 35  2  0
 35 36  1  0
 36 37  2  0
 26 27  1  0
 27 28  1  0
  3  4  2  0
  4  5  1  0
  5  6  2  0
  6  7  1  0
 15  9  1  0
  6  1  1  0
 21 16  2  0
 28 23  1  0
 37 32  1  0
 26 29  1  0
M  CHG 1  17  -1
M  CHG 1  20  -1
M  CHG 1  22  -1
M  CHG 1  26   1
M  END
> <UniqueID>
31

> <SMILES>
C=c1c(=Cc2[n-]c(=O)[n-]c2[O-])cc(C)n1-c1cc(N2CC[NH+](C(=O)c3ccccc3)CC2)ccc1F

> <Energy>
153.59842779221637

> <Genealogy>
C=c1c(=Cc2[n-]c(=O)[n-]c2[O-])cc(C)n1-c1cc(N2CC[NH+](C(=O)c3ccccc3)CC2)ccc1F (protonated)
C=c1c(=Cc2[n-]c(=O)[n-]c2[O-])cc(C)n1-c1cc(N2CC[NH+](C(=O)c3ccccc3)CC2)ccc1F (3D coordinates assigned)
C=c1c(=Cc2[n-]c(=O)[n-]c2[O-])cc(C)n1-c1cc(N2CC[NH+](C(=O)c3ccccc3)CC2)ccc1F (nonaromatic ring conformer: 153.59842779221637 kcal/mol)

> <smiles>
C=c1c(=Cc2[nH]c(=O)[nH]c2O)cc(C)n1-c1cc(N2CCN(C(=O)c3ccccc3)CC2)ccc1F

> <score_type>
oracle

> <origin>
adg

> <m_score__min__energy>
-17.059999999999999

> <m_primary>
energy

> <minimizedAffinity>
-8.67778

> <minimizedRMSD>
0.55875

> <CNNscore>
0.2093475014

> <CNNaffinity>
6.6840519905

> <CNN_VS>
1.3992896080

> <CNNaffinity_variance>
0.3224432170

$$$$
34:0


 29 32  0  0  0  0  0  0  0  0999 V2000
   54.5117   29.2830   55.4567 C   0  0  0  0  0  0  0  0  0  0  0  0
   55.0259   29.7106   54.2904 C   0  0  0  0  0  0  0  0  0  0  0  0
   54.2796   30.1042   53.1727 C   0  0  0  0  0  0  0  0  0  0  0  0
   52.9380   30.1278   53.0444 C   0  0  0  0  0  0  0  0  0  0  0  0
   55.1956   30.5150   52.2206 C   0  0  0  0  0  0  0  0  0  0  0  0
   56.4478   30.3476   52.7720 C   0  0  0  0  0  0  0  0  0  0  0  0
   57.7215   30.6931   52.0672 C   0  0  0  0  0  0  0  0  0  0  0  0
   56.3570   29.8257   54.0199 N   0  0  0  0  0  0  0  0  0  0  0  0
   52.2315   30.3928   51.7763 C   0  0  0  0  0  0  0  0  0  0  0  0
   52.3025   29.5768   50.7104 N   0  0  0  0  0  0  0  0  0  0  0  0
   51.6285   30.2510   49.7556 C   0  0  0  0  0  0  0  0  0  0  0  0
   51.4794   29.8003   48.5904 O   0  0  0  0  0  0  0  0  0  0  0  0
   51.1538   31.4548   50.1376 N   0  0  0  0  0  0  0  0  0  0  0  0
   51.5547   31.5378   51.4144 C   0  0  0  0  0  0  0  0  0  0  0  0
   51.3596   32.6616   52.2096 O   0  0  0  0  0  0  0  0  0  0  0  0
   57.5020   29.5068   54.8963 C   0  0  0  0  0  0  0  0  0  0  0  0
   58.1504   28.1872   54.5160 C   0  0  0  0  0  0  0  0  0  0  0  0
   57.3608   27.0233   54.5245 C   0  0  0  0  0  0  0  0  0  0  0  0
   57.9136   25.7795   54.2215 C   0  0  0  0  0  0  0  0  0  0  0  0
   59.2685   25.6672   53.8996 C   0  0  0  0  0  0  0  0  0  0  0  0
   60.0615   26.8258   53.8719 C   0  0  0  0  0  0  0  0  0  0  0  0
   59.5150   28.0885   54.1552 C   0  0  0  0  0  0  0  0  0  0  0  0
   60.4131   29.2936   54.0923 C   0  0  0  0  0  0  0  0  0  0  0  0
   59.8475   24.3814   53.6095 N   0  0  0  0  0  0  0  0  0  0  0  0
   61.1767   24.0726   54.1597 C   0  0  0  0  0  0  0  0  0  0  0  0
   61.6619   22.6952   53.7133 C   0  0  0  0  0  0  0  0  0  0  0  0
   61.3335   22.4937   52.3584 O   0  0  0  0  0  0  0  0  0  0  0  0
   59.9459   22.2529   52.2512 C   0  0  0  0  0  0  0  0  0  0  0  0
   59.0888   23.4251   52.7860 C   0  0  0  0  0  0  0  0  0  0  0  0
  1  2  2  0
  2  3  1  0
  3  4  2  0
  4  9  1  0
  9 10  1  0
 10 11  1  0
 11 12  2  0
 11 13  1  0
 13 14  1  0
 14 15  1  0
  3  5  1  0
  5  6  2  0
  6  7  1  0
  6  8  1  0
  8 16  1  0
 16 17  1  0
 17 18  2  0
 18 19  1  0
 19 20  2  0
 20 24  1  0
 24 25  1  0
 25 26  1  0
 26 27  1  0
 27 28  1  0
 28 29  1  0
 20 21  1  0
 21 22  2  0
 22 23  1  0
  8  2  1  0
 22 17  1  0
 14  9  2  0
 29 24  1  0
M  CHG 1  10  -1
M  CHG 1  13  -1
M  CHG 1  15  -1
M  END
> <UniqueID>
35

> <SMILES>
C=c1/c(=C/c2[n-]c(=O)[n-]c2[O-])cc(C)n1Cc1ccc(N2CCOCC2)cc1C

> <Energy>
131.60744415296094

> <Genealogy>
C=c1c(=Cc2[n-]c(=O)[n-]c2[O-])cc(C)n1Cc1ccc(N2CCOCC2)cc1C (protonated)
C=c1/c(=C/c2[n-]c(=O)[n-]c2[O-])cc(C)n1Cc1ccc(N2CCOCC2)cc1C (cis-trans isomerization)
C=c1/c(=C/c2[n-]c(=O)[n-]c2[O-])cc(C)n1Cc1ccc(N2CCOCC2)cc1C (3D coordinates assigned)
C=c1/c(=C/c2[n-]c(=O)[n-]c2[O-])cc(C)n1Cc1ccc(N2CCOCC2)cc1C (nonaromatic ring conformer: 131.60744415296094 kcal/mol)

> <smiles>
C=c1c(=Cc2[nH]c(=O)[nH]c2O)cc(C)n1Cc1ccc(N2CCOCC2)cc1C

> <score_type>
oracle

> <origin>
adg

> <m_score__min__energy>
-16.449999999999999

> <m_primary>
energy

> <minimizedAffinity>
-4.46449

> <minimizedRMSD>
0.76962

> <CNNscore>
0.1318201125

> <CNNaffinity>
4.6894869804

> <CNN_VS>
0.6181687117

> <CNNaffinity_variance>
0.4320219755

$$$$
42:0


 24 26  0  0  0  0  0  0  0  0999 V2000
   54.1976   27.5507   53.9011 C   0  0  0  0  0  0  0  0  0  0  0  0
   54.9270   28.5799   53.4431 C   0  0  0  0  0  0  0  0  0  0  0  0
   56.2748   28.4923   53.6215 N   0  0  0  0  0  0  0  0  0  0  0  0
   57.1438   29.4358   53.1859 C   0  0  0  0  0  0  0  0  0  0  0  0
   56.6733   30.5725   52.5331 C   0  0  0  0  0  0  0  0  0  0  0  0
   55.2977   30.6991   52.3119 C   0  0  0  0  0  0  0  0  0  0  0  0
   54.3822   29.7186   52.7605 C   0  0  0  0  0  0  0  0  0  0  0  0
   53.0440   29.8925   52.5853 C   0  0  0  0  0  0  0  0  0  0  0  0
   57.6215   31.6098   52.0657 C   0  0  0  0  0  0  0  0  0  0  0  0
   57.3799   32.8211   52.3216 O   0  0  0  0  0  0  0  0  0  0  0  0
   58.7973   31.2655   51.3072 N   0  0  0  0  0  0  0  0  0  0  0  0
   58.7321   30.2329   50.2654 C   0  0  0  0  0  0  0  0  0  0  0  0
   59.7849   30.4913   49.1735 C   0  0  0  0  0  0  0  0  0  0  0  0
   59.9214   31.9332   48.8718 N   0  0  0  0  0  0  0  0  0  0  0  0
   58.7203   32.4679   48.2065 C   0  0  0  0  0  0  0  0  0  0  0  0
   60.3114   32.7505   50.0504 C   0  0  0  0  0  0  0  0  0  0  0  0
   60.0083   32.0815   51.4045 C   0  0  0  0  0  0  0  0  0  0  0  0
   52.3840   30.3430   51.3389 C   0  0  0  0  0  0  0  0  0  0  0  0
   52.2724   29.6167   50.2115 N   0  0  0  0  0  0  0  0  0  0  0  0
   51.5035   30.3892   49.4149 C   0  0  0  0  0  0  0  0  0  0  0  0
   51.1823   30.0496   48.2467 O   0  0  0  0  0  0  0  0  0  0  0  0
   51.0975   31.5494   49.9713 N   0  0  0  0  0  0  0  0  0  0  0  0
   51.6532   31.4986   51.1929 C   0  0  0  0  0  0  0  0  0  0  0  0
   51.4933   32.4855   52.1562 O   0  0  0  0  0  0  0  0  0  0  0  0
  1  2  2  0
  2  3  1  0
  3  4  2  0
  4  5  1  0
  5  9  1  0
  9 10  2  0
  9 11  1  0
 11 12  1  0
 12 13  1  0
 13 14  1  0
 14 15  1  0
 14 16  1  0
 16 17  1  0
  5  6  2  0
  6  7  1  0
  7  8  2  0
  8 18  1  0
 18 19  1  0
 19 20  1  0
 20 21  2  0
 20 22  1  0
 22 23  1  0
 23 24  1  0
  7  2  1  0
 23 18  2  0
 17 11  1  0
M  CHG 1  19  -1
M  CHG 1  22  -1
M  CHG 1  24  -1
M  END
> <UniqueID>
42

> <SMILES>
C=c1ncc(C(=O)N2CCN(C)CC2)cc1=Cc1[n-]c(=O)[n-]c1[O-]

> <Energy>
98.06815144889198

> <Genealogy>
C=c1ncc(C(=O)N2CCN(C)CC2)cc1=Cc1[n-]c(=O)[n-]c1[O-] (protonated)
C=c1ncc(C(=O)N2CCN(C)CC2)cc1=Cc1[n-]c(=O)[n-]c1[O-] (3D coordinates assigned)
C=c1ncc(C(=O)N2CCN(C)CC2)cc1=Cc1[n-]c(=O)[n-]c1[O-] (nonaromatic ring conformer: 98.06815144889198 kcal/mol)

> <smiles>
C=c1ncc(C(=O)N2CCN(C)CC2)cc1=Cc1[nH]c(=O)[nH]c1O

> <score_type>
oracle

> <origin>
adg

> <m_score__min__energy>
-16.789999999999999

> <m_primary>
energy

> <minimizedAffinity>
-5.59488

> <minimizedRMSD>
0.80445

> <CNNscore>
0.0597167946

> <CNNaffinity>
3.9587681293

> <CNN_VS>
0.2364049405

> <CNNaffinity_variance>
0.6058980823

$$$$
47:0


 40 44  0  0  0  0  0  0  0  0999 V2000
   60.1876   29.1025   47.2199 C   0  0  0  0  0  0  0  0  0  0  0  0
   60.3774   27.7318   47.4580 C   0  0  0  0  0  0  0  0  0  0  0  0
   60.5637   27.2685   48.7632 C   0  0  0  0  0  0  0  0  0  0  0  0
   60.5607   28.1667   49.8345 C   0  0  0  0  0  0  0  0  0  0  0  0
   60.3933   29.5446   49.6076 C   0  0  0  0  0  0  0  0  0  0  0  0
   60.2085   30.0023   48.2922 C   0  0  0  0  0  0  0  0  0  0  0  0
   59.9888   29.6059   45.8954 N   0  0  0  0  0  0  0  0  0  0  0  0
   58.8043   29.4013   45.1143 C   0  0  0  0  0  0  0  0  0  0  0  0
   58.2535   30.3802   44.5325 O   0  0  0  0  0  0  0  0  0  0  0  0
   57.8121   26.0662   43.6432 C   0  0  0  0  0  0  0  0  0  0  0  0
   57.1228   25.5224   44.6799 N   0  0  0  0  0  0  0  0  0  0  0  0
   56.9541   26.1751   45.8606 C   0  0  0  0  0  0  0  0  0  0  0  0
   56.2303   25.6092   46.7887 N   0  0  0  0  0  0  0  0  0  0  0  0
   57.5344   27.4514   46.0291 C   0  0  0  0  0  0  0  0  0  0  0  0
   58.2372   28.0452   44.9695 C   0  0  0  0  0  0  0  0  0  0  0  0
   58.3722   27.3381   43.7622 C   0  0  0  0  0  0  0  0  0  0  0  0
   55.5135   24.3335   46.6905 C   0  0  0  0  0  0  0  0  0  0  0  0
   56.4880   23.1832   46.6156 C   0  0  0  0  0  0  0  0  0  0  0  0
   56.9391   22.7083   47.6930 O   0  0  0  0  0  0  0  0  0  0  0  0
   56.9260   22.6310   45.3559 N   0  0  0  0  0  0  0  0  0  0  0  0
   58.1760   21.8723   45.2850 C   0  0  0  0  0  0  0  0  0  0  0  0
   58.6570   21.7817   43.8281 C   0  0  0  0  0  0  0  0  0  0  0  0
   57.7021   21.2134   42.9453 O   0  0  0  0  0  0  0  0  0  0  0  0
   56.3496   21.5665   43.2191 C   0  0  0  0  0  0  0  0  0  0  0  0
   56.1566   22.8014   44.1214 C   0  0  0  0  0  0  0  0  0  0  0  0
   60.3218   30.5042   50.7691 C   0  0  0  0  0  0  0  0  0  0  0  0
   61.1131   31.7135   50.5118 N   0  0  0  0  0  0  0  0  0  0  0  0
   60.6552   32.5894   49.6073 N   0  0  0  0  0  0  0  0  0  0  0  0
   61.2886   33.7598   49.3325 C   0  0  0  0  0  0  0  0  0  0  0  0
   60.7352   34.5810   48.4837 N   0  0  0  0  0  0  0  0  0  0  0  0
   62.5028   34.0341   49.9830 C   0  0  0  0  0  0  0  0  0  0  0  0
   62.9986   33.1217   50.9148 C   0  0  0  0  0  0  0  0  0  0  0  0
   62.2809   31.9601   51.1849 C   0  0  0  0  0  0  0  0  0  0  0  0
   62.7140   31.1512   52.0547 O   0  0  0  0  0  0  0  0  0  0  0  0
   59.7392   34.2923   47.4910 C   0  0  0  0  0  0  0  0  0  0  0  0
   58.6701   33.4175   47.7621 C   0  0  0  0  0  0  0  0  0  0  0  0
   57.7767   33.0585   46.7470 C   0  0  0  0  0  0  0  0  0  0  0  0
   57.9587   33.5487   45.4506 C   0  0  0  0  0  0  0  0  0  0  0  0
   59.0335   34.3921   45.1695 C   0  0  0  0  0  0  0  0  0  0  0  0
   59.9333   34.7477   46.1819 C   0  0  0  0  0  0  0  0  0  0  0  0
 10 11  1  0
 11 12  1  0
 12 13  2  0
 13 17  1  0
 17 18  1  0
 18 19  2  0
 18 20  1  0
 20 21  1  0
 21 22  1  0
 22 23  1  0
 23 24  1  0
 24 25  1  0
 12 14  1  0
 14 15  2  0
 15  8  1  0
  8  9  2  0
  8  7  1  0
  7  1  1  0
  1  2  2  0
  2  3  1  0
  3  4  2  0
  4  5  1  0
  5 26  1  0
 26 27  1  0
 27 28  1  0
 28 29  1  0
 29 30  2  0
 30 35  1  0
 35 36  2  0
 36 37  1  0
 37 38  2  0
 38 39  1  0
 39 40  2  0
 29 31  1  0
 31 32  2  0
 32 33  1  0
 33 34  2  0
  5  6  2  0
 15 16  1  0
 16 10  2  0
 25 20  1  0
  6  1  1  0
 33 27  1  0
 40 35  1  0
M  CHG 1   7  -1
M  CHG 1  11  -1
M  CHG 1  28  -1
M  END
> <UniqueID>
47

> <SMILES>
O=C([N-]c1cccc(Cn2[n-]/c(=N/c3ccccc3)ccc2=O)c1)c1cc[n-]c(=NCC(=O)N2CCOCC2)c1

> <Energy>
97.66870802760835

> <Genealogy>
O=C([N-]c1cccc(Cn2[n-]c(=Nc3ccccc3)ccc2=O)c1)c1cc[n-]c(=NCC(=O)N2CCOCC2)c1 (protonated)
O=C([N-]c1cccc(Cn2[n-]/c(=N/c3ccccc3)ccc2=O)c1)c1cc[n-]c(=NCC(=O)N2CCOCC2)c1 (cis-trans isomerization)
O=C([N-]c1cccc(Cn2[n-]/c(=N/c3ccccc3)ccc2=O)c1)c1cc[n-]c(=NCC(=O)N2CCOCC2)c1 (3D coordinates assigned)
O=C([N-]c1cccc(Cn2[n-]/c(=N/c3ccccc3)ccc2=O)c1)c1cc[n-]c(=NCC(=O)N2CCOCC2)c1 (nonaromatic ring conformer: 97.66870802760835 kcal/mol)

> <smiles>
O=C(Nc1cccc(Cn2[nH]c(=Nc3ccccc3)ccc2=O)c1)c1cc[nH]c(=NCC(=O)N2CCOCC2)c1

> <score_type>
oracle

> <origin>
adg

> <m_score__min__energy>
-14.32

> <m_primary>
energy

> <minimizedAffinity>
-8.03309

> <minimizedRMSD>
1.47455

> <CNNscore>
0.4422117770

> <CNNaffinity>
7.3609519005

> <CNN_VS>
3.2550995350

> <CNNaffinity_variance>
0.1230571270

$$$$
49:0


 31 33  0  0  0  0  0  0  0  0999 V2000
   59.0299   28.6955   47.2309 C   0  0  0  0  0  0  0  0  0  0  0  0
   58.4822   28.6466   46.0067 C   0  0  0  0  0  0  0  0  0  0  0  0
   58.0991   27.4975   45.2919 C   0  0  0  0  0  0  0  0  0  0  0  0
   58.3108   26.1906   45.5359 C   0  0  0  0  0  0  0  0  0  0  0  0
   57.4214   27.9486   44.1698 C   0  0  0  0  0  0  0  0  0  0  0  0
   57.4592   29.3268   44.2055 C   0  0  0  0  0  0  0  0  0  0  0  0
   56.8663   30.2247   43.1629 C   0  0  0  0  0  0  0  0  0  0  0  0
   58.1104   29.7516   45.3100 N   0  0  0  0  0  0  0  0  0  0  0  0
   57.3837   25.0961   45.2081 C   0  0  0  0  0  0  0  0  0  0  0  0
   56.0463   25.0405   45.5239 C   0  0  0  0  0  0  0  0  0  0  0  0
   55.3636   25.9522   46.3207 O   0  0  0  0  0  0  0  0  0  0  0  0
   55.4648   23.9729   44.9443 N   0  0  0  0  0  0  0  0  0  0  0  0
   56.4857   23.4138   44.2582 C   0  0  0  0  0  0  0  0  0  0  0  0
   56.3504   22.3792   43.5550 O   0  0  0  0  0  0  0  0  0  0  0  0
   57.6560   24.0718   44.3818 N   0  0  0  0  0  0  0  0  0  0  0  0
   58.5180   23.8512   43.9605 H   0  0  0  0  0  0  0  0  0  0  0  0
   58.2819   31.1267   45.6959 C   0  0  0  0  0  0  0  0  0  0  0  0
   57.6984   32.1463   44.9328 C   0  0  0  0  0  0  0  0  0  0  0  0
   57.8395   33.4797   45.3208 C   0  0  0  0  0  0  0  0  0  0  0  0
   58.5651   33.8037   46.4711 C   0  0  0  0  0  0  0  0  0  0  0  0
   59.1643   32.7924   47.2446 C   0  0  0  0  0  0  0  0  0  0  0  0
   59.0026   31.4513   46.8543 C   0  0  0  0  0  0  0  0  0  0  0  0
   59.9299   33.1449   48.4649 C   0  0  0  0  0  0  0  0  0  0  0  0
   59.9839   34.3512   48.8317 O   0  0  0  0  0  0  0  0  0  0  0  0
   60.6304   32.1356   49.2123 N   0  0  0  0  0  0  0  0  0  0  0  0
   61.1421   32.3392   50.5390 C   0  0  0  0  0  0  0  0  0  0  0  0
   60.9104   33.4109   51.1618 O   0  0  0  0  0  0  0  0  0  0  0  0
   60.7668   31.2562   48.7913 H   0  0  0  0  0  0  0  0  0  0  0  0
   61.9312   31.2543   51.2096 C   0  0  0  0  0  0  0  0  0  0  0  0
   63.0527   30.9015   50.4233 O   0  0  0  0  0  0  0  0  0  0  0  0
   64.0552   31.8886   50.5312 C   0  0  0  0  0  0  0  0  0  0  0  0
  1  2  2  0
  2  3  1  0
  3  4  2  0
  4  9  1  0
  9 10  2  0
 10 11  1  0
 10 12  1  0
 12 13  1  0
 13 14  2  0
 13 15  1  0
  3  5  1  0
  5  6  2  0
  6  7  1  0
  6  8  1  0
  8 17  1  0
 17 18  2  0
 18 19  1  0
 19 20  2  0
 20 21  1  0
 21 23  1  0
 23 24  2  0
 23 25  1  0
 25 26  1  0
 26 27  2  0
 26 29  1  0
 29 30  1  0
 30 31  1  0
 21 22  2  0
  8  2  1  0
 22 17  1  0
 15  9  1  0
 15 16  1  0
 25 28  1  0
M  CHG 1  11  -1
M  CHG 1  12  -1
M  END
> <UniqueID>
48

> <SMILES>
C=c1/c(=C\c2[nH]c(=O)[n-]c2[O-])cc(C)n1-c1cccc(C(=O)NC(=O)COC)c1

> <Energy>
128.4934786167167

> <Genealogy>
C=c1c(=Cc2[nH]c(=O)[n-]c2[O-])cc(C)n1-c1cccc(C(=O)NC(=O)COC)c1 (protonated)
C=c1/c(=C\c2[nH]c(=O)[n-]c2[O-])cc(C)n1-c1cccc(C(=O)NC(=O)COC)c1 (cis-trans isomerization)
C=c1/c(=C\c2[nH]c(=O)[n-]c2[O-])cc(C)n1-c1cccc(C(=O)NC(=O)COC)c1 (3D coordinates assigned)
C=c1/c(=C\c2[nH]c(=O)[n-]c2[O-])cc(C)n1-c1cccc(C(=O)NC(=O)COC)c1 (optimized conformer: 128.4934786167167 kcal/mol)

> <smiles>
C=c1c(=Cc2[nH]c(=O)[nH]c2O)cc(C)n1-c1cccc(C(=O)NC(=O)COC)c1

> <score_type>
oracle

> <origin>
adg

> <m_score__min__energy>
-14.48

> <m_primary>
energy

> <minimizedAffinity>
-8.29840

> <minimizedRMSD>
1.44973

> <CNNscore>
0.3064326644

> <CNNaffinity>
6.8685107231

> <CNN_VS>
2.1047360897

> <CNNaffinity_variance>
0.0899176374

$$$$
71:0


 30 32  0  0  0  0  0  0  0  0999 V2000
   59.3488   32.2505   51.1749 C   0  0  0  0  0  0  0  0  0  0  0  0
   58.7666   32.2088   49.9669 C   0  0  0  0  0  0  0  0  0  0  0  0
   59.1207   31.2708   48.8820 C   0  0  0  0  0  0  0  0  0  0  0  0
   58.9575   31.6240   47.5325 C   0  0  0  0  0  0  0  0  0  0  0  0
   59.2614   30.7090   46.5216 C   0  0  0  0  0  0  0  0  0  0  0  0
   59.7040   29.4164   46.8457 C   0  0  0  0  0  0  0  0  0  0  0  0
   59.8451   29.0568   48.1945 C   0  0  0  0  0  0  0  0  0  0  0  0
   59.5410   29.9725   49.2066 C   0  0  0  0  0  0  0  0  0  0  0  0
   60.0743   28.4477   45.7572 C   0  0  0  0  0  0  0  0  0  0  0  0
   59.1828   27.2460   45.8147 C   0  0  0  0  0  0  0  0  0  0  0  0
   59.6486   25.7165   46.3489 S   0  0  0  0  0  0  0  0  0  0  0  0
   58.0964   25.0948   46.1782 C   0  0  0  0  0  0  0  0  0  0  0  0
   57.7771   23.9054   46.4354 O   0  0  0  0  0  0  0  0  0  0  0  0
   57.2123   26.0143   45.7363 N   0  0  0  0  0  0  0  0  0  0  0  0
   57.8165   27.2152   45.5407 C   0  0  0  0  0  0  0  0  0  0  0  0
   57.1069   28.3258   45.1032 O   0  0  0  0  0  0  0  0  0  0  0  0
   60.7969   32.3938   51.4284 C   0  0  0  0  0  0  0  0  0  0  0  0
   61.4059   31.5900   52.1835 O   0  0  0  0  0  0  0  0  0  0  0  0
   61.4982   33.4735   50.8023 N   0  0  0  0  0  0  0  0  0  0  0  0
   63.3434   33.0934   49.2222 C   0  0  0  0  0  0  0  0  0  0  0  0
   63.8458   33.0918   47.9104 C   0  0  0  0  0  0  0  0  0  0  0  0
   63.0311   33.4714   46.8417 C   0  0  0  0  0  0  0  0  0  0  0  0
   61.7076   33.8476   47.0721 C   0  0  0  0  0  0  0  0  0  0  0  0
   61.1961   33.8538   48.3714 C   0  0  0  0  0  0  0  0  0  0  0  0
   62.0125   33.4960   49.4608 C   0  0  0  0  0  0  0  0  0  0  0  0
   66.0405   32.7119   50.0664 N   0  0  0  0  0  0  0  0  0  0  0  0
   64.3875   32.6110   50.5626 S   0  0  0  0  0  0  0  0  0  0  0  0
   64.0898   31.1977   50.9792 O   0  0  0  0  0  0  0  0  0  0  0  0
   64.1525   33.5241   51.7332 O   0  0  0  0  0  0  0  0  0  0  0  0
   66.6451   32.4337   50.8394 H   0  0  0  0  0  0  0  0  0  0  0  0
 26 27  1  0
 27 28  2  0
 27 29  2  0
 27 20  1  0
 20 21  2  0
 21 22  1  0
 22 23  2  0
 23 24  1  0
 24 25  2  0
 25 19  1  0
 19 17  1  0
 17 18  2  0
 17  1  1  0
  1  2  2  0
  2  3  1  0
  3  4  2  0
  4  5  1  0
  5  6  2  0
  6  9  1  0
  9 10  1  0
 10 11  1  0
 11 12  1  0
 12 13  2  0
 12 14  1  0
 14 15  1  0
 15 16  1  0
  6  7  1  0
  7  8  2  0
 25 20  1  0
  8  3  1  0
 15 10  2  0
 26 30  1  0
M  CHG 1  14  -1
M  CHG 1  16  -1
M  CHG 1  19  -1
M  CHG 1  26  -1
M  END
> <UniqueID>
69

> <SMILES>
[NH-]S(=O)(=O)c1ccccc1[N-]C(=O)C=Cc1ccc(Cc2sc(=O)[n-]c2[O-])cc1

> <Energy>
85.28368804704814

> <Genealogy>
[NH-]S(=O)(=O)c1ccccc1[N-]C(=O)C=Cc1ccc(Cc2sc(=O)[n-]c2[O-])cc1 (protonated)
[NH-]S(=O)(=O)c1ccccc1[N-]C(=O)C=Cc1ccc(Cc2sc(=O)[n-]c2[O-])cc1 (3D coordinates assigned)
[NH-]S(=O)(=O)c1ccccc1[N-]C(=O)C=Cc1ccc(Cc2sc(=O)[n-]c2[O-])cc1 (optimized conformer: 85.28368804704814 kcal/mol)

> <smiles>
NS(=O)(=O)c1ccccc1NC(=O)C=Cc1ccc(Cc2sc(=O)[nH]c2O)cc1

> <score_type>
oracle

> <origin>
adg

> <m_score__min__energy>
-16.190000000000001

> <m_primary>
energy

> <minimizedAffinity>
-7.08804

> <minimizedRMSD>
1.36381

> <CNNscore>
0.6706538200

> <CNNaffinity>
6.9039845467

> <CNN_VS>
4.6301836967

> <CNNaffinity_variance>
0.1612566561

$$$$
81:0


 32 35  0  0  0  0  0  0  0  0999 V2000
   60.3921   30.3656   47.7432 C   0  0  0  0  0  0  0  0  0  0  0  0
   61.4866   30.7346   47.2405 O   0  0  0  0  0  0  0  0  0  0  0  0
   60.1791   30.5353   49.1514 N   0  0  0  0  0  0  0  0  0  0  0  0
   61.1228   29.9390   50.1035 C   0  0  0  0  0  0  0  0  0  0  0  0
   60.3424   29.2023   51.1951 C   0  0  0  0  0  0  0  0  0  0  0  0
   59.2194   30.0136   51.6885 N   0  0  0  0  0  0  0  0  0  0  0  0
   58.4129   29.4958   52.7618 C   0  0  0  0  0  0  0  0  0  0  0  0
   58.9689   28.9156   53.7318 O   0  0  0  0  0  0  0  0  0  0  0  0
   58.9791   31.3682   51.1617 C   0  0  0  0  0  0  0  0  0  0  0  0
   59.0712   31.3752   49.6298 C   0  0  0  0  0  0  0  0  0  0  0  0
   56.7815   29.5421   44.5833 C   0  0  0  0  0  0  0  0  0  0  0  0
   57.7611   29.3244   45.4776 C   0  0  0  0  0  0  0  0  0  0  0  0
   58.3123   28.0779   45.7953 C   0  0  0  0  0  0  0  0  0  0  0  0
   57.9152   26.8625   45.3576 C   0  0  0  0  0  0  0  0  0  0  0  0
   59.3312   28.3281   46.6966 C   0  0  0  0  0  0  0  0  0  0  0  0
   59.3676   29.6917   46.9079 C   0  0  0  0  0  0  0  0  0  0  0  0
   58.4006   30.3037   46.1758 N   0  0  0  0  0  0  0  0  0  0  0  0
   58.1539   31.7530   46.1191 C   0  0  0  0  0  0  0  0  0  0  0  0
   57.3490   25.8137   46.2298 C   0  0  0  0  0  0  0  0  0  0  0  0
   58.0911   25.0844   47.0815 N   0  0  0  0  0  0  0  0  0  0  0  0
   57.1818   24.3054   47.7071 C   0  0  0  0  0  0  0  0  0  0  0  0
   57.5020   23.4584   48.5841 O   0  0  0  0  0  0  0  0  0  0  0  0
   55.9020   24.5168   47.3295 N   0  0  0  0  0  0  0  0  0  0  0  0
   56.0213   25.4833   46.4062 C   0  0  0  0  0  0  0  0  0  0  0  0
   54.9343   26.0879   45.7823 O   0  0  0  0  0  0  0  0  0  0  0  0
   56.9359   29.6013   52.7295 C   0  0  0  0  0  0  0  0  0  0  0  0
   56.3224   30.7389   52.1787 C   0  0  0  0  0  0  0  0  0  0  0  0
   54.9274   30.8054   52.1080 C   0  0  0  0  0  0  0  0  0  0  0  0
   54.1542   29.7601   52.6156 C   0  0  0  0  0  0  0  0  0  0  0  0
   54.7930   28.6592   53.1921 C   0  0  0  0  0  0  0  0  0  0  0  0
   56.1569   28.6045   53.2488 N   0  0  0  0  0  0  0  0  0  0  0  0
   56.5893   27.8289   53.6739 H   0  0  0  0  0  0  0  0  0  0  0  0
 11 12  2  0
 12 13  1  0
 13 14  2  0
 14 19  1  0
 19 20  1  0
 20 21  1  0
 21 22  2  0
 21 23  1  0
 23 24  1  0
 24 25  1  0
 13 15  1  0
 15 16  2  0
 16  1  1  0
  1  2  2  0
  1  3  1  0
  3  4  1  0
  4  5  1  0
  5  6  1  0
  6  7  1  0
  7  8  2  0
  7 26  1  0
 26 27  2  0
 27 28  1  0
 28 29  2  0
 29 30  1  0
 30 31  2  0
  6  9  1  0
  9 10  1  0
 16 17  1  0
 17 18  1  0
 17 12  1  0
 24 19  2  0
 10  3  1  0
 31 26  1  0
 31 32  1  0
M  CHG 1  20  -1
M  CHG 1  23  -1
M  CHG 1  25  -1
M  CHG 1  31   1
M  END
> <UniqueID>
78

> <SMILES>
C=c1/c(=C/c2[n-]c(=O)[n-]c2[O-])cc(C(=O)N2CCN(C(=O)c3cccc[nH+]3)CC2)n1C

> <Energy>
129.3159327115247

> <Genealogy>
C=c1c(=Cc2[n-]c(=O)[n-]c2[O-])cc(C(=O)N2CCN(C(=O)c3cccc[nH+]3)CC2)n1C (protonated)
C=c1/c(=C/c2[n-]c(=O)[n-]c2[O-])cc(C(=O)N2CCN(C(=O)c3cccc[nH+]3)CC2)n1C (cis-trans isomerization)
C=c1/c(=C/c2[n-]c(=O)[n-]c2[O-])cc(C(=O)N2CCN(C(=O)c3cccc[nH+]3)CC2)n1C (3D coordinates assigned)
C=c1/c(=C/c2[n-]c(=O)[n-]c2[O-])cc(C(=O)N2CCN(C(=O)c3cccc[nH+]3)CC2)n1C (nonaromatic ring conformer: 129.3159327115247 kcal/mol)

> <smiles>
C=c1c(=Cc2[nH]c(=O)[nH]c2O)cc(C(=O)N2CCN(C(=O)c3ccccn3)CC2)n1C

> <score_type>
oracle

> <origin>
adg

> <m_score__min__energy>
-16.300000000000001

> <m_primary>
energy

> <minimizedAffinity>
-7.13597

> <minimizedRMSD>
0.61579

> <CNNscore>
0.0770293921

> <CNNaffinity>
5.3527870178

> <CNN_VS>
0.4123219252

> <CNNaffinity_variance>
0.2764406800

$$$$
19:0


 33 36  0  0  0  0  0  0  0  0999 V2000
   58.3602   29.2295   53.0694 C   0  0  0  0  0  0  0  0  0  0  0  0
   59.0485   28.3268   53.6236 O   0  0  0  0  0  0  0  0  0  0  0  0
   58.9840   30.1259   52.1412 N   0  0  0  0  0  0  0  0  0  0  0  0
   58.6887   31.5645   52.1809 C   0  0  0  0  0  0  0  0  0  0  0  0
   58.4375   32.0915   50.7626 C   0  0  0  0  0  0  0  0  0  0  0  0
   59.3520   31.4776   49.7875 N   0  0  0  0  0  0  0  0  0  0  0  0
   60.5008   30.6986   50.2652 C   0  0  0  0  0  0  0  0  0  0  0  0
   60.0170   29.6125   51.2294 C   0  0  0  0  0  0  0  0  0  0  0  0
   53.8100   28.0450   54.2511 C   0  0  0  0  0  0  0  0  0  0  0  0
   54.8417   28.7296   53.7347 C   0  0  0  0  0  0  0  0  0  0  0  0
   54.8143   30.0380   53.2308 C   0  0  0  0  0  0  0  0  0  0  0  0
   53.7861   30.8556   52.9332 C   0  0  0  0  0  0  0  0  0  0  0  0
   56.1323   30.3941   53.0152 C   0  0  0  0  0  0  0  0  0  0  0  0
   56.9050   29.2908   53.3113 C   0  0  0  0  0  0  0  0  0  0  0  0
   56.1242   28.2781   53.7555 N   0  0  0  0  0  0  0  0  0  0  0  0
   56.5827   26.9710   54.2474 C   0  0  0  0  0  0  0  0  0  0  0  0
   52.8430   30.6863   51.8163 C   0  0  0  0  0  0  0  0  0  0  0  0
   53.0064   29.8293   50.7924 N   0  0  0  0  0  0  0  0  0  0  0  0
   51.9977   30.1459   49.9561 C   0  0  0  0  0  0  0  0  0  0  0  0
   51.8015   29.5428   48.8712 O   0  0  0  0  0  0  0  0  0  0  0  0
   51.2225   31.1715   50.3663 N   0  0  0  0  0  0  0  0  0  0  0  0
   51.7818   31.5096   51.5375 C   0  0  0  0  0  0  0  0  0  0  0  0
   51.3335   32.5579   52.3316 O   0  0  0  0  0  0  0  0  0  0  0  0
   59.0375   31.5509   48.3843 C   0  0  0  0  0  0  0  0  0  0  0  0
   58.6092   32.7610   47.8160 C   0  0  0  0  0  0  0  0  0  0  0  0
   58.2504   32.8220   46.4679 C   0  0  0  0  0  0  0  0  0  0  0  0
   58.2939   31.6697   45.6683 C   0  0  0  0  0  0  0  0  0  0  0  0
   58.7474   30.4660   46.2275 C   0  0  0  0  0  0  0  0  0  0  0  0
   59.1081   30.4047   47.5755 C   0  0  0  0  0  0  0  0  0  0  0  0
   57.9027   31.7137   44.2485 C   0  0  0  0  0  0  0  0  0  0  0  0
   58.1788   32.7383   43.5712 O   0  0  0  0  0  0  0  0  0  0  0  0
   57.2622   30.6124   43.5949 N   0  0  0  0  0  0  0  0  0  0  0  0
   56.0371   29.9705   44.0490 C   0  0  0  0  0  0  0  0  0  0  0  0
  9 10  2  0
 10 11  1  0
 11 12  2  0
 12 17  1  0
 17 18  1  0
 18 19  1  0
 19 20  2  0
 19 21  1  0
 21 22  1  0
 22 23  1  0
 11 13  1  0
 13 14  2  0
 14  1  1  0
  1  2  2  0
  1  3  1  0
  3  4  1  0
  4  5  1  0
  5  6  1  0
  6 24  1  0
 24 25  2  0
 25 26  1  0
 26 27  2  0
 27 30  1  0
 30 31  2  0
 30 32  1  0
 32 33  1  0
 27 28  1  0
 28 29  2  0
  6  7  1  0
  7  8  1  0
 14 15  1  0
 15 16  1  0
 15 10  1  0
 22 17  2  0
  8  3  1  0
 29 24  1  0
M  CHG 1  18  -1
M  CHG 1  21  -1
M  CHG 1  23  -1
M  CHG 1  32  -1
M  END
> <UniqueID>
20

> <SMILES>
C=c1c(=Cc2[n-]c(=O)[n-]c2[O-])cc(C(=O)N2CCN(c3ccc(C(=O)[N-]C)cc3)CC2)n1C

> <Energy>
141.61583465159154

> <Genealogy>
C=c1c(=Cc2[n-]c(=O)[n-]c2[O-])cc(C(=O)N2CCN(c3ccc(C(=O)[N-]C)cc3)CC2)n1C (protonated)
C=c1c(=Cc2[n-]c(=O)[n-]c2[O-])cc(C(=O)N2CCN(c3ccc(C(=O)[N-]C)cc3)CC2)n1C (3D coordinates assigned)
C=c1c(=Cc2[n-]c(=O)[n-]c2[O-])cc(C(=O)N2CCN(c3ccc(C(=O)[N-]C)cc3)CC2)n1C (nonaromatic ring conformer: 141.61583465159154 kcal/mol)

> <smiles>
C=c1c(=Cc2[nH]c(=O)[nH]c2O)cc(C(=O)N2CCN(c3ccc(C(=O)NC)cc3)CC2)n1C

> <score_type>
oracle

> <origin>
adg

> <m_score__min__energy>
-18.84

> <m_primary>
energy

> <minimizedAffinity>
-7.12741

> <minimizedRMSD>
0.85839

> <CNNscore>
0.0941269025

> <CNNaffinity>
6.0577464104

> <CNN_VS>
0.5701969266

> <CNNaffinity_variance>
0.4994319379

$$$$
20:0


 31 34  0  0  0  0  0  0  0  0999 V2000
   54.8934   28.7639   55.0604 C   0  0  0  0  0  0  0  0  0  0  0  0
   55.4633   29.3893   54.0178 C   0  0  0  0  0  0  0  0  0  0  0  0
   54.7835   30.1955   53.0954 C   0  0  0  0  0  0  0  0  0  0  0  0
   53.4593   30.4392   53.0344 C   0  0  0  0  0  0  0  0  0  0  0  0
   55.7381   30.6693   52.2132 C   0  0  0  0  0  0  0  0  0  0  0  0
   56.9463   30.1583   52.6278 C   0  0  0  0  0  0  0  0  0  0  0  0
   56.7964   29.3633   53.7178 N   0  0  0  0  0  0  0  0  0  0  0  0
   52.7072   30.5902   51.7766 C   0  0  0  0  0  0  0  0  0  0  0  0
   52.7923   29.7190   50.7558 N   0  0  0  0  0  0  0  0  0  0  0  0
   51.8819   30.1809   49.8716 C   0  0  0  0  0  0  0  0  0  0  0  0
   51.6719   29.6268   48.7621 O   0  0  0  0  0  0  0  0  0  0  0  0
   51.2032   31.2760   50.2767 N   0  0  0  0  0  0  0  0  0  0  0  0
   51.7270   31.5159   51.4890 C   0  0  0  0  0  0  0  0  0  0  0  0
   51.2838   32.5279   52.3313 O   0  0  0  0  0  0  0  0  0  0  0  0
   57.8903   28.5892   54.3495 C   0  0  0  0  0  0  0  0  0  0  0  0
   57.6224   27.0778   54.3308 C   0  0  0  0  0  0  0  0  0  0  0  0
   58.2307   29.1189   55.7474 C   0  0  0  0  0  0  0  0  0  0  0  0
   58.2256   30.4914   51.9739 C   0  0  0  0  0  0  0  0  0  0  0  0
   58.9293   29.5538   51.5053 O   0  0  0  0  0  0  0  0  0  0  0  0
   58.5919   31.8725   51.7350 N   0  0  0  0  0  0  0  0  0  0  0  0
   59.9195   32.1893   52.3316 C   0  0  0  0  0  0  0  0  0  0  0  0
   60.6734   33.2701   51.5505 C   0  0  0  0  0  0  0  0  0  0  0  0
   60.8625   32.8283   50.1634 N   0  0  0  0  0  0  0  0  0  0  0  0
   62.0713   33.1660   49.4482 C   0  0  0  0  0  0  0  0  0  0  0  0
   62.9311   33.9171   49.9859 O   0  0  0  0  0  0  0  0  0  0  0  0
   59.8031   32.0347   49.5258 C   0  0  0  0  0  0  0  0  0  0  0  0
   58.4741   32.1840   50.2852 C   0  0  0  0  0  0  0  0  0  0  0  0
   57.6684   31.5995   51.9394 H   0  0  0  0  0  0  0  0  0  0  0  0
   62.3570   32.5870   48.0872 C   0  0  0  0  0  0  0  0  0  0  0  0
   61.8329   33.4268   46.9310 C   0  0  0  0  0  0  0  0  0  0  0  0
   63.3227   33.3782   47.2121 C   0  0  0  0  0  0  0  0  0  0  0  0
  1  2  2  0
  2  3  1  0
  3  4  2  0
  4  8  1  0
  8  9  1  0
  9 10  1  0
 10 11  2  0
 10 12  1  0
 12 13  1  0
 13 14  1  0
  3  5  1  0
  5  6  2  0
  6 18  1  0
 18 19  2  0
 18 20  1  0
 20 21  1  0
 21 22  1  0
 22 23  1  0
 23 24  1  0
 24 25  2  0
 24 29  1  0
 29 30  1  0
 30 31  1  0
 23 26  1  0
 26 27  1  0
  6  7  1  0
  7 15  1  0
 15 16  1  0
 15 17  1  0
  7  2  1  0
 13  8  2  0
 27 20  1  0
 31 29  1  0
 20 28  1  0
M  CHG 1   9  -1
M  CHG 1  12  -1
M  CHG 1  14  -1
M  CHG 1  20   1
M  END
> <UniqueID>
21

> <SMILES>
C=c1/c(=C/c2[n-]c(=O)[n-]c2[O-])cc(C(=O)[NH+]2CCN(C(=O)C3CC3)CC2)n1C(C)C

> <Energy>
401.68847460439196

> <Genealogy>
C=c1c(=Cc2[n-]c(=O)[n-]c2[O-])cc(C(=O)[NH+]2CCN(C(=O)C3CC3)CC2)n1C(C)C (protonated)
C=c1/c(=C/c2[n-]c(=O)[n-]c2[O-])cc(C(=O)[NH+]2CCN(C(=O)C3CC3)CC2)n1C(C)C (cis-trans isomerization)
C=c1/c(=C/c2[n-]c(=O)[n-]c2[O-])cc(C(=O)[NH+]2CCN(C(=O)C3CC3)CC2)n1C(C)C (3D coordinates assigned)
C=c1/c(=C/c2[n-]c(=O)[n-]c2[O-])cc(C(=O)[NH+]2CCN(C(=O)C3CC3)CC2)n1C(C)C (nonaromatic ring conformer: 401.68847460439196 kcal/mol)

> <smiles>
C=c1c(=Cc2[nH]c(=O)[nH]c2O)cc(C(=O)N2CCN(C(=O)C3CC3)CC2)n1C(C)C

> <score_type>
oracle

> <origin>
adg

> <m_score__min__energy>
-16.579999999999998

> <m_primary>
energy

> <minimizedAffinity>
-6.39987

> <minimizedRMSD>
1.03540

> <CNNscore>
0.0958751887

> <CNNaffinity>
5.2182731628

> <CNN_VS>
0.5003029108

> <CNNaffinity_variance>
0.2796469927

$$$$
22:0


 31 34  0  0  0  0  0  0  0  0999 V2000
   60.1463   32.1499   47.0645 C   0  0  0  0  0  0  0  0  0  0  0  0
   60.3480   33.3121   46.6160 O   0  0  0  0  0  0  0  0  0  0  0  0
   60.6849   31.7746   48.3485 N   0  0  0  0  0  0  0  0  0  0  0  0
   61.8019   32.5430   48.9177 C   0  0  0  0  0  0  0  0  0  0  0  0
   62.7087   31.6387   49.7644 C   0  0  0  0  0  0  0  0  0  0  0  0
   61.9290   30.7332   50.6224 N   0  0  0  0  0  0  0  0  0  0  0  0
   60.4651   30.8147   50.6255 C   0  0  0  0  0  0  0  0  0  0  0  0
   59.9523   30.8078   49.1838 C   0  0  0  0  0  0  0  0  0  0  0  0
   56.8880   30.2313   44.0343 C   0  0  0  0  0  0  0  0  0  0  0  0
   57.9827   30.3384   44.8055 C   0  0  0  0  0  0  0  0  0  0  0  0
   58.8642   29.3088   45.1728 C   0  0  0  0  0  0  0  0  0  0  0  0
   58.9629   28.0323   44.7542 C   0  0  0  0  0  0  0  0  0  0  0  0
   59.7257   29.8543   46.1078 C   0  0  0  0  0  0  0  0  0  0  0  0
   59.3913   31.1853   46.2397 C   0  0  0  0  0  0  0  0  0  0  0  0
   58.3302   31.4842   45.4488 N   0  0  0  0  0  0  0  0  0  0  0  0
   57.6359   32.7742   45.3711 C   0  0  0  0  0  0  0  0  0  0  0  0
   58.3510   26.8631   45.4032 C   0  0  0  0  0  0  0  0  0  0  0  0
   58.9879   25.6935   45.5824 N   0  0  0  0  0  0  0  0  0  0  0  0
   58.0249   24.8883   46.0828 C   0  0  0  0  0  0  0  0  0  0  0  0
   58.2431   23.6901   46.4004 O   0  0  0  0  0  0  0  0  0  0  0  0
   56.8099   25.4632   46.2030 N   0  0  0  0  0  0  0  0  0  0  0  0
   57.0285   26.7087   45.7547 C   0  0  0  0  0  0  0  0  0  0  0  0
   56.0364   27.6753   45.6442 O   0  0  0  0  0  0  0  0  0  0  0  0
   62.6095   29.7132   51.3801 C   0  0  0  0  0  0  0  0  0  0  0  0
   63.9581   29.8728   51.7358 C   0  0  0  0  0  0  0  0  0  0  0  0
   64.6218   28.8782   52.4611 C   0  0  0  0  0  0  0  0  0  0  0  0
   63.9439   27.7038   52.8385 C   0  0  0  0  0  0  0  0  0  0  0  0
   62.6013   27.5441   52.4777 C   0  0  0  0  0  0  0  0  0  0  0  0
   61.9375   28.5387   51.7533 C   0  0  0  0  0  0  0  0  0  0  0  0
   64.5655   26.6776   53.5672 O   0  0  0  0  0  0  0  0  0  0  0  0
   65.9487   26.3527   53.4789 C   0  0  0  0  0  0  0  0  0  0  0  0
  9 10  2  0
 10 11  1  0
 11 12  2  0
 12 17  1  0
 17 18  1  0
 18 19  1  0
 19 20  2  0
 19 21  1  0
 21 22  1  0
 22 23  1  0
 11 13  1  0
 13 14  2  0
 14  1  1  0
  1  2  2  0
  1  3  1  0
  3  4  1  0
  4  5  1  0
  5  6  1  0
  6 24  1  0
 24 25  2  0
 25 26  1  0
 26 27  2  0
 27 30  1  0
 30 31  1  0
 27 28  1  0
 28 29  2  0
  6  7  1  0
  7  8  1  0
 14 15  1  0
 15 16  1  0
 15 10  1  0
 22 17  2  0
  8  3  1  0
 29 24  1  0
M  CHG 1  18  -1
M  CHG 1  21  -1
M  CHG 1  23  -1
M  END
> <UniqueID>
23

> <SMILES>
C=c1/c(=C\c2[n-]c(=O)[n-]c2[O-])cc(C(=O)N2CCN(c3ccc(OC)cc3)CC2)n1C

> <Energy>
135.7943018680752

> <Genealogy>
C=c1c(=Cc2[n-]c(=O)[n-]c2[O-])cc(C(=O)N2CCN(c3ccc(OC)cc3)CC2)n1C (protonated)
C=c1/c(=C\c2[n-]c(=O)[n-]c2[O-])cc(C(=O)N2CCN(c3ccc(OC)cc3)CC2)n1C (cis-trans isomerization)
C=c1/c(=C\c2[n-]c(=O)[n-]c2[O-])cc(C(=O)N2CCN(c3ccc(OC)cc3)CC2)n1C (3D coordinates assigned)
C=c1/c(=C\c2[n-]c(=O)[n-]c2[O-])cc(C(=O)N2CCN(c3ccc(OC)cc3)CC2)n1C (nonaromatic ring conformer: 135.7943018680752 kcal/mol)

> <smiles>
C=c1c(=Cc2[nH]c(=O)[nH]c2O)cc(C(=O)N2CCN(c3ccc(OC)cc3)CC2)n1C

> <score_type>
oracle

> <origin>
adg

> <m_score__min__energy>
-17.260000000000002

> <m_primary>
energy

> <minimizedAffinity>
-7.23383

> <minimizedRMSD>
0.92811

> <CNNscore>
0.1209305078

> <CNNaffinity>
6.1862711906

> <CNN_VS>
0.7481089234

> <CNNaffinity_variance>
0.1408870071

$$$$
27:0


 25 27  0  0  0  0  0  0  0  0999 V2000
   59.8963   24.2395   46.0903 C   0  0  0  0  0  0  0  0  0  0  0  0
   59.3009   25.4158   45.8044 C   0  0  0  0  0  0  0  0  0  0  0  0
   60.0037   26.5867   46.1501 C   0  0  0  0  0  0  0  0  0  0  0  0
   59.4491   27.8476   45.9589 C   0  0  0  0  0  0  0  0  0  0  0  0
   58.1726   27.9868   45.4059 C   0  0  0  0  0  0  0  0  0  0  0  0
   57.4681   26.8345   45.0240 C   0  0  0  0  0  0  0  0  0  0  0  0
   57.9960   25.5326   45.2145 C   0  0  0  0  0  0  0  0  0  0  0  0
   57.2930   24.4449   44.7917 C   0  0  0  0  0  0  0  0  0  0  0  0
   55.9674   24.0205   45.2939 C   0  0  0  0  0  0  0  0  0  0  0  0
   55.4331   22.7935   45.1373 N   0  0  0  0  0  0  0  0  0  0  0  0
   54.1883   22.9272   45.6445 C   0  0  0  0  0  0  0  0  0  0  0  0
   53.3704   21.9717   45.6899 O   0  0  0  0  0  0  0  0  0  0  0  0
   53.8869   24.1643   46.0911 N   0  0  0  0  0  0  0  0  0  0  0  0
   55.0178   24.8461   45.8495 C   0  0  0  0  0  0  0  0  0  0  0  0
   55.1803   26.1981   46.1285 O   0  0  0  0  0  0  0  0  0  0  0  0
   57.5759   29.3298   45.1729 C   0  0  0  0  0  0  0  0  0  0  0  0
   56.3181   29.4348   45.1177 O   0  0  0  0  0  0  0  0  0  0  0  0
   58.3962   30.5137   44.9983 N   0  0  0  0  0  0  0  0  0  0  0  0
   57.5796   31.5756   44.3545 C   0  0  0  0  0  0  0  0  0  0  0  0
   58.2626   32.9463   44.4127 C   0  0  0  0  0  0  0  0  0  0  0  0
   58.5848   33.2930   45.8349 C   0  0  0  0  0  0  0  0  0  0  0  0
   58.8908   34.4354   46.1378 O   0  0  0  0  0  0  0  0  0  0  0  0
   58.5122   32.2229   46.8830 C   0  0  0  0  0  0  0  0  0  0  0  0
   59.0415   30.9067   46.2916 C   0  0  0  0  0  0  0  0  0  0  0  0
   58.4045   30.0522   45.8679 H   0  0  0  0  0  0  0  0  0  0  0  0
  1  2  2  0
  2  3  1  0
  3  4  2  0
  4  5  1  0
  5 16  1  0
 16 17  2  0
 16 18  1  0
 18 19  1  0
 19 20  1  0
 20 21  1  0
 21 22  2  0
 21 23  1  0
 23 24  1  0
  5  6  2  0
  6  7  1  0
  7  8  2  0
  8  9  1  0
  9 10  1  0
 10 11  1  0
 11 12  2  0
 11 13  1  0
 13 14  1  0
 14 15  1  0
  7  2  1  0
 14  9  2  0
 24 18  1  0
 18 25  1  0
M  CHG 1  10  -1
M  CHG 1  13  -1
M  CHG 1  15  -1
M  CHG 1  18   1
M  END
> <UniqueID>
28

> <SMILES>
C=c1ccc(C(=O)[NH+]2CCC(=O)CC2)c/c1=C\c1[n-]c(=O)[n-]c1[O-]

> <Energy>
96.8063391677668

> <Genealogy>
C=c1ccc(C(=O)[NH+]2CCC(=O)CC2)cc1=Cc1[n-]c(=O)[n-]c1[O-] (protonated)
C=c1ccc(C(=O)[NH+]2CCC(=O)CC2)c/c1=C\c1[n-]c(=O)[n-]c1[O-] (cis-trans isomerization)
C=c1ccc(C(=O)[NH+]2CCC(=O)CC2)c/c1=C\c1[n-]c(=O)[n-]c1[O-] (3D coordinates assigned)
C=c1ccc(C(=O)[NH+]2CCC(=O)CC2)c/c1=C\c1[n-]c(=O)[n-]c1[O-] (nonaromatic ring conformer: 96.8063391677668 kcal/mol)

> <smiles>
C=c1ccc(C(=O)N2CCC(=O)CC2)cc1=Cc1[nH]c(=O)[nH]c1O

> <score_type>
oracle

> <origin>
adg

> <m_score__min__energy>
-15.48

> <m_primary>
energy

> <minimizedAffinity>
-6.36107

> <minimizedRMSD>
0.60096

> <CNNscore>
0.0777614936

> <CNNaffinity>
5.5402970314

> <CNN_VS>
0.4308217764

> <CNNaffinity_variance>
0.1002355888

$$$$
35:0


 30 33  0  0  0  0  0  0  0  0999 V2000
   60.6616   27.2612   49.0816 C   0  0  0  0  0  0  0  0  0  0  0  0
   59.9788   28.1367   48.3270 C   0  0  0  0  0  0  0  0  0  0  0  0
   59.2463   27.8331   47.1740 C   0  0  0  0  0  0  0  0  0  0  0  0
   59.1305   26.6326   46.5712 C   0  0  0  0  0  0  0  0  0  0  0  0
   58.7011   29.0283   46.7324 C   0  0  0  0  0  0  0  0  0  0  0  0
   59.0913   29.9994   47.6300 C   0  0  0  0  0  0  0  0  0  0  0  0
   59.8805   29.4672   48.5974 N   0  0  0  0  0  0  0  0  0  0  0  0
   57.9561   25.7520   46.7084 C   0  0  0  0  0  0  0  0  0  0  0  0
   57.9588   24.6295   47.4498 N   0  0  0  0  0  0  0  0  0  0  0  0
   56.6840   24.1938   47.3653 C   0  0  0  0  0  0  0  0  0  0  0  0
   56.2881   23.1411   47.9292 O   0  0  0  0  0  0  0  0  0  0  0  0
   55.8618   24.9814   46.6381 N   0  0  0  0  0  0  0  0  0  0  0  0
   56.6790   25.9710   46.2399 C   0  0  0  0  0  0  0  0  0  0  0  0
   56.2514   27.0693   45.5058 O   0  0  0  0  0  0  0  0  0  0  0  0
   58.7315   31.4255   47.4900 C   0  0  0  0  0  0  0  0  0  0  0  0
   58.1786   32.0064   48.4648 O   0  0  0  0  0  0  0  0  0  0  0  0
   59.1141   32.1770   46.3133 N   0  0  0  0  0  0  0  0  0  0  0  0
   58.0044   32.3624   45.3713 C   0  0  0  0  0  0  0  0  0  0  0  0
   58.3077   33.6344   44.5879 C   0  0  0  0  0  0  0  0  0  0  0  0
   59.3340   34.3898   45.4202 C   0  0  0  0  0  0  0  0  0  0  0  0
   59.5693   33.5294   46.6540 C   0  0  0  0  0  0  0  0  0  0  0  0
   59.3623   31.2278   46.2314 H   0  0  0  0  0  0  0  0  0  0  0  0
   60.5925   30.2169   49.6467 C   0  0  0  0  0  0  0  0  0  0  0  0
   61.4694   31.3165   49.0915 C   0  0  0  0  0  0  0  0  0  0  0  0
   62.2459   31.1468   47.9281 C   0  0  0  0  0  0  0  0  0  0  0  0
   63.0365   32.1961   47.4468 C   0  0  0  0  0  0  0  0  0  0  0  0
   63.0504   33.4251   48.1093 C   0  0  0  0  0  0  0  0  0  0  0  0
   63.8200   34.4395   47.6421 F   0  0  0  0  0  0  0  0  0  0  0  0
   62.2688   33.6111   49.2508 C   0  0  0  0  0  0  0  0  0  0  0  0
   61.4755   32.5668   49.7358 C   0  0  0  0  0  0  0  0  0  0  0  0
  1  2  2  0
  2  3  1  0
  3  4  2  0
  4  8  1  0
  8  9  1  0
  9 10  1  0
 10 11  2  0
 10 12  1  0
 12 13  1  0
 13 14  1  0
  3  5  1  0
  5  6  2  0
  6 15  1  0
 15 16  2  0
 15 17  1  0
 17 18  1  0
 18 19  1  0
 19 20  1  0
 20 21  1  0
  6  7  1  0
  7 23  1  0
 23 24  1  0
 24 25  2  0
 25 26  1  0
 26 27  2  0
 27 28  1  0
 27 29  1  0
 29 30  2  0
  7  2  1  0
 30 24  1  0
 13  8  2  0
 21 17  1  0
 17 22  1  0
M  CHG 1   9  -1
M  CHG 1  12  -1
M  CHG 1  14  -1
M  CHG 1  17   1
M  END
> <UniqueID>
36

> <SMILES>
C=c1c(=Cc2[n-]c(=O)[n-]c2[O-])cc(C(=O)[NH+]2CCCC2)n1Cc1ccc(F)cc1

> <Energy>
126.32266369147024

> <Genealogy>
C=c1c(=Cc2[n-]c(=O)[n-]c2[O-])cc(C(=O)[NH+]2CCCC2)n1Cc1ccc(F)cc1 (protonated)
C=c1c(=Cc2[n-]c(=O)[n-]c2[O-])cc(C(=O)[NH+]2CCCC2)n1Cc1ccc(F)cc1 (3D coordinates assigned)
C=c1c(=Cc2[n-]c(=O)[n-]c2[O-])cc(C(=O)[NH+]2CCCC2)n1Cc1ccc(F)cc1 (nonaromatic ring conformer: 126.32266369147024 kcal/mol)

> <smiles>
C=c1c(=Cc2[nH]c(=O)[nH]c2O)cc(C(=O)N2CCCC2)n1Cc1ccc(F)cc1

> <score_type>
oracle

> <origin>
adg

> <m_score__min__energy>
-15.6

> <m_primary>
energy

> <minimizedAffinity>
-7.47784

> <minimizedRMSD>
1.12059

> <CNNscore>
0.4429529905

> <CNNaffinity>
6.8912520409

> <CNN_VS>
3.0525007248

> <CNNaffinity_variance>
0.0148219140

$$$$
48:0


 31 34  0  0  0  0  0  0  0  0999 V2000
   58.4177   30.3725   46.0205 C   0  0  0  0  0  0  0  0  0  0  0  0
   57.4763   31.1810   45.7965 O   0  0  0  0  0  0  0  0  0  0  0  0
   59.5468   30.8018   46.8064 N   0  0  0  0  0  0  0  0  0  0  0  0
   59.8998   32.2254   46.8402 C   0  0  0  0  0  0  0  0  0  0  0  0
   61.3268   32.4080   47.3768 C   0  0  0  0  0  0  0  0  0  0  0  0
   61.5498   31.7632   48.6986 N   0  0  0  0  0  0  0  0  0  0  0  0
   60.6077   30.6621   49.0131 C   0  0  0  0  0  0  0  0  0  0  0  0
   60.1911   29.8876   47.7599 C   0  0  0  0  0  0  0  0  0  0  0  0
   58.2037   26.8457   42.7848 C   0  0  0  0  0  0  0  0  0  0  0  0
   58.1842   27.4132   43.9959 C   0  0  0  0  0  0  0  0  0  0  0  0
   58.1519   28.7529   44.1513 N   0  0  0  0  0  0  0  0  0  0  0  0
   58.3274   29.0085   45.4619 C   0  0  0  0  0  0  0  0  0  0  0  0
   58.4813   27.8276   46.1637 C   0  0  0  0  0  0  0  0  0  0  0  0
   58.3467   26.7970   45.2456 C   0  0  0  0  0  0  0  0  0  0  0  0
   58.3786   25.4968   45.5947 C   0  0  0  0  0  0  0  0  0  0  0  0
   58.0237   29.4201   43.4388 H   0  0  0  0  0  0  0  0  0  0  0  0
   57.2145   24.5978   45.6529 C   0  0  0  0  0  0  0  0  0  0  0  0
   57.2303   23.2985   45.3001 N   0  0  0  0  0  0  0  0  0  0  0  0
   55.9302   22.9392   45.3798 C   0  0  0  0  0  0  0  0  0  0  0  0
   55.5346   21.7696   45.1338 O   0  0  0  0  0  0  0  0  0  0  0  0
   55.0867   23.9336   45.7306 N   0  0  0  0  0  0  0  0  0  0  0  0
   55.9145   24.9790   45.8857 C   0  0  0  0  0  0  0  0  0  0  0  0
   55.4921   26.2565   46.2271 O   0  0  0  0  0  0  0  0  0  0  0  0
   61.5839   32.7460   49.8007 C   0  0  0  0  0  0  0  0  0  0  0  0
   62.9967   32.9519   50.2789 C   0  0  0  0  0  0  0  0  0  0  0  0
   64.0508   32.1864   49.7520 C   0  0  0  0  0  0  0  0  0  0  0  0
   65.3587   32.3788   50.2084 C   0  0  0  0  0  0  0  0  0  0  0  0
   65.6239   33.3363   51.1939 C   0  0  0  0  0  0  0  0  0  0  0  0
   67.2655   33.5749   51.7659 Cl  0  0  0  0  0  0  0  0  0  0  0  0
   64.5791   34.1001   51.7225 C   0  0  0  0  0  0  0  0  0  0  0  0
   63.2714   33.9106   51.2683 C   0  0  0  0  0  0  0  0  0  0  0  0
  9 10  2  0
 10 11  1  0
 11 12  1  0
 12  1  1  0
  1  2  2  0
  1  3  1  0
  3  4  1  0
  4  5  1  0
  5  6  1  0
  6 24  1  0
 24 25  1  0
 25 26  2  0
 26 27  1  0
 27 28  2  0
 28 29  1  0
 28 30  1  0
 30 31  2  0
  6  7  1  0
  7  8  1  0
 12 13  2  0
 13 14  1  0
 14 15  2  0
 15 17  1  0
 17 18  1  0
 18 19  1  0
 19 20  2  0
 19 21  1  0
 21 22  1  0
 22 23  1  0
 14 10  1  0
 22 17  2  0
  8  3  1  0
 31 25  1  0
 11 16  1  0
M  CHG 1  18  -1
M  CHG 1  21  -1
M  CHG 1  23  -1
M  END
> <UniqueID>
49

> <SMILES>
C=c1[nH]c(C(=O)N2CCN(Cc3ccc(Cl)cc3)CC2)cc1=Cc1[n-]c(=O)[n-]c1[O-]

> <Energy>
129.19104823563075

> <Genealogy>
C=c1[nH]c(C(=O)N2CCN(Cc3ccc(Cl)cc3)CC2)cc1=Cc1[n-]c(=O)[n-]c1[O-] (protonated)
C=c1[nH]c(C(=O)N2CCN(Cc3ccc(Cl)cc3)CC2)cc1=Cc1[n-]c(=O)[n-]c1[O-] (3D coordinates assigned)
C=c1[nH]c(C(=O)N2CCN(Cc3ccc(Cl)cc3)CC2)cc1=Cc1[n-]c(=O)[n-]c1[O-] (nonaromatic ring conformer: 129.19104823563075 kcal/mol)

> <smiles>
C=c1[nH]c(C(=O)N2CCN(Cc3ccc(Cl)cc3)CC2)cc1=Cc1[nH]c(=O)[nH]c1O

> <score_type>
oracle

> <origin>
adg

> <m_score__min__energy>
-17.809999999999999

> <m_primary>
energy

> <minimizedAffinity>
-8.49380

> <minimizedRMSD>
0.95528

> <CNNscore>
0.0827739462

> <CNNaffinity>
6.5224318504

> <CNN_VS>
0.5398874283

> <CNNaffinity_variance>
0.2232509404

$$$$
52:0


 35 38  0  0  0  0  0  0  0  0999 V2000
   58.2471   31.1832   53.7614 C   0  0  0  0  0  0  0  0  0  0  0  0
   58.6084   31.5750   54.9042 O   0  0  0  0  0  0  0  0  0  0  0  0
   58.9567   31.6456   52.6000 N   0  0  0  0  0  0  0  0  0  0  0  0
   58.2298   32.3058   51.5067 C   0  0  0  0  0  0  0  0  0  0  0  0
   58.8154   31.9226   50.1312 C   0  0  0  0  0  0  0  0  0  0  0  0
   60.1247   31.2464   50.2506 N   0  0  0  0  0  0  0  0  0  0  0  0
   60.9955   31.9197   51.2287 C   0  0  0  0  0  0  0  0  0  0  0  0
   60.4235   31.7013   52.6333 C   0  0  0  0  0  0  0  0  0  0  0  0
   53.8015   30.0778   52.1409 C   0  0  0  0  0  0  0  0  0  0  0  0
   54.8704   29.6868   52.8786 C   0  0  0  0  0  0  0  0  0  0  0  0
   55.9077   30.6230   53.0513 C   0  0  0  0  0  0  0  0  0  0  0  0
   57.1140   30.2431   53.6458 C   0  0  0  0  0  0  0  0  0  0  0  0
   57.2617   28.9648   54.0704 N   0  0  0  0  0  0  0  0  0  0  0  0
   56.2632   28.0865   54.0019 N   0  0  0  0  0  0  0  0  0  0  0  0
   55.0504   28.3989   53.4717 C   0  0  0  0  0  0  0  0  0  0  0  0
   54.0642   27.5089   53.6482 C   0  0  0  0  0  0  0  0  0  0  0  0
   51.8013   31.8995   50.6449 O   0  0  0  0  0  0  0  0  0  0  0  0
   51.6956   31.5207   51.9800 C   0  0  0  0  0  0  0  0  0  0  0  0
   50.7378   31.9651   52.8103 N   0  0  0  0  0  0  0  0  0  0  0  0
   51.0718   31.3879   53.9836 C   0  0  0  0  0  0  0  0  0  0  0  0
   50.4098   31.5681   55.0389 O   0  0  0  0  0  0  0  0  0  0  0  0
   52.1789   30.6153   53.9408 N   0  0  0  0  0  0  0  0  0  0  0  0
   52.5567   30.6803   52.6531 C   0  0  0  0  0  0  0  0  0  0  0  0
   51.1663   32.4778   50.2704 H   0  0  0  0  0  0  0  0  0  0  0  0
   60.7766   31.0011   48.9453 C   0  0  0  0  0  0  0  0  0  0  0  0
   59.8997   31.3132   47.7491 C   0  0  0  0  0  0  0  0  0  0  0  0
   59.9186   32.5905   47.1698 C   0  0  0  0  0  0  0  0  0  0  0  0
   59.1208   32.8748   46.0605 C   0  0  0  0  0  0  0  0  0  0  0  0
   58.2926   31.8820   45.5036 C   0  0  0  0  0  0  0  0  0  0  0  0
   58.2697   30.5993   46.0736 C   0  0  0  0  0  0  0  0  0  0  0  0
   59.0821   30.3187   47.1899 C   0  0  0  0  0  0  0  0  0  0  0  0
   57.4798   32.1298   44.3865 O   0  0  0  0  0  0  0  0  0  0  0  0
   57.9128   32.0228   43.0345 C   0  0  0  0  0  0  0  0  0  0  0  0
   57.4305   29.6297   45.5013 O   0  0  0  0  0  0  0  0  0  0  0  0
   57.8774   28.5706   44.6616 C   0  0  0  0  0  0  0  0  0  0  0  0
 17 18  1  0
 18 19  1  0
 19 20  1  0
 20 21  2  0
 20 22  1  0
 22 23  1  0
 23  9  1  0
  9 10  2  0
 10 11  1  0
 11 12  2  0
 12  1  1  0
  1  2  2  0
  1  3  1  0
  3  4  1  0
  4  5  1  0
  5  6  1  0
  6 25  1  0
 25 26  1  0
 26 27  2  0
 27 28  1  0
 28 29  2  0
 29 32  1  0
 32 33  1  0
 29 30  1  0
 30 34  1  0
 34 35  1  0
 30 31  2  0
  6  7  1  0
  7  8  1  0
 12 13  1  0
 13 14  2  0
 14 15  1  0
 15 16  2  0
 23 18  2  0
 15 10  1  0
  8  3  1  0
 31 26  1  0
 17 24  1  0
M  CHG 1  19  -1
M  CHG 1  22  -1
M  END
> <UniqueID>
53

> <SMILES>
C=c1nnc(C(=O)N2CCN(Cc3ccc(OC)c(OC)c3)CC2)c/c1=C/c1[n-]c(=O)[n-]c1O

> <Energy>
121.20426519171149

> <Genealogy>
C=c1nnc(C(=O)N2CCN(Cc3ccc(OC)c(OC)c3)CC2)cc1=Cc1[n-]c(=O)[n-]c1O (protonated)
C=c1nnc(C(=O)N2CCN(Cc3ccc(OC)c(OC)c3)CC2)c/c1=C/c1[n-]c(=O)[n-]c1O (cis-trans isomerization)
C=c1nnc(C(=O)N2CCN(Cc3ccc(OC)c(OC)c3)CC2)c/c1=C/c1[n-]c(=O)[n-]c1O (3D coordinates assigned)
C=c1nnc(C(=O)N2CCN(Cc3ccc(OC)c(OC)c3)CC2)c/c1=C/c1[n-]c(=O)[n-]c1O (nonaromatic ring conformer: 121.20426519171149 kcal/mol)

> <smiles>
C=c1nnc(C(=O)N2CCN(Cc3ccc(OC)c(OC)c3)CC2)cc1=Cc1[nH]c(=O)[nH]c1O

> <score_type>
oracle

> <origin>
adg

> <m_score__min__energy>
-14.15

> <m_primary>
energy

> <minimizedAffinity>
-7.91392

> <minimizedRMSD>
0.92315

> <CNNscore>
0.1221397817

> <CNNaffinity>
5.3278751373

> <CNN_VS>
0.6507455111

> <CNNaffinity_variance>
1.0172868967

$$$$
57:0


 27 29  0  0  0  0  0  0  0  0999 V2000
   60.5827   26.2218   46.5539 C   0  0  0  0  0  0  0  0  0  0  0  0
   59.7565   27.3786   46.0626 C   0  0  0  0  0  0  0  0  0  0  0  0
   60.3996   28.4230   45.3780 C   0  0  0  0  0  0  0  0  0  0  0  0
   59.6858   29.5467   44.9605 C   0  0  0  0  0  0  0  0  0  0  0  0
   58.3150   29.6462   45.2150 C   0  0  0  0  0  0  0  0  0  0  0  0
   57.6593   28.6041   45.8815 C   0  0  0  0  0  0  0  0  0  0  0  0
   58.3571   27.4539   46.2758 C   0  0  0  0  0  0  0  0  0  0  0  0
   57.4144   31.0722   44.6895 S   0  0  0  0  0  0  0  0  0  0  0  0
   57.9521   31.5368   43.3652 O   0  0  0  0  0  0  0  0  0  0  0  0
   55.9690   30.7020   44.4983 O   0  0  0  0  0  0  0  0  0  0  0  0
   57.5381   32.3763   45.8478 N   0  0  0  0  0  0  0  0  0  0  0  0
   58.6459   32.1208   46.7960 C   0  0  0  0  0  0  0  0  0  0  0  0
   59.0481   33.3959   47.5424 C   0  0  0  0  0  0  0  0  0  0  0  0
   59.5627   34.4702   46.5662 C   0  0  0  0  0  0  0  0  0  0  0  0
   58.9992   34.2998   45.1452 C   0  0  0  0  0  0  0  0  0  0  0  0
   57.5868   33.6992   45.1785 C   0  0  0  0  0  0  0  0  0  0  0  0
   57.6203   26.4082   46.9277 N   0  0  0  0  0  0  0  0  0  0  0  0
   56.4299   25.7791   46.4315 C   0  0  0  0  0  0  0  0  0  0  0  0
   55.4943   26.5070   46.0096 O   0  0  0  0  0  0  0  0  0  0  0  0
   56.2726   24.3105   46.3833 C   0  0  0  0  0  0  0  0  0  0  0  0
   57.3541   23.4624   46.1109 C   0  0  0  0  0  0  0  0  0  0  0  0
   57.1333   22.0834   46.0838 C   0  0  0  0  0  0  0  0  0  0  0  0
   58.0849   21.2934   45.8516 O   0  0  0  0  0  0  0  0  0  0  0  0
   55.8871   21.5927   46.3043 N   0  0  0  0  0  0  0  0  0  0  0  0
   54.8431   22.4274   46.5468 C   0  0  0  0  0  0  0  0  0  0  0  0
   53.3513   21.8153   46.8000 S   0  0  0  0  0  0  0  0  0  0  0  0
   55.0393   23.7715   46.5801 N   0  0  0  0  0  0  0  0  0  0  0  0
  1  2  1  0
  2  3  2  0
  3  4  1  0
  4  5  2  0
  5  8  1  0
  8  9  2  0
  8 10  2  0
  8 11  1  0
 11 12  1  0
 12 13  1  0
 13 14  1  0
 14 15  1  0
 15 16  1  0
  5  6  1  0
  6  7  2  0
  7 17  1  0
 17 18  1  0
 18 19  2  0
 18 20  1  0
 20 21  2  0
 21 22  1  0
 22 23  2  0
 22 24  1  0
 24 25  1  0
 25 26  2  0
 25 27  1  0
  7  2  1  0
 27 20  1  0
 16 11  1  0
M  CHG 1  17  -1
M  CHG 1  24  -1
M  CHG 1  27  -1
M  END
> <UniqueID>
57

> <SMILES>
Cc1ccc(S(=O)(=O)N2CCCCC2)cc1[N-]C(=O)c1cc(=O)[n-]c(=S)[n-]1

> <Energy>
57.90171107537206

> <Genealogy>
Cc1ccc(S(=O)(=O)N2CCCCC2)cc1[N-]C(=O)c1cc(=O)[n-]c(=S)[n-]1 (protonated)
Cc1ccc(S(=O)(=O)N2CCCCC2)cc1[N-]C(=O)c1cc(=O)[n-]c(=S)[n-]1 (3D coordinates assigned)
Cc1ccc(S(=O)(=O)N2CCCCC2)cc1[N-]C(=O)c1cc(=O)[n-]c(=S)[n-]1 (nonaromatic ring conformer: 57.90171107537206 kcal/mol)

> <smiles>
Cc1ccc(S(=O)(=O)N2CCCCC2)cc1NC(=O)c1cc(=O)[nH]c(=S)[nH]1

> <score_type>
oracle

> <origin>
adg

> <m_score__min__energy>
-14.94

> <m_primary>
energy

> <minimizedAffinity>
-8.64833

> <minimizedRMSD>
0.74270

> <CNNscore>
0.3999508917

> <CNNaffinity>
6.1953854561

> <CNN_VS>
2.4778499603

> <CNNaffinity_variance>
0.0559376478

$$$$
65:0


 25 27  0  0  0  0  0  0  0  0999 V2000
   57.6262   28.8537   43.8361 C   0  0  0  0  0  0  0  0  0  0  0  0
   58.0045   28.6326   45.1062 C   0  0  0  0  0  0  0  0  0  0  0  0
   58.2394   27.3833   45.6879 C   0  0  0  0  0  0  0  0  0  0  0  0
   58.0599   26.1717   45.1266 C   0  0  0  0  0  0  0  0  0  0  0  0
   58.6566   27.6331   46.9865 C   0  0  0  0  0  0  0  0  0  0  0  0
   58.6670   29.0048   47.1479 C   0  0  0  0  0  0  0  0  0  0  0  0
   58.2520   29.6152   46.0112 N   0  0  0  0  0  0  0  0  0  0  0  0
   58.1131   31.0618   45.8020 C   0  0  0  0  0  0  0  0  0  0  0  0
   59.1318   29.6852   48.3763 C   0  0  0  0  0  0  0  0  0  0  0  0
   58.7576   29.2539   49.5011 O   0  0  0  0  0  0  0  0  0  0  0  0
   59.9427   30.8742   48.3045 N   0  0  0  0  0  0  0  0  0  0  0  0
   61.2580   30.8031   47.6610 C   0  0  0  0  0  0  0  0  0  0  0  0
   62.1469   31.9408   48.0797 C   0  0  0  0  0  0  0  0  0  0  0  0
   63.3647   31.9068   47.7493 O   0  0  0  0  0  0  0  0  0  0  0  0
   61.6249   33.0778   48.7964 N   0  0  0  0  0  0  0  0  0  0  0  0
   62.5125   34.2001   49.1117 C   0  0  0  0  0  0  0  0  0  0  0  0
   60.2701   33.0510   49.3598 C   0  0  0  0  0  0  0  0  0  0  0  0
   59.3396   32.1932   48.5084 C   0  0  0  0  0  0  0  0  0  0  0  0
   57.3441   25.0602   45.7787 C   0  0  0  0  0  0  0  0  0  0  0  0
   57.9422   23.9154   46.1518 N   0  0  0  0  0  0  0  0  0  0  0  0
   56.9518   23.2310   46.7660 C   0  0  0  0  0  0  0  0  0  0  0  0
   57.1239   22.0821   47.2513 O   0  0  0  0  0  0  0  0  0  0  0  0
   55.7692   23.8784   46.8308 N   0  0  0  0  0  0  0  0  0  0  0  0
   56.0358   25.0389   46.2117 C   0  0  0  0  0  0  0  0  0  0  0  0
   55.1151   26.0727   46.0900 O   0  0  0  0  0  0  0  0  0  0  0  0
  1  2  2  0
  2  3  1  0
  3  4  2  0
  4 19  1  0
 19 20  1  0
 20 21  1  0
 21 22  2  0
 21 23  1  0
 23 24  1  0
 24 25  1  0
  3  5  1  0
  5  6  2  0
  6  9  1  0
  9 10  2  0
  9 11  1  0
 11 12  1  0
 12 13  1  0
 13 14  2  0
 13 15  1  0
 15 16  1  0
 15 17  1  0
 17 18  1  0
  6  7  1  0
  7  8  1  0
  7  2  1  0
 24 19  2  0
 18 11  1  0
M  CHG 1  20  -1
M  CHG 1  23  -1
M  CHG 1  25  -1
M  END
> <UniqueID>
65

> <SMILES>
C=c1/c(=C/c2[n-]c(=O)[n-]c2[O-])cc(C(=O)N2CCN(C)C(=O)C2)n1C

> <Energy>
110.78073149669429

> <Genealogy>
C=c1c(=Cc2[n-]c(=O)[n-]c2[O-])cc(C(=O)N2CCN(C)C(=O)C2)n1C (protonated)
C=c1/c(=C/c2[n-]c(=O)[n-]c2[O-])cc(C(=O)N2CCN(C)C(=O)C2)n1C (cis-trans isomerization)
C=c1/c(=C/c2[n-]c(=O)[n-]c2[O-])cc(C(=O)N2CCN(C)C(=O)C2)n1C (3D coordinates assigned)
C=c1/c(=C/c2[n-]c(=O)[n-]c2[O-])cc(C(=O)N2CCN(C)C(=O)C2)n1C (nonaromatic ring conformer: 110.78073149669429 kcal/mol)

> <smiles>
C=c1c(=Cc2[nH]c(=O)[nH]c2O)cc(C(=O)N2CCN(C)C(=O)C2)n1C

> <score_type>
oracle

> <origin>
adg

> <m_score__min__energy>
-16.48

> <m_primary>
energy

> <minimizedAffinity>
-8.03875

> <minimizedRMSD>
1.21105

> <CNNscore>
0.0828446969

> <CNNaffinity>
5.4054026604

> <CNN_VS>
0.4478089511

> <CNNaffinity_variance>
0.0086278366

$$$$
69:0


 34 37  0  0  0  0  0  0  0  0999 V2000
   58.8460   30.9126   51.3477 N   0  0  0  0  0  0  0  0  0  0  0  0
   60.2667   30.5761   51.4989 C   0  0  0  0  0  0  0  0  0  0  0  0
   60.8792   30.2240   50.1357 C   0  0  0  0  0  0  0  0  0  0  0  0
   60.3191   31.0828   48.9660 C   0  0  0  0  0  0  0  0  0  0  0  0
   59.5888   32.3511   49.4595 C   0  0  0  0  0  0  0  0  0  0  0  0
   58.4620   32.0136   50.4534 C   0  0  0  0  0  0  0  0  0  0  0  0
   55.5235   29.9245   52.7703 C   0  0  0  0  0  0  0  0  0  0  0  0
   55.9300   28.8982   53.5663 N   0  0  0  0  0  0  0  0  0  0  0  0
   57.2358   28.5287   53.6393 C   0  0  0  0  0  0  0  0  0  0  0  0
   57.6347   27.3732   54.4945 C   0  0  0  0  0  0  0  0  0  0  0  0
   58.1671   29.1825   52.8982 N   0  0  0  0  0  0  0  0  0  0  0  0
   57.8235   30.2165   52.0821 C   0  0  0  0  0  0  0  0  0  0  0  0
   56.4818   30.6200   52.0162 C   0  0  0  0  0  0  0  0  0  0  0  0
   52.0716   32.0406   49.7378 H   0  0  0  0  0  0  0  0  0  0  0  0
   51.5412   31.5879   50.5150 N   0  0  0  0  0  0  0  0  0  0  0  0
   52.1212   31.1336   51.5810 C   0  0  0  0  0  0  0  0  0  0  0  0
   51.3939   30.9767   52.7191 N   0  0  0  0  0  0  0  0  0  0  0  0
   51.9468   30.4933   53.8602 C   0  0  0  0  0  0  0  0  0  0  0  0
   53.2978   30.1419   53.8927 C   0  0  0  0  0  0  0  0  0  0  0  0
   54.0876   30.3022   52.7421 C   0  0  0  0  0  0  0  0  0  0  0  0
   53.4833   30.7961   51.5712 C   0  0  0  0  0  0  0  0  0  0  0  0
   59.4276   30.2724   48.0573 C   0  0  0  0  0  0  0  0  0  0  0  0
   59.6203   29.0314   47.9237 O   0  0  0  0  0  0  0  0  0  0  0  0
   58.3165   30.9091   47.4141 N   0  0  0  0  0  0  0  0  0  0  0  0
   58.3413   31.6213   46.1658 C   0  0  0  0  0  0  0  0  0  0  0  0
   58.8002   32.9529   46.1128 C   0  0  0  0  0  0  0  0  0  0  0  0
   58.7916   33.6604   44.9112 C   0  0  0  0  0  0  0  0  0  0  0  0
   58.3088   33.0612   43.7503 C   0  0  0  0  0  0  0  0  0  0  0  0
   57.8226   31.7544   43.7861 C   0  0  0  0  0  0  0  0  0  0  0  0
   57.8270   31.0145   44.9872 C   0  0  0  0  0  0  0  0  0  0  0  0
   57.3049   29.6201   44.9777 C   0  0  0  0  0  0  0  0  0  0  0  0
   58.0905   28.6361   44.9977 O   0  0  0  0  0  0  0  0  0  0  0  0
   55.8993   29.3768   44.9298 N   0  0  0  0  0  0  0  0  0  0  0  0
   55.2691   30.1330   44.9136 H   0  0  0  0  0  0  0  0  0  0  0  0
 14 15  1  0
 15 16  2  0
 16 17  1  0
 17 18  1  0
 18 19  2  0
 19 20  1  0
 20  7  1  0
  7  8  2  0
  8  9  1  0
  9 10  1  0
  9 11  2  0
 11 12  1  0
 12  1  1  0
  1  2  1  0
  2  3  1  0
  3  4  1  0
  4 22  1  0
 22 23  2  0
 22 24  1  0
 24 25  1  0
 25 26  2  0
 26 27  1  0
 27 28  2  0
 28 29  1  0
 29 30  2  0
 30 31  1  0
 31 32  2  0
 31 33  1  0
  4  5  1  0
  5  6  1  0
 12 13  2  0
 20 21  2  0
 21 16  1  0
 13  7  1  0
  6  1  1  0
 30 25  1  0
 33 34  1  0
M  CHG 1  17  -1
M  CHG 1  24  -1
M  CHG 1  33  -1
M  END
> <UniqueID>
67

> <SMILES>
[H]/N=c1\cc(-c2cc(N3CCC(C(=O)[N-]c4ccccc4C([NH-])=O)CC3)nc(C)n2)cc[n-]1

> <Energy>
73.50690415940876

> <Genealogy>
Cc1nc(-c2cc[n-]c(=N)c2)cc(N2CCC(C(=O)[N-]c3ccccc3C([NH-])=O)CC2)n1 (protonated)
[H]/N=c1\cc(-c2cc(N3CCC(C(=O)[N-]c4ccccc4C([NH-])=O)CC3)nc(C)n2)cc[n-]1 (cis-trans isomerization)
[H]/N=c1\cc(-c2cc(N3CCC(C(=O)[N-]c4ccccc4C([NH-])=O)CC3)nc(C)n2)cc[n-]1 (3D coordinates assigned)
[H]/N=c1\cc(-c2cc(N3CCC(C(=O)[N-]c4ccccc4C([NH-])=O)CC3)nc(C)n2)cc[n-]1 (nonaromatic ring conformer: 73.50690415940876 kcal/mol)

> <smiles>
Cc1nc(-c2cc[nH]c(=N)c2)cc(N2CCC(C(=O)Nc3ccccc3C(N)=O)CC2)n1

> <score_type>
oracle

> <origin>
adg

> <m_score__min__energy>
-16.219999999999999

> <m_primary>
energy

> <minimizedAffinity>
-8.97365

> <minimizedRMSD>
1.15289

> <CNNscore>
0.4902020097

> <CNNaffinity>
6.7729201317

> <CNN_VS>
3.3200991154

> <CNNaffinity_variance>
0.4983974993

$$$$
75:0


 33 36  0  0  0  0  0  0  0  0999 V2000
   60.8226   29.4369   47.5793 C   0  0  0  0  0  0  0  0  0  0  0  0
   59.8743   30.0771   46.8781 C   0  0  0  0  0  0  0  0  0  0  0  0
   59.1483   29.5841   45.7832 C   0  0  0  0  0  0  0  0  0  0  0  0
   59.0688   28.3461   45.2583 C   0  0  0  0  0  0  0  0  0  0  0  0
   58.4273   30.6575   45.2844 C   0  0  0  0  0  0  0  0  0  0  0  0
   58.6769   31.7304   46.1145 C   0  0  0  0  0  0  0  0  0  0  0  0
   58.0761   33.0924   45.9523 C   0  0  0  0  0  0  0  0  0  0  0  0
   59.5615   31.3842   47.0725 N   0  0  0  0  0  0  0  0  0  0  0  0
   58.1961   27.2580   45.7429 C   0  0  0  0  0  0  0  0  0  0  0  0
   56.8011   27.3342   45.6133 C   0  0  0  0  0  0  0  0  0  0  0  0
   56.1981   28.4616   45.0687 O   0  0  0  0  0  0  0  0  0  0  0  0
   56.0287   26.2949   46.0179 N   0  0  0  0  0  0  0  0  0  0  0  0
   56.5805   25.1690   46.5327 C   0  0  0  0  0  0  0  0  0  0  0  0
   55.8457   24.2215   46.9065 O   0  0  0  0  0  0  0  0  0  0  0  0
   57.9274   25.0609   46.6415 N   0  0  0  0  0  0  0  0  0  0  0  0
   58.7445   26.0712   46.2509 C   0  0  0  0  0  0  0  0  0  0  0  0
   59.9901   25.9340   46.3558 O   0  0  0  0  0  0  0  0  0  0  0  0
   59.9966   32.2274   48.1551 C   0  0  0  0  0  0  0  0  0  0  0  0
   59.3337   32.1687   49.3900 C   0  0  0  0  0  0  0  0  0  0  0  0
   59.7093   33.0080   50.4506 C   0  0  0  0  0  0  0  0  0  0  0  0
   60.7548   33.9252   50.2523 C   0  0  0  0  0  0  0  0  0  0  0  0
   61.4198   33.9842   49.0230 C   0  0  0  0  0  0  0  0  0  0  0  0
   61.0474   33.1371   47.9774 C   0  0  0  0  0  0  0  0  0  0  0  0
   61.7077   33.2011   46.7952 F   0  0  0  0  0  0  0  0  0  0  0  0
   58.9764   32.9359   51.7388 C   0  0  0  0  0  0  0  0  0  0  0  0
   58.8044   34.0037   52.3981 O   0  0  0  0  0  0  0  0  0  0  0  0
   58.4609   31.6824   52.2559 N   0  0  0  0  0  0  0  0  0  0  0  0
   56.9865   31.6692   52.1962 C   0  0  0  0  0  0  0  0  0  0  0  0
   56.4349   30.3319   52.7377 C   0  0  0  0  0  0  0  0  0  0  0  0
   57.3298   29.6599   53.6017 O   0  0  0  0  0  0  0  0  0  0  0  0
   57.9863   30.5748   54.4476 C   0  0  0  0  0  0  0  0  0  0  0  0
   58.9523   31.4435   53.6349 C   0  0  0  0  0  0  0  0  0  0  0  0
   59.1917   31.7253   52.9142 H   0  0  0  0  0  0  0  0  0  0  0  0
  1  2  2  0
  2  3  1  0
  3  4  2  0
  4  9  1  0
  9 10  2  0
 10 11  1  0
 10 12  1  0
 12 13  1  0
 13 14  2  0
 13 15  1  0
 15 16  1  0
 16 17  2  0
  3  5  1  0
  5  6  2  0
  6  7  1  0
  6  8  1  0
  8 18  1  0
 18 19  2  0
 19 20  1  0
 20 25  1  0
 25 26  2  0
 25 27  1  0
 27 28  1  0
 28 29  1  0
 29 30  1  0
 30 31  1  0
 31 32  1  0
 20 21  2  0
 21 22  1  0
 22 23  2  0
 23 24  1  0
  8  2  1  0
 23 18  1  0
 16  9  1  0
 32 27  1  0
 27 33  1  0
M  CHG 1  11  -1
M  CHG 1  12  -1
M  CHG 1  15  -1
M  CHG 1  27   1
M  END
> <UniqueID>
72

> <SMILES>
C=c1c(=Cc2c([O-])[n-]c(=O)[n-]c2=O)cc(C)n1-c1cc(C(=O)[NH+]2CCOCC2)ccc1F

> <Energy>
119.11379264904359

> <Genealogy>
C=c1c(=Cc2c([O-])[n-]c(=O)[n-]c2=O)cc(C)n1-c1cc(C(=O)[NH+]2CCOCC2)ccc1F (protonated)
C=c1c(=Cc2c([O-])[n-]c(=O)[n-]c2=O)cc(C)n1-c1cc(C(=O)[NH+]2CCOCC2)ccc1F (3D coordinates assigned)
C=c1c(=Cc2c([O-])[n-]c(=O)[n-]c2=O)cc(C)n1-c1cc(C(=O)[NH+]2CCOCC2)ccc1F (nonaromatic ring conformer: 119.11379264904359 kcal/mol)

> <smiles>
C=c1c(=Cc2c(O)[nH]c(=O)[nH]c2=O)cc(C)n1-c1cc(C(=O)N2CCOCC2)ccc1F

> <score_type>
oracle

> <origin>
adg

> <m_score__min__energy>
-15.449999999999999

> <m_primary>
energy

> <minimizedAffinity>
-7.56448

> <minimizedRMSD>
1.25520

> <CNNscore>
0.4461895227

> <CNNaffinity>
7.1259255409

> <CNN_VS>
3.1795132160

> <CNNaffinity_variance>
0.2152129561

$$$$
79:0


 34 37  0  0  0  0  0  0  0  0999 V2000
   57.7840   31.5592   45.7268 C   0  0  0  0  0  0  0  0  0  0  0  0
   56.8125   32.2145   45.2645 O   0  0  0  0  0  0  0  0  0  0  0  0
   58.7764   32.2331   46.5269 N   0  0  0  0  0  0  0  0  0  0  0  0
   59.5330   31.5113   47.5648 C   0  0  0  0  0  0  0  0  0  0  0  0
   59.7074   32.3906   48.8115 C   0  0  0  0  0  0  0  0  0  0  0  0
   60.2634   33.8072   48.4919 C   0  0  0  0  0  0  0  0  0  0  0  0
   60.3105   34.1237   46.9773 C   0  0  0  0  0  0  0  0  0  0  0  0
   59.0184   33.6654   46.2960 C   0  0  0  0  0  0  0  0  0  0  0  0
   58.0645   27.4774   43.1579 C   0  0  0  0  0  0  0  0  0  0  0  0
   58.0171   28.2723   44.2397 C   0  0  0  0  0  0  0  0  0  0  0  0
   58.5286   27.9897   45.5167 C   0  0  0  0  0  0  0  0  0  0  0  0
   58.9991   26.8472   46.0481 C   0  0  0  0  0  0  0  0  0  0  0  0
   58.4884   29.1824   46.2195 C   0  0  0  0  0  0  0  0  0  0  0  0
   57.9100   30.1224   45.3905 C   0  0  0  0  0  0  0  0  0  0  0  0
   57.5994   29.5643   44.1949 N   0  0  0  0  0  0  0  0  0  0  0  0
   56.9977   30.2543   43.0443 C   0  0  0  0  0  0  0  0  0  0  0  0
   58.2454   25.5893   46.1837 C   0  0  0  0  0  0  0  0  0  0  0  0
   58.7867   24.3588   46.0858 N   0  0  0  0  0  0  0  0  0  0  0  0
   57.7128   23.5420   46.1326 C   0  0  0  0  0  0  0  0  0  0  0  0
   57.8133   22.2887   46.0826 O   0  0  0  0  0  0  0  0  0  0  0  0
   56.5270   24.1740   46.2274 N   0  0  0  0  0  0  0  0  0  0  0  0
   56.8832   25.4692   46.2458 C   0  0  0  0  0  0  0  0  0  0  0  0
   55.9795   26.5179   46.3199 O   0  0  0  0  0  0  0  0  0  0  0  0
   61.5495   34.0638   49.1728 N   0  0  0  0  0  0  0  0  0  0  0  0
   61.3496   34.4101   50.1111 H   0  0  0  0  0  0  0  0  0  0  0  0
   62.4215   32.8854   49.2942 C   0  0  0  0  0  0  0  0  0  0  0  0
   63.6061   33.2250   50.1517 C   0  0  0  0  0  0  0  0  0  0  0  0
   64.8616   32.6742   49.8605 C   0  0  0  0  0  0  0  0  0  0  0  0
   65.9497   32.9775   50.6753 C   0  0  0  0  0  0  0  0  0  0  0  0
   65.7774   33.8214   51.7693 C   0  0  0  0  0  0  0  0  0  0  0  0
   66.8272   34.1274   52.5648 F   0  0  0  0  0  0  0  0  0  0  0  0
   64.5129   34.3454   52.0387 C   0  0  0  0  0  0  0  0  0  0  0  0
   63.4595   34.0361   51.2384 N   0  0  0  0  0  0  0  0  0  0  0  0
   62.5712   34.4054   51.4474 H   0  0  0  0  0  0  0  0  0  0  0  0
  9 10  2  0
 10 11  1  0
 11 12  2  0
 12 17  1  0
 17 18  1  0
 18 19  1  0
 19 20  2  0
 19 21  1  0
 21 22  1  0
 22 23  1  0
 11 13  1  0
 13 14  2  0
 14  1  1  0
  1  2  2  0
  1  3  1  0
  3  4  1  0
  4  5  1  0
  5  6  1  0
  6 24  1  0
 24 26  1  0
 26 27  1  0
 27 28  2  0
 28 29  1  0
 29 30  2  0
 30 31  1  0
 30 32  1  0
 32 33  2  0
  6  7  1  0
  7  8  1  0
 14 15  1  0
 15 16  1  0
 15 10  1  0
 22 17  2  0
  8  3  1  0
 33 27  1  0
 24 25  1  0
 33 34  1  0
M  CHG 1  18  -1
M  CHG 1  21  -1
M  CHG 1  23  -1
M  CHG 1  33   1
M  END
> <UniqueID>
76

> <SMILES>
C=c1/c(=C\c2[n-]c(=O)[n-]c2[O-])cc(C(=O)N2CCC(NCc3ccc(F)c[nH+]3)CC2)n1C

> <Energy>
136.49934564864293

> <Genealogy>
C=c1c(=Cc2[n-]c(=O)[n-]c2[O-])cc(C(=O)N2CCC(NCc3ccc(F)c[nH+]3)CC2)n1C (protonated)
C=c1/c(=C\c2[n-]c(=O)[n-]c2[O-])cc(C(=O)N2CCC(NCc3ccc(F)c[nH+]3)CC2)n1C (cis-trans isomerization)
C=c1/c(=C\c2[n-]c(=O)[n-]c2[O-])cc(C(=O)N2CCC(NCc3ccc(F)c[nH+]3)CC2)n1C (3D coordinates assigned)
C=c1/c(=C\c2[n-]c(=O)[n-]c2[O-])cc(C(=O)N2CCC(NCc3ccc(F)c[nH+]3)CC2)n1C (nonaromatic ring conformer: 136.49934564864293 kcal/mol)

> <smiles>
C=c1c(=Cc2[nH]c(=O)[nH]c2O)cc(C(=O)N2CCC(NCc3ccc(F)cn3)CC2)n1C

> <score_type>
oracle

> <origin>
adg

> <m_score__min__energy>
-16.32

> <m_primary>
energy

> <minimizedAffinity>
-8.29348

> <minimizedRMSD>
0.92960

> <CNNscore>
0.0722064301

> <CNNaffinity>
6.2231273651

> <CNN_VS>
0.4493498206

> <CNNaffinity_variance>
0.1125191525

$$$$
86:0


 28 30  0  0  0  0  0  0  0  0999 V2000
   60.1248   27.5953   48.4396 O   0  0  0  0  0  0  0  0  0  0  0  0
   60.0839   28.9686   48.6900 C   0  0  0  0  0  0  0  0  0  0  0  0
   59.3407   29.8615   47.8927 C   0  0  0  0  0  0  0  0  0  0  0  0
   59.3144   31.1814   48.2183 N   0  0  0  0  0  0  0  0  0  0  0  0
   60.0020   31.6669   49.2844 C   0  0  0  0  0  0  0  0  0  0  0  0
   60.7136   30.8140   50.0668 N   0  0  0  0  0  0  0  0  0  0  0  0
   60.7765   29.4870   49.7893 C   0  0  0  0  0  0  0  0  0  0  0  0
   61.4506   28.7276   50.5317 O   0  0  0  0  0  0  0  0  0  0  0  0
   59.6641   27.2390   47.7056 H   0  0  0  0  0  0  0  0  0  0  0  0
   58.5815   29.4082   46.7147 C   0  0  0  0  0  0  0  0  0  0  0  0
   58.0509   30.2610   45.9551 O   0  0  0  0  0  0  0  0  0  0  0  0
   58.4190   28.0150   46.4146 N   0  0  0  0  0  0  0  0  0  0  0  0
   57.2391   27.4163   45.7943 C   0  0  0  0  0  0  0  0  0  0  0  0
   57.3372   25.9098   45.7960 C   0  0  0  0  0  0  0  0  0  0  0  0
   58.5909   25.2859   45.6727 C   0  0  0  0  0  0  0  0  0  0  0  0
   58.6843   23.8910   45.6378 C   0  0  0  0  0  0  0  0  0  0  0  0
   57.5333   23.1090   45.7352 C   0  0  0  0  0  0  0  0  0  0  0  0
   56.2827   23.7187   45.8721 C   0  0  0  0  0  0  0  0  0  0  0  0
   56.1794   25.1135   45.9051 C   0  0  0  0  0  0  0  0  0  0  0  0
   54.9267   25.7008   46.0415 O   0  0  0  0  0  0  0  0  0  0  0  0
   59.8881   33.1003   49.6179 C   0  0  0  0  0  0  0  0  0  0  0  0
   59.7839   34.1028   48.7319 C   0  0  0  0  0  0  0  0  0  0  0  0
   59.2672   33.9767   47.3531 C   0  0  0  0  0  0  0  0  0  0  0  0
   57.9450   33.5531   47.1506 C   0  0  0  0  0  0  0  0  0  0  0  0
   57.4478   33.3906   45.8539 C   0  0  0  0  0  0  0  0  0  0  0  0
   58.2748   33.6285   44.7523 C   0  0  0  0  0  0  0  0  0  0  0  0
   59.6026   34.0201   44.9449 C   0  0  0  0  0  0  0  0  0  0  0  0
   60.1018   34.1837   46.2397 C   0  0  0  0  0  0  0  0  0  0  0  0
  1  2  1  0
  2  3  2  0
  3 10  1  0
 10 11  2  0
 10 12  1  0
 12 13  1  0
 13 14  1  0
 14 15  2  0
 15 16  1  0
 16 17  2  0
 17 18  1  0
 18 19  2  0
 19 20  1  0
  3  4  1  0
  4  5  1  0
  5 21  1  0
 21 22  2  0
 22 23  1  0
 23 24  2  0
 24 25  1  0
 25 26  2  0
 26 27  1  0
 27 28  2  0
  5  6  2  0
  6  7  1  0
  7  8  2  0
  7  2  1  0
 19 14  1  0
 28 23  1  0
  1  9  1  0
M  CHG 1   4  -1
M  CHG 1  12  -1
M  CHG 1  20  -1
M  END
> <UniqueID>
83

> <SMILES>
O=C([N-]Cc1ccccc1[O-])c1[n-]c(/C=C\c2ccccc2)nc(=O)c1O

> <Energy>
55.75708608867378

> <Genealogy>
O=C([N-]Cc1ccccc1[O-])c1[n-]c(C=Cc2ccccc2)nc(=O)c1O (protonated)
O=C([N-]Cc1ccccc1[O-])c1[n-]c(/C=C\c2ccccc2)nc(=O)c1O (cis-trans isomerization)
O=C([N-]Cc1ccccc1[O-])c1[n-]c(/C=C\c2ccccc2)nc(=O)c1O (3D coordinates assigned)
O=C([N-]Cc1ccccc1[O-])c1[n-]c(/C=C\c2ccccc2)nc(=O)c1O (optimized conformer: 55.75708608867378 kcal/mol)

> <smiles>
O=C(NCc1ccccc1O)c1[nH]c(C=Cc2ccccc2)nc(=O)c1O

> <score_type>
oracle

> <origin>
adg

> <m_score__min__energy>
-14.51

> <m_primary>
energy

> <minimizedAffinity>
-7.64761

> <minimizedRMSD>
0.79853

> <CNNscore>
0.3470172286

> <CNNaffinity>
6.2626075745

> <CNN_VS>
2.1732327938

> <CNNaffinity_variance>
0.0291996524

$$$$
11:0


 26 28  0  0  0  0  0  0  0  0999 V2000
   54.3009   27.5131   53.7113 C   0  0  0  0  0  0  0  0  0  0  0  0
   54.9913   28.6424   53.5030 C   0  0  0  0  0  0  0  0  0  0  0  0
   56.3357   28.5801   53.7061 N   0  0  0  0  0  0  0  0  0  0  0  0
   57.1842   29.5752   53.3491 C   0  0  0  0  0  0  0  0  0  0  0  0
   56.7006   30.7071   52.6897 C   0  0  0  0  0  0  0  0  0  0  0  0
   55.3177   30.8304   52.5020 C   0  0  0  0  0  0  0  0  0  0  0  0
   54.4235   29.8432   52.9676 C   0  0  0  0  0  0  0  0  0  0  0  0
   53.0984   30.1257   52.8864 C   0  0  0  0  0  0  0  0  0  0  0  0
   57.6195   31.7844   52.2604 C   0  0  0  0  0  0  0  0  0  0  0  0
   57.3291   32.9841   52.5211 O   0  0  0  0  0  0  0  0  0  0  0  0
   58.8346   31.4905   51.5490 N   0  0  0  0  0  0  0  0  0  0  0  0
   60.0702   32.2065   51.8840 C   0  0  0  0  0  0  0  0  0  0  0  0
   60.6474   32.8587   50.6255 C   0  0  0  0  0  0  0  0  0  0  0  0
   60.7128   31.9102   49.5021 N   0  0  0  0  0  0  0  0  0  0  0  0
   61.4420   32.2969   48.3159 C   0  0  0  0  0  0  0  0  0  0  0  0
   61.7359   33.5081   48.1301 O   0  0  0  0  0  0  0  0  0  0  0  0
   61.8532   31.2957   47.2776 C   0  0  0  0  0  0  0  0  0  0  0  0
   60.1451   30.5591   49.6477 C   0  0  0  0  0  0  0  0  0  0  0  0
   58.7918   30.6136   50.3695 C   0  0  0  0  0  0  0  0  0  0  0  0
   52.3334   30.3848   51.6529 C   0  0  0  0  0  0  0  0  0  0  0  0
   52.3815   29.5884   50.5712 N   0  0  0  0  0  0  0  0  0  0  0  0
   51.6353   30.2498   49.6602 C   0  0  0  0  0  0  0  0  0  0  0  0
   51.4271   29.8042   48.5021 O   0  0  0  0  0  0  0  0  0  0  0  0
   51.1377   31.4310   50.0860 N   0  0  0  0  0  0  0  0  0  0  0  0
   51.5999   31.5099   51.3431 C   0  0  0  0  0  0  0  0  0  0  0  0
   51.3842   32.5997   52.1775 O   0  0  0  0  0  0  0  0  0  0  0  0
  1  2  2  0
  2  3  1  0
  3  4  2  0
  4  5  1  0
  5  9  1  0
  9 10  2  0
  9 11  1  0
 11 12  1  0
 12 13  1  0
 13 14  1  0
 14 15  1  0
 15 16  2  0
 15 17  1  0
 14 18  1  0
 18 19  1  0
  5  6  2  0
  6  7  1  0
  7  8  2  0
  8 20  1  0
 20 21  1  0
 21 22  1  0
 22 23  2  0
 22 24  1  0
 24 25  1  0
 25 26  1  0
  7  2  1  0
 25 20  2  0
 19 11  1  0
M  CHG 1  21  -1
M  CHG 1  24  -1
M  CHG 1  26  -1
M  END
> <UniqueID>
11

> <SMILES>
C=c1ncc(C(=O)N2CCN(C(C)=O)CC2)c/c1=C/c1[n-]c(=O)[n-]c1[O-]

> <Energy>
98.74243984682577

> <Genealogy>
C=c1ncc(C(=O)N2CCN(C(C)=O)CC2)cc1=Cc1[n-]c(=O)[n-]c1[O-] (protonated)
C=c1ncc(C(=O)N2CCN(C(C)=O)CC2)c/c1=C/c1[n-]c(=O)[n-]c1[O-] (cis-trans isomerization)
C=c1ncc(C(=O)N2CCN(C(C)=O)CC2)c/c1=C/c1[n-]c(=O)[n-]c1[O-] (3D coordinates assigned)
C=c1ncc(C(=O)N2CCN(C(C)=O)CC2)c/c1=C/c1[n-]c(=O)[n-]c1[O-] (nonaromatic ring conformer: 98.74243984682577 kcal/mol)

> <smiles>
C=c1ncc(C(=O)N2CCN(C(C)=O)CC2)cc1=Cc1[nH]c(=O)[nH]c1O

> <score_type>
oracle

> <origin>
adg

> <m_score__min__energy>
-16.739999999999998

> <m_primary>
energy

> <minimizedAffinity>
-6.06640

> <minimizedRMSD>
0.91661

> <CNNscore>
0.0629965886

> <CNNaffinity>
4.6125950813

> <CNN_VS>
0.2905777693

> <CNNaffinity_variance>
0.2473734617

$$$$
13:0


 30 33  0  0  0  0  0  0  0  0999 V2000
   59.2136   29.5228   44.9583 C   0  0  0  0  0  0  0  0  0  0  0  0
   58.9731   30.7636   45.4533 C   0  0  0  0  0  0  0  0  0  0  0  0
   59.6239   31.1022   46.6619 C   0  0  0  0  0  0  0  0  0  0  0  0
   59.3260   32.2897   47.3496 C   0  0  0  0  0  0  0  0  0  0  0  0
   58.3521   33.1487   46.8343 C   0  0  0  0  0  0  0  0  0  0  0  0
   57.7521   32.8806   45.6055 C   0  0  0  0  0  0  0  0  0  0  0  0
   58.0971   31.7341   44.8635 C   0  0  0  0  0  0  0  0  0  0  0  0
   57.6827   31.6807   43.5844 C   0  0  0  0  0  0  0  0  0  0  0  0
   56.2403   28.8688   45.1610 O   0  0  0  0  0  0  0  0  0  0  0  0
   57.2645   27.9841   45.4788 C   0  0  0  0  0  0  0  0  0  0  0  0
   57.0643   26.7141   45.8687 N   0  0  0  0  0  0  0  0  0  0  0  0
   58.3246   26.2561   46.0388 C   0  0  0  0  0  0  0  0  0  0  0  0
   58.5727   25.0788   46.4066 O   0  0  0  0  0  0  0  0  0  0  0  0
   59.2946   27.1571   45.7731 N   0  0  0  0  0  0  0  0  0  0  0  0
   58.6075   28.2658   45.4380 C   0  0  0  0  0  0  0  0  0  0  0  0
   55.3471   28.5910   45.2168 H   0  0  0  0  0  0  0  0  0  0  0  0
   59.9751   32.5995   48.6463 C   0  0  0  0  0  0  0  0  0  0  0  0
   59.3162   33.2207   49.5263 O   0  0  0  0  0  0  0  0  0  0  0  0
   61.3360   32.2116   48.9301 N   0  0  0  0  0  0  0  0  0  0  0  0
   62.3644   32.1913   47.8840 C   0  0  0  0  0  0  0  0  0  0  0  0
   63.6460   32.8326   48.4306 C   0  0  0  0  0  0  0  0  0  0  0  0
   64.1807   32.1538   49.6481 N   0  0  0  0  0  0  0  0  0  0  0  0
   63.1438   31.3693   50.3800 C   0  0  0  0  0  0  0  0  0  0  0  0
   61.7506   32.0114   50.3209 C   0  0  0  0  0  0  0  0  0  0  0  0
   64.9601   33.0785   50.5301 C   0  0  0  0  0  0  0  0  0  0  0  0
   66.4925   32.8180   50.4415 C   0  0  0  0  0  0  0  0  0  0  0  0
   67.3071   33.8282   51.2801 C   0  0  0  0  0  0  0  0  0  0  0  0
   66.5760   34.3033   52.5476 C   0  0  0  0  0  0  0  0  0  0  0  0
   65.6143   33.2326   53.0588 C   0  0  0  0  0  0  0  0  0  0  0  0
   64.5099   32.9474   52.0236 C   0  0  0  0  0  0  0  0  0  0  0  0
  9 10  1  0
 10 11  1  0
 11 12  1  0
 12 13  2  0
 12 14  1  0
 14 15  1  0
 15  1  1  0
  1  2  2  0
  2  3  1  0
  3  4  2  0
  4 17  1  0
 17 18  2  0
 17 19  1  0
 19 20  1  0
 20 21  1  0
 21 22  1  0
 22 25  1  0
 25 26  1  0
 26 27  1  0
 27 28  1  0
 28 29  1  0
 29 30  1  0
 22 23  1  0
 23 24  1  0
  4  5  1  0
  5  6  2  0
  6  7  1  0
  7  8  2  0
 15 10  2  0
  7  2  1  0
 24 19  1  0
 30 25  1  0
  9 16  1  0
M  CHG 1  11  -1
M  CHG 1  14  -1
M  END
> <UniqueID>
13

> <SMILES>
C=c1ccc(C(=O)N2CCN(C3CCCCC3)CC2)c/c1=C/c1[n-]c(=O)[n-]c1O

> <Energy>
125.96594686042289

> <Genealogy>
C=c1ccc(C(=O)N2CCN(C3CCCCC3)CC2)cc1=Cc1[n-]c(=O)[n-]c1O (protonated)
C=c1ccc(C(=O)N2CCN(C3CCCCC3)CC2)c/c1=C/c1[n-]c(=O)[n-]c1O (cis-trans isomerization)
C=c1ccc(C(=O)N2CCN(C3CCCCC3)CC2)c/c1=C/c1[n-]c(=O)[n-]c1O (3D coordinates assigned)
C=c1ccc(C(=O)N2CCN(C3CCCCC3)CC2)c/c1=C/c1[n-]c(=O)[n-]c1O (nonaromatic ring conformer: 125.96594686042289 kcal/mol)

> <smiles>
C=c1ccc(C(=O)N2CCN(C3CCCCC3)CC2)cc1=Cc1[nH]c(=O)[nH]c1O

> <score_type>
oracle

> <origin>
adg

> <m_score__min__energy>
-14.279999999999999

> <m_primary>
energy

> <minimizedAffinity>
-9.06786

> <minimizedRMSD>
1.03420

> <CNNscore>
0.7288170457

> <CNNaffinity>
6.8046345711

> <CNN_VS>
4.9593338966

> <CNNaffinity_variance>
0.0567583777

$$$$
26:0


 30 33  0  0  0  0  0  0  0  0999 V2000
   60.3942   26.7606   46.5073 C   0  0  0  0  0  0  0  0  0  0  0  0
   59.4657   27.5889   45.9993 C   0  0  0  0  0  0  0  0  0  0  0  0
   58.3217   27.2116   45.2835 C   0  0  0  0  0  0  0  0  0  0  0  0
   57.9597   25.9573   44.9306 C   0  0  0  0  0  0  0  0  0  0  0  0
   57.6453   28.3912   44.9960 C   0  0  0  0  0  0  0  0  0  0  0  0
   58.3793   29.4201   45.5495 C   0  0  0  0  0  0  0  0  0  0  0  0
   59.5034   28.9400   46.1354 N   0  0  0  0  0  0  0  0  0  0  0  0
   60.5795   29.7281   46.7477 C   0  0  0  0  0  0  0  0  0  0  0  0
   57.3114   24.9660   45.8188 C   0  0  0  0  0  0  0  0  0  0  0  0
   57.8529   23.8049   46.2332 N   0  0  0  0  0  0  0  0  0  0  0  0
   56.8701   23.2403   46.9666 C   0  0  0  0  0  0  0  0  0  0  0  0
   57.0041   22.1279   47.5389 O   0  0  0  0  0  0  0  0  0  0  0  0
   55.7295   23.9621   47.0368 N   0  0  0  0  0  0  0  0  0  0  0  0
   56.0240   25.0465   46.3013 C   0  0  0  0  0  0  0  0  0  0  0  0
   55.1342   26.0889   46.0743 O   0  0  0  0  0  0  0  0  0  0  0  0
   57.9467   30.8357   45.5078 C   0  0  0  0  0  0  0  0  0  0  0  0
   56.8091   31.0981   45.0264 O   0  0  0  0  0  0  0  0  0  0  0  0
   58.7176   31.8758   46.1606 N   0  0  0  0  0  0  0  0  0  0  0  0
   59.1426   32.9101   45.1851 C   0  0  0  0  0  0  0  0  0  0  0  0
   59.7462   34.1720   45.8505 C   0  0  0  0  0  0  0  0  0  0  0  0
   60.0230   33.9871   47.3588 C   0  0  0  0  0  0  0  0  0  0  0  0
   58.6742   33.5794   48.0153 C   0  0  0  0  0  0  0  0  0  0  0  0
   57.9238   32.4523   47.2645 C   0  0  0  0  0  0  0  0  0  0  0  0
   57.9729   32.0410   46.7830 H   0  0  0  0  0  0  0  0  0  0  0  0
   61.1455   33.0221   47.5639 N   0  0  0  0  0  0  0  0  0  0  0  0
   61.3100   32.5702   48.9633 C   0  0  0  0  0  0  0  0  0  0  0  0
   62.6009   31.7397   49.1239 C   0  0  0  0  0  0  0  0  0  0  0  0
   63.7939   32.3467   48.6265 O   0  0  0  0  0  0  0  0  0  0  0  0
   63.5656   33.5984   48.0088 C   0  0  0  0  0  0  0  0  0  0  0  0
   62.4220   33.5231   46.9828 C   0  0  0  0  0  0  0  0  0  0  0  0
  1  2  2  0
  2  3  1  0
  3  4  2  0
  4  9  1  0
  9 10  1  0
 10 11  1  0
 11 12  2  0
 11 13  1  0
 13 14  1  0
 14 15  1  0
  3  5  1  0
  5  6  2  0
  6 16  1  0
 16 17  2  0
 18 16  1  0
 18 19  1  0
 19 20  1  0
 20 21  1  0
 21 25  1  0
 25 26  1  0
 26 27  1  0
 27 28  1  0
 28 29  1  0
 29 30  1  0
 21 22  1  0
 22 23  1  0
  6  7  1  0
  7  8  1  0
  7  2  1  0
 14  9  2  0
 23 18  1  0
 30 25  1  0
 18 24  1  0
M  CHG 1  10  -1
M  CHG 1  13  -1
M  CHG 1  15  -1
M  CHG 1  18   1
M  END
> <UniqueID>
26

> <SMILES>
C=c1/c(=C/c2[n-]c(=O)[n-]c2[O-])cc(C(=O)[NH+]2CCC(N3CCOCC3)CC2)n1C

> <Energy>
153.14563891732791

> <Genealogy>
C=c1c(=Cc2[n-]c(=O)[n-]c2[O-])cc(C(=O)[NH+]2CCC(N3CCOCC3)CC2)n1C (protonated)
C=c1/c(=C/c2[n-]c(=O)[n-]c2[O-])cc(C(=O)[NH+]2CCC(N3CCOCC3)CC2)n1C (cis-trans isomerization)
C=c1/c(=C/c2[n-]c(=O)[n-]c2[O-])cc(C(=O)[NH+]2CCC(N3CCOCC3)CC2)n1C (3D coordinates assigned)
C=c1/c(=C/c2[n-]c(=O)[n-]c2[O-])cc(C(=O)[NH+]2CCC(N3CCOCC3)CC2)n1C (nonaromatic ring conformer: 153.14563891732791 kcal/mol)

> <smiles>
C=c1c(=Cc2[nH]c(=O)[nH]c2O)cc(C(=O)N2CCC(N3CCOCC3)CC2)n1C

> <score_type>
oracle

> <origin>
adg

> <m_score__min__energy>
-16.57

> <m_primary>
energy

> <minimizedAffinity>
-8.28219

> <minimizedRMSD>
0.70986

> <CNNscore>
0.1949475408

> <CNNaffinity>
6.6722102165

> <CNN_VS>
1.3007309437

> <CNNaffinity_variance>
0.0005441232

$$$$
27:0


 29 31  0  0  0  0  0  0  0  0999 V2000
   58.8019   28.0707   46.7398 C   0  0  0  0  0  0  0  0  0  0  0  0
   59.1604   28.5390   45.4665 C   0  0  0  0  0  0  0  0  0  0  0  0
   58.7940   27.8251   44.3246 C   0  0  0  0  0  0  0  0  0  0  0  0
   58.0707   26.6366   44.4429 C   0  0  0  0  0  0  0  0  0  0  0  0
   57.7046   26.1520   45.7079 C   0  0  0  0  0  0  0  0  0  0  0  0
   58.0764   26.8719   46.8552 C   0  0  0  0  0  0  0  0  0  0  0  0
   56.9326   24.8936   45.8280 C   0  0  0  0  0  0  0  0  0  0  0  0
   55.5328   24.9156   45.9531 C   0  0  0  0  0  0  0  0  0  0  0  0
   54.8429   26.1248   45.9842 O   0  0  0  0  0  0  0  0  0  0  0  0
   54.8418   23.7477   46.0328 N   0  0  0  0  0  0  0  0  0  0  0  0
   55.4780   22.5499   45.9992 C   0  0  0  0  0  0  0  0  0  0  0  0
   54.8158   21.4834   46.0778 O   0  0  0  0  0  0  0  0  0  0  0  0
   56.8300   22.5015   45.8838 N   0  0  0  0  0  0  0  0  0  0  0  0
   57.5680   23.6391   45.7965 C   0  0  0  0  0  0  0  0  0  0  0  0
   58.8218   23.5525   45.7034 O   0  0  0  0  0  0  0  0  0  0  0  0
   55.3127   26.9337   45.9297 H   0  0  0  0  0  0  0  0  0  0  0  0
   59.2489   28.8172   47.9715 C   0  0  0  0  0  0  0  0  0  0  0  0
   60.2962   29.8848   47.6355 C   0  0  0  0  0  0  0  0  0  0  0  0
   59.5295   31.8432   46.5006 O   0  0  0  0  0  0  0  0  0  0  0  0
   59.6880   31.2526   47.6034 C   0  0  0  0  0  0  0  0  0  0  0  0
   59.3372   31.8984   48.8295 N   0  0  0  0  0  0  0  0  0  0  0  0
   59.9901   33.1084   49.3141 C   0  0  0  0  0  0  0  0  0  0  0  0
   61.4589   32.8566   49.5085 C   0  0  0  0  0  0  0  0  0  0  0  0
   62.3945   33.4904   48.6751 C   0  0  0  0  0  0  0  0  0  0  0  0
   63.7627   33.2541   48.8408 C   0  0  0  0  0  0  0  0  0  0  0  0
   64.2058   32.3874   49.8436 C   0  0  0  0  0  0  0  0  0  0  0  0
   65.5301   32.1373   49.9828 F   0  0  0  0  0  0  0  0  0  0  0  0
   63.2823   31.7723   50.6950 C   0  0  0  0  0  0  0  0  0  0  0  0
   61.9139   32.0092   50.5329 C   0  0  0  0  0  0  0  0  0  0  0  0
 19 20  2  0
 20 18  1  0
 18 17  1  0
 17  1  1  0
  1  2  2  0
  2  3  1  0
  3  4  2  0
  4  5  1  0
  5  7  1  0
  7  8  2  0
  8  9  1  0
  8 10  1  0
 10 11  1  0
 11 12  2  0
 11 13  1  0
 13 14  1  0
 14 15  2  0
  5  6  2  0
 20 21  1  0
 21 22  1  0
 22 23  1  0
 23 24  2  0
 24 25  1  0
 25 26  2  0
 26 27  1  0
 26 28  1  0
 28 29  2  0
  6  1  1  0
 29 23  1  0
 14  7  1  0
  9 16  1  0
M  CHG 1  10  -1
M  CHG 1  13  -1
M  CHG 1  21  -1
M  END
> <UniqueID>
27

> <SMILES>
O=C(CCc1cccc(-c2c(O)[n-]c(=O)[n-]c2=O)c1)[N-]Cc1ccc(F)cc1

> <Energy>
42.810650426084386

> <Genealogy>
O=C(CCc1cccc(-c2c(O)[n-]c(=O)[n-]c2=O)c1)[N-]Cc1ccc(F)cc1 (protonated)
O=C(CCc1cccc(-c2c(O)[n-]c(=O)[n-]c2=O)c1)[N-]Cc1ccc(F)cc1 (3D coordinates assigned)
O=C(CCc1cccc(-c2c(O)[n-]c(=O)[n-]c2=O)c1)[N-]Cc1ccc(F)cc1 (optimized conformer: 42.810650426084386 kcal/mol)

> <smiles>
O=C(CCc1cccc(-c2c(O)[nH]c(=O)[nH]c2=O)c1)NCc1ccc(F)cc1

> <score_type>
oracle

> <origin>
adg

> <m_score__min__energy>
-15.57

> <m_primary>
energy

> <minimizedAffinity>
-8.11697

> <minimizedRMSD>
2.20806

> <CNNscore>
0.2587359846

> <CNNaffinity>
6.1356682777

> <CNN_VS>
1.5875182152

> <CNNaffinity_variance>
0.2452660948

$$$$
39:0


 30 33  0  0  0  0  0  0  0  0999 V2000
   55.3895   28.0299   53.9703 C   0  0  0  0  0  0  0  0  0  0  0  0
   55.6328   29.1762   53.3151 C   0  0  0  0  0  0  0  0  0  0  0  0
   54.6838   30.1191   52.8807 C   0  0  0  0  0  0  0  0  0  0  0  0
   53.3394   30.0594   52.8107 C   0  0  0  0  0  0  0  0  0  0  0  0
   55.4018   31.2272   52.4653 C   0  0  0  0  0  0  0  0  0  0  0  0
   56.7394   30.9030   52.5781 C   0  0  0  0  0  0  0  0  0  0  0  0
   56.8861   29.6630   53.1031 N   0  0  0  0  0  0  0  0  0  0  0  0
   58.1490   29.0232   53.4917 C   0  0  0  0  0  0  0  0  0  0  0  0
   57.8346   31.7973   52.1496 C   0  0  0  0  0  0  0  0  0  0  0  0
   57.7906   33.0062   52.4983 O   0  0  0  0  0  0  0  0  0  0  0  0
   58.9023   31.3364   51.2977 N   0  0  0  0  0  0  0  0  0  0  0  0
   60.1766   32.0794   51.2836 C   0  0  0  0  0  0  0  0  0  0  0  0
   61.1438   31.5253   50.2327 C   0  0  0  0  0  0  0  0  0  0  0  0
   60.4252   31.3212   48.9691 N   0  0  0  0  0  0  0  0  0  0  0  0
   61.0501   31.7199   47.7345 C   0  0  0  0  0  0  0  0  0  0  0  0
   62.2452   31.3794   47.5151 O   0  0  0  0  0  0  0  0  0  0  0  0
   59.1428   30.6009   48.9599 C   0  0  0  0  0  0  0  0  0  0  0  0
   58.7122   30.2025   50.3773 C   0  0  0  0  0  0  0  0  0  0  0  0
   60.3376   32.5682   46.7041 C   0  0  0  0  0  0  0  0  0  0  0  0
   58.9727   32.0044   46.2931 C   0  0  0  0  0  0  0  0  0  0  0  0
   57.9749   33.1570   46.3903 C   0  0  0  0  0  0  0  0  0  0  0  0
   58.7949   34.4319   46.5186 C   0  0  0  0  0  0  0  0  0  0  0  0
   60.1056   34.0129   47.1599 C   0  0  0  0  0  0  0  0  0  0  0  0
   52.5301   30.2712   51.5994 C   0  0  0  0  0  0  0  0  0  0  0  0
   52.5930   29.5084   50.4921 N   0  0  0  0  0  0  0  0  0  0  0  0
   51.7919   30.1626   49.6199 C   0  0  0  0  0  0  0  0  0  0  0  0
   51.5753   29.7424   48.4534 O   0  0  0  0  0  0  0  0  0  0  0  0
   51.2504   31.3074   50.0929 N   0  0  0  0  0  0  0  0  0  0  0  0
   51.7404   31.3650   51.3432 C   0  0  0  0  0  0  0  0  0  0  0  0
   51.4636   32.3980   52.2373 O   0  0  0  0  0  0  0  0  0  0  0  0
  1  2  2  0
  2  3  1  0
  3  4  2  0
  4 24  1  0
 24 25  1  0
 25 26  1  0
 26 27  2  0
 26 28  1  0
 28 29  1  0
 29 30  1  0
  3  5  1  0
  5  6  2  0
  6  9  1  0
  9 10  2  0
  9 11  1  0
 11 12  1  0
 12 13  1  0
 13 14  1  0
 14 15  1  0
 15 16  2  0
 15 19  1  0
 19 20  1  0
 20 21  1  0
 21 22  1  0
 22 23  1  0
 14 17  1  0
 17 18  1  0
  6  7  1  0
  7  8  1  0
  7  2  1  0
 29 24  2  0
 18 11  1  0
 23 19  1  0
M  CHG 1  25  -1
M  CHG 1  28  -1
M  CHG 1  30  -1
M  END
> <UniqueID>
39

> <SMILES>
C=c1c(=Cc2[n-]c(=O)[n-]c2[O-])cc(C(=O)N2CCN(C(=O)C3CCCC3)CC2)n1C

> <Energy>
134.35738933057172

> <Genealogy>
C=c1c(=Cc2[n-]c(=O)[n-]c2[O-])cc(C(=O)N2CCN(C(=O)C3CCCC3)CC2)n1C (protonated)
C=c1c(=Cc2[n-]c(=O)[n-]c2[O-])cc(C(=O)N2CCN(C(=O)C3CCCC3)CC2)n1C (3D coordinates assigned)
C=c1c(=Cc2[n-]c(=O)[n-]c2[O-])cc(C(=O)N2CCN(C(=O)C3CCCC3)CC2)n1C (nonaromatic ring conformer: 134.35738933057172 kcal/mol)

> <smiles>
C=c1c(=Cc2[nH]c(=O)[nH]c2O)cc(C(=O)N2CCN(C(=O)C3CCCC3)CC2)n1C

> <score_type>
oracle

> <origin>
adg

> <m_score__min__energy>
-18.329999999999998

> <m_primary>
energy

> <minimizedAffinity>
-7.13128

> <minimizedRMSD>
0.92191

> <CNNscore>
0.0916452557

> <CNNaffinity>
5.6703095436

> <CNN_VS>
0.5196569562

> <CNNaffinity_variance>
0.0773057714

$$$$
41:0


 31 33  0  0  0  0  0  0  0  0999 V2000
   59.5289   31.7068   49.6682 C   0  0  0  0  0  0  0  0  0  0  0  0
   58.8862   31.5524   48.4254 C   0  0  0  0  0  0  0  0  0  0  0  0
   58.9107   32.5758   47.4690 C   0  0  0  0  0  0  0  0  0  0  0  0
   59.5721   33.7732   47.7594 C   0  0  0  0  0  0  0  0  0  0  0  0
   60.2245   33.9374   48.9818 C   0  0  0  0  0  0  0  0  0  0  0  0
   60.2161   32.9145   49.9377 C   0  0  0  0  0  0  0  0  0  0  0  0
   61.2404   33.2078   51.5347 Br  0  0  0  0  0  0  0  0  0  0  0  0
   58.1165   32.3537   45.9059 S   0  0  0  0  0  0  0  0  0  0  0  0
   56.9135   33.2536   45.8296 O   0  0  0  0  0  0  0  0  0  0  0  0
   59.0636   32.7524   44.8090 O   0  0  0  0  0  0  0  0  0  0  0  0
   57.6196   30.6938   45.6660 N   0  0  0  0  0  0  0  0  0  0  0  0
   56.4431   30.5994   44.7715 C   0  0  0  0  0  0  0  0  0  0  0  0
   56.8219   30.0858   43.3707 C   0  0  0  0  0  0  0  0  0  0  0  0
   57.4362   28.8051   43.3950 O   0  0  0  0  0  0  0  0  0  0  0  0
   58.2655   28.5866   44.5323 C   0  0  0  0  0  0  0  0  0  0  0  0
   58.7591   29.8751   45.2113 C   0  0  0  0  0  0  0  0  0  0  0  0
   59.4660   30.5898   50.6403 C   0  0  0  0  0  0  0  0  0  0  0  0
   60.5274   30.1760   51.1826 O   0  0  0  0  0  0  0  0  0  0  0  0
   58.2196   29.9474   50.9364 N   0  0  0  0  0  0  0  0  0  0  0  0
   57.6560   29.8481   52.2780 C   0  0  0  0  0  0  0  0  0  0  0  0
   56.4401   31.9061   52.4068 O   0  0  0  0  0  0  0  0  0  0  0  0
   56.3941   30.6458   52.3858 C   0  0  0  0  0  0  0  0  0  0  0  0
   55.1341   29.9702   52.4109 N   0  0  0  0  0  0  0  0  0  0  0  0
   54.0126   30.3601   51.5668 C   0  0  0  0  0  0  0  0  0  0  0  0
   52.7811   30.5069   52.4119 C   0  0  0  0  0  0  0  0  0  0  0  0
   52.4075   29.4815   53.2979 C   0  0  0  0  0  0  0  0  0  0  0  0
   51.2383   29.5982   54.0565 C   0  0  0  0  0  0  0  0  0  0  0  0
   50.4313   30.7323   53.9295 C   0  0  0  0  0  0  0  0  0  0  0  0
   50.7901   31.7530   53.0416 C   0  0  0  0  0  0  0  0  0  0  0  0
   49.9806   32.8737   52.9087 O   0  0  0  0  0  0  0  0  0  0  0  0
   51.9589   31.6405   52.2826 C   0  0  0  0  0  0  0  0  0  0  0  0
 21 22  2  0
 22 20  1  0
 20 19  1  0
 19 17  1  0
 17 18  2  0
 17  1  1  0
  1  2  2  0
  2  3  1  0
  3  8  1  0
  8  9  2  0
  8 10  2  0
  8 11  1  0
 11 12  1  0
 12 13  1  0
 13 14  1  0
 14 15  1  0
 15 16  1  0
  3  4  2  0
  4  5  1  0
  5  6  2  0
  6  7  1  0
 22 23  1  0
 23 24  1  0
 24 25  1  0
 25 26  2  0
 26 27  1  0
 27 28  2  0
 28 29  1  0
 29 30  1  0
 29 31  2  0
  6  1  1  0
 31 25  1  0
 16 11  1  0
M  CHG 1  19  -1
M  CHG 1  23  -1
M  CHG 1  30  -1
M  END
> <UniqueID>
41

> <SMILES>
O=C(C[N-]C(=O)c1cc(S(=O)(=O)N2CCOCC2)ccc1Br)[N-]Cc1cccc([O-])c1

> <Energy>
63.65926281875669

> <Genealogy>
O=C(C[N-]C(=O)c1cc(S(=O)(=O)N2CCOCC2)ccc1Br)[N-]Cc1cccc([O-])c1 (protonated)
O=C(C[N-]C(=O)c1cc(S(=O)(=O)N2CCOCC2)ccc1Br)[N-]Cc1cccc([O-])c1 (3D coordinates assigned)
O=C(C[N-]C(=O)c1cc(S(=O)(=O)N2CCOCC2)ccc1Br)[N-]Cc1cccc([O-])c1 (nonaromatic ring conformer: 63.65926281875669 kcal/mol)

> <smiles>
O=C(CNC(=O)c1cc(S(=O)(=O)N2CCOCC2)ccc1Br)NCc1cccc(O)c1

> <score_type>
oracle

> <origin>
adg

> <m_score__min__energy>
-16.16

> <m_primary>
energy

> <minimizedAffinity>
-6.51891

> <minimizedRMSD>
0.73003

> <CNNscore>
0.5759194493

> <CNNaffinity>
6.5051608086

> <CNN_VS>
3.7464485168

> <CNNaffinity_variance>
0.0655182600

$$$$
42:0


 32 35  0  0  0  0  0  0  0  0999 V2000
   60.4477   30.9470   48.1328 C   0  0  0  0  0  0  0  0  0  0  0  0
   61.6414   31.2296   47.8426 O   0  0  0  0  0  0  0  0  0  0  0  0
   60.0100   31.0037   49.5019 N   0  0  0  0  0  0  0  0  0  0  0  0
   58.6690   31.5264   49.8111 C   0  0  0  0  0  0  0  0  0  0  0  0
   58.4592   31.6850   51.3190 C   0  0  0  0  0  0  0  0  0  0  0  0
   58.9506   30.4896   52.0176 N   0  0  0  0  0  0  0  0  0  0  0  0
   58.1827   29.8773   53.0709 C   0  0  0  0  0  0  0  0  0  0  0  0
   58.7766   29.3935   54.0725 O   0  0  0  0  0  0  0  0  0  0  0  0
   60.2941   29.9713   51.7214 C   0  0  0  0  0  0  0  0  0  0  0  0
   60.9692   30.7508   50.5848 C   0  0  0  0  0  0  0  0  0  0  0  0
   57.3161   31.3093   44.4515 C   0  0  0  0  0  0  0  0  0  0  0  0
   58.1000   30.7674   45.3978 C   0  0  0  0  0  0  0  0  0  0  0  0
   58.2818   29.4020   45.6418 C   0  0  0  0  0  0  0  0  0  0  0  0
   57.6802   28.3726   45.0137 C   0  0  0  0  0  0  0  0  0  0  0  0
   59.1696   29.3125   46.7040 C   0  0  0  0  0  0  0  0  0  0  0  0
   59.5100   30.6057   47.0456 C   0  0  0  0  0  0  0  0  0  0  0  0
   58.8493   31.4940   46.2650 N   0  0  0  0  0  0  0  0  0  0  0  0
   58.8581   32.9560   46.3908 C   0  0  0  0  0  0  0  0  0  0  0  0
   57.8053   26.9655   45.4336 C   0  0  0  0  0  0  0  0  0  0  0  0
   58.9739   26.3024   45.4526 N   0  0  0  0  0  0  0  0  0  0  0  0
   58.6455   25.1000   45.9747 C   0  0  0  0  0  0  0  0  0  0  0  0
   59.4887   24.1813   46.1411 O   0  0  0  0  0  0  0  0  0  0  0  0
   57.3465   24.9652   46.3130 N   0  0  0  0  0  0  0  0  0  0  0  0
   56.8280   26.1581   45.9772 C   0  0  0  0  0  0  0  0  0  0  0  0
   55.5049   26.5141   46.2081 O   0  0  0  0  0  0  0  0  0  0  0  0
   56.7100   29.7481   52.9705 C   0  0  0  0  0  0  0  0  0  0  0  0
   55.9755   30.7779   52.3563 C   0  0  0  0  0  0  0  0  0  0  0  0
   54.5877   30.6811   52.2300 C   0  0  0  0  0  0  0  0  0  0  0  0
   53.9181   29.5555   52.7120 C   0  0  0  0  0  0  0  0  0  0  0  0
   54.6354   28.5236   53.3212 C   0  0  0  0  0  0  0  0  0  0  0  0
   56.0273   28.6096   53.4535 C   0  0  0  0  0  0  0  0  0  0  0  0
   56.8652   27.2983   54.2775 Cl  0  0  0  0  0  0  0  0  0  0  0  0
 11 12  2  0
 12 13  1  0
 13 14  2  0
 14 19  1  0
 19 20  1  0
 20 21  1  0
 21 22  2  0
 21 23  1  0
 23 24  1  0
 24 25  1  0
 13 15  1  0
 15 16  2  0
 16  1  1  0
  1  2  2  0
  1  3  1  0
  3  4  1  0
  4  5  1  0
  5  6  1  0
  6  7  1  0
  7  8  2  0
  7 26  1  0
 26 27  2  0
 27 28  1  0
 28 29  2  0
 29 30  1  0
 30 31  2  0
 31 32  1  0
  6  9  1  0
  9 10  1  0
 16 17  1  0
 17 18  1  0
 17 12  1  0
 24 19  2  0
 10  3  1  0
 31 26  1  0
M  CHG 1  20  -1
M  CHG 1  23  -1
M  CHG 1  25  -1
M  END
> <UniqueID>
42

> <SMILES>
C=c1/c(=C/c2[n-]c(=O)[n-]c2[O-])cc(C(=O)N2CCN(C(=O)c3ccccc3Cl)CC2)n1C

> <Energy>
131.34383696210068

> <Genealogy>
C=c1c(=Cc2[n-]c(=O)[n-]c2[O-])cc(C(=O)N2CCN(C(=O)c3ccccc3Cl)CC2)n1C (protonated)
C=c1/c(=C/c2[n-]c(=O)[n-]c2[O-])cc(C(=O)N2CCN(C(=O)c3ccccc3Cl)CC2)n1C (cis-trans isomerization)
C=c1/c(=C/c2[n-]c(=O)[n-]c2[O-])cc(C(=O)N2CCN(C(=O)c3ccccc3Cl)CC2)n1C (3D coordinates assigned)
C=c1/c(=C/c2[n-]c(=O)[n-]c2[O-])cc(C(=O)N2CCN(C(=O)c3ccccc3Cl)CC2)n1C (nonaromatic ring conformer: 131.34383696210068 kcal/mol)

> <smiles>
C=c1c(=Cc2[nH]c(=O)[nH]c2O)cc(C(=O)N2CCN(C(=O)c3ccccc3Cl)CC2)n1C

> <score_type>
oracle

> <origin>
adg

> <m_score__min__energy>
-19.030000000000001

> <m_primary>
energy

> <minimizedAffinity>
-8.13542

> <minimizedRMSD>
1.99478

> <CNNscore>
0.1033409461

> <CNNaffinity>
6.0093955994

> <CNN_VS>
0.6210166216

> <CNNaffinity_variance>
0.1200876832

$$$$
62:0


 36 39  0  0  0  0  0  0  0  0999 V2000
   59.0342   29.7000   45.0584 C   0  0  0  0  0  0  0  0  0  0  0  0
   59.1862   29.0794   46.2396 C   0  0  0  0  0  0  0  0  0  0  0  0
   58.4057   28.0220   46.7312 C   0  0  0  0  0  0  0  0  0  0  0  0
   57.5291   27.2089   46.1094 C   0  0  0  0  0  0  0  0  0  0  0  0
   58.6980   27.9193   48.0773 C   0  0  0  0  0  0  0  0  0  0  0  0
   59.6913   28.8379   48.3445 C   0  0  0  0  0  0  0  0  0  0  0  0
   60.0104   29.5327   47.2236 N   0  0  0  0  0  0  0  0  0  0  0  0
   60.2566   29.0901   49.6860 C   0  0  0  0  0  0  0  0  0  0  0  0
   61.3384   28.5210   49.9926 O   0  0  0  0  0  0  0  0  0  0  0  0
   59.5845   29.9297   50.6540 N   0  0  0  0  0  0  0  0  0  0  0  0
   59.9265   29.8272   52.0823 C   0  0  0  0  0  0  0  0  0  0  0  0
   58.6550   29.5989   52.9120 C   0  0  0  0  0  0  0  0  0  0  0  0
   57.5292   30.4096   52.4140 N   0  0  0  0  0  0  0  0  0  0  0  0
   56.1747   29.9602   52.6293 C   0  0  0  0  0  0  0  0  0  0  0  0
   55.3138   30.1162   51.7203 O   0  0  0  0  0  0  0  0  0  0  0  0
   57.8054   31.4744   51.4426 C   0  0  0  0  0  0  0  0  0  0  0  0
   58.5347   30.8780   50.2359 C   0  0  0  0  0  0  0  0  0  0  0  0
   55.7765   29.2862   53.8824 C   0  0  0  0  0  0  0  0  0  0  0  0
   55.7398   29.9920   55.0959 C   0  0  0  0  0  0  0  0  0  0  0  0
   55.3479   29.3500   56.2749 C   0  0  0  0  0  0  0  0  0  0  0  0
   54.9825   28.0004   56.2491 C   0  0  0  0  0  0  0  0  0  0  0  0
   55.0025   27.2948   55.0446 C   0  0  0  0  0  0  0  0  0  0  0  0
   55.3916   27.9343   53.8639 C   0  0  0  0  0  0  0  0  0  0  0  0
   57.0921   25.8905   46.5969 C   0  0  0  0  0  0  0  0  0  0  0  0
   57.8353   25.0695   47.3620 N   0  0  0  0  0  0  0  0  0  0  0  0
   56.9807   24.0700   47.6665 C   0  0  0  0  0  0  0  0  0  0  0  0
   57.3181   23.0815   48.3702 O   0  0  0  0  0  0  0  0  0  0  0  0
   55.7354   24.2149   47.1672 N   0  0  0  0  0  0  0  0  0  0  0  0
   55.8204   25.3804   46.5047 C   0  0  0  0  0  0  0  0  0  0  0  0
   54.7555   25.9680   45.8332 O   0  0  0  0  0  0  0  0  0  0  0  0
   60.9964   30.6257   47.1343 C   0  0  0  0  0  0  0  0  0  0  0  0
   60.4038   31.9569   47.5319 C   0  0  0  0  0  0  0  0  0  0  0  0
   59.3887   32.3666   46.9041 O   0  0  0  0  0  0  0  0  0  0  0  0
   60.9260   32.7444   48.6263 N   0  0  0  0  0  0  0  0  0  0  0  0
   62.1295   32.3323   49.3537 C   0  0  0  0  0  0  0  0  0  0  0  0
   60.2378   33.9850   48.9979 C   0  0  0  0  0  0  0  0  0  0  0  0
  1  2  2  0
  2  3  1  0
  3  4  2  0
  4 24  1  0
 24 25  1  0
 25 26  1  0
 26 27  2  0
 26 28  1  0
 28 29  1  0
 29 30  1  0
  3  5  1  0
  5  6  2  0
  6  8  1  0
  8  9  2  0
  8 10  1  0
 10 11  1  0
 11 12  1  0
 12 13  1  0
 13 14  1  0
 14 15  2  0
 14 18  1  0
 18 19  2  0
 19 20  1  0
 20 21  2  0
 21 22  1  0
 22 23  2  0
 13 16  1  0
 16 17  1  0
  6  7  1  0
  7 31  1  0
 31 32  1  0
 32 33  2  0
 32 34  1  0
 34 35  1  0
 34 36  1  0
  7  2  1  0
 29 24  2  0
 17 10  1  0
 23 18  1  0
M  CHG 1  25  -1
M  CHG 1  28  -1
M  CHG 1  30  -1
M  END
> <UniqueID>
61

> <SMILES>
C=c1c(=Cc2[n-]c(=O)[n-]c2[O-])cc(C(=O)N2CCN(C(=O)c3ccccc3)CC2)n1CC(=O)N(C)C

> <Energy>
141.7054485980292

> <Genealogy>
C=c1c(=Cc2[n-]c(=O)[n-]c2[O-])cc(C(=O)N2CCN(C(=O)c3ccccc3)CC2)n1CC(=O)N(C)C (protonated)
C=c1c(=Cc2[n-]c(=O)[n-]c2[O-])cc(C(=O)N2CCN(C(=O)c3ccccc3)CC2)n1CC(=O)N(C)C (3D coordinates assigned)
C=c1c(=Cc2[n-]c(=O)[n-]c2[O-])cc(C(=O)N2CCN(C(=O)c3ccccc3)CC2)n1CC(=O)N(C)C (nonaromatic ring conformer: 141.7054485980292 kcal/mol)

> <smiles>
C=c1c(=Cc2[nH]c(=O)[nH]c2O)cc(C(=O)N2CCN(C(=O)c3ccccc3)CC2)n1CC(=O)N(C)C

> <score_type>
oracle

> <origin>
adg

> <m_score__min__energy>
-17.25

> <m_primary>
energy

> <minimizedAffinity>
-6.81028

> <minimizedRMSD>
0.56300

> <CNNscore>
0.1607452184

> <CNNaffinity>
5.6696929932

> <CNN_VS>
0.9113760591

> <CNNaffinity_variance>
0.4413494170

$$$$
64:0


 31 33  0  0  0  0  0  0  0  0999 V2000
   60.8284   31.8653   47.6643 C   0  0  0  0  0  0  0  0  0  0  0  0
   59.9582   32.8669   47.2118 C   0  0  0  0  0  0  0  0  0  0  0  0
   58.9289   32.5516   46.3212 C   0  0  0  0  0  0  0  0  0  0  0  0
   58.7507   31.2344   45.8816 C   0  0  0  0  0  0  0  0  0  0  0  0
   59.6585   30.2433   46.2903 C   0  0  0  0  0  0  0  0  0  0  0  0
   60.6860   30.5564   47.1833 C   0  0  0  0  0  0  0  0  0  0  0  0
   61.7239   32.0247   50.0200 C   0  0  0  0  0  0  0  0  0  0  0  0
   62.7845   32.3371   50.8862 C   0  0  0  0  0  0  0  0  0  0  0  0
   63.9954   32.8155   50.3802 C   0  0  0  0  0  0  0  0  0  0  0  0
   64.1604   32.9912   49.0066 C   0  0  0  0  0  0  0  0  0  0  0  0
   63.1179   32.6831   48.1322 C   0  0  0  0  0  0  0  0  0  0  0  0
   61.8984   32.1918   48.6249 C   0  0  0  0  0  0  0  0  0  0  0  0
   60.2217   31.4976   52.4248 N   0  0  0  0  0  0  0  0  0  0  0  0
   60.1838   31.4676   50.6965 S   0  0  0  0  0  0  0  0  0  0  0  0
   59.9112   30.0624   50.2366 O   0  0  0  0  0  0  0  0  0  0  0  0
   59.0800   32.3734   50.2315 O   0  0  0  0  0  0  0  0  0  0  0  0
   59.3263   31.1734   52.7901 H   0  0  0  0  0  0  0  0  0  0  0  0
   57.6818   30.9438   44.9722 N   0  0  0  0  0  0  0  0  0  0  0  0
   57.0227   29.6787   44.7962 C   0  0  0  0  0  0  0  0  0  0  0  0
   55.7653   29.6578   44.7300 O   0  0  0  0  0  0  0  0  0  0  0  0
   57.7733   28.3784   44.7301 C   0  0  0  0  0  0  0  0  0  0  0  0
   57.4515   27.5475   45.8827 N   0  0  0  0  0  0  0  0  0  0  0  0
   56.8768   26.2454   45.7649 C   0  0  0  0  0  0  0  0  0  0  0  0
   55.7242   26.0230   46.2242 O   0  0  0  0  0  0  0  0  0  0  0  0
   57.6634   25.1917   45.1886 N   0  0  0  0  0  0  0  0  0  0  0  0
   57.2887   24.0077   44.7882 C   0  0  0  0  0  0  0  0  0  0  0  0
   56.6210   23.7746   43.5664 C   0  0  0  0  0  0  0  0  0  0  0  0
   56.2796   22.4698   43.2031 C   0  0  0  0  0  0  0  0  0  0  0  0
   56.5965   21.4282   44.0162 N   0  0  0  0  0  0  0  0  0  0  0  0
   57.2492   21.6186   45.1926 C   0  0  0  0  0  0  0  0  0  0  0  0
   57.6110   22.9063   45.5938 C   0  0  0  0  0  0  0  0  0  0  0  0
 13 14  1  0
 14 15  2  0
 14 16  2  0
 14  7  1  0
  7  8  2  0
  8  9  1  0
  9 10  2  0
 10 11  1  0
 11 12  2  0
 12  1  1  0
  1  2  2  0
  2  3  1  0
  3  4  2  0
  4 18  1  0
 18 19  1  0
 19 20  2  0
 19 21  1  0
 21 22  1  0
 22 23  1  0
 23 24  2  0
 23 25  1  0
 25 26  2  0
 26 27  1  0
 27 28  2  0
 28 29  1  0
 29 30  1  0
 30 31  2  0
  4  5  1  0
  5  6  2  0
 12  7  1  0
  6  1  1  0
 31 26  1  0
 13 17  1  0
M  CHG 1  13  -1
M  CHG 1  18  -1
M  CHG 1  22  -1
M  CHG 1  29  -1
M  END
> <UniqueID>
63

> <SMILES>
[NH-]S(=O)(=O)c1ccccc1-c1ccc([N-]C(=O)C[N-]C(=O)N=c2cc[n-]cc2)cc1

> <Energy>
63.02536683414149

> <Genealogy>
[NH-]S(=O)(=O)c1ccccc1-c1ccc([N-]C(=O)C[N-]C(=O)N=c2cc[n-]cc2)cc1 (protonated)
[NH-]S(=O)(=O)c1ccccc1-c1ccc([N-]C(=O)C[N-]C(=O)N=c2cc[n-]cc2)cc1 (3D coordinates assigned)
[NH-]S(=O)(=O)c1ccccc1-c1ccc([N-]C(=O)C[N-]C(=O)N=c2cc[n-]cc2)cc1 (optimized conformer: 63.02536683414149 kcal/mol)

> <smiles>
NS(=O)(=O)c1ccccc1-c1ccc(NC(=O)CNC(=O)N=c2cc[nH]cc2)cc1

> <score_type>
oracle

> <origin>
adg

> <m_score__min__energy>
-15.83

> <m_primary>
energy

> <minimizedAffinity>
-8.22239

> <minimizedRMSD>
1.38470

> <CNNscore>
0.4088397026

> <CNNaffinity>
6.8777656555

> <CNN_VS>
2.8119037151

> <CNNaffinity_variance>
0.1724354178

$$$$
66:0


 26 28  0  0  0  0  0  0  0  0999 V2000
   57.2116   29.7354   43.5297 C   0  0  0  0  0  0  0  0  0  0  0  0
   57.6643   30.4291   44.5871 C   0  0  0  0  0  0  0  0  0  0  0  0
   57.1219   31.6570   44.7726 N   0  0  0  0  0  0  0  0  0  0  0  0
   57.5045   32.4887   45.7633 C   0  0  0  0  0  0  0  0  0  0  0  0
   56.9452   33.6149   45.8596 O   0  0  0  0  0  0  0  0  0  0  0  0
   58.4762   32.1079   46.6455 N   0  0  0  0  0  0  0  0  0  0  0  0
   59.0552   30.8671   46.5339 C   0  0  0  0  0  0  0  0  0  0  0  0
   59.8873   30.5050   47.4110 O   0  0  0  0  0  0  0  0  0  0  0  0
   58.6887   29.9787   45.4774 C   0  0  0  0  0  0  0  0  0  0  0  0
   59.2501   28.7400   45.3479 C   0  0  0  0  0  0  0  0  0  0  0  0
   58.6422   27.4596   45.7711 C   0  0  0  0  0  0  0  0  0  0  0  0
   57.2470   27.2937   45.7359 C   0  0  0  0  0  0  0  0  0  0  0  0
   56.6671   26.1014   46.1837 C   0  0  0  0  0  0  0  0  0  0  0  0
   55.2880   25.9366   46.1314 O   0  0  0  0  0  0  0  0  0  0  0  0
   57.4747   25.0768   46.6868 C   0  0  0  0  0  0  0  0  0  0  0  0
   58.8609   25.2460   46.7504 C   0  0  0  0  0  0  0  0  0  0  0  0
   59.4471   26.4357   46.3028 C   0  0  0  0  0  0  0  0  0  0  0  0
   60.8275   26.5898   46.3820 O   0  0  0  0  0  0  0  0  0  0  0  0
   58.8627   33.0046   47.7586 C   0  0  0  0  0  0  0  0  0  0  0  0
   59.8708   34.0692   47.3011 C   0  0  0  0  0  0  0  0  0  0  0  0
   61.2528   33.7981   47.8355 C   0  0  0  0  0  0  0  0  0  0  0  0
   62.2665   33.3358   46.9779 C   0  0  0  0  0  0  0  0  0  0  0  0
   63.5351   33.0406   47.4842 C   0  0  0  0  0  0  0  0  0  0  0  0
   63.8003   33.1993   48.8477 C   0  0  0  0  0  0  0  0  0  0  0  0
   62.7949   33.6499   49.7075 C   0  0  0  0  0  0  0  0  0  0  0  0
   61.5231   33.9455   49.2057 C   0  0  0  0  0  0  0  0  0  0  0  0
  1  2  2  0
  2  3  1  0
  3  4  1  0
  4  5  2  0
  4  6  1  0
  6 19  1  0
 19 20  1  0
 20 21  1  0
 21 22  2  0
 22 23  1  0
 23 24  2  0
 24 25  1  0
 25 26  2  0
  6  7  1  0
  7  8  2  0
  7  9  1  0
  9 10  2  0
 10 11  1  0
 11 12  2  0
 12 13  1  0
 13 14  1  0
 13 15  2  0
 15 16  1  0
 16 17  2  0
 17 18  1  0
  9  2  1  0
 17 11  1  0
 26 21  1  0
M  CHG 1   3  -1
M  CHG 1  14  -1
M  CHG 1  18  -1
M  END
> <UniqueID>
65

> <SMILES>
C=c1[n-]c(=O)n(CCc2ccccc2)c(=O)/c1=C\c1cc([O-])ccc1[O-]

> <Energy>
66.04434221812456

> <Genealogy>
C=c1[n-]c(=O)n(CCc2ccccc2)c(=O)c1=Cc1cc([O-])ccc1[O-] (protonated)
C=c1[n-]c(=O)n(CCc2ccccc2)c(=O)/c1=C\c1cc([O-])ccc1[O-] (cis-trans isomerization)
C=c1[n-]c(=O)n(CCc2ccccc2)c(=O)/c1=C\c1cc([O-])ccc1[O-] (3D coordinates assigned)
C=c1[n-]c(=O)n(CCc2ccccc2)c(=O)/c1=C\c1cc([O-])ccc1[O-] (optimized conformer: 66.04434221812456 kcal/mol)

> <smiles>
C=c1[nH]c(=O)n(CCc2ccccc2)c(=O)c1=Cc1cc(O)ccc1O

> <score_type>
oracle

> <origin>
adg

> <m_score__min__energy>
-14.9

> <m_primary>
energy

> <minimizedAffinity>
-8.96139

> <minimizedRMSD>
0.66386

> <CNNscore>
0.6028556228

> <CNNaffinity>
6.5054621696

> <CNN_VS>
3.9218544960

> <CNNaffinity_variance>
0.0239672903

$$$$
75:0


 30 32  0  0  0  0  0  0  0  0999 V2000
   54.5362   28.6464   55.1516 C   0  0  0  0  0  0  0  0  0  0  0  0
   54.9867   29.1866   54.0079 C   0  0  0  0  0  0  0  0  0  0  0  0
   54.2458   29.9492   53.0920 C   0  0  0  0  0  0  0  0  0  0  0  0
   52.9163   30.1264   52.9597 C   0  0  0  0  0  0  0  0  0  0  0  0
   55.1679   30.5420   52.2482 C   0  0  0  0  0  0  0  0  0  0  0  0
   56.4165   30.0679   52.6118 C   0  0  0  0  0  0  0  0  0  0  0  0
   56.3017   29.2231   53.6656 N   0  0  0  0  0  0  0  0  0  0  0  0
   57.4134   28.5700   54.3712 C   0  0  0  0  0  0  0  0  0  0  0  0
   52.2045   30.3752   51.6908 C   0  0  0  0  0  0  0  0  0  0  0  0
   52.2474   29.5674   50.6139 N   0  0  0  0  0  0  0  0  0  0  0  0
   51.5778   30.2679   49.6714 C   0  0  0  0  0  0  0  0  0  0  0  0
   51.3945   29.8315   48.5043 O   0  0  0  0  0  0  0  0  0  0  0  0
   51.1434   31.4823   50.0700 N   0  0  0  0  0  0  0  0  0  0  0  0
   51.5607   31.5390   51.3468 C   0  0  0  0  0  0  0  0  0  0  0  0
   51.3654   32.6362   52.1760 O   0  0  0  0  0  0  0  0  0  0  0  0
   57.7087   30.5000   52.0153 C   0  0  0  0  0  0  0  0  0  0  0  0
   58.1077   29.9092   50.9751 O   0  0  0  0  0  0  0  0  0  0  0  0
   58.5515   31.5276   52.5966 N   0  0  0  0  0  0  0  0  0  0  0  0
   57.9148   32.8577   52.4752 C   0  0  0  0  0  0  0  0  0  0  0  0
   58.9231   34.0200   52.6431 C   0  0  0  0  0  0  0  0  0  0  0  0
   60.1058   33.6416   53.4449 N   0  0  0  0  0  0  0  0  0  0  0  0
   60.8322   32.4805   52.8638 C   0  0  0  0  0  0  0  0  0  0  0  0
   59.9258   31.5250   52.0580 C   0  0  0  0  0  0  0  0  0  0  0  0
   59.2802   30.8908   52.7774 H   0  0  0  0  0  0  0  0  0  0  0  0
   59.7990   33.5058   54.8895 C   0  0  0  0  0  0  0  0  0  0  0  0
   59.5489   34.8898   55.5066 C   0  0  0  0  0  0  0  0  0  0  0  0
   58.8845   34.7836   56.8854 C   0  0  0  0  0  0  0  0  0  0  0  0
   58.9973   33.4020   57.4073 N   0  0  0  0  0  0  0  0  0  0  0  0
   59.9473   33.3412   58.5318 C   0  0  0  0  0  0  0  0  0  0  0  0
   57.6835   32.8892   57.8341 C   0  0  0  0  0  0  0  0  0  0  0  0
  1  2  2  0
  2  3  1  0
  3  4  2  0
  4  9  1  0
  9 10  1  0
 10 11  1  0
 11 12  2  0
 11 13  1  0
 13 14  1  0
 14 15  1  0
  3  5  1  0
  5  6  2  0
  6 16  1  0
 16 17  2  0
 16 18  1  0
 18 19  1  0
 19 20  1  0
 20 21  1  0
 21 25  1  0
 25 26  1  0
 26 27  1  0
 27 28  1  0
 28 29  1  0
 28 30  1  0
 21 22  1  0
 22 23  1  0
  6  7  1  0
  7  8  1  0
  7  2  1  0
 14  9  2  0
 23 18  1  0
 18 24  1  0
M  CHG 1  10  -1
M  CHG 1  13  -1
M  CHG 1  15  -1
M  CHG 1  18   1
M  END
> <UniqueID>
74

> <SMILES>
C=c1/c(=C\c2[n-]c(=O)[n-]c2[O-])cc(C(=O)[NH+]2CCN(CCCN(C)C)CC2)n1C

> <Energy>
145.74704406891405

> <Genealogy>
C=c1c(=Cc2[n-]c(=O)[n-]c2[O-])cc(C(=O)[NH+]2CCN(CCCN(C)C)CC2)n1C (protonated)
C=c1/c(=C\c2[n-]c(=O)[n-]c2[O-])cc(C(=O)[NH+]2CCN(CCCN(C)C)CC2)n1C (cis-trans isomerization)
C=c1/c(=C\c2[n-]c(=O)[n-]c2[O-])cc(C(=O)[NH+]2CCN(CCCN(C)C)CC2)n1C (3D coordinates assigned)
C=c1/c(=C\c2[n-]c(=O)[n-]c2[O-])cc(C(=O)[NH+]2CCN(CCCN(C)C)CC2)n1C (nonaromatic ring conformer: 145.74704406891405 kcal/mol)

> <smiles>
C=c1c(=Cc2[nH]c(=O)[nH]c2O)cc(C(=O)N2CCN(CCCN(C)C)CC2)n1C

> <score_type>
oracle

> <origin>
adg

> <m_score__min__energy>
-15.69

> <m_primary>
energy

> <minimizedAffinity>
-4.49567

> <minimizedRMSD>
1.26406

> <CNNscore>
0.1193760633

> <CNNaffinity>
4.1592459679

> <CNN_VS>
0.4965144098

> <CNNaffinity_variance>
1.0766620636

$$$$
3:0


 23 24  0  0  0  0  0  0  0  0999 V2000
   56.9593   29.9573   53.8217 C   0  0  0  0  0  0  0  0  0  0  0  0
   57.5091   28.9623   53.2791 O   0  0  0  0  0  0  0  0  0  0  0  0
   55.9314   29.7267   54.8558 C   0  0  0  0  0  0  0  0  0  0  0  0
   54.6539   29.3793   54.6303 C   0  0  0  0  0  0  0  0  0  0  0  0
   53.7615   29.9976   53.6279 C   0  0  0  0  0  0  0  0  0  0  0  0
   54.1330   29.9827   52.2750 C   0  0  0  0  0  0  0  0  0  0  0  0
   53.2917   30.5411   51.3079 C   0  0  0  0  0  0  0  0  0  0  0  0
   52.0619   31.0921   51.6790 C   0  0  0  0  0  0  0  0  0  0  0  0
   51.2333   31.6487   50.7106 O   0  0  0  0  0  0  0  0  0  0  0  0
   51.6671   31.0760   53.0219 C   0  0  0  0  0  0  0  0  0  0  0  0
   50.4377   31.6087   53.3948 O   0  0  0  0  0  0  0  0  0  0  0  0
   52.5072   30.5186   53.9914 C   0  0  0  0  0  0  0  0  0  0  0  0
   57.2842   31.2804   53.3864 N   0  0  0  0  0  0  0  0  0  0  0  0
   58.5789   31.9184   53.5947 C   0  0  0  0  0  0  0  0  0  0  0  0
   59.4806   31.7696   52.3611 C   0  0  0  0  0  0  0  0  0  0  0  0
   58.8765   32.3811   51.0864 C   0  0  0  0  0  0  0  0  0  0  0  0
   59.0437   31.4990   49.9270 N   0  0  0  0  0  0  0  0  0  0  0  0
   59.2405   31.8361   48.6314 C   0  0  0  0  0  0  0  0  0  0  0  0
   59.3408   30.7562   47.8268 N   0  0  0  0  0  0  0  0  0  0  0  0
   59.2169   29.7048   48.6601 C   0  0  0  0  0  0  0  0  0  0  0  0
   59.0295   30.1546   49.9468 C   0  0  0  0  0  0  0  0  0  0  0  0
   59.2252   33.2381   48.0930 C   0  0  0  0  0  0  0  0  0  0  0  0
   60.6386   33.8043   48.0325 C   0  0  0  0  0  0  0  0  0  0  0  0
  3  1  1  0
  1  2  2  0
  1 13  1  0
 13 14  1  0
 14 15  1  0
 15 16  1  0
 16 17  1  0
 17 18  1  0
 18 22  1  0
 22 23  1  0
 18 19  2  0
 19 20  1  0
 20 21  2  0
  3  4  2  0
  4  5  1  0
  5  6  2  0
  6  7  1  0
  7  8  2  0
  8  9  1  0
  8 10  1  0
 10 11  1  0
 10 12  2  0
 21 17  1  0
 12  5  1  0
M  CHG 1   9  -1
M  CHG 1  11  -1
M  CHG 1  13  -1
M  END
> <UniqueID>
4

> <SMILES>
CCc1nccn1CCC[N-]C(=O)/C=C\c1ccc([O-])c([O-])c1

> <Energy>
65.31063774847178

> <Genealogy>
CCc1nccn1CCC[N-]C(=O)C=Cc1ccc([O-])c([O-])c1 (protonated)
CCc1nccn1CCC[N-]C(=O)/C=C\c1ccc([O-])c([O-])c1 (cis-trans isomerization)
CCc1nccn1CCC[N-]C(=O)/C=C\c1ccc([O-])c([O-])c1 (3D coordinates assigned)
CCc1nccn1CCC[N-]C(=O)/C=C\c1ccc([O-])c([O-])c1 (optimized conformer: 65.31063774847178 kcal/mol)

> <smiles>
CCc1nccn1CCCNC(=O)C=Cc1ccc(O)c(O)c1

> <score_type>
oracle

> <origin>
adg

> <m_score__min__energy>
-16.59

> <m_primary>
energy

> <minimizedAffinity>
-4.91816

> <minimizedRMSD>
1.67174

> <CNNscore>
0.2261849195

> <CNNaffinity>
4.8842892647

> <CNN_VS>
1.1047525406

> <CNNaffinity_variance>
0.1499745101

$$$$
6:0


 33 36  0  0  0  0  0  0  0  0999 V2000
   59.0438   28.1969   45.0560 C   0  0  0  0  0  0  0  0  0  0  0  0
   59.2761   29.3908   45.6667 C   0  0  0  0  0  0  0  0  0  0  0  0
   60.1990   29.4576   46.7377 C   0  0  0  0  0  0  0  0  0  0  0  0
   60.4409   30.6477   47.4189 C   0  0  0  0  0  0  0  0  0  0  0  0
   59.7756   31.8212   47.0605 C   0  0  0  0  0  0  0  0  0  0  0  0
   58.8454   31.7834   46.0155 C   0  0  0  0  0  0  0  0  0  0  0  0
   58.5869   30.5952   45.2976 C   0  0  0  0  0  0  0  0  0  0  0  0
   57.7144   30.6774   44.2725 C   0  0  0  0  0  0  0  0  0  0  0  0
   56.1604   28.2061   45.1745 O   0  0  0  0  0  0  0  0  0  0  0  0
   56.8585   27.1218   45.6991 C   0  0  0  0  0  0  0  0  0  0  0  0
   56.1763   26.0981   46.2776 N   0  0  0  0  0  0  0  0  0  0  0  0
   56.8269   25.0393   46.8228 C   0  0  0  0  0  0  0  0  0  0  0  0
   56.1722   24.1023   47.3489 O   0  0  0  0  0  0  0  0  0  0  0  0
   58.1826   24.9942   46.8067 N   0  0  0  0  0  0  0  0  0  0  0  0
   58.9126   25.9898   46.2399 C   0  0  0  0  0  0  0  0  0  0  0  0
   60.1703   25.9157   46.2469 O   0  0  0  0  0  0  0  0  0  0  0  0
   58.2620   27.0833   45.6456 C   0  0  0  0  0  0  0  0  0  0  0  0
   55.2244   28.2242   45.2142 H   0  0  0  0  0  0  0  0  0  0  0  0
   60.0213   33.0830   47.7988 C   0  0  0  0  0  0  0  0  0  0  0  0
   59.0498   33.8408   48.0637 O   0  0  0  0  0  0  0  0  0  0  0  0
   61.3409   33.4489   48.2428 N   0  0  0  0  0  0  0  0  0  0  0  0
   62.4868   33.3818   47.3308 C   0  0  0  0  0  0  0  0  0  0  0  0
   63.7358   32.8326   48.0531 C   0  0  0  0  0  0  0  0  0  0  0  0
   63.7469   33.0763   49.5206 N   0  0  0  0  0  0  0  0  0  0  0  0
   62.9802   34.2869   49.8942 C   0  0  0  0  0  0  0  0  0  0  0  0
   61.4942   34.1630   49.5134 C   0  0  0  0  0  0  0  0  0  0  0  0
   63.3559   31.8719   50.2884 C   0  0  0  0  0  0  0  0  0  0  0  0
   64.5555   31.2185   50.9252 C   0  0  0  0  0  0  0  0  0  0  0  0
   64.4098   30.0477   51.6886 C   0  0  0  0  0  0  0  0  0  0  0  0
   65.5260   29.4574   52.2910 C   0  0  0  0  0  0  0  0  0  0  0  0
   66.7900   30.0306   52.1361 C   0  0  0  0  0  0  0  0  0  0  0  0
   66.9418   31.1970   51.3808 C   0  0  0  0  0  0  0  0  0  0  0  0
   65.8293   31.7906   50.7775 C   0  0  0  0  0  0  0  0  0  0  0  0
  9 10  1  0
 10 11  1  0
 11 12  1  0
 12 13  2  0
 12 14  1  0
 14 15  1  0
 15 16  2  0
 15 17  1  0
 17  1  1  0
  1  2  2  0
  2  3  1  0
  3  4  2  0
  4  5  1  0
  5 19  1  0
 19 20  2  0
 19 21  1  0
 21 22  1  0
 22 23  1  0
 23 24  1  0
 24 27  1  0
 27 28  1  0
 28 29  2  0
 29 30  1  0
 30 31  2  0
 31 32  1  0
 32 33  2  0
 24 25  1  0
 25 26  1  0
  5  6  2  0
  6  7  1  0
  7  8  2  0
 17 10  2  0
  7  2  1  0
 26 21  1  0
 33 28  1  0
  9 18  1  0
M  CHG 1  11  -1
M  CHG 1  14  -1
M  END
> <UniqueID>
7

> <SMILES>
C=c1cc(C(=O)N2CCN(Cc3ccccc3)CC2)cc/c1=C\c1c(O)[n-]c(=O)[n-]c1=O

> <Energy>
89.65264200986314

> <Genealogy>
C=c1cc(C(=O)N2CCN(Cc3ccccc3)CC2)ccc1=Cc1c(O)[n-]c(=O)[n-]c1=O (protonated)
C=c1cc(C(=O)N2CCN(Cc3ccccc3)CC2)cc/c1=C\c1c(O)[n-]c(=O)[n-]c1=O (cis-trans isomerization)
C=c1cc(C(=O)N2CCN(Cc3ccccc3)CC2)cc/c1=C\c1c(O)[n-]c(=O)[n-]c1=O (3D coordinates assigned)
C=c1cc(C(=O)N2CCN(Cc3ccccc3)CC2)cc/c1=C\c1c(O)[n-]c(=O)[n-]c1=O (nonaromatic ring conformer: 89.65264200986314 kcal/mol)

> <smiles>
C=c1cc(C(=O)N2CCN(Cc3ccccc3)CC2)ccc1=Cc1c(O)[nH]c(=O)[nH]c1=O

> <score_type>
oracle

> <origin>
adg

> <m_score__min__energy>
-14.279999999999999

> <m_primary>
energy

> <minimizedAffinity>
-9.38774

> <minimizedRMSD>
0.92279

> <CNNscore>
0.4502608776

> <CNNaffinity>
6.8804440498

> <CNN_VS>
3.0979948044

> <CNNaffinity_variance>
0.1212462261

$$$$
7:0


 38 41  0  0  0  0  0  0  0  0999 V2000
   58.8918   27.6749   45.0843 C   0  0  0  0  0  0  0  0  0  0  0  0
   59.3237   28.1653   44.0078 O   0  0  0  0  0  0  0  0  0  0  0  0
   58.8065   28.5040   46.2608 N   0  0  0  0  0  0  0  0  0  0  0  0
   58.3646   29.8969   46.1471 C   0  0  0  0  0  0  0  0  0  0  0  0
   59.3642   30.8387   46.8341 C   0  0  0  0  0  0  0  0  0  0  0  0
   59.8702   30.3196   48.2137 C   0  0  0  0  0  0  0  0  0  0  0  0
   59.1367   29.0368   48.6642 C   0  0  0  0  0  0  0  0  0  0  0  0
   59.1940   27.9617   47.5745 C   0  0  0  0  0  0  0  0  0  0  0  0
   58.9190   22.8652   45.5791 C   0  0  0  0  0  0  0  0  0  0  0  0
   58.4387   24.1016   45.3784 C   0  0  0  0  0  0  0  0  0  0  0  0
   57.2593   24.4374   44.6945 C   0  0  0  0  0  0  0  0  0  0  0  0
   56.2266   23.6725   44.2956 C   0  0  0  0  0  0  0  0  0  0  0  0
   57.3085   25.8017   44.4856 C   0  0  0  0  0  0  0  0  0  0  0  0
   58.4489   26.2646   45.1137 C   0  0  0  0  0  0  0  0  0  0  0  0
   59.1283   25.2339   45.6747 N   0  0  0  0  0  0  0  0  0  0  0  0
   60.4186   25.3272   46.3695 C   0  0  0  0  0  0  0  0  0  0  0  0
   55.1184   23.2244   45.1553 C   0  0  0  0  0  0  0  0  0  0  0  0
   54.8387   21.9319   45.3946 N   0  0  0  0  0  0  0  0  0  0  0  0
   53.6901   21.9866   46.1030 C   0  0  0  0  0  0  0  0  0  0  0  0
   53.1131   20.9547   46.5412 O   0  0  0  0  0  0  0  0  0  0  0  0
   53.2039   23.2291   46.3021 N   0  0  0  0  0  0  0  0  0  0  0  0
   54.1112   24.0033   45.6832 C   0  0  0  0  0  0  0  0  0  0  0  0
   54.0072   25.3869   45.5735 O   0  0  0  0  0  0  0  0  0  0  0  0
   53.2841   25.8350   45.9664 H   0  0  0  0  0  0  0  0  0  0  0  0
   59.7891   31.4213   49.2661 C   0  0  0  0  0  0  0  0  0  0  0  0
   58.9894   31.2818   50.2360 O   0  0  0  0  0  0  0  0  0  0  0  0
   60.5885   32.6328   49.1649 N   0  0  0  0  0  0  0  0  0  0  0  0
   62.0856   32.5327   49.1222 C   0  0  0  0  0  0  0  0  0  0  0  0
   62.5634   31.4023   50.0651 C   0  0  0  0  0  0  0  0  0  0  0  0
   62.7860   33.8341   49.5968 C   0  0  0  0  0  0  0  0  0  0  0  0
   62.5624   32.2471   47.6754 C   0  0  0  0  0  0  0  0  0  0  0  0
   59.8801   33.9110   48.9171 C   0  0  0  0  0  0  0  0  0  0  0  0
   59.3101   33.9505   47.5194 C   0  0  0  0  0  0  0  0  0  0  0  0
   58.0033   33.4950   47.2743 C   0  0  0  0  0  0  0  0  0  0  0  0
   57.4780   33.5239   45.9800 C   0  0  0  0  0  0  0  0  0  0  0  0
   58.2479   34.0160   44.9198 C   0  0  0  0  0  0  0  0  0  0  0  0
   59.5354   34.5010   45.1607 C   0  0  0  0  0  0  0  0  0  0  0  0
   60.0648   34.4711   46.4531 C   0  0  0  0  0  0  0  0  0  0  0  0
  9 10  2  0
 10 11  1  0
 11 12  2  0
 12 17  1  0
 17 18  1  0
 18 19  1  0
 19 20  2  0
 19 21  1  0
 21 22  1  0
 22 23  1  0
 11 13  1  0
 13 14  2  0
 14  1  1  0
  1  2  2  0
  1  3  1  0
  3  4  1  0
  4  5  1  0
  5  6  1  0
  6 25  1  0
 25 26  2  0
 25 27  1  0
 27 32  1  0
 32 33  1  0
 33 34  2  0
 34 35  1  0
 35 36  2  0
 36 37  1  0
 37 38  2  0
 27 28  1  0
 28 29  1  0
 28 30  1  0
 28 31  1  0
  6  7  1  0
  7  8  1  0
 14 15  1  0
 15 16  1  0
 15 10  1  0
 22 17  2  0
  8  3  1  0
 38 33  1  0
 23 24  1  0
M  CHG 1  18  -1
M  CHG 1  21  -1
M  END
> <UniqueID>
8

> <SMILES>
C=c1c(=Cc2[n-]c(=O)[n-]c2O)cc(C(=O)N2CCC(C(=O)N(Cc3ccccc3)C(C)(C)C)CC2)n1C

> <Energy>
155.6099058486422

> <Genealogy>
C=c1c(=Cc2[n-]c(=O)[n-]c2O)cc(C(=O)N2CCC(C(=O)N(Cc3ccccc3)C(C)(C)C)CC2)n1C (protonated)
C=c1c(=Cc2[n-]c(=O)[n-]c2O)cc(C(=O)N2CCC(C(=O)N(Cc3ccccc3)C(C)(C)C)CC2)n1C (3D coordinates assigned)
C=c1c(=Cc2[n-]c(=O)[n-]c2O)cc(C(=O)N2CCC(C(=O)N(Cc3ccccc3)C(C)(C)C)CC2)n1C (nonaromatic ring conformer: 155.6099058486422 kcal/mol)

> <smiles>
C=c1c(=Cc2[nH]c(=O)[nH]c2O)cc(C(=O)N2CCC(C(=O)N(Cc3ccccc3)C(C)(C)C)CC2)n1C

> <score_type>
oracle

> <origin>
adg

> <m_score__min__energy>
-15.24

> <m_primary>
energy

> <minimizedAffinity>
-8.75604

> <minimizedRMSD>
0.91043

> <CNNscore>
0.2439156473

> <CNNaffinity>
6.9879341125

> <CNN_VS>
1.7044664621

> <CNNaffinity_variance>
0.2690906525

$$$$
28:0


 28 31  0  0  0  0  0  0  0  0999 V2000
   60.7761   28.8120   45.2634 C   0  0  0  0  0  0  0  0  0  0  0  0
   60.1951   28.7079   46.4698 C   0  0  0  0  0  0  0  0  0  0  0  0
   59.4538   27.6196   46.9494 C   0  0  0  0  0  0  0  0  0  0  0  0
   59.2188   26.4549   46.3054 C   0  0  0  0  0  0  0  0  0  0  0  0
   59.0221   27.9815   48.2233 C   0  0  0  0  0  0  0  0  0  0  0  0
   59.5172   29.2466   48.4672 C   0  0  0  0  0  0  0  0  0  0  0  0
   59.3023   30.0215   49.7314 C   0  0  0  0  0  0  0  0  0  0  0  0
   60.2283   29.6876   47.4069 N   0  0  0  0  0  0  0  0  0  0  0  0
   58.0293   25.5908   46.4791 C   0  0  0  0  0  0  0  0  0  0  0  0
   58.0245   24.3356   46.9614 N   0  0  0  0  0  0  0  0  0  0  0  0
   56.7194   23.9923   46.9428 C   0  0  0  0  0  0  0  0  0  0  0  0
   56.3077   22.8664   47.3261 O   0  0  0  0  0  0  0  0  0  0  0  0
   55.8883   24.9519   46.4825 N   0  0  0  0  0  0  0  0  0  0  0  0
   56.7330   25.9565   46.1962 C   0  0  0  0  0  0  0  0  0  0  0  0
   56.3261   27.1841   45.6882 O   0  0  0  0  0  0  0  0  0  0  0  0
   60.8941   30.9582   47.3185 C   0  0  0  0  0  0  0  0  0  0  0  0
   62.2542   31.0462   47.6526 C   0  0  0  0  0  0  0  0  0  0  0  0
   62.9154   32.2749   47.6094 C   0  0  0  0  0  0  0  0  0  0  0  0
   62.2227   33.4270   47.2344 C   0  0  0  0  0  0  0  0  0  0  0  0
   60.8704   33.3531   46.8964 C   0  0  0  0  0  0  0  0  0  0  0  0
   60.1947   32.1212   46.9285 C   0  0  0  0  0  0  0  0  0  0  0  0
   58.8101   32.0614   46.5396 N   0  0  0  0  0  0  0  0  0  0  0  0
   58.3107   30.9178   45.7693 C   0  0  0  0  0  0  0  0  0  0  0  0
   57.0716   31.3165   44.9497 C   0  0  0  0  0  0  0  0  0  0  0  0
   57.2027   32.6748   44.3805 N   0  0  0  0  0  0  0  0  0  0  0  0
   58.2422   32.7354   43.3392 C   0  0  0  0  0  0  0  0  0  0  0  0
   57.3867   33.7322   45.4104 C   0  0  0  0  0  0  0  0  0  0  0  0
   57.9288   33.2097   46.7545 C   0  0  0  0  0  0  0  0  0  0  0  0
  1  2  2  0
  2  3  1  0
  3  4  2  0
  4  9  1  0
  9 10  1  0
 10 11  1  0
 11 12  2  0
 11 13  1  0
 13 14  1  0
 14 15  1  0
  3  5  1  0
  5  6  2  0
  6  7  1  0
  6  8  1  0
  8 16  1  0
 16 17  2  0
 17 18  1  0
 18 19  2  0
 19 20  1  0
 20 21  2  0
 21 22  1  0
 22 23  1  0
 23 24  1  0
 24 25  1  0
 25 26  1  0
 25 27  1  0
 27 28  1  0
  8  2  1  0
 21 16  1  0
 28 22  1  0
 14  9  2  0
M  CHG 1  10  -1
M  CHG 1  13  -1
M  CHG 1  15  -1
M  END
> <UniqueID>
27

> <SMILES>
C=c1c(=Cc2[n-]c(=O)[n-]c2[O-])cc(C)n1-c1ccccc1N1CCN(C)CC1

> <Energy>
131.57429393566022

> <Genealogy>
C=c1c(=Cc2[n-]c(=O)[n-]c2[O-])cc(C)n1-c1ccccc1N1CCN(C)CC1 (protonated)
C=c1c(=Cc2[n-]c(=O)[n-]c2[O-])cc(C)n1-c1ccccc1N1CCN(C)CC1 (3D coordinates assigned)
C=c1c(=Cc2[n-]c(=O)[n-]c2[O-])cc(C)n1-c1ccccc1N1CCN(C)CC1 (nonaromatic ring conformer: 131.57429393566022 kcal/mol)

> <smiles>
C=c1c(=Cc2[nH]c(=O)[nH]c2O)cc(C)n1-c1ccccc1N1CCN(C)CC1

> <score_type>
oracle

> <origin>
adg

> <m_score__min__energy>
-16.07

> <m_primary>
energy

> <minimizedAffinity>
-7.67722

> <minimizedRMSD>
1.01081

> <CNNscore>
0.2316684723

> <CNNaffinity>
6.4996848106

> <CNN_VS>
1.5057719946

> <CNNaffinity_variance>
0.0606496483

$$$$
30:0


 32 35  0  0  0  0  0  0  0  0999 V2000
   58.1176   26.3168   43.0726 C   0  0  0  0  0  0  0  0  0  0  0  0
   58.4423   26.1330   44.3656 C   0  0  0  0  0  0  0  0  0  0  0  0
   58.0021   25.0783   45.1754 C   0  0  0  0  0  0  0  0  0  0  0  0
   57.1398   24.0958   44.8442 C   0  0  0  0  0  0  0  0  0  0  0  0
   58.5899   25.2684   46.4183 C   0  0  0  0  0  0  0  0  0  0  0  0
   59.3642   26.4074   46.3216 C   0  0  0  0  0  0  0  0  0  0  0  0
   60.1565   26.9887   47.4525 C   0  0  0  0  0  0  0  0  0  0  0  0
   59.2771   26.9393   45.0782 N   0  0  0  0  0  0  0  0  0  0  0  0
   55.6925   24.1481   45.1143 C   0  0  0  0  0  0  0  0  0  0  0  0
   54.8657   23.1076   44.9165 N   0  0  0  0  0  0  0  0  0  0  0  0
   53.6746   23.5622   45.3646 C   0  0  0  0  0  0  0  0  0  0  0  0
   52.6275   22.8668   45.3338 O   0  0  0  0  0  0  0  0  0  0  0  0
   53.6967   24.8174   45.8620 N   0  0  0  0  0  0  0  0  0  0  0  0
   54.9858   25.1704   45.7078 C   0  0  0  0  0  0  0  0  0  0  0  0
   55.5103   26.3814   46.1474 O   0  0  0  0  0  0  0  0  0  0  0  0
   54.9488   27.0197   46.5412 H   0  0  0  0  0  0  0  0  0  0  0  0
   60.0056   28.1338   44.6173 C   0  0  0  0  0  0  0  0  0  0  0  0
   59.5572   29.3554   45.3777 C   0  0  0  0  0  0  0  0  0  0  0  0
   60.2105   29.7374   46.5591 C   0  0  0  0  0  0  0  0  0  0  0  0
   59.8192   30.8932   47.2420 C   0  0  0  0  0  0  0  0  0  0  0  0
   58.7719   31.6890   46.7509 C   0  0  0  0  0  0  0  0  0  0  0  0
   58.0882   31.2802   45.5929 C   0  0  0  0  0  0  0  0  0  0  0  0
   58.4841   30.1287   44.9084 C   0  0  0  0  0  0  0  0  0  0  0  0
   58.3808   32.9275   47.4663 C   0  0  0  0  0  0  0  0  0  0  0  0
   57.2249   33.3961   47.2993 O   0  0  0  0  0  0  0  0  0  0  0  0
   59.2957   33.6437   48.3137 N   0  0  0  0  0  0  0  0  0  0  0  0
   60.5956   33.6422   48.2200 C   0  0  0  0  0  0  0  0  0  0  0  0
   61.3666   33.6307   49.3888 C   0  0  0  0  0  0  0  0  0  0  0  0
   62.7595   33.6208   49.2919 C   0  0  0  0  0  0  0  0  0  0  0  0
   63.3690   33.6156   48.0359 C   0  0  0  0  0  0  0  0  0  0  0  0
   62.5711   33.6134   46.8905 C   0  0  0  0  0  0  0  0  0  0  0  0
   61.2173   33.6230   47.0057 N   0  0  0  0  0  0  0  0  0  0  0  0
  1  2  2  0
  2  3  1  0
  3  4  2  0
  4  9  1  0
  9 10  1  0
 10 11  1  0
 11 12  2  0
 11 13  1  0
 13 14  1  0
 14 15  1  0
  3  5  1  0
  5  6  2  0
  6  7  1  0
  6  8  1  0
  8 17  1  0
 17 18  1  0
 18 19  2  0
 19 20  1  0
 20 21  2  0
 21 24  1  0
 24 25  2  0
 24 26  1  0
 26 27  2  0
 27 28  1  0
 28 29  2  0
 29 30  1  0
 30 31  2  0
 31 32  1  0
 21 22  1  0
 22 23  2  0
  8  2  1  0
 23 18  1  0
 14  9  2  0
 32 27  1  0
 15 16  1  0
M  CHG 1  10  -1
M  CHG 1  13  -1
M  CHG 1  32  -1
M  END
> <UniqueID>
29

> <SMILES>
C=c1c(=Cc2[n-]c(=O)[n-]c2O)cc(C)n1Cc1ccc(C(=O)N=c2cccc[n-]2)cc1

> <Energy>
125.26548561663378

> <Genealogy>
C=c1c(=Cc2[n-]c(=O)[n-]c2O)cc(C)n1Cc1ccc(C(=O)N=c2cccc[n-]2)cc1 (protonated)
C=c1c(=Cc2[n-]c(=O)[n-]c2O)cc(C)n1Cc1ccc(C(=O)N=c2cccc[n-]2)cc1 (3D coordinates assigned)
C=c1c(=Cc2[n-]c(=O)[n-]c2O)cc(C)n1Cc1ccc(C(=O)N=c2cccc[n-]2)cc1 (optimized conformer: 125.26548561663378 kcal/mol)

> <smiles>
C=c1c(=Cc2[nH]c(=O)[nH]c2O)cc(C)n1Cc1ccc(C(=O)N=c2cccc[nH]2)cc1

> <score_type>
oracle

> <origin>
adg

> <m_score__min__energy>
-14.59

> <m_primary>
energy

> <minimizedAffinity>
-7.96935

> <minimizedRMSD>
1.15097

> <CNNscore>
0.2395833731

> <CNNaffinity>
6.7133917809

> <CNN_VS>
1.6084170341

> <CNNaffinity_variance>
0.0153930811

$$$$
41:0


 25 27  0  0  0  0  0  0  0  0999 V2000
   58.0271   26.5905   44.0500 O   0  0  0  0  0  0  0  0  0  0  0  0
   57.3707   26.5339   45.1248 C   0  0  0  0  0  0  0  0  0  0  0  0
   56.8668   27.7415   45.7197 N   0  0  0  0  0  0  0  0  0  0  0  0
   56.1870   27.6666   46.4279 H   0  0  0  0  0  0  0  0  0  0  0  0
   57.0829   25.2145   45.7385 C   0  0  0  0  0  0  0  0  0  0  0  0
   55.7722   24.8611   46.1112 C   0  0  0  0  0  0  0  0  0  0  0  0
   54.7154   25.7471   45.9303 O   0  0  0  0  0  0  0  0  0  0  0  0
   55.5260   23.6488   46.6710 N   0  0  0  0  0  0  0  0  0  0  0  0
   56.5257   22.7561   46.8804 C   0  0  0  0  0  0  0  0  0  0  0  0
   56.2736   21.6411   47.4037 O   0  0  0  0  0  0  0  0  0  0  0  0
   57.7975   23.0652   46.5231 N   0  0  0  0  0  0  0  0  0  0  0  0
   58.0986   24.2631   45.9567 C   0  0  0  0  0  0  0  0  0  0  0  0
   59.2883   24.4947   45.6129 O   0  0  0  0  0  0  0  0  0  0  0  0
   57.3079   29.0538   45.3303 C   0  0  0  0  0  0  0  0  0  0  0  0
   56.6624   29.7280   44.2792 C   0  0  0  0  0  0  0  0  0  0  0  0
   57.1284   30.9677   43.8376 C   0  0  0  0  0  0  0  0  0  0  0  0
   58.2515   31.5440   44.4297 C   0  0  0  0  0  0  0  0  0  0  0  0
   58.9103   30.8863   45.4689 C   0  0  0  0  0  0  0  0  0  0  0  0
   58.4480   29.6406   45.9345 C   0  0  0  0  0  0  0  0  0  0  0  0
   59.1484   28.9931   47.0694 C   0  0  0  0  0  0  0  0  0  0  0  0
   59.7809   27.7475   46.9014 C   0  0  0  0  0  0  0  0  0  0  0  0
   60.4319   27.1367   47.9762 C   0  0  0  0  0  0  0  0  0  0  0  0
   60.4516   27.7572   49.2287 C   0  0  0  0  0  0  0  0  0  0  0  0
   59.8164   28.9887   49.4070 C   0  0  0  0  0  0  0  0  0  0  0  0
   59.1637   29.6039   48.3350 C   0  0  0  0  0  0  0  0  0  0  0  0
  1  2  2  0
  2  3  1  0
  3 14  1  0
 14 15  2  0
 15 16  1  0
 16 17  2  0
 17 18  1  0
 18 19  2  0
 19 20  1  0
 20 21  2  0
 21 22  1  0
 22 23  2  0
 23 24  1  0
 24 25  2  0
  2  5  1  0
  5  6  2  0
  6  7  1  0
  6  8  1  0
  8  9  1  0
  9 10  2  0
  9 11  1  0
 11 12  1  0
 12 13  2  0
 19 14  1  0
 25 20  1  0
 12  5  1  0
  3  4  1  0
M  CHG 1   7  -1
M  CHG 1   8  -1
M  CHG 1  11  -1
M  END
> <UniqueID>
40

> <SMILES>
O=C(Nc1ccccc1-c1ccccc1)c1c([O-])[n-]c(=O)[n-]c1=O

> <Energy>
54.06777819717393

> <Genealogy>
O=C(Nc1ccccc1-c1ccccc1)c1c([O-])[n-]c(=O)[n-]c1=O (protonated)
O=C(Nc1ccccc1-c1ccccc1)c1c([O-])[n-]c(=O)[n-]c1=O (3D coordinates assigned)
O=C(Nc1ccccc1-c1ccccc1)c1c([O-])[n-]c(=O)[n-]c1=O (optimized conformer: 54.06777819717393 kcal/mol)

> <smiles>
O=C(Nc1ccccc1-c1ccccc1)c1c(O)[nH]c(=O)[nH]c1=O

> <score_type>
oracle

> <origin>
adg

> <m_score__min__energy>
-15.24

> <m_primary>
energy

> <minimizedAffinity>
-7.62361

> <minimizedRMSD>
1.54985

> <CNNscore>
0.4585664570

> <CNNaffinity>
5.8690962791

> <CNN_VS>
2.6913707256

> <CNNaffinity_variance>
0.0513818972

$$$$
45:0


 31 34  0  0  0  0  0  0  0  0999 V2000
   58.1792   30.5121   51.7040 C   0  0  0  0  0  0  0  0  0  0  0  0
   58.4452   29.9253   50.6197 O   0  0  0  0  0  0  0  0  0  0  0  0
   59.0817   31.5143   52.2168 N   0  0  0  0  0  0  0  0  0  0  0  0
   60.5025   31.4507   51.8394 C   0  0  0  0  0  0  0  0  0  0  0  0
   61.2471   32.7496   52.1716 C   0  0  0  0  0  0  0  0  0  0  0  0
   60.9274   33.2037   53.5327 N   0  0  0  0  0  0  0  0  0  0  0  0
   59.5476   33.1093   54.0338 C   0  0  0  0  0  0  0  0  0  0  0  0
   58.5710   32.6947   52.9294 C   0  0  0  0  0  0  0  0  0  0  0  0
   55.0163   28.5194   54.7742 C   0  0  0  0  0  0  0  0  0  0  0  0
   55.4751   29.2170   53.7226 C   0  0  0  0  0  0  0  0  0  0  0  0
   54.7802   30.1849   52.9811 C   0  0  0  0  0  0  0  0  0  0  0  0
   53.4753   30.5183   52.9634 C   0  0  0  0  0  0  0  0  0  0  0  0
   55.7206   30.7964   52.1689 C   0  0  0  0  0  0  0  0  0  0  0  0
   56.9232   30.1636   52.3988 C   0  0  0  0  0  0  0  0  0  0  0  0
   56.7720   29.1817   53.3182 N   0  0  0  0  0  0  0  0  0  0  0  0
   57.8075   28.2582   53.7950 C   0  0  0  0  0  0  0  0  0  0  0  0
   52.6090   30.5302   51.7725 C   0  0  0  0  0  0  0  0  0  0  0  0
   52.7356   29.6978   50.7233 N   0  0  0  0  0  0  0  0  0  0  0  0
   51.8339   30.1746   49.8370 C   0  0  0  0  0  0  0  0  0  0  0  0
   51.6411   29.6413   48.7138 O   0  0  0  0  0  0  0  0  0  0  0  0
   51.1626   31.2728   50.2463 N   0  0  0  0  0  0  0  0  0  0  0  0
   51.6766   31.4916   51.4666 C   0  0  0  0  0  0  0  0  0  0  0  0
   51.3059   32.5530   52.2827 O   0  0  0  0  0  0  0  0  0  0  0  0
   61.9225   33.8915   54.3230 C   0  0  0  0  0  0  0  0  0  0  0  0
   61.5574   34.5807   55.4949 C   0  0  0  0  0  0  0  0  0  0  0  0
   62.5247   35.2388   56.2605 C   0  0  0  0  0  0  0  0  0  0  0  0
   63.8660   35.2185   55.8703 C   0  0  0  0  0  0  0  0  0  0  0  0
   64.8187   35.8796   56.6434 O   0  0  0  0  0  0  0  0  0  0  0  0
   64.2404   34.5326   54.7081 C   0  0  0  0  0  0  0  0  0  0  0  0
   63.2762   33.8722   53.9409 C   0  0  0  0  0  0  0  0  0  0  0  0
   64.5579   36.3357   57.4193 H   0  0  0  0  0  0  0  0  0  0  0  0
  9 10  2  0
 10 11  1  0
 11 12  2  0
 12 17  1  0
 17 18  1  0
 18 19  1  0
 19 20  2  0
 19 21  1  0
 21 22  1  0
 22 23  1  0
 11 13  1  0
 13 14  2  0
 14  1  1  0
  1  2  2  0
  1  3  1  0
  3  4  1  0
  4  5  1  0
  5  6  1  0
  6 24  1  0
 24 25  2  0
 25 26  1  0
 26 27  2  0
 27 28  1  0
 27 29  1  0
 29 30  2  0
  6  7  1  0
  7  8  1  0
 14 15  1  0
 15 16  1  0
 15 10  1  0
 22 17  2  0
  8  3  1  0
 30 24  1  0
 28 31  1  0
M  CHG 1  18  -1
M  CHG 1  21  -1
M  CHG 1  23  -1
M  END
> <UniqueID>
44

> <SMILES>
C=c1c(=Cc2[n-]c(=O)[n-]c2[O-])cc(C(=O)N2CCN(c3ccc(O)cc3)CC2)n1C

> <Energy>
131.2410032845943

> <Genealogy>
C=c1c(=Cc2[n-]c(=O)[n-]c2[O-])cc(C(=O)N2CCN(c3ccc(O)cc3)CC2)n1C (protonated)
C=c1c(=Cc2[n-]c(=O)[n-]c2[O-])cc(C(=O)N2CCN(c3ccc(O)cc3)CC2)n1C (3D coordinates assigned)
C=c1c(=Cc2[n-]c(=O)[n-]c2[O-])cc(C(=O)N2CCN(c3ccc(O)cc3)CC2)n1C (nonaromatic ring conformer: 131.2410032845943 kcal/mol)

> <smiles>
C=c1c(=Cc2[nH]c(=O)[nH]c2O)cc(C(=O)N2CCN(c3ccc(O)cc3)CC2)n1C

> <score_type>
oracle

> <origin>
adg

> <m_score__min__energy>
-16.379999999999999

> <m_primary>
energy

> <minimizedAffinity>
-5.28682

> <minimizedRMSD>
0.78125

> <CNNscore>
0.1802383661

> <CNNaffinity>
4.7147049904

> <CNN_VS>
0.8497707248

> <CNNaffinity_variance>
0.3209074736

$$$$
47:0


 32 34  0  0  0  0  0  0  0  0999 V2000
   58.4447   25.9565   47.2027 C   0  0  0  0  0  0  0  0  0  0  0  0
   58.4130   27.2426   46.7998 C   0  0  0  0  0  0  0  0  0  0  0  0
   57.7552   27.6422   45.6534 C   0  0  0  0  0  0  0  0  0  0  0  0
   57.9050   29.0096   45.5561 C   0  0  0  0  0  0  0  0  0  0  0  0
   57.3722   29.8229   44.4145 C   0  0  0  0  0  0  0  0  0  0  0  0
   58.6302   29.4883   46.5976 N   0  0  0  0  0  0  0  0  0  0  0  0
   58.9906   28.4051   47.3451 C   0  0  0  0  0  0  0  0  0  0  0  0
   59.8850   28.4629   48.3467 C   0  0  0  0  0  0  0  0  0  0  0  0
   58.7609   22.0291   44.3983 O   0  0  0  0  0  0  0  0  0  0  0  0
   58.2031   23.0761   45.1237 C   0  0  0  0  0  0  0  0  0  0  0  0
   58.9431   23.9553   45.8339 N   0  0  0  0  0  0  0  0  0  0  0  0
   58.0523   24.7960   46.3926 C   0  0  0  0  0  0  0  0  0  0  0  0
   56.7666   24.4733   46.0037 C   0  0  0  0  0  0  0  0  0  0  0  0
   55.6163   25.1683   46.3506 O   0  0  0  0  0  0  0  0  0  0  0  0
   56.8503   23.3531   45.2002 C   0  0  0  0  0  0  0  0  0  0  0  0
   59.6895   21.9043   44.3945 H   0  0  0  0  0  0  0  0  0  0  0  0
   55.7537   22.6098   44.5402 C   0  0  0  0  0  0  0  0  0  0  0  0
   55.8655   21.3660   44.3642 O   0  0  0  0  0  0  0  0  0  0  0  0
   54.5199   23.3052   44.0520 C   0  0  0  0  0  0  0  0  0  0  0  0
   59.0745   30.8823   46.7762 C   0  0  0  0  0  0  0  0  0  0  0  0
   58.6063   31.7979   45.6337 C   0  0  0  0  0  0  0  0  0  0  0  0
   58.1189   33.4282   46.1846 S   0  0  0  0  0  0  0  0  0  0  0  0
   57.2571   34.0607   45.1310 O   0  0  0  0  0  0  0  0  0  0  0  0
   57.3121   33.3238   47.4487 O   0  0  0  0  0  0  0  0  0  0  0  0
   59.5339   34.4120   46.4238 N   0  0  0  0  0  0  0  0  0  0  0  0
   59.6156   35.7084   45.7471 C   0  0  0  0  0  0  0  0  0  0  0  0
   60.5858   34.0114   47.3199 C   0  0  0  0  0  0  0  0  0  0  0  0
   61.8088   33.5387   46.8139 C   0  0  0  0  0  0  0  0  0  0  0  0
   62.8316   33.1423   47.6820 C   0  0  0  0  0  0  0  0  0  0  0  0
   62.6488   33.2295   49.0642 C   0  0  0  0  0  0  0  0  0  0  0  0
   61.4469   33.7242   49.5789 C   0  0  0  0  0  0  0  0  0  0  0  0
   60.4202   34.1228   48.7115 C   0  0  0  0  0  0  0  0  0  0  0  0
  9 10  1  0
 10 11  1  0
 11 12  1  0
 12  1  1  0
  1  2  2  0
  2  3  1  0
  3  4  2  0
  4  5  1  0
  4  6  1  0
  6 20  1  0
 20 21  1  0
 21 22  1  0
 22 23  2  0
 22 24  2  0
 22 25  1  0
 25 27  1  0
 27 28  2  0
 28 29  1  0
 29 30  2  0
 30 31  1  0
 31 32  2  0
 25 26  1  0
  6  7  1  0
  7  8  2  0
 12 13  2  0
 13 14  1  0
 13 15  1  0
 15 17  1  0
 17 18  2  0
 17 19  1  0
 15 10  2  0
  7  2  1  0
 32 27  1  0
  9 16  1  0
M  CHG 1  11  -1
M  CHG 1  14  -1
M  END
> <UniqueID>
46

> <SMILES>
C=c1/c(=C\c2[n-]c(O)c(C(C)=O)c2[O-])cc(C)n1CCS(=O)(=O)N(C)c1ccccc1

> <Energy>
118.03084344088826

> <Genealogy>
C=c1c(=Cc2[n-]c(O)c(C(C)=O)c2[O-])cc(C)n1CCS(=O)(=O)N(C)c1ccccc1 (protonated)
C=c1/c(=C\c2[n-]c(O)c(C(C)=O)c2[O-])cc(C)n1CCS(=O)(=O)N(C)c1ccccc1 (cis-trans isomerization)
C=c1/c(=C\c2[n-]c(O)c(C(C)=O)c2[O-])cc(C)n1CCS(=O)(=O)N(C)c1ccccc1 (3D coordinates assigned)
C=c1/c(=C\c2[n-]c(O)c(C(C)=O)c2[O-])cc(C)n1CCS(=O)(=O)N(C)c1ccccc1 (optimized conformer: 118.03084344088826 kcal/mol)

> <smiles>
C=c1c(=Cc2[nH]c(O)c(C(C)=O)c2O)cc(C)n1CCS(=O)(=O)N(C)c1ccccc1

> <score_type>
oracle

> <origin>
adg

> <m_score__min__energy>
-14.15

> <m_primary>
energy

> <minimizedAffinity>
-8.39027

> <minimizedRMSD>
1.68415

> <CNNscore>
0.3017667830

> <CNNaffinity>
6.8473782539

> <CNN_VS>
2.0663113594

> <CNNaffinity_variance>
0.1456021219

$$$$
69:0


 30 33  0  0  0  0  0  0  0  0999 V2000
   58.8907   28.4898   47.0610 C   0  0  0  0  0  0  0  0  0  0  0  0
   58.4126   28.5782   45.8085 C   0  0  0  0  0  0  0  0  0  0  0  0
   58.1348   27.5224   44.9228 C   0  0  0  0  0  0  0  0  0  0  0  0
   58.3985   26.2031   45.0036 C   0  0  0  0  0  0  0  0  0  0  0  0
   57.5103   28.0911   43.8252 C   0  0  0  0  0  0  0  0  0  0  0  0
   57.4732   29.4526   44.0443 C   0  0  0  0  0  0  0  0  0  0  0  0
   56.8999   30.4516   43.0856 C   0  0  0  0  0  0  0  0  0  0  0  0
   58.0164   29.7501   45.2461 N   0  0  0  0  0  0  0  0  0  0  0  0
   57.5630   25.2014   45.6950 C   0  0  0  0  0  0  0  0  0  0  0  0
   56.2553   25.4958   46.1352 C   0  0  0  0  0  0  0  0  0  0  0  0
   55.6720   26.7483   45.9356 O   0  0  0  0  0  0  0  0  0  0  0  0
   55.5356   24.5409   46.7808 N   0  0  0  0  0  0  0  0  0  0  0  0
   56.0546   23.3108   47.0277 C   0  0  0  0  0  0  0  0  0  0  0  0
   55.3643   22.4462   47.6242 O   0  0  0  0  0  0  0  0  0  0  0  0
   57.3206   23.0167   46.6366 N   0  0  0  0  0  0  0  0  0  0  0  0
   58.0851   23.9312   45.9854 C   0  0  0  0  0  0  0  0  0  0  0  0
   59.2568   23.6227   45.6404 O   0  0  0  0  0  0  0  0  0  0  0  0
   56.1493   27.4223   45.4929 H   0  0  0  0  0  0  0  0  0  0  0  0
   58.1583   31.0721   45.7996 C   0  0  0  0  0  0  0  0  0  0  0  0
   57.4333   32.1452   45.2670 C   0  0  0  0  0  0  0  0  0  0  0  0
   57.5866   33.4277   45.8002 C   0  0  0  0  0  0  0  0  0  0  0  0
   58.4510   33.6421   46.8753 C   0  0  0  0  0  0  0  0  0  0  0  0
   59.1707   32.5708   47.4345 C   0  0  0  0  0  0  0  0  0  0  0  0
   59.0336   31.2917   46.8722 C   0  0  0  0  0  0  0  0  0  0  0  0
   60.0673   32.8037   48.5858 C   0  0  0  0  0  0  0  0  0  0  0  0
   59.6231   32.6736   49.7578 O   0  0  0  0  0  0  0  0  0  0  0  0
   61.4484   33.1284   48.4002 N   0  0  0  0  0  0  0  0  0  0  0  0
   62.4467   33.1813   47.3133 C   0  0  0  0  0  0  0  0  0  0  0  0
   63.6280   33.4161   48.1925 C   0  0  0  0  0  0  0  0  0  0  0  0
   62.6067   33.3673   49.2795 C   0  0  0  0  0  0  0  0  0  0  0  0
  1  2  2  0
  2  3  1  0
  3  4  2  0
  4  9  1  0
  9 10  2  0
 10 11  1  0
 10 12  1  0
 12 13  1  0
 13 14  2  0
 13 15  1  0
 15 16  1  0
 16 17  2  0
  3  5  1  0
  5  6  2  0
  6  7  1  0
  6  8  1  0
  8 19  1  0
 19 20  2  0
 20 21  1  0
 21 22  2  0
 22 23  1  0
 23 25  1  0
 25 26  2  0
 25 27  1  0
 27 28  1  0
 28 29  1  0
 29 30  1  0
 23 24  2  0
  8  2  1  0
 24 19  1  0
 16  9  1  0
 30 27  1  0
 11 18  1  0
M  CHG 1  12  -1
M  CHG 1  15  -1
M  END
> <UniqueID>
67

> <SMILES>
C=c1c(=Cc2c(O)[n-]c(=O)[n-]c2=O)cc(C)n1-c1cccc(C(=O)N2CCC2)c1

> <Energy>
145.11380754443454

> <Genealogy>
C=c1c(=Cc2c(O)[n-]c(=O)[n-]c2=O)cc(C)n1-c1cccc(C(=O)N2CCC2)c1 (protonated)
C=c1c(=Cc2c(O)[n-]c(=O)[n-]c2=O)cc(C)n1-c1cccc(C(=O)N2CCC2)c1 (3D coordinates assigned)
C=c1c(=Cc2c(O)[n-]c(=O)[n-]c2=O)cc(C)n1-c1cccc(C(=O)N2CCC2)c1 (nonaromatic ring conformer: 145.11380754443454 kcal/mol)

> <smiles>
C=c1c(=Cc2c(O)[nH]c(=O)[nH]c2=O)cc(C)n1-c1cccc(C(=O)N2CCC2)c1

> <score_type>
oracle

> <origin>
adg

> <m_score__min__energy>
-14.18

> <m_primary>
energy

> <minimizedAffinity>
-9.51201

> <minimizedRMSD>
0.63107

> <CNNscore>
0.5633720160

> <CNNaffinity>
6.8276677132

> <CNN_VS>
3.8465168476

> <CNNaffinity_variance>
0.0066502667

$$$$
71:0


 31 34  0  0  0  0  0  0  0  0999 V2000
   58.4118   30.8297   52.6689 C   0  0  0  0  0  0  0  0  0  0  0  0
   58.7789   31.6228   53.5780 O   0  0  0  0  0  0  0  0  0  0  0  0
   59.3351   30.4541   51.6234 N   0  0  0  0  0  0  0  0  0  0  0  0
   60.7648   30.7689   51.7345 C   0  0  0  0  0  0  0  0  0  0  0  0
   61.1911   31.7531   50.6310 C   0  0  0  0  0  0  0  0  0  0  0  0
   60.3843   31.5977   49.3091 C   0  0  0  0  0  0  0  0  0  0  0  0
   59.7892   30.1774   49.1920 C   0  0  0  0  0  0  0  0  0  0  0  0
   58.8471   29.8615   50.3659 C   0  0  0  0  0  0  0  0  0  0  0  0
   54.5821   28.0776   53.7319 C   0  0  0  0  0  0  0  0  0  0  0  0
   55.3241   29.0115   53.1149 C   0  0  0  0  0  0  0  0  0  0  0  0
   54.8521   30.1048   52.3703 C   0  0  0  0  0  0  0  0  0  0  0  0
   53.6243   30.3868   51.8931 C   0  0  0  0  0  0  0  0  0  0  0  0
   55.9432   30.9293   52.1626 C   0  0  0  0  0  0  0  0  0  0  0  0
   57.0378   30.2943   52.7104 C   0  0  0  0  0  0  0  0  0  0  0  0
   56.6701   29.1178   53.2734 N   0  0  0  0  0  0  0  0  0  0  0  0
   57.5190   28.2362   54.0850 C   0  0  0  0  0  0  0  0  0  0  0  0
   52.4874   30.8813   52.6861 C   0  0  0  0  0  0  0  0  0  0  0  0
   52.1959   30.4848   53.9385 N   0  0  0  0  0  0  0  0  0  0  0  0
   51.0140   31.0887   54.1905 C   0  0  0  0  0  0  0  0  0  0  0  0
   50.4125   30.9707   55.2877 O   0  0  0  0  0  0  0  0  0  0  0  0
   50.5238   31.8206   53.1673 N   0  0  0  0  0  0  0  0  0  0  0  0
   51.4628   31.6666   52.2197 C   0  0  0  0  0  0  0  0  0  0  0  0
   51.3796   32.2270   50.9508 O   0  0  0  0  0  0  0  0  0  0  0  0
   59.2754   32.6728   49.1496 C   0  0  0  0  0  0  0  0  0  0  0  0
   59.1830   33.2179   47.7367 C   0  0  0  0  0  0  0  0  0  0  0  0
   57.9445   33.1411   47.0723 C   0  0  0  0  0  0  0  0  0  0  0  0
   57.8038   33.6178   45.7683 C   0  0  0  0  0  0  0  0  0  0  0  0
   58.8918   34.1860   45.1103 C   0  0  0  0  0  0  0  0  0  0  0  0
   60.1247   34.2860   45.7551 C   0  0  0  0  0  0  0  0  0  0  0  0
   60.2899   33.8084   47.0681 C   0  0  0  0  0  0  0  0  0  0  0  0
   61.6326   33.9738   47.7354 C   0  0  0  0  0  0  0  0  0  0  0  0
  9 10  2  0
 10 11  1  0
 11 12  2  0
 12 17  1  0
 17 18  1  0
 18 19  1  0
 19 20  2  0
 19 21  1  0
 21 22  1  0
 22 23  1  0
 11 13  1  0
 13 14  2  0
 14  1  1  0
  1  2  2  0
  1  3  1  0
  3  4  1  0
  4  5  1  0
  5  6  1  0
  6 24  1  0
 24 25  1  0
 25 26  2  0
 26 27  1  0
 27 28  2  0
 28 29  1  0
 29 30  2  0
 30 31  1  0
  6  7  1  0
  7  8  1  0
 14 15  1  0
 15 16  1  0
 15 10  1  0
 22 17  2  0
  8  3  1  0
 30 25  1  0
M  CHG 1  18  -1
M  CHG 1  21  -1
M  CHG 1  23  -1
M  END
> <UniqueID>
69

> <SMILES>
C=c1c(=Cc2[n-]c(=O)[n-]c2[O-])cc(C(=O)N2CCC(Cc3ccccc3C)CC2)n1C

> <Energy>
136.53424355645637

> <Genealogy>
C=c1c(=Cc2[n-]c(=O)[n-]c2[O-])cc(C(=O)N2CCC(Cc3ccccc3C)CC2)n1C (protonated)
C=c1c(=Cc2[n-]c(=O)[n-]c2[O-])cc(C(=O)N2CCC(Cc3ccccc3C)CC2)n1C (3D coordinates assigned)
C=c1c(=Cc2[n-]c(=O)[n-]c2[O-])cc(C(=O)N2CCC(Cc3ccccc3C)CC2)n1C (nonaromatic ring conformer: 136.53424355645637 kcal/mol)

> <smiles>
C=c1c(=Cc2[nH]c(=O)[nH]c2O)cc(C(=O)N2CCC(Cc3ccccc3C)CC2)n1C

> <score_type>
oracle

> <origin>
adg

> <m_score__min__energy>
-19.350000000000001

> <m_primary>
energy

> <minimizedAffinity>
-8.36080

> <minimizedRMSD>
0.84707

> <CNNscore>
0.3124269843

> <CNNaffinity>
6.0025219917

> <CNN_VS>
1.8753498793

> <CNNaffinity_variance>
0.5471448302

$$$$
80:0


 37 41  0  0  0  0  0  0  0  0999 V2000
   58.5555   31.0251   45.8646 C   0  0  0  0  0  0  0  0  0  0  0  0
   58.1131   31.9384   44.8993 C   0  0  0  0  0  0  0  0  0  0  0  0
   57.9910   33.2945   45.2160 C   0  0  0  0  0  0  0  0  0  0  0  0
   58.3179   33.7459   46.4969 C   0  0  0  0  0  0  0  0  0  0  0  0
   58.7633   32.8454   47.4664 C   0  0  0  0  0  0  0  0  0  0  0  0
   58.8879   31.4800   47.1597 C   0  0  0  0  0  0  0  0  0  0  0  0
   59.3104   30.5301   48.2101 C   0  0  0  0  0  0  0  0  0  0  0  0
   58.5841   29.5186   48.4243 O   0  0  0  0  0  0  0  0  0  0  0  0
   60.5221   30.7230   48.9745 N   0  0  0  0  0  0  0  0  0  0  0  0
   61.5003   31.7484   48.5675 C   0  0  0  0  0  0  0  0  0  0  0  0
   62.8275   31.5974   49.3175 C   0  0  0  0  0  0  0  0  0  0  0  0
   62.5679   31.4469   50.7513 N   0  0  0  0  0  0  0  0  0  0  0  0
   63.5046   31.9882   51.6972 C   0  0  0  0  0  0  0  0  0  0  0  0
   64.7358   31.7723   51.5320 O   0  0  0  0  0  0  0  0  0  0  0  0
   61.5325   30.5119   51.2198 C   0  0  0  0  0  0  0  0  0  0  0  0
   60.8644   29.7783   50.0512 C   0  0  0  0  0  0  0  0  0  0  0  0
   63.0486   32.7847   52.8608 C   0  0  0  0  0  0  0  0  0  0  0  0
   61.6781   32.8801   53.1750 C   0  0  0  0  0  0  0  0  0  0  0  0
   61.2537   33.6266   54.2812 C   0  0  0  0  0  0  0  0  0  0  0  0
   62.1861   34.3110   55.0643 C   0  0  0  0  0  0  0  0  0  0  0  0
   63.5472   34.2465   54.7461 C   0  0  0  0  0  0  0  0  0  0  0  0
   63.9792   33.4865   53.6522 C   0  0  0  0  0  0  0  0  0  0  0  0
   56.4762   29.1634   44.9279 C   0  0  0  0  0  0  0  0  0  0  0  0
   57.7608   28.7986   45.0631 C   0  0  0  0  0  0  0  0  0  0  0  0
   58.3502   27.5779   44.6962 C   0  0  0  0  0  0  0  0  0  0  0  0
   57.8080   26.4350   44.2368 C   0  0  0  0  0  0  0  0  0  0  0  0
   59.7134   27.7300   44.8964 C   0  0  0  0  0  0  0  0  0  0  0  0
   59.9064   28.9989   45.3975 C   0  0  0  0  0  0  0  0  0  0  0  0
   61.2369   29.5527   45.8186 C   0  0  0  0  0  0  0  0  0  0  0  0
   58.7256   29.6430   45.5049 N   0  0  0  0  0  0  0  0  0  0  0  0
   57.4043   25.2883   45.0623 C   0  0  0  0  0  0  0  0  0  0  0  0
   58.1191   24.1551   45.1720 N   0  0  0  0  0  0  0  0  0  0  0  0
   57.4337   23.4439   46.0963 C   0  0  0  0  0  0  0  0  0  0  0  0
   57.7885   22.2935   46.4648 O   0  0  0  0  0  0  0  0  0  0  0  0
   56.3463   24.0664   46.6007 N   0  0  0  0  0  0  0  0  0  0  0  0
   56.3481   25.2372   45.9435 C   0  0  0  0  0  0  0  0  0  0  0  0
   55.4150   26.2466   46.1560 O   0  0  0  0  0  0  0  0  0  0  0  0
 23 24  2  0
 24 25  1  0
 25 26  2  0
 26 31  1  0
 31 32  1  0
 32 33  1  0
 33 34  2  0
 33 35  1  0
 35 36  1  0
 36 37  1  0
 25 27  1  0
 27 28  2  0
 28 29  1  0
 28 30  1  0
 30  1  1  0
  1  2  2  0
  2  3  1  0
  3  4  2  0
  4  5  1  0
  5  6  2  0
  6  7  1  0
  7  8  2  0
  7  9  1  0
  9 10  1  0
 10 11  1  0
 11 12  1  0
 12 13  1  0
 13 14  2  0
 13 17  1  0
 17 18  2  0
 18 19  1  0
 19 20  2  0
 20 21  1  0
 21 22  2  0
 12 15  1  0
 15 16  1  0
 30 24  1  0
  6  1  1  0
 16  9  1  0
 36 31  2  0
 22 17  1  0
M  CHG 1  32  -1
M  CHG 1  35  -1
M  CHG 1  37  -1
M  END
> <UniqueID>
78

> <SMILES>
C=c1c(=Cc2[n-]c(=O)[n-]c2[O-])cc(C)n1-c1ccccc1C(=O)N1CCN(C(=O)c2ccccc2)CC1

> <Energy>
154.05612439424317

> <Genealogy>
C=c1c(=Cc2[n-]c(=O)[n-]c2[O-])cc(C)n1-c1ccccc1C(=O)N1CCN(C(=O)c2ccccc2)CC1 (protonated)
C=c1c(=Cc2[n-]c(=O)[n-]c2[O-])cc(C)n1-c1ccccc1C(=O)N1CCN(C(=O)c2ccccc2)CC1 (3D coordinates assigned)
C=c1c(=Cc2[n-]c(=O)[n-]c2[O-])cc(C)n1-c1ccccc1C(=O)N1CCN(C(=O)c2ccccc2)CC1 (nonaromatic ring conformer: 154.05612439424317 kcal/mol)

> <smiles>
C=c1c(=Cc2[nH]c(=O)[nH]c2O)cc(C)n1-c1ccccc1C(=O)N1CCN(C(=O)c2ccccc2)CC1

> <score_type>
oracle

> <origin>
adg

> <m_score__min__energy>
-18.640000000000001

> <m_primary>
energy

> <minimizedAffinity>
-8.22821

> <minimizedRMSD>
1.46641

> <CNNscore>
0.3363899291

> <CNNaffinity>
7.0590548515

> <CNN_VS>
2.3745949268

> <CNNaffinity_variance>
0.0603610389

$$$$
2:0


 26 28  0  0  0  0  0  0  0  0999 V2000
   57.9768   27.7175   46.4955 C   0  0  0  0  0  0  0  0  0  0  0  0
   58.3789   27.9756   47.6628 O   0  0  0  0  0  0  0  0  0  0  0  0
   57.6641   26.3148   46.1338 C   0  0  0  0  0  0  0  0  0  0  0  0
   56.3241   25.9051   46.0064 C   0  0  0  0  0  0  0  0  0  0  0  0
   55.2848   26.7998   46.2363 O   0  0  0  0  0  0  0  0  0  0  0  0
   56.0286   24.6233   45.6688 N   0  0  0  0  0  0  0  0  0  0  0  0
   56.9925   23.6955   45.4396 C   0  0  0  0  0  0  0  0  0  0  0  0
   56.6317   22.3870   45.0978 C   0  0  0  0  0  0  0  0  0  0  0  0
   57.6182   21.4278   44.8562 C   0  0  0  0  0  0  0  0  0  0  0  0
   58.9696   21.7720   44.9515 C   0  0  0  0  0  0  0  0  0  0  0  0
   59.3403   23.0758   45.2909 C   0  0  0  0  0  0  0  0  0  0  0  0
   58.3555   24.0515   45.5405 C   0  0  0  0  0  0  0  0  0  0  0  0
   58.6878   25.3774   45.8804 C   0  0  0  0  0  0  0  0  0  0  0  0
   59.8981   25.7308   45.9382 O   0  0  0  0  0  0  0  0  0  0  0  0
   57.8645   28.5747   44.2846 O   0  0  0  0  0  0  0  0  0  0  0  0
   57.8573   28.8177   45.5225 C   0  0  0  0  0  0  0  0  0  0  0  0
   57.7609   30.1665   45.9875 N   0  0  0  0  0  0  0  0  0  0  0  0
   58.2482   31.3034   45.2183 C   0  0  0  0  0  0  0  0  0  0  0  0
   58.9446   32.2672   46.1386 C   0  0  0  0  0  0  0  0  0  0  0  0
   58.5930   33.6278   46.1229 C   0  0  0  0  0  0  0  0  0  0  0  0
   59.2536   34.5389   46.9528 C   0  0  0  0  0  0  0  0  0  0  0  0
   60.2758   34.1017   47.7961 C   0  0  0  0  0  0  0  0  0  0  0  0
   60.6464   32.7548   47.8085 C   0  0  0  0  0  0  0  0  0  0  0  0
   59.9906   31.8332   46.9793 C   0  0  0  0  0  0  0  0  0  0  0  0
   60.3731   30.4933   46.9864 O   0  0  0  0  0  0  0  0  0  0  0  0
   61.0683   30.2074   47.5458 H   0  0  0  0  0  0  0  0  0  0  0  0
 15 16  2  0
 16 17  1  0
 17 18  1  0
 18 19  1  0
 19 20  2  0
 20 21  1  0
 21 22  2  0
 22 23  1  0
 23 24  2  0
 24 25  1  0
 16  1  1  0
  1  2  2  0
  1  3  1  0
  3  4  2  0
  4  5  1  0
  4  6  1  0
  6  7  1  0
  7  8  2  0
  8  9  1  0
  9 10  2  0
 10 11  1  0
 11 12  2  0
 12 13  1  0
 13 14  2  0
 24 19  1  0
 13  3  1  0
 12  7  1  0
 25 26  1  0
M  CHG 1   5  -1
M  CHG 1   6  -1
M  CHG 1  17  -1
M  END
> <UniqueID>
3

> <SMILES>
O=C([N-]Cc1ccccc1O)C(=O)c1c([O-])[n-]c2ccccc2c1=O

> <Energy>
47.5655839434924

> <Genealogy>
O=C([N-]Cc1ccccc1O)C(=O)c1c([O-])[n-]c2ccccc2c1=O (protonated)
O=C([N-]Cc1ccccc1O)C(=O)c1c([O-])[n-]c2ccccc2c1=O (3D coordinates assigned)
O=C([N-]Cc1ccccc1O)C(=O)c1c([O-])[n-]c2ccccc2c1=O (optimized conformer: 47.5655839434924 kcal/mol)

> <smiles>
O=C(NCc1ccccc1O)C(=O)c1c(O)[nH]c2ccccc2c1=O

> <score_type>
oracle

> <origin>
adg

> <m_score__min__energy>
-14.220000000000001

> <m_primary>
energy

> <minimizedAffinity>
-6.57030

> <minimizedRMSD>
1.12249

> <CNNscore>
0.4533005357

> <CNNaffinity>
6.1343216896

> <CNN_VS>
2.7806913853

> <CNNaffinity_variance>
0.4548467100

$$$$
38:0


 30 32  0  0  0  0  0  0  0  0999 V2000
   57.8381   27.5270   45.8952 C   0  0  0  0  0  0  0  0  0  0  0  0
   58.7318   28.1302   46.7011 C   0  0  0  0  0  0  0  0  0  0  0  0
   59.1232   27.5484   47.8559 N   0  0  0  0  0  0  0  0  0  0  0  0
   60.0485   28.3881   48.3588 C   0  0  0  0  0  0  0  0  0  0  0  0
   60.6253   28.1798   49.4614 O   0  0  0  0  0  0  0  0  0  0  0  0
   60.2794   29.4751   47.5887 N   0  0  0  0  0  0  0  0  0  0  0  0
   59.3931   29.3613   46.5627 C   0  0  0  0  0  0  0  0  0  0  0  0
   59.0874   30.3564   45.7114 C   0  0  0  0  0  0  0  0  0  0  0  0
   59.4563   24.8978   45.9746 O   0  0  0  0  0  0  0  0  0  0  0  0
   58.0731   24.9900   46.0955 C   0  0  0  0  0  0  0  0  0  0  0  0
   57.2641   23.9361   46.3190 N   0  0  0  0  0  0  0  0  0  0  0  0
   56.0433   24.5132   46.4139 C   0  0  0  0  0  0  0  0  0  0  0  0
   54.9962   23.8488   46.6313 O   0  0  0  0  0  0  0  0  0  0  0  0
   56.0386   25.8561   46.2640 N   0  0  0  0  0  0  0  0  0  0  0  0
   57.3310   26.1510   46.0326 C   0  0  0  0  0  0  0  0  0  0  0  0
   59.8769   24.0623   46.0306 H   0  0  0  0  0  0  0  0  0  0  0  0
   61.2307   30.5537   47.8987 C   0  0  0  0  0  0  0  0  0  0  0  0
   60.5588   31.6372   48.7000 C   0  0  0  0  0  0  0  0  0  0  0  0
   59.5923   31.3161   49.4447 O   0  0  0  0  0  0  0  0  0  0  0  0
   61.0508   32.9992   48.7257 N   0  0  0  0  0  0  0  0  0  0  0  0
   62.4964   33.3201   48.6141 C   0  0  0  0  0  0  0  0  0  0  0  0
   63.3486   32.4692   49.5622 C   0  0  0  0  0  0  0  0  0  0  0  0
   62.9924   33.2218   47.1650 C   0  0  0  0  0  0  0  0  0  0  0  0
   60.0573   34.0891   48.6206 C   0  0  0  0  0  0  0  0  0  0  0  0
   59.3194   34.0119   47.3126 C   0  0  0  0  0  0  0  0  0  0  0  0
   59.8926   34.5533   46.1394 C   0  0  0  0  0  0  0  0  0  0  0  0
   59.1889   34.5128   44.9391 C   0  0  0  0  0  0  0  0  0  0  0  0
   57.9152   33.9373   44.8884 C   0  0  0  0  0  0  0  0  0  0  0  0
   57.3486   33.3837   46.0423 C   0  0  0  0  0  0  0  0  0  0  0  0
   58.0448   33.4205   47.2543 C   0  0  0  0  0  0  0  0  0  0  0  0
  9 10  1  0
 10 11  1  0
 11 12  1  0
 12 13  2  0
 12 14  1  0
 14 15  1  0
 15  1  1  0
  1  2  2  0
  2  3  1  0
  3  4  1  0
  4  5  2  0
  4  6  1  0
  6 17  1  0
 17 18  1  0
 18 19  2  0
 18 20  1  0
 20 24  1  0
 24 25  1  0
 25 26  2  0
 26 27  1  0
 27 28  2  0
 28 29  1  0
 29 30  2  0
 20 21  1  0
 21 22  1  0
 21 23  1  0
  6  7  1  0
  7  8  2  0
 15 10  2  0
  7  2  1  0
 30 25  1  0
  9 16  1  0
M  CHG 1   3  -1
M  CHG 1  11  -1
M  CHG 1  14  -1
M  END
> <UniqueID>
38

> <SMILES>
C=c1/c(=C\c2[n-]c(=O)[n-]c2O)[n-]c(=O)n1CC(=O)N(Cc1ccccc1)C(C)C

> <Energy>
121.39033673664858

> <Genealogy>
C=c1c(=Cc2[n-]c(=O)[n-]c2O)[n-]c(=O)n1CC(=O)N(Cc1ccccc1)C(C)C (protonated)
C=c1/c(=C\c2[n-]c(=O)[n-]c2O)[n-]c(=O)n1CC(=O)N(Cc1ccccc1)C(C)C (cis-trans isomerization)
C=c1/c(=C\c2[n-]c(=O)[n-]c2O)[n-]c(=O)n1CC(=O)N(Cc1ccccc1)C(C)C (3D coordinates assigned)
C=c1/c(=C\c2[n-]c(=O)[n-]c2O)[n-]c(=O)n1CC(=O)N(Cc1ccccc1)C(C)C (optimized conformer: 121.39033673664858 kcal/mol)

> <smiles>
C=c1c(=Cc2[nH]c(=O)[nH]c2O)[nH]c(=O)n1CC(=O)N(Cc1ccccc1)C(C)C

> <score_type>
oracle

> <origin>
adg

> <m_score__min__energy>
-15.529999999999999

> <m_primary>
energy

> <minimizedAffinity>
-8.59521

> <minimizedRMSD>
1.29551

> <CNNscore>
0.4677309692

> <CNNaffinity>
6.7174868584

> <CNN_VS>
3.1419765949

> <CNNaffinity_variance>
0.0281979218

$$$$
54:0


 34 37  0  0  0  0  0  0  0  0999 V2000
   57.4215   24.0159   46.0256 C   0  0  0  0  0  0  0  0  0  0  0  0
   57.6361   23.5344   44.7823 N   0  0  0  0  0  0  0  0  0  0  0  0
   56.5577   22.7752   44.4909 C   0  0  0  0  0  0  0  0  0  0  0  0
   56.4035   22.0489   43.1931 C   0  0  0  0  0  0  0  0  0  0  0  0
   55.6376   22.7935   45.5315 C   0  0  0  0  0  0  0  0  0  0  0  0
   56.1990   23.5968   46.4986 C   0  0  0  0  0  0  0  0  0  0  0  0
   55.6431   23.9173   47.7325 O   0  0  0  0  0  0  0  0  0  0  0  0
   60.6665   26.9358   47.1722 C   0  0  0  0  0  0  0  0  0  0  0  0
   59.5343   27.1517   46.4826 C   0  0  0  0  0  0  0  0  0  0  0  0
   58.4388   26.2799   46.3682 C   0  0  0  0  0  0  0  0  0  0  0  0
   58.3050   24.9811   46.7006 C   0  0  0  0  0  0  0  0  0  0  0  0
   57.4228   27.0106   45.7788 C   0  0  0  0  0  0  0  0  0  0  0  0
   57.9405   28.2564   45.4889 C   0  0  0  0  0  0  0  0  0  0  0  0
   57.1726   29.3555   44.8192 C   0  0  0  0  0  0  0  0  0  0  0  0
   59.2256   28.3447   45.9072 N   0  0  0  0  0  0  0  0  0  0  0  0
   60.1023   29.5203   45.7742 C   0  0  0  0  0  0  0  0  0  0  0  0
   59.7021   30.5976   46.7530 C   0  0  0  0  0  0  0  0  0  0  0  0
   58.9543   31.7029   46.3090 C   0  0  0  0  0  0  0  0  0  0  0  0
   58.5732   32.7065   47.2047 C   0  0  0  0  0  0  0  0  0  0  0  0
   58.9262   32.6118   48.5527 C   0  0  0  0  0  0  0  0  0  0  0  0
   59.6561   31.5107   49.0084 C   0  0  0  0  0  0  0  0  0  0  0  0
   60.0410   30.5033   48.1176 C   0  0  0  0  0  0  0  0  0  0  0  0
   60.7429   29.4415   48.5890 F   0  0  0  0  0  0  0  0  0  0  0  0
   54.3418   22.0885   45.6010 C   0  0  0  0  0  0  0  0  0  0  0  0
   53.2842   22.7073   45.3137 O   0  0  0  0  0  0  0  0  0  0  0  0
   54.2587   20.6939   45.9262 N   0  0  0  0  0  0  0  0  0  0  0  0
   53.4092   20.1433   46.7463 C   0  0  0  0  0  0  0  0  0  0  0  0
   53.8111   19.2834   47.9187 C   0  0  0  0  0  0  0  0  0  0  0  0
   53.9488   20.0881   49.1481 N   0  0  0  0  0  0  0  0  0  0  0  0
   55.3350   20.5552   49.3357 C   0  0  0  0  0  0  0  0  0  0  0  0
   55.4463   21.3720   50.6405 C   0  0  0  0  0  0  0  0  0  0  0  0
   54.1830   21.6183   51.2317 O   0  0  0  0  0  0  0  0  0  0  0  0
   53.3186   22.2099   50.2829 C   0  0  0  0  0  0  0  0  0  0  0  0
   53.0293   21.2428   49.1167 C   0  0  0  0  0  0  0  0  0  0  0  0
  8  9  2  0
  9 10  1  0
 10 11  2  0
 11  1  1  0
  1  2  1  0
  2  3  1  0
  3  4  1  0
  3  5  2  0
  5 24  1  0
 24 25  2  0
 24 26  1  0
 26 27  2  0
 27 28  1  0
 28 29  1  0
 29 30  1  0
 30 31  1  0
 31 32  1  0
 32 33  1  0
 33 34  1  0
  5  6  1  0
  6  7  1  0
 10 12  1  0
 12 13  2  0
 13 14  1  0
 13 15  1  0
 15 16  1  0
 16 17  1  0
 17 18  2  0
 18 19  1  0
 19 20  2  0
 20 21  1  0
 21 22  2  0
 22 23  1  0
 15  9  1  0
 22 17  1  0
  6  1  2  0
 34 29  1  0
M  CHG 1   2  -1
M  CHG 1   7  -1
M  END
> <UniqueID>
51

> <SMILES>
C=c1c(=Cc2[n-]c(C)c(C(=O)N=CCN3CCOCC3)c2[O-])cc(C)n1Cc1ccccc1F

> <Energy>
142.33972041111156

> <Genealogy>
C=c1c(=Cc2[n-]c(C)c(C(=O)N=CCN3CCOCC3)c2[O-])cc(C)n1Cc1ccccc1F (protonated)
C=c1c(=Cc2[n-]c(C)c(C(=O)N=CCN3CCOCC3)c2[O-])cc(C)n1Cc1ccccc1F (3D coordinates assigned)
C=c1c(=Cc2[n-]c(C)c(C(=O)N=CCN3CCOCC3)c2[O-])cc(C)n1Cc1ccccc1F (nonaromatic ring conformer: 142.33972041111156 kcal/mol)

> <smiles>
C=c1c(=Cc2[nH]c(C)c(C(=O)N=CCN3CCOCC3)c2O)cc(C)n1Cc1ccccc1F

> <score_type>
oracle

> <origin>
adg

> <m_score__min__energy>
-15.66

> <m_primary>
energy

> <minimizedAffinity>
-6.98042

> <minimizedRMSD>
2.40197

> <CNNscore>
0.1046155691

> <CNNaffinity>
6.1230244637

> <CNN_VS>
0.6405636668

> <CNNaffinity_variance>
0.1375904828

$$$$
66:0


 33 36  0  0  0  0  0  0  0  0999 V2000
   59.5376   29.4114   51.7292 C   0  0  0  0  0  0  0  0  0  0  0  0
   59.1281   29.9124   50.4799 C   0  0  0  0  0  0  0  0  0  0  0  0
   59.6399   29.3878   49.2828 C   0  0  0  0  0  0  0  0  0  0  0  0
   60.5464   28.3200   49.3400 C   0  0  0  0  0  0  0  0  0  0  0  0
   60.9434   27.7946   50.5689 C   0  0  0  0  0  0  0  0  0  0  0  0
   60.4399   28.3169   51.7720 C   0  0  0  0  0  0  0  0  0  0  0  0
   60.9049   27.7169   53.0709 C   0  0  0  0  0  0  0  0  0  0  0  0
   59.1983   29.9533   47.9830 C   0  0  0  0  0  0  0  0  0  0  0  0
   59.2211   29.2105   46.9608 O   0  0  0  0  0  0  0  0  0  0  0  0
   58.7941   31.3412   47.8572 N   0  0  0  0  0  0  0  0  0  0  0  0
   58.2983   31.6210   46.4853 C   0  0  0  0  0  0  0  0  0  0  0  0
   58.3733   33.1203   46.1741 C   0  0  0  0  0  0  0  0  0  0  0  0
   59.7760   33.5975   46.1747 N   0  0  0  0  0  0  0  0  0  0  0  0
   59.8271   35.0444   46.4319 C   0  0  0  0  0  0  0  0  0  0  0  0
   60.6615   32.8483   47.1012 C   0  0  0  0  0  0  0  0  0  0  0  0
   59.8905   32.2478   48.2907 C   0  0  0  0  0  0  0  0  0  0  0  0
   58.0374   31.9403   48.0514 H   0  0  0  0  0  0  0  0  0  0  0  0
   58.9827   30.0508   52.9879 C   0  0  0  0  0  0  0  0  0  0  0  0
   56.8888   32.1943   52.4113 C   0  0  0  0  0  0  0  0  0  0  0  0
   56.5922   30.9397   52.7909 C   0  0  0  0  0  0  0  0  0  0  0  0
   55.2996   30.4363   52.9863 C   0  0  0  0  0  0  0  0  0  0  0  0
   54.1330   31.0990   52.8569 C   0  0  0  0  0  0  0  0  0  0  0  0
   55.4514   29.1249   53.4054 C   0  0  0  0  0  0  0  0  0  0  0  0
   56.8060   28.8739   53.4455 C   0  0  0  0  0  0  0  0  0  0  0  0
   57.3973   27.5658   53.8759 C   0  0  0  0  0  0  0  0  0  0  0  0
   57.5099   29.9622   53.0439 N   0  0  0  0  0  0  0  0  0  0  0  0
   53.1823   30.8871   51.7498 C   0  0  0  0  0  0  0  0  0  0  0  0
   53.3287   29.9215   50.8264 N   0  0  0  0  0  0  0  0  0  0  0  0
   52.2085   30.0278   50.0800 C   0  0  0  0  0  0  0  0  0  0  0  0
   51.9827   29.2850   49.0892 O   0  0  0  0  0  0  0  0  0  0  0  0
   51.3456   30.9841   50.4839 N   0  0  0  0  0  0  0  0  0  0  0  0
   51.9689   31.5106   51.5493 C   0  0  0  0  0  0  0  0  0  0  0  0
   51.4166   32.5049   52.3482 O   0  0  0  0  0  0  0  0  0  0  0  0
 19 20  2  0
 20 21  1  0
 21 22  2  0
 22 27  1  0
 27 28  1  0
 28 29  1  0
 29 30  2  0
 29 31  1  0
 31 32  1  0
 32 33  1  0
 21 23  1  0
 23 24  2  0
 24 25  1  0
 24 26  1  0
 26 18  1  0
 18  1  1  0
  1  2  2  0
  2  3  1  0
  3  8  1  0
  8  9  2  0
  8 10  1  0
 10 11  1  0
 11 12  1  0
 12 13  1  0
 13 14  1  0
 13 15  1  0
 15 16  1  0
  3  4  2  0
  4  5  1  0
  5  6  2  0
  6  7  1  0
 26 20  1  0
  6  1  1  0
 32 27  2  0
 16 10  1  0
 10 17  1  0
M  CHG 1  10   1
M  CHG 1  28  -1
M  CHG 1  31  -1
M  CHG 1  33  -1
M  END
> <UniqueID>
63

> <SMILES>
C=c1/c(=C/c2[n-]c(=O)[n-]c2[O-])cc(C)n1Cc1cc(C(=O)[NH+]2CCN(C)CC2)ccc1C

> <Energy>
145.40041423976294

> <Genealogy>
C=c1c(=Cc2[n-]c(=O)[n-]c2[O-])cc(C)n1Cc1cc(C(=O)[NH+]2CCN(C)CC2)ccc1C (protonated)
C=c1/c(=C/c2[n-]c(=O)[n-]c2[O-])cc(C)n1Cc1cc(C(=O)[NH+]2CCN(C)CC2)ccc1C (cis-trans isomerization)
C=c1/c(=C/c2[n-]c(=O)[n-]c2[O-])cc(C)n1Cc1cc(C(=O)[NH+]2CCN(C)CC2)ccc1C (3D coordinates assigned)
C=c1/c(=C/c2[n-]c(=O)[n-]c2[O-])cc(C)n1Cc1cc(C(=O)[NH+]2CCN(C)CC2)ccc1C (nonaromatic ring conformer: 145.40041423976294 kcal/mol)

> <smiles>
C=c1c(=Cc2[nH]c(=O)[nH]c2O)cc(C)n1Cc1cc(C(=O)N2CCN(C)CC2)ccc1C

> <score_type>
oracle

> <origin>
adg

> <m_score__min__energy>
-16.050000000000001

> <m_primary>
energy

> <minimizedAffinity>
-5.71748

> <minimizedRMSD>
0.89801

> <CNNscore>
0.0458146557

> <CNNaffinity>
4.9874114990

> <CNN_VS>
0.2284965366

> <CNNaffinity_variance>
0.7357711792

$$$$
72:0


 30 32  0  0  0  0  0  0  0  0999 V2000
   60.0517   31.4227   48.4695 C   0  0  0  0  0  0  0  0  0  0  0  0
   60.9360   30.4689   48.9920 C   0  0  0  0  0  0  0  0  0  0  0  0
   60.8431   30.0755   50.3284 C   0  0  0  0  0  0  0  0  0  0  0  0
   59.8524   30.6192   51.1632 C   0  0  0  0  0  0  0  0  0  0  0  0
   58.9501   31.5571   50.6314 C   0  0  0  0  0  0  0  0  0  0  0  0
   59.0395   31.9438   49.2901 C   0  0  0  0  0  0  0  0  0  0  0  0
   60.2103   31.9049   47.0521 C   0  0  0  0  0  0  0  0  0  0  0  0
   58.2121   28.1096   44.5385 C   0  0  0  0  0  0  0  0  0  0  0  0
   58.1725   29.5482   44.9750 C   0  0  0  0  0  0  0  0  0  0  0  0
   59.1663   30.0721   45.8077 C   0  0  0  0  0  0  0  0  0  0  0  0
   59.1321   31.3833   46.1976 N   0  0  0  0  0  0  0  0  0  0  0  0
   58.0992   32.1856   45.7887 C   0  0  0  0  0  0  0  0  0  0  0  0
   58.0278   33.3882   46.1621 O   0  0  0  0  0  0  0  0  0  0  0  0
   57.1378   31.6950   44.9664 N   0  0  0  0  0  0  0  0  0  0  0  0
   57.1539   30.4052   44.5466 C   0  0  0  0  0  0  0  0  0  0  0  0
   56.2442   29.9930   43.7787 O   0  0  0  0  0  0  0  0  0  0  0  0
   59.8600   30.2997   52.6365 C   0  0  0  0  0  0  0  0  0  0  0  0
   58.4899   30.3566   53.2537 C   0  0  0  0  0  0  0  0  0  0  0  0
   58.1993   31.3217   54.0081 O   0  0  0  0  0  0  0  0  0  0  0  0
   57.5220   29.3201   53.0559 N   0  0  0  0  0  0  0  0  0  0  0  0
   56.4699   28.9447   53.9970 C   0  0  0  0  0  0  0  0  0  0  0  0
   55.1375   29.4853   53.5481 C   0  0  0  0  0  0  0  0  0  0  0  0
   54.0726   29.5993   54.4576 C   0  0  0  0  0  0  0  0  0  0  0  0
   52.8760   30.2100   54.0740 C   0  0  0  0  0  0  0  0  0  0  0  0
   52.7223   30.7237   52.7727 C   0  0  0  0  0  0  0  0  0  0  0  0
   53.7799   30.5921   51.8587 C   0  0  0  0  0  0  0  0  0  0  0  0
   54.9798   29.9937   52.2481 C   0  0  0  0  0  0  0  0  0  0  0  0
   51.4889   31.4327   52.3761 C   0  0  0  0  0  0  0  0  0  0  0  0
   50.4911   31.4599   53.1447 O   0  0  0  0  0  0  0  0  0  0  0  0
   51.4222   32.1055   51.1603 O   0  0  0  0  0  0  0  0  0  0  0  0
  8  9  1  0
  9 10  2  0
 10 11  1  0
 11  7  1  0
  7  1  1  0
  1  2  2  0
  2  3  1  0
  3  4  2  0
  4 17  1  0
 17 18  1  0
 18 19  2  0
 18 20  1  0
 20 21  1  0
 21 22  1  0
 22 23  2  0
 23 24  1  0
 24 25  2  0
 25 28  1  0
 28 29  2  0
 28 30  1  0
 25 26  1  0
 26 27  2  0
  4  5  1  0
  5  6  2  0
 11 12  1  0
 12 13  2  0
 12 14  1  0
 14 15  1  0
 15 16  2  0
 15  9  1  0
  6  1  1  0
 27 22  1  0
M  CHG 1  14  -1
M  CHG 1  20  -1
M  CHG 1  30  -1
M  END
> <UniqueID>
69

> <SMILES>
Cc1cn(Cc2ccc(CC(=O)[N-]Cc3ccc(C(=O)[O-])cc3)cc2)c(=O)[n-]c1=O

> <Energy>
47.646580922160915

> <Genealogy>
Cc1cn(Cc2ccc(CC(=O)[N-]Cc3ccc(C(=O)[O-])cc3)cc2)c(=O)[n-]c1=O (protonated)
Cc1cn(Cc2ccc(CC(=O)[N-]Cc3ccc(C(=O)[O-])cc3)cc2)c(=O)[n-]c1=O (3D coordinates assigned)
Cc1cn(Cc2ccc(CC(=O)[N-]Cc3ccc(C(=O)[O-])cc3)cc2)c(=O)[n-]c1=O (optimized conformer: 47.646580922160915 kcal/mol)

> <smiles>
Cc1cn(Cc2ccc(CC(=O)NCc3ccc(C(=O)O)cc3)cc2)c(=O)[nH]c1=O

> <score_type>
oracle

> <origin>
adg

> <m_score__min__energy>
-14.890000000000001

> <m_primary>
energy

> <minimizedAffinity>
-7.40337

> <minimizedRMSD>
1.29736

> <CNNscore>
0.1948081553

> <CNNaffinity>
5.9851136208

> <CNN_VS>
1.1659489870

> <CNNaffinity_variance>
0.0226264223

$$$$
73:0


 28 31  0  0  0  0  0  0  0  0999 V2000
   56.6485   31.8489   52.3523 C   0  0  0  0  0  0  0  0  0  0  0  0
   56.2716   30.6098   52.7058 C   0  0  0  0  0  0  0  0  0  0  0  0
   54.9926   30.1714   53.0818 C   0  0  0  0  0  0  0  0  0  0  0  0
   53.7989   30.7879   52.9891 C   0  0  0  0  0  0  0  0  0  0  0  0
   55.0898   28.9280   53.6013 N   0  0  0  0  0  0  0  0  0  0  0  0
   56.3943   28.6178   53.4892 C   0  0  0  0  0  0  0  0  0  0  0  0
   56.8625   27.5060   53.8541 O   0  0  0  0  0  0  0  0  0  0  0  0
   57.1405   29.5972   52.9388 N   0  0  0  0  0  0  0  0  0  0  0  0
   52.8555   30.6712   51.8662 C   0  0  0  0  0  0  0  0  0  0  0  0
   53.0245   29.8225   50.8387 N   0  0  0  0  0  0  0  0  0  0  0  0
   52.0140   30.1399   50.0003 C   0  0  0  0  0  0  0  0  0  0  0  0
   51.8243   29.5411   48.9096 O   0  0  0  0  0  0  0  0  0  0  0  0
   51.2303   31.1577   50.4164 N   0  0  0  0  0  0  0  0  0  0  0  0
   51.7850   31.4939   51.5918 C   0  0  0  0  0  0  0  0  0  0  0  0
   51.3412   32.5469   52.3824 O   0  0  0  0  0  0  0  0  0  0  0  0
   58.5593   29.5568   52.6963 C   0  0  0  0  0  0  0  0  0  0  0  0
   59.4072   28.8691   53.5777 C   0  0  0  0  0  0  0  0  0  0  0  0
   60.7832   28.8395   53.3499 C   0  0  0  0  0  0  0  0  0  0  0  0
   61.3266   29.4993   52.2450 C   0  0  0  0  0  0  0  0  0  0  0  0
   60.4955   30.2011   51.3538 C   0  0  0  0  0  0  0  0  0  0  0  0
   59.1090   30.2263   51.5921 C   0  0  0  0  0  0  0  0  0  0  0  0
   61.0742   30.9056   50.1826 C   0  0  0  0  0  0  0  0  0  0  0  0
   62.4404   31.1668   50.0404 C   0  0  0  0  0  0  0  0  0  0  0  0
   62.6690   31.9845   48.5875 S   0  0  0  0  0  0  0  0  0  0  0  0
   61.0388   31.9625   48.1845 C   0  0  0  0  0  0  0  0  0  0  0  0
   60.4491   32.6237   46.9833 C   0  0  0  0  0  0  0  0  0  0  0  0
   60.3093   31.3611   49.1481 N   0  0  0  0  0  0  0  0  0  0  0  0
   59.3306   31.2617   49.1089 H   0  0  0  0  0  0  0  0  0  0  0  0
  1  2  2  0
  2  3  1  0
  3  4  2  0
  4  9  1  0
  9 10  1  0
 10 11  1  0
 11 12  2  0
 11 13  1  0
 13 14  1  0
 14 15  1  0
  3  5  1  0
  5  6  1  0
  6  7  2  0
  6  8  1  0
  8 16  1  0
 16 17  2  0
 17 18  1  0
 18 19  2  0
 19 20  1  0
 20 22  1  0
 22 23  2  0
 23 24  1  0
 24 25  1  0
 25 26  1  0
 25 27  2  0
 20 21  2  0
  8  2  1  0
 21 16  1  0
 14  9  2  0
 27 22  1  0
 27 28  1  0
M  CHG 1   5  -1
M  CHG 1  10  -1
M  CHG 1  13  -1
M  CHG 1  15  -1
M  CHG 1  27   1
M  END
> <UniqueID>
70

> <SMILES>
C=c1/c(=C\c2[n-]c(=O)[n-]c2[O-])[n-]c(=O)n1-c1cccc(-c2csc(C)[nH+]2)c1

> <Energy>
155.00340078188466

> <Genealogy>
C=c1c(=Cc2[n-]c(=O)[n-]c2[O-])[n-]c(=O)n1-c1cccc(-c2csc(C)[nH+]2)c1 (protonated)
C=c1/c(=C\c2[n-]c(=O)[n-]c2[O-])[n-]c(=O)n1-c1cccc(-c2csc(C)[nH+]2)c1 (cis-trans isomerization)
C=c1/c(=C\c2[n-]c(=O)[n-]c2[O-])[n-]c(=O)n1-c1cccc(-c2csc(C)[nH+]2)c1 (3D coordinates assigned)
C=c1/c(=C\c2[n-]c(=O)[n-]c2[O-])[n-]c(=O)n1-c1cccc(-c2csc(C)[nH+]2)c1 (optimized conformer: 155.00340078188466 kcal/mol)

> <smiles>
C=c1c(=Cc2[nH]c(=O)[nH]c2O)[nH]c(=O)n1-c1cccc(-c2csc(C)n2)c1

> <score_type>
oracle

> <origin>
adg

> <m_score__min__energy>
-17.210000000000001

> <m_primary>
energy

> <minimizedAffinity>
-5.21406

> <minimizedRMSD>
1.05111

> <CNNscore>
0.0742612332

> <CNNaffinity>
5.2095246315

> <CNN_VS>
0.3868657351

> <CNNaffinity_variance>
0.1856649071

$$$$
76:0


 33 36  0  0  0  0  0  0  0  0999 V2000
   58.3199   24.4826   44.6032 C   0  0  0  0  0  0  0  0  0  0  0  0
   57.0105   24.5107   44.8982 C   0  0  0  0  0  0  0  0  0  0  0  0
   56.3361   25.3716   45.7803 C   0  0  0  0  0  0  0  0  0  0  0  0
   56.7625   26.4836   46.4078 C   0  0  0  0  0  0  0  0  0  0  0  0
   55.0733   24.9254   45.9472 N   0  0  0  0  0  0  0  0  0  0  0  0
   54.9861   23.8470   45.1450 C   0  0  0  0  0  0  0  0  0  0  0  0
   53.9380   23.1564   45.0448 O   0  0  0  0  0  0  0  0  0  0  0  0
   56.1247   23.5761   44.4760 N   0  0  0  0  0  0  0  0  0  0  0  0
   57.6216   27.5227   45.8230 C   0  0  0  0  0  0  0  0  0  0  0  0
   58.9700   27.4882   45.8638 N   0  0  0  0  0  0  0  0  0  0  0  0
   59.3363   28.6469   45.2725 C   0  0  0  0  0  0  0  0  0  0  0  0
   60.5391   28.9686   45.0887 O   0  0  0  0  0  0  0  0  0  0  0  0
   58.2941   29.4191   44.8984 N   0  0  0  0  0  0  0  0  0  0  0  0
   57.2113   28.7113   45.2546 C   0  0  0  0  0  0  0  0  0  0  0  0
   55.8975   29.1304   45.0773 O   0  0  0  0  0  0  0  0  0  0  0  0
   58.3267   30.6680   44.1376 C   0  0  0  0  0  0  0  0  0  0  0  0
   58.4727   31.8326   45.0800 C   0  0  0  0  0  0  0  0  0  0  0  0
   58.3234   33.1460   44.6094 C   0  0  0  0  0  0  0  0  0  0  0  0
   58.3905   34.2241   45.4967 C   0  0  0  0  0  0  0  0  0  0  0  0
   58.5980   33.9967   46.8601 C   0  0  0  0  0  0  0  0  0  0  0  0
   58.7359   32.6920   47.3384 C   0  0  0  0  0  0  0  0  0  0  0  0
   58.6691   31.6105   46.4540 C   0  0  0  0  0  0  0  0  0  0  0  0
   56.3601   22.4214   43.6004 C   0  0  0  0  0  0  0  0  0  0  0  0
   56.5123   21.1757   44.4137 C   0  0  0  0  0  0  0  0  0  0  0  0
   55.9006   20.1259   44.0761 O   0  0  0  0  0  0  0  0  0  0  0  0
   57.3600   21.1830   45.5660 N   0  0  0  0  0  0  0  0  0  0  0  0
   57.0910   20.4084   46.7718 C   0  0  0  0  0  0  0  0  0  0  0  0
   55.8220   20.8839   47.4246 C   0  0  0  0  0  0  0  0  0  0  0  0
   54.6333   20.1428   47.3072 C   0  0  0  0  0  0  0  0  0  0  0  0
   53.4539   20.6054   47.8975 C   0  0  0  0  0  0  0  0  0  0  0  0
   53.4502   21.8105   48.6044 C   0  0  0  0  0  0  0  0  0  0  0  0
   54.6251   22.5561   48.7209 C   0  0  0  0  0  0  0  0  0  0  0  0
   55.8075   22.0985   48.1318 C   0  0  0  0  0  0  0  0  0  0  0  0
  1  2  2  0
  2  3  1  0
  3  4  2  0
  4  9  1  0
  9 10  1  0
 10 11  1  0
 11 12  2  0
 11 13  1  0
 13 16  1  0
 16 17  1  0
 17 18  2  0
 18 19  1  0
 19 20  2  0
 20 21  1  0
 21 22  2  0
 13 14  1  0
 14 15  1  0
  3  5  1  0
  5  6  1  0
  6  7  2  0
  6  8  1  0
  8 23  1  0
 23 24  1  0
 24 25  2  0
 24 26  1  0
 26 27  1  0
 27 28  1  0
 28 29  2  0
 29 30  1  0
 30 31  2  0
 31 32  1  0
 32 33  2  0
  8  2  1  0
 33 28  1  0
 14  9  2  0
 22 17  1  0
M  CHG 1   5  -1
M  CHG 1  10  -1
M  CHG 1  15  -1
M  CHG 1  26  -1
M  END
> <UniqueID>
73

> <SMILES>
C=c1/c(=C\c2[n-]c(=O)n(Cc3ccccc3)c2[O-])[n-]c(=O)n1CC(=O)[N-]Cc1ccccc1

> <Energy>
127.3687742336264

> <Genealogy>
C=c1c(=Cc2[n-]c(=O)n(Cc3ccccc3)c2[O-])[n-]c(=O)n1CC(=O)[N-]Cc1ccccc1 (protonated)
C=c1/c(=C\c2[n-]c(=O)n(Cc3ccccc3)c2[O-])[n-]c(=O)n1CC(=O)[N-]Cc1ccccc1 (cis-trans isomerization)
C=c1/c(=C\c2[n-]c(=O)n(Cc3ccccc3)c2[O-])[n-]c(=O)n1CC(=O)[N-]Cc1ccccc1 (3D coordinates assigned)
C=c1/c(=C\c2[n-]c(=O)n(Cc3ccccc3)c2[O-])[n-]c(=O)n1CC(=O)[N-]Cc1ccccc1 (optimized conformer: 127.3687742336264 kcal/mol)

> <smiles>
C=c1c(=Cc2[nH]c(=O)n(Cc3ccccc3)c2O)[nH]c(=O)n1CC(=O)NCc1ccccc1

> <score_type>
oracle

> <origin>
adg

> <m_score__min__energy>
-16.98

> <m_primary>
energy

> <minimizedAffinity>
-7.27356

> <minimizedRMSD>
0.85779

> <CNNscore>
0.1277278662

> <CNNaffinity>
5.8509697914

> <CNN_VS>
0.7473318577

> <CNNaffinity_variance>
0.1617280543

$$$$
78:0


 34 37  0  0  0  0  0  0  0  0999 V2000
   57.8657   30.6731   52.3154 C   0  0  0  0  0  0  0  0  0  0  0  0
   58.4978   31.4145   53.1175 O   0  0  0  0  0  0  0  0  0  0  0  0
   54.4708   28.0085   54.5056 C   0  0  0  0  0  0  0  0  0  0  0  0
   55.0134   28.9019   53.6634 C   0  0  0  0  0  0  0  0  0  0  0  0
   54.3623   29.9779   53.0412 C   0  0  0  0  0  0  0  0  0  0  0  0
   53.0525   30.2758   52.9342 C   0  0  0  0  0  0  0  0  0  0  0  0
   55.3572   30.7652   52.4880 C   0  0  0  0  0  0  0  0  0  0  0  0
   56.5559   30.1326   52.7377 C   0  0  0  0  0  0  0  0  0  0  0  0
   56.3482   28.9809   53.4197 N   0  0  0  0  0  0  0  0  0  0  0  0
   57.3714   28.0162   53.8391 C   0  0  0  0  0  0  0  0  0  0  0  0
   52.3095   30.4276   51.6722 C   0  0  0  0  0  0  0  0  0  0  0  0
   52.3961   29.5866   50.6250 N   0  0  0  0  0  0  0  0  0  0  0  0
   51.6659   30.2017   49.6697 C   0  0  0  0  0  0  0  0  0  0  0  0
   51.4951   29.7073   48.5241 O   0  0  0  0  0  0  0  0  0  0  0  0
   51.1440   31.3917   50.0341 N   0  0  0  0  0  0  0  0  0  0  0  0
   51.5724   31.5261   51.2999 C   0  0  0  0  0  0  0  0  0  0  0  0
   51.3004   32.6318   52.0969 O   0  0  0  0  0  0  0  0  0  0  0  0
   58.4844   30.2541   51.0747 N   0  0  0  0  0  0  0  0  0  0  0  0
   59.7325   29.5076   51.3626 C   0  0  0  0  0  0  0  0  0  0  0  0
   60.6074   29.3263   50.1025 C   0  0  0  0  0  0  0  0  0  0  0  0
   59.8102   29.5724   48.8888 N   0  0  0  0  0  0  0  0  0  0  0  0
   59.3185   30.9660   48.8374 C   0  0  0  0  0  0  0  0  0  0  0  0
   58.7563   31.4176   50.2040 C   0  0  0  0  0  0  0  0  0  0  0  0
   59.0399   29.7804   50.4143 H   0  0  0  0  0  0  0  0  0  0  0  0
   60.4781   29.1377   47.6432 C   0  0  0  0  0  0  0  0  0  0  0  0
   59.5559   28.4571   46.6536 C   0  0  0  0  0  0  0  0  0  0  0  0
   59.6061   28.7875   45.2899 C   0  0  0  0  0  0  0  0  0  0  0  0
   58.7486   28.1631   44.3828 C   0  0  0  0  0  0  0  0  0  0  0  0
   57.8358   27.2027   44.8227 C   0  0  0  0  0  0  0  0  0  0  0  0
   57.7788   26.8478   46.1828 C   0  0  0  0  0  0  0  0  0  0  0  0
   58.6500   27.4758   47.0902 C   0  0  0  0  0  0  0  0  0  0  0  0
   56.8105   25.8320   46.6551 C   0  0  0  0  0  0  0  0  0  0  0  0
   57.1781   24.9071   47.4284 O   0  0  0  0  0  0  0  0  0  0  0  0
   55.4823   25.8814   46.2454 O   0  0  0  0  0  0  0  0  0  0  0  0
  3  4  2  0
  4  5  1  0
  5  6  2  0
  6 11  1  0
 11 12  1  0
 12 13  1  0
 13 14  2  0
 13 15  1  0
 15 16  1  0
 16 17  1  0
  5  7  1  0
  7  8  2  0
  8  1  1  0
  1  2  2  0
  1 18  1  0
 18 19  1  0
 19 20  1  0
 20 21  1  0
 21 25  1  0
 25 26  1  0
 26 27  2  0
 27 28  1  0
 28 29  2  0
 29 30  1  0
 30 32  1  0
 32 33  2  0
 32 34  1  0
 30 31  2  0
 21 22  1  0
 22 23  1  0
  8  9  1  0
  9 10  1  0
  9  4  1  0
 16 11  2  0
 23 18  1  0
 31 26  1  0
 18 24  1  0
M  CHG 1  12  -1
M  CHG 1  15  -1
M  CHG 1  17  -1
M  CHG 1  18   1
M  CHG 1  34  -1
M  END
> <UniqueID>
75

> <SMILES>
C=c1c(=Cc2[n-]c(=O)[n-]c2[O-])cc(C(=O)[NH+]2CCN(Cc3cccc(C(=O)[O-])c3)CC2)n1C

> <Energy>
146.12843043566355

> <Genealogy>
C=c1c(=Cc2[n-]c(=O)[n-]c2[O-])cc(C(=O)[NH+]2CCN(Cc3cccc(C(=O)[O-])c3)CC2)n1C (protonated)
C=c1c(=Cc2[n-]c(=O)[n-]c2[O-])cc(C(=O)[NH+]2CCN(Cc3cccc(C(=O)[O-])c3)CC2)n1C (3D coordinates assigned)
C=c1c(=Cc2[n-]c(=O)[n-]c2[O-])cc(C(=O)[NH+]2CCN(Cc3cccc(C(=O)[O-])c3)CC2)n1C (nonaromatic ring conformer: 146.12843043566355 kcal/mol)

> <smiles>
C=c1c(=Cc2[nH]c(=O)[nH]c2O)cc(C(=O)N2CCN(Cc3cccc(C(=O)O)c3)CC2)n1C

> <score_type>
oracle

> <origin>
adg

> <m_score__min__energy>
-20.789999999999999

> <m_primary>
energy

> <minimizedAffinity>
-7.03723

> <minimizedRMSD>
0.71796

> <CNNscore>
0.0619196035

> <CNNaffinity>
5.0629200935

> <CNN_VS>
0.3134939969

> <CNNaffinity_variance>
0.5843605995

$$$$
82:0


 25 27  0  0  0  0  0  0  0  0999 V2000
   58.4000   30.6265   45.5605 C   0  0  0  0  0  0  0  0  0  0  0  0
   57.2501   31.0806   45.0317 N   0  0  0  0  0  0  0  0  0  0  0  0
   56.6651   29.9643   44.5527 C   0  0  0  0  0  0  0  0  0  0  0  0
   55.5507   29.9791   43.9689 O   0  0  0  0  0  0  0  0  0  0  0  0
   57.3704   28.8313   44.7457 N   0  0  0  0  0  0  0  0  0  0  0  0
   58.4677   29.2542   45.3988 C   0  0  0  0  0  0  0  0  0  0  0  0
   59.3989   31.5168   46.2403 C   0  0  0  0  0  0  0  0  0  0  0  0
   59.5437   31.0871   48.0088 S   0  0  0  0  0  0  0  0  0  0  0  0
   63.1853   31.9708   49.4549 C   0  0  0  0  0  0  0  0  0  0  0  0
   61.9396   31.4584   49.2731 N   0  0  0  0  0  0  0  0  0  0  0  0
   61.1685   31.8135   48.2089 C   0  0  0  0  0  0  0  0  0  0  0  0
   61.6501   32.7368   47.2757 C   0  0  0  0  0  0  0  0  0  0  0  0
   62.9285   33.2737   47.4435 C   0  0  0  0  0  0  0  0  0  0  0  0
   63.7048   32.8887   48.5394 C   0  0  0  0  0  0  0  0  0  0  0  0
   59.5912   28.3445   45.7911 C   0  0  0  0  0  0  0  0  0  0  0  0
   59.1568   27.4377   46.8967 C   0  0  0  0  0  0  0  0  0  0  0  0
   59.9032   27.2792   47.9004 O   0  0  0  0  0  0  0  0  0  0  0  0
   57.9069   26.7393   46.7775 N   0  0  0  0  0  0  0  0  0  0  0  0
   57.7073   25.5807   46.2169 C   0  0  0  0  0  0  0  0  0  0  0  0
   58.7480   24.7535   45.9108 N   0  0  0  0  0  0  0  0  0  0  0  0
   58.5596   23.5417   45.3247 C   0  0  0  0  0  0  0  0  0  0  0  0
   57.2684   23.1078   45.0165 C   0  0  0  0  0  0  0  0  0  0  0  0
   56.1827   23.9314   45.3172 C   0  0  0  0  0  0  0  0  0  0  0  0
   56.3968   25.1745   45.9200 C   0  0  0  0  0  0  0  0  0  0  0  0
   55.3129   25.9932   46.2187 O   0  0  0  0  0  0  0  0  0  0  0  0
  9 10  2  0
 10 11  1  0
 11  8  1  0
  8  7  1  0
  7  1  1  0
  1  2  1  0
  2  3  1  0
  3  4  2  0
  3  5  1  0
  5  6  1  0
  6 15  1  0
 15 16  1  0
 16 17  2  0
 16 18  1  0
 18 19  2  0
 19 20  1  0
 20 21  1  0
 21 22  2  0
 22 23  1  0
 23 24  2  0
 24 25  1  0
 11 12  2  0
 12 13  1  0
 13 14  2  0
 14  9  1  0
  6  1  2  0
 24 19  1  0
M  CHG 1   2  -1
M  CHG 1   5  -1
M  CHG 1  20  -1
M  CHG 1  25  -1
M  END
> <UniqueID>
78

> <SMILES>
O=C(Cc1[n-]c(=O)[n-]c1CSc1ccccn1)/N=c1\[n-]cccc1[O-]

> <Energy>
62.891849588225085

> <Genealogy>
O=C(Cc1[n-]c(=O)[n-]c1CSc1ccccn1)N=c1[n-]cccc1[O-] (protonated)
O=C(Cc1[n-]c(=O)[n-]c1CSc1ccccn1)/N=c1\[n-]cccc1[O-] (cis-trans isomerization)
O=C(Cc1[n-]c(=O)[n-]c1CSc1ccccn1)/N=c1\[n-]cccc1[O-] (3D coordinates assigned)
O=C(Cc1[n-]c(=O)[n-]c1CSc1ccccn1)/N=c1\[n-]cccc1[O-] (optimized conformer: 62.891849588225085 kcal/mol)

> <smiles>
O=C(Cc1[nH]c(=O)[nH]c1CSc1ccccn1)N=c1[nH]cccc1O

> <score_type>
oracle

> <origin>
adg

> <m_score__min__energy>
-15.890000000000001

> <m_primary>
energy

> <minimizedAffinity>
-7.59231

> <minimizedRMSD>
1.19243

> <CNNscore>
0.2637850046

> <CNNaffinity>
6.2618470192

> <CNN_VS>
1.6517813206

> <CNNaffinity_variance>
0.0695715100

$$$$
91:0


 34 37  0  0  0  0  0  0  0  0999 V2000
   58.9196   33.3674   47.3844 S   0  0  0  0  0  0  0  0  0  0  0  0
   59.1225   34.8558   47.2839 O   0  0  0  0  0  0  0  0  0  0  0  0
   57.8052   33.0858   48.3577 O   0  0  0  0  0  0  0  0  0  0  0  0
   60.3903   32.6062   47.9434 N   0  0  0  0  0  0  0  0  0  0  0  0
   60.2201   32.1673   49.3363 C   0  0  0  0  0  0  0  0  0  0  0  0
   61.4278   31.3280   49.7544 C   0  0  0  0  0  0  0  0  0  0  0  0
   62.6787   32.0600   49.5225 N   0  0  0  0  0  0  0  0  0  0  0  0
   62.7593   33.0048   48.4372 C   0  0  0  0  0  0  0  0  0  0  0  0
   63.8771   33.4352   48.0448 O   0  0  0  0  0  0  0  0  0  0  0  0
   61.5038   33.5665   47.8348 C   0  0  0  0  0  0  0  0  0  0  0  0
   63.8604   31.7525   50.3372 C   0  0  0  0  0  0  0  0  0  0  0  0
   64.0063   32.7759   51.4309 C   0  0  0  0  0  0  0  0  0  0  0  0
   63.1406   32.7708   52.5380 C   0  0  0  0  0  0  0  0  0  0  0  0
   63.3164   33.6913   53.5735 C   0  0  0  0  0  0  0  0  0  0  0  0
   64.3589   34.6198   53.5161 C   0  0  0  0  0  0  0  0  0  0  0  0
   64.5316   35.5080   54.5247 F   0  0  0  0  0  0  0  0  0  0  0  0
   65.2255   34.6296   52.4207 C   0  0  0  0  0  0  0  0  0  0  0  0
   65.0529   33.7108   51.3832 C   0  0  0  0  0  0  0  0  0  0  0  0
   57.6624   30.9508   44.3680 C   0  0  0  0  0  0  0  0  0  0  0  0
   57.7805   31.8003   43.2513 C   0  0  0  0  0  0  0  0  0  0  0  0
   58.2414   33.1105   43.4053 C   0  0  0  0  0  0  0  0  0  0  0  0
   58.5901   33.5866   44.6711 C   0  0  0  0  0  0  0  0  0  0  0  0
   58.4884   32.7536   45.7905 C   0  0  0  0  0  0  0  0  0  0  0  0
   58.0213   31.4396   45.6373 C   0  0  0  0  0  0  0  0  0  0  0  0
   56.6299   29.2103   43.1199 O   0  0  0  0  0  0  0  0  0  0  0  0
   57.1521   29.5669   44.2104 C   0  0  0  0  0  0  0  0  0  0  0  0
   57.1447   28.6697   45.3286 N   0  0  0  0  0  0  0  0  0  0  0  0
   58.0526   27.8067   45.6988 C   0  0  0  0  0  0  0  0  0  0  0  0
   59.2866   28.2873   46.0144 N   0  0  0  0  0  0  0  0  0  0  0  0
   60.3039   27.4851   46.4214 C   0  0  0  0  0  0  0  0  0  0  0  0
   60.1076   26.1102   46.5325 C   0  0  0  0  0  0  0  0  0  0  0  0
   58.8682   25.5713   46.1948 C   0  0  0  0  0  0  0  0  0  0  0  0
   57.8319   26.4042   45.7610 C   0  0  0  0  0  0  0  0  0  0  0  0
   56.6397   25.8162   45.3554 O   0  0  0  0  0  0  0  0  0  0  0  0
 25 26  2  0
 26 27  1  0
 27 28  2  0
 28 29  1  0
 29 30  1  0
 30 31  2  0
 31 32  1  0
 32 33  2  0
 33 34  1  0
 26 19  1  0
 19 20  2  0
 20 21  1  0
 21 22  2  0
 22 23  1  0
 23  1  1  0
  1  2  2  0
  1  3  2  0
  1  4  1  0
  4  5  1  0
  5  6  1  0
  6  7  1  0
  7 11  1  0
 11 12  1  0
 12 13  2  0
 13 14  1  0
 14 15  2  0
 15 16  1  0
 15 17  1  0
 17 18  2  0
  7  8  1  0
  8  9  2  0
  8 10  1  0
 23 24  2  0
 33 28  1  0
 24 19  1  0
 10  4  1  0
 18 12  1  0
M  CHG 1  29  -1
M  CHG 1  34  -1
M  END
> <UniqueID>
86

> <SMILES>
O=C(N=c1[n-]cccc1[O-])c1cccc(S(=O)(=O)N2CCN(Cc3ccc(F)cc3)C(=O)C2)c1

> <Energy>
68.17413923987559

> <Genealogy>
O=C(N=c1[n-]cccc1[O-])c1cccc(S(=O)(=O)N2CCN(Cc3ccc(F)cc3)C(=O)C2)c1 (protonated)
O=C(N=c1[n-]cccc1[O-])c1cccc(S(=O)(=O)N2CCN(Cc3ccc(F)cc3)C(=O)C2)c1 (3D coordinates assigned)
O=C(N=c1[n-]cccc1[O-])c1cccc(S(=O)(=O)N2CCN(Cc3ccc(F)cc3)C(=O)C2)c1 (nonaromatic ring conformer: 68.17413923987559 kcal/mol)

> <smiles>
O=C(N=c1[nH]cccc1O)c1cccc(S(=O)(=O)N2CCN(Cc3ccc(F)cc3)C(=O)C2)c1

> <score_type>
oracle

> <origin>
adg

> <m_score__min__energy>
-15.9

> <m_primary>
energy

> <minimizedAffinity>
-7.39557

> <minimizedRMSD>
1.76137

> <CNNscore>
0.2073013932

> <CNNaffinity>
6.6762537956

> <CNN_VS>
1.3839967251

> <CNNaffinity_variance>
0.0184482038

$$$$
2:0


 25 27  0  0  0  0  0  0  0  0999 V2000
   58.1760   27.1320   46.5056 C   0  0  0  0  0  0  0  0  0  0  0  0
   59.4405   27.7096   46.6780 C   0  0  0  0  0  0  0  0  0  0  0  0
   59.7021   29.0158   46.2362 C   0  0  0  0  0  0  0  0  0  0  0  0
   58.6810   29.7478   45.6170 C   0  0  0  0  0  0  0  0  0  0  0  0
   57.4259   29.1723   45.4097 C   0  0  0  0  0  0  0  0  0  0  0  0
   56.4322   29.9025   44.7698 O   0  0  0  0  0  0  0  0  0  0  0  0
   57.1704   27.8630   45.8379 C   0  0  0  0  0  0  0  0  0  0  0  0
   55.9303   27.3002   45.5665 O   0  0  0  0  0  0  0  0  0  0  0  0
   57.9786   25.7968   46.9942 N   0  0  0  0  0  0  0  0  0  0  0  0
   57.4793   24.6604   44.3868 C   0  0  0  0  0  0  0  0  0  0  0  0
   57.2213   24.4895   46.1419 S   0  0  0  0  0  0  0  0  0  0  0  0
   57.7533   23.1715   46.6272 O   0  0  0  0  0  0  0  0  0  0  0  0
   55.7430   24.5418   46.4040 O   0  0  0  0  0  0  0  0  0  0  0  0
   61.0411   29.6513   46.4993 C   0  0  0  0  0  0  0  0  0  0  0  0
   60.9851   30.4533   47.7181 N   0  0  0  0  0  0  0  0  0  0  0  0
   60.7270   29.9634   49.0378 C   0  0  0  0  0  0  0  0  0  0  0  0
   60.8251   28.7540   49.3764 O   0  0  0  0  0  0  0  0  0  0  0  0
   60.3130   31.0580   49.9085 C   0  0  0  0  0  0  0  0  0  0  0  0
   59.9573   31.0645   51.2548 C   0  0  0  0  0  0  0  0  0  0  0  0
   59.5730   32.2895   51.8299 C   0  0  0  0  0  0  0  0  0  0  0  0
   59.5474   33.4674   51.0527 C   0  0  0  0  0  0  0  0  0  0  0  0
   59.9083   33.4325   49.6927 C   0  0  0  0  0  0  0  0  0  0  0  0
   60.2882   32.2084   49.1492 C   0  0  0  0  0  0  0  0  0  0  0  0
   60.6870   31.8509   47.7936 C   0  0  0  0  0  0  0  0  0  0  0  0
   60.7430   32.6402   46.8144 O   0  0  0  0  0  0  0  0  0  0  0  0
 10 11  1  0
 11 12  2  0
 11 13  2  0
 11  9  1  0
  9  1  1  0
  1  2  2  0
  2  3  1  0
  3 14  1  0
 14 15  1  0
 15 16  1  0
 16 17  2  0
 16 18  1  0
 18 19  2  0
 19 20  1  0
 20 21  2  0
 21 22  1  0
 22 23  2  0
 23 24  1  0
 24 25  2  0
  3  4  2  0
  4  5  1  0
  5  6  1  0
  5  7  2  0
  7  8  1  0
  7  1  1  0
 24 15  1  0
 23 18  1  0
M  CHG 1   6  -1
M  CHG 1   8  -1
M  CHG 1   9  -1
M  END
> <UniqueID>
2

> <SMILES>
CS(=O)(=O)[N-]c1cc(CN2C(=O)c3ccccc3C2=O)cc([O-])c1[O-]

> <Energy>
71.96144276461996

> <Genealogy>
CS(=O)(=O)[N-]c1cc(CN2C(=O)c3ccccc3C2=O)cc([O-])c1[O-] (protonated)
CS(=O)(=O)[N-]c1cc(CN2C(=O)c3ccccc3C2=O)cc([O-])c1[O-] (3D coordinates assigned)
CS(=O)(=O)[N-]c1cc(CN2C(=O)c3ccccc3C2=O)cc([O-])c1[O-] (nonaromatic ring conformer: 71.96144276461996 kcal/mol)

> <smiles>
CS(=O)(=O)Nc1cc(CN2C(=O)c3ccccc3C2=O)cc(O)c1O

> <score_type>
oracle

> <origin>
adg

> <m_score__min__energy>
-16.539999999999999

> <m_primary>
energy

> <minimizedAffinity>
-5.65100

> <minimizedRMSD>
1.28854

> <CNNscore>
0.4729204178

> <CNNaffinity>
6.5172419548

> <CNN_VS>
3.0821368694

> <CNNaffinity_variance>
0.8713414073

$$$$
3:0


 33 36  0  0  0  0  0  0  0  0999 V2000
   61.8221   28.7178   52.8550 C   0  0  0  0  0  0  0  0  0  0  0  0
   62.7506   29.1892   53.5660 O   0  0  0  0  0  0  0  0  0  0  0  0
   61.0818   29.5831   51.9623 N   0  0  0  0  0  0  0  0  0  0  0  0
   59.8857   29.0841   51.2600 C   0  0  0  0  0  0  0  0  0  0  0  0
   58.9842   30.2313   50.7804 C   0  0  0  0  0  0  0  0  0  0  0  0
   58.9625   31.3071   51.7818 N   0  0  0  0  0  0  0  0  0  0  0  0
   57.7187   31.8605   52.2396 C   0  0  0  0  0  0  0  0  0  0  0  0
   57.5965   33.1099   52.3507 O   0  0  0  0  0  0  0  0  0  0  0  0
   60.2240   31.8581   52.2929 C   0  0  0  0  0  0  0  0  0  0  0  0
   61.4200   31.0111   51.8459 C   0  0  0  0  0  0  0  0  0  0  0  0
   60.6263   27.4648   55.2394 O   0  0  0  0  0  0  0  0  0  0  0  0
   60.9837   26.6999   54.1273 C   0  0  0  0  0  0  0  0  0  0  0  0
   61.5240   27.2741   52.9537 C   0  0  0  0  0  0  0  0  0  0  0  0
   61.7973   26.4737   51.8851 N   0  0  0  0  0  0  0  0  0  0  0  0
   61.5770   25.1330   51.9081 C   0  0  0  0  0  0  0  0  0  0  0  0
   61.0644   24.5294   53.0559 C   0  0  0  0  0  0  0  0  0  0  0  0
   60.7718   25.3183   54.1676 C   0  0  0  0  0  0  0  0  0  0  0  0
   60.7600   28.3922   55.2328 H   0  0  0  0  0  0  0  0  0  0  0  0
   56.6146   30.9721   52.6632 C   0  0  0  0  0  0  0  0  0  0  0  0
   55.3004   31.1631   52.2900 C   0  0  0  0  0  0  0  0  0  0  0  0
   54.5718   30.1168   52.8301 C   0  0  0  0  0  0  0  0  0  0  0  0
   53.2386   29.9504   52.7435 C   0  0  0  0  0  0  0  0  0  0  0  0
   55.4898   29.3161   53.5184 C   0  0  0  0  0  0  0  0  0  0  0  0
   55.2145   28.1667   54.1539 C   0  0  0  0  0  0  0  0  0  0  0  0
   56.7335   29.8575   53.4225 N   0  0  0  0  0  0  0  0  0  0  0  0
   57.9712   29.3324   54.0117 C   0  0  0  0  0  0  0  0  0  0  0  0
   52.4551   30.2438   51.5288 C   0  0  0  0  0  0  0  0  0  0  0  0
   52.4753   29.4677   50.4302 N   0  0  0  0  0  0  0  0  0  0  0  0
   51.6813   30.1322   49.5628 C   0  0  0  0  0  0  0  0  0  0  0  0
   51.4355   29.7048   48.4048 O   0  0  0  0  0  0  0  0  0  0  0  0
   51.1784   31.2940   50.0307 N   0  0  0  0  0  0  0  0  0  0  0  0
   51.6842   31.3560   51.2721 C   0  0  0  0  0  0  0  0  0  0  0  0
   51.4769   32.4266   52.1344 O   0  0  0  0  0  0  0  0  0  0  0  0
 11 12  1  0
 12 13  2  0
 13  1  1  0
  1  2  2  0
  1  3  1  0
  3  4  1  0
  4  5  1  0
  5  6  1  0
  6  7  1  0
  7  8  2  0
  7 19  1  0
 19 20  2  0
 20 21  1  0
 21 22  2  0
 22 27  1  0
 27 28  1  0
 28 29  1  0
 29 30  2  0
 29 31  1  0
 31 32  1  0
 32 33  1  0
 21 23  1  0
 23 24  2  0
 23 25  1  0
 25 26  1  0
  6  9  1  0
  9 10  1  0
 13 14  1  0
 14 15  2  0
 15 16  1  0
 16 17  2  0
 17 12  1  0
 10  3  1  0
 25 19  1  0
 32 27  2  0
 11 18  1  0
M  CHG 1  28  -1
M  CHG 1  31  -1
M  CHG 1  33  -1
M  END
> <UniqueID>
3

> <SMILES>
C=c1/c(=C/c2[n-]c(=O)[n-]c2[O-])cc(C(=O)N2CCN(C(=O)c3ncccc3O)CC2)n1C

> <Energy>
131.228481828116

> <Genealogy>
C=c1c(=Cc2[n-]c(=O)[n-]c2[O-])cc(C(=O)N2CCN(C(=O)c3ncccc3O)CC2)n1C (protonated)
C=c1/c(=C/c2[n-]c(=O)[n-]c2[O-])cc(C(=O)N2CCN(C(=O)c3ncccc3O)CC2)n1C (cis-trans isomerization)
C=c1/c(=C/c2[n-]c(=O)[n-]c2[O-])cc(C(=O)N2CCN(C(=O)c3ncccc3O)CC2)n1C (3D coordinates assigned)
C=c1/c(=C/c2[n-]c(=O)[n-]c2[O-])cc(C(=O)N2CCN(C(=O)c3ncccc3O)CC2)n1C (nonaromatic ring conformer: 131.228481828116 kcal/mol)

> <smiles>
C=c1c(=Cc2[nH]c(=O)[nH]c2O)cc(C(=O)N2CCN(C(=O)c3ncccc3O)CC2)n1C

> <score_type>
oracle

> <origin>
adg

> <m_score__min__energy>
-16.609999999999999

> <m_primary>
energy

> <minimizedAffinity>
-4.50662

> <minimizedRMSD>
0.92863

> <CNNscore>
0.0696787015

> <CNNaffinity>
4.3167576790

> <CNN_VS>
0.3007860780

> <CNNaffinity_variance>
0.9344943166

$$$$
4:0


 25 27  0  0  0  0  0  0  0  0999 V2000
   54.4459   28.5970   54.9654 C   0  0  0  0  0  0  0  0  0  0  0  0
   55.2244   29.0603   53.9710 C   0  0  0  0  0  0  0  0  0  0  0  0
   56.5046   28.4922   53.8372 C   0  0  0  0  0  0  0  0  0  0  0  0
   57.4629   29.0658   53.0070 C   0  0  0  0  0  0  0  0  0  0  0  0
   57.1823   30.2356   52.2903 C   0  0  0  0  0  0  0  0  0  0  0  0
   55.8931   30.7888   52.3808 C   0  0  0  0  0  0  0  0  0  0  0  0
   54.8713   30.1740   53.1406 C   0  0  0  0  0  0  0  0  0  0  0  0
   53.6201   30.6836   53.0036 C   0  0  0  0  0  0  0  0  0  0  0  0
   52.8217   30.7174   51.7633 C   0  0  0  0  0  0  0  0  0  0  0  0
   52.9429   29.8099   50.7799 N   0  0  0  0  0  0  0  0  0  0  0  0
   51.9695   30.1568   49.9109 C   0  0  0  0  0  0  0  0  0  0  0  0
   51.7701   29.5385   48.8332 O   0  0  0  0  0  0  0  0  0  0  0  0
   51.2184   31.2112   50.2926 N   0  0  0  0  0  0  0  0  0  0  0  0
   51.7611   31.5466   51.4736 C   0  0  0  0  0  0  0  0  0  0  0  0
   51.2747   32.5681   52.2815 O   0  0  0  0  0  0  0  0  0  0  0  0
   58.2360   30.8448   51.4316 C   0  0  0  0  0  0  0  0  0  0  0  0
   58.9832   30.0937   50.7456 O   0  0  0  0  0  0  0  0  0  0  0  0
   58.4273   32.3348   51.3100 C   0  0  0  0  0  0  0  0  0  0  0  0
   59.2811   32.6771   50.1163 C   0  0  0  0  0  0  0  0  0  0  0  0
   58.8134   32.4186   48.8154 C   0  0  0  0  0  0  0  0  0  0  0  0
   59.5997   32.7405   47.7057 C   0  0  0  0  0  0  0  0  0  0  0  0
   60.8602   33.3172   47.8833 C   0  0  0  0  0  0  0  0  0  0  0  0
   61.6214   33.6293   46.8052 F   0  0  0  0  0  0  0  0  0  0  0  0
   61.3381   33.5680   49.1714 C   0  0  0  0  0  0  0  0  0  0  0  0
   60.5550   33.2469   50.2851 C   0  0  0  0  0  0  0  0  0  0  0  0
  1  2  2  0
  2  3  1  0
  3  4  2  0
  4  5  1  0
  5 16  1  0
 16 17  2  0
 16 18  1  0
 18 19  1  0
 19 20  2  0
 20 21  1  0
 21 22  2  0
 22 23  1  0
 22 24  1  0
 24 25  2  0
  5  6  2  0
  6  7  1  0
  7  8  2  0
  8  9  1  0
  9 10  1  0
 10 11  1  0
 11 12  2  0
 11 13  1  0
 13 14  1  0
 14 15  1  0
  7  2  1  0
 14  9  2  0
 25 19  1  0
M  CHG 1  10  -1
M  CHG 1  13  -1
M  CHG 1  15  -1
M  END
> <UniqueID>
4

> <SMILES>
C=c1ccc(C(=O)Cc2ccc(F)cc2)cc1=Cc1[n-]c(=O)[n-]c1[O-]

> <Energy>
91.31492908725204

> <Genealogy>
C=c1ccc(C(=O)Cc2ccc(F)cc2)cc1=Cc1[n-]c(=O)[n-]c1[O-] (protonated)
C=c1ccc(C(=O)Cc2ccc(F)cc2)cc1=Cc1[n-]c(=O)[n-]c1[O-] (3D coordinates assigned)
C=c1ccc(C(=O)Cc2ccc(F)cc2)cc1=Cc1[n-]c(=O)[n-]c1[O-] (optimized conformer: 91.31492908725204 kcal/mol)

> <smiles>
C=c1ccc(C(=O)Cc2ccc(F)cc2)cc1=Cc1[nH]c(=O)[nH]c1O

> <score_type>
oracle

> <origin>
adg

> <m_score__min__energy>
-17.18

> <m_primary>
energy

> <minimizedAffinity>
-6.07926

> <minimizedRMSD>
0.85621

> <CNNscore>
0.2981370091

> <CNNaffinity>
5.2929039001

> <CNN_VS>
1.5780105591

> <CNNaffinity_variance>
0.0623513199

$$$$
13:0


 31 34  0  0  0  0  0  0  0  0999 V2000
   57.4048   30.3286   54.0696 C   0  0  0  0  0  0  0  0  0  0  0  0
   58.0064   31.5940   54.0580 C   0  0  0  0  0  0  0  0  0  0  0  0
   59.3556   31.7300   53.7230 C   0  0  0  0  0  0  0  0  0  0  0  0
   60.1240   30.5997   53.3947 C   0  0  0  0  0  0  0  0  0  0  0  0
   59.5150   29.3330   53.3995 C   0  0  0  0  0  0  0  0  0  0  0  0
   58.1639   29.1969   53.7356 C   0  0  0  0  0  0  0  0  0  0  0  0
   57.5954   27.9666   53.7417 F   0  0  0  0  0  0  0  0  0  0  0  0
   61.5101   30.7404   53.0334 N   0  0  0  0  0  0  0  0  0  0  0  0
   62.2828   31.8781   53.5520 C   0  0  0  0  0  0  0  0  0  0  0  0
   63.6869   31.9464   52.9325 C   0  0  0  0  0  0  0  0  0  0  0  0
   63.6326   31.6956   51.4813 N   0  0  0  0  0  0  0  0  0  0  0  0
   64.4816   32.4146   50.5598 C   0  0  0  0  0  0  0  0  0  0  0  0
   64.2691   32.3303   49.3188 O   0  0  0  0  0  0  0  0  0  0  0  0
   65.6119   33.2766   51.0311 C   0  0  0  0  0  0  0  0  0  0  0  0
   62.7964   30.6025   50.9569 C   0  0  0  0  0  0  0  0  0  0  0  0
   62.1321   29.8108   52.0845 C   0  0  0  0  0  0  0  0  0  0  0  0
   55.1080   30.1816   52.2023 C   0  0  0  0  0  0  0  0  0  0  0  0
   54.9640   30.1632   53.5367 C   0  0  0  0  0  0  0  0  0  0  0  0
   53.7744   29.9823   54.2624 C   0  0  0  0  0  0  0  0  0  0  0  0
   52.4873   29.9682   53.8643 C   0  0  0  0  0  0  0  0  0  0  0  0
   54.1486   29.8281   55.5878 C   0  0  0  0  0  0  0  0  0  0  0  0
   55.5197   29.9766   55.6365 C   0  0  0  0  0  0  0  0  0  0  0  0
   56.3467   29.9103   56.8836 C   0  0  0  0  0  0  0  0  0  0  0  0
   56.0122   30.1949   54.3966 N   0  0  0  0  0  0  0  0  0  0  0  0
   52.0025   30.2816   52.5107 C   0  0  0  0  0  0  0  0  0  0  0  0
   52.1608   29.4864   51.4360 N   0  0  0  0  0  0  0  0  0  0  0  0
   51.6992   30.2425   50.4181 C   0  0  0  0  0  0  0  0  0  0  0  0
   51.6675   29.8329   49.2286 O   0  0  0  0  0  0  0  0  0  0  0  0
   51.2852   31.4788   50.7719 N   0  0  0  0  0  0  0  0  0  0  0  0
   51.4976   31.4896   52.0980 C   0  0  0  0  0  0  0  0  0  0  0  0
   51.2448   32.5857   52.9115 O   0  0  0  0  0  0  0  0  0  0  0  0
 17 18  2  0
 18 19  1  0
 19 20  2  0
 20 25  1  0
 25 26  1  0
 26 27  1  0
 27 28  2  0
 27 29  1  0
 29 30  1  0
 30 31  1  0
 19 21  1  0
 21 22  2  0
 22 23  1  0
 22 24  1  0
 24  1  1  0
  1  2  2  0
  2  3  1  0
  3  4  2  0
  4  8  1  0
  8  9  1  0
  9 10  1  0
 10 11  1  0
 11 12  1  0
 12 13  2  0
 12 14  1  0
 11 15  1  0
 15 16  1  0
  4  5  1  0
  5  6  2  0
  6  7  1  0
 24 18  1  0
  6  1  1  0
 30 25  2  0
 16  8  1  0
M  CHG 1  26  -1
M  CHG 1  29  -1
M  CHG 1  31  -1
M  END
> <UniqueID>
13

> <SMILES>
C=c1/c(=C\c2[n-]c(=O)[n-]c2[O-])cc(C)n1-c1ccc(N2CCN(C(C)=O)CC2)cc1F

> <Energy>
134.38097770159152

> <Genealogy>
C=c1c(=Cc2[n-]c(=O)[n-]c2[O-])cc(C)n1-c1ccc(N2CCN(C(C)=O)CC2)cc1F (protonated)
C=c1/c(=C\c2[n-]c(=O)[n-]c2[O-])cc(C)n1-c1ccc(N2CCN(C(C)=O)CC2)cc1F (cis-trans isomerization)
C=c1/c(=C\c2[n-]c(=O)[n-]c2[O-])cc(C)n1-c1ccc(N2CCN(C(C)=O)CC2)cc1F (3D coordinates assigned)
C=c1/c(=C\c2[n-]c(=O)[n-]c2[O-])cc(C)n1-c1ccc(N2CCN(C(C)=O)CC2)cc1F (nonaromatic ring conformer: 134.38097770159152 kcal/mol)

> <smiles>
C=c1c(=Cc2[nH]c(=O)[nH]c2O)cc(C)n1-c1ccc(N2CCN(C(C)=O)CC2)cc1F

> <score_type>
oracle

> <origin>
adg

> <m_score__min__energy>
-15.81

> <m_primary>
energy

> <minimizedAffinity>
-5.51527

> <minimizedRMSD>
1.07583

> <CNNscore>
0.0916958451

> <CNNaffinity>
4.8928890228

> <CNN_VS>
0.4486576021

> <CNNaffinity_variance>
0.3651079237

$$$$
18:0


 28 30  0  0  0  0  0  0  0  0999 V2000
   58.1783   27.4672   43.2328 C   0  0  0  0  0  0  0  0  0  0  0  0
   58.2943   27.4933   44.5700 C   0  0  0  0  0  0  0  0  0  0  0  0
   58.2587   26.3906   45.4429 C   0  0  0  0  0  0  0  0  0  0  0  0
   57.9689   25.0922   45.2261 C   0  0  0  0  0  0  0  0  0  0  0  0
   58.5829   26.8783   46.6969 C   0  0  0  0  0  0  0  0  0  0  0  0
   58.7523   28.2393   46.5638 C   0  0  0  0  0  0  0  0  0  0  0  0
   58.5797   28.6186   45.2770 N   0  0  0  0  0  0  0  0  0  0  0  0
   57.1373   24.2411   46.0896 C   0  0  0  0  0  0  0  0  0  0  0  0
   57.6076   23.1732   46.7564 N   0  0  0  0  0  0  0  0  0  0  0  0
   56.5556   22.7863   47.5094 C   0  0  0  0  0  0  0  0  0  0  0  0
   56.6005   21.7882   48.2750 O   0  0  0  0  0  0  0  0  0  0  0  0
   55.4552   23.5603   47.3881 N   0  0  0  0  0  0  0  0  0  0  0  0
   55.8456   24.4858   46.4975 C   0  0  0  0  0  0  0  0  0  0  0  0
   55.0464   25.5462   46.0866 O   0  0  0  0  0  0  0  0  0  0  0  0
   59.0647   29.1456   47.6870 C   0  0  0  0  0  0  0  0  0  0  0  0
   58.4617   28.9525   48.7784 O   0  0  0  0  0  0  0  0  0  0  0  0
   60.0917   30.1730   47.6107 N   0  0  0  0  0  0  0  0  0  0  0  0
   59.5501   31.5249   47.3508 C   0  0  0  0  0  0  0  0  0  0  0  0
   60.6921   32.5045   47.0578 C   0  0  0  0  0  0  0  0  0  0  0  0
   61.8186   32.3046   47.9787 N   0  0  0  0  0  0  0  0  0  0  0  0
   63.0366   33.0526   47.7582 C   0  0  0  0  0  0  0  0  0  0  0  0
   63.1378   33.7975   46.7431 O   0  0  0  0  0  0  0  0  0  0  0  0
   64.2085   32.9631   48.6932 C   0  0  0  0  0  0  0  0  0  0  0  0
   61.6066   31.4870   49.1821 C   0  0  0  0  0  0  0  0  0  0  0  0
   60.9327   30.1418   48.8400 C   0  0  0  0  0  0  0  0  0  0  0  0
   61.0123   30.4492   47.8241 H   0  0  0  0  0  0  0  0  0  0  0  0
   58.6588   30.0001   44.7754 C   0  0  0  0  0  0  0  0  0  0  0  0
   57.2611   30.5794   44.5988 C   0  0  0  0  0  0  0  0  0  0  0  0
  1  2  2  0
  2  3  1  0
  3  4  2  0
  4  8  1  0
  8  9  1  0
  9 10  1  0
 10 11  2  0
 10 12  1  0
 12 13  1  0
 13 14  1  0
  3  5  1  0
  5  6  2  0
  6 15  1  0
 15 16  2  0
 15 17  1  0
 17 18  1  0
 18 19  1  0
 19 20  1  0
 20 21  1  0
 21 22  2  0
 21 23  1  0
 20 24  1  0
 24 25  1  0
  6  7  1  0
  7 27  1  0
 27 28  1  0
  7  2  1  0
 13  8  2  0
 25 17  1  0
 17 26  1  0
M  CHG 1   9  -1
M  CHG 1  12  -1
M  CHG 1  14  -1
M  CHG 1  17   1
M  END
> <UniqueID>
18

> <SMILES>
C=c1/c(=C\c2[n-]c(=O)[n-]c2[O-])cc(C(=O)[NH+]2CCN(C(C)=O)CC2)n1CC

> <Energy>
133.9108360510568

> <Genealogy>
C=c1c(=Cc2[n-]c(=O)[n-]c2[O-])cc(C(=O)[NH+]2CCN(C(C)=O)CC2)n1CC (protonated)
C=c1/c(=C\c2[n-]c(=O)[n-]c2[O-])cc(C(=O)[NH+]2CCN(C(C)=O)CC2)n1CC (cis-trans isomerization)
C=c1/c(=C\c2[n-]c(=O)[n-]c2[O-])cc(C(=O)[NH+]2CCN(C(C)=O)CC2)n1CC (3D coordinates assigned)
C=c1/c(=C\c2[n-]c(=O)[n-]c2[O-])cc(C(=O)[NH+]2CCN(C(C)=O)CC2)n1CC (nonaromatic ring conformer: 133.9108360510568 kcal/mol)

> <smiles>
C=c1c(=Cc2[nH]c(=O)[nH]c2O)cc(C(=O)N2CCN(C(C)=O)CC2)n1CC

> <score_type>
oracle

> <origin>
adg

> <m_score__min__energy>
-15.18

> <m_primary>
energy

> <minimizedAffinity>
-7.69732

> <minimizedRMSD>
1.43837

> <CNNscore>
0.1402896941

> <CNNaffinity>
6.3467316628

> <CNN_VS>
0.8903810382

> <CNNaffinity_variance>
0.3524858057

$$$$
23:0


 31 34  0  0  0  0  0  0  0  0999 V2000
   59.0829   31.7094   49.2241 N   0  0  0  0  0  0  0  0  0  0  0  0
   58.1815   32.2423   50.2484 C   0  0  0  0  0  0  0  0  0  0  0  0
   58.5259   31.6343   51.6076 C   0  0  0  0  0  0  0  0  0  0  0  0
   58.6567   30.1762   51.4876 N   0  0  0  0  0  0  0  0  0  0  0  0
   58.1835   29.3159   52.5388 C   0  0  0  0  0  0  0  0  0  0  0  0
   58.9105   28.3678   52.9428 O   0  0  0  0  0  0  0  0  0  0  0  0
   59.5799   29.6563   50.4724 C   0  0  0  0  0  0  0  0  0  0  0  0
   59.2495   30.2590   49.1065 C   0  0  0  0  0  0  0  0  0  0  0  0
   57.2889   33.0957   47.4361 O   0  0  0  0  0  0  0  0  0  0  0  0
   58.6714   33.2400   47.3182 C   0  0  0  0  0  0  0  0  0  0  0  0
   59.1790   34.0715   46.3136 C   0  0  0  0  0  0  0  0  0  0  0  0
   60.5577   34.2381   46.1635 C   0  0  0  0  0  0  0  0  0  0  0  0
   61.4399   33.5733   47.0177 C   0  0  0  0  0  0  0  0  0  0  0  0
   60.9456   32.7411   48.0238 C   0  0  0  0  0  0  0  0  0  0  0  0
   59.5628   32.5676   48.1816 C   0  0  0  0  0  0  0  0  0  0  0  0
   56.7184   33.5532   46.8502 H   0  0  0  0  0  0  0  0  0  0  0  0
   56.8234   29.4846   53.0966 C   0  0  0  0  0  0  0  0  0  0  0  0
   55.9013   30.3860   52.6019 C   0  0  0  0  0  0  0  0  0  0  0  0
   54.7252   30.1892   53.3068 C   0  0  0  0  0  0  0  0  0  0  0  0
   53.5608   30.8375   53.1074 C   0  0  0  0  0  0  0  0  0  0  0  0
   54.9779   29.1464   54.2041 C   0  0  0  0  0  0  0  0  0  0  0  0
   54.0897   28.6022   55.0532 C   0  0  0  0  0  0  0  0  0  0  0  0
   56.2712   28.7432   54.0878 N   0  0  0  0  0  0  0  0  0  0  0  0
   56.9404   27.6925   54.8647 C   0  0  0  0  0  0  0  0  0  0  0  0
   52.8025   30.7942   51.8432 C   0  0  0  0  0  0  0  0  0  0  0  0
   52.9905   29.8536   50.9016 N   0  0  0  0  0  0  0  0  0  0  0  0
   52.0509   30.1446   49.9752 C   0  0  0  0  0  0  0  0  0  0  0  0
   51.9164   29.4805   48.9144 O   0  0  0  0  0  0  0  0  0  0  0  0
   51.2592   31.1956   50.2804 N   0  0  0  0  0  0  0  0  0  0  0  0
   51.7394   31.5884   51.4711 C   0  0  0  0  0  0  0  0  0  0  0  0
   51.1839   32.6190   52.2193 O   0  0  0  0  0  0  0  0  0  0  0  0
  9 10  1  0
 10 11  2  0
 11 12  1  0
 12 13  2  0
 13 14  1  0
 14 15  2  0
 15  1  1  0
  1  2  1  0
  2  3  1  0
  3  4  1  0
  4  5  1  0
  5  6  2  0
  5 17  1  0
 17 18  2  0
 18 19  1  0
 19 20  2  0
 20 25  1  0
 25 26  1  0
 26 27  1  0
 27 28  2  0
 27 29  1  0
 29 30  1  0
 30 31  1  0
 19 21  1  0
 21 22  2  0
 21 23  1  0
 23 24  1  0
  4  7  1  0
  7  8  1  0
 15 10  1  0
  8  1  1  0
 23 17  1  0
 30 25  2  0
  9 16  1  0
M  CHG 1  26  -1
M  CHG 1  29  -1
M  CHG 1  31  -1
M  END
> <UniqueID>
22

> <SMILES>
C=c1/c(=C/c2[n-]c(=O)[n-]c2[O-])cc(C(=O)N2CCN(c3ccccc3O)CC2)n1C

> <Energy>
127.92619171614838

> <Genealogy>
C=c1c(=Cc2[n-]c(=O)[n-]c2[O-])cc(C(=O)N2CCN(c3ccccc3O)CC2)n1C (protonated)
C=c1/c(=C/c2[n-]c(=O)[n-]c2[O-])cc(C(=O)N2CCN(c3ccccc3O)CC2)n1C (cis-trans isomerization)
C=c1/c(=C/c2[n-]c(=O)[n-]c2[O-])cc(C(=O)N2CCN(c3ccccc3O)CC2)n1C (3D coordinates assigned)
C=c1/c(=C/c2[n-]c(=O)[n-]c2[O-])cc(C(=O)N2CCN(c3ccccc3O)CC2)n1C (nonaromatic ring conformer: 127.92619171614838 kcal/mol)

> <smiles>
C=c1c(=Cc2[nH]c(=O)[nH]c2O)cc(C(=O)N2CCN(c3ccccc3O)CC2)n1C

> <score_type>
oracle

> <origin>
adg

> <m_score__min__energy>
-17.629999999999999

> <m_primary>
energy

> <minimizedAffinity>
-6.67272

> <minimizedRMSD>
0.79413

> <CNNscore>
0.0628515333

> <CNNaffinity>
5.2778720856

> <CNN_VS>
0.3317223489

> <CNNaffinity_variance>
0.1052533388

$$$$
33:0


 29 32  0  0  0  0  0  0  0  0999 V2000
   59.2445   28.7732   48.2797 C   0  0  0  0  0  0  0  0  0  0  0  0
   58.9218   29.0161   46.9988 C   0  0  0  0  0  0  0  0  0  0  0  0
   58.9619   28.1069   45.9270 C   0  0  0  0  0  0  0  0  0  0  0  0
   59.1640   26.7745   45.8993 C   0  0  0  0  0  0  0  0  0  0  0  0
   58.7260   28.8478   44.7837 C   0  0  0  0  0  0  0  0  0  0  0  0
   58.5100   30.1496   45.1832 C   0  0  0  0  0  0  0  0  0  0  0  0
   58.2033   31.2833   44.2525 C   0  0  0  0  0  0  0  0  0  0  0  0
   58.6071   30.2537   46.5300 N   0  0  0  0  0  0  0  0  0  0  0  0
   58.1107   25.7424   45.9541 C   0  0  0  0  0  0  0  0  0  0  0  0
   56.7505   26.0921   46.0102 C   0  0  0  0  0  0  0  0  0  0  0  0
   56.3602   27.4243   46.0541 O   0  0  0  0  0  0  0  0  0  0  0  0
   55.8017   25.1203   46.0169 N   0  0  0  0  0  0  0  0  0  0  0  0
   56.1436   23.8071   45.9517 C   0  0  0  0  0  0  0  0  0  0  0  0
   55.2473   22.9228   45.9627 O   0  0  0  0  0  0  0  0  0  0  0  0
   57.4492   23.4466   45.8670 N   0  0  0  0  0  0  0  0  0  0  0  0
   58.4353   24.3803   45.8583 C   0  0  0  0  0  0  0  0  0  0  0  0
   59.6378   24.0111   45.7720 O   0  0  0  0  0  0  0  0  0  0  0  0
   58.5036   31.4993   47.3023 C   0  0  0  0  0  0  0  0  0  0  0  0
   59.8610   32.0849   47.5200 C   0  0  0  0  0  0  0  0  0  0  0  0
   60.5238   32.0351   48.6902 N   0  0  0  0  0  0  0  0  0  0  0  0
   61.6602   32.6972   48.3834 C   0  0  0  0  0  0  0  0  0  0  0  0
   61.6762   33.1198   47.1021 N   0  0  0  0  0  0  0  0  0  0  0  0
   60.5468   32.7211   46.6024 O   0  0  0  0  0  0  0  0  0  0  0  0
   62.7576   32.9364   49.3435 C   0  0  0  0  0  0  0  0  0  0  0  0
   63.9376   32.1710   49.2815 C   0  0  0  0  0  0  0  0  0  0  0  0
   64.9744   32.3989   50.1916 C   0  0  0  0  0  0  0  0  0  0  0  0
   64.8463   33.3875   51.1696 C   0  0  0  0  0  0  0  0  0  0  0  0
   63.6793   34.1529   51.2390 C   0  0  0  0  0  0  0  0  0  0  0  0
   62.6383   33.9294   50.3316 C   0  0  0  0  0  0  0  0  0  0  0  0
  1  2  2  0
  2  3  1  0
  3  4  2  0
  4  9  1  0
  9 10  2  0
 10 11  1  0
 10 12  1  0
 12 13  1  0
 13 14  2  0
 13 15  1  0
 15 16  1  0
 16 17  2  0
  3  5  1  0
  5  6  2  0
  6  7  1  0
  6  8  1  0
  8 18  1  0
 18 19  1  0
 19 20  2  0
 20 21  1  0
 21 24  1  0
 24 25  2  0
 25 26  1  0
 26 27  2  0
 27 28  1  0
 28 29  2  0
 21 22  2  0
 22 23  1  0
  8  2  1  0
 23 19  1  0
 16  9  1  0
 29 24  1  0
M  CHG 1  11  -1
M  CHG 1  12  -1
M  CHG 1  15  -1
M  END
> <UniqueID>
32

> <SMILES>
C=c1c(=Cc2c([O-])[n-]c(=O)[n-]c2=O)cc(C)n1Cc1nc(-c2ccccc2)no1

> <Energy>
122.16865211456397

> <Genealogy>
C=c1c(=Cc2c([O-])[n-]c(=O)[n-]c2=O)cc(C)n1Cc1nc(-c2ccccc2)no1 (protonated)
C=c1c(=Cc2c([O-])[n-]c(=O)[n-]c2=O)cc(C)n1Cc1nc(-c2ccccc2)no1 (3D coordinates assigned)
C=c1c(=Cc2c([O-])[n-]c(=O)[n-]c2=O)cc(C)n1Cc1nc(-c2ccccc2)no1 (optimized conformer: 122.16865211456397 kcal/mol)

> <smiles>
C=c1c(=Cc2c(O)[nH]c(=O)[nH]c2=O)cc(C)n1Cc1nc(-c2ccccc2)no1

> <score_type>
oracle

> <origin>
adg

> <m_score__min__energy>
-16.649999999999999

> <m_primary>
energy

> <minimizedAffinity>
-7.64451

> <minimizedRMSD>
1.97662

> <CNNscore>
0.1760950089

> <CNNaffinity>
6.6494727135

> <CNN_VS>
1.1709389687

> <CNNaffinity_variance>
0.2217551470

$$$$
34:0


 26 28  0  0  0  0  0  0  0  0999 V2000
   58.1373   30.0905   52.5345 C   0  0  0  0  0  0  0  0  0  0  0  0
   59.0366   30.4423   51.3797 C   0  0  0  0  0  0  0  0  0  0  0  0
   59.8805   31.5621   51.4549 C   0  0  0  0  0  0  0  0  0  0  0  0
   60.6685   31.9242   50.3586 C   0  0  0  0  0  0  0  0  0  0  0  0
   60.6010   31.1888   49.1702 C   0  0  0  0  0  0  0  0  0  0  0  0
   59.7598   30.0723   49.0889 C   0  0  0  0  0  0  0  0  0  0  0  0
   58.9778   29.7031   50.1869 C   0  0  0  0  0  0  0  0  0  0  0  0
   61.6155   31.6510   47.7637 S   0  0  0  0  0  0  0  0  0  0  0  0
   60.2233   32.2117   46.7113 C   0  0  0  0  0  0  0  0  0  0  0  0
   59.3544   31.0233   46.2751 C   0  0  0  0  0  0  0  0  0  0  0  0
   58.0930   31.5007   45.5177 C   0  0  0  0  0  0  0  0  0  0  0  0
   57.9145   32.9065   45.5618 O   0  0  0  0  0  0  0  0  0  0  0  0
   57.9536   33.3562   46.9031 C   0  0  0  0  0  0  0  0  0  0  0  0
   59.3743   33.2350   47.4858 C   0  0  0  0  0  0  0  0  0  0  0  0
   56.7388   32.0294   52.5614 O   0  0  0  0  0  0  0  0  0  0  0  0
   56.8230   30.7844   52.3781 C   0  0  0  0  0  0  0  0  0  0  0  0
   55.6759   30.0332   51.9782 N   0  0  0  0  0  0  0  0  0  0  0  0
   54.6937   29.5152   52.9199 C   0  0  0  0  0  0  0  0  0  0  0  0
   53.5354   30.5020   53.0667 C   0  0  0  0  0  0  0  0  0  0  0  0
   52.7408   30.5963   51.7979 C   0  0  0  0  0  0  0  0  0  0  0  0
   52.8476   29.7309   50.7740 N   0  0  0  0  0  0  0  0  0  0  0  0
   51.9124   30.1650   49.9002 C   0  0  0  0  0  0  0  0  0  0  0  0
   51.7114   29.6082   48.7913 O   0  0  0  0  0  0  0  0  0  0  0  0
   51.2109   31.2445   50.3099 N   0  0  0  0  0  0  0  0  0  0  0  0
   51.7438   31.5002   51.5148 C   0  0  0  0  0  0  0  0  0  0  0  0
   51.3289   32.5403   52.3385 O   0  0  0  0  0  0  0  0  0  0  0  0
 15 16  2  0
 16  1  1  0
  1  2  1  0
  2  3  2  0
  3  4  1  0
  4  5  2  0
  5  8  1  0
  8  9  1  0
  9 10  1  0
 10 11  1  0
 11 12  1  0
 12 13  1  0
 13 14  1  0
  5  6  1  0
  6  7  2  0
 16 17  1  0
 17 18  1  0
 18 19  1  0
 19 20  1  0
 20 21  1  0
 21 22  1  0
 22 23  2  0
 22 24  1  0
 24 25  1  0
 25 26  1  0
  7  2  1  0
 25 20  2  0
 14  9  1  0
M  CHG 1  17  -1
M  CHG 1  21  -1
M  CHG 1  24  -1
M  CHG 1  26  -1
M  END
> <UniqueID>
33

> <SMILES>
O=C(Cc1ccc(SC2CCOCC2)cc1)[N-]CCc1[n-]c(=O)[n-]c1[O-]

> <Energy>
67.26601941738602

> <Genealogy>
O=C(Cc1ccc(SC2CCOCC2)cc1)[N-]CCc1[n-]c(=O)[n-]c1[O-] (protonated)
O=C(Cc1ccc(SC2CCOCC2)cc1)[N-]CCc1[n-]c(=O)[n-]c1[O-] (3D coordinates assigned)
O=C(Cc1ccc(SC2CCOCC2)cc1)[N-]CCc1[n-]c(=O)[n-]c1[O-] (nonaromatic ring conformer: 67.26601941738602 kcal/mol)

> <smiles>
O=C(Cc1ccc(SC2CCOCC2)cc1)NCCc1[nH]c(=O)[nH]c1O

> <score_type>
oracle

> <origin>
adg

> <m_score__min__energy>
-18.620000000000001

> <m_primary>
energy

> <minimizedAffinity>
-5.43858

> <minimizedRMSD>
1.32427

> <CNNscore>
0.0913526043

> <CNNaffinity>
5.2228603363

> <CNN_VS>
0.4771218896

> <CNNaffinity_variance>
0.0493962504

$$$$
36:0


 37 40  0  0  0  0  0  0  0  0999 V2000
   59.9794   28.1783   47.9360 C   0  0  0  0  0  0  0  0  0  0  0  0
   59.7495   29.4427   48.5053 C   0  0  0  0  0  0  0  0  0  0  0  0
   60.0771   29.6927   49.8508 C   0  0  0  0  0  0  0  0  0  0  0  0
   60.6443   28.6585   50.6165 C   0  0  0  0  0  0  0  0  0  0  0  0
   60.9041   27.4113   50.0422 C   0  0  0  0  0  0  0  0  0  0  0  0
   60.5830   27.1717   48.7048 C   0  0  0  0  0  0  0  0  0  0  0  0
   60.8555   25.9249   48.1495 O   0  0  0  0  0  0  0  0  0  0  0  0
   57.1113   26.6317   46.0575 C   0  0  0  0  0  0  0  0  0  0  0  0
   57.4017   27.8663   45.6139 C   0  0  0  0  0  0  0  0  0  0  0  0
   56.4242   28.4970   44.9185 N   0  0  0  0  0  0  0  0  0  0  0  0
   56.5822   29.7208   44.3717 C   0  0  0  0  0  0  0  0  0  0  0  0
   55.6203   30.2271   43.7321 O   0  0  0  0  0  0  0  0  0  0  0  0
   57.7659   30.3907   44.5118 N   0  0  0  0  0  0  0  0  0  0  0  0
   58.7899   29.8259   45.2304 C   0  0  0  0  0  0  0  0  0  0  0  0
   59.8394   30.5014   45.4233 O   0  0  0  0  0  0  0  0  0  0  0  0
   58.6614   28.5191   45.7943 C   0  0  0  0  0  0  0  0  0  0  0  0
   59.6709   27.9392   46.5091 C   0  0  0  0  0  0  0  0  0  0  0  0
   57.9246   31.7462   43.9400 C   0  0  0  0  0  0  0  0  0  0  0  0
   58.3063   32.7343   45.0123 C   0  0  0  0  0  0  0  0  0  0  0  0
   57.8646   32.5509   46.3336 C   0  0  0  0  0  0  0  0  0  0  0  0
   58.2383   33.4520   47.3346 C   0  0  0  0  0  0  0  0  0  0  0  0
   59.0571   34.5412   47.0256 C   0  0  0  0  0  0  0  0  0  0  0  0
   59.5010   34.7322   45.7148 C   0  0  0  0  0  0  0  0  0  0  0  0
   59.1303   33.8325   44.7109 C   0  0  0  0  0  0  0  0  0  0  0  0
   59.8117   31.0124   50.4738 C   0  0  0  0  0  0  0  0  0  0  0  0
   58.8752   31.7276   50.0234 O   0  0  0  0  0  0  0  0  0  0  0  0
   60.5923   31.4816   51.5853 N   0  0  0  0  0  0  0  0  0  0  0  0
   61.2619   30.8793   51.9829 H   0  0  0  0  0  0  0  0  0  0  0  0
   60.4278   32.8207   52.1466 C   0  0  0  0  0  0  0  0  0  0  0  0
   61.7528   33.5876   52.1003 C   0  0  0  0  0  0  0  0  0  0  0  0
   62.4174   33.4183   50.7584 C   0  0  0  0  0  0  0  0  0  0  0  0
   63.6783   32.8037   50.6716 C   0  0  0  0  0  0  0  0  0  0  0  0
   64.2863   32.6156   49.4274 C   0  0  0  0  0  0  0  0  0  0  0  0
   63.6374   33.0300   48.2606 C   0  0  0  0  0  0  0  0  0  0  0  0
   62.3776   33.6278   48.3369 C   0  0  0  0  0  0  0  0  0  0  0  0
   61.7632   33.8197   49.5779 C   0  0  0  0  0  0  0  0  0  0  0  0
   60.5324   34.3902   49.6295 F   0  0  0  0  0  0  0  0  0  0  0  0
  8  9  2  0
  9 10  1  0
 10 11  1  0
 11 12  2  0
 11 13  1  0
 13 18  1  0
 18 19  1  0
 19 20  2  0
 20 21  1  0
 21 22  2  0
 22 23  1  0
 23 24  2  0
 13 14  1  0
 14 15  2  0
 14 16  1  0
 16 17  2  0
 17  1  1  0
  1  2  2  0
  2  3  1  0
  3 25  1  0
 25 26  2  0
 25 27  1  0
 27 29  1  0
 29 30  1  0
 30 31  1  0
 31 32  2  0
 32 33  1  0
 33 34  2  0
 34 35  1  0
 35 36  2  0
 36 37  1  0
  3  4  2  0
  4  5  1  0
  5  6  2  0
  6  7  1  0
 16  9  1  0
  6  1  1  0
 24 19  1  0
 36 31  1  0
 27 28  1  0
M  CHG 1   7  -1
M  CHG 1  10  -1
M  END
> <UniqueID>
35

> <SMILES>
C=c1[n-]c(=O)n(Cc2ccccc2)c(=O)/c1=C\c1cc(C(=O)NCCc2ccccc2F)ccc1[O-]

> <Energy>
86.27655994836641

> <Genealogy>
C=c1[n-]c(=O)n(Cc2ccccc2)c(=O)c1=Cc1cc(C(=O)NCCc2ccccc2F)ccc1[O-] (protonated)
C=c1[n-]c(=O)n(Cc2ccccc2)c(=O)/c1=C\c1cc(C(=O)NCCc2ccccc2F)ccc1[O-] (cis-trans isomerization)
C=c1[n-]c(=O)n(Cc2ccccc2)c(=O)/c1=C\c1cc(C(=O)NCCc2ccccc2F)ccc1[O-] (3D coordinates assigned)
C=c1[n-]c(=O)n(Cc2ccccc2)c(=O)/c1=C\c1cc(C(=O)NCCc2ccccc2F)ccc1[O-] (optimized conformer: 86.27655994836641 kcal/mol)

> <smiles>
C=c1[nH]c(=O)n(Cc2ccccc2)c(=O)c1=Cc1cc(C(=O)NCCc2ccccc2F)ccc1O

> <score_type>
oracle

> <origin>
adg

> <m_score__min__energy>
-14.300000000000001

> <m_primary>
energy

> <minimizedAffinity>
-7.01035

> <minimizedRMSD>
0.65279

> <CNNscore>
0.5708923340

> <CNNaffinity>
7.0455021858

> <CNN_VS>
4.0222229958

> <CNNaffinity_variance>
0.3973998129

$$$$
38:0


 39 43  0  0  0  0  0  0  0  0999 V2000
   60.2806   28.6211   49.1634 C   0  0  0  0  0  0  0  0  0  0  0  0
   60.7954   27.9957   50.3117 C   0  0  0  0  0  0  0  0  0  0  0  0
   61.5910   28.7158   51.2067 C   0  0  0  0  0  0  0  0  0  0  0  0
   61.8944   30.0557   50.9573 C   0  0  0  0  0  0  0  0  0  0  0  0
   61.4037   30.6934   49.8030 C   0  0  0  0  0  0  0  0  0  0  0  0
   60.6002   29.9608   48.9077 C   0  0  0  0  0  0  0  0  0  0  0  0
   61.7675   32.1004   49.5118 C   0  0  0  0  0  0  0  0  0  0  0  0
   62.6106   32.6921   50.2375 O   0  0  0  0  0  0  0  0  0  0  0  0
   61.1399   32.8168   48.4372 N   0  0  0  0  0  0  0  0  0  0  0  0
   61.3563   32.3863   47.0518 C   0  0  0  0  0  0  0  0  0  0  0  0
   60.1266   32.7217   46.2036 C   0  0  0  0  0  0  0  0  0  0  0  0
   59.7570   34.1462   46.3558 N   0  0  0  0  0  0  0  0  0  0  0  0
   59.4379   34.4415   47.7746 C   0  0  0  0  0  0  0  0  0  0  0  0
   60.6592   34.1803   48.6601 C   0  0  0  0  0  0  0  0  0  0  0  0
   58.5998   34.4537   45.4861 C   0  0  0  0  0  0  0  0  0  0  0  0
   58.0726   33.2021   44.8331 C   0  0  0  0  0  0  0  0  0  0  0  0
   58.2945   32.9654   43.4654 C   0  0  0  0  0  0  0  0  0  0  0  0
   57.8115   31.7971   42.8660 C   0  0  0  0  0  0  0  0  0  0  0  0
   57.1106   30.8566   43.6280 C   0  0  0  0  0  0  0  0  0  0  0  0
   56.8936   31.0814   44.9900 C   0  0  0  0  0  0  0  0  0  0  0  0
   57.3751   32.2484   45.5945 C   0  0  0  0  0  0  0  0  0  0  0  0
   59.4952   27.9075   48.1957 N   0  0  0  0  0  0  0  0  0  0  0  0
   58.7565   24.3511   46.6256 C   0  0  0  0  0  0  0  0  0  0  0  0
   58.5334   25.4457   45.8746 C   0  0  0  0  0  0  0  0  0  0  0  0
   57.7997   25.5089   44.6797 C   0  0  0  0  0  0  0  0  0  0  0  0
   56.9772   24.6134   44.0963 C   0  0  0  0  0  0  0  0  0  0  0  0
   58.0618   26.7513   44.1309 C   0  0  0  0  0  0  0  0  0  0  0  0
   58.8703   27.4221   45.0212 C   0  0  0  0  0  0  0  0  0  0  0  0
   59.3537   28.8292   44.8339 C   0  0  0  0  0  0  0  0  0  0  0  0
   59.1576   26.6350   46.0833 N   0  0  0  0  0  0  0  0  0  0  0  0
   59.9903   26.9994   47.2015 C   0  0  0  0  0  0  0  0  0  0  0  0
   61.1326   26.4816   47.3287 O   0  0  0  0  0  0  0  0  0  0  0  0
   55.8760   23.8989   44.7609 C   0  0  0  0  0  0  0  0  0  0  0  0
   55.6993   22.5662   44.7266 N   0  0  0  0  0  0  0  0  0  0  0  0
   54.6742   22.3668   45.5862 C   0  0  0  0  0  0  0  0  0  0  0  0
   54.2006   21.2254   45.8214 O   0  0  0  0  0  0  0  0  0  0  0  0
   54.2091   23.4856   46.1852 N   0  0  0  0  0  0  0  0  0  0  0  0
   54.9940   24.4423   45.6665 C   0  0  0  0  0  0  0  0  0  0  0  0
   54.9171   25.7830   46.0250 O   0  0  0  0  0  0  0  0  0  0  0  0
 23 24  2  0
 24 25  1  0
 25 26  2  0
 26 33  1  0
 33 34  1  0
 34 35  1  0
 35 36  2  0
 35 37  1  0
 37 38  1  0
 38 39  1  0
 25 27  1  0
 27 28  2  0
 28 29  1  0
 28 30  1  0
 30 31  1  0
 31 32  2  0
 31 22  1  0
 22  1  1  0
  1  2  2  0
  2  3  1  0
  3  4  2  0
  4  5  1  0
  5  7  1  0
  7  8  2  0
  7  9  1  0
  9 10  1  0
 10 11  1  0
 11 12  1  0
 12 15  1  0
 15 16  1  0
 16 17  2  0
 17 18  1  0
 18 19  2  0
 19 20  1  0
 20 21  2  0
 12 13  1  0
 13 14  1  0
  5  6  2  0
 30 24  1  0
  6  1  1  0
 38 33  2  0
 14  9  1  0
 21 16  1  0
M  CHG 1  22  -1
M  CHG 1  34  -1
M  CHG 1  37  -1
M  CHG 1  39  -1
M  END
> <UniqueID>
37

> <SMILES>
C=c1c(=Cc2[n-]c(=O)[n-]c2[O-])cc(C)n1C(=O)[N-]c1cccc(C(=O)N2CCN(Cc3ccccc3)CC2)c1

> <Energy>
151.40394480330602

> <Genealogy>
C=c1c(=Cc2[n-]c(=O)[n-]c2[O-])cc(C)n1C(=O)[N-]c1cccc(C(=O)N2CCN(Cc3ccccc3)CC2)c1 (protonated)
C=c1c(=Cc2[n-]c(=O)[n-]c2[O-])cc(C)n1C(=O)[N-]c1cccc(C(=O)N2CCN(Cc3ccccc3)CC2)c1 (3D coordinates assigned)
C=c1c(=Cc2[n-]c(=O)[n-]c2[O-])cc(C)n1C(=O)[N-]c1cccc(C(=O)N2CCN(Cc3ccccc3)CC2)c1 (nonaromatic ring conformer: 151.40394480330602 kcal/mol)

> <smiles>
C=c1c(=Cc2[nH]c(=O)[nH]c2O)cc(C)n1C(=O)Nc1cccc(C(=O)N2CCN(Cc3ccccc3)CC2)c1

> <score_type>
oracle

> <origin>
adg

> <m_score__min__energy>
-19.48

> <m_primary>
energy

> <minimizedAffinity>
-8.16598

> <minimizedRMSD>
0.77056

> <CNNscore>
0.0448561497

> <CNNaffinity>
6.1605772972

> <CNN_VS>
0.2763397694

> <CNNaffinity_variance>
0.9244027138

$$$$
39:0


 33 36  0  0  0  0  0  0  0  0999 V2000
   57.8868   30.7112   53.2789 C   0  0  0  0  0  0  0  0  0  0  0  0
   58.2814   31.0247   54.4333 O   0  0  0  0  0  0  0  0  0  0  0  0
   58.7547   30.9104   52.1542 N   0  0  0  0  0  0  0  0  0  0  0  0
   58.2839   31.7521   51.0409 C   0  0  0  0  0  0  0  0  0  0  0  0
   59.4607   32.2594   50.2093 C   0  0  0  0  0  0  0  0  0  0  0  0
   60.2640   31.1225   49.7513 N   0  0  0  0  0  0  0  0  0  0  0  0
   60.5805   30.0950   50.7068 C   0  0  0  0  0  0  0  0  0  0  0  0
   61.3420   29.1417   50.3938 O   0  0  0  0  0  0  0  0  0  0  0  0
   60.0207   30.1606   52.1001 C   0  0  0  0  0  0  0  0  0  0  0  0
   54.1816   27.6910   53.6631 C   0  0  0  0  0  0  0  0  0  0  0  0
   54.8777   28.7523   53.2409 C   0  0  0  0  0  0  0  0  0  0  0  0
   56.1656   28.9428   53.5943 N   0  0  0  0  0  0  0  0  0  0  0  0
   56.5409   30.1406   53.1059 C   0  0  0  0  0  0  0  0  0  0  0  0
   55.4892   30.7406   52.4392 C   0  0  0  0  0  0  0  0  0  0  0  0
   54.4268   29.8513   52.4894 C   0  0  0  0  0  0  0  0  0  0  0  0
   53.2430   30.0910   51.8938 C   0  0  0  0  0  0  0  0  0  0  0  0
   56.7267   28.3218   54.1128 H   0  0  0  0  0  0  0  0  0  0  0  0
   52.1496   30.8851   52.4678 C   0  0  0  0  0  0  0  0  0  0  0  0
   51.8204   30.8665   53.7721 N   0  0  0  0  0  0  0  0  0  0  0  0
   50.8385   31.7906   53.8572 C   0  0  0  0  0  0  0  0  0  0  0  0
   50.2450   32.0513   54.9380 O   0  0  0  0  0  0  0  0  0  0  0  0
   50.5395   32.4094   52.6950 N   0  0  0  0  0  0  0  0  0  0  0  0
   51.3869   31.8377   51.8270 C   0  0  0  0  0  0  0  0  0  0  0  0
   51.4635   32.1962   50.4824 O   0  0  0  0  0  0  0  0  0  0  0  0
   50.8970   32.8602   50.1416 H   0  0  0  0  0  0  0  0  0  0  0  0
   60.6708   31.0062   48.3459 C   0  0  0  0  0  0  0  0  0  0  0  0
   59.4655   30.7471   47.4366 C   0  0  0  0  0  0  0  0  0  0  0  0
   59.1961   31.9191   46.5283 C   0  0  0  0  0  0  0  0  0  0  0  0
   59.8735   33.1351   46.7118 C   0  0  0  0  0  0  0  0  0  0  0  0
   59.5906   34.2149   45.8728 C   0  0  0  0  0  0  0  0  0  0  0  0
   58.6543   34.0898   44.8948 N   0  0  0  0  0  0  0  0  0  0  0  0
   57.9763   32.9257   44.6998 C   0  0  0  0  0  0  0  0  0  0  0  0
   58.2340   31.8203   45.5128 C   0  0  0  0  0  0  0  0  0  0  0  0
 10 11  2  0
 11 12  1  0
 12 13  1  0
 13  1  1  0
  1  2  2  0
  1  3  1  0
  3  4  1  0
  4  5  1  0
  5  6  1  0
  6 26  1  0
 26 27  1  0
 27 28  1  0
 28 29  2  0
 29 30  1  0
 30 31  2  0
 31 32  1  0
 32 33  2  0
  6  7  1  0
  7  8  2  0
  7  9  1  0
 13 14  2  0
 14 15  1  0
 15 16  2  0
 16 18  1  0
 18 19  1  0
 19 20  1  0
 20 21  2  0
 20 22  1  0
 22 23  1  0
 23 24  1  0
 15 11  1  0
 23 18  2  0
  9  3  1  0
 33 28  1  0
 12 17  1  0
 24 25  1  0
M  CHG 1  19  -1
M  CHG 1  22  -1
M  END
> <UniqueID>
38

> <SMILES>
C=c1[nH]c(C(=O)N2CCN(CCc3ccncc3)C(=O)C2)cc1=Cc1[n-]c(=O)[n-]c1O

> <Energy>
122.20182677011191

> <Genealogy>
C=c1[nH]c(C(=O)N2CCN(CCc3ccncc3)C(=O)C2)cc1=Cc1[n-]c(=O)[n-]c1O (protonated)
C=c1[nH]c(C(=O)N2CCN(CCc3ccncc3)C(=O)C2)cc1=Cc1[n-]c(=O)[n-]c1O (3D coordinates assigned)
C=c1[nH]c(C(=O)N2CCN(CCc3ccncc3)C(=O)C2)cc1=Cc1[n-]c(=O)[n-]c1O (nonaromatic ring conformer: 122.20182677011191 kcal/mol)

> <smiles>
C=c1[nH]c(C(=O)N2CCN(CCc3ccncc3)C(=O)C2)cc1=Cc1[nH]c(=O)[nH]c1O

> <score_type>
oracle

> <origin>
adg

> <m_score__min__energy>
-14.210000000000001

> <m_primary>
energy

> <minimizedAffinity>
-8.31806

> <minimizedRMSD>
0.65292

> <CNNscore>
0.1863933951

> <CNNaffinity>
5.8484268188

> <CNN_VS>
1.0901081562

> <CNNaffinity_variance>
0.5052101016

$$$$
51:0


 27 29  0  0  0  0  0  0  0  0999 V2000
   54.9375   28.5406   54.4181 C   0  0  0  0  0  0  0  0  0  0  0  0
   55.6699   29.2000   53.5044 C   0  0  0  0  0  0  0  0  0  0  0  0
   56.9733   28.7270   53.2565 C   0  0  0  0  0  0  0  0  0  0  0  0
   57.8928   29.4873   52.5374 C   0  0  0  0  0  0  0  0  0  0  0  0
   57.5307   30.7459   52.0434 C   0  0  0  0  0  0  0  0  0  0  0  0
   56.2333   31.2182   52.2505 C   0  0  0  0  0  0  0  0  0  0  0  0
   55.2528   30.4292   52.8925 C   0  0  0  0  0  0  0  0  0  0  0  0
   53.9785   30.8954   52.8614 C   0  0  0  0  0  0  0  0  0  0  0  0
   53.0047   30.6915   51.7696 C   0  0  0  0  0  0  0  0  0  0  0  0
   53.1537   29.8183   50.7570 N   0  0  0  0  0  0  0  0  0  0  0  0
   52.0881   30.0740   49.9660 C   0  0  0  0  0  0  0  0  0  0  0  0
   51.8640   29.4364   48.9043 O   0  0  0  0  0  0  0  0  0  0  0  0
   51.2856   31.0692   50.3991 N   0  0  0  0  0  0  0  0  0  0  0  0
   51.8880   31.4570   51.5354 C   0  0  0  0  0  0  0  0  0  0  0  0
   51.4279   32.4920   52.3395 O   0  0  0  0  0  0  0  0  0  0  0  0
   58.4708   31.5914   51.3638 N   0  0  0  0  0  0  0  0  0  0  0  0
   58.8438   31.5042   49.9821 C   0  0  0  0  0  0  0  0  0  0  0  0
   58.4559   32.3817   49.1643 O   0  0  0  0  0  0  0  0  0  0  0  0
   59.7595   30.4269   49.5406 C   0  0  0  0  0  0  0  0  0  0  0  0
   61.1016   30.5110   49.6559 C   0  0  0  0  0  0  0  0  0  0  0  0
   59.1595   29.2022   48.9041 C   0  0  0  0  0  0  0  0  0  0  0  0
   61.9472   31.5466   49.0225 C   0  0  0  0  0  0  0  0  0  0  0  0
   61.6994   31.9928   47.7106 C   0  0  0  0  0  0  0  0  0  0  0  0
   62.5347   32.9488   47.1236 C   0  0  0  0  0  0  0  0  0  0  0  0
   63.6306   33.4497   47.8309 C   0  0  0  0  0  0  0  0  0  0  0  0
   63.9000   32.9901   49.1219 C   0  0  0  0  0  0  0  0  0  0  0  0
   63.0675   32.0331   49.7130 C   0  0  0  0  0  0  0  0  0  0  0  0
  1  2  2  0
  2  3  1  0
  3  4  2  0
  4  5  1  0
  5 16  1  0
 16 17  1  0
 17 18  2  0
 17 19  1  0
 19 20  2  0
 20 22  1  0
 22 23  2  0
 23 24  1  0
 24 25  2  0
 25 26  1  0
 26 27  2  0
 19 21  1  0
  5  6  2  0
  6  7  1  0
  7  8  2  0
  8  9  1  0
  9 10  1  0
 10 11  1  0
 11 12  2  0
 11 13  1  0
 13 14  1  0
 14 15  1  0
  7  2  1  0
 14  9  2  0
 27 22  1  0
M  CHG 1  10  -1
M  CHG 1  13  -1
M  CHG 1  15  -1
M  CHG 1  16  -1
M  END
> <UniqueID>
50

> <SMILES>
C=c1ccc([N-]C(=O)/C(C)=C\c2ccccc2)cc1=Cc1[n-]c(=O)[n-]c1[O-]

> <Energy>
105.26807260545364

> <Genealogy>
C=c1ccc([N-]C(=O)C(C)=Cc2ccccc2)cc1=Cc1[n-]c(=O)[n-]c1[O-] (protonated)
C=c1ccc([N-]C(=O)/C(C)=C\c2ccccc2)cc1=Cc1[n-]c(=O)[n-]c1[O-] (cis-trans isomerization)
C=c1ccc([N-]C(=O)/C(C)=C\c2ccccc2)cc1=Cc1[n-]c(=O)[n-]c1[O-] (3D coordinates assigned)
C=c1ccc([N-]C(=O)/C(C)=C\c2ccccc2)cc1=Cc1[n-]c(=O)[n-]c1[O-] (optimized conformer: 105.26807260545364 kcal/mol)

> <smiles>
C=c1ccc(NC(=O)C(C)=Cc2ccccc2)cc1=Cc1[nH]c(=O)[nH]c1O

> <score_type>
oracle

> <origin>
adg

> <m_score__min__energy>
-18.789999999999999

> <m_primary>
energy

> <minimizedAffinity>
-6.24277

> <minimizedRMSD>
1.02845

> <CNNscore>
0.1321707368

> <CNNaffinity>
5.5335693359

> <CNN_VS>
0.7313759327

> <CNNaffinity_variance>
0.0058489679

$$$$
69:0


 28 29  0  0  0  0  0  0  0  0999 V2000
   61.0206   29.6026   50.1420 C   0  0  0  0  0  0  0  0  0  0  0  0
   59.7249   30.0861   50.7056 C   0  0  0  0  0  0  0  0  0  0  0  0
   58.6367   29.6555   50.2351 O   0  0  0  0  0  0  0  0  0  0  0  0
   59.7317   31.0378   51.7719 N   0  0  0  0  0  0  0  0  0  0  0  0
   59.0487   32.6228   51.6158 S   0  0  0  0  0  0  0  0  0  0  0  0
   57.6084   32.5861   52.0532 O   0  0  0  0  0  0  0  0  0  0  0  0
   59.8079   33.5758   52.4940 O   0  0  0  0  0  0  0  0  0  0  0  0
   59.4581   34.4511   45.8411 C   0  0  0  0  0  0  0  0  0  0  0  0
   59.3455   34.0265   47.2756 C   0  0  0  0  0  0  0  0  0  0  0  0
   58.2818   33.2087   47.6877 C   0  0  0  0  0  0  0  0  0  0  0  0
   58.1963   32.7783   49.0137 C   0  0  0  0  0  0  0  0  0  0  0  0
   59.1746   33.1573   49.9419 C   0  0  0  0  0  0  0  0  0  0  0  0
   60.2516   33.9519   49.5272 C   0  0  0  0  0  0  0  0  0  0  0  0
   60.3427   34.3769   48.1985 C   0  0  0  0  0  0  0  0  0  0  0  0
   61.8604   30.7440   49.8125 N   0  0  0  0  0  0  0  0  0  0  0  0
   62.2340   31.1371   48.4859 C   0  0  0  0  0  0  0  0  0  0  0  0
   62.9794   32.1432   48.3404 O   0  0  0  0  0  0  0  0  0  0  0  0
   61.7496   30.4029   47.2588 C   0  0  0  0  0  0  0  0  0  0  0  0
   60.4699   31.0252   46.6827 C   0  0  0  0  0  0  0  0  0  0  0  0
   59.4104   29.9903   46.3989 C   0  0  0  0  0  0  0  0  0  0  0  0
   59.5528   28.6832   46.8875 C   0  0  0  0  0  0  0  0  0  0  0  0
   58.5700   27.7233   46.6248 C   0  0  0  0  0  0  0  0  0  0  0  0
   57.4427   28.0568   45.8603 C   0  0  0  0  0  0  0  0  0  0  0  0
   56.4580   27.1047   45.5976 O   0  0  0  0  0  0  0  0  0  0  0  0
   57.3059   29.3581   45.3593 C   0  0  0  0  0  0  0  0  0  0  0  0
   56.1984   29.6933   44.5869 O   0  0  0  0  0  0  0  0  0  0  0  0
   58.2854   30.3223   45.6298 C   0  0  0  0  0  0  0  0  0  0  0  0
   56.5474   26.2339   45.9316 H   0  0  0  0  0  0  0  0  0  0  0  0
  8  9  1  0
  9 10  2  0
 10 11  1  0
 11 12  2  0
 12  5  1  0
  5  6  2  0
  5  7  2  0
  5  4  1  0
  4  2  1  0
  2  3  2  0
  2  1  1  0
  1 15  1  0
 15 16  1  0
 16 17  2  0
 16 18  1  0
 18 19  1  0
 19 20  1  0
 20 21  2  0
 21 22  1  0
 22 23  2  0
 23 24  1  0
 23 25  1  0
 25 26  1  0
 25 27  2  0
 12 13  1  0
 13 14  2  0
 14  9  1  0
 27 20  1  0
 24 28  1  0
M  CHG 1   4  -1
M  CHG 1  15  -1
M  CHG 1  26  -1
M  END
> <UniqueID>
68

> <SMILES>
Cc1ccc(S(=O)(=O)[N-]C(=O)C[N-]C(=O)CCc2ccc(O)c([O-])c2)cc1

> <Energy>
38.37052978311313

> <Genealogy>
Cc1ccc(S(=O)(=O)[N-]C(=O)C[N-]C(=O)CCc2ccc(O)c([O-])c2)cc1 (protonated)
Cc1ccc(S(=O)(=O)[N-]C(=O)C[N-]C(=O)CCc2ccc(O)c([O-])c2)cc1 (3D coordinates assigned)
Cc1ccc(S(=O)(=O)[N-]C(=O)C[N-]C(=O)CCc2ccc(O)c([O-])c2)cc1 (optimized conformer: 38.37052978311313 kcal/mol)

> <smiles>
Cc1ccc(S(=O)(=O)NC(=O)CNC(=O)CCc2ccc(O)c(O)c2)cc1

> <score_type>
oracle

> <origin>
adg

> <m_score__min__energy>
-14.9

> <m_primary>
energy

> <minimizedAffinity>
-5.35611

> <minimizedRMSD>
1.40573

> <CNNscore>
0.8110864758

> <CNNaffinity>
6.6273179054

> <CNN_VS>
5.3753280640

> <CNNaffinity_variance>
0.1801788956

$$$$
70:0


 26 27  0  0  0  0  0  0  0  0999 V2000
   58.3038   33.9148   46.1649 C   0  0  0  0  0  0  0  0  0  0  0  0
   57.8427   28.9165   45.5895 C   0  0  0  0  0  0  0  0  0  0  0  0
   56.9256   29.8362   45.0531 C   0  0  0  0  0  0  0  0  0  0  0  0
   55.6715   29.4212   44.6173 O   0  0  0  0  0  0  0  0  0  0  0  0
   57.2578   31.1476   44.9563 N   0  0  0  0  0  0  0  0  0  0  0  0
   58.4729   31.6035   45.3651 C   0  0  0  0  0  0  0  0  0  0  0  0
   58.7835   32.8630   45.2684 N   0  0  0  0  0  0  0  0  0  0  0  0
   59.3784   30.7322   45.8754 N   0  0  0  0  0  0  0  0  0  0  0  0
   59.0972   29.4089   45.9948 C   0  0  0  0  0  0  0  0  0  0  0  0
   59.9710   28.6335   46.4676 O   0  0  0  0  0  0  0  0  0  0  0  0
   57.5142   27.4445   45.6882 C   0  0  0  0  0  0  0  0  0  0  0  0
   58.0527   26.9851   43.3091 C   0  0  0  0  0  0  0  0  0  0  0  0
   58.2011   26.6688   44.5977 C   0  0  0  0  0  0  0  0  0  0  0  0
   59.4455   34.8629   46.5445 C   0  0  0  0  0  0  0  0  0  0  0  0
   60.3793   34.2000   47.5201 C   0  0  0  0  0  0  0  0  0  0  0  0
   60.0565   34.1428   48.8852 C   0  0  0  0  0  0  0  0  0  0  0  0
   60.9094   33.4966   49.7863 C   0  0  0  0  0  0  0  0  0  0  0  0
   62.0908   32.8978   49.3318 C   0  0  0  0  0  0  0  0  0  0  0  0
   62.4062   32.9344   47.9664 C   0  0  0  0  0  0  0  0  0  0  0  0
   61.5534   33.5798   47.0657 C   0  0  0  0  0  0  0  0  0  0  0  0
   63.1541   32.0685   50.4635 S   0  0  0  0  0  0  0  0  0  0  0  0
   62.5775   30.4615   50.7315 N   0  0  0  0  0  0  0  0  0  0  0  0
   64.5493   32.0137   49.9051 O   0  0  0  0  0  0  0  0  0  0  0  0
   63.1884   32.8129   51.7687 O   0  0  0  0  0  0  0  0  0  0  0  0
   62.5543   29.9564   49.8456 H   0  0  0  0  0  0  0  0  0  0  0  0
   61.6377   30.4988   51.1263 H   0  0  0  0  0  0  0  0  0  0  0  0
 12 13  2  0
 13 11  1  0
 11  2  1  0
  2  3  2  0
  3  4  1  0
  3  5  1  0
  5  6  1  0
  6  7  2  0
  7  1  1  0
  1 14  1  0
 14 15  1  0
 15 16  2  0
 16 17  1  0
 17 18  2  0
 18 21  1  0
 21 22  1  0
 21 23  2  0
 21 24  2  0
 18 19  1  0
 19 20  2  0
  6  8  1  0
  8  9  1  0
  9 10  2  0
  9  2  1  0
 20 15  1  0
 22 25  1  0
 22 26  1  0
M  CHG 1   4  -1
M  CHG 1   5  -1
M  CHG 1   8  -1
M  END
> <UniqueID>
69

> <SMILES>
C=CCc1c([O-])[n-]c(=NCCc2ccc(S(N)(=O)=O)cc2)[n-]c1=O

> <Energy>
34.30256840282307

> <Genealogy>
C=CCc1c([O-])[n-]c(=NCCc2ccc(S(N)(=O)=O)cc2)[n-]c1=O (protonated)
C=CCc1c([O-])[n-]c(=NCCc2ccc(S(N)(=O)=O)cc2)[n-]c1=O (3D coordinates assigned)
C=CCc1c([O-])[n-]c(=NCCc2ccc(S(N)(=O)=O)cc2)[n-]c1=O (optimized conformer: 34.30256840282307 kcal/mol)

> <smiles>
C=CCc1c(O)[nH]c(=NCCc2ccc(S(N)(=O)=O)cc2)[nH]c1=O

> <score_type>
oracle

> <origin>
adg

> <m_score__min__energy>
-14.74

> <m_primary>
energy

> <minimizedAffinity>
-6.99230

> <minimizedRMSD>
2.02121

> <CNNscore>
0.5862731934

> <CNNaffinity>
6.4058761597

> <CNN_VS>
3.7555935383

> <CNNaffinity_variance>
0.1898042709

$$$$
72:0


 32 34  0  0  0  0  0  0  0  0999 V2000
   54.0504   27.7161   53.5406 C   0  0  0  0  0  0  0  0  0  0  0  0
   55.0008   28.6650   53.6097 C   0  0  0  0  0  0  0  0  0  0  0  0
   56.2959   28.2636   53.9826 C   0  0  0  0  0  0  0  0  0  0  0  0
   57.3572   29.0947   53.8201 N   0  0  0  0  0  0  0  0  0  0  0  0
   57.2215   30.3294   53.2665 C   0  0  0  0  0  0  0  0  0  0  0  0
   55.9439   30.8065   52.9505 C   0  0  0  0  0  0  0  0  0  0  0  0
   54.8009   30.0169   53.1906 C   0  0  0  0  0  0  0  0  0  0  0  0
   53.5932   30.6190   53.0306 C   0  0  0  0  0  0  0  0  0  0  0  0
   58.2489   28.7954   54.1109 H   0  0  0  0  0  0  0  0  0  0  0  0
   58.4088   31.1902   53.0553 C   0  0  0  0  0  0  0  0  0  0  0  0
   58.8162   31.9158   54.0044 O   0  0  0  0  0  0  0  0  0  0  0  0
   59.1087   31.2148   51.7961 N   0  0  0  0  0  0  0  0  0  0  0  0
   58.3875   31.0297   50.5292 C   0  0  0  0  0  0  0  0  0  0  0  0
   58.9308   31.9825   49.4624 C   0  0  0  0  0  0  0  0  0  0  0  0
   60.3933   31.8838   49.3436 N   0  0  0  0  0  0  0  0  0  0  0  0
   61.0214   32.3611   48.1329 C   0  0  0  0  0  0  0  0  0  0  0  0
   60.4099   33.1840   47.3985 O   0  0  0  0  0  0  0  0  0  0  0  0
   61.1781   31.2492   50.4155 C   0  0  0  0  0  0  0  0  0  0  0  0
   60.5481   31.5079   51.7890 C   0  0  0  0  0  0  0  0  0  0  0  0
   62.3875   31.9020   47.7029 C   0  0  0  0  0  0  0  0  0  0  0  0
   63.3435   33.0518   47.6991 C   0  0  0  0  0  0  0  0  0  0  0  0
   63.6331   33.6254   46.6148 O   0  0  0  0  0  0  0  0  0  0  0  0
   63.9273   33.4618   48.9038 O   0  0  0  0  0  0  0  0  0  0  0  0
   64.5488   32.5634   49.8198 C   0  0  0  0  0  0  0  0  0  0  0  0
   65.0052   33.3038   51.0715 C   0  0  0  0  0  0  0  0  0  0  0  0
   52.8106   30.6694   51.7796 C   0  0  0  0  0  0  0  0  0  0  0  0
   52.9142   29.7855   50.7693 N   0  0  0  0  0  0  0  0  0  0  0  0
   51.9325   30.1631   49.9214 C   0  0  0  0  0  0  0  0  0  0  0  0
   51.7151   29.5739   48.8315 O   0  0  0  0  0  0  0  0  0  0  0  0
   51.1947   31.2142   50.3407 N   0  0  0  0  0  0  0  0  0  0  0  0
   51.7568   31.5127   51.5224 C   0  0  0  0  0  0  0  0  0  0  0  0
   51.3116   32.5334   52.3546 O   0  0  0  0  0  0  0  0  0  0  0  0
  1  2  2  0
  2  3  1  0
  3  4  2  0
  4  5  1  0
  5 10  1  0
 10 11  2  0
 10 12  1  0
 12 13  1  0
 13 14  1  0
 14 15  1  0
 15 16  1  0
 16 17  2  0
 16 20  1  0
 20 21  1  0
 21 22  2  0
 21 23  1  0
 23 24  1  0
 24 25  1  0
 15 18  1  0
 18 19  1  0
  5  6  2  0
  6  7  1  0
  7  8  2  0
  8 26  1  0
 26 27  1  0
 27 28  1  0
 28 29  2  0
 28 30  1  0
 30 31  1  0
 31 32  1  0
  7  2  1  0
 31 26  2  0
 19 12  1  0
  4  9  1  0
M  CHG 1   4   1
M  CHG 1  27  -1
M  CHG 1  30  -1
M  CHG 1  32  -1
M  END
> <UniqueID>
71

> <SMILES>
C=c1c[nH+]c(C(=O)N2CCN(C(=O)CC(=O)OCC)CC2)cc1=Cc1[n-]c(=O)[n-]c1[O-]

> <Energy>
101.65268846469718

> <Genealogy>
C=c1c[nH+]c(C(=O)N2CCN(C(=O)CC(=O)OCC)CC2)cc1=Cc1[n-]c(=O)[n-]c1[O-] (protonated)
C=c1c[nH+]c(C(=O)N2CCN(C(=O)CC(=O)OCC)CC2)cc1=Cc1[n-]c(=O)[n-]c1[O-] (3D coordinates assigned)
C=c1c[nH+]c(C(=O)N2CCN(C(=O)CC(=O)OCC)CC2)cc1=Cc1[n-]c(=O)[n-]c1[O-] (nonaromatic ring conformer: 101.65268846469718 kcal/mol)

> <smiles>
C=c1cnc(C(=O)N2CCN(C(=O)CC(=O)OCC)CC2)cc1=Cc1[nH]c(=O)[nH]c1O

> <score_type>
oracle

> <origin>
adg

> <m_score__min__energy>
-15.84

> <m_primary>
energy

> <minimizedAffinity>
-6.41498

> <minimizedRMSD>
0.95730

> <CNNscore>
0.0740336180

> <CNNaffinity>
4.8118386269

> <CNN_VS>
0.3562378287

> <CNNaffinity_variance>
0.3288901746

$$$$
73:0


 25 27  0  0  0  0  0  0  0  0999 V2000
   55.9372   30.0567   53.9015 C   0  0  0  0  0  0  0  0  0  0  0  0
   56.0013   28.7321   54.0554 C   0  0  0  0  0  0  0  0  0  0  0  0
   57.1728   28.1067   54.3097 N   0  0  0  0  0  0  0  0  0  0  0  0
   56.9189   26.8243   54.5260 N   0  0  0  0  0  0  0  0  0  0  0  0
   57.9361   25.8736   54.8798 C   0  0  0  0  0  0  0  0  0  0  0  0
   58.5415   26.0057   55.9780 O   0  0  0  0  0  0  0  0  0  0  0  0
   55.5906   26.6214   54.4424 C   0  0  0  0  0  0  0  0  0  0  0  0
   55.0237   25.5162   54.6610 O   0  0  0  0  0  0  0  0  0  0  0  0
   54.9512   27.8017   54.1069 C   0  0  0  0  0  0  0  0  0  0  0  0
   53.6244   27.9304   53.9054 C   0  0  0  0  0  0  0  0  0  0  0  0
   52.9666   29.0968   53.2924 C   0  0  0  0  0  0  0  0  0  0  0  0
   53.2971   29.4692   51.9811 C   0  0  0  0  0  0  0  0  0  0  0  0
   52.7198   30.6050   51.4069 C   0  0  0  0  0  0  0  0  0  0  0  0
   51.8265   31.3894   52.1441 C   0  0  0  0  0  0  0  0  0  0  0  0
   51.2547   32.5157   51.5660 O   0  0  0  0  0  0  0  0  0  0  0  0
   51.5160   31.0401   53.4644 C   0  0  0  0  0  0  0  0  0  0  0  0
   50.6377   31.8220   54.2072 O   0  0  0  0  0  0  0  0  0  0  0  0
   52.0937   29.9033   54.0406 C   0  0  0  0  0  0  0  0  0  0  0  0
   58.3114   24.7602   53.9780 C   0  0  0  0  0  0  0  0  0  0  0  0
   59.4585   24.8600   53.1718 C   0  0  0  0  0  0  0  0  0  0  0  0
   59.8053   23.8191   52.3046 C   0  0  0  0  0  0  0  0  0  0  0  0
   59.0059   22.6752   52.2271 C   0  0  0  0  0  0  0  0  0  0  0  0
   59.3536   21.6424   51.3649 O   0  0  0  0  0  0  0  0  0  0  0  0
   57.8549   22.5737   53.0116 C   0  0  0  0  0  0  0  0  0  0  0  0
   57.5043   23.6124   53.8799 C   0  0  0  0  0  0  0  0  0  0  0  0
  1  2  2  0
  2  3  1  0
  3  4  1  0
  4  5  1  0
  5  6  2  0
  5 19  1  0
 19 20  2  0
 20 21  1  0
 21 22  2  0
 22 23  1  0
 22 24  1  0
 24 25  2  0
  4  7  1  0
  7  8  2  0
  7  9  1  0
  9 10  2  0
 10 11  1  0
 11 12  2  0
 12 13  1  0
 13 14  2  0
 14 15  1  0
 14 16  1  0
 16 17  1  0
 16 18  2  0
  9  2  1  0
 18 11  1  0
 25 19  1  0
M  CHG 1   3  -1
M  CHG 1  15  -1
M  CHG 1  17  -1
M  CHG 1  23  -1
M  END
> <UniqueID>
72

> <SMILES>
C=c1[n-]n(C(=O)c2ccc([O-])cc2)c(=O)c1=Cc1ccc([O-])c([O-])c1

> <Energy>
89.39066249970105

> <Genealogy>
C=c1[n-]n(C(=O)c2ccc([O-])cc2)c(=O)c1=Cc1ccc([O-])c([O-])c1 (protonated)
C=c1[n-]n(C(=O)c2ccc([O-])cc2)c(=O)c1=Cc1ccc([O-])c([O-])c1 (3D coordinates assigned)
C=c1[n-]n(C(=O)c2ccc([O-])cc2)c(=O)c1=Cc1ccc([O-])c([O-])c1 (optimized conformer: 89.39066249970105 kcal/mol)

> <smiles>
C=c1[nH]n(C(=O)c2ccc(O)cc2)c(=O)c1=Cc1ccc(O)c(O)c1

> <score_type>
oracle

> <origin>
adg

> <m_score__min__energy>
-17.309999999999999

> <m_primary>
energy

> <minimizedAffinity>
-4.97378

> <minimizedRMSD>
2.08218

> <CNNscore>
0.3084999919

> <CNNaffinity>
4.4605555534

> <CNN_VS>
1.3760813475

> <CNNaffinity_variance>
0.1324494928

$$$$
6:0


 29 32  0  0  0  0  0  0  0  0999 V2000
   59.7001   27.5462   47.6556 C   0  0  0  0  0  0  0  0  0  0  0  0
   58.9761   28.2889   46.8033 C   0  0  0  0  0  0  0  0  0  0  0  0
   58.5093   27.9057   45.5374 C   0  0  0  0  0  0  0  0  0  0  0  0
   58.4368   26.6924   44.9571 C   0  0  0  0  0  0  0  0  0  0  0  0
   58.0705   29.0656   44.9180 C   0  0  0  0  0  0  0  0  0  0  0  0
   58.2059   30.0851   45.8393 C   0  0  0  0  0  0  0  0  0  0  0  0
   57.7971   31.5071   45.6058 C   0  0  0  0  0  0  0  0  0  0  0  0
   58.7383   29.6132   46.9867 N   0  0  0  0  0  0  0  0  0  0  0  0
   58.9833   30.3806   48.1798 C   0  0  0  0  0  0  0  0  0  0  0  0
   58.5440   29.9661   49.2869 O   0  0  0  0  0  0  0  0  0  0  0  0
   59.7387   31.6047   48.1154 N   0  0  0  0  0  0  0  0  0  0  0  0
   59.1944   32.8594   48.6359 C   0  0  0  0  0  0  0  0  0  0  0  0
   60.2960   33.6156   49.3853 C   0  0  0  0  0  0  0  0  0  0  0  0
   61.5190   33.8540   48.5633 N   0  0  0  0  0  0  0  0  0  0  0  0
   61.6714   33.0254   47.3351 C   0  0  0  0  0  0  0  0  0  0  0  0
   61.0119   31.6827   47.4654 C   0  0  0  0  0  0  0  0  0  0  0  0
   61.5692   30.6545   46.9956 O   0  0  0  0  0  0  0  0  0  0  0  0
   57.8631   25.4844   45.5728 C   0  0  0  0  0  0  0  0  0  0  0  0
   58.4916   24.2976   45.6056 N   0  0  0  0  0  0  0  0  0  0  0  0
   57.5705   23.4702   46.1473 C   0  0  0  0  0  0  0  0  0  0  0  0
   57.7960   22.2500   46.3588 O   0  0  0  0  0  0  0  0  0  0  0  0
   56.3858   24.0504   46.4363 N   0  0  0  0  0  0  0  0  0  0  0  0
   56.5801   25.3220   46.0527 C   0  0  0  0  0  0  0  0  0  0  0  0
   55.5993   26.3045   46.1145 O   0  0  0  0  0  0  0  0  0  0  0  0
   62.7856   33.9632   49.3390 C   0  0  0  0  0  0  0  0  0  0  0  0
   63.9281   33.1024   48.7691 C   0  0  0  0  0  0  0  0  0  0  0  0
   64.4666   32.2651   49.9227 C   0  0  0  0  0  0  0  0  0  0  0  0
   63.3825   32.2557   50.9870 C   0  0  0  0  0  0  0  0  0  0  0  0
   62.6215   33.5588   50.8121 C   0  0  0  0  0  0  0  0  0  0  0  0
  1  2  2  0
  2  3  1  0
  3  4  2  0
  4 18  1  0
 18 19  1  0
 19 20  1  0
 20 21  2  0
 20 22  1  0
 22 23  1  0
 23 24  1  0
  3  5  1  0
  5  6  2  0
  6  7  1  0
  6  8  1  0
  8  9  1  0
  9 10  2  0
  9 11  1  0
 11 12  1  0
 12 13  1  0
 13 14  1  0
 14 25  1  0
 25 26  1  0
 26 27  1  0
 27 28  1  0
 28 29  1  0
 14 15  1  0
 15 16  1  0
 16 17  2  0
  8  2  1  0
 16 11  1  0
 23 18  2  0
 29 25  1  0
M  CHG 1  19  -1
M  CHG 1  22  -1
M  CHG 1  24  -1
M  END
> <UniqueID>
7

> <SMILES>
C=c1c(=Cc2[n-]c(=O)[n-]c2[O-])cc(C)n1C(=O)N1CCN(C2CCCC2)CC1=O

> <Energy>
141.959955127649

> <Genealogy>
C=c1c(=Cc2[n-]c(=O)[n-]c2[O-])cc(C)n1C(=O)N1CCN(C2CCCC2)CC1=O (protonated)
C=c1c(=Cc2[n-]c(=O)[n-]c2[O-])cc(C)n1C(=O)N1CCN(C2CCCC2)CC1=O (3D coordinates assigned)
C=c1c(=Cc2[n-]c(=O)[n-]c2[O-])cc(C)n1C(=O)N1CCN(C2CCCC2)CC1=O (nonaromatic ring conformer: 141.959955127649 kcal/mol)

> <smiles>
C=c1c(=Cc2[nH]c(=O)[nH]c2O)cc(C)n1C(=O)N1CCN(C2CCCC2)CC1=O

> <score_type>
oracle

> <origin>
adg

> <m_score__min__energy>
-16.559999999999999

> <m_primary>
energy

> <minimizedAffinity>
-9.25341

> <minimizedRMSD>
0.78655

> <CNNscore>
0.2122208774

> <CNNaffinity>
6.6419119835

> <CNN_VS>
1.4095523357

> <CNNaffinity_variance>
0.0864518881

$$$$
13:0


 36 40  0  0  0  0  0  0  0  0999 V2000
   58.3626   27.6843   47.6342 O   0  0  0  0  0  0  0  0  0  0  0  0
   58.2406   27.9619   46.4109 C   0  0  0  0  0  0  0  0  0  0  0  0
   58.0202   29.3538   45.9915 C   0  0  0  0  0  0  0  0  0  0  0  0
   58.7304   30.4699   46.3880 C   0  0  0  0  0  0  0  0  0  0  0  0
   58.1974   31.5464   45.7750 N   0  0  0  0  0  0  0  0  0  0  0  0
   57.1720   31.1852   45.0172 N   0  0  0  0  0  0  0  0  0  0  0  0
   57.0579   29.8511   45.1347 C   0  0  0  0  0  0  0  0  0  0  0  0
   56.1800   29.1730   44.5400 O   0  0  0  0  0  0  0  0  0  0  0  0
   58.6131   32.9323   45.9691 C   0  0  0  0  0  0  0  0  0  0  0  0
   59.7604   32.9898   46.9400 C   0  0  0  0  0  0  0  0  0  0  0  0
   59.5315   32.8372   48.3145 C   0  0  0  0  0  0  0  0  0  0  0  0
   60.5903   32.9271   49.2227 C   0  0  0  0  0  0  0  0  0  0  0  0
   61.9002   33.1820   48.7711 C   0  0  0  0  0  0  0  0  0  0  0  0
   62.1179   33.3560   47.3917 C   0  0  0  0  0  0  0  0  0  0  0  0
   61.0569   33.2656   46.4865 C   0  0  0  0  0  0  0  0  0  0  0  0
   63.0063   33.2818   49.6927 N   0  0  0  0  0  0  0  0  0  0  0  0
   63.0007   33.8466   50.9183 C   0  0  0  0  0  0  0  0  0  0  0  0
   64.2574   33.7173   51.4678 C   0  0  0  0  0  0  0  0  0  0  0  0
   64.9932   33.0499   50.5103 C   0  0  0  0  0  0  0  0  0  0  0  0
   64.2128   32.7937   49.4436 N   0  0  0  0  0  0  0  0  0  0  0  0
   58.3651   26.9344   45.4205 N   0  0  0  0  0  0  0  0  0  0  0  0
   57.8809   25.5911   45.5509 C   0  0  0  0  0  0  0  0  0  0  0  0
   58.7797   24.5363   45.3587 C   0  0  0  0  0  0  0  0  0  0  0  0
   58.3566   23.2141   45.4903 C   0  0  0  0  0  0  0  0  0  0  0  0
   57.0215   22.9324   45.7844 C   0  0  0  0  0  0  0  0  0  0  0  0
   56.0910   23.9721   45.9234 C   0  0  0  0  0  0  0  0  0  0  0  0
   56.5237   25.3101   45.8135 C   0  0  0  0  0  0  0  0  0  0  0  0
   55.6080   26.3476   45.9564 O   0  0  0  0  0  0  0  0  0  0  0  0
   54.6760   23.6472   46.1967 C   0  0  0  0  0  0  0  0  0  0  0  0
   53.7763   24.2705   45.5706 O   0  0  0  0  0  0  0  0  0  0  0  0
   54.3064   22.6579   47.1798 N   0  0  0  0  0  0  0  0  0  0  0  0
   53.1379   21.7993   46.9617 C   0  0  0  0  0  0  0  0  0  0  0  0
   52.4437   21.5213   48.2977 C   0  0  0  0  0  0  0  0  0  0  0  0
   53.3672   21.0375   49.2552 O   0  0  0  0  0  0  0  0  0  0  0  0
   54.3193   22.0406   49.5512 C   0  0  0  0  0  0  0  0  0  0  0  0
   55.1759   22.3577   48.3227 C   0  0  0  0  0  0  0  0  0  0  0  0
  1  2  2  0
  2 21  1  0
 21 22  1  0
 22 23  2  0
 23 24  1  0
 24 25  2  0
 25 26  1  0
 26 29  1  0
 29 30  2  0
 29 31  1  0
 31 32  1  0
 32 33  1  0
 33 34  1  0
 34 35  1  0
 35 36  1  0
 26 27  2  0
 27 28  1  0
  2  3  1  0
  3  4  2  0
  4  5  1  0
  5  9  1  0
  9 10  1  0
 10 11  2  0
 11 12  1  0
 12 13  2  0
 13 16  1  0
 16 17  1  0
 17 18  2  0
 18 19  1  0
 19 20  2  0
 13 14  1  0
 14 15  2  0
  5  6  1  0
  6  7  1  0
  7  8  2  0
 27 22  1  0
  7  3  1  0
 36 31  1  0
 15 10  1  0
 20 16  1  0
M  CHG 1   6  -1
M  CHG 1  21  -1
M  CHG 1  28  -1
M  END
> <UniqueID>
13

> <SMILES>
O=C([N-]c1cccc(C(=O)N2CCOCC2)c1[O-])c1cn(Cc2ccc(-n3cccn3)cc2)[n-]c1=O

> <Energy>
138.1183151446303

> <Genealogy>
O=C([N-]c1cccc(C(=O)N2CCOCC2)c1[O-])c1cn(Cc2ccc(-n3cccn3)cc2)[n-]c1=O (protonated)
O=C([N-]c1cccc(C(=O)N2CCOCC2)c1[O-])c1cn(Cc2ccc(-n3cccn3)cc2)[n-]c1=O (3D coordinates assigned)
O=C([N-]c1cccc(C(=O)N2CCOCC2)c1[O-])c1cn(Cc2ccc(-n3cccn3)cc2)[n-]c1=O (nonaromatic ring conformer: 138.1183151446303 kcal/mol)

> <smiles>
O=C(Nc1cccc(C(=O)N2CCOCC2)c1O)c1cn(Cc2ccc(-n3cccn3)cc2)[nH]c1=O

> <score_type>
oracle

> <origin>
adg

> <m_score__min__energy>
-17.440000000000001

> <m_primary>
energy

> <minimizedAffinity>
-8.31072

> <minimizedRMSD>
0.99204

> <CNNscore>
0.2961593270

> <CNNaffinity>
7.0779442787

> <CNN_VS>
2.0961992741

> <CNNaffinity_variance>
0.1650929004

$$$$
14:0


 28 30  0  0  0  0  0  0  0  0999 V2000
   59.3392   28.4573   47.6782 C   0  0  0  0  0  0  0  0  0  0  0  0
   58.6973   28.9129   46.5928 C   0  0  0  0  0  0  0  0  0  0  0  0
   58.2353   28.1795   45.4899 C   0  0  0  0  0  0  0  0  0  0  0  0
   58.4837   26.9079   45.1264 C   0  0  0  0  0  0  0  0  0  0  0  0
   57.4694   28.9821   44.7183 N   0  0  0  0  0  0  0  0  0  0  0  0
   57.5199   30.1823   45.3268 C   0  0  0  0  0  0  0  0  0  0  0  0
   56.9411   31.2023   44.8652 O   0  0  0  0  0  0  0  0  0  0  0  0
   58.2530   30.1861   46.4605 N   0  0  0  0  0  0  0  0  0  0  0  0
   57.8484   25.7084   45.7012 C   0  0  0  0  0  0  0  0  0  0  0  0
   58.4341   24.4989   45.7943 N   0  0  0  0  0  0  0  0  0  0  0  0
   57.4315   23.6934   46.2053 C   0  0  0  0  0  0  0  0  0  0  0  0
   57.5922   22.4627   46.4043 O   0  0  0  0  0  0  0  0  0  0  0  0
   56.2372   24.3066   46.3533 N   0  0  0  0  0  0  0  0  0  0  0  0
   56.5172   25.5786   46.0163 C   0  0  0  0  0  0  0  0  0  0  0  0
   55.5708   26.5984   45.9774 O   0  0  0  0  0  0  0  0  0  0  0  0
   54.6806   26.4205   46.2097 H   0  0  0  0  0  0  0  0  0  0  0  0
   58.5382   31.3483   47.3132 C   0  0  0  0  0  0  0  0  0  0  0  0
   59.6081   32.1942   46.6754 C   0  0  0  0  0  0  0  0  0  0  0  0
   59.2827   32.9295   45.7022 O   0  0  0  0  0  0  0  0  0  0  0  0
   60.9854   32.1516   47.1108 N   0  0  0  0  0  0  0  0  0  0  0  0
   61.6378   30.8713   47.4092 C   0  0  0  0  0  0  0  0  0  0  0  0
   61.7305   33.4083   47.2862 C   0  0  0  0  0  0  0  0  0  0  0  0
   62.4953   33.4032   48.5859 C   0  0  0  0  0  0  0  0  0  0  0  0
   61.8544   33.7326   49.7930 C   0  0  0  0  0  0  0  0  0  0  0  0
   62.5721   33.7308   50.9942 C   0  0  0  0  0  0  0  0  0  0  0  0
   63.9318   33.4021   51.0018 C   0  0  0  0  0  0  0  0  0  0  0  0
   64.5731   33.0721   49.8067 C   0  0  0  0  0  0  0  0  0  0  0  0
   63.8608   33.0719   48.6024 C   0  0  0  0  0  0  0  0  0  0  0  0
  1  2  2  0
  2  3  1  0
  3  4  2  0
  4  9  1  0
  9 10  1  0
 10 11  1  0
 11 12  2  0
 11 13  1  0
 13 14  1  0
 14 15  1  0
  3  5  1  0
  5  6  1  0
  6  7  2  0
  6  8  1  0
  8 17  1  0
 17 18  1  0
 18 19  2  0
 18 20  1  0
 20 21  1  0
 20 22  1  0
 22 23  1  0
 23 24  2  0
 24 25  1  0
 25 26  2  0
 26 27  1  0
 27 28  2  0
  8  2  1  0
 28 23  1  0
 14  9  2  0
 15 16  1  0
M  CHG 1   5  -1
M  CHG 1  10  -1
M  CHG 1  13  -1
M  END
> <UniqueID>
14

> <SMILES>
C=c1c(=Cc2[n-]c(=O)[n-]c2O)[n-]c(=O)n1CC(=O)N(C)Cc1ccccc1

> <Energy>
116.25155712039768

> <Genealogy>
C=c1c(=Cc2[n-]c(=O)[n-]c2O)[n-]c(=O)n1CC(=O)N(C)Cc1ccccc1 (protonated)
C=c1c(=Cc2[n-]c(=O)[n-]c2O)[n-]c(=O)n1CC(=O)N(C)Cc1ccccc1 (3D coordinates assigned)
C=c1c(=Cc2[n-]c(=O)[n-]c2O)[n-]c(=O)n1CC(=O)N(C)Cc1ccccc1 (optimized conformer: 116.25155712039768 kcal/mol)

> <smiles>
C=c1c(=Cc2[nH]c(=O)[nH]c2O)[nH]c(=O)n1CC(=O)N(C)Cc1ccccc1

> <score_type>
oracle

> <origin>
adg

> <m_score__min__energy>
-15.050000000000001

> <m_primary>
energy

> <minimizedAffinity>
-8.30031

> <minimizedRMSD>
0.82962

> <CNNscore>
0.4720074534

> <CNNaffinity>
6.9662804604

> <CNN_VS>
3.2881362438

> <CNNaffinity_variance>
0.7494605184

$$$$
19:0


 18 19  0  0  0  0  0  0  0  0999 V2000
   57.2314   30.8516   44.5637 C   0  0  0  0  0  0  0  0  0  0  0  0
   57.4927   30.9737   43.3382 O   0  0  0  0  0  0  0  0  0  0  0  0
   56.8684   29.5753   45.1158 N   0  0  0  0  0  0  0  0  0  0  0  0
   57.6794   28.6997   45.6334 C   0  0  0  0  0  0  0  0  0  0  0  0
   57.7895   27.4489   45.1336 N   0  0  0  0  0  0  0  0  0  0  0  0
   58.7006   26.8841   45.9416 C   0  0  0  0  0  0  0  0  0  0  0  0
   59.1338   25.5690   45.8191 O   0  0  0  0  0  0  0  0  0  0  0  0
   59.1228   27.7850   46.8859 C   0  0  0  0  0  0  0  0  0  0  0  0
   60.0826   27.5253   47.9991 C   0  0  0  0  0  0  0  0  0  0  0  0
   58.4667   28.9449   46.7076 N   0  0  0  0  0  0  0  0  0  0  0  0
   57.2386   32.0213   45.3889 N   0  0  0  0  0  0  0  0  0  0  0  0
   59.6791   34.7468   46.2459 C   0  0  0  0  0  0  0  0  0  0  0  0
   60.6732   34.0064   46.8899 C   0  0  0  0  0  0  0  0  0  0  0  0
   60.5268   32.6251   47.0438 C   0  0  0  0  0  0  0  0  0  0  0  0
   61.8761   31.6162   47.9413 Br  0  0  0  0  0  0  0  0  0  0  0  0
   59.3895   31.9819   46.5416 C   0  0  0  0  0  0  0  0  0  0  0  0
   58.4001   32.7127   45.8688 C   0  0  0  0  0  0  0  0  0  0  0  0
   58.5418   34.1078   45.7419 C   0  0  0  0  0  0  0  0  0  0  0  0
 12 13  2  0
 13 14  1  0
 14 15  1  0
 14 16  2  0
 16 17  1  0
 17 11  1  0
 11  1  1  0
  1  2  2  0
  1  3  1  0
  3  4  2  0
  4  5  1  0
  5  6  1  0
  6  7  1  0
  6  8  2  0
  8  9  1  0
  8 10  1  0
 17 18  2  0
 18 12  1  0
 10  4  1  0
M  CHG 1   5  -1
M  CHG 1   7  -1
M  CHG 1  10  -1
M  CHG 1  11  -1
M  END
> <UniqueID>
19

> <SMILES>
Cc1[n-]/c(=N\C(=O)[N-]c2cccc(Br)c2)[n-]c1[O-]

> <Energy>
58.50875443828288

> <Genealogy>
Cc1[n-]c(=NC(=O)[N-]c2cccc(Br)c2)[n-]c1[O-] (protonated)
Cc1[n-]/c(=N\C(=O)[N-]c2cccc(Br)c2)[n-]c1[O-] (cis-trans isomerization)
Cc1[n-]/c(=N\C(=O)[N-]c2cccc(Br)c2)[n-]c1[O-] (3D coordinates assigned)
Cc1[n-]/c(=N\C(=O)[N-]c2cccc(Br)c2)[n-]c1[O-] (optimized conformer: 58.50875443828288 kcal/mol)

> <smiles>
Cc1[nH]c(=NC(=O)Nc2cccc(Br)c2)[nH]c1O

> <score_type>
oracle

> <origin>
adg

> <m_score__min__energy>
-14.18

> <m_primary>
energy

> <minimizedAffinity>
-7.34496

> <minimizedRMSD>
2.07334

> <CNNscore>
0.8544912338

> <CNNaffinity>
6.3630909920

> <CNN_VS>
5.4372053146

> <CNNaffinity_variance>
0.2337670773

$$$$
42:0


 32 35  0  0  0  0  0  0  0  0999 V2000
   58.6842   26.9871   46.3518 C   0  0  0  0  0  0  0  0  0  0  0  0
   58.2127   28.1119   45.7797 C   0  0  0  0  0  0  0  0  0  0  0  0
   57.0509   28.2214   45.0242 C   0  0  0  0  0  0  0  0  0  0  0  0
   56.9777   29.5339   44.6021 C   0  0  0  0  0  0  0  0  0  0  0  0
   55.8778   30.1017   43.7571 C   0  0  0  0  0  0  0  0  0  0  0  0
   58.0346   30.2375   45.0629 N   0  0  0  0  0  0  0  0  0  0  0  0
   58.2853   31.6303   44.8138 C   0  0  0  0  0  0  0  0  0  0  0  0
   58.1170   32.0872   43.6504 O   0  0  0  0  0  0  0  0  0  0  0  0
   58.7076   32.5041   45.8787 N   0  0  0  0  0  0  0  0  0  0  0  0
   58.2647   32.2180   47.2504 C   0  0  0  0  0  0  0  0  0  0  0  0
   58.8408   33.2270   48.2386 C   0  0  0  0  0  0  0  0  0  0  0  0
   60.2467   33.4781   47.8823 N   0  0  0  0  0  0  0  0  0  0  0  0
   60.3313   34.2609   46.6304 C   0  0  0  0  0  0  0  0  0  0  0  0
   59.3214   33.8003   45.5529 C   0  0  0  0  0  0  0  0  0  0  0  0
   58.8071   29.3765   45.7739 C   0  0  0  0  0  0  0  0  0  0  0  0
   59.9723   29.7144   46.3501 C   0  0  0  0  0  0  0  0  0  0  0  0
   55.7043   26.0761   46.2305 O   0  0  0  0  0  0  0  0  0  0  0  0
   56.8165   25.2653   46.0197 C   0  0  0  0  0  0  0  0  0  0  0  0
   56.7279   23.9469   45.7755 N   0  0  0  0  0  0  0  0  0  0  0  0
   58.0214   23.5668   45.7137 C   0  0  0  0  0  0  0  0  0  0  0  0
   58.3682   22.3749   45.5009 O   0  0  0  0  0  0  0  0  0  0  0  0
   58.9159   24.5602   45.9039 N   0  0  0  0  0  0  0  0  0  0  0  0
   58.1423   25.6456   46.0778 C   0  0  0  0  0  0  0  0  0  0  0  0
   54.8422   25.7147   46.1665 H   0  0  0  0  0  0  0  0  0  0  0  0
   60.9636   34.1700   48.9730 C   0  0  0  0  0  0  0  0  0  0  0  0
   61.8990   33.2128   49.6792 C   0  0  0  0  0  0  0  0  0  0  0  0
   61.4959   32.6957   50.9246 C   0  0  0  0  0  0  0  0  0  0  0  0
   62.3192   31.8209   51.6345 C   0  0  0  0  0  0  0  0  0  0  0  0
   63.5548   31.4459   51.1104 C   0  0  0  0  0  0  0  0  0  0  0  0
   63.9721   31.9433   49.8753 C   0  0  0  0  0  0  0  0  0  0  0  0
   63.1592   32.8297   49.1464 C   0  0  0  0  0  0  0  0  0  0  0  0
   63.6472   33.3387   47.8159 C   0  0  0  0  0  0  0  0  0  0  0  0
 17 18  1  0
 18 19  1  0
 19 20  1  0
 20 21  2  0
 20 22  1  0
 22 23  1  0
 23  1  1  0
  1  2  2  0
  2  3  1  0
  3  4  2  0
  4  5  1  0
  4  6  1  0
  6  7  1  0
  7  8  2  0
  7  9  1  0
  9 10  1  0
 10 11  1  0
 11 12  1  0
 12 25  1  0
 25 26  1  0
 26 27  2  0
 27 28  1  0
 28 29  2  0
 29 30  1  0
 30 31  2  0
 31 32  1  0
 12 13  1  0
 13 14  1  0
  6 15  1  0
 15 16  2  0
 23 18  2  0
 15  2  1  0
 14  9  1  0
 31 26  1  0
 17 24  1  0
M  CHG 1  19  -1
M  CHG 1  22  -1
M  END
> <UniqueID>
38

> <SMILES>
C=c1/c(=C/c2[n-]c(=O)[n-]c2O)cc(C)n1C(=O)N1CCN(Cc2ccccc2C)CC1

> <Energy>
134.97387701721468

> <Genealogy>
C=c1c(=Cc2[n-]c(=O)[n-]c2O)cc(C)n1C(=O)N1CCN(Cc2ccccc2C)CC1 (protonated)
C=c1/c(=C/c2[n-]c(=O)[n-]c2O)cc(C)n1C(=O)N1CCN(Cc2ccccc2C)CC1 (cis-trans isomerization)
C=c1/c(=C/c2[n-]c(=O)[n-]c2O)cc(C)n1C(=O)N1CCN(Cc2ccccc2C)CC1 (3D coordinates assigned)
C=c1/c(=C/c2[n-]c(=O)[n-]c2O)cc(C)n1C(=O)N1CCN(Cc2ccccc2C)CC1 (nonaromatic ring conformer: 134.97387701721468 kcal/mol)

> <smiles>
C=c1c(=Cc2[nH]c(=O)[nH]c2O)cc(C)n1C(=O)N1CCN(Cc2ccccc2C)CC1

> <score_type>
oracle

> <origin>
adg

> <m_score__min__energy>
-14.69

> <m_primary>
energy

> <minimizedAffinity>
-9.65005

> <minimizedRMSD>
0.98566

> <CNNscore>
0.3576709032

> <CNNaffinity>
6.6266417503

> <CNN_VS>
2.3701570034

> <CNNaffinity_variance>
0.0715878233

$$$$
44:0


 30 32  0  0  0  0  0  0  0  0999 V2000
   59.7489   28.8319   47.8500 C   0  0  0  0  0  0  0  0  0  0  0  0
   60.5418   29.4458   46.8689 C   0  0  0  0  0  0  0  0  0  0  0  0
   60.8091   30.8168   46.9329 C   0  0  0  0  0  0  0  0  0  0  0  0
   60.2906   31.5887   47.9808 C   0  0  0  0  0  0  0  0  0  0  0  0
   59.4929   30.9787   48.9614 C   0  0  0  0  0  0  0  0  0  0  0  0
   59.2257   29.6086   48.8973 C   0  0  0  0  0  0  0  0  0  0  0  0
   60.6281   33.3165   48.0409 S   0  0  0  0  0  0  0  0  0  0  0  0
   61.7330   33.6177   47.0683 O   0  0  0  0  0  0  0  0  0  0  0  0
   61.0814   33.7053   49.4220 O   0  0  0  0  0  0  0  0  0  0  0  0
   59.1913   34.2131   47.5998 N   0  0  0  0  0  0  0  0  0  0  0  0
   59.4584   35.0944   46.4598 C   0  0  0  0  0  0  0  0  0  0  0  0
   59.0898   34.3461   45.1874 C   0  0  0  0  0  0  0  0  0  0  0  0
   58.1799   33.2142   45.6333 C   0  0  0  0  0  0  0  0  0  0  0  0
   58.7002   31.9935   45.2389 F   0  0  0  0  0  0  0  0  0  0  0  0
   56.9129   33.3658   45.0961 F   0  0  0  0  0  0  0  0  0  0  0  0
   58.1289   33.3014   47.1563 C   0  0  0  0  0  0  0  0  0  0  0  0
   59.4737   27.3536   47.8006 C   0  0  0  0  0  0  0  0  0  0  0  0
   59.2291   26.9300   46.4268 N   0  0  0  0  0  0  0  0  0  0  0  0
   57.9300   26.9007   45.8238 C   0  0  0  0  0  0  0  0  0  0  0  0
   57.4245   27.9543   45.3511 O   0  0  0  0  0  0  0  0  0  0  0  0
   56.6226   23.5531   45.3028 C   0  0  0  0  0  0  0  0  0  0  0  0
   57.6441   24.4707   45.1686 C   0  0  0  0  0  0  0  0  0  0  0  0
   57.1822   25.6390   45.7516 C   0  0  0  0  0  0  0  0  0  0  0  0
   55.9315   25.4884   46.2356 N   0  0  0  0  0  0  0  0  0  0  0  0
   55.6001   24.2135   45.9562 C   0  0  0  0  0  0  0  0  0  0  0  0
   54.3730   23.6587   46.2952 O   0  0  0  0  0  0  0  0  0  0  0  0
   57.8523   21.5508   44.4085 N   0  0  0  0  0  0  0  0  0  0  0  0
   56.6332   22.1615   44.8233 C   0  0  0  0  0  0  0  0  0  0  0  0
   55.5605   21.5011   44.7840 O   0  0  0  0  0  0  0  0  0  0  0  0
   57.8526   20.6197   44.0888 H   0  0  0  0  0  0  0  0  0  0  0  0
 27 28  1  0
 28 29  2  0
 28 21  1  0
 21 22  1  0
 22 23  2  0
 23 19  1  0
 19 20  2  0
 19 18  1  0
 18 17  1  0
 17  1  1  0
  1  2  2  0
  2  3  1  0
  3  4  2  0
  4  7  1  0
  7  8  2  0
  7  9  2  0
  7 10  1  0
 10 11  1  0
 11 12  1  0
 12 13  1  0
 13 14  1  0
 13 15  1  0
 13 16  1  0
  4  5  1  0
  5  6  2  0
 23 24  1  0
 24 25  1  0
 25 26  1  0
 25 21  2  0
  6  1  1  0
 16 10  1  0
 27 30  1  0
M  CHG 1  18  -1
M  CHG 1  24  -1
M  CHG 1  26  -1
M  CHG 1  27  -1
M  END
> <UniqueID>
40

> <SMILES>
[NH-]C(=O)c1cc(C(=O)[N-]Cc2ccc(S(=O)(=O)N3CCC(F)(F)C3)cc2)[n-]c1[O-]

> <Energy>
67.72844703879005

> <Genealogy>
[NH-]C(=O)c1cc(C(=O)[N-]Cc2ccc(S(=O)(=O)N3CCC(F)(F)C3)cc2)[n-]c1[O-] (protonated)
[NH-]C(=O)c1cc(C(=O)[N-]Cc2ccc(S(=O)(=O)N3CCC(F)(F)C3)cc2)[n-]c1[O-] (3D coordinates assigned)
[NH-]C(=O)c1cc(C(=O)[N-]Cc2ccc(S(=O)(=O)N3CCC(F)(F)C3)cc2)[n-]c1[O-] (nonaromatic ring conformer: 67.72844703879005 kcal/mol)

> <smiles>
NC(=O)c1cc(C(=O)NCc2ccc(S(=O)(=O)N3CCC(F)(F)C3)cc2)[nH]c1O

> <score_type>
oracle

> <origin>
adg

> <m_score__min__energy>
-19.010000000000002

> <m_primary>
energy

> <minimizedAffinity>
-8.51175

> <minimizedRMSD>
1.67547

> <CNNscore>
0.2799082994

> <CNNaffinity>
6.5466442108

> <CNN_VS>
1.8324600458

> <CNNaffinity_variance>
0.0115998676

$$$$
50:0


 24 26  0  0  0  0  0  0  0  0999 V2000
   56.4575   29.4528   44.3538 C   0  0  0  0  0  0  0  0  0  0  0  0
   57.5265   29.3927   45.1580 C   0  0  0  0  0  0  0  0  0  0  0  0
   57.8724   30.5418   45.8008 N   0  0  0  0  0  0  0  0  0  0  0  0
   58.7912   30.5828   46.7974 C   0  0  0  0  0  0  0  0  0  0  0  0
   59.3808   29.4018   47.2547 C   0  0  0  0  0  0  0  0  0  0  0  0
   59.0878   28.2055   46.5886 C   0  0  0  0  0  0  0  0  0  0  0  0
   58.2176   28.1806   45.4782 C   0  0  0  0  0  0  0  0  0  0  0  0
   58.1311   27.0162   44.7874 C   0  0  0  0  0  0  0  0  0  0  0  0
   60.3495   29.4314   48.3736 C   0  0  0  0  0  0  0  0  0  0  0  0
   60.5456   28.3838   49.0493 O   0  0  0  0  0  0  0  0  0  0  0  0
   61.0755   30.6287   48.7018 N   0  0  0  0  0  0  0  0  0  0  0  0
   61.2405   31.0160   50.1117 C   0  0  0  0  0  0  0  0  0  0  0  0
   62.7268   31.1833   50.4446 C   0  0  0  0  0  0  0  0  0  0  0  0
   63.4154   32.0291   49.4082 C   0  0  0  0  0  0  0  0  0  0  0  0
   64.5798   32.3594   49.5703 O   0  0  0  0  0  0  0  0  0  0  0  0
   62.6637   32.4918   48.1897 C   0  0  0  0  0  0  0  0  0  0  0  0
   61.7905   31.3556   47.6372 C   0  0  0  0  0  0  0  0  0  0  0  0
   57.6681   25.7208   45.3210 C   0  0  0  0  0  0  0  0  0  0  0  0
   58.4138   24.6027   45.3864 N   0  0  0  0  0  0  0  0  0  0  0  0
   57.6178   23.7344   46.0477 C   0  0  0  0  0  0  0  0  0  0  0  0
   57.9652   22.5519   46.2984 O   0  0  0  0  0  0  0  0  0  0  0  0
   56.4223   24.2375   46.4266 N   0  0  0  0  0  0  0  0  0  0  0  0
   56.4765   25.4987   45.9695 C   0  0  0  0  0  0  0  0  0  0  0  0
   55.4603   26.4277   46.1455 O   0  0  0  0  0  0  0  0  0  0  0  0
  1  2  2  0
  2  3  1  0
  3  4  2  0
  4  5  1  0
  5  9  1  0
  9 10  2  0
  9 11  1  0
 11 12  1  0
 12 13  1  0
 13 14  1  0
 14 15  2  0
 14 16  1  0
 16 17  1  0
  5  6  2  0
  6  7  1  0
  7  8  2  0
  8 18  1  0
 18 19  1  0
 19 20  1  0
 20 21  2  0
 20 22  1  0
 22 23  1  0
 23 24  1  0
  7  2  1  0
 23 18  2  0
 17 11  1  0
M  CHG 1  19  -1
M  CHG 1  22  -1
M  CHG 1  24  -1
M  END
> <UniqueID>
45

> <SMILES>
C=c1ncc(C(=O)N2CCC(=O)CC2)cc1=Cc1[n-]c(=O)[n-]c1[O-]

> <Energy>
91.87649341595397

> <Genealogy>
C=c1ncc(C(=O)N2CCC(=O)CC2)cc1=Cc1[n-]c(=O)[n-]c1[O-] (protonated)
C=c1ncc(C(=O)N2CCC(=O)CC2)cc1=Cc1[n-]c(=O)[n-]c1[O-] (3D coordinates assigned)
C=c1ncc(C(=O)N2CCC(=O)CC2)cc1=Cc1[n-]c(=O)[n-]c1[O-] (nonaromatic ring conformer: 91.87649341595397 kcal/mol)

> <smiles>
C=c1ncc(C(=O)N2CCC(=O)CC2)cc1=Cc1[nH]c(=O)[nH]c1O

> <score_type>
oracle

> <origin>
adg

> <m_score__min__energy>
-16.719999999999999

> <m_primary>
energy

> <minimizedAffinity>
-7.94048

> <minimizedRMSD>
1.10814

> <CNNscore>
0.0980895311

> <CNNaffinity>
5.5383219719

> <CNN_VS>
0.5432513952

> <CNNaffinity_variance>
0.2698948681

$$$$
73:0


 31 35  0  0  0  0  0  0  0  0999 V2000
   57.8085   29.5034   52.7134 C   0  0  0  0  0  0  0  0  0  0  0  0
   58.8317   28.9220   53.4754 C   0  0  0  0  0  0  0  0  0  0  0  0
   60.1645   29.0819   53.0975 C   0  0  0  0  0  0  0  0  0  0  0  0
   60.4872   29.8211   51.9567 C   0  0  0  0  0  0  0  0  0  0  0  0
   59.4761   30.4134   51.1788 C   0  0  0  0  0  0  0  0  0  0  0  0
   58.1341   30.2435   51.5669 C   0  0  0  0  0  0  0  0  0  0  0  0
   55.4822   31.2405   52.0472 C   0  0  0  0  0  0  0  0  0  0  0  0
   55.3834   30.1269   52.7920 C   0  0  0  0  0  0  0  0  0  0  0  0
   54.2140   29.6042   53.3512 C   0  0  0  0  0  0  0  0  0  0  0  0
   52.9647   30.0948   53.2408 C   0  0  0  0  0  0  0  0  0  0  0  0
   54.5819   28.4291   53.9962 C   0  0  0  0  0  0  0  0  0  0  0  0
   55.9455   28.2957   53.8256 C   0  0  0  0  0  0  0  0  0  0  0  0
   56.7566   27.1448   54.3401 C   0  0  0  0  0  0  0  0  0  0  0  0
   56.4324   29.3209   53.0912 N   0  0  0  0  0  0  0  0  0  0  0  0
   52.2925   30.3587   51.9564 C   0  0  0  0  0  0  0  0  0  0  0  0
   52.3959   29.5478   50.8883 N   0  0  0  0  0  0  0  0  0  0  0  0
   51.7099   30.2028   49.9273 C   0  0  0  0  0  0  0  0  0  0  0  0
   51.5663   29.7451   48.7649 O   0  0  0  0  0  0  0  0  0  0  0  0
   51.1990   31.3942   50.3081 N   0  0  0  0  0  0  0  0  0  0  0  0
   51.5862   31.4843   51.5903 C   0  0  0  0  0  0  0  0  0  0  0  0
   51.3405   32.5938   52.3894 O   0  0  0  0  0  0  0  0  0  0  0  0
   59.8104   31.1717   49.9958 N   0  0  0  0  0  0  0  0  0  0  0  0
   59.0201   32.3481   49.6106 C   0  0  0  0  0  0  0  0  0  0  0  0
   59.9180   33.3950   48.9315 C   0  0  0  0  0  0  0  0  0  0  0  0
   60.7957   32.8424   47.8554 N   0  0  0  0  0  0  0  0  0  0  0  0
   60.7342   31.3649   47.7144 C   0  0  0  0  0  0  0  0  0  0  0  0
   60.8460   30.6782   49.0796 C   0  0  0  0  0  0  0  0  0  0  0  0
   61.7653   32.9704   48.1451 H   0  0  0  0  0  0  0  0  0  0  0  0
   60.6458   33.6305   46.5987 C   0  0  0  0  0  0  0  0  0  0  0  0
   59.3388   33.5691   45.8032 C   0  0  0  0  0  0  0  0  0  0  0  0
   59.6495   34.7852   46.6649 C   0  0  0  0  0  0  0  0  0  0  0  0
  7  8  2  0
  8  9  1  0
  9 10  2  0
 10 15  1  0
 15 16  1  0
 16 17  1  0
 17 18  2  0
 17 19  1  0
 19 20  1  0
 20 21  1  0
  9 11  1  0
 11 12  2  0
 12 13  1  0
 12 14  1  0
 14  1  1  0
  1  2  2  0
  2  3  1  0
  3  4  2  0
  4  5  1  0
  5 22  1  0
 22 23  1  0
 23 24  1  0
 24 25  1  0
 25 29  1  0
 29 30  1  0
 30 31  1  0
 25 26  1  0
 26 27  1  0
  5  6  2  0
 14  8  1  0
  6  1  1  0
 20 15  2  0
 27 22  1  0
 31 29  1  0
 25 28  1  0
M  CHG 1  16  -1
M  CHG 1  19  -1
M  CHG 1  21  -1
M  CHG 1  25   1
M  END
> <UniqueID>
67

> <SMILES>
C=c1/c(=C/c2[n-]c(=O)[n-]c2[O-])cc(C)n1-c1cccc(N2CC[NH+](C3CC3)CC2)c1

> <Energy>
414.5472011191173

> <Genealogy>
C=c1c(=Cc2[n-]c(=O)[n-]c2[O-])cc(C)n1-c1cccc(N2CC[NH+](C3CC3)CC2)c1 (protonated)
C=c1/c(=C/c2[n-]c(=O)[n-]c2[O-])cc(C)n1-c1cccc(N2CC[NH+](C3CC3)CC2)c1 (cis-trans isomerization)
C=c1/c(=C/c2[n-]c(=O)[n-]c2[O-])cc(C)n1-c1cccc(N2CC[NH+](C3CC3)CC2)c1 (3D coordinates assigned)
C=c1/c(=C/c2[n-]c(=O)[n-]c2[O-])cc(C)n1-c1cccc(N2CC[NH+](C3CC3)CC2)c1 (nonaromatic ring conformer: 414.5472011191173 kcal/mol)

> <smiles>
C=c1c(=Cc2[nH]c(=O)[nH]c2O)cc(C)n1-c1cccc(N2CCN(C3CC3)CC2)c1

> <score_type>
oracle

> <origin>
adg

> <m_score__min__energy>
-15.800000000000001

> <m_primary>
energy

> <minimizedAffinity>
-6.63676

> <minimizedRMSD>
1.11375

> <CNNscore>
0.0542647466

> <CNNaffinity>
5.5041089058

> <CNN_VS>
0.2986790836

> <CNNaffinity_variance>
0.1699706763

$$$$
79:0


 31 34  0  0  0  0  0  0  0  0999 V2000
   57.8854   30.0839   44.9434 C   0  0  0  0  0  0  0  0  0  0  0  0
   58.5553   31.0329   45.6254 C   0  0  0  0  0  0  0  0  0  0  0  0
   58.1683   32.3633   45.6268 C   0  0  0  0  0  0  0  0  0  0  0  0
   59.1062   33.0545   46.3629 C   0  0  0  0  0  0  0  0  0  0  0  0
   59.0991   34.5398   46.5667 C   0  0  0  0  0  0  0  0  0  0  0  0
   60.0534   32.2114   46.8290 N   0  0  0  0  0  0  0  0  0  0  0  0
   59.7185   30.9621   46.4125 C   0  0  0  0  0  0  0  0  0  0  0  0
   60.3893   29.8584   46.7795 C   0  0  0  0  0  0  0  0  0  0  0  0
   59.9959   27.8505   44.5165 O   0  0  0  0  0  0  0  0  0  0  0  0
   58.7332   27.6801   45.0781 C   0  0  0  0  0  0  0  0  0  0  0  0
   58.2479   26.4860   45.4548 N   0  0  0  0  0  0  0  0  0  0  0  0
   57.0040   26.7884   45.8844 C   0  0  0  0  0  0  0  0  0  0  0  0
   56.2082   25.9183   46.3211 O   0  0  0  0  0  0  0  0  0  0  0  0
   56.6771   28.0965   45.7965 N   0  0  0  0  0  0  0  0  0  0  0  0
   57.7937   28.6639   45.3083 C   0  0  0  0  0  0  0  0  0  0  0  0
   60.5615   27.1121   44.4026 H   0  0  0  0  0  0  0  0  0  0  0  0
   61.1645   32.5859   47.6632 C   0  0  0  0  0  0  0  0  0  0  0  0
   62.2975   33.1909   47.1037 C   0  0  0  0  0  0  0  0  0  0  0  0
   63.3727   33.5550   47.9177 C   0  0  0  0  0  0  0  0  0  0  0  0
   63.3299   33.3013   49.2905 C   0  0  0  0  0  0  0  0  0  0  0  0
   62.2142   32.6686   49.8601 C   0  0  0  0  0  0  0  0  0  0  0  0
   61.1253   32.3270   49.0424 C   0  0  0  0  0  0  0  0  0  0  0  0
   62.1753   32.4095   51.3133 C   0  0  0  0  0  0  0  0  0  0  0  0
   62.5754   33.3075   52.1021 O   0  0  0  0  0  0  0  0  0  0  0  0
   61.7127   31.1548   51.8430 N   0  0  0  0  0  0  0  0  0  0  0  0
   62.3158   29.8719   51.4820 C   0  0  0  0  0  0  0  0  0  0  0  0
   61.3525   28.8973   52.0347 C   0  0  0  0  0  0  0  0  0  0  0  0
   61.4800   27.6470   51.9660 O   0  0  0  0  0  0  0  0  0  0  0  0
   60.2531   29.5418   52.6544 N   0  0  0  0  0  0  0  0  0  0  0  0
   59.1293   28.8749   53.3000 C   0  0  0  0  0  0  0  0  0  0  0  0
   60.4424   30.9780   52.5584 C   0  0  0  0  0  0  0  0  0  0  0  0
  9 10  1  0
 10 11  1  0
 11 12  1  0
 12 13  2  0
 12 14  1  0
 14 15  1  0
 15  1  1  0
  1  2  2  0
  2  3  1  0
  3  4  2  0
  4  5  1  0
  4  6  1  0
  6 17  1  0
 17 18  2  0
 18 19  1  0
 19 20  2  0
 20 21  1  0
 21 23  1  0
 23 24  2  0
 23 25  1  0
 25 26  1  0
 26 27  1  0
 27 28  2  0
 27 29  1  0
 29 30  1  0
 29 31  1  0
 21 22  2  0
  6  7  1  0
  7  8  2  0
 15 10  2  0
  7  2  1  0
 22 17  1  0
 31 25  1  0
  9 16  1  0
M  CHG 1  11  -1
M  CHG 1  14  -1
M  END
> <UniqueID>
73

> <SMILES>
C=c1/c(=C\c2[n-]c(=O)[n-]c2O)cc(C)n1-c1cccc(C(=O)N2CC(=O)N(C)C2)c1

> <Energy>
138.21183555070067

> <Genealogy>
C=c1c(=Cc2[n-]c(=O)[n-]c2O)cc(C)n1-c1cccc(C(=O)N2CC(=O)N(C)C2)c1 (protonated)
C=c1/c(=C\c2[n-]c(=O)[n-]c2O)cc(C)n1-c1cccc(C(=O)N2CC(=O)N(C)C2)c1 (cis-trans isomerization)
C=c1/c(=C\c2[n-]c(=O)[n-]c2O)cc(C)n1-c1cccc(C(=O)N2CC(=O)N(C)C2)c1 (3D coordinates assigned)
C=c1/c(=C\c2[n-]c(=O)[n-]c2O)cc(C)n1-c1cccc(C(=O)N2CC(=O)N(C)C2)c1 (nonaromatic ring conformer: 138.21183555070067 kcal/mol)

> <smiles>
C=c1c(=Cc2[nH]c(=O)[nH]c2O)cc(C)n1-c1cccc(C(=O)N2CC(=O)N(C)C2)c1

> <score_type>
oracle

> <origin>
adg

> <m_score__min__energy>
-14.359999999999999

> <m_primary>
energy

> <minimizedAffinity>
-7.76835

> <minimizedRMSD>
2.40425

> <CNNscore>
0.4336880744

> <CNNaffinity>
6.9717850685

> <CNN_VS>
3.0235800743

> <CNNaffinity_variance>
0.1625808626

$$$$
6:0


 26 28  0  0  0  0  0  0  0  0999 V2000
   58.1371   27.2641   44.2618 C   0  0  0  0  0  0  0  0  0  0  0  0
   58.6978   26.9663   45.4438 C   0  0  0  0  0  0  0  0  0  0  0  0
   58.6737   25.7311   46.1145 C   0  0  0  0  0  0  0  0  0  0  0  0
   58.2571   24.5140   45.7149 C   0  0  0  0  0  0  0  0  0  0  0  0
   59.2065   25.9641   47.3733 C   0  0  0  0  0  0  0  0  0  0  0  0
   59.5849   27.2898   47.4072 C   0  0  0  0  0  0  0  0  0  0  0  0
   60.1976   27.9779   48.5884 C   0  0  0  0  0  0  0  0  0  0  0  0
   59.2849   27.8952   46.2394 N   0  0  0  0  0  0  0  0  0  0  0  0
   59.4603   29.2929   45.9701 C   0  0  0  0  0  0  0  0  0  0  0  0
   60.1891   29.6480   45.0028 O   0  0  0  0  0  0  0  0  0  0  0  0
   56.8613   24.0500   45.6849 C   0  0  0  0  0  0  0  0  0  0  0  0
   56.4811   22.7693   45.5196 N   0  0  0  0  0  0  0  0  0  0  0  0
   55.1409   22.8207   45.6827 C   0  0  0  0  0  0  0  0  0  0  0  0
   54.4059   21.8029   45.5816 O   0  0  0  0  0  0  0  0  0  0  0  0
   54.6506   24.0452   45.9706 N   0  0  0  0  0  0  0  0  0  0  0  0
   55.7562   24.8078   45.9817 C   0  0  0  0  0  0  0  0  0  0  0  0
   55.7526   26.1684   46.2607 O   0  0  0  0  0  0  0  0  0  0  0  0
   58.8871   30.3118   46.9168 C   0  0  0  0  0  0  0  0  0  0  0  0
   58.9535   31.7156   46.3599 C   0  0  0  0  0  0  0  0  0  0  0  0
   60.0039   32.5622   46.7542 C   0  0  0  0  0  0  0  0  0  0  0  0
   60.1007   33.8552   46.2366 C   0  0  0  0  0  0  0  0  0  0  0  0
   59.1608   34.3121   45.3133 C   0  0  0  0  0  0  0  0  0  0  0  0
   58.1221   33.4753   44.8982 C   0  0  0  0  0  0  0  0  0  0  0  0
   58.0106   32.1675   45.4127 C   0  0  0  0  0  0  0  0  0  0  0  0
   56.9832   31.3005   45.0048 O   0  0  0  0  0  0  0  0  0  0  0  0
   56.9033   30.6832   43.7244 C   0  0  0  0  0  0  0  0  0  0  0  0
  1  2  2  0
  2  3  1  0
  3  4  2  0
  4 11  1  0
 11 12  1  0
 12 13  1  0
 13 14  2  0
 13 15  1  0
 15 16  1  0
 16 17  1  0
  3  5  1  0
  5  6  2  0
  6  7  1  0
  6  8  1  0
  8  9  1  0
  9 10  2  0
  9 18  1  0
 18 19  1  0
 19 20  2  0
 20 21  1  0
 21 22  2  0
 22 23  1  0
 23 24  2  0
 24 25  1  0
 25 26  1  0
  8  2  1  0
 24 19  1  0
 16 11  2  0
M  CHG 1  12  -1
M  CHG 1  15  -1
M  CHG 1  17  -1
M  END
> <UniqueID>
7

> <SMILES>
C=c1/c(=C\c2[n-]c(=O)[n-]c2[O-])cc(C)n1C(=O)Cc1ccccc1OC

> <Energy>
118.84943685567978

> <Genealogy>
C=c1c(=Cc2[n-]c(=O)[n-]c2[O-])cc(C)n1C(=O)Cc1ccccc1OC (protonated)
C=c1/c(=C\c2[n-]c(=O)[n-]c2[O-])cc(C)n1C(=O)Cc1ccccc1OC (cis-trans isomerization)
C=c1/c(=C\c2[n-]c(=O)[n-]c2[O-])cc(C)n1C(=O)Cc1ccccc1OC (3D coordinates assigned)
C=c1/c(=C\c2[n-]c(=O)[n-]c2[O-])cc(C)n1C(=O)Cc1ccccc1OC (optimized conformer: 118.84943685567978 kcal/mol)

> <smiles>
C=c1c(=Cc2[nH]c(=O)[nH]c2O)cc(C)n1C(=O)Cc1ccccc1OC

> <score_type>
oracle

> <origin>
adg

> <m_score__min__energy>
-15.52

> <m_primary>
energy

> <minimizedAffinity>
-8.96332

> <minimizedRMSD>
0.89394

> <CNNscore>
0.3680224419

> <CNNaffinity>
6.4361500740

> <CNN_VS>
2.3686475754

> <CNNaffinity_variance>
0.0223086495

$$$$
7:0


 30 33  0  0  0  0  0  0  0  0999 V2000
   59.0432   30.9773   47.2044 C   0  0  0  0  0  0  0  0  0  0  0  0
   58.8828   32.0857   46.4625 C   0  0  0  0  0  0  0  0  0  0  0  0
   58.6513   32.1342   45.0766 C   0  0  0  0  0  0  0  0  0  0  0  0
   58.3400   31.1637   44.1951 C   0  0  0  0  0  0  0  0  0  0  0  0
   58.7899   33.4583   44.7066 C   0  0  0  0  0  0  0  0  0  0  0  0
   59.0167   34.1765   45.8605 C   0  0  0  0  0  0  0  0  0  0  0  0
   59.2517   35.6581   45.8953 C   0  0  0  0  0  0  0  0  0  0  0  0
   59.0725   33.3509   46.9326 N   0  0  0  0  0  0  0  0  0  0  0  0
   58.0987   29.7500   44.5256 C   0  0  0  0  0  0  0  0  0  0  0  0
   56.8853   29.1882   44.8530 C   0  0  0  0  0  0  0  0  0  0  0  0
   55.6549   29.8321   44.8058 O   0  0  0  0  0  0  0  0  0  0  0  0
   57.0450   27.9082   45.2393 N   0  0  0  0  0  0  0  0  0  0  0  0
   58.3818   27.7357   45.1575 C   0  0  0  0  0  0  0  0  0  0  0  0
   58.9516   26.6531   45.4549 O   0  0  0  0  0  0  0  0  0  0  0  0
   59.0534   28.8287   44.7451 N   0  0  0  0  0  0  0  0  0  0  0  0
   60.0259   28.9301   44.6301 H   0  0  0  0  0  0  0  0  0  0  0  0
   59.3674   33.7767   48.3124 C   0  0  0  0  0  0  0  0  0  0  0  0
   60.8270   33.5845   48.6323 C   0  0  0  0  0  0  0  0  0  0  0  0
   61.7627   33.3592   47.5937 C   0  0  0  0  0  0  0  0  0  0  0  0
   63.1272   33.1905   47.8804 C   0  0  0  0  0  0  0  0  0  0  0  0
   63.5469   33.2464   49.2083 C   0  0  0  0  0  0  0  0  0  0  0  0
   64.8342   33.1016   49.6119 N   0  0  0  0  0  0  0  0  0  0  0  0
   64.9283   33.2068   50.9614 C   0  0  0  0  0  0  0  0  0  0  0  0
   66.0382   33.1108   51.6324 N   0  0  0  0  0  0  0  0  0  0  0  0
   63.4297   33.4805   51.6994 S   0  0  0  0  0  0  0  0  0  0  0  0
   62.6305   33.4628   50.2237 C   0  0  0  0  0  0  0  0  0  0  0  0
   61.2720   33.6323   49.9704 C   0  0  0  0  0  0  0  0  0  0  0  0
   67.1395   32.2133   51.4079 C   0  0  0  0  0  0  0  0  0  0  0  0
   68.2915   32.7014   51.2657 O   0  0  0  0  0  0  0  0  0  0  0  0
   66.9798   30.7229   51.3346 C   0  0  0  0  0  0  0  0  0  0  0  0
  1  2  2  0
  2  3  1  0
  3  4  2  0
  4  9  1  0
  9 10  2  0
 10 11  1  0
 10 12  1  0
 12 13  1  0
 13 14  2  0
 13 15  1  0
  3  5  1  0
  5  6  2  0
  6  7  1  0
  6  8  1  0
  8 17  1  0
 17 18  1  0
 18 19  2  0
 19 20  1  0
 20 21  2  0
 21 22  1  0
 22 23  1  0
 23 24  2  0
 24 28  1  0
 28 29  2  0
 28 30  1  0
 23 25  1  0
 25 26  1  0
 26 27  2  0
  8  2  1  0
 27 18  1  0
 15  9  1  0
 26 21  1  0
 15 16  1  0
M  CHG 1  11  -1
M  CHG 1  12  -1
M  CHG 1  22  -1
M  END
> <UniqueID>
8

> <SMILES>
C=c1/c(=C\c2[nH]c(=O)[n-]c2[O-])cc(C)n1Cc1ccc2[n-]/c(=N\C(C)=O)sc2c1

> <Energy>
155.33440521299076

> <Genealogy>
C=c1c(=Cc2[nH]c(=O)[n-]c2[O-])cc(C)n1Cc1ccc2[n-]c(=NC(C)=O)sc2c1 (protonated)
C=c1/c(=C\c2[nH]c(=O)[n-]c2[O-])cc(C)n1Cc1ccc2[n-]/c(=N\C(C)=O)sc2c1 (cis-trans isomerization)
C=c1/c(=C\c2[nH]c(=O)[n-]c2[O-])cc(C)n1Cc1ccc2[n-]/c(=N\C(C)=O)sc2c1 (3D coordinates assigned)
C=c1/c(=C\c2[nH]c(=O)[n-]c2[O-])cc(C)n1Cc1ccc2[n-]/c(=N\C(C)=O)sc2c1 (optimized conformer: 155.33440521299076 kcal/mol)

> <smiles>
C=c1c(=Cc2[nH]c(=O)[nH]c2O)cc(C)n1Cc1ccc2[nH]c(=NC(C)=O)sc2c1

> <score_type>
oracle

> <origin>
adg

> <m_score__min__energy>
-15.59

> <m_primary>
energy

> <minimizedAffinity>
-8.01004

> <minimizedRMSD>
0.96415

> <CNNscore>
0.2046602964

> <CNNaffinity>
6.5827298164

> <CNN_VS>
1.3472234011

> <CNNaffinity_variance>
0.0106491344

$$$$
38:0


 34 37  0  0  0  0  0  0  0  0999 V2000
   59.5547   31.8381   46.9940 C   0  0  0  0  0  0  0  0  0  0  0  0
   60.6822   31.0148   46.8450 C   0  0  0  0  0  0  0  0  0  0  0  0
   61.8956   31.3566   47.4477 C   0  0  0  0  0  0  0  0  0  0  0  0
   62.0040   32.5276   48.2117 C   0  0  0  0  0  0  0  0  0  0  0  0
   60.8877   33.3686   48.3333 C   0  0  0  0  0  0  0  0  0  0  0  0
   59.6736   33.0319   47.7301 C   0  0  0  0  0  0  0  0  0  0  0  0
   58.6199   33.8755   47.8614 F   0  0  0  0  0  0  0  0  0  0  0  0
   63.2947   32.8911   48.8356 C   0  0  0  0  0  0  0  0  0  0  0  0
   64.1550   33.5122   48.1522 O   0  0  0  0  0  0  0  0  0  0  0  0
   63.5950   32.5378   50.1987 N   0  0  0  0  0  0  0  0  0  0  0  0
   63.3353   31.1667   50.6662 C   0  0  0  0  0  0  0  0  0  0  0  0
   64.0066   30.8847   52.0189 C   0  0  0  0  0  0  0  0  0  0  0  0
   65.3810   31.4180   52.0405 N   0  0  0  0  0  0  0  0  0  0  0  0
   66.4561   30.7078   52.6933 C   0  0  0  0  0  0  0  0  0  0  0  0
   67.6472   31.0903   52.5291 O   0  0  0  0  0  0  0  0  0  0  0  0
   66.2053   29.5114   53.5592 C   0  0  0  0  0  0  0  0  0  0  0  0
   65.6536   32.7602   51.5018 C   0  0  0  0  0  0  0  0  0  0  0  0
   64.3714   33.4543   51.0401 C   0  0  0  0  0  0  0  0  0  0  0  0
   58.2537   31.4601   46.3223 C   0  0  0  0  0  0  0  0  0  0  0  0
   58.8893   29.1629   48.1527 C   0  0  0  0  0  0  0  0  0  0  0  0
   58.4733   28.9949   46.8873 C   0  0  0  0  0  0  0  0  0  0  0  0
   58.2957   27.7708   46.2361 C   0  0  0  0  0  0  0  0  0  0  0  0
   58.4296   26.5373   46.7617 C   0  0  0  0  0  0  0  0  0  0  0  0
   57.9041   28.0736   44.9395 C   0  0  0  0  0  0  0  0  0  0  0  0
   57.8615   29.4517   44.8489 C   0  0  0  0  0  0  0  0  0  0  0  0
   57.5228   30.2019   43.5967 C   0  0  0  0  0  0  0  0  0  0  0  0
   58.1944   30.0167   46.0354 N   0  0  0  0  0  0  0  0  0  0  0  0
   57.8467   25.3203   46.1677 C   0  0  0  0  0  0  0  0  0  0  0  0
   58.5876   24.3288   45.6444 N   0  0  0  0  0  0  0  0  0  0  0  0
   57.6649   23.4769   45.1474 C   0  0  0  0  0  0  0  0  0  0  0  0
   57.9745   22.3969   44.5783 O   0  0  0  0  0  0  0  0  0  0  0  0
   56.3835   23.8763   45.2980 N   0  0  0  0  0  0  0  0  0  0  0  0
   56.5158   25.0513   45.9348 C   0  0  0  0  0  0  0  0  0  0  0  0
   55.4440   25.8769   46.2497 O   0  0  0  0  0  0  0  0  0  0  0  0
 20 21  2  0
 21 22  1  0
 22 23  2  0
 23 28  1  0
 28 29  1  0
 29 30  1  0
 30 31  2  0
 30 32  1  0
 32 33  1  0
 33 34  1  0
 22 24  1  0
 24 25  2  0
 25 26  1  0
 25 27  1  0
 27 19  1  0
 19  1  1  0
  1  2  2  0
  2  3  1  0
  3  4  2  0
  4  8  1  0
  8  9  2  0
  8 10  1  0
 10 11  1  0
 11 12  1  0
 12 13  1  0
 13 14  1  0
 14 15  2  0
 14 16  1  0
 13 17  1  0
 17 18  1  0
  4  5  1  0
  5  6  2  0
  6  7  1  0
 27 21  1  0
  6  1  1  0
 33 28  2  0
 18 10  1  0
M  CHG 1  29  -1
M  CHG 1  32  -1
M  CHG 1  34  -1
M  END
> <UniqueID>
37

> <SMILES>
C=c1/c(=C/c2[n-]c(=O)[n-]c2[O-])cc(C)n1Cc1ccc(C(=O)N2CCN(C(C)=O)CC2)cc1F

> <Energy>
130.31543892337743

> <Genealogy>
C=c1c(=Cc2[n-]c(=O)[n-]c2[O-])cc(C)n1Cc1ccc(C(=O)N2CCN(C(C)=O)CC2)cc1F (protonated)
C=c1/c(=C/c2[n-]c(=O)[n-]c2[O-])cc(C)n1Cc1ccc(C(=O)N2CCN(C(C)=O)CC2)cc1F (cis-trans isomerization)
C=c1/c(=C/c2[n-]c(=O)[n-]c2[O-])cc(C)n1Cc1ccc(C(=O)N2CCN(C(C)=O)CC2)cc1F (3D coordinates assigned)
C=c1/c(=C/c2[n-]c(=O)[n-]c2[O-])cc(C)n1Cc1ccc(C(=O)N2CCN(C(C)=O)CC2)cc1F (nonaromatic ring conformer: 130.31543892337743 kcal/mol)

> <smiles>
C=c1c(=Cc2[nH]c(=O)[nH]c2O)cc(C)n1Cc1ccc(C(=O)N2CCN(C(C)=O)CC2)cc1F

> <score_type>
oracle

> <origin>
adg

> <m_score__min__energy>
-16.739999999999998

> <m_primary>
energy

> <minimizedAffinity>
-8.66564

> <minimizedRMSD>
0.76848

> <CNNscore>
0.3214541972

> <CNNaffinity>
6.8784317970

> <CNN_VS>
2.2111008167

> <CNNaffinity_variance>
0.1162883937

$$$$
40:0


 27 29  0  0  0  0  0  0  0  0999 V2000
   52.5603   28.3450   55.0516 C   0  0  0  0  0  0  0  0  0  0  0  0
   53.6101   28.6397   54.2652 C   0  0  0  0  0  0  0  0  0  0  0  0
   54.8520   28.2448   54.6872 N   0  0  0  0  0  0  0  0  0  0  0  0
   55.9951   28.6959   54.1096 C   0  0  0  0  0  0  0  0  0  0  0  0
   55.9447   29.6122   53.0591 C   0  0  0  0  0  0  0  0  0  0  0  0
   54.6937   29.9799   52.5521 C   0  0  0  0  0  0  0  0  0  0  0  0
   53.5018   29.4489   53.0878 C   0  0  0  0  0  0  0  0  0  0  0  0
   52.3513   29.7312   52.4240 C   0  0  0  0  0  0  0  0  0  0  0  0
   54.9182   27.6105   55.4372 H   0  0  0  0  0  0  0  0  0  0  0  0
   57.1937   30.1358   52.4537 C   0  0  0  0  0  0  0  0  0  0  0  0
   57.5281   29.7580   51.2981 O   0  0  0  0  0  0  0  0  0  0  0  0
   58.0201   31.0821   53.1525 N   0  0  0  0  0  0  0  0  0  0  0  0
   58.5348   30.7502   54.4831 C   0  0  0  0  0  0  0  0  0  0  0  0
   58.6968   32.0306   55.3088 C   0  0  0  0  0  0  0  0  0  0  0  0
   59.5052   33.0470   54.6049 N   0  0  0  0  0  0  0  0  0  0  0  0
   58.9312   33.3705   53.2765 C   0  0  0  0  0  0  0  0  0  0  0  0
   58.7098   32.1286   52.3968 C   0  0  0  0  0  0  0  0  0  0  0  0
   60.9414   32.6993   54.5511 C   0  0  0  0  0  0  0  0  0  0  0  0
   61.6780   33.6439   53.6483 C   0  0  0  0  0  0  0  0  0  0  0  0
   62.3943   33.2070   52.7627 O   0  0  0  0  0  0  0  0  0  0  0  0
   51.3222   30.7041   52.8339 C   0  0  0  0  0  0  0  0  0  0  0  0
   50.5425   30.5446   53.9175 N   0  0  0  0  0  0  0  0  0  0  0  0
   49.8403   31.6977   53.9699 C   0  0  0  0  0  0  0  0  0  0  0  0
   48.9769   31.9245   54.8573 O   0  0  0  0  0  0  0  0  0  0  0  0
   50.1447   32.5921   53.0055 N   0  0  0  0  0  0  0  0  0  0  0  0
   51.0933   31.9556   52.3030 C   0  0  0  0  0  0  0  0  0  0  0  0
   51.7580   32.5186   51.2197 O   0  0  0  0  0  0  0  0  0  0  0  0
  1  2  2  0
  2  3  1  0
  3  4  2  0
  4  5  1  0
  5 10  1  0
 10 11  2  0
 10 12  1  0
 12 13  1  0
 13 14  1  0
 14 15  1  0
 15 18  1  0
 18 19  1  0
 19 20  2  0
 15 16  1  0
 16 17  1  0
  5  6  2  0
  6  7  1  0
  7  8  2  0
  8 21  1  0
 21 22  1  0
 22 23  1  0
 23 24  2  0
 23 25  1  0
 25 26  1  0
 26 27  1  0
  7  2  1  0
 26 21  2  0
 17 12  1  0
  3  9  1  0
M  CHG 1   3   1
M  CHG 1  22  -1
M  CHG 1  25  -1
M  CHG 1  27  -1
M  END
> <UniqueID>
39

> <SMILES>
C=c1[nH+]cc(C(=O)N2CCN(CC=O)CC2)cc1=Cc1[n-]c(=O)[n-]c1[O-]

> <Energy>
101.32677380045847

> <Genealogy>
C=c1[nH+]cc(C(=O)N2CCN(CC=O)CC2)cc1=Cc1[n-]c(=O)[n-]c1[O-] (protonated)
C=c1[nH+]cc(C(=O)N2CCN(CC=O)CC2)cc1=Cc1[n-]c(=O)[n-]c1[O-] (3D coordinates assigned)
C=c1[nH+]cc(C(=O)N2CCN(CC=O)CC2)cc1=Cc1[n-]c(=O)[n-]c1[O-] (nonaromatic ring conformer: 101.32677380045847 kcal/mol)

> <smiles>
C=c1ncc(C(=O)N2CCN(CC=O)CC2)cc1=Cc1[nH]c(=O)[nH]c1O

> <score_type>
oracle

> <origin>
adg

> <m_score__min__energy>
-14.76

> <m_primary>
energy

> <minimizedAffinity>
-5.42362

> <minimizedRMSD>
1.06229

> <CNNscore>
0.2377891093

> <CNNaffinity>
4.5223541260

> <CNN_VS>
1.0753666162

> <CNNaffinity_variance>
0.3652932644

$$$$
45:0


 29 30  0  0  0  0  0  0  0  0999 V2000
   58.5927   28.0719   44.8988 N   0  0  0  0  0  0  0  0  0  0  0  0
   58.1663   27.1761   43.8134 C   0  0  0  0  0  0  0  0  0  0  0  0
   58.5192   29.4930   44.5004 C   0  0  0  0  0  0  0  0  0  0  0  0
   57.1654   30.0673   44.8244 C   0  0  0  0  0  0  0  0  0  0  0  0
   56.1543   29.3195   44.7737 O   0  0  0  0  0  0  0  0  0  0  0  0
   56.9856   31.4573   45.1278 N   0  0  0  0  0  0  0  0  0  0  0  0
   59.9490   32.8856   46.9189 C   0  0  0  0  0  0  0  0  0  0  0  0
   60.0988   34.1079   46.2379 C   0  0  0  0  0  0  0  0  0  0  0  0
   59.2354   34.4534   45.1964 C   0  0  0  0  0  0  0  0  0  0  0  0
   58.2027   33.5904   44.8256 C   0  0  0  0  0  0  0  0  0  0  0  0
   58.0166   32.3790   45.5078 C   0  0  0  0  0  0  0  0  0  0  0  0
   58.9010   32.0229   46.5345 C   0  0  0  0  0  0  0  0  0  0  0  0
   61.8776   31.4098   47.8817 C   0  0  0  0  0  0  0  0  0  0  0  0
   60.8848   32.5259   48.0181 C   0  0  0  0  0  0  0  0  0  0  0  0
   60.8507   33.1643   49.1037 O   0  0  0  0  0  0  0  0  0  0  0  0
   57.9377   27.7692   46.1964 C   0  0  0  0  0  0  0  0  0  0  0  0
   58.3907   26.4869   46.8709 C   0  0  0  0  0  0  0  0  0  0  0  0
   59.5963   26.3403   47.2014 O   0  0  0  0  0  0  0  0  0  0  0  0
   57.5218   25.3489   46.9664 N   0  0  0  0  0  0  0  0  0  0  0  0
   57.4590   24.2507   46.0464 C   0  0  0  0  0  0  0  0  0  0  0  0
   58.6423   23.5886   45.6763 C   0  0  0  0  0  0  0  0  0  0  0  0
   58.6151   22.5525   44.7430 C   0  0  0  0  0  0  0  0  0  0  0  0
   57.4104   22.1766   44.1550 C   0  0  0  0  0  0  0  0  0  0  0  0
   56.2296   22.8413   44.4888 C   0  0  0  0  0  0  0  0  0  0  0  0
   56.2330   23.8903   45.4308 C   0  0  0  0  0  0  0  0  0  0  0  0
   54.9502   24.5699   45.7630 C   0  0  0  0  0  0  0  0  0  0  0  0
   54.9006   25.9904   45.9014 N   0  0  0  0  0  0  0  0  0  0  0  0
   53.8878   23.9105   45.9163 O   0  0  0  0  0  0  0  0  0  0  0  0
   55.7191   26.5251   45.7857 H   0  0  0  0  0  0  0  0  0  0  0  0
 13 14  1  0
 14 15  2  0
 14  7  1  0
  7  8  2  0
  8  9  1  0
  9 10  2  0
 10 11  1  0
 11  6  1  0
  6  4  1  0
  4  5  2  0
  4  3  1  0
  3  1  1  0
  1  2  1  0
  1 16  1  0
 16 17  1  0
 17 18  2  0
 17 19  1  0
 19 20  1  0
 20 21  2  0
 21 22  1  0
 22 23  2  0
 23 24  1  0
 24 25  2  0
 25 26  1  0
 26 27  1  0
 26 28  2  0
 11 12  2  0
 12  7  1  0
 25 20  1  0
 27 29  1  0
M  CHG 1   6  -1
M  CHG 1  19  -1
M  CHG 1  27  -1
M  END
> <UniqueID>
44

> <SMILES>
CC(=O)c1cccc([N-]C(=O)CN(C)CC(=O)[N-]c2ccccc2C([NH-])=O)c1

> <Energy>
66.05305946348584

> <Genealogy>
CC(=O)c1cccc([N-]C(=O)CN(C)CC(=O)[N-]c2ccccc2C([NH-])=O)c1 (protonated)
CC(=O)c1cccc([N-]C(=O)CN(C)CC(=O)[N-]c2ccccc2C([NH-])=O)c1 (3D coordinates assigned)
CC(=O)c1cccc([N-]C(=O)CN(C)CC(=O)[N-]c2ccccc2C([NH-])=O)c1 (optimized conformer: 66.05305946348584 kcal/mol)

> <smiles>
CC(=O)c1cccc(NC(=O)CN(C)CC(=O)Nc2ccccc2C(N)=O)c1

> <score_type>
oracle

> <origin>
adg

> <m_score__min__energy>
-14.970000000000001

> <m_primary>
energy

> <minimizedAffinity>
-8.10218

> <minimizedRMSD>
1.45646

> <CNNscore>
0.7708132863

> <CNNaffinity>
6.9646067619

> <CNN_VS>
5.3684115410

> <CNNaffinity_variance>
0.0225358903

$$$$
56:0


 30 33  0  0  0  0  0  0  0  0999 V2000
   60.1487   32.1737   47.6907 C   0  0  0  0  0  0  0  0  0  0  0  0
   59.6163   33.3126   47.0673 C   0  0  0  0  0  0  0  0  0  0  0  0
   58.7210   33.1836   46.0018 C   0  0  0  0  0  0  0  0  0  0  0  0
   58.3607   31.9169   45.5384 C   0  0  0  0  0  0  0  0  0  0  0  0
   58.9002   30.7686   46.1352 C   0  0  0  0  0  0  0  0  0  0  0  0
   59.7978   30.9008   47.2041 C   0  0  0  0  0  0  0  0  0  0  0  0
   58.5531   29.4650   45.6366 N   0  0  0  0  0  0  0  0  0  0  0  0
   57.6889   29.2082   44.6284 C   0  0  0  0  0  0  0  0  0  0  0  0
   56.9718   30.2508   43.8261 C   0  0  0  0  0  0  0  0  0  0  0  0
   57.5977   27.8494   44.4065 C   0  0  0  0  0  0  0  0  0  0  0  0
   58.4287   27.2368   45.3352 C   0  0  0  0  0  0  0  0  0  0  0  0
   58.6648   25.9144   45.4457 C   0  0  0  0  0  0  0  0  0  0  0  0
   59.0166   28.2673   46.0775 C   0  0  0  0  0  0  0  0  0  0  0  0
   59.9180   28.1267   47.0607 C   0  0  0  0  0  0  0  0  0  0  0  0
   57.6923   24.9448   45.9828 C   0  0  0  0  0  0  0  0  0  0  0  0
   58.0204   23.6889   46.3325 N   0  0  0  0  0  0  0  0  0  0  0  0
   56.8714   23.1950   46.8432 C   0  0  0  0  0  0  0  0  0  0  0  0
   56.7728   22.0178   47.2739 O   0  0  0  0  0  0  0  0  0  0  0  0
   55.8405   24.0666   46.8644 N   0  0  0  0  0  0  0  0  0  0  0  0
   56.3785   25.1734   46.3295 C   0  0  0  0  0  0  0  0  0  0  0  0
   55.6945   26.3764   46.2059 O   0  0  0  0  0  0  0  0  0  0  0  0
   62.5094   32.4019   48.5893 C   0  0  0  0  0  0  0  0  0  0  0  0
   63.0286   32.0414   47.4974 O   0  0  0  0  0  0  0  0  0  0  0  0
   61.0856   32.3323   48.7693 N   0  0  0  0  0  0  0  0  0  0  0  0
   60.7308   32.3969   49.6853 H   0  0  0  0  0  0  0  0  0  0  0  0
   64.6268   32.4676   49.8766 C   0  0  0  0  0  0  0  0  0  0  0  0
   63.3799   32.8603   49.6922 C   0  0  0  0  0  0  0  0  0  0  0  0
   62.9909   33.8484   50.7425 C   0  0  0  0  0  0  0  0  0  0  0  0
   64.2649   33.9703   51.5909 C   0  0  0  0  0  0  0  0  0  0  0  0
   65.1878   33.0843   50.9770 O   0  0  0  0  0  0  0  0  0  0  0  0
 26 27  2  0
 27 22  1  0
 22 23  2  0
 22 24  1  0
 24  1  1  0
  1  2  2  0
  2  3  1  0
  3  4  2  0
  4  5  1  0
  5  7  1  0
  7  8  1  0
  8  9  1  0
  8 10  2  0
 10 11  1  0
 11 12  2  0
 12 15  1  0
 15 16  1  0
 16 17  1  0
 17 18  2  0
 17 19  1  0
 19 20  1  0
 20 21  1  0
 11 13  1  0
 13 14  2  0
  5  6  2  0
 27 28  1  0
 28 29  1  0
 29 30  1  0
 30 26  1  0
  6  1  1  0
 13  7  1  0
 20 15  2  0
 24 25  1  0
M  CHG 1  16  -1
M  CHG 1  19  -1
M  CHG 1  21  -1
M  END
> <UniqueID>
54

> <SMILES>
C=c1/c(=C/c2[n-]c(=O)[n-]c2[O-])cc(C)n1-c1cccc(NC(=O)C2=COCC2)c1

> <Energy>
133.9948470926958

> <Genealogy>
C=c1c(=Cc2[n-]c(=O)[n-]c2[O-])cc(C)n1-c1cccc(NC(=O)C2=COCC2)c1 (protonated)
C=c1/c(=C/c2[n-]c(=O)[n-]c2[O-])cc(C)n1-c1cccc(NC(=O)C2=COCC2)c1 (cis-trans isomerization)
C=c1/c(=C/c2[n-]c(=O)[n-]c2[O-])cc(C)n1-c1cccc(NC(=O)C2=COCC2)c1 (3D coordinates assigned)
C=c1/c(=C/c2[n-]c(=O)[n-]c2[O-])cc(C)n1-c1cccc(NC(=O)C2=COCC2)c1 (nonaromatic ring conformer: 133.9948470926958 kcal/mol)

> <smiles>
C=c1c(=Cc2[nH]c(=O)[nH]c2O)cc(C)n1-c1cccc(NC(=O)C2=COCC2)c1

> <score_type>
oracle

> <origin>
adg

> <m_score__min__energy>
-16.34

> <m_primary>
energy

> <minimizedAffinity>
-8.61201

> <minimizedRMSD>
0.88843

> <CNNscore>
0.3022122383

> <CNNaffinity>
6.7913155556

> <CNN_VS>
2.0524187088

> <CNNaffinity_variance>
0.1233227253

$$$$
57:0


 31 34  0  0  0  0  0  0  0  0999 V2000
   57.5870   25.2346   46.1931 C   0  0  0  0  0  0  0  0  0  0  0  0
   58.0270   26.4802   45.9279 C   0  0  0  0  0  0  0  0  0  0  0  0
   57.2641   27.5362   45.4505 C   0  0  0  0  0  0  0  0  0  0  0  0
   58.1203   28.6096   45.3076 C   0  0  0  0  0  0  0  0  0  0  0  0
   59.3847   28.2557   45.6395 N   0  0  0  0  0  0  0  0  0  0  0  0
   60.5905   29.0809   45.5141 C   0  0  0  0  0  0  0  0  0  0  0  0
   59.3373   26.9557   46.0278 C   0  0  0  0  0  0  0  0  0  0  0  0
   60.4071   26.2582   46.4400 C   0  0  0  0  0  0  0  0  0  0  0  0
   54.4858   25.2999   45.8416 O   0  0  0  0  0  0  0  0  0  0  0  0
   55.3721   24.4936   45.1323 C   0  0  0  0  0  0  0  0  0  0  0  0
   54.9749   23.5912   44.2203 N   0  0  0  0  0  0  0  0  0  0  0  0
   56.1361   23.0092   43.8502 C   0  0  0  0  0  0  0  0  0  0  0  0
   56.1883   22.0808   43.0021 O   0  0  0  0  0  0  0  0  0  0  0  0
   57.2344   23.4896   44.4704 N   0  0  0  0  0  0  0  0  0  0  0  0
   56.7458   24.4509   45.2731 C   0  0  0  0  0  0  0  0  0  0  0  0
   53.5663   25.2511   45.6678 H   0  0  0  0  0  0  0  0  0  0  0  0
   57.7012   29.9321   44.8073 C   0  0  0  0  0  0  0  0  0  0  0  0
   57.1237   29.9933   43.6873 O   0  0  0  0  0  0  0  0  0  0  0  0
   57.9237   31.1407   45.5645 N   0  0  0  0  0  0  0  0  0  0  0  0
   57.9119   31.1278   47.0353 C   0  0  0  0  0  0  0  0  0  0  0  0
   59.0246   32.0300   47.5786 C   0  0  0  0  0  0  0  0  0  0  0  0
   59.0146   33.4589   46.9710 C   0  0  0  0  0  0  0  0  0  0  0  0
   58.0000   33.6223   45.8124 C   0  0  0  0  0  0  0  0  0  0  0  0
   57.9914   32.4239   44.8500 C   0  0  0  0  0  0  0  0  0  0  0  0
   60.4196   33.8739   46.5656 C   0  0  0  0  0  0  0  0  0  0  0  0
   60.5914   34.5428   45.5087 O   0  0  0  0  0  0  0  0  0  0  0  0
   61.5711   33.4482   47.3191 N   0  0  0  0  0  0  0  0  0  0  0  0
   61.5175   32.6837   48.5553 C   0  0  0  0  0  0  0  0  0  0  0  0
   62.9639   32.5401   49.0139 C   0  0  0  0  0  0  0  0  0  0  0  0
   63.8278   32.8982   47.8065 C   0  0  0  0  0  0  0  0  0  0  0  0
   62.9312   33.7014   46.8737 C   0  0  0  0  0  0  0  0  0  0  0  0
  9 10  1  0
 10 11  1  0
 11 12  1  0
 12 13  2  0
 12 14  1  0
 14 15  1  0
 15  1  1  0
  1  2  2  0
  2  3  1  0
  3  4  2  0
  4 17  1  0
 17 18  2  0
 17 19  1  0
 19 20  1  0
 20 21  1  0
 21 22  1  0
 22 25  1  0
 25 26  2  0
 25 27  1  0
 27 28  1  0
 28 29  1  0
 29 30  1  0
 30 31  1  0
 22 23  1  0
 23 24  1  0
  4  5  1  0
  5  6  1  0
  5  7  1  0
  7  8  2  0
 15 10  2  0
  7  2  1  0
 24 19  1  0
 31 27  1  0
  9 16  1  0
M  CHG 1  11  -1
M  CHG 1  14  -1
M  END
> <UniqueID>
55

> <SMILES>
C=c1/c(=C/c2[n-]c(=O)[n-]c2O)cc(C(=O)N2CCC(C(=O)N3CCCC3)CC2)n1C

> <Energy>
129.34124493570084

> <Genealogy>
C=c1c(=Cc2[n-]c(=O)[n-]c2O)cc(C(=O)N2CCC(C(=O)N3CCCC3)CC2)n1C (protonated)
C=c1/c(=C/c2[n-]c(=O)[n-]c2O)cc(C(=O)N2CCC(C(=O)N3CCCC3)CC2)n1C (cis-trans isomerization)
C=c1/c(=C/c2[n-]c(=O)[n-]c2O)cc(C(=O)N2CCC(C(=O)N3CCCC3)CC2)n1C (3D coordinates assigned)
C=c1/c(=C/c2[n-]c(=O)[n-]c2O)cc(C(=O)N2CCC(C(=O)N3CCCC3)CC2)n1C (nonaromatic ring conformer: 129.34124493570084 kcal/mol)

> <smiles>
C=c1c(=Cc2[nH]c(=O)[nH]c2O)cc(C(=O)N2CCC(C(=O)N3CCCC3)CC2)n1C

> <score_type>
oracle

> <origin>
adg

> <m_score__min__energy>
-14.220000000000001

> <m_primary>
energy

> <minimizedAffinity>
-8.70655

> <minimizedRMSD>
1.11272

> <CNNscore>
0.2614021301

> <CNNaffinity>
6.8278908730

> <CNN_VS>
1.7848252058

> <CNNaffinity_variance>
0.0141187767

$$$$
65:0


 30 32  0  0  0  0  0  0  0  0999 V2000
   57.4429   29.4192   45.2880 C   0  0  0  0  0  0  0  0  0  0  0  0
   56.2947   29.5800   44.7911 O   0  0  0  0  0  0  0  0  0  0  0  0
   58.5608   30.3873   44.9812 C   0  0  0  0  0  0  0  0  0  0  0  0
   58.0327   31.7739   44.5958 C   0  0  0  0  0  0  0  0  0  0  0  0
   57.5476   32.5814   45.8080 C   0  0  0  0  0  0  0  0  0  0  0  0
   58.5270   32.6337   46.9081 N   0  0  0  0  0  0  0  0  0  0  0  0
   59.1044   31.3335   47.3035 C   0  0  0  0  0  0  0  0  0  0  0  0
   59.5922   30.4907   46.1149 C   0  0  0  0  0  0  0  0  0  0  0  0
   59.6880   33.9401   46.7873 S   0  0  0  0  0  0  0  0  0  0  0  0
   59.9973   34.1784   45.3345 O   0  0  0  0  0  0  0  0  0  0  0  0
   59.0746   35.2010   47.3316 O   0  0  0  0  0  0  0  0  0  0  0  0
   61.2017   33.6365   47.6417 C   0  0  0  0  0  0  0  0  0  0  0  0
   62.3402   33.2172   46.9349 C   0  0  0  0  0  0  0  0  0  0  0  0
   63.5500   33.0066   47.6066 C   0  0  0  0  0  0  0  0  0  0  0  0
   63.6324   33.2310   48.9843 C   0  0  0  0  0  0  0  0  0  0  0  0
   62.5083   33.6688   49.6900 C   0  0  0  0  0  0  0  0  0  0  0  0
   61.2987   33.8811   49.0197 C   0  0  0  0  0  0  0  0  0  0  0  0
   57.7046   28.2959   46.1358 N   0  0  0  0  0  0  0  0  0  0  0  0
   57.7424   26.9155   45.6641 C   0  0  0  0  0  0  0  0  0  0  0  0
   55.4545   26.3466   46.0889 O   0  0  0  0  0  0  0  0  0  0  0  0
   56.6719   26.1007   46.3198 C   0  0  0  0  0  0  0  0  0  0  0  0
   57.0396   25.0018   47.1615 N   0  0  0  0  0  0  0  0  0  0  0  0
   57.2326   23.6404   46.6738 C   0  0  0  0  0  0  0  0  0  0  0  0
   58.4869   23.5340   45.7901 C   0  0  0  0  0  0  0  0  0  0  0  0
   58.1639   23.0577   44.4273 N   0  0  0  0  0  0  0  0  0  0  0  0
   57.2624   23.9978   43.7165 C   0  0  0  0  0  0  0  0  0  0  0  0
   55.8020   23.5086   43.7203 C   0  0  0  0  0  0  0  0  0  0  0  0
   55.6248   22.2383   43.1058 O   0  0  0  0  0  0  0  0  0  0  0  0
   56.7674   21.3979   43.1982 C   0  0  0  0  0  0  0  0  0  0  0  0
   57.6372   21.6726   44.4380 C   0  0  0  0  0  0  0  0  0  0  0  0
 20 21  2  0
 21 19  1  0
 19 18  1  0
 18  1  1  0
  1  2  2  0
  1  3  1  0
  3  4  1  0
  4  5  1  0
  5  6  1  0
  6  9  1  0
  9 10  2  0
  9 11  2  0
  9 12  1  0
 12 13  2  0
 13 14  1  0
 14 15  2  0
 15 16  1  0
 16 17  2  0
  6  7  1  0
  7  8  1  0
 21 22  1  0
 22 23  1  0
 23 24  1  0
 24 25  1  0
 25 26  1  0
 26 27  1  0
 27 28  1  0
 28 29  1  0
 29 30  1  0
  8  3  1  0
 30 25  1  0
 17 12  1  0
M  CHG 1  18  -1
M  CHG 1  22  -1
M  END
> <UniqueID>
63

> <SMILES>
O=C(C[N-]C(=O)C1CCN(S(=O)(=O)c2ccccc2)CC1)[N-]CCN1CCOCC1

> <Energy>
71.81351454765812

> <Genealogy>
O=C(C[N-]C(=O)C1CCN(S(=O)(=O)c2ccccc2)CC1)[N-]CCN1CCOCC1 (protonated)
O=C(C[N-]C(=O)C1CCN(S(=O)(=O)c2ccccc2)CC1)[N-]CCN1CCOCC1 (3D coordinates assigned)
O=C(C[N-]C(=O)C1CCN(S(=O)(=O)c2ccccc2)CC1)[N-]CCN1CCOCC1 (nonaromatic ring conformer: 71.81351454765812 kcal/mol)

> <smiles>
O=C(CNC(=O)C1CCN(S(=O)(=O)c2ccccc2)CC1)NCCN1CCOCC1

> <score_type>
oracle

> <origin>
adg

> <m_score__min__energy>
-14.300000000000001

> <m_primary>
energy

> <minimizedAffinity>
-7.22540

> <minimizedRMSD>
0.58118

> <CNNscore>
0.5933981538

> <CNNaffinity>
6.6452145576

> <CNN_VS>
3.9432580471

> <CNNaffinity_variance>
0.0514152646

$$$$
78:0


 25 27  0  0  0  0  0  0  0  0999 V2000
   58.3432   29.3318   45.6948 C   0  0  0  0  0  0  0  0  0  0  0  0
   57.5136   30.3931   45.3042 C   0  0  0  0  0  0  0  0  0  0  0  0
   56.4351   30.1817   44.4528 O   0  0  0  0  0  0  0  0  0  0  0  0
   57.7710   31.6485   45.7421 N   0  0  0  0  0  0  0  0  0  0  0  0
   58.8263   31.9181   46.5497 C   0  0  0  0  0  0  0  0  0  0  0  0
   59.0248   33.1070   46.9190 O   0  0  0  0  0  0  0  0  0  0  0  0
   59.6701   30.9120   46.9423 N   0  0  0  0  0  0  0  0  0  0  0  0
   59.4422   29.6250   46.5237 C   0  0  0  0  0  0  0  0  0  0  0  0
   60.2027   28.6904   46.9036 O   0  0  0  0  0  0  0  0  0  0  0  0
   60.7929   31.2044   47.7988 C   0  0  0  0  0  0  0  0  0  0  0  0
   60.6989   31.0008   49.1856 C   0  0  0  0  0  0  0  0  0  0  0  0
   61.7882   31.2836   50.0148 C   0  0  0  0  0  0  0  0  0  0  0  0
   62.9775   31.7709   49.4660 C   0  0  0  0  0  0  0  0  0  0  0  0
   63.0793   31.9762   48.0879 C   0  0  0  0  0  0  0  0  0  0  0  0
   61.9920   31.6953   47.2550 C   0  0  0  0  0  0  0  0  0  0  0  0
   58.5906   27.5384   44.1657 O   0  0  0  0  0  0  0  0  0  0  0  0
   58.0753   27.9453   45.2406 C   0  0  0  0  0  0  0  0  0  0  0  0
   57.2065   27.0621   45.9645 N   0  0  0  0  0  0  0  0  0  0  0  0
   57.2006   25.6293   45.8921 C   0  0  0  0  0  0  0  0  0  0  0  0
   57.3962   25.0150   44.6478 C   0  0  0  0  0  0  0  0  0  0  0  0
   57.4078   23.6204   44.5413 C   0  0  0  0  0  0  0  0  0  0  0  0
   57.2407   22.8306   45.6819 C   0  0  0  0  0  0  0  0  0  0  0  0
   57.0708   23.4345   46.9321 C   0  0  0  0  0  0  0  0  0  0  0  0
   56.9215   22.6486   48.0686 O   0  0  0  0  0  0  0  0  0  0  0  0
   57.0584   24.8288   47.0413 C   0  0  0  0  0  0  0  0  0  0  0  0
 16 17  2  0
 17 18  1  0
 18 19  1  0
 19 20  2  0
 20 21  1  0
 21 22  2  0
 22 23  1  0
 23 24  1  0
 23 25  2  0
 17  1  1  0
  1  2  2  0
  2  3  1  0
  2  4  1  0
  4  5  1  0
  5  6  2  0
  5  7  1  0
  7 10  1  0
 10 11  2  0
 11 12  1  0
 12 13  2  0
 13 14  1  0
 14 15  2  0
  7  8  1  0
  8  9  2  0
 25 19  1  0
  8  1  1  0
 15 10  1  0
M  CHG 1   3  -1
M  CHG 1   4  -1
M  CHG 1  18  -1
M  CHG 1  24  -1
M  END
> <UniqueID>
74

> <SMILES>
O=C([N-]c1cccc([O-])c1)c1c([O-])[n-]c(=O)n(-c2ccccc2)c1=O

> <Energy>
57.87878889921812

> <Genealogy>
O=C([N-]c1cccc([O-])c1)c1c([O-])[n-]c(=O)n(-c2ccccc2)c1=O (protonated)
O=C([N-]c1cccc([O-])c1)c1c([O-])[n-]c(=O)n(-c2ccccc2)c1=O (3D coordinates assigned)
O=C([N-]c1cccc([O-])c1)c1c([O-])[n-]c(=O)n(-c2ccccc2)c1=O (optimized conformer: 57.87878889921812 kcal/mol)

> <smiles>
O=C(Nc1cccc(O)c1)c1c(O)[nH]c(=O)n(-c2ccccc2)c1=O

> <score_type>
oracle

> <origin>
adg

> <m_score__min__energy>
-15.76

> <m_primary>
energy

> <minimizedAffinity>
-8.27071

> <minimizedRMSD>
2.17666

> <CNNscore>
0.3326187730

> <CNNaffinity>
6.2052383423

> <CNN_VS>
2.0639786720

> <CNNaffinity_variance>
0.3728252947

$$$$
85:0


 34 37  0  0  0  0  0  0  0  0999 V2000
   58.2919   29.5549   52.6821 C   0  0  0  0  0  0  0  0  0  0  0  0
   59.1151   28.8318   53.3099 O   0  0  0  0  0  0  0  0  0  0  0  0
   54.0831   28.0988   54.6495 C   0  0  0  0  0  0  0  0  0  0  0  0
   54.9597   28.7860   53.8968 C   0  0  0  0  0  0  0  0  0  0  0  0
   54.6851   29.9653   53.1996 C   0  0  0  0  0  0  0  0  0  0  0  0
   53.4917   30.5762   53.0658 C   0  0  0  0  0  0  0  0  0  0  0  0
   55.8825   30.3743   52.6352 C   0  0  0  0  0  0  0  0  0  0  0  0
   56.8402   29.4459   53.0018 C   0  0  0  0  0  0  0  0  0  0  0  0
   56.2735   28.4639   53.7511 N   0  0  0  0  0  0  0  0  0  0  0  0
   56.9687   27.2862   54.2884 C   0  0  0  0  0  0  0  0  0  0  0  0
   52.7490   30.6602   51.7948 C   0  0  0  0  0  0  0  0  0  0  0  0
   52.8851   29.7642   50.7981 N   0  0  0  0  0  0  0  0  0  0  0  0
   51.9722   30.1650   49.8854 C   0  0  0  0  0  0  0  0  0  0  0  0
   51.8067   29.5725   48.7837 O   0  0  0  0  0  0  0  0  0  0  0  0
   51.2449   31.2419   50.2477 N   0  0  0  0  0  0  0  0  0  0  0  0
   51.7388   31.5369   51.4650 C   0  0  0  0  0  0  0  0  0  0  0  0
   51.2422   32.5560   52.2694 O   0  0  0  0  0  0  0  0  0  0  0  0
   58.7830   30.5589   51.7568 N   0  0  0  0  0  0  0  0  0  0  0  0
   58.5906   31.8957   52.3412 C   0  0  0  0  0  0  0  0  0  0  0  0
   58.8851   32.9764   51.2963 C   0  0  0  0  0  0  0  0  0  0  0  0
   60.1179   32.7069   50.5272 N   0  0  0  0  0  0  0  0  0  0  0  0
   60.9744   31.5938   50.9893 C   0  0  0  0  0  0  0  0  0  0  0  0
   60.1989   30.3134   51.3882 C   0  0  0  0  0  0  0  0  0  0  0  0
   59.3788   30.0288   51.1795 H   0  0  0  0  0  0  0  0  0  0  0  0
   60.0136   32.8970   49.0661 C   0  0  0  0  0  0  0  0  0  0  0  0
   58.8206   32.1717   48.4269 C   0  0  0  0  0  0  0  0  0  0  0  0
   59.0418   30.7623   48.4315 O   0  0  0  0  0  0  0  0  0  0  0  0
   58.9204   29.9403   47.3051 C   0  0  0  0  0  0  0  0  0  0  0  0
   58.8938   28.5328   47.3938 C   0  0  0  0  0  0  0  0  0  0  0  0
   58.7459   27.7555   46.2391 C   0  0  0  0  0  0  0  0  0  0  0  0
   58.6324   28.3739   44.9898 C   0  0  0  0  0  0  0  0  0  0  0  0
   58.4880   27.6217   43.8729 F   0  0  0  0  0  0  0  0  0  0  0  0
   58.6868   29.7717   44.8927 C   0  0  0  0  0  0  0  0  0  0  0  0
   58.8295   30.5474   46.0456 C   0  0  0  0  0  0  0  0  0  0  0  0
  3  4  2  0
  4  5  1  0
  5  6  2  0
  6 11  1  0
 11 12  1  0
 12 13  1  0
 13 14  2  0
 13 15  1  0
 15 16  1  0
 16 17  1  0
  5  7  1  0
  7  8  2  0
  8  1  1  0
  1  2  2  0
  1 18  1  0
 18 19  1  0
 19 20  1  0
 20 21  1  0
 21 25  1  0
 25 26  1  0
 26 27  1  0
 27 28  1  0
 28 29  2  0
 29 30  1  0
 30 31  2  0
 31 32  1  0
 31 33  1  0
 33 34  2  0
 21 22  1  0
 22 23  1  0
  8  9  1  0
  9 10  1  0
  9  4  1  0
 16 11  2  0
 23 18  1  0
 34 28  1  0
 18 24  1  0
M  CHG 1  12  -1
M  CHG 1  15  -1
M  CHG 1  17  -1
M  CHG 1  18   1
M  END
> <UniqueID>
80

> <SMILES>
C=c1c(=Cc2[n-]c(=O)[n-]c2[O-])cc(C(=O)[NH+]2CCN(CCOc3ccc(F)cc3)CC2)n1C

> <Energy>
146.07197798985774

> <Genealogy>
C=c1c(=Cc2[n-]c(=O)[n-]c2[O-])cc(C(=O)[NH+]2CCN(CCOc3ccc(F)cc3)CC2)n1C (protonated)
C=c1c(=Cc2[n-]c(=O)[n-]c2[O-])cc(C(=O)[NH+]2CCN(CCOc3ccc(F)cc3)CC2)n1C (3D coordinates assigned)
C=c1c(=Cc2[n-]c(=O)[n-]c2[O-])cc(C(=O)[NH+]2CCN(CCOc3ccc(F)cc3)CC2)n1C (nonaromatic ring conformer: 146.07197798985774 kcal/mol)

> <smiles>
C=c1c(=Cc2[nH]c(=O)[nH]c2O)cc(C(=O)N2CCN(CCOc3ccc(F)cc3)CC2)n1C

> <score_type>
oracle

> <origin>
adg

> <m_score__min__energy>
-16.670000000000002

> <m_primary>
energy

> <minimizedAffinity>
-6.63080

> <minimizedRMSD>
0.95385

> <CNNscore>
0.0425607823

> <CNNaffinity>
5.1394023895

> <CNN_VS>
0.2187369913

> <CNNaffinity_variance>
0.7534708977

$$$$
15:0


 29 32  0  0  0  0  0  0  0  0999 V2000
   56.7176   29.6934   43.4775 C   0  0  0  0  0  0  0  0  0  0  0  0
   57.5247   29.6511   44.5453 C   0  0  0  0  0  0  0  0  0  0  0  0
   57.7537   30.8314   45.1847 N   0  0  0  0  0  0  0  0  0  0  0  0
   58.3800   30.9136   46.3832 C   0  0  0  0  0  0  0  0  0  0  0  0
   58.7768   29.7519   47.0467 C   0  0  0  0  0  0  0  0  0  0  0  0
   58.5647   28.5163   46.4222 C   0  0  0  0  0  0  0  0  0  0  0  0
   58.0217   28.4391   45.1231 C   0  0  0  0  0  0  0  0  0  0  0  0
   58.0403   27.2241   44.5180 C   0  0  0  0  0  0  0  0  0  0  0  0
   59.3938   29.8182   48.3899 C   0  0  0  0  0  0  0  0  0  0  0  0
   59.0183   29.0038   49.2779 O   0  0  0  0  0  0  0  0  0  0  0  0
   60.4157   30.7843   48.7013 N   0  0  0  0  0  0  0  0  0  0  0  0
   60.5427   31.2740   50.0810 C   0  0  0  0  0  0  0  0  0  0  0  0
   61.1007   32.7028   50.0866 C   0  0  0  0  0  0  0  0  0  0  0  0
   62.4074   32.8523   49.2549 C   0  0  0  0  0  0  0  0  0  0  0  0
   62.7371   31.6066   48.4038 C   0  0  0  0  0  0  0  0  0  0  0  0
   61.4819   31.0552   47.7229 C   0  0  0  0  0  0  0  0  0  0  0  0
   63.5928   33.2224   50.1289 C   0  0  0  0  0  0  0  0  0  0  0  0
   63.4189   34.0804   51.2322 C   0  0  0  0  0  0  0  0  0  0  0  0
   64.5100   34.4348   52.0313 C   0  0  0  0  0  0  0  0  0  0  0  0
   65.7837   33.9434   51.7372 C   0  0  0  0  0  0  0  0  0  0  0  0
   65.9702   33.0976   50.6420 C   0  0  0  0  0  0  0  0  0  0  0  0
   64.8832   32.7392   49.8391 C   0  0  0  0  0  0  0  0  0  0  0  0
   57.6559   25.9404   45.1374 C   0  0  0  0  0  0  0  0  0  0  0  0
   58.4383   24.8477   45.1948 N   0  0  0  0  0  0  0  0  0  0  0  0
   57.7182   23.9858   45.9448 C   0  0  0  0  0  0  0  0  0  0  0  0
   58.1191   22.8249   46.2187 O   0  0  0  0  0  0  0  0  0  0  0  0
   56.5387   24.4715   46.3883 N   0  0  0  0  0  0  0  0  0  0  0  0
   56.5220   25.7131   45.8781 C   0  0  0  0  0  0  0  0  0  0  0  0
   55.4913   26.6215   46.0873 O   0  0  0  0  0  0  0  0  0  0  0  0
  1  2  2  0
  2  3  1  0
  3  4  2  0
  4  5  1  0
  5  9  1  0
  9 10  2  0
  9 11  1  0
 11 12  1  0
 12 13  1  0
 13 14  1  0
 14 17  1  0
 17 18  2  0
 18 19  1  0
 19 20  2  0
 20 21  1  0
 21 22  2  0
 14 15  1  0
 15 16  1  0
  5  6  2  0
  6  7  1  0
  7  8  2  0
  8 23  1  0
 23 24  1  0
 24 25  1  0
 25 26  2  0
 25 27  1  0
 27 28  1  0
 28 29  1  0
  7  2  1  0
 28 23  2  0
 16 11  1  0
 22 17  1  0
M  CHG 1  24  -1
M  CHG 1  27  -1
M  CHG 1  29  -1
M  END
> <UniqueID>
14

> <SMILES>
C=c1ncc(C(=O)N2CCC(c3ccccc3)CC2)cc1=Cc1[n-]c(=O)[n-]c1[O-]

> <Energy>
108.3731249651602

> <Genealogy>
C=c1ncc(C(=O)N2CCC(c3ccccc3)CC2)cc1=Cc1[n-]c(=O)[n-]c1[O-] (protonated)
C=c1ncc(C(=O)N2CCC(c3ccccc3)CC2)cc1=Cc1[n-]c(=O)[n-]c1[O-] (3D coordinates assigned)
C=c1ncc(C(=O)N2CCC(c3ccccc3)CC2)cc1=Cc1[n-]c(=O)[n-]c1[O-] (nonaromatic ring conformer: 108.3731249651602 kcal/mol)

> <smiles>
C=c1ncc(C(=O)N2CCC(c3ccccc3)CC2)cc1=Cc1[nH]c(=O)[nH]c1O

> <score_type>
oracle

> <origin>
adg

> <m_score__min__energy>
-18

> <m_primary>
energy

> <minimizedAffinity>
-8.08427

> <minimizedRMSD>
0.68923

> <CNNscore>
0.1371091157

> <CNNaffinity>
6.3244233131

> <CNN_VS>
0.8671360612

> <CNNaffinity_variance>
0.0150016407

$$$$
16:0


 29 31  0  0  0  0  0  0  0  0999 V2000
   54.8919   29.1973   55.4565 C   0  0  0  0  0  0  0  0  0  0  0  0
   55.2205   29.9004   54.3588 C   0  0  0  0  0  0  0  0  0  0  0  0
   54.4497   30.0702   53.1978 C   0  0  0  0  0  0  0  0  0  0  0  0
   53.1729   29.7365   52.9244 C   0  0  0  0  0  0  0  0  0  0  0  0
   55.2823   30.6635   52.2643 C   0  0  0  0  0  0  0  0  0  0  0  0
   56.4883   30.8973   52.8906 C   0  0  0  0  0  0  0  0  0  0  0  0
   56.4533   30.4362   54.1634 N   0  0  0  0  0  0  0  0  0  0  0  0
   57.5866   30.3861   55.0952 C   0  0  0  0  0  0  0  0  0  0  0  0
   52.4127   30.1732   51.7455 C   0  0  0  0  0  0  0  0  0  0  0  0
   52.3703   29.4903   50.5903 N   0  0  0  0  0  0  0  0  0  0  0  0
   51.6667   30.3032   49.7736 C   0  0  0  0  0  0  0  0  0  0  0  0
   51.4014   29.9986   48.5789 O   0  0  0  0  0  0  0  0  0  0  0  0
   51.2826   31.4706   50.3302 N   0  0  0  0  0  0  0  0  0  0  0  0
   51.7712   31.3773   51.5765 C   0  0  0  0  0  0  0  0  0  0  0  0
   51.6597   32.3807   52.5282 O   0  0  0  0  0  0  0  0  0  0  0  0
   57.6878   31.4490   52.2295 C   0  0  0  0  0  0  0  0  0  0  0  0
   57.6699   32.6637   51.8809 O   0  0  0  0  0  0  0  0  0  0  0  0
   58.8428   30.6070   51.9494 N   0  0  0  0  0  0  0  0  0  0  0  0
   60.1192   31.3353   52.0180 C   0  0  0  0  0  0  0  0  0  0  0  0
   60.1642   32.4876   51.0193 C   0  0  0  0  0  0  0  0  0  0  0  0
   59.6101   32.1210   49.7044 N   0  0  0  0  0  0  0  0  0  0  0  0
   59.6331   33.1141   48.6601 C   0  0  0  0  0  0  0  0  0  0  0  0
   59.9880   34.3006   48.9211 O   0  0  0  0  0  0  0  0  0  0  0  0
   58.9370   30.8351   49.4228 C   0  0  0  0  0  0  0  0  0  0  0  0
   58.7514   29.9082   50.6492 C   0  0  0  0  0  0  0  0  0  0  0  0
   58.6331   31.1512   52.7426 H   0  0  0  0  0  0  0  0  0  0  0  0
   59.2687   32.7648   47.3561 O   0  0  0  0  0  0  0  0  0  0  0  0
   59.0438   33.7324   46.3353 C   0  0  0  0  0  0  0  0  0  0  0  0
   57.6424   33.5619   45.7700 C   0  0  0  0  0  0  0  0  0  0  0  0
  1  2  2  0
  2  3  1  0
  3  4  2  0
  4  9  1  0
  9 10  1  0
 10 11  1  0
 11 12  2  0
 11 13  1  0
 13 14  1  0
 14 15  1  0
  3  5  1  0
  5  6  2  0
  6 16  1  0
 16 17  2  0
 16 18  1  0
 18 19  1  0
 19 20  1  0
 20 21  1  0
 21 22  1  0
 22 23  2  0
 22 27  1  0
 27 28  1  0
 28 29  1  0
 21 24  1  0
 24 25  1  0
  6  7  1  0
  7  8  1  0
  7  2  1  0
 14  9  2  0
 25 18  1  0
 18 26  1  0
M  CHG 1  10  -1
M  CHG 1  13  -1
M  CHG 1  15  -1
M  CHG 1  18   1
M  END
> <UniqueID>
15

> <SMILES>
C=c1c(=Cc2[n-]c(=O)[n-]c2[O-])cc(C(=O)[NH+]2CCN(C(=O)OCC)CC2)n1C

> <Energy>
131.4137989402005

> <Genealogy>
C=c1c(=Cc2[n-]c(=O)[n-]c2[O-])cc(C(=O)[NH+]2CCN(C(=O)OCC)CC2)n1C (protonated)
C=c1c(=Cc2[n-]c(=O)[n-]c2[O-])cc(C(=O)[NH+]2CCN(C(=O)OCC)CC2)n1C (3D coordinates assigned)
C=c1c(=Cc2[n-]c(=O)[n-]c2[O-])cc(C(=O)[NH+]2CCN(C(=O)OCC)CC2)n1C (nonaromatic ring conformer: 131.4137989402005 kcal/mol)

> <smiles>
C=c1c(=Cc2[nH]c(=O)[nH]c2O)cc(C(=O)N2CCN(C(=O)OCC)CC2)n1C

> <score_type>
oracle

> <origin>
adg

> <m_score__min__energy>
-15.6

> <m_primary>
energy

> <minimizedAffinity>
-5.47410

> <minimizedRMSD>
1.17498

> <CNNscore>
0.1037054360

> <CNNaffinity>
5.0352768898

> <CNN_VS>
0.5221855640

> <CNNaffinity_variance>
0.1081940234

$$$$
21:0


 34 38  0  0  0  0  0  0  0  0999 V2000
   59.9706   30.9491   47.0098 C   0  0  0  0  0  0  0  0  0  0  0  0
   61.2368   31.2666   47.5211 C   0  0  0  0  0  0  0  0  0  0  0  0
   61.6813   32.5984   47.5460 C   0  0  0  0  0  0  0  0  0  0  0  0
   60.8550   33.6082   47.0295 C   0  0  0  0  0  0  0  0  0  0  0  0
   59.5892   33.2958   46.5269 C   0  0  0  0  0  0  0  0  0  0  0  0
   59.1429   31.9724   46.5222 C   0  0  0  0  0  0  0  0  0  0  0  0
   57.9029   31.6855   46.0489 F   0  0  0  0  0  0  0  0  0  0  0  0
   59.7147   29.1327   44.6695 C   0  0  0  0  0  0  0  0  0  0  0  0
   59.3950   28.7666   45.9219 C   0  0  0  0  0  0  0  0  0  0  0  0
   58.9287   27.5088   46.3315 C   0  0  0  0  0  0  0  0  0  0  0  0
   58.6843   26.4419   45.5402 C   0  0  0  0  0  0  0  0  0  0  0  0
   58.7833   27.5875   47.7132 C   0  0  0  0  0  0  0  0  0  0  0  0
   59.1461   28.8681   48.0815 C   0  0  0  0  0  0  0  0  0  0  0  0
   59.1743   29.3673   49.4941 C   0  0  0  0  0  0  0  0  0  0  0  0
   59.5211   29.5827   46.9993 N   0  0  0  0  0  0  0  0  0  0  0  0
   57.8800   25.2536   45.9067 C   0  0  0  0  0  0  0  0  0  0  0  0
   58.3386   23.9984   46.0554 N   0  0  0  0  0  0  0  0  0  0  0  0
   57.2376   23.2947   46.3959 C   0  0  0  0  0  0  0  0  0  0  0  0
   57.2667   22.0566   46.6222 O   0  0  0  0  0  0  0  0  0  0  0  0
   56.1038   24.0232   46.4762 N   0  0  0  0  0  0  0  0  0  0  0  0
   56.5276   25.2585   46.1656 C   0  0  0  0  0  0  0  0  0  0  0  0
   55.6949   26.3682   46.1189 O   0  0  0  0  0  0  0  0  0  0  0  0
   63.0224   32.9348   48.0737 C   0  0  0  0  0  0  0  0  0  0  0  0
   63.8625   33.4794   47.3071 O   0  0  0  0  0  0  0  0  0  0  0  0
   63.3767   32.6743   49.4455 N   0  0  0  0  0  0  0  0  0  0  0  0
   64.7590   32.3279   49.8031 C   0  0  0  0  0  0  0  0  0  0  0  0
   65.3199   33.3038   50.8616 C   0  0  0  0  0  0  0  0  0  0  0  0
   64.2578   34.0144   51.6071 N   0  0  0  0  0  0  0  0  0  0  0  0
   63.0930   33.1359   51.8537 C   0  0  0  0  0  0  0  0  0  0  0  0
   62.3913   32.8828   50.5179 C   0  0  0  0  0  0  0  0  0  0  0  0
   64.8327   34.7256   52.7807 C   0  0  0  0  0  0  0  0  0  0  0  0
   66.3381   34.8570   52.7370 C   0  0  0  0  0  0  0  0  0  0  0  0
   66.2805   36.2633   52.6683 O   0  0  0  0  0  0  0  0  0  0  0  0
   64.8719   36.2415   52.7304 C   0  0  0  0  0  0  0  0  0  0  0  0
  8  9  2  0
  9 10  1  0
 10 11  2  0
 11 16  1  0
 16 17  1  0
 17 18  1  0
 18 19  2  0
 18 20  1  0
 20 21  1  0
 21 22  1  0
 10 12  1  0
 12 13  2  0
 13 14  1  0
 13 15  1  0
 15  1  1  0
  1  2  2  0
  2  3  1  0
  3 23  1  0
 23 24  2  0
 23 25  1  0
 25 26  1  0
 26 27  1  0
 27 28  1  0
 28 31  1  0
 31 32  1  0
 32 33  1  0
 33 34  1  0
 28 29  1  0
 29 30  1  0
  3  4  2  0
  4  5  1  0
  5  6  2  0
  6  7  1  0
 15  9  1  0
  6  1  1  0
 21 16  2  0
 30 25  1  0
 34 31  1  0
M  CHG 1  17  -1
M  CHG 1  20  -1
M  CHG 1  22  -1
M  END
> <UniqueID>
20

> <SMILES>
C=c1/c(=C/c2[n-]c(=O)[n-]c2[O-])cc(C)n1-c1cc(C(=O)N2CCN(C3COC3)CC2)ccc1F

> <Energy>
211.2189338036026

> <Genealogy>
C=c1c(=Cc2[n-]c(=O)[n-]c2[O-])cc(C)n1-c1cc(C(=O)N2CCN(C3COC3)CC2)ccc1F (protonated)
C=c1/c(=C/c2[n-]c(=O)[n-]c2[O-])cc(C)n1-c1cc(C(=O)N2CCN(C3COC3)CC2)ccc1F (cis-trans isomerization)
C=c1/c(=C/c2[n-]c(=O)[n-]c2[O-])cc(C)n1-c1cc(C(=O)N2CCN(C3COC3)CC2)ccc1F (3D coordinates assigned)
C=c1/c(=C/c2[n-]c(=O)[n-]c2[O-])cc(C)n1-c1cc(C(=O)N2CCN(C3COC3)CC2)ccc1F (nonaromatic ring conformer: 211.2189338036026 kcal/mol)

> <smiles>
C=c1c(=Cc2[nH]c(=O)[nH]c2O)cc(C)n1-c1cc(C(=O)N2CCN(C3COC3)CC2)ccc1F

> <score_type>
oracle

> <origin>
adg

> <m_score__min__energy>
-17.690000000000001

> <m_primary>
energy

> <minimizedAffinity>
-9.24747

> <minimizedRMSD>
0.98802

> <CNNscore>
0.2573730648

> <CNNaffinity>
6.9978928566

> <CNN_VS>
1.8010691404

> <CNNaffinity_variance>
0.0172113255

$$$$
22:0


 25 27  0  0  0  0  0  0  0  0999 V2000
   57.7156   31.7645   42.5887 C   0  0  0  0  0  0  0  0  0  0  0  0
   57.9759   31.9441   43.8944 C   0  0  0  0  0  0  0  0  0  0  0  0
   58.1843   33.2226   44.2922 N   0  0  0  0  0  0  0  0  0  0  0  0
   58.5016   33.5569   45.5599 C   0  0  0  0  0  0  0  0  0  0  0  0
   58.6811   34.7728   45.8388 O   0  0  0  0  0  0  0  0  0  0  0  0
   58.6166   32.5893   46.5193 N   0  0  0  0  0  0  0  0  0  0  0  0
   58.3926   31.2753   46.1949 C   0  0  0  0  0  0  0  0  0  0  0  0
   58.4149   30.4100   47.1157 O   0  0  0  0  0  0  0  0  0  0  0  0
   58.0874   30.8894   44.8541 C   0  0  0  0  0  0  0  0  0  0  0  0
   57.8620   29.5857   44.5105 C   0  0  0  0  0  0  0  0  0  0  0  0
   58.3412   28.3964   45.2438 C   0  0  0  0  0  0  0  0  0  0  0  0
   59.7169   28.1435   45.3825 C   0  0  0  0  0  0  0  0  0  0  0  0
   60.1570   26.9861   46.0323 C   0  0  0  0  0  0  0  0  0  0  0  0
   59.2303   26.0656   46.5275 C   0  0  0  0  0  0  0  0  0  0  0  0
   57.8593   26.2952   46.3656 C   0  0  0  0  0  0  0  0  0  0  0  0
   56.9398   25.3727   46.8478 O   0  0  0  0  0  0  0  0  0  0  0  0
   57.4163   27.4518   45.7161 C   0  0  0  0  0  0  0  0  0  0  0  0
   58.9193   32.9644   47.9181 C   0  0  0  0  0  0  0  0  0  0  0  0
   59.8513   31.9417   48.5874 C   0  0  0  0  0  0  0  0  0  0  0  0
   61.2974   32.3436   48.4717 C   0  0  0  0  0  0  0  0  0  0  0  0
   61.7396   33.0945   47.3685 C   0  0  0  0  0  0  0  0  0  0  0  0
   63.0923   33.4270   47.2390 C   0  0  0  0  0  0  0  0  0  0  0  0
   64.0100   33.0100   48.2063 C   0  0  0  0  0  0  0  0  0  0  0  0
   63.5793   32.2576   49.3031 C   0  0  0  0  0  0  0  0  0  0  0  0
   62.2296   31.9212   49.4345 C   0  0  0  0  0  0  0  0  0  0  0  0
  1  2  2  0
  2  3  1  0
  3  4  1  0
  4  5  2  0
  4  6  1  0
  6 18  1  0
 18 19  1  0
 19 20  1  0
 20 21  2  0
 21 22  1  0
 22 23  2  0
 23 24  1  0
 24 25  2  0
  6  7  1  0
  7  8  2  0
  7  9  1  0
  9 10  2  0
 10 11  1  0
 11 12  2  0
 12 13  1  0
 13 14  2  0
 14 15  1  0
 15 16  1  0
 15 17  2  0
  9  2  1  0
 17 11  1  0
 25 20  1  0
M  CHG 1   3  -1
M  CHG 1  16  -1
M  END
> <UniqueID>
21

> <SMILES>
C=c1[n-]c(=O)n(CCc2ccccc2)c(=O)c1=Cc1cccc([O-])c1

> <Energy>
65.4312337003256

> <Genealogy>
C=c1[n-]c(=O)n(CCc2ccccc2)c(=O)c1=Cc1cccc([O-])c1 (protonated)
C=c1[n-]c(=O)n(CCc2ccccc2)c(=O)c1=Cc1cccc([O-])c1 (3D coordinates assigned)
C=c1[n-]c(=O)n(CCc2ccccc2)c(=O)c1=Cc1cccc([O-])c1 (optimized conformer: 65.4312337003256 kcal/mol)

> <smiles>
C=c1[nH]c(=O)n(CCc2ccccc2)c(=O)c1=Cc1cccc(O)c1

> <score_type>
oracle

> <origin>
adg

> <m_score__min__energy>
-14.01

> <m_primary>
energy

> <minimizedAffinity>
-8.28775

> <minimizedRMSD>
1.21822

> <CNNscore>
0.4407476485

> <CNNaffinity>
6.3071522713

> <CNN_VS>
2.7798626423

> <CNNaffinity_variance>
0.0004845296

$$$$
31:0


 33 36  0  0  0  0  0  0  0  0999 V2000
   59.0070   30.6107   52.9599 C   0  0  0  0  0  0  0  0  0  0  0  0
   59.1474   30.7093   51.5647 C   0  0  0  0  0  0  0  0  0  0  0  0
   59.7165   31.8506   50.9701 C   0  0  0  0  0  0  0  0  0  0  0  0
   60.1476   32.9018   51.8015 C   0  0  0  0  0  0  0  0  0  0  0  0
   60.0213   32.8041   53.1885 C   0  0  0  0  0  0  0  0  0  0  0  0
   59.4588   31.6666   53.7694 C   0  0  0  0  0  0  0  0  0  0  0  0
   59.3578   31.6014   55.1200 F   0  0  0  0  0  0  0  0  0  0  0  0
   59.8262   31.9298   49.4861 C   0  0  0  0  0  0  0  0  0  0  0  0
   59.0255   32.6842   48.8678 O   0  0  0  0  0  0  0  0  0  0  0  0
   60.8406   31.1892   48.7523 N   0  0  0  0  0  0  0  0  0  0  0  0
   62.1796   31.3247   49.3704 C   0  0  0  0  0  0  0  0  0  0  0  0
   62.7967   32.7147   49.1641 C   0  0  0  0  0  0  0  0  0  0  0  0
   62.7442   33.0868   47.7161 C   0  0  0  0  0  0  0  0  0  0  0  0
   63.6870   33.6626   47.1953 O   0  0  0  0  0  0  0  0  0  0  0  0
   61.4811   32.8592   46.9445 C   0  0  0  0  0  0  0  0  0  0  0  0
   60.8513   31.4986   47.2999 C   0  0  0  0  0  0  0  0  0  0  0  0
   60.8075   31.2603   47.7709 H   0  0  0  0  0  0  0  0  0  0  0  0
   58.3862   29.3770   53.5706 C   0  0  0  0  0  0  0  0  0  0  0  0
   56.5743   31.6063   52.5760 C   0  0  0  0  0  0  0  0  0  0  0  0
   56.1156   30.4543   53.0925 C   0  0  0  0  0  0  0  0  0  0  0  0
   54.7692   30.0618   53.1778 C   0  0  0  0  0  0  0  0  0  0  0  0
   53.6287   30.7563   52.9879 C   0  0  0  0  0  0  0  0  0  0  0  0
   54.7738   28.7315   53.5473 C   0  0  0  0  0  0  0  0  0  0  0  0
   56.0890   28.3782   53.7587 C   0  0  0  0  0  0  0  0  0  0  0  0
   56.5310   27.0093   54.1781 C   0  0  0  0  0  0  0  0  0  0  0  0
   56.9141   29.4171   53.4784 N   0  0  0  0  0  0  0  0  0  0  0  0
   52.7382   30.6445   51.8216 C   0  0  0  0  0  0  0  0  0  0  0  0
   52.9165   29.7872   50.7991 N   0  0  0  0  0  0  0  0  0  0  0  0
   51.9540   30.1451   49.9212 C   0  0  0  0  0  0  0  0  0  0  0  0
   51.7872   29.5548   48.8219 O   0  0  0  0  0  0  0  0  0  0  0  0
   51.1967   31.1938   50.3069 N   0  0  0  0  0  0  0  0  0  0  0  0
   51.7160   31.5061   51.5042 C   0  0  0  0  0  0  0  0  0  0  0  0
   51.2690   32.5602   52.2894 O   0  0  0  0  0  0  0  0  0  0  0  0
 19 20  2  0
 20 21  1  0
 21 22  2  0
 22 27  1  0
 27 28  1  0
 28 29  1  0
 29 30  2  0
 29 31  1  0
 31 32  1  0
 32 33  1  0
 21 23  1  0
 23 24  2  0
 24 25  1  0
 24 26  1  0
 26 18  1  0
 18  1  1  0
  1  2  2  0
  2  3  1  0
  3  8  1  0
  8  9  2  0
  8 10  1  0
 10 11  1  0
 11 12  1  0
 12 13  1  0
 13 14  2  0
 13 15  1  0
 15 16  1  0
  3  4  2  0
  4  5  1  0
  5  6  2  0
  6  7  1  0
 26 20  1  0
  6  1  1  0
 32 27  2  0
 16 10  1  0
 10 17  1  0
M  CHG 1  10   1
M  CHG 1  28  -1
M  CHG 1  31  -1
M  CHG 1  33  -1
M  END
> <UniqueID>
30

> <SMILES>
C=c1/c(=C\c2[n-]c(=O)[n-]c2[O-])cc(C)n1Cc1cc(C(=O)[NH+]2CCC(=O)CC2)ccc1F

> <Energy>
134.1324011221524

> <Genealogy>
C=c1c(=Cc2[n-]c(=O)[n-]c2[O-])cc(C)n1Cc1cc(C(=O)[NH+]2CCC(=O)CC2)ccc1F (protonated)
C=c1/c(=C\c2[n-]c(=O)[n-]c2[O-])cc(C)n1Cc1cc(C(=O)[NH+]2CCC(=O)CC2)ccc1F (cis-trans isomerization)
C=c1/c(=C\c2[n-]c(=O)[n-]c2[O-])cc(C)n1Cc1cc(C(=O)[NH+]2CCC(=O)CC2)ccc1F (3D coordinates assigned)
C=c1/c(=C\c2[n-]c(=O)[n-]c2[O-])cc(C)n1Cc1cc(C(=O)[NH+]2CCC(=O)CC2)ccc1F (nonaromatic ring conformer: 134.1324011221524 kcal/mol)

> <smiles>
C=c1c(=Cc2[nH]c(=O)[nH]c2O)cc(C)n1Cc1cc(C(=O)N2CCC(=O)CC2)ccc1F

> <score_type>
oracle

> <origin>
adg

> <m_score__min__energy>
-15.890000000000001

> <m_primary>
energy

> <minimizedAffinity>
-6.38770

> <minimizedRMSD>
0.83924

> <CNNscore>
0.0609627701

> <CNNaffinity>
5.2878532410

> <CNN_VS>
0.3223621845

> <CNNaffinity_variance>
0.1815314144

$$$$
34:0


 30 32  0  0  0  0  0  0  0  0999 V2000
   57.7228   32.0485   45.3705 C   0  0  0  0  0  0  0  0  0  0  0  0
   58.0298   33.0980   44.4858 C   0  0  0  0  0  0  0  0  0  0  0  0
   58.9086   34.1091   44.8774 C   0  0  0  0  0  0  0  0  0  0  0  0
   59.4926   34.0863   46.1454 C   0  0  0  0  0  0  0  0  0  0  0  0
   60.3478   35.0811   46.4913 F   0  0  0  0  0  0  0  0  0  0  0  0
   59.2035   33.0356   47.0343 C   0  0  0  0  0  0  0  0  0  0  0  0
   58.3341   32.0124   46.6283 C   0  0  0  0  0  0  0  0  0  0  0  0
   59.9151   32.9851   48.6549 S   0  0  0  0  0  0  0  0  0  0  0  0
   60.1152   34.3921   49.1459 O   0  0  0  0  0  0  0  0  0  0  0  0
   58.9703   32.2979   49.6019 O   0  0  0  0  0  0  0  0  0  0  0  0
   61.4509   32.1433   48.6676 N   0  0  0  0  0  0  0  0  0  0  0  0
   62.3325   32.5941   47.5698 C   0  0  0  0  0  0  0  0  0  0  0  0
   63.4576   33.5150   48.0746 C   0  0  0  0  0  0  0  0  0  0  0  0
   64.2849   32.9052   49.0564 O   0  0  0  0  0  0  0  0  0  0  0  0
   63.5960   31.9844   49.8946 C   0  0  0  0  0  0  0  0  0  0  0  0
   62.0846   32.2403   49.9960 C   0  0  0  0  0  0  0  0  0  0  0  0
   56.8383   30.9789   45.0029 N   0  0  0  0  0  0  0  0  0  0  0  0
   56.5262   29.9138   42.9380 O   0  0  0  0  0  0  0  0  0  0  0  0
   57.1102   29.9397   44.0550 C   0  0  0  0  0  0  0  0  0  0  0  0
   58.0112   28.8123   44.4389 C   0  0  0  0  0  0  0  0  0  0  0  0
   57.7941   28.4861   45.8418 N   0  0  0  0  0  0  0  0  0  0  0  0
   57.9288   27.1906   46.4419 C   0  0  0  0  0  0  0  0  0  0  0  0
   58.7647   27.0485   47.3729 O   0  0  0  0  0  0  0  0  0  0  0  0
   57.1737   26.0028   45.9911 C   0  0  0  0  0  0  0  0  0  0  0  0
   57.6094   25.0274   45.1075 C   0  0  0  0  0  0  0  0  0  0  0  0
   56.5527   24.1636   44.9318 C   0  0  0  0  0  0  0  0  0  0  0  0
   55.5279   24.6648   45.7041 C   0  0  0  0  0  0  0  0  0  0  0  0
   54.2614   24.1025   45.8128 O   0  0  0  0  0  0  0  0  0  0  0  0
   55.8903   25.7884   46.3474 N   0  0  0  0  0  0  0  0  0  0  0  0
   54.0556   23.3174   45.3446 H   0  0  0  0  0  0  0  0  0  0  0  0
 18 19  2  0
 19 20  1  0
 20 21  1  0
 21 22  1  0
 22 23  2  0
 22 24  1  0
 24 25  2  0
 25 26  1  0
 26 27  2  0
 27 28  1  0
 27 29  1  0
 19 17  1  0
 17  1  1  0
  1  2  2  0
  2  3  1  0
  3  4  2  0
  4  5  1  0
  4  6  1  0
  6  8  1  0
  8  9  2  0
  8 10  2  0
  8 11  1  0
 11 12  1  0
 12 13  1  0
 13 14  1  0
 14 15  1  0
 15 16  1  0
  6  7  2  0
 29 24  1  0
  7  1  1  0
 16 11  1  0
 28 30  1  0
M  CHG 1  17  -1
M  CHG 1  21  -1
M  CHG 1  29  -1
M  END
> <UniqueID>
33

> <SMILES>
O=C(C[N-]C(=O)c1ccc(O)[n-]1)[N-]c1ccc(F)c(S(=O)(=O)N2CCOCC2)c1

> <Energy>
87.58507568925721

> <Genealogy>
O=C(C[N-]C(=O)c1ccc(O)[n-]1)[N-]c1ccc(F)c(S(=O)(=O)N2CCOCC2)c1 (protonated)
O=C(C[N-]C(=O)c1ccc(O)[n-]1)[N-]c1ccc(F)c(S(=O)(=O)N2CCOCC2)c1 (3D coordinates assigned)
O=C(C[N-]C(=O)c1ccc(O)[n-]1)[N-]c1ccc(F)c(S(=O)(=O)N2CCOCC2)c1 (nonaromatic ring conformer: 87.58507568925721 kcal/mol)

> <smiles>
O=C(CNC(=O)c1ccc(O)[nH]1)Nc1ccc(F)c(S(=O)(=O)N2CCOCC2)c1

> <score_type>
oracle

> <origin>
adg

> <m_score__min__energy>
-14.68

> <m_primary>
energy

> <minimizedAffinity>
-8.32007

> <minimizedRMSD>
1.16940

> <CNNscore>
0.9171810746

> <CNNaffinity>
7.2969260216

> <CNN_VS>
6.6926026344

> <CNNaffinity_variance>
0.1128953472

$$$$
35:0


 32 35  0  0  0  0  0  0  0  0999 V2000
   58.3247   31.0116   46.2431 C   0  0  0  0  0  0  0  0  0  0  0  0
   57.5422   31.9561   45.9471 O   0  0  0  0  0  0  0  0  0  0  0  0
   59.2916   31.2102   47.3102 N   0  0  0  0  0  0  0  0  0  0  0  0
   58.9421   32.4137   48.1178 C   0  0  0  0  0  0  0  0  0  0  0  0
   60.1657   33.1729   48.6593 C   0  0  0  0  0  0  0  0  0  0  0  0
   61.2304   32.2332   49.0214 N   0  0  0  0  0  0  0  0  0  0  0  0
   61.7216   32.1722   50.3743 C   0  0  0  0  0  0  0  0  0  0  0  0
   60.9217   32.3538   51.3322 O   0  0  0  0  0  0  0  0  0  0  0  0
   61.6582   31.2290   48.0374 C   0  0  0  0  0  0  0  0  0  0  0  0
   60.6976   31.1937   46.8418 C   0  0  0  0  0  0  0  0  0  0  0  0
   59.2457   31.9756   47.9277 H   0  0  0  0  0  0  0  0  0  0  0  0
   63.1423   31.8879   50.6675 C   0  0  0  0  0  0  0  0  0  0  0  0
   63.5094   30.7472   51.4012 C   0  0  0  0  0  0  0  0  0  0  0  0
   64.8558   30.4766   51.6617 C   0  0  0  0  0  0  0  0  0  0  0  0
   65.8478   31.3364   51.1841 C   0  0  0  0  0  0  0  0  0  0  0  0
   65.4946   32.4646   50.4392 C   0  0  0  0  0  0  0  0  0  0  0  0
   64.1488   32.7386   50.1762 C   0  0  0  0  0  0  0  0  0  0  0  0
   56.8810   30.3467   43.5401 C   0  0  0  0  0  0  0  0  0  0  0  0
   57.4977   29.4637   44.3266 C   0  0  0  0  0  0  0  0  0  0  0  0
   58.1421   29.7248   45.5332 C   0  0  0  0  0  0  0  0  0  0  0  0
   58.5740   28.5035   46.0159 C   0  0  0  0  0  0  0  0  0  0  0  0
   58.1907   27.5556   45.0827 C   0  0  0  0  0  0  0  0  0  0  0  0
   58.4662   26.2470   45.1815 C   0  0  0  0  0  0  0  0  0  0  0  0
   57.5447   28.1444   44.0524 N   0  0  0  0  0  0  0  0  0  0  0  0
   57.1789   27.6967   43.2556 H   0  0  0  0  0  0  0  0  0  0  0  0
   57.6076   25.2717   45.8758 C   0  0  0  0  0  0  0  0  0  0  0  0
   58.0593   24.0989   46.3518 N   0  0  0  0  0  0  0  0  0  0  0  0
   56.9811   23.5755   46.9723 C   0  0  0  0  0  0  0  0  0  0  0  0
   57.0034   22.4536   47.5420 O   0  0  0  0  0  0  0  0  0  0  0  0
   55.8778   24.3529   46.9454 N   0  0  0  0  0  0  0  0  0  0  0  0
   56.2929   25.4286   46.2583 C   0  0  0  0  0  0  0  0  0  0  0  0
   55.5020   26.5484   46.0292 O   0  0  0  0  0  0  0  0  0  0  0  0
 18 19  2  0
 19 20  1  0
 20  1  1  0
  1  2  2  0
  1  3  1  0
  3  4  1  0
  4  5  1  0
  5  6  1  0
  6  7  1  0
  7  8  2  0
  7 12  1  0
 12 13  2  0
 13 14  1  0
 14 15  2  0
 15 16  1  0
 16 17  2  0
  6  9  1  0
  9 10  1  0
 20 21  2  0
 21 22  1  0
 22 23  2  0
 23 26  1  0
 26 27  1  0
 27 28  1  0
 28 29  2  0
 28 30  1  0
 30 31  1  0
 31 32  1  0
 22 24  1  0
 24 19  1  0
 10  3  1  0
 31 26  2  0
 17 12  1  0
  3 11  1  0
 24 25  1  0
M  CHG 1   3   1
M  CHG 1  27  -1
M  CHG 1  30  -1
M  CHG 1  32  -1
M  END
> <UniqueID>
34

> <SMILES>
C=c1[nH]/c(=C\c2[n-]c(=O)[n-]c2[O-])cc1C(=O)[NH+]1CCN(C(=O)c2ccccc2)CC1

> <Energy>
137.08183873120066

> <Genealogy>
C=c1[nH]c(=Cc2[n-]c(=O)[n-]c2[O-])cc1C(=O)[NH+]1CCN(C(=O)c2ccccc2)CC1 (protonated)
C=c1[nH]/c(=C\c2[n-]c(=O)[n-]c2[O-])cc1C(=O)[NH+]1CCN(C(=O)c2ccccc2)CC1 (cis-trans isomerization)
C=c1[nH]/c(=C\c2[n-]c(=O)[n-]c2[O-])cc1C(=O)[NH+]1CCN(C(=O)c2ccccc2)CC1 (3D coordinates assigned)
C=c1[nH]/c(=C\c2[n-]c(=O)[n-]c2[O-])cc1C(=O)[NH+]1CCN(C(=O)c2ccccc2)CC1 (nonaromatic ring conformer: 137.08183873120066 kcal/mol)

> <smiles>
C=c1[nH]c(=Cc2[nH]c(=O)[nH]c2O)cc1C(=O)N1CCN(C(=O)c2ccccc2)CC1

> <score_type>
oracle

> <origin>
adg

> <m_score__min__energy>
-16.969999999999999

> <m_primary>
energy

> <minimizedAffinity>
-8.76163

> <minimizedRMSD>
1.83725

> <CNNscore>
0.1145295501

> <CNNaffinity>
6.3946018219

> <CNN_VS>
0.7323708534

> <CNNaffinity_variance>
0.0559183657

$$$$
41:0


 36 40  0  0  0  0  0  0  0  0999 V2000
   59.7166   31.1202   47.8743 C   0  0  0  0  0  0  0  0  0  0  0  0
   60.9747   31.3297   47.2850 C   0  0  0  0  0  0  0  0  0  0  0  0
   62.1272   31.3724   48.0748 C   0  0  0  0  0  0  0  0  0  0  0  0
   62.0461   31.2047   49.4690 C   0  0  0  0  0  0  0  0  0  0  0  0
   60.7815   31.0037   50.0548 C   0  0  0  0  0  0  0  0  0  0  0  0
   59.6296   30.9661   49.2659 C   0  0  0  0  0  0  0  0  0  0  0  0
   63.2372   31.2409   50.2827 N   0  0  0  0  0  0  0  0  0  0  0  0
   63.3013   30.3857   51.4768 C   0  0  0  0  0  0  0  0  0  0  0  0
   64.6244   30.5463   52.2272 C   0  0  0  0  0  0  0  0  0  0  0  0
   65.7324   30.6696   51.2623 N   0  0  0  0  0  0  0  0  0  0  0  0
   65.6541   31.9642   50.5543 C   0  0  0  0  0  0  0  0  0  0  0  0
   64.2376   32.2931   50.0266 C   0  0  0  0  0  0  0  0  0  0  0  0
   65.6275   29.9252   50.5729 H   0  0  0  0  0  0  0  0  0  0  0  0
   67.0632   30.4473   51.8869 C   0  0  0  0  0  0  0  0  0  0  0  0
   67.5166   29.0001   51.8991 C   0  0  0  0  0  0  0  0  0  0  0  0
   67.9753   28.4061   53.0877 C   0  0  0  0  0  0  0  0  0  0  0  0
   68.4100   27.0796   53.0926 C   0  0  0  0  0  0  0  0  0  0  0  0
   68.3817   26.3301   51.9176 C   0  0  0  0  0  0  0  0  0  0  0  0
   67.9035   26.9006   50.7374 C   0  0  0  0  0  0  0  0  0  0  0  0
   67.4649   28.2278   50.7281 C   0  0  0  0  0  0  0  0  0  0  0  0
   58.4715   31.1112   47.0286 C   0  0  0  0  0  0  0  0  0  0  0  0
   58.7573   28.1622   47.7989 C   0  0  0  0  0  0  0  0  0  0  0  0
   58.5831   28.6046   46.5436 C   0  0  0  0  0  0  0  0  0  0  0  0
   58.5218   27.8320   45.3810 C   0  0  0  0  0  0  0  0  0  0  0  0
   58.6497   26.4951   45.2896 C   0  0  0  0  0  0  0  0  0  0  0  0
   58.3590   28.6453   44.3152 N   0  0  0  0  0  0  0  0  0  0  0  0
   58.3098   29.8820   44.8467 C   0  0  0  0  0  0  0  0  0  0  0  0
   58.1687   30.9186   44.1450 O   0  0  0  0  0  0  0  0  0  0  0  0
   58.4342   29.9039   46.1915 N   0  0  0  0  0  0  0  0  0  0  0  0
   57.7508   25.5233   45.9435 C   0  0  0  0  0  0  0  0  0  0  0  0
   58.1936   24.3594   46.4512 N   0  0  0  0  0  0  0  0  0  0  0  0
   57.0923   23.8161   47.0134 C   0  0  0  0  0  0  0  0  0  0  0  0
   57.1075   22.7012   47.5955 O   0  0  0  0  0  0  0  0  0  0  0  0
   55.9768   24.5693   46.9150 N   0  0  0  0  0  0  0  0  0  0  0  0
   56.4069   25.6547   46.2492 C   0  0  0  0  0  0  0  0  0  0  0  0
   55.5992   26.7503   45.9802 O   0  0  0  0  0  0  0  0  0  0  0  0
 22 23  2  0
 23 24  1  0
 24 25  2  0
 25 30  1  0
 30 31  1  0
 31 32  1  0
 32 33  2  0
 32 34  1  0
 34 35  1  0
 35 36  1  0
 24 26  1  0
 26 27  1  0
 27 28  2  0
 27 29  1  0
 29 21  1  0
 21  1  1  0
  1  2  2  0
  2  3  1  0
  3  4  2  0
  4  7  1  0
  7  8  1  0
  8  9  1  0
  9 10  1  0
 10 14  1  0
 14 15  1  0
 15 16  2  0
 16 17  1  0
 17 18  2  0
 18 19  1  0
 19 20  2  0
 10 11  1  0
 11 12  1  0
  4  5  1  0
  5  6  2  0
 29 23  1  0
  6  1  1  0
 35 30  2  0
 12  7  1  0
 20 15  1  0
 10 13  1  0
M  CHG 1  10   1
M  CHG 1  26  -1
M  CHG 1  31  -1
M  CHG 1  34  -1
M  CHG 1  36  -1
M  END
> <UniqueID>
40

> <SMILES>
C=c1/c(=C/c2[n-]c(=O)[n-]c2[O-])[n-]c(=O)n1Cc1ccc(N2CC[NH+](Cc3ccccc3)CC2)cc1

> <Energy>
146.61300749094897

> <Genealogy>
C=c1c(=Cc2[n-]c(=O)[n-]c2[O-])[n-]c(=O)n1Cc1ccc(N2CC[NH+](Cc3ccccc3)CC2)cc1 (protonated)
C=c1/c(=C/c2[n-]c(=O)[n-]c2[O-])[n-]c(=O)n1Cc1ccc(N2CC[NH+](Cc3ccccc3)CC2)cc1 (cis-trans isomerization)
C=c1/c(=C/c2[n-]c(=O)[n-]c2[O-])[n-]c(=O)n1Cc1ccc(N2CC[NH+](Cc3ccccc3)CC2)cc1 (3D coordinates assigned)
C=c1/c(=C/c2[n-]c(=O)[n-]c2[O-])[n-]c(=O)n1Cc1ccc(N2CC[NH+](Cc3ccccc3)CC2)cc1 (nonaromatic ring conformer: 146.61300749094897 kcal/mol)

> <smiles>
C=c1c(=Cc2[nH]c(=O)[nH]c2O)[nH]c(=O)n1Cc1ccc(N2CCN(Cc3ccccc3)CC2)cc1

> <score_type>
oracle

> <origin>
adg

> <m_score__min__energy>
-17.100000000000001

> <m_primary>
energy

> <minimizedAffinity>
-7.81269

> <minimizedRMSD>
0.78423

> <CNNscore>
0.1388481706

> <CNNaffinity>
6.4990773201

> <CNN_VS>
0.9023849964

> <CNNaffinity_variance>
0.0441734307

$$$$
42:0


 28 30  0  0  0  0  0  0  0  0999 V2000
   55.1202   27.9680   54.1238 C   0  0  0  0  0  0  0  0  0  0  0  0
   55.6182   29.0316   53.4736 C   0  0  0  0  0  0  0  0  0  0  0  0
   54.9048   30.1583   53.0270 C   0  0  0  0  0  0  0  0  0  0  0  0
   53.5812   30.3959   52.9417 C   0  0  0  0  0  0  0  0  0  0  0  0
   55.8562   31.0909   52.6513 C   0  0  0  0  0  0  0  0  0  0  0  0
   57.0880   30.4962   52.8216 C   0  0  0  0  0  0  0  0  0  0  0  0
   56.9479   29.2340   53.2850 N   0  0  0  0  0  0  0  0  0  0  0  0
   58.0421   28.3190   53.6313 C   0  0  0  0  0  0  0  0  0  0  0  0
   52.8148   30.5612   51.6971 C   0  0  0  0  0  0  0  0  0  0  0  0
   52.8812   29.7015   50.6654 N   0  0  0  0  0  0  0  0  0  0  0  0
   51.9323   30.1560   49.8177 C   0  0  0  0  0  0  0  0  0  0  0  0
   51.6977   29.6103   48.7087 O   0  0  0  0  0  0  0  0  0  0  0  0
   51.2456   31.2321   50.2591 N   0  0  0  0  0  0  0  0  0  0  0  0
   51.8039   31.4663   51.4578 C   0  0  0  0  0  0  0  0  0  0  0  0
   51.3819   32.4688   52.3245 O   0  0  0  0  0  0  0  0  0  0  0  0
   58.3766   31.1832   52.5854 C   0  0  0  0  0  0  0  0  0  0  0  0
   58.8851   31.8326   53.5398 O   0  0  0  0  0  0  0  0  0  0  0  0
   59.0667   31.1390   51.3082 N   0  0  0  0  0  0  0  0  0  0  0  0
   58.6351   30.0028   50.4591 C   0  0  0  0  0  0  0  0  0  0  0  0
   59.3963   30.0004   49.1298 C   0  0  0  0  0  0  0  0  0  0  0  0
   59.1757   31.2864   48.4430 N   0  0  0  0  0  0  0  0  0  0  0  0
   59.6520   32.4156   49.2638 C   0  0  0  0  0  0  0  0  0  0  0  0
   58.8962   32.4261   50.5993 C   0  0  0  0  0  0  0  0  0  0  0  0
   59.2675   30.5375   50.5552 H   0  0  0  0  0  0  0  0  0  0  0  0
   59.6793   31.3117   47.0522 C   0  0  0  0  0  0  0  0  0  0  0  0
   58.5867   31.2363   45.9744 C   0  0  0  0  0  0  0  0  0  0  0  0
   57.7079   32.3151   46.1389 O   0  0  0  0  0  0  0  0  0  0  0  0
   57.3050   32.2724   47.0203 H   0  0  0  0  0  0  0  0  0  0  0  0
  1  2  2  0
  2  3  1  0
  3  4  2  0
  4  9  1  0
  9 10  1  0
 10 11  1  0
 11 12  2  0
 11 13  1  0
 13 14  1  0
 14 15  1  0
  3  5  1  0
  5  6  2  0
  6 16  1  0
 16 17  2  0
 16 18  1  0
 18 19  1  0
 19 20  1  0
 20 21  1  0
 21 25  1  0
 25 26  1  0
 26 27  1  0
 21 22  1  0
 22 23  1  0
  6  7  1  0
  7  8  1  0
  7  2  1  0
 14  9  2  0
 23 18  1  0
 18 24  1  0
 27 28  1  0
M  CHG 1  10  -1
M  CHG 1  13  -1
M  CHG 1  15  -1
M  CHG 1  18   1
M  END
> <UniqueID>
41

> <SMILES>
C=c1c(=Cc2[n-]c(=O)[n-]c2[O-])cc(C(=O)[NH+]2CCN(CCO)CC2)n1C

> <Energy>
130.7648352933679

> <Genealogy>
C=c1c(=Cc2[n-]c(=O)[n-]c2[O-])cc(C(=O)[NH+]2CCN(CCO)CC2)n1C (protonated)
C=c1c(=Cc2[n-]c(=O)[n-]c2[O-])cc(C(=O)[NH+]2CCN(CCO)CC2)n1C (3D coordinates assigned)
C=c1c(=Cc2[n-]c(=O)[n-]c2[O-])cc(C(=O)[NH+]2CCN(CCO)CC2)n1C (nonaromatic ring conformer: 130.7648352933679 kcal/mol)

> <smiles>
C=c1c(=Cc2[nH]c(=O)[nH]c2O)cc(C(=O)N2CCN(CCO)CC2)n1C

> <score_type>
oracle

> <origin>
adg

> <m_score__min__energy>
-14.56

> <m_primary>
energy

> <minimizedAffinity>
-5.31517

> <minimizedRMSD>
1.06269

> <CNNscore>
0.0370803773

> <CNNaffinity>
4.6388430595

> <CNN_VS>
0.1720100492

> <CNNaffinity_variance>
0.0989400372

$$$$
49:0


 25 27  0  0  0  0  0  0  0  0999 V2000
   54.8800   28.4382   54.8323 C   0  0  0  0  0  0  0  0  0  0  0  0
   55.4280   29.0931   53.7953 C   0  0  0  0  0  0  0  0  0  0  0  0
   54.8118   30.0807   53.0108 C   0  0  0  0  0  0  0  0  0  0  0  0
   53.5249   30.4719   52.9289 C   0  0  0  0  0  0  0  0  0  0  0  0
   55.8173   30.6566   52.2566 C   0  0  0  0  0  0  0  0  0  0  0  0
   56.9840   29.9814   52.5502 C   0  0  0  0  0  0  0  0  0  0  0  0
   56.7433   29.0008   53.4572 N   0  0  0  0  0  0  0  0  0  0  0  0
   57.7332   28.0673   54.0100 C   0  0  0  0  0  0  0  0  0  0  0  0
   52.7477   30.6173   51.6896 C   0  0  0  0  0  0  0  0  0  0  0  0
   52.8109   29.7467   50.6667 N   0  0  0  0  0  0  0  0  0  0  0  0
   51.8604   30.1923   49.8174 C   0  0  0  0  0  0  0  0  0  0  0  0
   51.6244   29.6363   48.7127 O   0  0  0  0  0  0  0  0  0  0  0  0
   51.1757   31.2726   50.2479 N   0  0  0  0  0  0  0  0  0  0  0  0
   51.7374   31.5206   51.4411 C   0  0  0  0  0  0  0  0  0  0  0  0
   51.3183   32.5315   52.2972 O   0  0  0  0  0  0  0  0  0  0  0  0
   58.3006   30.3368   51.9746 C   0  0  0  0  0  0  0  0  0  0  0  0
   59.1576   30.9446   52.6689 O   0  0  0  0  0  0  0  0  0  0  0  0
   58.5576   30.0608   50.5912 N   0  0  0  0  0  0  0  0  0  0  0  0
   59.3188   30.8720   49.6853 C   0  0  0  0  0  0  0  0  0  0  0  0
   58.9010   32.1886   49.4508 C   0  0  0  0  0  0  0  0  0  0  0  0
   59.6021   33.0079   48.5601 C   0  0  0  0  0  0  0  0  0  0  0  0
   60.7200   32.5089   47.8832 C   0  0  0  0  0  0  0  0  0  0  0  0
   61.5969   33.5345   46.7634 Cl  0  0  0  0  0  0  0  0  0  0  0  0
   61.1290   31.1885   48.0920 C   0  0  0  0  0  0  0  0  0  0  0  0
   60.4292   30.3682   48.9825 C   0  0  0  0  0  0  0  0  0  0  0  0
  1  2  2  0
  2  3  1  0
  3  4  2  0
  4  9  1  0
  9 10  1  0
 10 11  1  0
 11 12  2  0
 11 13  1  0
 13 14  1  0
 14 15  1  0
  3  5  1  0
  5  6  2  0
  6 16  1  0
 16 17  2  0
 16 18  1  0
 18 19  1  0
 19 20  2  0
 20 21  1  0
 21 22  2  0
 22 23  1  0
 22 24  1  0
 24 25  2  0
  6  7  1  0
  7  8  1  0
  7  2  1  0
 14  9  2  0
 25 19  1  0
M  CHG 1  10  -1
M  CHG 1  13  -1
M  CHG 1  15  -1
M  CHG 1  18  -1
M  END
> <UniqueID>
48

> <SMILES>
C=c1/c(=C\c2[n-]c(=O)[n-]c2[O-])cc(C(=O)[N-]c2ccc(Cl)cc2)n1C

> <Energy>
114.62909863964501

> <Genealogy>
C=c1c(=Cc2[n-]c(=O)[n-]c2[O-])cc(C(=O)[N-]c2ccc(Cl)cc2)n1C (protonated)
C=c1/c(=C\c2[n-]c(=O)[n-]c2[O-])cc(C(=O)[N-]c2ccc(Cl)cc2)n1C (cis-trans isomerization)
C=c1/c(=C\c2[n-]c(=O)[n-]c2[O-])cc(C(=O)[N-]c2ccc(Cl)cc2)n1C (3D coordinates assigned)
C=c1/c(=C\c2[n-]c(=O)[n-]c2[O-])cc(C(=O)[N-]c2ccc(Cl)cc2)n1C (optimized conformer: 114.62909863964501 kcal/mol)

> <smiles>
C=c1c(=Cc2[nH]c(=O)[nH]c2O)cc(C(=O)Nc2ccc(Cl)cc2)n1C

> <score_type>
oracle

> <origin>
adg

> <m_score__min__energy>
-18.059999999999999

> <m_primary>
energy

> <minimizedAffinity>
-6.06419

> <minimizedRMSD>
1.25635

> <CNNscore>
0.1621123403

> <CNNaffinity>
5.3281626701

> <CNN_VS>
0.8637609482

> <CNNaffinity_variance>
0.0800641403

$$$$
60:0


 33 36  0  0  0  0  0  0  0  0999 V2000
   59.3276   32.1877   48.4145 C   0  0  0  0  0  0  0  0  0  0  0  0
   58.7486   31.7312   49.6081 C   0  0  0  0  0  0  0  0  0  0  0  0
   58.8741   32.4743   50.7831 C   0  0  0  0  0  0  0  0  0  0  0  0
   59.5869   33.6731   50.7784 C   0  0  0  0  0  0  0  0  0  0  0  0
   60.1749   34.1349   49.5992 C   0  0  0  0  0  0  0  0  0  0  0  0
   60.0401   33.4088   48.4015 C   0  0  0  0  0  0  0  0  0  0  0  0
   60.8446   29.7695   47.6457 C   0  0  0  0  0  0  0  0  0  0  0  0
   59.8326   30.2553   46.9092 C   0  0  0  0  0  0  0  0  0  0  0  0
   59.3784   29.7851   45.6659 C   0  0  0  0  0  0  0  0  0  0  0  0
   59.6794   28.6643   44.9816 C   0  0  0  0  0  0  0  0  0  0  0  0
   58.4682   30.7236   45.2067 C   0  0  0  0  0  0  0  0  0  0  0  0
   58.3495   31.6839   46.1910 C   0  0  0  0  0  0  0  0  0  0  0  0
   57.4192   32.8564   46.1418 C   0  0  0  0  0  0  0  0  0  0  0  0
   59.1761   31.4003   47.2206 N   0  0  0  0  0  0  0  0  0  0  0  0
   59.1084   27.3322   45.2266 C   0  0  0  0  0  0  0  0  0  0  0  0
   58.0100   26.8678   44.6048 N   0  0  0  0  0  0  0  0  0  0  0  0
   57.7808   25.6867   45.2182 C   0  0  0  0  0  0  0  0  0  0  0  0
   56.8278   24.9295   44.8964 O   0  0  0  0  0  0  0  0  0  0  0  0
   58.6457   25.3849   46.2108 N   0  0  0  0  0  0  0  0  0  0  0  0
   59.4718   26.4435   46.2134 C   0  0  0  0  0  0  0  0  0  0  0  0
   60.5214   26.6094   47.1109 O   0  0  0  0  0  0  0  0  0  0  0  0
   60.6976   25.9499   47.7527 H   0  0  0  0  0  0  0  0  0  0  0  0
   60.7139   33.8976   47.1776 C   0  0  0  0  0  0  0  0  0  0  0  0
   60.1412   34.7598   46.4597 O   0  0  0  0  0  0  0  0  0  0  0  0
   61.9785   33.3773   46.7501 N   0  0  0  0  0  0  0  0  0  0  0  0
   63.2285   33.4953   47.4989 C   0  0  0  0  0  0  0  0  0  0  0  0
   63.5334   32.1821   48.2203 C   0  0  0  0  0  0  0  0  0  0  0  0
   63.2215   32.2868   49.6903 C   0  0  0  0  0  0  0  0  0  0  0  0
   62.5581   31.2377   50.3483 C   0  0  0  0  0  0  0  0  0  0  0  0
   62.3127   31.3106   51.7227 C   0  0  0  0  0  0  0  0  0  0  0  0
   62.7324   32.4276   52.4498 C   0  0  0  0  0  0  0  0  0  0  0  0
   63.3998   33.4711   51.8046 C   0  0  0  0  0  0  0  0  0  0  0  0
   63.6495   33.4014   50.4309 C   0  0  0  0  0  0  0  0  0  0  0  0
  7  8  2  0
  8  9  1  0
  9 10  2  0
 10 15  1  0
 15 16  1  0
 16 17  1  0
 17 18  2  0
 17 19  1  0
 19 20  1  0
 20 21  1  0
  9 11  1  0
 11 12  2  0
 12 13  1  0
 12 14  1  0
 14  1  1  0
  1  2  2  0
  2  3  1  0
  3  4  2  0
  4  5  1  0
  5  6  2  0
  6 23  1  0
 23 24  2  0
 23 25  1  0
 25 26  1  0
 26 27  1  0
 27 28  1  0
 28 29  2  0
 29 30  1  0
 30 31  2  0
 31 32  1  0
 32 33  2  0
 14  8  1  0
  6  1  1  0
 33 28  1  0
 20 15  2  0
 21 22  1  0
M  CHG 1  16  -1
M  CHG 1  19  -1
M  CHG 1  25  -1
M  END
> <UniqueID>
58

> <SMILES>
C=c1c(=Cc2[n-]c(=O)[n-]c2O)cc(C)n1-c1ccccc1C(=O)[N-]CCc1ccccc1

> <Energy>
133.68355428203455

> <Genealogy>
C=c1c(=Cc2[n-]c(=O)[n-]c2O)cc(C)n1-c1ccccc1C(=O)[N-]CCc1ccccc1 (protonated)
C=c1c(=Cc2[n-]c(=O)[n-]c2O)cc(C)n1-c1ccccc1C(=O)[N-]CCc1ccccc1 (3D coordinates assigned)
C=c1c(=Cc2[n-]c(=O)[n-]c2O)cc(C)n1-c1ccccc1C(=O)[N-]CCc1ccccc1 (optimized conformer: 133.68355428203455 kcal/mol)

> <smiles>
C=c1c(=Cc2[nH]c(=O)[nH]c2O)cc(C)n1-c1ccccc1C(=O)NCCc1ccccc1

> <score_type>
oracle

> <origin>
adg

> <m_score__min__energy>
-15.890000000000001

> <m_primary>
energy

> <minimizedAffinity>
-7.67774

> <minimizedRMSD>
1.32563

> <CNNscore>
0.3189513981

> <CNNaffinity>
7.0335464478

> <CNN_VS>
2.2433595657

> <CNNaffinity_variance>
0.0417930298

$$$$
4:0


 24 26  0  0  0  0  0  0  0  0999 V2000
   55.5665   28.2355   53.8444 C   0  0  0  0  0  0  0  0  0  0  0  0
   55.8782   29.3493   53.1721 C   0  0  0  0  0  0  0  0  0  0  0  0
   54.9970   30.3109   52.6704 C   0  0  0  0  0  0  0  0  0  0  0  0
   53.6566   30.3331   52.7938 C   0  0  0  0  0  0  0  0  0  0  0  0
   55.7882   31.2717   52.0555 C   0  0  0  0  0  0  0  0  0  0  0  0
   57.0921   30.8444   52.1951 C   0  0  0  0  0  0  0  0  0  0  0  0
   57.1486   29.6835   52.8688 N   0  0  0  0  0  0  0  0  0  0  0  0
   57.9603   29.1753   53.0969 H   0  0  0  0  0  0  0  0  0  0  0  0
   52.7269   30.4575   51.6573 C   0  0  0  0  0  0  0  0  0  0  0  0
   52.7871   29.6762   50.5658 N   0  0  0  0  0  0  0  0  0  0  0  0
   51.8255   30.1835   49.7631 C   0  0  0  0  0  0  0  0  0  0  0  0
   51.5647   29.6999   48.6303 O   0  0  0  0  0  0  0  0  0  0  0  0
   51.1762   31.2548   50.2642 N   0  0  0  0  0  0  0  0  0  0  0  0
   51.7651   31.4244   51.4586 C   0  0  0  0  0  0  0  0  0  0  0  0
   51.4618   32.4704   52.3220 O   0  0  0  0  0  0  0  0  0  0  0  0
   58.5282   31.6983   51.5553 S   0  0  0  0  0  0  0  0  0  0  0  0
   59.5434   30.2250   51.6551 C   0  0  0  0  0  0  0  0  0  0  0  0
   60.0235   29.7885   52.8947 C   0  0  0  0  0  0  0  0  0  0  0  0
   60.8283   28.6472   52.9731 C   0  0  0  0  0  0  0  0  0  0  0  0
   61.1574   27.9286   51.8065 C   0  0  0  0  0  0  0  0  0  0  0  0
   60.6672   28.3730   50.5710 C   0  0  0  0  0  0  0  0  0  0  0  0
   59.8642   29.5138   50.4942 C   0  0  0  0  0  0  0  0  0  0  0  0
   61.9609   26.7807   51.8313 O   0  0  0  0  0  0  0  0  0  0  0  0
   61.5025   25.4878   52.2113 C   0  0  0  0  0  0  0  0  0  0  0  0
  1  2  2  0
  2  3  1  0
  3  4  2  0
  4  9  1  0
  9 10  1  0
 10 11  1  0
 11 12  2  0
 11 13  1  0
 13 14  1  0
 14 15  1  0
  3  5  1  0
  5  6  2  0
  6 16  1  0
 16 17  1  0
 17 18  2  0
 18 19  1  0
 19 20  2  0
 20 23  1  0
 23 24  1  0
 20 21  1  0
 21 22  2  0
  6  7  1  0
  7  2  1  0
 14  9  2  0
 22 17  1  0
  7  8  1  0
M  CHG 1  10  -1
M  CHG 1  13  -1
M  CHG 1  15  -1
M  END
> <UniqueID>
5

> <SMILES>
C=c1[nH]c(Sc2ccc(OC)cc2)c/c1=C\c1[n-]c(=O)[n-]c1[O-]

> <Energy>
95.0948711637888

> <Genealogy>
C=c1[nH]c(Sc2ccc(OC)cc2)cc1=Cc1[n-]c(=O)[n-]c1[O-] (protonated)
C=c1[nH]c(Sc2ccc(OC)cc2)c/c1=C\c1[n-]c(=O)[n-]c1[O-] (cis-trans isomerization)
C=c1[nH]c(Sc2ccc(OC)cc2)c/c1=C\c1[n-]c(=O)[n-]c1[O-] (3D coordinates assigned)
C=c1[nH]c(Sc2ccc(OC)cc2)c/c1=C\c1[n-]c(=O)[n-]c1[O-] (optimized conformer: 95.0948711637888 kcal/mol)

> <smiles>
C=c1[nH]c(Sc2ccc(OC)cc2)cc1=Cc1[nH]c(=O)[nH]c1O

> <score_type>
oracle

> <origin>
adg

> <m_score__min__energy>
-15.720000000000001

> <m_primary>
energy

> <minimizedAffinity>
-4.17230

> <minimizedRMSD>
1.36191

> <CNNscore>
0.2476468831

> <CNNaffinity>
4.7056536674

> <CNN_VS>
1.1653404236

> <CNNaffinity_variance>
0.2718482614

$$$$
7:0


 36 39  0  0  0  0  0  0  0  0999 V2000
   58.3713   29.1242   45.4196 C   0  0  0  0  0  0  0  0  0  0  0  0
   57.5731   29.0330   44.2648 C   0  0  0  0  0  0  0  0  0  0  0  0
   57.0673   30.1860   43.6591 C   0  0  0  0  0  0  0  0  0  0  0  0
   57.3515   31.4414   44.1955 C   0  0  0  0  0  0  0  0  0  0  0  0
   58.1638   31.5547   45.3330 C   0  0  0  0  0  0  0  0  0  0  0  0
   58.6824   30.3971   45.9332 C   0  0  0  0  0  0  0  0  0  0  0  0
   58.5754   26.5861   45.5252 N   0  0  0  0  0  0  0  0  0  0  0  0
   58.8711   27.8865   46.0681 C   0  0  0  0  0  0  0  0  0  0  0  0
   59.6076   27.9802   47.0902 O   0  0  0  0  0  0  0  0  0  0  0  0
   58.0155   26.5250   44.7178 H   0  0  0  0  0  0  0  0  0  0  0  0
   59.0775   25.3521   46.1310 C   0  0  0  0  0  0  0  0  0  0  0  0
   58.1662   23.5550   44.8422 O   0  0  0  0  0  0  0  0  0  0  0  0
   58.1220   24.2180   45.9153 C   0  0  0  0  0  0  0  0  0  0  0  0
   57.0419   24.0274   46.8385 N   0  0  0  0  0  0  0  0  0  0  0  0
   56.0601   23.1677   46.7817 C   0  0  0  0  0  0  0  0  0  0  0  0
   56.3207   21.8860   47.1663 N   0  0  0  0  0  0  0  0  0  0  0  0
   55.3732   20.9122   47.1633 C   0  0  0  0  0  0  0  0  0  0  0  0
   54.0748   21.2036   46.7486 C   0  0  0  0  0  0  0  0  0  0  0  0
   53.7738   22.4939   46.3170 C   0  0  0  0  0  0  0  0  0  0  0  0
   54.7615   23.4853   46.3101 C   0  0  0  0  0  0  0  0  0  0  0  0
   54.4407   24.7338   45.7867 O   0  0  0  0  0  0  0  0  0  0  0  0
   58.4870   33.1450   46.0355 S   0  0  0  0  0  0  0  0  0  0  0  0
   57.1871   33.7840   46.4391 O   0  0  0  0  0  0  0  0  0  0  0  0
   59.1364   34.0205   44.9997 O   0  0  0  0  0  0  0  0  0  0  0  0
   59.5115   33.0152   47.4504 N   0  0  0  0  0  0  0  0  0  0  0  0
   58.8051   32.2771   48.5160 C   0  0  0  0  0  0  0  0  0  0  0  0
   59.7378   32.0026   49.6965 C   0  0  0  0  0  0  0  0  0  0  0  0
   60.9231   31.2486   49.2568 N   0  0  0  0  0  0  0  0  0  0  0  0
   61.2259   31.1737   47.8197 C   0  0  0  0  0  0  0  0  0  0  0  0
   60.8621   32.4949   47.1169 C   0  0  0  0  0  0  0  0  0  0  0  0
   61.7085   30.5073   50.2204 C   0  0  0  0  0  0  0  0  0  0  0  0
   62.9553   30.9962   50.6616 C   0  0  0  0  0  0  0  0  0  0  0  0
   63.7150   30.2773   51.5914 C   0  0  0  0  0  0  0  0  0  0  0  0
   63.2430   29.0625   52.0938 C   0  0  0  0  0  0  0  0  0  0  0  0
   62.0069   28.5692   51.6739 C   0  0  0  0  0  0  0  0  0  0  0  0
   61.2414   29.2845   50.7486 C   0  0  0  0  0  0  0  0  0  0  0  0
 12 13  2  0
 13 11  1  0
 11  7  1  0
  7  8  1  0
  8  9  2  0
  8  1  1  0
  1  2  2  0
  2  3  1  0
  3  4  2  0
  4  5  1  0
  5 22  1  0
 22 23  2  0
 22 24  2  0
 22 25  1  0
 25 26  1  0
 26 27  1  0
 27 28  1  0
 28 31  1  0
 31 32  2  0
 32 33  1  0
 33 34  2  0
 34 35  1  0
 35 36  2  0
 28 29  1  0
 29 30  1  0
  5  6  2  0
 13 14  1  0
 14 15  2  0
 15 16  1  0
 16 17  1  0
 17 18  2  0
 18 19  1  0
 19 20  2  0
 20 21  1  0
  6  1  1  0
 20 15  1  0
 30 25  1  0
 36 31  1  0
  7 10  1  0
M  CHG 1  16  -1
M  CHG 1  21  -1
M  END
> <UniqueID>
8

> <SMILES>
O=C(CNC(=O)c1cccc(S(=O)(=O)N2CCN(c3ccccc3)CC2)c1)N=c1[n-]cccc1[O-]

> <Energy>
82.10150364173558

> <Genealogy>
O=C(CNC(=O)c1cccc(S(=O)(=O)N2CCN(c3ccccc3)CC2)c1)N=c1[n-]cccc1[O-] (protonated)
O=C(CNC(=O)c1cccc(S(=O)(=O)N2CCN(c3ccccc3)CC2)c1)N=c1[n-]cccc1[O-] (3D coordinates assigned)
O=C(CNC(=O)c1cccc(S(=O)(=O)N2CCN(c3ccccc3)CC2)c1)N=c1[n-]cccc1[O-] (nonaromatic ring conformer: 82.10150364173558 kcal/mol)

> <smiles>
O=C(CNC(=O)c1cccc(S(=O)(=O)N2CCN(c3ccccc3)CC2)c1)N=c1[nH]cccc1O

> <score_type>
oracle

> <origin>
adg

> <m_score__min__energy>
-15.43

> <m_primary>
energy

> <minimizedAffinity>
-8.31920

> <minimizedRMSD>
1.97139

> <CNNscore>
0.1276320517

> <CNNaffinity>
6.4913306236

> <CNN_VS>
0.8285018206

> <CNNaffinity_variance>
0.0099102156

$$$$
18:0


 30 32  0  0  0  0  0  0  0  0999 V2000
   58.8762   30.4271   45.1086 N   0  0  0  0  0  0  0  0  0  0  0  0
   59.4595   31.4788   45.7583 C   0  0  0  0  0  0  0  0  0  0  0  0
   58.7500   32.6666   46.0002 C   0  0  0  0  0  0  0  0  0  0  0  0
   57.4133   32.7208   45.5616 C   0  0  0  0  0  0  0  0  0  0  0  0
   56.7147   33.7558   45.7292 O   0  0  0  0  0  0  0  0  0  0  0  0
   56.8630   31.6515   44.9368 N   0  0  0  0  0  0  0  0  0  0  0  0
   57.5677   30.5154   44.7092 C   0  0  0  0  0  0  0  0  0  0  0  0
   57.0037   29.5523   44.1268 O   0  0  0  0  0  0  0  0  0  0  0  0
   59.3929   33.8200   46.6952 C   0  0  0  0  0  0  0  0  0  0  0  0
   59.6832   34.8581   46.0412 O   0  0  0  0  0  0  0  0  0  0  0  0
   59.7296   33.7895   48.1645 C   0  0  0  0  0  0  0  0  0  0  0  0
   61.0920   33.1866   48.3984 C   0  0  0  0  0  0  0  0  0  0  0  0
   62.1366   33.4276   47.4882 C   0  0  0  0  0  0  0  0  0  0  0  0
   63.3959   32.8602   47.6957 C   0  0  0  0  0  0  0  0  0  0  0  0
   63.6266   32.0546   48.8142 C   0  0  0  0  0  0  0  0  0  0  0  0
   62.5973   31.8179   49.7289 C   0  0  0  0  0  0  0  0  0  0  0  0
   61.3351   32.3818   49.5252 C   0  0  0  0  0  0  0  0  0  0  0  0
   59.6571   29.1980   44.8974 C   0  0  0  0  0  0  0  0  0  0  0  0
   58.6976   26.2892   47.1730 C   0  0  0  0  0  0  0  0  0  0  0  0
   59.4379   26.5971   48.3294 C   0  0  0  0  0  0  0  0  0  0  0  0
   60.2345   27.7444   48.3688 C   0  0  0  0  0  0  0  0  0  0  0  0
   60.2991   28.5941   47.2624 C   0  0  0  0  0  0  0  0  0  0  0  0
   59.5604   28.3044   46.1067 C   0  0  0  0  0  0  0  0  0  0  0  0
   58.7678   27.1453   46.0672 C   0  0  0  0  0  0  0  0  0  0  0  0
   57.8700   25.1217   47.0864 N   0  0  0  0  0  0  0  0  0  0  0  0
   55.5092   26.2575   46.0121 N   0  0  0  0  0  0  0  0  0  0  0  0
   56.5764   24.8980   45.9560 S   0  0  0  0  0  0  0  0  0  0  0  0
   57.1341   24.7374   44.5701 O   0  0  0  0  0  0  0  0  0  0  0  0
   55.8138   23.6575   46.3256 O   0  0  0  0  0  0  0  0  0  0  0  0
   54.7496   26.1213   45.3451 H   0  0  0  0  0  0  0  0  0  0  0  0
 26 27  1  0
 27 28  2  0
 27 29  2  0
 27 25  1  0
 25 19  1  0
 19 20  2  0
 20 21  1  0
 21 22  2  0
 22 23  1  0
 23 18  1  0
 18  1  1  0
  1  2  1  0
  2  3  2  0
  3  9  1  0
  9 10  2  0
  9 11  1  0
 11 12  1  0
 12 13  2  0
 13 14  1  0
 14 15  2  0
 15 16  1  0
 16 17  2  0
  3  4  1  0
  4  5  2  0
  4  6  1  0
  6  7  1  0
  7  8  2  0
 23 24  2  0
 24 19  1  0
  7  1  1  0
 17 12  1  0
 26 30  1  0
M  CHG 1   6  -1
M  CHG 1  25  -1
M  CHG 1  26  -1
M  END
> <UniqueID>
19

> <SMILES>
[NH-]S(=O)(=O)[N-]c1cccc(Cn2cc(C(=O)Cc3ccccc3)c(=O)[n-]c2=O)c1

> <Energy>
51.582874898500854

> <Genealogy>
[NH-]S(=O)(=O)[N-]c1cccc(Cn2cc(C(=O)Cc3ccccc3)c(=O)[n-]c2=O)c1 (protonated)
[NH-]S(=O)(=O)[N-]c1cccc(Cn2cc(C(=O)Cc3ccccc3)c(=O)[n-]c2=O)c1 (3D coordinates assigned)
[NH-]S(=O)(=O)[N-]c1cccc(Cn2cc(C(=O)Cc3ccccc3)c(=O)[n-]c2=O)c1 (optimized conformer: 51.582874898500854 kcal/mol)

> <smiles>
NS(=O)(=O)Nc1cccc(Cn2cc(C(=O)Cc3ccccc3)c(=O)[nH]c2=O)c1

> <score_type>
oracle

> <origin>
adg

> <m_score__min__energy>
-14.91

> <m_primary>
energy

> <minimizedAffinity>
-7.86643

> <minimizedRMSD>
0.87701

> <CNNscore>
0.7366507053

> <CNNaffinity>
7.1730513573

> <CNN_VS>
5.2840332985

> <CNNaffinity_variance>
0.1133146808

$$$$
19:0


 32 35  0  0  0  0  0  0  0  0999 V2000
   58.4582   30.9976   46.0535 C   0  0  0  0  0  0  0  0  0  0  0  0
   57.8233   31.8822   45.2397 N   0  0  0  0  0  0  0  0  0  0  0  0
   57.6270   33.1707   45.6274 C   0  0  0  0  0  0  0  0  0  0  0  0
   58.1016   33.6020   46.8250 N   0  0  0  0  0  0  0  0  0  0  0  0
   58.7723   32.7635   47.6588 C   0  0  0  0  0  0  0  0  0  0  0  0
   58.9294   31.4214   47.2988 C   0  0  0  0  0  0  0  0  0  0  0  0
   56.5451   29.0823   44.7995 C   0  0  0  0  0  0  0  0  0  0  0  0
   57.8185   28.7719   45.0913 C   0  0  0  0  0  0  0  0  0  0  0  0
   58.4402   27.5297   44.9005 C   0  0  0  0  0  0  0  0  0  0  0  0
   57.8614   26.3998   44.4397 C   0  0  0  0  0  0  0  0  0  0  0  0
   59.7579   27.6925   45.3157 C   0  0  0  0  0  0  0  0  0  0  0  0
   59.8836   29.0019   45.7360 C   0  0  0  0  0  0  0  0  0  0  0  0
   61.1170   29.5802   46.3600 C   0  0  0  0  0  0  0  0  0  0  0  0
   58.7124   29.6565   45.6024 N   0  0  0  0  0  0  0  0  0  0  0  0
   57.4498   25.2433   45.2673 C   0  0  0  0  0  0  0  0  0  0  0  0
   58.1169   24.0816   45.3911 N   0  0  0  0  0  0  0  0  0  0  0  0
   57.3307   23.3497   46.2071 C   0  0  0  0  0  0  0  0  0  0  0  0
   57.6274   22.1801   46.5659 O   0  0  0  0  0  0  0  0  0  0  0  0
   56.1988   23.9659   46.6061 N   0  0  0  0  0  0  0  0  0  0  0  0
   56.2891   25.1609   45.9998 C   0  0  0  0  0  0  0  0  0  0  0  0
   55.3269   26.1583   46.1149 O   0  0  0  0  0  0  0  0  0  0  0  0
   59.3137   33.2803   48.9301 C   0  0  0  0  0  0  0  0  0  0  0  0
   59.9695   34.3558   48.9168 O   0  0  0  0  0  0  0  0  0  0  0  0
   59.1514   32.5868   50.1782 N   0  0  0  0  0  0  0  0  0  0  0  0
   60.2304   32.0220   50.9854 C   0  0  0  0  0  0  0  0  0  0  0  0
   61.0975   31.0857   50.1389 C   0  0  0  0  0  0  0  0  0  0  0  0
   62.5173   31.5858   50.0723 C   0  0  0  0  0  0  0  0  0  0  0  0
   62.9092   32.4836   49.0676 C   0  0  0  0  0  0  0  0  0  0  0  0
   64.2164   32.9750   49.0551 C   0  0  0  0  0  0  0  0  0  0  0  0
   65.0991   32.5886   50.0140 N   0  0  0  0  0  0  0  0  0  0  0  0
   64.7443   31.7248   51.0028 C   0  0  0  0  0  0  0  0  0  0  0  0
   63.4461   31.2117   51.0536 C   0  0  0  0  0  0  0  0  0  0  0  0
  7  8  2  0
  8  9  1  0
  9 10  2  0
 10 15  1  0
 15 16  1  0
 16 17  1  0
 17 18  2  0
 17 19  1  0
 19 20  1  0
 20 21  1  0
  9 11  1  0
 11 12  2  0
 12 13  1  0
 12 14  1  0
 14  1  1  0
  1  2  2  0
  2  3  1  0
  3  4  2  0
  4  5  1  0
  5 22  1  0
 22 23  2  0
 22 24  1  0
 24 25  1  0
 25 26  1  0
 26 27  1  0
 27 28  2  0
 28 29  1  0
 29 30  2  0
 30 31  1  0
 31 32  2  0
  5  6  2  0
 14  8  1  0
  6  1  1  0
 20 15  2  0
 32 27  1  0
M  CHG 1  16  -1
M  CHG 1  19  -1
M  CHG 1  21  -1
M  CHG 1  24  -1
M  END
> <UniqueID>
20

> <SMILES>
C=c1/c(=C/c2[n-]c(=O)[n-]c2[O-])cc(C)n1-c1cc(C(=O)[N-]CCc2ccncc2)ncn1

> <Energy>
123.3189192332521

> <Genealogy>
C=c1c(=Cc2[n-]c(=O)[n-]c2[O-])cc(C)n1-c1cc(C(=O)[N-]CCc2ccncc2)ncn1 (protonated)
C=c1/c(=C/c2[n-]c(=O)[n-]c2[O-])cc(C)n1-c1cc(C(=O)[N-]CCc2ccncc2)ncn1 (cis-trans isomerization)
C=c1/c(=C/c2[n-]c(=O)[n-]c2[O-])cc(C)n1-c1cc(C(=O)[N-]CCc2ccncc2)ncn1 (3D coordinates assigned)
C=c1/c(=C/c2[n-]c(=O)[n-]c2[O-])cc(C)n1-c1cc(C(=O)[N-]CCc2ccncc2)ncn1 (optimized conformer: 123.3189192332521 kcal/mol)

> <smiles>
C=c1c(=Cc2[nH]c(=O)[nH]c2O)cc(C)n1-c1cc(C(=O)NCCc2ccncc2)ncn1

> <score_type>
oracle

> <origin>
adg

> <m_score__min__energy>
-17.449999999999999

> <m_primary>
energy

> <minimizedAffinity>
-7.75095

> <minimizedRMSD>
1.33724

> <CNNscore>
0.1447655559

> <CNNaffinity>
6.8417892456

> <CNN_VS>
0.9904554486

> <CNNaffinity_variance>
0.1286313087

$$$$
24:0


 31 33  0  0  0  0  0  0  0  0999 V2000
   59.5844   27.1677   46.8743 C   0  0  0  0  0  0  0  0  0  0  0  0
   58.9109   27.9487   46.0150 C   0  0  0  0  0  0  0  0  0  0  0  0
   58.1745   27.5246   44.8956 C   0  0  0  0  0  0  0  0  0  0  0  0
   57.8056   26.2937   44.4884 C   0  0  0  0  0  0  0  0  0  0  0  0
   57.8066   28.6716   44.2175 C   0  0  0  0  0  0  0  0  0  0  0  0
   58.2483   29.7440   44.9633 C   0  0  0  0  0  0  0  0  0  0  0  0
   58.9471   29.3098   46.0424 N   0  0  0  0  0  0  0  0  0  0  0  0
   59.6557   30.1590   47.0114 C   0  0  0  0  0  0  0  0  0  0  0  0
   57.2687   25.2276   45.3500 C   0  0  0  0  0  0  0  0  0  0  0  0
   57.9220   24.0909   45.6587 N   0  0  0  0  0  0  0  0  0  0  0  0
   57.1146   23.5078   46.5707 C   0  0  0  0  0  0  0  0  0  0  0  0
   57.3815   22.3966   47.0993 O   0  0  0  0  0  0  0  0  0  0  0  0
   56.0071   24.2137   46.8820 N   0  0  0  0  0  0  0  0  0  0  0  0
   56.1280   25.3067   46.1103 C   0  0  0  0  0  0  0  0  0  0  0  0
   55.2204   26.3597   46.1044 O   0  0  0  0  0  0  0  0  0  0  0  0
   54.4651   26.3304   46.6582 H   0  0  0  0  0  0  0  0  0  0  0  0
   57.9400   31.1509   44.6312 C   0  0  0  0  0  0  0  0  0  0  0  0
   58.1668   31.5752   43.4663 O   0  0  0  0  0  0  0  0  0  0  0  0
   57.3335   32.0121   45.6015 N   0  0  0  0  0  0  0  0  0  0  0  0
   57.7147   33.4059   45.7935 C   0  0  0  0  0  0  0  0  0  0  0  0
   58.9190   33.4982   46.6905 C   0  0  0  0  0  0  0  0  0  0  0  0
   58.7661   33.4136   48.0819 C   0  0  0  0  0  0  0  0  0  0  0  0
   59.8825   33.4753   48.9202 C   0  0  0  0  0  0  0  0  0  0  0  0
   61.1709   33.6058   48.3778 C   0  0  0  0  0  0  0  0  0  0  0  0
   61.3217   33.7082   46.9858 C   0  0  0  0  0  0  0  0  0  0  0  0
   60.2055   33.6474   46.1474 C   0  0  0  0  0  0  0  0  0  0  0  0
   62.3459   33.6864   49.2731 C   0  0  0  0  0  0  0  0  0  0  0  0
   62.6491   34.8021   49.7772 O   0  0  0  0  0  0  0  0  0  0  0  0
   63.1386   32.5245   49.5887 N   0  0  0  0  0  0  0  0  0  0  0  0
   64.5366   32.7054   49.9923 C   0  0  0  0  0  0  0  0  0  0  0  0
   62.5196   31.1960   49.6550 C   0  0  0  0  0  0  0  0  0  0  0  0
  1  2  2  0
  2  3  1  0
  3  4  2  0
  4  9  1  0
  9 10  1  0
 10 11  1  0
 11 12  2  0
 11 13  1  0
 13 14  1  0
 14 15  1  0
  3  5  1  0
  5  6  2  0
  6 17  1  0
 17 18  2  0
 17 19  1  0
 19 20  1  0
 20 21  1  0
 21 22  2  0
 22 23  1  0
 23 24  2  0
 24 27  1  0
 27 28  2  0
 27 29  1  0
 29 30  1  0
 29 31  1  0
 24 25  1  0
 25 26  2  0
  6  7  1  0
  7  8  1  0
  7  2  1  0
 14  9  2  0
 26 21  1  0
 15 16  1  0
M  CHG 1  10  -1
M  CHG 1  13  -1
M  CHG 1  19  -1
M  END
> <UniqueID>
25

> <SMILES>
C=c1c(=Cc2[n-]c(=O)[n-]c2O)cc(C(=O)[N-]Cc2ccc(C(=O)N(C)C)cc2)n1C

> <Energy>
124.22713575575733

> <Genealogy>
C=c1c(=Cc2[n-]c(=O)[n-]c2O)cc(C(=O)[N-]Cc2ccc(C(=O)N(C)C)cc2)n1C (protonated)
C=c1c(=Cc2[n-]c(=O)[n-]c2O)cc(C(=O)[N-]Cc2ccc(C(=O)N(C)C)cc2)n1C (3D coordinates assigned)
C=c1c(=Cc2[n-]c(=O)[n-]c2O)cc(C(=O)[N-]Cc2ccc(C(=O)N(C)C)cc2)n1C (optimized conformer: 124.22713575575733 kcal/mol)

> <smiles>
C=c1c(=Cc2[nH]c(=O)[nH]c2O)cc(C(=O)NCc2ccc(C(=O)N(C)C)cc2)n1C

> <score_type>
oracle

> <origin>
adg

> <m_score__min__energy>
-15.07

> <m_primary>
energy

> <minimizedAffinity>
-9.39908

> <minimizedRMSD>
0.80823

> <CNNscore>
0.5043280721

> <CNNaffinity>
6.8164668083

> <CNN_VS>
3.4377355576

> <CNNaffinity_variance>
0.0831434131

$$$$
33:0


 27 29  0  0  0  0  0  0  0  0999 V2000
   56.0250   28.4437   52.9524 C   0  0  0  0  0  0  0  0  0  0  0  0
   56.2182   29.7674   52.8549 C   0  0  0  0  0  0  0  0  0  0  0  0
   55.2344   30.7638   52.7376 C   0  0  0  0  0  0  0  0  0  0  0  0
   53.8960   30.7059   52.8779 C   0  0  0  0  0  0  0  0  0  0  0  0
   55.9068   31.9364   52.4332 C   0  0  0  0  0  0  0  0  0  0  0  0
   57.2526   31.6425   52.4448 C   0  0  0  0  0  0  0  0  0  0  0  0
   58.3416   32.6409   52.1902 C   0  0  0  0  0  0  0  0  0  0  0  0
   57.4439   30.3279   52.6915 N   0  0  0  0  0  0  0  0  0  0  0  0
   58.7172   29.6628   52.7565 C   0  0  0  0  0  0  0  0  0  0  0  0
   58.9537   28.8769   53.7137 O   0  0  0  0  0  0  0  0  0  0  0  0
   59.7265   29.9030   51.7581 N   0  0  0  0  0  0  0  0  0  0  0  0
   59.3410   30.1134   50.3555 C   0  0  0  0  0  0  0  0  0  0  0  0
   60.2914   31.0990   49.6358 C   0  0  0  0  0  0  0  0  0  0  0  0
   61.5229   31.3745   50.4043 N   0  0  0  0  0  0  0  0  0  0  0  0
   62.0629   30.1367   50.9802 C   0  0  0  0  0  0  0  0  0  0  0  0
   61.1352   29.6664   52.1020 C   0  0  0  0  0  0  0  0  0  0  0  0
   52.9221   30.5848   51.7833 C   0  0  0  0  0  0  0  0  0  0  0  0
   53.0632   29.7330   50.7531 N   0  0  0  0  0  0  0  0  0  0  0  0
   52.0281   30.0490   49.9427 C   0  0  0  0  0  0  0  0  0  0  0  0
   51.8088   29.4475   48.8604 O   0  0  0  0  0  0  0  0  0  0  0  0
   51.2573   31.0677   50.3779 N   0  0  0  0  0  0  0  0  0  0  0  0
   51.8440   31.4056   51.5377 C   0  0  0  0  0  0  0  0  0  0  0  0
   51.4214   32.4604   52.3382 O   0  0  0  0  0  0  0  0  0  0  0  0
   62.7180   32.1147   49.3683 S   0  0  0  0  0  0  0  0  0  0  0  0
   62.4996   33.8820   49.3346 C   0  0  0  0  0  0  0  0  0  0  0  0
   64.0923   31.8166   49.9001 O   0  0  0  0  0  0  0  0  0  0  0  0
   62.6013   31.5746   47.9703 O   0  0  0  0  0  0  0  0  0  0  0  0
  1  2  2  0
  2  3  1  0
  3  4  2  0
  4 17  1  0
 17 18  1  0
 18 19  1  0
 19 20  2  0
 19 21  1  0
 21 22  1  0
 22 23  1  0
  3  5  1  0
  5  6  2  0
  6  7  1  0
  6  8  1  0
  8  9  1  0
  9 10  2  0
  9 11  1  0
 11 12  1  0
 12 13  1  0
 13 14  1  0
 14 24  1  0
 24 25  1  0
 24 26  2  0
 24 27  2  0
 14 15  1  0
 15 16  1  0
  8  2  1  0
 16 11  1  0
 22 17  2  0
M  CHG 1  18  -1
M  CHG 1  21  -1
M  CHG 1  23  -1
M  END
> <UniqueID>
34

> <SMILES>
C=c1c(=Cc2[n-]c(=O)[n-]c2[O-])cc(C)n1C(=O)N1CCN(S(C)(=O)=O)CC1

> <Energy>
119.56287624917894

> <Genealogy>
C=c1c(=Cc2[n-]c(=O)[n-]c2[O-])cc(C)n1C(=O)N1CCN(S(C)(=O)=O)CC1 (protonated)
C=c1c(=Cc2[n-]c(=O)[n-]c2[O-])cc(C)n1C(=O)N1CCN(S(C)(=O)=O)CC1 (3D coordinates assigned)
C=c1c(=Cc2[n-]c(=O)[n-]c2[O-])cc(C)n1C(=O)N1CCN(S(C)(=O)=O)CC1 (nonaromatic ring conformer: 119.56287624917894 kcal/mol)

> <smiles>
C=c1c(=Cc2[nH]c(=O)[nH]c2O)cc(C)n1C(=O)N1CCN(S(C)(=O)=O)CC1

> <score_type>
oracle

> <origin>
adg

> <m_score__min__energy>
-15.66

> <m_primary>
energy

> <minimizedAffinity>
-4.23611

> <minimizedRMSD>
1.11331

> <CNNscore>
0.0459699295

> <CNNaffinity>
4.2998609543

> <CNN_VS>
0.1976643056

> <CNNaffinity_variance>
0.3186027706

$$$$
34:0


 31 34  0  0  0  0  0  0  0  0999 V2000
   58.5028   29.4626   52.7502 C   0  0  0  0  0  0  0  0  0  0  0  0
   55.7082   28.3727   53.1360 C   0  0  0  0  0  0  0  0  0  0  0  0
   55.9758   29.6658   52.9027 C   0  0  0  0  0  0  0  0  0  0  0  0
   55.0611   30.7129   52.7773 C   0  0  0  0  0  0  0  0  0  0  0  0
   53.7200   30.6300   52.8395 C   0  0  0  0  0  0  0  0  0  0  0  0
   55.7302   31.8586   52.5198 N   0  0  0  0  0  0  0  0  0  0  0  0
   57.0262   31.4902   52.5067 C   0  0  0  0  0  0  0  0  0  0  0  0
   57.9631   32.3015   52.2861 O   0  0  0  0  0  0  0  0  0  0  0  0
   57.2181   30.1747   52.7410 N   0  0  0  0  0  0  0  0  0  0  0  0
   52.8355   30.6733   51.6598 C   0  0  0  0  0  0  0  0  0  0  0  0
   52.9091   29.7757   50.6606 N   0  0  0  0  0  0  0  0  0  0  0  0
   51.9064   30.1379   49.8335 C   0  0  0  0  0  0  0  0  0  0  0  0
   51.6603   29.5294   48.7602 O   0  0  0  0  0  0  0  0  0  0  0  0
   51.1807   31.1960   50.2519 N   0  0  0  0  0  0  0  0  0  0  0  0
   51.7730   31.5193   51.4134 C   0  0  0  0  0  0  0  0  0  0  0  0
   51.3138   32.5311   52.2467 O   0  0  0  0  0  0  0  0  0  0  0  0
   59.2934   29.7860   51.5105 C   0  0  0  0  0  0  0  0  0  0  0  0
   58.7705   29.5737   50.3827 O   0  0  0  0  0  0  0  0  0  0  0  0
   60.6189   30.3498   51.5848 N   0  0  0  0  0  0  0  0  0  0  0  0
   61.5320   30.1639   50.4476 C   0  0  0  0  0  0  0  0  0  0  0  0
   62.9901   30.3991   50.8504 C   0  0  0  0  0  0  0  0  0  0  0  0
   63.1407   31.6815   51.5532 N   0  0  0  0  0  0  0  0  0  0  0  0
   62.0589   32.1759   52.4197 C   0  0  0  0  0  0  0  0  0  0  0  0
   61.0726   31.0628   52.7864 C   0  0  0  0  0  0  0  0  0  0  0  0
   64.3822   32.4166   51.4664 C   0  0  0  0  0  0  0  0  0  0  0  0
   64.5782   33.5889   52.2219 C   0  0  0  0  0  0  0  0  0  0  0  0
   65.7787   34.2990   52.1333 C   0  0  0  0  0  0  0  0  0  0  0  0
   66.7971   33.8501   51.2894 C   0  0  0  0  0  0  0  0  0  0  0  0
   67.9612   34.5401   51.2046 F   0  0  0  0  0  0  0  0  0  0  0  0
   66.6158   32.6914   50.5321 C   0  0  0  0  0  0  0  0  0  0  0  0
   65.4169   31.9780   50.6167 C   0  0  0  0  0  0  0  0  0  0  0  0
  2  3  2  0
  3  4  1  0
  4  5  2  0
  5 10  1  0
 10 11  1  0
 11 12  1  0
 12 13  2  0
 12 14  1  0
 14 15  1  0
 15 16  1  0
  4  6  1  0
  6  7  1  0
  7  8  2  0
  7  9  1  0
  9  1  1  0
  1 17  1  0
 17 18  2  0
 17 19  1  0
 19 20  1  0
 20 21  1  0
 21 22  1  0
 22 25  1  0
 25 26  2  0
 26 27  1  0
 27 28  2  0
 28 29  1  0
 28 30  1  0
 30 31  2  0
 22 23  1  0
 23 24  1  0
  9  3  1  0
 24 19  1  0
 15 10  2  0
 31 25  1  0
M  CHG 1   6  -1
M  CHG 1  11  -1
M  CHG 1  14  -1
M  CHG 1  16  -1
M  END
> <UniqueID>
35

> <SMILES>
C=c1/c(=C/c2[n-]c(=O)[n-]c2[O-])[n-]c(=O)n1CC(=O)N1CCN(c2ccc(F)cc2)CC1

> <Energy>
122.94298968597852

> <Genealogy>
C=c1c(=Cc2[n-]c(=O)[n-]c2[O-])[n-]c(=O)n1CC(=O)N1CCN(c2ccc(F)cc2)CC1 (protonated)
C=c1/c(=C/c2[n-]c(=O)[n-]c2[O-])[n-]c(=O)n1CC(=O)N1CCN(c2ccc(F)cc2)CC1 (cis-trans isomerization)
C=c1/c(=C/c2[n-]c(=O)[n-]c2[O-])[n-]c(=O)n1CC(=O)N1CCN(c2ccc(F)cc2)CC1 (3D coordinates assigned)
C=c1/c(=C/c2[n-]c(=O)[n-]c2[O-])[n-]c(=O)n1CC(=O)N1CCN(c2ccc(F)cc2)CC1 (nonaromatic ring conformer: 122.94298968597852 kcal/mol)

> <smiles>
C=c1c(=Cc2[nH]c(=O)[nH]c2O)[nH]c(=O)n1CC(=O)N1CCN(c2ccc(F)cc2)CC1

> <score_type>
oracle

> <origin>
adg

> <m_score__min__energy>
-18.350000000000001

> <m_primary>
energy

> <minimizedAffinity>
-4.77233

> <minimizedRMSD>
0.74644

> <CNNscore>
0.1197998300

> <CNNaffinity>
4.0777282715

> <CNN_VS>
0.4885111451

> <CNNaffinity_variance>
1.4684649706

$$$$
35:0


 37 41  0  0  0  0  0  0  0  0999 V2000
   58.3855   31.4913   45.8947 C   0  0  0  0  0  0  0  0  0  0  0  0
   57.3920   32.4617   45.7355 C   0  0  0  0  0  0  0  0  0  0  0  0
   57.6538   33.7934   46.0615 C   0  0  0  0  0  0  0  0  0  0  0  0
   58.9131   34.1668   46.5330 C   0  0  0  0  0  0  0  0  0  0  0  0
   59.9299   33.2059   46.6787 C   0  0  0  0  0  0  0  0  0  0  0  0
   59.6505   31.8612   46.3756 C   0  0  0  0  0  0  0  0  0  0  0  0
   61.2810   33.6027   47.1352 C   0  0  0  0  0  0  0  0  0  0  0  0
   61.9371   34.4477   46.4687 O   0  0  0  0  0  0  0  0  0  0  0  0
   61.8557   33.0431   48.3315 N   0  0  0  0  0  0  0  0  0  0  0  0
   63.3081   32.8498   48.4128 C   0  0  0  0  0  0  0  0  0  0  0  0
   63.6354   31.6363   49.2872 C   0  0  0  0  0  0  0  0  0  0  0  0
   62.8676   31.6985   50.5376 N   0  0  0  0  0  0  0  0  0  0  0  0
   63.5189   31.6701   51.8210 C   0  0  0  0  0  0  0  0  0  0  0  0
   63.0514   32.3570   52.7704 O   0  0  0  0  0  0  0  0  0  0  0  0
   61.4159   31.8606   50.4353 C   0  0  0  0  0  0  0  0  0  0  0  0
   61.1001   33.0952   49.5907 C   0  0  0  0  0  0  0  0  0  0  0  0
   64.7146   30.8336   52.0640 C   0  0  0  0  0  0  0  0  0  0  0  0
   64.6017   29.4363   52.1189 C   0  0  0  0  0  0  0  0  0  0  0  0
   65.7334   28.6435   52.3412 C   0  0  0  0  0  0  0  0  0  0  0  0
   66.9858   29.2403   52.4982 C   0  0  0  0  0  0  0  0  0  0  0  0
   67.1131   30.6298   52.4260 C   0  0  0  0  0  0  0  0  0  0  0  0
   65.9826   31.4256   52.2117 C   0  0  0  0  0  0  0  0  0  0  0  0
   57.3741   30.5044   43.3024 C   0  0  0  0  0  0  0  0  0  0  0  0
   57.6531   29.7076   44.3347 C   0  0  0  0  0  0  0  0  0  0  0  0
   57.4800   28.0355   44.2977 S   0  0  0  0  0  0  0  0  0  0  0  0
   58.0357   27.8185   45.8758 C   0  0  0  0  0  0  0  0  0  0  0  0
   58.1193   26.6577   46.5429 C   0  0  0  0  0  0  0  0  0  0  0  0
   58.3364   29.0787   46.3957 C   0  0  0  0  0  0  0  0  0  0  0  0
   58.7629   29.2520   47.5718 O   0  0  0  0  0  0  0  0  0  0  0  0
   58.1261   30.1234   45.5409 N   0  0  0  0  0  0  0  0  0  0  0  0
   57.5391   25.3960   46.0625 C   0  0  0  0  0  0  0  0  0  0  0  0
   58.4438   24.0895   45.5025 S   0  0  0  0  0  0  0  0  0  0  0  0
   57.0762   23.1991   45.1153 C   0  0  0  0  0  0  0  0  0  0  0  0
   57.0993   22.0374   44.6315 O   0  0  0  0  0  0  0  0  0  0  0  0
   55.9312   23.8662   45.3713 N   0  0  0  0  0  0  0  0  0  0  0  0
   56.1893   25.0969   45.8880 C   0  0  0  0  0  0  0  0  0  0  0  0
   55.1658   25.9917   46.1767 O   0  0  0  0  0  0  0  0  0  0  0  0
 23 24  2  0
 24 25  1  0
 25 26  1  0
 26 27  2  0
 27 31  1  0
 31 32  1  0
 32 33  1  0
 33 34  2  0
 33 35  1  0
 35 36  1  0
 36 37  1  0
 26 28  1  0
 28 29  2  0
 28 30  1  0
 30  1  1  0
  1  2  2  0
  2  3  1  0
  3  4  2  0
  4  5  1  0
  5  7  1  0
  7  8  2  0
  7  9  1  0
  9 10  1  0
 10 11  1  0
 11 12  1  0
 12 13  1  0
 13 14  2  0
 13 17  1  0
 17 18  2  0
 18 19  1  0
 19 20  2  0
 20 21  1  0
 21 22  2  0
 12 15  1  0
 15 16  1  0
  5  6  2  0
 30 24  1  0
  6  1  1  0
 36 31  2  0
 16  9  1  0
 22 17  1  0
M  CHG 1  35  -1
M  CHG 1  37  -1
M  END
> <UniqueID>
36

> <SMILES>
C=c1sc(=Cc2sc(=O)[n-]c2[O-])c(=O)n1-c1cccc(C(=O)N2CCN(C(=O)c3ccccc3)CC2)c1

> <Energy>
148.48133531581578

> <Genealogy>
C=c1sc(=Cc2sc(=O)[n-]c2[O-])c(=O)n1-c1cccc(C(=O)N2CCN(C(=O)c3ccccc3)CC2)c1 (protonated)
C=c1sc(=Cc2sc(=O)[n-]c2[O-])c(=O)n1-c1cccc(C(=O)N2CCN(C(=O)c3ccccc3)CC2)c1 (3D coordinates assigned)
C=c1sc(=Cc2sc(=O)[n-]c2[O-])c(=O)n1-c1cccc(C(=O)N2CCN(C(=O)c3ccccc3)CC2)c1 (nonaromatic ring conformer: 148.48133531581578 kcal/mol)

> <smiles>
C=c1sc(=Cc2sc(=O)[nH]c2O)c(=O)n1-c1cccc(C(=O)N2CCN(C(=O)c3ccccc3)CC2)c1

> <score_type>
oracle

> <origin>
adg

> <m_score__min__energy>
-16.57

> <m_primary>
energy

> <minimizedAffinity>
-8.31901

> <minimizedRMSD>
0.57206

> <CNNscore>
0.1555929035

> <CNNaffinity>
6.6831436157

> <CNN_VS>
1.0398497581

> <CNNaffinity_variance>
0.1999536902

$$$$
42:0


 30 32  0  0  0  0  0  0  0  0999 V2000
   59.0040   31.3578   52.3685 N   0  0  0  0  0  0  0  0  0  0  0  0
   59.7240   32.0965   51.3712 C   0  0  0  0  0  0  0  0  0  0  0  0
   61.0319   32.5650   51.5873 C   0  0  0  0  0  0  0  0  0  0  0  0
   61.6882   33.2979   50.5954 C   0  0  0  0  0  0  0  0  0  0  0  0
   61.0455   33.5798   49.3882 C   0  0  0  0  0  0  0  0  0  0  0  0
   59.7350   33.1375   49.1707 C   0  0  0  0  0  0  0  0  0  0  0  0
   59.0765   32.4046   50.1675 C   0  0  0  0  0  0  0  0  0  0  0  0
   58.9346   33.5118   47.6473 S   0  0  0  0  0  0  0  0  0  0  0  0
   59.1355   34.9713   47.3503 O   0  0  0  0  0  0  0  0  0  0  0  0
   57.4612   33.2335   47.7621 O   0  0  0  0  0  0  0  0  0  0  0  0
   59.6390   32.5311   46.3776 N   0  0  0  0  0  0  0  0  0  0  0  0
   59.1876   31.1239   46.4550 C   0  0  0  0  0  0  0  0  0  0  0  0
   58.0540   30.8070   45.4639 C   0  0  0  0  0  0  0  0  0  0  0  0
   57.2397   31.9416   45.2715 O   0  0  0  0  0  0  0  0  0  0  0  0
   57.9514   32.9431   44.5675 C   0  0  0  0  0  0  0  0  0  0  0  0
   59.4128   33.1196   45.0463 C   0  0  0  0  0  0  0  0  0  0  0  0
   57.8672   29.6932   51.1712 O   0  0  0  0  0  0  0  0  0  0  0  0
   57.8852   30.4893   52.1494 C   0  0  0  0  0  0  0  0  0  0  0  0
   56.6777   30.6097   53.0233 C   0  0  0  0  0  0  0  0  0  0  0  0
   55.4354   30.9027   52.1809 C   0  0  0  0  0  0  0  0  0  0  0  0
   54.4974   29.7838   52.2393 N   0  0  0  0  0  0  0  0  0  0  0  0
   53.0688   29.8988   52.2173 C   0  0  0  0  0  0  0  0  0  0  0  0
   52.4202   29.6360   53.2630 O   0  0  0  0  0  0  0  0  0  0  0  0
   52.3360   30.3016   51.0011 C   0  0  0  0  0  0  0  0  0  0  0  0
   52.2485   29.4079   49.9230 C   0  0  0  0  0  0  0  0  0  0  0  0
   51.5580   29.7709   48.7614 C   0  0  0  0  0  0  0  0  0  0  0  0
   50.9423   31.0215   48.6763 C   0  0  0  0  0  0  0  0  0  0  0  0
   51.0046   31.9074   49.7551 C   0  0  0  0  0  0  0  0  0  0  0  0
   51.6904   31.5499   50.9210 C   0  0  0  0  0  0  0  0  0  0  0  0
   51.7077   32.4276   51.9992 O   0  0  0  0  0  0  0  0  0  0  0  0
 17 18  2  0
 18 19  1  0
 19 20  1  0
 20 21  1  0
 21 22  1  0
 22 23  2  0
 22 24  1  0
 24 25  2  0
 25 26  1  0
 26 27  2  0
 27 28  1  0
 28 29  2  0
 29 30  1  0
 18  1  1  0
  1  2  1  0
  2  3  2  0
  3  4  1  0
  4  5  2  0
  5  6  1  0
  6  8  1  0
  8  9  2  0
  8 10  2  0
  8 11  1  0
 11 12  1  0
 12 13  1  0
 13 14  1  0
 14 15  1  0
 15 16  1  0
  6  7  2  0
 29 24  1  0
  7  2  1  0
 16 11  1  0
M  CHG 1   1  -1
M  CHG 1  21  -1
M  CHG 1  30  -1
M  END
> <UniqueID>
40

> <SMILES>
O=C(CC[N-]C(=O)c1ccccc1[O-])[N-]c1cccc(S(=O)(=O)N2CCOCC2)c1

> <Energy>
67.40371649514265

> <Genealogy>
O=C(CC[N-]C(=O)c1ccccc1[O-])[N-]c1cccc(S(=O)(=O)N2CCOCC2)c1 (protonated)
O=C(CC[N-]C(=O)c1ccccc1[O-])[N-]c1cccc(S(=O)(=O)N2CCOCC2)c1 (3D coordinates assigned)
O=C(CC[N-]C(=O)c1ccccc1[O-])[N-]c1cccc(S(=O)(=O)N2CCOCC2)c1 (nonaromatic ring conformer: 67.40371649514265 kcal/mol)

> <smiles>
O=C(CCNC(=O)c1ccccc1O)Nc1cccc(S(=O)(=O)N2CCOCC2)c1

> <score_type>
oracle

> <origin>
adg

> <m_score__min__energy>
-16.879999999999999

> <m_primary>
energy

> <minimizedAffinity>
-3.65438

> <minimizedRMSD>
0.62648

> <CNNscore>
0.6082821488

> <CNNaffinity>
6.2311034203

> <CNN_VS>
3.7902688980

> <CNNaffinity_variance>
0.0815239176

$$$$
46:0


 34 37  0  0  0  0  0  0  0  0999 V2000
   59.5639   30.1759   46.7838 C   0  0  0  0  0  0  0  0  0  0  0  0
   58.7587   30.9610   47.6206 C   0  0  0  0  0  0  0  0  0  0  0  0
   59.3377   31.9095   48.4691 C   0  0  0  0  0  0  0  0  0  0  0  0
   60.7300   32.0859   48.4897 C   0  0  0  0  0  0  0  0  0  0  0  0
   61.5353   31.2805   47.6709 C   0  0  0  0  0  0  0  0  0  0  0  0
   60.9557   30.3364   46.8189 C   0  0  0  0  0  0  0  0  0  0  0  0
   58.0716   25.8990   44.8097 C   0  0  0  0  0  0  0  0  0  0  0  0
   58.3459   27.1959   45.0449 C   0  0  0  0  0  0  0  0  0  0  0  0
   57.8886   28.2167   44.2271 C   0  0  0  0  0  0  0  0  0  0  0  0
   58.2778   29.4033   44.8105 C   0  0  0  0  0  0  0  0  0  0  0  0
   57.9525   30.7648   44.2729 C   0  0  0  0  0  0  0  0  0  0  0  0
   58.9759   29.1659   45.9436 N   0  0  0  0  0  0  0  0  0  0  0  0
   59.0611   27.8168   46.0824 C   0  0  0  0  0  0  0  0  0  0  0  0
   59.8190   27.2173   47.0135 C   0  0  0  0  0  0  0  0  0  0  0  0
   55.3035   26.3497   46.0000 O   0  0  0  0  0  0  0  0  0  0  0  0
   56.1145   25.2560   46.2814 C   0  0  0  0  0  0  0  0  0  0  0  0
   55.7961   24.2909   47.1606 N   0  0  0  0  0  0  0  0  0  0  0  0
   56.8719   23.4779   47.1077 C   0  0  0  0  0  0  0  0  0  0  0  0
   56.9673   22.4343   47.8054 O   0  0  0  0  0  0  0  0  0  0  0  0
   57.8415   23.8763   46.2562 N   0  0  0  0  0  0  0  0  0  0  0  0
   57.3358   24.9982   45.7120 C   0  0  0  0  0  0  0  0  0  0  0  0
   54.4808   26.4478   46.4375 H   0  0  0  0  0  0  0  0  0  0  0  0
   61.4713   33.2425   49.6063 S   0  0  0  0  0  0  0  0  0  0  0  0
   62.6212   33.9242   48.9173 O   0  0  0  0  0  0  0  0  0  0  0  0
   60.4493   34.2955   49.9341 O   0  0  0  0  0  0  0  0  0  0  0  0
   62.0333   32.5284   51.1072 N   0  0  0  0  0  0  0  0  0  0  0  0
   61.4021   33.1139   52.3030 C   0  0  0  0  0  0  0  0  0  0  0  0
   60.2321   32.2877   52.8813 C   0  0  0  0  0  0  0  0  0  0  0  0
   59.6765   31.3338   51.9071 N   0  0  0  0  0  0  0  0  0  0  0  0
   58.2708   30.9903   51.9066 C   0  0  0  0  0  0  0  0  0  0  0  0
   57.8642   30.0226   51.2033 O   0  0  0  0  0  0  0  0  0  0  0  0
   57.2638   31.7482   52.7193 C   0  0  0  0  0  0  0  0  0  0  0  0
   60.5907   30.4984   51.1168 C   0  0  0  0  0  0  0  0  0  0  0  0
   62.0166   31.0583   51.1061 C   0  0  0  0  0  0  0  0  0  0  0  0
 15 16  1  0
 16 17  1  0
 17 18  1  0
 18 19  2  0
 18 20  1  0
 20 21  1  0
 21  7  1  0
  7  8  2  0
  8  9  1  0
  9 10  2  0
 10 11  1  0
 10 12  1  0
 12  1  1  0
  1  2  2  0
  2  3  1  0
  3  4  2  0
  4 23  1  0
 23 24  2  0
 23 25  2  0
 23 26  1  0
 26 27  1  0
 27 28  1  0
 28 29  1  0
 29 30  1  0
 30 31  2  0
 30 32  1  0
 29 33  1  0
 33 34  1  0
  4  5  1  0
  5  6  2  0
 12 13  1  0
 13 14  2  0
 21 16  2  0
 13  8  1  0
  6  1  1  0
 34 26  1  0
 15 22  1  0
M  CHG 1  17  -1
M  CHG 1  20  -1
M  END
> <UniqueID>
44

> <SMILES>
C=c1/c(=C\c2[n-]c(=O)[n-]c2O)cc(C)n1-c1ccc(S(=O)(=O)N2CCN(C(C)=O)CC2)cc1

> <Energy>
137.56405652794808

> <Genealogy>
C=c1c(=Cc2[n-]c(=O)[n-]c2O)cc(C)n1-c1ccc(S(=O)(=O)N2CCN(C(C)=O)CC2)cc1 (protonated)
C=c1/c(=C\c2[n-]c(=O)[n-]c2O)cc(C)n1-c1ccc(S(=O)(=O)N2CCN(C(C)=O)CC2)cc1 (cis-trans isomerization)
C=c1/c(=C\c2[n-]c(=O)[n-]c2O)cc(C)n1-c1ccc(S(=O)(=O)N2CCN(C(C)=O)CC2)cc1 (3D coordinates assigned)
C=c1/c(=C\c2[n-]c(=O)[n-]c2O)cc(C)n1-c1ccc(S(=O)(=O)N2CCN(C(C)=O)CC2)cc1 (nonaromatic ring conformer: 137.56405652794808 kcal/mol)

> <smiles>
C=c1c(=Cc2[nH]c(=O)[nH]c2O)cc(C)n1-c1ccc(S(=O)(=O)N2CCN(C(C)=O)CC2)cc1

> <score_type>
oracle

> <origin>
adg

> <m_score__min__energy>
-14.02

> <m_primary>
energy

> <minimizedAffinity>
-9.78542

> <minimizedRMSD>
0.55808

> <CNNscore>
0.5082880259

> <CNNaffinity>
7.2152543068

> <CNN_VS>
3.6674273014

> <CNNaffinity_variance>
0.0257988051

$$$$
52:0


 29 32  0  0  0  0  0  0  0  0999 V2000
   60.7017   30.2317   47.1029 C   0  0  0  0  0  0  0  0  0  0  0  0
   60.1398   31.3533   46.6264 C   0  0  0  0  0  0  0  0  0  0  0  0
   59.1204   31.4579   45.6661 C   0  0  0  0  0  0  0  0  0  0  0  0
   58.5791   30.5361   44.8458 C   0  0  0  0  0  0  0  0  0  0  0  0
   58.7225   32.7863   45.6657 C   0  0  0  0  0  0  0  0  0  0  0  0
   59.5398   33.4480   46.5577 C   0  0  0  0  0  0  0  0  0  0  0  0
   59.4679   34.9120   46.8716 C   0  0  0  0  0  0  0  0  0  0  0  0
   60.3973   32.5832   47.1368 N   0  0  0  0  0  0  0  0  0  0  0  0
   58.2540   29.1476   45.2125 C   0  0  0  0  0  0  0  0  0  0  0  0
   59.1625   28.1778   45.4208 N   0  0  0  0  0  0  0  0  0  0  0  0
   58.4039   27.0709   45.5852 C   0  0  0  0  0  0  0  0  0  0  0  0
   58.8997   25.9384   45.8228 O   0  0  0  0  0  0  0  0  0  0  0  0
   57.0746   27.2730   45.4654 N   0  0  0  0  0  0  0  0  0  0  0  0
   56.9990   28.5897   45.2153 C   0  0  0  0  0  0  0  0  0  0  0  0
   55.8080   29.2664   44.9871 O   0  0  0  0  0  0  0  0  0  0  0  0
   61.3498   32.9166   48.1608 C   0  0  0  0  0  0  0  0  0  0  0  0
   62.6668   33.2171   47.7963 C   0  0  0  0  0  0  0  0  0  0  0  0
   63.6142   33.5356   48.7705 C   0  0  0  0  0  0  0  0  0  0  0  0
   63.2608   33.5421   50.1270 C   0  0  0  0  0  0  0  0  0  0  0  0
   61.9345   33.2658   50.4934 C   0  0  0  0  0  0  0  0  0  0  0  0
   60.9703   32.9558   49.5201 C   0  0  0  0  0  0  0  0  0  0  0  0
   59.5628   32.6295   49.9364 C   0  0  0  0  0  0  0  0  0  0  0  0
   64.2555   33.8879   51.1610 C   0  0  0  0  0  0  0  0  0  0  0  0
   63.9803   34.7982   51.9898 O   0  0  0  0  0  0  0  0  0  0  0  0
   65.5210   33.2076   51.2494 N   0  0  0  0  0  0  0  0  0  0  0  0
   66.6411   33.7336   52.0114 C   0  0  0  0  0  0  0  0  0  0  0  0
   67.6086   32.5694   52.1873 C   0  0  0  0  0  0  0  0  0  0  0  0
   67.1743   31.5052   51.1825 C   0  0  0  0  0  0  0  0  0  0  0  0
   65.7315   31.8322   50.8241 C   0  0  0  0  0  0  0  0  0  0  0  0
  1  2  2  0
  2  3  1  0
  3  4  2  0
  4  9  1  0
  9 10  1  0
 10 11  1  0
 11 12  2  0
 11 13  1  0
 13 14  1  0
 14 15  1  0
  3  5  1  0
  5  6  2  0
  6  7  1  0
  6  8  1  0
  8 16  1  0
 16 17  2  0
 17 18  1  0
 18 19  2  0
 19 23  1  0
 23 24  2  0
 23 25  1  0
 25 26  1  0
 26 27  1  0
 27 28  1  0
 28 29  1  0
 19 20  1  0
 20 21  2  0
 21 22  1  0
  8  2  1  0
 21 16  1  0
 14  9  2  0
 29 25  1  0
M  CHG 1  10  -1
M  CHG 1  13  -1
M  CHG 1  15  -1
M  END
> <UniqueID>
50

> <SMILES>
C=c1/c(=C\c2[n-]c(=O)[n-]c2[O-])cc(C)n1-c1ccc(C(=O)N2CCCC2)cc1C

> <Energy>
131.81243886722092

> <Genealogy>
C=c1c(=Cc2[n-]c(=O)[n-]c2[O-])cc(C)n1-c1ccc(C(=O)N2CCCC2)cc1C (protonated)
C=c1/c(=C\c2[n-]c(=O)[n-]c2[O-])cc(C)n1-c1ccc(C(=O)N2CCCC2)cc1C (cis-trans isomerization)
C=c1/c(=C\c2[n-]c(=O)[n-]c2[O-])cc(C)n1-c1ccc(C(=O)N2CCCC2)cc1C (3D coordinates assigned)
C=c1/c(=C\c2[n-]c(=O)[n-]c2[O-])cc(C)n1-c1ccc(C(=O)N2CCCC2)cc1C (nonaromatic ring conformer: 131.81243886722092 kcal/mol)

> <smiles>
C=c1c(=Cc2[nH]c(=O)[nH]c2O)cc(C)n1-c1ccc(C(=O)N2CCCC2)cc1C

> <score_type>
oracle

> <origin>
adg

> <m_score__min__energy>
-15.789999999999999

> <m_primary>
energy

> <minimizedAffinity>
-8.07620

> <minimizedRMSD>
0.98267

> <CNNscore>
0.6242557168

> <CNNaffinity>
7.1692562103

> <CNN_VS>
4.4754490852

> <CNNaffinity_variance>
0.2128801793

$$$$
56:0


 29 32  0  0  0  0  0  0  0  0999 V2000
   54.5890   28.6550   55.2984 C   0  0  0  0  0  0  0  0  0  0  0  0
   55.1987   29.1961   54.2317 C   0  0  0  0  0  0  0  0  0  0  0  0
   54.6186   29.9890   53.2259 C   0  0  0  0  0  0  0  0  0  0  0  0
   53.3838   30.5148   53.1091 C   0  0  0  0  0  0  0  0  0  0  0  0
   55.6143   30.2116   52.2872 C   0  0  0  0  0  0  0  0  0  0  0  0
   56.7564   29.5994   52.7600 C   0  0  0  0  0  0  0  0  0  0  0  0
   58.1137   29.7244   52.1370 C   0  0  0  0  0  0  0  0  0  0  0  0
   56.5018   28.9701   53.9278 N   0  0  0  0  0  0  0  0  0  0  0  0
   57.4846   28.3211   54.7518 C   0  0  0  0  0  0  0  0  0  0  0  0
   57.5149   27.0592   54.7620 O   0  0  0  0  0  0  0  0  0  0  0  0
   58.4149   29.0617   55.5918 N   0  0  0  0  0  0  0  0  0  0  0  0
   59.7369   29.1763   54.9086 C   0  0  0  0  0  0  0  0  0  0  0  0
   60.4586   30.4989   55.1908 C   0  0  0  0  0  0  0  0  0  0  0  0
   59.5795   31.6105   54.8189 N   0  0  0  0  0  0  0  0  0  0  0  0
   60.1108   32.7835   54.1714 C   0  0  0  0  0  0  0  0  0  0  0  0
   61.3529   33.0026   54.1830 O   0  0  0  0  0  0  0  0  0  0  0  0
   58.1597   31.5437   55.1840 C   0  0  0  0  0  0  0  0  0  0  0  0
   57.8812   30.3526   56.1121 C   0  0  0  0  0  0  0  0  0  0  0  0
   57.9966   29.6653   54.9361 H   0  0  0  0  0  0  0  0  0  0  0  0
   59.2015   33.7857   53.5160 C   0  0  0  0  0  0  0  0  0  0  0  0
   58.1130   33.1728   52.6470 C   0  0  0  0  0  0  0  0  0  0  0  0
   59.3008   33.8580   51.9989 C   0  0  0  0  0  0  0  0  0  0  0  0
   52.5733   30.5448   51.8838 C   0  0  0  0  0  0  0  0  0  0  0  0
   52.7528   29.7045   50.8495 N   0  0  0  0  0  0  0  0  0  0  0  0
   51.8953   30.1712   49.9155 C   0  0  0  0  0  0  0  0  0  0  0  0
   51.7601   29.6279   48.7872 O   0  0  0  0  0  0  0  0  0  0  0  0
   51.2039   31.2721   50.2795 N   0  0  0  0  0  0  0  0  0  0  0  0
   51.6566   31.5058   51.5223 C   0  0  0  0  0  0  0  0  0  0  0  0
   51.2567   32.5855   52.3009 O   0  0  0  0  0  0  0  0  0  0  0  0
  1  2  2  0
  2  3  1  0
  3  4  2  0
  4 23  1  0
 23 24  1  0
 24 25  1  0
 25 26  2  0
 25 27  1  0
 27 28  1  0
 28 29  1  0
  3  5  1  0
  5  6  2  0
  6  7  1  0
  6  8  1  0
  8  9  1  0
  9 10  2  0
  9 11  1  0
 11 12  1  0
 12 13  1  0
 13 14  1  0
 14 15  1  0
 15 16  2  0
 15 20  1  0
 20 21  1  0
 21 22  1  0
 14 17  1  0
 17 18  1  0
  8  2  1  0
 18 11  1  0
 28 23  2  0
 22 20  1  0
 11 19  1  0
M  CHG 1  11   1
M  CHG 1  24  -1
M  CHG 1  27  -1
M  CHG 1  29  -1
M  END
> <UniqueID>
53

> <SMILES>
C=c1c(=Cc2[n-]c(=O)[n-]c2[O-])cc(C)n1C(=O)[NH+]1CCN(C(=O)C2CC2)CC1

> <Energy>
401.3095317816338

> <Genealogy>
C=c1c(=Cc2[n-]c(=O)[n-]c2[O-])cc(C)n1C(=O)[NH+]1CCN(C(=O)C2CC2)CC1 (protonated)
C=c1c(=Cc2[n-]c(=O)[n-]c2[O-])cc(C)n1C(=O)[NH+]1CCN(C(=O)C2CC2)CC1 (3D coordinates assigned)
C=c1c(=Cc2[n-]c(=O)[n-]c2[O-])cc(C)n1C(=O)[NH+]1CCN(C(=O)C2CC2)CC1 (nonaromatic ring conformer: 401.3095317816338 kcal/mol)

> <smiles>
C=c1c(=Cc2[nH]c(=O)[nH]c2O)cc(C)n1C(=O)N1CCN(C(=O)C2CC2)CC1

> <score_type>
oracle

> <origin>
adg

> <m_score__min__energy>
-15.18

> <m_primary>
energy

> <minimizedAffinity>
-4.87929

> <minimizedRMSD>
0.97376

> <CNNscore>
0.1081278399

> <CNNaffinity>
4.1330494881

> <CNN_VS>
0.4468977153

> <CNNaffinity_variance>
0.9535697103

$$$$
57:0


 23 25  0  0  0  0  0  0  0  0999 V2000
   59.5549   29.9002   44.9954 C   0  0  0  0  0  0  0  0  0  0  0  0
   59.3781   29.7429   46.3233 C   0  0  0  0  0  0  0  0  0  0  0  0
   59.1783   30.8925   47.1333 C   0  0  0  0  0  0  0  0  0  0  0  0
   59.2206   30.7900   48.4853 N   0  0  0  0  0  0  0  0  0  0  0  0
   59.4509   29.6165   49.1218 C   0  0  0  0  0  0  0  0  0  0  0  0
   59.6228   28.4491   48.3776 C   0  0  0  0  0  0  0  0  0  0  0  0
   59.4956   28.4690   46.9743 C   0  0  0  0  0  0  0  0  0  0  0  0
   59.4648   27.2613   46.3532 C   0  0  0  0  0  0  0  0  0  0  0  0
   58.3787   26.2663   46.4281 C   0  0  0  0  0  0  0  0  0  0  0  0
   58.5249   25.0501   46.9833 N   0  0  0  0  0  0  0  0  0  0  0  0
   57.2804   24.5292   46.9300 C   0  0  0  0  0  0  0  0  0  0  0  0
   57.0100   23.3739   47.3518 O   0  0  0  0  0  0  0  0  0  0  0  0
   56.3455   25.3475   46.3994 N   0  0  0  0  0  0  0  0  0  0  0  0
   57.0524   26.4476   46.0988 C   0  0  0  0  0  0  0  0  0  0  0  0
   56.4914   27.6019   45.5668 O   0  0  0  0  0  0  0  0  0  0  0  0
   58.9922   32.1948   46.5596 N   0  0  0  0  0  0  0  0  0  0  0  0
   58.0033   32.4948   45.5933 C   0  0  0  0  0  0  0  0  0  0  0  0
   57.0348   31.7304   45.3385 O   0  0  0  0  0  0  0  0  0  0  0  0
   58.2473   33.7695   44.8913 C   0  0  0  0  0  0  0  0  0  0  0  0
   59.5023   34.3161   45.5882 C   0  0  0  0  0  0  0  0  0  0  0  0
   60.0512   33.1858   46.4782 C   0  0  0  0  0  0  0  0  0  0  0  0
   59.5484   29.5965   50.6196 C   0  0  0  0  0  0  0  0  0  0  0  0
   58.3351   30.2744   51.2476 C   0  0  0  0  0  0  0  0  0  0  0  0
  1  2  2  0
  2  3  1  0
  3 16  1  0
 16 17  1  0
 17 18  2  0
 17 19  1  0
 19 20  1  0
 20 21  1  0
  3  4  2  0
  4  5  1  0
  5 22  1  0
 22 23  1  0
  5  6  2  0
  6  7  1  0
  7  8  2  0
  8  9  1  0
  9 10  1  0
 10 11  1  0
 11 12  2  0
 11 13  1  0
 13 14  1  0
 14 15  1  0
  7  2  1  0
 14  9  2  0
 21 16  1  0
M  CHG 1  10  -1
M  CHG 1  13  -1
M  CHG 1  15  -1
M  END
> <UniqueID>
54

> <SMILES>
C=c1c(N2CCCC2=O)nc(CC)c/c1=C/c1[n-]c(=O)[n-]c1[O-]

> <Energy>
101.42752706704017

> <Genealogy>
C=c1c(N2CCCC2=O)nc(CC)cc1=Cc1[n-]c(=O)[n-]c1[O-] (protonated)
C=c1c(N2CCCC2=O)nc(CC)c/c1=C/c1[n-]c(=O)[n-]c1[O-] (cis-trans isomerization)
C=c1c(N2CCCC2=O)nc(CC)c/c1=C/c1[n-]c(=O)[n-]c1[O-] (3D coordinates assigned)
C=c1c(N2CCCC2=O)nc(CC)c/c1=C/c1[n-]c(=O)[n-]c1[O-] (nonaromatic ring conformer: 101.42752706704017 kcal/mol)

> <smiles>
C=c1c(N2CCCC2=O)nc(CC)cc1=Cc1[nH]c(=O)[nH]c1O

> <score_type>
oracle

> <origin>
adg

> <m_score__min__energy>
-15.720000000000001

> <m_primary>
energy

> <minimizedAffinity>
-7.26642

> <minimizedRMSD>
1.08928

> <CNNscore>
0.5434181094

> <CNNaffinity>
6.4282774925

> <CNN_VS>
3.4932425022

> <CNNaffinity_variance>
0.1472696811

$$$$
69:0


 29 31  0  0  0  0  0  0  0  0999 V2000
   58.3522   27.9210   45.8559 C   0  0  0  0  0  0  0  0  0  0  0  0
   56.9623   27.8927   45.6630 C   0  0  0  0  0  0  0  0  0  0  0  0
   56.2188   26.7499   45.9424 O   0  0  0  0  0  0  0  0  0  0  0  0
   56.3214   28.9835   45.1835 N   0  0  0  0  0  0  0  0  0  0  0  0
   56.9858   30.1223   44.8747 C   0  0  0  0  0  0  0  0  0  0  0  0
   56.3310   31.1045   44.4313 O   0  0  0  0  0  0  0  0  0  0  0  0
   58.3459   30.2010   45.0431 N   0  0  0  0  0  0  0  0  0  0  0  0
   59.0313   29.1166   45.5357 C   0  0  0  0  0  0  0  0  0  0  0  0
   60.2794   29.1904   45.7175 O   0  0  0  0  0  0  0  0  0  0  0  0
   59.4299   26.7100   47.6058 O   0  0  0  0  0  0  0  0  0  0  0  0
   59.0702   26.7356   46.3979 C   0  0  0  0  0  0  0  0  0  0  0  0
   59.3618   25.6164   45.5518 N   0  0  0  0  0  0  0  0  0  0  0  0
   59.1767   24.2269   45.9570 C   0  0  0  0  0  0  0  0  0  0  0  0
   57.7448   23.8139   45.7520 C   0  0  0  0  0  0  0  0  0  0  0  0
   56.8986   23.6458   46.8599 C   0  0  0  0  0  0  0  0  0  0  0  0
   55.5599   23.2910   46.6765 C   0  0  0  0  0  0  0  0  0  0  0  0
   55.0537   23.1077   45.3861 C   0  0  0  0  0  0  0  0  0  0  0  0
   55.8889   23.2800   44.2741 C   0  0  0  0  0  0  0  0  0  0  0  0
   55.3932   23.1091   42.9824 O   0  0  0  0  0  0  0  0  0  0  0  0
   57.2304   23.6303   44.4584 C   0  0  0  0  0  0  0  0  0  0  0  0
   54.4955   22.8744   42.8523 H   0  0  0  0  0  0  0  0  0  0  0  0
   59.0521   31.4607   44.7295 C   0  0  0  0  0  0  0  0  0  0  0  0
   59.1794   32.3229   45.9619 C   0  0  0  0  0  0  0  0  0  0  0  0
   59.1570   31.7300   47.2367 C   0  0  0  0  0  0  0  0  0  0  0  0
   59.2482   32.5188   48.3867 C   0  0  0  0  0  0  0  0  0  0  0  0
   59.3645   33.9050   48.2781 C   0  0  0  0  0  0  0  0  0  0  0  0
   59.3913   34.5059   47.0180 C   0  0  0  0  0  0  0  0  0  0  0  0
   59.2984   33.7238   45.8614 C   0  0  0  0  0  0  0  0  0  0  0  0
   59.3354   34.3331   44.6505 F   0  0  0  0  0  0  0  0  0  0  0  0
 10 11  2  0
 11 12  1  0
 12 13  1  0
 13 14  1  0
 14 15  2  0
 15 16  1  0
 16 17  2  0
 17 18  1  0
 18 19  1  0
 18 20  2  0
 11  1  1  0
  1  2  2  0
  2  3  1  0
  2  4  1  0
  4  5  1  0
  5  6  2  0
  5  7  1  0
  7 22  1  0
 22 23  1  0
 23 24  2  0
 24 25  1  0
 25 26  2  0
 26 27  1  0
 27 28  2  0
 28 29  1  0
  7  8  1  0
  8  9  2  0
 20 14  1  0
  8  1  1  0
 28 23  1  0
 19 21  1  0
M  CHG 1   3  -1
M  CHG 1   4  -1
M  CHG 1  12  -1
M  END
> <UniqueID>
64

> <SMILES>
O=C([N-]Cc1cccc(O)c1)c1c([O-])[n-]c(=O)n(Cc2ccccc2F)c1=O

> <Energy>
50.6107005279638

> <Genealogy>
O=C([N-]Cc1cccc(O)c1)c1c([O-])[n-]c(=O)n(Cc2ccccc2F)c1=O (protonated)
O=C([N-]Cc1cccc(O)c1)c1c([O-])[n-]c(=O)n(Cc2ccccc2F)c1=O (3D coordinates assigned)
O=C([N-]Cc1cccc(O)c1)c1c([O-])[n-]c(=O)n(Cc2ccccc2F)c1=O (optimized conformer: 50.6107005279638 kcal/mol)

> <smiles>
O=C(NCc1cccc(O)c1)c1c(O)[nH]c(=O)n(Cc2ccccc2F)c1=O

> <score_type>
oracle

> <origin>
adg

> <m_score__min__energy>
-15.06

> <m_primary>
energy

> <minimizedAffinity>
-6.18181

> <minimizedRMSD>
1.00760

> <CNNscore>
0.3436052203

> <CNNaffinity>
6.3241658211

> <CNN_VS>
2.1730163097

> <CNNaffinity_variance>
0.1167854443

$$$$
71:0


 33 35  0  0  0  0  0  0  0  0999 V2000
   58.8965   27.4901   45.4973 N   0  0  0  0  0  0  0  0  0  0  0  0
   57.9290   26.4341   45.4253 C   0  0  0  0  0  0  0  0  0  0  0  0
   57.8628   25.7427   44.3740 O   0  0  0  0  0  0  0  0  0  0  0  0
   57.0292   26.0923   46.5734 C   0  0  0  0  0  0  0  0  0  0  0  0
   57.3794   24.7687   47.0788 N   0  0  0  0  0  0  0  0  0  0  0  0
   56.8367   23.5413   46.5680 C   0  0  0  0  0  0  0  0  0  0  0  0
   57.6107   22.5923   46.3126 O   0  0  0  0  0  0  0  0  0  0  0  0
   52.6139   23.0183   46.0013 C   0  0  0  0  0  0  0  0  0  0  0  0
   53.2670   22.3915   47.0772 C   0  0  0  0  0  0  0  0  0  0  0  0
   54.6454   22.5560   47.2593 C   0  0  0  0  0  0  0  0  0  0  0  0
   55.3878   23.3512   46.3699 C   0  0  0  0  0  0  0  0  0  0  0  0
   54.7299   24.0046   45.3147 C   0  0  0  0  0  0  0  0  0  0  0  0
   53.3525   23.8367   45.1302 C   0  0  0  0  0  0  0  0  0  0  0  0
   51.1954   22.8949   45.7987 N   0  0  0  0  0  0  0  0  0  0  0  0
   50.3554   24.5304   44.0604 C   0  0  0  0  0  0  0  0  0  0  0  0
   50.4956   23.1314   44.5703 C   0  0  0  0  0  0  0  0  0  0  0  0
   50.0790   22.1673   43.8713 O   0  0  0  0  0  0  0  0  0  0  0  0
   58.8353   28.7713   44.7979 C   0  0  0  0  0  0  0  0  0  0  0  0
   57.8046   29.6911   45.3969 C   0  0  0  0  0  0  0  0  0  0  0  0
   56.6268   29.6597   44.9504 O   0  0  0  0  0  0  0  0  0  0  0  0
   58.1252   30.6242   46.4381 N   0  0  0  0  0  0  0  0  0  0  0  0
   58.5580   31.9674   46.2036 C   0  0  0  0  0  0  0  0  0  0  0  0
   58.2130   32.6012   45.0027 C   0  0  0  0  0  0  0  0  0  0  0  0
   58.6201   33.9134   44.7566 C   0  0  0  0  0  0  0  0  0  0  0  0
   59.3887   34.5963   45.7017 C   0  0  0  0  0  0  0  0  0  0  0  0
   59.7554   33.9648   46.8923 C   0  0  0  0  0  0  0  0  0  0  0  0
   59.3462   32.6460   47.1539 C   0  0  0  0  0  0  0  0  0  0  0  0
   59.8037   31.9795   48.3462 N   0  0  0  0  0  0  0  0  0  0  0  0
   60.9883   31.1137   48.2571 C   0  0  0  0  0  0  0  0  0  0  0  0
   61.2452   30.3849   49.5664 C   0  0  0  0  0  0  0  0  0  0  0  0
   60.0305   29.8887   50.0713 O   0  0  0  0  0  0  0  0  0  0  0  0
   59.2799   30.9622   50.5973 C   0  0  0  0  0  0  0  0  0  0  0  0
   58.9263   32.0212   49.5306 C   0  0  0  0  0  0  0  0  0  0  0  0
 15 16  1  0
 16 17  2  0
 16 14  1  0
 14  8  1  0
  8  9  2  0
  9 10  1  0
 10 11  2  0
 11  6  1  0
  6  7  2  0
  6  5  1  0
  5  4  1  0
  4  2  1  0
  2  3  2  0
  2  1  1  0
  1 18  1  0
 18 19  1  0
 19 20  2  0
 19 21  1  0
 21 22  1  0
 22 23  2  0
 23 24  1  0
 24 25  2  0
 25 26  1  0
 26 27  2  0
 27 28  1  0
 28 29  1  0
 29 30  1  0
 30 31  1  0
 31 32  1  0
 32 33  1  0
 11 12  1  0
 12 13  2  0
 13  8  1  0
 27 22  1  0
 33 28  1  0
M  CHG 1   1  -1
M  CHG 1   5  -1
M  CHG 1  14  -1
M  CHG 1  21  -1
M  END
> <UniqueID>
66

> <SMILES>
CC(=O)[N-]c1ccc(C(=O)[N-]CC(=O)[N-]CC(=O)[N-]c2ccccc2N2CCOCC2)cc1

> <Energy>
75.5450544953463

> <Genealogy>
CC(=O)[N-]c1ccc(C(=O)[N-]CC(=O)[N-]CC(=O)[N-]c2ccccc2N2CCOCC2)cc1 (protonated)
CC(=O)[N-]c1ccc(C(=O)[N-]CC(=O)[N-]CC(=O)[N-]c2ccccc2N2CCOCC2)cc1 (3D coordinates assigned)
CC(=O)[N-]c1ccc(C(=O)[N-]CC(=O)[N-]CC(=O)[N-]c2ccccc2N2CCOCC2)cc1 (nonaromatic ring conformer: 75.5450544953463 kcal/mol)

> <smiles>
CC(=O)Nc1ccc(C(=O)NCC(=O)NCC(=O)Nc2ccccc2N2CCOCC2)cc1

> <score_type>
oracle

> <origin>
adg

> <m_score__min__energy>
-14.65

> <m_primary>
energy

> <minimizedAffinity>
-7.32010

> <minimizedRMSD>
1.39836

> <CNNscore>
0.2074254900

> <CNNaffinity>
5.9117107391

> <CNN_VS>
1.2262394428

> <CNNaffinity_variance>
0.2707711458

$$$$
81:0


 30 33  0  0  0  0  0  0  0  0999 V2000
   54.2877   27.7528   53.5636 C   0  0  0  0  0  0  0  0  0  0  0  0
   55.1135   28.8106   53.6368 C   0  0  0  0  0  0  0  0  0  0  0  0
   54.8016   30.1464   53.3353 C   0  0  0  0  0  0  0  0  0  0  0  0
   53.6187   30.7514   53.1132 C   0  0  0  0  0  0  0  0  0  0  0  0
   56.0050   30.8276   53.3172 C   0  0  0  0  0  0  0  0  0  0  0  0
   56.9816   29.9279   53.6846 C   0  0  0  0  0  0  0  0  0  0  0  0
   56.4464   28.6982   53.8717 N   0  0  0  0  0  0  0  0  0  0  0  0
   57.1839   27.4497   54.1050 C   0  0  0  0  0  0  0  0  0  0  0  0
   58.4074   30.2812   53.8392 C   0  0  0  0  0  0  0  0  0  0  0  0
   58.8755   30.3875   55.0050 O   0  0  0  0  0  0  0  0  0  0  0  0
   59.2705   30.4763   52.7012 N   0  0  0  0  0  0  0  0  0  0  0  0
   59.0734   29.7072   51.4625 C   0  0  0  0  0  0  0  0  0  0  0  0
   59.3432   30.5922   50.2409 C   0  0  0  0  0  0  0  0  0  0  0  0
   60.5901   31.3588   50.3908 N   0  0  0  0  0  0  0  0  0  0  0  0
   61.3789   31.2515   51.6234 C   0  0  0  0  0  0  0  0  0  0  0  0
   60.4633   31.3234   52.8519 C   0  0  0  0  0  0  0  0  0  0  0  0
   61.1543   32.0131   49.2393 C   0  0  0  0  0  0  0  0  0  0  0  0
   62.4149   31.6221   48.7527 C   0  0  0  0  0  0  0  0  0  0  0  0
   62.9654   32.2476   47.6311 C   0  0  0  0  0  0  0  0  0  0  0  0
   62.2660   33.2700   46.9863 C   0  0  0  0  0  0  0  0  0  0  0  0
   61.0160   33.6702   47.4641 C   0  0  0  0  0  0  0  0  0  0  0  0
   60.4583   33.0487   48.5866 C   0  0  0  0  0  0  0  0  0  0  0  0
   59.2626   33.4833   49.0547 F   0  0  0  0  0  0  0  0  0  0  0  0
   52.8701   30.7324   51.8454 C   0  0  0  0  0  0  0  0  0  0  0  0
   53.0323   29.8177   50.8720 N   0  0  0  0  0  0  0  0  0  0  0  0
   52.0508   30.1172   49.9942 C   0  0  0  0  0  0  0  0  0  0  0  0
   51.8824   29.4814   48.9220 O   0  0  0  0  0  0  0  0  0  0  0  0
   51.2558   31.1450   50.3640 N   0  0  0  0  0  0  0  0  0  0  0  0
   51.7807   31.5122   51.5446 C   0  0  0  0  0  0  0  0  0  0  0  0
   51.2702   32.5354   52.3317 O   0  0  0  0  0  0  0  0  0  0  0  0
  1  2  2  0
  2  3  1  0
  3  4  2  0
  4 24  1  0
 24 25  1  0
 25 26  1  0
 26 27  2  0
 26 28  1  0
 28 29  1  0
 29 30  1  0
  3  5  1  0
  5  6  2  0
  6  9  1  0
  9 10  2  0
  9 11  1  0
 11 12  1  0
 12 13  1  0
 13 14  1  0
 14 17  1  0
 17 18  2  0
 18 19  1  0
 19 20  2  0
 20 21  1  0
 21 22  2  0
 22 23  1  0
 14 15  1  0
 15 16  1  0
  6  7  1  0
  7  8  1  0
  7  2  1  0
 29 24  2  0
 16 11  1  0
 22 17  1  0
M  CHG 1  25  -1
M  CHG 1  28  -1
M  CHG 1  30  -1
M  END
> <UniqueID>
76

> <SMILES>
C=c1c(=Cc2[n-]c(=O)[n-]c2[O-])cc(C(=O)N2CCN(c3ccccc3F)CC2)n1C

> <Energy>
131.8460993444557

> <Genealogy>
C=c1c(=Cc2[n-]c(=O)[n-]c2[O-])cc(C(=O)N2CCN(c3ccccc3F)CC2)n1C (protonated)
C=c1c(=Cc2[n-]c(=O)[n-]c2[O-])cc(C(=O)N2CCN(c3ccccc3F)CC2)n1C (3D coordinates assigned)
C=c1c(=Cc2[n-]c(=O)[n-]c2[O-])cc(C(=O)N2CCN(c3ccccc3F)CC2)n1C (nonaromatic ring conformer: 131.8460993444557 kcal/mol)

> <smiles>
C=c1c(=Cc2[nH]c(=O)[nH]c2O)cc(C(=O)N2CCN(c3ccccc3F)CC2)n1C

> <score_type>
oracle

> <origin>
adg

> <m_score__min__energy>
-17.5

> <m_primary>
energy

> <minimizedAffinity>
-6.45464

> <minimizedRMSD>
1.07679

> <CNNscore>
0.0778707713

> <CNNaffinity>
5.4459972382

> <CNN_VS>
0.4240840077

> <CNNaffinity_variance>
0.0877117142

$$$$
2:0


 28 31  0  0  0  0  0  0  0  0999 V2000
   56.6723   30.5903   42.9066 C   0  0  0  0  0  0  0  0  0  0  0  0
   57.3444   30.8287   44.0366 C   0  0  0  0  0  0  0  0  0  0  0  0
   58.0578   32.3112   44.3813 S   0  0  0  0  0  0  0  0  0  0  0  0
   58.6597   31.8881   45.8898 C   0  0  0  0  0  0  0  0  0  0  0  0
   58.3334   30.5604   46.1402 C   0  0  0  0  0  0  0  0  0  0  0  0
   57.5739   29.9513   45.1161 C   0  0  0  0  0  0  0  0  0  0  0  0
   57.1642   28.6654   45.1536 C   0  0  0  0  0  0  0  0  0  0  0  0
   59.4751   32.7698   46.7473 C   0  0  0  0  0  0  0  0  0  0  0  0
   58.9823   33.8643   47.1326 O   0  0  0  0  0  0  0  0  0  0  0  0
   60.8151   32.4197   47.1439 N   0  0  0  0  0  0  0  0  0  0  0  0
   61.8233   33.4849   47.2512 C   0  0  0  0  0  0  0  0  0  0  0  0
   63.1835   32.9267   47.6717 C   0  0  0  0  0  0  0  0  0  0  0  0
   63.0091   32.0294   48.8223 N   0  0  0  0  0  0  0  0  0  0  0  0
   61.9770   30.9810   48.7812 C   0  0  0  0  0  0  0  0  0  0  0  0
   61.1681   31.0303   47.4789 C   0  0  0  0  0  0  0  0  0  0  0  0
   63.7811   32.2189   50.0217 C   0  0  0  0  0  0  0  0  0  0  0  0
   63.3639   31.6464   51.2366 C   0  0  0  0  0  0  0  0  0  0  0  0
   64.1090   31.8434   52.4033 C   0  0  0  0  0  0  0  0  0  0  0  0
   65.2720   32.6156   52.3701 C   0  0  0  0  0  0  0  0  0  0  0  0
   65.6932   33.1935   51.1698 C   0  0  0  0  0  0  0  0  0  0  0  0
   64.9516   32.9988   50.0008 C   0  0  0  0  0  0  0  0  0  0  0  0
   57.9391   27.5606   45.7494 C   0  0  0  0  0  0  0  0  0  0  0  0
   59.2833   27.5314   45.7741 N   0  0  0  0  0  0  0  0  0  0  0  0
   59.5599   26.3249   46.3145 C   0  0  0  0  0  0  0  0  0  0  0  0
   60.7375   25.9264   46.5170 O   0  0  0  0  0  0  0  0  0  0  0  0
   58.4786   25.5734   46.6084 N   0  0  0  0  0  0  0  0  0  0  0  0
   57.4603   26.3637   46.2337 C   0  0  0  0  0  0  0  0  0  0  0  0
   56.1262   25.9777   46.2945 O   0  0  0  0  0  0  0  0  0  0  0  0
  1  2  2  0
  2  3  1  0
  3  4  1  0
  4  8  1  0
  8  9  2  0
  8 10  1  0
 10 11  1  0
 11 12  1  0
 12 13  1  0
 13 16  1  0
 16 17  2  0
 17 18  1  0
 18 19  2  0
 19 20  1  0
 20 21  2  0
 13 14  1  0
 14 15  1  0
  4  5  2  0
  5  6  1  0
  6  7  2  0
  7 22  1  0
 22 23  1  0
 23 24  1  0
 24 25  2  0
 24 26  1  0
 26 27  1  0
 27 28  1  0
  6  2  1  0
 27 22  2  0
 15 10  1  0
 21 16  1  0
M  CHG 1  23  -1
M  CHG 1  26  -1
M  CHG 1  28  -1
M  END
> <UniqueID>
3

> <SMILES>
C=c1sc(C(=O)N2CCN(c3ccccc3)CC2)c/c1=C\c1[n-]c(=O)[n-]c1[O-]

> <Energy>
120.30102680887423

> <Genealogy>
C=c1sc(C(=O)N2CCN(c3ccccc3)CC2)cc1=Cc1[n-]c(=O)[n-]c1[O-] (protonated)
C=c1sc(C(=O)N2CCN(c3ccccc3)CC2)c/c1=C\c1[n-]c(=O)[n-]c1[O-] (cis-trans isomerization)
C=c1sc(C(=O)N2CCN(c3ccccc3)CC2)c/c1=C\c1[n-]c(=O)[n-]c1[O-] (3D coordinates assigned)
C=c1sc(C(=O)N2CCN(c3ccccc3)CC2)c/c1=C\c1[n-]c(=O)[n-]c1[O-] (nonaromatic ring conformer: 120.30102680887423 kcal/mol)

> <smiles>
C=c1sc(C(=O)N2CCN(c3ccccc3)CC2)cc1=Cc1[nH]c(=O)[nH]c1O

> <score_type>
oracle

> <origin>
adg

> <m_score__min__energy>
-17.800000000000001

> <m_primary>
energy

> <minimizedAffinity>
-7.85340

> <minimizedRMSD>
0.90415

> <CNNscore>
0.1550915539

> <CNNaffinity>
6.0026373863

> <CNN_VS>
0.9309583306

> <CNNaffinity_variance>
0.0895994827

$$$$
6:0


 28 31  0  0  0  0  0  0  0  0999 V2000
   56.4987   31.8028   52.4277 C   0  0  0  0  0  0  0  0  0  0  0  0
   56.1240   30.6022   52.8993 C   0  0  0  0  0  0  0  0  0  0  0  0
   54.8092   30.1756   53.1129 C   0  0  0  0  0  0  0  0  0  0  0  0
   53.6809   30.8930   52.9512 C   0  0  0  0  0  0  0  0  0  0  0  0
   54.8935   28.8714   53.5800 C   0  0  0  0  0  0  0  0  0  0  0  0
   56.2361   28.5525   53.6215 C   0  0  0  0  0  0  0  0  0  0  0  0
   56.7762   27.2305   54.0755 C   0  0  0  0  0  0  0  0  0  0  0  0
   56.9896   29.6041   53.2217 N   0  0  0  0  0  0  0  0  0  0  0  0
   52.8341   30.8300   51.7466 C   0  0  0  0  0  0  0  0  0  0  0  0
   52.9480   29.6291   50.5720 S   0  0  0  0  0  0  0  0  0  0  0  0
   51.6336   30.2259   49.7118 C   0  0  0  0  0  0  0  0  0  0  0  0
   51.1997   29.7248   48.6434 O   0  0  0  0  0  0  0  0  0  0  0  0
   51.0754   31.3056   50.2979 N   0  0  0  0  0  0  0  0  0  0  0  0
   51.7341   31.6352   51.4397 C   0  0  0  0  0  0  0  0  0  0  0  0
   51.3005   32.6755   52.2515 O   0  0  0  0  0  0  0  0  0  0  0  0
   58.4539   29.6148   53.1008 C   0  0  0  0  0  0  0  0  0  0  0  0
   58.8499   29.9792   51.7043 C   0  0  0  0  0  0  0  0  0  0  0  0
   58.3529   29.4290   50.6244 O   0  0  0  0  0  0  0  0  0  0  0  0
   58.9190   29.9398   49.5696 N   0  0  0  0  0  0  0  0  0  0  0  0
   59.8059   30.8441   50.0403 C   0  0  0  0  0  0  0  0  0  0  0  0
   59.7858   30.8909   51.3894 N   0  0  0  0  0  0  0  0  0  0  0  0
   60.3233   31.4533   51.9928 H   0  0  0  0  0  0  0  0  0  0  0  0
   60.6809   31.6654   49.1687 C   0  0  0  0  0  0  0  0  0  0  0  0
   61.7914   31.1049   48.5070 C   0  0  0  0  0  0  0  0  0  0  0  0
   62.6025   31.8981   47.6904 C   0  0  0  0  0  0  0  0  0  0  0  0
   62.3186   33.2554   47.5215 C   0  0  0  0  0  0  0  0  0  0  0  0
   61.2198   33.8216   48.1723 C   0  0  0  0  0  0  0  0  0  0  0  0
   60.4052   33.0354   48.9902 C   0  0  0  0  0  0  0  0  0  0  0  0
  1  2  2  0
  2  3  1  0
  3  4  2  0
  4  9  1  0
  9 10  1  0
 10 11  1  0
 11 12  2  0
 11 13  1  0
 13 14  1  0
 14 15  1  0
  3  5  1  0
  5  6  2  0
  6  7  1  0
  6  8  1  0
  8 16  1  0
 16 17  1  0
 17 18  1  0
 18 19  1  0
 19 20  2  0
 20 23  1  0
 23 24  2  0
 24 25  1  0
 25 26  2  0
 26 27  1  0
 27 28  2  0
 20 21  1  0
  8  2  1  0
 21 17  2  0
 14  9  2  0
 28 23  1  0
 21 22  1  0
M  CHG 1  13  -1
M  CHG 1  15  -1
M  CHG 1  21   1
M  END
> <UniqueID>
7

> <SMILES>
C=c1/c(=C/c2sc(=O)[n-]c2[O-])cc(C)n1Cc1[nH+]c(-c2ccccc2)no1

> <Energy>
147.25866361990353

> <Genealogy>
C=c1c(=Cc2sc(=O)[n-]c2[O-])cc(C)n1Cc1[nH+]c(-c2ccccc2)no1 (protonated)
C=c1/c(=C/c2sc(=O)[n-]c2[O-])cc(C)n1Cc1[nH+]c(-c2ccccc2)no1 (cis-trans isomerization)
C=c1/c(=C/c2sc(=O)[n-]c2[O-])cc(C)n1Cc1[nH+]c(-c2ccccc2)no1 (3D coordinates assigned)
C=c1/c(=C/c2sc(=O)[n-]c2[O-])cc(C)n1Cc1[nH+]c(-c2ccccc2)no1 (optimized conformer: 147.25866361990353 kcal/mol)

> <smiles>
C=c1c(=Cc2sc(=O)[nH]c2O)cc(C)n1Cc1nc(-c2ccccc2)no1

> <score_type>
oracle

> <origin>
adg

> <m_score__min__energy>
-14.17

> <m_primary>
energy

> <minimizedAffinity>
-4.37483

> <minimizedRMSD>
0.81631

> <CNNscore>
0.1662324071

> <CNNaffinity>
5.5570678711

> <CNN_VS>
0.9237647653

> <CNNaffinity_variance>
0.0142132007

$$$$
23:0


 28 30  0  0  0  0  0  0  0  0999 V2000
   55.2967   31.1523   51.8129 C   0  0  0  0  0  0  0  0  0  0  0  0
   55.2688   30.0769   52.6175 C   0  0  0  0  0  0  0  0  0  0  0  0
   54.1272   29.4995   53.1911 C   0  0  0  0  0  0  0  0  0  0  0  0
   52.8459   29.8902   53.0131 C   0  0  0  0  0  0  0  0  0  0  0  0
   54.5850   28.4666   54.0007 C   0  0  0  0  0  0  0  0  0  0  0  0
   55.9588   28.4444   53.8804 C   0  0  0  0  0  0  0  0  0  0  0  0
   56.8577   27.4786   54.5919 C   0  0  0  0  0  0  0  0  0  0  0  0
   56.3780   29.4157   53.0387 N   0  0  0  0  0  0  0  0  0  0  0  0
   57.7454   29.6664   52.6646 C   0  0  0  0  0  0  0  0  0  0  0  0
   58.6802   29.2333   53.3929 O   0  0  0  0  0  0  0  0  0  0  0  0
   58.0423   30.3330   51.4282 N   0  0  0  0  0  0  0  0  0  0  0  0
   57.3190   30.4208   50.7660 H   0  0  0  0  0  0  0  0  0  0  0  0
   52.2265   30.2624   51.7211 C   0  0  0  0  0  0  0  0  0  0  0  0
   52.2215   29.5187   50.6007 N   0  0  0  0  0  0  0  0  0  0  0  0
   51.5812   30.2977   49.7044 C   0  0  0  0  0  0  0  0  0  0  0  0
   51.3742   29.9356   48.5173 O   0  0  0  0  0  0  0  0  0  0  0  0
   51.1824   31.4959   50.1787 N   0  0  0  0  0  0  0  0  0  0  0  0
   51.6021   31.4599   51.4538 C   0  0  0  0  0  0  0  0  0  0  0  0
   51.4187   32.5005   52.3553 O   0  0  0  0  0  0  0  0  0  0  0  0
   59.3300   30.8806   51.0964 C   0  0  0  0  0  0  0  0  0  0  0  0
   59.6418   32.1891   51.4884 C   0  0  0  0  0  0  0  0  0  0  0  0
   60.8939   32.7379   51.1983 C   0  0  0  0  0  0  0  0  0  0  0  0
   61.8703   31.9822   50.5227 C   0  0  0  0  0  0  0  0  0  0  0  0
   61.5609   30.6590   50.1514 C   0  0  0  0  0  0  0  0  0  0  0  0
   60.3069   30.1130   50.4412 C   0  0  0  0  0  0  0  0  0  0  0  0
   63.1989   32.5803   50.2200 C   0  0  0  0  0  0  0  0  0  0  0  0
   63.8837   32.1324   49.2606 O   0  0  0  0  0  0  0  0  0  0  0  0
   63.7586   33.7153   51.0247 C   0  0  0  0  0  0  0  0  0  0  0  0
  1  2  2  0
  2  3  1  0
  3  4  2  0
  4 13  1  0
 13 14  1  0
 14 15  1  0
 15 16  2  0
 15 17  1  0
 17 18  1  0
 18 19  1  0
  3  5  1  0
  5  6  2  0
  6  7  1  0
  6  8  1  0
  8  9  1  0
  9 10  2  0
  9 11  1  0
 11 20  1  0
 20 21  2  0
 21 22  1  0
 22 23  2  0
 23 26  1  0
 26 27  2  0
 26 28  1  0
 23 24  1  0
 24 25  2  0
  8  2  1  0
 25 20  1  0
 18 13  2  0
 11 12  1  0
M  CHG 1  14  -1
M  CHG 1  17  -1
M  CHG 1  19  -1
M  END
> <UniqueID>
24

> <SMILES>
C=c1/c(=C/c2[n-]c(=O)[n-]c2[O-])cc(C)n1C(=O)Nc1ccc(C(C)=O)cc1

> <Energy>
114.77393836687372

> <Genealogy>
C=c1c(=Cc2[n-]c(=O)[n-]c2[O-])cc(C)n1C(=O)Nc1ccc(C(C)=O)cc1 (protonated)
C=c1/c(=C/c2[n-]c(=O)[n-]c2[O-])cc(C)n1C(=O)Nc1ccc(C(C)=O)cc1 (cis-trans isomerization)
C=c1/c(=C/c2[n-]c(=O)[n-]c2[O-])cc(C)n1C(=O)Nc1ccc(C(C)=O)cc1 (3D coordinates assigned)
C=c1/c(=C/c2[n-]c(=O)[n-]c2[O-])cc(C)n1C(=O)Nc1ccc(C(C)=O)cc1 (optimized conformer: 114.77393836687372 kcal/mol)

> <smiles>
C=c1c(=Cc2[nH]c(=O)[nH]c2O)cc(C)n1C(=O)Nc1ccc(C(C)=O)cc1

> <score_type>
oracle

> <origin>
adg

> <m_score__min__energy>
-15.640000000000001

> <m_primary>
energy

> <minimizedAffinity>
-5.09301

> <minimizedRMSD>
1.05928

> <CNNscore>
0.0617456064

> <CNNaffinity>
4.8703923225

> <CNN_VS>
0.3007253408

> <CNNaffinity_variance>
0.2098631412

$$$$
69:0


 33 36  0  0  0  0  0  0  0  0999 V2000
   59.5543   34.7045   46.6663 C   0  0  0  0  0  0  0  0  0  0  0  0
   58.8793   33.5114   46.0364 C   0  0  0  0  0  0  0  0  0  0  0  0
   58.4328   33.5667   44.7072 C   0  0  0  0  0  0  0  0  0  0  0  0
   57.8256   32.4571   44.1162 C   0  0  0  0  0  0  0  0  0  0  0  0
   57.6589   31.2634   44.8421 C   0  0  0  0  0  0  0  0  0  0  0  0
   58.1129   31.2105   46.1731 C   0  0  0  0  0  0  0  0  0  0  0  0
   58.7153   32.3243   46.7642 C   0  0  0  0  0  0  0  0  0  0  0  0
   57.0243   30.0845   44.2102 C   0  0  0  0  0  0  0  0  0  0  0  0
   56.7418   30.1033   42.9812 O   0  0  0  0  0  0  0  0  0  0  0  0
   56.7906   28.8963   44.9809 N   0  0  0  0  0  0  0  0  0  0  0  0
   57.7950   27.9983   45.4781 C   0  0  0  0  0  0  0  0  0  0  0  0
   59.1674   28.2772   45.3392 C   0  0  0  0  0  0  0  0  0  0  0  0
   60.1216   27.3717   45.8150 C   0  0  0  0  0  0  0  0  0  0  0  0
   59.7154   26.1801   46.4214 C   0  0  0  0  0  0  0  0  0  0  0  0
   58.3549   25.8865   46.5419 C   0  0  0  0  0  0  0  0  0  0  0  0
   57.3965   26.7870   46.0649 C   0  0  0  0  0  0  0  0  0  0  0  0
   56.0454   26.4795   46.1831 O   0  0  0  0  0  0  0  0  0  0  0  0
   61.0806   34.5524   46.6912 C   0  0  0  0  0  0  0  0  0  0  0  0
   62.8850   33.1836   47.8114 C   0  0  0  0  0  0  0  0  0  0  0  0
   63.6845   33.4070   46.8611 O   0  0  0  0  0  0  0  0  0  0  0  0
   61.5108   33.5787   47.6950 N   0  0  0  0  0  0  0  0  0  0  0  0
   60.8433   33.1866   48.3032 H   0  0  0  0  0  0  0  0  0  0  0  0
   59.9827   29.1826   50.1192 C   0  0  0  0  0  0  0  0  0  0  0  0
   61.1769   30.0176   50.1618 N   0  0  0  0  0  0  0  0  0  0  0  0
   61.4676   30.9502   49.2600 N   0  0  0  0  0  0  0  0  0  0  0  0
   62.6665   31.4558   49.6350 C   0  0  0  0  0  0  0  0  0  0  0  0
   63.3738   32.5034   49.0283 C   0  0  0  0  0  0  0  0  0  0  0  0
   64.5714   32.9090   49.6541 C   0  0  0  0  0  0  0  0  0  0  0  0
   65.0317   32.2640   50.8201 C   0  0  0  0  0  0  0  0  0  0  0  0
   64.2836   31.2134   51.3713 C   0  0  0  0  0  0  0  0  0  0  0  0
   63.1308   30.8647   50.7519 N   0  0  0  0  0  0  0  0  0  0  0  0
   62.1868   29.9625   51.0540 C   0  0  0  0  0  0  0  0  0  0  0  0
   62.2344   29.1778   52.0391 O   0  0  0  0  0  0  0  0  0  0  0  0
 23 24  1  0
 24 25  1  0
 25 26  2  0
 26 27  1  0
 27 19  1  0
 19 20  2  0
 19 21  1  0
 21 18  1  0
 18  1  1  0
  1  2  1  0
  2  3  2  0
  3  4  1  0
  4  5  2  0
  5  8  1  0
  8  9  2  0
  8 10  1  0
 10 11  1  0
 11 12  2  0
 12 13  1  0
 13 14  2  0
 14 15  1  0
 15 16  2  0
 16 17  1  0
  5  6  1  0
  6  7  2  0
 27 28  2  0
 28 29  1  0
 29 30  2  0
 30 31  1  0
 31 32  1  0
 32 33  2  0
 32 24  1  0
 31 26  1  0
  7  2  1  0
 16 11  1  0
 21 22  1  0
M  CHG 1  10  -1
M  CHG 1  17  -1
M  END
> <UniqueID>
67

> <SMILES>
Cn1nc2c(C(=O)NCCc3ccc(C(=O)[N-]c4ccccc4[O-])cc3)cccn2c1=O

> <Energy>
99.80566271891102

> <Genealogy>
Cn1nc2c(C(=O)NCCc3ccc(C(=O)[N-]c4ccccc4[O-])cc3)cccn2c1=O (protonated)
Cn1nc2c(C(=O)NCCc3ccc(C(=O)[N-]c4ccccc4[O-])cc3)cccn2c1=O (3D coordinates assigned)
Cn1nc2c(C(=O)NCCc3ccc(C(=O)[N-]c4ccccc4[O-])cc3)cccn2c1=O (optimized conformer: 99.80566271891102 kcal/mol)

> <smiles>
Cn1nc2c(C(=O)NCCc3ccc(C(=O)Nc4ccccc4O)cc3)cccn2c1=O

> <score_type>
oracle

> <origin>
adg

> <m_score__min__energy>
-15.23

> <m_primary>
energy

> <minimizedAffinity>
-8.38406

> <minimizedRMSD>
1.13361

> <CNNscore>
0.2979690433

> <CNNaffinity>
6.3883099556

> <CNN_VS>
1.9035185575

> <CNNaffinity_variance>
0.1087211445

$$$$
72:0


 29 33  0  0  0  0  0  0  0  0999 V2000
   57.7678   27.6653   44.2741 C   0  0  0  0  0  0  0  0  0  0  0  0
   58.2716   27.0252   45.3403 C   0  0  0  0  0  0  0  0  0  0  0  0
   58.2720   25.6400   45.5716 C   0  0  0  0  0  0  0  0  0  0  0  0
   57.6087   24.6409   44.9582 C   0  0  0  0  0  0  0  0  0  0  0  0
   59.1287   25.4261   46.6385 C   0  0  0  0  0  0  0  0  0  0  0  0
   59.5508   26.6668   47.0685 C   0  0  0  0  0  0  0  0  0  0  0  0
   60.4785   26.8947   48.2227 C   0  0  0  0  0  0  0  0  0  0  0  0
   59.0324   27.6382   46.2836 N   0  0  0  0  0  0  0  0  0  0  0  0
   59.2861   29.0493   46.4122 C   0  0  0  0  0  0  0  0  0  0  0  0
   58.3128   29.9821   45.9923 C   0  0  0  0  0  0  0  0  0  0  0  0
   58.5619   31.3559   46.1254 C   0  0  0  0  0  0  0  0  0  0  0  0
   59.7461   31.7453   46.6636 N   0  0  0  0  0  0  0  0  0  0  0  0
   60.2406   32.9769   46.9049 C   0  0  0  0  0  0  0  0  0  0  0  0
   59.5468   34.2655   46.5862 C   0  0  0  0  0  0  0  0  0  0  0  0
   61.5173   32.8158   47.4360 C   0  0  0  0  0  0  0  0  0  0  0  0
   61.7866   31.4953   47.5539 N   0  0  0  0  0  0  0  0  0  0  0  0
   60.6930   30.8792   47.0680 C   0  0  0  0  0  0  0  0  0  0  0  0
   60.5008   29.5037   46.9614 C   0  0  0  0  0  0  0  0  0  0  0  0
   62.6017   31.0776   47.9150 H   0  0  0  0  0  0  0  0  0  0  0  0
   62.4430   33.9076   47.8867 C   0  0  0  0  0  0  0  0  0  0  0  0
   62.5382   34.0844   49.3950 C   0  0  0  0  0  0  0  0  0  0  0  0
   63.6742   33.4218   48.6372 C   0  0  0  0  0  0  0  0  0  0  0  0
   56.3327   24.0581   45.4066 C   0  0  0  0  0  0  0  0  0  0  0  0
   55.9897   22.7634   45.2711 N   0  0  0  0  0  0  0  0  0  0  0  0
   54.7054   22.7366   45.6884 C   0  0  0  0  0  0  0  0  0  0  0  0
   54.0274   21.6765   45.7232 O   0  0  0  0  0  0  0  0  0  0  0  0
   54.2023   23.9350   46.0534 N   0  0  0  0  0  0  0  0  0  0  0  0
   55.2417   24.7616   45.8554 C   0  0  0  0  0  0  0  0  0  0  0  0
   55.1915   26.1315   46.0746 O   0  0  0  0  0  0  0  0  0  0  0  0
  1  2  2  0
  2  3  1  0
  3  4  2  0
  4 23  1  0
 23 24  1  0
 24 25  1  0
 25 26  2  0
 25 27  1  0
 27 28  1  0
 28 29  1  0
  3  5  1  0
  5  6  2  0
  6  7  1  0
  6  8  1  0
  8  9  1  0
  9 10  1  0
 10 11  2  0
 11 12  1  0
 12 13  1  0
 13 14  1  0
 13 15  2  0
 15 20  1  0
 20 21  1  0
 21 22  1  0
 15 16  1  0
 16 17  2  0
 17 18  1  0
  8  2  1  0
 18  9  2  0
 28 23  2  0
 17 12  1  0
 22 20  1  0
 16 19  1  0
M  CHG 1  16   1
M  CHG 1  24  -1
M  CHG 1  27  -1
M  CHG 1  29  -1
M  END
> <UniqueID>
69

> <SMILES>
C=c1c(=Cc2[n-]c(=O)[n-]c2[O-])cc(C)n1-c1ccn2c(C)c(C3CC3)[nH+]c2c1

> <Energy>
424.8298206395782

> <Genealogy>
C=c1c(=Cc2[n-]c(=O)[n-]c2[O-])cc(C)n1-c1ccn2c(C)c(C3CC3)[nH+]c2c1 (protonated)
C=c1c(=Cc2[n-]c(=O)[n-]c2[O-])cc(C)n1-c1ccn2c(C)c(C3CC3)[nH+]c2c1 (3D coordinates assigned)
C=c1c(=Cc2[n-]c(=O)[n-]c2[O-])cc(C)n1-c1ccn2c(C)c(C3CC3)[nH+]c2c1 (nonaromatic ring conformer: 424.8298206395782 kcal/mol)

> <smiles>
C=c1c(=Cc2[nH]c(=O)[nH]c2O)cc(C)n1-c1ccn2c(C)c(C3CC3)nc2c1

> <score_type>
oracle

> <origin>
adg

> <m_score__min__energy>
-14.76

> <m_primary>
energy

> <minimizedAffinity>
-9.09373

> <minimizedRMSD>
0.60456

> <CNNscore>
0.1169445217

> <CNNaffinity>
6.7145156860

> <CNN_VS>
0.7852258086

> <CNNaffinity_variance>
0.0000301825

$$$$
55:0


 30 33  0  0  0  0  0  0  0  0999 V2000
   53.6065   29.0464   52.7296 C   0  0  0  0  0  0  0  0  0  0  0  0
   54.9067   29.2573   53.0259 C   0  0  0  0  0  0  0  0  0  0  0  0
   55.7588   28.3852   53.6905 C   0  0  0  0  0  0  0  0  0  0  0  0
   56.9930   28.9969   53.7431 C   0  0  0  0  0  0  0  0  0  0  0  0
   58.2221   28.3547   54.3164 C   0  0  0  0  0  0  0  0  0  0  0  0
   56.9561   30.2045   53.1337 N   0  0  0  0  0  0  0  0  0  0  0  0
   55.6826   30.3736   52.6838 C   0  0  0  0  0  0  0  0  0  0  0  0
   55.2490   31.4558   52.0145 C   0  0  0  0  0  0  0  0  0  0  0  0
   52.7131   29.7059   49.8450 O   0  0  0  0  0  0  0  0  0  0  0  0
   52.3063   30.3864   50.9905 C   0  0  0  0  0  0  0  0  0  0  0  0
   51.4828   31.4469   50.9590 N   0  0  0  0  0  0  0  0  0  0  0  0
   51.3668   31.7757   52.2611 C   0  0  0  0  0  0  0  0  0  0  0  0
   50.6652   32.7420   52.6585 O   0  0  0  0  0  0  0  0  0  0  0  0
   52.0678   30.9904   53.1071 N   0  0  0  0  0  0  0  0  0  0  0  0
   52.6575   30.0956   52.2936 C   0  0  0  0  0  0  0  0  0  0  0  0
   52.4150   29.9869   49.0024 H   0  0  0  0  0  0  0  0  0  0  0  0
   58.1147   31.0952   52.9476 C   0  0  0  0  0  0  0  0  0  0  0  0
   58.6188   31.0224   51.5287 C   0  0  0  0  0  0  0  0  0  0  0  0
   58.7834   29.7791   50.8965 C   0  0  0  0  0  0  0  0  0  0  0  0
   59.2406   29.7150   49.5777 C   0  0  0  0  0  0  0  0  0  0  0  0
   59.5279   30.8876   48.8771 C   0  0  0  0  0  0  0  0  0  0  0  0
   59.3544   32.1391   49.4887 C   0  0  0  0  0  0  0  0  0  0  0  0
   58.9178   32.1978   50.8223 C   0  0  0  0  0  0  0  0  0  0  0  0
   59.6651   33.3856   48.7597 C   0  0  0  0  0  0  0  0  0  0  0  0
   60.3027   34.2960   49.3544 O   0  0  0  0  0  0  0  0  0  0  0  0
   59.2407   33.5899   47.3987 N   0  0  0  0  0  0  0  0  0  0  0  0
   59.7307   34.6884   46.5856 C   0  0  0  0  0  0  0  0  0  0  0  0
   58.9734   34.5942   45.2695 C   0  0  0  0  0  0  0  0  0  0  0  0
   57.7472   33.7333   45.5626 C   0  0  0  0  0  0  0  0  0  0  0  0
   58.1062   32.9107   46.7915 C   0  0  0  0  0  0  0  0  0  0  0  0
  9 10  1  0
 10 11  1  0
 11 12  1  0
 12 13  2  0
 12 14  1  0
 14 15  1  0
 15  1  1  0
  1  2  2  0
  2  3  1  0
  3  4  2  0
  4  5  1  0
  4  6  1  0
  6 17  1  0
 17 18  1  0
 18 19  2  0
 19 20  1  0
 20 21  2  0
 21 22  1  0
 22 24  1  0
 24 25  2  0
 24 26  1  0
 26 27  1  0
 27 28  1  0
 28 29  1  0
 29 30  1  0
 22 23  2  0
  6  7  1  0
  7  8  2  0
 15 10  2  0
  7  2  1  0
 23 18  1  0
 30 26  1  0
  9 16  1  0
M  CHG 1  11  -1
M  CHG 1  14  -1
M  END
> <UniqueID>
48

> <SMILES>
C=c1/c(=C/c2[n-]c(=O)[n-]c2O)cc(C)n1Cc1cccc(C(=O)N2CCCC2)c1

> <Energy>
119.149063476463

> <Genealogy>
C=c1c(=Cc2[n-]c(=O)[n-]c2O)cc(C)n1Cc1cccc(C(=O)N2CCCC2)c1 (protonated)
C=c1/c(=C/c2[n-]c(=O)[n-]c2O)cc(C)n1Cc1cccc(C(=O)N2CCCC2)c1 (cis-trans isomerization)
C=c1/c(=C/c2[n-]c(=O)[n-]c2O)cc(C)n1Cc1cccc(C(=O)N2CCCC2)c1 (3D coordinates assigned)
C=c1/c(=C/c2[n-]c(=O)[n-]c2O)cc(C)n1Cc1cccc(C(=O)N2CCCC2)c1 (nonaromatic ring conformer: 119.149063476463 kcal/mol)

> <smiles>
C=c1c(=Cc2[nH]c(=O)[nH]c2O)cc(C)n1Cc1cccc(C(=O)N2CCCC2)c1

> <score_type>
oracle

> <origin>
adg

> <m_score__min__energy>
-14.289999999999999

> <m_primary>
energy

> <minimizedAffinity>
-7.93658

> <minimizedRMSD>
0.84326

> <CNNscore>
0.2965827286

> <CNNaffinity>
5.6083092690

> <CNN_VS>
1.6633276939

> <CNNaffinity_variance>
0.1357719451

$$$$
66:0


 30 33  0  0  0  0  0  0  0  0999 V2000
   58.8089   28.1831   47.2936 C   0  0  0  0  0  0  0  0  0  0  0  0
   58.5894   28.6931   46.0708 C   0  0  0  0  0  0  0  0  0  0  0  0
   58.2029   27.9961   44.9127 C   0  0  0  0  0  0  0  0  0  0  0  0
   58.1120   26.6754   44.6634 C   0  0  0  0  0  0  0  0  0  0  0  0
   57.9062   28.9595   43.9615 C   0  0  0  0  0  0  0  0  0  0  0  0
   58.1732   30.1843   44.5349 C   0  0  0  0  0  0  0  0  0  0  0  0
   57.9971   31.5028   43.8418 C   0  0  0  0  0  0  0  0  0  0  0  0
   58.5857   30.0267   45.8114 N   0  0  0  0  0  0  0  0  0  0  0  0
   57.6242   25.6524   45.6087 C   0  0  0  0  0  0  0  0  0  0  0  0
   56.3531   25.7528   46.2002 C   0  0  0  0  0  0  0  0  0  0  0  0
   55.5022   26.8038   45.8820 O   0  0  0  0  0  0  0  0  0  0  0  0
   55.9494   24.8161   47.0971 N   0  0  0  0  0  0  0  0  0  0  0  0
   56.7605   23.7877   47.4511 C   0  0  0  0  0  0  0  0  0  0  0  0
   56.2462   22.6773   48.5308 S   0  0  0  0  0  0  0  0  0  0  0  0
   58.0045   23.6881   46.9161 N   0  0  0  0  0  0  0  0  0  0  0  0
   58.4569   24.5963   46.0139 C   0  0  0  0  0  0  0  0  0  0  0  0
   59.6176   24.4770   45.5424 O   0  0  0  0  0  0  0  0  0  0  0  0
   58.9294   31.0913   46.7196 C   0  0  0  0  0  0  0  0  0  0  0  0
   58.0199   32.1240   46.9591 C   0  0  0  0  0  0  0  0  0  0  0  0
   58.3426   33.1441   47.8506 C   0  0  0  0  0  0  0  0  0  0  0  0
   59.5751   33.1421   48.5092 C   0  0  0  0  0  0  0  0  0  0  0  0
   60.5226   32.1154   48.2840 C   0  0  0  0  0  0  0  0  0  0  0  0
   60.1681   31.0866   47.3765 C   0  0  0  0  0  0  0  0  0  0  0  0
   61.8130   32.1077   48.9737 N   0  0  0  0  0  0  0  0  0  0  0  0
   62.0862   31.0472   49.9686 C   0  0  0  0  0  0  0  0  0  0  0  0
   63.4297   31.1830   50.6944 C   0  0  0  0  0  0  0  0  0  0  0  0
   64.4785   31.6645   49.7991 N   0  0  0  0  0  0  0  0  0  0  0  0
   64.1461   33.0217   49.3762 C   0  0  0  0  0  0  0  0  0  0  0  0
   62.8645   33.0563   48.5363 C   0  0  0  0  0  0  0  0  0  0  0  0
   64.5393   31.0558   48.9829 H   0  0  0  0  0  0  0  0  0  0  0  0
  1  2  2  0
  2  3  1  0
  3  4  2  0
  4  9  1  0
  9 10  2  0
 10 11  1  0
 10 12  1  0
 12 13  1  0
 13 14  2  0
 13 15  1  0
 15 16  1  0
 16 17  2  0
  3  5  1  0
  5  6  2  0
  6  7  1  0
  6  8  1  0
  8 18  1  0
 18 19  2  0
 19 20  1  0
 20 21  2  0
 21 22  1  0
 22 24  1  0
 24 25  1  0
 25 26  1  0
 26 27  1  0
 27 28  1  0
 28 29  1  0
 22 23  2  0
  8  2  1  0
 23 18  1  0
 16  9  1  0
 29 24  1  0
 27 30  1  0
M  CHG 1  11  -1
M  CHG 1  12  -1
M  CHG 1  15  -1
M  END
> <UniqueID>
59

> <SMILES>
C=c1c(=Cc2c([O-])[n-]c(=S)[n-]c2=O)cc(C)n1-c1cccc(N2CCNCC2)c1

> <Energy>
107.97577263228732

> <Genealogy>
C=c1c(=Cc2c([O-])[n-]c(=S)[n-]c2=O)cc(C)n1-c1cccc(N2CCNCC2)c1 (protonated)
C=c1c(=Cc2c([O-])[n-]c(=S)[n-]c2=O)cc(C)n1-c1cccc(N2CCNCC2)c1 (3D coordinates assigned)
C=c1c(=Cc2c([O-])[n-]c(=S)[n-]c2=O)cc(C)n1-c1cccc(N2CCNCC2)c1 (nonaromatic ring conformer: 107.97577263228732 kcal/mol)

> <smiles>
C=c1c(=Cc2c(O)[nH]c(=S)[nH]c2=O)cc(C)n1-c1cccc(N2CCNCC2)c1

> <score_type>
oracle

> <origin>
adg

> <m_score__min__energy>
-16.190000000000001

> <m_primary>
energy

> <minimizedAffinity>
-6.19388

> <minimizedRMSD>
0.70514

> <CNNscore>
0.1268513054

> <CNNaffinity>
6.3981647491

> <CNN_VS>
0.8116155267

> <CNNaffinity_variance>
0.0033112664

$$$$
70:0


 29 32  0  0  0  0  0  0  0  0999 V2000
   60.4181   28.3464   45.3466 C   0  0  0  0  0  0  0  0  0  0  0  0
   59.0825   28.4216   45.2675 C   0  0  0  0  0  0  0  0  0  0  0  0
   58.1765   27.3605   45.2410 C   0  0  0  0  0  0  0  0  0  0  0  0
   58.4603   26.0496   45.3366 C   0  0  0  0  0  0  0  0  0  0  0  0
   56.9206   27.8504   45.1492 N   0  0  0  0  0  0  0  0  0  0  0  0
   57.0883   29.1864   45.1128 C   0  0  0  0  0  0  0  0  0  0  0  0
   56.1240   29.9900   45.0178 O   0  0  0  0  0  0  0  0  0  0  0  0
   58.3796   29.5754   45.1879 N   0  0  0  0  0  0  0  0  0  0  0  0
   57.4839   24.9731   45.0739 C   0  0  0  0  0  0  0  0  0  0  0  0
   57.1615   24.5684   43.8270 N   0  0  0  0  0  0  0  0  0  0  0  0
   56.2169   23.6240   44.0251 C   0  0  0  0  0  0  0  0  0  0  0  0
   55.6809   22.9841   43.0798 O   0  0  0  0  0  0  0  0  0  0  0  0
   55.9072   23.4330   45.3228 N   0  0  0  0  0  0  0  0  0  0  0  0
   54.9820   22.4556   45.8885 C   0  0  0  0  0  0  0  0  0  0  0  0
   56.7071   24.2813   45.9882 C   0  0  0  0  0  0  0  0  0  0  0  0
   56.6940   24.4492   47.3683 O   0  0  0  0  0  0  0  0  0  0  0  0
   58.8814   30.9537   45.1208 C   0  0  0  0  0  0  0  0  0  0  0  0
   59.3051   31.4265   46.4876 C   0  0  0  0  0  0  0  0  0  0  0  0
   59.1409   30.6022   47.6112 C   0  0  0  0  0  0  0  0  0  0  0  0
   59.5445   31.0424   48.8763 C   0  0  0  0  0  0  0  0  0  0  0  0
   60.1116   32.3194   49.0408 C   0  0  0  0  0  0  0  0  0  0  0  0
   60.2822   33.1356   47.9112 C   0  0  0  0  0  0  0  0  0  0  0  0
   59.8771   32.6958   46.6479 C   0  0  0  0  0  0  0  0  0  0  0  0
   60.5424   32.7729   50.3396 N   0  0  0  0  0  0  0  0  0  0  0  0
   59.7375   32.8831   51.5019 C   0  0  0  0  0  0  0  0  0  0  0  0
   58.4912   32.7030   51.5033 O   0  0  0  0  0  0  0  0  0  0  0  0
   60.4949   33.3179   52.6914 C   0  0  0  0  0  0  0  0  0  0  0  0
   61.9423   33.3705   52.1856 C   0  0  0  0  0  0  0  0  0  0  0  0
   61.8900   33.2210   50.6533 C   0  0  0  0  0  0  0  0  0  0  0  0
  1  2  2  0
  2  3  1  0
  3  4  2  0
  4  9  1  0
  9 10  1  0
 10 11  1  0
 11 12  2  0
 11 13  1  0
 13 14  1  0
 13 15  1  0
 15 16  1  0
  3  5  1  0
  5  6  1  0
  6  7  2  0
  6  8  1  0
  8 17  1  0
 17 18  1  0
 18 19  2  0
 19 20  1  0
 20 21  2  0
 21 24  1  0
 24 25  1  0
 25 26  2  0
 25 27  1  0
 27 28  1  0
 28 29  1  0
 21 22  1  0
 22 23  2  0
  8  2  1  0
 23 18  1  0
 15  9  2  0
 29 24  1  0
M  CHG 1   5  -1
M  CHG 1  10  -1
M  CHG 1  16  -1
M  END
> <UniqueID>
63

> <SMILES>
C=c1/c(=C/c2[n-]c(=O)n(C)c2[O-])[n-]c(=O)n1Cc1ccc(N2CCCC2=O)cc1

> <Energy>
129.94247699952797

> <Genealogy>
C=c1c(=Cc2[n-]c(=O)n(C)c2[O-])[n-]c(=O)n1Cc1ccc(N2CCCC2=O)cc1 (protonated)
C=c1/c(=C/c2[n-]c(=O)n(C)c2[O-])[n-]c(=O)n1Cc1ccc(N2CCCC2=O)cc1 (cis-trans isomerization)
C=c1/c(=C/c2[n-]c(=O)n(C)c2[O-])[n-]c(=O)n1Cc1ccc(N2CCCC2=O)cc1 (3D coordinates assigned)
C=c1/c(=C/c2[n-]c(=O)n(C)c2[O-])[n-]c(=O)n1Cc1ccc(N2CCCC2=O)cc1 (nonaromatic ring conformer: 129.94247699952797 kcal/mol)

> <smiles>
C=c1c(=Cc2[nH]c(=O)n(C)c2O)[nH]c(=O)n1Cc1ccc(N2CCCC2=O)cc1

> <score_type>
oracle

> <origin>
adg

> <m_score__min__energy>
-14.869999999999999

> <m_primary>
energy

> <minimizedAffinity>
-8.00702

> <minimizedRMSD>
1.47995

> <CNNscore>
0.2991061807

> <CNNaffinity>
6.8227353096

> <CNN_VS>
2.0407223701

> <CNNaffinity_variance>
0.4320216179

$$$$
77:0


 31 34  0  0  0  0  0  0  0  0999 V2000
   57.4766   30.2807   53.7773 C   0  0  0  0  0  0  0  0  0  0  0  0
   57.9028   30.4508   54.9504 O   0  0  0  0  0  0  0  0  0  0  0  0
   58.3325   30.5829   52.6542 N   0  0  0  0  0  0  0  0  0  0  0  0
   57.7799   31.1471   51.4108 C   0  0  0  0  0  0  0  0  0  0  0  0
   58.4678   30.5412   50.1754 C   0  0  0  0  0  0  0  0  0  0  0  0
   59.8912   30.2637   50.4227 N   0  0  0  0  0  0  0  0  0  0  0  0
   60.5351   29.1677   49.7447 C   0  0  0  0  0  0  0  0  0  0  0  0
   61.3983   28.4826   50.3571 O   0  0  0  0  0  0  0  0  0  0  0  0
   60.1702   28.8011   48.4012 N   0  0  0  0  0  0  0  0  0  0  0  0
   60.0237   27.3824   48.0609 C   0  0  0  0  0  0  0  0  0  0  0  0
   59.6083   27.2384   46.5953 C   0  0  0  0  0  0  0  0  0  0  0  0
   60.4997   27.9795   45.7885 O   0  0  0  0  0  0  0  0  0  0  0  0
   60.3652   29.3861   45.9986 C   0  0  0  0  0  0  0  0  0  0  0  0
   59.8488   29.8160   47.3937 C   0  0  0  0  0  0  0  0  0  0  0  0
   60.5401   30.9074   51.5692 C   0  0  0  0  0  0  0  0  0  0  0  0
   59.7900   30.5330   52.8491 C   0  0  0  0  0  0  0  0  0  0  0  0
   53.4824   27.5713   54.0229 C   0  0  0  0  0  0  0  0  0  0  0  0
   54.2683   28.6257   53.7563 C   0  0  0  0  0  0  0  0  0  0  0  0
   54.0052   29.6754   52.8615 C   0  0  0  0  0  0  0  0  0  0  0  0
   52.8796   30.0261   52.2066 C   0  0  0  0  0  0  0  0  0  0  0  0
   55.1843   30.3908   52.7478 C   0  0  0  0  0  0  0  0  0  0  0  0
   56.0949   29.7991   53.5944 C   0  0  0  0  0  0  0  0  0  0  0  0
   55.5349   28.7439   54.2310 N   0  0  0  0  0  0  0  0  0  0  0  0
   56.1667   27.8905   55.2429 C   0  0  0  0  0  0  0  0  0  0  0  0
   51.7787   30.8383   52.7498 C   0  0  0  0  0  0  0  0  0  0  0  0
   51.2758   30.7209   53.9930 N   0  0  0  0  0  0  0  0  0  0  0  0
   50.3984   31.7452   54.0745 C   0  0  0  0  0  0  0  0  0  0  0  0
   49.7022   31.9646   55.1006 O   0  0  0  0  0  0  0  0  0  0  0  0
   50.3362   32.5291   52.9743 N   0  0  0  0  0  0  0  0  0  0  0  0
   51.2272   31.9466   52.1524 C   0  0  0  0  0  0  0  0  0  0  0  0
   51.5272   32.4144   50.8834 O   0  0  0  0  0  0  0  0  0  0  0  0
 17 18  2  0
 18 19  1  0
 19 20  2  0
 20 25  1  0
 25 26  1  0
 26 27  1  0
 27 28  2  0
 27 29  1  0
 29 30  1  0
 30 31  1  0
 19 21  1  0
 21 22  2  0
 22  1  1  0
  1  2  2  0
  1  3  1  0
  3  4  1  0
  4  5  1  0
  5  6  1  0
  6  7  1  0
  7  8  2  0
  7  9  1  0
  9 10  1  0
 10 11  1  0
 11 12  1  0
 12 13  1  0
 13 14  1  0
  6 15  1  0
 15 16  1  0
 22 23  1  0
 23 24  1  0
 23 18  1  0
 30 25  2  0
 16  3  1  0
 14  9  1  0
M  CHG 1  26  -1
M  CHG 1  29  -1
M  CHG 1  31  -1
M  END
> <UniqueID>
70

> <SMILES>
C=c1c(=Cc2[n-]c(=O)[n-]c2[O-])cc(C(=O)N2CCN(C(=O)N3CCOCC3)CC2)n1C

> <Energy>
142.258548672459

> <Genealogy>
C=c1c(=Cc2[n-]c(=O)[n-]c2[O-])cc(C(=O)N2CCN(C(=O)N3CCOCC3)CC2)n1C (protonated)
C=c1c(=Cc2[n-]c(=O)[n-]c2[O-])cc(C(=O)N2CCN(C(=O)N3CCOCC3)CC2)n1C (3D coordinates assigned)
C=c1c(=Cc2[n-]c(=O)[n-]c2[O-])cc(C(=O)N2CCN(C(=O)N3CCOCC3)CC2)n1C (nonaromatic ring conformer: 142.258548672459 kcal/mol)

> <smiles>
C=c1c(=Cc2[nH]c(=O)[nH]c2O)cc(C(=O)N2CCN(C(=O)N3CCOCC3)CC2)n1C

> <score_type>
oracle

> <origin>
adg

> <m_score__min__energy>
-17.949999999999999

> <m_primary>
energy

> <minimizedAffinity>
-6.99327

> <minimizedRMSD>
0.65601

> <CNNscore>
0.1174243763

> <CNNaffinity>
4.6665248871

> <CNN_VS>
0.5479637980

> <CNNaffinity_variance>
0.6330057979

$$$$
2:0


 29 31  0  0  0  0  0  0  0  0999 V2000
   60.5808   26.6399   46.6748 C   0  0  0  0  0  0  0  0  0  0  0  0
   59.8442   27.5353   45.9925 C   0  0  0  0  0  0  0  0  0  0  0  0
   60.2711   28.8764   46.0211 C   0  0  0  0  0  0  0  0  0  0  0  0
   59.4413   29.9047   45.5840 C   0  0  0  0  0  0  0  0  0  0  0  0
   58.1485   29.6299   45.1180 C   0  0  0  0  0  0  0  0  0  0  0  0
   57.7351   28.2898   45.0235 C   0  0  0  0  0  0  0  0  0  0  0  0
   58.5920   27.2204   45.3722 C   0  0  0  0  0  0  0  0  0  0  0  0
   58.1644   25.9697   45.0655 C   0  0  0  0  0  0  0  0  0  0  0  0
   57.3953   25.0742   45.9529 C   0  0  0  0  0  0  0  0  0  0  0  0
   57.8336   23.8923   46.4238 N   0  0  0  0  0  0  0  0  0  0  0  0
   56.7598   23.3975   47.0766 C   0  0  0  0  0  0  0  0  0  0  0  0
   56.7801   22.2910   47.6743 O   0  0  0  0  0  0  0  0  0  0  0  0
   55.6585   24.1795   47.0298 N   0  0  0  0  0  0  0  0  0  0  0  0
   56.0757   25.2306   46.3041 C   0  0  0  0  0  0  0  0  0  0  0  0
   55.2678   26.3110   45.9653 O   0  0  0  0  0  0  0  0  0  0  0  0
   54.3750   26.3354   46.2487 H   0  0  0  0  0  0  0  0  0  0  0  0
   57.2315   30.7242   44.6961 C   0  0  0  0  0  0  0  0  0  0  0  0
   55.9951   30.4902   44.5990 O   0  0  0  0  0  0  0  0  0  0  0  0
   57.7559   32.0963   44.3390 C   0  0  0  0  0  0  0  0  0  0  0  0
   57.5377   33.1268   45.4549 C   0  0  0  0  0  0  0  0  0  0  0  0
   58.7360   33.1824   46.3645 C   0  0  0  0  0  0  0  0  0  0  0  0
   58.6220   32.8089   47.7096 C   0  0  0  0  0  0  0  0  0  0  0  0
   59.7233   32.8924   48.5647 C   0  0  0  0  0  0  0  0  0  0  0  0
   60.9682   33.3625   48.0950 C   0  0  0  0  0  0  0  0  0  0  0  0
   61.0676   33.7493   46.7428 C   0  0  0  0  0  0  0  0  0  0  0  0
   59.9639   33.6653   45.8905 C   0  0  0  0  0  0  0  0  0  0  0  0
   62.1152   33.4493   48.9823 N   0  0  0  0  0  0  0  0  0  0  0  0
   63.4802   33.3905   48.4436 C   0  0  0  0  0  0  0  0  0  0  0  0
   61.9290   33.5977   50.4308 C   0  0  0  0  0  0  0  0  0  0  0  0
  1  2  2  0
  2  3  1  0
  3  4  2  0
  4  5  1  0
  5 17  1  0
 17 18  2  0
 17 19  1  0
 19 20  1  0
 20 21  1  0
 21 22  2  0
 22 23  1  0
 23 24  2  0
 24 27  1  0
 27 28  1  0
 27 29  1  0
 24 25  1  0
 25 26  2  0
  5  6  2  0
  6  7  1  0
  7  8  2  0
  8  9  1  0
  9 10  1  0
 10 11  1  0
 11 12  2  0
 11 13  1  0
 13 14  1  0
 14 15  1  0
  7  2  1  0
 14  9  2  0
 26 21  1  0
 15 16  1  0
M  CHG 1  10  -1
M  CHG 1  13  -1
M  END
> <UniqueID>
3

> <SMILES>
C=c1ccc(C(=O)CCc2ccc(N(C)C)cc2)cc1=Cc1[n-]c(=O)[n-]c1O

> <Energy>
101.07928952159021

> <Genealogy>
C=c1ccc(C(=O)CCc2ccc(N(C)C)cc2)cc1=Cc1[n-]c(=O)[n-]c1O (protonated)
C=c1ccc(C(=O)CCc2ccc(N(C)C)cc2)cc1=Cc1[n-]c(=O)[n-]c1O (3D coordinates assigned)
C=c1ccc(C(=O)CCc2ccc(N(C)C)cc2)cc1=Cc1[n-]c(=O)[n-]c1O (optimized conformer: 101.07928952159021 kcal/mol)

> <smiles>
C=c1ccc(C(=O)CCc2ccc(N(C)C)cc2)cc1=Cc1[nH]c(=O)[nH]c1O

> <score_type>
oracle

> <origin>
adg

> <m_score__min__energy>
-14.640000000000001

> <m_primary>
energy

> <minimizedAffinity>
-9.93424

> <minimizedRMSD>
0.63378

> <CNNscore>
0.8091736436

> <CNNaffinity>
7.3684477806

> <CNN_VS>
5.9623537064

> <CNNaffinity_variance>
0.0551408678

$$$$
4:0


 28 30  0  0  0  0  0  0  0  0999 V2000
   58.4373   29.8610   44.6642 C   0  0  0  0  0  0  0  0  0  0  0  0
   58.4534   31.0686   45.3024 C   0  0  0  0  0  0  0  0  0  0  0  0
   58.2733   32.2985   44.5954 C   0  0  0  0  0  0  0  0  0  0  0  0
   58.0223   32.3932   43.2786 C   0  0  0  0  0  0  0  0  0  0  0  0
   58.3909   33.4688   45.2692 N   0  0  0  0  0  0  0  0  0  0  0  0
   58.6609   33.5328   46.5904 C   0  0  0  0  0  0  0  0  0  0  0  0
   58.7889   34.6661   47.1294 O   0  0  0  0  0  0  0  0  0  0  0  0
   58.7859   32.3866   47.3250 N   0  0  0  0  0  0  0  0  0  0  0  0
   58.6421   31.1666   46.7129 C   0  0  0  0  0  0  0  0  0  0  0  0
   58.6408   30.1249   47.4269 O   0  0  0  0  0  0  0  0  0  0  0  0
   57.0156   25.5102   46.5736 O   0  0  0  0  0  0  0  0  0  0  0  0
   58.0140   26.4256   46.2428 C   0  0  0  0  0  0  0  0  0  0  0  0
   59.3468   26.1082   46.5220 C   0  0  0  0  0  0  0  0  0  0  0  0
   60.3670   27.0095   46.2083 C   0  0  0  0  0  0  0  0  0  0  0  0
   60.0617   28.2293   45.6007 C   0  0  0  0  0  0  0  0  0  0  0  0
   58.7336   28.5514   45.2879 C   0  0  0  0  0  0  0  0  0  0  0  0
   57.7008   27.6560   45.6393 C   0  0  0  0  0  0  0  0  0  0  0  0
   56.3716   27.9895   45.3929 O   0  0  0  0  0  0  0  0  0  0  0  0
   57.2422   24.6946   46.9754 H   0  0  0  0  0  0  0  0  0  0  0  0
   59.1256   32.4503   48.7629 C   0  0  0  0  0  0  0  0  0  0  0  0
   60.6165   32.5924   48.9344 C   0  0  0  0  0  0  0  0  0  0  0  0
   61.4921   31.6445   48.3818 C   0  0  0  0  0  0  0  0  0  0  0  0
   62.8744   31.8131   48.4854 C   0  0  0  0  0  0  0  0  0  0  0  0
   63.4052   32.9376   49.1453 C   0  0  0  0  0  0  0  0  0  0  0  0
   62.5292   33.8813   49.6968 C   0  0  0  0  0  0  0  0  0  0  0  0
   61.1466   33.7139   49.5899 C   0  0  0  0  0  0  0  0  0  0  0  0
   64.7853   33.1550   49.2721 O   0  0  0  0  0  0  0  0  0  0  0  0
   65.5600   32.7620   50.4004 C   0  0  0  0  0  0  0  0  0  0  0  0
 11 12  1  0
 12 13  2  0
 13 14  1  0
 14 15  2  0
 15 16  1  0
 16  1  1  0
  1  2  2  0
  2  3  1  0
  3  4  2  0
  3  5  1  0
  5  6  1  0
  6  7  2  0
  6  8  1  0
  8 20  1  0
 20 21  1  0
 21 22  2  0
 22 23  1  0
 23 24  2  0
 24 27  1  0
 27 28  1  0
 24 25  1  0
 25 26  2  0
  8  9  1  0
  9 10  2  0
 16 17  2  0
 17 18  1  0
 17 12  1  0
  9  2  1  0
 26 21  1  0
 11 19  1  0
M  CHG 1   5  -1
M  CHG 1  18  -1
M  END
> <UniqueID>
5

> <SMILES>
C=c1[n-]c(=O)n(Cc2ccc(OC)cc2)c(=O)/c1=C\c1cccc(O)c1[O-]

> <Energy>
69.95074432920376

> <Genealogy>
C=c1[n-]c(=O)n(Cc2ccc(OC)cc2)c(=O)c1=Cc1cccc(O)c1[O-] (protonated)
C=c1[n-]c(=O)n(Cc2ccc(OC)cc2)c(=O)/c1=C\c1cccc(O)c1[O-] (cis-trans isomerization)
C=c1[n-]c(=O)n(Cc2ccc(OC)cc2)c(=O)/c1=C\c1cccc(O)c1[O-] (3D coordinates assigned)
C=c1[n-]c(=O)n(Cc2ccc(OC)cc2)c(=O)/c1=C\c1cccc(O)c1[O-] (optimized conformer: 69.95074432920376 kcal/mol)

> <smiles>
C=c1[nH]c(=O)n(Cc2ccc(OC)cc2)c(=O)c1=Cc1cccc(O)c1O

> <score_type>
oracle

> <origin>
adg

> <m_score__min__energy>
-14.6

> <m_primary>
energy

> <minimizedAffinity>
-8.24764

> <minimizedRMSD>
1.41524

> <CNNscore>
0.7445791364

> <CNNaffinity>
6.6693396568

> <CNN_VS>
4.9658513069

> <CNNaffinity_variance>
0.0976600572

$$$$
13:0


 25 26  0  0  0  0  0  0  0  0999 V2000
   60.8806   27.4374   49.1536 C   0  0  0  0  0  0  0  0  0  0  0  0
   59.8322   27.2219   48.1565 N   0  0  0  0  0  0  0  0  0  0  0  0
   60.1233   26.6438   46.8774 C   0  0  0  0  0  0  0  0  0  0  0  0
   61.3024   26.3067   46.5861 O   0  0  0  0  0  0  0  0  0  0  0  0
   58.9061   27.4797   48.3686 H   0  0  0  0  0  0  0  0  0  0  0  0
   59.0335   26.4782   45.8642 C   0  0  0  0  0  0  0  0  0  0  0  0
   58.4581   27.8115   45.5081 C   0  0  0  0  0  0  0  0  0  0  0  0
   59.3504   29.1578   45.0265 S   0  0  0  0  0  0  0  0  0  0  0  0
   57.9682   30.0789   44.7616 C   0  0  0  0  0  0  0  0  0  0  0  0
   57.9766   31.2737   44.3675 O   0  0  0  0  0  0  0  0  0  0  0  0
   56.8311   29.3966   45.0142 N   0  0  0  0  0  0  0  0  0  0  0  0
   57.1052   28.1299   45.4239 C   0  0  0  0  0  0  0  0  0  0  0  0
   56.0951   27.2265   45.7281 O   0  0  0  0  0  0  0  0  0  0  0  0
   60.5405   28.6031   50.0914 C   0  0  0  0  0  0  0  0  0  0  0  0
   59.4879   32.1522   47.8618 C   0  0  0  0  0  0  0  0  0  0  0  0
   58.6774   31.7133   48.9169 C   0  0  0  0  0  0  0  0  0  0  0  0
   59.0233   30.5699   49.6421 C   0  0  0  0  0  0  0  0  0  0  0  0
   60.1840   29.8503   49.3208 C   0  0  0  0  0  0  0  0  0  0  0  0
   60.9893   30.2863   48.2550 C   0  0  0  0  0  0  0  0  0  0  0  0
   60.6431   31.4295   47.5307 C   0  0  0  0  0  0  0  0  0  0  0  0
   57.3778   33.4800   46.4857 N   0  0  0  0  0  0  0  0  0  0  0  0
   59.0434   33.5801   46.9338 S   0  0  0  0  0  0  0  0  0  0  0  0
   59.2686   34.8168   47.7567 O   0  0  0  0  0  0  0  0  0  0  0  0
   59.8907   33.6644   45.6951 O   0  0  0  0  0  0  0  0  0  0  0  0
   57.1201   34.3075   45.9479 H   0  0  0  0  0  0  0  0  0  0  0  0
 21 22  1  0
 22 23  2  0
 22 24  2  0
 22 15  1  0
 15 16  2  0
 16 17  1  0
 17 18  2  0
 18 14  1  0
 14  1  1  0
  1  2  1  0
  2  3  1  0
  3  4  2  0
  3  6  1  0
  6  7  1  0
  7  8  1  0
  8  9  1  0
  9 10  2  0
  9 11  1  0
 11 12  1  0
 12 13  1  0
 18 19  1  0
 19 20  2  0
 20 15  1  0
 12  7  2  0
 21 25  1  0
  2  5  1  0
M  CHG 1  11  -1
M  CHG 1  13  -1
M  CHG 1  21  -1
M  END
> <UniqueID>
13

> <SMILES>
[NH-]S(=O)(=O)c1ccc(CCNC(=O)Cc2sc(=O)[n-]c2[O-])cc1

> <Energy>
58.473271719244735

> <Genealogy>
[NH-]S(=O)(=O)c1ccc(CCNC(=O)Cc2sc(=O)[n-]c2[O-])cc1 (protonated)
[NH-]S(=O)(=O)c1ccc(CCNC(=O)Cc2sc(=O)[n-]c2[O-])cc1 (3D coordinates assigned)
[NH-]S(=O)(=O)c1ccc(CCNC(=O)Cc2sc(=O)[n-]c2[O-])cc1 (optimized conformer: 58.473271719244735 kcal/mol)

> <smiles>
NS(=O)(=O)c1ccc(CCNC(=O)Cc2sc(=O)[nH]c2O)cc1

> <score_type>
oracle

> <origin>
adg

> <m_score__min__energy>
-14.81

> <m_primary>
energy

> <minimizedAffinity>
-5.37143

> <minimizedRMSD>
1.07603

> <CNNscore>
0.3739837408

> <CNNaffinity>
5.6481842995

> <CNN_VS>
2.1123290062

> <CNNaffinity_variance>
0.0223532412

$$$$
15:0


 26 28  0  0  0  0  0  0  0  0999 V2000
   57.5971   31.2236   51.8606 C   0  0  0  0  0  0  0  0  0  0  0  0
   57.8066   32.1106   52.9299 C   0  0  0  0  0  0  0  0  0  0  0  0
   58.6140   33.2387   52.7602 C   0  0  0  0  0  0  0  0  0  0  0  0
   59.1995   33.5022   51.5190 C   0  0  0  0  0  0  0  0  0  0  0  0
   58.9666   32.6431   50.4355 C   0  0  0  0  0  0  0  0  0  0  0  0
   58.1621   31.5072   50.6107 C   0  0  0  0  0  0  0  0  0  0  0  0
   59.7112   32.9576   48.8716 S   0  0  0  0  0  0  0  0  0  0  0  0
   59.0297   32.1214   47.8252 O   0  0  0  0  0  0  0  0  0  0  0  0
   59.5409   34.4090   48.5100 O   0  0  0  0  0  0  0  0  0  0  0  0
   61.4022   32.5373   48.9473 N   0  0  0  0  0  0  0  0  0  0  0  0
   62.2457   33.7312   48.9719 C   0  0  0  0  0  0  0  0  0  0  0  0
   63.5884   33.3205   48.3883 C   0  0  0  0  0  0  0  0  0  0  0  0
   63.3043   32.0681   47.5750 C   0  0  0  0  0  0  0  0  0  0  0  0
   61.8200   31.7916   47.7592 C   0  0  0  0  0  0  0  0  0  0  0  0
   56.7522   30.0735   51.9966 N   0  0  0  0  0  0  0  0  0  0  0  0
   56.1177   30.3256   54.2116 O   0  0  0  0  0  0  0  0  0  0  0  0
   55.8726   29.8015   53.0936 C   0  0  0  0  0  0  0  0  0  0  0  0
   54.6045   29.0091   52.9207 C   0  0  0  0  0  0  0  0  0  0  0  0
   53.4115   29.9213   52.9915 C   0  0  0  0  0  0  0  0  0  0  0  0
   52.6809   30.0319   54.1852 C   0  0  0  0  0  0  0  0  0  0  0  0
   51.5583   30.8598   54.2483 C   0  0  0  0  0  0  0  0  0  0  0  0
   51.1492   31.5745   53.1180 C   0  0  0  0  0  0  0  0  0  0  0  0
   50.0326   32.3965   53.1872 O   0  0  0  0  0  0  0  0  0  0  0  0
   51.8648   31.4581   51.9203 C   0  0  0  0  0  0  0  0  0  0  0  0
   51.4585   32.1614   50.7947 O   0  0  0  0  0  0  0  0  0  0  0  0
   52.9906   30.6308   51.8557 C   0  0  0  0  0  0  0  0  0  0  0  0
 16 17  2  0
 17 18  1  0
 18 19  1  0
 19 20  2  0
 20 21  1  0
 21 22  2  0
 22 23  1  0
 22 24  1  0
 24 25  1  0
 24 26  2  0
 17 15  1  0
 15  1  1  0
  1  2  2  0
  2  3  1  0
  3  4  2  0
  4  5  1  0
  5  7  1  0
  7  8  2  0
  7  9  2  0
  7 10  1  0
 10 11  1  0
 11 12  1  0
 12 13  1  0
 13 14  1  0
  5  6  2  0
 26 19  1  0
  6  1  1  0
 14 10  1  0
M  CHG 1  15  -1
M  CHG 1  23  -1
M  CHG 1  25  -1
M  END
> <UniqueID>
15

> <SMILES>
O=C(Cc1ccc([O-])c([O-])c1)[N-]c1cccc(S(=O)(=O)N2CCCC2)c1

> <Energy>
48.89613958401238

> <Genealogy>
O=C(Cc1ccc([O-])c([O-])c1)[N-]c1cccc(S(=O)(=O)N2CCCC2)c1 (protonated)
O=C(Cc1ccc([O-])c([O-])c1)[N-]c1cccc(S(=O)(=O)N2CCCC2)c1 (3D coordinates assigned)
O=C(Cc1ccc([O-])c([O-])c1)[N-]c1cccc(S(=O)(=O)N2CCCC2)c1 (nonaromatic ring conformer: 48.89613958401238 kcal/mol)

> <smiles>
O=C(Cc1ccc(O)c(O)c1)Nc1cccc(S(=O)(=O)N2CCCC2)c1

> <score_type>
oracle

> <origin>
adg

> <m_score__min__energy>
-18.379999999999999

> <m_primary>
energy

> <minimizedAffinity>
-7.19823

> <minimizedRMSD>
0.82277

> <CNNscore>
0.4607866406

> <CNNaffinity>
4.9713416100

> <CNN_VS>
2.2907278538

> <CNNaffinity_variance>
0.3412529230

$$$$
33:0


 25 26  0  0  0  0  0  0  0  0999 V2000
   57.7984   28.6524   44.2065 C   0  0  0  0  0  0  0  0  0  0  0  0
   57.1037   28.9059   43.1833 O   0  0  0  0  0  0  0  0  0  0  0  0
   57.2517   30.8182   45.2105 C   0  0  0  0  0  0  0  0  0  0  0  0
   57.8182   29.6024   45.3395 C   0  0  0  0  0  0  0  0  0  0  0  0
   57.9333   32.1033   45.4843 C   0  0  0  0  0  0  0  0  0  0  0  0
   58.2334   33.0161   44.4564 C   0  0  0  0  0  0  0  0  0  0  0  0
   58.9064   34.2070   44.7461 C   0  0  0  0  0  0  0  0  0  0  0  0
   59.3023   34.4880   46.0570 C   0  0  0  0  0  0  0  0  0  0  0  0
   59.9706   35.6719   46.3424 O   0  0  0  0  0  0  0  0  0  0  0  0
   59.0301   33.5752   47.0799 C   0  0  0  0  0  0  0  0  0  0  0  0
   58.3570   32.3821   46.7933 C   0  0  0  0  0  0  0  0  0  0  0  0
   58.5510   29.2340   46.5294 C   0  0  0  0  0  0  0  0  0  0  0  0
   59.1400   28.9384   47.4827 N   0  0  0  0  0  0  0  0  0  0  0  0
   58.5351   27.4636   44.2771 O   0  0  0  0  0  0  0  0  0  0  0  0
   57.9613   26.1736   44.0778 C   0  0  0  0  0  0  0  0  0  0  0  0
   57.9489   25.3934   45.3651 C   0  0  0  0  0  0  0  0  0  0  0  0
   58.7583   25.7186   46.2734 O   0  0  0  0  0  0  0  0  0  0  0  0
   57.0328   24.2442   45.5842 C   0  0  0  0  0  0  0  0  0  0  0  0
   57.5360   22.9372   45.4467 C   0  0  0  0  0  0  0  0  0  0  0  0
   56.6921   21.8331   45.5891 C   0  0  0  0  0  0  0  0  0  0  0  0
   55.3384   22.0153   45.8766 C   0  0  0  0  0  0  0  0  0  0  0  0
   54.5006   20.9157   46.0096 O   0  0  0  0  0  0  0  0  0  0  0  0
   54.8292   23.3062   46.0362 C   0  0  0  0  0  0  0  0  0  0  0  0
   55.6673   24.4195   45.9024 C   0  0  0  0  0  0  0  0  0  0  0  0
   55.1331   25.6866   46.1096 O   0  0  0  0  0  0  0  0  0  0  0  0
  3  4  2  0
  4 12  1  0
 12 13  3  0
  4  1  1  0
  1  2  2  0
  1 14  1  0
 14 15  1  0
 15 16  1  0
 16 17  2  0
 16 18  1  0
 18 19  2  0
 19 20  1  0
 20 21  2  0
 21 22  1  0
 21 23  1  0
 23 24  2  0
 24 25  1  0
  3  5  1  0
  5  6  2  0
  6  7  1  0
  7  8  2  0
  8  9  1  0
  8 10  1  0
 10 11  2  0
 24 18  1  0
 11  5  1  0
M  CHG 1   9  -1
M  CHG 1  22  -1
M  CHG 1  25  -1
M  END
> <UniqueID>
32

> <SMILES>
N#C/C(=C\c1ccc([O-])cc1)C(=O)OCC(=O)c1ccc([O-])cc1[O-]

> <Energy>
43.09546414759364

> <Genealogy>
N#CC(=Cc1ccc([O-])cc1)C(=O)OCC(=O)c1ccc([O-])cc1[O-] (protonated)
N#C/C(=C\c1ccc([O-])cc1)C(=O)OCC(=O)c1ccc([O-])cc1[O-] (cis-trans isomerization)
N#C/C(=C\c1ccc([O-])cc1)C(=O)OCC(=O)c1ccc([O-])cc1[O-] (3D coordinates assigned)
N#C/C(=C\c1ccc([O-])cc1)C(=O)OCC(=O)c1ccc([O-])cc1[O-] (optimized conformer: 43.09546414759364 kcal/mol)

> <smiles>
N#CC(=Cc1ccc(O)cc1)C(=O)OCC(=O)c1ccc(O)cc1O

> <score_type>
oracle

> <origin>
adg

> <m_score__min__energy>
-14.9

> <m_primary>
energy

> <minimizedAffinity>
-6.15903

> <minimizedRMSD>
1.03252

> <CNNscore>
0.3612874150

> <CNNaffinity>
5.8678784370

> <CNN_VS>
2.1199905872

> <CNNaffinity_variance>
0.0679438934

$$$$
37:0


 30 32  0  0  0  0  0  0  0  0999 V2000
   54.5712   29.6309   55.6383 C   0  0  0  0  0  0  0  0  0  0  0  0
   54.8977   29.8531   54.3555 C   0  0  0  0  0  0  0  0  0  0  0  0
   54.0162   30.0495   53.2788 C   0  0  0  0  0  0  0  0  0  0  0  0
   52.6791   29.9092   53.1893 C   0  0  0  0  0  0  0  0  0  0  0  0
   54.8004   30.4263   52.2031 C   0  0  0  0  0  0  0  0  0  0  0  0
   56.1126   30.3913   52.6261 C   0  0  0  0  0  0  0  0  0  0  0  0
   56.1756   30.0435   53.9335 N   0  0  0  0  0  0  0  0  0  0  0  0
   57.3839   29.9850   54.7656 C   0  0  0  0  0  0  0  0  0  0  0  0
   57.2724   30.6369   51.7467 C   0  0  0  0  0  0  0  0  0  0  0  0
   57.7573   29.6707   51.0968 O   0  0  0  0  0  0  0  0  0  0  0  0
   57.8408   31.9561   51.6062 N   0  0  0  0  0  0  0  0  0  0  0  0
   58.6711   32.3011   50.4464 C   0  0  0  0  0  0  0  0  0  0  0  0
   60.0759   32.7489   50.8975 C   0  0  0  0  0  0  0  0  0  0  0  0
   60.1066   33.3721   52.2478 N   0  0  0  0  0  0  0  0  0  0  0  0
   58.8155   33.9960   52.6100 C   0  0  0  0  0  0  0  0  0  0  0  0
   57.6882   32.9531   52.6732 C   0  0  0  0  0  0  0  0  0  0  0  0
   60.5881   32.4417   53.2941 C   0  0  0  0  0  0  0  0  0  0  0  0
   61.5853   31.4314   52.7141 C   0  0  0  0  0  0  0  0  0  0  0  0
   61.5693   29.8720   53.6002 S   0  0  0  0  0  0  0  0  0  0  0  0
   60.9690   30.1017   54.9594 O   0  0  0  0  0  0  0  0  0  0  0  0
   62.9814   29.3864   53.7737 O   0  0  0  0  0  0  0  0  0  0  0  0
   60.6258   28.6059   52.7614 C   0  0  0  0  0  0  0  0  0  0  0  0
   61.4205   27.9792   51.6226 C   0  0  0  0  0  0  0  0  0  0  0  0
   51.6928   30.9939   53.2926 C   0  0  0  0  0  0  0  0  0  0  0  0
   51.1677   31.4143   54.4571 N   0  0  0  0  0  0  0  0  0  0  0  0
   50.4296   32.4864   54.0981 C   0  0  0  0  0  0  0  0  0  0  0  0
   49.7599   33.1564   54.9265 O   0  0  0  0  0  0  0  0  0  0  0  0
   50.4746   32.7928   52.7838 N   0  0  0  0  0  0  0  0  0  0  0  0
   51.2908   31.8472   52.2891 C   0  0  0  0  0  0  0  0  0  0  0  0
   51.6812   31.7840   50.9584 O   0  0  0  0  0  0  0  0  0  0  0  0
  1  2  2  0
  2  3  1  0
  3  4  2  0
  4 24  1  0
 24 25  1  0
 25 26  1  0
 26 27  2  0
 26 28  1  0
 28 29  1  0
 29 30  1  0
  3  5  1  0
  5  6  2  0
  6  9  1  0
  9 10  2  0
  9 11  1  0
 11 12  1  0
 12 13  1  0
 13 14  1  0
 14 17  1  0
 17 18  1  0
 18 19  1  0
 19 20  2  0
 19 21  2  0
 19 22  1  0
 22 23  1  0
 14 15  1  0
 15 16  1  0
  6  7  1  0
  7  8  1  0
  7  2  1  0
 29 24  2  0
 16 11  1  0
M  CHG 1  25  -1
M  CHG 1  28  -1
M  CHG 1  30  -1
M  END
> <UniqueID>
35

> <SMILES>
C=c1c(=Cc2[n-]c(=O)[n-]c2[O-])cc(C(=O)N2CCN(CCS(=O)(=O)CC)CC2)n1C

> <Energy>
127.20759963564596

> <Genealogy>
C=c1c(=Cc2[n-]c(=O)[n-]c2[O-])cc(C(=O)N2CCN(CCS(=O)(=O)CC)CC2)n1C (protonated)
C=c1c(=Cc2[n-]c(=O)[n-]c2[O-])cc(C(=O)N2CCN(CCS(=O)(=O)CC)CC2)n1C (3D coordinates assigned)
C=c1c(=Cc2[n-]c(=O)[n-]c2[O-])cc(C(=O)N2CCN(CCS(=O)(=O)CC)CC2)n1C (nonaromatic ring conformer: 127.20759963564596 kcal/mol)

> <smiles>
C=c1c(=Cc2[nH]c(=O)[nH]c2O)cc(C(=O)N2CCN(CCS(=O)(=O)CC)CC2)n1C

> <score_type>
oracle

> <origin>
adg

> <m_score__min__energy>
-18.07

> <m_primary>
energy

> <minimizedAffinity>
-5.70776

> <minimizedRMSD>
0.85543

> <CNNscore>
0.1758862436

> <CNNaffinity>
4.6162281036

> <CNN_VS>
0.8119310141

> <CNNaffinity_variance>
0.6534836888

$$$$
38:0


 29 31  0  0  0  0  0  0  0  0999 V2000
   60.1457   30.1755   47.7854 C   0  0  0  0  0  0  0  0  0  0  0  0
   61.2550   30.9734   48.0925 C   0  0  0  0  0  0  0  0  0  0  0  0
   61.3602   32.2674   47.5805 C   0  0  0  0  0  0  0  0  0  0  0  0
   60.3494   32.7873   46.7606 C   0  0  0  0  0  0  0  0  0  0  0  0
   60.4552   34.0883   46.2508 C   0  0  0  0  0  0  0  0  0  0  0  0
   59.4490   34.6081   45.4392 C   0  0  0  0  0  0  0  0  0  0  0  0
   58.3258   33.8408   45.1311 C   0  0  0  0  0  0  0  0  0  0  0  0
   58.1897   32.5322   45.6310 C   0  0  0  0  0  0  0  0  0  0  0  0
   59.2120   31.9977   46.4491 C   0  0  0  0  0  0  0  0  0  0  0  0
   59.1267   30.6910   46.9710 C   0  0  0  0  0  0  0  0  0  0  0  0
   60.0271   28.7982   48.3757 C   0  0  0  0  0  0  0  0  0  0  0  0
   61.1219   28.0813   45.5478 C   0  0  0  0  0  0  0  0  0  0  0  0
   59.8617   27.5723   46.1755 C   0  0  0  0  0  0  0  0  0  0  0  0
   58.9324   26.7563   45.5621 C   0  0  0  0  0  0  0  0  0  0  0  0
   57.9186   26.6239   46.4971 C   0  0  0  0  0  0  0  0  0  0  0  0
   58.2306   27.3258   47.6038 N   0  0  0  0  0  0  0  0  0  0  0  0
   59.4110   27.8918   47.4093 N   0  0  0  0  0  0  0  0  0  0  0  0
   56.6775   25.8443   46.3054 C   0  0  0  0  0  0  0  0  0  0  0  0
   55.6020   26.4657   46.0961 O   0  0  0  0  0  0  0  0  0  0  0  0
   56.6302   24.4097   46.3550 N   0  0  0  0  0  0  0  0  0  0  0  0
   55.5269   23.5447   45.9487 C   0  0  0  0  0  0  0  0  0  0  0  0
   55.5456   23.3466   44.4957 C   0  0  0  0  0  0  0  0  0  0  0  0
   55.5604   23.1913   43.3491 N   0  0  0  0  0  0  0  0  0  0  0  0
   57.0311   31.7368   45.3261 N   0  0  0  0  0  0  0  0  0  0  0  0
   56.9794   30.4268   44.1930 S   0  0  0  0  0  0  0  0  0  0  0  0
   55.6702   29.3664   44.5779 N   0  0  0  0  0  0  0  0  0  0  0  0
   58.2689   29.6620   44.2709 O   0  0  0  0  0  0  0  0  0  0  0  0
   56.8094   30.9656   42.8004 O   0  0  0  0  0  0  0  0  0  0  0  0
   55.7923   29.0049   45.5239 H   0  0  0  0  0  0  0  0  0  0  0  0
 12 13  1  0
 13 14  2  0
 14 15  1  0
 15 18  1  0
 18 19  2  0
 18 20  1  0
 20 21  1  0
 21 22  1  0
 22 23  3  0
 15 16  2  0
 16 17  1  0
 17 11  1  0
 11  1  1  0
  1  2  2  0
  2  3  1  0
  3  4  2  0
  4  5  1  0
  5  6  2  0
  6  7  1  0
  7  8  2  0
  8 24  1  0
 24 25  1  0
 25 26  1  0
 25 27  2  0
 25 28  2  0
  8  9  1  0
  9 10  2  0
 17 13  1  0
 10  1  1  0
  9  4  1  0
 26 29  1  0
M  CHG 1  20  -1
M  CHG 1  24  -1
M  CHG 1  26  -1
M  END
> <UniqueID>
36

> <SMILES>
Cc1cc(C(=O)[N-]CC#N)nn1Cc1ccc2cccc([N-]S([NH-])(=O)=O)c2c1

> <Energy>
75.79841411189363

> <Genealogy>
Cc1cc(C(=O)[N-]CC#N)nn1Cc1ccc2cccc([N-]S([NH-])(=O)=O)c2c1 (protonated)
Cc1cc(C(=O)[N-]CC#N)nn1Cc1ccc2cccc([N-]S([NH-])(=O)=O)c2c1 (3D coordinates assigned)
Cc1cc(C(=O)[N-]CC#N)nn1Cc1ccc2cccc([N-]S([NH-])(=O)=O)c2c1 (optimized conformer: 75.79841411189363 kcal/mol)

> <smiles>
Cc1cc(C(=O)NCC#N)nn1Cc1ccc2cccc(NS(N)(=O)=O)c2c1

> <score_type>
oracle

> <origin>
adg

> <m_score__min__energy>
-15.630000000000001

> <m_primary>
energy

> <minimizedAffinity>
-8.42272

> <minimizedRMSD>
0.52068

> <CNNscore>
0.8895342350

> <CNNaffinity>
7.0951614380

> <CNN_VS>
6.3113889694

> <CNNaffinity_variance>
0.0104311183

$$$$
41:0


 25 27  0  0  0  0  0  0  0  0999 V2000
   57.3730   24.7116   45.7556 C   0  0  0  0  0  0  0  0  0  0  0  0
   58.7209   24.6999   45.8327 N   0  0  0  0  0  0  0  0  0  0  0  0
   59.0370   25.9842   46.1048 C   0  0  0  0  0  0  0  0  0  0  0  0
   60.2247   26.3767   46.2607 O   0  0  0  0  0  0  0  0  0  0  0  0
   57.9642   26.7972   46.2195 N   0  0  0  0  0  0  0  0  0  0  0  0
   56.9134   25.9839   46.0278 C   0  0  0  0  0  0  0  0  0  0  0  0
   55.5827   26.3749   46.1357 O   0  0  0  0  0  0  0  0  0  0  0  0
   53.7946   22.3375   46.4745 C   0  0  0  0  0  0  0  0  0  0  0  0
   54.9955   22.1707   47.0347 C   0  0  0  0  0  0  0  0  0  0  0  0
   55.1734   21.3654   48.0978 N   0  0  0  0  0  0  0  0  0  0  0  0
   56.5088   21.3451   48.2657 C   0  0  0  0  0  0  0  0  0  0  0  0
   57.0713   20.6804   49.1734 O   0  0  0  0  0  0  0  0  0  0  0  0
   57.1952   22.0901   47.3772 N   0  0  0  0  0  0  0  0  0  0  0  0
   56.2415   22.6417   46.6020 C   0  0  0  0  0  0  0  0  0  0  0  0
   56.5595   23.4955   45.6128 C   0  0  0  0  0  0  0  0  0  0  0  0
   57.9398   28.2011   46.6228 C   0  0  0  0  0  0  0  0  0  0  0  0
   57.6065   29.2439   45.2126 S   0  0  0  0  0  0  0  0  0  0  0  0
   58.2319   28.6413   43.9859 O   0  0  0  0  0  0  0  0  0  0  0  0
   56.1216   29.3390   44.9954 O   0  0  0  0  0  0  0  0  0  0  0  0
   58.2711   30.8507   45.4860 C   0  0  0  0  0  0  0  0  0  0  0  0
   59.2026   31.0611   46.5127 C   0  0  0  0  0  0  0  0  0  0  0  0
   59.7017   32.3447   46.7549 C   0  0  0  0  0  0  0  0  0  0  0  0
   59.2681   33.4234   45.9781 C   0  0  0  0  0  0  0  0  0  0  0  0
   58.3328   33.2198   44.9590 C   0  0  0  0  0  0  0  0  0  0  0  0
   57.8337   31.9367   44.7131 C   0  0  0  0  0  0  0  0  0  0  0  0
  8  9  2  0
  9 10  1  0
 10 11  1  0
 11 12  2  0
 11 13  1  0
 13 14  1  0
 14 15  2  0
 15  1  1  0
  1  2  1  0
  2  3  1  0
  3  4  2  0
  3  5  1  0
  5 16  1  0
 16 17  1  0
 17 18  2  0
 17 19  2  0
 17 20  1  0
 20 21  2  0
 21 22  1  0
 22 23  2  0
 23 24  1  0
 24 25  2  0
  5  6  1  0
  6  7  1  0
 14  9  1  0
  6  1  2  0
 25 20  1  0
M  CHG 1   2  -1
M  CHG 1   7  -1
M  CHG 1  10  -1
M  CHG 1  13  -1
M  END
> <UniqueID>
38

> <SMILES>
C=c1[n-]c(=O)[n-]c1=Cc1[n-]c(=O)n(CS(=O)(=O)c2ccccc2)c1[O-]

> <Energy>
105.90560607480897

> <Genealogy>
C=c1[n-]c(=O)[n-]c1=Cc1[n-]c(=O)n(CS(=O)(=O)c2ccccc2)c1[O-] (protonated)
C=c1[n-]c(=O)[n-]c1=Cc1[n-]c(=O)n(CS(=O)(=O)c2ccccc2)c1[O-] (3D coordinates assigned)
C=c1[n-]c(=O)[n-]c1=Cc1[n-]c(=O)n(CS(=O)(=O)c2ccccc2)c1[O-] (optimized conformer: 105.90560607480897 kcal/mol)

> <smiles>
C=c1[nH]c(=O)[nH]c1=Cc1[nH]c(=O)n(CS(=O)(=O)c2ccccc2)c1O

> <score_type>
oracle

> <origin>
adg

> <m_score__min__energy>
-16.140000000000001

> <m_primary>
energy

> <minimizedAffinity>
-7.25520

> <minimizedRMSD>
1.00228

> <CNNscore>
0.1628454477

> <CNNaffinity>
5.4446754456

> <CNN_VS>
0.8866406083

> <CNNaffinity_variance>
0.0044329106

$$$$
44:0


 30 32  0  0  0  0  0  0  0  0999 V2000
   58.1619   24.4021   45.8938 C   0  0  0  0  0  0  0  0  0  0  0  0
   56.7738   24.6053   45.7283 C   0  0  0  0  0  0  0  0  0  0  0  0
   56.1508   25.6967   46.3296 O   0  0  0  0  0  0  0  0  0  0  0  0
   56.0016   23.7100   44.9561 C   0  0  0  0  0  0  0  0  0  0  0  0
   56.6554   22.6124   44.3462 C   0  0  0  0  0  0  0  0  0  0  0  0
   55.9903   21.6713   43.5563 O   0  0  0  0  0  0  0  0  0  0  0  0
   57.9910   22.4452   44.5240 N   0  0  0  0  0  0  0  0  0  0  0  0
   58.7494   23.2887   45.2652 C   0  0  0  0  0  0  0  0  0  0  0  0
   59.9831   23.0583   45.3774 O   0  0  0  0  0  0  0  0  0  0  0  0
   55.0684   21.7509   43.4091 H   0  0  0  0  0  0  0  0  0  0  0  0
   59.6858   26.2830   46.1444 N   0  0  0  0  0  0  0  0  0  0  0  0
   59.0133   25.3209   46.6992 C   0  0  0  0  0  0  0  0  0  0  0  0
   58.1691   29.6475   45.5843 C   0  0  0  0  0  0  0  0  0  0  0  0
   58.9133   30.4494   46.4582 C   0  0  0  0  0  0  0  0  0  0  0  0
   59.9210   29.8825   47.2408 C   0  0  0  0  0  0  0  0  0  0  0  0
   60.1928   28.5137   47.1580 C   0  0  0  0  0  0  0  0  0  0  0  0
   59.4448   27.6943   46.2883 C   0  0  0  0  0  0  0  0  0  0  0  0
   58.4458   28.2763   45.4952 C   0  0  0  0  0  0  0  0  0  0  0  0
   55.4469   29.4673   44.7608 N   0  0  0  0  0  0  0  0  0  0  0  0
   56.9137   30.3611   44.5759 S   0  0  0  0  0  0  0  0  0  0  0  0
   57.3371   30.3304   43.1343 O   0  0  0  0  0  0  0  0  0  0  0  0
   56.6873   31.7904   44.9810 O   0  0  0  0  0  0  0  0  0  0  0  0
   54.7206   29.8812   44.1765 H   0  0  0  0  0  0  0  0  0  0  0  0
   54.5216   23.9833   44.7718 C   0  0  0  0  0  0  0  0  0  0  0  0
   53.7065   23.2364   45.7974 C   0  0  0  0  0  0  0  0  0  0  0  0
   54.3273   22.6500   46.9141 C   0  0  0  0  0  0  0  0  0  0  0  0
   53.5699   21.9380   47.8492 C   0  0  0  0  0  0  0  0  0  0  0  0
   52.1898   21.8030   47.6791 C   0  0  0  0  0  0  0  0  0  0  0  0
   51.5637   22.3811   46.5718 C   0  0  0  0  0  0  0  0  0  0  0  0
   52.3171   23.0930   45.6335 C   0  0  0  0  0  0  0  0  0  0  0  0
 19 20  1  0
 20 21  2  0
 20 22  2  0
 20 13  1  0
 13 14  2  0
 14 15  1  0
 15 16  2  0
 16 17  1  0
 17 11  1  0
 11 12  2  0
 12  1  1  0
  1  2  2  0
  2  3  1  0
  2  4  1  0
  4 24  1  0
 24 25  1  0
 25 26  2  0
 26 27  1  0
 27 28  2  0
 28 29  1  0
 29 30  2  0
  4  5  2  0
  5  6  1  0
  5  7  1  0
  7  8  1  0
  8  9  2  0
 17 18  2  0
 18 13  1  0
  8  1  1  0
 30 25  1  0
 19 23  1  0
  6 10  1  0
M  CHG 1   3  -1
M  CHG 1   7  -1
M  CHG 1  19  -1
M  END
> <UniqueID>
41

> <SMILES>
[NH-]S(=O)(=O)c1cccc(N=Cc2c([O-])c(Cc3ccccc3)c(O)[n-]c2=O)c1

> <Energy>
54.218828449407454

> <Genealogy>
[NH-]S(=O)(=O)c1cccc(N=Cc2c([O-])c(Cc3ccccc3)c(O)[n-]c2=O)c1 (protonated)
[NH-]S(=O)(=O)c1cccc(N=Cc2c([O-])c(Cc3ccccc3)c(O)[n-]c2=O)c1 (3D coordinates assigned)
[NH-]S(=O)(=O)c1cccc(N=Cc2c([O-])c(Cc3ccccc3)c(O)[n-]c2=O)c1 (optimized conformer: 54.218828449407454 kcal/mol)

> <smiles>
NS(=O)(=O)c1cccc(N=Cc2c(O)c(Cc3ccccc3)c(O)[nH]c2=O)c1

> <score_type>
oracle

> <origin>
adg

> <m_score__min__energy>
-14.460000000000001

> <m_primary>
energy

> <minimizedAffinity>
-8.05614

> <minimizedRMSD>
0.66379

> <CNNscore>
0.4494775832

> <CNNaffinity>
6.0604357719

> <CNN_VS>
2.7240300179

> <CNNaffinity_variance>
0.1549109370

$$$$
47:0


 33 36  0  0  0  0  0  0  0  0999 V2000
   59.1470   25.8383   46.3025 C   0  0  0  0  0  0  0  0  0  0  0  0
   60.1640   25.7944   47.0474 O   0  0  0  0  0  0  0  0  0  0  0  0
   58.7994   27.0697   45.6294 N   0  0  0  0  0  0  0  0  0  0  0  0
   59.5246   28.3004   45.9924 C   0  0  0  0  0  0  0  0  0  0  0  0
   59.2825   29.4313   44.9840 C   0  0  0  0  0  0  0  0  0  0  0  0
   57.8471   29.5699   44.7104 N   0  0  0  0  0  0  0  0  0  0  0  0
   57.2814   30.8683   44.4655 C   0  0  0  0  0  0  0  0  0  0  0  0
   56.0279   31.0073   44.3924 O   0  0  0  0  0  0  0  0  0  0  0  0
   57.0080   28.3712   44.5435 C   0  0  0  0  0  0  0  0  0  0  0  0
   57.8520   27.0929   44.5017 C   0  0  0  0  0  0  0  0  0  0  0  0
   57.7784   21.3626   45.1064 C   0  0  0  0  0  0  0  0  0  0  0  0
   57.7514   22.5663   45.7029 C   0  0  0  0  0  0  0  0  0  0  0  0
   56.6505   23.1814   46.3230 C   0  0  0  0  0  0  0  0  0  0  0  0
   55.4454   22.6945   46.6722 C   0  0  0  0  0  0  0  0  0  0  0  0
   57.0300   24.4897   46.5704 C   0  0  0  0  0  0  0  0  0  0  0  0
   58.3399   24.6122   46.1567 C   0  0  0  0  0  0  0  0  0  0  0  0
   58.7899   23.4410   45.6504 N   0  0  0  0  0  0  0  0  0  0  0  0
   60.0977   23.2100   45.0220 C   0  0  0  0  0  0  0  0  0  0  0  0
   54.1699   23.0033   46.0051 C   0  0  0  0  0  0  0  0  0  0  0  0
   53.1853   22.1109   45.7823 N   0  0  0  0  0  0  0  0  0  0  0  0
   52.1970   22.8662   45.2553 C   0  0  0  0  0  0  0  0  0  0  0  0
   51.0917   22.3821   44.9001 O   0  0  0  0  0  0  0  0  0  0  0  0
   52.4813   24.1845   45.1506 N   0  0  0  0  0  0  0  0  0  0  0  0
   53.7276   24.2549   45.6442 C   0  0  0  0  0  0  0  0  0  0  0  0
   54.4445   25.4371   45.7681 O   0  0  0  0  0  0  0  0  0  0  0  0
   58.1203   31.9762   44.3050 O   0  0  0  0  0  0  0  0  0  0  0  0
   58.0963   33.1012   45.1790 C   0  0  0  0  0  0  0  0  0  0  0  0
   59.1227   32.9512   46.2690 C   0  0  0  0  0  0  0  0  0  0  0  0
   60.3174   33.6937   46.2115 C   0  0  0  0  0  0  0  0  0  0  0  0
   61.2592   33.5971   47.2401 C   0  0  0  0  0  0  0  0  0  0  0  0
   61.0164   32.7680   48.3375 C   0  0  0  0  0  0  0  0  0  0  0  0
   59.8217   32.0427   48.4172 C   0  0  0  0  0  0  0  0  0  0  0  0
   58.8732   32.1425   47.3952 C   0  0  0  0  0  0  0  0  0  0  0  0
 11 12  2  0
 12 13  1  0
 13 14  2  0
 14 19  1  0
 19 20  1  0
 20 21  1  0
 21 22  2  0
 21 23  1  0
 23 24  1  0
 24 25  1  0
 13 15  1  0
 15 16  2  0
 16  1  1  0
  1  2  2  0
  1  3  1  0
  3  4  1  0
  4  5  1  0
  5  6  1  0
  6  7  1  0
  7  8  2  0
  7 26  1  0
 26 27  1  0
 27 28  1  0
 28 29  2  0
 29 30  1  0
 30 31  2  0
 31 32  1  0
 32 33  2  0
  6  9  1  0
  9 10  1  0
 16 17  1  0
 17 18  1  0
 17 12  1  0
 24 19  2  0
 10  3  1  0
 33 28  1  0
M  CHG 1  20  -1
M  CHG 1  23  -1
M  CHG 1  25  -1
M  END
> <UniqueID>
44

> <SMILES>
C=c1/c(=C\c2[n-]c(=O)[n-]c2[O-])cc(C(=O)N2CCN(C(=O)OCc3ccccc3)CC2)n1C

> <Energy>
132.48900562392856

> <Genealogy>
C=c1c(=Cc2[n-]c(=O)[n-]c2[O-])cc(C(=O)N2CCN(C(=O)OCc3ccccc3)CC2)n1C (protonated)
C=c1/c(=C\c2[n-]c(=O)[n-]c2[O-])cc(C(=O)N2CCN(C(=O)OCc3ccccc3)CC2)n1C (cis-trans isomerization)
C=c1/c(=C\c2[n-]c(=O)[n-]c2[O-])cc(C(=O)N2CCN(C(=O)OCc3ccccc3)CC2)n1C (3D coordinates assigned)
C=c1/c(=C\c2[n-]c(=O)[n-]c2[O-])cc(C(=O)N2CCN(C(=O)OCc3ccccc3)CC2)n1C (nonaromatic ring conformer: 132.48900562392856 kcal/mol)

> <smiles>
C=c1c(=Cc2[nH]c(=O)[nH]c2O)cc(C(=O)N2CCN(C(=O)OCc3ccccc3)CC2)n1C

> <score_type>
oracle

> <origin>
adg

> <m_score__min__energy>
-17.620000000000001

> <m_primary>
energy

> <minimizedAffinity>
-6.28195

> <minimizedRMSD>
0.77104

> <CNNscore>
0.0948912725

> <CNNaffinity>
6.1719417572

> <CNN_VS>
0.5856633782

> <CNNaffinity_variance>
0.0468729772

$$$$
51:0


 30 32  0  0  0  0  0  0  0  0999 V2000
   61.1618   30.1225   48.3949 C   0  0  0  0  0  0  0  0  0  0  0  0
   60.4099   30.5606   47.3676 C   0  0  0  0  0  0  0  0  0  0  0  0
   59.9186   29.7677   46.3271 C   0  0  0  0  0  0  0  0  0  0  0  0
   60.1780   28.4903   45.9768 C   0  0  0  0  0  0  0  0  0  0  0  0
   59.0826   30.5752   45.5933 C   0  0  0  0  0  0  0  0  0  0  0  0
   59.1112   31.8517   46.1441 C   0  0  0  0  0  0  0  0  0  0  0  0
   59.9395   31.8406   47.2393 N   0  0  0  0  0  0  0  0  0  0  0  0
   59.2286   27.3696   46.0356 C   0  0  0  0  0  0  0  0  0  0  0  0
   58.9454   26.6918   47.1612 N   0  0  0  0  0  0  0  0  0  0  0  0
   57.9513   25.8588   46.7830 C   0  0  0  0  0  0  0  0  0  0  0  0
   57.4194   25.0351   47.5731 O   0  0  0  0  0  0  0  0  0  0  0  0
   57.5642   25.9847   45.4960 N   0  0  0  0  0  0  0  0  0  0  0  0
   58.3718   26.9565   45.0403 C   0  0  0  0  0  0  0  0  0  0  0  0
   58.3061   27.4723   43.7514 O   0  0  0  0  0  0  0  0  0  0  0  0
   58.4552   33.0694   45.4404 C   0  0  0  0  0  0  0  0  0  0  0  0
   57.2251   33.5620   46.2489 C   0  0  0  0  0  0  0  0  0  0  0  0
   59.4024   34.2819   45.3043 C   0  0  0  0  0  0  0  0  0  0  0  0
   57.9580   32.6414   44.0474 C   0  0  0  0  0  0  0  0  0  0  0  0
   60.2790   32.9694   48.1333 C   0  0  0  0  0  0  0  0  0  0  0  0
   59.9400   32.6744   49.5737 C   0  0  0  0  0  0  0  0  0  0  0  0
   60.8617   32.9825   50.5870 C   0  0  0  0  0  0  0  0  0  0  0  0
   60.5515   32.7299   51.9261 C   0  0  0  0  0  0  0  0  0  0  0  0
   59.3052   32.1932   52.2735 C   0  0  0  0  0  0  0  0  0  0  0  0
   58.3715   31.9115   51.2693 C   0  0  0  0  0  0  0  0  0  0  0  0
   58.6798   32.1621   49.9296 C   0  0  0  0  0  0  0  0  0  0  0  0
   58.9197   31.8510   53.9558 S   0  0  0  0  0  0  0  0  0  0  0  0
   59.1533   33.2759   54.9022 N   0  0  0  0  0  0  0  0  0  0  0  0
   59.8107   30.7538   54.4677 O   0  0  0  0  0  0  0  0  0  0  0  0
   57.4896   31.4042   54.0741 O   0  0  0  0  0  0  0  0  0  0  0  0
   60.1234   33.5810   54.8234 H   0  0  0  0  0  0  0  0  0  0  0  0
  1  2  2  0
  2  3  1  0
  3  4  2  0
  4  8  1  0
  8  9  1  0
  9 10  1  0
 10 11  2  0
 10 12  1  0
 12 13  1  0
 13 14  1  0
  3  5  1  0
  5  6  2  0
  6 15  1  0
 15 16  1  0
 15 17  1  0
 15 18  1  0
  6  7  1  0
  7 19  1  0
 19 20  1  0
 20 21  2  0
 21 22  1  0
 22 23  2  0
 23 26  1  0
 26 27  1  0
 26 28  2  0
 26 29  2  0
 23 24  1  0
 24 25  2  0
  7  2  1  0
 25 20  1  0
 13  8  2  0
 27 30  1  0
M  CHG 1   9  -1
M  CHG 1  12  -1
M  CHG 1  14  -1
M  CHG 1  27  -1
M  END
> <UniqueID>
48

> <SMILES>
C=c1c(=Cc2[n-]c(=O)[n-]c2[O-])cc(C(C)(C)C)n1Cc1ccc(S([NH-])(=O)=O)cc1

> <Energy>
128.36490974621717

> <Genealogy>
C=c1c(=Cc2[n-]c(=O)[n-]c2[O-])cc(C(C)(C)C)n1Cc1ccc(S([NH-])(=O)=O)cc1 (protonated)
C=c1c(=Cc2[n-]c(=O)[n-]c2[O-])cc(C(C)(C)C)n1Cc1ccc(S([NH-])(=O)=O)cc1 (3D coordinates assigned)
C=c1c(=Cc2[n-]c(=O)[n-]c2[O-])cc(C(C)(C)C)n1Cc1ccc(S([NH-])(=O)=O)cc1 (optimized conformer: 128.36490974621717 kcal/mol)

> <smiles>
C=c1c(=Cc2[nH]c(=O)[nH]c2O)cc(C(C)(C)C)n1Cc1ccc(S(N)(=O)=O)cc1

> <score_type>
oracle

> <origin>
adg

> <m_score__min__energy>
-16.530000000000001

> <m_primary>
energy

> <minimizedAffinity>
-7.47251

> <minimizedRMSD>
1.81705

> <CNNscore>
0.4849221110

> <CNNaffinity>
7.1356739998

> <CNN_VS>
3.4602460861

> <CNNaffinity_variance>
0.0612585433

$$$$
56:0


 34 37  0  0  0  0  0  0  0  0999 V2000
   58.4604   26.5369   46.4688 C   0  0  0  0  0  0  0  0  0  0  0  0
   58.8532   27.3303   47.5591 C   0  0  0  0  0  0  0  0  0  0  0  0
   58.7960   28.7241   47.4727 C   0  0  0  0  0  0  0  0  0  0  0  0
   58.3248   29.3447   46.3000 C   0  0  0  0  0  0  0  0  0  0  0  0
   57.9055   28.5478   45.2259 C   0  0  0  0  0  0  0  0  0  0  0  0
   57.4250   29.1424   44.0642 O   0  0  0  0  0  0  0  0  0  0  0  0
   57.9632   27.1526   45.3143 C   0  0  0  0  0  0  0  0  0  0  0  0
   56.1692   21.7703   42.7716 O   0  0  0  0  0  0  0  0  0  0  0  0
   56.6643   22.4831   43.6823 C   0  0  0  0  0  0  0  0  0  0  0  0
   55.8623   23.4694   44.3298 N   0  0  0  0  0  0  0  0  0  0  0  0
   56.3975   24.3006   45.3616 C   0  0  0  0  0  0  0  0  0  0  0  0
   55.6103   25.0486   45.9988 O   0  0  0  0  0  0  0  0  0  0  0  0
   57.8466   24.2206   45.7064 C   0  0  0  0  0  0  0  0  0  0  0  0
   58.4616   25.0641   46.5664 C   0  0  0  0  0  0  0  0  0  0  0  0
   58.6235   23.1200   45.0755 C   0  0  0  0  0  0  0  0  0  0  0  0
   59.8240   22.9077   45.3975 O   0  0  0  0  0  0  0  0  0  0  0  0
   58.0216   22.2960   44.0753 N   0  0  0  0  0  0  0  0  0  0  0  0
   58.2521   30.7389   46.1678 O   0  0  0  0  0  0  0  0  0  0  0  0
   59.3203   31.6360   46.4629 C   0  0  0  0  0  0  0  0  0  0  0  0
   58.9053   32.5773   47.5939 C   0  0  0  0  0  0  0  0  0  0  0  0
   59.9807   32.6822   48.6038 N   0  0  0  0  0  0  0  0  0  0  0  0
   60.7386   33.9424   48.4656 C   0  0  0  0  0  0  0  0  0  0  0  0
   62.0256   33.8388   49.2905 C   0  0  0  0  0  0  0  0  0  0  0  0
   61.7802   33.1124   50.5459 N   0  0  0  0  0  0  0  0  0  0  0  0
   62.8393   32.3605   51.1714 C   0  0  0  0  0  0  0  0  0  0  0  0
   62.5791   31.2447   51.6993 O   0  0  0  0  0  0  0  0  0  0  0  0
   60.4085   33.0404   51.0641 C   0  0  0  0  0  0  0  0  0  0  0  0
   59.4339   32.5441   49.9746 C   0  0  0  0  0  0  0  0  0  0  0  0
   64.2327   32.8557   51.1917 C   0  0  0  0  0  0  0  0  0  0  0  0
   64.5898   33.9609   51.9846 C   0  0  0  0  0  0  0  0  0  0  0  0
   65.9114   34.4158   52.0046 C   0  0  0  0  0  0  0  0  0  0  0  0
   66.8885   33.7679   51.2438 C   0  0  0  0  0  0  0  0  0  0  0  0
   66.5460   32.6583   50.4673 C   0  0  0  0  0  0  0  0  0  0  0  0
   65.2263   32.1995   50.4441 C   0  0  0  0  0  0  0  0  0  0  0  0
  8  9  2  0
  9 10  1  0
 10 11  1  0
 11 12  2  0
 11 13  1  0
 13 14  2  0
 14  1  1  0
  1  2  2  0
  2  3  1  0
  3  4  2  0
  4 18  1  0
 18 19  1  0
 19 20  1  0
 20 21  1  0
 21 22  1  0
 22 23  1  0
 23 24  1  0
 24 25  1  0
 25 26  2  0
 25 29  1  0
 29 30  2  0
 30 31  1  0
 31 32  2  0
 32 33  1  0
 33 34  2  0
 24 27  1  0
 27 28  1  0
  4  5  1  0
  5  6  1  0
  5  7  2  0
 13 15  1  0
 15 16  2  0
 15 17  1  0
 17  9  1  0
  7  1  1  0
 28 21  1  0
 34 29  1  0
M  CHG 1   6  -1
M  CHG 1  10  -1
M  CHG 1  17  -1
M  END
> <UniqueID>
52

> <SMILES>
O=C1[N-]C(=O)C(=Cc2ccc(OCCN3CCN(C(=O)c4ccccc4)CC3)c([O-])c2)C(=O)[N-]1

> <Energy>
76.6706103575863

> <Genealogy>
O=C1[N-]C(=O)C(=Cc2ccc(OCCN3CCN(C(=O)c4ccccc4)CC3)c([O-])c2)C(=O)[N-]1 (protonated)
O=C1[N-]C(=O)C(=Cc2ccc(OCCN3CCN(C(=O)c4ccccc4)CC3)c([O-])c2)C(=O)[N-]1 (3D coordinates assigned)
O=C1[N-]C(=O)C(=Cc2ccc(OCCN3CCN(C(=O)c4ccccc4)CC3)c([O-])c2)C(=O)[N-]1 (nonaromatic ring conformer: 76.6706103575863 kcal/mol)

> <smiles>
O=C1NC(=O)C(=Cc2ccc(OCCN3CCN(C(=O)c4ccccc4)CC3)c(O)c2)C(=O)N1

> <score_type>
oracle

> <origin>
adg

> <m_score__min__energy>
-16.870000000000001

> <m_primary>
energy

> <minimizedAffinity>
-9.24155

> <minimizedRMSD>
2.61260

> <CNNscore>
0.1600535214

> <CNNaffinity>
5.9579501152

> <CNN_VS>
0.9535908699

> <CNNaffinity_variance>
0.0928389654

$$$$
77:0


 25 27  0  0  0  0  0  0  0  0999 V2000
   60.4762   28.7252   46.4546 C   0  0  0  0  0  0  0  0  0  0  0  0
   59.2615   28.5457   45.9109 C   0  0  0  0  0  0  0  0  0  0  0  0
   58.6423   27.3195   45.6355 C   0  0  0  0  0  0  0  0  0  0  0  0
   59.1367   26.0888   45.8944 C   0  0  0  0  0  0  0  0  0  0  0  0
   57.4229   27.6316   45.0398 C   0  0  0  0  0  0  0  0  0  0  0  0
   57.3530   29.0083   44.9723 C   0  0  0  0  0  0  0  0  0  0  0  0
   56.1686   29.7793   44.4722 C   0  0  0  0  0  0  0  0  0  0  0  0
   58.4577   29.5626   45.5132 N   0  0  0  0  0  0  0  0  0  0  0  0
   58.6799   30.9710   45.6895 C   0  0  0  0  0  0  0  0  0  0  0  0
   58.7927   31.7163   44.6787 O   0  0  0  0  0  0  0  0  0  0  0  0
   58.3544   24.8324   45.9530 C   0  0  0  0  0  0  0  0  0  0  0  0
   58.6884   23.6617   45.3811 N   0  0  0  0  0  0  0  0  0  0  0  0
   57.6601   22.8489   45.7001 C   0  0  0  0  0  0  0  0  0  0  0  0
   57.6104   21.6445   45.3366 O   0  0  0  0  0  0  0  0  0  0  0  0
   56.6878   23.4251   46.4358 N   0  0  0  0  0  0  0  0  0  0  0  0
   57.1417   24.6809   46.5851 C   0  0  0  0  0  0  0  0  0  0  0  0
   56.4599   25.6683   47.2864 O   0  0  0  0  0  0  0  0  0  0  0  0
   58.6639   31.5749   47.0624 C   0  0  0  0  0  0  0  0  0  0  0  0
   60.0622   31.9526   47.4662 C   0  0  0  0  0  0  0  0  0  0  0  0
   60.7173   33.0134   46.8166 C   0  0  0  0  0  0  0  0  0  0  0  0
   61.9953   33.4083   47.2217 C   0  0  0  0  0  0  0  0  0  0  0  0
   62.6266   32.7552   48.2839 C   0  0  0  0  0  0  0  0  0  0  0  0
   61.9787   31.7085   48.9453 C   0  0  0  0  0  0  0  0  0  0  0  0
   60.7008   31.3073   48.5433 C   0  0  0  0  0  0  0  0  0  0  0  0
   60.0818   30.3011   49.2128 F   0  0  0  0  0  0  0  0  0  0  0  0
  1  2  2  0
  2  3  1  0
  3  4  2  0
  4 11  1  0
 11 12  1  0
 12 13  1  0
 13 14  2  0
 13 15  1  0
 15 16  1  0
 16 17  1  0
  3  5  1  0
  5  6  2  0
  6  7  1  0
  6  8  1  0
  8  9  1  0
  9 10  2  0
  9 18  1  0
 18 19  1  0
 19 20  2  0
 20 21  1  0
 21 22  2  0
 22 23  1  0
 23 24  2  0
 24 25  1  0
  8  2  1  0
 24 19  1  0
 16 11  2  0
M  CHG 1  12  -1
M  CHG 1  15  -1
M  CHG 1  17  -1
M  END
> <UniqueID>
72

> <SMILES>
C=c1/c(=C/c2[n-]c(=O)[n-]c2[O-])cc(C)n1C(=O)Cc1ccccc1F

> <Energy>
105.81879097058957

> <Genealogy>
C=c1c(=Cc2[n-]c(=O)[n-]c2[O-])cc(C)n1C(=O)Cc1ccccc1F (protonated)
C=c1/c(=C/c2[n-]c(=O)[n-]c2[O-])cc(C)n1C(=O)Cc1ccccc1F (cis-trans isomerization)
C=c1/c(=C/c2[n-]c(=O)[n-]c2[O-])cc(C)n1C(=O)Cc1ccccc1F (3D coordinates assigned)
C=c1/c(=C/c2[n-]c(=O)[n-]c2[O-])cc(C)n1C(=O)Cc1ccccc1F (optimized conformer: 105.81879097058957 kcal/mol)

> <smiles>
C=c1c(=Cc2[nH]c(=O)[nH]c2O)cc(C)n1C(=O)Cc1ccccc1F

> <score_type>
oracle

> <origin>
adg

> <m_score__min__energy>
-15.65

> <m_primary>
energy

> <minimizedAffinity>
-7.18613

> <minimizedRMSD>
2.45516

> <CNNscore>
0.3229772747

> <CNNaffinity>
6.4935531616

> <CNN_VS>
2.0972700119

> <CNNaffinity_variance>
0.2305670232

$$$$
21:0


 31 34  0  0  0  0  0  0  0  0999 V2000
   58.2883   27.6141   43.7504 C   0  0  0  0  0  0  0  0  0  0  0  0
   58.6187   27.3626   45.0280 C   0  0  0  0  0  0  0  0  0  0  0  0
   58.5369   26.1245   45.6874 C   0  0  0  0  0  0  0  0  0  0  0  0
   57.9923   24.9505   45.3098 C   0  0  0  0  0  0  0  0  0  0  0  0
   59.1500   26.2992   46.9129 C   0  0  0  0  0  0  0  0  0  0  0  0
   59.5291   27.6224   46.9933 C   0  0  0  0  0  0  0  0  0  0  0  0
   59.2050   28.2789   45.8489 N   0  0  0  0  0  0  0  0  0  0  0  0
   57.0424   24.1485   46.0950 C   0  0  0  0  0  0  0  0  0  0  0  0
   57.3716   23.0029   46.7151 N   0  0  0  0  0  0  0  0  0  0  0  0
   56.2537   22.6894   47.4058 C   0  0  0  0  0  0  0  0  0  0  0  0
   56.1631   21.6530   48.1134 O   0  0  0  0  0  0  0  0  0  0  0  0
   55.2446   23.5803   47.2875 N   0  0  0  0  0  0  0  0  0  0  0  0
   55.7658   24.5056   46.4674 C   0  0  0  0  0  0  0  0  0  0  0  0
   55.0986   25.6637   46.0874 O   0  0  0  0  0  0  0  0  0  0  0  0
   60.2013   28.2117   48.1669 C   0  0  0  0  0  0  0  0  0  0  0  0
   59.5373   28.8534   49.0230 O   0  0  0  0  0  0  0  0  0  0  0  0
   59.5649   29.6677   45.5096 C   0  0  0  0  0  0  0  0  0  0  0  0
   58.5275   30.6598   46.0557 C   0  0  0  0  0  0  0  0  0  0  0  0
   59.1931   31.8080   46.7065 N   0  0  0  0  0  0  0  0  0  0  0  0
   58.7404   31.9893   48.0956 C   0  0  0  0  0  0  0  0  0  0  0  0
   59.6412   33.0184   48.8106 C   0  0  0  0  0  0  0  0  0  0  0  0
   60.2712   33.9941   47.8871 N   0  0  0  0  0  0  0  0  0  0  0  0
   59.3841   34.3078   46.7465 C   0  0  0  0  0  0  0  0  0  0  0  0
   58.9940   33.0523   45.9355 C   0  0  0  0  0  0  0  0  0  0  0  0
   61.6300   33.5787   47.4664 C   0  0  0  0  0  0  0  0  0  0  0  0
   62.5114   33.3084   48.6565 C   0  0  0  0  0  0  0  0  0  0  0  0
   63.2933   32.1434   48.7048 C   0  0  0  0  0  0  0  0  0  0  0  0
   64.1035   31.8839   49.8144 C   0  0  0  0  0  0  0  0  0  0  0  0
   64.1373   32.7849   50.8828 C   0  0  0  0  0  0  0  0  0  0  0  0
   63.3587   33.9457   50.8433 C   0  0  0  0  0  0  0  0  0  0  0  0
   62.5476   34.2095   49.7351 C   0  0  0  0  0  0  0  0  0  0  0  0
  1  2  2  0
  2  3  1  0
  3  4  2  0
  4  8  1  0
  8  9  1  0
  9 10  1  0
 10 11  2  0
 10 12  1  0
 12 13  1  0
 13 14  1  0
  3  5  1  0
  5  6  2  0
  6 15  1  0
 15 16  2  0
  6  7  1  0
  7 17  1  0
 17 18  1  0
 18 19  1  0
 19 20  1  0
 20 21  1  0
 21 22  1  0
 22 25  1  0
 25 26  1  0
 26 27  2  0
 27 28  1  0
 28 29  2  0
 29 30  1  0
 30 31  2  0
 22 23  1  0
 23 24  1  0
  7  2  1  0
 24 19  1  0
 13  8  2  0
 31 26  1  0
M  CHG 1   9  -1
M  CHG 1  12  -1
M  CHG 1  14  -1
M  END
> <UniqueID>
22

> <SMILES>
C=c1c(=Cc2[n-]c(=O)[n-]c2[O-])cc(C=O)n1CCN1CCN(Cc2ccccc2)CC1

> <Energy>
136.0845644618552

> <Genealogy>
C=c1c(=Cc2[n-]c(=O)[n-]c2[O-])cc(C=O)n1CCN1CCN(Cc2ccccc2)CC1 (protonated)
C=c1c(=Cc2[n-]c(=O)[n-]c2[O-])cc(C=O)n1CCN1CCN(Cc2ccccc2)CC1 (3D coordinates assigned)
C=c1c(=Cc2[n-]c(=O)[n-]c2[O-])cc(C=O)n1CCN1CCN(Cc2ccccc2)CC1 (nonaromatic ring conformer: 136.0845644618552 kcal/mol)

> <smiles>
C=c1c(=Cc2[nH]c(=O)[nH]c2O)cc(C=O)n1CCN1CCN(Cc2ccccc2)CC1

> <score_type>
oracle

> <origin>
adg

> <m_score__min__energy>
-17.539999999999999

> <m_primary>
energy

> <minimizedAffinity>
-8.20876

> <minimizedRMSD>
1.84011

> <CNNscore>
0.1323253810

> <CNNaffinity>
6.0964589119

> <CNN_VS>
0.8067162633

> <CNNaffinity_variance>
0.3908222020

$$$$
28:0


 33 36  0  0  0  0  0  0  0  0999 V2000
   58.3913   31.4397   45.9086 C   0  0  0  0  0  0  0  0  0  0  0  0
   57.2566   31.9390   45.6795 O   0  0  0  0  0  0  0  0  0  0  0  0
   59.5932   27.1022   47.7013 C   0  0  0  0  0  0  0  0  0  0  0  0
   58.9825   28.0109   46.9220 C   0  0  0  0  0  0  0  0  0  0  0  0
   58.5200   27.8042   45.6127 C   0  0  0  0  0  0  0  0  0  0  0  0
   58.3163   26.6705   44.9121 C   0  0  0  0  0  0  0  0  0  0  0  0
   58.2650   29.0585   45.0931 C   0  0  0  0  0  0  0  0  0  0  0  0
   58.5051   29.9746   46.1000 C   0  0  0  0  0  0  0  0  0  0  0  0
   58.9011   29.3340   47.2293 N   0  0  0  0  0  0  0  0  0  0  0  0
   59.2276   29.9634   48.5184 C   0  0  0  0  0  0  0  0  0  0  0  0
   57.6740   25.4477   45.4262 C   0  0  0  0  0  0  0  0  0  0  0  0
   58.2843   24.2565   45.5612 N   0  0  0  0  0  0  0  0  0  0  0  0
   57.3580   23.4984   46.1869 C   0  0  0  0  0  0  0  0  0  0  0  0
   57.5540   22.2891   46.4823 O   0  0  0  0  0  0  0  0  0  0  0  0
   56.2100   24.1398   46.4853 N   0  0  0  0  0  0  0  0  0  0  0  0
   56.4336   25.3766   46.0094 C   0  0  0  0  0  0  0  0  0  0  0  0
   55.5247   26.4206   46.1130 O   0  0  0  0  0  0  0  0  0  0  0  0
   59.5603   32.2696   45.8869 N   0  0  0  0  0  0  0  0  0  0  0  0
   60.3515   32.6746   47.0119 C   0  0  0  0  0  0  0  0  0  0  0  0
   59.7876   33.5547   47.9438 C   0  0  0  0  0  0  0  0  0  0  0  0
   60.5233   33.9800   49.0541 C   0  0  0  0  0  0  0  0  0  0  0  0
   61.8418   33.5374   49.2418 C   0  0  0  0  0  0  0  0  0  0  0  0
   62.4213   32.6869   48.2882 C   0  0  0  0  0  0  0  0  0  0  0  0
   61.6866   32.2626   47.1780 C   0  0  0  0  0  0  0  0  0  0  0  0
   62.6247   33.9786   50.4520 C   0  0  0  0  0  0  0  0  0  0  0  0
   63.1640   32.8100   51.1787 N   0  0  0  0  0  0  0  0  0  0  0  0
   62.0968   31.8631   51.5638 C   0  0  0  0  0  0  0  0  0  0  0  0
   61.1666   32.4420   52.6540 C   0  0  0  0  0  0  0  0  0  0  0  0
   61.8474   33.4722   53.4668 N   0  0  0  0  0  0  0  0  0  0  0  0
   63.2661   33.1555   53.6834 C   0  0  0  0  0  0  0  0  0  0  0  0
   64.0142   33.1912   52.3360 C   0  0  0  0  0  0  0  0  0  0  0  0
   61.1126   33.8278   54.7008 C   0  0  0  0  0  0  0  0  0  0  0  0
   59.6205   34.1329   54.4836 C   0  0  0  0  0  0  0  0  0  0  0  0
  3  4  2  0
  4  5  1  0
  5  6  2  0
  6 11  1  0
 11 12  1  0
 12 13  1  0
 13 14  2  0
 13 15  1  0
 15 16  1  0
 16 17  1  0
  5  7  1  0
  7  8  2  0
  8  1  1  0
  1  2  2  0
  1 18  1  0
 18 19  1  0
 19 20  2  0
 20 21  1  0
 21 22  2  0
 22 25  1  0
 25 26  1  0
 26 27  1  0
 27 28  1  0
 28 29  1  0
 29 32  1  0
 32 33  1  0
 29 30  1  0
 30 31  1  0
 22 23  1  0
 23 24  2  0
  8  9  1  0
  9 10  1  0
  9  4  1  0
 16 11  2  0
 24 19  1  0
 31 26  1  0
M  CHG 1  12  -1
M  CHG 1  15  -1
M  CHG 1  17  -1
M  CHG 1  18  -1
M  END
> <UniqueID>
27

> <SMILES>
C=c1/c(=C\c2[n-]c(=O)[n-]c2[O-])cc(C(=O)[N-]c2ccc(CN3CCN(CC)CC3)cc2)n1C

> <Energy>
149.8671345638729

> <Genealogy>
C=c1c(=Cc2[n-]c(=O)[n-]c2[O-])cc(C(=O)[N-]c2ccc(CN3CCN(CC)CC3)cc2)n1C (protonated)
C=c1/c(=C\c2[n-]c(=O)[n-]c2[O-])cc(C(=O)[N-]c2ccc(CN3CCN(CC)CC3)cc2)n1C (cis-trans isomerization)
C=c1/c(=C\c2[n-]c(=O)[n-]c2[O-])cc(C(=O)[N-]c2ccc(CN3CCN(CC)CC3)cc2)n1C (3D coordinates assigned)
C=c1/c(=C\c2[n-]c(=O)[n-]c2[O-])cc(C(=O)[N-]c2ccc(CN3CCN(CC)CC3)cc2)n1C (nonaromatic ring conformer: 149.8671345638729 kcal/mol)

> <smiles>
C=c1c(=Cc2[nH]c(=O)[nH]c2O)cc(C(=O)Nc2ccc(CN3CCN(CC)CC3)cc2)n1C

> <score_type>
oracle

> <origin>
adg

> <m_score__min__energy>
-19.550000000000001

> <m_primary>
energy

> <minimizedAffinity>
-7.95837

> <minimizedRMSD>
1.25050

> <CNNscore>
0.1425981820

> <CNNaffinity>
6.6532406807

> <CNN_VS>
0.9487400055

> <CNNaffinity_variance>
0.0232508127

$$$$
33:0


 25 27  0  0  0  0  0  0  0  0999 V2000
   57.0806   30.7977   52.8556 N   0  0  0  0  0  0  0  0  0  0  0  0
   58.0357   31.2803   51.8985 C   0  0  0  0  0  0  0  0  0  0  0  0
   58.5466   32.5895   51.9464 C   0  0  0  0  0  0  0  0  0  0  0  0
   59.5042   33.0080   51.0172 C   0  0  0  0  0  0  0  0  0  0  0  0
   59.9781   32.1229   50.0325 C   0  0  0  0  0  0  0  0  0  0  0  0
   59.4840   30.8072   50.0061 C   0  0  0  0  0  0  0  0  0  0  0  0
   58.5259   30.3921   50.9338 C   0  0  0  0  0  0  0  0  0  0  0  0
   60.9814   32.5413   49.0858 N   0  0  0  0  0  0  0  0  0  0  0  0
   62.3445   32.0050   49.1596 C   0  0  0  0  0  0  0  0  0  0  0  0
   62.9664   31.9849   47.7597 C   0  0  0  0  0  0  0  0  0  0  0  0
   62.8663   33.2578   47.1448 O   0  0  0  0  0  0  0  0  0  0  0  0
   61.5051   33.5820   46.9328 C   0  0  0  0  0  0  0  0  0  0  0  0
   60.7704   33.7403   48.2678 C   0  0  0  0  0  0  0  0  0  0  0  0
   55.7137   28.8982   52.7396 O   0  0  0  0  0  0  0  0  0  0  0  0
   55.8383   30.1411   52.5733 C   0  0  0  0  0  0  0  0  0  0  0  0
   54.6541   30.9541   52.1641 C   0  0  0  0  0  0  0  0  0  0  0  0
   53.7049   30.1060   51.4564 N   0  0  0  0  0  0  0  0  0  0  0  0
   52.3034   30.3547   51.2751 C   0  0  0  0  0  0  0  0  0  0  0  0
   51.7660   29.9713   50.2025 O   0  0  0  0  0  0  0  0  0  0  0  0
   51.4464   30.9886   52.2985 C   0  0  0  0  0  0  0  0  0  0  0  0
   50.9033   30.3865   53.4235 C   0  0  0  0  0  0  0  0  0  0  0  0
   50.2327   31.3750   54.1085 C   0  0  0  0  0  0  0  0  0  0  0  0
   50.4163   32.5245   53.3757 C   0  0  0  0  0  0  0  0  0  0  0  0
   49.9103   33.7700   53.7178 O   0  0  0  0  0  0  0  0  0  0  0  0
   51.1591   32.3071   52.2764 N   0  0  0  0  0  0  0  0  0  0  0  0
 14 15  2  0
 15 16  1  0
 16 17  1  0
 17 18  1  0
 18 19  2  0
 18 20  1  0
 20 21  2  0
 21 22  1  0
 22 23  2  0
 23 24  1  0
 23 25  1  0
 15  1  1  0
  1  2  1  0
  2  3  2  0
  3  4  1  0
  4  5  2  0
  5  8  1  0
  8  9  1  0
  9 10  1  0
 10 11  1  0
 11 12  1  0
 12 13  1  0
  5  6  1  0
  6  7  2  0
 25 20  1  0
  7  2  1  0
 13  8  1  0
M  CHG 1   1  -1
M  CHG 1  17  -1
M  CHG 1  24  -1
M  CHG 1  25  -1
M  END
> <UniqueID>
32

> <SMILES>
O=C(C[N-]C(=O)c1ccc([O-])[n-]1)[N-]c1ccc(N2CCOCC2)cc1

> <Energy>
77.30510373389112

> <Genealogy>
O=C(C[N-]C(=O)c1ccc([O-])[n-]1)[N-]c1ccc(N2CCOCC2)cc1 (protonated)
O=C(C[N-]C(=O)c1ccc([O-])[n-]1)[N-]c1ccc(N2CCOCC2)cc1 (3D coordinates assigned)
O=C(C[N-]C(=O)c1ccc([O-])[n-]1)[N-]c1ccc(N2CCOCC2)cc1 (nonaromatic ring conformer: 77.30510373389112 kcal/mol)

> <smiles>
O=C(CNC(=O)c1ccc(O)[nH]1)Nc1ccc(N2CCOCC2)cc1

> <score_type>
oracle

> <origin>
adg

> <m_score__min__energy>
-16.030000000000001

> <m_primary>
energy

> <minimizedAffinity>
-6.22804

> <minimizedRMSD>
0.97547

> <CNNscore>
0.2566167414

> <CNNaffinity>
4.4410858154

> <CNN_VS>
1.1396570206

> <CNNaffinity_variance>
0.3344834149

$$$$
34:0


 26 27  0  0  0  0  0  0  0  0999 V2000
   59.7542   31.8123   49.2697 N   0  0  0  0  0  0  0  0  0  0  0  0
   59.5684   32.3786   50.5795 C   0  0  0  0  0  0  0  0  0  0  0  0
   59.4152   33.6203   50.7202 O   0  0  0  0  0  0  0  0  0  0  0  0
   60.0830   30.8869   49.2010 H   0  0  0  0  0  0  0  0  0  0  0  0
   58.4922   32.5715   45.8224 C   0  0  0  0  0  0  0  0  0  0  0  0
   58.9705   33.8841   45.6556 C   0  0  0  0  0  0  0  0  0  0  0  0
   59.6999   34.5088   46.6700 C   0  0  0  0  0  0  0  0  0  0  0  0
   59.9579   33.8385   47.8667 C   0  0  0  0  0  0  0  0  0  0  0  0
   59.4826   32.5334   48.0589 C   0  0  0  0  0  0  0  0  0  0  0  0
   58.7660   31.9004   47.0322 C   0  0  0  0  0  0  0  0  0  0  0  0
   57.9755   32.2005   43.2900 C   0  0  0  0  0  0  0  0  0  0  0  0
   57.7089   31.9198   44.7391 C   0  0  0  0  0  0  0  0  0  0  0  0
   56.7929   31.1046   45.0330 O   0  0  0  0  0  0  0  0  0  0  0  0
   59.5213   31.5480   51.7487 N   0  0  0  0  0  0  0  0  0  0  0  0
   58.4515   31.5471   52.7420 C   0  0  0  0  0  0  0  0  0  0  0  0
   57.0830   31.5676   52.0625 C   0  0  0  0  0  0  0  0  0  0  0  0
   56.5622   30.2096   51.9665 N   0  0  0  0  0  0  0  0  0  0  0  0
   55.5476   29.6528   52.8136 C   0  0  0  0  0  0  0  0  0  0  0  0
   55.8516   28.6957   53.5721 O   0  0  0  0  0  0  0  0  0  0  0  0
   54.1477   30.1278   52.7865 C   0  0  0  0  0  0  0  0  0  0  0  0
   53.5807   30.5593   51.5756 C   0  0  0  0  0  0  0  0  0  0  0  0
   52.2601   31.0116   51.5353 C   0  0  0  0  0  0  0  0  0  0  0  0
   51.4891   31.0276   52.7014 C   0  0  0  0  0  0  0  0  0  0  0  0
   52.0359   30.5807   53.9076 C   0  0  0  0  0  0  0  0  0  0  0  0
   51.2651   30.5831   55.0624 O   0  0  0  0  0  0  0  0  0  0  0  0
   53.3584   30.1259   53.9504 C   0  0  0  0  0  0  0  0  0  0  0  0
 11 12  1  0
 12 13  2  0
 12  5  1  0
  5  6  2  0
  6  7  1  0
  7  8  2  0
  8  9  1  0
  9  1  1  0
  1  2  1  0
  2  3  2  0
  2 14  1  0
 14 15  1  0
 15 16  1  0
 16 17  1  0
 17 18  1  0
 18 19  2  0
 18 20  1  0
 20 21  2  0
 21 22  1  0
 22 23  2  0
 23 24  1  0
 24 25  1  0
 24 26  2  0
  9 10  2  0
 10  5  1  0
 26 20  1  0
  1  4  1  0
M  CHG 1  14  -1
M  CHG 1  17  -1
M  CHG 1  25  -1
M  END
> <UniqueID>
33

> <SMILES>
CC(=O)c1cccc(NC(=O)[N-]CC[N-]C(=O)c2cccc([O-])c2)c1

> <Energy>
44.90160322715436

> <Genealogy>
CC(=O)c1cccc(NC(=O)[N-]CC[N-]C(=O)c2cccc([O-])c2)c1 (protonated)
CC(=O)c1cccc(NC(=O)[N-]CC[N-]C(=O)c2cccc([O-])c2)c1 (3D coordinates assigned)
CC(=O)c1cccc(NC(=O)[N-]CC[N-]C(=O)c2cccc([O-])c2)c1 (optimized conformer: 44.90160322715436 kcal/mol)

> <smiles>
CC(=O)c1cccc(NC(=O)NCCNC(=O)c2cccc(O)c2)c1

> <score_type>
oracle

> <origin>
adg

> <m_score__min__energy>
-14.33

> <m_primary>
energy

> <minimizedAffinity>
-6.71255

> <minimizedRMSD>
1.52988

> <CNNscore>
0.8084576726

> <CNNaffinity>
5.6973013878

> <CNN_VS>
4.6060271263

> <CNNaffinity_variance>
0.0706673041

$$$$
36:0


 34 37  0  0  0  0  0  0  0  0999 V2000
   58.9885   28.0756   46.8817 C   0  0  0  0  0  0  0  0  0  0  0  0
   58.1322   28.9791   46.6802 O   0  0  0  0  0  0  0  0  0  0  0  0
   60.0925   28.3145   47.7683 N   0  0  0  0  0  0  0  0  0  0  0  0
   60.6809   27.5632   48.0106 H   0  0  0  0  0  0  0  0  0  0  0  0
   59.7189   23.5230   45.3833 C   0  0  0  0  0  0  0  0  0  0  0  0
   59.1225   24.7124   45.5768 C   0  0  0  0  0  0  0  0  0  0  0  0
   57.8153   25.0547   45.2033 C   0  0  0  0  0  0  0  0  0  0  0  0
   56.9153   24.2633   44.5790 C   0  0  0  0  0  0  0  0  0  0  0  0
   57.6307   26.3645   45.6302 C   0  0  0  0  0  0  0  0  0  0  0  0
   58.8036   26.7589   46.2433 C   0  0  0  0  0  0  0  0  0  0  0  0
   59.7240   25.7661   46.1866 N   0  0  0  0  0  0  0  0  0  0  0  0
   61.1130   25.8336   46.6580 C   0  0  0  0  0  0  0  0  0  0  0  0
   55.7524   23.6016   45.2127 C   0  0  0  0  0  0  0  0  0  0  0  0
   55.5576   22.2754   45.3239 N   0  0  0  0  0  0  0  0  0  0  0  0
   54.3815   22.1792   45.9795 C   0  0  0  0  0  0  0  0  0  0  0  0
   53.8561   21.0734   46.2701 O   0  0  0  0  0  0  0  0  0  0  0  0
   53.8143   23.3610   46.3003 N   0  0  0  0  0  0  0  0  0  0  0  0
   54.6948   24.2492   45.8114 C   0  0  0  0  0  0  0  0  0  0  0  0
   54.5340   25.6250   45.9084 O   0  0  0  0  0  0  0  0  0  0  0  0
   60.3710   29.6433   48.3242 C   0  0  0  0  0  0  0  0  0  0  0  0
   61.1612   30.5058   47.3085 C   0  0  0  0  0  0  0  0  0  0  0  0
   60.2443   31.3824   46.4504 C   0  0  0  0  0  0  0  0  0  0  0  0
   59.4146   32.2503   47.3020 N   0  0  0  0  0  0  0  0  0  0  0  0
   58.9700   33.5422   46.8341 C   0  0  0  0  0  0  0  0  0  0  0  0
   58.6433   34.4278   47.6726 O   0  0  0  0  0  0  0  0  0  0  0  0
   59.0897   31.8307   48.6750 C   0  0  0  0  0  0  0  0  0  0  0  0
   59.0477   30.3032   48.7754 C   0  0  0  0  0  0  0  0  0  0  0  0
   58.9472   33.8770   45.3638 C   0  0  0  0  0  0  0  0  0  0  0  0
   58.2467   32.8100   44.5635 C   0  0  0  0  0  0  0  0  0  0  0  0
   57.3975   31.8899   45.2010 C   0  0  0  0  0  0  0  0  0  0  0  0
   56.7176   30.9221   44.4539 C   0  0  0  0  0  0  0  0  0  0  0  0
   56.8752   30.8700   43.0652 C   0  0  0  0  0  0  0  0  0  0  0  0
   57.7105   31.7902   42.4215 C   0  0  0  0  0  0  0  0  0  0  0  0
   58.3910   32.7594   43.1657 C   0  0  0  0  0  0  0  0  0  0  0  0
  5  6  2  0
  6  7  1  0
  7  8  2  0
  8 13  1  0
 13 14  1  0
 14 15  1  0
 15 16  2  0
 15 17  1  0
 17 18  1  0
 18 19  1  0
  7  9  1  0
  9 10  2  0
 10  1  1  0
  1  2  2  0
  1  3  1  0
  3 20  1  0
 20 21  1  0
 21 22  1  0
 22 23  1  0
 23 24  1  0
 24 25  2  0
 24 28  1  0
 28 29  1  0
 29 30  2  0
 30 31  1  0
 31 32  2  0
 32 33  1  0
 33 34  2  0
 23 26  1  0
 26 27  1  0
 10 11  1  0
 11 12  1  0
 11  6  1  0
 18 13  2  0
 27 20  1  0
 34 29  1  0
  3  4  1  0
M  CHG 1  14  -1
M  CHG 1  17  -1
M  CHG 1  19  -1
M  END
> <UniqueID>
35

> <SMILES>
C=c1c(=Cc2[n-]c(=O)[n-]c2[O-])cc(C(=O)NC2CCN(C(=O)Cc3ccccc3)CC2)n1C

> <Energy>
127.17559733011034

> <Genealogy>
C=c1c(=Cc2[n-]c(=O)[n-]c2[O-])cc(C(=O)NC2CCN(C(=O)Cc3ccccc3)CC2)n1C (protonated)
C=c1c(=Cc2[n-]c(=O)[n-]c2[O-])cc(C(=O)NC2CCN(C(=O)Cc3ccccc3)CC2)n1C (3D coordinates assigned)
C=c1c(=Cc2[n-]c(=O)[n-]c2[O-])cc(C(=O)NC2CCN(C(=O)Cc3ccccc3)CC2)n1C (nonaromatic ring conformer: 127.17559733011034 kcal/mol)

> <smiles>
C=c1c(=Cc2[nH]c(=O)[nH]c2O)cc(C(=O)NC2CCN(C(=O)Cc3ccccc3)CC2)n1C

> <score_type>
oracle

> <origin>
adg

> <m_score__min__energy>
-18.670000000000002

> <m_primary>
energy

> <minimizedAffinity>
-6.18417

> <minimizedRMSD>
0.88418

> <CNNscore>
0.0396702290

> <CNNaffinity>
5.4776248932

> <CNN_VS>
0.2172986269

> <CNNaffinity_variance>
0.7445788980

$$$$
38:0


 27 29  0  0  0  0  0  0  0  0999 V2000
   57.0857   30.4350   43.7910 C   0  0  0  0  0  0  0  0  0  0  0  0
   57.8836   30.9545   44.7433 C   0  0  0  0  0  0  0  0  0  0  0  0
   57.7447   32.2807   45.0255 N   0  0  0  0  0  0  0  0  0  0  0  0
   58.3035   32.8485   46.1226 C   0  0  0  0  0  0  0  0  0  0  0  0
   58.1155   34.0787   46.3352 O   0  0  0  0  0  0  0  0  0  0  0  0
   59.0400   32.0952   46.9960 N   0  0  0  0  0  0  0  0  0  0  0  0
   59.2702   30.7691   46.7263 C   0  0  0  0  0  0  0  0  0  0  0  0
   59.9687   30.0872   47.5300 O   0  0  0  0  0  0  0  0  0  0  0  0
   58.7683   30.1680   45.5424 C   0  0  0  0  0  0  0  0  0  0  0  0
   59.1830   28.9049   45.2299 C   0  0  0  0  0  0  0  0  0  0  0  0
   57.2211   32.8453   44.4120 H   0  0  0  0  0  0  0  0  0  0  0  0
   58.5976   27.6371   45.7272 C   0  0  0  0  0  0  0  0  0  0  0  0
   57.2161   27.3792   45.6500 C   0  0  0  0  0  0  0  0  0  0  0  0
   56.3437   28.3200   45.1134 O   0  0  0  0  0  0  0  0  0  0  0  0
   56.7231   26.1916   46.0877 N   0  0  0  0  0  0  0  0  0  0  0  0
   57.5435   25.2310   46.5835 C   0  0  0  0  0  0  0  0  0  0  0  0
   57.0629   24.1410   46.9873 O   0  0  0  0  0  0  0  0  0  0  0  0
   58.8832   25.4447   46.6394 N   0  0  0  0  0  0  0  0  0  0  0  0
   59.4268   26.6150   46.2166 C   0  0  0  0  0  0  0  0  0  0  0  0
   60.6764   26.7750   46.2790 O   0  0  0  0  0  0  0  0  0  0  0  0
   59.5657   32.6989   48.2386 C   0  0  0  0  0  0  0  0  0  0  0  0
   61.0633   32.8479   48.1598 C   0  0  0  0  0  0  0  0  0  0  0  0
   61.6600   33.4252   47.0253 C   0  0  0  0  0  0  0  0  0  0  0  0
   63.0462   33.5927   46.9661 C   0  0  0  0  0  0  0  0  0  0  0  0
   63.8480   33.1904   48.0384 C   0  0  0  0  0  0  0  0  0  0  0  0
   63.2629   32.6192   49.1717 C   0  0  0  0  0  0  0  0  0  0  0  0
   61.8761   32.4503   49.2349 C   0  0  0  0  0  0  0  0  0  0  0  0
  1  2  2  0
  2  3  1  0
  3  4  1  0
  4  5  2  0
  4  6  1  0
  6 21  1  0
 21 22  1  0
 22 23  2  0
 23 24  1  0
 24 25  2  0
 25 26  1  0
 26 27  2  0
  6  7  1  0
  7  8  2  0
  7  9  1  0
  9 10  2  0
 10 12  1  0
 12 13  2  0
 13 14  1  0
 13 15  1  0
 15 16  1  0
 16 17  2  0
 16 18  1  0
 18 19  1  0
 19 20  2  0
  9  2  1  0
 19 12  1  0
 27 22  1  0
  3 11  1  0
M  CHG 1  14  -1
M  CHG 1  15  -1
M  CHG 1  18  -1
M  END
> <UniqueID>
37

> <SMILES>
C=c1[nH]c(=O)n(Cc2ccccc2)c(=O)c1=Cc1c([O-])[n-]c(=O)[n-]c1=O

> <Energy>
70.89538886695377

> <Genealogy>
C=c1[nH]c(=O)n(Cc2ccccc2)c(=O)c1=Cc1c([O-])[n-]c(=O)[n-]c1=O (protonated)
C=c1[nH]c(=O)n(Cc2ccccc2)c(=O)c1=Cc1c([O-])[n-]c(=O)[n-]c1=O (3D coordinates assigned)
C=c1[nH]c(=O)n(Cc2ccccc2)c(=O)c1=Cc1c([O-])[n-]c(=O)[n-]c1=O (optimized conformer: 70.89538886695377 kcal/mol)

> <smiles>
C=c1[nH]c(=O)n(Cc2ccccc2)c(=O)c1=Cc1c(O)[nH]c(=O)[nH]c1=O

> <score_type>
oracle

> <origin>
adg

> <m_score__min__energy>
-15.76

> <m_primary>
energy

> <minimizedAffinity>
-8.45630

> <minimizedRMSD>
1.12142

> <CNNscore>
0.5578358173

> <CNNaffinity>
6.6746954918

> <CNN_VS>
3.7233841419

> <CNNaffinity_variance>
0.2693918347

$$$$
43:0


 27 29  0  0  0  0  0  0  0  0999 V2000
   61.2616   30.4565   47.5247 C   0  0  0  0  0  0  0  0  0  0  0  0
   61.5963   31.8099   47.6548 C   0  0  0  0  0  0  0  0  0  0  0  0
   61.6472   32.3839   48.8848 N   0  0  0  0  0  0  0  0  0  0  0  0
   61.3789   31.6678   50.0099 C   0  0  0  0  0  0  0  0  0  0  0  0
   61.4054   32.2226   51.1866 N   0  0  0  0  0  0  0  0  0  0  0  0
   61.0303   30.3589   49.9026 N   0  0  0  0  0  0  0  0  0  0  0  0
   60.9644   29.7399   48.6961 C   0  0  0  0  0  0  0  0  0  0  0  0
   60.6358   28.5247   48.6439 O   0  0  0  0  0  0  0  0  0  0  0  0
   60.2833   32.4628   52.0536 C   0  0  0  0  0  0  0  0  0  0  0  0
   60.4063   33.4314   53.0574 C   0  0  0  0  0  0  0  0  0  0  0  0
   59.3293   33.7214   53.9064 C   0  0  0  0  0  0  0  0  0  0  0  0
   59.4624   34.7832   54.9589 C   0  0  0  0  0  0  0  0  0  0  0  0
   58.1035   33.0673   53.7168 C   0  0  0  0  0  0  0  0  0  0  0  0
   57.9617   32.1045   52.7062 C   0  0  0  0  0  0  0  0  0  0  0  0
   56.6327   31.4479   52.4729 C   0  0  0  0  0  0  0  0  0  0  0  0
   59.0450   31.8221   51.8622 C   0  0  0  0  0  0  0  0  0  0  0  0
   61.1658   29.8273   46.1569 C   0  0  0  0  0  0  0  0  0  0  0  0
   57.7735   28.3684   45.1777 C   0  0  0  0  0  0  0  0  0  0  0  0
   59.1254   28.4689   45.5509 C   0  0  0  0  0  0  0  0  0  0  0  0
   59.7264   29.7250   45.7268 C   0  0  0  0  0  0  0  0  0  0  0  0
   58.9600   30.8862   45.5521 C   0  0  0  0  0  0  0  0  0  0  0  0
   57.6119   30.7938   45.1972 C   0  0  0  0  0  0  0  0  0  0  0  0
   57.0154   29.5419   45.0145 C   0  0  0  0  0  0  0  0  0  0  0  0
   55.6675   29.4750   44.6757 O   0  0  0  0  0  0  0  0  0  0  0  0
   56.0879   26.8891   45.9408 O   0  0  0  0  0  0  0  0  0  0  0  0
   57.1372   27.0145   45.0233 C   0  0  0  0  0  0  0  0  0  0  0  0
   55.6757   26.0165   45.8433 H   0  0  0  0  0  0  0  0  0  0  0  0
 25 26  1  0
 26 18  1  0
 18 19  2  0
 19 20  1  0
 20 17  1  0
 17  1  1  0
  1  2  2  0
  2  3  1  0
  3  4  1  0
  4  5  2  0
  5  9  1  0
  9 10  2  0
 10 11  1  0
 11 12  1  0
 11 13  2  0
 13 14  1  0
 14 15  1  0
 14 16  2  0
  4  6  1  0
  6  7  1  0
  7  8  2  0
 20 21  2  0
 21 22  1  0
 22 23  2  0
 23 24  1  0
 23 18  1  0
  7  1  1  0
 16  9  1  0
 25 27  1  0
M  CHG 1   3  -1
M  CHG 1   6  -1
M  CHG 1  24  -1
M  END
> <UniqueID>
42

> <SMILES>
Cc1cc(C)cc(/N=c2\[n-]cc(Cc3ccc([O-])c(CO)c3)c(=O)[n-]2)c1

> <Energy>
51.338003604742276

> <Genealogy>
Cc1cc(C)cc(N=c2[n-]cc(Cc3ccc([O-])c(CO)c3)c(=O)[n-]2)c1 (protonated)
Cc1cc(C)cc(/N=c2\[n-]cc(Cc3ccc([O-])c(CO)c3)c(=O)[n-]2)c1 (cis-trans isomerization)
Cc1cc(C)cc(/N=c2\[n-]cc(Cc3ccc([O-])c(CO)c3)c(=O)[n-]2)c1 (3D coordinates assigned)
Cc1cc(C)cc(/N=c2\[n-]cc(Cc3ccc([O-])c(CO)c3)c(=O)[n-]2)c1 (optimized conformer: 51.338003604742276 kcal/mol)

> <smiles>
Cc1cc(C)cc(N=c2[nH]cc(Cc3ccc(O)c(CO)c3)c(=O)[nH]2)c1

> <score_type>
oracle

> <origin>
adg

> <m_score__min__energy>
-14.029999999999999

> <m_primary>
energy

> <minimizedAffinity>
-5.64705

> <minimizedRMSD>
0.58291

> <CNNscore>
0.1435141563

> <CNNaffinity>
5.7909183502

> <CNN_VS>
0.8310787678

> <CNNaffinity_variance>
0.0278323535

$$$$
45:0


 29 31  0  0  0  0  0  0  0  0999 V2000
   56.6655   30.0294   43.2724 C   0  0  0  0  0  0  0  0  0  0  0  0
   57.3568   30.7250   44.4140 C   0  0  0  0  0  0  0  0  0  0  0  0
   57.5263   32.1184   44.3748 C   0  0  0  0  0  0  0  0  0  0  0  0
   58.1620   32.7858   45.4222 C   0  0  0  0  0  0  0  0  0  0  0  0
   58.6284   32.0732   46.5330 C   0  0  0  0  0  0  0  0  0  0  0  0
   58.4488   30.6871   46.5869 C   0  0  0  0  0  0  0  0  0  0  0  0
   57.8272   29.9988   45.5306 C   0  0  0  0  0  0  0  0  0  0  0  0
   57.6225   28.5781   45.6185 N   0  0  0  0  0  0  0  0  0  0  0  0
   58.6527   27.6124   45.3549 C   0  0  0  0  0  0  0  0  0  0  0  0
   59.7205   27.9549   44.7791 O   0  0  0  0  0  0  0  0  0  0  0  0
   56.7297   28.2502   45.8726 H   0  0  0  0  0  0  0  0  0  0  0  0
   58.4706   26.1848   45.7839 C   0  0  0  0  0  0  0  0  0  0  0  0
   56.9957   25.8639   46.0592 C   0  0  0  0  0  0  0  0  0  0  0  0
   56.5825   24.5555   45.4430 C   0  0  0  0  0  0  0  0  0  0  0  0
   57.6299   23.4552   44.7080 S   0  0  0  0  0  0  0  0  0  0  0  0
   56.3699   22.4426   44.2437 C   0  0  0  0  0  0  0  0  0  0  0  0
   56.5214   21.3712   43.6024 O   0  0  0  0  0  0  0  0  0  0  0  0
   55.1602   22.9083   44.6238 N   0  0  0  0  0  0  0  0  0  0  0  0
   55.2788   24.0875   45.2901 C   0  0  0  0  0  0  0  0  0  0  0  0
   54.1672   24.7654   45.7766 O   0  0  0  0  0  0  0  0  0  0  0  0
   59.4302   32.9180   47.8616 S   0  0  0  0  0  0  0  0  0  0  0  0
   58.7643   32.5439   49.1579 O   0  0  0  0  0  0  0  0  0  0  0  0
   59.2750   34.4015   47.6717 O   0  0  0  0  0  0  0  0  0  0  0  0
   61.1312   32.5245   47.9421 N   0  0  0  0  0  0  0  0  0  0  0  0
   61.9013   33.3599   46.9998 C   0  0  0  0  0  0  0  0  0  0  0  0
   63.3829   33.4088   47.4058 C   0  0  0  0  0  0  0  0  0  0  0  0
   63.6121   33.9516   48.7009 O   0  0  0  0  0  0  0  0  0  0  0  0
   62.4915   33.8540   49.5699 C   0  0  0  0  0  0  0  0  0  0  0  0
   61.6426   32.5929   49.3288 C   0  0  0  0  0  0  0  0  0  0  0  0
  1  2  1  0
  2  3  2  0
  3  4  1  0
  4  5  2  0
  5 21  1  0
 21 22  2  0
 21 23  2  0
 21 24  1  0
 24 25  1  0
 25 26  1  0
 26 27  1  0
 27 28  1  0
 28 29  1  0
  5  6  1  0
  6  7  2  0
  7  8  1  0
  8  9  1  0
  9 10  2  0
  9 12  1  0
 12 13  1  0
 13 14  1  0
 14 15  1  0
 15 16  1  0
 16 17  2  0
 16 18  1  0
 18 19  1  0
 19 20  1  0
  7  2  1  0
 19 14  2  0
 29 24  1  0
  8 11  1  0
M  CHG 1  18  -1
M  CHG 1  20  -1
M  END
> <UniqueID>
44

> <SMILES>
Cc1ccc(S(=O)(=O)N2CCOCC2)cc1NC(=O)CCc1sc(=O)[n-]c1[O-]

> <Energy>
88.47739594146725

> <Genealogy>
Cc1ccc(S(=O)(=O)N2CCOCC2)cc1NC(=O)CCc1sc(=O)[n-]c1[O-] (protonated)
Cc1ccc(S(=O)(=O)N2CCOCC2)cc1NC(=O)CCc1sc(=O)[n-]c1[O-] (3D coordinates assigned)
Cc1ccc(S(=O)(=O)N2CCOCC2)cc1NC(=O)CCc1sc(=O)[n-]c1[O-] (nonaromatic ring conformer: 88.47739594146725 kcal/mol)

> <smiles>
Cc1ccc(S(=O)(=O)N2CCOCC2)cc1NC(=O)CCc1sc(=O)[nH]c1O

> <score_type>
oracle

> <origin>
adg

> <m_score__min__energy>
-15.41

> <m_primary>
energy

> <minimizedAffinity>
-8.49109

> <minimizedRMSD>
1.84826

> <CNNscore>
0.6340134144

> <CNNaffinity>
6.9443168640

> <CNN_VS>
4.4027900696

> <CNNaffinity_variance>
0.0543823056

$$$$
65:0


 27 29  0  0  0  0  0  0  0  0999 V2000
   60.4817   26.9748   47.8025 C   0  0  0  0  0  0  0  0  0  0  0  0
   59.6366   27.6822   47.0247 C   0  0  0  0  0  0  0  0  0  0  0  0
   59.6700   29.0856   47.1547 C   0  0  0  0  0  0  0  0  0  0  0  0
   58.7818   29.9127   46.4522 C   0  0  0  0  0  0  0  0  0  0  0  0
   57.8443   29.3328   45.5887 C   0  0  0  0  0  0  0  0  0  0  0  0
   57.8237   27.9441   45.4115 C   0  0  0  0  0  0  0  0  0  0  0  0
   58.6973   27.0843   46.1187 C   0  0  0  0  0  0  0  0  0  0  0  0
   58.6688   25.7438   45.8832 C   0  0  0  0  0  0  0  0  0  0  0  0
   57.5696   24.8215   46.2505 C   0  0  0  0  0  0  0  0  0  0  0  0
   57.6996   23.4958   46.4461 N   0  0  0  0  0  0  0  0  0  0  0  0
   56.4294   23.0794   46.6359 C   0  0  0  0  0  0  0  0  0  0  0  0
   56.1373   21.8773   46.8640 O   0  0  0  0  0  0  0  0  0  0  0  0
   55.4972   24.0526   46.5506 N   0  0  0  0  0  0  0  0  0  0  0  0
   56.2345   25.1436   46.2939 C   0  0  0  0  0  0  0  0  0  0  0  0
   55.6963   26.4107   46.1013 O   0  0  0  0  0  0  0  0  0  0  0  0
   56.9009   30.1971   44.7838 C   0  0  0  0  0  0  0  0  0  0  0  0
   57.6415   30.8951   43.6477 C   0  0  0  0  0  0  0  0  0  0  0  0
   58.8043   31.3144   46.5842 O   0  0  0  0  0  0  0  0  0  0  0  0
   58.5893   32.0418   47.7945 C   0  0  0  0  0  0  0  0  0  0  0  0
   59.8741   32.6549   48.2836 C   0  0  0  0  0  0  0  0  0  0  0  0
   59.9758   33.0982   49.6105 C   0  0  0  0  0  0  0  0  0  0  0  0
   61.1748   33.6495   50.0593 C   0  0  0  0  0  0  0  0  0  0  0  0
   62.2558   33.7664   49.1878 C   0  0  0  0  0  0  0  0  0  0  0  0
   62.1198   33.3415   47.8590 C   0  0  0  0  0  0  0  0  0  0  0  0
   63.2866   33.4264   46.9201 C   0  0  0  0  0  0  0  0  0  0  0  0
   60.9427   32.7897   47.4425 N   0  0  0  0  0  0  0  0  0  0  0  0
   60.8614   32.4806   46.5114 H   0  0  0  0  0  0  0  0  0  0  0  0
  1  2  2  0
  2  3  1  0
  3  4  2  0
  4 18  1  0
 18 19  1  0
 19 20  1  0
 20 21  2  0
 21 22  1  0
 22 23  2  0
 23 24  1  0
 24 25  1  0
 24 26  2  0
  4  5  1  0
  5 16  1  0
 16 17  1  0
  5  6  2  0
  6  7  1  0
  7  8  2  0
  8  9  1  0
  9 10  1  0
 10 11  1  0
 11 12  2  0
 11 13  1  0
 13 14  1  0
 14 15  1  0
  7  2  1  0
 14  9  2  0
 26 20  1  0
 26 27  1  0
M  CHG 1  10  -1
M  CHG 1  13  -1
M  CHG 1  15  -1
M  CHG 1  26   1
M  END
> <UniqueID>
63

> <SMILES>
C=c1cc(OCc2cccc(C)[nH+]2)c(CC)c/c1=C\c1[n-]c(=O)[n-]c1[O-]

> <Energy>
88.09399946097582

> <Genealogy>
C=c1cc(OCc2cccc(C)[nH+]2)c(CC)cc1=Cc1[n-]c(=O)[n-]c1[O-] (protonated)
C=c1cc(OCc2cccc(C)[nH+]2)c(CC)c/c1=C\c1[n-]c(=O)[n-]c1[O-] (cis-trans isomerization)
C=c1cc(OCc2cccc(C)[nH+]2)c(CC)c/c1=C\c1[n-]c(=O)[n-]c1[O-] (3D coordinates assigned)
C=c1cc(OCc2cccc(C)[nH+]2)c(CC)c/c1=C\c1[n-]c(=O)[n-]c1[O-] (optimized conformer: 88.09399946097582 kcal/mol)

> <smiles>
C=c1cc(OCc2cccc(C)n2)c(CC)cc1=Cc1[nH]c(=O)[nH]c1O

> <score_type>
oracle

> <origin>
adg

> <m_score__min__energy>
-14.210000000000001

> <m_primary>
energy

> <minimizedAffinity>
-8.04389

> <minimizedRMSD>
1.88310

> <CNNscore>
0.3235722780

> <CNNaffinity>
6.7333807945

> <CNN_VS>
2.1787352562

> <CNNaffinity_variance>
0.1026588306

$$$$
68:0


 30 33  0  0  0  0  0  0  0  0999 V2000
   57.4563   28.1540   54.2641 C   0  0  0  0  0  0  0  0  0  0  0  0
   57.2729   29.1021   53.3379 C   0  0  0  0  0  0  0  0  0  0  0  0
   58.3075   29.6495   52.6681 N   0  0  0  0  0  0  0  0  0  0  0  0
   57.8154   30.6704   51.9417 C   0  0  0  0  0  0  0  0  0  0  0  0
   56.4535   30.7910   52.1417 C   0  0  0  0  0  0  0  0  0  0  0  0
   56.0859   29.7680   53.0013 C   0  0  0  0  0  0  0  0  0  0  0  0
   54.8100   29.5472   53.3725 C   0  0  0  0  0  0  0  0  0  0  0  0
   59.2469   29.3571   52.7036 H   0  0  0  0  0  0  0  0  0  0  0  0
   58.6352   31.5659   51.1009 C   0  0  0  0  0  0  0  0  0  0  0  0
   58.0772   32.2432   50.1963 O   0  0  0  0  0  0  0  0  0  0  0  0
   60.0523   31.6885   51.3105 N   0  0  0  0  0  0  0  0  0  0  0  0
   60.9083   30.5068   51.3894 C   0  0  0  0  0  0  0  0  0  0  0  0
   61.7835   30.4225   50.1327 C   0  0  0  0  0  0  0  0  0  0  0  0
   62.4454   31.7050   49.8055 N   0  0  0  0  0  0  0  0  0  0  0  0
   61.5929   32.9121   49.8588 C   0  0  0  0  0  0  0  0  0  0  0  0
   60.7262   32.9693   51.1221 C   0  0  0  0  0  0  0  0  0  0  0  0
   63.8450   31.8617   50.2531 C   0  0  0  0  0  0  0  0  0  0  0  0
   63.9867   32.6203   51.5511 C   0  0  0  0  0  0  0  0  0  0  0  0
   63.8166   31.9629   52.7800 C   0  0  0  0  0  0  0  0  0  0  0  0
   63.9590   32.6652   53.9810 C   0  0  0  0  0  0  0  0  0  0  0  0
   64.2890   34.0226   53.9636 C   0  0  0  0  0  0  0  0  0  0  0  0
   64.4823   34.6789   52.7456 C   0  0  0  0  0  0  0  0  0  0  0  0
   64.3407   33.9802   51.5427 C   0  0  0  0  0  0  0  0  0  0  0  0
   53.6163   30.0553   52.6818 C   0  0  0  0  0  0  0  0  0  0  0  0
   53.4302   29.9657   51.3526 N   0  0  0  0  0  0  0  0  0  0  0  0
   52.1727   30.4269   51.1828 C   0  0  0  0  0  0  0  0  0  0  0  0
   51.6315   30.5148   50.0501 O   0  0  0  0  0  0  0  0  0  0  0  0
   51.5360   30.7757   52.3207 N   0  0  0  0  0  0  0  0  0  0  0  0
   52.4576   30.5197   53.2626 C   0  0  0  0  0  0  0  0  0  0  0  0
   52.2357   30.6817   54.6247 O   0  0  0  0  0  0  0  0  0  0  0  0
  1  2  2  0
  2  3  1  0
  3  4  1  0
  4  9  1  0
  9 10  2  0
  9 11  1  0
 11 12  1  0
 12 13  1  0
 13 14  1  0
 14 17  1  0
 17 18  1  0
 18 19  2  0
 19 20  1  0
 20 21  2  0
 21 22  1  0
 22 23  2  0
 14 15  1  0
 15 16  1  0
  4  5  2  0
  5  6  1  0
  6  7  2  0
  7 24  1  0
 24 25  1  0
 25 26  1  0
 26 27  2  0
 26 28  1  0
 28 29  1  0
 29 30  1  0
  6  2  1  0
 29 24  2  0
 16 11  1  0
 23 18  1  0
  3  8  1  0
M  CHG 1  25  -1
M  CHG 1  28  -1
M  CHG 1  30  -1
M  END
> <UniqueID>
66

> <SMILES>
C=c1[nH]c(C(=O)N2CCN(Cc3ccccc3)CC2)cc1=Cc1[n-]c(=O)[n-]c1[O-]

> <Energy>
131.79743016110325

> <Genealogy>
C=c1[nH]c(C(=O)N2CCN(Cc3ccccc3)CC2)cc1=Cc1[n-]c(=O)[n-]c1[O-] (protonated)
C=c1[nH]c(C(=O)N2CCN(Cc3ccccc3)CC2)cc1=Cc1[n-]c(=O)[n-]c1[O-] (3D coordinates assigned)
C=c1[nH]c(C(=O)N2CCN(Cc3ccccc3)CC2)cc1=Cc1[n-]c(=O)[n-]c1[O-] (nonaromatic ring conformer: 131.79743016110325 kcal/mol)

> <smiles>
C=c1[nH]c(C(=O)N2CCN(Cc3ccccc3)CC2)cc1=Cc1[nH]c(=O)[nH]c1O

> <score_type>
oracle

> <origin>
adg

> <m_score__min__energy>
-18.100000000000001

> <m_primary>
energy

> <minimizedAffinity>
-6.00985

> <minimizedRMSD>
4.49681

> <CNNscore>
0.0997994840

> <CNNaffinity>
4.3674387932

> <CNN_VS>
0.4358681440

> <CNNaffinity_variance>
0.6130900383

$$$$
70:0


 32 35  0  0  0  0  0  0  0  0999 V2000
   57.8621   29.6772   44.6796 C   0  0  0  0  0  0  0  0  0  0  0  0
   56.9131   29.8557   43.8649 O   0  0  0  0  0  0  0  0  0  0  0  0
   60.2926   25.8663   46.4670 C   0  0  0  0  0  0  0  0  0  0  0  0
   59.3197   26.5854   45.8807 C   0  0  0  0  0  0  0  0  0  0  0  0
   58.2097   26.0662   45.2043 C   0  0  0  0  0  0  0  0  0  0  0  0
   57.8645   24.7677   45.0818 C   0  0  0  0  0  0  0  0  0  0  0  0
   57.5198   27.1624   44.7056 C   0  0  0  0  0  0  0  0  0  0  0  0
   58.2189   28.2926   45.0894 C   0  0  0  0  0  0  0  0  0  0  0  0
   59.3002   27.9438   45.8268 N   0  0  0  0  0  0  0  0  0  0  0  0
   60.2728   28.8658   46.4289 C   0  0  0  0  0  0  0  0  0  0  0  0
   56.5251   24.2092   45.3711 C   0  0  0  0  0  0  0  0  0  0  0  0
   56.1480   22.9318   45.1887 N   0  0  0  0  0  0  0  0  0  0  0  0
   54.8777   22.9091   45.6457 C   0  0  0  0  0  0  0  0  0  0  0  0
   54.1702   21.8682   45.6319 O   0  0  0  0  0  0  0  0  0  0  0  0
   54.4246   24.0892   46.1175 N   0  0  0  0  0  0  0  0  0  0  0  0
   55.4814   24.8995   45.9414 C   0  0  0  0  0  0  0  0  0  0  0  0
   55.4929   26.2399   46.2999 O   0  0  0  0  0  0  0  0  0  0  0  0
   58.5136   30.8252   45.2791 N   0  0  0  0  0  0  0  0  0  0  0  0
   58.2166   32.0839   44.5312 C   0  0  0  0  0  0  0  0  0  0  0  0
   57.5000   33.1623   45.3710 C   0  0  0  0  0  0  0  0  0  0  0  0
   58.1186   33.3716   46.7008 N   0  0  0  0  0  0  0  0  0  0  0  0
   58.7016   32.1704   47.3359 C   0  0  0  0  0  0  0  0  0  0  0  0
   58.1619   30.8855   46.7121 C   0  0  0  0  0  0  0  0  0  0  0  0
   58.2996   30.7257   44.3233 H   0  0  0  0  0  0  0  0  0  0  0  0
   58.9698   34.5737   46.8192 C   0  0  0  0  0  0  0  0  0  0  0  0
   60.4780   34.2866   46.5943 C   0  0  0  0  0  0  0  0  0  0  0  0
   61.0926   33.4612   47.6569 N   0  0  0  0  0  0  0  0  0  0  0  0
   61.0690   34.1116   48.9867 C   0  0  0  0  0  0  0  0  0  0  0  0
   61.9439   33.3564   49.9858 C   0  0  0  0  0  0  0  0  0  0  0  0
   63.4146   33.3472   49.5367 C   0  0  0  0  0  0  0  0  0  0  0  0
   63.5793   33.4051   48.0082 C   0  0  0  0  0  0  0  0  0  0  0  0
   62.3688   32.8051   47.2793 C   0  0  0  0  0  0  0  0  0  0  0  0
  3  4  2  0
  4  5  1  0
  5  6  2  0
  6 11  1  0
 11 12  1  0
 12 13  1  0
 13 14  2  0
 13 15  1  0
 15 16  1  0
 16 17  1  0
  5  7  1  0
  7  8  2  0
  8  1  1  0
  1  2  2  0
  1 18  1  0
 18 19  1  0
 19 20  1  0
 20 21  1  0
 21 25  1  0
 25 26  1  0
 26 27  1  0
 27 28  1  0
 28 29  1  0
 29 30  1  0
 30 31  1  0
 31 32  1  0
 21 22  1  0
 22 23  1  0
  8  9  1  0
  9 10  1  0
  9  4  1  0
 16 11  2  0
 23 18  1  0
 32 27  1  0
 18 24  1  0
M  CHG 1  12  -1
M  CHG 1  15  -1
M  CHG 1  17  -1
M  CHG 1  18   1
M  END
> <UniqueID>
68

> <SMILES>
C=c1/c(=C/c2[n-]c(=O)[n-]c2[O-])cc(C(=O)[NH+]2CCN(CCN3CCCCC3)CC2)n1C

> <Energy>
156.02481799196664

> <Genealogy>
C=c1c(=Cc2[n-]c(=O)[n-]c2[O-])cc(C(=O)[NH+]2CCN(CCN3CCCCC3)CC2)n1C (protonated)
C=c1/c(=C/c2[n-]c(=O)[n-]c2[O-])cc(C(=O)[NH+]2CCN(CCN3CCCCC3)CC2)n1C (cis-trans isomerization)
C=c1/c(=C/c2[n-]c(=O)[n-]c2[O-])cc(C(=O)[NH+]2CCN(CCN3CCCCC3)CC2)n1C (3D coordinates assigned)
C=c1/c(=C/c2[n-]c(=O)[n-]c2[O-])cc(C(=O)[NH+]2CCN(CCN3CCCCC3)CC2)n1C (nonaromatic ring conformer: 156.02481799196664 kcal/mol)

> <smiles>
C=c1c(=Cc2[nH]c(=O)[nH]c2O)cc(C(=O)N2CCN(CCN3CCCCC3)CC2)n1C

> <score_type>
oracle

> <origin>
adg

> <m_score__min__energy>
-17.879999999999999

> <m_primary>
energy

> <minimizedAffinity>
-7.67509

> <minimizedRMSD>
0.65737

> <CNNscore>
0.1283222288

> <CNNaffinity>
6.2148494720

> <CNN_VS>
0.7975033522

> <CNNaffinity_variance>
0.5816019177

$$$$
79:0


 33 36  0  0  0  0  0  0  0  0999 V2000
   57.6920   29.4846   52.9806 C   0  0  0  0  0  0  0  0  0  0  0  0
   58.4366   28.5557   53.3979 O   0  0  0  0  0  0  0  0  0  0  0  0
   58.1286   30.2997   51.8744 N   0  0  0  0  0  0  0  0  0  0  0  0
   59.0910   29.7431   50.9147 C   0  0  0  0  0  0  0  0  0  0  0  0
   59.3104   30.6808   49.7227 C   0  0  0  0  0  0  0  0  0  0  0  0
   59.5733   32.0515   50.1927 N   0  0  0  0  0  0  0  0  0  0  0  0
   60.5412   32.9129   49.5481 C   0  0  0  0  0  0  0  0  0  0  0  0
   60.6136   34.1261   49.8868 O   0  0  0  0  0  0  0  0  0  0  0  0
   58.7510   32.6116   51.2810 C   0  0  0  0  0  0  0  0  0  0  0  0
   57.6168   31.6667   51.6930 C   0  0  0  0  0  0  0  0  0  0  0  0
   54.0057   29.3739   56.1314 C   0  0  0  0  0  0  0  0  0  0  0  0
   54.7035   29.6035   55.0077 C   0  0  0  0  0  0  0  0  0  0  0  0
   54.1918   30.1027   53.8056 C   0  0  0  0  0  0  0  0  0  0  0  0
   52.9299   30.5093   53.5601 C   0  0  0  0  0  0  0  0  0  0  0  0
   55.2566   30.1439   52.9174 C   0  0  0  0  0  0  0  0  0  0  0  0
   56.3609   29.6674   53.5955 C   0  0  0  0  0  0  0  0  0  0  0  0
   56.0305   29.3495   54.8709 N   0  0  0  0  0  0  0  0  0  0  0  0
   56.9332   28.8289   55.9068 C   0  0  0  0  0  0  0  0  0  0  0  0
   52.3349   30.5708   52.2130 C   0  0  0  0  0  0  0  0  0  0  0  0
   52.6033   29.6767   51.2448 N   0  0  0  0  0  0  0  0  0  0  0  0
   51.9283   30.1565   50.1784 C   0  0  0  0  0  0  0  0  0  0  0  0
   51.9260   29.5770   49.0603 O   0  0  0  0  0  0  0  0  0  0  0  0
   51.2677   31.3121   50.3986 N   0  0  0  0  0  0  0  0  0  0  0  0
   51.5459   31.5700   51.6869 C   0  0  0  0  0  0  0  0  0  0  0  0
   51.1315   32.7203   52.3478 O   0  0  0  0  0  0  0  0  0  0  0  0
   61.4570   32.4103   48.4602 C   0  0  0  0  0  0  0  0  0  0  0  0
   60.7197   31.8734   47.3577 O   0  0  0  0  0  0  0  0  0  0  0  0
   59.8059   32.5944   46.5704 C   0  0  0  0  0  0  0  0  0  0  0  0
   60.0447   33.9162   46.1418 C   0  0  0  0  0  0  0  0  0  0  0  0
   59.0997   34.5838   45.3569 C   0  0  0  0  0  0  0  0  0  0  0  0
   57.9114   33.9431   44.9916 C   0  0  0  0  0  0  0  0  0  0  0  0
   57.6663   32.6349   45.4129 C   0  0  0  0  0  0  0  0  0  0  0  0
   58.6099   31.9634   46.1984 C   0  0  0  0  0  0  0  0  0  0  0  0
 11 12  2  0
 12 13  1  0
 13 14  2  0
 14 19  1  0
 19 20  1  0
 20 21  1  0
 21 22  2  0
 21 23  1  0
 23 24  1  0
 24 25  1  0
 13 15  1  0
 15 16  2  0
 16  1  1  0
  1  2  2  0
  1  3  1  0
  3  4  1  0
  4  5  1  0
  5  6  1  0
  6  7  1  0
  7  8  2  0
  7 26  1  0
 26 27  1  0
 27 28  1  0
 28 29  2  0
 29 30  1  0
 30 31  2  0
 31 32  1  0
 32 33  2  0
  6  9  1  0
  9 10  1  0
 16 17  1  0
 17 18  1  0
 17 12  1  0
 24 19  2  0
 10  3  1  0
 33 28  1  0
M  CHG 1  20  -1
M  CHG 1  23  -1
M  CHG 1  25  -1
M  END
> <UniqueID>
76

> <SMILES>
C=c1/c(=C/c2[n-]c(=O)[n-]c2[O-])cc(C(=O)N2CCN(C(=O)COc3ccccc3)CC2)n1C

> <Energy>
129.8810872032956

> <Genealogy>
C=c1c(=Cc2[n-]c(=O)[n-]c2[O-])cc(C(=O)N2CCN(C(=O)COc3ccccc3)CC2)n1C (protonated)
C=c1/c(=C/c2[n-]c(=O)[n-]c2[O-])cc(C(=O)N2CCN(C(=O)COc3ccccc3)CC2)n1C (cis-trans isomerization)
C=c1/c(=C/c2[n-]c(=O)[n-]c2[O-])cc(C(=O)N2CCN(C(=O)COc3ccccc3)CC2)n1C (3D coordinates assigned)
C=c1/c(=C/c2[n-]c(=O)[n-]c2[O-])cc(C(=O)N2CCN(C(=O)COc3ccccc3)CC2)n1C (nonaromatic ring conformer: 129.8810872032956 kcal/mol)

> <smiles>
C=c1c(=Cc2[nH]c(=O)[nH]c2O)cc(C(=O)N2CCN(C(=O)COc3ccccc3)CC2)n1C

> <score_type>
oracle

> <origin>
adg

> <m_score__min__energy>
-18.030000000000001

> <m_primary>
energy

> <minimizedAffinity>
-7.73859

> <minimizedRMSD>
0.75617

> <CNNscore>
0.1063115448

> <CNNaffinity>
5.2546563148

> <CNN_VS>
0.5586306453

> <CNNaffinity_variance>
0.6397097707

$$$$
80:0


 30 32  0  0  0  0  0  0  0  0999 V2000
   54.2125   27.6124   53.8389 C   0  0  0  0  0  0  0  0  0  0  0  0
   55.0276   28.6543   53.6109 C   0  0  0  0  0  0  0  0  0  0  0  0
   54.6448   29.9285   53.1695 C   0  0  0  0  0  0  0  0  0  0  0  0
   53.4293   30.5075   53.0619 C   0  0  0  0  0  0  0  0  0  0  0  0
   55.8125   30.5886   52.8378 C   0  0  0  0  0  0  0  0  0  0  0  0
   56.8573   29.7386   53.1365 C   0  0  0  0  0  0  0  0  0  0  0  0
   56.3862   28.5715   53.6425 N   0  0  0  0  0  0  0  0  0  0  0  0
   57.1931   27.4899   54.2123 C   0  0  0  0  0  0  0  0  0  0  0  0
   52.5878   30.5318   51.8573 C   0  0  0  0  0  0  0  0  0  0  0  0
   52.7642   29.7008   50.8180 N   0  0  0  0  0  0  0  0  0  0  0  0
   51.8885   30.1678   49.8928 C   0  0  0  0  0  0  0  0  0  0  0  0
   51.7504   29.6389   48.7582 O   0  0  0  0  0  0  0  0  0  0  0  0
   51.1886   31.2603   50.2701 N   0  0  0  0  0  0  0  0  0  0  0  0
   51.6529   31.4855   51.5114 C   0  0  0  0  0  0  0  0  0  0  0  0
   51.2614   32.5638   52.2897 O   0  0  0  0  0  0  0  0  0  0  0  0
   58.2777   30.1093   52.9060 C   0  0  0  0  0  0  0  0  0  0  0  0
   58.9487   30.4590   53.9069 O   0  0  0  0  0  0  0  0  0  0  0  0
   58.8855   30.0885   51.5800 N   0  0  0  0  0  0  0  0  0  0  0  0
   58.2136   31.0586   50.6604 C   0  0  0  0  0  0  0  0  0  0  0  0
   59.1427   32.1623   50.1319 C   0  0  0  0  0  0  0  0  0  0  0  0
   60.3665   31.5776   49.5692 N   0  0  0  0  0  0  0  0  0  0  0  0
   60.9994   32.1980   48.4280 C   0  0  0  0  0  0  0  0  0  0  0  0
   60.5818   33.3149   48.0117 O   0  0  0  0  0  0  0  0  0  0  0  0
   60.9761   30.4368   50.2638 C   0  0  0  0  0  0  0  0  0  0  0  0
   60.3606   30.2566   51.6549 C   0  0  0  0  0  0  0  0  0  0  0  0
   58.7433   29.9083   52.5373 H   0  0  0  0  0  0  0  0  0  0  0  0
   62.1435   31.5591   47.6831 C   0  0  0  0  0  0  0  0  0  0  0  0
   63.3720   32.3654   47.8461 N   0  0  0  0  0  0  0  0  0  0  0  0
   63.3316   33.5647   46.9930 C   0  0  0  0  0  0  0  0  0  0  0  0
   63.5435   32.7603   49.2519 C   0  0  0  0  0  0  0  0  0  0  0  0
  1  2  2  0
  2  3  1  0
  3  4  2  0
  4  9  1  0
  9 10  1  0
 10 11  1  0
 11 12  2  0
 11 13  1  0
 13 14  1  0
 14 15  1  0
  3  5  1  0
  5  6  2  0
  6 16  1  0
 16 17  2  0
 16 18  1  0
 18 19  1  0
 19 20  1  0
 20 21  1  0
 21 22  1  0
 22 23  2  0
 22 27  1  0
 27 28  1  0
 28 29  1  0
 28 30  1  0
 21 24  1  0
 24 25  1  0
  6  7  1  0
  7  8  1  0
  7  2  1  0
 14  9  2  0
 25 18  1  0
 18 26  1  0
M  CHG 1  10  -1
M  CHG 1  13  -1
M  CHG 1  15  -1
M  CHG 1  18   1
M  END
> <UniqueID>
77

> <SMILES>
C=c1c(=Cc2[n-]c(=O)[n-]c2[O-])cc(C(=O)[NH+]2CCN(C(=O)CN(C)C)CC2)n1C

> <Energy>
142.80927922616914

> <Genealogy>
C=c1c(=Cc2[n-]c(=O)[n-]c2[O-])cc(C(=O)[NH+]2CCN(C(=O)CN(C)C)CC2)n1C (protonated)
C=c1c(=Cc2[n-]c(=O)[n-]c2[O-])cc(C(=O)[NH+]2CCN(C(=O)CN(C)C)CC2)n1C (3D coordinates assigned)
C=c1c(=Cc2[n-]c(=O)[n-]c2[O-])cc(C(=O)[NH+]2CCN(C(=O)CN(C)C)CC2)n1C (nonaromatic ring conformer: 142.80927922616914 kcal/mol)

> <smiles>
C=c1c(=Cc2[nH]c(=O)[nH]c2O)cc(C(=O)N2CCN(C(=O)CN(C)C)CC2)n1C

> <score_type>
oracle

> <origin>
adg

> <m_score__min__energy>
-15.949999999999999

> <m_primary>
energy

> <minimizedAffinity>
-5.80803

> <minimizedRMSD>
0.93808

> <CNNscore>
0.0637843609

> <CNNaffinity>
4.5370488167

> <CNN_VS>
0.2893927693

> <CNNaffinity_variance>
0.6128739715

$$$$
85:0


 23 25  0  0  0  0  0  0  0  0999 V2000
   57.9925   26.5899   45.2399 C   0  0  0  0  0  0  0  0  0  0  0  0
   58.1187   28.0634   45.4404 C   0  0  0  0  0  0  0  0  0  0  0  0
   59.1703   28.6322   46.0646 N   0  0  0  0  0  0  0  0  0  0  0  0
   58.9205   29.9529   45.9842 C   0  0  0  0  0  0  0  0  0  0  0  0
   57.7340   30.1454   45.3022 C   0  0  0  0  0  0  0  0  0  0  0  0
   57.2286   28.9502   44.9512 N   0  0  0  0  0  0  0  0  0  0  0  0
   59.8163   30.9947   46.5445 C   0  0  0  0  0  0  0  0  0  0  0  0
   61.0004   30.6191   47.2073 C   0  0  0  0  0  0  0  0  0  0  0  0
   61.8532   31.5883   47.7415 C   0  0  0  0  0  0  0  0  0  0  0  0
   61.5369   32.9440   47.6220 C   0  0  0  0  0  0  0  0  0  0  0  0
   60.3661   33.3301   46.9677 C   0  0  0  0  0  0  0  0  0  0  0  0
   59.5081   32.3652   46.4313 C   0  0  0  0  0  0  0  0  0  0  0  0
   57.1709   26.0285   46.3040 N   0  0  0  0  0  0  0  0  0  0  0  0
   54.9017   25.6586   46.0003 O   0  0  0  0  0  0  0  0  0  0  0  0
   56.0530   25.1566   46.0991 C   0  0  0  0  0  0  0  0  0  0  0  0
   56.2060   23.6880   46.0289 C   0  0  0  0  0  0  0  0  0  0  0  0
   56.7920   22.9780   47.0854 C   0  0  0  0  0  0  0  0  0  0  0  0
   56.9488   21.6311   46.9983 N   0  0  0  0  0  0  0  0  0  0  0  0
   56.5518   20.9522   45.8933 C   0  0  0  0  0  0  0  0  0  0  0  0
   56.7017   19.7052   45.8337 O   0  0  0  0  0  0  0  0  0  0  0  0
   55.9966   21.6176   44.8478 N   0  0  0  0  0  0  0  0  0  0  0  0
   55.8201   22.9648   44.8872 C   0  0  0  0  0  0  0  0  0  0  0  0
   55.3014   23.5488   43.8988 O   0  0  0  0  0  0  0  0  0  0  0  0
 14 15  2  0
 15 13  1  0
 13  1  1  0
  1  2  1  0
  2  3  2  0
  3  4  1  0
  4  7  1  0
  7  8  2  0
  8  9  1  0
  9 10  2  0
 10 11  1  0
 11 12  2  0
  4  5  2  0
  5  6  1  0
 15 16  1  0
 16 17  2  0
 17 18  1  0
 18 19  1  0
 19 20  2  0
 19 21  1  0
 21 22  1  0
 22 23  2  0
  6  2  1  0
 22 16  1  0
 12  7  1  0
M  CHG 1   6  -1
M  CHG 1  13  -1
M  CHG 1  18  -1
M  CHG 1  21  -1
M  END
> <UniqueID>
82

> <SMILES>
O=C([N-]Cc1nc(-c2ccccc2)c[n-]1)c1c[n-]c(=O)[n-]c1=O

> <Energy>
68.76650649260077

> <Genealogy>
O=C([N-]Cc1nc(-c2ccccc2)c[n-]1)c1c[n-]c(=O)[n-]c1=O (protonated)
O=C([N-]Cc1nc(-c2ccccc2)c[n-]1)c1c[n-]c(=O)[n-]c1=O (3D coordinates assigned)
O=C([N-]Cc1nc(-c2ccccc2)c[n-]1)c1c[n-]c(=O)[n-]c1=O (optimized conformer: 68.76650649260077 kcal/mol)

> <smiles>
O=C(NCc1nc(-c2ccccc2)c[nH]1)c1c[nH]c(=O)[nH]c1=O

> <score_type>
oracle

> <origin>
adg

> <m_score__min__energy>
-15.630000000000001

> <m_primary>
energy

> <minimizedAffinity>
-7.44202

> <minimizedRMSD>
2.25461

> <CNNscore>
0.1059788913

> <CNNaffinity>
5.4508919716

> <CNN_VS>
0.5776795149

> <CNNaffinity_variance>
0.6121738553

$$$$
0:0


 29 31  0  0  0  0  0  0  0  0999 V2000
   59.1324   30.3010   48.1424 C   0  0  0  0  0  0  0  0  0  0  0  0
   58.8860   30.2316   46.8259 C   0  0  0  0  0  0  0  0  0  0  0  0
   58.8322   29.0709   46.0338 C   0  0  0  0  0  0  0  0  0  0  0  0
   59.1416   27.7892   46.3124 C   0  0  0  0  0  0  0  0  0  0  0  0
   58.4054   29.4767   44.7810 C   0  0  0  0  0  0  0  0  0  0  0  0
   58.2721   30.8478   44.8274 C   0  0  0  0  0  0  0  0  0  0  0  0
   57.8866   31.7058   43.6592 C   0  0  0  0  0  0  0  0  0  0  0  0
   58.5588   31.3090   46.0647 N   0  0  0  0  0  0  0  0  0  0  0  0
   58.4513   32.6854   46.4745 C   0  0  0  0  0  0  0  0  0  0  0  0
   57.5432   33.0130   47.2895 O   0  0  0  0  0  0  0  0  0  0  0  0
   58.1790   26.7136   46.5978 C   0  0  0  0  0  0  0  0  0  0  0  0
   58.4821   25.5574   47.2164 N   0  0  0  0  0  0  0  0  0  0  0  0
   57.3411   24.8415   47.1177 C   0  0  0  0  0  0  0  0  0  0  0  0
   57.2225   23.6865   47.6009 O   0  0  0  0  0  0  0  0  0  0  0  0
   56.3414   25.4576   46.4501 N   0  0  0  0  0  0  0  0  0  0  0  0
   56.8958   26.6349   46.1162 C   0  0  0  0  0  0  0  0  0  0  0  0
   56.2418   27.6138   45.3792 O   0  0  0  0  0  0  0  0  0  0  0  0
   59.4489   33.6535   46.0707 N   0  0  0  0  0  0  0  0  0  0  0  0
   58.9142   34.5219   45.0036 C   0  0  0  0  0  0  0  0  0  0  0  0
   59.4729   33.3156   45.1463 H   0  0  0  0  0  0  0  0  0  0  0  0
   59.8754   34.4370   47.2508 C   0  0  0  0  0  0  0  0  0  0  0  0
   61.1007   33.8442   47.9074 C   0  0  0  0  0  0  0  0  0  0  0  0
   62.1089   33.2513   47.1323 C   0  0  0  0  0  0  0  0  0  0  0  0
   63.2299   32.6836   47.7451 C   0  0  0  0  0  0  0  0  0  0  0  0
   63.3574   32.6996   49.1481 C   0  0  0  0  0  0  0  0  0  0  0  0
   62.3463   33.2880   49.9176 C   0  0  0  0  0  0  0  0  0  0  0  0
   61.2252   33.8547   49.3049 C   0  0  0  0  0  0  0  0  0  0  0  0
   64.4613   32.1437   49.8110 O   0  0  0  0  0  0  0  0  0  0  0  0
   64.3996   31.5208   51.0891 C   0  0  0  0  0  0  0  0  0  0  0  0
  1  2  2  0
  2  3  1  0
  3  4  2  0
  4 11  1  0
 11 12  1  0
 12 13  1  0
 13 14  2  0
 13 15  1  0
 15 16  1  0
 16 17  1  0
  3  5  1  0
  5  6  2  0
  6  7  1  0
  6  8  1  0
  8  9  1  0
  9 10  2  0
  9 18  1  0
 18 19  1  0
 18 21  1  0
 21 22  1  0
 22 23  2  0
 23 24  1  0
 24 25  2  0
 25 28  1  0
 28 29  1  0
 25 26  1  0
 26 27  2  0
  8  2  1  0
 27 22  1  0
 16 11  2  0
 18 20  1  0
M  CHG 1  12  -1
M  CHG 1  15  -1
M  CHG 1  17  -1
M  CHG 1  18   1
M  END
> <UniqueID>
1

> <SMILES>
C=c1/c(=C\c2[n-]c(=O)[n-]c2[O-])cc(C)n1C(=O)[N@@H+](C)Cc1ccc(OC)cc1

> <Energy>
125.7163221236703

> <Genealogy>
C=c1c(=Cc2[n-]c(=O)[n-]c2[O-])cc(C)n1C(=O)[NH+](C)Cc1ccc(OC)cc1 (protonated)
C=c1c(=Cc2[n-]c(=O)[n-]c2[O-])cc(C)n1C(=O)[N@@H+](C)Cc1ccc(OC)cc1 (chirality)
C=c1/c(=C\c2[n-]c(=O)[n-]c2[O-])cc(C)n1C(=O)[N@@H+](C)Cc1ccc(OC)cc1 (cis-trans isomerization)
C=c1/c(=C\c2[n-]c(=O)[n-]c2[O-])cc(C)n1C(=O)[N@@H+](C)Cc1ccc(OC)cc1 (3D coordinates assigned)
C=c1/c(=C\c2[n-]c(=O)[n-]c2[O-])cc(C)n1C(=O)[N@@H+](C)Cc1ccc(OC)cc1 (optimized conformer: 125.7163221236703 kcal/mol)

> <smiles>
C=c1c(=Cc2[nH]c(=O)[nH]c2O)cc(C)n1C(=O)N(C)Cc1ccc(OC)cc1

> <score_type>
oracle

> <origin>
adg

> <m_score__min__energy>
-14.550000000000001

> <m_primary>
energy

> <minimizedAffinity>
-8.14133

> <minimizedRMSD>
0.90382

> <CNNscore>
0.3475245833

> <CNNaffinity>
6.7266845703

> <CNN_VS>
2.3376882076

> <CNNaffinity_variance>
0.0595872886

$$$$
15:0


 31 34  0  0  0  0  0  0  0  0999 V2000
   59.2989   31.2427   46.7262 C   0  0  0  0  0  0  0  0  0  0  0  0
   58.6856   32.2542   45.9738 C   0  0  0  0  0  0  0  0  0  0  0  0
   59.1722   33.5619   46.0155 C   0  0  0  0  0  0  0  0  0  0  0  0
   60.2677   33.8773   46.8221 C   0  0  0  0  0  0  0  0  0  0  0  0
   60.8789   32.8862   47.6043 C   0  0  0  0  0  0  0  0  0  0  0  0
   60.3850   31.5719   47.5582 C   0  0  0  0  0  0  0  0  0  0  0  0
   62.0000   33.2192   48.4442 N   0  0  0  0  0  0  0  0  0  0  0  0
   63.3684   33.0900   47.9277 C   0  0  0  0  0  0  0  0  0  0  0  0
   64.2902   32.5574   49.0234 C   0  0  0  0  0  0  0  0  0  0  0  0
   64.1014   33.3331   50.2549 N   0  0  0  0  0  0  0  0  0  0  0  0
   62.7365   33.4713   50.7761 C   0  0  0  0  0  0  0  0  0  0  0  0
   61.8026   33.9873   49.6790 C   0  0  0  0  0  0  0  0  0  0  0  0
   65.2347   33.6638   51.0781 C   0  0  0  0  0  0  0  0  0  0  0  0
   65.0744   34.4979   52.1986 C   0  0  0  0  0  0  0  0  0  0  0  0
   66.1720   34.8201   53.0028 C   0  0  0  0  0  0  0  0  0  0  0  0
   67.4366   34.3130   52.6963 C   0  0  0  0  0  0  0  0  0  0  0  0
   67.6067   33.4806   51.5868 C   0  0  0  0  0  0  0  0  0  0  0  0
   66.5112   33.1543   50.7809 C   0  0  0  0  0  0  0  0  0  0  0  0
   60.3461   29.0380   45.1856 O   0  0  0  0  0  0  0  0  0  0  0  0
   59.3318   28.8364   45.9090 C   0  0  0  0  0  0  0  0  0  0  0  0
   58.7631   29.9103   46.6807 N   0  0  0  0  0  0  0  0  0  0  0  0
   57.9558   29.7197   47.2110 H   0  0  0  0  0  0  0  0  0  0  0  0
   58.7313   27.4841   45.9436 C   0  0  0  0  0  0  0  0  0  0  0  0
   57.3778   27.2754   45.6248 C   0  0  0  0  0  0  0  0  0  0  0  0
   56.5628   28.3317   45.2370 O   0  0  0  0  0  0  0  0  0  0  0  0
   56.8568   26.0217   45.6652 N   0  0  0  0  0  0  0  0  0  0  0  0
   57.6234   24.9522   45.9982 C   0  0  0  0  0  0  0  0  0  0  0  0
   57.1168   23.8020   46.0285 O   0  0  0  0  0  0  0  0  0  0  0  0
   58.9368   25.1238   46.2943 N   0  0  0  0  0  0  0  0  0  0  0  0
   59.5074   26.3565   46.2724 C   0  0  0  0  0  0  0  0  0  0  0  0
   60.7276   26.4752   46.5629 O   0  0  0  0  0  0  0  0  0  0  0  0
 19 20  2  0
 20 21  1  0
 21  1  1  0
  1  2  2  0
  2  3  1  0
  3  4  2  0
  4  5  1  0
  5  7  1  0
  7  8  1  0
  8  9  1  0
  9 10  1  0
 10 13  1  0
 13 14  2  0
 14 15  1  0
 15 16  2  0
 16 17  1  0
 17 18  2  0
 10 11  1  0
 11 12  1  0
  5  6  2  0
 20 23  1  0
 23 24  2  0
 24 25  1  0
 24 26  1  0
 26 27  1  0
 27 28  2  0
 27 29  1  0
 29 30  1  0
 30 31  2  0
  6  1  1  0
 30 23  1  0
 12  7  1  0
 18 13  1  0
 21 22  1  0
M  CHG 1  25  -1
M  CHG 1  26  -1
M  CHG 1  29  -1
M  END
> <UniqueID>
16

> <SMILES>
O=C(Nc1cccc(N2CCN(c3ccccc3)CC2)c1)c1c([O-])[n-]c(=O)[n-]c1=O

> <Energy>
70.25262436731428

> <Genealogy>
O=C(Nc1cccc(N2CCN(c3ccccc3)CC2)c1)c1c([O-])[n-]c(=O)[n-]c1=O (protonated)
O=C(Nc1cccc(N2CCN(c3ccccc3)CC2)c1)c1c([O-])[n-]c(=O)[n-]c1=O (3D coordinates assigned)
O=C(Nc1cccc(N2CCN(c3ccccc3)CC2)c1)c1c([O-])[n-]c(=O)[n-]c1=O (nonaromatic ring conformer: 70.25262436731428 kcal/mol)

> <smiles>
O=C(Nc1cccc(N2CCN(c3ccccc3)CC2)c1)c1c(O)[nH]c(=O)[nH]c1=O

> <score_type>
oracle

> <origin>
adg

> <m_score__min__energy>
-15.76

> <m_primary>
energy

> <minimizedAffinity>
-7.88429

> <minimizedRMSD>
1.32799

> <CNNscore>
0.1814101189

> <CNNaffinity>
6.1865038872

> <CNN_VS>
1.1222944260

> <CNNaffinity_variance>
0.0238754004

$$$$
21:0


 38 41  0  0  0  0  0  0  0  0999 V2000
   60.6461   29.7862   46.5540 C   0  0  0  0  0  0  0  0  0  0  0  0
   60.1049   30.3526   47.8437 C   0  0  0  0  0  0  0  0  0  0  0  0
   60.4591   29.7348   49.0530 C   0  0  0  0  0  0  0  0  0  0  0  0
   59.9421   30.2131   50.2625 C   0  0  0  0  0  0  0  0  0  0  0  0
   59.1021   31.2778   50.2484 N   0  0  0  0  0  0  0  0  0  0  0  0
   58.7528   31.9334   49.1119 C   0  0  0  0  0  0  0  0  0  0  0  0
   58.0087   32.9918   49.2256 N   0  0  0  0  0  0  0  0  0  0  0  0
   59.2453   31.4799   47.8596 C   0  0  0  0  0  0  0  0  0  0  0  0
   57.6867   33.2742   50.1121 H   0  0  0  0  0  0  0  0  0  0  0  0
   60.2835   29.5639   51.5503 C   0  0  0  0  0  0  0  0  0  0  0  0
   61.4104   29.0147   51.6936 O   0  0  0  0  0  0  0  0  0  0  0  0
   59.3341   29.5131   52.6318 N   0  0  0  0  0  0  0  0  0  0  0  0
   58.8801   30.7402   53.2910 C   0  0  0  0  0  0  0  0  0  0  0  0
   57.3670   30.6762   53.4594 C   0  0  0  0  0  0  0  0  0  0  0  0
   56.9694   29.4403   54.1483 N   0  0  0  0  0  0  0  0  0  0  0  0
   57.7253   28.2224   53.9580 C   0  0  0  0  0  0  0  0  0  0  0  0
   57.2714   27.1222   54.3744 O   0  0  0  0  0  0  0  0  0  0  0  0
   59.0861   28.2423   53.3142 C   0  0  0  0  0  0  0  0  0  0  0  0
   55.7079   29.4207   54.9007 C   0  0  0  0  0  0  0  0  0  0  0  0
   54.5665   29.8387   54.0142 C   0  0  0  0  0  0  0  0  0  0  0  0
   54.7481   29.9175   52.6225 C   0  0  0  0  0  0  0  0  0  0  0  0
   53.6911   30.3095   51.7930 C   0  0  0  0  0  0  0  0  0  0  0  0
   52.4503   30.6342   52.3460 C   0  0  0  0  0  0  0  0  0  0  0  0
   51.4282   31.0105   51.5330 F   0  0  0  0  0  0  0  0  0  0  0  0
   52.2635   30.5682   53.7322 C   0  0  0  0  0  0  0  0  0  0  0  0
   51.0280   30.8909   54.2833 O   0  0  0  0  0  0  0  0  0  0  0  0
   53.3183   30.1748   54.5643 C   0  0  0  0  0  0  0  0  0  0  0  0
   58.8698   32.1521   46.5923 C   0  0  0  0  0  0  0  0  0  0  0  0
   57.8014   31.8341   46.0028 O   0  0  0  0  0  0  0  0  0  0  0  0
   59.7099   33.1759   46.0470 N   0  0  0  0  0  0  0  0  0  0  0  0
   60.1965   34.2974   46.8375 C   0  0  0  0  0  0  0  0  0  0  0  0
   61.4303   33.8808   47.5834 C   0  0  0  0  0  0  0  0  0  0  0  0
   61.5208   34.0635   48.9729 C   0  0  0  0  0  0  0  0  0  0  0  0
   62.6565   33.6353   49.6677 C   0  0  0  0  0  0  0  0  0  0  0  0
   63.7066   33.0148   48.9815 C   0  0  0  0  0  0  0  0  0  0  0  0
   64.8110   32.6082   49.6549 F   0  0  0  0  0  0  0  0  0  0  0  0
   63.6170   32.8161   47.6002 C   0  0  0  0  0  0  0  0  0  0  0  0
   62.4830   33.2450   46.9022 C   0  0  0  0  0  0  0  0  0  0  0  0
  1  2  1  0
  2  3  1  0
  3  4  2  0
  4 10  1  0
 10 11  2  0
 10 12  1  0
 12 13  1  0
 13 14  1  0
 14 15  1  0
 15 19  1  0
 19 20  1  0
 20 21  2  0
 21 22  1  0
 22 23  2  0
 23 24  1  0
 23 25  1  0
 25 26  1  0
 25 27  2  0
 15 16  1  0
 16 17  2  0
 16 18  1  0
  4  5  1  0
  5  6  1  0
  6  7  2  0
  6  8  1  0
  8 28  1  0
 28 29  2  0
 28 30  1  0
 30 31  1  0
 31 32  1  0
 32 33  2  0
 33 34  1  0
 34 35  2  0
 35 36  1  0
 35 37  1  0
 37 38  2  0
  8  2  2  0
 38 32  1  0
 18 12  1  0
 27 20  1  0
  7  9  1  0
M  CHG 1   5  -1
M  CHG 1  26  -1
M  CHG 1  30  -1
M  END
> <UniqueID>
21

> <SMILES>
Cc1cc(C(=O)N2CCN(Cc3ccc(F)c([O-])c3)C(=O)C2)[n-]c(=N)c1C(=O)[N-]Cc1ccc(F)cc1

> <Energy>
71.80639167565836

> <Genealogy>
Cc1cc(C(=O)N2CCN(Cc3ccc(F)c([O-])c3)C(=O)C2)[n-]c(=N)c1C(=O)[N-]Cc1ccc(F)cc1 (protonated)
Cc1cc(C(=O)N2CCN(Cc3ccc(F)c([O-])c3)C(=O)C2)[n-]c(=N)c1C(=O)[N-]Cc1ccc(F)cc1 (3D coordinates assigned)
Cc1cc(C(=O)N2CCN(Cc3ccc(F)c([O-])c3)C(=O)C2)[n-]c(=N)c1C(=O)[N-]Cc1ccc(F)cc1 (nonaromatic ring conformer: 71.80639167565836 kcal/mol)

> <smiles>
Cc1cc(C(=O)N2CCN(Cc3ccc(F)c(O)c3)C(=O)C2)[nH]c(=N)c1C(=O)NCc1ccc(F)cc1

> <score_type>
oracle

> <origin>
adg

> <m_score__min__energy>
-15.08

> <m_primary>
energy

> <minimizedAffinity>
-7.37452

> <minimizedRMSD>
1.82783

> <CNNscore>
0.0643200129

> <CNNaffinity>
5.5578632355

> <CNN_VS>
0.3574818373

> <CNNaffinity_variance>
0.7174243927

$$$$
37:0


 31 33  0  0  0  0  0  0  0  0999 V2000
   58.9679   32.9808   45.8527 C   0  0  0  0  0  0  0  0  0  0  0  0
   58.4941   33.3793   44.5937 C   0  0  0  0  0  0  0  0  0  0  0  0
   57.8018   32.5108   43.8133 N   0  0  0  0  0  0  0  0  0  0  0  0
   57.5454   31.2343   44.2050 C   0  0  0  0  0  0  0  0  0  0  0  0
   56.8612   30.4877   43.4577 O   0  0  0  0  0  0  0  0  0  0  0  0
   58.0150   30.7747   45.4505 C   0  0  0  0  0  0  0  0  0  0  0  0
   58.6976   31.6705   46.2831 C   0  0  0  0  0  0  0  0  0  0  0  0
   57.7529   29.4404   45.9175 N   0  0  0  0  0  0  0  0  0  0  0  0
   58.4580   28.2834   45.4376 C   0  0  0  0  0  0  0  0  0  0  0  0
   59.4844   28.4184   44.7177 O   0  0  0  0  0  0  0  0  0  0  0  0
   57.0553   29.3128   46.6004 H   0  0  0  0  0  0  0  0  0  0  0  0
   58.0153   26.9320   45.8216 C   0  0  0  0  0  0  0  0  0  0  0  0
   58.8432   25.8311   45.9650 C   0  0  0  0  0  0  0  0  0  0  0  0
   58.0303   24.7832   46.3329 C   0  0  0  0  0  0  0  0  0  0  0  0
   56.7560   25.3025   46.3896 C   0  0  0  0  0  0  0  0  0  0  0  0
   55.6218   24.5769   46.7223 O   0  0  0  0  0  0  0  0  0  0  0  0
   56.7303   26.6139   46.0809 N   0  0  0  0  0  0  0  0  0  0  0  0
   59.6814   33.9546   46.7137 C   0  0  0  0  0  0  0  0  0  0  0  0
   60.0541   35.0450   46.2065 O   0  0  0  0  0  0  0  0  0  0  0  0
   60.9436   32.7006   48.5224 N   0  0  0  0  0  0  0  0  0  0  0  0
   59.9745   33.6903   48.1433 C   0  0  0  0  0  0  0  0  0  0  0  0
   59.3735   34.3357   49.0439 O   0  0  0  0  0  0  0  0  0  0  0  0
   60.4920   31.3488   48.6995 C   0  0  0  0  0  0  0  0  0  0  0  0
   61.0075   30.3141   47.9042 C   0  0  0  0  0  0  0  0  0  0  0  0
   60.5317   29.0085   48.0547 C   0  0  0  0  0  0  0  0  0  0  0  0
   59.5320   28.7333   48.9925 C   0  0  0  0  0  0  0  0  0  0  0  0
   59.0111   29.7611   49.7832 C   0  0  0  0  0  0  0  0  0  0  0  0
   59.4878   31.0669   49.6347 C   0  0  0  0  0  0  0  0  0  0  0  0
   62.6149   34.1852   49.5927 C   0  0  0  0  0  0  0  0  0  0  0  0
   62.3773   33.0445   48.5997 C   0  0  0  0  0  0  0  0  0  0  0  0
   62.9326   33.3949   47.2167 C   0  0  0  0  0  0  0  0  0  0  0  0
 29 30  1  0
 30 31  1  0
 30 20  1  0
 20 21  1  0
 21 22  2  0
 21 18  1  0
 18 19  2  0
 18  1  1  0
  1  2  2  0
  2  3  1  0
  3  4  1  0
  4  5  2  0
  4  6  1  0
  6  8  1  0
  8  9  1  0
  9 10  2  0
  9 12  1  0
 12 13  2  0
 13 14  1  0
 14 15  2  0
 15 16  1  0
 15 17  1  0
  6  7  2  0
 20 23  1  0
 23 24  2  0
 24 25  1  0
 25 26  2  0
 26 27  1  0
 27 28  2  0
  7  1  1  0
 28 23  1  0
 17 12  1  0
  8 11  1  0
M  CHG 1   3  -1
M  CHG 1  16  -1
M  CHG 1  17  -1
M  END
> <UniqueID>
36

> <SMILES>
CC(C)N(C(=O)C(=O)c1c[n-]c(=O)c(NC(=O)c2ccc([O-])[n-]2)c1)c1ccccc1

> <Energy>
92.0441690749534

> <Genealogy>
CC(C)N(C(=O)C(=O)c1c[n-]c(=O)c(NC(=O)c2ccc([O-])[n-]2)c1)c1ccccc1 (protonated)
CC(C)N(C(=O)C(=O)c1c[n-]c(=O)c(NC(=O)c2ccc([O-])[n-]2)c1)c1ccccc1 (3D coordinates assigned)
CC(C)N(C(=O)C(=O)c1c[n-]c(=O)c(NC(=O)c2ccc([O-])[n-]2)c1)c1ccccc1 (optimized conformer: 92.0441690749534 kcal/mol)

> <smiles>
CC(C)N(C(=O)C(=O)c1c[nH]c(=O)c(NC(=O)c2ccc(O)[nH]2)c1)c1ccccc1

> <score_type>
oracle

> <origin>
adg

> <m_score__min__energy>
-14.789999999999999

> <m_primary>
energy

> <minimizedAffinity>
-8.72554

> <minimizedRMSD>
1.08722

> <CNNscore>
0.8782130480

> <CNNaffinity>
7.2931056023

> <CNN_VS>
6.4049005508

> <CNNaffinity_variance>
0.0408300795

$$$$
46:0


 24 26  0  0  0  0  0  0  0  0999 V2000
   58.6342   31.6066   45.2196 N   0  0  0  0  0  0  0  0  0  0  0  0
   58.2505   32.7650   44.6022 C   0  0  0  0  0  0  0  0  0  0  0  0
   58.3974   33.9979   45.2249 C   0  0  0  0  0  0  0  0  0  0  0  0
   58.9526   34.0714   46.4962 C   0  0  0  0  0  0  0  0  0  0  0  0
   59.0703   35.2041   47.0384 O   0  0  0  0  0  0  0  0  0  0  0  0
   59.3740   32.8944   47.1480 C   0  0  0  0  0  0  0  0  0  0  0  0
   59.9570   32.9248   48.4401 C   0  0  0  0  0  0  0  0  0  0  0  0
   60.1306   34.1191   49.1328 O   0  0  0  0  0  0  0  0  0  0  0  0
   60.3748   31.7422   49.0498 C   0  0  0  0  0  0  0  0  0  0  0  0
   60.2284   30.5229   48.3995 C   0  0  0  0  0  0  0  0  0  0  0  0
   60.6562   29.3545   49.0167 O   0  0  0  0  0  0  0  0  0  0  0  0
   59.6565   30.4687   47.1291 C   0  0  0  0  0  0  0  0  0  0  0  0
   59.2117   31.6441   46.4785 C   0  0  0  0  0  0  0  0  0  0  0  0
   58.4372   30.3473   44.4716 C   0  0  0  0  0  0  0  0  0  0  0  0
   57.0469   29.8276   44.6710 C   0  0  0  0  0  0  0  0  0  0  0  0
   56.0829   30.6369   44.7495 O   0  0  0  0  0  0  0  0  0  0  0  0
   59.8088   26.9392   46.1364 C   0  0  0  0  0  0  0  0  0  0  0  0
   58.9347   27.7583   45.4955 N   0  0  0  0  0  0  0  0  0  0  0  0
   57.5871   27.5661   45.5260 C   0  0  0  0  0  0  0  0  0  0  0  0
   56.8423   28.4235   44.8835 N   0  0  0  0  0  0  0  0  0  0  0  0
   57.0781   26.4346   46.2161 C   0  0  0  0  0  0  0  0  0  0  0  0
   55.7305   26.0922   46.1985 O   0  0  0  0  0  0  0  0  0  0  0  0
   57.9658   25.5946   46.8934 C   0  0  0  0  0  0  0  0  0  0  0  0
   59.3362   25.8466   46.8602 C   0  0  0  0  0  0  0  0  0  0  0  0
 17 18  1  0
 18 19  1  0
 19 20  2  0
 20 15  1  0
 15 16  2  0
 15 14  1  0
 14  1  1  0
  1  2  1  0
  2  3  2  0
  3  4  1  0
  4  5  2  0
  4  6  1  0
  6  7  2  0
  7  8  1  0
  7  9  1  0
  9 10  2  0
 10 11  1  0
 10 12  1  0
 12 13  2  0
 19 21  1  0
 21 22  1  0
 21 23  2  0
 23 24  1  0
 24 17  2  0
 13  1  1  0
 13  6  1  0
M  CHG 1   8  -1
M  CHG 1  11  -1
M  CHG 1  18  -1
M  CHG 1  22  -1
M  END
> <UniqueID>
45

> <SMILES>
O=C(Cn1ccc(=O)c2c([O-])cc([O-])cc21)/N=c1/[n-]cccc1[O-]

> <Energy>
59.28282184970102

> <Genealogy>
O=C(Cn1ccc(=O)c2c([O-])cc([O-])cc21)N=c1[n-]cccc1[O-] (protonated)
O=C(Cn1ccc(=O)c2c([O-])cc([O-])cc21)/N=c1/[n-]cccc1[O-] (cis-trans isomerization)
O=C(Cn1ccc(=O)c2c([O-])cc([O-])cc21)/N=c1/[n-]cccc1[O-] (3D coordinates assigned)
O=C(Cn1ccc(=O)c2c([O-])cc([O-])cc21)/N=c1/[n-]cccc1[O-] (optimized conformer: 59.28282184970102 kcal/mol)

> <smiles>
O=C(Cn1ccc(=O)c2c(O)cc(O)cc21)N=c1[nH]cccc1O

> <score_type>
oracle

> <origin>
adg

> <m_score__min__energy>
-16.34

> <m_primary>
energy

> <minimizedAffinity>
-7.93096

> <minimizedRMSD>
0.83429

> <CNNscore>
0.7612019777

> <CNNaffinity>
6.5554809570

> <CNN_VS>
4.9900450706

> <CNNaffinity_variance>
0.0441747494

$$$$
48:0


 33 36  0  0  0  0  0  0  0  0999 V2000
   57.8339   27.8056   45.7914 C   0  0  0  0  0  0  0  0  0  0  0  0
   57.0241   26.6547   45.8113 C   0  0  0  0  0  0  0  0  0  0  0  0
   57.5392   25.4060   46.2042 C   0  0  0  0  0  0  0  0  0  0  0  0
   58.8800   25.3227   46.6029 C   0  0  0  0  0  0  0  0  0  0  0  0
   59.7015   26.4503   46.5715 C   0  0  0  0  0  0  0  0  0  0  0  0
   59.2036   27.6897   46.1451 C   0  0  0  0  0  0  0  0  0  0  0  0
   56.6835   24.1932   46.2391 C   0  0  0  0  0  0  0  0  0  0  0  0
   55.3149   24.2458   45.9153 C   0  0  0  0  0  0  0  0  0  0  0  0
   54.5387   23.0761   45.9569 C   0  0  0  0  0  0  0  0  0  0  0  0
   55.1513   21.8668   46.3187 C   0  0  0  0  0  0  0  0  0  0  0  0
   56.5132   21.8480   46.6210 C   0  0  0  0  0  0  0  0  0  0  0  0
   57.2381   22.9951   46.5735 N   0  0  0  0  0  0  0  0  0  0  0  0
   53.0985   23.1158   45.6209 C   0  0  0  0  0  0  0  0  0  0  0  0
   52.2165   22.1625   45.9837 N   0  0  0  0  0  0  0  0  0  0  0  0
   51.0380   22.5302   45.5145 N   0  0  0  0  0  0  0  0  0  0  0  0
   51.2404   23.6963   44.8791 C   0  0  0  0  0  0  0  0  0  0  0  0
   50.3218   24.3386   44.3053 O   0  0  0  0  0  0  0  0  0  0  0  0
   52.5184   24.1107   44.9152 N   0  0  0  0  0  0  0  0  0  0  0  0
   55.9451   29.1475   44.7916 N   0  0  0  0  0  0  0  0  0  0  0  0
   57.2009   29.1075   45.4673 C   0  0  0  0  0  0  0  0  0  0  0  0
   57.7461   30.1900   45.8124 O   0  0  0  0  0  0  0  0  0  0  0  0
   55.5282   30.0134   44.5782 H   0  0  0  0  0  0  0  0  0  0  0  0
   60.1542   28.8172   46.0400 C   0  0  0  0  0  0  0  0  0  0  0  0
   60.7504   29.0249   44.9473 O   0  0  0  0  0  0  0  0  0  0  0  0
   60.3594   29.7039   47.1511 N   0  0  0  0  0  0  0  0  0  0  0  0
   59.8459   29.5540   47.9776 H   0  0  0  0  0  0  0  0  0  0  0  0
   61.3013   30.8202   47.1015 C   0  0  0  0  0  0  0  0  0  0  0  0
   60.5606   32.1286   47.1485 C   0  0  0  0  0  0  0  0  0  0  0  0
   60.7159   33.0001   48.2399 C   0  0  0  0  0  0  0  0  0  0  0  0
   60.0385   34.2240   48.2651 C   0  0  0  0  0  0  0  0  0  0  0  0
   59.2077   34.5874   47.2013 C   0  0  0  0  0  0  0  0  0  0  0  0
   59.0525   33.7282   46.1104 C   0  0  0  0  0  0  0  0  0  0  0  0
   59.7273   32.5025   46.0822 C   0  0  0  0  0  0  0  0  0  0  0  0
 19 20  1  0
 20 21  2  0
 20  1  1  0
  1  2  2  0
  2  3  1  0
  3  7  1  0
  7  8  2  0
  8  9  1  0
  9 13  1  0
 13 14  2  0
 14 15  1  0
 15 16  1  0
 16 17  2  0
 16 18  1  0
  9 10  2  0
 10 11  1  0
 11 12  2  0
  3  4  2  0
  4  5  1  0
  5  6  2  0
  6 23  1  0
 23 24  2  0
 23 25  1  0
 25 27  1  0
 27 28  1  0
 28 29  2  0
 29 30  1  0
 30 31  2  0
 31 32  1  0
 32 33  2  0
  6  1  1  0
 33 28  1  0
 12  7  1  0
 18 13  1  0
 19 22  1  0
 25 26  1  0
M  CHG 1  15  -1
M  CHG 1  18  -1
M  CHG 1  19  -1
M  END
> <UniqueID>
47

> <SMILES>
[NH-]C(=O)c1cc(-c2cc(-c3n[n-]c(=O)[n-]3)ccn2)ccc1C(=O)NCc1ccccc1

> <Energy>
95.19151815587482

> <Genealogy>
[NH-]C(=O)c1cc(-c2cc(-c3n[n-]c(=O)[n-]3)ccn2)ccc1C(=O)NCc1ccccc1 (protonated)
[NH-]C(=O)c1cc(-c2cc(-c3n[n-]c(=O)[n-]3)ccn2)ccc1C(=O)NCc1ccccc1 (3D coordinates assigned)
[NH-]C(=O)c1cc(-c2cc(-c3n[n-]c(=O)[n-]3)ccn2)ccc1C(=O)NCc1ccccc1 (optimized conformer: 95.19151815587482 kcal/mol)

> <smiles>
NC(=O)c1cc(-c2cc(-c3n[nH]c(=O)[nH]3)ccn2)ccc1C(=O)NCc1ccccc1

> <score_type>
oracle

> <origin>
adg

> <m_score__min__energy>
-15.31

> <m_primary>
energy

> <minimizedAffinity>
-9.11843

> <minimizedRMSD>
0.96860

> <CNNscore>
0.2167993188

> <CNNaffinity>
6.5711503029

> <CNN_VS>
1.4246208668

> <CNNaffinity_variance>
0.0838753805

$$$$
66:0


 27 29  0  0  0  0  0  0  0  0999 V2000
   56.7531   30.4507   52.1442 C   0  0  0  0  0  0  0  0  0  0  0  0
   57.3182   29.3646   52.8212 C   0  0  0  0  0  0  0  0  0  0  0  0
   58.7062   29.2325   52.9083 C   0  0  0  0  0  0  0  0  0  0  0  0
   59.5389   30.1768   52.3042 C   0  0  0  0  0  0  0  0  0  0  0  0
   58.9850   31.2508   51.5946 C   0  0  0  0  0  0  0  0  0  0  0  0
   57.5917   31.3785   51.5053 C   0  0  0  0  0  0  0  0  0  0  0  0
   60.0286   32.4585   50.8468 S   0  0  0  0  0  0  0  0  0  0  0  0
   59.3098   33.7764   50.7779 O   0  0  0  0  0  0  0  0  0  0  0  0
   61.2485   32.6311   51.7079 O   0  0  0  0  0  0  0  0  0  0  0  0
   60.5154   31.9395   49.2472 N   0  0  0  0  0  0  0  0  0  0  0  0
   59.3595   31.5763   48.4014 C   0  0  0  0  0  0  0  0  0  0  0  0
   58.5828   32.8015   47.8803 C   0  0  0  0  0  0  0  0  0  0  0  0
   59.4945   33.9814   47.5045 C   0  0  0  0  0  0  0  0  0  0  0  0
   60.9449   33.5426   47.3270 C   0  0  0  0  0  0  0  0  0  0  0  0
   61.4682   32.8888   48.6182 C   0  0  0  0  0  0  0  0  0  0  0  0
   55.3258   30.5511   52.0621 N   0  0  0  0  0  0  0  0  0  0  0  0
   54.6207   30.3184   54.2581 O   0  0  0  0  0  0  0  0  0  0  0  0
   54.3753   30.1072   53.0412 C   0  0  0  0  0  0  0  0  0  0  0  0
   53.0687   29.4472   52.6705 C   0  0  0  0  0  0  0  0  0  0  0  0
   52.3764   30.1472   51.5254 C   0  0  0  0  0  0  0  0  0  0  0  0
   52.2633   29.5230   50.2756 C   0  0  0  0  0  0  0  0  0  0  0  0
   51.6469   30.1578   49.2466 N   0  0  0  0  0  0  0  0  0  0  0  0
   51.1196   31.3979   49.4074 C   0  0  0  0  0  0  0  0  0  0  0  0
   50.5554   31.9708   48.4401 O   0  0  0  0  0  0  0  0  0  0  0  0
   51.1952   32.0185   50.6129 N   0  0  0  0  0  0  0  0  0  0  0  0
   51.8032   31.4233   51.6718 C   0  0  0  0  0  0  0  0  0  0  0  0
   51.8459   32.0260   52.7776 O   0  0  0  0  0  0  0  0  0  0  0  0
 17 18  2  0
 18 19  1  0
 19 20  1  0
 20 21  2  0
 21 22  1  0
 22 23  1  0
 23 24  2  0
 23 25  1  0
 25 26  1  0
 26 27  2  0
 18 16  1  0
 16  1  1  0
  1  2  2  0
  2  3  1  0
  3  4  2  0
  4  5  1  0
  5  7  1  0
  7  8  2  0
  7  9  2  0
  7 10  1  0
 10 11  1  0
 11 12  1  0
 12 13  1  0
 13 14  1  0
 14 15  1  0
  5  6  2  0
 26 20  1  0
  6  1  1  0
 15 10  1  0
M  CHG 1  16  -1
M  CHG 1  22  -1
M  CHG 1  25  -1
M  END
> <UniqueID>
63

> <SMILES>
O=C(Cc1c[n-]c(=O)[n-]c1=O)[N-]c1cccc(S(=O)(=O)N2CCCCC2)c1

> <Energy>
56.34217391086416

> <Genealogy>
O=C(Cc1c[n-]c(=O)[n-]c1=O)[N-]c1cccc(S(=O)(=O)N2CCCCC2)c1 (protonated)
O=C(Cc1c[n-]c(=O)[n-]c1=O)[N-]c1cccc(S(=O)(=O)N2CCCCC2)c1 (3D coordinates assigned)
O=C(Cc1c[n-]c(=O)[n-]c1=O)[N-]c1cccc(S(=O)(=O)N2CCCCC2)c1 (nonaromatic ring conformer: 56.34217391086416 kcal/mol)

> <smiles>
O=C(Cc1c[nH]c(=O)[nH]c1=O)Nc1cccc(S(=O)(=O)N2CCCCC2)c1

> <score_type>
oracle

> <origin>
adg

> <m_score__min__energy>
-14.6

> <m_primary>
energy

> <minimizedAffinity>
-4.43886

> <minimizedRMSD>
0.75802

> <CNNscore>
0.3923474252

> <CNNaffinity>
5.8597145081

> <CNN_VS>
2.2990438938

> <CNNaffinity_variance>
0.2072852999

$$$$
68:0


 27 30  0  0  0  0  0  0  0  0999 V2000
   56.2080   29.9787   43.7377 C   0  0  0  0  0  0  0  0  0  0  0  0
   57.0202   29.5124   44.6889 C   0  0  0  0  0  0  0  0  0  0  0  0
   57.0782   28.2092   45.0309 N   0  0  0  0  0  0  0  0  0  0  0  0
   57.9849   28.1084   46.0273 C   0  0  0  0  0  0  0  0  0  0  0  0
   58.3676   26.9656   46.6159 C   0  0  0  0  0  0  0  0  0  0  0  0
   58.5185   29.3502   46.3198 C   0  0  0  0  0  0  0  0  0  0  0  0
   57.8979   30.2540   45.4745 C   0  0  0  0  0  0  0  0  0  0  0  0
   56.5601   27.4734   44.6316 H   0  0  0  0  0  0  0  0  0  0  0  0
   58.2103   31.6973   45.3861 C   0  0  0  0  0  0  0  0  0  0  0  0
   57.7500   32.3662   44.4215 O   0  0  0  0  0  0  0  0  0  0  0  0
   59.0570   32.3433   46.3573 N   0  0  0  0  0  0  0  0  0  0  0  0
   59.7638   33.5760   45.9995 C   0  0  0  0  0  0  0  0  0  0  0  0
   60.9646   33.7784   46.9304 C   0  0  0  0  0  0  0  0  0  0  0  0
   60.5847   33.8265   48.3695 N   0  0  0  0  0  0  0  0  0  0  0  0
   59.3408   33.0723   48.6874 C   0  0  0  0  0  0  0  0  0  0  0  0
   59.1034   31.8818   47.7482 C   0  0  0  0  0  0  0  0  0  0  0  0
   61.7074   33.3792   49.2284 C   0  0  0  0  0  0  0  0  0  0  0  0
   62.6115   32.3543   48.5367 C   0  0  0  0  0  0  0  0  0  0  0  0
   62.2393   31.3102   49.5776 C   0  0  0  0  0  0  0  0  0  0  0  0
   61.3128   32.3095   50.2524 C   0  0  0  0  0  0  0  0  0  0  0  0
   57.8597   25.6345   46.2422 C   0  0  0  0  0  0  0  0  0  0  0  0
   58.6516   24.5575   46.0901 N   0  0  0  0  0  0  0  0  0  0  0  0
   57.7789   23.5600   45.8332 C   0  0  0  0  0  0  0  0  0  0  0  0
   58.1477   22.3769   45.6151 O   0  0  0  0  0  0  0  0  0  0  0  0
   56.4798   23.9286   45.8371 N   0  0  0  0  0  0  0  0  0  0  0  0
   56.5463   25.2413   46.1098 C   0  0  0  0  0  0  0  0  0  0  0  0
   55.4278   26.0490   46.2785 O   0  0  0  0  0  0  0  0  0  0  0  0
  1  2  2  0
  2  3  1  0
  3  4  1  0
  4  5  2  0
  5 21  1  0
 21 22  1  0
 22 23  1  0
 23 24  2  0
 23 25  1  0
 25 26  1  0
 26 27  1  0
  4  6  1  0
  6  7  2  0
  7  9  1  0
  9 10  2  0
  9 11  1  0
 11 12  1  0
 12 13  1  0
 13 14  1  0
 14 17  1  0
 17 18  1  0
 18 19  1  0
 19 20  1  0
 14 15  1  0
 15 16  1  0
  7  2  1  0
 16 11  1  0
 26 21  2  0
 20 17  1  0
  3  8  1  0
M  CHG 1  22  -1
M  CHG 1  25  -1
M  CHG 1  27  -1
M  END
> <UniqueID>
64

> <SMILES>
C=c1[nH]c(=Cc2[n-]c(=O)[n-]c2[O-])cc1C(=O)N1CCN(C2CCC2)CC1

> <Energy>
181.56686449896623

> <Genealogy>
C=c1[nH]c(=Cc2[n-]c(=O)[n-]c2[O-])cc1C(=O)N1CCN(C2CCC2)CC1 (protonated)
C=c1[nH]c(=Cc2[n-]c(=O)[n-]c2[O-])cc1C(=O)N1CCN(C2CCC2)CC1 (3D coordinates assigned)
C=c1[nH]c(=Cc2[n-]c(=O)[n-]c2[O-])cc1C(=O)N1CCN(C2CCC2)CC1 (nonaromatic ring conformer: 181.56686449896623 kcal/mol)

> <smiles>
C=c1[nH]c(=Cc2[nH]c(=O)[nH]c2O)cc1C(=O)N1CCN(C2CCC2)CC1

> <score_type>
oracle

> <origin>
adg

> <m_score__min__energy>
-17.289999999999999

> <m_primary>
energy

> <minimizedAffinity>
-9.18803

> <minimizedRMSD>
1.54768

> <CNNscore>
0.1691602767

> <CNNaffinity>
6.1707038879

> <CNN_VS>
1.0438380241

> <CNNaffinity_variance>
0.0531440787

$$$$
2:0


 33 36  0  0  0  0  0  0  0  0999 V2000
   57.6065   30.4794   43.9220 C   0  0  0  0  0  0  0  0  0  0  0  0
   57.9246   30.0394   45.1504 C   0  0  0  0  0  0  0  0  0  0  0  0
   57.8116   28.7216   45.6240 C   0  0  0  0  0  0  0  0  0  0  0  0
   57.1359   27.6616   45.1391 C   0  0  0  0  0  0  0  0  0  0  0  0
   58.5009   28.6811   46.8233 C   0  0  0  0  0  0  0  0  0  0  0  0
   58.9170   29.9685   47.0889 C   0  0  0  0  0  0  0  0  0  0  0  0
   58.5699   30.7972   46.0766 N   0  0  0  0  0  0  0  0  0  0  0  0
   57.3306   26.2577   45.5524 C   0  0  0  0  0  0  0  0  0  0  0  0
   58.4743   25.5670   45.3940 N   0  0  0  0  0  0  0  0  0  0  0  0
   58.1383   24.3108   45.7563 C   0  0  0  0  0  0  0  0  0  0  0  0
   58.9621   23.3637   45.7503 O   0  0  0  0  0  0  0  0  0  0  0  0
   56.8401   24.1455   46.0872 N   0  0  0  0  0  0  0  0  0  0  0  0
   56.3409   25.3850   45.9329 C   0  0  0  0  0  0  0  0  0  0  0  0
   55.0044   25.7013   46.1021 O   0  0  0  0  0  0  0  0  0  0  0  0
   59.6470   30.3758   48.3081 C   0  0  0  0  0  0  0  0  0  0  0  0
   59.1526   31.3003   49.0162 O   0  0  0  0  0  0  0  0  0  0  0  0
   60.8613   29.6790   48.7199 N   0  0  0  0  0  0  0  0  0  0  0  0
   61.6226   30.4951   49.6760 C   0  0  0  0  0  0  0  0  0  0  0  0
   61.0133   30.2352   51.0505 C   0  0  0  0  0  0  0  0  0  0  0  0
   60.4097   28.8429   50.9407 C   0  0  0  0  0  0  0  0  0  0  0  0
   60.5917   28.4403   49.4780 C   0  0  0  0  0  0  0  0  0  0  0  0
   59.9905   29.5148   49.1487 H   0  0  0  0  0  0  0  0  0  0  0  0
   58.8946   32.2287   45.9806 C   0  0  0  0  0  0  0  0  0  0  0  0
   57.9557   33.0458   46.8703 C   0  0  0  0  0  0  0  0  0  0  0  0
   58.7349   33.9402   47.7358 N   0  0  0  0  0  0  0  0  0  0  0  0
   59.0574   33.4149   48.5485 H   0  0  0  0  0  0  0  0  0  0  0  0
   59.9044   34.4991   47.0342 C   0  0  0  0  0  0  0  0  0  0  0  0
   61.2036   34.0702   47.6768 C   0  0  0  0  0  0  0  0  0  0  0  0
   61.3635   34.1503   49.0686 C   0  0  0  0  0  0  0  0  0  0  0  0
   62.5537   33.7321   49.6644 C   0  0  0  0  0  0  0  0  0  0  0  0
   63.5924   33.2207   48.8797 C   0  0  0  0  0  0  0  0  0  0  0  0
   63.4405   33.1334   47.4961 C   0  0  0  0  0  0  0  0  0  0  0  0
   62.2526   33.5632   46.8910 C   0  0  0  0  0  0  0  0  0  0  0  0
  1  2  2  0
  2  3  1  0
  3  4  2  0
  4  8  1  0
  8  9  1  0
  9 10  1  0
 10 11  2  0
 10 12  1  0
 12 13  1  0
 13 14  1  0
  3  5  1  0
  5  6  2  0
  6 15  1  0
 15 16  2  0
 15 17  1  0
 17 18  1  0
 18 19  1  0
 19 20  1  0
 20 21  1  0
  6  7  1  0
  7 23  1  0
 23 24  1  0
 24 25  1  0
 25 27  1  0
 27 28  1  0
 28 29  2  0
 29 30  1  0
 30 31  2  0
 31 32  1  0
 32 33  2  0
  7  2  1  0
 33 28  1  0
 13  8  2  0
 21 17  1  0
 17 22  1  0
 25 26  1  0
M  CHG 1   9  -1
M  CHG 1  12  -1
M  CHG 1  14  -1
M  CHG 1  17   1
M  END
> <UniqueID>
2

> <SMILES>
C=c1/c(=C\c2[n-]c(=O)[n-]c2[O-])cc(C(=O)[NH+]2CCCC2)n1CCNCc1ccccc1

> <Energy>
137.48462212106628

> <Genealogy>
C=c1c(=Cc2[n-]c(=O)[n-]c2[O-])cc(C(=O)[NH+]2CCCC2)n1CCNCc1ccccc1 (protonated)
C=c1/c(=C\c2[n-]c(=O)[n-]c2[O-])cc(C(=O)[NH+]2CCCC2)n1CCNCc1ccccc1 (cis-trans isomerization)
C=c1/c(=C\c2[n-]c(=O)[n-]c2[O-])cc(C(=O)[NH+]2CCCC2)n1CCNCc1ccccc1 (3D coordinates assigned)
C=c1/c(=C\c2[n-]c(=O)[n-]c2[O-])cc(C(=O)[NH+]2CCCC2)n1CCNCc1ccccc1 (nonaromatic ring conformer: 137.48462212106628 kcal/mol)

> <smiles>
C=c1c(=Cc2[nH]c(=O)[nH]c2O)cc(C(=O)N2CCCC2)n1CCNCc1ccccc1

> <score_type>
oracle

> <origin>
adg

> <m_score__min__energy>
-14.859999999999999

> <m_primary>
energy

> <minimizedAffinity>
-7.76849

> <minimizedRMSD>
1.09372

> <CNNscore>
0.0888478607

> <CNNaffinity>
6.0442156792

> <CNN_VS>
0.5370156169

> <CNNaffinity_variance>
0.2655547559

$$$$
13:0


 35 38  0  0  0  0  0  0  0  0999 V2000
   60.0638   28.8368   44.6017 C   0  0  0  0  0  0  0  0  0  0  0  0
   59.5652   28.6409   45.8346 C   0  0  0  0  0  0  0  0  0  0  0  0
   58.6067   27.6808   46.1835 C   0  0  0  0  0  0  0  0  0  0  0  0
   57.9388   26.8584   45.3439 C   0  0  0  0  0  0  0  0  0  0  0  0
   58.4962   27.7406   47.5635 C   0  0  0  0  0  0  0  0  0  0  0  0
   59.3500   28.7335   47.9998 C   0  0  0  0  0  0  0  0  0  0  0  0
   59.9877   29.3089   46.9454 N   0  0  0  0  0  0  0  0  0  0  0  0
   57.5706   25.4489   45.6167 C   0  0  0  0  0  0  0  0  0  0  0  0
   58.3911   24.3851   45.5529 N   0  0  0  0  0  0  0  0  0  0  0  0
   57.5932   23.3477   45.8788 C   0  0  0  0  0  0  0  0  0  0  0  0
   58.0108   22.1613   45.9311 O   0  0  0  0  0  0  0  0  0  0  0  0
   56.3120   23.6792   46.1432 N   0  0  0  0  0  0  0  0  0  0  0  0
   56.3148   25.0106   45.9725 C   0  0  0  0  0  0  0  0  0  0  0  0
   55.1910   25.8107   46.1405 O   0  0  0  0  0  0  0  0  0  0  0  0
   59.6060   28.9738   49.4389 C   0  0  0  0  0  0  0  0  0  0  0  0
   58.8010   29.7046   50.0795 O   0  0  0  0  0  0  0  0  0  0  0  0
   60.7763   28.4645   50.0901 N   0  0  0  0  0  0  0  0  0  0  0  0
   61.3482   27.8300   49.6008 H   0  0  0  0  0  0  0  0  0  0  0  0
   61.1589   28.8451   51.4488 C   0  0  0  0  0  0  0  0  0  0  0  0
   62.3310   29.7837   51.3887 C   0  0  0  0  0  0  0  0  0  0  0  0
   63.5618   29.4123   51.9500 C   0  0  0  0  0  0  0  0  0  0  0  0
   64.6726   30.2526   51.8312 C   0  0  0  0  0  0  0  0  0  0  0  0
   64.5749   31.4674   51.1424 C   0  0  0  0  0  0  0  0  0  0  0  0
   63.3418   31.8357   50.5702 C   0  0  0  0  0  0  0  0  0  0  0  0
   62.2310   30.9954   50.6890 C   0  0  0  0  0  0  0  0  0  0  0  0
   65.7202   32.2716   51.0466 O   0  0  0  0  0  0  0  0  0  0  0  0
   67.0535   31.7712   51.0272 C   0  0  0  0  0  0  0  0  0  0  0  0
   61.0066   30.3750   46.9880 C   0  0  0  0  0  0  0  0  0  0  0  0
   60.4783   31.6642   47.6536 C   0  0  0  0  0  0  0  0  0  0  0  0
   59.6447   32.5064   46.7257 C   0  0  0  0  0  0  0  0  0  0  0  0
   60.1012   33.7701   46.3088 C   0  0  0  0  0  0  0  0  0  0  0  0
   59.3516   34.5285   45.4045 C   0  0  0  0  0  0  0  0  0  0  0  0
   58.1365   34.0382   44.9176 C   0  0  0  0  0  0  0  0  0  0  0  0
   57.6678   32.7905   45.3362 C   0  0  0  0  0  0  0  0  0  0  0  0
   58.4179   32.0249   46.2362 C   0  0  0  0  0  0  0  0  0  0  0  0
  1  2  2  0
  2  3  1  0
  3  4  2  0
  4  8  1  0
  8  9  1  0
  9 10  1  0
 10 11  2  0
 10 12  1  0
 12 13  1  0
 13 14  1  0
  3  5  1  0
  5  6  2  0
  6 15  1  0
 15 16  2  0
 15 17  1  0
 17 19  1  0
 19 20  1  0
 20 21  2  0
 21 22  1  0
 22 23  2  0
 23 26  1  0
 26 27  1  0
 23 24  1  0
 24 25  2  0
  6  7  1  0
  7 28  1  0
 28 29  1  0
 29 30  1  0
 30 31  2  0
 31 32  1  0
 32 33  2  0
 33 34  1  0
 34 35  2  0
  7  2  1  0
 35 30  1  0
 13  8  2  0
 25 20  1  0
 17 18  1  0
M  CHG 1   9  -1
M  CHG 1  12  -1
M  CHG 1  14  -1
M  END
> <UniqueID>
12

> <SMILES>
C=c1c(=Cc2[n-]c(=O)[n-]c2[O-])cc(C(=O)NCc2ccc(OC)cc2)n1CCc1ccccc1

> <Energy>
122.54242743012101

> <Genealogy>
C=c1c(=Cc2[n-]c(=O)[n-]c2[O-])cc(C(=O)NCc2ccc(OC)cc2)n1CCc1ccccc1 (protonated)
C=c1c(=Cc2[n-]c(=O)[n-]c2[O-])cc(C(=O)NCc2ccc(OC)cc2)n1CCc1ccccc1 (3D coordinates assigned)
C=c1c(=Cc2[n-]c(=O)[n-]c2[O-])cc(C(=O)NCc2ccc(OC)cc2)n1CCc1ccccc1 (optimized conformer: 122.54242743012101 kcal/mol)

> <smiles>
C=c1c(=Cc2[nH]c(=O)[nH]c2O)cc(C(=O)NCc2ccc(OC)cc2)n1CCc1ccccc1

> <score_type>
oracle

> <origin>
adg

> <m_score__min__energy>
-17.199999999999999

> <m_primary>
energy

> <minimizedAffinity>
-8.64485

> <minimizedRMSD>
1.18053

> <CNNscore>
0.2803359032

> <CNNaffinity>
6.8381137848

> <CNN_VS>
1.9169688225

> <CNNaffinity_variance>
0.0669279769

$$$$
22:0


 29 31  0  0  0  0  0  0  0  0999 V2000
   59.4119   29.9741   46.7353 C   0  0  0  0  0  0  0  0  0  0  0  0
   58.5469   29.5543   45.7987 C   0  0  0  0  0  0  0  0  0  0  0  0
   57.9988   28.2695   45.7041 C   0  0  0  0  0  0  0  0  0  0  0  0
   58.2642   27.2065   46.4902 C   0  0  0  0  0  0  0  0  0  0  0  0
   57.1699   28.2791   44.5921 C   0  0  0  0  0  0  0  0  0  0  0  0
   57.2241   29.5535   44.0670 C   0  0  0  0  0  0  0  0  0  0  0  0
   56.5326   29.9736   42.8047 C   0  0  0  0  0  0  0  0  0  0  0  0
   58.0679   30.3319   44.7874 N   0  0  0  0  0  0  0  0  0  0  0  0
   57.8798   25.8217   46.1568 C   0  0  0  0  0  0  0  0  0  0  0  0
   58.7716   24.8304   45.9771 N   0  0  0  0  0  0  0  0  0  0  0  0
   57.9967   23.7438   45.7725 C   0  0  0  0  0  0  0  0  0  0  0  0
   58.4761   22.6012   45.5475 O   0  0  0  0  0  0  0  0  0  0  0  0
   56.6670   23.9747   45.8357 N   0  0  0  0  0  0  0  0  0  0  0  0
   56.6088   25.2924   46.0921 C   0  0  0  0  0  0  0  0  0  0  0  0
   55.4212   25.9818   46.3087 O   0  0  0  0  0  0  0  0  0  0  0  0
   58.3610   31.7505   44.5176 C   0  0  0  0  0  0  0  0  0  0  0  0
   57.3087   32.6712   45.1488 C   0  0  0  0  0  0  0  0  0  0  0  0
   57.8622   33.4315   46.3156 C   0  0  0  0  0  0  0  0  0  0  0  0
   57.2808   33.3657   47.4327 O   0  0  0  0  0  0  0  0  0  0  0  0
   59.0515   34.2163   46.1641 N   0  0  0  0  0  0  0  0  0  0  0  0
   59.4709   34.2840   45.2760 H   0  0  0  0  0  0  0  0  0  0  0  0
   59.6592   34.9197   47.2941 C   0  0  0  0  0  0  0  0  0  0  0  0
   59.9274   33.9707   48.4707 C   0  0  0  0  0  0  0  0  0  0  0  0
   61.3930   33.6313   48.5759 C   0  0  0  0  0  0  0  0  0  0  0  0
   62.0879   33.8332   49.7806 C   0  0  0  0  0  0  0  0  0  0  0  0
   63.4360   33.4693   49.8839 C   0  0  0  0  0  0  0  0  0  0  0  0
   64.0979   32.9005   48.7911 C   0  0  0  0  0  0  0  0  0  0  0  0
   63.4128   32.6965   47.5906 C   0  0  0  0  0  0  0  0  0  0  0  0
   62.0638   33.0570   47.4830 C   0  0  0  0  0  0  0  0  0  0  0  0
  1  2  2  0
  2  3  1  0
  3  4  2  0
  4  9  1  0
  9 10  1  0
 10 11  1  0
 11 12  2  0
 11 13  1  0
 13 14  1  0
 14 15  1  0
  3  5  1  0
  5  6  2  0
  6  7  1  0
  6  8  1  0
  8 16  1  0
 16 17  1  0
 17 18  1  0
 18 19  2  0
 18 20  1  0
 20 22  1  0
 22 23  1  0
 23 24  1  0
 24 25  2  0
 25 26  1  0
 26 27  2  0
 27 28  1  0
 28 29  2  0
  8  2  1  0
 29 24  1  0
 14  9  2  0
 20 21  1  0
M  CHG 1  10  -1
M  CHG 1  13  -1
M  CHG 1  15  -1
M  END
> <UniqueID>
20

> <SMILES>
C=c1/c(=C/c2[n-]c(=O)[n-]c2[O-])cc(C)n1CCC(=O)NCCc1ccccc1

> <Energy>
107.0863594381843

> <Genealogy>
C=c1c(=Cc2[n-]c(=O)[n-]c2[O-])cc(C)n1CCC(=O)NCCc1ccccc1 (protonated)
C=c1/c(=C/c2[n-]c(=O)[n-]c2[O-])cc(C)n1CCC(=O)NCCc1ccccc1 (cis-trans isomerization)
C=c1/c(=C/c2[n-]c(=O)[n-]c2[O-])cc(C)n1CCC(=O)NCCc1ccccc1 (3D coordinates assigned)
C=c1/c(=C/c2[n-]c(=O)[n-]c2[O-])cc(C)n1CCC(=O)NCCc1ccccc1 (optimized conformer: 107.0863594381843 kcal/mol)

> <smiles>
C=c1c(=Cc2[nH]c(=O)[nH]c2O)cc(C)n1CCC(=O)NCCc1ccccc1

> <score_type>
oracle

> <origin>
adg

> <m_score__min__energy>
-16.559999999999999

> <m_primary>
energy

> <minimizedAffinity>
-7.64265

> <minimizedRMSD>
0.85120

> <CNNscore>
0.1201280206

> <CNNaffinity>
5.8508534431

> <CNN_VS>
0.7028514147

> <CNNaffinity_variance>
0.3815036714

$$$$
23:0


 36 39  0  0  0  0  0  0  0  0999 V2000
   60.3370   32.2491   47.7751 N   0  0  0  0  0  0  0  0  0  0  0  0
   61.2979   31.1411   47.5660 C   0  0  0  0  0  0  0  0  0  0  0  0
   62.7100   31.5669   47.9777 C   0  0  0  0  0  0  0  0  0  0  0  0
   62.7017   32.1354   49.3267 N   0  0  0  0  0  0  0  0  0  0  0  0
   63.9521   32.4747   49.9397 C   0  0  0  0  0  0  0  0  0  0  0  0
   64.5381   33.5298   49.5770 O   0  0  0  0  0  0  0  0  0  0  0  0
   64.5517   31.6130   50.9347 N   0  0  0  0  0  0  0  0  0  0  0  0
   63.7669   30.5219   51.5328 C   0  0  0  0  0  0  0  0  0  0  0  0
   64.5799   29.7192   52.5557 C   0  0  0  0  0  0  0  0  0  0  0  0
   65.9190   29.4252   52.0279 N   0  0  0  0  0  0  0  0  0  0  0  0
   66.5225   28.1371   52.2458 C   0  0  0  0  0  0  0  0  0  0  0  0
   67.6580   27.8798   51.7556 O   0  0  0  0  0  0  0  0  0  0  0  0
   66.6939   30.4817   51.3592 C   0  0  0  0  0  0  0  0  0  0  0  0
   65.9442   31.8194   51.3559 C   0  0  0  0  0  0  0  0  0  0  0  0
   61.4459   32.2701   50.0675 C   0  0  0  0  0  0  0  0  0  0  0  0
   60.3313   32.8181   49.1558 C   0  0  0  0  0  0  0  0  0  0  0  0
   59.9890   32.0855   48.6814 H   0  0  0  0  0  0  0  0  0  0  0  0
   58.9985   31.8836   47.3485 C   0  0  0  0  0  0  0  0  0  0  0  0
   58.0121   32.4786   47.8627 O   0  0  0  0  0  0  0  0  0  0  0  0
   57.3193   29.4239   43.5078 C   0  0  0  0  0  0  0  0  0  0  0  0
   57.9770   29.6898   44.6484 C   0  0  0  0  0  0  0  0  0  0  0  0
   58.6892   28.7686   45.4279 C   0  0  0  0  0  0  0  0  0  0  0  0
   58.8950   27.4592   45.1579 C   0  0  0  0  0  0  0  0  0  0  0  0
   59.1535   29.4796   46.5254 C   0  0  0  0  0  0  0  0  0  0  0  0
   58.7372   30.7888   46.3721 C   0  0  0  0  0  0  0  0  0  0  0  0
   58.0369   30.9205   45.2192 N   0  0  0  0  0  0  0  0  0  0  0  0
   57.4690   32.1633   44.6786 C   0  0  0  0  0  0  0  0  0  0  0  0
   58.1230   26.3255   45.7171 C   0  0  0  0  0  0  0  0  0  0  0  0
   58.5989   25.0981   45.9957 N   0  0  0  0  0  0  0  0  0  0  0  0
   57.5139   24.4275   46.4382 C   0  0  0  0  0  0  0  0  0  0  0  0
   57.5624   23.2249   46.8053 O   0  0  0  0  0  0  0  0  0  0  0  0
   56.3713   25.1478   46.4579 N   0  0  0  0  0  0  0  0  0  0  0  0
   56.7752   26.3435   45.9985 C   0  0  0  0  0  0  0  0  0  0  0  0
   55.9258   27.4297   45.8362 O   0  0  0  0  0  0  0  0  0  0  0  0
   65.8473   27.1651   52.9971 O   0  0  0  0  0  0  0  0  0  0  0  0
   64.9973   26.1903   52.4060 C   0  0  0  0  0  0  0  0  0  0  0  0
 20 21  2  0
 21 22  1  0
 22 23  2  0
 23 28  1  0
 28 29  1  0
 29 30  1  0
 30 31  2  0
 30 32  1  0
 32 33  1  0
 33 34  1  0
 22 24  1  0
 24 25  2  0
 25 18  1  0
 18 19  2  0
 18  1  1  0
  1  2  1  0
  2  3  1  0
  3  4  1  0
  4  5  1  0
  5  6  2  0
  5  7  1  0
  7  8  1  0
  8  9  1  0
  9 10  1  0
 10 11  1  0
 11 12  2  0
 11 35  1  0
 35 36  1  0
 10 13  1  0
 13 14  1  0
  4 15  1  0
 15 16  1  0
 25 26  1  0
 26 27  1  0
 26 21  1  0
 33 28  2  0
 16  1  1  0
 14  7  1  0
  1 17  1  0
M  CHG 1   1   1
M  CHG 1  29  -1
M  CHG 1  32  -1
M  CHG 1  34  -1
M  END
> <UniqueID>
21

> <SMILES>
C=c1c(=Cc2[n-]c(=O)[n-]c2[O-])cc(C(=O)[NH+]2CCN(C(=O)N3CCN(C(=O)OC)CC3)CC2)n1C

> <Energy>
141.516479246717

> <Genealogy>
C=c1c(=Cc2[n-]c(=O)[n-]c2[O-])cc(C(=O)[NH+]2CCN(C(=O)N3CCN(C(=O)OC)CC3)CC2)n1C (protonated)
C=c1c(=Cc2[n-]c(=O)[n-]c2[O-])cc(C(=O)[NH+]2CCN(C(=O)N3CCN(C(=O)OC)CC3)CC2)n1C (3D coordinates assigned)
C=c1c(=Cc2[n-]c(=O)[n-]c2[O-])cc(C(=O)[NH+]2CCN(C(=O)N3CCN(C(=O)OC)CC3)CC2)n1C (nonaromatic ring conformer: 141.516479246717 kcal/mol)

> <smiles>
C=c1c(=Cc2[nH]c(=O)[nH]c2O)cc(C(=O)N2CCN(C(=O)N3CCN(C(=O)OC)CC3)CC2)n1C

> <score_type>
oracle

> <origin>
adg

> <m_score__min__energy>
-16.690000000000001

> <m_primary>
energy

> <minimizedAffinity>
-7.39956

> <minimizedRMSD>
1.20368

> <CNNscore>
0.0958520025

> <CNNaffinity>
6.3951458931

> <CNN_VS>
0.6129875183

> <CNNaffinity_variance>
0.0321555585

$$$$
24:0


 34 37  0  0  0  0  0  0  0  0999 V2000
   59.8769   27.4096   47.5775 C   0  0  0  0  0  0  0  0  0  0  0  0
   61.1073   27.1396   47.6063 O   0  0  0  0  0  0  0  0  0  0  0  0
   59.3418   28.3882   48.5147 N   0  0  0  0  0  0  0  0  0  0  0  0
   58.9086   29.6261   47.8014 C   0  0  0  0  0  0  0  0  0  0  0  0
   59.3596   30.9293   48.4759 C   0  0  0  0  0  0  0  0  0  0  0  0
   60.7928   30.8567   48.7749 N   0  0  0  0  0  0  0  0  0  0  0  0
   61.7106   31.9218   48.4427 C   0  0  0  0  0  0  0  0  0  0  0  0
   62.9445   31.6667   48.3581 O   0  0  0  0  0  0  0  0  0  0  0  0
   61.3141   29.6638   49.4515 C   0  0  0  0  0  0  0  0  0  0  0  0
   60.2058   28.6238   49.7025 C   0  0  0  0  0  0  0  0  0  0  0  0
   58.7046   27.6914   48.7935 H   0  0  0  0  0  0  0  0  0  0  0  0
   61.2207   33.3147   48.1209 C   0  0  0  0  0  0  0  0  0  0  0  0
   61.0512   33.5963   46.6107 C   0  0  0  0  0  0  0  0  0  0  0  0
   59.7720   34.2445   46.2416 N   0  0  0  0  0  0  0  0  0  0  0  0
   58.6973   34.2324   47.2519 C   0  0  0  0  0  0  0  0  0  0  0  0
   57.6143   33.2032   46.9178 C   0  0  0  0  0  0  0  0  0  0  0  0
   57.1249   33.4162   45.6125 O   0  0  0  0  0  0  0  0  0  0  0  0
   58.1470   33.1306   44.6835 C   0  0  0  0  0  0  0  0  0  0  0  0
   59.3327   34.0998   44.8378 C   0  0  0  0  0  0  0  0  0  0  0  0
   57.7607   26.0650   43.4614 C   0  0  0  0  0  0  0  0  0  0  0  0
   58.0281   26.0868   44.7775 C   0  0  0  0  0  0  0  0  0  0  0  0
   57.8866   25.0181   45.6782 C   0  0  0  0  0  0  0  0  0  0  0  0
   57.2573   23.8343   45.5521 C   0  0  0  0  0  0  0  0  0  0  0  0
   58.5638   25.3883   46.8259 C   0  0  0  0  0  0  0  0  0  0  0  0
   59.0325   26.6681   46.6162 C   0  0  0  0  0  0  0  0  0  0  0  0
   58.6603   27.1163   45.3955 N   0  0  0  0  0  0  0  0  0  0  0  0
   59.0188   28.4161   44.8158 C   0  0  0  0  0  0  0  0  0  0  0  0
   55.8118   23.6099   45.7181 C   0  0  0  0  0  0  0  0  0  0  0  0
   55.1973   22.4165   45.5984 N   0  0  0  0  0  0  0  0  0  0  0  0
   53.8922   22.7220   45.7552 C   0  0  0  0  0  0  0  0  0  0  0  0
   52.9826   21.8496   45.7267 O   0  0  0  0  0  0  0  0  0  0  0  0
   53.6362   24.0344   45.9451 N   0  0  0  0  0  0  0  0  0  0  0  0
   54.8625   24.5827   45.9041 C   0  0  0  0  0  0  0  0  0  0  0  0
   55.1092   25.9417   46.0426 O   0  0  0  0  0  0  0  0  0  0  0  0
 20 21  2  0
 21 22  1  0
 22 23  2  0
 23 28  1  0
 28 29  1  0
 29 30  1  0
 30 31  2  0
 30 32  1  0
 32 33  1  0
 33 34  1  0
 22 24  1  0
 24 25  2  0
 25  1  1  0
  1  2  2  0
  1  3  1  0
  3  4  1  0
  4  5  1  0
  5  6  1  0
  6  7  1  0
  7  8  2  0
  7 12  1  0
 12 13  1  0
 13 14  1  0
 14 15  1  0
 15 16  1  0
 16 17  1  0
 17 18  1  0
 18 19  1  0
  6  9  1  0
  9 10  1  0
 25 26  1  0
 26 27  1  0
 26 21  1  0
 33 28  2  0
 10  3  1  0
 19 14  1  0
  3 11  1  0
M  CHG 1   3   1
M  CHG 1  29  -1
M  CHG 1  32  -1
M  CHG 1  34  -1
M  END
> <UniqueID>
22

> <SMILES>
C=c1c(=Cc2[n-]c(=O)[n-]c2[O-])cc(C(=O)[NH+]2CCN(C(=O)CCN3CCOCC3)CC2)n1C

> <Energy>
163.23935529663603

> <Genealogy>
C=c1c(=Cc2[n-]c(=O)[n-]c2[O-])cc(C(=O)[NH+]2CCN(C(=O)CCN3CCOCC3)CC2)n1C (protonated)
C=c1c(=Cc2[n-]c(=O)[n-]c2[O-])cc(C(=O)[NH+]2CCN(C(=O)CCN3CCOCC3)CC2)n1C (3D coordinates assigned)
C=c1c(=Cc2[n-]c(=O)[n-]c2[O-])cc(C(=O)[NH+]2CCN(C(=O)CCN3CCOCC3)CC2)n1C (nonaromatic ring conformer: 163.23935529663603 kcal/mol)

> <smiles>
C=c1c(=Cc2[nH]c(=O)[nH]c2O)cc(C(=O)N2CCN(C(=O)CCN3CCOCC3)CC2)n1C

> <score_type>
oracle

> <origin>
adg

> <m_score__min__energy>
-16.809999999999999

> <m_primary>
energy

> <minimizedAffinity>
-6.71156

> <minimizedRMSD>
0.66777

> <CNNscore>
0.0502002425

> <CNNaffinity>
5.4817395210

> <CNN_VS>
0.2751846611

> <CNNaffinity_variance>
0.5358806252

$$$$
27:0


 35 39  0  0  0  0  0  0  0  0999 V2000
   59.8168   27.8324   47.6462 C   0  0  0  0  0  0  0  0  0  0  0  0
   60.2777   27.1422   48.7791 C   0  0  0  0  0  0  0  0  0  0  0  0
   60.8165   27.8420   49.8620 C   0  0  0  0  0  0  0  0  0  0  0  0
   60.9073   29.2363   49.8208 C   0  0  0  0  0  0  0  0  0  0  0  0
   60.4737   29.9365   48.6854 C   0  0  0  0  0  0  0  0  0  0  0  0
   59.9243   29.2309   47.6047 C   0  0  0  0  0  0  0  0  0  0  0  0
   58.0781   25.4167   47.7604 C   0  0  0  0  0  0  0  0  0  0  0  0
   58.5001   25.9624   46.6092 C   0  0  0  0  0  0  0  0  0  0  0  0
   58.1263   25.5755   45.3143 C   0  0  0  0  0  0  0  0  0  0  0  0
   57.5062   24.4659   44.8666 C   0  0  0  0  0  0  0  0  0  0  0  0
   58.5604   26.5832   44.4685 C   0  0  0  0  0  0  0  0  0  0  0  0
   59.2511   27.4887   45.2460 C   0  0  0  0  0  0  0  0  0  0  0  0
   59.9409   28.7071   44.7087 C   0  0  0  0  0  0  0  0  0  0  0  0
   59.2147   27.1183   46.5473 N   0  0  0  0  0  0  0  0  0  0  0  0
   56.2787   23.8858   45.4364 C   0  0  0  0  0  0  0  0  0  0  0  0
   55.9733   22.5746   45.4290 N   0  0  0  0  0  0  0  0  0  0  0  0
   54.7132   22.5429   45.9120 C   0  0  0  0  0  0  0  0  0  0  0  0
   54.0750   21.4701   46.0738 O   0  0  0  0  0  0  0  0  0  0  0  0
   54.1871   23.7529   46.2006 N   0  0  0  0  0  0  0  0  0  0  0  0
   55.1860   24.5918   45.8788 C   0  0  0  0  0  0  0  0  0  0  0  0
   55.0971   25.9735   45.9810 O   0  0  0  0  0  0  0  0  0  0  0  0
   60.5796   31.3666   48.6280 N   0  0  0  0  0  0  0  0  0  0  0  0
   59.8405   32.1913   49.5858 C   0  0  0  0  0  0  0  0  0  0  0  0
   59.7608   33.6460   49.0938 C   0  0  0  0  0  0  0  0  0  0  0  0
   59.5916   33.7092   47.6263 N   0  0  0  0  0  0  0  0  0  0  0  0
   60.7615   33.1411   46.9039 C   0  0  0  0  0  0  0  0  0  0  0  0
   61.4782   32.0042   47.6634 C   0  0  0  0  0  0  0  0  0  0  0  0
   58.3096   33.1166   47.1818 C   0  0  0  0  0  0  0  0  0  0  0  0
   58.1481   33.2866   45.6563 C   0  0  0  0  0  0  0  0  0  0  0  0
   57.4863   32.1524   44.9755 N   0  0  0  0  0  0  0  0  0  0  0  0
   57.9356   31.9264   43.5910 C   0  0  0  0  0  0  0  0  0  0  0  0
   57.0186   30.8848   42.9180 C   0  0  0  0  0  0  0  0  0  0  0  0
   56.1240   30.2794   43.8373 O   0  0  0  0  0  0  0  0  0  0  0  0
   56.8406   29.7633   44.9419 C   0  0  0  0  0  0  0  0  0  0  0  0
   57.5025   30.8994   45.7500 C   0  0  0  0  0  0  0  0  0  0  0  0
  7  8  2  0
  8  9  1  0
  9 10  2  0
 10 15  1  0
 15 16  1  0
 16 17  1  0
 17 18  2  0
 17 19  1  0
 19 20  1  0
 20 21  1  0
  9 11  1  0
 11 12  2  0
 12 13  1  0
 12 14  1  0
 14  1  1  0
  1  2  2  0
  2  3  1  0
  3  4  2  0
  4  5  1  0
  5 22  1  0
 22 23  1  0
 23 24  1  0
 24 25  1  0
 25 28  1  0
 28 29  1  0
 29 30  1  0
 30 31  1  0
 31 32  1  0
 32 33  1  0
 33 34  1  0
 34 35  1  0
 25 26  1  0
 26 27  1  0
  5  6  2  0
 14  8  1  0
  6  1  1  0
 20 15  2  0
 27 22  1  0
 35 30  1  0
M  CHG 1  16  -1
M  CHG 1  19  -1
M  CHG 1  21  -1
M  END
> <UniqueID>
25

> <SMILES>
C=c1c(=Cc2[n-]c(=O)[n-]c2[O-])cc(C)n1-c1cccc(N2CCN(CCN3CCOCC3)CC2)c1

> <Energy>
167.94719184495338

> <Genealogy>
C=c1c(=Cc2[n-]c(=O)[n-]c2[O-])cc(C)n1-c1cccc(N2CCN(CCN3CCOCC3)CC2)c1 (protonated)
C=c1c(=Cc2[n-]c(=O)[n-]c2[O-])cc(C)n1-c1cccc(N2CCN(CCN3CCOCC3)CC2)c1 (3D coordinates assigned)
C=c1c(=Cc2[n-]c(=O)[n-]c2[O-])cc(C)n1-c1cccc(N2CCN(CCN3CCOCC3)CC2)c1 (nonaromatic ring conformer: 167.94719184495338 kcal/mol)

> <smiles>
C=c1c(=Cc2[nH]c(=O)[nH]c2O)cc(C)n1-c1cccc(N2CCN(CCN3CCOCC3)CC2)c1

> <score_type>
oracle

> <origin>
adg

> <m_score__min__energy>
-17.710000000000001

> <m_primary>
energy

> <minimizedAffinity>
-8.08628

> <minimizedRMSD>
0.65517

> <CNNscore>
0.0991818830

> <CNNaffinity>
6.2465023994

> <CNN_VS>
0.6195398569

> <CNNaffinity_variance>
0.8282878995

$$$$
28:0


 29 31  0  0  0  0  0  0  0  0999 V2000
   60.0140   29.1044   52.3781 C   0  0  0  0  0  0  0  0  0  0  0  0
   60.5002   29.6326   51.2256 N   0  0  0  0  0  0  0  0  0  0  0  0
   59.5898   30.4324   50.6227 C   0  0  0  0  0  0  0  0  0  0  0  0
   59.8035   31.0785   49.5160 N   0  0  0  0  0  0  0  0  0  0  0  0
   58.1428   30.5105   51.4760 S   0  0  0  0  0  0  0  0  0  0  0  0
   58.7109   29.4808   52.6775 C   0  0  0  0  0  0  0  0  0  0  0  0
   57.8423   29.0828   54.1470 S   0  0  0  0  0  0  0  0  0  0  0  0
   57.2180   27.7242   53.9960 O   0  0  0  0  0  0  0  0  0  0  0  0
   58.7946   29.0496   55.3099 O   0  0  0  0  0  0  0  0  0  0  0  0
   56.5962   30.2576   54.4358 N   0  0  0  0  0  0  0  0  0  0  0  0
   55.3425   29.5812   54.7578 C   0  0  0  0  0  0  0  0  0  0  0  0
   54.2940   29.9876   53.7630 C   0  0  0  0  0  0  0  0  0  0  0  0
   54.6393   30.2137   52.4205 C   0  0  0  0  0  0  0  0  0  0  0  0
   53.6653   30.6202   51.5023 C   0  0  0  0  0  0  0  0  0  0  0  0
   52.3446   30.8149   51.9189 C   0  0  0  0  0  0  0  0  0  0  0  0
   51.3826   31.2177   51.0015 O   0  0  0  0  0  0  0  0  0  0  0  0
   51.9973   30.6063   53.2599 C   0  0  0  0  0  0  0  0  0  0  0  0
   50.6881   30.8048   53.6814 O   0  0  0  0  0  0  0  0  0  0  0  0
   52.9709   30.2004   54.1796 C   0  0  0  0  0  0  0  0  0  0  0  0
   59.6231   32.4898   49.3195 C   0  0  0  0  0  0  0  0  0  0  0  0
   59.6606   33.2466   50.3256 O   0  0  0  0  0  0  0  0  0  0  0  0
   59.4347   33.0885   47.9734 C   0  0  0  0  0  0  0  0  0  0  0  0
   58.1540   33.0751   47.3938 C   0  0  0  0  0  0  0  0  0  0  0  0
   57.9466   33.6137   46.1226 C   0  0  0  0  0  0  0  0  0  0  0  0
   59.0100   34.1787   45.4196 C   0  0  0  0  0  0  0  0  0  0  0  0
   60.2840   34.2190   45.9895 C   0  0  0  0  0  0  0  0  0  0  0  0
   60.5089   33.6870   47.2754 C   0  0  0  0  0  0  0  0  0  0  0  0
   61.7729   33.7508   47.8863 O   0  0  0  0  0  0  0  0  0  0  0  0
   62.9934   33.3574   47.2685 C   0  0  0  0  0  0  0  0  0  0  0  0
  1  2  1  0
  2  3  1  0
  3  4  2  0
  4 20  1  0
 20 21  2  0
 20 22  1  0
 22 23  2  0
 23 24  1  0
 24 25  2  0
 25 26  1  0
 26 27  2  0
 27 28  1  0
 28 29  1  0
  3  5  1  0
  5  6  1  0
  6  7  1  0
  7  8  2  0
  7  9  2  0
  7 10  1  0
 10 11  1  0
 11 12  1  0
 12 13  2  0
 13 14  1  0
 14 15  2  0
 15 16  1  0
 15 17  1  0
 17 18  1  0
 17 19  2  0
  6  1  2  0
 19 12  1  0
 27 22  1  0
M  CHG 1   2  -1
M  CHG 1  10  -1
M  CHG 1  16  -1
M  CHG 1  18  -1
M  END
> <UniqueID>
26

> <SMILES>
COc1ccccc1C(=O)/N=c1\[n-]cc(S(=O)(=O)[N-]Cc2ccc([O-])c([O-])c2)s1

> <Energy>
79.50362485723623

> <Genealogy>
COc1ccccc1C(=O)N=c1[n-]cc(S(=O)(=O)[N-]Cc2ccc([O-])c([O-])c2)s1 (protonated)
COc1ccccc1C(=O)/N=c1\[n-]cc(S(=O)(=O)[N-]Cc2ccc([O-])c([O-])c2)s1 (cis-trans isomerization)
COc1ccccc1C(=O)/N=c1\[n-]cc(S(=O)(=O)[N-]Cc2ccc([O-])c([O-])c2)s1 (3D coordinates assigned)
COc1ccccc1C(=O)/N=c1\[n-]cc(S(=O)(=O)[N-]Cc2ccc([O-])c([O-])c2)s1 (optimized conformer: 79.50362485723623 kcal/mol)

> <smiles>
COc1ccccc1C(=O)N=c1[nH]cc(S(=O)(=O)NCc2ccc(O)c(O)c2)s1

> <score_type>
oracle

> <origin>
adg

> <m_score__min__energy>
-19.120000000000001

> <m_primary>
energy

> <minimizedAffinity>
-6.56210

> <minimizedRMSD>
1.88707

> <CNNscore>
0.3313204050

> <CNNaffinity>
5.2442111969

> <CNN_VS>
1.7375141382

> <CNNaffinity_variance>
0.2928157747

$$$$
38:0


 30 33  0  0  0  0  0  0  0  0999 V2000
   60.8533   27.7129   49.7088 C   0  0  0  0  0  0  0  0  0  0  0  0
   60.0992   28.5855   49.0201 C   0  0  0  0  0  0  0  0  0  0  0  0
   59.5836   28.4081   47.7285 C   0  0  0  0  0  0  0  0  0  0  0  0
   59.4931   27.3083   46.9563 C   0  0  0  0  0  0  0  0  0  0  0  0
   59.1154   29.6441   47.3276 C   0  0  0  0  0  0  0  0  0  0  0  0
   59.2823   30.5107   48.3930 C   0  0  0  0  0  0  0  0  0  0  0  0
   59.8665   29.8614   49.4328 N   0  0  0  0  0  0  0  0  0  0  0  0
   58.2872   26.4830   46.7806 C   0  0  0  0  0  0  0  0  0  0  0  0
   58.0157   25.3612   47.4754 N   0  0  0  0  0  0  0  0  0  0  0  0
   56.7646   25.0427   47.0766 C   0  0  0  0  0  0  0  0  0  0  0  0
   56.1570   24.0267   47.5020 O   0  0  0  0  0  0  0  0  0  0  0  0
   56.2138   25.9045   46.1947 N   0  0  0  0  0  0  0  0  0  0  0  0
   57.1858   26.8160   46.0305 C   0  0  0  0  0  0  0  0  0  0  0  0
   57.0669   27.9348   45.2149 O   0  0  0  0  0  0  0  0  0  0  0  0
   58.9632   31.9646   48.3603 C   0  0  0  0  0  0  0  0  0  0  0  0
   58.5955   32.5171   49.4329 O   0  0  0  0  0  0  0  0  0  0  0  0
   59.1336   32.7867   47.1774 N   0  0  0  0  0  0  0  0  0  0  0  0
   59.4095   34.2042   47.5025 C   0  0  0  0  0  0  0  0  0  0  0  0
   59.8272   34.9915   46.2431 C   0  0  0  0  0  0  0  0  0  0  0  0
   59.1580   34.4617   44.9628 C   0  0  0  0  0  0  0  0  0  0  0  0
   57.8144   33.7985   45.2704 C   0  0  0  0  0  0  0  0  0  0  0  0
   57.9827   32.6188   46.2510 C   0  0  0  0  0  0  0  0  0  0  0  0
   59.6819   32.3869   47.8906 H   0  0  0  0  0  0  0  0  0  0  0  0
   60.1513   30.4157   50.7689 C   0  0  0  0  0  0  0  0  0  0  0  0
   61.3373   31.3467   50.7247 C   0  0  0  0  0  0  0  0  0  0  0  0
   62.4247   31.0671   49.8802 C   0  0  0  0  0  0  0  0  0  0  0  0
   63.5304   31.9218   49.8480 C   0  0  0  0  0  0  0  0  0  0  0  0
   63.5644   33.0558   50.6643 C   0  0  0  0  0  0  0  0  0  0  0  0
   62.4929   33.3331   51.5173 C   0  0  0  0  0  0  0  0  0  0  0  0
   61.3853   32.4800   51.5529 C   0  0  0  0  0  0  0  0  0  0  0  0
  1  2  2  0
  2  3  1  0
  3  4  2  0
  4  8  1  0
  8  9  1  0
  9 10  1  0
 10 11  2  0
 10 12  1  0
 12 13  1  0
 13 14  1  0
  3  5  1  0
  5  6  2  0
  6 15  1  0
 15 16  2  0
 15 17  1  0
 17 18  1  0
 18 19  1  0
 19 20  1  0
 20 21  1  0
 21 22  1  0
  6  7  1  0
  7 24  1  0
 24 25  1  0
 25 26  2  0
 26 27  1  0
 27 28  2  0
 28 29  1  0
 29 30  2  0
  7  2  1  0
 30 25  1  0
 13  8  2  0
 22 17  1  0
 17 23  1  0
M  CHG 1   9  -1
M  CHG 1  12  -1
M  CHG 1  14  -1
M  CHG 1  17   1
M  END
> <UniqueID>
33

> <SMILES>
C=c1/c(=C\c2[n-]c(=O)[n-]c2[O-])cc(C(=O)[NH+]2CCCCC2)n1Cc1ccccc1

> <Energy>
136.1063927042044

> <Genealogy>
C=c1c(=Cc2[n-]c(=O)[n-]c2[O-])cc(C(=O)[NH+]2CCCCC2)n1Cc1ccccc1 (protonated)
C=c1/c(=C\c2[n-]c(=O)[n-]c2[O-])cc(C(=O)[NH+]2CCCCC2)n1Cc1ccccc1 (cis-trans isomerization)
C=c1/c(=C\c2[n-]c(=O)[n-]c2[O-])cc(C(=O)[NH+]2CCCCC2)n1Cc1ccccc1 (3D coordinates assigned)
C=c1/c(=C\c2[n-]c(=O)[n-]c2[O-])cc(C(=O)[NH+]2CCCCC2)n1Cc1ccccc1 (nonaromatic ring conformer: 136.1063927042044 kcal/mol)

> <smiles>
C=c1c(=Cc2[nH]c(=O)[nH]c2O)cc(C(=O)N2CCCCC2)n1Cc1ccccc1

> <score_type>
oracle

> <origin>
adg

> <m_score__min__energy>
-15.289999999999999

> <m_primary>
energy

> <minimizedAffinity>
-7.76266

> <minimizedRMSD>
1.49048

> <CNNscore>
0.2292445600

> <CNNaffinity>
6.4485602379

> <CNN_VS>
1.4782973528

> <CNNaffinity_variance>
0.1072759703

$$$$
76:0


 28 31  0  0  0  0  0  0  0  0999 V2000
   59.0429   30.3760   46.0005 C   0  0  0  0  0  0  0  0  0  0  0  0
   59.4273   29.8761   47.1884 C   0  0  0  0  0  0  0  0  0  0  0  0
   59.5787   28.5149   47.4974 C   0  0  0  0  0  0  0  0  0  0  0  0
   59.3656   27.4681   46.6709 C   0  0  0  0  0  0  0  0  0  0  0  0
   59.9818   28.4681   48.8258 C   0  0  0  0  0  0  0  0  0  0  0  0
   60.0662   29.7700   49.2612 C   0  0  0  0  0  0  0  0  0  0  0  0
   59.7327   30.6334   48.2761 N   0  0  0  0  0  0  0  0  0  0  0  0
   58.2198   26.5297   46.7321 C   0  0  0  0  0  0  0  0  0  0  0  0
   58.2022   25.3370   47.3561 N   0  0  0  0  0  0  0  0  0  0  0  0
   56.9606   24.8683   47.1088 C   0  0  0  0  0  0  0  0  0  0  0  0
   56.5583   23.7559   47.5394 O   0  0  0  0  0  0  0  0  0  0  0  0
   56.1859   25.6831   46.3646 N   0  0  0  0  0  0  0  0  0  0  0  0
   56.9971   26.7277   46.1337 C   0  0  0  0  0  0  0  0  0  0  0  0
   56.6274   27.8411   45.3888 O   0  0  0  0  0  0  0  0  0  0  0  0
   60.5535   30.2363   50.9244 S   0  0  0  0  0  0  0  0  0  0  0  0
   58.8775   30.1234   51.5375 C   0  0  0  0  0  0  0  0  0  0  0  0
   58.4190   29.0851   52.2703 N   0  0  0  0  0  0  0  0  0  0  0  0
   57.1419   29.2206   52.6243 N   0  0  0  0  0  0  0  0  0  0  0  0
   56.5782   30.3577   52.1631 C   0  0  0  0  0  0  0  0  0  0  0  0
   55.1820   30.7727   52.4793 C   0  0  0  0  0  0  0  0  0  0  0  0
   57.6841   31.2845   51.2940 S   0  0  0  0  0  0  0  0  0  0  0  0
   59.6465   32.0950   48.4288 C   0  0  0  0  0  0  0  0  0  0  0  0
   61.0250   32.7063   48.4532 C   0  0  0  0  0  0  0  0  0  0  0  0
   61.4031   33.5608   49.5026 C   0  0  0  0  0  0  0  0  0  0  0  0
   62.6891   34.1108   49.5352 C   0  0  0  0  0  0  0  0  0  0  0  0
   63.6038   33.8124   48.5248 C   0  0  0  0  0  0  0  0  0  0  0  0
   63.2366   32.9640   47.4761 C   0  0  0  0  0  0  0  0  0  0  0  0
   61.9532   32.4119   47.4402 C   0  0  0  0  0  0  0  0  0  0  0  0
  1  2  2  0
  2  3  1  0
  3  4  2  0
  4  8  1  0
  8  9  1  0
  9 10  1  0
 10 11  2  0
 10 12  1  0
 12 13  1  0
 13 14  1  0
  3  5  1  0
  5  6  2  0
  6 15  1  0
 15 16  1  0
 16 17  2  0
 17 18  1  0
 18 19  2  0
 19 20  1  0
 19 21  1  0
  6  7  1  0
  7 22  1  0
 22 23  1  0
 23 24  2  0
 24 25  1  0
 25 26  2  0
 26 27  1  0
 27 28  2  0
  7  2  1  0
 28 23  1  0
 13  8  2  0
 21 16  1  0
M  CHG 1   9  -1
M  CHG 1  12  -1
M  CHG 1  14  -1
M  END
> <UniqueID>
68

> <SMILES>
C=c1c(=Cc2[n-]c(=O)[n-]c2[O-])cc(Sc2nnc(C)s2)n1Cc1ccccc1

> <Energy>
136.80381571829312

> <Genealogy>
C=c1c(=Cc2[n-]c(=O)[n-]c2[O-])cc(Sc2nnc(C)s2)n1Cc1ccccc1 (protonated)
C=c1c(=Cc2[n-]c(=O)[n-]c2[O-])cc(Sc2nnc(C)s2)n1Cc1ccccc1 (3D coordinates assigned)
C=c1c(=Cc2[n-]c(=O)[n-]c2[O-])cc(Sc2nnc(C)s2)n1Cc1ccccc1 (optimized conformer: 136.80381571829312 kcal/mol)

> <smiles>
C=c1c(=Cc2[nH]c(=O)[nH]c2O)cc(Sc2nnc(C)s2)n1Cc1ccccc1

> <score_type>
oracle

> <origin>
adg

> <m_score__min__energy>
-16.329999999999998

> <m_primary>
energy

> <minimizedAffinity>
-6.69183

> <minimizedRMSD>
1.13394

> <CNNscore>
0.3555811644

> <CNNaffinity>
6.7895622253

> <CNN_VS>
2.4142403603

> <CNNaffinity_variance>
0.1104025841

$$$$
79:0


 35 38  0  0  0  0  0  0  0  0999 V2000
   59.8181   29.1605   49.5255 C   0  0  0  0  0  0  0  0  0  0  0  0
   60.9977   28.7713   49.7416 O   0  0  0  0  0  0  0  0  0  0  0  0
   59.0499   29.7547   50.5879 N   0  0  0  0  0  0  0  0  0  0  0  0
   58.1673   30.8921   50.3024 C   0  0  0  0  0  0  0  0  0  0  0  0
   57.4599   31.3786   51.5745 C   0  0  0  0  0  0  0  0  0  0  0  0
   58.3964   31.6179   52.7052 N   0  0  0  0  0  0  0  0  0  0  0  0
   59.5048   30.6302   52.8159 C   0  0  0  0  0  0  0  0  0  0  0  0
   59.2694   29.3664   51.9847 C   0  0  0  0  0  0  0  0  0  0  0  0
   58.4806   30.2258   44.9923 C   0  0  0  0  0  0  0  0  0  0  0  0
   58.6691   29.5307   46.1245 C   0  0  0  0  0  0  0  0  0  0  0  0
   58.3570   28.1834   46.3329 C   0  0  0  0  0  0  0  0  0  0  0  0
   57.7712   27.3353   45.4622 C   0  0  0  0  0  0  0  0  0  0  0  0
   58.7285   27.8939   47.6387 C   0  0  0  0  0  0  0  0  0  0  0  0
   59.2700   29.0510   48.1606 C   0  0  0  0  0  0  0  0  0  0  0  0
   59.2237   30.0519   47.2491 N   0  0  0  0  0  0  0  0  0  0  0  0
   59.6327   31.4465   47.4561 C   0  0  0  0  0  0  0  0  0  0  0  0
   57.2974   25.9854   45.8170 C   0  0  0  0  0  0  0  0  0  0  0  0
   58.1241   24.9528   46.0620 N   0  0  0  0  0  0  0  0  0  0  0  0
   57.2852   23.9621   46.4374 C   0  0  0  0  0  0  0  0  0  0  0  0
   57.6906   22.8081   46.7381 O   0  0  0  0  0  0  0  0  0  0  0  0
   55.9803   24.3063   46.4759 N   0  0  0  0  0  0  0  0  0  0  0  0
   56.0037   25.5954   46.0951 C   0  0  0  0  0  0  0  0  0  0  0  0
   54.8746   26.4083   46.0475 O   0  0  0  0  0  0  0  0  0  0  0  0
   54.0325   26.0530   46.2540 H   0  0  0  0  0  0  0  0  0  0  0  0
   58.9175   33.0025   52.7199 C   0  0  0  0  0  0  0  0  0  0  0  0
   60.1749   33.1130   51.8980 C   0  0  0  0  0  0  0  0  0  0  0  0
   61.4198   32.7615   52.4454 C   0  0  0  0  0  0  0  0  0  0  0  0
   62.5817   32.8544   51.6738 C   0  0  0  0  0  0  0  0  0  0  0  0
   62.5134   33.2869   50.3386 C   0  0  0  0  0  0  0  0  0  0  0  0
   61.2710   33.6608   49.7990 C   0  0  0  0  0  0  0  0  0  0  0  0
   60.1101   33.5679   50.5707 C   0  0  0  0  0  0  0  0  0  0  0  0
   63.7493   33.3857   49.5368 C   0  0  0  0  0  0  0  0  0  0  0  0
   64.8643   33.2479   50.1117 O   0  0  0  0  0  0  0  0  0  0  0  0
   63.7254   33.5914   48.1172 N   0  0  0  0  0  0  0  0  0  0  0  0
   63.3109   32.5934   47.1380 C   0  0  0  0  0  0  0  0  0  0  0  0
  9 10  2  0
 10 11  1  0
 11 12  2  0
 12 17  1  0
 17 18  1  0
 18 19  1  0
 19 20  2  0
 19 21  1  0
 21 22  1  0
 22 23  1  0
 11 13  1  0
 13 14  2  0
 14  1  1  0
  1  2  2  0
  1  3  1  0
  3  4  1  0
  4  5  1  0
  5  6  1  0
  6 25  1  0
 25 26  1  0
 26 27  2  0
 27 28  1  0
 28 29  2  0
 29 32  1  0
 32 33  2  0
 32 34  1  0
 34 35  1  0
 29 30  1  0
 30 31  2  0
  6  7  1  0
  7  8  1  0
 14 15  1  0
 15 16  1  0
 15 10  1  0
 22 17  2  0
  8  3  1  0
 31 26  1  0
 23 24  1  0
M  CHG 1  18  -1
M  CHG 1  21  -1
M  CHG 1  34  -1
M  END
> <UniqueID>
71

> <SMILES>
C=c1c(=Cc2[n-]c(=O)[n-]c2O)cc(C(=O)N2CCN(Cc3ccc(C(=O)[N-]C)cc3)CC2)n1C

> <Energy>
143.83509137349708

> <Genealogy>
C=c1c(=Cc2[n-]c(=O)[n-]c2O)cc(C(=O)N2CCN(Cc3ccc(C(=O)[N-]C)cc3)CC2)n1C (protonated)
C=c1c(=Cc2[n-]c(=O)[n-]c2O)cc(C(=O)N2CCN(Cc3ccc(C(=O)[N-]C)cc3)CC2)n1C (3D coordinates assigned)
C=c1c(=Cc2[n-]c(=O)[n-]c2O)cc(C(=O)N2CCN(Cc3ccc(C(=O)[N-]C)cc3)CC2)n1C (nonaromatic ring conformer: 143.83509137349708 kcal/mol)

> <smiles>
C=c1c(=Cc2[nH]c(=O)[nH]c2O)cc(C(=O)N2CCN(Cc3ccc(C(=O)NC)cc3)CC2)n1C

> <score_type>
oracle

> <origin>
adg

> <m_score__min__energy>
-15.73

> <m_primary>
energy

> <minimizedAffinity>
-7.83354

> <minimizedRMSD>
0.76703

> <CNNscore>
0.1175466627

> <CNNaffinity>
6.0471377373

> <CNN_VS>
0.7108208537

> <CNNaffinity_variance>
0.1290709972

$$$$
9:0


 27 29  0  0  0  0  0  0  0  0999 V2000
   59.1045   30.7748   49.6062 C   0  0  0  0  0  0  0  0  0  0  0  0
   59.1565   31.2978   50.7531 O   0  0  0  0  0  0  0  0  0  0  0  0
   57.1651   29.9561   45.0180 C   0  0  0  0  0  0  0  0  0  0  0  0
   57.7782   31.3290   44.9803 C   0  0  0  0  0  0  0  0  0  0  0  0
   57.7043   32.0983   43.8071 C   0  0  0  0  0  0  0  0  0  0  0  0
   58.2589   33.3785   43.7627 C   0  0  0  0  0  0  0  0  0  0  0  0
   58.8882   33.9144   44.8870 C   0  0  0  0  0  0  0  0  0  0  0  0
   58.9665   33.1683   46.0764 C   0  0  0  0  0  0  0  0  0  0  0  0
   59.5887   33.6787   47.2319 C   0  0  0  0  0  0  0  0  0  0  0  0
   60.1043   34.8303   47.2354 O   0  0  0  0  0  0  0  0  0  0  0  0
   59.6385   32.9032   48.3925 C   0  0  0  0  0  0  0  0  0  0  0  0
   59.0673   31.6218   48.4012 C   0  0  0  0  0  0  0  0  0  0  0  0
   58.4730   31.1474   47.2735 N   0  0  0  0  0  0  0  0  0  0  0  0
   58.4038   31.8696   46.1215 C   0  0  0  0  0  0  0  0  0  0  0  0
   59.0836   29.3493   49.4678 N   0  0  0  0  0  0  0  0  0  0  0  0
   60.1690   28.5799   48.8735 C   0  0  0  0  0  0  0  0  0  0  0  0
   59.7449   28.0233   47.5417 C   0  0  0  0  0  0  0  0  0  0  0  0
   60.3321   28.4846   46.3536 C   0  0  0  0  0  0  0  0  0  0  0  0
   59.9091   27.9837   45.1186 C   0  0  0  0  0  0  0  0  0  0  0  0
   58.8969   27.0230   45.0604 C   0  0  0  0  0  0  0  0  0  0  0  0
   58.3061   26.5517   46.2402 C   0  0  0  0  0  0  0  0  0  0  0  0
   58.7257   27.0593   47.4776 C   0  0  0  0  0  0  0  0  0  0  0  0
   57.0141   25.3565   46.1677 S   0  0  0  0  0  0  0  0  0  0  0  0
   55.4914   26.1602   46.0438 N   0  0  0  0  0  0  0  0  0  0  0  0
   57.0345   24.5099   47.4085 O   0  0  0  0  0  0  0  0  0  0  0  0
   57.2119   24.4663   44.9724 O   0  0  0  0  0  0  0  0  0  0  0  0
   55.3586   26.7638   46.8553 H   0  0  0  0  0  0  0  0  0  0  0  0
  3  4  1  0
  4  5  2  0
  5  6  1  0
  6  7  2  0
  7  8  1  0
  8  9  1  0
  9 10  2  0
  9 11  1  0
 11 12  2  0
 12  1  1  0
  1  2  2  0
  1 15  1  0
 15 16  1  0
 16 17  1  0
 17 18  2  0
 18 19  1  0
 19 20  2  0
 20 21  1  0
 21 23  1  0
 23 24  1  0
 23 25  2  0
 23 26  2  0
 21 22  2  0
 12 13  1  0
 13 14  1  0
 14  4  1  0
 14  8  2  0
 22 17  1  0
 24 27  1  0
M  CHG 1  13  -1
M  CHG 1  15  -1
M  CHG 1  24  -1
M  END
> <UniqueID>
10

> <SMILES>
Cc1cccc2c(=O)cc(C(=O)[N-]Cc3cccc(S([NH-])(=O)=O)c3)[n-]c12

> <Energy>
44.11813718281883

> <Genealogy>
Cc1cccc2c(=O)cc(C(=O)[N-]Cc3cccc(S([NH-])(=O)=O)c3)[n-]c12 (protonated)
Cc1cccc2c(=O)cc(C(=O)[N-]Cc3cccc(S([NH-])(=O)=O)c3)[n-]c12 (3D coordinates assigned)
Cc1cccc2c(=O)cc(C(=O)[N-]Cc3cccc(S([NH-])(=O)=O)c3)[n-]c12 (optimized conformer: 44.11813718281883 kcal/mol)

> <smiles>
Cc1cccc2c(=O)cc(C(=O)NCc3cccc(S(N)(=O)=O)c3)[nH]c12

> <score_type>
oracle

> <origin>
adg

> <m_score__min__energy>
-14.25

> <m_primary>
energy

> <minimizedAffinity>
-7.83141

> <minimizedRMSD>
1.50062

> <CNNscore>
0.5542539358

> <CNNaffinity>
6.7744164467

> <CNN_VS>
3.7547469139

> <CNNaffinity_variance>
0.0054274932

$$$$
19:0


 28 30  0  0  0  0  0  0  0  0999 V2000
   56.3773   29.6133   44.3815 C   0  0  0  0  0  0  0  0  0  0  0  0
   57.4845   29.5318   45.1312 C   0  0  0  0  0  0  0  0  0  0  0  0
   57.8991   30.6797   45.7332 N   0  0  0  0  0  0  0  0  0  0  0  0
   58.8828   30.7142   46.6650 C   0  0  0  0  0  0  0  0  0  0  0  0
   59.4884   29.5248   47.0860 C   0  0  0  0  0  0  0  0  0  0  0  0
   59.1082   28.3298   46.4767 C   0  0  0  0  0  0  0  0  0  0  0  0
   58.1624   28.3050   45.4306 C   0  0  0  0  0  0  0  0  0  0  0  0
   57.9897   27.1250   44.7845 C   0  0  0  0  0  0  0  0  0  0  0  0
   57.6706   25.8253   45.4042 C   0  0  0  0  0  0  0  0  0  0  0  0
   58.4837   24.7571   45.3436 N   0  0  0  0  0  0  0  0  0  0  0  0
   57.7602   23.7798   45.9325 C   0  0  0  0  0  0  0  0  0  0  0  0
   58.1978   22.6098   46.0824 O   0  0  0  0  0  0  0  0  0  0  0  0
   56.5272   24.1519   46.3389 N   0  0  0  0  0  0  0  0  0  0  0  0
   56.4810   25.4467   45.9844 C   0  0  0  0  0  0  0  0  0  0  0  0
   55.3613   26.2519   46.1596 O   0  0  0  0  0  0  0  0  0  0  0  0
   60.4707   29.4893   48.0869 O   0  0  0  0  0  0  0  0  0  0  0  0
   60.6791   30.5212   49.0490 C   0  0  0  0  0  0  0  0  0  0  0  0
   61.9071   31.3172   48.7032 C   0  0  0  0  0  0  0  0  0  0  0  0
   62.0532   31.7302   47.5201 O   0  0  0  0  0  0  0  0  0  0  0  0
   62.9320   31.5767   49.6881 N   0  0  0  0  0  0  0  0  0  0  0  0
   62.9590   30.8079   50.9453 C   0  0  0  0  0  0  0  0  0  0  0  0
   64.2612   31.0356   51.7200 C   0  0  0  0  0  0  0  0  0  0  0  0
   64.5132   32.5522   51.9250 C   0  0  0  0  0  0  0  0  0  0  0  0
   64.3441   33.3770   50.6167 C   0  0  0  0  0  0  0  0  0  0  0  0
   64.0245   32.5155   49.3879 C   0  0  0  0  0  0  0  0  0  0  0  0
   65.8177   32.8623   52.5720 N   0  0  0  0  0  0  0  0  0  0  0  0
   66.3394   34.2085   52.2708 C   0  0  0  0  0  0  0  0  0  0  0  0
   66.8388   31.8401   52.2913 C   0  0  0  0  0  0  0  0  0  0  0  0
  1  2  2  0
  2  3  1  0
  3  4  2  0
  4  5  1  0
  5 16  1  0
 16 17  1  0
 17 18  1  0
 18 19  2  0
 18 20  1  0
 20 21  1  0
 21 22  1  0
 22 23  1  0
 23 26  1  0
 26 27  1  0
 26 28  1  0
 23 24  1  0
 24 25  1  0
  5  6  2  0
  6  7  1  0
  7  8  2  0
  8  9  1  0
  9 10  1  0
 10 11  1  0
 11 12  2  0
 11 13  1  0
 13 14  1  0
 14 15  1  0
  7  2  1  0
 14  9  2  0
 25 20  1  0
M  CHG 1  10  -1
M  CHG 1  13  -1
M  CHG 1  15  -1
M  END
> <UniqueID>
19

> <SMILES>
C=c1ncc(OCC(=O)N2CCC(N(C)C)CC2)cc1=Cc1[n-]c(=O)[n-]c1[O-]

> <Energy>
107.76320709920046

> <Genealogy>
C=c1ncc(OCC(=O)N2CCC(N(C)C)CC2)cc1=Cc1[n-]c(=O)[n-]c1[O-] (protonated)
C=c1ncc(OCC(=O)N2CCC(N(C)C)CC2)cc1=Cc1[n-]c(=O)[n-]c1[O-] (3D coordinates assigned)
C=c1ncc(OCC(=O)N2CCC(N(C)C)CC2)cc1=Cc1[n-]c(=O)[n-]c1[O-] (nonaromatic ring conformer: 107.76320709920046 kcal/mol)

> <smiles>
C=c1ncc(OCC(=O)N2CCC(N(C)C)CC2)cc1=Cc1[nH]c(=O)[nH]c1O

> <score_type>
oracle

> <origin>
adg

> <m_score__min__energy>
-17.300000000000001

> <m_primary>
energy

> <minimizedAffinity>
-7.11047

> <minimizedRMSD>
0.84815

> <CNNscore>
0.1140603051

> <CNNaffinity>
5.5381336212

> <CNN_VS>
0.6316812038

> <CNNaffinity_variance>
0.1432843059

$$$$
32:0


 32 35  0  0  0  0  0  0  0  0999 V2000
   54.8350   30.3228   52.2082 C   0  0  0  0  0  0  0  0  0  0  0  0
   54.7007   30.1469   53.5310 C   0  0  0  0  0  0  0  0  0  0  0  0
   53.4973   30.0775   54.2474 C   0  0  0  0  0  0  0  0  0  0  0  0
   52.2550   30.2796   53.7651 C   0  0  0  0  0  0  0  0  0  0  0  0
   53.8438   29.8752   55.5760 C   0  0  0  0  0  0  0  0  0  0  0  0
   55.2278   29.8542   55.6230 C   0  0  0  0  0  0  0  0  0  0  0  0
   56.0260   29.7232   56.8839 C   0  0  0  0  0  0  0  0  0  0  0  0
   55.7463   29.9996   54.3794 N   0  0  0  0  0  0  0  0  0  0  0  0
   57.1356   30.1122   54.0435 C   0  0  0  0  0  0  0  0  0  0  0  0
   57.7587   29.1049   53.6175 O   0  0  0  0  0  0  0  0  0  0  0  0
   57.8363   31.3425   54.2501 N   0  0  0  0  0  0  0  0  0  0  0  0
   58.0743   32.2344   53.1156 C   0  0  0  0  0  0  0  0  0  0  0  0
   59.5273   32.0844   52.6504 C   0  0  0  0  0  0  0  0  0  0  0  0
   60.4456   31.8813   53.7915 N   0  0  0  0  0  0  0  0  0  0  0  0
   61.8403   31.5936   53.6061 C   0  0  0  0  0  0  0  0  0  0  0  0
   62.2809   30.4729   53.9852 O   0  0  0  0  0  0  0  0  0  0  0  0
   62.7622   32.5835   53.1112 N   0  0  0  0  0  0  0  0  0  0  0  0
   64.1504   32.5927   53.5820 C   0  0  0  0  0  0  0  0  0  0  0  0
   65.0671   32.2356   52.4055 C   0  0  0  0  0  0  0  0  0  0  0  0
   64.7986   33.0505   51.1842 N   0  0  0  0  0  0  0  0  0  0  0  0
   64.6377   32.2016   49.9951 C   0  0  0  0  0  0  0  0  0  0  0  0
   63.6827   34.0249   51.3071 C   0  0  0  0  0  0  0  0  0  0  0  0
   62.4229   33.4096   51.9481 C   0  0  0  0  0  0  0  0  0  0  0  0
   59.9962   32.2038   55.1562 C   0  0  0  0  0  0  0  0  0  0  0  0
   58.6514   31.5093   55.4651 C   0  0  0  0  0  0  0  0  0  0  0  0
   51.9317   30.4571   52.3364 C   0  0  0  0  0  0  0  0  0  0  0  0
   52.1327   29.5393   51.3658 N   0  0  0  0  0  0  0  0  0  0  0  0
   51.7322   30.1815   50.2452 C   0  0  0  0  0  0  0  0  0  0  0  0
   51.7340   29.6345   49.1084 O   0  0  0  0  0  0  0  0  0  0  0  0
   51.3118   31.4492   50.4352 N   0  0  0  0  0  0  0  0  0  0  0  0
   51.4524   31.6107   51.7604 C   0  0  0  0  0  0  0  0  0  0  0  0
   51.1468   32.7901   52.4372 O   0  0  0  0  0  0  0  0  0  0  0  0
  1  2  2  0
  2  3  1  0
  3  4  2  0
  4 26  1  0
 26 27  1  0
 27 28  1  0
 28 29  2  0
 28 30  1  0
 30 31  1  0
 31 32  1  0
  3  5  1  0
  5  6  2  0
  6  7  1  0
  6  8  1  0
  8  9  1  0
  9 10  2  0
  9 11  1  0
 11 12  1  0
 12 13  1  0
 13 14  1  0
 14 15  1  0
 15 16  2  0
 15 17  1  0
 17 18  1  0
 18 19  1  0
 19 20  1  0
 20 21  1  0
 20 22  1  0
 22 23  1  0
 14 24  1  0
 24 25  1  0
  8  2  1  0
 25 11  1  0
 31 26  2  0
 23 17  1  0
M  CHG 1  27  -1
M  CHG 1  30  -1
M  CHG 1  32  -1
M  END
> <UniqueID>
32

> <SMILES>
C=c1c(=Cc2[n-]c(=O)[n-]c2[O-])cc(C)n1C(=O)N1CCN(C(=O)N2CCN(C)CC2)CC1

> <Energy>
157.67000606430585

> <Genealogy>
C=c1c(=Cc2[n-]c(=O)[n-]c2[O-])cc(C)n1C(=O)N1CCN(C(=O)N2CCN(C)CC2)CC1 (protonated)
C=c1c(=Cc2[n-]c(=O)[n-]c2[O-])cc(C)n1C(=O)N1CCN(C(=O)N2CCN(C)CC2)CC1 (3D coordinates assigned)
C=c1c(=Cc2[n-]c(=O)[n-]c2[O-])cc(C)n1C(=O)N1CCN(C(=O)N2CCN(C)CC2)CC1 (nonaromatic ring conformer: 157.67000606430585 kcal/mol)

> <smiles>
C=c1c(=Cc2[nH]c(=O)[nH]c2O)cc(C)n1C(=O)N1CCN(C(=O)N2CCN(C)CC2)CC1

> <score_type>
oracle

> <origin>
adg

> <m_score__min__energy>
-17.649999999999999

> <m_primary>
energy

> <minimizedAffinity>
-6.18860

> <minimizedRMSD>
1.44167

> <CNNscore>
0.0892754793

> <CNNaffinity>
4.4822144508

> <CNN_VS>
0.4001518488

> <CNNaffinity_variance>
0.6745099425

$$$$
38:0


 40 44  0  0  0  0  0  0  0  0999 V2000
   60.3427   31.0272   50.9632 C   0  0  0  0  0  0  0  0  0  0  0  0
   59.0918   30.8747   51.0424 O   0  0  0  0  0  0  0  0  0  0  0  0
   60.8800   32.2522   50.4237 N   0  0  0  0  0  0  0  0  0  0  0  0
   60.0866   33.4849   50.4740 C   0  0  0  0  0  0  0  0  0  0  0  0
   59.5154   33.7652   49.0803 C   0  0  0  0  0  0  0  0  0  0  0  0
   60.5093   33.4629   48.0389 N   0  0  0  0  0  0  0  0  0  0  0  0
   60.0809   33.2956   46.6810 C   0  0  0  0  0  0  0  0  0  0  0  0
   60.3477   34.1937   45.8407 O   0  0  0  0  0  0  0  0  0  0  0  0
   61.9158   33.2515   48.3917 C   0  0  0  0  0  0  0  0  0  0  0  0
   62.0274   32.1914   49.5023 C   0  0  0  0  0  0  0  0  0  0  0  0
   59.3249   32.0863   46.2686 C   0  0  0  0  0  0  0  0  0  0  0  0
   58.3443   32.1699   45.2431 C   0  0  0  0  0  0  0  0  0  0  0  0
   57.6112   31.0340   44.8524 C   0  0  0  0  0  0  0  0  0  0  0  0
   57.8765   29.8293   45.4988 C   0  0  0  0  0  0  0  0  0  0  0  0
   57.2727   28.6465   45.2784 N   0  0  0  0  0  0  0  0  0  0  0  0
   57.8723   27.7991   46.1525 C   0  0  0  0  0  0  0  0  0  0  0  0
   58.8434   28.4379   46.9157 C   0  0  0  0  0  0  0  0  0  0  0  0
   58.8249   29.7394   46.4788 C   0  0  0  0  0  0  0  0  0  0  0  0
   59.5719   30.8384   46.8881 C   0  0  0  0  0  0  0  0  0  0  0  0
   57.5152   26.3815   46.2628 C   0  0  0  0  0  0  0  0  0  0  0  0
   58.4117   25.5004   46.3010 O   0  0  0  0  0  0  0  0  0  0  0  0
   56.1778   26.0050   46.3239 O   0  0  0  0  0  0  0  0  0  0  0  0
   61.6702   27.5222   51.5294 C   0  0  0  0  0  0  0  0  0  0  0  0
   60.8442   28.5889   51.1337 C   0  0  0  0  0  0  0  0  0  0  0  0
   61.2286   29.9186   51.3667 C   0  0  0  0  0  0  0  0  0  0  0  0
   62.4540   30.1830   51.9939 C   0  0  0  0  0  0  0  0  0  0  0  0
   63.2766   29.1295   52.4024 C   0  0  0  0  0  0  0  0  0  0  0  0
   62.8892   27.7980   52.1821 C   0  0  0  0  0  0  0  0  0  0  0  0
   63.7129   26.7584   52.6118 O   0  0  0  0  0  0  0  0  0  0  0  0
   64.5215   26.9498   53.0448 H   0  0  0  0  0  0  0  0  0  0  0  0
   61.2191   26.1067   51.2670 C   0  0  0  0  0  0  0  0  0  0  0  0
   60.7264   24.6473   55.8018 C   0  0  0  0  0  0  0  0  0  0  0  0
   61.1265   24.6297   54.5270 C   0  0  0  0  0  0  0  0  0  0  0  0
   60.7714   25.6178   53.6820 N   0  0  0  0  0  0  0  0  0  0  0  0
   61.3355   25.2781   52.5092 C   0  0  0  0  0  0  0  0  0  0  0  0
   62.0331   24.1303   52.5634 N   0  0  0  0  0  0  0  0  0  0  0  0
   61.9148   23.6969   53.8344 C   0  0  0  0  0  0  0  0  0  0  0  0
   62.5077   22.5424   54.2395 C   0  0  0  0  0  0  0  0  0  0  0  0
   62.0743   21.2408   53.5999 C   0  0  0  0  0  0  0  0  0  0  0  0
   63.5807   22.4795   55.2955 C   0  0  0  0  0  0  0  0  0  0  0  0
 32 33  2  0
 33 34  1  0
 34 35  1  0
 35 31  1  0
 31 23  1  0
 23 24  2  0
 24 25  1  0
 25  1  1  0
  1  2  2  0
  1  3  1  0
  3  4  1  0
  4  5  1  0
  5  6  1  0
  6  7  1  0
  7  8  2  0
  7 11  1  0
 11 12  2  0
 12 13  1  0
 13 14  2  0
 14 15  1  0
 15 16  1  0
 16 20  1  0
 20 21  2  0
 20 22  1  0
 16 17  2  0
 17 18  1  0
 18 19  2  0
  6  9  1  0
  9 10  1  0
 25 26  2  0
 26 27  1  0
 27 28  2  0
 28 29  1  0
 35 36  2  0
 36 37  1  0
 37 38  2  0
 38 39  1  0
 38 40  1  0
 37 33  1  0
 28 23  1  0
 10  3  1  0
 19 11  1  0
 18 14  1  0
 29 30  1  0
M  CHG 1  15  -1
M  CHG 1  22  -1
M  CHG 1  34  -1
M  END
> <UniqueID>
38

> <SMILES>
C=c1[n-]c(Cc2cc(C(=O)N3CCN(C(=O)c4ccc5[n-]c(C(=O)[O-])cc5c4)CC3)ccc2O)nc1=C(C)C

> <Energy>
144.17675309382935

> <Genealogy>
C=c1[n-]c(Cc2cc(C(=O)N3CCN(C(=O)c4ccc5[n-]c(C(=O)[O-])cc5c4)CC3)ccc2O)nc1=C(C)C (protonated)
C=c1[n-]c(Cc2cc(C(=O)N3CCN(C(=O)c4ccc5[n-]c(C(=O)[O-])cc5c4)CC3)ccc2O)nc1=C(C)C (3D coordinates assigned)
C=c1[n-]c(Cc2cc(C(=O)N3CCN(C(=O)c4ccc5[n-]c(C(=O)[O-])cc5c4)CC3)ccc2O)nc1=C(C)C (nonaromatic ring conformer: 144.17675309382935 kcal/mol)

> <smiles>
C=c1[nH]c(Cc2cc(C(=O)N3CCN(C(=O)c4ccc5[nH]c(C(=O)O)cc5c4)CC3)ccc2O)nc1=C(C)C

> <score_type>
oracle

> <origin>
adg

> <m_score__min__energy>
-15.720000000000001

> <m_primary>
energy

> <minimizedAffinity>
-8.25956

> <minimizedRMSD>
1.60342

> <CNNscore>
0.1427008212

> <CNNaffinity>
6.3636584282

> <CNN_VS>
0.9080992937

> <CNNaffinity_variance>
0.1338296086

$$$$
45:0


 30 32  0  0  0  0  0  0  0  0999 V2000
   56.4369   30.8050   52.8523 C   0  0  0  0  0  0  0  0  0  0  0  0
   55.2044   30.8682   52.2422 C   0  0  0  0  0  0  0  0  0  0  0  0
   54.3560   30.0565   52.9661 C   0  0  0  0  0  0  0  0  0  0  0  0
   53.0412   29.9516   52.6885 C   0  0  0  0  0  0  0  0  0  0  0  0
   55.1389   29.4647   53.9733 C   0  0  0  0  0  0  0  0  0  0  0  0
   54.7615   28.4402   54.7536 C   0  0  0  0  0  0  0  0  0  0  0  0
   56.4060   29.9739   53.9276 N   0  0  0  0  0  0  0  0  0  0  0  0
   52.3968   30.3403   51.4220 C   0  0  0  0  0  0  0  0  0  0  0  0
   52.3026   29.5516   50.3347 N   0  0  0  0  0  0  0  0  0  0  0  0
   51.5271   30.2707   49.4946 C   0  0  0  0  0  0  0  0  0  0  0  0
   51.2182   29.8660   48.3447 O   0  0  0  0  0  0  0  0  0  0  0  0
   51.0988   31.4525   49.9897 N   0  0  0  0  0  0  0  0  0  0  0  0
   51.6486   31.4719   51.2149 C   0  0  0  0  0  0  0  0  0  0  0  0
   51.4637   32.5031   52.1281 O   0  0  0  0  0  0  0  0  0  0  0  0
   57.5302   29.7752   54.8724 C   0  0  0  0  0  0  0  0  0  0  0  0
   58.1332   31.1055   55.3453 C   0  0  0  0  0  0  0  0  0  0  0  0
   58.5865   28.8096   54.3157 C   0  0  0  0  0  0  0  0  0  0  0  0
   57.6098   31.5552   52.3552 C   0  0  0  0  0  0  0  0  0  0  0  0
   57.5643   32.8165   52.3722 O   0  0  0  0  0  0  0  0  0  0  0  0
   60.7136   31.7676   49.6624 N   0  0  0  0  0  0  0  0  0  0  0  0
   61.0702   31.1710   50.9766 C   0  0  0  0  0  0  0  0  0  0  0  0
   60.0103   31.4762   52.0439 C   0  0  0  0  0  0  0  0  0  0  0  0
   58.7002   30.8734   51.6856 N   0  0  0  0  0  0  0  0  0  0  0  0
   58.4543   30.8311   50.2194 C   0  0  0  0  0  0  0  0  0  0  0  0
   59.2485   31.9082   49.4632 C   0  0  0  0  0  0  0  0  0  0  0  0
   58.9786   31.4888   50.9694 H   0  0  0  0  0  0  0  0  0  0  0  0
   61.3424   31.0343   48.5425 C   0  0  0  0  0  0  0  0  0  0  0  0
   61.7732   33.0068   47.2273 O   0  0  0  0  0  0  0  0  0  0  0  0
   62.3875   31.8962   47.8220 C   0  0  0  0  0  0  0  0  0  0  0  0
   62.4431   33.5434   46.7754 H   0  0  0  0  0  0  0  0  0  0  0  0
 28 29  1  0
 29 27  1  0
 27 20  1  0
 20 21  1  0
 21 22  1  0
 22 23  1  0
 23 18  1  0
 18 19  2  0
 18  1  1  0
  1  2  2  0
  2  3  1  0
  3  4  2  0
  4  8  1  0
  8  9  1  0
  9 10  1  0
 10 11  2  0
 10 12  1  0
 12 13  1  0
 13 14  1  0
  3  5  1  0
  5  6  2  0
  5  7  1  0
  7 15  1  0
 15 16  1  0
 15 17  1  0
 23 24  1  0
 24 25  1  0
 25 20  1  0
  7  1  1  0
 13  8  2  0
 28 30  1  0
 23 26  1  0
M  CHG 1   9  -1
M  CHG 1  12  -1
M  CHG 1  14  -1
M  CHG 1  23   1
M  END
> <UniqueID>
44

> <SMILES>
C=c1/c(=C\c2[n-]c(=O)[n-]c2[O-])cc(C(=O)[NH+]2CCN(CCO)CC2)n1C(C)C

> <Energy>
143.05242615264075

> <Genealogy>
C=c1c(=Cc2[n-]c(=O)[n-]c2[O-])cc(C(=O)[NH+]2CCN(CCO)CC2)n1C(C)C (protonated)
C=c1/c(=C\c2[n-]c(=O)[n-]c2[O-])cc(C(=O)[NH+]2CCN(CCO)CC2)n1C(C)C (cis-trans isomerization)
C=c1/c(=C\c2[n-]c(=O)[n-]c2[O-])cc(C(=O)[NH+]2CCN(CCO)CC2)n1C(C)C (3D coordinates assigned)
C=c1/c(=C\c2[n-]c(=O)[n-]c2[O-])cc(C(=O)[NH+]2CCN(CCO)CC2)n1C(C)C (nonaromatic ring conformer: 143.05242615264075 kcal/mol)

> <smiles>
C=c1c(=Cc2[nH]c(=O)[nH]c2O)cc(C(=O)N2CCN(CCO)CC2)n1C(C)C

> <score_type>
oracle

> <origin>
adg

> <m_score__min__energy>
-14.359999999999999

> <m_primary>
energy

> <minimizedAffinity>
-4.87145

> <minimizedRMSD>
0.90328

> <CNNscore>
0.0508181341

> <CNNaffinity>
4.4619903564

> <CNN_VS>
0.2267500311

> <CNNaffinity_variance>
0.3776908815

$$$$
51:0


 33 35  0  0  0  0  0  0  0  0999 V2000
   57.0608   33.9791   44.9852 O   0  0  0  0  0  0  0  0  0  0  0  0
   57.5758   32.8917   45.3550 C   0  0  0  0  0  0  0  0  0  0  0  0
   58.8680   32.9193   46.0686 C   0  0  0  0  0  0  0  0  0  0  0  0
   59.5952   34.1158   46.1510 C   0  0  0  0  0  0  0  0  0  0  0  0
   60.8216   34.1521   46.8219 C   0  0  0  0  0  0  0  0  0  0  0  0
   61.3247   32.9948   47.4334 C   0  0  0  0  0  0  0  0  0  0  0  0
   60.5915   31.8046   47.3678 C   0  0  0  0  0  0  0  0  0  0  0  0
   59.3658   31.7674   46.6981 C   0  0  0  0  0  0  0  0  0  0  0  0
   62.8736   33.0308   48.2716 S   0  0  0  0  0  0  0  0  0  0  0  0
   63.3235   31.6136   48.4949 O   0  0  0  0  0  0  0  0  0  0  0  0
   63.8886   33.7443   47.4245 O   0  0  0  0  0  0  0  0  0  0  0  0
   62.6839   33.8531   49.8066 N   0  0  0  0  0  0  0  0  0  0  0  0
   63.7966   33.5532   50.7351 C   0  0  0  0  0  0  0  0  0  0  0  0
   63.4272   32.4872   51.7812 C   0  0  0  0  0  0  0  0  0  0  0  0
   62.5250   31.5550   51.2319 O   0  0  0  0  0  0  0  0  0  0  0  0
   61.2661   32.1653   51.0066 C   0  0  0  0  0  0  0  0  0  0  0  0
   61.3641   33.5896   50.4073 C   0  0  0  0  0  0  0  0  0  0  0  0
   56.8977   31.6660   45.0475 N   0  0  0  0  0  0  0  0  0  0  0  0
   57.3366   30.6647   44.0791 C   0  0  0  0  0  0  0  0  0  0  0  0
   57.2098   29.2543   44.6624 C   0  0  0  0  0  0  0  0  0  0  0  0
   58.5874   28.6294   44.8991 C   0  0  0  0  0  0  0  0  0  0  0  0
   58.5031   27.1715   44.8755 N   0  0  0  0  0  0  0  0  0  0  0  0
   58.0468   26.3424   45.9540 C   0  0  0  0  0  0  0  0  0  0  0  0
   58.1750   26.7606   47.1353 O   0  0  0  0  0  0  0  0  0  0  0  0
   57.4449   25.0137   45.7240 C   0  0  0  0  0  0  0  0  0  0  0  0
   58.2603   23.9221   45.3831 C   0  0  0  0  0  0  0  0  0  0  0  0
   57.6946   22.6639   45.1544 C   0  0  0  0  0  0  0  0  0  0  0  0
   56.3080   22.4874   45.2488 C   0  0  0  0  0  0  0  0  0  0  0  0
   55.7342   21.2381   45.0230 O   0  0  0  0  0  0  0  0  0  0  0  0
   55.4912   23.5750   45.5723 C   0  0  0  0  0  0  0  0  0  0  0  0
   56.0511   24.8363   45.8041 C   0  0  0  0  0  0  0  0  0  0  0  0
   55.2183   25.9019   46.1275 O   0  0  0  0  0  0  0  0  0  0  0  0
   56.2768   20.5056   44.8059 H   0  0  0  0  0  0  0  0  0  0  0  0
  1  2  2  0
  2 18  1  0
 18 19  1  0
 19 20  1  0
 20 21  1  0
 21 22  1  0
 22 23  1  0
 23 24  2  0
 23 25  1  0
 25 26  2  0
 26 27  1  0
 27 28  2  0
 28 29  1  0
 28 30  1  0
 30 31  2  0
 31 32  1  0
  2  3  1  0
  3  4  2  0
  4  5  1  0
  5  6  2  0
  6  9  1  0
  9 10  2  0
  9 11  2  0
  9 12  1  0
 12 13  1  0
 13 14  1  0
 14 15  1  0
 15 16  1  0
 16 17  1  0
  6  7  1  0
  7  8  2  0
 31 25  1  0
  8  3  1  0
 17 12  1  0
 29 33  1  0
M  CHG 1  18  -1
M  CHG 1  22  -1
M  CHG 1  32  -1
M  END
> <UniqueID>
50

> <SMILES>
O=C([N-]CCC[N-]C(=O)c1ccc(O)cc1[O-])c1ccc(S(=O)(=O)N2CCOCC2)cc1

> <Energy>
70.12928668354726

> <Genealogy>
O=C([N-]CCC[N-]C(=O)c1ccc(O)cc1[O-])c1ccc(S(=O)(=O)N2CCOCC2)cc1 (protonated)
O=C([N-]CCC[N-]C(=O)c1ccc(O)cc1[O-])c1ccc(S(=O)(=O)N2CCOCC2)cc1 (3D coordinates assigned)
O=C([N-]CCC[N-]C(=O)c1ccc(O)cc1[O-])c1ccc(S(=O)(=O)N2CCOCC2)cc1 (nonaromatic ring conformer: 70.12928668354726 kcal/mol)

> <smiles>
O=C(NCCCNC(=O)c1ccc(O)cc1O)c1ccc(S(=O)(=O)N2CCOCC2)cc1

> <score_type>
oracle

> <origin>
adg

> <m_score__min__energy>
-16.809999999999999

> <m_primary>
energy

> <minimizedAffinity>
-7.99302

> <minimizedRMSD>
1.78010

> <CNNscore>
0.2175781727

> <CNNaffinity>
6.3079209328

> <CNN_VS>
1.3724659681

> <CNNaffinity_variance>
0.0769954696

$$$$
58:0


 24 25  0  0  0  0  0  0  0  0999 V2000
   56.8493   32.4919   45.4213 O   0  0  0  0  0  0  0  0  0  0  0  0
   58.0352   32.0828   45.2890 C   0  0  0  0  0  0  0  0  0  0  0  0
   58.3030   30.6831   44.8800 C   0  0  0  0  0  0  0  0  0  0  0  0
   59.4976   30.2987   44.7543 O   0  0  0  0  0  0  0  0  0  0  0  0
   57.2194   29.7151   44.6173 C   0  0  0  0  0  0  0  0  0  0  0  0
   56.6198   29.7097   43.5087 O   0  0  0  0  0  0  0  0  0  0  0  0
   56.8866   28.7458   45.6194 N   0  0  0  0  0  0  0  0  0  0  0  0
   57.5949   27.5217   45.8600 C   0  0  0  0  0  0  0  0  0  0  0  0
   58.9921   27.5651   45.9630 C   0  0  0  0  0  0  0  0  0  0  0  0
   59.7198   26.3971   46.2065 C   0  0  0  0  0  0  0  0  0  0  0  0
   59.0563   25.1791   46.3671 C   0  0  0  0  0  0  0  0  0  0  0  0
   57.6615   25.1297   46.3006 C   0  0  0  0  0  0  0  0  0  0  0  0
   56.9250   26.2965   46.0633 C   0  0  0  0  0  0  0  0  0  0  0  0
   55.5371   26.2307   46.0670 O   0  0  0  0  0  0  0  0  0  0  0  0
   59.1601   33.0291   45.5978 C   0  0  0  0  0  0  0  0  0  0  0  0
   59.4360   33.0459   47.0769 C   0  0  0  0  0  0  0  0  0  0  0  0
   60.1136   34.1268   47.6632 C   0  0  0  0  0  0  0  0  0  0  0  0
   60.3920   34.1248   49.0323 C   0  0  0  0  0  0  0  0  0  0  0  0
   60.0053   33.0423   49.8274 C   0  0  0  0  0  0  0  0  0  0  0  0
   60.2884   33.0487   51.1880 O   0  0  0  0  0  0  0  0  0  0  0  0
   59.3364   31.9542   49.2519 C   0  0  0  0  0  0  0  0  0  0  0  0
   58.9572   30.8755   50.0497 O   0  0  0  0  0  0  0  0  0  0  0  0
   59.0558   31.9565   47.8777 C   0  0  0  0  0  0  0  0  0  0  0  0
   59.1481   30.8813   50.9671 H   0  0  0  0  0  0  0  0  0  0  0  0
  1  2  2  0
  2 15  1  0
 15 16  1  0
 16 17  2  0
 17 18  1  0
 18 19  2  0
 19 20  1  0
 19 21  1  0
 21 22  1  0
 21 23  2  0
  2  3  1  0
  3  4  2  0
  3  5  1  0
  5  6  2  0
  5  7  1  0
  7  8  1  0
  8  9  2  0
  9 10  1  0
 10 11  2  0
 11 12  1  0
 12 13  2  0
 13 14  1  0
 23 16  1  0
 13  8  1  0
 22 24  1  0
M  CHG 1   7  -1
M  CHG 1  14  -1
M  CHG 1  20  -1
M  END
> <UniqueID>
57

> <SMILES>
O=C(Cc1ccc([O-])c(O)c1)C(=O)C(=O)[N-]c1ccccc1[O-]

> <Energy>
37.48439081365683

> <Genealogy>
O=C(Cc1ccc([O-])c(O)c1)C(=O)C(=O)[N-]c1ccccc1[O-] (protonated)
O=C(Cc1ccc([O-])c(O)c1)C(=O)C(=O)[N-]c1ccccc1[O-] (3D coordinates assigned)
O=C(Cc1ccc([O-])c(O)c1)C(=O)C(=O)[N-]c1ccccc1[O-] (optimized conformer: 37.48439081365683 kcal/mol)

> <smiles>
O=C(Cc1ccc(O)c(O)c1)C(=O)C(=O)Nc1ccccc1O

> <score_type>
oracle

> <origin>
adg

> <m_score__min__energy>
-14.039999999999999

> <m_primary>
energy

> <minimizedAffinity>
-6.33687

> <minimizedRMSD>
1.07551

> <CNNscore>
0.7765868902

> <CNNaffinity>
6.3093147278

> <CNN_VS>
4.8997311592

> <CNNaffinity_variance>
0.4177513421

$$$$
67:0


 28 30  0  0  0  0  0  0  0  0999 V2000
   59.7486   27.3340   47.3138 C   0  0  0  0  0  0  0  0  0  0  0  0
   59.1583   27.0077   46.1521 C   0  0  0  0  0  0  0  0  0  0  0  0
   58.5583   25.7792   45.8236 C   0  0  0  0  0  0  0  0  0  0  0  0
   58.5495   24.5953   46.4674 C   0  0  0  0  0  0  0  0  0  0  0  0
   57.9174   25.9714   44.6131 C   0  0  0  0  0  0  0  0  0  0  0  0
   58.1776   27.2679   44.2218 C   0  0  0  0  0  0  0  0  0  0  0  0
   57.6871   27.8861   42.9467 C   0  0  0  0  0  0  0  0  0  0  0  0
   58.9504   27.8933   45.1398 N   0  0  0  0  0  0  0  0  0  0  0  0
   57.6705   23.4502   46.1533 C   0  0  0  0  0  0  0  0  0  0  0  0
   56.3279   23.4596   46.5539 C   0  0  0  0  0  0  0  0  0  0  0  0
   55.8172   24.5178   47.2976 O   0  0  0  0  0  0  0  0  0  0  0  0
   55.5147   22.4232   46.2239 N   0  0  0  0  0  0  0  0  0  0  0  0
   55.9753   21.3756   45.4945 C   0  0  0  0  0  0  0  0  0  0  0  0
   55.2039   20.4239   45.2059 O   0  0  0  0  0  0  0  0  0  0  0  0
   57.2641   21.3565   45.0700 N   0  0  0  0  0  0  0  0  0  0  0  0
   58.1176   22.3694   45.3725 C   0  0  0  0  0  0  0  0  0  0  0  0
   59.3015   22.3303   44.9425 O   0  0  0  0  0  0  0  0  0  0  0  0
   59.3771   29.2993   45.0662 C   0  0  0  0  0  0  0  0  0  0  0  0
   58.4425   30.1717   45.8598 C   0  0  0  0  0  0  0  0  0  0  0  0
   57.2467   30.2955   45.4854 O   0  0  0  0  0  0  0  0  0  0  0  0
   58.8887   30.9209   46.9992 N   0  0  0  0  0  0  0  0  0  0  0  0
   60.1227   31.6425   47.1123 C   0  0  0  0  0  0  0  0  0  0  0  0
   60.1539   32.9939   46.7441 C   0  0  0  0  0  0  0  0  0  0  0  0
   61.3352   33.7332   46.8689 C   0  0  0  0  0  0  0  0  0  0  0  0
   62.4876   33.1294   47.3834 C   0  0  0  0  0  0  0  0  0  0  0  0
   63.6311   33.8471   47.5061 F   0  0  0  0  0  0  0  0  0  0  0  0
   62.4557   31.7902   47.7797 C   0  0  0  0  0  0  0  0  0  0  0  0
   61.2762   31.0485   47.6543 C   0  0  0  0  0  0  0  0  0  0  0  0
  1  2  2  0
  2  3  1  0
  3  4  2  0
  4  9  1  0
  9 10  2  0
 10 11  1  0
 10 12  1  0
 12 13  1  0
 13 14  2  0
 13 15  1  0
 15 16  1  0
 16 17  2  0
  3  5  1  0
  5  6  2  0
  6  7  1  0
  6  8  1  0
  8 18  1  0
 18 19  1  0
 19 20  2  0
 19 21  1  0
 21 22  1  0
 22 23  2  0
 23 24  1  0
 24 25  2  0
 25 26  1  0
 25 27  1  0
 27 28  2  0
  8  2  1  0
 28 22  1  0
 16  9  1  0
M  CHG 1  11  -1
M  CHG 1  12  -1
M  CHG 1  15  -1
M  CHG 1  21  -1
M  END
> <UniqueID>
65

> <SMILES>
C=c1c(=Cc2c([O-])[n-]c(=O)[n-]c2=O)cc(C)n1CC(=O)[N-]c1ccc(F)cc1

> <Energy>
90.38419001054494

> <Genealogy>
C=c1c(=Cc2c([O-])[n-]c(=O)[n-]c2=O)cc(C)n1CC(=O)[N-]c1ccc(F)cc1 (protonated)
C=c1c(=Cc2c([O-])[n-]c(=O)[n-]c2=O)cc(C)n1CC(=O)[N-]c1ccc(F)cc1 (3D coordinates assigned)
C=c1c(=Cc2c([O-])[n-]c(=O)[n-]c2=O)cc(C)n1CC(=O)[N-]c1ccc(F)cc1 (optimized conformer: 90.38419001054494 kcal/mol)

> <smiles>
C=c1c(=Cc2c(O)[nH]c(=O)[nH]c2=O)cc(C)n1CC(=O)Nc1ccc(F)cc1

> <score_type>
oracle

> <origin>
adg

> <m_score__min__energy>
-17.460000000000001

> <m_primary>
energy

> <minimizedAffinity>
-7.97158

> <minimizedRMSD>
2.30549

> <CNNscore>
0.1097236127

> <CNNaffinity>
6.4542183876

> <CNN_VS>
0.7081801295

> <CNNaffinity_variance>
0.1429407150

$$$$
79:0


 28 30  0  0  0  0  0  0  0  0999 V2000
   58.3161   29.4619   46.2356 C   0  0  0  0  0  0  0  0  0  0  0  0
   59.0446   30.5613   46.7112 C   0  0  0  0  0  0  0  0  0  0  0  0
   58.7503   31.8585   46.2765 C   0  0  0  0  0  0  0  0  0  0  0  0
   57.7064   32.0363   45.3551 C   0  0  0  0  0  0  0  0  0  0  0  0
   57.4046   33.1839   44.9319 O   0  0  0  0  0  0  0  0  0  0  0  0
   57.0038   30.9624   44.9090 N   0  0  0  0  0  0  0  0  0  0  0  0
   57.2661   29.6945   45.3196 C   0  0  0  0  0  0  0  0  0  0  0  0
   56.4557   28.6650   44.8392 O   0  0  0  0  0  0  0  0  0  0  0  0
   55.7677   28.8548   44.2320 H   0  0  0  0  0  0  0  0  0  0  0  0
   59.7015   33.2211   46.8933 S   0  0  0  0  0  0  0  0  0  0  0  0
   60.4392   33.8810   45.7610 O   0  0  0  0  0  0  0  0  0  0  0  0
   58.7687   34.2394   47.4882 O   0  0  0  0  0  0  0  0  0  0  0  0
   60.8490   32.7085   48.1104 N   0  0  0  0  0  0  0  0  0  0  0  0
   62.0228   32.0284   47.5098 C   0  0  0  0  0  0  0  0  0  0  0  0
   63.2788   32.9109   47.4830 C   0  0  0  0  0  0  0  0  0  0  0  0
   63.6654   33.3686   48.9003 C   0  0  0  0  0  0  0  0  0  0  0  0
   62.4460   33.5401   49.8233 C   0  0  0  0  0  0  0  0  0  0  0  0
   61.1788   33.8316   49.0141 C   0  0  0  0  0  0  0  0  0  0  0  0
   59.8960   27.8442   46.9443 O   0  0  0  0  0  0  0  0  0  0  0  0
   58.6917   28.1007   46.6832 C   0  0  0  0  0  0  0  0  0  0  0  0
   57.7043   27.0908   46.9352 N   0  0  0  0  0  0  0  0  0  0  0  0
   57.5983   25.8199   46.2748 C   0  0  0  0  0  0  0  0  0  0  0  0
   58.7303   25.0181   46.0400 C   0  0  0  0  0  0  0  0  0  0  0  0
   58.5968   23.7832   45.3997 C   0  0  0  0  0  0  0  0  0  0  0  0
   57.3354   23.3311   45.0057 C   0  0  0  0  0  0  0  0  0  0  0  0
   56.2040   24.1095   45.2582 C   0  0  0  0  0  0  0  0  0  0  0  0
   56.3311   25.3488   45.8967 C   0  0  0  0  0  0  0  0  0  0  0  0
   55.1971   26.1129   46.1450 O   0  0  0  0  0  0  0  0  0  0  0  0
 19 20  2  0
 20 21  1  0
 21 22  1  0
 22 23  2  0
 23 24  1  0
 24 25  2  0
 25 26  1  0
 26 27  2  0
 27 28  1  0
 20  1  1  0
  1  2  1  0
  2  3  2  0
  3 10  1  0
 10 11  2  0
 10 12  2  0
 10 13  1  0
 13 14  1  0
 14 15  1  0
 15 16  1  0
 16 17  1  0
 17 18  1  0
  3  4  1  0
  4  5  2  0
  4  6  1  0
  6  7  1  0
  7  8  1  0
 27 22  1  0
  7  1  2  0
 18 13  1  0
  8  9  1  0
M  CHG 1   6  -1
M  CHG 1  21  -1
M  CHG 1  28  -1
M  END
> <UniqueID>
77

> <SMILES>
O=C([N-]c1ccccc1[O-])c1cc(S(=O)(=O)N2CCCCC2)c(=O)[n-]c1O

> <Energy>
60.479965158680805

> <Genealogy>
O=C([N-]c1ccccc1[O-])c1cc(S(=O)(=O)N2CCCCC2)c(=O)[n-]c1O (protonated)
O=C([N-]c1ccccc1[O-])c1cc(S(=O)(=O)N2CCCCC2)c(=O)[n-]c1O (3D coordinates assigned)
O=C([N-]c1ccccc1[O-])c1cc(S(=O)(=O)N2CCCCC2)c(=O)[n-]c1O (nonaromatic ring conformer: 60.479965158680805 kcal/mol)

> <smiles>
O=C(Nc1ccccc1O)c1cc(S(=O)(=O)N2CCCCC2)c(=O)[nH]c1O

> <score_type>
oracle

> <origin>
adg

> <m_score__min__energy>
-15.550000000000001

> <m_primary>
energy

> <minimizedAffinity>
-9.07396

> <minimizedRMSD>
0.60490

> <CNNscore>
0.8265442252

> <CNNaffinity>
6.5877647400

> <CNN_VS>
5.4450788498

> <CNNaffinity_variance>
0.1886448413

$$$$
89:0


 32 35  0  0  0  0  0  0  0  0999 V2000
   59.9267   28.6147   45.7161 C   0  0  0  0  0  0  0  0  0  0  0  0
   58.6919   28.7497   45.2082 C   0  0  0  0  0  0  0  0  0  0  0  0
   57.8477   27.7326   44.7547 C   0  0  0  0  0  0  0  0  0  0  0  0
   58.1327   26.4204   44.6714 C   0  0  0  0  0  0  0  0  0  0  0  0
   56.6710   28.2715   44.3633 N   0  0  0  0  0  0  0  0  0  0  0  0
   56.8182   29.5907   44.5958 C   0  0  0  0  0  0  0  0  0  0  0  0
   55.9135   30.4320   44.3423 O   0  0  0  0  0  0  0  0  0  0  0  0
   58.0259   29.9231   45.1007 N   0  0  0  0  0  0  0  0  0  0  0  0
   57.4822   25.3779   45.4908 C   0  0  0  0  0  0  0  0  0  0  0  0
   58.0970   24.2279   45.8247 N   0  0  0  0  0  0  0  0  0  0  0  0
   57.1938   23.6012   46.6070 C   0  0  0  0  0  0  0  0  0  0  0  0
   57.4080   22.4677   47.1147 O   0  0  0  0  0  0  0  0  0  0  0  0
   56.0493   24.2857   46.8129 N   0  0  0  0  0  0  0  0  0  0  0  0
   56.2471   25.4136   46.1105 C   0  0  0  0  0  0  0  0  0  0  0  0
   55.3407   26.4691   46.0801 O   0  0  0  0  0  0  0  0  0  0  0  0
   54.5241   26.3986   46.5341 H   0  0  0  0  0  0  0  0  0  0  0  0
   58.4746   31.2474   45.4376 C   0  0  0  0  0  0  0  0  0  0  0  0
   58.0659   32.3513   44.6786 C   0  0  0  0  0  0  0  0  0  0  0  0
   58.4938   33.6370   45.0146 C   0  0  0  0  0  0  0  0  0  0  0  0
   59.3373   33.8443   46.1180 C   0  0  0  0  0  0  0  0  0  0  0  0
   59.8096   35.2420   46.4252 C   0  0  0  0  0  0  0  0  0  0  0  0
   59.7186   32.7365   46.9147 C   0  0  0  0  0  0  0  0  0  0  0  0
   59.2956   31.4468   46.5557 C   0  0  0  0  0  0  0  0  0  0  0  0
   60.5680   32.8930   48.1143 C   0  0  0  0  0  0  0  0  0  0  0  0
   61.7464   33.3198   47.9789 O   0  0  0  0  0  0  0  0  0  0  0  0
   60.0779   32.5450   49.4202 N   0  0  0  0  0  0  0  0  0  0  0  0
   59.3131   31.2989   49.5809 C   0  0  0  0  0  0  0  0  0  0  0  0
   58.8599   31.1114   51.0276 C   0  0  0  0  0  0  0  0  0  0  0  0
   58.4313   32.4132   51.5603 N   0  0  0  0  0  0  0  0  0  0  0  0
   57.7056   32.2312   52.8270 C   0  0  0  0  0  0  0  0  0  0  0  0
   59.5958   33.3023   51.7605 C   0  0  0  0  0  0  0  0  0  0  0  0
   60.6128   33.2455   50.5955 C   0  0  0  0  0  0  0  0  0  0  0  0
  1  2  2  0
  2  3  1  0
  3  4  2  0
  4  9  1  0
  9 10  1  0
 10 11  1  0
 11 12  2  0
 11 13  1  0
 13 14  1  0
 14 15  1  0
  3  5  1  0
  5  6  1  0
  6  7  2  0
  6  8  1  0
  8 17  1  0
 17 18  2  0
 18 19  1  0
 19 20  2  0
 20 21  1  0
 20 22  1  0
 22 24  1  0
 24 25  2  0
 24 26  1  0
 26 27  1  0
 27 28  1  0
 28 29  1  0
 29 30  1  0
 29 31  1  0
 31 32  1  0
 22 23  2  0
  8  2  1  0
 23 17  1  0
 14  9  2  0
 32 26  1  0
 15 16  1  0
M  CHG 1   5  -1
M  CHG 1  10  -1
M  CHG 1  13  -1
M  END
> <UniqueID>
87

> <SMILES>
C=c1c(=Cc2[n-]c(=O)[n-]c2O)[n-]c(=O)n1-c1ccc(C)c(C(=O)N2CCN(C)CC2)c1

> <Energy>
139.68280981955382

> <Genealogy>
C=c1c(=Cc2[n-]c(=O)[n-]c2O)[n-]c(=O)n1-c1ccc(C)c(C(=O)N2CCN(C)CC2)c1 (protonated)
C=c1c(=Cc2[n-]c(=O)[n-]c2O)[n-]c(=O)n1-c1ccc(C)c(C(=O)N2CCN(C)CC2)c1 (3D coordinates assigned)
C=c1c(=Cc2[n-]c(=O)[n-]c2O)[n-]c(=O)n1-c1ccc(C)c(C(=O)N2CCN(C)CC2)c1 (nonaromatic ring conformer: 139.68280981955382 kcal/mol)

> <smiles>
C=c1c(=Cc2[nH]c(=O)[nH]c2O)[nH]c(=O)n1-c1ccc(C)c(C(=O)N2CCN(C)CC2)c1

> <score_type>
oracle

> <origin>
adg

> <m_score__min__energy>
-16.379999999999999

> <m_primary>
energy

> <minimizedAffinity>
-10.33440

> <minimizedRMSD>
0.57869

> <CNNscore>
0.7195995450

> <CNNaffinity>
7.3539657593

> <CNN_VS>
5.2919106483

> <CNNaffinity_variance>
0.0498909354

$$$$
13:0


 31 34  0  0  0  0  0  0  0  0999 V2000
   58.1266   32.6218   44.2767 C   0  0  0  0  0  0  0  0  0  0  0  0
   57.5135   27.8789   43.4113 C   0  0  0  0  0  0  0  0  0  0  0  0
   57.9146   28.9934   44.0420 C   0  0  0  0  0  0  0  0  0  0  0  0
   58.9872   29.1110   44.9418 C   0  0  0  0  0  0  0  0  0  0  0  0
   59.7252   28.1714   45.5670 C   0  0  0  0  0  0  0  0  0  0  0  0
   59.1942   30.4666   45.1186 C   0  0  0  0  0  0  0  0  0  0  0  0
   58.2143   31.1225   44.3999 C   0  0  0  0  0  0  0  0  0  0  0  0
   57.4240   30.2282   43.7550 N   0  0  0  0  0  0  0  0  0  0  0  0
   56.3387   30.5382   42.8180 C   0  0  0  0  0  0  0  0  0  0  0  0
   59.1938   26.9413   46.1775 C   0  0  0  0  0  0  0  0  0  0  0  0
   59.0348   25.7706   45.5311 N   0  0  0  0  0  0  0  0  0  0  0  0
   58.4298   24.9874   46.4507 C   0  0  0  0  0  0  0  0  0  0  0  0
   58.1240   23.7879   46.2216 O   0  0  0  0  0  0  0  0  0  0  0  0
   58.1755   25.5922   47.6312 N   0  0  0  0  0  0  0  0  0  0  0  0
   58.6547   26.8308   47.4352 C   0  0  0  0  0  0  0  0  0  0  0  0
   58.6050   27.8385   48.3887 O   0  0  0  0  0  0  0  0  0  0  0  0
   58.4905   33.2789   45.5846 C   0  0  0  0  0  0  0  0  0  0  0  0
   59.5315   34.1244   45.6539 C   0  0  0  0  0  0  0  0  0  0  0  0
   59.9127   34.7617   46.9618 C   0  0  0  0  0  0  0  0  0  0  0  0
   59.6967   33.8342   48.0890 N   0  0  0  0  0  0  0  0  0  0  0  0
   60.4629   33.9811   49.2992 C   0  0  0  0  0  0  0  0  0  0  0  0
   59.9466   33.6972   50.4138 O   0  0  0  0  0  0  0  0  0  0  0  0
   58.6467   32.7995   48.0350 C   0  0  0  0  0  0  0  0  0  0  0  0
   57.7031   32.9924   46.8389 C   0  0  0  0  0  0  0  0  0  0  0  0
   61.8018   34.3876   49.2281 O   0  0  0  0  0  0  0  0  0  0  0  0
   62.8631   33.7720   49.9044 C   0  0  0  0  0  0  0  0  0  0  0  0
   63.3189   34.2344   51.1507 C   0  0  0  0  0  0  0  0  0  0  0  0
   64.3851   33.5913   51.7896 C   0  0  0  0  0  0  0  0  0  0  0  0
   65.0099   32.4968   51.1863 C   0  0  0  0  0  0  0  0  0  0  0  0
   64.5707   32.0422   49.9394 C   0  0  0  0  0  0  0  0  0  0  0  0
   63.5065   32.6835   49.2988 C   0  0  0  0  0  0  0  0  0  0  0  0
  2  3  2  0
  3  4  1  0
  4  5  2  0
  5 10  1  0
 10 11  1  0
 11 12  1  0
 12 13  2  0
 12 14  1  0
 14 15  1  0
 15 16  1  0
  4  6  1  0
  6  7  2  0
  7  1  1  0
  1 17  1  0
 17 18  2  0
 18 19  1  0
 19 20  1  0
 20 21  1  0
 21 22  2  0
 21 25  1  0
 25 26  1  0
 26 27  2  0
 27 28  1  0
 28 29  2  0
 29 30  1  0
 30 31  2  0
 20 23  1  0
 23 24  1  0
  7  8  1  0
  8  9  1  0
  8  3  1  0
 15 10  2  0
 24 17  1  0
 31 26  1  0
M  CHG 1  11  -1
M  CHG 1  14  -1
M  CHG 1  16  -1
M  END
> <UniqueID>
14

> <SMILES>
C=c1c(=Cc2[n-]c(=O)[n-]c2[O-])cc(CC2=CCN(C(=O)Oc3ccccc3)CC2)n1C

> <Energy>
126.24066092081524

> <Genealogy>
C=c1c(=Cc2[n-]c(=O)[n-]c2[O-])cc(CC2=CCN(C(=O)Oc3ccccc3)CC2)n1C (protonated)
C=c1c(=Cc2[n-]c(=O)[n-]c2[O-])cc(CC2=CCN(C(=O)Oc3ccccc3)CC2)n1C (3D coordinates assigned)
C=c1c(=Cc2[n-]c(=O)[n-]c2[O-])cc(CC2=CCN(C(=O)Oc3ccccc3)CC2)n1C (nonaromatic ring conformer: 126.24066092081524 kcal/mol)

> <smiles>
C=c1c(=Cc2[nH]c(=O)[nH]c2O)cc(CC2=CCN(C(=O)Oc3ccccc3)CC2)n1C

> <score_type>
oracle

> <origin>
adg

> <m_score__min__energy>
-18.57

> <m_primary>
energy

> <minimizedAffinity>
-6.55572

> <minimizedRMSD>
1.56094

> <CNNscore>
0.1218389198

> <CNNaffinity>
6.3618736267

> <CNN_VS>
0.7751238346

> <CNNaffinity_variance>
0.2475999594

$$$$
19:0


 32 35  0  0  0  0  0  0  0  0999 V2000
   58.2779   31.2775   44.3513 C   0  0  0  0  0  0  0  0  0  0  0  0
   57.9843   31.5731   43.1628 O   0  0  0  0  0  0  0  0  0  0  0  0
   58.3808   32.3138   45.3408 N   0  0  0  0  0  0  0  0  0  0  0  0
   57.6748   32.1550   46.6220 C   0  0  0  0  0  0  0  0  0  0  0  0
   58.0183   33.2982   47.5767 C   0  0  0  0  0  0  0  0  0  0  0  0
   59.4532   33.5916   47.4397 N   0  0  0  0  0  0  0  0  0  0  0  0
   59.7802   34.2132   46.1378 C   0  0  0  0  0  0  0  0  0  0  0  0
   58.9565   33.6154   44.9755 C   0  0  0  0  0  0  0  0  0  0  0  0
   59.6688   27.2879   46.6965 C   0  0  0  0  0  0  0  0  0  0  0  0
   59.1421   28.0533   45.7275 C   0  0  0  0  0  0  0  0  0  0  0  0
   58.2154   27.6558   44.7485 C   0  0  0  0  0  0  0  0  0  0  0  0
   57.7814   26.4344   44.3864 C   0  0  0  0  0  0  0  0  0  0  0  0
   57.7772   28.8186   44.1384 C   0  0  0  0  0  0  0  0  0  0  0  0
   58.4704   29.8615   44.7146 C   0  0  0  0  0  0  0  0  0  0  0  0
   59.3253   29.3975   45.6584 N   0  0  0  0  0  0  0  0  0  0  0  0
   60.2446   30.2016   46.4722 C   0  0  0  0  0  0  0  0  0  0  0  0
   57.4696   25.3286   45.3071 C   0  0  0  0  0  0  0  0  0  0  0  0
   58.1477   24.1671   45.3671 N   0  0  0  0  0  0  0  0  0  0  0  0
   57.4117   23.4188   46.2159 C   0  0  0  0  0  0  0  0  0  0  0  0
   57.7362   22.2464   46.5433 O   0  0  0  0  0  0  0  0  0  0  0  0
   56.2942   24.0204   46.6761 N   0  0  0  0  0  0  0  0  0  0  0  0
   56.3386   25.2215   46.0796 C   0  0  0  0  0  0  0  0  0  0  0  0
   55.3582   26.1943   46.2233 O   0  0  0  0  0  0  0  0  0  0  0  0
   60.0484   34.2916   48.5965 C   0  0  0  0  0  0  0  0  0  0  0  0
   60.5630   33.3651   49.6796 C   0  0  0  0  0  0  0  0  0  0  0  0
   59.7509   32.6161   50.2864 O   0  0  0  0  0  0  0  0  0  0  0  0
   61.9685   33.2842   49.9982 N   0  0  0  0  0  0  0  0  0  0  0  0
   62.3833   33.1422   51.3971 C   0  0  0  0  0  0  0  0  0  0  0  0
   63.7203   32.3962   51.4779 C   0  0  0  0  0  0  0  0  0  0  0  0
   64.6841   32.9894   50.6259 O   0  0  0  0  0  0  0  0  0  0  0  0
   64.2767   32.8412   49.2793 C   0  0  0  0  0  0  0  0  0  0  0  0
   62.9941   33.6355   49.0084 C   0  0  0  0  0  0  0  0  0  0  0  0
  9 10  2  0
 10 11  1  0
 11 12  2  0
 12 17  1  0
 17 18  1  0
 18 19  1  0
 19 20  2  0
 19 21  1  0
 21 22  1  0
 22 23  1  0
 11 13  1  0
 13 14  2  0
 14  1  1  0
  1  2  2  0
  1  3  1  0
  3  4  1  0
  4  5  1  0
  5  6  1  0
  6 24  1  0
 24 25  1  0
 25 26  2  0
 25 27  1  0
 27 28  1  0
 28 29  1  0
 29 30  1  0
 30 31  1  0
 31 32  1  0
  6  7  1  0
  7  8  1  0
 14 15  1  0
 15 16  1  0
 15 10  1  0
 22 17  2  0
  8  3  1  0
 32 27  1  0
M  CHG 1  18  -1
M  CHG 1  21  -1
M  CHG 1  23  -1
M  END
> <UniqueID>
20

> <SMILES>
C=c1/c(=C\c2[n-]c(=O)[n-]c2[O-])cc(C(=O)N2CCN(CC(=O)N3CCOCC3)CC2)n1C

> <Energy>
145.3953865349222

> <Genealogy>
C=c1c(=Cc2[n-]c(=O)[n-]c2[O-])cc(C(=O)N2CCN(CC(=O)N3CCOCC3)CC2)n1C (protonated)
C=c1/c(=C\c2[n-]c(=O)[n-]c2[O-])cc(C(=O)N2CCN(CC(=O)N3CCOCC3)CC2)n1C (cis-trans isomerization)
C=c1/c(=C\c2[n-]c(=O)[n-]c2[O-])cc(C(=O)N2CCN(CC(=O)N3CCOCC3)CC2)n1C (3D coordinates assigned)
C=c1/c(=C\c2[n-]c(=O)[n-]c2[O-])cc(C(=O)N2CCN(CC(=O)N3CCOCC3)CC2)n1C (nonaromatic ring conformer: 145.3953865349222 kcal/mol)

> <smiles>
C=c1c(=Cc2[nH]c(=O)[nH]c2O)cc(C(=O)N2CCN(CC(=O)N3CCOCC3)CC2)n1C

> <score_type>
oracle

> <origin>
adg

> <m_score__min__energy>
-18.399999999999999

> <m_primary>
energy

> <minimizedAffinity>
-8.02300

> <minimizedRMSD>
1.14309

> <CNNscore>
0.1178412735

> <CNNaffinity>
6.2988038063

> <CNN_VS>
0.7422590852

> <CNNaffinity_variance>
0.1427837461

$$$$
21:0


 37 40  0  0  0  0  0  0  0  0999 V2000
   54.9074   29.9799   54.3792 C   0  0  0  0  0  0  0  0  0  0  0  0
   54.9617   30.2299   52.9988 C   0  0  0  0  0  0  0  0  0  0  0  0
   56.1219   30.7504   52.4203 C   0  0  0  0  0  0  0  0  0  0  0  0
   57.2549   31.0210   53.2080 C   0  0  0  0  0  0  0  0  0  0  0  0
   57.2089   30.7336   54.5822 C   0  0  0  0  0  0  0  0  0  0  0  0
   56.0510   30.2082   55.1603 C   0  0  0  0  0  0  0  0  0  0  0  0
   58.4392   31.6035   52.6209 N   0  0  0  0  0  0  0  0  0  0  0  0
   58.6801   31.5197   51.1757 C   0  0  0  0  0  0  0  0  0  0  0  0
   60.1907   31.4864   50.8934 C   0  0  0  0  0  0  0  0  0  0  0  0
   60.9523   32.5854   51.5501 N   0  0  0  0  0  0  0  0  0  0  0  0
   60.1904   33.3346   52.5737 C   0  0  0  0  0  0  0  0  0  0  0  0
   59.3544   32.3977   53.4474 C   0  0  0  0  0  0  0  0  0  0  0  0
   61.5452   33.5173   50.5701 C   0  0  0  0  0  0  0  0  0  0  0  0
   61.0617   33.1986   49.1840 C   0  0  0  0  0  0  0  0  0  0  0  0
   61.7307   32.4046   48.4705 O   0  0  0  0  0  0  0  0  0  0  0  0
   59.8276   33.7546   48.7024 N   0  0  0  0  0  0  0  0  0  0  0  0
   59.2638   34.2510   49.3387 H   0  0  0  0  0  0  0  0  0  0  0  0
   59.3671   33.6291   47.3460 C   0  0  0  0  0  0  0  0  0  0  0  0
   59.4955   34.6912   46.4311 C   0  0  0  0  0  0  0  0  0  0  0  0
   59.0199   34.5578   45.1228 C   0  0  0  0  0  0  0  0  0  0  0  0
   58.4025   33.3706   44.7192 C   0  0  0  0  0  0  0  0  0  0  0  0
   58.2523   32.3185   45.6255 C   0  0  0  0  0  0  0  0  0  0  0  0
   58.7252   32.4475   46.9368 C   0  0  0  0  0  0  0  0  0  0  0  0
   58.5723   31.4128   47.8019 F   0  0  0  0  0  0  0  0  0  0  0  0
   53.6498   29.4996   54.9961 C   0  0  0  0  0  0  0  0  0  0  0  0
   53.5643   28.2928   55.3510 O   0  0  0  0  0  0  0  0  0  0  0  0
   52.4905   30.3852   55.2477 C   0  0  0  0  0  0  0  0  0  0  0  0
   51.5014   30.6393   54.3748 C   0  0  0  0  0  0  0  0  0  0  0  0
   51.5424   30.3137   52.9305 C   0  0  0  0  0  0  0  0  0  0  0  0
   51.5484   31.3431   51.9794 C   0  0  0  0  0  0  0  0  0  0  0  0
   51.5039   32.6752   52.3765 O   0  0  0  0  0  0  0  0  0  0  0  0
   51.6192   31.0471   50.6565 N   0  0  0  0  0  0  0  0  0  0  0  0
   51.6693   29.7602   50.2276 C   0  0  0  0  0  0  0  0  0  0  0  0
   51.7455   29.5101   48.9984 O   0  0  0  0  0  0  0  0  0  0  0  0
   51.6295   28.7428   51.1254 N   0  0  0  0  0  0  0  0  0  0  0  0
   51.5568   28.9864   52.4601 C   0  0  0  0  0  0  0  0  0  0  0  0
   51.4929   28.0165   53.2612 O   0  0  0  0  0  0  0  0  0  0  0  0
 27 25  1  0
 25 26  2  0
 25  1  1  0
  1  2  2  0
  2  3  1  0
  3  4  2  0
  4  7  1  0
  7  8  1  0
  8  9  1  0
  9 10  1  0
 10 13  1  0
 13 14  1  0
 14 15  2  0
 14 16  1  0
 16 18  1  0
 18 19  2  0
 19 20  1  0
 20 21  2  0
 21 22  1  0
 22 23  2  0
 23 24  1  0
 10 11  1  0
 11 12  1  0
  4  5  1  0
  5  6  2  0
 27 28  2  0
 28 29  1  0
 29 30  2  0
 30 31  1  0
 30 32  1  0
 32 33  1  0
 33 34  2  0
 33 35  1  0
 35 36  1  0
 36 37  2  0
  6  1  1  0
 36 29  1  0
 12  7  1  0
 23 18  1  0
 16 17  1  0
M  CHG 1  31  -1
M  CHG 1  32  -1
M  CHG 1  35  -1
M  END
> <UniqueID>
22

> <SMILES>
O=C(CN1CCN(c2ccc(C(=O)/C=C\c3c([O-])[n-]c(=O)[n-]c3=O)cc2)CC1)Nc1ccccc1F

> <Energy>
87.24146576482126

> <Genealogy>
O=C(CN1CCN(c2ccc(C(=O)C=Cc3c([O-])[n-]c(=O)[n-]c3=O)cc2)CC1)Nc1ccccc1F (protonated)
O=C(CN1CCN(c2ccc(C(=O)/C=C\c3c([O-])[n-]c(=O)[n-]c3=O)cc2)CC1)Nc1ccccc1F (cis-trans isomerization)
O=C(CN1CCN(c2ccc(C(=O)/C=C\c3c([O-])[n-]c(=O)[n-]c3=O)cc2)CC1)Nc1ccccc1F (3D coordinates assigned)
O=C(CN1CCN(c2ccc(C(=O)/C=C\c3c([O-])[n-]c(=O)[n-]c3=O)cc2)CC1)Nc1ccccc1F (nonaromatic ring conformer: 87.24146576482126 kcal/mol)

> <smiles>
O=C(CN1CCN(c2ccc(C(=O)C=Cc3c(O)[nH]c(=O)[nH]c3=O)cc2)CC1)Nc1ccccc1F

> <score_type>
oracle

> <origin>
adg

> <m_score__min__energy>
-17.77

> <m_primary>
energy

> <minimizedAffinity>
-7.29770

> <minimizedRMSD>
1.03036

> <CNNscore>
0.0631332397

> <CNNaffinity>
5.8003997803

> <CNN_VS>
0.3661980331

> <CNNaffinity_variance>
0.6228587031

$$$$
31:0


 28 31  0  0  0  0  0  0  0  0999 V2000
   55.1545   30.3342   52.1557 C   0  0  0  0  0  0  0  0  0  0  0  0
   55.0701   30.2125   53.4888 C   0  0  0  0  0  0  0  0  0  0  0  0
   53.9105   29.9729   54.2343 C   0  0  0  0  0  0  0  0  0  0  0  0
   52.6509   29.8732   53.7706 C   0  0  0  0  0  0  0  0  0  0  0  0
   54.3084   29.9183   55.5658 C   0  0  0  0  0  0  0  0  0  0  0  0
   55.6762   30.1077   55.5777 C   0  0  0  0  0  0  0  0  0  0  0  0
   56.5230   30.1795   56.8104 C   0  0  0  0  0  0  0  0  0  0  0  0
   56.1361   30.2939   54.3219 N   0  0  0  0  0  0  0  0  0  0  0  0
   52.2336   30.2888   52.4189 C   0  0  0  0  0  0  0  0  0  0  0  0
   52.3106   29.4852   51.3437 N   0  0  0  0  0  0  0  0  0  0  0  0
   51.7558   30.2246   50.3590 C   0  0  0  0  0  0  0  0  0  0  0  0
   51.6562   29.8101   49.1752 O   0  0  0  0  0  0  0  0  0  0  0  0
   51.3072   31.4380   50.7446 N   0  0  0  0  0  0  0  0  0  0  0  0
   51.6059   31.4593   52.0537 C   0  0  0  0  0  0  0  0  0  0  0  0
   51.2644   32.5071   52.9010 O   0  0  0  0  0  0  0  0  0  0  0  0
   57.5029   30.5476   53.9620 C   0  0  0  0  0  0  0  0  0  0  0  0
   58.4125   29.4934   53.7659 C   0  0  0  0  0  0  0  0  0  0  0  0
   57.9937   28.0644   53.9287 C   0  0  0  0  0  0  0  0  0  0  0  0
   59.7022   29.7732   53.4320 N   0  0  0  0  0  0  0  0  0  0  0  0
   60.1596   31.0462   53.2649 C   0  0  0  0  0  0  0  0  0  0  0  0
   59.2707   32.1195   53.4516 C   0  0  0  0  0  0  0  0  0  0  0  0
   57.9440   31.8630   53.7974 C   0  0  0  0  0  0  0  0  0  0  0  0
   61.5422   31.2645   52.9087 N   0  0  0  0  0  0  0  0  0  0  0  0
   62.1296   30.4937   51.8042 C   0  0  0  0  0  0  0  0  0  0  0  0
   63.2915   31.2685   51.1753 C   0  0  0  0  0  0  0  0  0  0  0  0
   64.2111   31.6834   52.1649 O   0  0  0  0  0  0  0  0  0  0  0  0
   63.5929   32.6261   53.0176 C   0  0  0  0  0  0  0  0  0  0  0  0
   62.4530   31.9796   53.8123 C   0  0  0  0  0  0  0  0  0  0  0  0
  1  2  2  0
  2  3  1  0
  3  4  2  0
  4  9  1  0
  9 10  1  0
 10 11  1  0
 11 12  2  0
 11 13  1  0
 13 14  1  0
 14 15  1  0
  3  5  1  0
  5  6  2  0
  6  7  1  0
  6  8  1  0
  8 16  1  0
 16 17  2  0
 17 18  1  0
 17 19  1  0
 19 20  2  0
 20 23  1  0
 23 24  1  0
 24 25  1  0
 25 26  1  0
 26 27  1  0
 27 28  1  0
 20 21  1  0
 21 22  2  0
  8  2  1  0
 22 16  1  0
 14  9  2  0
 28 23  1  0
M  CHG 1  10  -1
M  CHG 1  13  -1
M  CHG 1  15  -1
M  END
> <UniqueID>
32

> <SMILES>
C=c1/c(=C/c2[n-]c(=O)[n-]c2[O-])cc(C)n1-c1ccc(N2CCOCC2)nc1C

> <Energy>
125.63440404209089

> <Genealogy>
C=c1c(=Cc2[n-]c(=O)[n-]c2[O-])cc(C)n1-c1ccc(N2CCOCC2)nc1C (protonated)
C=c1/c(=C/c2[n-]c(=O)[n-]c2[O-])cc(C)n1-c1ccc(N2CCOCC2)nc1C (cis-trans isomerization)
C=c1/c(=C/c2[n-]c(=O)[n-]c2[O-])cc(C)n1-c1ccc(N2CCOCC2)nc1C (3D coordinates assigned)
C=c1/c(=C/c2[n-]c(=O)[n-]c2[O-])cc(C)n1-c1ccc(N2CCOCC2)nc1C (nonaromatic ring conformer: 125.63440404209089 kcal/mol)

> <smiles>
C=c1c(=Cc2[nH]c(=O)[nH]c2O)cc(C)n1-c1ccc(N2CCOCC2)nc1C

> <score_type>
oracle

> <origin>
adg

> <m_score__min__energy>
-15.57

> <m_primary>
energy

> <minimizedAffinity>
-4.63775

> <minimizedRMSD>
1.16322

> <CNNscore>
0.1000130847

> <CNNaffinity>
4.5770912170

> <CNN_VS>
0.4577690065

> <CNNaffinity_variance>
0.5575436950

$$$$
34:0


 35 38  0  0  0  0  0  0  0  0999 V2000
   58.8591   30.2328   45.6859 C   0  0  0  0  0  0  0  0  0  0  0  0
   59.1348   29.8706   46.9494 C   0  0  0  0  0  0  0  0  0  0  0  0
   59.1710   28.5577   47.4463 C   0  0  0  0  0  0  0  0  0  0  0  0
   59.2042   27.3701   46.8109 C   0  0  0  0  0  0  0  0  0  0  0  0
   59.2235   28.6680   48.8231 C   0  0  0  0  0  0  0  0  0  0  0  0
   59.2928   30.0118   49.1154 C   0  0  0  0  0  0  0  0  0  0  0  0
   59.2555   30.7529   47.9813 N   0  0  0  0  0  0  0  0  0  0  0  0
   58.0652   26.4527   46.6466 C   0  0  0  0  0  0  0  0  0  0  0  0
   57.9457   25.2582   47.2546 N   0  0  0  0  0  0  0  0  0  0  0  0
   56.7027   24.8570   46.9136 C   0  0  0  0  0  0  0  0  0  0  0  0
   56.2237   23.7530   47.2784 O   0  0  0  0  0  0  0  0  0  0  0  0
   56.0114   25.7352   46.1545 N   0  0  0  0  0  0  0  0  0  0  0  0
   56.8832   26.7452   46.0084 C   0  0  0  0  0  0  0  0  0  0  0  0
   56.6033   27.9130   45.3116 O   0  0  0  0  0  0  0  0  0  0  0  0
   59.4216   30.5344   50.4891 C   0  0  0  0  0  0  0  0  0  0  0  0
   60.5635   30.5360   51.0277 O   0  0  0  0  0  0  0  0  0  0  0  0
   58.2461   30.8638   51.2716 N   0  0  0  0  0  0  0  0  0  0  0  0
   58.3791   32.2024   51.9140 C   0  0  0  0  0  0  0  0  0  0  0  0
   58.8299   32.1289   53.3783 C   0  0  0  0  0  0  0  0  0  0  0  0
   57.9155   31.2804   54.1501 N   0  0  0  0  0  0  0  0  0  0  0  0
   57.7917   31.4689   55.5747 C   0  0  0  0  0  0  0  0  0  0  0  0
   56.6546   30.8707   56.3493 C   0  0  0  0  0  0  0  0  0  0  0  0
   58.6701   32.1221   56.1991 O   0  0  0  0  0  0  0  0  0  0  0  0
   57.1737   30.2237   53.4511 C   0  0  0  0  0  0  0  0  0  0  0  0
   57.9656   29.7552   52.2213 C   0  0  0  0  0  0  0  0  0  0  0  0
   58.2682   30.4026   52.1411 H   0  0  0  0  0  0  0  0  0  0  0  0
   59.5125   32.1998   47.8935 C   0  0  0  0  0  0  0  0  0  0  0  0
   60.8993   32.5144   48.3943 C   0  0  0  0  0  0  0  0  0  0  0  0
   62.0040   31.7921   47.9167 C   0  0  0  0  0  0  0  0  0  0  0  0
   63.2961   32.0967   48.3571 C   0  0  0  0  0  0  0  0  0  0  0  0
   63.5056   33.1434   49.2726 C   0  0  0  0  0  0  0  0  0  0  0  0
   62.4018   33.8700   49.7421 C   0  0  0  0  0  0  0  0  0  0  0  0
   61.1088   33.5579   49.3095 C   0  0  0  0  0  0  0  0  0  0  0  0
   64.7834   33.4951   49.7356 O   0  0  0  0  0  0  0  0  0  0  0  0
   65.6671   32.6018   50.4075 C   0  0  0  0  0  0  0  0  0  0  0  0
  1  2  2  0
  2  3  1  0
  3  4  2  0
  4  8  1  0
  8  9  1  0
  9 10  1  0
 10 11  2  0
 10 12  1  0
 12 13  1  0
 13 14  1  0
  3  5  1  0
  5  6  2  0
  6 15  1  0
 15 16  2  0
 15 17  1  0
 17 18  1  0
 18 19  1  0
 19 20  1  0
 20 21  1  0
 21 22  1  0
 21 23  2  0
 20 24  1  0
 24 25  1  0
  6  7  1  0
  7 27  1  0
 27 28  1  0
 28 29  2  0
 29 30  1  0
 30 31  2  0
 31 34  1  0
 34 35  1  0
 31 32  1  0
 32 33  2  0
  7  2  1  0
 33 28  1  0
 13  8  2  0
 25 17  1  0
 17 26  1  0
M  CHG 1   9  -1
M  CHG 1  12  -1
M  CHG 1  14  -1
M  CHG 1  17   1
M  END
> <UniqueID>
35

> <SMILES>
C=c1c(=Cc2[n-]c(=O)[n-]c2[O-])cc(C(=O)[NH+]2CCN(C(C)=O)CC2)n1Cc1ccc(OC)cc1

> <Energy>
144.70618475184926

> <Genealogy>
C=c1c(=Cc2[n-]c(=O)[n-]c2[O-])cc(C(=O)[NH+]2CCN(C(C)=O)CC2)n1Cc1ccc(OC)cc1 (protonated)
C=c1c(=Cc2[n-]c(=O)[n-]c2[O-])cc(C(=O)[NH+]2CCN(C(C)=O)CC2)n1Cc1ccc(OC)cc1 (3D coordinates assigned)
C=c1c(=Cc2[n-]c(=O)[n-]c2[O-])cc(C(=O)[NH+]2CCN(C(C)=O)CC2)n1Cc1ccc(OC)cc1 (nonaromatic ring conformer: 144.70618475184926 kcal/mol)

> <smiles>
C=c1c(=Cc2[nH]c(=O)[nH]c2O)cc(C(=O)N2CCN(C(C)=O)CC2)n1Cc1ccc(OC)cc1

> <score_type>
oracle

> <origin>
adg

> <m_score__min__energy>
-15.1

> <m_primary>
energy

> <minimizedAffinity>
-7.25605

> <minimizedRMSD>
1.66973

> <CNNscore>
0.1669572592

> <CNNaffinity>
6.2726292610

> <CNN_VS>
1.0472609997

> <CNNaffinity_variance>
0.0137215927

$$$$
43:0


 26 28  0  0  0  0  0  0  0  0999 V2000
   59.3905   30.6653   47.4731 C   0  0  0  0  0  0  0  0  0  0  0  0
   59.1440   31.5854   46.5246 C   0  0  0  0  0  0  0  0  0  0  0  0
   58.7244   31.3405   45.2050 C   0  0  0  0  0  0  0  0  0  0  0  0
   58.6046   30.1922   44.5080 C   0  0  0  0  0  0  0  0  0  0  0  0
   58.4306   32.5746   44.6558 C   0  0  0  0  0  0  0  0  0  0  0  0
   58.7288   33.5218   45.6097 C   0  0  0  0  0  0  0  0  0  0  0  0
   58.5240   34.9948   45.4240 C   0  0  0  0  0  0  0  0  0  0  0  0
   59.1660   32.9305   46.7480 N   0  0  0  0  0  0  0  0  0  0  0  0
   58.2380   28.8760   45.0676 C   0  0  0  0  0  0  0  0  0  0  0  0
   56.8913   28.5213   45.2169 C   0  0  0  0  0  0  0  0  0  0  0  0
   55.8855   29.4239   44.8864 O   0  0  0  0  0  0  0  0  0  0  0  0
   56.5592   27.2926   45.6952 N   0  0  0  0  0  0  0  0  0  0  0  0
   57.5211   26.3857   46.0193 C   0  0  0  0  0  0  0  0  0  0  0  0
   57.1990   25.2539   46.4645 O   0  0  0  0  0  0  0  0  0  0  0  0
   58.8316   26.6979   45.8571 N   0  0  0  0  0  0  0  0  0  0  0  0
   59.2123   27.9132   45.3825 C   0  0  0  0  0  0  0  0  0  0  0  0
   60.4384   28.1582   45.2252 O   0  0  0  0  0  0  0  0  0  0  0  0
   55.6103   27.0557   45.8086 H   0  0  0  0  0  0  0  0  0  0  0  0
   59.5139   33.6452   47.9890 C   0  0  0  0  0  0  0  0  0  0  0  0
   61.0010   33.6130   48.2283 C   0  0  0  0  0  0  0  0  0  0  0  0
   61.8891   33.4089   47.1599 C   0  0  0  0  0  0  0  0  0  0  0  0
   63.2655   33.3893   47.4017 C   0  0  0  0  0  0  0  0  0  0  0  0
   63.7396   33.5617   48.6627 N   0  0  0  0  0  0  0  0  0  0  0  0
   62.9050   33.7575   49.7172 C   0  0  0  0  0  0  0  0  0  0  0  0
   63.3817   33.9128   50.8719 O   0  0  0  0  0  0  0  0  0  0  0  0
   61.5203   33.7857   49.5214 C   0  0  0  0  0  0  0  0  0  0  0  0
  1  2  2  0
  2  3  1  0
  3  4  2  0
  4  9  1  0
  9 10  2  0
 10 11  1  0
 10 12  1  0
 12 13  1  0
 13 14  2  0
 13 15  1  0
 15 16  1  0
 16 17  2  0
  3  5  1  0
  5  6  2  0
  6  7  1  0
  6  8  1  0
  8 19  1  0
 19 20  1  0
 20 21  1  0
 21 22  2  0
 22 23  1  0
 23 24  1  0
 24 25  2  0
 24 26  1  0
  8  2  1  0
 26 20  2  0
 16  9  1  0
 12 18  1  0
M  CHG 1  11  -1
M  CHG 1  15  -1
M  CHG 1  23  -1
M  END
> <UniqueID>
44

> <SMILES>
C=c1/c(=C\c2c([O-])[nH]c(=O)[n-]c2=O)cc(C)n1Cc1cc[n-]c(=O)c1

> <Energy>
84.0217867668501

> <Genealogy>
C=c1c(=Cc2c([O-])[nH]c(=O)[n-]c2=O)cc(C)n1Cc1cc[n-]c(=O)c1 (protonated)
C=c1/c(=C\c2c([O-])[nH]c(=O)[n-]c2=O)cc(C)n1Cc1cc[n-]c(=O)c1 (cis-trans isomerization)
C=c1/c(=C\c2c([O-])[nH]c(=O)[n-]c2=O)cc(C)n1Cc1cc[n-]c(=O)c1 (3D coordinates assigned)
C=c1/c(=C\c2c([O-])[nH]c(=O)[n-]c2=O)cc(C)n1Cc1cc[n-]c(=O)c1 (optimized conformer: 84.0217867668501 kcal/mol)

> <smiles>
C=c1c(=Cc2c(O)[nH]c(=O)[nH]c2=O)cc(C)n1Cc1cc[nH]c(=O)c1

> <score_type>
oracle

> <origin>
adg

> <m_score__min__energy>
-14.01

> <m_primary>
energy

> <minimizedAffinity>
-8.19356

> <minimizedRMSD>
0.88628

> <CNNscore>
0.1246944591

> <CNNaffinity>
6.2356925011

> <CNN_VS>
0.7775563002

> <CNNaffinity_variance>
0.0229028929

$$$$
50:0


 30 32  0  0  0  0  0  0  0  0999 V2000
   55.9943   23.2269   45.1172 C   0  0  0  0  0  0  0  0  0  0  0  0
   56.1285   22.1958   44.1705 C   0  0  0  0  0  0  0  0  0  0  0  0
   57.3921   21.7443   43.7854 C   0  0  0  0  0  0  0  0  0  0  0  0
   58.5365   22.3218   44.3300 C   0  0  0  0  0  0  0  0  0  0  0  0
   58.4232   23.3559   45.2600 C   0  0  0  0  0  0  0  0  0  0  0  0
   57.1593   23.8194   45.6633 C   0  0  0  0  0  0  0  0  0  0  0  0
   54.3670   23.7711   45.5623 S   0  0  0  0  0  0  0  0  0  0  0  0
   54.4132   25.2545   45.8017 O   0  0  0  0  0  0  0  0  0  0  0  0
   53.3997   23.5019   44.4450 O   0  0  0  0  0  0  0  0  0  0  0  0
   53.8014   22.9845   47.0048 N   0  0  0  0  0  0  0  0  0  0  0  0
   54.2117   21.6917   47.4624 C   0  0  0  0  0  0  0  0  0  0  0  0
   53.9506   20.6840   46.7537 O   0  0  0  0  0  0  0  0  0  0  0  0
   56.2132   21.1608   51.1771 C   0  0  0  0  0  0  0  0  0  0  0  0
   56.8994   21.0822   50.0060 N   0  0  0  0  0  0  0  0  0  0  0  0
   56.2879   21.2388   48.7973 C   0  0  0  0  0  0  0  0  0  0  0  0
   54.9068   21.4965   48.7464 C   0  0  0  0  0  0  0  0  0  0  0  0
   54.1827   21.5551   49.9445 C   0  0  0  0  0  0  0  0  0  0  0  0
   54.8382   21.3951   51.1652 C   0  0  0  0  0  0  0  0  0  0  0  0
   57.0230   21.1324   47.6124 O   0  0  0  0  0  0  0  0  0  0  0  0
   57.4040   19.8822   47.0516 C   0  0  0  0  0  0  0  0  0  0  0  0
   57.0984   24.9216   46.6487 C   0  0  0  0  0  0  0  0  0  0  0  0
   57.1330   24.6483   47.8760 O   0  0  0  0  0  0  0  0  0  0  0  0
   57.0991   26.3033   46.2519 N   0  0  0  0  0  0  0  0  0  0  0  0
   58.1392   27.0551   46.0255 C   0  0  0  0  0  0  0  0  0  0  0  0
   59.3957   26.6433   46.3578 N   0  0  0  0  0  0  0  0  0  0  0  0
   60.4946   27.4080   46.1171 C   0  0  0  0  0  0  0  0  0  0  0  0
   60.3567   28.6533   45.5036 C   0  0  0  0  0  0  0  0  0  0  0  0
   59.0848   29.0985   45.1423 C   0  0  0  0  0  0  0  0  0  0  0  0
   57.9675   28.2984   45.3989 C   0  0  0  0  0  0  0  0  0  0  0  0
   56.7004   28.7440   45.0345 O   0  0  0  0  0  0  0  0  0  0  0  0
 13 14  2  0
 14 15  1  0
 15 19  1  0
 19 20  1  0
 15 16  2  0
 16 11  1  0
 11 12  2  0
 11 10  1  0
 10  7  1  0
  7  8  2  0
  7  9  2  0
  7  1  1  0
  1  2  2  0
  2  3  1  0
  3  4  2  0
  4  5  1  0
  5  6  2  0
  6 21  1  0
 21 22  2  0
 21 23  1  0
 23 24  2  0
 24 25  1  0
 25 26  1  0
 26 27  2  0
 27 28  1  0
 28 29  2  0
 29 30  1  0
 16 17  1  0
 17 18  2  0
 18 13  1  0
  6  1  1  0
 29 24  1  0
M  CHG 1  10  -1
M  CHG 1  25  -1
M  CHG 1  30  -1
M  END
> <UniqueID>
50

> <SMILES>
COc1ncccc1C(=O)[N-]S(=O)(=O)c1ccccc1C(=O)/N=c1\[n-]cccc1[O-]

> <Energy>
62.63275166157655

> <Genealogy>
COc1ncccc1C(=O)[N-]S(=O)(=O)c1ccccc1C(=O)N=c1[n-]cccc1[O-] (protonated)
COc1ncccc1C(=O)[N-]S(=O)(=O)c1ccccc1C(=O)/N=c1\[n-]cccc1[O-] (cis-trans isomerization)
COc1ncccc1C(=O)[N-]S(=O)(=O)c1ccccc1C(=O)/N=c1\[n-]cccc1[O-] (3D coordinates assigned)
COc1ncccc1C(=O)[N-]S(=O)(=O)c1ccccc1C(=O)/N=c1\[n-]cccc1[O-] (optimized conformer: 62.63275166157655 kcal/mol)

> <smiles>
COc1ncccc1C(=O)NS(=O)(=O)c1ccccc1C(=O)N=c1[nH]cccc1O

> <score_type>
oracle

> <origin>
adg

> <m_score__min__energy>
-14.82

> <m_primary>
energy

> <minimizedAffinity>
-6.39372

> <minimizedRMSD>
0.97106

> <CNNscore>
0.1396705061

> <CNNaffinity>
4.9601383209

> <CNN_VS>
0.6927850246

> <CNNaffinity_variance>
0.3680806458

$$$$
55:0


 31 33  0  0  0  0  0  0  0  0999 V2000
   60.4109   28.5257   48.3978 C   0  0  0  0  0  0  0  0  0  0  0  0
   60.7635   29.5890   47.5476 C   0  0  0  0  0  0  0  0  0  0  0  0
   61.3216   30.7586   48.0692 C   0  0  0  0  0  0  0  0  0  0  0  0
   61.5486   30.8878   49.4432 C   0  0  0  0  0  0  0  0  0  0  0  0
   61.2148   29.8208   50.2962 C   0  0  0  0  0  0  0  0  0  0  0  0
   60.6544   28.6486   49.7769 C   0  0  0  0  0  0  0  0  0  0  0  0
   58.3965   27.1640   47.6462 N   0  0  0  0  0  0  0  0  0  0  0  0
   59.8171   27.2894   47.8316 C   0  0  0  0  0  0  0  0  0  0  0  0
   60.5758   26.3405   47.4906 O   0  0  0  0  0  0  0  0  0  0  0  0
   57.8228   27.9396   47.8424 H   0  0  0  0  0  0  0  0  0  0  0  0
   57.7726   25.9278   47.1773 C   0  0  0  0  0  0  0  0  0  0  0  0
   56.7622   26.2172   46.0956 C   0  0  0  0  0  0  0  0  0  0  0  0
   55.6320   25.6615   46.1594 O   0  0  0  0  0  0  0  0  0  0  0  0
   59.8527   29.2147   44.7088 C   0  0  0  0  0  0  0  0  0  0  0  0
   59.1323   28.0632   44.7584 N   0  0  0  0  0  0  0  0  0  0  0  0
   57.7706   28.0625   44.8268 C   0  0  0  0  0  0  0  0  0  0  0  0
   57.0994   26.9486   44.9067 N   0  0  0  0  0  0  0  0  0  0  0  0
   57.0838   29.2859   44.8652 C   0  0  0  0  0  0  0  0  0  0  0  0
   55.6961   29.3196   44.9535 O   0  0  0  0  0  0  0  0  0  0  0  0
   57.8072   30.4800   44.8136 C   0  0  0  0  0  0  0  0  0  0  0  0
   59.1999   30.4478   44.7332 C   0  0  0  0  0  0  0  0  0  0  0  0
   62.1176   32.1080   49.9346 N   0  0  0  0  0  0  0  0  0  0  0  0
   62.2618   33.5795   49.0291 S   0  0  0  0  0  0  0  0  0  0  0  0
   63.5630   33.5705   48.2778 O   0  0  0  0  0  0  0  0  0  0  0  0
   62.2592   34.7435   49.9795 O   0  0  0  0  0  0  0  0  0  0  0  0
   60.8991   33.7398   47.9268 C   0  0  0  0  0  0  0  0  0  0  0  0
   61.1072   33.9977   46.5642 C   0  0  0  0  0  0  0  0  0  0  0  0
   60.0167   34.1199   45.6972 C   0  0  0  0  0  0  0  0  0  0  0  0
   58.7141   33.9893   46.1886 C   0  0  0  0  0  0  0  0  0  0  0  0
   58.5008   33.7347   47.5478 C   0  0  0  0  0  0  0  0  0  0  0  0
   59.5902   33.6115   48.4146 C   0  0  0  0  0  0  0  0  0  0  0  0
 14 15  1  0
 15 16  1  0
 16 17  2  0
 17 12  1  0
 12 13  2  0
 12 11  1  0
 11  7  1  0
  7  8  1  0
  8  9  2  0
  8  1  1  0
  1  2  2  0
  2  3  1  0
  3  4  2  0
  4 22  1  0
 22 23  1  0
 23 24  2  0
 23 25  2  0
 23 26  1  0
 26 27  2  0
 27 28  1  0
 28 29  2  0
 29 30  1  0
 30 31  2  0
  4  5  1  0
  5  6  2  0
 16 18  1  0
 18 19  1  0
 18 20  2  0
 20 21  1  0
 21 14  2  0
  6  1  1  0
 31 26  1  0
  7 10  1  0
M  CHG 1  15  -1
M  CHG 1  19  -1
M  CHG 1  22  -1
M  END
> <UniqueID>
55

> <SMILES>
O=C(CNC(=O)c1ccc([N-]S(=O)(=O)c2ccccc2)cc1)/N=c1\[n-]cccc1[O-]

> <Energy>
59.11739467865154

> <Genealogy>
O=C(CNC(=O)c1ccc([N-]S(=O)(=O)c2ccccc2)cc1)N=c1[n-]cccc1[O-] (protonated)
O=C(CNC(=O)c1ccc([N-]S(=O)(=O)c2ccccc2)cc1)/N=c1\[n-]cccc1[O-] (cis-trans isomerization)
O=C(CNC(=O)c1ccc([N-]S(=O)(=O)c2ccccc2)cc1)/N=c1\[n-]cccc1[O-] (3D coordinates assigned)
O=C(CNC(=O)c1ccc([N-]S(=O)(=O)c2ccccc2)cc1)/N=c1\[n-]cccc1[O-] (optimized conformer: 59.11739467865154 kcal/mol)

> <smiles>
O=C(CNC(=O)c1ccc(NS(=O)(=O)c2ccccc2)cc1)N=c1[nH]cccc1O

> <score_type>
oracle

> <origin>
adg

> <m_score__min__energy>
-14.880000000000001

> <m_primary>
energy

> <minimizedAffinity>
-6.42899

> <minimizedRMSD>
0.63883

> <CNNscore>
0.5833271146

> <CNNaffinity>
6.5547771454

> <CNN_VS>
3.8235793114

> <CNNaffinity_variance>
0.0382652245

$$$$
57:0


 30 33  0  0  0  0  0  0  0  0999 V2000
   55.0551   27.9471   53.7983 C   0  0  0  0  0  0  0  0  0  0  0  0
   55.3558   29.1424   53.2636 C   0  0  0  0  0  0  0  0  0  0  0  0
   54.4499   30.0487   52.7036 C   0  0  0  0  0  0  0  0  0  0  0  0
   53.1105   29.9245   52.6207 C   0  0  0  0  0  0  0  0  0  0  0  0
   55.2016   31.1364   52.2833 C   0  0  0  0  0  0  0  0  0  0  0  0
   56.5197   30.8456   52.5702 C   0  0  0  0  0  0  0  0  0  0  0  0
   56.6158   29.6396   53.1816 N   0  0  0  0  0  0  0  0  0  0  0  0
   57.8274   29.0245   53.7336 C   0  0  0  0  0  0  0  0  0  0  0  0
   57.6457   31.7490   52.2567 C   0  0  0  0  0  0  0  0  0  0  0  0
   57.5007   32.9853   52.4573 O   0  0  0  0  0  0  0  0  0  0  0  0
   58.8715   31.2578   51.6816 N   0  0  0  0  0  0  0  0  0  0  0  0
   58.8395   30.2201   50.6370 C   0  0  0  0  0  0  0  0  0  0  0  0
   60.0163   29.2438   50.8056 C   0  0  0  0  0  0  0  0  0  0  0  0
   61.2533   29.9426   51.1907 N   0  0  0  0  0  0  0  0  0  0  0  0
   61.2935   31.4093   51.1567 C   0  0  0  0  0  0  0  0  0  0  0  0
   60.1264   31.9724   51.9698 C   0  0  0  0  0  0  0  0  0  0  0  0
   62.3810   29.1813   51.6682 C   0  0  0  0  0  0  0  0  0  0  0  0
   62.2061   27.8641   52.1311 C   0  0  0  0  0  0  0  0  0  0  0  0
   63.3007   27.1249   52.5885 C   0  0  0  0  0  0  0  0  0  0  0  0
   64.5774   27.6906   52.5879 C   0  0  0  0  0  0  0  0  0  0  0  0
   64.7635   28.9969   52.1250 C   0  0  0  0  0  0  0  0  0  0  0  0
   66.0039   29.5447   52.1242 F   0  0  0  0  0  0  0  0  0  0  0  0
   63.6709   29.7375   51.6606 C   0  0  0  0  0  0  0  0  0  0  0  0
   52.3218   30.2605   51.4203 C   0  0  0  0  0  0  0  0  0  0  0  0
   52.2860   29.4878   50.3211 N   0  0  0  0  0  0  0  0  0  0  0  0
   51.5248   30.1992   49.4620 C   0  0  0  0  0  0  0  0  0  0  0  0
   51.2449   29.7900   48.3071 O   0  0  0  0  0  0  0  0  0  0  0  0
   51.0942   31.3881   49.9372 N   0  0  0  0  0  0  0  0  0  0  0  0
   51.6175   31.4195   51.1726 C   0  0  0  0  0  0  0  0  0  0  0  0
   51.4906   32.5029   52.0346 O   0  0  0  0  0  0  0  0  0  0  0  0
  1  2  2  0
  2  3  1  0
  3  4  2  0
  4 24  1  0
 24 25  1  0
 25 26  1  0
 26 27  2  0
 26 28  1  0
 28 29  1  0
 29 30  1  0
  3  5  1  0
  5  6  2  0
  6  9  1  0
  9 10  2  0
  9 11  1  0
 11 12  1  0
 12 13  1  0
 13 14  1  0
 14 17  1  0
 17 18  2  0
 18 19  1  0
 19 20  2  0
 20 21  1  0
 21 22  1  0
 21 23  2  0
 14 15  1  0
 15 16  1  0
  6  7  1  0
  7  8  1  0
  7  2  1  0
 29 24  2  0
 16 11  1  0
 23 17  1  0
M  CHG 1  25  -1
M  CHG 1  28  -1
M  CHG 1  30  -1
M  END
> <UniqueID>
57

> <SMILES>
C=c1/c(=C/c2[n-]c(=O)[n-]c2[O-])cc(C(=O)N2CCN(c3cccc(F)c3)CC2)n1C

> <Energy>
127.77253179605408

> <Genealogy>
C=c1c(=Cc2[n-]c(=O)[n-]c2[O-])cc(C(=O)N2CCN(c3cccc(F)c3)CC2)n1C (protonated)
C=c1/c(=C/c2[n-]c(=O)[n-]c2[O-])cc(C(=O)N2CCN(c3cccc(F)c3)CC2)n1C (cis-trans isomerization)
C=c1/c(=C/c2[n-]c(=O)[n-]c2[O-])cc(C(=O)N2CCN(c3cccc(F)c3)CC2)n1C (3D coordinates assigned)
C=c1/c(=C/c2[n-]c(=O)[n-]c2[O-])cc(C(=O)N2CCN(c3cccc(F)c3)CC2)n1C (nonaromatic ring conformer: 127.77253179605408 kcal/mol)

> <smiles>
C=c1c(=Cc2[nH]c(=O)[nH]c2O)cc(C(=O)N2CCN(c3cccc(F)c3)CC2)n1C

> <score_type>
oracle

> <origin>
adg

> <m_score__min__energy>
-17.399999999999999

> <m_primary>
energy

> <minimizedAffinity>
-5.63841

> <minimizedRMSD>
0.83692

> <CNNscore>
0.0802539438

> <CNNaffinity>
4.4104685783

> <CNN_VS>
0.3539575040

> <CNNaffinity_variance>
0.9072195888

$$$$
63:0


 31 33  0  0  0  0  0  0  0  0999 V2000
   60.8185   26.6244   47.2722 O   0  0  0  0  0  0  0  0  0  0  0  0
   59.7843   27.0380   47.8624 C   0  0  0  0  0  0  0  0  0  0  0  0
   59.8275   27.3516   49.2641 N   0  0  0  0  0  0  0  0  0  0  0  0
   59.0055   27.6690   49.7032 H   0  0  0  0  0  0  0  0  0  0  0  0
   58.5066   27.1884   47.0932 C   0  0  0  0  0  0  0  0  0  0  0  0
   58.5424   28.4259   46.2489 C   0  0  0  0  0  0  0  0  0  0  0  0
   58.6282   29.7248   46.7024 C   0  0  0  0  0  0  0  0  0  0  0  0
   58.5842   30.5233   45.5689 C   0  0  0  0  0  0  0  0  0  0  0  0
   58.4767   29.7792   44.4469 N   0  0  0  0  0  0  0  0  0  0  0  0
   58.4433   28.5031   44.8762 C   0  0  0  0  0  0  0  0  0  0  0  0
   58.3259   27.4119   44.0224 O   0  0  0  0  0  0  0  0  0  0  0  0
   58.6790   31.9950   45.5679 C   0  0  0  0  0  0  0  0  0  0  0  0
   58.0678   32.6514   44.6845 O   0  0  0  0  0  0  0  0  0  0  0  0
   59.4349   32.6924   46.5731 N   0  0  0  0  0  0  0  0  0  0  0  0
   58.8756   33.9177   47.1613 C   0  0  0  0  0  0  0  0  0  0  0  0
   59.8002   34.5019   48.2391 C   0  0  0  0  0  0  0  0  0  0  0  0
   60.3239   33.3864   49.1553 C   0  0  0  0  0  0  0  0  0  0  0  0
   61.0740   32.2798   48.3794 C   0  0  0  0  0  0  0  0  0  0  0  0
   60.8258   32.3150   46.8626 C   0  0  0  0  0  0  0  0  0  0  0  0
   61.0441   27.2180   50.0639 C   0  0  0  0  0  0  0  0  0  0  0  0
   61.3124   28.4975   50.8592 C   0  0  0  0  0  0  0  0  0  0  0  0
   60.1027   28.9312   51.5541 N   0  0  0  0  0  0  0  0  0  0  0  0
   59.2721   30.0365   51.1698 C   0  0  0  0  0  0  0  0  0  0  0  0
   58.4816   29.8924   50.2006 O   0  0  0  0  0  0  0  0  0  0  0  0
   59.3188   31.3367   51.8703 C   0  0  0  0  0  0  0  0  0  0  0  0
   60.5422   31.8502   52.3302 C   0  0  0  0  0  0  0  0  0  0  0  0
   60.5904   33.0945   52.9656 C   0  0  0  0  0  0  0  0  0  0  0  0
   59.4211   33.8407   53.1354 C   0  0  0  0  0  0  0  0  0  0  0  0
   58.2024   33.3468   52.6653 C   0  0  0  0  0  0  0  0  0  0  0  0
   58.1478   32.1012   52.0284 C   0  0  0  0  0  0  0  0  0  0  0  0
   56.9527   31.6365   51.5829 F   0  0  0  0  0  0  0  0  0  0  0  0
  1  2  2  0
  2  5  1  0
  5  6  1  0
  6  7  1  0
  7  8  2  0
  8 12  1  0
 12 13  2  0
 12 14  1  0
 14 15  1  0
 15 16  1  0
 16 17  1  0
 17 18  1  0
 18 19  1  0
  8  9  1  0
  9 10  1  0
 10 11  1  0
  2  3  1  0
  3 20  1  0
 20 21  1  0
 21 22  1  0
 22 23  1  0
 23 24  2  0
 23 25  1  0
 25 26  2  0
 26 27  1  0
 27 28  2  0
 28 29  1  0
 29 30  2  0
 30 31  1  0
 10  6  2  0
 30 25  1  0
 19 14  1  0
  3  4  1  0
M  CHG 1   9  -1
M  CHG 1  11  -1
M  CHG 1  22  -1
M  END
> <UniqueID>
62

> <SMILES>
O=C(Cc1cc(C(=O)N2CCCCC2)[n-]c1[O-])NCC[N-]C(=O)c1ccccc1F

> <Energy>
80.63557729789929

> <Genealogy>
O=C(Cc1cc(C(=O)N2CCCCC2)[n-]c1[O-])NCC[N-]C(=O)c1ccccc1F (protonated)
O=C(Cc1cc(C(=O)N2CCCCC2)[n-]c1[O-])NCC[N-]C(=O)c1ccccc1F (3D coordinates assigned)
O=C(Cc1cc(C(=O)N2CCCCC2)[n-]c1[O-])NCC[N-]C(=O)c1ccccc1F (nonaromatic ring conformer: 80.63557729789929 kcal/mol)

> <smiles>
O=C(Cc1cc(C(=O)N2CCCCC2)[nH]c1O)NCCNC(=O)c1ccccc1F

> <score_type>
oracle

> <origin>
adg

> <m_score__min__energy>
-14.81

> <m_primary>
energy

> <minimizedAffinity>
-5.78986

> <minimizedRMSD>
2.06616

> <CNNscore>
0.1943237633

> <CNNaffinity>
6.4727725983

> <CNN_VS>
1.2578135729

> <CNNaffinity_variance>
0.0640472099

$$$$
66:0


 28 30  0  0  0  0  0  0  0  0999 V2000
   60.0713   29.3758   45.0289 C   0  0  0  0  0  0  0  0  0  0  0  0
   59.6126   29.5828   46.2835 C   0  0  0  0  0  0  0  0  0  0  0  0
   59.3822   30.9180   46.7630 C   0  0  0  0  0  0  0  0  0  0  0  0
   59.1333   31.1063   48.1399 C   0  0  0  0  0  0  0  0  0  0  0  0
   59.1889   30.0485   49.0467 C   0  0  0  0  0  0  0  0  0  0  0  0
   59.3908   28.7523   48.5731 C   0  0  0  0  0  0  0  0  0  0  0  0
   59.4754   28.4810   47.1970 C   0  0  0  0  0  0  0  0  0  0  0  0
   59.3836   27.1729   46.8372 C   0  0  0  0  0  0  0  0  0  0  0  0
   59.0138   30.3006   50.4973 C   0  0  0  0  0  0  0  0  0  0  0  0
   58.0093   29.8214   51.0895 O   0  0  0  0  0  0  0  0  0  0  0  0
   59.9627   31.0877   51.2426 N   0  0  0  0  0  0  0  0  0  0  0  0
   61.2989   30.5667   51.5391 C   0  0  0  0  0  0  0  0  0  0  0  0
   62.3538   31.5513   51.1175 C   0  0  0  0  0  0  0  0  0  0  0  0
   63.5450   31.1520   50.9980 O   0  0  0  0  0  0  0  0  0  0  0  0
   62.0323   32.9456   50.9245 N   0  0  0  0  0  0  0  0  0  0  0  0
   63.1099   33.8987   50.6463 C   0  0  0  0  0  0  0  0  0  0  0  0
   60.6351   33.3877   50.8007 C   0  0  0  0  0  0  0  0  0  0  0  0
   59.6871   32.4841   51.5865 C   0  0  0  0  0  0  0  0  0  0  0  0
   58.1551   26.3534   46.8677 C   0  0  0  0  0  0  0  0  0  0  0  0
   58.0251   25.1799   47.5141 N   0  0  0  0  0  0  0  0  0  0  0  0
   56.7886   24.7657   47.1654 C   0  0  0  0  0  0  0  0  0  0  0  0
   56.2892   23.6903   47.5881 O   0  0  0  0  0  0  0  0  0  0  0  0
   56.1328   25.5892   46.3202 N   0  0  0  0  0  0  0  0  0  0  0  0
   57.0174   26.5819   46.1325 C   0  0  0  0  0  0  0  0  0  0  0  0
   56.7879   27.6744   45.3067 O   0  0  0  0  0  0  0  0  0  0  0  0
   59.3504   32.1378   45.8214 C   0  0  0  0  0  0  0  0  0  0  0  0
   59.9177   33.4375   46.4197 C   0  0  0  0  0  0  0  0  0  0  0  0
   57.9216   32.3743   45.3190 C   0  0  0  0  0  0  0  0  0  0  0  0
  1  2  2  0
  2  3  1  0
  3 26  1  0
 26 27  1  0
 26 28  1  0
  3  4  2  0
  4  5  1  0
  5  9  1  0
  9 10  2  0
  9 11  1  0
 11 12  1  0
 12 13  1  0
 13 14  2  0
 13 15  1  0
 15 16  1  0
 15 17  1  0
 17 18  1  0
  5  6  2  0
  6  7  1  0
  7  8  2  0
  8 19  1  0
 19 20  1  0
 20 21  1  0
 21 22  2  0
 21 23  1  0
 23 24  1  0
 24 25  1  0
  7  2  1  0
 24 19  2  0
 18 11  1  0
M  CHG 1  20  -1
M  CHG 1  23  -1
M  CHG 1  25  -1
M  END
> <UniqueID>
65

> <SMILES>
C=c1c(C(C)C)cc(C(=O)N2CCN(C)C(=O)C2)c/c1=C/c1[n-]c(=O)[n-]c1[O-]

> <Energy>
109.80467300321465

> <Genealogy>
C=c1c(C(C)C)cc(C(=O)N2CCN(C)C(=O)C2)cc1=Cc1[n-]c(=O)[n-]c1[O-] (protonated)
C=c1c(C(C)C)cc(C(=O)N2CCN(C)C(=O)C2)c/c1=C/c1[n-]c(=O)[n-]c1[O-] (cis-trans isomerization)
C=c1c(C(C)C)cc(C(=O)N2CCN(C)C(=O)C2)c/c1=C/c1[n-]c(=O)[n-]c1[O-] (3D coordinates assigned)
C=c1c(C(C)C)cc(C(=O)N2CCN(C)C(=O)C2)c/c1=C/c1[n-]c(=O)[n-]c1[O-] (nonaromatic ring conformer: 109.80467300321465 kcal/mol)

> <smiles>
C=c1c(C(C)C)cc(C(=O)N2CCN(C)C(=O)C2)cc1=Cc1[nH]c(=O)[nH]c1O

> <score_type>
oracle

> <origin>
adg

> <m_score__min__energy>
-15.85

> <m_primary>
energy

> <minimizedAffinity>
-7.49216

> <minimizedRMSD>
1.32982

> <CNNscore>
0.4556557834

> <CNNaffinity>
6.5765419006

> <CNN_VS>
2.9966392517

> <CNNaffinity_variance>
0.1966039389

$$$$
68:0


 28 30  0  0  0  0  0  0  0  0999 V2000
   58.3344   31.6337   46.0311 C   0  0  0  0  0  0  0  0  0  0  0  0
   57.7526   31.8611   44.7725 C   0  0  0  0  0  0  0  0  0  0  0  0
   57.3274   30.7860   43.9883 C   0  0  0  0  0  0  0  0  0  0  0  0
   57.4716   29.4773   44.4532 C   0  0  0  0  0  0  0  0  0  0  0  0
   58.0372   29.2324   45.7109 C   0  0  0  0  0  0  0  0  0  0  0  0
   58.4952   30.3136   46.4836 C   0  0  0  0  0  0  0  0  0  0  0  0
   62.6709   31.0694   50.6229 C   0  0  0  0  0  0  0  0  0  0  0  0
   61.5211   31.4698   49.6918 C   0  0  0  0  0  0  0  0  0  0  0  0
   61.8510   31.1205   48.2179 C   0  0  0  0  0  0  0  0  0  0  0  0
   61.2083   32.0795   47.1995 C   0  0  0  0  0  0  0  0  0  0  0  0
   59.9528   32.6442   47.7151 N   0  0  0  0  0  0  0  0  0  0  0  0
   58.8048   32.7699   46.8577 C   0  0  0  0  0  0  0  0  0  0  0  0
   58.1768   33.8629   46.8199 O   0  0  0  0  0  0  0  0  0  0  0  0
   59.9369   33.3098   49.0250 C   0  0  0  0  0  0  0  0  0  0  0  0
   61.1826   32.9615   49.8540 C   0  0  0  0  0  0  0  0  0  0  0  0
   58.1679   27.8748   46.1576 N   0  0  0  0  0  0  0  0  0  0  0  0
   58.0723   26.7010   45.3393 C   0  0  0  0  0  0  0  0  0  0  0  0
   58.4750   26.7611   44.1477 O   0  0  0  0  0  0  0  0  0  0  0  0
   57.4714   25.4392   45.8389 C   0  0  0  0  0  0  0  0  0  0  0  0
   56.1090   25.3639   46.1852 C   0  0  0  0  0  0  0  0  0  0  0  0
   55.2751   26.4669   46.0303 O   0  0  0  0  0  0  0  0  0  0  0  0
   55.5939   24.1990   46.6593 N   0  0  0  0  0  0  0  0  0  0  0  0
   56.3667   23.0924   46.7956 C   0  0  0  0  0  0  0  0  0  0  0  0
   55.8654   22.0271   47.2380 O   0  0  0  0  0  0  0  0  0  0  0  0
   57.6781   23.1323   46.4513 N   0  0  0  0  0  0  0  0  0  0  0  0
   58.2455   24.2711   45.9765 C   0  0  0  0  0  0  0  0  0  0  0  0
   59.4697   24.2702   45.6785 O   0  0  0  0  0  0  0  0  0  0  0  0
   55.6216   27.2740   45.7041 H   0  0  0  0  0  0  0  0  0  0  0  0
  7  8  1  0
  8  9  1  0
  9 10  1  0
 10 11  1  0
 11 12  1  0
 12 13  2  0
 12  1  1  0
  1  2  2  0
  2  3  1  0
  3  4  2  0
  4  5  1  0
  5 16  1  0
 16 17  1  0
 17 18  2  0
 17 19  1  0
 19 20  2  0
 20 21  1  0
 20 22  1  0
 22 23  1  0
 23 24  2  0
 23 25  1  0
 25 26  1  0
 26 27  2  0
  5  6  2  0
 11 14  1  0
 14 15  1  0
 15  8  1  0
  6  1  1  0
 26 19  1  0
 21 28  1  0
M  CHG 1  16  -1
M  CHG 1  22  -1
M  CHG 1  25  -1
M  END
> <UniqueID>
67

> <SMILES>
CC1CCN(C(=O)c2cccc([N-]C(=O)c3c(O)[n-]c(=O)[n-]c3=O)c2)CC1

> <Energy>
59.25321280249396

> <Genealogy>
CC1CCN(C(=O)c2cccc([N-]C(=O)c3c(O)[n-]c(=O)[n-]c3=O)c2)CC1 (protonated)
CC1CCN(C(=O)c2cccc([N-]C(=O)c3c(O)[n-]c(=O)[n-]c3=O)c2)CC1 (3D coordinates assigned)
CC1CCN(C(=O)c2cccc([N-]C(=O)c3c(O)[n-]c(=O)[n-]c3=O)c2)CC1 (nonaromatic ring conformer: 59.25321280249396 kcal/mol)

> <smiles>
CC1CCN(C(=O)c2cccc(NC(=O)c3c(O)[nH]c(=O)[nH]c3=O)c2)CC1

> <score_type>
oracle

> <origin>
adg

> <m_score__min__energy>
-14.65

> <m_primary>
energy

> <minimizedAffinity>
-8.89282

> <minimizedRMSD>
1.80527

> <CNNscore>
0.2471453696

> <CNNaffinity>
6.2940354347

> <CNN_VS>
1.5555417538

> <CNNaffinity_variance>
0.2537899017

$$$$
79:0


 34 38  0  0  0  0  0  0  0  0999 V2000
   58.4177   30.1063   44.1301 C   0  0  0  0  0  0  0  0  0  0  0  0
   58.4641   29.6615   45.3980 C   0  0  0  0  0  0  0  0  0  0  0  0
   58.4984   28.3154   45.7893 C   0  0  0  0  0  0  0  0  0  0  0  0
   58.2208   27.1833   45.1118 C   0  0  0  0  0  0  0  0  0  0  0  0
   58.8424   28.3147   47.1218 C   0  0  0  0  0  0  0  0  0  0  0  0
   58.9282   29.6286   47.5219 C   0  0  0  0  0  0  0  0  0  0  0  0
   58.6589   30.4720   46.4812 N   0  0  0  0  0  0  0  0  0  0  0  0
   57.7475   25.9172   45.6979 C   0  0  0  0  0  0  0  0  0  0  0  0
   58.4584   24.7759   45.7499 N   0  0  0  0  0  0  0  0  0  0  0  0
   57.5763   23.8784   46.2402 C   0  0  0  0  0  0  0  0  0  0  0  0
   57.8795   22.6765   46.4560 O   0  0  0  0  0  0  0  0  0  0  0  0
   56.3417   24.3690   46.4764 N   0  0  0  0  0  0  0  0  0  0  0  0
   56.4649   25.6570   46.1145 C   0  0  0  0  0  0  0  0  0  0  0  0
   55.4224   26.5743   46.1555 O   0  0  0  0  0  0  0  0  0  0  0  0
   58.5766   31.9556   46.4563 C   0  0  0  0  0  0  0  0  0  0  0  0
   57.5440   32.4499   45.4235 C   0  0  0  0  0  0  0  0  0  0  0  0
   57.3900   33.9760   45.4970 C   0  0  0  0  0  0  0  0  0  0  0  0
   58.7411   34.6840   45.3293 C   0  0  0  0  0  0  0  0  0  0  0  0
   59.7585   34.1864   46.3653 C   0  0  0  0  0  0  0  0  0  0  0  0
   59.9331   32.6653   46.2640 C   0  0  0  0  0  0  0  0  0  0  0  0
   59.2430   29.9842   48.9202 C   0  0  0  0  0  0  0  0  0  0  0  0
   58.5384   29.4756   49.8353 O   0  0  0  0  0  0  0  0  0  0  0  0
   60.4199   30.7673   49.2363 N   0  0  0  0  0  0  0  0  0  0  0  0
   60.0264   32.1187   49.6918 C   0  0  0  0  0  0  0  0  0  0  0  0
   61.2365   33.0741   49.7655 C   0  0  0  0  0  0  0  0  0  0  0  0
   62.5073   32.3137   49.7928 N   0  0  0  0  0  0  0  0  0  0  0  0
   62.6602   31.5721   48.5154 C   0  0  0  0  0  0  0  0  0  0  0  0
   61.3516   30.8679   48.0920 C   0  0  0  0  0  0  0  0  0  0  0  0
   60.9751   31.4944   49.6000 H   0  0  0  0  0  0  0  0  0  0  0  0
   63.6458   33.2199   50.1247 C   0  0  0  0  0  0  0  0  0  0  0  0
   63.6664   33.4730   51.6372 C   0  0  0  0  0  0  0  0  0  0  0  0
   64.5577   32.3917   52.2445 C   0  0  0  0  0  0  0  0  0  0  0  0
   65.3430   31.7690   51.0948 C   0  0  0  0  0  0  0  0  0  0  0  0
   65.0454   32.6294   49.8801 C   0  0  0  0  0  0  0  0  0  0  0  0
  1  2  2  0
  2  3  1  0
  3  4  2  0
  4  8  1  0
  8  9  1  0
  9 10  1  0
 10 11  2  0
 10 12  1  0
 12 13  1  0
 13 14  1  0
  3  5  1  0
  5  6  2  0
  6 21  1  0
 21 22  2  0
 21 23  1  0
 23 24  1  0
 24 25  1  0
 25 26  1  0
 26 30  1  0
 30 31  1  0
 31 32  1  0
 32 33  1  0
 33 34  1  0
 26 27  1  0
 27 28  1  0
  6  7  1  0
  7 15  1  0
 15 16  1  0
 16 17  1  0
 17 18  1  0
 18 19  1  0
 19 20  1  0
  7  2  1  0
 20 15  1  0
 13  8  2  0
 28 23  1  0
 34 30  1  0
 23 29  1  0
M  CHG 1   9  -1
M  CHG 1  12  -1
M  CHG 1  14  -1
M  CHG 1  23   1
M  END
> <UniqueID>
78

> <SMILES>
C=c1/c(=C\c2[n-]c(=O)[n-]c2[O-])cc(C(=O)[NH+]2CCN(C3CCCC3)CC2)n1C1CCCCC1

> <Energy>
162.43696216811335

> <Genealogy>
C=c1c(=Cc2[n-]c(=O)[n-]c2[O-])cc(C(=O)[NH+]2CCN(C3CCCC3)CC2)n1C1CCCCC1 (protonated)
C=c1/c(=C\c2[n-]c(=O)[n-]c2[O-])cc(C(=O)[NH+]2CCN(C3CCCC3)CC2)n1C1CCCCC1 (cis-trans isomerization)
C=c1/c(=C\c2[n-]c(=O)[n-]c2[O-])cc(C(=O)[NH+]2CCN(C3CCCC3)CC2)n1C1CCCCC1 (3D coordinates assigned)
C=c1/c(=C\c2[n-]c(=O)[n-]c2[O-])cc(C(=O)[NH+]2CCN(C3CCCC3)CC2)n1C1CCCCC1 (nonaromatic ring conformer: 162.43696216811335 kcal/mol)

> <smiles>
C=c1c(=Cc2[nH]c(=O)[nH]c2O)cc(C(=O)N2CCN(C3CCCC3)CC2)n1C1CCCCC1

> <score_type>
oracle

> <origin>
adg

> <m_score__min__energy>
-17.129999999999999

> <m_primary>
energy

> <minimizedAffinity>
-8.65111

> <minimizedRMSD>
0.61494

> <CNNscore>
0.1156980917

> <CNNaffinity>
6.7207455635

> <CNN_VS>
0.7775774598

> <CNNaffinity_variance>
0.3445585668

$$$$
82:0


 28 31  0  0  0  0  0  0  0  0999 V2000
   59.8975   27.2359   47.0290 C   0  0  0  0  0  0  0  0  0  0  0  0
   59.1980   28.1991   46.4175 C   0  0  0  0  0  0  0  0  0  0  0  0
   59.2873   29.4922   46.7814 N   0  0  0  0  0  0  0  0  0  0  0  0
   58.4689   30.1903   45.9744 C   0  0  0  0  0  0  0  0  0  0  0  0
   57.8195   29.3424   45.0885 C   0  0  0  0  0  0  0  0  0  0  0  0
   56.7539   29.9549   43.6117 Br  0  0  0  0  0  0  0  0  0  0  0  0
   58.2808   28.0513   45.3709 C   0  0  0  0  0  0  0  0  0  0  0  0
   57.9612   26.8917   44.7564 C   0  0  0  0  0  0  0  0  0  0  0  0
   59.8472   29.8584   47.5037 H   0  0  0  0  0  0  0  0  0  0  0  0
   57.6199   25.6360   45.4407 C   0  0  0  0  0  0  0  0  0  0  0  0
   58.3768   24.5242   45.4208 N   0  0  0  0  0  0  0  0  0  0  0  0
   57.5996   23.6069   46.0386 C   0  0  0  0  0  0  0  0  0  0  0  0
   57.9742   22.4212   46.2307 O   0  0  0  0  0  0  0  0  0  0  0  0
   56.3860   24.0576   46.4214 N   0  0  0  0  0  0  0  0  0  0  0  0
   56.4102   25.3393   46.0216 C   0  0  0  0  0  0  0  0  0  0  0  0
   55.3466   26.2189   46.1764 O   0  0  0  0  0  0  0  0  0  0  0  0
   58.2791   31.6737   46.0859 C   0  0  0  0  0  0  0  0  0  0  0  0
   59.2992   32.2530   47.0270 C   0  0  0  0  0  0  0  0  0  0  0  0
   58.9269   33.2633   47.9265 C   0  0  0  0  0  0  0  0  0  0  0  0
   59.8846   33.8277   48.7685 C   0  0  0  0  0  0  0  0  0  0  0  0
   61.2114   33.3908   48.7051 C   0  0  0  0  0  0  0  0  0  0  0  0
   62.1964   33.9437   49.5384 C   0  0  0  0  0  0  0  0  0  0  0  0
   63.5168   33.4928   49.4547 C   0  0  0  0  0  0  0  0  0  0  0  0
   63.8620   32.4922   48.5410 C   0  0  0  0  0  0  0  0  0  0  0  0
   62.8881   31.9355   47.7068 C   0  0  0  0  0  0  0  0  0  0  0  0
   61.5570   32.3783   47.7822 C   0  0  0  0  0  0  0  0  0  0  0  0
   60.6005   31.8406   46.9695 N   0  0  0  0  0  0  0  0  0  0  0  0
   60.8546   31.1392   46.3270 H   0  0  0  0  0  0  0  0  0  0  0  0
  1  2  2  0
  2  3  1  0
  3  4  1  0
  4 17  1  0
 17 18  1  0
 18 19  2  0
 19 20  1  0
 20 21  2  0
 21 22  1  0
 22 23  2  0
 23 24  1  0
 24 25  2  0
 25 26  1  0
 26 27  2  0
  4  5  2  0
  5  6  1  0
  5  7  1  0
  7  8  2  0
  8 10  1  0
 10 11  1  0
 11 12  1  0
 12 13  2  0
 12 14  1  0
 14 15  1  0
 15 16  1  0
  7  2  1  0
 15 10  2  0
 27 18  1  0
 26 21  1  0
  3  9  1  0
 27 28  1  0
M  CHG 1  11  -1
M  CHG 1  14  -1
M  CHG 1  16  -1
M  CHG 1  27   1
M  END
> <UniqueID>
80

> <SMILES>
C=c1[nH]c(Cc2ccc3ccccc3[nH+]2)c(Br)c1=Cc1[n-]c(=O)[n-]c1[O-]

> <Energy>
111.87742585071496

> <Genealogy>
C=c1[nH]c(Cc2ccc3ccccc3[nH+]2)c(Br)c1=Cc1[n-]c(=O)[n-]c1[O-] (protonated)
C=c1[nH]c(Cc2ccc3ccccc3[nH+]2)c(Br)c1=Cc1[n-]c(=O)[n-]c1[O-] (3D coordinates assigned)
C=c1[nH]c(Cc2ccc3ccccc3[nH+]2)c(Br)c1=Cc1[n-]c(=O)[n-]c1[O-] (optimized conformer: 111.87742585071496 kcal/mol)

> <smiles>
C=c1[nH]c(Cc2ccc3ccccc3n2)c(Br)c1=Cc1[nH]c(=O)[nH]c1O

> <score_type>
oracle

> <origin>
adg

> <m_score__min__energy>
-15.18

> <m_primary>
energy

> <minimizedAffinity>
-9.04687

> <minimizedRMSD>
0.68622

> <CNNscore>
0.3847596943

> <CNNaffinity>
7.1586432457

> <CNN_VS>
2.7543573380

> <CNNaffinity_variance>
0.1838230342

$$$$
0:0


 27 29  0  0  0  0  0  0  0  0999 V2000
   60.1109   29.2622   48.3201 N   0  0  0  0  0  0  0  0  0  0  0  0
   59.2432   29.5297   49.3425 C   0  0  0  0  0  0  0  0  0  0  0  0
   59.1320   30.8177   49.8625 C   0  0  0  0  0  0  0  0  0  0  0  0
   59.9189   31.8308   49.3130 C   0  0  0  0  0  0  0  0  0  0  0  0
   60.8060   31.5234   48.3337 N   0  0  0  0  0  0  0  0  0  0  0  0
   60.9203   30.2621   47.8435 C   0  0  0  0  0  0  0  0  0  0  0  0
   61.7747   30.0346   46.9453 O   0  0  0  0  0  0  0  0  0  0  0  0
   59.7904   33.2301   49.7699 C   0  0  0  0  0  0  0  0  0  0  0  0
   59.9229   33.5026   50.9925 O   0  0  0  0  0  0  0  0  0  0  0  0
   59.5660   34.3001   48.8414 N   0  0  0  0  0  0  0  0  0  0  0  0
   59.1311   34.1510   47.4811 C   0  0  0  0  0  0  0  0  0  0  0  0
   57.9700   33.4252   47.1528 C   0  0  0  0  0  0  0  0  0  0  0  0
   57.5670   33.3068   45.8186 C   0  0  0  0  0  0  0  0  0  0  0  0
   58.3086   33.9225   44.8068 C   0  0  0  0  0  0  0  0  0  0  0  0
   59.4472   34.6664   45.1291 C   0  0  0  0  0  0  0  0  0  0  0  0
   59.8515   34.7878   46.4630 C   0  0  0  0  0  0  0  0  0  0  0  0
   60.1241   27.9070   47.7383 C   0  0  0  0  0  0  0  0  0  0  0  0
   58.1721   26.6438   47.2046 O   0  0  0  0  0  0  0  0  0  0  0  0
   58.8669   27.6628   46.9409 C   0  0  0  0  0  0  0  0  0  0  0  0
   58.3985   28.6144   45.9038 C   0  0  0  0  0  0  0  0  0  0  0  0
   59.3338   29.3687   45.1722 C   0  0  0  0  0  0  0  0  0  0  0  0
   58.9094   30.2384   44.1642 C   0  0  0  0  0  0  0  0  0  0  0  0
   57.5473   30.3723   43.8790 C   0  0  0  0  0  0  0  0  0  0  0  0
   57.1339   31.2339   42.8692 O   0  0  0  0  0  0  0  0  0  0  0  0
   56.6068   29.6416   44.6114 C   0  0  0  0  0  0  0  0  0  0  0  0
   55.2501   29.7779   44.3388 O   0  0  0  0  0  0  0  0  0  0  0  0
   57.0286   28.7717   45.6221 C   0  0  0  0  0  0  0  0  0  0  0  0
 18 19  2  0
 19 17  1  0
 17  1  1  0
  1  2  1  0
  2  3  2  0
  3  4  1  0
  4  8  1  0
  8  9  2  0
  8 10  1  0
 10 11  1  0
 11 12  2  0
 12 13  1  0
 13 14  2  0
 14 15  1  0
 15 16  2  0
  4  5  2  0
  5  6  1  0
  6  7  2  0
 19 20  1  0
 20 21  2  0
 21 22  1  0
 22 23  2  0
 23 24  1  0
 23 25  1  0
 25 26  1  0
 25 27  2  0
  6  1  1  0
 27 20  1  0
 16 11  1  0
M  CHG 1  10  -1
M  CHG 1  24  -1
M  CHG 1  26  -1
M  END
> <UniqueID>
1

> <SMILES>
O=C(Cn1ccc(C(=O)[N-]c2ccccc2)nc1=O)c1ccc([O-])c([O-])c1

> <Energy>
51.40223844728311

> <Genealogy>
O=C(Cn1ccc(C(=O)[N-]c2ccccc2)nc1=O)c1ccc([O-])c([O-])c1 (protonated)
O=C(Cn1ccc(C(=O)[N-]c2ccccc2)nc1=O)c1ccc([O-])c([O-])c1 (3D coordinates assigned)
O=C(Cn1ccc(C(=O)[N-]c2ccccc2)nc1=O)c1ccc([O-])c([O-])c1 (optimized conformer: 51.40223844728311 kcal/mol)

> <smiles>
O=C(Cn1ccc(C(=O)Nc2ccccc2)nc1=O)c1ccc(O)c(O)c1

> <score_type>
oracle

> <origin>
adg

> <m_score__min__energy>
-17.789999999999999

> <m_primary>
energy

> <minimizedAffinity>
-5.97736

> <minimizedRMSD>
1.75938

> <CNNscore>
0.5772426724

> <CNNaffinity>
6.3092894554

> <CNN_VS>
3.6419911385

> <CNNaffinity_variance>
0.1938286275

$$$$
7:0


 32 35  0  0  0  0  0  0  0  0999 V2000
   59.0912   32.8867   46.3032 C   0  0  0  0  0  0  0  0  0  0  0  0
   59.3751   34.1156   46.9194 C   0  0  0  0  0  0  0  0  0  0  0  0
   60.4868   34.2497   47.7541 C   0  0  0  0  0  0  0  0  0  0  0  0
   61.3376   33.1616   47.9768 C   0  0  0  0  0  0  0  0  0  0  0  0
   61.0758   31.9405   47.3383 C   0  0  0  0  0  0  0  0  0  0  0  0
   59.9709   31.8092   46.4929 C   0  0  0  0  0  0  0  0  0  0  0  0
   62.7241   33.3514   49.0448 S   0  0  0  0  0  0  0  0  0  0  0  0
   62.5305   34.5813   49.8855 O   0  0  0  0  0  0  0  0  0  0  0  0
   63.9769   33.5132   48.2295 O   0  0  0  0  0  0  0  0  0  0  0  0
   62.8943   31.9780   50.0883 N   0  0  0  0  0  0  0  0  0  0  0  0
   61.7996   31.0902   50.4692 C   0  0  0  0  0  0  0  0  0  0  0  0
   62.4302   30.0182   51.3936 C   0  0  0  0  0  0  0  0  0  0  0  0
   63.8703   30.3973   51.4332 C   0  0  0  0  0  0  0  0  0  0  0  0
   64.9147   29.7513   52.0982 C   0  0  0  0  0  0  0  0  0  0  0  0
   66.2123   30.2745   51.9739 C   0  0  0  0  0  0  0  0  0  0  0  0
   66.4438   31.4213   51.1894 C   0  0  0  0  0  0  0  0  0  0  0  0
   65.3762   32.0522   50.5292 C   0  0  0  0  0  0  0  0  0  0  0  0
   64.0938   31.5161   50.6788 C   0  0  0  0  0  0  0  0  0  0  0  0
   57.9039   32.7659   45.4319 C   0  0  0  0  0  0  0  0  0  0  0  0
   56.7973   33.1943   45.8551 O   0  0  0  0  0  0  0  0  0  0  0  0
   57.9401   32.1319   44.1437 N   0  0  0  0  0  0  0  0  0  0  0  0
   57.8489   30.7007   43.8578 C   0  0  0  0  0  0  0  0  0  0  0  0
   55.8333   29.7921   44.7519 O   0  0  0  0  0  0  0  0  0  0  0  0
   57.0681   29.9837   44.9155 C   0  0  0  0  0  0  0  0  0  0  0  0
   57.7689   29.3968   46.0219 N   0  0  0  0  0  0  0  0  0  0  0  0
   58.3411   28.2285   46.1385 C   0  0  0  0  0  0  0  0  0  0  0  0
   59.6516   28.2091   46.5067 N   0  0  0  0  0  0  0  0  0  0  0  0
   60.3560   27.0593   46.6617 C   0  0  0  0  0  0  0  0  0  0  0  0
   59.7369   25.8300   46.4493 C   0  0  0  0  0  0  0  0  0  0  0  0
   58.3886   25.7998   46.1003 C   0  0  0  0  0  0  0  0  0  0  0  0
   57.6703   26.9903   45.9532 C   0  0  0  0  0  0  0  0  0  0  0  0
   56.3121   26.9043   45.6770 O   0  0  0  0  0  0  0  0  0  0  0  0
 23 24  2  0
 24 22  1  0
 22 21  1  0
 21 19  1  0
 19 20  2  0
 19  1  1  0
  1  2  2  0
  2  3  1  0
  3  4  2  0
  4  7  1  0
  7  8  2  0
  7  9  2  0
  7 10  1  0
 10 11  1  0
 11 12  1  0
 12 13  1  0
 13 14  2  0
 14 15  1  0
 15 16  2  0
 16 17  1  0
 17 18  2  0
  4  5  1  0
  5  6  2  0
 24 25  1  0
 25 26  2  0
 26 27  1  0
 27 28  1  0
 28 29  2  0
 29 30  1  0
 30 31  2  0
 31 32  1  0
  6  1  1  0
 31 26  1  0
 18 10  1  0
 18 13  1  0
M  CHG 1  21  -1
M  CHG 1  27  -1
M  CHG 1  32  -1
M  END
> <UniqueID>
8

> <SMILES>
O=C(C[N-]C(=O)c1ccc(S(=O)(=O)N2CCc3ccccc32)cc1)N=c1[n-]cccc1[O-]

> <Energy>
79.3788348921819

> <Genealogy>
O=C(C[N-]C(=O)c1ccc(S(=O)(=O)N2CCc3ccccc32)cc1)N=c1[n-]cccc1[O-] (protonated)
O=C(C[N-]C(=O)c1ccc(S(=O)(=O)N2CCc3ccccc32)cc1)N=c1[n-]cccc1[O-] (3D coordinates assigned)
O=C(C[N-]C(=O)c1ccc(S(=O)(=O)N2CCc3ccccc32)cc1)N=c1[n-]cccc1[O-] (nonaromatic ring conformer: 79.3788348921819 kcal/mol)

> <smiles>
O=C(CNC(=O)c1ccc(S(=O)(=O)N2CCc3ccccc32)cc1)N=c1[nH]cccc1O

> <score_type>
oracle

> <origin>
adg

> <m_score__min__energy>
-17.030000000000001

> <m_primary>
energy

> <minimizedAffinity>
-8.66867

> <minimizedRMSD>
1.32173

> <CNNscore>
0.4624099731

> <CNNaffinity>
6.5736203194

> <CNN_VS>
3.0397076607

> <CNNaffinity_variance>
0.2685523033

$$$$
21:0


 28 31  0  0  0  0  0  0  0  0999 V2000
   60.9254   27.5719   49.7614 C   0  0  0  0  0  0  0  0  0  0  0  0
   60.1844   28.5031   49.1381 C   0  0  0  0  0  0  0  0  0  0  0  0
   59.5748   28.3719   47.8786 C   0  0  0  0  0  0  0  0  0  0  0  0
   59.4055   27.2985   47.0802 C   0  0  0  0  0  0  0  0  0  0  0  0
   59.1063   29.6263   47.5389 C   0  0  0  0  0  0  0  0  0  0  0  0
   59.3668   30.4538   48.6096 C   0  0  0  0  0  0  0  0  0  0  0  0
   60.0231   29.7826   49.5871 N   0  0  0  0  0  0  0  0  0  0  0  0
   58.1747   26.5023   46.9549 C   0  0  0  0  0  0  0  0  0  0  0  0
   58.0162   25.2882   47.5092 N   0  0  0  0  0  0  0  0  0  0  0  0
   56.8159   24.8840   47.0381 C   0  0  0  0  0  0  0  0  0  0  0  0
   56.3019   23.7789   47.3513 O   0  0  0  0  0  0  0  0  0  0  0  0
   56.2161   25.7526   46.1961 N   0  0  0  0  0  0  0  0  0  0  0  0
   57.0959   26.7644   46.1419 C   0  0  0  0  0  0  0  0  0  0  0  0
   56.9289   27.8916   45.3446 O   0  0  0  0  0  0  0  0  0  0  0  0
   58.9807   31.8743   48.6613 C   0  0  0  0  0  0  0  0  0  0  0  0
   58.0847   32.2549   49.4594 O   0  0  0  0  0  0  0  0  0  0  0  0
   59.6212   32.8280   47.8167 N   0  0  0  0  0  0  0  0  0  0  0  0
   60.7305   32.8644   46.8470 C   0  0  0  0  0  0  0  0  0  0  0  0
   60.6919   34.3397   46.6209 C   0  0  0  0  0  0  0  0  0  0  0  0
   59.5694   34.2845   47.6028 C   0  0  0  0  0  0  0  0  0  0  0  0
   60.5688   30.4008   50.8116 C   0  0  0  0  0  0  0  0  0  0  0  0
   61.5618   31.4870   50.4684 C   0  0  0  0  0  0  0  0  0  0  0  0
   62.6687   31.1987   49.6488 C   0  0  0  0  0  0  0  0  0  0  0  0
   63.6119   32.1886   49.3589 C   0  0  0  0  0  0  0  0  0  0  0  0
   63.4557   33.4767   49.8749 C   0  0  0  0  0  0  0  0  0  0  0  0
   62.3540   33.7790   50.6781 C   0  0  0  0  0  0  0  0  0  0  0  0
   61.4080   32.7922   50.9755 C   0  0  0  0  0  0  0  0  0  0  0  0
   60.3455   33.1150   51.7532 F   0  0  0  0  0  0  0  0  0  0  0  0
  1  2  2  0
  2  3  1  0
  3  4  2  0
  4  8  1  0
  8  9  1  0
  9 10  1  0
 10 11  2  0
 10 12  1  0
 12 13  1  0
 13 14  1  0
  3  5  1  0
  5  6  2  0
  6 15  1  0
 15 16  2  0
 15 17  1  0
 17 18  1  0
 18 19  1  0
 19 20  1  0
  6  7  1  0
  7 21  1  0
 21 22  1  0
 22 23  2  0
 23 24  1  0
 24 25  2  0
 25 26  1  0
 26 27  2  0
 27 28  1  0
  7  2  1  0
 27 22  1  0
 13  8  2  0
 20 17  1  0
M  CHG 1   9  -1
M  CHG 1  12  -1
M  CHG 1  14  -1
M  END
> <UniqueID>
22

> <SMILES>
C=c1c(=Cc2[n-]c(=O)[n-]c2[O-])cc(C(=O)N2CCC2)n1Cc1ccccc1F

> <Energy>
164.85081940726056

> <Genealogy>
C=c1c(=Cc2[n-]c(=O)[n-]c2[O-])cc(C(=O)N2CCC2)n1Cc1ccccc1F (protonated)
C=c1c(=Cc2[n-]c(=O)[n-]c2[O-])cc(C(=O)N2CCC2)n1Cc1ccccc1F (3D coordinates assigned)
C=c1c(=Cc2[n-]c(=O)[n-]c2[O-])cc(C(=O)N2CCC2)n1Cc1ccccc1F (nonaromatic ring conformer: 164.85081940726056 kcal/mol)

> <smiles>
C=c1c(=Cc2[nH]c(=O)[nH]c2O)cc(C(=O)N2CCC2)n1Cc1ccccc1F

> <score_type>
oracle

> <origin>
adg

> <m_score__min__energy>
-15.94

> <m_primary>
energy

> <minimizedAffinity>
-6.63607

> <minimizedRMSD>
1.59340

> <CNNscore>
0.1758456975

> <CNNaffinity>
6.0999431610

> <CNN_VS>
1.0726487637

> <CNNaffinity_variance>
0.0144878663

$$$$
24:0


 31 34  0  0  0  0  0  0  0  0999 V2000
   57.4694   29.6495   54.0723 C   0  0  0  0  0  0  0  0  0  0  0  0
   55.2853   30.7446   52.2651 C   0  0  0  0  0  0  0  0  0  0  0  0
   55.0452   30.1912   53.4647 C   0  0  0  0  0  0  0  0  0  0  0  0
   53.7774   29.9376   54.0168 C   0  0  0  0  0  0  0  0  0  0  0  0
   52.5527   30.3716   53.6583 C   0  0  0  0  0  0  0  0  0  0  0  0
   53.9862   29.1085   55.1005 C   0  0  0  0  0  0  0  0  0  0  0  0
   55.3471   28.9384   55.2205 C   0  0  0  0  0  0  0  0  0  0  0  0
   55.9937   28.1224   56.2997 C   0  0  0  0  0  0  0  0  0  0  0  0
   56.0049   29.6266   54.2543 N   0  0  0  0  0  0  0  0  0  0  0  0
   52.0579   30.4953   52.2771 C   0  0  0  0  0  0  0  0  0  0  0  0
   52.2641   29.5881   51.3056 N   0  0  0  0  0  0  0  0  0  0  0  0
   51.7513   30.1832   50.2076 C   0  0  0  0  0  0  0  0  0  0  0  0
   51.7421   29.6294   49.0775 O   0  0  0  0  0  0  0  0  0  0  0  0
   51.2582   31.4236   50.4147 N   0  0  0  0  0  0  0  0  0  0  0  0
   51.4731   31.6087   51.7264 C   0  0  0  0  0  0  0  0  0  0  0  0
   51.1474   32.7760   52.4072 O   0  0  0  0  0  0  0  0  0  0  0  0
   58.0749   30.9321   54.6015 C   0  0  0  0  0  0  0  0  0  0  0  0
   58.0360   31.1889   55.9857 C   0  0  0  0  0  0  0  0  0  0  0  0
   58.5650   32.3714   56.5039 C   0  0  0  0  0  0  0  0  0  0  0  0
   59.1472   33.3110   55.6546 C   0  0  0  0  0  0  0  0  0  0  0  0
   59.2110   33.0669   54.2825 C   0  0  0  0  0  0  0  0  0  0  0  0
   58.6920   31.8790   53.7468 C   0  0  0  0  0  0  0  0  0  0  0  0
   58.8103   31.6564   52.2939 C   0  0  0  0  0  0  0  0  0  0  0  0
   58.0278   32.2860   51.5302 O   0  0  0  0  0  0  0  0  0  0  0  0
   59.8095   30.7758   51.7335 N   0  0  0  0  0  0  0  0  0  0  0  0
   59.9144   30.6685   50.2717 C   0  0  0  0  0  0  0  0  0  0  0  0
   61.0402   29.7117   49.8661 C   0  0  0  0  0  0  0  0  0  0  0  0
   60.9781   28.4813   50.6636 N   0  0  0  0  0  0  0  0  0  0  0  0
   61.1569   28.7199   52.1098 C   0  0  0  0  0  0  0  0  0  0  0  0
   60.8585   30.1643   52.5646 C   0  0  0  0  0  0  0  0  0  0  0  0
   61.7135   27.8504   50.3451 H   0  0  0  0  0  0  0  0  0  0  0  0
  2  3  2  0
  3  4  1  0
  4  5  2  0
  5 10  1  0
 10 11  1  0
 11 12  1  0
 12 13  2  0
 12 14  1  0
 14 15  1  0
 15 16  1  0
  4  6  1  0
  6  7  2  0
  7  8  1  0
  7  9  1  0
  9  1  1  0
  1 17  1  0
 17 18  2  0
 18 19  1  0
 19 20  2  0
 20 21  1  0
 21 22  2  0
 22 23  1  0
 23 24  2  0
 23 25  1  0
 25 26  1  0
 26 27  1  0
 27 28  1  0
 28 29  1  0
 29 30  1  0
  9  3  1  0
 22 17  1  0
 30 25  1  0
 15 10  2  0
 28 31  1  0
M  CHG 1  11  -1
M  CHG 1  14  -1
M  CHG 1  16  -1
M  END
> <UniqueID>
25

> <SMILES>
C=c1c(=Cc2[n-]c(=O)[n-]c2[O-])cc(C)n1Cc1ccccc1C(=O)N1CCNCC1

> <Energy>
133.50493111704213

> <Genealogy>
C=c1c(=Cc2[n-]c(=O)[n-]c2[O-])cc(C)n1Cc1ccccc1C(=O)N1CCNCC1 (protonated)
C=c1c(=Cc2[n-]c(=O)[n-]c2[O-])cc(C)n1Cc1ccccc1C(=O)N1CCNCC1 (3D coordinates assigned)
C=c1c(=Cc2[n-]c(=O)[n-]c2[O-])cc(C)n1Cc1ccccc1C(=O)N1CCNCC1 (nonaromatic ring conformer: 133.50493111704213 kcal/mol)

> <smiles>
C=c1c(=Cc2[nH]c(=O)[nH]c2O)cc(C)n1Cc1ccccc1C(=O)N1CCNCC1

> <score_type>
oracle

> <origin>
adg

> <m_score__min__energy>
-16.190000000000001

> <m_primary>
energy

> <minimizedAffinity>
-5.40991

> <minimizedRMSD>
1.97380

> <CNNscore>
0.0884817243

> <CNNaffinity>
4.7086548805

> <CNN_VS>
0.4166299105

> <CNNaffinity_variance>
0.2765955627

$$$$
33:0


 40 44  0  0  0  0  0  0  0  0999 V2000
   58.6118   27.5963   45.6086 C   0  0  0  0  0  0  0  0  0  0  0  0
   59.1961   26.3767   45.9864 C   0  0  0  0  0  0  0  0  0  0  0  0
   58.3948   25.2989   46.3709 C   0  0  0  0  0  0  0  0  0  0  0  0
   57.0003   25.4147   46.3656 C   0  0  0  0  0  0  0  0  0  0  0  0
   56.4130   26.6418   46.0134 C   0  0  0  0  0  0  0  0  0  0  0  0
   57.2122   27.7163   45.6177 C   0  0  0  0  0  0  0  0  0  0  0  0
   59.4509   28.7474   45.2055 C   0  0  0  0  0  0  0  0  0  0  0  0
   60.6950   28.6965   45.3974 O   0  0  0  0  0  0  0  0  0  0  0  0
   58.8889   29.9450   44.6504 N   0  0  0  0  0  0  0  0  0  0  0  0
   59.2059   32.7076   47.1470 C   0  0  0  0  0  0  0  0  0  0  0  0
   58.2167   33.6005   46.6968 C   0  0  0  0  0  0  0  0  0  0  0  0
   57.4552   33.2950   45.5664 C   0  0  0  0  0  0  0  0  0  0  0  0
   57.6635   32.0969   44.8824 C   0  0  0  0  0  0  0  0  0  0  0  0
   58.6144   31.1713   45.3474 C   0  0  0  0  0  0  0  0  0  0  0  0
   59.3833   31.4864   46.4762 C   0  0  0  0  0  0  0  0  0  0  0  0
   59.7830   31.2421   53.5619 C   0  0  0  0  0  0  0  0  0  0  0  0
   59.6310   30.9833   52.1213 N   0  0  0  0  0  0  0  0  0  0  0  0
   60.9419   31.0471   51.4166 C   0  0  0  0  0  0  0  0  0  0  0  0
   61.0784   32.2524   50.4705 C   0  0  0  0  0  0  0  0  0  0  0  0
   59.9350   32.3083   49.5518 N   0  0  0  0  0  0  0  0  0  0  0  0
   60.0445   33.0429   48.3190 C   0  0  0  0  0  0  0  0  0  0  0  0
   60.8477   34.0096   48.2412 O   0  0  0  0  0  0  0  0  0  0  0  0
   58.6169   31.8601   50.0247 C   0  0  0  0  0  0  0  0  0  0  0  0
   58.5785   31.8570   51.5551 C   0  0  0  0  0  0  0  0  0  0  0  0
   56.2096   24.2934   46.7915 N   0  0  0  0  0  0  0  0  0  0  0  0
   56.5581   23.3231   47.7883 C   0  0  0  0  0  0  0  0  0  0  0  0
   57.3093   23.6715   48.7383 O   0  0  0  0  0  0  0  0  0  0  0  0
   56.0994   21.9236   47.7154 C   0  0  0  0  0  0  0  0  0  0  0  0
   56.9072   21.0031   47.4090 O   0  0  0  0  0  0  0  0  0  0  0  0
   54.7300   21.6174   47.9981 N   0  0  0  0  0  0  0  0  0  0  0  0
   53.9337   20.6786   47.2160 C   0  0  0  0  0  0  0  0  0  0  0  0
   52.9089   21.4117   46.4105 C   0  0  0  0  0  0  0  0  0  0  0  0
   53.0797   22.6971   46.0018 N   0  0  0  0  0  0  0  0  0  0  0  0
   51.9359   22.9455   45.3467 C   0  0  0  0  0  0  0  0  0  0  0  0
   51.5597   24.1234   44.7010 C   0  0  0  0  0  0  0  0  0  0  0  0
   50.2990   24.1510   44.0742 C   0  0  0  0  0  0  0  0  0  0  0  0
   49.4587   23.0152   44.1082 C   0  0  0  0  0  0  0  0  0  0  0  0
   49.8725   21.8429   44.7718 C   0  0  0  0  0  0  0  0  0  0  0  0
   51.1260   21.8524   45.3807 C   0  0  0  0  0  0  0  0  0  0  0  0
   51.7188   20.8574   46.0569 N   0  0  0  0  0  0  0  0  0  0  0  0
 16 17  1  0
 17 18  1  0
 18 19  1  0
 19 20  1  0
 20 21  1  0
 21 22  2  0
 21 10  1  0
 10 11  2  0
 11 12  1  0
 12 13  2  0
 13 14  1  0
 14  9  1  0
  9  7  1  0
  7  8  2  0
  7  1  1  0
  1  2  2  0
  2  3  1  0
  3  4  2  0
  4 25  1  0
 25 26  1  0
 26 27  2  0
 26 28  1  0
 28 29  2  0
 28 30  1  0
 30 31  1  0
 31 32  1  0
 32 33  2  0
 33 34  1  0
 34 35  2  0
 35 36  1  0
 36 37  2  0
 37 38  1  0
 38 39  2  0
 39 40  1  0
  4  5  1  0
  5  6  2  0
 14 15  2  0
 20 23  1  0
 23 24  1  0
 24 17  1  0
 15 10  1  0
  6  1  1  0
 40 32  1  0
 39 34  1  0
M  CHG 1   9  -1
M  CHG 1  25  -1
M  CHG 1  30  -1
M  CHG 1  40  -1
M  END
> <UniqueID>
34

> <SMILES>
CN1CCN(C(=O)c2cccc([N-]C(=O)c3ccc([N-]C(=O)C(=O)[N-]Cc4nc5ccccc5[n-]4)cc3)c2)CC1

> <Energy>
125.45410836166432

> <Genealogy>
CN1CCN(C(=O)c2cccc([N-]C(=O)c3ccc([N-]C(=O)C(=O)[N-]Cc4nc5ccccc5[n-]4)cc3)c2)CC1 (protonated)
CN1CCN(C(=O)c2cccc([N-]C(=O)c3ccc([N-]C(=O)C(=O)[N-]Cc4nc5ccccc5[n-]4)cc3)c2)CC1 (3D coordinates assigned)
CN1CCN(C(=O)c2cccc([N-]C(=O)c3ccc([N-]C(=O)C(=O)[N-]Cc4nc5ccccc5[n-]4)cc3)c2)CC1 (nonaromatic ring conformer: 125.45410836166432 kcal/mol)

> <smiles>
CN1CCN(C(=O)c2cccc(NC(=O)c3ccc(NC(=O)C(=O)NCc4nc5ccccc5[nH]4)cc3)c2)CC1

> <score_type>
oracle

> <origin>
adg

> <m_score__min__energy>
-15.300000000000001

> <m_primary>
energy

> <minimizedAffinity>
-7.30560

> <minimizedRMSD>
0.93576

> <CNNscore>
0.1485216320

> <CNNaffinity>
6.4121346474

> <CNN_VS>
0.9523407221

> <CNNaffinity_variance>
0.1894011497

$$$$
43:0


 32 34  0  0  0  0  0  0  0  0999 V2000
   60.6072   31.2905   48.4462 C   0  0  0  0  0  0  0  0  0  0  0  0
   61.1969   32.2922   49.1262 N   0  0  0  0  0  0  0  0  0  0  0  0
   60.8480   32.0600   50.4062 C   0  0  0  0  0  0  0  0  0  0  0  0
   61.2220   32.7985   51.3540 O   0  0  0  0  0  0  0  0  0  0  0  0
   60.0596   30.9767   50.5693 N   0  0  0  0  0  0  0  0  0  0  0  0
   59.8768   30.4984   49.3201 C   0  0  0  0  0  0  0  0  0  0  0  0
   59.0107   29.3253   48.9571 C   0  0  0  0  0  0  0  0  0  0  0  0
   60.1788   28.4896   45.8147 C   0  0  0  0  0  0  0  0  0  0  0  0
   59.3323   29.5315   45.7304 C   0  0  0  0  0  0  0  0  0  0  0  0
   58.0981   29.2970   45.0977 C   0  0  0  0  0  0  0  0  0  0  0  0
   57.2701   30.3509   44.7328 C   0  0  0  0  0  0  0  0  0  0  0  0
   56.0651   30.0947   44.0895 O   0  0  0  0  0  0  0  0  0  0  0  0
   57.6535   31.6586   44.9876 C   0  0  0  0  0  0  0  0  0  0  0  0
   58.8454   31.9419   45.6708 C   0  0  0  0  0  0  0  0  0  0  0  0
   59.1469   33.3934   45.9694 C   0  0  0  0  0  0  0  0  0  0  0  0
   59.6703   30.8699   46.1408 C   0  0  0  0  0  0  0  0  0  0  0  0
   60.7036   31.1543   46.9844 C   0  0  0  0  0  0  0  0  0  0  0  0
   59.5213   30.4500   51.8274 C   0  0  0  0  0  0  0  0  0  0  0  0
   58.1422   31.0040   52.0877 C   0  0  0  0  0  0  0  0  0  0  0  0
   57.0374   30.2524   52.0214 C   0  0  0  0  0  0  0  0  0  0  0  0
   58.0002   32.4040   52.3879 C   0  0  0  0  0  0  0  0  0  0  0  0
   57.8814   33.5256   52.6328 N   0  0  0  0  0  0  0  0  0  0  0  0
   56.2834   29.8935   53.1880 N   0  0  0  0  0  0  0  0  0  0  0  0
   57.0347   29.7429   54.4324 C   0  0  0  0  0  0  0  0  0  0  0  0
   55.0818   29.0826   52.9615 C   0  0  0  0  0  0  0  0  0  0  0  0
   53.8362   29.9223   52.8476 C   0  0  0  0  0  0  0  0  0  0  0  0
   53.0209   30.1347   53.9711 C   0  0  0  0  0  0  0  0  0  0  0  0
   51.8870   30.9454   53.8755 C   0  0  0  0  0  0  0  0  0  0  0  0
   51.5603   31.5500   52.6565 C   0  0  0  0  0  0  0  0  0  0  0  0
   50.4377   32.3606   52.5636 O   0  0  0  0  0  0  0  0  0  0  0  0
   52.3643   31.3389   51.5314 C   0  0  0  0  0  0  0  0  0  0  0  0
   53.4959   30.5263   51.6242 C   0  0  0  0  0  0  0  0  0  0  0  0
  8  9  2  0
  9 10  1  0
 10 11  2  0
 11 12  1  0
 11 13  1  0
 13 14  2  0
 14 15  1  0
 14 16  1  0
 16 17  2  0
 17  1  1  0
  1  2  1  0
  2  3  1  0
  3  4  2  0
  3  5  1  0
  5 18  1  0
 18 19  1  0
 19 21  1  0
 21 22  3  0
 19 20  2  0
 20 23  1  0
 23 24  1  0
 23 25  1  0
 25 26  1  0
 26 27  2  0
 27 28  1  0
 28 29  2  0
 29 30  1  0
 29 31  1  0
 31 32  2  0
  5  6  1  0
  6  7  1  0
 16  9  1  0
  6  1  2  0
 32 26  1  0
M  CHG 1   2  -1
M  CHG 1  12  -1
M  CHG 1  30  -1
M  END
> <UniqueID>
44

> <SMILES>
C=c1cc([O-])cc(C)c1=Cc1[n-]c(=O)n(CC(C#N)=CN(C)Cc2ccc([O-])cc2)c1C

> <Energy>
112.88585324645491

> <Genealogy>
C=c1cc([O-])cc(C)c1=Cc1[n-]c(=O)n(CC(C#N)=CN(C)Cc2ccc([O-])cc2)c1C (protonated)
C=c1cc([O-])cc(C)c1=Cc1[n-]c(=O)n(CC(C#N)=CN(C)Cc2ccc([O-])cc2)c1C (3D coordinates assigned)
C=c1cc([O-])cc(C)c1=Cc1[n-]c(=O)n(CC(C#N)=CN(C)Cc2ccc([O-])cc2)c1C (optimized conformer: 112.88585324645491 kcal/mol)

> <smiles>
C=c1cc(O)cc(C)c1=Cc1[nH]c(=O)n(CC(C#N)=CN(C)Cc2ccc(O)cc2)c1C

> <score_type>
oracle

> <origin>
adg

> <m_score__min__energy>
-16.440000000000001

> <m_primary>
energy

> <minimizedAffinity>
-7.76230

> <minimizedRMSD>
0.97043

> <CNNscore>
0.1669093817

> <CNNaffinity>
6.2306180000

> <CNN_VS>
1.0399485826

> <CNNaffinity_variance>
0.4290859997

$$$$
45:0


 30 33  0  0  0  0  0  0  0  0999 V2000
   59.7165   28.0505   53.0708 O   0  0  0  0  0  0  0  0  0  0  0  0
   59.5997   29.3054   53.1566 C   0  0  0  0  0  0  0  0  0  0  0  0
   59.7109   30.1084   51.9636 N   0  0  0  0  0  0  0  0  0  0  0  0
   60.4890   29.5775   50.8322 C   0  0  0  0  0  0  0  0  0  0  0  0
   60.7062   30.6349   49.7475 C   0  0  0  0  0  0  0  0  0  0  0  0
   59.4340   31.2982   49.4343 N   0  0  0  0  0  0  0  0  0  0  0  0
   59.1223   31.6714   48.0802 C   0  0  0  0  0  0  0  0  0  0  0  0
   58.7221   32.8435   47.8397 O   0  0  0  0  0  0  0  0  0  0  0  0
   58.5587   31.7595   50.5202 C   0  0  0  0  0  0  0  0  0  0  0  0
   59.1569   31.4713   51.9047 C   0  0  0  0  0  0  0  0  0  0  0  0
   59.2407   30.7042   46.9653 C   0  0  0  0  0  0  0  0  0  0  0  0
   58.3893   30.8000   45.8486 C   0  0  0  0  0  0  0  0  0  0  0  0
   58.4905   29.8806   44.8009 C   0  0  0  0  0  0  0  0  0  0  0  0
   59.4347   28.8521   44.8598 C   0  0  0  0  0  0  0  0  0  0  0  0
   60.2746   28.7381   45.9690 C   0  0  0  0  0  0  0  0  0  0  0  0
   60.1764   29.6557   47.0201 C   0  0  0  0  0  0  0  0  0  0  0  0
   59.3036   29.9280   54.4997 C   0  0  0  0  0  0  0  0  0  0  0  0
   58.4710   29.0061   55.3983 C   0  0  0  0  0  0  0  0  0  0  0  0
   57.0166   29.3270   55.2670 C   0  0  0  0  0  0  0  0  0  0  0  0
   56.3938   29.5396   54.0928 N   0  0  0  0  0  0  0  0  0  0  0  0
   55.1368   29.8125   54.5032 C   0  0  0  0  0  0  0  0  0  0  0  0
   55.0152   29.7708   55.8465 N   0  0  0  0  0  0  0  0  0  0  0  0
   56.2003   29.4695   56.2811 O   0  0  0  0  0  0  0  0  0  0  0  0
   54.0207   30.1269   53.5849 C   0  0  0  0  0  0  0  0  0  0  0  0
   54.2481   30.2492   52.2026 C   0  0  0  0  0  0  0  0  0  0  0  0
   53.1913   30.5455   51.3367 C   0  0  0  0  0  0  0  0  0  0  0  0
   51.9007   30.7259   51.8394 C   0  0  0  0  0  0  0  0  0  0  0  0
   51.6634   30.6090   53.2124 C   0  0  0  0  0  0  0  0  0  0  0  0
   50.3794   30.7877   53.7111 O   0  0  0  0  0  0  0  0  0  0  0  0
   52.7173   30.3103   54.0828 C   0  0  0  0  0  0  0  0  0  0  0  0
  1  2  2  0
  2 17  1  0
 17 18  1  0
 18 19  1  0
 19 20  2  0
 20 21  1  0
 21 24  1  0
 24 25  2  0
 25 26  1  0
 26 27  2  0
 27 28  1  0
 28 29  1  0
 28 30  2  0
 21 22  2  0
 22 23  1  0
  2  3  1  0
  3  4  1  0
  4  5  1  0
  5  6  1  0
  6  7  1  0
  7  8  2  0
  7 11  1  0
 11 12  2  0
 12 13  1  0
 13 14  2  0
 14 15  1  0
 15 16  2  0
  6  9  1  0
  9 10  1  0
 23 19  1  0
 10  3  1  0
 30 24  1  0
 16 11  1  0
M  CHG 1  29  -1
M  END
> <UniqueID>
46

> <SMILES>
O=C(CCc1nc(-c2cccc([O-])c2)no1)N1CCN(C(=O)c2ccccc2)CC1

> <Energy>
90.94608673497434

> <Genealogy>
O=C(CCc1nc(-c2cccc([O-])c2)no1)N1CCN(C(=O)c2ccccc2)CC1 (protonated)
O=C(CCc1nc(-c2cccc([O-])c2)no1)N1CCN(C(=O)c2ccccc2)CC1 (3D coordinates assigned)
O=C(CCc1nc(-c2cccc([O-])c2)no1)N1CCN(C(=O)c2ccccc2)CC1 (nonaromatic ring conformer: 90.94608673497434 kcal/mol)

> <smiles>
O=C(CCc1nc(-c2cccc(O)c2)no1)N1CCN(C(=O)c2ccccc2)CC1

> <score_type>
oracle

> <origin>
adg

> <m_score__min__energy>
-14.18

> <m_primary>
energy

> <minimizedAffinity>
-6.77313

> <minimizedRMSD>
3.09224

> <CNNscore>
0.0714896619

> <CNNaffinity>
4.7706112862

> <CNN_VS>
0.3410494030

> <CNNaffinity_variance>
0.3670181334

$$$$
46:0


 29 31  0  0  0  0  0  0  0  0999 V2000
   60.7264   30.2840   47.0387 C   0  0  0  0  0  0  0  0  0  0  0  0
   59.7399   30.8117   46.2944 C   0  0  0  0  0  0  0  0  0  0  0  0
   59.0555   30.1953   45.2333 C   0  0  0  0  0  0  0  0  0  0  0  0
   59.0749   28.9239   44.7825 C   0  0  0  0  0  0  0  0  0  0  0  0
   58.2555   31.1724   44.6689 C   0  0  0  0  0  0  0  0  0  0  0  0
   58.4269   32.3164   45.4207 C   0  0  0  0  0  0  0  0  0  0  0  0
   57.7254   33.6146   45.1566 C   0  0  0  0  0  0  0  0  0  0  0  0
   59.3258   32.1018   46.4107 N   0  0  0  0  0  0  0  0  0  0  0  0
   58.5968   27.7416   45.5254 C   0  0  0  0  0  0  0  0  0  0  0  0
   57.2224   27.4990   45.6594 C   0  0  0  0  0  0  0  0  0  0  0  0
   56.2934   28.3360   45.0523 O   0  0  0  0  0  0  0  0  0  0  0  0
   56.7903   26.4325   46.3794 N   0  0  0  0  0  0  0  0  0  0  0  0
   57.6674   25.5969   46.9921 C   0  0  0  0  0  0  0  0  0  0  0  0
   57.2432   24.6122   47.6504 O   0  0  0  0  0  0  0  0  0  0  0  0
   59.0020   25.8271   46.9008 N   0  0  0  0  0  0  0  0  0  0  0  0
   59.4860   26.8805   46.1932 C   0  0  0  0  0  0  0  0  0  0  0  0
   60.7296   27.0752   46.1467 O   0  0  0  0  0  0  0  0  0  0  0  0
   59.7544   33.0878   47.4170 C   0  0  0  0  0  0  0  0  0  0  0  0
   59.1403   32.7763   48.7501 C   0  0  0  0  0  0  0  0  0  0  0  0
   57.9462   32.3747   48.7994 O   0  0  0  0  0  0  0  0  0  0  0  0
   59.8973   32.9699   49.9547 N   0  0  0  0  0  0  0  0  0  0  0  0
   60.7832   33.3929   49.8811 H   0  0  0  0  0  0  0  0  0  0  0  0
   59.4402   32.5834   51.2622 C   0  0  0  0  0  0  0  0  0  0  0  0
   59.0672   33.5400   52.2222 C   0  0  0  0  0  0  0  0  0  0  0  0
   58.6044   33.1354   53.4791 C   0  0  0  0  0  0  0  0  0  0  0  0
   58.4970   31.7757   53.7818 C   0  0  0  0  0  0  0  0  0  0  0  0
   58.8440   30.8155   52.8249 C   0  0  0  0  0  0  0  0  0  0  0  0
   58.6966   29.1098   53.2013 Cl  0  0  0  0  0  0  0  0  0  0  0  0
   59.3060   31.2180   51.5671 C   0  0  0  0  0  0  0  0  0  0  0  0
  1  2  2  0
  2  3  1  0
  3  4  2  0
  4  9  1  0
  9 10  2  0
 10 11  1  0
 10 12  1  0
 12 13  1  0
 13 14  2  0
 13 15  1  0
 15 16  1  0
 16 17  2  0
  3  5  1  0
  5  6  2  0
  6  7  1  0
  6  8  1  0
  8 18  1  0
 18 19  1  0
 19 20  2  0
 19 21  1  0
 21 23  1  0
 23 24  2  0
 24 25  1  0
 25 26  2  0
 26 27  1  0
 27 28  1  0
 27 29  2  0
  8  2  1  0
 29 23  1  0
 16  9  1  0
 21 22  1  0
M  CHG 1  11  -1
M  CHG 1  12  -1
M  CHG 1  15  -1
M  END
> <UniqueID>
47

> <SMILES>
C=c1c(=Cc2c([O-])[n-]c(=O)[n-]c2=O)cc(C)n1CC(=O)Nc1cccc(Cl)c1

> <Energy>
89.0591154246342

> <Genealogy>
C=c1c(=Cc2c([O-])[n-]c(=O)[n-]c2=O)cc(C)n1CC(=O)Nc1cccc(Cl)c1 (protonated)
C=c1c(=Cc2c([O-])[n-]c(=O)[n-]c2=O)cc(C)n1CC(=O)Nc1cccc(Cl)c1 (3D coordinates assigned)
C=c1c(=Cc2c([O-])[n-]c(=O)[n-]c2=O)cc(C)n1CC(=O)Nc1cccc(Cl)c1 (optimized conformer: 89.0591154246342 kcal/mol)

> <smiles>
C=c1c(=Cc2c(O)[nH]c(=O)[nH]c2=O)cc(C)n1CC(=O)Nc1cccc(Cl)c1

> <score_type>
oracle

> <origin>
adg

> <m_score__min__energy>
-15.74

> <m_primary>
energy

> <minimizedAffinity>
-6.77871

> <minimizedRMSD>
1.41076

> <CNNscore>
0.2602549791

> <CNNaffinity>
6.6222538948

> <CNN_VS>
1.7234745026

> <CNNaffinity_variance>
0.0453802980

$$$$
64:0


 29 31  0  0  0  0  0  0  0  0999 V2000
   60.1859   31.9624   49.1481 C   0  0  0  0  0  0  0  0  0  0  0  0
   59.3797   31.4973   50.1254 C   0  0  0  0  0  0  0  0  0  0  0  0
   58.8688   32.4025   51.0020 N   0  0  0  0  0  0  0  0  0  0  0  0
   58.0538   32.0562   52.0314 C   0  0  0  0  0  0  0  0  0  0  0  0
   57.6716   32.9545   52.8277 O   0  0  0  0  0  0  0  0  0  0  0  0
   57.6922   30.6990   52.1999 C   0  0  0  0  0  0  0  0  0  0  0  0
   56.8925   30.2312   53.1818 C   0  0  0  0  0  0  0  0  0  0  0  0
   58.2020   29.7928   51.3225 N   0  0  0  0  0  0  0  0  0  0  0  0
   59.0158   30.1400   50.2924 C   0  0  0  0  0  0  0  0  0  0  0  0
   59.3928   29.2436   49.4922 O   0  0  0  0  0  0  0  0  0  0  0  0
   55.4457   29.9583   53.0662 C   0  0  0  0  0  0  0  0  0  0  0  0
   54.8945   28.8558   53.7348 C   0  0  0  0  0  0  0  0  0  0  0  0
   53.5361   28.5539   53.5908 C   0  0  0  0  0  0  0  0  0  0  0  0
   52.7276   29.3371   52.7623 C   0  0  0  0  0  0  0  0  0  0  0  0
   53.2780   30.4201   52.0685 C   0  0  0  0  0  0  0  0  0  0  0  0
   52.4765   31.1899   51.2341 O   0  0  0  0  0  0  0  0  0  0  0  0
   54.6362   30.7247   52.2111 C   0  0  0  0  0  0  0  0  0  0  0  0
   59.7610   32.7693   47.9885 C   0  0  0  0  0  0  0  0  0  0  0  0
   60.4588   33.9414   47.6697 C   0  0  0  0  0  0  0  0  0  0  0  0
   60.0995   34.6864   46.5450 C   0  0  0  0  0  0  0  0  0  0  0  0
   59.0547   34.2582   45.7233 C   0  0  0  0  0  0  0  0  0  0  0  0
   58.3587   33.0717   46.0102 C   0  0  0  0  0  0  0  0  0  0  0  0
   58.7327   32.3214   47.1417 C   0  0  0  0  0  0  0  0  0  0  0  0
   57.2977   32.6545   45.1308 N   0  0  0  0  0  0  0  0  0  0  0  0
   56.5059   33.2355   45.0616 H   0  0  0  0  0  0  0  0  0  0  0  0
   57.3157   31.2002   44.1844 S   0  0  0  0  0  0  0  0  0  0  0  0
   58.5087   30.3786   44.5821 O   0  0  0  0  0  0  0  0  0  0  0  0
   56.0708   30.3984   44.4454 O   0  0  0  0  0  0  0  0  0  0  0  0
   57.4522   31.5902   42.4524 C   0  0  0  0  0  0  0  0  0  0  0  0
  1 18  1  0
 18 19  2  0
 19 20  1  0
 20 21  2  0
 21 22  1  0
 22 24  1  0
 24 26  1  0
 26 27  2  0
 26 28  2  0
 26 29  1  0
 22 23  2  0
  1  2  2  0
  2  3  1  0
  3  4  1  0
  4  5  2  0
  4  6  1  0
  6  7  2  0
  7 11  1  0
 11 12  2  0
 12 13  1  0
 13 14  2  0
 14 15  1  0
 15 16  1  0
 15 17  2  0
  6  8  1  0
  8  9  1  0
  9 10  2  0
 23 18  1  0
  9  2  1  0
 17 11  1  0
 24 25  1  0
M  CHG 1   3  -1
M  CHG 1   8  -1
M  CHG 1  16  -1
M  END
> <UniqueID>
63

> <SMILES>
CS(=O)(=O)Nc1cccc(C=c2[n-]c(=O)/c(=C\c3cccc([O-])c3)[n-]c2=O)c1

> <Energy>
69.19951339688313

> <Genealogy>
CS(=O)(=O)Nc1cccc(C=c2[n-]c(=O)c(=Cc3cccc([O-])c3)[n-]c2=O)c1 (protonated)
CS(=O)(=O)Nc1cccc(C=c2[n-]c(=O)/c(=C\c3cccc([O-])c3)[n-]c2=O)c1 (cis-trans isomerization)
CS(=O)(=O)Nc1cccc(C=c2[n-]c(=O)/c(=C\c3cccc([O-])c3)[n-]c2=O)c1 (3D coordinates assigned)
CS(=O)(=O)Nc1cccc(C=c2[n-]c(=O)/c(=C\c3cccc([O-])c3)[n-]c2=O)c1 (optimized conformer: 69.19951339688313 kcal/mol)

> <smiles>
CS(=O)(=O)Nc1cccc(C=c2[nH]c(=O)c(=Cc3cccc(O)c3)[nH]c2=O)c1

> <score_type>
oracle

> <origin>
adg

> <m_score__min__energy>
-14.619999999999999

> <m_primary>
energy

> <minimizedAffinity>
-7.82495

> <minimizedRMSD>
1.17664

> <CNNscore>
0.4150640965

> <CNNaffinity>
6.2002959251

> <CNN_VS>
2.5735201836

> <CNNaffinity_variance>
0.0796226710

$$$$
69:0


 28 30  0  0  0  0  0  0  0  0999 V2000
   55.1622   28.4411   54.3993 C   0  0  0  0  0  0  0  0  0  0  0  0
   55.6754   29.3262   53.5281 C   0  0  0  0  0  0  0  0  0  0  0  0
   54.9527   30.2724   52.7885 C   0  0  0  0  0  0  0  0  0  0  0  0
   53.6172   30.4829   52.8198 C   0  0  0  0  0  0  0  0  0  0  0  0
   55.8833   30.9221   51.9893 C   0  0  0  0  0  0  0  0  0  0  0  0
   57.1166   30.3653   52.2655 C   0  0  0  0  0  0  0  0  0  0  0  0
   56.9965   29.4108   53.2208 N   0  0  0  0  0  0  0  0  0  0  0  0
   58.0868   28.6123   53.7949 C   0  0  0  0  0  0  0  0  0  0  0  0
   52.7274   30.5432   51.6378 C   0  0  0  0  0  0  0  0  0  0  0  0
   52.7723   29.7267   50.5678 N   0  0  0  0  0  0  0  0  0  0  0  0
   51.7990   30.2024   49.7617 C   0  0  0  0  0  0  0  0  0  0  0  0
   51.5303   29.6882   48.6457 O   0  0  0  0  0  0  0  0  0  0  0  0
   51.1400   31.2787   50.2467 N   0  0  0  0  0  0  0  0  0  0  0  0
   51.7430   31.4832   51.4306 C   0  0  0  0  0  0  0  0  0  0  0  0
   51.4021   32.5095   52.3033 O   0  0  0  0  0  0  0  0  0  0  0  0
   58.3677   30.7235   51.5513 C   0  0  0  0  0  0  0  0  0  0  0  0
   59.1082   29.8053   51.1027 O   0  0  0  0  0  0  0  0  0  0  0  0
   58.6911   32.1095   51.2806 N   0  0  0  0  0  0  0  0  0  0  0  0
   58.8312   32.8527   52.5455 C   0  0  0  0  0  0  0  0  0  0  0  0
   58.6038   31.5836   52.1083 H   0  0  0  0  0  0  0  0  0  0  0  0
   59.9254   32.1795   50.4660 C   0  0  0  0  0  0  0  0  0  0  0  0
   59.6488   32.6905   49.0725 C   0  0  0  0  0  0  0  0  0  0  0  0
   59.0759   31.8498   48.1042 C   0  0  0  0  0  0  0  0  0  0  0  0
   58.8402   32.3223   46.8099 C   0  0  0  0  0  0  0  0  0  0  0  0
   59.1649   33.6441   46.4688 C   0  0  0  0  0  0  0  0  0  0  0  0
   58.9472   34.1350   45.0682 C   0  0  0  0  0  0  0  0  0  0  0  0
   59.7587   34.4777   47.4277 C   0  0  0  0  0  0  0  0  0  0  0  0
   59.9943   34.0062   48.7219 C   0  0  0  0  0  0  0  0  0  0  0  0
  1  2  2  0
  2  3  1  0
  3  4  2  0
  4  9  1  0
  9 10  1  0
 10 11  1  0
 11 12  2  0
 11 13  1  0
 13 14  1  0
 14 15  1  0
  3  5  1  0
  5  6  2  0
  6 16  1  0
 16 17  2  0
 16 18  1  0
 18 19  1  0
 18 21  1  0
 21 22  1  0
 22 23  2  0
 23 24  1  0
 24 25  2  0
 25 26  1  0
 25 27  1  0
 27 28  2  0
  6  7  1  0
  7  8  1  0
  7  2  1  0
 14  9  2  0
 28 22  1  0
 18 20  1  0
M  CHG 1  10  -1
M  CHG 1  13  -1
M  CHG 1  15  -1
M  CHG 1  18   1
M  END
> <UniqueID>
68

> <SMILES>
C=c1/c(=C/c2[n-]c(=O)[n-]c2[O-])cc(C(=O)[N@@H+](C)Cc2ccc(C)cc2)n1C

> <Energy>
115.18590446469834

> <Genealogy>
C=c1c(=Cc2[n-]c(=O)[n-]c2[O-])cc(C(=O)[NH+](C)Cc2ccc(C)cc2)n1C (protonated)
C=c1c(=Cc2[n-]c(=O)[n-]c2[O-])cc(C(=O)[N@@H+](C)Cc2ccc(C)cc2)n1C (chirality)
C=c1/c(=C/c2[n-]c(=O)[n-]c2[O-])cc(C(=O)[N@@H+](C)Cc2ccc(C)cc2)n1C (cis-trans isomerization)
C=c1/c(=C/c2[n-]c(=O)[n-]c2[O-])cc(C(=O)[N@@H+](C)Cc2ccc(C)cc2)n1C (3D coordinates assigned)
C=c1/c(=C/c2[n-]c(=O)[n-]c2[O-])cc(C(=O)[N@@H+](C)Cc2ccc(C)cc2)n1C (optimized conformer: 115.18590446469834 kcal/mol)

> <smiles>
C=c1c(=Cc2[nH]c(=O)[nH]c2O)cc(C(=O)N(C)Cc2ccc(C)cc2)n1C

> <score_type>
oracle

> <origin>
adg

> <m_score__min__energy>
-17.170000000000002

> <m_primary>
energy

> <minimizedAffinity>
-6.52017

> <minimizedRMSD>
0.93012

> <CNNscore>
0.3684367836

> <CNNaffinity>
5.8605785370

> <CNN_VS>
2.1592526436

> <CNNaffinity_variance>
0.0078134639

$$$$
71:0


 33 36  0  0  0  0  0  0  0  0999 V2000
   54.6310   29.3052   55.4338 C   0  0  0  0  0  0  0  0  0  0  0  0
   55.0714   29.6607   54.2157 C   0  0  0  0  0  0  0  0  0  0  0  0
   54.2969   30.2045   53.1766 C   0  0  0  0  0  0  0  0  0  0  0  0
   52.9624   30.3250   53.0329 C   0  0  0  0  0  0  0  0  0  0  0  0
   55.1868   30.5970   52.1952 C   0  0  0  0  0  0  0  0  0  0  0  0
   56.4458   30.2435   52.6283 C   0  0  0  0  0  0  0  0  0  0  0  0
   56.3842   29.6567   53.8484 N   0  0  0  0  0  0  0  0  0  0  0  0
   57.6634   30.4168   51.8172 C   0  0  0  0  0  0  0  0  0  0  0  0
   58.1417   29.4155   51.2228 O   0  0  0  0  0  0  0  0  0  0  0  0
   58.2990   31.7024   51.6616 N   0  0  0  0  0  0  0  0  0  0  0  0
   57.7057   32.8421   52.3732 C   0  0  0  0  0  0  0  0  0  0  0  0
   58.7360   33.4215   53.3256 C   0  0  0  0  0  0  0  0  0  0  0  0
   59.9030   33.8312   52.5623 N   0  0  0  0  0  0  0  0  0  0  0  0
   60.3482   33.0942   51.4214 C   0  0  0  0  0  0  0  0  0  0  0  0
   61.3945   33.4705   50.8264 O   0  0  0  0  0  0  0  0  0  0  0  0
   59.5824   31.8703   50.9203 C   0  0  0  0  0  0  0  0  0  0  0  0
   60.4997   30.6466   51.1300 C   0  0  0  0  0  0  0  0  0  0  0  0
   59.2892   32.0508   49.4199 C   0  0  0  0  0  0  0  0  0  0  0  0
   52.2461   30.4713   51.7568 C   0  0  0  0  0  0  0  0  0  0  0  0
   52.3462   29.6174   50.7200 N   0  0  0  0  0  0  0  0  0  0  0  0
   51.6463   30.2310   49.7423 C   0  0  0  0  0  0  0  0  0  0  0  0
   51.4934   29.7261   48.5998 O   0  0  0  0  0  0  0  0  0  0  0  0
   51.1354   31.4339   50.0810 N   0  0  0  0  0  0  0  0  0  0  0  0
   51.5382   31.5760   51.3538 C   0  0  0  0  0  0  0  0  0  0  0  0
   51.2696   32.6968   52.1286 O   0  0  0  0  0  0  0  0  0  0  0  0
   57.5197   29.0206   54.5442 C   0  0  0  0  0  0  0  0  0  0  0  0
   58.4913   30.0508   55.0809 C   0  0  0  0  0  0  0  0  0  0  0  0
   59.8301   30.0752   54.6466 C   0  0  0  0  0  0  0  0  0  0  0  0
   60.7277   31.0104   55.1685 C   0  0  0  0  0  0  0  0  0  0  0  0
   60.3085   31.9166   56.1427 C   0  0  0  0  0  0  0  0  0  0  0  0
   58.9931   31.8807   56.6068 C   0  0  0  0  0  0  0  0  0  0  0  0
   58.0877   30.9477   56.0883 C   0  0  0  0  0  0  0  0  0  0  0  0
   56.8293   30.9088   56.5905 F   0  0  0  0  0  0  0  0  0  0  0  0
  1  2  2  0
  2  3  1  0
  3  4  2  0
  4 19  1  0
 19 20  1  0
 20 21  1  0
 21 22  2  0
 21 23  1  0
 23 24  1  0
 24 25  1  0
  3  5  1  0
  5  6  2  0
  6  8  1  0
  8  9  2  0
  8 10  1  0
 10 11  1  0
 11 12  1  0
 12 13  1  0
 13 14  1  0
 14 15  2  0
 14 16  1  0
 16 17  1  0
 16 18  1  0
  6  7  1  0
  7 26  1  0
 26 27  1  0
 27 28  2  0
 28 29  1  0
 29 30  2  0
 30 31  1  0
 31 32  2  0
 32 33  1  0
  7  2  1  0
 32 27  1  0
 24 19  2  0
 16 10  1  0
M  CHG 1  13  -1
M  CHG 1  20  -1
M  CHG 1  23  -1
M  CHG 1  25  -1
M  END
> <UniqueID>
70

> <SMILES>
C=c1c(=Cc2[n-]c(=O)[n-]c2[O-])cc(C(=O)N2CC[N-]C(=O)C2(C)C)n1Cc1ccccc1F

> <Energy>
135.26958154333138

> <Genealogy>
C=c1c(=Cc2[n-]c(=O)[n-]c2[O-])cc(C(=O)N2CC[N-]C(=O)C2(C)C)n1Cc1ccccc1F (protonated)
C=c1c(=Cc2[n-]c(=O)[n-]c2[O-])cc(C(=O)N2CC[N-]C(=O)C2(C)C)n1Cc1ccccc1F (3D coordinates assigned)
C=c1c(=Cc2[n-]c(=O)[n-]c2[O-])cc(C(=O)N2CC[N-]C(=O)C2(C)C)n1Cc1ccccc1F (nonaromatic ring conformer: 135.26958154333138 kcal/mol)

> <smiles>
C=c1c(=Cc2[nH]c(=O)[nH]c2O)cc(C(=O)N2CCNC(=O)C2(C)C)n1Cc1ccccc1F

> <score_type>
oracle

> <origin>
adg

> <m_score__min__energy>
-17.41

> <m_primary>
energy

> <minimizedAffinity>
-5.39119

> <minimizedRMSD>
0.70298

> <CNNscore>
0.1260018349

> <CNNaffinity>
5.4295048714

> <CNN_VS>
0.6841275692

> <CNNaffinity_variance>
0.1239331141

$$$$
12:0


 34 37  0  0  0  0  0  0  0  0999 V2000
   57.1607   26.5367   46.2899 C   0  0  0  0  0  0  0  0  0  0  0  0
   56.0491   26.8080   45.7624 O   0  0  0  0  0  0  0  0  0  0  0  0
   58.1879   27.6023   46.4078 C   0  0  0  0  0  0  0  0  0  0  0  0
   58.4360   28.4697   45.3385 C   0  0  0  0  0  0  0  0  0  0  0  0
   57.7333   28.3539   44.1440 O   0  0  0  0  0  0  0  0  0  0  0  0
   59.3851   29.4287   45.4540 N   0  0  0  0  0  0  0  0  0  0  0  0
   60.1110   29.5807   46.5885 C   0  0  0  0  0  0  0  0  0  0  0  0
   60.9843   30.4883   46.6332 O   0  0  0  0  0  0  0  0  0  0  0  0
   59.8963   28.7573   47.6669 N   0  0  0  0  0  0  0  0  0  0  0  0
   58.9308   27.7812   47.5901 C   0  0  0  0  0  0  0  0  0  0  0  0
   58.6937   27.0471   48.5893 O   0  0  0  0  0  0  0  0  0  0  0  0
   60.6684   28.9510   48.9114 C   0  0  0  0  0  0  0  0  0  0  0  0
   60.1729   30.1631   49.6571 C   0  0  0  0  0  0  0  0  0  0  0  0
   58.8588   30.2050   50.1546 C   0  0  0  0  0  0  0  0  0  0  0  0
   58.3914   31.3432   50.8179 C   0  0  0  0  0  0  0  0  0  0  0  0
   59.2288   32.4476   50.9884 C   0  0  0  0  0  0  0  0  0  0  0  0
   60.5353   32.4170   50.4953 C   0  0  0  0  0  0  0  0  0  0  0  0
   61.0073   31.2814   49.8309 C   0  0  0  0  0  0  0  0  0  0  0  0
   57.3737   25.2151   46.8031 N   0  0  0  0  0  0  0  0  0  0  0  0
   56.2798   23.2427   45.8391 C   0  0  0  0  0  0  0  0  0  0  0  0
   56.3462   22.0485   45.0985 C   0  0  0  0  0  0  0  0  0  0  0  0
   57.5486   21.6481   44.5129 C   0  0  0  0  0  0  0  0  0  0  0  0
   58.6956   22.4285   44.6646 C   0  0  0  0  0  0  0  0  0  0  0  0
   58.6465   23.6047   45.4159 C   0  0  0  0  0  0  0  0  0  0  0  0
   57.4462   24.0053   46.0306 C   0  0  0  0  0  0  0  0  0  0  0  0
   55.0567   23.6641   46.4643 N   0  0  0  0  0  0  0  0  0  0  0  0
   53.9715   22.1070   47.7938 O   0  0  0  0  0  0  0  0  0  0  0  0
   53.9305   22.8303   46.7636 C   0  0  0  0  0  0  0  0  0  0  0  0
   52.7100   22.8211   45.9295 C   0  0  0  0  0  0  0  0  0  0  0  0
   52.4331   23.8583   45.0228 C   0  0  0  0  0  0  0  0  0  0  0  0
   51.2629   23.8105   44.2624 C   0  0  0  0  0  0  0  0  0  0  0  0
   50.3751   22.7453   44.4179 C   0  0  0  0  0  0  0  0  0  0  0  0
   50.6699   21.7416   45.3422 C   0  0  0  0  0  0  0  0  0  0  0  0
   51.8161   21.8030   46.0717 N   0  0  0  0  0  0  0  0  0  0  0  0
 27 28  2  0
 28 26  1  0
 26 20  1  0
 20 21  2  0
 21 22  1  0
 22 23  2  0
 23 24  1  0
 24 25  2  0
 25 19  1  0
 19  1  1  0
  1  2  2  0
  1  3  1  0
  3  4  2  0
  4  5  1  0
  4  6  1  0
  6  7  1  0
  7  8  2  0
  7  9  1  0
  9 12  1  0
 12 13  1  0
 13 14  2  0
 14 15  1  0
 15 16  2  0
 16 17  1  0
 17 18  2  0
  9 10  1  0
 10 11  2  0
 28 29  1  0
 29 30  2  0
 30 31  1  0
 31 32  2  0
 32 33  1  0
 33 34  2  0
 25 20  1  0
 10  3  1  0
 34 29  1  0
 18 13  1  0
M  CHG 1   5  -1
M  CHG 1   6  -1
M  CHG 1  19  -1
M  CHG 1  26  -1
M  END
> <UniqueID>
13

> <SMILES>
O=C([N-]c1ccccc1[N-]C(=O)c1c([O-])[n-]c(=O)n(Cc2ccccc2)c1=O)c1ccccn1

> <Energy>
74.88641164080376

> <Genealogy>
O=C([N-]c1ccccc1[N-]C(=O)c1c([O-])[n-]c(=O)n(Cc2ccccc2)c1=O)c1ccccn1 (protonated)
O=C([N-]c1ccccc1[N-]C(=O)c1c([O-])[n-]c(=O)n(Cc2ccccc2)c1=O)c1ccccn1 (3D coordinates assigned)
O=C([N-]c1ccccc1[N-]C(=O)c1c([O-])[n-]c(=O)n(Cc2ccccc2)c1=O)c1ccccn1 (optimized conformer: 74.88641164080376 kcal/mol)

> <smiles>
O=C(Nc1ccccc1NC(=O)c1c(O)[nH]c(=O)n(Cc2ccccc2)c1=O)c1ccccn1

> <score_type>
oracle

> <origin>
adg

> <m_score__min__energy>
-16.23

> <m_primary>
energy

> <minimizedAffinity>
-6.18293

> <minimizedRMSD>
1.64514

> <CNNscore>
0.2669778168

> <CNNaffinity>
6.1216578484

> <CNN_VS>
1.6343468428

> <CNNaffinity_variance>
0.1971363872

$$$$
23:0


 31 34  0  0  0  0  0  0  0  0999 V2000
   58.8728   32.4271   48.0256 C   0  0  0  0  0  0  0  0  0  0  0  0
   58.1393   32.2858   49.0427 O   0  0  0  0  0  0  0  0  0  0  0  0
   59.6464   33.6503   47.8730 N   0  0  0  0  0  0  0  0  0  0  0  0
   60.1503   34.2050   49.1603 C   0  0  0  0  0  0  0  0  0  0  0  0
   61.5019   33.6070   49.6034 C   0  0  0  0  0  0  0  0  0  0  0  0
   62.4413   33.5000   48.4800 N   0  0  0  0  0  0  0  0  0  0  0  0
   63.5229   32.5491   48.5436 C   0  0  0  0  0  0  0  0  0  0  0  0
   63.7652   31.8100   47.5522 O   0  0  0  0  0  0  0  0  0  0  0  0
   62.0429   34.0704   47.1935 C   0  0  0  0  0  0  0  0  0  0  0  0
   60.6780   33.4961   46.8060 C   0  0  0  0  0  0  0  0  0  0  0  0
   59.8139   34.6070   47.7125 H   0  0  0  0  0  0  0  0  0  0  0  0
   64.3481   32.3913   49.7529 C   0  0  0  0  0  0  0  0  0  0  0  0
   65.4165   33.1145   49.9992 O   0  0  0  0  0  0  0  0  0  0  0  0
   65.9144   32.7489   51.1580 C   0  0  0  0  0  0  0  0  0  0  0  0
   65.1387   31.7472   51.7012 C   0  0  0  0  0  0  0  0  0  0  0  0
   64.1235   31.5156   50.7996 C   0  0  0  0  0  0  0  0  0  0  0  0
   58.0715   30.1032   43.8666 C   0  0  0  0  0  0  0  0  0  0  0  0
   58.3911   30.2819   45.1586 C   0  0  0  0  0  0  0  0  0  0  0  0
   59.1742   29.4334   45.9576 C   0  0  0  0  0  0  0  0  0  0  0  0
   59.5959   28.1699   45.7566 C   0  0  0  0  0  0  0  0  0  0  0  0
   59.4671   30.1464   47.1063 C   0  0  0  0  0  0  0  0  0  0  0  0
   58.8312   31.3668   46.9953 C   0  0  0  0  0  0  0  0  0  0  0  0
   58.1326   31.4302   45.8387 N   0  0  0  0  0  0  0  0  0  0  0  0
   57.3386   32.5688   45.3678 C   0  0  0  0  0  0  0  0  0  0  0  0
   58.7759   26.9575   45.9072 C   0  0  0  0  0  0  0  0  0  0  0  0
   59.2659   25.7113   46.0454 N   0  0  0  0  0  0  0  0  0  0  0  0
   58.1622   24.9351   46.0062 C   0  0  0  0  0  0  0  0  0  0  0  0
   58.2078   23.6825   46.1213 O   0  0  0  0  0  0  0  0  0  0  0  0
   57.0035   25.6067   45.8257 N   0  0  0  0  0  0  0  0  0  0  0  0
   57.4141   26.8827   45.7507 C   0  0  0  0  0  0  0  0  0  0  0  0
   56.5599   27.9575   45.5358 O   0  0  0  0  0  0  0  0  0  0  0  0
 17 18  2  0
 18 19  1  0
 19 20  2  0
 20 25  1  0
 25 26  1  0
 26 27  1  0
 27 28  2  0
 27 29  1  0
 29 30  1  0
 30 31  1  0
 19 21  1  0
 21 22  2  0
 22  1  1  0
  1  2  2  0
  1  3  1  0
  3  4  1  0
  4  5  1  0
  5  6  1  0
  6  7  1  0
  7  8  2  0
  7 12  1  0
 12 13  1  0
 13 14  1  0
 14 15  2  0
 15 16  1  0
  6  9  1  0
  9 10  1  0
 22 23  1  0
 23 24  1  0
 23 18  1  0
 30 25  2  0
 10  3  1  0
 16 12  2  0
  3 11  1  0
M  CHG 1   3   1
M  CHG 1  26  -1
M  CHG 1  29  -1
M  CHG 1  31  -1
M  END
> <UniqueID>
23

> <SMILES>
C=c1/c(=C\c2[n-]c(=O)[n-]c2[O-])cc(C(=O)[NH+]2CCN(C(=O)c3ccco3)CC2)n1C

> <Energy>
169.36294288103085

> <Genealogy>
C=c1c(=Cc2[n-]c(=O)[n-]c2[O-])cc(C(=O)[NH+]2CCN(C(=O)c3ccco3)CC2)n1C (protonated)
C=c1/c(=C\c2[n-]c(=O)[n-]c2[O-])cc(C(=O)[NH+]2CCN(C(=O)c3ccco3)CC2)n1C (cis-trans isomerization)
C=c1/c(=C\c2[n-]c(=O)[n-]c2[O-])cc(C(=O)[NH+]2CCN(C(=O)c3ccco3)CC2)n1C (3D coordinates assigned)
C=c1/c(=C\c2[n-]c(=O)[n-]c2[O-])cc(C(=O)[NH+]2CCN(C(=O)c3ccco3)CC2)n1C (nonaromatic ring conformer: 169.36294288103085 kcal/mol)

> <smiles>
C=c1c(=Cc2[nH]c(=O)[nH]c2O)cc(C(=O)N2CCN(C(=O)c3ccco3)CC2)n1C

> <score_type>
oracle

> <origin>
adg

> <m_score__min__energy>
-16.489999999999998

> <m_primary>
energy

> <minimizedAffinity>
-7.01673

> <minimizedRMSD>
1.09250

> <CNNscore>
0.0770928711

> <CNNaffinity>
6.1457114220

> <CNN_VS>
0.4737905264

> <CNNaffinity_variance>
0.0563555025

$$$$
25:0


 28 30  0  0  0  0  0  0  0  0999 V2000
   60.9539   26.7858   50.4161 C   0  0  0  0  0  0  0  0  0  0  0  0
   60.3358   27.2529   49.1376 C   0  0  0  0  0  0  0  0  0  0  0  0
   60.5509   28.5500   48.6775 C   0  0  0  0  0  0  0  0  0  0  0  0
   59.9832   28.9590   47.4647 C   0  0  0  0  0  0  0  0  0  0  0  0
   59.2085   28.0284   46.7416 C   0  0  0  0  0  0  0  0  0  0  0  0
   58.7053   28.3527   45.6288 O   0  0  0  0  0  0  0  0  0  0  0  0
   59.0136   26.7653   47.2443 N   0  0  0  0  0  0  0  0  0  0  0  0
   59.5767   26.4033   48.4004 N   0  0  0  0  0  0  0  0  0  0  0  0
   58.2210   25.7874   46.5451 C   0  0  0  0  0  0  0  0  0  0  0  0
   58.8285   24.7739   45.7894 C   0  0  0  0  0  0  0  0  0  0  0  0
   58.0501   23.8437   45.0970 C   0  0  0  0  0  0  0  0  0  0  0  0
   56.6457   23.9122   45.1332 C   0  0  0  0  0  0  0  0  0  0  0  0
   56.0352   24.9442   45.8807 C   0  0  0  0  0  0  0  0  0  0  0  0
   54.6515   25.0644   45.9468 O   0  0  0  0  0  0  0  0  0  0  0  0
   56.8213   25.8725   46.5718 C   0  0  0  0  0  0  0  0  0  0  0  0
   55.8487   22.9062   44.3848 C   0  0  0  0  0  0  0  0  0  0  0  0
   55.3428   23.1808   43.2650 O   0  0  0  0  0  0  0  0  0  0  0  0
   55.6466   21.6364   44.9154 O   0  0  0  0  0  0  0  0  0  0  0  0
   60.2313   30.3367   46.9602 C   0  0  0  0  0  0  0  0  0  0  0  0
   61.4079   30.7939   46.9351 O   0  0  0  0  0  0  0  0  0  0  0  0
   59.1460   31.1388   46.4674 N   0  0  0  0  0  0  0  0  0  0  0  0
   58.3108   30.6826   46.2151 H   0  0  0  0  0  0  0  0  0  0  0  0
   59.2065   32.5681   46.3204 C   0  0  0  0  0  0  0  0  0  0  0  0
   59.5748   33.4007   47.3943 C   0  0  0  0  0  0  0  0  0  0  0  0
   59.6044   34.7897   47.2316 C   0  0  0  0  0  0  0  0  0  0  0  0
   59.2556   35.3590   46.0041 C   0  0  0  0  0  0  0  0  0  0  0  0
   58.8692   34.5422   44.9398 C   0  0  0  0  0  0  0  0  0  0  0  0
   58.8379   33.1530   45.0975 C   0  0  0  0  0  0  0  0  0  0  0  0
  1  2  1  0
  2  3  1  0
  3  4  2  0
  4 19  1  0
 19 20  2  0
 19 21  1  0
 21 23  1  0
 23 24  2  0
 24 25  1  0
 25 26  2  0
 26 27  1  0
 27 28  2  0
  4  5  1  0
  5  6  2  0
  5  7  1  0
  7  9  1  0
  9 10  2  0
 10 11  1  0
 11 12  2  0
 12 16  1  0
 16 17  2  0
 16 18  1  0
 12 13  1  0
 13 14  1  0
 13 15  2  0
  7  8  1  0
  8  2  2  0
 28 23  1  0
 15  9  1  0
 21 22  1  0
M  CHG 1  14  -1
M  CHG 1  18  -1
M  END
> <UniqueID>
25

> <SMILES>
Cc1cc(C(=O)Nc2ccccc2)c(=O)n(-c2ccc(C(=O)[O-])c([O-])c2)n1

> <Energy>
59.22414897881983

> <Genealogy>
Cc1cc(C(=O)Nc2ccccc2)c(=O)n(-c2ccc(C(=O)[O-])c([O-])c2)n1 (protonated)
Cc1cc(C(=O)Nc2ccccc2)c(=O)n(-c2ccc(C(=O)[O-])c([O-])c2)n1 (3D coordinates assigned)
Cc1cc(C(=O)Nc2ccccc2)c(=O)n(-c2ccc(C(=O)[O-])c([O-])c2)n1 (optimized conformer: 59.22414897881983 kcal/mol)

> <smiles>
Cc1cc(C(=O)Nc2ccccc2)c(=O)n(-c2ccc(C(=O)O)c(O)c2)n1

> <score_type>
oracle

> <origin>
adg

> <m_score__min__energy>
-14.039999999999999

> <m_primary>
energy

> <minimizedAffinity>
-7.70571

> <minimizedRMSD>
0.78074

> <CNNscore>
0.2445029616

> <CNNaffinity>
6.1154046059

> <CNN_VS>
1.4952344894

> <CNNaffinity_variance>
0.1434102803

$$$$
58:0


 32 35  0  0  0  0  0  0  0  0999 V2000
   58.8523   32.4193   47.9847 C   0  0  0  0  0  0  0  0  0  0  0  0
   58.9845   31.3317   47.0010 N   0  0  0  0  0  0  0  0  0  0  0  0
   58.6763   31.4265   45.6853 C   0  0  0  0  0  0  0  0  0  0  0  0
   58.1326   32.6523   45.0131 C   0  0  0  0  0  0  0  0  0  0  0  0
   58.9602   30.2474   45.0298 C   0  0  0  0  0  0  0  0  0  0  0  0
   59.4707   29.3760   45.9809 C   0  0  0  0  0  0  0  0  0  0  0  0
   59.8415   28.0964   45.7741 C   0  0  0  0  0  0  0  0  0  0  0  0
   59.4729   30.0758   47.1943 C   0  0  0  0  0  0  0  0  0  0  0  0
   59.9041   29.5977   48.3741 C   0  0  0  0  0  0  0  0  0  0  0  0
   58.9113   26.9498   45.8000 C   0  0  0  0  0  0  0  0  0  0  0  0
   57.5429   27.0170   45.6692 C   0  0  0  0  0  0  0  0  0  0  0  0
   56.8091   28.1652   45.3981 O   0  0  0  0  0  0  0  0  0  0  0  0
   56.9901   25.8007   45.8449 N   0  0  0  0  0  0  0  0  0  0  0  0
   58.0615   25.0212   46.1018 C   0  0  0  0  0  0  0  0  0  0  0  0
   57.9658   23.7896   46.3451 O   0  0  0  0  0  0  0  0  0  0  0  0
   59.2371   25.6789   46.0929 N   0  0  0  0  0  0  0  0  0  0  0  0
   60.1343   25.3111   46.2629 H   0  0  0  0  0  0  0  0  0  0  0  0
   62.6630   33.2230   49.8710 C   0  0  0  0  0  0  0  0  0  0  0  0
   62.5562   33.1821   48.4708 C   0  0  0  0  0  0  0  0  0  0  0  0
   61.3238   32.9314   47.8612 C   0  0  0  0  0  0  0  0  0  0  0  0
   60.1790   32.7074   48.6413 C   0  0  0  0  0  0  0  0  0  0  0  0
   60.2843   32.7433   50.0391 C   0  0  0  0  0  0  0  0  0  0  0  0
   61.5164   32.9959   50.6489 C   0  0  0  0  0  0  0  0  0  0  0  0
   65.7839   32.4514   52.3158 C   0  0  0  0  0  0  0  0  0  0  0  0
   64.7253   33.4570   52.8469 C   0  0  0  0  0  0  0  0  0  0  0  0
   64.0307   34.2599   51.7327 C   0  0  0  0  0  0  0  0  0  0  0  0
   63.9367   33.4661   50.5007 N   0  0  0  0  0  0  0  0  0  0  0  0
   65.1641   32.9071   49.9122 C   0  0  0  0  0  0  0  0  0  0  0  0
   66.3130   32.8742   50.9322 C   0  0  0  0  0  0  0  0  0  0  0  0
   68.1297   31.9472   52.6308 O   0  0  0  0  0  0  0  0  0  0  0  0
   66.9446   32.2716   53.3101 C   0  0  0  0  0  0  0  0  0  0  0  0
   68.8499   31.8376   53.2714 H   0  0  0  0  0  0  0  0  0  0  0  0
 30 31  1  0
 31 24  1  0
 24 25  1  0
 25 26  1  0
 26 27  1  0
 27 18  1  0
 18 19  2  0
 19 20  1  0
 20 21  2  0
 21  1  1  0
  1  2  1  0
  2  3  1  0
  3  4  1  0
  3  5  2  0
  5  6  1  0
  6  7  2  0
  7 10  1  0
 10 11  2  0
 11 12  1  0
 11 13  1  0
 13 14  1  0
 14 15  2  0
 14 16  1  0
  6  8  1  0
  8  9  2  0
 21 22  1  0
 22 23  2  0
 27 28  1  0
 28 29  1  0
 29 24  1  0
 23 18  1  0
  8  2  1  0
 16 10  1  0
 30 32  1  0
 16 17  1  0
M  CHG 1  12  -1
M  CHG 1  13  -1
M  END
> <UniqueID>
56

> <SMILES>
C=c1/c(=C/c2[nH]c(=O)[n-]c2[O-])cc(C)n1Cc1ccc(N2CCC(CO)CC2)cc1

> <Energy>
128.02203991400694

> <Genealogy>
C=c1c(=Cc2[nH]c(=O)[n-]c2[O-])cc(C)n1Cc1ccc(N2CCC(CO)CC2)cc1 (protonated)
C=c1/c(=C/c2[nH]c(=O)[n-]c2[O-])cc(C)n1Cc1ccc(N2CCC(CO)CC2)cc1 (cis-trans isomerization)
C=c1/c(=C/c2[nH]c(=O)[n-]c2[O-])cc(C)n1Cc1ccc(N2CCC(CO)CC2)cc1 (3D coordinates assigned)
C=c1/c(=C/c2[nH]c(=O)[n-]c2[O-])cc(C)n1Cc1ccc(N2CCC(CO)CC2)cc1 (nonaromatic ring conformer: 128.02203991400694 kcal/mol)

> <smiles>
C=c1c(=Cc2[nH]c(=O)[nH]c2O)cc(C)n1Cc1ccc(N2CCC(CO)CC2)cc1

> <score_type>
oracle

> <origin>
adg

> <m_score__min__energy>
-15.369999999999999

> <m_primary>
energy

> <minimizedAffinity>
-7.60869

> <minimizedRMSD>
1.59975

> <CNNscore>
0.5144416690

> <CNNaffinity>
6.9323191643

> <CNN_VS>
3.5662739277

> <CNNaffinity_variance>
0.1690555811

$$$$
59:0


 31 34  0  0  0  0  0  0  0  0999 V2000
   59.2768   27.1637   47.8156 C   0  0  0  0  0  0  0  0  0  0  0  0
   58.7648   27.8865   46.8066 C   0  0  0  0  0  0  0  0  0  0  0  0
   58.1888   27.3953   45.6227 C   0  0  0  0  0  0  0  0  0  0  0  0
   58.1230   26.1480   45.1166 C   0  0  0  0  0  0  0  0  0  0  0  0
   57.6618   28.4928   44.9662 C   0  0  0  0  0  0  0  0  0  0  0  0
   57.9607   29.6033   45.7253 C   0  0  0  0  0  0  0  0  0  0  0  0
   58.6353   29.2406   46.8472 N   0  0  0  0  0  0  0  0  0  0  0  0
   57.3963   25.0168   45.7076 C   0  0  0  0  0  0  0  0  0  0  0  0
   57.9738   23.8465   46.0284 N   0  0  0  0  0  0  0  0  0  0  0  0
   56.9848   23.1710   46.6526 C   0  0  0  0  0  0  0  0  0  0  0  0
   57.1360   22.0020   47.0948 O   0  0  0  0  0  0  0  0  0  0  0  0
   55.8228   23.8484   46.7757 N   0  0  0  0  0  0  0  0  0  0  0  0
   56.1054   25.0213   46.1862 C   0  0  0  0  0  0  0  0  0  0  0  0
   55.2097   26.0814   46.1102 O   0  0  0  0  0  0  0  0  0  0  0  0
   57.6006   30.9811   45.3191 C   0  0  0  0  0  0  0  0  0  0  0  0
   56.4470   31.1809   44.8461 O   0  0  0  0  0  0  0  0  0  0  0  0
   58.4709   32.1008   45.6038 N   0  0  0  0  0  0  0  0  0  0  0  0
   58.1320   32.6887   46.9162 C   0  0  0  0  0  0  0  0  0  0  0  0
   58.8198   34.0577   47.1120 C   0  0  0  0  0  0  0  0  0  0  0  0
   59.8664   34.2400   46.1794 O   0  0  0  0  0  0  0  0  0  0  0  0
   59.3375   34.3084   44.8654 C   0  0  0  0  0  0  0  0  0  0  0  0
   58.3935   33.1262   44.5441 C   0  0  0  0  0  0  0  0  0  0  0  0
   59.1802   31.5389   45.9915 H   0  0  0  0  0  0  0  0  0  0  0  0
   59.2264   30.1452   47.8454 C   0  0  0  0  0  0  0  0  0  0  0  0
   60.6654   30.4867   47.5492 C   0  0  0  0  0  0  0  0  0  0  0  0
   61.1210   30.2263   46.4028 O   0  0  0  0  0  0  0  0  0  0  0  0
   61.4828   31.2241   48.4716 N   0  0  0  0  0  0  0  0  0  0  0  0
   61.8295   30.7640   49.8055 C   0  0  0  0  0  0  0  0  0  0  0  0
   63.0128   31.6182   50.2399 C   0  0  0  0  0  0  0  0  0  0  0  0
   63.0232   32.8185   49.2981 C   0  0  0  0  0  0  0  0  0  0  0  0
   62.2734   32.3679   48.0538 C   0  0  0  0  0  0  0  0  0  0  0  0
  1  2  2  0
  2  3  1  0
  3  4  2  0
  4  8  1  0
  8  9  1  0
  9 10  1  0
 10 11  2  0
 10 12  1  0
 12 13  1  0
 13 14  1  0
  3  5  1  0
  5  6  2  0
  6 15  1  0
 15 16  2  0
 15 17  1  0
 17 18  1  0
 18 19  1  0
 19 20  1  0
 20 21  1  0
 21 22  1  0
  6  7  1  0
  7 24  1  0
 24 25  1  0
 25 26  2  0
 25 27  1  0
 27 28  1  0
 28 29  1  0
 29 30  1  0
 30 31  1  0
  7  2  1  0
 31 27  1  0
 13  8  2  0
 22 17  1  0
 17 23  1  0
M  CHG 1   9  -1
M  CHG 1  12  -1
M  CHG 1  14  -1
M  CHG 1  17   1
M  END
> <UniqueID>
57

> <SMILES>
C=c1/c(=C\c2[n-]c(=O)[n-]c2[O-])cc(C(=O)[NH+]2CCOCC2)n1CC(=O)N1CCCC1

> <Energy>
141.58186316173945

> <Genealogy>
C=c1c(=Cc2[n-]c(=O)[n-]c2[O-])cc(C(=O)[NH+]2CCOCC2)n1CC(=O)N1CCCC1 (protonated)
C=c1/c(=C\c2[n-]c(=O)[n-]c2[O-])cc(C(=O)[NH+]2CCOCC2)n1CC(=O)N1CCCC1 (cis-trans isomerization)
C=c1/c(=C\c2[n-]c(=O)[n-]c2[O-])cc(C(=O)[NH+]2CCOCC2)n1CC(=O)N1CCCC1 (3D coordinates assigned)
C=c1/c(=C\c2[n-]c(=O)[n-]c2[O-])cc(C(=O)[NH+]2CCOCC2)n1CC(=O)N1CCCC1 (nonaromatic ring conformer: 141.58186316173945 kcal/mol)

> <smiles>
C=c1c(=Cc2[nH]c(=O)[nH]c2O)cc(C(=O)N2CCOCC2)n1CC(=O)N1CCCC1

> <score_type>
oracle

> <origin>
adg

> <m_score__min__energy>
-15.26

> <m_primary>
energy

> <minimizedAffinity>
-8.47846

> <minimizedRMSD>
0.89548

> <CNNscore>
0.2850958407

> <CNNaffinity>
6.5480270386

> <CNN_VS>
1.8668153286

> <CNNaffinity_variance>
0.1011319384

$$$$
63:0


 30 33  0  0  0  0  0  0  0  0999 V2000
   59.6121   29.3152   48.1010 C   0  0  0  0  0  0  0  0  0  0  0  0
   59.4687   28.0793   47.4730 C   0  0  0  0  0  0  0  0  0  0  0  0
   58.7274   28.3043   46.3220 C   0  0  0  0  0  0  0  0  0  0  0  0
   58.1165   27.3731   45.5612 C   0  0  0  0  0  0  0  0  0  0  0  0
   58.5557   29.6921   46.2198 C   0  0  0  0  0  0  0  0  0  0  0  0
   57.9885   30.3403   45.1900 C   0  0  0  0  0  0  0  0  0  0  0  0
   59.0324   30.2935   47.3465 N   0  0  0  0  0  0  0  0  0  0  0  0
   57.7456   26.0098   46.0014 C   0  0  0  0  0  0  0  0  0  0  0  0
   58.5980   24.9712   45.8894 N   0  0  0  0  0  0  0  0  0  0  0  0
   57.8145   23.8846   46.0237 C   0  0  0  0  0  0  0  0  0  0  0  0
   58.2500   22.7115   45.8974 O   0  0  0  0  0  0  0  0  0  0  0  0
   56.5010   24.1525   46.1854 N   0  0  0  0  0  0  0  0  0  0  0  0
   56.4685   25.4958   46.1727 C   0  0  0  0  0  0  0  0  0  0  0  0
   55.2851   26.2264   46.1775 O   0  0  0  0  0  0  0  0  0  0  0  0
   60.0968   29.4803   49.4968 C   0  0  0  0  0  0  0  0  0  0  0  0
   61.3074   29.7967   49.6753 O   0  0  0  0  0  0  0  0  0  0  0  0
   59.8823   30.2944   52.6618 C   0  0  0  0  0  0  0  0  0  0  0  0
   58.9558   31.0770   52.1394 C   0  0  0  0  0  0  0  0  0  0  0  0
   58.3925   30.4790   50.9006 C   0  0  0  0  0  0  0  0  0  0  0  0
   59.2184   29.2733   50.6337 N   0  0  0  0  0  0  0  0  0  0  0  0
   59.9969   29.0421   51.8714 C   0  0  0  0  0  0  0  0  0  0  0  0
   59.5839   28.6766   49.9411 H   0  0  0  0  0  0  0  0  0  0  0  0
   58.7993   31.6905   47.7810 C   0  0  0  0  0  0  0  0  0  0  0  0
   60.1014   32.3880   48.0733 C   0  0  0  0  0  0  0  0  0  0  0  0
   61.1953   32.2618   47.1952 C   0  0  0  0  0  0  0  0  0  0  0  0
   62.3953   32.9254   47.4703 C   0  0  0  0  0  0  0  0  0  0  0  0
   62.5250   33.6908   48.6355 C   0  0  0  0  0  0  0  0  0  0  0  0
   63.6940   34.3229   48.9099 F   0  0  0  0  0  0  0  0  0  0  0  0
   61.4454   33.8058   49.5225 C   0  0  0  0  0  0  0  0  0  0  0  0
   60.2394   33.1541   49.2439 C   0  0  0  0  0  0  0  0  0  0  0  0
 17 18  2  0
 18 19  1  0
 19 20  1  0
 20 15  1  0
 15 16  2  0
 15  1  1  0
  1  2  2  0
  2  3  1  0
  3  4  2  0
  4  8  1  0
  8  9  1  0
  9 10  1  0
 10 11  2  0
 10 12  1  0
 12 13  1  0
 13 14  1  0
  3  5  1  0
  5  6  2  0
  5  7  1  0
  7 23  1  0
 23 24  1  0
 24 25  2  0
 25 26  1  0
 26 27  2  0
 27 28  1  0
 27 29  1  0
 29 30  2  0
 20 21  1  0
 21 17  1  0
  7  1  1  0
 30 24  1  0
 13  8  2  0
 20 22  1  0
M  CHG 1   9  -1
M  CHG 1  12  -1
M  CHG 1  14  -1
M  CHG 1  20   1
M  END
> <UniqueID>
61

> <SMILES>
C=c1/c(=C/c2[n-]c(=O)[n-]c2[O-])cc(C(=O)[NH+]2CC=CC2)n1Cc1ccc(F)cc1

> <Energy>
139.66204783471778

> <Genealogy>
C=c1c(=Cc2[n-]c(=O)[n-]c2[O-])cc(C(=O)[NH+]2CC=CC2)n1Cc1ccc(F)cc1 (protonated)
C=c1/c(=C/c2[n-]c(=O)[n-]c2[O-])cc(C(=O)[NH+]2CC=CC2)n1Cc1ccc(F)cc1 (cis-trans isomerization)
C=c1/c(=C/c2[n-]c(=O)[n-]c2[O-])cc(C(=O)[NH+]2CC=CC2)n1Cc1ccc(F)cc1 (3D coordinates assigned)
C=c1/c(=C/c2[n-]c(=O)[n-]c2[O-])cc(C(=O)[NH+]2CC=CC2)n1Cc1ccc(F)cc1 (nonaromatic ring conformer: 139.66204783471778 kcal/mol)

> <smiles>
C=c1c(=Cc2[nH]c(=O)[nH]c2O)cc(C(=O)N2CC=CC2)n1Cc1ccc(F)cc1

> <score_type>
oracle

> <origin>
adg

> <m_score__min__energy>
-15

> <m_primary>
energy

> <minimizedAffinity>
-7.36345

> <minimizedRMSD>
1.01784

> <CNNscore>
0.1743128896

> <CNNaffinity>
6.3559665680

> <CNN_VS>
1.1079268456

> <CNNaffinity_variance>
0.0309000406

$$$$
77:0


 34 38  0  0  0  0  0  0  0  0999 V2000
   56.9386   30.1783   54.2467 C   0  0  0  0  0  0  0  0  0  0  0  0
   57.5308   29.9185   55.3323 O   0  0  0  0  0  0  0  0  0  0  0  0
   57.4828   31.1730   53.3543 N   0  0  0  0  0  0  0  0  0  0  0  0
   57.1652   31.1407   51.9162 C   0  0  0  0  0  0  0  0  0  0  0  0
   58.1097   32.0454   51.1251 C   0  0  0  0  0  0  0  0  0  0  0  0
   59.4807   31.8519   51.6206 N   0  0  0  0  0  0  0  0  0  0  0  0
   59.6677   32.3179   53.0165 C   0  0  0  0  0  0  0  0  0  0  0  0
   58.3798   32.2195   53.8639 C   0  0  0  0  0  0  0  0  0  0  0  0
   53.6535   26.6423   53.8040 C   0  0  0  0  0  0  0  0  0  0  0  0
   54.2048   27.8681   53.7663 C   0  0  0  0  0  0  0  0  0  0  0  0
   53.5448   29.0675   53.4609 C   0  0  0  0  0  0  0  0  0  0  0  0
   52.2522   29.2116   53.0961 C   0  0  0  0  0  0  0  0  0  0  0  0
   54.5006   30.0685   53.5873 C   0  0  0  0  0  0  0  0  0  0  0  0
   55.6864   29.4539   53.9353 C   0  0  0  0  0  0  0  0  0  0  0  0
   55.5124   28.1158   54.0364 N   0  0  0  0  0  0  0  0  0  0  0  0
   56.5426   27.1298   54.3848 C   0  0  0  0  0  0  0  0  0  0  0  0
   51.5059   30.4896   53.0358 C   0  0  0  0  0  0  0  0  0  0  0  0
   50.7010   30.9867   53.9906 N   0  0  0  0  0  0  0  0  0  0  0  0
   50.2959   32.1700   53.4870 C   0  0  0  0  0  0  0  0  0  0  0  0
   49.5179   32.9420   54.1003 O   0  0  0  0  0  0  0  0  0  0  0  0
   50.7902   32.4590   52.2631 N   0  0  0  0  0  0  0  0  0  0  0  0
   51.5516   31.3867   51.9972 C   0  0  0  0  0  0  0  0  0  0  0  0
   52.2799   31.2326   50.8232 O   0  0  0  0  0  0  0  0  0  0  0  0
   60.5180   32.3506   50.6935 C   0  0  0  0  0  0  0  0  0  0  0  0
   60.0234   32.5617   49.2849 C   0  0  0  0  0  0  0  0  0  0  0  0
   59.4093   31.3602   48.2733 S   0  0  0  0  0  0  0  0  0  0  0  0
   59.0998   32.3830   46.9743 C   0  0  0  0  0  0  0  0  0  0  0  0
   59.4831   33.6773   47.3101 C   0  0  0  0  0  0  0  0  0  0  0  0
   60.0024   33.7742   48.6041 C   0  0  0  0  0  0  0  0  0  0  0  0
   58.4973   31.9728   45.7417 N   0  0  0  0  0  0  0  0  0  0  0  0
   57.9788   30.7702   45.5505 N   0  0  0  0  0  0  0  0  0  0  0  0
   57.4777   30.7380   44.3006 C   0  0  0  0  0  0  0  0  0  0  0  0
   57.6814   31.9581   43.6882 C   0  0  0  0  0  0  0  0  0  0  0  0
   58.3308   32.7214   44.6327 C   0  0  0  0  0  0  0  0  0  0  0  0
  9 10  2  0
 10 11  1  0
 11 12  2  0
 12 17  1  0
 17 18  1  0
 18 19  1  0
 19 20  2  0
 19 21  1  0
 21 22  1  0
 22 23  1  0
 11 13  1  0
 13 14  2  0
 14  1  1  0
  1  2  2  0
  1  3  1  0
  3  4  1  0
  4  5  1  0
  5  6  1  0
  6 24  1  0
 24 25  1  0
 25 26  1  0
 26 27  1  0
 27 30  1  0
 30 31  1  0
 31 32  2  0
 32 33  1  0
 33 34  2  0
 27 28  2  0
 28 29  1  0
  6  7  1  0
  7  8  1  0
 14 15  1  0
 15 16  1  0
 15 10  1  0
 22 17  2  0
  8  3  1  0
 29 25  2  0
 34 30  1  0
M  CHG 1  18  -1
M  CHG 1  21  -1
M  CHG 1  23  -1
M  END
> <UniqueID>
73

> <SMILES>
C=c1/c(=C/c2[n-]c(=O)[n-]c2[O-])cc(C(=O)N2CCN(Cc3ccc(-n4cccn4)s3)CC2)n1C

> <Energy>
193.68768918211504

> <Genealogy>
C=c1c(=Cc2[n-]c(=O)[n-]c2[O-])cc(C(=O)N2CCN(Cc3ccc(-n4cccn4)s3)CC2)n1C (protonated)
C=c1/c(=C/c2[n-]c(=O)[n-]c2[O-])cc(C(=O)N2CCN(Cc3ccc(-n4cccn4)s3)CC2)n1C (cis-trans isomerization)
C=c1/c(=C/c2[n-]c(=O)[n-]c2[O-])cc(C(=O)N2CCN(Cc3ccc(-n4cccn4)s3)CC2)n1C (3D coordinates assigned)
C=c1/c(=C/c2[n-]c(=O)[n-]c2[O-])cc(C(=O)N2CCN(Cc3ccc(-n4cccn4)s3)CC2)n1C (nonaromatic ring conformer: 193.68768918211504 kcal/mol)

> <smiles>
C=c1c(=Cc2[nH]c(=O)[nH]c2O)cc(C(=O)N2CCN(Cc3ccc(-n4cccn4)s3)CC2)n1C

> <score_type>
oracle

> <origin>
adg

> <m_score__min__energy>
-18.969999999999999

> <m_primary>
energy

> <minimizedAffinity>
-8.02853

> <minimizedRMSD>
1.17305

> <CNNscore>
0.1386720836

> <CNNaffinity>
6.2406773567

> <CNN_VS>
0.8654077053

> <CNNaffinity_variance>
0.4067651927

$$$$
81:0


 26 28  0  0  0  0  0  0  0  0999 V2000
   55.2029   28.0140   54.0508 C   0  0  0  0  0  0  0  0  0  0  0  0
   55.6627   29.1085   53.4342 C   0  0  0  0  0  0  0  0  0  0  0  0
   56.9794   29.3039   53.2211 N   0  0  0  0  0  0  0  0  0  0  0  0
   57.1060   30.3836   52.4251 C   0  0  0  0  0  0  0  0  0  0  0  0
   55.8548   30.8965   52.1225 C   0  0  0  0  0  0  0  0  0  0  0  0
   54.9279   30.1164   52.7949 C   0  0  0  0  0  0  0  0  0  0  0  0
   53.6052   30.3732   52.7792 C   0  0  0  0  0  0  0  0  0  0  0  0
   57.7146   28.7572   53.5815 H   0  0  0  0  0  0  0  0  0  0  0  0
   52.7852   30.5631   51.5711 C   0  0  0  0  0  0  0  0  0  0  0  0
   52.7838   29.7365   50.5094 N   0  0  0  0  0  0  0  0  0  0  0  0
   51.7892   30.2258   49.7365 C   0  0  0  0  0  0  0  0  0  0  0  0
   51.4833   29.7217   48.6249 O   0  0  0  0  0  0  0  0  0  0  0  0
   51.1407   31.2918   50.2542 N   0  0  0  0  0  0  0  0  0  0  0  0
   51.7750   31.4806   51.4221 C   0  0  0  0  0  0  0  0  0  0  0  0
   51.4335   32.4700   52.3357 O   0  0  0  0  0  0  0  0  0  0  0  0
   58.4132   30.8889   51.9522 C   0  0  0  0  0  0  0  0  0  0  0  0
   59.4665   30.3953   52.4376 O   0  0  0  0  0  0  0  0  0  0  0  0
   58.5448   31.9776   50.9199 C   0  0  0  0  0  0  0  0  0  0  0  0
   59.1480   31.4283   49.6485 C   0  0  0  0  0  0  0  0  0  0  0  0
   59.0413   30.0534   49.3768 C   0  0  0  0  0  0  0  0  0  0  0  0
   59.6132   29.5111   48.2236 C   0  0  0  0  0  0  0  0  0  0  0  0
   60.3060   30.3325   47.3326 C   0  0  0  0  0  0  0  0  0  0  0  0
   60.8611   29.8039   46.2152 F   0  0  0  0  0  0  0  0  0  0  0  0
   60.4308   31.6981   47.5955 C   0  0  0  0  0  0  0  0  0  0  0  0
   59.8612   32.2534   48.7489 C   0  0  0  0  0  0  0  0  0  0  0  0
   60.0661   33.9788   49.0283 Cl  0  0  0  0  0  0  0  0  0  0  0  0
  1  2  2  0
  2  3  1  0
  3  4  1  0
  4 16  1  0
 16 17  2  0
 16 18  1  0
 18 19  1  0
 19 20  2  0
 20 21  1  0
 21 22  2  0
 22 23  1  0
 22 24  1  0
 24 25  2  0
 25 26  1  0
  4  5  2  0
  5  6  1  0
  6  7  2  0
  7  9  1  0
  9 10  1  0
 10 11  1  0
 11 12  2  0
 11 13  1  0
 13 14  1  0
 14 15  1  0
  6  2  1  0
 14  9  2  0
 25 19  1  0
  3  8  1  0
M  CHG 1  10  -1
M  CHG 1  13  -1
M  CHG 1  15  -1
M  END
> <UniqueID>
77

> <SMILES>
C=c1[nH]c(C(=O)Cc2ccc(F)cc2Cl)cc1=Cc1[n-]c(=O)[n-]c1[O-]

> <Energy>
104.9312372299059

> <Genealogy>
C=c1[nH]c(C(=O)Cc2ccc(F)cc2Cl)cc1=Cc1[n-]c(=O)[n-]c1[O-] (protonated)
C=c1[nH]c(C(=O)Cc2ccc(F)cc2Cl)cc1=Cc1[n-]c(=O)[n-]c1[O-] (3D coordinates assigned)
C=c1[nH]c(C(=O)Cc2ccc(F)cc2Cl)cc1=Cc1[n-]c(=O)[n-]c1[O-] (optimized conformer: 104.9312372299059 kcal/mol)

> <smiles>
C=c1[nH]c(C(=O)Cc2ccc(F)cc2Cl)cc1=Cc1[nH]c(=O)[nH]c1O

> <score_type>
oracle

> <origin>
adg

> <m_score__min__energy>
-16.940000000000001

> <m_primary>
energy

> <minimizedAffinity>
-6.06584

> <minimizedRMSD>
0.84301

> <CNNscore>
0.2118074596

> <CNNaffinity>
5.5751705170

> <CNN_VS>
1.1808626652

> <CNNaffinity_variance>
0.0567831211

$$$$
91:0


 29 32  0  0  0  0  0  0  0  0999 V2000
   53.4105   27.3536   53.8435 C   0  0  0  0  0  0  0  0  0  0  0  0
   54.1312   28.4832   53.7790 C   0  0  0  0  0  0  0  0  0  0  0  0
   53.8550   29.6164   52.9933 C   0  0  0  0  0  0  0  0  0  0  0  0
   52.7599   29.9587   52.2869 C   0  0  0  0  0  0  0  0  0  0  0  0
   54.9734   30.4265   53.0731 C   0  0  0  0  0  0  0  0  0  0  0  0
   55.8509   29.8064   53.9342 C   0  0  0  0  0  0  0  0  0  0  0  0
   55.3426   28.6348   54.3783 N   0  0  0  0  0  0  0  0  0  0  0  0
   57.1618   30.3492   54.3124 C   0  0  0  0  0  0  0  0  0  0  0  0
   57.2338   31.1539   55.2794 O   0  0  0  0  0  0  0  0  0  0  0  0
   58.3509   29.9503   53.6114 N   0  0  0  0  0  0  0  0  0  0  0  0
   59.6365   29.8973   54.3149 C   0  0  0  0  0  0  0  0  0  0  0  0
   60.3912   28.6258   53.9177 C   0  0  0  0  0  0  0  0  0  0  0  0
   60.3772   28.4121   52.4608 N   0  0  0  0  0  0  0  0  0  0  0  0
   61.1672   27.3492   51.8883 C   0  0  0  0  0  0  0  0  0  0  0  0
   61.4578   27.3678   50.6623 O   0  0  0  0  0  0  0  0  0  0  0  0
   59.6714   29.3622   51.5882 C   0  0  0  0  0  0  0  0  0  0  0  0
   58.2896   29.6891   52.1648 C   0  0  0  0  0  0  0  0  0  0  0  0
   61.7022   26.2311   52.7420 C   0  0  0  0  0  0  0  0  0  0  0  0
   62.7567   25.3702   52.0614 C   0  0  0  0  0  0  0  0  0  0  0  0
   63.1677   26.3620   53.1338 C   0  0  0  0  0  0  0  0  0  0  0  0
   51.6437   30.7805   52.7843 C   0  0  0  0  0  0  0  0  0  0  0  0
   51.0358   30.6092   53.9714 N   0  0  0  0  0  0  0  0  0  0  0  0
   50.1868   31.6569   54.0401 C   0  0  0  0  0  0  0  0  0  0  0  0
   49.4228   31.8475   55.0222 O   0  0  0  0  0  0  0  0  0  0  0  0
   50.2362   32.4982   52.9845 N   0  0  0  0  0  0  0  0  0  0  0  0
   51.1727   31.9339   52.2041 C   0  0  0  0  0  0  0  0  0  0  0  0
   51.5944   32.4658   50.9933 O   0  0  0  0  0  0  0  0  0  0  0  0
   56.0131   27.7037   55.2997 C   0  0  0  0  0  0  0  0  0  0  0  0
   56.9279   26.7457   54.5414 C   0  0  0  0  0  0  0  0  0  0  0  0
  1  2  2  0
  2  3  1  0
  3  4  2  0
  4 21  1  0
 21 22  1  0
 22 23  1  0
 23 24  2  0
 23 25  1  0
 25 26  1  0
 26 27  1  0
  3  5  1  0
  5  6  2  0
  6  8  1  0
  8  9  2  0
  8 10  1  0
 10 11  1  0
 11 12  1  0
 12 13  1  0
 13 14  1  0
 14 15  2  0
 14 18  1  0
 18 19  1  0
 19 20  1  0
 13 16  1  0
 16 17  1  0
  6  7  1  0
  7 28  1  0
 28 29  1  0
  7  2  1  0
 26 21  2  0
 17 10  1  0
 20 18  1  0
M  CHG 1  22  -1
M  CHG 1  25  -1
M  CHG 1  27  -1
M  END
> <UniqueID>
84

> <SMILES>
C=c1/c(=C\c2[n-]c(=O)[n-]c2[O-])cc(C(=O)N2CCN(C(=O)C3CC3)CC2)n1CC

> <Energy>
388.56427426256204

> <Genealogy>
C=c1c(=Cc2[n-]c(=O)[n-]c2[O-])cc(C(=O)N2CCN(C(=O)C3CC3)CC2)n1CC (protonated)
C=c1/c(=C\c2[n-]c(=O)[n-]c2[O-])cc(C(=O)N2CCN(C(=O)C3CC3)CC2)n1CC (cis-trans isomerization)
C=c1/c(=C\c2[n-]c(=O)[n-]c2[O-])cc(C(=O)N2CCN(C(=O)C3CC3)CC2)n1CC (3D coordinates assigned)
C=c1/c(=C\c2[n-]c(=O)[n-]c2[O-])cc(C(=O)N2CCN(C(=O)C3CC3)CC2)n1CC (nonaromatic ring conformer: 388.56427426256204 kcal/mol)

> <smiles>
C=c1c(=Cc2[nH]c(=O)[nH]c2O)cc(C(=O)N2CCN(C(=O)C3CC3)CC2)n1CC

> <score_type>
oracle

> <origin>
adg

> <m_score__min__energy>
-17.460000000000001

> <m_primary>
energy

> <minimizedAffinity>
-5.25355

> <minimizedRMSD>
1.38061

> <CNNscore>
0.1259531528

> <CNNaffinity>
4.4827466011

> <CNN_VS>
0.5646160841

> <CNNaffinity_variance>
0.5125723481

$$$$
2:0


 35 39  0  0  0  0  0  0  0  0999 V2000
   57.9418   29.0696   45.5641 C   0  0  0  0  0  0  0  0  0  0  0  0
   57.2099   29.8581   44.6580 C   0  0  0  0  0  0  0  0  0  0  0  0
   57.4198   31.2385   44.5898 C   0  0  0  0  0  0  0  0  0  0  0  0
   58.3631   31.8488   45.4169 C   0  0  0  0  0  0  0  0  0  0  0  0
   59.0973   31.0812   46.3309 C   0  0  0  0  0  0  0  0  0  0  0  0
   58.8867   29.6948   46.3990 C   0  0  0  0  0  0  0  0  0  0  0  0
   58.1716   21.9658   45.9994 O   0  0  0  0  0  0  0  0  0  0  0  0
   57.7327   23.1418   45.9300 C   0  0  0  0  0  0  0  0  0  0  0  0
   56.3788   23.3671   45.9721 N   0  0  0  0  0  0  0  0  0  0  0  0
   55.8687   24.6328   45.9015 C   0  0  0  0  0  0  0  0  0  0  0  0
   54.6246   24.8255   45.9475 O   0  0  0  0  0  0  0  0  0  0  0  0
   56.7635   25.6888   45.7851 C   0  0  0  0  0  0  0  0  0  0  0  0
   56.5153   27.0071   45.7148 N   0  0  0  0  0  0  0  0  0  0  0  0
   57.7349   27.6017   45.6268 C   0  0  0  0  0  0  0  0  0  0  0  0
   58.7581   26.6425   45.6393 C   0  0  0  0  0  0  0  0  0  0  0  0
   58.0976   25.4415   45.7402 C   0  0  0  0  0  0  0  0  0  0  0  0
   58.6075   24.1874   45.8140 N   0  0  0  0  0  0  0  0  0  0  0  0
   55.6358   27.4494   45.7249 H   0  0  0  0  0  0  0  0  0  0  0  0
   60.2786   31.8534   47.3942 S   0  0  0  0  0  0  0  0  0  0  0  0
   61.4509   30.9314   47.5881 O   0  0  0  0  0  0  0  0  0  0  0  0
   60.7818   33.1127   46.7421 O   0  0  0  0  0  0  0  0  0  0  0  0
   59.5872   32.2446   48.9507 N   0  0  0  0  0  0  0  0  0  0  0  0
   60.2566   33.4214   49.5402 C   0  0  0  0  0  0  0  0  0  0  0  0
   60.0817   33.4507   51.0607 C   0  0  0  0  0  0  0  0  0  0  0  0
   60.7559   32.2930   51.6858 N   0  0  0  0  0  0  0  0  0  0  0  0
   60.6860   31.0497   50.8717 C   0  0  0  0  0  0  0  0  0  0  0  0
   59.5388   31.0661   49.8448 C   0  0  0  0  0  0  0  0  0  0  0  0
   60.2912   32.0918   53.0749 C   0  0  0  0  0  0  0  0  0  0  0  0
   58.9421   32.7892   53.3084 C   0  0  0  0  0  0  0  0  0  0  0  0
   57.8140   31.7904   53.3702 C   0  0  0  0  0  0  0  0  0  0  0  0
   56.9352   31.6484   52.2826 C   0  0  0  0  0  0  0  0  0  0  0  0
   55.8739   30.7401   52.3491 C   0  0  0  0  0  0  0  0  0  0  0  0
   55.6773   29.9729   53.5005 C   0  0  0  0  0  0  0  0  0  0  0  0
   56.5407   30.1152   54.5918 C   0  0  0  0  0  0  0  0  0  0  0  0
   57.6005   31.0261   54.5323 C   0  0  0  0  0  0  0  0  0  0  0  0
  7  8  2  0
  8  9  1  0
  9 10  1  0
 10 11  2  0
 10 12  1  0
 12 13  1  0
 13 14  1  0
 14  1  1  0
  1  2  2  0
  2  3  1  0
  3  4  2  0
  4  5  1  0
  5 19  1  0
 19 20  2  0
 19 21  2  0
 19 22  1  0
 22 23  1  0
 23 24  1  0
 24 25  1  0
 25 28  1  0
 28 29  1  0
 29 30  1  0
 30 31  2  0
 31 32  1  0
 32 33  2  0
 33 34  1  0
 34 35  2  0
 25 26  1  0
 26 27  1  0
  5  6  2  0
 14 15  2  0
 15 16  1  0
 16 17  1  0
 17  8  1  0
 16 12  2  0
  6  1  1  0
 27 22  1  0
 35 30  1  0
 13 18  1  0
M  CHG 1   9  -1
M  CHG 1  17  -1
M  END
> <UniqueID>
3

> <SMILES>
O=c1[n-]c(=O)c2[nH]c(-c3cccc(S(=O)(=O)N4CCN(CCc5ccccc5)CC4)c3)cc2[n-]1

> <Energy>
109.32376806121425

> <Genealogy>
O=c1[n-]c(=O)c2[nH]c(-c3cccc(S(=O)(=O)N4CCN(CCc5ccccc5)CC4)c3)cc2[n-]1 (protonated)
O=c1[n-]c(=O)c2[nH]c(-c3cccc(S(=O)(=O)N4CCN(CCc5ccccc5)CC4)c3)cc2[n-]1 (3D coordinates assigned)
O=c1[n-]c(=O)c2[nH]c(-c3cccc(S(=O)(=O)N4CCN(CCc5ccccc5)CC4)c3)cc2[n-]1 (nonaromatic ring conformer: 109.32376806121425 kcal/mol)

> <smiles>
O=c1[nH]c(=O)c2[nH]c(-c3cccc(S(=O)(=O)N4CCN(CCc5ccccc5)CC4)c3)cc2[nH]1

> <score_type>
oracle

> <origin>
adg

> <m_score__min__energy>
-14.25

> <m_primary>
energy

> <minimizedAffinity>
-9.47951

> <minimizedRMSD>
1.16439

> <CNNscore>
0.1904837489

> <CNNaffinity>
6.4207820892

> <CNN_VS>
1.2230546474

> <CNNaffinity_variance>
0.0664931461

$$$$
8:0


 25 27  0  0  0  0  0  0  0  0999 V2000
   56.6430   31.1966   52.4184 C   0  0  0  0  0  0  0  0  0  0  0  0
   56.1531   30.1467   53.1188 C   0  0  0  0  0  0  0  0  0  0  0  0
   54.7469   29.8724   53.1083 C   0  0  0  0  0  0  0  0  0  0  0  0
   53.7706   30.7797   52.8423 C   0  0  0  0  0  0  0  0  0  0  0  0
   54.3319   28.5715   53.4167 C   0  0  0  0  0  0  0  0  0  0  0  0
   55.2245   27.6366   53.9307 C   0  0  0  0  0  0  0  0  0  0  0  0
   56.5625   28.0061   54.1227 C   0  0  0  0  0  0  0  0  0  0  0  0
   57.3520   27.1681   54.6437 O   0  0  0  0  0  0  0  0  0  0  0  0
   57.0170   29.2501   53.7395 N   0  0  0  0  0  0  0  0  0  0  0  0
   52.8757   30.7755   51.6668 C   0  0  0  0  0  0  0  0  0  0  0  0
   52.9618   29.8695   50.6772 N   0  0  0  0  0  0  0  0  0  0  0  0
   51.9180   30.1777   49.8783 C   0  0  0  0  0  0  0  0  0  0  0  0
   51.6690   29.5485   48.8164 O   0  0  0  0  0  0  0  0  0  0  0  0
   51.1578   31.2067   50.3097 N   0  0  0  0  0  0  0  0  0  0  0  0
   51.7684   31.5669   51.4492 C   0  0  0  0  0  0  0  0  0  0  0  0
   51.3001   32.5713   52.2872 O   0  0  0  0  0  0  0  0  0  0  0  0
   54.7331   26.2477   54.2706 C   0  0  0  0  0  0  0  0  0  0  0  0
   53.2961   26.0529   53.7989 C   0  0  0  0  0  0  0  0  0  0  0  0
   58.4331   29.6108   54.0212 C   0  0  0  0  0  0  0  0  0  0  0  0
   59.3477   29.0675   52.9510 C   0  0  0  0  0  0  0  0  0  0  0  0
   59.4341   29.7078   51.7064 C   0  0  0  0  0  0  0  0  0  0  0  0
   60.2870   29.1954   50.7257 C   0  0  0  0  0  0  0  0  0  0  0  0
   61.0352   28.0905   50.9824 N   0  0  0  0  0  0  0  0  0  0  0  0
   60.9816   27.4575   52.1848 C   0  0  0  0  0  0  0  0  0  0  0  0
   60.1421   27.9370   53.1940 C   0  0  0  0  0  0  0  0  0  0  0  0
  1  2  2  0
  2  3  1  0
  3  4  2  0
  4 10  1  0
 10 11  1  0
 11 12  1  0
 12 13  2  0
 12 14  1  0
 14 15  1  0
 15 16  1  0
  3  5  1  0
  5  6  2  0
  6 17  1  0
 17 18  1  0
  6  7  1  0
  7  8  2  0
  7  9  1  0
  9 19  1  0
 19 20  1  0
 20 21  2  0
 21 22  1  0
 22 23  2  0
 23 24  1  0
 24 25  2  0
  9  2  1  0
 25 20  1  0
 15 10  2  0
M  CHG 1  11  -1
M  CHG 1  14  -1
M  CHG 1  16  -1
M  END
> <UniqueID>
8

> <SMILES>
C=c1c(=Cc2[n-]c(=O)[n-]c2[O-])cc(CC)c(=O)n1Cc1ccncc1

> <Energy>
101.04264726429928

> <Genealogy>
C=c1c(=Cc2[n-]c(=O)[n-]c2[O-])cc(CC)c(=O)n1Cc1ccncc1 (protonated)
C=c1c(=Cc2[n-]c(=O)[n-]c2[O-])cc(CC)c(=O)n1Cc1ccncc1 (3D coordinates assigned)
C=c1c(=Cc2[n-]c(=O)[n-]c2[O-])cc(CC)c(=O)n1Cc1ccncc1 (optimized conformer: 101.04264726429928 kcal/mol)

> <smiles>
C=c1c(=Cc2[nH]c(=O)[nH]c2O)cc(CC)c(=O)n1Cc1ccncc1

> <score_type>
oracle

> <origin>
adg

> <m_score__min__energy>
-15.31

> <m_primary>
energy

> <minimizedAffinity>
-4.58295

> <minimizedRMSD>
0.99256

> <CNNscore>
0.1205315143

> <CNNaffinity>
4.3555026054

> <CNN_VS>
0.5249752998

> <CNNaffinity_variance>
0.5775821805

$$$$
9:0


 28 31  0  0  0  0  0  0  0  0999 V2000
   54.5232   27.9015   53.5901 C   0  0  0  0  0  0  0  0  0  0  0  0
   55.3940   28.9067   53.3810 C   0  0  0  0  0  0  0  0  0  0  0  0
   56.7260   28.6391   53.5508 N   0  0  0  0  0  0  0  0  0  0  0  0
   57.7095   29.5020   53.1609 C   0  0  0  0  0  0  0  0  0  0  0  0
   57.3584   30.6791   52.4736 C   0  0  0  0  0  0  0  0  0  0  0  0
   56.0076   31.0035   52.3365 C   0  0  0  0  0  0  0  0  0  0  0  0
   54.9988   30.1813   52.8672 C   0  0  0  0  0  0  0  0  0  0  0  0
   53.7332   30.6707   52.8552 C   0  0  0  0  0  0  0  0  0  0  0  0
   56.9856   27.7880   53.9720 H   0  0  0  0  0  0  0  0  0  0  0  0
   58.3688   31.5836   51.8829 C   0  0  0  0  0  0  0  0  0  0  0  0
   58.7884   32.5599   52.5617 O   0  0  0  0  0  0  0  0  0  0  0  0
   58.8533   31.3798   50.5390 N   0  0  0  0  0  0  0  0  0  0  0  0
   59.5789   32.4639   49.8564 C   0  0  0  0  0  0  0  0  0  0  0  0
   59.2898   32.4529   48.3492 C   0  0  0  0  0  0  0  0  0  0  0  0
   59.4368   31.0724   47.7779 C   0  0  0  0  0  0  0  0  0  0  0  0
   59.4010   30.9091   46.5679 O   0  0  0  0  0  0  0  0  0  0  0  0
   59.6540   29.8984   48.6883 C   0  0  0  0  0  0  0  0  0  0  0  0
   58.7761   30.0328   49.9380 C   0  0  0  0  0  0  0  0  0  0  0  0
   52.7909   30.6304   51.7224 C   0  0  0  0  0  0  0  0  0  0  0  0
   52.9184   29.7882   50.6823 N   0  0  0  0  0  0  0  0  0  0  0  0
   51.9227   30.1613   49.8502 C   0  0  0  0  0  0  0  0  0  0  0  0
   51.7053   29.5860   48.7536 O   0  0  0  0  0  0  0  0  0  0  0  0
   51.1854   31.2064   50.2822 N   0  0  0  0  0  0  0  0  0  0  0  0
   51.7546   31.5016   51.4615 C   0  0  0  0  0  0  0  0  0  0  0  0
   51.3569   32.5645   52.2632 O   0  0  0  0  0  0  0  0  0  0  0  0
   59.1584   29.0989   53.3121 C   0  0  0  0  0  0  0  0  0  0  0  0
   59.4745   28.1541   54.4695 C   0  0  0  0  0  0  0  0  0  0  0  0
   59.8380   29.6206   54.5719 C   0  0  0  0  0  0  0  0  0  0  0  0
  1  2  2  0
  2  3  1  0
  3  4  2  0
  4 26  1  0
 26 27  1  0
 27 28  1  0
  4  5  1  0
  5 10  1  0
 10 11  2  0
 10 12  1  0
 12 13  1  0
 13 14  1  0
 14 15  1  0
 15 16  2  0
 15 17  1  0
 17 18  1  0
  5  6  2  0
  6  7  1  0
  7  8  2  0
  8 19  1  0
 19 20  1  0
 20 21  1  0
 21 22  2  0
 21 23  1  0
 23 24  1  0
 24 25  1  0
  7  2  1  0
 24 19  2  0
 28 26  1  0
 18 12  1  0
  3  9  1  0
M  CHG 1   3   1
M  CHG 1  20  -1
M  CHG 1  23  -1
M  CHG 1  25  -1
M  END
> <UniqueID>
9

> <SMILES>
C=c1[nH+]c(C2CC2)c(C(=O)N2CCC(=O)CC2)cc1=Cc1[n-]c(=O)[n-]c1[O-]

> <Energy>
368.15565873658716

> <Genealogy>
C=c1[nH+]c(C2CC2)c(C(=O)N2CCC(=O)CC2)cc1=Cc1[n-]c(=O)[n-]c1[O-] (protonated)
C=c1[nH+]c(C2CC2)c(C(=O)N2CCC(=O)CC2)cc1=Cc1[n-]c(=O)[n-]c1[O-] (3D coordinates assigned)
C=c1[nH+]c(C2CC2)c(C(=O)N2CCC(=O)CC2)cc1=Cc1[n-]c(=O)[n-]c1[O-] (nonaromatic ring conformer: 368.15565873658716 kcal/mol)

> <smiles>
C=c1nc(C2CC2)c(C(=O)N2CCC(=O)CC2)cc1=Cc1[nH]c(=O)[nH]c1O

> <score_type>
oracle

> <origin>
adg

> <m_score__min__energy>
-15.35

> <m_primary>
energy

> <minimizedAffinity>
-5.83484

> <minimizedRMSD>
0.73354

> <CNNscore>
0.0767792836

> <CNNaffinity>
5.2836928368

> <CNN_VS>
0.4056781530

> <CNNaffinity_variance>
0.0828061253

$$$$
16:0


 25 27  0  0  0  0  0  0  0  0999 V2000
   55.0490   28.7069   54.9691 C   0  0  0  0  0  0  0  0  0  0  0  0
   55.5147   29.2758   53.8465 C   0  0  0  0  0  0  0  0  0  0  0  0
   54.8456   30.2011   53.0317 C   0  0  0  0  0  0  0  0  0  0  0  0
   53.5549   30.5864   53.0029 C   0  0  0  0  0  0  0  0  0  0  0  0
   55.7943   30.7057   52.1607 C   0  0  0  0  0  0  0  0  0  0  0  0
   56.9765   30.0464   52.4259 C   0  0  0  0  0  0  0  0  0  0  0  0
   56.8011   29.1486   53.4265 N   0  0  0  0  0  0  0  0  0  0  0  0
   57.8071   28.2261   53.9631 C   0  0  0  0  0  0  0  0  0  0  0  0
   52.6793   30.5645   51.8188 C   0  0  0  0  0  0  0  0  0  0  0  0
   52.8211   29.7254   50.7759 N   0  0  0  0  0  0  0  0  0  0  0  0
   51.8993   30.1680   49.8928 C   0  0  0  0  0  0  0  0  0  0  0  0
   51.7120   29.6189   48.7768 O   0  0  0  0  0  0  0  0  0  0  0  0
   51.2021   31.2517   50.2965 N   0  0  0  0  0  0  0  0  0  0  0  0
   51.7193   31.4962   51.5108 C   0  0  0  0  0  0  0  0  0  0  0  0
   51.3255   32.5550   52.3204 O   0  0  0  0  0  0  0  0  0  0  0  0
   58.2415   30.3255   51.7093 C   0  0  0  0  0  0  0  0  0  0  0  0
   58.5018   29.6548   50.6726 O   0  0  0  0  0  0  0  0  0  0  0  0
   59.0930   31.4373   52.0858 N   0  0  0  0  0  0  0  0  0  0  0  0
   58.7260   31.8878   53.4431 C   0  0  0  0  0  0  0  0  0  0  0  0
   58.5527   30.6925   51.7356 H   0  0  0  0  0  0  0  0  0  0  0  0
   59.0803   32.5034   51.0388 C   0  0  0  0  0  0  0  0  0  0  0  0
   58.7064   31.9752   49.6477 C   0  0  0  0  0  0  0  0  0  0  0  0
   59.4667   32.8379   48.6394 C   0  0  0  0  0  0  0  0  0  0  0  0
   60.2817   33.8477   49.4401 C   0  0  0  0  0  0  0  0  0  0  0  0
   60.3962   33.2687   50.8391 C   0  0  0  0  0  0  0  0  0  0  0  0
  1  2  2  0
  2  3  1  0
  3  4  2  0
  4  9  1  0
  9 10  1  0
 10 11  1  0
 11 12  2  0
 11 13  1  0
 13 14  1  0
 14 15  1  0
  3  5  1  0
  5  6  2  0
  6 16  1  0
 16 17  2  0
 16 18  1  0
 18 19  1  0
 18 21  1  0
 21 22  1  0
 22 23  1  0
 23 24  1  0
 24 25  1  0
  6  7  1  0
  7  8  1  0
  7  2  1  0
 14  9  2  0
 25 21  1  0
 18 20  1  0
M  CHG 1  10  -1
M  CHG 1  13  -1
M  CHG 1  15  -1
M  CHG 1  18   1
M  END
> <UniqueID>
16

> <SMILES>
C=c1c(=Cc2[n-]c(=O)[n-]c2[O-])cc(C(=O)[N@H+](C)C2CCCC2)n1C

> <Energy>
128.03824329095673

> <Genealogy>
C=c1c(=Cc2[n-]c(=O)[n-]c2[O-])cc(C(=O)[NH+](C)C2CCCC2)n1C (protonated)
C=c1c(=Cc2[n-]c(=O)[n-]c2[O-])cc(C(=O)[N@H+](C)C2CCCC2)n1C (chirality)
C=c1c(=Cc2[n-]c(=O)[n-]c2[O-])cc(C(=O)[N@H+](C)C2CCCC2)n1C (3D coordinates assigned)
C=c1c(=Cc2[n-]c(=O)[n-]c2[O-])cc(C(=O)[N@H+](C)C2CCCC2)n1C (nonaromatic ring conformer: 128.03824329095673 kcal/mol)

> <smiles>
C=c1c(=Cc2[nH]c(=O)[nH]c2O)cc(C(=O)N(C)C2CCCC2)n1C

> <score_type>
oracle

> <origin>
adg

> <m_score__min__energy>
-15.49

> <m_primary>
energy

> <minimizedAffinity>
-5.11389

> <minimizedRMSD>
0.86886

> <CNNscore>
0.2340736985

> <CNNaffinity>
5.0948138237

> <CNN_VS>
1.1925618649

> <CNNaffinity_variance>
0.3989093304

$$$$
17:0


 34 37  0  0  0  0  0  0  0  0999 V2000
   59.9425   27.2542   46.8739 C   0  0  0  0  0  0  0  0  0  0  0  0
   59.0303   27.8965   46.1311 C   0  0  0  0  0  0  0  0  0  0  0  0
   58.2945   27.3814   45.0573 C   0  0  0  0  0  0  0  0  0  0  0  0
   57.9542   26.1124   44.7402 C   0  0  0  0  0  0  0  0  0  0  0  0
   57.7851   28.4826   44.3856 C   0  0  0  0  0  0  0  0  0  0  0  0
   58.1418   29.6002   45.1137 C   0  0  0  0  0  0  0  0  0  0  0  0
   57.6487   30.9872   44.8363 C   0  0  0  0  0  0  0  0  0  0  0  0
   58.8781   29.2442   46.1893 N   0  0  0  0  0  0  0  0  0  0  0  0
   59.1011   30.0496   47.3566 C   0  0  0  0  0  0  0  0  0  0  0  0
   58.6199   29.6612   48.4618 O   0  0  0  0  0  0  0  0  0  0  0  0
   57.3990   25.0828   45.6498 C   0  0  0  0  0  0  0  0  0  0  0  0
   58.0167   23.9534   46.0375 N   0  0  0  0  0  0  0  0  0  0  0  0
   57.1102   23.3495   46.8345 C   0  0  0  0  0  0  0  0  0  0  0  0
   57.3000   22.2097   47.3339 O   0  0  0  0  0  0  0  0  0  0  0  0
   55.9619   24.0366   47.0060 N   0  0  0  0  0  0  0  0  0  0  0  0
   56.1674   25.1386   46.2659 C   0  0  0  0  0  0  0  0  0  0  0  0
   55.2350   26.1572   46.1268 O   0  0  0  0  0  0  0  0  0  0  0  0
   59.9346   31.2334   47.2982 N   0  0  0  0  0  0  0  0  0  0  0  0
   59.5870   32.1836   48.3950 C   0  0  0  0  0  0  0  0  0  0  0  0
   60.4870   32.0054   49.6381 C   0  0  0  0  0  0  0  0  0  0  0  0
   61.9362   32.1505   49.3205 N   0  0  0  0  0  0  0  0  0  0  0  0
   62.2530   31.9369   47.8893 C   0  0  0  0  0  0  0  0  0  0  0  0
   61.3662   30.8353   47.2971 C   0  0  0  0  0  0  0  0  0  0  0  0
   59.3881   31.9648   47.6663 H   0  0  0  0  0  0  0  0  0  0  0  0
   62.4805   33.4420   49.7785 C   0  0  0  0  0  0  0  0  0  0  0  0
   63.8292   33.2463   50.4238 C   0  0  0  0  0  0  0  0  0  0  0  0
   64.6109   32.1312   50.0891 C   0  0  0  0  0  0  0  0  0  0  0  0
   65.8567   31.9427   50.6942 C   0  0  0  0  0  0  0  0  0  0  0  0
   66.3293   32.8601   51.6374 C   0  0  0  0  0  0  0  0  0  0  0  0
   67.5398   32.6625   52.2135 F   0  0  0  0  0  0  0  0  0  0  0  0
   65.5548   33.9763   51.9884 C   0  0  0  0  0  0  0  0  0  0  0  0
   64.3015   34.1635   51.3740 C   0  0  0  0  0  0  0  0  0  0  0  0
   66.0634   34.8688   52.9440 O   0  0  0  0  0  0  0  0  0  0  0  0
   66.7972   36.0476   52.6295 C   0  0  0  0  0  0  0  0  0  0  0  0
  1  2  2  0
  2  3  1  0
  3  4  2  0
  4 11  1  0
 11 12  1  0
 12 13  1  0
 13 14  2  0
 13 15  1  0
 15 16  1  0
 16 17  1  0
  3  5  1  0
  5  6  2  0
  6  7  1  0
  6  8  1  0
  8  9  1  0
  9 10  2  0
  9 18  1  0
 18 19  1  0
 19 20  1  0
 20 21  1  0
 21 25  1  0
 25 26  1  0
 26 27  2  0
 27 28  1  0
 28 29  2  0
 29 30  1  0
 29 31  1  0
 31 33  1  0
 33 34  1  0
 31 32  2  0
 21 22  1  0
 22 23  1  0
  8  2  1  0
 23 18  1  0
 16 11  2  0
 32 26  1  0
 18 24  1  0
M  CHG 1  12  -1
M  CHG 1  15  -1
M  CHG 1  17  -1
M  CHG 1  18   1
M  END
> <UniqueID>
17

> <SMILES>
C=c1c(=Cc2[n-]c(=O)[n-]c2[O-])cc(C)n1C(=O)[NH+]1CCN(Cc2ccc(F)c(OC)c2)CC1

> <Energy>
152.82848103957093

> <Genealogy>
C=c1c(=Cc2[n-]c(=O)[n-]c2[O-])cc(C)n1C(=O)[NH+]1CCN(Cc2ccc(F)c(OC)c2)CC1 (protonated)
C=c1c(=Cc2[n-]c(=O)[n-]c2[O-])cc(C)n1C(=O)[NH+]1CCN(Cc2ccc(F)c(OC)c2)CC1 (3D coordinates assigned)
C=c1c(=Cc2[n-]c(=O)[n-]c2[O-])cc(C)n1C(=O)[NH+]1CCN(Cc2ccc(F)c(OC)c2)CC1 (nonaromatic ring conformer: 152.82848103957093 kcal/mol)

> <smiles>
C=c1c(=Cc2[nH]c(=O)[nH]c2O)cc(C)n1C(=O)N1CCN(Cc2ccc(F)c(OC)c2)CC1

> <score_type>
oracle

> <origin>
adg

> <m_score__min__energy>
-16.559999999999999

> <m_primary>
energy

> <minimizedAffinity>
-8.55605

> <minimizedRMSD>
0.86582

> <CNNscore>
0.1119987145

> <CNNaffinity>
6.2367997169

> <CNN_VS>
0.6985135674

> <CNNaffinity_variance>
0.1162410155

$$$$
27:0


 33 36  0  0  0  0  0  0  0  0999 V2000
   60.9509   28.6189   44.9356 C   0  0  0  0  0  0  0  0  0  0  0  0
   60.1153   28.6924   45.9850 C   0  0  0  0  0  0  0  0  0  0  0  0
   59.1464   27.7473   46.3573 C   0  0  0  0  0  0  0  0  0  0  0  0
   58.6625   26.6709   45.7064 C   0  0  0  0  0  0  0  0  0  0  0  0
   58.6794   28.1390   47.5991 C   0  0  0  0  0  0  0  0  0  0  0  0
   59.3149   29.3227   47.9132 C   0  0  0  0  0  0  0  0  0  0  0  0
   60.1869   29.6655   46.9333 N   0  0  0  0  0  0  0  0  0  0  0  0
   57.7753   25.6478   46.2827 C   0  0  0  0  0  0  0  0  0  0  0  0
   58.1870   24.4383   46.7093 N   0  0  0  0  0  0  0  0  0  0  0  0
   57.0337   23.8045   47.0123 C   0  0  0  0  0  0  0  0  0  0  0  0
   57.0045   22.6321   47.4670 O   0  0  0  0  0  0  0  0  0  0  0  0
   55.9144   24.5238   46.7808 N   0  0  0  0  0  0  0  0  0  0  0  0
   56.4005   25.6829   46.3064 C   0  0  0  0  0  0  0  0  0  0  0  0
   55.5933   26.7447   45.9065 O   0  0  0  0  0  0  0  0  0  0  0  0
   54.6608   26.6709   45.9614 H   0  0  0  0  0  0  0  0  0  0  0  0
   59.0214   30.1358   49.1121 C   0  0  0  0  0  0  0  0  0  0  0  0
   58.5849   29.5682   50.1481 O   0  0  0  0  0  0  0  0  0  0  0  0
   59.2090   31.5549   49.1315 N   0  0  0  0  0  0  0  0  0  0  0  0
   58.1731   32.5332   48.8242 C   0  0  0  0  0  0  0  0  0  0  0  0
   58.4544   33.1495   47.4842 C   0  0  0  0  0  0  0  0  0  0  0  0
   58.0244   32.5127   46.3087 C   0  0  0  0  0  0  0  0  0  0  0  0
   58.3179   33.0700   45.0595 C   0  0  0  0  0  0  0  0  0  0  0  0
   59.0498   34.2577   44.9761 C   0  0  0  0  0  0  0  0  0  0  0  0
   59.4943   34.8879   46.1423 C   0  0  0  0  0  0  0  0  0  0  0  0
   59.2034   34.3332   47.3934 C   0  0  0  0  0  0  0  0  0  0  0  0
   61.0629   30.8471   46.9349 C   0  0  0  0  0  0  0  0  0  0  0  0
   62.2305   30.6421   47.9092 C   0  0  0  0  0  0  0  0  0  0  0  0
   63.0186   31.8827   48.0783 N   0  0  0  0  0  0  0  0  0  0  0  0
   63.3319   32.1343   49.5062 C   0  0  0  0  0  0  0  0  0  0  0  0
   62.3769   33.1705   50.1274 C   0  0  0  0  0  0  0  0  0  0  0  0
   62.4050   34.4358   49.4801 O   0  0  0  0  0  0  0  0  0  0  0  0
   62.7621   34.3647   48.1065 C   0  0  0  0  0  0  0  0  0  0  0  0
   62.3552   33.0425   47.4343 C   0  0  0  0  0  0  0  0  0  0  0  0
  1  2  2  0
  2  3  1  0
  3  4  2  0
  4  8  1  0
  8  9  1  0
  9 10  1  0
 10 11  2  0
 10 12  1  0
 12 13  1  0
 13 14  1  0
  3  5  1  0
  5  6  2  0
  6 16  1  0
 16 17  2  0
 16 18  1  0
 18 19  1  0
 19 20  1  0
 20 21  2  0
 21 22  1  0
 22 23  2  0
 23 24  1  0
 24 25  2  0
  6  7  1  0
  7 26  1  0
 26 27  1  0
 27 28  1  0
 28 29  1  0
 29 30  1  0
 30 31  1  0
 31 32  1  0
 32 33  1  0
  7  2  1  0
 33 28  1  0
 13  8  2  0
 25 20  1  0
 14 15  1  0
M  CHG 1   9  -1
M  CHG 1  12  -1
M  CHG 1  18  -1
M  END
> <UniqueID>
27

> <SMILES>
C=c1c(=Cc2[n-]c(=O)[n-]c2O)cc(C(=O)[N-]Cc2ccccc2)n1CCN1CCOCC1

> <Energy>
143.44854347569378

> <Genealogy>
C=c1c(=Cc2[n-]c(=O)[n-]c2O)cc(C(=O)[N-]Cc2ccccc2)n1CCN1CCOCC1 (protonated)
C=c1c(=Cc2[n-]c(=O)[n-]c2O)cc(C(=O)[N-]Cc2ccccc2)n1CCN1CCOCC1 (3D coordinates assigned)
C=c1c(=Cc2[n-]c(=O)[n-]c2O)cc(C(=O)[N-]Cc2ccccc2)n1CCN1CCOCC1 (nonaromatic ring conformer: 143.44854347569378 kcal/mol)

> <smiles>
C=c1c(=Cc2[nH]c(=O)[nH]c2O)cc(C(=O)NCc2ccccc2)n1CCN1CCOCC1

> <score_type>
oracle

> <origin>
adg

> <m_score__min__energy>
-14.220000000000001

> <m_primary>
energy

> <minimizedAffinity>
-7.09302

> <minimizedRMSD>
0.55104

> <CNNscore>
0.3778763413

> <CNNaffinity>
6.9432482719

> <CNN_VS>
2.6236891747

> <CNNaffinity_variance>
0.0686510950

$$$$
30:0


 31 34  0  0  0  0  0  0  0  0999 V2000
   54.4041   29.5381   55.5535 C   0  0  0  0  0  0  0  0  0  0  0  0
   54.9546   29.7196   54.3436 C   0  0  0  0  0  0  0  0  0  0  0  0
   54.2822   30.0902   53.1683 C   0  0  0  0  0  0  0  0  0  0  0  0
   52.9653   30.1629   52.8838 C   0  0  0  0  0  0  0  0  0  0  0  0
   55.2598   30.4255   52.2514 C   0  0  0  0  0  0  0  0  0  0  0  0
   56.4769   30.1772   52.8511 C   0  0  0  0  0  0  0  0  0  0  0  0
   56.2990   29.7420   54.1240 N   0  0  0  0  0  0  0  0  0  0  0  0
   52.3732   30.5206   51.5855 C   0  0  0  0  0  0  0  0  0  0  0  0
   52.3481   29.6849   50.5333 N   0  0  0  0  0  0  0  0  0  0  0  0
   51.5744   30.3346   49.6340 C   0  0  0  0  0  0  0  0  0  0  0  0
   51.3185   29.8659   48.4946 O   0  0  0  0  0  0  0  0  0  0  0  0
   51.0759   31.5160   50.0627 N   0  0  0  0  0  0  0  0  0  0  0  0
   51.5770   31.6115   51.3048 C   0  0  0  0  0  0  0  0  0  0  0  0
   51.2845   32.6561   52.1741 O   0  0  0  0  0  0  0  0  0  0  0  0
   57.7823   30.5094   52.2449 C   0  0  0  0  0  0  0  0  0  0  0  0
   58.1183   29.9025   51.1933 O   0  0  0  0  0  0  0  0  0  0  0  0
   58.6611   31.4935   52.8537 N   0  0  0  0  0  0  0  0  0  0  0  0
   60.0681   31.0366   52.8935 C   0  0  0  0  0  0  0  0  0  0  0  0
   60.7496   31.1523   51.5278 C   0  0  0  0  0  0  0  0  0  0  0  0
   60.7157   32.5458   51.0842 N   0  0  0  0  0  0  0  0  0  0  0  0
   59.3263   32.9803   50.9148 C   0  0  0  0  0  0  0  0  0  0  0  0
   58.5404   32.8385   52.2345 C   0  0  0  0  0  0  0  0  0  0  0  0
   58.6151   31.7722   53.7968 H   0  0  0  0  0  0  0  0  0  0  0  0
   61.2074   32.6299   50.1945 H   0  0  0  0  0  0  0  0  0  0  0  0
   57.3659   29.2830   55.0289 C   0  0  0  0  0  0  0  0  0  0  0  0
   57.7889   27.8801   54.6708 C   0  0  0  0  0  0  0  0  0  0  0  0
   56.8691   26.8137   54.7075 C   0  0  0  0  0  0  0  0  0  0  0  0
   57.2694   25.5217   54.3439 C   0  0  0  0  0  0  0  0  0  0  0  0
   58.5870   25.2850   53.9386 C   0  0  0  0  0  0  0  0  0  0  0  0
   59.5099   26.3364   53.9067 C   0  0  0  0  0  0  0  0  0  0  0  0
   59.1124   27.6276   54.2642 C   0  0  0  0  0  0  0  0  0  0  0  0
  1  2  2  0
  2  3  1  0
  3  4  2  0
  4  8  1  0
  8  9  1  0
  9 10  1  0
 10 11  2  0
 10 12  1  0
 12 13  1  0
 13 14  1  0
  3  5  1  0
  5  6  2  0
  6 15  1  0
 15 16  2  0
 15 17  1  0
 17 18  1  0
 18 19  1  0
 19 20  1  0
 20 21  1  0
 21 22  1  0
  6  7  1  0
  7 25  1  0
 25 26  1  0
 26 27  2  0
 27 28  1  0
 28 29  2  0
 29 30  1  0
 30 31  2  0
  7  2  1  0
 31 26  1  0
 13  8  2  0
 22 17  1  0
 17 23  1  0
 20 24  1  0
M  CHG 1   9  -1
M  CHG 1  12  -1
M  CHG 1  14  -1
M  CHG 1  17   1
M  END
> <UniqueID>
30

> <SMILES>
C=c1/c(=C\c2[n-]c(=O)[n-]c2[O-])cc(C(=O)[NH+]2CCNCC2)n1Cc1ccccc1

> <Energy>
134.98627012862974

> <Genealogy>
C=c1c(=Cc2[n-]c(=O)[n-]c2[O-])cc(C(=O)[NH+]2CCNCC2)n1Cc1ccccc1 (protonated)
C=c1/c(=C\c2[n-]c(=O)[n-]c2[O-])cc(C(=O)[NH+]2CCNCC2)n1Cc1ccccc1 (cis-trans isomerization)
C=c1/c(=C\c2[n-]c(=O)[n-]c2[O-])cc(C(=O)[NH+]2CCNCC2)n1Cc1ccccc1 (3D coordinates assigned)
C=c1/c(=C\c2[n-]c(=O)[n-]c2[O-])cc(C(=O)[NH+]2CCNCC2)n1Cc1ccccc1 (nonaromatic ring conformer: 134.98627012862974 kcal/mol)

> <smiles>
C=c1c(=Cc2[nH]c(=O)[nH]c2O)cc(C(=O)N2CCNCC2)n1Cc1ccccc1

> <score_type>
oracle

> <origin>
adg

> <m_score__min__energy>
-15.17

> <m_primary>
energy

> <minimizedAffinity>
-5.10234

> <minimizedRMSD>
0.67367

> <CNNscore>
0.1402005851

> <CNNaffinity>
4.3115677834

> <CNN_VS>
0.6044843197

> <CNNaffinity_variance>
0.9769809842

$$$$
51:0


 25 27  0  0  0  0  0  0  0  0999 V2000
   58.0295   32.9934   45.7304 C   0  0  0  0  0  0  0  0  0  0  0  0
   57.1354   33.8783   45.8417 O   0  0  0  0  0  0  0  0  0  0  0  0
   59.1977   33.0505   46.5842 N   0  0  0  0  0  0  0  0  0  0  0  0
   60.2336   32.0035   46.5417 C   0  0  0  0  0  0  0  0  0  0  0  0
   60.8042   31.7484   47.9388 C   0  0  0  0  0  0  0  0  0  0  0  0
   61.1420   33.0192   48.5888 N   0  0  0  0  0  0  0  0  0  0  0  0
   60.0983   34.0456   48.6505 C   0  0  0  0  0  0  0  0  0  0  0  0
   59.5502   34.3144   47.2497 C   0  0  0  0  0  0  0  0  0  0  0  0
   62.3095   33.1278   49.4242 C   0  0  0  0  0  0  0  0  0  0  0  0
   63.5559   32.6828   48.9538 C   0  0  0  0  0  0  0  0  0  0  0  0
   64.6935   32.7855   49.7618 C   0  0  0  0  0  0  0  0  0  0  0  0
   64.5947   33.3328   51.0433 C   0  0  0  0  0  0  0  0  0  0  0  0
   63.3582   33.7773   51.5198 C   0  0  0  0  0  0  0  0  0  0  0  0
   62.2195   33.6747   50.7168 C   0  0  0  0  0  0  0  0  0  0  0  0
   57.8487   31.8948   44.7103 C   0  0  0  0  0  0  0  0  0  0  0  0
   57.3915   30.6492   45.3240 N   0  0  0  0  0  0  0  0  0  0  0  0
   57.0263   28.9779   43.7538 O   0  0  0  0  0  0  0  0  0  0  0  0
   57.6206   29.3291   44.8076 C   0  0  0  0  0  0  0  0  0  0  0  0
   58.5127   28.3669   45.4848 C   0  0  0  0  0  0  0  0  0  0  0  0
   59.8975   28.5997   45.5306 C   0  0  0  0  0  0  0  0  0  0  0  0
   60.7452   27.6882   46.1655 C   0  0  0  0  0  0  0  0  0  0  0  0
   60.2201   26.5295   46.7440 C   0  0  0  0  0  0  0  0  0  0  0  0
   58.8469   26.2781   46.6848 C   0  0  0  0  0  0  0  0  0  0  0  0
   57.9911   27.1898   46.0557 C   0  0  0  0  0  0  0  0  0  0  0  0
   56.6271   26.9241   46.0099 O   0  0  0  0  0  0  0  0  0  0  0  0
 17 18  2  0
 18 16  1  0
 16 15  1  0
 15  1  1  0
  1  2  2  0
  1  3  1  0
  3  4  1  0
  4  5  1  0
  5  6  1  0
  6  9  1  0
  9 10  2  0
 10 11  1  0
 11 12  2  0
 12 13  1  0
 13 14  2  0
  6  7  1  0
  7  8  1  0
 18 19  1  0
 19 20  2  0
 20 21  1  0
 21 22  2  0
 22 23  1  0
 23 24  2  0
 24 25  1  0
  8  3  1  0
 24 19  1  0
 14  9  1  0
M  CHG 1  16  -1
M  CHG 1  25  -1
M  END
> <UniqueID>
51

> <SMILES>
O=C([N-]CC(=O)N1CCN(c2ccccc2)CC1)c1ccccc1[O-]

> <Energy>
55.74433365452392

> <Genealogy>
O=C([N-]CC(=O)N1CCN(c2ccccc2)CC1)c1ccccc1[O-] (protonated)
O=C([N-]CC(=O)N1CCN(c2ccccc2)CC1)c1ccccc1[O-] (3D coordinates assigned)
O=C([N-]CC(=O)N1CCN(c2ccccc2)CC1)c1ccccc1[O-] (nonaromatic ring conformer: 55.74433365452392 kcal/mol)

> <smiles>
O=C(NCC(=O)N1CCN(c2ccccc2)CC1)c1ccccc1O

> <score_type>
oracle

> <origin>
adg

> <m_score__min__energy>
-14.23

> <m_primary>
energy

> <minimizedAffinity>
-7.41117

> <minimizedRMSD>
1.15785

> <CNNscore>
0.3967570662

> <CNNaffinity>
5.9575457573

> <CNN_VS>
2.3636984825

> <CNNaffinity_variance>
0.0304015651

$$$$
57:0


 29 31  0  0  0  0  0  0  0  0999 V2000
   55.5060   31.2251   52.4304 C   0  0  0  0  0  0  0  0  0  0  0  0
   55.2815   30.0278   52.9935 C   0  0  0  0  0  0  0  0  0  0  0  0
   54.0421   29.5367   53.4144 C   0  0  0  0  0  0  0  0  0  0  0  0
   52.8344   30.1074   53.2388 C   0  0  0  0  0  0  0  0  0  0  0  0
   54.2922   28.3118   54.0171 C   0  0  0  0  0  0  0  0  0  0  0  0
   55.6550   28.1057   53.9437 C   0  0  0  0  0  0  0  0  0  0  0  0
   56.3605   26.8954   54.4775 C   0  0  0  0  0  0  0  0  0  0  0  0
   56.2575   29.1386   53.3106 N   0  0  0  0  0  0  0  0  0  0  0  0
   57.6681   29.2295   53.0274 C   0  0  0  0  0  0  0  0  0  0  0  0
   58.0515   29.2523   51.8263 O   0  0  0  0  0  0  0  0  0  0  0  0
   58.6229   29.4453   54.0990 N   0  0  0  0  0  0  0  0  0  0  0  0
   59.9844   29.7256   53.5579 C   0  0  0  0  0  0  0  0  0  0  0  0
   60.8006   30.6533   54.4647 C   0  0  0  0  0  0  0  0  0  0  0  0
   60.0735   31.9120   54.6586 N   0  0  0  0  0  0  0  0  0  0  0  0
   60.7644   33.1763   54.6591 C   0  0  0  0  0  0  0  0  0  0  0  0
   60.1993   34.1898   54.1657 O   0  0  0  0  0  0  0  0  0  0  0  0
   62.0893   33.3036   55.2092 N   0  0  0  0  0  0  0  0  0  0  0  0
   62.5134   32.4995   56.3572 C   0  0  0  0  0  0  0  0  0  0  0  0
   63.0244   34.2577   54.6133 C   0  0  0  0  0  0  0  0  0  0  0  0
   58.6083   31.8900   54.7063 C   0  0  0  0  0  0  0  0  0  0  0  0
   58.1068   30.4779   55.0379 C   0  0  0  0  0  0  0  0  0  0  0  0
   58.1946   28.6066   54.3860 H   0  0  0  0  0  0  0  0  0  0  0  0
   52.2275   30.3661   51.9203 C   0  0  0  0  0  0  0  0  0  0  0  0
   52.3588   29.5340   50.8724 N   0  0  0  0  0  0  0  0  0  0  0  0
   51.7338   30.1882   49.8701 C   0  0  0  0  0  0  0  0  0  0  0  0
   51.6319   29.7140   48.7096 O   0  0  0  0  0  0  0  0  0  0  0  0
   51.2340   31.3964   50.2080 N   0  0  0  0  0  0  0  0  0  0  0  0
   51.5664   31.5005   51.5047 C   0  0  0  0  0  0  0  0  0  0  0  0
   51.3113   32.6295   52.2736 O   0  0  0  0  0  0  0  0  0  0  0  0
  1  2  2  0
  2  3  1  0
  3  4  2  0
  4 23  1  0
 23 24  1  0
 24 25  1  0
 25 26  2  0
 25 27  1  0
 27 28  1  0
 28 29  1  0
  3  5  1  0
  5  6  2  0
  6  7  1  0
  6  8  1  0
  8  9  1  0
  9 10  2  0
  9 11  1  0
 11 12  1  0
 12 13  1  0
 13 14  1  0
 14 15  1  0
 15 16  2  0
 15 17  1  0
 17 18  1  0
 17 19  1  0
 14 20  1  0
 20 21  1  0
  8  2  1  0
 21 11  1  0
 28 23  2  0
 11 22  1  0
M  CHG 1  11   1
M  CHG 1  24  -1
M  CHG 1  27  -1
M  CHG 1  29  -1
M  END
> <UniqueID>
57

> <SMILES>
C=c1/c(=C/c2[n-]c(=O)[n-]c2[O-])cc(C)n1C(=O)[NH+]1CCN(C(=O)N(C)C)CC1

> <Energy>
131.2816814714933

> <Genealogy>
C=c1c(=Cc2[n-]c(=O)[n-]c2[O-])cc(C)n1C(=O)[NH+]1CCN(C(=O)N(C)C)CC1 (protonated)
C=c1/c(=C/c2[n-]c(=O)[n-]c2[O-])cc(C)n1C(=O)[NH+]1CCN(C(=O)N(C)C)CC1 (cis-trans isomerization)
C=c1/c(=C/c2[n-]c(=O)[n-]c2[O-])cc(C)n1C(=O)[NH+]1CCN(C(=O)N(C)C)CC1 (3D coordinates assigned)
C=c1/c(=C/c2[n-]c(=O)[n-]c2[O-])cc(C)n1C(=O)[NH+]1CCN(C(=O)N(C)C)CC1 (nonaromatic ring conformer: 131.2816814714933 kcal/mol)

> <smiles>
C=c1c(=Cc2[nH]c(=O)[nH]c2O)cc(C)n1C(=O)N1CCN(C(=O)N(C)C)CC1

> <score_type>
oracle

> <origin>
adg

> <m_score__min__energy>
-15.119999999999999

> <m_primary>
energy

> <minimizedAffinity>
-4.07612

> <minimizedRMSD>
0.67103

> <CNNscore>
0.1154803187

> <CNNaffinity>
4.6789321899

> <CNN_VS>
0.5403245687

> <CNNaffinity_variance>
0.1412568390

$$$$
72:0


 29 32  0  0  0  0  0  0  0  0999 V2000
   59.8418   30.3927   52.9191 C   0  0  0  0  0  0  0  0  0  0  0  0
   57.3593   32.0869   52.7787 C   0  0  0  0  0  0  0  0  0  0  0  0
   57.3488   30.8159   53.2096 C   0  0  0  0  0  0  0  0  0  0  0  0
   56.2244   30.0431   53.5403 C   0  0  0  0  0  0  0  0  0  0  0  0
   54.9330   30.3846   53.7134 C   0  0  0  0  0  0  0  0  0  0  0  0
   56.6829   28.7458   53.6982 C   0  0  0  0  0  0  0  0  0  0  0  0
   58.0489   28.7773   53.5295 C   0  0  0  0  0  0  0  0  0  0  0  0
   58.4562   30.0301   53.2459 N   0  0  0  0  0  0  0  0  0  0  0  0
   53.8248   30.0398   52.8080 C   0  0  0  0  0  0  0  0  0  0  0  0
   53.7860   30.3356   51.4951 N   0  0  0  0  0  0  0  0  0  0  0  0
   52.5427   29.9571   51.1278 C   0  0  0  0  0  0  0  0  0  0  0  0
   52.1237   30.0638   49.9458 O   0  0  0  0  0  0  0  0  0  0  0  0
   51.7794   29.4686   52.1292 N   0  0  0  0  0  0  0  0  0  0  0  0
   52.6027   29.5424   53.1872 C   0  0  0  0  0  0  0  0  0  0  0  0
   52.2414   29.1655   54.4746 O   0  0  0  0  0  0  0  0  0  0  0  0
   60.0579   30.3697   51.4273 C   0  0  0  0  0  0  0  0  0  0  0  0
   60.0058   29.1551   50.7277 C   0  0  0  0  0  0  0  0  0  0  0  0
   60.1941   29.1282   49.3427 C   0  0  0  0  0  0  0  0  0  0  0  0
   60.4243   30.3162   48.6352 C   0  0  0  0  0  0  0  0  0  0  0  0
   60.5165   31.5278   49.3402 C   0  0  0  0  0  0  0  0  0  0  0  0
   60.3282   31.5547   50.7253 C   0  0  0  0  0  0  0  0  0  0  0  0
   60.6481   30.2528   47.1755 C   0  0  0  0  0  0  0  0  0  0  0  0
   59.6682   30.3042   46.2605 C   0  0  0  0  0  0  0  0  0  0  0  0
   58.3279   31.5096   46.2554 S   0  0  0  0  0  0  0  0  0  0  0  0
   57.6082   30.5959   44.8882 C   0  0  0  0  0  0  0  0  0  0  0  0
   56.5244   30.9431   44.3519 O   0  0  0  0  0  0  0  0  0  0  0  0
   58.3257   29.4557   44.4362 N   0  0  0  0  0  0  0  0  0  0  0  0
   59.4935   29.2921   45.2193 C   0  0  0  0  0  0  0  0  0  0  0  0
   60.2985   28.3448   45.0200 O   0  0  0  0  0  0  0  0  0  0  0  0
  2  3  2  0
  3  4  1  0
  4  5  2  0
  5  9  1  0
  9 10  1  0
 10 11  1  0
 11 12  2  0
 11 13  1  0
 13 14  1  0
 14 15  1  0
  4  6  1  0
  6  7  2  0
  7  8  1  0
  8  1  1  0
  1 16  1  0
 16 17  2  0
 17 18  1  0
 18 19  2  0
 19 22  1  0
 22 23  2  0
 23 24  1  0
 24 25  1  0
 25 26  2  0
 25 27  1  0
 27 28  1  0
 28 29  2  0
 19 20  1  0
 20 21  2  0
  8  3  1  0
 21 16  1  0
 14  9  2  0
 28 23  1  0
M  CHG 1  10  -1
M  CHG 1  13  -1
M  CHG 1  15  -1
M  CHG 1  27  -1
M  END
> <UniqueID>
70

> <SMILES>
C=c1c(=Cc2[n-]c(=O)[n-]c2[O-])ccn1Cc1ccc(C=C2SC(=O)[N-]C2=O)cc1

> <Energy>
137.4540461995693

> <Genealogy>
C=c1c(=Cc2[n-]c(=O)[n-]c2[O-])ccn1Cc1ccc(C=C2SC(=O)[N-]C2=O)cc1 (protonated)
C=c1c(=Cc2[n-]c(=O)[n-]c2[O-])ccn1Cc1ccc(C=C2SC(=O)[N-]C2=O)cc1 (3D coordinates assigned)
C=c1c(=Cc2[n-]c(=O)[n-]c2[O-])ccn1Cc1ccc(C=C2SC(=O)[N-]C2=O)cc1 (nonaromatic ring conformer: 137.4540461995693 kcal/mol)

> <smiles>
C=c1c(=Cc2[nH]c(=O)[nH]c2O)ccn1Cc1ccc(C=C2SC(=O)NC2=O)cc1

> <score_type>
oracle

> <origin>
adg

> <m_score__min__energy>
-18.379999999999999

> <m_primary>
energy

> <minimizedAffinity>
-7.11158

> <minimizedRMSD>
2.72289

> <CNNscore>
0.1652630717

> <CNNaffinity>
5.8777956963

> <CNN_VS>
0.9713825583

> <CNNaffinity_variance>
0.0995612144

$$$$
85:0


 32 34  0  0  0  0  0  0  0  0999 V2000
   59.0734   27.3246   46.7827 C   0  0  0  0  0  0  0  0  0  0  0  0
   59.5544   28.0621   47.8016 C   0  0  0  0  0  0  0  0  0  0  0  0
   59.3447   29.4254   47.9028 C   0  0  0  0  0  0  0  0  0  0  0  0
   60.0385   29.8538   49.0153 C   0  0  0  0  0  0  0  0  0  0  0  0
   60.6508   28.8134   49.6247 N   0  0  0  0  0  0  0  0  0  0  0  0
   61.3371   28.8583   50.9216 C   0  0  0  0  0  0  0  0  0  0  0  0
   60.3185   27.6984   48.9231 C   0  0  0  0  0  0  0  0  0  0  0  0
   60.5521   26.4533   49.3696 C   0  0  0  0  0  0  0  0  0  0  0  0
   56.2314   27.2836   45.6801 O   0  0  0  0  0  0  0  0  0  0  0  0
   56.8335   26.2230   46.3478 C   0  0  0  0  0  0  0  0  0  0  0  0
   56.2524   25.0258   46.5356 N   0  0  0  0  0  0  0  0  0  0  0  0
   57.2085   24.3327   47.1893 C   0  0  0  0  0  0  0  0  0  0  0  0
   57.0528   23.1373   47.5498 O   0  0  0  0  0  0  0  0  0  0  0  0
   58.3495   25.0192   47.4172 N   0  0  0  0  0  0  0  0  0  0  0  0
   58.0895   26.2340   46.9007 C   0  0  0  0  0  0  0  0  0  0  0  0
   55.3665   27.1879   45.3326 H   0  0  0  0  0  0  0  0  0  0  0  0
   60.0267   31.2400   49.5204 C   0  0  0  0  0  0  0  0  0  0  0  0
   59.4833   31.4658   50.6348 O   0  0  0  0  0  0  0  0  0  0  0  0
   60.5925   32.3237   48.7503 N   0  0  0  0  0  0  0  0  0  0  0  0
   60.5762   33.7029   49.2648 C   0  0  0  0  0  0  0  0  0  0  0  0
   59.7188   34.6174   48.3633 C   0  0  0  0  0  0  0  0  0  0  0  0
   59.6252   34.1182   46.9039 C   0  0  0  0  0  0  0  0  0  0  0  0
   60.9137   33.3665   46.5139 C   0  0  0  0  0  0  0  0  0  0  0  0
   61.0766   32.1028   47.3754 C   0  0  0  0  0  0  0  0  0  0  0  0
   58.4575   33.2427   46.7716 N   0  0  0  0  0  0  0  0  0  0  0  0
   57.5755   33.2281   45.6474 C   0  0  0  0  0  0  0  0  0  0  0  0
   57.3484   34.2889   45.0072 O   0  0  0  0  0  0  0  0  0  0  0  0
   56.9830   32.0134   45.2747 O   0  0  0  0  0  0  0  0  0  0  0  0
   57.4562   31.1154   44.2598 C   0  0  0  0  0  0  0  0  0  0  0  0
   57.8608   31.9661   43.0476 C   0  0  0  0  0  0  0  0  0  0  0  0
   58.6905   30.3338   44.7533 C   0  0  0  0  0  0  0  0  0  0  0  0
   56.3350   30.1473   43.8352 C   0  0  0  0  0  0  0  0  0  0  0  0
  9 10  1  0
 10 11  1  0
 11 12  1  0
 12 13  2  0
 12 14  1  0
 14 15  1  0
 15  1  1  0
  1  2  2  0
  2  3  1  0
  3  4  2  0
  4 17  1  0
 17 18  2  0
 17 19  1  0
 19 20  1  0
 20 21  1  0
 21 22  1  0
 22 25  1  0
 25 26  1  0
 26 27  2  0
 26 28  1  0
 28 29  1  0
 29 30  1  0
 29 31  1  0
 29 32  1  0
 22 23  1  0
 23 24  1  0
  4  5  1  0
  5  6  1  0
  5  7  1  0
  7  8  2  0
 15 10  2  0
  7  2  1  0
 24 19  1  0
  9 16  1  0
M  CHG 1  11  -1
M  CHG 1  14  -1
M  CHG 1  25  -1
M  END
> <UniqueID>
82

> <SMILES>
C=c1/c(=C\c2[n-]c(=O)[n-]c2O)cc(C(=O)N2CCC([N-]C(=O)OC(C)(C)C)CC2)n1C

> <Energy>
127.42769886539742

> <Genealogy>
C=c1c(=Cc2[n-]c(=O)[n-]c2O)cc(C(=O)N2CCC([N-]C(=O)OC(C)(C)C)CC2)n1C (protonated)
C=c1/c(=C\c2[n-]c(=O)[n-]c2O)cc(C(=O)N2CCC([N-]C(=O)OC(C)(C)C)CC2)n1C (cis-trans isomerization)
C=c1/c(=C\c2[n-]c(=O)[n-]c2O)cc(C(=O)N2CCC([N-]C(=O)OC(C)(C)C)CC2)n1C (3D coordinates assigned)
C=c1/c(=C\c2[n-]c(=O)[n-]c2O)cc(C(=O)N2CCC([N-]C(=O)OC(C)(C)C)CC2)n1C (nonaromatic ring conformer: 127.42769886539742 kcal/mol)

> <smiles>
C=c1c(=Cc2[nH]c(=O)[nH]c2O)cc(C(=O)N2CCC(NC(=O)OC(C)(C)C)CC2)n1C

> <score_type>
oracle

> <origin>
adg

> <m_score__min__energy>
-14.460000000000001

> <m_primary>
energy

> <minimizedAffinity>
-7.96078

> <minimizedRMSD>
0.84545

> <CNNscore>
0.3287488222

> <CNNaffinity>
6.3809809685

> <CNN_VS>
2.0977399349

> <CNNaffinity_variance>
0.2270608693

$$$$
91:0


 27 29  0  0  0  0  0  0  0  0999 V2000
   56.8563   24.3545   43.5116 C   0  0  0  0  0  0  0  0  0  0  0  0
   57.4408   24.8989   44.5905 C   0  0  0  0  0  0  0  0  0  0  0  0
   57.4758   24.3728   45.8918 C   0  0  0  0  0  0  0  0  0  0  0  0
   56.8201   23.3344   46.4444 C   0  0  0  0  0  0  0  0  0  0  0  0
   58.3634   25.1608   46.6026 C   0  0  0  0  0  0  0  0  0  0  0  0
   58.7973   26.1503   45.7459 C   0  0  0  0  0  0  0  0  0  0  0  0
   58.2242   26.0064   44.5309 N   0  0  0  0  0  0  0  0  0  0  0  0
   58.4968   26.8202   43.3393 C   0  0  0  0  0  0  0  0  0  0  0  0
   59.7272   27.2339   46.1165 C   0  0  0  0  0  0  0  0  0  0  0  0
   60.8616   26.9176   46.5681 O   0  0  0  0  0  0  0  0  0  0  0  0
   59.3475   28.6251   46.0187 N   0  0  0  0  0  0  0  0  0  0  0  0
   60.1483   29.6655   46.6777 C   0  0  0  0  0  0  0  0  0  0  0  0
   59.2136   30.6243   47.4316 C   0  0  0  0  0  0  0  0  0  0  0  0
   58.0925   31.1402   46.6041 N   0  0  0  0  0  0  0  0  0  0  0  0
   57.9967   30.5533   45.2527 C   0  0  0  0  0  0  0  0  0  0  0  0
   58.1256   29.0266   45.3056 C   0  0  0  0  0  0  0  0  0  0  0  0
   58.1285   32.8861   46.4897 S   0  0  0  0  0  0  0  0  0  0  0  0
   57.9315   33.4739   47.8614 O   0  0  0  0  0  0  0  0  0  0  0  0
   57.0098   33.3596   45.5979 O   0  0  0  0  0  0  0  0  0  0  0  0
   59.6761   33.4711   45.8159 C   0  0  0  0  0  0  0  0  0  0  0  0
   55.3668   23.1193   46.3958 C   0  0  0  0  0  0  0  0  0  0  0  0
   54.7721   21.9130   46.4432 N   0  0  0  0  0  0  0  0  0  0  0  0
   53.4703   22.2033   46.2269 C   0  0  0  0  0  0  0  0  0  0  0  0
   52.5727   21.3199   46.2223 O   0  0  0  0  0  0  0  0  0  0  0  0
   53.2047   23.5142   46.0186 N   0  0  0  0  0  0  0  0  0  0  0  0
   54.4186   24.0784   46.1153 C   0  0  0  0  0  0  0  0  0  0  0  0
   54.6548   25.4376   45.9531 O   0  0  0  0  0  0  0  0  0  0  0  0
  1  2  2  0
  2  3  1  0
  3  4  2  0
  4 21  1  0
 21 22  1  0
 22 23  1  0
 23 24  2  0
 23 25  1  0
 25 26  1  0
 26 27  1  0
  3  5  1  0
  5  6  2  0
  6  9  1  0
  9 10  2  0
  9 11  1  0
 11 12  1  0
 12 13  1  0
 13 14  1  0
 14 17  1  0
 17 18  2  0
 17 19  2  0
 17 20  1  0
 14 15  1  0
 15 16  1  0
  6  7  1  0
  7  8  1  0
  7  2  1  0
 26 21  2  0
 16 11  1  0
M  CHG 1  22  -1
M  CHG 1  25  -1
M  CHG 1  27  -1
M  END
> <UniqueID>
88

> <SMILES>
C=c1/c(=C\c2[n-]c(=O)[n-]c2[O-])cc(C(=O)N2CCN(S(C)(=O)=O)CC2)n1C

> <Energy>
123.3848982687148

> <Genealogy>
C=c1c(=Cc2[n-]c(=O)[n-]c2[O-])cc(C(=O)N2CCN(S(C)(=O)=O)CC2)n1C (protonated)
C=c1/c(=C\c2[n-]c(=O)[n-]c2[O-])cc(C(=O)N2CCN(S(C)(=O)=O)CC2)n1C (cis-trans isomerization)
C=c1/c(=C\c2[n-]c(=O)[n-]c2[O-])cc(C(=O)N2CCN(S(C)(=O)=O)CC2)n1C (3D coordinates assigned)
C=c1/c(=C\c2[n-]c(=O)[n-]c2[O-])cc(C(=O)N2CCN(S(C)(=O)=O)CC2)n1C (nonaromatic ring conformer: 123.3848982687148 kcal/mol)

> <smiles>
C=c1c(=Cc2[nH]c(=O)[nH]c2O)cc(C(=O)N2CCN(S(C)(=O)=O)CC2)n1C

> <score_type>
oracle

> <origin>
adg

> <m_score__min__energy>
-16.760000000000002

> <m_primary>
energy

> <minimizedAffinity>
-6.34994

> <minimizedRMSD>
0.95427

> <CNNscore>
0.0437870510

> <CNNaffinity>
5.3465895653

> <CNN_VS>
0.2341113836

> <CNNaffinity_variance>
0.0479441881

$$$$
1:0


 27 29  0  0  0  0  0  0  0  0999 V2000
   54.8387   28.0657   53.6694 C   0  0  0  0  0  0  0  0  0  0  0  0
   55.5251   29.0866   53.1296 C   0  0  0  0  0  0  0  0  0  0  0  0
   54.9918   30.1609   52.3987 C   0  0  0  0  0  0  0  0  0  0  0  0
   53.7577   30.3721   51.9000 C   0  0  0  0  0  0  0  0  0  0  0  0
   56.0325   31.0503   52.2035 C   0  0  0  0  0  0  0  0  0  0  0  0
   57.1659   30.4725   52.7392 C   0  0  0  0  0  0  0  0  0  0  0  0
   56.8565   29.2907   53.3283 N   0  0  0  0  0  0  0  0  0  0  0  0
   57.7819   28.4389   54.0893 C   0  0  0  0  0  0  0  0  0  0  0  0
   52.5715   30.7728   52.6744 C   0  0  0  0  0  0  0  0  0  0  0  0
   52.2493   30.2870   53.8876 N   0  0  0  0  0  0  0  0  0  0  0  0
   51.0336   30.8256   54.1248 C   0  0  0  0  0  0  0  0  0  0  0  0
   50.3951   30.6150   55.1886 O   0  0  0  0  0  0  0  0  0  0  0  0
   50.5506   31.5970   53.1272 N   0  0  0  0  0  0  0  0  0  0  0  0
   51.5317   31.5408   52.2126 C   0  0  0  0  0  0  0  0  0  0  0  0
   51.4732   32.1706   50.9751 O   0  0  0  0  0  0  0  0  0  0  0  0
   58.5136   31.0643   52.6242 C   0  0  0  0  0  0  0  0  0  0  0  0
   59.3438   30.9042   53.5602 O   0  0  0  0  0  0  0  0  0  0  0  0
   58.8629   31.8632   51.4890 N   0  0  0  0  0  0  0  0  0  0  0  0
   59.5718   31.3467   50.3252 C   0  0  0  0  0  0  0  0  0  0  0  0
   59.4711   32.3212   49.1829 C   0  0  0  0  0  0  0  0  0  0  0  0
   60.3133   33.4436   49.1460 C   0  0  0  0  0  0  0  0  0  0  0  0
   60.2060   34.3675   48.1047 C   0  0  0  0  0  0  0  0  0  0  0  0
   59.2572   34.1837   47.0961 C   0  0  0  0  0  0  0  0  0  0  0  0
   58.4005   33.0659   47.1239 C   0  0  0  0  0  0  0  0  0  0  0  0
   58.5145   32.1428   48.1712 C   0  0  0  0  0  0  0  0  0  0  0  0
   57.4301   32.8381   46.1378 O   0  0  0  0  0  0  0  0  0  0  0  0
   57.6892   32.2238   44.8785 C   0  0  0  0  0  0  0  0  0  0  0  0
  1  2  2  0
  2  3  1  0
  3  4  2  0
  4  9  1  0
  9 10  1  0
 10 11  1  0
 11 12  2  0
 11 13  1  0
 13 14  1  0
 14 15  1  0
  3  5  1  0
  5  6  2  0
  6 16  1  0
 16 17  2  0
 16 18  1  0
 18 19  1  0
 19 20  1  0
 20 21  2  0
 21 22  1  0
 22 23  2  0
 23 24  1  0
 24 26  1  0
 26 27  1  0
 24 25  2  0
  6  7  1  0
  7  8  1  0
  7  2  1  0
 14  9  2  0
 25 20  1  0
M  CHG 1  10  -1
M  CHG 1  13  -1
M  CHG 1  15  -1
M  CHG 1  18  -1
M  END
> <UniqueID>
2

> <SMILES>
C=c1c(=Cc2[n-]c(=O)[n-]c2[O-])cc(C(=O)[N-]Cc2cccc(OC)c2)n1C

> <Energy>
114.69128717689476

> <Genealogy>
C=c1c(=Cc2[n-]c(=O)[n-]c2[O-])cc(C(=O)[N-]Cc2cccc(OC)c2)n1C (protonated)
C=c1c(=Cc2[n-]c(=O)[n-]c2[O-])cc(C(=O)[N-]Cc2cccc(OC)c2)n1C (3D coordinates assigned)
C=c1c(=Cc2[n-]c(=O)[n-]c2[O-])cc(C(=O)[N-]Cc2cccc(OC)c2)n1C (optimized conformer: 114.69128717689476 kcal/mol)

> <smiles>
C=c1c(=Cc2[nH]c(=O)[nH]c2O)cc(C(=O)NCc2cccc(OC)c2)n1C

> <score_type>
oracle

> <origin>
adg

> <m_score__min__energy>
-17.829999999999998

> <m_primary>
energy

> <minimizedAffinity>
-6.70368

> <minimizedRMSD>
1.18205

> <CNNscore>
0.4479321539

> <CNNaffinity>
5.7500052452

> <CNN_VS>
2.5756123066

> <CNNaffinity_variance>
0.0819397196

$$$$
2:0


 33 36  0  0  0  0  0  0  0  0999 V2000
   57.8418   30.3282   53.0050 C   0  0  0  0  0  0  0  0  0  0  0  0
   58.1128   29.4275   51.9685 C   0  0  0  0  0  0  0  0  0  0  0  0
   58.7551   29.8550   50.8046 C   0  0  0  0  0  0  0  0  0  0  0  0
   59.1478   31.2061   50.6364 C   0  0  0  0  0  0  0  0  0  0  0  0
   58.8697   32.0995   51.6980 C   0  0  0  0  0  0  0  0  0  0  0  0
   58.2229   31.6666   52.8590 C   0  0  0  0  0  0  0  0  0  0  0  0
   59.8161   31.6559   49.4151 N   0  0  0  0  0  0  0  0  0  0  0  0
   59.6550   30.8594   48.1773 C   0  0  0  0  0  0  0  0  0  0  0  0
   60.4129   31.3841   46.9472 C   0  0  0  0  0  0  0  0  0  0  0  0
   60.5834   32.8413   46.9298 N   0  0  0  0  0  0  0  0  0  0  0  0
   61.2828   33.2788   48.1424 C   0  0  0  0  0  0  0  0  0  0  0  0
   60.5133   32.9595   49.4268 C   0  0  0  0  0  0  0  0  0  0  0  0
   61.1716   33.0885   46.1340 H   0  0  0  0  0  0  0  0  0  0  0  0
   59.0781   33.6927   46.6405 S   0  0  0  0  0  0  0  0  0  0  0  0
   57.9391   32.8766   47.1812 O   0  0  0  0  0  0  0  0  0  0  0  0
   59.0701   35.0392   47.3117 O   0  0  0  0  0  0  0  0  0  0  0  0
   58.8207   33.9213   44.8934 C   0  0  0  0  0  0  0  0  0  0  0  0
   57.1523   29.8555   54.2589 C   0  0  0  0  0  0  0  0  0  0  0  0
   54.9441   31.3360   52.8167 C   0  0  0  0  0  0  0  0  0  0  0  0
   54.8043   30.0933   53.2989 C   0  0  0  0  0  0  0  0  0  0  0  0
   53.6417   29.3061   53.3378 C   0  0  0  0  0  0  0  0  0  0  0  0
   52.4367   29.5023   52.7683 C   0  0  0  0  0  0  0  0  0  0  0  0
   53.8848   28.2000   54.0739 N   0  0  0  0  0  0  0  0  0  0  0  0
   55.1799   28.3076   54.4251 C   0  0  0  0  0  0  0  0  0  0  0  0
   55.7690   27.4363   55.1215 O   0  0  0  0  0  0  0  0  0  0  0  0
   55.7771   29.4271   53.9676 N   0  0  0  0  0  0  0  0  0  0  0  0
   51.5071   30.6009   53.0732 C   0  0  0  0  0  0  0  0  0  0  0  0
   50.6148   30.5605   54.0791 N   0  0  0  0  0  0  0  0  0  0  0  0
   49.8950   31.6898   53.9012 C   0  0  0  0  0  0  0  0  0  0  0  0
   48.9539   32.0195   54.6678 O   0  0  0  0  0  0  0  0  0  0  0  0
   50.2510   32.4276   52.8282 N   0  0  0  0  0  0  0  0  0  0  0  0
   51.2637   31.7166   52.3057 C   0  0  0  0  0  0  0  0  0  0  0  0
   51.9261   32.0644   51.1354 O   0  0  0  0  0  0  0  0  0  0  0  0
 19 20  2  0
 20 21  1  0
 21 22  2  0
 22 27  1  0
 27 28  1  0
 28 29  1  0
 29 30  2  0
 29 31  1  0
 31 32  1  0
 32 33  1  0
 21 23  1  0
 23 24  1  0
 24 25  2  0
 24 26  1  0
 26 18  1  0
 18  1  1  0
  1  2  2  0
  2  3  1  0
  3  4  2  0
  4  7  1  0
  7  8  1  0
  8  9  1  0
  9 10  1  0
 10 14  1  0
 14 15  2  0
 14 16  2  0
 14 17  1  0
 10 11  1  0
 11 12  1  0
  4  5  1  0
  5  6  2  0
 26 20  1  0
  6  1  1  0
 32 27  2  0
 12  7  1  0
 10 13  1  0
M  CHG 1  10   1
M  CHG 1  23  -1
M  CHG 1  28  -1
M  CHG 1  31  -1
M  CHG 1  33  -1
M  END
> <UniqueID>
3

> <SMILES>
C=c1/c(=C\c2[n-]c(=O)[n-]c2[O-])[n-]c(=O)n1Cc1ccc(N2CC[NH+](S(C)(=O)=O)CC2)cc1

> <Energy>
135.71554193478804

> <Genealogy>
C=c1c(=Cc2[n-]c(=O)[n-]c2[O-])[n-]c(=O)n1Cc1ccc(N2CC[NH+](S(C)(=O)=O)CC2)cc1 (protonated)
C=c1/c(=C\c2[n-]c(=O)[n-]c2[O-])[n-]c(=O)n1Cc1ccc(N2CC[NH+](S(C)(=O)=O)CC2)cc1 (cis-trans isomerization)
C=c1/c(=C\c2[n-]c(=O)[n-]c2[O-])[n-]c(=O)n1Cc1ccc(N2CC[NH+](S(C)(=O)=O)CC2)cc1 (3D coordinates assigned)
C=c1/c(=C\c2[n-]c(=O)[n-]c2[O-])[n-]c(=O)n1Cc1ccc(N2CC[NH+](S(C)(=O)=O)CC2)cc1 (nonaromatic ring conformer: 135.71554193478804 kcal/mol)

> <smiles>
C=c1c(=Cc2[nH]c(=O)[nH]c2O)[nH]c(=O)n1Cc1ccc(N2CCN(S(C)(=O)=O)CC2)cc1

> <score_type>
oracle

> <origin>
adg

> <m_score__min__energy>
-17.34

> <m_primary>
energy

> <minimizedAffinity>
-6.54486

> <minimizedRMSD>
0.95197

> <CNNscore>
0.0692732632

> <CNNaffinity>
5.5577239990

> <CNN_VS>
0.3850016892

> <CNNaffinity_variance>
0.0908337757

$$$$
5:0


 27 29  0  0  0  0  0  0  0  0999 V2000
   58.8629   32.2691   46.0330 C   0  0  0  0  0  0  0  0  0  0  0  0
   58.5948   33.0807   44.9214 C   0  0  0  0  0  0  0  0  0  0  0  0
   57.8792   32.5691   43.8372 C   0  0  0  0  0  0  0  0  0  0  0  0
   57.4164   31.2506   43.8600 C   0  0  0  0  0  0  0  0  0  0  0  0
   57.6557   30.4355   44.9727 C   0  0  0  0  0  0  0  0  0  0  0  0
   58.4088   30.9433   46.0480 C   0  0  0  0  0  0  0  0  0  0  0  0
   59.7511   32.9176   47.4139 S   0  0  0  0  0  0  0  0  0  0  0  0
   59.0788   32.4833   48.6861 O   0  0  0  0  0  0  0  0  0  0  0  0
   59.7210   34.4210   47.3625 O   0  0  0  0  0  0  0  0  0  0  0  0
   64.0974   33.2717   50.5319 C   0  0  0  0  0  0  0  0  0  0  0  0
   63.6881   32.3311   49.3917 C   0  0  0  0  0  0  0  0  0  0  0  0
   62.3028   31.7093   49.6817 C   0  0  0  0  0  0  0  0  0  0  0  0
   61.6165   31.2573   48.3835 C   0  0  0  0  0  0  0  0  0  0  0  0
   61.4116   32.3686   47.4204 N   0  0  0  0  0  0  0  0  0  0  0  0
   62.3300   33.5143   47.5943 C   0  0  0  0  0  0  0  0  0  0  0  0
   63.7271   33.0538   48.0217 C   0  0  0  0  0  0  0  0  0  0  0  0
   57.1591   29.0901   44.9622 N   0  0  0  0  0  0  0  0  0  0  0  0
   57.9433   27.8980   45.0921 C   0  0  0  0  0  0  0  0  0  0  0  0
   58.6977   27.5170   44.1571 O   0  0  0  0  0  0  0  0  0  0  0  0
   57.9522   27.1631   46.3928 C   0  0  0  0  0  0  0  0  0  0  0  0
   57.6496   25.7143   46.1625 C   0  0  0  0  0  0  0  0  0  0  0  0
   58.5855   24.7693   45.9707 N   0  0  0  0  0  0  0  0  0  0  0  0
   57.8580   23.6543   45.7432 C   0  0  0  0  0  0  0  0  0  0  0  0
   58.3856   22.5338   45.5216 O   0  0  0  0  0  0  0  0  0  0  0  0
   56.5201   23.8339   45.7676 N   0  0  0  0  0  0  0  0  0  0  0  0
   56.4072   25.1465   46.0286 C   0  0  0  0  0  0  0  0  0  0  0  0
   55.1919   25.8120   46.1354 O   0  0  0  0  0  0  0  0  0  0  0  0
 10 11  1  0
 11 12  1  0
 12 13  1  0
 13 14  1  0
 14  7  1  0
  7  8  2  0
  7  9  2  0
  7  1  1  0
  1  2  2  0
  2  3  1  0
  3  4  2  0
  4  5  1  0
  5 17  1  0
 17 18  1  0
 18 19  2  0
 18 20  1  0
 20 21  1  0
 21 22  1  0
 22 23  1  0
 23 24  2  0
 23 25  1  0
 25 26  1  0
 26 27  1  0
  5  6  2  0
 14 15  1  0
 15 16  1  0
 16 11  1  0
  6  1  1  0
 26 21  2  0
M  CHG 1  17  -1
M  CHG 1  22  -1
M  CHG 1  25  -1
M  CHG 1  27  -1
M  END
> <UniqueID>
6

> <SMILES>
CC1CCN(S(=O)(=O)c2cccc([N-]C(=O)Cc3[n-]c(=O)[n-]c3[O-])c2)CC1

> <Energy>
79.17342530489236

> <Genealogy>
CC1CCN(S(=O)(=O)c2cccc([N-]C(=O)Cc3[n-]c(=O)[n-]c3[O-])c2)CC1 (protonated)
CC1CCN(S(=O)(=O)c2cccc([N-]C(=O)Cc3[n-]c(=O)[n-]c3[O-])c2)CC1 (3D coordinates assigned)
CC1CCN(S(=O)(=O)c2cccc([N-]C(=O)Cc3[n-]c(=O)[n-]c3[O-])c2)CC1 (nonaromatic ring conformer: 79.17342530489236 kcal/mol)

> <smiles>
CC1CCN(S(=O)(=O)c2cccc(NC(=O)Cc3[nH]c(=O)[nH]c3O)c2)CC1

> <score_type>
oracle

> <origin>
adg

> <m_score__min__energy>
-18.609999999999999

> <m_primary>
energy

> <minimizedAffinity>
-8.40643

> <minimizedRMSD>
1.27615

> <CNNscore>
0.5169578195

> <CNNaffinity>
6.7546958923

> <CNN_VS>
3.4918928146

> <CNNaffinity_variance>
0.1228321120

$$$$
34:0


 32 35  0  0  0  0  0  0  0  0999 V2000
   57.7473   29.2122   53.2747 C   0  0  0  0  0  0  0  0  0  0  0  0
   58.4822   28.6557   54.1342 O   0  0  0  0  0  0  0  0  0  0  0  0
   58.3485   29.9508   52.1908 N   0  0  0  0  0  0  0  0  0  0  0  0
   59.7776   29.7963   51.8947 C   0  0  0  0  0  0  0  0  0  0  0  0
   60.0169   30.0297   50.3984 C   0  0  0  0  0  0  0  0  0  0  0  0
   59.5236   31.3511   49.9199 N   0  0  0  0  0  0  0  0  0  0  0  0
   58.5319   31.9999   50.8186 C   0  0  0  0  0  0  0  0  0  0  0  0
   57.5878   30.9913   51.4849 C   0  0  0  0  0  0  0  0  0  0  0  0
   53.3318   27.4300   54.2056 C   0  0  0  0  0  0  0  0  0  0  0  0
   54.2991   28.2848   53.8259 C   0  0  0  0  0  0  0  0  0  0  0  0
   54.1089   29.5688   53.3039 C   0  0  0  0  0  0  0  0  0  0  0  0
   52.9428   30.2272   53.1545 C   0  0  0  0  0  0  0  0  0  0  0  0
   55.3755   30.0668   53.0339 C   0  0  0  0  0  0  0  0  0  0  0  0
   56.2786   29.0851   53.4004 C   0  0  0  0  0  0  0  0  0  0  0  0
   55.6248   28.0033   53.8903 N   0  0  0  0  0  0  0  0  0  0  0  0
   56.2300   26.7800   54.4337 C   0  0  0  0  0  0  0  0  0  0  0  0
   52.2876   30.4596   51.8567 C   0  0  0  0  0  0  0  0  0  0  0  0
   52.4103   29.6236   50.8124 N   0  0  0  0  0  0  0  0  0  0  0  0
   51.7089   30.2405   49.8351 C   0  0  0  0  0  0  0  0  0  0  0  0
   51.5759   29.7452   48.6850 O   0  0  0  0  0  0  0  0  0  0  0  0
   51.1679   31.4268   50.1847 N   0  0  0  0  0  0  0  0  0  0  0  0
   51.5524   31.5584   51.4646 C   0  0  0  0  0  0  0  0  0  0  0  0
   51.2823   32.6795   52.2409 O   0  0  0  0  0  0  0  0  0  0  0  0
   59.0396   31.2518   48.5270 C   0  0  0  0  0  0  0  0  0  0  0  0
   58.6626   32.6102   47.9921 C   0  0  0  0  0  0  0  0  0  0  0  0
   59.5248   33.5843   47.6848 C   0  0  0  0  0  0  0  0  0  0  0  0
   60.9765   33.5524   47.9580 C   0  0  0  0  0  0  0  0  0  0  0  0
   61.4463   33.9386   49.2250 C   0  0  0  0  0  0  0  0  0  0  0  0
   62.8176   33.9547   49.4936 C   0  0  0  0  0  0  0  0  0  0  0  0
   63.7316   33.6220   48.4875 C   0  0  0  0  0  0  0  0  0  0  0  0
   63.2756   33.2821   47.2119 C   0  0  0  0  0  0  0  0  0  0  0  0
   61.9032   33.2466   46.9429 C   0  0  0  0  0  0  0  0  0  0  0  0
  9 10  2  0
 10 11  1  0
 11 12  2  0
 12 17  1  0
 17 18  1  0
 18 19  1  0
 19 20  2  0
 19 21  1  0
 21 22  1  0
 22 23  1  0
 11 13  1  0
 13 14  2  0
 14  1  1  0
  1  2  2  0
  1  3  1  0
  3  4  1  0
  4  5  1  0
  5  6  1  0
  6 24  1  0
 24 25  1  0
 25 26  2  0
 26 27  1  0
 27 28  2  0
 28 29  1  0
 29 30  2  0
 30 31  1  0
 31 32  2  0
  6  7  1  0
  7  8  1  0
 14 15  1  0
 15 16  1  0
 15 10  1  0
 22 17  2  0
  8  3  1  0
 32 27  1  0
M  CHG 1  18  -1
M  CHG 1  21  -1
M  CHG 1  23  -1
M  END
> <UniqueID>
34

> <SMILES>
C=c1c(=Cc2[n-]c(=O)[n-]c2[O-])cc(C(=O)N2CCN(CC=Cc3ccccc3)CC2)n1C

> <Energy>
141.8870136696811

> <Genealogy>
C=c1c(=Cc2[n-]c(=O)[n-]c2[O-])cc(C(=O)N2CCN(CC=Cc3ccccc3)CC2)n1C (protonated)
C=c1c(=Cc2[n-]c(=O)[n-]c2[O-])cc(C(=O)N2CCN(CC=Cc3ccccc3)CC2)n1C (3D coordinates assigned)
C=c1c(=Cc2[n-]c(=O)[n-]c2[O-])cc(C(=O)N2CCN(CC=Cc3ccccc3)CC2)n1C (nonaromatic ring conformer: 141.8870136696811 kcal/mol)

> <smiles>
C=c1c(=Cc2[nH]c(=O)[nH]c2O)cc(C(=O)N2CCN(CC=Cc3ccccc3)CC2)n1C

> <score_type>
oracle

> <origin>
adg

> <m_score__min__energy>
-18.579999999999998

> <m_primary>
energy

> <minimizedAffinity>
-7.19637

> <minimizedRMSD>
1.03037

> <CNNscore>
0.0779147074

> <CNNaffinity>
5.6173930168

> <CNN_VS>
0.4376775324

> <CNNaffinity_variance>
0.1639484763

$$$$
54:0


 29 32  0  0  0  0  0  0  0  0999 V2000
   55.9544   31.2331   51.5616 C   0  0  0  0  0  0  0  0  0  0  0  0
   55.8832   30.3887   52.6044 C   0  0  0  0  0  0  0  0  0  0  0  0
   54.7095   29.9431   53.2322 C   0  0  0  0  0  0  0  0  0  0  0  0
   53.4424   30.3962   53.1647 C   0  0  0  0  0  0  0  0  0  0  0  0
   55.0783   28.8705   54.0247 C   0  0  0  0  0  0  0  0  0  0  0  0
   56.4493   28.7483   53.9226 C   0  0  0  0  0  0  0  0  0  0  0  0
   57.2584   27.7303   54.6687 C   0  0  0  0  0  0  0  0  0  0  0  0
   56.9452   29.6758   53.0691 N   0  0  0  0  0  0  0  0  0  0  0  0
   58.3353   29.8499   52.7263 C   0  0  0  0  0  0  0  0  0  0  0  0
   59.1968   29.9951   53.6349 O   0  0  0  0  0  0  0  0  0  0  0  0
   52.6208   30.4657   51.9443 C   0  0  0  0  0  0  0  0  0  0  0  0
   52.7615   29.6582   50.8774 N   0  0  0  0  0  0  0  0  0  0  0  0
   51.9023   30.1803   49.9763 C   0  0  0  0  0  0  0  0  0  0  0  0
   51.7337   29.6839   48.8327 O   0  0  0  0  0  0  0  0  0  0  0  0
   51.2442   31.2828   50.3935 N   0  0  0  0  0  0  0  0  0  0  0  0
   51.7223   31.4572   51.6362 C   0  0  0  0  0  0  0  0  0  0  0  0
   51.3484   32.5046   52.4701 O   0  0  0  0  0  0  0  0  0  0  0  0
   58.7404   29.8667   51.3521 N   0  0  0  0  0  0  0  0  0  0  0  0
   59.5817   30.8720   50.7712 C   0  0  0  0  0  0  0  0  0  0  0  0
   59.5406   32.1512   51.3311 C   0  0  0  0  0  0  0  0  0  0  0  0
   60.3652   33.1657   50.8556 C   0  0  0  0  0  0  0  0  0  0  0  0
   61.2565   32.9172   49.8081 C   0  0  0  0  0  0  0  0  0  0  0  0
   62.1066   33.9405   49.3575 C   0  0  0  0  0  0  0  0  0  0  0  0
   63.0067   33.7026   48.3186 C   0  0  0  0  0  0  0  0  0  0  0  0
   63.0683   32.4439   47.7221 C   0  0  0  0  0  0  0  0  0  0  0  0
   62.2269   31.4164   48.1545 C   0  0  0  0  0  0  0  0  0  0  0  0
   61.2989   31.6339   49.1996 C   0  0  0  0  0  0  0  0  0  0  0  0
   60.4181   30.6117   49.6538 C   0  0  0  0  0  0  0  0  0  0  0  0
   60.3489   29.2819   48.9363 C   0  0  0  0  0  0  0  0  0  0  0  0
  1  2  2  0
  2  3  1  0
  3  4  2  0
  4 11  1  0
 11 12  1  0
 12 13  1  0
 13 14  2  0
 13 15  1  0
 15 16  1  0
 16 17  1  0
  3  5  1  0
  5  6  2  0
  6  7  1  0
  6  8  1  0
  8  9  1  0
  9 10  2  0
  9 18  1  0
 18 19  1  0
 19 20  2  0
 20 21  1  0
 21 22  2  0
 22 23  1  0
 23 24  2  0
 24 25  1  0
 25 26  2  0
 26 27  1  0
 27 28  2  0
 28 29  1  0
  8  2  1  0
 28 19  1  0
 16 11  2  0
 27 22  1  0
M  CHG 1  12  -1
M  CHG 1  15  -1
M  CHG 1  17  -1
M  CHG 1  18  -1
M  END
> <UniqueID>
54

> <SMILES>
C=c1c(=Cc2[n-]c(=O)[n-]c2[O-])cc(C)n1C(=O)[N-]c1ccc2ccccc2c1C

> <Energy>
135.669000414882

> <Genealogy>
C=c1c(=Cc2[n-]c(=O)[n-]c2[O-])cc(C)n1C(=O)[N-]c1ccc2ccccc2c1C (protonated)
C=c1c(=Cc2[n-]c(=O)[n-]c2[O-])cc(C)n1C(=O)[N-]c1ccc2ccccc2c1C (3D coordinates assigned)
C=c1c(=Cc2[n-]c(=O)[n-]c2[O-])cc(C)n1C(=O)[N-]c1ccc2ccccc2c1C (optimized conformer: 135.669000414882 kcal/mol)

> <smiles>
C=c1c(=Cc2[nH]c(=O)[nH]c2O)cc(C)n1C(=O)Nc1ccc2ccccc2c1C

> <score_type>
oracle

> <origin>
adg

> <m_score__min__energy>
-18.239999999999998

> <m_primary>
energy

> <minimizedAffinity>
-6.43923

> <minimizedRMSD>
1.52504

> <CNNscore>
0.0926692486

> <CNNaffinity>
5.4400024414

> <CNN_VS>
0.5041209459

> <CNNaffinity_variance>
0.0828984007

$$$$
59:0


 34 38  0  0  0  0  0  0  0  0999 V2000
   59.3504   31.5167   46.4532 C   0  0  0  0  0  0  0  0  0  0  0  0
   58.8447   31.6003   45.1429 C   0  0  0  0  0  0  0  0  0  0  0  0
   57.9821   32.6352   44.7754 C   0  0  0  0  0  0  0  0  0  0  0  0
   57.6036   33.5958   45.7129 C   0  0  0  0  0  0  0  0  0  0  0  0
   58.0823   33.5214   47.0216 C   0  0  0  0  0  0  0  0  0  0  0  0
   58.9466   32.4857   47.4052 C   0  0  0  0  0  0  0  0  0  0  0  0
   59.4047   32.4457   48.8053 C   0  0  0  0  0  0  0  0  0  0  0  0
   58.6199   31.9882   49.6793 O   0  0  0  0  0  0  0  0  0  0  0  0
   60.7354   32.8737   49.1700 N   0  0  0  0  0  0  0  0  0  0  0  0
   61.6608   33.3693   48.1410 C   0  0  0  0  0  0  0  0  0  0  0  0
   63.0117   33.7506   48.7494 C   0  0  0  0  0  0  0  0  0  0  0  0
   63.5012   32.6507   49.6017 N   0  0  0  0  0  0  0  0  0  0  0  0
   62.5763   32.2887   50.7142 C   0  0  0  0  0  0  0  0  0  0  0  0
   61.1658   32.8859   50.5744 C   0  0  0  0  0  0  0  0  0  0  0  0
   64.9300   32.8688   49.9559 C   0  0  0  0  0  0  0  0  0  0  0  0
   65.1811   33.6279   51.2433 C   0  0  0  0  0  0  0  0  0  0  0  0
   65.7846   32.5111   51.8578 O   0  0  0  0  0  0  0  0  0  0  0  0
   65.6122   31.7342   50.6924 C   0  0  0  0  0  0  0  0  0  0  0  0
   60.2852   30.3780   46.8075 C   0  0  0  0  0  0  0  0  0  0  0  0
   59.5973   28.5987   44.4272 C   0  0  0  0  0  0  0  0  0  0  0  0
   59.3066   28.2901   45.7038 C   0  0  0  0  0  0  0  0  0  0  0  0
   58.6583   27.1237   46.1293 C   0  0  0  0  0  0  0  0  0  0  0  0
   58.2346   26.0967   45.3658 C   0  0  0  0  0  0  0  0  0  0  0  0
   58.5865   27.1985   47.5104 C   0  0  0  0  0  0  0  0  0  0  0  0
   59.1790   28.3875   47.8737 C   0  0  0  0  0  0  0  0  0  0  0  0
   59.3216   28.8497   49.2944 C   0  0  0  0  0  0  0  0  0  0  0  0
   59.5954   29.0742   46.7812 N   0  0  0  0  0  0  0  0  0  0  0  0
   57.5249   24.9155   45.8934 C   0  0  0  0  0  0  0  0  0  0  0  0
   58.0975   23.7043   46.0110 N   0  0  0  0  0  0  0  0  0  0  0  0
   57.0855   22.9202   46.4410 C   0  0  0  0  0  0  0  0  0  0  0  0
   57.2339   21.6941   46.6832 O   0  0  0  0  0  0  0  0  0  0  0  0
   55.8992   23.5495   46.5789 N   0  0  0  0  0  0  0  0  0  0  0  0
   56.1909   24.8091   46.2173 C   0  0  0  0  0  0  0  0  0  0  0  0
   55.2441   25.8234   46.1380 O   0  0  0  0  0  0  0  0  0  0  0  0
 20 21  2  0
 21 22  1  0
 22 23  2  0
 23 28  1  0
 28 29  1  0
 29 30  1  0
 30 31  2  0
 30 32  1  0
 32 33  1  0
 33 34  1  0
 22 24  1  0
 24 25  2  0
 25 26  1  0
 25 27  1  0
 27 19  1  0
 19  1  1  0
  1  2  2  0
  2  3  1  0
  3  4  2  0
  4  5  1  0
  5  6  2  0
  6  7  1  0
  7  8  2  0
  7  9  1  0
  9 10  1  0
 10 11  1  0
 11 12  1  0
 12 15  1  0
 15 16  1  0
 16 17  1  0
 17 18  1  0
 12 13  1  0
 13 14  1  0
 27 21  1  0
  6  1  1  0
 14  9  1  0
 33 28  2  0
 18 15  1  0
M  CHG 1  29  -1
M  CHG 1  32  -1
M  CHG 1  34  -1
M  END
> <UniqueID>
59

> <SMILES>
C=c1c(=Cc2[n-]c(=O)[n-]c2[O-])cc(C)n1Cc1ccccc1C(=O)N1CCN(C2COC2)CC1

> <Energy>
212.82761331360226

> <Genealogy>
C=c1c(=Cc2[n-]c(=O)[n-]c2[O-])cc(C)n1Cc1ccccc1C(=O)N1CCN(C2COC2)CC1 (protonated)
C=c1c(=Cc2[n-]c(=O)[n-]c2[O-])cc(C)n1Cc1ccccc1C(=O)N1CCN(C2COC2)CC1 (3D coordinates assigned)
C=c1c(=Cc2[n-]c(=O)[n-]c2[O-])cc(C)n1Cc1ccccc1C(=O)N1CCN(C2COC2)CC1 (nonaromatic ring conformer: 212.82761331360226 kcal/mol)

> <smiles>
C=c1c(=Cc2[nH]c(=O)[nH]c2O)cc(C)n1Cc1ccccc1C(=O)N1CCN(C2COC2)CC1

> <score_type>
oracle

> <origin>
adg

> <m_score__min__energy>
-18.170000000000002

> <m_primary>
energy

> <minimizedAffinity>
-8.91105

> <minimizedRMSD>
1.02336

> <CNNscore>
0.2156637162

> <CNNaffinity>
6.8570523262

> <CNN_VS>
1.4788173437

> <CNNaffinity_variance>
0.0442742519

$$$$
62:0


 28 31  0  0  0  0  0  0  0  0999 V2000
   60.7282   26.6619   47.3136 O   0  0  0  0  0  0  0  0  0  0  0  0
   59.6673   27.3137   47.1093 C   0  0  0  0  0  0  0  0  0  0  0  0
   58.4853   26.6399   46.6395 N   0  0  0  0  0  0  0  0  0  0  0  0
   58.4544   25.2501   46.2764 C   0  0  0  0  0  0  0  0  0  0  0  0
   59.5308   24.6251   46.0699 O   0  0  0  0  0  0  0  0  0  0  0  0
   57.6527   27.1597   46.5628 H   0  0  0  0  0  0  0  0  0  0  0  0
   57.1652   24.5453   46.0849 C   0  0  0  0  0  0  0  0  0  0  0  0
   57.1449   23.1451   45.9826 C   0  0  0  0  0  0  0  0  0  0  0  0
   55.9396   22.4681   45.7912 C   0  0  0  0  0  0  0  0  0  0  0  0
   54.7523   23.1973   45.7144 C   0  0  0  0  0  0  0  0  0  0  0  0
   53.6556   22.6058   45.5368 O   0  0  0  0  0  0  0  0  0  0  0  0
   54.7783   24.5511   45.8352 N   0  0  0  0  0  0  0  0  0  0  0  0
   55.9372   25.2374   46.0224 C   0  0  0  0  0  0  0  0  0  0  0  0
   55.8828   26.6169   46.1800 O   0  0  0  0  0  0  0  0  0  0  0  0
   59.6433   28.7698   47.3703 C   0  0  0  0  0  0  0  0  0  0  0  0
   60.4080   29.3395   48.4012 C   0  0  0  0  0  0  0  0  0  0  0  0
   60.3571   30.6816   48.6091 N   0  0  0  0  0  0  0  0  0  0  0  0
   59.5709   31.4922   47.8500 C   0  0  0  0  0  0  0  0  0  0  0  0
   58.8195   30.9294   46.8077 C   0  0  0  0  0  0  0  0  0  0  0  0
   58.8745   29.5864   46.6024 N   0  0  0  0  0  0  0  0  0  0  0  0
   59.5768   32.9754   48.0885 C   0  0  0  0  0  0  0  0  0  0  0  0
   60.6053   33.7554   47.2815 C   0  0  0  0  0  0  0  0  0  0  0  0
   60.8321   33.5082   48.7630 C   0  0  0  0  0  0  0  0  0  0  0  0
   58.0265   31.7448   45.9953 O   0  0  0  0  0  0  0  0  0  0  0  0
   57.9666   31.6052   44.5778 C   0  0  0  0  0  0  0  0  0  0  0  0
   56.6005   31.0910   44.0950 C   0  0  0  0  0  0  0  0  0  0  0  0
   56.2431   29.6491   44.4347 C   0  0  0  0  0  0  0  0  0  0  0  0
   56.6256   30.0243   43.0091 C   0  0  0  0  0  0  0  0  0  0  0  0
  1  2  2  0
  2  3  1  0
  3  4  1  0
  4  5  2  0
  4  7  1  0
  7  8  1  0
  8  9  2  0
  9 10  1  0
 10 11  2  0
 10 12  1  0
 12 13  1  0
 13 14  1  0
  2 15  1  0
 15 16  2  0
 16 17  1  0
 17 18  2  0
 18 21  1  0
 21 22  1  0
 22 23  1  0
 18 19  1  0
 19 24  1  0
 24 25  1  0
 25 26  1  0
 26 27  1  0
 27 28  1  0
 19 20  2  0
 13  7  2  0
 20 15  1  0
 23 21  1  0
 28 26  1  0
  3  6  1  0
M  CHG 1  12  -1
M  CHG 1  14  -1
M  END
> <UniqueID>
61

> <SMILES>
O=C(NC(=O)c1ccc(=O)[n-]c1[O-])c1cnc(C2CC2)c(OCC2CC2)n1

> <Energy>
578.0745031757409

> <Genealogy>
O=C(NC(=O)c1ccc(=O)[n-]c1[O-])c1cnc(C2CC2)c(OCC2CC2)n1 (protonated)
O=C(NC(=O)c1ccc(=O)[n-]c1[O-])c1cnc(C2CC2)c(OCC2CC2)n1 (3D coordinates assigned)
O=C(NC(=O)c1ccc(=O)[n-]c1[O-])c1cnc(C2CC2)c(OCC2CC2)n1 (nonaromatic ring conformer: 578.0745031757409 kcal/mol)

> <smiles>
O=C(NC(=O)c1ccc(=O)[nH]c1O)c1cnc(C2CC2)c(OCC2CC2)n1

> <score_type>
oracle

> <origin>
adg

> <m_score__min__energy>
-14.16

> <m_primary>
energy

> <minimizedAffinity>
-6.92914

> <minimizedRMSD>
1.34465

> <CNNscore>
0.2522932291

> <CNNaffinity>
6.4512920380

> <CNN_VS>
1.6276173592

> <CNNaffinity_variance>
0.0864039585

$$$$
64:0


 37 40  0  0  0  0  0  0  0  0999 V2000
   54.6898   28.4788   54.7170 C   0  0  0  0  0  0  0  0  0  0  0  0
   55.1485   29.4291   53.8824 C   0  0  0  0  0  0  0  0  0  0  0  0
   54.3795   30.1587   52.9652 C   0  0  0  0  0  0  0  0  0  0  0  0
   53.0464   30.0619   52.7634 C   0  0  0  0  0  0  0  0  0  0  0  0
   55.2650   31.0056   52.3146 C   0  0  0  0  0  0  0  0  0  0  0  0
   56.5137   30.7837   52.8558 C   0  0  0  0  0  0  0  0  0  0  0  0
   56.4527   29.8149   53.8046 N   0  0  0  0  0  0  0  0  0  0  0  0
   52.3344   30.3398   51.4917 C   0  0  0  0  0  0  0  0  0  0  0  0
   52.2973   29.5388   50.4124 N   0  0  0  0  0  0  0  0  0  0  0  0
   51.5446   30.2275   49.5287 C   0  0  0  0  0  0  0  0  0  0  0  0
   51.2883   29.7958   48.3750 O   0  0  0  0  0  0  0  0  0  0  0  0
   51.0950   31.4179   49.9754 N   0  0  0  0  0  0  0  0  0  0  0  0
   51.6035   31.4738   51.2194 C   0  0  0  0  0  0  0  0  0  0  0  0
   51.4076   32.5421   52.0864 O   0  0  0  0  0  0  0  0  0  0  0  0
   50.8928   33.2767   51.8158 H   0  0  0  0  0  0  0  0  0  0  0  0
   57.7239   31.5255   52.4374 C   0  0  0  0  0  0  0  0  0  0  0  0
   58.1005   32.5531   53.0628 O   0  0  0  0  0  0  0  0  0  0  0  0
   58.4707   31.0923   51.2990 N   0  0  0  0  0  0  0  0  0  0  0  0
   58.9048   31.9931   50.2347 C   0  0  0  0  0  0  0  0  0  0  0  0
   59.4344   31.2338   49.0320 C   0  0  0  0  0  0  0  0  0  0  0  0
   59.0683   29.8724   48.9813 C   0  0  0  0  0  0  0  0  0  0  0  0
   59.5093   29.0416   47.9613 C   0  0  0  0  0  0  0  0  0  0  0  0
   60.3427   29.5421   46.9759 C   0  0  0  0  0  0  0  0  0  0  0  0
   60.7100   30.8866   46.9834 C   0  0  0  0  0  0  0  0  0  0  0  0
   60.2363   31.7963   47.9707 C   0  0  0  0  0  0  0  0  0  0  0  0
   60.6694   33.2984   47.8886 C   0  0  0  0  0  0  0  0  0  0  0  0
   59.4442   34.1731   47.5361 C   0  0  0  0  0  0  0  0  0  0  0  0
   61.2238   33.8229   49.2448 C   0  0  0  0  0  0  0  0  0  0  0  0
   61.8101   33.5245   46.8577 C   0  0  0  0  0  0  0  0  0  0  0  0
   57.5952   29.2569   54.5469 C   0  0  0  0  0  0  0  0  0  0  0  0
   58.3432   28.2070   53.7161 C   0  0  0  0  0  0  0  0  0  0  0  0
   59.7015   27.9727   54.2615 N   0  0  0  0  0  0  0  0  0  0  0  0
   60.5933   29.1375   54.0884 C   0  0  0  0  0  0  0  0  0  0  0  0
   61.0879   29.2865   52.6297 C   0  0  0  0  0  0  0  0  0  0  0  0
   60.6116   28.2526   51.7943 O   0  0  0  0  0  0  0  0  0  0  0  0
   60.9819   26.9992   52.3263 C   0  0  0  0  0  0  0  0  0  0  0  0
   60.3314   26.7531   53.7068 C   0  0  0  0  0  0  0  0  0  0  0  0
  1  2  2  0
  2  3  1  0
  3  4  2  0
  4  8  1  0
  8  9  1  0
  9 10  1  0
 10 11  2  0
 10 12  1  0
 12 13  1  0
 13 14  1  0
  3  5  1  0
  5  6  2  0
  6 16  1  0
 16 17  2  0
 16 18  1  0
 18 19  1  0
 19 20  1  0
 20 21  2  0
 21 22  1  0
 22 23  2  0
 23 24  1  0
 24 25  2  0
 25 26  1  0
 26 27  1  0
 26 28  1  0
 26 29  1  0
  6  7  1  0
  7 30  1  0
 30 31  1  0
 31 32  1  0
 32 33  1  0
 33 34  1  0
 34 35  1  0
 35 36  1  0
 36 37  1  0
  7  2  1  0
 37 32  1  0
 13  8  2  0
 25 20  1  0
 14 15  1  0
M  CHG 1   9  -1
M  CHG 1  12  -1
M  CHG 1  18  -1
M  END
> <UniqueID>
63

> <SMILES>
C=c1c(=Cc2[n-]c(=O)[n-]c2O)cc(C(=O)[N-]Cc2ccccc2C(C)(C)C)n1CCN1CCOCC1

> <Energy>
165.37441748389102

> <Genealogy>
C=c1c(=Cc2[n-]c(=O)[n-]c2O)cc(C(=O)[N-]Cc2ccccc2C(C)(C)C)n1CCN1CCOCC1 (protonated)
C=c1c(=Cc2[n-]c(=O)[n-]c2O)cc(C(=O)[N-]Cc2ccccc2C(C)(C)C)n1CCN1CCOCC1 (3D coordinates assigned)
C=c1c(=Cc2[n-]c(=O)[n-]c2O)cc(C(=O)[N-]Cc2ccccc2C(C)(C)C)n1CCN1CCOCC1 (nonaromatic ring conformer: 165.37441748389102 kcal/mol)

> <smiles>
C=c1c(=Cc2[nH]c(=O)[nH]c2O)cc(C(=O)NCc2ccccc2C(C)(C)C)n1CCN1CCOCC1

> <score_type>
oracle

> <origin>
adg

> <m_score__min__energy>
-14.01

> <m_primary>
energy

> <minimizedAffinity>
-6.13802

> <minimizedRMSD>
1.24706

> <CNNscore>
0.1207093075

> <CNNaffinity>
6.2105011940

> <CNN_VS>
0.7496653199

> <CNNaffinity_variance>
0.2230730802

$$$$
65:0


 35 39  0  0  0  0  0  0  0  0999 V2000
   58.9170   30.1287   44.9300 C   0  0  0  0  0  0  0  0  0  0  0  0
   58.8638   29.6164   46.1709 C   0  0  0  0  0  0  0  0  0  0  0  0
   58.7758   28.2574   46.5119 C   0  0  0  0  0  0  0  0  0  0  0  0
   58.5386   27.1659   45.7593 C   0  0  0  0  0  0  0  0  0  0  0  0
   58.9310   28.1926   47.8830 C   0  0  0  0  0  0  0  0  0  0  0  0
   59.0220   29.4906   48.3457 C   0  0  0  0  0  0  0  0  0  0  0  0
   59.0063   30.3607   47.3028 N   0  0  0  0  0  0  0  0  0  0  0  0
   59.0574   29.8435   49.7824 C   0  0  0  0  0  0  0  0  0  0  0  0
   58.1142   29.5182   50.5515 O   0  0  0  0  0  0  0  0  0  0  0  0
   60.1937   30.5215   50.3263 N   0  0  0  0  0  0  0  0  0  0  0  0
   61.2975   29.7428   50.8907 C   0  0  0  0  0  0  0  0  0  0  0  0
   62.6306   30.4456   50.6172 C   0  0  0  0  0  0  0  0  0  0  0  0
   62.5706   31.8807   50.9377 N   0  0  0  0  0  0  0  0  0  0  0  0
   63.7985   32.6378   50.9466 C   0  0  0  0  0  0  0  0  0  0  0  0
   64.8006   32.2117   50.3093 O   0  0  0  0  0  0  0  0  0  0  0  0
   61.2960   32.4981   51.3389 C   0  0  0  0  0  0  0  0  0  0  0  0
   60.1476   31.9795   50.4662 C   0  0  0  0  0  0  0  0  0  0  0  0
   63.9106   33.9463   51.6779 C   0  0  0  0  0  0  0  0  0  0  0  0
   64.1946   33.8136   53.1666 C   0  0  0  0  0  0  0  0  0  0  0  0
   65.2978   34.2572   52.2235 C   0  0  0  0  0  0  0  0  0  0  0  0
   57.8505   25.9444   46.2052 C   0  0  0  0  0  0  0  0  0  0  0  0
   58.4489   24.7529   46.3912 N   0  0  0  0  0  0  0  0  0  0  0  0
   57.4142   23.9206   46.6383 C   0  0  0  0  0  0  0  0  0  0  0  0
   57.5722   22.6963   46.8825 O   0  0  0  0  0  0  0  0  0  0  0  0
   56.1961   24.5010   46.5913 N   0  0  0  0  0  0  0  0  0  0  0  0
   56.4913   25.7787   46.3003 C   0  0  0  0  0  0  0  0  0  0  0  0
   55.5361   26.7700   46.1162 O   0  0  0  0  0  0  0  0  0  0  0  0
   59.1885   31.8221   47.3869 C   0  0  0  0  0  0  0  0  0  0  0  0
   60.6410   32.2526   47.2492 C   0  0  0  0  0  0  0  0  0  0  0  0
   61.6987   31.3328   47.4220 C   0  0  0  0  0  0  0  0  0  0  0  0
   63.0267   31.7400   47.2898 C   0  0  0  0  0  0  0  0  0  0  0  0
   63.3274   33.0635   46.9800 C   0  0  0  0  0  0  0  0  0  0  0  0
   62.2994   33.9886   46.8000 C   0  0  0  0  0  0  0  0  0  0  0  0
   60.9540   33.5997   46.9279 C   0  0  0  0  0  0  0  0  0  0  0  0
   59.8757   34.6299   46.7189 C   0  0  0  0  0  0  0  0  0  0  0  0
  1  2  2  0
  2  3  1  0
  3  4  2  0
  4 21  1  0
 21 22  1  0
 22 23  1  0
 23 24  2  0
 23 25  1  0
 25 26  1  0
 26 27  1  0
  3  5  1  0
  5  6  2  0
  6  8  1  0
  8  9  2  0
  8 10  1  0
 10 11  1  0
 11 12  1  0
 12 13  1  0
 13 14  1  0
 14 15  2  0
 14 18  1  0
 18 19  1  0
 19 20  1  0
 13 16  1  0
 16 17  1  0
  6  7  1  0
  7 28  1  0
 28 29  1  0
 29 30  2  0
 30 31  1  0
 31 32  2  0
 32 33  1  0
 33 34  2  0
 34 35  1  0
  7  2  1  0
 34 29  1  0
 26 21  2  0
 17 10  1  0
 20 18  1  0
M  CHG 1  22  -1
M  CHG 1  25  -1
M  CHG 1  27  -1
M  END
> <UniqueID>
64

> <SMILES>
C=c1c(=Cc2[n-]c(=O)[n-]c2[O-])cc(C(=O)N2CCN(C(=O)C3CC3)CC2)n1Cc1ccccc1C

> <Energy>
407.6914042275152

> <Genealogy>
C=c1c(=Cc2[n-]c(=O)[n-]c2[O-])cc(C(=O)N2CCN(C(=O)C3CC3)CC2)n1Cc1ccccc1C (protonated)
C=c1c(=Cc2[n-]c(=O)[n-]c2[O-])cc(C(=O)N2CCN(C(=O)C3CC3)CC2)n1Cc1ccccc1C (3D coordinates assigned)
C=c1c(=Cc2[n-]c(=O)[n-]c2[O-])cc(C(=O)N2CCN(C(=O)C3CC3)CC2)n1Cc1ccccc1C (nonaromatic ring conformer: 407.6914042275152 kcal/mol)

> <smiles>
C=c1c(=Cc2[nH]c(=O)[nH]c2O)cc(C(=O)N2CCN(C(=O)C3CC3)CC2)n1Cc1ccccc1C

> <score_type>
oracle

> <origin>
adg

> <m_score__min__energy>
-16.789999999999999

> <m_primary>
energy

> <minimizedAffinity>
-8.67104

> <minimizedRMSD>
0.48146

> <CNNscore>
0.2814496458

> <CNNaffinity>
6.8788371086

> <CNN_VS>
1.9360462427

> <CNNaffinity_variance>
0.1256802529

$$$$
1:0


 30 33  0  0  0  0  0  0  0  0999 V2000
   60.3386   26.6355   46.2648 C   0  0  0  0  0  0  0  0  0  0  0  0
   59.4469   27.4389   45.6557 C   0  0  0  0  0  0  0  0  0  0  0  0
   58.2770   27.0119   45.0103 C   0  0  0  0  0  0  0  0  0  0  0  0
   57.8395   25.7405   44.8734 C   0  0  0  0  0  0  0  0  0  0  0  0
   57.6400   28.1629   44.5744 C   0  0  0  0  0  0  0  0  0  0  0  0
   58.4324   29.2318   44.9414 C   0  0  0  0  0  0  0  0  0  0  0  0
   59.5431   28.7990   45.5960 N   0  0  0  0  0  0  0  0  0  0  0  0
   57.2240   24.9181   45.9397 C   0  0  0  0  0  0  0  0  0  0  0  0
   57.8237   23.9248   46.6192 N   0  0  0  0  0  0  0  0  0  0  0  0
   56.8799   23.5278   47.4997 C   0  0  0  0  0  0  0  0  0  0  0  0
   57.0712   22.5945   48.3221 O   0  0  0  0  0  0  0  0  0  0  0  0
   55.7188   24.2122   47.4321 N   0  0  0  0  0  0  0  0  0  0  0  0
   55.9552   25.0895   46.4436 C   0  0  0  0  0  0  0  0  0  0  0  0
   55.0290   26.0310   46.0116 O   0  0  0  0  0  0  0  0  0  0  0  0
   58.0496   30.6372   44.6750 C   0  0  0  0  0  0  0  0  0  0  0  0
   57.9769   31.0272   43.4783 O   0  0  0  0  0  0  0  0  0  0  0  0
   57.7374   31.5292   45.7569 N   0  0  0  0  0  0  0  0  0  0  0  0
   58.3668   32.5984   46.1653 C   0  0  0  0  0  0  0  0  0  0  0  0
   58.7532   32.8101   47.5065 C   0  0  0  0  0  0  0  0  0  0  0  0
   59.4200   33.9891   47.8531 C   0  0  0  0  0  0  0  0  0  0  0  0
   59.6818   34.9306   46.9118 N   0  0  0  0  0  0  0  0  0  0  0  0
   59.3065   34.7639   45.6170 C   0  0  0  0  0  0  0  0  0  0  0  0
   58.6377   33.6017   45.2257 C   0  0  0  0  0  0  0  0  0  0  0  0
   60.5597   29.6538   46.2398 C   0  0  0  0  0  0  0  0  0  0  0  0
   60.2969   29.7819   47.7195 C   0  0  0  0  0  0  0  0  0  0  0  0
   61.2136   30.4528   48.5484 C   0  0  0  0  0  0  0  0  0  0  0  0
   60.9639   30.5796   49.9187 C   0  0  0  0  0  0  0  0  0  0  0  0
   59.7936   30.0493   50.4690 C   0  0  0  0  0  0  0  0  0  0  0  0
   58.8678   29.3981   49.6500 C   0  0  0  0  0  0  0  0  0  0  0  0
   59.1135   29.2706   48.2790 C   0  0  0  0  0  0  0  0  0  0  0  0
  1  2  2  0
  2  3  1  0
  3  4  2  0
  4  8  1  0
  8  9  1  0
  9 10  1  0
 10 11  2  0
 10 12  1  0
 12 13  1  0
 13 14  1  0
  3  5  1  0
  5  6  2  0
  6 15  1  0
 15 16  2  0
 15 17  1  0
 17 18  2  0
 18 19  1  0
 19 20  2  0
 20 21  1  0
 21 22  1  0
 22 23  2  0
  6  7  1  0
  7 24  1  0
 24 25  1  0
 25 26  2  0
 26 27  1  0
 27 28  2  0
 28 29  1  0
 29 30  2  0
  7  2  1  0
 30 25  1  0
 13  8  2  0
 23 18  1  0
M  CHG 1   9  -1
M  CHG 1  12  -1
M  CHG 1  14  -1
M  CHG 1  21  -1
M  END
> <UniqueID>
2

> <SMILES>
C=c1c(=Cc2[n-]c(=O)[n-]c2[O-])cc(C(=O)N=c2cc[n-]cc2)n1Cc1ccccc1

> <Energy>
124.19582737280504

> <Genealogy>
C=c1c(=Cc2[n-]c(=O)[n-]c2[O-])cc(C(=O)N=c2cc[n-]cc2)n1Cc1ccccc1 (protonated)
C=c1c(=Cc2[n-]c(=O)[n-]c2[O-])cc(C(=O)N=c2cc[n-]cc2)n1Cc1ccccc1 (3D coordinates assigned)
C=c1c(=Cc2[n-]c(=O)[n-]c2[O-])cc(C(=O)N=c2cc[n-]cc2)n1Cc1ccccc1 (optimized conformer: 124.19582737280504 kcal/mol)

> <smiles>
C=c1c(=Cc2[nH]c(=O)[nH]c2O)cc(C(=O)N=c2cc[nH]cc2)n1Cc1ccccc1

> <score_type>
oracle

> <origin>
adg

> <m_score__min__energy>
-16.75

> <m_primary>
energy

> <minimizedAffinity>
-8.79848

> <minimizedRMSD>
0.71312

> <CNNscore>
0.4469535351

> <CNNaffinity>
7.0209403038

> <CNN_VS>
3.1380341053

> <CNNaffinity_variance>
0.0264985431

$$$$
13:0


 34 37  0  0  0  0  0  0  0  0999 V2000
   56.5395   30.1400   43.0197 C   0  0  0  0  0  0  0  0  0  0  0  0
   57.1822   29.9472   44.1727 C   0  0  0  0  0  0  0  0  0  0  0  0
   57.2894   28.7435   44.7694 N   0  0  0  0  0  0  0  0  0  0  0  0
   58.0265   28.9311   45.8876 C   0  0  0  0  0  0  0  0  0  0  0  0
   58.3772   27.9679   46.7521 C   0  0  0  0  0  0  0  0  0  0  0  0
   58.4034   30.2586   46.0023 C   0  0  0  0  0  0  0  0  0  0  0  0
   57.8370   30.9115   44.9245 C   0  0  0  0  0  0  0  0  0  0  0  0
   56.9059   27.8936   44.4532 H   0  0  0  0  0  0  0  0  0  0  0  0
   58.2905   26.5231   46.4456 C   0  0  0  0  0  0  0  0  0  0  0  0
   57.0436   25.9272   46.2100 C   0  0  0  0  0  0  0  0  0  0  0  0
   55.8741   26.6751   46.2958 O   0  0  0  0  0  0  0  0  0  0  0  0
   56.9681   24.6059   45.9041 N   0  0  0  0  0  0  0  0  0  0  0  0
   58.0880   23.8450   45.8059 C   0  0  0  0  0  0  0  0  0  0  0  0
   57.9918   22.6224   45.5268 O   0  0  0  0  0  0  0  0  0  0  0  0
   59.3088   24.4018   46.0029 N   0  0  0  0  0  0  0  0  0  0  0  0
   59.4385   25.7200   46.3085 C   0  0  0  0  0  0  0  0  0  0  0  0
   60.5904   26.2094   46.4488 O   0  0  0  0  0  0  0  0  0  0  0  0
   58.0091   32.3399   44.6062 C   0  0  0  0  0  0  0  0  0  0  0  0
   58.2668   32.6437   43.4088 O   0  0  0  0  0  0  0  0  0  0  0  0
   57.8292   33.4031   45.5820 N   0  0  0  0  0  0  0  0  0  0  0  0
   57.5450   32.8564   46.9386 C   0  0  0  0  0  0  0  0  0  0  0  0
   58.6873   33.0277   47.9538 C   0  0  0  0  0  0  0  0  0  0  0  0
   59.9905   33.0531   47.2872 N   0  0  0  0  0  0  0  0  0  0  0  0
   61.1009   32.2628   47.7597 C   0  0  0  0  0  0  0  0  0  0  0  0
   61.9779   31.8745   46.9396 O   0  0  0  0  0  0  0  0  0  0  0  0
   60.2050   34.0209   46.2103 C   0  0  0  0  0  0  0  0  0  0  0  0
   58.8768   34.4542   45.5599 C   0  0  0  0  0  0  0  0  0  0  0  0
   57.3596   32.5495   45.4404 H   0  0  0  0  0  0  0  0  0  0  0  0
   61.2525   31.8949   49.1848 C   0  0  0  0  0  0  0  0  0  0  0  0
   61.5327   32.8857   50.1411 C   0  0  0  0  0  0  0  0  0  0  0  0
   61.6629   32.5469   51.4912 C   0  0  0  0  0  0  0  0  0  0  0  0
   61.5041   31.2205   51.8995 C   0  0  0  0  0  0  0  0  0  0  0  0
   61.2083   30.2311   50.9591 C   0  0  0  0  0  0  0  0  0  0  0  0
   61.0781   30.5642   49.6068 C   0  0  0  0  0  0  0  0  0  0  0  0
  1  2  2  0
  2  3  1  0
  3  4  1  0
  4  5  2  0
  5  9  1  0
  9 10  2  0
 10 11  1  0
 10 12  1  0
 12 13  1  0
 13 14  2  0
 13 15  1  0
 15 16  1  0
 16 17  2  0
  4  6  1  0
  6  7  2  0
  7 18  1  0
 18 19  2  0
 18 20  1  0
 20 21  1  0
 21 22  1  0
 22 23  1  0
 23 24  1  0
 24 25  2  0
 24 29  1  0
 29 30  2  0
 30 31  1  0
 31 32  2  0
 32 33  1  0
 33 34  2  0
 23 26  1  0
 26 27  1  0
  7  2  1  0
 27 20  1  0
 16  9  1  0
 34 29  1  0
  3  8  1  0
 20 28  1  0
M  CHG 1  11  -1
M  CHG 1  12  -1
M  CHG 1  15  -1
M  CHG 1  20   1
M  END
> <UniqueID>
13

> <SMILES>
C=c1[nH]c(=Cc2c([O-])[n-]c(=O)[n-]c2=O)cc1C(=O)[NH+]1CCN(C(=O)c2ccccc2)CC1

> <Energy>
114.61792386242227

> <Genealogy>
C=c1[nH]c(=Cc2c([O-])[n-]c(=O)[n-]c2=O)cc1C(=O)[NH+]1CCN(C(=O)c2ccccc2)CC1 (protonated)
C=c1[nH]c(=Cc2c([O-])[n-]c(=O)[n-]c2=O)cc1C(=O)[NH+]1CCN(C(=O)c2ccccc2)CC1 (3D coordinates assigned)
C=c1[nH]c(=Cc2c([O-])[n-]c(=O)[n-]c2=O)cc1C(=O)[NH+]1CCN(C(=O)c2ccccc2)CC1 (nonaromatic ring conformer: 114.61792386242227 kcal/mol)

> <smiles>
C=c1[nH]c(=Cc2c(O)[nH]c(=O)[nH]c2=O)cc1C(=O)N1CCN(C(=O)c2ccccc2)CC1

> <score_type>
oracle

> <origin>
adg

> <m_score__min__energy>
-16

> <m_primary>
energy

> <minimizedAffinity>
-8.55128

> <minimizedRMSD>
1.52478

> <CNNscore>
0.2023891658

> <CNNaffinity>
6.5724906921

> <CNN_VS>
1.3302009106

> <CNNaffinity_variance>
0.0445386171

$$$$
15:0


 29 32  0  0  0  0  0  0  0  0999 V2000
   60.5400   27.7258   48.9412 C   0  0  0  0  0  0  0  0  0  0  0  0
   59.8760   28.5495   48.1157 C   0  0  0  0  0  0  0  0  0  0  0  0
   59.3539   28.2319   46.8522 C   0  0  0  0  0  0  0  0  0  0  0  0
   59.1876   27.0460   46.2352 C   0  0  0  0  0  0  0  0  0  0  0  0
   58.9583   29.4282   46.2845 C   0  0  0  0  0  0  0  0  0  0  0  0
   59.1914   30.4147   47.2197 C   0  0  0  0  0  0  0  0  0  0  0  0
   59.7359   29.8854   48.3442 N   0  0  0  0  0  0  0  0  0  0  0  0
   58.0110   26.1684   46.3652 C   0  0  0  0  0  0  0  0  0  0  0  0
   57.9886   25.0139   47.0570 N   0  0  0  0  0  0  0  0  0  0  0  0
   56.6885   24.6502   47.0107 C   0  0  0  0  0  0  0  0  0  0  0  0
   56.2617   23.5917   47.5422 O   0  0  0  0  0  0  0  0  0  0  0  0
   55.8798   25.5140   46.3598 N   0  0  0  0  0  0  0  0  0  0  0  0
   56.7323   26.4760   45.9710 C   0  0  0  0  0  0  0  0  0  0  0  0
   56.3470   27.6152   45.2754 O   0  0  0  0  0  0  0  0  0  0  0  0
   58.8566   31.8320   46.9983 C   0  0  0  0  0  0  0  0  0  0  0  0
   58.0405   32.3916   47.7838 O   0  0  0  0  0  0  0  0  0  0  0  0
   59.3903   32.5483   45.8582 N   0  0  0  0  0  0  0  0  0  0  0  0
   58.3558   33.1642   45.0169 C   0  0  0  0  0  0  0  0  0  0  0  0
   58.8286   34.5728   45.3388 C   0  0  0  0  0  0  0  0  0  0  0  0
   59.8874   33.8908   46.1911 C   0  0  0  0  0  0  0  0  0  0  0  0
   58.5206   33.0031   45.7810 H   0  0  0  0  0  0  0  0  0  0  0  0
   59.9704   30.5877   49.6171 C   0  0  0  0  0  0  0  0  0  0  0  0
   61.3697   31.1416   49.6588 C   0  0  0  0  0  0  0  0  0  0  0  0
   62.2379   30.8221   50.7159 C   0  0  0  0  0  0  0  0  0  0  0  0
   63.5302   31.3541   50.7513 C   0  0  0  0  0  0  0  0  0  0  0  0
   63.9673   32.2052   49.7326 C   0  0  0  0  0  0  0  0  0  0  0  0
   63.1103   32.5252   48.6733 C   0  0  0  0  0  0  0  0  0  0  0  0
   63.6581   33.5922   47.3940 Cl  0  0  0  0  0  0  0  0  0  0  0  0
   61.8171   31.9942   48.6348 C   0  0  0  0  0  0  0  0  0  0  0  0
  1  2  2  0
  2  3  1  0
  3  4  2  0
  4  8  1  0
  8  9  1  0
  9 10  1  0
 10 11  2  0
 10 12  1  0
 12 13  1  0
 13 14  1  0
  3  5  1  0
  5  6  2  0
  6 15  1  0
 15 16  2  0
 15 17  1  0
 17 18  1  0
 18 19  1  0
 19 20  1  0
  6  7  1  0
  7 22  1  0
 22 23  1  0
 23 24  2  0
 24 25  1  0
 25 26  2  0
 26 27  1  0
 27 28  1  0
 27 29  2  0
  7  2  1  0
 29 23  1  0
 13  8  2  0
 20 17  1  0
 17 21  1  0
M  CHG 1   9  -1
M  CHG 1  12  -1
M  CHG 1  14  -1
M  CHG 1  17   1
M  END
> <UniqueID>
15

> <SMILES>
C=c1c(=Cc2[n-]c(=O)[n-]c2[O-])cc(C(=O)[NH+]2CCC2)n1Cc1cccc(Cl)c1

> <Energy>
195.3638673951296

> <Genealogy>
C=c1c(=Cc2[n-]c(=O)[n-]c2[O-])cc(C(=O)[NH+]2CCC2)n1Cc1cccc(Cl)c1 (protonated)
C=c1c(=Cc2[n-]c(=O)[n-]c2[O-])cc(C(=O)[NH+]2CCC2)n1Cc1cccc(Cl)c1 (3D coordinates assigned)
C=c1c(=Cc2[n-]c(=O)[n-]c2[O-])cc(C(=O)[NH+]2CCC2)n1Cc1cccc(Cl)c1 (nonaromatic ring conformer: 195.3638673951296 kcal/mol)

> <smiles>
C=c1c(=Cc2[nH]c(=O)[nH]c2O)cc(C(=O)N2CCC2)n1Cc1cccc(Cl)c1

> <score_type>
oracle

> <origin>
adg

> <m_score__min__energy>
-15.32

> <m_primary>
energy

> <minimizedAffinity>
-7.46748

> <minimizedRMSD>
1.06827

> <CNNscore>
0.4026113451

> <CNNaffinity>
6.9183654785

> <CNN_VS>
2.7854125500

> <CNNaffinity_variance>
0.0159861743

$$$$
18:0


 27 29  0  0  0  0  0  0  0  0999 V2000
   58.9831   26.4426   45.7533 N   0  0  0  0  0  0  0  0  0  0  0  0
   58.6968   27.8121   45.4356 C   0  0  0  0  0  0  0  0  0  0  0  0
   59.7609   28.7170   45.3371 C   0  0  0  0  0  0  0  0  0  0  0  0
   59.5203   30.0663   45.0648 C   0  0  0  0  0  0  0  0  0  0  0  0
   58.2059   30.5346   44.9130 C   0  0  0  0  0  0  0  0  0  0  0  0
   57.1378   29.6305   45.0192 C   0  0  0  0  0  0  0  0  0  0  0  0
   57.3801   28.2804   45.2898 C   0  0  0  0  0  0  0  0  0  0  0  0
   57.9471   31.9834   44.5971 C   0  0  0  0  0  0  0  0  0  0  0  0
   58.5361   32.8635   45.6651 C   0  0  0  0  0  0  0  0  0  0  0  0
   59.1268   34.0900   45.3298 C   0  0  0  0  0  0  0  0  0  0  0  0
   59.6935   34.8783   46.3332 C   0  0  0  0  0  0  0  0  0  0  0  0
   59.6821   34.4517   47.6231 N   0  0  0  0  0  0  0  0  0  0  0  0
   59.1298   33.2603   47.9747 C   0  0  0  0  0  0  0  0  0  0  0  0
   58.5516   32.4424   47.0025 C   0  0  0  0  0  0  0  0  0  0  0  0
   57.7318   24.9595   47.0643 O   0  0  0  0  0  0  0  0  0  0  0  0
   58.0193   25.3970   45.9174 C   0  0  0  0  0  0  0  0  0  0  0  0
   57.3454   24.8234   44.7123 C   0  0  0  0  0  0  0  0  0  0  0  0
   56.1766   23.9599   45.1365 C   0  0  0  0  0  0  0  0  0  0  0  0
   55.0038   24.5084   45.7078 C   0  0  0  0  0  0  0  0  0  0  0  0
   54.8372   25.8796   45.9088 O   0  0  0  0  0  0  0  0  0  0  0  0
   53.9949   23.6811   46.0882 N   0  0  0  0  0  0  0  0  0  0  0  0
   54.0893   22.3360   45.9538 C   0  0  0  0  0  0  0  0  0  0  0  0
   53.1388   21.5985   46.3200 O   0  0  0  0  0  0  0  0  0  0  0  0
   55.2127   21.7829   45.4325 N   0  0  0  0  0  0  0  0  0  0  0  0
   56.2516   22.5557   45.0281 C   0  0  0  0  0  0  0  0  0  0  0  0
   57.2802   21.9997   44.5565 O   0  0  0  0  0  0  0  0  0  0  0  0
   55.5148   26.4757   45.6570 H   0  0  0  0  0  0  0  0  0  0  0  0
 15 16  2  0
 16 17  1  0
 17 18  1  0
 18 19  2  0
 19 20  1  0
 19 21  1  0
 21 22  1  0
 22 23  2  0
 22 24  1  0
 24 25  1  0
 25 26  2  0
 16  1  1  0
  1  2  1  0
  2  3  2  0
  3  4  1  0
  4  5  2  0
  5  8  1  0
  8  9  1  0
  9 10  2  0
 10 11  1  0
 11 12  2  0
 12 13  1  0
 13 14  2  0
  5  6  1  0
  6  7  2  0
 25 18  1  0
  7  2  1  0
 14  9  1  0
 20 27  1  0
M  CHG 1   1  -1
M  CHG 1  21  -1
M  CHG 1  24  -1
M  END
> <UniqueID>
18

> <SMILES>
O=C(Cc1c(O)[n-]c(=O)[n-]c1=O)[N-]c1ccc(Cc2ccncc2)cc1

> <Energy>
46.91988916453803

> <Genealogy>
O=C(Cc1c(O)[n-]c(=O)[n-]c1=O)[N-]c1ccc(Cc2ccncc2)cc1 (protonated)
O=C(Cc1c(O)[n-]c(=O)[n-]c1=O)[N-]c1ccc(Cc2ccncc2)cc1 (3D coordinates assigned)
O=C(Cc1c(O)[n-]c(=O)[n-]c1=O)[N-]c1ccc(Cc2ccncc2)cc1 (optimized conformer: 46.91988916453803 kcal/mol)

> <smiles>
O=C(Cc1c(O)[nH]c(=O)[nH]c1=O)Nc1ccc(Cc2ccncc2)cc1

> <score_type>
oracle

> <origin>
adg

> <m_score__min__energy>
-14.07

> <m_primary>
energy

> <minimizedAffinity>
-8.51209

> <minimizedRMSD>
0.89982

> <CNNscore>
0.3327333927

> <CNNaffinity>
6.6283020973

> <CNN_VS>
2.2054574490

> <CNNaffinity_variance>
0.3999035060

$$$$
39:0


 36 40  0  0  0  0  0  0  0  0999 V2000
   58.4077   26.9920   45.3569 C   0  0  0  0  0  0  0  0  0  0  0  0
   59.5736   27.7339   45.1226 C   0  0  0  0  0  0  0  0  0  0  0  0
   59.5103   29.1228   44.9732 C   0  0  0  0  0  0  0  0  0  0  0  0
   58.2770   29.7907   45.0541 C   0  0  0  0  0  0  0  0  0  0  0  0
   57.1070   29.0410   45.2559 C   0  0  0  0  0  0  0  0  0  0  0  0
   57.1725   27.6521   45.4080 C   0  0  0  0  0  0  0  0  0  0  0  0
   56.3604   24.9203   44.6079 C   0  0  0  0  0  0  0  0  0  0  0  0
   57.5485   24.6304   45.1607 C   0  0  0  0  0  0  0  0  0  0  0  0
   58.1061   23.3661   45.4038 C   0  0  0  0  0  0  0  0  0  0  0  0
   57.5593   22.1400   45.3117 C   0  0  0  0  0  0  0  0  0  0  0  0
   59.3847   23.5224   45.8116 N   0  0  0  0  0  0  0  0  0  0  0  0
   59.5634   24.8558   45.8574 C   0  0  0  0  0  0  0  0  0  0  0  0
   60.6548   25.3850   46.1984 O   0  0  0  0  0  0  0  0  0  0  0  0
   58.4786   25.5605   45.4808 N   0  0  0  0  0  0  0  0  0  0  0  0
   56.3174   21.6983   45.9681 C   0  0  0  0  0  0  0  0  0  0  0  0
   55.1187   21.6169   45.3609 N   0  0  0  0  0  0  0  0  0  0  0  0
   54.2779   21.3158   46.3735 C   0  0  0  0  0  0  0  0  0  0  0  0
   53.0444   21.1396   46.2006 O   0  0  0  0  0  0  0  0  0  0  0  0
   54.8612   21.2284   47.5880 N   0  0  0  0  0  0  0  0  0  0  0  0
   56.1488   21.4888   47.3132 C   0  0  0  0  0  0  0  0  0  0  0  0
   57.1511   21.5383   48.2754 O   0  0  0  0  0  0  0  0  0  0  0  0
   58.2180   31.2588   44.8800 C   0  0  0  0  0  0  0  0  0  0  0  0
   58.3839   31.7418   43.7265 O   0  0  0  0  0  0  0  0  0  0  0  0
   57.9977   32.1478   45.9969 N   0  0  0  0  0  0  0  0  0  0  0  0
   58.5638   31.8415   47.3185 C   0  0  0  0  0  0  0  0  0  0  0  0
   58.9519   33.1374   48.0551 C   0  0  0  0  0  0  0  0  0  0  0  0
   59.4972   34.1498   47.1244 N   0  0  0  0  0  0  0  0  0  0  0  0
   58.5096   34.5618   46.0885 C   0  0  0  0  0  0  0  0  0  0  0  0
   57.4456   33.4879   45.7809 C   0  0  0  0  0  0  0  0  0  0  0  0
   60.7863   33.7204   46.5368 C   0  0  0  0  0  0  0  0  0  0  0  0
   61.7753   33.3970   47.6254 C   0  0  0  0  0  0  0  0  0  0  0  0
   62.6326   32.2901   47.5099 C   0  0  0  0  0  0  0  0  0  0  0  0
   63.5511   32.0023   48.5241 C   0  0  0  0  0  0  0  0  0  0  0  0
   63.6204   32.8153   49.6588 C   0  0  0  0  0  0  0  0  0  0  0  0
   62.7711   33.9182   49.7811 C   0  0  0  0  0  0  0  0  0  0  0  0
   61.8524   34.2111   48.7674 C   0  0  0  0  0  0  0  0  0  0  0  0
  7  8  2  0
  8  9  1  0
  9 10  2  0
 10 15  1  0
 15 16  1  0
 16 17  1  0
 17 18  2  0
 17 19  1  0
 19 20  1  0
 20 21  1  0
  9 11  1  0
 11 12  1  0
 12 13  2  0
 12 14  1  0
 14  1  1  0
  1  2  2  0
  2  3  1  0
  3  4  2  0
  4 22  1  0
 22 23  2  0
 22 24  1  0
 24 25  1  0
 25 26  1  0
 26 27  1  0
 27 30  1  0
 30 31  1  0
 31 32  2  0
 32 33  1  0
 33 34  2  0
 34 35  1  0
 35 36  2  0
 27 28  1  0
 28 29  1  0
  4  5  1  0
  5  6  2  0
 14  8  1  0
  6  1  1  0
 20 15  2  0
 29 24  1  0
 36 31  1  0
M  CHG 1  11  -1
M  CHG 1  16  -1
M  CHG 1  19  -1
M  CHG 1  21  -1
M  END
> <UniqueID>
39

> <SMILES>
C=c1c(=Cc2[n-]c(=O)[n-]c2[O-])[n-]c(=O)n1-c1ccc(C(=O)N2CCN(Cc3ccccc3)CC2)cc1

> <Energy>
157.2305778240352

> <Genealogy>
C=c1c(=Cc2[n-]c(=O)[n-]c2[O-])[n-]c(=O)n1-c1ccc(C(=O)N2CCN(Cc3ccccc3)CC2)cc1 (protonated)
C=c1c(=Cc2[n-]c(=O)[n-]c2[O-])[n-]c(=O)n1-c1ccc(C(=O)N2CCN(Cc3ccccc3)CC2)cc1 (3D coordinates assigned)
C=c1c(=Cc2[n-]c(=O)[n-]c2[O-])[n-]c(=O)n1-c1ccc(C(=O)N2CCN(Cc3ccccc3)CC2)cc1 (nonaromatic ring conformer: 157.2305778240352 kcal/mol)

> <smiles>
C=c1c(=Cc2[nH]c(=O)[nH]c2O)[nH]c(=O)n1-c1ccc(C(=O)N2CCN(Cc3ccccc3)CC2)cc1

> <score_type>
oracle

> <origin>
adg

> <m_score__min__energy>
-18.059999999999999

> <m_primary>
energy

> <minimizedAffinity>
-7.76494

> <minimizedRMSD>
0.40711

> <CNNscore>
0.0379800610

> <CNNaffinity>
6.0742340088

> <CNN_VS>
0.2306997776

> <CNNaffinity_variance>
0.3458046019

$$$$
52:0


 28 31  0  0  0  0  0  0  0  0999 V2000
   54.9090   28.0724   53.6430 C   0  0  0  0  0  0  0  0  0  0  0  0
   55.5959   29.1708   53.2873 C   0  0  0  0  0  0  0  0  0  0  0  0
   55.0618   30.3692   52.7923 C   0  0  0  0  0  0  0  0  0  0  0  0
   53.7947   30.8276   52.7628 C   0  0  0  0  0  0  0  0  0  0  0  0
   56.1304   31.0921   52.2975 C   0  0  0  0  0  0  0  0  0  0  0  0
   57.2768   30.3647   52.5616 C   0  0  0  0  0  0  0  0  0  0  0  0
   56.9512   29.2073   53.1923 N   0  0  0  0  0  0  0  0  0  0  0  0
   57.8894   28.1632   53.6216 C   0  0  0  0  0  0  0  0  0  0  0  0
   52.8962   30.7926   51.5972 C   0  0  0  0  0  0  0  0  0  0  0  0
   52.9491   29.8723   50.6152 N   0  0  0  0  0  0  0  0  0  0  0  0
   51.8646   30.1591   49.8622 C   0  0  0  0  0  0  0  0  0  0  0  0
   51.5739   29.5148   48.8219 O   0  0  0  0  0  0  0  0  0  0  0  0
   51.1123   31.1839   50.3179 N   0  0  0  0  0  0  0  0  0  0  0  0
   51.7720   31.5619   51.4250 C   0  0  0  0  0  0  0  0  0  0  0  0
   51.3527   32.5873   52.2621 O   0  0  0  0  0  0  0  0  0  0  0  0
   58.6557   30.7440   52.1455 C   0  0  0  0  0  0  0  0  0  0  0  0
   59.5619   30.7565   53.0234 O   0  0  0  0  0  0  0  0  0  0  0  0
   59.0112   31.0500   50.7731 N   0  0  0  0  0  0  0  0  0  0  0  0
   59.3874   29.8453   50.0081 C   0  0  0  0  0  0  0  0  0  0  0  0
   59.5768   30.1876   48.5156 C   0  0  0  0  0  0  0  0  0  0  0  0
   60.2322   31.5028   48.2829 N   0  0  0  0  0  0  0  0  0  0  0  0
   60.9545   31.9985   49.4742 C   0  0  0  0  0  0  0  0  0  0  0  0
   60.0394   32.1192   50.7121 C   0  0  0  0  0  0  0  0  0  0  0  0
   58.2891   31.2233   50.1267 H   0  0  0  0  0  0  0  0  0  0  0  0
   59.3061   32.5033   47.7080 C   0  0  0  0  0  0  0  0  0  0  0  0
   60.0056   33.3347   46.6235 C   0  0  0  0  0  0  0  0  0  0  0  0
   59.0696   33.8658   45.5469 C   0  0  0  0  0  0  0  0  0  0  0  0
   59.6566   34.8171   46.5758 C   0  0  0  0  0  0  0  0  0  0  0  0
  1  2  2  0
  2  3  1  0
  3  4  2  0
  4  9  1  0
  9 10  1  0
 10 11  1  0
 11 12  2  0
 11 13  1  0
 13 14  1  0
 14 15  1  0
  3  5  1  0
  5  6  2  0
  6 16  1  0
 16 17  2  0
 16 18  1  0
 18 19  1  0
 19 20  1  0
 20 21  1  0
 21 25  1  0
 25 26  1  0
 26 27  1  0
 27 28  1  0
 21 22  1  0
 22 23  1  0
  6  7  1  0
  7  8  1  0
  7  2  1  0
 14  9  2  0
 23 18  1  0
 28 26  1  0
 18 24  1  0
M  CHG 1  10  -1
M  CHG 1  13  -1
M  CHG 1  15  -1
M  CHG 1  18   1
M  END
> <UniqueID>
51

> <SMILES>
C=c1/c(=C\c2[n-]c(=O)[n-]c2[O-])cc(C(=O)[NH+]2CCN(CC3CC3)CC2)n1C

> <Energy>
404.29112381232335

> <Genealogy>
C=c1c(=Cc2[n-]c(=O)[n-]c2[O-])cc(C(=O)[NH+]2CCN(CC3CC3)CC2)n1C (protonated)
C=c1/c(=C\c2[n-]c(=O)[n-]c2[O-])cc(C(=O)[NH+]2CCN(CC3CC3)CC2)n1C (cis-trans isomerization)
C=c1/c(=C\c2[n-]c(=O)[n-]c2[O-])cc(C(=O)[NH+]2CCN(CC3CC3)CC2)n1C (3D coordinates assigned)
C=c1/c(=C\c2[n-]c(=O)[n-]c2[O-])cc(C(=O)[NH+]2CCN(CC3CC3)CC2)n1C (nonaromatic ring conformer: 404.29112381232335 kcal/mol)

> <smiles>
C=c1c(=Cc2[nH]c(=O)[nH]c2O)cc(C(=O)N2CCN(CC3CC3)CC2)n1C

> <score_type>
oracle

> <origin>
adg

> <m_score__min__energy>
-16.449999999999999

> <m_primary>
energy

> <minimizedAffinity>
-5.96225

> <minimizedRMSD>
0.96285

> <CNNscore>
0.0817880630

> <CNNaffinity>
5.4193115234

> <CNN_VS>
0.4432349801

> <CNNaffinity_variance>
0.0473189466

$$$$
60:0


 33 36  0  0  0  0  0  0  0  0999 V2000
   57.5200   31.4933   52.2770 C   0  0  0  0  0  0  0  0  0  0  0  0
   58.0109   32.1976   53.2024 O   0  0  0  0  0  0  0  0  0  0  0  0
   58.0583   31.5869   50.9497 N   0  0  0  0  0  0  0  0  0  0  0  0
   57.6318   31.0720   50.2271 H   0  0  0  0  0  0  0  0  0  0  0  0
   54.8764   27.8748   54.0954 C   0  0  0  0  0  0  0  0  0  0  0  0
   55.1914   28.9334   53.3305 C   0  0  0  0  0  0  0  0  0  0  0  0
   54.2946   29.8481   52.7591 C   0  0  0  0  0  0  0  0  0  0  0  0
   52.9561   29.8014   52.6122 C   0  0  0  0  0  0  0  0  0  0  0  0
   55.0595   30.9130   52.3160 C   0  0  0  0  0  0  0  0  0  0  0  0
   56.3808   30.5941   52.5635 C   0  0  0  0  0  0  0  0  0  0  0  0
   56.4657   29.3730   53.1497 N   0  0  0  0  0  0  0  0  0  0  0  0
   57.6995   28.6955   53.5637 C   0  0  0  0  0  0  0  0  0  0  0  0
   52.2121   30.2141   51.4105 C   0  0  0  0  0  0  0  0  0  0  0  0
   52.1661   29.5188   50.2583 N   0  0  0  0  0  0  0  0  0  0  0  0
   51.4968   30.3423   49.4233 C   0  0  0  0  0  0  0  0  0  0  0  0
   51.2364   30.0331   48.2317 O   0  0  0  0  0  0  0  0  0  0  0  0
   51.1397   31.5276   49.9624 N   0  0  0  0  0  0  0  0  0  0  0  0
   51.6129   31.4352   51.2146 C   0  0  0  0  0  0  0  0  0  0  0  0
   51.5037   32.4467   52.1597 O   0  0  0  0  0  0  0  0  0  0  0  0
   59.2178   32.4198   50.6325 C   0  0  0  0  0  0  0  0  0  0  0  0
   59.9123   31.8952   49.4056 C   0  0  0  0  0  0  0  0  0  0  0  0
   61.2425   32.2500   49.1297 C   0  0  0  0  0  0  0  0  0  0  0  0
   61.8857   31.7410   47.9999 C   0  0  0  0  0  0  0  0  0  0  0  0
   61.2146   30.8650   47.1444 C   0  0  0  0  0  0  0  0  0  0  0  0
   59.8929   30.4812   47.4190 C   0  0  0  0  0  0  0  0  0  0  0  0
   59.2414   31.0155   48.5414 C   0  0  0  0  0  0  0  0  0  0  0  0
   59.1727   29.5580   46.5195 C   0  0  0  0  0  0  0  0  0  0  0  0
   59.4081   28.3224   46.5995 O   0  0  0  0  0  0  0  0  0  0  0  0
   58.2252   30.0362   45.5472 N   0  0  0  0  0  0  0  0  0  0  0  0
   57.3302   29.1490   44.8242 C   0  0  0  0  0  0  0  0  0  0  0  0
   56.5627   30.0396   43.8577 C   0  0  0  0  0  0  0  0  0  0  0  0
   57.3842   31.3192   43.7370 C   0  0  0  0  0  0  0  0  0  0  0  0
   58.2327   31.3849   45.0001 C   0  0  0  0  0  0  0  0  0  0  0  0
  5  6  2  0
  6  7  1  0
  7  8  2  0
  8 13  1  0
 13 14  1  0
 14 15  1  0
 15 16  2  0
 15 17  1  0
 17 18  1  0
 18 19  1  0
  7  9  1  0
  9 10  2  0
 10  1  1  0
  1  2  2  0
  1  3  1  0
  3 20  1  0
 20 21  1  0
 21 22  2  0
 22 23  1  0
 23 24  2  0
 24 25  1  0
 25 27  1  0
 27 28  2  0
 27 29  1  0
 29 30  1  0
 30 31  1  0
 31 32  1  0
 32 33  1  0
 25 26  2  0
 10 11  1  0
 11 12  1  0
 11  6  1  0
 18 13  2  0
 26 21  1  0
 33 29  1  0
  3  4  1  0
M  CHG 1  14  -1
M  CHG 1  17  -1
M  CHG 1  19  -1
M  END
> <UniqueID>
58

> <SMILES>
C=c1c(=Cc2[n-]c(=O)[n-]c2[O-])cc(C(=O)NCc2cccc(C(=O)N3CCCC3)c2)n1C

> <Energy>
130.30063561231975

> <Genealogy>
C=c1c(=Cc2[n-]c(=O)[n-]c2[O-])cc(C(=O)NCc2cccc(C(=O)N3CCCC3)c2)n1C (protonated)
C=c1c(=Cc2[n-]c(=O)[n-]c2[O-])cc(C(=O)NCc2cccc(C(=O)N3CCCC3)c2)n1C (3D coordinates assigned)
C=c1c(=Cc2[n-]c(=O)[n-]c2[O-])cc(C(=O)NCc2cccc(C(=O)N3CCCC3)c2)n1C (nonaromatic ring conformer: 130.30063561231975 kcal/mol)

> <smiles>
C=c1c(=Cc2[nH]c(=O)[nH]c2O)cc(C(=O)NCc2cccc(C(=O)N3CCCC3)c2)n1C

> <score_type>
oracle

> <origin>
adg

> <m_score__min__energy>
-19.640000000000001

> <m_primary>
energy

> <minimizedAffinity>
-7.54825

> <minimizedRMSD>
0.77570

> <CNNscore>
0.0505181849

> <CNNaffinity>
5.8075332642

> <CNN_VS>
0.2933860421

> <CNNaffinity_variance>
0.2147631645

$$$$
63:0


 35 39  0  0  0  0  0  0  0  0999 V2000
   57.2218   29.4318   55.3147 C   0  0  0  0  0  0  0  0  0  0  0  0
   57.1200   30.1393   54.1768 C   0  0  0  0  0  0  0  0  0  0  0  0
   55.9931   30.1910   53.3467 C   0  0  0  0  0  0  0  0  0  0  0  0
   54.7963   29.6101   53.5533 C   0  0  0  0  0  0  0  0  0  0  0  0
   56.3343   30.9990   52.2745 C   0  0  0  0  0  0  0  0  0  0  0  0
   57.6360   31.3989   52.4804 C   0  0  0  0  0  0  0  0  0  0  0  0
   58.1203   30.8903   53.6391 N   0  0  0  0  0  0  0  0  0  0  0  0
   58.4039   32.2264   51.5318 C   0  0  0  0  0  0  0  0  0  0  0  0
   58.7217   33.4003   51.8667 O   0  0  0  0  0  0  0  0  0  0  0  0
   58.7905   31.7119   50.2415 N   0  0  0  0  0  0  0  0  0  0  0  0
   58.9041   30.2562   50.0442 C   0  0  0  0  0  0  0  0  0  0  0  0
   59.6336   29.9186   48.7415 C   0  0  0  0  0  0  0  0  0  0  0  0
   59.0696   30.7055   47.6429 N   0  0  0  0  0  0  0  0  0  0  0  0
   58.9841   30.1111   46.3385 C   0  0  0  0  0  0  0  0  0  0  0  0
   60.0348   29.6792   45.7939 O   0  0  0  0  0  0  0  0  0  0  0  0
   58.8225   32.1429   47.8129 C   0  0  0  0  0  0  0  0  0  0  0  0
   59.2629   32.6327   49.1979 C   0  0  0  0  0  0  0  0  0  0  0  0
   57.6717   29.9479   45.6070 C   0  0  0  0  0  0  0  0  0  0  0  0
   57.3036   31.0679   44.6351 C   0  0  0  0  0  0  0  0  0  0  0  0
   57.2955   30.0640   43.4895 C   0  0  0  0  0  0  0  0  0  0  0  0
   57.7060   28.9537   44.4507 C   0  0  0  0  0  0  0  0  0  0  0  0
   53.5770   29.9459   52.7931 C   0  0  0  0  0  0  0  0  0  0  0  0
   53.4916   29.8467   51.4546 N   0  0  0  0  0  0  0  0  0  0  0  0
   52.2568   30.3250   51.1830 C   0  0  0  0  0  0  0  0  0  0  0  0
   51.7949   30.3813   50.0132 O   0  0  0  0  0  0  0  0  0  0  0  0
   51.5618   30.7462   52.2601 N   0  0  0  0  0  0  0  0  0  0  0  0
   52.4146   30.5116   53.2706 C   0  0  0  0  0  0  0  0  0  0  0  0
   52.1516   30.8523   54.5923 O   0  0  0  0  0  0  0  0  0  0  0  0
   59.5181   31.0028   54.0861 C   0  0  0  0  0  0  0  0  0  0  0  0
   60.3986   30.0898   53.2718 C   0  0  0  0  0  0  0  0  0  0  0  0
   60.0884   28.7240   53.1633 C   0  0  0  0  0  0  0  0  0  0  0  0
   60.8645   27.8866   52.3564 C   0  0  0  0  0  0  0  0  0  0  0  0
   61.9539   28.4066   51.6512 C   0  0  0  0  0  0  0  0  0  0  0  0
   62.2722   29.7636   51.7570 C   0  0  0  0  0  0  0  0  0  0  0  0
   61.5006   30.6032   52.5648 C   0  0  0  0  0  0  0  0  0  0  0  0
  1  2  2  0
  2  3  1  0
  3  4  2  0
  4 22  1  0
 22 23  1  0
 23 24  1  0
 24 25  2  0
 24 26  1  0
 26 27  1  0
 27 28  1  0
  3  5  1  0
  5  6  2  0
  6  8  1  0
  8  9  2  0
  8 10  1  0
 10 11  1  0
 11 12  1  0
 12 13  1  0
 13 14  1  0
 14 15  2  0
 14 18  1  0
 18 19  1  0
 19 20  1  0
 20 21  1  0
 13 16  1  0
 16 17  1  0
  6  7  1  0
  7 29  1  0
 29 30  1  0
 30 31  2  0
 31 32  1  0
 32 33  2  0
 33 34  1  0
 34 35  2  0
  7  2  1  0
 35 30  1  0
 27 22  2  0
 17 10  1  0
 21 18  1  0
M  CHG 1  23  -1
M  CHG 1  26  -1
M  CHG 1  28  -1
M  END
> <UniqueID>
61

> <SMILES>
C=c1/c(=C/c2[n-]c(=O)[n-]c2[O-])cc(C(=O)N2CCN(C(=O)C3CCC3)CC2)n1Cc1ccccc1

> <Energy>
197.3732211125839

> <Genealogy>
C=c1c(=Cc2[n-]c(=O)[n-]c2[O-])cc(C(=O)N2CCN(C(=O)C3CCC3)CC2)n1Cc1ccccc1 (protonated)
C=c1/c(=C/c2[n-]c(=O)[n-]c2[O-])cc(C(=O)N2CCN(C(=O)C3CCC3)CC2)n1Cc1ccccc1 (cis-trans isomerization)
C=c1/c(=C/c2[n-]c(=O)[n-]c2[O-])cc(C(=O)N2CCN(C(=O)C3CCC3)CC2)n1Cc1ccccc1 (3D coordinates assigned)
C=c1/c(=C/c2[n-]c(=O)[n-]c2[O-])cc(C(=O)N2CCN(C(=O)C3CCC3)CC2)n1Cc1ccccc1 (nonaromatic ring conformer: 197.3732211125839 kcal/mol)

> <smiles>
C=c1c(=Cc2[nH]c(=O)[nH]c2O)cc(C(=O)N2CCN(C(=O)C3CCC3)CC2)n1Cc1ccccc1

> <score_type>
oracle

> <origin>
adg

> <m_score__min__energy>
-17

> <m_primary>
energy

> <minimizedAffinity>
-7.59479

> <minimizedRMSD>
2.77427

> <CNNscore>
0.0541363619

> <CNNaffinity>
5.6405930519

> <CNN_VS>
0.3053611815

> <CNNaffinity_variance>
0.5265920758

$$$$
82:0


 32 35  0  0  0  0  0  0  0  0999 V2000
   59.2397   27.6596   48.6809 C   0  0  0  0  0  0  0  0  0  0  0  0
   59.2518   28.4873   47.6259 C   0  0  0  0  0  0  0  0  0  0  0  0
   59.2159   28.1257   46.2693 C   0  0  0  0  0  0  0  0  0  0  0  0
   59.3452   26.9274   45.6628 C   0  0  0  0  0  0  0  0  0  0  0  0
   59.0432   29.2990   45.5588 C   0  0  0  0  0  0  0  0  0  0  0  0
   59.0385   30.3259   46.4760 C   0  0  0  0  0  0  0  0  0  0  0  0
   59.1669   29.8421   47.7354 N   0  0  0  0  0  0  0  0  0  0  0  0
   58.5160   25.7381   45.9118 C   0  0  0  0  0  0  0  0  0  0  0  0
   58.9651   24.4696   45.9025 N   0  0  0  0  0  0  0  0  0  0  0  0
   57.8356   23.7344   46.0129 C   0  0  0  0  0  0  0  0  0  0  0  0
   57.8435   22.4753   46.0503 O   0  0  0  0  0  0  0  0  0  0  0  0
   56.6927   24.4576   46.0584 N   0  0  0  0  0  0  0  0  0  0  0  0
   57.1426   25.7222   45.9787 C   0  0  0  0  0  0  0  0  0  0  0  0
   56.3118   26.8415   45.9584 O   0  0  0  0  0  0  0  0  0  0  0  0
   58.9614   31.7549   46.1108 C   0  0  0  0  0  0  0  0  0  0  0  0
   59.9912   32.6286   46.4936 C   0  0  0  0  0  0  0  0  0  0  0  0
   59.9352   33.9818   46.1460 C   0  0  0  0  0  0  0  0  0  0  0  0
   58.8495   34.4731   45.4190 C   0  0  0  0  0  0  0  0  0  0  0  0
   57.8116   33.6152   45.0445 C   0  0  0  0  0  0  0  0  0  0  0  0
   57.8535   32.2491   45.3933 C   0  0  0  0  0  0  0  0  0  0  0  0
   56.8271   31.3584   45.0349 O   0  0  0  0  0  0  0  0  0  0  0  0
   56.7077   30.7415   43.7544 C   0  0  0  0  0  0  0  0  0  0  0  0
   59.2914   30.6417   48.9646 C   0  0  0  0  0  0  0  0  0  0  0  0
   60.7431   30.8328   49.3171 C   0  0  0  0  0  0  0  0  0  0  0  0
   61.5988   30.4767   48.5215 O   0  0  0  0  0  0  0  0  0  0  0  0
   61.1187   31.4539   50.5763 N   0  0  0  0  0  0  0  0  0  0  0  0
   59.9410   32.0140   51.2924 C   0  0  0  0  0  0  0  0  0  0  0  0
   59.7771   33.5303   51.0635 C   0  0  0  0  0  0  0  0  0  0  0  0
   60.2603   33.8961   49.7885 O   0  0  0  0  0  0  0  0  0  0  0  0
   61.6737   33.7686   49.7474 C   0  0  0  0  0  0  0  0  0  0  0  0
   62.1935   32.4518   50.3821 C   0  0  0  0  0  0  0  0  0  0  0  0
   60.3003   31.9077   50.2705 H   0  0  0  0  0  0  0  0  0  0  0  0
  1  2  2  0
  2  3  1  0
  3  4  2  0
  4  8  1  0
  8  9  1  0
  9 10  1  0
 10 11  2  0
 10 12  1  0
 12 13  1  0
 13 14  1  0
  3  5  1  0
  5  6  2  0
  6 15  1  0
 15 16  2  0
 16 17  1  0
 17 18  2  0
 18 19  1  0
 19 20  2  0
 20 21  1  0
 21 22  1  0
  6  7  1  0
  7 23  1  0
 23 24  1  0
 24 25  2  0
 24 26  1  0
 26 27  1  0
 27 28  1  0
 28 29  1  0
 29 30  1  0
 30 31  1  0
  7  2  1  0
 31 26  1  0
 13  8  2  0
 20 15  1  0
 26 32  1  0
M  CHG 1   9  -1
M  CHG 1  12  -1
M  CHG 1  14  -1
M  CHG 1  26   1
M  END
> <UniqueID>
80

> <SMILES>
C=c1c(=Cc2[n-]c(=O)[n-]c2[O-])cc(-c2ccccc2OC)n1CC(=O)[NH+]1CCOCC1

> <Energy>
140.96871701217006

> <Genealogy>
C=c1c(=Cc2[n-]c(=O)[n-]c2[O-])cc(-c2ccccc2OC)n1CC(=O)[NH+]1CCOCC1 (protonated)
C=c1c(=Cc2[n-]c(=O)[n-]c2[O-])cc(-c2ccccc2OC)n1CC(=O)[NH+]1CCOCC1 (3D coordinates assigned)
C=c1c(=Cc2[n-]c(=O)[n-]c2[O-])cc(-c2ccccc2OC)n1CC(=O)[NH+]1CCOCC1 (nonaromatic ring conformer: 140.96871701217006 kcal/mol)

> <smiles>
C=c1c(=Cc2[nH]c(=O)[nH]c2O)cc(-c2ccccc2OC)n1CC(=O)N1CCOCC1

> <score_type>
oracle

> <origin>
adg

> <m_score__min__energy>
-15.27

> <m_primary>
energy

> <minimizedAffinity>
-8.00699

> <minimizedRMSD>
1.59641

> <CNNscore>
0.3354969025

> <CNNaffinity>
6.6925787926

> <CNN_VS>
2.2453393936

> <CNNaffinity_variance>
0.1125724912

$$$$
86:0


 29 32  0  0  0  0  0  0  0  0999 V2000
   59.5866   27.2131   45.9341 C   0  0  0  0  0  0  0  0  0  0  0  0
   59.8060   28.0148   46.9949 C   0  0  0  0  0  0  0  0  0  0  0  0
   60.1713   27.6011   48.2644 C   0  0  0  0  0  0  0  0  0  0  0  0
   60.2441   28.7345   49.0463 C   0  0  0  0  0  0  0  0  0  0  0  0
   60.6030   28.7216   50.5017 C   0  0  0  0  0  0  0  0  0  0  0  0
   59.9653   29.8429   48.3161 N   0  0  0  0  0  0  0  0  0  0  0  0
   59.6675   29.4063   47.0577 C   0  0  0  0  0  0  0  0  0  0  0  0
   59.3072   30.1993   46.0331 C   0  0  0  0  0  0  0  0  0  0  0  0
   56.4743   27.3037   45.7756 O   0  0  0  0  0  0  0  0  0  0  0  0
   57.2530   26.1531   45.8724 C   0  0  0  0  0  0  0  0  0  0  0  0
   56.7331   24.9182   45.9583 N   0  0  0  0  0  0  0  0  0  0  0  0
   57.8282   24.1425   46.1056 C   0  0  0  0  0  0  0  0  0  0  0  0
   57.7594   22.8916   46.2296 O   0  0  0  0  0  0  0  0  0  0  0  0
   59.0003   24.8108   46.1188 N   0  0  0  0  0  0  0  0  0  0  0  0
   58.6313   26.0916   45.9468 C   0  0  0  0  0  0  0  0  0  0  0  0
   55.5409   27.2353   45.7307 H   0  0  0  0  0  0  0  0  0  0  0  0
   59.9286   31.2209   48.8429 C   0  0  0  0  0  0  0  0  0  0  0  0
   61.2551   31.9268   48.6544 C   0  0  0  0  0  0  0  0  0  0  0  0
   62.4056   31.3945   49.2671 C   0  0  0  0  0  0  0  0  0  0  0  0
   63.6470   32.0160   49.1174 C   0  0  0  0  0  0  0  0  0  0  0  0
   63.7569   33.1840   48.3645 C   0  0  0  0  0  0  0  0  0  0  0  0
   62.6255   33.7397   47.7661 C   0  0  0  0  0  0  0  0  0  0  0  0
   61.3720   33.1254   47.9065 C   0  0  0  0  0  0  0  0  0  0  0  0
   60.2061   33.7749   47.2854 C   0  0  0  0  0  0  0  0  0  0  0  0
   59.4398   34.4765   47.9945 O   0  0  0  0  0  0  0  0  0  0  0  0
   59.8979   33.5789   45.9020 N   0  0  0  0  0  0  0  0  0  0  0  0
   58.7049   34.1284   45.2688 C   0  0  0  0  0  0  0  0  0  0  0  0
   57.4260   33.3944   45.6248 C   0  0  0  0  0  0  0  0  0  0  0  0
   58.0815   33.1735   44.2686 C   0  0  0  0  0  0  0  0  0  0  0  0
  9 10  1  0
 10 11  1  0
 11 12  1  0
 12 13  2  0
 12 14  1  0
 14 15  1  0
 15  1  1  0
  1  2  2  0
  2  3  1  0
  3  4  2  0
  4  5  1  0
  4  6  1  0
  6 17  1  0
 17 18  1  0
 18 19  2  0
 19 20  1  0
 20 21  2  0
 21 22  1  0
 22 23  2  0
 23 24  1  0
 24 25  2  0
 24 26  1  0
 26 27  1  0
 27 28  1  0
 28 29  1  0
  6  7  1  0
  7  8  2  0
 15 10  2  0
  7  2  1  0
 23 18  1  0
 29 27  1  0
  9 16  1  0
M  CHG 1  11  -1
M  CHG 1  14  -1
M  CHG 1  26  -1
M  END
> <UniqueID>
84

> <SMILES>
C=c1/c(=C/c2[n-]c(=O)[n-]c2O)cc(C)n1Cc1ccccc1C(=O)[N-]C1CC1

> <Energy>
385.58046219228925

> <Genealogy>
C=c1c(=Cc2[n-]c(=O)[n-]c2O)cc(C)n1Cc1ccccc1C(=O)[N-]C1CC1 (protonated)
C=c1/c(=C/c2[n-]c(=O)[n-]c2O)cc(C)n1Cc1ccccc1C(=O)[N-]C1CC1 (cis-trans isomerization)
C=c1/c(=C/c2[n-]c(=O)[n-]c2O)cc(C)n1Cc1ccccc1C(=O)[N-]C1CC1 (3D coordinates assigned)
C=c1/c(=C/c2[n-]c(=O)[n-]c2O)cc(C)n1Cc1ccccc1C(=O)[N-]C1CC1 (nonaromatic ring conformer: 385.58046219228925 kcal/mol)

> <smiles>
C=c1c(=Cc2[nH]c(=O)[nH]c2O)cc(C)n1Cc1ccccc1C(=O)NC1CC1

> <score_type>
oracle

> <origin>
adg

> <m_score__min__energy>
-14.630000000000001

> <m_primary>
energy

> <minimizedAffinity>
-8.86876

> <minimizedRMSD>
1.32261

> <CNNscore>
0.7157087326

> <CNNaffinity>
7.2569789886

> <CNN_VS>
5.1938834190

> <CNNaffinity_variance>
0.2443660945

$$$$
88:0


 24 26  0  0  0  0  0  0  0  0999 V2000
   54.3616   27.4829   53.9139 C   0  0  0  0  0  0  0  0  0  0  0  0
   54.9934   28.6107   53.5574 C   0  0  0  0  0  0  0  0  0  0  0  0
   56.3394   28.6386   53.7401 N   0  0  0  0  0  0  0  0  0  0  0  0
   57.1486   29.6182   53.2585 C   0  0  0  0  0  0  0  0  0  0  0  0
   58.6129   29.5312   53.5750 C   0  0  0  0  0  0  0  0  0  0  0  0
   56.5932   30.6435   52.4608 C   0  0  0  0  0  0  0  0  0  0  0  0
   55.2002   30.6644   52.2890 C   0  0  0  0  0  0  0  0  0  0  0  0
   54.3621   29.7061   52.8933 C   0  0  0  0  0  0  0  0  0  0  0  0
   53.0231   29.9135   52.8061 C   0  0  0  0  0  0  0  0  0  0  0  0
   52.2735   30.2943   51.5946 C   0  0  0  0  0  0  0  0  0  0  0  0
   52.2591   29.5577   50.4703 N   0  0  0  0  0  0  0  0  0  0  0  0
   51.5570   30.3204   49.6045 C   0  0  0  0  0  0  0  0  0  0  0  0
   51.3134   29.9569   48.4243 O   0  0  0  0  0  0  0  0  0  0  0  0
   51.1482   31.5090   50.0974 N   0  0  0  0  0  0  0  0  0  0  0  0
   51.6211   31.4847   51.3531 C   0  0  0  0  0  0  0  0  0  0  0  0
   51.4856   32.5395   52.2479 O   0  0  0  0  0  0  0  0  0  0  0  0
   57.4056   31.7093   51.8190 C   0  0  0  0  0  0  0  0  0  0  0  0
   57.5191   32.8456   52.3550 O   0  0  0  0  0  0  0  0  0  0  0  0
   58.0756   31.4368   50.6201 O   0  0  0  0  0  0  0  0  0  0  0  0
   59.4534   31.7411   50.4050 C   0  0  0  0  0  0  0  0  0  0  0  0
   59.6299   32.8542   49.3787 C   0  0  0  0  0  0  0  0  0  0  0  0
   60.8746   33.6287   49.8043 C   0  0  0  0  0  0  0  0  0  0  0  0
   61.2262   33.1670   51.2174 C   0  0  0  0  0  0  0  0  0  0  0  0
   60.0815   32.2792   51.6773 C   0  0  0  0  0  0  0  0  0  0  0  0
  1  2  2  0
  2  3  1  0
  3  4  2  0
  4  5  1  0
  4  6  1  0
  6 17  1  0
 17 18  2  0
 17 19  1  0
 19 20  1  0
 20 21  1  0
 21 22  1  0
 22 23  1  0
 23 24  1  0
  6  7  2  0
  7  8  1  0
  8  9  2  0
  9 10  1  0
 10 11  1  0
 11 12  1  0
 12 13  2  0
 12 14  1  0
 14 15  1  0
 15 16  1  0
  8  2  1  0
 15 10  2  0
 24 20  1  0
M  CHG 1  11  -1
M  CHG 1  14  -1
M  CHG 1  16  -1
M  END
> <UniqueID>
86

> <SMILES>
C=c1nc(C)c(C(=O)OC2CCCC2)c/c1=C/c1[n-]c(=O)[n-]c1[O-]

> <Energy>
92.43238500956042

> <Genealogy>
C=c1nc(C)c(C(=O)OC2CCCC2)cc1=Cc1[n-]c(=O)[n-]c1[O-] (protonated)
C=c1nc(C)c(C(=O)OC2CCCC2)c/c1=C/c1[n-]c(=O)[n-]c1[O-] (cis-trans isomerization)
C=c1nc(C)c(C(=O)OC2CCCC2)c/c1=C/c1[n-]c(=O)[n-]c1[O-] (3D coordinates assigned)
C=c1nc(C)c(C(=O)OC2CCCC2)c/c1=C/c1[n-]c(=O)[n-]c1[O-] (nonaromatic ring conformer: 92.43238500956042 kcal/mol)

> <smiles>
C=c1nc(C)c(C(=O)OC2CCCC2)cc1=Cc1[nH]c(=O)[nH]c1O

> <score_type>
oracle

> <origin>
adg

> <m_score__min__energy>
-16.399999999999999

> <m_primary>
energy

> <minimizedAffinity>
-5.17496

> <minimizedRMSD>
0.94434

> <CNNscore>
0.1661256105

> <CNNaffinity>
4.9244561195

> <CNN_VS>
0.8180782795

> <CNNaffinity_variance>
0.1211079583

$$$$
2:0


 30 32  0  0  0  0  0  0  0  0999 V2000
   57.2278   29.2653   44.9989 C   0  0  0  0  0  0  0  0  0  0  0  0
   56.0068   29.4398   44.7319 O   0  0  0  0  0  0  0  0  0  0  0  0
   58.0491   30.4005   45.3511 N   0  0  0  0  0  0  0  0  0  0  0  0
   57.6065   31.7328   44.9108 C   0  0  0  0  0  0  0  0  0  0  0  0
   58.5779   32.8183   45.3581 C   0  0  0  0  0  0  0  0  0  0  0  0
   58.9235   32.5721   46.7594 N   0  0  0  0  0  0  0  0  0  0  0  0
   59.7916   31.3876   46.8887 C   0  0  0  0  0  0  0  0  0  0  0  0
   59.3788   30.2161   45.9632 C   0  0  0  0  0  0  0  0  0  0  0  0
   59.7079   33.9752   47.4492 S   0  0  0  0  0  0  0  0  0  0  0  0
   59.7340   35.0820   46.4314 O   0  0  0  0  0  0  0  0  0  0  0  0
   58.9209   34.4544   48.6366 O   0  0  0  0  0  0  0  0  0  0  0  0
   61.3631   33.6106   47.9494 C   0  0  0  0  0  0  0  0  0  0  0  0
   61.6890   33.5154   49.3109 C   0  0  0  0  0  0  0  0  0  0  0  0
   62.9991   33.2192   49.7028 C   0  0  0  0  0  0  0  0  0  0  0  0
   63.9875   33.0163   48.7358 C   0  0  0  0  0  0  0  0  0  0  0  0
   63.6703   33.1096   47.3793 C   0  0  0  0  0  0  0  0  0  0  0  0
   62.3610   33.4076   46.9851 C   0  0  0  0  0  0  0  0  0  0  0  0
   57.7765   27.8697   44.9314 C   0  0  0  0  0  0  0  0  0  0  0  0
   57.2505   27.0785   46.0385 N   0  0  0  0  0  0  0  0  0  0  0  0
   55.2212   25.9552   46.1533 O   0  0  0  0  0  0  0  0  0  0  0  0
   56.4485   25.9029   45.8751 C   0  0  0  0  0  0  0  0  0  0  0  0
   57.0141   24.6501   45.3440 C   0  0  0  0  0  0  0  0  0  0  0  0
   56.2388   23.8767   44.4648 C   0  0  0  0  0  0  0  0  0  0  0  0
   56.7495   22.6913   43.9280 C   0  0  0  0  0  0  0  0  0  0  0  0
   55.9760   21.9334   43.0593 O   0  0  0  0  0  0  0  0  0  0  0  0
   58.0360   22.2673   44.2678 C   0  0  0  0  0  0  0  0  0  0  0  0
   58.8105   23.0235   45.1524 C   0  0  0  0  0  0  0  0  0  0  0  0
   58.3050   24.2049   45.7065 C   0  0  0  0  0  0  0  0  0  0  0  0
   59.0924   24.8984   46.6279 O   0  0  0  0  0  0  0  0  0  0  0  0
   59.9451   24.5794   46.8492 H   0  0  0  0  0  0  0  0  0  0  0  0
 20 21  2  0
 21 19  1  0
 19 18  1  0
 18  1  1  0
  1  2  2  0
  1  3  1  0
  3  4  1  0
  4  5  1  0
  5  6  1  0
  6  9  1  0
  9 10  2  0
  9 11  2  0
  9 12  1  0
 12 13  2  0
 13 14  1  0
 14 15  2  0
 15 16  1  0
 16 17  2  0
  6  7  1  0
  7  8  1  0
 21 22  1  0
 22 23  2  0
 23 24  1  0
 24 25  1  0
 24 26  2  0
 26 27  1  0
 27 28  2  0
 28 29  1  0
  8  3  1  0
 28 22  1  0
 17 12  1  0
 29 30  1  0
M  CHG 1  19  -1
M  CHG 1  25  -1
M  END
> <UniqueID>
3

> <SMILES>
O=C([N-]CC(=O)N1CCN(S(=O)(=O)c2ccccc2)CC1)c1cc([O-])ccc1O

> <Energy>
58.61012090978271

> <Genealogy>
O=C([N-]CC(=O)N1CCN(S(=O)(=O)c2ccccc2)CC1)c1cc([O-])ccc1O (protonated)
O=C([N-]CC(=O)N1CCN(S(=O)(=O)c2ccccc2)CC1)c1cc([O-])ccc1O (3D coordinates assigned)
O=C([N-]CC(=O)N1CCN(S(=O)(=O)c2ccccc2)CC1)c1cc([O-])ccc1O (nonaromatic ring conformer: 58.61012090978271 kcal/mol)

> <smiles>
O=C(NCC(=O)N1CCN(S(=O)(=O)c2ccccc2)CC1)c1cc(O)ccc1O

> <score_type>
oracle

> <origin>
adg

> <m_score__min__energy>
-14.470000000000001

> <m_primary>
energy

> <minimizedAffinity>
-8.55785

> <minimizedRMSD>
0.75451

> <CNNscore>
0.6758524179

> <CNNaffinity>
6.6071987152

> <CNN_VS>
4.4654912949

> <CNNaffinity_variance>
0.1442352682

$$$$
5:0


 28 30  0  0  0  0  0  0  0  0999 V2000
   57.9728   27.2358   47.2513 O   0  0  0  0  0  0  0  0  0  0  0  0
   57.7954   27.5904   46.0556 C   0  0  0  0  0  0  0  0  0  0  0  0
   58.5835   26.9356   44.9654 C   0  0  0  0  0  0  0  0  0  0  0  0
   57.8504   25.7912   44.4345 N   0  0  0  0  0  0  0  0  0  0  0  0
   57.7458   24.6638   45.0714 C   0  0  0  0  0  0  0  0  0  0  0  0
   56.4328   24.0032   45.2741 C   0  0  0  0  0  0  0  0  0  0  0  0
   55.3432   24.7505   45.7589 C   0  0  0  0  0  0  0  0  0  0  0  0
   55.4777   26.1116   46.0260 O   0  0  0  0  0  0  0  0  0  0  0  0
   54.1431   24.1471   45.9718 N   0  0  0  0  0  0  0  0  0  0  0  0
   53.9667   22.8263   45.7251 C   0  0  0  0  0  0  0  0  0  0  0  0
   52.8477   22.2913   45.9356 O   0  0  0  0  0  0  0  0  0  0  0  0
   54.9973   22.0801   45.2556 N   0  0  0  0  0  0  0  0  0  0  0  0
   56.2167   22.6288   45.0233 C   0  0  0  0  0  0  0  0  0  0  0  0
   57.1418   21.8920   44.5881 O   0  0  0  0  0  0  0  0  0  0  0  0
   56.2996   26.5381   45.8831 H   0  0  0  0  0  0  0  0  0  0  0  0
   56.9317   28.6874   45.7319 N   0  0  0  0  0  0  0  0  0  0  0  0
   57.2504   29.8136   44.9001 C   0  0  0  0  0  0  0  0  0  0  0  0
   56.6772   29.9738   43.6238 C   0  0  0  0  0  0  0  0  0  0  0  0
   57.0143   31.0760   42.8334 C   0  0  0  0  0  0  0  0  0  0  0  0
   57.9303   32.0196   43.3001 C   0  0  0  0  0  0  0  0  0  0  0  0
   58.5219   31.8593   44.5540 C   0  0  0  0  0  0  0  0  0  0  0  0
   58.1916   30.7575   45.3550 C   0  0  0  0  0  0  0  0  0  0  0  0
   58.9756   30.5779   46.9618 S   0  0  0  0  0  0  0  0  0  0  0  0
   59.3433   32.3248   47.0811 C   0  0  0  0  0  0  0  0  0  0  0  0
   58.4141   33.3513   47.1547 C   0  0  0  0  0  0  0  0  0  0  0  0
   58.9554   34.5967   47.2338 N   0  0  0  0  0  0  0  0  0  0  0  0
   60.3075   34.5680   47.2246 C   0  0  0  0  0  0  0  0  0  0  0  0
   60.8837   32.9908   47.1149 S   0  0  0  0  0  0  0  0  0  0  0  0
  1  2  2  0
  2  3  1  0
  3  4  1  0
  4  5  2  0
  5  6  1  0
  6  7  2  0
  7  8  1  0
  7  9  1  0
  9 10  1  0
 10 11  2  0
 10 12  1  0
 12 13  1  0
 13 14  2  0
  2 16  1  0
 16 17  1  0
 17 18  2  0
 18 19  1  0
 19 20  2  0
 20 21  1  0
 21 22  2  0
 22 23  1  0
 23 24  1  0
 24 25  2  0
 25 26  1  0
 26 27  2  0
 27 28  1  0
 13  6  1  0
 22 17  1  0
 28 24  1  0
  8 15  1  0
M  CHG 1   9  -1
M  CHG 1  12  -1
M  CHG 1  16  -1
M  END
> <UniqueID>
6

> <SMILES>
O=C(CN=Cc1c(O)[n-]c(=O)[n-]c1=O)[N-]c1ccccc1Sc1cncs1

> <Energy>
67.10028798893234

> <Genealogy>
O=C(CN=Cc1c(O)[n-]c(=O)[n-]c1=O)[N-]c1ccccc1Sc1cncs1 (protonated)
O=C(CN=Cc1c(O)[n-]c(=O)[n-]c1=O)[N-]c1ccccc1Sc1cncs1 (3D coordinates assigned)
O=C(CN=Cc1c(O)[n-]c(=O)[n-]c1=O)[N-]c1ccccc1Sc1cncs1 (optimized conformer: 67.10028798893234 kcal/mol)

> <smiles>
O=C(CN=Cc1c(O)[nH]c(=O)[nH]c1=O)Nc1ccccc1Sc1cncs1

> <score_type>
oracle

> <origin>
adg

> <m_score__min__energy>
-14.48

> <m_primary>
energy

> <minimizedAffinity>
-7.14579

> <minimizedRMSD>
0.70536

> <CNNscore>
0.2161740214

> <CNNaffinity>
6.5944199562

> <CNN_VS>
1.4255422354

> <CNNaffinity_variance>
0.0892581865

$$$$
6:0


 31 34  0  0  0  0  0  0  0  0999 V2000
   58.7535   28.1369   47.7567 C   0  0  0  0  0  0  0  0  0  0  0  0
   58.4237   28.8989   46.7033 C   0  0  0  0  0  0  0  0  0  0  0  0
   57.7994   28.4966   45.5084 C   0  0  0  0  0  0  0  0  0  0  0  0
   57.4971   27.2713   45.0320 C   0  0  0  0  0  0  0  0  0  0  0  0
   57.5361   29.6920   44.8438 C   0  0  0  0  0  0  0  0  0  0  0  0
   56.8704   29.8550   43.5103 C   0  0  0  0  0  0  0  0  0  0  0  0
   58.0073   30.7200   45.5705 N   0  0  0  0  0  0  0  0  0  0  0  0
   58.5512   30.2508   46.6822 N   0  0  0  0  0  0  0  0  0  0  0  0
   57.9560   31.6698   45.3166 H   0  0  0  0  0  0  0  0  0  0  0  0
   57.3821   26.0436   45.8423 C   0  0  0  0  0  0  0  0  0  0  0  0
   56.1256   25.6014   46.2800 C   0  0  0  0  0  0  0  0  0  0  0  0
   54.9795   26.3366   46.0026 O   0  0  0  0  0  0  0  0  0  0  0  0
   56.0235   24.4481   46.9906 N   0  0  0  0  0  0  0  0  0  0  0  0
   57.1202   23.6994   47.2737 C   0  0  0  0  0  0  0  0  0  0  0  0
   57.0021   22.6369   47.9372 O   0  0  0  0  0  0  0  0  0  0  0  0
   58.3441   24.0929   46.8376 N   0  0  0  0  0  0  0  0  0  0  0  0
   58.4992   25.2367   46.1230 C   0  0  0  0  0  0  0  0  0  0  0  0
   59.6467   25.5617   45.7154 O   0  0  0  0  0  0  0  0  0  0  0  0
   59.0965   31.1207   47.7303 C   0  0  0  0  0  0  0  0  0  0  0  0
   58.6612   32.5480   47.5224 C   0  0  0  0  0  0  0  0  0  0  0  0
   57.5419   32.7729   46.9852 O   0  0  0  0  0  0  0  0  0  0  0  0
   59.5467   33.6482   47.8067 N   0  0  0  0  0  0  0  0  0  0  0  0
   60.0557   33.8451   49.1670 C   0  0  0  0  0  0  0  0  0  0  0  0
   61.5256   33.5063   49.2353 C   0  0  0  0  0  0  0  0  0  0  0  0
   62.1272   33.3050   50.4860 C   0  0  0  0  0  0  0  0  0  0  0  0
   63.4980   33.0451   50.5768 C   0  0  0  0  0  0  0  0  0  0  0  0
   64.2786   32.9947   49.4211 C   0  0  0  0  0  0  0  0  0  0  0  0
   63.6946   33.2069   48.1706 C   0  0  0  0  0  0  0  0  0  0  0  0
   62.3222   33.4814   48.0628 C   0  0  0  0  0  0  0  0  0  0  0  0
   61.7124   33.6435   46.6868 C   0  0  0  0  0  0  0  0  0  0  0  0
   60.3246   34.2871   46.7434 C   0  0  0  0  0  0  0  0  0  0  0  0
  1  2  2  0
  2  3  1  0
  3  4  2  0
  4 10  1  0
 10 11  2  0
 11 12  1  0
 11 13  1  0
 13 14  1  0
 14 15  2  0
 14 16  1  0
 16 17  1  0
 17 18  2  0
  3  5  1  0
  5  6  1  0
  5  7  2  0
  7  8  1  0
  8 19  1  0
 19 20  1  0
 20 21  2  0
 20 22  1  0
 22 23  1  0
 23 24  1  0
 24 25  2  0
 25 26  1  0
 26 27  2  0
 27 28  1  0
 28 29  2  0
 29 30  1  0
 30 31  1  0
  8  2  1  0
 31 22  1  0
 17 10  1  0
 29 24  1  0
  7  9  1  0
M  CHG 1   7   1
M  CHG 1  12  -1
M  CHG 1  13  -1
M  CHG 1  16  -1
M  END
> <UniqueID>
7

> <SMILES>
C=c1/c(=C\c2c([O-])[n-]c(=O)[n-]c2=O)c(C)[nH+]n1CC(=O)N1CCc2ccccc2C1

> <Energy>
105.00489304691912

> <Genealogy>
C=c1c(=Cc2c([O-])[n-]c(=O)[n-]c2=O)c(C)[nH+]n1CC(=O)N1CCc2ccccc2C1 (protonated)
C=c1/c(=C\c2c([O-])[n-]c(=O)[n-]c2=O)c(C)[nH+]n1CC(=O)N1CCc2ccccc2C1 (cis-trans isomerization)
C=c1/c(=C\c2c([O-])[n-]c(=O)[n-]c2=O)c(C)[nH+]n1CC(=O)N1CCc2ccccc2C1 (3D coordinates assigned)
C=c1/c(=C\c2c([O-])[n-]c(=O)[n-]c2=O)c(C)[nH+]n1CC(=O)N1CCc2ccccc2C1 (nonaromatic ring conformer: 105.00489304691912 kcal/mol)

> <smiles>
C=c1c(=Cc2c(O)[nH]c(=O)[nH]c2=O)c(C)nn1CC(=O)N1CCc2ccccc2C1

> <score_type>
oracle

> <origin>
adg

> <m_score__min__energy>
-15.949999999999999

> <m_primary>
energy

> <minimizedAffinity>
-8.73941

> <minimizedRMSD>
0.63059

> <CNNscore>
0.1858534962

> <CNNaffinity>
6.5805516243

> <CNN_VS>
1.2230185270

> <CNNaffinity_variance>
0.0070077856

$$$$
14:0


 25 27  0  0  0  0  0  0  0  0999 V2000
   57.1806   31.5695   52.7239 C   0  0  0  0  0  0  0  0  0  0  0  0
   57.4459   30.8206   53.8853 C   0  0  0  0  0  0  0  0  0  0  0  0
   56.5194   29.8853   54.3513 C   0  0  0  0  0  0  0  0  0  0  0  0
   55.3195   29.6832   53.6671 C   0  0  0  0  0  0  0  0  0  0  0  0
   55.0350   30.4199   52.5075 C   0  0  0  0  0  0  0  0  0  0  0  0
   55.9749   31.3509   52.0338 C   0  0  0  0  0  0  0  0  0  0  0  0
   58.1794   33.7210   52.6815 O   0  0  0  0  0  0  0  0  0  0  0  0
   58.1640   32.5515   52.2073 C   0  0  0  0  0  0  0  0  0  0  0  0
   59.1089   32.1876   51.1870 N   0  0  0  0  0  0  0  0  0  0  0  0
   59.2121   31.2373   50.9511 H   0  0  0  0  0  0  0  0  0  0  0  0
   59.9216   33.1810   50.4880 C   0  0  0  0  0  0  0  0  0  0  0  0
   59.6787   33.1016   49.0062 C   0  0  0  0  0  0  0  0  0  0  0  0
   59.9697   34.1911   48.1720 C   0  0  0  0  0  0  0  0  0  0  0  0
   59.7094   34.0984   46.8035 C   0  0  0  0  0  0  0  0  0  0  0  0
   59.1746   32.9597   46.2864 N   0  0  0  0  0  0  0  0  0  0  0  0
   58.8763   31.8910   47.0722 C   0  0  0  0  0  0  0  0  0  0  0  0
   59.1213   31.9433   48.4468 C   0  0  0  0  0  0  0  0  0  0  0  0
   53.7631   30.1728   51.7448 C   0  0  0  0  0  0  0  0  0  0  0  0
   52.5906   30.6903   52.5186 C   0  0  0  0  0  0  0  0  0  0  0  0
   52.3709   30.4308   53.8204 N   0  0  0  0  0  0  0  0  0  0  0  0
   51.2619   31.1505   54.0970 C   0  0  0  0  0  0  0  0  0  0  0  0
   50.7298   31.1631   55.2369 O   0  0  0  0  0  0  0  0  0  0  0  0
   50.7701   31.8595   53.0577 N   0  0  0  0  0  0  0  0  0  0  0  0
   51.6280   31.5617   52.0680 C   0  0  0  0  0  0  0  0  0  0  0  0
   51.5358   32.0800   50.7830 O   0  0  0  0  0  0  0  0  0  0  0  0
  7  8  2  0
  8  9  1  0
  9 11  1  0
 11 12  1  0
 12 13  2  0
 13 14  1  0
 14 15  2  0
 15 16  1  0
 16 17  2  0
  8  1  1  0
  1  2  2  0
  2  3  1  0
  3  4  2  0
  4  5  1  0
  5 18  1  0
 18 19  1  0
 19 20  1  0
 20 21  1  0
 21 22  2  0
 21 23  1  0
 23 24  1  0
 24 25  1  0
  5  6  2  0
 17 12  1  0
  6  1  1  0
 24 19  2  0
  9 10  1  0
M  CHG 1  20  -1
M  CHG 1  23  -1
M  CHG 1  25  -1
M  END
> <UniqueID>
14

> <SMILES>
O=C(NCc1ccncc1)c1cccc(Cc2[n-]c(=O)[n-]c2[O-])c1

> <Energy>
67.93081049026436

> <Genealogy>
O=C(NCc1ccncc1)c1cccc(Cc2[n-]c(=O)[n-]c2[O-])c1 (protonated)
O=C(NCc1ccncc1)c1cccc(Cc2[n-]c(=O)[n-]c2[O-])c1 (3D coordinates assigned)
O=C(NCc1ccncc1)c1cccc(Cc2[n-]c(=O)[n-]c2[O-])c1 (optimized conformer: 67.93081049026436 kcal/mol)

> <smiles>
O=C(NCc1ccncc1)c1cccc(Cc2[nH]c(=O)[nH]c2O)c1

> <score_type>
oracle

> <origin>
adg

> <m_score__min__energy>
-16.600000000000001

> <m_primary>
energy

> <minimizedAffinity>
-6.50283

> <minimizedRMSD>
1.16306

> <CNNscore>
0.5838154554

> <CNNaffinity>
5.6161198616

> <CNN_VS>
3.2787775993

> <CNNaffinity_variance>
0.0830522254

$$$$
16:0


 32 35  0  0  0  0  0  0  0  0999 V2000
   58.4465   26.3275   45.1520 C   0  0  0  0  0  0  0  0  0  0  0  0
   58.4645   27.6737   45.1867 C   0  0  0  0  0  0  0  0  0  0  0  0
   57.8841   28.4533   44.1982 C   0  0  0  0  0  0  0  0  0  0  0  0
   58.0297   29.7674   44.5869 C   0  0  0  0  0  0  0  0  0  0  0  0
   57.5207   30.9511   43.8199 C   0  0  0  0  0  0  0  0  0  0  0  0
   58.6902   29.8398   45.7621 N   0  0  0  0  0  0  0  0  0  0  0  0
   58.9895   28.5697   46.1344 C   0  0  0  0  0  0  0  0  0  0  0  0
   59.7391   28.2773   47.2070 C   0  0  0  0  0  0  0  0  0  0  0  0
   55.4580   26.6149   45.9344 O   0  0  0  0  0  0  0  0  0  0  0  0
   56.3078   25.5843   46.3309 C   0  0  0  0  0  0  0  0  0  0  0  0
   55.9037   24.5388   47.0696 N   0  0  0  0  0  0  0  0  0  0  0  0
   57.0227   23.7888   47.1644 C   0  0  0  0  0  0  0  0  0  0  0  0
   57.0549   22.6962   47.7876 O   0  0  0  0  0  0  0  0  0  0  0  0
   58.1005   24.2970   46.5298 N   0  0  0  0  0  0  0  0  0  0  0  0
   57.6463   25.4550   46.0229 C   0  0  0  0  0  0  0  0  0  0  0  0
   54.5592   26.6090   46.1991 H   0  0  0  0  0  0  0  0  0  0  0  0
   59.0619   31.0590   46.4279 C   0  0  0  0  0  0  0  0  0  0  0  0
   58.1557   32.1260   46.4907 C   0  0  0  0  0  0  0  0  0  0  0  0
   58.5377   33.3363   47.0726 C   0  0  0  0  0  0  0  0  0  0  0  0
   59.8278   33.4925   47.5846 C   0  0  0  0  0  0  0  0  0  0  0  0
   60.7401   32.4288   47.5387 C   0  0  0  0  0  0  0  0  0  0  0  0
   60.3512   31.2106   46.9594 C   0  0  0  0  0  0  0  0  0  0  0  0
   62.3830   32.6443   48.1538 S   0  0  0  0  0  0  0  0  0  0  0  0
   62.8852   33.9870   47.7025 O   0  0  0  0  0  0  0  0  0  0  0  0
   63.2771   31.5975   47.5477 O   0  0  0  0  0  0  0  0  0  0  0  0
   62.4938   32.5512   49.9003 N   0  0  0  0  0  0  0  0  0  0  0  0
   61.3732   33.2196   50.5950 C   0  0  0  0  0  0  0  0  0  0  0  0
   60.3117   32.2409   51.1250 C   0  0  0  0  0  0  0  0  0  0  0  0
   60.2679   31.0422   50.2779 N   0  0  0  0  0  0  0  0  0  0  0  0
   59.1141   30.2008   50.6273 C   0  0  0  0  0  0  0  0  0  0  0  0
   61.5250   30.2768   50.3971 C   0  0  0  0  0  0  0  0  0  0  0  0
   62.7706   31.1872   50.3887 C   0  0  0  0  0  0  0  0  0  0  0  0
  9 10  1  0
 10 11  1  0
 11 12  1  0
 12 13  2  0
 12 14  1  0
 14 15  1  0
 15  1  1  0
  1  2  2  0
  2  3  1  0
  3  4  2  0
  4  5  1  0
  4  6  1  0
  6 17  1  0
 17 18  2  0
 18 19  1  0
 19 20  2  0
 20 21  1  0
 21 23  1  0
 23 24  2  0
 23 25  2  0
 23 26  1  0
 26 27  1  0
 27 28  1  0
 28 29  1  0
 29 30  1  0
 29 31  1  0
 31 32  1  0
 21 22  2  0
  6  7  1  0
  7  8  2  0
 15 10  2  0
  7  2  1  0
 22 17  1  0
 32 26  1  0
  9 16  1  0
M  CHG 1  11  -1
M  CHG 1  14  -1
M  END
> <UniqueID>
16

> <SMILES>
C=c1/c(=C\c2[n-]c(=O)[n-]c2O)cc(C)n1-c1cccc(S(=O)(=O)N2CCN(C)CC2)c1

> <Energy>
140.0476136317955

> <Genealogy>
C=c1c(=Cc2[n-]c(=O)[n-]c2O)cc(C)n1-c1cccc(S(=O)(=O)N2CCN(C)CC2)c1 (protonated)
C=c1/c(=C\c2[n-]c(=O)[n-]c2O)cc(C)n1-c1cccc(S(=O)(=O)N2CCN(C)CC2)c1 (cis-trans isomerization)
C=c1/c(=C\c2[n-]c(=O)[n-]c2O)cc(C)n1-c1cccc(S(=O)(=O)N2CCN(C)CC2)c1 (3D coordinates assigned)
C=c1/c(=C\c2[n-]c(=O)[n-]c2O)cc(C)n1-c1cccc(S(=O)(=O)N2CCN(C)CC2)c1 (nonaromatic ring conformer: 140.0476136317955 kcal/mol)

> <smiles>
C=c1c(=Cc2[nH]c(=O)[nH]c2O)cc(C)n1-c1cccc(S(=O)(=O)N2CCN(C)CC2)c1

> <score_type>
oracle

> <origin>
adg

> <m_score__min__energy>
-14.550000000000001

> <m_primary>
energy

> <minimizedAffinity>
-9.31299

> <minimizedRMSD>
0.88688

> <CNNscore>
0.6537277102

> <CNNaffinity>
7.0903167725

> <CNN_VS>
4.6351366043

> <CNNaffinity_variance>
0.0286300685

$$$$
19:0


 33 36  0  0  0  0  0  0  0  0999 V2000
   60.7311   28.5653   50.4395 N   0  0  0  0  0  0  0  0  0  0  0  0
   59.9494   29.5422   50.8050 C   0  0  0  0  0  0  0  0  0  0  0  0
   58.6825   29.2489   51.1937 N   0  0  0  0  0  0  0  0  0  0  0  0
   57.8151   30.2296   51.5436 C   0  0  0  0  0  0  0  0  0  0  0  0
   56.6085   29.8979   51.9137 N   0  0  0  0  0  0  0  0  0  0  0  0
   58.2216   31.5235   51.4880 N   0  0  0  0  0  0  0  0  0  0  0  0
   59.4820   31.8418   51.1044 C   0  0  0  0  0  0  0  0  0  0  0  0
   59.8139   33.1002   51.0360 N   0  0  0  0  0  0  0  0  0  0  0  0
   60.3597   30.8453   50.7856 N   0  0  0  0  0  0  0  0  0  0  0  0
   61.2878   31.0658   50.5420 H   0  0  0  0  0  0  0  0  0  0  0  0
   55.4765   30.6765   52.4547 C   0  0  0  0  0  0  0  0  0  0  0  0
   54.5058   29.9459   53.3684 C   0  0  0  0  0  0  0  0  0  0  0  0
   54.0870   30.3271   51.9473 C   0  0  0  0  0  0  0  0  0  0  0  0
   60.6942   27.8329   49.1723 C   0  0  0  0  0  0  0  0  0  0  0  0
   58.2941   29.8648   46.2080 C   0  0  0  0  0  0  0  0  0  0  0  0
   59.3561   30.5326   46.8337 C   0  0  0  0  0  0  0  0  0  0  0  0
   60.1193   29.8812   47.8071 C   0  0  0  0  0  0  0  0  0  0  0  0
   59.8405   28.5492   48.1547 C   0  0  0  0  0  0  0  0  0  0  0  0
   58.7615   27.8912   47.5404 C   0  0  0  0  0  0  0  0  0  0  0  0
   58.0005   28.5428   46.5664 C   0  0  0  0  0  0  0  0  0  0  0  0
   55.8864   29.7874   44.6924 N   0  0  0  0  0  0  0  0  0  0  0  0
   57.3544   30.6599   44.9507 S   0  0  0  0  0  0  0  0  0  0  0  0
   57.0387   32.0692   45.3719 O   0  0  0  0  0  0  0  0  0  0  0  0
   58.1384   30.7046   43.6685 O   0  0  0  0  0  0  0  0  0  0  0  0
   55.3411   30.2477   43.9636 H   0  0  0  0  0  0  0  0  0  0  0  0
   61.0558   33.6307   50.4793 C   0  0  0  0  0  0  0  0  0  0  0  0
   60.9179   33.7591   48.9865 C   0  0  0  0  0  0  0  0  0  0  0  0
   59.7139   34.2414   48.4413 C   0  0  0  0  0  0  0  0  0  0  0  0
   59.5567   34.3445   47.0557 C   0  0  0  0  0  0  0  0  0  0  0  0
   60.5908   33.9590   46.2031 C   0  0  0  0  0  0  0  0  0  0  0  0
   61.7867   33.4646   46.7313 C   0  0  0  0  0  0  0  0  0  0  0  0
   61.9555   33.3568   48.1171 C   0  0  0  0  0  0  0  0  0  0  0  0
   63.4763   32.7075   48.7258 Cl  0  0  0  0  0  0  0  0  0  0  0  0
 21 22  1  0
 22 23  2  0
 22 24  2  0
 22 15  1  0
 15 16  2  0
 16 17  1  0
 17 18  2  0
 18 14  1  0
 14  1  1  0
  1  2  2  0
  2  3  1  0
  3  4  1  0
  4  5  2  0
  5 11  1  0
 11 12  1  0
 12 13  1  0
  4  6  1  0
  6  7  1  0
  7  8  2  0
  8 26  1  0
 26 27  1  0
 27 28  2  0
 28 29  1  0
 29 30  2  0
 30 31  1  0
 31 32  2  0
 32 33  1  0
  7  9  1  0
 18 19  1  0
 19 20  2  0
 20 15  1  0
  9  2  1  0
 13 11  1  0
 32 27  1  0
 21 25  1  0
  9 10  1  0
M  CHG 1   3  -1
M  CHG 1   6  -1
M  CHG 1  21  -1
M  END
> <UniqueID>
19

> <SMILES>
[NH-]S(=O)(=O)c1ccc(C/N=c2/[n-]c(=NC3CC3)[n-]c(=NCc3ccccc3Cl)[nH]2)cc1

> <Energy>
329.02510535263457

> <Genealogy>
[NH-]S(=O)(=O)c1ccc(CN=c2[n-]c(=NC3CC3)[n-]c(=NCc3ccccc3Cl)[nH]2)cc1 (protonated)
[NH-]S(=O)(=O)c1ccc(C/N=c2/[n-]c(=NC3CC3)[n-]c(=NCc3ccccc3Cl)[nH]2)cc1 (cis-trans isomerization)
[NH-]S(=O)(=O)c1ccc(C/N=c2/[n-]c(=NC3CC3)[n-]c(=NCc3ccccc3Cl)[nH]2)cc1 (3D coordinates assigned)
[NH-]S(=O)(=O)c1ccc(C/N=c2/[n-]c(=NC3CC3)[n-]c(=NCc3ccccc3Cl)[nH]2)cc1 (nonaromatic ring conformer: 329.02510535263457 kcal/mol)

> <smiles>
NS(=O)(=O)c1ccc(CN=c2[nH]c(=NCc3ccccc3Cl)[nH]c(=NC3CC3)[nH]2)cc1

> <score_type>
oracle

> <origin>
adg

> <m_score__min__energy>
-14.550000000000001

> <m_primary>
energy

> <minimizedAffinity>
-8.56337

> <minimizedRMSD>
1.30605

> <CNNscore>
0.7116897106

> <CNNaffinity>
6.9837684631

> <CNN_VS>
4.9702763557

> <CNNaffinity_variance>
0.1828033477

$$$$
22:0


 36 40  0  0  0  0  0  0  0  0999 V2000
   59.7147   33.2326   47.5251 C   0  0  0  0  0  0  0  0  0  0  0  0
   58.8838   34.1445   47.7976 O   0  0  0  0  0  0  0  0  0  0  0  0
   61.0531   33.3006   48.0558 N   0  0  0  0  0  0  0  0  0  0  0  0
   61.2806   34.1006   49.2686 C   0  0  0  0  0  0  0  0  0  0  0  0
   62.7069   33.9413   49.8080 C   0  0  0  0  0  0  0  0  0  0  0  0
   63.1735   32.4915   49.6180 C   0  0  0  0  0  0  0  0  0  0  0  0
   63.2983   32.1750   48.1087 C   0  0  0  0  0  0  0  0  0  0  0  0
   62.2004   32.8471   47.2502 C   0  0  0  0  0  0  0  0  0  0  0  0
   64.4684   32.2546   50.3748 C   0  0  0  0  0  0  0  0  0  0  0  0
   65.2965   33.2021   50.4667 O   0  0  0  0  0  0  0  0  0  0  0  0
   64.7534   31.0053   51.0533 N   0  0  0  0  0  0  0  0  0  0  0  0
   66.1729   30.6328   51.2308 C   0  0  0  0  0  0  0  0  0  0  0  0
   66.3810   29.3218   51.9557 C   0  0  0  0  0  0  0  0  0  0  0  0
   67.6525   28.7206   51.9432 C   0  0  0  0  0  0  0  0  0  0  0  0
   67.8847   27.5456   52.6670 C   0  0  0  0  0  0  0  0  0  0  0  0
   66.8558   26.9713   53.4196 C   0  0  0  0  0  0  0  0  0  0  0  0
   65.5890   27.5680   53.4483 C   0  0  0  0  0  0  0  0  0  0  0  0
   65.3442   28.7357   52.7082 C   0  0  0  0  0  0  0  0  0  0  0  0
   63.9998   29.3951   52.7694 C   0  0  0  0  0  0  0  0  0  0  0  0
   63.6805   30.0653   51.4353 C   0  0  0  0  0  0  0  0  0  0  0  0
   59.4342   28.8174   45.3906 C   0  0  0  0  0  0  0  0  0  0  0  0
   59.1806   30.0994   45.7335 C   0  0  0  0  0  0  0  0  0  0  0  0
   59.8793   30.8741   46.6499 C   0  0  0  0  0  0  0  0  0  0  0  0
   59.2739   32.1142   46.6672 C   0  0  0  0  0  0  0  0  0  0  0  0
   58.2587   32.1590   45.7739 N   0  0  0  0  0  0  0  0  0  0  0  0
   57.4442   33.3312   45.4327 C   0  0  0  0  0  0  0  0  0  0  0  0
   58.1781   30.9276   45.2100 C   0  0  0  0  0  0  0  0  0  0  0  0
   57.2540   30.5831   44.2977 C   0  0  0  0  0  0  0  0  0  0  0  0
   60.4749   26.1422   46.5312 O   0  0  0  0  0  0  0  0  0  0  0  0
   59.1394   26.4504   46.2941 C   0  0  0  0  0  0  0  0  0  0  0  0
   58.1358   25.5852   46.5168 N   0  0  0  0  0  0  0  0  0  0  0  0
   57.0448   26.2924   46.1640 C   0  0  0  0  0  0  0  0  0  0  0  0
   55.8794   25.8225   46.2251 O   0  0  0  0  0  0  0  0  0  0  0  0
   57.3009   27.5431   45.7311 N   0  0  0  0  0  0  0  0  0  0  0  0
   58.6386   27.6487   45.8261 C   0  0  0  0  0  0  0  0  0  0  0  0
   60.7102   25.2935   46.8511 H   0  0  0  0  0  0  0  0  0  0  0  0
 29 30  1  0
 30 31  1  0
 31 32  1  0
 32 33  2  0
 32 34  1  0
 34 35  1  0
 35 21  1  0
 21 22  2  0
 22 23  1  0
 23 24  2  0
 24  1  1  0
  1  2  2  0
  1  3  1  0
  3  4  1  0
  4  5  1  0
  5  6  1  0
  6  9  1  0
  9 10  2  0
  9 11  1  0
 11 12  1  0
 12 13  1  0
 13 14  2  0
 14 15  1  0
 15 16  2  0
 16 17  1  0
 17 18  2  0
 18 19  1  0
 19 20  1  0
  6  7  1  0
  7  8  1  0
 24 25  1  0
 25 26  1  0
 25 27  1  0
 27 28  2  0
 35 30  2  0
 27 22  1  0
  8  3  1  0
 20 11  1  0
 18 13  1  0
 29 36  1  0
M  CHG 1  31  -1
M  CHG 1  34  -1
M  END
> <UniqueID>
22

> <SMILES>
C=c1/c(=C/c2[n-]c(=O)[n-]c2O)cc(C(=O)N2CCC(C(=O)N3CCc4ccccc4C3)CC2)n1C

> <Energy>
140.68070865815073

> <Genealogy>
C=c1c(=Cc2[n-]c(=O)[n-]c2O)cc(C(=O)N2CCC(C(=O)N3CCc4ccccc4C3)CC2)n1C (protonated)
C=c1/c(=C/c2[n-]c(=O)[n-]c2O)cc(C(=O)N2CCC(C(=O)N3CCc4ccccc4C3)CC2)n1C (cis-trans isomerization)
C=c1/c(=C/c2[n-]c(=O)[n-]c2O)cc(C(=O)N2CCC(C(=O)N3CCc4ccccc4C3)CC2)n1C (3D coordinates assigned)
C=c1/c(=C/c2[n-]c(=O)[n-]c2O)cc(C(=O)N2CCC(C(=O)N3CCc4ccccc4C3)CC2)n1C (nonaromatic ring conformer: 140.68070865815073 kcal/mol)

> <smiles>
C=c1c(=Cc2[nH]c(=O)[nH]c2O)cc(C(=O)N2CCC(C(=O)N3CCc4ccccc4C3)CC2)n1C

> <score_type>
oracle

> <origin>
adg

> <m_score__min__energy>
-14.74

> <m_primary>
energy

> <minimizedAffinity>
-10.41730

> <minimizedRMSD>
1.14613

> <CNNscore>
0.1742324084

> <CNNaffinity>
6.8272013664

> <CNN_VS>
1.1895197630

> <CNNaffinity_variance>
0.0061064833

$$$$
43:0


 30 33  0  0  0  0  0  0  0  0999 V2000
   58.2251   27.2114   44.0720 C   0  0  0  0  0  0  0  0  0  0  0  0
   58.1135   26.3355   45.0710 C   0  0  0  0  0  0  0  0  0  0  0  0
   57.1390   25.4041   45.1296 N   0  0  0  0  0  0  0  0  0  0  0  0
   57.3938   24.6427   46.2164 C   0  0  0  0  0  0  0  0  0  0  0  0
   56.6760   23.5779   46.6037 C   0  0  0  0  0  0  0  0  0  0  0  0
   58.5415   25.0815   46.8533 C   0  0  0  0  0  0  0  0  0  0  0  0
   58.9873   26.1789   46.1408 C   0  0  0  0  0  0  0  0  0  0  0  0
   56.3877   25.2995   44.5019 H   0  0  0  0  0  0  0  0  0  0  0  0
   60.1828   26.9775   46.4735 C   0  0  0  0  0  0  0  0  0  0  0  0
   61.3120   26.4185   46.4518 O   0  0  0  0  0  0  0  0  0  0  0  0
   60.0820   28.3660   46.8382 N   0  0  0  0  0  0  0  0  0  0  0  0
   59.0490   28.8108   47.7862 C   0  0  0  0  0  0  0  0  0  0  0  0
   58.4970   30.1835   47.3808 C   0  0  0  0  0  0  0  0  0  0  0  0
   59.5647   31.0872   46.9319 N   0  0  0  0  0  0  0  0  0  0  0  0
   60.9695   30.6793   47.0400 C   0  0  0  0  0  0  0  0  0  0  0  0
   61.1560   29.2849   46.4319 C   0  0  0  0  0  0  0  0  0  0  0  0
   59.2220   32.3816   46.4085 C   0  0  0  0  0  0  0  0  0  0  0  0
   58.2066   32.5077   45.4458 C   0  0  0  0  0  0  0  0  0  0  0  0
   57.8734   33.7657   44.9323 C   0  0  0  0  0  0  0  0  0  0  0  0
   58.5552   34.9032   45.3703 C   0  0  0  0  0  0  0  0  0  0  0  0
   59.5721   34.7858   46.3214 C   0  0  0  0  0  0  0  0  0  0  0  0
   59.9089   33.5306   46.8402 C   0  0  0  0  0  0  0  0  0  0  0  0
   60.9205   33.4330   47.7394 F   0  0  0  0  0  0  0  0  0  0  0  0
   55.2818   23.3314   46.1950 C   0  0  0  0  0  0  0  0  0  0  0  0
   54.6522   22.1065   46.2036 C   0  0  0  0  0  0  0  0  0  0  0  0
   53.3452   22.3611   45.8442 C   0  0  0  0  0  0  0  0  0  0  0  0
   52.3616   21.3906   45.7151 O   0  0  0  0  0  0  0  0  0  0  0  0
   53.1173   23.6733   45.6409 N   0  0  0  0  0  0  0  0  0  0  0  0
   54.3073   24.2610   45.8709 C   0  0  0  0  0  0  0  0  0  0  0  0
   54.4925   25.6373   45.8336 O   0  0  0  0  0  0  0  0  0  0  0  0
  1  2  2  0
  2  3  1  0
  3  4  1  0
  4  5  2  0
  5 24  1  0
 24 25  1  0
 25 26  2  0
 26 27  1  0
 26 28  1  0
 28 29  1  0
 29 30  1  0
  4  6  1  0
  6  7  2  0
  7  9  1  0
  9 10  2  0
  9 11  1  0
 11 12  1  0
 12 13  1  0
 13 14  1  0
 14 17  1  0
 17 18  2  0
 18 19  1  0
 19 20  2  0
 20 21  1  0
 21 22  2  0
 22 23  1  0
 14 15  1  0
 15 16  1  0
  7  2  1  0
 16 11  1  0
 29 24  2  0
 22 17  1  0
  3  8  1  0
M  CHG 1  27  -1
M  CHG 1  28  -1
M  CHG 1  30  -1
M  END
> <UniqueID>
41

> <SMILES>
C=c1[nH]c(=Cc2cc([O-])[n-]c2[O-])cc1C(=O)N1CCN(c2ccccc2F)CC1

> <Energy>
119.18300919951858

> <Genealogy>
C=c1[nH]c(=Cc2cc([O-])[n-]c2[O-])cc1C(=O)N1CCN(c2ccccc2F)CC1 (protonated)
C=c1[nH]c(=Cc2cc([O-])[n-]c2[O-])cc1C(=O)N1CCN(c2ccccc2F)CC1 (3D coordinates assigned)
C=c1[nH]c(=Cc2cc([O-])[n-]c2[O-])cc1C(=O)N1CCN(c2ccccc2F)CC1 (nonaromatic ring conformer: 119.18300919951858 kcal/mol)

> <smiles>
C=c1[nH]c(=Cc2cc(O)[nH]c2O)cc1C(=O)N1CCN(c2ccccc2F)CC1

> <score_type>
oracle

> <origin>
adg

> <m_score__min__energy>
-17.23

> <m_primary>
energy

> <minimizedAffinity>
-7.02154

> <minimizedRMSD>
0.77504

> <CNNscore>
0.0807421133

> <CNNaffinity>
5.9763922691

> <CNN_VS>
0.4825465381

> <CNNaffinity_variance>
0.1102262735

$$$$
59:0


 35 38  0  0  0  0  0  0  0  0999 V2000
   60.4930   31.0191   50.1136 C   0  0  0  0  0  0  0  0  0  0  0  0
   61.6222   30.3314   50.4231 N   0  0  0  0  0  0  0  0  0  0  0  0
   62.5901   31.2587   50.3157 C   0  0  0  0  0  0  0  0  0  0  0  0
   63.9482   31.0866   50.5610 C   0  0  0  0  0  0  0  0  0  0  0  0
   64.8015   32.2092   50.4356 C   0  0  0  0  0  0  0  0  0  0  0  0
   64.2415   33.4692   50.0890 C   0  0  0  0  0  0  0  0  0  0  0  0
   62.8618   33.6051   49.8493 C   0  0  0  0  0  0  0  0  0  0  0  0
   62.0631   32.4641   49.9627 C   0  0  0  0  0  0  0  0  0  0  0  0
   60.7280   32.3365   49.8221 N   0  0  0  0  0  0  0  0  0  0  0  0
   66.2537   32.0628   50.7012 C   0  0  0  0  0  0  0  0  0  0  0  0
   66.8013   30.8443   51.2068 N   0  0  0  0  0  0  0  0  0  0  0  0
   67.0285   33.0332   50.4876 O   0  0  0  0  0  0  0  0  0  0  0  0
   66.2124   30.0746   51.3802 H   0  0  0  0  0  0  0  0  0  0  0  0
   67.7676   30.7741   51.3819 H   0  0  0  0  0  0  0  0  0  0  0  0
   58.2753   30.5738   51.2493 N   0  0  0  0  0  0  0  0  0  0  0  0
   59.1669   30.3709   50.1585 C   0  0  0  0  0  0  0  0  0  0  0  0
   58.8074   29.6399   49.1974 O   0  0  0  0  0  0  0  0  0  0  0  0
   57.3964   30.1302   51.2558 H   0  0  0  0  0  0  0  0  0  0  0  0
   59.7577   33.4072   49.5596 C   0  0  0  0  0  0  0  0  0  0  0  0
   59.4833   33.5408   48.0845 C   0  0  0  0  0  0  0  0  0  0  0  0
   60.3473   34.2812   47.2658 C   0  0  0  0  0  0  0  0  0  0  0  0
   60.0962   34.3884   45.8973 C   0  0  0  0  0  0  0  0  0  0  0  0
   59.0016   33.7380   45.3279 C   0  0  0  0  0  0  0  0  0  0  0  0
   58.1541   32.9604   46.1199 C   0  0  0  0  0  0  0  0  0  0  0  0
   58.3958   32.8688   47.5018 C   0  0  0  0  0  0  0  0  0  0  0  0
   57.0679   32.2677   45.4866 N   0  0  0  0  0  0  0  0  0  0  0  0
   57.2301   30.8743   44.4702 S   0  0  0  0  0  0  0  0  0  0  0  0
   55.8770   30.2812   44.2241 O   0  0  0  0  0  0  0  0  0  0  0  0
   57.8152   31.2920   43.1535 O   0  0  0  0  0  0  0  0  0  0  0  0
   58.2495   29.6728   45.2522 C   0  0  0  0  0  0  0  0  0  0  0  0
   57.6964   28.4531   45.6645 C   0  0  0  0  0  0  0  0  0  0  0  0
   58.4994   27.4884   46.2819 C   0  0  0  0  0  0  0  0  0  0  0  0
   59.8583   27.7379   46.4900 C   0  0  0  0  0  0  0  0  0  0  0  0
   60.4146   28.9553   46.0837 C   0  0  0  0  0  0  0  0  0  0  0  0
   59.6139   29.9210   45.4648 C   0  0  0  0  0  0  0  0  0  0  0  0
 15 16  1  0
 16 17  2  0
 16  1  1  0
  1  2  2  0
  2  3  1  0
  3  4  2  0
  4  5  1  0
  5 10  1  0
 10 11  1  0
 10 12  2  0
  5  6  2  0
  6  7  1  0
  7  8  2  0
  8  9  1  0
  9 19  1  0
 19 20  1  0
 20 21  2  0
 21 22  1  0
 22 23  2  0
 23 24  1  0
 24 26  1  0
 26 27  1  0
 27 28  2  0
 27 29  2  0
 27 30  1  0
 30 31  2  0
 31 32  1  0
 32 33  2  0
 33 34  1  0
 34 35  2  0
 24 25  2  0
  9  1  1  0
 25 20  1  0
  8  3  1  0
 35 30  1  0
 15 18  1  0
 11 13  1  0
 11 14  1  0
M  CHG 1  15  -1
M  CHG 1  26  -1
M  END
> <UniqueID>
53

> <SMILES>
[NH-]C(=O)c1nc2cc(C(N)=O)ccc2n1Cc1cccc([N-]S(=O)(=O)c2ccccc2)c1

> <Energy>
94.95506457857832

> <Genealogy>
[NH-]C(=O)c1nc2cc(C(N)=O)ccc2n1Cc1cccc([N-]S(=O)(=O)c2ccccc2)c1 (protonated)
[NH-]C(=O)c1nc2cc(C(N)=O)ccc2n1Cc1cccc([N-]S(=O)(=O)c2ccccc2)c1 (3D coordinates assigned)
[NH-]C(=O)c1nc2cc(C(N)=O)ccc2n1Cc1cccc([N-]S(=O)(=O)c2ccccc2)c1 (optimized conformer: 94.95506457857832 kcal/mol)

> <smiles>
NC(=O)c1ccc2c(c1)nc(C(N)=O)n2Cc1cccc(NS(=O)(=O)c2ccccc2)c1

> <score_type>
oracle

> <origin>
adg

> <m_score__min__energy>
-14.539999999999999

> <m_primary>
energy

> <minimizedAffinity>
-8.61756

> <minimizedRMSD>
0.86919

> <CNNscore>
0.6825238466

> <CNNaffinity>
6.7090868950

> <CNN_VS>
4.5791115761

> <CNNaffinity_variance>
0.1248148307

$$$$
63:0


 30 33  0  0  0  0  0  0  0  0999 V2000
   55.8601   29.9423   43.9450 C   0  0  0  0  0  0  0  0  0  0  0  0
   56.8809   29.3748   44.5916 C   0  0  0  0  0  0  0  0  0  0  0  0
   56.8036   28.1664   45.1827 N   0  0  0  0  0  0  0  0  0  0  0  0
   57.9956   27.9544   45.7856 C   0  0  0  0  0  0  0  0  0  0  0  0
   58.3043   26.8939   46.5479 C   0  0  0  0  0  0  0  0  0  0  0  0
   58.8380   29.0341   45.5808 C   0  0  0  0  0  0  0  0  0  0  0  0
   58.1327   29.9358   44.8037 C   0  0  0  0  0  0  0  0  0  0  0  0
   56.0305   27.5568   45.1769 H   0  0  0  0  0  0  0  0  0  0  0  0
   57.7964   25.5323   46.3093 C   0  0  0  0  0  0  0  0  0  0  0  0
   58.5990   24.4778   46.0804 N   0  0  0  0  0  0  0  0  0  0  0  0
   57.7313   23.4703   45.8453 C   0  0  0  0  0  0  0  0  0  0  0  0
   58.1088   22.2936   45.5980 O   0  0  0  0  0  0  0  0  0  0  0  0
   56.4295   23.8216   45.8854 N   0  0  0  0  0  0  0  0  0  0  0  0
   56.4864   25.1328   46.1687 C   0  0  0  0  0  0  0  0  0  0  0  0
   55.3671   25.9525   46.2480 O   0  0  0  0  0  0  0  0  0  0  0  0
   58.5832   31.3335   44.4737 C   0  0  0  0  0  0  0  0  0  0  0  0
   58.7882   32.1581   45.7133 C   0  0  0  0  0  0  0  0  0  0  0  0
   59.7930   32.0008   46.6623 C   0  0  0  0  0  0  0  0  0  0  0  0
   59.7662   32.9701   47.6771 C   0  0  0  0  0  0  0  0  0  0  0  0
   58.7393   33.9011   47.5194 C   0  0  0  0  0  0  0  0  0  0  0  0
   57.8867   33.5175   46.1207 S   0  0  0  0  0  0  0  0  0  0  0  0
   60.6958   32.9717   48.8248 C   0  0  0  0  0  0  0  0  0  0  0  0
   61.4282   33.9774   49.0299 O   0  0  0  0  0  0  0  0  0  0  0  0
   60.7448   31.8650   49.7404 N   0  0  0  0  0  0  0  0  0  0  0  0
   60.7230   32.1301   51.1805 C   0  0  0  0  0  0  0  0  0  0  0  0
   60.6422   30.8198   51.9798 C   0  0  0  0  0  0  0  0  0  0  0  0
   59.7544   29.8326   51.3302 N   0  0  0  0  0  0  0  0  0  0  0  0
   58.3437   30.2598   51.3527 C   0  0  0  0  0  0  0  0  0  0  0  0
   60.1996   29.4543   49.9645 C   0  0  0  0  0  0  0  0  0  0  0  0
   61.0755   30.5170   49.2657 C   0  0  0  0  0  0  0  0  0  0  0  0
  1  2  2  0
  2  3  1  0
  3  4  1  0
  4  5  2  0
  5  9  1  0
  9 10  1  0
 10 11  1  0
 11 12  2  0
 11 13  1  0
 13 14  1  0
 14 15  1  0
  4  6  1  0
  6  7  2  0
  7 16  1  0
 16 17  1  0
 17 18  2  0
 18 19  1  0
 19 22  1  0
 22 23  2  0
 22 24  1  0
 24 25  1  0
 25 26  1  0
 26 27  1  0
 27 28  1  0
 27 29  1  0
 29 30  1  0
 19 20  2  0
 20 21  1  0
  7  2  1  0
 21 17  1  0
 14  9  2  0
 30 24  1  0
  3  8  1  0
M  CHG 1  10  -1
M  CHG 1  13  -1
M  CHG 1  15  -1
M  END
> <UniqueID>
57

> <SMILES>
C=c1[nH]c(=Cc2[n-]c(=O)[n-]c2[O-])cc1Cc1cc(C(=O)N2CCN(C)CC2)cs1

> <Energy>
145.3252928273523

> <Genealogy>
C=c1[nH]c(=Cc2[n-]c(=O)[n-]c2[O-])cc1Cc1cc(C(=O)N2CCN(C)CC2)cs1 (protonated)
C=c1[nH]c(=Cc2[n-]c(=O)[n-]c2[O-])cc1Cc1cc(C(=O)N2CCN(C)CC2)cs1 (3D coordinates assigned)
C=c1[nH]c(=Cc2[n-]c(=O)[n-]c2[O-])cc1Cc1cc(C(=O)N2CCN(C)CC2)cs1 (nonaromatic ring conformer: 145.3252928273523 kcal/mol)

> <smiles>
C=c1[nH]c(=Cc2[nH]c(=O)[nH]c2O)cc1Cc1cc(C(=O)N2CCN(C)CC2)cs1

> <score_type>
oracle

> <origin>
adg

> <m_score__min__energy>
-17.350000000000001

> <m_primary>
energy

> <minimizedAffinity>
-8.52864

> <minimizedRMSD>
1.32675

> <CNNscore>
0.2885977924

> <CNNaffinity>
6.7658734322

> <CNN_VS>
1.9526160955

> <CNNaffinity_variance>
0.0262699444

$$$$
64:0


 31 34  0  0  0  0  0  0  0  0999 V2000
   60.6077   30.2348   46.7462 C   0  0  0  0  0  0  0  0  0  0  0  0
   59.5332   28.2439   44.7150 C   0  0  0  0  0  0  0  0  0  0  0  0
   59.7013   27.9603   46.0176 C   0  0  0  0  0  0  0  0  0  0  0  0
   59.3322   26.7625   46.6521 C   0  0  0  0  0  0  0  0  0  0  0  0
   59.0048   25.5587   46.1427 C   0  0  0  0  0  0  0  0  0  0  0  0
   59.3969   27.0068   48.0102 C   0  0  0  0  0  0  0  0  0  0  0  0
   59.8689   28.2934   48.1625 C   0  0  0  0  0  0  0  0  0  0  0  0
   60.1362   28.9343   49.4919 C   0  0  0  0  0  0  0  0  0  0  0  0
   60.0958   28.8678   46.9553 N   0  0  0  0  0  0  0  0  0  0  0  0
   57.6778   24.9276   46.2393 C   0  0  0  0  0  0  0  0  0  0  0  0
   57.4630   23.6484   46.5995 N   0  0  0  0  0  0  0  0  0  0  0  0
   56.1171   23.5668   46.6724 C   0  0  0  0  0  0  0  0  0  0  0  0
   55.5186   22.5003   46.9715 O   0  0  0  0  0  0  0  0  0  0  0  0
   55.4640   24.7188   46.4102 N   0  0  0  0  0  0  0  0  0  0  0  0
   56.4689   25.5722   46.1520 C   0  0  0  0  0  0  0  0  0  0  0  0
   56.2835   26.9145   45.8466 O   0  0  0  0  0  0  0  0  0  0  0  0
   59.4944   31.2034   46.4069 C   0  0  0  0  0  0  0  0  0  0  0  0
   58.9359   31.1740   45.1155 C   0  0  0  0  0  0  0  0  0  0  0  0
   57.9100   32.0532   44.7619 C   0  0  0  0  0  0  0  0  0  0  0  0
   57.4339   32.9797   45.6884 C   0  0  0  0  0  0  0  0  0  0  0  0
   57.9835   33.0341   46.9694 C   0  0  0  0  0  0  0  0  0  0  0  0
   59.0175   32.1609   47.3381 C   0  0  0  0  0  0  0  0  0  0  0  0
   59.5660   32.2712   48.7024 C   0  0  0  0  0  0  0  0  0  0  0  0
   58.7812   32.0784   49.6702 O   0  0  0  0  0  0  0  0  0  0  0  0
   60.9424   32.6457   48.9451 N   0  0  0  0  0  0  0  0  0  0  0  0
   61.9144   32.7260   47.8468 C   0  0  0  0  0  0  0  0  0  0  0  0
   62.9168   33.8616   48.0962 C   0  0  0  0  0  0  0  0  0  0  0  0
   63.5113   33.8123   49.4456 N   0  0  0  0  0  0  0  0  0  0  0  0
   64.4898   32.7208   49.5952 C   0  0  0  0  0  0  0  0  0  0  0  0
   62.4780   33.7971   50.4991 C   0  0  0  0  0  0  0  0  0  0  0  0
   61.4658   32.6590   50.3166 C   0  0  0  0  0  0  0  0  0  0  0  0
  2  3  2  0
  3  4  1  0
  4  5  2  0
  5 10  1  0
 10 11  1  0
 11 12  1  0
 12 13  2  0
 12 14  1  0
 14 15  1  0
 15 16  1  0
  4  6  1  0
  6  7  2  0
  7  8  1  0
  7  9  1  0
  9  1  1  0
  1 17  1  0
 17 18  2  0
 18 19  1  0
 19 20  2  0
 20 21  1  0
 21 22  2  0
 22 23  1  0
 23 24  2  0
 23 25  1  0
 25 26  1  0
 26 27  1  0
 27 28  1  0
 28 29  1  0
 28 30  1  0
 30 31  1  0
  9  3  1  0
 22 17  1  0
 31 25  1  0
 15 10  2  0
M  CHG 1  11  -1
M  CHG 1  14  -1
M  CHG 1  16  -1
M  END
> <UniqueID>
58

> <SMILES>
C=c1c(=Cc2[n-]c(=O)[n-]c2[O-])cc(C)n1Cc1ccccc1C(=O)N1CCN(C)CC1

> <Energy>
135.65755168966103

> <Genealogy>
C=c1c(=Cc2[n-]c(=O)[n-]c2[O-])cc(C)n1Cc1ccccc1C(=O)N1CCN(C)CC1 (protonated)
C=c1c(=Cc2[n-]c(=O)[n-]c2[O-])cc(C)n1Cc1ccccc1C(=O)N1CCN(C)CC1 (3D coordinates assigned)
C=c1c(=Cc2[n-]c(=O)[n-]c2[O-])cc(C)n1Cc1ccccc1C(=O)N1CCN(C)CC1 (nonaromatic ring conformer: 135.65755168966103 kcal/mol)

> <smiles>
C=c1c(=Cc2[nH]c(=O)[nH]c2O)cc(C)n1Cc1ccccc1C(=O)N1CCN(C)CC1

> <score_type>
oracle

> <origin>
adg

> <m_score__min__energy>
-16.640000000000001

> <m_primary>
energy

> <minimizedAffinity>
-8.59819

> <minimizedRMSD>
1.09010

> <CNNscore>
0.2911200523

> <CNNaffinity>
6.6432690620

> <CNN_VS>
1.9339888096

> <CNNaffinity_variance>
0.0244282987

$$$$
67:0


 31 34  0  0  0  0  0  0  0  0999 V2000
   57.8116   25.5920   44.9195 C   0  0  0  0  0  0  0  0  0  0  0  0
   58.4641   26.4378   45.7262 C   0  0  0  0  0  0  0  0  0  0  0  0
   58.9737   26.0519   46.9128 N   0  0  0  0  0  0  0  0  0  0  0  0
   59.5566   27.1292   47.4676 C   0  0  0  0  0  0  0  0  0  0  0  0
   60.3550   27.0662   48.7317 C   0  0  0  0  0  0  0  0  0  0  0  0
   59.4395   28.2252   46.6274 C   0  0  0  0  0  0  0  0  0  0  0  0
   58.7169   27.7967   45.5056 C   0  0  0  0  0  0  0  0  0  0  0  0
   58.3626   28.5046   44.4109 C   0  0  0  0  0  0  0  0  0  0  0  0
   58.9277   25.1486   47.3015 H   0  0  0  0  0  0  0  0  0  0  0  0
   57.9330   29.9104   44.4203 C   0  0  0  0  0  0  0  0  0  0  0  0
   58.9557   31.2524   44.3684 S   0  0  0  0  0  0  0  0  0  0  0  0
   57.6937   32.3266   44.6416 C   0  0  0  0  0  0  0  0  0  0  0  0
   57.8270   33.5763   44.6973 O   0  0  0  0  0  0  0  0  0  0  0  0
   56.5077   31.7050   44.8114 N   0  0  0  0  0  0  0  0  0  0  0  0
   56.6462   30.3580   44.7072 C   0  0  0  0  0  0  0  0  0  0  0  0
   55.5695   29.4988   44.8808 O   0  0  0  0  0  0  0  0  0  0  0  0
   60.1412   29.5111   46.8381 C   0  0  0  0  0  0  0  0  0  0  0  0
   61.2721   29.6471   46.2940 O   0  0  0  0  0  0  0  0  0  0  0  0
   59.5999   30.5978   47.6472 N   0  0  0  0  0  0  0  0  0  0  0  0
   59.3947   30.1609   49.0633 C   0  0  0  0  0  0  0  0  0  0  0  0
   60.4597   30.7078   50.0257 C   0  0  0  0  0  0  0  0  0  0  0  0
   60.4318   32.2598   50.0389 C   0  0  0  0  0  0  0  0  0  0  0  0
   60.0472   32.8475   48.6578 C   0  0  0  0  0  0  0  0  0  0  0  0
   60.3759   31.8656   47.5258 C   0  0  0  0  0  0  0  0  0  0  0  0
   59.0685   30.9131   48.4136 H   0  0  0  0  0  0  0  0  0  0  0  0
   61.6679   32.8793   50.5922 N   0  0  0  0  0  0  0  0  0  0  0  0
   61.9440   32.4431   51.9770 C   0  0  0  0  0  0  0  0  0  0  0  0
   62.9218   33.4177   52.6577 C   0  0  0  0  0  0  0  0  0  0  0  0
   63.8559   34.1138   51.6532 C   0  0  0  0  0  0  0  0  0  0  0  0
   64.1660   33.1985   50.4680 C   0  0  0  0  0  0  0  0  0  0  0  0
   62.8759   32.7759   49.7321 C   0  0  0  0  0  0  0  0  0  0  0  0
  1  2  2  0
  2  3  1  0
  3  4  1  0
  4  5  1  0
  4  6  2  0
  6 17  1  0
 17 18  2  0
 19 17  1  0
 19 20  1  0
 20 21  1  0
 21 22  1  0
 22 26  1  0
 26 27  1  0
 27 28  1  0
 28 29  1  0
 29 30  1  0
 30 31  1  0
 22 23  1  0
 23 24  1  0
  6  7  1  0
  7  8  2  0
  8 10  1  0
 10 11  1  0
 11 12  1  0
 12 13  2  0
 12 14  1  0
 14 15  1  0
 15 16  1  0
  7  2  1  0
 15 10  2  0
 24 19  1  0
 31 26  1  0
  3  9  1  0
 19 25  1  0
M  CHG 1  14  -1
M  CHG 1  16  -1
M  CHG 1  19   1
M  END
> <UniqueID>
61

> <SMILES>
C=c1[nH]c(C)c(C(=O)[NH+]2CCC(N3CCCCC3)CC2)c1=Cc1sc(=O)[n-]c1[O-]

> <Energy>
154.2081868382477

> <Genealogy>
C=c1[nH]c(C)c(C(=O)[NH+]2CCC(N3CCCCC3)CC2)c1=Cc1sc(=O)[n-]c1[O-] (protonated)
C=c1[nH]c(C)c(C(=O)[NH+]2CCC(N3CCCCC3)CC2)c1=Cc1sc(=O)[n-]c1[O-] (3D coordinates assigned)
C=c1[nH]c(C)c(C(=O)[NH+]2CCC(N3CCCCC3)CC2)c1=Cc1sc(=O)[n-]c1[O-] (nonaromatic ring conformer: 154.2081868382477 kcal/mol)

> <smiles>
C=c1[nH]c(C)c(C(=O)N2CCC(N3CCCCC3)CC2)c1=Cc1sc(=O)[nH]c1O

> <score_type>
oracle

> <origin>
adg

> <m_score__min__energy>
-14.68

> <m_primary>
energy

> <minimizedAffinity>
-6.07069

> <minimizedRMSD>
1.26109

> <CNNscore>
0.0811647177

> <CNNaffinity>
6.0248751640

> <CNN_VS>
0.4890072942

> <CNNaffinity_variance>
0.2432592511

$$$$
70:0


 31 34  0  0  0  0  0  0  0  0999 V2000
   60.5294   29.9357   47.8387 N   0  0  0  0  0  0  0  0  0  0  0  0
   60.3189   28.7662   48.7201 C   0  0  0  0  0  0  0  0  0  0  0  0
   59.1872   27.8302   48.2426 C   0  0  0  0  0  0  0  0  0  0  0  0
   59.0313   27.7893   46.7094 C   0  0  0  0  0  0  0  0  0  0  0  0
   60.3158   28.2223   45.9991 C   0  0  0  0  0  0  0  0  0  0  0  0
   60.6656   29.6651   46.3855 C   0  0  0  0  0  0  0  0  0  0  0  0
   58.6034   26.4605   46.2564 N   0  0  0  0  0  0  0  0  0  0  0  0
   59.5068   25.3248   46.0794 C   0  0  0  0  0  0  0  0  0  0  0  0
   58.5965   24.2253   45.6169 C   0  0  0  0  0  0  0  0  0  0  0  0
   58.9648   22.9345   45.2475 C   0  0  0  0  0  0  0  0  0  0  0  0
   57.9725   22.0539   44.7974 C   0  0  0  0  0  0  0  0  0  0  0  0
   56.6294   22.4703   44.7291 C   0  0  0  0  0  0  0  0  0  0  0  0
   56.2525   23.7751   45.1140 C   0  0  0  0  0  0  0  0  0  0  0  0
   57.2775   24.6415   45.5488 C   0  0  0  0  0  0  0  0  0  0  0  0
   57.2782   26.0455   45.9256 C   0  0  0  0  0  0  0  0  0  0  0  0
   56.2850   26.8199   45.9052 O   0  0  0  0  0  0  0  0  0  0  0  0
   54.8258   24.1651   45.0717 C   0  0  0  0  0  0  0  0  0  0  0  0
   54.3790   25.3186   45.7809 N   0  0  0  0  0  0  0  0  0  0  0  0
   54.0005   23.5142   44.3793 O   0  0  0  0  0  0  0  0  0  0  0  0
   55.0134   25.8374   46.3264 H   0  0  0  0  0  0  0  0  0  0  0  0
   59.7891   31.1654   48.1976 C   0  0  0  0  0  0  0  0  0  0  0  0
   57.9289   32.0587   44.9712 C   0  0  0  0  0  0  0  0  0  0  0  0
   58.2913   33.4016   44.8205 C   0  0  0  0  0  0  0  0  0  0  0  0
   59.1723   34.0008   45.7226 C   0  0  0  0  0  0  0  0  0  0  0  0
   59.6743   33.2711   46.8017 C   0  0  0  0  0  0  0  0  0  0  0  0
   59.2789   31.9371   47.0021 C   0  0  0  0  0  0  0  0  0  0  0  0
   58.4145   31.3337   46.0731 C   0  0  0  0  0  0  0  0  0  0  0  0
   57.0037   31.4834   44.0377 N   0  0  0  0  0  0  0  0  0  0  0  0
   57.3719   29.0027   43.4920 C   0  0  0  0  0  0  0  0  0  0  0  0
   56.5356   30.1282   44.0204 C   0  0  0  0  0  0  0  0  0  0  0  0
   55.3697   29.8820   44.4243 O   0  0  0  0  0  0  0  0  0  0  0  0
 29 30  1  0
 30 31  2  0
 30 28  1  0
 28 22  1  0
 22 23  2  0
 23 24  1  0
 24 25  2  0
 25 26  1  0
 26 21  1  0
 21  1  1  0
  1  2  1  0
  2  3  1  0
  3  4  1  0
  4  7  1  0
  7  8  1  0
  8  9  1  0
  9 10  2  0
 10 11  1  0
 11 12  2  0
 12 13  1  0
 13 17  1  0
 17 18  1  0
 17 19  2  0
 13 14  2  0
 14 15  1  0
 15 16  2  0
  4  5  1  0
  5  6  1  0
 26 27  2  0
 27 22  1  0
  6  1  1  0
 15  7  1  0
 14  9  1  0
 18 20  1  0
M  CHG 1  18  -1
M  CHG 1  28  -1
M  END
> <UniqueID>
63

> <SMILES>
CC(=O)[N-]c1cccc(CN2CCC(N3Cc4cccc(C([NH-])=O)c4C3=O)CC2)c1

> <Energy>
95.84281161852527

> <Genealogy>
CC(=O)[N-]c1cccc(CN2CCC(N3Cc4cccc(C([NH-])=O)c4C3=O)CC2)c1 (protonated)
CC(=O)[N-]c1cccc(CN2CCC(N3Cc4cccc(C([NH-])=O)c4C3=O)CC2)c1 (3D coordinates assigned)
CC(=O)[N-]c1cccc(CN2CCC(N3Cc4cccc(C([NH-])=O)c4C3=O)CC2)c1 (nonaromatic ring conformer: 95.84281161852527 kcal/mol)

> <smiles>
CC(=O)Nc1cccc(CN2CCC(N3Cc4cccc(C(N)=O)c4C3=O)CC2)c1

> <score_type>
oracle

> <origin>
adg

> <m_score__min__energy>
-14.890000000000001

> <m_primary>
energy

> <minimizedAffinity>
-8.42012

> <minimizedRMSD>
0.92607

> <CNNscore>
0.3145306408

> <CNNaffinity>
6.6721630096

> <CNN_VS>
2.0985996723

> <CNNaffinity_variance>
0.0005216681

$$$$
1:0


 29 31  0  0  0  0  0  0  0  0999 V2000
   56.8388   30.6518   53.2057 C   0  0  0  0  0  0  0  0  0  0  0  0
   57.5744   31.1416   54.2963 C   0  0  0  0  0  0  0  0  0  0  0  0
   57.1471   30.8901   55.6012 C   0  0  0  0  0  0  0  0  0  0  0  0
   55.9799   30.1591   55.8286 C   0  0  0  0  0  0  0  0  0  0  0  0
   55.2211   29.6833   54.7528 C   0  0  0  0  0  0  0  0  0  0  0  0
   55.6712   29.9054   53.4395 C   0  0  0  0  0  0  0  0  0  0  0  0
   57.3313   30.8800   51.7987 C   0  0  0  0  0  0  0  0  0  0  0  0
   58.8213   30.5467   51.6584 C   0  0  0  0  0  0  0  0  0  0  0  0
   59.2204   30.4086   50.2221 C   0  0  0  0  0  0  0  0  0  0  0  0
   58.7320   29.4803   49.5208 O   0  0  0  0  0  0  0  0  0  0  0  0
   60.1274   31.3532   49.6464 N   0  0  0  0  0  0  0  0  0  0  0  0
   59.9666   32.7960   49.7626 C   0  0  0  0  0  0  0  0  0  0  0  0
   57.7183   33.7445   45.3589 C   0  0  0  0  0  0  0  0  0  0  0  0
   58.6339   33.7650   46.5343 C   0  0  0  0  0  0  0  0  0  0  0  0
   58.6118   32.8772   47.5892 C   0  0  0  0  0  0  0  0  0  0  0  0
   59.5658   33.3795   48.4470 C   0  0  0  0  0  0  0  0  0  0  0  0
   60.0901   34.4618   47.9190 O   0  0  0  0  0  0  0  0  0  0  0  0
   59.5444   34.7324   46.7685 N   0  0  0  0  0  0  0  0  0  0  0  0
   54.0392   28.9179   55.0251 N   0  0  0  0  0  0  0  0  0  0  0  0
   52.6829   29.3577   54.8762 C   0  0  0  0  0  0  0  0  0  0  0  0
   51.7540   28.5762   55.2122 O   0  0  0  0  0  0  0  0  0  0  0  0
   52.3448   30.7331   54.3641 C   0  0  0  0  0  0  0  0  0  0  0  0
   52.1026   30.7135   52.8859 C   0  0  0  0  0  0  0  0  0  0  0  0
   52.5728   29.4836   51.8376 S   0  0  0  0  0  0  0  0  0  0  0  0
   51.8880   30.2462   50.5049 C   0  0  0  0  0  0  0  0  0  0  0  0
   51.9087   29.7836   49.3344 O   0  0  0  0  0  0  0  0  0  0  0  0
   51.2955   31.4168   50.8211 N   0  0  0  0  0  0  0  0  0  0  0  0
   51.4127   31.6765   52.1501 C   0  0  0  0  0  0  0  0  0  0  0  0
   50.8732   32.8227   52.7207 O   0  0  0  0  0  0  0  0  0  0  0  0
 13 14  1  0
 14 15  1  0
 15 16  2  0
 16 12  1  0
 12 11  1  0
 11  9  1  0
  9 10  2  0
  9  8  1  0
  8  7  1  0
  7  1  1  0
  1  2  2  0
  2  3  1  0
  3  4  2  0
  4  5  1  0
  5 19  1  0
 19 20  1  0
 20 21  2  0
 20 22  1  0
 22 23  1  0
 23 24  1  0
 24 25  1  0
 25 26  2  0
 25 27  1  0
 27 28  1  0
 28 29  1  0
  5  6  2  0
 16 17  1  0
 17 18  1  0
 18 14  2  0
  6  1  1  0
 28 23  2  0
M  CHG 1  11  -1
M  CHG 1  19  -1
M  CHG 1  27  -1
M  CHG 1  29  -1
M  END
> <UniqueID>
1

> <SMILES>
Cc1cc(C[N-]C(=O)CCc2cccc([N-]C(=O)Cc3sc(=O)[n-]c3[O-])c2)on1

> <Energy>
99.0767523685263

> <Genealogy>
Cc1cc(C[N-]C(=O)CCc2cccc([N-]C(=O)Cc3sc(=O)[n-]c3[O-])c2)on1 (protonated)
Cc1cc(C[N-]C(=O)CCc2cccc([N-]C(=O)Cc3sc(=O)[n-]c3[O-])c2)on1 (3D coordinates assigned)
Cc1cc(C[N-]C(=O)CCc2cccc([N-]C(=O)Cc3sc(=O)[n-]c3[O-])c2)on1 (optimized conformer: 99.0767523685263 kcal/mol)

> <smiles>
Cc1cc(CNC(=O)CCc2cccc(NC(=O)Cc3sc(=O)[nH]c3O)c2)on1

> <score_type>
oracle

> <origin>
adg

> <m_score__min__energy>
-18.75

> <m_primary>
energy

> <minimizedAffinity>
-5.79588

> <minimizedRMSD>
2.03332

> <CNNscore>
0.1920309961

> <CNNaffinity>
5.3514056206

> <CNN_VS>
1.0276356936

> <CNNaffinity_variance>
0.2141971439

$$$$
4:0


 33 36  0  0  0  0  0  0  0  0999 V2000
   58.2665   30.5189   53.0774 C   0  0  0  0  0  0  0  0  0  0  0  0
   58.9589   31.3268   52.2419 C   0  0  0  0  0  0  0  0  0  0  0  0
   59.4691   32.6661   52.6252 C   0  0  0  0  0  0  0  0  0  0  0  0
   59.0423   33.2645   53.6470 O   0  0  0  0  0  0  0  0  0  0  0  0
   60.4015   33.3358   51.7801 N   0  0  0  0  0  0  0  0  0  0  0  0
   60.7661   32.8105   50.5065 C   0  0  0  0  0  0  0  0  0  0  0  0
   61.6336   33.4176   49.8224 O   0  0  0  0  0  0  0  0  0  0  0  0
   60.1427   31.6106   50.0065 N   0  0  0  0  0  0  0  0  0  0  0  0
   59.2086   30.8918   50.8418 C   0  0  0  0  0  0  0  0  0  0  0  0
   58.6182   29.8744   50.3835 O   0  0  0  0  0  0  0  0  0  0  0  0
   53.5553   30.3542   51.7839 C   0  0  0  0  0  0  0  0  0  0  0  0
   54.7318   30.0043   52.3355 C   0  0  0  0  0  0  0  0  0  0  0  0
   55.9095   30.6969   52.1112 C   0  0  0  0  0  0  0  0  0  0  0  0
   56.8691   30.0867   52.8976 C   0  0  0  0  0  0  0  0  0  0  0  0
   56.3394   29.0781   53.5489 O   0  0  0  0  0  0  0  0  0  0  0  0
   55.0733   28.9697   53.2168 C   0  0  0  0  0  0  0  0  0  0  0  0
   54.3234   27.9506   53.6418 C   0  0  0  0  0  0  0  0  0  0  0  0
   51.3326   32.1488   50.7207 O   0  0  0  0  0  0  0  0  0  0  0  0
   51.4169   31.6889   52.0305 C   0  0  0  0  0  0  0  0  0  0  0  0
   50.5605   32.0350   53.0068 N   0  0  0  0  0  0  0  0  0  0  0  0
   51.0550   31.3813   54.0790 C   0  0  0  0  0  0  0  0  0  0  0  0
   50.5282   31.4528   55.2191 O   0  0  0  0  0  0  0  0  0  0  0  0
   52.1670   30.6541   53.8362 N   0  0  0  0  0  0  0  0  0  0  0  0
   52.3732   30.8334   52.5187 C   0  0  0  0  0  0  0  0  0  0  0  0
   50.6437   32.7335   50.4729 H   0  0  0  0  0  0  0  0  0  0  0  0
   60.5252   31.0622   48.6948 C   0  0  0  0  0  0  0  0  0  0  0  0
   59.3059   30.9280   47.7711 C   0  0  0  0  0  0  0  0  0  0  0  0
   59.1812   32.1047   46.8401 C   0  0  0  0  0  0  0  0  0  0  0  0
   60.0958   33.1676   46.9174 C   0  0  0  0  0  0  0  0  0  0  0  0
   60.0076   34.2394   46.0225 C   0  0  0  0  0  0  0  0  0  0  0  0
   59.0120   34.2534   45.0424 C   0  0  0  0  0  0  0  0  0  0  0  0
   58.1041   33.1942   44.9532 C   0  0  0  0  0  0  0  0  0  0  0  0
   58.1876   32.1230   45.8465 C   0  0  0  0  0  0  0  0  0  0  0  0
 18 19  1  0
 19 20  1  0
 20 21  1  0
 21 22  2  0
 21 23  1  0
 23 24  1  0
 24 11  1  0
 11 12  2  0
 12 13  1  0
 13 14  2  0
 14  1  1  0
  1  2  2  0
  2  3  1  0
  3  4  2  0
  3  5  1  0
  5  6  1  0
  6  7  2  0
  6  8  1  0
  8 26  1  0
 26 27  1  0
 27 28  1  0
 28 29  2  0
 29 30  1  0
 30 31  2  0
 31 32  1  0
 32 33  2  0
  8  9  1  0
  9 10  2  0
 14 15  1  0
 15 16  1  0
 16 17  2  0
 24 19  2  0
 16 12  1  0
  9  2  1  0
 33 28  1  0
 18 25  1  0
M  CHG 1   5  -1
M  CHG 1  20  -1
M  CHG 1  23  -1
M  END
> <UniqueID>
4

> <SMILES>
C=c1oc(/C=C2\C(=O)[N-]C(=O)N(CCc3ccccc3)C2=O)cc1=Cc1[n-]c(=O)[n-]c1O

> <Energy>
123.10223285813919

> <Genealogy>
C=c1oc(C=C2C(=O)[N-]C(=O)N(CCc3ccccc3)C2=O)cc1=Cc1[n-]c(=O)[n-]c1O (protonated)
C=c1oc(/C=C2\C(=O)[N-]C(=O)N(CCc3ccccc3)C2=O)cc1=Cc1[n-]c(=O)[n-]c1O (cis-trans isomerization)
C=c1oc(/C=C2\C(=O)[N-]C(=O)N(CCc3ccccc3)C2=O)cc1=Cc1[n-]c(=O)[n-]c1O (3D coordinates assigned)
C=c1oc(/C=C2\C(=O)[N-]C(=O)N(CCc3ccccc3)C2=O)cc1=Cc1[n-]c(=O)[n-]c1O (nonaromatic ring conformer: 123.10223285813919 kcal/mol)

> <smiles>
C=c1oc(C=C2C(=O)NC(=O)N(CCc3ccccc3)C2=O)cc1=Cc1[nH]c(=O)[nH]c1O

> <score_type>
oracle

> <origin>
adg

> <m_score__min__energy>
-15.390000000000001

> <m_primary>
energy

> <minimizedAffinity>
-9.13075

> <minimizedRMSD>
0.80929

> <CNNscore>
0.5194292665

> <CNNaffinity>
6.3612465858

> <CNN_VS>
3.3042175770

> <CNNaffinity_variance>
0.0076185265

$$$$
7:0


 25 27  0  0  0  0  0  0  0  0999 V2000
   58.5140   30.6312   44.5639 C   0  0  0  0  0  0  0  0  0  0  0  0
   59.2154   30.4185   45.6904 C   0  0  0  0  0  0  0  0  0  0  0  0
   59.7801   29.2014   46.0883 C   0  0  0  0  0  0  0  0  0  0  0  0
   59.6640   28.0066   45.4757 C   0  0  0  0  0  0  0  0  0  0  0  0
   60.4520   29.4539   47.2740 C   0  0  0  0  0  0  0  0  0  0  0  0
   60.2720   30.7915   47.5531 C   0  0  0  0  0  0  0  0  0  0  0  0
   59.5168   31.3850   46.5984 N   0  0  0  0  0  0  0  0  0  0  0  0
   58.6296   27.0087   45.8040 C   0  0  0  0  0  0  0  0  0  0  0  0
   58.9056   25.8173   46.3605 N   0  0  0  0  0  0  0  0  0  0  0  0
   57.6849   25.2746   46.5649 C   0  0  0  0  0  0  0  0  0  0  0  0
   57.5259   24.1324   47.0682 O   0  0  0  0  0  0  0  0  0  0  0  0
   56.6488   26.0574   46.1972 N   0  0  0  0  0  0  0  0  0  0  0  0
   57.2614   27.1575   45.7282 C   0  0  0  0  0  0  0  0  0  0  0  0
   56.5817   28.2854   45.2883 O   0  0  0  0  0  0  0  0  0  0  0  0
   60.8485   31.4603   48.7347 C   0  0  0  0  0  0  0  0  0  0  0  0
   60.0660   32.0531   49.5257 O   0  0  0  0  0  0  0  0  0  0  0  0
   62.2862   31.5478   48.9061 N   0  0  0  0  0  0  0  0  0  0  0  0
   62.9621   31.8473   47.6250 C   0  0  0  0  0  0  0  0  0  0  0  0
   62.9148   33.3428   47.2826 C   0  0  0  0  0  0  0  0  0  0  0  0
   63.4730   34.1077   48.3304 O   0  0  0  0  0  0  0  0  0  0  0  0
   62.6822   33.9616   49.4912 C   0  0  0  0  0  0  0  0  0  0  0  0
   62.6717   32.4986   49.9746 C   0  0  0  0  0  0  0  0  0  0  0  0
   62.0447   30.7602   49.4452 H   0  0  0  0  0  0  0  0  0  0  0  0
   59.2472   32.8276   46.4813 C   0  0  0  0  0  0  0  0  0  0  0  0
   57.8662   33.1579   47.0348 C   0  0  0  0  0  0  0  0  0  0  0  0
  1  2  2  0
  2  3  1  0
  3  4  2  0
  4  8  1  0
  8  9  1  0
  9 10  1  0
 10 11  2  0
 10 12  1  0
 12 13  1  0
 13 14  1  0
  3  5  1  0
  5  6  2  0
  6 15  1  0
 15 16  2  0
 15 17  1  0
 17 18  1  0
 18 19  1  0
 19 20  1  0
 20 21  1  0
 21 22  1  0
  6  7  1  0
  7 24  1  0
 24 25  1  0
  7  2  1  0
 13  8  2  0
 22 17  1  0
 17 23  1  0
M  CHG 1   9  -1
M  CHG 1  12  -1
M  CHG 1  14  -1
M  CHG 1  17   1
M  END
> <UniqueID>
7

> <SMILES>
C=c1/c(=C/c2[n-]c(=O)[n-]c2[O-])cc(C(=O)[NH+]2CCOCC2)n1CC

> <Energy>
118.91787564708758

> <Genealogy>
C=c1c(=Cc2[n-]c(=O)[n-]c2[O-])cc(C(=O)[NH+]2CCOCC2)n1CC (protonated)
C=c1/c(=C/c2[n-]c(=O)[n-]c2[O-])cc(C(=O)[NH+]2CCOCC2)n1CC (cis-trans isomerization)
C=c1/c(=C/c2[n-]c(=O)[n-]c2[O-])cc(C(=O)[NH+]2CCOCC2)n1CC (3D coordinates assigned)
C=c1/c(=C/c2[n-]c(=O)[n-]c2[O-])cc(C(=O)[NH+]2CCOCC2)n1CC (nonaromatic ring conformer: 118.91787564708758 kcal/mol)

> <smiles>
C=c1c(=Cc2[nH]c(=O)[nH]c2O)cc(C(=O)N2CCOCC2)n1CC

> <score_type>
oracle

> <origin>
adg

> <m_score__min__energy>
-15.06

> <m_primary>
energy

> <minimizedAffinity>
-6.58863

> <minimizedRMSD>
1.33782

> <CNNscore>
0.3969574273

> <CNNaffinity>
6.2861599922

> <CNN_VS>
2.4953379631

> <CNNaffinity_variance>
0.1934638768

$$$$
13:0


 40 43  0  0  0  0  0  0  0  0999 V2000
   60.4388   30.7287   49.9812 C   0  0  0  0  0  0  0  0  0  0  0  0
   60.0470   30.9020   51.1691 O   0  0  0  0  0  0  0  0  0  0  0  0
   61.8398   30.5781   49.6922 N   0  0  0  0  0  0  0  0  0  0  0  0
   62.1224   30.5306   48.7503 H   0  0  0  0  0  0  0  0  0  0  0  0
   62.8437   30.4939   50.7121 C   0  0  0  0  0  0  0  0  0  0  0  0
   62.8407   29.4461   51.6477 C   0  0  0  0  0  0  0  0  0  0  0  0
   63.8289   29.3794   52.6328 C   0  0  0  0  0  0  0  0  0  0  0  0
   64.8397   30.3502   52.6892 C   0  0  0  0  0  0  0  0  0  0  0  0
   64.8137   31.4234   51.7849 C   0  0  0  0  0  0  0  0  0  0  0  0
   63.8199   31.4960   50.8057 C   0  0  0  0  0  0  0  0  0  0  0  0
   65.9040   30.2513   53.7074 C   0  0  0  0  0  0  0  0  0  0  0  0
   65.6422   30.6006   54.8901 O   0  0  0  0  0  0  0  0  0  0  0  0
   67.2110   29.7281   53.3822 N   0  0  0  0  0  0  0  0  0  0  0  0
   68.3601   30.0011   54.2552 C   0  0  0  0  0  0  0  0  0  0  0  0
   68.9119   28.6808   54.8003 C   0  0  0  0  0  0  0  0  0  0  0  0
   69.0579   27.6716   53.7378 N   0  0  0  0  0  0  0  0  0  0  0  0
   69.6241   26.3870   54.0835 C   0  0  0  0  0  0  0  0  0  0  0  0
   69.7970   25.2925   53.0712 C   0  0  0  0  0  0  0  0  0  0  0  0
   69.9807   26.1598   55.2723 O   0  0  0  0  0  0  0  0  0  0  0  0
   68.7148   28.0276   52.3489 C   0  0  0  0  0  0  0  0  0  0  0  0
   67.3551   28.7371   52.3003 C   0  0  0  0  0  0  0  0  0  0  0  0
   59.4256   30.6845   48.8738 C   0  0  0  0  0  0  0  0  0  0  0  0
   59.9139   29.9241   47.7657 O   0  0  0  0  0  0  0  0  0  0  0  0
   59.1138   27.2931   47.5828 C   0  0  0  0  0  0  0  0  0  0  0  0
   58.8689   28.0993   46.5305 C   0  0  0  0  0  0  0  0  0  0  0  0
   59.1475   29.4827   46.6683 C   0  0  0  0  0  0  0  0  0  0  0  0
   58.6249   30.3939   45.7353 C   0  0  0  0  0  0  0  0  0  0  0  0
   57.8087   29.9596   44.6895 C   0  0  0  0  0  0  0  0  0  0  0  0
   57.5813   28.5933   44.5172 C   0  0  0  0  0  0  0  0  0  0  0  0
   58.1845   27.6350   45.3577 C   0  0  0  0  0  0  0  0  0  0  0  0
   58.0806   26.3368   44.9741 C   0  0  0  0  0  0  0  0  0  0  0  0
   57.4880   25.2380   45.7659 C   0  0  0  0  0  0  0  0  0  0  0  0
   58.0909   24.0669   46.0425 N   0  0  0  0  0  0  0  0  0  0  0  0
   57.1380   23.3742   46.7025 C   0  0  0  0  0  0  0  0  0  0  0  0
   57.3297   22.2154   47.1491 O   0  0  0  0  0  0  0  0  0  0  0  0
   55.9598   24.0189   46.8381 N   0  0  0  0  0  0  0  0  0  0  0  0
   56.1970   25.1928   46.2320 C   0  0  0  0  0  0  0  0  0  0  0  0
   55.2518   26.2031   46.1091 O   0  0  0  0  0  0  0  0  0  0  0  0
   57.1435   30.9598   43.7812 C   0  0  0  0  0  0  0  0  0  0  0  0
   57.9669   32.2432   43.7056 C   0  0  0  0  0  0  0  0  0  0  0  0
 24 25  2  0
 25 26  1  0
 26 23  1  0
 23 22  1  0
 22  1  1  0
  1  2  2  0
  1  3  1  0
  3  5  1  0
  5  6  2  0
  6  7  1  0
  7  8  2  0
  8 11  1  0
 11 12  2  0
 11 13  1  0
 13 14  1  0
 14 15  1  0
 15 16  1  0
 16 17  1  0
 17 18  1  0
 17 19  2  0
 16 20  1  0
 20 21  1  0
  8  9  1  0
  9 10  2  0
 26 27  2  0
 27 28  1  0
 28 39  1  0
 39 40  1  0
 28 29  2  0
 29 30  1  0
 30 31  2  0
 31 32  1  0
 32 33  1  0
 33 34  1  0
 34 35  2  0
 34 36  1  0
 36 37  1  0
 37 38  1  0
 30 25  1  0
 37 32  2  0
 10  5  1  0
 21 13  1  0
  3  4  1  0
M  CHG 1  33  -1
M  CHG 1  36  -1
M  CHG 1  38  -1
M  END
> <UniqueID>
13

> <SMILES>
C=c1c(OCC(=O)Nc2ccc(C(=O)N3CCN(C(C)=O)CC3)cc2)cc(CC)cc1=Cc1[n-]c(=O)[n-]c1[O-]

> <Energy>
126.24359452138268

> <Genealogy>
C=c1c(OCC(=O)Nc2ccc(C(=O)N3CCN(C(C)=O)CC3)cc2)cc(CC)cc1=Cc1[n-]c(=O)[n-]c1[O-] (protonated)
C=c1c(OCC(=O)Nc2ccc(C(=O)N3CCN(C(C)=O)CC3)cc2)cc(CC)cc1=Cc1[n-]c(=O)[n-]c1[O-] (3D coordinates assigned)
C=c1c(OCC(=O)Nc2ccc(C(=O)N3CCN(C(C)=O)CC3)cc2)cc(CC)cc1=Cc1[n-]c(=O)[n-]c1[O-] (nonaromatic ring conformer: 126.24359452138268 kcal/mol)

> <smiles>
C=c1c(OCC(=O)Nc2ccc(C(=O)N3CCN(C(C)=O)CC3)cc2)cc(CC)cc1=Cc1[nH]c(=O)[nH]c1O

> <score_type>
oracle

> <origin>
adg

> <m_score__min__energy>
-18.920000000000002

> <m_primary>
energy

> <minimizedAffinity>
-7.57303

> <minimizedRMSD>
2.19112

> <CNNscore>
0.1584912837

> <CNNaffinity>
6.2184123993

> <CNN_VS>
0.9855641723

> <CNNaffinity_variance>
0.2840519249

$$$$
26:0


 28 31  0  0  0  0  0  0  0  0999 V2000
   54.6971   28.0939   53.6965 C   0  0  0  0  0  0  0  0  0  0  0  0
   55.4191   29.2050   53.4652 C   0  0  0  0  0  0  0  0  0  0  0  0
   56.6542   29.3221   54.1311 C   0  0  0  0  0  0  0  0  0  0  0  0
   57.5789   30.2945   53.7607 C   0  0  0  0  0  0  0  0  0  0  0  0
   57.3083   31.1501   52.6927 C   0  0  0  0  0  0  0  0  0  0  0  0
   56.0487   31.1163   52.0843 C   0  0  0  0  0  0  0  0  0  0  0  0
   55.0574   30.1987   52.4949 C   0  0  0  0  0  0  0  0  0  0  0  0
   53.8232   30.3481   51.9486 C   0  0  0  0  0  0  0  0  0  0  0  0
   52.5734   30.6331   52.6768 C   0  0  0  0  0  0  0  0  0  0  0  0
   52.2083   29.9900   53.7988 N   0  0  0  0  0  0  0  0  0  0  0  0
   50.9753   30.4814   54.0541 C   0  0  0  0  0  0  0  0  0  0  0  0
   50.2977   30.1241   55.0527 O   0  0  0  0  0  0  0  0  0  0  0  0
   50.5224   31.3750   53.1491 N   0  0  0  0  0  0  0  0  0  0  0  0
   51.5381   31.4503   52.2763 C   0  0  0  0  0  0  0  0  0  0  0  0
   51.5051   32.2234   51.1217 O   0  0  0  0  0  0  0  0  0  0  0  0
   58.3152   32.1522   52.2877 C   0  0  0  0  0  0  0  0  0  0  0  0
   57.9804   33.3660   52.3619 O   0  0  0  0  0  0  0  0  0  0  0  0
   59.6530   31.8174   51.8141 N   0  0  0  0  0  0  0  0  0  0  0  0
   60.4705   32.9458   51.3057 C   0  0  0  0  0  0  0  0  0  0  0  0
   60.0426   33.4172   49.9027 C   0  0  0  0  0  0  0  0  0  0  0  0
   60.0359   32.2760   48.9575 N   0  0  0  0  0  0  0  0  0  0  0  0
   59.1340   31.2197   49.4457 C   0  0  0  0  0  0  0  0  0  0  0  0
   59.6045   30.7228   50.8188 C   0  0  0  0  0  0  0  0  0  0  0  0
   59.2794   31.8011   52.7248 H   0  0  0  0  0  0  0  0  0  0  0  0
   59.7304   32.5885   47.5328 C   0  0  0  0  0  0  0  0  0  0  0  0
   58.5845   33.5746   47.2766 C   0  0  0  0  0  0  0  0  0  0  0  0
   59.5806   34.5622   46.6794 C   0  0  0  0  0  0  0  0  0  0  0  0
   60.7107   33.5533   46.8624 C   0  0  0  0  0  0  0  0  0  0  0  0
  1  2  2  0
  2  3  1  0
  3  4  2  0
  4  5  1  0
  5 16  1  0
 16 17  2  0
 16 18  1  0
 18 19  1  0
 19 20  1  0
 20 21  1  0
 21 25  1  0
 25 26  1  0
 26 27  1  0
 27 28  1  0
 21 22  1  0
 22 23  1  0
  5  6  2  0
  6  7  1  0
  7  8  2  0
  8  9  1  0
  9 10  1  0
 10 11  1  0
 11 12  2  0
 11 13  1  0
 13 14  1  0
 14 15  1  0
  7  2  1  0
 14  9  2  0
 23 18  1  0
 28 25  1  0
 18 24  1  0
M  CHG 1  10  -1
M  CHG 1  13  -1
M  CHG 1  15  -1
M  CHG 1  18   1
M  END
> <UniqueID>
26

> <SMILES>
C=c1ccc(C(=O)[NH+]2CCN(C3CCC3)CC2)c/c1=C/c1[n-]c(=O)[n-]c1[O-]

> <Energy>
184.2862959853967

> <Genealogy>
C=c1ccc(C(=O)[NH+]2CCN(C3CCC3)CC2)cc1=Cc1[n-]c(=O)[n-]c1[O-] (protonated)
C=c1ccc(C(=O)[NH+]2CCN(C3CCC3)CC2)c/c1=C/c1[n-]c(=O)[n-]c1[O-] (cis-trans isomerization)
C=c1ccc(C(=O)[NH+]2CCN(C3CCC3)CC2)c/c1=C/c1[n-]c(=O)[n-]c1[O-] (3D coordinates assigned)
C=c1ccc(C(=O)[NH+]2CCN(C3CCC3)CC2)c/c1=C/c1[n-]c(=O)[n-]c1[O-] (nonaromatic ring conformer: 184.2862959853967 kcal/mol)

> <smiles>
C=c1ccc(C(=O)N2CCN(C3CCC3)CC2)cc1=Cc1[nH]c(=O)[nH]c1O

> <score_type>
oracle

> <origin>
adg

> <m_score__min__energy>
-16.75

> <m_primary>
energy

> <minimizedAffinity>
-7.55328

> <minimizedRMSD>
1.18348

> <CNNscore>
0.2618639171

> <CNNaffinity>
5.5315814018

> <CNN_VS>
1.4485216141

> <CNNaffinity_variance>
0.0122415563

$$$$
31:0


 29 31  0  0  0  0  0  0  0  0999 V2000
   59.9842   29.1464   44.8809 C   0  0  0  0  0  0  0  0  0  0  0  0
   59.8283   28.5528   46.0746 C   0  0  0  0  0  0  0  0  0  0  0  0
   59.2826   27.2816   46.3190 C   0  0  0  0  0  0  0  0  0  0  0  0
   58.6156   26.4345   45.5106 C   0  0  0  0  0  0  0  0  0  0  0  0
   59.5172   27.0084   47.6549 C   0  0  0  0  0  0  0  0  0  0  0  0
   60.1182   28.1265   48.1924 C   0  0  0  0  0  0  0  0  0  0  0  0
   60.5086   28.2654   49.6337 C   0  0  0  0  0  0  0  0  0  0  0  0
   60.3129   29.0663   47.2377 N   0  0  0  0  0  0  0  0  0  0  0  0
   57.8202   25.2782   45.9544 C   0  0  0  0  0  0  0  0  0  0  0  0
   58.2956   24.0235   46.0578 N   0  0  0  0  0  0  0  0  0  0  0  0
   57.1957   23.2957   46.3529 C   0  0  0  0  0  0  0  0  0  0  0  0
   57.2380   22.0537   46.5439 O   0  0  0  0  0  0  0  0  0  0  0  0
   56.0490   24.0045   46.4168 N   0  0  0  0  0  0  0  0  0  0  0  0
   56.4573   25.2561   46.1496 C   0  0  0  0  0  0  0  0  0  0  0  0
   55.5944   26.3459   46.0862 O   0  0  0  0  0  0  0  0  0  0  0  0
   54.6771   26.2264   46.2353 H   0  0  0  0  0  0  0  0  0  0  0  0
   60.9145   30.3920   47.4481 C   0  0  0  0  0  0  0  0  0  0  0  0
   59.8737   31.3987   47.9444 C   0  0  0  0  0  0  0  0  0  0  0  0
   60.4015   32.7231   47.9087 O   0  0  0  0  0  0  0  0  0  0  0  0
   59.8016   33.7852   47.2210 C   0  0  0  0  0  0  0  0  0  0  0  0
   59.3354   34.7689   47.8563 O   0  0  0  0  0  0  0  0  0  0  0  0
   59.7437   33.8054   45.7465 C   0  0  0  0  0  0  0  0  0  0  0  0
   58.6255   33.7759   45.0051 C   0  0  0  0  0  0  0  0  0  0  0  0
   57.9940   32.5554   44.4660 C   0  0  0  0  0  0  0  0  0  0  0  0
   57.3904   31.6153   45.3205 C   0  0  0  0  0  0  0  0  0  0  0  0
   56.7691   30.4823   44.7885 C   0  0  0  0  0  0  0  0  0  0  0  0
   56.7296   30.2877   43.4058 C   0  0  0  0  0  0  0  0  0  0  0  0
   57.3029   31.2348   42.5506 C   0  0  0  0  0  0  0  0  0  0  0  0
   57.9237   32.3712   43.0778 C   0  0  0  0  0  0  0  0  0  0  0  0
  1  2  2  0
  2  3  1  0
  3  4  2  0
  4  9  1  0
  9 10  1  0
 10 11  1  0
 11 12  2  0
 11 13  1  0
 13 14  1  0
 14 15  1  0
  3  5  1  0
  5  6  2  0
  6  7  1  0
  6  8  1  0
  8 17  1  0
 17 18  1  0
 18 19  1  0
 19 20  1  0
 20 21  2  0
 20 22  1  0
 22 23  2  0
 23 24  1  0
 24 25  2  0
 25 26  1  0
 26 27  2  0
 27 28  1  0
 28 29  2  0
  8  2  1  0
 29 24  1  0
 14  9  2  0
 15 16  1  0
M  CHG 1  10  -1
M  CHG 1  13  -1
M  END
> <UniqueID>
31

> <SMILES>
C=c1c(=Cc2[n-]c(=O)[n-]c2O)cc(C)n1CCOC(=O)C=Cc1ccccc1

> <Energy>
118.64453815019995

> <Genealogy>
C=c1c(=Cc2[n-]c(=O)[n-]c2O)cc(C)n1CCOC(=O)C=Cc1ccccc1 (protonated)
C=c1c(=Cc2[n-]c(=O)[n-]c2O)cc(C)n1CCOC(=O)C=Cc1ccccc1 (3D coordinates assigned)
C=c1c(=Cc2[n-]c(=O)[n-]c2O)cc(C)n1CCOC(=O)C=Cc1ccccc1 (optimized conformer: 118.64453815019995 kcal/mol)

> <smiles>
C=c1c(=Cc2[nH]c(=O)[nH]c2O)cc(C)n1CCOC(=O)C=Cc1ccccc1

> <score_type>
oracle

> <origin>
adg

> <m_score__min__energy>
-14.119999999999999

> <m_primary>
energy

> <minimizedAffinity>
-8.25314

> <minimizedRMSD>
0.78416

> <CNNscore>
0.1893554926

> <CNNaffinity>
6.2278423309

> <CNN_VS>
1.1792761087

> <CNNaffinity_variance>
0.1957826465

$$$$
32:0


 23 25  0  0  0  0  0  0  0  0999 V2000
   57.8436   33.1785   45.4848 C   0  0  0  0  0  0  0  0  0  0  0  0
   58.4335   32.0155   45.7660 C   0  0  0  0  0  0  0  0  0  0  0  0
   58.3747   30.6832   44.7444 S   0  0  0  0  0  0  0  0  0  0  0  0
   59.3016   29.6990   45.7458 C   0  0  0  0  0  0  0  0  0  0  0  0
   59.5976   28.4244   45.4387 C   0  0  0  0  0  0  0  0  0  0  0  0
   59.6191   30.4496   46.8906 C   0  0  0  0  0  0  0  0  0  0  0  0
   60.2494   29.9752   47.8724 O   0  0  0  0  0  0  0  0  0  0  0  0
   59.1486   31.7363   46.8925 N   0  0  0  0  0  0  0  0  0  0  0  0
   58.7731   27.2414   45.7487 C   0  0  0  0  0  0  0  0  0  0  0  0
   59.2430   26.0139   46.0337 N   0  0  0  0  0  0  0  0  0  0  0  0
   58.1269   25.2595   46.1205 C   0  0  0  0  0  0  0  0  0  0  0  0
   58.1577   24.0307   46.3907 O   0  0  0  0  0  0  0  0  0  0  0  0
   56.9754   25.9250   45.8852 N   0  0  0  0  0  0  0  0  0  0  0  0
   57.4039   27.1740   45.6397 C   0  0  0  0  0  0  0  0  0  0  0  0
   56.5615   28.2289   45.3180 O   0  0  0  0  0  0  0  0  0  0  0  0
   59.3531   32.6689   48.0168 C   0  0  0  0  0  0  0  0  0  0  0  0
   60.8234   32.8326   48.3144 C   0  0  0  0  0  0  0  0  0  0  0  0
   61.3056   32.6514   49.6217 C   0  0  0  0  0  0  0  0  0  0  0  0
   62.6682   32.8004   49.8998 C   0  0  0  0  0  0  0  0  0  0  0  0
   63.5592   33.1246   48.8733 C   0  0  0  0  0  0  0  0  0  0  0  0
   64.8811   33.2682   49.1434 F   0  0  0  0  0  0  0  0  0  0  0  0
   63.0907   33.2957   47.5679 C   0  0  0  0  0  0  0  0  0  0  0  0
   61.7293   33.1473   47.2874 C   0  0  0  0  0  0  0  0  0  0  0  0
  1  2  2  0
  2  3  1  0
  3  4  1  0
  4  5  2  0
  5  9  1  0
  9 10  1  0
 10 11  1  0
 11 12  2  0
 11 13  1  0
 13 14  1  0
 14 15  1  0
  4  6  1  0
  6  7  2  0
  6  8  1  0
  8 16  1  0
 16 17  1  0
 17 18  2  0
 18 19  1  0
 19 20  2  0
 20 21  1  0
 20 22  1  0
 22 23  2  0
  8  2  1  0
 23 17  1  0
 14  9  2  0
M  CHG 1  10  -1
M  CHG 1  13  -1
M  CHG 1  15  -1
M  END
> <UniqueID>
32

> <SMILES>
C=c1s/c(=C/c2[n-]c(=O)[n-]c2[O-])c(=O)n1Cc1ccc(F)cc1

> <Energy>
102.25734614686091

> <Genealogy>
C=c1sc(=Cc2[n-]c(=O)[n-]c2[O-])c(=O)n1Cc1ccc(F)cc1 (protonated)
C=c1s/c(=C/c2[n-]c(=O)[n-]c2[O-])c(=O)n1Cc1ccc(F)cc1 (cis-trans isomerization)
C=c1s/c(=C/c2[n-]c(=O)[n-]c2[O-])c(=O)n1Cc1ccc(F)cc1 (3D coordinates assigned)
C=c1s/c(=C/c2[n-]c(=O)[n-]c2[O-])c(=O)n1Cc1ccc(F)cc1 (optimized conformer: 102.25734614686091 kcal/mol)

> <smiles>
C=c1sc(=Cc2[nH]c(=O)[nH]c2O)c(=O)n1Cc1ccc(F)cc1

> <score_type>
oracle

> <origin>
adg

> <m_score__min__energy>
-15.550000000000001

> <m_primary>
energy

> <minimizedAffinity>
-7.36884

> <minimizedRMSD>
1.71628

> <CNNscore>
0.7201331258

> <CNNaffinity>
6.7465233803

> <CNN_VS>
4.8583950996

> <CNNaffinity_variance>
0.4219091833

$$$$
36:0


 30 33  0  0  0  0  0  0  0  0999 V2000
   56.7277   29.1943   44.6590 C   0  0  0  0  0  0  0  0  0  0  0  0
   57.9996   29.0219   45.0498 C   0  0  0  0  0  0  0  0  0  0  0  0
   58.6871   27.8037   45.1989 C   0  0  0  0  0  0  0  0  0  0  0  0
   58.3773   26.5527   44.8074 C   0  0  0  0  0  0  0  0  0  0  0  0
   59.8569   28.1045   45.8758 C   0  0  0  0  0  0  0  0  0  0  0  0
   59.8815   29.4713   46.0552 C   0  0  0  0  0  0  0  0  0  0  0  0
   60.9504   30.2185   46.7905 C   0  0  0  0  0  0  0  0  0  0  0  0
   58.7565   30.0264   45.5572 N   0  0  0  0  0  0  0  0  0  0  0  0
   58.3766   31.3999   45.7265 C   0  0  0  0  0  0  0  0  0  0  0  0
   57.8133   32.0055   44.7773 O   0  0  0  0  0  0  0  0  0  0  0  0
   58.6413   32.0786   46.9685 N   0  0  0  0  0  0  0  0  0  0  0  0
   58.6533   33.5445   47.0349 C   0  0  0  0  0  0  0  0  0  0  0  0
   59.7700   34.0354   47.9837 C   0  0  0  0  0  0  0  0  0  0  0  0
   59.9734   33.1961   49.2045 N   0  0  0  0  0  0  0  0  0  0  0  0
   58.8695   32.2327   49.4145 C   0  0  0  0  0  0  0  0  0  0  0  0
   58.7145   31.3025   48.2095 C   0  0  0  0  0  0  0  0  0  0  0  0
   57.6560   25.5419   45.6038 C   0  0  0  0  0  0  0  0  0  0  0  0
   58.1956   24.4058   46.0834 N   0  0  0  0  0  0  0  0  0  0  0  0
   57.2135   23.8996   46.8611 C   0  0  0  0  0  0  0  0  0  0  0  0
   57.3274   22.8076   47.4747 O   0  0  0  0  0  0  0  0  0  0  0  0
   56.1002   24.6592   46.9346 N   0  0  0  0  0  0  0  0  0  0  0  0
   56.4030   25.7032   46.1426 C   0  0  0  0  0  0  0  0  0  0  0  0
   55.5567   26.7874   45.9282 O   0  0  0  0  0  0  0  0  0  0  0  0
   54.7150   26.8132   46.3391 H   0  0  0  0  0  0  0  0  0  0  0  0
   61.3565   32.6305   49.2713 C   0  0  0  0  0  0  0  0  0  0  0  0
   62.2233   33.2648   48.1478 C   0  0  0  0  0  0  0  0  0  0  0  0
   63.7215   33.2717   48.4856 C   0  0  0  0  0  0  0  0  0  0  0  0
   64.0419   32.1609   49.2915 O   0  0  0  0  0  0  0  0  0  0  0  0
   63.5266   32.3408   50.5990 C   0  0  0  0  0  0  0  0  0  0  0  0
   62.0648   32.8484   50.6317 C   0  0  0  0  0  0  0  0  0  0  0  0
  1  2  2  0
  2  3  1  0
  3  4  2  0
  4 17  1  0
 17 18  1  0
 18 19  1  0
 19 20  2  0
 19 21  1  0
 21 22  1  0
 22 23  1  0
  3  5  1  0
  5  6  2  0
  6  7  1  0
  6  8  1  0
  8  9  1  0
  9 10  2  0
  9 11  1  0
 11 12  1  0
 12 13  1  0
 13 14  1  0
 14 25  1  0
 25 26  1  0
 26 27  1  0
 27 28  1  0
 28 29  1  0
 29 30  1  0
 14 15  1  0
 15 16  1  0
  8  2  1  0
 16 11  1  0
 22 17  2  0
 30 25  1  0
 23 24  1  0
M  CHG 1  18  -1
M  CHG 1  21  -1
M  END
> <UniqueID>
36

> <SMILES>
C=c1c(=Cc2[n-]c(=O)[n-]c2O)cc(C)n1C(=O)N1CCN(C2CCOCC2)CC1

> <Energy>
150.21134445812922

> <Genealogy>
C=c1c(=Cc2[n-]c(=O)[n-]c2O)cc(C)n1C(=O)N1CCN(C2CCOCC2)CC1 (protonated)
C=c1c(=Cc2[n-]c(=O)[n-]c2O)cc(C)n1C(=O)N1CCN(C2CCOCC2)CC1 (3D coordinates assigned)
C=c1c(=Cc2[n-]c(=O)[n-]c2O)cc(C)n1C(=O)N1CCN(C2CCOCC2)CC1 (nonaromatic ring conformer: 150.21134445812922 kcal/mol)

> <smiles>
C=c1c(=Cc2[nH]c(=O)[nH]c2O)cc(C)n1C(=O)N1CCN(C2CCOCC2)CC1

> <score_type>
oracle

> <origin>
adg

> <m_score__min__energy>
-14.039999999999999

> <m_primary>
energy

> <minimizedAffinity>
-9.83681

> <minimizedRMSD>
0.77711

> <CNNscore>
0.3221024871

> <CNNaffinity>
6.6077532768

> <CNN_VS>
2.1283738613

> <CNNaffinity_variance>
0.0133419707

$$$$
37:0


 28 30  0  0  0  0  0  0  0  0999 V2000
   59.7912   29.9691   48.0778 C   0  0  0  0  0  0  0  0  0  0  0  0
   59.5096   30.7988   47.0602 C   0  0  0  0  0  0  0  0  0  0  0  0
   59.1553   30.4249   45.7538 C   0  0  0  0  0  0  0  0  0  0  0  0
   59.2219   29.2341   45.1260 C   0  0  0  0  0  0  0  0  0  0  0  0
   58.6908   31.5710   45.1377 C   0  0  0  0  0  0  0  0  0  0  0  0
   58.8364   32.5999   46.0421 C   0  0  0  0  0  0  0  0  0  0  0  0
   58.4016   34.0135   45.7822 C   0  0  0  0  0  0  0  0  0  0  0  0
   59.3800   32.1476   47.1983 N   0  0  0  0  0  0  0  0  0  0  0  0
   58.5850   27.9843   45.5902 C   0  0  0  0  0  0  0  0  0  0  0  0
   57.1910   27.8073   45.5336 C   0  0  0  0  0  0  0  0  0  0  0  0
   56.3727   28.8045   45.0124 O   0  0  0  0  0  0  0  0  0  0  0  0
   56.6328   26.6568   45.9963 N   0  0  0  0  0  0  0  0  0  0  0  0
   57.4037   25.6761   46.5396 C   0  0  0  0  0  0  0  0  0  0  0  0
   56.7214   24.2976   47.0968 S   0  0  0  0  0  0  0  0  0  0  0  0
   58.7475   25.8409   46.6333 N   0  0  0  0  0  0  0  0  0  0  0  0
   59.3516   26.9701   46.1811 C   0  0  0  0  0  0  0  0  0  0  0  0
   60.6021   27.0883   46.2898 O   0  0  0  0  0  0  0  0  0  0  0  0
   55.6580   26.5318   45.9373 H   0  0  0  0  0  0  0  0  0  0  0  0
   59.6455   32.9685   48.3956 C   0  0  0  0  0  0  0  0  0  0  0  0
   61.0782   32.8127   48.9106 C   0  0  0  0  0  0  0  0  0  0  0  0
   61.3251   32.3679   50.2415 C   0  0  0  0  0  0  0  0  0  0  0  0
   60.2080   32.0972   51.2199 C   0  0  0  0  0  0  0  0  0  0  0  0
   62.6447   32.1600   50.6739 C   0  0  0  0  0  0  0  0  0  0  0  0
   63.7278   32.4301   49.8360 C   0  0  0  0  0  0  0  0  0  0  0  0
   65.1274   32.1545   50.2994 C   0  0  0  0  0  0  0  0  0  0  0  0
   63.4949   32.9128   48.5473 C   0  0  0  0  0  0  0  0  0  0  0  0
   62.1905   33.1450   48.0851 C   0  0  0  0  0  0  0  0  0  0  0  0
   62.0278   33.7190   46.7019 C   0  0  0  0  0  0  0  0  0  0  0  0
  1  2  2  0
  2  3  1  0
  3  4  2  0
  4  9  1  0
  9 10  2  0
 10 11  1  0
 10 12  1  0
 12 13  1  0
 13 14  2  0
 13 15  1  0
 15 16  1  0
 16 17  2  0
  3  5  1  0
  5  6  2  0
  6  7  1  0
  6  8  1  0
  8 19  1  0
 19 20  1  0
 20 21  2  0
 21 22  1  0
 21 23  1  0
 23 24  2  0
 24 25  1  0
 24 26  1  0
 26 27  2  0
 27 28  1  0
  8  2  1  0
 27 20  1  0
 16  9  1  0
 12 18  1  0
M  CHG 1  11  -1
M  CHG 1  15  -1
M  END
> <UniqueID>
37

> <SMILES>
C=c1/c(=C\c2c([O-])[nH]c(=S)[n-]c2=O)cc(C)n1Cc1c(C)cc(C)cc1C

> <Energy>
95.91459223155582

> <Genealogy>
C=c1c(=Cc2c([O-])[nH]c(=S)[n-]c2=O)cc(C)n1Cc1c(C)cc(C)cc1C (protonated)
C=c1/c(=C\c2c([O-])[nH]c(=S)[n-]c2=O)cc(C)n1Cc1c(C)cc(C)cc1C (cis-trans isomerization)
C=c1/c(=C\c2c([O-])[nH]c(=S)[n-]c2=O)cc(C)n1Cc1c(C)cc(C)cc1C (3D coordinates assigned)
C=c1/c(=C\c2c([O-])[nH]c(=S)[n-]c2=O)cc(C)n1Cc1c(C)cc(C)cc1C (optimized conformer: 95.91459223155582 kcal/mol)

> <smiles>
C=c1c(=Cc2c(O)[nH]c(=S)[nH]c2=O)cc(C)n1Cc1c(C)cc(C)cc1C

> <score_type>
oracle

> <origin>
adg

> <m_score__min__energy>
-14.119999999999999

> <m_primary>
energy

> <minimizedAffinity>
-8.53224

> <minimizedRMSD>
1.88052

> <CNNscore>
0.5649189353

> <CNNaffinity>
7.2383742332

> <CNN_VS>
4.0890946388

> <CNNaffinity_variance>
0.1217271462

$$$$
42:0


 28 30  0  0  0  0  0  0  0  0999 V2000
   57.7219   29.5983   45.4630 C   0  0  0  0  0  0  0  0  0  0  0  0
   58.7033   30.1525   46.3067 C   0  0  0  0  0  0  0  0  0  0  0  0
   59.0240   31.5152   46.2239 C   0  0  0  0  0  0  0  0  0  0  0  0
   58.3570   32.3281   45.3005 C   0  0  0  0  0  0  0  0  0  0  0  0
   57.3606   31.7905   44.4814 C   0  0  0  0  0  0  0  0  0  0  0  0
   57.0385   30.4338   44.5658 C   0  0  0  0  0  0  0  0  0  0  0  0
   56.0404   29.9134   43.7490 O   0  0  0  0  0  0  0  0  0  0  0  0
   60.2817   32.1978   47.2526 S   0  0  0  0  0  0  0  0  0  0  0  0
   60.9080   33.3759   46.5599 O   0  0  0  0  0  0  0  0  0  0  0  0
   61.3451   31.1539   47.4599 O   0  0  0  0  0  0  0  0  0  0  0  0
   59.6046   32.6552   48.8029 N   0  0  0  0  0  0  0  0  0  0  0  0
   60.1879   33.8974   49.3510 C   0  0  0  0  0  0  0  0  0  0  0  0
   61.5766   33.6837   49.9674 C   0  0  0  0  0  0  0  0  0  0  0  0
   61.5341   32.5770   51.0202 C   0  0  0  0  0  0  0  0  0  0  0  0
   60.9608   31.2909   50.4261 C   0  0  0  0  0  0  0  0  0  0  0  0
   59.5912   31.5416   49.7744 C   0  0  0  0  0  0  0  0  0  0  0  0
   57.3614   28.2107   45.5364 N   0  0  0  0  0  0  0  0  0  0  0  0
   59.3827   27.0358   45.3630 O   0  0  0  0  0  0  0  0  0  0  0  0
   58.2371   27.1296   45.8803 C   0  0  0  0  0  0  0  0  0  0  0  0
   57.7786   26.0959   46.8569 C   0  0  0  0  0  0  0  0  0  0  0  0
   57.0501   25.0059   46.1367 C   0  0  0  0  0  0  0  0  0  0  0  0
   57.7491   23.5830   45.5647 S   0  0  0  0  0  0  0  0  0  0  0  0
   56.3187   23.0752   44.8418 C   0  0  0  0  0  0  0  0  0  0  0  0
   56.1918   22.0000   44.1999 O   0  0  0  0  0  0  0  0  0  0  0  0
   55.3116   23.9603   44.9993 N   0  0  0  0  0  0  0  0  0  0  0  0
   55.7219   25.0420   45.7152 C   0  0  0  0  0  0  0  0  0  0  0  0
   54.8689   26.1059   45.9935 O   0  0  0  0  0  0  0  0  0  0  0  0
   53.9827   26.0876   45.6899 H   0  0  0  0  0  0  0  0  0  0  0  0
 18 19  2  0
 19 20  1  0
 20 21  1  0
 21 22  1  0
 22 23  1  0
 23 24  2  0
 23 25  1  0
 25 26  1  0
 26 27  1  0
 19 17  1  0
 17  1  1  0
  1  2  2  0
  2  3  1  0
  3  8  1  0
  8  9  2  0
  8 10  2  0
  8 11  1  0
 11 12  1  0
 12 13  1  0
 13 14  1  0
 14 15  1  0
 15 16  1  0
  3  4  2  0
  4  5  1  0
  5  6  2  0
  6  7  1  0
 26 21  2  0
  6  1  1  0
 16 11  1  0
 27 28  1  0
M  CHG 1   7  -1
M  CHG 1  17  -1
M  CHG 1  25  -1
M  END
> <UniqueID>
42

> <SMILES>
O=C(Cc1sc(=O)[n-]c1O)[N-]c1cc(S(=O)(=O)N2CCCCC2)ccc1[O-]

> <Energy>
74.59657434835302

> <Genealogy>
O=C(Cc1sc(=O)[n-]c1O)[N-]c1cc(S(=O)(=O)N2CCCCC2)ccc1[O-] (protonated)
O=C(Cc1sc(=O)[n-]c1O)[N-]c1cc(S(=O)(=O)N2CCCCC2)ccc1[O-] (3D coordinates assigned)
O=C(Cc1sc(=O)[n-]c1O)[N-]c1cc(S(=O)(=O)N2CCCCC2)ccc1[O-] (nonaromatic ring conformer: 74.59657434835302 kcal/mol)

> <smiles>
O=C(Cc1sc(=O)[nH]c1O)Nc1cc(S(=O)(=O)N2CCCCC2)ccc1O

> <score_type>
oracle

> <origin>
adg

> <m_score__min__energy>
-14.68

> <m_primary>
energy

> <minimizedAffinity>
-8.33094

> <minimizedRMSD>
1.18769

> <CNNscore>
0.3570010662

> <CNNaffinity>
6.3971924782

> <CNN_VS>
2.2838044167

> <CNNaffinity_variance>
0.1316064000

$$$$
72:0


 34 37  0  0  0  0  0  0  0  0999 V2000
   58.8405   31.6118   45.0401 C   0  0  0  0  0  0  0  0  0  0  0  0
   58.5426   32.1731   46.4091 C   0  0  0  0  0  0  0  0  0  0  0  0
   57.4223   32.7155   46.6138 O   0  0  0  0  0  0  0  0  0  0  0  0
   59.4756   32.0272   47.5029 N   0  0  0  0  0  0  0  0  0  0  0  0
   60.9144   31.8702   47.2345 C   0  0  0  0  0  0  0  0  0  0  0  0
   61.7514   31.9912   48.5109 C   0  0  0  0  0  0  0  0  0  0  0  0
   61.1722   31.1609   49.5729 N   0  0  0  0  0  0  0  0  0  0  0  0
   62.0369   30.5021   50.5161 C   0  0  0  0  0  0  0  0  0  0  0  0
   63.1559   31.0101   50.7992 O   0  0  0  0  0  0  0  0  0  0  0  0
   59.7180   31.1645   49.8017 C   0  0  0  0  0  0  0  0  0  0  0  0
   59.0039   32.1681   48.8890 C   0  0  0  0  0  0  0  0  0  0  0  0
   61.6282   29.2487   51.1830 C   0  0  0  0  0  0  0  0  0  0  0  0
   61.9185   29.0748   52.5464 C   0  0  0  0  0  0  0  0  0  0  0  0
   61.5353   27.9048   53.2071 C   0  0  0  0  0  0  0  0  0  0  0  0
   60.8687   26.8935   52.5104 C   0  0  0  0  0  0  0  0  0  0  0  0
   60.5946   27.0453   51.1493 C   0  0  0  0  0  0  0  0  0  0  0  0
   60.9752   28.2138   50.4761 C   0  0  0  0  0  0  0  0  0  0  0  0
   60.6849   28.3098   48.7413 Cl  0  0  0  0  0  0  0  0  0  0  0  0
   60.3187   28.9934   45.1925 C   0  0  0  0  0  0  0  0  0  0  0  0
   59.0057   29.0764   44.9381 C   0  0  0  0  0  0  0  0  0  0  0  0
   58.0802   28.0316   44.7890 C   0  0  0  0  0  0  0  0  0  0  0  0
   58.2734   26.7034   44.7127 C   0  0  0  0  0  0  0  0  0  0  0  0
   56.8372   28.5559   44.7140 N   0  0  0  0  0  0  0  0  0  0  0  0
   57.0272   29.8869   44.7776 C   0  0  0  0  0  0  0  0  0  0  0  0
   56.0764   30.7129   44.7285 O   0  0  0  0  0  0  0  0  0  0  0  0
   58.3197   30.2433   44.9072 N   0  0  0  0  0  0  0  0  0  0  0  0
   57.7216   25.7032   45.6376 C   0  0  0  0  0  0  0  0  0  0  0  0
   58.4775   24.2541   46.0643 S   0  0  0  0  0  0  0  0  0  0  0  0
   57.1318   23.7079   46.9114 C   0  0  0  0  0  0  0  0  0  0  0  0
   57.0752   22.6078   47.5197 O   0  0  0  0  0  0  0  0  0  0  0  0
   56.0995   24.5749   46.8635 N   0  0  0  0  0  0  0  0  0  0  0  0
   56.4188   25.6807   46.1396 C   0  0  0  0  0  0  0  0  0  0  0  0
   55.4950   26.7014   45.9326 O   0  0  0  0  0  0  0  0  0  0  0  0
   54.6329   26.6334   46.2935 H   0  0  0  0  0  0  0  0  0  0  0  0
 19 20  2  0
 20 21  1  0
 21 22  2  0
 22 27  1  0
 27 28  1  0
 28 29  1  0
 29 30  2  0
 29 31  1  0
 31 32  1  0
 32 33  1  0
 21 23  1  0
 23 24  1  0
 24 25  2  0
 24 26  1  0
 26  1  1  0
  1  2  1  0
  2  3  2  0
  2  4  1  0
  4  5  1  0
  5  6  1  0
  6  7  1  0
  7  8  1  0
  8  9  2  0
  8 12  1  0
 12 13  2  0
 13 14  1  0
 14 15  2  0
 15 16  1  0
 16 17  2  0
 17 18  1  0
  7 10  1  0
 10 11  1  0
 26 20  1  0
 11  4  1  0
 32 27  2  0
 17 12  1  0
 33 34  1  0
M  CHG 1  23  -1
M  CHG 1  31  -1
M  END
> <UniqueID>
70

> <SMILES>
C=c1c(=Cc2sc(=O)[n-]c2O)[n-]c(=O)n1CC(=O)N1CCN(C(=O)c2ccccc2Cl)CC1

> <Energy>
137.3681748954975

> <Genealogy>
C=c1c(=Cc2sc(=O)[n-]c2O)[n-]c(=O)n1CC(=O)N1CCN(C(=O)c2ccccc2Cl)CC1 (protonated)
C=c1c(=Cc2sc(=O)[n-]c2O)[n-]c(=O)n1CC(=O)N1CCN(C(=O)c2ccccc2Cl)CC1 (3D coordinates assigned)
C=c1c(=Cc2sc(=O)[n-]c2O)[n-]c(=O)n1CC(=O)N1CCN(C(=O)c2ccccc2Cl)CC1 (nonaromatic ring conformer: 137.3681748954975 kcal/mol)

> <smiles>
C=c1c(=Cc2sc(=O)[nH]c2O)[nH]c(=O)n1CC(=O)N1CCN(C(=O)c2ccccc2Cl)CC1

> <score_type>
oracle

> <origin>
adg

> <m_score__min__energy>
-14.1

> <m_primary>
energy

> <minimizedAffinity>
-8.55954

> <minimizedRMSD>
2.25417

> <CNNscore>
0.3179987967

> <CNNaffinity>
6.3860802650

> <CNN_VS>
2.0307657719

> <CNNaffinity_variance>
0.8325818181

$$$$
75:0


 25 27  0  0  0  0  0  0  0  0999 V2000
   54.4020   28.5434   55.0927 C   0  0  0  0  0  0  0  0  0  0  0  0
   54.9959   29.2337   54.1156 C   0  0  0  0  0  0  0  0  0  0  0  0
   56.6624   29.2329   53.8805 S   0  0  0  0  0  0  0  0  0  0  0  0
   56.6613   30.2487   52.5451 C   0  0  0  0  0  0  0  0  0  0  0  0
   55.3506   30.6115   52.2567 C   0  0  0  0  0  0  0  0  0  0  0  0
   54.3955   30.0409   53.1272 C   0  0  0  0  0  0  0  0  0  0  0  0
   53.0685   30.2823   53.0463 C   0  0  0  0  0  0  0  0  0  0  0  0
   52.3308   30.4720   51.7828 C   0  0  0  0  0  0  0  0  0  0  0  0
   52.4292   29.6331   50.7376 N   0  0  0  0  0  0  0  0  0  0  0  0
   51.6809   30.2294   49.7852 C   0  0  0  0  0  0  0  0  0  0  0  0
   51.5141   29.7298   48.6418 O   0  0  0  0  0  0  0  0  0  0  0  0
   51.1332   31.4088   50.1485 N   0  0  0  0  0  0  0  0  0  0  0  0
   51.5652   31.5567   51.4121 C   0  0  0  0  0  0  0  0  0  0  0  0
   51.2996   32.6762   52.1895 O   0  0  0  0  0  0  0  0  0  0  0  0
   57.8580   30.6972   51.8207 C   0  0  0  0  0  0  0  0  0  0  0  0
   58.4120   31.7831   52.1408 O   0  0  0  0  0  0  0  0  0  0  0  0
   58.3910   29.9008   50.7573 N   0  0  0  0  0  0  0  0  0  0  0  0
   59.6255   30.2184   50.0510 C   0  0  0  0  0  0  0  0  0  0  0  0
   59.3183   30.7789   48.6897 C   0  0  0  0  0  0  0  0  0  0  0  0
   59.0724   29.9231   47.6027 C   0  0  0  0  0  0  0  0  0  0  0  0
   58.8103   30.4544   46.3360 C   0  0  0  0  0  0  0  0  0  0  0  0
   58.7987   31.8378   46.1432 C   0  0  0  0  0  0  0  0  0  0  0  0
   59.0496   32.6959   47.2184 C   0  0  0  0  0  0  0  0  0  0  0  0
   59.0393   34.4340   46.9759 Cl  0  0  0  0  0  0  0  0  0  0  0  0
   59.3099   32.1695   48.4892 C   0  0  0  0  0  0  0  0  0  0  0  0
  1  2  2  0
  2  3  1  0
  3  4  1  0
  4 15  1  0
 15 16  2  0
 15 17  1  0
 17 18  1  0
 18 19  1  0
 19 20  2  0
 20 21  1  0
 21 22  2  0
 22 23  1  0
 23 24  1  0
 23 25  2  0
  4  5  2  0
  5  6  1  0
  6  7  2  0
  7  8  1  0
  8  9  1  0
  9 10  1  0
 10 11  2  0
 10 12  1  0
 12 13  1  0
 13 14  1  0
  6  2  1  0
 13  8  2  0
 25 19  1  0
M  CHG 1   9  -1
M  CHG 1  12  -1
M  CHG 1  14  -1
M  CHG 1  17  -1
M  END
> <UniqueID>
73

> <SMILES>
C=c1sc(C(=O)[N-]Cc2cccc(Cl)c2)cc1=Cc1[n-]c(=O)[n-]c1[O-]

> <Energy>
99.082813738598

> <Genealogy>
C=c1sc(C(=O)[N-]Cc2cccc(Cl)c2)cc1=Cc1[n-]c(=O)[n-]c1[O-] (protonated)
C=c1sc(C(=O)[N-]Cc2cccc(Cl)c2)cc1=Cc1[n-]c(=O)[n-]c1[O-] (3D coordinates assigned)
C=c1sc(C(=O)[N-]Cc2cccc(Cl)c2)cc1=Cc1[n-]c(=O)[n-]c1[O-] (optimized conformer: 99.082813738598 kcal/mol)

> <smiles>
C=c1sc(C(=O)NCc2cccc(Cl)c2)cc1=Cc1[nH]c(=O)[nH]c1O

> <score_type>
oracle

> <origin>
adg

> <m_score__min__energy>
-18.199999999999999

> <m_primary>
energy

> <minimizedAffinity>
-5.83421

> <minimizedRMSD>
0.99139

> <CNNscore>
0.2405273169

> <CNNaffinity>
5.6486420631

> <CNN_VS>
1.3586527109

> <CNNaffinity_variance>
0.0140605317

$$$$
89:0


 33 36  0  0  0  0  0  0  0  0999 V2000
   58.2633   31.4747   45.4974 C   0  0  0  0  0  0  0  0  0  0  0  0
   57.6153   32.1942   44.6902 O   0  0  0  0  0  0  0  0  0  0  0  0
   59.0668   32.0985   46.5188 N   0  0  0  0  0  0  0  0  0  0  0  0
   60.3708   31.5107   46.8707 C   0  0  0  0  0  0  0  0  0  0  0  0
   61.2287   32.4926   47.6710 C   0  0  0  0  0  0  0  0  0  0  0  0
   60.4261   33.0690   48.7554 N   0  0  0  0  0  0  0  0  0  0  0  0
   59.0967   33.6252   48.4638 C   0  0  0  0  0  0  0  0  0  0  0  0
   58.7159   33.4481   46.9866 C   0  0  0  0  0  0  0  0  0  0  0  0
   56.7200   29.7127   43.4534 C   0  0  0  0  0  0  0  0  0  0  0  0
   57.4305   29.2508   44.4843 C   0  0  0  0  0  0  0  0  0  0  0  0
   58.1632   30.0036   45.3962 C   0  0  0  0  0  0  0  0  0  0  0  0
   58.7316   29.1024   46.2765 C   0  0  0  0  0  0  0  0  0  0  0  0
   58.3411   27.8435   45.8561 C   0  0  0  0  0  0  0  0  0  0  0  0
   58.6690   26.7016   46.4818 C   0  0  0  0  0  0  0  0  0  0  0  0
   57.5426   27.9378   44.7699 N   0  0  0  0  0  0  0  0  0  0  0  0
   57.1240   27.1924   44.2817 H   0  0  0  0  0  0  0  0  0  0  0  0
   57.9948   25.4127   46.2563 C   0  0  0  0  0  0  0  0  0  0  0  0
   58.6545   24.2692   46.0064 N   0  0  0  0  0  0  0  0  0  0  0  0
   57.6646   23.3777   45.7779 C   0  0  0  0  0  0  0  0  0  0  0  0
   57.8888   22.1682   45.5162 O   0  0  0  0  0  0  0  0  0  0  0  0
   56.4174   23.8892   45.8414 N   0  0  0  0  0  0  0  0  0  0  0  0
   56.6427   25.1811   46.1332 C   0  0  0  0  0  0  0  0  0  0  0  0
   55.6334   26.1317   46.2339 O   0  0  0  0  0  0  0  0  0  0  0  0
   60.8860   33.0087   50.1197 C   0  0  0  0  0  0  0  0  0  0  0  0
   62.1955   32.5968   50.4097 C   0  0  0  0  0  0  0  0  0  0  0  0
   62.6412   32.5415   51.7312 C   0  0  0  0  0  0  0  0  0  0  0  0
   61.7814   32.8827   52.7774 C   0  0  0  0  0  0  0  0  0  0  0  0
   60.4567   33.2677   52.5108 C   0  0  0  0  0  0  0  0  0  0  0  0
   60.0229   33.3482   51.1748 C   0  0  0  0  0  0  0  0  0  0  0  0
   59.5412   33.6844   53.6344 C   0  0  0  0  0  0  0  0  0  0  0  0
   60.3004   34.0022   54.7460 F   0  0  0  0  0  0  0  0  0  0  0  0
   58.6688   32.6616   53.9624 F   0  0  0  0  0  0  0  0  0  0  0  0
   58.7928   34.7901   53.2695 F   0  0  0  0  0  0  0  0  0  0  0  0
  9 10  2  0
 10 11  1  0
 11  1  1  0
  1  2  2  0
  1  3  1  0
  3  4  1  0
  4  5  1  0
  5  6  1  0
  6 24  1  0
 24 25  2  0
 25 26  1  0
 26 27  2  0
 27 28  1  0
 28 30  1  0
 30 31  1  0
 30 32  1  0
 30 33  1  0
 28 29  2  0
  6  7  1  0
  7  8  1  0
 11 12  2  0
 12 13  1  0
 13 14  2  0
 14 17  1  0
 17 18  1  0
 18 19  1  0
 19 20  2  0
 19 21  1  0
 21 22  1  0
 22 23  1  0
 13 15  1  0
 15 10  1  0
  8  3  1  0
 22 17  2  0
 29 24  1  0
 15 16  1  0
M  CHG 1  18  -1
M  CHG 1  21  -1
M  CHG 1  23  -1
M  END
> <UniqueID>
86

> <SMILES>
C=c1[nH]/c(=C\c2[n-]c(=O)[n-]c2[O-])cc1C(=O)N1CCN(c2cccc(C(F)(F)F)c2)CC1

> <Energy>
123.61293914338918

> <Genealogy>
C=c1[nH]c(=Cc2[n-]c(=O)[n-]c2[O-])cc1C(=O)N1CCN(c2cccc(C(F)(F)F)c2)CC1 (protonated)
C=c1[nH]/c(=C\c2[n-]c(=O)[n-]c2[O-])cc1C(=O)N1CCN(c2cccc(C(F)(F)F)c2)CC1 (cis-trans isomerization)
C=c1[nH]/c(=C\c2[n-]c(=O)[n-]c2[O-])cc1C(=O)N1CCN(c2cccc(C(F)(F)F)c2)CC1 (3D coordinates assigned)
C=c1[nH]/c(=C\c2[n-]c(=O)[n-]c2[O-])cc1C(=O)N1CCN(c2cccc(C(F)(F)F)c2)CC1 (nonaromatic ring conformer: 123.61293914338918 kcal/mol)

> <smiles>
C=c1[nH]c(=Cc2[nH]c(=O)[nH]c2O)cc1C(=O)N1CCN(c2cccc(C(F)(F)F)c2)CC1

> <score_type>
oracle

> <origin>
adg

> <m_score__min__energy>
-18.219999999999999

> <m_primary>
energy

> <minimizedAffinity>
-9.03890

> <minimizedRMSD>
0.98737

> <CNNscore>
0.1533827335

> <CNNaffinity>
6.4529342651

> <CNN_VS>
0.9897686839

> <CNNaffinity_variance>
0.4602726698

$$$$
13:0


 26 28  0  0  0  0  0  0  0  0999 V2000
   60.0071   29.4425   46.1168 C   0  0  0  0  0  0  0  0  0  0  0  0
   59.1931   28.2749   46.4238 N   0  0  0  0  0  0  0  0  0  0  0  0
   57.1211   28.5277   45.3760 O   0  0  0  0  0  0  0  0  0  0  0  0
   58.1426   27.8132   45.5719 C   0  0  0  0  0  0  0  0  0  0  0  0
   58.2436   26.4672   44.9323 C   0  0  0  0  0  0  0  0  0  0  0  0
   57.5466   25.4381   45.7710 C   0  0  0  0  0  0  0  0  0  0  0  0
   58.1167   24.2880   46.1698 N   0  0  0  0  0  0  0  0  0  0  0  0
   57.1314   23.6736   46.8592 C   0  0  0  0  0  0  0  0  0  0  0  0
   57.2830   22.5491   47.4042 O   0  0  0  0  0  0  0  0  0  0  0  0
   55.9701   24.3585   46.9187 N   0  0  0  0  0  0  0  0  0  0  0  0
   56.2443   25.4725   46.2212 C   0  0  0  0  0  0  0  0  0  0  0  0
   55.3163   26.4860   46.0019 O   0  0  0  0  0  0  0  0  0  0  0  0
   54.4509   26.4130   46.3535 H   0  0  0  0  0  0  0  0  0  0  0  0
   59.7461   30.5515   47.1368 C   0  0  0  0  0  0  0  0  0  0  0  0
   59.3078   31.8344   46.4607 C   0  0  0  0  0  0  0  0  0  0  0  0
   58.2560   31.7655   45.5289 C   0  0  0  0  0  0  0  0  0  0  0  0
   57.8573   32.8972   44.8166 C   0  0  0  0  0  0  0  0  0  0  0  0
   58.5095   34.1131   45.0128 C   0  0  0  0  0  0  0  0  0  0  0  0
   59.5590   34.2027   45.9258 C   0  0  0  0  0  0  0  0  0  0  0  0
   59.9685   33.0767   46.6608 C   0  0  0  0  0  0  0  0  0  0  0  0
   61.0835   33.2408   47.6187 C   0  0  0  0  0  0  0  0  0  0  0  0
   60.8308   33.5800   48.9579 C   0  0  0  0  0  0  0  0  0  0  0  0
   61.8926   33.7710   49.8479 C   0  0  0  0  0  0  0  0  0  0  0  0
   63.2108   33.6441   49.4034 C   0  0  0  0  0  0  0  0  0  0  0  0
   63.4703   33.3293   48.0661 C   0  0  0  0  0  0  0  0  0  0  0  0
   62.4109   33.1334   47.1745 C   0  0  0  0  0  0  0  0  0  0  0  0
  3  4  2  0
  4  5  1  0
  5  6  1  0
  6  7  1  0
  7  8  1  0
  8  9  2  0
  8 10  1  0
 10 11  1  0
 11 12  1  0
  4  2  1  0
  2  1  1  0
  1 14  1  0
 14 15  1  0
 15 16  2  0
 16 17  1  0
 17 18  2  0
 18 19  1  0
 19 20  2  0
 20 21  1  0
 21 22  2  0
 22 23  1  0
 23 24  2  0
 24 25  1  0
 25 26  2  0
 11  6  2  0
 20 15  1  0
 26 21  1  0
 12 13  1  0
M  CHG 1   2  -1
M  CHG 1   7  -1
M  CHG 1  10  -1
M  END
> <UniqueID>
14

> <SMILES>
O=C(Cc1[n-]c(=O)[n-]c1O)[N-]CCc1ccccc1-c1ccccc1

> <Energy>
71.38736733414402

> <Genealogy>
O=C(Cc1[n-]c(=O)[n-]c1O)[N-]CCc1ccccc1-c1ccccc1 (protonated)
O=C(Cc1[n-]c(=O)[n-]c1O)[N-]CCc1ccccc1-c1ccccc1 (3D coordinates assigned)
O=C(Cc1[n-]c(=O)[n-]c1O)[N-]CCc1ccccc1-c1ccccc1 (optimized conformer: 71.38736733414402 kcal/mol)

> <smiles>
O=C(Cc1[nH]c(=O)[nH]c1O)NCCc1ccccc1-c1ccccc1

> <score_type>
oracle

> <origin>
adg

> <m_score__min__energy>
-14.6

> <m_primary>
energy

> <minimizedAffinity>
-8.82718

> <minimizedRMSD>
0.81405

> <CNNscore>
0.8627906442

> <CNNaffinity>
6.9430136681

> <CNN_VS>
5.9903674126

> <CNNaffinity_variance>
0.2184163928

$$$$
20:0


 28 30  0  0  0  0  0  0  0  0999 V2000
   58.4849   32.2587   51.7707 C   0  0  0  0  0  0  0  0  0  0  0  0
   59.5460   33.1582   51.9501 C   0  0  0  0  0  0  0  0  0  0  0  0
   60.5002   33.3312   50.9455 C   0  0  0  0  0  0  0  0  0  0  0  0
   60.3889   32.6393   49.7366 C   0  0  0  0  0  0  0  0  0  0  0  0
   59.3154   31.7615   49.5304 C   0  0  0  0  0  0  0  0  0  0  0  0
   58.3724   31.5637   50.5572 C   0  0  0  0  0  0  0  0  0  0  0  0
   57.4131   32.1318   52.8227 C   0  0  0  0  0  0  0  0  0  0  0  0
   56.2893   31.3812   52.2738 N   0  0  0  0  0  0  0  0  0  0  0  0
   56.6615   29.0724   52.3785 O   0  0  0  0  0  0  0  0  0  0  0  0
   55.9475   30.0629   52.7090 C   0  0  0  0  0  0  0  0  0  0  0  0
   54.6721   29.8421   53.4547 C   0  0  0  0  0  0  0  0  0  0  0  0
   53.5437   30.4756   52.6984 C   0  0  0  0  0  0  0  0  0  0  0  0
   53.2950   30.3097   51.3459 C   0  0  0  0  0  0  0  0  0  0  0  0
   52.1193   30.9826   51.0862 C   0  0  0  0  0  0  0  0  0  0  0  0
   51.7204   31.5138   52.2931 C   0  0  0  0  0  0  0  0  0  0  0  0
   50.5678   32.2702   52.4862 O   0  0  0  0  0  0  0  0  0  0  0  0
   52.5754   31.2089   53.2886 N   0  0  0  0  0  0  0  0  0  0  0  0
   59.1574   31.0342   48.2261 C   0  0  0  0  0  0  0  0  0  0  0  0
   59.8339   31.7847   47.1702 N   0  0  0  0  0  0  0  0  0  0  0  0
   58.6766   32.7370   46.2925 S   0  0  0  0  0  0  0  0  0  0  0  0
   59.3777   33.8909   45.6329 O   0  0  0  0  0  0  0  0  0  0  0  0
   57.6409   33.2717   47.2449 O   0  0  0  0  0  0  0  0  0  0  0  0
   57.8918   31.7576   45.0614 C   0  0  0  0  0  0  0  0  0  0  0  0
   57.9487   32.1336   43.7125 C   0  0  0  0  0  0  0  0  0  0  0  0
   57.3521   31.3169   42.7490 C   0  0  0  0  0  0  0  0  0  0  0  0
   56.7056   30.1435   43.1386 C   0  0  0  0  0  0  0  0  0  0  0  0
   56.6784   29.7941   44.4925 C   0  0  0  0  0  0  0  0  0  0  0  0
   57.2700   30.6004   45.4148 N   0  0  0  0  0  0  0  0  0  0  0  0
  9 10  2  0
 10 11  1  0
 11 12  1  0
 12 13  2  0
 13 14  1  0
 14 15  2  0
 15 16  1  0
 15 17  1  0
 10  8  1  0
  8  7  1  0
  7  1  1  0
  1  2  2  0
  2  3  1  0
  3  4  2  0
  4  5  1  0
  5 18  1  0
 18 19  1  0
 19 20  1  0
 20 21  2  0
 20 22  2  0
 20 23  1  0
 23 24  2  0
 24 25  1  0
 25 26  2  0
 26 27  1  0
 27 28  2  0
  5  6  2  0
 17 12  1  0
  6  1  1  0
 28 23  1  0
M  CHG 1   8  -1
M  CHG 1  16  -1
M  CHG 1  17  -1
M  CHG 1  19  -1
M  END
> <UniqueID>
20

> <SMILES>
O=C(Cc1ccc([O-])[n-]1)[N-]Cc1cccc(C[N-]S(=O)(=O)c2ccccn2)c1

> <Energy>
63.284524848084864

> <Genealogy>
O=C(Cc1ccc([O-])[n-]1)[N-]Cc1cccc(C[N-]S(=O)(=O)c2ccccn2)c1 (protonated)
O=C(Cc1ccc([O-])[n-]1)[N-]Cc1cccc(C[N-]S(=O)(=O)c2ccccn2)c1 (3D coordinates assigned)
O=C(Cc1ccc([O-])[n-]1)[N-]Cc1cccc(C[N-]S(=O)(=O)c2ccccn2)c1 (optimized conformer: 63.284524848084864 kcal/mol)

> <smiles>
O=C(Cc1ccc(O)[nH]1)NCc1cccc(CNS(=O)(=O)c2ccccn2)c1

> <score_type>
oracle

> <origin>
adg

> <m_score__min__energy>
-17.260000000000002

> <m_primary>
energy

> <minimizedAffinity>
-6.22511

> <minimizedRMSD>
0.73607

> <CNNscore>
0.4883505702

> <CNNaffinity>
6.0916409492

> <CNN_VS>
2.9748563766

> <CNNaffinity_variance>
0.0001675347

$$$$
22:0


 25 27  0  0  0  0  0  0  0  0999 V2000
   58.3047   31.4826   44.8672 N   0  0  0  0  0  0  0  0  0  0  0  0
   58.1749   32.6248   43.9699 C   0  0  0  0  0  0  0  0  0  0  0  0
   58.4130   33.8799   44.8490 C   0  0  0  0  0  0  0  0  0  0  0  0
   58.7099   33.3752   46.1863 N   0  0  0  0  0  0  0  0  0  0  0  0
   58.6282   31.9663   46.1519 C   0  0  0  0  0  0  0  0  0  0  0  0
   58.8186   31.2264   47.1546 O   0  0  0  0  0  0  0  0  0  0  0  0
   58.1970   30.0782   44.4771 C   0  0  0  0  0  0  0  0  0  0  0  0
   55.8155   30.1456   44.2791 O   0  0  0  0  0  0  0  0  0  0  0  0
   56.8146   29.5430   44.7569 C   0  0  0  0  0  0  0  0  0  0  0  0
   56.5845   28.3707   45.5573 N   0  0  0  0  0  0  0  0  0  0  0  0
   57.4206   27.4136   45.8442 C   0  0  0  0  0  0  0  0  0  0  0  0
   58.7694   27.6213   45.8378 N   0  0  0  0  0  0  0  0  0  0  0  0
   59.6551   26.6287   46.1165 C   0  0  0  0  0  0  0  0  0  0  0  0
   59.1953   25.3457   46.4147 C   0  0  0  0  0  0  0  0  0  0  0  0
   57.8222   25.0980   46.4195 C   0  0  0  0  0  0  0  0  0  0  0  0
   56.9278   26.1307   46.1316 C   0  0  0  0  0  0  0  0  0  0  0  0
   55.5590   25.8800   46.1328 O   0  0  0  0  0  0  0  0  0  0  0  0
   59.0070   34.1963   47.3565 C   0  0  0  0  0  0  0  0  0  0  0  0
   60.3937   33.9011   47.8560 C   0  0  0  0  0  0  0  0  0  0  0  0
   60.6617   33.8531   49.2348 C   0  0  0  0  0  0  0  0  0  0  0  0
   61.9469   33.5447   49.6923 C   0  0  0  0  0  0  0  0  0  0  0  0
   62.9709   33.2753   48.7781 C   0  0  0  0  0  0  0  0  0  0  0  0
   64.5816   32.8864   49.3540 Cl  0  0  0  0  0  0  0  0  0  0  0  0
   62.7087   33.3133   47.4045 C   0  0  0  0  0  0  0  0  0  0  0  0
   61.4244   33.6205   46.9440 C   0  0  0  0  0  0  0  0  0  0  0  0
  8  9  2  0
  9  7  1  0
  7  1  1  0
  1  2  1  0
  2  3  1  0
  3  4  1  0
  4 18  1  0
 18 19  1  0
 19 20  2  0
 20 21  1  0
 21 22  2  0
 22 23  1  0
 22 24  1  0
 24 25  2  0
  4  5  1  0
  5  6  2  0
  9 10  1  0
 10 11  2  0
 11 12  1  0
 12 13  1  0
 13 14  2  0
 14 15  1  0
 15 16  2  0
 16 17  1  0
  5  1  1  0
 16 11  1  0
 25 19  1  0
M  CHG 1  12  -1
M  CHG 1  17  -1
M  END
> <UniqueID>
22

> <SMILES>
O=C(CN1CCN(Cc2ccc(Cl)cc2)C1=O)N=c1[n-]cccc1[O-]

> <Energy>
56.39305703480461

> <Genealogy>
O=C(CN1CCN(Cc2ccc(Cl)cc2)C1=O)N=c1[n-]cccc1[O-] (protonated)
O=C(CN1CCN(Cc2ccc(Cl)cc2)C1=O)N=c1[n-]cccc1[O-] (3D coordinates assigned)
O=C(CN1CCN(Cc2ccc(Cl)cc2)C1=O)N=c1[n-]cccc1[O-] (nonaromatic ring conformer: 56.39305703480461 kcal/mol)

> <smiles>
O=C(CN1CCN(Cc2ccc(Cl)cc2)C1=O)N=c1[nH]cccc1O

> <score_type>
oracle

> <origin>
adg

> <m_score__min__energy>
-14.34

> <m_primary>
energy

> <minimizedAffinity>
-7.81282

> <minimizedRMSD>
0.76101

> <CNNscore>
0.7793290019

> <CNNaffinity>
6.6823611259

> <CNN_VS>
5.2077579498

> <CNNaffinity_variance>
0.0727615654

$$$$
25:0


 32 34  0  0  0  0  0  0  0  0999 V2000
   59.5524   28.8830   47.8359 C   0  0  0  0  0  0  0  0  0  0  0  0
   60.2297   29.1879   46.6978 N   0  0  0  0  0  0  0  0  0  0  0  0
   59.9301   28.5803   45.5225 C   0  0  0  0  0  0  0  0  0  0  0  0
   60.5804   28.8763   44.4845 O   0  0  0  0  0  0  0  0  0  0  0  0
   58.9010   27.6343   45.4641 C   0  0  0  0  0  0  0  0  0  0  0  0
   58.5966   27.0115   44.2586 O   0  0  0  0  0  0  0  0  0  0  0  0
   58.1950   27.3375   46.6469 C   0  0  0  0  0  0  0  0  0  0  0  0
   58.5432   27.9726   47.7976 N   0  0  0  0  0  0  0  0  0  0  0  0
   57.0773   26.3722   46.6850 C   0  0  0  0  0  0  0  0  0  0  0  0
   55.9526   26.6643   46.1941 O   0  0  0  0  0  0  0  0  0  0  0  0
   57.2765   25.0954   47.3040 N   0  0  0  0  0  0  0  0  0  0  0  0
   56.2915   24.0204   47.2826 C   0  0  0  0  0  0  0  0  0  0  0  0
   56.4574   23.1821   46.0456 C   0  0  0  0  0  0  0  0  0  0  0  0
   56.1609   23.7088   44.7787 C   0  0  0  0  0  0  0  0  0  0  0  0
   56.3332   22.9261   43.6320 C   0  0  0  0  0  0  0  0  0  0  0  0
   56.8037   21.6144   43.7434 C   0  0  0  0  0  0  0  0  0  0  0  0
   56.9689   20.8566   42.6311 F   0  0  0  0  0  0  0  0  0  0  0  0
   57.1062   21.0849   45.0017 C   0  0  0  0  0  0  0  0  0  0  0  0
   56.9362   21.8657   46.1492 C   0  0  0  0  0  0  0  0  0  0  0  0
   59.8560   29.6084   49.1085 C   0  0  0  0  0  0  0  0  0  0  0  0
   61.3897   32.7260   47.5322 C   0  0  0  0  0  0  0  0  0  0  0  0
   62.6148   32.7903   48.2067 C   0  0  0  0  0  0  0  0  0  0  0  0
   62.9407   31.8385   49.1746 C   0  0  0  0  0  0  0  0  0  0  0  0
   62.0438   30.8116   49.4790 C   0  0  0  0  0  0  0  0  0  0  0  0
   60.8014   30.7456   48.8306 C   0  0  0  0  0  0  0  0  0  0  0  0
   60.4789   31.7057   47.8581 C   0  0  0  0  0  0  0  0  0  0  0  0
   61.1165   33.6981   46.5132 N   0  0  0  0  0  0  0  0  0  0  0  0
   59.5959   34.4979   46.2625 S   0  0  0  0  0  0  0  0  0  0  0  0
   59.8616   35.9170   45.8511 O   0  0  0  0  0  0  0  0  0  0  0  0
   58.8090   34.5048   47.5419 O   0  0  0  0  0  0  0  0  0  0  0  0
   57.3238   33.1853   45.4950 C   0  0  0  0  0  0  0  0  0  0  0  0
   58.6597   33.6912   44.9706 C   0  0  0  0  0  0  0  0  0  0  0  0
 31 32  1  0
 32 28  1  0
 28 29  2  0
 28 30  2  0
 28 27  1  0
 27 21  1  0
 21 22  2  0
 22 23  1  0
 23 24  2  0
 24 25  1  0
 25 20  1  0
 20  1  1  0
  1  2  2  0
  2  3  1  0
  3  4  2  0
  3  5  1  0
  5  6  1  0
  5  7  2  0
  7  9  1  0
  9 10  2  0
  9 11  1  0
 11 12  1  0
 12 13  1  0
 13 14  2  0
 14 15  1  0
 15 16  2  0
 16 17  1  0
 16 18  1  0
 18 19  2  0
  7  8  1  0
 25 26  2  0
 26 21  1  0
  8  1  1  0
 19 13  1  0
M  CHG 1   6  -1
M  CHG 1   8  -1
M  CHG 1  11  -1
M  CHG 1  27  -1
M  END
> <UniqueID>
24

> <SMILES>
CCS(=O)(=O)[N-]c1cccc(Cc2nc(=O)c([O-])c(C(=O)[N-]Cc3ccc(F)cc3)[n-]2)c1

> <Energy>
43.532696420233016

> <Genealogy>
CCS(=O)(=O)[N-]c1cccc(Cc2nc(=O)c([O-])c(C(=O)[N-]Cc3ccc(F)cc3)[n-]2)c1 (protonated)
CCS(=O)(=O)[N-]c1cccc(Cc2nc(=O)c([O-])c(C(=O)[N-]Cc3ccc(F)cc3)[n-]2)c1 (3D coordinates assigned)
CCS(=O)(=O)[N-]c1cccc(Cc2nc(=O)c([O-])c(C(=O)[N-]Cc3ccc(F)cc3)[n-]2)c1 (optimized conformer: 43.532696420233016 kcal/mol)

> <smiles>
CCS(=O)(=O)Nc1cccc(Cc2nc(=O)c(O)c(C(=O)NCc3ccc(F)cc3)[nH]2)c1

> <score_type>
oracle

> <origin>
adg

> <m_score__min__energy>
-16.48

> <m_primary>
energy

> <minimizedAffinity>
-7.36004

> <minimizedRMSD>
1.68353

> <CNNscore>
0.3152261674

> <CNNaffinity>
6.3962321281

> <CNN_VS>
2.0162596703

> <CNNaffinity_variance>
0.0577724129

$$$$
30:0


 26 28  0  0  0  0  0  0  0  0999 V2000
   58.4969   30.6635   45.9977 C   0  0  0  0  0  0  0  0  0  0  0  0
   58.0137   31.3327   44.8687 C   0  0  0  0  0  0  0  0  0  0  0  0
   58.2351   32.7013   44.7107 C   0  0  0  0  0  0  0  0  0  0  0  0
   58.9190   33.4197   45.6942 C   0  0  0  0  0  0  0  0  0  0  0  0
   59.1154   34.7528   45.5243 F   0  0  0  0  0  0  0  0  0  0  0  0
   59.3986   32.7663   46.8431 C   0  0  0  0  0  0  0  0  0  0  0  0
   59.1793   31.3855   46.9922 C   0  0  0  0  0  0  0  0  0  0  0  0
   60.0526   33.5422   47.9173 C   0  0  0  0  0  0  0  0  0  0  0  0
   59.3849   34.4249   48.5232 O   0  0  0  0  0  0  0  0  0  0  0  0
   61.4299   33.3301   48.2738 N   0  0  0  0  0  0  0  0  0  0  0  0
   62.0503   33.9643   49.4237 C   0  0  0  0  0  0  0  0  0  0  0  0
   63.5081   33.5316   49.3943 C   0  0  0  0  0  0  0  0  0  0  0  0
   63.7631   33.0419   47.9713 C   0  0  0  0  0  0  0  0  0  0  0  0
   62.3976   32.6670   47.4159 C   0  0  0  0  0  0  0  0  0  0  0  0
   58.1898   29.2732   46.1607 N   0  0  0  0  0  0  0  0  0  0  0  0
   56.3057   28.7671   44.9091 O   0  0  0  0  0  0  0  0  0  0  0  0
   57.4766   28.4410   45.2350 C   0  0  0  0  0  0  0  0  0  0  0  0
   58.0960   27.2237   44.5987 C   0  0  0  0  0  0  0  0  0  0  0  0
   57.7104   25.9520   45.2981 C   0  0  0  0  0  0  0  0  0  0  0  0
   58.4719   24.8419   45.3520 N   0  0  0  0  0  0  0  0  0  0  0  0
   57.6919   23.9608   46.0154 C   0  0  0  0  0  0  0  0  0  0  0  0
   58.0668   22.7888   46.2806 O   0  0  0  0  0  0  0  0  0  0  0  0
   56.4766   24.4325   46.3681 N   0  0  0  0  0  0  0  0  0  0  0  0
   56.5014   25.6905   45.8963 C   0  0  0  0  0  0  0  0  0  0  0  0
   55.4361   26.5783   45.9937 O   0  0  0  0  0  0  0  0  0  0  0  0
   54.6446   26.3153   46.4206 H   0  0  0  0  0  0  0  0  0  0  0  0
 16 17  2  0
 17 18  1  0
 18 19  1  0
 19 20  1  0
 20 21  1  0
 21 22  2  0
 21 23  1  0
 23 24  1  0
 24 25  1  0
 17 15  1  0
 15  1  1  0
  1  2  2  0
  2  3  1  0
  3  4  2  0
  4  5  1  0
  4  6  1  0
  6  8  1  0
  8  9  2  0
  8 10  1  0
 10 11  1  0
 11 12  1  0
 12 13  1  0
 13 14  1  0
  6  7  2  0
 24 19  2  0
  7  1  1  0
 14 10  1  0
 25 26  1  0
M  CHG 1  15  -1
M  CHG 1  20  -1
M  CHG 1  23  -1
M  END
> <UniqueID>
29

> <SMILES>
O=C(Cc1[n-]c(=O)[n-]c1O)[N-]c1ccc(F)c(C(=O)N2CCCC2)c1

> <Energy>
75.45779269455203

> <Genealogy>
O=C(Cc1[n-]c(=O)[n-]c1O)[N-]c1ccc(F)c(C(=O)N2CCCC2)c1 (protonated)
O=C(Cc1[n-]c(=O)[n-]c1O)[N-]c1ccc(F)c(C(=O)N2CCCC2)c1 (3D coordinates assigned)
O=C(Cc1[n-]c(=O)[n-]c1O)[N-]c1ccc(F)c(C(=O)N2CCCC2)c1 (nonaromatic ring conformer: 75.45779269455203 kcal/mol)

> <smiles>
O=C(Cc1[nH]c(=O)[nH]c1O)Nc1ccc(F)c(C(=O)N2CCCC2)c1

> <score_type>
oracle

> <origin>
adg

> <m_score__min__energy>
-14.119999999999999

> <m_primary>
energy

> <minimizedAffinity>
-8.25345

> <minimizedRMSD>
0.97620

> <CNNscore>
0.7965387702

> <CNNaffinity>
7.0006289482

> <CNN_VS>
5.5762724876

> <CNNaffinity_variance>
0.3273482919

$$$$
40:0


 26 28  0  0  0  0  0  0  0  0999 V2000
   57.1219   31.4470   52.1980 N   0  0  0  0  0  0  0  0  0  0  0  0
   56.1112   30.7862   52.6776 C   0  0  0  0  0  0  0  0  0  0  0  0
   54.9117   30.6729   52.0646 N   0  0  0  0  0  0  0  0  0  0  0  0
   54.0469   29.9206   52.7982 C   0  0  0  0  0  0  0  0  0  0  0  0
   54.5544   29.4465   54.0074 C   0  0  0  0  0  0  0  0  0  0  0  0
   56.1467   29.9762   54.1466 S   0  0  0  0  0  0  0  0  0  0  0  0
   58.0650   29.7447   50.8761 O   0  0  0  0  0  0  0  0  0  0  0  0
   58.1067   30.9378   51.2843 C   0  0  0  0  0  0  0  0  0  0  0  0
   59.2267   31.8285   50.8407 C   0  0  0  0  0  0  0  0  0  0  0  0
   59.0004   32.3419   49.4187 C   0  0  0  0  0  0  0  0  0  0  0  0
   60.2755   31.6990   48.2802 S   0  0  0  0  0  0  0  0  0  0  0  0
   59.4884   32.3833   46.8193 C   0  0  0  0  0  0  0  0  0  0  0  0
   59.7681   33.6991   46.4302 C   0  0  0  0  0  0  0  0  0  0  0  0
   59.1590   34.2385   45.2925 C   0  0  0  0  0  0  0  0  0  0  0  0
   58.2678   33.4653   44.5430 C   0  0  0  0  0  0  0  0  0  0  0  0
   57.9828   32.1534   44.9304 C   0  0  0  0  0  0  0  0  0  0  0  0
   58.5900   31.6097   46.0683 C   0  0  0  0  0  0  0  0  0  0  0  0
   58.3073   30.3340   46.4340 F   0  0  0  0  0  0  0  0  0  0  0  0
   52.6373   29.6892   52.3552 C   0  0  0  0  0  0  0  0  0  0  0  0
   51.7663   30.8135   52.8184 C   0  0  0  0  0  0  0  0  0  0  0  0
   51.2193   30.8908   54.0445 N   0  0  0  0  0  0  0  0  0  0  0  0
   50.4751   32.0155   53.9831 C   0  0  0  0  0  0  0  0  0  0  0  0
   49.8010   32.4370   54.9590 O   0  0  0  0  0  0  0  0  0  0  0  0
   50.5039   32.6508   52.7914 N   0  0  0  0  0  0  0  0  0  0  0  0
   51.3202   31.8723   52.0644 C   0  0  0  0  0  0  0  0  0  0  0  0
   51.6474   32.1215   50.7371 O   0  0  0  0  0  0  0  0  0  0  0  0
  7  8  2  0
  8  9  1  0
  9 10  1  0
 10 11  1  0
 11 12  1  0
 12 13  2  0
 13 14  1  0
 14 15  2  0
 15 16  1  0
 16 17  2  0
 17 18  1  0
  8  1  1  0
  1  2  2  0
  2  3  1  0
  3  4  1  0
  4 19  1  0
 19 20  1  0
 20 21  1  0
 21 22  1  0
 22 23  2  0
 22 24  1  0
 24 25  1  0
 25 26  1  0
  4  5  2  0
  5  6  1  0
 17 12  1  0
  6  2  1  0
 25 20  2  0
M  CHG 1   3  -1
M  CHG 1  21  -1
M  CHG 1  24  -1
M  CHG 1  26  -1
M  END
> <UniqueID>
39

> <SMILES>
O=C(CCSc1ccccc1F)N=c1[n-]c(Cc2[n-]c(=O)[n-]c2[O-])cs1

> <Energy>
91.11222959373463

> <Genealogy>
O=C(CCSc1ccccc1F)N=c1[n-]c(Cc2[n-]c(=O)[n-]c2[O-])cs1 (protonated)
O=C(CCSc1ccccc1F)N=c1[n-]c(Cc2[n-]c(=O)[n-]c2[O-])cs1 (3D coordinates assigned)
O=C(CCSc1ccccc1F)N=c1[n-]c(Cc2[n-]c(=O)[n-]c2[O-])cs1 (optimized conformer: 91.11222959373463 kcal/mol)

> <smiles>
O=C(CCSc1ccccc1F)N=c1[nH]c(Cc2[nH]c(=O)[nH]c2O)cs1

> <score_type>
oracle

> <origin>
adg

> <m_score__min__energy>
-18.690000000000001

> <m_primary>
energy

> <minimizedAffinity>
-7.04528

> <minimizedRMSD>
0.98806

> <CNNscore>
0.5068699718

> <CNNaffinity>
5.7061920166

> <CNN_VS>
2.8922972679

> <CNNaffinity_variance>
0.1073467135

$$$$
41:0


 35 38  0  0  0  0  0  0  0  0999 V2000
   58.4633   32.3001   45.3936 C   0  0  0  0  0  0  0  0  0  0  0  0
   58.3278   33.6715   45.1204 C   0  0  0  0  0  0  0  0  0  0  0  0
   59.2194   34.5926   45.6765 C   0  0  0  0  0  0  0  0  0  0  0  0
   60.2409   34.1592   46.5246 C   0  0  0  0  0  0  0  0  0  0  0  0
   60.3806   32.7948   46.8193 C   0  0  0  0  0  0  0  0  0  0  0  0
   59.5225   31.8668   46.2107 C   0  0  0  0  0  0  0  0  0  0  0  0
   61.4174   32.3428   47.7699 C   0  0  0  0  0  0  0  0  0  0  0  0
   62.6203   32.6472   47.5450 O   0  0  0  0  0  0  0  0  0  0  0  0
   61.0724   31.6073   48.9648 N   0  0  0  0  0  0  0  0  0  0  0  0
   59.7766   31.8452   49.6258 C   0  0  0  0  0  0  0  0  0  0  0  0
   59.7493   31.2894   51.0572 C   0  0  0  0  0  0  0  0  0  0  0  0
   61.0124   31.5858   51.7483 N   0  0  0  0  0  0  0  0  0  0  0  0
   61.0116   32.0087   53.1242 C   0  0  0  0  0  0  0  0  0  0  0  0
   62.1022   32.2779   53.6998 O   0  0  0  0  0  0  0  0  0  0  0  0
   62.2956   31.3400   51.0693 C   0  0  0  0  0  0  0  0  0  0  0  0
   62.0845   30.7974   49.6541 C   0  0  0  0  0  0  0  0  0  0  0  0
   59.8040   32.1096   53.8287 O   0  0  0  0  0  0  0  0  0  0  0  0
   59.2242   33.3502   54.2265 C   0  0  0  0  0  0  0  0  0  0  0  0
   58.8373   34.1800   53.0082 C   0  0  0  0  0  0  0  0  0  0  0  0
   57.4927   31.3057   44.8053 C   0  0  0  0  0  0  0  0  0  0  0  0
   58.8914   27.5340   47.4691 C   0  0  0  0  0  0  0  0  0  0  0  0
   58.3881   28.1941   46.4200 C   0  0  0  0  0  0  0  0  0  0  0  0
   58.2072   29.5305   46.4376 N   0  0  0  0  0  0  0  0  0  0  0  0
   57.8435   29.8964   45.1940 C   0  0  0  0  0  0  0  0  0  0  0  0
   57.7951   28.7968   44.3596 C   0  0  0  0  0  0  0  0  0  0  0  0
   58.0889   27.6923   45.1438 C   0  0  0  0  0  0  0  0  0  0  0  0
   58.0273   26.4285   44.6828 C   0  0  0  0  0  0  0  0  0  0  0  0
   58.3199   30.1261   47.2134 H   0  0  0  0  0  0  0  0  0  0  0  0
   57.5804   25.2566   45.4494 C   0  0  0  0  0  0  0  0  0  0  0  0
   58.2660   24.1019   45.5045 N   0  0  0  0  0  0  0  0  0  0  0  0
   57.4370   23.2778   46.1826 C   0  0  0  0  0  0  0  0  0  0  0  0
   57.7398   22.0869   46.4557 O   0  0  0  0  0  0  0  0  0  0  0  0
   56.2548   23.8259   46.5341 N   0  0  0  0  0  0  0  0  0  0  0  0
   56.3544   25.0740   46.0505 C   0  0  0  0  0  0  0  0  0  0  0  0
   55.3362   26.0151   46.1319 O   0  0  0  0  0  0  0  0  0  0  0  0
 21 22  2  0
 22 23  1  0
 23 24  1  0
 24 20  1  0
 20  1  1  0
  1  2  2  0
  2  3  1  0
  3  4  2  0
  4  5  1  0
  5  7  1  0
  7  8  2  0
  7  9  1  0
  9 10  1  0
 10 11  1  0
 11 12  1  0
 12 13  1  0
 13 14  2  0
 13 17  1  0
 17 18  1  0
 18 19  1  0
 12 15  1  0
 15 16  1  0
  5  6  2  0
 24 25  2  0
 25 26  1  0
 26 27  2  0
 27 29  1  0
 29 30  1  0
 30 31  1  0
 31 32  2  0
 31 33  1  0
 33 34  1  0
 34 35  1  0
 26 22  1  0
 34 29  2  0
  6  1  1  0
 16  9  1  0
 23 28  1  0
M  CHG 1  30  -1
M  CHG 1  33  -1
M  CHG 1  35  -1
M  END
> <UniqueID>
40

> <SMILES>
C=c1[nH]c(Cc2cccc(C(=O)N3CCN(C(=O)OCC)CC3)c2)cc1=Cc1[n-]c(=O)[n-]c1[O-]

> <Energy>
127.3864480940765

> <Genealogy>
C=c1[nH]c(Cc2cccc(C(=O)N3CCN(C(=O)OCC)CC3)c2)cc1=Cc1[n-]c(=O)[n-]c1[O-] (protonated)
C=c1[nH]c(Cc2cccc(C(=O)N3CCN(C(=O)OCC)CC3)c2)cc1=Cc1[n-]c(=O)[n-]c1[O-] (3D coordinates assigned)
C=c1[nH]c(Cc2cccc(C(=O)N3CCN(C(=O)OCC)CC3)c2)cc1=Cc1[n-]c(=O)[n-]c1[O-] (nonaromatic ring conformer: 127.3864480940765 kcal/mol)

> <smiles>
C=c1[nH]c(Cc2cccc(C(=O)N3CCN(C(=O)OCC)CC3)c2)cc1=Cc1[nH]c(=O)[nH]c1O

> <score_type>
oracle

> <origin>
adg

> <m_score__min__energy>
-18.390000000000001

> <m_primary>
energy

> <minimizedAffinity>
-9.15698

> <minimizedRMSD>
0.96889

> <CNNscore>
0.1932027042

> <CNNaffinity>
6.6633505821

> <CNN_VS>
1.2873773575

> <CNNaffinity_variance>
0.2821867764

$$$$
62:0


 31 34  0  0  0  0  0  0  0  0999 V2000
   58.0797   32.1469   44.4313 C   0  0  0  0  0  0  0  0  0  0  0  0
   58.0914   32.5332   43.2315 O   0  0  0  0  0  0  0  0  0  0  0  0
   58.3363   33.0962   45.4801 N   0  0  0  0  0  0  0  0  0  0  0  0
   57.4771   33.1636   46.6635 C   0  0  0  0  0  0  0  0  0  0  0  0
   58.3413   33.3156   47.9188 C   0  0  0  0  0  0  0  0  0  0  0  0
   59.3904   34.3573   47.7876 N   0  0  0  0  0  0  0  0  0  0  0  0
   59.4732   35.0631   46.4897 C   0  0  0  0  0  0  0  0  0  0  0  0
   59.3753   34.1102   45.2848 C   0  0  0  0  0  0  0  0  0  0  0  0
   55.9704   30.1147   43.3398 C   0  0  0  0  0  0  0  0  0  0  0  0
   56.9543   29.8252   44.1946 C   0  0  0  0  0  0  0  0  0  0  0  0
   57.8798   30.7139   44.7374 C   0  0  0  0  0  0  0  0  0  0  0  0
   58.6687   29.9711   45.5996 C   0  0  0  0  0  0  0  0  0  0  0  0
   58.2027   28.6703   45.5369 C   0  0  0  0  0  0  0  0  0  0  0  0
   58.7095   27.6545   46.2517 C   0  0  0  0  0  0  0  0  0  0  0  0
   57.1556   28.5862   44.6902 N   0  0  0  0  0  0  0  0  0  0  0  0
   56.6380   27.7768   44.4753 H   0  0  0  0  0  0  0  0  0  0  0  0
   58.2452   26.2610   46.1506 C   0  0  0  0  0  0  0  0  0  0  0  0
   59.0726   25.2204   45.9478 N   0  0  0  0  0  0  0  0  0  0  0  0
   58.2321   24.1699   45.8305 C   0  0  0  0  0  0  0  0  0  0  0  0
   58.6407   22.9938   45.6429 O   0  0  0  0  0  0  0  0  0  0  0  0
   56.9213   24.4796   45.9190 N   0  0  0  0  0  0  0  0  0  0  0  0
   56.9440   25.8083   46.1071 C   0  0  0  0  0  0  0  0  0  0  0  0
   55.8003   26.5921   46.1905 O   0  0  0  0  0  0  0  0  0  0  0  0
   60.6856   34.0221   48.4223 C   0  0  0  0  0  0  0  0  0  0  0  0
   60.7640   32.5965   48.9254 C   0  0  0  0  0  0  0  0  0  0  0  0
   61.3306   31.5913   48.1207 C   0  0  0  0  0  0  0  0  0  0  0  0
   61.3747   30.2689   48.5672 C   0  0  0  0  0  0  0  0  0  0  0  0
   60.8664   29.9355   49.8253 C   0  0  0  0  0  0  0  0  0  0  0  0
   60.3290   30.9304   50.6472 C   0  0  0  0  0  0  0  0  0  0  0  0
   59.7024   30.5163   52.2330 Cl  0  0  0  0  0  0  0  0  0  0  0  0
   60.2919   32.2580   50.2058 C   0  0  0  0  0  0  0  0  0  0  0  0
  9 10  2  0
 10 11  1  0
 11  1  1  0
  1  2  2  0
  1  3  1  0
  3  4  1  0
  4  5  1  0
  5  6  1  0
  6 24  1  0
 24 25  1  0
 25 26  2  0
 26 27  1  0
 27 28  2  0
 28 29  1  0
 29 30  1  0
 29 31  2  0
  6  7  1  0
  7  8  1  0
 11 12  2  0
 12 13  1  0
 13 14  2  0
 14 17  1  0
 17 18  1  0
 18 19  1  0
 19 20  2  0
 19 21  1  0
 21 22  1  0
 22 23  1  0
 13 15  1  0
 15 10  1  0
  8  3  1  0
 22 17  2  0
 31 25  1  0
 15 16  1  0
M  CHG 1  18  -1
M  CHG 1  21  -1
M  CHG 1  23  -1
M  END
> <UniqueID>
60

> <SMILES>
C=c1[nH]/c(=C\c2[n-]c(=O)[n-]c2[O-])cc1C(=O)N1CCN(Cc2cccc(Cl)c2)CC1

> <Energy>
127.35803728829207

> <Genealogy>
C=c1[nH]c(=Cc2[n-]c(=O)[n-]c2[O-])cc1C(=O)N1CCN(Cc2cccc(Cl)c2)CC1 (protonated)
C=c1[nH]/c(=C\c2[n-]c(=O)[n-]c2[O-])cc1C(=O)N1CCN(Cc2cccc(Cl)c2)CC1 (cis-trans isomerization)
C=c1[nH]/c(=C\c2[n-]c(=O)[n-]c2[O-])cc1C(=O)N1CCN(Cc2cccc(Cl)c2)CC1 (3D coordinates assigned)
C=c1[nH]/c(=C\c2[n-]c(=O)[n-]c2[O-])cc1C(=O)N1CCN(Cc2cccc(Cl)c2)CC1 (nonaromatic ring conformer: 127.35803728829207 kcal/mol)

> <smiles>
C=c1[nH]c(=Cc2[nH]c(=O)[nH]c2O)cc1C(=O)N1CCN(Cc2cccc(Cl)c2)CC1

> <score_type>
oracle

> <origin>
adg

> <m_score__min__energy>
-18.420000000000002

> <m_primary>
energy

> <minimizedAffinity>
-8.50541

> <minimizedRMSD>
1.73227

> <CNNscore>
0.1085184887

> <CNNaffinity>
6.1360702515

> <CNN_VS>
0.6658770442

> <CNNaffinity_variance>
0.4319794178

$$$$
73:0


 27 29  0  0  0  0  0  0  0  0999 V2000
   57.6678   32.4165   43.7651 C   0  0  0  0  0  0  0  0  0  0  0  0
   58.2705   31.6494   44.6745 C   0  0  0  0  0  0  0  0  0  0  0  0
   58.7213   30.4049   44.4142 N   0  0  0  0  0  0  0  0  0  0  0  0
   59.2634   29.9332   45.5586 C   0  0  0  0  0  0  0  0  0  0  0  0
   59.7794   28.7007   45.7074 C   0  0  0  0  0  0  0  0  0  0  0  0
   59.1415   30.8847   46.5691 C   0  0  0  0  0  0  0  0  0  0  0  0
   58.5223   31.9894   45.9969 C   0  0  0  0  0  0  0  0  0  0  0  0
   58.2101   33.2995   46.6613 C   0  0  0  0  0  0  0  0  0  0  0  0
   58.6658   29.9301   43.5535 H   0  0  0  0  0  0  0  0  0  0  0  0
   58.9558   27.4854   45.8942 C   0  0  0  0  0  0  0  0  0  0  0  0
   57.5665   27.5449   45.7096 C   0  0  0  0  0  0  0  0  0  0  0  0
   56.9541   28.7298   45.3132 O   0  0  0  0  0  0  0  0  0  0  0  0
   56.8075   26.4371   45.9077 N   0  0  0  0  0  0  0  0  0  0  0  0
   57.3670   25.2635   46.2996 C   0  0  0  0  0  0  0  0  0  0  0  0
   56.6437   24.2484   46.4715 O   0  0  0  0  0  0  0  0  0  0  0  0
   58.7058   25.1870   46.5121 N   0  0  0  0  0  0  0  0  0  0  0  0
   59.5094   26.2671   46.3288 C   0  0  0  0  0  0  0  0  0  0  0  0
   60.7411   26.1664   46.5696 O   0  0  0  0  0  0  0  0  0  0  0  0
   59.6152   30.7667   47.9626 C   0  0  0  0  0  0  0  0  0  0  0  0
   58.7925   30.4318   48.8572 O   0  0  0  0  0  0  0  0  0  0  0  0
   60.9854   31.0428   48.3091 N   0  0  0  0  0  0  0  0  0  0  0  0
   61.6018   30.4005   49.4784 C   0  0  0  0  0  0  0  0  0  0  0  0
   62.2038   31.4743   50.3865 C   0  0  0  0  0  0  0  0  0  0  0  0
   63.2219   32.3824   49.6426 C   0  0  0  0  0  0  0  0  0  0  0  0
   63.0517   33.8492   50.0599 C   0  0  0  0  0  0  0  0  0  0  0  0
   63.1627   32.2341   48.1019 C   0  0  0  0  0  0  0  0  0  0  0  0
   61.7258   32.0873   47.5806 C   0  0  0  0  0  0  0  0  0  0  0  0
  1  2  2  0
  2  3  1  0
  3  4  1  0
  4  5  2  0
  5 10  1  0
 10 11  2  0
 11 12  1  0
 11 13  1  0
 13 14  1  0
 14 15  2  0
 14 16  1  0
 16 17  1  0
 17 18  2  0
  4  6  1  0
  6 19  1  0
 19 20  2  0
 19 21  1  0
 21 22  1  0
 22 23  1  0
 23 24  1  0
 24 25  1  0
 24 26  1  0
 26 27  1  0
  6  7  2  0
  7  8  1  0
  7  2  1  0
 17 10  1  0
 27 21  1  0
  3  9  1  0
M  CHG 1  12  -1
M  CHG 1  13  -1
M  CHG 1  16  -1
M  END
> <UniqueID>
71

> <SMILES>
C=c1[nH]c(=Cc2c([O-])[n-]c(=O)[n-]c2=O)c(C(=O)N2CCC(C)CC2)c1C

> <Energy>
88.38009980095516

> <Genealogy>
C=c1[nH]c(=Cc2c([O-])[n-]c(=O)[n-]c2=O)c(C(=O)N2CCC(C)CC2)c1C (protonated)
C=c1[nH]c(=Cc2c([O-])[n-]c(=O)[n-]c2=O)c(C(=O)N2CCC(C)CC2)c1C (3D coordinates assigned)
C=c1[nH]c(=Cc2c([O-])[n-]c(=O)[n-]c2=O)c(C(=O)N2CCC(C)CC2)c1C (nonaromatic ring conformer: 88.38009980095516 kcal/mol)

> <smiles>
C=c1[nH]c(=Cc2c(O)[nH]c(=O)[nH]c2=O)c(C(=O)N2CCC(C)CC2)c1C

> <score_type>
oracle

> <origin>
adg

> <m_score__min__energy>
-15.4

> <m_primary>
energy

> <minimizedAffinity>
-8.36222

> <minimizedRMSD>
1.45007

> <CNNscore>
0.6673871279

> <CNNaffinity>
7.0435051918

> <CNN_VS>
4.7007446289

> <CNNaffinity_variance>
0.2566953897

$$$$
97:0


 25 27  0  0  0  0  0  0  0  0999 V2000
   58.1645   29.8586   51.9311 N   0  0  0  0  0  0  0  0  0  0  0  0
   58.6868   30.5792   50.9845 C   0  0  0  0  0  0  0  0  0  0  0  0
   59.3141   30.0719   49.8972 N   0  0  0  0  0  0  0  0  0  0  0  0
   59.7632   31.0580   49.0776 C   0  0  0  0  0  0  0  0  0  0  0  0
   59.4818   32.3492   49.5109 C   0  0  0  0  0  0  0  0  0  0  0  0
   58.6660   32.2594   50.9813 S   0  0  0  0  0  0  0  0  0  0  0  0
   56.9199   30.1186   52.5939 C   0  0  0  0  0  0  0  0  0  0  0  0
   56.9337   30.4739   53.8030 O   0  0  0  0  0  0  0  0  0  0  0  0
   55.7049   29.9842   51.9213 O   0  0  0  0  0  0  0  0  0  0  0  0
   53.5315   30.3199   52.6554 C   0  0  0  0  0  0  0  0  0  0  0  0
   54.5733   29.5571   52.5784 N   0  0  0  0  0  0  0  0  0  0  0  0
   52.6566   30.4954   51.4915 C   0  0  0  0  0  0  0  0  0  0  0  0
   52.6558   29.6977   50.4088 N   0  0  0  0  0  0  0  0  0  0  0  0
   51.7028   30.2446   49.6221 C   0  0  0  0  0  0  0  0  0  0  0  0
   51.3989   29.7710   48.4965 O   0  0  0  0  0  0  0  0  0  0  0  0
   51.0992   31.3376   50.1379 N   0  0  0  0  0  0  0  0  0  0  0  0
   51.7159   31.4824   51.3210 C   0  0  0  0  0  0  0  0  0  0  0  0
   51.4250   32.4947   52.2274 O   0  0  0  0  0  0  0  0  0  0  0  0
   59.9239   33.6130   48.8452 C   0  0  0  0  0  0  0  0  0  0  0  0
   59.3192   33.7102   47.4702 C   0  0  0  0  0  0  0  0  0  0  0  0
   58.0326   33.2022   47.2243 C   0  0  0  0  0  0  0  0  0  0  0  0
   57.4574   33.3244   45.9560 C   0  0  0  0  0  0  0  0  0  0  0  0
   58.1583   33.9620   44.9286 C   0  0  0  0  0  0  0  0  0  0  0  0
   59.4344   34.4804   45.1693 C   0  0  0  0  0  0  0  0  0  0  0  0
   60.0115   34.3601   46.4364 C   0  0  0  0  0  0  0  0  0  0  0  0
 10 11  2  0
 11  9  1  0
  9  7  1  0
  7  8  2  0
  7  1  1  0
  1  2  2  0
  2  3  1  0
  3  4  1  0
  4  5  2  0
  5 19  1  0
 19 20  1  0
 20 21  2  0
 21 22  1  0
 22 23  2  0
 23 24  1  0
 24 25  2  0
  5  6  1  0
 10 12  1  0
 12 13  1  0
 13 14  1  0
 14 15  2  0
 14 16  1  0
 16 17  1  0
 17 18  1  0
  6  2  1  0
 17 12  2  0
 25 20  1  0
M  CHG 1   3  -1
M  CHG 1  13  -1
M  CHG 1  16  -1
M  CHG 1  18  -1
M  END
> <UniqueID>
95

> <SMILES>
O=C(N=c1[n-]cc(Cc2ccccc2)s1)O/N=C/c1[n-]c(=O)[n-]c1[O-]

> <Energy>
91.38467254465593

> <Genealogy>
O=C(N=c1[n-]cc(Cc2ccccc2)s1)ON=Cc1[n-]c(=O)[n-]c1[O-] (protonated)
O=C(N=c1[n-]cc(Cc2ccccc2)s1)O/N=C/c1[n-]c(=O)[n-]c1[O-] (cis-trans isomerization)
O=C(N=c1[n-]cc(Cc2ccccc2)s1)O/N=C/c1[n-]c(=O)[n-]c1[O-] (3D coordinates assigned)
O=C(N=c1[n-]cc(Cc2ccccc2)s1)O/N=C/c1[n-]c(=O)[n-]c1[O-] (optimized conformer: 91.38467254465593 kcal/mol)

> <smiles>
O=C(N=c1[nH]cc(Cc2ccccc2)s1)ON=Cc1[nH]c(=O)[nH]c1O

> <score_type>
oracle

> <origin>
adg

> <m_score__min__energy>
-18.84

> <m_primary>
energy

> <minimizedAffinity>
-6.48632

> <minimizedRMSD>
0.69899

> <CNNscore>
0.5464650393

> <CNNaffinity>
5.6692714691

> <CNN_VS>
3.0980587006

> <CNNaffinity_variance>
0.0157454628

$$$$
5:0


 30 32  0  0  0  0  0  0  0  0999 V2000
   55.5794   28.3310   54.0864 C   0  0  0  0  0  0  0  0  0  0  0  0
   55.8156   29.4898   53.4515 C   0  0  0  0  0  0  0  0  0  0  0  0
   54.8793   30.2762   52.7560 C   0  0  0  0  0  0  0  0  0  0  0  0
   53.5367   30.1930   52.6726 C   0  0  0  0  0  0  0  0  0  0  0  0
   55.6016   31.2737   52.1269 C   0  0  0  0  0  0  0  0  0  0  0  0
   56.9181   31.1070   52.4954 C   0  0  0  0  0  0  0  0  0  0  0  0
   57.0556   30.0316   53.3042 N   0  0  0  0  0  0  0  0  0  0  0  0
   58.2865   29.6052   53.9167 C   0  0  0  0  0  0  0  0  0  0  0  0
   58.9691   28.6803   53.3991 O   0  0  0  0  0  0  0  0  0  0  0  0
   58.0202   31.9466   51.9935 C   0  0  0  0  0  0  0  0  0  0  0  0
   58.0730   33.1513   52.3630 O   0  0  0  0  0  0  0  0  0  0  0  0
   58.9886   31.4319   51.0532 N   0  0  0  0  0  0  0  0  0  0  0  0
   58.6533   30.2455   50.2535 C   0  0  0  0  0  0  0  0  0  0  0  0
   59.7636   29.9150   49.2484 C   0  0  0  0  0  0  0  0  0  0  0  0
   61.1020   30.0552   49.8531 N   0  0  0  0  0  0  0  0  0  0  0  0
   61.3409   29.0537   50.9080 C   0  0  0  0  0  0  0  0  0  0  0  0
   61.3807   31.4323   50.3268 C   0  0  0  0  0  0  0  0  0  0  0  0
   60.1228   32.2713   50.6450 C   0  0  0  0  0  0  0  0  0  0  0  0
   52.7321   30.4455   51.4654 C   0  0  0  0  0  0  0  0  0  0  0  0
   52.6935   29.6417   50.3879 N   0  0  0  0  0  0  0  0  0  0  0  0
   51.7360   30.2014   49.6165 C   0  0  0  0  0  0  0  0  0  0  0  0
   51.4131   29.7353   48.4921 O   0  0  0  0  0  0  0  0  0  0  0  0
   51.1418   31.2895   50.1500 N   0  0  0  0  0  0  0  0  0  0  0  0
   51.7747   31.4201   51.3272 C   0  0  0  0  0  0  0  0  0  0  0  0
   51.4765   32.4062   52.2593 O   0  0  0  0  0  0  0  0  0  0  0  0
   58.7389   30.2380   55.1173 N   0  0  0  0  0  0  0  0  0  0  0  0
   59.6568   31.3710   55.1163 C   0  0  0  0  0  0  0  0  0  0  0  0
   58.9795   32.5991   55.7326 C   0  0  0  0  0  0  0  0  0  0  0  0
   59.6850   33.9177   55.3803 C   0  0  0  0  0  0  0  0  0  0  0  0
   60.8807   33.7102   54.4509 C   0  0  0  0  0  0  0  0  0  0  0  0
  1  2  2  0
  2  3  1  0
  3  4  2  0
  4 19  1  0
 19 20  1  0
 20 21  1  0
 21 22  2  0
 21 23  1  0
 23 24  1  0
 24 25  1  0
  3  5  1  0
  5  6  2  0
  6 10  1  0
 10 11  2  0
 10 12  1  0
 12 13  1  0
 13 14  1  0
 14 15  1  0
 15 16  1  0
 15 17  1  0
 17 18  1  0
  6  7  1  0
  7  8  1  0
  8  9  2  0
  8 26  1  0
 26 27  1  0
 27 28  1  0
 28 29  1  0
 29 30  1  0
  7  2  1  0
 24 19  2  0
 18 12  1  0
M  CHG 1  20  -1
M  CHG 1  23  -1
M  CHG 1  25  -1
M  CHG 1  26  -1
M  END
> <UniqueID>
6

> <SMILES>
C=c1c(=Cc2[n-]c(=O)[n-]c2[O-])cc(C(=O)N2CCN(C)CC2)n1C(=O)[N-]CCCC

> <Energy>
131.59867333613462

> <Genealogy>
C=c1c(=Cc2[n-]c(=O)[n-]c2[O-])cc(C(=O)N2CCN(C)CC2)n1C(=O)[N-]CCCC (protonated)
C=c1c(=Cc2[n-]c(=O)[n-]c2[O-])cc(C(=O)N2CCN(C)CC2)n1C(=O)[N-]CCCC (3D coordinates assigned)
C=c1c(=Cc2[n-]c(=O)[n-]c2[O-])cc(C(=O)N2CCN(C)CC2)n1C(=O)[N-]CCCC (nonaromatic ring conformer: 131.59867333613462 kcal/mol)

> <smiles>
C=c1c(=Cc2[nH]c(=O)[nH]c2O)cc(C(=O)N2CCN(C)CC2)n1C(=O)NCCCC

> <score_type>
oracle

> <origin>
adg

> <m_score__min__energy>
-16.350000000000001

> <m_primary>
energy

> <minimizedAffinity>
-4.66468

> <minimizedRMSD>
1.11844

> <CNNscore>
0.0707382262

> <CNNaffinity>
4.5308241844

> <CNN_VS>
0.3205024600

> <CNNaffinity_variance>
0.6455695033

$$$$
7:0


 30 33  0  0  0  0  0  0  0  0999 V2000
   56.8333   29.8927   44.3366 C   0  0  0  0  0  0  0  0  0  0  0  0
   57.7534   29.6388   45.2836 C   0  0  0  0  0  0  0  0  0  0  0  0
   58.2016   28.3755   45.6818 C   0  0  0  0  0  0  0  0  0  0  0  0
   57.7619   27.1740   45.2538 C   0  0  0  0  0  0  0  0  0  0  0  0
   59.1635   28.5949   46.6533 C   0  0  0  0  0  0  0  0  0  0  0  0
   59.2801   29.9627   46.8019 C   0  0  0  0  0  0  0  0  0  0  0  0
   58.4079   30.6024   45.9814 N   0  0  0  0  0  0  0  0  0  0  0  0
   58.1879   32.0496   45.8836 C   0  0  0  0  0  0  0  0  0  0  0  0
   60.2729   30.5965   47.6936 C   0  0  0  0  0  0  0  0  0  0  0  0
   61.4580   30.7678   47.3035 O   0  0  0  0  0  0  0  0  0  0  0  0
   59.9209   30.9141   49.0476 N   0  0  0  0  0  0  0  0  0  0  0  0
   58.7630   31.7790   49.3189 C   0  0  0  0  0  0  0  0  0  0  0  0
   58.3897   31.7684   50.8069 C   0  0  0  0  0  0  0  0  0  0  0  0
   58.4512   30.3958   51.3328 N   0  0  0  0  0  0  0  0  0  0  0  0
   59.6224   29.5493   51.0502 C   0  0  0  0  0  0  0  0  0  0  0  0
   60.6335   30.2678   50.1533 C   0  0  0  0  0  0  0  0  0  0  0  0
   57.4338   29.9201   52.2381 C   0  0  0  0  0  0  0  0  0  0  0  0
   57.7579   29.0086   53.2572 C   0  0  0  0  0  0  0  0  0  0  0  0
   56.7723   28.5436   54.1308 C   0  0  0  0  0  0  0  0  0  0  0  0
   55.4504   28.9689   53.9857 C   0  0  0  0  0  0  0  0  0  0  0  0
   55.1041   29.8638   52.9638 C   0  0  0  0  0  0  0  0  0  0  0  0
   53.6855   30.3343   52.8328 C   0  0  0  0  0  0  0  0  0  0  0  0
   56.1006   30.3479   52.1001 C   0  0  0  0  0  0  0  0  0  0  0  0
   57.3375   26.0842   46.1524 C   0  0  0  0  0  0  0  0  0  0  0  0
   58.1721   25.4634   47.0027 N   0  0  0  0  0  0  0  0  0  0  0  0
   57.3663   24.6166   47.6759 C   0  0  0  0  0  0  0  0  0  0  0  0
   57.7928   23.8355   48.5654 O   0  0  0  0  0  0  0  0  0  0  0  0
   56.0634   24.6739   47.3251 N   0  0  0  0  0  0  0  0  0  0  0  0
   56.0594   25.6160   46.3683 C   0  0  0  0  0  0  0  0  0  0  0  0
   54.9025   26.0673   45.7444 O   0  0  0  0  0  0  0  0  0  0  0  0
  1  2  2  0
  2  3  1  0
  3  4  2  0
  4 24  1  0
 24 25  1  0
 25 26  1  0
 26 27  2  0
 26 28  1  0
 28 29  1  0
 29 30  1  0
  3  5  1  0
  5  6  2  0
  6  9  1  0
  9 10  2  0
  9 11  1  0
 11 12  1  0
 12 13  1  0
 13 14  1  0
 14 17  1  0
 17 18  2  0
 18 19  1  0
 19 20  2  0
 20 21  1  0
 21 22  1  0
 21 23  2  0
 14 15  1  0
 15 16  1  0
  6  7  1  0
  7  8  1  0
  7  2  1  0
 29 24  2  0
 16 11  1  0
 23 17  1  0
M  CHG 1  25  -1
M  CHG 1  28  -1
M  CHG 1  30  -1
M  END
> <UniqueID>
8

> <SMILES>
C=c1/c(=C/c2[n-]c(=O)[n-]c2[O-])cc(C(=O)N2CCN(c3cccc(C)c3)CC2)n1C

> <Energy>
128.38909404002166

> <Genealogy>
C=c1c(=Cc2[n-]c(=O)[n-]c2[O-])cc(C(=O)N2CCN(c3cccc(C)c3)CC2)n1C (protonated)
C=c1/c(=C/c2[n-]c(=O)[n-]c2[O-])cc(C(=O)N2CCN(c3cccc(C)c3)CC2)n1C (cis-trans isomerization)
C=c1/c(=C/c2[n-]c(=O)[n-]c2[O-])cc(C(=O)N2CCN(c3cccc(C)c3)CC2)n1C (3D coordinates assigned)
C=c1/c(=C/c2[n-]c(=O)[n-]c2[O-])cc(C(=O)N2CCN(c3cccc(C)c3)CC2)n1C (nonaromatic ring conformer: 128.38909404002166 kcal/mol)

> <smiles>
C=c1c(=Cc2[nH]c(=O)[nH]c2O)cc(C(=O)N2CCN(c3cccc(C)c3)CC2)n1C

> <score_type>
oracle

> <origin>
adg

> <m_score__min__energy>
-18.420000000000002

> <m_primary>
energy

> <minimizedAffinity>
-6.92767

> <minimizedRMSD>
0.74779

> <CNNscore>
0.0714381859

> <CNNaffinity>
5.4405303001

> <CNN_VS>
0.3886616230

> <CNNaffinity_variance>
0.3480788171

$$$$
31:0


 30 32  0  0  0  0  0  0  0  0999 V2000
   59.0775   29.6874   47.2740 N   0  0  0  0  0  0  0  0  0  0  0  0
   58.5285   30.3079   46.2072 C   0  0  0  0  0  0  0  0  0  0  0  0
   58.3211   31.7868   46.0920 C   0  0  0  0  0  0  0  0  0  0  0  0
   58.1518   29.3798   45.2572 C   0  0  0  0  0  0  0  0  0  0  0  0
   58.5327   28.1362   45.7375 C   0  0  0  0  0  0  0  0  0  0  0  0
   58.3856   27.0035   45.0242 C   0  0  0  0  0  0  0  0  0  0  0  0
   59.0694   28.3564   47.0168 C   0  0  0  0  0  0  0  0  0  0  0  0
   59.3980   27.4328   47.9343 C   0  0  0  0  0  0  0  0  0  0  0  0
   57.9270   25.7106   45.5597 C   0  0  0  0  0  0  0  0  0  0  0  0
   56.6561   25.4153   45.9979 C   0  0  0  0  0  0  0  0  0  0  0  0
   55.6135   26.3224   46.1271 O   0  0  0  0  0  0  0  0  0  0  0  0
   56.5461   24.1036   46.2827 N   0  0  0  0  0  0  0  0  0  0  0  0
   57.7730   23.6281   45.9800 C   0  0  0  0  0  0  0  0  0  0  0  0
   58.0846   22.4149   46.0975 O   0  0  0  0  0  0  0  0  0  0  0  0
   58.6297   24.5648   45.5263 N   0  0  0  0  0  0  0  0  0  0  0  0
   59.5617   24.4382   45.2354 H   0  0  0  0  0  0  0  0  0  0  0  0
   59.1614   30.9973   50.7792 C   0  0  0  0  0  0  0  0  0  0  0  0
   60.4196   31.6203   50.7991 C   0  0  0  0  0  0  0  0  0  0  0  0
   61.2335   31.6051   49.6625 C   0  0  0  0  0  0  0  0  0  0  0  0
   60.8038   30.9681   48.4955 C   0  0  0  0  0  0  0  0  0  0  0  0
   61.8288   31.0168   47.0685 Cl  0  0  0  0  0  0  0  0  0  0  0  0
   59.5500   30.3331   48.4679 C   0  0  0  0  0  0  0  0  0  0  0  0
   58.7354   30.3517   49.6072 C   0  0  0  0  0  0  0  0  0  0  0  0
   58.0870   29.8551   52.7328 C   0  0  0  0  0  0  0  0  0  0  0  0
   56.9218   29.5755   53.1248 O   0  0  0  0  0  0  0  0  0  0  0  0
   58.3065   31.0406   51.9395 N   0  0  0  0  0  0  0  0  0  0  0  0
   57.9380   32.3411   52.5056 C   0  0  0  0  0  0  0  0  0  0  0  0
   58.0579   27.4973   54.0362 H   0  0  0  0  0  0  0  0  0  0  0  0
   59.0025   27.8995   53.8502 N   0  0  0  0  0  0  0  0  0  0  0  0
   59.1897   28.9503   53.1166 C   0  0  0  0  0  0  0  0  0  0  0  0
 28 29  1  0
 29 30  2  0
 30 24  1  0
 24 25  2  0
 24 26  1  0
 26 17  1  0
 17 18  2  0
 18 19  1  0
 19 20  2  0
 20 21  1  0
 20 22  1  0
 22  1  1  0
  1  2  1  0
  2  3  1  0
  2  4  2  0
  4  5  1  0
  5  6  2  0
  6  9  1  0
  9 10  2  0
 10 11  1  0
 10 12  1  0
 12 13  1  0
 13 14  2  0
 13 15  1  0
  5  7  1  0
  7  8  2  0
 22 23  2  0
 26 27  1  0
 23 17  1  0
  7  1  1  0
 15  9  1  0
 15 16  1  0
M  CHG 1  11  -1
M  CHG 1  12  -1
M  END
> <UniqueID>
31

> <SMILES>
[H]/N=C\C(=O)N(C)c1ccc(Cl)c(-n2c(C)cc(=Cc3[nH]c(=O)[n-]c3[O-])c2=C)c1

> <Energy>
129.43909614566027

> <Genealogy>
C=c1c(=Cc2[nH]c(=O)[n-]c2[O-])cc(C)n1-c1cc(N(C)C(=O)C=N)ccc1Cl (protonated)
[H]/N=C\C(=O)N(C)c1ccc(Cl)c(-n2c(C)cc(=Cc3[nH]c(=O)[n-]c3[O-])c2=C)c1 (cis-trans isomerization)
[H]/N=C\C(=O)N(C)c1ccc(Cl)c(-n2c(C)cc(=Cc3[nH]c(=O)[n-]c3[O-])c2=C)c1 (3D coordinates assigned)
[H]/N=C\C(=O)N(C)c1ccc(Cl)c(-n2c(C)cc(=Cc3[nH]c(=O)[n-]c3[O-])c2=C)c1 (optimized conformer: 129.43909614566027 kcal/mol)

> <smiles>
C=c1c(=Cc2[nH]c(=O)[nH]c2O)cc(C)n1-c1cc(N(C)C(=O)C=N)ccc1Cl

> <score_type>
oracle

> <origin>
adg

> <m_score__min__energy>
-14.25

> <m_primary>
energy

> <minimizedAffinity>
-6.91685

> <minimizedRMSD>
1.32751

> <CNNscore>
0.1947023720

> <CNNaffinity>
6.4125332832

> <CNN_VS>
1.2485353947

> <CNNaffinity_variance>
0.0902388766

$$$$
35:0


 32 35  0  0  0  0  0  0  0  0999 V2000
   56.7139   31.2659   44.6800 C   0  0  0  0  0  0  0  0  0  0  0  0
   57.4230   32.3527   44.5421 N   0  0  0  0  0  0  0  0  0  0  0  0
   57.2124   29.8628   44.5968 C   0  0  0  0  0  0  0  0  0  0  0  0
   57.5933   29.1392   45.7134 C   0  0  0  0  0  0  0  0  0  0  0  0
   58.0135   27.8912   45.2640 C   0  0  0  0  0  0  0  0  0  0  0  0
   58.5075   26.8820   46.0071 C   0  0  0  0  0  0  0  0  0  0  0  0
   57.8877   27.9262   43.8763 C   0  0  0  0  0  0  0  0  0  0  0  0
   58.2112   26.9589   43.0081 C   0  0  0  0  0  0  0  0  0  0  0  0
   57.3933   29.1153   43.4828 N   0  0  0  0  0  0  0  0  0  0  0  0
   57.1996   29.3898   42.5575 H   0  0  0  0  0  0  0  0  0  0  0  0
   57.9542   25.5151   46.0597 C   0  0  0  0  0  0  0  0  0  0  0  0
   58.7199   24.4200   45.9039 N   0  0  0  0  0  0  0  0  0  0  0  0
   57.8314   23.4035   45.9347 C   0  0  0  0  0  0  0  0  0  0  0  0
   58.1795   22.1990   45.8164 O   0  0  0  0  0  0  0  0  0  0  0  0
   56.5410   23.7807   46.0743 N   0  0  0  0  0  0  0  0  0  0  0  0
   56.6320   25.1208   46.1377 C   0  0  0  0  0  0  0  0  0  0  0  0
   55.5224   25.9567   46.2033 O   0  0  0  0  0  0  0  0  0  0  0  0
   58.3674   32.8801   45.4731 C   0  0  0  0  0  0  0  0  0  0  0  0
   59.1889   33.9542   45.1097 C   0  0  0  0  0  0  0  0  0  0  0  0
   60.1757   34.4048   45.9904 C   0  0  0  0  0  0  0  0  0  0  0  0
   60.3277   33.8026   47.2445 C   0  0  0  0  0  0  0  0  0  0  0  0
   59.4666   32.7619   47.6416 C   0  0  0  0  0  0  0  0  0  0  0  0
   58.4810   32.3115   46.7484 C   0  0  0  0  0  0  0  0  0  0  0  0
   59.5928   32.1175   48.9702 C   0  0  0  0  0  0  0  0  0  0  0  0
   58.5942   32.1648   49.7476 O   0  0  0  0  0  0  0  0  0  0  0  0
   60.8063   31.4059   49.3500 N   0  0  0  0  0  0  0  0  0  0  0  0
   61.2085   30.4412   48.3020 C   0  0  0  0  0  0  0  0  0  0  0  0
   60.3231   29.1892   48.3322 C   0  0  0  0  0  0  0  0  0  0  0  0
   60.4064   28.5580   49.5933 O   0  0  0  0  0  0  0  0  0  0  0  0
   59.8940   29.4214   50.5892 C   0  0  0  0  0  0  0  0  0  0  0  0
   60.7078   30.7292   50.6668 C   0  0  0  0  0  0  0  0  0  0  0  0
   60.0280   30.8047   49.3052 H   0  0  0  0  0  0  0  0  0  0  0  0
  1  2  2  0
  2 18  1  0
 18 19  2  0
 19 20  1  0
 20 21  2  0
 21 22  1  0
 22 24  1  0
 24 25  2  0
 24 26  1  0
 26 27  1  0
 27 28  1  0
 28 29  1  0
 29 30  1  0
 30 31  1  0
 22 23  2  0
  1  3  1  0
  3  4  2  0
  4  5  1  0
  5  6  2  0
  6 11  1  0
 11 12  1  0
 12 13  1  0
 13 14  2  0
 13 15  1  0
 15 16  1  0
 16 17  1  0
  5  7  1  0
  7  8  2  0
  7  9  1  0
 23 18  1  0
  9  3  1  0
 31 26  1  0
 16 11  2  0
 26 32  1  0
  9 10  1  0
M  CHG 1  12  -1
M  CHG 1  15  -1
M  CHG 1  17  -1
M  CHG 1  26   1
M  END
> <UniqueID>
35

> <SMILES>
C=c1[nH]c(C=Nc2cccc(C(=O)[NH+]3CCOCC3)c2)c/c1=C\c1[n-]c(=O)[n-]c1[O-]

> <Energy>
140.82733867610722

> <Genealogy>
C=c1[nH]c(C=Nc2cccc(C(=O)[NH+]3CCOCC3)c2)cc1=Cc1[n-]c(=O)[n-]c1[O-] (protonated)
C=c1[nH]c(C=Nc2cccc(C(=O)[NH+]3CCOCC3)c2)c/c1=C\c1[n-]c(=O)[n-]c1[O-] (cis-trans isomerization)
C=c1[nH]c(C=Nc2cccc(C(=O)[NH+]3CCOCC3)c2)c/c1=C\c1[n-]c(=O)[n-]c1[O-] (3D coordinates assigned)
C=c1[nH]c(C=Nc2cccc(C(=O)[NH+]3CCOCC3)c2)c/c1=C\c1[n-]c(=O)[n-]c1[O-] (nonaromatic ring conformer: 140.82733867610722 kcal/mol)

> <smiles>
C=c1[nH]c(C=Nc2cccc(C(=O)N3CCOCC3)c2)cc1=Cc1[nH]c(=O)[nH]c1O

> <score_type>
oracle

> <origin>
adg

> <m_score__min__energy>
-16.140000000000001

> <m_primary>
energy

> <minimizedAffinity>
-8.05721

> <minimizedRMSD>
1.06363

> <CNNscore>
0.0885494724

> <CNNaffinity>
6.2048659325

> <CNN_VS>
0.5494375825

> <CNNaffinity_variance>
0.0497507863

$$$$
44:0


 33 36  0  0  0  0  0  0  0  0999 V2000
   60.4160   31.1645   49.1018 N   0  0  0  0  0  0  0  0  0  0  0  0
   61.1042   30.5208   48.8170 H   0  0  0  0  0  0  0  0  0  0  0  0
   63.4532   33.3812   48.7222 C   0  0  0  0  0  0  0  0  0  0  0  0
   63.3180   32.6559   47.3629 C   0  0  0  0  0  0  0  0  0  0  0  0
   62.2125   31.5856   47.3723 C   0  0  0  0  0  0  0  0  0  0  0  0
   60.8416   32.0620   47.9720 C   0  0  0  0  0  0  0  0  0  0  0  0
   60.9119   33.5696   48.3435 C   0  0  0  0  0  0  0  0  0  0  0  0
   62.0849   33.8647   49.2859 C   0  0  0  0  0  0  0  0  0  0  0  0
   63.3067   31.8114   50.5461 O   0  0  0  0  0  0  0  0  0  0  0  0
   64.2135   32.5139   49.7430 C   0  0  0  0  0  0  0  0  0  0  0  0
   63.7941   31.2685   51.1853 H   0  0  0  0  0  0  0  0  0  0  0  0
   59.2267   31.6138   49.9027 C   0  0  0  0  0  0  0  0  0  0  0  0
   58.4148   30.4702   50.5726 C   0  0  0  0  0  0  0  0  0  0  0  0
   58.9053   30.0873   51.9896 C   0  0  0  0  0  0  0  0  0  0  0  0
   59.9579   30.9064   52.4626 O   0  0  0  0  0  0  0  0  0  0  0  0
   59.5786   32.2612   52.3796 C   0  0  0  0  0  0  0  0  0  0  0  0
   59.5813   32.7406   50.9221 C   0  0  0  0  0  0  0  0  0  0  0  0
   60.2430   29.8012   48.6144 C   0  0  0  0  0  0  0  0  0  0  0  0
   60.7883   28.8411   49.2258 O   0  0  0  0  0  0  0  0  0  0  0  0
   59.4474   29.4914   47.4058 C   0  0  0  0  0  0  0  0  0  0  0  0
   58.6308   30.6371   46.4904 S   0  0  0  0  0  0  0  0  0  0  0  0
   58.0225   29.5718   45.3390 C   0  0  0  0  0  0  0  0  0  0  0  0
   57.2483   29.9627   44.3231 C   0  0  0  0  0  0  0  0  0  0  0  0
   58.4562   28.2694   45.6530 C   0  0  0  0  0  0  0  0  0  0  0  0
   58.1812   27.1735   44.9138 C   0  0  0  0  0  0  0  0  0  0  0  0
   59.2665   28.2452   46.8094 C   0  0  0  0  0  0  0  0  0  0  0  0
   57.7743   25.8712   45.4775 C   0  0  0  0  0  0  0  0  0  0  0  0
   58.5434   24.7696   45.4274 N   0  0  0  0  0  0  0  0  0  0  0  0
   57.7663   23.8177   45.9853 C   0  0  0  0  0  0  0  0  0  0  0  0
   58.1515   22.6287   46.1317 O   0  0  0  0  0  0  0  0  0  0  0  0
   56.5410   24.2363   46.3649 N   0  0  0  0  0  0  0  0  0  0  0  0
   56.5555   25.5353   46.0272 C   0  0  0  0  0  0  0  0  0  0  0  0
   55.4651   26.3820   46.1820 O   0  0  0  0  0  0  0  0  0  0  0  0
  9 10  1  0
  3 10  1  0
  3  4  1  0
  4  5  1  0
  6  5  1  0
  6  1  1  0
  1 18  1  0
 18 19  2  0
 18 20  1  0
 20 21  1  0
 21 22  1  0
 22 23  2  0
 22 24  1  0
 24 25  2  0
 25 27  1  0
 27 28  1  0
 28 29  1  0
 29 30  2  0
 29 31  1  0
 31 32  1  0
 32 33  1  0
 24 26  1  0
  1 12  1  0
 12 13  1  0
 13 14  1  0
 14 15  1  0
 15 16  1  0
 16 17  1  0
  6  7  1  0
  7  8  1  0
  8  3  1  0
 26 20  2  0
 17 12  1  0
 32 27  2  0
  9 11  1  0
  1  2  1  0
M  CHG 1   1   1
M  CHG 1  28  -1
M  CHG 1  31  -1
M  CHG 1  33  -1
M  END
> <UniqueID>
44

> <SMILES>
C=c1sc(C(=O)[N@H+](C2CCOCC2)C2CCC(CO)CC2)c/c1=C\c1[n-]c(=O)[n-]c1[O-]

> <Energy>
151.94616830081702

> <Genealogy>
C=c1sc(C(=O)[NH+](C2CCOCC2)C2CCC(CO)CC2)cc1=Cc1[n-]c(=O)[n-]c1[O-] (protonated)
C=c1sc(C(=O)[N@H+](C2CCOCC2)C2CCC(CO)CC2)cc1=Cc1[n-]c(=O)[n-]c1[O-] (chirality)
C=c1sc(C(=O)[N@H+](C2CCOCC2)C2CCC(CO)CC2)c/c1=C\c1[n-]c(=O)[n-]c1[O-] (cis-trans isomerization)
C=c1sc(C(=O)[N@H+](C2CCOCC2)C2CCC(CO)CC2)c/c1=C\c1[n-]c(=O)[n-]c1[O-] (3D coordinates assigned)
C=c1sc(C(=O)[N@H+](C2CCOCC2)C2CCC(CO)CC2)c/c1=C\c1[n-]c(=O)[n-]c1[O-] (nonaromatic ring conformer: 151.94616830081702 kcal/mol)

> <smiles>
C=c1sc(C(=O)N(C2CCOCC2)C2CCC(CO)CC2)cc1=Cc1[nH]c(=O)[nH]c1O

> <score_type>
oracle

> <origin>
adg

> <m_score__min__energy>
-16.140000000000001

> <m_primary>
energy

> <minimizedAffinity>
-7.98730

> <minimizedRMSD>
0.94133

> <CNNscore>
0.1850231439

> <CNNaffinity>
6.4941878319

> <CNN_VS>
1.2015750408

> <CNNaffinity_variance>
0.0140504427

$$$$
54:0


 31 34  0  0  0  0  0  0  0  0999 V2000
   58.2687   29.3165   53.3753 C   0  0  0  0  0  0  0  0  0  0  0  0
   58.9179   28.6818   54.2490 O   0  0  0  0  0  0  0  0  0  0  0  0
   58.9715   30.0629   52.3656 N   0  0  0  0  0  0  0  0  0  0  0  0
   58.5159   31.4023   51.9683 C   0  0  0  0  0  0  0  0  0  0  0  0
   58.6723   31.6194   50.4483 C   0  0  0  0  0  0  0  0  0  0  0  0
   59.4486   30.5355   49.8010 N   0  0  0  0  0  0  0  0  0  0  0  0
   60.6680   30.2535   50.5767 C   0  0  0  0  0  0  0  0  0  0  0  0
   60.2752   29.5777   51.8955 C   0  0  0  0  0  0  0  0  0  0  0  0
   53.6865   27.8304   53.9142 C   0  0  0  0  0  0  0  0  0  0  0  0
   54.7277   28.6145   53.5938 C   0  0  0  0  0  0  0  0  0  0  0  0
   54.6862   29.9770   53.2483 C   0  0  0  0  0  0  0  0  0  0  0  0
   53.6488   30.7927   52.9830 C   0  0  0  0  0  0  0  0  0  0  0  0
   56.0026   30.4009   53.1953 C   0  0  0  0  0  0  0  0  0  0  0  0
   56.7918   29.2947   53.4277 C   0  0  0  0  0  0  0  0  0  0  0  0
   56.0211   28.2094   53.6857 N   0  0  0  0  0  0  0  0  0  0  0  0
   56.4869   26.8870   54.1240 C   0  0  0  0  0  0  0  0  0  0  0  0
   52.8412   30.7861   51.7541 C   0  0  0  0  0  0  0  0  0  0  0  0
   52.9677   29.8623   50.7865 N   0  0  0  0  0  0  0  0  0  0  0  0
   51.9601   30.1607   49.9375 C   0  0  0  0  0  0  0  0  0  0  0  0
   51.7562   29.5166   48.8752 O   0  0  0  0  0  0  0  0  0  0  0  0
   51.1824   31.1955   50.3199 N   0  0  0  0  0  0  0  0  0  0  0  0
   51.7424   31.5701   51.4804 C   0  0  0  0  0  0  0  0  0  0  0  0
   51.2452   32.5895   52.2851 O   0  0  0  0  0  0  0  0  0  0  0  0
   59.7760   30.8752   48.4027 C   0  0  0  0  0  0  0  0  0  0  0  0
   59.5965   29.6724   47.5147 C   0  0  0  0  0  0  0  0  0  0  0  0
   60.2535   29.6160   46.2755 C   0  0  0  0  0  0  0  0  0  0  0  0
   60.1170   28.4794   45.4775 C   0  0  0  0  0  0  0  0  0  0  0  0
   59.3350   27.4121   45.9186 C   0  0  0  0  0  0  0  0  0  0  0  0
   58.7008   27.4973   47.1595 C   0  0  0  0  0  0  0  0  0  0  0  0
   58.8431   28.6115   47.9289 N   0  0  0  0  0  0  0  0  0  0  0  0
   58.3928   28.6532   48.8034 H   0  0  0  0  0  0  0  0  0  0  0  0
  9 10  2  0
 10 11  1  0
 11 12  2  0
 12 17  1  0
 17 18  1  0
 18 19  1  0
 19 20  2  0
 19 21  1  0
 21 22  1  0
 22 23  1  0
 11 13  1  0
 13 14  2  0
 14  1  1  0
  1  2  2  0
  1  3  1  0
  3  4  1  0
  4  5  1  0
  5  6  1  0
  6 24  1  0
 24 25  1  0
 25 26  2  0
 26 27  1  0
 27 28  2  0
 28 29  1  0
 29 30  2  0
  6  7  1  0
  7  8  1  0
 14 15  1  0
 15 16  1  0
 15 10  1  0
 22 17  2  0
  8  3  1  0
 30 25  1  0
 30 31  1  0
M  CHG 1  18  -1
M  CHG 1  21  -1
M  CHG 1  23  -1
M  CHG 1  30   1
M  END
> <UniqueID>
53

> <SMILES>
C=c1c(=Cc2[n-]c(=O)[n-]c2[O-])cc(C(=O)N2CCN(Cc3cccc[nH+]3)CC2)n1C

> <Energy>
135.08044528440044

> <Genealogy>
C=c1c(=Cc2[n-]c(=O)[n-]c2[O-])cc(C(=O)N2CCN(Cc3cccc[nH+]3)CC2)n1C (protonated)
C=c1c(=Cc2[n-]c(=O)[n-]c2[O-])cc(C(=O)N2CCN(Cc3cccc[nH+]3)CC2)n1C (3D coordinates assigned)
C=c1c(=Cc2[n-]c(=O)[n-]c2[O-])cc(C(=O)N2CCN(Cc3cccc[nH+]3)CC2)n1C (nonaromatic ring conformer: 135.08044528440044 kcal/mol)

> <smiles>
C=c1c(=Cc2[nH]c(=O)[nH]c2O)cc(C(=O)N2CCN(Cc3ccccn3)CC2)n1C

> <score_type>
oracle

> <origin>
adg

> <m_score__min__energy>
-16.199999999999999

> <m_primary>
energy

> <minimizedAffinity>
-6.37160

> <minimizedRMSD>
0.89946

> <CNNscore>
0.0449710526

> <CNNaffinity>
4.8224005699

> <CNN_VS>
0.2168684304

> <CNNaffinity_variance>
0.5175800323

$$$$
75:0


 28 30  0  0  0  0  0  0  0  0999 V2000
   59.0719   28.4261   47.8271 C   0  0  0  0  0  0  0  0  0  0  0  0
   59.0473   29.3575   48.8787 C   0  0  0  0  0  0  0  0  0  0  0  0
   59.8961   29.2030   49.9843 C   0  0  0  0  0  0  0  0  0  0  0  0
   60.7588   28.1016   50.0448 C   0  0  0  0  0  0  0  0  0  0  0  0
   60.7642   27.1563   49.0158 C   0  0  0  0  0  0  0  0  0  0  0  0
   59.9190   27.3125   47.9134 C   0  0  0  0  0  0  0  0  0  0  0  0
   59.9305   26.3593   46.9004 O   0  0  0  0  0  0  0  0  0  0  0  0
   59.8660   30.3817   51.2981 S   0  0  0  0  0  0  0  0  0  0  0  0
   59.9488   31.7676   50.7189 O   0  0  0  0  0  0  0  0  0  0  0  0
   61.0716   30.1723   52.1740 O   0  0  0  0  0  0  0  0  0  0  0  0
   58.4198   30.2432   52.2668 N   0  0  0  0  0  0  0  0  0  0  0  0
   57.3371   31.0564   51.6958 C   0  0  0  0  0  0  0  0  0  0  0  0
   56.0624   30.9123   52.5551 C   0  0  0  0  0  0  0  0  0  0  0  0
   56.2961   30.1723   53.7415 O   0  0  0  0  0  0  0  0  0  0  0  0
   57.3734   30.7444   54.4578 C   0  0  0  0  0  0  0  0  0  0  0  0
   58.6870   30.6576   53.6537 C   0  0  0  0  0  0  0  0  0  0  0  0
   58.1906   28.5490   46.6996 N   0  0  0  0  0  0  0  0  0  0  0  0
   57.0223   29.9340   45.2530 O   0  0  0  0  0  0  0  0  0  0  0  0
   58.1291   29.6505   45.7833 C   0  0  0  0  0  0  0  0  0  0  0  0
   59.3533   30.4440   45.4080 C   0  0  0  0  0  0  0  0  0  0  0  0
   59.2894   31.8010   45.9851 N   0  0  0  0  0  0  0  0  0  0  0  0
   58.2355   32.5952   45.6112 C   0  0  0  0  0  0  0  0  0  0  0  0
   58.0918   33.8846   46.1199 C   0  0  0  0  0  0  0  0  0  0  0  0
   59.0242   34.3707   47.0277 C   0  0  0  0  0  0  0  0  0  0  0  0
   60.0873   33.5649   47.4276 C   0  0  0  0  0  0  0  0  0  0  0  0
   61.0078   34.0608   48.3468 O   0  0  0  0  0  0  0  0  0  0  0  0
   60.2143   32.2651   46.9004 C   0  0  0  0  0  0  0  0  0  0  0  0
   61.4712   31.3302   47.4160 S   0  0  0  0  0  0  0  0  0  0  0  0
 18 19  2  0
 19 20  1  0
 20 21  1  0
 21 22  1  0
 22 23  2  0
 23 24  1  0
 24 25  2  0
 25 26  1  0
 25 27  1  0
 27 28  2  0
 19 17  1  0
 17  1  1  0
  1  2  2  0
  2  3  1  0
  3  8  1  0
  8  9  2  0
  8 10  2  0
  8 11  1  0
 11 12  1  0
 12 13  1  0
 13 14  1  0
 14 15  1  0
 15 16  1  0
  3  4  2  0
  4  5  1  0
  5  6  2  0
  6  7  1  0
 27 21  1  0
  6  1  1  0
 16 11  1  0
M  CHG 1   7  -1
M  CHG 1  17  -1
M  CHG 1  26  -1
M  END
> <UniqueID>
73

> <SMILES>
O=C(Cn1cccc([O-])c1=S)[N-]c1cc(S(=O)(=O)N2CCOCC2)ccc1[O-]

> <Energy>
62.79652075957358

> <Genealogy>
O=C(Cn1cccc([O-])c1=S)[N-]c1cc(S(=O)(=O)N2CCOCC2)ccc1[O-] (protonated)
O=C(Cn1cccc([O-])c1=S)[N-]c1cc(S(=O)(=O)N2CCOCC2)ccc1[O-] (3D coordinates assigned)
O=C(Cn1cccc([O-])c1=S)[N-]c1cc(S(=O)(=O)N2CCOCC2)ccc1[O-] (nonaromatic ring conformer: 62.79652075957358 kcal/mol)

> <smiles>
O=C(Cn1cccc(O)c1=S)Nc1cc(S(=O)(=O)N2CCOCC2)ccc1O

> <score_type>
oracle

> <origin>
adg

> <m_score__min__energy>
-14.24

> <m_primary>
energy

> <minimizedAffinity>
-6.36886

> <minimizedRMSD>
3.71940

> <CNNscore>
0.6083603501

> <CNNaffinity>
6.3727664948

> <CNN_VS>
3.8769383430

> <CNNaffinity_variance>
0.0172497686

$$$$
80:0


 27 29  0  0  0  0  0  0  0  0999 V2000
   60.2561   31.5195   55.7902 N   0  0  0  0  0  0  0  0  0  0  0  0
   58.9223   31.6299   56.4229 C   0  0  0  0  0  0  0  0  0  0  0  0
   57.8420   30.9232   55.5957 C   0  0  0  0  0  0  0  0  0  0  0  0
   58.3301   29.6432   55.0679 N   0  0  0  0  0  0  0  0  0  0  0  0
   57.4514   28.8458   54.2491 C   0  0  0  0  0  0  0  0  0  0  0  0
   57.6538   27.6090   54.1147 O   0  0  0  0  0  0  0  0  0  0  0  0
   56.3256   29.4444   53.5881 N   0  0  0  0  0  0  0  0  0  0  0  0
   56.3934   30.4571   52.6984 C   0  0  0  0  0  0  0  0  0  0  0  0
   57.6576   31.1495   52.2886 C   0  0  0  0  0  0  0  0  0  0  0  0
   55.1513   30.6929   52.1480 C   0  0  0  0  0  0  0  0  0  0  0  0
   54.2652   29.8206   52.7618 C   0  0  0  0  0  0  0  0  0  0  0  0
   52.9430   29.8304   52.5086 C   0  0  0  0  0  0  0  0  0  0  0  0
   55.0356   29.0271   53.6281 C   0  0  0  0  0  0  0  0  0  0  0  0
   54.6398   27.9412   54.3108 C   0  0  0  0  0  0  0  0  0  0  0  0
   59.5654   29.0624   55.6099 C   0  0  0  0  0  0  0  0  0  0  0  0
   60.7072   30.1023   55.7185 C   0  0  0  0  0  0  0  0  0  0  0  0
   60.8952   32.0334   56.3966 H   0  0  0  0  0  0  0  0  0  0  0  0
   52.3109   30.3037   51.2670 C   0  0  0  0  0  0  0  0  0  0  0  0
   52.1870   29.5757   50.1429 N   0  0  0  0  0  0  0  0  0  0  0  0
   51.4338   30.3623   49.3434 C   0  0  0  0  0  0  0  0  0  0  0  0
   51.1094   30.0272   48.1742 O   0  0  0  0  0  0  0  0  0  0  0  0
   51.0463   31.5308   49.8987 N   0  0  0  0  0  0  0  0  0  0  0  0
   51.5982   31.4692   51.1219 C   0  0  0  0  0  0  0  0  0  0  0  0
   51.4513   32.4577   52.0869 O   0  0  0  0  0  0  0  0  0  0  0  0
   60.3331   32.1700   54.4578 C   0  0  0  0  0  0  0  0  0  0  0  0
   59.2059   34.2296   53.6322 C   0  0  0  0  0  0  0  0  0  0  0  0
   60.0140   33.6437   54.5211 C   0  0  0  0  0  0  0  0  0  0  0  0
 26 27  2  0
 27 25  1  0
 25  1  1  0
  1  2  1  0
  2  3  1  0
  3  4  1  0
  4  5  1  0
  5  6  2  0
  5  7  1  0
  7  8  1  0
  8  9  1  0
  8 10  2  0
 10 11  1  0
 11 12  2  0
 12 18  1  0
 18 19  1  0
 19 20  1  0
 20 21  2  0
 20 22  1  0
 22 23  1  0
 23 24  1  0
 11 13  1  0
 13 14  2  0
  4 15  1  0
 15 16  1  0
 16  1  1  0
 13  7  1  0
 23 18  2  0
  1 17  1  0
M  CHG 1   1   1
M  CHG 1  19  -1
M  CHG 1  22  -1
M  CHG 1  24  -1
M  END
> <UniqueID>
78

> <SMILES>
C=CC[NH+]1CCN(C(=O)n2c(C)c/c(=C/c3[n-]c(=O)[n-]c3[O-])c2=C)CC1

> <Energy>
128.89387623185684

> <Genealogy>
C=CC[NH+]1CCN(C(=O)n2c(C)cc(=Cc3[n-]c(=O)[n-]c3[O-])c2=C)CC1 (protonated)
C=CC[NH+]1CCN(C(=O)n2c(C)c/c(=C/c3[n-]c(=O)[n-]c3[O-])c2=C)CC1 (cis-trans isomerization)
C=CC[NH+]1CCN(C(=O)n2c(C)c/c(=C/c3[n-]c(=O)[n-]c3[O-])c2=C)CC1 (3D coordinates assigned)
C=CC[NH+]1CCN(C(=O)n2c(C)c/c(=C/c3[n-]c(=O)[n-]c3[O-])c2=C)CC1 (nonaromatic ring conformer: 128.89387623185684 kcal/mol)

> <smiles>
C=CCN1CCN(C(=O)n2c(C)cc(=Cc3[nH]c(=O)[nH]c3O)c2=C)CC1

> <score_type>
oracle

> <origin>
adg

> <m_score__min__energy>
-14.640000000000001

> <m_primary>
energy

> <minimizedAffinity>
-4.25585

> <minimizedRMSD>
0.82757

> <CNNscore>
0.1249930561

> <CNNaffinity>
4.3547825813

> <CNN_VS>
0.5443176031

> <CNNaffinity_variance>
0.4752863944

$$$$
85:0


 31 34  0  0  0  0  0  0  0  0999 V2000
   57.3576   30.9267   43.2798 O   0  0  0  0  0  0  0  0  0  0  0  0
   57.5821   30.6992   44.4994 C   0  0  0  0  0  0  0  0  0  0  0  0
   58.1622   29.3983   44.9113 C   0  0  0  0  0  0  0  0  0  0  0  0
   59.2100   29.3498   45.8496 C   0  0  0  0  0  0  0  0  0  0  0  0
   59.7517   28.1248   46.2437 C   0  0  0  0  0  0  0  0  0  0  0  0
   59.2584   26.9347   45.7086 C   0  0  0  0  0  0  0  0  0  0  0  0
   58.2255   26.9601   44.7607 C   0  0  0  0  0  0  0  0  0  0  0  0
   57.6745   28.1933   44.3739 C   0  0  0  0  0  0  0  0  0  0  0  0
   57.6668   25.6767   44.2109 C   0  0  0  0  0  0  0  0  0  0  0  0
   57.2427   24.7767   45.3298 C   0  0  0  0  0  0  0  0  0  0  0  0
   57.9547   23.2960   45.7050 S   0  0  0  0  0  0  0  0  0  0  0  0
   56.8461   22.9825   46.9297 C   0  0  0  0  0  0  0  0  0  0  0  0
   56.8538   21.9484   47.6449 O   0  0  0  0  0  0  0  0  0  0  0  0
   55.9290   23.9634   47.0672 N   0  0  0  0  0  0  0  0  0  0  0  0
   56.1456   24.9605   46.1688 C   0  0  0  0  0  0  0  0  0  0  0  0
   55.3196   26.0752   46.1026 O   0  0  0  0  0  0  0  0  0  0  0  0
   57.3296   31.7139   45.4806 N   0  0  0  0  0  0  0  0  0  0  0  0
   58.1928   32.8053   45.8323 C   0  0  0  0  0  0  0  0  0  0  0  0
   58.3706   33.9182   44.9906 C   0  0  0  0  0  0  0  0  0  0  0  0
   59.2020   34.9696   45.3846 C   0  0  0  0  0  0  0  0  0  0  0  0
   59.8542   34.9261   46.6186 C   0  0  0  0  0  0  0  0  0  0  0  0
   59.6799   33.8271   47.4738 C   0  0  0  0  0  0  0  0  0  0  0  0
   58.8280   32.7808   47.0805 C   0  0  0  0  0  0  0  0  0  0  0  0
   60.3475   33.7842   48.7950 C   0  0  0  0  0  0  0  0  0  0  0  0
   59.6491   33.9216   49.8369 O   0  0  0  0  0  0  0  0  0  0  0  0
   61.7687   33.5797   48.9191 N   0  0  0  0  0  0  0  0  0  0  0  0
   62.5408   34.3158   49.9237 C   0  0  0  0  0  0  0  0  0  0  0  0
   63.6024   33.3930   50.5318 C   0  0  0  0  0  0  0  0  0  0  0  0
   64.3770   32.7777   49.5188 O   0  0  0  0  0  0  0  0  0  0  0  0
   63.5597   31.9220   48.7415 C   0  0  0  0  0  0  0  0  0  0  0  0
   62.5018   32.7272   47.9797 C   0  0  0  0  0  0  0  0  0  0  0  0
  1  2  2  0
  2 17  1  0
 17 18  1  0
 18 19  2  0
 19 20  1  0
 20 21  2  0
 21 22  1  0
 22 24  1  0
 24 25  2  0
 24 26  1  0
 26 27  1  0
 27 28  1  0
 28 29  1  0
 29 30  1  0
 30 31  1  0
 22 23  2  0
  2  3  1  0
  3  4  2  0
  4  5  1  0
  5  6  2  0
  6  7  1  0
  7  9  1  0
  9 10  1  0
 10 11  1  0
 11 12  1  0
 12 13  2  0
 12 14  1  0
 14 15  1  0
 15 16  1  0
  7  8  2  0
 23 18  1  0
  8  3  1  0
 31 26  1  0
 15 10  2  0
M  CHG 1  14  -1
M  CHG 1  16  -1
M  CHG 1  17  -1
M  END
> <UniqueID>
82

> <SMILES>
O=C([N-]c1cccc(C(=O)N2CCOCC2)c1)c1cccc(Cc2sc(=O)[n-]c2[O-])c1

> <Energy>
92.73974177179488

> <Genealogy>
O=C([N-]c1cccc(C(=O)N2CCOCC2)c1)c1cccc(Cc2sc(=O)[n-]c2[O-])c1 (protonated)
O=C([N-]c1cccc(C(=O)N2CCOCC2)c1)c1cccc(Cc2sc(=O)[n-]c2[O-])c1 (3D coordinates assigned)
O=C([N-]c1cccc(C(=O)N2CCOCC2)c1)c1cccc(Cc2sc(=O)[n-]c2[O-])c1 (nonaromatic ring conformer: 92.73974177179488 kcal/mol)

> <smiles>
O=C(Nc1cccc(C(=O)N2CCOCC2)c1)c1cccc(Cc2sc(=O)[nH]c2O)c1

> <score_type>
oracle

> <origin>
adg

> <m_score__min__energy>
-17.489999999999998

> <m_primary>
energy

> <minimizedAffinity>
-9.20106

> <minimizedRMSD>
0.79395

> <CNNscore>
0.5435536504

> <CNNaffinity>
7.2032165527

> <CNN_VS>
3.9153347015

> <CNNaffinity_variance>
0.1429201216

$$$$
9:0


 32 35  0  0  0  0  0  0  0  0999 V2000
   57.9363   26.8600   43.3050 C   0  0  0  0  0  0  0  0  0  0  0  0
   58.2995   26.5565   44.5622 C   0  0  0  0  0  0  0  0  0  0  0  0
   58.0013   25.3720   45.2469 C   0  0  0  0  0  0  0  0  0  0  0  0
   57.3407   24.2971   44.7635 C   0  0  0  0  0  0  0  0  0  0  0  0
   58.5483   25.5185   46.5133 C   0  0  0  0  0  0  0  0  0  0  0  0
   59.1483   26.7638   46.5601 C   0  0  0  0  0  0  0  0  0  0  0  0
   58.9949   27.3947   45.3721 N   0  0  0  0  0  0  0  0  0  0  0  0
   59.4300   28.7279   45.0510 C   0  0  0  0  0  0  0  0  0  0  0  0
   58.4511   29.7672   44.6073 C   0  0  0  0  0  0  0  0  0  0  0  0
   60.6560   29.0190   45.1107 O   0  0  0  0  0  0  0  0  0  0  0  0
   56.0163   23.8248   45.2280 C   0  0  0  0  0  0  0  0  0  0  0  0
   55.5687   22.5571   45.1849 N   0  0  0  0  0  0  0  0  0  0  0  0
   54.3429   22.6322   45.7463 C   0  0  0  0  0  0  0  0  0  0  0  0
   53.5953   21.6277   45.8811 O   0  0  0  0  0  0  0  0  0  0  0  0
   53.9835   23.8660   46.1567 N   0  0  0  0  0  0  0  0  0  0  0  0
   55.0548   24.6076   45.8273 C   0  0  0  0  0  0  0  0  0  0  0  0
   55.1499   25.9739   46.0662 O   0  0  0  0  0  0  0  0  0  0  0  0
   59.9232   27.2791   47.7192 C   0  0  0  0  0  0  0  0  0  0  0  0
   60.3607   26.4659   48.5778 O   0  0  0  0  0  0  0  0  0  0  0  0
   60.0989   28.7052   47.9177 N   0  0  0  0  0  0  0  0  0  0  0  0
   60.9669   28.9809   49.0787 C   0  0  0  0  0  0  0  0  0  0  0  0
   61.2697   30.4940   49.1982 C   0  0  0  0  0  0  0  0  0  0  0  0
   60.2012   31.3611   48.6300 N   0  0  0  0  0  0  0  0  0  0  0  0
   58.8712   30.7297   48.7762 C   0  0  0  0  0  0  0  0  0  0  0  0
   58.7777   29.3617   48.0648 C   0  0  0  0  0  0  0  0  0  0  0  0
   60.6933   29.1183   48.5850 H   0  0  0  0  0  0  0  0  0  0  0  0
   60.5654   31.9370   47.2962 C   0  0  0  0  0  0  0  0  0  0  0  0
   59.4448   32.7454   46.5735 C   0  0  0  0  0  0  0  0  0  0  0  0
   59.2587   34.1937   47.0944 C   0  0  0  0  0  0  0  0  0  0  0  0
   59.9841   34.4613   48.4230 C   0  0  0  0  0  0  0  0  0  0  0  0
   61.4800   34.0917   48.3564 C   0  0  0  0  0  0  0  0  0  0  0  0
   61.7827   32.8732   47.4570 C   0  0  0  0  0  0  0  0  0  0  0  0
  1  2  2  0
  2  3  1  0
  3  4  2  0
  4 11  1  0
 11 12  1  0
 12 13  1  0
 13 14  2  0
 13 15  1  0
 15 16  1  0
 16 17  1  0
  3  5  1  0
  5  6  2  0
  6 18  1  0
 18 19  2  0
 18 20  1  0
 20 21  1  0
 21 22  1  0
 22 23  1  0
 23 27  1  0
 27 28  1  0
 28 29  1  0
 29 30  1  0
 30 31  1  0
 31 32  1  0
 23 24  1  0
 24 25  1  0
  6  7  1  0
  7  8  1  0
  8  9  1  0
  8 10  2  0
  7  2  1  0
 16 11  2  0
 25 20  1  0
 32 27  1  0
 20 26  1  0
M  CHG 1  12  -1
M  CHG 1  15  -1
M  CHG 1  17  -1
M  CHG 1  20   1
M  END
> <UniqueID>
10

> <SMILES>
C=c1c(=Cc2[n-]c(=O)[n-]c2[O-])cc(C(=O)[NH+]2CCN(C3CCCCC3)CC2)n1C(C)=O

> <Energy>
154.15157705696592

> <Genealogy>
C=c1c(=Cc2[n-]c(=O)[n-]c2[O-])cc(C(=O)[NH+]2CCN(C3CCCCC3)CC2)n1C(C)=O (protonated)
C=c1c(=Cc2[n-]c(=O)[n-]c2[O-])cc(C(=O)[NH+]2CCN(C3CCCCC3)CC2)n1C(C)=O (3D coordinates assigned)
C=c1c(=Cc2[n-]c(=O)[n-]c2[O-])cc(C(=O)[NH+]2CCN(C3CCCCC3)CC2)n1C(C)=O (nonaromatic ring conformer: 154.15157705696592 kcal/mol)

> <smiles>
C=c1c(=Cc2[nH]c(=O)[nH]c2O)cc(C(=O)N2CCN(C3CCCCC3)CC2)n1C(C)=O

> <score_type>
oracle

> <origin>
adg

> <m_score__min__energy>
-17.18

> <m_primary>
energy

> <minimizedAffinity>
-8.10229

> <minimizedRMSD>
0.62050

> <CNNscore>
0.0857545361

> <CNNaffinity>
5.9910855293

> <CNN_VS>
0.5137627721

> <CNNaffinity_variance>
0.1772464067

$$$$
20:0


 23 25  0  0  0  0  0  0  0  0999 V2000
   60.4733   26.4060   46.7298 C   0  0  0  0  0  0  0  0  0  0  0  0
   59.9022   27.5410   46.3218 C   0  0  0  0  0  0  0  0  0  0  0  0
   60.2869   28.7122   46.7671 O   0  0  0  0  0  0  0  0  0  0  0  0
   59.5643   29.6460   46.1989 C   0  0  0  0  0  0  0  0  0  0  0  0
   58.6409   29.0785   45.3379 C   0  0  0  0  0  0  0  0  0  0  0  0
   58.8486   27.6944   45.4154 C   0  0  0  0  0  0  0  0  0  0  0  0
   58.2264   26.6923   44.7561 C   0  0  0  0  0  0  0  0  0  0  0  0
   57.5505   25.5500   45.3861 C   0  0  0  0  0  0  0  0  0  0  0  0
   58.1393   24.3588   45.5888 N   0  0  0  0  0  0  0  0  0  0  0  0
   57.2290   23.6824   46.3218 C   0  0  0  0  0  0  0  0  0  0  0  0
   57.4102   22.4955   46.6988 O   0  0  0  0  0  0  0  0  0  0  0  0
   56.1167   24.3825   46.6326 N   0  0  0  0  0  0  0  0  0  0  0  0
   56.3451   25.5691   46.0477 C   0  0  0  0  0  0  0  0  0  0  0  0
   55.4793   26.6515   46.1346 O   0  0  0  0  0  0  0  0  0  0  0  0
   57.8876   29.8960   44.3143 C   0  0  0  0  0  0  0  0  0  0  0  0
   56.9808   30.9421   44.9778 C   0  0  0  0  0  0  0  0  0  0  0  0
   57.7374   32.1921   45.3258 C   0  0  0  0  0  0  0  0  0  0  0  0
   57.9898   32.4839   46.6321 N   0  0  0  0  0  0  0  0  0  0  0  0
   58.7100   33.5777   46.9992 C   0  0  0  0  0  0  0  0  0  0  0  0
   58.9214   33.8093   48.2184 O   0  0  0  0  0  0  0  0  0  0  0  0
   59.2151   34.4407   46.0226 C   0  0  0  0  0  0  0  0  0  0  0  0
   58.9737   34.1626   44.6745 C   0  0  0  0  0  0  0  0  0  0  0  0
   58.2371   33.0307   44.3188 C   0  0  0  0  0  0  0  0  0  0  0  0
  1  2  2  0
  2  3  1  0
  3  4  1  0
  4  5  2  0
  5 15  1  0
 15 16  1  0
 16 17  1  0
 17 18  1  0
 18 19  1  0
 19 20  2  0
 19 21  1  0
 21 22  2  0
 22 23  1  0
  5  6  1  0
  6  7  2  0
  7  8  1  0
  8  9  1  0
  9 10  1  0
 10 11  2  0
 10 12  1  0
 12 13  1  0
 13 14  1  0
  6  2  1  0
 13  8  2  0
 23 17  2  0
M  CHG 1   9  -1
M  CHG 1  12  -1
M  CHG 1  14  -1
M  CHG 1  18  -1
M  END
> <UniqueID>
21

> <SMILES>
C=c1occ(CCc2cccc(=O)[n-]2)/c1=C\c1[n-]c(=O)[n-]c1[O-]

> <Energy>
101.6442530865557

> <Genealogy>
C=c1occ(CCc2cccc(=O)[n-]2)c1=Cc1[n-]c(=O)[n-]c1[O-] (protonated)
C=c1occ(CCc2cccc(=O)[n-]2)/c1=C\c1[n-]c(=O)[n-]c1[O-] (cis-trans isomerization)
C=c1occ(CCc2cccc(=O)[n-]2)/c1=C\c1[n-]c(=O)[n-]c1[O-] (3D coordinates assigned)
C=c1occ(CCc2cccc(=O)[n-]2)/c1=C\c1[n-]c(=O)[n-]c1[O-] (optimized conformer: 101.6442530865557 kcal/mol)

> <smiles>
C=c1occ(CCc2cccc(=O)[nH]2)c1=Cc1[nH]c(=O)[nH]c1O

> <score_type>
oracle

> <origin>
adg

> <m_score__min__energy>
-16.829999999999998

> <m_primary>
energy

> <minimizedAffinity>
-7.56392

> <minimizedRMSD>
0.74684

> <CNNscore>
0.1871538013

> <CNNaffinity>
5.8939681053

> <CNN_VS>
1.1030784845

> <CNNaffinity_variance>
0.0720004439

$$$$
36:0


 37 40  0  0  0  0  0  0  0  0999 V2000
   58.8714   31.4422   51.5376 C   0  0  0  0  0  0  0  0  0  0  0  0
   59.1329   30.4414   50.5907 C   0  0  0  0  0  0  0  0  0  0  0  0
   58.2561   29.3646   50.4663 O   0  0  0  0  0  0  0  0  0  0  0  0
   60.2619   30.4953   49.8201 N   0  0  0  0  0  0  0  0  0  0  0  0
   61.1739   31.5049   50.0044 C   0  0  0  0  0  0  0  0  0  0  0  0
   62.2416   31.5141   49.3286 O   0  0  0  0  0  0  0  0  0  0  0  0
   60.9418   32.4972   50.9238 N   0  0  0  0  0  0  0  0  0  0  0  0
   61.9422   33.5620   51.1247 C   0  0  0  0  0  0  0  0  0  0  0  0
   59.8197   32.4581   51.7070 C   0  0  0  0  0  0  0  0  0  0  0  0
   59.6283   33.3444   52.5875 O   0  0  0  0  0  0  0  0  0  0  0  0
   57.7185   29.9650   56.7301 C   0  0  0  0  0  0  0  0  0  0  0  0
   57.7115   30.3757   55.4689 C   0  0  0  0  0  0  0  0  0  0  0  0
   58.3439   31.3454   54.7821 N   0  0  0  0  0  0  0  0  0  0  0  0
   57.6901   30.9834   53.6607 C   0  0  0  0  0  0  0  0  0  0  0  0
   57.6647   31.4069   52.3954 C   0  0  0  0  0  0  0  0  0  0  0  0
   57.0725   29.9962   54.3430 N   0  0  0  0  0  0  0  0  0  0  0  0
   56.0664   28.9940   54.0160 C   0  0  0  0  0  0  0  0  0  0  0  0
   54.8450   29.6678   53.4608 C   0  0  0  0  0  0  0  0  0  0  0  0
   53.7847   30.0219   54.3074 C   0  0  0  0  0  0  0  0  0  0  0  0
   52.6698   30.6948   53.8006 C   0  0  0  0  0  0  0  0  0  0  0  0
   52.6016   31.0344   52.4365 C   0  0  0  0  0  0  0  0  0  0  0  0
   53.6728   30.6913   51.5939 C   0  0  0  0  0  0  0  0  0  0  0  0
   54.7870   30.0174   52.1029 C   0  0  0  0  0  0  0  0  0  0  0  0
   51.4237   31.7481   51.8946 C   0  0  0  0  0  0  0  0  0  0  0  0
   51.1943   31.7578   50.6557 O   0  0  0  0  0  0  0  0  0  0  0  0
   50.5532   32.4178   52.7470 O   0  0  0  0  0  0  0  0  0  0  0  0
   60.5192   29.4187   48.8442 C   0  0  0  0  0  0  0  0  0  0  0  0
   60.0141   29.8233   47.4847 C   0  0  0  0  0  0  0  0  0  0  0  0
   60.4894   29.2586   46.4646 O   0  0  0  0  0  0  0  0  0  0  0  0
   58.9339   30.7507   47.3216 N   0  0  0  0  0  0  0  0  0  0  0  0
   59.0109   32.0298   46.6785 C   0  0  0  0  0  0  0  0  0  0  0  0
   59.9440   32.9999   47.0827 C   0  0  0  0  0  0  0  0  0  0  0  0
   60.0171   34.2279   46.4181 C   0  0  0  0  0  0  0  0  0  0  0  0
   59.1721   34.4866   45.3340 C   0  0  0  0  0  0  0  0  0  0  0  0
   59.2432   35.6779   44.6894 F   0  0  0  0  0  0  0  0  0  0  0  0
   58.2607   33.5152   44.9109 C   0  0  0  0  0  0  0  0  0  0  0  0
   58.1867   32.2870   45.5751 C   0  0  0  0  0  0  0  0  0  0  0  0
 11 12  2  0
 12 13  1  0
 13 14  1  0
 14 15  2  0
 15  1  1  0
  1  2  2  0
  2  3  1  0
  2  4  1  0
  4 27  1  0
 27 28  1  0
 28 29  2  0
 28 30  1  0
 30 31  1  0
 31 32  2  0
 32 33  1  0
 33 34  2  0
 34 35  1  0
 34 36  1  0
 36 37  2  0
  4  5  1  0
  5  6  2  0
  5  7  1  0
  7  8  1  0
  7  9  1  0
  9 10  2  0
 14 16  1  0
 16 17  1  0
 17 18  1  0
 18 19  2  0
 19 20  1  0
 20 21  2  0
 21 24  1  0
 24 25  2  0
 24 26  1  0
 21 22  1  0
 22 23  2  0
 16 12  1  0
 23 18  1  0
  9  1  1  0
 37 31  1  0
M  CHG 1   3  -1
M  CHG 1  13  -1
M  CHG 1  26  -1
M  CHG 1  30  -1
M  END
> <UniqueID>
37

> <SMILES>
C=c1[n-]/c(=C\c2c([O-])n(CC(=O)[N-]c3ccc(F)cc3)c(=O)n(C)c2=O)n1Cc1ccc(C(=O)[O-])cc1

> <Energy>
65.35611250030989

> <Genealogy>
C=c1[n-]c(=Cc2c([O-])n(CC(=O)[N-]c3ccc(F)cc3)c(=O)n(C)c2=O)n1Cc1ccc(C(=O)[O-])cc1 (protonated)
C=c1[n-]/c(=C\c2c([O-])n(CC(=O)[N-]c3ccc(F)cc3)c(=O)n(C)c2=O)n1Cc1ccc(C(=O)[O-])cc1 (cis-trans isomerization)
C=c1[n-]/c(=C\c2c([O-])n(CC(=O)[N-]c3ccc(F)cc3)c(=O)n(C)c2=O)n1Cc1ccc(C(=O)[O-])cc1 (3D coordinates assigned)
C=c1[n-]/c(=C\c2c([O-])n(CC(=O)[N-]c3ccc(F)cc3)c(=O)n(C)c2=O)n1Cc1ccc(C(=O)[O-])cc1 (optimized conformer: 65.35611250030989 kcal/mol)

> <smiles>
C=c1[nH]c(=Cc2c(O)n(CC(=O)Nc3ccc(F)cc3)c(=O)n(C)c2=O)n1Cc1ccc(C(=O)O)cc1

> <score_type>
oracle

> <origin>
adg

> <m_score__min__energy>
-14.800000000000001

> <m_primary>
energy

> <minimizedAffinity>
-7.72425

> <minimizedRMSD>
0.95996

> <CNNscore>
0.4432381094

> <CNNaffinity>
6.4703297615

> <CNN_VS>
2.8678967953

> <CNNaffinity_variance>
0.4996645749

$$$$
40:0


 32 35  0  0  0  0  0  0  0  0999 V2000
   57.2370   28.8099   43.5451 C   0  0  0  0  0  0  0  0  0  0  0  0
   57.9083   28.5671   44.6862 C   0  0  0  0  0  0  0  0  0  0  0  0
   58.4781   27.2873   45.0151 C   0  0  0  0  0  0  0  0  0  0  0  0
   58.0888   26.1179   44.4381 C   0  0  0  0  0  0  0  0  0  0  0  0
   59.4878   27.2671   46.0399 C   0  0  0  0  0  0  0  0  0  0  0  0
   60.2440   26.0207   46.4146 C   0  0  0  0  0  0  0  0  0  0  0  0
   59.7415   28.3862   46.7759 N   0  0  0  0  0  0  0  0  0  0  0  0
   59.0659   29.5239   46.5194 C   0  0  0  0  0  0  0  0  0  0  0  0
   59.2213   30.7464   47.1255 C   0  0  0  0  0  0  0  0  0  0  0  0
   58.3667   31.5698   46.3939 C   0  0  0  0  0  0  0  0  0  0  0  0
   57.7676   30.8597   45.4106 N   0  0  0  0  0  0  0  0  0  0  0  0
   58.1950   29.6124   45.5123 N   0  0  0  0  0  0  0  0  0  0  0  0
   57.5147   24.9632   45.1605 C   0  0  0  0  0  0  0  0  0  0  0  0
   58.0087   23.7104   45.0982 N   0  0  0  0  0  0  0  0  0  0  0  0
   57.1557   22.9360   45.8032 C   0  0  0  0  0  0  0  0  0  0  0  0
   57.3564   21.4610   45.9555 C   0  0  0  0  0  0  0  0  0  0  0  0
   56.0848   23.6837   46.2905 C   0  0  0  0  0  0  0  0  0  0  0  0
   56.3319   24.9754   45.8651 C   0  0  0  0  0  0  0  0  0  0  0  0
   55.5357   26.0952   46.0904 O   0  0  0  0  0  0  0  0  0  0  0  0
   54.9133   23.1938   47.0562 C   0  0  0  0  0  0  0  0  0  0  0  0
   53.7589   23.2804   46.5623 O   0  0  0  0  0  0  0  0  0  0  0  0
   55.0615   22.6213   48.4313 C   0  0  0  0  0  0  0  0  0  0  0  0
   58.2036   33.0250   46.5975 C   0  0  0  0  0  0  0  0  0  0  0  0
   57.0547   33.5267   46.4829 O   0  0  0  0  0  0  0  0  0  0  0  0
   59.2936   33.8929   46.9505 N   0  0  0  0  0  0  0  0  0  0  0  0
   59.7909   34.1909   48.2915 C   0  0  0  0  0  0  0  0  0  0  0  0
   61.2370   33.7895   48.4238 C   0  0  0  0  0  0  0  0  0  0  0  0
   61.8699   33.8570   49.6779 C   0  0  0  0  0  0  0  0  0  0  0  0
   63.2102   33.4841   49.8137 C   0  0  0  0  0  0  0  0  0  0  0  0
   63.9300   33.0418   48.6996 C   0  0  0  0  0  0  0  0  0  0  0  0
   63.3074   32.9664   47.4497 C   0  0  0  0  0  0  0  0  0  0  0  0
   61.9631   33.3290   47.3124 C   0  0  0  0  0  0  0  0  0  0  0  0
  1  2  2  0
  2  3  1  0
  3  4  2  0
  4 13  1  0
 13 14  1  0
 14 15  1  0
 15 16  1  0
 15 17  2  0
 17 20  1  0
 20 21  2  0
 20 22  1  0
 17 18  1  0
 18 19  1  0
  3  5  1  0
  5  6  1  0
  5  7  2  0
  7  8  1  0
  8  9  2  0
  9 10  1  0
 10 23  1  0
 23 24  2  0
 23 25  1  0
 25 26  1  0
 26 27  1  0
 27 28  2  0
 28 29  1  0
 29 30  2  0
 30 31  1  0
 31 32  2  0
 10 11  2  0
 11 12  1  0
 12  2  1  0
 18 13  2  0
 12  8  1  0
 32 27  1  0
M  CHG 1  14  -1
M  CHG 1  19  -1
M  CHG 1  25  -1
M  END
> <UniqueID>
41

> <SMILES>
C=c1/c(=C\c2[n-]c(C)c(C(C)=O)c2[O-])c(C)nc2cc(C(=O)[N-]Cc3ccccc3)nn12

> <Energy>
139.302228593735

> <Genealogy>
C=c1c(=Cc2[n-]c(C)c(C(C)=O)c2[O-])c(C)nc2cc(C(=O)[N-]Cc3ccccc3)nn12 (protonated)
C=c1/c(=C\c2[n-]c(C)c(C(C)=O)c2[O-])c(C)nc2cc(C(=O)[N-]Cc3ccccc3)nn12 (cis-trans isomerization)
C=c1/c(=C\c2[n-]c(C)c(C(C)=O)c2[O-])c(C)nc2cc(C(=O)[N-]Cc3ccccc3)nn12 (3D coordinates assigned)
C=c1/c(=C\c2[n-]c(C)c(C(C)=O)c2[O-])c(C)nc2cc(C(=O)[N-]Cc3ccccc3)nn12 (optimized conformer: 139.302228593735 kcal/mol)

> <smiles>
C=c1c(=Cc2[nH]c(C)c(C(C)=O)c2O)c(C)nc2cc(C(=O)NCc3ccccc3)nn12

> <score_type>
oracle

> <origin>
adg

> <m_score__min__energy>
-14.52

> <m_primary>
energy

> <minimizedAffinity>
-8.93104

> <minimizedRMSD>
0.74450

> <CNNscore>
0.1730880439

> <CNNaffinity>
6.6368770599

> <CNN_VS>
1.1487640142

> <CNNaffinity_variance>
0.0957554653

$$$$
45:0


 26 28  0  0  0  0  0  0  0  0999 V2000
   60.4129   26.4756   46.6077 C   0  0  0  0  0  0  0  0  0  0  0  0
   59.4685   27.4028   46.3722 C   0  0  0  0  0  0  0  0  0  0  0  0
   59.6343   28.6652   46.9731 C   0  0  0  0  0  0  0  0  0  0  0  0
   58.8346   29.7510   46.6078 C   0  0  0  0  0  0  0  0  0  0  0  0
   57.8586   29.5625   45.6231 C   0  0  0  0  0  0  0  0  0  0  0  0
   57.1601   30.5287   45.2161 O   0  0  0  0  0  0  0  0  0  0  0  0
   57.6587   28.3295   45.0967 N   0  0  0  0  0  0  0  0  0  0  0  0
   58.3749   27.2292   45.4619 C   0  0  0  0  0  0  0  0  0  0  0  0
   57.9576   26.0538   44.9377 C   0  0  0  0  0  0  0  0  0  0  0  0
   57.3485   24.9192   45.6694 C   0  0  0  0  0  0  0  0  0  0  0  0
   56.0769   25.0569   46.2467 C   0  0  0  0  0  0  0  0  0  0  0  0
   55.3569   26.2365   46.0972 O   0  0  0  0  0  0  0  0  0  0  0  0
   55.5354   24.0286   46.9488 N   0  0  0  0  0  0  0  0  0  0  0  0
   56.2098   22.8650   47.1215 C   0  0  0  0  0  0  0  0  0  0  0  0
   55.6851   21.9239   47.7707 O   0  0  0  0  0  0  0  0  0  0  0  0
   57.4537   22.7159   46.5999 N   0  0  0  0  0  0  0  0  0  0  0  0
   58.0419   23.7140   45.8900 C   0  0  0  0  0  0  0  0  0  0  0  0
   59.2102   23.5507   45.4479 O   0  0  0  0  0  0  0  0  0  0  0  0
   59.0462   31.0400   47.2116 N   0  0  0  0  0  0  0  0  0  0  0  0
   59.0596   31.1816   48.6697 C   0  0  0  0  0  0  0  0  0  0  0  0
   60.1727   32.1477   49.1277 C   0  0  0  0  0  0  0  0  0  0  0  0
   60.5169   33.2051   48.1357 N   0  0  0  0  0  0  0  0  0  0  0  0
   61.7747   32.8932   47.4293 C   0  0  0  0  0  0  0  0  0  0  0  0
   59.4148   33.4841   47.1867 C   0  0  0  0  0  0  0  0  0  0  0  0
   59.0408   32.2393   46.3685 C   0  0  0  0  0  0  0  0  0  0  0  0
   60.6610   34.0636   48.6673 H   0  0  0  0  0  0  0  0  0  0  0  0
  1  2  2  0
  2  3  1  0
  3  4  2  0
  4 19  1  0
 19 20  1  0
 20 21  1  0
 21 22  1  0
 22 23  1  0
 22 24  1  0
 24 25  1  0
  4  5  1  0
  5  6  2  0
  5  7  1  0
  7  8  1  0
  8  9  2  0
  9 10  1  0
 10 11  2  0
 11 12  1  0
 11 13  1  0
 13 14  1  0
 14 15  2  0
 14 16  1  0
 16 17  1  0
 17 18  2  0
  8  2  1  0
 17 10  1  0
 25 19  1  0
 22 26  1  0
M  CHG 1   7  -1
M  CHG 1  12  -1
M  CHG 1  13  -1
M  CHG 1  16  -1
M  CHG 1  22   1
M  END
> <UniqueID>
46

> <SMILES>
C=c1cc(N2CC[NH+](C)CC2)c(=O)[n-]c1=Cc1c([O-])[n-]c(=O)[n-]c1=O

> <Energy>
79.18965744695498

> <Genealogy>
C=c1cc(N2CC[NH+](C)CC2)c(=O)[n-]c1=Cc1c([O-])[n-]c(=O)[n-]c1=O (protonated)
C=c1cc(N2CC[NH+](C)CC2)c(=O)[n-]c1=Cc1c([O-])[n-]c(=O)[n-]c1=O (3D coordinates assigned)
C=c1cc(N2CC[NH+](C)CC2)c(=O)[n-]c1=Cc1c([O-])[n-]c(=O)[n-]c1=O (nonaromatic ring conformer: 79.18965744695498 kcal/mol)

> <smiles>
C=c1cc(N2CCN(C)CC2)c(=O)[nH]c1=Cc1c(O)[nH]c(=O)[nH]c1=O

> <score_type>
oracle

> <origin>
adg

> <m_score__min__energy>
-15.18

> <m_primary>
energy

> <minimizedAffinity>
-8.74755

> <minimizedRMSD>
1.72856

> <CNNscore>
0.2399113625

> <CNNaffinity>
6.3199744225

> <CNN_VS>
1.5162336826

> <CNNaffinity_variance>
0.4494320154

$$$$
49:0


 37 41  0  0  0  0  0  0  0  0999 V2000
   58.5272   31.0502   54.4444 C   0  0  0  0  0  0  0  0  0  0  0  0
   58.4773   32.1874   55.2663 C   0  0  0  0  0  0  0  0  0  0  0  0
   59.3233   33.2716   55.0187 C   0  0  0  0  0  0  0  0  0  0  0  0
   60.2042   33.2412   53.9339 C   0  0  0  0  0  0  0  0  0  0  0  0
   60.2391   32.1258   53.0824 C   0  0  0  0  0  0  0  0  0  0  0  0
   59.4168   31.0241   53.3577 C   0  0  0  0  0  0  0  0  0  0  0  0
   61.1423   32.1104   51.9129 C   0  0  0  0  0  0  0  0  0  0  0  0
   62.2581   32.6909   51.9982 O   0  0  0  0  0  0  0  0  0  0  0  0
   60.7602   31.4725   50.6779 N   0  0  0  0  0  0  0  0  0  0  0  0
   61.7784   30.9261   49.7770 C   0  0  0  0  0  0  0  0  0  0  0  0
   61.6239   31.5861   48.4074 C   0  0  0  0  0  0  0  0  0  0  0  0
   60.2727   31.3797   47.8286 N   0  0  0  0  0  0  0  0  0  0  0  0
   59.2102   30.9797   48.7888 C   0  0  0  0  0  0  0  0  0  0  0  0
   59.3808   31.6069   50.1850 C   0  0  0  0  0  0  0  0  0  0  0  0
   59.9071   32.4299   46.8414 C   0  0  0  0  0  0  0  0  0  0  0  0
   58.5245   32.1521   46.2145 C   0  0  0  0  0  0  0  0  0  0  0  0
   57.9275   33.4271   45.5915 C   0  0  0  0  0  0  0  0  0  0  0  0
   58.9534   34.3084   45.1800 O   0  0  0  0  0  0  0  0  0  0  0  0
   59.5831   34.8954   46.3095 C   0  0  0  0  0  0  0  0  0  0  0  0
   59.9740   33.8678   47.4005 C   0  0  0  0  0  0  0  0  0  0  0  0
   57.5783   29.9047   54.6722 C   0  0  0  0  0  0  0  0  0  0  0  0
   52.7637   29.2811   53.9465 N   0  0  0  0  0  0  0  0  0  0  0  0
   53.9217   29.7648   53.5874 C   0  0  0  0  0  0  0  0  0  0  0  0
   55.0921   29.6096   54.3601 C   0  0  0  0  0  0  0  0  0  0  0  0
   56.3093   30.1277   53.8923 C   0  0  0  0  0  0  0  0  0  0  0  0
   56.3467   30.7764   52.6519 C   0  0  0  0  0  0  0  0  0  0  0  0
   55.1722   30.9074   51.9104 C   0  0  0  0  0  0  0  0  0  0  0  0
   54.0052   30.4002   52.3871 N   0  0  0  0  0  0  0  0  0  0  0  0
   51.0524   28.6580   52.4670 O   0  0  0  0  0  0  0  0  0  0  0  0
   51.4818   29.4724   53.3273 C   0  0  0  0  0  0  0  0  0  0  0  0
   50.6183   30.5804   53.7593 C   0  0  0  0  0  0  0  0  0  0  0  0
   49.7765   30.5068   54.8050 N   0  0  0  0  0  0  0  0  0  0  0  0
   49.1797   31.7175   54.8113 C   0  0  0  0  0  0  0  0  0  0  0  0
   48.3043   32.0377   55.6557 O   0  0  0  0  0  0  0  0  0  0  0  0
   49.5862   32.5551   53.8333 N   0  0  0  0  0  0  0  0  0  0  0  0
   50.4938   31.8203   53.1734 C   0  0  0  0  0  0  0  0  0  0  0  0
   51.1925   32.2757   52.0623 O   0  0  0  0  0  0  0  0  0  0  0  0
 29 30  2  0
 30 22  1  0
 22 23  2  0
 23 24  1  0
 24 25  2  0
 25 21  1  0
 21  1  1  0
  1  2  2  0
  2  3  1  0
  3  4  2  0
  4  5  1  0
  5  7  1  0
  7  8  2  0
  7  9  1  0
  9 10  1  0
 10 11  1  0
 11 12  1  0
 12 15  1  0
 15 16  1  0
 16 17  1  0
 17 18  1  0
 18 19  1  0
 19 20  1  0
 12 13  1  0
 13 14  1  0
  5  6  2  0
 25 26  1  0
 26 27  2  0
 27 28  1  0
 30 31  1  0
 31 32  1  0
 32 33  1  0
 33 34  2  0
 33 35  1  0
 35 36  1  0
 36 37  1  0
 28 23  1  0
 36 31  2  0
  6  1  1  0
 14  9  1  0
 20 15  1  0
M  CHG 1  28  -1
M  CHG 1  32  -1
M  CHG 1  35  -1
M  CHG 1  37  -1
M  END
> <UniqueID>
50

> <SMILES>
O=C(N=c1cc(Cc2cccc(C(=O)N3CCN(C4CCOCC4)CC3)c2)cc[n-]1)c1[n-]c(=O)[n-]c1[O-]

> <Energy>
123.04648456867167

> <Genealogy>
O=C(N=c1cc(Cc2cccc(C(=O)N3CCN(C4CCOCC4)CC3)c2)cc[n-]1)c1[n-]c(=O)[n-]c1[O-] (protonated)
O=C(N=c1cc(Cc2cccc(C(=O)N3CCN(C4CCOCC4)CC3)c2)cc[n-]1)c1[n-]c(=O)[n-]c1[O-] (3D coordinates assigned)
O=C(N=c1cc(Cc2cccc(C(=O)N3CCN(C4CCOCC4)CC3)c2)cc[n-]1)c1[n-]c(=O)[n-]c1[O-] (nonaromatic ring conformer: 123.04648456867167 kcal/mol)

> <smiles>
O=C(N=c1cc(Cc2cccc(C(=O)N3CCN(C4CCOCC4)CC3)c2)cc[nH]1)c1[nH]c(=O)[nH]c1O

> <score_type>
oracle

> <origin>
adg

> <m_score__min__energy>
-20.109999999999999

> <m_primary>
energy

> <minimizedAffinity>
-8.56879

> <minimizedRMSD>
2.07755

> <CNNscore>
0.1072976962

> <CNNaffinity>
5.2154808044

> <CNN_VS>
0.5596090555

> <CNNaffinity_variance>
0.9713246226

$$$$
50:0


 31 34  0  0  0  0  0  0  0  0999 V2000
   58.2849   27.5426   46.5644 C   0  0  0  0  0  0  0  0  0  0  0  0
   57.9897   28.5798   45.7676 C   0  0  0  0  0  0  0  0  0  0  0  0
   58.4389   29.8865   45.8970 C   0  0  0  0  0  0  0  0  0  0  0  0
   57.9122   30.5865   44.8270 C   0  0  0  0  0  0  0  0  0  0  0  0
   57.1469   29.6816   44.1019 C   0  0  0  0  0  0  0  0  0  0  0  0
   56.3969   29.9491   43.0312 C   0  0  0  0  0  0  0  0  0  0  0  0
   57.2148   28.4609   44.6681 N   0  0  0  0  0  0  0  0  0  0  0  0
   56.7820   27.6389   44.3423 H   0  0  0  0  0  0  0  0  0  0  0  0
   55.4012   26.5072   46.1093 O   0  0  0  0  0  0  0  0  0  0  0  0
   56.5465   25.7178   46.1164 C   0  0  0  0  0  0  0  0  0  0  0  0
   56.5446   24.3991   45.8600 N   0  0  0  0  0  0  0  0  0  0  0  0
   57.8577   24.0864   45.9093 C   0  0  0  0  0  0  0  0  0  0  0  0
   58.2834   22.9173   45.7123 O   0  0  0  0  0  0  0  0  0  0  0  0
   58.6780   25.1247   46.1762 N   0  0  0  0  0  0  0  0  0  0  0  0
   57.8336   26.1583   46.3314 C   0  0  0  0  0  0  0  0  0  0  0  0
   54.5639   26.1166   45.9532 H   0  0  0  0  0  0  0  0  0  0  0  0
   58.1461   32.0203   44.5576 C   0  0  0  0  0  0  0  0  0  0  0  0
   58.0137   32.4374   43.3744 O   0  0  0  0  0  0  0  0  0  0  0  0
   58.4940   32.9462   45.6063 N   0  0  0  0  0  0  0  0  0  0  0  0
   57.8816   32.8409   46.9364 C   0  0  0  0  0  0  0  0  0  0  0  0
   58.9033   33.1961   48.0325 C   0  0  0  0  0  0  0  0  0  0  0  0
   59.8264   34.3108   47.6793 N   0  0  0  0  0  0  0  0  0  0  0  0
   59.3996   35.0772   46.4892 C   0  0  0  0  0  0  0  0  0  0  0  0
   59.2285   34.1684   45.2627 C   0  0  0  0  0  0  0  0  0  0  0  0
   61.2343   33.8741   47.5750 C   0  0  0  0  0  0  0  0  0  0  0  0
   61.5296   32.7896   48.5779 C   0  0  0  0  0  0  0  0  0  0  0  0
   62.0503   33.1075   49.8448 C   0  0  0  0  0  0  0  0  0  0  0  0
   62.3318   32.0911   50.7639 C   0  0  0  0  0  0  0  0  0  0  0  0
   62.0962   30.7562   50.4269 C   0  0  0  0  0  0  0  0  0  0  0  0
   61.5791   30.4336   49.1699 C   0  0  0  0  0  0  0  0  0  0  0  0
   61.2972   31.4448   48.2470 C   0  0  0  0  0  0  0  0  0  0  0  0
  9 10  1  0
 10 11  1  0
 11 12  1  0
 12 13  2  0
 12 14  1  0
 14 15  1  0
 15  1  1  0
  1  2  2  0
  2  3  1  0
  3  4  2  0
  4 17  1  0
 17 18  2  0
 17 19  1  0
 19 20  1  0
 20 21  1  0
 21 22  1  0
 22 25  1  0
 25 26  1  0
 26 27  2  0
 27 28  1  0
 28 29  2  0
 29 30  1  0
 30 31  2  0
 22 23  1  0
 23 24  1  0
  4  5  1  0
  5  6  2  0
  5  7  1  0
 15 10  2  0
  7  2  1  0
 24 19  1  0
 31 26  1  0
  9 16  1  0
  7  8  1  0
M  CHG 1  11  -1
M  CHG 1  14  -1
M  END
> <UniqueID>
51

> <SMILES>
C=c1[nH]/c(=C/c2[n-]c(=O)[n-]c2O)cc1C(=O)N1CCN(Cc2ccccc2)CC1

> <Energy>
126.18951195806882

> <Genealogy>
C=c1[nH]c(=Cc2[n-]c(=O)[n-]c2O)cc1C(=O)N1CCN(Cc2ccccc2)CC1 (protonated)
C=c1[nH]/c(=C/c2[n-]c(=O)[n-]c2O)cc1C(=O)N1CCN(Cc2ccccc2)CC1 (cis-trans isomerization)
C=c1[nH]/c(=C/c2[n-]c(=O)[n-]c2O)cc1C(=O)N1CCN(Cc2ccccc2)CC1 (3D coordinates assigned)
C=c1[nH]/c(=C/c2[n-]c(=O)[n-]c2O)cc1C(=O)N1CCN(Cc2ccccc2)CC1 (nonaromatic ring conformer: 126.18951195806882 kcal/mol)

> <smiles>
C=c1[nH]c(=Cc2[nH]c(=O)[nH]c2O)cc1C(=O)N1CCN(Cc2ccccc2)CC1

> <score_type>
oracle

> <origin>
adg

> <m_score__min__energy>
-15.050000000000001

> <m_primary>
energy

> <minimizedAffinity>
-9.78899

> <minimizedRMSD>
0.77352

> <CNNscore>
0.2844301760

> <CNNaffinity>
6.4598202705

> <CNN_VS>
1.8373677731

> <CNNaffinity_variance>
0.2984176576

$$$$
65:0


 26 28  0  0  0  0  0  0  0  0999 V2000
   59.7365   29.5539   47.8040 C   0  0  0  0  0  0  0  0  0  0  0  0
   59.2061   29.2925   49.0721 C   0  0  0  0  0  0  0  0  0  0  0  0
   59.0550   30.3259   50.0014 C   0  0  0  0  0  0  0  0  0  0  0  0
   59.4205   31.6306   49.6621 C   0  0  0  0  0  0  0  0  0  0  0  0
   59.9308   31.9115   48.3881 C   0  0  0  0  0  0  0  0  0  0  0  0
   60.0673   30.8733   47.4552 C   0  0  0  0  0  0  0  0  0  0  0  0
   60.4064   33.5563   47.9624 S   0  0  0  0  0  0  0  0  0  0  0  0
   60.8710   34.2727   49.2013 O   0  0  0  0  0  0  0  0  0  0  0  0
   61.5591   33.5034   46.9994 O   0  0  0  0  0  0  0  0  0  0  0  0
   59.0838   34.4555   47.2465 N   0  0  0  0  0  0  0  0  0  0  0  0
   57.9765   33.5665   46.8841 C   0  0  0  0  0  0  0  0  0  0  0  0
   58.0940   33.2398   45.4047 C   0  0  0  0  0  0  0  0  0  0  0  0
   59.0105   34.2977   44.8242 C   0  0  0  0  0  0  0  0  0  0  0  0
   59.4995   35.1219   46.0084 C   0  0  0  0  0  0  0  0  0  0  0  0
   59.8434   28.4821   46.8598 N   0  0  0  0  0  0  0  0  0  0  0  0
   60.5955   26.7535   48.2041 O   0  0  0  0  0  0  0  0  0  0  0  0
   59.9748   27.0866   47.1598 C   0  0  0  0  0  0  0  0  0  0  0  0
   59.5681   26.0225   46.1708 C   0  0  0  0  0  0  0  0  0  0  0  0
   58.1216   25.6488   46.3209 C   0  0  0  0  0  0  0  0  0  0  0  0
   57.6325   24.4708   46.8438 C   0  0  0  0  0  0  0  0  0  0  0  0
   56.2592   24.6077   46.8307 C   0  0  0  0  0  0  0  0  0  0  0  0
   55.3691   23.6403   47.2727 O   0  0  0  0  0  0  0  0  0  0  0  0
   55.8679   25.8012   46.3407 N   0  0  0  0  0  0  0  0  0  0  0  0
   57.0199   26.4325   46.0373 C   0  0  0  0  0  0  0  0  0  0  0  0
   57.0679   27.7172   45.5073 O   0  0  0  0  0  0  0  0  0  0  0  0
   56.2736   28.1860   45.3424 H   0  0  0  0  0  0  0  0  0  0  0  0
 16 17  2  0
 17 18  1  0
 18 19  1  0
 19 20  1  0
 20 21  2  0
 21 22  1  0
 21 23  1  0
 23 24  1  0
 24 25  1  0
 17 15  1  0
 15  1  1  0
  1  2  2  0
  2  3  1  0
  3  4  2  0
  4  5  1  0
  5  7  1  0
  7  8  2  0
  7  9  2  0
  7 10  1  0
 10 11  1  0
 11 12  1  0
 12 13  1  0
 13 14  1  0
  5  6  2  0
 24 19  2  0
  6  1  1  0
 14 10  1  0
 25 26  1  0
M  CHG 1  15  -1
M  CHG 1  22  -1
M  CHG 1  23  -1
M  END
> <UniqueID>
66

> <SMILES>
O=C(Cc1cc([O-])[n-]c1O)[N-]c1cccc(S(=O)(=O)N2CCCC2)c1

> <Energy>
70.65103455002134

> <Genealogy>
O=C(Cc1cc([O-])[n-]c1O)[N-]c1cccc(S(=O)(=O)N2CCCC2)c1 (protonated)
O=C(Cc1cc([O-])[n-]c1O)[N-]c1cccc(S(=O)(=O)N2CCCC2)c1 (3D coordinates assigned)
O=C(Cc1cc([O-])[n-]c1O)[N-]c1cccc(S(=O)(=O)N2CCCC2)c1 (nonaromatic ring conformer: 70.65103455002134 kcal/mol)

> <smiles>
O=C(Cc1cc(O)[nH]c1O)Nc1cccc(S(=O)(=O)N2CCCC2)c1

> <score_type>
oracle

> <origin>
adg

> <m_score__min__energy>
-16.75

> <m_primary>
energy

> <minimizedAffinity>
-7.87935

> <minimizedRMSD>
1.34749

> <CNNscore>
0.5701187849

> <CNNaffinity>
6.3066387177

> <CNN_VS>
3.5955331326

> <CNNaffinity_variance>
0.0393019989

$$$$
67:0


 36 40  0  0  0  0  0  0  0  0999 V2000
   57.8278   31.1407   52.3754 C   0  0  0  0  0  0  0  0  0  0  0  0
   56.8238   31.8189   52.7311 O   0  0  0  0  0  0  0  0  0  0  0  0
   59.0471   31.8177   52.0075 N   0  0  0  0  0  0  0  0  0  0  0  0
   60.3483   31.1666   52.2199 C   0  0  0  0  0  0  0  0  0  0  0  0
   61.5008   32.1485   51.9741 C   0  0  0  0  0  0  0  0  0  0  0  0
   61.3351   32.8630   50.6914 N   0  0  0  0  0  0  0  0  0  0  0  0
   60.0347   33.5818   50.5719 C   0  0  0  0  0  0  0  0  0  0  0  0
   59.0150   33.2488   51.6787 C   0  0  0  0  0  0  0  0  0  0  0  0
   57.7362   29.6364   52.3988 C   0  0  0  0  0  0  0  0  0  0  0  0
   52.9248   29.0533   53.2864 C   0  0  0  0  0  0  0  0  0  0  0  0
   54.2645   28.9695   53.4035 C   0  0  0  0  0  0  0  0  0  0  0  0
   55.1967   29.5643   52.5667 C   0  0  0  0  0  0  0  0  0  0  0  0
   56.4431   29.1835   53.0238 C   0  0  0  0  0  0  0  0  0  0  0  0
   56.3248   28.3989   54.1216 N   0  0  0  0  0  0  0  0  0  0  0  0
   57.4198   27.7841   54.8798 C   0  0  0  0  0  0  0  0  0  0  0  0
   54.9938   28.2365   54.3444 C   0  0  0  0  0  0  0  0  0  0  0  0
   54.4829   27.4752   55.3249 C   0  0  0  0  0  0  0  0  0  0  0  0
   52.7604   29.8189   50.2651 O   0  0  0  0  0  0  0  0  0  0  0  0
   52.1692   30.5138   51.3190 C   0  0  0  0  0  0  0  0  0  0  0  0
   51.4801   31.6545   51.1515 N   0  0  0  0  0  0  0  0  0  0  0  0
   51.1621   32.0029   52.4155 C   0  0  0  0  0  0  0  0  0  0  0  0
   50.5096   33.0427   52.6887 O   0  0  0  0  0  0  0  0  0  0  0  0
   51.6093   31.1522   53.3666 N   0  0  0  0  0  0  0  0  0  0  0  0
   52.2320   30.1934   52.6601 C   0  0  0  0  0  0  0  0  0  0  0  0
   52.6551   30.1238   49.3854 H   0  0  0  0  0  0  0  0  0  0  0  0
   61.5979   31.9802   49.5322 C   0  0  0  0  0  0  0  0  0  0  0  0
   60.8427   32.4622   48.3218 C   0  0  0  0  0  0  0  0  0  0  0  0
   61.0794   33.7454   47.7986 C   0  0  0  0  0  0  0  0  0  0  0  0
   60.3785   34.1904   46.6728 C   0  0  0  0  0  0  0  0  0  0  0  0
   59.4346   33.3571   46.0592 C   0  0  0  0  0  0  0  0  0  0  0  0
   58.7157   33.7760   44.9322 C   0  0  0  0  0  0  0  0  0  0  0  0
   57.7818   32.9188   44.3461 C   0  0  0  0  0  0  0  0  0  0  0  0
   57.5750   31.6486   44.8909 C   0  0  0  0  0  0  0  0  0  0  0  0
   58.2794   31.2523   45.9850 N   0  0  0  0  0  0  0  0  0  0  0  0
   59.1952   32.0645   46.5794 C   0  0  0  0  0  0  0  0  0  0  0  0
   59.9004   31.6254   47.7049 C   0  0  0  0  0  0  0  0  0  0  0  0
 18 19  1  0
 19 20  1  0
 20 21  1  0
 21 22  2  0
 21 23  1  0
 23 24  1  0
 24 10  1  0
 10 11  2  0
 11 12  1  0
 12 13  2  0
 13  9  1  0
  9  1  1  0
  1  2  2  0
  1  3  1  0
  3  4  1  0
  4  5  1  0
  5  6  1  0
  6 26  1  0
 26 27  1  0
 27 28  2  0
 28 29  1  0
 29 30  2  0
 30 31  1  0
 31 32  2  0
 32 33  1  0
 33 34  2  0
 34 35  1  0
 35 36  2  0
  6  7  1  0
  7  8  1  0
 13 14  1  0
 14 15  1  0
 14 16  1  0
 16 17  2  0
 24 19  2  0
 16 11  1  0
  8  3  1  0
 36 27  1  0
 35 30  1  0
 18 25  1  0
M  CHG 1  20  -1
M  CHG 1  23  -1
M  END
> <UniqueID>
68

> <SMILES>
C=c1/c(=C/c2[n-]c(=O)[n-]c2O)cc(CC(=O)N2CCN(Cc3ccc4cccnc4c3)CC2)n1C

> <Energy>
142.62406995008706

> <Genealogy>
C=c1c(=Cc2[n-]c(=O)[n-]c2O)cc(CC(=O)N2CCN(Cc3ccc4cccnc4c3)CC2)n1C (protonated)
C=c1/c(=C/c2[n-]c(=O)[n-]c2O)cc(CC(=O)N2CCN(Cc3ccc4cccnc4c3)CC2)n1C (cis-trans isomerization)
C=c1/c(=C/c2[n-]c(=O)[n-]c2O)cc(CC(=O)N2CCN(Cc3ccc4cccnc4c3)CC2)n1C (3D coordinates assigned)
C=c1/c(=C/c2[n-]c(=O)[n-]c2O)cc(CC(=O)N2CCN(Cc3ccc4cccnc4c3)CC2)n1C (nonaromatic ring conformer: 142.62406995008706 kcal/mol)

> <smiles>
C=c1c(=Cc2[nH]c(=O)[nH]c2O)cc(CC(=O)N2CCN(Cc3ccc4cccnc4c3)CC2)n1C

> <score_type>
oracle

> <origin>
adg

> <m_score__min__energy>
-15.25

> <m_primary>
energy

> <minimizedAffinity>
-9.38510

> <minimizedRMSD>
0.90083

> <CNNscore>
0.1687762588

> <CNNaffinity>
5.7586932182

> <CNN_VS>
0.9719306827

> <CNNaffinity_variance>
0.6647140384

$$$$
74:0


 30 33  0  0  0  0  0  0  0  0999 V2000
   57.8814   30.1034   45.2699 C   0  0  0  0  0  0  0  0  0  0  0  0
   58.6092   30.1411   46.4689 C   0  0  0  0  0  0  0  0  0  0  0  0
   59.0650   31.3592   46.9800 C   0  0  0  0  0  0  0  0  0  0  0  0
   58.8077   32.5582   46.2942 C   0  0  0  0  0  0  0  0  0  0  0  0
   58.0635   32.5208   45.1044 C   0  0  0  0  0  0  0  0  0  0  0  0
   57.6068   31.3016   44.5934 C   0  0  0  0  0  0  0  0  0  0  0  0
   57.3721   28.7960   44.7198 C   0  0  0  0  0  0  0  0  0  0  0  0
   58.1707   26.9582   43.3538 C   0  0  0  0  0  0  0  0  0  0  0  0
   58.4921   27.8615   44.4769 N   0  0  0  0  0  0  0  0  0  0  0  0
   58.7828   27.0797   45.6983 C   0  0  0  0  0  0  0  0  0  0  0  0
   57.7624   25.9825   45.8830 C   0  0  0  0  0  0  0  0  0  0  0  0
   56.4128   26.3093   46.0693 C   0  0  0  0  0  0  0  0  0  0  0  0
   55.4908   25.3294   46.2513 N   0  0  0  0  0  0  0  0  0  0  0  0
   55.8536   24.0213   46.2587 C   0  0  0  0  0  0  0  0  0  0  0  0
   54.9838   23.1294   46.4272 O   0  0  0  0  0  0  0  0  0  0  0  0
   57.1558   23.6765   46.0850 N   0  0  0  0  0  0  0  0  0  0  0  0
   58.1142   24.6202   45.9003 C   0  0  0  0  0  0  0  0  0  0  0  0
   59.3135   24.2613   45.7491 O   0  0  0  0  0  0  0  0  0  0  0  0
   59.2920   33.8763   46.8462 C   0  0  0  0  0  0  0  0  0  0  0  0
   59.9836   33.6943   48.1755 C   0  0  0  0  0  0  0  0  0  0  0  0
   59.2271   33.7955   49.3022 N   0  0  0  0  0  0  0  0  0  0  0  0
   59.7480   33.6790   50.5224 N   0  0  0  0  0  0  0  0  0  0  0  0
   61.0698   33.4574   50.7147 C   0  0  0  0  0  0  0  0  0  0  0  0
   61.5132   33.3562   51.8920 O   0  0  0  0  0  0  0  0  0  0  0  0
   61.9245   33.3460   49.6064 C   0  0  0  0  0  0  0  0  0  0  0  0
   63.3043   33.1206   49.7642 C   0  0  0  0  0  0  0  0  0  0  0  0
   64.1330   33.0156   48.6477 C   0  0  0  0  0  0  0  0  0  0  0  0
   63.5994   33.1301   47.3648 C   0  0  0  0  0  0  0  0  0  0  0  0
   62.2319   33.3520   47.1886 C   0  0  0  0  0  0  0  0  0  0  0  0
   61.3755   33.4654   48.3040 C   0  0  0  0  0  0  0  0  0  0  0  0
  8  9  1  0
  9  7  1  0
  7  1  1  0
  1  2  2  0
  2  3  1  0
  3  4  2  0
  4 19  1  0
 19 20  1  0
 20 21  2  0
 21 22  1  0
 22 23  1  0
 23 24  2  0
 23 25  1  0
 25 26  2  0
 26 27  1  0
 27 28  2  0
 28 29  1  0
 29 30  2  0
  4  5  1  0
  5  6  2  0
  9 10  1  0
 10 11  1  0
 11 12  2  0
 12 13  1  0
 13 14  1  0
 14 15  2  0
 14 16  1  0
 16 17  1  0
 17 18  2  0
  6  1  1  0
 17 11  1  0
 30 20  1  0
 30 25  1  0
M  CHG 1  13  -1
M  CHG 1  16  -1
M  CHG 1  22  -1
M  END
> <UniqueID>
75

> <SMILES>
CN(Cc1ccc(Cc2n[n-]c(=O)c3ccccc23)cc1)Cc1c[n-]c(=O)[n-]c1=O

> <Energy>
62.634212865939354

> <Genealogy>
CN(Cc1ccc(Cc2n[n-]c(=O)c3ccccc23)cc1)Cc1c[n-]c(=O)[n-]c1=O (protonated)
CN(Cc1ccc(Cc2n[n-]c(=O)c3ccccc23)cc1)Cc1c[n-]c(=O)[n-]c1=O (3D coordinates assigned)
CN(Cc1ccc(Cc2n[n-]c(=O)c3ccccc23)cc1)Cc1c[n-]c(=O)[n-]c1=O (optimized conformer: 62.634212865939354 kcal/mol)

> <smiles>
CN(Cc1ccc(Cc2n[nH]c(=O)c3ccccc23)cc1)Cc1c[nH]c(=O)[nH]c1=O

> <score_type>
oracle

> <origin>
adg

> <m_score__min__energy>
-14.65

> <m_primary>
energy

> <minimizedAffinity>
-8.34732

> <minimizedRMSD>
1.02970

> <CNNscore>
0.4701004028

> <CNNaffinity>
6.8331723213

> <CNN_VS>
3.2122771740

> <CNNaffinity_variance>
0.1112076566

$$$$
80:0


 29 32  0  0  0  0  0  0  0  0999 V2000
   58.9767   29.8020   45.7875 N   0  0  0  0  0  0  0  0  0  0  0  0
   59.9647   28.9435   46.1271 C   0  0  0  0  0  0  0  0  0  0  0  0
   61.2546   29.3317   46.7861 C   0  0  0  0  0  0  0  0  0  0  0  0
   59.6393   27.6588   45.7446 C   0  0  0  0  0  0  0  0  0  0  0  0
   58.3816   27.7225   45.1589 C   0  0  0  0  0  0  0  0  0  0  0  0
   57.7000   26.6967   44.6133 C   0  0  0  0  0  0  0  0  0  0  0  0
   58.0018   29.0694   45.1933 C   0  0  0  0  0  0  0  0  0  0  0  0
   56.8661   29.5894   44.7015 C   0  0  0  0  0  0  0  0  0  0  0  0
   58.8789   35.3644   46.7517 O   0  0  0  0  0  0  0  0  0  0  0  0
   58.9587   33.9876   46.5299 C   0  0  0  0  0  0  0  0  0  0  0  0
   58.3144   33.4629   45.4037 C   0  0  0  0  0  0  0  0  0  0  0  0
   58.3163   32.0899   45.1596 C   0  0  0  0  0  0  0  0  0  0  0  0
   58.9717   31.2185   46.0383 C   0  0  0  0  0  0  0  0  0  0  0  0
   59.6377   31.7383   47.1553 C   0  0  0  0  0  0  0  0  0  0  0  0
   59.6380   33.1178   47.4159 C   0  0  0  0  0  0  0  0  0  0  0  0
   58.4208   35.9110   46.1440 H   0  0  0  0  0  0  0  0  0  0  0  0
   60.3689   33.6199   48.5948 C   0  0  0  0  0  0  0  0  0  0  0  0
   59.7500   34.2165   49.5149 O   0  0  0  0  0  0  0  0  0  0  0  0
   61.7846   33.4499   48.6966 N   0  0  0  0  0  0  0  0  0  0  0  0
   62.8422   33.7906   49.6643 C   0  0  0  0  0  0  0  0  0  0  0  0
   63.9499   33.1032   48.9372 C   0  0  0  0  0  0  0  0  0  0  0  0
   62.8680   32.7681   47.9646 C   0  0  0  0  0  0  0  0  0  0  0  0
   57.3805   25.4468   45.3267 C   0  0  0  0  0  0  0  0  0  0  0  0
   58.1889   24.3720   45.3266 N   0  0  0  0  0  0  0  0  0  0  0  0
   57.4818   23.4482   46.0142 C   0  0  0  0  0  0  0  0  0  0  0  0
   57.9208   22.2902   46.2418 O   0  0  0  0  0  0  0  0  0  0  0  0
   56.2653   23.8589   46.4300 N   0  0  0  0  0  0  0  0  0  0  0  0
   56.2101   25.1222   45.9767 C   0  0  0  0  0  0  0  0  0  0  0  0
   55.0944   25.9379   46.1138 O   0  0  0  0  0  0  0  0  0  0  0  0
  9 10  1  0
 10 11  2  0
 11 12  1  0
 12 13  2  0
 13  1  1  0
  1  2  1  0
  2  3  1  0
  2  4  2  0
  4  5  1  0
  5  6  2  0
  6 23  1  0
 23 24  1  0
 24 25  1  0
 25 26  2  0
 25 27  1  0
 27 28  1  0
 28 29  1  0
  5  7  1  0
  7  8  2  0
 13 14  1  0
 14 15  2  0
 15 17  1  0
 17 18  2  0
 17 19  1  0
 19 20  1  0
 20 21  1  0
 21 22  1  0
 15 10  1  0
 22 19  1  0
  7  1  1  0
 28 23  2  0
  9 16  1  0
M  CHG 1  24  -1
M  CHG 1  27  -1
M  CHG 1  29  -1
M  END
> <UniqueID>
80

> <SMILES>
C=c1/c(=C/c2[n-]c(=O)[n-]c2[O-])cc(C)n1-c1ccc(O)c(C(=O)N2CCC2)c1

> <Energy>
167.1614384220502

> <Genealogy>
C=c1c(=Cc2[n-]c(=O)[n-]c2[O-])cc(C)n1-c1ccc(O)c(C(=O)N2CCC2)c1 (protonated)
C=c1/c(=C/c2[n-]c(=O)[n-]c2[O-])cc(C)n1-c1ccc(O)c(C(=O)N2CCC2)c1 (cis-trans isomerization)
C=c1/c(=C/c2[n-]c(=O)[n-]c2[O-])cc(C)n1-c1ccc(O)c(C(=O)N2CCC2)c1 (3D coordinates assigned)
C=c1/c(=C/c2[n-]c(=O)[n-]c2[O-])cc(C)n1-c1ccc(O)c(C(=O)N2CCC2)c1 (nonaromatic ring conformer: 167.1614384220502 kcal/mol)

> <smiles>
C=c1c(=Cc2[nH]c(=O)[nH]c2O)cc(C)n1-c1ccc(O)c(C(=O)N2CCC2)c1

> <score_type>
oracle

> <origin>
adg

> <m_score__min__energy>
-15.630000000000001

> <m_primary>
energy

> <minimizedAffinity>
-8.42914

> <minimizedRMSD>
0.79210

> <CNNscore>
0.1736654788

> <CNNaffinity>
6.5971150398

> <CNN_VS>
1.1456911564

> <CNNaffinity_variance>
0.0876297951

$$$$
84:0


 36 39  0  0  0  0  0  0  0  0999 V2000
   59.5475   30.2501   48.2386 C   0  0  0  0  0  0  0  0  0  0  0  0
   59.4223   30.2069   46.8939 C   0  0  0  0  0  0  0  0  0  0  0  0
   59.5024   29.0530   46.1033 C   0  0  0  0  0  0  0  0  0  0  0  0
   59.5804   27.7696   46.5115 C   0  0  0  0  0  0  0  0  0  0  0  0
   59.2037   29.4614   44.8108 C   0  0  0  0  0  0  0  0  0  0  0  0
   58.8669   30.8038   44.8664 C   0  0  0  0  0  0  0  0  0  0  0  0
   58.0499   31.4605   43.7774 C   0  0  0  0  0  0  0  0  0  0  0  0
   58.9634   31.2635   46.1530 N   0  0  0  0  0  0  0  0  0  0  0  0
   58.4214   32.4992   46.6643 C   0  0  0  0  0  0  0  0  0  0  0  0
   57.1785   32.7263   46.5130 O   0  0  0  0  0  0  0  0  0  0  0  0
   59.2593   33.5223   47.2836 N   0  0  0  0  0  0  0  0  0  0  0  0
   59.6300   34.7031   46.4925 C   0  0  0  0  0  0  0  0  0  0  0  0
   58.3859   26.9211   46.4633 C   0  0  0  0  0  0  0  0  0  0  0  0
   58.3323   25.6951   47.0254 N   0  0  0  0  0  0  0  0  0  0  0  0
   57.0329   25.3629   46.8887 C   0  0  0  0  0  0  0  0  0  0  0  0
   56.5718   24.2542   47.2675 O   0  0  0  0  0  0  0  0  0  0  0  0
   56.2758   26.3005   46.2668 N   0  0  0  0  0  0  0  0  0  0  0  0
   57.1445   27.2731   45.9907 C   0  0  0  0  0  0  0  0  0  0  0  0
   56.8243   28.4544   45.3332 O   0  0  0  0  0  0  0  0  0  0  0  0
   55.9457   28.6073   45.0459 H   0  0  0  0  0  0  0  0  0  0  0  0
   59.7192   33.4421   48.6878 C   0  0  0  0  0  0  0  0  0  0  0  0
   61.2206   33.2985   48.7178 C   0  0  0  0  0  0  0  0  0  0  0  0
   61.9114   32.9023   47.5646 C   0  0  0  0  0  0  0  0  0  0  0  0
   63.2986   32.7632   47.5989 C   0  0  0  0  0  0  0  0  0  0  0  0
   64.0022   33.0103   48.7797 C   0  0  0  0  0  0  0  0  0  0  0  0
   63.3286   33.4110   49.9471 C   0  0  0  0  0  0  0  0  0  0  0  0
   61.9246   33.5084   49.9118 C   0  0  0  0  0  0  0  0  0  0  0  0
   64.0983   33.6452   51.1898 C   0  0  0  0  0  0  0  0  0  0  0  0
   64.0711   34.7897   51.7353 O   0  0  0  0  0  0  0  0  0  0  0  0
   64.8926   32.6039   51.7768 N   0  0  0  0  0  0  0  0  0  0  0  0
   66.3403   32.8473   51.9036 C   0  0  0  0  0  0  0  0  0  0  0  0
   67.1210   31.5321   52.1042 C   0  0  0  0  0  0  0  0  0  0  0  0
   66.3446   30.4195   51.5263 N   0  0  0  0  0  0  0  0  0  0  0  0
   67.1606   29.2064   51.4357 C   0  0  0  0  0  0  0  0  0  0  0  0
   65.1333   30.1835   52.3426 C   0  0  0  0  0  0  0  0  0  0  0  0
   64.2706   31.4644   52.4833 C   0  0  0  0  0  0  0  0  0  0  0  0
  1  2  2  0
  2  3  1  0
  3  4  2  0
  4 13  1  0
 13 14  1  0
 14 15  1  0
 15 16  2  0
 15 17  1  0
 17 18  1  0
 18 19  1  0
  3  5  1  0
  5  6  2  0
  6  7  1  0
  6  8  1  0
  8  9  1  0
  9 10  2  0
  9 11  1  0
 11 12  1  0
 11 21  1  0
 21 22  1  0
 22 23  2  0
 23 24  1  0
 24 25  2  0
 25 26  1  0
 26 28  1  0
 28 29  2  0
 28 30  1  0
 30 31  1  0
 31 32  1  0
 32 33  1  0
 33 34  1  0
 33 35  1  0
 35 36  1  0
 26 27  2  0
  8  2  1  0
 27 22  1  0
 18 13  2  0
 36 30  1  0
 19 20  1  0
M  CHG 1  14  -1
M  CHG 1  17  -1
M  END
> <UniqueID>
84

> <SMILES>
C=c1c(=Cc2[n-]c(=O)[n-]c2O)cc(C)n1C(=O)N(C)Cc1cccc(C(=O)N2CCN(C)CC2)c1

> <Energy>
160.77538902697412

> <Genealogy>
C=c1c(=Cc2[n-]c(=O)[n-]c2O)cc(C)n1C(=O)N(C)Cc1cccc(C(=O)N2CCN(C)CC2)c1 (protonated)
C=c1c(=Cc2[n-]c(=O)[n-]c2O)cc(C)n1C(=O)N(C)Cc1cccc(C(=O)N2CCN(C)CC2)c1 (3D coordinates assigned)
C=c1c(=Cc2[n-]c(=O)[n-]c2O)cc(C)n1C(=O)N(C)Cc1cccc(C(=O)N2CCN(C)CC2)c1 (nonaromatic ring conformer: 160.77538902697412 kcal/mol)

> <smiles>
C=c1c(=Cc2[nH]c(=O)[nH]c2O)cc(C)n1C(=O)N(C)Cc1cccc(C(=O)N2CCN(C)CC2)c1

> <score_type>
oracle

> <origin>
adg

> <m_score__min__energy>
-14.539999999999999

> <m_primary>
energy

> <minimizedAffinity>
-9.46701

> <minimizedRMSD>
1.02269

> <CNNscore>
0.4714476466

> <CNNaffinity>
7.0924530029

> <CNN_VS>
3.3437201977

> <CNNaffinity_variance>
0.0271828938

$$$$
2:0


 31 34  0  0  0  0  0  0  0  0999 V2000
   57.5862   29.7280   54.2247 C   0  0  0  0  0  0  0  0  0  0  0  0
   56.0737   27.0103   54.3693 C   0  0  0  0  0  0  0  0  0  0  0  0
   55.4939   28.1839   54.1046 C   0  0  0  0  0  0  0  0  0  0  0  0
   54.1791   28.3169   53.8324 N   0  0  0  0  0  0  0  0  0  0  0  0
   53.9624   29.6317   53.5987 C   0  0  0  0  0  0  0  0  0  0  0  0
   52.7870   30.2015   53.2744 C   0  0  0  0  0  0  0  0  0  0  0  0
   55.1481   30.3406   53.7164 C   0  0  0  0  0  0  0  0  0  0  0  0
   56.1232   29.4202   54.0518 C   0  0  0  0  0  0  0  0  0  0  0  0
   53.5079   27.5971   53.8084 H   0  0  0  0  0  0  0  0  0  0  0  0
   52.2713   30.4299   51.9043 C   0  0  0  0  0  0  0  0  0  0  0  0
   52.3678   29.5778   50.8673 N   0  0  0  0  0  0  0  0  0  0  0  0
   51.7153   30.2138   49.8709 C   0  0  0  0  0  0  0  0  0  0  0  0
   51.5898   29.7229   48.7195 O   0  0  0  0  0  0  0  0  0  0  0  0
   51.2037   31.4160   50.2079 N   0  0  0  0  0  0  0  0  0  0  0  0
   51.5606   31.5353   51.4967 C   0  0  0  0  0  0  0  0  0  0  0  0
   51.2371   32.6298   52.2874 O   0  0  0  0  0  0  0  0  0  0  0  0
   58.2160   30.0562   52.8963 C   0  0  0  0  0  0  0  0  0  0  0  0
   57.6967   31.0937   52.1064 C   0  0  0  0  0  0  0  0  0  0  0  0
   58.2548   31.3770   50.8578 C   0  0  0  0  0  0  0  0  0  0  0  0
   59.3256   30.6139   50.3715 C   0  0  0  0  0  0  0  0  0  0  0  0
   59.8782   29.6089   51.1782 C   0  0  0  0  0  0  0  0  0  0  0  0
   59.3212   29.3242   52.4292 C   0  0  0  0  0  0  0  0  0  0  0  0
   59.9132   30.9346   49.0555 C   0  0  0  0  0  0  0  0  0  0  0  0
   59.3042   30.5088   48.0362 O   0  0  0  0  0  0  0  0  0  0  0  0
   61.1216   31.7359   48.8803 N   0  0  0  0  0  0  0  0  0  0  0  0
   61.0488   32.9815   49.6736 C   0  0  0  0  0  0  0  0  0  0  0  0
   60.1180   34.0059   49.0082 C   0  0  0  0  0  0  0  0  0  0  0  0
   60.5866   34.3288   47.7145 O   0  0  0  0  0  0  0  0  0  0  0  0
   60.5664   33.1739   46.8985 C   0  0  0  0  0  0  0  0  0  0  0  0
   61.4707   32.0665   47.4771 C   0  0  0  0  0  0  0  0  0  0  0  0
   61.5817   31.2770   48.1407 H   0  0  0  0  0  0  0  0  0  0  0  0
  2  3  2  0
  3  4  1  0
  4  5  1  0
  5  6  2  0
  6 10  1  0
 10 11  1  0
 11 12  1  0
 12 13  2  0
 12 14  1  0
 14 15  1  0
 15 16  1  0
  5  7  1  0
  7  8  2  0
  8  1  1  0
  1 17  1  0
 17 18  2  0
 18 19  1  0
 19 20  2  0
 20 23  1  0
 23 24  2  0
 23 25  1  0
 25 26  1  0
 26 27  1  0
 27 28  1  0
 28 29  1  0
 29 30  1  0
 20 21  1  0
 21 22  2  0
  8  3  1  0
 22 17  1  0
 15 10  2  0
 30 25  1  0
  4  9  1  0
 25 31  1  0
M  CHG 1  11  -1
M  CHG 1  14  -1
M  CHG 1  16  -1
M  CHG 1  25   1
M  END
> <UniqueID>
3

> <SMILES>
C=c1[nH]c(=Cc2[n-]c(=O)[n-]c2[O-])cc1Cc1ccc(C(=O)[NH+]2CCOCC2)cc1

> <Energy>
126.00411763106133

> <Genealogy>
C=c1[nH]c(=Cc2[n-]c(=O)[n-]c2[O-])cc1Cc1ccc(C(=O)[NH+]2CCOCC2)cc1 (protonated)
C=c1[nH]c(=Cc2[n-]c(=O)[n-]c2[O-])cc1Cc1ccc(C(=O)[NH+]2CCOCC2)cc1 (3D coordinates assigned)
C=c1[nH]c(=Cc2[n-]c(=O)[n-]c2[O-])cc1Cc1ccc(C(=O)[NH+]2CCOCC2)cc1 (nonaromatic ring conformer: 126.00411763106133 kcal/mol)

> <smiles>
C=c1[nH]c(=Cc2[nH]c(=O)[nH]c2O)cc1Cc1ccc(C(=O)N2CCOCC2)cc1

> <score_type>
oracle

> <origin>
adg

> <m_score__min__energy>
-16.420000000000002

> <m_primary>
energy

> <minimizedAffinity>
-5.91550

> <minimizedRMSD>
1.11228

> <CNNscore>
0.0667348951

> <CNNaffinity>
5.0660290718

> <CNN_VS>
0.3380809128

> <CNNaffinity_variance>
0.1073937714

$$$$
7:0


 30 32  0  0  0  0  0  0  0  0999 V2000
   60.6508   29.6241   48.9535 C   0  0  0  0  0  0  0  0  0  0  0  0
   60.5789   30.1974   47.6749 C   0  0  0  0  0  0  0  0  0  0  0  0
   60.2934   29.4039   46.5598 C   0  0  0  0  0  0  0  0  0  0  0  0
   60.0655   28.0262   46.7084 C   0  0  0  0  0  0  0  0  0  0  0  0
   60.1121   27.4590   47.9916 C   0  0  0  0  0  0  0  0  0  0  0  0
   60.3968   28.2531   49.1070 C   0  0  0  0  0  0  0  0  0  0  0  0
   60.9380   30.4749   50.1258 C   0  0  0  0  0  0  0  0  0  0  0  0
   60.4834   30.1367   51.2520 O   0  0  0  0  0  0  0  0  0  0  0  0
   61.7153   31.6742   50.0330 N   0  0  0  0  0  0  0  0  0  0  0  0
   61.0611   33.2782   49.9169 S   0  0  0  0  0  0  0  0  0  0  0  0
   60.1720   33.5372   51.1003 O   0  0  0  0  0  0  0  0  0  0  0  0
   62.1677   34.2937   49.8847 O   0  0  0  0  0  0  0  0  0  0  0  0
   58.6772   33.6406   46.0338 C   0  0  0  0  0  0  0  0  0  0  0  0
   60.0171   34.0566   46.0885 C   0  0  0  0  0  0  0  0  0  0  0  0
   60.7436   33.9386   47.2765 C   0  0  0  0  0  0  0  0  0  0  0  0
   60.1392   33.4104   48.4244 C   0  0  0  0  0  0  0  0  0  0  0  0
   58.7954   33.0109   48.3784 C   0  0  0  0  0  0  0  0  0  0  0  0
   58.0678   33.1277   47.1906 C   0  0  0  0  0  0  0  0  0  0  0  0
   57.9431   32.5219   43.9297 C   0  0  0  0  0  0  0  0  0  0  0  0
   57.8842   33.7977   44.7636 C   0  0  0  0  0  0  0  0  0  0  0  0
   59.7248   27.1757   45.5129 C   0  0  0  0  0  0  0  0  0  0  0  0
   58.4524   26.3973   45.7580 C   0  0  0  0  0  0  0  0  0  0  0  0
   57.2039   27.0440   45.7934 C   0  0  0  0  0  0  0  0  0  0  0  0
   57.1039   28.4113   45.5649 O   0  0  0  0  0  0  0  0  0  0  0  0
   56.0764   26.3325   46.0491 N   0  0  0  0  0  0  0  0  0  0  0  0
   56.1253   24.9954   46.2783 C   0  0  0  0  0  0  0  0  0  0  0  0
   55.0673   24.3586   46.5132 O   0  0  0  0  0  0  0  0  0  0  0  0
   57.3167   24.3476   46.2565 N   0  0  0  0  0  0  0  0  0  0  0  0
   58.4749   25.0115   46.0065 C   0  0  0  0  0  0  0  0  0  0  0  0
   59.5601   24.3710   45.9964 O   0  0  0  0  0  0  0  0  0  0  0  0
 19 20  1  0
 20 13  1  0
 13 14  2  0
 14 15  1  0
 15 16  2  0
 16 10  1  0
 10 11  2  0
 10 12  2  0
 10  9  1  0
  9  7  1  0
  7  8  2  0
  7  1  1  0
  1  2  2  0
  2  3  1  0
  3  4  2  0
  4 21  1  0
 21 22  1  0
 22 23  2  0
 23 24  1  0
 23 25  1  0
 25 26  1  0
 26 27  2  0
 26 28  1  0
 28 29  1  0
 29 30  2  0
  4  5  1  0
  5  6  2  0
 16 17  1  0
 17 18  2  0
 18 13  1  0
  6  1  1  0
 29 22  1  0
M  CHG 1   9  -1
M  CHG 1  24  -1
M  CHG 1  25  -1
M  CHG 1  28  -1
M  END
> <UniqueID>
8

> <SMILES>
CCc1ccc(S(=O)(=O)[N-]C(=O)c2ccc(Cc3c([O-])[n-]c(=O)[n-]c3=O)cc2)cc1

> <Energy>
54.553324885631

> <Genealogy>
CCc1ccc(S(=O)(=O)[N-]C(=O)c2ccc(Cc3c([O-])[n-]c(=O)[n-]c3=O)cc2)cc1 (protonated)
CCc1ccc(S(=O)(=O)[N-]C(=O)c2ccc(Cc3c([O-])[n-]c(=O)[n-]c3=O)cc2)cc1 (3D coordinates assigned)
CCc1ccc(S(=O)(=O)[N-]C(=O)c2ccc(Cc3c([O-])[n-]c(=O)[n-]c3=O)cc2)cc1 (optimized conformer: 54.553324885631 kcal/mol)

> <smiles>
CCc1ccc(S(=O)(=O)NC(=O)c2ccc(Cc3c(O)[nH]c(=O)[nH]c3=O)cc2)cc1

> <score_type>
oracle

> <origin>
adg

> <m_score__min__energy>
-17.27

> <m_primary>
energy

> <minimizedAffinity>
-8.20727

> <minimizedRMSD>
1.35377

> <CNNscore>
0.7692719102

> <CNNaffinity>
7.2962431908

> <CNN_VS>
5.6127948761

> <CNNaffinity_variance>
0.3206965923

$$$$
19:0


 30 32  0  0  0  0  0  0  0  0999 V2000
   58.5779   26.3781   45.1921 C   0  0  0  0  0  0  0  0  0  0  0  0
   57.8922   27.4295   44.5650 C   0  0  0  0  0  0  0  0  0  0  0  0
   58.2890   28.7663   44.7666 C   0  0  0  0  0  0  0  0  0  0  0  0
   59.3865   29.0291   45.6039 C   0  0  0  0  0  0  0  0  0  0  0  0
   60.0515   27.9880   46.2518 C   0  0  0  0  0  0  0  0  0  0  0  0
   59.6455   26.6648   46.0621 C   0  0  0  0  0  0  0  0  0  0  0  0
   60.3030   25.6437   46.7388 O   0  0  0  0  0  0  0  0  0  0  0  0
   58.1131   24.9923   44.9879 C   0  0  0  0  0  0  0  0  0  0  0  0
   56.8187   24.6015   44.9677 C   0  0  0  0  0  0  0  0  0  0  0  0
   56.2392   23.7159   43.9168 C   0  0  0  0  0  0  0  0  0  0  0  0
   56.9009   23.3847   42.8961 O   0  0  0  0  0  0  0  0  0  0  0  0
   54.8899   23.2590   44.0304 N   0  0  0  0  0  0  0  0  0  0  0  0
   54.0476   23.6922   45.0962 C   0  0  0  0  0  0  0  0  0  0  0  0
   52.8661   23.2695   45.1749 O   0  0  0  0  0  0  0  0  0  0  0  0
   54.5416   24.6128   46.0678 N   0  0  0  0  0  0  0  0  0  0  0  0
   55.8893   25.0839   46.0232 C   0  0  0  0  0  0  0  0  0  0  0  0
   56.2753   25.9033   46.9001 O   0  0  0  0  0  0  0  0  0  0  0  0
   57.6154   29.9127   44.1079 C   0  0  0  0  0  0  0  0  0  0  0  0
   57.0651   30.9403   44.7687 C   0  0  0  0  0  0  0  0  0  0  0  0
   57.5652   32.3192   44.6243 C   0  0  0  0  0  0  0  0  0  0  0  0
   58.1384   32.6408   43.5514 O   0  0  0  0  0  0  0  0  0  0  0  0
   57.3719   33.3238   45.6288 N   0  0  0  0  0  0  0  0  0  0  0  0
   57.6974   33.1739   47.0435 C   0  0  0  0  0  0  0  0  0  0  0  0
   59.1685   32.8885   47.1875 C   0  0  0  0  0  0  0  0  0  0  0  0
   59.5861   31.6585   47.7260 C   0  0  0  0  0  0  0  0  0  0  0  0
   60.9482   31.3646   47.8475 C   0  0  0  0  0  0  0  0  0  0  0  0
   61.9037   32.2902   47.4261 C   0  0  0  0  0  0  0  0  0  0  0  0
   61.5028   33.5093   46.8759 C   0  0  0  0  0  0  0  0  0  0  0  0
   60.1414   33.8132   46.7496 C   0  0  0  0  0  0  0  0  0  0  0  0
   59.6924   35.3579   46.0280 Cl  0  0  0  0  0  0  0  0  0  0  0  0
  8  9  2  0
  9 10  1  0
 10 11  2  0
 10 12  1  0
 12 13  1  0
 13 14  2  0
 13 15  1  0
 15 16  1  0
 16 17  2  0
  8  1  1  0
  1  2  2  0
  2  3  1  0
  3 18  1  0
 18 19  2  0
 19 20  1  0
 20 21  2  0
 20 22  1  0
 22 23  1  0
 23 24  1  0
 24 25  2  0
 25 26  1  0
 26 27  2  0
 27 28  1  0
 28 29  2  0
 29 30  1  0
  3  4  2  0
  4  5  1  0
  5  6  2  0
  6  7  1  0
 16  9  1  0
  6  1  1  0
 29 24  1  0
M  CHG 1   7  -1
M  CHG 1  12  -1
M  CHG 1  15  -1
M  CHG 1  22  -1
M  END
> <UniqueID>
20

> <SMILES>
O=C(/C=C/c1ccc([O-])c(C=C2C(=O)[N-]C(=O)[N-]C2=O)c1)[N-]Cc1ccccc1Cl

> <Energy>
59.756513816624164

> <Genealogy>
O=C(C=Cc1ccc([O-])c(C=C2C(=O)[N-]C(=O)[N-]C2=O)c1)[N-]Cc1ccccc1Cl (protonated)
O=C(/C=C/c1ccc([O-])c(C=C2C(=O)[N-]C(=O)[N-]C2=O)c1)[N-]Cc1ccccc1Cl (cis-trans isomerization)
O=C(/C=C/c1ccc([O-])c(C=C2C(=O)[N-]C(=O)[N-]C2=O)c1)[N-]Cc1ccccc1Cl (3D coordinates assigned)
O=C(/C=C/c1ccc([O-])c(C=C2C(=O)[N-]C(=O)[N-]C2=O)c1)[N-]Cc1ccccc1Cl (nonaromatic ring conformer: 59.756513816624164 kcal/mol)

> <smiles>
O=C(C=Cc1ccc(O)c(C=C2C(=O)NC(=O)NC2=O)c1)NCc1ccccc1Cl

> <score_type>
oracle

> <origin>
adg

> <m_score__min__energy>
-16.030000000000001

> <m_primary>
energy

> <minimizedAffinity>
-8.45791

> <minimizedRMSD>
0.53441

> <CNNscore>
0.4766495526

> <CNNaffinity>
7.1211400032

> <CNN_VS>
3.3942883015

> <CNNaffinity_variance>
0.0446216874

$$$$
20:0


 37 41  0  0  0  0  0  0  0  0999 V2000
   61.1007   29.7467   50.9732 C   0  0  0  0  0  0  0  0  0  0  0  0
   60.7491   27.0150   51.1769 O   0  0  0  0  0  0  0  0  0  0  0  0
   60.6897   27.5069   50.0182 C   0  0  0  0  0  0  0  0  0  0  0  0
   60.4899   26.6734   48.9692 N   0  0  0  0  0  0  0  0  0  0  0  0
   60.4587   27.1251   47.6960 C   0  0  0  0  0  0  0  0  0  0  0  0
   60.2684   26.2169   46.6622 O   0  0  0  0  0  0  0  0  0  0  0  0
   60.6360   28.4906   47.4370 C   0  0  0  0  0  0  0  0  0  0  0  0
   60.8206   29.3539   48.5335 C   0  0  0  0  0  0  0  0  0  0  0  0
   60.9788   30.5886   48.3235 O   0  0  0  0  0  0  0  0  0  0  0  0
   60.8419   28.8579   49.8183 N   0  0  0  0  0  0  0  0  0  0  0  0
   60.6478   29.0120   46.0146 C   0  0  0  0  0  0  0  0  0  0  0  0
   59.2517   29.2012   45.4861 C   0  0  0  0  0  0  0  0  0  0  0  0
   58.8991   30.3922   44.8295 C   0  0  0  0  0  0  0  0  0  0  0  0
   57.5958   30.5821   44.3613 C   0  0  0  0  0  0  0  0  0  0  0  0
   56.6296   29.5929   44.5566 C   0  0  0  0  0  0  0  0  0  0  0  0
   55.3345   29.7888   44.0926 O   0  0  0  0  0  0  0  0  0  0  0  0
   56.9673   28.4086   45.2198 C   0  0  0  0  0  0  0  0  0  0  0  0
   56.0309   27.4491   45.4149 F   0  0  0  0  0  0  0  0  0  0  0  0
   58.2777   28.2056   45.6703 C   0  0  0  0  0  0  0  0  0  0  0  0
   59.8154   30.3288   51.5285 C   0  0  0  0  0  0  0  0  0  0  0  0
   58.9993   29.5342   52.3572 C   0  0  0  0  0  0  0  0  0  0  0  0
   57.7938   30.0318   52.8577 C   0  0  0  0  0  0  0  0  0  0  0  0
   57.3890   31.3301   52.5494 C   0  0  0  0  0  0  0  0  0  0  0  0
   58.1959   32.1372   51.7471 C   0  0  0  0  0  0  0  0  0  0  0  0
   59.4066   31.6484   51.2321 C   0  0  0  0  0  0  0  0  0  0  0  0
   60.2401   32.5337   50.4732 N   0  0  0  0  0  0  0  0  0  0  0  0
   61.4025   33.0596   50.9035 C   0  0  0  0  0  0  0  0  0  0  0  0
   61.8326   34.0268   50.0185 C   0  0  0  0  0  0  0  0  0  0  0  0
   60.8826   34.1019   49.0167 C   0  0  0  0  0  0  0  0  0  0  0  0
   59.9201   33.1600   49.3201 C   0  0  0  0  0  0  0  0  0  0  0  0
   58.6942   32.8760   48.5003 C   0  0  0  0  0  0  0  0  0  0  0  0
   58.7276   33.6609   47.2522 N   0  0  0  0  0  0  0  0  0  0  0  0
   57.5265   33.4071   46.4385 C   0  0  0  0  0  0  0  0  0  0  0  0
   57.5859   34.2275   45.1311 C   0  0  0  0  0  0  0  0  0  0  0  0
   58.7841   34.9750   45.0266 O   0  0  0  0  0  0  0  0  0  0  0  0
   59.8970   34.1049   45.1066 C   0  0  0  0  0  0  0  0  0  0  0  0
   59.9419   33.3730   46.4636 C   0  0  0  0  0  0  0  0  0  0  0  0
  2  3  2  0
  3  4  1  0
  4  5  1  0
  5  6  1  0
  5  7  2  0
  7 11  1  0
 11 12  1  0
 12 13  2  0
 13 14  1  0
 14 15  2  0
 15 16  1  0
 15 17  1  0
 17 18  1  0
 17 19  2  0
  7  8  1  0
  8  9  2  0
  8 10  1  0
 10  1  1  0
  1 20  1  0
 20 21  2  0
 21 22  1  0
 22 23  2  0
 23 24  1  0
 24 25  2  0
 25 26  1  0
 26 27  1  0
 27 28  2  0
 28 29  1  0
 29 30  2  0
 30 31  1  0
 31 32  1  0
 32 33  1  0
 33 34  1  0
 34 35  1  0
 35 36  1  0
 36 37  1  0
 10  3  1  0
 25 20  1  0
 30 26  1  0
 37 32  1  0
 19 12  1  0
M  CHG 1   4  -1
M  CHG 1   6  -1
M  CHG 1  16  -1
M  END
> <UniqueID>
21

> <SMILES>
O=c1[n-]c([O-])c(Cc2ccc([O-])c(F)c2)c(=O)n1Cc1ccccc1-n1cccc1CN1CCOCC1

> <Energy>
107.3783939725021

> <Genealogy>
O=c1[n-]c([O-])c(Cc2ccc([O-])c(F)c2)c(=O)n1Cc1ccccc1-n1cccc1CN1CCOCC1 (protonated)
O=c1[n-]c([O-])c(Cc2ccc([O-])c(F)c2)c(=O)n1Cc1ccccc1-n1cccc1CN1CCOCC1 (3D coordinates assigned)
O=c1[n-]c([O-])c(Cc2ccc([O-])c(F)c2)c(=O)n1Cc1ccccc1-n1cccc1CN1CCOCC1 (nonaromatic ring conformer: 107.3783939725021 kcal/mol)

> <smiles>
O=c1[nH]c(O)c(Cc2ccc(O)c(F)c2)c(=O)n1Cc1ccccc1-n1cccc1CN1CCOCC1

> <score_type>
oracle

> <origin>
adg

> <m_score__min__energy>
-17.300000000000001

> <m_primary>
energy

> <minimizedAffinity>
-5.88679

> <minimizedRMSD>
0.61521

> <CNNscore>
0.0871080533

> <CNNaffinity>
6.2224578857

> <CNN_VS>
0.5420262218

> <CNNaffinity_variance>
0.6018304229

$$$$
30:0


 34 37  0  0  0  0  0  0  0  0999 V2000
   58.1782   31.8024   51.9943 C   0  0  0  0  0  0  0  0  0  0  0  0
   58.2394   32.9449   52.5279 O   0  0  0  0  0  0  0  0  0  0  0  0
   59.0437   31.4882   50.8914 N   0  0  0  0  0  0  0  0  0  0  0  0
   58.8268   30.7155   50.3211 H   0  0  0  0  0  0  0  0  0  0  0  0
   54.5471   27.8237   53.6479 C   0  0  0  0  0  0  0  0  0  0  0  0
   55.3433   28.8866   53.4305 C   0  0  0  0  0  0  0  0  0  0  0  0
   56.7273   28.7023   53.6072 C   0  0  0  0  0  0  0  0  0  0  0  0
   57.6440   29.6519   53.1626 C   0  0  0  0  0  0  0  0  0  0  0  0
   57.2061   30.8071   52.5072 C   0  0  0  0  0  0  0  0  0  0  0  0
   55.8266   31.0399   52.3879 C   0  0  0  0  0  0  0  0  0  0  0  0
   54.8741   30.1369   52.9091 C   0  0  0  0  0  0  0  0  0  0  0  0
   53.5763   30.5387   52.8902 C   0  0  0  0  0  0  0  0  0  0  0  0
   52.6885   30.5679   51.7123 C   0  0  0  0  0  0  0  0  0  0  0  0
   52.8192   29.7351   50.6649 N   0  0  0  0  0  0  0  0  0  0  0  0
   51.8820   30.1743   49.7976 C   0  0  0  0  0  0  0  0  0  0  0  0
   51.6829   29.6277   48.6820 O   0  0  0  0  0  0  0  0  0  0  0  0
   51.1793   31.2486   50.2168 N   0  0  0  0  0  0  0  0  0  0  0  0
   51.7102   31.4946   51.4253 C   0  0  0  0  0  0  0  0  0  0  0  0
   51.3283   32.5592   52.2328 O   0  0  0  0  0  0  0  0  0  0  0  0
   60.2430   32.2832   50.5864 C   0  0  0  0  0  0  0  0  0  0  0  0
   59.8741   33.5382   49.7603 C   0  0  0  0  0  0  0  0  0  0  0  0
   59.9929   33.3428   48.2333 C   0  0  0  0  0  0  0  0  0  0  0  0
   59.8506   31.9293   47.8469 N   0  0  0  0  0  0  0  0  0  0  0  0
   60.6619   30.9024   48.5211 C   0  0  0  0  0  0  0  0  0  0  0  0
   61.2689   31.4247   49.8308 C   0  0  0  0  0  0  0  0  0  0  0  0
   59.0643   31.5651   46.6944 C   0  0  0  0  0  0  0  0  0  0  0  0
   58.8761   30.2894   46.2899 N   0  0  0  0  0  0  0  0  0  0  0  0
   58.0990   30.2178   45.1752 C   0  0  0  0  0  0  0  0  0  0  0  0
   57.6488   31.4436   44.6874 C   0  0  0  0  0  0  0  0  0  0  0  0
   58.2598   32.6501   45.6844 S   0  0  0  0  0  0  0  0  0  0  0  0
   57.7283   28.9097   44.5470 C   0  0  0  0  0  0  0  0  0  0  0  0
   58.8782   28.2030   44.2423 F   0  0  0  0  0  0  0  0  0  0  0  0
   57.0061   29.1206   43.3867 F   0  0  0  0  0  0  0  0  0  0  0  0
   56.9588   28.1701   45.4258 F   0  0  0  0  0  0  0  0  0  0  0  0
  5  6  2  0
  6  7  1  0
  7  8  2  0
  8  9  1  0
  9  1  1  0
  1  2  2  0
  1  3  1  0
  3 20  1  0
 20 21  1  0
 21 22  1  0
 22 23  1  0
 23 26  1  0
 26 27  2  0
 27 28  1  0
 28 31  1  0
 31 32  1  0
 31 33  1  0
 31 34  1  0
 28 29  2  0
 29 30  1  0
 23 24  1  0
 24 25  1  0
  9 10  2  0
 10 11  1  0
 11 12  2  0
 12 13  1  0
 13 14  1  0
 14 15  1  0
 15 16  2  0
 15 17  1  0
 17 18  1  0
 18 19  1  0
 11  6  1  0
 18 13  2  0
 25 20  1  0
 30 26  1  0
  3  4  1  0
M  CHG 1  14  -1
M  CHG 1  17  -1
M  CHG 1  19  -1
M  END
> <UniqueID>
30

> <SMILES>
C=c1ccc(C(=O)NC2CCN(c3nc(C(F)(F)F)cs3)CC2)c/c1=C/c1[n-]c(=O)[n-]c1[O-]

> <Energy>
135.9418002083071

> <Genealogy>
C=c1ccc(C(=O)NC2CCN(c3nc(C(F)(F)F)cs3)CC2)cc1=Cc1[n-]c(=O)[n-]c1[O-] (protonated)
C=c1ccc(C(=O)NC2CCN(c3nc(C(F)(F)F)cs3)CC2)c/c1=C/c1[n-]c(=O)[n-]c1[O-] (cis-trans isomerization)
C=c1ccc(C(=O)NC2CCN(c3nc(C(F)(F)F)cs3)CC2)c/c1=C/c1[n-]c(=O)[n-]c1[O-] (3D coordinates assigned)
C=c1ccc(C(=O)NC2CCN(c3nc(C(F)(F)F)cs3)CC2)c/c1=C/c1[n-]c(=O)[n-]c1[O-] (nonaromatic ring conformer: 135.9418002083071 kcal/mol)

> <smiles>
C=c1ccc(C(=O)NC2CCN(c3nc(C(F)(F)F)cs3)CC2)cc1=Cc1[nH]c(=O)[nH]c1O

> <score_type>
oracle

> <origin>
adg

> <m_score__min__energy>
-18.640000000000001

> <m_primary>
energy

> <minimizedAffinity>
-8.23201

> <minimizedRMSD>
1.02975

> <CNNscore>
0.0567738153

> <CNNaffinity>
6.1120071411

> <CNN_VS>
0.3470019698

> <CNNaffinity_variance>
0.1629501879

$$$$
50:0


 29 32  0  0  0  0  0  0  0  0999 V2000
   57.6923   32.2990   52.1722 C   0  0  0  0  0  0  0  0  0  0  0  0
   56.7907   31.3946   52.5605 C   0  0  0  0  0  0  0  0  0  0  0  0
   55.5968   31.2396   51.9526 N   0  0  0  0  0  0  0  0  0  0  0  0
   54.9245   30.2986   52.6505 C   0  0  0  0  0  0  0  0  0  0  0  0
   53.7000   29.8373   52.3526 C   0  0  0  0  0  0  0  0  0  0  0  0
   55.6972   29.8324   53.7017 C   0  0  0  0  0  0  0  0  0  0  0  0
   56.8935   30.5250   53.6419 C   0  0  0  0  0  0  0  0  0  0  0  0
   55.2772   31.7194   51.1545 H   0  0  0  0  0  0  0  0  0  0  0  0
   58.0265   30.3331   54.5689 C   0  0  0  0  0  0  0  0  0  0  0  0
   57.8953   30.6873   55.7717 O   0  0  0  0  0  0  0  0  0  0  0  0
   59.2565   29.7249   54.1351 N   0  0  0  0  0  0  0  0  0  0  0  0
   59.2114   28.4389   53.4263 C   0  0  0  0  0  0  0  0  0  0  0  0
   60.3918   28.3115   52.4600 C   0  0  0  0  0  0  0  0  0  0  0  0
   61.6378   28.6958   53.1309 N   0  0  0  0  0  0  0  0  0  0  0  0
   61.6758   29.9917   53.8145 C   0  0  0  0  0  0  0  0  0  0  0  0
   60.5100   30.0974   54.7978 C   0  0  0  0  0  0  0  0  0  0  0  0
   62.8650   27.9927   52.8510 C   0  0  0  0  0  0  0  0  0  0  0  0
   62.8782   26.5889   52.8078 C   0  0  0  0  0  0  0  0  0  0  0  0
   64.0651   25.9022   52.5330 C   0  0  0  0  0  0  0  0  0  0  0  0
   65.2465   26.6112   52.2999 C   0  0  0  0  0  0  0  0  0  0  0  0
   65.2432   28.0079   52.3398 C   0  0  0  0  0  0  0  0  0  0  0  0
   64.0575   28.6982   52.6120 C   0  0  0  0  0  0  0  0  0  0  0  0
   52.5575   29.8707   53.2801 C   0  0  0  0  0  0  0  0  0  0  0  0
   52.5027   30.6765   54.3553 N   0  0  0  0  0  0  0  0  0  0  0  0
   51.2692   30.4483   54.8563 C   0  0  0  0  0  0  0  0  0  0  0  0
   50.8417   31.0224   55.8915 O   0  0  0  0  0  0  0  0  0  0  0  0
   50.5260   29.5695   54.1527 N   0  0  0  0  0  0  0  0  0  0  0  0
   51.3488   29.2213   53.1516 C   0  0  0  0  0  0  0  0  0  0  0  0
   50.9852   28.3658   52.1180 O   0  0  0  0  0  0  0  0  0  0  0  0
  1  2  2  0
  2  3  1  0
  3  4  1  0
  4  5  2  0
  5 23  1  0
 23 24  1  0
 24 25  1  0
 25 26  2  0
 25 27  1  0
 27 28  1  0
 28 29  1  0
  4  6  1  0
  6  7  2  0
  7  9  1  0
  9 10  2  0
  9 11  1  0
 11 12  1  0
 12 13  1  0
 13 14  1  0
 14 17  1  0
 17 18  2  0
 18 19  1  0
 19 20  2  0
 20 21  1  0
 21 22  2  0
 14 15  1  0
 15 16  1  0
  7  2  1  0
 16 11  1  0
 28 23  2  0
 22 17  1  0
  3  8  1  0
M  CHG 1  24  -1
M  CHG 1  27  -1
M  CHG 1  29  -1
M  END
> <UniqueID>
49

> <SMILES>
C=c1[nH]c(=Cc2[n-]c(=O)[n-]c2[O-])cc1C(=O)N1CCN(c2ccccc2)CC1

> <Energy>
118.73005770041323

> <Genealogy>
C=c1[nH]c(=Cc2[n-]c(=O)[n-]c2[O-])cc1C(=O)N1CCN(c2ccccc2)CC1 (protonated)
C=c1[nH]c(=Cc2[n-]c(=O)[n-]c2[O-])cc1C(=O)N1CCN(c2ccccc2)CC1 (3D coordinates assigned)
C=c1[nH]c(=Cc2[n-]c(=O)[n-]c2[O-])cc1C(=O)N1CCN(c2ccccc2)CC1 (nonaromatic ring conformer: 118.73005770041323 kcal/mol)

> <smiles>
C=c1[nH]c(=Cc2[nH]c(=O)[nH]c2O)cc1C(=O)N1CCN(c2ccccc2)CC1

> <score_type>
oracle

> <origin>
adg

> <m_score__min__energy>
-17.719999999999999

> <m_primary>
energy

> <minimizedAffinity>
-5.62378

> <minimizedRMSD>
2.45560

> <CNNscore>
0.2066599876

> <CNNaffinity>
4.7779068947

> <CNN_VS>
0.9874022007

> <CNNaffinity_variance>
0.1690364033

$$$$
75:0


 26 28  0  0  0  0  0  0  0  0999 V2000
   59.7314   24.7405   46.2505 C   0  0  0  0  0  0  0  0  0  0  0  0
   59.1156   25.8932   45.9539 C   0  0  0  0  0  0  0  0  0  0  0  0
   59.5797   27.0097   46.5803 N   0  0  0  0  0  0  0  0  0  0  0  0
   59.1975   28.2633   46.2327 C   0  0  0  0  0  0  0  0  0  0  0  0
   58.3249   28.4583   45.1628 C   0  0  0  0  0  0  0  0  0  0  0  0
   57.8233   27.3366   44.4924 C   0  0  0  0  0  0  0  0  0  0  0  0
   58.1293   26.0304   44.9267 C   0  0  0  0  0  0  0  0  0  0  0  0
   57.4408   25.0122   44.3490 C   0  0  0  0  0  0  0  0  0  0  0  0
   57.9630   29.8265   44.7324 C   0  0  0  0  0  0  0  0  0  0  0  0
   57.4772   29.9997   43.5810 O   0  0  0  0  0  0  0  0  0  0  0  0
   58.1600   30.9618   45.5957 N   0  0  0  0  0  0  0  0  0  0  0  0
   57.2005   32.0731   45.5818 C   0  0  0  0  0  0  0  0  0  0  0  0
   57.8869   33.3773   45.1492 C   0  0  0  0  0  0  0  0  0  0  0  0
   59.3290   33.5338   45.7152 C   0  0  0  0  0  0  0  0  0  0  0  0
   59.6291   32.5304   46.8486 C   0  0  0  0  0  0  0  0  0  0  0  0
   59.4122   31.0919   46.3597 C   0  0  0  0  0  0  0  0  0  0  0  0
   59.6223   34.9788   46.1576 C   0  0  0  0  0  0  0  0  0  0  0  0
   59.3695   35.1487   47.5297 O   0  0  0  0  0  0  0  0  0  0  0  0
   58.4351   34.9626   47.7118 H   0  0  0  0  0  0  0  0  0  0  0  0
   56.2625   24.3286   44.9146 C   0  0  0  0  0  0  0  0  0  0  0  0
   55.9899   23.0170   44.7714 N   0  0  0  0  0  0  0  0  0  0  0  0
   54.8999   22.8380   45.5488 C   0  0  0  0  0  0  0  0  0  0  0  0
   54.3269   21.7241   45.6677 O   0  0  0  0  0  0  0  0  0  0  0  0
   54.4774   23.9457   46.1948 N   0  0  0  0  0  0  0  0  0  0  0  0
   55.3580   24.8745   45.7918 C   0  0  0  0  0  0  0  0  0  0  0  0
   55.3392   26.1960   46.2211 O   0  0  0  0  0  0  0  0  0  0  0  0
  1  2  2  0
  2  3  1  0
  3  4  2  0
  4  5  1  0
  5  9  1  0
  9 10  2  0
  9 11  1  0
 11 12  1  0
 12 13  1  0
 13 14  1  0
 14 17  1  0
 17 18  1  0
 14 15  1  0
 15 16  1  0
  5  6  2  0
  6  7  1  0
  7  8  2  0
  8 20  1  0
 20 21  1  0
 21 22  1  0
 22 23  2  0
 22 24  1  0
 24 25  1  0
 25 26  1  0
  7  2  1  0
 25 20  2  0
 16 11  1  0
 18 19  1  0
M  CHG 1  21  -1
M  CHG 1  24  -1
M  CHG 1  26  -1
M  END
> <UniqueID>
74

> <SMILES>
C=c1ncc(C(=O)N2CCC(CO)CC2)cc1=Cc1[n-]c(=O)[n-]c1[O-]

> <Energy>
99.06069940418888

> <Genealogy>
C=c1ncc(C(=O)N2CCC(CO)CC2)cc1=Cc1[n-]c(=O)[n-]c1[O-] (protonated)
C=c1ncc(C(=O)N2CCC(CO)CC2)cc1=Cc1[n-]c(=O)[n-]c1[O-] (3D coordinates assigned)
C=c1ncc(C(=O)N2CCC(CO)CC2)cc1=Cc1[n-]c(=O)[n-]c1[O-] (nonaromatic ring conformer: 99.06069940418888 kcal/mol)

> <smiles>
C=c1ncc(C(=O)N2CCC(CO)CC2)cc1=Cc1[nH]c(=O)[nH]c1O

> <score_type>
oracle

> <origin>
adg

> <m_score__min__energy>
-16.469999999999999

> <m_primary>
energy

> <minimizedAffinity>
-7.04745

> <minimizedRMSD>
0.93837

> <CNNscore>
0.0574631691

> <CNNaffinity>
5.7731261253

> <CNN_VS>
0.3317421079

> <CNNaffinity_variance>
0.0881411806

$$$$
76:0


 25 27  0  0  0  0  0  0  0  0999 V2000
   58.2623   27.0437   43.2988 C   0  0  0  0  0  0  0  0  0  0  0  0
   58.5552   26.5922   44.5292 C   0  0  0  0  0  0  0  0  0  0  0  0
   58.1851   25.3623   45.0993 C   0  0  0  0  0  0  0  0  0  0  0  0
   57.3621   24.3905   44.6594 C   0  0  0  0  0  0  0  0  0  0  0  0
   58.8480   25.2859   46.3152 C   0  0  0  0  0  0  0  0  0  0  0  0
   59.5386   26.4701   46.4720 C   0  0  0  0  0  0  0  0  0  0  0  0
   60.4019   26.8124   47.6462 C   0  0  0  0  0  0  0  0  0  0  0  0
   59.3647   27.2591   45.3899 N   0  0  0  0  0  0  0  0  0  0  0  0
   59.9915   28.5352   45.1882 C   0  0  0  0  0  0  0  0  0  0  0  0
   61.1293   28.5813   44.6457 O   0  0  0  0  0  0  0  0  0  0  0  0
   59.3244   29.7536   45.5750 N   0  0  0  0  0  0  0  0  0  0  0  0
   59.6913   30.3946   46.8525 C   0  0  0  0  0  0  0  0  0  0  0  0
   58.5954   31.3362   47.3552 C   0  0  0  0  0  0  0  0  0  0  0  0
   58.2107   32.2627   46.2903 N   0  0  0  0  0  0  0  0  0  0  0  0
   58.0824   33.7006   46.5359 C   0  0  0  0  0  0  0  0  0  0  0  0
   57.9770   31.7225   44.9828 C   0  0  0  0  0  0  0  0  0  0  0  0
   57.5274   32.4521   44.0582 O   0  0  0  0  0  0  0  0  0  0  0  0
   58.2361   30.2671   44.7257 C   0  0  0  0  0  0  0  0  0  0  0  0
   55.9363   24.2568   44.9940 C   0  0  0  0  0  0  0  0  0  0  0  0
   55.2167   23.1485   44.7471 N   0  0  0  0  0  0  0  0  0  0  0  0
   54.0269   23.4138   45.3294 C   0  0  0  0  0  0  0  0  0  0  0  0
   53.0617   22.6054   45.2985 O   0  0  0  0  0  0  0  0  0  0  0  0
   53.9566   24.6066   45.9586 N   0  0  0  0  0  0  0  0  0  0  0  0
   55.1782   25.1212   45.7504 C   0  0  0  0  0  0  0  0  0  0  0  0
   55.5995   26.3415   46.2624 O   0  0  0  0  0  0  0  0  0  0  0  0
  1  2  2  0
  2  3  1  0
  3  4  2  0
  4 19  1  0
 19 20  1  0
 20 21  1  0
 21 22  2  0
 21 23  1  0
 23 24  1  0
 24 25  1  0
  3  5  1  0
  5  6  2  0
  6  7  1  0
  6  8  1  0
  8  9  1  0
  9 10  2  0
  9 11  1  0
 11 12  1  0
 12 13  1  0
 13 14  1  0
 14 15  1  0
 14 16  1  0
 16 17  2  0
 16 18  1  0
  8  2  1  0
 18 11  1  0
 24 19  2  0
M  CHG 1  20  -1
M  CHG 1  23  -1
M  CHG 1  25  -1
M  END
> <UniqueID>
75

> <SMILES>
C=c1c(=Cc2[n-]c(=O)[n-]c2[O-])cc(C)n1C(=O)N1CCN(C)C(=O)C1

> <Energy>
115.42538222047175

> <Genealogy>
C=c1c(=Cc2[n-]c(=O)[n-]c2[O-])cc(C)n1C(=O)N1CCN(C)C(=O)C1 (protonated)
C=c1c(=Cc2[n-]c(=O)[n-]c2[O-])cc(C)n1C(=O)N1CCN(C)C(=O)C1 (3D coordinates assigned)
C=c1c(=Cc2[n-]c(=O)[n-]c2[O-])cc(C)n1C(=O)N1CCN(C)C(=O)C1 (nonaromatic ring conformer: 115.42538222047175 kcal/mol)

> <smiles>
C=c1c(=Cc2[nH]c(=O)[nH]c2O)cc(C)n1C(=O)N1CCN(C)C(=O)C1

> <score_type>
oracle

> <origin>
adg

> <m_score__min__energy>
-15.81

> <m_primary>
energy

> <minimizedAffinity>
-7.68753

> <minimizedRMSD>
0.87091

> <CNNscore>
0.0782732219

> <CNNaffinity>
5.4870553017

> <CNN_VS>
0.4294894934

> <CNNaffinity_variance>
0.0235780533

$$$$
4:0


 24 26  0  0  0  0  0  0  0  0999 V2000
   55.3161   30.9863   52.0474 C   0  0  0  0  0  0  0  0  0  0  0  0
   55.2384   29.9687   52.9213 C   0  0  0  0  0  0  0  0  0  0  0  0
   54.0724   29.2873   53.3054 C   0  0  0  0  0  0  0  0  0  0  0  0
   52.7725   29.5980   53.1401 C   0  0  0  0  0  0  0  0  0  0  0  0
   54.4905   28.1401   53.9569 C   0  0  0  0  0  0  0  0  0  0  0  0
   55.8673   28.1959   54.0223 C   0  0  0  0  0  0  0  0  0  0  0  0
   56.7255   27.1662   54.6927 C   0  0  0  0  0  0  0  0  0  0  0  0
   56.3258   29.3106   53.4045 N   0  0  0  0  0  0  0  0  0  0  0  0
   57.7082   29.6931   53.2918 C   0  0  0  0  0  0  0  0  0  0  0  0
   58.3867   29.3075   52.3008 O   0  0  0  0  0  0  0  0  0  0  0  0
   52.1571   30.0749   51.8899 C   0  0  0  0  0  0  0  0  0  0  0  0
   52.1469   29.3913   50.7294 N   0  0  0  0  0  0  0  0  0  0  0  0
   51.6064   30.2682   49.8555 C   0  0  0  0  0  0  0  0  0  0  0  0
   51.4145   29.9873   48.6444 O   0  0  0  0  0  0  0  0  0  0  0  0
   51.2983   31.4745   50.3803 N   0  0  0  0  0  0  0  0  0  0  0  0
   51.6672   31.3374   51.6646 C   0  0  0  0  0  0  0  0  0  0  0  0
   51.5617   32.3493   52.6110 O   0  0  0  0  0  0  0  0  0  0  0  0
   58.3057   30.5227   54.2974 N   0  0  0  0  0  0  0  0  0  0  0  0
   58.6135   31.9196   54.1833 C   0  0  0  0  0  0  0  0  0  0  0  0
   59.1321   32.5864   55.3012 C   0  0  0  0  0  0  0  0  0  0  0  0
   59.4634   33.9425   55.2252 C   0  0  0  0  0  0  0  0  0  0  0  0
   59.2967   34.6387   54.0259 C   0  0  0  0  0  0  0  0  0  0  0  0
   58.8042   33.9755   52.8975 C   0  0  0  0  0  0  0  0  0  0  0  0
   58.4692   32.6199   52.9708 C   0  0  0  0  0  0  0  0  0  0  0  0
  1  2  2  0
  2  3  1  0
  3  4  2  0
  4 11  1  0
 11 12  1  0
 12 13  1  0
 13 14  2  0
 13 15  1  0
 15 16  1  0
 16 17  1  0
  3  5  1  0
  5  6  2  0
  6  7  1  0
  6  8  1  0
  8  9  1  0
  9 10  2  0
  9 18  1  0
 18 19  1  0
 19 20  2  0
 20 21  1  0
 21 22  2  0
 22 23  1  0
 23 24  2  0
  8  2  1  0
 24 19  1  0
 16 11  2  0
M  CHG 1  12  -1
M  CHG 1  15  -1
M  CHG 1  17  -1
M  CHG 1  18  -1
M  END
> <UniqueID>
5

> <SMILES>
C=c1c(=Cc2[n-]c(=O)[n-]c2[O-])cc(C)n1C(=O)[N-]c1ccccc1

> <Energy>
115.11003999767546

> <Genealogy>
C=c1c(=Cc2[n-]c(=O)[n-]c2[O-])cc(C)n1C(=O)[N-]c1ccccc1 (protonated)
C=c1c(=Cc2[n-]c(=O)[n-]c2[O-])cc(C)n1C(=O)[N-]c1ccccc1 (3D coordinates assigned)
C=c1c(=Cc2[n-]c(=O)[n-]c2[O-])cc(C)n1C(=O)[N-]c1ccccc1 (optimized conformer: 115.11003999767546 kcal/mol)

> <smiles>
C=c1c(=Cc2[nH]c(=O)[nH]c2O)cc(C)n1C(=O)Nc1ccccc1

> <score_type>
oracle

> <origin>
adg

> <m_score__min__energy>
-16.969999999999999

> <m_primary>
energy

> <minimizedAffinity>
-4.57086

> <minimizedRMSD>
1.11624

> <CNNscore>
0.1537331343

> <CNNaffinity>
4.5950436592

> <CNN_VS>
0.7064104676

> <CNNaffinity_variance>
0.1925096959

$$$$
17:0


 31 34  0  0  0  0  0  0  0  0999 V2000
   59.8277   26.7031   48.5723 C   0  0  0  0  0  0  0  0  0  0  0  0
   60.0440   27.8086   47.8398 C   0  0  0  0  0  0  0  0  0  0  0  0
   59.8482   27.9417   46.4542 C   0  0  0  0  0  0  0  0  0  0  0  0
   59.2562   27.1268   45.5592 C   0  0  0  0  0  0  0  0  0  0  0  0
   60.3760   29.1692   46.1055 C   0  0  0  0  0  0  0  0  0  0  0  0
   60.8132   29.7683   47.2678 C   0  0  0  0  0  0  0  0  0  0  0  0
   60.6072   28.9483   48.3300 N   0  0  0  0  0  0  0  0  0  0  0  0
   61.3954   31.1268   47.3296 C   0  0  0  0  0  0  0  0  0  0  0  0
   62.6328   31.2583   47.5293 O   0  0  0  0  0  0  0  0  0  0  0  0
   60.5712   32.3021   47.2019 N   0  0  0  0  0  0  0  0  0  0  0  0
   61.0295   33.5689   47.7893 C   0  0  0  0  0  0  0  0  0  0  0  0
   59.8483   34.5202   48.0160 C   0  0  0  0  0  0  0  0  0  0  0  0
   59.0434   34.7851   46.7209 C   0  0  0  0  0  0  0  0  0  0  0  0
   59.4826   35.9717   46.1144 O   0  0  0  0  0  0  0  0  0  0  0  0
   59.1416   33.6348   45.6975 C   0  0  0  0  0  0  0  0  0  0  0  0
   59.3549   32.2770   46.3745 C   0  0  0  0  0  0  0  0  0  0  0  0
   60.4123   35.8770   45.8544 H   0  0  0  0  0  0  0  0  0  0  0  0
   58.1406   26.2126   45.8365 C   0  0  0  0  0  0  0  0  0  0  0  0
   58.2803   24.5377   45.9198 S   0  0  0  0  0  0  0  0  0  0  0  0
   56.6187   24.3215   46.0629 C   0  0  0  0  0  0  0  0  0  0  0  0
   56.0569   23.2040   46.1863 O   0  0  0  0  0  0  0  0  0  0  0  0
   55.9376   25.4857   46.0188 N   0  0  0  0  0  0  0  0  0  0  0  0
   56.7837   26.5393   45.8751 C   0  0  0  0  0  0  0  0  0  0  0  0
   56.3117   27.8405   45.7536 O   0  0  0  0  0  0  0  0  0  0  0  0
   60.9928   29.2407   49.7227 C   0  0  0  0  0  0  0  0  0  0  0  0
   60.3058   30.4849   50.2342 C   0  0  0  0  0  0  0  0  0  0  0  0
   58.9089   30.6252   50.1537 C   0  0  0  0  0  0  0  0  0  0  0  0
   58.2823   31.7702   50.6549 C   0  0  0  0  0  0  0  0  0  0  0  0
   59.0405   32.7777   51.2550 C   0  0  0  0  0  0  0  0  0  0  0  0
   60.4266   32.6397   51.3601 C   0  0  0  0  0  0  0  0  0  0  0  0
   61.0571   31.4960   50.8594 C   0  0  0  0  0  0  0  0  0  0  0  0
  1  2  2  0
  2  3  1  0
  3  4  2  0
  4 18  1  0
 18 19  1  0
 19 20  1  0
 20 21  2  0
 20 22  1  0
 22 23  1  0
 23 24  1  0
  3  5  1  0
  5  6  2  0
  6  8  1  0
  8  9  2  0
  8 10  1  0
 10 11  1  0
 11 12  1  0
 12 13  1  0
 13 14  1  0
 13 15  1  0
 15 16  1  0
  6  7  1  0
  7 25  1  0
 25 26  1  0
 26 27  2  0
 27 28  1  0
 28 29  2  0
 29 30  1  0
 30 31  2  0
  7  2  1  0
 31 26  1  0
 23 18  2  0
 16 10  1  0
 14 17  1  0
M  CHG 1  22  -1
M  CHG 1  24  -1
M  END
> <UniqueID>
17

> <SMILES>
C=c1c(=Cc2sc(=O)[n-]c2[O-])cc(C(=O)N2CCC(O)CC2)n1Cc1ccccc1

> <Energy>
132.9289378251122

> <Genealogy>
C=c1c(=Cc2sc(=O)[n-]c2[O-])cc(C(=O)N2CCC(O)CC2)n1Cc1ccccc1 (protonated)
C=c1c(=Cc2sc(=O)[n-]c2[O-])cc(C(=O)N2CCC(O)CC2)n1Cc1ccccc1 (3D coordinates assigned)
C=c1c(=Cc2sc(=O)[n-]c2[O-])cc(C(=O)N2CCC(O)CC2)n1Cc1ccccc1 (nonaromatic ring conformer: 132.9289378251122 kcal/mol)

> <smiles>
C=c1c(=Cc2sc(=O)[nH]c2O)cc(C(=O)N2CCC(O)CC2)n1Cc1ccccc1

> <score_type>
oracle

> <origin>
adg

> <m_score__min__energy>
-14.41

> <m_primary>
energy

> <minimizedAffinity>
-6.42956

> <minimizedRMSD>
0.76776

> <CNNscore>
0.1233066022

> <CNNaffinity>
6.3982949257

> <CNN_VS>
0.7889519930

> <CNNaffinity_variance>
0.0026681947

$$$$
29:0


 31 34  0  0  0  0  0  0  0  0999 V2000
   56.4547   31.5208   52.7793 C   0  0  0  0  0  0  0  0  0  0  0  0
   56.0129   30.3111   53.1569 C   0  0  0  0  0  0  0  0  0  0  0  0
   54.6783   29.9222   53.3074 C   0  0  0  0  0  0  0  0  0  0  0  0
   53.5817   30.6802   53.1234 C   0  0  0  0  0  0  0  0  0  0  0  0
   54.7035   28.6021   53.7418 C   0  0  0  0  0  0  0  0  0  0  0  0
   56.0339   28.2419   53.8341 C   0  0  0  0  0  0  0  0  0  0  0  0
   56.5288   26.8849   54.2326 C   0  0  0  0  0  0  0  0  0  0  0  0
   56.8266   29.2718   53.4670 N   0  0  0  0  0  0  0  0  0  0  0  0
   58.2614   29.2445   53.4109 C   0  0  0  0  0  0  0  0  0  0  0  0
   58.9035   28.6445   54.3157 O   0  0  0  0  0  0  0  0  0  0  0  0
   58.9633   29.8814   52.3269 N   0  0  0  0  0  0  0  0  0  0  0  0
   60.4026   30.1526   52.4435 C   0  0  0  0  0  0  0  0  0  0  0  0
   60.7709   31.4232   51.6683 C   0  0  0  0  0  0  0  0  0  0  0  0
   60.2064   31.4116   50.3137 N   0  0  0  0  0  0  0  0  0  0  0  0
   60.5238   32.4976   49.4243 C   0  0  0  0  0  0  0  0  0  0  0  0
   60.4434   33.6833   49.8418 O   0  0  0  0  0  0  0  0  0  0  0  0
   59.2582   30.3682   49.9100 C   0  0  0  0  0  0  0  0  0  0  0  0
   58.2713   30.0820   51.0443 C   0  0  0  0  0  0  0  0  0  0  0  0
   52.8026   30.7059   51.8726 C   0  0  0  0  0  0  0  0  0  0  0  0
   52.9597   29.8055   50.8868 N   0  0  0  0  0  0  0  0  0  0  0  0
   52.0055   30.1496   49.9932 C   0  0  0  0  0  0  0  0  0  0  0  0
   51.8401   29.5349   48.9078 O   0  0  0  0  0  0  0  0  0  0  0  0
   51.2338   31.1953   50.3621 N   0  0  0  0  0  0  0  0  0  0  0  0
   51.7433   31.5295   51.5589 C   0  0  0  0  0  0  0  0  0  0  0  0
   51.2201   32.5338   52.3635 O   0  0  0  0  0  0  0  0  0  0  0  0
   60.9620   32.2690   48.0771 N   0  0  0  0  0  0  0  0  0  0  0  0
   60.1931   32.5621   46.8701 C   0  0  0  0  0  0  0  0  0  0  0  0
   58.7047   32.5608   47.1762 C   0  0  0  0  0  0  0  0  0  0  0  0
   58.0792   33.4938   46.1478 C   0  0  0  0  0  0  0  0  0  0  0  0
   59.1947   34.4146   45.6566 C   0  0  0  0  0  0  0  0  0  0  0  0
   60.4776   33.9639   46.3427 C   0  0  0  0  0  0  0  0  0  0  0  0
  1  2  2  0
  2  3  1  0
  3  4  2  0
  4 19  1  0
 19 20  1  0
 20 21  1  0
 21 22  2  0
 21 23  1  0
 23 24  1  0
 24 25  1  0
  3  5  1  0
  5  6  2  0
  6  7  1  0
  6  8  1  0
  8  9  1  0
  9 10  2  0
  9 11  1  0
 11 12  1  0
 12 13  1  0
 13 14  1  0
 14 15  1  0
 15 16  2  0
 15 26  1  0
 26 27  1  0
 27 28  1  0
 28 29  1  0
 29 30  1  0
 30 31  1  0
 14 17  1  0
 17 18  1  0
  8  2  1  0
 18 11  1  0
 24 19  2  0
 31 27  1  0
M  CHG 1  20  -1
M  CHG 1  23  -1
M  CHG 1  25  -1
M  CHG 1  26  -1
M  END
> <UniqueID>
27

> <SMILES>
C=c1/c(=C/c2[n-]c(=O)[n-]c2[O-])cc(C)n1C(=O)N1CCN(C(=O)[N-]C2CCCC2)CC1

> <Energy>
128.03136557366068

> <Genealogy>
C=c1c(=Cc2[n-]c(=O)[n-]c2[O-])cc(C)n1C(=O)N1CCN(C(=O)[N-]C2CCCC2)CC1 (protonated)
C=c1/c(=C/c2[n-]c(=O)[n-]c2[O-])cc(C)n1C(=O)N1CCN(C(=O)[N-]C2CCCC2)CC1 (cis-trans isomerization)
C=c1/c(=C/c2[n-]c(=O)[n-]c2[O-])cc(C)n1C(=O)N1CCN(C(=O)[N-]C2CCCC2)CC1 (3D coordinates assigned)
C=c1/c(=C/c2[n-]c(=O)[n-]c2[O-])cc(C)n1C(=O)N1CCN(C(=O)[N-]C2CCCC2)CC1 (nonaromatic ring conformer: 128.03136557366068 kcal/mol)

> <smiles>
C=c1c(=Cc2[nH]c(=O)[nH]c2O)cc(C)n1C(=O)N1CCN(C(=O)NC2CCCC2)CC1

> <score_type>
oracle

> <origin>
adg

> <m_score__min__energy>
-18.550000000000001

> <m_primary>
energy

> <minimizedAffinity>
-7.40726

> <minimizedRMSD>
0.83946

> <CNNscore>
0.1086685061

> <CNNaffinity>
5.9138336182

> <CNN_VS>
0.6426474452

> <CNNaffinity_variance>
0.0431591086

$$$$
30:0


 21 22  0  0  0  0  0  0  0  0999 V2000
   59.2528   27.5372   44.9860 N   0  0  0  0  0  0  0  0  0  0  0  0
   58.3099   27.5765   43.8643 C   0  0  0  0  0  0  0  0  0  0  0  0
   59.1040   26.5549   46.0304 C   0  0  0  0  0  0  0  0  0  0  0  0
   59.9059   25.5832   46.0935 O   0  0  0  0  0  0  0  0  0  0  0  0
   60.2947   28.5635   45.1087 C   0  0  0  0  0  0  0  0  0  0  0  0
   59.0414   31.5569   47.3049 C   0  0  0  0  0  0  0  0  0  0  0  0
   58.1244   31.3512   46.3332 N   0  0  0  0  0  0  0  0  0  0  0  0
   58.4957   30.3551   45.4880 C   0  0  0  0  0  0  0  0  0  0  0  0
   59.7245   29.7728   45.7793 C   0  0  0  0  0  0  0  0  0  0  0  0
   60.3477   30.5051   47.1585 S   0  0  0  0  0  0  0  0  0  0  0  0
   58.8827   32.5745   48.3859 C   0  0  0  0  0  0  0  0  0  0  0  0
   59.5214   34.6784   46.8078 C   0  0  0  0  0  0  0  0  0  0  0  0
   60.1969   33.8382   48.2765 S   0  0  0  0  0  0  0  0  0  0  0  0
   58.0815   26.7205   47.1163 C   0  0  0  0  0  0  0  0  0  0  0  0
   57.2696   25.4669   47.2294 C   0  0  0  0  0  0  0  0  0  0  0  0
   57.6922   24.3443   47.8382 N   0  0  0  0  0  0  0  0  0  0  0  0
   56.6922   23.4676   47.6037 C   0  0  0  0  0  0  0  0  0  0  0  0
   56.7183   22.2822   48.0250 O   0  0  0  0  0  0  0  0  0  0  0  0
   55.6682   23.9569   46.8717 N   0  0  0  0  0  0  0  0  0  0  0  0
   56.0543   25.2212   46.6363 C   0  0  0  0  0  0  0  0  0  0  0  0
   55.3173   26.1263   45.8831 O   0  0  0  0  0  0  0  0  0  0  0  0
 12 13  1  0
 13 11  1  0
 11  6  1  0
  6  7  2  0
  7  8  1  0
  8  9  2  0
  9  5  1  0
  5  1  1  0
  1  2  1  0
  1  3  1  0
  3  4  2  0
  3 14  1  0
 14 15  1  0
 15 16  1  0
 16 17  1  0
 17 18  2  0
 17 19  1  0
 19 20  1  0
 20 21  1  0
  9 10  1  0
 10  6  1  0
 20 15  2  0
M  CHG 1  16  -1
M  CHG 1  19  -1
M  CHG 1  21  -1
M  END
> <UniqueID>
28

> <SMILES>
CSCc1ncc(CN(C)C(=O)Cc2[n-]c(=O)[n-]c2[O-])s1

> <Energy>
81.21890992924159

> <Genealogy>
CSCc1ncc(CN(C)C(=O)Cc2[n-]c(=O)[n-]c2[O-])s1 (protonated)
CSCc1ncc(CN(C)C(=O)Cc2[n-]c(=O)[n-]c2[O-])s1 (3D coordinates assigned)
CSCc1ncc(CN(C)C(=O)Cc2[n-]c(=O)[n-]c2[O-])s1 (optimized conformer: 81.21890992924159 kcal/mol)

> <smiles>
CSCc1ncc(CN(C)C(=O)Cc2[nH]c(=O)[nH]c2O)s1

> <score_type>
oracle

> <origin>
adg

> <m_score__min__energy>
-14.84

> <m_primary>
energy

> <minimizedAffinity>
-5.43485

> <minimizedRMSD>
1.59463

> <CNNscore>
0.2058807313

> <CNNaffinity>
5.7087302208

> <CNN_VS>
1.1753175259

> <CNNaffinity_variance>
0.6249838471

$$$$
37:0


 27 29  0  0  0  0  0  0  0  0999 V2000
   56.3457   31.6897   52.2257 C   0  0  0  0  0  0  0  0  0  0  0  0
   56.1102   30.5301   52.8594 C   0  0  0  0  0  0  0  0  0  0  0  0
   54.8693   30.0644   53.3075 C   0  0  0  0  0  0  0  0  0  0  0  0
   53.6763   30.6815   53.1939 C   0  0  0  0  0  0  0  0  0  0  0  0
   55.0972   28.8029   53.8400 C   0  0  0  0  0  0  0  0  0  0  0  0
   56.4476   28.5529   53.7023 C   0  0  0  0  0  0  0  0  0  0  0  0
   57.1176   27.2782   54.1161 C   0  0  0  0  0  0  0  0  0  0  0  0
   57.0710   29.6156   53.1463 N   0  0  0  0  0  0  0  0  0  0  0  0
   58.4618   29.6917   52.7823 C   0  0  0  0  0  0  0  0  0  0  0  0
   59.3206   29.7733   53.7017 O   0  0  0  0  0  0  0  0  0  0  0  0
   58.9018   29.6981   51.3972 N   0  0  0  0  0  0  0  0  0  0  0  0
   60.2812   29.1434   51.2858 C   0  0  0  0  0  0  0  0  0  0  0  0
   61.1525   29.8676   50.2550 C   0  0  0  0  0  0  0  0  0  0  0  0
   61.1564   31.3055   50.5513 N   0  0  0  0  0  0  0  0  0  0  0  0
   62.3790   32.0691   50.4772 C   0  0  0  0  0  0  0  0  0  0  0  0
   63.4153   31.5585   49.9677 O   0  0  0  0  0  0  0  0  0  0  0  0
   62.4483   33.4778   50.9838 C   0  0  0  0  0  0  0  0  0  0  0  0
   59.8830   31.9661   50.8630 C   0  0  0  0  0  0  0  0  0  0  0  0
   58.6977   31.0015   50.7096 C   0  0  0  0  0  0  0  0  0  0  0  0
   59.5084   29.1461   50.8526 H   0  0  0  0  0  0  0  0  0  0  0  0
   52.8188   30.6023   51.9972 C   0  0  0  0  0  0  0  0  0  0  0  0
   53.0437   29.7481   50.9849 N   0  0  0  0  0  0  0  0  0  0  0  0
   52.0907   30.0729   50.0834 C   0  0  0  0  0  0  0  0  0  0  0  0
   51.9653   29.4730   48.9837 O   0  0  0  0  0  0  0  0  0  0  0  0
   51.2906   31.0956   50.4485 N   0  0  0  0  0  0  0  0  0  0  0  0
   51.7703   31.4304   51.6568 C   0  0  0  0  0  0  0  0  0  0  0  0
   51.2908   32.4976   52.4047 O   0  0  0  0  0  0  0  0  0  0  0  0
  1  2  2  0
  2  3  1  0
  3  4  2  0
  4 21  1  0
 21 22  1  0
 22 23  1  0
 23 24  2  0
 23 25  1  0
 25 26  1  0
 26 27  1  0
  3  5  1  0
  5  6  2  0
  6  7  1  0
  6  8  1  0
  8  9  1  0
  9 10  2  0
  9 11  1  0
 11 12  1  0
 12 13  1  0
 13 14  1  0
 14 15  1  0
 15 16  2  0
 15 17  1  0
 14 18  1  0
 18 19  1  0
  8  2  1  0
 19 11  1  0
 26 21  2  0
 11 20  1  0
M  CHG 1  11   1
M  CHG 1  22  -1
M  CHG 1  25  -1
M  CHG 1  27  -1
M  END
> <UniqueID>
35

> <SMILES>
C=c1/c(=C/c2[n-]c(=O)[n-]c2[O-])cc(C)n1C(=O)[NH+]1CCN(C(C)=O)CC1

> <Energy>
126.52357178959353

> <Genealogy>
C=c1c(=Cc2[n-]c(=O)[n-]c2[O-])cc(C)n1C(=O)[NH+]1CCN(C(C)=O)CC1 (protonated)
C=c1/c(=C/c2[n-]c(=O)[n-]c2[O-])cc(C)n1C(=O)[NH+]1CCN(C(C)=O)CC1 (cis-trans isomerization)
C=c1/c(=C/c2[n-]c(=O)[n-]c2[O-])cc(C)n1C(=O)[NH+]1CCN(C(C)=O)CC1 (3D coordinates assigned)
C=c1/c(=C/c2[n-]c(=O)[n-]c2[O-])cc(C)n1C(=O)[NH+]1CCN(C(C)=O)CC1 (nonaromatic ring conformer: 126.52357178959353 kcal/mol)

> <smiles>
C=c1c(=Cc2[nH]c(=O)[nH]c2O)cc(C)n1C(=O)N1CCN(C(C)=O)CC1

> <score_type>
oracle

> <origin>
adg

> <m_score__min__energy>
-14.94

> <m_primary>
energy

> <minimizedAffinity>
-5.06594

> <minimizedRMSD>
1.02687

> <CNNscore>
0.0650740713

> <CNNaffinity>
4.2875370979

> <CNN_VS>
0.2790074944

> <CNNaffinity_variance>
0.4486307800

$$$$
38:0


 29 31  0  0  0  0  0  0  0  0999 V2000
   58.9302   27.0731   46.6656 C   0  0  0  0  0  0  0  0  0  0  0  0
   58.1682   26.0434   47.0776 N   0  0  0  0  0  0  0  0  0  0  0  0
   57.0197   26.2112   46.3895 C   0  0  0  0  0  0  0  0  0  0  0  0
   56.0395   25.4305   46.5051 O   0  0  0  0  0  0  0  0  0  0  0  0
   57.0054   27.2793   45.5645 N   0  0  0  0  0  0  0  0  0  0  0  0
   58.2213   27.8265   45.7421 C   0  0  0  0  0  0  0  0  0  0  0  0
   60.3237   27.3176   47.1650 C   0  0  0  0  0  0  0  0  0  0  0  0
   60.3007   27.7344   48.6110 C   0  0  0  0  0  0  0  0  0  0  0  0
   60.8141   26.9693   49.4697 O   0  0  0  0  0  0  0  0  0  0  0  0
   61.3751   31.3103   51.3014 C   0  0  0  0  0  0  0  0  0  0  0  0
   60.6202   30.2950   50.8077 N   0  0  0  0  0  0  0  0  0  0  0  0
   60.5554   30.0165   49.4739 C   0  0  0  0  0  0  0  0  0  0  0  0
   59.8335   29.0249   49.0322 N   0  0  0  0  0  0  0  0  0  0  0  0
   61.3089   30.7910   48.5685 C   0  0  0  0  0  0  0  0  0  0  0  0
   61.2697   30.5153   47.0879 C   0  0  0  0  0  0  0  0  0  0  0  0
   62.0991   31.8392   49.0684 C   0  0  0  0  0  0  0  0  0  0  0  0
   62.1304   32.1015   50.4378 C   0  0  0  0  0  0  0  0  0  0  0  0
   58.6908   29.0469   44.9985 C   0  0  0  0  0  0  0  0  0  0  0  0
   57.5541   29.9259   44.5714 C   0  0  0  0  0  0  0  0  0  0  0  0
   56.9464   29.6689   43.4987 O   0  0  0  0  0  0  0  0  0  0  0  0
   57.1783   31.0523   45.3751 N   0  0  0  0  0  0  0  0  0  0  0  0
   57.9581   32.2317   45.6277 C   0  0  0  0  0  0  0  0  0  0  0  0
   58.3728   32.5696   46.9301 C   0  0  0  0  0  0  0  0  0  0  0  0
   59.1490   33.7123   47.1480 C   0  0  0  0  0  0  0  0  0  0  0  0
   59.6588   34.1259   48.7755 Cl  0  0  0  0  0  0  0  0  0  0  0  0
   59.5299   34.5174   46.0711 C   0  0  0  0  0  0  0  0  0  0  0  0
   59.1432   34.1799   44.7728 C   0  0  0  0  0  0  0  0  0  0  0  0
   58.3595   33.0376   44.5395 C   0  0  0  0  0  0  0  0  0  0  0  0
   57.9475   32.6827   43.1351 C   0  0  0  0  0  0  0  0  0  0  0  0
 10 11  1  0
 11 12  1  0
 12 13  2  0
 13  8  1  0
  8  9  2  0
  8  7  1  0
  7  1  1  0
  1  2  1  0
  2  3  1  0
  3  4  2  0
  3  5  1  0
  5  6  1  0
  6 18  1  0
 18 19  1  0
 19 20  2  0
 19 21  1  0
 21 22  1  0
 22 23  2  0
 23 24  1  0
 24 25  1  0
 24 26  2  0
 26 27  1  0
 27 28  2  0
 28 29  1  0
 12 14  1  0
 14 15  1  0
 14 16  2  0
 16 17  1  0
 17 10  2  0
  6  1  2  0
 28 22  1  0
M  CHG 1   2  -1
M  CHG 1   5  -1
M  CHG 1  11  -1
M  CHG 1  21  -1
M  END
> <UniqueID>
36

> <SMILES>
Cc1ccc(Cl)cc1[N-]C(=O)Cc1[n-]c(=O)[n-]c1CC(=O)/N=c1\[n-]cccc1C

> <Energy>
80.28479959660143

> <Genealogy>
Cc1ccc(Cl)cc1[N-]C(=O)Cc1[n-]c(=O)[n-]c1CC(=O)N=c1[n-]cccc1C (protonated)
Cc1ccc(Cl)cc1[N-]C(=O)Cc1[n-]c(=O)[n-]c1CC(=O)/N=c1\[n-]cccc1C (cis-trans isomerization)
Cc1ccc(Cl)cc1[N-]C(=O)Cc1[n-]c(=O)[n-]c1CC(=O)/N=c1\[n-]cccc1C (3D coordinates assigned)
Cc1ccc(Cl)cc1[N-]C(=O)Cc1[n-]c(=O)[n-]c1CC(=O)/N=c1\[n-]cccc1C (optimized conformer: 80.28479959660143 kcal/mol)

> <smiles>
Cc1ccc(Cl)cc1NC(=O)Cc1[nH]c(=O)[nH]c1CC(=O)N=c1[nH]cccc1C

> <score_type>
oracle

> <origin>
adg

> <m_score__min__energy>
-15.050000000000001

> <m_primary>
energy

> <minimizedAffinity>
-7.62745

> <minimizedRMSD>
1.51832

> <CNNscore>
0.7087626457

> <CNNaffinity>
7.3396911621

> <CNN_VS>
5.2020988464

> <CNNaffinity_variance>
0.0419382416

$$$$
52:0


 27 29  0  0  0  0  0  0  0  0999 V2000
   60.4281   26.7302   47.6812 C   0  0  0  0  0  0  0  0  0  0  0  0
   59.5616   27.1363   46.7383 C   0  0  0  0  0  0  0  0  0  0  0  0
   58.8099   26.3051   45.8959 C   0  0  0  0  0  0  0  0  0  0  0  0
   58.8547   24.9549   45.8397 C   0  0  0  0  0  0  0  0  0  0  0  0
   58.0197   27.1516   45.1302 C   0  0  0  0  0  0  0  0  0  0  0  0
   58.3253   28.4416   45.5117 C   0  0  0  0  0  0  0  0  0  0  0  0
   59.2599   28.4402   46.4939 N   0  0  0  0  0  0  0  0  0  0  0  0
   57.7186   24.0643   45.5131 C   0  0  0  0  0  0  0  0  0  0  0  0
   57.5821   23.3301   44.3940 N   0  0  0  0  0  0  0  0  0  0  0  0
   56.3824   22.7339   44.5489 C   0  0  0  0  0  0  0  0  0  0  0  0
   55.8993   21.9491   43.6917 O   0  0  0  0  0  0  0  0  0  0  0  0
   55.7377   23.0471   45.6918 N   0  0  0  0  0  0  0  0  0  0  0  0
   56.5952   23.8922   46.2872 C   0  0  0  0  0  0  0  0  0  0  0  0
   56.3536   24.4940   47.5163 O   0  0  0  0  0  0  0  0  0  0  0  0
   57.6488   29.6316   44.9617 C   0  0  0  0  0  0  0  0  0  0  0  0
   56.3911   29.6991   45.0098 O   0  0  0  0  0  0  0  0  0  0  0  0
   58.3992   30.6769   44.3297 N   0  0  0  0  0  0  0  0  0  0  0  0
   59.3251   30.4936   44.0499 H   0  0  0  0  0  0  0  0  0  0  0  0
   57.8398   32.0041   44.0856 C   0  0  0  0  0  0  0  0  0  0  0  0
   58.3481   32.9703   45.1200 C   0  0  0  0  0  0  0  0  0  0  0  0
   58.2102   32.6909   46.4890 C   0  0  0  0  0  0  0  0  0  0  0  0
   58.7253   33.5739   47.4425 C   0  0  0  0  0  0  0  0  0  0  0  0
   59.3896   34.7349   47.0354 C   0  0  0  0  0  0  0  0  0  0  0  0
   59.5407   35.0134   45.6750 C   0  0  0  0  0  0  0  0  0  0  0  0
   59.0249   34.1337   44.7174 C   0  0  0  0  0  0  0  0  0  0  0  0
   59.7613   29.6163   47.2246 C   0  0  0  0  0  0  0  0  0  0  0  0
   59.0895   29.7437   48.5905 C   0  0  0  0  0  0  0  0  0  0  0  0
  1  2  2  0
  2  3  1  0
  3  4  2  0
  4  8  1  0
  8  9  1  0
  9 10  1  0
 10 11  2  0
 10 12  1  0
 12 13  1  0
 13 14  1  0
  3  5  1  0
  5  6  2  0
  6 15  1  0
 15 16  2  0
 15 17  1  0
 17 19  1  0
 19 20  1  0
 20 21  2  0
 21 22  1  0
 22 23  2  0
 23 24  1  0
 24 25  2  0
  6  7  1  0
  7 26  1  0
 26 27  1  0
  7  2  1  0
 13  8  2  0
 25 20  1  0
 17 18  1  0
M  CHG 1   9  -1
M  CHG 1  12  -1
M  CHG 1  14  -1
M  END
> <UniqueID>
50

> <SMILES>
C=c1c(=Cc2[n-]c(=O)[n-]c2[O-])cc(C(=O)NCc2ccccc2)n1CC

> <Energy>
106.77134181589665

> <Genealogy>
C=c1c(=Cc2[n-]c(=O)[n-]c2[O-])cc(C(=O)NCc2ccccc2)n1CC (protonated)
C=c1c(=Cc2[n-]c(=O)[n-]c2[O-])cc(C(=O)NCc2ccccc2)n1CC (3D coordinates assigned)
C=c1c(=Cc2[n-]c(=O)[n-]c2[O-])cc(C(=O)NCc2ccccc2)n1CC (optimized conformer: 106.77134181589665 kcal/mol)

> <smiles>
C=c1c(=Cc2[nH]c(=O)[nH]c2O)cc(C(=O)NCc2ccccc2)n1CC

> <score_type>
oracle

> <origin>
adg

> <m_score__min__energy>
-17.620000000000001

> <m_primary>
energy

> <minimizedAffinity>
-8.68000

> <minimizedRMSD>
1.41969

> <CNNscore>
0.3589181006

> <CNNaffinity>
6.4623236656

> <CNN_VS>
2.3194448948

> <CNNaffinity_variance>
0.0156795401

$$$$
78:0


 32 35  0  0  0  0  0  0  0  0999 V2000
   60.6378   29.7388   46.7514 C   0  0  0  0  0  0  0  0  0  0  0  0
   60.5874   26.7489   46.1975 C   0  0  0  0  0  0  0  0  0  0  0  0
   59.5499   27.5669   45.9484 C   0  0  0  0  0  0  0  0  0  0  0  0
   58.3427   27.2040   45.3272 C   0  0  0  0  0  0  0  0  0  0  0  0
   57.8233   25.9941   45.0410 C   0  0  0  0  0  0  0  0  0  0  0  0
   57.6878   28.3830   45.0327 C   0  0  0  0  0  0  0  0  0  0  0  0
   58.4628   29.4073   45.5307 C   0  0  0  0  0  0  0  0  0  0  0  0
   58.0891   30.8565   45.4371 C   0  0  0  0  0  0  0  0  0  0  0  0
   59.5796   28.9202   46.1266 N   0  0  0  0  0  0  0  0  0  0  0  0
   57.2136   25.0684   46.0080 C   0  0  0  0  0  0  0  0  0  0  0  0
   57.8570   24.0100   46.5298 N   0  0  0  0  0  0  0  0  0  0  0  0
   56.9012   23.3869   47.2518 C   0  0  0  0  0  0  0  0  0  0  0  0
   57.1245   22.3404   47.9146 O   0  0  0  0  0  0  0  0  0  0  0  0
   55.6817   23.9647   47.1976 N   0  0  0  0  0  0  0  0  0  0  0  0
   55.8918   25.0205   46.3945 C   0  0  0  0  0  0  0  0  0  0  0  0
   54.8931   25.9012   46.0001 O   0  0  0  0  0  0  0  0  0  0  0  0
   60.4230   29.8979   48.2450 C   0  0  0  0  0  0  0  0  0  0  0  0
   60.4140   28.7393   49.0400 C   0  0  0  0  0  0  0  0  0  0  0  0
   60.2719   28.8260   50.4214 C   0  0  0  0  0  0  0  0  0  0  0  0
   60.1029   30.0633   51.0317 C   0  0  0  0  0  0  0  0  0  0  0  0
   60.0286   31.2326   50.2650 C   0  0  0  0  0  0  0  0  0  0  0  0
   60.2169   31.1668   48.8566 C   0  0  0  0  0  0  0  0  0  0  0  0
   60.2789   32.4325   48.0286 C   0  0  0  0  0  0  0  0  0  0  0  0
   59.8019   32.7983   51.1407 S   0  0  0  0  0  0  0  0  0  0  0  0
   58.2097   32.4400   52.0050 C   0  0  0  0  0  0  0  0  0  0  0  0
   57.4173   31.2835   51.3630 C   0  0  0  0  0  0  0  0  0  0  0  0
   56.2818   30.8467   52.2983 C   0  0  0  0  0  0  0  0  0  0  0  0
   56.7786   30.3379   53.6107 N   0  0  0  0  0  0  0  0  0  0  0  0
   56.7419   28.8654   53.6511 C   0  0  0  0  0  0  0  0  0  0  0  0
   58.1399   30.8161   53.9742 C   0  0  0  0  0  0  0  0  0  0  0  0
   58.3741   32.2687   53.5341 C   0  0  0  0  0  0  0  0  0  0  0  0
   56.1404   30.7239   54.3065 H   0  0  0  0  0  0  0  0  0  0  0  0
  2  3  2  0
  3  4  1  0
  4  5  2  0
  5 10  1  0
 10 11  1  0
 11 12  1  0
 12 13  2  0
 12 14  1  0
 14 15  1  0
 15 16  1  0
  4  6  1  0
  6  7  2  0
  7  8  1  0
  7  9  1  0
  9  1  1  0
  1 17  1  0
 17 18  2  0
 18 19  1  0
 19 20  2  0
 20 21  1  0
 21 24  1  0
 25 24  1  0
 25 26  1  0
 26 27  1  0
 27 28  1  0
 28 29  1  0
 28 30  1  0
 30 31  1  0
 21 22  2  0
 22 23  1  0
  9  3  1  0
 22 17  1  0
 15 10  2  0
 31 25  1  0
 28 32  1  0
M  CHG 1  11  -1
M  CHG 1  14  -1
M  CHG 1  16  -1
M  CHG 1  28   1
M  END
> <UniqueID>
74

> <SMILES>
C=c1/c(=C\c2[n-]c(=O)[n-]c2[O-])cc(C)n1Cc1cccc(SC2CC[NH+](C)CC2)c1C

> <Energy>
141.32444155412756

> <Genealogy>
C=c1c(=Cc2[n-]c(=O)[n-]c2[O-])cc(C)n1Cc1cccc(SC2CC[NH+](C)CC2)c1C (protonated)
C=c1/c(=C\c2[n-]c(=O)[n-]c2[O-])cc(C)n1Cc1cccc(SC2CC[NH+](C)CC2)c1C (cis-trans isomerization)
C=c1/c(=C\c2[n-]c(=O)[n-]c2[O-])cc(C)n1Cc1cccc(SC2CC[NH+](C)CC2)c1C (3D coordinates assigned)
C=c1/c(=C\c2[n-]c(=O)[n-]c2[O-])cc(C)n1Cc1cccc(SC2CC[NH+](C)CC2)c1C (nonaromatic ring conformer: 141.32444155412756 kcal/mol)

> <smiles>
C=c1c(=Cc2[nH]c(=O)[nH]c2O)cc(C)n1Cc1cccc(SC2CCN(C)CC2)c1C

> <score_type>
oracle

> <origin>
adg

> <m_score__min__energy>
-15.82

> <m_primary>
energy

> <minimizedAffinity>
-7.82663

> <minimizedRMSD>
1.00339

> <CNNscore>
0.1339951456

> <CNNaffinity>
6.2888073921

> <CNN_VS>
0.8426696658

> <CNNaffinity_variance>
0.1849281937

$$$$
0:0


 29 32  0  0  0  0  0  0  0  0999 V2000
   56.6556   30.0317   43.7935 C   0  0  0  0  0  0  0  0  0  0  0  0
   57.4391   29.3545   44.6362 C   0  0  0  0  0  0  0  0  0  0  0  0
   57.6609   28.0289   44.5056 N   0  0  0  0  0  0  0  0  0  0  0  0
   58.4794   27.6659   45.5087 C   0  0  0  0  0  0  0  0  0  0  0  0
   58.9211   26.4140   45.6706 C   0  0  0  0  0  0  0  0  0  0  0  0
   58.7933   28.7616   46.2978 C   0  0  0  0  0  0  0  0  0  0  0  0
   58.1326   29.8519   45.7458 C   0  0  0  0  0  0  0  0  0  0  0  0
   57.2930   27.4397   43.8080 H   0  0  0  0  0  0  0  0  0  0  0  0
   58.0327   25.2962   46.0147 C   0  0  0  0  0  0  0  0  0  0  0  0
   58.4236   24.0115   46.0410 N   0  0  0  0  0  0  0  0  0  0  0  0
   57.2720   23.3375   46.2642 C   0  0  0  0  0  0  0  0  0  0  0  0
   57.2223   22.0836   46.3480 O   0  0  0  0  0  0  0  0  0  0  0  0
   56.1716   24.1159   46.3647 N   0  0  0  0  0  0  0  0  0  0  0  0
   56.6700   25.3532   46.1943 C   0  0  0  0  0  0  0  0  0  0  0  0
   55.8894   26.5033   46.1762 O   0  0  0  0  0  0  0  0  0  0  0  0
   58.2201   31.2519   46.2466 C   0  0  0  0  0  0  0  0  0  0  0  0
   57.5457   32.1563   45.6795 O   0  0  0  0  0  0  0  0  0  0  0  0
   59.1436   31.6009   47.3125 N   0  0  0  0  0  0  0  0  0  0  0  0
   60.5320   31.4145   46.8478 C   0  0  0  0  0  0  0  0  0  0  0  0
   61.5311   31.7748   47.9578 C   0  0  0  0  0  0  0  0  0  0  0  0
   61.3107   33.1659   48.3918 N   0  0  0  0  0  0  0  0  0  0  0  0
   59.9292   33.3374   48.8924 C   0  0  0  0  0  0  0  0  0  0  0  0
   58.9257   32.9851   47.7892 C   0  0  0  0  0  0  0  0  0  0  0  0
   58.3057   31.1423   47.0743 H   0  0  0  0  0  0  0  0  0  0  0  0
   62.3926   33.6400   49.3022 C   0  0  0  0  0  0  0  0  0  0  0  0
   63.7562   32.9552   49.1762 C   0  0  0  0  0  0  0  0  0  0  0  0
   64.4384   33.2562   50.4989 C   0  0  0  0  0  0  0  0  0  0  0  0
   63.3201   33.3595   51.5374 C   0  0  0  0  0  0  0  0  0  0  0  0
   62.0023   33.4726   50.7685 C   0  0  0  0  0  0  0  0  0  0  0  0
  1  2  2  0
  2  3  1  0
  3  4  1  0
  4  5  2  0
  5  9  1  0
  9 10  1  0
 10 11  1  0
 11 12  2  0
 11 13  1  0
 13 14  1  0
 14 15  1  0
  4  6  1  0
  6  7  2  0
  7 16  1  0
 16 17  2  0
 16 18  1  0
 18 19  1  0
 19 20  1  0
 20 21  1  0
 21 25  1  0
 25 26  1  0
 26 27  1  0
 27 28  1  0
 28 29  1  0
 21 22  1  0
 22 23  1  0
  7  2  1  0
 23 18  1  0
 14  9  2  0
 29 25  1  0
  3  8  1  0
 18 24  1  0
M  CHG 1  10  -1
M  CHG 1  13  -1
M  CHG 1  15  -1
M  CHG 1  18   1
M  END
> <UniqueID>
1

> <SMILES>
C=c1[nH]c(=Cc2[n-]c(=O)[n-]c2[O-])cc1C(=O)[NH+]1CCN(C2CCCC2)CC1

> <Energy>
129.80391671491347

> <Genealogy>
C=c1[nH]c(=Cc2[n-]c(=O)[n-]c2[O-])cc1C(=O)[NH+]1CCN(C2CCCC2)CC1 (protonated)
C=c1[nH]c(=Cc2[n-]c(=O)[n-]c2[O-])cc1C(=O)[NH+]1CCN(C2CCCC2)CC1 (3D coordinates assigned)
C=c1[nH]c(=Cc2[n-]c(=O)[n-]c2[O-])cc1C(=O)[NH+]1CCN(C2CCCC2)CC1 (nonaromatic ring conformer: 129.80391671491347 kcal/mol)

> <smiles>
C=c1[nH]c(=Cc2[nH]c(=O)[nH]c2O)cc1C(=O)N1CCN(C2CCCC2)CC1

> <score_type>
oracle

> <origin>
adg

> <m_score__min__energy>
-16.449999999999999

> <m_primary>
energy

> <minimizedAffinity>
-8.30599

> <minimizedRMSD>
0.99765

> <CNNscore>
0.1039394438

> <CNNaffinity>
6.1792969704

> <CNN_VS>
0.6422727108

> <CNNaffinity_variance>
0.0256769564

$$$$
3:0


 30 33  0  0  0  0  0  0  0  0999 V2000
   54.2099   27.8706   53.7433 C   0  0  0  0  0  0  0  0  0  0  0  0
   55.0535   28.7744   53.2198 C   0  0  0  0  0  0  0  0  0  0  0  0
   54.7103   29.9121   52.4736 C   0  0  0  0  0  0  0  0  0  0  0  0
   53.5387   30.2913   51.9249 C   0  0  0  0  0  0  0  0  0  0  0  0
   55.8624   30.6687   52.3710 C   0  0  0  0  0  0  0  0  0  0  0  0
   56.8765   29.9562   52.9882 C   0  0  0  0  0  0  0  0  0  0  0  0
   56.3871   28.7915   53.4795 N   0  0  0  0  0  0  0  0  0  0  0  0
   57.1495   27.7753   54.2152 C   0  0  0  0  0  0  0  0  0  0  0  0
   52.3558   30.7602   52.6634 C   0  0  0  0  0  0  0  0  0  0  0  0
   52.1403   30.4973   53.9636 N   0  0  0  0  0  0  0  0  0  0  0  0
   51.0309   31.2143   54.2468 C   0  0  0  0  0  0  0  0  0  0  0  0
   50.4976   31.2154   55.3862 O   0  0  0  0  0  0  0  0  0  0  0  0
   50.5470   31.9421   53.2171 N   0  0  0  0  0  0  0  0  0  0  0  0
   51.4068   31.6557   52.2259 C   0  0  0  0  0  0  0  0  0  0  0  0
   51.3390   32.2222   50.9602 O   0  0  0  0  0  0  0  0  0  0  0  0
   58.2755   30.4298   53.1698 C   0  0  0  0  0  0  0  0  0  0  0  0
   58.7396   30.4781   54.3415 O   0  0  0  0  0  0  0  0  0  0  0  0
   59.1129   30.8803   52.0720 N   0  0  0  0  0  0  0  0  0  0  0  0
   58.9762   32.3418   51.8672 C   0  0  0  0  0  0  0  0  0  0  0  0
   59.4337   32.7835   50.4628 C   0  0  0  0  0  0  0  0  0  0  0  0
   60.4663   31.8622   49.9536 N   0  0  0  0  0  0  0  0  0  0  0  0
   59.9319   30.4923   49.7607 C   0  0  0  0  0  0  0  0  0  0  0  0
   58.8856   30.1148   50.8296 C   0  0  0  0  0  0  0  0  0  0  0  0
   58.5402   31.6158   52.3889 H   0  0  0  0  0  0  0  0  0  0  0  0
   61.2211   32.3344   48.7577 C   0  0  0  0  0  0  0  0  0  0  0  0
   60.9327   31.5491   47.4496 C   0  0  0  0  0  0  0  0  0  0  0  0
   59.8717   32.2200   46.5688 C   0  0  0  0  0  0  0  0  0  0  0  0
   60.1982   33.5731   46.3388 O   0  0  0  0  0  0  0  0  0  0  0  0
   60.0624   34.3013   47.5415 C   0  0  0  0  0  0  0  0  0  0  0  0
   61.1100   33.8690   48.5788 C   0  0  0  0  0  0  0  0  0  0  0  0
  1  2  2  0
  2  3  1  0
  3  4  2  0
  4  9  1  0
  9 10  1  0
 10 11  1  0
 11 12  2  0
 11 13  1  0
 13 14  1  0
 14 15  1  0
  3  5  1  0
  5  6  2  0
  6 16  1  0
 16 17  2  0
 16 18  1  0
 18 19  1  0
 19 20  1  0
 20 21  1  0
 21 25  1  0
 25 26  1  0
 26 27  1  0
 27 28  1  0
 28 29  1  0
 29 30  1  0
 21 22  1  0
 22 23  1  0
  6  7  1  0
  7  8  1  0
  7  2  1  0
 14  9  2  0
 23 18  1  0
 30 25  1  0
 18 24  1  0
M  CHG 1  10  -1
M  CHG 1  13  -1
M  CHG 1  15  -1
M  CHG 1  18   1
M  END
> <UniqueID>
4

> <SMILES>
C=c1c(=Cc2[n-]c(=O)[n-]c2[O-])cc(C(=O)[NH+]2CCN(C3CCOCC3)CC2)n1C

> <Energy>
152.40772064177673

> <Genealogy>
C=c1c(=Cc2[n-]c(=O)[n-]c2[O-])cc(C(=O)[NH+]2CCN(C3CCOCC3)CC2)n1C (protonated)
C=c1c(=Cc2[n-]c(=O)[n-]c2[O-])cc(C(=O)[NH+]2CCN(C3CCOCC3)CC2)n1C (3D coordinates assigned)
C=c1c(=Cc2[n-]c(=O)[n-]c2[O-])cc(C(=O)[NH+]2CCN(C3CCOCC3)CC2)n1C (nonaromatic ring conformer: 152.40772064177673 kcal/mol)

> <smiles>
C=c1c(=Cc2[nH]c(=O)[nH]c2O)cc(C(=O)N2CCN(C3CCOCC3)CC2)n1C

> <score_type>
oracle

> <origin>
adg

> <m_score__min__energy>
-17.379999999999999

> <m_primary>
energy

> <minimizedAffinity>
-7.35053

> <minimizedRMSD>
1.07766

> <CNNscore>
0.1070742607

> <CNNaffinity>
5.1879835129

> <CNN_VS>
0.5554994941

> <CNNaffinity_variance>
0.1308959574

$$$$
12:0


 25 27  0  0  0  0  0  0  0  0999 V2000
   60.6357   26.4105   46.3561 C   0  0  0  0  0  0  0  0  0  0  0  0
   59.6955   27.3405   46.1616 C   0  0  0  0  0  0  0  0  0  0  0  0
   58.4632   27.2212   45.4951 C   0  0  0  0  0  0  0  0  0  0  0  0
   57.8328   26.1601   44.9546 C   0  0  0  0  0  0  0  0  0  0  0  0
   57.9679   28.5179   45.4992 C   0  0  0  0  0  0  0  0  0  0  0  0
   56.8778   28.8926   44.9887 O   0  0  0  0  0  0  0  0  0  0  0  0
   58.8244   29.3378   46.1363 N   0  0  0  0  0  0  0  0  0  0  0  0
   59.8623   28.6242   46.5453 N   0  0  0  0  0  0  0  0  0  0  0  0
   60.6327   28.9740   47.0488 H   0  0  0  0  0  0  0  0  0  0  0  0
   57.2474   25.0417   45.7159 C   0  0  0  0  0  0  0  0  0  0  0  0
   55.9816   25.1697   46.3006 C   0  0  0  0  0  0  0  0  0  0  0  0
   55.2354   26.3313   46.1299 O   0  0  0  0  0  0  0  0  0  0  0  0
   55.4674   24.1492   47.0368 N   0  0  0  0  0  0  0  0  0  0  0  0
   56.1685   23.0043   47.2306 C   0  0  0  0  0  0  0  0  0  0  0  0
   55.6705   22.0708   47.9127 O   0  0  0  0  0  0  0  0  0  0  0  0
   57.4094   22.8656   46.6965 N   0  0  0  0  0  0  0  0  0  0  0  0
   57.9671   23.8565   45.9544 C   0  0  0  0  0  0  0  0  0  0  0  0
   59.1274   23.7043   45.4878 O   0  0  0  0  0  0  0  0  0  0  0  0
   58.6516   30.7430   46.3863 C   0  0  0  0  0  0  0  0  0  0  0  0
   58.8437   31.2466   47.6837 C   0  0  0  0  0  0  0  0  0  0  0  0
   58.6967   32.6126   47.9415 C   0  0  0  0  0  0  0  0  0  0  0  0
   58.3525   33.4861   46.9080 C   0  0  0  0  0  0  0  0  0  0  0  0
   58.1503   32.9957   45.6162 C   0  0  0  0  0  0  0  0  0  0  0  0
   58.2951   31.6281   45.3475 C   0  0  0  0  0  0  0  0  0  0  0  0
   57.9552   31.0525   43.7211 Cl  0  0  0  0  0  0  0  0  0  0  0  0
  1  2  2  0
  2  3  1  0
  3  4  2  0
  4 10  1  0
 10 11  2  0
 11 12  1  0
 11 13  1  0
 13 14  1  0
 14 15  2  0
 14 16  1  0
 16 17  1  0
 17 18  2  0
  3  5  1  0
  5  6  2  0
  5  7  1  0
  7 19  1  0
 19 20  2  0
 20 21  1  0
 21 22  2  0
 22 23  1  0
 23 24  2  0
 24 25  1  0
  7  8  1  0
  8  2  1  0
 17 10  1  0
 24 19  1  0
  8  9  1  0
M  CHG 1  12  -1
M  CHG 1  13  -1
M  CHG 1  16  -1
M  END
> <UniqueID>
13

> <SMILES>
C=c1[nH]n(-c2ccccc2Cl)c(=O)/c1=C/c1c([O-])[n-]c(=O)[n-]c1=O

> <Energy>
90.23600944689059

> <Genealogy>
C=c1[nH]n(-c2ccccc2Cl)c(=O)c1=Cc1c([O-])[n-]c(=O)[n-]c1=O (protonated)
C=c1[nH]n(-c2ccccc2Cl)c(=O)/c1=C/c1c([O-])[n-]c(=O)[n-]c1=O (cis-trans isomerization)
C=c1[nH]n(-c2ccccc2Cl)c(=O)/c1=C/c1c([O-])[n-]c(=O)[n-]c1=O (3D coordinates assigned)
C=c1[nH]n(-c2ccccc2Cl)c(=O)/c1=C/c1c([O-])[n-]c(=O)[n-]c1=O (optimized conformer: 90.23600944689059 kcal/mol)

> <smiles>
C=c1[nH]n(-c2ccccc2Cl)c(=O)c1=Cc1c(O)[nH]c(=O)[nH]c1=O

> <score_type>
oracle

> <origin>
adg

> <m_score__min__energy>
-15.609999999999999

> <m_primary>
energy

> <minimizedAffinity>
-8.12954

> <minimizedRMSD>
1.05899

> <CNNscore>
0.2609533966

> <CNNaffinity>
6.0558891296

> <CNN_VS>
1.5803048611

> <CNNaffinity_variance>
0.0078691514

$$$$
16:0


 25 26  0  0  0  0  0  0  0  0999 V2000
   59.0904   31.5247   46.1410 N   0  0  0  0  0  0  0  0  0  0  0  0
   57.9432   32.0771   45.6142 C   0  0  0  0  0  0  0  0  0  0  0  0
   57.6107   33.6832   45.7220 S   0  0  0  0  0  0  0  0  0  0  0  0
   57.0463   31.2955   44.9663 N   0  0  0  0  0  0  0  0  0  0  0  0
   57.2111   29.9593   44.8356 C   0  0  0  0  0  0  0  0  0  0  0  0
   56.2744   29.2509   44.0838 O   0  0  0  0  0  0  0  0  0  0  0  0
   58.3209   29.3394   45.4377 C   0  0  0  0  0  0  0  0  0  0  0  0
   59.2693   30.1626   46.0774 C   0  0  0  0  0  0  0  0  0  0  0  0
   60.2849   29.6304   46.6062 O   0  0  0  0  0  0  0  0  0  0  0  0
   55.5477   29.6992   43.6979 H   0  0  0  0  0  0  0  0  0  0  0  0
   58.5079   27.8654   45.4071 C   0  0  0  0  0  0  0  0  0  0  0  0
   58.5659   27.2875   44.2887 O   0  0  0  0  0  0  0  0  0  0  0  0
   58.5917   27.0282   46.6279 C   0  0  0  0  0  0  0  0  0  0  0  0
   57.7573   26.0291   46.9521 C   0  0  0  0  0  0  0  0  0  0  0  0
   57.3413   24.9496   46.0380 C   0  0  0  0  0  0  0  0  0  0  0  0
   58.2884   24.0046   45.6174 C   0  0  0  0  0  0  0  0  0  0  0  0
   57.9187   22.9751   44.7477 C   0  0  0  0  0  0  0  0  0  0  0  0
   56.5926   22.8617   44.3209 C   0  0  0  0  0  0  0  0  0  0  0  0
   56.2250   21.8373   43.4565 O   0  0  0  0  0  0  0  0  0  0  0  0
   55.6344   23.7745   44.7688 C   0  0  0  0  0  0  0  0  0  0  0  0
   56.0022   24.8188   45.6240 C   0  0  0  0  0  0  0  0  0  0  0  0
   55.0314   25.7113   46.0672 O   0  0  0  0  0  0  0  0  0  0  0  0
   60.1235   32.3716   46.7806 C   0  0  0  0  0  0  0  0  0  0  0  0
   60.0292   33.7930   48.8110 C   0  0  0  0  0  0  0  0  0  0  0  0
   59.7933   32.6166   48.2276 C   0  0  0  0  0  0  0  0  0  0  0  0
 24 25  2  0
 25 23  1  0
 23  1  1  0
  1  2  1  0
  2  3  2  0
  2  4  1  0
  4  5  1  0
  5  6  1  0
  5  7  2  0
  7 11  1  0
 11 12  2  0
 11 13  1  0
 13 14  2  0
 14 15  1  0
 15 16  2  0
 16 17  1  0
 17 18  2  0
 18 19  1  0
 18 20  1  0
 20 21  2  0
 21 22  1  0
  7  8  1  0
  8  9  2  0
  8  1  1  0
 21 15  1  0
  6 10  1  0
M  CHG 1   4  -1
M  CHG 1  19  -1
M  CHG 1  22  -1
M  END
> <UniqueID>
17

> <SMILES>
C=CCn1c(=S)[n-]c(O)c(C(=O)C=Cc2ccc([O-])cc2[O-])c1=O

> <Energy>
53.5223912396672

> <Genealogy>
C=CCn1c(=S)[n-]c(O)c(C(=O)C=Cc2ccc([O-])cc2[O-])c1=O (protonated)
C=CCn1c(=S)[n-]c(O)c(C(=O)C=Cc2ccc([O-])cc2[O-])c1=O (3D coordinates assigned)
C=CCn1c(=S)[n-]c(O)c(C(=O)C=Cc2ccc([O-])cc2[O-])c1=O (optimized conformer: 53.5223912396672 kcal/mol)

> <smiles>
C=CCn1c(=S)[nH]c(O)c(C(=O)C=Cc2ccc(O)cc2O)c1=O

> <score_type>
oracle

> <origin>
adg

> <m_score__min__energy>
-14.76

> <m_primary>
energy

> <minimizedAffinity>
-8.43818

> <minimizedRMSD>
0.78448

> <CNNscore>
0.5945233703

> <CNNaffinity>
6.4909877777

> <CNN_VS>
3.8590438366

> <CNNaffinity_variance>
0.1281345934

$$$$
17:0


 26 28  0  0  0  0  0  0  0  0999 V2000
   59.9334   29.9520   47.7481 C   0  0  0  0  0  0  0  0  0  0  0  0
   59.2390   30.5672   46.7776 C   0  0  0  0  0  0  0  0  0  0  0  0
   58.9086   30.0205   45.5339 C   0  0  0  0  0  0  0  0  0  0  0  0
   59.1952   28.7858   45.0762 C   0  0  0  0  0  0  0  0  0  0  0  0
   58.2658   31.0241   44.8251 C   0  0  0  0  0  0  0  0  0  0  0  0
   58.2154   32.1248   45.6552 C   0  0  0  0  0  0  0  0  0  0  0  0
   57.6606   33.4569   45.2461 C   0  0  0  0  0  0  0  0  0  0  0  0
   58.7791   31.8457   46.8562 N   0  0  0  0  0  0  0  0  0  0  0  0
   58.6086   27.5495   45.6404 C   0  0  0  0  0  0  0  0  0  0  0  0
   57.2206   27.3266   45.6452 C   0  0  0  0  0  0  0  0  0  0  0  0
   56.3464   28.2651   45.1111 O   0  0  0  0  0  0  0  0  0  0  0  0
   56.7182   26.1897   46.1937 N   0  0  0  0  0  0  0  0  0  0  0  0
   57.5351   25.2656   46.7611 C   0  0  0  0  0  0  0  0  0  0  0  0
   57.0471   24.2182   47.2604 O   0  0  0  0  0  0  0  0  0  0  0  0
   58.8760   25.4704   46.7954 N   0  0  0  0  0  0  0  0  0  0  0  0
   59.4283   26.5901   46.2577 C   0  0  0  0  0  0  0  0  0  0  0  0
   60.6768   26.7495   46.3104 O   0  0  0  0  0  0  0  0  0  0  0  0
   58.9068   32.7765   47.9890 C   0  0  0  0  0  0  0  0  0  0  0  0
   60.1923   33.5631   47.9196 C   0  0  0  0  0  0  0  0  0  0  0  0
   60.2053   34.6399   47.2634 O   0  0  0  0  0  0  0  0  0  0  0  0
   61.3966   33.1178   48.5726 N   0  0  0  0  0  0  0  0  0  0  0  0
   61.3411   32.2998   49.7878 C   0  0  0  0  0  0  0  0  0  0  0  0
   62.6031   32.5209   50.6275 C   0  0  0  0  0  0  0  0  0  0  0  0
   63.7658   32.3442   49.8418 O   0  0  0  0  0  0  0  0  0  0  0  0
   63.8273   33.3501   48.8496 C   0  0  0  0  0  0  0  0  0  0  0  0
   62.6717   33.2048   47.8548 C   0  0  0  0  0  0  0  0  0  0  0  0
  1  2  2  0
  2  3  1  0
  3  4  2  0
  4  9  1  0
  9 10  2  0
 10 11  1  0
 10 12  1  0
 12 13  1  0
 13 14  2  0
 13 15  1  0
 15 16  1  0
 16 17  2  0
  3  5  1  0
  5  6  2  0
  6  7  1  0
  6  8  1  0
  8 18  1  0
 18 19  1  0
 19 20  2  0
 19 21  1  0
 21 22  1  0
 22 23  1  0
 23 24  1  0
 24 25  1  0
 25 26  1  0
  8  2  1  0
 26 21  1  0
 16  9  1  0
M  CHG 1  11  -1
M  CHG 1  12  -1
M  CHG 1  15  -1
M  END
> <UniqueID>
18

> <SMILES>
C=c1/c(=C/c2c([O-])[n-]c(=O)[n-]c2=O)cc(C)n1CC(=O)N1CCOCC1

> <Energy>
84.8939446577192

> <Genealogy>
C=c1c(=Cc2c([O-])[n-]c(=O)[n-]c2=O)cc(C)n1CC(=O)N1CCOCC1 (protonated)
C=c1/c(=C/c2c([O-])[n-]c(=O)[n-]c2=O)cc(C)n1CC(=O)N1CCOCC1 (cis-trans isomerization)
C=c1/c(=C/c2c([O-])[n-]c(=O)[n-]c2=O)cc(C)n1CC(=O)N1CCOCC1 (3D coordinates assigned)
C=c1/c(=C/c2c([O-])[n-]c(=O)[n-]c2=O)cc(C)n1CC(=O)N1CCOCC1 (nonaromatic ring conformer: 84.8939446577192 kcal/mol)

> <smiles>
C=c1c(=Cc2c(O)[nH]c(=O)[nH]c2=O)cc(C)n1CC(=O)N1CCOCC1

> <score_type>
oracle

> <origin>
adg

> <m_score__min__energy>
-15.789999999999999

> <m_primary>
energy

> <minimizedAffinity>
-7.64953

> <minimizedRMSD>
1.37132

> <CNNscore>
0.5374653339

> <CNNaffinity>
6.6710734367

> <CNN_VS>
3.5854706764

> <CNNaffinity_variance>
0.1570115834

$$$$
25:0


 28 31  0  0  0  0  0  0  0  0999 V2000
   56.5027   29.0904   44.6574 C   0  0  0  0  0  0  0  0  0  0  0  0
   57.7425   28.8192   45.0931 C   0  0  0  0  0  0  0  0  0  0  0  0
   58.3822   27.5714   45.0555 C   0  0  0  0  0  0  0  0  0  0  0  0
   57.8451   26.4001   44.6484 C   0  0  0  0  0  0  0  0  0  0  0  0
   59.6697   27.7846   45.5334 C   0  0  0  0  0  0  0  0  0  0  0  0
   59.7627   29.1267   45.8428 C   0  0  0  0  0  0  0  0  0  0  0  0
   60.9871   29.7906   46.3947 C   0  0  0  0  0  0  0  0  0  0  0  0
   58.5945   29.7548   45.5846 N   0  0  0  0  0  0  0  0  0  0  0  0
   58.3332   31.1492   45.8277 C   0  0  0  0  0  0  0  0  0  0  0  0
   57.3911   31.7151   45.2028 O   0  0  0  0  0  0  0  0  0  0  0  0
   57.3483   25.3223   45.5340 C   0  0  0  0  0  0  0  0  0  0  0  0
   57.9889   24.1729   45.8161 N   0  0  0  0  0  0  0  0  0  0  0  0
   57.1234   23.5178   46.6204 C   0  0  0  0  0  0  0  0  0  0  0  0
   57.3749   22.3832   47.1052 O   0  0  0  0  0  0  0  0  0  0  0  0
   55.9691   24.1721   46.8624 N   0  0  0  0  0  0  0  0  0  0  0  0
   56.1263   25.3089   46.1655 C   0  0  0  0  0  0  0  0  0  0  0  0
   55.1695   26.3141   46.1044 O   0  0  0  0  0  0  0  0  0  0  0  0
   59.2285   31.9289   46.6555 N   0  0  0  0  0  0  0  0  0  0  0  0
   58.7931   31.9372   48.0776 C   0  0  0  0  0  0  0  0  0  0  0  0
   59.1476   33.2502   48.8112 C   0  0  0  0  0  0  0  0  0  0  0  0
   60.4185   33.8429   48.3413 N   0  0  0  0  0  0  0  0  0  0  0  0
   60.4041   34.0998   46.8750 C   0  0  0  0  0  0  0  0  0  0  0  0
   59.3390   33.2919   46.1066 C   0  0  0  0  0  0  0  0  0  0  0  0
   60.0790   32.3590   46.9025 H   0  0  0  0  0  0  0  0  0  0  0  0
   61.5967   33.0503   48.7700 C   0  0  0  0  0  0  0  0  0  0  0  0
   62.6646   33.8898   49.4794 C   0  0  0  0  0  0  0  0  0  0  0  0
   63.6565   33.5817   48.3700 C   0  0  0  0  0  0  0  0  0  0  0  0
   62.5914   32.7866   47.6345 C   0  0  0  0  0  0  0  0  0  0  0  0
  1  2  2  0
  2  3  1  0
  3  4  2  0
  4 11  1  0
 11 12  1  0
 12 13  1  0
 13 14  2  0
 13 15  1  0
 15 16  1  0
 16 17  1  0
  3  5  1  0
  5  6  2  0
  6  7  1  0
  6  8  1  0
  8  9  1  0
  9 10  2  0
  9 18  1  0
 18 19  1  0
 19 20  1  0
 20 21  1  0
 21 25  1  0
 25 26  1  0
 26 27  1  0
 27 28  1  0
 21 22  1  0
 22 23  1  0
  8  2  1  0
 23 18  1  0
 16 11  2  0
 28 25  1  0
 18 24  1  0
M  CHG 1  12  -1
M  CHG 1  15  -1
M  CHG 1  17  -1
M  CHG 1  18   1
M  END
> <UniqueID>
26

> <SMILES>
C=c1/c(=C/c2[n-]c(=O)[n-]c2[O-])cc(C)n1C(=O)[NH+]1CCN(C2CCC2)CC1

> <Energy>
194.148505642829

> <Genealogy>
C=c1c(=Cc2[n-]c(=O)[n-]c2[O-])cc(C)n1C(=O)[NH+]1CCN(C2CCC2)CC1 (protonated)
C=c1/c(=C/c2[n-]c(=O)[n-]c2[O-])cc(C)n1C(=O)[NH+]1CCN(C2CCC2)CC1 (cis-trans isomerization)
C=c1/c(=C/c2[n-]c(=O)[n-]c2[O-])cc(C)n1C(=O)[NH+]1CCN(C2CCC2)CC1 (3D coordinates assigned)
C=c1/c(=C/c2[n-]c(=O)[n-]c2[O-])cc(C)n1C(=O)[NH+]1CCN(C2CCC2)CC1 (nonaromatic ring conformer: 194.148505642829 kcal/mol)

> <smiles>
C=c1c(=Cc2[nH]c(=O)[nH]c2O)cc(C)n1C(=O)N1CCN(C2CCC2)CC1

> <score_type>
oracle

> <origin>
adg

> <m_score__min__energy>
-14.77

> <m_primary>
energy

> <minimizedAffinity>
-8.49672

> <minimizedRMSD>
0.51213

> <CNNscore>
0.2800002992

> <CNNaffinity>
7.0352644920

> <CNN_VS>
1.9698761702

> <CNNaffinity_variance>
0.3647128046

$$$$
32:0


 28 30  0  0  0  0  0  0  0  0999 V2000
   60.4810   29.1551   47.7832 C   0  0  0  0  0  0  0  0  0  0  0  0
   60.2756   27.9943   48.5356 C   0  0  0  0  0  0  0  0  0  0  0  0
   59.9007   26.8008   47.9083 C   0  0  0  0  0  0  0  0  0  0  0  0
   59.7382   26.7547   46.5188 C   0  0  0  0  0  0  0  0  0  0  0  0
   59.8677   27.9384   45.7709 C   0  0  0  0  0  0  0  0  0  0  0  0
   60.2309   29.1316   46.3999 C   0  0  0  0  0  0  0  0  0  0  0  0
   59.3885   25.5058   45.8995 N   0  0  0  0  0  0  0  0  0  0  0  0
   58.2370   24.9071   45.9932 C   0  0  0  0  0  0  0  0  0  0  0  0
   58.2001   23.5515   46.0857 N   0  0  0  0  0  0  0  0  0  0  0  0
   57.0193   22.8805   46.1581 C   0  0  0  0  0  0  0  0  0  0  0  0
   57.0142   21.3878   46.2542 C   0  0  0  0  0  0  0  0  0  0  0  0
   55.8158   23.5919   46.1203 C   0  0  0  0  0  0  0  0  0  0  0  0
   55.8682   24.9821   46.0145 C   0  0  0  0  0  0  0  0  0  0  0  0
   54.8068   25.6549   45.9742 O   0  0  0  0  0  0  0  0  0  0  0  0
   57.0697   25.6094   45.9507 N   0  0  0  0  0  0  0  0  0  0  0  0
   60.9203   30.3473   48.4499 N   0  0  0  0  0  0  0  0  0  0  0  0
   61.3359   31.5707   47.8236 C   0  0  0  0  0  0  0  0  0  0  0  0
   62.5597   31.8692   47.8440 O   0  0  0  0  0  0  0  0  0  0  0  0
   58.2870   32.8221   45.9150 C   0  0  0  0  0  0  0  0  0  0  0  0
   58.5796   34.1875   45.8258 C   0  0  0  0  0  0  0  0  0  0  0  0
   59.7551   34.6958   46.3797 C   0  0  0  0  0  0  0  0  0  0  0  0
   60.6508   33.8435   47.0307 C   0  0  0  0  0  0  0  0  0  0  0  0
   60.3822   32.4676   47.1216 C   0  0  0  0  0  0  0  0  0  0  0  0
   59.2135   31.9576   46.5253 C   0  0  0  0  0  0  0  0  0  0  0  0
   57.0610   32.3416   45.3451 N   0  0  0  0  0  0  0  0  0  0  0  0
   57.6768   31.2258   43.1633 C   0  0  0  0  0  0  0  0  0  0  0  0
   56.9199   31.2317   44.4486 C   0  0  0  0  0  0  0  0  0  0  0  0
   56.0957   30.3081   44.6854 O   0  0  0  0  0  0  0  0  0  0  0  0
 26 27  1  0
 27 28  2  0
 27 25  1  0
 25 19  1  0
 19 20  2  0
 20 21  1  0
 21 22  2  0
 22 23  1  0
 23 17  1  0
 17 18  2  0
 17 16  1  0
 16  1  1  0
  1  2  2  0
  2  3  1  0
  3  4  2  0
  4  7  1  0
  7  8  2  0
  8  9  1  0
  9 10  1  0
 10 11  1  0
 10 12  2  0
 12 13  1  0
 13 14  2  0
 13 15  1  0
  4  5  1  0
  5  6  2  0
 23 24  2  0
 24 19  1  0
  6  1  1  0
 15  8  1  0
M  CHG 1   9  -1
M  CHG 1  15  -1
M  CHG 1  16  -1
M  CHG 1  25  -1
M  END
> <UniqueID>
33

> <SMILES>
CC(=O)[N-]c1cccc(C(=O)[N-]c2ccc(N=c3[n-]c(C)cc(=O)[n-]3)cc2)c1

> <Energy>
58.35519921482473

> <Genealogy>
CC(=O)[N-]c1cccc(C(=O)[N-]c2ccc(N=c3[n-]c(C)cc(=O)[n-]3)cc2)c1 (protonated)
CC(=O)[N-]c1cccc(C(=O)[N-]c2ccc(N=c3[n-]c(C)cc(=O)[n-]3)cc2)c1 (3D coordinates assigned)
CC(=O)[N-]c1cccc(C(=O)[N-]c2ccc(N=c3[n-]c(C)cc(=O)[n-]3)cc2)c1 (optimized conformer: 58.35519921482473 kcal/mol)

> <smiles>
CC(=O)Nc1cccc(C(=O)Nc2ccc(N=c3[nH]c(C)cc(=O)[nH]3)cc2)c1

> <score_type>
oracle

> <origin>
adg

> <m_score__min__energy>
-14.050000000000001

> <m_primary>
energy

> <minimizedAffinity>
-8.99941

> <minimizedRMSD>
1.16627

> <CNNscore>
0.3513569236

> <CNNaffinity>
6.7302322388

> <CNN_VS>
2.3647136688

> <CNNaffinity_variance>
0.0369926952

$$$$
37:0


 33 36  0  0  0  0  0  0  0  0999 V2000
   57.9874   28.1207   45.8237 C   0  0  0  0  0  0  0  0  0  0  0  0
   56.8584   28.9817   45.1841 C   0  0  0  0  0  0  0  0  0  0  0  0
   57.2705   30.4564   44.9668 C   0  0  0  0  0  0  0  0  0  0  0  0
   58.5360   30.7610   45.6591 N   0  0  0  0  0  0  0  0  0  0  0  0
   59.6528   29.9570   45.1219 C   0  0  0  0  0  0  0  0  0  0  0  0
   59.3190   28.4441   45.1121 C   0  0  0  0  0  0  0  0  0  0  0  0
   56.4181   26.1197   45.9836 N   0  0  0  0  0  0  0  0  0  0  0  0
   57.7158   26.6339   45.6879 C   0  0  0  0  0  0  0  0  0  0  0  0
   58.6408   25.8333   45.3799 O   0  0  0  0  0  0  0  0  0  0  0  0
   56.2390   25.1555   45.8964 H   0  0  0  0  0  0  0  0  0  0  0  0
   58.1319   28.4624   47.2449 N   0  0  0  0  0  0  0  0  0  0  0  0
   59.3059   28.2715   48.0459 C   0  0  0  0  0  0  0  0  0  0  0  0
   60.0958   27.3175   47.8130 O   0  0  0  0  0  0  0  0  0  0  0  0
   59.5901   29.2120   49.1357 C   0  0  0  0  0  0  0  0  0  0  0  0
   60.7227   29.1997   49.9327 C   0  0  0  0  0  0  0  0  0  0  0  0
   60.5855   30.2511   50.8125 C   0  0  0  0  0  0  0  0  0  0  0  0
   59.3779   30.8402   50.5050 C   0  0  0  0  0  0  0  0  0  0  0  0
   58.8528   31.9481   51.1606 O   0  0  0  0  0  0  0  0  0  0  0  0
   58.7589   30.2162   49.4845 N   0  0  0  0  0  0  0  0  0  0  0  0
   59.3268   32.3436   51.8655 H   0  0  0  0  0  0  0  0  0  0  0  0
   58.8360   32.2084   45.7302 C   0  0  0  0  0  0  0  0  0  0  0  0
   59.8194   32.5780   46.8193 C   0  0  0  0  0  0  0  0  0  0  0  0
   59.5575   33.6517   47.6826 C   0  0  0  0  0  0  0  0  0  0  0  0
   60.4723   33.9994   48.6786 C   0  0  0  0  0  0  0  0  0  0  0  0
   61.6646   33.2716   48.8397 C   0  0  0  0  0  0  0  0  0  0  0  0
   61.9117   32.1778   47.9907 C   0  0  0  0  0  0  0  0  0  0  0  0
   61.0005   31.8388   46.9886 C   0  0  0  0  0  0  0  0  0  0  0  0
   62.6383   33.6497   49.9407 C   0  0  0  0  0  0  0  0  0  0  0  0
   62.0298   33.4219   51.3402 C   0  0  0  0  0  0  0  0  0  0  0  0
   63.1208   33.3984   52.4274 C   0  0  0  0  0  0  0  0  0  0  0  0
   64.2953   34.0529   51.9882 O   0  0  0  0  0  0  0  0  0  0  0  0
   64.9306   33.2861   50.9735 C   0  0  0  0  0  0  0  0  0  0  0  0
   63.9803   32.9099   49.8116 C   0  0  0  0  0  0  0  0  0  0  0  0
  7  8  1  0
  8  9  2  0
  8  1  1  0
  1 11  1  0
 11 12  1  0
 12 13  2  0
 12 14  1  0
 14 15  2  0
 15 16  1  0
 16 17  2  0
 17 18  1  0
 17 19  1  0
  1  2  1  0
  2  3  1  0
  3  4  1  0
  4 21  1  0
 21 22  1  0
 22 23  2  0
 23 24  1  0
 24 25  2  0
 25 28  1  0
 28 29  1  0
 29 30  1  0
 30 31  1  0
 31 32  1  0
 32 33  1  0
 25 26  1  0
 26 27  2  0
  4  5  1  0
  5  6  1  0
  6  1  1  0
 19 14  1  0
 27 22  1  0
 33 28  1  0
  7 10  1  0
 18 20  1  0
M  CHG 1   7  -1
M  CHG 1  11  -1
M  CHG 1  19  -1
M  END
> <UniqueID>
38

> <SMILES>
[NH-]C(=O)C1([N-]C(=O)c2ccc(O)[n-]2)CCN(Cc2ccc(C3CCOCC3)cc2)CC1

> <Energy>
100.5460088134098

> <Genealogy>
[NH-]C(=O)C1([N-]C(=O)c2ccc(O)[n-]2)CCN(Cc2ccc(C3CCOCC3)cc2)CC1 (protonated)
[NH-]C(=O)C1([N-]C(=O)c2ccc(O)[n-]2)CCN(Cc2ccc(C3CCOCC3)cc2)CC1 (3D coordinates assigned)
[NH-]C(=O)C1([N-]C(=O)c2ccc(O)[n-]2)CCN(Cc2ccc(C3CCOCC3)cc2)CC1 (nonaromatic ring conformer: 100.5460088134098 kcal/mol)

> <smiles>
NC(=O)C1(NC(=O)c2ccc(O)[nH]2)CCN(Cc2ccc(C3CCOCC3)cc2)CC1

> <score_type>
oracle

> <origin>
adg

> <m_score__min__energy>
-14.15

> <m_primary>
energy

> <minimizedAffinity>
-7.34167

> <minimizedRMSD>
1.08516

> <CNNscore>
0.3600242436

> <CNNaffinity>
6.6420264244

> <CNN_VS>
2.3912904263

> <CNNaffinity_variance>
0.0798437297

$$$$
41:0


 29 31  0  0  0  0  0  0  0  0999 V2000
   59.2901   31.7209   47.5334 C   0  0  0  0  0  0  0  0  0  0  0  0
   59.5307   30.9039   48.6299 C   0  0  0  0  0  0  0  0  0  0  0  0
   59.2958   29.5507   48.3706 C   0  0  0  0  0  0  0  0  0  0  0  0
   58.8554   29.3182   47.0690 C   0  0  0  0  0  0  0  0  0  0  0  0
   58.7947   30.7751   46.2347 S   0  0  0  0  0  0  0  0  0  0  0  0
   59.7688   33.4044   47.4237 S   0  0  0  0  0  0  0  0  0  0  0  0
   60.7112   33.6070   46.2700 O   0  0  0  0  0  0  0  0  0  0  0  0
   58.5436   34.2486   47.2158 O   0  0  0  0  0  0  0  0  0  0  0  0
   60.5504   33.8670   48.9020 N   0  0  0  0  0  0  0  0  0  0  0  0
   64.5833   32.9822   49.9117 C   0  0  0  0  0  0  0  0  0  0  0  0
   63.7274   33.6138   50.8353 C   0  0  0  0  0  0  0  0  0  0  0  0
   62.4107   33.9181   50.4812 C   0  0  0  0  0  0  0  0  0  0  0  0
   61.9239   33.5929   49.2079 C   0  0  0  0  0  0  0  0  0  0  0  0
   62.7881   32.9916   48.2783 C   0  0  0  0  0  0  0  0  0  0  0  0
   64.1032   32.6832   48.6329 C   0  0  0  0  0  0  0  0  0  0  0  0
   66.2803   31.5151   51.0162 C   0  0  0  0  0  0  0  0  0  0  0  0
   65.9072   32.6380   50.2235 O   0  0  0  0  0  0  0  0  0  0  0  0
   58.7469   28.0438   46.4281 N   0  0  0  0  0  0  0  0  0  0  0  0
   57.8078   27.7194   45.3985 C   0  0  0  0  0  0  0  0  0  0  0  0
   56.9339   28.5537   45.0406 O   0  0  0  0  0  0  0  0  0  0  0  0
   57.8879   26.3873   44.7177 C   0  0  0  0  0  0  0  0  0  0  0  0
   57.3469   25.3073   45.6149 C   0  0  0  0  0  0  0  0  0  0  0  0
   56.0935   25.2717   46.1911 C   0  0  0  0  0  0  0  0  0  0  0  0
   55.1365   26.2759   46.1100 O   0  0  0  0  0  0  0  0  0  0  0  0
   55.9012   24.1083   46.8431 N   0  0  0  0  0  0  0  0  0  0  0  0
   57.0613   23.4486   46.6369 C   0  0  0  0  0  0  0  0  0  0  0  0
   57.2684   22.2830   47.0682 O   0  0  0  0  0  0  0  0  0  0  0  0
   57.9646   24.1452   45.9119 N   0  0  0  0  0  0  0  0  0  0  0  0
   59.2507   23.6594   45.4144 C   0  0  0  0  0  0  0  0  0  0  0  0
 16 17  1  0
 17 10  1  0
 10 11  2  0
 11 12  1  0
 12 13  2  0
 13  9  1  0
  9  6  1  0
  6  7  2  0
  6  8  2  0
  6  1  1  0
  1  2  2  0
  2  3  1  0
  3  4  2  0
  4 18  1  0
 18 19  1  0
 19 20  2  0
 19 21  1  0
 21 22  1  0
 22 23  2  0
 23 24  1  0
 23 25  1  0
 25 26  1  0
 26 27  2  0
 26 28  1  0
 28 29  1  0
  4  5  1  0
 13 14  1  0
 14 15  2  0
 15 10  1  0
  5  1  1  0
 28 22  1  0
M  CHG 1   9  -1
M  CHG 1  18  -1
M  CHG 1  24  -1
M  CHG 1  25  -1
M  END
> <UniqueID>
42

> <SMILES>
COc1ccc([N-]S(=O)(=O)c2ccc([N-]C(=O)Cc3c([O-])[n-]c(=O)n3C)s2)cc1

> <Energy>
106.41425406845578

> <Genealogy>
COc1ccc([N-]S(=O)(=O)c2ccc([N-]C(=O)Cc3c([O-])[n-]c(=O)n3C)s2)cc1 (protonated)
COc1ccc([N-]S(=O)(=O)c2ccc([N-]C(=O)Cc3c([O-])[n-]c(=O)n3C)s2)cc1 (3D coordinates assigned)
COc1ccc([N-]S(=O)(=O)c2ccc([N-]C(=O)Cc3c([O-])[n-]c(=O)n3C)s2)cc1 (optimized conformer: 106.41425406845578 kcal/mol)

> <smiles>
COc1ccc(NS(=O)(=O)c2ccc(NC(=O)Cc3c(O)[nH]c(=O)n3C)s2)cc1

> <score_type>
oracle

> <origin>
adg

> <m_score__min__energy>
-16.210000000000001

> <m_primary>
energy

> <minimizedAffinity>
-6.89593

> <minimizedRMSD>
0.91705

> <CNNscore>
0.3753173947

> <CNNaffinity>
6.3374581337

> <CNN_VS>
2.3785581589

> <CNNaffinity_variance>
0.0724787936

$$$$
55:0


 34 37  0  0  0  0  0  0  0  0999 V2000
   59.3726   31.8148   46.9474 C   0  0  0  0  0  0  0  0  0  0  0  0
   59.6215   32.8464   46.2677 O   0  0  0  0  0  0  0  0  0  0  0  0
   60.3761   31.2532   47.8108 N   0  0  0  0  0  0  0  0  0  0  0  0
   60.2465   30.3319   48.1327 H   0  0  0  0  0  0  0  0  0  0  0  0
   61.5634   31.9599   48.2344 C   0  0  0  0  0  0  0  0  0  0  0  0
   62.6789   32.0530   47.3792 C   0  0  0  0  0  0  0  0  0  0  0  0
   63.7796   32.8281   47.7320 C   0  0  0  0  0  0  0  0  0  0  0  0
   63.7671   33.5586   48.9207 C   0  0  0  0  0  0  0  0  0  0  0  0
   62.6672   33.4835   49.7807 C   0  0  0  0  0  0  0  0  0  0  0  0
   61.5733   32.6731   49.4553 C   0  0  0  0  0  0  0  0  0  0  0  0
   60.4680   32.5377   50.4278 C   0  0  0  0  0  0  0  0  0  0  0  0
   59.7172   33.5342   50.6359 O   0  0  0  0  0  0  0  0  0  0  0  0
   60.2435   31.3012   51.1393 N   0  0  0  0  0  0  0  0  0  0  0  0
   61.2978   30.2826   51.2160 C   0  0  0  0  0  0  0  0  0  0  0  0
   61.0988   29.4155   52.4601 C   0  0  0  0  0  0  0  0  0  0  0  0
   59.7837   28.8936   52.4941 O   0  0  0  0  0  0  0  0  0  0  0  0
   58.8630   29.9537   52.6773 C   0  0  0  0  0  0  0  0  0  0  0  0
   58.8694   30.8969   51.4703 C   0  0  0  0  0  0  0  0  0  0  0  0
   58.0400   31.1376   46.7960 C   0  0  0  0  0  0  0  0  0  0  0  0
   58.9513   28.4813   47.9096 C   0  0  0  0  0  0  0  0  0  0  0  0
   58.5825   28.6498   46.6294 C   0  0  0  0  0  0  0  0  0  0  0  0
   58.6762   27.6975   45.5983 C   0  0  0  0  0  0  0  0  0  0  0  0
   58.9985   26.3883   45.6142 C   0  0  0  0  0  0  0  0  0  0  0  0
   58.3785   28.3661   44.4281 C   0  0  0  0  0  0  0  0  0  0  0  0
   58.0677   29.6629   44.7702 C   0  0  0  0  0  0  0  0  0  0  0  0
   57.7221   30.7334   43.7822 C   0  0  0  0  0  0  0  0  0  0  0  0
   58.1869   29.8458   46.1054 N   0  0  0  0  0  0  0  0  0  0  0  0
   58.0795   25.2701   45.8489 C   0  0  0  0  0  0  0  0  0  0  0  0
   58.4524   23.9842   45.9706 N   0  0  0  0  0  0  0  0  0  0  0  0
   57.3041   23.3577   46.3118 C   0  0  0  0  0  0  0  0  0  0  0  0
   57.2380   22.1159   46.5035 O   0  0  0  0  0  0  0  0  0  0  0  0
   56.2346   24.1692   46.4397 N   0  0  0  0  0  0  0  0  0  0  0  0
   56.7495   25.3777   46.1569 C   0  0  0  0  0  0  0  0  0  0  0  0
   56.0175   26.5562   46.1921 O   0  0  0  0  0  0  0  0  0  0  0  0
 20 21  2  0
 21 22  1  0
 22 23  2  0
 23 28  1  0
 28 29  1  0
 29 30  1  0
 30 31  2  0
 30 32  1  0
 32 33  1  0
 33 34  1  0
 22 24  1  0
 24 25  2  0
 25 26  1  0
 25 27  1  0
 27 19  1  0
 19  1  1  0
  1  2  2  0
  1  3  1  0
  3  5  1  0
  5  6  2  0
  6  7  1  0
  7  8  2  0
  8  9  1  0
  9 10  2  0
 10 11  1  0
 11 12  2  0
 11 13  1  0
 13 14  1  0
 14 15  1  0
 15 16  1  0
 16 17  1  0
 17 18  1  0
 27 21  1  0
 10  5  1  0
 18 13  1  0
 33 28  2  0
  3  4  1  0
M  CHG 1  29  -1
M  CHG 1  32  -1
M  CHG 1  34  -1
M  END
> <UniqueID>
55

> <SMILES>
C=c1c(=Cc2[n-]c(=O)[n-]c2[O-])cc(C)n1CC(=O)Nc1ccccc1C(=O)N1CCOCC1

> <Energy>
133.75854051876348

> <Genealogy>
C=c1c(=Cc2[n-]c(=O)[n-]c2[O-])cc(C)n1CC(=O)Nc1ccccc1C(=O)N1CCOCC1 (protonated)
C=c1c(=Cc2[n-]c(=O)[n-]c2[O-])cc(C)n1CC(=O)Nc1ccccc1C(=O)N1CCOCC1 (3D coordinates assigned)
C=c1c(=Cc2[n-]c(=O)[n-]c2[O-])cc(C)n1CC(=O)Nc1ccccc1C(=O)N1CCOCC1 (nonaromatic ring conformer: 133.75854051876348 kcal/mol)

> <smiles>
C=c1c(=Cc2[nH]c(=O)[nH]c2O)cc(C)n1CC(=O)Nc1ccccc1C(=O)N1CCOCC1

> <score_type>
oracle

> <origin>
adg

> <m_score__min__energy>
-17.219999999999999

> <m_primary>
energy

> <minimizedAffinity>
-7.74141

> <minimizedRMSD>
1.84427

> <CNNscore>
0.1101176739

> <CNNaffinity>
6.7264194489

> <CNN_VS>
0.7406976819

> <CNNaffinity_variance>
0.0856389403

$$$$
70:0


 36 39  0  0  0  0  0  0  0  0999 V2000
   59.9929   30.2362   47.7804 C   0  0  0  0  0  0  0  0  0  0  0  0
   59.3144   30.3456   46.6264 C   0  0  0  0  0  0  0  0  0  0  0  0
   59.2108   29.3680   45.6251 C   0  0  0  0  0  0  0  0  0  0  0  0
   59.5083   28.0547   45.6358 C   0  0  0  0  0  0  0  0  0  0  0  0
   58.6915   30.0071   44.5121 C   0  0  0  0  0  0  0  0  0  0  0  0
   58.4245   31.3076   44.8851 C   0  0  0  0  0  0  0  0  0  0  0  0
   57.8059   32.3330   43.9825 C   0  0  0  0  0  0  0  0  0  0  0  0
   58.7947   31.5169   46.1699 N   0  0  0  0  0  0  0  0  0  0  0  0
   58.6631   32.7599   46.8878 C   0  0  0  0  0  0  0  0  0  0  0  0
   57.6334   32.9784   47.5813 O   0  0  0  0  0  0  0  0  0  0  0  0
   58.5548   26.9612   45.8874 C   0  0  0  0  0  0  0  0  0  0  0  0
   58.8794   25.7611   46.4047 N   0  0  0  0  0  0  0  0  0  0  0  0
   57.6824   25.1618   46.5773 C   0  0  0  0  0  0  0  0  0  0  0  0
   57.5689   23.9951   47.0368 O   0  0  0  0  0  0  0  0  0  0  0  0
   56.6172   25.9138   46.2308 N   0  0  0  0  0  0  0  0  0  0  0  0
   57.1863   27.0546   45.8090 C   0  0  0  0  0  0  0  0  0  0  0  0
   56.4734   28.1628   45.3651 O   0  0  0  0  0  0  0  0  0  0  0  0
   55.5369   28.1400   45.3445 H   0  0  0  0  0  0  0  0  0  0  0  0
   59.7215   33.7256   46.8396 N   0  0  0  0  0  0  0  0  0  0  0  0
   61.0155   33.6119   47.4478 C   0  0  0  0  0  0  0  0  0  0  0  0
   62.1914   33.4949   46.6870 C   0  0  0  0  0  0  0  0  0  0  0  0
   63.4291   33.3604   47.3205 C   0  0  0  0  0  0  0  0  0  0  0  0
   63.5053   33.3303   48.7150 C   0  0  0  0  0  0  0  0  0  0  0  0
   62.3392   33.4325   49.4903 C   0  0  0  0  0  0  0  0  0  0  0  0
   61.0960   33.5536   48.8465 C   0  0  0  0  0  0  0  0  0  0  0  0
   62.4103   33.3711   50.9690 C   0  0  0  0  0  0  0  0  0  0  0  0
   63.2965   34.0378   51.5714 O   0  0  0  0  0  0  0  0  0  0  0  0
   61.4769   32.5851   51.7329 N   0  0  0  0  0  0  0  0  0  0  0  0
   61.2006   31.1918   51.3658 C   0  0  0  0  0  0  0  0  0  0  0  0
   59.7121   30.8851   51.5594 C   0  0  0  0  0  0  0  0  0  0  0  0
   59.2183   31.3735   52.8587 N   0  0  0  0  0  0  0  0  0  0  0  0
   57.8816   31.0356   53.2929 C   0  0  0  0  0  0  0  0  0  0  0  0
   56.8758   30.4526   52.3460 C   0  0  0  0  0  0  0  0  0  0  0  0
   57.5416   31.2165   54.4944 O   0  0  0  0  0  0  0  0  0  0  0  0
   60.1301   32.0882   53.7664 C   0  0  0  0  0  0  0  0  0  0  0  0
   60.9541   33.1281   52.9950 C   0  0  0  0  0  0  0  0  0  0  0  0
  1  2  2  0
  2  3  1  0
  3  4  2  0
  4 11  1  0
 11 12  1  0
 12 13  1  0
 13 14  2  0
 13 15  1  0
 15 16  1  0
 16 17  1  0
  3  5  1  0
  5  6  2  0
  6  7  1  0
  6  8  1  0
  8  9  1  0
  9 10  2  0
  9 19  1  0
 19 20  1  0
 20 21  2  0
 21 22  1  0
 22 23  2  0
 23 24  1  0
 24 26  1  0
 26 27  2  0
 26 28  1  0
 28 29  1  0
 29 30  1  0
 30 31  1  0
 31 32  1  0
 32 33  1  0
 32 34  2  0
 31 35  1  0
 35 36  1  0
 24 25  2  0
  8  2  1  0
 25 20  1  0
 16 11  2  0
 36 28  1  0
 17 18  1  0
M  CHG 1  12  -1
M  CHG 1  15  -1
M  CHG 1  19  -1
M  END
> <UniqueID>
70

> <SMILES>
C=c1c(=Cc2[n-]c(=O)[n-]c2O)cc(C)n1C(=O)[N-]c1cccc(C(=O)N2CCN(C(C)=O)CC2)c1

> <Energy>
140.64011765607725

> <Genealogy>
C=c1c(=Cc2[n-]c(=O)[n-]c2O)cc(C)n1C(=O)[N-]c1cccc(C(=O)N2CCN(C(C)=O)CC2)c1 (protonated)
C=c1c(=Cc2[n-]c(=O)[n-]c2O)cc(C)n1C(=O)[N-]c1cccc(C(=O)N2CCN(C(C)=O)CC2)c1 (3D coordinates assigned)
C=c1c(=Cc2[n-]c(=O)[n-]c2O)cc(C)n1C(=O)[N-]c1cccc(C(=O)N2CCN(C(C)=O)CC2)c1 (nonaromatic ring conformer: 140.64011765607725 kcal/mol)

> <smiles>
C=c1c(=Cc2[nH]c(=O)[nH]c2O)cc(C)n1C(=O)Nc1cccc(C(=O)N2CCN(C(C)=O)CC2)c1

> <score_type>
oracle

> <origin>
adg

> <m_score__min__energy>
-15.49

> <m_primary>
energy

> <minimizedAffinity>
-10.13923

> <minimizedRMSD>
1.03625

> <CNNscore>
0.7835125327

> <CNNaffinity>
7.5316390991

> <CNN_VS>
5.9011335373

> <CNNaffinity_variance>
0.0968144909

$$$$
78:0


 33 35  0  0  0  0  0  0  0  0999 V2000
   57.3309   30.7120   44.2591 S   0  0  0  0  0  0  0  0  0  0  0  0
   56.0437   29.9733   44.0192 O   0  0  0  0  0  0  0  0  0  0  0  0
   57.7438   31.3563   42.9663 O   0  0  0  0  0  0  0  0  0  0  0  0
   58.6266   29.5779   44.7554 C   0  0  0  0  0  0  0  0  0  0  0  0
   58.2127   28.1176   44.5992 C   0  0  0  0  0  0  0  0  0  0  0  0
   57.5885   27.6349   45.8253 N   0  0  0  0  0  0  0  0  0  0  0  0
   58.6044   26.3166   47.4504 O   0  0  0  0  0  0  0  0  0  0  0  0
   57.8979   26.3641   46.4055 C   0  0  0  0  0  0  0  0  0  0  0  0
   57.3898   25.1027   45.8010 C   0  0  0  0  0  0  0  0  0  0  0  0
   58.3125   24.1355   45.3541 C   0  0  0  0  0  0  0  0  0  0  0  0
   57.8730   22.9101   44.8415 C   0  0  0  0  0  0  0  0  0  0  0  0
   56.5106   22.6284   44.7656 C   0  0  0  0  0  0  0  0  0  0  0  0
   56.0910   21.3816   44.3019 O   0  0  0  0  0  0  0  0  0  0  0  0
   55.5791   23.5902   45.1713 C   0  0  0  0  0  0  0  0  0  0  0  0
   56.0075   24.8224   45.6848 C   0  0  0  0  0  0  0  0  0  0  0  0
   55.0445   25.7449   46.0834 O   0  0  0  0  0  0  0  0  0  0  0  0
   56.7235   20.7448   44.0327 H   0  0  0  0  0  0  0  0  0  0  0  0
   57.1041   31.9715   45.4380 N   0  0  0  0  0  0  0  0  0  0  0  0
   58.0260   33.0196   45.7857 C   0  0  0  0  0  0  0  0  0  0  0  0
   58.4798   33.9637   44.8536 C   0  0  0  0  0  0  0  0  0  0  0  0
   59.3688   34.9591   45.2462 C   0  0  0  0  0  0  0  0  0  0  0  0
   59.8219   34.9969   46.5620 C   0  0  0  0  0  0  0  0  0  0  0  0
   59.3904   34.0749   47.4796 N   0  0  0  0  0  0  0  0  0  0  0  0
   58.4900   33.1038   47.1098 C   0  0  0  0  0  0  0  0  0  0  0  0
   58.0806   32.2592   47.9529 O   0  0  0  0  0  0  0  0  0  0  0  0
   59.9316   34.1305   48.8498 C   0  0  0  0  0  0  0  0  0  0  0  0
   61.3103   33.5111   48.9213 C   0  0  0  0  0  0  0  0  0  0  0  0
   62.0207   33.2992   47.7245 C   0  0  0  0  0  0  0  0  0  0  0  0
   63.2736   32.6854   47.7421 C   0  0  0  0  0  0  0  0  0  0  0  0
   63.8348   32.2728   48.9510 C   0  0  0  0  0  0  0  0  0  0  0  0
   63.1522   32.4908   50.1472 C   0  0  0  0  0  0  0  0  0  0  0  0
   61.8948   33.1048   50.1465 C   0  0  0  0  0  0  0  0  0  0  0  0
   61.0816   33.2938   51.6960 Cl  0  0  0  0  0  0  0  0  0  0  0  0
  7  8  2  0
  8  6  1  0
  6  5  1  0
  5  4  1  0
  4  1  1  0
  1  2  2  0
  1  3  2  0
  1 18  1  0
 18 19  1  0
 19 20  2  0
 20 21  1  0
 21 22  2  0
 22 23  1  0
 23 26  1  0
 26 27  1  0
 27 28  2  0
 28 29  1  0
 29 30  2  0
 30 31  1  0
 31 32  2  0
 32 33  1  0
 23 24  1  0
 24 25  2  0
  8  9  1  0
  9 10  2  0
 10 11  1  0
 11 12  2  0
 12 13  1  0
 12 14  1  0
 14 15  2  0
 15 16  1  0
 24 19  1  0
 15  9  1  0
 32 27  1  0
 13 17  1  0
M  CHG 1   6  -1
M  CHG 1  16  -1
M  CHG 1  18  -1
M  END
> <UniqueID>
78

> <SMILES>
O=C([N-]CCS(=O)(=O)[N-]c1cccn(Cc2ccccc2Cl)c1=O)c1ccc(O)cc1[O-]

> <Energy>
49.22818671741423

> <Genealogy>
O=C([N-]CCS(=O)(=O)[N-]c1cccn(Cc2ccccc2Cl)c1=O)c1ccc(O)cc1[O-] (protonated)
O=C([N-]CCS(=O)(=O)[N-]c1cccn(Cc2ccccc2Cl)c1=O)c1ccc(O)cc1[O-] (3D coordinates assigned)
O=C([N-]CCS(=O)(=O)[N-]c1cccn(Cc2ccccc2Cl)c1=O)c1ccc(O)cc1[O-] (optimized conformer: 49.22818671741423 kcal/mol)

> <smiles>
O=C(NCCS(=O)(=O)Nc1cccn(Cc2ccccc2Cl)c1=O)c1ccc(O)cc1O

> <score_type>
oracle

> <origin>
adg

> <m_score__min__energy>
-16.890000000000001

> <m_primary>
energy

> <minimizedAffinity>
-9.00572

> <minimizedRMSD>
0.67063

> <CNNscore>
0.8532356024

> <CNNaffinity>
7.1921782494

> <CNN_VS>
6.1366224289

> <CNNaffinity_variance>
0.0344377793

$$$$
92:0


 30 32  0  0  0  0  0  0  0  0999 V2000
   60.5948   28.7931   44.8874 C   0  0  0  0  0  0  0  0  0  0  0  0
   60.1818   28.3876   46.1009 C   0  0  0  0  0  0  0  0  0  0  0  0
   59.2560   27.3671   46.3788 C   0  0  0  0  0  0  0  0  0  0  0  0
   58.7173   26.4216   45.5839 C   0  0  0  0  0  0  0  0  0  0  0  0
   58.9527   27.4733   47.7256 C   0  0  0  0  0  0  0  0  0  0  0  0
   59.7339   28.4912   48.2343 C   0  0  0  0  0  0  0  0  0  0  0  0
   59.7408   28.9198   49.6732 C   0  0  0  0  0  0  0  0  0  0  0  0
   60.4970   29.0346   47.2558 N   0  0  0  0  0  0  0  0  0  0  0  0
   57.8182   25.3428   46.0274 C   0  0  0  0  0  0  0  0  0  0  0  0
   58.2161   24.1009   46.3675 N   0  0  0  0  0  0  0  0  0  0  0  0
   57.0711   23.5138   46.7869 C   0  0  0  0  0  0  0  0  0  0  0  0
   57.0275   22.3175   47.1786 O   0  0  0  0  0  0  0  0  0  0  0  0
   55.9810   24.3116   46.7615 N   0  0  0  0  0  0  0  0  0  0  0  0
   56.4760   25.4683   46.2914 C   0  0  0  0  0  0  0  0  0  0  0  0
   55.7139   26.6169   46.1103 O   0  0  0  0  0  0  0  0  0  0  0  0
   61.3992   30.1844   47.4168 C   0  0  0  0  0  0  0  0  0  0  0  0
   61.0883   30.9306   48.7209 C   0  0  0  0  0  0  0  0  0  0  0  0
   61.1281   32.3813   48.5129 N   0  0  0  0  0  0  0  0  0  0  0  0
   59.5369   33.0435   48.2568 S   0  0  0  0  0  0  0  0  0  0  0  0
   59.6230   34.5454   48.2896 O   0  0  0  0  0  0  0  0  0  0  0  0
   58.6089   32.5937   49.3564 O   0  0  0  0  0  0  0  0  0  0  0  0
   58.9167   32.5508   46.6839 C   0  0  0  0  0  0  0  0  0  0  0  0
   58.3439   31.2826   46.5383 C   0  0  0  0  0  0  0  0  0  0  0  0
   57.8047   30.8863   45.3091 C   0  0  0  0  0  0  0  0  0  0  0  0
   57.8424   31.7538   44.1966 C   0  0  0  0  0  0  0  0  0  0  0  0
   58.4316   33.0234   44.3518 C   0  0  0  0  0  0  0  0  0  0  0  0
   58.9605   33.4212   45.5845 C   0  0  0  0  0  0  0  0  0  0  0  0
   57.2742   31.3482   42.8833 C   0  0  0  0  0  0  0  0  0  0  0  0
   57.4433   32.0829   41.8688 O   0  0  0  0  0  0  0  0  0  0  0  0
   56.4932   30.0782   42.7193 C   0  0  0  0  0  0  0  0  0  0  0  0
  1  2  2  0
  2  3  1  0
  3  4  2  0
  4  9  1  0
  9 10  1  0
 10 11  1  0
 11 12  2  0
 11 13  1  0
 13 14  1  0
 14 15  1  0
  3  5  1  0
  5  6  2  0
  6  7  1  0
  6  8  1  0
  8 16  1  0
 16 17  1  0
 17 18  1  0
 18 19  1  0
 19 20  2  0
 19 21  2  0
 19 22  1  0
 22 23  2  0
 23 24  1  0
 24 25  2  0
 25 28  1  0
 28 29  2  0
 28 30  1  0
 25 26  1  0
 26 27  2  0
  8  2  1  0
 27 22  1  0
 14  9  2  0
M  CHG 1  10  -1
M  CHG 1  13  -1
M  CHG 1  15  -1
M  CHG 1  18  -1
M  END
> <UniqueID>
92

> <SMILES>
C=c1/c(=C\c2[n-]c(=O)[n-]c2[O-])cc(C)n1CC[N-]S(=O)(=O)c1ccc(C(C)=O)cc1

> <Energy>
115.08248911984862

> <Genealogy>
C=c1c(=Cc2[n-]c(=O)[n-]c2[O-])cc(C)n1CC[N-]S(=O)(=O)c1ccc(C(C)=O)cc1 (protonated)
C=c1/c(=C\c2[n-]c(=O)[n-]c2[O-])cc(C)n1CC[N-]S(=O)(=O)c1ccc(C(C)=O)cc1 (cis-trans isomerization)
C=c1/c(=C\c2[n-]c(=O)[n-]c2[O-])cc(C)n1CC[N-]S(=O)(=O)c1ccc(C(C)=O)cc1 (3D coordinates assigned)
C=c1/c(=C\c2[n-]c(=O)[n-]c2[O-])cc(C)n1CC[N-]S(=O)(=O)c1ccc(C(C)=O)cc1 (optimized conformer: 115.08248911984862 kcal/mol)

> <smiles>
C=c1c(=Cc2[nH]c(=O)[nH]c2O)cc(C)n1CCNS(=O)(=O)c1ccc(C(C)=O)cc1

> <score_type>
oracle

> <origin>
adg

> <m_score__min__energy>
-18.350000000000001

> <m_primary>
energy

> <minimizedAffinity>
-6.49987

> <minimizedRMSD>
1.26113

> <CNNscore>
0.2346763760

> <CNNaffinity>
6.6622014046

> <CNN_VS>
1.5634613037

> <CNNaffinity_variance>
0.0188106373

$$$$
4:0


 37 41  0  0  0  0  0  0  0  0999 V2000
   59.8820   32.7191   48.0561 C   0  0  0  0  0  0  0  0  0  0  0  0
   61.0946   32.7427   47.3519 C   0  0  0  0  0  0  0  0  0  0  0  0
   62.2934   33.0133   48.0165 C   0  0  0  0  0  0  0  0  0  0  0  0
   62.2934   33.2943   49.3922 C   0  0  0  0  0  0  0  0  0  0  0  0
   61.0757   33.3202   50.0866 C   0  0  0  0  0  0  0  0  0  0  0  0
   59.8787   33.0357   49.4251 C   0  0  0  0  0  0  0  0  0  0  0  0
   63.5369   33.4682   50.0942 N   0  0  0  0  0  0  0  0  0  0  0  0
   63.5831   34.1926   51.3667 C   0  0  0  0  0  0  0  0  0  0  0  0
   64.1600   33.2780   52.4402 C   0  0  0  0  0  0  0  0  0  0  0  0
   65.5822   32.7563   52.0750 C   0  0  0  0  0  0  0  0  0  0  0  0
   65.9279   32.8744   50.5507 C   0  0  0  0  0  0  0  0  0  0  0  0
   64.7336   32.7868   49.5835 C   0  0  0  0  0  0  0  0  0  0  0  0
   65.8418   31.4036   52.6635 N   0  0  0  0  0  0  0  0  0  0  0  0
   65.9391   31.4701   54.1543 C   0  0  0  0  0  0  0  0  0  0  0  0
   66.5988   30.2561   54.7408 C   0  0  0  0  0  0  0  0  0  0  0  0
   66.1875   29.7697   55.8267 O   0  0  0  0  0  0  0  0  0  0  0  0
   67.7407   29.7102   54.0741 N   0  0  0  0  0  0  0  0  0  0  0  0
   68.4107   28.5139   54.5810 C   0  0  0  0  0  0  0  0  0  0  0  0
   68.1637   30.3726   52.8404 C   0  0  0  0  0  0  0  0  0  0  0  0
   66.9318   30.6434   51.9672 C   0  0  0  0  0  0  0  0  0  0  0  0
   65.0250   30.8211   52.4787 H   0  0  0  0  0  0  0  0  0  0  0  0
   58.6001   32.3438   47.3539 C   0  0  0  0  0  0  0  0  0  0  0  0
   59.4340   29.6116   48.2515 C   0  0  0  0  0  0  0  0  0  0  0  0
   59.1930   29.9050   46.9642 C   0  0  0  0  0  0  0  0  0  0  0  0
   59.1837   29.0058   45.8836 C   0  0  0  0  0  0  0  0  0  0  0  0
   59.5776   27.7193   45.7995 C   0  0  0  0  0  0  0  0  0  0  0  0
   58.6897   29.7088   44.7990 C   0  0  0  0  0  0  0  0  0  0  0  0
   58.4746   31.0041   45.2236 C   0  0  0  0  0  0  0  0  0  0  0  0
   58.0178   32.1196   44.3319 C   0  0  0  0  0  0  0  0  0  0  0  0
   58.7824   31.1310   46.5368 N   0  0  0  0  0  0  0  0  0  0  0  0
   58.6977   26.5471   45.9327 C   0  0  0  0  0  0  0  0  0  0  0  0
   59.1301   25.2775   46.0508 N   0  0  0  0  0  0  0  0  0  0  0  0
   57.9869   24.5571   46.0237 C   0  0  0  0  0  0  0  0  0  0  0  0
   57.9757   23.3035   46.1269 O   0  0  0  0  0  0  0  0  0  0  0  0
   56.8597   25.2853   45.8736 N   0  0  0  0  0  0  0  0  0  0  0  0
   57.3293   26.5419   45.8062 C   0  0  0  0  0  0  0  0  0  0  0  0
   56.5229   27.6630   45.6366 O   0  0  0  0  0  0  0  0  0  0  0  0
 23 24  2  0
 24 25  1  0
 25 26  2  0
 26 31  1  0
 31 32  1  0
 32 33  1  0
 33 34  2  0
 33 35  1  0
 35 36  1  0
 36 37  1  0
 25 27  1  0
 27 28  2  0
 28 29  1  0
 28 30  1  0
 30 22  1  0
 22  1  1  0
  1  2  2  0
  2  3  1  0
  3  4  2  0
  4  7  1  0
  7  8  1  0
  8  9  1  0
  9 10  1  0
 13 10  1  0
 13 14  1  0
 14 15  1  0
 15 16  2  0
 15 17  1  0
 17 18  1  0
 17 19  1  0
 19 20  1  0
 10 11  1  0
 11 12  1  0
  4  5  1  0
  5  6  2  0
 30 24  1  0
  6  1  1  0
 36 31  2  0
 12  7  1  0
 20 13  1  0
 13 21  1  0
M  CHG 1  13   1
M  CHG 1  32  -1
M  CHG 1  35  -1
M  CHG 1  37  -1
M  END
> <UniqueID>
5

> <SMILES>
C=c1/c(=C\c2[n-]c(=O)[n-]c2[O-])cc(C)n1Cc1ccc(N2CCC([N@H+]3CCN(C)C(=O)C3)CC2)cc1

> <Energy>
162.47766415612037

> <Genealogy>
C=c1c(=Cc2[n-]c(=O)[n-]c2[O-])cc(C)n1Cc1ccc(N2CCC([NH+]3CCN(C)C(=O)C3)CC2)cc1 (protonated)
C=c1c(=Cc2[n-]c(=O)[n-]c2[O-])cc(C)n1Cc1ccc(N2CCC([N@H+]3CCN(C)C(=O)C3)CC2)cc1 (chirality)
C=c1/c(=C\c2[n-]c(=O)[n-]c2[O-])cc(C)n1Cc1ccc(N2CCC([N@H+]3CCN(C)C(=O)C3)CC2)cc1 (cis-trans isomerization)
C=c1/c(=C\c2[n-]c(=O)[n-]c2[O-])cc(C)n1Cc1ccc(N2CCC([N@H+]3CCN(C)C(=O)C3)CC2)cc1 (3D coordinates assigned)
C=c1/c(=C\c2[n-]c(=O)[n-]c2[O-])cc(C)n1Cc1ccc(N2CCC([N@H+]3CCN(C)C(=O)C3)CC2)cc1 (nonaromatic ring conformer: 162.47766415612037 kcal/mol)

> <smiles>
C=c1c(=Cc2[nH]c(=O)[nH]c2O)cc(C)n1Cc1ccc(N2CCC(N3CCN(C)C(=O)C3)CC2)cc1

> <score_type>
oracle

> <origin>
adg

> <m_score__min__energy>
-15.99

> <m_primary>
energy

> <minimizedAffinity>
-8.03550

> <minimizedRMSD>
1.29510

> <CNNscore>
0.2343888134

> <CNNaffinity>
7.0734152794

> <CNN_VS>
1.6579294205

> <CNNaffinity_variance>
0.1856172830

$$$$
7:0


 32 35  0  0  0  0  0  0  0  0999 V2000
   58.6827   30.6611   45.3754 C   0  0  0  0  0  0  0  0  0  0  0  0
   59.2509   31.2879   46.4940 C   0  0  0  0  0  0  0  0  0  0  0  0
   59.1938   32.6861   46.6403 C   0  0  0  0  0  0  0  0  0  0  0  0
   58.5410   33.4455   45.6520 C   0  0  0  0  0  0  0  0  0  0  0  0
   57.9736   32.8209   44.5383 C   0  0  0  0  0  0  0  0  0  0  0  0
   58.0448   31.4345   44.3952 C   0  0  0  0  0  0  0  0  0  0  0  0
   57.4730   30.8408   43.3178 F   0  0  0  0  0  0  0  0  0  0  0  0
   56.4597   28.7512   44.9028 C   0  0  0  0  0  0  0  0  0  0  0  0
   57.7409   28.3683   45.0322 C   0  0  0  0  0  0  0  0  0  0  0  0
   58.2329   27.0581   44.9625 C   0  0  0  0  0  0  0  0  0  0  0  0
   57.5130   25.9334   44.7541 C   0  0  0  0  0  0  0  0  0  0  0  0
   59.6121   27.1579   45.1277 C   0  0  0  0  0  0  0  0  0  0  0  0
   59.8955   28.4970   45.3027 C   0  0  0  0  0  0  0  0  0  0  0  0
   61.2721   29.0572   45.4972 C   0  0  0  0  0  0  0  0  0  0  0  0
   58.7659   29.2325   45.2340 N   0  0  0  0  0  0  0  0  0  0  0  0
   57.0148   25.0189   45.8060 C   0  0  0  0  0  0  0  0  0  0  0  0
   57.7377   24.0858   46.4504 N   0  0  0  0  0  0  0  0  0  0  0  0
   56.8598   23.5526   47.3259 C   0  0  0  0  0  0  0  0  0  0  0  0
   57.1699   22.6269   48.1203 O   0  0  0  0  0  0  0  0  0  0  0  0
   55.6226   24.0920   47.2856 N   0  0  0  0  0  0  0  0  0  0  0  0
   55.7400   25.0189   46.3226 C   0  0  0  0  0  0  0  0  0  0  0  0
   54.7017   25.8513   45.9247 O   0  0  0  0  0  0  0  0  0  0  0  0
   59.7977   33.3220   47.8416 C   0  0  0  0  0  0  0  0  0  0  0  0
   59.3948   34.4694   48.1867 O   0  0  0  0  0  0  0  0  0  0  0  0
   60.8422   32.6753   48.6133 N   0  0  0  0  0  0  0  0  0  0  0  0
   61.2034   33.4966   49.8110 C   0  0  0  0  0  0  0  0  0  0  0  0
   62.5789   34.1721   49.7122 C   0  0  0  0  0  0  0  0  0  0  0  0
   63.6107   33.1301   49.4002 C   0  0  0  0  0  0  0  0  0  0  0  0
   64.7325   33.2046   49.8808 O   0  0  0  0  0  0  0  0  0  0  0  0
   63.2564   32.0004   48.4808 C   0  0  0  0  0  0  0  0  0  0  0  0
   61.9759   32.3465   47.7100 C   0  0  0  0  0  0  0  0  0  0  0  0
   59.9622   32.9968   48.9155 H   0  0  0  0  0  0  0  0  0  0  0  0
  8  9  2  0
  9 10  1  0
 10 11  2  0
 11 16  1  0
 16 17  1  0
 17 18  1  0
 18 19  2  0
 18 20  1  0
 20 21  1  0
 21 22  1  0
 10 12  1  0
 12 13  2  0
 13 14  1  0
 13 15  1  0
 15  1  1  0
  1  2  2  0
  2  3  1  0
  3 23  1  0
 23 24  2  0
 23 25  1  0
 25 26  1  0
 26 27  1  0
 27 28  1  0
 28 29  2  0
 28 30  1  0
 30 31  1  0
  3  4  2  0
  4  5  1  0
  5  6  2  0
  6  7  1  0
 15  9  1  0
  6  1  1  0
 21 16  2  0
 31 25  1  0
 25 32  1  0
M  CHG 1  17  -1
M  CHG 1  20  -1
M  CHG 1  22  -1
M  CHG 1  25   1
M  END
> <UniqueID>
8

> <SMILES>
C=c1c(=Cc2[n-]c(=O)[n-]c2[O-])cc(C)n1-c1cc(C(=O)[NH+]2CCC(=O)CC2)ccc1F

> <Energy>
132.9297656662429

> <Genealogy>
C=c1c(=Cc2[n-]c(=O)[n-]c2[O-])cc(C)n1-c1cc(C(=O)[NH+]2CCC(=O)CC2)ccc1F (protonated)
C=c1c(=Cc2[n-]c(=O)[n-]c2[O-])cc(C)n1-c1cc(C(=O)[NH+]2CCC(=O)CC2)ccc1F (3D coordinates assigned)
C=c1c(=Cc2[n-]c(=O)[n-]c2[O-])cc(C)n1-c1cc(C(=O)[NH+]2CCC(=O)CC2)ccc1F (nonaromatic ring conformer: 132.9297656662429 kcal/mol)

> <smiles>
C=c1c(=Cc2[nH]c(=O)[nH]c2O)cc(C)n1-c1cc(C(=O)N2CCC(=O)CC2)ccc1F

> <score_type>
oracle

> <origin>
adg

> <m_score__min__energy>
-15.74

> <m_primary>
energy

> <minimizedAffinity>
-8.41979

> <minimizedRMSD>
0.60910

> <CNNscore>
0.2603354752

> <CNNaffinity>
6.9476585388

> <CNN_VS>
1.8087220192

> <CNNaffinity_variance>
0.0162721332

$$$$
28:0


 30 33  0  0  0  0  0  0  0  0999 V2000
   57.3968   30.2108   43.5627 C   0  0  0  0  0  0  0  0  0  0  0  0
   57.7811   29.5234   44.6417 C   0  0  0  0  0  0  0  0  0  0  0  0
   57.6910   28.1749   44.7143 N   0  0  0  0  0  0  0  0  0  0  0  0
   58.1512   27.8609   45.9467 C   0  0  0  0  0  0  0  0  0  0  0  0
   58.2530   26.5895   46.3682 C   0  0  0  0  0  0  0  0  0  0  0  0
   58.5200   29.0366   46.5863 C   0  0  0  0  0  0  0  0  0  0  0  0
   59.0713   29.1463   47.7137 O   0  0  0  0  0  0  0  0  0  0  0  0
   58.2798   30.0788   45.7727 N   0  0  0  0  0  0  0  0  0  0  0  0
   57.5385   25.4342   45.7931 C   0  0  0  0  0  0  0  0  0  0  0  0
   58.1212   24.3179   45.3065 N   0  0  0  0  0  0  0  0  0  0  0  0
   57.0765   23.5267   44.9725 C   0  0  0  0  0  0  0  0  0  0  0  0
   57.2200   22.3787   44.4755 O   0  0  0  0  0  0  0  0  0  0  0  0
   55.8755   24.0837   45.2219 N   0  0  0  0  0  0  0  0  0  0  0  0
   54.5563   23.4817   45.0518 C   0  0  0  0  0  0  0  0  0  0  0  0
   56.1699   25.2753   45.7669 C   0  0  0  0  0  0  0  0  0  0  0  0
   55.2277   26.1931   46.2247 O   0  0  0  0  0  0  0  0  0  0  0  0
   58.5877   31.4571   46.0420 C   0  0  0  0  0  0  0  0  0  0  0  0
   57.6934   32.4700   45.6610 C   0  0  0  0  0  0  0  0  0  0  0  0
   58.0207   33.8129   45.8739 C   0  0  0  0  0  0  0  0  0  0  0  0
   59.2384   34.1515   46.4704 C   0  0  0  0  0  0  0  0  0  0  0  0
   60.1281   33.1434   46.8752 C   0  0  0  0  0  0  0  0  0  0  0  0
   59.8058   31.7975   46.6468 C   0  0  0  0  0  0  0  0  0  0  0  0
   61.3940   33.5017   47.5364 C   0  0  0  0  0  0  0  0  0  0  0  0
   62.3629   33.8807   46.8163 O   0  0  0  0  0  0  0  0  0  0  0  0
   61.5364   33.4266   48.9753 N   0  0  0  0  0  0  0  0  0  0  0  0
   62.8334   33.7758   49.5730 C   0  0  0  0  0  0  0  0  0  0  0  0
   62.9355   33.2431   51.0093 C   0  0  0  0  0  0  0  0  0  0  0  0
   61.7948   33.5963   51.7661 O   0  0  0  0  0  0  0  0  0  0  0  0
   60.6565   32.9541   51.2295 C   0  0  0  0  0  0  0  0  0  0  0  0
   60.3450   33.4930   49.8324 C   0  0  0  0  0  0  0  0  0  0  0  0
  1  2  2  0
  2  3  1  0
  3  4  1  0
  4  5  2  0
  5  9  1  0
  9 10  1  0
 10 11  1  0
 11 12  2  0
 11 13  1  0
 13 14  1  0
 13 15  1  0
 15 16  1  0
  4  6  1  0
  6  7  2  0
  6  8  1  0
  8 17  1  0
 17 18  2  0
 18 19  1  0
 19 20  2  0
 20 21  1  0
 21 23  1  0
 23 24  2  0
 23 25  1  0
 25 26  1  0
 26 27  1  0
 27 28  1  0
 28 29  1  0
 29 30  1  0
 21 22  2  0
  8  2  1  0
 22 17  1  0
 15  9  2  0
 30 25  1  0
M  CHG 1   3  -1
M  CHG 1  10  -1
M  CHG 1  16  -1
M  END
> <UniqueID>
27

> <SMILES>
C=c1[n-]/c(=C/c2[n-]c(=O)n(C)c2[O-])c(=O)n1-c1cccc(C(=O)N2CCOCC2)c1

> <Energy>
136.5535673206246

> <Genealogy>
C=c1[n-]c(=Cc2[n-]c(=O)n(C)c2[O-])c(=O)n1-c1cccc(C(=O)N2CCOCC2)c1 (protonated)
C=c1[n-]/c(=C/c2[n-]c(=O)n(C)c2[O-])c(=O)n1-c1cccc(C(=O)N2CCOCC2)c1 (cis-trans isomerization)
C=c1[n-]/c(=C/c2[n-]c(=O)n(C)c2[O-])c(=O)n1-c1cccc(C(=O)N2CCOCC2)c1 (3D coordinates assigned)
C=c1[n-]/c(=C/c2[n-]c(=O)n(C)c2[O-])c(=O)n1-c1cccc(C(=O)N2CCOCC2)c1 (nonaromatic ring conformer: 136.5535673206246 kcal/mol)

> <smiles>
C=c1[nH]c(=Cc2[nH]c(=O)n(C)c2O)c(=O)n1-c1cccc(C(=O)N2CCOCC2)c1

> <score_type>
oracle

> <origin>
adg

> <m_score__min__energy>
-16.170000000000002

> <m_primary>
energy

> <minimizedAffinity>
-9.40146

> <minimizedRMSD>
1.21184

> <CNNscore>
0.5047771335

> <CNNaffinity>
6.5011610985

> <CNN_VS>
3.2816374302

> <CNNaffinity_variance>
0.1293850094

$$$$
32:0


 30 32  0  0  0  0  0  0  0  0999 V2000
   59.0752   30.0708   48.0211 C   0  0  0  0  0  0  0  0  0  0  0  0
   58.8276   30.6083   46.8145 C   0  0  0  0  0  0  0  0  0  0  0  0
   58.9757   29.9788   45.5648 C   0  0  0  0  0  0  0  0  0  0  0  0
   59.2914   28.7108   45.2342 C   0  0  0  0  0  0  0  0  0  0  0  0
   58.7160   30.9471   44.6108 C   0  0  0  0  0  0  0  0  0  0  0  0
   58.3872   32.0996   45.2865 C   0  0  0  0  0  0  0  0  0  0  0  0
   58.0244   33.3925   44.6178 C   0  0  0  0  0  0  0  0  0  0  0  0
   58.4566   31.9058   46.6249 N   0  0  0  0  0  0  0  0  0  0  0  0
   58.6801   27.4954   45.8011 C   0  0  0  0  0  0  0  0  0  0  0  0
   57.2945   27.2792   45.7309 C   0  0  0  0  0  0  0  0  0  0  0  0
   56.4573   28.2297   45.1557 O   0  0  0  0  0  0  0  0  0  0  0  0
   56.7608   26.1337   46.2272 N   0  0  0  0  0  0  0  0  0  0  0  0
   57.5495   25.1769   46.7831 C   0  0  0  0  0  0  0  0  0  0  0  0
   57.0341   24.1247   47.2415 O   0  0  0  0  0  0  0  0  0  0  0  0
   58.8947   25.3543   46.8426 N   0  0  0  0  0  0  0  0  0  0  0  0
   59.4755   26.4829   46.3600 C   0  0  0  0  0  0  0  0  0  0  0  0
   60.7277   26.6124   46.4243 O   0  0  0  0  0  0  0  0  0  0  0  0
   58.2730   32.9553   47.6398 C   0  0  0  0  0  0  0  0  0  0  0  0
   59.5030   33.0774   48.5071 C   0  0  0  0  0  0  0  0  0  0  0  0
   59.4418   32.7003   49.6707 O   0  0  0  0  0  0  0  0  0  0  0  0
   60.7374   33.6337   47.9827 N   0  0  0  0  0  0  0  0  0  0  0  0
   60.4761   34.5169   46.8341 C   0  0  0  0  0  0  0  0  0  0  0  0
   60.4764   33.9778   48.8674 H   0  0  0  0  0  0  0  0  0  0  0  0
   61.7445   32.5864   47.6777 C   0  0  0  0  0  0  0  0  0  0  0  0
   62.7319   32.3215   48.7926 C   0  0  0  0  0  0  0  0  0  0  0  0
   62.4801   31.3099   49.7353 C   0  0  0  0  0  0  0  0  0  0  0  0
   63.3925   31.0606   50.7647 C   0  0  0  0  0  0  0  0  0  0  0  0
   64.5569   31.8250   50.8685 C   0  0  0  0  0  0  0  0  0  0  0  0
   64.8069   32.8447   49.9466 C   0  0  0  0  0  0  0  0  0  0  0  0
   63.8975   33.0957   48.9157 C   0  0  0  0  0  0  0  0  0  0  0  0
  1  2  2  0
  2  3  1  0
  3  4  2  0
  4  9  1  0
  9 10  2  0
 10 11  1  0
 10 12  1  0
 12 13  1  0
 13 14  2  0
 13 15  1  0
 15 16  1  0
 16 17  2  0
  3  5  1  0
  5  6  2  0
  6  7  1  0
  6  8  1  0
  8 18  1  0
 18 19  1  0
 19 20  2  0
 19 21  1  0
 21 22  1  0
 21 24  1  0
 24 25  1  0
 25 26  2  0
 26 27  1  0
 27 28  2  0
 28 29  1  0
 29 30  2  0
  8  2  1  0
 30 25  1  0
 16  9  1  0
 21 23  1  0
M  CHG 1  11  -1
M  CHG 1  12  -1
M  CHG 1  15  -1
M  CHG 1  21   1
M  END
> <UniqueID>
31

> <SMILES>
C=c1/c(=C\c2c([O-])[n-]c(=O)[n-]c2=O)cc(C)n1CC(=O)[N@H+](C)Cc1ccccc1

> <Energy>
95.14908296211513

> <Genealogy>
C=c1c(=Cc2c([O-])[n-]c(=O)[n-]c2=O)cc(C)n1CC(=O)[NH+](C)Cc1ccccc1 (protonated)
C=c1c(=Cc2c([O-])[n-]c(=O)[n-]c2=O)cc(C)n1CC(=O)[N@H+](C)Cc1ccccc1 (chirality)
C=c1/c(=C\c2c([O-])[n-]c(=O)[n-]c2=O)cc(C)n1CC(=O)[N@H+](C)Cc1ccccc1 (cis-trans isomerization)
C=c1/c(=C\c2c([O-])[n-]c(=O)[n-]c2=O)cc(C)n1CC(=O)[N@H+](C)Cc1ccccc1 (3D coordinates assigned)
C=c1/c(=C\c2c([O-])[n-]c(=O)[n-]c2=O)cc(C)n1CC(=O)[N@H+](C)Cc1ccccc1 (optimized conformer: 95.14908296211513 kcal/mol)

> <smiles>
C=c1c(=Cc2c(O)[nH]c(=O)[nH]c2=O)cc(C)n1CC(=O)N(C)Cc1ccccc1

> <score_type>
oracle

> <origin>
adg

> <m_score__min__energy>
-15.039999999999999

> <m_primary>
energy

> <minimizedAffinity>
-7.31681

> <minimizedRMSD>
1.45775

> <CNNscore>
0.1579610854

> <CNNaffinity>
6.2914161682

> <CNN_VS>
0.9937989116

> <CNNaffinity_variance>
0.0393172614

$$$$
35:0


 33 36  0  0  0  0  0  0  0  0999 V2000
   58.1032   31.8451   46.6469 C   0  0  0  0  0  0  0  0  0  0  0  0
   59.1334   32.2044   47.6812 C   0  0  0  0  0  0  0  0  0  0  0  0
   59.1465   31.5533   48.9248 C   0  0  0  0  0  0  0  0  0  0  0  0
   60.0846   31.9092   49.8960 C   0  0  0  0  0  0  0  0  0  0  0  0
   61.0121   32.9288   49.6442 C   0  0  0  0  0  0  0  0  0  0  0  0
   60.9962   33.5869   48.4056 C   0  0  0  0  0  0  0  0  0  0  0  0
   60.0574   33.2330   47.4331 C   0  0  0  0  0  0  0  0  0  0  0  0
   62.2061   33.3481   50.8689 S   0  0  0  0  0  0  0  0  0  0  0  0
   62.9379   34.5983   50.4618 O   0  0  0  0  0  0  0  0  0  0  0  0
   61.4951   33.6117   52.1670 O   0  0  0  0  0  0  0  0  0  0  0  0
   63.3324   32.0296   51.0686 N   0  0  0  0  0  0  0  0  0  0  0  0
   63.1227   31.3777   52.3755 C   0  0  0  0  0  0  0  0  0  0  0  0
   64.2493   30.3682   52.6870 C   0  0  0  0  0  0  0  0  0  0  0  0
   65.0891   30.1704   51.5681 O   0  0  0  0  0  0  0  0  0  0  0  0
   65.7306   31.3867   51.2337 C   0  0  0  0  0  0  0  0  0  0  0  0
   64.7175   32.5167   50.9454 C   0  0  0  0  0  0  0  0  0  0  0  0
   63.1691   31.3414   50.3337 H   0  0  0  0  0  0  0  0  0  0  0  0
   58.7782   31.4116   45.3414 C   0  0  0  0  0  0  0  0  0  0  0  0
   56.8202   29.3592   44.3700 C   0  0  0  0  0  0  0  0  0  0  0  0
   58.0421   29.0364   44.8250 C   0  0  0  0  0  0  0  0  0  0  0  0
   58.5553   27.7425   45.0176 C   0  0  0  0  0  0  0  0  0  0  0  0
   58.0805   26.5371   44.6487 C   0  0  0  0  0  0  0  0  0  0  0  0
   59.7472   27.8969   45.7047 C   0  0  0  0  0  0  0  0  0  0  0  0
   59.9493   29.2524   45.8571 C   0  0  0  0  0  0  0  0  0  0  0  0
   61.1478   29.8611   46.5206 C   0  0  0  0  0  0  0  0  0  0  0  0
   58.9306   29.9495   45.3042 N   0  0  0  0  0  0  0  0  0  0  0  0
   57.5339   25.5147   45.5538 C   0  0  0  0  0  0  0  0  0  0  0  0
   58.1220   24.3269   45.7759 N   0  0  0  0  0  0  0  0  0  0  0  0
   57.2264   23.6734   46.5482 C   0  0  0  0  0  0  0  0  0  0  0  0
   57.4283   22.5109   46.9829 O   0  0  0  0  0  0  0  0  0  0  0  0
   56.0922   24.3596   46.8056 N   0  0  0  0  0  0  0  0  0  0  0  0
   56.2955   25.5165   46.1567 C   0  0  0  0  0  0  0  0  0  0  0  0
   55.3579   26.5411   46.0928 O   0  0  0  0  0  0  0  0  0  0  0  0
 19 20  2  0
 20 21  1  0
 21 22  2  0
 22 27  1  0
 27 28  1  0
 28 29  1  0
 29 30  2  0
 29 31  1  0
 31 32  1  0
 32 33  1  0
 21 23  1  0
 23 24  2  0
 24 25  1  0
 24 26  1  0
 26 18  1  0
 18  1  1  0
  1  2  1  0
  2  3  2  0
  3  4  1  0
  4  5  2  0
  5  8  1  0
  8  9  2  0
  8 10  2  0
  8 11  1  0
 11 12  1  0
 12 13  1  0
 13 14  1  0
 14 15  1  0
 15 16  1  0
  5  6  1  0
  6  7  2  0
 26 20  1  0
  7  2  1  0
 32 27  2  0
 16 11  1  0
 11 17  1  0
M  CHG 1  11   1
M  CHG 1  28  -1
M  CHG 1  31  -1
M  CHG 1  33  -1
M  END
> <UniqueID>
34

> <SMILES>
C=c1c(=Cc2[n-]c(=O)[n-]c2[O-])cc(C)n1CCc1ccc(S(=O)(=O)[NH+]2CCOCC2)cc1

> <Energy>
132.03070971718685

> <Genealogy>
C=c1c(=Cc2[n-]c(=O)[n-]c2[O-])cc(C)n1CCc1ccc(S(=O)(=O)[NH+]2CCOCC2)cc1 (protonated)
C=c1c(=Cc2[n-]c(=O)[n-]c2[O-])cc(C)n1CCc1ccc(S(=O)(=O)[NH+]2CCOCC2)cc1 (3D coordinates assigned)
C=c1c(=Cc2[n-]c(=O)[n-]c2[O-])cc(C)n1CCc1ccc(S(=O)(=O)[NH+]2CCOCC2)cc1 (nonaromatic ring conformer: 132.03070971718685 kcal/mol)

> <smiles>
C=c1c(=Cc2[nH]c(=O)[nH]c2O)cc(C)n1CCc1ccc(S(=O)(=O)N2CCOCC2)cc1

> <score_type>
oracle

> <origin>
adg

> <m_score__min__energy>
-16.719999999999999

> <m_primary>
energy

> <minimizedAffinity>
-6.67952

> <minimizedRMSD>
0.62732

> <CNNscore>
0.3133442104

> <CNNaffinity>
7.0221400261

> <CNN_VS>
2.2003469467

> <CNNaffinity_variance>
0.2349548340

$$$$
44:0


 27 29  0  0  0  0  0  0  0  0999 V2000
   55.3709   28.1724   53.8344 C   0  0  0  0  0  0  0  0  0  0  0  0
   55.7685   29.3129   53.2453 C   0  0  0  0  0  0  0  0  0  0  0  0
   54.9389   30.3027   52.7026 C   0  0  0  0  0  0  0  0  0  0  0  0
   53.5873   30.3224   52.7122 C   0  0  0  0  0  0  0  0  0  0  0  0
   55.7891   31.2689   52.1738 C   0  0  0  0  0  0  0  0  0  0  0  0
   57.0745   30.8332   52.4076 C   0  0  0  0  0  0  0  0  0  0  0  0
   57.0693   29.6562   53.0716 N   0  0  0  0  0  0  0  0  0  0  0  0
   58.2478   28.8851   53.4784 C   0  0  0  0  0  0  0  0  0  0  0  0
   52.7213   30.4767   51.5222 C   0  0  0  0  0  0  0  0  0  0  0  0
   52.7190   29.6822   50.4380 N   0  0  0  0  0  0  0  0  0  0  0  0
   51.7546   30.2165   49.6579 C   0  0  0  0  0  0  0  0  0  0  0  0
   51.4441   29.7312   48.5381 O   0  0  0  0  0  0  0  0  0  0  0  0
   51.1373   31.2967   50.1790 N   0  0  0  0  0  0  0  0  0  0  0  0
   51.7580   31.4456   51.3590 C   0  0  0  0  0  0  0  0  0  0  0  0
   51.4574   32.4544   52.2669 O   0  0  0  0  0  0  0  0  0  0  0  0
   58.2835   31.5544   51.9632 C   0  0  0  0  0  0  0  0  0  0  0  0
   58.9929   32.1073   52.8478 O   0  0  0  0  0  0  0  0  0  0  0  0
   58.6296   31.7284   50.5598 N   0  0  0  0  0  0  0  0  0  0  0  0
   59.6492   32.7971   50.4209 C   0  0  0  0  0  0  0  0  0  0  0  0
   60.4194   32.7370   49.0831 C   0  0  0  0  0  0  0  0  0  0  0  0
   59.6571   32.0610   48.0165 N   0  0  0  0  0  0  0  0  0  0  0  0
   59.2807   30.6788   48.3937 C   0  0  0  0  0  0  0  0  0  0  0  0
   59.0832   30.4805   49.9122 C   0  0  0  0  0  0  0  0  0  0  0  0
   58.7879   32.4151   49.8723 H   0  0  0  0  0  0  0  0  0  0  0  0
   58.5323   32.8772   47.4963 C   0  0  0  0  0  0  0  0  0  0  0  0
   59.0266   34.2409   46.9965 C   0  0  0  0  0  0  0  0  0  0  0  0
   59.1923   34.2711   45.4771 C   0  0  0  0  0  0  0  0  0  0  0  0
  1  2  2  0
  2  3  1  0
  3  4  2  0
  4  9  1  0
  9 10  1  0
 10 11  1  0
 11 12  2  0
 11 13  1  0
 13 14  1  0
 14 15  1  0
  3  5  1  0
  5  6  2  0
  6 16  1  0
 16 17  2  0
 16 18  1  0
 18 19  1  0
 19 20  1  0
 20 21  1  0
 21 25  1  0
 25 26  1  0
 26 27  1  0
 21 22  1  0
 22 23  1  0
  6  7  1  0
  7  8  1  0
  7  2  1  0
 14  9  2  0
 23 18  1  0
 18 24  1  0
M  CHG 1  10  -1
M  CHG 1  13  -1
M  CHG 1  15  -1
M  CHG 1  18   1
M  END
> <UniqueID>
43

> <SMILES>
C=c1/c(=C/c2[n-]c(=O)[n-]c2[O-])cc(C(=O)[NH+]2CCN(CCC)CC2)n1C

> <Energy>
133.72270355558854

> <Genealogy>
C=c1c(=Cc2[n-]c(=O)[n-]c2[O-])cc(C(=O)[NH+]2CCN(CCC)CC2)n1C (protonated)
C=c1/c(=C/c2[n-]c(=O)[n-]c2[O-])cc(C(=O)[NH+]2CCN(CCC)CC2)n1C (cis-trans isomerization)
C=c1/c(=C/c2[n-]c(=O)[n-]c2[O-])cc(C(=O)[NH+]2CCN(CCC)CC2)n1C (3D coordinates assigned)
C=c1/c(=C/c2[n-]c(=O)[n-]c2[O-])cc(C(=O)[NH+]2CCN(CCC)CC2)n1C (nonaromatic ring conformer: 133.72270355558854 kcal/mol)

> <smiles>
C=c1c(=Cc2[nH]c(=O)[nH]c2O)cc(C(=O)N2CCN(CCC)CC2)n1C

> <score_type>
oracle

> <origin>
adg

> <m_score__min__energy>
-15.85

> <m_primary>
energy

> <minimizedAffinity>
-5.80709

> <minimizedRMSD>
1.01255

> <CNNscore>
0.1066852659

> <CNNaffinity>
5.4068245888

> <CNN_VS>
0.5768285394

> <CNNaffinity_variance>
0.0238020327

$$$$
47:0


 31 34  0  0  0  0  0  0  0  0999 V2000
   57.8157   32.2211   44.8166 C   0  0  0  0  0  0  0  0  0  0  0  0
   56.5195   30.1175   42.9215 C   0  0  0  0  0  0  0  0  0  0  0  0
   57.1148   29.8259   44.0788 C   0  0  0  0  0  0  0  0  0  0  0  0
   57.2638   28.5688   44.5390 N   0  0  0  0  0  0  0  0  0  0  0  0
   57.9287   28.6599   45.7131 C   0  0  0  0  0  0  0  0  0  0  0  0
   58.3138   27.6222   46.4710 C   0  0  0  0  0  0  0  0  0  0  0  0
   58.2166   29.9835   46.0011 C   0  0  0  0  0  0  0  0  0  0  0  0
   57.6821   30.7318   44.9674 C   0  0  0  0  0  0  0  0  0  0  0  0
   56.9494   27.7432   44.1046 H   0  0  0  0  0  0  0  0  0  0  0  0
   58.0257   26.2148   46.1488 C   0  0  0  0  0  0  0  0  0  0  0  0
   58.9813   25.2784   46.0151 N   0  0  0  0  0  0  0  0  0  0  0  0
   58.2804   24.1417   45.8131 C   0  0  0  0  0  0  0  0  0  0  0  0
   58.8344   23.0270   45.6296 O   0  0  0  0  0  0  0  0  0  0  0  0
   56.9394   24.2919   45.8354 N   0  0  0  0  0  0  0  0  0  0  0  0
   56.7936   25.6069   46.0614 C   0  0  0  0  0  0  0  0  0  0  0  0
   55.5607   26.2265   46.2301 O   0  0  0  0  0  0  0  0  0  0  0  0
   58.7470   32.7743   45.8626 C   0  0  0  0  0  0  0  0  0  0  0  0
   58.6899   34.1278   46.2279 C   0  0  0  0  0  0  0  0  0  0  0  0
   59.5745   34.6385   47.1817 C   0  0  0  0  0  0  0  0  0  0  0  0
   60.5195   33.8016   47.7815 C   0  0  0  0  0  0  0  0  0  0  0  0
   60.5747   32.4450   47.4400 C   0  0  0  0  0  0  0  0  0  0  0  0
   59.7023   31.9387   46.4661 C   0  0  0  0  0  0  0  0  0  0  0  0
   61.5893   31.5732   48.0615 C   0  0  0  0  0  0  0  0  0  0  0  0
   62.7557   31.5953   47.5854 O   0  0  0  0  0  0  0  0  0  0  0  0
   61.2869   30.6878   49.1751 N   0  0  0  0  0  0  0  0  0  0  0  0
   62.2586   30.8139   50.2861 C   0  0  0  0  0  0  0  0  0  0  0  0
   61.9608   32.0092   51.2270 C   0  0  0  0  0  0  0  0  0  0  0  0
   60.7039   32.6116   50.9906 O   0  0  0  0  0  0  0  0  0  0  0  0
   59.7088   31.6206   50.9060 C   0  0  0  0  0  0  0  0  0  0  0  0
   59.8731   30.7989   49.6154 C   0  0  0  0  0  0  0  0  0  0  0  0
   60.8304   29.9395   48.7269 H   0  0  0  0  0  0  0  0  0  0  0  0
  2  3  2  0
  3  4  1  0
  4  5  1  0
  5  6  2  0
  6 10  1  0
 10 11  1  0
 11 12  1  0
 12 13  2  0
 12 14  1  0
 14 15  1  0
 15 16  1  0
  5  7  1  0
  7  8  2  0
  8  1  1  0
  1 17  1  0
 17 18  2  0
 18 19  1  0
 19 20  2  0
 20 21  1  0
 21 23  1  0
 23 24  2  0
 23 25  1  0
 25 26  1  0
 26 27  1  0
 27 28  1  0
 28 29  1  0
 29 30  1  0
 21 22  2  0
  8  3  1  0
 22 17  1  0
 15 10  2  0
 30 25  1  0
  4  9  1  0
 25 31  1  0
M  CHG 1  11  -1
M  CHG 1  14  -1
M  CHG 1  16  -1
M  CHG 1  25   1
M  END
> <UniqueID>
45

> <SMILES>
C=c1[nH]c(=Cc2[n-]c(=O)[n-]c2[O-])cc1Cc1cccc(C(=O)[NH+]2CCOCC2)c1

> <Energy>
133.47528342755902

> <Genealogy>
C=c1[nH]c(=Cc2[n-]c(=O)[n-]c2[O-])cc1Cc1cccc(C(=O)[NH+]2CCOCC2)c1 (protonated)
C=c1[nH]c(=Cc2[n-]c(=O)[n-]c2[O-])cc1Cc1cccc(C(=O)[NH+]2CCOCC2)c1 (3D coordinates assigned)
C=c1[nH]c(=Cc2[n-]c(=O)[n-]c2[O-])cc1Cc1cccc(C(=O)[NH+]2CCOCC2)c1 (nonaromatic ring conformer: 133.47528342755902 kcal/mol)

> <smiles>
C=c1[nH]c(=Cc2[nH]c(=O)[nH]c2O)cc1Cc1cccc(C(=O)N2CCOCC2)c1

> <score_type>
oracle

> <origin>
adg

> <m_score__min__energy>
-16.34

> <m_primary>
energy

> <minimizedAffinity>
-9.19776

> <minimizedRMSD>
1.30036

> <CNNscore>
0.4140883386

> <CNNaffinity>
6.7792620659

> <CNN_VS>
2.8072133064

> <CNNaffinity_variance>
0.0205900129

$$$$
49:0


 36 40  0  0  0  0  0  0  0  0999 V2000
   59.5569   31.9904   47.2638 C   0  0  0  0  0  0  0  0  0  0  0  0
   59.8144   33.2452   46.6954 C   0  0  0  0  0  0  0  0  0  0  0  0
   60.0890   34.3447   47.5130 C   0  0  0  0  0  0  0  0  0  0  0  0
   60.1155   34.1957   48.9017 C   0  0  0  0  0  0  0  0  0  0  0  0
   59.8708   32.9419   49.4852 C   0  0  0  0  0  0  0  0  0  0  0  0
   59.5751   31.8451   48.6592 C   0  0  0  0  0  0  0  0  0  0  0  0
   60.6260   29.2208   47.5043 C   0  0  0  0  0  0  0  0  0  0  0  0
   59.7754   29.6039   46.5390 C   0  0  0  0  0  0  0  0  0  0  0  0
   59.2469   28.7920   45.5303 C   0  0  0  0  0  0  0  0  0  0  0  0
   59.4669   27.4764   45.3413 C   0  0  0  0  0  0  0  0  0  0  0  0
   58.3865   29.5972   44.7928 C   0  0  0  0  0  0  0  0  0  0  0  0
   58.4367   30.8543   45.3615 C   0  0  0  0  0  0  0  0  0  0  0  0
   57.6270   32.0284   44.9009 C   0  0  0  0  0  0  0  0  0  0  0  0
   59.2732   30.8585   46.4233 N   0  0  0  0  0  0  0  0  0  0  0  0
   58.5205   26.4176   45.7389 C   0  0  0  0  0  0  0  0  0  0  0  0
   58.8867   25.1396   45.9485 N   0  0  0  0  0  0  0  0  0  0  0  0
   57.7170   24.5173   46.2089 C   0  0  0  0  0  0  0  0  0  0  0  0
   57.6483   23.2879   46.4699 O   0  0  0  0  0  0  0  0  0  0  0  0
   56.6254   25.3126   46.1549 N   0  0  0  0  0  0  0  0  0  0  0  0
   57.1484   26.5093   45.8436 C   0  0  0  0  0  0  0  0  0  0  0  0
   56.3829   27.6451   45.6089 O   0  0  0  0  0  0  0  0  0  0  0  0
   59.9018   32.7743   50.9527 C   0  0  0  0  0  0  0  0  0  0  0  0
   60.6925   33.4874   51.6320 O   0  0  0  0  0  0  0  0  0  0  0  0
   59.0385   31.8326   51.6218 N   0  0  0  0  0  0  0  0  0  0  0  0
   57.6796   31.6003   51.1077 C   0  0  0  0  0  0  0  0  0  0  0  0
   56.7435   31.0694   52.1979 C   0  0  0  0  0  0  0  0  0  0  0  0
   57.3579   29.9378   52.9078 N   0  0  0  0  0  0  0  0  0  0  0  0
   58.8030   29.9441   53.1860 C   0  0  0  0  0  0  0  0  0  0  0  0
   59.4188   31.3265   52.9461 C   0  0  0  0  0  0  0  0  0  0  0  0
   56.5281   28.8855   53.4488 C   0  0  0  0  0  0  0  0  0  0  0  0
   55.1305   28.9207   53.2811 C   0  0  0  0  0  0  0  0  0  0  0  0
   54.3448   27.8954   53.8071 C   0  0  0  0  0  0  0  0  0  0  0  0
   54.9462   26.8434   54.4955 C   0  0  0  0  0  0  0  0  0  0  0  0
   56.3332   26.8302   54.6462 C   0  0  0  0  0  0  0  0  0  0  0  0
   57.0894   27.8360   54.1267 N   0  0  0  0  0  0  0  0  0  0  0  0
   58.0668   27.8082   54.2414 H   0  0  0  0  0  0  0  0  0  0  0  0
  7  8  2  0
  8  9  1  0
  9 10  2  0
 10 15  1  0
 15 16  1  0
 16 17  1  0
 17 18  2  0
 17 19  1  0
 19 20  1  0
 20 21  1  0
  9 11  1  0
 11 12  2  0
 12 13  1  0
 12 14  1  0
 14  1  1  0
  1  2  2  0
  2  3  1  0
  3  4  2  0
  4  5  1  0
  5 22  1  0
 22 23  2  0
 22 24  1  0
 24 25  1  0
 25 26  1  0
 26 27  1  0
 27 30  1  0
 30 31  2  0
 31 32  1  0
 32 33  2  0
 33 34  1  0
 34 35  2  0
 27 28  1  0
 28 29  1  0
  5  6  2  0
 14  8  1  0
  6  1  1  0
 20 15  2  0
 29 24  1  0
 35 30  1  0
 35 36  1  0
M  CHG 1  16  -1
M  CHG 1  19  -1
M  CHG 1  21  -1
M  CHG 1  35   1
M  END
> <UniqueID>
47

> <SMILES>
C=c1/c(=C/c2[n-]c(=O)[n-]c2[O-])cc(C)n1-c1cccc(C(=O)N2CCN(c3cccc[nH+]3)CC2)c1

> <Energy>
143.3034625335366

> <Genealogy>
C=c1c(=Cc2[n-]c(=O)[n-]c2[O-])cc(C)n1-c1cccc(C(=O)N2CCN(c3cccc[nH+]3)CC2)c1 (protonated)
C=c1/c(=C/c2[n-]c(=O)[n-]c2[O-])cc(C)n1-c1cccc(C(=O)N2CCN(c3cccc[nH+]3)CC2)c1 (cis-trans isomerization)
C=c1/c(=C/c2[n-]c(=O)[n-]c2[O-])cc(C)n1-c1cccc(C(=O)N2CCN(c3cccc[nH+]3)CC2)c1 (3D coordinates assigned)
C=c1/c(=C/c2[n-]c(=O)[n-]c2[O-])cc(C)n1-c1cccc(C(=O)N2CCN(c3cccc[nH+]3)CC2)c1 (nonaromatic ring conformer: 143.3034625335366 kcal/mol)

> <smiles>
C=c1c(=Cc2[nH]c(=O)[nH]c2O)cc(C)n1-c1cccc(C(=O)N2CCN(c3ccccn3)CC2)c1

> <score_type>
oracle

> <origin>
adg

> <m_score__min__energy>
-16.920000000000002

> <m_primary>
energy

> <minimizedAffinity>
-8.62029

> <minimizedRMSD>
0.98989

> <CNNscore>
0.3198371530

> <CNNaffinity>
6.9913001060

> <CNN_VS>
2.2360775471

> <CNNaffinity_variance>
0.0391568542

$$$$
59:0


 31 33  0  0  0  0  0  0  0  0999 V2000
   54.9022   28.3213   55.3207 N   0  0  0  0  0  0  0  0  0  0  0  0
   55.5092   28.8886   54.2523 C   0  0  0  0  0  0  0  0  0  0  0  0
   54.6419   29.7306   53.5910 C   0  0  0  0  0  0  0  0  0  0  0  0
   53.4340   29.6724   54.2630 C   0  0  0  0  0  0  0  0  0  0  0  0
   52.3340   30.3226   53.8345 C   0  0  0  0  0  0  0  0  0  0  0  0
   53.6360   28.8217   55.3617 C   0  0  0  0  0  0  0  0  0  0  0  0
   52.7928   28.6158   56.3861 C   0  0  0  0  0  0  0  0  0  0  0  0
   56.9024   28.6520   53.8298 C   0  0  0  0  0  0  0  0  0  0  0  0
   57.4523   27.5679   54.1607 O   0  0  0  0  0  0  0  0  0  0  0  0
   57.6283   29.6140   53.0352 N   0  0  0  0  0  0  0  0  0  0  0  0
   56.9282   30.4959   52.0889 C   0  0  0  0  0  0  0  0  0  0  0  0
   57.5646   31.8885   52.0928 C   0  0  0  0  0  0  0  0  0  0  0  0
   59.0320   31.8249   51.9982 N   0  0  0  0  0  0  0  0  0  0  0  0
   59.7618   33.0518   51.7855 C   0  0  0  0  0  0  0  0  0  0  0  0
   59.2186   34.1542   52.0755 O   0  0  0  0  0  0  0  0  0  0  0  0
   59.7109   30.5191   52.0041 C   0  0  0  0  0  0  0  0  0  0  0  0
   59.0975   29.5904   53.0608 C   0  0  0  0  0  0  0  0  0  0  0  0
   61.1673   33.0521   51.2538 C   0  0  0  0  0  0  0  0  0  0  0  0
   61.2162   33.7503   50.0263 O   0  0  0  0  0  0  0  0  0  0  0  0
   60.7787   32.9024   48.9875 C   0  0  0  0  0  0  0  0  0  0  0  0
   51.9311   30.4973   52.4293 C   0  0  0  0  0  0  0  0  0  0  0  0
   52.1852   29.6159   51.4447 N   0  0  0  0  0  0  0  0  0  0  0  0
   51.7654   30.2605   50.3340 C   0  0  0  0  0  0  0  0  0  0  0  0
   51.8231   29.7442   49.1873 O   0  0  0  0  0  0  0  0  0  0  0  0
   51.2891   31.5060   50.5482 N   0  0  0  0  0  0  0  0  0  0  0  0
   51.4154   31.6436   51.8769 C   0  0  0  0  0  0  0  0  0  0  0  0
   51.0720   32.7961   52.5718 O   0  0  0  0  0  0  0  0  0  0  0  0
   55.4708   27.2752   56.1892 C   0  0  0  0  0  0  0  0  0  0  0  0
   55.5037   25.4492   54.6350 O   0  0  0  0  0  0  0  0  0  0  0  0
   54.9110   25.9023   55.8205 C   0  0  0  0  0  0  0  0  0  0  0  0
   55.1444   24.5777   54.4064 H   0  0  0  0  0  0  0  0  0  0  0  0
 29 30  1  0
 30 28  1  0
 28  1  1  0
  1  2  1  0
  2  8  1  0
  8  9  2  0
  8 10  1  0
 10 11  1  0
 11 12  1  0
 12 13  1  0
 13 14  1  0
 14 15  2  0
 14 18  1  0
 18 19  1  0
 19 20  1  0
 13 16  1  0
 16 17  1  0
  2  3  2  0
  3  4  1  0
  4  5  2  0
  5 21  1  0
 21 22  1  0
 22 23  1  0
 23 24  2  0
 23 25  1  0
 25 26  1  0
 26 27  1  0
  4  6  1  0
  6  7  2  0
  6  1  1  0
 17 10  1  0
 26 21  2  0
 29 31  1  0
M  CHG 1  22  -1
M  CHG 1  25  -1
M  CHG 1  27  -1
M  END
> <UniqueID>
55

> <SMILES>
C=c1/c(=C\c2[n-]c(=O)[n-]c2[O-])cc(C(=O)N2CCN(C(=O)COC)CC2)n1CCO

> <Energy>
126.39013585430753

> <Genealogy>
C=c1c(=Cc2[n-]c(=O)[n-]c2[O-])cc(C(=O)N2CCN(C(=O)COC)CC2)n1CCO (protonated)
C=c1/c(=C\c2[n-]c(=O)[n-]c2[O-])cc(C(=O)N2CCN(C(=O)COC)CC2)n1CCO (cis-trans isomerization)
C=c1/c(=C\c2[n-]c(=O)[n-]c2[O-])cc(C(=O)N2CCN(C(=O)COC)CC2)n1CCO (3D coordinates assigned)
C=c1/c(=C\c2[n-]c(=O)[n-]c2[O-])cc(C(=O)N2CCN(C(=O)COC)CC2)n1CCO (nonaromatic ring conformer: 126.39013585430753 kcal/mol)

> <smiles>
C=c1c(=Cc2[nH]c(=O)[nH]c2O)cc(C(=O)N2CCN(C(=O)COC)CC2)n1CCO

> <score_type>
oracle

> <origin>
adg

> <m_score__min__energy>
-15.35

> <m_primary>
energy

> <minimizedAffinity>
-4.89202

> <minimizedRMSD>
0.86076

> <CNNscore>
0.0582890883

> <CNNaffinity>
3.8837959766

> <CNN_VS>
0.2263829261

> <CNNaffinity_variance>
0.7119119763

$$$$
60:0


 27 29  0  0  0  0  0  0  0  0999 V2000
   59.4011   35.2893   46.7114 C   0  0  0  0  0  0  0  0  0  0  0  0
   59.1242   34.0186   46.4055 C   0  0  0  0  0  0  0  0  0  0  0  0
   58.8720   33.4829   44.8311 S   0  0  0  0  0  0  0  0  0  0  0  0
   58.5709   31.8876   45.2888 C   0  0  0  0  0  0  0  0  0  0  0  0
   58.2448   30.8708   44.4749 C   0  0  0  0  0  0  0  0  0  0  0  0
   58.6677   31.8214   46.6809 C   0  0  0  0  0  0  0  0  0  0  0  0
   58.4698   30.7538   47.3245 O   0  0  0  0  0  0  0  0  0  0  0  0
   58.9898   32.9975   47.3012 N   0  0  0  0  0  0  0  0  0  0  0  0
   58.3009   29.4543   44.8893 C   0  0  0  0  0  0  0  0  0  0  0  0
   59.5495   28.8219   44.9817 C   0  0  0  0  0  0  0  0  0  0  0  0
   59.6369   27.4842   45.3792 C   0  0  0  0  0  0  0  0  0  0  0  0
   58.4776   26.7601   45.6702 C   0  0  0  0  0  0  0  0  0  0  0  0
   58.5832   25.4320   46.0700 O   0  0  0  0  0  0  0  0  0  0  0  0
   57.2178   27.3723   45.5513 C   0  0  0  0  0  0  0  0  0  0  0  0
   56.0474   26.6624   45.8227 O   0  0  0  0  0  0  0  0  0  0  0  0
   57.1299   28.7132   45.1484 C   0  0  0  0  0  0  0  0  0  0  0  0
   55.8766   29.2979   44.9885 O   0  0  0  0  0  0  0  0  0  0  0  0
   56.0949   25.7663   46.0926 H   0  0  0  0  0  0  0  0  0  0  0  0
   59.1200   33.1372   48.7597 C   0  0  0  0  0  0  0  0  0  0  0  0
   60.1869   32.2110   49.2834 C   0  0  0  0  0  0  0  0  0  0  0  0
   59.8357   31.0878   49.7454 O   0  0  0  0  0  0  0  0  0  0  0  0
   61.5883   32.5580   49.2442 N   0  0  0  0  0  0  0  0  0  0  0  0
   62.0748   33.6413   48.3795 C   0  0  0  0  0  0  0  0  0  0  0  0
   63.5503   33.4176   48.0263 C   0  0  0  0  0  0  0  0  0  0  0  0
   64.3163   33.1935   49.1939 O   0  0  0  0  0  0  0  0  0  0  0  0
   63.9184   31.9778   49.7958 C   0  0  0  0  0  0  0  0  0  0  0  0
   62.4762   32.0680   50.3055 C   0  0  0  0  0  0  0  0  0  0  0  0
  1  2  2  0
  2  3  1  0
  3  4  1  0
  4  5  2  0
  5  9  1  0
  9 10  2  0
 10 11  1  0
 11 12  2  0
 12 13  1  0
 12 14  1  0
 14 15  1  0
 14 16  2  0
 16 17  1  0
  4  6  1  0
  6  7  2  0
  6  8  1  0
  8 19  1  0
 19 20  1  0
 20 21  2  0
 20 22  1  0
 22 23  1  0
 23 24  1  0
 24 25  1  0
 25 26  1  0
 26 27  1  0
  8  2  1  0
 27 22  1  0
 16  9  1  0
 15 18  1  0
M  CHG 1  13  -1
M  CHG 1  17  -1
M  END
> <UniqueID>
56

> <SMILES>
C=c1sc(=Cc2ccc([O-])c(O)c2[O-])c(=O)n1CC(=O)N1CCOCC1

> <Energy>
86.06155136558627

> <Genealogy>
C=c1sc(=Cc2ccc([O-])c(O)c2[O-])c(=O)n1CC(=O)N1CCOCC1 (protonated)
C=c1sc(=Cc2ccc([O-])c(O)c2[O-])c(=O)n1CC(=O)N1CCOCC1 (3D coordinates assigned)
C=c1sc(=Cc2ccc([O-])c(O)c2[O-])c(=O)n1CC(=O)N1CCOCC1 (nonaromatic ring conformer: 86.06155136558627 kcal/mol)

> <smiles>
C=c1sc(=Cc2ccc(O)c(O)c2O)c(=O)n1CC(=O)N1CCOCC1

> <score_type>
oracle

> <origin>
adg

> <m_score__min__energy>
-14.49

> <m_primary>
energy

> <minimizedAffinity>
-7.70344

> <minimizedRMSD>
0.99466

> <CNNscore>
0.8003124595

> <CNNaffinity>
6.6899180412

> <CNN_VS>
5.3540248871

> <CNNaffinity_variance>
0.0642194822

$$$$
79:0


 32 35  0  0  0  0  0  0  0  0999 V2000
   56.2129   31.5834   52.0172 C   0  0  0  0  0  0  0  0  0  0  0  0
   56.0126   30.4668   52.7337 C   0  0  0  0  0  0  0  0  0  0  0  0
   54.7916   30.0229   53.2741 C   0  0  0  0  0  0  0  0  0  0  0  0
   53.5398   30.5147   53.1803 C   0  0  0  0  0  0  0  0  0  0  0  0
   55.0742   28.8543   53.9563 C   0  0  0  0  0  0  0  0  0  0  0  0
   56.4138   28.5936   53.7728 C   0  0  0  0  0  0  0  0  0  0  0  0
   57.1049   27.3678   54.2901 C   0  0  0  0  0  0  0  0  0  0  0  0
   57.0012   29.5903   53.0699 N   0  0  0  0  0  0  0  0  0  0  0  0
   58.4174   29.6752   52.7913 C   0  0  0  0  0  0  0  0  0  0  0  0
   58.8441   29.1607   51.7197 O   0  0  0  0  0  0  0  0  0  0  0  0
   52.6958   30.5141   51.9774 C   0  0  0  0  0  0  0  0  0  0  0  0
   52.8905   29.6926   50.9316 N   0  0  0  0  0  0  0  0  0  0  0  0
   52.0000   30.1347   50.0177 C   0  0  0  0  0  0  0  0  0  0  0  0
   51.8649   29.5972   48.8876 O   0  0  0  0  0  0  0  0  0  0  0  0
   51.2734   31.2047   50.4048 N   0  0  0  0  0  0  0  0  0  0  0  0
   51.7376   31.4433   51.6407 C   0  0  0  0  0  0  0  0  0  0  0  0
   51.3125   32.5018   52.4356 O   0  0  0  0  0  0  0  0  0  0  0  0
   59.3387   30.3759   53.6873 N   0  0  0  0  0  0  0  0  0  0  0  0
   59.0062   31.8135   53.8814 C   0  0  0  0  0  0  0  0  0  0  0  0
   59.5728   32.7455   52.7872 C   0  0  0  0  0  0  0  0  0  0  0  0
   60.1199   31.9891   51.6584 N   0  0  0  0  0  0  0  0  0  0  0  0
   61.0484   30.8845   51.9284 C   0  0  0  0  0  0  0  0  0  0  0  0
   60.7545   30.2282   53.2872 C   0  0  0  0  0  0  0  0  0  0  0  0
   59.2382   29.7807   52.9096 H   0  0  0  0  0  0  0  0  0  0  0  0
   60.0105   32.5233   50.3251 C   0  0  0  0  0  0  0  0  0  0  0  0
   58.9497   32.1319   49.4924 C   0  0  0  0  0  0  0  0  0  0  0  0
   58.8349   32.6471   48.2009 C   0  0  0  0  0  0  0  0  0  0  0  0
   59.7749   33.5612   47.7271 C   0  0  0  0  0  0  0  0  0  0  0  0
   60.8320   33.9662   48.5447 C   0  0  0  0  0  0  0  0  0  0  0  0
   60.9571   33.4576   49.8531 C   0  0  0  0  0  0  0  0  0  0  0  0
   61.9890   33.8683   50.7113 O   0  0  0  0  0  0  0  0  0  0  0  0
   63.3668   33.5611   50.5252 C   0  0  0  0  0  0  0  0  0  0  0  0
  1  2  2  0
  2  3  1  0
  3  4  2  0
  4 11  1  0
 11 12  1  0
 12 13  1  0
 13 14  2  0
 13 15  1  0
 15 16  1  0
 16 17  1  0
  3  5  1  0
  5  6  2  0
  6  7  1  0
  6  8  1  0
  8  9  1  0
  9 10  2  0
  9 18  1  0
 18 19  1  0
 19 20  1  0
 20 21  1  0
 21 25  1  0
 25 26  2  0
 26 27  1  0
 27 28  2  0
 28 29  1  0
 29 30  2  0
 30 31  1  0
 31 32  1  0
 21 22  1  0
 22 23  1  0
  8  2  1  0
 23 18  1  0
 16 11  2  0
 30 25  1  0
 18 24  1  0
M  CHG 1  12  -1
M  CHG 1  15  -1
M  CHG 1  17  -1
M  CHG 1  18   1
M  END
> <UniqueID>
75

> <SMILES>
C=c1c(=Cc2[n-]c(=O)[n-]c2[O-])cc(C)n1C(=O)[NH+]1CCN(c2ccccc2OC)CC1

> <Energy>
149.1544104268078

> <Genealogy>
C=c1c(=Cc2[n-]c(=O)[n-]c2[O-])cc(C)n1C(=O)[NH+]1CCN(c2ccccc2OC)CC1 (protonated)
C=c1c(=Cc2[n-]c(=O)[n-]c2[O-])cc(C)n1C(=O)[NH+]1CCN(c2ccccc2OC)CC1 (3D coordinates assigned)
C=c1c(=Cc2[n-]c(=O)[n-]c2[O-])cc(C)n1C(=O)[NH+]1CCN(c2ccccc2OC)CC1 (nonaromatic ring conformer: 149.1544104268078 kcal/mol)

> <smiles>
C=c1c(=Cc2[nH]c(=O)[nH]c2O)cc(C)n1C(=O)N1CCN(c2ccccc2OC)CC1

> <score_type>
oracle

> <origin>
adg

> <m_score__min__energy>
-15.35

> <m_primary>
energy

> <minimizedAffinity>
-5.89077

> <minimizedRMSD>
1.12885

> <CNNscore>
0.2166795880

> <CNNaffinity>
5.5745716095

> <CNN_VS>
1.2078958750

> <CNNaffinity_variance>
0.0620198846

$$$$
80:0


 34 37  0  0  0  0  0  0  0  0999 V2000
   57.1451   25.8737   46.4121 C   0  0  0  0  0  0  0  0  0  0  0  0
   58.4686   25.4220   46.5266 C   0  0  0  0  0  0  0  0  0  0  0  0
   59.5125   26.2378   46.0863 C   0  0  0  0  0  0  0  0  0  0  0  0
   59.2299   27.4902   45.5392 C   0  0  0  0  0  0  0  0  0  0  0  0
   57.8994   27.9124   45.4437 C   0  0  0  0  0  0  0  0  0  0  0  0
   56.8982   27.0985   45.8750 N   0  0  0  0  0  0  0  0  0  0  0  0
   55.9958   25.0214   46.8649 C   0  0  0  0  0  0  0  0  0  0  0  0
   54.8941   25.1085   45.9146 N   0  0  0  0  0  0  0  0  0  0  0  0
   52.8640   24.1460   45.2770 O   0  0  0  0  0  0  0  0  0  0  0  0
   54.0884   23.9892   45.5285 C   0  0  0  0  0  0  0  0  0  0  0  0
   54.6466   22.6748   45.4732 N   0  0  0  0  0  0  0  0  0  0  0  0
   56.0128   22.3679   45.1628 C   0  0  0  0  0  0  0  0  0  0  0  0
   56.4885   22.6280   43.8687 C   0  0  0  0  0  0  0  0  0  0  0  0
   55.6553   23.1316   42.9244 F   0  0  0  0  0  0  0  0  0  0  0  0
   57.8194   22.3578   43.5405 C   0  0  0  0  0  0  0  0  0  0  0  0
   58.6882   21.8417   44.5034 C   0  0  0  0  0  0  0  0  0  0  0  0
   58.2337   21.6112   45.8035 C   0  0  0  0  0  0  0  0  0  0  0  0
   56.9045   21.8828   46.1415 C   0  0  0  0  0  0  0  0  0  0  0  0
   56.5117   21.7263   47.4279 F   0  0  0  0  0  0  0  0  0  0  0  0
   57.5075   29.5173   44.7594 S   0  0  0  0  0  0  0  0  0  0  0  0
   58.3713   30.3827   46.0737 C   0  0  0  0  0  0  0  0  0  0  0  0
   58.4469   31.7064   46.2385 C   0  0  0  0  0  0  0  0  0  0  0  0
   59.2731   31.9855   47.3708 N   0  0  0  0  0  0  0  0  0  0  0  0
   59.5508   33.1805   47.9735 C   0  0  0  0  0  0  0  0  0  0  0  0
   59.0590   34.2603   47.5536 O   0  0  0  0  0  0  0  0  0  0  0  0
   60.3806   33.1875   49.1001 C   0  0  0  0  0  0  0  0  0  0  0  0
   60.8698   31.9778   49.6015 C   0  0  0  0  0  0  0  0  0  0  0  0
   60.5170   30.7836   48.9696 C   0  0  0  0  0  0  0  0  0  0  0  0
   60.9234   29.6787   49.4182 O   0  0  0  0  0  0  0  0  0  0  0  0
   59.7199   30.8379   47.8680 N   0  0  0  0  0  0  0  0  0  0  0  0
   59.2178   29.7036   47.1057 C   0  0  0  0  0  0  0  0  0  0  0  0
   57.8653   32.7104   45.3248 C   0  0  0  0  0  0  0  0  0  0  0  0
   56.8356   33.3513   45.6579 O   0  0  0  0  0  0  0  0  0  0  0  0
   58.4145   32.9178   44.0679 O   0  0  0  0  0  0  0  0  0  0  0  0
  9 10  2  0
 10  8  1  0
  8  7  1  0
  7  1  1  0
  1  2  2  0
  2  3  1  0
  3  4  2  0
  4  5  1  0
  5 20  1  0
 20 21  1  0
 21 22  2  0
 22 32  1  0
 32 33  2  0
 32 34  1  0
 22 23  1  0
 23 24  1  0
 24 25  2  0
 24 26  1  0
 26 27  2  0
 27 28  1  0
 28 29  2  0
 28 30  1  0
 30 31  1  0
  5  6  2  0
 10 11  1  0
 11 12  1  0
 12 13  2  0
 13 14  1  0
 13 15  1  0
 15 16  2  0
 16 17  1  0
 17 18  2  0
 18 19  1  0
  6  1  1  0
 18 12  1  0
 31 21  1  0
 30 23  1  0
M  CHG 1   8  -1
M  CHG 1  11  -1
M  CHG 1  34  -1
M  END
> <UniqueID>
76

> <SMILES>
O=C([N-]Cc1cccc(SC2=C(C(=O)[O-])n3c(=O)ccc(=O)n3C2)n1)[N-]c1c(F)cccc1F

> <Energy>
78.38909412739162

> <Genealogy>
O=C([N-]Cc1cccc(SC2=C(C(=O)[O-])n3c(=O)ccc(=O)n3C2)n1)[N-]c1c(F)cccc1F (protonated)
O=C([N-]Cc1cccc(SC2=C(C(=O)[O-])n3c(=O)ccc(=O)n3C2)n1)[N-]c1c(F)cccc1F (3D coordinates assigned)
O=C([N-]Cc1cccc(SC2=C(C(=O)[O-])n3c(=O)ccc(=O)n3C2)n1)[N-]c1c(F)cccc1F (nonaromatic ring conformer: 78.38909412739162 kcal/mol)

> <smiles>
O=C(NCc1cccc(SC2=C(C(=O)O)n3c(=O)ccc(=O)n3C2)n1)Nc1c(F)cccc1F

> <score_type>
oracle

> <origin>
adg

> <m_score__min__energy>
-14.279999999999999

> <m_primary>
energy

> <minimizedAffinity>
-7.57382

> <minimizedRMSD>
1.42216

> <CNNscore>
0.1229113191

> <CNNaffinity>
6.1756134033

> <CNN_VS>
0.7590528131

> <CNNaffinity_variance>
0.1058545709

$$$$
84:0


 26 28  0  0  0  0  0  0  0  0999 V2000
   60.2025   32.1217   46.7232 N   0  0  0  0  0  0  0  0  0  0  0  0
   58.7691   31.9930   46.6422 C   0  0  0  0  0  0  0  0  0  0  0  0
   58.0686   32.2015   47.6684 O   0  0  0  0  0  0  0  0  0  0  0  0
   58.1011   31.5743   45.3927 C   0  0  0  0  0  0  0  0  0  0  0  0
   58.3962   32.1814   44.1614 C   0  0  0  0  0  0  0  0  0  0  0  0
   57.7339   31.7256   43.0190 C   0  0  0  0  0  0  0  0  0  0  0  0
   57.9765   32.2470   41.8988 O   0  0  0  0  0  0  0  0  0  0  0  0
   56.8278   30.7166   43.1183 N   0  0  0  0  0  0  0  0  0  0  0  0
   56.5407   30.1463   44.3197 C   0  0  0  0  0  0  0  0  0  0  0  0
   55.6949   29.2135   44.3918 O   0  0  0  0  0  0  0  0  0  0  0  0
   57.1711   30.5785   45.4408 N   0  0  0  0  0  0  0  0  0  0  0  0
   60.7417   33.4850   46.9149 C   0  0  0  0  0  0  0  0  0  0  0  0
   59.9495   34.2410   47.9795 C   0  0  0  0  0  0  0  0  0  0  0  0
   59.8758   34.6819   46.5206 C   0  0  0  0  0  0  0  0  0  0  0  0
   60.9981   30.9004   46.9365 C   0  0  0  0  0  0  0  0  0  0  0  0
   58.5422   27.4250   46.1873 C   0  0  0  0  0  0  0  0  0  0  0  0
   58.5734   28.0090   47.4649 C   0  0  0  0  0  0  0  0  0  0  0  0
   59.3876   29.1189   47.7114 C   0  0  0  0  0  0  0  0  0  0  0  0
   60.1729   29.6673   46.6790 C   0  0  0  0  0  0  0  0  0  0  0  0
   60.1648   29.0633   45.4099 C   0  0  0  0  0  0  0  0  0  0  0  0
   59.3545   27.9481   45.1661 C   0  0  0  0  0  0  0  0  0  0  0  0
   55.8445   26.5374   45.9876 N   0  0  0  0  0  0  0  0  0  0  0  0
   57.4965   26.0447   45.8740 S   0  0  0  0  0  0  0  0  0  0  0  0
   57.7580   25.5146   44.4919 O   0  0  0  0  0  0  0  0  0  0  0  0
   57.7740   24.9587   46.8775 O   0  0  0  0  0  0  0  0  0  0  0  0
   55.2380   25.7377   45.8061 H   0  0  0  0  0  0  0  0  0  0  0  0
 22 23  1  0
 23 24  2  0
 23 25  2  0
 23 16  1  0
 16 17  2  0
 17 18  1  0
 18 19  2  0
 19 15  1  0
 15  1  1  0
  1  2  1  0
  2  3  2  0
  2  4  1  0
  4  5  2  0
  5  6  1  0
  6  7  2  0
  6  8  1  0
  8  9  1  0
  9 10  2  0
  9 11  1  0
  1 12  1  0
 12 13  1  0
 13 14  1  0
 19 20  1  0
 20 21  2  0
 21 16  1  0
 11  4  1  0
 14 12  1  0
 22 26  1  0
M  CHG 1   8  -1
M  CHG 1  11  -1
M  CHG 1  22  -1
M  END
> <UniqueID>
79

> <SMILES>
[NH-]S(=O)(=O)c1ccc(CN(C(=O)c2cc(=O)[n-]c(=O)[n-]2)C2CC2)cc1

> <Energy>
312.3725322945818

> <Genealogy>
[NH-]S(=O)(=O)c1ccc(CN(C(=O)c2cc(=O)[n-]c(=O)[n-]2)C2CC2)cc1 (protonated)
[NH-]S(=O)(=O)c1ccc(CN(C(=O)c2cc(=O)[n-]c(=O)[n-]2)C2CC2)cc1 (3D coordinates assigned)
[NH-]S(=O)(=O)c1ccc(CN(C(=O)c2cc(=O)[n-]c(=O)[n-]2)C2CC2)cc1 (nonaromatic ring conformer: 312.3725322945818 kcal/mol)

> <smiles>
NS(=O)(=O)c1ccc(CN(C(=O)c2cc(=O)[nH]c(=O)[nH]2)C2CC2)cc1

> <score_type>
oracle

> <origin>
adg

> <m_score__min__energy>
-14.32

> <m_primary>
energy

> <minimizedAffinity>
-8.59750

> <minimizedRMSD>
0.65321

> <CNNscore>
0.8753163218

> <CNNaffinity>
6.8717236519

> <CNN_VS>
6.0149316788

> <CNNaffinity_variance>
0.0692807138

$$$$
0:0


 27 29  0  0  0  0  0  0  0  0999 V2000
   57.6013   31.7250   51.8395 C   0  0  0  0  0  0  0  0  0  0  0  0
   56.6068   30.9263   52.2306 C   0  0  0  0  0  0  0  0  0  0  0  0
   56.7254   29.7251   52.9200 C   0  0  0  0  0  0  0  0  0  0  0  0
   55.4349   29.2698   53.1312 C   0  0  0  0  0  0  0  0  0  0  0  0
   54.5855   30.2023   52.5470 C   0  0  0  0  0  0  0  0  0  0  0  0
   53.2418   30.1701   52.4852 C   0  0  0  0  0  0  0  0  0  0  0  0
   55.3090   31.2031   52.0028 N   0  0  0  0  0  0  0  0  0  0  0  0
   54.9541   31.9891   51.5278 H   0  0  0  0  0  0  0  0  0  0  0  0
   52.4201   30.4200   51.2808 C   0  0  0  0  0  0  0  0  0  0  0  0
   52.3218   29.6151   50.2072 N   0  0  0  0  0  0  0  0  0  0  0  0
   51.4516   30.2625   49.4031 C   0  0  0  0  0  0  0  0  0  0  0  0
   51.1031   29.8125   48.2813 O   0  0  0  0  0  0  0  0  0  0  0  0
   50.9852   31.4277   49.8967 N   0  0  0  0  0  0  0  0  0  0  0  0
   51.6056   31.5109   51.0849 C   0  0  0  0  0  0  0  0  0  0  0  0
   51.4321   32.5658   51.9737 O   0  0  0  0  0  0  0  0  0  0  0  0
   57.9733   29.0313   53.4069 C   0  0  0  0  0  0  0  0  0  0  0  0
   58.9519   29.9807   54.0874 C   0  0  0  0  0  0  0  0  0  0  0  0
   58.6446   30.5922   55.3321 C   0  0  0  0  0  0  0  0  0  0  0  0
   57.3740   30.3153   56.0827 C   0  0  0  0  0  0  0  0  0  0  0  0
   59.5344   31.4496   55.8965 N   0  0  0  0  0  0  0  0  0  0  0  0
   60.7294   31.7319   55.3203 C   0  0  0  0  0  0  0  0  0  0  0  0
   61.0648   31.1211   54.1558 N   0  0  0  0  0  0  0  0  0  0  0  0
   60.2320   30.2450   53.5361 C   0  0  0  0  0  0  0  0  0  0  0  0
   60.7166   29.6123   52.2630 C   0  0  0  0  0  0  0  0  0  0  0  0
   61.6400   32.6563   55.9454 N   0  0  0  0  0  0  0  0  0  0  0  0
   62.1110   33.8300   55.2028 C   0  0  0  0  0  0  0  0  0  0  0  0
   62.0859   32.4164   57.3215 C   0  0  0  0  0  0  0  0  0  0  0  0
  1  2  2  0
  2  3  1  0
  3 16  1  0
 16 17  1  0
 17 18  2  0
 18 19  1  0
 18 20  1  0
 20 21  2  0
 21 25  1  0
 25 26  1  0
 25 27  1  0
 21 22  1  0
 22 23  2  0
 23 24  1  0
  3  4  2  0
  4  5  1  0
  5  6  2  0
  6  9  1  0
  9 10  1  0
 10 11  1  0
 11 12  2  0
 11 13  1  0
 13 14  1  0
 14 15  1  0
  5  7  1  0
  7  2  1  0
 23 17  1  0
 14  9  2  0
  7  8  1  0
M  CHG 1  10  -1
M  CHG 1  13  -1
M  CHG 1  15  -1
M  END
> <UniqueID>
1

> <SMILES>
C=c1[nH]/c(=C/c2[n-]c(=O)[n-]c2[O-])cc1Cc1c(C)nc(N(C)C)nc1C

> <Energy>
104.4417817120618

> <Genealogy>
C=c1[nH]c(=Cc2[n-]c(=O)[n-]c2[O-])cc1Cc1c(C)nc(N(C)C)nc1C (protonated)
C=c1[nH]/c(=C/c2[n-]c(=O)[n-]c2[O-])cc1Cc1c(C)nc(N(C)C)nc1C (cis-trans isomerization)
C=c1[nH]/c(=C/c2[n-]c(=O)[n-]c2[O-])cc1Cc1c(C)nc(N(C)C)nc1C (3D coordinates assigned)
C=c1[nH]/c(=C/c2[n-]c(=O)[n-]c2[O-])cc1Cc1c(C)nc(N(C)C)nc1C (optimized conformer: 104.4417817120618 kcal/mol)

> <smiles>
C=c1[nH]c(=Cc2[nH]c(=O)[nH]c2O)cc1Cc1c(C)nc(N(C)C)nc1C

> <score_type>
oracle

> <origin>
adg

> <m_score__min__energy>
-16.710000000000001

> <m_primary>
energy

> <minimizedAffinity>
-4.22385

> <minimizedRMSD>
0.92854

> <CNNscore>
0.0996019393

> <CNNaffinity>
4.6013255119

> <CNN_VS>
0.4583009481

> <CNNaffinity_variance>
0.4322498143

$$$$
7:0


 31 33  0  0  0  0  0  0  0  0999 V2000
   58.5162   29.3776   53.1309 C   0  0  0  0  0  0  0  0  0  0  0  0
   59.1760   29.1657   54.1839 O   0  0  0  0  0  0  0  0  0  0  0  0
   59.2065   29.6300   51.8924 N   0  0  0  0  0  0  0  0  0  0  0  0
   58.6728   30.5878   50.9120 C   0  0  0  0  0  0  0  0  0  0  0  0
   58.8463   30.0416   49.4893 C   0  0  0  0  0  0  0  0  0  0  0  0
   60.2815   29.5093   49.1909 C   0  0  0  0  0  0  0  0  0  0  0  0
   61.2134   29.5980   50.4223 C   0  0  0  0  0  0  0  0  0  0  0  0
   60.5486   29.0591   51.6951 C   0  0  0  0  0  0  0  0  0  0  0  0
   53.9351   27.9812   53.8642 C   0  0  0  0  0  0  0  0  0  0  0  0
   54.9861   28.7542   53.5402 C   0  0  0  0  0  0  0  0  0  0  0  0
   54.9357   30.0756   53.0730 C   0  0  0  0  0  0  0  0  0  0  0  0
   53.8271   30.8202   52.8729 C   0  0  0  0  0  0  0  0  0  0  0  0
   56.2556   30.4620   52.8809 C   0  0  0  0  0  0  0  0  0  0  0  0
   57.0434   29.3777   53.2131 C   0  0  0  0  0  0  0  0  0  0  0  0
   56.2758   28.3432   53.6264 N   0  0  0  0  0  0  0  0  0  0  0  0
   56.7436   27.0655   54.1750 C   0  0  0  0  0  0  0  0  0  0  0  0
   52.9287   30.7380   51.6982 C   0  0  0  0  0  0  0  0  0  0  0  0
   53.0207   29.8515   50.6914 N   0  0  0  0  0  0  0  0  0  0  0  0
   51.9661   30.1546   49.9035 C   0  0  0  0  0  0  0  0  0  0  0  0
   51.7164   29.5344   48.8376 O   0  0  0  0  0  0  0  0  0  0  0  0
   51.2044   31.1762   50.3473 N   0  0  0  0  0  0  0  0  0  0  0  0
   51.8238   31.5299   51.4856 C   0  0  0  0  0  0  0  0  0  0  0  0
   51.3853   32.5553   52.3143 O   0  0  0  0  0  0  0  0  0  0  0  0
   60.2570   28.0654   48.6270 C   0  0  0  0  0  0  0  0  0  0  0  0
   59.9556   27.9787   47.1178 C   0  0  0  0  0  0  0  0  0  0  0  0
   58.4621   27.7354   46.7964 C   0  0  0  0  0  0  0  0  0  0  0  0
   58.0788   28.1136   45.3567 C   0  0  0  0  0  0  0  0  0  0  0  0
   57.2657   29.3720   45.3065 C   0  0  0  0  0  0  0  0  0  0  0  0
   55.9337   29.3401   44.7972 N   0  0  0  0  0  0  0  0  0  0  0  0
   57.7576   30.4608   45.7048 O   0  0  0  0  0  0  0  0  0  0  0  0
   55.5463   28.4905   44.4851 H   0  0  0  0  0  0  0  0  0  0  0  0
  9 10  2  0
 10 11  1  0
 11 12  2  0
 12 17  1  0
 17 18  1  0
 18 19  1  0
 19 20  2  0
 19 21  1  0
 21 22  1  0
 22 23  1  0
 11 13  1  0
 13 14  2  0
 14  1  1  0
  1  2  2  0
  1  3  1  0
  3  4  1  0
  4  5  1  0
  5  6  1  0
  6 24  1  0
 24 25  1  0
 25 26  1  0
 26 27  1  0
 27 28  1  0
 28 29  1  0
 28 30  2  0
  6  7  1  0
  7  8  1  0
 14 15  1  0
 15 16  1  0
 15 10  1  0
 22 17  2  0
  8  3  1  0
 29 31  1  0
M  CHG 1  18  -1
M  CHG 1  21  -1
M  CHG 1  23  -1
M  CHG 1  29  -1
M  END
> <UniqueID>
7

> <SMILES>
C=c1c(=Cc2[n-]c(=O)[n-]c2[O-])cc(C(=O)N2CCC(CCCCC([NH-])=O)CC2)n1C

> <Energy>
121.77759427626503

> <Genealogy>
C=c1c(=Cc2[n-]c(=O)[n-]c2[O-])cc(C(=O)N2CCC(CCCCC([NH-])=O)CC2)n1C (protonated)
C=c1c(=Cc2[n-]c(=O)[n-]c2[O-])cc(C(=O)N2CCC(CCCCC([NH-])=O)CC2)n1C (3D coordinates assigned)
C=c1c(=Cc2[n-]c(=O)[n-]c2[O-])cc(C(=O)N2CCC(CCCCC([NH-])=O)CC2)n1C (nonaromatic ring conformer: 121.77759427626503 kcal/mol)

> <smiles>
C=c1c(=Cc2[nH]c(=O)[nH]c2O)cc(C(=O)N2CCC(CCCCC(N)=O)CC2)n1C

> <score_type>
oracle

> <origin>
adg

> <m_score__min__energy>
-20.73

> <m_primary>
energy

> <minimizedAffinity>
-6.78155

> <minimizedRMSD>
0.95295

> <CNNscore>
0.1367907375

> <CNNaffinity>
5.9115424156

> <CNN_VS>
0.8086442351

> <CNNaffinity_variance>
0.1205613837

$$$$
8:0


 29 32  0  0  0  0  0  0  0  0999 V2000
   57.3388   27.9791   53.9127 C   0  0  0  0  0  0  0  0  0  0  0  0
   56.6127   28.9756   53.3971 C   0  0  0  0  0  0  0  0  0  0  0  0
   55.2770   29.0601   53.5530 N   0  0  0  0  0  0  0  0  0  0  0  0
   54.8721   30.1915   52.9388 C   0  0  0  0  0  0  0  0  0  0  0  0
   53.5805   30.5640   52.9004 C   0  0  0  0  0  0  0  0  0  0  0  0
   55.9652   30.8402   52.3765 C   0  0  0  0  0  0  0  0  0  0  0  0
   57.0773   30.0657   52.6665 C   0  0  0  0  0  0  0  0  0  0  0  0
   54.7030   28.4160   54.0270 H   0  0  0  0  0  0  0  0  0  0  0  0
   52.7159   30.5786   51.6992 C   0  0  0  0  0  0  0  0  0  0  0  0
   52.8021   29.7386   50.6529 N   0  0  0  0  0  0  0  0  0  0  0  0
   51.8377   30.1773   49.8146 C   0  0  0  0  0  0  0  0  0  0  0  0
   51.5938   29.6243   48.7106 O   0  0  0  0  0  0  0  0  0  0  0  0
   51.1519   31.2546   50.2561 N   0  0  0  0  0  0  0  0  0  0  0  0
   51.7189   31.4937   51.4487 C   0  0  0  0  0  0  0  0  0  0  0  0
   51.3363   32.5335   52.2891 O   0  0  0  0  0  0  0  0  0  0  0  0
   58.4610   30.3449   52.2108 C   0  0  0  0  0  0  0  0  0  0  0  0
   59.3959   30.3670   53.0598 O   0  0  0  0  0  0  0  0  0  0  0  0
   58.7639   30.4936   50.7997 N   0  0  0  0  0  0  0  0  0  0  0  0
   58.4628   31.8743   50.3565 C   0  0  0  0  0  0  0  0  0  0  0  0
   59.0084   32.1414   48.9501 C   0  0  0  0  0  0  0  0  0  0  0  0
   60.4531   31.8809   48.8971 N   0  0  0  0  0  0  0  0  0  0  0  0
   61.2296   32.4214   47.8020 C   0  0  0  0  0  0  0  0  0  0  0  0
   60.6497   33.0589   46.8793 O   0  0  0  0  0  0  0  0  0  0  0  0
   61.0849   31.1629   50.0141 C   0  0  0  0  0  0  0  0  0  0  0  0
   60.1591   30.0416   50.5122 C   0  0  0  0  0  0  0  0  0  0  0  0
   59.0236   30.3218   49.8658 H   0  0  0  0  0  0  0  0  0  0  0  0
   62.7293   32.2804   47.7575 C   0  0  0  0  0  0  0  0  0  0  0  0
   63.4272   33.3939   46.9892 C   0  0  0  0  0  0  0  0  0  0  0  0
   63.5306   33.3404   48.5045 C   0  0  0  0  0  0  0  0  0  0  0  0
  1  2  2  0
  2  3  1  0
  3  4  1  0
  4  5  2  0
  5  9  1  0
  9 10  1  0
 10 11  1  0
 11 12  2  0
 11 13  1  0
 13 14  1  0
 14 15  1  0
  4  6  1  0
  6  7  2  0
  7 16  1  0
 16 17  2  0
 16 18  1  0
 18 19  1  0
 19 20  1  0
 20 21  1  0
 21 22  1  0
 22 23  2  0
 22 27  1  0
 27 28  1  0
 28 29  1  0
 21 24  1  0
 24 25  1  0
  7  2  1  0
 25 18  1  0
 14  9  2  0
 29 27  1  0
  3  8  1  0
 18 26  1  0
M  CHG 1  10  -1
M  CHG 1  13  -1
M  CHG 1  15  -1
M  CHG 1  18   1
M  END
> <UniqueID>
8

> <SMILES>
C=c1[nH]c(=Cc2[n-]c(=O)[n-]c2[O-])cc1C(=O)[NH+]1CCN(C(=O)C2CC2)CC1

> <Energy>
382.1229348964994

> <Genealogy>
C=c1[nH]c(=Cc2[n-]c(=O)[n-]c2[O-])cc1C(=O)[NH+]1CCN(C(=O)C2CC2)CC1 (protonated)
C=c1[nH]c(=Cc2[n-]c(=O)[n-]c2[O-])cc1C(=O)[NH+]1CCN(C(=O)C2CC2)CC1 (3D coordinates assigned)
C=c1[nH]c(=Cc2[n-]c(=O)[n-]c2[O-])cc1C(=O)[NH+]1CCN(C(=O)C2CC2)CC1 (nonaromatic ring conformer: 382.1229348964994 kcal/mol)

> <smiles>
C=c1[nH]c(=Cc2[nH]c(=O)[nH]c2O)cc1C(=O)N1CCN(C(=O)C2CC2)CC1

> <score_type>
oracle

> <origin>
adg

> <m_score__min__energy>
-16.32

> <m_primary>
energy

> <minimizedAffinity>
-6.68308

> <minimizedRMSD>
0.78985

> <CNNscore>
0.0726866573

> <CNNaffinity>
4.9820942879

> <CNN_VS>
0.3621317744

> <CNNaffinity_variance>
0.1289266199

$$$$
18:0


 33 36  0  0  0  0  0  0  0  0999 V2000
   58.2629   30.3404   51.9827 C   0  0  0  0  0  0  0  0  0  0  0  0
   59.0828   30.9807   52.6901 O   0  0  0  0  0  0  0  0  0  0  0  0
   54.7506   28.2060   54.5321 C   0  0  0  0  0  0  0  0  0  0  0  0
   55.3657   29.0412   53.6803 C   0  0  0  0  0  0  0  0  0  0  0  0
   54.7655   30.0777   52.9560 C   0  0  0  0  0  0  0  0  0  0  0  0
   53.4712   30.4503   52.9785 C   0  0  0  0  0  0  0  0  0  0  0  0
   55.7864   30.6942   52.2440 C   0  0  0  0  0  0  0  0  0  0  0  0
   56.9427   30.0047   52.5374 C   0  0  0  0  0  0  0  0  0  0  0  0
   56.6940   28.9973   53.4051 N   0  0  0  0  0  0  0  0  0  0  0  0
   57.6808   28.0808   53.9832 C   0  0  0  0  0  0  0  0  0  0  0  0
   52.6194   30.5340   51.7782 C   0  0  0  0  0  0  0  0  0  0  0  0
   52.7483   29.7118   50.7233 N   0  0  0  0  0  0  0  0  0  0  0  0
   51.8451   30.1888   49.8407 C   0  0  0  0  0  0  0  0  0  0  0  0
   51.6603   29.6652   48.7110 O   0  0  0  0  0  0  0  0  0  0  0  0
   51.1661   31.2790   50.2571 N   0  0  0  0  0  0  0  0  0  0  0  0
   51.6766   31.4927   51.4800 C   0  0  0  0  0  0  0  0  0  0  0  0
   51.3217   32.5716   52.2818 O   0  0  0  0  0  0  0  0  0  0  0  0
   58.6374   29.9391   50.6614 N   0  0  0  0  0  0  0  0  0  0  0  0
   59.1550   30.8553   49.6467 C   0  0  0  0  0  0  0  0  0  0  0  0
   59.3923   30.1163   48.3414 C   0  0  0  0  0  0  0  0  0  0  0  0
   59.7084   28.7466   48.4148 C   0  0  0  0  0  0  0  0  0  0  0  0
   59.9785   28.0109   47.2649 C   0  0  0  0  0  0  0  0  0  0  0  0
   59.9271   28.6255   46.0199 C   0  0  0  0  0  0  0  0  0  0  0  0
   59.5848   29.9725   45.9133 C   0  0  0  0  0  0  0  0  0  0  0  0
   59.2887   30.7422   47.0645 C   0  0  0  0  0  0  0  0  0  0  0  0
   58.9013   32.2121   46.9542 C   0  0  0  0  0  0  0  0  0  0  0  0
   60.0361   33.1823   46.5819 C   0  0  0  0  0  0  0  0  0  0  0  0
   61.1415   33.0848   47.5600 N   0  0  0  0  0  0  0  0  0  0  0  0
   62.4308   33.4816   46.9602 C   0  0  0  0  0  0  0  0  0  0  0  0
   63.5680   33.3248   47.9915 C   0  0  0  0  0  0  0  0  0  0  0  0
   63.0816   33.0836   49.3011 O   0  0  0  0  0  0  0  0  0  0  0  0
   62.1142   34.0587   49.6376 C   0  0  0  0  0  0  0  0  0  0  0  0
   60.8636   33.9218   48.7453 C   0  0  0  0  0  0  0  0  0  0  0  0
  3  4  2  0
  4  5  1  0
  5  6  2  0
  6 11  1  0
 11 12  1  0
 12 13  1  0
 13 14  2  0
 13 15  1  0
 15 16  1  0
 16 17  1  0
  5  7  1  0
  7  8  2  0
  8  1  1  0
  1  2  2  0
  1 18  1  0
 18 19  1  0
 19 20  1  0
 20 21  2  0
 21 22  1  0
 22 23  2  0
 23 24  1  0
 24 25  2  0
 25 26  1  0
 26 27  1  0
 27 28  1  0
 28 29  1  0
 29 30  1  0
 30 31  1  0
 31 32  1  0
 32 33  1  0
  8  9  1  0
  9 10  1  0
  9  4  1  0
 16 11  2  0
 25 20  1  0
 33 28  1  0
M  CHG 1  12  -1
M  CHG 1  15  -1
M  CHG 1  17  -1
M  CHG 1  18  -1
M  END
> <UniqueID>
17

> <SMILES>
C=c1/c(=C/c2[n-]c(=O)[n-]c2[O-])cc(C(=O)[N-]Cc2ccccc2CCN2CCOCC2)n1C

> <Energy>
139.6199834545449

> <Genealogy>
C=c1c(=Cc2[n-]c(=O)[n-]c2[O-])cc(C(=O)[N-]Cc2ccccc2CCN2CCOCC2)n1C (protonated)
C=c1/c(=C/c2[n-]c(=O)[n-]c2[O-])cc(C(=O)[N-]Cc2ccccc2CCN2CCOCC2)n1C (cis-trans isomerization)
C=c1/c(=C/c2[n-]c(=O)[n-]c2[O-])cc(C(=O)[N-]Cc2ccccc2CCN2CCOCC2)n1C (3D coordinates assigned)
C=c1/c(=C/c2[n-]c(=O)[n-]c2[O-])cc(C(=O)[N-]Cc2ccccc2CCN2CCOCC2)n1C (nonaromatic ring conformer: 139.6199834545449 kcal/mol)

> <smiles>
C=c1c(=Cc2[nH]c(=O)[nH]c2O)cc(C(=O)NCc2ccccc2CCN2CCOCC2)n1C

> <score_type>
oracle

> <origin>
adg

> <m_score__min__energy>
-20.66

> <m_primary>
energy

> <minimizedAffinity>
-7.28292

> <minimizedRMSD>
1.54417

> <CNNscore>
0.0406104885

> <CNNaffinity>
5.2273311615

> <CNN_VS>
0.2122844756

> <CNNaffinity_variance>
0.5888940692

$$$$
31:0


 30 33  0  0  0  0  0  0  0  0999 V2000
   60.7764   27.2650   49.1546 C   0  0  0  0  0  0  0  0  0  0  0  0
   60.1203   28.2798   48.5694 C   0  0  0  0  0  0  0  0  0  0  0  0
   59.5160   28.2718   47.3027 C   0  0  0  0  0  0  0  0  0  0  0  0
   59.2478   27.2565   46.4575 C   0  0  0  0  0  0  0  0  0  0  0  0
   59.1422   29.5787   47.0428 C   0  0  0  0  0  0  0  0  0  0  0  0
   59.4693   30.3171   48.1582 C   0  0  0  0  0  0  0  0  0  0  0  0
   60.0572   29.5331   49.0951 N   0  0  0  0  0  0  0  0  0  0  0  0
   59.1434   31.7473   48.3176 C   0  0  0  0  0  0  0  0  0  0  0  0
   58.7812   32.1627   49.4516 O   0  0  0  0  0  0  0  0  0  0  0  0
   59.1887   32.6571   47.2039 N   0  0  0  0  0  0  0  0  0  0  0  0
   59.7049   34.0155   47.4018 C   0  0  0  0  0  0  0  0  0  0  0  0
   59.0882   34.9708   46.3738 C   0  0  0  0  0  0  0  0  0  0  0  0
   59.2161   34.4545   45.0635 O   0  0  0  0  0  0  0  0  0  0  0  0
   58.4438   33.2749   44.9443 C   0  0  0  0  0  0  0  0  0  0  0  0
   59.0102   32.1647   45.8326 C   0  0  0  0  0  0  0  0  0  0  0  0
   58.0481   26.4059   46.4996 C   0  0  0  0  0  0  0  0  0  0  0  0
   57.9353   25.2772   47.2247 N   0  0  0  0  0  0  0  0  0  0  0  0
   56.6404   24.9316   47.0607 C   0  0  0  0  0  0  0  0  0  0  0  0
   56.1445   23.8987   47.5828 O   0  0  0  0  0  0  0  0  0  0  0  0
   55.9184   25.7777   46.2958 N   0  0  0  0  0  0  0  0  0  0  0  0
   56.8224   26.7139   45.9620 C   0  0  0  0  0  0  0  0  0  0  0  0
   56.5287   27.8310   45.1921 O   0  0  0  0  0  0  0  0  0  0  0  0
   60.3656   29.9259   50.4811 C   0  0  0  0  0  0  0  0  0  0  0  0
   61.8450   30.2818   50.6231 C   0  0  0  0  0  0  0  0  0  0  0  0
   62.0351   31.7159   50.3122 N   0  0  0  0  0  0  0  0  0  0  0  0
   62.7402   32.4311   51.3883 C   0  0  0  0  0  0  0  0  0  0  0  0
   62.7967   33.9404   51.0678 C   0  0  0  0  0  0  0  0  0  0  0  0
   62.4051   34.2294   49.7353 O   0  0  0  0  0  0  0  0  0  0  0  0
   63.1142   33.4003   48.8360 C   0  0  0  0  0  0  0  0  0  0  0  0
   62.7067   31.9244   49.0143 C   0  0  0  0  0  0  0  0  0  0  0  0
  1  2  2  0
  2  3  1  0
  3  4  2  0
  4 16  1  0
 16 17  1  0
 17 18  1  0
 18 19  2  0
 18 20  1  0
 20 21  1  0
 21 22  1  0
  3  5  1  0
  5  6  2  0
  6  8  1  0
  8  9  2  0
  8 10  1  0
 10 11  1  0
 11 12  1  0
 12 13  1  0
 13 14  1  0
 14 15  1  0
  6  7  1  0
  7 23  1  0
 23 24  1  0
 24 25  1  0
 25 26  1  0
 26 27  1  0
 27 28  1  0
 28 29  1  0
 29 30  1  0
  7  2  1  0
 30 25  1  0
 21 16  2  0
 15 10  1  0
M  CHG 1  17  -1
M  CHG 1  20  -1
M  CHG 1  22  -1
M  END
> <UniqueID>
30

> <SMILES>
C=c1c(=Cc2[n-]c(=O)[n-]c2[O-])cc(C(=O)N2CCOCC2)n1CCN1CCOCC1

> <Energy>
139.76001380843164

> <Genealogy>
C=c1c(=Cc2[n-]c(=O)[n-]c2[O-])cc(C(=O)N2CCOCC2)n1CCN1CCOCC1 (protonated)
C=c1c(=Cc2[n-]c(=O)[n-]c2[O-])cc(C(=O)N2CCOCC2)n1CCN1CCOCC1 (3D coordinates assigned)
C=c1c(=Cc2[n-]c(=O)[n-]c2[O-])cc(C(=O)N2CCOCC2)n1CCN1CCOCC1 (nonaromatic ring conformer: 139.76001380843164 kcal/mol)

> <smiles>
C=c1c(=Cc2[nH]c(=O)[nH]c2O)cc(C(=O)N2CCOCC2)n1CCN1CCOCC1

> <score_type>
oracle

> <origin>
adg

> <m_score__min__energy>
-16.280000000000001

> <m_primary>
energy

> <minimizedAffinity>
-7.01001

> <minimizedRMSD>
1.12106

> <CNNscore>
0.2580493689

> <CNNaffinity>
5.8253283501

> <CNN_VS>
1.5032223463

> <CNNaffinity_variance>
0.2278353423

$$$$
38:0


 28 30  0  0  0  0  0  0  0  0999 V2000
   57.2125   29.0603   43.7316 C   0  0  0  0  0  0  0  0  0  0  0  0
   57.7270   28.8363   44.9543 C   0  0  0  0  0  0  0  0  0  0  0  0
   58.2911   27.6360   45.4064 C   0  0  0  0  0  0  0  0  0  0  0  0
   58.2868   26.3973   44.8729 C   0  0  0  0  0  0  0  0  0  0  0  0
   58.9096   27.9278   46.6034 C   0  0  0  0  0  0  0  0  0  0  0  0
   58.6524   29.2560   46.8900 C   0  0  0  0  0  0  0  0  0  0  0  0
   57.9135   29.8126   45.8889 N   0  0  0  0  0  0  0  0  0  0  0  0
   57.6067   25.2201   45.4329 C   0  0  0  0  0  0  0  0  0  0  0  0
   58.2056   24.0285   45.6059 N   0  0  0  0  0  0  0  0  0  0  0  0
   57.2693   23.2989   46.2512 C   0  0  0  0  0  0  0  0  0  0  0  0
   57.4532   22.0988   46.5792 O   0  0  0  0  0  0  0  0  0  0  0  0
   56.1247   23.9610   46.5265 N   0  0  0  0  0  0  0  0  0  0  0  0
   56.3598   25.1796   46.0163 C   0  0  0  0  0  0  0  0  0  0  0  0
   55.4663   26.2393   46.1059 O   0  0  0  0  0  0  0  0  0  0  0  0
   59.1447   29.9449   48.1189 C   0  0  0  0  0  0  0  0  0  0  0  0
   58.8440   29.4817   49.2519 O   0  0  0  0  0  0  0  0  0  0  0  0
   59.9528   31.1508   48.0177 N   0  0  0  0  0  0  0  0  0  0  0  0
   59.9576   31.8643   49.3124 C   0  0  0  0  0  0  0  0  0  0  0  0
   61.0199   32.9832   49.3394 C   0  0  0  0  0  0  0  0  0  0  0  0
   61.4722   33.2859   48.0355 O   0  0  0  0  0  0  0  0  0  0  0  0
   62.1611   32.1719   47.4947 C   0  0  0  0  0  0  0  0  0  0  0  0
   61.3386   30.8651   47.5912 C   0  0  0  0  0  0  0  0  0  0  0  0
   60.5143   31.6286   48.6701 H   0  0  0  0  0  0  0  0  0  0  0  0
   57.5419   31.2326   45.7389 C   0  0  0  0  0  0  0  0  0  0  0  0
   58.6755   32.0327   45.0852 C   0  0  0  0  0  0  0  0  0  0  0  0
   58.9690   33.2522   45.8682 N   0  0  0  0  0  0  0  0  0  0  0  0
   59.1911   34.4036   44.9768 C   0  0  0  0  0  0  0  0  0  0  0  0
   57.8744   33.5547   46.8055 C   0  0  0  0  0  0  0  0  0  0  0  0
  1  2  2  0
  2  3  1  0
  3  4  2  0
  4  8  1  0
  8  9  1  0
  9 10  1  0
 10 11  2  0
 10 12  1  0
 12 13  1  0
 13 14  1  0
  3  5  1  0
  5  6  2  0
  6 15  1  0
 15 16  2  0
 15 17  1  0
 17 18  1  0
 18 19  1  0
 19 20  1  0
 20 21  1  0
 21 22  1  0
  6  7  1  0
  7 24  1  0
 24 25  1  0
 25 26  1  0
 26 27  1  0
 26 28  1  0
  7  2  1  0
 13  8  2  0
 22 17  1  0
 17 23  1  0
M  CHG 1   9  -1
M  CHG 1  12  -1
M  CHG 1  14  -1
M  CHG 1  17   1
M  END
> <UniqueID>
36

> <SMILES>
C=c1/c(=C\c2[n-]c(=O)[n-]c2[O-])cc(C(=O)[NH+]2CCOCC2)n1CCN(C)C

> <Energy>
134.38485142284276

> <Genealogy>
C=c1c(=Cc2[n-]c(=O)[n-]c2[O-])cc(C(=O)[NH+]2CCOCC2)n1CCN(C)C (protonated)
C=c1/c(=C\c2[n-]c(=O)[n-]c2[O-])cc(C(=O)[NH+]2CCOCC2)n1CCN(C)C (cis-trans isomerization)
C=c1/c(=C\c2[n-]c(=O)[n-]c2[O-])cc(C(=O)[NH+]2CCOCC2)n1CCN(C)C (3D coordinates assigned)
C=c1/c(=C\c2[n-]c(=O)[n-]c2[O-])cc(C(=O)[NH+]2CCOCC2)n1CCN(C)C (nonaromatic ring conformer: 134.38485142284276 kcal/mol)

> <smiles>
C=c1c(=Cc2[nH]c(=O)[nH]c2O)cc(C(=O)N2CCOCC2)n1CCN(C)C

> <score_type>
oracle

> <origin>
adg

> <m_score__min__energy>
-14.82

> <m_primary>
energy

> <minimizedAffinity>
-6.44245

> <minimizedRMSD>
1.03698

> <CNNscore>
0.1591818035

> <CNNaffinity>
6.0834021568

> <CNN_VS>
0.9683669209

> <CNNaffinity_variance>
0.1657306552

$$$$
43:0


 38 41  0  0  0  0  0  0  0  0999 V2000
   58.4956   31.8325   52.1630 N   0  0  0  0  0  0  0  0  0  0  0  0
   59.0004   32.0555   50.9860 C   0  0  0  0  0  0  0  0  0  0  0  0
   58.7804   31.1942   49.9537 N   0  0  0  0  0  0  0  0  0  0  0  0
   59.2992   31.4143   48.7160 C   0  0  0  0  0  0  0  0  0  0  0  0
   60.1015   32.5479   48.5101 C   0  0  0  0  0  0  0  0  0  0  0  0
   60.3155   33.4215   49.5746 C   0  0  0  0  0  0  0  0  0  0  0  0
   59.7613   33.1622   50.7864 N   0  0  0  0  0  0  0  0  0  0  0  0
   59.0325   30.4740   47.6556 N   0  0  0  0  0  0  0  0  0  0  0  0
   59.0076   29.0235   47.9065 C   0  0  0  0  0  0  0  0  0  0  0  0
   59.7545   28.2500   46.8033 C   0  0  0  0  0  0  0  0  0  0  0  0
   59.5804   28.8392   45.3786 C   0  0  0  0  0  0  0  0  0  0  0  0
   58.4390   29.8667   45.3188 C   0  0  0  0  0  0  0  0  0  0  0  0
   58.7040   30.9955   46.3194 C   0  0  0  0  0  0  0  0  0  0  0  0
   59.3584   27.7641   44.4055 N   0  0  0  0  0  0  0  0  0  0  0  0
   58.1660   26.9615   44.4292 C   0  0  0  0  0  0  0  0  0  0  0  0
   57.4220   26.9788   45.4469 O   0  0  0  0  0  0  0  0  0  0  0  0
   60.0424   27.5881   43.7197 H   0  0  0  0  0  0  0  0  0  0  0  0
   57.7842   26.0900   43.2990 C   0  0  0  0  0  0  0  0  0  0  0  0
   57.2647   24.8641   43.4599 C   0  0  0  0  0  0  0  0  0  0  0  0
   56.8689   24.2977   44.7751 C   0  0  0  0  0  0  0  0  0  0  0  0
   55.5010   24.2209   45.0867 C   0  0  0  0  0  0  0  0  0  0  0  0
   55.0803   23.7149   46.3202 C   0  0  0  0  0  0  0  0  0  0  0  0
   56.0204   23.2843   47.2590 C   0  0  0  0  0  0  0  0  0  0  0  0
   55.6089   22.7980   48.4548 F   0  0  0  0  0  0  0  0  0  0  0  0
   57.3830   23.3678   46.9681 C   0  0  0  0  0  0  0  0  0  0  0  0
   57.8096   23.8749   45.7367 C   0  0  0  0  0  0  0  0  0  0  0  0
   57.1796   32.2940   52.6063 C   0  0  0  0  0  0  0  0  0  0  0  0
   53.9919   30.2505   52.1574 C   0  0  0  0  0  0  0  0  0  0  0  0
   54.3630   29.0274   52.7311 C   0  0  0  0  0  0  0  0  0  0  0  0
   55.6451   28.8625   53.2621 C   0  0  0  0  0  0  0  0  0  0  0  0
   56.5640   29.9177   53.2221 C   0  0  0  0  0  0  0  0  0  0  0  0
   56.2030   31.1466   52.6505 C   0  0  0  0  0  0  0  0  0  0  0  0
   54.9161   31.3029   52.1098 C   0  0  0  0  0  0  0  0  0  0  0  0
   52.1014   32.1280   51.1503 N   0  0  0  0  0  0  0  0  0  0  0  0
   52.3851   30.4522   51.4612 S   0  0  0  0  0  0  0  0  0  0  0  0
   51.3456   29.9352   52.4188 O   0  0  0  0  0  0  0  0  0  0  0  0
   52.2834   29.6775   50.1768 O   0  0  0  0  0  0  0  0  0  0  0  0
   51.1719   32.2464   50.7473 H   0  0  0  0  0  0  0  0  0  0  0  0
 34 35  1  0
 35 36  2  0
 35 37  2  0
 35 28  1  0
 28 29  2  0
 29 30  1  0
 30 31  2  0
 31 32  1  0
 32 27  1  0
 27  1  1  0
  1  2  2  0
  2  3  1  0
  3  4  2  0
  4  8  1  0
  8  9  1  0
  9 10  1  0
 10 11  1  0
 11 14  1  0
 14 15  1  0
 15 16  2  0
 15 18  1  0
 18 19  2  0
 19 20  1  0
 20 21  2  0
 21 22  1  0
 22 23  2  0
 23 24  1  0
 23 25  1  0
 25 26  2  0
 11 12  1  0
 12 13  1  0
  4  5  1  0
  5  6  2  0
  6  7  1  0
 32 33  2  0
 33 28  1  0
  7  2  1  0
 13  8  1  0
 26 20  1  0
 34 38  1  0
 14 17  1  0
M  CHG 1   7  -1
M  CHG 1  34  -1
M  END
> <UniqueID>
41

> <SMILES>
[NH-]S(=O)(=O)c1cccc(CN=c2nc(N3CCC(NC(=O)/C=C/c4ccc(F)cc4)CC3)cc[n-]2)c1

> <Energy>
69.12333651750336

> <Genealogy>
[NH-]S(=O)(=O)c1cccc(CN=c2nc(N3CCC(NC(=O)C=Cc4ccc(F)cc4)CC3)cc[n-]2)c1 (protonated)
[NH-]S(=O)(=O)c1cccc(CN=c2nc(N3CCC(NC(=O)/C=C/c4ccc(F)cc4)CC3)cc[n-]2)c1 (cis-trans isomerization)
[NH-]S(=O)(=O)c1cccc(CN=c2nc(N3CCC(NC(=O)/C=C/c4ccc(F)cc4)CC3)cc[n-]2)c1 (3D coordinates assigned)
[NH-]S(=O)(=O)c1cccc(CN=c2nc(N3CCC(NC(=O)/C=C/c4ccc(F)cc4)CC3)cc[n-]2)c1 (nonaromatic ring conformer: 69.12333651750336 kcal/mol)

> <smiles>
NS(=O)(=O)c1cccc(CN=c2nc(N3CCC(NC(=O)C=Cc4ccc(F)cc4)CC3)cc[nH]2)c1

> <score_type>
oracle

> <origin>
adg

> <m_score__min__energy>
-14.6

> <m_primary>
energy

> <minimizedAffinity>
-7.25547

> <minimizedRMSD>
0.49850

> <CNNscore>
0.0541037396

> <CNNaffinity>
6.0834765434

> <CNN_VS>
0.3291388452

> <CNNaffinity_variance>
0.2759682238

$$$$
46:0


 28 30  0  0  0  0  0  0  0  0999 V2000
   60.2411   28.6337   48.2180 C   0  0  0  0  0  0  0  0  0  0  0  0
   59.5042   29.0962   47.1927 C   0  0  0  0  0  0  0  0  0  0  0  0
   59.2074   28.3172   46.0285 C   0  0  0  0  0  0  0  0  0  0  0  0
   59.3130   26.9660   45.9341 C   0  0  0  0  0  0  0  0  0  0  0  0
   58.7452   29.0012   44.8886 C   0  0  0  0  0  0  0  0  0  0  0  0
   58.4372   30.3607   44.9395 C   0  0  0  0  0  0  0  0  0  0  0  0
   58.6149   31.0553   46.1400 C   0  0  0  0  0  0  0  0  0  0  0  0
   59.1331   30.4144   47.2228 N   0  0  0  0  0  0  0  0  0  0  0  0
   59.2458   30.9182   48.0611 H   0  0  0  0  0  0  0  0  0  0  0  0
   58.2591   25.9830   46.2465 C   0  0  0  0  0  0  0  0  0  0  0  0
   58.5121   24.6958   46.5420 N   0  0  0  0  0  0  0  0  0  0  0  0
   57.2808   24.1507   46.6496 C   0  0  0  0  0  0  0  0  0  0  0  0
   57.0988   22.9393   46.9357 O   0  0  0  0  0  0  0  0  0  0  0  0
   56.2606   25.0031   46.4144 N   0  0  0  0  0  0  0  0  0  0  0  0
   56.8957   26.1547   46.1475 C   0  0  0  0  0  0  0  0  0  0  0  0
   56.2433   27.3293   45.7904 O   0  0  0  0  0  0  0  0  0  0  0  0
   57.9029   31.0063   43.7654 C   0  0  0  0  0  0  0  0  0  0  0  0
   57.4762   31.5243   42.8224 N   0  0  0  0  0  0  0  0  0  0  0  0
   58.2124   32.8078   46.2735 S   0  0  0  0  0  0  0  0  0  0  0  0
   59.4417   33.0927   47.5485 C   0  0  0  0  0  0  0  0  0  0  0  0
   59.0392   33.3166   48.8678 C   0  0  0  0  0  0  0  0  0  0  0  0
   59.9948   33.5293   49.8628 C   0  0  0  0  0  0  0  0  0  0  0  0
   61.3560   33.5273   49.5440 C   0  0  0  0  0  0  0  0  0  0  0  0
   61.7788   33.3117   48.2164 C   0  0  0  0  0  0  0  0  0  0  0  0
   60.8037   33.0997   47.2225 C   0  0  0  0  0  0  0  0  0  0  0  0
   63.2226   33.3056   47.8547 C   0  0  0  0  0  0  0  0  0  0  0  0
   63.5761   33.6093   46.6837 O   0  0  0  0  0  0  0  0  0  0  0  0
   64.2861   32.9430   48.8479 C   0  0  0  0  0  0  0  0  0  0  0  0
  1  2  2  0
  2  3  1  0
  3  4  2  0
  4 10  1  0
 10 11  1  0
 11 12  1  0
 12 13  2  0
 12 14  1  0
 14 15  1  0
 15 16  1  0
  3  5  1  0
  5  6  2  0
  6 17  1  0
 17 18  3  0
  6  7  1  0
  7 19  1  0
 19 20  1  0
 20 21  2  0
 21 22  1  0
 22 23  2  0
 23 24  1  0
 24 26  1  0
 26 27  2  0
 26 28  1  0
 24 25  2  0
  7  8  2  0
  8  2  1  0
 15 10  2  0
 25 20  1  0
  8  9  1  0
M  CHG 1   8   1
M  CHG 1  11  -1
M  CHG 1  14  -1
M  CHG 1  16  -1
M  END
> <UniqueID>
44

> <SMILES>
C=c1[nH+]c(Sc2cccc(C(C)=O)c2)c(C#N)c/c1=C/c1[n-]c(=O)[n-]c1[O-]

> <Energy>
88.14815060960866

> <Genealogy>
C=c1[nH+]c(Sc2cccc(C(C)=O)c2)c(C#N)cc1=Cc1[n-]c(=O)[n-]c1[O-] (protonated)
C=c1[nH+]c(Sc2cccc(C(C)=O)c2)c(C#N)c/c1=C/c1[n-]c(=O)[n-]c1[O-] (cis-trans isomerization)
C=c1[nH+]c(Sc2cccc(C(C)=O)c2)c(C#N)c/c1=C/c1[n-]c(=O)[n-]c1[O-] (3D coordinates assigned)
C=c1[nH+]c(Sc2cccc(C(C)=O)c2)c(C#N)c/c1=C/c1[n-]c(=O)[n-]c1[O-] (optimized conformer: 88.14815060960866 kcal/mol)

> <smiles>
C=c1nc(Sc2cccc(C(C)=O)c2)c(C#N)cc1=Cc1[nH]c(=O)[nH]c1O

> <score_type>
oracle

> <origin>
adg

> <m_score__min__energy>
-15.539999999999999

> <m_primary>
energy

> <minimizedAffinity>
-7.48812

> <minimizedRMSD>
1.32225

> <CNNscore>
0.3097045422

> <CNNaffinity>
6.8996405602

> <CNN_VS>
2.1368501186

> <CNNaffinity_variance>
0.0434714742

$$$$
59:0


 45 50  0  0  0  0  0  0  0  0999 V2000
   61.4128   29.5059   52.0741 C   0  0  0  0  0  0  0  0  0  0  0  0
   62.6170   29.1869   51.4136 C   0  0  0  0  0  0  0  0  0  0  0  0
   63.8550   29.5313   51.9664 C   0  0  0  0  0  0  0  0  0  0  0  0
   63.9331   30.2013   53.1955 C   0  0  0  0  0  0  0  0  0  0  0  0
   62.7349   30.5363   53.8501 C   0  0  0  0  0  0  0  0  0  0  0  0
   61.4801   30.2129   53.3031 C   0  0  0  0  0  0  0  0  0  0  0  0
   60.2841   30.6552   54.0523 C   0  0  0  0  0  0  0  0  0  0  0  0
   59.5703   29.8130   54.6634 O   0  0  0  0  0  0  0  0  0  0  0  0
   59.9082   32.0307   54.0609 N   0  0  0  0  0  0  0  0  0  0  0  0
   60.4777   33.3146   53.6220 C   0  0  0  0  0  0  0  0  0  0  0  0
   59.3460   34.1612   54.1000 C   0  0  0  0  0  0  0  0  0  0  0  0
   58.7841   32.8492   54.5427 C   0  0  0  0  0  0  0  0  0  0  0  0
   65.2252   30.5259   53.8716 C   0  0  0  0  0  0  0  0  0  0  0  0
   65.5437   29.8228   54.8724 O   0  0  0  0  0  0  0  0  0  0  0  0
   66.1452   31.5742   53.4624 N   0  0  0  0  0  0  0  0  0  0  0  0
   67.2419   31.1088   52.5755 C   0  0  0  0  0  0  0  0  0  0  0  0
   68.4718   32.0509   52.5965 C   0  0  0  0  0  0  0  0  0  0  0  0
   68.1043   33.4581   52.8603 N   0  0  0  0  0  0  0  0  0  0  0  0
   67.4263   33.5967   54.1770 C   0  0  0  0  0  0  0  0  0  0  0  0
   66.6231   32.3464   54.6175 C   0  0  0  0  0  0  0  0  0  0  0  0
   65.6741   30.7808   53.8057 H   0  0  0  0  0  0  0  0  0  0  0  0
   67.4341   34.0797   51.6888 C   0  0  0  0  0  0  0  0  0  0  0  0
   66.8568   33.1052   50.6284 C   0  0  0  0  0  0  0  0  0  0  0  0
   65.4032   32.8368   50.7731 N   0  0  0  0  0  0  0  0  0  0  0  0
   64.7819   33.9694   51.5067 C   0  0  0  0  0  0  0  0  0  0  0  0
   63.2574   34.0442   51.2882 C   0  0  0  0  0  0  0  0  0  0  0  0
   62.7532   32.7737   50.9262 O   0  0  0  0  0  0  0  0  0  0  0  0
   63.2274   32.4299   49.6333 C   0  0  0  0  0  0  0  0  0  0  0  0
   64.7512   32.6407   49.4643 C   0  0  0  0  0  0  0  0  0  0  0  0
   60.0969   29.0770   51.4406 C   0  0  0  0  0  0  0  0  0  0  0  0
   60.5065   27.4482   48.9545 C   0  0  0  0  0  0  0  0  0  0  0  0
   60.1762   28.7515   48.9330 C   0  0  0  0  0  0  0  0  0  0  0  0
   59.9393   29.5161   47.7850 C   0  0  0  0  0  0  0  0  0  0  0  0
   59.8887   29.0722   46.5110 C   0  0  0  0  0  0  0  0  0  0  0  0
   59.6479   30.8004   48.2246 C   0  0  0  0  0  0  0  0  0  0  0  0
   59.7050   30.7724   49.6067 C   0  0  0  0  0  0  0  0  0  0  0  0
   59.3233   31.9267   50.4863 C   0  0  0  0  0  0  0  0  0  0  0  0
   60.0140   29.5237   50.0409 N   0  0  0  0  0  0  0  0  0  0  0  0
   58.8759   29.5033   45.5331 C   0  0  0  0  0  0  0  0  0  0  0  0
   58.9253   30.6812   44.8808 N   0  0  0  0  0  0  0  0  0  0  0  0
   57.7869   30.6864   44.1544 C   0  0  0  0  0  0  0  0  0  0  0  0
   57.4727   31.6408   43.3931 O   0  0  0  0  0  0  0  0  0  0  0  0
   57.0028   29.5969   44.3227 N   0  0  0  0  0  0  0  0  0  0  0  0
   57.7007   28.8613   45.2089 C   0  0  0  0  0  0  0  0  0  0  0  0
   57.2454   27.6656   45.7507 O   0  0  0  0  0  0  0  0  0  0  0  0
 31 32  2  0
 32 33  1  0
 33 34  2  0
 34 39  1  0
 39 40  1  0
 40 41  1  0
 41 42  2  0
 41 43  1  0
 43 44  1  0
 44 45  1  0
 33 35  1  0
 35 36  2  0
 36 37  1  0
 36 38  1  0
 38 30  1  0
 30  1  1  0
  1  2  2  0
  2  3  1  0
  3  4  2  0
  4 13  1  0
 13 14  2  0
 13 15  1  0
 15 16  1  0
 16 17  1  0
 17 18  1  0
 18 22  1  0
 22 23  1  0
 23 24  1  0
 24 25  1  0
 25 26  1  0
 26 27  1  0
 27 28  1  0
 28 29  1  0
 18 19  1  0
 19 20  1  0
  4  5  1  0
  5  6  2  0
  6  7  1  0
  7  8  2  0
  7  9  1  0
  9 10  1  0
 10 11  1  0
 11 12  1  0
 38 32  1  0
  6  1  1  0
 12  9  1  0
 44 39  2  0
 20 15  1  0
 29 24  1  0
 15 21  1  0
M  CHG 1  15   1
M  CHG 1  40  -1
M  CHG 1  43  -1
M  CHG 1  45  -1
M  END
> <UniqueID>
55

> <SMILES>
C=c1/c(=C/c2[n-]c(=O)[n-]c2[O-])cc(C)n1Cc1ccc(C(=O)[NH+]2CCN(CCN3CCOCC3)CC2)cc1C(=O)N1CCC1

> <Energy>
241.96025756355087

> <Genealogy>
C=c1c(=Cc2[n-]c(=O)[n-]c2[O-])cc(C)n1Cc1ccc(C(=O)[NH+]2CCN(CCN3CCOCC3)CC2)cc1C(=O)N1CCC1 (protonated)
C=c1/c(=C/c2[n-]c(=O)[n-]c2[O-])cc(C)n1Cc1ccc(C(=O)[NH+]2CCN(CCN3CCOCC3)CC2)cc1C(=O)N1CCC1 (cis-trans isomerization)
C=c1/c(=C/c2[n-]c(=O)[n-]c2[O-])cc(C)n1Cc1ccc(C(=O)[NH+]2CCN(CCN3CCOCC3)CC2)cc1C(=O)N1CCC1 (3D coordinates assigned)
C=c1/c(=C/c2[n-]c(=O)[n-]c2[O-])cc(C)n1Cc1ccc(C(=O)[NH+]2CCN(CCN3CCOCC3)CC2)cc1C(=O)N1CCC1 (nonaromatic ring conformer: 241.96025756355087 kcal/mol)

> <smiles>
C=c1c(=Cc2[nH]c(=O)[nH]c2O)cc(C)n1Cc1ccc(C(=O)N2CCN(CCN3CCOCC3)CC2)cc1C(=O)N1CCC1

> <score_type>
oracle

> <origin>
adg

> <m_score__min__energy>
-17.27

> <m_primary>
energy

> <minimizedAffinity>
-6.23098

> <minimizedRMSD>
1.55043

> <CNNscore>
0.0387969129

> <CNNaffinity>
6.1584248543

> <CNN_VS>
0.2389278710

> <CNNaffinity_variance>
0.3750155270

$$$$
67:0


 29 32  0  0  0  0  0  0  0  0999 V2000
   60.7116   27.1065   47.8225 C   0  0  0  0  0  0  0  0  0  0  0  0
   59.9944   28.1873   47.4771 C   0  0  0  0  0  0  0  0  0  0  0  0
   58.9968   28.2565   46.4906 C   0  0  0  0  0  0  0  0  0  0  0  0
   58.6365   27.3796   45.5336 C   0  0  0  0  0  0  0  0  0  0  0  0
   58.3932   29.4924   46.6381 C   0  0  0  0  0  0  0  0  0  0  0  0
   59.0643   30.1511   47.6452 C   0  0  0  0  0  0  0  0  0  0  0  0
   60.0502   29.3691   48.1472 N   0  0  0  0  0  0  0  0  0  0  0  0
   57.9686   26.0887   45.7599 C   0  0  0  0  0  0  0  0  0  0  0  0
   58.6280   24.9228   45.8819 N   0  0  0  0  0  0  0  0  0  0  0  0
   57.6519   24.0455   46.2028 C   0  0  0  0  0  0  0  0  0  0  0  0
   57.8761   22.8211   46.3873 O   0  0  0  0  0  0  0  0  0  0  0  0
   56.4199   24.5837   46.3209 N   0  0  0  0  0  0  0  0  0  0  0  0
   56.6404   25.8812   46.0532 C   0  0  0  0  0  0  0  0  0  0  0  0
   55.6528   26.8573   46.1027 O   0  0  0  0  0  0  0  0  0  0  0  0
   58.7832   31.5409   48.0578 C   0  0  0  0  0  0  0  0  0  0  0  0
   58.2391   31.7460   49.1763 O   0  0  0  0  0  0  0  0  0  0  0  0
   59.1250   32.6575   47.2178 N   0  0  0  0  0  0  0  0  0  0  0  0
   58.9793   34.0360   47.6504 C   0  0  0  0  0  0  0  0  0  0  0  0
   59.0908   34.8824   46.3897 C   0  0  0  0  0  0  0  0  0  0  0  0
   59.6867   33.9695   45.3206 C   0  0  0  0  0  0  0  0  0  0  0  0
   59.4532   32.5453   45.8064 C   0  0  0  0  0  0  0  0  0  0  0  0
   60.9480   29.7081   49.2646 C   0  0  0  0  0  0  0  0  0  0  0  0
   61.6483   31.0302   49.0189 C   0  0  0  0  0  0  0  0  0  0  0  0
   62.2949   31.2489   47.7868 C   0  0  0  0  0  0  0  0  0  0  0  0
   62.9327   32.4626   47.5243 C   0  0  0  0  0  0  0  0  0  0  0  0
   62.9235   33.4792   48.4778 C   0  0  0  0  0  0  0  0  0  0  0  0
   62.2681   33.2887   49.6945 C   0  0  0  0  0  0  0  0  0  0  0  0
   61.6217   32.0756   49.9728 C   0  0  0  0  0  0  0  0  0  0  0  0
   60.7937   31.9224   51.5192 Cl  0  0  0  0  0  0  0  0  0  0  0  0
  1  2  2  0
  2  3  1  0
  3  4  2  0
  4  8  1  0
  8  9  1  0
  9 10  1  0
 10 11  2  0
 10 12  1  0
 12 13  1  0
 13 14  1  0
  3  5  1  0
  5  6  2  0
  6 15  1  0
 15 16  2  0
 15 17  1  0
 17 18  1  0
 18 19  1  0
 19 20  1  0
 20 21  1  0
  6  7  1  0
  7 22  1  0
 22 23  1  0
 23 24  2  0
 24 25  1  0
 25 26  2  0
 26 27  1  0
 27 28  2  0
 28 29  1  0
  7  2  1  0
 28 23  1  0
 13  8  2  0
 21 17  1  0
M  CHG 1   9  -1
M  CHG 1  12  -1
M  CHG 1  14  -1
M  END
> <UniqueID>
63

> <SMILES>
C=c1/c(=C\c2[n-]c(=O)[n-]c2[O-])cc(C(=O)N2CCCC2)n1Cc1ccccc1Cl

> <Energy>
126.20621432603583

> <Genealogy>
C=c1c(=Cc2[n-]c(=O)[n-]c2[O-])cc(C(=O)N2CCCC2)n1Cc1ccccc1Cl (protonated)
C=c1/c(=C\c2[n-]c(=O)[n-]c2[O-])cc(C(=O)N2CCCC2)n1Cc1ccccc1Cl (cis-trans isomerization)
C=c1/c(=C\c2[n-]c(=O)[n-]c2[O-])cc(C(=O)N2CCCC2)n1Cc1ccccc1Cl (3D coordinates assigned)
C=c1/c(=C\c2[n-]c(=O)[n-]c2[O-])cc(C(=O)N2CCCC2)n1Cc1ccccc1Cl (nonaromatic ring conformer: 126.20621432603583 kcal/mol)

> <smiles>
C=c1c(=Cc2[nH]c(=O)[nH]c2O)cc(C(=O)N2CCCC2)n1Cc1ccccc1Cl

> <score_type>
oracle

> <origin>
adg

> <m_score__min__energy>
-16.879999999999999

> <m_primary>
energy

> <minimizedAffinity>
-7.04400

> <minimizedRMSD>
0.72033

> <CNNscore>
0.1956840307

> <CNNaffinity>
6.5667243004

> <CNN_VS>
1.2850030661

> <CNNaffinity_variance>
0.0395190604

$$$$
72:0


 35 38  0  0  0  0  0  0  0  0999 V2000
   57.9096   29.9039   44.4492 C   0  0  0  0  0  0  0  0  0  0  0  0
   58.3409   29.3257   45.5811 C   0  0  0  0  0  0  0  0  0  0  0  0
   58.2606   27.9669   45.9077 C   0  0  0  0  0  0  0  0  0  0  0  0
   57.6943   26.9872   45.1711 C   0  0  0  0  0  0  0  0  0  0  0  0
   58.8419   27.8373   47.1645 C   0  0  0  0  0  0  0  0  0  0  0  0
   59.2637   29.0973   47.5414 C   0  0  0  0  0  0  0  0  0  0  0  0
   58.9509   30.0013   46.5868 N   0  0  0  0  0  0  0  0  0  0  0  0
   57.2949   25.6603   45.6914 C   0  0  0  0  0  0  0  0  0  0  0  0
   58.1200   24.6071   45.8360 N   0  0  0  0  0  0  0  0  0  0  0  0
   57.3026   23.6191   46.2611 C   0  0  0  0  0  0  0  0  0  0  0  0
   57.7191   22.4583   46.5166 O   0  0  0  0  0  0  0  0  0  0  0  0
   56.0077   23.9719   46.3853 N   0  0  0  0  0  0  0  0  0  0  0  0
   56.0130   25.2636   46.0157 C   0  0  0  0  0  0  0  0  0  0  0  0
   54.8646   26.0514   45.9907 O   0  0  0  0  0  0  0  0  0  0  0  0
   54.0378   25.6820   46.2312 H   0  0  0  0  0  0  0  0  0  0  0  0
   59.2000   31.4150   46.6524 C   0  0  0  0  0  0  0  0  0  0  0  0
   60.5049   31.8932   46.8412 C   0  0  0  0  0  0  0  0  0  0  0  0
   60.7470   33.2693   46.9012 C   0  0  0  0  0  0  0  0  0  0  0  0
   59.6870   34.1719   46.7751 C   0  0  0  0  0  0  0  0  0  0  0  0
   59.9229   35.5063   46.8295 F   0  0  0  0  0  0  0  0  0  0  0  0
   58.3836   33.6994   46.5900 C   0  0  0  0  0  0  0  0  0  0  0  0
   58.1397   32.3244   46.5287 C   0  0  0  0  0  0  0  0  0  0  0  0
   59.8293   29.4322   48.8931 C   0  0  0  0  0  0  0  0  0  0  0  0
   58.7804   30.0974   49.7431 C   0  0  0  0  0  0  0  0  0  0  0  0
   59.0343   30.7336   50.8954 C   0  0  0  0  0  0  0  0  0  0  0  0
   60.3574   31.2587   51.2765 C   0  0  0  0  0  0  0  0  0  0  0  0
   60.9576   30.8668   52.4811 C   0  0  0  0  0  0  0  0  0  0  0  0
   62.2219   31.3463   52.8242 C   0  0  0  0  0  0  0  0  0  0  0  0
   62.9069   32.2008   51.9572 C   0  0  0  0  0  0  0  0  0  0  0  0
   62.3346   32.5802   50.7284 C   0  0  0  0  0  0  0  0  0  0  0  0
   61.0558   32.0929   50.3939 C   0  0  0  0  0  0  0  0  0  0  0  0
   63.0649   33.4758   49.8018 C   0  0  0  0  0  0  0  0  0  0  0  0
   64.2226   33.0137   49.1090 N   0  0  0  0  0  0  0  0  0  0  0  0
   62.6696   34.6579   49.6157 O   0  0  0  0  0  0  0  0  0  0  0  0
   64.5425   32.0927   49.2448 H   0  0  0  0  0  0  0  0  0  0  0  0
  1  2  2  0
  2  3  1  0
  3  4  2  0
  4  8  1  0
  8  9  1  0
  9 10  1  0
 10 11  2  0
 10 12  1  0
 12 13  1  0
 13 14  1  0
  3  5  1  0
  5  6  2  0
  6 23  1  0
 23 24  1  0
 24 25  2  0
 25 26  1  0
 26 27  2  0
 27 28  1  0
 28 29  2  0
 29 30  1  0
 30 32  1  0
 32 33  1  0
 32 34  2  0
 30 31  2  0
  6  7  1  0
  7 16  1  0
 16 17  2  0
 17 18  1  0
 18 19  2  0
 19 20  1  0
 19 21  1  0
 21 22  2  0
  7  2  1  0
 22 16  1  0
 13  8  2  0
 31 26  1  0
 14 15  1  0
 33 35  1  0
M  CHG 1   9  -1
M  CHG 1  12  -1
M  CHG 1  33  -1
M  END
> <UniqueID>
68

> <SMILES>
C=c1c(=Cc2[n-]c(=O)[n-]c2O)cc(CC=Cc2cccc(C([NH-])=O)c2)n1-c1ccc(F)cc1

> <Energy>
128.3579712456417

> <Genealogy>
C=c1c(=Cc2[n-]c(=O)[n-]c2O)cc(CC=Cc2cccc(C([NH-])=O)c2)n1-c1ccc(F)cc1 (protonated)
C=c1c(=Cc2[n-]c(=O)[n-]c2O)cc(CC=Cc2cccc(C([NH-])=O)c2)n1-c1ccc(F)cc1 (3D coordinates assigned)
C=c1c(=Cc2[n-]c(=O)[n-]c2O)cc(CC=Cc2cccc(C([NH-])=O)c2)n1-c1ccc(F)cc1 (optimized conformer: 128.3579712456417 kcal/mol)

> <smiles>
C=c1c(=Cc2[nH]c(=O)[nH]c2O)cc(CC=Cc2cccc(C(N)=O)c2)n1-c1ccc(F)cc1

> <score_type>
oracle

> <origin>
adg

> <m_score__min__energy>
-16.43

> <m_primary>
energy

> <minimizedAffinity>
-9.22564

> <minimizedRMSD>
1.33328

> <CNNscore>
0.6222815514

> <CNNaffinity>
7.5607056618

> <CNN_VS>
4.7048878670

> <CNNaffinity_variance>
0.0676919594

$$$$
74:0


 29 32  0  0  0  0  0  0  0  0999 V2000
   59.6745   29.4526   47.5480 C   0  0  0  0  0  0  0  0  0  0  0  0
   59.1340   30.0407   46.4703 C   0  0  0  0  0  0  0  0  0  0  0  0
   58.9431   29.4771   45.1970 C   0  0  0  0  0  0  0  0  0  0  0  0
   59.0521   28.2051   44.7665 C   0  0  0  0  0  0  0  0  0  0  0  0
   58.5622   30.5190   44.3666 C   0  0  0  0  0  0  0  0  0  0  0  0
   58.4631   31.6450   45.1548 C   0  0  0  0  0  0  0  0  0  0  0  0
   58.0466   32.9971   44.6612 C   0  0  0  0  0  0  0  0  0  0  0  0
   58.8223   31.3604   46.4251 N   0  0  0  0  0  0  0  0  0  0  0  0
   58.8742   32.2940   47.5207 C   0  0  0  0  0  0  0  0  0  0  0  0
   57.8255   32.9233   47.8263 O   0  0  0  0  0  0  0  0  0  0  0  0
   58.3199   27.0489   45.3074 C   0  0  0  0  0  0  0  0  0  0  0  0
   58.8944   25.9051   45.7252 N   0  0  0  0  0  0  0  0  0  0  0  0
   57.8634   25.2172   46.2631 C   0  0  0  0  0  0  0  0  0  0  0  0
   57.9993   24.0669   46.7567 O   0  0  0  0  0  0  0  0  0  0  0  0
   56.6778   25.8623   46.2387 N   0  0  0  0  0  0  0  0  0  0  0  0
   56.9894   27.0249   45.6443 C   0  0  0  0  0  0  0  0  0  0  0  0
   56.0759   28.0483   45.4195 O   0  0  0  0  0  0  0  0  0  0  0  0
   60.0785   32.4953   48.3022 N   0  0  0  0  0  0  0  0  0  0  0  0
   59.7279   32.7040   49.7309 C   0  0  0  0  0  0  0  0  0  0  0  0
   60.8724   33.3539   50.5311 C   0  0  0  0  0  0  0  0  0  0  0  0
   62.1614   33.0339   49.8863 N   0  0  0  0  0  0  0  0  0  0  0  0
   62.2606   33.6805   48.5620 C   0  0  0  0  0  0  0  0  0  0  0  0
   60.9275   33.5941   47.7846 C   0  0  0  0  0  0  0  0  0  0  0  0
   59.7853   33.3702   48.6455 H   0  0  0  0  0  0  0  0  0  0  0  0
   63.3791   33.2547   50.7099 C   0  0  0  0  0  0  0  0  0  0  0  0
   63.4553   32.4095   51.9958 C   0  0  0  0  0  0  0  0  0  0  0  0
   64.8790   31.8818   52.0654 C   0  0  0  0  0  0  0  0  0  0  0  0
   65.3668   31.8335   50.6295 C   0  0  0  0  0  0  0  0  0  0  0  0
   64.6672   32.9827   49.9208 C   0  0  0  0  0  0  0  0  0  0  0  0
  1  2  2  0
  2  3  1  0
  3  4  2  0
  4 11  1  0
 11 12  1  0
 12 13  1  0
 13 14  2  0
 13 15  1  0
 15 16  1  0
 16 17  1  0
  3  5  1  0
  5  6  2  0
  6  7  1  0
  6  8  1  0
  8  9  1  0
  9 10  2  0
  9 18  1  0
 18 19  1  0
 19 20  1  0
 20 21  1  0
 21 25  1  0
 25 26  1  0
 26 27  1  0
 27 28  1  0
 28 29  1  0
 21 22  1  0
 22 23  1  0
  8  2  1  0
 23 18  1  0
 16 11  2  0
 29 25  1  0
 18 24  1  0
M  CHG 1  12  -1
M  CHG 1  15  -1
M  CHG 1  17  -1
M  CHG 1  18   1
M  END
> <UniqueID>
70

> <SMILES>
C=c1/c(=C\c2[n-]c(=O)[n-]c2[O-])cc(C)n1C(=O)[NH+]1CCN(C2CCCC2)CC1

> <Energy>
147.4390155673101

> <Genealogy>
C=c1c(=Cc2[n-]c(=O)[n-]c2[O-])cc(C)n1C(=O)[NH+]1CCN(C2CCCC2)CC1 (protonated)
C=c1/c(=C\c2[n-]c(=O)[n-]c2[O-])cc(C)n1C(=O)[NH+]1CCN(C2CCCC2)CC1 (cis-trans isomerization)
C=c1/c(=C\c2[n-]c(=O)[n-]c2[O-])cc(C)n1C(=O)[NH+]1CCN(C2CCCC2)CC1 (3D coordinates assigned)
C=c1/c(=C\c2[n-]c(=O)[n-]c2[O-])cc(C)n1C(=O)[NH+]1CCN(C2CCCC2)CC1 (nonaromatic ring conformer: 147.4390155673101 kcal/mol)

> <smiles>
C=c1c(=Cc2[nH]c(=O)[nH]c2O)cc(C)n1C(=O)N1CCN(C2CCCC2)CC1

> <score_type>
oracle

> <origin>
adg

> <m_score__min__energy>
-15.74

> <m_primary>
energy

> <minimizedAffinity>
-7.19727

> <minimizedRMSD>
2.70763

> <CNNscore>
0.1052573323

> <CNNaffinity>
6.0981063843

> <CNN_VS>
0.6418704391

> <CNNaffinity_variance>
0.1865341514

$$$$
0:0


 32 35  0  0  0  0  0  0  0  0999 V2000
   60.4727   27.2750   47.6267 C   0  0  0  0  0  0  0  0  0  0  0  0
   60.9140   26.3419   48.3564 O   0  0  0  0  0  0  0  0  0  0  0  0
   60.3731   28.6113   48.1634 N   0  0  0  0  0  0  0  0  0  0  0  0
   60.3019   29.7682   47.2549 C   0  0  0  0  0  0  0  0  0  0  0  0
   60.5746   31.0887   47.9842 C   0  0  0  0  0  0  0  0  0  0  0  0
   59.7729   31.1773   49.2124 N   0  0  0  0  0  0  0  0  0  0  0  0
   59.2179   32.4341   49.6567 C   0  0  0  0  0  0  0  0  0  0  0  0
   58.2409   32.4300   50.4561 O   0  0  0  0  0  0  0  0  0  0  0  0
   59.5786   29.9852   50.0526 C   0  0  0  0  0  0  0  0  0  0  0  0
   60.4794   28.8263   49.6132 C   0  0  0  0  0  0  0  0  0  0  0  0
   60.1083   26.9839   46.1912 C   0  0  0  0  0  0  0  0  0  0  0  0
   55.4607   25.2833   45.7522 C   0  0  0  0  0  0  0  0  0  0  0  0
   56.7791   25.4130   45.9154 C   0  0  0  0  0  0  0  0  0  0  0  0
   57.5831   24.3750   45.8438 O   0  0  0  0  0  0  0  0  0  0  0  0
   58.8264   24.7813   45.9315 C   0  0  0  0  0  0  0  0  0  0  0  0
   58.8580   26.1528   46.0782 C   0  0  0  0  0  0  0  0  0  0  0  0
   57.5332   26.5829   46.0971 C   0  0  0  0  0  0  0  0  0  0  0  0
   57.1468   27.8670   46.2508 C   0  0  0  0  0  0  0  0  0  0  0  0
   57.3470   28.9420   45.2686 C   0  0  0  0  0  0  0  0  0  0  0  0
   58.5322   29.5353   45.0481 N   0  0  0  0  0  0  0  0  0  0  0  0
   58.2255   30.5336   44.1899 C   0  0  0  0  0  0  0  0  0  0  0  0
   59.0930   31.3180   43.7258 O   0  0  0  0  0  0  0  0  0  0  0  0
   56.9155   30.6310   43.8780 N   0  0  0  0  0  0  0  0  0  0  0  0
   56.3708   29.6268   44.5818 C   0  0  0  0  0  0  0  0  0  0  0  0
   55.0076   29.3588   44.6150 O   0  0  0  0  0  0  0  0  0  0  0  0
   59.7474   33.7507   49.1473 C   0  0  0  0  0  0  0  0  0  0  0  0
   59.3452   33.9957   47.7157 C   0  0  0  0  0  0  0  0  0  0  0  0
   58.1261   33.4963   47.2278 C   0  0  0  0  0  0  0  0  0  0  0  0
   57.7641   33.6992   45.8930 C   0  0  0  0  0  0  0  0  0  0  0  0
   58.6200   34.3944   45.0340 C   0  0  0  0  0  0  0  0  0  0  0  0
   59.8408   34.8845   45.5082 C   0  0  0  0  0  0  0  0  0  0  0  0
   60.2058   34.6824   46.8432 C   0  0  0  0  0  0  0  0  0  0  0  0
 12 13  2  0
 13 14  1  0
 14 15  1  0
 15 16  2  0
 16 11  1  0
 11  1  1  0
  1  2  2  0
  1  3  1  0
  3  4  1  0
  4  5  1  0
  5  6  1  0
  6  7  1  0
  7  8  2  0
  7 26  1  0
 26 27  1  0
 27 28  2  0
 28 29  1  0
 29 30  2  0
 30 31  1  0
 31 32  2  0
  6  9  1  0
  9 10  1  0
 16 17  1  0
 17 18  2  0
 18 19  1  0
 19 20  1  0
 20 21  1  0
 21 22  2  0
 21 23  1  0
 23 24  1  0
 24 25  1  0
 17 13  1  0
 24 19  2  0
 10  3  1  0
 32 27  1  0
M  CHG 1  20  -1
M  CHG 1  23  -1
M  CHG 1  25  -1
M  END
> <UniqueID>
1

> <SMILES>
C=c1occ(CC(=O)N2CCN(C(=O)Cc3ccccc3)CC2)c1=Cc1[n-]c(=O)[n-]c1[O-]

> <Energy>
126.37737761045217

> <Genealogy>
C=c1occ(CC(=O)N2CCN(C(=O)Cc3ccccc3)CC2)c1=Cc1[n-]c(=O)[n-]c1[O-] (protonated)
C=c1occ(CC(=O)N2CCN(C(=O)Cc3ccccc3)CC2)c1=Cc1[n-]c(=O)[n-]c1[O-] (3D coordinates assigned)
C=c1occ(CC(=O)N2CCN(C(=O)Cc3ccccc3)CC2)c1=Cc1[n-]c(=O)[n-]c1[O-] (nonaromatic ring conformer: 126.37737761045217 kcal/mol)

> <smiles>
C=c1occ(CC(=O)N2CCN(C(=O)Cc3ccccc3)CC2)c1=Cc1[nH]c(=O)[nH]c1O

> <score_type>
oracle

> <origin>
adg

> <m_score__min__energy>
-18.280000000000001

> <m_primary>
energy

> <minimizedAffinity>
-5.64437

> <minimizedRMSD>
1.54569

> <CNNscore>
0.3670758605

> <CNNaffinity>
6.5262680054

> <CNN_VS>
2.3956353664

> <CNNaffinity_variance>
0.1445528418

$$$$
25:0


 27 29  0  0  0  0  0  0  0  0999 V2000
   55.9963   29.4498   53.0942 N   0  0  0  0  0  0  0  0  0  0  0  0
   56.6912   30.5413   52.4657 C   0  0  0  0  0  0  0  0  0  0  0  0
   56.1605   31.6835   52.4369 O   0  0  0  0  0  0  0  0  0  0  0  0
   58.0123   30.3481   51.8434 C   0  0  0  0  0  0  0  0  0  0  0  0
   59.1857   30.1350   52.5665 C   0  0  0  0  0  0  0  0  0  0  0  0
   60.4540   30.0099   51.4703 S   0  0  0  0  0  0  0  0  0  0  0  0
   59.4621   30.2183   50.1291 C   0  0  0  0  0  0  0  0  0  0  0  0
   58.1754   30.4072   50.4928 N   0  0  0  0  0  0  0  0  0  0  0  0
   59.9415   30.3042   48.7167 C   0  0  0  0  0  0  0  0  0  0  0  0
   59.7499   31.7003   48.1934 C   0  0  0  0  0  0  0  0  0  0  0  0
   60.3359   32.7920   48.8558 C   0  0  0  0  0  0  0  0  0  0  0  0
   60.1276   34.0932   48.3886 C   0  0  0  0  0  0  0  0  0  0  0  0
   59.3262   34.3141   47.2642 C   0  0  0  0  0  0  0  0  0  0  0  0
   58.7296   33.2349   46.6090 C   0  0  0  0  0  0  0  0  0  0  0  0
   58.9350   31.9316   47.0731 C   0  0  0  0  0  0  0  0  0  0  0  0
   55.9619   27.2275   54.2171 C   0  0  0  0  0  0  0  0  0  0  0  0
   56.7911   28.4508   53.8304 C   0  0  0  0  0  0  0  0  0  0  0  0
   54.6163   29.1596   52.6756 C   0  0  0  0  0  0  0  0  0  0  0  0
   53.6218   29.8693   53.5534 C   0  0  0  0  0  0  0  0  0  0  0  0
   53.7329   29.8792   54.8956 N   0  0  0  0  0  0  0  0  0  0  0  0
   52.6451   30.5608   55.3015 C   0  0  0  0  0  0  0  0  0  0  0  0
   52.3962   30.7837   56.5148 O   0  0  0  0  0  0  0  0  0  0  0  0
   51.8452   30.9828   54.3051 N   0  0  0  0  0  0  0  0  0  0  0  0
   52.4616   30.5462   53.1909 C   0  0  0  0  0  0  0  0  0  0  0  0
   51.9233   30.8124   51.8419 C   0  0  0  0  0  0  0  0  0  0  0  0
   51.7171   29.8493   51.0582 O   0  0  0  0  0  0  0  0  0  0  0  0
   51.6186   32.0991   51.4203 O   0  0  0  0  0  0  0  0  0  0  0  0
 16 17  1  0
 17  1  1  0
  1 18  1  0
 18 19  1  0
 19 20  1  0
 20 21  1  0
 21 22  2  0
 21 23  1  0
 23 24  1  0
 24 25  1  0
 25 26  2  0
 25 27  1  0
  1  2  1  0
  2  3  2  0
  2  4  1  0
  4  5  2  0
  5  6  1  0
  6  7  1  0
  7  9  1  0
  9 10  1  0
 10 11  2  0
 11 12  1  0
 12 13  2  0
 13 14  1  0
 14 15  2  0
  7  8  2  0
 24 19  2  0
  8  4  1  0
 15 10  1  0
M  CHG 1  20  -1
M  CHG 1  23  -1
M  CHG 1  27  -1
M  END
> <UniqueID>
24

> <SMILES>
CCN(Cc1[n-]c(=O)[n-]c1C(=O)[O-])C(=O)c1csc(Cc2ccccc2)n1

> <Energy>
102.18014802478852

> <Genealogy>
CCN(Cc1[n-]c(=O)[n-]c1C(=O)[O-])C(=O)c1csc(Cc2ccccc2)n1 (protonated)
CCN(Cc1[n-]c(=O)[n-]c1C(=O)[O-])C(=O)c1csc(Cc2ccccc2)n1 (3D coordinates assigned)
CCN(Cc1[n-]c(=O)[n-]c1C(=O)[O-])C(=O)c1csc(Cc2ccccc2)n1 (optimized conformer: 102.18014802478852 kcal/mol)

> <smiles>
CCN(Cc1[nH]c(=O)[nH]c1C(=O)O)C(=O)c1csc(Cc2ccccc2)n1

> <score_type>
oracle

> <origin>
adg

> <m_score__min__energy>
-15.34

> <m_primary>
energy

> <minimizedAffinity>
-5.84369

> <minimizedRMSD>
2.28015

> <CNNscore>
0.1249260604

> <CNNaffinity>
5.2168483734

> <CNN_VS>
0.6517202854

> <CNNaffinity_variance>
0.0087219188

$$$$
29:0


 27 29  0  0  0  0  0  0  0  0999 V2000
   59.6938   23.9164   45.9047 C   0  0  0  0  0  0  0  0  0  0  0  0
   59.2184   25.1624   45.7484 C   0  0  0  0  0  0  0  0  0  0  0  0
   59.9839   26.1702   46.2526 N   0  0  0  0  0  0  0  0  0  0  0  0
   59.6196   27.4733   46.2074 C   0  0  0  0  0  0  0  0  0  0  0  0
   58.4135   27.8412   45.6154 C   0  0  0  0  0  0  0  0  0  0  0  0
   57.6025   26.8445   45.0625 C   0  0  0  0  0  0  0  0  0  0  0  0
   57.9654   25.4773   45.1244 C   0  0  0  0  0  0  0  0  0  0  0  0
   57.1653   24.5270   44.5691 C   0  0  0  0  0  0  0  0  0  0  0  0
   58.0076   29.2605   45.5431 C   0  0  0  0  0  0  0  0  0  0  0  0
   56.7857   29.5345   45.3930 O   0  0  0  0  0  0  0  0  0  0  0  0
   58.9703   30.3278   45.6853 N   0  0  0  0  0  0  0  0  0  0  0  0
   60.1732   30.1378   46.5075 C   0  0  0  0  0  0  0  0  0  0  0  0
   60.5831   31.4401   47.2267 C   0  0  0  0  0  0  0  0  0  0  0  0
   59.4266   32.2832   47.6123 N   0  0  0  0  0  0  0  0  0  0  0  0
   58.3948   32.5221   46.5698 C   0  0  0  0  0  0  0  0  0  0  0  0
   58.6228   31.6957   45.3030 C   0  0  0  0  0  0  0  0  0  0  0  0
   58.8862   32.0398   48.9675 C   0  0  0  0  0  0  0  0  0  0  0  0
   59.9356   32.1598   50.0816 C   0  0  0  0  0  0  0  0  0  0  0  0
   60.0012   30.9415   50.7905 O   0  0  0  0  0  0  0  0  0  0  0  0
   58.8503   30.1756   50.5097 C   0  0  0  0  0  0  0  0  0  0  0  0
   55.9489   23.9533   45.1872 C   0  0  0  0  0  0  0  0  0  0  0  0
   55.5674   22.6639   45.0987 N   0  0  0  0  0  0  0  0  0  0  0  0
   54.3601   22.6529   45.7033 C   0  0  0  0  0  0  0  0  0  0  0  0
   53.6755   21.6046   45.8317 O   0  0  0  0  0  0  0  0  0  0  0  0
   53.9374   23.8554   46.1472 N   0  0  0  0  0  0  0  0  0  0  0  0
   54.9487   24.6666   45.8014 C   0  0  0  0  0  0  0  0  0  0  0  0
   54.9558   26.0354   46.0398 O   0  0  0  0  0  0  0  0  0  0  0  0
  1  2  2  0
  2  3  1  0
  3  4  2  0
  4  5  1  0
  5  9  1  0
  9 10  2  0
  9 11  1  0
 11 12  1  0
 12 13  1  0
 13 14  1  0
 14 17  1  0
 17 18  1  0
 18 19  1  0
 19 20  1  0
 14 15  1  0
 15 16  1  0
  5  6  2  0
  6  7  1  0
  7  8  2  0
  8 21  1  0
 21 22  1  0
 22 23  1  0
 23 24  2  0
 23 25  1  0
 25 26  1  0
 26 27  1  0
  7  2  1  0
 26 21  2  0
 16 11  1  0
M  CHG 1  22  -1
M  CHG 1  25  -1
M  CHG 1  27  -1
M  END
> <UniqueID>
28

> <SMILES>
C=c1ncc(C(=O)N2CCN(CCOC)CC2)cc1=Cc1[n-]c(=O)[n-]c1[O-]

> <Energy>
107.40307590265746

> <Genealogy>
C=c1ncc(C(=O)N2CCN(CCOC)CC2)cc1=Cc1[n-]c(=O)[n-]c1[O-] (protonated)
C=c1ncc(C(=O)N2CCN(CCOC)CC2)cc1=Cc1[n-]c(=O)[n-]c1[O-] (3D coordinates assigned)
C=c1ncc(C(=O)N2CCN(CCOC)CC2)cc1=Cc1[n-]c(=O)[n-]c1[O-] (nonaromatic ring conformer: 107.40307590265746 kcal/mol)

> <smiles>
C=c1ncc(C(=O)N2CCN(CCOC)CC2)cc1=Cc1[nH]c(=O)[nH]c1O

> <score_type>
oracle

> <origin>
adg

> <m_score__min__energy>
-16.059999999999999

> <m_primary>
energy

> <minimizedAffinity>
-5.97569

> <minimizedRMSD>
0.95014

> <CNNscore>
0.0329138748

> <CNNaffinity>
5.2445349693

> <CNN_VS>
0.1726179719

> <CNNaffinity_variance>
0.0458442979

$$$$
34:0


 33 36  0  0  0  0  0  0  0  0999 V2000
   59.0049   28.4945   44.6417 C   0  0  0  0  0  0  0  0  0  0  0  0
   60.2452   28.6940   44.7324 O   0  0  0  0  0  0  0  0  0  0  0  0
   57.8171   24.8109   47.5598 C   0  0  0  0  0  0  0  0  0  0  0  0
   57.8202   25.5886   46.4646 C   0  0  0  0  0  0  0  0  0  0  0  0
   57.5283   25.1814   45.1547 C   0  0  0  0  0  0  0  0  0  0  0  0
   56.9536   24.0561   44.6855 C   0  0  0  0  0  0  0  0  0  0  0  0
   57.9472   26.2071   44.3299 C   0  0  0  0  0  0  0  0  0  0  0  0
   58.4139   27.2239   45.1432 C   0  0  0  0  0  0  0  0  0  0  0  0
   58.2968   26.8631   46.4467 N   0  0  0  0  0  0  0  0  0  0  0  0
   58.6794   27.6757   47.6097 C   0  0  0  0  0  0  0  0  0  0  0  0
   55.7077   23.4544   45.1908 C   0  0  0  0  0  0  0  0  0  0  0  0
   55.4877   22.1329   45.3152 N   0  0  0  0  0  0  0  0  0  0  0  0
   54.2866   22.0733   45.9291 C   0  0  0  0  0  0  0  0  0  0  0  0
   53.7226   20.9846   46.2101 O   0  0  0  0  0  0  0  0  0  0  0  0
   53.7417   23.2737   46.2281 N   0  0  0  0  0  0  0  0  0  0  0  0
   54.6618   24.1351   45.7646 C   0  0  0  0  0  0  0  0  0  0  0  0
   54.5486   25.5156   45.8706 O   0  0  0  0  0  0  0  0  0  0  0  0
   58.1596   29.5430   43.9713 C   0  0  0  0  0  0  0  0  0  0  0  0
   57.2784   30.3104   44.9715 C   0  0  0  0  0  0  0  0  0  0  0  0
   58.0792   31.1895   45.9454 C   0  0  0  0  0  0  0  0  0  0  0  0
   57.6140   32.5950   45.8969 N   0  0  0  0  0  0  0  0  0  0  0  0
   57.7692   33.2847   47.1935 C   0  0  0  0  0  0  0  0  0  0  0  0
   59.2525   33.5248   47.5564 C   0  0  0  0  0  0  0  0  0  0  0  0
   60.1214   33.4671   46.3633 N   0  0  0  0  0  0  0  0  0  0  0  0
   59.5008   34.1302   45.2061 C   0  0  0  0  0  0  0  0  0  0  0  0
   58.2253   33.3677   44.7866 C   0  0  0  0  0  0  0  0  0  0  0  0
   61.5128   33.9008   46.6258 C   0  0  0  0  0  0  0  0  0  0  0  0
   62.1997   33.1331   47.7374 C   0  0  0  0  0  0  0  0  0  0  0  0
   61.6367   31.9458   48.2356 C   0  0  0  0  0  0  0  0  0  0  0  0
   62.2714   31.2410   49.2645 C   0  0  0  0  0  0  0  0  0  0  0  0
   63.4661   31.7201   49.8077 C   0  0  0  0  0  0  0  0  0  0  0  0
   64.0265   32.9066   49.3281 C   0  0  0  0  0  0  0  0  0  0  0  0
   63.3947   33.6137   48.3001 C   0  0  0  0  0  0  0  0  0  0  0  0
  3  4  2  0
  4  5  1  0
  5  6  2  0
  6 11  1  0
 11 12  1  0
 12 13  1  0
 13 14  2  0
 13 15  1  0
 15 16  1  0
 16 17  1  0
  5  7  1  0
  7  8  2  0
  8  1  1  0
  1  2  2  0
  1 18  1  0
 18 19  1  0
 19 20  1  0
 20 21  1  0
 21 22  1  0
 22 23  1  0
 23 24  1  0
 24 27  1  0
 27 28  1  0
 28 29  2  0
 29 30  1  0
 30 31  2  0
 31 32  1  0
 32 33  2  0
 24 25  1  0
 25 26  1  0
  8  9  1  0
  9 10  1  0
  9  4  1  0
 16 11  2  0
 26 21  1  0
 33 28  1  0
M  CHG 1  12  -1
M  CHG 1  15  -1
M  CHG 1  17  -1
M  END
> <UniqueID>
32

> <SMILES>
C=c1/c(=C\c2[n-]c(=O)[n-]c2[O-])cc(C(=O)CCCN2CCN(Cc3ccccc3)CC2)n1C

> <Energy>
146.10455516041563

> <Genealogy>
C=c1c(=Cc2[n-]c(=O)[n-]c2[O-])cc(C(=O)CCCN2CCN(Cc3ccccc3)CC2)n1C (protonated)
C=c1/c(=C\c2[n-]c(=O)[n-]c2[O-])cc(C(=O)CCCN2CCN(Cc3ccccc3)CC2)n1C (cis-trans isomerization)
C=c1/c(=C\c2[n-]c(=O)[n-]c2[O-])cc(C(=O)CCCN2CCN(Cc3ccccc3)CC2)n1C (3D coordinates assigned)
C=c1/c(=C\c2[n-]c(=O)[n-]c2[O-])cc(C(=O)CCCN2CCN(Cc3ccccc3)CC2)n1C (nonaromatic ring conformer: 146.10455516041563 kcal/mol)

> <smiles>
C=c1c(=Cc2[nH]c(=O)[nH]c2O)cc(C(=O)CCCN2CCN(Cc3ccccc3)CC2)n1C

> <score_type>
oracle

> <origin>
adg

> <m_score__min__energy>
-19.239999999999998

> <m_primary>
energy

> <minimizedAffinity>
-7.70549

> <minimizedRMSD>
1.17842

> <CNNscore>
0.0580112711

> <CNNaffinity>
5.3552803993

> <CNN_VS>
0.3106666207

> <CNNaffinity_variance>
1.4135240316

$$$$
46:0


 31 35  0  0  0  0  0  0  0  0999 V2000
   56.2390   28.3064   53.9042 C   0  0  0  0  0  0  0  0  0  0  0  0
   56.3786   29.5759   53.4888 C   0  0  0  0  0  0  0  0  0  0  0  0
   55.3544   30.3890   52.9770 C   0  0  0  0  0  0  0  0  0  0  0  0
   54.0146   30.2404   52.9887 C   0  0  0  0  0  0  0  0  0  0  0  0
   55.9746   31.4864   52.4160 C   0  0  0  0  0  0  0  0  0  0  0  0
   57.3238   31.3564   52.6645 C   0  0  0  0  0  0  0  0  0  0  0  0
   57.5829   30.2058   53.3387 N   0  0  0  0  0  0  0  0  0  0  0  0
   58.3362   32.3185   52.1796 C   0  0  0  0  0  0  0  0  0  0  0  0
   58.4887   33.4058   52.8001 O   0  0  0  0  0  0  0  0  0  0  0  0
   59.1854   32.0135   51.0526 N   0  0  0  0  0  0  0  0  0  0  0  0
   58.9773   30.7776   50.2790 C   0  0  0  0  0  0  0  0  0  0  0  0
   59.2797   31.0055   48.8009 C   0  0  0  0  0  0  0  0  0  0  0  0
   60.6627   31.5637   48.6443 C   0  0  0  0  0  0  0  0  0  0  0  0
   61.4494   31.2124   47.5351 C   0  0  0  0  0  0  0  0  0  0  0  0
   62.7269   31.7584   47.3803 C   0  0  0  0  0  0  0  0  0  0  0  0
   63.2183   32.6667   48.3204 C   0  0  0  0  0  0  0  0  0  0  0  0
   62.4341   33.0334   49.4175 C   0  0  0  0  0  0  0  0  0  0  0  0
   61.1543   32.4806   49.5906 C   0  0  0  0  0  0  0  0  0  0  0  0
   60.2986   32.9331   50.7514 C   0  0  0  0  0  0  0  0  0  0  0  0
   53.1228   30.4087   51.8296 C   0  0  0  0  0  0  0  0  0  0  0  0
   53.1397   29.6337   50.7290 N   0  0  0  0  0  0  0  0  0  0  0  0
   52.0760   30.0732   50.0224 C   0  0  0  0  0  0  0  0  0  0  0  0
   51.7625   29.5939   48.9011 O   0  0  0  0  0  0  0  0  0  0  0  0
   51.3682   31.0582   50.6163 N   0  0  0  0  0  0  0  0  0  0  0  0
   52.0373   31.2475   51.7648 C   0  0  0  0  0  0  0  0  0  0  0  0
   51.6597   32.1640   52.7374 O   0  0  0  0  0  0  0  0  0  0  0  0
   58.9233   29.7821   53.8070 C   0  0  0  0  0  0  0  0  0  0  0  0
   59.7476   30.9374   54.3820 C   0  0  0  0  0  0  0  0  0  0  0  0
   61.1332   30.8425   53.7462 C   0  0  0  0  0  0  0  0  0  0  0  0
   61.1981   29.4988   53.0293 C   0  0  0  0  0  0  0  0  0  0  0  0
   59.7618   29.1187   52.7127 C   0  0  0  0  0  0  0  0  0  0  0  0
  1  2  2  0
  2  3  1  0
  3  4  2  0
  4 20  1  0
 20 21  1  0
 21 22  1  0
 22 23  2  0
 22 24  1  0
 24 25  1  0
 25 26  1  0
  3  5  1  0
  5  6  2  0
  6  8  1  0
  8  9  2  0
  8 10  1  0
 10 11  1  0
 11 12  1  0
 12 13  1  0
 13 14  2  0
 14 15  1  0
 15 16  2  0
 16 17  1  0
 17 18  2  0
 18 19  1  0
  6  7  1  0
  7 27  1  0
 27 28  1  0
 28 29  1  0
 29 30  1  0
 30 31  1  0
  7  2  1  0
 31 27  1  0
 25 20  2  0
 19 10  1  0
 18 13  1  0
M  CHG 1  21  -1
M  CHG 1  24  -1
M  CHG 1  26  -1
M  END
> <UniqueID>
43

> <SMILES>
C=c1c(=Cc2[n-]c(=O)[n-]c2[O-])cc(C(=O)N2CCc3ccccc3C2)n1C1CCCC1

> <Energy>
139.20493030529616

> <Genealogy>
C=c1c(=Cc2[n-]c(=O)[n-]c2[O-])cc(C(=O)N2CCc3ccccc3C2)n1C1CCCC1 (protonated)
C=c1c(=Cc2[n-]c(=O)[n-]c2[O-])cc(C(=O)N2CCc3ccccc3C2)n1C1CCCC1 (3D coordinates assigned)
C=c1c(=Cc2[n-]c(=O)[n-]c2[O-])cc(C(=O)N2CCc3ccccc3C2)n1C1CCCC1 (nonaromatic ring conformer: 139.20493030529616 kcal/mol)

> <smiles>
C=c1c(=Cc2[nH]c(=O)[nH]c2O)cc(C(=O)N2CCc3ccccc3C2)n1C1CCCC1

> <score_type>
oracle

> <origin>
adg

> <m_score__min__energy>
-17.629999999999999

> <m_primary>
energy

> <minimizedAffinity>
-6.57109

> <minimizedRMSD>
1.39222

> <CNNscore>
0.0712978914

> <CNNaffinity>
5.3188838959

> <CNN_VS>
0.3792251945

> <CNNaffinity_variance>
0.1887367219

$$$$
60:0


 32 35  0  0  0  0  0  0  0  0999 V2000
   59.5293   32.5698   47.2151 C   0  0  0  0  0  0  0  0  0  0  0  0
   58.8313   33.3217   48.1670 C   0  0  0  0  0  0  0  0  0  0  0  0
   59.5383   34.1247   49.0608 C   0  0  0  0  0  0  0  0  0  0  0  0
   60.8961   34.1750   49.0049 N   0  0  0  0  0  0  0  0  0  0  0  0
   61.6141   33.4600   48.0959 C   0  0  0  0  0  0  0  0  0  0  0  0
   62.9132   33.5690   48.1072 N   0  0  0  0  0  0  0  0  0  0  0  0
   60.9292   32.6385   47.1763 C   0  0  0  0  0  0  0  0  0  0  0  0
   59.1075   29.6373   47.3819 C   0  0  0  0  0  0  0  0  0  0  0  0
   58.5650   30.3994   46.4186 C   0  0  0  0  0  0  0  0  0  0  0  0
   57.8257   29.9578   45.3092 C   0  0  0  0  0  0  0  0  0  0  0  0
   57.2753   28.7583   45.0351 C   0  0  0  0  0  0  0  0  0  0  0  0
   57.7141   31.0465   44.4601 C   0  0  0  0  0  0  0  0  0  0  0  0
   58.3049   32.1158   45.1005 C   0  0  0  0  0  0  0  0  0  0  0  0
   58.3766   33.5050   44.5414 C   0  0  0  0  0  0  0  0  0  0  0  0
   58.8220   31.7276   46.2874 N   0  0  0  0  0  0  0  0  0  0  0  0
   57.8123   27.4544   45.4558 C   0  0  0  0  0  0  0  0  0  0  0  0
   59.1199   27.1456   45.5125 N   0  0  0  0  0  0  0  0  0  0  0  0
   59.1264   25.9179   46.0793 C   0  0  0  0  0  0  0  0  0  0  0  0
   60.1870   25.2743   46.2892 O   0  0  0  0  0  0  0  0  0  0  0  0
   57.9073   25.4409   46.4103 N   0  0  0  0  0  0  0  0  0  0  0  0
   57.0892   26.4332   46.0218 C   0  0  0  0  0  0  0  0  0  0  0  0
   55.7096   26.4061   46.1868 O   0  0  0  0  0  0  0  0  0  0  0  0
   63.8934   32.4885   48.2340 C   0  0  0  0  0  0  0  0  0  0  0  0
   64.5385   32.5003   49.6282 C   0  0  0  0  0  0  0  0  0  0  0  0
   63.7549   31.6824   50.6749 C   0  0  0  0  0  0  0  0  0  0  0  0
   62.3414   32.1173   50.8120 N   0  0  0  0  0  0  0  0  0  0  0  0
   62.0406   32.7173   52.1287 C   0  0  0  0  0  0  0  0  0  0  0  0
   60.7242   32.1237   52.6423 C   0  0  0  0  0  0  0  0  0  0  0  0
   60.5218   30.8344   51.8723 C   0  0  0  0  0  0  0  0  0  0  0  0
   61.4549   30.9899   50.7378 C   0  0  0  0  0  0  0  0  0  0  0  0
   61.4266   30.2445   49.7699 O   0  0  0  0  0  0  0  0  0  0  0  0
   63.0649   32.2468   51.4670 H   0  0  0  0  0  0  0  0  0  0  0  0
  8  9  2  0
  9 10  1  0
 10 11  2  0
 11 16  1  0
 16 17  1  0
 17 18  1  0
 18 19  2  0
 18 20  1  0
 20 21  1  0
 21 22  1  0
 10 12  1  0
 12 13  2  0
 13 14  1  0
 13 15  1  0
 15  1  1  0
  1  2  1  0
  2  3  2  0
  3  4  1  0
  4  5  1  0
  5  6  2  0
  6 23  1  0
 23 24  1  0
 24 25  1  0
 26 25  1  0
 26 27  1  0
 27 28  1  0
 28 29  1  0
 29 30  1  0
 30 31  2  0
  5  7  1  0
 15  9  1  0
  7  1  2  0
 21 16  2  0
 30 26  1  0
 26 32  1  0
M  CHG 1   4  -1
M  CHG 1  17  -1
M  CHG 1  20  -1
M  CHG 1  22  -1
M  CHG 1  26   1
M  END
> <UniqueID>
56

> <SMILES>
C=c1c(=Cc2[n-]c(=O)[n-]c2[O-])cc(C)n1-c1cc[n-]c(=NCCC[N@@H+]2CCCC2=O)c1

> <Energy>
136.55390741639428

> <Genealogy>
C=c1c(=Cc2[n-]c(=O)[n-]c2[O-])cc(C)n1-c1cc[n-]c(=NCCC[NH+]2CCCC2=O)c1 (protonated)
C=c1c(=Cc2[n-]c(=O)[n-]c2[O-])cc(C)n1-c1cc[n-]c(=NCCC[N@@H+]2CCCC2=O)c1 (chirality)
C=c1c(=Cc2[n-]c(=O)[n-]c2[O-])cc(C)n1-c1cc[n-]c(=NCCC[N@@H+]2CCCC2=O)c1 (3D coordinates assigned)
C=c1c(=Cc2[n-]c(=O)[n-]c2[O-])cc(C)n1-c1cc[n-]c(=NCCC[N@@H+]2CCCC2=O)c1 (nonaromatic ring conformer: 136.55390741639428 kcal/mol)

> <smiles>
C=c1c(=Cc2[nH]c(=O)[nH]c2O)cc(C)n1-c1cc[nH]c(=NCCCN2CCCC2=O)c1

> <score_type>
oracle

> <origin>
adg

> <m_score__min__energy>
-15.390000000000001

> <m_primary>
energy

> <minimizedAffinity>
-7.31496

> <minimizedRMSD>
1.19860

> <CNNscore>
0.1140694171

> <CNNaffinity>
6.4494194984

> <CNN_VS>
0.7356815338

> <CNNaffinity_variance>
0.1223825589

$$$$
63:0


 39 43  0  0  0  0  0  0  0  0999 V2000
   59.8259   26.6895   47.7557 C   0  0  0  0  0  0  0  0  0  0  0  0
   60.8925   26.7740   49.8907 O   0  0  0  0  0  0  0  0  0  0  0  0
   60.4494   27.4236   48.9069 C   0  0  0  0  0  0  0  0  0  0  0  0
   60.5209   28.8569   48.8981 N   0  0  0  0  0  0  0  0  0  0  0  0
   60.1415   29.3528   48.1370 H   0  0  0  0  0  0  0  0  0  0  0  0
   61.1442   29.5975   49.9939 C   0  0  0  0  0  0  0  0  0  0  0  0
   60.2224   30.6868   50.4923 C   0  0  0  0  0  0  0  0  0  0  0  0
   59.0158   30.3212   51.1180 C   0  0  0  0  0  0  0  0  0  0  0  0
   58.1340   31.2962   51.5890 C   0  0  0  0  0  0  0  0  0  0  0  0
   58.4468   32.6477   51.4520 C   0  0  0  0  0  0  0  0  0  0  0  0
   59.6486   33.0284   50.8533 C   0  0  0  0  0  0  0  0  0  0  0  0
   60.5491   32.0627   50.3720 C   0  0  0  0  0  0  0  0  0  0  0  0
   61.8190   32.5202   49.7622 C   0  0  0  0  0  0  0  0  0  0  0  0
   61.8215   32.8917   48.5584 O   0  0  0  0  0  0  0  0  0  0  0  0
   63.0496   32.5358   50.5154 N   0  0  0  0  0  0  0  0  0  0  0  0
   63.0347   32.5857   51.9816 C   0  0  0  0  0  0  0  0  0  0  0  0
   64.2716   33.3337   52.4919 C   0  0  0  0  0  0  0  0  0  0  0  0
   65.4521   32.7989   51.9242 O   0  0  0  0  0  0  0  0  0  0  0  0
   65.4515   33.0236   50.5263 C   0  0  0  0  0  0  0  0  0  0  0  0
   64.3220   32.2411   49.8514 C   0  0  0  0  0  0  0  0  0  0  0  0
   60.2500   27.2975   46.4160 C   0  0  0  0  0  0  0  0  0  0  0  0
   59.1038   27.9320   45.7680 N   0  0  0  0  0  0  0  0  0  0  0  0
   58.6345   29.1736   45.9649 C   0  0  0  0  0  0  0  0  0  0  0  0
   59.2346   30.1266   46.7809 O   0  0  0  0  0  0  0  0  0  0  0  0
   57.4781   29.3373   45.2320 C   0  0  0  0  0  0  0  0  0  0  0  0
   57.2074   28.1969   44.5594 N   0  0  0  0  0  0  0  0  0  0  0  0
   58.2119   27.3685   44.9221 C   0  0  0  0  0  0  0  0  0  0  0  0
   58.2989   26.1794   44.5124 O   0  0  0  0  0  0  0  0  0  0  0  0
   56.6667   30.5878   45.1157 C   0  0  0  0  0  0  0  0  0  0  0  0
   57.5382   31.7235   44.6789 C   0  0  0  0  0  0  0  0  0  0  0  0
   57.8383   32.0850   43.3682 C   0  0  0  0  0  0  0  0  0  0  0  0
   58.5855   33.2121   43.3498 N   0  0  0  0  0  0  0  0  0  0  0  0
   58.7495   33.5709   44.6354 C   0  0  0  0  0  0  0  0  0  0  0  0
   59.4329   34.6847   45.1220 C   0  0  0  0  0  0  0  0  0  0  0  0
   59.4624   34.8813   46.5155 C   0  0  0  0  0  0  0  0  0  0  0  0
   58.8087   33.9756   47.3791 C   0  0  0  0  0  0  0  0  0  0  0  0
   58.1226   32.8633   46.8603 C   0  0  0  0  0  0  0  0  0  0  0  0
   58.1187   32.6903   45.4764 C   0  0  0  0  0  0  0  0  0  0  0  0
   58.9380   33.6759   42.5561 H   0  0  0  0  0  0  0  0  0  0  0  0
  2  3  2  0
  3  1  1  0
  1 21  1  0
 21 22  1  0
 22 23  1  0
 23 24  1  0
 23 25  2  0
 25 29  1  0
 29 30  1  0
 30 31  2  0
 31 32  1  0
 32 33  1  0
 33 34  2  0
 34 35  1  0
 35 36  2  0
 36 37  1  0
 37 38  2  0
 25 26  1  0
 26 27  1  0
 27 28  2  0
  3  4  1  0
  4  6  1  0
  6  7  1  0
  7  8  2  0
  8  9  1  0
  9 10  2  0
 10 11  1  0
 11 12  2  0
 12 13  1  0
 13 14  2  0
 13 15  1  0
 15 16  1  0
 16 17  1  0
 17 18  1  0
 18 19  1  0
 19 20  1  0
 27 22  1  0
 12  7  1  0
 20 15  1  0
 38 30  1  0
 38 33  1  0
 32 39  1  0
  4  5  1  0
M  CHG 1  24  -1
M  CHG 1  26  -1
M  END
> <UniqueID>
59

> <SMILES>
O=C(CCn1c([O-])c(Cc2c[nH]c3ccccc23)[n-]c1=O)NCc1ccccc1C(=O)N1CCOCC1

> <Energy>
135.12475572072165

> <Genealogy>
O=C(CCn1c([O-])c(Cc2c[nH]c3ccccc23)[n-]c1=O)NCc1ccccc1C(=O)N1CCOCC1 (protonated)
O=C(CCn1c([O-])c(Cc2c[nH]c3ccccc23)[n-]c1=O)NCc1ccccc1C(=O)N1CCOCC1 (3D coordinates assigned)
O=C(CCn1c([O-])c(Cc2c[nH]c3ccccc23)[n-]c1=O)NCc1ccccc1C(=O)N1CCOCC1 (nonaromatic ring conformer: 135.12475572072165 kcal/mol)

> <smiles>
O=C(CCn1c(O)c(Cc2c[nH]c3ccccc23)[nH]c1=O)NCc1ccccc1C(=O)N1CCOCC1

> <score_type>
oracle

> <origin>
adg

> <m_score__min__energy>
-14.300000000000001

> <m_primary>
energy

> <minimizedAffinity>
-6.63740

> <minimizedRMSD>
1.34079

> <CNNscore>
0.4460238218

> <CNNaffinity>
7.1349716187

> <CNN_VS>
3.1823673248

> <CNNaffinity_variance>
0.0869359598

$$$$
86:0


 28 31  0  0  0  0  0  0  0  0999 V2000
   58.0415   28.0889   44.4849 O   0  0  0  0  0  0  0  0  0  0  0  0
   58.3438   28.4555   45.6524 C   0  0  0  0  0  0  0  0  0  0  0  0
   57.9806   27.5877   46.8138 C   0  0  0  0  0  0  0  0  0  0  0  0
   57.7895   26.2113   46.3593 N   0  0  0  0  0  0  0  0  0  0  0  0
   58.7560   25.3138   46.0602 C   0  0  0  0  0  0  0  0  0  0  0  0
   60.1192   25.5480   46.2200 O   0  0  0  0  0  0  0  0  0  0  0  0
   58.1965   24.1540   45.5583 C   0  0  0  0  0  0  0  0  0  0  0  0
   56.8378   24.3535   45.5318 C   0  0  0  0  0  0  0  0  0  0  0  0
   56.6167   25.6276   46.0179 C   0  0  0  0  0  0  0  0  0  0  0  0
   55.3733   26.2433   46.1261 O   0  0  0  0  0  0  0  0  0  0  0  0
   55.8539   23.3634   44.9976 C   0  0  0  0  0  0  0  0  0  0  0  0
   56.5289   22.0666   44.5909 C   0  0  0  0  0  0  0  0  0  0  0  0
   57.8664   21.8710   44.6147 C   0  0  0  0  0  0  0  0  0  0  0  0
   58.8714   22.9221   45.0451 C   0  0  0  0  0  0  0  0  0  0  0  0
   59.1295   29.6332   45.8781 N   0  0  0  0  0  0  0  0  0  0  0  0
   58.6851   30.9986   45.8338 C   0  0  0  0  0  0  0  0  0  0  0  0
   58.0121   31.5179   44.7121 C   0  0  0  0  0  0  0  0  0  0  0  0
   57.5611   32.8403   44.7071 C   0  0  0  0  0  0  0  0  0  0  0  0
   57.7672   33.6544   45.8213 C   0  0  0  0  0  0  0  0  0  0  0  0
   58.4162   33.1464   46.9512 C   0  0  0  0  0  0  0  0  0  0  0  0
   58.8642   31.8173   46.9717 C   0  0  0  0  0  0  0  0  0  0  0  0
   59.5701   31.3008   48.1641 C   0  0  0  0  0  0  0  0  0  0  0  0
   58.8996   30.7201   49.0623 O   0  0  0  0  0  0  0  0  0  0  0  0
   60.9894   31.4805   48.3371 N   0  0  0  0  0  0  0  0  0  0  0  0
   61.8157   32.3154   47.4791 C   0  0  0  0  0  0  0  0  0  0  0  0
   63.2171   32.2541   48.0707 C   0  0  0  0  0  0  0  0  0  0  0  0
   63.0430   31.7367   49.4956 C   0  0  0  0  0  0  0  0  0  0  0  0
   61.7022   31.0111   49.5138 C   0  0  0  0  0  0  0  0  0  0  0  0
  1  2  2  0
  2  3  1  0
  3  4  1  0
  4  5  1  0
  5  6  1  0
  5  7  2  0
  7  8  1  0
  8  9  2  0
  9 10  1  0
  8 11  1  0
 11 12  1  0
 12 13  2  0
 13 14  1  0
  2 15  1  0
 15 16  1  0
 16 17  2  0
 17 18  1  0
 18 19  2  0
 19 20  1  0
 20 21  2  0
 21 22  1  0
 22 23  2  0
 22 24  1  0
 24 25  1  0
 25 26  1  0
 26 27  1  0
 27 28  1  0
  9  4  1  0
 21 16  1  0
 28 24  1  0
 14  7  1  0
M  CHG 1   6  -1
M  CHG 1  10  -1
M  CHG 1  15  -1
M  END
> <UniqueID>
79

> <SMILES>
O=C(Cn1c([O-])c2c(c1[O-])CC=CC2)[N-]c1ccccc1C(=O)N1CCCC1

> <Energy>
89.54181538454615

> <Genealogy>
O=C(Cn1c([O-])c2c(c1[O-])CC=CC2)[N-]c1ccccc1C(=O)N1CCCC1 (protonated)
O=C(Cn1c([O-])c2c(c1[O-])CC=CC2)[N-]c1ccccc1C(=O)N1CCCC1 (3D coordinates assigned)
O=C(Cn1c([O-])c2c(c1[O-])CC=CC2)[N-]c1ccccc1C(=O)N1CCCC1 (nonaromatic ring conformer: 89.54181538454615 kcal/mol)

> <smiles>
O=C(Cn1c(O)c2c(c1O)CC=CC2)Nc1ccccc1C(=O)N1CCCC1

> <score_type>
oracle

> <origin>
adg

> <m_score__min__energy>
-14.470000000000001

> <m_primary>
energy

> <minimizedAffinity>
-8.53496

> <minimizedRMSD>
0.99381

> <CNNscore>
0.4723042250

> <CNNaffinity>
6.5116119385

> <CNN_VS>
3.0754618645

> <CNNaffinity_variance>
0.0791455507

$$$$
3:0


 30 33  0  0  0  0  0  0  0  0999 V2000
   52.7517   30.5746   55.2370 C   0  0  0  0  0  0  0  0  0  0  0  0
   52.2543   29.4127   54.7887 C   0  0  0  0  0  0  0  0  0  0  0  0
   51.0221   29.1993   54.1454 C   0  0  0  0  0  0  0  0  0  0  0  0
   49.9843   30.0289   53.9198 C   0  0  0  0  0  0  0  0  0  0  0  0
   51.0177   27.8736   53.7451 C   0  0  0  0  0  0  0  0  0  0  0  0
   52.1987   27.3156   54.1898 C   0  0  0  0  0  0  0  0  0  0  0  0
   52.6110   25.8920   53.9695 C   0  0  0  0  0  0  0  0  0  0  0  0
   52.9487   28.2441   54.8174 N   0  0  0  0  0  0  0  0  0  0  0  0
   54.2761   28.0306   55.3279 C   0  0  0  0  0  0  0  0  0  0  0  0
   54.4247   27.3869   56.3999 O   0  0  0  0  0  0  0  0  0  0  0  0
   55.4301   28.5214   54.6189 N   0  0  0  0  0  0  0  0  0  0  0  0
   55.4061   28.6775   53.1552 C   0  0  0  0  0  0  0  0  0  0  0  0
   56.0599   30.0063   52.7519 C   0  0  0  0  0  0  0  0  0  0  0  0
   57.2618   30.2857   53.5525 N   0  0  0  0  0  0  0  0  0  0  0  0
   57.7980   29.2390   54.4337 C   0  0  0  0  0  0  0  0  0  0  0  0
   56.6878   28.7298   55.3559 C   0  0  0  0  0  0  0  0  0  0  0  0
   50.0539   31.4947   53.8479 C   0  0  0  0  0  0  0  0  0  0  0  0
   49.6543   32.3073   54.8404 N   0  0  0  0  0  0  0  0  0  0  0  0
   50.0150   33.5345   54.4013 C   0  0  0  0  0  0  0  0  0  0  0  0
   49.7904   34.5830   55.0607 O   0  0  0  0  0  0  0  0  0  0  0  0
   50.6456   33.5476   53.2074 N   0  0  0  0  0  0  0  0  0  0  0  0
   50.6764   32.2465   52.8779 C   0  0  0  0  0  0  0  0  0  0  0  0
   51.2799   31.7547   51.7263 O   0  0  0  0  0  0  0  0  0  0  0  0
   57.8415   31.6053   53.5248 C   0  0  0  0  0  0  0  0  0  0  0  0
   57.6673   32.4348   52.4045 C   0  0  0  0  0  0  0  0  0  0  0  0
   58.2517   33.7016   52.3863 C   0  0  0  0  0  0  0  0  0  0  0  0
   59.0102   34.1295   53.4736 C   0  0  0  0  0  0  0  0  0  0  0  0
   59.1792   33.2794   54.5659 C   0  0  0  0  0  0  0  0  0  0  0  0
   58.6015   32.0463   54.5712 N   0  0  0  0  0  0  0  0  0  0  0  0
   58.7347   31.4575   55.3489 H   0  0  0  0  0  0  0  0  0  0  0  0
  1  2  2  0
  2  3  1  0
  3  4  2  0
  4 17  1  0
 17 18  1  0
 18 19  1  0
 19 20  2  0
 19 21  1  0
 21 22  1  0
 22 23  1  0
  3  5  1  0
  5  6  2  0
  6  7  1  0
  6  8  1  0
  8  9  1  0
  9 10  2  0
  9 11  1  0
 11 12  1  0
 12 13  1  0
 13 14  1  0
 14 24  1  0
 24 25  2  0
 25 26  1  0
 26 27  2  0
 27 28  1  0
 28 29  2  0
 14 15  1  0
 15 16  1  0
  8  2  1  0
 16 11  1  0
 22 17  2  0
 29 24  1  0
 29 30  1  0
M  CHG 1  18  -1
M  CHG 1  21  -1
M  CHG 1  23  -1
M  CHG 1  29   1
M  END
> <UniqueID>
4

> <SMILES>
C=c1c(=Cc2[n-]c(=O)[n-]c2[O-])cc(C)n1C(=O)N1CCN(c2cccc[nH+]2)CC1

> <Energy>
131.66606213495695

> <Genealogy>
C=c1c(=Cc2[n-]c(=O)[n-]c2[O-])cc(C)n1C(=O)N1CCN(c2cccc[nH+]2)CC1 (protonated)
C=c1c(=Cc2[n-]c(=O)[n-]c2[O-])cc(C)n1C(=O)N1CCN(c2cccc[nH+]2)CC1 (3D coordinates assigned)
C=c1c(=Cc2[n-]c(=O)[n-]c2[O-])cc(C)n1C(=O)N1CCN(c2cccc[nH+]2)CC1 (nonaromatic ring conformer: 131.66606213495695 kcal/mol)

> <smiles>
C=c1c(=Cc2[nH]c(=O)[nH]c2O)cc(C)n1C(=O)N1CCN(c2ccccn2)CC1

> <score_type>
oracle

> <origin>
adg

> <m_score__min__energy>
-14.859999999999999

> <m_primary>
energy

> <minimizedAffinity>
-5.78682

> <minimizedRMSD>
0.62933

> <CNNscore>
0.1336139143

> <CNNaffinity>
4.9722533226

> <CNN_VS>
0.6643622518

> <CNNaffinity_variance>
0.1718332767

$$$$
7:0


 33 36  0  0  0  0  0  0  0  0999 V2000
   60.5212   29.3065   45.0854 C   0  0  0  0  0  0  0  0  0  0  0  0
   59.9699   29.0172   46.2756 C   0  0  0  0  0  0  0  0  0  0  0  0
   59.2314   27.8650   46.5704 C   0  0  0  0  0  0  0  0  0  0  0  0
   58.9699   26.8253   45.7527 C   0  0  0  0  0  0  0  0  0  0  0  0
   58.8724   27.9619   47.9030 C   0  0  0  0  0  0  0  0  0  0  0  0
   59.3627   29.1668   48.3644 C   0  0  0  0  0  0  0  0  0  0  0  0
   60.0533   29.8045   47.3843 N   0  0  0  0  0  0  0  0  0  0  0  0
   58.1220   25.6779   46.1229 C   0  0  0  0  0  0  0  0  0  0  0  0
   58.5915   24.4247   46.2497 N   0  0  0  0  0  0  0  0  0  0  0  0
   57.4834   23.6989   46.5081 C   0  0  0  0  0  0  0  0  0  0  0  0
   57.5165   22.4568   46.7048 O   0  0  0  0  0  0  0  0  0  0  0  0
   56.3333   24.4066   46.5294 N   0  0  0  0  0  0  0  0  0  0  0  0
   56.7520   25.6558   46.2718 C   0  0  0  0  0  0  0  0  0  0  0  0
   55.8926   26.7395   46.1290 O   0  0  0  0  0  0  0  0  0  0  0  0
   59.2483   29.6380   49.7594 C   0  0  0  0  0  0  0  0  0  0  0  0
   58.0911   29.7961   50.2374 O   0  0  0  0  0  0  0  0  0  0  0  0
   60.4035   29.8978   50.5923 N   0  0  0  0  0  0  0  0  0  0  0  0
   61.3783   28.8184   50.7886 C   0  0  0  0  0  0  0  0  0  0  0  0
   60.6358   31.1996   51.2402 C   0  0  0  0  0  0  0  0  0  0  0  0
   61.7519   31.9476   50.5741 C   0  0  0  0  0  0  0  0  0  0  0  0
   62.9073   31.2994   50.2575 N   0  0  0  0  0  0  0  0  0  0  0  0
   63.9333   31.9260   49.6248 C   0  0  0  0  0  0  0  0  0  0  0  0
   63.8151   33.2705   49.2645 C   0  0  0  0  0  0  0  0  0  0  0  0
   62.6434   33.9603   49.5799 C   0  0  0  0  0  0  0  0  0  0  0  0
   61.6073   33.3044   50.2467 C   0  0  0  0  0  0  0  0  0  0  0  0
   60.7736   31.0824   47.5418 C   0  0  0  0  0  0  0  0  0  0  0  0
   59.9855   32.2323   46.9642 C   0  0  0  0  0  0  0  0  0  0  0  0
   58.5827   32.1641   46.9056 C   0  0  0  0  0  0  0  0  0  0  0  0
   57.8422   33.2422   46.4111 C   0  0  0  0  0  0  0  0  0  0  0  0
   58.4929   34.3995   45.9831 C   0  0  0  0  0  0  0  0  0  0  0  0
   59.8869   34.4775   46.0324 C   0  0  0  0  0  0  0  0  0  0  0  0
   60.6344   33.3970   46.5124 C   0  0  0  0  0  0  0  0  0  0  0  0
   61.9859   33.5002   46.5515 F   0  0  0  0  0  0  0  0  0  0  0  0
  1  2  2  0
  2  3  1  0
  3  4  2  0
  4  8  1  0
  8  9  1  0
  9 10  1  0
 10 11  2  0
 10 12  1  0
 12 13  1  0
 13 14  1  0
  3  5  1  0
  5  6  2  0
  6 15  1  0
 15 16  2  0
 15 17  1  0
 17 18  1  0
 17 19  1  0
 19 20  1  0
 20 21  2  0
 21 22  1  0
 22 23  2  0
 23 24  1  0
 24 25  2  0
  6  7  1  0
  7 26  1  0
 26 27  1  0
 27 28  2  0
 28 29  1  0
 29 30  2  0
 30 31  1  0
 31 32  2  0
 32 33  1  0
  7  2  1  0
 32 27  1  0
 13  8  2  0
 25 20  1  0
M  CHG 1   9  -1
M  CHG 1  12  -1
M  CHG 1  14  -1
M  END
> <UniqueID>
8

> <SMILES>
C=c1/c(=C/c2[n-]c(=O)[n-]c2[O-])cc(C(=O)N(C)Cc2ccccn2)n1Cc1ccccc1F

> <Energy>
121.4271575387473

> <Genealogy>
C=c1c(=Cc2[n-]c(=O)[n-]c2[O-])cc(C(=O)N(C)Cc2ccccn2)n1Cc1ccccc1F (protonated)
C=c1/c(=C/c2[n-]c(=O)[n-]c2[O-])cc(C(=O)N(C)Cc2ccccn2)n1Cc1ccccc1F (cis-trans isomerization)
C=c1/c(=C/c2[n-]c(=O)[n-]c2[O-])cc(C(=O)N(C)Cc2ccccn2)n1Cc1ccccc1F (3D coordinates assigned)
C=c1/c(=C/c2[n-]c(=O)[n-]c2[O-])cc(C(=O)N(C)Cc2ccccn2)n1Cc1ccccc1F (optimized conformer: 121.4271575387473 kcal/mol)

> <smiles>
C=c1c(=Cc2[nH]c(=O)[nH]c2O)cc(C(=O)N(C)Cc2ccccn2)n1Cc1ccccc1F

> <score_type>
oracle

> <origin>
adg

> <m_score__min__energy>
-17.120000000000001

> <m_primary>
energy

> <minimizedAffinity>
-8.10338

> <minimizedRMSD>
1.12661

> <CNNscore>
0.6472197175

> <CNNaffinity>
7.4502773285

> <CNN_VS>
4.8219661713

> <CNNaffinity_variance>
0.0041878559

$$$$
23:0


 33 36  0  0  0  0  0  0  0  0999 V2000
   57.5982   30.6586   43.2599 C   0  0  0  0  0  0  0  0  0  0  0  0
   58.0039   31.1455   44.4396 C   0  0  0  0  0  0  0  0  0  0  0  0
   58.8465   30.5300   45.3674 C   0  0  0  0  0  0  0  0  0  0  0  0
   59.4231   29.3172   45.2321 C   0  0  0  0  0  0  0  0  0  0  0  0
   58.9544   31.4276   46.4418 C   0  0  0  0  0  0  0  0  0  0  0  0
   58.1736   32.5283   46.1026 C   0  0  0  0  0  0  0  0  0  0  0  0
   57.9784   33.7764   46.9097 C   0  0  0  0  0  0  0  0  0  0  0  0
   57.5914   32.3416   44.9046 N   0  0  0  0  0  0  0  0  0  0  0  0
   56.9774   32.9635   44.4511 H   0  0  0  0  0  0  0  0  0  0  0  0
   58.7964   28.0493   45.6573 C   0  0  0  0  0  0  0  0  0  0  0  0
   57.4060   27.8853   45.6009 C   0  0  0  0  0  0  0  0  0  0  0  0
   56.5962   28.8826   45.0718 O   0  0  0  0  0  0  0  0  0  0  0  0
   56.8407   26.7355   46.0573 N   0  0  0  0  0  0  0  0  0  0  0  0
   57.5987   25.7430   46.5866 C   0  0  0  0  0  0  0  0  0  0  0  0
   56.8914   24.3789   47.1368 S   0  0  0  0  0  0  0  0  0  0  0  0
   58.9440   25.8936   46.6871 N   0  0  0  0  0  0  0  0  0  0  0  0
   59.5565   27.0234   46.2463 C   0  0  0  0  0  0  0  0  0  0  0  0
   60.8030   27.1477   46.3919 O   0  0  0  0  0  0  0  0  0  0  0  0
   59.9562   31.4114   47.5297 C   0  0  0  0  0  0  0  0  0  0  0  0
   59.6435   30.9319   48.6505 O   0  0  0  0  0  0  0  0  0  0  0  0
   61.2942   31.8830   47.3142 N   0  0  0  0  0  0  0  0  0  0  0  0
   62.4301   31.1391   47.8605 C   0  0  0  0  0  0  0  0  0  0  0  0
   63.0933   31.9695   48.9676 C   0  0  0  0  0  0  0  0  0  0  0  0
   63.2190   33.4212   48.6434 N   0  0  0  0  0  0  0  0  0  0  0  0
   62.9079   33.7525   47.2321 C   0  0  0  0  0  0  0  0  0  0  0  0
   61.5128   33.2484   46.8233 C   0  0  0  0  0  0  0  0  0  0  0  0
   62.4568   34.2702   49.5865 C   0  0  0  0  0  0  0  0  0  0  0  0
   62.0302   33.4651   50.7855 C   0  0  0  0  0  0  0  0  0  0  0  0
   60.6844   33.0880   50.9347 C   0  0  0  0  0  0  0  0  0  0  0  0
   60.2781   32.3495   52.0512 C   0  0  0  0  0  0  0  0  0  0  0  0
   61.2134   31.9762   53.0204 C   0  0  0  0  0  0  0  0  0  0  0  0
   62.5538   32.3467   52.8782 C   0  0  0  0  0  0  0  0  0  0  0  0
   62.9616   33.0943   51.7702 C   0  0  0  0  0  0  0  0  0  0  0  0
  1  2  2  0
  2  3  1  0
  3  4  2  0
  4 10  1  0
 10 11  2  0
 11 12  1  0
 11 13  1  0
 13 14  1  0
 14 15  2  0
 14 16  1  0
 16 17  1  0
 17 18  2  0
  3  5  1  0
  5 19  1  0
 19 20  2  0
 19 21  1  0
 21 22  1  0
 22 23  1  0
 23 24  1  0
 24 27  1  0
 27 28  1  0
 28 29  2  0
 29 30  1  0
 30 31  2  0
 31 32  1  0
 32 33  2  0
 24 25  1  0
 25 26  1  0
  5  6  2  0
  6  7  1  0
  6  8  1  0
  8  2  1  0
 17 10  1  0
 26 21  1  0
 33 28  1  0
  8  9  1  0
M  CHG 1  12  -1
M  CHG 1  13  -1
M  CHG 1  16  -1
M  END
> <UniqueID>
24

> <SMILES>
C=c1[nH]c(C)c(C(=O)N2CCN(Cc3ccccc3)CC2)/c1=C\c1c([O-])[n-]c(=S)[n-]c1=O

> <Energy>
110.43691750540052

> <Genealogy>
C=c1[nH]c(C)c(C(=O)N2CCN(Cc3ccccc3)CC2)c1=Cc1c([O-])[n-]c(=S)[n-]c1=O (protonated)
C=c1[nH]c(C)c(C(=O)N2CCN(Cc3ccccc3)CC2)/c1=C\c1c([O-])[n-]c(=S)[n-]c1=O (cis-trans isomerization)
C=c1[nH]c(C)c(C(=O)N2CCN(Cc3ccccc3)CC2)/c1=C\c1c([O-])[n-]c(=S)[n-]c1=O (3D coordinates assigned)
C=c1[nH]c(C)c(C(=O)N2CCN(Cc3ccccc3)CC2)/c1=C\c1c([O-])[n-]c(=S)[n-]c1=O (nonaromatic ring conformer: 110.43691750540052 kcal/mol)

> <smiles>
C=c1[nH]c(C)c(C(=O)N2CCN(Cc3ccccc3)CC2)c1=Cc1c(O)[nH]c(=S)[nH]c1=O

> <score_type>
oracle

> <origin>
adg

> <m_score__min__energy>
-16.399999999999999

> <m_primary>
energy

> <minimizedAffinity>
-7.73563

> <minimizedRMSD>
1.57128

> <CNNscore>
0.1061197072

> <CNNaffinity>
6.4228453636

> <CNN_VS>
0.6815904975

> <CNNaffinity_variance>
0.1813430041

$$$$
24:0


 37 41  0  0  0  0  0  0  0  0999 V2000
   59.6577   31.4862   49.2415 C   0  0  0  0  0  0  0  0  0  0  0  0
   58.7172   31.2439   50.2516 C   0  0  0  0  0  0  0  0  0  0  0  0
   58.7296   31.9905   51.4387 C   0  0  0  0  0  0  0  0  0  0  0  0
   59.6833   33.0063   51.5963 C   0  0  0  0  0  0  0  0  0  0  0  0
   60.6234   33.2550   50.5949 C   0  0  0  0  0  0  0  0  0  0  0  0
   60.6173   32.5085   49.4068 C   0  0  0  0  0  0  0  0  0  0  0  0
   60.8359   28.8010   48.8320 C   0  0  0  0  0  0  0  0  0  0  0  0
   60.1029   29.4234   47.8967 C   0  0  0  0  0  0  0  0  0  0  0  0
   59.8219   28.9790   46.5931 C   0  0  0  0  0  0  0  0  0  0  0  0
   60.0359   27.7906   45.9972 C   0  0  0  0  0  0  0  0  0  0  0  0
   59.2035   30.0399   45.9479 C   0  0  0  0  0  0  0  0  0  0  0  0
   59.0737   31.0531   46.8756 C   0  0  0  0  0  0  0  0  0  0  0  0
   58.4147   32.3749   46.6253 C   0  0  0  0  0  0  0  0  0  0  0  0
   59.6178   30.6809   48.0528 N   0  0  0  0  0  0  0  0  0  0  0  0
   59.0471   26.7078   45.8655 C   0  0  0  0  0  0  0  0  0  0  0  0
   59.2742   25.4197   46.1823 N   0  0  0  0  0  0  0  0  0  0  0  0
   58.0617   24.8434   46.0274 C   0  0  0  0  0  0  0  0  0  0  0  0
   57.8651   23.6155   46.2200 O   0  0  0  0  0  0  0  0  0  0  0  0
   57.0740   25.6891   45.6634 N   0  0  0  0  0  0  0  0  0  0  0  0
   57.7132   26.8670   45.5805 C   0  0  0  0  0  0  0  0  0  0  0  0
   57.0891   28.0641   45.2539 O   0  0  0  0  0  0  0  0  0  0  0  0
   57.7210   31.7274   52.4905 C   0  0  0  0  0  0  0  0  0  0  0  0
   56.6246   32.3523   52.4555 O   0  0  0  0  0  0  0  0  0  0  0  0
   57.9530   30.7699   53.5409 N   0  0  0  0  0  0  0  0  0  0  0  0
   58.6982   29.5306   53.2965 C   0  0  0  0  0  0  0  0  0  0  0  0
   58.0255   28.3763   54.0434 C   0  0  0  0  0  0  0  0  0  0  0  0
   57.8525   28.6963   55.4118 O   0  0  0  0  0  0  0  0  0  0  0  0
   56.9478   29.7780   55.5417 C   0  0  0  0  0  0  0  0  0  0  0  0
   57.5254   31.0508   54.9138 C   0  0  0  0  0  0  0  0  0  0  0  0
   61.8279   32.8731   48.1675 S   0  0  0  0  0  0  0  0  0  0  0  0
   61.2207   33.6454   47.0291 O   0  0  0  0  0  0  0  0  0  0  0  0
   62.3909   31.5843   47.6397 O   0  0  0  0  0  0  0  0  0  0  0  0
   63.1186   33.8093   48.8554 N   0  0  0  0  0  0  0  0  0  0  0  0
   64.2288   32.9298   49.2298 C   0  0  0  0  0  0  0  0  0  0  0  0
   64.2037   32.5288   50.7166 C   0  0  0  0  0  0  0  0  0  0  0  0
   65.1790   31.4526   51.1753 C   0  0  0  0  0  0  0  0  0  0  0  0
   63.6928   31.1323   51.0460 C   0  0  0  0  0  0  0  0  0  0  0  0
  7  8  2  0
  8  9  1  0
  9 10  2  0
 10 15  1  0
 15 16  1  0
 16 17  1  0
 17 18  2  0
 17 19  1  0
 19 20  1  0
 20 21  1  0
  9 11  1  0
 11 12  2  0
 12 13  1  0
 12 14  1  0
 14  1  1  0
  1  2  2  0
  2  3  1  0
  3 22  1  0
 22 23  2  0
 22 24  1  0
 24 25  1  0
 25 26  1  0
 26 27  1  0
 27 28  1  0
 28 29  1  0
  3  4  2  0
  4  5  1  0
  5  6  2  0
  6 30  1  0
 30 31  2  0
 30 32  2  0
 30 33  1  0
 33 34  1  0
 34 35  1  0
 35 36  1  0
 36 37  1  0
 14  8  1  0
  6  1  1  0
 37 35  1  0
 20 15  2  0
 29 24  1  0
M  CHG 1  16  -1
M  CHG 1  19  -1
M  CHG 1  21  -1
M  CHG 1  33  -1
M  END
> <UniqueID>
25

> <SMILES>
C=c1c(=Cc2[n-]c(=O)[n-]c2[O-])cc(C)n1-c1cc(C(=O)N2CCOCC2)ccc1S(=O)(=O)[N-]CC1CC1

> <Energy>
411.3006209837322

> <Genealogy>
C=c1c(=Cc2[n-]c(=O)[n-]c2[O-])cc(C)n1-c1cc(C(=O)N2CCOCC2)ccc1S(=O)(=O)[N-]CC1CC1 (protonated)
C=c1c(=Cc2[n-]c(=O)[n-]c2[O-])cc(C)n1-c1cc(C(=O)N2CCOCC2)ccc1S(=O)(=O)[N-]CC1CC1 (3D coordinates assigned)
C=c1c(=Cc2[n-]c(=O)[n-]c2[O-])cc(C)n1-c1cc(C(=O)N2CCOCC2)ccc1S(=O)(=O)[N-]CC1CC1 (nonaromatic ring conformer: 411.3006209837322 kcal/mol)

> <smiles>
C=c1c(=Cc2[nH]c(=O)[nH]c2O)cc(C)n1-c1cc(C(=O)N2CCOCC2)ccc1S(=O)(=O)NCC1CC1

> <score_type>
oracle

> <origin>
adg

> <m_score__min__energy>
-18.719999999999999

> <m_primary>
energy

> <minimizedAffinity>
-7.51421

> <minimizedRMSD>
1.49137

> <CNNscore>
0.1904991567

> <CNNaffinity>
7.1518249512

> <CNN_VS>
1.3624166250

> <CNNaffinity_variance>
0.0474560559

$$$$
26:0


 31 33  0  0  0  0  0  0  0  0999 V2000
   58.4206   31.4945   52.9331 C   0  0  0  0  0  0  0  0  0  0  0  0
   57.2466   30.8658   52.4786 C   0  0  0  0  0  0  0  0  0  0  0  0
   56.3135   30.3586   53.3888 C   0  0  0  0  0  0  0  0  0  0  0  0
   56.5352   30.4666   54.7700 C   0  0  0  0  0  0  0  0  0  0  0  0
   57.6871   31.1249   55.2280 C   0  0  0  0  0  0  0  0  0  0  0  0
   58.6245   31.6233   54.3191 C   0  0  0  0  0  0  0  0  0  0  0  0
   59.9092   32.1959   47.9426 C   0  0  0  0  0  0  0  0  0  0  0  0
   58.9412   31.5274   47.4968 O   0  0  0  0  0  0  0  0  0  0  0  0
   60.2014   32.1643   49.3454 N   0  0  0  0  0  0  0  0  0  0  0  0
   60.3638   30.8647   50.0149 C   0  0  0  0  0  0  0  0  0  0  0  0
   60.4827   31.0424   51.5308 C   0  0  0  0  0  0  0  0  0  0  0  0
   59.4203   31.9443   51.9950 N   0  0  0  0  0  0  0  0  0  0  0  0
   59.2528   33.2536   51.3394 C   0  0  0  0  0  0  0  0  0  0  0  0
   60.1871   33.4060   50.1289 C   0  0  0  0  0  0  0  0  0  0  0  0
   60.6886   32.9807   47.0307 N   0  0  0  0  0  0  0  0  0  0  0  0
   62.0812   33.3823   47.2390 C   0  0  0  0  0  0  0  0  0  0  0  0
   63.6976   32.3349   48.9016 C   0  0  0  0  0  0  0  0  0  0  0  0
   62.9702   32.1749   47.5630 C   0  0  0  0  0  0  0  0  0  0  0  0
   55.5548   29.8741   55.7493 C   0  0  0  0  0  0  0  0  0  0  0  0
   55.1060   28.5075   55.3062 C   0  0  0  0  0  0  0  0  0  0  0  0
   55.8941   27.5348   55.4341 O   0  0  0  0  0  0  0  0  0  0  0  0
   53.7993   28.2662   54.7734 N   0  0  0  0  0  0  0  0  0  0  0  0
   52.6265   29.0942   55.0434 C   0  0  0  0  0  0  0  0  0  0  0  0
   52.3110   29.9257   53.8377 C   0  0  0  0  0  0  0  0  0  0  0  0
   52.9492   29.6721   52.6127 C   0  0  0  0  0  0  0  0  0  0  0  0
   52.6623   30.4588   51.4930 C   0  0  0  0  0  0  0  0  0  0  0  0
   51.7460   31.5115   51.5896 C   0  0  0  0  0  0  0  0  0  0  0  0
   51.4587   32.2804   50.4697 O   0  0  0  0  0  0  0  0  0  0  0  0
   51.1217   31.7848   52.8111 C   0  0  0  0  0  0  0  0  0  0  0  0
   50.2170   32.8352   52.9145 O   0  0  0  0  0  0  0  0  0  0  0  0
   51.4076   30.9987   53.9338 C   0  0  0  0  0  0  0  0  0  0  0  0
 17 18  1  0
 18 16  1  0
 16 15  1  0
 15  7  1  0
  7  8  2  0
  7  9  1  0
  9 10  1  0
 10 11  1  0
 11 12  1  0
 12  1  1  0
  1  2  2  0
  2  3  1  0
  3  4  2  0
  4 19  1  0
 19 20  1  0
 20 21  2  0
 20 22  1  0
 22 23  1  0
 23 24  1  0
 24 25  2  0
 25 26  1  0
 26 27  2  0
 27 28  1  0
 27 29  1  0
 29 30  1  0
 29 31  2  0
  4  5  1  0
  5  6  2  0
 12 13  1  0
 13 14  1  0
 14  9  1  0
  6  1  1  0
 31 24  1  0
M  CHG 1  15  -1
M  CHG 1  22  -1
M  CHG 1  28  -1
M  CHG 1  30  -1
M  END
> <UniqueID>
27

> <SMILES>
CCC[N-]C(=O)N1CCN(c2ccc(CC(=O)[N-]Cc3ccc([O-])c([O-])c3)cc2)CC1

> <Energy>
57.2795116943553

> <Genealogy>
CCC[N-]C(=O)N1CCN(c2ccc(CC(=O)[N-]Cc3ccc([O-])c([O-])c3)cc2)CC1 (protonated)
CCC[N-]C(=O)N1CCN(c2ccc(CC(=O)[N-]Cc3ccc([O-])c([O-])c3)cc2)CC1 (3D coordinates assigned)
CCC[N-]C(=O)N1CCN(c2ccc(CC(=O)[N-]Cc3ccc([O-])c([O-])c3)cc2)CC1 (nonaromatic ring conformer: 57.2795116943553 kcal/mol)

> <smiles>
CCCNC(=O)N1CCN(c2ccc(CC(=O)NCc3ccc(O)c(O)c3)cc2)CC1

> <score_type>
oracle

> <origin>
adg

> <m_score__min__energy>
-19.399999999999999

> <m_primary>
energy

> <minimizedAffinity>
-6.22743

> <minimizedRMSD>
1.56497

> <CNNscore>
0.1281481236

> <CNNaffinity>
4.8109326363

> <CNN_VS>
0.6165120006

> <CNNaffinity_variance>
0.5830373764

$$$$
34:0


 30 33  0  0  0  0  0  0  0  0999 V2000
   58.1804   27.3533   43.8214 C   0  0  0  0  0  0  0  0  0  0  0  0
   58.5289   26.8297   45.0068 C   0  0  0  0  0  0  0  0  0  0  0  0
   58.3365   25.5084   45.4441 C   0  0  0  0  0  0  0  0  0  0  0  0
   57.6224   24.4963   44.9151 C   0  0  0  0  0  0  0  0  0  0  0  0
   59.0520   25.3838   46.6241 C   0  0  0  0  0  0  0  0  0  0  0  0
   59.5788   26.6275   46.9072 C   0  0  0  0  0  0  0  0  0  0  0  0
   60.5059   26.9165   48.0484 C   0  0  0  0  0  0  0  0  0  0  0  0
   59.2627   27.5016   45.9282 N   0  0  0  0  0  0  0  0  0  0  0  0
   59.7358   28.8551   45.8383 C   0  0  0  0  0  0  0  0  0  0  0  0
   60.2759   29.2455   44.7680 O   0  0  0  0  0  0  0  0  0  0  0  0
   59.6177   29.7563   46.9589 N   0  0  0  0  0  0  0  0  0  0  0  0
   60.3894   31.0090   46.9508 C   0  0  0  0  0  0  0  0  0  0  0  0
   60.0944   31.8706   48.1833 C   0  0  0  0  0  0  0  0  0  0  0  0
   60.0584   31.0342   49.3897 N   0  0  0  0  0  0  0  0  0  0  0  0
   60.5927   31.5289   50.6288 C   0  0  0  0  0  0  0  0  0  0  0  0
   59.8711   31.5202   51.6623 O   0  0  0  0  0  0  0  0  0  0  0  0
   59.2737   29.7907   49.4016 C   0  0  0  0  0  0  0  0  0  0  0  0
   58.6452   29.5029   48.0333 C   0  0  0  0  0  0  0  0  0  0  0  0
   56.3523   23.9733   45.4461 C   0  0  0  0  0  0  0  0  0  0  0  0
   55.9663   22.6853   45.3795 N   0  0  0  0  0  0  0  0  0  0  0  0
   54.6996   22.7158   45.8494 C   0  0  0  0  0  0  0  0  0  0  0  0
   53.9923   21.6807   45.9580 O   0  0  0  0  0  0  0  0  0  0  0  0
   54.2495   23.9437   46.1856 N   0  0  0  0  0  0  0  0  0  0  0  0
   55.3038   24.7276   45.9097 C   0  0  0  0  0  0  0  0  0  0  0  0
   55.3032   26.1077   46.0702 O   0  0  0  0  0  0  0  0  0  0  0  0
   61.9822   32.0251   50.7222 C   0  0  0  0  0  0  0  0  0  0  0  0
   62.3167   33.3752   50.9234 C   0  0  0  0  0  0  0  0  0  0  0  0
   63.6836   33.6117   50.9504 C   0  0  0  0  0  0  0  0  0  0  0  0
   64.4725   32.1479   50.7149 S   0  0  0  0  0  0  0  0  0  0  0  0
   63.0927   31.1988   50.5761 C   0  0  0  0  0  0  0  0  0  0  0  0
  1  2  2  0
  2  3  1  0
  3  4  2  0
  4 19  1  0
 19 20  1  0
 20 21  1  0
 21 22  2  0
 21 23  1  0
 23 24  1  0
 24 25  1  0
  3  5  1  0
  5  6  2  0
  6  7  1  0
  6  8  1  0
  8  9  1  0
  9 10  2  0
  9 11  1  0
 11 12  1  0
 12 13  1  0
 13 14  1  0
 14 15  1  0
 15 16  2  0
 15 26  1  0
 26 27  1  0
 27 28  2  0
 28 29  1  0
 29 30  1  0
 14 17  1  0
 17 18  1  0
  8  2  1  0
 18 11  1  0
 24 19  2  0
 30 26  2  0
M  CHG 1  20  -1
M  CHG 1  23  -1
M  CHG 1  25  -1
M  END
> <UniqueID>
35

> <SMILES>
C=c1c(=Cc2[n-]c(=O)[n-]c2[O-])cc(C)n1C(=O)N1CCN(C(=O)c2ccsc2)CC1

> <Energy>
154.9387453008278

> <Genealogy>
C=c1c(=Cc2[n-]c(=O)[n-]c2[O-])cc(C)n1C(=O)N1CCN(C(=O)c2ccsc2)CC1 (protonated)
C=c1c(=Cc2[n-]c(=O)[n-]c2[O-])cc(C)n1C(=O)N1CCN(C(=O)c2ccsc2)CC1 (3D coordinates assigned)
C=c1c(=Cc2[n-]c(=O)[n-]c2[O-])cc(C)n1C(=O)N1CCN(C(=O)c2ccsc2)CC1 (nonaromatic ring conformer: 154.9387453008278 kcal/mol)

> <smiles>
C=c1c(=Cc2[nH]c(=O)[nH]c2O)cc(C)n1C(=O)N1CCN(C(=O)c2ccsc2)CC1

> <score_type>
oracle

> <origin>
adg

> <m_score__min__energy>
-15.98

> <m_primary>
energy

> <minimizedAffinity>
-8.15475

> <minimizedRMSD>
0.94473

> <CNNscore>
0.0509142689

> <CNNaffinity>
5.3868713379

> <CNN_VS>
0.2742686272

> <CNNaffinity_variance>
0.2299464494

$$$$
40:0


 33 36  0  0  0  0  0  0  0  0999 V2000
   58.4825   30.1735   53.2503 C   0  0  0  0  0  0  0  0  0  0  0  0
   59.2136   29.4524   53.9813 O   0  0  0  0  0  0  0  0  0  0  0  0
   59.0621   31.2386   52.4770 N   0  0  0  0  0  0  0  0  0  0  0  0
   58.2617   32.4284   52.1833 C   0  0  0  0  0  0  0  0  0  0  0  0
   59.1597   33.6479   51.9567 C   0  0  0  0  0  0  0  0  0  0  0  0
   60.2738   33.3717   51.0292 N   0  0  0  0  0  0  0  0  0  0  0  0
   61.0626   32.1658   51.3521 C   0  0  0  0  0  0  0  0  0  0  0  0
   60.1948   30.9281   51.6010 C   0  0  0  0  0  0  0  0  0  0  0  0
   54.3049   27.7973   53.5015 C   0  0  0  0  0  0  0  0  0  0  0  0
   55.1459   28.8250   53.3032 C   0  0  0  0  0  0  0  0  0  0  0  0
   54.9240   29.9620   52.5087 C   0  0  0  0  0  0  0  0  0  0  0  0
   53.8061   30.4219   51.9169 C   0  0  0  0  0  0  0  0  0  0  0  0
   56.1471   30.6042   52.4040 C   0  0  0  0  0  0  0  0  0  0  0  0
   57.0414   29.8878   53.1696 C   0  0  0  0  0  0  0  0  0  0  0  0
   56.4338   28.8239   53.7352 N   0  0  0  0  0  0  0  0  0  0  0  0
   57.0854   27.8019   54.5606 C   0  0  0  0  0  0  0  0  0  0  0  0
   52.5733   30.8168   52.6155 C   0  0  0  0  0  0  0  0  0  0  0  0
   52.3300   30.5972   53.9201 N   0  0  0  0  0  0  0  0  0  0  0  0
   51.1571   31.2360   54.1260 C   0  0  0  0  0  0  0  0  0  0  0  0
   50.5819   31.2510   55.2479 O   0  0  0  0  0  0  0  0  0  0  0  0
   50.6543   31.8637   53.0426 N   0  0  0  0  0  0  0  0  0  0  0  0
   51.5707   31.5997   52.0984 C   0  0  0  0  0  0  0  0  0  0  0  0
   51.4904   32.0622   50.7909 O   0  0  0  0  0  0  0  0  0  0  0  0
   60.0568   33.6777   49.5951 C   0  0  0  0  0  0  0  0  0  0  0  0
   60.0606   32.4605   48.7045 C   0  0  0  0  0  0  0  0  0  0  0  0
   58.8752   31.7459   48.4792 C   0  0  0  0  0  0  0  0  0  0  0  0
   58.8940   30.5565   47.7474 C   0  0  0  0  0  0  0  0  0  0  0  0
   60.0970   30.0650   47.2010 C   0  0  0  0  0  0  0  0  0  0  0  0
   61.2635   30.8452   47.3474 C   0  0  0  0  0  0  0  0  0  0  0  0
   61.2417   32.0291   48.0908 C   0  0  0  0  0  0  0  0  0  0  0  0
   60.1394   28.7718   46.5426 N   0  0  0  0  0  0  0  0  0  0  0  0
   60.0630   27.5352   47.3297 C   0  0  0  0  0  0  0  0  0  0  0  0
   60.3309   28.6754   45.0912 C   0  0  0  0  0  0  0  0  0  0  0  0
  9 10  2  0
 10 11  1  0
 11 12  2  0
 12 17  1  0
 17 18  1  0
 18 19  1  0
 19 20  2  0
 19 21  1  0
 21 22  1  0
 22 23  1  0
 11 13  1  0
 13 14  2  0
 14  1  1  0
  1  2  2  0
  1  3  1  0
  3  4  1  0
  4  5  1  0
  5  6  1  0
  6 24  1  0
 24 25  1  0
 25 26  2  0
 26 27  1  0
 27 28  2  0
 28 31  1  0
 31 32  1  0
 31 33  1  0
 28 29  1  0
 29 30  2  0
  6  7  1  0
  7  8  1  0
 14 15  1  0
 15 16  1  0
 15 10  1  0
 22 17  2  0
  8  3  1  0
 30 25  1  0
M  CHG 1  18  -1
M  CHG 1  21  -1
M  CHG 1  23  -1
M  END
> <UniqueID>
41

> <SMILES>
C=c1/c(=C\c2[n-]c(=O)[n-]c2[O-])cc(C(=O)N2CCN(Cc3ccc(N(C)C)cc3)CC2)n1C

> <Energy>
148.13427555986215

> <Genealogy>
C=c1c(=Cc2[n-]c(=O)[n-]c2[O-])cc(C(=O)N2CCN(Cc3ccc(N(C)C)cc3)CC2)n1C (protonated)
C=c1/c(=C\c2[n-]c(=O)[n-]c2[O-])cc(C(=O)N2CCN(Cc3ccc(N(C)C)cc3)CC2)n1C (cis-trans isomerization)
C=c1/c(=C\c2[n-]c(=O)[n-]c2[O-])cc(C(=O)N2CCN(Cc3ccc(N(C)C)cc3)CC2)n1C (3D coordinates assigned)
C=c1/c(=C\c2[n-]c(=O)[n-]c2[O-])cc(C(=O)N2CCN(Cc3ccc(N(C)C)cc3)CC2)n1C (nonaromatic ring conformer: 148.13427555986215 kcal/mol)

> <smiles>
C=c1c(=Cc2[nH]c(=O)[nH]c2O)cc(C(=O)N2CCN(Cc3ccc(N(C)C)cc3)CC2)n1C

> <score_type>
oracle

> <origin>
adg

> <m_score__min__energy>
-18.370000000000001

> <m_primary>
energy

> <minimizedAffinity>
-7.73009

> <minimizedRMSD>
0.92253

> <CNNscore>
0.1230210066

> <CNNaffinity>
5.7758598328

> <CNN_VS>
0.7105520964

> <CNNaffinity_variance>
0.2361986041

$$$$
42:0


 36 39  0  0  0  0  0  0  0  0999 V2000
   58.4337   30.2868   46.5439 C   0  0  0  0  0  0  0  0  0  0  0  0
   58.8047   29.6071   47.7204 C   0  0  0  0  0  0  0  0  0  0  0  0
   59.6257   30.2240   48.6669 C   0  0  0  0  0  0  0  0  0  0  0  0
   60.0618   31.5356   48.4715 C   0  0  0  0  0  0  0  0  0  0  0  0
   59.6795   32.2391   47.3202 C   0  0  0  0  0  0  0  0  0  0  0  0
   58.8765   31.6108   46.3575 C   0  0  0  0  0  0  0  0  0  0  0  0
   60.1916   33.9077   47.0757 S   0  0  0  0  0  0  0  0  0  0  0  0
   59.1410   34.8496   47.5994 O   0  0  0  0  0  0  0  0  0  0  0  0
   60.3542   34.1482   45.5995 O   0  0  0  0  0  0  0  0  0  0  0  0
   61.7070   34.1892   47.8971 N   0  0  0  0  0  0  0  0  0  0  0  0
   62.7972   33.3701   47.3083 C   0  0  0  0  0  0  0  0  0  0  0  0
   63.2348   32.1953   48.1990 C   0  0  0  0  0  0  0  0  0  0  0  0
   63.5712   32.6759   49.5432 N   0  0  0  0  0  0  0  0  0  0  0  0
   62.8595   33.8449   50.0777 C   0  0  0  0  0  0  0  0  0  0  0  0
   61.5216   34.0220   49.3536 C   0  0  0  0  0  0  0  0  0  0  0  0
   64.5602   31.9902   50.3472 C   0  0  0  0  0  0  0  0  0  0  0  0
   65.9091   32.3950   50.3237 C   0  0  0  0  0  0  0  0  0  0  0  0
   66.8671   31.7273   51.0942 C   0  0  0  0  0  0  0  0  0  0  0  0
   66.4923   30.6523   51.9020 C   0  0  0  0  0  0  0  0  0  0  0  0
   67.4565   29.9976   52.6626 O   0  0  0  0  0  0  0  0  0  0  0  0
   65.1524   30.2441   51.9364 C   0  0  0  0  0  0  0  0  0  0  0  0
   64.1923   30.9069   51.1659 C   0  0  0  0  0  0  0  0  0  0  0  0
   68.3493   30.2799   52.6311 H   0  0  0  0  0  0  0  0  0  0  0  0
   57.5374   29.6566   45.5410 C   0  0  0  0  0  0  0  0  0  0  0  0
   56.8285   30.3890   44.8007 O   0  0  0  0  0  0  0  0  0  0  0  0
   57.3980   28.2355   45.4263 N   0  0  0  0  0  0  0  0  0  0  0  0
   57.9665   25.9621   46.2202 C   0  0  0  0  0  0  0  0  0  0  0  0
   58.9506   24.9914   46.4943 C   0  0  0  0  0  0  0  0  0  0  0  0
   60.3046   25.2840   46.3377 C   0  0  0  0  0  0  0  0  0  0  0  0
   60.7058   26.5448   45.8959 C   0  0  0  0  0  0  0  0  0  0  0  0
   59.7493   27.5199   45.6129 C   0  0  0  0  0  0  0  0  0  0  0  0
   58.3779   27.2444   45.7736 C   0  0  0  0  0  0  0  0  0  0  0  0
   55.5080   26.4862   45.9475 N   0  0  0  0  0  0  0  0  0  0  0  0
   56.5349   25.6253   46.4398 C   0  0  0  0  0  0  0  0  0  0  0  0
   56.2032   24.5737   47.0552 O   0  0  0  0  0  0  0  0  0  0  0  0
   54.5618   26.2584   46.0957 H   0  0  0  0  0  0  0  0  0  0  0  0
 33 34  1  0
 34 35  2  0
 34 27  1  0
 27 28  2  0
 28 29  1  0
 29 30  2  0
 30 31  1  0
 31 32  2  0
 32 26  1  0
 26 24  1  0
 24 25  2  0
 24  1  1  0
  1  2  2  0
  2  3  1  0
  3  4  2  0
  4  5  1  0
  5  7  1  0
  7  8  2  0
  7  9  2  0
  7 10  1  0
 10 11  1  0
 11 12  1  0
 12 13  1  0
 13 16  1  0
 16 17  2  0
 17 18  1  0
 18 19  2  0
 19 20  1  0
 19 21  1  0
 21 22  2  0
 13 14  1  0
 14 15  1  0
  5  6  2  0
 32 27  1  0
  6  1  1  0
 15 10  1  0
 22 16  1  0
 33 36  1  0
 20 23  1  0
M  CHG 1  26  -1
M  CHG 1  33  -1
M  END
> <UniqueID>
43

> <SMILES>
[NH-]C(=O)c1ccccc1[N-]C(=O)c1cccc(S(=O)(=O)N2CCN(c3ccc(O)cc3)CC2)c1

> <Energy>
77.96365960746459

> <Genealogy>
[NH-]C(=O)c1ccccc1[N-]C(=O)c1cccc(S(=O)(=O)N2CCN(c3ccc(O)cc3)CC2)c1 (protonated)
[NH-]C(=O)c1ccccc1[N-]C(=O)c1cccc(S(=O)(=O)N2CCN(c3ccc(O)cc3)CC2)c1 (3D coordinates assigned)
[NH-]C(=O)c1ccccc1[N-]C(=O)c1cccc(S(=O)(=O)N2CCN(c3ccc(O)cc3)CC2)c1 (nonaromatic ring conformer: 77.96365960746459 kcal/mol)

> <smiles>
NC(=O)c1ccccc1NC(=O)c1cccc(S(=O)(=O)N2CCN(c3ccc(O)cc3)CC2)c1

> <score_type>
oracle

> <origin>
adg

> <m_score__min__energy>
-15.869999999999999

> <m_primary>
energy

> <minimizedAffinity>
-7.50456

> <minimizedRMSD>
0.50675

> <CNNscore>
0.6185089946

> <CNNaffinity>
6.9755454063

> <CNN_VS>
4.3144373894

> <CNNaffinity_variance>
0.0102076717

$$$$
64:0


 29 31  0  0  0  0  0  0  0  0999 V2000
   60.0679   29.8834   47.5002 C   0  0  0  0  0  0  0  0  0  0  0  0
   59.3305   30.5246   46.5791 C   0  0  0  0  0  0  0  0  0  0  0  0
   58.9212   30.0141   45.3367 C   0  0  0  0  0  0  0  0  0  0  0  0
   58.9394   28.7588   44.8453 C   0  0  0  0  0  0  0  0  0  0  0  0
   58.4593   31.0937   44.6081 C   0  0  0  0  0  0  0  0  0  0  0  0
   58.5357   32.1961   45.4322 C   0  0  0  0  0  0  0  0  0  0  0  0
   58.2287   33.5961   44.9866 C   0  0  0  0  0  0  0  0  0  0  0  0
   59.0168   31.8496   46.6515 N   0  0  0  0  0  0  0  0  0  0  0  0
   58.4795   27.5496   45.5590 C   0  0  0  0  0  0  0  0  0  0  0  0
   57.1083   27.3038   45.7169 C   0  0  0  0  0  0  0  0  0  0  0  0
   56.1659   28.1654   45.1663 O   0  0  0  0  0  0  0  0  0  0  0  0
   56.6905   26.2099   46.4052 N   0  0  0  0  0  0  0  0  0  0  0  0
   57.5799   25.3492   46.9628 C   0  0  0  0  0  0  0  0  0  0  0  0
   57.1683   24.3405   47.5912 O   0  0  0  0  0  0  0  0  0  0  0  0
   58.9126   25.5805   46.8474 N   0  0  0  0  0  0  0  0  0  0  0  0
   59.3819   26.6598   46.1703 C   0  0  0  0  0  0  0  0  0  0  0  0
   60.6255   26.8558   46.1064 O   0  0  0  0  0  0  0  0  0  0  0  0
   59.2629   32.7828   47.7693 C   0  0  0  0  0  0  0  0  0  0  0  0
   60.7437   33.0358   48.0019 C   0  0  0  0  0  0  0  0  0  0  0  0
   61.5316   33.4368   46.9074 C   0  0  0  0  0  0  0  0  0  0  0  0
   62.9102   33.6138   47.0437 C   0  0  0  0  0  0  0  0  0  0  0  0
   63.5215   33.4013   48.2773 C   0  0  0  0  0  0  0  0  0  0  0  0
   62.7559   33.0330   49.3831 C   0  0  0  0  0  0  0  0  0  0  0  0
   61.3644   32.8649   49.2691 C   0  0  0  0  0  0  0  0  0  0  0  0
   60.5992   32.5460   50.4910 C   0  0  0  0  0  0  0  0  0  0  0  0
   60.0501   33.4684   51.1471 O   0  0  0  0  0  0  0  0  0  0  0  0
   60.5090   31.2010   50.9623 N   0  0  0  0  0  0  0  0  0  0  0  0
   60.9354   30.4723   50.4558 H   0  0  0  0  0  0  0  0  0  0  0  0
   60.0204   31.0024   51.7936 H   0  0  0  0  0  0  0  0  0  0  0  0
  1  2  2  0
  2  3  1  0
  3  4  2  0
  4  9  1  0
  9 10  2  0
 10 11  1  0
 10 12  1  0
 12 13  1  0
 13 14  2  0
 13 15  1  0
 15 16  1  0
 16 17  2  0
  3  5  1  0
  5  6  2  0
  6  7  1  0
  6  8  1  0
  8 18  1  0
 18 19  1  0
 19 20  2  0
 20 21  1  0
 21 22  2  0
 22 23  1  0
 23 24  2  0
 24 25  1  0
 25 26  2  0
 25 27  1  0
  8  2  1  0
 24 19  1  0
 16  9  1  0
 27 28  1  0
 27 29  1  0
M  CHG 1  11  -1
M  CHG 1  12  -1
M  CHG 1  15  -1
M  END
> <UniqueID>
65

> <SMILES>
C=c1/c(=C\c2c([O-])[n-]c(=O)[n-]c2=O)cc(C)n1Cc1ccccc1C(N)=O

> <Energy>
93.20497174938949

> <Genealogy>
C=c1c(=Cc2c([O-])[n-]c(=O)[n-]c2=O)cc(C)n1Cc1ccccc1C(N)=O (protonated)
C=c1/c(=C\c2c([O-])[n-]c(=O)[n-]c2=O)cc(C)n1Cc1ccccc1C(N)=O (cis-trans isomerization)
C=c1/c(=C\c2c([O-])[n-]c(=O)[n-]c2=O)cc(C)n1Cc1ccccc1C(N)=O (3D coordinates assigned)
C=c1/c(=C\c2c([O-])[n-]c(=O)[n-]c2=O)cc(C)n1Cc1ccccc1C(N)=O (optimized conformer: 93.20497174938949 kcal/mol)

> <smiles>
C=c1c(=Cc2c(O)[nH]c(=O)[nH]c2=O)cc(C)n1Cc1ccccc1C(N)=O

> <score_type>
oracle

> <origin>
adg

> <m_score__min__energy>
-15.91

> <m_primary>
energy

> <minimizedAffinity>
-7.74596

> <minimizedRMSD>
1.33008

> <CNNscore>
0.6395222545

> <CNNaffinity>
6.9285736084

> <CNN_VS>
4.4309768677

> <CNNaffinity_variance>
0.1576585919

$$$$
66:0


 25 27  0  0  0  0  0  0  0  0999 V2000
   58.8123   29.2305   46.2528 C   0  0  0  0  0  0  0  0  0  0  0  0
   57.8407   29.8328   45.4342 C   0  0  0  0  0  0  0  0  0  0  0  0
   56.9793   29.0688   44.6551 O   0  0  0  0  0  0  0  0  0  0  0  0
   57.7181   31.1802   45.4074 N   0  0  0  0  0  0  0  0  0  0  0  0
   58.5073   31.9849   46.1600 C   0  0  0  0  0  0  0  0  0  0  0  0
   58.3362   33.2322   46.1050 O   0  0  0  0  0  0  0  0  0  0  0  0
   59.4639   31.4434   46.9755 N   0  0  0  0  0  0  0  0  0  0  0  0
   59.6295   30.0819   47.0291 C   0  0  0  0  0  0  0  0  0  0  0  0
   60.5359   29.5879   47.7580 O   0  0  0  0  0  0  0  0  0  0  0  0
   60.3015   32.3049   47.7745 C   0  0  0  0  0  0  0  0  0  0  0  0
   61.5571   32.7163   47.2971 C   0  0  0  0  0  0  0  0  0  0  0  0
   62.3666   33.5506   48.0725 C   0  0  0  0  0  0  0  0  0  0  0  0
   61.9284   33.9801   49.3296 C   0  0  0  0  0  0  0  0  0  0  0  0
   60.6811   33.5748   49.8121 C   0  0  0  0  0  0  0  0  0  0  0  0
   59.8679   32.7406   49.0374 C   0  0  0  0  0  0  0  0  0  0  0  0
   60.0191   27.2145   45.8486 O   0  0  0  0  0  0  0  0  0  0  0  0
   58.9694   27.7506   46.2964 C   0  0  0  0  0  0  0  0  0  0  0  0
   57.9047   26.9272   46.7929 N   0  0  0  0  0  0  0  0  0  0  0  0
   57.3955   25.7296   46.1892 C   0  0  0  0  0  0  0  0  0  0  0  0
   57.5395   25.4668   44.8129 C   0  0  0  0  0  0  0  0  0  0  0  0
   57.0483   24.2756   44.2701 C   0  0  0  0  0  0  0  0  0  0  0  0
   56.4263   23.3326   45.0925 C   0  0  0  0  0  0  0  0  0  0  0  0
   55.9378   22.1496   44.5507 O   0  0  0  0  0  0  0  0  0  0  0  0
   56.3001   23.5780   46.4632 C   0  0  0  0  0  0  0  0  0  0  0  0
   56.7908   24.7680   47.0094 C   0  0  0  0  0  0  0  0  0  0  0  0
 16 17  2  0
 17 18  1  0
 18 19  1  0
 19 20  2  0
 20 21  1  0
 21 22  2  0
 22 23  1  0
 22 24  1  0
 24 25  2  0
 17  1  1  0
  1  2  2  0
  2  3  1  0
  2  4  1  0
  4  5  1  0
  5  6  2  0
  5  7  1  0
  7 10  1  0
 10 11  2  0
 11 12  1  0
 12 13  2  0
 13 14  1  0
 14 15  2  0
  7  8  1  0
  8  9  2  0
 25 19  1  0
  8  1  1  0
 15 10  1  0
M  CHG 1   3  -1
M  CHG 1   4  -1
M  CHG 1  18  -1
M  CHG 1  23  -1
M  END
> <UniqueID>
67

> <SMILES>
O=C([N-]c1ccc([O-])cc1)c1c([O-])[n-]c(=O)n(-c2ccccc2)c1=O

> <Energy>
56.67625346926639

> <Genealogy>
O=C([N-]c1ccc([O-])cc1)c1c([O-])[n-]c(=O)n(-c2ccccc2)c1=O (protonated)
O=C([N-]c1ccc([O-])cc1)c1c([O-])[n-]c(=O)n(-c2ccccc2)c1=O (3D coordinates assigned)
O=C([N-]c1ccc([O-])cc1)c1c([O-])[n-]c(=O)n(-c2ccccc2)c1=O (optimized conformer: 56.67625346926639 kcal/mol)

> <smiles>
O=C(Nc1ccc(O)cc1)c1c(O)[nH]c(=O)n(-c2ccccc2)c1=O

> <score_type>
oracle

> <origin>
adg

> <m_score__min__energy>
-15.26

> <m_primary>
energy

> <minimizedAffinity>
-8.09534

> <minimizedRMSD>
1.61776

> <CNNscore>
0.4704939723

> <CNNaffinity>
6.4803962708

> <CNN_VS>
3.0489873886

> <CNNaffinity_variance>
0.6100963950

$$$$
72:0


 25 27  0  0  0  0  0  0  0  0999 V2000
   57.9324   27.6183   44.0944 C   0  0  0  0  0  0  0  0  0  0  0  0
   58.4161   27.0105   45.1895 C   0  0  0  0  0  0  0  0  0  0  0  0
   58.3641   25.6416   45.5001 C   0  0  0  0  0  0  0  0  0  0  0  0
   57.7059   24.6257   44.9087 C   0  0  0  0  0  0  0  0  0  0  0  0
   59.1498   25.4685   46.6271 C   0  0  0  0  0  0  0  0  0  0  0  0
   59.6111   26.7168   46.9895 C   0  0  0  0  0  0  0  0  0  0  0  0
   60.4873   26.9894   48.1737 C   0  0  0  0  0  0  0  0  0  0  0  0
   59.1543   27.6523   46.1303 N   0  0  0  0  0  0  0  0  0  0  0  0
   59.5002   29.0467   46.1562 C   0  0  0  0  0  0  0  0  0  0  0  0
   60.5142   29.4515   45.5295 O   0  0  0  0  0  0  0  0  0  0  0  0
   56.4466   24.0334   45.3858 C   0  0  0  0  0  0  0  0  0  0  0  0
   56.1153   22.7345   45.2577 N   0  0  0  0  0  0  0  0  0  0  0  0
   54.8378   22.6954   45.6923 C   0  0  0  0  0  0  0  0  0  0  0  0
   54.1687   21.6298   45.7356 O   0  0  0  0  0  0  0  0  0  0  0  0
   54.3276   23.8897   46.0623 N   0  0  0  0  0  0  0  0  0  0  0  0
   55.3554   24.7273   45.8483 C   0  0  0  0  0  0  0  0  0  0  0  0
   55.2973   26.0970   46.0716 O   0  0  0  0  0  0  0  0  0  0  0  0
   58.6150   30.0324   46.8569 C   0  0  0  0  0  0  0  0  0  0  0  0
   58.6658   31.3565   46.1459 C   0  0  0  0  0  0  0  0  0  0  0  0
   59.3861   32.4299   46.6925 C   0  0  0  0  0  0  0  0  0  0  0  0
   59.4030   33.6628   46.0388 C   0  0  0  0  0  0  0  0  0  0  0  0
   58.6951   33.8138   44.8439 C   0  0  0  0  0  0  0  0  0  0  0  0
   57.9957   32.7663   44.3251 N   0  0  0  0  0  0  0  0  0  0  0  0
   57.9597   31.5573   44.9483 C   0  0  0  0  0  0  0  0  0  0  0  0
   57.5051   32.8867   43.4801 H   0  0  0  0  0  0  0  0  0  0  0  0
  1  2  2  0
  2  3  1  0
  3  4  2  0
  4 11  1  0
 11 12  1  0
 12 13  1  0
 13 14  2  0
 13 15  1  0
 15 16  1  0
 16 17  1  0
  3  5  1  0
  5  6  2  0
  6  7  1  0
  6  8  1  0
  8  9  1  0
  9 10  2  0
  9 18  1  0
 18 19  1  0
 19 20  2  0
 20 21  1  0
 21 22  2  0
 22 23  1  0
 23 24  2  0
  8  2  1  0
 24 19  1  0
 16 11  2  0
 23 25  1  0
M  CHG 1  12  -1
M  CHG 1  15  -1
M  CHG 1  17  -1
M  CHG 1  23   1
M  END
> <UniqueID>
73

> <SMILES>
C=c1c(=Cc2[n-]c(=O)[n-]c2[O-])cc(C)n1C(=O)Cc1ccc[nH+]c1

> <Energy>
112.53245574127442

> <Genealogy>
C=c1c(=Cc2[n-]c(=O)[n-]c2[O-])cc(C)n1C(=O)Cc1ccc[nH+]c1 (protonated)
C=c1c(=Cc2[n-]c(=O)[n-]c2[O-])cc(C)n1C(=O)Cc1ccc[nH+]c1 (3D coordinates assigned)
C=c1c(=Cc2[n-]c(=O)[n-]c2[O-])cc(C)n1C(=O)Cc1ccc[nH+]c1 (optimized conformer: 112.53245574127442 kcal/mol)

> <smiles>
C=c1c(=Cc2[nH]c(=O)[nH]c2O)cc(C)n1C(=O)Cc1cccnc1

> <score_type>
oracle

> <origin>
adg

> <m_score__min__energy>
-14.19

> <m_primary>
energy

> <minimizedAffinity>
-8.12767

> <minimizedRMSD>
2.30797

> <CNNscore>
0.1283292472

> <CNNaffinity>
6.2976131439

> <CNN_VS>
0.8081679344

> <CNNaffinity_variance>
0.0624323077

$$$$
91:0


 23 24  0  0  0  0  0  0  0  0999 V2000
   59.3530   30.1497   46.8934 C   0  0  0  0  0  0  0  0  0  0  0  0
   58.9451   29.2684   47.9044 C   0  0  0  0  0  0  0  0  0  0  0  0
   59.0700   27.8886   47.7256 C   0  0  0  0  0  0  0  0  0  0  0  0
   59.5925   27.3713   46.5285 C   0  0  0  0  0  0  0  0  0  0  0  0
   60.0163   28.2599   45.5258 C   0  0  0  0  0  0  0  0  0  0  0  0
   59.8889   29.6403   45.7063 C   0  0  0  0  0  0  0  0  0  0  0  0
   59.2129   31.8916   47.1091 S   0  0  0  0  0  0  0  0  0  0  0  0
   58.9080   32.1754   48.5528 O   0  0  0  0  0  0  0  0  0  0  0  0
   60.4964   32.5819   46.7408 O   0  0  0  0  0  0  0  0  0  0  0  0
   57.9285   32.5121   46.1249 N   0  0  0  0  0  0  0  0  0  0  0  0
   58.0231   32.3271   43.5707 C   0  0  0  0  0  0  0  0  0  0  0  0
   57.4799   31.9113   44.9046 C   0  0  0  0  0  0  0  0  0  0  0  0
   56.6214   30.9920   44.9584 O   0  0  0  0  0  0  0  0  0  0  0  0
   59.7377   25.8837   46.3408 C   0  0  0  0  0  0  0  0  0  0  0  0
   58.6092   25.3351   45.5915 N   0  0  0  0  0  0  0  0  0  0  0  0
   58.0703   24.0072   45.6899 C   0  0  0  0  0  0  0  0  0  0  0  0
   58.8591   23.0337   45.5572 O   0  0  0  0  0  0  0  0  0  0  0  0
   56.6405   23.7332   45.9413 C   0  0  0  0  0  0  0  0  0  0  0  0
   56.1594   22.9272   46.9604 C   0  0  0  0  0  0  0  0  0  0  0  0
   54.7893   22.9126   46.8316 C   0  0  0  0  0  0  0  0  0  0  0  0
   54.5129   23.7011   45.7384 C   0  0  0  0  0  0  0  0  0  0  0  0
   53.2377   23.9567   45.2518 O   0  0  0  0  0  0  0  0  0  0  0  0
   55.6304   24.2021   45.1819 N   0  0  0  0  0  0  0  0  0  0  0  0
 11 12  1  0
 12 13  2  0
 12 10  1  0
 10  7  1  0
  7  8  2  0
  7  9  2  0
  7  1  1  0
  1  2  2  0
  2  3  1  0
  3  4  2  0
  4 14  1  0
 14 15  1  0
 15 16  1  0
 16 17  2  0
 16 18  1  0
 18 19  2  0
 19 20  1  0
 20 21  2  0
 21 22  1  0
 21 23  1  0
  4  5  1  0
  5  6  2  0
  6  1  1  0
 23 18  1  0
M  CHG 1  10  -1
M  CHG 1  15  -1
M  CHG 1  22  -1
M  CHG 1  23  -1
M  END
> <UniqueID>
91

> <SMILES>
CC(=O)[N-]S(=O)(=O)c1ccc(C[N-]C(=O)c2ccc([O-])[n-]2)cc1

> <Energy>
59.450272708787914

> <Genealogy>
CC(=O)[N-]S(=O)(=O)c1ccc(C[N-]C(=O)c2ccc([O-])[n-]2)cc1 (protonated)
CC(=O)[N-]S(=O)(=O)c1ccc(C[N-]C(=O)c2ccc([O-])[n-]2)cc1 (3D coordinates assigned)
CC(=O)[N-]S(=O)(=O)c1ccc(C[N-]C(=O)c2ccc([O-])[n-]2)cc1 (optimized conformer: 59.450272708787914 kcal/mol)

> <smiles>
CC(=O)NS(=O)(=O)c1ccc(CNC(=O)c2ccc(O)[nH]2)cc1

> <score_type>
oracle

> <origin>
adg

> <m_score__min__energy>
-15.109999999999999

> <m_primary>
energy

> <minimizedAffinity>
-6.66069

> <minimizedRMSD>
1.97280

> <CNNscore>
0.1691510528

> <CNNaffinity>
5.3309483528

> <CNN_VS>
0.9017355442

> <CNNaffinity_variance>
0.0396276452

$$$$
8:0


 27 30  0  0  0  0  0  0  0  0999 V2000
   53.9889   27.8631   53.4470 C   0  0  0  0  0  0  0  0  0  0  0  0
   55.0113   28.7273   53.4914 C   0  0  0  0  0  0  0  0  0  0  0  0
   56.2301   28.2124   53.8108 N   0  0  0  0  0  0  0  0  0  0  0  0
   57.3817   28.9195   53.7037 C   0  0  0  0  0  0  0  0  0  0  0  0
   57.3632   30.2169   53.1899 C   0  0  0  0  0  0  0  0  0  0  0  0
   56.1250   30.8006   52.8940 C   0  0  0  0  0  0  0  0  0  0  0  0
   54.9168   30.1026   53.1050 C   0  0  0  0  0  0  0  0  0  0  0  0
   53.7647   30.8032   52.9472 C   0  0  0  0  0  0  0  0  0  0  0  0
   58.6242   30.9767   53.0272 C   0  0  0  0  0  0  0  0  0  0  0  0
   59.4127   31.0693   54.0081 O   0  0  0  0  0  0  0  0  0  0  0  0
   58.9682   31.6188   51.7831 N   0  0  0  0  0  0  0  0  0  0  0  0
   58.6000   31.0274   50.4914 C   0  0  0  0  0  0  0  0  0  0  0  0
   59.7927   31.0699   49.5219 C   0  0  0  0  0  0  0  0  0  0  0  0
   60.5676   32.3467   49.5628 N   0  0  0  0  0  0  0  0  0  0  0  0
   59.9594   33.4020   50.3964 C   0  0  0  0  0  0  0  0  0  0  0  0
   59.7169   32.8781   51.8125 C   0  0  0  0  0  0  0  0  0  0  0  0
   61.0008   32.9018   48.2527 C   0  0  0  0  0  0  0  0  0  0  0  0
   60.5478   32.1070   47.0262 C   0  0  0  0  0  0  0  0  0  0  0  0
   59.7677   33.3250   46.5370 C   0  0  0  0  0  0  0  0  0  0  0  0
   60.2158   34.1201   47.7598 C   0  0  0  0  0  0  0  0  0  0  0  0
   52.8231   30.6978   51.8179 C   0  0  0  0  0  0  0  0  0  0  0  0
   52.9905   29.8459   50.7916 N   0  0  0  0  0  0  0  0  0  0  0  0
   51.9778   30.1609   49.9558 C   0  0  0  0  0  0  0  0  0  0  0  0
   51.7874   29.5588   48.8664 O   0  0  0  0  0  0  0  0  0  0  0  0
   51.1944   31.1774   50.3702 N   0  0  0  0  0  0  0  0  0  0  0  0
   51.7503   31.5170   51.5441 C   0  0  0  0  0  0  0  0  0  0  0  0
   51.3039   32.5731   52.3317 O   0  0  0  0  0  0  0  0  0  0  0  0
  1  2  2  0
  2  3  1  0
  3  4  2  0
  4  5  1  0
  5  9  1  0
  9 10  2  0
  9 11  1  0
 11 12  1  0
 12 13  1  0
 13 14  1  0
 14 17  1  0
 17 18  1  0
 18 19  1  0
 19 20  1  0
 14 15  1  0
 15 16  1  0
  5  6  2  0
  6  7  1  0
  7  8  2  0
  8 21  1  0
 21 22  1  0
 22 23  1  0
 23 24  2  0
 23 25  1  0
 25 26  1  0
 26 27  1  0
  7  2  1  0
 26 21  2  0
 16 11  1  0
 20 17  1  0
M  CHG 1  22  -1
M  CHG 1  25  -1
M  CHG 1  27  -1
M  END
> <UniqueID>
9

> <SMILES>
C=c1ncc(C(=O)N2CCN(C3CCC3)CC2)cc1=Cc1[n-]c(=O)[n-]c1[O-]

> <Energy>
175.55883197154415

> <Genealogy>
C=c1ncc(C(=O)N2CCN(C3CCC3)CC2)cc1=Cc1[n-]c(=O)[n-]c1[O-] (protonated)
C=c1ncc(C(=O)N2CCN(C3CCC3)CC2)cc1=Cc1[n-]c(=O)[n-]c1[O-] (3D coordinates assigned)
C=c1ncc(C(=O)N2CCN(C3CCC3)CC2)cc1=Cc1[n-]c(=O)[n-]c1[O-] (nonaromatic ring conformer: 175.55883197154415 kcal/mol)

> <smiles>
C=c1ncc(C(=O)N2CCN(C3CCC3)CC2)cc1=Cc1[nH]c(=O)[nH]c1O

> <score_type>
oracle

> <origin>
adg

> <m_score__min__energy>
-17.719999999999999

> <m_primary>
energy

> <minimizedAffinity>
-6.20745

> <minimizedRMSD>
1.10872

> <CNNscore>
0.0601871684

> <CNNaffinity>
5.1749029160

> <CNN_VS>
0.3114627600

> <CNNaffinity_variance>
0.1093558744

$$$$
10:0


 43 47  0  0  0  0  0  0  0  0999 V2000
   55.4536   26.1118   46.0189 O   0  0  0  0  0  0  0  0  0  0  0  0
   56.4996   27.0021   45.7810 C   0  0  0  0  0  0  0  0  0  0  0  0
   56.2013   28.2502   45.3457 N   0  0  0  0  0  0  0  0  0  0  0  0
   57.1636   29.1660   45.0770 C   0  0  0  0  0  0  0  0  0  0  0  0
   56.8205   30.3192   44.7004 O   0  0  0  0  0  0  0  0  0  0  0  0
   58.4880   28.8394   45.2183 N   0  0  0  0  0  0  0  0  0  0  0  0
   58.8351   27.5885   45.6686 C   0  0  0  0  0  0  0  0  0  0  0  0
   60.0496   27.2838   45.8273 O   0  0  0  0  0  0  0  0  0  0  0  0
   57.8431   26.6463   45.9815 C   0  0  0  0  0  0  0  0  0  0  0  0
   54.5676   26.3807   45.8751 H   0  0  0  0  0  0  0  0  0  0  0  0
   58.2314   25.3216   46.5135 C   0  0  0  0  0  0  0  0  0  0  0  0
   58.3932   24.2131   45.7724 C   0  0  0  0  0  0  0  0  0  0  0  0
   57.4781   23.0508   45.7388 C   0  0  0  0  0  0  0  0  0  0  0  0
   57.7301   22.0706   46.4889 O   0  0  0  0  0  0  0  0  0  0  0  0
   56.2710   23.0700   44.9584 N   0  0  0  0  0  0  0  0  0  0  0  0
   55.0414   22.9677   45.3806 C   0  0  0  0  0  0  0  0  0  0  0  0
   54.0866   23.7166   44.7651 N   0  0  0  0  0  0  0  0  0  0  0  0
   52.7719   23.6463   45.1033 C   0  0  0  0  0  0  0  0  0  0  0  0
   52.3534   22.7829   46.1222 C   0  0  0  0  0  0  0  0  0  0  0  0
   50.8979   22.6451   46.4568 C   0  0  0  0  0  0  0  0  0  0  0  0
   53.3092   21.9824   46.7582 C   0  0  0  0  0  0  0  0  0  0  0  0
   54.6534   22.0678   46.3946 C   0  0  0  0  0  0  0  0  0  0  0  0
   59.5322   29.8588   44.9843 C   0  0  0  0  0  0  0  0  0  0  0  0
   59.7641   30.7446   46.1932 C   0  0  0  0  0  0  0  0  0  0  0  0
   60.8544   30.4656   47.0338 C   0  0  0  0  0  0  0  0  0  0  0  0
   61.1039   31.2514   48.1631 C   0  0  0  0  0  0  0  0  0  0  0  0
   60.2732   32.3418   48.4666 C   0  0  0  0  0  0  0  0  0  0  0  0
   59.1699   32.6118   47.6401 C   0  0  0  0  0  0  0  0  0  0  0  0
   58.9180   31.8229   46.5165 C   0  0  0  0  0  0  0  0  0  0  0  0
   60.5370   33.1815   49.6563 C   0  0  0  0  0  0  0  0  0  0  0  0
   60.1069   34.3657   49.6961 O   0  0  0  0  0  0  0  0  0  0  0  0
   61.2766   32.6611   50.7740 N   0  0  0  0  0  0  0  0  0  0  0  0
   60.8891   31.4327   51.4446 C   0  0  0  0  0  0  0  0  0  0  0  0
   62.0974   30.5037   51.6342 C   0  0  0  0  0  0  0  0  0  0  0  0
   63.4290   31.1606   51.6453 N   0  0  0  0  0  0  0  0  0  0  0  0
   63.6150   32.6070   51.3800 C   0  0  0  0  0  0  0  0  0  0  0  0
   62.3321   33.4250   51.4099 C   0  0  0  0  0  0  0  0  0  0  0  0
   64.6196   30.3181   51.7625 C   0  0  0  0  0  0  0  0  0  0  0  0
   64.5193   28.9467   52.1091 C   0  0  0  0  0  0  0  0  0  0  0  0
   65.6610   28.1448   52.2066 C   0  0  0  0  0  0  0  0  0  0  0  0
   66.9235   28.6824   51.9649 C   0  0  0  0  0  0  0  0  0  0  0  0
   67.0512   30.0277   51.6242 C   0  0  0  0  0  0  0  0  0  0  0  0
   65.9168   30.8379   51.5215 C   0  0  0  0  0  0  0  0  0  0  0  0
  1  2  1  0
  2  3  1  0
  3  4  1  0
  4  5  2  0
  4  6  1  0
  6 23  1  0
 23 24  1  0
 24 25  2  0
 25 26  1  0
 26 27  2  0
 27 30  1  0
 30 31  2  0
 30 32  1  0
 32 33  1  0
 33 34  1  0
 34 35  1  0
 35 38  1  0
 38 39  2  0
 39 40  1  0
 40 41  2  0
 41 42  1  0
 42 43  2  0
 35 36  1  0
 36 37  1  0
 27 28  1  0
 28 29  2  0
  6  7  1  0
  7  8  2  0
  7  9  1  0
  9 11  1  0
 11 12  2  0
 12 13  1  0
 13 14  2  0
 13 15  1  0
 15 16  2  0
 16 17  1  0
 17 18  1  0
 18 19  2  0
 19 20  1  0
 19 21  1  0
 21 22  2  0
  9  2  2  0
 22 16  1  0
 29 24  1  0
 37 32  1  0
 43 38  1  0
  1 10  1  0
M  CHG 1   3  -1
M  CHG 1  17  -1
M  END
> <UniqueID>
11

> <SMILES>
Cc1cc/c(=N\C(=O)/C=C\c2c(O)[n-]c(=O)n(Cc3ccc(C(=O)N4CCN(c5ccccc5)CC4)cc3)c2=O)[n-]c1

> <Energy>
106.3243372263854

> <Genealogy>
Cc1ccc(=NC(=O)C=Cc2c(O)[n-]c(=O)n(Cc3ccc(C(=O)N4CCN(c5ccccc5)CC4)cc3)c2=O)[n-]c1 (protonated)
Cc1cc/c(=N\C(=O)/C=C\c2c(O)[n-]c(=O)n(Cc3ccc(C(=O)N4CCN(c5ccccc5)CC4)cc3)c2=O)[n-]c1 (cis-trans isomerization)
Cc1cc/c(=N\C(=O)/C=C\c2c(O)[n-]c(=O)n(Cc3ccc(C(=O)N4CCN(c5ccccc5)CC4)cc3)c2=O)[n-]c1 (3D coordinates assigned)
Cc1cc/c(=N\C(=O)/C=C\c2c(O)[n-]c(=O)n(Cc3ccc(C(=O)N4CCN(c5ccccc5)CC4)cc3)c2=O)[n-]c1 (nonaromatic ring conformer: 106.3243372263854 kcal/mol)

> <smiles>
Cc1ccc(=NC(=O)C=Cc2c(O)[nH]c(=O)n(Cc3ccc(C(=O)N4CCN(c5ccccc5)CC4)cc3)c2=O)[nH]c1

> <score_type>
oracle

> <origin>
adg

> <m_score__min__energy>
-14.039999999999999

> <m_primary>
energy

> <minimizedAffinity>
-9.13802

> <minimizedRMSD>
1.03143

> <CNNscore>
0.3047259152

> <CNNaffinity>
7.2341027260

> <CNN_VS>
2.2044186592

> <CNNaffinity_variance>
0.0414092839

$$$$
11:0


 32 35  0  0  0  0  0  0  0  0999 V2000
   58.4880   31.4654   45.7910 C   0  0  0  0  0  0  0  0  0  0  0  0
   56.7595   29.3513   44.4631 C   0  0  0  0  0  0  0  0  0  0  0  0
   57.9640   29.0983   45.0020 C   0  0  0  0  0  0  0  0  0  0  0  0
   58.6108   27.8567   45.0048 C   0  0  0  0  0  0  0  0  0  0  0  0
   58.1418   26.6860   44.5306 C   0  0  0  0  0  0  0  0  0  0  0  0
   59.8255   28.0528   45.6453 C   0  0  0  0  0  0  0  0  0  0  0  0
   59.8769   29.3827   46.0012 C   0  0  0  0  0  0  0  0  0  0  0  0
   61.0453   30.0258   46.6868 C   0  0  0  0  0  0  0  0  0  0  0  0
   58.7494   30.0266   45.6132 N   0  0  0  0  0  0  0  0  0  0  0  0
   57.5449   25.6340   45.3753 C   0  0  0  0  0  0  0  0  0  0  0  0
   58.1618   24.4694   45.6487 N   0  0  0  0  0  0  0  0  0  0  0  0
   57.3151   23.8602   46.5047 C   0  0  0  0  0  0  0  0  0  0  0  0
   57.5423   22.7194   46.9858 O   0  0  0  0  0  0  0  0  0  0  0  0
   56.2115   24.5719   46.8151 N   0  0  0  0  0  0  0  0  0  0  0  0
   56.3771   25.6989   46.1015 C   0  0  0  0  0  0  0  0  0  0  0  0
   55.5022   26.7766   46.1545 O   0  0  0  0  0  0  0  0  0  0  0  0
   58.9423   31.9227   47.1535 C   0  0  0  0  0  0  0  0  0  0  0  0
   58.7252   31.1168   48.2804 C   0  0  0  0  0  0  0  0  0  0  0  0
   59.1315   31.5462   49.5459 C   0  0  0  0  0  0  0  0  0  0  0  0
   59.7745   32.7851   49.7079 C   0  0  0  0  0  0  0  0  0  0  0  0
   59.9825   33.5960   48.5782 C   0  0  0  0  0  0  0  0  0  0  0  0
   59.5753   33.1646   47.3126 C   0  0  0  0  0  0  0  0  0  0  0  0
   60.1891   33.2297   51.0649 C   0  0  0  0  0  0  0  0  0  0  0  0
   59.3076   33.6816   51.8484 O   0  0  0  0  0  0  0  0  0  0  0  0
   61.5801   33.2111   51.4788 N   0  0  0  0  0  0  0  0  0  0  0  0
   61.9990   31.8280   51.8392 C   0  0  0  0  0  0  0  0  0  0  0  0
   62.8066   31.1485   50.7195 C   0  0  0  0  0  0  0  0  0  0  0  0
   64.0200   31.9205   50.3500 N   0  0  0  0  0  0  0  0  0  0  0  0
   65.2205   31.3838   51.0090 C   0  0  0  0  0  0  0  0  0  0  0  0
   63.8996   33.3762   50.5975 C   0  0  0  0  0  0  0  0  0  0  0  0
   62.4465   33.8445   50.4520 C   0  0  0  0  0  0  0  0  0  0  0  0
   61.8125   32.8126   52.3486 H   0  0  0  0  0  0  0  0  0  0  0  0
  2  3  2  0
  3  4  1  0
  4  5  2  0
  5 10  1  0
 10 11  1  0
 11 12  1  0
 12 13  2  0
 12 14  1  0
 14 15  1  0
 15 16  1  0
  4  6  1  0
  6  7  2  0
  7  8  1  0
  7  9  1  0
  9  1  1  0
  1 17  1  0
 17 18  2  0
 18 19  1  0
 19 20  2  0
 20 23  1  0
 23 24  2  0
 23 25  1  0
 25 26  1  0
 26 27  1  0
 27 28  1  0
 28 29  1  0
 28 30  1  0
 30 31  1  0
 20 21  1  0
 21 22  2  0
  9  3  1  0
 22 17  1  0
 15 10  2  0
 31 25  1  0
 25 32  1  0
M  CHG 1  11  -1
M  CHG 1  14  -1
M  CHG 1  16  -1
M  CHG 1  25   1
M  END
> <UniqueID>
12

> <SMILES>
C=c1/c(=C/c2[n-]c(=O)[n-]c2[O-])cc(C)n1Cc1ccc(C(=O)[NH+]2CCN(C)CC2)cc1

> <Energy>
140.49030333744946

> <Genealogy>
C=c1c(=Cc2[n-]c(=O)[n-]c2[O-])cc(C)n1Cc1ccc(C(=O)[NH+]2CCN(C)CC2)cc1 (protonated)
C=c1/c(=C/c2[n-]c(=O)[n-]c2[O-])cc(C)n1Cc1ccc(C(=O)[NH+]2CCN(C)CC2)cc1 (cis-trans isomerization)
C=c1/c(=C/c2[n-]c(=O)[n-]c2[O-])cc(C)n1Cc1ccc(C(=O)[NH+]2CCN(C)CC2)cc1 (3D coordinates assigned)
C=c1/c(=C/c2[n-]c(=O)[n-]c2[O-])cc(C)n1Cc1ccc(C(=O)[NH+]2CCN(C)CC2)cc1 (nonaromatic ring conformer: 140.49030333744946 kcal/mol)

> <smiles>
C=c1c(=Cc2[nH]c(=O)[nH]c2O)cc(C)n1Cc1ccc(C(=O)N2CCN(C)CC2)cc1

> <score_type>
oracle

> <origin>
adg

> <m_score__min__energy>
-16.100000000000001

> <m_primary>
energy

> <minimizedAffinity>
-7.53154

> <minimizedRMSD>
0.71577

> <CNNscore>
0.1312985271

> <CNNaffinity>
6.5536103249

> <CNN_VS>
0.8604793549

> <CNNaffinity_variance>
0.1025359705

$$$$
19:0


 29 31  0  0  0  0  0  0  0  0999 V2000
   58.1957   27.2054   44.0850 C   0  0  0  0  0  0  0  0  0  0  0  0
   58.7624   27.3358   45.2952 C   0  0  0  0  0  0  0  0  0  0  0  0
   58.7795   26.3745   46.3203 C   0  0  0  0  0  0  0  0  0  0  0  0
   58.4198   25.0757   46.3289 C   0  0  0  0  0  0  0  0  0  0  0  0
   59.3004   27.0067   47.4350 C   0  0  0  0  0  0  0  0  0  0  0  0
   59.6334   28.2884   47.0521 C   0  0  0  0  0  0  0  0  0  0  0  0
   60.3266   29.2781   47.9400 C   0  0  0  0  0  0  0  0  0  0  0  0
   59.3168   28.4945   45.7511 N   0  0  0  0  0  0  0  0  0  0  0  0
   57.4367   24.4480   45.4322 C   0  0  0  0  0  0  0  0  0  0  0  0
   57.7244   23.4806   44.5334 N   0  0  0  0  0  0  0  0  0  0  0  0
   56.5140   23.1222   44.0514 C   0  0  0  0  0  0  0  0  0  0  0  0
   56.3638   22.2233   43.1812 O   0  0  0  0  0  0  0  0  0  0  0  0
   55.4866   23.8028   44.6025 N   0  0  0  0  0  0  0  0  0  0  0  0
   54.0582   23.5919   44.3923 C   0  0  0  0  0  0  0  0  0  0  0  0
   56.0708   24.6110   45.5001 C   0  0  0  0  0  0  0  0  0  0  0  0
   55.3858   25.4548   46.3678 O   0  0  0  0  0  0  0  0  0  0  0  0
   59.4723   29.7729   45.0347 C   0  0  0  0  0  0  0  0  0  0  0  0
   58.2855   30.0424   44.0960 C   0  0  0  0  0  0  0  0  0  0  0  0
   57.0906   30.5833   44.8339 C   0  0  0  0  0  0  0  0  0  0  0  0
   56.1412   29.8019   45.1144 O   0  0  0  0  0  0  0  0  0  0  0  0
   56.9409   31.9801   45.1196 N   0  0  0  0  0  0  0  0  0  0  0  0
   57.9525   32.8356   45.6620 C   0  0  0  0  0  0  0  0  0  0  0  0
   58.5752   33.8138   44.8703 C   0  0  0  0  0  0  0  0  0  0  0  0
   59.5837   34.6183   45.4113 C   0  0  0  0  0  0  0  0  0  0  0  0
   59.9892   34.4358   46.7359 C   0  0  0  0  0  0  0  0  0  0  0  0
   59.3920   33.4415   47.5225 C   0  0  0  0  0  0  0  0  0  0  0  0
   58.3824   32.6353   46.9793 C   0  0  0  0  0  0  0  0  0  0  0  0
   59.8198   33.2437   48.8823 C   0  0  0  0  0  0  0  0  0  0  0  0
   60.1634   33.0852   49.9771 N   0  0  0  0  0  0  0  0  0  0  0  0
  1  2  2  0
  2  3  1  0
  3  4  2  0
  4  9  1  0
  9 10  1  0
 10 11  1  0
 11 12  2  0
 11 13  1  0
 13 14  1  0
 13 15  1  0
 15 16  1  0
  3  5  1  0
  5  6  2  0
  6  7  1  0
  6  8  1  0
  8 17  1  0
 17 18  1  0
 18 19  1  0
 19 20  2  0
 19 21  1  0
 21 22  1  0
 22 23  2  0
 23 24  1  0
 24 25  2  0
 25 26  1  0
 26 28  1  0
 28 29  3  0
 26 27  2  0
  8  2  1  0
 27 22  1  0
 15  9  2  0
M  CHG 1  10  -1
M  CHG 1  16  -1
M  CHG 1  21  -1
M  END
> <UniqueID>
20

> <SMILES>
C=c1/c(=C\c2[n-]c(=O)n(C)c2[O-])cc(C)n1CCC(=O)[N-]c1cccc(C#N)c1

> <Energy>
121.75416835612121

> <Genealogy>
C=c1c(=Cc2[n-]c(=O)n(C)c2[O-])cc(C)n1CCC(=O)[N-]c1cccc(C#N)c1 (protonated)
C=c1/c(=C\c2[n-]c(=O)n(C)c2[O-])cc(C)n1CCC(=O)[N-]c1cccc(C#N)c1 (cis-trans isomerization)
C=c1/c(=C\c2[n-]c(=O)n(C)c2[O-])cc(C)n1CCC(=O)[N-]c1cccc(C#N)c1 (3D coordinates assigned)
C=c1/c(=C\c2[n-]c(=O)n(C)c2[O-])cc(C)n1CCC(=O)[N-]c1cccc(C#N)c1 (optimized conformer: 121.75416835612121 kcal/mol)

> <smiles>
C=c1c(=Cc2[nH]c(=O)n(C)c2O)cc(C)n1CCC(=O)Nc1cccc(C#N)c1

> <score_type>
oracle

> <origin>
adg

> <m_score__min__energy>
-15.609999999999999

> <m_primary>
energy

> <minimizedAffinity>
-8.42778

> <minimizedRMSD>
0.97222

> <CNNscore>
0.4311090112

> <CNNaffinity>
6.8870444298

> <CNN_VS>
2.9690668583

> <CNNaffinity_variance>
0.0002024080

$$$$
25:0


 29 31  0  0  0  0  0  0  0  0999 V2000
   59.0475   28.7769   47.6946 O   0  0  0  0  0  0  0  0  0  0  0  0
   59.0191   29.1244   46.4802 C   0  0  0  0  0  0  0  0  0  0  0  0
   58.8557   30.5209   46.1422 N   0  0  0  0  0  0  0  0  0  0  0  0
   59.1708   31.5481   47.1063 C   0  0  0  0  0  0  0  0  0  0  0  0
   58.2680   31.9843   47.8715 O   0  0  0  0  0  0  0  0  0  0  0  0
   60.5413   32.0889   47.2440 C   0  0  0  0  0  0  0  0  0  0  0  0
   61.5673   31.2323   47.6757 C   0  0  0  0  0  0  0  0  0  0  0  0
   62.8784   31.6988   47.7907 C   0  0  0  0  0  0  0  0  0  0  0  0
   63.1762   33.0283   47.4863 C   0  0  0  0  0  0  0  0  0  0  0  0
   62.1613   33.8973   47.0784 C   0  0  0  0  0  0  0  0  0  0  0  0
   60.8429   33.4404   46.9607 C   0  0  0  0  0  0  0  0  0  0  0  0
   59.5663   34.6242   46.5279 S   0  0  0  0  0  0  0  0  0  0  0  0
   60.1323   35.8412   46.3080 H   0  0  0  0  0  0  0  0  0  0  0  0
   58.2380   30.9065   44.8976 C   0  0  0  0  0  0  0  0  0  0  0  0
   57.3321   30.0413   44.2612 C   0  0  0  0  0  0  0  0  0  0  0  0
   56.7359   30.4104   43.0512 C   0  0  0  0  0  0  0  0  0  0  0  0
   57.0438   31.6418   42.4653 C   0  0  0  0  0  0  0  0  0  0  0  0
   57.9507   32.5036   43.0871 C   0  0  0  0  0  0  0  0  0  0  0  0
   58.5494   32.1379   44.2962 C   0  0  0  0  0  0  0  0  0  0  0  0
   59.0909   28.0573   45.4144 C   0  0  0  0  0  0  0  0  0  0  0  0
   58.5144   26.7456   45.9021 C   0  0  0  0  0  0  0  0  0  0  0  0
   57.1231   26.5502   45.9658 C   0  0  0  0  0  0  0  0  0  0  0  0
   56.2440   27.5454   45.5536 O   0  0  0  0  0  0  0  0  0  0  0  0
   56.6217   25.3787   46.4361 N   0  0  0  0  0  0  0  0  0  0  0  0
   57.4421   24.3807   46.8512 C   0  0  0  0  0  0  0  0  0  0  0  0
   56.9541   23.3056   47.2835 O   0  0  0  0  0  0  0  0  0  0  0  0
   58.7887   24.5411   46.7987 N   0  0  0  0  0  0  0  0  0  0  0  0
   59.3414   25.6930   46.3369 C   0  0  0  0  0  0  0  0  0  0  0  0
   60.5952   25.7997   46.2985 O   0  0  0  0  0  0  0  0  0  0  0  0
  1  2  2  0
  2 20  1  0
 20 21  1  0
 21 22  2  0
 22 23  1  0
 22 24  1  0
 24 25  1  0
 25 26  2  0
 25 27  1  0
 27 28  1  0
 28 29  2  0
  2  3  1  0
  3  4  1  0
  4  5  2  0
  4  6  1  0
  6  7  2  0
  7  8  1  0
  8  9  2  0
  9 10  1  0
 10 11  2  0
 11 12  1  0
  3 14  1  0
 14 15  2  0
 15 16  1  0
 16 17  2  0
 17 18  1  0
 18 19  2  0
 28 21  1  0
 11  6  1  0
 19 14  1  0
 12 13  1  0
M  CHG 1  23  -1
M  CHG 1  24  -1
M  CHG 1  27  -1
M  END
> <UniqueID>
26

> <SMILES>
O=C(Cc1c([O-])[n-]c(=O)[n-]c1=O)N(C(=O)c1ccccc1S)c1ccccc1

> <Energy>
58.25868569196152

> <Genealogy>
O=C(Cc1c([O-])[n-]c(=O)[n-]c1=O)N(C(=O)c1ccccc1S)c1ccccc1 (protonated)
O=C(Cc1c([O-])[n-]c(=O)[n-]c1=O)N(C(=O)c1ccccc1S)c1ccccc1 (3D coordinates assigned)
O=C(Cc1c([O-])[n-]c(=O)[n-]c1=O)N(C(=O)c1ccccc1S)c1ccccc1 (optimized conformer: 58.25868569196152 kcal/mol)

> <smiles>
O=C(Cc1c(O)[nH]c(=O)[nH]c1=O)N(C(=O)c1ccccc1S)c1ccccc1

> <score_type>
oracle

> <origin>
adg

> <m_score__min__energy>
-15.83

> <m_primary>
energy

> <minimizedAffinity>
-6.92808

> <minimizedRMSD>
0.96077

> <CNNscore>
0.1949524283

> <CNNaffinity>
6.4140224457

> <CNN_VS>
1.2504292727

> <CNNaffinity_variance>
0.0159675423

$$$$
26:0


 31 34  0  0  0  0  0  0  0  0999 V2000
   60.2248   28.2971   45.7705 N   0  0  0  0  0  0  0  0  0  0  0  0
   59.5626   29.5684   45.7274 C   0  0  0  0  0  0  0  0  0  0  0  0
   58.6703   29.8980   44.6929 C   0  0  0  0  0  0  0  0  0  0  0  0
   58.0329   31.1420   44.6851 C   0  0  0  0  0  0  0  0  0  0  0  0
   58.2671   32.0563   45.7137 C   0  0  0  0  0  0  0  0  0  0  0  0
   59.1323   31.7267   46.7656 C   0  0  0  0  0  0  0  0  0  0  0  0
   59.7742   30.4794   46.7704 C   0  0  0  0  0  0  0  0  0  0  0  0
   59.4408   32.9002   48.0416 S   0  0  0  0  0  0  0  0  0  0  0  0
   58.8753   32.4040   49.3443 O   0  0  0  0  0  0  0  0  0  0  0  0
   58.7598   34.1917   47.6837 O   0  0  0  0  0  0  0  0  0  0  0  0
   61.1609   33.1615   48.1908 N   0  0  0  0  0  0  0  0  0  0  0  0
   61.7523   33.3900   46.8640 C   0  0  0  0  0  0  0  0  0  0  0  0
   63.2833   33.5455   46.9795 C   0  0  0  0  0  0  0  0  0  0  0  0
   63.7343   33.3791   48.3112 O   0  0  0  0  0  0  0  0  0  0  0  0
   63.3259   32.1143   48.7963 C   0  0  0  0  0  0  0  0  0  0  0  0
   61.7892   31.9947   48.8346 C   0  0  0  0  0  0  0  0  0  0  0  0
   60.6782   26.9085   47.5726 O   0  0  0  0  0  0  0  0  0  0  0  0
   59.8888   27.2054   46.6380 C   0  0  0  0  0  0  0  0  0  0  0  0
   58.6771   26.3900   46.4292 C   0  0  0  0  0  0  0  0  0  0  0  0
   57.3613   26.8201   46.4882 C   0  0  0  0  0  0  0  0  0  0  0  0
   56.5958   25.7154   46.1881 C   0  0  0  0  0  0  0  0  0  0  0  0
   55.2091   25.7195   46.1025 O   0  0  0  0  0  0  0  0  0  0  0  0
   57.3722   24.6364   45.9478 N   0  0  0  0  0  0  0  0  0  0  0  0
   58.6506   25.0492   46.0810 C   0  0  0  0  0  0  0  0  0  0  0  0
   56.9428   23.3081   45.5956 C   0  0  0  0  0  0  0  0  0  0  0  0
   57.1325   22.8221   44.2900 C   0  0  0  0  0  0  0  0  0  0  0  0
   56.7218   21.5308   43.9473 C   0  0  0  0  0  0  0  0  0  0  0  0
   56.1239   20.7084   44.9058 C   0  0  0  0  0  0  0  0  0  0  0  0
   55.7168   19.4250   44.5638 O   0  0  0  0  0  0  0  0  0  0  0  0
   55.9383   21.1765   46.2084 C   0  0  0  0  0  0  0  0  0  0  0  0
   56.3453   22.4691   46.5543 C   0  0  0  0  0  0  0  0  0  0  0  0
 17 18  2  0
 18  1  1  0
  1  2  1  0
  2  3  2  0
  3  4  1  0
  4  5  2  0
  5  6  1  0
  6  8  1  0
  8  9  2  0
  8 10  2  0
  8 11  1  0
 11 12  1  0
 12 13  1  0
 13 14  1  0
 14 15  1  0
 15 16  1  0
  6  7  2  0
 18 19  1  0
 19 20  1  0
 20 21  2  0
 21 22  1  0
 21 23  1  0
 23 25  1  0
 25 26  2  0
 26 27  1  0
 27 28  2  0
 28 29  1  0
 28 30  1  0
 30 31  2  0
 23 24  1  0
  7  2  1  0
 24 19  2  0
 16 11  1  0
 31 25  1  0
M  CHG 1   1  -1
M  CHG 1  22  -1
M  CHG 1  29  -1
M  END
> <UniqueID>
27

> <SMILES>
O=C([N-]c1cccc(S(=O)(=O)N2CCOCC2)c1)c1cc([O-])n(-c2ccc([O-])cc2)c1

> <Energy>
96.69636782272599

> <Genealogy>
O=C([N-]c1cccc(S(=O)(=O)N2CCOCC2)c1)c1cc([O-])n(-c2ccc([O-])cc2)c1 (protonated)
O=C([N-]c1cccc(S(=O)(=O)N2CCOCC2)c1)c1cc([O-])n(-c2ccc([O-])cc2)c1 (3D coordinates assigned)
O=C([N-]c1cccc(S(=O)(=O)N2CCOCC2)c1)c1cc([O-])n(-c2ccc([O-])cc2)c1 (nonaromatic ring conformer: 96.69636782272599 kcal/mol)

> <smiles>
O=C(Nc1cccc(S(=O)(=O)N2CCOCC2)c1)c1cc(O)n(-c2ccc(O)cc2)c1

> <score_type>
oracle

> <origin>
adg

> <m_score__min__energy>
-15.23

> <m_primary>
energy

> <minimizedAffinity>
-8.80158

> <minimizedRMSD>
1.37326

> <CNNscore>
0.2269207090

> <CNNaffinity>
6.4507827759

> <CNN_VS>
1.4638161659

> <CNNaffinity_variance>
0.0202823970

$$$$
33:0


 33 36  0  0  0  0  0  0  0  0999 V2000
   59.3668   29.6518   48.0930 C   0  0  0  0  0  0  0  0  0  0  0  0
   59.1228   29.9357   46.8045 C   0  0  0  0  0  0  0  0  0  0  0  0
   59.1530   29.0329   45.7377 C   0  0  0  0  0  0  0  0  0  0  0  0
   59.5253   27.7389   45.7759 C   0  0  0  0  0  0  0  0  0  0  0  0
   58.7695   29.7484   44.6095 C   0  0  0  0  0  0  0  0  0  0  0  0
   58.5229   31.0419   45.0269 C   0  0  0  0  0  0  0  0  0  0  0  0
   58.1019   32.1658   44.1294 C   0  0  0  0  0  0  0  0  0  0  0  0
   58.7467   31.1593   46.3535 N   0  0  0  0  0  0  0  0  0  0  0  0
   58.6222   32.3693   47.1213 C   0  0  0  0  0  0  0  0  0  0  0  0
   57.4743   32.8089   47.4058 O   0  0  0  0  0  0  0  0  0  0  0  0
   59.7897   33.0692   47.5810 N   0  0  0  0  0  0  0  0  0  0  0  0
   59.7505   33.7623   48.8769 C   0  0  0  0  0  0  0  0  0  0  0  0
   61.1338   34.2876   49.2741 C   0  0  0  0  0  0  0  0  0  0  0  0
   62.1593   33.2896   48.9378 N   0  0  0  0  0  0  0  0  0  0  0  0
   63.0455   32.7668   49.9437 C   0  0  0  0  0  0  0  0  0  0  0  0
   63.9666   31.9670   49.6180 O   0  0  0  0  0  0  0  0  0  0  0  0
   62.2290   32.7542   47.5689 C   0  0  0  0  0  0  0  0  0  0  0  0
   60.9956   33.1461   46.7460 C   0  0  0  0  0  0  0  0  0  0  0  0
   58.5826   26.6088   45.8405 C   0  0  0  0  0  0  0  0  0  0  0  0
   58.9637   25.3465   46.1055 N   0  0  0  0  0  0  0  0  0  0  0  0
   57.7948   24.6685   46.1544 C   0  0  0  0  0  0  0  0  0  0  0  0
   57.7388   23.4307   46.3730 O   0  0  0  0  0  0  0  0  0  0  0  0
   56.6930   25.4256   45.9631 N   0  0  0  0  0  0  0  0  0  0  0  0
   57.2059   26.6520   45.7799 C   0  0  0  0  0  0  0  0  0  0  0  0
   56.4280   27.7926   45.6143 O   0  0  0  0  0  0  0  0  0  0  0  0
   62.8662   33.1137   51.2889 O   0  0  0  0  0  0  0  0  0  0  0  0
   62.2761   32.2376   52.2493 C   0  0  0  0  0  0  0  0  0  0  0  0
   60.7753   32.2899   52.1373 C   0  0  0  0  0  0  0  0  0  0  0  0
   60.0536   33.3755   52.6647 C   0  0  0  0  0  0  0  0  0  0  0  0
   58.6567   33.3894   52.6025 C   0  0  0  0  0  0  0  0  0  0  0  0
   57.9696   32.3200   52.0195 C   0  0  0  0  0  0  0  0  0  0  0  0
   58.6803   31.2367   51.4947 C   0  0  0  0  0  0  0  0  0  0  0  0
   60.0784   31.2189   51.5549 C   0  0  0  0  0  0  0  0  0  0  0  0
  1  2  2  0
  2  3  1  0
  3  4  2  0
  4 19  1  0
 19 20  1  0
 20 21  1  0
 21 22  2  0
 21 23  1  0
 23 24  1  0
 24 25  1  0
  3  5  1  0
  5  6  2  0
  6  7  1  0
  6  8  1  0
  8  9  1  0
  9 10  2  0
  9 11  1  0
 11 12  1  0
 12 13  1  0
 13 14  1  0
 14 15  1  0
 15 16  2  0
 15 26  1  0
 26 27  1  0
 27 28  1  0
 28 29  2  0
 29 30  1  0
 30 31  2  0
 31 32  1  0
 32 33  2  0
 14 17  1  0
 17 18  1  0
  8  2  1  0
 18 11  1  0
 24 19  2  0
 33 28  1  0
M  CHG 1  20  -1
M  CHG 1  23  -1
M  CHG 1  25  -1
M  END
> <UniqueID>
33

> <SMILES>
C=c1/c(=C/c2[n-]c(=O)[n-]c2[O-])cc(C)n1C(=O)N1CCN(C(=O)OCc2ccccc2)CC1

> <Energy>
126.54577166524224

> <Genealogy>
C=c1c(=Cc2[n-]c(=O)[n-]c2[O-])cc(C)n1C(=O)N1CCN(C(=O)OCc2ccccc2)CC1 (protonated)
C=c1/c(=C/c2[n-]c(=O)[n-]c2[O-])cc(C)n1C(=O)N1CCN(C(=O)OCc2ccccc2)CC1 (cis-trans isomerization)
C=c1/c(=C/c2[n-]c(=O)[n-]c2[O-])cc(C)n1C(=O)N1CCN(C(=O)OCc2ccccc2)CC1 (3D coordinates assigned)
C=c1/c(=C/c2[n-]c(=O)[n-]c2[O-])cc(C)n1C(=O)N1CCN(C(=O)OCc2ccccc2)CC1 (nonaromatic ring conformer: 126.54577166524224 kcal/mol)

> <smiles>
C=c1c(=Cc2[nH]c(=O)[nH]c2O)cc(C)n1C(=O)N1CCN(C(=O)OCc2ccccc2)CC1

> <score_type>
oracle

> <origin>
adg

> <m_score__min__energy>
-17.75

> <m_primary>
energy

> <minimizedAffinity>
-8.31300

> <minimizedRMSD>
0.95489

> <CNNscore>
0.2874433398

> <CNNaffinity>
6.9342751503

> <CNN_VS>
1.9932111502

> <CNNaffinity_variance>
0.0747051612

$$$$
35:0


 33 37  0  0  0  0  0  0  0  0999 V2000
   60.5145   28.1705   49.0383 C   0  0  0  0  0  0  0  0  0  0  0  0
   60.0853   29.1151   48.1806 C   0  0  0  0  0  0  0  0  0  0  0  0
   59.8987   28.9212   46.8082 C   0  0  0  0  0  0  0  0  0  0  0  0
   59.9976   27.7661   46.1180 C   0  0  0  0  0  0  0  0  0  0  0  0
   59.5424   30.1472   46.2908 C   0  0  0  0  0  0  0  0  0  0  0  0
   59.5136   31.0344   47.3426 C   0  0  0  0  0  0  0  0  0  0  0  0
   59.8246   30.4160   48.5182 N   0  0  0  0  0  0  0  0  0  0  0  0
   58.9449   26.7354   46.0826 C   0  0  0  0  0  0  0  0  0  0  0  0
   59.1895   25.4247   46.2527 N   0  0  0  0  0  0  0  0  0  0  0  0
   57.9799   24.8528   46.0675 C   0  0  0  0  0  0  0  0  0  0  0  0
   57.7958   23.6119   46.1600 O   0  0  0  0  0  0  0  0  0  0  0  0
   56.9861   25.7156   45.7666 N   0  0  0  0  0  0  0  0  0  0  0  0
   57.6148   26.9029   45.7665 C   0  0  0  0  0  0  0  0  0  0  0  0
   56.9948   28.1051   45.4454 O   0  0  0  0  0  0  0  0  0  0  0  0
   56.0800   28.1212   45.2432 H   0  0  0  0  0  0  0  0  0  0  0  0
   59.9585   30.9829   49.8909 C   0  0  0  0  0  0  0  0  0  0  0  0
   58.5817   31.1419   50.5736 C   0  0  0  0  0  0  0  0  0  0  0  0
   58.1944   29.9392   51.4309 C   0  0  0  0  0  0  0  0  0  0  0  0
   59.2607   29.6873   52.4920 C   0  0  0  0  0  0  0  0  0  0  0  0
   60.5911   29.3173   51.8386 C   0  0  0  0  0  0  0  0  0  0  0  0
   61.0597   30.3530   50.7956 C   0  0  0  0  0  0  0  0  0  0  0  0
   59.1825   32.4473   47.1411 C   0  0  0  0  0  0  0  0  0  0  0  0
   58.0688   32.8787   47.5354 O   0  0  0  0  0  0  0  0  0  0  0  0
   60.1338   33.3664   46.5873 N   0  0  0  0  0  0  0  0  0  0  0  0
   61.2961   33.8930   47.3043 C   0  0  0  0  0  0  0  0  0  0  0  0
   61.0078   33.8674   48.8163 C   0  0  0  0  0  0  0  0  0  0  0  0
   62.3187   33.9072   49.6123 C   0  0  0  0  0  0  0  0  0  0  0  0
   63.1956   32.7405   49.3412 N   0  0  0  0  0  0  0  0  0  0  0  0
   62.9279   32.0763   48.0343 C   0  0  0  0  0  0  0  0  0  0  0  0
   62.5653   33.0862   46.9381 C   0  0  0  0  0  0  0  0  0  0  0  0
   64.5992   33.0992   49.6919 C   0  0  0  0  0  0  0  0  0  0  0  0
   64.8211   33.3844   51.1703 C   0  0  0  0  0  0  0  0  0  0  0  0
   65.4584   32.1550   50.5297 C   0  0  0  0  0  0  0  0  0  0  0  0
  1  2  2  0
  2  3  1  0
  3  4  2  0
  4  8  1  0
  8  9  1  0
  9 10  1  0
 10 11  2  0
 10 12  1  0
 12 13  1  0
 13 14  1  0
  3  5  1  0
  5  6  2  0
  6 22  1  0
 22 23  2  0
 22 24  1  0
 24 25  1  0
 25 26  1  0
 26 27  1  0
 27 28  1  0
 28 31  1  0
 31 32  1  0
 32 33  1  0
 28 29  1  0
 29 30  1  0
  6  7  1  0
  7 16  1  0
 16 17  1  0
 17 18  1  0
 18 19  1  0
 19 20  1  0
 20 21  1  0
  7  2  1  0
 21 16  1  0
 13  8  2  0
 30 25  1  0
 33 31  1  0
 14 15  1  0
M  CHG 1   9  -1
M  CHG 1  12  -1
M  CHG 1  24  -1
M  END
> <UniqueID>
35

> <SMILES>
C=c1c(=Cc2[n-]c(=O)[n-]c2O)cc(C(=O)[N-]C2CCN(C3CC3)CC2)n1C1CCCCC1

> <Energy>
425.8031684367641

> <Genealogy>
C=c1c(=Cc2[n-]c(=O)[n-]c2O)cc(C(=O)[N-]C2CCN(C3CC3)CC2)n1C1CCCCC1 (protonated)
C=c1c(=Cc2[n-]c(=O)[n-]c2O)cc(C(=O)[N-]C2CCN(C3CC3)CC2)n1C1CCCCC1 (3D coordinates assigned)
C=c1c(=Cc2[n-]c(=O)[n-]c2O)cc(C(=O)[N-]C2CCN(C3CC3)CC2)n1C1CCCCC1 (nonaromatic ring conformer: 425.8031684367641 kcal/mol)

> <smiles>
C=c1c(=Cc2[nH]c(=O)[nH]c2O)cc(C(=O)NC2CCN(C3CC3)CC2)n1C1CCCCC1

> <score_type>
oracle

> <origin>
adg

> <m_score__min__energy>
-15.19

> <m_primary>
energy

> <minimizedAffinity>
-8.67959

> <minimizedRMSD>
1.24046

> <CNNscore>
0.2201879919

> <CNNaffinity>
6.4873585701

> <CNN_VS>
1.4284384251

> <CNNaffinity_variance>
0.1272815317

$$$$
59:0


 31 34  0  0  0  0  0  0  0  0999 V2000
   55.2166   27.9842   53.9445 C   0  0  0  0  0  0  0  0  0  0  0  0
   55.6038   29.1540   53.4069 C   0  0  0  0  0  0  0  0  0  0  0  0
   54.7492   30.1818   52.9839 C   0  0  0  0  0  0  0  0  0  0  0  0
   53.3995   30.1878   53.0048 C   0  0  0  0  0  0  0  0  0  0  0  0
   55.5640   31.2426   52.6313 C   0  0  0  0  0  0  0  0  0  0  0  0
   56.8659   30.8250   52.8178 C   0  0  0  0  0  0  0  0  0  0  0  0
   56.9013   29.5469   53.2752 N   0  0  0  0  0  0  0  0  0  0  0  0
   52.5459   30.3257   51.8062 C   0  0  0  0  0  0  0  0  0  0  0  0
   52.6644   29.5365   50.7229 N   0  0  0  0  0  0  0  0  0  0  0  0
   51.8375   30.1087   49.8225 C   0  0  0  0  0  0  0  0  0  0  0  0
   51.6861   29.6583   48.6586 O   0  0  0  0  0  0  0  0  0  0  0  0
   51.2231   31.2314   50.2512 N   0  0  0  0  0  0  0  0  0  0  0  0
   51.6908   31.3653   51.5032 C   0  0  0  0  0  0  0  0  0  0  0  0
   51.4057   32.4612   52.3130 O   0  0  0  0  0  0  0  0  0  0  0  0
   58.0136   31.7501   52.7572 C   0  0  0  0  0  0  0  0  0  0  0  0
   58.7109   31.9019   53.7997 O   0  0  0  0  0  0  0  0  0  0  0  0
   58.2278   32.6035   51.6078 N   0  0  0  0  0  0  0  0  0  0  0  0
   59.3234   33.5724   51.8885 C   0  0  0  0  0  0  0  0  0  0  0  0
   60.6640   33.1901   51.2391 C   0  0  0  0  0  0  0  0  0  0  0  0
   60.5006   32.9465   49.7986 N   0  0  0  0  0  0  0  0  0  0  0  0
   61.6287   33.0290   48.8988 C   0  0  0  0  0  0  0  0  0  0  0  0
   61.4682   32.8087   47.6674 O   0  0  0  0  0  0  0  0  0  0  0  0
   59.1772   32.5507   49.2923 C   0  0  0  0  0  0  0  0  0  0  0  0
   58.4185   31.7857   50.3809 C   0  0  0  0  0  0  0  0  0  0  0  0
   57.9146   31.9493   52.2735 H   0  0  0  0  0  0  0  0  0  0  0  0
   63.0039   33.3801   49.4129 C   0  0  0  0  0  0  0  0  0  0  0  0
   64.1161   33.0278   48.4324 C   0  0  0  0  0  0  0  0  0  0  0  0
   63.9511   32.2223   49.7135 C   0  0  0  0  0  0  0  0  0  0  0  0
   58.0973   28.8137   53.7255 C   0  0  0  0  0  0  0  0  0  0  0  0
   59.1329   28.6389   52.6011 C   0  0  0  0  0  0  0  0  0  0  0  0
   60.5509   28.9689   53.0484 C   0  0  0  0  0  0  0  0  0  0  0  0
  1  2  2  0
  2  3  1  0
  3  4  2  0
  4  8  1  0
  8  9  1  0
  9 10  1  0
 10 11  2  0
 10 12  1  0
 12 13  1  0
 13 14  1  0
  3  5  1  0
  5  6  2  0
  6 15  1  0
 15 16  2  0
 15 17  1  0
 17 18  1  0
 18 19  1  0
 19 20  1  0
 20 21  1  0
 21 22  2  0
 21 26  1  0
 26 27  1  0
 27 28  1  0
 20 23  1  0
 23 24  1  0
  6  7  1  0
  7 29  1  0
 29 30  1  0
 30 31  1  0
  7  2  1  0
 13  8  2  0
 24 17  1  0
 28 26  1  0
 17 25  1  0
M  CHG 1   9  -1
M  CHG 1  12  -1
M  CHG 1  14  -1
M  CHG 1  17   1
M  END
> <UniqueID>
58

> <SMILES>
C=c1c(=Cc2[n-]c(=O)[n-]c2[O-])cc(C(=O)[NH+]2CCN(C(=O)C3CC3)CC2)n1CCC

> <Energy>
399.26281060011854

> <Genealogy>
C=c1c(=Cc2[n-]c(=O)[n-]c2[O-])cc(C(=O)[NH+]2CCN(C(=O)C3CC3)CC2)n1CCC (protonated)
C=c1c(=Cc2[n-]c(=O)[n-]c2[O-])cc(C(=O)[NH+]2CCN(C(=O)C3CC3)CC2)n1CCC (3D coordinates assigned)
C=c1c(=Cc2[n-]c(=O)[n-]c2[O-])cc(C(=O)[NH+]2CCN(C(=O)C3CC3)CC2)n1CCC (nonaromatic ring conformer: 399.26281060011854 kcal/mol)

> <smiles>
C=c1c(=Cc2[nH]c(=O)[nH]c2O)cc(C(=O)N2CCN(C(=O)C3CC3)CC2)n1CCC

> <score_type>
oracle

> <origin>
adg

> <m_score__min__energy>
-15.449999999999999

> <m_primary>
energy

> <minimizedAffinity>
-5.01645

> <minimizedRMSD>
0.86261

> <CNNscore>
0.0511622615

> <CNNaffinity>
4.9559226036

> <CNN_VS>
0.2535562217

> <CNNaffinity_variance>
0.3837030828

$$$$
76:0


 28 30  0  0  0  0  0  0  0  0999 V2000
   58.7809   26.5048   47.5675 C   0  0  0  0  0  0  0  0  0  0  0  0
   58.4535   27.3264   46.5685 C   0  0  0  0  0  0  0  0  0  0  0  0
   58.5411   28.6310   46.6733 O   0  0  0  0  0  0  0  0  0  0  0  0
   58.1600   29.1684   45.5391 C   0  0  0  0  0  0  0  0  0  0  0  0
   57.8062   28.1886   44.6337 C   0  0  0  0  0  0  0  0  0  0  0  0
   57.9946   26.9845   45.2958 C   0  0  0  0  0  0  0  0  0  0  0  0
   57.7413   25.7488   44.8252 C   0  0  0  0  0  0  0  0  0  0  0  0
   57.1375   24.6667   45.6266 C   0  0  0  0  0  0  0  0  0  0  0  0
   57.7666   23.5400   46.0075 N   0  0  0  0  0  0  0  0  0  0  0  0
   56.8471   22.9090   46.7692 C   0  0  0  0  0  0  0  0  0  0  0  0
   57.0672   21.7993   47.3207 O   0  0  0  0  0  0  0  0  0  0  0  0
   55.6764   23.5670   46.9027 N   0  0  0  0  0  0  0  0  0  0  0  0
   55.8832   24.6809   46.1804 C   0  0  0  0  0  0  0  0  0  0  0  0
   54.9406   25.6901   46.0313 O   0  0  0  0  0  0  0  0  0  0  0  0
   58.1365   30.6442   45.2843 C   0  0  0  0  0  0  0  0  0  0  0  0
   59.0699   31.4024   46.2319 C   0  0  0  0  0  0  0  0  0  0  0  0
   58.5294   32.7706   46.5609 C   0  0  0  0  0  0  0  0  0  0  0  0
   57.4494   32.8439   47.2105 O   0  0  0  0  0  0  0  0  0  0  0  0
   59.2638   33.9791   46.2752 N   0  0  0  0  0  0  0  0  0  0  0  0
   59.2197   34.5068   44.9087 C   0  0  0  0  0  0  0  0  0  0  0  0
   60.0446   34.6906   47.2991 C   0  0  0  0  0  0  0  0  0  0  0  0
   61.1638   33.8207   47.8152 C   0  0  0  0  0  0  0  0  0  0  0  0
   62.2246   33.5859   46.9930 N   0  0  0  0  0  0  0  0  0  0  0  0
   63.2719   32.8022   47.3607 C   0  0  0  0  0  0  0  0  0  0  0  0
   63.2841   32.2014   48.6179 C   0  0  0  0  0  0  0  0  0  0  0  0
   62.2144   32.4136   49.4865 C   0  0  0  0  0  0  0  0  0  0  0  0
   61.1339   33.2246   49.0982 C   0  0  0  0  0  0  0  0  0  0  0  0
   60.0107   33.4762   50.0672 C   0  0  0  0  0  0  0  0  0  0  0  0
  1  2  2  0
  2  3  1  0
  3  4  1  0
  4 15  1  0
 15 16  1  0
 16 17  1  0
 17 18  2  0
 17 19  1  0
 19 20  1  0
 19 21  1  0
 21 22  1  0
 22 23  2  0
 23 24  1  0
 24 25  2  0
 25 26  1  0
 26 27  2  0
 27 28  1  0
  4  5  2  0
  5  6  1  0
  6  7  2  0
  7  8  1  0
  8  9  1  0
  9 10  1  0
 10 11  2  0
 10 12  1  0
 12 13  1  0
 13 14  1  0
  6  2  1  0
 13  8  2  0
 27 22  1  0
M  CHG 1   9  -1
M  CHG 1  12  -1
M  CHG 1  14  -1
M  END
> <UniqueID>
72

> <SMILES>
C=c1oc(CCC(=O)N(C)Cc2ncccc2C)c/c1=C\c1[n-]c(=O)[n-]c1[O-]

> <Energy>
106.16846219111386

> <Genealogy>
C=c1oc(CCC(=O)N(C)Cc2ncccc2C)cc1=Cc1[n-]c(=O)[n-]c1[O-] (protonated)
C=c1oc(CCC(=O)N(C)Cc2ncccc2C)c/c1=C\c1[n-]c(=O)[n-]c1[O-] (cis-trans isomerization)
C=c1oc(CCC(=O)N(C)Cc2ncccc2C)c/c1=C\c1[n-]c(=O)[n-]c1[O-] (3D coordinates assigned)
C=c1oc(CCC(=O)N(C)Cc2ncccc2C)c/c1=C\c1[n-]c(=O)[n-]c1[O-] (optimized conformer: 106.16846219111386 kcal/mol)

> <smiles>
C=c1oc(CCC(=O)N(C)Cc2ncccc2C)cc1=Cc1[nH]c(=O)[nH]c1O

> <score_type>
oracle

> <origin>
adg

> <m_score__min__energy>
-17.690000000000001

> <m_primary>
energy

> <minimizedAffinity>
-8.07362

> <minimizedRMSD>
1.52074

> <CNNscore>
0.2231546938

> <CNNaffinity>
6.6504459381

> <CNN_VS>
1.4840781689

> <CNNaffinity_variance>
0.1055365205

$$$$
4:0


 30 33  0  0  0  0  0  0  0  0999 V2000
   56.5058   31.2444   52.1381 C   0  0  0  0  0  0  0  0  0  0  0  0
   56.0372   30.1637   52.7835 C   0  0  0  0  0  0  0  0  0  0  0  0
   54.7375   29.9757   53.2832 C   0  0  0  0  0  0  0  0  0  0  0  0
   53.6084   30.6888   53.1050 C   0  0  0  0  0  0  0  0  0  0  0  0
   54.7830   28.8304   54.0592 C   0  0  0  0  0  0  0  0  0  0  0  0
   56.0653   28.3305   53.9622 C   0  0  0  0  0  0  0  0  0  0  0  0
   56.5397   27.0780   54.6328 C   0  0  0  0  0  0  0  0  0  0  0  0
   56.8254   29.1260   53.1730 N   0  0  0  0  0  0  0  0  0  0  0  0
   52.7291   30.6273   51.9274 C   0  0  0  0  0  0  0  0  0  0  0  0
   52.9202   29.7829   50.9006 N   0  0  0  0  0  0  0  0  0  0  0  0
   51.9754   30.1568   50.0108 C   0  0  0  0  0  0  0  0  0  0  0  0
   51.8233   29.5778   48.9028 O   0  0  0  0  0  0  0  0  0  0  0  0
   51.2154   31.2032   50.3935 N   0  0  0  0  0  0  0  0  0  0  0  0
   51.7154   31.5003   51.6040 C   0  0  0  0  0  0  0  0  0  0  0  0
   51.2712   32.5628   52.3825 O   0  0  0  0  0  0  0  0  0  0  0  0
   58.2572   28.9445   52.8909 C   0  0  0  0  0  0  0  0  0  0  0  0
   58.9764   30.2643   52.9822 C   0  0  0  0  0  0  0  0  0  0  0  0
   59.2348   30.7257   54.1277 O   0  0  0  0  0  0  0  0  0  0  0  0
   59.3842   31.0010   51.8072 N   0  0  0  0  0  0  0  0  0  0  0  0
   59.5998   30.2992   50.5289 C   0  0  0  0  0  0  0  0  0  0  0  0
   60.3257   31.1878   49.5175 C   0  0  0  0  0  0  0  0  0  0  0  0
   59.6571   32.4942   49.4520 N   0  0  0  0  0  0  0  0  0  0  0  0
   59.3549   33.2141   50.6975 C   0  0  0  0  0  0  0  0  0  0  0  0
   59.7710   32.4155   51.9400 C   0  0  0  0  0  0  0  0  0  0  0  0
   59.3396   33.1147   48.1927 C   0  0  0  0  0  0  0  0  0  0  0  0
   58.2746   32.6642   47.4701 N   0  0  0  0  0  0  0  0  0  0  0  0
   57.9392   33.2010   46.2657 C   0  0  0  0  0  0  0  0  0  0  0  0
   58.6994   34.2392   45.7276 C   0  0  0  0  0  0  0  0  0  0  0  0
   59.8070   34.7103   46.4336 C   0  0  0  0  0  0  0  0  0  0  0  0
   60.1370   34.1467   47.6679 C   0  0  0  0  0  0  0  0  0  0  0  0
  1  2  2  0
  2  3  1  0
  3  4  2  0
  4  9  1  0
  9 10  1  0
 10 11  1  0
 11 12  2  0
 11 13  1  0
 13 14  1  0
 14 15  1  0
  3  5  1  0
  5  6  2  0
  6  7  1  0
  6  8  1  0
  8 16  1  0
 16 17  1  0
 17 18  2  0
 17 19  1  0
 19 20  1  0
 20 21  1  0
 21 22  1  0
 22 25  1  0
 25 26  2  0
 26 27  1  0
 27 28  2  0
 28 29  1  0
 29 30  2  0
 22 23  1  0
 23 24  1  0
  8  2  1  0
 24 19  1  0
 14  9  2  0
 30 25  1  0
M  CHG 1  10  -1
M  CHG 1  13  -1
M  CHG 1  15  -1
M  END
> <UniqueID>
5

> <SMILES>
C=c1/c(=C\c2[n-]c(=O)[n-]c2[O-])cc(C)n1CC(=O)N1CCN(c2ccccn2)CC1

> <Energy>
127.67687813200696

> <Genealogy>
C=c1c(=Cc2[n-]c(=O)[n-]c2[O-])cc(C)n1CC(=O)N1CCN(c2ccccn2)CC1 (protonated)
C=c1/c(=C\c2[n-]c(=O)[n-]c2[O-])cc(C)n1CC(=O)N1CCN(c2ccccn2)CC1 (cis-trans isomerization)
C=c1/c(=C\c2[n-]c(=O)[n-]c2[O-])cc(C)n1CC(=O)N1CCN(c2ccccn2)CC1 (3D coordinates assigned)
C=c1/c(=C\c2[n-]c(=O)[n-]c2[O-])cc(C)n1CC(=O)N1CCN(c2ccccn2)CC1 (nonaromatic ring conformer: 127.67687813200696 kcal/mol)

> <smiles>
C=c1c(=Cc2[nH]c(=O)[nH]c2O)cc(C)n1CC(=O)N1CCN(c2ccccn2)CC1

> <score_type>
oracle

> <origin>
adg

> <m_score__min__energy>
-17.600000000000001

> <m_primary>
energy

> <minimizedAffinity>
-7.00882

> <minimizedRMSD>
0.88846

> <CNNscore>
0.1248433962

> <CNNaffinity>
5.4374599457

> <CNN_VS>
0.6788309813

> <CNNaffinity_variance>
0.2573256493

$$$$
14:0


 32 35  0  0  0  0  0  0  0  0999 V2000
   57.4761   31.5483   52.4245 C   0  0  0  0  0  0  0  0  0  0  0  0
   57.5284   32.8072   52.4814 O   0  0  0  0  0  0  0  0  0  0  0  0
   58.5772   30.8133   51.8534 N   0  0  0  0  0  0  0  0  0  0  0  0
   59.4050   31.4648   50.8252 C   0  0  0  0  0  0  0  0  0  0  0  0
   60.4768   30.5130   50.2880 C   0  0  0  0  0  0  0  0  0  0  0  0
   61.1622   29.8634   51.4125 N   0  0  0  0  0  0  0  0  0  0  0  0
   60.3754   29.2440   52.4883 C   0  0  0  0  0  0  0  0  0  0  0  0
   58.8677   29.4323   52.2726 C   0  0  0  0  0  0  0  0  0  0  0  0
   54.6142   28.8812   55.2770 C   0  0  0  0  0  0  0  0  0  0  0  0
   54.9855   29.7262   54.3014 C   0  0  0  0  0  0  0  0  0  0  0  0
   54.1981   30.1808   53.2316 C   0  0  0  0  0  0  0  0  0  0  0  0
   52.8788   30.0564   52.9835 C   0  0  0  0  0  0  0  0  0  0  0  0
   55.0554   30.8599   52.3826 C   0  0  0  0  0  0  0  0  0  0  0  0
   56.2950   30.8650   52.9846 C   0  0  0  0  0  0  0  0  0  0  0  0
   56.2606   30.1684   54.1466 N   0  0  0  0  0  0  0  0  0  0  0  0
   57.4095   29.8218   54.9918 C   0  0  0  0  0  0  0  0  0  0  0  0
   52.2205   30.3023   51.6916 C   0  0  0  0  0  0  0  0  0  0  0  0
   52.3113   29.4690   50.6413 N   0  0  0  0  0  0  0  0  0  0  0  0
   51.6803   30.1412   49.6535 C   0  0  0  0  0  0  0  0  0  0  0  0
   51.5405   29.6706   48.4952 O   0  0  0  0  0  0  0  0  0  0  0  0
   51.2198   31.3624   50.0029 N   0  0  0  0  0  0  0  0  0  0  0  0
   51.5833   31.4545   51.2925 C   0  0  0  0  0  0  0  0  0  0  0  0
   51.3625   32.5813   52.0763 O   0  0  0  0  0  0  0  0  0  0  0  0
   62.5976   29.9032   51.5150 C   0  0  0  0  0  0  0  0  0  0  0  0
   63.2896   28.8828   52.1865 C   0  0  0  0  0  0  0  0  0  0  0  0
   64.6791   28.9267   52.2954 C   0  0  0  0  0  0  0  0  0  0  0  0
   65.3949   29.9907   51.7405 C   0  0  0  0  0  0  0  0  0  0  0  0
   64.7238   31.0263   51.0696 C   0  0  0  0  0  0  0  0  0  0  0  0
   63.3204   30.9750   50.9635 C   0  0  0  0  0  0  0  0  0  0  0  0
   65.4823   32.1557   50.4892 C   0  0  0  0  0  0  0  0  0  0  0  0
   66.7382   32.1954   50.5736 O   0  0  0  0  0  0  0  0  0  0  0  0
   64.8184   33.1926   49.8441 O   0  0  0  0  0  0  0  0  0  0  0  0
  9 10  2  0
 10 11  1  0
 11 12  2  0
 12 17  1  0
 17 18  1  0
 18 19  1  0
 19 20  2  0
 19 21  1  0
 21 22  1  0
 22 23  1  0
 11 13  1  0
 13 14  2  0
 14  1  1  0
  1  2  2  0
  1  3  1  0
  3  4  1  0
  4  5  1  0
  5  6  1  0
  6 24  1  0
 24 25  2  0
 25 26  1  0
 26 27  2  0
 27 28  1  0
 28 30  1  0
 30 31  2  0
 30 32  1  0
 28 29  2  0
  6  7  1  0
  7  8  1  0
 14 15  1  0
 15 16  1  0
 15 10  1  0
 22 17  2  0
  8  3  1  0
 29 24  1  0
M  CHG 1  18  -1
M  CHG 1  21  -1
M  CHG 1  23  -1
M  CHG 1  32  -1
M  END
> <UniqueID>
15

> <SMILES>
C=c1/c(=C\c2[n-]c(=O)[n-]c2[O-])cc(C(=O)N2CCN(c3cccc(C(=O)[O-])c3)CC2)n1C

> <Energy>
135.1432875106872

> <Genealogy>
C=c1c(=Cc2[n-]c(=O)[n-]c2[O-])cc(C(=O)N2CCN(c3cccc(C(=O)[O-])c3)CC2)n1C (protonated)
C=c1/c(=C\c2[n-]c(=O)[n-]c2[O-])cc(C(=O)N2CCN(c3cccc(C(=O)[O-])c3)CC2)n1C (cis-trans isomerization)
C=c1/c(=C\c2[n-]c(=O)[n-]c2[O-])cc(C(=O)N2CCN(c3cccc(C(=O)[O-])c3)CC2)n1C (3D coordinates assigned)
C=c1/c(=C\c2[n-]c(=O)[n-]c2[O-])cc(C(=O)N2CCN(c3cccc(C(=O)[O-])c3)CC2)n1C (nonaromatic ring conformer: 135.1432875106872 kcal/mol)

> <smiles>
C=c1c(=Cc2[nH]c(=O)[nH]c2O)cc(C(=O)N2CCN(c3cccc(C(=O)O)c3)CC2)n1C

> <score_type>
oracle

> <origin>
adg

> <m_score__min__energy>
-18.379999999999999

> <m_primary>
energy

> <minimizedAffinity>
-5.95329

> <minimizedRMSD>
0.92930

> <CNNscore>
0.0504016690

> <CNNaffinity>
4.2846655846

> <CNN_VS>
0.2159543037

> <CNNaffinity_variance>
0.8375020027

$$$$
17:0


 32 35  0  0  0  0  0  0  0  0999 V2000
   58.1631   30.0727   44.2458 C   0  0  0  0  0  0  0  0  0  0  0  0
   58.4216   29.6744   45.5080 C   0  0  0  0  0  0  0  0  0  0  0  0
   58.4560   30.6551   46.5262 C   0  0  0  0  0  0  0  0  0  0  0  0
   57.8863   31.9061   46.3034 O   0  0  0  0  0  0  0  0  0  0  0  0
   59.0637   30.3924   47.7656 C   0  0  0  0  0  0  0  0  0  0  0  0
   59.5614   29.0991   48.0333 C   0  0  0  0  0  0  0  0  0  0  0  0
   59.4423   28.1000   47.0571 C   0  0  0  0  0  0  0  0  0  0  0  0
   58.8013   28.3344   45.8255 C   0  0  0  0  0  0  0  0  0  0  0  0
   58.5479   27.2430   45.0557 C   0  0  0  0  0  0  0  0  0  0  0  0
   58.0803   25.9230   45.5316 C   0  0  0  0  0  0  0  0  0  0  0  0
   58.7831   24.7762   45.4631 N   0  0  0  0  0  0  0  0  0  0  0  0
   57.9126   23.8450   45.9061 C   0  0  0  0  0  0  0  0  0  0  0  0
   58.2139   22.6284   46.0132 O   0  0  0  0  0  0  0  0  0  0  0  0
   56.6897   24.3196   46.2271 N   0  0  0  0  0  0  0  0  0  0  0  0
   56.8113   25.6338   45.9725 C   0  0  0  0  0  0  0  0  0  0  0  0
   55.7784   26.5472   46.1310 O   0  0  0  0  0  0  0  0  0  0  0  0
   60.0691   28.6937   49.3962 C   0  0  0  0  0  0  0  0  0  0  0  0
   60.6304   27.2735   49.3722 C   0  0  0  0  0  0  0  0  0  0  0  0
   59.1602   31.7226   48.9940 S   0  0  0  0  0  0  0  0  0  0  0  0
   60.9601   31.9021   48.9244 C   0  0  0  0  0  0  0  0  0  0  0  0
   61.5753   32.0067   47.6669 C   0  0  0  0  0  0  0  0  0  0  0  0
   62.9635   32.1014   47.5584 C   0  0  0  0  0  0  0  0  0  0  0  0
   63.7543   32.1237   48.7046 C   0  0  0  0  0  0  0  0  0  0  0  0
   63.1556   32.0737   49.9642 C   0  0  0  0  0  0  0  0  0  0  0  0
   61.7580   31.9772   50.0926 C   0  0  0  0  0  0  0  0  0  0  0  0
   61.1662   32.0431   51.4052 N   0  0  0  0  0  0  0  0  0  0  0  0
   60.7761   33.3381   51.9818 C   0  0  0  0  0  0  0  0  0  0  0  0
   59.2773   33.4612   52.0051 C   0  0  0  0  0  0  0  0  0  0  0  0
   58.4958   32.3803   52.1004 C   0  0  0  0  0  0  0  0  0  0  0  0
   59.0740   31.0243   52.0900 C   0  0  0  0  0  0  0  0  0  0  0  0
   58.3207   30.0202   52.1991 O   0  0  0  0  0  0  0  0  0  0  0  0
   60.5614   30.8424   51.9951 C   0  0  0  0  0  0  0  0  0  0  0  0
  1  2  2  0
  2  3  1  0
  3  4  1  0
  3  5  2  0
  5 19  1  0
 19 20  1  0
 20 21  2  0
 21 22  1  0
 22 23  2  0
 23 24  1  0
 24 25  2  0
 25 26  1  0
 26 27  1  0
 27 28  1  0
 28 29  2  0
 29 30  1  0
 30 31  2  0
 30 32  1  0
  5  6  1  0
  6 17  1  0
 17 18  1  0
  6  7  2  0
  7  8  1  0
  8  9  2  0
  9 10  1  0
 10 11  1  0
 11 12  1  0
 12 13  2  0
 12 14  1  0
 14 15  1  0
 15 16  1  0
  8  2  1  0
 15 10  2  0
 25 20  1  0
 32 26  1  0
M  CHG 1   4  -1
M  CHG 1  11  -1
M  CHG 1  14  -1
M  CHG 1  16  -1
M  END
> <UniqueID>
18

> <SMILES>
C=c1c([O-])c(Sc2ccccc2N2CC=CC(=O)C2)c(CC)cc1=Cc1[n-]c(=O)[n-]c1[O-]

> <Energy>
109.2310574003579

> <Genealogy>
C=c1c([O-])c(Sc2ccccc2N2CC=CC(=O)C2)c(CC)cc1=Cc1[n-]c(=O)[n-]c1[O-] (protonated)
C=c1c([O-])c(Sc2ccccc2N2CC=CC(=O)C2)c(CC)cc1=Cc1[n-]c(=O)[n-]c1[O-] (3D coordinates assigned)
C=c1c([O-])c(Sc2ccccc2N2CC=CC(=O)C2)c(CC)cc1=Cc1[n-]c(=O)[n-]c1[O-] (nonaromatic ring conformer: 109.2310574003579 kcal/mol)

> <smiles>
C=c1c(O)c(Sc2ccccc2N2CC=CC(=O)C2)c(CC)cc1=Cc1[nH]c(=O)[nH]c1O

> <score_type>
oracle

> <origin>
adg

> <m_score__min__energy>
-17.309999999999999

> <m_primary>
energy

> <minimizedAffinity>
-8.15083

> <minimizedRMSD>
0.87259

> <CNNscore>
0.4377493858

> <CNNaffinity>
7.3171591759

> <CNN_VS>
3.2030818462

> <CNNaffinity_variance>
0.1083117351

$$$$
28:0


 38 41  0  0  0  0  0  0  0  0999 V2000
   59.5450   33.4305   47.8333 C   0  0  0  0  0  0  0  0  0  0  0  0
   59.3440   32.3480   48.6017 C   0  0  0  0  0  0  0  0  0  0  0  0
   58.9989   32.5885   49.8940 N   0  0  0  0  0  0  0  0  0  0  0  0
   58.7827   31.6257   50.8241 C   0  0  0  0  0  0  0  0  0  0  0  0
   58.9631   30.2895   50.4430 C   0  0  0  0  0  0  0  0  0  0  0  0
   59.3063   29.9729   49.1292 C   0  0  0  0  0  0  0  0  0  0  0  0
   59.4416   28.6224   48.8206 O   0  0  0  0  0  0  0  0  0  0  0  0
   59.4908   30.9951   48.1527 C   0  0  0  0  0  0  0  0  0  0  0  0
   59.7590   30.6985   46.8495 C   0  0  0  0  0  0  0  0  0  0  0  0
   58.9098   29.8865   45.9640 C   0  0  0  0  0  0  0  0  0  0  0  0
   59.2110   28.6256   45.4722 C   0  0  0  0  0  0  0  0  0  0  0  0
   60.4477   27.8236   45.7518 C   0  0  0  0  0  0  0  0  0  0  0  0
   58.1807   28.2909   44.6060 C   0  0  0  0  0  0  0  0  0  0  0  0
   57.3085   29.3762   44.5985 C   0  0  0  0  0  0  0  0  0  0  0  0
   56.0761   29.5378   43.7641 C   0  0  0  0  0  0  0  0  0  0  0  0
   57.7585   30.3373   45.4307 N   0  0  0  0  0  0  0  0  0  0  0  0
   57.3274   31.2033   45.6135 H   0  0  0  0  0  0  0  0  0  0  0  0
   58.0852   27.0580   43.7968 C   0  0  0  0  0  0  0  0  0  0  0  0
   58.3636   27.1094   42.5683 O   0  0  0  0  0  0  0  0  0  0  0  0
   57.6973   25.8024   44.3842 N   0  0  0  0  0  0  0  0  0  0  0  0
   58.0373   25.4754   45.7748 C   0  0  0  0  0  0  0  0  0  0  0  0
   58.5786   24.0374   45.8780 C   0  0  0  0  0  0  0  0  0  0  0  0
   57.8918   23.0595   44.9842 N   0  0  0  0  0  0  0  0  0  0  0  0
   57.6343   21.7923   45.6909 C   0  0  0  0  0  0  0  0  0  0  0  0
   56.6441   23.5728   44.3902 C   0  0  0  0  0  0  0  0  0  0  0  0
   56.9413   24.8357   43.5809 C   0  0  0  0  0  0  0  0  0  0  0  0
   58.3999   32.0604   52.2466 C   0  0  0  0  0  0  0  0  0  0  0  0
   59.0546   31.1898   53.3440 C   0  0  0  0  0  0  0  0  0  0  0  0
   58.8549   33.5180   52.4585 C   0  0  0  0  0  0  0  0  0  0  0  0
   56.8612   31.9604   52.4228 C   0  0  0  0  0  0  0  0  0  0  0  0
   56.4265   30.6016   52.3782 O   0  0  0  0  0  0  0  0  0  0  0  0
   55.1040   30.1789   52.5691 C   0  0  0  0  0  0  0  0  0  0  0  0
   54.8532   29.2087   53.5489 C   0  0  0  0  0  0  0  0  0  0  0  0
   53.5512   28.7566   53.7803 C   0  0  0  0  0  0  0  0  0  0  0  0
   52.4893   29.2686   53.0300 C   0  0  0  0  0  0  0  0  0  0  0  0
   52.7260   30.2366   52.0499 C   0  0  0  0  0  0  0  0  0  0  0  0
   51.6680   30.7450   51.3066 O   0  0  0  0  0  0  0  0  0  0  0  0
   54.0299   30.6949   51.8175 C   0  0  0  0  0  0  0  0  0  0  0  0
  1  2  2  0
  2  3  1  0
  3  4  2  0
  4 27  1  0
 27 28  1  0
 27 29  1  0
 27 30  1  0
 30 31  1  0
 31 32  1  0
 32 33  2  0
 33 34  1  0
 34 35  2  0
 35 36  1  0
 36 37  1  0
 36 38  2  0
  4  5  1  0
  5  6  2  0
  6  7  1  0
  6  8  1  0
  8  9  2  0
  9 10  1  0
 10 11  2  0
 11 12  1  0
 11 13  1  0
 13 18  1  0
 18 19  2  0
 18 20  1  0
 20 21  1  0
 21 22  1  0
 22 23  1  0
 23 24  1  0
 23 25  1  0
 25 26  1  0
 13 14  2  0
 14 15  1  0
 14 16  1  0
  8  2  1  0
 16 10  1  0
 38 32  1  0
 26 20  1  0
 16 17  1  0
M  CHG 1   7  -1
M  CHG 1  37  -1
M  END
> <UniqueID>
28

> <SMILES>
C=c1nc(C(C)(C)COc2cccc([O-])c2)cc([O-])/c1=C\c1[nH]c(C)c(C(=O)N2CCN(C)CC2)c1C

> <Energy>
129.20855802196635

> <Genealogy>
C=c1nc(C(C)(C)COc2cccc([O-])c2)cc([O-])c1=Cc1[nH]c(C)c(C(=O)N2CCN(C)CC2)c1C (protonated)
C=c1nc(C(C)(C)COc2cccc([O-])c2)cc([O-])/c1=C\c1[nH]c(C)c(C(=O)N2CCN(C)CC2)c1C (cis-trans isomerization)
C=c1nc(C(C)(C)COc2cccc([O-])c2)cc([O-])/c1=C\c1[nH]c(C)c(C(=O)N2CCN(C)CC2)c1C (3D coordinates assigned)
C=c1nc(C(C)(C)COc2cccc([O-])c2)cc([O-])/c1=C\c1[nH]c(C)c(C(=O)N2CCN(C)CC2)c1C (nonaromatic ring conformer: 129.20855802196635 kcal/mol)

> <smiles>
C=c1nc(C(C)(C)COc2cccc(O)c2)cc(O)c1=Cc1[nH]c(C)c(C(=O)N2CCN(C)CC2)c1C

> <score_type>
oracle

> <origin>
adg

> <m_score__min__energy>
-15.16

> <m_primary>
energy

> <minimizedAffinity>
-8.22511

> <minimizedRMSD>
1.01359

> <CNNscore>
0.1399275512

> <CNNaffinity>
6.7561202049

> <CNN_VS>
0.9453673363

> <CNNaffinity_variance>
0.2747817636

$$$$
30:0


 33 36  0  0  0  0  0  0  0  0999 V2000
   53.8155   29.3711   55.3497 C   0  0  0  0  0  0  0  0  0  0  0  0
   54.3250   29.7312   54.1600 C   0  0  0  0  0  0  0  0  0  0  0  0
   53.5968   29.9396   52.9845 C   0  0  0  0  0  0  0  0  0  0  0  0
   52.2752   29.7582   52.7975 C   0  0  0  0  0  0  0  0  0  0  0  0
   54.5216   30.2981   52.0154 C   0  0  0  0  0  0  0  0  0  0  0  0
   55.7572   30.3039   52.6260 C   0  0  0  0  0  0  0  0  0  0  0  0
   55.6462   29.9512   53.9315 N   0  0  0  0  0  0  0  0  0  0  0  0
   51.2561   30.7729   53.1180 C   0  0  0  0  0  0  0  0  0  0  0  0
   50.4947   30.7337   54.2273 N   0  0  0  0  0  0  0  0  0  0  0  0
   49.7841   31.8806   54.1583 C   0  0  0  0  0  0  0  0  0  0  0  0
   48.9383   32.2060   55.0314 O   0  0  0  0  0  0  0  0  0  0  0  0
   50.0586   32.6554   53.0870 N   0  0  0  0  0  0  0  0  0  0  0  0
   51.0036   31.9482   52.4462 C   0  0  0  0  0  0  0  0  0  0  0  0
   51.6556   32.3890   51.3025 O   0  0  0  0  0  0  0  0  0  0  0  0
   57.0185   30.5674   51.8984 C   0  0  0  0  0  0  0  0  0  0  0  0
   57.7907   29.5895   51.7078 O   0  0  0  0  0  0  0  0  0  0  0  0
   57.4181   31.9026   51.4653 N   0  0  0  0  0  0  0  0  0  0  0  0
   58.5939   31.9226   50.5701 C   0  0  0  0  0  0  0  0  0  0  0  0
   59.9027   31.5484   51.2914 C   0  0  0  0  0  0  0  0  0  0  0  0
   59.7171   31.3634   52.7471 N   0  0  0  0  0  0  0  0  0  0  0  0
   61.0134   31.0159   53.3698 C   0  0  0  0  0  0  0  0  0  0  0  0
   58.9737   32.4837   53.4094 C   0  0  0  0  0  0  0  0  0  0  0  0
   59.8330   33.7713   53.5281 C   0  0  0  0  0  0  0  0  0  0  0  0
   58.5545   32.0558   54.8387 C   0  0  0  0  0  0  0  0  0  0  0  0
   57.6645   32.8204   52.6008 C   0  0  0  0  0  0  0  0  0  0  0  0
   56.5168   31.5066   51.4677 H   0  0  0  0  0  0  0  0  0  0  0  0
   56.7513   29.7276   54.8801 C   0  0  0  0  0  0  0  0  0  0  0  0
   57.3626   28.3639   54.6793 C   0  0  0  0  0  0  0  0  0  0  0  0
   58.7572   28.2111   54.5907 C   0  0  0  0  0  0  0  0  0  0  0  0
   59.3168   26.9428   54.3922 C   0  0  0  0  0  0  0  0  0  0  0  0
   58.4899   25.8236   54.2692 C   0  0  0  0  0  0  0  0  0  0  0  0
   57.1019   25.9653   54.3492 C   0  0  0  0  0  0  0  0  0  0  0  0
   56.5404   27.2302   54.5533 C   0  0  0  0  0  0  0  0  0  0  0  0
  1  2  2  0
  2  3  1  0
  3  4  2  0
  4  8  1  0
  8  9  1  0
  9 10  1  0
 10 11  2  0
 10 12  1  0
 12 13  1  0
 13 14  1  0
  3  5  1  0
  5  6  2  0
  6 15  1  0
 15 16  2  0
 17 15  1  0
 17 18  1  0
 18 19  1  0
 19 20  1  0
 20 21  1  0
 20 22  1  0
 22 23  1  0
 22 24  1  0
 22 25  1  0
  6  7  1  0
  7 27  1  0
 27 28  1  0
 28 29  2  0
 29 30  1  0
 30 31  2  0
 31 32  1  0
 32 33  2  0
  7  2  1  0
 33 28  1  0
 13  8  2  0
 25 17  1  0
 17 26  1  0
M  CHG 1   9  -1
M  CHG 1  12  -1
M  CHG 1  14  -1
M  CHG 1  17   1
M  END
> <UniqueID>
29

> <SMILES>
C=c1/c(=C/c2[n-]c(=O)[n-]c2[O-])cc(C(=O)[N@@H+]2CCN(C)C(C)(C)C2)n1Cc1ccccc1

> <Energy>
153.06929766709717

> <Genealogy>
C=c1c(=Cc2[n-]c(=O)[n-]c2[O-])cc(C(=O)[NH+]2CCN(C)C(C)(C)C2)n1Cc1ccccc1 (protonated)
C=c1c(=Cc2[n-]c(=O)[n-]c2[O-])cc(C(=O)[N@@H+]2CCN(C)C(C)(C)C2)n1Cc1ccccc1 (chirality)
C=c1/c(=C/c2[n-]c(=O)[n-]c2[O-])cc(C(=O)[N@@H+]2CCN(C)C(C)(C)C2)n1Cc1ccccc1 (cis-trans isomerization)
C=c1/c(=C/c2[n-]c(=O)[n-]c2[O-])cc(C(=O)[N@@H+]2CCN(C)C(C)(C)C2)n1Cc1ccccc1 (3D coordinates assigned)
C=c1/c(=C/c2[n-]c(=O)[n-]c2[O-])cc(C(=O)[N@@H+]2CCN(C)C(C)(C)C2)n1Cc1ccccc1 (nonaromatic ring conformer: 153.06929766709717 kcal/mol)

> <smiles>
C=c1c(=Cc2[nH]c(=O)[nH]c2O)cc(C(=O)N2CCN(C)C(C)(C)C2)n1Cc1ccccc1

> <score_type>
oracle

> <origin>
adg

> <m_score__min__energy>
-15.26

> <m_primary>
energy

> <minimizedAffinity>
-6.80845

> <minimizedRMSD>
0.70704

> <CNNscore>
0.1818222553

> <CNNaffinity>
4.9267020226

> <CNN_VS>
0.8957840800

> <CNNaffinity_variance>
0.5127367377

$$$$
41:0


 27 30  0  0  0  0  0  0  0  0999 V2000
   57.9164   26.8079   42.9817 C   0  0  0  0  0  0  0  0  0  0  0  0
   57.8244   27.8885   43.7797 C   0  0  0  0  0  0  0  0  0  0  0  0
   57.2990   29.0331   43.2396 N   0  0  0  0  0  0  0  0  0  0  0  0
   57.3687   30.2341   43.8705 C   0  0  0  0  0  0  0  0  0  0  0  0
   57.9934   30.3467   45.1115 C   0  0  0  0  0  0  0  0  0  0  0  0
   58.5173   29.1956   45.7058 C   0  0  0  0  0  0  0  0  0  0  0  0
   58.3631   27.9301   45.1069 C   0  0  0  0  0  0  0  0  0  0  0  0
   58.7238   26.8511   45.8483 C   0  0  0  0  0  0  0  0  0  0  0  0
   56.8550   28.9832   42.3623 H   0  0  0  0  0  0  0  0  0  0  0  0
   58.1120   31.6690   45.7711 C   0  0  0  0  0  0  0  0  0  0  0  0
   57.1122   32.4395   45.7703 O   0  0  0  0  0  0  0  0  0  0  0  0
   59.3354   32.0973   46.4013 N   0  0  0  0  0  0  0  0  0  0  0  0
   59.6846   33.5221   46.3871 C   0  0  0  0  0  0  0  0  0  0  0  0
   61.0645   33.7482   47.0052 C   0  0  0  0  0  0  0  0  0  0  0  0
   61.1257   33.1335   48.3431 N   0  0  0  0  0  0  0  0  0  0  0  0
   60.7877   31.6842   48.3630 C   0  0  0  0  0  0  0  0  0  0  0  0
   60.2505   31.1355   47.0286 C   0  0  0  0  0  0  0  0  0  0  0  0
   62.4558   33.3639   48.9252 C   0  0  0  0  0  0  0  0  0  0  0  0
   63.5732   33.4098   47.8942 C   0  0  0  0  0  0  0  0  0  0  0  0
   63.3974   32.1799   48.7696 C   0  0  0  0  0  0  0  0  0  0  0  0
   58.0038   25.5673   45.9306 C   0  0  0  0  0  0  0  0  0  0  0  0
   58.6208   24.3725   45.9600 N   0  0  0  0  0  0  0  0  0  0  0  0
   57.6067   23.5016   46.1530 C   0  0  0  0  0  0  0  0  0  0  0  0
   57.7872   22.2585   46.2254 O   0  0  0  0  0  0  0  0  0  0  0  0
   56.3867   24.0682   46.2763 N   0  0  0  0  0  0  0  0  0  0  0  0
   56.6565   25.3756   46.1465 C   0  0  0  0  0  0  0  0  0  0  0  0
   55.6949   26.3738   46.2594 O   0  0  0  0  0  0  0  0  0  0  0  0
  1  2  2  0
  2  3  1  0
  3  4  2  0
  4  5  1  0
  5 10  1  0
 10 11  2  0
 10 12  1  0
 12 13  1  0
 13 14  1  0
 14 15  1  0
 15 18  1  0
 18 19  1  0
 19 20  1  0
 15 16  1  0
 16 17  1  0
  5  6  2  0
  6  7  1  0
  7  8  2  0
  8 21  1  0
 21 22  1  0
 22 23  1  0
 23 24  2  0
 23 25  1  0
 25 26  1  0
 26 27  1  0
  7  2  1  0
 26 21  2  0
 17 12  1  0
 20 18  1  0
  3  9  1  0
M  CHG 1   3   1
M  CHG 1  22  -1
M  CHG 1  25  -1
M  CHG 1  27  -1
M  END
> <UniqueID>
39

> <SMILES>
C=c1[nH+]cc(C(=O)N2CCN(C3CC3)CC2)cc1=Cc1[n-]c(=O)[n-]c1[O-]

> <Energy>
372.0216716061755

> <Genealogy>
C=c1[nH+]cc(C(=O)N2CCN(C3CC3)CC2)cc1=Cc1[n-]c(=O)[n-]c1[O-] (protonated)
C=c1[nH+]cc(C(=O)N2CCN(C3CC3)CC2)cc1=Cc1[n-]c(=O)[n-]c1[O-] (3D coordinates assigned)
C=c1[nH+]cc(C(=O)N2CCN(C3CC3)CC2)cc1=Cc1[n-]c(=O)[n-]c1[O-] (nonaromatic ring conformer: 372.0216716061755 kcal/mol)

> <smiles>
C=c1ncc(C(=O)N2CCN(C3CC3)CC2)cc1=Cc1[nH]c(=O)[nH]c1O

> <score_type>
oracle

> <origin>
adg

> <m_score__min__energy>
-15.710000000000001

> <m_primary>
energy

> <minimizedAffinity>
-8.58119

> <minimizedRMSD>
0.81886

> <CNNscore>
0.1121774614

> <CNNaffinity>
6.2473502159

> <CNN_VS>
0.7008118629

> <CNNaffinity_variance>
0.0149797341

$$$$
56:0


 33 36  0  0  0  0  0  0  0  0999 V2000
   57.3042   29.3431   53.5082 C   0  0  0  0  0  0  0  0  0  0  0  0
   57.7068   28.1589   53.6673 O   0  0  0  0  0  0  0  0  0  0  0  0
   58.2096   30.3252   52.9647 N   0  0  0  0  0  0  0  0  0  0  0  0
   58.2224   31.7086   53.4510 C   0  0  0  0  0  0  0  0  0  0  0  0
   58.3077   32.6868   52.2676 C   0  0  0  0  0  0  0  0  0  0  0  0
   59.1660   32.1930   51.1615 N   0  0  0  0  0  0  0  0  0  0  0  0
   60.0609   31.0616   51.4812 C   0  0  0  0  0  0  0  0  0  0  0  0
   59.3135   29.8763   52.1113 C   0  0  0  0  0  0  0  0  0  0  0  0
   53.1871   30.2994   55.8959 C   0  0  0  0  0  0  0  0  0  0  0  0
   54.0358   30.0520   54.8848 C   0  0  0  0  0  0  0  0  0  0  0  0
   53.6784   29.7614   53.5646 C   0  0  0  0  0  0  0  0  0  0  0  0
   52.4355   29.6637   53.0525 C   0  0  0  0  0  0  0  0  0  0  0  0
   54.8616   29.5121   52.8909 C   0  0  0  0  0  0  0  0  0  0  0  0
   55.8883   29.6706   53.7991 C   0  0  0  0  0  0  0  0  0  0  0  0
   55.3891   30.0243   55.0096 N   0  0  0  0  0  0  0  0  0  0  0  0
   56.1685   30.2797   56.2275 C   0  0  0  0  0  0  0  0  0  0  0  0
   52.0406   30.1980   51.7370 C   0  0  0  0  0  0  0  0  0  0  0  0
   51.9944   29.4496   50.6210 N   0  0  0  0  0  0  0  0  0  0  0  0
   51.5280   30.3065   49.6875 C   0  0  0  0  0  0  0  0  0  0  0  0
   51.3574   29.9726   48.4869 O   0  0  0  0  0  0  0  0  0  0  0  0
   51.2509   31.5460   50.1431 N   0  0  0  0  0  0  0  0  0  0  0  0
   51.5685   31.4596   51.4441 C   0  0  0  0  0  0  0  0  0  0  0  0
   51.3820   32.4966   52.3504 O   0  0  0  0  0  0  0  0  0  0  0  0
   58.5516   32.1773   49.8144 C   0  0  0  0  0  0  0  0  0  0  0  0
   59.3676   31.4563   48.7749 C   0  0  0  0  0  0  0  0  0  0  0  0
   60.5914   31.9213   48.3975 N   0  0  0  0  0  0  0  0  0  0  0  0
   61.1542   30.8024   47.3091 S   0  0  0  0  0  0  0  0  0  0  0  0
   59.8410   29.7788   47.3364 C   0  0  0  0  0  0  0  0  0  0  0  0
   58.9488   30.2774   48.2219 N   0  0  0  0  0  0  0  0  0  0  0  0
   59.6936   28.4710   46.5842 C   0  0  0  0  0  0  0  0  0  0  0  0
   60.3782   28.5996   45.2134 C   0  0  0  0  0  0  0  0  0  0  0  0
   60.3487   27.3193   47.3731 C   0  0  0  0  0  0  0  0  0  0  0  0
   58.1991   28.1523   46.3884 C   0  0  0  0  0  0  0  0  0  0  0  0
  9 10  2  0
 10 11  1  0
 11 12  2  0
 12 17  1  0
 17 18  1  0
 18 19  1  0
 19 20  2  0
 19 21  1  0
 21 22  1  0
 22 23  1  0
 11 13  1  0
 13 14  2  0
 14  1  1  0
  1  2  2  0
  1  3  1  0
  3  4  1  0
  4  5  1  0
  5  6  1  0
  6 24  1  0
 24 25  1  0
 25 26  2  0
 26 27  1  0
 27 28  1  0
 28 30  1  0
 30 31  1  0
 30 32  1  0
 30 33  1  0
 28 29  2  0
  6  7  1  0
  7  8  1  0
 14 15  1  0
 15 16  1  0
 15 10  1  0
 22 17  2  0
  8  3  1  0
 29 25  1  0
M  CHG 1  18  -1
M  CHG 1  21  -1
M  CHG 1  23  -1
M  END
> <UniqueID>
54

> <SMILES>
C=c1c(=Cc2[n-]c(=O)[n-]c2[O-])cc(C(=O)N2CCN(Cc3nsc(C(C)(C)C)n3)CC2)n1C

> <Energy>
168.55553281265642

> <Genealogy>
C=c1c(=Cc2[n-]c(=O)[n-]c2[O-])cc(C(=O)N2CCN(Cc3nsc(C(C)(C)C)n3)CC2)n1C (protonated)
C=c1c(=Cc2[n-]c(=O)[n-]c2[O-])cc(C(=O)N2CCN(Cc3nsc(C(C)(C)C)n3)CC2)n1C (3D coordinates assigned)
C=c1c(=Cc2[n-]c(=O)[n-]c2[O-])cc(C(=O)N2CCN(Cc3nsc(C(C)(C)C)n3)CC2)n1C (nonaromatic ring conformer: 168.55553281265642 kcal/mol)

> <smiles>
C=c1c(=Cc2[nH]c(=O)[nH]c2O)cc(C(=O)N2CCN(Cc3nsc(C(C)(C)C)n3)CC2)n1C

> <score_type>
oracle

> <origin>
adg

> <m_score__min__energy>
-17.91

> <m_primary>
energy

> <minimizedAffinity>
-6.49822

> <minimizedRMSD>
0.97731

> <CNNscore>
0.0384153761

> <CNNaffinity>
5.3639397621

> <CNN_VS>
0.2060577571

> <CNNaffinity_variance>
0.5255113244

$$$$
64:0


 31 34  0  0  0  0  0  0  0  0999 V2000
   60.9211   27.3220   49.2590 C   0  0  0  0  0  0  0  0  0  0  0  0
   60.2028   28.3675   48.8171 C   0  0  0  0  0  0  0  0  0  0  0  0
   59.4389   28.3950   47.6444 C   0  0  0  0  0  0  0  0  0  0  0  0
   59.2367   27.3853   46.7743 C   0  0  0  0  0  0  0  0  0  0  0  0
   58.8759   29.6593   47.5759 C   0  0  0  0  0  0  0  0  0  0  0  0
   59.3056   30.3450   48.6914 C   0  0  0  0  0  0  0  0  0  0  0  0
   60.1213   29.5724   49.4485 N   0  0  0  0  0  0  0  0  0  0  0  0
   58.9093   31.7314   48.9985 C   0  0  0  0  0  0  0  0  0  0  0  0
   58.4387   31.9774   50.1434 O   0  0  0  0  0  0  0  0  0  0  0  0
   59.0809   32.8032   48.0466 N   0  0  0  0  0  0  0  0  0  0  0  0
   59.9287   33.9598   48.3828 C   0  0  0  0  0  0  0  0  0  0  0  0
   60.6334   34.4759   47.1328 C   0  0  0  0  0  0  0  0  0  0  0  0
   59.6583   34.7515   46.0876 N   0  0  0  0  0  0  0  0  0  0  0  0
   58.4968   33.9389   45.9161 C   0  0  0  0  0  0  0  0  0  0  0  0
   57.7629   34.1165   44.9079 O   0  0  0  0  0  0  0  0  0  0  0  0
   58.1100   32.9103   46.9433 C   0  0  0  0  0  0  0  0  0  0  0  0
   58.0438   26.5188   46.7769 C   0  0  0  0  0  0  0  0  0  0  0  0
   58.0140   25.3092   47.3667 N   0  0  0  0  0  0  0  0  0  0  0  0
   56.7907   24.8341   47.0452 C   0  0  0  0  0  0  0  0  0  0  0  0
   56.3792   23.7085   47.4296 O   0  0  0  0  0  0  0  0  0  0  0  0
   56.0505   25.6519   46.2684 N   0  0  0  0  0  0  0  0  0  0  0  0
   56.8614   26.7086   46.0958 C   0  0  0  0  0  0  0  0  0  0  0  0
   56.5445   27.7958   45.2906 O   0  0  0  0  0  0  0  0  0  0  0  0
   60.9106   30.0384   50.6014 C   0  0  0  0  0  0  0  0  0  0  0  0
   61.9043   31.0850   50.1669 C   0  0  0  0  0  0  0  0  0  0  0  0
   62.3177   31.1546   48.8255 C   0  0  0  0  0  0  0  0  0  0  0  0
   63.2704   32.0979   48.4282 C   0  0  0  0  0  0  0  0  0  0  0  0
   63.8214   32.9739   49.3675 C   0  0  0  0  0  0  0  0  0  0  0  0
   63.4232   32.9074   50.7062 C   0  0  0  0  0  0  0  0  0  0  0  0
   64.1858   34.0983   51.9918 Br  0  0  0  0  0  0  0  0  0  0  0  0
   62.4684   31.9664   51.1055 C   0  0  0  0  0  0  0  0  0  0  0  0
  1  2  2  0
  2  3  1  0
  3  4  2  0
  4 17  1  0
 17 18  1  0
 18 19  1  0
 19 20  2  0
 19 21  1  0
 21 22  1  0
 22 23  1  0
  3  5  1  0
  5  6  2  0
  6  8  1  0
  8  9  2  0
  8 10  1  0
 10 11  1  0
 11 12  1  0
 12 13  1  0
 13 14  1  0
 14 15  2  0
 14 16  1  0
  6  7  1  0
  7 24  1  0
 24 25  1  0
 25 26  2  0
 26 27  1  0
 27 28  2  0
 28 29  1  0
 29 30  1  0
 29 31  2  0
  7  2  1  0
 31 25  1  0
 22 17  2  0
 16 10  1  0
M  CHG 1  13  -1
M  CHG 1  18  -1
M  CHG 1  21  -1
M  CHG 1  23  -1
M  END
> <UniqueID>
61

> <SMILES>
C=c1c(=Cc2[n-]c(=O)[n-]c2[O-])cc(C(=O)N2CC[N-]C(=O)C2)n1Cc1cccc(Br)c1

> <Energy>
120.50031355598793

> <Genealogy>
C=c1c(=Cc2[n-]c(=O)[n-]c2[O-])cc(C(=O)N2CC[N-]C(=O)C2)n1Cc1cccc(Br)c1 (protonated)
C=c1c(=Cc2[n-]c(=O)[n-]c2[O-])cc(C(=O)N2CC[N-]C(=O)C2)n1Cc1cccc(Br)c1 (3D coordinates assigned)
C=c1c(=Cc2[n-]c(=O)[n-]c2[O-])cc(C(=O)N2CC[N-]C(=O)C2)n1Cc1cccc(Br)c1 (nonaromatic ring conformer: 120.50031355598793 kcal/mol)

> <smiles>
C=c1c(=Cc2[nH]c(=O)[nH]c2O)cc(C(=O)N2CCNC(=O)C2)n1Cc1cccc(Br)c1

> <score_type>
oracle

> <origin>
adg

> <m_score__min__energy>
-17.129999999999999

> <m_primary>
energy

> <minimizedAffinity>
-7.78550

> <minimizedRMSD>
1.08506

> <CNNscore>
0.0938358009

> <CNNaffinity>
5.9343667030

> <CNN_VS>
0.5568560362

> <CNNaffinity_variance>
0.2163461447

$$$$
80:0


 30 33  0  0  0  0  0  0  0  0999 V2000
   57.8197   28.6887   53.5436 C   0  0  0  0  0  0  0  0  0  0  0  0
   56.8024   29.4914   53.2274 C   0  0  0  0  0  0  0  0  0  0  0  0
   55.5092   29.1290   53.3476 N   0  0  0  0  0  0  0  0  0  0  0  0
   54.7683   30.1440   52.8596 C   0  0  0  0  0  0  0  0  0  0  0  0
   53.4249   30.1239   52.8486 C   0  0  0  0  0  0  0  0  0  0  0  0
   55.5913   31.1792   52.4355 C   0  0  0  0  0  0  0  0  0  0  0  0
   56.8884   30.7672   52.6825 C   0  0  0  0  0  0  0  0  0  0  0  0
   55.1702   28.2835   53.7211 H   0  0  0  0  0  0  0  0  0  0  0  0
   58.0975   31.5676   52.4068 C   0  0  0  0  0  0  0  0  0  0  0  0
   58.6123   32.2334   53.3441 O   0  0  0  0  0  0  0  0  0  0  0  0
   58.7120   31.5788   51.1052 N   0  0  0  0  0  0  0  0  0  0  0  0
   58.7168   30.3713   50.2650 C   0  0  0  0  0  0  0  0  0  0  0  0
   60.1065   30.1726   49.6547 C   0  0  0  0  0  0  0  0  0  0  0  0
   60.5907   31.4064   48.8409 C   0  0  0  0  0  0  0  0  0  0  0  0
   59.7957   32.6953   49.1796 C   0  0  0  0  0  0  0  0  0  0  0  0
   59.4421   32.7767   50.6677 C   0  0  0  0  0  0  0  0  0  0  0  0
   60.5527   31.1122   47.3230 C   0  0  0  0  0  0  0  0  0  0  0  0
   59.7137   32.1159   46.5729 C   0  0  0  0  0  0  0  0  0  0  0  0
   58.4680   31.7393   46.0431 C   0  0  0  0  0  0  0  0  0  0  0  0
   57.7003   32.6608   45.3243 C   0  0  0  0  0  0  0  0  0  0  0  0
   58.1711   33.9608   45.1247 C   0  0  0  0  0  0  0  0  0  0  0  0
   59.4115   34.3426   45.6426 C   0  0  0  0  0  0  0  0  0  0  0  0
   60.1819   33.4241   46.3631 C   0  0  0  0  0  0  0  0  0  0  0  0
   52.5977   30.3448   51.6483 C   0  0  0  0  0  0  0  0  0  0  0  0
   52.6723   29.5705   50.5509 N   0  0  0  0  0  0  0  0  0  0  0  0
   51.8157   30.1637   49.6905 C   0  0  0  0  0  0  0  0  0  0  0  0
   51.5999   29.7168   48.5347 O   0  0  0  0  0  0  0  0  0  0  0  0
   51.2189   31.2799   50.1620 N   0  0  0  0  0  0  0  0  0  0  0  0
   51.7321   31.3873   51.3985 C   0  0  0  0  0  0  0  0  0  0  0  0
   51.4468   32.4417   52.2574 O   0  0  0  0  0  0  0  0  0  0  0  0
  1  2  2  0
  2  3  1  0
  3  4  1  0
  4  5  2  0
  5 24  1  0
 24 25  1  0
 25 26  1  0
 26 27  2  0
 26 28  1  0
 28 29  1  0
 29 30  1  0
  4  6  1  0
  6  7  2  0
  7  9  1  0
  9 10  2  0
  9 11  1  0
 11 12  1  0
 12 13  1  0
 13 14  1  0
 14 17  1  0
 17 18  1  0
 18 19  2  0
 19 20  1  0
 20 21  2  0
 21 22  1  0
 22 23  2  0
 14 15  1  0
 15 16  1  0
  7  2  1  0
 16 11  1  0
 29 24  2  0
 23 18  1  0
  3  8  1  0
M  CHG 1  25  -1
M  CHG 1  28  -1
M  CHG 1  30  -1
M  END
> <UniqueID>
77

> <SMILES>
C=c1[nH]c(=Cc2[n-]c(=O)[n-]c2[O-])cc1C(=O)N1CCC(Cc2ccccc2)CC1

> <Energy>
120.18950559400224

> <Genealogy>
C=c1[nH]c(=Cc2[n-]c(=O)[n-]c2[O-])cc1C(=O)N1CCC(Cc2ccccc2)CC1 (protonated)
C=c1[nH]c(=Cc2[n-]c(=O)[n-]c2[O-])cc1C(=O)N1CCC(Cc2ccccc2)CC1 (3D coordinates assigned)
C=c1[nH]c(=Cc2[n-]c(=O)[n-]c2[O-])cc1C(=O)N1CCC(Cc2ccccc2)CC1 (nonaromatic ring conformer: 120.18950559400224 kcal/mol)

> <smiles>
C=c1[nH]c(=Cc2[nH]c(=O)[nH]c2O)cc1C(=O)N1CCC(Cc2ccccc2)CC1

> <score_type>
oracle

> <origin>
adg

> <m_score__min__energy>
-18.530000000000001

> <m_primary>
energy

> <minimizedAffinity>
-7.49750

> <minimizedRMSD>
0.92915

> <CNNscore>
0.1050698906

> <CNNaffinity>
5.5834908485

> <CNN_VS>
0.5866567492

> <CNNaffinity_variance>
0.3079528511

$$$$
84:0


 32 35  0  0  0  0  0  0  0  0999 V2000
   58.8823   29.2172   45.1587 C   0  0  0  0  0  0  0  0  0  0  0  0
   59.9842   29.4995   44.6200 O   0  0  0  0  0  0  0  0  0  0  0  0
   58.2073   25.1952   47.8151 C   0  0  0  0  0  0  0  0  0  0  0  0
   58.2079   26.0343   46.7637 C   0  0  0  0  0  0  0  0  0  0  0  0
   57.8845   25.7164   45.4359 C   0  0  0  0  0  0  0  0  0  0  0  0
   57.3754   24.5949   44.8901 C   0  0  0  0  0  0  0  0  0  0  0  0
   58.1673   26.8468   44.6898 C   0  0  0  0  0  0  0  0  0  0  0  0
   58.5806   27.8271   45.5703 C   0  0  0  0  0  0  0  0  0  0  0  0
   58.6359   27.3261   46.8324 N   0  0  0  0  0  0  0  0  0  0  0  0
   59.1120   28.0259   48.0385 C   0  0  0  0  0  0  0  0  0  0  0  0
   56.1996   23.8617   45.3897 C   0  0  0  0  0  0  0  0  0  0  0  0
   56.0542   22.5255   45.2954 N   0  0  0  0  0  0  0  0  0  0  0  0
   54.7928   22.3177   45.7304 C   0  0  0  0  0  0  0  0  0  0  0  0
   54.2828   21.1690   45.8175 O   0  0  0  0  0  0  0  0  0  0  0  0
   54.1153   23.4383   46.0608 N   0  0  0  0  0  0  0  0  0  0  0  0
   55.0146   24.4090   45.8264 C   0  0  0  0  0  0  0  0  0  0  0  0
   54.7436   25.7655   45.9599 O   0  0  0  0  0  0  0  0  0  0  0  0
   57.9334   30.2561   45.4393 N   0  0  0  0  0  0  0  0  0  0  0  0
   58.2414   31.6339   45.7035 C   0  0  0  0  0  0  0  0  0  0  0  0
   57.8777   32.5976   44.7535 C   0  0  0  0  0  0  0  0  0  0  0  0
   58.1723   33.9454   44.9635 C   0  0  0  0  0  0  0  0  0  0  0  0
   58.8623   34.3422   46.1118 C   0  0  0  0  0  0  0  0  0  0  0  0
   59.2786   33.3838   47.0547 C   0  0  0  0  0  0  0  0  0  0  0  0
   58.9483   32.0301   46.8541 C   0  0  0  0  0  0  0  0  0  0  0  0
   60.0355   33.8100   48.2512 C   0  0  0  0  0  0  0  0  0  0  0  0
   59.4310   34.4766   49.1432 O   0  0  0  0  0  0  0  0  0  0  0  0
   61.4337   33.4842   48.4281 N   0  0  0  0  0  0  0  0  0  0  0  0
   62.0470   33.7004   49.7435 C   0  0  0  0  0  0  0  0  0  0  0  0
   63.3277   32.8771   49.8755 C   0  0  0  0  0  0  0  0  0  0  0  0
   64.1972   33.1319   48.7929 O   0  0  0  0  0  0  0  0  0  0  0  0
   63.6080   32.6789   47.5894 C   0  0  0  0  0  0  0  0  0  0  0  0
   62.3370   33.4746   47.2673 C   0  0  0  0  0  0  0  0  0  0  0  0
  3  4  2  0
  4  5  1  0
  5  6  2  0
  6 11  1  0
 11 12  1  0
 12 13  1  0
 13 14  2  0
 13 15  1  0
 15 16  1  0
 16 17  1  0
  5  7  1  0
  7  8  2  0
  8  1  1  0
  1  2  2  0
  1 18  1  0
 18 19  1  0
 19 20  2  0
 20 21  1  0
 21 22  2  0
 22 23  1  0
 23 25  1  0
 25 26  2  0
 25 27  1  0
 27 28  1  0
 28 29  1  0
 29 30  1  0
 30 31  1  0
 31 32  1  0
 23 24  2  0
  8  9  1  0
  9 10  1  0
  9  4  1  0
 16 11  2  0
 24 19  1  0
 32 27  1  0
M  CHG 1  12  -1
M  CHG 1  15  -1
M  CHG 1  17  -1
M  CHG 1  18  -1
M  END
> <UniqueID>
81

> <SMILES>
C=c1c(=Cc2[n-]c(=O)[n-]c2[O-])cc(C(=O)[N-]c2cccc(C(=O)N3CCOCC3)c2)n1C

> <Energy>
138.32489895728423

> <Genealogy>
C=c1c(=Cc2[n-]c(=O)[n-]c2[O-])cc(C(=O)[N-]c2cccc(C(=O)N3CCOCC3)c2)n1C (protonated)
C=c1c(=Cc2[n-]c(=O)[n-]c2[O-])cc(C(=O)[N-]c2cccc(C(=O)N3CCOCC3)c2)n1C (3D coordinates assigned)
C=c1c(=Cc2[n-]c(=O)[n-]c2[O-])cc(C(=O)[N-]c2cccc(C(=O)N3CCOCC3)c2)n1C (nonaromatic ring conformer: 138.32489895728423 kcal/mol)

> <smiles>
C=c1c(=Cc2[nH]c(=O)[nH]c2O)cc(C(=O)Nc2cccc(C(=O)N3CCOCC3)c2)n1C

> <score_type>
oracle

> <origin>
adg

> <m_score__min__energy>
-19.170000000000002

> <m_primary>
energy

> <minimizedAffinity>
-8.69210

> <minimizedRMSD>
0.58585

> <CNNscore>
0.2185650319

> <CNNaffinity>
6.5449104309

> <CNN_VS>
1.4304885864

> <CNNaffinity_variance>
0.0513753183

$$$$
87:0


 29 31  0  0  0  0  0  0  0  0999 V2000
   58.1506   27.3886   43.8843 C   0  0  0  0  0  0  0  0  0  0  0  0
   58.6017   26.8164   45.0128 C   0  0  0  0  0  0  0  0  0  0  0  0
   58.3108   25.5177   45.4569 C   0  0  0  0  0  0  0  0  0  0  0  0
   57.5539   24.5960   44.8230 C   0  0  0  0  0  0  0  0  0  0  0  0
   58.9320   25.3868   46.6941 C   0  0  0  0  0  0  0  0  0  0  0  0
   59.5756   26.5812   46.9449 C   0  0  0  0  0  0  0  0  0  0  0  0
   60.3849   26.8643   48.1767 C   0  0  0  0  0  0  0  0  0  0  0  0
   59.3802   27.4500   45.9281 N   0  0  0  0  0  0  0  0  0  0  0  0
   59.9412   28.7735   45.8460 C   0  0  0  0  0  0  0  0  0  0  0  0
   60.4734   29.1626   44.7719 O   0  0  0  0  0  0  0  0  0  0  0  0
   56.3049   23.9975   45.3461 C   0  0  0  0  0  0  0  0  0  0  0  0
   55.9751   22.6934   45.3064 N   0  0  0  0  0  0  0  0  0  0  0  0
   54.7422   22.6616   45.8565 C   0  0  0  0  0  0  0  0  0  0  0  0
   54.0928   21.5938   46.0017 O   0  0  0  0  0  0  0  0  0  0  0  0
   54.2596   23.8636   46.2362 N   0  0  0  0  0  0  0  0  0  0  0  0
   55.2587   24.6968   45.9006 C   0  0  0  0  0  0  0  0  0  0  0  0
   55.2137   26.0722   46.0979 O   0  0  0  0  0  0  0  0  0  0  0  0
   59.8516   29.6607   46.9654 N   0  0  0  0  0  0  0  0  0  0  0  0
   58.7009   30.5167   47.2314 C   0  0  0  0  0  0  0  0  0  0  0  0
   58.8225   31.8115   46.4581 C   0  0  0  0  0  0  0  0  0  0  0  0
   59.7696   32.7764   46.8686 C   0  0  0  0  0  0  0  0  0  0  0  0
   59.8692   33.9910   46.1675 C   0  0  0  0  0  0  0  0  0  0  0  0
   59.0361   34.2493   45.0806 C   0  0  0  0  0  0  0  0  0  0  0  0
   58.0951   33.3046   44.6771 C   0  0  0  0  0  0  0  0  0  0  0  0
   57.9743   32.0795   45.3599 C   0  0  0  0  0  0  0  0  0  0  0  0
   60.5915   32.4922   47.9726 O   0  0  0  0  0  0  0  0  0  0  0  0
   61.8217   33.1510   48.2562 C   0  0  0  0  0  0  0  0  0  0  0  0
   57.0278   31.1153   44.9725 O   0  0  0  0  0  0  0  0  0  0  0  0
   56.8815   30.6052   43.6516 C   0  0  0  0  0  0  0  0  0  0  0  0
  1  2  2  0
  2  3  1  0
  3  4  2  0
  4 11  1  0
 11 12  1  0
 12 13  1  0
 13 14  2  0
 13 15  1  0
 15 16  1  0
 16 17  1  0
  3  5  1  0
  5  6  2  0
  6  7  1  0
  6  8  1  0
  8  9  1  0
  9 10  2  0
  9 18  1  0
 18 19  1  0
 19 20  1  0
 20 21  2  0
 21 26  1  0
 26 27  1  0
 21 22  1  0
 22 23  2  0
 23 24  1  0
 24 25  2  0
 25 28  1  0
 28 29  1  0
  8  2  1  0
 25 20  1  0
 16 11  2  0
M  CHG 1  12  -1
M  CHG 1  15  -1
M  CHG 1  17  -1
M  CHG 1  18  -1
M  END
> <UniqueID>
84

> <SMILES>
C=c1c(=Cc2[n-]c(=O)[n-]c2[O-])cc(C)n1C(=O)[N-]Cc1c(OC)cccc1OC

> <Energy>
113.61236992709088

> <Genealogy>
C=c1c(=Cc2[n-]c(=O)[n-]c2[O-])cc(C)n1C(=O)[N-]Cc1c(OC)cccc1OC (protonated)
C=c1c(=Cc2[n-]c(=O)[n-]c2[O-])cc(C)n1C(=O)[N-]Cc1c(OC)cccc1OC (3D coordinates assigned)
C=c1c(=Cc2[n-]c(=O)[n-]c2[O-])cc(C)n1C(=O)[N-]Cc1c(OC)cccc1OC (optimized conformer: 113.61236992709088 kcal/mol)

> <smiles>
C=c1c(=Cc2[nH]c(=O)[nH]c2O)cc(C)n1C(=O)NCc1c(OC)cccc1OC

> <score_type>
oracle

> <origin>
adg

> <m_score__min__energy>
-16.75

> <m_primary>
energy

> <minimizedAffinity>
-8.75995

> <minimizedRMSD>
0.80019

> <CNNscore>
0.3135841787

> <CNNaffinity>
6.5117077827

> <CNN_VS>
2.0419685841

> <CNNaffinity_variance>
0.0369771533

$$$$
3:0


 38 41  0  0  0  0  0  0  0  0999 V2000
   58.0224   28.3964   43.9848 C   0  0  0  0  0  0  0  0  0  0  0  0
   58.3460   28.3985   45.2906 C   0  0  0  0  0  0  0  0  0  0  0  0
   58.6233   27.2731   46.0681 C   0  0  0  0  0  0  0  0  0  0  0  0
   58.5228   25.9828   45.7005 C   0  0  0  0  0  0  0  0  0  0  0  0
   58.9548   27.7452   47.3303 C   0  0  0  0  0  0  0  0  0  0  0  0
   58.8519   29.1253   47.2918 C   0  0  0  0  0  0  0  0  0  0  0  0
   58.4567   29.5197   46.0490 N   0  0  0  0  0  0  0  0  0  0  0  0
   58.1349   30.8498   45.6139 C   0  0  0  0  0  0  0  0  0  0  0  0
   56.9891   31.0882   45.1493 O   0  0  0  0  0  0  0  0  0  0  0  0
   57.5797   25.0327   46.3208 C   0  0  0  0  0  0  0  0  0  0  0  0
   57.9620   23.8800   46.8960 N   0  0  0  0  0  0  0  0  0  0  0  0
   56.8004   23.3537   47.3430 C   0  0  0  0  0  0  0  0  0  0  0  0
   56.7496   22.2439   47.9323 O   0  0  0  0  0  0  0  0  0  0  0  0
   55.7049   24.1101   47.1096 N   0  0  0  0  0  0  0  0  0  0  0  0
   56.2184   25.1734   46.4696 C   0  0  0  0  0  0  0  0  0  0  0  0
   55.4620   26.2632   46.0512 O   0  0  0  0  0  0  0  0  0  0  0  0
   59.1572   29.9756   48.4870 C   0  0  0  0  0  0  0  0  0  0  0  0
   58.8818   29.4962   49.6273 O   0  0  0  0  0  0  0  0  0  0  0  0
   59.8923   31.2303   48.4080 N   0  0  0  0  0  0  0  0  0  0  0  0
   59.6275   32.0552   49.6162 C   0  0  0  0  0  0  0  0  0  0  0  0
   60.7226   33.1023   49.8223 C   0  0  0  0  0  0  0  0  0  0  0  0
   62.0218   32.4473   50.0839 N   0  0  0  0  0  0  0  0  0  0  0  0
   62.2000   31.1196   49.4468 C   0  0  0  0  0  0  0  0  0  0  0  0
   61.3448   30.9667   48.1731 C   0  0  0  0  0  0  0  0  0  0  0  0
   59.8061   31.4550   47.4534 H   0  0  0  0  0  0  0  0  0  0  0  0
   63.1738   33.3656   49.9601 C   0  0  0  0  0  0  0  0  0  0  0  0
   64.1581   33.3020   51.1599 C   0  0  0  0  0  0  0  0  0  0  0  0
   64.9048   32.0298   51.2735 N   0  0  0  0  0  0  0  0  0  0  0  0
   64.5365   31.2169   52.4433 C   0  0  0  0  0  0  0  0  0  0  0  0
   65.2678   29.8729   52.3716 C   0  0  0  0  0  0  0  0  0  0  0  0
   66.6693   30.0681   52.3256 O   0  0  0  0  0  0  0  0  0  0  0  0
   67.0166   30.8032   51.1668 C   0  0  0  0  0  0  0  0  0  0  0  0
   66.3646   32.1925   51.1845 C   0  0  0  0  0  0  0  0  0  0  0  0
   59.1692   31.9437   45.6349 C   0  0  0  0  0  0  0  0  0  0  0  0
   58.6112   33.3685   45.9245 C   0  0  0  0  0  0  0  0  0  0  0  0
   57.8831   33.9262   44.6813 C   0  0  0  0  0  0  0  0  0  0  0  0
   57.5930   33.2609   47.0831 C   0  0  0  0  0  0  0  0  0  0  0  0
   59.7365   34.3431   46.3411 C   0  0  0  0  0  0  0  0  0  0  0  0
  1  2  2  0
  2  3  1  0
  3  4  2  0
  4 10  1  0
 10 11  1  0
 11 12  1  0
 12 13  2  0
 12 14  1  0
 14 15  1  0
 15 16  1  0
  3  5  1  0
  5  6  2  0
  6 17  1  0
 17 18  2  0
 17 19  1  0
 19 20  1  0
 20 21  1  0
 21 22  1  0
 22 26  1  0
 26 27  1  0
 27 28  1  0
 28 29  1  0
 29 30  1  0
 30 31  1  0
 31 32  1  0
 32 33  1  0
 22 23  1  0
 23 24  1  0
  6  7  1  0
  7  8  1  0
  8  9  2  0
  8 34  1  0
 34 35  1  0
 35 36  1  0
 35 37  1  0
 35 38  1  0
  7  2  1  0
 15 10  2  0
 24 19  1  0
 33 28  1  0
 19 25  1  0
M  CHG 1  11  -1
M  CHG 1  14  -1
M  CHG 1  16  -1
M  CHG 1  19   1
M  END
> <UniqueID>
3

> <SMILES>
C=c1/c(=C/c2[n-]c(=O)[n-]c2[O-])cc(C(=O)[NH+]2CCN(CCN3CCOCC3)CC2)n1C(=O)CC(C)(C)C

> <Energy>
169.50666086209463

> <Genealogy>
C=c1c(=Cc2[n-]c(=O)[n-]c2[O-])cc(C(=O)[NH+]2CCN(CCN3CCOCC3)CC2)n1C(=O)CC(C)(C)C (protonated)
C=c1/c(=C/c2[n-]c(=O)[n-]c2[O-])cc(C(=O)[NH+]2CCN(CCN3CCOCC3)CC2)n1C(=O)CC(C)(C)C (cis-trans isomerization)
C=c1/c(=C/c2[n-]c(=O)[n-]c2[O-])cc(C(=O)[NH+]2CCN(CCN3CCOCC3)CC2)n1C(=O)CC(C)(C)C (3D coordinates assigned)
C=c1/c(=C/c2[n-]c(=O)[n-]c2[O-])cc(C(=O)[NH+]2CCN(CCN3CCOCC3)CC2)n1C(=O)CC(C)(C)C (nonaromatic ring conformer: 169.50666086209463 kcal/mol)

> <smiles>
C=c1c(=Cc2[nH]c(=O)[nH]c2O)cc(C(=O)N2CCN(CCN3CCOCC3)CC2)n1C(=O)CC(C)(C)C

> <score_type>
oracle

> <origin>
adg

> <m_score__min__energy>
-15.92

> <m_primary>
energy

> <minimizedAffinity>
-7.95232

> <minimizedRMSD>
0.98481

> <CNNscore>
0.2077211142

> <CNNaffinity>
7.0217480659

> <CNN_VS>
1.4585653543

> <CNNaffinity_variance>
0.3787343502

$$$$
4:0


 42 46  0  0  0  0  0  0  0  0999 V2000
   59.8909   31.1700   47.0417 C   0  0  0  0  0  0  0  0  0  0  0  0
   61.2081   31.5026   47.3822 C   0  0  0  0  0  0  0  0  0  0  0  0
   61.5966   31.6009   48.7260 C   0  0  0  0  0  0  0  0  0  0  0  0
   60.6551   31.3449   49.7350 C   0  0  0  0  0  0  0  0  0  0  0  0
   59.3253   31.0177   49.4165 C   0  0  0  0  0  0  0  0  0  0  0  0
   58.9531   30.9544   48.0608 C   0  0  0  0  0  0  0  0  0  0  0  0
   63.0018   31.9114   49.0693 C   0  0  0  0  0  0  0  0  0  0  0  0
   63.8551   32.0114   48.1449 O   0  0  0  0  0  0  0  0  0  0  0  0
   63.4106   32.1177   50.4341 N   0  0  0  0  0  0  0  0  0  0  0  0
   62.6303   33.0233   51.2928 C   0  0  0  0  0  0  0  0  0  0  0  0
   63.4302   33.4679   52.5262 C   0  0  0  0  0  0  0  0  0  0  0  0
   64.8136   33.8030   52.1489 N   0  0  0  0  0  0  0  0  0  0  0  0
   65.4586   34.9704   52.7009 C   0  0  0  0  0  0  0  0  0  0  0  0
   66.7603   35.4760   52.1529 C   0  0  0  0  0  0  0  0  0  0  0  0
   64.9323   35.5879   53.6654 O   0  0  0  0  0  0  0  0  0  0  0  0
   65.5742   32.8846   51.2827 C   0  0  0  0  0  0  0  0  0  0  0  0
   64.7358   31.6709   50.8772 C   0  0  0  0  0  0  0  0  0  0  0  0
   58.3463   30.7582   50.5119 C   0  0  0  0  0  0  0  0  0  0  0  0
   58.0274   29.5611   50.7672 O   0  0  0  0  0  0  0  0  0  0  0  0
   57.7951   31.8292   51.3255 N   0  0  0  0  0  0  0  0  0  0  0  0
   58.7976   32.9125   51.4602 C   0  0  0  0  0  0  0  0  0  0  0  0
   58.5347   33.7533   52.7214 C   0  0  0  0  0  0  0  0  0  0  0  0
   58.5908   33.0092   53.9331 O   0  0  0  0  0  0  0  0  0  0  0  0
   58.3195   31.6237   53.7697 C   0  0  0  0  0  0  0  0  0  0  0  0
   57.3130   31.3289   52.6417 C   0  0  0  0  0  0  0  0  0  0  0  0
   58.1597   32.4333   52.0121 H   0  0  0  0  0  0  0  0  0  0  0  0
   59.4953   30.9935   45.5944 C   0  0  0  0  0  0  0  0  0  0  0  0
   60.4238   28.1244   45.7444 C   0  0  0  0  0  0  0  0  0  0  0  0
   59.1540   28.4672   45.4806 C   0  0  0  0  0  0  0  0  0  0  0  0
   58.1171   27.5954   45.0993 C   0  0  0  0  0  0  0  0  0  0  0  0
   58.0562   26.2505   45.0425 C   0  0  0  0  0  0  0  0  0  0  0  0
   57.0480   28.3982   44.7502 C   0  0  0  0  0  0  0  0  0  0  0  0
   57.4266   29.7019   44.9855 C   0  0  0  0  0  0  0  0  0  0  0  0
   56.5506   30.8824   44.6878 C   0  0  0  0  0  0  0  0  0  0  0  0
   58.7108   29.7562   45.4212 N   0  0  0  0  0  0  0  0  0  0  0  0
   57.4611   25.3573   46.0510 C   0  0  0  0  0  0  0  0  0  0  0  0
   58.1611   24.6404   46.9530 N   0  0  0  0  0  0  0  0  0  0  0  0
   57.2026   24.1447   47.7668 C   0  0  0  0  0  0  0  0  0  0  0  0
   57.4649   23.3954   48.7448 O   0  0  0  0  0  0  0  0  0  0  0  0
   55.9449   24.5263   47.4598 N   0  0  0  0  0  0  0  0  0  0  0  0
   56.1292   25.3042   46.3801 C   0  0  0  0  0  0  0  0  0  0  0  0
   55.1003   25.9599   45.7152 O   0  0  0  0  0  0  0  0  0  0  0  0
 28 29  2  0
 29 30  1  0
 30 31  2  0
 31 36  1  0
 36 37  1  0
 37 38  1  0
 38 39  2  0
 38 40  1  0
 40 41  1  0
 41 42  1  0
 30 32  1  0
 32 33  2  0
 33 34  1  0
 33 35  1  0
 35 27  1  0
 27  1  1  0
  1  2  2  0
  2  3  1  0
  3  7  1  0
  7  8  2  0
  7  9  1  0
  9 10  1  0
 10 11  1  0
 11 12  1  0
 12 13  1  0
 13 14  1  0
 13 15  2  0
 12 16  1  0
 16 17  1  0
  3  4  2  0
  4  5  1  0
  5 18  1  0
 18 19  2  0
 18 20  1  0
 20 21  1  0
 21 22  1  0
 22 23  1  0
 23 24  1  0
 24 25  1  0
  5  6  2  0
 35 29  1  0
  6  1  1  0
 41 36  2  0
 17  9  1  0
 25 20  1  0
 20 26  1  0
M  CHG 1  20   1
M  CHG 1  37  -1
M  CHG 1  40  -1
M  CHG 1  42  -1
M  END
> <UniqueID>
4

> <SMILES>
C=c1c(=Cc2[n-]c(=O)[n-]c2[O-])cc(C)n1Cc1cc(C(=O)N2CCN(C(C)=O)CC2)cc(C(=O)[NH+]2CCOCC2)c1

> <Energy>
168.5865805122616

> <Genealogy>
C=c1c(=Cc2[n-]c(=O)[n-]c2[O-])cc(C)n1Cc1cc(C(=O)N2CCN(C(C)=O)CC2)cc(C(=O)[NH+]2CCOCC2)c1 (protonated)
C=c1c(=Cc2[n-]c(=O)[n-]c2[O-])cc(C)n1Cc1cc(C(=O)N2CCN(C(C)=O)CC2)cc(C(=O)[NH+]2CCOCC2)c1 (3D coordinates assigned)
C=c1c(=Cc2[n-]c(=O)[n-]c2[O-])cc(C)n1Cc1cc(C(=O)N2CCN(C(C)=O)CC2)cc(C(=O)[NH+]2CCOCC2)c1 (nonaromatic ring conformer: 168.5865805122616 kcal/mol)

> <smiles>
C=c1c(=Cc2[nH]c(=O)[nH]c2O)cc(C)n1Cc1cc(C(=O)N2CCOCC2)cc(C(=O)N2CCN(C(C)=O)CC2)c1

> <score_type>
oracle

> <origin>
adg

> <m_score__min__energy>
-17.93

> <m_primary>
energy

> <minimizedAffinity>
-7.07895

> <minimizedRMSD>
0.55858

> <CNNscore>
0.0678090677

> <CNNaffinity>
6.3852162361

> <CNN_VS>
0.4329755604

> <CNNaffinity_variance>
0.6434982419

$$$$
15:0


 28 31  0  0  0  0  0  0  0  0999 V2000
   54.7950   28.0386   54.1771 C   0  0  0  0  0  0  0  0  0  0  0  0
   55.2490   29.0567   53.4204 C   0  0  0  0  0  0  0  0  0  0  0  0
   54.4437   29.8940   52.6394 C   0  0  0  0  0  0  0  0  0  0  0  0
   53.1057   29.8208   52.4670 C   0  0  0  0  0  0  0  0  0  0  0  0
   55.2894   30.8540   52.1196 C   0  0  0  0  0  0  0  0  0  0  0  0
   56.5641   30.5537   52.5494 C   0  0  0  0  0  0  0  0  0  0  0  0
   56.5576   29.4446   53.3469 N   0  0  0  0  0  0  0  0  0  0  0  0
   52.3710   30.2833   51.2686 C   0  0  0  0  0  0  0  0  0  0  0  0
   52.2272   29.5996   50.1197 N   0  0  0  0  0  0  0  0  0  0  0  0
   51.4367   30.3969   49.3711 C   0  0  0  0  0  0  0  0  0  0  0  0
   51.0784   30.0957   48.2031 O   0  0  0  0  0  0  0  0  0  0  0  0
   51.0550   31.5426   49.9755 N   0  0  0  0  0  0  0  0  0  0  0  0
   51.6495   31.4509   51.1764 C   0  0  0  0  0  0  0  0  0  0  0  0
   51.5342   32.4161   52.1688 O   0  0  0  0  0  0  0  0  0  0  0  0
   57.6661   28.8003   54.1053 C   0  0  0  0  0  0  0  0  0  0  0  0
   58.0782   29.5853   55.3449 C   0  0  0  0  0  0  0  0  0  0  0  0
   59.5121   29.6396   54.8284 C   0  0  0  0  0  0  0  0  0  0  0  0
   59.0915   28.9076   53.5587 C   0  0  0  0  0  0  0  0  0  0  0  0
   57.7018   31.4637   52.3004 C   0  0  0  0  0  0  0  0  0  0  0  0
   58.0702   32.2191   53.2391 O   0  0  0  0  0  0  0  0  0  0  0  0
   58.3300   31.6016   50.9955 N   0  0  0  0  0  0  0  0  0  0  0  0
   59.3810   32.6532   50.9433 C   0  0  0  0  0  0  0  0  0  0  0  0
   60.7893   32.1820   51.3779 C   0  0  0  0  0  0  0  0  0  0  0  0
   61.0075   30.7308   51.1982 N   0  0  0  0  0  0  0  0  0  0  0  0
   62.4365   30.4345   51.0215 C   0  0  0  0  0  0  0  0  0  0  0  0
   60.2242   30.2059   50.0763 C   0  0  0  0  0  0  0  0  0  0  0  0
   58.7360   30.2821   50.4325 C   0  0  0  0  0  0  0  0  0  0  0  0
   57.6207   32.1037   50.5329 H   0  0  0  0  0  0  0  0  0  0  0  0
  1  2  2  0
  2  3  1  0
  3  4  2  0
  4  8  1  0
  8  9  1  0
  9 10  1  0
 10 11  2  0
 10 12  1  0
 12 13  1  0
 13 14  1  0
  3  5  1  0
  5  6  2  0
  6 19  1  0
 19 20  2  0
 19 21  1  0
 21 22  1  0
 22 23  1  0
 23 24  1  0
 24 25  1  0
 24 26  1  0
 26 27  1  0
  6  7  1  0
  7 15  1  0
 15 16  1  0
 16 17  1  0
 17 18  1  0
  7  2  1  0
 18 15  1  0
 13  8  2  0
 27 21  1  0
 21 28  1  0
M  CHG 1   9  -1
M  CHG 1  12  -1
M  CHG 1  14  -1
M  CHG 1  21   1
M  END
> <UniqueID>
15

> <SMILES>
C=c1c(=Cc2[n-]c(=O)[n-]c2[O-])cc(C(=O)[NH+]2CCN(C)CC2)n1C1CCC1

> <Energy>
203.60957139755666

> <Genealogy>
C=c1c(=Cc2[n-]c(=O)[n-]c2[O-])cc(C(=O)[NH+]2CCN(C)CC2)n1C1CCC1 (protonated)
C=c1c(=Cc2[n-]c(=O)[n-]c2[O-])cc(C(=O)[NH+]2CCN(C)CC2)n1C1CCC1 (3D coordinates assigned)
C=c1c(=Cc2[n-]c(=O)[n-]c2[O-])cc(C(=O)[NH+]2CCN(C)CC2)n1C1CCC1 (nonaromatic ring conformer: 203.60957139755666 kcal/mol)

> <smiles>
C=c1c(=Cc2[nH]c(=O)[nH]c2O)cc(C(=O)N2CCN(C)CC2)n1C1CCC1

> <score_type>
oracle

> <origin>
adg

> <m_score__min__energy>
-15.289999999999999

> <m_primary>
energy

> <minimizedAffinity>
-4.69463

> <minimizedRMSD>
0.80068

> <CNNscore>
0.0673420504

> <CNNaffinity>
4.2111697197

> <CNN_VS>
0.2835887969

> <CNNaffinity_variance>
0.9313343167

$$$$
16:0


 33 36  0  0  0  0  0  0  0  0999 V2000
   58.1972   31.1591   45.6051 C   0  0  0  0  0  0  0  0  0  0  0  0
   57.2598   31.6183   44.6706 C   0  0  0  0  0  0  0  0  0  0  0  0
   57.1511   32.9836   44.4004 C   0  0  0  0  0  0  0  0  0  0  0  0
   57.9833   33.8979   45.0521 C   0  0  0  0  0  0  0  0  0  0  0  0
   58.9436   33.4519   45.9768 C   0  0  0  0  0  0  0  0  0  0  0  0
   59.0375   32.0768   46.2549 C   0  0  0  0  0  0  0  0  0  0  0  0
   59.8257   34.4139   46.6776 C   0  0  0  0  0  0  0  0  0  0  0  0
   59.7298   35.6439   46.4095 O   0  0  0  0  0  0  0  0  0  0  0  0
   60.7900   33.9774   47.6545 N   0  0  0  0  0  0  0  0  0  0  0  0
   60.4435   33.9390   49.0757 C   0  0  0  0  0  0  0  0  0  0  0  0
   60.3198   32.4837   49.5146 C   0  0  0  0  0  0  0  0  0  0  0  0
   61.5211   31.7189   49.1470 N   0  0  0  0  0  0  0  0  0  0  0  0
   62.2600   32.0448   47.9476 C   0  0  0  0  0  0  0  0  0  0  0  0
   63.1351   31.2524   47.5054 O   0  0  0  0  0  0  0  0  0  0  0  0
   62.0551   33.3595   47.2448 C   0  0  0  0  0  0  0  0  0  0  0  0
   61.8753   30.5321   49.9363 C   0  0  0  0  0  0  0  0  0  0  0  0
   62.7659   30.9170   51.0777 C   0  0  0  0  0  0  0  0  0  0  0  0
   63.9488   31.1508   50.8891 O   0  0  0  0  0  0  0  0  0  0  0  0
   57.6513   28.8976   43.7585 C   0  0  0  0  0  0  0  0  0  0  0  0
   58.0948   28.7248   45.0130 C   0  0  0  0  0  0  0  0  0  0  0  0
   58.2881   27.5066   45.6868 C   0  0  0  0  0  0  0  0  0  0  0  0
   58.2649   26.2348   45.2433 C   0  0  0  0  0  0  0  0  0  0  0  0
   58.5621   27.8329   47.0057 C   0  0  0  0  0  0  0  0  0  0  0  0
   58.5866   29.2091   47.0812 C   0  0  0  0  0  0  0  0  0  0  0  0
   58.8749   29.9945   48.3252 C   0  0  0  0  0  0  0  0  0  0  0  0
   58.3164   29.7513   45.8736 N   0  0  0  0  0  0  0  0  0  0  0  0
   57.5401   25.1185   45.8733 C   0  0  0  0  0  0  0  0  0  0  0  0
   58.1128   23.9774   46.3010 N   0  0  0  0  0  0  0  0  0  0  0  0
   57.1003   23.3382   46.9278 C   0  0  0  0  0  0  0  0  0  0  0  0
   57.2415   22.2057   47.4581 O   0  0  0  0  0  0  0  0  0  0  0  0
   55.9316   24.0133   46.9509 N   0  0  0  0  0  0  0  0  0  0  0  0
   56.2332   25.1435   46.2936 C   0  0  0  0  0  0  0  0  0  0  0  0
   55.3323   26.1817   46.0860 O   0  0  0  0  0  0  0  0  0  0  0  0
 19 20  2  0
 20 21  1  0
 21 22  2  0
 22 27  1  0
 27 28  1  0
 28 29  1  0
 29 30  2  0
 29 31  1  0
 31 32  1  0
 32 33  1  0
 21 23  1  0
 23 24  2  0
 24 25  1  0
 24 26  1  0
 26  1  1  0
  1  2  2  0
  2  3  1  0
  3  4  2  0
  4  5  1  0
  5  7  1  0
  7  8  2  0
  7  9  1  0
  9 10  1  0
 10 11  1  0
 11 12  1  0
 12 16  1  0
 16 17  1  0
 17 18  2  0
 12 13  1  0
 13 14  2  0
 13 15  1  0
  5  6  2  0
 26 20  1  0
  6  1  1  0
 32 27  2  0
 15  9  1  0
M  CHG 1  28  -1
M  CHG 1  31  -1
M  CHG 1  33  -1
M  END
> <UniqueID>
16

> <SMILES>
C=c1c(=Cc2[n-]c(=O)[n-]c2[O-])cc(C)n1-c1cccc(C(=O)N2CCN(CC=O)C(=O)C2)c1

> <Energy>
134.44930152267534

> <Genealogy>
C=c1c(=Cc2[n-]c(=O)[n-]c2[O-])cc(C)n1-c1cccc(C(=O)N2CCN(CC=O)C(=O)C2)c1 (protonated)
C=c1c(=Cc2[n-]c(=O)[n-]c2[O-])cc(C)n1-c1cccc(C(=O)N2CCN(CC=O)C(=O)C2)c1 (3D coordinates assigned)
C=c1c(=Cc2[n-]c(=O)[n-]c2[O-])cc(C)n1-c1cccc(C(=O)N2CCN(CC=O)C(=O)C2)c1 (nonaromatic ring conformer: 134.44930152267534 kcal/mol)

> <smiles>
C=c1c(=Cc2[nH]c(=O)[nH]c2O)cc(C)n1-c1cccc(C(=O)N2CCN(CC=O)C(=O)C2)c1

> <score_type>
oracle

> <origin>
adg

> <m_score__min__energy>
-17.109999999999999

> <m_primary>
energy

> <minimizedAffinity>
-8.52580

> <minimizedRMSD>
0.67456

> <CNNscore>
0.1984371692

> <CNNaffinity>
6.8634629250

> <CNN_VS>
1.3619661331

> <CNNaffinity_variance>
0.1025975272

$$$$
20:0


 33 36  0  0  0  0  0  0  0  0999 V2000
   58.5931   30.6742   46.3430 C   0  0  0  0  0  0  0  0  0  0  0  0
   57.6686   31.2947   45.7520 O   0  0  0  0  0  0  0  0  0  0  0  0
   59.6476   31.4129   47.0012 N   0  0  0  0  0  0  0  0  0  0  0  0
   59.4807   32.8610   47.1793 C   0  0  0  0  0  0  0  0  0  0  0  0
   60.6802   33.4918   47.9090 C   0  0  0  0  0  0  0  0  0  0  0  0
   61.2047   32.6084   49.0874 C   0  0  0  0  0  0  0  0  0  0  0  0
   61.6886   31.2531   48.4485 C   0  0  0  0  0  0  0  0  0  0  0  0
   60.9951   30.8408   47.1286 C   0  0  0  0  0  0  0  0  0  0  0  0
   59.1384   26.0189   47.5629 C   0  0  0  0  0  0  0  0  0  0  0  0
   58.8614   27.1095   46.8314 C   0  0  0  0  0  0  0  0  0  0  0  0
   58.5234   27.1346   45.4722 C   0  0  0  0  0  0  0  0  0  0  0  0
   58.4444   26.0796   44.6351 C   0  0  0  0  0  0  0  0  0  0  0  0
   58.3423   28.4724   45.1454 C   0  0  0  0  0  0  0  0  0  0  0  0
   58.5867   29.1996   46.2921 C   0  0  0  0  0  0  0  0  0  0  0  0
   58.8720   28.3737   47.3247 N   0  0  0  0  0  0  0  0  0  0  0  0
   59.1189   28.7732   48.7137 C   0  0  0  0  0  0  0  0  0  0  0  0
   57.3186   25.1241   44.5885 C   0  0  0  0  0  0  0  0  0  0  0  0
   57.1496   24.1554   43.6694 N   0  0  0  0  0  0  0  0  0  0  0  0
   55.9611   23.6095   44.0007 C   0  0  0  0  0  0  0  0  0  0  0  0
   55.4543   22.6496   43.3658 O   0  0  0  0  0  0  0  0  0  0  0  0
   55.3554   24.1751   45.0688 N   0  0  0  0  0  0  0  0  0  0  0  0
   56.2243   25.1367   45.4205 C   0  0  0  0  0  0  0  0  0  0  0  0
   56.0201   26.0074   46.4830 O   0  0  0  0  0  0  0  0  0  0  0  0
   60.0448   32.3598   50.1522 C   0  0  0  0  0  0  0  0  0  0  0  0
   60.1419   31.0577   50.9835 C   0  0  0  0  0  0  0  0  0  0  0  0
   59.8238   33.5356   51.1296 C   0  0  0  0  0  0  0  0  0  0  0  0
   62.4229   33.3887   49.7034 C   0  0  0  0  0  0  0  0  0  0  0  0
   63.4780   32.5014   50.2602 N   0  0  0  0  0  0  0  0  0  0  0  0
   63.2983   32.2522   51.7102 C   0  0  0  0  0  0  0  0  0  0  0  0
   63.5865   33.5013   52.5651 C   0  0  0  0  0  0  0  0  0  0  0  0
   64.7036   34.3770   51.9800 C   0  0  0  0  0  0  0  0  0  0  0  0
   65.6416   33.5542   51.1004 C   0  0  0  0  0  0  0  0  0  0  0  0
   64.8701   32.9181   49.9255 C   0  0  0  0  0  0  0  0  0  0  0  0
  9 10  2  0
 10 11  1  0
 11 12  2  0
 12 17  1  0
 17 18  1  0
 18 19  1  0
 19 20  2  0
 19 21  1  0
 21 22  1  0
 22 23  1  0
 11 13  1  0
 13 14  2  0
 14  1  1  0
  1  2  2  0
  1  3  1  0
  3  4  1  0
  4  5  1  0
  5  6  1  0
  6 27  1  0
 27 28  1  0
 28 29  1  0
 29 30  1  0
 30 31  1  0
 31 32  1  0
 32 33  1  0
  6 24  1  0
 24 25  1  0
 24 26  1  0
  6  7  1  0
  7  8  1  0
 14 15  1  0
 15 16  1  0
 15 10  1  0
 22 17  2  0
  8  3  1  0
 33 28  1  0
M  CHG 1  18  -1
M  CHG 1  21  -1
M  CHG 1  23  -1
M  END
> <UniqueID>
19

> <SMILES>
C=c1c(=Cc2[n-]c(=O)[n-]c2[O-])cc(C(=O)N2CCC(CN3CCCCC3)(C(C)C)CC2)n1C

> <Energy>
158.95333513185486

> <Genealogy>
C=c1c(=Cc2[n-]c(=O)[n-]c2[O-])cc(C(=O)N2CCC(CN3CCCCC3)(C(C)C)CC2)n1C (protonated)
C=c1c(=Cc2[n-]c(=O)[n-]c2[O-])cc(C(=O)N2CCC(CN3CCCCC3)(C(C)C)CC2)n1C (3D coordinates assigned)
C=c1c(=Cc2[n-]c(=O)[n-]c2[O-])cc(C(=O)N2CCC(CN3CCCCC3)(C(C)C)CC2)n1C (nonaromatic ring conformer: 158.95333513185486 kcal/mol)

> <smiles>
C=c1c(=Cc2[nH]c(=O)[nH]c2O)cc(C(=O)N2CCC(CN3CCCCC3)(C(C)C)CC2)n1C

> <score_type>
oracle

> <origin>
adg

> <m_score__min__energy>
-18.609999999999999

> <m_primary>
energy

> <minimizedAffinity>
-7.92102

> <minimizedRMSD>
1.14082

> <CNNscore>
0.0741475523

> <CNNaffinity>
6.4106750488

> <CNN_VS>
0.4753358662

> <CNNaffinity_variance>
0.0578226745

$$$$
28:0


 34 37  0  0  0  0  0  0  0  0999 V2000
   59.3425   27.8980   47.3586 C   0  0  0  0  0  0  0  0  0  0  0  0
   60.3334   27.5746   48.0666 O   0  0  0  0  0  0  0  0  0  0  0  0
   58.8792   29.2638   47.3621 N   0  0  0  0  0  0  0  0  0  0  0  0
   58.1329   29.8201   46.2244 C   0  0  0  0  0  0  0  0  0  0  0  0
   58.6984   31.1926   45.8429 C   0  0  0  0  0  0  0  0  0  0  0  0
   58.9383   32.0460   47.0207 N   0  0  0  0  0  0  0  0  0  0  0  0
   59.4122   33.3955   46.8028 C   0  0  0  0  0  0  0  0  0  0  0  0
   59.3720   33.8856   45.6419 O   0  0  0  0  0  0  0  0  0  0  0  0
   58.6135   31.5218   48.3565 C   0  0  0  0  0  0  0  0  0  0  0  0
   59.1929   30.1163   48.5182 C   0  0  0  0  0  0  0  0  0  0  0  0
   57.6737   25.4597   43.5258 C   0  0  0  0  0  0  0  0  0  0  0  0
   58.0289   25.7208   44.7936 C   0  0  0  0  0  0  0  0  0  0  0  0
   57.6722   24.9896   45.9409 C   0  0  0  0  0  0  0  0  0  0  0  0
   57.0814   23.7855   46.0808 C   0  0  0  0  0  0  0  0  0  0  0  0
   58.0692   25.7533   47.0244 C   0  0  0  0  0  0  0  0  0  0  0  0
   58.7118   26.8645   46.5168 C   0  0  0  0  0  0  0  0  0  0  0  0
   58.6850   26.8535   45.1630 N   0  0  0  0  0  0  0  0  0  0  0  0
   59.1516   27.9233   44.2724 C   0  0  0  0  0  0  0  0  0  0  0  0
   55.6338   23.5223   46.0082 C   0  0  0  0  0  0  0  0  0  0  0  0
   55.0719   22.3072   46.1357 N   0  0  0  0  0  0  0  0  0  0  0  0
   53.7466   22.5748   46.1405 C   0  0  0  0  0  0  0  0  0  0  0  0
   52.8737   21.6736   46.2312 O   0  0  0  0  0  0  0  0  0  0  0  0
   53.4341   23.8862   46.0528 N   0  0  0  0  0  0  0  0  0  0  0  0
   54.6389   24.4747   45.9837 C   0  0  0  0  0  0  0  0  0  0  0  0
   54.8157   25.8539   45.8997 O   0  0  0  0  0  0  0  0  0  0  0  0
   54.0706   26.4220   45.8896 H   0  0  0  0  0  0  0  0  0  0  0  0
   59.9648   34.2576   47.9090 C   0  0  0  0  0  0  0  0  0  0  0  0
   61.3615   33.8387   48.2917 C   0  0  0  0  0  0  0  0  0  0  0  0
   62.2405   33.3368   47.3152 C   0  0  0  0  0  0  0  0  0  0  0  0
   63.5283   32.9250   47.6694 C   0  0  0  0  0  0  0  0  0  0  0  0
   63.9491   33.0008   48.9990 C   0  0  0  0  0  0  0  0  0  0  0  0
   63.0752   33.4819   49.9809 C   0  0  0  0  0  0  0  0  0  0  0  0
   63.4869   33.5432   51.3062 O   0  0  0  0  0  0  0  0  0  0  0  0
   61.7865   33.8961   49.6301 C   0  0  0  0  0  0  0  0  0  0  0  0
 11 12  2  0
 12 13  1  0
 13 14  2  0
 14 19  1  0
 19 20  1  0
 20 21  1  0
 21 22  2  0
 21 23  1  0
 23 24  1  0
 24 25  1  0
 13 15  1  0
 15 16  2  0
 16  1  1  0
  1  2  2  0
  1  3  1  0
  3  4  1  0
  4  5  1  0
  5  6  1  0
  6  7  1  0
  7  8  2  0
  7 27  1  0
 27 28  1  0
 28 29  2  0
 29 30  1  0
 30 31  2  0
 31 32  1  0
 32 33  1  0
 32 34  2  0
  6  9  1  0
  9 10  1  0
 16 17  1  0
 17 18  1  0
 17 12  1  0
 24 19  2  0
 10  3  1  0
 34 28  1  0
 25 26  1  0
M  CHG 1  20  -1
M  CHG 1  23  -1
M  CHG 1  33  -1
M  END
> <UniqueID>
27

> <SMILES>
C=c1c(=Cc2[n-]c(=O)[n-]c2O)cc(C(=O)N2CCN(C(=O)Cc3cccc([O-])c3)CC2)n1C

> <Energy>
133.04928460222388

> <Genealogy>
C=c1c(=Cc2[n-]c(=O)[n-]c2O)cc(C(=O)N2CCN(C(=O)Cc3cccc([O-])c3)CC2)n1C (protonated)
C=c1c(=Cc2[n-]c(=O)[n-]c2O)cc(C(=O)N2CCN(C(=O)Cc3cccc([O-])c3)CC2)n1C (3D coordinates assigned)
C=c1c(=Cc2[n-]c(=O)[n-]c2O)cc(C(=O)N2CCN(C(=O)Cc3cccc([O-])c3)CC2)n1C (nonaromatic ring conformer: 133.04928460222388 kcal/mol)

> <smiles>
C=c1c(=Cc2[nH]c(=O)[nH]c2O)cc(C(=O)N2CCN(C(=O)Cc3cccc(O)c3)CC2)n1C

> <score_type>
oracle

> <origin>
adg

> <m_score__min__energy>
-14.23

> <m_primary>
energy

> <minimizedAffinity>
-9.03810

> <minimizedRMSD>
0.58614

> <CNNscore>
0.1800132394

> <CNNaffinity>
6.3904395103

> <CNN_VS>
1.1503636837

> <CNNaffinity_variance>
0.2097824663

$$$$
30:0


 32 35  0  0  0  0  0  0  0  0999 V2000
   60.3542   27.5573   46.5335 C   0  0  0  0  0  0  0  0  0  0  0  0
   59.5590   28.5472   46.0951 C   0  0  0  0  0  0  0  0  0  0  0  0
   58.4249   28.4236   45.2743 C   0  0  0  0  0  0  0  0  0  0  0  0
   57.9496   27.3785   44.5717 C   0  0  0  0  0  0  0  0  0  0  0  0
   57.8061   29.6633   45.2840 C   0  0  0  0  0  0  0  0  0  0  0  0
   58.5990   30.5035   46.0359 C   0  0  0  0  0  0  0  0  0  0  0  0
   58.3182   31.9586   46.2607 C   0  0  0  0  0  0  0  0  0  0  0  0
   59.6603   29.8283   46.5324 N   0  0  0  0  0  0  0  0  0  0  0  0
   60.6835   30.3680   47.3879 C   0  0  0  0  0  0  0  0  0  0  0  0
   61.7693   30.7612   46.8763 O   0  0  0  0  0  0  0  0  0  0  0  0
   60.5100   30.3805   48.8237 N   0  0  0  0  0  0  0  0  0  0  0  0
   59.5986   29.2858   49.2650 C   0  0  0  0  0  0  0  0  0  0  0  0
   58.6688   29.6708   50.4339 C   0  0  0  0  0  0  0  0  0  0  0  0
   59.3240   30.6262   51.3371 N   0  0  0  0  0  0  0  0  0  0  0  0
   59.2833   30.4520   52.7665 C   0  0  0  0  0  0  0  0  0  0  0  0
   60.2870   30.7790   53.4573 O   0  0  0  0  0  0  0  0  0  0  0  0
   60.0128   31.7947   50.7795 C   0  0  0  0  0  0  0  0  0  0  0  0
   60.0616   31.7214   49.2499 C   0  0  0  0  0  0  0  0  0  0  0  0
   59.9770   30.7124   49.5820 H   0  0  0  0  0  0  0  0  0  0  0  0
   58.0894   29.9044   53.4513 C   0  0  0  0  0  0  0  0  0  0  0  0
   58.1127   28.5987   53.9735 C   0  0  0  0  0  0  0  0  0  0  0  0
   56.9935   28.0811   54.6332 C   0  0  0  0  0  0  0  0  0  0  0  0
   55.8465   28.8654   54.7875 C   0  0  0  0  0  0  0  0  0  0  0  0
   55.8203   30.1690   54.2897 C   0  0  0  0  0  0  0  0  0  0  0  0
   56.9373   30.6911   53.6287 C   0  0  0  0  0  0  0  0  0  0  0  0
   57.7446   26.0166   45.0898 C   0  0  0  0  0  0  0  0  0  0  0  0
   58.6638   25.0398   44.9947 N   0  0  0  0  0  0  0  0  0  0  0  0
   58.1160   24.0270   45.7025 C   0  0  0  0  0  0  0  0  0  0  0  0
   58.6821   22.9121   45.8364 O   0  0  0  0  0  0  0  0  0  0  0  0
   56.9216   24.3095   46.2658 N   0  0  0  0  0  0  0  0  0  0  0  0
   56.7071   25.5772   45.8803 C   0  0  0  0  0  0  0  0  0  0  0  0
   55.6013   26.3256   46.2676 O   0  0  0  0  0  0  0  0  0  0  0  0
  1  2  2  0
  2  3  1  0
  3  4  2  0
  4 26  1  0
 26 27  1  0
 27 28  1  0
 28 29  2  0
 28 30  1  0
 30 31  1  0
 31 32  1  0
  3  5  1  0
  5  6  2  0
  6  7  1  0
  6  8  1  0
  8  9  1  0
  9 10  2  0
  9 11  1  0
 11 12  1  0
 12 13  1  0
 13 14  1  0
 14 15  1  0
 15 16  2  0
 15 20  1  0
 20 21  2  0
 21 22  1  0
 22 23  2  0
 23 24  1  0
 24 25  2  0
 14 17  1  0
 17 18  1  0
  8  2  1  0
 18 11  1  0
 31 26  2  0
 25 20  1  0
 11 19  1  0
M  CHG 1  11   1
M  CHG 1  27  -1
M  CHG 1  30  -1
M  CHG 1  32  -1
M  END
> <UniqueID>
28

> <SMILES>
C=c1c(=Cc2[n-]c(=O)[n-]c2[O-])cc(C)n1C(=O)[NH+]1CCN(C(=O)c2ccccc2)CC1

> <Energy>
142.56278422656783

> <Genealogy>
C=c1c(=Cc2[n-]c(=O)[n-]c2[O-])cc(C)n1C(=O)[NH+]1CCN(C(=O)c2ccccc2)CC1 (protonated)
C=c1c(=Cc2[n-]c(=O)[n-]c2[O-])cc(C)n1C(=O)[NH+]1CCN(C(=O)c2ccccc2)CC1 (3D coordinates assigned)
C=c1c(=Cc2[n-]c(=O)[n-]c2[O-])cc(C)n1C(=O)[NH+]1CCN(C(=O)c2ccccc2)CC1 (nonaromatic ring conformer: 142.56278422656783 kcal/mol)

> <smiles>
C=c1c(=Cc2[nH]c(=O)[nH]c2O)cc(C)n1C(=O)N1CCN(C(=O)c2ccccc2)CC1

> <score_type>
oracle

> <origin>
adg

> <m_score__min__energy>
-16.109999999999999

> <m_primary>
energy

> <minimizedAffinity>
-6.80613

> <minimizedRMSD>
1.62475

> <CNNscore>
0.0628427789

> <CNNaffinity>
5.7776584625

> <CNN_VS>
0.3630841076

> <CNNaffinity_variance>
0.0269523356

$$$$
38:0


 25 27  0  0  0  0  0  0  0  0999 V2000
   56.2724   30.1822   43.8460 C   0  0  0  0  0  0  0  0  0  0  0  0
   57.2208   29.6601   44.6265 C   0  0  0  0  0  0  0  0  0  0  0  0
   57.1802   28.3921   45.0846 N   0  0  0  0  0  0  0  0  0  0  0  0
   58.3065   28.2032   45.8069 C   0  0  0  0  0  0  0  0  0  0  0  0
   58.6619   27.0564   46.4049 C   0  0  0  0  0  0  0  0  0  0  0  0
   59.0788   29.3493   45.8033 C   0  0  0  0  0  0  0  0  0  0  0  0
   58.3829   30.2915   45.0664 C   0  0  0  0  0  0  0  0  0  0  0  0
   56.4678   27.7320   44.9238 H   0  0  0  0  0  0  0  0  0  0  0  0
   58.0532   25.7466   46.1090 C   0  0  0  0  0  0  0  0  0  0  0  0
   58.7559   24.6146   45.9502 N   0  0  0  0  0  0  0  0  0  0  0  0
   57.8256   23.6528   45.7917 C   0  0  0  0  0  0  0  0  0  0  0  0
   58.1144   22.4431   45.6045 O   0  0  0  0  0  0  0  0  0  0  0  0
   56.5529   24.0992   45.8641 N   0  0  0  0  0  0  0  0  0  0  0  0
   56.7115   25.4212   46.0767 C   0  0  0  0  0  0  0  0  0  0  0  0
   55.6522   26.2959   46.2856 O   0  0  0  0  0  0  0  0  0  0  0  0
   59.7348   24.5100   45.9496 H   0  0  0  0  0  0  0  0  0  0  0  0
   58.8588   31.6983   44.7779 C   0  0  0  0  0  0  0  0  0  0  0  0
   58.5753   32.7405   45.9078 C   0  0  0  0  0  0  0  0  0  0  0  0
   57.1432   33.3051   45.7568 C   0  0  0  0  0  0  0  0  0  0  0  0
   58.6651   31.9921   47.2856 C   0  0  0  0  0  0  0  0  0  0  0  0
   59.2376   32.8552   48.4180 C   0  0  0  0  0  0  0  0  0  0  0  0
   60.6034   33.3450   48.0268 C   0  0  0  0  0  0  0  0  0  0  0  0
   61.4714   33.4821   48.8748 O   0  0  0  0  0  0  0  0  0  0  0  0
   60.8952   33.6732   46.5890 C   0  0  0  0  0  0  0  0  0  0  0  0
   59.5867   33.9356   45.8334 C   0  0  0  0  0  0  0  0  0  0  0  0
  1  2  2  0
  2  3  1  0
  3  4  1  0
  4  5  2  0
  5  9  1  0
  9 10  1  0
 10 11  1  0
 11 12  2  0
 11 13  1  0
 13 14  1  0
 14 15  1  0
  4  6  1  0
  6  7  2  0
  7 17  1  0
 17 18  1  0
 18 19  1  0
 18 20  1  0
 20 21  1  0
 21 22  1  0
 22 23  2  0
 22 24  1  0
 24 25  1  0
  7  2  1  0
 25 18  1  0
 14  9  2  0
  3  8  1  0
 10 16  1  0
M  CHG 1  13  -1
M  CHG 1  15  -1
M  END
> <UniqueID>
36

> <SMILES>
C=c1[nH]c(=Cc2[nH]c(=O)[n-]c2[O-])cc1CC1(C)CCC(=O)CC1

> <Energy>
108.05386047624219

> <Genealogy>
C=c1[nH]c(=Cc2[nH]c(=O)[n-]c2[O-])cc1CC1(C)CCC(=O)CC1 (protonated)
C=c1[nH]c(=Cc2[nH]c(=O)[n-]c2[O-])cc1CC1(C)CCC(=O)CC1 (3D coordinates assigned)
C=c1[nH]c(=Cc2[nH]c(=O)[n-]c2[O-])cc1CC1(C)CCC(=O)CC1 (nonaromatic ring conformer: 108.05386047624219 kcal/mol)

> <smiles>
C=c1[nH]c(=Cc2[nH]c(=O)[nH]c2O)cc1CC1(C)CCC(=O)CC1

> <score_type>
oracle

> <origin>
adg

> <m_score__min__energy>
-14.699999999999999

> <m_primary>
energy

> <minimizedAffinity>
-8.04290

> <minimizedRMSD>
0.96606

> <CNNscore>
0.4562213421

> <CNNaffinity>
6.5243892670

> <CNN_VS>
2.9765655994

> <CNNaffinity_variance>
0.0455617905

$$$$
42:0


 26 28  0  0  0  0  0  0  0  0999 V2000
   60.9722   26.9082   49.6927 C   0  0  0  0  0  0  0  0  0  0  0  0
   60.2687   27.9544   49.2315 C   0  0  0  0  0  0  0  0  0  0  0  0
   59.6198   28.0534   47.9908 C   0  0  0  0  0  0  0  0  0  0  0  0
   59.3632   27.1277   47.0461 C   0  0  0  0  0  0  0  0  0  0  0  0
   59.2408   29.3783   47.8587 C   0  0  0  0  0  0  0  0  0  0  0  0
   59.6071   30.0219   49.0227 C   0  0  0  0  0  0  0  0  0  0  0  0
   60.2095   29.1527   49.8698 N   0  0  0  0  0  0  0  0  0  0  0  0
   60.7327   29.4634   51.2067 C   0  0  0  0  0  0  0  0  0  0  0  0
   59.4262   31.4686   49.2630 C   0  0  0  0  0  0  0  0  0  0  0  0
   58.5158   31.8499   50.0479 O   0  0  0  0  0  0  0  0  0  0  0  0
   60.2783   32.4412   48.6262 N   0  0  0  0  0  0  0  0  0  0  0  0
   60.4544   33.7767   49.1998 C   0  0  0  0  0  0  0  0  0  0  0  0
   59.8657   34.8382   48.2519 C   0  0  0  0  0  0  0  0  0  0  0  0
   59.9589   34.4860   46.8010 N   0  0  0  0  0  0  0  0  0  0  0  0
   61.0564   33.5180   46.5466 C   0  0  0  0  0  0  0  0  0  0  0  0
   60.8240   32.1903   47.2884 C   0  0  0  0  0  0  0  0  0  0  0  0
   58.6326   34.1274   46.2080 C   0  0  0  0  0  0  0  0  0  0  0  0
   58.8242   33.6151   44.7651 C   0  0  0  0  0  0  0  0  0  0  0  0
   57.8932   33.0201   46.9936 C   0  0  0  0  0  0  0  0  0  0  0  0
   58.1147   26.3617   46.9094 C   0  0  0  0  0  0  0  0  0  0  0  0
   57.9356   25.1360   47.4313 N   0  0  0  0  0  0  0  0  0  0  0  0
   56.7240   24.7695   46.9549 C   0  0  0  0  0  0  0  0  0  0  0  0
   56.1906   23.6654   47.2413 O   0  0  0  0  0  0  0  0  0  0  0  0
   56.1365   25.6709   46.1418 N   0  0  0  0  0  0  0  0  0  0  0  0
   57.0360   26.6668   46.1109 C   0  0  0  0  0  0  0  0  0  0  0  0
   56.8879   27.8158   45.3440 O   0  0  0  0  0  0  0  0  0  0  0  0
  1  2  2  0
  2  3  1  0
  3  4  2  0
  4 20  1  0
 20 21  1  0
 21 22  1  0
 22 23  2  0
 22 24  1  0
 24 25  1  0
 25 26  1  0
  3  5  1  0
  5  6  2  0
  6  9  1  0
  9 10  2  0
  9 11  1  0
 11 12  1  0
 12 13  1  0
 13 14  1  0
 14 17  1  0
 17 18  1  0
 17 19  1  0
 14 15  1  0
 15 16  1  0
  6  7  1  0
  7  8  1  0
  7  2  1  0
 25 20  2  0
 16 11  1  0
M  CHG 1  21  -1
M  CHG 1  24  -1
M  CHG 1  26  -1
M  END
> <UniqueID>
39

> <SMILES>
C=c1c(=Cc2[n-]c(=O)[n-]c2[O-])cc(C(=O)N2CCN(C(C)C)CC2)n1C

> <Energy>
135.91820042784445

> <Genealogy>
C=c1c(=Cc2[n-]c(=O)[n-]c2[O-])cc(C(=O)N2CCN(C(C)C)CC2)n1C (protonated)
C=c1c(=Cc2[n-]c(=O)[n-]c2[O-])cc(C(=O)N2CCN(C(C)C)CC2)n1C (3D coordinates assigned)
C=c1c(=Cc2[n-]c(=O)[n-]c2[O-])cc(C(=O)N2CCN(C(C)C)CC2)n1C (nonaromatic ring conformer: 135.91820042784445 kcal/mol)

> <smiles>
C=c1c(=Cc2[nH]c(=O)[nH]c2O)cc(C(=O)N2CCN(C(C)C)CC2)n1C

> <score_type>
oracle

> <origin>
adg

> <m_score__min__energy>
-16.550000000000001

> <m_primary>
energy

> <minimizedAffinity>
-6.37886

> <minimizedRMSD>
1.01802

> <CNNscore>
0.1581966579

> <CNNaffinity>
5.7140479088

> <CNN_VS>
0.9039433002

> <CNNaffinity_variance>
0.1926859617

$$$$
47:0


 33 36  0  0  0  0  0  0  0  0999 V2000
   58.5611   29.2865   44.8512 C   0  0  0  0  0  0  0  0  0  0  0  0
   57.3324   29.1567   44.1801 C   0  0  0  0  0  0  0  0  0  0  0  0
   56.4420   30.2333   44.1171 C   0  0  0  0  0  0  0  0  0  0  0  0
   56.7621   31.4418   44.7385 C   0  0  0  0  0  0  0  0  0  0  0  0
   57.9737   31.5823   45.4375 C   0  0  0  0  0  0  0  0  0  0  0  0
   58.8686   30.4967   45.4931 C   0  0  0  0  0  0  0  0  0  0  0  0
   58.3115   32.8611   46.1009 C   0  0  0  0  0  0  0  0  0  0  0  0
   57.8126   33.9328   45.6557 O   0  0  0  0  0  0  0  0  0  0  0  0
   59.2351   32.9087   47.2020 N   0  0  0  0  0  0  0  0  0  0  0  0
   59.1166   31.9480   48.3068 C   0  0  0  0  0  0  0  0  0  0  0  0
   60.5064   31.5689   48.8241 C   0  0  0  0  0  0  0  0  0  0  0  0
   61.3038   32.7665   49.1401 N   0  0  0  0  0  0  0  0  0  0  0  0
   62.4391   32.6259   50.0223 C   0  0  0  0  0  0  0  0  0  0  0  0
   62.8982   31.4735   50.2681 O   0  0  0  0  0  0  0  0  0  0  0  0
   63.1113   33.8115   50.6428 C   0  0  0  0  0  0  0  0  0  0  0  0
   60.8775   34.0894   48.6555 C   0  0  0  0  0  0  0  0  0  0  0  0
   60.2149   33.9968   47.2711 C   0  0  0  0  0  0  0  0  0  0  0  0
   59.5267   28.1262   44.9001 C   0  0  0  0  0  0  0  0  0  0  0  0
   58.2267   25.5835   43.9748 C   0  0  0  0  0  0  0  0  0  0  0  0
   58.3280   25.9147   45.2741 C   0  0  0  0  0  0  0  0  0  0  0  0
   57.9516   25.1210   46.3716 C   0  0  0  0  0  0  0  0  0  0  0  0
   57.2582   23.9670   46.4424 C   0  0  0  0  0  0  0  0  0  0  0  0
   58.4689   25.7463   47.4913 C   0  0  0  0  0  0  0  0  0  0  0  0
   59.0848   26.9026   47.0628 C   0  0  0  0  0  0  0  0  0  0  0  0
   59.7944   27.8592   47.9757 C   0  0  0  0  0  0  0  0  0  0  0  0
   58.9818   27.0237   45.7163 N   0  0  0  0  0  0  0  0  0  0  0  0
   55.8112   23.8153   46.2259 C   0  0  0  0  0  0  0  0  0  0  0  0
   55.1732   22.6390   46.0887 N   0  0  0  0  0  0  0  0  0  0  0  0
   53.8995   23.0088   45.8267 C   0  0  0  0  0  0  0  0  0  0  0  0
   52.9766   22.1723   45.6455 O   0  0  0  0  0  0  0  0  0  0  0  0
   53.6943   24.3449   45.7628 N   0  0  0  0  0  0  0  0  0  0  0  0
   54.9197   24.8390   46.0057 C   0  0  0  0  0  0  0  0  0  0  0  0
   55.2160   26.1982   46.0215 O   0  0  0  0  0  0  0  0  0  0  0  0
 19 20  2  0
 20 21  1  0
 21 22  2  0
 22 27  1  0
 27 28  1  0
 28 29  1  0
 29 30  2  0
 29 31  1  0
 31 32  1  0
 32 33  1  0
 21 23  1  0
 23 24  2  0
 24 25  1  0
 24 26  1  0
 26 18  1  0
 18  1  1  0
  1  2  2  0
  2  3  1  0
  3  4  2  0
  4  5  1  0
  5  7  1  0
  7  8  2  0
  7  9  1  0
  9 10  1  0
 10 11  1  0
 11 12  1  0
 12 13  1  0
 13 14  2  0
 13 15  1  0
 12 16  1  0
 16 17  1  0
  5  6  2  0
 26 20  1  0
  6  1  1  0
 32 27  2  0
 17  9  1  0
M  CHG 1  28  -1
M  CHG 1  31  -1
M  CHG 1  33  -1
M  END
> <UniqueID>
44

> <SMILES>
C=c1/c(=C\c2[n-]c(=O)[n-]c2[O-])cc(C)n1Cc1cccc(C(=O)N2CCN(C(C)=O)CC2)c1

> <Energy>
133.3192671851131

> <Genealogy>
C=c1c(=Cc2[n-]c(=O)[n-]c2[O-])cc(C)n1Cc1cccc(C(=O)N2CCN(C(C)=O)CC2)c1 (protonated)
C=c1/c(=C\c2[n-]c(=O)[n-]c2[O-])cc(C)n1Cc1cccc(C(=O)N2CCN(C(C)=O)CC2)c1 (cis-trans isomerization)
C=c1/c(=C\c2[n-]c(=O)[n-]c2[O-])cc(C)n1Cc1cccc(C(=O)N2CCN(C(C)=O)CC2)c1 (3D coordinates assigned)
C=c1/c(=C\c2[n-]c(=O)[n-]c2[O-])cc(C)n1Cc1cccc(C(=O)N2CCN(C(C)=O)CC2)c1 (nonaromatic ring conformer: 133.3192671851131 kcal/mol)

> <smiles>
C=c1c(=Cc2[nH]c(=O)[nH]c2O)cc(C)n1Cc1cccc(C(=O)N2CCN(C(C)=O)CC2)c1

> <score_type>
oracle

> <origin>
adg

> <m_score__min__energy>
-17.899999999999999

> <m_primary>
energy

> <minimizedAffinity>
-8.13863

> <minimizedRMSD>
1.26402

> <CNNscore>
0.0616718046

> <CNNaffinity>
6.1197905540

> <CNN_VS>
0.3774185181

> <CNNaffinity_variance>
0.1497010738

$$$$
52:0


 33 35  0  0  0  0  0  0  0  0999 V2000
   58.4304   30.8740   52.9713 C   0  0  0  0  0  0  0  0  0  0  0  0
   58.1292   32.1711   53.1886 N   0  0  0  0  0  0  0  0  0  0  0  0
   58.9340   32.8342   52.3283 C   0  0  0  0  0  0  0  0  0  0  0  0
   58.9267   34.0887   52.2156 O   0  0  0  0  0  0  0  0  0  0  0  0
   59.7197   32.0253   51.5870 N   0  0  0  0  0  0  0  0  0  0  0  0
   59.3853   30.7864   51.9823 C   0  0  0  0  0  0  0  0  0  0  0  0
   59.9021   29.6152   51.4388 O   0  0  0  0  0  0  0  0  0  0  0  0
   57.7028   29.7283   53.6036 C   0  0  0  0  0  0  0  0  0  0  0  0
   53.5510   29.7795   52.4130 C   0  0  0  0  0  0  0  0  0  0  0  0
   54.4335   30.7647   51.9454 C   0  0  0  0  0  0  0  0  0  0  0  0
   55.7820   30.7391   52.3139 C   0  0  0  0  0  0  0  0  0  0  0  0
   56.2658   29.7274   53.1580 C   0  0  0  0  0  0  0  0  0  0  0  0
   55.3798   28.7524   53.6432 C   0  0  0  0  0  0  0  0  0  0  0  0
   54.0312   28.7790   53.2748 C   0  0  0  0  0  0  0  0  0  0  0  0
   52.0940   29.8305   52.0464 C   0  0  0  0  0  0  0  0  0  0  0  0
   51.4435   31.8031   50.6023 N   0  0  0  0  0  0  0  0  0  0  0  0
   51.6489   31.2498   51.9004 C   0  0  0  0  0  0  0  0  0  0  0  0
   51.4249   31.9484   52.9240 O   0  0  0  0  0  0  0  0  0  0  0  0
   51.1503   32.7381   50.5065 H   0  0  0  0  0  0  0  0  0  0  0  0
   60.5821   32.3975   50.4660 C   0  0  0  0  0  0  0  0  0  0  0  0
   59.7670   33.0334   49.3848 C   0  0  0  0  0  0  0  0  0  0  0  0
   60.0205   34.2147   49.0243 O   0  0  0  0  0  0  0  0  0  0  0  0
   58.7575   32.2642   48.7203 N   0  0  0  0  0  0  0  0  0  0  0  0
   58.9624   31.2876   47.6870 C   0  0  0  0  0  0  0  0  0  0  0  0
   59.4151   29.9895   47.9932 C   0  0  0  0  0  0  0  0  0  0  0  0
   59.6164   29.0523   46.9809 C   0  0  0  0  0  0  0  0  0  0  0  0
   59.3775   29.3977   45.6513 C   0  0  0  0  0  0  0  0  0  0  0  0
   58.9565   30.6884   45.3267 C   0  0  0  0  0  0  0  0  0  0  0  0
   58.7612   31.6530   46.3358 C   0  0  0  0  0  0  0  0  0  0  0  0
   58.3072   33.0520   45.9833 C   0  0  0  0  0  0  0  0  0  0  0  0
   57.3103   33.4524   46.8529 F   0  0  0  0  0  0  0  0  0  0  0  0
   59.3448   33.9661   46.0632 F   0  0  0  0  0  0  0  0  0  0  0  0
   57.8122   33.0638   44.6923 F   0  0  0  0  0  0  0  0  0  0  0  0
 16 17  1  0
 17 18  2  0
 17 15  1  0
 15  9  1  0
  9 10  2  0
 10 11  1  0
 11 12  2  0
 12  8  1  0
  8  1  1  0
  1  2  1  0
  2  3  1  0
  3  4  2  0
  3  5  1  0
  5 20  1  0
 20 21  1  0
 21 22  2  0
 21 23  1  0
 23 24  1  0
 24 25  2  0
 25 26  1  0
 26 27  2  0
 27 28  1  0
 28 29  2  0
 29 30  1  0
 30 31  1  0
 30 32  1  0
 30 33  1  0
  5  6  1  0
  6  7  1  0
 12 13  1  0
 13 14  2  0
 14  9  1  0
  6  1  2  0
 29 24  1  0
 16 19  1  0
M  CHG 1   2  -1
M  CHG 1   7  -1
M  CHG 1  16  -1
M  CHG 1  23  -1
M  END
> <UniqueID>
49

> <SMILES>
[NH-]C(=O)Cc1ccc(Cc2[n-]c(=O)n(CC(=O)[N-]c3ccccc3C(F)(F)F)c2[O-])cc1

> <Energy>
76.6302680132513

> <Genealogy>
[NH-]C(=O)Cc1ccc(Cc2[n-]c(=O)n(CC(=O)[N-]c3ccccc3C(F)(F)F)c2[O-])cc1 (protonated)
[NH-]C(=O)Cc1ccc(Cc2[n-]c(=O)n(CC(=O)[N-]c3ccccc3C(F)(F)F)c2[O-])cc1 (3D coordinates assigned)
[NH-]C(=O)Cc1ccc(Cc2[n-]c(=O)n(CC(=O)[N-]c3ccccc3C(F)(F)F)c2[O-])cc1 (optimized conformer: 76.6302680132513 kcal/mol)

> <smiles>
NC(=O)Cc1ccc(Cc2[nH]c(=O)n(CC(=O)Nc3ccccc3C(F)(F)F)c2O)cc1

> <score_type>
oracle

> <origin>
adg

> <m_score__min__energy>
-14.58

> <m_primary>
energy

> <minimizedAffinity>
-7.64141

> <minimizedRMSD>
1.05983

> <CNNscore>
0.8103283048

> <CNNaffinity>
6.8291535378

> <CNN_VS>
5.5338563919

> <CNNaffinity_variance>
0.0208023619

$$$$
55:0


 29 31  0  0  0  0  0  0  0  0999 V2000
   57.9426   32.8959   45.5821 C   0  0  0  0  0  0  0  0  0  0  0  0
   58.5439   31.7523   45.9155 C   0  0  0  0  0  0  0  0  0  0  0  0
   58.4945   30.6436   45.1513 N   0  0  0  0  0  0  0  0  0  0  0  0
   59.1698   29.6765   45.8099 C   0  0  0  0  0  0  0  0  0  0  0  0
   59.2992   28.4083   45.3803 C   0  0  0  0  0  0  0  0  0  0  0  0
   59.6659   30.1764   47.0114 C   0  0  0  0  0  0  0  0  0  0  0  0
   60.4896   29.4340   48.0245 C   0  0  0  0  0  0  0  0  0  0  0  0
   59.2548   31.5030   47.0826 C   0  0  0  0  0  0  0  0  0  0  0  0
   58.0500   30.5550   44.2774 H   0  0  0  0  0  0  0  0  0  0  0  0
   58.3717   27.3192   45.7570 C   0  0  0  0  0  0  0  0  0  0  0  0
   56.9819   27.4427   45.5892 C   0  0  0  0  0  0  0  0  0  0  0  0
   56.4277   28.6056   45.0648 O   0  0  0  0  0  0  0  0  0  0  0  0
   56.1634   26.4106   45.9238 N   0  0  0  0  0  0  0  0  0  0  0  0
   56.6673   25.2444   46.4038 C   0  0  0  0  0  0  0  0  0  0  0  0
   55.8905   24.3039   46.7098 O   0  0  0  0  0  0  0  0  0  0  0  0
   58.0087   25.0913   46.5465 N   0  0  0  0  0  0  0  0  0  0  0  0
   58.8679   26.0925   46.2289 C   0  0  0  0  0  0  0  0  0  0  0  0
   60.1068   25.9119   46.3711 O   0  0  0  0  0  0  0  0  0  0  0  0
   59.5130   32.4593   48.1819 C   0  0  0  0  0  0  0  0  0  0  0  0
   59.0478   32.2057   49.3284 O   0  0  0  0  0  0  0  0  0  0  0  0
   60.3419   33.6321   47.9754 N   0  0  0  0  0  0  0  0  0  0  0  0
   60.7504   34.2441   49.2794 C   0  0  0  0  0  0  0  0  0  0  0  0
   62.2499   34.1045   49.6304 C   0  0  0  0  0  0  0  0  0  0  0  0
   62.7927   32.8372   49.1403 N   0  0  0  0  0  0  0  0  0  0  0  0
   63.6040   31.9606   49.9846 C   0  0  0  0  0  0  0  0  0  0  0  0
   62.5024   32.4935   47.7836 C   0  0  0  0  0  0  0  0  0  0  0  0
   63.0984   31.5428   47.2084 O   0  0  0  0  0  0  0  0  0  0  0  0
   61.4644   33.2970   47.0667 C   0  0  0  0  0  0  0  0  0  0  0  0
   59.9849   33.1015   48.7238 H   0  0  0  0  0  0  0  0  0  0  0  0
  1  2  2  0
  2  3  1  0
  3  4  1  0
  4  5  2  0
  5 10  1  0
 10 11  2  0
 11 12  1  0
 11 13  1  0
 13 14  1  0
 14 15  2  0
 14 16  1  0
 16 17  1  0
 17 18  2  0
  4  6  1  0
  6  7  1  0
  6  8  2  0
  8 19  1  0
 19 20  2  0
 21 19  1  0
 21 22  1  0
 22 23  1  0
 23 24  1  0
 24 25  1  0
 24 26  1  0
 26 27  2  0
 26 28  1  0
  8  2  1  0
 28 21  1  0
 17 10  1  0
  3  9  1  0
 21 29  1  0
M  CHG 1  12  -1
M  CHG 1  13  -1
M  CHG 1  16  -1
M  CHG 1  21   1
M  END
> <UniqueID>
52

> <SMILES>
C=c1[nH]c(=Cc2c([O-])[n-]c(=O)[n-]c2=O)c(C)c1C(=O)[N@H+]1CCN(C)C(=O)C1

> <Energy>
95.31393614925035

> <Genealogy>
C=c1[nH]c(=Cc2c([O-])[n-]c(=O)[n-]c2=O)c(C)c1C(=O)[NH+]1CCN(C)C(=O)C1 (protonated)
C=c1[nH]c(=Cc2c([O-])[n-]c(=O)[n-]c2=O)c(C)c1C(=O)[N@H+]1CCN(C)C(=O)C1 (chirality)
C=c1[nH]c(=Cc2c([O-])[n-]c(=O)[n-]c2=O)c(C)c1C(=O)[N@H+]1CCN(C)C(=O)C1 (3D coordinates assigned)
C=c1[nH]c(=Cc2c([O-])[n-]c(=O)[n-]c2=O)c(C)c1C(=O)[N@H+]1CCN(C)C(=O)C1 (nonaromatic ring conformer: 95.31393614925035 kcal/mol)

> <smiles>
C=c1[nH]c(=Cc2c(O)[nH]c(=O)[nH]c2=O)c(C)c1C(=O)N1CCN(C)C(=O)C1

> <score_type>
oracle

> <origin>
adg

> <m_score__min__energy>
-14.19

> <m_primary>
energy

> <minimizedAffinity>
-7.73316

> <minimizedRMSD>
0.74334

> <CNNscore>
0.1451276392

> <CNNaffinity>
6.2166962624

> <CNN_VS>
0.9022144675

> <CNNaffinity_variance>
0.0457337536

$$$$
57:0


 33 36  0  0  0  0  0  0  0  0999 V2000
   59.2826   29.7397   52.3384 C   0  0  0  0  0  0  0  0  0  0  0  0
   58.9058   30.1384   51.1089 N   0  0  0  0  0  0  0  0  0  0  0  0
   59.8378   29.7291   50.2638 N   0  0  0  0  0  0  0  0  0  0  0  0
   60.7975   29.0531   50.9253 C   0  0  0  0  0  0  0  0  0  0  0  0
   60.4767   29.0450   52.2667 C   0  0  0  0  0  0  0  0  0  0  0  0
   58.4952   30.0086   53.5824 C   0  0  0  0  0  0  0  0  0  0  0  0
   56.5581   31.7799   52.1474 C   0  0  0  0  0  0  0  0  0  0  0  0
   56.1900   30.6198   52.7179 C   0  0  0  0  0  0  0  0  0  0  0  0
   54.9294   30.0063   52.6377 C   0  0  0  0  0  0  0  0  0  0  0  0
   53.7451   30.4704   52.1928 C   0  0  0  0  0  0  0  0  0  0  0  0
   55.0885   28.7318   53.1490 C   0  0  0  0  0  0  0  0  0  0  0  0
   56.3947   28.6282   53.5776 C   0  0  0  0  0  0  0  0  0  0  0  0
   56.9821   27.4111   54.2246 C   0  0  0  0  0  0  0  0  0  0  0  0
   57.0637   29.7809   53.3377 N   0  0  0  0  0  0  0  0  0  0  0  0
   52.5215   30.6076   52.9999 C   0  0  0  0  0  0  0  0  0  0  0  0
   52.2279   29.8643   54.0823 N   0  0  0  0  0  0  0  0  0  0  0  0
   50.9695   30.2452   54.3920 C   0  0  0  0  0  0  0  0  0  0  0  0
   50.3402   29.7748   55.3733 O   0  0  0  0  0  0  0  0  0  0  0  0
   50.4349   31.1639   53.5578 N   0  0  0  0  0  0  0  0  0  0  0  0
   51.4259   31.3708   52.6760 C   0  0  0  0  0  0  0  0  0  0  0  0
   51.3290   32.2354   51.5931 O   0  0  0  0  0  0  0  0  0  0  0  0
   59.7634   29.9152   48.8200 C   0  0  0  0  0  0  0  0  0  0  0  0
   60.9902   30.5544   48.3457 N   0  0  0  0  0  0  0  0  0  0  0  0
   61.2366   30.1774   47.4305 H   0  0  0  0  0  0  0  0  0  0  0  0
   60.7476   32.2705   48.2165 S   0  0  0  0  0  0  0  0  0  0  0  0
   62.0775   32.9609   48.0889 O   0  0  0  0  0  0  0  0  0  0  0  0
   60.0718   32.7692   49.4622 O   0  0  0  0  0  0  0  0  0  0  0  0
   59.7350   32.6446   46.8238 C   0  0  0  0  0  0  0  0  0  0  0  0
   58.9002   31.6554   46.2840 C   0  0  0  0  0  0  0  0  0  0  0  0
   58.1074   31.9380   45.1660 C   0  0  0  0  0  0  0  0  0  0  0  0
   58.1477   33.2071   44.5823 C   0  0  0  0  0  0  0  0  0  0  0  0
   58.9828   34.1940   45.1136 C   0  0  0  0  0  0  0  0  0  0  0  0
   59.7771   33.9151   46.2311 C   0  0  0  0  0  0  0  0  0  0  0  0
  7  8  2  0
  8  9  1  0
  9 10  2  0
 10 15  1  0
 15 16  1  0
 16 17  1  0
 17 18  2  0
 17 19  1  0
 19 20  1  0
 20 21  1  0
  9 11  1  0
 11 12  2  0
 12 13  1  0
 12 14  1  0
 14  6  1  0
  6  1  1  0
  1  2  2  0
  2  3  1  0
  3 22  1  0
 22 23  1  0
 23 25  1  0
 25 26  2  0
 25 27  2  0
 25 28  1  0
 28 29  2  0
 29 30  1  0
 30 31  2  0
 31 32  1  0
 32 33  2  0
  3  4  1  0
  4  5  2  0
 14  8  1  0
  5  1  1  0
 20 15  2  0
 33 28  1  0
 23 24  1  0
M  CHG 1  16  -1
M  CHG 1  19  -1
M  CHG 1  21  -1
M  END
> <UniqueID>
54

> <SMILES>
C=c1/c(=C\c2[n-]c(=O)[n-]c2[O-])cc(C)n1Cc1ccn(CNS(=O)(=O)c2ccccc2)n1

> <Energy>
147.76052797322583

> <Genealogy>
C=c1c(=Cc2[n-]c(=O)[n-]c2[O-])cc(C)n1Cc1ccn(CNS(=O)(=O)c2ccccc2)n1 (protonated)
C=c1/c(=C\c2[n-]c(=O)[n-]c2[O-])cc(C)n1Cc1ccn(CNS(=O)(=O)c2ccccc2)n1 (cis-trans isomerization)
C=c1/c(=C\c2[n-]c(=O)[n-]c2[O-])cc(C)n1Cc1ccn(CNS(=O)(=O)c2ccccc2)n1 (3D coordinates assigned)
C=c1/c(=C\c2[n-]c(=O)[n-]c2[O-])cc(C)n1Cc1ccn(CNS(=O)(=O)c2ccccc2)n1 (optimized conformer: 147.76052797322583 kcal/mol)

> <smiles>
C=c1c(=Cc2[nH]c(=O)[nH]c2O)cc(C)n1Cc1ccn(CNS(=O)(=O)c2ccccc2)n1

> <score_type>
oracle

> <origin>
adg

> <m_score__min__energy>
-16.91

> <m_primary>
energy

> <minimizedAffinity>
-7.55660

> <minimizedRMSD>
1.67011

> <CNNscore>
0.2126177251

> <CNNaffinity>
6.1724343300

> <CNN_VS>
1.3123689890

> <CNNaffinity_variance>
0.0321943425

$$$$
68:0


 28 30  0  0  0  0  0  0  0  0999 V2000
   59.6024   31.3817   51.1695 C   0  0  0  0  0  0  0  0  0  0  0  0
   59.7726   30.2208   51.9331 C   0  0  0  0  0  0  0  0  0  0  0  0
   58.6785   29.6318   52.5728 C   0  0  0  0  0  0  0  0  0  0  0  0
   57.3981   30.1985   52.4610 C   0  0  0  0  0  0  0  0  0  0  0  0
   57.2429   31.3904   51.7326 C   0  0  0  0  0  0  0  0  0  0  0  0
   58.3355   31.9708   51.0832 C   0  0  0  0  0  0  0  0  0  0  0  0
   60.9683   32.0802   50.2932 S   0  0  0  0  0  0  0  0  0  0  0  0
   60.7082   33.5406   50.0518 O   0  0  0  0  0  0  0  0  0  0  0  0
   62.2092   31.9589   51.1339 O   0  0  0  0  0  0  0  0  0  0  0  0
   57.6832   31.8721   44.8550 C   0  0  0  0  0  0  0  0  0  0  0  0
   58.4970   30.7352   45.3948 C   0  0  0  0  0  0  0  0  0  0  0  0
   58.3516   29.5929   44.8819 O   0  0  0  0  0  0  0  0  0  0  0  0
   59.4549   30.9324   46.4574 N   0  0  0  0  0  0  0  0  0  0  0  0
   60.0403   29.7755   47.1442 C   0  0  0  0  0  0  0  0  0  0  0  0
   60.2948   30.1316   48.6083 C   0  0  0  0  0  0  0  0  0  0  0  0
   61.2111   31.2833   48.7544 N   0  0  0  0  0  0  0  0  0  0  0  0
   61.1954   32.2489   47.6302 C   0  0  0  0  0  0  0  0  0  0  0  0
   59.8588   32.2852   46.8694 C   0  0  0  0  0  0  0  0  0  0  0  0
   56.2406   29.5555   53.1288 C   0  0  0  0  0  0  0  0  0  0  0  0
   56.3094   29.2858   54.3574 O   0  0  0  0  0  0  0  0  0  0  0  0
   55.0162   29.2746   52.4372 N   0  0  0  0  0  0  0  0  0  0  0  0
   53.7668   29.9666   52.5885 C   0  0  0  0  0  0  0  0  0  0  0  0
   53.1493   29.9779   53.8458 C   0  0  0  0  0  0  0  0  0  0  0  0
   51.9317   30.6390   54.0288 C   0  0  0  0  0  0  0  0  0  0  0  0
   51.3143   31.2808   52.9522 C   0  0  0  0  0  0  0  0  0  0  0  0
   51.9101   31.2555   51.6875 C   0  0  0  0  0  0  0  0  0  0  0  0
   51.2893   31.8852   50.6172 O   0  0  0  0  0  0  0  0  0  0  0  0
   53.1283   30.5920   51.5012 C   0  0  0  0  0  0  0  0  0  0  0  0
 10 11  1  0
 11 12  2  0
 11 13  1  0
 13 14  1  0
 14 15  1  0
 15 16  1  0
 16  7  1  0
  7  8  2  0
  7  9  2  0
  7  1  1  0
  1  2  2  0
  2  3  1  0
  3  4  2  0
  4 19  1  0
 19 20  2  0
 19 21  1  0
 21 22  1  0
 22 23  2  0
 23 24  1  0
 24 25  2  0
 25 26  1  0
 26 27  1  0
 26 28  2  0
  4  5  1  0
  5  6  2  0
 16 17  1  0
 17 18  1  0
 18 13  1  0
  6  1  1  0
 28 22  1  0
M  CHG 1  21  -1
M  CHG 1  27  -1
M  END
> <UniqueID>
65

> <SMILES>
CC(=O)N1CCN(S(=O)(=O)c2ccc(C(=O)[N-]c3cccc([O-])c3)cc2)CC1

> <Energy>
57.684804876422

> <Genealogy>
CC(=O)N1CCN(S(=O)(=O)c2ccc(C(=O)[N-]c3cccc([O-])c3)cc2)CC1 (protonated)
CC(=O)N1CCN(S(=O)(=O)c2ccc(C(=O)[N-]c3cccc([O-])c3)cc2)CC1 (3D coordinates assigned)
CC(=O)N1CCN(S(=O)(=O)c2ccc(C(=O)[N-]c3cccc([O-])c3)cc2)CC1 (nonaromatic ring conformer: 57.684804876422 kcal/mol)

> <smiles>
CC(=O)N1CCN(S(=O)(=O)c2ccc(C(=O)Nc3cccc(O)c3)cc2)CC1

> <score_type>
oracle

> <origin>
adg

> <m_score__min__energy>
-14.08

> <m_primary>
energy

> <minimizedAffinity>
-7.46907

> <minimizedRMSD>
1.60449

> <CNNscore>
0.1629278511

> <CNNaffinity>
5.5174384117

> <CNN_VS>
0.8989443779

> <CNNaffinity_variance>
0.0160648059

$$$$
71:0


 35 38  0  0  0  0  0  0  0  0999 V2000
   59.8926   29.5126   49.9234 C   0  0  0  0  0  0  0  0  0  0  0  0
   58.6405   29.4596   50.5621 C   0  0  0  0  0  0  0  0  0  0  0  0
   58.1273   30.5850   51.2064 C   0  0  0  0  0  0  0  0  0  0  0  0
   58.8606   31.7726   51.2294 C   0  0  0  0  0  0  0  0  0  0  0  0
   60.1088   31.8395   50.6071 C   0  0  0  0  0  0  0  0  0  0  0  0
   60.6334   30.7138   49.9421 C   0  0  0  0  0  0  0  0  0  0  0  0
   60.4355   28.2814   49.2382 C   0  0  0  0  0  0  0  0  0  0  0  0
   58.4020   27.6914   43.9979 C   0  0  0  0  0  0  0  0  0  0  0  0
   58.6702   27.7774   45.3127 C   0  0  0  0  0  0  0  0  0  0  0  0
   58.9167   29.0630   45.8403 C   0  0  0  0  0  0  0  0  0  0  0  0
   59.4656   29.2237   47.1113 C   0  0  0  0  0  0  0  0  0  0  0  0
   59.8114   28.1043   47.8768 C   0  0  0  0  0  0  0  0  0  0  0  0
   59.5202   26.8196   47.3907 C   0  0  0  0  0  0  0  0  0  0  0  0
   58.8616   26.6316   46.1569 C   0  0  0  0  0  0  0  0  0  0  0  0
   58.4346   25.3716   45.8810 C   0  0  0  0  0  0  0  0  0  0  0  0
   57.4067   24.6166   46.6248 C   0  0  0  0  0  0  0  0  0  0  0  0
   57.6155   23.4464   47.2592 N   0  0  0  0  0  0  0  0  0  0  0  0
   56.3793   23.0978   47.6838 C   0  0  0  0  0  0  0  0  0  0  0  0
   56.1593   22.0476   48.3416 O   0  0  0  0  0  0  0  0  0  0  0  0
   55.3960   23.9553   47.3345 N   0  0  0  0  0  0  0  0  0  0  0  0
   56.0616   24.9017   46.6525 C   0  0  0  0  0  0  0  0  0  0  0  0
   55.4506   25.9961   46.0566 O   0  0  0  0  0  0  0  0  0  0  0  0
   61.9035   30.7356   49.3442 O   0  0  0  0  0  0  0  0  0  0  0  0
   62.9865   31.5266   49.7407 C   0  0  0  0  0  0  0  0  0  0  0  0
   63.6570   31.2459   50.7718 O   0  0  0  0  0  0  0  0  0  0  0  0
   63.3355   32.7316   48.9276 C   0  0  0  0  0  0  0  0  0  0  0  0
   63.0191   32.4839   47.4493 C   0  0  0  0  0  0  0  0  0  0  0  0
   61.9477   33.4651   46.9295 C   0  0  0  0  0  0  0  0  0  0  0  0
   60.6118   33.2366   47.5413 N   0  0  0  0  0  0  0  0  0  0  0  0
   59.8404   34.4833   47.7544 C   0  0  0  0  0  0  0  0  0  0  0  0
   59.3960   35.1178   46.4148 C   0  0  0  0  0  0  0  0  0  0  0  0
   59.3930   34.1990   45.3329 O   0  0  0  0  0  0  0  0  0  0  0  0
   58.8630   32.9589   45.7430 C   0  0  0  0  0  0  0  0  0  0  0  0
   59.8131   32.2671   46.7437 C   0  0  0  0  0  0  0  0  0  0  0  0
   60.7945   32.8421   48.4640 H   0  0  0  0  0  0  0  0  0  0  0  0
  8  9  2  0
  9 10  1  0
 10 11  2  0
 11 12  1  0
 12  7  1  0
  7  1  1  0
  1  2  2  0
  2  3  1  0
  3  4  2  0
  4  5  1  0
  5  6  2  0
  6 23  1  0
 23 24  1  0
 24 25  2  0
 24 26  1  0
 26 27  1  0
 27 28  1  0
 28 29  1  0
 29 30  1  0
 30 31  1  0
 31 32  1  0
 32 33  1  0
 33 34  1  0
 12 13  2  0
 13 14  1  0
 14 15  2  0
 15 16  1  0
 16 17  1  0
 17 18  1  0
 18 19  2  0
 18 20  1  0
 20 21  1  0
 21 22  1  0
 14  9  1  0
 21 16  2  0
  6  1  1  0
 34 29  1  0
 29 35  1  0
M  CHG 1  17  -1
M  CHG 1  20  -1
M  CHG 1  22  -1
M  CHG 1  29   1
M  END
> <UniqueID>
68

> <SMILES>
C=c1ccc(Cc2ccccc2OC(=O)CCC[NH+]2CCOCC2)c/c1=C/c1[n-]c(=O)[n-]c1[O-]

> <Energy>
122.05660149685134

> <Genealogy>
C=c1ccc(Cc2ccccc2OC(=O)CCC[NH+]2CCOCC2)cc1=Cc1[n-]c(=O)[n-]c1[O-] (protonated)
C=c1ccc(Cc2ccccc2OC(=O)CCC[NH+]2CCOCC2)c/c1=C/c1[n-]c(=O)[n-]c1[O-] (cis-trans isomerization)
C=c1ccc(Cc2ccccc2OC(=O)CCC[NH+]2CCOCC2)c/c1=C/c1[n-]c(=O)[n-]c1[O-] (3D coordinates assigned)
C=c1ccc(Cc2ccccc2OC(=O)CCC[NH+]2CCOCC2)c/c1=C/c1[n-]c(=O)[n-]c1[O-] (nonaromatic ring conformer: 122.05660149685134 kcal/mol)

> <smiles>
C=c1ccc(Cc2ccccc2OC(=O)CCCN2CCOCC2)cc1=Cc1[nH]c(=O)[nH]c1O

> <score_type>
oracle

> <origin>
adg

> <m_score__min__energy>
-16.510000000000002

> <m_primary>
energy

> <minimizedAffinity>
-7.69418

> <minimizedRMSD>
1.49732

> <CNNscore>
0.1181579754

> <CNNaffinity>
6.3289332390

> <CNN_VS>
0.7478139400

> <CNNaffinity_variance>
0.0944631770

$$$$
72:0


 26 28  0  0  0  0  0  0  0  0999 V2000
   56.8418   29.0337   43.4649 C   0  0  0  0  0  0  0  0  0  0  0  0
   57.6385   28.9439   44.5412 C   0  0  0  0  0  0  0  0  0  0  0  0
   58.0868   27.7660   45.1598 C   0  0  0  0  0  0  0  0  0  0  0  0
   58.0488   26.4822   44.7541 C   0  0  0  0  0  0  0  0  0  0  0  0
   58.6464   28.1527   46.3659 C   0  0  0  0  0  0  0  0  0  0  0  0
   58.5744   29.5295   46.4212 C   0  0  0  0  0  0  0  0  0  0  0  0
   57.9965   30.0162   45.2948 N   0  0  0  0  0  0  0  0  0  0  0  0
   57.7855   31.4296   44.9627 C   0  0  0  0  0  0  0  0  0  0  0  0
   57.4350   25.3665   45.4939 C   0  0  0  0  0  0  0  0  0  0  0  0
   58.0633   24.2184   45.8117 N   0  0  0  0  0  0  0  0  0  0  0  0
   57.1666   23.5799   46.5939 C   0  0  0  0  0  0  0  0  0  0  0  0
   57.3860   22.4417   47.0858 O   0  0  0  0  0  0  0  0  0  0  0  0
   56.0224   24.2599   46.8165 N   0  0  0  0  0  0  0  0  0  0  0  0
   56.2165   25.3935   46.1254 C   0  0  0  0  0  0  0  0  0  0  0  0
   55.2996   26.4363   46.0765 O   0  0  0  0  0  0  0  0  0  0  0  0
   59.0567   30.3270   47.5644 C   0  0  0  0  0  0  0  0  0  0  0  0
   59.4446   29.7306   48.6059 O   0  0  0  0  0  0  0  0  0  0  0  0
   59.0322   31.7616   47.5258 N   0  0  0  0  0  0  0  0  0  0  0  0
   58.6374   32.2080   46.7422 H   0  0  0  0  0  0  0  0  0  0  0  0
   59.5710   32.5838   48.6060 C   0  0  0  0  0  0  0  0  0  0  0  0
   61.0452   32.8008   48.4115 C   0  0  0  0  0  0  0  0  0  0  0  0
   61.9533   32.5405   49.4534 C   0  0  0  0  0  0  0  0  0  0  0  0
   63.3203   32.7651   49.2683 C   0  0  0  0  0  0  0  0  0  0  0  0
   63.7924   33.2524   48.0463 C   0  0  0  0  0  0  0  0  0  0  0  0
   62.8956   33.5180   47.0069 C   0  0  0  0  0  0  0  0  0  0  0  0
   61.5268   33.2955   47.1884 C   0  0  0  0  0  0  0  0  0  0  0  0
  1  2  2  0
  2  3  1  0
  3  4  2  0
  4  9  1  0
  9 10  1  0
 10 11  1  0
 11 12  2  0
 11 13  1  0
 13 14  1  0
 14 15  1  0
  3  5  1  0
  5  6  2  0
  6 16  1  0
 16 17  2  0
 16 18  1  0
 18 20  1  0
 20 21  1  0
 21 22  2  0
 22 23  1  0
 23 24  2  0
 24 25  1  0
 25 26  2  0
  6  7  1  0
  7  8  1  0
  7  2  1  0
 14  9  2  0
 26 21  1  0
 18 19  1  0
M  CHG 1  10  -1
M  CHG 1  13  -1
M  CHG 1  15  -1
M  END
> <UniqueID>
69

> <SMILES>
C=c1c(=Cc2[n-]c(=O)[n-]c2[O-])cc(C(=O)NCc2ccccc2)n1C

> <Energy>
113.00374465052334

> <Genealogy>
C=c1c(=Cc2[n-]c(=O)[n-]c2[O-])cc(C(=O)NCc2ccccc2)n1C (protonated)
C=c1c(=Cc2[n-]c(=O)[n-]c2[O-])cc(C(=O)NCc2ccccc2)n1C (3D coordinates assigned)
C=c1c(=Cc2[n-]c(=O)[n-]c2[O-])cc(C(=O)NCc2ccccc2)n1C (optimized conformer: 113.00374465052334 kcal/mol)

> <smiles>
C=c1c(=Cc2[nH]c(=O)[nH]c2O)cc(C(=O)NCc2ccccc2)n1C

> <score_type>
oracle

> <origin>
adg

> <m_score__min__energy>
-17.739999999999998

> <m_primary>
energy

> <minimizedAffinity>
-7.66127

> <minimizedRMSD>
0.86212

> <CNNscore>
0.1795426309

> <CNNaffinity>
6.1970276833

> <CNN_VS>
1.1126306057

> <CNNaffinity_variance>
0.0907246247

$$$$
76:0


 29 31  0  0  0  0  0  0  0  0999 V2000
   58.2661   30.9412   44.6342 C   0  0  0  0  0  0  0  0  0  0  0  0
   58.6287   30.5167   45.8553 C   0  0  0  0  0  0  0  0  0  0  0  0
   59.0816   29.2337   46.2083 C   0  0  0  0  0  0  0  0  0  0  0  0
   59.1324   28.0844   45.5053 C   0  0  0  0  0  0  0  0  0  0  0  0
   59.4896   29.3171   47.5287 C   0  0  0  0  0  0  0  0  0  0  0  0
   59.2364   30.6063   47.9468 C   0  0  0  0  0  0  0  0  0  0  0  0
   59.4782   31.1047   49.3406 C   0  0  0  0  0  0  0  0  0  0  0  0
   58.7041   31.3352   46.9389 N   0  0  0  0  0  0  0  0  0  0  0  0
   58.4282   26.8325   45.8492 C   0  0  0  0  0  0  0  0  0  0  0  0
   57.0337   26.7525   45.7372 C   0  0  0  0  0  0  0  0  0  0  0  0
   56.2886   27.8602   45.3508 O   0  0  0  0  0  0  0  0  0  0  0  0
   56.3967   25.5845   46.0156 N   0  0  0  0  0  0  0  0  0  0  0  0
   57.0913   24.4788   46.3878 C   0  0  0  0  0  0  0  0  0  0  0  0
   56.4807   23.4103   46.6452 O   0  0  0  0  0  0  0  0  0  0  0  0
   58.4453   24.5242   46.4759 N   0  0  0  0  0  0  0  0  0  0  0  0
   59.1280   25.6665   46.2075 C   0  0  0  0  0  0  0  0  0  0  0  0
   60.3862   25.6675   46.2789 O   0  0  0  0  0  0  0  0  0  0  0  0
   58.3342   32.7578   47.0060 C   0  0  0  0  0  0  0  0  0  0  0  0
   59.5496   33.6277   47.1596 C   0  0  0  0  0  0  0  0  0  0  0  0
   59.4242   34.7705   47.6774 O   0  0  0  0  0  0  0  0  0  0  0  0
   60.8482   33.1450   46.7832 N   0  0  0  0  0  0  0  0  0  0  0  0
   60.9172   32.2725   46.3324 H   0  0  0  0  0  0  0  0  0  0  0  0
   62.0713   33.9005   47.0443 C   0  0  0  0  0  0  0  0  0  0  0  0
   62.6700   33.4715   48.3543 C   0  0  0  0  0  0  0  0  0  0  0  0
   62.4632   34.2297   49.5197 C   0  0  0  0  0  0  0  0  0  0  0  0
   62.9963   33.8045   50.7400 C   0  0  0  0  0  0  0  0  0  0  0  0
   63.7323   32.6184   50.8081 C   0  0  0  0  0  0  0  0  0  0  0  0
   63.9348   31.8542   49.6553 C   0  0  0  0  0  0  0  0  0  0  0  0
   63.4034   32.2762   48.4330 C   0  0  0  0  0  0  0  0  0  0  0  0
  1  2  2  0
  2  3  1  0
  3  4  2  0
  4  9  1  0
  9 10  2  0
 10 11  1  0
 10 12  1  0
 12 13  1  0
 13 14  2  0
 13 15  1  0
 15 16  1  0
 16 17  2  0
  3  5  1  0
  5  6  2  0
  6  7  1  0
  6  8  1  0
  8 18  1  0
 18 19  1  0
 19 20  2  0
 19 21  1  0
 21 23  1  0
 23 24  1  0
 24 25  2  0
 25 26  1  0
 26 27  2  0
 27 28  1  0
 28 29  2  0
  8  2  1  0
 29 24  1  0
 16  9  1  0
 21 22  1  0
M  CHG 1  11  -1
M  CHG 1  12  -1
M  CHG 1  15  -1
M  END
> <UniqueID>
73

> <SMILES>
C=c1/c(=C\c2c([O-])[n-]c(=O)[n-]c2=O)cc(C)n1CC(=O)NCc1ccccc1

> <Energy>
86.1563250521952

> <Genealogy>
C=c1c(=Cc2c([O-])[n-]c(=O)[n-]c2=O)cc(C)n1CC(=O)NCc1ccccc1 (protonated)
C=c1/c(=C\c2c([O-])[n-]c(=O)[n-]c2=O)cc(C)n1CC(=O)NCc1ccccc1 (cis-trans isomerization)
C=c1/c(=C\c2c([O-])[n-]c(=O)[n-]c2=O)cc(C)n1CC(=O)NCc1ccccc1 (3D coordinates assigned)
C=c1/c(=C\c2c([O-])[n-]c(=O)[n-]c2=O)cc(C)n1CC(=O)NCc1ccccc1 (optimized conformer: 86.1563250521952 kcal/mol)

> <smiles>
C=c1c(=Cc2c(O)[nH]c(=O)[nH]c2=O)cc(C)n1CC(=O)NCc1ccccc1

> <score_type>
oracle

> <origin>
adg

> <m_score__min__energy>
-16.390000000000001

> <m_primary>
energy

> <minimizedAffinity>
-7.07966

> <minimizedRMSD>
0.99098

> <CNNscore>
0.1015660986

> <CNNaffinity>
6.1970977783

> <CNN_VS>
0.6294150352

> <CNNaffinity_variance>
0.1398450285

$$$$
8:0


 30 33  0  0  0  0  0  0  0  0999 V2000
   59.0652   30.3633   45.6924 C   0  0  0  0  0  0  0  0  0  0  0  0
   58.2063   30.5645   44.6059 C   0  0  0  0  0  0  0  0  0  0  0  0
   57.6767   31.8304   44.3477 C   0  0  0  0  0  0  0  0  0  0  0  0
   58.0047   32.9095   45.1721 C   0  0  0  0  0  0  0  0  0  0  0  0
   58.8696   32.7300   46.2632 C   0  0  0  0  0  0  0  0  0  0  0  0
   59.4212   31.4578   46.5010 C   0  0  0  0  0  0  0  0  0  0  0  0
   59.5962   29.0485   45.9133 N   0  0  0  0  0  0  0  0  0  0  0  0
   58.4257   28.3760   47.8310 O   0  0  0  0  0  0  0  0  0  0  0  0
   59.0677   28.0497   46.7953 C   0  0  0  0  0  0  0  0  0  0  0  0
   59.1875   26.6056   46.4289 C   0  0  0  0  0  0  0  0  0  0  0  0
   57.8300   25.9723   46.3869 C   0  0  0  0  0  0  0  0  0  0  0  0
   57.4742   24.4374   46.9839 S   0  0  0  0  0  0  0  0  0  0  0  0
   55.8384   24.5857   46.6318 C   0  0  0  0  0  0  0  0  0  0  0  0
   54.9809   23.6927   46.8581 O   0  0  0  0  0  0  0  0  0  0  0  0
   55.5317   25.7767   46.0803 N   0  0  0  0  0  0  0  0  0  0  0  0
   56.6364   26.5572   45.9481 C   0  0  0  0  0  0  0  0  0  0  0  0
   56.5491   27.8420   45.4135 O   0  0  0  0  0  0  0  0  0  0  0  0
   55.7197   28.1790   45.1367 H   0  0  0  0  0  0  0  0  0  0  0  0
   59.2387   33.8980   47.1461 C   0  0  0  0  0  0  0  0  0  0  0  0
   60.6223   33.7349   47.7216 C   0  0  0  0  0  0  0  0  0  0  0  0
   61.6667   33.6268   46.8566 N   0  0  0  0  0  0  0  0  0  0  0  0
   62.9199   33.4493   47.2758 N   0  0  0  0  0  0  0  0  0  0  0  0
   63.2221   33.3584   48.5938 C   0  0  0  0  0  0  0  0  0  0  0  0
   64.4210   33.2034   48.9446 O   0  0  0  0  0  0  0  0  0  0  0  0
   62.1946   33.4392   49.5446 C   0  0  0  0  0  0  0  0  0  0  0  0
   60.8755   33.6388   49.1095 C   0  0  0  0  0  0  0  0  0  0  0  0
   59.8068   33.7797   50.1695 C   0  0  0  0  0  0  0  0  0  0  0  0
   59.9727   32.6853   51.2334 C   0  0  0  0  0  0  0  0  0  0  0  0
   61.4184   32.5457   51.7732 C   0  0  0  0  0  0  0  0  0  0  0  0
   62.4690   33.3933   51.0299 C   0  0  0  0  0  0  0  0  0  0  0  0
  8  9  2  0
  9 10  1  0
 10 11  1  0
 11 12  1  0
 12 13  1  0
 13 14  2  0
 13 15  1  0
 15 16  1  0
 16 17  1  0
  9  7  1  0
  7  1  1  0
  1  2  2  0
  2  3  1  0
  3  4  2  0
  4  5  1  0
  5 19  1  0
 19 20  1  0
 20 21  2  0
 21 22  1  0
 22 23  1  0
 23 24  2  0
 23 25  1  0
 25 26  2  0
 26 27  1  0
 27 28  1  0
 28 29  1  0
 29 30  1  0
  5  6  2  0
 16 11  2  0
  6  1  1  0
 26 20  1  0
 30 25  1  0
 17 18  1  0
M  CHG 1   7  -1
M  CHG 1  15  -1
M  CHG 1  22  -1
M  END
> <UniqueID>
9

> <SMILES>
O=C(Cc1sc(=O)[n-]c1O)[N-]c1cccc(Cc2n[n-]c(=O)c3c2CCCC3)c1

> <Energy>
88.2865751538968

> <Genealogy>
O=C(Cc1sc(=O)[n-]c1O)[N-]c1cccc(Cc2n[n-]c(=O)c3c2CCCC3)c1 (protonated)
O=C(Cc1sc(=O)[n-]c1O)[N-]c1cccc(Cc2n[n-]c(=O)c3c2CCCC3)c1 (3D coordinates assigned)
O=C(Cc1sc(=O)[n-]c1O)[N-]c1cccc(Cc2n[n-]c(=O)c3c2CCCC3)c1 (nonaromatic ring conformer: 88.2865751538968 kcal/mol)

> <smiles>
O=C(Cc1sc(=O)[nH]c1O)Nc1cccc(Cc2n[nH]c(=O)c3c2CCCC3)c1

> <score_type>
oracle

> <origin>
adg

> <m_score__min__energy>
-14.59

> <m_primary>
energy

> <minimizedAffinity>
-8.63070

> <minimizedRMSD>
0.73763

> <CNNscore>
0.8348177671

> <CNNaffinity>
7.4325661659

> <CNN_VS>
6.2048382759

> <CNNaffinity_variance>
0.1670835167

$$$$
12:0


 34 37  0  0  0  0  0  0  0  0999 V2000
   58.5912   30.4660   51.9280 C   0  0  0  0  0  0  0  0  0  0  0  0
   59.2853   29.5696   51.3759 O   0  0  0  0  0  0  0  0  0  0  0  0
   59.1326   31.7797   52.1200 N   0  0  0  0  0  0  0  0  0  0  0  0
   58.5810   32.4696   52.5548 H   0  0  0  0  0  0  0  0  0  0  0  0
   54.9854   28.0775   53.8779 C   0  0  0  0  0  0  0  0  0  0  0  0
   55.5860   29.0638   53.2080 C   0  0  0  0  0  0  0  0  0  0  0  0
   56.8694   29.0202   52.9242 O   0  0  0  0  0  0  0  0  0  0  0  0
   57.2237   30.1568   52.3724 C   0  0  0  0  0  0  0  0  0  0  0  0
   56.1334   30.9993   52.2807 C   0  0  0  0  0  0  0  0  0  0  0  0
   55.0563   30.2883   52.7795 C   0  0  0  0  0  0  0  0  0  0  0  0
   53.7979   30.7660   52.7909 C   0  0  0  0  0  0  0  0  0  0  0  0
   52.8280   30.6559   51.6920 C   0  0  0  0  0  0  0  0  0  0  0  0
   52.9440   29.8113   50.6490 N   0  0  0  0  0  0  0  0  0  0  0  0
   51.9217   30.1699   49.8424 C   0  0  0  0  0  0  0  0  0  0  0  0
   51.6828   29.5888   48.7526 O   0  0  0  0  0  0  0  0  0  0  0  0
   51.1835   31.2076   50.2901 N   0  0  0  0  0  0  0  0  0  0  0  0
   51.7818   31.5124   51.4534 C   0  0  0  0  0  0  0  0  0  0  0  0
   51.3821   32.5557   52.2773 O   0  0  0  0  0  0  0  0  0  0  0  0
   60.4881   32.1160   51.6831 C   0  0  0  0  0  0  0  0  0  0  0  0
   60.4527   33.1724   50.5597 C   0  0  0  0  0  0  0  0  0  0  0  0
   59.8750   32.6809   49.2889 N   0  0  0  0  0  0  0  0  0  0  0  0
   60.6465   31.5675   48.6850 C   0  0  0  0  0  0  0  0  0  0  0  0
   60.4649   31.4512   47.1587 C   0  0  0  0  0  0  0  0  0  0  0  0
   59.1321   31.9105   46.7485 N   0  0  0  0  0  0  0  0  0  0  0  0
   58.6005   33.1770   47.2672 C   0  0  0  0  0  0  0  0  0  0  0  0
   59.5217   33.7524   48.3421 C   0  0  0  0  0  0  0  0  0  0  0  0
   58.4054   31.2111   45.7221 C   0  0  0  0  0  0  0  0  0  0  0  0
   58.0195   31.8949   44.5585 C   0  0  0  0  0  0  0  0  0  0  0  0
   57.3053   31.2377   43.5546 C   0  0  0  0  0  0  0  0  0  0  0  0
   56.9729   29.8927   43.7022 C   0  0  0  0  0  0  0  0  0  0  0  0
   57.3535   29.1970   44.8519 C   0  0  0  0  0  0  0  0  0  0  0  0
   58.0780   29.8472   45.8717 C   0  0  0  0  0  0  0  0  0  0  0  0
   58.4974   29.1707   47.0269 O   0  0  0  0  0  0  0  0  0  0  0  0
   58.5353   27.7536   47.1664 C   0  0  0  0  0  0  0  0  0  0  0  0
  5  6  2  0
  6  7  1  0
  7  8  1  0
  8  1  1  0
  1  2  2  0
  1  3  1  0
  3 19  1  0
 19 20  1  0
 20 21  1  0
 21 22  1  0
 22 23  1  0
 23 24  1  0
 24 27  1  0
 27 28  2  0
 28 29  1  0
 29 30  2  0
 30 31  1  0
 31 32  2  0
 32 33  1  0
 33 34  1  0
 24 25  1  0
 25 26  1  0
  8  9  2  0
  9 10  1  0
 10 11  2  0
 11 12  1  0
 12 13  1  0
 13 14  1  0
 14 15  2  0
 14 16  1  0
 16 17  1  0
 17 18  1  0
 10  6  1  0
 17 12  2  0
 26 21  1  0
 32 27  1  0
  3  4  1  0
M  CHG 1  13  -1
M  CHG 1  16  -1
M  CHG 1  18  -1
M  END
> <UniqueID>
13

> <SMILES>
C=c1oc(C(=O)NCCN2CCN(c3ccccc3OC)CC2)cc1=Cc1[n-]c(=O)[n-]c1[O-]

> <Energy>
135.88392373281957

> <Genealogy>
C=c1oc(C(=O)NCCN2CCN(c3ccccc3OC)CC2)cc1=Cc1[n-]c(=O)[n-]c1[O-] (protonated)
C=c1oc(C(=O)NCCN2CCN(c3ccccc3OC)CC2)cc1=Cc1[n-]c(=O)[n-]c1[O-] (3D coordinates assigned)
C=c1oc(C(=O)NCCN2CCN(c3ccccc3OC)CC2)cc1=Cc1[n-]c(=O)[n-]c1[O-] (nonaromatic ring conformer: 135.88392373281957 kcal/mol)

> <smiles>
C=c1oc(C(=O)NCCN2CCN(c3ccccc3OC)CC2)cc1=Cc1[nH]c(=O)[nH]c1O

> <score_type>
oracle

> <origin>
adg

> <m_score__min__energy>
-19.280000000000001

> <m_primary>
energy

> <minimizedAffinity>
-7.41033

> <minimizedRMSD>
1.12165

> <CNNscore>
0.0707727596

> <CNNaffinity>
5.2921524048

> <CNN_VS>
0.3745402396

> <CNNaffinity_variance>
1.1264672279

$$$$
16:0


 30 32  0  0  0  0  0  0  0  0999 V2000
   61.1193   33.0861   48.3459 C   0  0  0  0  0  0  0  0  0  0  0  0
   61.7736   34.0912   49.0681 C   0  0  0  0  0  0  0  0  0  0  0  0
   63.0846   33.9111   49.5112 C   0  0  0  0  0  0  0  0  0  0  0  0
   63.7505   32.7155   49.2472 C   0  0  0  0  0  0  0  0  0  0  0  0
   63.0988   31.6863   48.5667 C   0  0  0  0  0  0  0  0  0  0  0  0
   61.7625   31.8349   48.1452 C   0  0  0  0  0  0  0  0  0  0  0  0
   59.7949   33.3569   47.8703 N   0  0  0  0  0  0  0  0  0  0  0  0
   59.4369   33.8676   46.5782 C   0  0  0  0  0  0  0  0  0  0  0  0
   59.6641   35.0783   46.3248 O   0  0  0  0  0  0  0  0  0  0  0  0
   58.8632   33.0451   45.5495 N   0  0  0  0  0  0  0  0  0  0  0  0
   57.4420   32.8406   45.2811 C   0  0  0  0  0  0  0  0  0  0  0  0
   57.9592   31.5703   43.1454 N   0  0  0  0  0  0  0  0  0  0  0  0
   57.2226   31.6760   44.3630 C   0  0  0  0  0  0  0  0  0  0  0  0
   56.4267   30.7549   44.6903 O   0  0  0  0  0  0  0  0  0  0  0  0
   57.8116   30.8036   42.5457 H   0  0  0  0  0  0  0  0  0  0  0  0
   58.6149   32.2642   42.9050 H   0  0  0  0  0  0  0  0  0  0  0  0
   61.0715   30.6684   47.4692 C   0  0  0  0  0  0  0  0  0  0  0  0
   59.9903   30.1175   48.3183 N   0  0  0  0  0  0  0  0  0  0  0  0
   58.6646   30.1202   47.6578 C   0  0  0  0  0  0  0  0  0  0  0  0
   58.5353   29.0413   46.5710 C   0  0  0  0  0  0  0  0  0  0  0  0
   58.9879   27.7445   47.0809 N   0  0  0  0  0  0  0  0  0  0  0  0
   60.2700   27.6908   47.7879 C   0  0  0  0  0  0  0  0  0  0  0  0
   60.3210   28.7840   48.8612 C   0  0  0  0  0  0  0  0  0  0  0  0
   58.3867   26.5333   46.5808 C   0  0  0  0  0  0  0  0  0  0  0  0
   59.1975   25.4697   46.1516 C   0  0  0  0  0  0  0  0  0  0  0  0
   58.6198   24.2924   45.6670 C   0  0  0  0  0  0  0  0  0  0  0  0
   57.2285   24.1685   45.6048 C   0  0  0  0  0  0  0  0  0  0  0  0
   56.4135   25.2228   46.0253 C   0  0  0  0  0  0  0  0  0  0  0  0
   55.0308   25.0983   45.9630 O   0  0  0  0  0  0  0  0  0  0  0  0
   56.9885   26.4024   46.5104 C   0  0  0  0  0  0  0  0  0  0  0  0
 12 13  1  0
 13 14  2  0
 13 11  1  0
 11 10  1  0
 10  8  1  0
  8  9  2  0
  8  7  1  0
  7  1  1  0
  1  2  2  0
  2  3  1  0
  3  4  2  0
  4  5  1  0
  5  6  2  0
  6 17  1  0
 17 18  1  0
 18 19  1  0
 19 20  1  0
 20 21  1  0
 21 24  1  0
 24 25  2  0
 25 26  1  0
 26 27  2  0
 27 28  1  0
 28 29  1  0
 28 30  2  0
 21 22  1  0
 22 23  1  0
  6  1  1  0
 23 18  1  0
 30 24  1  0
 12 15  1  0
 12 16  1  0
M  CHG 1   7  -1
M  CHG 1  10  -1
M  CHG 1  29  -1
M  END
> <UniqueID>
17

> <SMILES>
NC(=O)C[N-]C(=O)[N-]c1ccccc1CN1CCN(c2cccc([O-])c2)CC1

> <Energy>
64.76976194061272

> <Genealogy>
NC(=O)C[N-]C(=O)[N-]c1ccccc1CN1CCN(c2cccc([O-])c2)CC1 (protonated)
NC(=O)C[N-]C(=O)[N-]c1ccccc1CN1CCN(c2cccc([O-])c2)CC1 (3D coordinates assigned)
NC(=O)C[N-]C(=O)[N-]c1ccccc1CN1CCN(c2cccc([O-])c2)CC1 (nonaromatic ring conformer: 64.76976194061272 kcal/mol)

> <smiles>
NC(=O)CNC(=O)Nc1ccccc1CN1CCN(c2cccc(O)c2)CC1

> <score_type>
oracle

> <origin>
adg

> <m_score__min__energy>
-14.1

> <m_primary>
energy

> <minimizedAffinity>
-7.51330

> <minimizedRMSD>
0.92873

> <CNNscore>
0.1216060519

> <CNNaffinity>
5.6488742828

> <CNN_VS>
0.6869372725

> <CNNaffinity_variance>
0.2721367776

$$$$
19:0


 32 35  0  0  0  0  0  0  0  0999 V2000
   55.7337   31.1958   52.0001 C   0  0  0  0  0  0  0  0  0  0  0  0
   55.5375   30.0527   52.6755 C   0  0  0  0  0  0  0  0  0  0  0  0
   54.3229   29.3713   52.8352 C   0  0  0  0  0  0  0  0  0  0  0  0
   53.1229   29.7305   52.3277 C   0  0  0  0  0  0  0  0  0  0  0  0
   54.6131   28.2461   53.6009 C   0  0  0  0  0  0  0  0  0  0  0  0
   55.9654   28.2851   53.8713 C   0  0  0  0  0  0  0  0  0  0  0  0
   56.7062   27.2599   54.6722 C   0  0  0  0  0  0  0  0  0  0  0  0
   56.5218   29.3861   53.3232 N   0  0  0  0  0  0  0  0  0  0  0  0
   57.9146   29.7491   53.3842 C   0  0  0  0  0  0  0  0  0  0  0  0
   58.5371   29.5770   54.4651 O   0  0  0  0  0  0  0  0  0  0  0  0
   52.1338   30.6090   52.9909 C   0  0  0  0  0  0  0  0  0  0  0  0
   51.7995   30.5862   54.2933 N   0  0  0  0  0  0  0  0  0  0  0  0
   50.8883   31.5768   54.4050 C   0  0  0  0  0  0  0  0  0  0  0  0
   50.3233   31.8580   55.4931 O   0  0  0  0  0  0  0  0  0  0  0  0
   50.6250   32.2361   53.2566 N   0  0  0  0  0  0  0  0  0  0  0  0
   51.4237   31.6126   52.3745 C   0  0  0  0  0  0  0  0  0  0  0  0
   51.4902   31.9474   51.0275 O   0  0  0  0  0  0  0  0  0  0  0  0
   58.6166   30.2878   52.2349 N   0  0  0  0  0  0  0  0  0  0  0  0
   59.1036   31.6643   52.4606 C   0  0  0  0  0  0  0  0  0  0  0  0
   59.7343   32.2503   51.1784 C   0  0  0  0  0  0  0  0  0  0  0  0
   60.4598   31.2459   50.3627 N   0  0  0  0  0  0  0  0  0  0  0  0
   60.8951   30.0840   51.1577 C   0  0  0  0  0  0  0  0  0  0  0  0
   59.7076   29.3646   51.8297 C   0  0  0  0  0  0  0  0  0  0  0  0
   58.0930   29.5626   51.8236 H   0  0  0  0  0  0  0  0  0  0  0  0
   59.7282   30.8560   49.1364 C   0  0  0  0  0  0  0  0  0  0  0  0
   59.7089   32.0101   48.1725 C   0  0  0  0  0  0  0  0  0  0  0  0
   60.9184   32.5306   47.6788 C   0  0  0  0  0  0  0  0  0  0  0  0
   60.9117   33.6195   46.8034 C   0  0  0  0  0  0  0  0  0  0  0  0
   59.6998   34.2046   46.4199 C   0  0  0  0  0  0  0  0  0  0  0  0
   59.6933   35.5747   45.3214 Cl  0  0  0  0  0  0  0  0  0  0  0  0
   58.4914   33.6992   46.9149 C   0  0  0  0  0  0  0  0  0  0  0  0
   58.4938   32.6075   47.7896 C   0  0  0  0  0  0  0  0  0  0  0  0
  1  2  2  0
  2  3  1  0
  3  4  2  0
  4 11  1  0
 11 12  1  0
 12 13  1  0
 13 14  2  0
 13 15  1  0
 15 16  1  0
 16 17  1  0
  3  5  1  0
  5  6  2  0
  6  7  1  0
  6  8  1  0
  8  9  1  0
  9 10  2  0
  9 18  1  0
 18 19  1  0
 19 20  1  0
 20 21  1  0
 21 25  1  0
 25 26  1  0
 26 27  2  0
 27 28  1  0
 28 29  2  0
 29 30  1  0
 29 31  1  0
 31 32  2  0
 21 22  1  0
 22 23  1  0
  8  2  1  0
 23 18  1  0
 16 11  2  0
 32 26  1  0
 18 24  1  0
M  CHG 1  12  -1
M  CHG 1  15  -1
M  CHG 1  17  -1
M  CHG 1  18   1
M  END
> <UniqueID>
20

> <SMILES>
C=c1/c(=C/c2[n-]c(=O)[n-]c2[O-])cc(C)n1C(=O)[NH+]1CCN(Cc2ccc(Cl)cc2)CC1

> <Energy>
139.7994721619739

> <Genealogy>
C=c1c(=Cc2[n-]c(=O)[n-]c2[O-])cc(C)n1C(=O)[NH+]1CCN(Cc2ccc(Cl)cc2)CC1 (protonated)
C=c1/c(=C/c2[n-]c(=O)[n-]c2[O-])cc(C)n1C(=O)[NH+]1CCN(Cc2ccc(Cl)cc2)CC1 (cis-trans isomerization)
C=c1/c(=C/c2[n-]c(=O)[n-]c2[O-])cc(C)n1C(=O)[NH+]1CCN(Cc2ccc(Cl)cc2)CC1 (3D coordinates assigned)
C=c1/c(=C/c2[n-]c(=O)[n-]c2[O-])cc(C)n1C(=O)[NH+]1CCN(Cc2ccc(Cl)cc2)CC1 (nonaromatic ring conformer: 139.7994721619739 kcal/mol)

> <smiles>
C=c1c(=Cc2[nH]c(=O)[nH]c2O)cc(C)n1C(=O)N1CCN(Cc2ccc(Cl)cc2)CC1

> <score_type>
oracle

> <origin>
adg

> <m_score__min__energy>
-16.52

> <m_primary>
energy

> <minimizedAffinity>
-7.18790

> <minimizedRMSD>
1.02601

> <CNNscore>
0.2638221085

> <CNNaffinity>
6.1645278931

> <CNN_VS>
1.6263387203

> <CNNaffinity_variance>
0.2671985030

$$$$
55:0


 35 38  0  0  0  0  0  0  0  0999 V2000
   57.3643   24.3314   47.4132 C   0  0  0  0  0  0  0  0  0  0  0  0
   57.3845   24.6139   46.1005 C   0  0  0  0  0  0  0  0  0  0  0  0
   56.9275   23.7854   45.0693 C   0  0  0  0  0  0  0  0  0  0  0  0
   56.3802   22.5601   45.1859 C   0  0  0  0  0  0  0  0  0  0  0  0
   57.1039   24.4982   43.8900 C   0  0  0  0  0  0  0  0  0  0  0  0
   57.6750   25.7060   44.2387 C   0  0  0  0  0  0  0  0  0  0  0  0
   58.0584   26.7760   43.2614 C   0  0  0  0  0  0  0  0  0  0  0  0
   57.8435   25.7810   45.5787 N   0  0  0  0  0  0  0  0  0  0  0  0
   58.4785   26.8621   46.2808 C   0  0  0  0  0  0  0  0  0  0  0  0
   59.6351   26.7044   46.7617 O   0  0  0  0  0  0  0  0  0  0  0  0
   57.7895   28.1103   46.4559 N   0  0  0  0  0  0  0  0  0  0  0  0
   56.8131   28.1265   46.3307 H   0  0  0  0  0  0  0  0  0  0  0  0
   55.0630   22.2985   45.7972 C   0  0  0  0  0  0  0  0  0  0  0  0
   54.6456   21.0718   46.1551 N   0  0  0  0  0  0  0  0  0  0  0  0
   53.3741   21.2776   46.5648 C   0  0  0  0  0  0  0  0  0  0  0  0
   52.6407   20.3488   46.9942 O   0  0  0  0  0  0  0  0  0  0  0  0
   52.9455   22.5533   46.4635 N   0  0  0  0  0  0  0  0  0  0  0  0
   54.0205   23.1851   45.9641 C   0  0  0  0  0  0  0  0  0  0  0  0
   54.0259   24.5324   45.6196 O   0  0  0  0  0  0  0  0  0  0  0  0
   58.4522   29.3355   46.8043 C   0  0  0  0  0  0  0  0  0  0  0  0
   59.0322   29.5094   48.0734 C   0  0  0  0  0  0  0  0  0  0  0  0
   59.6795   30.7060   48.3942 C   0  0  0  0  0  0  0  0  0  0  0  0
   59.7520   31.7475   47.4573 C   0  0  0  0  0  0  0  0  0  0  0  0
   59.2063   31.5568   46.1770 C   0  0  0  0  0  0  0  0  0  0  0  0
   58.5680   30.3564   45.8522 C   0  0  0  0  0  0  0  0  0  0  0  0
   60.4245   33.0173   47.8072 C   0  0  0  0  0  0  0  0  0  0  0  0
   59.8710   34.1085   47.4986 O   0  0  0  0  0  0  0  0  0  0  0  0
   61.6851   33.0326   48.5066 N   0  0  0  0  0  0  0  0  0  0  0  0
   62.7532   32.0889   48.1525 C   0  0  0  0  0  0  0  0  0  0  0  0
   63.4856   31.6028   49.4151 C   0  0  0  0  0  0  0  0  0  0  0  0
   63.6164   32.6496   50.4638 N   0  0  0  0  0  0  0  0  0  0  0  0
   63.4022   34.0267   49.9827 C   0  0  0  0  0  0  0  0  0  0  0  0
   61.9899   34.1519   49.4084 C   0  0  0  0  0  0  0  0  0  0  0  0
   64.8361   32.4979   51.2886 C   0  0  0  0  0  0  0  0  0  0  0  0
   66.1469   32.6092   50.4911 C   0  0  0  0  0  0  0  0  0  0  0  0
  1  2  2  0
  2  3  1  0
  3  4  2  0
  4 13  1  0
 13 14  1  0
 14 15  1  0
 15 16  2  0
 15 17  1  0
 17 18  1  0
 18 19  1  0
  3  5  1  0
  5  6  2  0
  6  7  1  0
  6  8  1  0
  8  9  1  0
  9 10  2  0
  9 11  1  0
 11 20  1  0
 20 21  2  0
 21 22  1  0
 22 23  2  0
 23 26  1  0
 26 27  2  0
 26 28  1  0
 28 29  1  0
 29 30  1  0
 30 31  1  0
 31 34  1  0
 34 35  1  0
 31 32  1  0
 32 33  1  0
 23 24  1  0
 24 25  2  0
  8  2  1  0
 25 20  1  0
 18 13  2  0
 33 28  1  0
 11 12  1  0
M  CHG 1  14  -1
M  CHG 1  17  -1
M  CHG 1  19  -1
M  END
> <UniqueID>
56

> <SMILES>
C=c1/c(=C/c2[n-]c(=O)[n-]c2[O-])cc(C)n1C(=O)Nc1ccc(C(=O)N2CCN(CC)CC2)cc1

> <Energy>
146.66376605470788

> <Genealogy>
C=c1c(=Cc2[n-]c(=O)[n-]c2[O-])cc(C)n1C(=O)Nc1ccc(C(=O)N2CCN(CC)CC2)cc1 (protonated)
C=c1/c(=C/c2[n-]c(=O)[n-]c2[O-])cc(C)n1C(=O)Nc1ccc(C(=O)N2CCN(CC)CC2)cc1 (cis-trans isomerization)
C=c1/c(=C/c2[n-]c(=O)[n-]c2[O-])cc(C)n1C(=O)Nc1ccc(C(=O)N2CCN(CC)CC2)cc1 (3D coordinates assigned)
C=c1/c(=C/c2[n-]c(=O)[n-]c2[O-])cc(C)n1C(=O)Nc1ccc(C(=O)N2CCN(CC)CC2)cc1 (nonaromatic ring conformer: 146.66376605470788 kcal/mol)

> <smiles>
C=c1c(=Cc2[nH]c(=O)[nH]c2O)cc(C)n1C(=O)Nc1ccc(C(=O)N2CCN(CC)CC2)cc1

> <score_type>
oracle

> <origin>
adg

> <m_score__min__energy>
-16.43

> <m_primary>
energy

> <minimizedAffinity>
-8.49193

> <minimizedRMSD>
1.73261

> <CNNscore>
0.0622686334

> <CNNaffinity>
6.0976815224

> <CNN_VS>
0.3796942830

> <CNNaffinity_variance>
0.0468783081

$$$$
59:0


 28 29  0  0  0  0  0  0  0  0999 V2000
   57.7527   28.4680   53.7609 C   0  0  0  0  0  0  0  0  0  0  0  0
   56.8660   29.3043   53.2150 C   0  0  0  0  0  0  0  0  0  0  0  0
   55.5386   29.1915   53.4117 N   0  0  0  0  0  0  0  0  0  0  0  0
   54.9514   30.2387   52.7957 C   0  0  0  0  0  0  0  0  0  0  0  0
   53.6189   30.4254   52.8051 C   0  0  0  0  0  0  0  0  0  0  0  0
   55.9195   31.0328   52.1906 C   0  0  0  0  0  0  0  0  0  0  0  0
   57.1382   30.4281   52.4441 C   0  0  0  0  0  0  0  0  0  0  0  0
   55.0814   28.4775   53.9122 H   0  0  0  0  0  0  0  0  0  0  0  0
   52.7427   30.5107   51.6174 C   0  0  0  0  0  0  0  0  0  0  0  0
   52.7844   29.7012   50.5442 N   0  0  0  0  0  0  0  0  0  0  0  0
   51.8166   30.1907   49.7401 C   0  0  0  0  0  0  0  0  0  0  0  0
   51.5453   29.6846   48.6203 O   0  0  0  0  0  0  0  0  0  0  0  0
   51.1624   31.2648   50.2311 N   0  0  0  0  0  0  0  0  0  0  0  0
   51.7612   31.4543   51.4160 C   0  0  0  0  0  0  0  0  0  0  0  0
   51.4220   32.4758   52.2943 O   0  0  0  0  0  0  0  0  0  0  0  0
   58.4362   30.9346   51.9563 C   0  0  0  0  0  0  0  0  0  0  0  0
   59.4925   30.3470   52.3166 O   0  0  0  0  0  0  0  0  0  0  0  0
   58.5299   32.1434   51.0671 C   0  0  0  0  0  0  0  0  0  0  0  0
   59.1243   31.7781   49.7342 C   0  0  0  0  0  0  0  0  0  0  0  0
   58.9647   30.6072   49.2984 O   0  0  0  0  0  0  0  0  0  0  0  0
   59.8354   32.7849   48.9098 C   0  0  0  0  0  0  0  0  0  0  0  0
   60.0347   33.9360   49.3877 O   0  0  0  0  0  0  0  0  0  0  0  0
   60.2336   32.4806   47.5460 N   0  0  0  0  0  0  0  0  0  0  0  0
   60.6428   31.6440   47.2269 H   0  0  0  0  0  0  0  0  0  0  0  0
   59.1843   32.9152   46.5906 C   0  0  0  0  0  0  0  0  0  0  0  0
   59.4915   34.2293   45.8582 C   0  0  0  0  0  0  0  0  0  0  0  0
   61.5901   33.0114   47.2591 C   0  0  0  0  0  0  0  0  0  0  0  0
   62.7081   32.0611   47.7014 C   0  0  0  0  0  0  0  0  0  0  0  0
  1  2  2  0
  2  3  1  0
  3  4  1  0
  4  5  2  0
  5  9  1  0
  9 10  1  0
 10 11  1  0
 11 12  2  0
 11 13  1  0
 13 14  1  0
 14 15  1  0
  4  6  1  0
  6  7  2  0
  7 16  1  0
 16 17  2  0
 16 18  1  0
 18 19  1  0
 19 20  2  0
 19 21  1  0
 21 22  2  0
 21 23  1  0
 23 25  1  0
 25 26  1  0
 23 27  1  0
 27 28  1  0
  7  2  1  0
 14  9  2  0
  3  8  1  0
 23 24  1  0
M  CHG 1  10  -1
M  CHG 1  13  -1
M  CHG 1  15  -1
M  CHG 1  23   1
M  END
> <UniqueID>
60

> <SMILES>
C=c1[nH]c(=Cc2[n-]c(=O)[n-]c2[O-])cc1C(=O)CC(=O)C(=O)[NH+](CC)CC

> <Energy>
107.78611464441443

> <Genealogy>
C=c1[nH]c(=Cc2[n-]c(=O)[n-]c2[O-])cc1C(=O)CC(=O)C(=O)[NH+](CC)CC (protonated)
C=c1[nH]c(=Cc2[n-]c(=O)[n-]c2[O-])cc1C(=O)CC(=O)C(=O)[NH+](CC)CC (3D coordinates assigned)
C=c1[nH]c(=Cc2[n-]c(=O)[n-]c2[O-])cc1C(=O)CC(=O)C(=O)[NH+](CC)CC (optimized conformer: 107.78611464441443 kcal/mol)

> <smiles>
C=c1[nH]c(=Cc2[nH]c(=O)[nH]c2O)cc1C(=O)CC(=O)C(=O)N(CC)CC

> <score_type>
oracle

> <origin>
adg

> <m_score__min__energy>
-14.74

> <m_primary>
energy

> <minimizedAffinity>
-5.51005

> <minimizedRMSD>
1.11308

> <CNNscore>
0.2719193995

> <CNNaffinity>
5.5652356148

> <CNN_VS>
1.5132955313

> <CNNaffinity_variance>
0.3751368821

$$$$
61:0


 38 42  0  0  0  0  0  0  0  0999 V2000
   60.1974   25.4697   46.6732 C   0  0  0  0  0  0  0  0  0  0  0  0
   61.3621   25.6609   46.2344 O   0  0  0  0  0  0  0  0  0  0  0  0
   59.9201   25.8159   48.0405 N   0  0  0  0  0  0  0  0  0  0  0  0
   59.7423   27.0031   48.5506 C   0  0  0  0  0  0  0  0  0  0  0  0
   60.5125   27.4985   49.6206 C   0  0  0  0  0  0  0  0  0  0  0  0
   60.2751   28.7858   50.1032 C   0  0  0  0  0  0  0  0  0  0  0  0
   59.2739   29.5814   49.5312 C   0  0  0  0  0  0  0  0  0  0  0  0
   58.5476   29.0636   48.4503 C   0  0  0  0  0  0  0  0  0  0  0  0
   58.7978   27.8089   47.9940 N   0  0  0  0  0  0  0  0  0  0  0  0
   59.0277   30.9557   50.0252 C   0  0  0  0  0  0  0  0  0  0  0  0
   58.4411   31.1171   51.1305 O   0  0  0  0  0  0  0  0  0  0  0  0
   59.4591   32.1085   49.2825 N   0  0  0  0  0  0  0  0  0  0  0  0
   59.1478   32.2454   47.8582 C   0  0  0  0  0  0  0  0  0  0  0  0
   60.3521   32.8474   47.1188 C   0  0  0  0  0  0  0  0  0  0  0  0
   60.9850   34.0103   47.8076 N   0  0  0  0  0  0  0  0  0  0  0  0
   60.2789   34.4306   49.0438 C   0  0  0  0  0  0  0  0  0  0  0  0
   60.0192   33.2574   49.9992 C   0  0  0  0  0  0  0  0  0  0  0  0
   62.4318   33.7887   48.0488 C   0  0  0  0  0  0  0  0  0  0  0  0
   62.7605   32.3471   48.4513 C   0  0  0  0  0  0  0  0  0  0  0  0
   63.5927   32.1763   47.1922 C   0  0  0  0  0  0  0  0  0  0  0  0
   63.2360   33.5896   46.7617 C   0  0  0  0  0  0  0  0  0  0  0  0
   58.3899   25.9565   44.9452 C   0  0  0  0  0  0  0  0  0  0  0  0
   57.3340   25.4894   44.1443 C   0  0  0  0  0  0  0  0  0  0  0  0
   57.0146   24.1317   44.1119 C   0  0  0  0  0  0  0  0  0  0  0  0
   57.7410   23.2235   44.8772 C   0  0  0  0  0  0  0  0  0  0  0  0
   58.7850   23.6695   45.6888 C   0  0  0  0  0  0  0  0  0  0  0  0
   59.1241   25.0347   45.7402 C   0  0  0  0  0  0  0  0  0  0  0  0
   58.0612   29.7173   44.5516 C   0  0  0  0  0  0  0  0  0  0  0  0
   59.3759   30.1291   44.8017 C   0  0  0  0  0  0  0  0  0  0  0  0
   60.3618   29.1852   45.1050 C   0  0  0  0  0  0  0  0  0  0  0  0
   60.0408   27.8256   45.1536 C   0  0  0  0  0  0  0  0  0  0  0  0
   58.7310   27.3979   44.8851 C   0  0  0  0  0  0  0  0  0  0  0  0
   57.7419   28.3519   44.5910 C   0  0  0  0  0  0  0  0  0  0  0  0
   55.2720   30.1498   44.1753 N   0  0  0  0  0  0  0  0  0  0  0  0
   56.8231   30.9084   44.1692 S   0  0  0  0  0  0  0  0  0  0  0  0
   57.0907   31.4972   42.8125 O   0  0  0  0  0  0  0  0  0  0  0  0
   56.8394   32.0137   45.1875 O   0  0  0  0  0  0  0  0  0  0  0  0
   54.5548   30.8404   43.9537 H   0  0  0  0  0  0  0  0  0  0  0  0
 34 35  1  0
 35 36  2  0
 35 37  2  0
 35 28  1  0
 28 29  2  0
 29 30  1  0
 30 31  2  0
 31 32  1  0
 32 22  1  0
 22 23  2  0
 23 24  1  0
 24 25  2  0
 25 26  1  0
 26 27  2  0
 27  1  1  0
  1  2  2  0
  1  3  1  0
  3  4  2  0
  4  5  1  0
  5  6  2  0
  6  7  1  0
  7 10  1  0
 10 11  2  0
 10 12  1  0
 12 13  1  0
 13 14  1  0
 14 15  1  0
 15 18  1  0
 18 19  1  0
 19 20  1  0
 20 21  1  0
 15 16  1  0
 16 17  1  0
  7  8  2  0
  8  9  1  0
 32 33  2  0
 33 28  1  0
 27 22  1  0
  9  4  1  0
 17 12  1  0
 21 18  1  0
 34 38  1  0
M  CHG 1   9  -1
M  CHG 1  34  -1
M  END
> <UniqueID>
62

> <SMILES>
[NH-]S(=O)(=O)c1cccc(-c2ccccc2C(=O)N=c2ccc(C(=O)N3CCN(C4CCC4)CC3)c[n-]2)c1

> <Energy>
160.81501603760773

> <Genealogy>
[NH-]S(=O)(=O)c1cccc(-c2ccccc2C(=O)N=c2ccc(C(=O)N3CCN(C4CCC4)CC3)c[n-]2)c1 (protonated)
[NH-]S(=O)(=O)c1cccc(-c2ccccc2C(=O)N=c2ccc(C(=O)N3CCN(C4CCC4)CC3)c[n-]2)c1 (3D coordinates assigned)
[NH-]S(=O)(=O)c1cccc(-c2ccccc2C(=O)N=c2ccc(C(=O)N3CCN(C4CCC4)CC3)c[n-]2)c1 (nonaromatic ring conformer: 160.81501603760773 kcal/mol)

> <smiles>
NS(=O)(=O)c1cccc(-c2ccccc2C(=O)N=c2ccc(C(=O)N3CCN(C4CCC4)CC3)c[nH]2)c1

> <score_type>
oracle

> <origin>
adg

> <m_score__min__energy>
-14.01

> <m_primary>
energy

> <minimizedAffinity>
-4.79189

> <minimizedRMSD>
0.52318

> <CNNscore>
0.6159954071

> <CNNaffinity>
6.8992786407

> <CNN_VS>
4.2499241829

> <CNNaffinity_variance>
0.4124123156

$$$$
1:0


 26 28  0  0  0  0  0  0  0  0999 V2000
   57.8049   30.9390   43.5227 C   0  0  0  0  0  0  0  0  0  0  0  0
   58.2615   31.3730   44.7030 C   0  0  0  0  0  0  0  0  0  0  0  0
   57.9235   32.5867   45.1878 N   0  0  0  0  0  0  0  0  0  0  0  0
   58.4283   32.6837   46.4295 C   0  0  0  0  0  0  0  0  0  0  0  0
   58.2672   33.9036   47.2825 C   0  0  0  0  0  0  0  0  0  0  0  0
   59.0982   31.5165   46.7657 C   0  0  0  0  0  0  0  0  0  0  0  0
   59.0349   30.6788   45.6520 C   0  0  0  0  0  0  0  0  0  0  0  0
   59.6098   29.4582   45.5874 C   0  0  0  0  0  0  0  0  0  0  0  0
   57.4015   33.2760   44.7170 H   0  0  0  0  0  0  0  0  0  0  0  0
   59.0025   28.1977   46.0550 C   0  0  0  0  0  0  0  0  0  0  0  0
   57.9052   27.6476   45.3778 C   0  0  0  0  0  0  0  0  0  0  0  0
   57.4081   28.2499   44.2286 O   0  0  0  0  0  0  0  0  0  0  0  0
   57.3249   26.5107   45.8405 N   0  0  0  0  0  0  0  0  0  0  0  0
   57.7773   25.8992   46.9653 C   0  0  0  0  0  0  0  0  0  0  0  0
   57.2257   24.8433   47.3716 O   0  0  0  0  0  0  0  0  0  0  0  0
   58.8213   26.4269   47.6533 N   0  0  0  0  0  0  0  0  0  0  0  0
   59.4364   27.5630   47.2323 C   0  0  0  0  0  0  0  0  0  0  0  0
   60.3877   28.0376   47.9083 O   0  0  0  0  0  0  0  0  0  0  0  0
   59.8194   31.2604   48.0285 C   0  0  0  0  0  0  0  0  0  0  0  0
   59.2032   30.6963   48.9731 O   0  0  0  0  0  0  0  0  0  0  0  0
   61.1956   31.6522   48.2012 N   0  0  0  0  0  0  0  0  0  0  0  0
   62.0803   30.8729   49.0750 C   0  0  0  0  0  0  0  0  0  0  0  0
   63.1040   31.7983   49.7391 C   0  0  0  0  0  0  0  0  0  0  0  0
   63.7686   32.5906   48.7725 O   0  0  0  0  0  0  0  0  0  0  0  0
   62.8434   33.4668   48.1567 C   0  0  0  0  0  0  0  0  0  0  0  0
   61.8041   32.6821   47.3526 C   0  0  0  0  0  0  0  0  0  0  0  0
  1  2  2  0
  2  3  1  0
  3  4  1  0
  4  5  1  0
  4  6  2  0
  6 19  1  0
 19 20  2  0
 19 21  1  0
 21 22  1  0
 22 23  1  0
 23 24  1  0
 24 25  1  0
 25 26  1  0
  6  7  1  0
  7  8  2  0
  8 10  1  0
 10 11  2  0
 11 12  1  0
 11 13  1  0
 13 14  1  0
 14 15  2  0
 14 16  1  0
 16 17  1  0
 17 18  2  0
  7  2  1  0
 17 10  1  0
 26 21  1  0
  3  9  1  0
M  CHG 1  12  -1
M  CHG 1  13  -1
M  CHG 1  16  -1
M  END
> <UniqueID>
2

> <SMILES>
C=c1[nH]c(C)c(C(=O)N2CCOCC2)c1=Cc1c([O-])[n-]c(=O)[n-]c1=O

> <Energy>
90.53116175588235

> <Genealogy>
C=c1[nH]c(C)c(C(=O)N2CCOCC2)c1=Cc1c([O-])[n-]c(=O)[n-]c1=O (protonated)
C=c1[nH]c(C)c(C(=O)N2CCOCC2)c1=Cc1c([O-])[n-]c(=O)[n-]c1=O (3D coordinates assigned)
C=c1[nH]c(C)c(C(=O)N2CCOCC2)c1=Cc1c([O-])[n-]c(=O)[n-]c1=O (nonaromatic ring conformer: 90.53116175588235 kcal/mol)

> <smiles>
C=c1[nH]c(C)c(C(=O)N2CCOCC2)c1=Cc1c(O)[nH]c(=O)[nH]c1=O

> <score_type>
oracle

> <origin>
adg

> <m_score__min__energy>
-14.789999999999999

> <m_primary>
energy

> <minimizedAffinity>
-6.88117

> <minimizedRMSD>
1.65552

> <CNNscore>
0.3626354337

> <CNNaffinity>
6.3478932381

> <CNN_VS>
2.3019709587

> <CNNaffinity_variance>
0.2194126397

$$$$
28:0


 33 36  0  0  0  0  0  0  0  0999 V2000
   59.4653   30.4747   46.4660 C   0  0  0  0  0  0  0  0  0  0  0  0
   60.7275   30.7872   46.9947 C   0  0  0  0  0  0  0  0  0  0  0  0
   60.9734   32.0487   47.5558 C   0  0  0  0  0  0  0  0  0  0  0  0
   59.9598   33.0161   47.5606 C   0  0  0  0  0  0  0  0  0  0  0  0
   58.7121   32.7246   46.9991 C   0  0  0  0  0  0  0  0  0  0  0  0
   58.4635   31.4617   46.4502 C   0  0  0  0  0  0  0  0  0  0  0  0
   57.2607   31.2173   45.8672 F   0  0  0  0  0  0  0  0  0  0  0  0
   60.1933   27.8867   47.7387 C   0  0  0  0  0  0  0  0  0  0  0  0
   59.4485   27.9726   46.6253 C   0  0  0  0  0  0  0  0  0  0  0  0
   59.0042   26.9007   45.8344 C   0  0  0  0  0  0  0  0  0  0  0  0
   58.9398   25.5842   46.1041 C   0  0  0  0  0  0  0  0  0  0  0  0
   58.5708   27.4507   44.6426 C   0  0  0  0  0  0  0  0  0  0  0  0
   58.6566   28.8209   44.7816 C   0  0  0  0  0  0  0  0  0  0  0  0
   58.2654   29.8011   43.7157 C   0  0  0  0  0  0  0  0  0  0  0  0
   59.1944   29.1439   45.9842 N   0  0  0  0  0  0  0  0  0  0  0  0
   57.6985   24.7869   46.1524 C   0  0  0  0  0  0  0  0  0  0  0  0
   57.6565   23.4466   46.2845 N   0  0  0  0  0  0  0  0  0  0  0  0
   56.3406   23.1933   46.4594 C   0  0  0  0  0  0  0  0  0  0  0  0
   55.8910   22.0262   46.6223 O   0  0  0  0  0  0  0  0  0  0  0  0
   55.5472   24.2845   46.4745 N   0  0  0  0  0  0  0  0  0  0  0  0
   56.4256   25.2859   46.2952 C   0  0  0  0  0  0  0  0  0  0  0  0
   56.0778   26.6317   46.2815 O   0  0  0  0  0  0  0  0  0  0  0  0
   62.3265   32.3955   48.0156 C   0  0  0  0  0  0  0  0  0  0  0  0
   62.8565   33.4204   47.5038 O   0  0  0  0  0  0  0  0  0  0  0  0
   62.9735   31.6857   49.1177 N   0  0  0  0  0  0  0  0  0  0  0  0
   62.0224   30.8326   49.8705 C   0  0  0  0  0  0  0  0  0  0  0  0
   61.0232   31.6709   50.6809 C   0  0  0  0  0  0  0  0  0  0  0  0
   61.7429   32.5559   51.6206 N   0  0  0  0  0  0  0  0  0  0  0  0
   62.6843   33.4299   50.8898 C   0  0  0  0  0  0  0  0  0  0  0  0
   63.6736   32.5947   50.0622 C   0  0  0  0  0  0  0  0  0  0  0  0
   62.0899   31.2579   49.0446 H   0  0  0  0  0  0  0  0  0  0  0  0
   60.7896   33.3581   52.4217 C   0  0  0  0  0  0  0  0  0  0  0  0
   59.4341   33.4364   51.7165 C   0  0  0  0  0  0  0  0  0  0  0  0
  8  9  2  0
  9 10  1  0
 10 11  2  0
 11 16  1  0
 16 17  1  0
 17 18  1  0
 18 19  2  0
 18 20  1  0
 20 21  1  0
 21 22  1  0
 10 12  1  0
 12 13  2  0
 13 14  1  0
 13 15  1  0
 15  1  1  0
  1  2  2  0
  2  3  1  0
  3 23  1  0
 23 24  2  0
 23 25  1  0
 25 26  1  0
 26 27  1  0
 27 28  1  0
 28 32  1  0
 32 33  1  0
 28 29  1  0
 29 30  1  0
  3  4  2  0
  4  5  1  0
  5  6  2  0
  6  7  1  0
 15  9  1  0
  6  1  1  0
 21 16  2  0
 30 25  1  0
 25 31  1  0
M  CHG 1  17  -1
M  CHG 1  20  -1
M  CHG 1  22  -1
M  CHG 1  25   1
M  END
> <UniqueID>
27

> <SMILES>
C=c1c(=Cc2[n-]c(=O)[n-]c2[O-])cc(C)n1-c1cc(C(=O)[NH+]2CCN(CC)CC2)ccc1F

> <Energy>
150.637452239156

> <Genealogy>
C=c1c(=Cc2[n-]c(=O)[n-]c2[O-])cc(C)n1-c1cc(C(=O)[NH+]2CCN(CC)CC2)ccc1F (protonated)
C=c1c(=Cc2[n-]c(=O)[n-]c2[O-])cc(C)n1-c1cc(C(=O)[NH+]2CCN(CC)CC2)ccc1F (3D coordinates assigned)
C=c1c(=Cc2[n-]c(=O)[n-]c2[O-])cc(C)n1-c1cc(C(=O)[NH+]2CCN(CC)CC2)ccc1F (nonaromatic ring conformer: 150.637452239156 kcal/mol)

> <smiles>
C=c1c(=Cc2[nH]c(=O)[nH]c2O)cc(C)n1-c1cc(C(=O)N2CCN(CC)CC2)ccc1F

> <score_type>
oracle

> <origin>
adg

> <m_score__min__energy>
-15.630000000000001

> <m_primary>
energy

> <minimizedAffinity>
-7.59745

> <minimizedRMSD>
1.80255

> <CNNscore>
0.0999670550

> <CNNaffinity>
6.9758515358

> <CNN_VS>
0.6973553300

> <CNNaffinity_variance>
0.0898662210

$$$$
36:0


 35 38  0  0  0  0  0  0  0  0999 V2000
   59.8922   30.4876   47.3418 C   0  0  0  0  0  0  0  0  0  0  0  0
   61.2486   30.7859   47.1512 C   0  0  0  0  0  0  0  0  0  0  0  0
   61.9020   31.6687   48.0134 C   0  0  0  0  0  0  0  0  0  0  0  0
   61.2013   32.2696   49.0632 C   0  0  0  0  0  0  0  0  0  0  0  0
   59.8343   32.0066   49.2427 C   0  0  0  0  0  0  0  0  0  0  0  0
   59.1922   31.0943   48.3970 C   0  0  0  0  0  0  0  0  0  0  0  0
   59.8584   27.5315   47.5431 C   0  0  0  0  0  0  0  0  0  0  0  0
   59.2834   28.1988   46.5296 C   0  0  0  0  0  0  0  0  0  0  0  0
   58.5029   27.6584   45.4962 C   0  0  0  0  0  0  0  0  0  0  0  0
   58.3141   26.3823   45.1071 C   0  0  0  0  0  0  0  0  0  0  0  0
   57.9056   28.7336   44.8571 C   0  0  0  0  0  0  0  0  0  0  0  0
   58.3929   29.8766   45.4578 C   0  0  0  0  0  0  0  0  0  0  0  0
   58.0193   31.2720   45.0601 C   0  0  0  0  0  0  0  0  0  0  0  0
   59.2289   29.5549   46.4713 N   0  0  0  0  0  0  0  0  0  0  0  0
   57.5777   25.3589   45.8658 C   0  0  0  0  0  0  0  0  0  0  0  0
   58.0609   24.1457   46.1864 N   0  0  0  0  0  0  0  0  0  0  0  0
   57.0016   23.5290   46.7550 C   0  0  0  0  0  0  0  0  0  0  0  0
   57.0613   22.3565   47.2063 O   0  0  0  0  0  0  0  0  0  0  0  0
   55.8715   24.2663   46.7932 N   0  0  0  0  0  0  0  0  0  0  0  0
   56.2500   25.4160   46.2134 C   0  0  0  0  0  0  0  0  0  0  0  0
   55.4026   26.4989   46.0040 O   0  0  0  0  0  0  0  0  0  0  0  0
   54.5066   26.4517   46.2740 H   0  0  0  0  0  0  0  0  0  0  0  0
   59.1051   32.5721   50.3378 N   0  0  0  0  0  0  0  0  0  0  0  0
   59.4803   32.5263   51.7211 C   0  0  0  0  0  0  0  0  0  0  0  0
   59.8851   33.5886   52.2626 O   0  0  0  0  0  0  0  0  0  0  0  0
   59.5227   31.2150   52.4727 C   0  0  0  0  0  0  0  0  0  0  0  0
   60.4492   31.1918   53.7109 C   0  0  0  0  0  0  0  0  0  0  0  0
   61.7435   30.4952   53.5200 N   0  0  0  0  0  0  0  0  0  0  0  0
   61.9396   29.2216   54.2398 C   0  0  0  0  0  0  0  0  0  0  0  0
   61.9595   27.9997   53.3046 C   0  0  0  0  0  0  0  0  0  0  0  0
   61.2905   28.3104   52.0293 N   0  0  0  0  0  0  0  0  0  0  0  0
   62.0695   29.3359   51.3065 C   0  0  0  0  0  0  0  0  0  0  0  0
   62.3592   30.5758   52.1824 C   0  0  0  0  0  0  0  0  0  0  0  0
   61.1501   27.0980   51.1919 C   0  0  0  0  0  0  0  0  0  0  0  0
   61.6479   25.8575   51.9331 C   0  0  0  0  0  0  0  0  0  0  0  0
  7  8  2  0
  8  9  1  0
  9 10  2  0
 10 15  1  0
 15 16  1  0
 16 17  1  0
 17 18  2  0
 17 19  1  0
 19 20  1  0
 20 21  1  0
  9 11  1  0
 11 12  2  0
 12 13  1  0
 12 14  1  0
 14  1  1  0
  1  2  2  0
  2  3  1  0
  3  4  2  0
  4  5  1  0
  5 23  1  0
 23 24  1  0
 24 25  2  0
 24 26  1  0
 26 27  1  0
 27 28  1  0
 28 29  1  0
 29 30  1  0
 30 31  1  0
 31 34  1  0
 34 35  1  0
 31 32  1  0
 32 33  1  0
  5  6  2  0
 14  8  1  0
  6  1  1  0
 20 15  2  0
 33 28  1  0
 21 22  1  0
M  CHG 1  16  -1
M  CHG 1  19  -1
M  CHG 1  23  -1
M  END
> <UniqueID>
34

> <SMILES>
C=c1c(=Cc2[n-]c(=O)[n-]c2O)cc(C)n1-c1cccc([N-]C(=O)CCN2CCN(CC)CC2)c1

> <Energy>
159.93524779262262

> <Genealogy>
C=c1c(=Cc2[n-]c(=O)[n-]c2O)cc(C)n1-c1cccc([N-]C(=O)CCN2CCN(CC)CC2)c1 (protonated)
C=c1c(=Cc2[n-]c(=O)[n-]c2O)cc(C)n1-c1cccc([N-]C(=O)CCN2CCN(CC)CC2)c1 (3D coordinates assigned)
C=c1c(=Cc2[n-]c(=O)[n-]c2O)cc(C)n1-c1cccc([N-]C(=O)CCN2CCN(CC)CC2)c1 (nonaromatic ring conformer: 159.93524779262262 kcal/mol)

> <smiles>
C=c1c(=Cc2[nH]c(=O)[nH]c2O)cc(C)n1-c1cccc(NC(=O)CCN2CCN(CC)CC2)c1

> <score_type>
oracle

> <origin>
adg

> <m_score__min__energy>
-14.789999999999999

> <m_primary>
energy

> <minimizedAffinity>
-7.67406

> <minimizedRMSD>
2.65970

> <CNNscore>
0.1589259356

> <CNNaffinity>
6.5809569359

> <CNN_VS>
1.0458847284

> <CNNaffinity_variance>
0.1232500896

$$$$
51:0


 26 27  0  0  0  0  0  0  0  0999 V2000
   58.4535   30.5011   45.8850 C   0  0  0  0  0  0  0  0  0  0  0  0
   56.4534   29.7938   44.7908 O   0  0  0  0  0  0  0  0  0  0  0  0
   57.5026   29.4544   45.3989 C   0  0  0  0  0  0  0  0  0  0  0  0
   57.8152   28.0710   45.5912 N   0  0  0  0  0  0  0  0  0  0  0  0
   58.4844   27.5609   46.7830 C   0  0  0  0  0  0  0  0  0  0  0  0
   58.1834   26.0713   46.9587 C   0  0  0  0  0  0  0  0  0  0  0  0
   56.8418   25.7505   46.4694 N   0  0  0  0  0  0  0  0  0  0  0  0
   56.4777   24.6911   45.8001 C   0  0  0  0  0  0  0  0  0  0  0  0
   55.5616   23.7462   46.3057 C   0  0  0  0  0  0  0  0  0  0  0  0
   55.2168   22.6362   45.5294 C   0  0  0  0  0  0  0  0  0  0  0  0
   55.7609   22.4702   44.2952 N   0  0  0  0  0  0  0  0  0  0  0  0
   56.6443   23.3656   43.7806 C   0  0  0  0  0  0  0  0  0  0  0  0
   57.0163   24.4891   44.5231 C   0  0  0  0  0  0  0  0  0  0  0  0
   57.8068   31.8089   45.8743 N   0  0  0  0  0  0  0  0  0  0  0  0
   58.2149   32.8818   45.0201 C   0  0  0  0  0  0  0  0  0  0  0  0
   58.0729   32.7863   43.7706 O   0  0  0  0  0  0  0  0  0  0  0  0
   58.7853   34.1070   45.6061 C   0  0  0  0  0  0  0  0  0  0  0  0
   59.1133   35.0583   44.8487 O   0  0  0  0  0  0  0  0  0  0  0  0
   59.0251   34.2294   47.0155 N   0  0  0  0  0  0  0  0  0  0  0  0
   60.2470   33.8897   47.6853 C   0  0  0  0  0  0  0  0  0  0  0  0
   61.3435   33.4583   46.9281 C   0  0  0  0  0  0  0  0  0  0  0  0
   62.5518   33.1345   47.5550 C   0  0  0  0  0  0  0  0  0  0  0  0
   62.6772   33.2593   48.9419 C   0  0  0  0  0  0  0  0  0  0  0  0
   64.3247   32.8172   49.7995 Br  0  0  0  0  0  0  0  0  0  0  0  0
   61.5973   33.7170   49.7016 C   0  0  0  0  0  0  0  0  0  0  0  0
   60.3879   34.0414   49.0754 C   0  0  0  0  0  0  0  0  0  0  0  0
  2  3  2  0
  3  1  1  0
  1 14  1  0
 14 15  1  0
 15 16  2  0
 15 17  1  0
 17 18  2  0
 17 19  1  0
 19 20  1  0
 20 21  2  0
 21 22  1  0
 22 23  2  0
 23 24  1  0
 23 25  1  0
 25 26  2  0
  3  4  1  0
  4  5  1  0
  5  6  1  0
  6  7  1  0
  7  8  2  0
  8  9  1  0
  9 10  2  0
 10 11  1  0
 11 12  1  0
 12 13  2  0
 26 20  1  0
 13  8  1  0
M  CHG 1   4  -1
M  CHG 1  11  -1
M  CHG 1  14  -1
M  CHG 1  19  -1
M  END
> <UniqueID>
49

> <SMILES>
O=C(C[N-]C(=O)C(=O)[N-]c1ccc(Br)cc1)[N-]CCN=c1cc[n-]cc1

> <Energy>
38.73867334230478

> <Genealogy>
O=C(C[N-]C(=O)C(=O)[N-]c1ccc(Br)cc1)[N-]CCN=c1cc[n-]cc1 (protonated)
O=C(C[N-]C(=O)C(=O)[N-]c1ccc(Br)cc1)[N-]CCN=c1cc[n-]cc1 (3D coordinates assigned)
O=C(C[N-]C(=O)C(=O)[N-]c1ccc(Br)cc1)[N-]CCN=c1cc[n-]cc1 (optimized conformer: 38.73867334230478 kcal/mol)

> <smiles>
O=C(CNC(=O)C(=O)Nc1ccc(Br)cc1)NCCN=c1cc[nH]cc1

> <score_type>
oracle

> <origin>
adg

> <m_score__min__energy>
-14.35

> <m_primary>
energy

> <minimizedAffinity>
-7.27308

> <minimizedRMSD>
1.24479

> <CNNscore>
0.2637218535

> <CNNaffinity>
6.0789318085

> <CNN_VS>
1.6031471491

> <CNNaffinity_variance>
0.0154511640

$$$$
57:0


 29 31  0  0  0  0  0  0  0  0999 V2000
   58.2544   27.1482   43.5774 C   0  0  0  0  0  0  0  0  0  0  0  0
   58.5418   27.0419   44.8887 C   0  0  0  0  0  0  0  0  0  0  0  0
   58.3089   25.9101   45.6748 C   0  0  0  0  0  0  0  0  0  0  0  0
   57.8345   24.7128   45.2734 C   0  0  0  0  0  0  0  0  0  0  0  0
   58.7115   26.2367   46.9564 C   0  0  0  0  0  0  0  0  0  0  0  0
   59.1552   27.5424   46.9187 C   0  0  0  0  0  0  0  0  0  0  0  0
   59.0853   28.0342   45.6527 N   0  0  0  0  0  0  0  0  0  0  0  0
   56.4899   24.2051   45.6016 C   0  0  0  0  0  0  0  0  0  0  0  0
   56.1507   22.9080   45.5207 N   0  0  0  0  0  0  0  0  0  0  0  0
   54.8345   22.9067   45.8221 C   0  0  0  0  0  0  0  0  0  0  0  0
   54.1489   21.8521   45.8629 O   0  0  0  0  0  0  0  0  0  0  0  0
   54.3076   24.1258   46.0639 N   0  0  0  0  0  0  0  0  0  0  0  0
   55.3646   24.9408   45.9072 C   0  0  0  0  0  0  0  0  0  0  0  0
   55.2931   26.3260   46.0006 O   0  0  0  0  0  0  0  0  0  0  0  0
   54.4801   26.7398   46.2149 H   0  0  0  0  0  0  0  0  0  0  0  0
   59.6076   28.2723   48.1253 C   0  0  0  0  0  0  0  0  0  0  0  0
   60.5141   27.7961   48.8590 O   0  0  0  0  0  0  0  0  0  0  0  0
   59.0659   29.5689   48.4026 N   0  0  0  0  0  0  0  0  0  0  0  0
   59.7476   30.8243   48.2592 C   0  0  0  0  0  0  0  0  0  0  0  0
   61.1062   30.8157   47.9140 C   0  0  0  0  0  0  0  0  0  0  0  0
   61.8002   32.0174   47.7434 C   0  0  0  0  0  0  0  0  0  0  0  0
   61.1363   33.2362   47.8997 C   0  0  0  0  0  0  0  0  0  0  0  0
   59.7766   33.2551   48.2186 C   0  0  0  0  0  0  0  0  0  0  0  0
   59.0788   32.0555   48.3913 C   0  0  0  0  0  0  0  0  0  0  0  0
   59.5241   29.3752   45.2149 C   0  0  0  0  0  0  0  0  0  0  0  0
   58.4861   30.0834   44.3082 C   0  0  0  0  0  0  0  0  0  0  0  0
   57.2790   30.6024   44.9909 N   0  0  0  0  0  0  0  0  0  0  0  0
   56.0157   30.0985   44.4309 C   0  0  0  0  0  0  0  0  0  0  0  0
   57.2655   32.0630   45.1542 C   0  0  0  0  0  0  0  0  0  0  0  0
  1  2  2  0
  2  3  1  0
  3  4  2  0
  4  8  1  0
  8  9  1  0
  9 10  1  0
 10 11  2  0
 10 12  1  0
 12 13  1  0
 13 14  1  0
  3  5  1  0
  5  6  2  0
  6 16  1  0
 16 17  2  0
 16 18  1  0
 18 19  1  0
 19 20  2  0
 20 21  1  0
 21 22  2  0
 22 23  1  0
 23 24  2  0
  6  7  1  0
  7 25  1  0
 25 26  1  0
 26 27  1  0
 27 28  1  0
 27 29  1  0
  7  2  1  0
 13  8  2  0
 24 19  1  0
 14 15  1  0
M  CHG 1   9  -1
M  CHG 1  12  -1
M  CHG 1  18  -1
M  END
> <UniqueID>
55

> <SMILES>
C=c1c(=Cc2[n-]c(=O)[n-]c2O)cc(C(=O)[N-]c2ccccc2)n1CCN(C)C

> <Energy>
124.91774453857515

> <Genealogy>
C=c1c(=Cc2[n-]c(=O)[n-]c2O)cc(C(=O)[N-]c2ccccc2)n1CCN(C)C (protonated)
C=c1c(=Cc2[n-]c(=O)[n-]c2O)cc(C(=O)[N-]c2ccccc2)n1CCN(C)C (3D coordinates assigned)
C=c1c(=Cc2[n-]c(=O)[n-]c2O)cc(C(=O)[N-]c2ccccc2)n1CCN(C)C (optimized conformer: 124.91774453857515 kcal/mol)

> <smiles>
C=c1c(=Cc2[nH]c(=O)[nH]c2O)cc(C(=O)Nc2ccccc2)n1CCN(C)C

> <score_type>
oracle

> <origin>
adg

> <m_score__min__energy>
-14.119999999999999

> <m_primary>
energy

> <minimizedAffinity>
-7.93920

> <minimizedRMSD>
0.60276

> <CNNscore>
0.3171976805

> <CNNaffinity>
6.4913005829

> <CNN_VS>
2.0590255260

> <CNNaffinity_variance>
0.0198517013

$$$$
63:0


 34 38  0  0  0  0  0  0  0  0999 V2000
   58.0674   29.6327   44.8499 C   0  0  0  0  0  0  0  0  0  0  0  0
   57.2105   29.7948   43.7453 C   0  0  0  0  0  0  0  0  0  0  0  0
   56.9294   31.0696   43.2513 C   0  0  0  0  0  0  0  0  0  0  0  0
   57.4981   32.1965   43.8468 C   0  0  0  0  0  0  0  0  0  0  0  0
   58.3687   32.0591   44.9404 C   0  0  0  0  0  0  0  0  0  0  0  0
   58.6394   30.7737   45.4417 C   0  0  0  0  0  0  0  0  0  0  0  0
   58.9682   33.2517   45.5815 C   0  0  0  0  0  0  0  0  0  0  0  0
   59.1486   34.3003   44.9035 O   0  0  0  0  0  0  0  0  0  0  0  0
   59.3631   33.2352   46.9632 N   0  0  0  0  0  0  0  0  0  0  0  0
   60.7155   33.6595   47.3374 C   0  0  0  0  0  0  0  0  0  0  0  0
   60.7937   34.0215   48.8292 C   0  0  0  0  0  0  0  0  0  0  0  0
   60.2177   32.9799   49.7206 N   0  0  0  0  0  0  0  0  0  0  0  0
   59.1087   32.1789   49.1464 C   0  0  0  0  0  0  0  0  0  0  0  0
   58.3907   32.9069   48.0095 C   0  0  0  0  0  0  0  0  0  0  0  0
   61.1947   32.1439   50.4667 C   0  0  0  0  0  0  0  0  0  0  0  0
   62.6359   32.6762   50.2931 C   0  0  0  0  0  0  0  0  0  0  0  0
   63.6749   31.5782   50.5777 C   0  0  0  0  0  0  0  0  0  0  0  0
   63.1749   30.6557   51.5276 O   0  0  0  0  0  0  0  0  0  0  0  0
   62.1621   29.8434   50.9490 C   0  0  0  0  0  0  0  0  0  0  0  0
   61.1199   30.6385   50.1238 C   0  0  0  0  0  0  0  0  0  0  0  0
   60.6181   26.1224   46.7841 C   0  0  0  0  0  0  0  0  0  0  0  0
   59.5493   26.6959   46.2281 C   0  0  0  0  0  0  0  0  0  0  0  0
   59.5838   27.9326   45.7865 O   0  0  0  0  0  0  0  0  0  0  0  0
   58.3807   28.2916   45.3969 C   0  0  0  0  0  0  0  0  0  0  0  0
   57.4994   27.2396   45.5886 C   0  0  0  0  0  0  0  0  0  0  0  0
   58.2506   26.1897   46.0883 C   0  0  0  0  0  0  0  0  0  0  0  0
   57.7407   24.9700   46.3398 C   0  0  0  0  0  0  0  0  0  0  0  0
   56.9391   24.1698   45.3999 C   0  0  0  0  0  0  0  0  0  0  0  0
   57.4514   23.3716   44.4452 N   0  0  0  0  0  0  0  0  0  0  0  0
   56.3593   22.9672   43.7603 C   0  0  0  0  0  0  0  0  0  0  0  0
   56.4275   22.1831   42.7788 O   0  0  0  0  0  0  0  0  0  0  0  0
   55.1904   23.4811   44.2001 N   0  0  0  0  0  0  0  0  0  0  0  0
   55.5782   24.2515   45.2297 C   0  0  0  0  0  0  0  0  0  0  0  0
   54.7076   25.0178   45.9945 O   0  0  0  0  0  0  0  0  0  0  0  0
 21 22  2  0
 22 23  1  0
 23 24  1  0
 24  1  1  0
  1  2  2  0
  2  3  1  0
  3  4  2  0
  4  5  1  0
  5  7  1  0
  7  8  2  0
  7  9  1  0
  9 10  1  0
 10 11  1  0
 11 12  1  0
 12 15  1  0
 15 16  1  0
 16 17  1  0
 17 18  1  0
 18 19  1  0
 19 20  1  0
 12 13  1  0
 13 14  1  0
  5  6  2  0
 24 25  2  0
 25 26  1  0
 26 27  2  0
 27 28  1  0
 28 29  1  0
 29 30  1  0
 30 31  2  0
 30 32  1  0
 32 33  1  0
 33 34  1  0
 26 22  1  0
 33 28  2  0
  6  1  1  0
 14  9  1  0
 20 15  1  0
M  CHG 1  29  -1
M  CHG 1  32  -1
M  CHG 1  34  -1
M  END
> <UniqueID>
61

> <SMILES>
C=c1oc(-c2cccc(C(=O)N3CCN(C4CCOCC4)CC3)c2)cc1=Cc1[n-]c(=O)[n-]c1[O-]

> <Energy>
155.9379825631414

> <Genealogy>
C=c1oc(-c2cccc(C(=O)N3CCN(C4CCOCC4)CC3)c2)cc1=Cc1[n-]c(=O)[n-]c1[O-] (protonated)
C=c1oc(-c2cccc(C(=O)N3CCN(C4CCOCC4)CC3)c2)cc1=Cc1[n-]c(=O)[n-]c1[O-] (3D coordinates assigned)
C=c1oc(-c2cccc(C(=O)N3CCN(C4CCOCC4)CC3)c2)cc1=Cc1[n-]c(=O)[n-]c1[O-] (nonaromatic ring conformer: 155.9379825631414 kcal/mol)

> <smiles>
C=c1oc(-c2cccc(C(=O)N3CCN(C4CCOCC4)CC3)c2)cc1=Cc1[nH]c(=O)[nH]c1O

> <score_type>
oracle

> <origin>
adg

> <m_score__min__energy>
-20.050000000000001

> <m_primary>
energy

> <minimizedAffinity>
-9.67693

> <minimizedRMSD>
1.18691

> <CNNscore>
0.0487558469

> <CNNaffinity>
5.8117976189

> <CNN_VS>
0.2833591104

> <CNNaffinity_variance>
0.4501898289

$$$$
66:0


 24 26  0  0  0  0  0  0  0  0999 V2000
   58.8920   31.8557   51.0204 N   0  0  0  0  0  0  0  0  0  0  0  0
   59.3242   30.4733   51.2461 C   0  0  0  0  0  0  0  0  0  0  0  0
   58.1362   29.6214   51.7131 C   0  0  0  0  0  0  0  0  0  0  0  0
   57.3002   30.3313   52.6951 N   0  0  0  0  0  0  0  0  0  0  0  0
   56.1088   29.6838   53.1857 C   0  0  0  0  0  0  0  0  0  0  0  0
   56.0475   28.4227   53.1909 O   0  0  0  0  0  0  0  0  0  0  0  0
   57.7322   31.6465   53.1957 C   0  0  0  0  0  0  0  0  0  0  0  0
   58.0753   32.5608   52.0175 C   0  0  0  0  0  0  0  0  0  0  0  0
   61.4295   33.2974   51.1909 C   0  0  0  0  0  0  0  0  0  0  0  0
   60.6039   33.2789   49.9341 C   0  0  0  0  0  0  0  0  0  0  0  0
   61.0339   33.9988   48.8088 C   0  0  0  0  0  0  0  0  0  0  0  0
   60.2761   33.9983   47.6342 C   0  0  0  0  0  0  0  0  0  0  0  0
   59.0741   33.2874   47.5768 C   0  0  0  0  0  0  0  0  0  0  0  0
   58.1238   33.2914   46.1020 Cl  0  0  0  0  0  0  0  0  0  0  0  0
   58.6265   32.5804   48.6965 C   0  0  0  0  0  0  0  0  0  0  0  0
   59.3784   32.5779   49.8798 C   0  0  0  0  0  0  0  0  0  0  0  0
   54.9439   30.4817   53.7169 C   0  0  0  0  0  0  0  0  0  0  0  0
   53.7249   30.3303   52.8560 C   0  0  0  0  0  0  0  0  0  0  0  0
   53.7536   30.2610   51.5131 N   0  0  0  0  0  0  0  0  0  0  0  0
   52.4554   30.0719   51.1860 C   0  0  0  0  0  0  0  0  0  0  0  0
   52.0679   29.9618   49.9937 O   0  0  0  0  0  0  0  0  0  0  0  0
   51.6087   30.0052   52.2361 N   0  0  0  0  0  0  0  0  0  0  0  0
   52.4307   30.1643   53.2852 C   0  0  0  0  0  0  0  0  0  0  0  0
   52.0067   30.1503   54.6090 O   0  0  0  0  0  0  0  0  0  0  0  0
  9 10  1  0
 10 11  2  0
 11 12  1  0
 12 13  2  0
 13 14  1  0
 13 15  1  0
 15 16  2  0
 16  1  1  0
  1  2  1  0
  2  3  1  0
  3  4  1  0
  4  5  1  0
  5  6  2  0
  5 17  1  0
 17 18  1  0
 18 19  1  0
 19 20  1  0
 20 21  2  0
 20 22  1  0
 22 23  1  0
 23 24  1  0
  4  7  1  0
  7  8  1  0
 16 10  1  0
  8  1  1  0
 23 18  2  0
M  CHG 1  19  -1
M  CHG 1  22  -1
M  CHG 1  24  -1
M  END
> <UniqueID>
64

> <SMILES>
Cc1ccc(Cl)cc1N1CCN(C(=O)Cc2[n-]c(=O)[n-]c2[O-])CC1

> <Energy>
76.34614758687268

> <Genealogy>
Cc1ccc(Cl)cc1N1CCN(C(=O)Cc2[n-]c(=O)[n-]c2[O-])CC1 (protonated)
Cc1ccc(Cl)cc1N1CCN(C(=O)Cc2[n-]c(=O)[n-]c2[O-])CC1 (3D coordinates assigned)
Cc1ccc(Cl)cc1N1CCN(C(=O)Cc2[n-]c(=O)[n-]c2[O-])CC1 (nonaromatic ring conformer: 76.34614758687268 kcal/mol)

> <smiles>
Cc1ccc(Cl)cc1N1CCN(C(=O)Cc2[nH]c(=O)[nH]c2O)CC1

> <score_type>
oracle

> <origin>
adg

> <m_score__min__energy>
-15.44

> <m_primary>
energy

> <minimizedAffinity>
-5.91963

> <minimizedRMSD>
1.90737

> <CNNscore>
0.4421545267

> <CNNaffinity>
5.7071967125

> <CNN_VS>
2.5234627724

> <CNNaffinity_variance>
0.0177230947

$$$$
72:0


 33 36  0  0  0  0  0  0  0  0999 V2000
   57.2608   24.2023   44.9405 C   0  0  0  0  0  0  0  0  0  0  0  0
   57.9233   25.3063   45.3435 C   0  0  0  0  0  0  0  0  0  0  0  0
   58.3175   25.5970   46.6390 C   0  0  0  0  0  0  0  0  0  0  0  0
   58.9129   26.8439   46.6086 C   0  0  0  0  0  0  0  0  0  0  0  0
   58.9220   27.3312   45.3412 N   0  0  0  0  0  0  0  0  0  0  0  0
   58.2920   26.4074   44.5642 C   0  0  0  0  0  0  0  0  0  0  0  0
   58.0498   26.5590   43.2513 C   0  0  0  0  0  0  0  0  0  0  0  0
   55.0803   26.1857   45.8929 O   0  0  0  0  0  0  0  0  0  0  0  0
   54.8923   24.8238   45.6866 C   0  0  0  0  0  0  0  0  0  0  0  0
   53.7383   24.1835   45.9422 N   0  0  0  0  0  0  0  0  0  0  0  0
   54.0455   22.8986   45.6643 C   0  0  0  0  0  0  0  0  0  0  0  0
   53.2142   21.9607   45.7865 O   0  0  0  0  0  0  0  0  0  0  0  0
   55.3167   22.6939   45.2557 N   0  0  0  0  0  0  0  0  0  0  0  0
   55.8444   23.9310   45.2478 C   0  0  0  0  0  0  0  0  0  0  0  0
   54.3694   26.7164   46.1947 H   0  0  0  0  0  0  0  0  0  0  0  0
   59.4135   27.5335   47.8180 C   0  0  0  0  0  0  0  0  0  0  0  0
   60.4025   27.0588   48.4395 O   0  0  0  0  0  0  0  0  0  0  0  0
   58.7551   28.7004   48.3147 N   0  0  0  0  0  0  0  0  0  0  0  0
   59.3056   29.5447   49.3661 C   0  0  0  0  0  0  0  0  0  0  0  0
   59.9963   30.7199   48.7368 C   0  0  0  0  0  0  0  0  0  0  0  0
   59.4197   31.9988   48.8049 C   0  0  0  0  0  0  0  0  0  0  0  0
   60.0874   33.1024   48.2642 C   0  0  0  0  0  0  0  0  0  0  0  0
   61.3375   32.9378   47.6612 C   0  0  0  0  0  0  0  0  0  0  0  0
   61.9867   34.0101   47.1432 F   0  0  0  0  0  0  0  0  0  0  0  0
   61.9253   31.6702   47.6057 C   0  0  0  0  0  0  0  0  0  0  0  0
   61.2616   30.5654   48.1482 C   0  0  0  0  0  0  0  0  0  0  0  0
   59.5617   28.5798   44.8899 C   0  0  0  0  0  0  0  0  0  0  0  0
   58.6022   29.7481   44.8544 C   0  0  0  0  0  0  0  0  0  0  0  0
   59.0450   31.0007   45.3135 C   0  0  0  0  0  0  0  0  0  0  0  0
   58.1984   32.1118   45.2718 C   0  0  0  0  0  0  0  0  0  0  0  0
   56.9022   31.9867   44.7691 C   0  0  0  0  0  0  0  0  0  0  0  0
   56.4569   30.7527   44.2906 C   0  0  0  0  0  0  0  0  0  0  0  0
   57.3037   29.6393   44.3213 C   0  0  0  0  0  0  0  0  0  0  0  0
  8  9  1  0
  9 10  1  0
 10 11  1  0
 11 12  2  0
 11 13  1  0
 13 14  1  0
 14  1  1  0
  1  2  2  0
  2  3  1  0
  3  4  2  0
  4 16  1  0
 16 17  2  0
 16 18  1  0
 18 19  1  0
 19 20  1  0
 20 21  2  0
 21 22  1  0
 22 23  2  0
 23 24  1  0
 23 25  1  0
 25 26  2  0
  4  5  1  0
  5 27  1  0
 27 28  1  0
 28 29  2  0
 29 30  1  0
 30 31  2  0
 31 32  1  0
 32 33  2  0
  5  6  1  0
  6  7  2  0
 14  9  2  0
  6  2  1  0
 26 20  1  0
 33 28  1  0
  8 15  1  0
M  CHG 1  10  -1
M  CHG 1  13  -1
M  CHG 1  18  -1
M  END
> <UniqueID>
70

> <SMILES>
C=c1/c(=C/c2[n-]c(=O)[n-]c2O)cc(C(=O)[N-]Cc2ccc(F)cc2)n1Cc1ccccc1

> <Energy>
115.69003658238869

> <Genealogy>
C=c1c(=Cc2[n-]c(=O)[n-]c2O)cc(C(=O)[N-]Cc2ccc(F)cc2)n1Cc1ccccc1 (protonated)
C=c1/c(=C/c2[n-]c(=O)[n-]c2O)cc(C(=O)[N-]Cc2ccc(F)cc2)n1Cc1ccccc1 (cis-trans isomerization)
C=c1/c(=C/c2[n-]c(=O)[n-]c2O)cc(C(=O)[N-]Cc2ccc(F)cc2)n1Cc1ccccc1 (3D coordinates assigned)
C=c1/c(=C/c2[n-]c(=O)[n-]c2O)cc(C(=O)[N-]Cc2ccc(F)cc2)n1Cc1ccccc1 (optimized conformer: 115.69003658238869 kcal/mol)

> <smiles>
C=c1c(=Cc2[nH]c(=O)[nH]c2O)cc(C(=O)NCc2ccc(F)cc2)n1Cc1ccccc1

> <score_type>
oracle

> <origin>
adg

> <m_score__min__energy>
-14.789999999999999

> <m_primary>
energy

> <minimizedAffinity>
-8.13408

> <minimizedRMSD>
0.49720

> <CNNscore>
0.3464747965

> <CNNaffinity>
6.7259826660

> <CNN_VS>
2.3303835392

> <CNNaffinity_variance>
0.0180585738

$$$$
1:0


 36 40  0  0  0  0  0  0  0  0999 V2000
   57.4050   24.2039   44.7559 C   0  0  0  0  0  0  0  0  0  0  0  0
   57.9491   25.3691   45.1599 C   0  0  0  0  0  0  0  0  0  0  0  0
   58.0699   26.5263   44.4006 C   0  0  0  0  0  0  0  0  0  0  0  0
   58.7110   27.4555   45.1963 C   0  0  0  0  0  0  0  0  0  0  0  0
   59.0301   28.8571   44.7786 C   0  0  0  0  0  0  0  0  0  0  0  0
   58.9794   26.9289   46.4121 N   0  0  0  0  0  0  0  0  0  0  0  0
   58.5238   25.6507   46.4025 C   0  0  0  0  0  0  0  0  0  0  0  0
   58.5871   24.8212   47.4563 C   0  0  0  0  0  0  0  0  0  0  0  0
   56.6970   21.4456   44.6475 O   0  0  0  0  0  0  0  0  0  0  0  0
   55.7716   22.3577   45.1497 C   0  0  0  0  0  0  0  0  0  0  0  0
   54.5647   21.9144   45.5916 N   0  0  0  0  0  0  0  0  0  0  0  0
   53.6428   22.7736   46.0923 C   0  0  0  0  0  0  0  0  0  0  0  0
   52.5302   22.3397   46.4913 O   0  0  0  0  0  0  0  0  0  0  0  0
   53.9209   24.0991   46.1725 N   0  0  0  0  0  0  0  0  0  0  0  0
   55.1122   24.5928   45.7471 C   0  0  0  0  0  0  0  0  0  0  0  0
   55.3491   25.8236   45.8729 O   0  0  0  0  0  0  0  0  0  0  0  0
   56.0746   23.7249   45.1962 C   0  0  0  0  0  0  0  0  0  0  0  0
   56.4873   20.5328   44.6196 H   0  0  0  0  0  0  0  0  0  0  0  0
   59.6200   27.6148   47.5014 C   0  0  0  0  0  0  0  0  0  0  0  0
   60.1625   26.8912   48.5698 C   0  0  0  0  0  0  0  0  0  0  0  0
   60.7795   27.5608   49.6277 C   0  0  0  0  0  0  0  0  0  0  0  0
   60.8620   28.9553   49.6250 C   0  0  0  0  0  0  0  0  0  0  0  0
   60.3326   29.6968   48.5541 C   0  0  0  0  0  0  0  0  0  0  0  0
   59.7095   29.0141   47.4945 C   0  0  0  0  0  0  0  0  0  0  0  0
   60.4127   31.1373   48.5547 N   0  0  0  0  0  0  0  0  0  0  0  0
   60.8410   31.8418   47.3362 C   0  0  0  0  0  0  0  0  0  0  0  0
   61.2771   33.2723   47.6581 C   0  0  0  0  0  0  0  0  0  0  0  0
   60.1409   34.0725   48.3628 C   0  0  0  0  0  0  0  0  0  0  0  0
   59.5026   33.2178   49.5096 C   0  0  0  0  0  0  0  0  0  0  0  0
   60.2228   31.8952   49.8006 C   0  0  0  0  0  0  0  0  0  0  0  0
   59.0776   34.5426   47.4235 N   0  0  0  0  0  0  0  0  0  0  0  0
   59.6472   35.1578   46.1910 C   0  0  0  0  0  0  0  0  0  0  0  0
   59.4960   34.2512   44.9571 C   0  0  0  0  0  0  0  0  0  0  0  0
   58.1460   33.9352   44.6546 O   0  0  0  0  0  0  0  0  0  0  0  0
   57.3148   33.8413   45.8014 C   0  0  0  0  0  0  0  0  0  0  0  0
   58.0711   33.5027   47.0965 C   0  0  0  0  0  0  0  0  0  0  0  0
  9 10  1  0
 10 11  1  0
 11 12  1  0
 12 13  2  0
 12 14  1  0
 14 15  1  0
 15 16  2  0
 15 17  1  0
 17  1  1  0
  1  2  2  0
  2  3  1  0
  3  4  2  0
  4  5  1  0
  4  6  1  0
  6 19  1  0
 19 20  2  0
 20 21  1  0
 21 22  2  0
 22 23  1  0
 23 25  1  0
 25 26  1  0
 26 27  1  0
 27 28  1  0
 28 31  1  0
 31 32  1  0
 32 33  1  0
 33 34  1  0
 34 35  1  0
 35 36  1  0
 28 29  1  0
 29 30  1  0
 23 24  2  0
  6  7  1  0
  7  8  2  0
 17 10  2  0
  7  2  1  0
 24 19  1  0
 30 25  1  0
 36 31  1  0
  9 18  1  0
M  CHG 1  11  -1
M  CHG 1  14  -1
M  END
> <UniqueID>
2

> <SMILES>
C=c1/c(=C/c2c(O)[n-]c(=O)[n-]c2=O)cc(C)n1-c1cccc(N2CCC(N3CCOCC3)CC2)c1

> <Energy>
138.6350173387464

> <Genealogy>
C=c1c(=Cc2c(O)[n-]c(=O)[n-]c2=O)cc(C)n1-c1cccc(N2CCC(N3CCOCC3)CC2)c1 (protonated)
C=c1/c(=C/c2c(O)[n-]c(=O)[n-]c2=O)cc(C)n1-c1cccc(N2CCC(N3CCOCC3)CC2)c1 (cis-trans isomerization)
C=c1/c(=C/c2c(O)[n-]c(=O)[n-]c2=O)cc(C)n1-c1cccc(N2CCC(N3CCOCC3)CC2)c1 (3D coordinates assigned)
C=c1/c(=C/c2c(O)[n-]c(=O)[n-]c2=O)cc(C)n1-c1cccc(N2CCC(N3CCOCC3)CC2)c1 (nonaromatic ring conformer: 138.6350173387464 kcal/mol)

> <smiles>
C=c1c(=Cc2c(O)[nH]c(=O)[nH]c2=O)cc(C)n1-c1cccc(N2CCC(N3CCOCC3)CC2)c1

> <score_type>
oracle

> <origin>
adg

> <m_score__min__energy>
-15

> <m_primary>
energy

> <minimizedAffinity>
-8.64089

> <minimizedRMSD>
0.62818

> <CNNscore>
0.0547995679

> <CNNaffinity>
5.7597174644

> <CNN_VS>
0.3156300187

> <CNNaffinity_variance>
0.8516054153

$$$$
2:0


 29 31  0  0  0  0  0  0  0  0999 V2000
   57.6076   32.4744   44.6686 C   0  0  0  0  0  0  0  0  0  0  0  0
   58.0481   32.6914   43.5081 O   0  0  0  0  0  0  0  0  0  0  0  0
   57.1450   31.1712   45.0369 N   0  0  0  0  0  0  0  0  0  0  0  0
   58.0493   30.0800   45.3710 C   0  0  0  0  0  0  0  0  0  0  0  0
   57.2865   28.7888   45.4063 C   0  0  0  0  0  0  0  0  0  0  0  0
   56.3773   28.6097   44.5528 O   0  0  0  0  0  0  0  0  0  0  0  0
   57.7009   24.0007   45.8990 C   0  0  0  0  0  0  0  0  0  0  0  0
   58.7131   25.3415   45.8664 S   0  0  0  0  0  0  0  0  0  0  0  0
   57.4661   26.4348   46.1730 C   0  0  0  0  0  0  0  0  0  0  0  0
   57.5675   27.7253   46.3333 N   0  0  0  0  0  0  0  0  0  0  0  0
   56.2845   25.7993   46.3109 N   0  0  0  0  0  0  0  0  0  0  0  0
   56.4090   24.4515   46.1612 C   0  0  0  0  0  0  0  0  0  0  0  0
   55.2225   23.5387   46.2382 C   0  0  0  0  0  0  0  0  0  0  0  0
   54.4801   23.5482   44.9387 C   0  0  0  0  0  0  0  0  0  0  0  0
   53.2303   23.6974   44.9255 O   0  0  0  0  0  0  0  0  0  0  0  0
   55.1660   23.3753   43.7419 O   0  0  0  0  0  0  0  0  0  0  0  0
   57.6061   33.5755   45.6824 C   0  0  0  0  0  0  0  0  0  0  0  0
   58.8098   33.4522   46.5773 C   0  0  0  0  0  0  0  0  0  0  0  0
   60.0474   33.9761   46.1754 C   0  0  0  0  0  0  0  0  0  0  0  0
   61.1546   33.9088   47.0296 C   0  0  0  0  0  0  0  0  0  0  0  0
   61.0472   33.3119   48.2990 C   0  0  0  0  0  0  0  0  0  0  0  0
   59.8058   32.7729   48.6899 C   0  0  0  0  0  0  0  0  0  0  0  0
   58.6950   32.8581   47.8434 C   0  0  0  0  0  0  0  0  0  0  0  0
   62.2057   33.2173   49.1594 N   0  0  0  0  0  0  0  0  0  0  0  0
   63.4394   32.5807   48.8618 C   0  0  0  0  0  0  0  0  0  0  0  0
   63.6259   31.8615   47.8440 O   0  0  0  0  0  0  0  0  0  0  0  0
   64.4635   32.7813   49.9049 C   0  0  0  0  0  0  0  0  0  0  0  0
   63.7619   33.6945   50.9173 C   0  0  0  0  0  0  0  0  0  0  0  0
   62.2873   33.7911   50.4937 C   0  0  0  0  0  0  0  0  0  0  0  0
  7  8  1  0
  8  9  1  0
  9 10  2  0
 10  5  1  0
  5  6  2  0
  5  4  1  0
  4  3  1  0
  3  1  1  0
  1  2  2  0
  1 17  1  0
 17 18  1  0
 18 19  2  0
 19 20  1  0
 20 21  2  0
 21 24  1  0
 24 25  1  0
 25 26  2  0
 25 27  1  0
 27 28  1  0
 28 29  1  0
 21 22  1  0
 22 23  2  0
  9 11  1  0
 11 12  1  0
 12 13  1  0
 13 14  1  0
 14 15  2  0
 14 16  1  0
 12  7  2  0
 23 18  1  0
 29 24  1  0
M  CHG 1   3  -1
M  CHG 1  11  -1
M  CHG 1  16  -1
M  END
> <UniqueID>
3

> <SMILES>
O=C([O-])Cc1cs/c(=N\C(=O)C[N-]C(=O)Cc2ccc(N3CCCC3=O)cc2)[n-]1

> <Energy>
85.32247451282163

> <Genealogy>
O=C([O-])Cc1csc(=NC(=O)C[N-]C(=O)Cc2ccc(N3CCCC3=O)cc2)[n-]1 (protonated)
O=C([O-])Cc1cs/c(=N\C(=O)C[N-]C(=O)Cc2ccc(N3CCCC3=O)cc2)[n-]1 (cis-trans isomerization)
O=C([O-])Cc1cs/c(=N\C(=O)C[N-]C(=O)Cc2ccc(N3CCCC3=O)cc2)[n-]1 (3D coordinates assigned)
O=C([O-])Cc1cs/c(=N\C(=O)C[N-]C(=O)Cc2ccc(N3CCCC3=O)cc2)[n-]1 (nonaromatic ring conformer: 85.32247451282163 kcal/mol)

> <smiles>
O=C(O)Cc1csc(=NC(=O)CNC(=O)Cc2ccc(N3CCCC3=O)cc2)[nH]1

> <score_type>
oracle

> <origin>
adg

> <m_score__min__energy>
-15.01

> <m_primary>
energy

> <minimizedAffinity>
-7.28701

> <minimizedRMSD>
0.92337

> <CNNscore>
0.4387308061

> <CNNaffinity>
6.7527680397

> <CNN_VS>
2.9626474380

> <CNNaffinity_variance>
0.1114634573

$$$$
5:0


 25 27  0  0  0  0  0  0  0  0999 V2000
   57.3216   28.4329   54.8479 C   0  0  0  0  0  0  0  0  0  0  0  0
   56.5927   29.1834   54.0192 C   0  0  0  0  0  0  0  0  0  0  0  0
   57.0072   29.7012   52.7989 C   0  0  0  0  0  0  0  0  0  0  0  0
   55.9104   30.3644   52.2706 C   0  0  0  0  0  0  0  0  0  0  0  0
   54.8917   30.2476   53.2022 C   0  0  0  0  0  0  0  0  0  0  0  0
   53.6633   30.7649   53.0287 C   0  0  0  0  0  0  0  0  0  0  0  0
   55.3121   29.5249   54.2648 N   0  0  0  0  0  0  0  0  0  0  0  0
   54.7850   29.2929   55.0633 H   0  0  0  0  0  0  0  0  0  0  0  0
   52.8671   30.7059   51.7839 C   0  0  0  0  0  0  0  0  0  0  0  0
   53.0166   29.8064   50.7941 N   0  0  0  0  0  0  0  0  0  0  0  0
   52.0337   30.1282   49.9245 C   0  0  0  0  0  0  0  0  0  0  0  0
   51.8512   29.5025   48.8481 O   0  0  0  0  0  0  0  0  0  0  0  0
   51.2616   31.1673   50.3036 N   0  0  0  0  0  0  0  0  0  0  0  0
   51.7993   31.5174   51.4826 C   0  0  0  0  0  0  0  0  0  0  0  0
   51.3202   32.5585   52.2694 O   0  0  0  0  0  0  0  0  0  0  0  0
   58.3479   29.4951   52.1360 C   0  0  0  0  0  0  0  0  0  0  0  0
   58.7916   30.7114   51.3359 C   0  0  0  0  0  0  0  0  0  0  0  0
   59.1086   30.5843   49.9559 C   0  0  0  0  0  0  0  0  0  0  0  0
   59.0010   29.2635   49.2352 C   0  0  0  0  0  0  0  0  0  0  0  0
   59.5093   31.7142   49.2273 C   0  0  0  0  0  0  0  0  0  0  0  0
   59.6184   32.9638   49.8423 C   0  0  0  0  0  0  0  0  0  0  0  0
   60.0871   34.1553   49.0567 C   0  0  0  0  0  0  0  0  0  0  0  0
   59.3625   33.0835   51.2100 C   0  0  0  0  0  0  0  0  0  0  0  0
   58.9593   31.9735   51.9685 C   0  0  0  0  0  0  0  0  0  0  0  0
   58.6978   32.1663   53.4416 C   0  0  0  0  0  0  0  0  0  0  0  0
  1  2  2  0
  2  3  1  0
  3 16  1  0
 16 17  1  0
 17 18  2  0
 18 19  1  0
 18 20  1  0
 20 21  2  0
 21 22  1  0
 21 23  1  0
 23 24  2  0
 24 25  1  0
  3  4  2  0
  4  5  1  0
  5  6  2  0
  6  9  1  0
  9 10  1  0
 10 11  1  0
 11 12  2  0
 11 13  1  0
 13 14  1  0
 14 15  1  0
  5  7  1  0
  7  2  1  0
 24 17  1  0
 14  9  2  0
  7  8  1  0
M  CHG 1  10  -1
M  CHG 1  13  -1
M  CHG 1  15  -1
M  END
> <UniqueID>
6

> <SMILES>
C=c1[nH]/c(=C\c2[n-]c(=O)[n-]c2[O-])cc1Cc1c(C)cc(C)cc1C

> <Energy>
103.99845789604299

> <Genealogy>
C=c1[nH]c(=Cc2[n-]c(=O)[n-]c2[O-])cc1Cc1c(C)cc(C)cc1C (protonated)
C=c1[nH]/c(=C\c2[n-]c(=O)[n-]c2[O-])cc1Cc1c(C)cc(C)cc1C (cis-trans isomerization)
C=c1[nH]/c(=C\c2[n-]c(=O)[n-]c2[O-])cc1Cc1c(C)cc(C)cc1C (3D coordinates assigned)
C=c1[nH]/c(=C\c2[n-]c(=O)[n-]c2[O-])cc1Cc1c(C)cc(C)cc1C (optimized conformer: 103.99845789604299 kcal/mol)

> <smiles>
C=c1[nH]c(=Cc2[nH]c(=O)[nH]c2O)cc1Cc1c(C)cc(C)cc1C

> <score_type>
oracle

> <origin>
adg

> <m_score__min__energy>
-16.629999999999999

> <m_primary>
energy

> <minimizedAffinity>
-5.02395

> <minimizedRMSD>
0.88844

> <CNNscore>
0.3175436556

> <CNNaffinity>
5.1895956993

> <CNN_VS>
1.6479232311

> <CNNaffinity_variance>
0.1889799386

$$$$
12:0


 31 34  0  0  0  0  0  0  0  0999 V2000
   60.3561   28.5728   45.0149 C   0  0  0  0  0  0  0  0  0  0  0  0
   59.0177   28.5067   45.1034 C   0  0  0  0  0  0  0  0  0  0  0  0
   58.2711   27.4205   45.5815 C   0  0  0  0  0  0  0  0  0  0  0  0
   58.7434   26.2599   46.0789 C   0  0  0  0  0  0  0  0  0  0  0  0
   56.9347   27.7889   45.4867 C   0  0  0  0  0  0  0  0  0  0  0  0
   56.9242   29.0569   44.9521 C   0  0  0  0  0  0  0  0  0  0  0  0
   55.7721   29.7902   44.6843 O   0  0  0  0  0  0  0  0  0  0  0  0
   58.1767   29.5026   44.7195 N   0  0  0  0  0  0  0  0  0  0  0  0
   57.8883   25.1019   46.3939 C   0  0  0  0  0  0  0  0  0  0  0  0
   56.7833   25.1909   47.1535 N   0  0  0  0  0  0  0  0  0  0  0  0
   56.3435   23.9159   47.2189 C   0  0  0  0  0  0  0  0  0  0  0  0
   55.3021   23.5896   47.8441 O   0  0  0  0  0  0  0  0  0  0  0  0
   57.1126   23.0186   46.5673 N   0  0  0  0  0  0  0  0  0  0  0  0
   58.0963   23.7778   46.0612 C   0  0  0  0  0  0  0  0  0  0  0  0
   59.1754   23.2562   45.3517 O   0  0  0  0  0  0  0  0  0  0  0  0
   59.2212   22.3366   45.1778 H   0  0  0  0  0  0  0  0  0  0  0  0
   58.5189   30.7870   44.0937 C   0  0  0  0  0  0  0  0  0  0  0  0
   58.5661   31.8807   45.1297 C   0  0  0  0  0  0  0  0  0  0  0  0
   57.9992   33.1386   44.8692 C   0  0  0  0  0  0  0  0  0  0  0  0
   58.0255   34.1373   45.8452 C   0  0  0  0  0  0  0  0  0  0  0  0
   58.6233   33.8935   47.0843 C   0  0  0  0  0  0  0  0  0  0  0  0
   59.2146   32.6493   47.3543 C   0  0  0  0  0  0  0  0  0  0  0  0
   59.1725   31.6426   46.3746 C   0  0  0  0  0  0  0  0  0  0  0  0
   59.8401   32.3758   48.6687 C   0  0  0  0  0  0  0  0  0  0  0  0
   59.2459   31.6139   49.4812 O   0  0  0  0  0  0  0  0  0  0  0  0
   61.1123   32.9453   49.0378 N   0  0  0  0  0  0  0  0  0  0  0  0
   62.1716   33.1652   48.0503 C   0  0  0  0  0  0  0  0  0  0  0  0
   63.5155   32.7264   48.6398 C   0  0  0  0  0  0  0  0  0  0  0  0
   63.7448   33.3504   49.8894 O   0  0  0  0  0  0  0  0  0  0  0  0
   62.7808   32.9131   50.8312 C   0  0  0  0  0  0  0  0  0  0  0  0
   61.3728   33.3614   50.4201 C   0  0  0  0  0  0  0  0  0  0  0  0
  1  2  2  0
  2  3  1  0
  3  4  2  0
  4  9  1  0
  9 10  1  0
 10 11  1  0
 11 12  2  0
 11 13  1  0
 13 14  1  0
 14 15  1  0
  3  5  1  0
  5  6  2  0
  6  7  1  0
  6  8  1  0
  8 17  1  0
 17 18  1  0
 18 19  2  0
 19 20  1  0
 20 21  2  0
 21 22  1  0
 22 24  1  0
 24 25  2  0
 24 26  1  0
 26 27  1  0
 27 28  1  0
 28 29  1  0
 29 30  1  0
 30 31  1  0
 22 23  2  0
  8  2  1  0
 23 18  1  0
 14  9  2  0
 31 26  1  0
 15 16  1  0
M  CHG 1   7  -1
M  CHG 1  10  -1
M  CHG 1  13  -1
M  END
> <UniqueID>
13

> <SMILES>
C=c1c(=Cc2[n-]c(=O)[n-]c2O)cc([O-])n1Cc1cccc(C(=O)N2CCOCC2)c1

> <Energy>
124.06600705387714

> <Genealogy>
C=c1c(=Cc2[n-]c(=O)[n-]c2O)cc([O-])n1Cc1cccc(C(=O)N2CCOCC2)c1 (protonated)
C=c1c(=Cc2[n-]c(=O)[n-]c2O)cc([O-])n1Cc1cccc(C(=O)N2CCOCC2)c1 (3D coordinates assigned)
C=c1c(=Cc2[n-]c(=O)[n-]c2O)cc([O-])n1Cc1cccc(C(=O)N2CCOCC2)c1 (nonaromatic ring conformer: 124.06600705387714 kcal/mol)

> <smiles>
C=c1c(=Cc2[nH]c(=O)[nH]c2O)cc(O)n1Cc1cccc(C(=O)N2CCOCC2)c1

> <score_type>
oracle

> <origin>
adg

> <m_score__min__energy>
-15.199999999999999

> <m_primary>
energy

> <minimizedAffinity>
-8.68247

> <minimizedRMSD>
0.92365

> <CNNscore>
0.2466637492

> <CNNaffinity>
6.5247607231

> <CNN_VS>
1.6094219685

> <CNNaffinity_variance>
0.1063839570

$$$$
13:0


 35 38  0  0  0  0  0  0  0  0999 V2000
   59.9737   30.9846   49.8653 C   0  0  0  0  0  0  0  0  0  0  0  0
   61.0448   30.2444   50.3815 C   0  0  0  0  0  0  0  0  0  0  0  0
   61.1350   28.8722   50.1279 C   0  0  0  0  0  0  0  0  0  0  0  0
   60.1584   28.2268   49.3476 C   0  0  0  0  0  0  0  0  0  0  0  0
   59.0860   28.9752   48.8321 C   0  0  0  0  0  0  0  0  0  0  0  0
   58.9969   30.3482   49.0858 C   0  0  0  0  0  0  0  0  0  0  0  0
   63.4785   34.0102   46.3725 C   0  0  0  0  0  0  0  0  0  0  0  0
   62.4306   33.9019   47.3941 N   0  0  0  0  0  0  0  0  0  0  0  0
   62.8405   33.6200   48.7816 C   0  0  0  0  0  0  0  0  0  0  0  0
   61.7569   34.0486   49.7731 C   0  0  0  0  0  0  0  0  0  0  0  0
   60.4811   33.4379   49.3813 N   0  0  0  0  0  0  0  0  0  0  0  0
   59.8461   32.4134   50.1875 C   0  0  0  0  0  0  0  0  0  0  0  0
   59.1397   32.7327   51.1880 O   0  0  0  0  0  0  0  0  0  0  0  0
   60.0458   33.7047   48.0344 C   0  0  0  0  0  0  0  0  0  0  0  0
   58.6795   33.7962   47.7131 C   0  0  0  0  0  0  0  0  0  0  0  0
   58.2792   34.0548   46.4020 C   0  0  0  0  0  0  0  0  0  0  0  0
   59.2365   34.2463   45.4049 C   0  0  0  0  0  0  0  0  0  0  0  0
   60.5987   34.1907   45.7153 C   0  0  0  0  0  0  0  0  0  0  0  0
   61.0230   33.9258   47.0335 C   0  0  0  0  0  0  0  0  0  0  0  0
   60.2330   26.7380   49.1204 C   0  0  0  0  0  0  0  0  0  0  0  0
   60.8593   26.4118   47.8401 N   0  0  0  0  0  0  0  0  0  0  0  0
   60.1932   26.3346   46.5719 C   0  0  0  0  0  0  0  0  0  0  0  0
   60.1902   25.2374   45.9531 O   0  0  0  0  0  0  0  0  0  0  0  0
   59.4830   27.4900   45.9879 C   0  0  0  0  0  0  0  0  0  0  0  0
   60.2209   28.6499   45.7044 C   0  0  0  0  0  0  0  0  0  0  0  0
   59.5958   29.7744   45.1672 C   0  0  0  0  0  0  0  0  0  0  0  0
   58.2282   29.7513   44.8968 C   0  0  0  0  0  0  0  0  0  0  0  0
   57.4751   28.6037   45.1600 C   0  0  0  0  0  0  0  0  0  0  0  0
   56.1151   28.6220   44.8775 O   0  0  0  0  0  0  0  0  0  0  0  0
   58.0882   27.4567   45.7110 C   0  0  0  0  0  0  0  0  0  0  0  0
   57.1075   26.0002   46.0129 S   0  0  0  0  0  0  0  0  0  0  0  0
   55.4333   26.4334   46.0288 N   0  0  0  0  0  0  0  0  0  0  0  0
   57.3479   24.9624   44.9540 O   0  0  0  0  0  0  0  0  0  0  0  0
   57.4656   25.3941   47.3380 O   0  0  0  0  0  0  0  0  0  0  0  0
   55.1805   26.8466   45.1312 H   0  0  0  0  0  0  0  0  0  0  0  0
  7  8  1  0
  8  9  1  0
  9 10  1  0
 10 11  1  0
 11 12  1  0
 12 13  2  0
 12  1  1  0
  1  2  2  0
  2  3  1  0
  3  4  2  0
  4 20  1  0
 20 21  1  0
 21 22  1  0
 22 23  2  0
 22 24  1  0
 24 25  2  0
 25 26  1  0
 26 27  2  0
 27 28  1  0
 28 29  1  0
 28 30  2  0
 30 31  1  0
 31 32  1  0
 31 33  2  0
 31 34  2  0
  4  5  1  0
  5  6  2  0
 11 14  1  0
 14 15  2  0
 15 16  1  0
 16 17  2  0
 17 18  1  0
 18 19  2  0
 19  8  1  0
  6  1  1  0
 19 14  1  0
 30 24  1  0
 32 35  1  0
M  CHG 1  21  -1
M  CHG 1  29  -1
M  CHG 1  32  -1
M  END
> <UniqueID>
14

> <SMILES>
CN1CCN(C(=O)c2ccc(C[N-]C(=O)c3cccc([O-])c3S([NH-])(=O)=O)cc2)c2ccccc21

> <Energy>
77.91250286185908

> <Genealogy>
CN1CCN(C(=O)c2ccc(C[N-]C(=O)c3cccc([O-])c3S([NH-])(=O)=O)cc2)c2ccccc21 (protonated)
CN1CCN(C(=O)c2ccc(C[N-]C(=O)c3cccc([O-])c3S([NH-])(=O)=O)cc2)c2ccccc21 (3D coordinates assigned)
CN1CCN(C(=O)c2ccc(C[N-]C(=O)c3cccc([O-])c3S([NH-])(=O)=O)cc2)c2ccccc21 (nonaromatic ring conformer: 77.91250286185908 kcal/mol)

> <smiles>
CN1CCN(C(=O)c2ccc(CNC(=O)c3cccc(O)c3S(N)(=O)=O)cc2)c2ccccc21

> <score_type>
oracle

> <origin>
adg

> <m_score__min__energy>
-17.260000000000002

> <m_primary>
energy

> <minimizedAffinity>
-6.31517

> <minimizedRMSD>
0.48330

> <CNNscore>
0.5145959854

> <CNNaffinity>
6.7473578453

> <CNN_VS>
3.4721632004

> <CNNaffinity_variance>
0.1218880937

$$$$
18:0


 34 37  0  0  0  0  0  0  0  0999 V2000
   59.0239   32.0880   52.0345 C   0  0  0  0  0  0  0  0  0  0  0  0
   59.4384   32.7415   50.7738 N   0  0  0  0  0  0  0  0  0  0  0  0
   58.7587   32.1217   49.6205 C   0  0  0  0  0  0  0  0  0  0  0  0
   59.1471   32.8278   48.3150 C   0  0  0  0  0  0  0  0  0  0  0  0
   60.6070   32.9470   48.1385 N   0  0  0  0  0  0  0  0  0  0  0  0
   61.3491   33.3697   49.3421 C   0  0  0  0  0  0  0  0  0  0  0  0
   60.8960   32.6219   50.6026 C   0  0  0  0  0  0  0  0  0  0  0  0
   61.2575   31.9263   47.2878 C   0  0  0  0  0  0  0  0  0  0  0  0
   60.4830   30.6330   47.1825 C   0  0  0  0  0  0  0  0  0  0  0  0
   60.5930   29.6607   48.1899 C   0  0  0  0  0  0  0  0  0  0  0  0
   59.8651   28.4727   48.1047 C   0  0  0  0  0  0  0  0  0  0  0  0
   59.0274   28.2403   47.0124 C   0  0  0  0  0  0  0  0  0  0  0  0
   58.9257   29.1868   45.9810 C   0  0  0  0  0  0  0  0  0  0  0  0
   59.6676   30.3797   46.0672 C   0  0  0  0  0  0  0  0  0  0  0  0
   57.9867   28.9215   44.8312 C   0  0  0  0  0  0  0  0  0  0  0  0
   57.8906   30.0597   44.0521 F   0  0  0  0  0  0  0  0  0  0  0  0
   58.4291   27.8756   44.0391 F   0  0  0  0  0  0  0  0  0  0  0  0
   56.7328   28.6022   45.3198 F   0  0  0  0  0  0  0  0  0  0  0  0
   59.7466   29.8657   51.5606 O   0  0  0  0  0  0  0  0  0  0  0  0
   58.7726   30.6176   51.8255 C   0  0  0  0  0  0  0  0  0  0  0  0
   57.4442   30.0876   51.7259 N   0  0  0  0  0  0  0  0  0  0  0  0
   56.6379   29.8228   52.7100 C   0  0  0  0  0  0  0  0  0  0  0  0
   57.0806   29.3004   53.8744 N   0  0  0  0  0  0  0  0  0  0  0  0
   56.0799   29.1764   54.7879 C   0  0  0  0  0  0  0  0  0  0  0  0
   54.8319   29.6029   54.3470 C   0  0  0  0  0  0  0  0  0  0  0  0
   54.9879   30.1756   52.7733 S   0  0  0  0  0  0  0  0  0  0  0  0
   53.5910   29.6848   55.1761 C   0  0  0  0  0  0  0  0  0  0  0  0
   52.4071   29.2595   54.3663 C   0  0  0  0  0  0  0  0  0  0  0  0
   52.0758   27.6766   53.8902 S   0  0  0  0  0  0  0  0  0  0  0  0
   50.6152   28.1124   53.1788 C   0  0  0  0  0  0  0  0  0  0  0  0
   49.8403   27.3063   52.6014 O   0  0  0  0  0  0  0  0  0  0  0  0
   50.3493   29.4305   53.2977 N   0  0  0  0  0  0  0  0  0  0  0  0
   51.3459   30.0686   53.9649 C   0  0  0  0  0  0  0  0  0  0  0  0
   51.2904   31.4323   54.2285 O   0  0  0  0  0  0  0  0  0  0  0  0
 19 20  2  0
 20  1  1  0
  1  2  1  0
  2  3  1  0
  3  4  1  0
  4  5  1  0
  5  8  1  0
  8  9  1  0
  9 10  2  0
 10 11  1  0
 11 12  2  0
 12 13  1  0
 13 15  1  0
 15 16  1  0
 15 17  1  0
 15 18  1  0
 13 14  2  0
  5  6  1  0
  6  7  1  0
 20 21  1  0
 21 22  2  0
 22 23  1  0
 23 24  1  0
 24 25  2  0
 25 27  1  0
 27 28  1  0
 28 29  1  0
 29 30  1  0
 30 31  2  0
 30 32  1  0
 32 33  1  0
 33 34  1  0
 25 26  1  0
  7  2  1  0
 26 22  1  0
 14  9  1  0
 33 28  2  0
M  CHG 1  23  -1
M  CHG 1  32  -1
M  CHG 1  34  -1
M  END
> <UniqueID>
19

> <SMILES>
O=C(CN1CCN(Cc2cccc(C(F)(F)F)c2)CC1)N=c1[n-]cc(Cc2sc(=O)[n-]c2[O-])s1

> <Energy>
128.82155419022175

> <Genealogy>
O=C(CN1CCN(Cc2cccc(C(F)(F)F)c2)CC1)N=c1[n-]cc(Cc2sc(=O)[n-]c2[O-])s1 (protonated)
O=C(CN1CCN(Cc2cccc(C(F)(F)F)c2)CC1)N=c1[n-]cc(Cc2sc(=O)[n-]c2[O-])s1 (3D coordinates assigned)
O=C(CN1CCN(Cc2cccc(C(F)(F)F)c2)CC1)N=c1[n-]cc(Cc2sc(=O)[n-]c2[O-])s1 (nonaromatic ring conformer: 128.82155419022175 kcal/mol)

> <smiles>
O=C(CN1CCN(Cc2cccc(C(F)(F)F)c2)CC1)N=c1[nH]cc(Cc2sc(=O)[nH]c2O)s1

> <score_type>
oracle

> <origin>
adg

> <m_score__min__energy>
-17.940000000000001

> <m_primary>
energy

> <minimizedAffinity>
-7.15714

> <minimizedRMSD>
3.49716

> <CNNscore>
0.0279453434

> <CNNaffinity>
4.8392586708

> <CNN_VS>
0.1352347434

> <CNNaffinity_variance>
1.1564906836

$$$$
21:0


 32 35  0  0  0  0  0  0  0  0999 V2000
   58.1410   31.4606   52.4251 C   0  0  0  0  0  0  0  0  0  0  0  0
   55.0135   28.5384   54.7584 C   0  0  0  0  0  0  0  0  0  0  0  0
   55.4801   29.4746   53.9171 C   0  0  0  0  0  0  0  0  0  0  0  0
   54.7176   30.2749   53.0574 C   0  0  0  0  0  0  0  0  0  0  0  0
   53.3712   30.2897   52.9455 C   0  0  0  0  0  0  0  0  0  0  0  0
   55.6237   31.0846   52.3839 C   0  0  0  0  0  0  0  0  0  0  0  0
   56.8818   30.7480   52.8427 C   0  0  0  0  0  0  0  0  0  0  0  0
   56.7967   29.7812   53.7882 N   0  0  0  0  0  0  0  0  0  0  0  0
   57.9008   29.2061   54.5660 C   0  0  0  0  0  0  0  0  0  0  0  0
   52.6165   30.4444   51.6826 C   0  0  0  0  0  0  0  0  0  0  0  0
   52.6874   29.6297   50.6142 N   0  0  0  0  0  0  0  0  0  0  0  0
   51.8154   30.1783   49.7409 C   0  0  0  0  0  0  0  0  0  0  0  0
   51.6061   29.6951   48.5985 O   0  0  0  0  0  0  0  0  0  0  0  0
   51.1897   31.2892   50.1848 N   0  0  0  0  0  0  0  0  0  0  0  0
   51.7053   31.4403   51.4161 C   0  0  0  0  0  0  0  0  0  0  0  0
   51.3556   32.4760   52.2765 O   0  0  0  0  0  0  0  0  0  0  0  0
   58.8222   30.7669   51.2682 C   0  0  0  0  0  0  0  0  0  0  0  0
   58.3952   29.6892   50.8698 O   0  0  0  0  0  0  0  0  0  0  0  0
   59.9607   31.3916   50.6136 N   0  0  0  0  0  0  0  0  0  0  0  0
   59.6124   32.7022   49.9954 C   0  0  0  0  0  0  0  0  0  0  0  0
   59.6567   32.7108   48.4529 C   0  0  0  0  0  0  0  0  0  0  0  0
   59.0291   31.4308   47.8467 C   0  0  0  0  0  0  0  0  0  0  0  0
   59.7425   30.1735   48.4279 C   0  0  0  0  0  0  0  0  0  0  0  0
   60.6015   30.4493   49.6750 C   0  0  0  0  0  0  0  0  0  0  0  0
   59.5297   31.9795   51.2754 H   0  0  0  0  0  0  0  0  0  0  0  0
   59.0961   31.4056   46.3533 N   0  0  0  0  0  0  0  0  0  0  0  0
   59.2857   30.0240   45.8197 C   0  0  0  0  0  0  0  0  0  0  0  0
   58.0533   29.4920   45.0747 C   0  0  0  0  0  0  0  0  0  0  0  0
   57.7181   30.3554   43.9234 N   0  0  0  0  0  0  0  0  0  0  0  0
   56.3546   30.0679   43.4538 C   0  0  0  0  0  0  0  0  0  0  0  0
   57.9079   31.8024   44.1946 C   0  0  0  0  0  0  0  0  0  0  0  0
   57.9724   32.1203   45.6963 C   0  0  0  0  0  0  0  0  0  0  0  0
  2  3  2  0
  3  4  1  0
  4  5  2  0
  5 10  1  0
 10 11  1  0
 11 12  1  0
 12 13  2  0
 12 14  1  0
 14 15  1  0
 15 16  1  0
  4  6  1  0
  6  7  2  0
  7  1  1  0
  1 17  1  0
 17 18  2  0
 19 17  1  0
 19 20  1  0
 20 21  1  0
 21 22  1  0
 22 26  1  0
 26 27  1  0
 27 28  1  0
 28 29  1  0
 29 30  1  0
 29 31  1  0
 31 32  1  0
 22 23  1  0
 23 24  1  0
  7  8  1  0
  8  9  1  0
  8  3  1  0
 15 10  2  0
 24 19  1  0
 32 26  1  0
 19 25  1  0
M  CHG 1  11  -1
M  CHG 1  14  -1
M  CHG 1  16  -1
M  CHG 1  19   1
M  END
> <UniqueID>
22

> <SMILES>
C=c1c(=Cc2[n-]c(=O)[n-]c2[O-])cc(CC(=O)[NH+]2CCC(N3CCN(C)CC3)CC2)n1C

> <Energy>
153.02447355084175

> <Genealogy>
C=c1c(=Cc2[n-]c(=O)[n-]c2[O-])cc(CC(=O)[NH+]2CCC(N3CCN(C)CC3)CC2)n1C (protonated)
C=c1c(=Cc2[n-]c(=O)[n-]c2[O-])cc(CC(=O)[NH+]2CCC(N3CCN(C)CC3)CC2)n1C (3D coordinates assigned)
C=c1c(=Cc2[n-]c(=O)[n-]c2[O-])cc(CC(=O)[NH+]2CCC(N3CCN(C)CC3)CC2)n1C (nonaromatic ring conformer: 153.02447355084175 kcal/mol)

> <smiles>
C=c1c(=Cc2[nH]c(=O)[nH]c2O)cc(CC(=O)N2CCC(N3CCN(C)CC3)CC2)n1C

> <score_type>
oracle

> <origin>
adg

> <m_score__min__energy>
-17.66

> <m_primary>
energy

> <minimizedAffinity>
-6.63808

> <minimizedRMSD>
0.96366

> <CNNscore>
0.0501609743

> <CNNaffinity>
5.4114661217

> <CNN_VS>
0.2714444101

> <CNNaffinity_variance>
0.8601210713

$$$$
43:0


 38 42  0  0  0  0  0  0  0  0999 V2000
   58.2390   28.8519   45.8921 C   0  0  0  0  0  0  0  0  0  0  0  0
   57.7905   29.0172   44.5854 C   0  0  0  0  0  0  0  0  0  0  0  0
   57.3062   27.9963   43.7768 O   0  0  0  0  0  0  0  0  0  0  0  0
   57.8439   30.3099   44.1843 N   0  0  0  0  0  0  0  0  0  0  0  0
   58.3189   30.9664   45.2608 C   0  0  0  0  0  0  0  0  0  0  0  0
   58.5759   32.3319   45.3554 C   0  0  0  0  0  0  0  0  0  0  0  0
   59.0913   32.8262   46.5675 C   0  0  0  0  0  0  0  0  0  0  0  0
   59.3349   31.9546   47.6568 C   0  0  0  0  0  0  0  0  0  0  0  0
   59.0536   30.5791   47.5337 C   0  0  0  0  0  0  0  0  0  0  0  0
   58.5527   30.1209   46.3162 C   0  0  0  0  0  0  0  0  0  0  0  0
   54.6841   24.7981   45.6730 C   0  0  0  0  0  0  0  0  0  0  0  0
   55.9369   25.2064   45.8857 C   0  0  0  0  0  0  0  0  0  0  0  0
   57.0850   24.4330   45.7757 C   0  0  0  0  0  0  0  0  0  0  0  0
   58.1467   25.2593   46.1188 C   0  0  0  0  0  0  0  0  0  0  0  0
   59.6081   24.9170   46.0517 C   0  0  0  0  0  0  0  0  0  0  0  0
   57.5970   26.5068   46.3992 C   0  0  0  0  0  0  0  0  0  0  0  0
   58.2974   27.6170   46.6926 C   0  0  0  0  0  0  0  0  0  0  0  0
   56.2521   26.4616   46.2602 N   0  0  0  0  0  0  0  0  0  0  0  0
   55.6230   27.2049   46.4053 H   0  0  0  0  0  0  0  0  0  0  0  0
   57.1674   23.0265   45.3412 C   0  0  0  0  0  0  0  0  0  0  0  0
   57.5946   22.7681   44.1818 O   0  0  0  0  0  0  0  0  0  0  0  0
   56.7814   21.9538   46.2222 N   0  0  0  0  0  0  0  0  0  0  0  0
   55.6919   22.1564   47.1841 C   0  0  0  0  0  0  0  0  0  0  0  0
   55.3253   20.8421   47.8846 C   0  0  0  0  0  0  0  0  0  0  0  0
   56.5190   20.1376   48.4007 N   0  0  0  0  0  0  0  0  0  0  0  0
   57.0119   20.7506   49.6475 C   0  0  0  0  0  0  0  0  0  0  0  0
   57.6143   19.9659   47.4052 C   0  0  0  0  0  0  0  0  0  0  0  0
   57.3295   20.6084   46.0367 C   0  0  0  0  0  0  0  0  0  0  0  0
   60.0153   32.5840   49.1604 S   0  0  0  0  0  0  0  0  0  0  0  0
   61.4041   32.0397   49.3375 O   0  0  0  0  0  0  0  0  0  0  0  0
   60.1074   34.0810   49.0757 O   0  0  0  0  0  0  0  0  0  0  0  0
   59.0418   32.1379   50.5398 N   0  0  0  0  0  0  0  0  0  0  0  0
   59.0626   33.2035   51.5502 C   0  0  0  0  0  0  0  0  0  0  0  0
   58.0279   32.8999   52.6521 C   0  0  0  0  0  0  0  0  0  0  0  0
   57.7920   31.4483   52.8523 N   0  0  0  0  0  0  0  0  0  0  0  0
   56.6034   30.9706   52.1232 C   0  0  0  0  0  0  0  0  0  0  0  0
   58.9880   30.6376   52.5494 C   0  0  0  0  0  0  0  0  0  0  0  0
   59.5063   30.8585   51.1099 C   0  0  0  0  0  0  0  0  0  0  0  0
 11 12  2  0
 12 13  1  0
 13 20  1  0
 20 21  2  0
 20 22  1  0
 22 23  1  0
 23 24  1  0
 24 25  1  0
 25 26  1  0
 25 27  1  0
 27 28  1  0
 13 14  2  0
 14 15  1  0
 14 16  1  0
 16 17  2  0
 17  1  1  0
  1  2  2  0
  2  3  1  0
  2  4  1  0
  4  5  1  0
  5  6  2  0
  6  7  1  0
  7  8  2  0
  8 29  1  0
 29 30  2  0
 29 31  2  0
 29 32  1  0
 32 33  1  0
 33 34  1  0
 34 35  1  0
 35 36  1  0
 35 37  1  0
 37 38  1  0
  8  9  1  0
  9 10  2  0
 16 18  1  0
 18 12  1  0
 28 22  1  0
 10  1  1  0
 10  5  1  0
 38 32  1  0
 18 19  1  0
M  CHG 1   3  -1
M  CHG 1   4  -1
M  END
> <UniqueID>
42

> <SMILES>
C=c1[nH]/c(=C\c2c([O-])[n-]c3ccc(S(=O)(=O)N4CCN(C)CC4)cc23)c(C)c1C(=O)N1CCN(C)CC1

> <Energy>
158.71849156212585

> <Genealogy>
C=c1[nH]c(=Cc2c([O-])[n-]c3ccc(S(=O)(=O)N4CCN(C)CC4)cc23)c(C)c1C(=O)N1CCN(C)CC1 (protonated)
C=c1[nH]/c(=C\c2c([O-])[n-]c3ccc(S(=O)(=O)N4CCN(C)CC4)cc23)c(C)c1C(=O)N1CCN(C)CC1 (cis-trans isomerization)
C=c1[nH]/c(=C\c2c([O-])[n-]c3ccc(S(=O)(=O)N4CCN(C)CC4)cc23)c(C)c1C(=O)N1CCN(C)CC1 (3D coordinates assigned)
C=c1[nH]/c(=C\c2c([O-])[n-]c3ccc(S(=O)(=O)N4CCN(C)CC4)cc23)c(C)c1C(=O)N1CCN(C)CC1 (nonaromatic ring conformer: 158.71849156212585 kcal/mol)

> <smiles>
C=c1[nH]c(=Cc2c(O)[nH]c3ccc(S(=O)(=O)N4CCN(C)CC4)cc23)c(C)c1C(=O)N1CCN(C)CC1

> <score_type>
oracle

> <origin>
adg

> <m_score__min__energy>
-14.44

> <m_primary>
energy

> <minimizedAffinity>
-8.38159

> <minimizedRMSD>
1.99851

> <CNNscore>
0.1979362667

> <CNNaffinity>
6.9540600777

> <CNN_VS>
1.3764606714

> <CNNaffinity_variance>
0.0484055616

$$$$
51:0


 34 37  0  0  0  0  0  0  0  0999 V2000
   59.6215   29.6084   44.8687 C   0  0  0  0  0  0  0  0  0  0  0  0
   59.5863   28.9860   46.0573 C   0  0  0  0  0  0  0  0  0  0  0  0
   58.9061   27.7981   46.3478 C   0  0  0  0  0  0  0  0  0  0  0  0
   58.2164   27.0188   45.4912 C   0  0  0  0  0  0  0  0  0  0  0  0
   59.1348   27.5357   47.6914 C   0  0  0  0  0  0  0  0  0  0  0  0
   59.9287   28.5616   48.1611 C   0  0  0  0  0  0  0  0  0  0  0  0
   60.2131   29.4399   47.1727 N   0  0  0  0  0  0  0  0  0  0  0  0
   57.6982   25.6823   45.8308 C   0  0  0  0  0  0  0  0  0  0  0  0
   58.4532   24.5705   45.8021 N   0  0  0  0  0  0  0  0  0  0  0  0
   57.5818   23.5906   46.1209 C   0  0  0  0  0  0  0  0  0  0  0  0
   57.9237   22.3825   46.2151 O   0  0  0  0  0  0  0  0  0  0  0  0
   56.3133   24.0046   46.3270 N   0  0  0  0  0  0  0  0  0  0  0  0
   56.4011   25.3294   46.1292 C   0  0  0  0  0  0  0  0  0  0  0  0
   55.3079   26.1885   46.1784 O   0  0  0  0  0  0  0  0  0  0  0  0
   60.4078   28.6624   49.5527 C   0  0  0  0  0  0  0  0  0  0  0  0
   60.9362   27.6365   50.0622 O   0  0  0  0  0  0  0  0  0  0  0  0
   60.1512   29.8317   50.3828 N   0  0  0  0  0  0  0  0  0  0  0  0
   58.7004   30.0742   50.5114 C   0  0  0  0  0  0  0  0  0  0  0  0
   58.4580   31.4821   51.0623 C   0  0  0  0  0  0  0  0  0  0  0  0
   59.4251   31.8289   52.1125 N   0  0  0  0  0  0  0  0  0  0  0  0
   59.4173   33.1747   52.6350 C   0  0  0  0  0  0  0  0  0  0  0  0
   60.0136   33.5069   53.9702 C   0  0  0  0  0  0  0  0  0  0  0  0
   58.9165   34.1077   51.9526 O   0  0  0  0  0  0  0  0  0  0  0  0
   60.2426   30.7789   52.7428 C   0  0  0  0  0  0  0  0  0  0  0  0
   60.7649   29.7266   51.7306 C   0  0  0  0  0  0  0  0  0  0  0  0
   59.8179   29.4444   49.5413 H   0  0  0  0  0  0  0  0  0  0  0  0
   61.0802   30.6240   47.2918 C   0  0  0  0  0  0  0  0  0  0  0  0
   60.2790   31.8953   47.1428 C   0  0  0  0  0  0  0  0  0  0  0  0
   58.8760   31.8549   47.2356 C   0  0  0  0  0  0  0  0  0  0  0  0
   58.1223   33.0241   47.0974 C   0  0  0  0  0  0  0  0  0  0  0  0
   58.7600   34.2436   46.8608 C   0  0  0  0  0  0  0  0  0  0  0  0
   60.1515   34.2943   46.7483 C   0  0  0  0  0  0  0  0  0  0  0  0
   60.9113   33.1247   46.8796 C   0  0  0  0  0  0  0  0  0  0  0  0
   62.2618   33.2017   46.7575 F   0  0  0  0  0  0  0  0  0  0  0  0
  1  2  2  0
  2  3  1  0
  3  4  2  0
  4  8  1  0
  8  9  1  0
  9 10  1  0
 10 11  2  0
 10 12  1  0
 12 13  1  0
 13 14  1  0
  3  5  1  0
  5  6  2  0
  6 15  1  0
 15 16  2  0
 15 17  1  0
 17 18  1  0
 18 19  1  0
 19 20  1  0
 20 21  1  0
 21 22  1  0
 21 23  2  0
 20 24  1  0
 24 25  1  0
  6  7  1  0
  7 27  1  0
 27 28  1  0
 28 29  2  0
 29 30  1  0
 30 31  2  0
 31 32  1  0
 32 33  2  0
 33 34  1  0
  7  2  1  0
 33 28  1  0
 13  8  2  0
 25 17  1  0
 17 26  1  0
M  CHG 1   9  -1
M  CHG 1  12  -1
M  CHG 1  14  -1
M  CHG 1  17   1
M  END
> <UniqueID>
50

> <SMILES>
C=c1c(=Cc2[n-]c(=O)[n-]c2[O-])cc(C(=O)[NH+]2CCN(C(C)=O)CC2)n1Cc1ccccc1F

> <Energy>
141.29678587550504

> <Genealogy>
C=c1c(=Cc2[n-]c(=O)[n-]c2[O-])cc(C(=O)[NH+]2CCN(C(C)=O)CC2)n1Cc1ccccc1F (protonated)
C=c1c(=Cc2[n-]c(=O)[n-]c2[O-])cc(C(=O)[NH+]2CCN(C(C)=O)CC2)n1Cc1ccccc1F (3D coordinates assigned)
C=c1c(=Cc2[n-]c(=O)[n-]c2[O-])cc(C(=O)[NH+]2CCN(C(C)=O)CC2)n1Cc1ccccc1F (nonaromatic ring conformer: 141.29678587550504 kcal/mol)

> <smiles>
C=c1c(=Cc2[nH]c(=O)[nH]c2O)cc(C(=O)N2CCN(C(C)=O)CC2)n1Cc1ccccc1F

> <score_type>
oracle

> <origin>
adg

> <m_score__min__energy>
-14.67

> <m_primary>
energy

> <minimizedAffinity>
-8.69251

> <minimizedRMSD>
1.05538

> <CNNscore>
0.3696182370

> <CNNaffinity>
6.7912888527

> <CNN_VS>
2.5101842880

> <CNNaffinity_variance>
0.0791378841

$$$$
53:0


 35 39  0  0  0  0  0  0  0  0999 V2000
   55.5195   30.7344   52.3229 C   0  0  0  0  0  0  0  0  0  0  0  0
   55.5072   29.5409   52.9395 C   0  0  0  0  0  0  0  0  0  0  0  0
   54.3812   28.7788   53.2943 C   0  0  0  0  0  0  0  0  0  0  0  0
   53.0809   28.9152   52.9666 C   0  0  0  0  0  0  0  0  0  0  0  0
   54.8458   27.7575   54.1063 C   0  0  0  0  0  0  0  0  0  0  0  0
   56.2179   27.8811   54.1622 C   0  0  0  0  0  0  0  0  0  0  0  0
   57.1237   26.9484   54.9091 C   0  0  0  0  0  0  0  0  0  0  0  0
   56.6198   28.9646   53.4604 N   0  0  0  0  0  0  0  0  0  0  0  0
   57.9749   29.4216   53.3284 C   0  0  0  0  0  0  0  0  0  0  0  0
   58.7848   29.2440   54.2762 O   0  0  0  0  0  0  0  0  0  0  0  0
   58.4115   30.0394   52.1081 N   0  0  0  0  0  0  0  0  0  0  0  0
   58.8222   29.2859   50.9246 C   0  0  0  0  0  0  0  0  0  0  0  0
   59.4791   30.3103   49.9717 C   0  0  0  0  0  0  0  0  0  0  0  0
   59.3780   31.6020   50.7151 C   0  0  0  0  0  0  0  0  0  0  0  0
   59.7556   32.8890   50.2904 C   0  0  0  0  0  0  0  0  0  0  0  0
   59.5042   33.9697   51.1613 C   0  0  0  0  0  0  0  0  0  0  0  0
   58.8650   33.7595   52.3953 C   0  0  0  0  0  0  0  0  0  0  0  0
   58.4782   32.4693   52.7825 C   0  0  0  0  0  0  0  0  0  0  0  0
   58.7644   31.4019   51.9255 C   0  0  0  0  0  0  0  0  0  0  0  0
   52.4502   30.1378   52.4466 C   0  0  0  0  0  0  0  0  0  0  0  0
   51.8163   31.0358   53.2206 N   0  0  0  0  0  0  0  0  0  0  0  0
   51.2970   31.9065   52.3275 C   0  0  0  0  0  0  0  0  0  0  0  0
   50.6324   32.9156   52.6748 O   0  0  0  0  0  0  0  0  0  0  0  0
   51.5356   31.6028   51.0338 N   0  0  0  0  0  0  0  0  0  0  0  0
   52.2539   30.4716   51.1249 C   0  0  0  0  0  0  0  0  0  0  0  0
   52.7033   29.7463   50.0257 O   0  0  0  0  0  0  0  0  0  0  0  0
   52.5225   30.0504   49.1580 H   0  0  0  0  0  0  0  0  0  0  0  0
   60.4121   33.1142   48.9816 C   0  0  0  0  0  0  0  0  0  0  0  0
   61.6652   33.0119   48.8984 O   0  0  0  0  0  0  0  0  0  0  0  0
   59.6519   33.4658   47.8078 N   0  0  0  0  0  0  0  0  0  0  0  0
   58.2772   32.9778   47.6199 C   0  0  0  0  0  0  0  0  0  0  0  0
   58.0757   32.5288   46.1695 C   0  0  0  0  0  0  0  0  0  0  0  0
   58.4182   33.6371   45.1507 C   0  0  0  0  0  0  0  0  0  0  0  0
   59.2785   34.7723   45.7325 C   0  0  0  0  0  0  0  0  0  0  0  0
   60.3021   34.2528   46.7477 C   0  0  0  0  0  0  0  0  0  0  0  0
  1  2  2  0
  2  3  1  0
  3  4  2  0
  4 20  1  0
 20 21  1  0
 21 22  1  0
 22 23  2  0
 22 24  1  0
 24 25  1  0
 25 26  1  0
  3  5  1  0
  5  6  2  0
  6  7  1  0
  6  8  1  0
  8  9  1  0
  9 10  2  0
  9 11  1  0
 11 12  1  0
 12 13  1  0
 13 14  1  0
 14 15  2  0
 15 28  1  0
 28 29  2  0
 28 30  1  0
 30 31  1  0
 31 32  1  0
 32 33  1  0
 33 34  1  0
 34 35  1  0
 15 16  1  0
 16 17  2  0
 17 18  1  0
 18 19  2  0
  8  2  1  0
 19 11  1  0
 25 20  2  0
 19 14  1  0
 35 30  1  0
 26 27  1  0
M  CHG 1  21  -1
M  CHG 1  24  -1
M  END
> <UniqueID>
52

> <SMILES>
C=c1c(=Cc2[n-]c(=O)[n-]c2O)cc(C)n1C(=O)N1CCc2c(C(=O)N3CCCCC3)cccc21

> <Energy>
159.02280002281438

> <Genealogy>
C=c1c(=Cc2[n-]c(=O)[n-]c2O)cc(C)n1C(=O)N1CCc2c(C(=O)N3CCCCC3)cccc21 (protonated)
C=c1c(=Cc2[n-]c(=O)[n-]c2O)cc(C)n1C(=O)N1CCc2c(C(=O)N3CCCCC3)cccc21 (3D coordinates assigned)
C=c1c(=Cc2[n-]c(=O)[n-]c2O)cc(C)n1C(=O)N1CCc2c(C(=O)N3CCCCC3)cccc21 (nonaromatic ring conformer: 159.02280002281438 kcal/mol)

> <smiles>
C=c1c(=Cc2[nH]c(=O)[nH]c2O)cc(C)n1C(=O)N1CCc2c(C(=O)N3CCCCC3)cccc21

> <score_type>
oracle

> <origin>
adg

> <m_score__min__energy>
-15.039999999999999

> <m_primary>
energy

> <minimizedAffinity>
-9.66083

> <minimizedRMSD>
0.69776

> <CNNscore>
0.2296808213

> <CNNaffinity>
5.9482669830

> <CNN_VS>
1.3662028313

> <CNNaffinity_variance>
0.3341438770

$$$$
55:0


 25 27  0  0  0  0  0  0  0  0999 V2000
   60.5659   26.2675   46.4903 C   0  0  0  0  0  0  0  0  0  0  0  0
   59.8145   27.1325   45.7876 C   0  0  0  0  0  0  0  0  0  0  0  0
   60.2963   28.4481   45.6560 C   0  0  0  0  0  0  0  0  0  0  0  0
   59.4740   29.4709   45.1917 C   0  0  0  0  0  0  0  0  0  0  0  0
   58.1382   29.2137   44.8657 C   0  0  0  0  0  0  0  0  0  0  0  0
   57.6656   27.8946   44.9183 C   0  0  0  0  0  0  0  0  0  0  0  0
   58.5031   26.8224   45.2956 C   0  0  0  0  0  0  0  0  0  0  0  0
   58.0017   25.5706   45.1420 C   0  0  0  0  0  0  0  0  0  0  0  0
   57.2524   24.8047   46.1581 C   0  0  0  0  0  0  0  0  0  0  0  0
   57.7305   23.7373   46.8264 N   0  0  0  0  0  0  0  0  0  0  0  0
   56.6644   23.3145   47.5398 C   0  0  0  0  0  0  0  0  0  0  0  0
   56.7182   22.3249   48.3164 O   0  0  0  0  0  0  0  0  0  0  0  0
   55.5344   24.0296   47.3501 N   0  0  0  0  0  0  0  0  0  0  0  0
   55.9219   24.9596   46.4631 C   0  0  0  0  0  0  0  0  0  0  0  0
   55.0754   25.9293   45.9405 O   0  0  0  0  0  0  0  0  0  0  0  0
   57.2458   30.3103   44.4186 C   0  0  0  0  0  0  0  0  0  0  0  0
   56.7192   30.2508   43.2756 O   0  0  0  0  0  0  0  0  0  0  0  0
   57.0019   31.4701   45.2266 N   0  0  0  0  0  0  0  0  0  0  0  0
   57.9628   32.4766   45.5772 C   0  0  0  0  0  0  0  0  0  0  0  0
   58.2352   33.5637   44.7248 C   0  0  0  0  0  0  0  0  0  0  0  0
   59.1874   34.5201   45.0886 C   0  0  0  0  0  0  0  0  0  0  0  0
   59.8862   34.3927   46.2919 C   0  0  0  0  0  0  0  0  0  0  0  0
   59.6366   33.3032   47.1307 C   0  0  0  0  0  0  0  0  0  0  0  0
   58.6846   32.3438   46.7725 C   0  0  0  0  0  0  0  0  0  0  0  0
   58.4531   31.2898   47.5941 F   0  0  0  0  0  0  0  0  0  0  0  0
  1  2  2  0
  2  3  1  0
  3  4  2  0
  4  5  1  0
  5 16  1  0
 16 17  2  0
 16 18  1  0
 18 19  1  0
 19 20  2  0
 20 21  1  0
 21 22  2  0
 22 23  1  0
 23 24  2  0
 24 25  1  0
  5  6  2  0
  6  7  1  0
  7  8  2  0
  8  9  1  0
  9 10  1  0
 10 11  1  0
 11 12  2  0
 11 13  1  0
 13 14  1  0
 14 15  1  0
  7  2  1  0
 14  9  2  0
 24 19  1  0
M  CHG 1  10  -1
M  CHG 1  13  -1
M  CHG 1  15  -1
M  CHG 1  18  -1
M  END
> <UniqueID>
54

> <SMILES>
C=c1ccc(C(=O)[N-]c2ccccc2F)c/c1=C/c1[n-]c(=O)[n-]c1[O-]

> <Energy>
94.45942375509321

> <Genealogy>
C=c1ccc(C(=O)[N-]c2ccccc2F)cc1=Cc1[n-]c(=O)[n-]c1[O-] (protonated)
C=c1ccc(C(=O)[N-]c2ccccc2F)c/c1=C/c1[n-]c(=O)[n-]c1[O-] (cis-trans isomerization)
C=c1ccc(C(=O)[N-]c2ccccc2F)c/c1=C/c1[n-]c(=O)[n-]c1[O-] (3D coordinates assigned)
C=c1ccc(C(=O)[N-]c2ccccc2F)c/c1=C/c1[n-]c(=O)[n-]c1[O-] (optimized conformer: 94.45942375509321 kcal/mol)

> <smiles>
C=c1ccc(C(=O)Nc2ccccc2F)cc1=Cc1[nH]c(=O)[nH]c1O

> <score_type>
oracle

> <origin>
adg

> <m_score__min__energy>
-17.550000000000001

> <m_primary>
energy

> <minimizedAffinity>
-9.10332

> <minimizedRMSD>
0.85271

> <CNNscore>
0.4928213954

> <CNNaffinity>
6.7507266998

> <CNN_VS>
3.3269026279

> <CNNaffinity_variance>
0.0590008311

$$$$
62:0


 34 37  0  0  0  0  0  0  0  0999 V2000
   59.3941   27.3068   46.9803 C   0  0  0  0  0  0  0  0  0  0  0  0
   58.8653   28.1287   46.0590 C   0  0  0  0  0  0  0  0  0  0  0  0
   58.0866   27.7666   44.9481 C   0  0  0  0  0  0  0  0  0  0  0  0
   57.8257   26.5615   44.4039 C   0  0  0  0  0  0  0  0  0  0  0  0
   57.5790   28.9459   44.4305 C   0  0  0  0  0  0  0  0  0  0  0  0
   58.1088   29.9749   45.1805 C   0  0  0  0  0  0  0  0  0  0  0  0
   57.8486   31.4290   44.9210 C   0  0  0  0  0  0  0  0  0  0  0  0
   58.8835   29.4820   46.1734 N   0  0  0  0  0  0  0  0  0  0  0  0
   59.5850   30.2548   47.1632 C   0  0  0  0  0  0  0  0  0  0  0  0
   58.9312   31.0050   47.9376 O   0  0  0  0  0  0  0  0  0  0  0  0
   61.0140   30.1516   47.2803 N   0  0  0  0  0  0  0  0  0  0  0  0
   61.4786   29.5079   46.6980 H   0  0  0  0  0  0  0  0  0  0  0  0
   57.4008   25.3618   45.1399 C   0  0  0  0  0  0  0  0  0  0  0  0
   58.1490   24.2490   45.2412 N   0  0  0  0  0  0  0  0  0  0  0  0
   57.4429   23.4754   46.0964 C   0  0  0  0  0  0  0  0  0  0  0  0
   57.8176   22.3229   46.4337 O   0  0  0  0  0  0  0  0  0  0  0  0
   56.3102   24.0388   46.5676 N   0  0  0  0  0  0  0  0  0  0  0  0
   56.3051   25.2397   45.9655 C   0  0  0  0  0  0  0  0  0  0  0  0
   55.3369   26.2089   46.1877 O   0  0  0  0  0  0  0  0  0  0  0  0
   61.8077   30.9270   48.1923 C   0  0  0  0  0  0  0  0  0  0  0  0
   62.7033   31.8785   47.6852 C   0  0  0  0  0  0  0  0  0  0  0  0
   63.4699   32.6634   48.5490 C   0  0  0  0  0  0  0  0  0  0  0  0
   63.3342   32.5286   49.9401 C   0  0  0  0  0  0  0  0  0  0  0  0
   62.4321   31.5802   50.4503 C   0  0  0  0  0  0  0  0  0  0  0  0
   61.6668   30.7943   49.5847 C   0  0  0  0  0  0  0  0  0  0  0  0
   64.1551   33.3570   50.8508 C   0  0  0  0  0  0  0  0  0  0  0  0
   63.6193   34.3420   51.4313 O   0  0  0  0  0  0  0  0  0  0  0  0
   65.5388   33.0501   51.1052 N   0  0  0  0  0  0  0  0  0  0  0  0
   65.9735   31.6558   51.2598 C   0  0  0  0  0  0  0  0  0  0  0  0
   67.2083   31.5665   52.1740 C   0  0  0  0  0  0  0  0  0  0  0  0
   67.1243   32.5139   53.3063 N   0  0  0  0  0  0  0  0  0  0  0  0
   66.0663   32.1345   54.2589 C   0  0  0  0  0  0  0  0  0  0  0  0
   67.0028   33.9337   52.8827 C   0  0  0  0  0  0  0  0  0  0  0  0
   66.4875   34.1160   51.4425 C   0  0  0  0  0  0  0  0  0  0  0  0
  1  2  2  0
  2  3  1  0
  3  4  2  0
  4 13  1  0
 13 14  1  0
 14 15  1  0
 15 16  2  0
 15 17  1  0
 17 18  1  0
 18 19  1  0
  3  5  1  0
  5  6  2  0
  6  7  1  0
  6  8  1  0
  8  9  1  0
  9 10  2  0
  9 11  1  0
 11 20  1  0
 20 21  2  0
 21 22  1  0
 22 23  2  0
 23 26  1  0
 26 27  2  0
 26 28  1  0
 28 29  1  0
 29 30  1  0
 30 31  1  0
 31 32  1  0
 31 33  1  0
 33 34  1  0
 23 24  1  0
 24 25  2  0
  8  2  1  0
 25 20  1  0
 18 13  2  0
 34 28  1  0
 11 12  1  0
M  CHG 1  14  -1
M  CHG 1  17  -1
M  CHG 1  19  -1
M  END
> <UniqueID>
60

> <SMILES>
C=c1c(=Cc2[n-]c(=O)[n-]c2[O-])cc(C)n1C(=O)Nc1ccc(C(=O)N2CCN(C)CC2)cc1

> <Energy>
150.44851781204912

> <Genealogy>
C=c1c(=Cc2[n-]c(=O)[n-]c2[O-])cc(C)n1C(=O)Nc1ccc(C(=O)N2CCN(C)CC2)cc1 (protonated)
C=c1c(=Cc2[n-]c(=O)[n-]c2[O-])cc(C)n1C(=O)Nc1ccc(C(=O)N2CCN(C)CC2)cc1 (3D coordinates assigned)
C=c1c(=Cc2[n-]c(=O)[n-]c2[O-])cc(C)n1C(=O)Nc1ccc(C(=O)N2CCN(C)CC2)cc1 (nonaromatic ring conformer: 150.44851781204912 kcal/mol)

> <smiles>
C=c1c(=Cc2[nH]c(=O)[nH]c2O)cc(C)n1C(=O)Nc1ccc(C(=O)N2CCN(C)CC2)cc1

> <score_type>
oracle

> <origin>
adg

> <m_score__min__energy>
-16.77

> <m_primary>
energy

> <minimizedAffinity>
-8.86993

> <minimizedRMSD>
0.75522

> <CNNscore>
0.1712099016

> <CNNaffinity>
6.5441460609

> <CNN_VS>
1.1204226017

> <CNNaffinity_variance>
0.1138989925

$$$$
71:0


 30 33  0  0  0  0  0  0  0  0999 V2000
   57.6978   29.3573   43.9489 C   0  0  0  0  0  0  0  0  0  0  0  0
   58.0391   29.0216   45.2038 C   0  0  0  0  0  0  0  0  0  0  0  0
   58.2576   27.7213   45.6897 C   0  0  0  0  0  0  0  0  0  0  0  0
   57.9811   26.5166   45.1532 C   0  0  0  0  0  0  0  0  0  0  0  0
   58.8396   27.8678   46.9344 C   0  0  0  0  0  0  0  0  0  0  0  0
   58.8916   29.2201   47.1979 C   0  0  0  0  0  0  0  0  0  0  0  0
   58.3894   29.9284   46.1563 N   0  0  0  0  0  0  0  0  0  0  0  0
   57.4316   25.3594   45.8787 C   0  0  0  0  0  0  0  0  0  0  0  0
   58.0993   24.2156   46.1173 N   0  0  0  0  0  0  0  0  0  0  0  0
   57.1616   23.4177   46.6721 C   0  0  0  0  0  0  0  0  0  0  0  0
   57.4098   22.2443   47.0544 O   0  0  0  0  0  0  0  0  0  0  0  0
   55.9352   23.9712   46.7754 N   0  0  0  0  0  0  0  0  0  0  0  0
   56.1212   25.1952   46.2537 C   0  0  0  0  0  0  0  0  0  0  0  0
   55.1119   26.1397   46.1201 O   0  0  0  0  0  0  0  0  0  0  0  0
   59.4230   29.7950   48.4522 C   0  0  0  0  0  0  0  0  0  0  0  0
   58.7909   29.6006   49.5240 O   0  0  0  0  0  0  0  0  0  0  0  0
   60.6894   30.5709   48.4797 C   0  0  0  0  0  0  0  0  0  0  0  0
   61.4369   30.7442   47.2995 C   0  0  0  0  0  0  0  0  0  0  0  0
   62.6450   31.4470   47.3210 C   0  0  0  0  0  0  0  0  0  0  0  0
   63.1264   31.9770   48.5203 C   0  0  0  0  0  0  0  0  0  0  0  0
   62.4011   31.8034   49.6997 C   0  0  0  0  0  0  0  0  0  0  0  0
   61.1900   31.1050   49.6839 C   0  0  0  0  0  0  0  0  0  0  0  0
   58.4236   31.3948   46.0166 C   0  0  0  0  0  0  0  0  0  0  0  0
   58.3686   32.0779   47.3889 C   0  0  0  0  0  0  0  0  0  0  0  0
   58.1093   33.5282   47.2347 N   0  0  0  0  0  0  0  0  0  0  0  0
   59.1472   34.3536   47.8824 C   0  0  0  0  0  0  0  0  0  0  0  0
   60.4887   34.2909   47.1152 C   0  0  0  0  0  0  0  0  0  0  0  0
   60.3537   33.7697   45.8043 O   0  0  0  0  0  0  0  0  0  0  0  0
   59.2493   34.3651   45.1557 C   0  0  0  0  0  0  0  0  0  0  0  0
   57.9269   33.9278   45.8195 C   0  0  0  0  0  0  0  0  0  0  0  0
  1  2  2  0
  2  3  1  0
  3  4  2  0
  4  8  1  0
  8  9  1  0
  9 10  1  0
 10 11  2  0
 10 12  1  0
 12 13  1  0
 13 14  1  0
  3  5  1  0
  5  6  2  0
  6 15  1  0
 15 16  2  0
 15 17  1  0
 17 18  2  0
 18 19  1  0
 19 20  2  0
 20 21  1  0
 21 22  2  0
  6  7  1  0
  7 23  1  0
 23 24  1  0
 24 25  1  0
 25 26  1  0
 26 27  1  0
 27 28  1  0
 28 29  1  0
 29 30  1  0
  7  2  1  0
 30 25  1  0
 13  8  2  0
 22 17  1  0
M  CHG 1   9  -1
M  CHG 1  12  -1
M  CHG 1  14  -1
M  END
> <UniqueID>
69

> <SMILES>
C=c1c(=Cc2[n-]c(=O)[n-]c2[O-])cc(C(=O)c2ccccc2)n1CCN1CCOCC1

> <Energy>
137.77520878638478

> <Genealogy>
C=c1c(=Cc2[n-]c(=O)[n-]c2[O-])cc(C(=O)c2ccccc2)n1CCN1CCOCC1 (protonated)
C=c1c(=Cc2[n-]c(=O)[n-]c2[O-])cc(C(=O)c2ccccc2)n1CCN1CCOCC1 (3D coordinates assigned)
C=c1c(=Cc2[n-]c(=O)[n-]c2[O-])cc(C(=O)c2ccccc2)n1CCN1CCOCC1 (nonaromatic ring conformer: 137.77520878638478 kcal/mol)

> <smiles>
C=c1c(=Cc2[nH]c(=O)[nH]c2O)cc(C(=O)c2ccccc2)n1CCN1CCOCC1

> <score_type>
oracle

> <origin>
adg

> <m_score__min__energy>
-16.739999999999998

> <m_primary>
energy

> <minimizedAffinity>
-8.01677

> <minimizedRMSD>
0.74424

> <CNNscore>
0.2093610466

> <CNNaffinity>
6.1736755371

> <CNN_VS>
1.2925271988

> <CNNaffinity_variance>
0.2163027376

$$$$
79:0


 28 31  0  0  0  0  0  0  0  0999 V2000
   60.5785   27.4623   48.9626 C   0  0  0  0  0  0  0  0  0  0  0  0
   60.1348   28.5831   48.3720 C   0  0  0  0  0  0  0  0  0  0  0  0
   59.6270   28.7083   47.0669 C   0  0  0  0  0  0  0  0  0  0  0  0
   59.5884   27.8350   46.0419 C   0  0  0  0  0  0  0  0  0  0  0  0
   59.1424   30.0002   46.9621 C   0  0  0  0  0  0  0  0  0  0  0  0
   59.4047   30.6249   48.1622 C   0  0  0  0  0  0  0  0  0  0  0  0
   60.0170   29.7739   49.0202 N   0  0  0  0  0  0  0  0  0  0  0  0
   58.6432   26.7185   45.8999 C   0  0  0  0  0  0  0  0  0  0  0  0
   59.0185   25.1079   46.2053 S   0  0  0  0  0  0  0  0  0  0  0  0
   57.4258   24.6109   45.9962 C   0  0  0  0  0  0  0  0  0  0  0  0
   57.0387   23.4163   46.0859 O   0  0  0  0  0  0  0  0  0  0  0  0
   56.5906   25.6370   45.7303 N   0  0  0  0  0  0  0  0  0  0  0  0
   57.2654   26.8158   45.6939 C   0  0  0  0  0  0  0  0  0  0  0  0
   56.6101   28.0234   45.4872 O   0  0  0  0  0  0  0  0  0  0  0  0
   59.0647   32.0248   48.4472 C   0  0  0  0  0  0  0  0  0  0  0  0
   58.5916   32.3359   49.5727 O   0  0  0  0  0  0  0  0  0  0  0  0
   59.3212   33.0434   47.4825 N   0  0  0  0  0  0  0  0  0  0  0  0
   60.0600   33.1890   46.2137 C   0  0  0  0  0  0  0  0  0  0  0  0
   59.8129   34.6532   46.0552 C   0  0  0  0  0  0  0  0  0  0  0  0
   59.0749   34.4886   47.3432 C   0  0  0  0  0  0  0  0  0  0  0  0
   60.5770   30.1295   50.3328 C   0  0  0  0  0  0  0  0  0  0  0  0
   62.0882   30.3541   50.2214 C   0  0  0  0  0  0  0  0  0  0  0  0
   62.3779   31.6469   49.5066 C   0  0  0  0  0  0  0  0  0  0  0  0
   62.9395   31.6328   48.2188 C   0  0  0  0  0  0  0  0  0  0  0  0
   63.2394   32.8348   47.5701 C   0  0  0  0  0  0  0  0  0  0  0  0
   62.9931   34.0543   48.2055 C   0  0  0  0  0  0  0  0  0  0  0  0
   62.4481   34.0757   49.4926 C   0  0  0  0  0  0  0  0  0  0  0  0
   62.1444   32.8762   50.1449 C   0  0  0  0  0  0  0  0  0  0  0  0
  1  2  2  0
  2  3  1  0
  3  4  2  0
  4  8  1  0
  8  9  1  0
  9 10  1  0
 10 11  2  0
 10 12  1  0
 12 13  1  0
 13 14  1  0
  3  5  1  0
  5  6  2  0
  6 15  1  0
 15 16  2  0
 15 17  1  0
 17 18  1  0
 18 19  1  0
 19 20  1  0
  6  7  1  0
  7 21  1  0
 21 22  1  0
 22 23  1  0
 23 24  2  0
 24 25  1  0
 25 26  2  0
 26 27  1  0
 27 28  2  0
  7  2  1  0
 28 23  1  0
 13  8  2  0
 20 17  1  0
M  CHG 1  12  -1
M  CHG 1  14  -1
M  END
> <UniqueID>
77

> <SMILES>
C=c1c(=Cc2sc(=O)[n-]c2[O-])cc(C(=O)N2CCC2)n1CCc1ccccc1

> <Energy>
167.2259352464418

> <Genealogy>
C=c1c(=Cc2sc(=O)[n-]c2[O-])cc(C(=O)N2CCC2)n1CCc1ccccc1 (protonated)
C=c1c(=Cc2sc(=O)[n-]c2[O-])cc(C(=O)N2CCC2)n1CCc1ccccc1 (3D coordinates assigned)
C=c1c(=Cc2sc(=O)[n-]c2[O-])cc(C(=O)N2CCC2)n1CCc1ccccc1 (nonaromatic ring conformer: 167.2259352464418 kcal/mol)

> <smiles>
C=c1c(=Cc2sc(=O)[nH]c2O)cc(C(=O)N2CCC2)n1CCc1ccccc1

> <score_type>
oracle

> <origin>
adg

> <m_score__min__energy>
-14.6

> <m_primary>
energy

> <minimizedAffinity>
-6.97137

> <minimizedRMSD>
1.05309

> <CNNscore>
0.3814208806

> <CNNaffinity>
6.7349314690

> <CNN_VS>
2.5688436031

> <CNNaffinity_variance>
0.3044263422

$$$$
86:0


 28 31  0  0  0  0  0  0  0  0999 V2000
   56.9171   28.8775   42.9528 C   0  0  0  0  0  0  0  0  0  0  0  0
   57.2063   29.9612   43.6939 C   0  0  0  0  0  0  0  0  0  0  0  0
   57.3782   31.1823   43.0113 C   0  0  0  0  0  0  0  0  0  0  0  0
   57.9347   32.2880   43.6477 C   0  0  0  0  0  0  0  0  0  0  0  0
   58.3393   32.2077   44.9824 C   0  0  0  0  0  0  0  0  0  0  0  0
   58.1387   31.0139   45.6898 C   0  0  0  0  0  0  0  0  0  0  0  0
   57.4905   29.9069   45.0975 C   0  0  0  0  0  0  0  0  0  0  0  0
   57.1639   28.8789   45.9224 C   0  0  0  0  0  0  0  0  0  0  0  0
   58.9860   33.3633   45.6458 C   0  0  0  0  0  0  0  0  0  0  0  0
   58.9152   34.4980   45.0989 O   0  0  0  0  0  0  0  0  0  0  0  0
   59.6864   33.2260   46.8987 N   0  0  0  0  0  0  0  0  0  0  0  0
   60.4305   31.9958   47.2182 C   0  0  0  0  0  0  0  0  0  0  0  0
   61.7913   32.3013   47.8856 C   0  0  0  0  0  0  0  0  0  0  0  0
   61.8529   33.6494   48.4912 N   0  0  0  0  0  0  0  0  0  0  0  0
   60.5515   34.0645   49.0508 C   0  0  0  0  0  0  0  0  0  0  0  0
   59.6024   34.3150   47.8825 C   0  0  0  0  0  0  0  0  0  0  0  0
   63.0267   33.8081   49.3880 C   0  0  0  0  0  0  0  0  0  0  0  0
   64.1987   32.8524   49.0904 C   0  0  0  0  0  0  0  0  0  0  0  0
   64.6858   32.3591   50.4434 C   0  0  0  0  0  0  0  0  0  0  0  0
   63.4779   32.4293   51.3609 C   0  0  0  0  0  0  0  0  0  0  0  0
   62.6549   33.6082   50.8660 C   0  0  0  0  0  0  0  0  0  0  0  0
   57.9569   27.6508   46.1347 C   0  0  0  0  0  0  0  0  0  0  0  0
   59.3018   27.5894   46.1228 N   0  0  0  0  0  0  0  0  0  0  0  0
   59.5546   26.2691   46.2405 C   0  0  0  0  0  0  0  0  0  0  0  0
   60.7231   25.8029   46.2802 O   0  0  0  0  0  0  0  0  0  0  0  0
   58.4569   25.4835   46.3029 N   0  0  0  0  0  0  0  0  0  0  0  0
   57.4553   26.3759   46.2221 C   0  0  0  0  0  0  0  0  0  0  0  0
   56.1109   26.0281   46.2248 O   0  0  0  0  0  0  0  0  0  0  0  0
  1  2  2  0
  2  3  1  0
  3  4  2  0
  4  5  1  0
  5  9  1  0
  9 10  2  0
  9 11  1  0
 11 12  1  0
 12 13  1  0
 13 14  1  0
 14 17  1  0
 17 18  1  0
 18 19  1  0
 19 20  1  0
 20 21  1  0
 14 15  1  0
 15 16  1  0
  5  6  2  0
  6  7  1  0
  7  8  2  0
  8 22  1  0
 22 23  1  0
 23 24  1  0
 24 25  2  0
 24 26  1  0
 26 27  1  0
 27 28  1  0
  7  2  1  0
 27 22  2  0
 16 11  1  0
 21 17  1  0
M  CHG 1  23  -1
M  CHG 1  26  -1
M  CHG 1  28  -1
M  END
> <UniqueID>
84

> <SMILES>
C=c1ccc(C(=O)N2CCN(C3CCCC3)CC2)c/c1=C/c1[n-]c(=O)[n-]c1[O-]

> <Energy>
118.89387398729639

> <Genealogy>
C=c1ccc(C(=O)N2CCN(C3CCCC3)CC2)cc1=Cc1[n-]c(=O)[n-]c1[O-] (protonated)
C=c1ccc(C(=O)N2CCN(C3CCCC3)CC2)c/c1=C/c1[n-]c(=O)[n-]c1[O-] (cis-trans isomerization)
C=c1ccc(C(=O)N2CCN(C3CCCC3)CC2)c/c1=C/c1[n-]c(=O)[n-]c1[O-] (3D coordinates assigned)
C=c1ccc(C(=O)N2CCN(C3CCCC3)CC2)c/c1=C/c1[n-]c(=O)[n-]c1[O-] (nonaromatic ring conformer: 118.89387398729639 kcal/mol)

> <smiles>
C=c1ccc(C(=O)N2CCN(C3CCCC3)CC2)cc1=Cc1[nH]c(=O)[nH]c1O

> <score_type>
oracle

> <origin>
adg

> <m_score__min__energy>
-18.02

> <m_primary>
energy

> <minimizedAffinity>
-7.14678

> <minimizedRMSD>
0.99304

> <CNNscore>
0.0837873295

> <CNNaffinity>
5.4844946861

> <CNN_VS>
0.4595311582

> <CNNaffinity_variance>
0.1955037117

$$$$
0:0


 32 35  0  0  0  0  0  0  0  0999 V2000
   58.3147   28.8942   47.2401 C   0  0  0  0  0  0  0  0  0  0  0  0
   58.1492   29.3137   45.9750 C   0  0  0  0  0  0  0  0  0  0  0  0
   57.6946   28.5647   44.8732 C   0  0  0  0  0  0  0  0  0  0  0  0
   57.4121   27.2526   44.7465 C   0  0  0  0  0  0  0  0  0  0  0  0
   57.5865   29.4559   43.8180 C   0  0  0  0  0  0  0  0  0  0  0  0
   58.0016   30.6842   44.2849 C   0  0  0  0  0  0  0  0  0  0  0  0
   58.0838   31.9324   43.4584 C   0  0  0  0  0  0  0  0  0  0  0  0
   58.3499   30.5996   45.5863 N   0  0  0  0  0  0  0  0  0  0  0  0
   57.4267   26.2598   45.8377 C   0  0  0  0  0  0  0  0  0  0  0  0
   56.2253   25.7223   46.3199 C   0  0  0  0  0  0  0  0  0  0  0  0
   55.0038   26.1520   45.8159 O   0  0  0  0  0  0  0  0  0  0  0  0
   56.2493   24.7761   47.2945 N   0  0  0  0  0  0  0  0  0  0  0  0
   57.4250   24.3254   47.8063 C   0  0  0  0  0  0  0  0  0  0  0  0
   57.4226   23.4521   48.7119 O   0  0  0  0  0  0  0  0  0  0  0  0
   58.6014   24.8133   47.3360 N   0  0  0  0  0  0  0  0  0  0  0  0
   58.6309   25.7587   46.3615 C   0  0  0  0  0  0  0  0  0  0  0  0
   59.7416   26.1733   45.9364 O   0  0  0  0  0  0  0  0  0  0  0  0
   58.8054   31.6949   46.3966 C   0  0  0  0  0  0  0  0  0  0  0  0
   59.9886   31.5690   47.1394 C   0  0  0  0  0  0  0  0  0  0  0  0
   60.4577   32.6380   47.9237 C   0  0  0  0  0  0  0  0  0  0  0  0
   59.7263   33.8375   47.9496 C   0  0  0  0  0  0  0  0  0  0  0  0
   58.5498   33.9652   47.2062 C   0  0  0  0  0  0  0  0  0  0  0  0
   58.0900   32.8999   46.4290 C   0  0  0  0  0  0  0  0  0  0  0  0
   56.9562   33.0439   45.6967 F   0  0  0  0  0  0  0  0  0  0  0  0
   61.6774   32.5084   48.6856 N   0  0  0  0  0  0  0  0  0  0  0  0
   62.5286   33.6819   48.9202 C   0  0  0  0  0  0  0  0  0  0  0  0
   64.0236   33.2991   48.9763 C   0  0  0  0  0  0  0  0  0  0  0  0
   64.2846   31.9286   49.4692 N   0  0  0  0  0  0  0  0  0  0  0  0
   63.1914   31.3910   50.2883 C   0  0  0  0  0  0  0  0  0  0  0  0
   61.9191   31.2737   49.4458 C   0  0  0  0  0  0  0  0  0  0  0  0
   65.1349   31.9430   50.0324 H   0  0  0  0  0  0  0  0  0  0  0  0
   64.3766   31.3249   48.6522 H   0  0  0  0  0  0  0  0  0  0  0  0
  1  2  2  0
  2  3  1  0
  3  4  2  0
  4  9  1  0
  9 10  2  0
 10 11  1  0
 10 12  1  0
 12 13  1  0
 13 14  2  0
 13 15  1  0
 15 16  1  0
 16 17  2  0
  3  5  1  0
  5  6  2  0
  6  7  1  0
  6  8  1  0
  8 18  1  0
 18 19  2  0
 19 20  1  0
 20 25  1  0
 25 26  1  0
 26 27  1  0
 27 28  1  0
 28 29  1  0
 29 30  1  0
 20 21  2  0
 21 22  1  0
 22 23  2  0
 23 24  1  0
  8  2  1  0
 23 18  1  0
 16  9  1  0
 30 25  1  0
 28 31  1  0
 28 32  1  0
M  CHG 1  11  -1
M  CHG 1  12  -1
M  CHG 1  15  -1
M  CHG 1  28   1
M  END
> <UniqueID>
1

> <SMILES>
C=c1c(=Cc2c([O-])[n-]c(=O)[n-]c2=O)cc(C)n1-c1cc(N2CC[NH2+]CC2)ccc1F

> <Energy>
110.70900053968036

> <Genealogy>
C=c1c(=Cc2c([O-])[n-]c(=O)[n-]c2=O)cc(C)n1-c1cc(N2CC[NH2+]CC2)ccc1F (protonated)
C=c1c(=Cc2c([O-])[n-]c(=O)[n-]c2=O)cc(C)n1-c1cc(N2CC[NH2+]CC2)ccc1F (3D coordinates assigned)
C=c1c(=Cc2c([O-])[n-]c(=O)[n-]c2=O)cc(C)n1-c1cc(N2CC[NH2+]CC2)ccc1F (nonaromatic ring conformer: 110.70900053968036 kcal/mol)

> <smiles>
C=c1c(=Cc2c(O)[nH]c(=O)[nH]c2=O)cc(C)n1-c1cc(N2CCNCC2)ccc1F

> <score_type>
oracle

> <origin>
adg

> <m_score__min__energy>
-15.550000000000001

> <m_primary>
energy

> <minimizedAffinity>
-6.78760

> <minimizedRMSD>
0.98244

> <CNNscore>
0.2121427655

> <CNNaffinity>
6.7505130768

> <CNN_VS>
1.4320725203

> <CNNaffinity_variance>
0.1017713323

$$$$
4:0


 32 35  0  0  0  0  0  0  0  0999 V2000
   59.1883   33.9114   47.8064 N   0  0  0  0  0  0  0  0  0  0  0  0
   58.8698   34.9627   46.8412 C   0  0  0  0  0  0  0  0  0  0  0  0
   59.4737   34.6145   45.4862 C   0  0  0  0  0  0  0  0  0  0  0  0
   58.6964   33.6161   44.8410 O   0  0  0  0  0  0  0  0  0  0  0  0
   58.6026   32.2591   45.1963 C   0  0  0  0  0  0  0  0  0  0  0  0
   58.5713   31.3506   44.1321 C   0  0  0  0  0  0  0  0  0  0  0  0
   58.4781   29.9789   44.3559 C   0  0  0  0  0  0  0  0  0  0  0  0
   58.4107   29.4765   45.6607 C   0  0  0  0  0  0  0  0  0  0  0  0
   58.4374   30.3781   46.7366 C   0  0  0  0  0  0  0  0  0  0  0  0
   58.5394   31.7692   46.5322 C   0  0  0  0  0  0  0  0  0  0  0  0
   58.5296   32.6271   47.7480 C   0  0  0  0  0  0  0  0  0  0  0  0
   57.9724   32.1771   48.7865 O   0  0  0  0  0  0  0  0  0  0  0  0
   58.3121   28.0143   45.9016 C   0  0  0  0  0  0  0  0  0  0  0  0
   59.4740   27.2406   46.0873 C   0  0  0  0  0  0  0  0  0  0  0  0
   59.3803   25.8641   46.3163 C   0  0  0  0  0  0  0  0  0  0  0  0
   58.1290   25.2439   46.3624 C   0  0  0  0  0  0  0  0  0  0  0  0
   58.0433   23.8764   46.5905 O   0  0  0  0  0  0  0  0  0  0  0  0
   56.9672   26.0025   46.1779 C   0  0  0  0  0  0  0  0  0  0  0  0
   55.7195   25.3884   46.2198 O   0  0  0  0  0  0  0  0  0  0  0  0
   57.0566   27.3795   45.9504 C   0  0  0  0  0  0  0  0  0  0  0  0
   60.1584   34.1756   48.8804 C   0  0  0  0  0  0  0  0  0  0  0  0
   63.5709   32.5602   49.3911 C   0  0  0  0  0  0  0  0  0  0  0  0
   63.8789   32.1495   48.0877 C   0  0  0  0  0  0  0  0  0  0  0  0
   62.9818   32.3928   47.0454 C   0  0  0  0  0  0  0  0  0  0  0  0
   61.7704   33.0422   47.2978 C   0  0  0  0  0  0  0  0  0  0  0  0
   61.4452   33.4458   48.6009 C   0  0  0  0  0  0  0  0  0  0  0  0
   62.3510   33.2020   49.6462 C   0  0  0  0  0  0  0  0  0  0  0  0
   66.3129   32.5240   50.1533 N   0  0  0  0  0  0  0  0  0  0  0  0
   64.6996   32.2507   50.7067 S   0  0  0  0  0  0  0  0  0  0  0  0
   64.4011   33.1668   51.8599 O   0  0  0  0  0  0  0  0  0  0  0  0
   64.5610   30.8277   51.1712 O   0  0  0  0  0  0  0  0  0  0  0  0
   66.9682   32.3452   50.9142 H   0  0  0  0  0  0  0  0  0  0  0  0
 28 29  1  0
 29 30  2  0
 29 31  2  0
 29 22  1  0
 22 23  2  0
 23 24  1  0
 24 25  2  0
 25 26  1  0
 26 21  1  0
 21  1  1  0
  1  2  1  0
  2  3  1  0
  3  4  1  0
  4  5  1  0
  5  6  2  0
  6  7  1  0
  7  8  2  0
  8 13  1  0
 13 14  2  0
 14 15  1  0
 15 16  2  0
 16 17  1  0
 16 18  1  0
 18 19  1  0
 18 20  2  0
  8  9  1  0
  9 10  2  0
 10 11  1  0
 11 12  2  0
 26 27  2  0
 27 22  1  0
 11  1  1  0
 10  5  1  0
 20 13  1  0
 28 32  1  0
M  CHG 1  17  -1
M  CHG 1  19  -1
M  CHG 1  28  -1
M  END
> <UniqueID>
5

> <SMILES>
[NH-]S(=O)(=O)c1cccc(CN2CCOc3ccc(-c4ccc([O-])c([O-])c4)cc3C2=O)c1

> <Energy>
66.86617479974225

> <Genealogy>
[NH-]S(=O)(=O)c1cccc(CN2CCOc3ccc(-c4ccc([O-])c([O-])c4)cc3C2=O)c1 (protonated)
[NH-]S(=O)(=O)c1cccc(CN2CCOc3ccc(-c4ccc([O-])c([O-])c4)cc3C2=O)c1 (3D coordinates assigned)
[NH-]S(=O)(=O)c1cccc(CN2CCOc3ccc(-c4ccc([O-])c([O-])c4)cc3C2=O)c1 (nonaromatic ring conformer: 66.86617479974225 kcal/mol)

> <smiles>
NS(=O)(=O)c1cccc(CN2CCOc3ccc(-c4ccc(O)c(O)c4)cc3C2=O)c1

> <score_type>
oracle

> <origin>
adg

> <m_score__min__energy>
-14.93

> <m_primary>
energy

> <minimizedAffinity>
-7.65443

> <minimizedRMSD>
0.72202

> <CNNscore>
0.3708419800

> <CNNaffinity>
6.2831788063

> <CNN_VS>
2.3300664425

> <CNNaffinity_variance>
0.0679048076

$$$$
13:0


 35 38  0  0  0  0  0  0  0  0999 V2000
   58.7145   32.7468   45.8620 C   0  0  0  0  0  0  0  0  0  0  0  0
   59.2648   34.0300   45.7283 C   0  0  0  0  0  0  0  0  0  0  0  0
   59.8216   34.6769   46.8343 C   0  0  0  0  0  0  0  0  0  0  0  0
   59.8272   34.0523   48.0832 C   0  0  0  0  0  0  0  0  0  0  0  0
   59.2786   32.7689   48.2382 C   0  0  0  0  0  0  0  0  0  0  0  0
   58.7194   32.1223   47.1212 C   0  0  0  0  0  0  0  0  0  0  0  0
   59.2491   32.1217   49.5690 C   0  0  0  0  0  0  0  0  0  0  0  0
   58.1412   31.8642   50.1136 O   0  0  0  0  0  0  0  0  0  0  0  0
   60.4654   31.7970   50.2564 N   0  0  0  0  0  0  0  0  0  0  0  0
   60.5807   32.0964   51.6895 C   0  0  0  0  0  0  0  0  0  0  0  0
   62.0457   32.3752   52.0994 C   0  0  0  0  0  0  0  0  0  0  0  0
   63.0158   32.0267   51.0380 N   0  0  0  0  0  0  0  0  0  0  0  0
   62.6774   30.7156   50.4580 C   0  0  0  0  0  0  0  0  0  0  0  0
   61.4017   30.8591   49.6255 C   0  0  0  0  0  0  0  0  0  0  0  0
   64.4019   32.0541   51.5542 C   0  0  0  0  0  0  0  0  0  0  0  0
   65.2611   33.0139   50.7268 C   0  0  0  0  0  0  0  0  0  0  0  0
   65.3207   34.2473   51.3526 F   0  0  0  0  0  0  0  0  0  0  0  0
   64.7361   33.1759   49.4602 F   0  0  0  0  0  0  0  0  0  0  0  0
   66.9162   32.3723   50.5748 Cl  0  0  0  0  0  0  0  0  0  0  0  0
   58.1203   32.0487   44.6662 C   0  0  0  0  0  0  0  0  0  0  0  0
   55.7471   30.2137   43.7873 C   0  0  0  0  0  0  0  0  0  0  0  0
   56.7644   29.8235   44.5589 C   0  0  0  0  0  0  0  0  0  0  0  0
   56.8855   28.5695   45.0394 N   0  0  0  0  0  0  0  0  0  0  0  0
   58.0302   28.5366   45.7598 C   0  0  0  0  0  0  0  0  0  0  0  0
   58.5295   27.4746   46.4204 C   0  0  0  0  0  0  0  0  0  0  0  0
   58.6404   29.7806   45.7400 C   0  0  0  0  0  0  0  0  0  0  0  0
   57.8311   30.6055   44.9815 C   0  0  0  0  0  0  0  0  0  0  0  0
   56.2615   27.8221   44.8940 H   0  0  0  0  0  0  0  0  0  0  0  0
   58.2024   26.0539   46.1679 C   0  0  0  0  0  0  0  0  0  0  0  0
   59.0857   25.0618   45.9502 N   0  0  0  0  0  0  0  0  0  0  0  0
   58.3048   23.9730   45.7820 C   0  0  0  0  0  0  0  0  0  0  0  0
   58.7768   22.8320   45.5411 O   0  0  0  0  0  0  0  0  0  0  0  0
   56.9805   24.2051   45.8865 N   0  0  0  0  0  0  0  0  0  0  0  0
   56.9339   25.5242   46.1328 C   0  0  0  0  0  0  0  0  0  0  0  0
   55.7528   26.2315   46.3208 O   0  0  0  0  0  0  0  0  0  0  0  0
 21 22  2  0
 22 23  1  0
 23 24  1  0
 24 25  2  0
 25 29  1  0
 29 30  1  0
 30 31  1  0
 31 32  2  0
 31 33  1  0
 33 34  1  0
 34 35  1  0
 24 26  1  0
 26 27  2  0
 27 20  1  0
 20  1  1  0
  1  2  2  0
  2  3  1  0
  3  4  2  0
  4  5  1  0
  5  7  1  0
  7  8  2  0
  7  9  1  0
  9 10  1  0
 10 11  1  0
 11 12  1  0
 12 15  1  0
 15 16  1  0
 16 17  1  0
 16 18  1  0
 16 19  1  0
 12 13  1  0
 13 14  1  0
  5  6  2  0
 27 22  1  0
  6  1  1  0
 34 29  2  0
 14  9  1  0
 23 28  1  0
M  CHG 1  30  -1
M  CHG 1  33  -1
M  CHG 1  35  -1
M  END
> <UniqueID>
14

> <SMILES>
C=c1[nH]c(=Cc2[n-]c(=O)[n-]c2[O-])cc1Cc1cccc(C(=O)N2CCN(CC(F)(F)Cl)CC2)c1

> <Energy>
126.02200705022788

> <Genealogy>
C=c1[nH]c(=Cc2[n-]c(=O)[n-]c2[O-])cc1Cc1cccc(C(=O)N2CCN(CC(F)(F)Cl)CC2)c1 (protonated)
C=c1[nH]c(=Cc2[n-]c(=O)[n-]c2[O-])cc1Cc1cccc(C(=O)N2CCN(CC(F)(F)Cl)CC2)c1 (3D coordinates assigned)
C=c1[nH]c(=Cc2[n-]c(=O)[n-]c2[O-])cc1Cc1cccc(C(=O)N2CCN(CC(F)(F)Cl)CC2)c1 (nonaromatic ring conformer: 126.02200705022788 kcal/mol)

> <smiles>
C=c1[nH]c(=Cc2[nH]c(=O)[nH]c2O)cc1Cc1cccc(C(=O)N2CCN(CC(F)(F)Cl)CC2)c1

> <score_type>
oracle

> <origin>
adg

> <m_score__min__energy>
-19.120000000000001

> <m_primary>
energy

> <minimizedAffinity>
-9.51447

> <minimizedRMSD>
1.16645

> <CNNscore>
0.3891288340

> <CNNaffinity>
7.0072827339

> <CNN_VS>
2.7267358303

> <CNNaffinity_variance>
0.1953167170

$$$$
37:0


 35 39  0  0  0  0  0  0  0  0999 V2000
   57.9593   27.0787   43.0102 C   0  0  0  0  0  0  0  0  0  0  0  0
   58.4055   26.6216   44.1929 C   0  0  0  0  0  0  0  0  0  0  0  0
   58.0359   25.4184   44.8062 C   0  0  0  0  0  0  0  0  0  0  0  0
   57.1587   24.5033   44.3407 C   0  0  0  0  0  0  0  0  0  0  0  0
   58.7179   25.3802   46.0144 C   0  0  0  0  0  0  0  0  0  0  0  0
   59.4710   26.5355   46.0929 C   0  0  0  0  0  0  0  0  0  0  0  0
   59.2913   27.2874   44.9781 N   0  0  0  0  0  0  0  0  0  0  0  0
   55.9508   24.0333   45.0541 C   0  0  0  0  0  0  0  0  0  0  0  0
   55.4407   22.7898   45.0079 N   0  0  0  0  0  0  0  0  0  0  0  0
   54.3324   22.8739   45.7742 C   0  0  0  0  0  0  0  0  0  0  0  0
   53.5757   21.8895   45.9816 O   0  0  0  0  0  0  0  0  0  0  0  0
   54.0977   24.0944   46.3004 N   0  0  0  0  0  0  0  0  0  0  0  0
   55.1266   24.8169   45.8297 C   0  0  0  0  0  0  0  0  0  0  0  0
   55.3110   26.1668   46.1063 O   0  0  0  0  0  0  0  0  0  0  0  0
   60.2931   26.9117   47.2618 C   0  0  0  0  0  0  0  0  0  0  0  0
   61.3764   26.3093   47.4921 O   0  0  0  0  0  0  0  0  0  0  0  0
   59.8829   27.9616   48.1400 N   0  0  0  0  0  0  0  0  0  0  0  0
   60.3678   28.5469   49.4022 C   0  0  0  0  0  0  0  0  0  0  0  0
   59.2176   29.4796   49.5986 C   0  0  0  0  0  0  0  0  0  0  0  0
   58.7449   28.8827   48.3146 C   0  0  0  0  0  0  0  0  0  0  0  0
   59.9310   28.5804   44.6832 C   0  0  0  0  0  0  0  0  0  0  0  0
   59.0295   29.7229   45.0533 C   0  0  0  0  0  0  0  0  0  0  0  0
   57.6473   29.7604   44.9615 C   0  0  0  0  0  0  0  0  0  0  0  0
   57.2559   30.9649   45.5100 C   0  0  0  0  0  0  0  0  0  0  0  0
   58.3390   31.6465   45.9324 N   0  0  0  0  0  0  0  0  0  0  0  0
   59.4239   30.8903   45.6731 C   0  0  0  0  0  0  0  0  0  0  0  0
   58.3332   32.9240   46.6440 C   0  0  0  0  0  0  0  0  0  0  0  0
   59.0501   32.8154   47.9681 C   0  0  0  0  0  0  0  0  0  0  0  0
   58.3758   32.5848   49.0118 O   0  0  0  0  0  0  0  0  0  0  0  0
   60.4802   33.0086   48.0703 N   0  0  0  0  0  0  0  0  0  0  0  0
   61.2820   33.3283   46.8789 C   0  0  0  0  0  0  0  0  0  0  0  0
   62.6004   34.0014   47.2749 C   0  0  0  0  0  0  0  0  0  0  0  0
   63.2679   33.2571   48.2743 O   0  0  0  0  0  0  0  0  0  0  0  0
   62.5006   33.2754   49.4613 C   0  0  0  0  0  0  0  0  0  0  0  0
   61.1822   32.5228   49.2669 C   0  0  0  0  0  0  0  0  0  0  0  0
  1  2  2  0
  2  3  1  0
  3  4  2  0
  4  8  1  0
  8  9  1  0
  9 10  1  0
 10 11  2  0
 10 12  1  0
 12 13  1  0
 13 14  1  0
  3  5  1  0
  5  6  2  0
  6 15  1  0
 15 16  2  0
 15 17  1  0
 17 18  1  0
 18 19  1  0
 19 20  1  0
  6  7  1  0
  7 21  1  0
 21 22  1  0
 22 23  1  0
 23 24  2  0
 24 25  1  0
 25 27  1  0
 27 28  1  0
 28 29  2  0
 28 30  1  0
 30 31  1  0
 31 32  1  0
 32 33  1  0
 33 34  1  0
 34 35  1  0
 25 26  1  0
  7  2  1  0
 26 22  2  0
 13  8  2  0
 20 17  1  0
 35 30  1  0
M  CHG 1   9  -1
M  CHG 1  12  -1
M  CHG 1  14  -1
M  END
> <UniqueID>
37

> <SMILES>
C=c1/c(=C/c2[n-]c(=O)[n-]c2[O-])cc(C(=O)N2CCC2)n1Cc1ccn(CC(=O)N2CCOCC2)c1

> <Energy>
198.47348637687182

> <Genealogy>
C=c1c(=Cc2[n-]c(=O)[n-]c2[O-])cc(C(=O)N2CCC2)n1Cc1ccn(CC(=O)N2CCOCC2)c1 (protonated)
C=c1/c(=C/c2[n-]c(=O)[n-]c2[O-])cc(C(=O)N2CCC2)n1Cc1ccn(CC(=O)N2CCOCC2)c1 (cis-trans isomerization)
C=c1/c(=C/c2[n-]c(=O)[n-]c2[O-])cc(C(=O)N2CCC2)n1Cc1ccn(CC(=O)N2CCOCC2)c1 (3D coordinates assigned)
C=c1/c(=C/c2[n-]c(=O)[n-]c2[O-])cc(C(=O)N2CCC2)n1Cc1ccn(CC(=O)N2CCOCC2)c1 (nonaromatic ring conformer: 198.47348637687182 kcal/mol)

> <smiles>
C=c1c(=Cc2[nH]c(=O)[nH]c2O)cc(C(=O)N2CCC2)n1Cc1ccn(CC(=O)N2CCOCC2)c1

> <score_type>
oracle

> <origin>
adg

> <m_score__min__energy>
-17.09

> <m_primary>
energy

> <minimizedAffinity>
-6.17411

> <minimizedRMSD>
0.56147

> <CNNscore>
0.0875428319

> <CNNaffinity>
6.0680489540

> <CNN_VS>
0.5312141776

> <CNNaffinity_variance>
0.3496376574

$$$$
44:0


 26 28  0  0  0  0  0  0  0  0999 V2000
   57.9375   31.4457   45.1162 C   0  0  0  0  0  0  0  0  0  0  0  0
   57.9425   32.5526   44.2502 C   0  0  0  0  0  0  0  0  0  0  0  0
   58.5003   33.7664   44.6554 C   0  0  0  0  0  0  0  0  0  0  0  0
   59.0681   33.8892   45.9246 C   0  0  0  0  0  0  0  0  0  0  0  0
   59.0933   32.7931   46.8013 C   0  0  0  0  0  0  0  0  0  0  0  0
   58.5135   31.5785   46.3929 C   0  0  0  0  0  0  0  0  0  0  0  0
   57.3392   30.1537   44.6952 C   0  0  0  0  0  0  0  0  0  0  0  0
   56.0867   30.0369   44.6192 O   0  0  0  0  0  0  0  0  0  0  0  0
   60.5124   27.2649   46.4502 C   0  0  0  0  0  0  0  0  0  0  0  0
   59.9378   28.1328   45.5769 N   0  0  0  0  0  0  0  0  0  0  0  0
   58.6019   28.1311   45.3122 C   0  0  0  0  0  0  0  0  0  0  0  0
   58.1535   29.0002   44.4471 N   0  0  0  0  0  0  0  0  0  0  0  0
   57.7715   27.2080   46.0013 C   0  0  0  0  0  0  0  0  0  0  0  0
   56.3901   27.1886   45.8458 O   0  0  0  0  0  0  0  0  0  0  0  0
   58.3545   26.3046   46.8943 C   0  0  0  0  0  0  0  0  0  0  0  0
   59.7283   26.3274   47.1204 C   0  0  0  0  0  0  0  0  0  0  0  0
   59.6947   32.9316   48.1495 C   0  0  0  0  0  0  0  0  0  0  0  0
   59.0969   32.4455   49.1471 O   0  0  0  0  0  0  0  0  0  0  0  0
   60.9770   33.5438   48.3518 N   0  0  0  0  0  0  0  0  0  0  0  0
   61.9720   33.0231   49.0093 C   0  0  0  0  0  0  0  0  0  0  0  0
   63.6139   33.3097   48.7272 S   0  0  0  0  0  0  0  0  0  0  0  0
   64.0975   32.3167   49.9978 C   0  0  0  0  0  0  0  0  0  0  0  0
   65.5067   32.1155   50.4449 C   0  0  0  0  0  0  0  0  0  0  0  0
   62.9640   31.8156   50.6307 C   0  0  0  0  0  0  0  0  0  0  0  0
   61.7898   32.2100   50.0724 N   0  0  0  0  0  0  0  0  0  0  0  0
   60.9053   31.9341   50.4053 H   0  0  0  0  0  0  0  0  0  0  0  0
  9 10  1  0
 10 11  1  0
 11 12  2  0
 12  7  1  0
  7  8  2  0
  7  1  1  0
  1  2  2  0
  2  3  1  0
  3  4  2  0
  4  5  1  0
  5 17  1  0
 17 18  2  0
 17 19  1  0
 19 20  2  0
 20 21  1  0
 21 22  1  0
 22 23  1  0
 22 24  2  0
 24 25  1  0
  5  6  2  0
 11 13  1  0
 13 14  1  0
 13 15  2  0
 15 16  1  0
 16  9  2  0
  6  1  1  0
 25 20  1  0
 25 26  1  0
M  CHG 1  10  -1
M  CHG 1  14  -1
M  END
> <UniqueID>
43

> <SMILES>
Cc1c[nH]/c(=N/C(=O)c2cccc(C(=O)N=c3[n-]cccc3[O-])c2)s1

> <Energy>
91.37770664149315

> <Genealogy>
Cc1c[nH]c(=NC(=O)c2cccc(C(=O)N=c3[n-]cccc3[O-])c2)s1 (protonated)
Cc1c[nH]/c(=N/C(=O)c2cccc(C(=O)N=c3[n-]cccc3[O-])c2)s1 (cis-trans isomerization)
Cc1c[nH]/c(=N/C(=O)c2cccc(C(=O)N=c3[n-]cccc3[O-])c2)s1 (3D coordinates assigned)
Cc1c[nH]/c(=N/C(=O)c2cccc(C(=O)N=c3[n-]cccc3[O-])c2)s1 (optimized conformer: 91.37770664149315 kcal/mol)

> <smiles>
Cc1c[nH]c(=NC(=O)c2cccc(C(=O)N=c3[nH]cccc3O)c2)s1

> <score_type>
oracle

> <origin>
adg

> <m_score__min__energy>
-14.199999999999999

> <m_primary>
energy

> <minimizedAffinity>
-8.01244

> <minimizedRMSD>
1.97786

> <CNNscore>
0.6965785623

> <CNNaffinity>
6.7304420471

> <CNN_VS>
4.6882815361

> <CNNaffinity_variance>
0.1888983697

$$$$
45:0


 31 34  0  0  0  0  0  0  0  0999 V2000
   58.8233   31.1032   44.9160 C   0  0  0  0  0  0  0  0  0  0  0  0
   60.2803   29.1651   46.7194 C   0  0  0  0  0  0  0  0  0  0  0  0
   59.3389   28.7774   45.8398 C   0  0  0  0  0  0  0  0  0  0  0  0
   58.8974   27.4618   45.5971 C   0  0  0  0  0  0  0  0  0  0  0  0
   59.2183   26.2922   46.1818 C   0  0  0  0  0  0  0  0  0  0  0  0
   57.9804   27.5470   44.5667 C   0  0  0  0  0  0  0  0  0  0  0  0
   57.8746   28.8767   44.2264 C   0  0  0  0  0  0  0  0  0  0  0  0
   56.9263   29.3999   43.1859 C   0  0  0  0  0  0  0  0  0  0  0  0
   58.6942   29.6338   44.9968 N   0  0  0  0  0  0  0  0  0  0  0  0
   58.4537   25.0504   46.0665 C   0  0  0  0  0  0  0  0  0  0  0  0
   58.9777   23.8728   45.6794 N   0  0  0  0  0  0  0  0  0  0  0  0
   57.9261   23.0304   45.7582 C   0  0  0  0  0  0  0  0  0  0  0  0
   58.0157   21.8100   45.4643 O   0  0  0  0  0  0  0  0  0  0  0  0
   56.7728   23.5987   46.1739 N   0  0  0  0  0  0  0  0  0  0  0  0
   57.1282   24.8769   46.3722 C   0  0  0  0  0  0  0  0  0  0  0  0
   56.2561   25.8672   46.8132 O   0  0  0  0  0  0  0  0  0  0  0  0
   57.5002   31.8057   45.2479 C   0  0  0  0  0  0  0  0  0  0  0  0
   57.7184   33.1934   45.7880 C   0  0  0  0  0  0  0  0  0  0  0  0
   57.3907   34.1841   45.0790 O   0  0  0  0  0  0  0  0  0  0  0  0
   58.3593   33.4146   47.0581 N   0  0  0  0  0  0  0  0  0  0  0  0
   59.3621   34.4852   47.1750 C   0  0  0  0  0  0  0  0  0  0  0  0
   60.0235   34.4823   48.5590 C   0  0  0  0  0  0  0  0  0  0  0  0
   60.3044   33.0993   48.9673 N   0  0  0  0  0  0  0  0  0  0  0  0
   59.2319   32.0937   48.9287 C   0  0  0  0  0  0  0  0  0  0  0  0
   57.9747   32.6506   48.2535 C   0  0  0  0  0  0  0  0  0  0  0  0
   61.6493   32.6765   49.2486 C   0  0  0  0  0  0  0  0  0  0  0  0
   61.8832   31.5896   50.1071 C   0  0  0  0  0  0  0  0  0  0  0  0
   63.1914   31.2227   50.4358 C   0  0  0  0  0  0  0  0  0  0  0  0
   64.2731   31.9259   49.8942 C   0  0  0  0  0  0  0  0  0  0  0  0
   64.0479   32.9960   49.0264 C   0  0  0  0  0  0  0  0  0  0  0  0
   62.7402   33.3740   48.7074 C   0  0  0  0  0  0  0  0  0  0  0  0
  2  3  2  0
  3  4  1  0
  4  5  2  0
  5 10  1  0
 10 11  1  0
 11 12  1  0
 12 13  2  0
 12 14  1  0
 14 15  1  0
 15 16  1  0
  4  6  1  0
  6  7  2  0
  7  8  1  0
  7  9  1  0
  9  1  1  0
  1 17  1  0
 17 18  1  0
 18 19  2  0
 18 20  1  0
 20 21  1  0
 21 22  1  0
 22 23  1  0
 23 26  1  0
 26 27  2  0
 27 28  1  0
 28 29  2  0
 29 30  1  0
 30 31  2  0
 23 24  1  0
 24 25  1  0
  9  3  1  0
 25 20  1  0
 15 10  2  0
 31 26  1  0
M  CHG 1  11  -1
M  CHG 1  14  -1
M  CHG 1  16  -1
M  END
> <UniqueID>
44

> <SMILES>
C=c1c(=Cc2[n-]c(=O)[n-]c2[O-])cc(C)n1CCC(=O)N1CCN(c2ccccc2)CC1

> <Energy>
128.8707512741676

> <Genealogy>
C=c1c(=Cc2[n-]c(=O)[n-]c2[O-])cc(C)n1CCC(=O)N1CCN(c2ccccc2)CC1 (protonated)
C=c1c(=Cc2[n-]c(=O)[n-]c2[O-])cc(C)n1CCC(=O)N1CCN(c2ccccc2)CC1 (3D coordinates assigned)
C=c1c(=Cc2[n-]c(=O)[n-]c2[O-])cc(C)n1CCC(=O)N1CCN(c2ccccc2)CC1 (nonaromatic ring conformer: 128.8707512741676 kcal/mol)

> <smiles>
C=c1c(=Cc2[nH]c(=O)[nH]c2O)cc(C)n1CCC(=O)N1CCN(c2ccccc2)CC1

> <score_type>
oracle

> <origin>
adg

> <m_score__min__energy>
-17.989999999999998

> <m_primary>
energy

> <minimizedAffinity>
-7.62140

> <minimizedRMSD>
1.23432

> <CNNscore>
0.0829858035

> <CNNaffinity>
6.2493071556

> <CNN_VS>
0.5186038017

> <CNNaffinity_variance>
0.1852128357

$$$$
46:0


 28 31  0  0  0  0  0  0  0  0999 V2000
   56.5626   31.8314   52.1429 C   0  0  0  0  0  0  0  0  0  0  0  0
   56.4459   30.6866   52.8374 C   0  0  0  0  0  0  0  0  0  0  0  0
   55.3571   29.7980   52.7945 C   0  0  0  0  0  0  0  0  0  0  0  0
   54.1245   29.9298   52.2650 C   0  0  0  0  0  0  0  0  0  0  0  0
   55.7591   28.6590   53.4656 C   0  0  0  0  0  0  0  0  0  0  0  0
   57.0198   28.9096   53.9608 C   0  0  0  0  0  0  0  0  0  0  0  0
   57.8185   27.9208   54.7577 C   0  0  0  0  0  0  0  0  0  0  0  0
   57.4493   30.1374   53.5793 N   0  0  0  0  0  0  0  0  0  0  0  0
   52.9351   30.4356   52.9690 C   0  0  0  0  0  0  0  0  0  0  0  0
   52.7324   30.3424   54.2968 N   0  0  0  0  0  0  0  0  0  0  0  0
   51.4715   30.8035   54.4516 C   0  0  0  0  0  0  0  0  0  0  0  0
   50.9153   30.8875   55.5771 O   0  0  0  0  0  0  0  0  0  0  0  0
   50.8516   31.1543   53.3055 N   0  0  0  0  0  0  0  0  0  0  0  0
   51.7869   30.9011   52.3769 C   0  0  0  0  0  0  0  0  0  0  0  0
   51.5937   31.0884   51.0139 O   0  0  0  0  0  0  0  0  0  0  0  0
   58.7654   30.7125   53.9147 C   0  0  0  0  0  0  0  0  0  0  0  0
   59.5180   31.1211   52.6687 C   0  0  0  0  0  0  0  0  0  0  0  0
   59.8345   32.4714   52.4529 C   0  0  0  0  0  0  0  0  0  0  0  0
   60.5365   32.8624   51.3109 C   0  0  0  0  0  0  0  0  0  0  0  0
   60.9338   31.9142   50.3499 C   0  0  0  0  0  0  0  0  0  0  0  0
   60.6039   30.5619   50.5665 C   0  0  0  0  0  0  0  0  0  0  0  0
   59.9019   30.1690   51.7096 C   0  0  0  0  0  0  0  0  0  0  0  0
   59.5976   28.8586   51.8734 F   0  0  0  0  0  0  0  0  0  0  0  0
   61.6635   32.3184   49.1678 N   0  0  0  0  0  0  0  0  0  0  0  0
   61.0827   33.0864   48.0763 C   0  0  0  0  0  0  0  0  0  0  0  0
   62.2378   33.4256   47.1445 C   0  0  0  0  0  0  0  0  0  0  0  0
   63.3618   32.4633   47.5115 C   0  0  0  0  0  0  0  0  0  0  0  0
   63.0653   32.0028   48.9309 C   0  0  0  0  0  0  0  0  0  0  0  0
  1  2  2  0
  2  3  1  0
  3  4  2  0
  4  9  1  0
  9 10  1  0
 10 11  1  0
 11 12  2  0
 11 13  1  0
 13 14  1  0
 14 15  1  0
  3  5  1  0
  5  6  2  0
  6  7  1  0
  6  8  1  0
  8 16  1  0
 16 17  1  0
 17 18  2  0
 18 19  1  0
 19 20  2  0
 20 24  1  0
 24 25  1  0
 25 26  1  0
 26 27  1  0
 27 28  1  0
 20 21  1  0
 21 22  2  0
 22 23  1  0
  8  2  1  0
 22 17  1  0
 14  9  2  0
 28 24  1  0
M  CHG 1  10  -1
M  CHG 1  13  -1
M  CHG 1  15  -1
M  END
> <UniqueID>
45

> <SMILES>
C=c1c(=Cc2[n-]c(=O)[n-]c2[O-])cc(C)n1Cc1ccc(N2CCCC2)cc1F

> <Energy>
121.93853940761632

> <Genealogy>
C=c1c(=Cc2[n-]c(=O)[n-]c2[O-])cc(C)n1Cc1ccc(N2CCCC2)cc1F (protonated)
C=c1c(=Cc2[n-]c(=O)[n-]c2[O-])cc(C)n1Cc1ccc(N2CCCC2)cc1F (3D coordinates assigned)
C=c1c(=Cc2[n-]c(=O)[n-]c2[O-])cc(C)n1Cc1ccc(N2CCCC2)cc1F (nonaromatic ring conformer: 121.93853940761632 kcal/mol)

> <smiles>
C=c1c(=Cc2[nH]c(=O)[nH]c2O)cc(C)n1Cc1ccc(N2CCCC2)cc1F

> <score_type>
oracle

> <origin>
adg

> <m_score__min__energy>
-16.489999999999998

> <m_primary>
energy

> <minimizedAffinity>
-6.38525

> <minimizedRMSD>
1.60226

> <CNNscore>
0.1919311583

> <CNNaffinity>
5.5442700386

> <CNN_VS>
1.0641181469

> <CNNaffinity_variance>
0.0500920862

$$$$
49:0


 23 25  0  0  0  0  0  0  0  0999 V2000
   59.0987   29.4031   44.7000 C   0  0  0  0  0  0  0  0  0  0  0  0
   59.3523   28.6358   45.7744 C   0  0  0  0  0  0  0  0  0  0  0  0
   58.7618   27.3922   46.0593 C   0  0  0  0  0  0  0  0  0  0  0  0
   57.9877   26.5800   45.3102 C   0  0  0  0  0  0  0  0  0  0  0  0
   59.1027   27.0948   47.3610 C   0  0  0  0  0  0  0  0  0  0  0  0
   59.9060   28.1173   47.8158 C   0  0  0  0  0  0  0  0  0  0  0  0
   60.4604   28.1543   49.2127 C   0  0  0  0  0  0  0  0  0  0  0  0
   60.1091   29.0403   46.8383 N   0  0  0  0  0  0  0  0  0  0  0  0
   57.5175   25.2415   45.6916 C   0  0  0  0  0  0  0  0  0  0  0  0
   58.2774   24.1364   45.6105 N   0  0  0  0  0  0  0  0  0  0  0  0
   57.4193   23.1443   45.9387 C   0  0  0  0  0  0  0  0  0  0  0  0
   57.7688   21.9367   45.9926 O   0  0  0  0  0  0  0  0  0  0  0  0
   56.1561   23.5481   46.1929 N   0  0  0  0  0  0  0  0  0  0  0  0
   56.2313   24.8764   46.0175 C   0  0  0  0  0  0  0  0  0  0  0  0
   55.1414   25.7313   46.1213 O   0  0  0  0  0  0  0  0  0  0  0  0
   60.8573   30.3087   46.9817 C   0  0  0  0  0  0  0  0  0  0  0  0
   60.1414   31.3266   47.7825 N   0  0  0  0  0  0  0  0  0  0  0  0
   60.9420   32.4034   48.3958 C   0  0  0  0  0  0  0  0  0  0  0  0
   61.0107   33.6606   47.5184 C   0  0  0  0  0  0  0  0  0  0  0  0
   59.6399   34.0283   47.0478 C   0  0  0  0  0  0  0  0  0  0  0  0
   59.2694   35.1930   47.0639 O   0  0  0  0  0  0  0  0  0  0  0  0
   58.7704   32.9618   46.4629 C   0  0  0  0  0  0  0  0  0  0  0  0
   58.7813   31.7148   47.3562 C   0  0  0  0  0  0  0  0  0  0  0  0
  1  2  2  0
  2  3  1  0
  3  4  2  0
  4  9  1  0
  9 10  1  0
 10 11  1  0
 11 12  2  0
 11 13  1  0
 13 14  1  0
 14 15  1  0
  3  5  1  0
  5  6  2  0
  6  7  1  0
  6  8  1  0
  8 16  1  0
 16 17  1  0
 17 18  1  0
 18 19  1  0
 19 20  1  0
 20 21  2  0
 20 22  1  0
 22 23  1  0
  8  2  1  0
 23 17  1  0
 14  9  2  0
M  CHG 1  10  -1
M  CHG 1  13  -1
M  CHG 1  15  -1
M  END
> <UniqueID>
48

> <SMILES>
C=c1c(=Cc2[n-]c(=O)[n-]c2[O-])cc(C)n1CN1CCC(=O)CC1

> <Energy>
121.41183754885094

> <Genealogy>
C=c1c(=Cc2[n-]c(=O)[n-]c2[O-])cc(C)n1CN1CCC(=O)CC1 (protonated)
C=c1c(=Cc2[n-]c(=O)[n-]c2[O-])cc(C)n1CN1CCC(=O)CC1 (3D coordinates assigned)
C=c1c(=Cc2[n-]c(=O)[n-]c2[O-])cc(C)n1CN1CCC(=O)CC1 (nonaromatic ring conformer: 121.41183754885094 kcal/mol)

> <smiles>
C=c1c(=Cc2[nH]c(=O)[nH]c2O)cc(C)n1CN1CCC(=O)CC1

> <score_type>
oracle

> <origin>
adg

> <m_score__min__energy>
-15.26

> <m_primary>
energy

> <minimizedAffinity>
-7.65250

> <minimizedRMSD>
1.79618

> <CNNscore>
0.1355642378

> <CNNaffinity>
5.8238987923

> <CNN_VS>
0.7895123959

> <CNNaffinity_variance>
0.1150692999

$$$$
58:0


 32 35  0  0  0  0  0  0  0  0999 V2000
   58.0083   27.0158   45.4181 C   0  0  0  0  0  0  0  0  0  0  0  0
   58.4363   28.0386   46.1848 C   0  0  0  0  0  0  0  0  0  0  0  0
   58.8937   27.8576   47.4762 C   0  0  0  0  0  0  0  0  0  0  0  0
   59.3268   29.0859   47.9287 C   0  0  0  0  0  0  0  0  0  0  0  0
   59.1407   30.0337   46.9770 N   0  0  0  0  0  0  0  0  0  0  0  0
   58.5680   29.4107   45.9109 C   0  0  0  0  0  0  0  0  0  0  0  0
   58.1183   30.0587   44.8233 C   0  0  0  0  0  0  0  0  0  0  0  0
   55.0502   26.5125   45.9613 O   0  0  0  0  0  0  0  0  0  0  0  0
   56.0650   25.5900   46.1978 C   0  0  0  0  0  0  0  0  0  0  0  0
   55.8685   24.3830   46.7536 N   0  0  0  0  0  0  0  0  0  0  0  0
   57.1190   23.8748   46.8032 C   0  0  0  0  0  0  0  0  0  0  0  0
   57.3688   22.7335   47.2729 O   0  0  0  0  0  0  0  0  0  0  0  0
   58.0826   24.6887   46.3197 N   0  0  0  0  0  0  0  0  0  0  0  0
   57.3954   25.7712   45.9081 C   0  0  0  0  0  0  0  0  0  0  0  0
   54.1658   26.3054   46.1913 H   0  0  0  0  0  0  0  0  0  0  0  0
   59.9875   29.2778   49.2382 C   0  0  0  0  0  0  0  0  0  0  0  0
   61.2163   29.5503   49.2650 O   0  0  0  0  0  0  0  0  0  0  0  0
   59.2690   29.1963   50.4756 N   0  0  0  0  0  0  0  0  0  0  0  0
   58.6446   30.1633   51.0880 C   0  0  0  0  0  0  0  0  0  0  0  0
   57.3560   29.9611   51.4703 N   0  0  0  0  0  0  0  0  0  0  0  0
   56.6330   30.9083   52.1215 C   0  0  0  0  0  0  0  0  0  0  0  0
   57.2058   32.1447   52.4193 C   0  0  0  0  0  0  0  0  0  0  0  0
   58.5304   32.3979   52.0419 C   0  0  0  0  0  0  0  0  0  0  0  0
   59.1535   33.7366   52.3059 C   0  0  0  0  0  0  0  0  0  0  0  0
   59.2495   31.4115   51.3526 C   0  0  0  0  0  0  0  0  0  0  0  0
   59.5391   31.4500   47.0622 C   0  0  0  0  0  0  0  0  0  0  0  0
   58.4738   32.2787   47.8222 C   0  0  0  0  0  0  0  0  0  0  0  0
   58.1530   33.5863   47.2032 N   0  0  0  0  0  0  0  0  0  0  0  0
   57.4873   33.4804   45.8986 C   0  0  0  0  0  0  0  0  0  0  0  0
   58.4988   33.8705   44.8378 C   0  0  0  0  0  0  0  0  0  0  0  0
   59.4813   34.7729   45.5511 C   0  0  0  0  0  0  0  0  0  0  0  0
   59.3183   34.4703   47.0375 C   0  0  0  0  0  0  0  0  0  0  0  0
  8  9  1  0
  9 10  1  0
 10 11  1  0
 11 12  2  0
 11 13  1  0
 13 14  1  0
 14  1  1  0
  1  2  2  0
  2  3  1  0
  3  4  2  0
  4 16  1  0
 16 17  2  0
 16 18  1  0
 18 19  2  0
 19 20  1  0
 20 21  1  0
 21 22  2  0
 22 23  1  0
 23 24  1  0
 23 25  2  0
  4  5  1  0
  5 26  1  0
 26 27  1  0
 27 28  1  0
 28 29  1  0
 29 30  1  0
 30 31  1  0
 31 32  1  0
  5  6  1  0
  6  7  2  0
 14  9  2  0
  6  2  1  0
 25 19  1  0
 32 28  1  0
  8 15  1  0
M  CHG 1  10  -1
M  CHG 1  13  -1
M  CHG 1  20  -1
M  END
> <UniqueID>
56

> <SMILES>
C=c1/c(=C\c2[n-]c(=O)[n-]c2O)cc(C(=O)N=c2cc(C)cc[n-]2)n1CCN1CCCC1

> <Energy>
140.75895592115987

> <Genealogy>
C=c1c(=Cc2[n-]c(=O)[n-]c2O)cc(C(=O)N=c2cc(C)cc[n-]2)n1CCN1CCCC1 (protonated)
C=c1/c(=C\c2[n-]c(=O)[n-]c2O)cc(C(=O)N=c2cc(C)cc[n-]2)n1CCN1CCCC1 (cis-trans isomerization)
C=c1/c(=C\c2[n-]c(=O)[n-]c2O)cc(C(=O)N=c2cc(C)cc[n-]2)n1CCN1CCCC1 (3D coordinates assigned)
C=c1/c(=C\c2[n-]c(=O)[n-]c2O)cc(C(=O)N=c2cc(C)cc[n-]2)n1CCN1CCCC1 (nonaromatic ring conformer: 140.75895592115987 kcal/mol)

> <smiles>
C=c1c(=Cc2[nH]c(=O)[nH]c2O)cc(C(=O)N=c2cc(C)cc[nH]2)n1CCN1CCCC1

> <score_type>
oracle

> <origin>
adg

> <m_score__min__energy>
-14.83

> <m_primary>
energy

> <minimizedAffinity>
-9.05328

> <minimizedRMSD>
0.66465

> <CNNscore>
0.3352725208

> <CNNaffinity>
6.7374024391

> <CNN_VS>
2.2588658333

> <CNNaffinity_variance>
0.3427675962

$$$$
62:0


 31 34  0  0  0  0  0  0  0  0999 V2000
   58.9790   32.3653   46.8001 C   0  0  0  0  0  0  0  0  0  0  0  0
   58.8199   33.3901   45.8520 C   0  0  0  0  0  0  0  0  0  0  0  0
   58.2231   33.1210   44.6183 C   0  0  0  0  0  0  0  0  0  0  0  0
   57.7777   31.8316   44.3203 C   0  0  0  0  0  0  0  0  0  0  0  0
   57.9223   30.7999   45.2619 C   0  0  0  0  0  0  0  0  0  0  0  0
   58.5520   31.0650   46.4841 C   0  0  0  0  0  0  0  0  0  0  0  0
   63.2868   32.6326   49.2436 N   0  0  0  0  0  0  0  0  0  0  0  0
   63.3458   33.1079   47.8483 C   0  0  0  0  0  0  0  0  0  0  0  0
   61.9572   32.9690   47.2153 C   0  0  0  0  0  0  0  0  0  0  0  0
   60.9053   33.2833   48.1949 N   0  0  0  0  0  0  0  0  0  0  0  0
   59.6104   32.6561   48.1060 C   0  0  0  0  0  0  0  0  0  0  0  0
   59.0068   32.3248   49.1627 O   0  0  0  0  0  0  0  0  0  0  0  0
   61.2513   34.1196   49.3514 C   0  0  0  0  0  0  0  0  0  0  0  0
   62.4912   33.5610   50.0825 C   0  0  0  0  0  0  0  0  0  0  0  0
   64.8308   33.3259   51.0416 C   0  0  0  0  0  0  0  0  0  0  0  0
   64.6389   32.4418   49.8106 C   0  0  0  0  0  0  0  0  0  0  0  0
   57.4291   29.4783   45.0057 N   0  0  0  0  0  0  0  0  0  0  0  0
   58.1736   28.2869   45.2691 C   0  0  0  0  0  0  0  0  0  0  0  0
   59.0980   27.9471   44.4832 O   0  0  0  0  0  0  0  0  0  0  0  0
   57.9338   27.4978   46.5269 C   0  0  0  0  0  0  0  0  0  0  0  0
   57.6898   26.0884   46.2224 N   0  0  0  0  0  0  0  0  0  0  0  0
   58.6247   25.1434   45.9805 C   0  0  0  0  0  0  0  0  0  0  0  0
   59.9952   25.3525   46.0903 O   0  0  0  0  0  0  0  0  0  0  0  0
   58.0262   23.9688   45.5738 C   0  0  0  0  0  0  0  0  0  0  0  0
   56.6663   24.1920   45.5954 C   0  0  0  0  0  0  0  0  0  0  0  0
   56.4945   25.5083   45.9745 C   0  0  0  0  0  0  0  0  0  0  0  0
   55.2725   26.1682   46.0515 O   0  0  0  0  0  0  0  0  0  0  0  0
   55.6554   23.2252   45.0612 C   0  0  0  0  0  0  0  0  0  0  0  0
   56.2575   21.8078   44.9920 C   0  0  0  0  0  0  0  0  0  0  0  0
   57.6669   21.8186   44.3613 C   0  0  0  0  0  0  0  0  0  0  0  0
   58.6567   22.6665   45.1842 C   0  0  0  0  0  0  0  0  0  0  0  0
 15 16  1  0
 16  7  1  0
  7  8  1  0
  8  9  1  0
  9 10  1  0
 10 11  1  0
 11 12  2  0
 11  1  1  0
  1  2  2  0
  2  3  1  0
  3  4  2  0
  4  5  1  0
  5 17  1  0
 17 18  1  0
 18 19  2  0
 18 20  1  0
 20 21  1  0
 21 22  1  0
 22 23  1  0
 22 24  2  0
 24 25  1  0
 25 26  2  0
 26 27  1  0
 25 28  1  0
 28 29  1  0
 29 30  1  0
 30 31  1  0
  5  6  2  0
 10 13  1  0
 13 14  1  0
 14  7  1  0
  6  1  1  0
 26 21  1  0
 31 24  1  0
M  CHG 1  17  -1
M  CHG 1  23  -1
M  CHG 1  27  -1
M  END
> <UniqueID>
60

> <SMILES>
CCN1CCN(C(=O)c2cccc([N-]C(=O)Cn3c([O-])c4c(c3[O-])CCCC4)c2)CC1

> <Energy>
100.68459032653442

> <Genealogy>
CCN1CCN(C(=O)c2cccc([N-]C(=O)Cn3c([O-])c4c(c3[O-])CCCC4)c2)CC1 (protonated)
CCN1CCN(C(=O)c2cccc([N-]C(=O)Cn3c([O-])c4c(c3[O-])CCCC4)c2)CC1 (3D coordinates assigned)
CCN1CCN(C(=O)c2cccc([N-]C(=O)Cn3c([O-])c4c(c3[O-])CCCC4)c2)CC1 (nonaromatic ring conformer: 100.68459032653442 kcal/mol)

> <smiles>
CCN1CCN(C(=O)c2cccc(NC(=O)Cn3c(O)c4c(c3O)CCCC4)c2)CC1

> <score_type>
oracle

> <origin>
adg

> <m_score__min__energy>
-15.69

> <m_primary>
energy

> <minimizedAffinity>
-8.87340

> <minimizedRMSD>
0.84009

> <CNNscore>
0.3773787618

> <CNNaffinity>
6.5918288231

> <CNN_VS>
2.4876163006

> <CNNaffinity_variance>
0.0296380725

$$$$
66:0


 36 39  0  0  0  0  0  0  0  0999 V2000
   57.6215   26.4452   44.8022 C   0  0  0  0  0  0  0  0  0  0  0  0
   58.0457   27.6830   45.1206 C   0  0  0  0  0  0  0  0  0  0  0  0
   57.8478   28.7771   44.2912 C   0  0  0  0  0  0  0  0  0  0  0  0
   58.4725   29.8521   44.8886 C   0  0  0  0  0  0  0  0  0  0  0  0
   58.4641   31.2543   44.3584 C   0  0  0  0  0  0  0  0  0  0  0  0
   59.0043   29.4821   46.0714 N   0  0  0  0  0  0  0  0  0  0  0  0
   59.6512   30.3733   46.9925 C   0  0  0  0  0  0  0  0  0  0  0  0
   60.4240   29.8986   47.8667 O   0  0  0  0  0  0  0  0  0  0  0  0
   59.3982   31.7887   46.9356 N   0  0  0  0  0  0  0  0  0  0  0  0
   58.0430   32.2880   47.1925 C   0  0  0  0  0  0  0  0  0  0  0  0
   58.7420   28.1647   46.2435 C   0  0  0  0  0  0  0  0  0  0  0  0
   59.0383   27.4988   47.3712 C   0  0  0  0  0  0  0  0  0  0  0  0
   54.7491   26.1718   45.8742 O   0  0  0  0  0  0  0  0  0  0  0  0
   55.8275   25.3823   46.2619 C   0  0  0  0  0  0  0  0  0  0  0  0
   55.7650   24.4549   47.2321 N   0  0  0  0  0  0  0  0  0  0  0  0
   57.0352   23.9995   47.2848 C   0  0  0  0  0  0  0  0  0  0  0  0
   57.4044   23.1153   48.1017 O   0  0  0  0  0  0  0  0  0  0  0  0
   57.8871   24.5827   46.4138 N   0  0  0  0  0  0  0  0  0  0  0  0
   57.1017   25.4434   45.7427 C   0  0  0  0  0  0  0  0  0  0  0  0
   53.9146   26.0596   46.2852 H   0  0  0  0  0  0  0  0  0  0  0  0
   60.4925   32.7259   46.6521 C   0  0  0  0  0  0  0  0  0  0  0  0
   61.4286   32.8266   47.8271 C   0  0  0  0  0  0  0  0  0  0  0  0
   60.9663   33.2970   49.0661 C   0  0  0  0  0  0  0  0  0  0  0  0
   61.8462   33.4213   50.1441 C   0  0  0  0  0  0  0  0  0  0  0  0
   63.1947   33.0599   50.0060 C   0  0  0  0  0  0  0  0  0  0  0  0
   63.6568   32.5945   48.7656 C   0  0  0  0  0  0  0  0  0  0  0  0
   62.7814   32.4805   47.6841 C   0  0  0  0  0  0  0  0  0  0  0  0
   64.1164   33.1949   51.1529 C   0  0  0  0  0  0  0  0  0  0  0  0
   64.2507   34.3271   51.6928 O   0  0  0  0  0  0  0  0  0  0  0  0
   64.8521   32.0686   51.6719 N   0  0  0  0  0  0  0  0  0  0  0  0
   64.3077   30.7076   51.5755 C   0  0  0  0  0  0  0  0  0  0  0  0
   64.7296   29.8891   52.7979 C   0  0  0  0  0  0  0  0  0  0  0  0
   66.2023   29.8113   52.9217 N   0  0  0  0  0  0  0  0  0  0  0  0
   66.5780   29.3814   54.2778 C   0  0  0  0  0  0  0  0  0  0  0  0
   66.9277   31.0491   52.5278 C   0  0  0  0  0  0  0  0  0  0  0  0
   66.0374   32.3003   52.5059 C   0  0  0  0  0  0  0  0  0  0  0  0
 13 14  1  0
 14 15  1  0
 15 16  1  0
 16 17  2  0
 16 18  1  0
 18 19  1  0
 19  1  1  0
  1  2  2  0
  2  3  1  0
  3  4  2  0
  4  5  1  0
  4  6  1  0
  6  7  1  0
  7  8  2  0
  7  9  1  0
  9 10  1  0
  9 21  1  0
 21 22  1  0
 22 23  2  0
 23 24  1  0
 24 25  2  0
 25 28  1  0
 28 29  2  0
 28 30  1  0
 30 31  1  0
 31 32  1  0
 32 33  1  0
 33 34  1  0
 33 35  1  0
 35 36  1  0
 25 26  1  0
 26 27  2  0
  6 11  1  0
 11 12  2  0
 19 14  2  0
 11  2  1  0
 27 22  1  0
 36 30  1  0
 13 20  1  0
M  CHG 1  15  -1
M  CHG 1  18  -1
M  END
> <UniqueID>
64

> <SMILES>
C=c1/c(=C\c2[n-]c(=O)[n-]c2O)cc(C)n1C(=O)N(C)Cc1ccc(C(=O)N2CCN(C)CC2)cc1

> <Energy>
148.75012914372442

> <Genealogy>
C=c1c(=Cc2[n-]c(=O)[n-]c2O)cc(C)n1C(=O)N(C)Cc1ccc(C(=O)N2CCN(C)CC2)cc1 (protonated)
C=c1/c(=C\c2[n-]c(=O)[n-]c2O)cc(C)n1C(=O)N(C)Cc1ccc(C(=O)N2CCN(C)CC2)cc1 (cis-trans isomerization)
C=c1/c(=C\c2[n-]c(=O)[n-]c2O)cc(C)n1C(=O)N(C)Cc1ccc(C(=O)N2CCN(C)CC2)cc1 (3D coordinates assigned)
C=c1/c(=C\c2[n-]c(=O)[n-]c2O)cc(C)n1C(=O)N(C)Cc1ccc(C(=O)N2CCN(C)CC2)cc1 (nonaromatic ring conformer: 148.75012914372442 kcal/mol)

> <smiles>
C=c1c(=Cc2[nH]c(=O)[nH]c2O)cc(C)n1C(=O)N(C)Cc1ccc(C(=O)N2CCN(C)CC2)cc1

> <score_type>
oracle

> <origin>
adg

> <m_score__min__energy>
-14.24

> <m_primary>
energy

> <minimizedAffinity>
-8.55188

> <minimizedRMSD>
1.50150

> <CNNscore>
0.3149803281

> <CNNaffinity>
6.9026961327

> <CNN_VS>
2.1742134094

> <CNNaffinity_variance>
0.2644543946

$$$$
68:0


 30 33  0  0  0  0  0  0  0  0999 V2000
   59.3341   28.7383   45.0480 C   0  0  0  0  0  0  0  0  0  0  0  0
   59.1133   29.9388   45.6212 C   0  0  0  0  0  0  0  0  0  0  0  0
   58.4115   30.9458   44.9858 C   0  0  0  0  0  0  0  0  0  0  0  0
   58.4629   32.0505   45.8056 C   0  0  0  0  0  0  0  0  0  0  0  0
   57.9119   33.3960   45.4362 C   0  0  0  0  0  0  0  0  0  0  0  0
   59.1445   31.7706   46.9439 N   0  0  0  0  0  0  0  0  0  0  0  0
   59.5258   30.4655   46.8581 C   0  0  0  0  0  0  0  0  0  0  0  0
   60.1081   29.7862   47.8609 C   0  0  0  0  0  0  0  0  0  0  0  0
   56.2791   28.2180   45.2805 O   0  0  0  0  0  0  0  0  0  0  0  0
   57.2843   27.2825   45.5120 C   0  0  0  0  0  0  0  0  0  0  0  0
   57.0433   26.0301   45.9308 N   0  0  0  0  0  0  0  0  0  0  0  0
   58.2842   25.5160   46.0692 C   0  0  0  0  0  0  0  0  0  0  0  0
   58.4911   24.3369   46.4601 O   0  0  0  0  0  0  0  0  0  0  0  0
   59.2886   26.3671   45.7680 N   0  0  0  0  0  0  0  0  0  0  0  0
   58.6450   27.4844   45.3864 C   0  0  0  0  0  0  0  0  0  0  0  0
   55.3806   27.9784   45.3952 H   0  0  0  0  0  0  0  0  0  0  0  0
   59.4590   32.7405   48.0054 C   0  0  0  0  0  0  0  0  0  0  0  0
   60.9475   32.9580   48.0940 C   0  0  0  0  0  0  0  0  0  0  0  0
   61.6681   33.3914   46.9694 C   0  0  0  0  0  0  0  0  0  0  0  0
   63.0427   33.6119   47.0569 C   0  0  0  0  0  0  0  0  0  0  0  0
   63.7118   33.4094   48.2668 C   0  0  0  0  0  0  0  0  0  0  0  0
   63.0065   32.9874   49.4053 C   0  0  0  0  0  0  0  0  0  0  0  0
   61.6238   32.7521   49.3072 C   0  0  0  0  0  0  0  0  0  0  0  0
   63.6940   32.7743   50.6529 N   0  0  0  0  0  0  0  0  0  0  0  0
   63.9171   31.4239   51.1754 C   0  0  0  0  0  0  0  0  0  0  0  0
   65.4198   31.1887   51.4246 C   0  0  0  0  0  0  0  0  0  0  0  0
   66.1648   32.4157   51.8136 N   0  0  0  0  0  0  0  0  0  0  0  0
   66.9828   32.9346   50.7018 C   0  0  0  0  0  0  0  0  0  0  0  0
   65.3023   33.4650   52.3973 C   0  0  0  0  0  0  0  0  0  0  0  0
   64.2045   33.9159   51.4180 C   0  0  0  0  0  0  0  0  0  0  0  0
  9 10  1  0
 10 11  1  0
 11 12  1  0
 12 13  2  0
 12 14  1  0
 14 15  1  0
 15  1  1  0
  1  2  2  0
  2  3  1  0
  3  4  2  0
  4  5  1  0
  4  6  1  0
  6 17  1  0
 17 18  1  0
 18 19  2  0
 19 20  1  0
 20 21  2  0
 21 22  1  0
 22 24  1  0
 24 25  1  0
 25 26  1  0
 26 27  1  0
 27 28  1  0
 27 29  1  0
 29 30  1  0
 22 23  2  0
  6  7  1  0
  7  8  2  0
 15 10  2  0
  7  2  1  0
 23 18  1  0
 30 24  1  0
  9 16  1  0
M  CHG 1  11  -1
M  CHG 1  14  -1
M  END
> <UniqueID>
66

> <SMILES>
C=c1/c(=C\c2[n-]c(=O)[n-]c2O)cc(C)n1Cc1cccc(N2CCN(C)CC2)c1

> <Energy>
136.14203385497726

> <Genealogy>
C=c1c(=Cc2[n-]c(=O)[n-]c2O)cc(C)n1Cc1cccc(N2CCN(C)CC2)c1 (protonated)
C=c1/c(=C\c2[n-]c(=O)[n-]c2O)cc(C)n1Cc1cccc(N2CCN(C)CC2)c1 (cis-trans isomerization)
C=c1/c(=C\c2[n-]c(=O)[n-]c2O)cc(C)n1Cc1cccc(N2CCN(C)CC2)c1 (3D coordinates assigned)
C=c1/c(=C\c2[n-]c(=O)[n-]c2O)cc(C)n1Cc1cccc(N2CCN(C)CC2)c1 (nonaromatic ring conformer: 136.14203385497726 kcal/mol)

> <smiles>
C=c1c(=Cc2[nH]c(=O)[nH]c2O)cc(C)n1Cc1cccc(N2CCN(C)CC2)c1

> <score_type>
oracle

> <origin>
adg

> <m_score__min__energy>
-14.33

> <m_primary>
energy

> <minimizedAffinity>
-9.02057

> <minimizedRMSD>
0.98752

> <CNNscore>
0.8544423580

> <CNNaffinity>
7.2265410423

> <CNN_VS>
6.1746625900

> <CNNaffinity_variance>
0.0681197122

$$$$
72:0


 30 33  0  0  0  0  0  0  0  0999 V2000
   57.7784   30.8830   52.6000 C   0  0  0  0  0  0  0  0  0  0  0  0
   58.6600   31.2368   53.4325 O   0  0  0  0  0  0  0  0  0  0  0  0
   58.0733   30.8841   51.1825 N   0  0  0  0  0  0  0  0  0  0  0  0
   59.0819   29.8577   50.8611 C   0  0  0  0  0  0  0  0  0  0  0  0
   59.2016   29.7191   49.3405 C   0  0  0  0  0  0  0  0  0  0  0  0
   59.2867   31.0363   48.6909 N   0  0  0  0  0  0  0  0  0  0  0  0
   59.6010   31.1200   47.2842 C   0  0  0  0  0  0  0  0  0  0  0  0
   60.3097   32.0743   46.8618 O   0  0  0  0  0  0  0  0  0  0  0  0
   59.4297   32.2461   49.5180 C   0  0  0  0  0  0  0  0  0  0  0  0
   58.4985   32.2391   50.7526 C   0  0  0  0  0  0  0  0  0  0  0  0
   57.2280   30.5150   50.8384 H   0  0  0  0  0  0  0  0  0  0  0  0
   59.1112   30.1246   46.3097 C   0  0  0  0  0  0  0  0  0  0  0  0
   57.8542   29.9695   45.9610 O   0  0  0  0  0  0  0  0  0  0  0  0
   57.7768   29.0121   45.0658 C   0  0  0  0  0  0  0  0  0  0  0  0
   59.0379   28.5128   44.8111 C   0  0  0  0  0  0  0  0  0  0  0  0
   59.9010   29.2304   45.6102 C   0  0  0  0  0  0  0  0  0  0  0  0
   54.3407   29.4056   55.5388 C   0  0  0  0  0  0  0  0  0  0  0  0
   54.8945   29.8601   54.4140 C   0  0  0  0  0  0  0  0  0  0  0  0
   56.1825   30.0939   54.3051 O   0  0  0  0  0  0  0  0  0  0  0  0
   56.4333   30.5276   53.0909 C   0  0  0  0  0  0  0  0  0  0  0  0
   55.2646   30.5859   52.3556 C   0  0  0  0  0  0  0  0  0  0  0  0
   54.2584   30.1599   53.2103 C   0  0  0  0  0  0  0  0  0  0  0  0
   52.9518   30.0177   52.9172 C   0  0  0  0  0  0  0  0  0  0  0  0
   52.3504   30.3956   51.6271 C   0  0  0  0  0  0  0  0  0  0  0  0
   52.3254   29.5808   50.5580 N   0  0  0  0  0  0  0  0  0  0  0  0
   51.6184   30.2820   49.6458 C   0  0  0  0  0  0  0  0  0  0  0  0
   51.3893   29.8465   48.4863 O   0  0  0  0  0  0  0  0  0  0  0  0
   51.1692   31.4799   50.0740 N   0  0  0  0  0  0  0  0  0  0  0  0
   51.6294   31.5334   51.3346 C   0  0  0  0  0  0  0  0  0  0  0  0
   51.3502   32.5767   52.2087 O   0  0  0  0  0  0  0  0  0  0  0  0
 17 18  2  0
 18 19  1  0
 19 20  1  0
 20  1  1  0
  1  2  2  0
  1  3  1  0
  3  4  1  0
  4  5  1  0
  5  6  1  0
  6  7  1  0
  7  8  2  0
  7 12  1  0
 12 13  1  0
 13 14  1  0
 14 15  2  0
 15 16  1  0
  6  9  1  0
  9 10  1  0
 20 21  2  0
 21 22  1  0
 22 23  2  0
 23 24  1  0
 24 25  1  0
 25 26  1  0
 26 27  2  0
 26 28  1  0
 28 29  1  0
 29 30  1  0
 22 18  1  0
 29 24  2  0
 10  3  1  0
 16 12  2  0
  3 11  1  0
M  CHG 1   3   1
M  CHG 1  25  -1
M  CHG 1  28  -1
M  CHG 1  30  -1
M  END
> <UniqueID>
70

> <SMILES>
C=c1oc(C(=O)[NH+]2CCN(C(=O)c3ccco3)CC2)c/c1=C\c1[n-]c(=O)[n-]c1[O-]

> <Energy>
147.08030380555743

> <Genealogy>
C=c1oc(C(=O)[NH+]2CCN(C(=O)c3ccco3)CC2)cc1=Cc1[n-]c(=O)[n-]c1[O-] (protonated)
C=c1oc(C(=O)[NH+]2CCN(C(=O)c3ccco3)CC2)c/c1=C\c1[n-]c(=O)[n-]c1[O-] (cis-trans isomerization)
C=c1oc(C(=O)[NH+]2CCN(C(=O)c3ccco3)CC2)c/c1=C\c1[n-]c(=O)[n-]c1[O-] (3D coordinates assigned)
C=c1oc(C(=O)[NH+]2CCN(C(=O)c3ccco3)CC2)c/c1=C\c1[n-]c(=O)[n-]c1[O-] (nonaromatic ring conformer: 147.08030380555743 kcal/mol)

> <smiles>
C=c1oc(C(=O)N2CCN(C(=O)c3ccco3)CC2)cc1=Cc1[nH]c(=O)[nH]c1O

> <score_type>
oracle

> <origin>
adg

> <m_score__min__energy>
-17.16

> <m_primary>
energy

> <minimizedAffinity>
-7.09955

> <minimizedRMSD>
0.85205

> <CNNscore>
0.0352035537

> <CNNaffinity>
5.1100020409

> <CNN_VS>
0.1798902303

> <CNNaffinity_variance>
0.1011960432

$$$$
77:0


 28 30  0  0  0  0  0  0  0  0999 V2000
   57.6360   30.5746   52.6359 C   0  0  0  0  0  0  0  0  0  0  0  0
   57.8057   31.8272   53.2444 C   0  0  0  0  0  0  0  0  0  0  0  0
   58.4380   32.8654   52.5571 C   0  0  0  0  0  0  0  0  0  0  0  0
   58.8979   32.6655   51.2523 C   0  0  0  0  0  0  0  0  0  0  0  0
   58.7530   31.4127   50.6298 C   0  0  0  0  0  0  0  0  0  0  0  0
   58.1015   30.3771   51.3260 C   0  0  0  0  0  0  0  0  0  0  0  0
   59.2085   31.1837   49.2343 C   0  0  0  0  0  0  0  0  0  0  0  0
   59.1120   30.0184   48.7694 O   0  0  0  0  0  0  0  0  0  0  0  0
   59.7910   32.2841   48.4119 C   0  0  0  0  0  0  0  0  0  0  0  0
   58.9955   33.1060   47.8778 O   0  0  0  0  0  0  0  0  0  0  0  0
   61.2178   32.4714   48.2132 N   0  0  0  0  0  0  0  0  0  0  0  0
   62.1853   32.0219   49.2334 C   0  0  0  0  0  0  0  0  0  0  0  0
   63.6413   32.3902   48.9073 C   0  0  0  0  0  0  0  0  0  0  0  0
   63.7327   33.6226   48.2340 O   0  0  0  0  0  0  0  0  0  0  0  0
   63.1337   33.4820   46.9675 C   0  0  0  0  0  0  0  0  0  0  0  0
   61.6187   33.3703   47.1155 C   0  0  0  0  0  0  0  0  0  0  0  0
   56.9056   29.4803   53.3650 C   0  0  0  0  0  0  0  0  0  0  0  0
   55.5304   29.8896   53.6218 N   0  0  0  0  0  0  0  0  0  0  0  0
   54.0642   28.1068   53.2377 O   0  0  0  0  0  0  0  0  0  0  0  0
   54.3972   29.2967   52.9778 C   0  0  0  0  0  0  0  0  0  0  0  0
   53.5785   30.1084   52.0226 C   0  0  0  0  0  0  0  0  0  0  0  0
   52.4274   30.7561   52.7315 C   0  0  0  0  0  0  0  0  0  0  0  0
   52.1148   30.5429   54.0233 N   0  0  0  0  0  0  0  0  0  0  0  0
   51.0132   31.3033   54.2060 C   0  0  0  0  0  0  0  0  0  0  0  0
   50.4171   31.3771   55.3107 O   0  0  0  0  0  0  0  0  0  0  0  0
   50.6030   31.9804   53.1117 N   0  0  0  0  0  0  0  0  0  0  0  0
   51.5070   31.6198   52.1862 C   0  0  0  0  0  0  0  0  0  0  0  0
   51.4913   32.0756   50.8732 O   0  0  0  0  0  0  0  0  0  0  0  0
 19 20  2  0
 20 21  1  0
 21 22  1  0
 22 23  1  0
 23 24  1  0
 24 25  2  0
 24 26  1  0
 26 27  1  0
 27 28  1  0
 20 18  1  0
 18 17  1  0
 17  1  1  0
  1  2  2  0
  2  3  1  0
  3  4  2  0
  4  5  1  0
  5  7  1  0
  7  8  2  0
  7  9  1  0
  9 10  2  0
  9 11  1  0
 11 12  1  0
 12 13  1  0
 13 14  1  0
 14 15  1  0
 15 16  1  0
  5  6  2  0
 27 22  2  0
  6  1  1  0
 16 11  1  0
M  CHG 1  18  -1
M  CHG 1  23  -1
M  CHG 1  26  -1
M  CHG 1  28  -1
M  END
> <UniqueID>
75

> <SMILES>
O=C(Cc1[n-]c(=O)[n-]c1[O-])[N-]Cc1cccc(C(=O)C(=O)N2CCOCC2)c1

> <Energy>
82.66609413385736

> <Genealogy>
O=C(Cc1[n-]c(=O)[n-]c1[O-])[N-]Cc1cccc(C(=O)C(=O)N2CCOCC2)c1 (protonated)
O=C(Cc1[n-]c(=O)[n-]c1[O-])[N-]Cc1cccc(C(=O)C(=O)N2CCOCC2)c1 (3D coordinates assigned)
O=C(Cc1[n-]c(=O)[n-]c1[O-])[N-]Cc1cccc(C(=O)C(=O)N2CCOCC2)c1 (nonaromatic ring conformer: 82.66609413385736 kcal/mol)

> <smiles>
O=C(Cc1[nH]c(=O)[nH]c1O)NCc1cccc(C(=O)C(=O)N2CCOCC2)c1

> <score_type>
oracle

> <origin>
adg

> <m_score__min__energy>
-18.43

> <m_primary>
energy

> <minimizedAffinity>
-6.47443

> <minimizedRMSD>
1.19702

> <CNNscore>
0.2585268319

> <CNNaffinity>
4.9017558098

> <CNN_VS>
1.2672353983

> <CNNaffinity_variance>
0.1386376619

$$$$
7:0


 37 41  0  0  0  0  0  0  0  0999 V2000
   59.4808   31.9443   47.4780 C   0  0  0  0  0  0  0  0  0  0  0  0
   59.8534   33.1949   46.9644 C   0  0  0  0  0  0  0  0  0  0  0  0
   60.0390   34.2787   47.8226 C   0  0  0  0  0  0  0  0  0  0  0  0
   59.8278   34.1316   49.1945 C   0  0  0  0  0  0  0  0  0  0  0  0
   59.4434   32.8877   49.7309 C   0  0  0  0  0  0  0  0  0  0  0  0
   59.3167   31.7850   48.8627 C   0  0  0  0  0  0  0  0  0  0  0  0
   60.5701   29.1791   47.5689 C   0  0  0  0  0  0  0  0  0  0  0  0
   59.6650   29.5759   46.6642 C   0  0  0  0  0  0  0  0  0  0  0  0
   59.1762   28.8384   45.5716 C   0  0  0  0  0  0  0  0  0  0  0  0
   59.3273   27.5442   45.2327 C   0  0  0  0  0  0  0  0  0  0  0  0
   58.4493   29.7250   44.7961 C   0  0  0  0  0  0  0  0  0  0  0  0
   58.4630   30.9349   45.4550 C   0  0  0  0  0  0  0  0  0  0  0  0
   57.7864   32.1760   44.9569 C   0  0  0  0  0  0  0  0  0  0  0  0
   59.2027   30.8506   46.5844 N   0  0  0  0  0  0  0  0  0  0  0  0
   58.4037   26.4489   45.5647 C   0  0  0  0  0  0  0  0  0  0  0  0
   58.7864   25.2082   45.9222 N   0  0  0  0  0  0  0  0  0  0  0  0
   57.6314   24.6332   46.3298 C   0  0  0  0  0  0  0  0  0  0  0  0
   57.5762   23.4504   46.7602 O   0  0  0  0  0  0  0  0  0  0  0  0
   56.5472   25.4342   46.2703 N   0  0  0  0  0  0  0  0  0  0  0  0
   57.0579   26.5834   45.7976 C   0  0  0  0  0  0  0  0  0  0  0  0
   56.3108   27.7401   45.6030 O   0  0  0  0  0  0  0  0  0  0  0  0
   59.2202   32.7604   51.1959 C   0  0  0  0  0  0  0  0  0  0  0  0
   58.9435   33.8026   51.8540 O   0  0  0  0  0  0  0  0  0  0  0  0
   59.3370   31.5033   51.8999 N   0  0  0  0  0  0  0  0  0  0  0  0
   59.6776   31.5160   53.3281 C   0  0  0  0  0  0  0  0  0  0  0  0
   60.1119   30.1157   53.7958 C   0  0  0  0  0  0  0  0  0  0  0  0
   60.8678   29.4099   52.7385 N   0  0  0  0  0  0  0  0  0  0  0  0
   60.0275   29.1594   51.5348 C   0  0  0  0  0  0  0  0  0  0  0  0
   58.9284   30.2232   51.3103 C   0  0  0  0  0  0  0  0  0  0  0  0
   62.1348   30.1113   52.4174 C   0  0  0  0  0  0  0  0  0  0  0  0
   62.2894   30.3097   50.8959 C   0  0  0  0  0  0  0  0  0  0  0  0
   62.6162   31.6984   50.4922 N   0  0  0  0  0  0  0  0  0  0  0  0
   63.0880   31.8064   49.0988 C   0  0  0  0  0  0  0  0  0  0  0  0
   63.4661   33.2639   48.7666 C   0  0  0  0  0  0  0  0  0  0  0  0
   63.0227   34.1516   49.7746 O   0  0  0  0  0  0  0  0  0  0  0  0
   63.6882   33.8691   50.9950 C   0  0  0  0  0  0  0  0  0  0  0  0
   63.5272   32.3935   51.4177 C   0  0  0  0  0  0  0  0  0  0  0  0
  7  8  2  0
  8  9  1  0
  9 10  2  0
 10 15  1  0
 15 16  1  0
 16 17  1  0
 17 18  2  0
 17 19  1  0
 19 20  1  0
 20 21  1  0
  9 11  1  0
 11 12  2  0
 12 13  1  0
 12 14  1  0
 14  1  1  0
  1  2  2  0
  2  3  1  0
  3  4  2  0
  4  5  1  0
  5 22  1  0
 22 23  2  0
 22 24  1  0
 24 25  1  0
 25 26  1  0
 26 27  1  0
 27 30  1  0
 30 31  1  0
 31 32  1  0
 32 33  1  0
 33 34  1  0
 34 35  1  0
 35 36  1  0
 36 37  1  0
 27 28  1  0
 28 29  1  0
  5  6  2  0
 14  8  1  0
  6  1  1  0
 20 15  2  0
 29 24  1  0
 37 32  1  0
M  CHG 1  16  -1
M  CHG 1  19  -1
M  CHG 1  21  -1
M  END
> <UniqueID>
8

> <SMILES>
C=c1c(=Cc2[n-]c(=O)[n-]c2[O-])cc(C)n1-c1cccc(C(=O)N2CCN(CCN3CCOCC3)CC2)c1

> <Energy>
168.4615320656423

> <Genealogy>
C=c1c(=Cc2[n-]c(=O)[n-]c2[O-])cc(C)n1-c1cccc(C(=O)N2CCN(CCN3CCOCC3)CC2)c1 (protonated)
C=c1c(=Cc2[n-]c(=O)[n-]c2[O-])cc(C)n1-c1cccc(C(=O)N2CCN(CCN3CCOCC3)CC2)c1 (3D coordinates assigned)
C=c1c(=Cc2[n-]c(=O)[n-]c2[O-])cc(C)n1-c1cccc(C(=O)N2CCN(CCN3CCOCC3)CC2)c1 (nonaromatic ring conformer: 168.4615320656423 kcal/mol)

> <smiles>
C=c1c(=Cc2[nH]c(=O)[nH]c2O)cc(C)n1-c1cccc(C(=O)N2CCN(CCN3CCOCC3)CC2)c1

> <score_type>
oracle

> <origin>
adg

> <m_score__min__energy>
-17.559999999999999

> <m_primary>
energy

> <minimizedAffinity>
-7.92398

> <minimizedRMSD>
1.02616

> <CNNscore>
0.3613953888

> <CNNaffinity>
6.9921975136

> <CNN_VS>
2.5269479752

> <CNNaffinity_variance>
0.1779782623

$$$$
21:0


 27 29  0  0  0  0  0  0  0  0999 V2000
   58.6679   30.5987   46.5745 C   0  0  0  0  0  0  0  0  0  0  0  0
   58.0826   30.7067   45.3717 C   0  0  0  0  0  0  0  0  0  0  0  0
   57.3941   29.6987   44.6736 C   0  0  0  0  0  0  0  0  0  0  0  0
   56.9883   28.4726   45.0589 C   0  0  0  0  0  0  0  0  0  0  0  0
   57.1565   30.1990   43.4049 C   0  0  0  0  0  0  0  0  0  0  0  0
   57.6445   31.4883   43.3842 C   0  0  0  0  0  0  0  0  0  0  0  0
   57.5542   32.4078   42.2016 C   0  0  0  0  0  0  0  0  0  0  0  0
   58.1920   31.8094   44.5794 N   0  0  0  0  0  0  0  0  0  0  0  0
   57.8139   27.4663   45.7421 C   0  0  0  0  0  0  0  0  0  0  0  0
   57.3968   26.2747   46.2975 C   0  0  0  0  0  0  0  0  0  0  0  0
   56.0804   25.8449   46.4036 O   0  0  0  0  0  0  0  0  0  0  0  0
   58.4555   25.5506   46.7075 N   0  0  0  0  0  0  0  0  0  0  0  0
   59.5047   26.3269   46.3601 C   0  0  0  0  0  0  0  0  0  0  0  0
   60.6997   25.9931   46.5690 O   0  0  0  0  0  0  0  0  0  0  0  0
   59.1571   27.4813   45.7614 N   0  0  0  0  0  0  0  0  0  0  0  0
   59.7552   28.1820   45.4143 H   0  0  0  0  0  0  0  0  0  0  0  0
   58.8676   33.0765   44.8988 C   0  0  0  0  0  0  0  0  0  0  0  0
   58.4334   33.5768   46.2417 C   0  0  0  0  0  0  0  0  0  0  0  0
   57.2053   33.6307   46.5202 O   0  0  0  0  0  0  0  0  0  0  0  0
   59.4024   34.1309   47.1403 N   0  0  0  0  0  0  0  0  0  0  0  0
   60.5111   33.6189   47.6069 C   0  0  0  0  0  0  0  0  0  0  0  0
   61.6138   33.7286   46.8163 N   0  0  0  0  0  0  0  0  0  0  0  0
   62.8446   33.2975   47.1940 C   0  0  0  0  0  0  0  0  0  0  0  0
   63.0218   32.7171   48.4443 C   0  0  0  0  0  0  0  0  0  0  0  0
   61.9186   32.5411   49.2758 C   0  0  0  0  0  0  0  0  0  0  0  0
   60.6353   32.9484   48.8661 C   0  0  0  0  0  0  0  0  0  0  0  0
   59.4752   32.5504   49.7460 C   0  0  0  0  0  0  0  0  0  0  0  0
  1  2  2  0
  2  3  1  0
  3  4  2  0
  4  9  1  0
  9 10  2  0
 10 11  1  0
 10 12  1  0
 12 13  1  0
 13 14  2  0
 13 15  1  0
  3  5  1  0
  5  6  2  0
  6  7  1  0
  6  8  1  0
  8 17  1  0
 17 18  1  0
 18 19  2  0
 18 20  1  0
 20 21  2  0
 21 22  1  0
 22 23  1  0
 23 24  2  0
 24 25  1  0
 25 26  2  0
 26 27  1  0
  8  2  1  0
 26 21  1  0
 15  9  1  0
 15 16  1  0
M  CHG 1  11  -1
M  CHG 1  12  -1
M  CHG 1  22  -1
M  END
> <UniqueID>
22

> <SMILES>
C=c1/c(=C\c2[nH]c(=O)[n-]c2[O-])cc(C)n1CC(=O)N=c1[n-]cccc1C

> <Energy>
130.60375817586643

> <Genealogy>
C=c1c(=Cc2[nH]c(=O)[n-]c2[O-])cc(C)n1CC(=O)N=c1[n-]cccc1C (protonated)
C=c1/c(=C\c2[nH]c(=O)[n-]c2[O-])cc(C)n1CC(=O)N=c1[n-]cccc1C (cis-trans isomerization)
C=c1/c(=C\c2[nH]c(=O)[n-]c2[O-])cc(C)n1CC(=O)N=c1[n-]cccc1C (3D coordinates assigned)
C=c1/c(=C\c2[nH]c(=O)[n-]c2[O-])cc(C)n1CC(=O)N=c1[n-]cccc1C (optimized conformer: 130.60375817586643 kcal/mol)

> <smiles>
C=c1c(=Cc2[nH]c(=O)[nH]c2O)cc(C)n1CC(=O)N=c1[nH]cccc1C

> <score_type>
oracle

> <origin>
adg

> <m_score__min__energy>
-14.85

> <m_primary>
energy

> <minimizedAffinity>
-7.32294

> <minimizedRMSD>
1.10286

> <CNNscore>
0.1306323409

> <CNNaffinity>
6.0302786827

> <CNN_VS>
0.7877494097

> <CNNaffinity_variance>
0.2577548921

$$$$
22:0


 36 40  0  0  0  0  0  0  0  0999 V2000
   58.6214   31.1381   45.6957 C   0  0  0  0  0  0  0  0  0  0  0  0
   58.2469   31.9804   44.6356 C   0  0  0  0  0  0  0  0  0  0  0  0
   58.0193   33.3390   44.8568 C   0  0  0  0  0  0  0  0  0  0  0  0
   58.1547   33.8716   46.1388 C   0  0  0  0  0  0  0  0  0  0  0  0
   58.5250   33.0480   47.2037 C   0  0  0  0  0  0  0  0  0  0  0  0
   58.7797   31.6826   46.9943 C   0  0  0  0  0  0  0  0  0  0  0  0
   56.6030   29.1649   44.7351 C   0  0  0  0  0  0  0  0  0  0  0  0
   57.8720   28.8365   45.0296 C   0  0  0  0  0  0  0  0  0  0  0  0
   58.4506   27.5643   44.9166 C   0  0  0  0  0  0  0  0  0  0  0  0
   57.8225   26.4193   44.5676 C   0  0  0  0  0  0  0  0  0  0  0  0
   59.7917   27.7243   45.2460 C   0  0  0  0  0  0  0  0  0  0  0  0
   59.9712   29.0554   45.5577 C   0  0  0  0  0  0  0  0  0  0  0  0
   61.2880   29.6691   45.9292 C   0  0  0  0  0  0  0  0  0  0  0  0
   58.8056   29.7306   45.4403 N   0  0  0  0  0  0  0  0  0  0  0  0
   57.3240   25.3848   45.5051 C   0  0  0  0  0  0  0  0  0  0  0  0
   57.9646   24.2433   45.8183 N   0  0  0  0  0  0  0  0  0  0  0  0
   57.1171   23.6198   46.6621 C   0  0  0  0  0  0  0  0  0  0  0  0
   57.3761   22.5029   47.1803 O   0  0  0  0  0  0  0  0  0  0  0  0
   55.9710   24.2854   46.9043 N   0  0  0  0  0  0  0  0  0  0  0  0
   56.1095   25.3992   46.1658 C   0  0  0  0  0  0  0  0  0  0  0  0
   55.1351   26.3925   46.1073 O   0  0  0  0  0  0  0  0  0  0  0  0
   54.3426   26.3010   46.5989 H   0  0  0  0  0  0  0  0  0  0  0  0
   59.1733   30.8474   48.1509 C   0  0  0  0  0  0  0  0  0  0  0  0
   58.4757   29.8329   48.4289 O   0  0  0  0  0  0  0  0  0  0  0  0
   60.3190   31.1683   48.9629 N   0  0  0  0  0  0  0  0  0  0  0  0
   60.6806   32.5602   49.2507 C   0  0  0  0  0  0  0  0  0  0  0  0
   60.7371   32.8077   50.7755 C   0  0  0  0  0  0  0  0  0  0  0  0
   61.0403   31.5920   51.5857 N   0  0  0  0  0  0  0  0  0  0  0  0
   61.8660   30.6357   50.8091 C   0  0  0  0  0  0  0  0  0  0  0  0
   61.0952   30.0964   49.5946 C   0  0  0  0  0  0  0  0  0  0  0  0
   59.8229   31.0101   52.2360 C   0  0  0  0  0  0  0  0  0  0  0  0
   59.9355   30.9405   53.7811 C   0  0  0  0  0  0  0  0  0  0  0  0
   58.6208   30.4533   54.4360 C   0  0  0  0  0  0  0  0  0  0  0  0
   57.4891   30.5511   53.5880 O   0  0  0  0  0  0  0  0  0  0  0  0
   57.4754   31.8051   52.9452 C   0  0  0  0  0  0  0  0  0  0  0  0
   58.5687   31.8550   51.8663 C   0  0  0  0  0  0  0  0  0  0  0  0
  7  8  2  0
  8  9  1  0
  9 10  2  0
 10 15  1  0
 15 16  1  0
 16 17  1  0
 17 18  2  0
 17 19  1  0
 19 20  1  0
 20 21  1  0
  9 11  1  0
 11 12  2  0
 12 13  1  0
 12 14  1  0
 14  1  1  0
  1  2  2  0
  2  3  1  0
  3  4  2  0
  4  5  1  0
  5  6  2  0
  6 23  1  0
 23 24  2  0
 23 25  1  0
 25 26  1  0
 26 27  1  0
 27 28  1  0
 28 31  1  0
 31 32  1  0
 32 33  1  0
 33 34  1  0
 34 35  1  0
 35 36  1  0
 28 29  1  0
 29 30  1  0
 14  8  1  0
  6  1  1  0
 30 25  1  0
 20 15  2  0
 36 31  1  0
 21 22  1  0
M  CHG 1  16  -1
M  CHG 1  19  -1
M  END
> <UniqueID>
23

> <SMILES>
C=c1c(=Cc2[n-]c(=O)[n-]c2O)cc(C)n1-c1ccccc1C(=O)N1CCN(C2CCOCC2)CC1

> <Energy>
161.34450363148403

> <Genealogy>
C=c1c(=Cc2[n-]c(=O)[n-]c2O)cc(C)n1-c1ccccc1C(=O)N1CCN(C2CCOCC2)CC1 (protonated)
C=c1c(=Cc2[n-]c(=O)[n-]c2O)cc(C)n1-c1ccccc1C(=O)N1CCN(C2CCOCC2)CC1 (3D coordinates assigned)
C=c1c(=Cc2[n-]c(=O)[n-]c2O)cc(C)n1-c1ccccc1C(=O)N1CCN(C2CCOCC2)CC1 (nonaromatic ring conformer: 161.34450363148403 kcal/mol)

> <smiles>
C=c1c(=Cc2[nH]c(=O)[nH]c2O)cc(C)n1-c1ccccc1C(=O)N1CCN(C2CCOCC2)CC1

> <score_type>
oracle

> <origin>
adg

> <m_score__min__energy>
-14.58

> <m_primary>
energy

> <minimizedAffinity>
-8.88850

> <minimizedRMSD>
0.95928

> <CNNscore>
0.7280684114

> <CNNaffinity>
7.3275375366

> <CNN_VS>
5.3349485397

> <CNNaffinity_variance>
0.1237388030

$$$$
35:0


 30 32  0  0  0  0  0  0  0  0999 V2000
   59.4086   33.1844   46.8446 C   0  0  0  0  0  0  0  0  0  0  0  0
   59.3202   31.7976   46.6464 C   0  0  0  0  0  0  0  0  0  0  0  0
   58.7444   31.2820   45.4812 C   0  0  0  0  0  0  0  0  0  0  0  0
   58.2456   32.1425   44.4872 C   0  0  0  0  0  0  0  0  0  0  0  0
   58.3552   33.5322   44.6786 C   0  0  0  0  0  0  0  0  0  0  0  0
   58.9331   34.0461   45.8412 C   0  0  0  0  0  0  0  0  0  0  0  0
   64.6118   33.0932   49.9589 C   0  0  0  0  0  0  0  0  0  0  0  0
   63.6871   32.0291   49.5308 N   0  0  0  0  0  0  0  0  0  0  0  0
   63.3940   32.0803   48.0822 C   0  0  0  0  0  0  0  0  0  0  0  0
   62.4549   33.2357   47.7111 C   0  0  0  0  0  0  0  0  0  0  0  0
   61.2731   33.2210   48.5761 N   0  0  0  0  0  0  0  0  0  0  0  0
   60.0207   33.7282   48.0809 C   0  0  0  0  0  0  0  0  0  0  0  0
   59.4247   34.6387   48.7182 O   0  0  0  0  0  0  0  0  0  0  0  0
   61.4904   33.1387   50.0229 C   0  0  0  0  0  0  0  0  0  0  0  0
   62.4545   31.9876   50.3454 C   0  0  0  0  0  0  0  0  0  0  0  0
   57.6304   31.5761   43.2572 C   0  0  0  0  0  0  0  0  0  0  0  0
   57.9531   32.0519   42.1336 O   0  0  0  0  0  0  0  0  0  0  0  0
   56.5853   30.4902   43.3278 C   0  0  0  0  0  0  0  0  0  0  0  0
   56.9409   29.4382   44.3343 C   0  0  0  0  0  0  0  0  0  0  0  0
   56.4109   29.4641   45.4782 O   0  0  0  0  0  0  0  0  0  0  0  0
   57.9345   28.4588   44.0147 N   0  0  0  0  0  0  0  0  0  0  0  0
   58.6920   27.7323   44.9889 C   0  0  0  0  0  0  0  0  0  0  0  0
   60.2585   28.1424   45.4275 S   0  0  0  0  0  0  0  0  0  0  0  0
   60.4343   26.9504   46.5990 C   0  0  0  0  0  0  0  0  0  0  0  0
   59.2627   26.2038   46.6493 C   0  0  0  0  0  0  0  0  0  0  0  0
   58.2784   26.6225   45.7367 C   0  0  0  0  0  0  0  0  0  0  0  0
   57.0144   25.8798   45.5463 C   0  0  0  0  0  0  0  0  0  0  0  0
   55.7812   26.4491   45.9799 N   0  0  0  0  0  0  0  0  0  0  0  0
   57.0172   24.7290   45.0364 O   0  0  0  0  0  0  0  0  0  0  0  0
   55.7679   27.3485   46.3800 H   0  0  0  0  0  0  0  0  0  0  0  0
  7  8  1  0
  8  9  1  0
  9 10  1  0
 10 11  1  0
 11 12  1  0
 12 13  2  0
 12  1  1  0
  1  2  2  0
  2  3  1  0
  3  4  2  0
  4 16  1  0
 16 17  2  0
 16 18  1  0
 18 19  1  0
 19 20  2  0
 19 21  1  0
 21 22  1  0
 22 23  1  0
 23 24  1  0
 24 25  2  0
 25 26  1  0
 26 27  1  0
 27 28  1  0
 27 29  2  0
  4  5  1  0
  5  6  2  0
 11 14  1  0
 14 15  1  0
 15  8  1  0
  6  1  1  0
 26 22  2  0
 28 30  1  0
M  CHG 1  21  -1
M  CHG 1  28  -1
M  END
> <UniqueID>
36

> <SMILES>
CN1CCN(C(=O)c2ccc(C(=O)CC(=O)[N-]c3sccc3C([NH-])=O)cc2)CC1

> <Energy>
91.08990538315167

> <Genealogy>
CN1CCN(C(=O)c2ccc(C(=O)CC(=O)[N-]c3sccc3C([NH-])=O)cc2)CC1 (protonated)
CN1CCN(C(=O)c2ccc(C(=O)CC(=O)[N-]c3sccc3C([NH-])=O)cc2)CC1 (3D coordinates assigned)
CN1CCN(C(=O)c2ccc(C(=O)CC(=O)[N-]c3sccc3C([NH-])=O)cc2)CC1 (nonaromatic ring conformer: 91.08990538315167 kcal/mol)

> <smiles>
CN1CCN(C(=O)c2ccc(C(=O)CC(=O)Nc3sccc3C(N)=O)cc2)CC1

> <score_type>
oracle

> <origin>
adg

> <m_score__min__energy>
-15.140000000000001

> <m_primary>
energy

> <minimizedAffinity>
-8.07930

> <minimizedRMSD>
0.90464

> <CNNscore>
0.7814327478

> <CNNaffinity>
6.9315161705

> <CNN_VS>
5.4165139198

> <CNNaffinity_variance>
0.1762666255

$$$$
41:0


 30 32  0  0  0  0  0  0  0  0999 V2000
   57.1007   25.1168   46.1554 C   0  0  0  0  0  0  0  0  0  0  0  0
   57.5690   23.8847   45.6838 C   0  0  0  0  0  0  0  0  0  0  0  0
   56.7239   23.0246   44.9698 C   0  0  0  0  0  0  0  0  0  0  0  0
   55.3956   23.4035   44.7304 C   0  0  0  0  0  0  0  0  0  0  0  0
   54.9114   24.6163   45.2250 C   0  0  0  0  0  0  0  0  0  0  0  0
   55.7501   25.4667   45.9516 C   0  0  0  0  0  0  0  0  0  0  0  0
   55.2239   26.6348   46.4913 O   0  0  0  0  0  0  0  0  0  0  0  0
   57.3245   21.4706   44.3841 S   0  0  0  0  0  0  0  0  0  0  0  0
   56.7070   21.1737   43.0442 O   0  0  0  0  0  0  0  0  0  0  0  0
   58.8132   21.5520   44.2015 O   0  0  0  0  0  0  0  0  0  0  0  0
   56.9484   20.1759   45.4983 N   0  0  0  0  0  0  0  0  0  0  0  0
   57.2359   20.5625   46.9019 C   0  0  0  0  0  0  0  0  0  0  0  0
   55.9701   20.9079   47.7017 C   0  0  0  0  0  0  0  0  0  0  0  0
   54.9888   19.7237   47.7259 C   0  0  0  0  0  0  0  0  0  0  0  0
   55.0653   18.8600   46.4534 C   0  0  0  0  0  0  0  0  0  0  0  0
   55.5752   19.6773   45.2629 C   0  0  0  0  0  0  0  0  0  0  0  0
   57.9995   25.9525   46.8982 N   0  0  0  0  0  0  0  0  0  0  0  0
   59.0582   26.7409   46.3395 C   0  0  0  0  0  0  0  0  0  0  0  0
   60.2283   26.2717   46.2830 O   0  0  0  0  0  0  0  0  0  0  0  0
   58.2837   30.7554   44.9927 C   0  0  0  0  0  0  0  0  0  0  0  0
   59.2376   30.5128   45.9862 C   0  0  0  0  0  0  0  0  0  0  0  0
   59.4930   29.2100   46.4248 C   0  0  0  0  0  0  0  0  0  0  0  0
   58.7914   28.1221   45.8749 C   0  0  0  0  0  0  0  0  0  0  0  0
   57.8311   28.3691   44.8783 C   0  0  0  0  0  0  0  0  0  0  0  0
   57.5785   29.6727   44.4411 C   0  0  0  0  0  0  0  0  0  0  0  0
   58.0605   32.1088   44.5751 N   0  0  0  0  0  0  0  0  0  0  0  0
   59.6042   34.1225   45.9406 C   0  0  0  0  0  0  0  0  0  0  0  0
   57.9713   33.4930   45.6170 S   0  0  0  0  0  0  0  0  0  0  0  0
   57.1134   34.5557   44.9890 O   0  0  0  0  0  0  0  0  0  0  0  0
   57.3490   33.0765   46.9201 O   0  0  0  0  0  0  0  0  0  0  0  0
 27 28  1  0
 28 29  2  0
 28 30  2  0
 28 26  1  0
 26 20  1  0
 20 21  2  0
 21 22  1  0
 22 23  2  0
 23 18  1  0
 18 19  2  0
 18 17  1  0
 17  1  1  0
  1  2  2  0
  2  3  1  0
  3  8  1  0
  8  9  2  0
  8 10  2  0
  8 11  1  0
 11 12  1  0
 12 13  1  0
 13 14  1  0
 14 15  1  0
 15 16  1  0
  3  4  2  0
  4  5  1  0
  5  6  2  0
  6  7  1  0
 23 24  1  0
 24 25  2  0
 25 20  1  0
  6  1  1  0
 16 11  1  0
M  CHG 1   7  -1
M  CHG 1  17  -1
M  CHG 1  26  -1
M  END
> <UniqueID>
42

> <SMILES>
CS(=O)(=O)[N-]c1ccc(C(=O)[N-]c2cc(S(=O)(=O)N3CCCCC3)ccc2[O-])cc1

> <Energy>
61.13796766397847

> <Genealogy>
CS(=O)(=O)[N-]c1ccc(C(=O)[N-]c2cc(S(=O)(=O)N3CCCCC3)ccc2[O-])cc1 (protonated)
CS(=O)(=O)[N-]c1ccc(C(=O)[N-]c2cc(S(=O)(=O)N3CCCCC3)ccc2[O-])cc1 (3D coordinates assigned)
CS(=O)(=O)[N-]c1ccc(C(=O)[N-]c2cc(S(=O)(=O)N3CCCCC3)ccc2[O-])cc1 (nonaromatic ring conformer: 61.13796766397847 kcal/mol)

> <smiles>
CS(=O)(=O)Nc1ccc(C(=O)Nc2cc(S(=O)(=O)N3CCCCC3)ccc2O)cc1

> <score_type>
oracle

> <origin>
adg

> <m_score__min__energy>
-15.869999999999999

> <m_primary>
energy

> <minimizedAffinity>
-5.71571

> <minimizedRMSD>
0.66378

> <CNNscore>
0.1071701050

> <CNNaffinity>
5.4790673256

> <CNN_VS>
0.5871922374

> <CNNaffinity_variance>
0.1381524652

$$$$
43:0


 29 31  0  0  0  0  0  0  0  0999 V2000
   56.5966   30.3276   52.8164 N   0  0  0  0  0  0  0  0  0  0  0  0
   55.3187   30.7655   52.5833 C   0  0  0  0  0  0  0  0  0  0  0  0
   54.2076   29.9479   52.8523 C   0  0  0  0  0  0  0  0  0  0  0  0
   54.4328   28.6653   53.3624 C   0  0  0  0  0  0  0  0  0  0  0  0
   55.7285   28.2384   53.6299 C   0  0  0  0  0  0  0  0  0  0  0  0
   56.8073   29.0844   53.3634 C   0  0  0  0  0  0  0  0  0  0  0  0
   57.9726   28.6854   53.6374 O   0  0  0  0  0  0  0  0  0  0  0  0
   52.8254   30.4097   52.5721 C   0  0  0  0  0  0  0  0  0  0  0  0
   52.1289   30.8636   53.5218 O   0  0  0  0  0  0  0  0  0  0  0  0
   52.2414   30.3715   51.2089 C   0  0  0  0  0  0  0  0  0  0  0  0
   52.3192   29.1954   50.4412 C   0  0  0  0  0  0  0  0  0  0  0  0
   51.7950   29.1567   49.1480 C   0  0  0  0  0  0  0  0  0  0  0  0
   51.1946   30.2925   48.6015 C   0  0  0  0  0  0  0  0  0  0  0  0
   51.1171   31.4713   49.3477 C   0  0  0  0  0  0  0  0  0  0  0  0
   50.5184   32.5979   48.7953 O   0  0  0  0  0  0  0  0  0  0  0  0
   51.6382   31.5174   50.6480 C   0  0  0  0  0  0  0  0  0  0  0  0
   51.5413   32.6968   51.3786 O   0  0  0  0  0  0  0  0  0  0  0  0
   57.7216   31.2422   52.5346 C   0  0  0  0  0  0  0  0  0  0  0  0
   58.1864   32.2453   50.4183 O   0  0  0  0  0  0  0  0  0  0  0  0
   58.1361   31.1775   51.0848 C   0  0  0  0  0  0  0  0  0  0  0  0
   58.4353   29.9408   50.4231 N   0  0  0  0  0  0  0  0  0  0  0  0
   59.6460   29.6516   49.6624 C   0  0  0  0  0  0  0  0  0  0  0  0
   59.3883   29.8194   48.1633 C   0  0  0  0  0  0  0  0  0  0  0  0
   59.9921   31.1043   47.6647 C   0  0  0  0  0  0  0  0  0  0  0  0
   61.3416   31.3994   47.9200 C   0  0  0  0  0  0  0  0  0  0  0  0
   61.8899   32.6131   47.4908 C   0  0  0  0  0  0  0  0  0  0  0  0
   61.0957   33.5382   46.8107 C   0  0  0  0  0  0  0  0  0  0  0  0
   59.7486   33.2568   46.5629 C   0  0  0  0  0  0  0  0  0  0  0  0
   59.1956   32.0459   46.9927 C   0  0  0  0  0  0  0  0  0  0  0  0
 19 20  2  0
 20 18  1  0
 18  1  1  0
  1  2  1  0
  2  3  2  0
  3  8  1  0
  8  9  2  0
  8 10  1  0
 10 11  2  0
 11 12  1  0
 12 13  2  0
 13 14  1  0
 14 15  1  0
 14 16  2  0
 16 17  1  0
  3  4  1  0
  4  5  2  0
  5  6  1  0
  6  7  2  0
 20 21  1  0
 21 22  1  0
 22 23  1  0
 23 24  1  0
 24 25  2  0
 25 26  1  0
 26 27  2  0
 27 28  1  0
 28 29  2  0
  6  1  1  0
 29 24  1  0
 16 10  1  0
M  CHG 1  15  -1
M  CHG 1  17  -1
M  CHG 1  21  -1
M  END
> <UniqueID>
44

> <SMILES>
O=C(Cn1cc(C(=O)c2cccc([O-])c2[O-])ccc1=O)[N-]CCc1ccccc1

> <Energy>
54.715565060808835

> <Genealogy>
O=C(Cn1cc(C(=O)c2cccc([O-])c2[O-])ccc1=O)[N-]CCc1ccccc1 (protonated)
O=C(Cn1cc(C(=O)c2cccc([O-])c2[O-])ccc1=O)[N-]CCc1ccccc1 (3D coordinates assigned)
O=C(Cn1cc(C(=O)c2cccc([O-])c2[O-])ccc1=O)[N-]CCc1ccccc1 (optimized conformer: 54.715565060808835 kcal/mol)

> <smiles>
O=C(Cn1cc(C(=O)c2cccc(O)c2O)ccc1=O)NCCc1ccccc1

> <score_type>
oracle

> <origin>
adg

> <m_score__min__energy>
-17.609999999999999

> <m_primary>
energy

> <minimizedAffinity>
-3.54269

> <minimizedRMSD>
1.23864

> <CNNscore>
0.5216153264

> <CNNaffinity>
5.9726638794

> <CNN_VS>
3.1154329777

> <CNNaffinity_variance>
0.0423137061

$$$$
54:0


 34 37  0  0  0  0  0  0  0  0999 V2000
   58.0995   26.3854   44.2874 C   0  0  0  0  0  0  0  0  0  0  0  0
   58.5060   26.4822   45.5628 C   0  0  0  0  0  0  0  0  0  0  0  0
   58.1675   25.6367   46.6322 C   0  0  0  0  0  0  0  0  0  0  0  0
   57.5464   24.4411   46.6550 C   0  0  0  0  0  0  0  0  0  0  0  0
   58.6110   26.2762   47.7830 C   0  0  0  0  0  0  0  0  0  0  0  0
   59.2734   27.4168   47.3781 C   0  0  0  0  0  0  0  0  0  0  0  0
   59.8409   28.4521   48.3013 C   0  0  0  0  0  0  0  0  0  0  0  0
   59.2168   27.5349   46.0362 N   0  0  0  0  0  0  0  0  0  0  0  0
   59.7454   28.6358   45.2815 C   0  0  0  0  0  0  0  0  0  0  0  0
   60.7768   28.4523   44.5788 O   0  0  0  0  0  0  0  0  0  0  0  0
   59.0886   29.9656   45.3175 C   0  0  0  0  0  0  0  0  0  0  0  0
   58.2044   30.3507   44.2928 C   0  0  0  0  0  0  0  0  0  0  0  0
   57.5596   31.5901   44.3422 C   0  0  0  0  0  0  0  0  0  0  0  0
   57.7828   32.4613   45.4159 C   0  0  0  0  0  0  0  0  0  0  0  0
   57.1140   33.6846   45.4742 O   0  0  0  0  0  0  0  0  0  0  0  0
   58.6735   32.0956   46.4425 C   0  0  0  0  0  0  0  0  0  0  0  0
   59.3351   30.8565   46.3755 C   0  0  0  0  0  0  0  0  0  0  0  0
   56.5212   33.9275   44.7905 H   0  0  0  0  0  0  0  0  0  0  0  0
   58.9222   33.0164   47.5680 C   0  0  0  0  0  0  0  0  0  0  0  0
   57.9266   33.4398   48.2229 O   0  0  0  0  0  0  0  0  0  0  0  0
   60.2619   33.3507   47.9979 N   0  0  0  0  0  0  0  0  0  0  0  0
   60.5069   33.7847   49.3801 C   0  0  0  0  0  0  0  0  0  0  0  0
   61.7389   33.0498   49.9211 C   0  0  0  0  0  0  0  0  0  0  0  0
   62.9548   33.2485   49.0847 N   0  0  0  0  0  0  0  0  0  0  0  0
   63.7851   32.0320   49.0649 C   0  0  0  0  0  0  0  0  0  0  0  0
   62.6957   33.7526   47.7119 C   0  0  0  0  0  0  0  0  0  0  0  0
   61.4113   33.1840   47.0949 C   0  0  0  0  0  0  0  0  0  0  0  0
   56.7824   23.8402   45.5501 C   0  0  0  0  0  0  0  0  0  0  0  0
   57.3357   23.0564   44.6096 N   0  0  0  0  0  0  0  0  0  0  0  0
   56.3253   22.8513   43.7349 C   0  0  0  0  0  0  0  0  0  0  0  0
   56.4518   22.1372   42.7036 O   0  0  0  0  0  0  0  0  0  0  0  0
   55.1706   23.4818   44.0433 N   0  0  0  0  0  0  0  0  0  0  0  0
   55.4817   24.1192   45.1836 C   0  0  0  0  0  0  0  0  0  0  0  0
   54.6103   24.9730   45.8505 O   0  0  0  0  0  0  0  0  0  0  0  0
  1  2  2  0
  2  3  1  0
  3  4  2  0
  4 28  1  0
 28 29  1  0
 29 30  1  0
 30 31  2  0
 30 32  1  0
 32 33  1  0
 33 34  1  0
  3  5  1  0
  5  6  2  0
  6  7  1  0
  6  8  1  0
  8  9  1  0
  9 10  2  0
  9 11  1  0
 11 12  2  0
 12 13  1  0
 13 14  2  0
 14 15  1  0
 14 16  1  0
 16 19  1  0
 19 20  2  0
 19 21  1  0
 21 22  1  0
 22 23  1  0
 23 24  1  0
 24 25  1  0
 24 26  1  0
 26 27  1  0
 16 17  2  0
  8  2  1  0
 17 11  1  0
 33 28  2  0
 27 21  1  0
 15 18  1  0
M  CHG 1  29  -1
M  CHG 1  32  -1
M  CHG 1  34  -1
M  END
> <UniqueID>
55

> <SMILES>
C=c1c(=Cc2[n-]c(=O)[n-]c2[O-])cc(C)n1C(=O)c1ccc(O)c(C(=O)N2CCN(C)CC2)c1

> <Energy>
148.96382134291346

> <Genealogy>
C=c1c(=Cc2[n-]c(=O)[n-]c2[O-])cc(C)n1C(=O)c1ccc(O)c(C(=O)N2CCN(C)CC2)c1 (protonated)
C=c1c(=Cc2[n-]c(=O)[n-]c2[O-])cc(C)n1C(=O)c1ccc(O)c(C(=O)N2CCN(C)CC2)c1 (3D coordinates assigned)
C=c1c(=Cc2[n-]c(=O)[n-]c2[O-])cc(C)n1C(=O)c1ccc(O)c(C(=O)N2CCN(C)CC2)c1 (nonaromatic ring conformer: 148.96382134291346 kcal/mol)

> <smiles>
C=c1c(=Cc2[nH]c(=O)[nH]c2O)cc(C)n1C(=O)c1ccc(O)c(C(=O)N2CCN(C)CC2)c1

> <score_type>
oracle

> <origin>
adg

> <m_score__min__energy>
-16.77

> <m_primary>
energy

> <minimizedAffinity>
-10.25996

> <minimizedRMSD>
0.96933

> <CNNscore>
0.0921981782

> <CNNaffinity>
6.4271941185

> <CNN_VS>
0.5925756097

> <CNNaffinity_variance>
0.1325146705

$$$$
59:0


 28 30  0  0  0  0  0  0  0  0999 V2000
   59.8449   30.3541   46.1696 N   0  0  0  0  0  0  0  0  0  0  0  0
   59.9438   29.1651   47.0567 C   0  0  0  0  0  0  0  0  0  0  0  0
   58.5853   28.4739   47.2683 C   0  0  0  0  0  0  0  0  0  0  0  0
   57.9584   28.0485   45.9884 N   0  0  0  0  0  0  0  0  0  0  0  0
   58.3821   28.8617   44.8249 C   0  0  0  0  0  0  0  0  0  0  0  0
   58.6924   30.3047   45.2398 C   0  0  0  0  0  0  0  0  0  0  0  0
   60.6902   30.3392   45.5989 H   0  0  0  0  0  0  0  0  0  0  0  0
   59.7908   31.8327   47.0996 S   0  0  0  0  0  0  0  0  0  0  0  0
   59.5244   33.0006   46.1910 O   0  0  0  0  0  0  0  0  0  0  0  0
   58.6872   31.7572   48.1195 O   0  0  0  0  0  0  0  0  0  0  0  0
   65.0785   32.7447   49.9437 C   0  0  0  0  0  0  0  0  0  0  0  0
   63.7905   32.4932   49.2185 C   0  0  0  0  0  0  0  0  0  0  0  0
   63.5063   33.1730   48.0232 C   0  0  0  0  0  0  0  0  0  0  0  0
   62.2887   32.9675   47.3671 C   0  0  0  0  0  0  0  0  0  0  0  0
   61.3385   32.0882   47.9038 C   0  0  0  0  0  0  0  0  0  0  0  0
   61.6112   31.4251   49.1072 C   0  0  0  0  0  0  0  0  0  0  0  0
   62.8288   31.6298   49.7653 C   0  0  0  0  0  0  0  0  0  0  0  0
   58.1648   26.6105   45.7188 C   0  0  0  0  0  0  0  0  0  0  0  0
   56.8711   25.8464   45.8503 C   0  0  0  0  0  0  0  0  0  0  0  0
   55.8680   26.4312   46.3428 O   0  0  0  0  0  0  0  0  0  0  0  0
   56.7426   24.4496   45.3622 C   0  0  0  0  0  0  0  0  0  0  0  0
   57.8798   23.7157   44.9810 C   0  0  0  0  0  0  0  0  0  0  0  0
   57.7506   22.4073   44.5133 C   0  0  0  0  0  0  0  0  0  0  0  0
   56.4821   21.8339   44.4235 C   0  0  0  0  0  0  0  0  0  0  0  0
   56.3483   20.6551   44.0023 O   0  0  0  0  0  0  0  0  0  0  0  0
   55.3881   22.5496   44.7920 N   0  0  0  0  0  0  0  0  0  0  0  0
   55.4803   23.8253   45.2519 C   0  0  0  0  0  0  0  0  0  0  0  0
   54.3176   24.4919   45.6240 O   0  0  0  0  0  0  0  0  0  0  0  0
 11 12  1  0
 12 13  2  0
 13 14  1  0
 14 15  2  0
 15  8  1  0
  8  9  2  0
  8 10  2  0
  8  1  1  0
  1  2  1  0
  2  3  1  0
  3  4  1  0
  4 18  1  0
 18 19  1  0
 19 20  2  0
 19 21  1  0
 21 22  1  0
 22 23  2  0
 23 24  1  0
 24 25  2  0
 24 26  1  0
 26 27  1  0
 27 28  1  0
  4  5  1  0
  5  6  1  0
 15 16  1  0
 16 17  2  0
 17 12  1  0
  6  1  1  0
 27 21  2  0
  1  7  1  0
M  CHG 1   1   1
M  CHG 1  26  -1
M  CHG 1  28  -1
M  END
> <UniqueID>
59

> <SMILES>
Cc1ccc(S(=O)(=O)[NH+]2CCN(CC(=O)c3ccc(=O)[n-]c3[O-])CC2)cc1

> <Energy>
63.1227617425404

> <Genealogy>
Cc1ccc(S(=O)(=O)[NH+]2CCN(CC(=O)c3ccc(=O)[n-]c3[O-])CC2)cc1 (protonated)
Cc1ccc(S(=O)(=O)[NH+]2CCN(CC(=O)c3ccc(=O)[n-]c3[O-])CC2)cc1 (3D coordinates assigned)
Cc1ccc(S(=O)(=O)[NH+]2CCN(CC(=O)c3ccc(=O)[n-]c3[O-])CC2)cc1 (nonaromatic ring conformer: 63.1227617425404 kcal/mol)

> <smiles>
Cc1ccc(S(=O)(=O)N2CCN(CC(=O)c3ccc(=O)[nH]c3O)CC2)cc1

> <score_type>
oracle

> <origin>
adg

> <m_score__min__energy>
-14.130000000000001

> <m_primary>
energy

> <minimizedAffinity>
-8.33348

> <minimizedRMSD>
2.71211

> <CNNscore>
0.2623502314

> <CNNaffinity>
6.4628920555

> <CNN_VS>
1.6955412626

> <CNNaffinity_variance>
1.7086051702

$$$$
67:0


 34 37  0  0  0  0  0  0  0  0999 V2000
   58.2573   32.3895   52.0751 C   0  0  0  0  0  0  0  0  0  0  0  0
   58.2292   33.4913   52.6902 O   0  0  0  0  0  0  0  0  0  0  0  0
   59.0359   32.2610   50.8619 N   0  0  0  0  0  0  0  0  0  0  0  0
   59.6744   33.4641   50.3096 C   0  0  0  0  0  0  0  0  0  0  0  0
   60.4520   33.1449   49.0253 C   0  0  0  0  0  0  0  0  0  0  0  0
   59.6802   32.2479   48.1443 N   0  0  0  0  0  0  0  0  0  0  0  0
   59.3862   30.9358   48.7795 C   0  0  0  0  0  0  0  0  0  0  0  0
   59.4200   30.9465   50.3245 C   0  0  0  0  0  0  0  0  0  0  0  0
   54.6330   29.3334   53.3099 C   0  0  0  0  0  0  0  0  0  0  0  0
   55.8597   29.8651   53.1541 C   0  0  0  0  0  0  0  0  0  0  0  0
   56.1649   31.0588   52.5119 C   0  0  0  0  0  0  0  0  0  0  0  0
   57.5254   31.2530   52.6625 C   0  0  0  0  0  0  0  0  0  0  0  0
   58.0785   30.2298   53.3585 N   0  0  0  0  0  0  0  0  0  0  0  0
   59.5039   30.0339   53.6462 C   0  0  0  0  0  0  0  0  0  0  0  0
   57.0674   29.3733   53.6615 C   0  0  0  0  0  0  0  0  0  0  0  0
   57.2374   28.2233   54.3360 C   0  0  0  0  0  0  0  0  0  0  0  0
   52.1446   30.7681   54.5553 O   0  0  0  0  0  0  0  0  0  0  0  0
   52.3364   30.4809   53.2054 C   0  0  0  0  0  0  0  0  0  0  0  0
   51.4765   30.8618   52.2461 N   0  0  0  0  0  0  0  0  0  0  0  0
   52.0896   30.4557   51.1139 C   0  0  0  0  0  0  0  0  0  0  0  0
   51.6025   30.6491   49.9698 O   0  0  0  0  0  0  0  0  0  0  0  0
   53.2796   29.8465   51.3011 N   0  0  0  0  0  0  0  0  0  0  0  0
   53.4232   29.8427   52.6386 C   0  0  0  0  0  0  0  0  0  0  0  0
   51.3657   31.2078   54.8347 H   0  0  0  0  0  0  0  0  0  0  0  0
   58.4686   32.9029   47.6033 C   0  0  0  0  0  0  0  0  0  0  0  0
   58.3749   32.6788   46.0898 C   0  0  0  0  0  0  0  0  0  0  0  0
   59.2628   31.6369   45.6768 O   0  0  0  0  0  0  0  0  0  0  0  0
   58.9052   30.2960   45.4568 C   0  0  0  0  0  0  0  0  0  0  0  0
   57.5825   29.8915   45.1757 C   0  0  0  0  0  0  0  0  0  0  0  0
   57.2856   28.5365   44.9823 C   0  0  0  0  0  0  0  0  0  0  0  0
   58.2986   27.5761   45.0677 C   0  0  0  0  0  0  0  0  0  0  0  0
   57.9224   25.8793   44.8280 Cl  0  0  0  0  0  0  0  0  0  0  0  0
   59.6131   27.9720   45.3369 C   0  0  0  0  0  0  0  0  0  0  0  0
   59.9129   29.3251   45.5254 C   0  0  0  0  0  0  0  0  0  0  0  0
 17 18  1  0
 18 19  1  0
 19 20  1  0
 20 21  2  0
 20 22  1  0
 22 23  1  0
 23  9  1  0
  9 10  2  0
 10 11  1  0
 11 12  2  0
 12  1  1  0
  1  2  2  0
  1  3  1  0
  3  4  1  0
  4  5  1  0
  5  6  1  0
  6 25  1  0
 25 26  1  0
 26 27  1  0
 27 28  1  0
 28 29  2  0
 29 30  1  0
 30 31  2  0
 31 32  1  0
 31 33  1  0
 33 34  2  0
  6  7  1  0
  7  8  1  0
 12 13  1  0
 13 14  1  0
 13 15  1  0
 15 16  2  0
 23 18  2  0
 15 10  1  0
  8  3  1  0
 34 28  1  0
 17 24  1  0
M  CHG 1  19  -1
M  CHG 1  22  -1
M  END
> <UniqueID>
67

> <SMILES>
C=c1/c(=C/c2[n-]c(=O)[n-]c2O)cc(C(=O)N2CCN(CCOc3ccc(Cl)cc3)CC2)n1C

> <Energy>
138.41449370909797

> <Genealogy>
C=c1c(=Cc2[n-]c(=O)[n-]c2O)cc(C(=O)N2CCN(CCOc3ccc(Cl)cc3)CC2)n1C (protonated)
C=c1/c(=C/c2[n-]c(=O)[n-]c2O)cc(C(=O)N2CCN(CCOc3ccc(Cl)cc3)CC2)n1C (cis-trans isomerization)
C=c1/c(=C/c2[n-]c(=O)[n-]c2O)cc(C(=O)N2CCN(CCOc3ccc(Cl)cc3)CC2)n1C (3D coordinates assigned)
C=c1/c(=C/c2[n-]c(=O)[n-]c2O)cc(C(=O)N2CCN(CCOc3ccc(Cl)cc3)CC2)n1C (nonaromatic ring conformer: 138.41449370909797 kcal/mol)

> <smiles>
C=c1c(=Cc2[nH]c(=O)[nH]c2O)cc(C(=O)N2CCN(CCOc3ccc(Cl)cc3)CC2)n1C

> <score_type>
oracle

> <origin>
adg

> <m_score__min__energy>
-14.25

> <m_primary>
energy

> <minimizedAffinity>
-7.74887

> <minimizedRMSD>
1.18993

> <CNNscore>
0.0520399697

> <CNNaffinity>
5.3968052864

> <CNN_VS>
0.2808495760

> <CNNaffinity_variance>
1.0432595015

$$$$
69:0


 31 33  0  0  0  0  0  0  0  0999 V2000
   58.3214   30.2772   44.2327 C   0  0  0  0  0  0  0  0  0  0  0  0
   59.0056   30.4201   45.3793 C   0  0  0  0  0  0  0  0  0  0  0  0
   59.6074   29.3780   46.1052 C   0  0  0  0  0  0  0  0  0  0  0  0
   59.8624   28.0959   45.7728 C   0  0  0  0  0  0  0  0  0  0  0  0
   59.9611   29.9094   47.3285 C   0  0  0  0  0  0  0  0  0  0  0  0
   59.6482   31.2489   47.2842 C   0  0  0  0  0  0  0  0  0  0  0  0
   59.0755   31.5814   46.0996 N   0  0  0  0  0  0  0  0  0  0  0  0
   59.9071   32.1808   48.3969 C   0  0  0  0  0  0  0  0  0  0  0  0
   59.1119   32.1811   49.3743 O   0  0  0  0  0  0  0  0  0  0  0  0
   61.0524   33.0607   48.3854 N   0  0  0  0  0  0  0  0  0  0  0  0
   62.0498   32.9790   47.3083 C   0  0  0  0  0  0  0  0  0  0  0  0
   63.3618   33.6642   47.7216 C   0  0  0  0  0  0  0  0  0  0  0  0
   63.6962   33.3757   49.1323 N   0  0  0  0  0  0  0  0  0  0  0  0
   62.6643   33.8777   50.0789 C   0  0  0  0  0  0  0  0  0  0  0  0
   61.2628   34.0442   49.4547 C   0  0  0  0  0  0  0  0  0  0  0  0
   64.0048   31.9440   49.3412 C   0  0  0  0  0  0  0  0  0  0  0  0
   63.7785   31.5660   50.7753 C   0  0  0  0  0  0  0  0  0  0  0  0
   62.6478   30.7747   51.1470 N   0  0  0  0  0  0  0  0  0  0  0  0
   64.5885   31.9526   51.6589 O   0  0  0  0  0  0  0  0  0  0  0  0
   62.0124   30.4706   50.4592 H   0  0  0  0  0  0  0  0  0  0  0  0
   62.5044   30.5338   52.0907 H   0  0  0  0  0  0  0  0  0  0  0  0
   58.9012   26.9843   45.8458 C   0  0  0  0  0  0  0  0  0  0  0  0
   59.2181   25.7126   46.1505 N   0  0  0  0  0  0  0  0  0  0  0  0
   58.0160   25.1009   46.2244 C   0  0  0  0  0  0  0  0  0  0  0  0
   57.8954   23.8749   46.4812 O   0  0  0  0  0  0  0  0  0  0  0  0
   56.9546   25.9085   46.0129 N   0  0  0  0  0  0  0  0  0  0  0  0
   57.5328   27.0993   45.7892 C   0  0  0  0  0  0  0  0  0  0  0  0
   56.8247   28.2684   45.5404 O   0  0  0  0  0  0  0  0  0  0  0  0
   58.5382   32.9271   45.7838 C   0  0  0  0  0  0  0  0  0  0  0  0
   58.3218   33.1268   44.2781 C   0  0  0  0  0  0  0  0  0  0  0  0
   57.2997   33.2633   46.6228 C   0  0  0  0  0  0  0  0  0  0  0  0
  1  2  2  0
  2  3  1  0
  3  4  2  0
  4 22  1  0
 22 23  1  0
 23 24  1  0
 24 25  2  0
 24 26  1  0
 26 27  1  0
 27 28  1  0
  3  5  1  0
  5  6  2  0
  6  8  1  0
  8  9  2  0
  8 10  1  0
 10 11  1  0
 11 12  1  0
 12 13  1  0
 13 16  1  0
 16 17  1  0
 17 18  1  0
 17 19  2  0
 13 14  1  0
 14 15  1  0
  6  7  1  0
  7 29  1  0
 29 30  1  0
 29 31  1  0
  7  2  1  0
 27 22  2  0
 15 10  1  0
 18 20  1  0
 18 21  1  0
M  CHG 1  23  -1
M  CHG 1  26  -1
M  CHG 1  28  -1
M  END
> <UniqueID>
68

> <SMILES>
C=c1c(=Cc2[n-]c(=O)[n-]c2[O-])cc(C(=O)N2CCN(CC(N)=O)CC2)n1C(C)C

> <Energy>
134.231155932837

> <Genealogy>
C=c1c(=Cc2[n-]c(=O)[n-]c2[O-])cc(C(=O)N2CCN(CC(N)=O)CC2)n1C(C)C (protonated)
C=c1c(=Cc2[n-]c(=O)[n-]c2[O-])cc(C(=O)N2CCN(CC(N)=O)CC2)n1C(C)C (3D coordinates assigned)
C=c1c(=Cc2[n-]c(=O)[n-]c2[O-])cc(C(=O)N2CCN(CC(N)=O)CC2)n1C(C)C (nonaromatic ring conformer: 134.231155932837 kcal/mol)

> <smiles>
C=c1c(=Cc2[nH]c(=O)[nH]c2O)cc(C(=O)N2CCN(CC(N)=O)CC2)n1C(C)C

> <score_type>
oracle

> <origin>
adg

> <m_score__min__energy>
-15.67

> <m_primary>
energy

> <minimizedAffinity>
-7.30966

> <minimizedRMSD>
1.41656

> <CNNscore>
0.1740755439

> <CNNaffinity>
6.3926329613

> <CNN_VS>
1.1128010750

> <CNNaffinity_variance>
0.0910440907

$$$$
72:0


 35 38  0  0  0  0  0  0  0  0999 V2000
   58.2967   31.6064   46.3219 C   0  0  0  0  0  0  0  0  0  0  0  0
   57.3521   32.3360   45.9201 O   0  0  0  0  0  0  0  0  0  0  0  0
   59.2819   32.1426   47.2239 N   0  0  0  0  0  0  0  0  0  0  0  0
   58.9320   33.2533   48.1128 C   0  0  0  0  0  0  0  0  0  0  0  0
   59.8388   33.2211   49.3472 C   0  0  0  0  0  0  0  0  0  0  0  0
   61.2845   33.2939   49.0033 N   0  0  0  0  0  0  0  0  0  0  0  0
   61.6186   32.8095   47.6390 C   0  0  0  0  0  0  0  0  0  0  0  0
   60.6796   31.6984   47.1521 C   0  0  0  0  0  0  0  0  0  0  0  0
   58.0039   27.7244   43.4571 C   0  0  0  0  0  0  0  0  0  0  0  0
   58.3299   28.4786   44.5183 C   0  0  0  0  0  0  0  0  0  0  0  0
   58.7211   28.0275   45.7903 C   0  0  0  0  0  0  0  0  0  0  0  0
   59.0672   26.7999   46.2268 C   0  0  0  0  0  0  0  0  0  0  0  0
   58.7245   29.1412   46.6108 C   0  0  0  0  0  0  0  0  0  0  0  0
   58.3906   30.2216   45.8233 C   0  0  0  0  0  0  0  0  0  0  0  0
   58.1768   29.8282   44.5450 N   0  0  0  0  0  0  0  0  0  0  0  0
   57.8634   30.6908   43.4009 C   0  0  0  0  0  0  0  0  0  0  0  0
   58.2426   25.5865   46.1210 C   0  0  0  0  0  0  0  0  0  0  0  0
   58.7252   24.3307   46.0971 N   0  0  0  0  0  0  0  0  0  0  0  0
   57.6109   23.5674   46.1373 C   0  0  0  0  0  0  0  0  0  0  0  0
   57.6490   22.3095   46.1168 O   0  0  0  0  0  0  0  0  0  0  0  0
   56.4538   24.2593   46.2166 N   0  0  0  0  0  0  0  0  0  0  0  0
   56.8736   25.5344   46.2198 C   0  0  0  0  0  0  0  0  0  0  0  0
   56.0236   26.6283   46.3155 O   0  0  0  0  0  0  0  0  0  0  0  0
   62.1191   32.6327   50.0303 C   0  0  0  0  0  0  0  0  0  0  0  0
   61.4472   31.3852   50.5481 C   0  0  0  0  0  0  0  0  0  0  0  0
   62.1292   30.1606   50.5593 C   0  0  0  0  0  0  0  0  0  0  0  0
   61.4893   29.0043   51.0096 C   0  0  0  0  0  0  0  0  0  0  0  0
   60.1670   29.0605   51.4550 C   0  0  0  0  0  0  0  0  0  0  0  0
   59.4670   30.2813   51.4592 C   0  0  0  0  0  0  0  0  0  0  0  0
   60.1152   31.4391   50.9901 C   0  0  0  0  0  0  0  0  0  0  0  0
   58.0581   30.3551   51.9157 C   0  0  0  0  0  0  0  0  0  0  0  0
   57.3394   31.3256   51.5470 O   0  0  0  0  0  0  0  0  0  0  0  0
   57.5010   29.3551   52.7834 N   0  0  0  0  0  0  0  0  0  0  0  0
   56.0832   29.3417   53.1199 C   0  0  0  0  0  0  0  0  0  0  0  0
   58.0909   28.6625   53.1596 H   0  0  0  0  0  0  0  0  0  0  0  0
  9 10  2  0
 10 11  1  0
 11 12  2  0
 12 17  1  0
 17 18  1  0
 18 19  1  0
 19 20  2  0
 19 21  1  0
 21 22  1  0
 22 23  1  0
 11 13  1  0
 13 14  2  0
 14  1  1  0
  1  2  2  0
  1  3  1  0
  3  4  1  0
  4  5  1  0
  5  6  1  0
  6 24  1  0
 24 25  1  0
 25 26  2  0
 26 27  1  0
 27 28  2  0
 28 29  1  0
 29 31  1  0
 31 32  2  0
 31 33  1  0
 33 34  1  0
 29 30  2  0
  6  7  1  0
  7  8  1  0
 14 15  1  0
 15 16  1  0
 15 10  1  0
 22 17  2  0
  8  3  1  0
 30 25  1  0
 33 35  1  0
M  CHG 1  18  -1
M  CHG 1  21  -1
M  CHG 1  23  -1
M  END
> <UniqueID>
71

> <SMILES>
C=c1c(=Cc2[n-]c(=O)[n-]c2[O-])cc(C(=O)N2CCN(Cc3cccc(C(=O)NC)c3)CC2)n1C

> <Energy>
143.26371286080752

> <Genealogy>
C=c1c(=Cc2[n-]c(=O)[n-]c2[O-])cc(C(=O)N2CCN(Cc3cccc(C(=O)NC)c3)CC2)n1C (protonated)
C=c1c(=Cc2[n-]c(=O)[n-]c2[O-])cc(C(=O)N2CCN(Cc3cccc(C(=O)NC)c3)CC2)n1C (3D coordinates assigned)
C=c1c(=Cc2[n-]c(=O)[n-]c2[O-])cc(C(=O)N2CCN(Cc3cccc(C(=O)NC)c3)CC2)n1C (nonaromatic ring conformer: 143.26371286080752 kcal/mol)

> <smiles>
C=c1c(=Cc2[nH]c(=O)[nH]c2O)cc(C(=O)N2CCN(Cc3cccc(C(=O)NC)c3)CC2)n1C

> <score_type>
oracle

> <origin>
adg

> <m_score__min__energy>
-18.77

> <m_primary>
energy

> <minimizedAffinity>
-7.80512

> <minimizedRMSD>
1.72079

> <CNNscore>
0.0960960910

> <CNNaffinity>
6.3623065948

> <CNN_VS>
0.6113927960

> <CNNaffinity_variance>
0.3147571385

$$$$
82:0


 26 27  0  0  0  0  0  0  0  0999 V2000
   59.4856   26.7279   47.2118 C   0  0  0  0  0  0  0  0  0  0  0  0
   58.6990   27.5841   46.5317 C   0  0  0  0  0  0  0  0  0  0  0  0
   58.6201   28.9250   46.9770 C   0  0  0  0  0  0  0  0  0  0  0  0
   58.0717   29.8753   46.1753 N   0  0  0  0  0  0  0  0  0  0  0  0
   57.5947   29.6006   44.9372 C   0  0  0  0  0  0  0  0  0  0  0  0
   57.5906   28.2825   44.4763 C   0  0  0  0  0  0  0  0  0  0  0  0
   58.0600   27.2377   45.2964 C   0  0  0  0  0  0  0  0  0  0  0  0
   57.8366   25.9720   44.8575 C   0  0  0  0  0  0  0  0  0  0  0  0
   57.2531   24.8711   45.6489 C   0  0  0  0  0  0  0  0  0  0  0  0
   57.9172   23.7688   46.0449 N   0  0  0  0  0  0  0  0  0  0  0  0
   57.0210   23.1254   46.8221 C   0  0  0  0  0  0  0  0  0  0  0  0
   57.2714   22.0237   47.3781 O   0  0  0  0  0  0  0  0  0  0  0  0
   55.8366   23.7587   46.9666 N   0  0  0  0  0  0  0  0  0  0  0  0
   56.0070   24.8671   46.2261 C   0  0  0  0  0  0  0  0  0  0  0  0
   55.0417   25.8566   46.0849 O   0  0  0  0  0  0  0  0  0  0  0  0
   59.1265   29.2856   48.2358 O   0  0  0  0  0  0  0  0  0  0  0  0
   60.4195   29.8550   48.4442 C   0  0  0  0  0  0  0  0  0  0  0  0
   60.3120   31.1902   49.1853 C   0  0  0  0  0  0  0  0  0  0  0  0
   59.0699   31.8869   48.8456 N   0  0  0  0  0  0  0  0  0  0  0  0
   59.3525   33.1948   47.7337 S   0  0  0  0  0  0  0  0  0  0  0  0
   59.6133   34.4498   48.5169 O   0  0  0  0  0  0  0  0  0  0  0  0
   60.5475   32.9001   46.8688 O   0  0  0  0  0  0  0  0  0  0  0  0
   57.9221   33.4523   46.7056 C   0  0  0  0  0  0  0  0  0  0  0  0
   56.9959   30.7089   44.1170 C   0  0  0  0  0  0  0  0  0  0  0  0
   58.0661   31.6862   43.6119 C   0  0  0  0  0  0  0  0  0  0  0  0
   57.8079   32.1418   42.1760 C   0  0  0  0  0  0  0  0  0  0  0  0
  1  2  2  0
  2  3  1  0
  3 16  1  0
 16 17  1  0
 17 18  1  0
 18 19  1  0
 19 20  1  0
 20 21  2  0
 20 22  2  0
 20 23  1  0
  3  4  2  0
  4  5  1  0
  5 24  1  0
 24 25  1  0
 25 26  1  0
  5  6  2  0
  6  7  1  0
  7  8  2  0
  8  9  1  0
  9 10  1  0
 10 11  1  0
 11 12  2  0
 11 13  1  0
 13 14  1  0
 14 15  1  0
  7  2  1  0
 14  9  2  0
M  CHG 1  10  -1
M  CHG 1  13  -1
M  CHG 1  15  -1
M  CHG 1  19  -1
M  END
> <UniqueID>
80

> <SMILES>
C=c1c(OCC[N-]S(C)(=O)=O)nc(CCC)c/c1=C/c1[n-]c(=O)[n-]c1[O-]

> <Energy>
80.87566297987934

> <Genealogy>
C=c1c(OCC[N-]S(C)(=O)=O)nc(CCC)cc1=Cc1[n-]c(=O)[n-]c1[O-] (protonated)
C=c1c(OCC[N-]S(C)(=O)=O)nc(CCC)c/c1=C/c1[n-]c(=O)[n-]c1[O-] (cis-trans isomerization)
C=c1c(OCC[N-]S(C)(=O)=O)nc(CCC)c/c1=C/c1[n-]c(=O)[n-]c1[O-] (3D coordinates assigned)
C=c1c(OCC[N-]S(C)(=O)=O)nc(CCC)c/c1=C/c1[n-]c(=O)[n-]c1[O-] (optimized conformer: 80.87566297987934 kcal/mol)

> <smiles>
C=c1c(OCCNS(C)(=O)=O)nc(CCC)cc1=Cc1[nH]c(=O)[nH]c1O

> <score_type>
oracle

> <origin>
adg

> <m_score__min__energy>
-16.059999999999999

> <m_primary>
energy

> <minimizedAffinity>
-7.21463

> <minimizedRMSD>
1.37775

> <CNNscore>
0.1822253317

> <CNNaffinity>
6.1904845238

> <CNN_VS>
1.1280630827

> <CNNaffinity_variance>
0.0955704376

$$$$
86:0


 32 35  0  0  0  0  0  0  0  0999 V2000
   58.2417   26.3138   45.0949 C   0  0  0  0  0  0  0  0  0  0  0  0
   58.7026   27.4890   45.5959 C   0  0  0  0  0  0  0  0  0  0  0  0
   58.0648   28.6670   45.1536 C   0  0  0  0  0  0  0  0  0  0  0  0
   58.3510   29.9150   45.7229 C   0  0  0  0  0  0  0  0  0  0  0  0
   59.2882   29.9723   46.7655 C   0  0  0  0  0  0  0  0  0  0  0  0
   59.9663   28.8530   47.1207 N   0  0  0  0  0  0  0  0  0  0  0  0
   59.7553   27.6353   46.5533 C   0  0  0  0  0  0  0  0  0  0  0  0
   60.6334   26.6731   46.8674 C   0  0  0  0  0  0  0  0  0  0  0  0
   55.2716   26.3896   46.0411 O   0  0  0  0  0  0  0  0  0  0  0  0
   56.1608   25.3352   46.2278 C   0  0  0  0  0  0  0  0  0  0  0  0
   55.8166   24.1758   46.8142 N   0  0  0  0  0  0  0  0  0  0  0  0
   56.9475   23.4458   46.7223 C   0  0  0  0  0  0  0  0  0  0  0  0
   57.0332   22.2711   47.1624 O   0  0  0  0  0  0  0  0  0  0  0  0
   57.9788   24.0695   46.1147 N   0  0  0  0  0  0  0  0  0  0  0  0
   57.4816   25.2835   45.8248 C   0  0  0  0  0  0  0  0  0  0  0  0
   54.3915   26.3216   46.3557 H   0  0  0  0  0  0  0  0  0  0  0  0
   59.5654   31.1948   47.4571 N   0  0  0  0  0  0  0  0  0  0  0  0
   59.1277   31.3698   48.8413 C   0  0  0  0  0  0  0  0  0  0  0  0
   60.2905   31.8517   49.7360 C   0  0  0  0  0  0  0  0  0  0  0  0
   61.3574   32.5885   49.0110 N   0  0  0  0  0  0  0  0  0  0  0  0
   60.8547   33.2676   47.7958 C   0  0  0  0  0  0  0  0  0  0  0  0
   60.2933   32.2674   46.7757 C   0  0  0  0  0  0  0  0  0  0  0  0
   62.5465   31.7398   48.7588 C   0  0  0  0  0  0  0  0  0  0  0  0
   63.5862   31.9186   49.8371 C   0  0  0  0  0  0  0  0  0  0  0  0
   64.5293   32.9575   49.7531 C   0  0  0  0  0  0  0  0  0  0  0  0
   65.4785   33.1279   50.7656 C   0  0  0  0  0  0  0  0  0  0  0  0
   65.4932   32.2650   51.8649 C   0  0  0  0  0  0  0  0  0  0  0  0
   64.5544   31.2326   51.9558 C   0  0  0  0  0  0  0  0  0  0  0  0
   63.6090   31.0543   50.9430 C   0  0  0  0  0  0  0  0  0  0  0  0
   57.6157   31.1433   45.2285 C   0  0  0  0  0  0  0  0  0  0  0  0
   57.3955   31.0889   43.7394 C   0  0  0  0  0  0  0  0  0  0  0  0
   57.8547   32.0401   42.9234 C   0  0  0  0  0  0  0  0  0  0  0  0
  9 10  1  0
 10 11  1  0
 11 12  1  0
 12 13  2  0
 12 14  1  0
 14 15  1  0
 15  1  1  0
  1  2  2  0
  2  3  1  0
  3  4  2  0
  4 30  1  0
 30 31  1  0
 31 32  2  0
  4  5  1  0
  5 17  1  0
 17 18  1  0
 18 19  1  0
 19 20  1  0
 20 23  1  0
 23 24  1  0
 24 25  2  0
 25 26  1  0
 26 27  2  0
 27 28  1  0
 28 29  2  0
 20 21  1  0
 21 22  1  0
  5  6  2  0
  6  7  1  0
  7  8  2  0
 15 10  2  0
  7  2  1  0
 22 17  1  0
 29 24  1  0
  9 16  1  0
M  CHG 1  11  -1
M  CHG 1  14  -1
M  END
> <UniqueID>
84

> <SMILES>
C=CCc1c/c(=C/c2[n-]c(=O)[n-]c2O)c(=C)nc1N1CCN(Cc2ccccc2)CC1

> <Energy>
120.52426456769892

> <Genealogy>
C=CCc1cc(=Cc2[n-]c(=O)[n-]c2O)c(=C)nc1N1CCN(Cc2ccccc2)CC1 (protonated)
C=CCc1c/c(=C/c2[n-]c(=O)[n-]c2O)c(=C)nc1N1CCN(Cc2ccccc2)CC1 (cis-trans isomerization)
C=CCc1c/c(=C/c2[n-]c(=O)[n-]c2O)c(=C)nc1N1CCN(Cc2ccccc2)CC1 (3D coordinates assigned)
C=CCc1c/c(=C/c2[n-]c(=O)[n-]c2O)c(=C)nc1N1CCN(Cc2ccccc2)CC1 (nonaromatic ring conformer: 120.52426456769892 kcal/mol)

> <smiles>
C=CCc1cc(=Cc2[nH]c(=O)[nH]c2O)c(=C)nc1N1CCN(Cc2ccccc2)CC1

> <score_type>
oracle

> <origin>
adg

> <m_score__min__energy>
-14.93

> <m_primary>
energy

> <minimizedAffinity>
-8.99736

> <minimizedRMSD>
2.26464

> <CNNscore>
0.2506353557

> <CNNaffinity>
6.6407847404

> <CNN_VS>
1.6644154787

> <CNNaffinity_variance>
0.0570338331

$$$$
10:0


 31 34  0  0  0  0  0  0  0  0999 V2000
   59.2353   30.6146   52.3956 N   0  0  0  0  0  0  0  0  0  0  0  0
   58.2972   29.5882   51.9177 C   0  0  0  0  0  0  0  0  0  0  0  0
   57.0037   29.6511   52.7361 C   0  0  0  0  0  0  0  0  0  0  0  0
   57.2882   29.7818   54.1759 N   0  0  0  0  0  0  0  0  0  0  0  0
   56.2236   30.1228   55.0843 C   0  0  0  0  0  0  0  0  0  0  0  0
   56.4115   31.0195   55.9516 O   0  0  0  0  0  0  0  0  0  0  0  0
   58.6753   29.7361   54.6541 C   0  0  0  0  0  0  0  0  0  0  0  0
   59.5472   30.6928   53.8310 C   0  0  0  0  0  0  0  0  0  0  0  0
   61.2216   33.1583   49.6548 C   0  0  0  0  0  0  0  0  0  0  0  0
   61.7843   32.9252   50.9113 C   0  0  0  0  0  0  0  0  0  0  0  0
   61.1517   32.0835   51.8251 C   0  0  0  0  0  0  0  0  0  0  0  0
   59.9240   31.4934   51.4841 C   0  0  0  0  0  0  0  0  0  0  0  0
   59.3951   31.7296   50.2516 N   0  0  0  0  0  0  0  0  0  0  0  0
   59.9977   32.5430   49.3446 C   0  0  0  0  0  0  0  0  0  0  0  0
   61.9061   33.9994   48.7614 O   0  0  0  0  0  0  0  0  0  0  0  0
   63.2350   32.3643   47.5562 C   0  0  0  0  0  0  0  0  0  0  0  0
   62.3844   33.6264   47.4690 C   0  0  0  0  0  0  0  0  0  0  0  0
   54.9067   29.4500   55.0141 C   0  0  0  0  0  0  0  0  0  0  0  0
   54.5795   28.4389   55.9340 C   0  0  0  0  0  0  0  0  0  0  0  0
   53.3366   27.8033   55.8690 C   0  0  0  0  0  0  0  0  0  0  0  0
   52.4095   28.1684   54.8881 C   0  0  0  0  0  0  0  0  0  0  0  0
   52.7250   29.1673   53.9567 C   0  0  0  0  0  0  0  0  0  0  0  0
   53.9830   29.7909   54.0112 C   0  0  0  0  0  0  0  0  0  0  0  0
   51.7341   29.5424   52.8888 C   0  0  0  0  0  0  0  0  0  0  0  0
   51.1003   30.8631   53.1979 C   0  0  0  0  0  0  0  0  0  0  0  0
   50.4254   31.1261   54.3311 N   0  0  0  0  0  0  0  0  0  0  0  0
   50.0082   32.3999   54.1584 C   0  0  0  0  0  0  0  0  0  0  0  0
   49.3317   33.0144   55.0223 O   0  0  0  0  0  0  0  0  0  0  0  0
   50.3768   32.9610   52.9869 N   0  0  0  0  0  0  0  0  0  0  0  0
   51.0660   31.9741   52.3910 C   0  0  0  0  0  0  0  0  0  0  0  0
   51.6408   32.0842   51.1311 O   0  0  0  0  0  0  0  0  0  0  0  0
 16 17  1  0
 17 15  1  0
 15  9  1  0
  9 10  2  0
 10 11  1  0
 11 12  2  0
 12  1  1  0
  1  2  1  0
  2  3  1  0
  3  4  1  0
  4  5  1  0
  5  6  2  0
  5 18  1  0
 18 19  2  0
 19 20  1  0
 20 21  2  0
 21 22  1  0
 22 24  1  0
 24 25  1  0
 25 26  1  0
 26 27  1  0
 27 28  2  0
 27 29  1  0
 29 30  1  0
 30 31  1  0
 22 23  2  0
  4  7  1  0
  7  8  1  0
 12 13  1  0
 13 14  2  0
 14  9  1  0
  8  1  1  0
 23 18  1  0
 30 25  2  0
M  CHG 1  26  -1
M  CHG 1  29  -1
M  CHG 1  31  -1
M  END
> <UniqueID>
11

> <SMILES>
CCOc1ccc(N2CCN(C(=O)c3cccc(Cc4[n-]c(=O)[n-]c4[O-])c3)CC2)nc1

> <Energy>
92.1867362765697

> <Genealogy>
CCOc1ccc(N2CCN(C(=O)c3cccc(Cc4[n-]c(=O)[n-]c4[O-])c3)CC2)nc1 (protonated)
CCOc1ccc(N2CCN(C(=O)c3cccc(Cc4[n-]c(=O)[n-]c4[O-])c3)CC2)nc1 (3D coordinates assigned)
CCOc1ccc(N2CCN(C(=O)c3cccc(Cc4[n-]c(=O)[n-]c4[O-])c3)CC2)nc1 (nonaromatic ring conformer: 92.1867362765697 kcal/mol)

> <smiles>
CCOc1ccc(N2CCN(C(=O)c3cccc(Cc4[nH]c(=O)[nH]c4O)c3)CC2)nc1

> <score_type>
oracle

> <origin>
adg

> <m_score__min__energy>
-16.489999999999998

> <m_primary>
energy

> <minimizedAffinity>
-5.94733

> <minimizedRMSD>
1.55610

> <CNNscore>
0.1604281962

> <CNNaffinity>
5.0734615326

> <CNN_VS>
0.8139262795

> <CNNaffinity_variance>
0.1141309366

$$$$
17:0


 27 29  0  0  0  0  0  0  0  0999 V2000
   58.2054   29.6334   45.9062 C   0  0  0  0  0  0  0  0  0  0  0  0
   58.8279   28.7794   46.7354 C   0  0  0  0  0  0  0  0  0  0  0  0
   58.8455   27.3834   46.6220 C   0  0  0  0  0  0  0  0  0  0  0  0
   58.3137   26.6431   45.6255 C   0  0  0  0  0  0  0  0  0  0  0  0
   59.5528   26.9186   47.7232 C   0  0  0  0  0  0  0  0  0  0  0  0
   59.9526   28.0279   48.4394 C   0  0  0  0  0  0  0  0  0  0  0  0
   60.7348   27.9652   49.7160 C   0  0  0  0  0  0  0  0  0  0  0  0
   59.5181   29.1626   47.8417 N   0  0  0  0  0  0  0  0  0  0  0  0
   57.7871   25.2669   45.7640 C   0  0  0  0  0  0  0  0  0  0  0  0
   58.5132   24.1343   45.7218 N   0  0  0  0  0  0  0  0  0  0  0  0
   57.5978   23.1642   45.9210 C   0  0  0  0  0  0  0  0  0  0  0  0
   57.8995   21.9410   45.9418 O   0  0  0  0  0  0  0  0  0  0  0  0
   56.3347   23.6041   46.0981 N   0  0  0  0  0  0  0  0  0  0  0  0
   56.4741   24.9370   46.0006 C   0  0  0  0  0  0  0  0  0  0  0  0
   55.4190   25.8324   46.1215 O   0  0  0  0  0  0  0  0  0  0  0  0
   59.7966   30.5364   48.2969 C   0  0  0  0  0  0  0  0  0  0  0  0
   61.1321   31.0644   47.7487 C   0  0  0  0  0  0  0  0  0  0  0  0
   61.7390   32.1018   48.6400 C   0  0  0  0  0  0  0  0  0  0  0  0
   62.4745   31.7526   49.6029 O   0  0  0  0  0  0  0  0  0  0  0  0
   61.4819   33.4864   48.3847 N   0  0  0  0  0  0  0  0  0  0  0  0
   60.1795   34.1174   48.5636 C   0  0  0  0  0  0  0  0  0  0  0  0
   59.3861   34.0329   47.2900 C   0  0  0  0  0  0  0  0  0  0  0  0
   59.8848   34.5851   46.1003 C   0  0  0  0  0  0  0  0  0  0  0  0
   59.1426   34.4985   44.9186 C   0  0  0  0  0  0  0  0  0  0  0  0
   57.8994   33.8592   44.9160 C   0  0  0  0  0  0  0  0  0  0  0  0
   57.4030   33.2946   46.0942 C   0  0  0  0  0  0  0  0  0  0  0  0
   58.1466   33.3703   47.2754 C   0  0  0  0  0  0  0  0  0  0  0  0
  1  2  2  0
  2  3  1  0
  3  4  2  0
  4  9  1  0
  9 10  1  0
 10 11  1  0
 11 12  2  0
 11 13  1  0
 13 14  1  0
 14 15  1  0
  3  5  1  0
  5  6  2  0
  6  7  1  0
  6  8  1  0
  8 16  1  0
 16 17  1  0
 17 18  1  0
 18 19  2  0
 18 20  1  0
 20 21  1  0
 21 22  1  0
 22 23  2  0
 23 24  1  0
 24 25  2  0
 25 26  1  0
 26 27  2  0
  8  2  1  0
 27 22  1  0
 14  9  2  0
M  CHG 1  10  -1
M  CHG 1  13  -1
M  CHG 1  15  -1
M  CHG 1  20  -1
M  END
> <UniqueID>
18

> <SMILES>
C=c1c(=Cc2[n-]c(=O)[n-]c2[O-])cc(C)n1CCC(=O)[N-]Cc1ccccc1

> <Energy>
97.34290686651192

> <Genealogy>
C=c1c(=Cc2[n-]c(=O)[n-]c2[O-])cc(C)n1CCC(=O)[N-]Cc1ccccc1 (protonated)
C=c1c(=Cc2[n-]c(=O)[n-]c2[O-])cc(C)n1CCC(=O)[N-]Cc1ccccc1 (3D coordinates assigned)
C=c1c(=Cc2[n-]c(=O)[n-]c2[O-])cc(C)n1CCC(=O)[N-]Cc1ccccc1 (optimized conformer: 97.34290686651192 kcal/mol)

> <smiles>
C=c1c(=Cc2[nH]c(=O)[nH]c2O)cc(C)n1CCC(=O)NCc1ccccc1

> <score_type>
oracle

> <origin>
adg

> <m_score__min__energy>
-16.460000000000001

> <m_primary>
energy

> <minimizedAffinity>
-8.22275

> <minimizedRMSD>
0.94287

> <CNNscore>
0.3871639371

> <CNNaffinity>
6.5514550209

> <CNN_VS>
2.5364871025

> <CNNaffinity_variance>
0.0042543667

$$$$
20:0


 34 37  0  0  0  0  0  0  0  0999 V2000
   56.9537   29.0515   43.2093 C   0  0  0  0  0  0  0  0  0  0  0  0
   57.6943   28.8583   44.3128 C   0  0  0  0  0  0  0  0  0  0  0  0
   57.9477   27.6368   44.9568 C   0  0  0  0  0  0  0  0  0  0  0  0
   57.7292   26.3671   44.5625 C   0  0  0  0  0  0  0  0  0  0  0  0
   58.4972   27.9575   46.1886 C   0  0  0  0  0  0  0  0  0  0  0  0
   58.6202   29.3311   46.2281 C   0  0  0  0  0  0  0  0  0  0  0  0
   59.1430   30.1091   47.3959 C   0  0  0  0  0  0  0  0  0  0  0  0
   58.1462   29.8768   45.0876 N   0  0  0  0  0  0  0  0  0  0  0  0
   58.0032   31.2781   44.8220 C   0  0  0  0  0  0  0  0  0  0  0  0
   58.3088   31.7341   43.6882 O   0  0  0  0  0  0  0  0  0  0  0  0
   57.2326   25.2772   45.4180 C   0  0  0  0  0  0  0  0  0  0  0  0
   57.9285   24.1699   45.7340 N   0  0  0  0  0  0  0  0  0  0  0  0
   57.1259   23.5396   46.6194 C   0  0  0  0  0  0  0  0  0  0  0  0
   57.4301   22.4389   47.1460 O   0  0  0  0  0  0  0  0  0  0  0  0
   55.9753   24.1873   46.9017 N   0  0  0  0  0  0  0  0  0  0  0  0
   56.0660   25.2909   46.1434 C   0  0  0  0  0  0  0  0  0  0  0  0
   55.1039   26.2928   46.1166 O   0  0  0  0  0  0  0  0  0  0  0  0
   57.4217   32.1316   45.8112 N   0  0  0  0  0  0  0  0  0  0  0  0
   57.7719   33.5426   45.9270 C   0  0  0  0  0  0  0  0  0  0  0  0
   59.0078   33.6813   46.7763 C   0  0  0  0  0  0  0  0  0  0  0  0
   58.9044   33.7790   48.1733 C   0  0  0  0  0  0  0  0  0  0  0  0
   60.0533   33.7434   48.9692 C   0  0  0  0  0  0  0  0  0  0  0  0
   61.3172   33.6007   48.3786 C   0  0  0  0  0  0  0  0  0  0  0  0
   61.4247   33.5303   46.9831 C   0  0  0  0  0  0  0  0  0  0  0  0
   60.2767   33.5671   46.1873 C   0  0  0  0  0  0  0  0  0  0  0  0
   62.7592   33.4731   49.3873 S   0  0  0  0  0  0  0  0  0  0  0  0
   63.9660   33.3187   48.5045 O   0  0  0  0  0  0  0  0  0  0  0  0
   62.9231   34.7397   50.1808 O   0  0  0  0  0  0  0  0  0  0  0  0
   62.6694   32.1134   50.4819 N   0  0  0  0  0  0  0  0  0  0  0  0
   61.9287   31.0017   49.8683 C   0  0  0  0  0  0  0  0  0  0  0  0
   61.8716   29.8061   50.8446 C   0  0  0  0  0  0  0  0  0  0  0  0
   62.4111   30.1241   52.1150 O   0  0  0  0  0  0  0  0  0  0  0  0
   61.7736   31.2752   52.6359 C   0  0  0  0  0  0  0  0  0  0  0  0
   62.0293   32.5092   51.7472 C   0  0  0  0  0  0  0  0  0  0  0  0
  1  2  2  0
  2  3  1  0
  3  4  2  0
  4 11  1  0
 11 12  1  0
 12 13  1  0
 13 14  2  0
 13 15  1  0
 15 16  1  0
 16 17  1  0
  3  5  1  0
  5  6  2  0
  6  7  1  0
  6  8  1  0
  8  9  1  0
  9 10  2  0
  9 18  1  0
 18 19  1  0
 19 20  1  0
 20 21  2  0
 21 22  1  0
 22 23  2  0
 23 26  1  0
 26 27  2  0
 26 28  2  0
 26 29  1  0
 29 30  1  0
 30 31  1  0
 31 32  1  0
 32 33  1  0
 33 34  1  0
 23 24  1  0
 24 25  2  0
  8  2  1  0
 25 20  1  0
 16 11  2  0
 34 29  1  0
M  CHG 1  12  -1
M  CHG 1  15  -1
M  CHG 1  17  -1
M  CHG 1  18  -1
M  END
> <UniqueID>
21

> <SMILES>
C=c1c(=Cc2[n-]c(=O)[n-]c2[O-])cc(C)n1C(=O)[N-]Cc1ccc(S(=O)(=O)N2CCOCC2)cc1

> <Energy>
133.35425799038705

> <Genealogy>
C=c1c(=Cc2[n-]c(=O)[n-]c2[O-])cc(C)n1C(=O)[N-]Cc1ccc(S(=O)(=O)N2CCOCC2)cc1 (protonated)
C=c1c(=Cc2[n-]c(=O)[n-]c2[O-])cc(C)n1C(=O)[N-]Cc1ccc(S(=O)(=O)N2CCOCC2)cc1 (3D coordinates assigned)
C=c1c(=Cc2[n-]c(=O)[n-]c2[O-])cc(C)n1C(=O)[N-]Cc1ccc(S(=O)(=O)N2CCOCC2)cc1 (nonaromatic ring conformer: 133.35425799038705 kcal/mol)

> <smiles>
C=c1c(=Cc2[nH]c(=O)[nH]c2O)cc(C)n1C(=O)NCc1ccc(S(=O)(=O)N2CCOCC2)cc1

> <score_type>
oracle

> <origin>
adg

> <m_score__min__energy>
-19.609999999999999

> <m_primary>
energy

> <minimizedAffinity>
-8.37853

> <minimizedRMSD>
1.00651

> <CNNscore>
0.1571784914

> <CNNaffinity>
6.5761337280

> <CNN_VS>
1.0336267948

> <CNNaffinity_variance>
0.0552414171

$$$$
25:0


 30 33  0  0  0  0  0  0  0  0999 V2000
   58.1964   26.7053   43.0461 C   0  0  0  0  0  0  0  0  0  0  0  0
   58.4270   26.4492   44.3457 C   0  0  0  0  0  0  0  0  0  0  0  0
   58.0495   25.2890   45.0435 C   0  0  0  0  0  0  0  0  0  0  0  0
   57.2240   24.2779   44.7035 C   0  0  0  0  0  0  0  0  0  0  0  0
   58.7001   25.3408   46.2617 C   0  0  0  0  0  0  0  0  0  0  0  0
   59.3735   26.5418   46.3070 C   0  0  0  0  0  0  0  0  0  0  0  0
   60.2377   26.9764   47.4519 C   0  0  0  0  0  0  0  0  0  0  0  0
   59.2113   27.2237   45.1459 N   0  0  0  0  0  0  0  0  0  0  0  0
   55.8090   24.1617   45.0848 C   0  0  0  0  0  0  0  0  0  0  0  0
   54.9803   23.1854   44.6718 N   0  0  0  0  0  0  0  0  0  0  0  0
   53.7815   23.5668   45.1632 C   0  0  0  0  0  0  0  0  0  0  0  0
   52.7345   22.8877   44.9972 O   0  0  0  0  0  0  0  0  0  0  0  0
   53.7896   24.7360   45.8382 N   0  0  0  0  0  0  0  0  0  0  0  0
   55.0783   25.1053   45.7652 C   0  0  0  0  0  0  0  0  0  0  0  0
   55.5764   26.2840   46.3072 O   0  0  0  0  0  0  0  0  0  0  0  0
   59.8734   28.4995   44.8187 C   0  0  0  0  0  0  0  0  0  0  0  0
   58.9183   29.6536   44.9847 C   0  0  0  0  0  0  0  0  0  0  0  0
   57.7298   29.7076   44.2372 C   0  0  0  0  0  0  0  0  0  0  0  0
   56.8253   30.7548   44.4248 C   0  0  0  0  0  0  0  0  0  0  0  0
   57.0960   31.7556   45.3612 C   0  0  0  0  0  0  0  0  0  0  0  0
   58.2802   31.7208   46.1112 C   0  0  0  0  0  0  0  0  0  0  0  0
   59.1933   30.6726   45.9103 C   0  0  0  0  0  0  0  0  0  0  0  0
   58.5561   32.7903   47.1429 C   0  0  0  0  0  0  0  0  0  0  0  0
   59.7291   32.4577   47.9861 N   0  0  0  0  0  0  0  0  0  0  0  0
   59.3546   32.4611   49.4123 C   0  0  0  0  0  0  0  0  0  0  0  0
   60.7872   32.9419   50.4273 S   0  0  0  0  0  0  0  0  0  0  0  0
   61.4033   33.9683   49.0755 C   0  0  0  0  0  0  0  0  0  0  0  0
   60.7972   33.4119   47.8401 C   0  0  0  0  0  0  0  0  0  0  0  0
   61.2560   33.6988   46.7440 O   0  0  0  0  0  0  0  0  0  0  0  0
   60.3164   31.7420   48.3209 H   0  0  0  0  0  0  0  0  0  0  0  0
  1  2  2  0
  2  3  1  0
  3  4  2  0
  4  9  1  0
  9 10  1  0
 10 11  1  0
 11 12  2  0
 11 13  1  0
 13 14  1  0
 14 15  1  0
  3  5  1  0
  5  6  2  0
  6  7  1  0
  6  8  1  0
  8 16  1  0
 16 17  1  0
 17 18  2  0
 18 19  1  0
 19 20  2  0
 20 21  1  0
 21 23  1  0
 24 23  1  0
 24 25  1  0
 25 26  1  0
 26 27  1  0
 27 28  1  0
 28 29  2  0
 21 22  2  0
  8  2  1  0
 22 17  1  0
 14  9  2  0
 28 24  1  0
 24 30  1  0
M  CHG 1  10  -1
M  CHG 1  13  -1
M  CHG 1  15  -1
M  CHG 1  24   1
M  END
> <UniqueID>
26

> <SMILES>
C=c1c(=Cc2[n-]c(=O)[n-]c2[O-])cc(C)n1Cc1cccc(C[N@@H+]2CSCC2=O)c1

> <Energy>
118.96597376513199

> <Genealogy>
C=c1c(=Cc2[n-]c(=O)[n-]c2[O-])cc(C)n1Cc1cccc(C[NH+]2CSCC2=O)c1 (protonated)
C=c1c(=Cc2[n-]c(=O)[n-]c2[O-])cc(C)n1Cc1cccc(C[N@@H+]2CSCC2=O)c1 (chirality)
C=c1c(=Cc2[n-]c(=O)[n-]c2[O-])cc(C)n1Cc1cccc(C[N@@H+]2CSCC2=O)c1 (3D coordinates assigned)
C=c1c(=Cc2[n-]c(=O)[n-]c2[O-])cc(C)n1Cc1cccc(C[N@@H+]2CSCC2=O)c1 (nonaromatic ring conformer: 118.96597376513199 kcal/mol)

> <smiles>
C=c1c(=Cc2[nH]c(=O)[nH]c2O)cc(C)n1Cc1cccc(CN2CSCC2=O)c1

> <score_type>
oracle

> <origin>
adg

> <m_score__min__energy>
-15.19

> <m_primary>
energy

> <minimizedAffinity>
-7.21468

> <minimizedRMSD>
1.07694

> <CNNscore>
0.0985080972

> <CNNaffinity>
6.2838592529

> <CNN_VS>
0.6190110445

> <CNNaffinity_variance>
0.0037813045

$$$$
27:0


 26 28  0  0  0  0  0  0  0  0999 V2000
   59.0215   30.0963   47.1643 C   0  0  0  0  0  0  0  0  0  0  0  0
   58.9055   29.2209   48.1823 N   0  0  0  0  0  0  0  0  0  0  0  0
   58.9093   30.0066   49.2760 C   0  0  0  0  0  0  0  0  0  0  0  0
   58.8263   29.5450   50.4444 O   0  0  0  0  0  0  0  0  0  0  0  0
   58.9988   31.3269   49.0200 N   0  0  0  0  0  0  0  0  0  0  0  0
   59.0686   31.3810   47.6784 C   0  0  0  0  0  0  0  0  0  0  0  0
   59.1366   32.6477   46.9214 C   0  0  0  0  0  0  0  0  0  0  0  0
   58.3710   32.8024   45.7538 C   0  0  0  0  0  0  0  0  0  0  0  0
   58.4368   33.9851   45.0136 C   0  0  0  0  0  0  0  0  0  0  0  0
   59.2742   35.0212   45.4259 C   0  0  0  0  0  0  0  0  0  0  0  0
   60.0532   34.8781   46.5764 C   0  0  0  0  0  0  0  0  0  0  0  0
   59.9972   33.6893   47.3341 C   0  0  0  0  0  0  0  0  0  0  0  0
   60.7787   33.5240   48.5308 N   0  0  0  0  0  0  0  0  0  0  0  0
   62.0432   33.3705   48.5428 C   0  0  0  0  0  0  0  0  0  0  0  0
   63.6426   33.1757   48.5566 S   0  0  0  0  0  0  0  0  0  0  0  0
   58.9277   29.7115   45.7110 C   0  0  0  0  0  0  0  0  0  0  0  0
   56.7636   30.3621   44.9763 O   0  0  0  0  0  0  0  0  0  0  0  0
   57.5120   29.4011   45.2994 C   0  0  0  0  0  0  0  0  0  0  0  0
   56.9696   28.0694   45.2405 N   0  0  0  0  0  0  0  0  0  0  0  0
   57.4887   26.9452   45.6521 C   0  0  0  0  0  0  0  0  0  0  0  0
   58.8369   26.7401   45.6551 N   0  0  0  0  0  0  0  0  0  0  0  0
   59.3935   25.5819   46.0959 C   0  0  0  0  0  0  0  0  0  0  0  0
   58.5786   24.5518   46.5697 C   0  0  0  0  0  0  0  0  0  0  0  0
   57.1948   24.7312   46.5830 C   0  0  0  0  0  0  0  0  0  0  0  0
   56.6422   25.9311   46.1272 C   0  0  0  0  0  0  0  0  0  0  0  0
   55.2630   26.1079   46.1452 O   0  0  0  0  0  0  0  0  0  0  0  0
 17 18  2  0
 18 16  1  0
 16  1  1  0
  1  2  1  0
  2  3  1  0
  3  4  2  0
  3  5  1  0
  5  6  1  0
  6  7  1  0
  7  8  2  0
  8  9  1  0
  9 10  2  0
 10 11  1  0
 11 12  2  0
 12 13  1  0
 13 14  2  0
 14 15  2  0
 18 19  1  0
 19 20  2  0
 20 21  1  0
 21 22  1  0
 22 23  2  0
 23 24  1  0
 24 25  2  0
 25 26  1  0
  6  1  2  0
 12  7  1  0
 25 20  1  0
M  CHG 1   2  -1
M  CHG 1   5  -1
M  CHG 1  21  -1
M  CHG 1  26  -1
M  END
> <UniqueID>
28

> <SMILES>
O=C(Cc1[n-]c(=O)[n-]c1-c1ccccc1N=C=S)N=c1[n-]cccc1[O-]

> <Energy>
77.88474279017774

> <Genealogy>
O=C(Cc1[n-]c(=O)[n-]c1-c1ccccc1N=C=S)N=c1[n-]cccc1[O-] (protonated)
O=C(Cc1[n-]c(=O)[n-]c1-c1ccccc1N=C=S)N=c1[n-]cccc1[O-] (3D coordinates assigned)
O=C(Cc1[n-]c(=O)[n-]c1-c1ccccc1N=C=S)N=c1[n-]cccc1[O-] (optimized conformer: 77.88474279017774 kcal/mol)

> <smiles>
O=C(Cc1[nH]c(=O)[nH]c1-c1ccccc1N=C=S)N=c1[nH]cccc1O

> <score_type>
oracle

> <origin>
adg

> <m_score__min__energy>
-16.260000000000002

> <m_primary>
energy

> <minimizedAffinity>
-7.45774

> <minimizedRMSD>
0.67003

> <CNNscore>
0.7932531238

> <CNNaffinity>
6.8631033897

> <CNN_VS>
5.4441781044

> <CNNaffinity_variance>
0.0674714968

$$$$
37:0


 30 33  0  0  0  0  0  0  0  0999 V2000
   57.0705   30.5978   44.3398 C   0  0  0  0  0  0  0  0  0  0  0  0
   57.6801   29.4929   44.7747 C   0  0  0  0  0  0  0  0  0  0  0  0
   57.3697   28.2603   44.3233 N   0  0  0  0  0  0  0  0  0  0  0  0
   58.1212   27.3849   45.0305 C   0  0  0  0  0  0  0  0  0  0  0  0
   58.1088   26.0453   44.9088 C   0  0  0  0  0  0  0  0  0  0  0  0
   58.9132   28.0639   45.9409 C   0  0  0  0  0  0  0  0  0  0  0  0
   58.6515   29.4096   45.7651 C   0  0  0  0  0  0  0  0  0  0  0  0
   56.7214   28.0400   43.6158 H   0  0  0  0  0  0  0  0  0  0  0  0
   57.4072   25.1011   45.8051 C   0  0  0  0  0  0  0  0  0  0  0  0
   57.9198   23.9680   46.3166 N   0  0  0  0  0  0  0  0  0  0  0  0
   56.9270   23.4977   47.1020 C   0  0  0  0  0  0  0  0  0  0  0  0
   57.0306   22.4282   47.7576 O   0  0  0  0  0  0  0  0  0  0  0  0
   55.8169   24.2650   47.1311 N   0  0  0  0  0  0  0  0  0  0  0  0
   56.1397   25.2774   46.3096 C   0  0  0  0  0  0  0  0  0  0  0  0
   55.2929   26.3411   46.0276 O   0  0  0  0  0  0  0  0  0  0  0  0
   59.3098   30.4903   46.5339 C   0  0  0  0  0  0  0  0  0  0  0  0
   60.5222   30.3210   46.8431 O   0  0  0  0  0  0  0  0  0  0  0  0
   58.6025   31.6974   46.9521 N   0  0  0  0  0  0  0  0  0  0  0  0
   58.5369   31.8417   48.4274 C   0  0  0  0  0  0  0  0  0  0  0  0
   59.9092   32.1788   49.0338 C   0  0  0  0  0  0  0  0  0  0  0  0
   60.4437   33.4093   48.4210 N   0  0  0  0  0  0  0  0  0  0  0  0
   60.5520   33.2623   46.9560 C   0  0  0  0  0  0  0  0  0  0  0  0
   59.1745   32.9338   46.3644 C   0  0  0  0  0  0  0  0  0  0  0  0
   59.2179   31.8791   46.2054 H   0  0  0  0  0  0  0  0  0  0  0  0
   61.6953   33.9263   49.0410 C   0  0  0  0  0  0  0  0  0  0  0  0
   61.7713   33.5374   50.5403 C   0  0  0  0  0  0  0  0  0  0  0  0
   62.9633   32.6289   50.8513 C   0  0  0  0  0  0  0  0  0  0  0  0
   63.0984   31.6554   49.8422 O   0  0  0  0  0  0  0  0  0  0  0  0
   63.6513   32.2345   48.6753 C   0  0  0  0  0  0  0  0  0  0  0  0
   62.9950   33.5763   48.2587 C   0  0  0  0  0  0  0  0  0  0  0  0
  1  2  2  0
  2  3  1  0
  3  4  1  0
  4  5  2  0
  5  9  1  0
  9 10  1  0
 10 11  1  0
 11 12  2  0
 11 13  1  0
 13 14  1  0
 14 15  1  0
  4  6  1  0
  6  7  2  0
  7 16  1  0
 16 17  2  0
 16 18  1  0
 18 19  1  0
 19 20  1  0
 20 21  1  0
 21 25  1  0
 25 26  1  0
 26 27  1  0
 27 28  1  0
 28 29  1  0
 29 30  1  0
 21 22  1  0
 22 23  1  0
  7  2  1  0
 23 18  1  0
 14  9  2  0
 30 25  1  0
  3  8  1  0
 18 24  1  0
M  CHG 1  10  -1
M  CHG 1  13  -1
M  CHG 1  15  -1
M  CHG 1  18   1
M  END
> <UniqueID>
38

> <SMILES>
C=c1[nH]c(=Cc2[n-]c(=O)[n-]c2[O-])cc1C(=O)[NH+]1CCN(C2CCOCC2)CC1

> <Energy>
139.70860026078986

> <Genealogy>
C=c1[nH]c(=Cc2[n-]c(=O)[n-]c2[O-])cc1C(=O)[NH+]1CCN(C2CCOCC2)CC1 (protonated)
C=c1[nH]c(=Cc2[n-]c(=O)[n-]c2[O-])cc1C(=O)[NH+]1CCN(C2CCOCC2)CC1 (3D coordinates assigned)
C=c1[nH]c(=Cc2[n-]c(=O)[n-]c2[O-])cc1C(=O)[NH+]1CCN(C2CCOCC2)CC1 (nonaromatic ring conformer: 139.70860026078986 kcal/mol)

> <smiles>
C=c1[nH]c(=Cc2[nH]c(=O)[nH]c2O)cc1C(=O)N1CCN(C2CCOCC2)CC1

> <score_type>
oracle

> <origin>
adg

> <m_score__min__energy>
-16.030000000000001

> <m_primary>
energy

> <minimizedAffinity>
-8.42307

> <minimizedRMSD>
0.59459

> <CNNscore>
0.1011958867

> <CNNaffinity>
5.9311923981

> <CNN_VS>
0.6002122760

> <CNNaffinity_variance>
0.0312734358

$$$$
43:0


 27 29  0  0  0  0  0  0  0  0999 V2000
   59.7658   27.1544   46.9741 C   0  0  0  0  0  0  0  0  0  0  0  0
   59.0781   27.9357   46.1264 C   0  0  0  0  0  0  0  0  0  0  0  0
   58.2665   27.5140   45.0581 C   0  0  0  0  0  0  0  0  0  0  0  0
   57.8608   26.2867   44.6774 C   0  0  0  0  0  0  0  0  0  0  0  0
   57.8781   28.6619   44.3920 C   0  0  0  0  0  0  0  0  0  0  0  0
   58.4188   29.7279   45.0757 C   0  0  0  0  0  0  0  0  0  0  0  0
   58.1647   31.1643   44.7292 C   0  0  0  0  0  0  0  0  0  0  0  0
   59.1482   29.2952   46.1311 N   0  0  0  0  0  0  0  0  0  0  0  0
   57.3751   25.2241   45.5693 C   0  0  0  0  0  0  0  0  0  0  0  0
   58.0250   24.0646   45.7682 N   0  0  0  0  0  0  0  0  0  0  0  0
   57.1674   23.3533   46.5310 C   0  0  0  0  0  0  0  0  0  0  0  0
   57.4314   22.1961   46.9485 O   0  0  0  0  0  0  0  0  0  0  0  0
   56.0005   23.9757   46.8041 N   0  0  0  0  0  0  0  0  0  0  0  0
   56.1411   25.1527   46.1742 C   0  0  0  0  0  0  0  0  0  0  0  0
   55.1533   26.1290   46.1324 O   0  0  0  0  0  0  0  0  0  0  0  0
   59.9154   30.1522   47.0539 C   0  0  0  0  0  0  0  0  0  0  0  0
   59.2607   30.2470   48.4408 C   0  0  0  0  0  0  0  0  0  0  0  0
   58.8675   31.6479   48.7940 C   0  0  0  0  0  0  0  0  0  0  0  0
   58.6388   31.9540   49.9961 O   0  0  0  0  0  0  0  0  0  0  0  0
   58.7587   32.6313   47.7585 N   0  0  0  0  0  0  0  0  0  0  0  0
   59.4143   33.9317   47.8023 C   0  0  0  0  0  0  0  0  0  0  0  0
   60.8896   33.7591   47.9979 C   0  0  0  0  0  0  0  0  0  0  0  0
   61.4749   33.9320   49.2617 C   0  0  0  0  0  0  0  0  0  0  0  0
   62.8550   33.7803   49.4022 C   0  0  0  0  0  0  0  0  0  0  0  0
   63.6373   33.4643   48.2908 C   0  0  0  0  0  0  0  0  0  0  0  0
   63.0223   33.3079   47.0449 C   0  0  0  0  0  0  0  0  0  0  0  0
   61.6770   33.4614   46.9277 N   0  0  0  0  0  0  0  0  0  0  0  0
  1  2  2  0
  2  3  1  0
  3  4  2  0
  4  9  1  0
  9 10  1  0
 10 11  1  0
 11 12  2  0
 11 13  1  0
 13 14  1  0
 14 15  1  0
  3  5  1  0
  5  6  2  0
  6  7  1  0
  6  8  1  0
  8 16  1  0
 16 17  1  0
 17 18  1  0
 18 19  2  0
 18 20  1  0
 20 21  1  0
 21 22  1  0
 22 23  2  0
 23 24  1  0
 24 25  2  0
 25 26  1  0
 26 27  2  0
  8  2  1  0
 27 22  1  0
 14  9  2  0
M  CHG 1  10  -1
M  CHG 1  13  -1
M  CHG 1  15  -1
M  CHG 1  20  -1
M  END
> <UniqueID>
43

> <SMILES>
C=c1c(=Cc2[n-]c(=O)[n-]c2[O-])cc(C)n1CCC(=O)[N-]Cc1ccccn1

> <Energy>
106.48261163775875

> <Genealogy>
C=c1c(=Cc2[n-]c(=O)[n-]c2[O-])cc(C)n1CCC(=O)[N-]Cc1ccccn1 (protonated)
C=c1c(=Cc2[n-]c(=O)[n-]c2[O-])cc(C)n1CCC(=O)[N-]Cc1ccccn1 (3D coordinates assigned)
C=c1c(=Cc2[n-]c(=O)[n-]c2[O-])cc(C)n1CCC(=O)[N-]Cc1ccccn1 (optimized conformer: 106.48261163775875 kcal/mol)

> <smiles>
C=c1c(=Cc2[nH]c(=O)[nH]c2O)cc(C)n1CCC(=O)NCc1ccccn1

> <score_type>
oracle

> <origin>
adg

> <m_score__min__energy>
-17.079999999999998

> <m_primary>
energy

> <minimizedAffinity>
-7.66177

> <minimizedRMSD>
0.78241

> <CNNscore>
0.3542512953

> <CNNaffinity>
6.9773821831

> <CNN_VS>
2.4717466831

> <CNNaffinity_variance>
0.2946596146

$$$$
49:0


 32 35  0  0  0  0  0  0  0  0999 V2000
   56.0758   29.4764   45.0031 O   0  0  0  0  0  0  0  0  0  0  0  0
   57.2953   29.6584   44.7305 C   0  0  0  0  0  0  0  0  0  0  0  0
   57.8362   30.9933   44.7438 N   0  0  0  0  0  0  0  0  0  0  0  0
   57.6604   31.8080   43.5306 C   0  0  0  0  0  0  0  0  0  0  0  0
   58.4519   33.1171   43.5942 C   0  0  0  0  0  0  0  0  0  0  0  0
   58.1303   33.8662   44.8892 C   0  0  0  0  0  0  0  0  0  0  0  0
   58.4373   32.9975   46.0773 C   0  0  0  0  0  0  0  0  0  0  0  0
   58.8618   33.5866   47.2783 C   0  0  0  0  0  0  0  0  0  0  0  0
   59.1902   32.7955   48.3826 C   0  0  0  0  0  0  0  0  0  0  0  0
   59.0574   31.4011   48.2941 C   0  0  0  0  0  0  0  0  0  0  0  0
   58.6108   30.8085   47.1086 C   0  0  0  0  0  0  0  0  0  0  0  0
   58.2757   31.5989   45.9901 C   0  0  0  0  0  0  0  0  0  0  0  0
   58.1460   28.4881   44.3210 C   0  0  0  0  0  0  0  0  0  0  0  0
   58.5677   27.6908   45.5154 C   0  0  0  0  0  0  0  0  0  0  0  0
   59.7929   27.7424   46.0605 N   0  0  0  0  0  0  0  0  0  0  0  0
   59.6924   26.9235   47.1291 C   0  0  0  0  0  0  0  0  0  0  0  0
   60.6543   26.7046   47.9049 O   0  0  0  0  0  0  0  0  0  0  0  0
   58.4767   26.3641   47.3026 N   0  0  0  0  0  0  0  0  0  0  0  0
   57.7738   26.8666   46.2749 C   0  0  0  0  0  0  0  0  0  0  0  0
   56.4304   26.5921   46.0372 O   0  0  0  0  0  0  0  0  0  0  0  0
   55.9619   26.0155   46.6081 H   0  0  0  0  0  0  0  0  0  0  0  0
   59.6729   33.4417   49.5683 N   0  0  0  0  0  0  0  0  0  0  0  0
   59.9780   32.6528   51.0796 S   0  0  0  0  0  0  0  0  0  0  0  0
   59.0457   31.4820   51.2392 O   0  0  0  0  0  0  0  0  0  0  0  0
   59.7828   33.6236   52.2144 O   0  0  0  0  0  0  0  0  0  0  0  0
   61.6618   32.0513   51.0884 C   0  0  0  0  0  0  0  0  0  0  0  0
   62.3308   32.3842   49.7796 C   0  0  0  0  0  0  0  0  0  0  0  0
   62.4212   31.4197   48.7573 C   0  0  0  0  0  0  0  0  0  0  0  0
   62.9622   31.7610   47.5091 C   0  0  0  0  0  0  0  0  0  0  0  0
   63.4065   33.0658   47.2717 C   0  0  0  0  0  0  0  0  0  0  0  0
   63.3264   34.0284   48.2844 C   0  0  0  0  0  0  0  0  0  0  0  0
   62.7926   33.6897   49.5370 C   0  0  0  0  0  0  0  0  0  0  0  0
  1  2  2  0
  2 13  1  0
 13 14  1  0
 14 15  1  0
 15 16  1  0
 16 17  2  0
 16 18  1  0
 18 19  1  0
 19 20  1  0
  2  3  1  0
  3  4  1  0
  4  5  1  0
  5  6  1  0
  6  7  1  0
  7  8  2  0
  8  9  1  0
  9 22  1  0
 22 23  1  0
 23 24  2  0
 23 25  2  0
 23 26  1  0
 26 27  1  0
 27 28  2  0
 28 29  1  0
 29 30  2  0
 30 31  1  0
 31 32  2  0
  9 10  2  0
 10 11  1  0
 11 12  2  0
 19 14  2  0
 12  3  1  0
 12  7  1  0
 32 27  1  0
 20 21  1  0
M  CHG 1  15  -1
M  CHG 1  18  -1
M  CHG 1  22  -1
M  END
> <UniqueID>
49

> <SMILES>
O=C(Cc1[n-]c(=O)[n-]c1O)N1CCCc2cc([N-]S(=O)(=O)Cc3ccccc3)ccc21

> <Energy>
85.9479958498876

> <Genealogy>
O=C(Cc1[n-]c(=O)[n-]c1O)N1CCCc2cc([N-]S(=O)(=O)Cc3ccccc3)ccc21 (protonated)
O=C(Cc1[n-]c(=O)[n-]c1O)N1CCCc2cc([N-]S(=O)(=O)Cc3ccccc3)ccc21 (3D coordinates assigned)
O=C(Cc1[n-]c(=O)[n-]c1O)N1CCCc2cc([N-]S(=O)(=O)Cc3ccccc3)ccc21 (nonaromatic ring conformer: 85.9479958498876 kcal/mol)

> <smiles>
O=C(Cc1[nH]c(=O)[nH]c1O)N1CCCc2cc(NS(=O)(=O)Cc3ccccc3)ccc21

> <score_type>
oracle

> <origin>
adg

> <m_score__min__energy>
-14.93

> <m_primary>
energy

> <minimizedAffinity>
-8.43824

> <minimizedRMSD>
0.77726

> <CNNscore>
0.7559896708

> <CNNaffinity>
7.0491232872

> <CNN_VS>
5.3290643692

> <CNNaffinity_variance>
0.2434189916

$$$$
58:0


 30 33  0  0  0  0  0  0  0  0999 V2000
   55.9574   31.2854   52.6741 C   0  0  0  0  0  0  0  0  0  0  0  0
   55.5649   30.1056   53.1808 C   0  0  0  0  0  0  0  0  0  0  0  0
   54.3560   29.4443   52.9069 C   0  0  0  0  0  0  0  0  0  0  0  0
   53.2341   29.8653   52.2895 C   0  0  0  0  0  0  0  0  0  0  0  0
   54.4831   28.1714   53.4319 C   0  0  0  0  0  0  0  0  0  0  0  0
   55.7032   28.1184   54.0680 C   0  0  0  0  0  0  0  0  0  0  0  0
   56.2429   26.8981   54.7523 C   0  0  0  0  0  0  0  0  0  0  0  0
   56.3663   29.2912   53.9243 N   0  0  0  0  0  0  0  0  0  0  0  0
   52.1153   30.5743   52.9314 C   0  0  0  0  0  0  0  0  0  0  0  0
   51.5523   30.2205   54.1019 N   0  0  0  0  0  0  0  0  0  0  0  0
   50.4988   31.0597   54.2074 C   0  0  0  0  0  0  0  0  0  0  0  0
   49.7192   31.0484   55.1957 O   0  0  0  0  0  0  0  0  0  0  0  0
   50.3392   31.9036   53.1653 N   0  0  0  0  0  0  0  0  0  0  0  0
   51.3616   31.5718   52.3615 C   0  0  0  0  0  0  0  0  0  0  0  0
   51.6012   32.1664   51.1282 O   0  0  0  0  0  0  0  0  0  0  0  0
   57.7273   29.5584   54.4221 C   0  0  0  0  0  0  0  0  0  0  0  0
   58.5966   30.1312   53.3307 C   0  0  0  0  0  0  0  0  0  0  0  0
   58.8850   29.3775   52.1818 C   0  0  0  0  0  0  0  0  0  0  0  0
   59.6790   29.9118   51.1646 C   0  0  0  0  0  0  0  0  0  0  0  0
   60.2078   31.2093   51.2788 C   0  0  0  0  0  0  0  0  0  0  0  0
   59.9203   31.9606   52.4310 C   0  0  0  0  0  0  0  0  0  0  0  0
   59.1241   31.4265   53.4473 C   0  0  0  0  0  0  0  0  0  0  0  0
   61.0214   31.7640   50.2235 N   0  0  0  0  0  0  0  0  0  0  0  0
   62.2832   32.4506   50.5657 C   0  0  0  0  0  0  0  0  0  0  0  0
   63.3931   32.0938   49.5772 C   0  0  0  0  0  0  0  0  0  0  0  0
   62.9204   32.5996   47.9372 S   0  0  0  0  0  0  0  0  0  0  0  0
   63.3528   31.5635   46.9373 O   0  0  0  0  0  0  0  0  0  0  0  0
   63.5520   33.9205   47.6016 O   0  0  0  0  0  0  0  0  0  0  0  0
   61.1478   32.7574   47.9247 C   0  0  0  0  0  0  0  0  0  0  0  0
   60.5226   31.6983   48.8354 C   0  0  0  0  0  0  0  0  0  0  0  0
  1  2  2  0
  2  3  1  0
  3  4  2  0
  4  9  1  0
  9 10  1  0
 10 11  1  0
 11 12  2  0
 11 13  1  0
 13 14  1  0
 14 15  1  0
  3  5  1  0
  5  6  2  0
  6  7  1  0
  6  8  1  0
  8 16  1  0
 16 17  1  0
 17 18  2  0
 18 19  1  0
 19 20  2  0
 20 23  1  0
 23 24  1  0
 24 25  1  0
 25 26  1  0
 26 27  2  0
 26 28  2  0
 26 29  1  0
 29 30  1  0
 20 21  1  0
 21 22  2  0
  8  2  1  0
 22 17  1  0
 14  9  2  0
 30 23  1  0
M  CHG 1  10  -1
M  CHG 1  13  -1
M  CHG 1  15  -1
M  END
> <UniqueID>
58

> <SMILES>
C=c1c(=Cc2[n-]c(=O)[n-]c2[O-])cc(C)n1Cc1ccc(N2CCS(=O)(=O)CC2)cc1

> <Energy>
121.46488748268668

> <Genealogy>
C=c1c(=Cc2[n-]c(=O)[n-]c2[O-])cc(C)n1Cc1ccc(N2CCS(=O)(=O)CC2)cc1 (protonated)
C=c1c(=Cc2[n-]c(=O)[n-]c2[O-])cc(C)n1Cc1ccc(N2CCS(=O)(=O)CC2)cc1 (3D coordinates assigned)
C=c1c(=Cc2[n-]c(=O)[n-]c2[O-])cc(C)n1Cc1ccc(N2CCS(=O)(=O)CC2)cc1 (nonaromatic ring conformer: 121.46488748268668 kcal/mol)

> <smiles>
C=c1c(=Cc2[nH]c(=O)[nH]c2O)cc(C)n1Cc1ccc(N2CCS(=O)(=O)CC2)cc1

> <score_type>
oracle

> <origin>
adg

> <m_score__min__energy>
-17.32

> <m_primary>
energy

> <minimizedAffinity>
-6.21620

> <minimizedRMSD>
1.07238

> <CNNscore>
0.1630131155

> <CNNaffinity>
5.3885293007

> <CNN_VS>
0.8784009218

> <CNNaffinity_variance>
0.0274785534

$$$$
61:0


 33 36  0  0  0  0  0  0  0  0999 V2000
   59.3975   29.7563   45.3839 C   0  0  0  0  0  0  0  0  0  0  0  0
   58.2699   29.7030   44.5495 C   0  0  0  0  0  0  0  0  0  0  0  0
   57.4003   30.7923   44.4714 C   0  0  0  0  0  0  0  0  0  0  0  0
   57.6415   31.9398   45.2290 C   0  0  0  0  0  0  0  0  0  0  0  0
   58.7563   32.0067   46.0832 C   0  0  0  0  0  0  0  0  0  0  0  0
   59.6349   30.9114   46.1473 C   0  0  0  0  0  0  0  0  0  0  0  0
   59.0198   33.2254   46.8845 C   0  0  0  0  0  0  0  0  0  0  0  0
   58.1976   34.1818   46.8488 O   0  0  0  0  0  0  0  0  0  0  0  0
   60.1884   33.3313   47.7162 N   0  0  0  0  0  0  0  0  0  0  0  0
   60.1041   34.0490   48.9912 C   0  0  0  0  0  0  0  0  0  0  0  0
   61.0515   33.4166   50.0110 C   0  0  0  0  0  0  0  0  0  0  0  0
   62.3903   33.2327   49.4286 N   0  0  0  0  0  0  0  0  0  0  0  0
   63.5596   33.4229   50.2575 C   0  0  0  0  0  0  0  0  0  0  0  0
   63.5012   34.1836   51.2611 O   0  0  0  0  0  0  0  0  0  0  0  0
   64.8682   32.7622   49.9456 C   0  0  0  0  0  0  0  0  0  0  0  0
   62.4783   32.5369   48.1347 C   0  0  0  0  0  0  0  0  0  0  0  0
   61.5185   33.1666   47.1225 C   0  0  0  0  0  0  0  0  0  0  0  0
   60.3155   28.5681   45.4870 C   0  0  0  0  0  0  0  0  0  0  0  0
   58.9508   28.1157   48.2560 C   0  0  0  0  0  0  0  0  0  0  0  0
   58.9446   27.2355   47.2532 C   0  0  0  0  0  0  0  0  0  0  0  0
   59.5689   27.3774   46.0208 C   0  0  0  0  0  0  0  0  0  0  0  0
   59.2679   26.2374   45.2963 C   0  0  0  0  0  0  0  0  0  0  0  0
   58.4933   25.4394   46.1274 C   0  0  0  0  0  0  0  0  0  0  0  0
   57.9529   24.2485   45.8268 C   0  0  0  0  0  0  0  0  0  0  0  0
   58.2963   26.0553   47.3107 N   0  0  0  0  0  0  0  0  0  0  0  0
   57.7775   25.7086   48.0722 H   0  0  0  0  0  0  0  0  0  0  0  0
   56.5173   23.9328   45.9403 C   0  0  0  0  0  0  0  0  0  0  0  0
   56.0292   22.6842   45.8484 N   0  0  0  0  0  0  0  0  0  0  0  0
   54.6924   22.8636   45.9202 C   0  0  0  0  0  0  0  0  0  0  0  0
   53.8769   21.9056   45.8822 O   0  0  0  0  0  0  0  0  0  0  0  0
   54.2986   24.1495   46.0238 N   0  0  0  0  0  0  0  0  0  0  0  0
   55.4629   24.8172   46.0225 C   0  0  0  0  0  0  0  0  0  0  0  0
   55.5535   26.2031   46.0439 O   0  0  0  0  0  0  0  0  0  0  0  0
 19 20  2  0
 20 21  1  0
 21 18  1  0
 18  1  1  0
  1  2  2  0
  2  3  1  0
  3  4  2  0
  4  5  1  0
  5  7  1  0
  7  8  2  0
  7  9  1  0
  9 10  1  0
 10 11  1  0
 11 12  1  0
 12 13  1  0
 13 14  2  0
 13 15  1  0
 12 16  1  0
 16 17  1  0
  5  6  2  0
 21 22  2  0
 22 23  1  0
 23 24  2  0
 24 27  1  0
 27 28  1  0
 28 29  1  0
 29 30  2  0
 29 31  1  0
 31 32  1  0
 32 33  1  0
 23 25  1  0
 25 20  1  0
  6  1  1  0
 32 27  2  0
 17  9  1  0
 25 26  1  0
M  CHG 1  28  -1
M  CHG 1  31  -1
M  CHG 1  33  -1
M  END
> <UniqueID>
60

> <SMILES>
C=c1[nH]/c(=C/c2[n-]c(=O)[n-]c2[O-])cc1Cc1cccc(C(=O)N2CCN(C(C)=O)CC2)c1

> <Energy>
120.35763628988808

> <Genealogy>
C=c1[nH]c(=Cc2[n-]c(=O)[n-]c2[O-])cc1Cc1cccc(C(=O)N2CCN(C(C)=O)CC2)c1 (protonated)
C=c1[nH]/c(=C/c2[n-]c(=O)[n-]c2[O-])cc1Cc1cccc(C(=O)N2CCN(C(C)=O)CC2)c1 (cis-trans isomerization)
C=c1[nH]/c(=C/c2[n-]c(=O)[n-]c2[O-])cc1Cc1cccc(C(=O)N2CCN(C(C)=O)CC2)c1 (3D coordinates assigned)
C=c1[nH]/c(=C/c2[n-]c(=O)[n-]c2[O-])cc1Cc1cccc(C(=O)N2CCN(C(C)=O)CC2)c1 (nonaromatic ring conformer: 120.35763628988808 kcal/mol)

> <smiles>
C=c1[nH]c(=Cc2[nH]c(=O)[nH]c2O)cc1Cc1cccc(C(=O)N2CCN(C(C)=O)CC2)c1

> <score_type>
oracle

> <origin>
adg

> <m_score__min__energy>
-18.460000000000001

> <m_primary>
energy

> <minimizedAffinity>
-9.11563

> <minimizedRMSD>
1.19536

> <CNNscore>
0.0983454362

> <CNNaffinity>
6.2820911407

> <CNN_VS>
0.6178150177

> <CNNaffinity_variance>
0.0955011323

$$$$
76:0


 24 26  0  0  0  0  0  0  0  0999 V2000
   59.9710   30.1181   48.1882 C   0  0  0  0  0  0  0  0  0  0  0  0
   59.3217   30.4883   47.0703 C   0  0  0  0  0  0  0  0  0  0  0  0
   59.2264   29.7662   45.8675 C   0  0  0  0  0  0  0  0  0  0  0  0
   59.6218   28.5205   45.5518 C   0  0  0  0  0  0  0  0  0  0  0  0
   58.6000   30.6013   44.9609 C   0  0  0  0  0  0  0  0  0  0  0  0
   58.3096   31.7708   45.6295 C   0  0  0  0  0  0  0  0  0  0  0  0
   57.5787   32.9299   45.0273 C   0  0  0  0  0  0  0  0  0  0  0  0
   58.7358   31.7041   46.9144 N   0  0  0  0  0  0  0  0  0  0  0  0
   58.8036   27.3088   45.6747 C   0  0  0  0  0  0  0  0  0  0  0  0
   59.2903   26.1012   46.0132 N   0  0  0  0  0  0  0  0  0  0  0  0
   58.1780   25.3409   46.1074 C   0  0  0  0  0  0  0  0  0  0  0  0
   58.2187   24.1198   46.3932 O   0  0  0  0  0  0  0  0  0  0  0  0
   57.0201   25.9927   45.8714 N   0  0  0  0  0  0  0  0  0  0  0  0
   57.4337   27.2421   45.6138 C   0  0  0  0  0  0  0  0  0  0  0  0
   56.5844   28.2921   45.3036 O   0  0  0  0  0  0  0  0  0  0  0  0
   58.7036   32.8112   47.8851 C   0  0  0  0  0  0  0  0  0  0  0  0
   59.8818   33.7185   47.6566 C   0  0  0  0  0  0  0  0  0  0  0  0
   59.7417   34.7273   46.9139 O   0  0  0  0  0  0  0  0  0  0  0  0
   61.1693   33.4277   48.2257 N   0  0  0  0  0  0  0  0  0  0  0  0
   61.2847   32.9928   49.6198 C   0  0  0  0  0  0  0  0  0  0  0  0
   62.6809   33.3215   50.1671 C   0  0  0  0  0  0  0  0  0  0  0  0
   63.6965   32.8949   49.2784 O   0  0  0  0  0  0  0  0  0  0  0  0
   63.6088   33.6189   48.0636 C   0  0  0  0  0  0  0  0  0  0  0  0
   62.3158   33.2749   47.3277 C   0  0  0  0  0  0  0  0  0  0  0  0
  1  2  2  0
  2  3  1  0
  3  4  2  0
  4  9  1  0
  9 10  1  0
 10 11  1  0
 11 12  2  0
 11 13  1  0
 13 14  1  0
 14 15  1  0
  3  5  1  0
  5  6  2  0
  6  7  1  0
  6  8  1  0
  8 16  1  0
 16 17  1  0
 17 18  2  0
 17 19  1  0
 19 20  1  0
 20 21  1  0
 21 22  1  0
 22 23  1  0
 23 24  1  0
  8  2  1  0
 24 19  1  0
 14  9  2  0
M  CHG 1  10  -1
M  CHG 1  13  -1
M  CHG 1  15  -1
M  END
> <UniqueID>
75

> <SMILES>
C=c1/c(=C\c2[n-]c(=O)[n-]c2[O-])cc(C)n1CC(=O)N1CCOCC1

> <Energy>
113.95411174354349

> <Genealogy>
C=c1c(=Cc2[n-]c(=O)[n-]c2[O-])cc(C)n1CC(=O)N1CCOCC1 (protonated)
C=c1/c(=C\c2[n-]c(=O)[n-]c2[O-])cc(C)n1CC(=O)N1CCOCC1 (cis-trans isomerization)
C=c1/c(=C\c2[n-]c(=O)[n-]c2[O-])cc(C)n1CC(=O)N1CCOCC1 (3D coordinates assigned)
C=c1/c(=C\c2[n-]c(=O)[n-]c2[O-])cc(C)n1CC(=O)N1CCOCC1 (nonaromatic ring conformer: 113.95411174354349 kcal/mol)

> <smiles>
C=c1c(=Cc2[nH]c(=O)[nH]c2O)cc(C)n1CC(=O)N1CCOCC1

> <score_type>
oracle

> <origin>
adg

> <m_score__min__energy>
-15.52

> <m_primary>
energy

> <minimizedAffinity>
-7.57943

> <minimizedRMSD>
1.31946

> <CNNscore>
0.5212447643

> <CNNaffinity>
6.3689846992

> <CNN_VS>
3.3197999001

> <CNNaffinity_variance>
0.1198873147

$$$$
9:0


 34 37  0  0  0  0  0  0  0  0999 V2000
   54.9407   30.6206   52.1342 C   0  0  0  0  0  0  0  0  0  0  0  0
   55.0378   29.5432   52.9298 C   0  0  0  0  0  0  0  0  0  0  0  0
   53.9706   28.7745   53.4057 C   0  0  0  0  0  0  0  0  0  0  0  0
   52.6559   28.9592   53.1690 C   0  0  0  0  0  0  0  0  0  0  0  0
   54.5317   27.7349   54.1344 C   0  0  0  0  0  0  0  0  0  0  0  0
   55.8995   27.9155   54.0915 C   0  0  0  0  0  0  0  0  0  0  0  0
   56.8886   27.0132   54.7678 C   0  0  0  0  0  0  0  0  0  0  0  0
   56.2125   29.0117   53.3614 N   0  0  0  0  0  0  0  0  0  0  0  0
   57.5415   29.5139   53.1243 C   0  0  0  0  0  0  0  0  0  0  0  0
   58.2912   28.9355   52.2941 O   0  0  0  0  0  0  0  0  0  0  0  0
   52.0962   30.1961   52.5979 C   0  0  0  0  0  0  0  0  0  0  0  0
   51.5588   31.1741   53.3477 N   0  0  0  0  0  0  0  0  0  0  0  0
   51.1340   32.0728   52.4335 C   0  0  0  0  0  0  0  0  0  0  0  0
   50.5739   33.1524   52.7541 O   0  0  0  0  0  0  0  0  0  0  0  0
   51.3468   31.7172   51.1490 N   0  0  0  0  0  0  0  0  0  0  0  0
   51.9445   30.5209   51.2653 C   0  0  0  0  0  0  0  0  0  0  0  0
   52.2940   29.7343   50.1691 O   0  0  0  0  0  0  0  0  0  0  0  0
   52.1479   30.0511   49.2994 H   0  0  0  0  0  0  0  0  0  0  0  0
   57.9787   30.7119   53.7784 N   0  0  0  0  0  0  0  0  0  0  0  0
   58.9194   31.6655   53.2645 C   0  0  0  0  0  0  0  0  0  0  0  0
   59.6506   32.4428   54.1716 C   0  0  0  0  0  0  0  0  0  0  0  0
   60.5897   33.3701   53.7114 C   0  0  0  0  0  0  0  0  0  0  0  0
   60.8194   33.5143   52.3418 C   0  0  0  0  0  0  0  0  0  0  0  0
   60.1169   32.7205   51.4241 C   0  0  0  0  0  0  0  0  0  0  0  0
   59.1708   31.7961   51.8865 C   0  0  0  0  0  0  0  0  0  0  0  0
   60.4000   32.8797   49.6917 S   0  0  0  0  0  0  0  0  0  0  0  0
   61.1361   34.1675   49.4469 O   0  0  0  0  0  0  0  0  0  0  0  0
   59.0855   32.9289   48.9629 O   0  0  0  0  0  0  0  0  0  0  0  0
   61.3593   31.5213   49.1438 N   0  0  0  0  0  0  0  0  0  0  0  0
   61.7952   31.6833   47.7389 C   0  0  0  0  0  0  0  0  0  0  0  0
   63.2434   32.1962   47.6207 C   0  0  0  0  0  0  0  0  0  0  0  0
   63.5542   33.0420   48.7045 O   0  0  0  0  0  0  0  0  0  0  0  0
   63.6217   32.2930   49.9061 C   0  0  0  0  0  0  0  0  0  0  0  0
   62.4872   31.2492   50.0514 C   0  0  0  0  0  0  0  0  0  0  0  0
  1  2  2  0
  2  3  1  0
  3  4  2  0
  4 11  1  0
 11 12  1  0
 12 13  1  0
 13 14  2  0
 13 15  1  0
 15 16  1  0
 16 17  1  0
  3  5  1  0
  5  6  2  0
  6  7  1  0
  6  8  1  0
  8  9  1  0
  9 10  2  0
  9 19  1  0
 19 20  1  0
 20 21  2  0
 21 22  1  0
 22 23  2  0
 23 24  1  0
 24 26  1  0
 26 27  2  0
 26 28  2  0
 26 29  1  0
 29 30  1  0
 30 31  1  0
 31 32  1  0
 32 33  1  0
 33 34  1  0
 24 25  2  0
  8  2  1  0
 25 20  1  0
 16 11  2  0
 34 29  1  0
 17 18  1  0
M  CHG 1  12  -1
M  CHG 1  15  -1
M  CHG 1  19  -1
M  END
> <UniqueID>
10

> <SMILES>
C=c1c(=Cc2[n-]c(=O)[n-]c2O)cc(C)n1C(=O)[N-]c1cccc(S(=O)(=O)N2CCOCC2)c1

> <Energy>
139.5364932430451

> <Genealogy>
C=c1c(=Cc2[n-]c(=O)[n-]c2O)cc(C)n1C(=O)[N-]c1cccc(S(=O)(=O)N2CCOCC2)c1 (protonated)
C=c1c(=Cc2[n-]c(=O)[n-]c2O)cc(C)n1C(=O)[N-]c1cccc(S(=O)(=O)N2CCOCC2)c1 (3D coordinates assigned)
C=c1c(=Cc2[n-]c(=O)[n-]c2O)cc(C)n1C(=O)[N-]c1cccc(S(=O)(=O)N2CCOCC2)c1 (nonaromatic ring conformer: 139.5364932430451 kcal/mol)

> <smiles>
C=c1c(=Cc2[nH]c(=O)[nH]c2O)cc(C)n1C(=O)Nc1cccc(S(=O)(=O)N2CCOCC2)c1

> <score_type>
oracle

> <origin>
adg

> <m_score__min__energy>
-15.619999999999999

> <m_primary>
energy

> <minimizedAffinity>
-7.39469

> <minimizedRMSD>
1.16529

> <CNNscore>
0.3336706161

> <CNNaffinity>
5.3640398979

> <CNN_VS>
1.7898224592

> <CNNaffinity_variance>
0.2574207187

$$$$
13:0


 28 31  0  0  0  0  0  0  0  0999 V2000
   55.9835   31.0915   52.3555 C   0  0  0  0  0  0  0  0  0  0  0  0
   55.5802   30.0308   53.0740 C   0  0  0  0  0  0  0  0  0  0  0  0
   54.2945   29.7931   53.5862 C   0  0  0  0  0  0  0  0  0  0  0  0
   53.1220   30.4230   53.3694 C   0  0  0  0  0  0  0  0  0  0  0  0
   54.4113   28.7000   54.4257 C   0  0  0  0  0  0  0  0  0  0  0  0
   55.7243   28.2840   54.3680 C   0  0  0  0  0  0  0  0  0  0  0  0
   56.4306   29.0737   53.5237 N   0  0  0  0  0  0  0  0  0  0  0  0
   57.8424   28.9209   53.1534 C   0  0  0  0  0  0  0  0  0  0  0  0
   56.2512   27.1263   55.1176 C   0  0  0  0  0  0  0  0  0  0  0  0
   55.5819   26.6898   56.0940 O   0  0  0  0  0  0  0  0  0  0  0  0
   57.5143   26.5133   54.7874 N   0  0  0  0  0  0  0  0  0  0  0  0
   57.4982   25.1746   54.1790 C   0  0  0  0  0  0  0  0  0  0  0  0
   58.8452   24.7470   53.6471 C   0  0  0  0  0  0  0  0  0  0  0  0
   58.9525   23.5044   53.0006 C   0  0  0  0  0  0  0  0  0  0  0  0
   60.1838   23.0645   52.5070 C   0  0  0  0  0  0  0  0  0  0  0  0
   60.2763   21.8337   51.8679 O   0  0  0  0  0  0  0  0  0  0  0  0
   61.3210   23.8615   52.6555 C   0  0  0  0  0  0  0  0  0  0  0  0
   61.2292   25.0974   53.2993 C   0  0  0  0  0  0  0  0  0  0  0  0
   59.9996   25.5431   53.8137 C   0  0  0  0  0  0  0  0  0  0  0  0
   59.9156   26.9017   54.4474 C   0  0  0  0  0  0  0  0  0  0  0  0
   58.7476   26.9877   55.4272 C   0  0  0  0  0  0  0  0  0  0  0  0
   52.4177   30.5069   52.0814 C   0  0  0  0  0  0  0  0  0  0  0  0
   52.6302   29.6573   51.0622 N   0  0  0  0  0  0  0  0  0  0  0  0
   51.8864   30.1787   50.0611 C   0  0  0  0  0  0  0  0  0  0  0  0
   51.8106   29.6453   48.9246 O   0  0  0  0  0  0  0  0  0  0  0  0
   51.2397   31.3231   50.3723 N   0  0  0  0  0  0  0  0  0  0  0  0
   51.5989   31.5260   51.6484 C   0  0  0  0  0  0  0  0  0  0  0  0
   51.2085   32.6316   52.3935 O   0  0  0  0  0  0  0  0  0  0  0  0
  1  2  2  0
  2  3  1  0
  3  4  2  0
  4 22  1  0
 22 23  1  0
 23 24  1  0
 24 25  2  0
 24 26  1  0
 26 27  1  0
 27 28  1  0
  3  5  1  0
  5  6  2  0
  6  9  1  0
  9 10  2  0
  9 11  1  0
 11 12  1  0
 12 13  1  0
 13 14  2  0
 14 15  1  0
 15 16  1  0
 15 17  2  0
 17 18  1  0
 18 19  2  0
 19 20  1  0
 20 21  1  0
  6  7  1  0
  7  8  1  0
  7  2  1  0
 27 22  2  0
 21 11  1  0
 19 13  1  0
M  CHG 1  16  -1
M  CHG 1  23  -1
M  CHG 1  26  -1
M  CHG 1  28  -1
M  END
> <UniqueID>
14

> <SMILES>
C=c1/c(=C\c2[n-]c(=O)[n-]c2[O-])cc(C(=O)N2CCc3ccc([O-])cc3C2)n1C

> <Energy>
125.15974486086648

> <Genealogy>
C=c1c(=Cc2[n-]c(=O)[n-]c2[O-])cc(C(=O)N2CCc3ccc([O-])cc3C2)n1C (protonated)
C=c1/c(=C\c2[n-]c(=O)[n-]c2[O-])cc(C(=O)N2CCc3ccc([O-])cc3C2)n1C (cis-trans isomerization)
C=c1/c(=C\c2[n-]c(=O)[n-]c2[O-])cc(C(=O)N2CCc3ccc([O-])cc3C2)n1C (3D coordinates assigned)
C=c1/c(=C\c2[n-]c(=O)[n-]c2[O-])cc(C(=O)N2CCc3ccc([O-])cc3C2)n1C (nonaromatic ring conformer: 125.15974486086648 kcal/mol)

> <smiles>
C=c1c(=Cc2[nH]c(=O)[nH]c2O)cc(C(=O)N2CCc3ccc(O)cc3C2)n1C

> <score_type>
oracle

> <origin>
adg

> <m_score__min__energy>
-18.18

> <m_primary>
energy

> <minimizedAffinity>
-4.91351

> <minimizedRMSD>
0.79093

> <CNNscore>
0.1301813424

> <CNNaffinity>
4.1310448647

> <CNN_VS>
0.5377849936

> <CNNaffinity_variance>
0.6675459743

$$$$
21:0


 30 33  0  0  0  0  0  0  0  0999 V2000
   55.1665   29.2143   55.2546 C   0  0  0  0  0  0  0  0  0  0  0  0
   55.6495   29.7650   54.1251 C   0  0  0  0  0  0  0  0  0  0  0  0
   54.8699   30.3412   53.1159 C   0  0  0  0  0  0  0  0  0  0  0  0
   53.5264   30.4474   53.0712 C   0  0  0  0  0  0  0  0  0  0  0  0
   55.7453   30.7089   52.1146 C   0  0  0  0  0  0  0  0  0  0  0  0
   57.0093   30.3595   52.5376 C   0  0  0  0  0  0  0  0  0  0  0  0
   56.9709   29.8068   53.7819 N   0  0  0  0  0  0  0  0  0  0  0  0
   52.7562   30.5846   51.8225 C   0  0  0  0  0  0  0  0  0  0  0  0
   52.8473   29.7174   50.7986 N   0  0  0  0  0  0  0  0  0  0  0  0
   51.9311   30.1750   49.9176 C   0  0  0  0  0  0  0  0  0  0  0  0
   51.7242   29.6219   48.8071 O   0  0  0  0  0  0  0  0  0  0  0  0
   51.2452   31.2646   50.3272 N   0  0  0  0  0  0  0  0  0  0  0  0
   51.7717   31.5063   51.5392 C   0  0  0  0  0  0  0  0  0  0  0  0
   51.3276   32.5179   52.3807 O   0  0  0  0  0  0  0  0  0  0  0  0
   58.0873   29.1755   54.5298 C   0  0  0  0  0  0  0  0  0  0  0  0
   58.2196   29.8101   55.9165 C   0  0  0  0  0  0  0  0  0  0  0  0
   57.9765   27.6467   54.6180 C   0  0  0  0  0  0  0  0  0  0  0  0
   58.1995   30.5174   51.6774 C   0  0  0  0  0  0  0  0  0  0  0  0
   58.1851   29.9957   50.5305 O   0  0  0  0  0  0  0  0  0  0  0  0
   59.4023   31.1464   52.1959 N   0  0  0  0  0  0  0  0  0  0  0  0
   59.2392   32.6021   52.4221 C   0  0  0  0  0  0  0  0  0  0  0  0
   59.3542   33.4341   51.1327 C   0  0  0  0  0  0  0  0  0  0  0  0
   60.6101   33.1255   50.4262 N   0  0  0  0  0  0  0  0  0  0  0  0
   60.6446   31.6891   50.0858 C   0  0  0  0  0  0  0  0  0  0  0  0
   60.5875   30.8422   51.3639 C   0  0  0  0  0  0  0  0  0  0  0  0
   58.5964   30.6146   52.3879 H   0  0  0  0  0  0  0  0  0  0  0  0
   60.7357   33.9566   49.2108 C   0  0  0  0  0  0  0  0  0  0  0  0
   59.7969   33.4303   48.1144 C   0  0  0  0  0  0  0  0  0  0  0  0
   59.3137   34.4815   47.1270 C   0  0  0  0  0  0  0  0  0  0  0  0
   60.3518   33.4561   46.6974 C   0  0  0  0  0  0  0  0  0  0  0  0
  1  2  2  0
  2  3  1  0
  3  4  2  0
  4  8  1  0
  8  9  1  0
  9 10  1  0
 10 11  2  0
 10 12  1  0
 12 13  1  0
 13 14  1  0
  3  5  1  0
  5  6  2  0
  6 18  1  0
 18 19  2  0
 18 20  1  0
 20 21  1  0
 21 22  1  0
 22 23  1  0
 23 27  1  0
 27 28  1  0
 28 29  1  0
 29 30  1  0
 23 24  1  0
 24 25  1  0
  6  7  1  0
  7 15  1  0
 15 16  1  0
 15 17  1  0
  7  2  1  0
 13  8  2  0
 25 20  1  0
 30 28  1  0
 20 26  1  0
M  CHG 1   9  -1
M  CHG 1  12  -1
M  CHG 1  14  -1
M  CHG 1  20   1
M  END
> <UniqueID>
22

> <SMILES>
C=c1c(=Cc2[n-]c(=O)[n-]c2[O-])cc(C(=O)[NH+]2CCN(CC3CC3)CC2)n1C(C)C

> <Energy>
400.51286552388643

> <Genealogy>
C=c1c(=Cc2[n-]c(=O)[n-]c2[O-])cc(C(=O)[NH+]2CCN(CC3CC3)CC2)n1C(C)C (protonated)
C=c1c(=Cc2[n-]c(=O)[n-]c2[O-])cc(C(=O)[NH+]2CCN(CC3CC3)CC2)n1C(C)C (3D coordinates assigned)
C=c1c(=Cc2[n-]c(=O)[n-]c2[O-])cc(C(=O)[NH+]2CCN(CC3CC3)CC2)n1C(C)C (nonaromatic ring conformer: 400.51286552388643 kcal/mol)

> <smiles>
C=c1c(=Cc2[nH]c(=O)[nH]c2O)cc(C(=O)N2CCN(CC3CC3)CC2)n1C(C)C

> <score_type>
oracle

> <origin>
adg

> <m_score__min__energy>
-15.880000000000001

> <m_primary>
energy

> <minimizedAffinity>
-5.92378

> <minimizedRMSD>
1.43033

> <CNNscore>
0.2356445342

> <CNNaffinity>
5.8658370972

> <CNN_VS>
1.3822524548

> <CNNaffinity_variance>
0.0530674495

$$$$
40:0


 31 34  0  0  0  0  0  0  0  0999 V2000
   57.6117   31.8440   52.2022 C   0  0  0  0  0  0  0  0  0  0  0  0
   57.5150   33.0689   52.4812 O   0  0  0  0  0  0  0  0  0  0  0  0
   58.7282   31.3803   51.4325 N   0  0  0  0  0  0  0  0  0  0  0  0
   58.9325   31.9097   50.0805 C   0  0  0  0  0  0  0  0  0  0  0  0
   59.9734   31.0900   49.3070 C   0  0  0  0  0  0  0  0  0  0  0  0
   59.8220   29.6581   49.6047 N   0  0  0  0  0  0  0  0  0  0  0  0
   59.9327   28.6867   48.5537 C   0  0  0  0  0  0  0  0  0  0  0  0
   60.8120   27.7874   48.6346 O   0  0  0  0  0  0  0  0  0  0  0  0
   59.7545   29.1888   50.9952 C   0  0  0  0  0  0  0  0  0  0  0  0
   59.6248   30.3552   51.9784 C   0  0  0  0  0  0  0  0  0  0  0  0
   55.0590   28.3829   54.4543 C   0  0  0  0  0  0  0  0  0  0  0  0
   55.3871   29.3605   53.5939 C   0  0  0  0  0  0  0  0  0  0  0  0
   54.5251   29.9735   52.6807 C   0  0  0  0  0  0  0  0  0  0  0  0
   53.2355   29.6702   52.4314 C   0  0  0  0  0  0  0  0  0  0  0  0
   55.2707   30.9475   52.0385 C   0  0  0  0  0  0  0  0  0  0  0  0
   56.5379   30.9041   52.5799 C   0  0  0  0  0  0  0  0  0  0  0  0
   56.6208   29.9263   53.5134 N   0  0  0  0  0  0  0  0  0  0  0  0
   57.8094   29.5680   54.2962 C   0  0  0  0  0  0  0  0  0  0  0  0
   52.4604   30.2544   51.3226 C   0  0  0  0  0  0  0  0  0  0  0  0
   52.2619   29.6328   50.1471 N   0  0  0  0  0  0  0  0  0  0  0  0
   51.4656   30.4886   49.4704 C   0  0  0  0  0  0  0  0  0  0  0  0
   51.0654   30.2590   48.2992 O   0  0  0  0  0  0  0  0  0  0  0  0
   51.1254   31.6039   50.1498 N   0  0  0  0  0  0  0  0  0  0  0  0
   51.7528   31.4359   51.3242 C   0  0  0  0  0  0  0  0  0  0  0  0
   51.6427   32.3227   52.3896 O   0  0  0  0  0  0  0  0  0  0  0  0
   59.0085   28.7054   47.3961 C   0  0  0  0  0  0  0  0  0  0  0  0
   58.3034   27.5481   47.0234 C   0  0  0  0  0  0  0  0  0  0  0  0
   57.4397   27.5807   45.9738 N   0  0  0  0  0  0  0  0  0  0  0  0
   57.2234   28.7153   45.2592 C   0  0  0  0  0  0  0  0  0  0  0  0
   57.8922   29.8915   45.5974 C   0  0  0  0  0  0  0  0  0  0  0  0
   58.7847   29.8859   46.6709 C   0  0  0  0  0  0  0  0  0  0  0  0
 11 12  2  0
 12 13  1  0
 13 14  2  0
 14 19  1  0
 19 20  1  0
 20 21  1  0
 21 22  2  0
 21 23  1  0
 23 24  1  0
 24 25  1  0
 13 15  1  0
 15 16  2  0
 16  1  1  0
  1  2  2  0
  1  3  1  0
  3  4  1  0
  4  5  1  0
  5  6  1  0
  6  7  1  0
  7  8  2  0
  7 26  1  0
 26 27  2  0
 27 28  1  0
 28 29  2  0
 29 30  1  0
 30 31  2  0
  6  9  1  0
  9 10  1  0
 16 17  1  0
 17 18  1  0
 17 12  1  0
 24 19  2  0
 10  3  1  0
 31 26  1  0
M  CHG 1  20  -1
M  CHG 1  23  -1
M  CHG 1  25  -1
M  END
> <UniqueID>
40

> <SMILES>
C=c1/c(=C/c2[n-]c(=O)[n-]c2[O-])cc(C(=O)N2CCN(C(=O)c3cccnc3)CC2)n1C

> <Energy>
129.17911711906441

> <Genealogy>
C=c1c(=Cc2[n-]c(=O)[n-]c2[O-])cc(C(=O)N2CCN(C(=O)c3cccnc3)CC2)n1C (protonated)
C=c1/c(=C/c2[n-]c(=O)[n-]c2[O-])cc(C(=O)N2CCN(C(=O)c3cccnc3)CC2)n1C (cis-trans isomerization)
C=c1/c(=C/c2[n-]c(=O)[n-]c2[O-])cc(C(=O)N2CCN(C(=O)c3cccnc3)CC2)n1C (3D coordinates assigned)
C=c1/c(=C/c2[n-]c(=O)[n-]c2[O-])cc(C(=O)N2CCN(C(=O)c3cccnc3)CC2)n1C (nonaromatic ring conformer: 129.17911711906441 kcal/mol)

> <smiles>
C=c1c(=Cc2[nH]c(=O)[nH]c2O)cc(C(=O)N2CCN(C(=O)c3cccnc3)CC2)n1C

> <score_type>
oracle

> <origin>
adg

> <m_score__min__energy>
-18.43

> <m_primary>
energy

> <minimizedAffinity>
-6.44105

> <minimizedRMSD>
0.82142

> <CNNscore>
0.0669459924

> <CNNaffinity>
5.0167708397

> <CNN_VS>
0.3358527124

> <CNNaffinity_variance>
0.5147255063

$$$$
46:0


 31 33  0  0  0  0  0  0  0  0999 V2000
   59.9612   32.5664   46.7758 N   0  0  0  0  0  0  0  0  0  0  0  0
   59.6045   31.9861   48.0382 C   0  0  0  0  0  0  0  0  0  0  0  0
   59.4700   30.5961   48.2097 C   0  0  0  0  0  0  0  0  0  0  0  0
   59.1542   30.0687   49.4654 C   0  0  0  0  0  0  0  0  0  0  0  0
   58.9818   30.9201   50.5671 C   0  0  0  0  0  0  0  0  0  0  0  0
   59.1412   32.3035   50.4020 C   0  0  0  0  0  0  0  0  0  0  0  0
   59.4541   32.8298   49.1463 C   0  0  0  0  0  0  0  0  0  0  0  0
   58.5874   30.2538   52.1527 S   0  0  0  0  0  0  0  0  0  0  0  0
   58.8429   31.2977   53.2032 O   0  0  0  0  0  0  0  0  0  0  0  0
   59.4854   29.0813   52.4347 O   0  0  0  0  0  0  0  0  0  0  0  0
   56.9221   29.7348   52.2458 N   0  0  0  0  0  0  0  0  0  0  0  0
   56.6907   28.9566   53.4710 C   0  0  0  0  0  0  0  0  0  0  0  0
   55.2035   28.5589   53.5786 C   0  0  0  0  0  0  0  0  0  0  0  0
   54.4497   29.0350   52.4798 O   0  0  0  0  0  0  0  0  0  0  0  0
   54.5557   30.4441   52.4020 C   0  0  0  0  0  0  0  0  0  0  0  0
   56.0182   30.8957   52.2088 C   0  0  0  0  0  0  0  0  0  0  0  0
   59.6820   34.8363   46.2728 O   0  0  0  0  0  0  0  0  0  0  0  0
   59.2914   33.6496   46.1167 C   0  0  0  0  0  0  0  0  0  0  0  0
   58.1799   33.3581   45.1553 C   0  0  0  0  0  0  0  0  0  0  0  0
   57.6815   31.9974   45.3436 N   0  0  0  0  0  0  0  0  0  0  0  0
   57.4642   31.0985   44.2465 C   0  0  0  0  0  0  0  0  0  0  0  0
   57.7375   31.4545   43.0677 O   0  0  0  0  0  0  0  0  0  0  0  0
   57.4876   31.6859   46.2571 H   0  0  0  0  0  0  0  0  0  0  0  0
   56.9454   29.7156   44.4981 C   0  0  0  0  0  0  0  0  0  0  0  0
   58.0372   28.8436   45.0635 C   0  0  0  0  0  0  0  0  0  0  0  0
   59.3774   29.2543   44.9553 C   0  0  0  0  0  0  0  0  0  0  0  0
   60.4030   28.4717   45.4935 C   0  0  0  0  0  0  0  0  0  0  0  0
   60.1010   27.2770   46.1484 C   0  0  0  0  0  0  0  0  0  0  0  0
   58.7713   26.8631   46.2720 C   0  0  0  0  0  0  0  0  0  0  0  0
   57.7386   27.6406   45.7361 C   0  0  0  0  0  0  0  0  0  0  0  0
   56.4230   27.2101   45.8760 O   0  0  0  0  0  0  0  0  0  0  0  0
 17 18  2  0
 18 19  1  0
 19 20  1  0
 20 21  1  0
 21 22  2  0
 21 24  1  0
 24 25  1  0
 25 26  2  0
 26 27  1  0
 27 28  2  0
 28 29  1  0
 29 30  2  0
 30 31  1  0
 18  1  1  0
  1  2  1  0
  2  3  2  0
  3  4  1  0
  4  5  2  0
  5  8  1  0
  8  9  2  0
  8 10  2  0
  8 11  1  0
 11 12  1  0
 12 13  1  0
 13 14  1  0
 14 15  1  0
 15 16  1  0
  5  6  1  0
  6  7  2  0
 30 25  1  0
  7  2  1  0
 16 11  1  0
 20 23  1  0
M  CHG 1   1  -1
M  CHG 1  31  -1
M  END
> <UniqueID>
45

> <SMILES>
O=C(CNC(=O)Cc1ccccc1[O-])[N-]c1ccc(S(=O)(=O)N2CCOCC2)cc1

> <Energy>
58.23022037701478

> <Genealogy>
O=C(CNC(=O)Cc1ccccc1[O-])[N-]c1ccc(S(=O)(=O)N2CCOCC2)cc1 (protonated)
O=C(CNC(=O)Cc1ccccc1[O-])[N-]c1ccc(S(=O)(=O)N2CCOCC2)cc1 (3D coordinates assigned)
O=C(CNC(=O)Cc1ccccc1[O-])[N-]c1ccc(S(=O)(=O)N2CCOCC2)cc1 (nonaromatic ring conformer: 58.23022037701478 kcal/mol)

> <smiles>
O=C(Cc1ccccc1O)NCC(=O)Nc1ccc(S(=O)(=O)N2CCOCC2)cc1

> <score_type>
oracle

> <origin>
adg

> <m_score__min__energy>
-14.710000000000001

> <m_primary>
energy

> <minimizedAffinity>
-7.23787

> <minimizedRMSD>
1.00910

> <CNNscore>
0.5158936381

> <CNNaffinity>
6.4034895897

> <CNN_VS>
3.3035194874

> <CNNaffinity_variance>
0.0075455587

$$$$
52:0


 32 35  0  0  0  0  0  0  0  0999 V2000
   63.1468   33.5397   49.3827 C   0  0  0  0  0  0  0  0  0  0  0  0
   61.6858   33.4225   49.8688 C   0  0  0  0  0  0  0  0  0  0  0  0
   60.7458   34.0819   48.8509 C   0  0  0  0  0  0  0  0  0  0  0  0
   60.8312   33.4582   47.5045 N   0  0  0  0  0  0  0  0  0  0  0  0
   62.0351   32.6297   47.2597 C   0  0  0  0  0  0  0  0  0  0  0  0
   63.2922   33.2726   47.8608 C   0  0  0  0  0  0  0  0  0  0  0  0
   67.9075   32.6062   54.0315 C   0  0  0  0  0  0  0  0  0  0  0  0
   67.2478   33.1613   52.8387 N   0  0  0  0  0  0  0  0  0  0  0  0
   67.2516   32.1621   51.7475 C   0  0  0  0  0  0  0  0  0  0  0  0
   66.5849   32.7242   50.4874 C   0  0  0  0  0  0  0  0  0  0  0  0
   65.2597   33.2425   50.8296 N   0  0  0  0  0  0  0  0  0  0  0  0
   64.0898   32.6912   50.2066 C   0  0  0  0  0  0  0  0  0  0  0  0
   63.8438   31.4631   50.3436 O   0  0  0  0  0  0  0  0  0  0  0  0
   65.1570   34.1753   51.9503 C   0  0  0  0  0  0  0  0  0  0  0  0
   65.8668   33.5810   53.1727 C   0  0  0  0  0  0  0  0  0  0  0  0
   67.7619   33.9827   52.5201 H   0  0  0  0  0  0  0  0  0  0  0  0
   59.5769   32.8119   47.0529 C   0  0  0  0  0  0  0  0  0  0  0  0
   59.5112   31.3285   47.3627 C   0  0  0  0  0  0  0  0  0  0  0  0
   59.3438   30.8891   48.6869 C   0  0  0  0  0  0  0  0  0  0  0  0
   59.2548   29.5265   48.9732 C   0  0  0  0  0  0  0  0  0  0  0  0
   59.3447   28.5868   47.9456 C   0  0  0  0  0  0  0  0  0  0  0  0
   59.5258   29.0085   46.6175 C   0  0  0  0  0  0  0  0  0  0  0  0
   59.6349   30.3754   46.3381 C   0  0  0  0  0  0  0  0  0  0  0  0
   59.6613   28.0663   45.5446 N   0  0  0  0  0  0  0  0  0  0  0  0
   58.5803   27.4193   44.8631 C   0  0  0  0  0  0  0  0  0  0  0  0
   57.8620   28.0953   44.0808 O   0  0  0  0  0  0  0  0  0  0  0  0
   58.2516   26.0006   45.0941 C   0  0  0  0  0  0  0  0  0  0  0  0
   58.5911   25.2422   46.1959 C   0  0  0  0  0  0  0  0  0  0  0  0
   58.0844   24.0057   46.0513 N   0  0  0  0  0  0  0  0  0  0  0  0
   57.4494   24.0623   44.8635 C   0  0  0  0  0  0  0  0  0  0  0  0
   56.8433   23.0776   44.3704 O   0  0  0  0  0  0  0  0  0  0  0  0
   57.5171   25.2583   44.2457 N   0  0  0  0  0  0  0  0  0  0  0  0
  7  8  1  0
  8  9  1  0
  9 10  1  0
 10 11  1  0
 11 12  1  0
 12 13  2  0
 12  1  1  0
  1  2  1  0
  2  3  1  0
  3  4  1  0
  4 17  1  0
 17 18  1  0
 18 19  2  0
 19 20  1  0
 20 21  2  0
 21 22  1  0
 22 24  1  0
 24 25  1  0
 25 26  2  0
 25 27  1  0
 27 28  2  0
 28 29  1  0
 29 30  1  0
 30 31  2  0
 30 32  1  0
 22 23  2  0
  4  5  1  0
  5  6  1  0
 11 14  1  0
 14 15  1  0
 15  8  1  0
  6  1  1  0
 23 18  1  0
 32 27  1  0
  8 16  1  0
M  CHG 1   8   1
M  CHG 1  24  -1
M  CHG 1  29  -1
M  CHG 1  32  -1
M  END
> <UniqueID>
50

> <SMILES>
C[NH+]1CCN(C(=O)C2CCN(Cc3cccc([N-]C(=O)c4c[n-]c(=O)[n-]4)c3)CC2)CC1

> <Energy>
105.96060402407667

> <Genealogy>
C[NH+]1CCN(C(=O)C2CCN(Cc3cccc([N-]C(=O)c4c[n-]c(=O)[n-]4)c3)CC2)CC1 (protonated)
C[NH+]1CCN(C(=O)C2CCN(Cc3cccc([N-]C(=O)c4c[n-]c(=O)[n-]4)c3)CC2)CC1 (3D coordinates assigned)
C[NH+]1CCN(C(=O)C2CCN(Cc3cccc([N-]C(=O)c4c[n-]c(=O)[n-]4)c3)CC2)CC1 (nonaromatic ring conformer: 105.96060402407667 kcal/mol)

> <smiles>
CN1CCN(C(=O)C2CCN(Cc3cccc(NC(=O)c4c[nH]c(=O)[nH]4)c3)CC2)CC1

> <score_type>
oracle

> <origin>
adg

> <m_score__min__energy>
-14.039999999999999

> <m_primary>
energy

> <minimizedAffinity>
-7.59969

> <minimizedRMSD>
1.86272

> <CNNscore>
0.1738700718

> <CNNaffinity>
6.3203949928

> <CNN_VS>
1.0989274979

> <CNNaffinity_variance>
0.1263817251

$$$$
66:0


 38 42  0  0  0  0  0  0  0  0999 V2000
   60.4717   27.6326   48.8232 C   0  0  0  0  0  0  0  0  0  0  0  0
   61.0632   26.7827   49.5431 O   0  0  0  0  0  0  0  0  0  0  0  0
   60.7036   29.0353   49.0427 N   0  0  0  0  0  0  0  0  0  0  0  0
   61.1043   29.8841   47.9130 C   0  0  0  0  0  0  0  0  0  0  0  0
   60.6553   31.3138   48.1026 C   0  0  0  0  0  0  0  0  0  0  0  0
   60.8279   32.1681   47.0718 C   0  0  0  0  0  0  0  0  0  0  0  0
   60.0543   31.7081   49.4064 C   0  0  0  0  0  0  0  0  0  0  0  0
   59.3033   32.7200   49.4805 O   0  0  0  0  0  0  0  0  0  0  0  0
   60.2828   30.8625   50.6036 C   0  0  0  0  0  0  0  0  0  0  0  0
   59.8965   31.3001   51.8227 C   0  0  0  0  0  0  0  0  0  0  0  0
   60.9481   29.5212   50.4035 C   0  0  0  0  0  0  0  0  0  0  0  0
   58.2539   29.1395   47.2166 C   0  0  0  0  0  0  0  0  0  0  0  0
   58.6131   27.8663   47.0353 C   0  0  0  0  0  0  0  0  0  0  0  0
   58.0129   27.0568   46.1398 N   0  0  0  0  0  0  0  0  0  0  0  0
   58.5715   25.8352   46.2748 C   0  0  0  0  0  0  0  0  0  0  0  0
   58.1792   24.7742   45.5550 C   0  0  0  0  0  0  0  0  0  0  0  0
   59.5332   25.8576   47.2756 C   0  0  0  0  0  0  0  0  0  0  0  0
   59.5759   27.1577   47.7478 C   0  0  0  0  0  0  0  0  0  0  0  0
   57.3019   27.3088   45.5073 H   0  0  0  0  0  0  0  0  0  0  0  0
   56.8162   24.2135   45.5764 C   0  0  0  0  0  0  0  0  0  0  0  0
   56.5570   22.9016   45.4421 N   0  0  0  0  0  0  0  0  0  0  0  0
   55.2174   22.8267   45.6037 C   0  0  0  0  0  0  0  0  0  0  0  0
   54.5853   21.7405   45.5310 O   0  0  0  0  0  0  0  0  0  0  0  0
   54.6111   24.0057   45.8570 N   0  0  0  0  0  0  0  0  0  0  0  0
   55.6370   24.8727   45.8499 C   0  0  0  0  0  0  0  0  0  0  0  0
   55.5003   26.2252   46.1363 O   0  0  0  0  0  0  0  0  0  0  0  0
   59.7484   32.8986   46.3737 C   0  0  0  0  0  0  0  0  0  0  0  0
   59.8900   34.2751   46.1396 C   0  0  0  0  0  0  0  0  0  0  0  0
   58.8595   34.9937   45.5248 C   0  0  0  0  0  0  0  0  0  0  0  0
   57.6765   34.3471   45.1591 C   0  0  0  0  0  0  0  0  0  0  0  0
   57.5157   32.9829   45.4163 C   0  0  0  0  0  0  0  0  0  0  0  0
   58.5436   32.2606   46.0318 C   0  0  0  0  0  0  0  0  0  0  0  0
   58.5678   31.0560   52.4227 C   0  0  0  0  0  0  0  0  0  0  0  0
   58.3978   30.9688   53.8171 C   0  0  0  0  0  0  0  0  0  0  0  0
   57.1239   30.7694   54.3590 C   0  0  0  0  0  0  0  0  0  0  0  0
   56.0115   30.6756   53.5192 C   0  0  0  0  0  0  0  0  0  0  0  0
   56.1689   30.7926   52.1359 C   0  0  0  0  0  0  0  0  0  0  0  0
   57.4412   30.9915   51.5897 C   0  0  0  0  0  0  0  0  0  0  0  0
 12 13  2  0
 13 14  1  0
 14 15  1  0
 15 16  2  0
 16 20  1  0
 20 21  1  0
 21 22  1  0
 22 23  2  0
 22 24  1  0
 24 25  1  0
 25 26  1  0
 15 17  1  0
 17 18  2  0
 18  1  1  0
  1  2  2  0
  1  3  1  0
  3  4  1  0
  4  5  1  0
  5  6  2  0
  6 27  1  0
 27 28  2  0
 28 29  1  0
 29 30  2  0
 30 31  1  0
 31 32  2  0
  5  7  1  0
  7  8  2  0
  7  9  1  0
  9 10  2  0
 10 33  1  0
 33 34  2  0
 34 35  1  0
 35 36  2  0
 36 37  1  0
 37 38  2  0
  9 11  1  0
 18 13  1  0
 11  3  1  0
 25 20  2  0
 32 27  1  0
 38 33  1  0
 14 19  1  0
M  CHG 1  21  -1
M  CHG 1  24  -1
M  CHG 1  26  -1
M  END
> <UniqueID>
64

> <SMILES>
C=c1[nH]c(=Cc2[n-]c(=O)[n-]c2[O-])cc1C(=O)N1CC(=Cc2ccccc2)C(=O)C(=Cc2ccccc2)C1

> <Energy>
148.51079644930337

> <Genealogy>
C=c1[nH]c(=Cc2[n-]c(=O)[n-]c2[O-])cc1C(=O)N1CC(=Cc2ccccc2)C(=O)C(=Cc2ccccc2)C1 (protonated)
C=c1[nH]c(=Cc2[n-]c(=O)[n-]c2[O-])cc1C(=O)N1CC(=Cc2ccccc2)C(=O)C(=Cc2ccccc2)C1 (3D coordinates assigned)
C=c1[nH]c(=Cc2[n-]c(=O)[n-]c2[O-])cc1C(=O)N1CC(=Cc2ccccc2)C(=O)C(=Cc2ccccc2)C1 (nonaromatic ring conformer: 148.51079644930337 kcal/mol)

> <smiles>
C=c1[nH]c(=Cc2[nH]c(=O)[nH]c2O)cc1C(=O)N1CC(=Cc2ccccc2)C(=O)C(=Cc2ccccc2)C1

> <score_type>
oracle

> <origin>
adg

> <m_score__min__energy>
-20.879999999999999

> <m_primary>
energy

> <minimizedAffinity>
-8.89040

> <minimizedRMSD>
0.82012

> <CNNscore>
0.1118117720

> <CNNaffinity>
6.4024410248

> <CNN_VS>
0.7158682942

> <CNNaffinity_variance>
0.4720062912

$$$$
74:0


 27 29  0  0  0  0  0  0  0  0999 V2000
   58.5034   31.4979   45.1278 C   0  0  0  0  0  0  0  0  0  0  0  0
   58.9652   31.6515   46.4466 C   0  0  0  0  0  0  0  0  0  0  0  0
   59.1568   32.9325   46.9871 C   0  0  0  0  0  0  0  0  0  0  0  0
   58.8582   34.0615   46.2161 C   0  0  0  0  0  0  0  0  0  0  0  0
   58.3747   33.9140   44.9145 C   0  0  0  0  0  0  0  0  0  0  0  0
   58.1932   32.6386   44.3715 C   0  0  0  0  0  0  0  0  0  0  0  0
   57.7047   32.5098   43.0756 O   0  0  0  0  0  0  0  0  0  0  0  0
   59.7179   33.1280   48.6460 S   0  0  0  0  0  0  0  0  0  0  0  0
   59.1250   34.3770   49.2408 O   0  0  0  0  0  0  0  0  0  0  0  0
   59.2551   31.9482   49.4547 O   0  0  0  0  0  0  0  0  0  0  0  0
   61.4603   33.2145   48.6726 N   0  0  0  0  0  0  0  0  0  0  0  0
   62.0146   32.0080   49.3072 C   0  0  0  0  0  0  0  0  0  0  0  0
   63.5571   32.0351   49.2575 C   0  0  0  0  0  0  0  0  0  0  0  0
   64.0450   33.1836   48.5893 O   0  0  0  0  0  0  0  0  0  0  0  0
   63.5136   33.2318   47.2787 C   0  0  0  0  0  0  0  0  0  0  0  0
   61.9744   33.3477   47.2991 C   0  0  0  0  0  0  0  0  0  0  0  0
   58.2763   30.2018   44.5510 N   0  0  0  0  0  0  0  0  0  0  0  0
   56.2079   29.2528   45.0861 O   0  0  0  0  0  0  0  0  0  0  0  0
   57.4651   29.1536   45.1007 C   0  0  0  0  0  0  0  0  0  0  0  0
   58.1234   27.9887   45.7297 C   0  0  0  0  0  0  0  0  0  0  0  0
   59.4714   28.0391   45.9345 N   0  0  0  0  0  0  0  0  0  0  0  0
   60.1577   27.0133   46.5029 C   0  0  0  0  0  0  0  0  0  0  0  0
   59.4865   25.8579   46.9000 C   0  0  0  0  0  0  0  0  0  0  0  0
   58.1076   25.7683   46.7065 C   0  0  0  0  0  0  0  0  0  0  0  0
   57.4915   24.7272   47.0625 O   0  0  0  0  0  0  0  0  0  0  0  0
   57.4122   26.8331   46.1175 C   0  0  0  0  0  0  0  0  0  0  0  0
   56.0372   26.7320   45.9256 O   0  0  0  0  0  0  0  0  0  0  0  0
 18 19  2  0
 19 17  1  0
 17  1  1  0
  1  2  2  0
  2  3  1  0
  3  8  1  0
  8  9  2  0
  8 10  2  0
  8 11  1  0
 11 12  1  0
 12 13  1  0
 13 14  1  0
 14 15  1  0
 15 16  1  0
  3  4  2  0
  4  5  1  0
  5  6  2  0
  6  7  1  0
 19 20  1  0
 20 21  1  0
 21 22  1  0
 22 23  2  0
 23 24  1  0
 24 25  2  0
 24 26  1  0
 26 27  1  0
  6  1  1  0
 26 20  2  0
 16 11  1  0
M  CHG 1   7  -1
M  CHG 1  17  -1
M  CHG 1  21  -1
M  CHG 1  27  -1
M  END
> <UniqueID>
72

> <SMILES>
O=C([N-]c1cc(S(=O)(=O)N2CCOCC2)ccc1[O-])c1[n-]ccc(=O)c1[O-]

> <Energy>
55.42167544117069

> <Genealogy>
O=C([N-]c1cc(S(=O)(=O)N2CCOCC2)ccc1[O-])c1[n-]ccc(=O)c1[O-] (protonated)
O=C([N-]c1cc(S(=O)(=O)N2CCOCC2)ccc1[O-])c1[n-]ccc(=O)c1[O-] (3D coordinates assigned)
O=C([N-]c1cc(S(=O)(=O)N2CCOCC2)ccc1[O-])c1[n-]ccc(=O)c1[O-] (nonaromatic ring conformer: 55.42167544117069 kcal/mol)

> <smiles>
O=C(Nc1cc(S(=O)(=O)N2CCOCC2)ccc1O)c1[nH]ccc(=O)c1O

> <score_type>
oracle

> <origin>
adg

> <m_score__min__energy>
-16.260000000000002

> <m_primary>
energy

> <minimizedAffinity>
-7.33519

> <minimizedRMSD>
1.37960

> <CNNscore>
0.6360889077

> <CNNaffinity>
6.5287227631

> <CNN_VS>
4.1528482437

> <CNNaffinity_variance>
0.0528308488

$$$$
79:0


 33 37  0  0  0  0  0  0  0  0999 V2000
   58.5513   30.8349   45.2403 C   0  0  0  0  0  0  0  0  0  0  0  0
   58.0236   31.4187   44.0801 C   0  0  0  0  0  0  0  0  0  0  0  0
   57.9612   32.8083   43.9604 C   0  0  0  0  0  0  0  0  0  0  0  0
   58.4475   33.6247   44.9857 C   0  0  0  0  0  0  0  0  0  0  0  0
   58.9977   33.0539   46.1476 C   0  0  0  0  0  0  0  0  0  0  0  0
   59.0121   31.6535   46.2807 C   0  0  0  0  0  0  0  0  0  0  0  0
   56.6033   28.7833   44.3564 C   0  0  0  0  0  0  0  0  0  0  0  0
   57.7593   28.4718   44.9624 C   0  0  0  0  0  0  0  0  0  0  0  0
   58.3058   27.1901   45.1484 C   0  0  0  0  0  0  0  0  0  0  0  0
   57.7813   25.9607   44.9687 C   0  0  0  0  0  0  0  0  0  0  0  0
   59.6057   27.3834   45.5868 C   0  0  0  0  0  0  0  0  0  0  0  0
   59.7873   28.7439   45.7155 C   0  0  0  0  0  0  0  0  0  0  0  0
   61.0671   29.3953   46.1454 C   0  0  0  0  0  0  0  0  0  0  0  0
   58.6720   29.4047   45.3377 N   0  0  0  0  0  0  0  0  0  0  0  0
   57.1850   25.1107   46.0113 C   0  0  0  0  0  0  0  0  0  0  0  0
   57.7901   24.0489   46.5736 N   0  0  0  0  0  0  0  0  0  0  0  0
   56.8168   23.4998   47.3332 C   0  0  0  0  0  0  0  0  0  0  0  0
   57.0054   22.4775   48.0412 O   0  0  0  0  0  0  0  0  0  0  0  0
   55.6226   24.1273   47.2630 N   0  0  0  0  0  0  0  0  0  0  0  0
   55.8704   25.1341   46.4096 C   0  0  0  0  0  0  0  0  0  0  0  0
   54.9116   26.0494   45.9960 O   0  0  0  0  0  0  0  0  0  0  0  0
   59.5386   33.9269   47.2175 C   0  0  0  0  0  0  0  0  0  0  0  0
   58.9761   35.0316   47.4533 O   0  0  0  0  0  0  0  0  0  0  0  0
   60.6696   33.5295   48.0154 N   0  0  0  0  0  0  0  0  0  0  0  0
   61.8474   32.8827   47.4233 C   0  0  0  0  0  0  0  0  0  0  0  0
   62.2276   31.6223   48.2290 C   0  0  0  0  0  0  0  0  0  0  0  0
   61.4745   31.5431   49.5023 N   0  0  0  0  0  0  0  0  0  0  0  0
   61.5320   32.8302   50.2195 C   0  0  0  0  0  0  0  0  0  0  0  0
   60.7115   33.8728   49.4423 C   0  0  0  0  0  0  0  0  0  0  0  0
   61.9169   30.4050   50.3328 C   0  0  0  0  0  0  0  0  0  0  0  0
   60.7085   29.5014   50.6095 C   0  0  0  0  0  0  0  0  0  0  0  0
   60.5880   28.3299   49.6457 C   0  0  0  0  0  0  0  0  0  0  0  0
   59.6032   29.4867   49.5641 C   0  0  0  0  0  0  0  0  0  0  0  0
  7  8  2  0
  8  9  1  0
  9 10  2  0
 10 15  1  0
 15 16  1  0
 16 17  1  0
 17 18  2  0
 17 19  1  0
 19 20  1  0
 20 21  1  0
  9 11  1  0
 11 12  2  0
 12 13  1  0
 12 14  1  0
 14  1  1  0
  1  2  2  0
  2  3  1  0
  3  4  2  0
  4  5  1  0
  5 22  1  0
 22 23  2  0
 22 24  1  0
 24 25  1  0
 25 26  1  0
 26 27  1  0
 27 30  1  0
 30 31  1  0
 31 32  1  0
 32 33  1  0
 27 28  1  0
 28 29  1  0
  5  6  2  0
 14  8  1  0
  6  1  1  0
 20 15  2  0
 29 24  1  0
 33 31  1  0
M  CHG 1  16  -1
M  CHG 1  19  -1
M  CHG 1  21  -1
M  END
> <UniqueID>
77

> <SMILES>
C=c1c(=Cc2[n-]c(=O)[n-]c2[O-])cc(C)n1-c1cccc(C(=O)N2CCN(CC3CC3)CC2)c1

> <Energy>
410.24855210611054

> <Genealogy>
C=c1c(=Cc2[n-]c(=O)[n-]c2[O-])cc(C)n1-c1cccc(C(=O)N2CCN(CC3CC3)CC2)c1 (protonated)
C=c1c(=Cc2[n-]c(=O)[n-]c2[O-])cc(C)n1-c1cccc(C(=O)N2CCN(CC3CC3)CC2)c1 (3D coordinates assigned)
C=c1c(=Cc2[n-]c(=O)[n-]c2[O-])cc(C)n1-c1cccc(C(=O)N2CCN(CC3CC3)CC2)c1 (nonaromatic ring conformer: 410.24855210611054 kcal/mol)

> <smiles>
C=c1c(=Cc2[nH]c(=O)[nH]c2O)cc(C)n1-c1cccc(C(=O)N2CCN(CC3CC3)CC2)c1

> <score_type>
oracle

> <origin>
adg

> <m_score__min__energy>
-17.260000000000002

> <m_primary>
energy

> <minimizedAffinity>
-8.95988

> <minimizedRMSD>
0.53085

> <CNNscore>
0.2269067317

> <CNNaffinity>
7.0282311440

> <CNN_VS>
1.5947529078

> <CNNaffinity_variance>
0.1112688407

$$$$
84:0


 27 29  0  0  0  0  0  0  0  0999 V2000
   60.7793   26.5369   49.7738 C   0  0  0  0  0  0  0  0  0  0  0  0
   60.4929   27.7495   49.2705 C   0  0  0  0  0  0  0  0  0  0  0  0
   59.9879   28.0208   47.9920 C   0  0  0  0  0  0  0  0  0  0  0  0
   59.7164   27.1217   47.0193 C   0  0  0  0  0  0  0  0  0  0  0  0
   59.8098   29.3972   47.9369 C   0  0  0  0  0  0  0  0  0  0  0  0
   60.2243   29.9076   49.1510 C   0  0  0  0  0  0  0  0  0  0  0  0
   60.6470   28.9102   49.9608 N   0  0  0  0  0  0  0  0  0  0  0  0
   61.1623   29.0560   51.3271 C   0  0  0  0  0  0  0  0  0  0  0  0
   60.1296   31.3331   49.5266 C   0  0  0  0  0  0  0  0  0  0  0  0
   59.9514   31.6270   50.7394 O   0  0  0  0  0  0  0  0  0  0  0  0
   60.2086   32.3813   48.5368 N   0  0  0  0  0  0  0  0  0  0  0  0
   59.5115   33.6484   48.8343 C   0  0  0  0  0  0  0  0  0  0  0  0
   59.6906   34.7650   47.7857 C   0  0  0  0  0  0  0  0  0  0  0  0
   60.0740   34.2790   46.4548 N   0  0  0  0  0  0  0  0  0  0  0  0
   61.2370   33.3902   46.4954 C   0  0  0  0  0  0  0  0  0  0  0  0
   60.9551   32.1268   47.2946 C   0  0  0  0  0  0  0  0  0  0  0  0
   58.9953   33.9224   45.5002 C   0  0  0  0  0  0  0  0  0  0  0  0
   58.6450   32.4266   45.4147 C   0  0  0  0  0  0  0  0  0  0  0  0
   57.2600   32.2659   45.2043 O   0  0  0  0  0  0  0  0  0  0  0  0
   57.0299   31.0927   44.4609 C   0  0  0  0  0  0  0  0  0  0  0  0
   58.5048   26.2755   46.9395 C   0  0  0  0  0  0  0  0  0  0  0  0
   58.3317   25.0791   47.5286 N   0  0  0  0  0  0  0  0  0  0  0  0
   57.0699   24.7362   47.1923 C   0  0  0  0  0  0  0  0  0  0  0  0
   56.5393   23.6557   47.5604 O   0  0  0  0  0  0  0  0  0  0  0  0
   56.4224   25.6425   46.4315 N   0  0  0  0  0  0  0  0  0  0  0  0
   57.3436   26.6063   46.2790 C   0  0  0  0  0  0  0  0  0  0  0  0
   57.1294   27.7676   45.5476 O   0  0  0  0  0  0  0  0  0  0  0  0
  1  2  2  0
  2  3  1  0
  3  4  2  0
  4 21  1  0
 21 22  1  0
 22 23  1  0
 23 24  2  0
 23 25  1  0
 25 26  1  0
 26 27  1  0
  3  5  1  0
  5  6  2  0
  6  9  1  0
  9 10  2  0
  9 11  1  0
 11 12  1  0
 12 13  1  0
 13 14  1  0
 14 17  1  0
 17 18  1  0
 18 19  1  0
 19 20  1  0
 14 15  1  0
 15 16  1  0
  6  7  1  0
  7  8  1  0
  7  2  1  0
 26 21  2  0
 16 11  1  0
M  CHG 1  22  -1
M  CHG 1  25  -1
M  CHG 1  27  -1
M  END
> <UniqueID>
82

> <SMILES>
C=c1c(=Cc2[n-]c(=O)[n-]c2[O-])cc(C(=O)N2CCN(CCOC)CC2)n1C

> <Energy>
130.10929822330448

> <Genealogy>
C=c1c(=Cc2[n-]c(=O)[n-]c2[O-])cc(C(=O)N2CCN(CCOC)CC2)n1C (protonated)
C=c1c(=Cc2[n-]c(=O)[n-]c2[O-])cc(C(=O)N2CCN(CCOC)CC2)n1C (3D coordinates assigned)
C=c1c(=Cc2[n-]c(=O)[n-]c2[O-])cc(C(=O)N2CCN(CCOC)CC2)n1C (nonaromatic ring conformer: 130.10929822330448 kcal/mol)

> <smiles>
C=c1c(=Cc2[nH]c(=O)[nH]c2O)cc(C(=O)N2CCN(CCOC)CC2)n1C

> <score_type>
oracle

> <origin>
adg

> <m_score__min__energy>
-16.77

> <m_primary>
energy

> <minimizedAffinity>
-5.74622

> <minimizedRMSD>
1.45169

> <CNNscore>
0.1383399814

> <CNNaffinity>
5.5458469391

> <CNN_VS>
0.7672123909

> <CNNaffinity_variance>
0.2473734170

$$$$
6:0


 31 34  0  0  0  0  0  0  0  0999 V2000
   58.0949   30.7882   52.3365 C   0  0  0  0  0  0  0  0  0  0  0  0
   58.1408   32.1290   52.7488 C   0  0  0  0  0  0  0  0  0  0  0  0
   58.8258   33.0753   51.9847 C   0  0  0  0  0  0  0  0  0  0  0  0
   59.4859   32.6893   50.8162 C   0  0  0  0  0  0  0  0  0  0  0  0
   59.4730   31.3523   50.4026 C   0  0  0  0  0  0  0  0  0  0  0  0
   58.7780   30.4016   51.1714 C   0  0  0  0  0  0  0  0  0  0  0  0
   55.0588   30.6325   53.0193 C   0  0  0  0  0  0  0  0  0  0  0  0
   55.9706   29.6802   53.3384 C   0  0  0  0  0  0  0  0  0  0  0  0
   57.3855   29.7802   53.1572 C   0  0  0  0  0  0  0  0  0  0  0  0
   58.0897   28.6833   53.6483 C   0  0  0  0  0  0  0  0  0  0  0  0
   57.0024   27.5614   54.2395 S   0  0  0  0  0  0  0  0  0  0  0  0
   55.6113   28.4410   53.9136 C   0  0  0  0  0  0  0  0  0  0  0  0
   54.3903   27.9871   54.2191 C   0  0  0  0  0  0  0  0  0  0  0  0
   52.3164   30.7690   54.3444 O   0  0  0  0  0  0  0  0  0  0  0  0
   52.5274   30.4947   52.9977 C   0  0  0  0  0  0  0  0  0  0  0  0
   51.5415   30.2933   52.1065 N   0  0  0  0  0  0  0  0  0  0  0  0
   52.2189   30.0917   50.9574 C   0  0  0  0  0  0  0  0  0  0  0  0
   51.6421   29.8634   49.8626 O   0  0  0  0  0  0  0  0  0  0  0  0
   53.5623   30.1589   51.0724 N   0  0  0  0  0  0  0  0  0  0  0  0
   53.7510   30.3925   52.3834 C   0  0  0  0  0  0  0  0  0  0  0  0
   51.4434   30.8209   54.6808 H   0  0  0  0  0  0  0  0  0  0  0  0
   60.1792   30.9968   49.2063 N   0  0  0  0  0  0  0  0  0  0  0  0
   61.0195   32.1091   48.1731 S   0  0  0  0  0  0  0  0  0  0  0  0
   61.5176   33.2624   48.9990 O   0  0  0  0  0  0  0  0  0  0  0  0
   62.1930   31.4111   47.5472 O   0  0  0  0  0  0  0  0  0  0  0  0
   59.9466   32.6757   46.8972 C   0  0  0  0  0  0  0  0  0  0  0  0
   58.9196   31.8461   46.4270 C   0  0  0  0  0  0  0  0  0  0  0  0
   58.0470   32.3027   45.4341 C   0  0  0  0  0  0  0  0  0  0  0  0
   58.1972   33.5883   44.9067 C   0  0  0  0  0  0  0  0  0  0  0  0
   59.2222   34.4184   45.3695 C   0  0  0  0  0  0  0  0  0  0  0  0
   60.0975   33.9637   46.3611 C   0  0  0  0  0  0  0  0  0  0  0  0
 14 15  1  0
 15 16  1  0
 16 17  1  0
 17 18  2  0
 17 19  1  0
 19 20  1  0
 20  7  1  0
  7  8  2  0
  8  9  1  0
  9  1  1  0
  1  2  2  0
  2  3  1  0
  3  4  2  0
  4  5  1  0
  5 22  1  0
 22 23  1  0
 23 24  2  0
 23 25  2  0
 23 26  1  0
 26 27  2  0
 27 28  1  0
 28 29  2  0
 29 30  1  0
 30 31  2  0
  5  6  2  0
  9 10  2  0
 10 11  1  0
 11 12  1  0
 12 13  2  0
 20 15  2  0
 12  8  1  0
  6  1  1  0
 31 26  1  0
 14 21  1  0
M  CHG 1  16  -1
M  CHG 1  19  -1
M  CHG 1  22  -1
M  END
> <UniqueID>
7

> <SMILES>
C=c1scc(-c2cccc([N-]S(=O)(=O)c3ccccc3)c2)/c1=C\c1[n-]c(=O)[n-]c1O

> <Energy>
122.18466570865218

> <Genealogy>
C=c1scc(-c2cccc([N-]S(=O)(=O)c3ccccc3)c2)c1=Cc1[n-]c(=O)[n-]c1O (protonated)
C=c1scc(-c2cccc([N-]S(=O)(=O)c3ccccc3)c2)/c1=C\c1[n-]c(=O)[n-]c1O (cis-trans isomerization)
C=c1scc(-c2cccc([N-]S(=O)(=O)c3ccccc3)c2)/c1=C\c1[n-]c(=O)[n-]c1O (3D coordinates assigned)
C=c1scc(-c2cccc([N-]S(=O)(=O)c3ccccc3)c2)/c1=C\c1[n-]c(=O)[n-]c1O (optimized conformer: 122.18466570865218 kcal/mol)

> <smiles>
C=c1scc(-c2cccc(NS(=O)(=O)c3ccccc3)c2)c1=Cc1[nH]c(=O)[nH]c1O

> <score_type>
oracle

> <origin>
adg

> <m_score__min__energy>
-15.720000000000001

> <m_primary>
energy

> <minimizedAffinity>
-8.13132

> <minimizedRMSD>
1.79080

> <CNNscore>
0.2388796955

> <CNNaffinity>
5.9129753113

> <CNN_VS>
1.4124897718

> <CNNaffinity_variance>
0.1197767258

$$$$
12:0


 36 39  0  0  0  0  0  0  0  0999 V2000
   59.1829   29.2815   44.9087 C   0  0  0  0  0  0  0  0  0  0  0  0
   59.4251   30.3619   45.7676 C   0  0  0  0  0  0  0  0  0  0  0  0
   58.4275   31.3287   45.9676 C   0  0  0  0  0  0  0  0  0  0  0  0
   57.2181   31.1703   45.3647 N   0  0  0  0  0  0  0  0  0  0  0  0
   56.9482   30.1288   44.5361 C   0  0  0  0  0  0  0  0  0  0  0  0
   55.5859   29.9900   43.9318 C   0  0  0  0  0  0  0  0  0  0  0  0
   57.9296   29.1622   44.2941 C   0  0  0  0  0  0  0  0  0  0  0  0
   58.6022   32.4742   46.8824 C   0  0  0  0  0  0  0  0  0  0  0  0
   57.9060   33.5021   46.6676 O   0  0  0  0  0  0  0  0  0  0  0  0
   59.6390   32.5182   47.8883 N   0  0  0  0  0  0  0  0  0  0  0  0
   60.0404   31.3166   48.6324 C   0  0  0  0  0  0  0  0  0  0  0  0
   61.0384   31.6360   49.7555 C   0  0  0  0  0  0  0  0  0  0  0  0
   62.1006   32.5341   49.2798 N   0  0  0  0  0  0  0  0  0  0  0  0
   63.4479   32.4569   49.7989 C   0  0  0  0  0  0  0  0  0  0  0  0
   64.3811   33.0598   49.2008 O   0  0  0  0  0  0  0  0  0  0  0  0
   61.7655   33.6408   48.3724 C   0  0  0  0  0  0  0  0  0  0  0  0
   60.2537   33.8095   48.2218 C   0  0  0  0  0  0  0  0  0  0  0  0
   63.7870   31.6851   51.0465 C   0  0  0  0  0  0  0  0  0  0  0  0
   65.2930   31.4907   51.1799 C   0  0  0  0  0  0  0  0  0  0  0  0
   60.2226   28.2070   44.7220 C   0  0  0  0  0  0  0  0  0  0  0  0
   60.6711   27.6053   46.0604 C   0  0  0  0  0  0  0  0  0  0  0  0
   57.1698   23.7477   48.2203 C   0  0  0  0  0  0  0  0  0  0  0  0
   57.7978   24.7779   47.6310 C   0  0  0  0  0  0  0  0  0  0  0  0
   58.4360   25.7080   48.4750 C   0  0  0  0  0  0  0  0  0  0  0  0
   59.3501   26.6242   47.9671 C   0  0  0  0  0  0  0  0  0  0  0  0
   59.6629   26.6275   46.6052 C   0  0  0  0  0  0  0  0  0  0  0  0
   58.9715   25.7721   45.7384 C   0  0  0  0  0  0  0  0  0  0  0  0
   57.9755   24.8922   46.2133 C   0  0  0  0  0  0  0  0  0  0  0  0
   57.2418   24.2417   45.2741 C   0  0  0  0  0  0  0  0  0  0  0  0
   55.7785   24.0325   45.2972 C   0  0  0  0  0  0  0  0  0  0  0  0
   55.1616   22.8585   45.0697 N   0  0  0  0  0  0  0  0  0  0  0  0
   53.8610   23.1373   45.3017 C   0  0  0  0  0  0  0  0  0  0  0  0
   52.9475   22.2782   45.1738 O   0  0  0  0  0  0  0  0  0  0  0  0
   53.6161   24.4026   45.6994 N   0  0  0  0  0  0  0  0  0  0  0  0
   54.8422   24.9545   45.7003 C   0  0  0  0  0  0  0  0  0  0  0  0
   55.1014   26.2661   46.0739 O   0  0  0  0  0  0  0  0  0  0  0  0
 22 23  2  0
 23 24  1  0
 24 25  2  0
 25 26  1  0
 26 21  1  0
 21 20  1  0
 20  1  1  0
  1  2  2  0
  2  3  1  0
  3  8  1  0
  8  9  2  0
  8 10  1  0
 10 11  1  0
 11 12  1  0
 12 13  1  0
 13 14  1  0
 14 15  2  0
 14 18  1  0
 18 19  1  0
 13 16  1  0
 16 17  1  0
  3  4  2  0
  4  5  1  0
  5  6  1  0
  5  7  2  0
 26 27  2  0
 27 28  1  0
 28 29  2  0
 29 30  1  0
 30 31  1  0
 31 32  1  0
 32 33  2  0
 32 34  1  0
 34 35  1  0
 35 36  1  0
 28 23  1  0
 35 30  2  0
  7  1  1  0
 17 10  1  0
M  CHG 1  31  -1
M  CHG 1  34  -1
M  CHG 1  36  -1
M  END
> <UniqueID>
13

> <SMILES>
C=c1ccc(CCc2cc(C)nc(C(=O)N3CCN(C(=O)CC)CC3)c2)c/c1=C/c1[n-]c(=O)[n-]c1[O-]

> <Energy>
117.6399598635768

> <Genealogy>
C=c1ccc(CCc2cc(C)nc(C(=O)N3CCN(C(=O)CC)CC3)c2)cc1=Cc1[n-]c(=O)[n-]c1[O-] (protonated)
C=c1ccc(CCc2cc(C)nc(C(=O)N3CCN(C(=O)CC)CC3)c2)c/c1=C/c1[n-]c(=O)[n-]c1[O-] (cis-trans isomerization)
C=c1ccc(CCc2cc(C)nc(C(=O)N3CCN(C(=O)CC)CC3)c2)c/c1=C/c1[n-]c(=O)[n-]c1[O-] (3D coordinates assigned)
C=c1ccc(CCc2cc(C)nc(C(=O)N3CCN(C(=O)CC)CC3)c2)c/c1=C/c1[n-]c(=O)[n-]c1[O-] (nonaromatic ring conformer: 117.6399598635768 kcal/mol)

> <smiles>
C=c1ccc(CCc2cc(C)nc(C(=O)N3CCN(C(=O)CC)CC3)c2)cc1=Cc1[nH]c(=O)[nH]c1O

> <score_type>
oracle

> <origin>
adg

> <m_score__min__energy>
-20.829999999999998

> <m_primary>
energy

> <minimizedAffinity>
-6.35864

> <minimizedRMSD>
0.96910

> <CNNscore>
0.0594334230

> <CNNaffinity>
6.3657932281

> <CNN_VS>
0.3783408701

> <CNNaffinity_variance>
0.1000817791

$$$$
17:0


 27 29  0  0  0  0  0  0  0  0999 V2000
   54.5699   27.6446   53.9414 C   0  0  0  0  0  0  0  0  0  0  0  0
   55.0235   28.7694   53.3612 C   0  0  0  0  0  0  0  0  0  0  0  0
   54.2433   29.8206   52.8541 C   0  0  0  0  0  0  0  0  0  0  0  0
   52.9193   29.9052   52.6132 C   0  0  0  0  0  0  0  0  0  0  0  0
   55.1138   30.8655   52.6119 C   0  0  0  0  0  0  0  0  0  0  0  0
   56.3840   30.4158   52.9125 C   0  0  0  0  0  0  0  0  0  0  0  0
   56.3368   29.1259   53.3317 N   0  0  0  0  0  0  0  0  0  0  0  0
   57.4831   28.3033   53.7371 C   0  0  0  0  0  0  0  0  0  0  0  0
   52.3014   30.3158   51.3430 C   0  0  0  0  0  0  0  0  0  0  0  0
   52.1959   29.5058   50.2745 N   0  0  0  0  0  0  0  0  0  0  0  0
   51.4665   30.2352   49.4020 C   0  0  0  0  0  0  0  0  0  0  0  0
   51.1632   29.8150   48.2553 O   0  0  0  0  0  0  0  0  0  0  0  0
   51.0738   31.4438   49.8603 N   0  0  0  0  0  0  0  0  0  0  0  0
   51.5984   31.4732   51.0957 C   0  0  0  0  0  0  0  0  0  0  0  0
   51.4131   32.5217   51.9874 O   0  0  0  0  0  0  0  0  0  0  0  0
   57.5905   31.2658   52.8303 C   0  0  0  0  0  0  0  0  0  0  0  0
   58.1197   31.7330   53.8744 O   0  0  0  0  0  0  0  0  0  0  0  0
   58.1332   31.5942   51.5427 N   0  0  0  0  0  0  0  0  0  0  0  0
   59.5569   31.6791   51.2088 C   0  0  0  0  0  0  0  0  0  0  0  0
   59.9401   30.6651   50.0985 C   0  0  0  0  0  0  0  0  0  0  0  0
   60.5852   31.3237   48.8713 C   0  0  0  0  0  0  0  0  0  0  0  0
   61.6489   32.2529   49.2861 N   0  0  0  0  0  0  0  0  0  0  0  0
   62.8918   32.3093   48.5509 C   0  0  0  0  0  0  0  0  0  0  0  0
   64.0514   33.1236   49.0408 C   0  0  0  0  0  0  0  0  0  0  0  0
   63.0144   31.6799   47.4657 O   0  0  0  0  0  0  0  0  0  0  0  0
   61.3999   33.2016   50.3862 C   0  0  0  0  0  0  0  0  0  0  0  0
   59.9522   33.1312   50.8825 C   0  0  0  0  0  0  0  0  0  0  0  0
  1  2  2  0
  2  3  1  0
  3  4  2  0
  4  9  1  0
  9 10  1  0
 10 11  1  0
 11 12  2  0
 11 13  1  0
 13 14  1  0
 14 15  1  0
  3  5  1  0
  5  6  2  0
  6 16  1  0
 16 17  2  0
 16 18  1  0
 18 19  1  0
 19 20  1  0
 20 21  1  0
 21 22  1  0
 22 23  1  0
 23 24  1  0
 23 25  2  0
 22 26  1  0
 26 27  1  0
  6  7  1  0
  7  8  1  0
  7  2  1  0
 14  9  2  0
 27 19  1  0
M  CHG 1  10  -1
M  CHG 1  13  -1
M  CHG 1  15  -1
M  CHG 1  18  -1
M  END
> <UniqueID>
18

> <SMILES>
C=c1c(=Cc2[n-]c(=O)[n-]c2[O-])cc(C(=O)[N-]C2CCN(C(C)=O)CC2)n1C

> <Energy>
119.8702299962448

> <Genealogy>
C=c1c(=Cc2[n-]c(=O)[n-]c2[O-])cc(C(=O)[N-]C2CCN(C(C)=O)CC2)n1C (protonated)
C=c1c(=Cc2[n-]c(=O)[n-]c2[O-])cc(C(=O)[N-]C2CCN(C(C)=O)CC2)n1C (3D coordinates assigned)
C=c1c(=Cc2[n-]c(=O)[n-]c2[O-])cc(C(=O)[N-]C2CCN(C(C)=O)CC2)n1C (nonaromatic ring conformer: 119.8702299962448 kcal/mol)

> <smiles>
C=c1c(=Cc2[nH]c(=O)[nH]c2O)cc(C(=O)NC2CCN(C(C)=O)CC2)n1C

> <score_type>
oracle

> <origin>
adg

> <m_score__min__energy>
-18.210000000000001

> <m_primary>
energy

> <minimizedAffinity>
-5.58520

> <minimizedRMSD>
0.89309

> <CNNscore>
0.0809725672

> <CNNaffinity>
4.8973045349

> <CNN_VS>
0.3965473175

> <CNNaffinity_variance>
0.1791910380

$$$$
19:0


 36 39  0  0  0  0  0  0  0  0999 V2000
   56.7694   29.0131   44.6839 C   0  0  0  0  0  0  0  0  0  0  0  0
   57.4783   28.0066   45.1989 C   0  0  0  0  0  0  0  0  0  0  0  0
   56.9803   26.7683   45.3746 N   0  0  0  0  0  0  0  0  0  0  0  0
   57.9515   26.0152   45.9332 C   0  0  0  0  0  0  0  0  0  0  0  0
   57.7591   24.7113   46.2072 C   0  0  0  0  0  0  0  0  0  0  0  0
   59.0937   26.8007   46.1456 C   0  0  0  0  0  0  0  0  0  0  0  0
   60.4150   26.3849   46.7312 C   0  0  0  0  0  0  0  0  0  0  0  0
   58.7875   28.0659   45.6561 C   0  0  0  0  0  0  0  0  0  0  0  0
   56.0732   26.4669   45.1388 H   0  0  0  0  0  0  0  0  0  0  0  0
   56.4879   23.9860   46.0274 C   0  0  0  0  0  0  0  0  0  0  0  0
   55.2627   24.6677   46.0471 C   0  0  0  0  0  0  0  0  0  0  0  0
   55.2269   26.0533   46.1980 O   0  0  0  0  0  0  0  0  0  0  0  0
   54.1015   23.9730   45.9200 N   0  0  0  0  0  0  0  0  0  0  0  0
   54.1023   22.6215   45.7917 C   0  0  0  0  0  0  0  0  0  0  0  0
   53.0148   22.0016   45.6731 O   0  0  0  0  0  0  0  0  0  0  0  0
   55.2767   21.9384   45.7965 N   0  0  0  0  0  0  0  0  0  0  0  0
   56.4636   22.5869   45.9186 C   0  0  0  0  0  0  0  0  0  0  0  0
   57.5351   21.9220   45.9273 O   0  0  0  0  0  0  0  0  0  0  0  0
   56.0253   26.5358   46.2859 H   0  0  0  0  0  0  0  0  0  0  0  0
   59.6797   29.2433   45.6232 C   0  0  0  0  0  0  0  0  0  0  0  0
   60.0530   29.6997   44.5083 O   0  0  0  0  0  0  0  0  0  0  0  0
   60.1195   29.8782   46.8390 N   0  0  0  0  0  0  0  0  0  0  0  0
   59.2946   29.8132   48.0529 C   0  0  0  0  0  0  0  0  0  0  0  0
   59.4478   31.1030   48.8596 C   0  0  0  0  0  0  0  0  0  0  0  0
   60.8770   31.3794   49.1011 N   0  0  0  0  0  0  0  0  0  0  0  0
   61.5717   31.6039   47.8193 C   0  0  0  0  0  0  0  0  0  0  0  0
   61.5060   30.3387   46.9607 C   0  0  0  0  0  0  0  0  0  0  0  0
   61.0514   32.5414   49.9954 C   0  0  0  0  0  0  0  0  0  0  0  0
   59.9075   33.5085   49.8410 C   0  0  0  0  0  0  0  0  0  0  0  0
   59.8537   34.4455   48.8849 C   0  0  0  0  0  0  0  0  0  0  0  0
   59.3453   34.1805   47.5294 C   0  0  0  0  0  0  0  0  0  0  0  0
   58.2412   33.3321   47.3404 C   0  0  0  0  0  0  0  0  0  0  0  0
   57.7516   33.0978   46.0532 C   0  0  0  0  0  0  0  0  0  0  0  0
   58.3670   33.6968   44.9484 C   0  0  0  0  0  0  0  0  0  0  0  0
   59.4790   34.5253   45.1317 C   0  0  0  0  0  0  0  0  0  0  0  0
   59.9703   34.7642   46.4196 C   0  0  0  0  0  0  0  0  0  0  0  0
  1  2  2  0
  2  3  1  0
  3  4  1  0
  4  5  2  0
  5 10  1  0
 10 11  2  0
 11 12  1  0
 11 13  1  0
 13 14  1  0
 14 15  2  0
 14 16  1  0
 16 17  1  0
 17 18  2  0
  4  6  1  0
  6  7  1  0
  6  8  2  0
  8 20  1  0
 20 21  2  0
 20 22  1  0
 22 23  1  0
 23 24  1  0
 24 25  1  0
 25 28  1  0
 28 29  1  0
 29 30  2  0
 30 31  1  0
 31 32  2  0
 32 33  1  0
 33 34  2  0
 34 35  1  0
 35 36  2  0
 25 26  1  0
 26 27  1  0
  8  2  1  0
 27 22  1  0
 17 10  1  0
 36 31  1  0
  3  9  1  0
 12 19  1  0
M  CHG 1  13  -1
M  CHG 1  16  -1
M  END
> <UniqueID>
20

> <SMILES>
C=c1[nH]c(=Cc2c(O)[n-]c(=O)[n-]c2=O)c(C)c1C(=O)N1CCN(CC=Cc2ccccc2)CC1

> <Energy>
111.18656642878803

> <Genealogy>
C=c1[nH]c(=Cc2c(O)[n-]c(=O)[n-]c2=O)c(C)c1C(=O)N1CCN(CC=Cc2ccccc2)CC1 (protonated)
C=c1[nH]c(=Cc2c(O)[n-]c(=O)[n-]c2=O)c(C)c1C(=O)N1CCN(CC=Cc2ccccc2)CC1 (3D coordinates assigned)
C=c1[nH]c(=Cc2c(O)[n-]c(=O)[n-]c2=O)c(C)c1C(=O)N1CCN(CC=Cc2ccccc2)CC1 (nonaromatic ring conformer: 111.18656642878803 kcal/mol)

> <smiles>
C=c1[nH]c(=Cc2c(O)[nH]c(=O)[nH]c2=O)c(C)c1C(=O)N1CCN(CC=Cc2ccccc2)CC1

> <score_type>
oracle

> <origin>
adg

> <m_score__min__energy>
-14.699999999999999

> <m_primary>
energy

> <minimizedAffinity>
-9.50666

> <minimizedRMSD>
0.96628

> <CNNscore>
0.2660308480

> <CNNaffinity>
6.8667063713

> <CNN_VS>
1.8267557621

> <CNNaffinity_variance>
0.1553631872

$$$$
36:0


 32 35  0  0  0  0  0  0  0  0999 V2000
   57.9788   29.2745   53.5673 C   0  0  0  0  0  0  0  0  0  0  0  0
   55.2313   27.9792   53.6150 C   0  0  0  0  0  0  0  0  0  0  0  0
   55.4610   29.2207   53.1532 C   0  0  0  0  0  0  0  0  0  0  0  0
   54.4956   30.0830   52.6216 C   0  0  0  0  0  0  0  0  0  0  0  0
   53.1889   29.8224   52.4142 C   0  0  0  0  0  0  0  0  0  0  0  0
   55.1603   31.2509   52.2828 C   0  0  0  0  0  0  0  0  0  0  0  0
   56.4831   31.0708   52.6295 C   0  0  0  0  0  0  0  0  0  0  0  0
   57.5538   32.0926   52.3833 C   0  0  0  0  0  0  0  0  0  0  0  0
   56.6782   29.8325   53.1492 N   0  0  0  0  0  0  0  0  0  0  0  0
   52.4279   30.3011   51.2461 C   0  0  0  0  0  0  0  0  0  0  0  0
   52.2783   29.5827   50.1194 N   0  0  0  0  0  0  0  0  0  0  0  0
   51.4582   30.3455   49.3658 C   0  0  0  0  0  0  0  0  0  0  0  0
   51.0910   30.0085   48.2099 O   0  0  0  0  0  0  0  0  0  0  0  0
   51.0543   31.4932   49.9513 N   0  0  0  0  0  0  0  0  0  0  0  0
   51.6661   31.4443   51.1458 C   0  0  0  0  0  0  0  0  0  0  0  0
   51.4906   32.4028   52.1364 O   0  0  0  0  0  0  0  0  0  0  0  0
   59.1576   30.0006   52.8915 C   0  0  0  0  0  0  0  0  0  0  0  0
   59.9276   29.1441   51.8636 C   0  0  0  0  0  0  0  0  0  0  0  0
   59.5601   29.4350   50.4534 N   0  0  0  0  0  0  0  0  0  0  0  0
   59.6788   30.8886   50.1988 C   0  0  0  0  0  0  0  0  0  0  0  0
   59.2109   31.2570   48.7721 C   0  0  0  0  0  0  0  0  0  0  0  0
   59.1389   30.0628   47.9065 N   0  0  0  0  0  0  0  0  0  0  0  0
   60.3364   29.2255   48.0623 C   0  0  0  0  0  0  0  0  0  0  0  0
   60.4025   28.6653   49.4995 C   0  0  0  0  0  0  0  0  0  0  0  0
   58.5934   29.1446   50.3067 H   0  0  0  0  0  0  0  0  0  0  0  0
   58.8145   30.3812   46.4983 C   0  0  0  0  0  0  0  0  0  0  0  0
   58.9026   31.8555   46.1614 C   0  0  0  0  0  0  0  0  0  0  0  0
   57.8800   32.4804   45.4273 C   0  0  0  0  0  0  0  0  0  0  0  0
   57.9654   33.8403   45.1114 C   0  0  0  0  0  0  0  0  0  0  0  0
   59.0759   34.5843   45.5189 C   0  0  0  0  0  0  0  0  0  0  0  0
   60.1037   33.9690   46.2386 C   0  0  0  0  0  0  0  0  0  0  0  0
   60.0210   32.6104   46.5568 C   0  0  0  0  0  0  0  0  0  0  0  0
  2  3  2  0
  3  4  1  0
  4  5  2  0
  5 10  1  0
 10 11  1  0
 11 12  1  0
 12 13  2  0
 12 14  1  0
 14 15  1  0
 15 16  1  0
  4  6  1  0
  6  7  2  0
  7  8  1  0
  7  9  1  0
  9  1  1  0
  1 17  1  0
 17 18  1  0
 18 19  1  0
 19 20  1  0
 20 21  1  0
 21 22  1  0
 22 26  1  0
 26 27  1  0
 27 28  2  0
 28 29  1  0
 29 30  2  0
 30 31  1  0
 31 32  2  0
 22 23  1  0
 23 24  1  0
  9  3  1  0
 24 19  1  0
 15 10  2  0
 32 27  1  0
 19 25  1  0
M  CHG 1  11  -1
M  CHG 1  14  -1
M  CHG 1  16  -1
M  CHG 1  19   1
M  END
> <UniqueID>
37

> <SMILES>
C=c1/c(=C/c2[n-]c(=O)[n-]c2[O-])cc(C)n1CCC[NH+]1CCN(Cc2ccccc2)CC1

> <Energy>
138.62039083001002

> <Genealogy>
C=c1c(=Cc2[n-]c(=O)[n-]c2[O-])cc(C)n1CCC[NH+]1CCN(Cc2ccccc2)CC1 (protonated)
C=c1/c(=C/c2[n-]c(=O)[n-]c2[O-])cc(C)n1CCC[NH+]1CCN(Cc2ccccc2)CC1 (cis-trans isomerization)
C=c1/c(=C/c2[n-]c(=O)[n-]c2[O-])cc(C)n1CCC[NH+]1CCN(Cc2ccccc2)CC1 (3D coordinates assigned)
C=c1/c(=C/c2[n-]c(=O)[n-]c2[O-])cc(C)n1CCC[NH+]1CCN(Cc2ccccc2)CC1 (nonaromatic ring conformer: 138.62039083001002 kcal/mol)

> <smiles>
C=c1c(=Cc2[nH]c(=O)[nH]c2O)cc(C)n1CCCN1CCN(Cc2ccccc2)CC1

> <score_type>
oracle

> <origin>
adg

> <m_score__min__energy>
-16.879999999999999

> <m_primary>
energy

> <minimizedAffinity>
-6.58076

> <minimizedRMSD>
0.68275

> <CNNscore>
0.0660887435

> <CNNaffinity>
5.3738822937

> <CNN_VS>
0.3551531434

> <CNNaffinity_variance>
0.5367054343

$$$$
53:0


 31 33  0  0  0  0  0  0  0  0999 V2000
   54.5120   27.6891   53.7752 C   0  0  0  0  0  0  0  0  0  0  0  0
   55.2088   28.7741   53.3645 C   0  0  0  0  0  0  0  0  0  0  0  0
   54.5643   29.9440   52.8373 C   0  0  0  0  0  0  0  0  0  0  0  0
   53.2106   30.1007   52.8245 C   0  0  0  0  0  0  0  0  0  0  0  0
   55.3878   30.9907   52.3716 C   0  0  0  0  0  0  0  0  0  0  0  0
   56.7766   30.9136   52.4466 C   0  0  0  0  0  0  0  0  0  0  0  0
   57.3616   29.7600   52.9751 C   0  0  0  0  0  0  0  0  0  0  0  0
   58.6185   29.6817   53.0635 O   0  0  0  0  0  0  0  0  0  0  0  0
   56.5868   28.7235   53.4082 N   0  0  0  0  0  0  0  0  0  0  0  0
   52.3926   30.3794   51.6278 C   0  0  0  0  0  0  0  0  0  0  0  0
   52.4083   29.6109   50.5250 N   0  0  0  0  0  0  0  0  0  0  0  0
   51.6146   30.2813   49.6614 C   0  0  0  0  0  0  0  0  0  0  0  0
   51.3654   29.8614   48.5017 O   0  0  0  0  0  0  0  0  0  0  0  0
   51.1157   31.4429   50.1366 N   0  0  0  0  0  0  0  0  0  0  0  0
   51.6284   31.4984   51.3765 C   0  0  0  0  0  0  0  0  0  0  0  0
   51.4299   32.5657   52.2447 O   0  0  0  0  0  0  0  0  0  0  0  0
   57.6178   32.0555   51.9222 C   0  0  0  0  0  0  0  0  0  0  0  0
   58.2350   31.6957   50.5749 C   0  0  0  0  0  0  0  0  0  0  0  0
   57.2188   27.6045   53.9255 O   0  0  0  0  0  0  0  0  0  0  0  0
   57.8568   27.6343   55.1970 C   0  0  0  0  0  0  0  0  0  0  0  0
   59.3128   27.3461   55.0250 C   0  0  0  0  0  0  0  0  0  0  0  0
   60.0582   27.2892   56.0401 O   0  0  0  0  0  0  0  0  0  0  0  0
   59.8390   27.0933   53.7124 N   0  0  0  0  0  0  0  0  0  0  0  0
   59.1983   26.9665   52.9757 H   0  0  0  0  0  0  0  0  0  0  0  0
   61.2416   27.0135   53.4058 C   0  0  0  0  0  0  0  0  0  0  0  0
   61.8494   25.7534   53.2934 C   0  0  0  0  0  0  0  0  0  0  0  0
   63.2067   25.6479   52.9730 C   0  0  0  0  0  0  0  0  0  0  0  0
   63.9643   26.7989   52.7459 C   0  0  0  0  0  0  0  0  0  0  0  0
   65.8170   26.6533   52.3035 Br  0  0  0  0  0  0  0  0  0  0  0  0
   63.3625   28.0591   52.8316 C   0  0  0  0  0  0  0  0  0  0  0  0
   62.0058   28.1678   53.1525 C   0  0  0  0  0  0  0  0  0  0  0  0
  1  2  2  0
  2  3  1  0
  3  4  2  0
  4 10  1  0
 10 11  1  0
 11 12  1  0
 12 13  2  0
 12 14  1  0
 14 15  1  0
 15 16  1  0
  3  5  1  0
  5  6  2  0
  6 17  1  0
 17 18  1  0
  6  7  1  0
  7  8  2  0
  7  9  1  0
  9 19  1  0
 19 20  1  0
 20 21  1  0
 21 22  2  0
 21 23  1  0
 23 25  1  0
 25 26  2  0
 26 27  1  0
 27 28  2  0
 28 29  1  0
 28 30  1  0
 30 31  2  0
  9  2  1  0
 31 25  1  0
 15 10  2  0
 23 24  1  0
M  CHG 1  11  -1
M  CHG 1  14  -1
M  CHG 1  16  -1
M  END
> <UniqueID>
54

> <SMILES>
C=c1c(=Cc2[n-]c(=O)[n-]c2[O-])cc(CC)c(=O)n1OCC(=O)Nc1ccc(Br)cc1

> <Energy>
103.36469518066583

> <Genealogy>
C=c1c(=Cc2[n-]c(=O)[n-]c2[O-])cc(CC)c(=O)n1OCC(=O)Nc1ccc(Br)cc1 (protonated)
C=c1c(=Cc2[n-]c(=O)[n-]c2[O-])cc(CC)c(=O)n1OCC(=O)Nc1ccc(Br)cc1 (3D coordinates assigned)
C=c1c(=Cc2[n-]c(=O)[n-]c2[O-])cc(CC)c(=O)n1OCC(=O)Nc1ccc(Br)cc1 (optimized conformer: 103.36469518066583 kcal/mol)

> <smiles>
C=c1c(=Cc2[nH]c(=O)[nH]c2O)cc(CC)c(=O)n1OCC(=O)Nc1ccc(Br)cc1

> <score_type>
oracle

> <origin>
adg

> <m_score__min__energy>
-17.25

> <m_primary>
energy

> <minimizedAffinity>
-4.64387

> <minimizedRMSD>
0.95386

> <CNNscore>
0.1941284388

> <CNNaffinity>
4.9684915543

> <CNN_VS>
0.9645255208

> <CNNaffinity_variance>
0.4725487232

$$$$
58:0


 26 28  0  0  0  0  0  0  0  0999 V2000
   60.2527   29.4187   47.2486 C   0  0  0  0  0  0  0  0  0  0  0  0
   59.2334   29.1398   46.4063 C   0  0  0  0  0  0  0  0  0  0  0  0
   58.9880   27.7970   46.0283 C   0  0  0  0  0  0  0  0  0  0  0  0
   59.7410   26.8743   46.4479 O   0  0  0  0  0  0  0  0  0  0  0  0
   57.9113   27.5151   45.1539 C   0  0  0  0  0  0  0  0  0  0  0  0
   57.5682   26.2776   44.7380 C   0  0  0  0  0  0  0  0  0  0  0  0
   57.1796   28.5524   44.6765 N   0  0  0  0  0  0  0  0  0  0  0  0
   57.4193   29.8377   45.0281 C   0  0  0  0  0  0  0  0  0  0  0  0
   56.6888   30.7460   44.5450 O   0  0  0  0  0  0  0  0  0  0  0  0
   58.4323   30.1428   45.8975 N   0  0  0  0  0  0  0  0  0  0  0  0
   57.2407   25.1287   45.6091 C   0  0  0  0  0  0  0  0  0  0  0  0
   56.0023   25.0439   46.2663 C   0  0  0  0  0  0  0  0  0  0  0  0
   55.0613   26.0599   46.1417 O   0  0  0  0  0  0  0  0  0  0  0  0
   55.7123   23.9577   47.0282 N   0  0  0  0  0  0  0  0  0  0  0  0
   56.5972   22.9356   47.1549 C   0  0  0  0  0  0  0  0  0  0  0  0
   56.3090   21.9407   47.8695 O   0  0  0  0  0  0  0  0  0  0  0  0
   57.7900   22.9836   46.5098 N   0  0  0  0  0  0  0  0  0  0  0  0
   58.1284   24.0483   45.7366 C   0  0  0  0  0  0  0  0  0  0  0  0
   59.2407   24.0578   45.1462 O   0  0  0  0  0  0  0  0  0  0  0  0
   58.6309   31.5268   46.2524 C   0  0  0  0  0  0  0  0  0  0  0  0
   58.7478   31.8946   47.6013 C   0  0  0  0  0  0  0  0  0  0  0  0
   58.9384   33.2351   47.9481 C   0  0  0  0  0  0  0  0  0  0  0  0
   59.0158   34.2128   46.9520 C   0  0  0  0  0  0  0  0  0  0  0  0
   58.9026   33.8502   45.6062 C   0  0  0  0  0  0  0  0  0  0  0  0
   58.7108   32.5108   45.2535 C   0  0  0  0  0  0  0  0  0  0  0  0
   58.6030   32.1664   43.9462 F   0  0  0  0  0  0  0  0  0  0  0  0
  1  2  2  0
  2  3  1  0
  3  4  2  0
  3  5  1  0
  5  6  2  0
  6 11  1  0
 11 12  2  0
 12 13  1  0
 12 14  1  0
 14 15  1  0
 15 16  2  0
 15 17  1  0
 17 18  1  0
 18 19  2  0
  5  7  1  0
  7  8  1  0
  8  9  2  0
  8 10  1  0
 10 20  1  0
 20 21  2  0
 21 22  1  0
 22 23  2  0
 23 24  1  0
 24 25  2  0
 25 26  1  0
 10  2  1  0
 25 20  1  0
 18 11  1  0
M  CHG 1   7  -1
M  CHG 1  13  -1
M  CHG 1  14  -1
M  CHG 1  17  -1
M  END
> <UniqueID>
58

> <SMILES>
C=c1c(=O)c(=Cc2c([O-])[n-]c(=O)[n-]c2=O)[n-]c(=O)n1-c1ccccc1F

> <Energy>
67.64744971767024

> <Genealogy>
C=c1c(=O)c(=Cc2c([O-])[n-]c(=O)[n-]c2=O)[n-]c(=O)n1-c1ccccc1F (protonated)
C=c1c(=O)c(=Cc2c([O-])[n-]c(=O)[n-]c2=O)[n-]c(=O)n1-c1ccccc1F (3D coordinates assigned)
C=c1c(=O)c(=Cc2c([O-])[n-]c(=O)[n-]c2=O)[n-]c(=O)n1-c1ccccc1F (optimized conformer: 67.64744971767024 kcal/mol)

> <smiles>
C=c1c(=O)c(=Cc2c(O)[nH]c(=O)[nH]c2=O)[nH]c(=O)n1-c1ccccc1F

> <score_type>
oracle

> <origin>
adg

> <m_score__min__energy>
-17.149999999999999

> <m_primary>
energy

> <minimizedAffinity>
-8.30103

> <minimizedRMSD>
1.21544

> <CNNscore>
0.2986693680

> <CNNaffinity>
6.5286412239

> <CNN_VS>
1.9499051571

> <CNNaffinity_variance>
0.2201967239

$$$$
73:0


 33 36  0  0  0  0  0  0  0  0999 V2000
   57.7419   30.6640   52.4646 C   0  0  0  0  0  0  0  0  0  0  0  0
   58.3374   31.3099   53.3714 O   0  0  0  0  0  0  0  0  0  0  0  0
   58.3279   30.6016   51.1360 N   0  0  0  0  0  0  0  0  0  0  0  0
   58.0484   31.8577   50.3869 C   0  0  0  0  0  0  0  0  0  0  0  0
   59.1236   32.2156   49.3408 C   0  0  0  0  0  0  0  0  0  0  0  0
   59.7515   31.0061   48.7994 N   0  0  0  0  0  0  0  0  0  0  0  0
   60.1234   30.9336   47.4119 C   0  0  0  0  0  0  0  0  0  0  0  0
   61.2913   30.5764   47.0998 O   0  0  0  0  0  0  0  0  0  0  0  0
   60.2724   29.9967   49.7285 C   0  0  0  0  0  0  0  0  0  0  0  0
   59.7664   30.2493   51.1545 C   0  0  0  0  0  0  0  0  0  0  0  0
   59.0499   29.9329   51.1628 H   0  0  0  0  0  0  0  0  0  0  0  0
   59.1590   31.2417   46.3400 C   0  0  0  0  0  0  0  0  0  0  0  0
   58.8306   32.5060   45.8805 C   0  0  0  0  0  0  0  0  0  0  0  0
   57.8509   32.3299   44.9243 C   0  0  0  0  0  0  0  0  0  0  0  0
   57.6283   30.9667   44.8412 C   0  0  0  0  0  0  0  0  0  0  0  0
   56.5825   30.3114   44.0029 C   0  0  0  0  0  0  0  0  0  0  0  0
   58.4114   30.3094   45.7168 N   0  0  0  0  0  0  0  0  0  0  0  0
   58.4337   29.3374   45.8717 H   0  0  0  0  0  0  0  0  0  0  0  0
   54.3719   27.5579   54.0466 C   0  0  0  0  0  0  0  0  0  0  0  0
   54.9281   28.6503   53.4965 C   0  0  0  0  0  0  0  0  0  0  0  0
   54.2490   29.6648   52.8025 C   0  0  0  0  0  0  0  0  0  0  0  0
   52.9134   29.7571   52.6072 C   0  0  0  0  0  0  0  0  0  0  0  0
   55.2275   30.5479   52.3633 C   0  0  0  0  0  0  0  0  0  0  0  0
   56.4373   30.0510   52.7969 C   0  0  0  0  0  0  0  0  0  0  0  0
   56.2609   28.9168   53.5118 N   0  0  0  0  0  0  0  0  0  0  0  0
   57.3269   28.1529   54.1703 C   0  0  0  0  0  0  0  0  0  0  0  0
   52.2465   30.2321   51.3741 C   0  0  0  0  0  0  0  0  0  0  0  0
   52.1414   29.5581   50.2155 N   0  0  0  0  0  0  0  0  0  0  0  0
   51.4643   30.4061   49.4137 C   0  0  0  0  0  0  0  0  0  0  0  0
   51.1677   30.1215   48.2248 O   0  0  0  0  0  0  0  0  0  0  0  0
   51.1283   31.5796   49.9868 N   0  0  0  0  0  0  0  0  0  0  0  0
   51.6310   31.4535   51.2251 C   0  0  0  0  0  0  0  0  0  0  0  0
   51.5306   32.4386   52.2007 O   0  0  0  0  0  0  0  0  0  0  0  0
 19 20  2  0
 20 21  1  0
 21 22  2  0
 22 27  1  0
 27 28  1  0
 28 29  1  0
 29 30  2  0
 29 31  1  0
 31 32  1  0
 32 33  1  0
 21 23  1  0
 23 24  2  0
 24  1  1  0
  1  2  2  0
  1  3  1  0
  3  4  1  0
  4  5  1  0
  5  6  1  0
  6  7  1  0
  7  8  2  0
  7 12  1  0
 12 13  2  0
 13 14  1  0
 14 15  2  0
 15 16  1  0
 15 17  1  0
  6  9  1  0
  9 10  1  0
 24 25  1  0
 25 26  1  0
 25 20  1  0
 32 27  2  0
 10  3  1  0
 17 12  1  0
  3 11  1  0
 17 18  1  0
M  CHG 1   3   1
M  CHG 1  28  -1
M  CHG 1  31  -1
M  CHG 1  33  -1
M  END
> <UniqueID>
72

> <SMILES>
C=c1/c(=C/c2[n-]c(=O)[n-]c2[O-])cc(C(=O)[NH+]2CCN(C(=O)c3ccc(C)[nH]3)CC2)n1C

> <Energy>
163.07534078309624

> <Genealogy>
C=c1c(=Cc2[n-]c(=O)[n-]c2[O-])cc(C(=O)[NH+]2CCN(C(=O)c3ccc(C)[nH]3)CC2)n1C (protonated)
C=c1/c(=C/c2[n-]c(=O)[n-]c2[O-])cc(C(=O)[NH+]2CCN(C(=O)c3ccc(C)[nH]3)CC2)n1C (cis-trans isomerization)
C=c1/c(=C/c2[n-]c(=O)[n-]c2[O-])cc(C(=O)[NH+]2CCN(C(=O)c3ccc(C)[nH]3)CC2)n1C (3D coordinates assigned)
C=c1/c(=C/c2[n-]c(=O)[n-]c2[O-])cc(C(=O)[NH+]2CCN(C(=O)c3ccc(C)[nH]3)CC2)n1C (nonaromatic ring conformer: 163.07534078309624 kcal/mol)

> <smiles>
C=c1c(=Cc2[nH]c(=O)[nH]c2O)cc(C(=O)N2CCN(C(=O)c3ccc(C)[nH]3)CC2)n1C

> <score_type>
oracle

> <origin>
adg

> <m_score__min__energy>
-16.899999999999999

> <m_primary>
energy

> <minimizedAffinity>
-7.08420

> <minimizedRMSD>
0.86400

> <CNNscore>
0.0521593913

> <CNNaffinity>
5.7135238647

> <CNN_VS>
0.2980139256

> <CNNaffinity_variance>
0.3358354867

$$$$
79:0


 37 40  0  0  0  0  0  0  0  0999 V2000
   60.0596   30.4713   47.9776 C   0  0  0  0  0  0  0  0  0  0  0  0
   59.3686   29.6902   48.9240 C   0  0  0  0  0  0  0  0  0  0  0  0
   58.8358   30.2723   50.0757 C   0  0  0  0  0  0  0  0  0  0  0  0
   58.9828   31.6391   50.3013 C   0  0  0  0  0  0  0  0  0  0  0  0
   59.6763   32.4281   49.3831 C   0  0  0  0  0  0  0  0  0  0  0  0
   60.2375   31.8548   48.2332 C   0  0  0  0  0  0  0  0  0  0  0  0
   61.0078   32.7246   47.3288 C   0  0  0  0  0  0  0  0  0  0  0  0
   60.4143   33.6558   46.7233 O   0  0  0  0  0  0  0  0  0  0  0  0
   62.4222   32.5710   47.1599 N   0  0  0  0  0  0  0  0  0  0  0  0
   63.4424   33.1898   48.0025 C   0  0  0  0  0  0  0  0  0  0  0  0
   63.1482   32.9549   49.4604 C   0  0  0  0  0  0  0  0  0  0  0  0
   62.8676   34.0350   50.3140 C   0  0  0  0  0  0  0  0  0  0  0  0
   62.6201   33.8129   51.6714 C   0  0  0  0  0  0  0  0  0  0  0  0
   62.6443   32.5142   52.1855 C   0  0  0  0  0  0  0  0  0  0  0  0
   62.9170   31.4277   51.3432 C   0  0  0  0  0  0  0  0  0  0  0  0
   63.1599   31.6498   49.9795 C   0  0  0  0  0  0  0  0  0  0  0  0
   62.9278   29.7921   51.9932 S   0  0  0  0  0  0  0  0  0  0  0  0
   64.5924   29.1699   51.9942 C   0  0  0  0  0  0  0  0  0  0  0  0
   62.3954   29.7935   53.3994 O   0  0  0  0  0  0  0  0  0  0  0  0
   62.0566   28.9054   51.1483 O   0  0  0  0  0  0  0  0  0  0  0  0
   60.5780   29.8088   46.7169 C   0  0  0  0  0  0  0  0  0  0  0  0
   60.4347   26.7676   46.4929 C   0  0  0  0  0  0  0  0  0  0  0  0
   59.5033   27.6029   45.9973 C   0  0  0  0  0  0  0  0  0  0  0  0
   58.3362   27.2110   45.3299 C   0  0  0  0  0  0  0  0  0  0  0  0
   57.9607   25.9596   45.0018 C   0  0  0  0  0  0  0  0  0  0  0  0
   57.6578   28.3764   45.0142 C   0  0  0  0  0  0  0  0  0  0  0  0
   58.4116   29.4199   45.5072 C   0  0  0  0  0  0  0  0  0  0  0  0
   58.0368   30.8638   45.3554 C   0  0  0  0  0  0  0  0  0  0  0  0
   59.5493   28.9617   46.0856 N   0  0  0  0  0  0  0  0  0  0  0  0
   57.2052   25.0597   45.8935 C   0  0  0  0  0  0  0  0  0  0  0  0
   57.7686   24.0359   46.5557 N   0  0  0  0  0  0  0  0  0  0  0  0
   56.7547   23.5477   47.3026 C   0  0  0  0  0  0  0  0  0  0  0  0
   56.8918   22.5565   48.0646 O   0  0  0  0  0  0  0  0  0  0  0  0
   55.5869   24.2142   47.1774 N   0  0  0  0  0  0  0  0  0  0  0  0
   55.8911   25.1773   46.2921 C   0  0  0  0  0  0  0  0  0  0  0  0
   55.0014   26.1714   45.8951 O   0  0  0  0  0  0  0  0  0  0  0  0
   54.1225   26.1705   46.2198 H   0  0  0  0  0  0  0  0  0  0  0  0
 22 23  2  0
 23 24  1  0
 24 25  2  0
 25 30  1  0
 30 31  1  0
 31 32  1  0
 32 33  2  0
 32 34  1  0
 34 35  1  0
 35 36  1  0
 24 26  1  0
 26 27  2  0
 27 28  1  0
 27 29  1  0
 29 21  1  0
 21  1  1  0
  1  2  2  0
  2  3  1  0
  3  4  2  0
  4  5  1  0
  5  6  2  0
  6  7  1  0
  7  8  2  0
  7  9  1  0
  9 10  1  0
 10 11  1  0
 11 12  2  0
 12 13  1  0
 13 14  2  0
 14 15  1  0
 15 17  1  0
 17 18  1  0
 17 19  2  0
 17 20  2  0
 15 16  2  0
 29 23  1  0
  6  1  1  0
 16 11  1  0
 35 30  2  0
 36 37  1  0
M  CHG 1   9  -1
M  CHG 1  31  -1
M  CHG 1  34  -1
M  END
> <UniqueID>
78

> <SMILES>
C=c1c(=Cc2[n-]c(=O)[n-]c2O)cc(C)n1Cc1ccccc1C(=O)[N-]Cc1cccc(S(C)(=O)=O)c1

> <Energy>
128.07856287232897

> <Genealogy>
C=c1c(=Cc2[n-]c(=O)[n-]c2O)cc(C)n1Cc1ccccc1C(=O)[N-]Cc1cccc(S(C)(=O)=O)c1 (protonated)
C=c1c(=Cc2[n-]c(=O)[n-]c2O)cc(C)n1Cc1ccccc1C(=O)[N-]Cc1cccc(S(C)(=O)=O)c1 (3D coordinates assigned)
C=c1c(=Cc2[n-]c(=O)[n-]c2O)cc(C)n1Cc1ccccc1C(=O)[N-]Cc1cccc(S(C)(=O)=O)c1 (optimized conformer: 128.07856287232897 kcal/mol)

> <smiles>
C=c1c(=Cc2[nH]c(=O)[nH]c2O)cc(C)n1Cc1ccccc1C(=O)NCc1cccc(S(C)(=O)=O)c1

> <score_type>
oracle

> <origin>
adg

> <m_score__min__energy>
-16.5

> <m_primary>
energy

> <minimizedAffinity>
-8.77625

> <minimizedRMSD>
0.88272

> <CNNscore>
0.3133273423

> <CNNaffinity>
7.1393013000

> <CNN_VS>
2.2369382381

> <CNNaffinity_variance>
0.0208157450

$$$$
6:0


 37 40  0  0  0  0  0  0  0  0999 V2000
   60.6026   32.4781   47.7786 C   0  0  0  0  0  0  0  0  0  0  0  0
   61.8455   33.0456   47.4636 C   0  0  0  0  0  0  0  0  0  0  0  0
   62.4896   33.8812   48.3797 C   0  0  0  0  0  0  0  0  0  0  0  0
   61.8976   34.1547   49.6161 C   0  0  0  0  0  0  0  0  0  0  0  0
   60.6610   33.5897   49.9423 C   0  0  0  0  0  0  0  0  0  0  0  0
   60.0059   32.7408   49.0264 C   0  0  0  0  0  0  0  0  0  0  0  0
   60.9600   29.5596   47.4521 C   0  0  0  0  0  0  0  0  0  0  0  0
   60.1446   30.2823   46.6664 C   0  0  0  0  0  0  0  0  0  0  0  0
   59.2769   29.8054   45.6682 C   0  0  0  0  0  0  0  0  0  0  0  0
   59.1352   28.5778   45.1275 C   0  0  0  0  0  0  0  0  0  0  0  0
   58.5094   30.8891   45.2739 C   0  0  0  0  0  0  0  0  0  0  0  0
   58.9620   31.9834   45.9829 C   0  0  0  0  0  0  0  0  0  0  0  0
   58.3937   33.3660   45.8658 C   0  0  0  0  0  0  0  0  0  0  0  0
   59.9491   31.6162   46.8293 N   0  0  0  0  0  0  0  0  0  0  0  0
   58.3050   27.4872   45.6767 C   0  0  0  0  0  0  0  0  0  0  0  0
   56.9123   27.5104   45.5170 C   0  0  0  0  0  0  0  0  0  0  0  0
   56.2942   28.5850   44.8858 O   0  0  0  0  0  0  0  0  0  0  0  0
   56.1577   26.4813   45.9877 N   0  0  0  0  0  0  0  0  0  0  0  0
   56.7356   25.4131   46.5990 C   0  0  0  0  0  0  0  0  0  0  0  0
   56.0223   24.4711   47.0323 O   0  0  0  0  0  0  0  0  0  0  0  0
   58.0849   25.3557   46.7379 N   0  0  0  0  0  0  0  0  0  0  0  0
   58.8797   26.3568   46.2825 C   0  0  0  0  0  0  0  0  0  0  0  0
   60.1300   26.2566   46.4027 O   0  0  0  0  0  0  0  0  0  0  0  0
   55.1790   26.5103   45.8843 H   0  0  0  0  0  0  0  0  0  0  0  0
   58.7747   32.1367   49.3171 O   0  0  0  0  0  0  0  0  0  0  0  0
   58.3446   31.7432   50.6181 C   0  0  0  0  0  0  0  0  0  0  0  0
   58.2873   30.3393   50.6861 O   0  0  0  0  0  0  0  0  0  0  0  0
   59.3904   29.7830   51.8529 S   0  0  0  0  0  0  0  0  0  0  0  0
   60.0393   30.9716   52.4999 O   0  0  0  0  0  0  0  0  0  0  0  0
   58.6942   28.9787   52.9166 O   0  0  0  0  0  0  0  0  0  0  0  0
   60.6492   28.7814   51.0750 C   0  0  0  0  0  0  0  0  0  0  0  0
   62.0056   29.3940   51.2895 C   0  0  0  0  0  0  0  0  0  0  0  0
   62.3717   30.5648   50.6038 C   0  0  0  0  0  0  0  0  0  0  0  0
   63.6208   31.1527   50.8283 C   0  0  0  0  0  0  0  0  0  0  0  0
   64.5113   30.5762   51.7391 C   0  0  0  0  0  0  0  0  0  0  0  0
   64.1553   29.4111   52.4261 C   0  0  0  0  0  0  0  0  0  0  0  0
   62.9035   28.8239   52.2081 C   0  0  0  0  0  0  0  0  0  0  0  0
  7  8  2  0
  8  9  1  0
  9 10  2  0
 10 15  1  0
 15 16  2  0
 16 17  1  0
 16 18  1  0
 18 19  1  0
 19 20  2  0
 19 21  1  0
 21 22  1  0
 22 23  2  0
  9 11  1  0
 11 12  2  0
 12 13  1  0
 12 14  1  0
 14  1  1  0
  1  2  2  0
  2  3  1  0
  3  4  2  0
  4  5  1  0
  5  6  2  0
  6 25  1  0
 25 26  1  0
 26 27  1  0
 27 28  1  0
 28 29  2  0
 28 30  2  0
 28 31  1  0
 31 32  1  0
 32 33  2  0
 33 34  1  0
 34 35  2  0
 35 36  1  0
 36 37  2  0
 14  8  1  0
  6  1  1  0
 37 32  1  0
 22 15  1  0
 18 24  1  0
M  CHG 1  17  -1
M  CHG 1  21  -1
M  END
> <UniqueID>
7

> <SMILES>
C=c1/c(=C\c2c([O-])[nH]c(=O)[n-]c2=O)cc(C)n1-c1ccccc1OCOS(=O)(=O)Cc1ccccc1

> <Energy>
106.51271457811373

> <Genealogy>
C=c1c(=Cc2c([O-])[nH]c(=O)[n-]c2=O)cc(C)n1-c1ccccc1OCOS(=O)(=O)Cc1ccccc1 (protonated)
C=c1/c(=C\c2c([O-])[nH]c(=O)[n-]c2=O)cc(C)n1-c1ccccc1OCOS(=O)(=O)Cc1ccccc1 (cis-trans isomerization)
C=c1/c(=C\c2c([O-])[nH]c(=O)[n-]c2=O)cc(C)n1-c1ccccc1OCOS(=O)(=O)Cc1ccccc1 (3D coordinates assigned)
C=c1/c(=C\c2c([O-])[nH]c(=O)[n-]c2=O)cc(C)n1-c1ccccc1OCOS(=O)(=O)Cc1ccccc1 (optimized conformer: 106.51271457811373 kcal/mol)

> <smiles>
C=c1c(=Cc2c(O)[nH]c(=O)[nH]c2=O)cc(C)n1-c1ccccc1OCOS(=O)(=O)Cc1ccccc1

> <score_type>
oracle

> <origin>
adg

> <m_score__min__energy>
-14.9

> <m_primary>
energy

> <minimizedAffinity>
-7.93683

> <minimizedRMSD>
2.19813

> <CNNscore>
0.2610117495

> <CNNaffinity>
6.7720112801

> <CNN_VS>
1.7675745487

> <CNNaffinity_variance>
0.0945678949

$$$$
14:0


 27 29  0  0  0  0  0  0  0  0999 V2000
   57.3967   29.7306   43.4442 C   0  0  0  0  0  0  0  0  0  0  0  0
   57.9855   29.6884   44.6498 C   0  0  0  0  0  0  0  0  0  0  0  0
   58.3852   28.5409   45.3523 C   0  0  0  0  0  0  0  0  0  0  0  0
   58.5067   27.2588   44.9556 C   0  0  0  0  0  0  0  0  0  0  0  0
   58.6751   28.9565   46.6390 C   0  0  0  0  0  0  0  0  0  0  0  0
   58.5163   30.3276   46.6651 C   0  0  0  0  0  0  0  0  0  0  0  0
   58.1204   30.7781   45.4514 N   0  0  0  0  0  0  0  0  0  0  0  0
   57.8195   32.1723   45.1038 C   0  0  0  0  0  0  0  0  0  0  0  0
   58.6855   31.1639   47.8712 C   0  0  0  0  0  0  0  0  0  0  0  0
   58.0106   32.2243   47.9727 O   0  0  0  0  0  0  0  0  0  0  0  0
   59.6038   30.7932   48.9217 N   0  0  0  0  0  0  0  0  0  0  0  0
   59.4944   31.3818   50.2614 C   0  0  0  0  0  0  0  0  0  0  0  0
   60.7849   32.1444   50.6262 C   0  0  0  0  0  0  0  0  0  0  0  0
   61.9997   31.6267   49.9346 N   0  0  0  0  0  0  0  0  0  0  0  0
   61.8945   30.1809   49.6171 C   0  0  0  0  0  0  0  0  0  0  0  0
   60.7350   29.8940   48.6540 C   0  0  0  0  0  0  0  0  0  0  0  0
   62.6560   32.5462   48.9405 C   0  0  0  0  0  0  0  0  0  0  0  0
   64.0143   33.0128   49.5170 C   0  0  0  0  0  0  0  0  0  0  0  0
   61.7969   33.7936   48.6110 C   0  0  0  0  0  0  0  0  0  0  0  0
   62.9720   31.8189   47.6099 C   0  0  0  0  0  0  0  0  0  0  0  0
   57.8373   26.1036   45.5762 C   0  0  0  0  0  0  0  0  0  0  0  0
   58.4386   24.9353   45.8707 N   0  0  0  0  0  0  0  0  0  0  0  0
   57.4833   24.2540   46.5421 C   0  0  0  0  0  0  0  0  0  0  0  0
   57.6628   23.0881   46.9783 O   0  0  0  0  0  0  0  0  0  0  0  0
   56.3241   24.9255   46.7158 N   0  0  0  0  0  0  0  0  0  0  0  0
   56.5711   26.0987   46.1113 C   0  0  0  0  0  0  0  0  0  0  0  0
   55.6618   27.1467   46.0543 O   0  0  0  0  0  0  0  0  0  0  0  0
  1  2  2  0
  2  3  1  0
  3  4  2  0
  4 21  1  0
 21 22  1  0
 22 23  1  0
 23 24  2  0
 23 25  1  0
 25 26  1  0
 26 27  1  0
  3  5  1  0
  5  6  2  0
  6  9  1  0
  9 10  2  0
  9 11  1  0
 11 12  1  0
 12 13  1  0
 13 14  1  0
 14 17  1  0
 17 18  1  0
 17 19  1  0
 17 20  1  0
 14 15  1  0
 15 16  1  0
  6  7  1  0
  7  8  1  0
  7  2  1  0
 26 21  2  0
 16 11  1  0
M  CHG 1  22  -1
M  CHG 1  25  -1
M  CHG 1  27  -1
M  END
> <UniqueID>
14

> <SMILES>
C=c1c(=Cc2[n-]c(=O)[n-]c2[O-])cc(C(=O)N2CCN(C(C)(C)C)CC2)n1C

> <Energy>
142.0234578668855

> <Genealogy>
C=c1c(=Cc2[n-]c(=O)[n-]c2[O-])cc(C(=O)N2CCN(C(C)(C)C)CC2)n1C (protonated)
C=c1c(=Cc2[n-]c(=O)[n-]c2[O-])cc(C(=O)N2CCN(C(C)(C)C)CC2)n1C (3D coordinates assigned)
C=c1c(=Cc2[n-]c(=O)[n-]c2[O-])cc(C(=O)N2CCN(C(C)(C)C)CC2)n1C (nonaromatic ring conformer: 142.0234578668855 kcal/mol)

> <smiles>
C=c1c(=Cc2[nH]c(=O)[nH]c2O)cc(C(=O)N2CCN(C(C)(C)C)CC2)n1C

> <score_type>
oracle

> <origin>
adg

> <m_score__min__energy>
-16.989999999999998

> <m_primary>
energy

> <minimizedAffinity>
-6.15649

> <minimizedRMSD>
0.89835

> <CNNscore>
0.0895820707

> <CNNaffinity>
6.0928783417

> <CNN_VS>
0.5458126664

> <CNNaffinity_variance>
0.0116656581

$$$$
20:0


 28 30  0  0  0  0  0  0  0  0999 V2000
   58.4642   30.0514   45.0493 C   0  0  0  0  0  0  0  0  0  0  0  0
   59.8064   29.6696   45.1754 C   0  0  0  0  0  0  0  0  0  0  0  0
   60.1419   28.3357   45.4106 C   0  0  0  0  0  0  0  0  0  0  0  0
   59.1404   27.3719   45.5382 C   0  0  0  0  0  0  0  0  0  0  0  0
   57.7863   27.7427   45.4554 C   0  0  0  0  0  0  0  0  0  0  0  0
   57.4529   29.0826   45.1969 C   0  0  0  0  0  0  0  0  0  0  0  0
   56.1126   29.4485   45.1076 O   0  0  0  0  0  0  0  0  0  0  0  0
   58.0587   31.7421   44.7398 S   0  0  0  0  0  0  0  0  0  0  0  0
   58.2344   32.0507   43.2780 O   0  0  0  0  0  0  0  0  0  0  0  0
   56.6232   31.9693   45.1263 O   0  0  0  0  0  0  0  0  0  0  0  0
   60.0565   34.0754   49.4618 C   0  0  0  0  0  0  0  0  0  0  0  0
   59.7017   32.9448   48.5894 N   0  0  0  0  0  0  0  0  0  0  0  0
   58.3230   33.0849   48.0541 C   0  0  0  0  0  0  0  0  0  0  0  0
   58.3039   33.6291   46.6147 C   0  0  0  0  0  0  0  0  0  0  0  0
   59.0941   32.7951   45.6782 N   0  0  0  0  0  0  0  0  0  0  0  0
   60.1561   32.0050   46.3353 C   0  0  0  0  0  0  0  0  0  0  0  0
   60.7291   32.7536   47.5427 C   0  0  0  0  0  0  0  0  0  0  0  0
   56.7297   26.7771   45.5725 N   0  0  0  0  0  0  0  0  0  0  0  0
   56.7428   25.5876   46.3735 C   0  0  0  0  0  0  0  0  0  0  0  0
   57.4760   25.5115   47.3946 O   0  0  0  0  0  0  0  0  0  0  0  0
   55.9297   24.4625   46.0202 N   0  0  0  0  0  0  0  0  0  0  0  0
   56.2724   23.4195   45.0953 C   0  0  0  0  0  0  0  0  0  0  0  0
   55.9360   23.5021   43.7307 C   0  0  0  0  0  0  0  0  0  0  0  0
   56.2583   22.4548   42.8617 C   0  0  0  0  0  0  0  0  0  0  0  0
   56.9004   21.3140   43.3470 C   0  0  0  0  0  0  0  0  0  0  0  0
   57.2142   21.2133   44.7057 C   0  0  0  0  0  0  0  0  0  0  0  0
   56.8971   22.2597   45.5785 C   0  0  0  0  0  0  0  0  0  0  0  0
   57.2123   22.1442   46.9283 O   0  0  0  0  0  0  0  0  0  0  0  0
 11 12  1  0
 12 13  1  0
 13 14  1  0
 14 15  1  0
 15  8  1  0
  8  9  2  0
  8 10  2  0
  8  1  1  0
  1  2  2  0
  2  3  1  0
  3  4  2  0
  4  5  1  0
  5 18  1  0
 18 19  1  0
 19 20  2  0
 19 21  1  0
 21 22  1  0
 22 23  2  0
 23 24  1  0
 24 25  2  0
 25 26  1  0
 26 27  2  0
 27 28  1  0
  5  6  2  0
  6  7  1  0
 15 16  1  0
 16 17  1  0
 17 12  1  0
  6  1  1  0
 27 22  1  0
M  CHG 1   7  -1
M  CHG 1  18  -1
M  CHG 1  21  -1
M  CHG 1  28  -1
M  END
> <UniqueID>
20

> <SMILES>
CN1CCN(S(=O)(=O)c2cccc([N-]C(=O)[N-]c3ccccc3[O-])c2[O-])CC1

> <Energy>
66.46162187161738

> <Genealogy>
CN1CCN(S(=O)(=O)c2cccc([N-]C(=O)[N-]c3ccccc3[O-])c2[O-])CC1 (protonated)
CN1CCN(S(=O)(=O)c2cccc([N-]C(=O)[N-]c3ccccc3[O-])c2[O-])CC1 (3D coordinates assigned)
CN1CCN(S(=O)(=O)c2cccc([N-]C(=O)[N-]c3ccccc3[O-])c2[O-])CC1 (nonaromatic ring conformer: 66.46162187161738 kcal/mol)

> <smiles>
CN1CCN(S(=O)(=O)c2cccc(NC(=O)Nc3ccccc3O)c2O)CC1

> <score_type>
oracle

> <origin>
adg

> <m_score__min__energy>
-19.039999999999999

> <m_primary>
energy

> <minimizedAffinity>
-7.18483

> <minimizedRMSD>
1.39119

> <CNNscore>
0.3233362436

> <CNNaffinity>
6.1831836700

> <CNN_VS>
1.9992474318

> <CNNaffinity_variance>
0.0416471995

$$$$
38:0


 31 34  0  0  0  0  0  0  0  0999 V2000
   56.7374   31.7214   52.6625 C   0  0  0  0  0  0  0  0  0  0  0  0
   56.2209   30.5358   53.0230 C   0  0  0  0  0  0  0  0  0  0  0  0
   54.8662   30.2290   53.1839 C   0  0  0  0  0  0  0  0  0  0  0  0
   53.8144   31.0366   52.9523 C   0  0  0  0  0  0  0  0  0  0  0  0
   54.8134   28.8968   53.5796 C   0  0  0  0  0  0  0  0  0  0  0  0
   56.1192   28.4544   53.6525 C   0  0  0  0  0  0  0  0  0  0  0  0
   56.5363   27.0570   53.9936 C   0  0  0  0  0  0  0  0  0  0  0  0
   56.9692   29.4424   53.3086 N   0  0  0  0  0  0  0  0  0  0  0  0
   58.3994   29.3307   53.2547 C   0  0  0  0  0  0  0  0  0  0  0  0
   59.0137   28.8835   54.2605 O   0  0  0  0  0  0  0  0  0  0  0  0
   59.1191   29.6989   52.0614 N   0  0  0  0  0  0  0  0  0  0  0  0
   60.5885   29.7622   52.0528 C   0  0  0  0  0  0  0  0  0  0  0  0
   61.1712   29.0969   50.7878 C   0  0  0  0  0  0  0  0  0  0  0  0
   60.2052   29.0169   49.6619 N   0  0  0  0  0  0  0  0  0  0  0  0
   59.3043   30.1817   49.6431 C   0  0  0  0  0  0  0  0  0  0  0  0
   58.3797   30.1067   50.8592 C   0  0  0  0  0  0  0  0  0  0  0  0
   52.8572   30.8445   51.8485 C   0  0  0  0  0  0  0  0  0  0  0  0
   53.0436   29.9554   50.8569 N   0  0  0  0  0  0  0  0  0  0  0  0
   51.9862   30.1692   50.0438 C   0  0  0  0  0  0  0  0  0  0  0  0
   51.7967   29.5049   48.9914 O   0  0  0  0  0  0  0  0  0  0  0  0
   51.1530   31.1541   50.4418 N   0  0  0  0  0  0  0  0  0  0  0  0
   51.7237   31.5809   51.5791 C   0  0  0  0  0  0  0  0  0  0  0  0
   51.2437   32.6488   52.3258 O   0  0  0  0  0  0  0  0  0  0  0  0
   60.8973   28.8704   48.3661 C   0  0  0  0  0  0  0  0  0  0  0  0
   59.9003   28.6820   47.2526 C   0  0  0  0  0  0  0  0  0  0  0  0
   60.0111   29.4173   46.0605 C   0  0  0  0  0  0  0  0  0  0  0  0
   59.0971   29.2164   45.0238 C   0  0  0  0  0  0  0  0  0  0  0  0
   58.0705   28.2783   45.1654 C   0  0  0  0  0  0  0  0  0  0  0  0
   57.9596   27.5360   46.3437 C   0  0  0  0  0  0  0  0  0  0  0  0
   56.9647   26.6228   46.4787 F   0  0  0  0  0  0  0  0  0  0  0  0
   58.8734   27.7335   47.3842 C   0  0  0  0  0  0  0  0  0  0  0  0
  1  2  2  0
  2  3  1  0
  3  4  2  0
  4 17  1  0
 17 18  1  0
 18 19  1  0
 19 20  2  0
 19 21  1  0
 21 22  1  0
 22 23  1  0
  3  5  1  0
  5  6  2  0
  6  7  1  0
  6  8  1  0
  8  9  1  0
  9 10  2  0
  9 11  1  0
 11 12  1  0
 12 13  1  0
 13 14  1  0
 14 24  1  0
 24 25  1  0
 25 26  2  0
 26 27  1  0
 27 28  2  0
 28 29  1  0
 29 30  1  0
 29 31  2  0
 14 15  1  0
 15 16  1  0
  8  2  1  0
 16 11  1  0
 22 17  2  0
 31 25  1  0
M  CHG 1  18  -1
M  CHG 1  21  -1
M  CHG 1  23  -1
M  END
> <UniqueID>
35

> <SMILES>
C=c1/c(=C/c2[n-]c(=O)[n-]c2[O-])cc(C)n1C(=O)N1CCN(Cc2cccc(F)c2)CC1

> <Energy>
131.21276087210583

> <Genealogy>
C=c1c(=Cc2[n-]c(=O)[n-]c2[O-])cc(C)n1C(=O)N1CCN(Cc2cccc(F)c2)CC1 (protonated)
C=c1/c(=C/c2[n-]c(=O)[n-]c2[O-])cc(C)n1C(=O)N1CCN(Cc2cccc(F)c2)CC1 (cis-trans isomerization)
C=c1/c(=C/c2[n-]c(=O)[n-]c2[O-])cc(C)n1C(=O)N1CCN(Cc2cccc(F)c2)CC1 (3D coordinates assigned)
C=c1/c(=C/c2[n-]c(=O)[n-]c2[O-])cc(C)n1C(=O)N1CCN(Cc2cccc(F)c2)CC1 (nonaromatic ring conformer: 131.21276087210583 kcal/mol)

> <smiles>
C=c1c(=Cc2[nH]c(=O)[nH]c2O)cc(C)n1C(=O)N1CCN(Cc2cccc(F)c2)CC1

> <score_type>
oracle

> <origin>
adg

> <m_score__min__energy>
-17.77

> <m_primary>
energy

> <minimizedAffinity>
-6.16251

> <minimizedRMSD>
0.89098

> <CNNscore>
0.0258278158

> <CNNaffinity>
4.6928520203

> <CNN_VS>
0.1212061197

> <CNNaffinity_variance>
0.6697764993

$$$$
45:0


 34 37  0  0  0  0  0  0  0  0999 V2000
   64.0100   32.9782   50.3961 C   0  0  0  0  0  0  0  0  0  0  0  0
   65.0752   33.1269   49.7371 O   0  0  0  0  0  0  0  0  0  0  0  0
   62.7297   32.9828   49.7241 N   0  0  0  0  0  0  0  0  0  0  0  0
   62.6615   33.2019   48.2739 C   0  0  0  0  0  0  0  0  0  0  0  0
   61.5411   32.3581   47.6602 C   0  0  0  0  0  0  0  0  0  0  0  0
   60.2691   32.5580   48.3699 N   0  0  0  0  0  0  0  0  0  0  0  0
   59.0290   32.3300   47.6708 C   0  0  0  0  0  0  0  0  0  0  0  0
   58.0145   33.0230   47.9515 O   0  0  0  0  0  0  0  0  0  0  0  0
   60.2461   33.2246   49.6773 C   0  0  0  0  0  0  0  0  0  0  0  0
   61.4872   32.8611   50.5056 C   0  0  0  0  0  0  0  0  0  0  0  0
   64.7344   30.4550   51.6671 O   0  0  0  0  0  0  0  0  0  0  0  0
   64.4757   31.5868   52.4417 C   0  0  0  0  0  0  0  0  0  0  0  0
   64.5792   31.4867   53.8338 C   0  0  0  0  0  0  0  0  0  0  0  0
   64.3243   32.5969   54.6456 C   0  0  0  0  0  0  0  0  0  0  0  0
   64.4276   32.4886   55.9931 F   0  0  0  0  0  0  0  0  0  0  0  0
   63.9684   33.8184   54.0680 C   0  0  0  0  0  0  0  0  0  0  0  0
   63.8673   33.9318   52.6787 C   0  0  0  0  0  0  0  0  0  0  0  0
   64.1104   32.8205   51.8574 C   0  0  0  0  0  0  0  0  0  0  0  0
   64.9748   29.6493   52.0806 H   0  0  0  0  0  0  0  0  0  0  0  0
   58.9244   31.2969   46.6209 C   0  0  0  0  0  0  0  0  0  0  0  0
   59.3969   30.0045   46.7542 C   0  0  0  0  0  0  0  0  0  0  0  0
   59.0830   29.3373   45.5836 C   0  0  0  0  0  0  0  0  0  0  0  0
   59.4381   28.0575   45.3571 C   0  0  0  0  0  0  0  0  0  0  0  0
   58.3735   30.2552   44.7876 C   0  0  0  0  0  0  0  0  0  0  0  0
   57.7099   29.9953   43.6522 C   0  0  0  0  0  0  0  0  0  0  0  0
   58.3239   31.4574   45.4196 N   0  0  0  0  0  0  0  0  0  0  0  0
   57.6960   32.6870   44.9185 C   0  0  0  0  0  0  0  0  0  0  0  0
   58.5952   26.8814   45.6242 C   0  0  0  0  0  0  0  0  0  0  0  0
   59.0619   25.6475   45.8911 N   0  0  0  0  0  0  0  0  0  0  0  0
   57.9368   24.9412   46.1453 C   0  0  0  0  0  0  0  0  0  0  0  0
   57.9564   23.7153   46.4292 O   0  0  0  0  0  0  0  0  0  0  0  0
   56.7914   25.6535   46.0790 N   0  0  0  0  0  0  0  0  0  0  0  0
   57.2279   26.8832   45.7588 C   0  0  0  0  0  0  0  0  0  0  0  0
   56.3932   27.9833   45.5832 O   0  0  0  0  0  0  0  0  0  0  0  0
 11 12  1  0
 12 13  2  0
 13 14  1  0
 14 15  1  0
 14 16  2  0
 16 17  1  0
 17 18  2  0
 18  1  1  0
  1  2  2  0
  1  3  1  0
  3  4  1  0
  4  5  1  0
  5  6  1  0
  6  7  1  0
  7  8  2  0
  7 20  1  0
 20 21  2  0
 21 22  1  0
 22 23  2  0
 23 28  1  0
 28 29  1  0
 29 30  1  0
 30 31  2  0
 30 32  1  0
 32 33  1  0
 33 34  1  0
 22 24  1  0
 24 25  2  0
 24 26  1  0
 26 27  1  0
  6  9  1  0
  9 10  1  0
 18 12  1  0
 10  3  1  0
 26 20  1  0
 33 28  2  0
 11 19  1  0
M  CHG 1  29  -1
M  CHG 1  32  -1
M  CHG 1  34  -1
M  END
> <UniqueID>
41

> <SMILES>
C=c1/c(=C\c2[n-]c(=O)[n-]c2[O-])cc(C(=O)N2CCN(C(=O)c3ccc(F)cc3O)CC2)n1C

> <Energy>
138.21063613672678

> <Genealogy>
C=c1c(=Cc2[n-]c(=O)[n-]c2[O-])cc(C(=O)N2CCN(C(=O)c3ccc(F)cc3O)CC2)n1C (protonated)
C=c1/c(=C\c2[n-]c(=O)[n-]c2[O-])cc(C(=O)N2CCN(C(=O)c3ccc(F)cc3O)CC2)n1C (cis-trans isomerization)
C=c1/c(=C\c2[n-]c(=O)[n-]c2[O-])cc(C(=O)N2CCN(C(=O)c3ccc(F)cc3O)CC2)n1C (3D coordinates assigned)
C=c1/c(=C\c2[n-]c(=O)[n-]c2[O-])cc(C(=O)N2CCN(C(=O)c3ccc(F)cc3O)CC2)n1C (nonaromatic ring conformer: 138.21063613672678 kcal/mol)

> <smiles>
C=c1c(=Cc2[nH]c(=O)[nH]c2O)cc(C(=O)N2CCN(C(=O)c3ccc(F)cc3O)CC2)n1C

> <score_type>
oracle

> <origin>
adg

> <m_score__min__energy>
-17.170000000000002

> <m_primary>
energy

> <minimizedAffinity>
-7.51266

> <minimizedRMSD>
1.11665

> <CNNscore>
0.1490358412

> <CNNaffinity>
6.2967567444

> <CNN_VS>
0.9384424090

> <CNNaffinity_variance>
0.1713895351

$$$$
46:0


 26 28  0  0  0  0  0  0  0  0999 V2000
   59.6401   30.5435   47.6232 C   0  0  0  0  0  0  0  0  0  0  0  0
   59.2117   30.5106   46.3524 C   0  0  0  0  0  0  0  0  0  0  0  0
   59.2226   29.4011   45.4991 C   0  0  0  0  0  0  0  0  0  0  0  0
   59.6609   28.1589   45.7840 C   0  0  0  0  0  0  0  0  0  0  0  0
   58.6273   29.8163   44.3134 C   0  0  0  0  0  0  0  0  0  0  0  0
   58.3006   31.1474   44.4805 C   0  0  0  0  0  0  0  0  0  0  0  0
   57.6064   31.9941   43.4578 C   0  0  0  0  0  0  0  0  0  0  0  0
   58.6569   31.5696   45.7136 N   0  0  0  0  0  0  0  0  0  0  0  0
   58.4763   32.9017   46.2193 C   0  0  0  0  0  0  0  0  0  0  0  0
   57.3419   33.2551   46.6422 O   0  0  0  0  0  0  0  0  0  0  0  0
   58.7898   26.9699   45.8542 C   0  0  0  0  0  0  0  0  0  0  0  0
   59.1947   25.7105   46.1010 N   0  0  0  0  0  0  0  0  0  0  0  0
   58.0540   24.9964   46.1784 C   0  0  0  0  0  0  0  0  0  0  0  0
   58.0339   23.7580   46.4052 O   0  0  0  0  0  0  0  0  0  0  0  0
   56.9325   25.7279   46.0081 N   0  0  0  0  0  0  0  0  0  0  0  0
   57.4134   26.9713   45.8171 C   0  0  0  0  0  0  0  0  0  0  0  0
   56.6105   28.0871   45.6167 O   0  0  0  0  0  0  0  0  0  0  0  0
   60.1178   25.3836   46.2023 H   0  0  0  0  0  0  0  0  0  0  0  0
   59.5844   33.9116   46.1063 C   0  0  0  0  0  0  0  0  0  0  0  0
   60.5988   33.7590   47.2126 C   0  0  0  0  0  0  0  0  0  0  0  0
   61.9167   33.3681   46.9249 C   0  0  0  0  0  0  0  0  0  0  0  0
   62.8499   33.2198   47.9560 C   0  0  0  0  0  0  0  0  0  0  0  0
   62.4756   33.4620   49.2812 C   0  0  0  0  0  0  0  0  0  0  0  0
   63.6463   33.2743   50.5739 Cl  0  0  0  0  0  0  0  0  0  0  0  0
   61.1665   33.8566   49.5751 C   0  0  0  0  0  0  0  0  0  0  0  0
   60.2314   34.0074   48.5467 C   0  0  0  0  0  0  0  0  0  0  0  0
  1  2  2  0
  2  3  1  0
  3  4  2  0
  4 11  1  0
 11 12  1  0
 12 13  1  0
 13 14  2  0
 13 15  1  0
 15 16  1  0
 16 17  1  0
  3  5  1  0
  5  6  2  0
  6  7  1  0
  6  8  1  0
  8  9  1  0
  9 10  2  0
  9 19  1  0
 19 20  1  0
 20 21  2  0
 21 22  1  0
 22 23  2  0
 23 24  1  0
 23 25  1  0
 25 26  2  0
  8  2  1  0
 26 20  1  0
 16 11  2  0
 12 18  1  0
M  CHG 1  15  -1
M  CHG 1  17  -1
M  END
> <UniqueID>
42

> <SMILES>
C=c1c(=Cc2[nH]c(=O)[n-]c2[O-])cc(C)n1C(=O)Cc1ccc(Cl)cc1

> <Energy>
111.46297281396532

> <Genealogy>
C=c1c(=Cc2[nH]c(=O)[n-]c2[O-])cc(C)n1C(=O)Cc1ccc(Cl)cc1 (protonated)
C=c1c(=Cc2[nH]c(=O)[n-]c2[O-])cc(C)n1C(=O)Cc1ccc(Cl)cc1 (3D coordinates assigned)
C=c1c(=Cc2[nH]c(=O)[n-]c2[O-])cc(C)n1C(=O)Cc1ccc(Cl)cc1 (optimized conformer: 111.46297281396532 kcal/mol)

> <smiles>
C=c1c(=Cc2[nH]c(=O)[nH]c2O)cc(C)n1C(=O)Cc1ccc(Cl)cc1

> <score_type>
oracle

> <origin>
adg

> <m_score__min__energy>
-14.109999999999999

> <m_primary>
energy

> <minimizedAffinity>
-8.64775

> <minimizedRMSD>
1.32955

> <CNNscore>
0.2994461060

> <CNNaffinity>
6.3883380890

> <CNN_VS>
1.9129629135

> <CNNaffinity_variance>
0.2539349794

$$$$
65:0


 25 26  0  0  0  0  0  0  0  0999 V2000
   60.5952   29.9592   48.6247 C   0  0  0  0  0  0  0  0  0  0  0  0
   60.3898   28.6022   48.8922 C   0  0  0  0  0  0  0  0  0  0  0  0
   60.1023   27.7091   47.8569 C   0  0  0  0  0  0  0  0  0  0  0  0
   60.0191   28.1633   46.5314 C   0  0  0  0  0  0  0  0  0  0  0  0
   60.2201   29.5258   46.2599 C   0  0  0  0  0  0  0  0  0  0  0  0
   60.5079   30.4191   47.2966 C   0  0  0  0  0  0  0  0  0  0  0  0
   60.8807   30.8146   49.7000 O   0  0  0  0  0  0  0  0  0  0  0  0
   62.1713   30.9736   50.2834 C   0  0  0  0  0  0  0  0  0  0  0  0
   63.0768   31.7655   49.3430 C   0  0  0  0  0  0  0  0  0  0  0  0
   62.5558   33.1138   49.1368 N   0  0  0  0  0  0  0  0  0  0  0  0
   59.8098   33.9907   49.1580 C   0  0  0  0  0  0  0  0  0  0  0  0
   60.5807   34.0048   47.9121 N   0  0  0  0  0  0  0  0  0  0  0  0
   59.9708   34.4593   46.6596 C   0  0  0  0  0  0  0  0  0  0  0  0
   61.9494   33.5605   47.9167 C   0  0  0  0  0  0  0  0  0  0  0  0
   62.6207   33.5699   46.8474 O   0  0  0  0  0  0  0  0  0  0  0  0
   59.6756   27.2083   45.4187 C   0  0  0  0  0  0  0  0  0  0  0  0
   58.4297   26.4222   45.7586 C   0  0  0  0  0  0  0  0  0  0  0  0
   57.1653   27.0396   45.7782 C   0  0  0  0  0  0  0  0  0  0  0  0
   57.0331   28.3990   45.5227 O   0  0  0  0  0  0  0  0  0  0  0  0
   56.0547   26.3066   46.0529 N   0  0  0  0  0  0  0  0  0  0  0  0
   56.1364   24.9763   46.3078 C   0  0  0  0  0  0  0  0  0  0  0  0
   55.0950   24.3193   46.5602 O   0  0  0  0  0  0  0  0  0  0  0  0
   57.3426   24.3551   46.2879 N   0  0  0  0  0  0  0  0  0  0  0  0
   58.4840   25.0393   46.0198 C   0  0  0  0  0  0  0  0  0  0  0  0
   59.5829   24.4243   46.0095 O   0  0  0  0  0  0  0  0  0  0  0  0
 11 12  1  0
 12 13  1  0
 12 14  1  0
 14 15  2  0
 14 10  1  0
 10  9  1  0
  9  8  1  0
  8  7  1  0
  7  1  1  0
  1  2  2  0
  2  3  1  0
  3  4  2  0
  4 16  1  0
 16 17  1  0
 17 18  2  0
 18 19  1  0
 18 20  1  0
 20 21  1  0
 21 22  2  0
 21 23  1  0
 23 24  1  0
 24 25  2  0
  4  5  1  0
  5  6  2  0
  6  1  1  0
 24 17  1  0
M  CHG 1  10  -1
M  CHG 1  19  -1
M  CHG 1  20  -1
M  CHG 1  23  -1
M  END
> <UniqueID>
59

> <SMILES>
CN(C)C(=O)[N-]CCOc1ccc(Cc2c([O-])[n-]c(=O)[n-]c2=O)cc1

> <Energy>
35.245322429094124

> <Genealogy>
CN(C)C(=O)[N-]CCOc1ccc(Cc2c([O-])[n-]c(=O)[n-]c2=O)cc1 (protonated)
CN(C)C(=O)[N-]CCOc1ccc(Cc2c([O-])[n-]c(=O)[n-]c2=O)cc1 (3D coordinates assigned)
CN(C)C(=O)[N-]CCOc1ccc(Cc2c([O-])[n-]c(=O)[n-]c2=O)cc1 (optimized conformer: 35.245322429094124 kcal/mol)

> <smiles>
CN(C)C(=O)NCCOc1ccc(Cc2c(O)[nH]c(=O)[nH]c2=O)cc1

> <score_type>
oracle

> <origin>
adg

> <m_score__min__energy>
-15.039999999999999

> <m_primary>
energy

> <minimizedAffinity>
-6.32780

> <minimizedRMSD>
1.19834

> <CNNscore>
0.1945636719

> <CNNaffinity>
6.2518501282

> <CNN_VS>
1.2163828611

> <CNNaffinity_variance>
0.8007170558

$$$$
80:0


 34 37  0  0  0  0  0  0  0  0999 V2000
   60.4258   27.6112   48.7473 C   0  0  0  0  0  0  0  0  0  0  0  0
   61.2266   26.6746   49.0092 O   0  0  0  0  0  0  0  0  0  0  0  0
   59.7158   27.6316   47.4462 C   0  0  0  0  0  0  0  0  0  0  0  0
   60.2534   28.3326   46.3522 C   0  0  0  0  0  0  0  0  0  0  0  0
   59.5610   28.3931   45.1414 C   0  0  0  0  0  0  0  0  0  0  0  0
   58.3327   27.7462   45.0005 C   0  0  0  0  0  0  0  0  0  0  0  0
   57.7920   27.0124   46.0683 C   0  0  0  0  0  0  0  0  0  0  0  0
   58.4821   26.9692   47.2906 C   0  0  0  0  0  0  0  0  0  0  0  0
   56.4642   26.3134   45.9188 C   0  0  0  0  0  0  0  0  0  0  0  0
   56.2098   25.4463   47.0648 N   0  0  0  0  0  0  0  0  0  0  0  0
   56.6913   24.1006   47.1738 C   0  0  0  0  0  0  0  0  0  0  0  0
   57.0052   23.6358   48.3046 O   0  0  0  0  0  0  0  0  0  0  0  0
   56.8243   23.2567   45.9642 C   0  0  0  0  0  0  0  0  0  0  0  0
   58.0887   22.9908   45.4085 C   0  0  0  0  0  0  0  0  0  0  0  0
   58.2042   22.1823   44.2754 C   0  0  0  0  0  0  0  0  0  0  0  0
   57.0508   21.6393   43.7038 C   0  0  0  0  0  0  0  0  0  0  0  0
   57.1363   20.9034   42.6834 O   0  0  0  0  0  0  0  0  0  0  0  0
   55.8337   21.9031   44.2459 N   0  0  0  0  0  0  0  0  0  0  0  0
   55.6939   22.6881   45.3487 C   0  0  0  0  0  0  0  0  0  0  0  0
   60.2493   28.6895   49.6743 N   0  0  0  0  0  0  0  0  0  0  0  0
   60.0855   32.8057   48.6288 C   0  0  0  0  0  0  0  0  0  0  0  0
   59.0926   32.2578   49.4556 C   0  0  0  0  0  0  0  0  0  0  0  0
   59.1348   30.9074   49.8122 C   0  0  0  0  0  0  0  0  0  0  0  0
   60.1833   30.0877   49.3567 C   0  0  0  0  0  0  0  0  0  0  0  0
   61.1635   30.6336   48.5193 C   0  0  0  0  0  0  0  0  0  0  0  0
   61.1226   31.9851   48.1652 C   0  0  0  0  0  0  0  0  0  0  0  0
   60.0636   34.2690   48.2618 C   0  0  0  0  0  0  0  0  0  0  0  0
   58.0576   32.2302   43.9519 C   0  0  0  0  0  0  0  0  0  0  0  0
   58.0690   33.5239   44.6541 N   0  0  0  0  0  0  0  0  0  0  0  0
   59.4610   33.9589   44.9049 C   0  0  0  0  0  0  0  0  0  0  0  0
   59.5166   35.0353   45.9976 C   0  0  0  0  0  0  0  0  0  0  0  0
   58.9796   34.5510   47.2970 N   0  0  0  0  0  0  0  0  0  0  0  0
   58.0664   33.3903   47.1597 C   0  0  0  0  0  0  0  0  0  0  0  0
   57.2280   33.4850   45.8764 C   0  0  0  0  0  0  0  0  0  0  0  0
 28 29  1  0
 29 30  1  0
 30 31  1  0
 31 32  1  0
 32 27  1  0
 27 21  1  0
 21 22  2  0
 22 23  1  0
 23 24  2  0
 24 20  1  0
 20  1  1  0
  1  2  2  0
  1  3  1  0
  3  4  2  0
  4  5  1  0
  5  6  2  0
  6  7  1  0
  7  9  1  0
  9 10  1  0
 10 11  1  0
 11 12  2  0
 11 13  1  0
 13 14  1  0
 14 15  2  0
 15 16  1  0
 16 17  2  0
 16 18  1  0
 18 19  1  0
  7  8  2  0
 24 25  1  0
 25 26  2  0
 32 33  1  0
 33 34  1  0
 34 29  1  0
 26 21  1  0
  8  3  1  0
 19 13  2  0
M  CHG 1  10  -1
M  CHG 1  18  -1
M  CHG 1  20  -1
M  END
> <UniqueID>
74

> <SMILES>
CN1CCN(Cc2ccc([N-]C(=O)c3cccc(C[N-]C(=O)c4ccc(=O)[n-]c4)c3)cc2)CC1

> <Energy>
81.59606579409046

> <Genealogy>
CN1CCN(Cc2ccc([N-]C(=O)c3cccc(C[N-]C(=O)c4ccc(=O)[n-]c4)c3)cc2)CC1 (protonated)
CN1CCN(Cc2ccc([N-]C(=O)c3cccc(C[N-]C(=O)c4ccc(=O)[n-]c4)c3)cc2)CC1 (3D coordinates assigned)
CN1CCN(Cc2ccc([N-]C(=O)c3cccc(C[N-]C(=O)c4ccc(=O)[n-]c4)c3)cc2)CC1 (nonaromatic ring conformer: 81.59606579409046 kcal/mol)

> <smiles>
CN1CCN(Cc2ccc(NC(=O)c3cccc(CNC(=O)c4ccc(=O)[nH]c4)c3)cc2)CC1

> <score_type>
oracle

> <origin>
adg

> <m_score__min__energy>
-16.370000000000001

> <m_primary>
energy

> <minimizedAffinity>
-7.33281

> <minimizedRMSD>
1.12433

> <CNNscore>
0.1700243503

> <CNNaffinity>
6.1517329216

> <CNN_VS>
1.0459444523

> <CNNaffinity_variance>
0.4074707925

$$$$
15:0


 36 40  0  0  0  0  0  0  0  0999 V2000
   59.6151   31.9193   47.8857 C   0  0  0  0  0  0  0  0  0  0  0  0
   59.5809   32.1476   49.2716 C   0  0  0  0  0  0  0  0  0  0  0  0
   60.7547   32.4484   49.9695 C   0  0  0  0  0  0  0  0  0  0  0  0
   61.9861   32.5228   49.2951 C   0  0  0  0  0  0  0  0  0  0  0  0
   62.0157   32.2976   47.9073 C   0  0  0  0  0  0  0  0  0  0  0  0
   60.8419   32.0034   47.2096 C   0  0  0  0  0  0  0  0  0  0  0  0
   63.2026   32.8163   50.0151 N   0  0  0  0  0  0  0  0  0  0  0  0
   64.5078   32.6379   49.3571 C   0  0  0  0  0  0  0  0  0  0  0  0
   65.5976   32.3135   50.3852 C   0  0  0  0  0  0  0  0  0  0  0  0
   65.6927   33.3735   51.5268 C   0  0  0  0  0  0  0  0  0  0  0  0
   64.3605   34.1549   51.7370 C   0  0  0  0  0  0  0  0  0  0  0  0
   63.1409   33.2865   51.4083 C   0  0  0  0  0  0  0  0  0  0  0  0
   66.8990   34.2494   51.3919 N   0  0  0  0  0  0  0  0  0  0  0  0
   67.1656   35.1023   52.5838 C   0  0  0  0  0  0  0  0  0  0  0  0
   68.5758   35.7109   52.5266 C   0  0  0  0  0  0  0  0  0  0  0  0
   69.6388   34.6756   52.4881 N   0  0  0  0  0  0  0  0  0  0  0  0
   70.3117   34.5448   53.7913 C   0  0  0  0  0  0  0  0  0  0  0  0
   69.1711   33.3536   52.0174 C   0  0  0  0  0  0  0  0  0  0  0  0
   68.1021   33.4975   50.9233 C   0  0  0  0  0  0  0  0  0  0  0  0
   66.6699   34.9121   50.6512 H   0  0  0  0  0  0  0  0  0  0  0  0
   58.3560   31.5622   47.1376 C   0  0  0  0  0  0  0  0  0  0  0  0
   58.7871   28.6865   47.9626 C   0  0  0  0  0  0  0  0  0  0  0  0
   58.7586   29.0817   46.6788 C   0  0  0  0  0  0  0  0  0  0  0  0
   58.8083   28.2523   45.5403 C   0  0  0  0  0  0  0  0  0  0  0  0
   58.9801   26.9220   45.4078 C   0  0  0  0  0  0  0  0  0  0  0  0
   58.6037   29.0800   44.4515 C   0  0  0  0  0  0  0  0  0  0  0  0
   58.4810   30.3642   44.9347 C   0  0  0  0  0  0  0  0  0  0  0  0
   58.1625   31.5511   44.0772 C   0  0  0  0  0  0  0  0  0  0  0  0
   58.5726   30.3762   46.2877 N   0  0  0  0  0  0  0  0  0  0  0  0
   58.0799   25.8796   45.9162 C   0  0  0  0  0  0  0  0  0  0  0  0
   58.5012   24.6762   46.3490 N   0  0  0  0  0  0  0  0  0  0  0  0
   57.3667   24.0949   46.7988 C   0  0  0  0  0  0  0  0  0  0  0  0
   57.3476   22.9290   47.2780 O   0  0  0  0  0  0  0  0  0  0  0  0
   56.2555   24.8640   46.7006 N   0  0  0  0  0  0  0  0  0  0  0  0
   56.7269   25.9963   46.1499 C   0  0  0  0  0  0  0  0  0  0  0  0
   55.9395   27.1116   45.8781 O   0  0  0  0  0  0  0  0  0  0  0  0
 22 23  2  0
 23 24  1  0
 24 25  2  0
 25 30  1  0
 30 31  1  0
 31 32  1  0
 32 33  2  0
 32 34  1  0
 34 35  1  0
 35 36  1  0
 24 26  1  0
 26 27  2  0
 27 28  1  0
 27 29  1  0
 29 21  1  0
 21  1  1  0
  1  2  2  0
  2  3  1  0
  3  4  2  0
  4  7  1  0
  7  8  1  0
  8  9  1  0
  9 10  1  0
 10 13  1  0
 13 14  1  0
 14 15  1  0
 15 16  1  0
 16 17  1  0
 16 18  1  0
 18 19  1  0
 10 11  1  0
 11 12  1  0
  4  5  1  0
  5  6  2  0
 29 23  1  0
  6  1  1  0
 35 30  2  0
 12  7  1  0
 19 13  1  0
 13 20  1  0
M  CHG 1  13   1
M  CHG 1  31  -1
M  CHG 1  34  -1
M  CHG 1  36  -1
M  END
> <UniqueID>
14

> <SMILES>
C=c1c(=Cc2[n-]c(=O)[n-]c2[O-])cc(C)n1Cc1ccc(N2CCC([NH+]3CCN(C)CC3)CC2)cc1

> <Energy>
166.8795198090631

> <Genealogy>
C=c1c(=Cc2[n-]c(=O)[n-]c2[O-])cc(C)n1Cc1ccc(N2CCC([NH+]3CCN(C)CC3)CC2)cc1 (protonated)
C=c1c(=Cc2[n-]c(=O)[n-]c2[O-])cc(C)n1Cc1ccc(N2CCC([NH+]3CCN(C)CC3)CC2)cc1 (3D coordinates assigned)
C=c1c(=Cc2[n-]c(=O)[n-]c2[O-])cc(C)n1Cc1ccc(N2CCC([NH+]3CCN(C)CC3)CC2)cc1 (nonaromatic ring conformer: 166.8795198090631 kcal/mol)

> <smiles>
C=c1c(=Cc2[nH]c(=O)[nH]c2O)cc(C)n1Cc1ccc(N2CCC(N3CCN(C)CC3)CC2)cc1

> <score_type>
oracle

> <origin>
adg

> <m_score__min__energy>
-15.220000000000001

> <m_primary>
energy

> <minimizedAffinity>
-7.41798

> <minimizedRMSD>
1.67095

> <CNNscore>
0.1739524007

> <CNNaffinity>
6.7967762947

> <CNN_VS>
1.1823155880

> <CNNaffinity_variance>
0.1620973796

$$$$
20:0


 32 35  0  0  0  0  0  0  0  0999 V2000
   59.7549   30.1531   53.1829 C   0  0  0  0  0  0  0  0  0  0  0  0
   57.4171   28.7037   54.4595 C   0  0  0  0  0  0  0  0  0  0  0  0
   57.2765   29.7600   53.6412 C   0  0  0  0  0  0  0  0  0  0  0  0
   56.0665   30.3401   53.2272 C   0  0  0  0  0  0  0  0  0  0  0  0
   54.8043   30.1593   53.6668 C   0  0  0  0  0  0  0  0  0  0  0  0
   56.3878   31.2469   52.2354 C   0  0  0  0  0  0  0  0  0  0  0  0
   57.7620   31.2493   52.1266 C   0  0  0  0  0  0  0  0  0  0  0  0
   58.5353   32.1599   51.2204 C   0  0  0  0  0  0  0  0  0  0  0  0
   58.3095   30.3525   52.9794 N   0  0  0  0  0  0  0  0  0  0  0  0
   53.5988   30.1459   52.8253 C   0  0  0  0  0  0  0  0  0  0  0  0
   53.6211   29.9308   51.4974 N   0  0  0  0  0  0  0  0  0  0  0  0
   52.3389   30.1318   51.1266 C   0  0  0  0  0  0  0  0  0  0  0  0
   51.9492   30.0058   49.9369 O   0  0  0  0  0  0  0  0  0  0  0  0
   51.5070   30.4914   52.1284 N   0  0  0  0  0  0  0  0  0  0  0  0
   52.3219   30.5110   53.1945 C   0  0  0  0  0  0  0  0  0  0  0  0
   51.9156   30.8819   54.4698 O   0  0  0  0  0  0  0  0  0  0  0  0
   60.2306   28.9414   52.4211 C   0  0  0  0  0  0  0  0  0  0  0  0
   60.4719   29.0170   51.0405 C   0  0  0  0  0  0  0  0  0  0  0  0
   60.9270   27.8970   50.3434 C   0  0  0  0  0  0  0  0  0  0  0  0
   61.1512   26.6929   51.0161 C   0  0  0  0  0  0  0  0  0  0  0  0
   60.9250   26.5998   52.3990 C   0  0  0  0  0  0  0  0  0  0  0  0
   60.4488   27.7253   53.0907 C   0  0  0  0  0  0  0  0  0  0  0  0
   61.1515   25.3583   53.0948 N   0  0  0  0  0  0  0  0  0  0  0  0
   60.3293   24.9984   54.2549 C   0  0  0  0  0  0  0  0  0  0  0  0
   60.3775   23.4810   54.4992 C   0  0  0  0  0  0  0  0  0  0  0  0
   60.4581   22.7218   53.2303 N   0  0  0  0  0  0  0  0  0  0  0  0
   61.7138   23.0215   52.4907 C   0  0  0  0  0  0  0  0  0  0  0  0
   62.2417   24.4572   52.7054 C   0  0  0  0  0  0  0  0  0  0  0  0
   59.2629   22.8688   52.3640 C   0  0  0  0  0  0  0  0  0  0  0  0
   58.3386   21.6461   52.4435 C   0  0  0  0  0  0  0  0  0  0  0  0
   59.0726   20.5043   52.7921 O   0  0  0  0  0  0  0  0  0  0  0  0
   59.7519   20.3388   52.1197 H   0  0  0  0  0  0  0  0  0  0  0  0
  2  3  2  0
  3  4  1  0
  4  5  2  0
  5 10  1  0
 10 11  1  0
 11 12  1  0
 12 13  2  0
 12 14  1  0
 14 15  1  0
 15 16  1  0
  4  6  1  0
  6  7  2  0
  7  8  1  0
  7  9  1  0
  9  1  1  0
  1 17  1  0
 17 18  2  0
 18 19  1  0
 19 20  2  0
 20 21  1  0
 21 23  1  0
 23 24  1  0
 24 25  1  0
 25 26  1  0
 26 29  1  0
 29 30  1  0
 30 31  1  0
 26 27  1  0
 27 28  1  0
 21 22  2  0
  9  3  1  0
 22 17  1  0
 15 10  2  0
 28 23  1  0
 31 32  1  0
M  CHG 1  11  -1
M  CHG 1  14  -1
M  CHG 1  16  -1
M  END
> <UniqueID>
18

> <SMILES>
C=c1c(=Cc2[n-]c(=O)[n-]c2[O-])cc(C)n1Cc1cccc(N2CCN(CCO)CC2)c1

> <Energy>
140.21353947663133

> <Genealogy>
C=c1c(=Cc2[n-]c(=O)[n-]c2[O-])cc(C)n1Cc1cccc(N2CCN(CCO)CC2)c1 (protonated)
C=c1c(=Cc2[n-]c(=O)[n-]c2[O-])cc(C)n1Cc1cccc(N2CCN(CCO)CC2)c1 (3D coordinates assigned)
C=c1c(=Cc2[n-]c(=O)[n-]c2[O-])cc(C)n1Cc1cccc(N2CCN(CCO)CC2)c1 (nonaromatic ring conformer: 140.21353947663133 kcal/mol)

> <smiles>
C=c1c(=Cc2[nH]c(=O)[nH]c2O)cc(C)n1Cc1cccc(N2CCN(CCO)CC2)c1

> <score_type>
oracle

> <origin>
adg

> <m_score__min__energy>
-16.41

> <m_primary>
energy

> <minimizedAffinity>
-5.07344

> <minimizedRMSD>
2.53201

> <CNNscore>
0.1900264621

> <CNNaffinity>
4.8219175339

> <CNN_VS>
0.9162919521

> <CNNaffinity_variance>
0.6080670357

$$$$
51:0


 34 37  0  0  0  0  0  0  0  0999 V2000
   59.6177   27.3142   47.6479 C   0  0  0  0  0  0  0  0  0  0  0  0
   60.7479   26.9517   48.0742 O   0  0  0  0  0  0  0  0  0  0  0  0
   58.9281   28.4043   48.2781 N   0  0  0  0  0  0  0  0  0  0  0  0
   57.9501   28.4555   48.1776 H   0  0  0  0  0  0  0  0  0  0  0  0
   57.5876   26.1194   43.4240 C   0  0  0  0  0  0  0  0  0  0  0  0
   58.1199   25.9647   44.6461 C   0  0  0  0  0  0  0  0  0  0  0  0
   57.9026   24.8946   45.5279 C   0  0  0  0  0  0  0  0  0  0  0  0
   57.3358   23.6875   45.3329 C   0  0  0  0  0  0  0  0  0  0  0  0
   58.4189   25.2892   46.7488 C   0  0  0  0  0  0  0  0  0  0  0  0
   58.9763   26.5385   46.5669 C   0  0  0  0  0  0  0  0  0  0  0  0
   58.8309   26.9349   45.2788 N   0  0  0  0  0  0  0  0  0  0  0  0
   59.3257   28.1843   44.6882 C   0  0  0  0  0  0  0  0  0  0  0  0
   55.9174   23.3591   45.5595 C   0  0  0  0  0  0  0  0  0  0  0  0
   55.4186   22.1101   45.6125 N   0  0  0  0  0  0  0  0  0  0  0  0
   54.1318   22.3052   45.9755 C   0  0  0  0  0  0  0  0  0  0  0  0
   53.3164   21.3564   46.1173 O   0  0  0  0  0  0  0  0  0  0  0  0
   53.7901   23.5942   46.1824 N   0  0  0  0  0  0  0  0  0  0  0  0
   54.9367   24.2458   45.9291 C   0  0  0  0  0  0  0  0  0  0  0  0
   55.0854   25.6220   46.0376 O   0  0  0  0  0  0  0  0  0  0  0  0
   59.5857   29.4261   49.0481 C   0  0  0  0  0  0  0  0  0  0  0  0
   60.0474   29.1272   50.3383 C   0  0  0  0  0  0  0  0  0  0  0  0
   60.6816   30.1061   51.1068 C   0  0  0  0  0  0  0  0  0  0  0  0
   60.8499   31.3960   50.5974 C   0  0  0  0  0  0  0  0  0  0  0  0
   60.3730   31.7171   49.3200 C   0  0  0  0  0  0  0  0  0  0  0  0
   59.7338   30.7342   48.5528 C   0  0  0  0  0  0  0  0  0  0  0  0
   60.5810   33.3465   48.6723 S   0  0  0  0  0  0  0  0  0  0  0  0
   62.0488   33.6387   48.5169 O   0  0  0  0  0  0  0  0  0  0  0  0
   60.0091   34.3394   49.6444 O   0  0  0  0  0  0  0  0  0  0  0  0
   59.7868   33.5269   47.1260 N   0  0  0  0  0  0  0  0  0  0  0  0
   59.9168   34.9104   46.6416 C   0  0  0  0  0  0  0  0  0  0  0  0
   59.4436   35.0114   45.1790 C   0  0  0  0  0  0  0  0  0  0  0  0
   58.4459   33.9006   44.8069 C   0  0  0  0  0  0  0  0  0  0  0  0
   57.5436   33.5495   45.9938 C   0  0  0  0  0  0  0  0  0  0  0  0
   58.3658   33.1357   47.2346 C   0  0  0  0  0  0  0  0  0  0  0  0
  5  6  2  0
  6  7  1  0
  7  8  2  0
  8 13  1  0
 13 14  1  0
 14 15  1  0
 15 16  2  0
 15 17  1  0
 17 18  1  0
 18 19  1  0
  7  9  1  0
  9 10  2  0
 10  1  1  0
  1  2  2  0
  1  3  1  0
  3 20  1  0
 20 21  2  0
 21 22  1  0
 22 23  2  0
 23 24  1  0
 24 26  1  0
 26 27  2  0
 26 28  2  0
 26 29  1  0
 29 30  1  0
 30 31  1  0
 31 32  1  0
 32 33  1  0
 33 34  1  0
 24 25  2  0
 10 11  1  0
 11 12  1  0
 11  6  1  0
 18 13  2  0
 25 20  1  0
 34 29  1  0
  3  4  1  0
M  CHG 1  14  -1
M  CHG 1  17  -1
M  CHG 1  19  -1
M  END
> <UniqueID>
49

> <SMILES>
C=c1c(=Cc2[n-]c(=O)[n-]c2[O-])cc(C(=O)Nc2cccc(S(=O)(=O)N3CCCCC3)c2)n1C

> <Energy>
135.85431070326482

> <Genealogy>
C=c1c(=Cc2[n-]c(=O)[n-]c2[O-])cc(C(=O)Nc2cccc(S(=O)(=O)N3CCCCC3)c2)n1C (protonated)
C=c1c(=Cc2[n-]c(=O)[n-]c2[O-])cc(C(=O)Nc2cccc(S(=O)(=O)N3CCCCC3)c2)n1C (3D coordinates assigned)
C=c1c(=Cc2[n-]c(=O)[n-]c2[O-])cc(C(=O)Nc2cccc(S(=O)(=O)N3CCCCC3)c2)n1C (nonaromatic ring conformer: 135.85431070326482 kcal/mol)

> <smiles>
C=c1c(=Cc2[nH]c(=O)[nH]c2O)cc(C(=O)Nc2cccc(S(=O)(=O)N3CCCCC3)c2)n1C

> <score_type>
oracle

> <origin>
adg

> <m_score__min__energy>
-20.030000000000001

> <m_primary>
energy

> <minimizedAffinity>
-8.24644

> <minimizedRMSD>
0.80095

> <CNNscore>
0.1236796081

> <CNNaffinity>
6.3924503326

> <CNN_VS>
0.7906157374

> <CNNaffinity_variance>
0.0572637655

$$$$
58:0


 25 26  0  0  0  0  0  0  0  0999 V2000
   58.5138   28.0162   45.8172 C   0  0  0  0  0  0  0  0  0  0  0  0
   58.2471   29.3880   45.6974 C   0  0  0  0  0  0  0  0  0  0  0  0
   57.0412   29.8033   45.1400 O   0  0  0  0  0  0  0  0  0  0  0  0
   59.1934   30.3334   46.1362 C   0  0  0  0  0  0  0  0  0  0  0  0
   60.4154   29.8710   46.6488 C   0  0  0  0  0  0  0  0  0  0  0  0
   60.6721   28.5392   46.7146 N   0  0  0  0  0  0  0  0  0  0  0  0
   59.7676   27.6091   46.3108 C   0  0  0  0  0  0  0  0  0  0  0  0
   60.0797   26.3902   46.3578 O   0  0  0  0  0  0  0  0  0  0  0  0
   58.9197   31.7891   46.0771 C   0  0  0  0  0  0  0  0  0  0  0  0
   58.2471   32.3451   44.9737 C   0  0  0  0  0  0  0  0  0  0  0  0
   57.9801   33.7172   44.9276 C   0  0  0  0  0  0  0  0  0  0  0  0
   58.3776   34.5439   45.9810 C   0  0  0  0  0  0  0  0  0  0  0  0
   59.0406   33.9995   47.0847 C   0  0  0  0  0  0  0  0  0  0  0  0
   59.3084   32.6286   47.1352 C   0  0  0  0  0  0  0  0  0  0  0  0
   57.5152   27.0735   45.3918 N   0  0  0  0  0  0  0  0  0  0  0  0
   56.8079   26.1599   46.2417 C   0  0  0  0  0  0  0  0  0  0  0  0
   57.0514   26.1642   47.4764 O   0  0  0  0  0  0  0  0  0  0  0  0
   55.7895   25.2266   45.7192 C   0  0  0  0  0  0  0  0  0  0  0  0
   55.8997   23.8845   45.7450 C   0  0  0  0  0  0  0  0  0  0  0  0
   55.8810   23.1023   47.0361 C   0  0  0  0  0  0  0  0  0  0  0  0
   55.9843   23.1392   44.4654 C   0  0  0  0  0  0  0  0  0  0  0  0
   55.0699   23.2865   43.6070 O   0  0  0  0  0  0  0  0  0  0  0  0
   57.0774   22.2435   44.1837 N   0  0  0  0  0  0  0  0  0  0  0  0
   56.8429   21.0731   43.3376 C   0  0  0  0  0  0  0  0  0  0  0  0
   58.4171   22.4806   44.7292 C   0  0  0  0  0  0  0  0  0  0  0  0
 18 16  1  0
 16 17  2  0
 16 15  1  0
 15  1  1  0
  1  2  2  0
  2  3  1  0
  2  4  1  0
  4  9  1  0
  9 10  2  0
 10 11  1  0
 11 12  2  0
 12 13  1  0
 13 14  2  0
  4  5  2  0
  5  6  1  0
  6  7  1  0
  7  8  2  0
 18 19  2  0
 19 21  1  0
 21 22  2  0
 21 23  1  0
 23 24  1  0
 23 25  1  0
 19 20  1  0
  7  1  1  0
 14  9  1  0
M  CHG 1   3  -1
M  CHG 1   6  -1
M  CHG 1  15  -1
M  END
> <UniqueID>
55

> <SMILES>
C/C(=C\C(=O)[N-]c1c([O-])c(-c2ccccc2)c[n-]c1=O)C(=O)N(C)C

> <Energy>
60.91162010669236

> <Genealogy>
CC(=CC(=O)[N-]c1c([O-])c(-c2ccccc2)c[n-]c1=O)C(=O)N(C)C (protonated)
C/C(=C\C(=O)[N-]c1c([O-])c(-c2ccccc2)c[n-]c1=O)C(=O)N(C)C (cis-trans isomerization)
C/C(=C\C(=O)[N-]c1c([O-])c(-c2ccccc2)c[n-]c1=O)C(=O)N(C)C (3D coordinates assigned)
C/C(=C\C(=O)[N-]c1c([O-])c(-c2ccccc2)c[n-]c1=O)C(=O)N(C)C (optimized conformer: 60.91162010669236 kcal/mol)

> <smiles>
CC(=CC(=O)Nc1c(O)c(-c2ccccc2)c[nH]c1=O)C(=O)N(C)C

> <score_type>
oracle

> <origin>
adg

> <m_score__min__energy>
-15.01

> <m_primary>
energy

> <minimizedAffinity>
-7.03672

> <minimizedRMSD>
2.00832

> <CNNscore>
0.5816951990

> <CNNaffinity>
6.6749968529

> <CNN_VS>
3.8828136921

> <CNNaffinity_variance>
0.6297670007

$$$$
72:0


 31 34  0  0  0  0  0  0  0  0999 V2000
   57.3290   28.3495   43.1468 C   0  0  0  0  0  0  0  0  0  0  0  0
   57.5911   29.4272   43.9070 C   0  0  0  0  0  0  0  0  0  0  0  0
   56.9746   30.6399   43.5392 C   0  0  0  0  0  0  0  0  0  0  0  0
   57.3780   31.8482   44.1003 C   0  0  0  0  0  0  0  0  0  0  0  0
   58.4312   31.8819   45.0179 C   0  0  0  0  0  0  0  0  0  0  0  0
   58.9955   30.6818   45.4626 C   0  0  0  0  0  0  0  0  0  0  0  0
   58.5475   29.4323   44.9763 C   0  0  0  0  0  0  0  0  0  0  0  0
   59.0494   28.3264   45.5849 C   0  0  0  0  0  0  0  0  0  0  0  0
   58.2877   27.1308   45.9880 C   0  0  0  0  0  0  0  0  0  0  0  0
   56.9436   27.0872   46.0268 N   0  0  0  0  0  0  0  0  0  0  0  0
   56.6806   25.7986   46.3358 C   0  0  0  0  0  0  0  0  0  0  0  0
   55.5090   25.3614   46.4779 O   0  0  0  0  0  0  0  0  0  0  0  0
   57.7707   25.0127   46.4692 N   0  0  0  0  0  0  0  0  0  0  0  0
   58.7798   25.8676   46.2319 C   0  0  0  0  0  0  0  0  0  0  0  0
   60.1201   25.4942   46.2099 O   0  0  0  0  0  0  0  0  0  0  0  0
   60.3623   24.6070   46.3893 H   0  0  0  0  0  0  0  0  0  0  0  0
   58.8620   33.1555   45.6264 C   0  0  0  0  0  0  0  0  0  0  0  0
   59.0619   33.3490   46.9447 C   0  0  0  0  0  0  0  0  0  0  0  0
   58.1349   32.8376   48.0203 C   0  0  0  0  0  0  0  0  0  0  0  0
   58.9324   32.1570   49.1500 C   0  0  0  0  0  0  0  0  0  0  0  0
   60.2567   32.7803   49.4387 N   0  0  0  0  0  0  0  0  0  0  0  0
   60.3853   34.1584   48.9137 C   0  0  0  0  0  0  0  0  0  0  0  0
   60.2194   34.2048   47.3866 C   0  0  0  0  0  0  0  0  0  0  0  0
   61.3869   31.9223   49.0215 C   0  0  0  0  0  0  0  0  0  0  0  0
   61.2683   30.5605   49.6507 C   0  0  0  0  0  0  0  0  0  0  0  0
   61.6987   30.3407   50.9703 C   0  0  0  0  0  0  0  0  0  0  0  0
   61.5951   29.0679   51.5416 C   0  0  0  0  0  0  0  0  0  0  0  0
   61.0648   28.0087   50.8011 C   0  0  0  0  0  0  0  0  0  0  0  0
   60.6353   28.2196   49.4868 C   0  0  0  0  0  0  0  0  0  0  0  0
   60.1218   27.1906   48.7681 F   0  0  0  0  0  0  0  0  0  0  0  0
   60.7360   29.4906   48.9129 C   0  0  0  0  0  0  0  0  0  0  0  0
  1  2  2  0
  2  3  1  0
  3  4  2  0
  4  5  1  0
  5 17  1  0
 17 18  2  0
 18 19  1  0
 19 20  1  0
 20 21  1  0
 21 24  1  0
 24 25  1  0
 25 26  2  0
 26 27  1  0
 27 28  2  0
 28 29  1  0
 29 30  1  0
 29 31  2  0
 21 22  1  0
 22 23  1  0
  5  6  2  0
  6  7  1  0
  7  8  2  0
  8  9  1  0
  9 10  1  0
 10 11  1  0
 11 12  2  0
 11 13  1  0
 13 14  1  0
 14 15  1  0
  7  2  1  0
 14  9  2  0
 23 18  1  0
 31 25  1  0
 15 16  1  0
M  CHG 1  10  -1
M  CHG 1  13  -1
M  END
> <UniqueID>
69

> <SMILES>
C=c1ccc(C=C2CCN(Cc3cccc(F)c3)CC2)cc1=Cc1[n-]c(=O)[n-]c1O

> <Energy>
119.86775503186867

> <Genealogy>
C=c1ccc(C=C2CCN(Cc3cccc(F)c3)CC2)cc1=Cc1[n-]c(=O)[n-]c1O (protonated)
C=c1ccc(C=C2CCN(Cc3cccc(F)c3)CC2)cc1=Cc1[n-]c(=O)[n-]c1O (3D coordinates assigned)
C=c1ccc(C=C2CCN(Cc3cccc(F)c3)CC2)cc1=Cc1[n-]c(=O)[n-]c1O (nonaromatic ring conformer: 119.86775503186867 kcal/mol)

> <smiles>
C=c1ccc(C=C2CCN(Cc3cccc(F)c3)CC2)cc1=Cc1[nH]c(=O)[nH]c1O

> <score_type>
oracle

> <origin>
adg

> <m_score__min__energy>
-14.44

> <m_primary>
energy

> <minimizedAffinity>
-7.50969

> <minimizedRMSD>
1.16043

> <CNNscore>
0.0993863419

> <CNNaffinity>
6.5354499817

> <CNN_VS>
0.6495344639

> <CNNaffinity_variance>
0.0110979928

$$$$
73:0


 24 26  0  0  0  0  0  0  0  0999 V2000
   60.1604   30.1925   48.8227 C   0  0  0  0  0  0  0  0  0  0  0  0
   59.5778   30.8359   47.7986 C   0  0  0  0  0  0  0  0  0  0  0  0
   59.3298   30.3095   46.5260 C   0  0  0  0  0  0  0  0  0  0  0  0
   59.6483   29.0818   46.0737 C   0  0  0  0  0  0  0  0  0  0  0  0
   58.7441   31.3295   45.7892 C   0  0  0  0  0  0  0  0  0  0  0  0
   58.6516   32.4220   46.6291 C   0  0  0  0  0  0  0  0  0  0  0  0
   58.0912   33.7526   46.2293 C   0  0  0  0  0  0  0  0  0  0  0  0
   59.1395   32.1219   47.8557 N   0  0  0  0  0  0  0  0  0  0  0  0
   58.7618   27.9082   46.1797 C   0  0  0  0  0  0  0  0  0  0  0  0
   59.0033   26.8740   47.0052 N   0  0  0  0  0  0  0  0  0  0  0  0
   57.9189   26.0862   46.8467 C   0  0  0  0  0  0  0  0  0  0  0  0
   57.7804   24.9937   47.4559 O   0  0  0  0  0  0  0  0  0  0  0  0
   56.9902   26.5645   45.9926 N   0  0  0  0  0  0  0  0  0  0  0  0
   57.5317   27.7248   45.5874 C   0  0  0  0  0  0  0  0  0  0  0  0
   56.8905   28.6145   44.7348 O   0  0  0  0  0  0  0  0  0  0  0  0
   59.2424   33.0535   48.9879 C   0  0  0  0  0  0  0  0  0  0  0  0
   60.1952   34.2020   48.6458 C   0  0  0  0  0  0  0  0  0  0  0  0
   61.6159   33.7126   48.5911 C   0  0  0  0  0  0  0  0  0  0  0  0
   62.3749   33.6062   49.7646 C   0  0  0  0  0  0  0  0  0  0  0  0
   63.7035   33.1820   49.6890 C   0  0  0  0  0  0  0  0  0  0  0  0
   64.2604   32.8833   48.4827 N   0  0  0  0  0  0  0  0  0  0  0  0
   63.5482   32.9921   47.3274 C   0  0  0  0  0  0  0  0  0  0  0  0
   62.2164   33.4136   47.3603 C   0  0  0  0  0  0  0  0  0  0  0  0
   65.1970   32.5825   48.4452 H   0  0  0  0  0  0  0  0  0  0  0  0
  1  2  2  0
  2  3  1  0
  3  4  2  0
  4  9  1  0
  9 10  1  0
 10 11  1  0
 11 12  2  0
 11 13  1  0
 13 14  1  0
 14 15  1  0
  3  5  1  0
  5  6  2  0
  6  7  1  0
  6  8  1  0
  8 16  1  0
 16 17  1  0
 17 18  1  0
 18 19  2  0
 19 20  1  0
 20 21  2  0
 21 22  1  0
 22 23  2  0
  8  2  1  0
 23 18  1  0
 14  9  2  0
 21 24  1  0
M  CHG 1  10  -1
M  CHG 1  13  -1
M  CHG 1  15  -1
M  CHG 1  21   1
M  END
> <UniqueID>
70

> <SMILES>
C=c1/c(=C/c2[n-]c(=O)[n-]c2[O-])cc(C)n1CCc1cc[nH+]cc1

> <Energy>
102.34828610906203

> <Genealogy>
C=c1c(=Cc2[n-]c(=O)[n-]c2[O-])cc(C)n1CCc1cc[nH+]cc1 (protonated)
C=c1/c(=C/c2[n-]c(=O)[n-]c2[O-])cc(C)n1CCc1cc[nH+]cc1 (cis-trans isomerization)
C=c1/c(=C/c2[n-]c(=O)[n-]c2[O-])cc(C)n1CCc1cc[nH+]cc1 (3D coordinates assigned)
C=c1/c(=C/c2[n-]c(=O)[n-]c2[O-])cc(C)n1CCc1cc[nH+]cc1 (optimized conformer: 102.34828610906203 kcal/mol)

> <smiles>
C=c1c(=Cc2[nH]c(=O)[nH]c2O)cc(C)n1CCc1ccncc1

> <score_type>
oracle

> <origin>
adg

> <m_score__min__energy>
-14.210000000000001

> <m_primary>
energy

> <minimizedAffinity>
-7.32237

> <minimizedRMSD>
1.53430

> <CNNscore>
0.6950691342

> <CNNaffinity>
7.0269942284

> <CNN_VS>
4.8842468262

> <CNNaffinity_variance>
0.7162081599

$$$$
4:0


 32 35  0  0  0  0  0  0  0  0999 V2000
   58.3116   32.9295   46.2296 C   0  0  0  0  0  0  0  0  0  0  0  0
   57.6139   31.8965   43.3697 C   0  0  0  0  0  0  0  0  0  0  0  0
   58.1965   31.1637   44.3207 C   0  0  0  0  0  0  0  0  0  0  0  0
   58.5296   29.8677   44.1538 N   0  0  0  0  0  0  0  0  0  0  0  0
   59.0861   29.4566   45.3166 C   0  0  0  0  0  0  0  0  0  0  0  0
   59.5723   28.2298   45.5655 C   0  0  0  0  0  0  0  0  0  0  0  0
   59.1240   30.5004   46.2250 C   0  0  0  0  0  0  0  0  0  0  0  0
   58.5584   31.5919   45.5919 C   0  0  0  0  0  0  0  0  0  0  0  0
   58.3941   29.3258   43.3431 H   0  0  0  0  0  0  0  0  0  0  0  0
   58.7610   27.0477   45.9191 C   0  0  0  0  0  0  0  0  0  0  0  0
   59.3294   25.5092   46.3254 S   0  0  0  0  0  0  0  0  0  0  0  0
   57.7856   24.8510   46.3667 C   0  0  0  0  0  0  0  0  0  0  0  0
   57.5338   23.6499   46.6465 O   0  0  0  0  0  0  0  0  0  0  0  0
   56.8307   25.7501   46.0571 N   0  0  0  0  0  0  0  0  0  0  0  0
   57.3754   26.9677   45.7945 C   0  0  0  0  0  0  0  0  0  0  0  0
   56.5868   28.0525   45.4268 O   0  0  0  0  0  0  0  0  0  0  0  0
   59.3595   33.2119   47.2715 C   0  0  0  0  0  0  0  0  0  0  0  0
   60.6158   33.7048   46.8895 C   0  0  0  0  0  0  0  0  0  0  0  0
   61.6023   33.9388   47.8482 C   0  0  0  0  0  0  0  0  0  0  0  0
   61.3491   33.6733   49.1964 C   0  0  0  0  0  0  0  0  0  0  0  0
   60.1028   33.1594   49.5989 C   0  0  0  0  0  0  0  0  0  0  0  0
   59.1082   32.9427   48.6282 C   0  0  0  0  0  0  0  0  0  0  0  0
   59.8112   32.8717   51.0270 C   0  0  0  0  0  0  0  0  0  0  0  0
   59.3975   33.8140   51.7595 O   0  0  0  0  0  0  0  0  0  0  0  0
   60.0175   31.5540   51.5959 N   0  0  0  0  0  0  0  0  0  0  0  0
   58.7249   30.8579   51.7186 C   0  0  0  0  0  0  0  0  0  0  0  0
   58.9000   29.5204   52.4665 C   0  0  0  0  0  0  0  0  0  0  0  0
   60.1459   28.7996   52.1062 N   0  0  0  0  0  0  0  0  0  0  0  0
   61.1348   28.7948   53.1975 C   0  0  0  0  0  0  0  0  0  0  0  0
   60.7342   29.2487   50.8297 C   0  0  0  0  0  0  0  0  0  0  0  0
   60.9957   30.7720   50.7939 C   0  0  0  0  0  0  0  0  0  0  0  0
   60.5129   31.7080   52.4326 H   0  0  0  0  0  0  0  0  0  0  0  0
  2  3  2  0
  3  4  1  0
  4  5  1  0
  5  6  2  0
  6 10  1  0
 10 11  1  0
 11 12  1  0
 12 13  2  0
 12 14  1  0
 14 15  1  0
 15 16  1  0
  5  7  1  0
  7  8  2  0
  8  1  1  0
  1 17  1  0
 17 18  2  0
 18 19  1  0
 19 20  2  0
 20 21  1  0
 21 23  1  0
 23 24  2  0
 23 25  1  0
 25 26  1  0
 26 27  1  0
 27 28  1  0
 28 29  1  0
 28 30  1  0
 30 31  1  0
 21 22  2  0
  8  3  1  0
 22 17  1  0
 15 10  2  0
 31 25  1  0
  4  9  1  0
 25 32  1  0
M  CHG 1  14  -1
M  CHG 1  16  -1
M  CHG 1  25   1
M  END
> <UniqueID>
4

> <SMILES>
C=c1[nH]c(=Cc2sc(=O)[n-]c2[O-])cc1Cc1cccc(C(=O)[NH+]2CCN(C)CC2)c1

> <Energy>
133.60588055413862

> <Genealogy>
C=c1[nH]c(=Cc2sc(=O)[n-]c2[O-])cc1Cc1cccc(C(=O)[NH+]2CCN(C)CC2)c1 (protonated)
C=c1[nH]c(=Cc2sc(=O)[n-]c2[O-])cc1Cc1cccc(C(=O)[NH+]2CCN(C)CC2)c1 (3D coordinates assigned)
C=c1[nH]c(=Cc2sc(=O)[n-]c2[O-])cc1Cc1cccc(C(=O)[NH+]2CCN(C)CC2)c1 (nonaromatic ring conformer: 133.60588055413862 kcal/mol)

> <smiles>
C=c1[nH]c(=Cc2sc(=O)[nH]c2O)cc1Cc1cccc(C(=O)N2CCN(C)CC2)c1

> <score_type>
oracle

> <origin>
adg

> <m_score__min__energy>
-14.970000000000001

> <m_primary>
energy

> <minimizedAffinity>
-7.42622

> <minimizedRMSD>
1.42741

> <CNNscore>
0.3177165091

> <CNNaffinity>
6.7735543251

> <CNN_VS>
2.1520700455

> <CNNaffinity_variance>
0.2085836977

$$$$
8:0


 31 34  0  0  0  0  0  0  0  0999 V2000
   58.2731   32.4779   44.8868 C   0  0  0  0  0  0  0  0  0  0  0  0
   58.7308   31.3647   45.4625 C   0  0  0  0  0  0  0  0  0  0  0  0
   59.3710   31.2762   46.6835 C   0  0  0  0  0  0  0  0  0  0  0  0
   59.6627   29.9296   46.9113 C   0  0  0  0  0  0  0  0  0  0  0  0
   59.2090   29.2600   45.7487 C   0  0  0  0  0  0  0  0  0  0  0  0
   59.2882   27.9621   45.4055 C   0  0  0  0  0  0  0  0  0  0  0  0
   58.6223   30.1468   44.9136 N   0  0  0  0  0  0  0  0  0  0  0  0
   58.1914   29.9352   44.0541 H   0  0  0  0  0  0  0  0  0  0  0  0
   58.2768   26.9192   45.6564 C   0  0  0  0  0  0  0  0  0  0  0  0
   56.9054   27.2361   45.6717 C   0  0  0  0  0  0  0  0  0  0  0  0
   56.4652   28.5067   45.3231 O   0  0  0  0  0  0  0  0  0  0  0  0
   55.9930   26.2940   46.0314 N   0  0  0  0  0  0  0  0  0  0  0  0
   56.3851   25.0541   46.4196 C   0  0  0  0  0  0  0  0  0  0  0  0
   55.5196   24.1918   46.7332 O   0  0  0  0  0  0  0  0  0  0  0  0
   57.7082   24.7471   46.4776 N   0  0  0  0  0  0  0  0  0  0  0  0
   58.6594   25.6544   46.1286 C   0  0  0  0  0  0  0  0  0  0  0  0
   59.8792   25.3511   46.2257 O   0  0  0  0  0  0  0  0  0  0  0  0
   59.5569   32.3844   47.6400 C   0  0  0  0  0  0  0  0  0  0  0  0
   58.5491   33.0650   47.9796 O   0  0  0  0  0  0  0  0  0  0  0  0
   60.8606   32.6942   48.1801 N   0  0  0  0  0  0  0  0  0  0  0  0
   60.9770   33.5574   49.3639 C   0  0  0  0  0  0  0  0  0  0  0  0
   62.2661   33.2303   50.1217 C   0  0  0  0  0  0  0  0  0  0  0  0
   63.4526   33.4186   49.2594 N   0  0  0  0  0  0  0  0  0  0  0  0
   63.2961   32.9955   47.8441 C   0  0  0  0  0  0  0  0  0  0  0  0
   62.0752   32.0942   47.6057 C   0  0  0  0  0  0  0  0  0  0  0  0
   64.7802   33.0582   49.8212 C   0  0  0  0  0  0  0  0  0  0  0  0
   65.1624   33.5100   51.2319 C   0  0  0  0  0  0  0  0  0  0  0  0
   64.7266   32.0743   50.9840 C   0  0  0  0  0  0  0  0  0  0  0  0
   60.0203   29.4014   48.3025 C   0  0  0  0  0  0  0  0  0  0  0  0
   60.4031   27.9149   48.3205 C   0  0  0  0  0  0  0  0  0  0  0  0
   58.9925   29.7741   49.3788 C   0  0  0  0  0  0  0  0  0  0  0  0
  1  2  2  0
  2  3  1  0
  3 18  1  0
 18 19  2  0
 18 20  1  0
 20 21  1  0
 21 22  1  0
 22 23  1  0
 23 26  1  0
 26 27  1  0
 27 28  1  0
 23 24  1  0
 24 25  1  0
  3  4  2  0
  4 29  1  0
 29 30  1  0
 29 31  1  0
  4  5  1  0
  5  6  2  0
  6  9  1  0
  9 10  2  0
 10 11  1  0
 10 12  1  0
 12 13  1  0
 13 14  2  0
 13 15  1  0
 15 16  1  0
 16 17  2  0
  5  7  1  0
  7  2  1  0
 25 20  1  0
 16  9  1  0
 28 26  1  0
  7  8  1  0
M  CHG 1  11  -1
M  CHG 1  12  -1
M  CHG 1  15  -1
M  END
> <UniqueID>
8

> <SMILES>
C=c1[nH]/c(=C/c2c([O-])[n-]c(=O)[n-]c2=O)c(C(C)C)c1C(=O)N1CCN(C2CC2)CC1

> <Energy>
389.50906076090956

> <Genealogy>
C=c1[nH]c(=Cc2c([O-])[n-]c(=O)[n-]c2=O)c(C(C)C)c1C(=O)N1CCN(C2CC2)CC1 (protonated)
C=c1[nH]/c(=C/c2c([O-])[n-]c(=O)[n-]c2=O)c(C(C)C)c1C(=O)N1CCN(C2CC2)CC1 (cis-trans isomerization)
C=c1[nH]/c(=C/c2c([O-])[n-]c(=O)[n-]c2=O)c(C(C)C)c1C(=O)N1CCN(C2CC2)CC1 (3D coordinates assigned)
C=c1[nH]/c(=C/c2c([O-])[n-]c(=O)[n-]c2=O)c(C(C)C)c1C(=O)N1CCN(C2CC2)CC1 (nonaromatic ring conformer: 389.50906076090956 kcal/mol)

> <smiles>
C=c1[nH]c(=Cc2c(O)[nH]c(=O)[nH]c2=O)c(C(C)C)c1C(=O)N1CCN(C2CC2)CC1

> <score_type>
oracle

> <origin>
adg

> <m_score__min__energy>
-16.48

> <m_primary>
energy

> <minimizedAffinity>
-8.11188

> <minimizedRMSD>
0.86384

> <CNNscore>
0.1902911514

> <CNNaffinity>
6.6231560707

> <CNN_VS>
1.2603279352

> <CNNaffinity_variance>
0.0190579165

$$$$
32:0


 27 30  0  0  0  0  0  0  0  0999 V2000
   58.0755   26.7137   43.0182 C   0  0  0  0  0  0  0  0  0  0  0  0
   58.4375   27.0810   44.2525 C   0  0  0  0  0  0  0  0  0  0  0  0
   58.5749   26.2757   45.3929 C   0  0  0  0  0  0  0  0  0  0  0  0
   58.2308   24.9929   45.6173 C   0  0  0  0  0  0  0  0  0  0  0  0
   59.1815   27.0725   46.3528 C   0  0  0  0  0  0  0  0  0  0  0  0
   59.3238   28.3244   45.7910 C   0  0  0  0  0  0  0  0  0  0  0  0
   58.8761   28.3276   44.5224 N   0  0  0  0  0  0  0  0  0  0  0  0
   58.8699   29.0957   43.9066 H   0  0  0  0  0  0  0  0  0  0  0  0
   56.8542   24.4854   45.7300 C   0  0  0  0  0  0  0  0  0  0  0  0
   55.7225   25.2402   45.9348 C   0  0  0  0  0  0  0  0  0  0  0  0
   55.6963   26.6044   46.1987 O   0  0  0  0  0  0  0  0  0  0  0  0
   54.6179   24.4766   45.8354 N   0  0  0  0  0  0  0  0  0  0  0  0
   55.1225   23.2587   45.5430 C   0  0  0  0  0  0  0  0  0  0  0  0
   54.3992   22.2455   45.3544 O   0  0  0  0  0  0  0  0  0  0  0  0
   56.4672   23.2267   45.4559 N   0  0  0  0  0  0  0  0  0  0  0  0
   57.0385   22.4545   45.2400 H   0  0  0  0  0  0  0  0  0  0  0  0
   59.9894   29.4973   46.4414 C   0  0  0  0  0  0  0  0  0  0  0  0
   59.1393   30.7234   46.2812 C   0  0  0  0  0  0  0  0  0  0  0  0
   59.4779   31.9923   46.4705 C   0  0  0  0  0  0  0  0  0  0  0  0
   60.6774   32.5269   46.9502 C   0  0  0  0  0  0  0  0  0  0  0  0
   60.7895   33.9231   47.0520 C   0  0  0  0  0  0  0  0  0  0  0  0
   59.7183   34.7557   46.6733 C   0  0  0  0  0  0  0  0  0  0  0  0
   58.5216   34.2027   46.1851 C   0  0  0  0  0  0  0  0  0  0  0  0
   58.4247   32.8143   46.0892 C   0  0  0  0  0  0  0  0  0  0  0  0
   57.3928   32.1715   45.6379 N   0  0  0  0  0  0  0  0  0  0  0  0
   57.7977   30.8090   45.7274 C   0  0  0  0  0  0  0  0  0  0  0  0
   57.0845   29.8382   45.3627 O   0  0  0  0  0  0  0  0  0  0  0  0
  1  2  2  0
  2  3  1  0
  3  4  2  0
  4  9  1  0
  9 10  2  0
 10 11  1  0
 10 12  1  0
 12 13  1  0
 13 14  2  0
 13 15  1  0
  3  5  1  0
  5  6  2  0
  6 17  1  0
 17 18  1  0
 18 19  2  0
 19 20  1  0
 20 21  2  0
 21 22  1  0
 22 23  2  0
 23 24  1  0
 24 25  2  0
 25 26  1  0
 26 27  2  0
  6  7  1  0
  7  2  1  0
 15  9  1  0
 26 18  1  0
 24 19  1  0
 15 16  1  0
  7  8  1  0
M  CHG 1  11  -1
M  CHG 1  12  -1
M  END
> <UniqueID>
30

> <SMILES>
C=c1[nH]c(CC2=c3ccccc3=NC2=O)c/c1=C/c1[nH]c(=O)[n-]c1[O-]

> <Energy>
139.24314981665142

> <Genealogy>
C=c1[nH]c(CC2=c3ccccc3=NC2=O)cc1=Cc1[nH]c(=O)[n-]c1[O-] (protonated)
C=c1[nH]c(CC2=c3ccccc3=NC2=O)c/c1=C/c1[nH]c(=O)[n-]c1[O-] (cis-trans isomerization)
C=c1[nH]c(CC2=c3ccccc3=NC2=O)c/c1=C/c1[nH]c(=O)[n-]c1[O-] (3D coordinates assigned)
C=c1[nH]c(CC2=c3ccccc3=NC2=O)c/c1=C/c1[nH]c(=O)[n-]c1[O-] (nonaromatic ring conformer: 139.24314981665142 kcal/mol)

> <smiles>
C=c1[nH]c(CC2=c3ccccc3=NC2=O)cc1=Cc1[nH]c(=O)[nH]c1O

> <score_type>
oracle

> <origin>
adg

> <m_score__min__energy>
-14.970000000000001

> <m_primary>
energy

> <minimizedAffinity>
-8.84997

> <minimizedRMSD>
0.70493

> <CNNscore>
0.1189124286

> <CNNaffinity>
6.2643465996

> <CNN_VS>
0.7449086905

> <CNNaffinity_variance>
0.0452323221

$$$$
34:0


 28 30  0  0  0  0  0  0  0  0999 V2000
   60.3294   32.0247   47.1115 N   0  0  0  0  0  0  0  0  0  0  0  0
   59.9234   30.8275   47.7905 C   0  0  0  0  0  0  0  0  0  0  0  0
   59.4408   30.8909   48.9527 O   0  0  0  0  0  0  0  0  0  0  0  0
   60.8879   31.9450   46.3047 H   0  0  0  0  0  0  0  0  0  0  0  0
   60.0456   29.5227   47.1252 C   0  0  0  0  0  0  0  0  0  0  0  0
   59.9061   28.2817   47.7098 C   0  0  0  0  0  0  0  0  0  0  0  0
   60.0602   27.3885   46.7181 N   0  0  0  0  0  0  0  0  0  0  0  0
   60.2970   28.0415   45.5914 N   0  0  0  0  0  0  0  0  0  0  0  0
   60.2860   29.3495   45.8096 N   0  0  0  0  0  0  0  0  0  0  0  0
   60.0600   25.9370   46.8452 C   0  0  0  0  0  0  0  0  0  0  0  0
   58.7934   25.3735   46.2642 C   0  0  0  0  0  0  0  0  0  0  0  0
   58.8378   24.2477   45.4265 C   0  0  0  0  0  0  0  0  0  0  0  0
   57.6624   23.7505   44.8537 C   0  0  0  0  0  0  0  0  0  0  0  0
   56.4391   24.3772   45.1060 C   0  0  0  0  0  0  0  0  0  0  0  0
   56.3896   25.5081   45.9264 C   0  0  0  0  0  0  0  0  0  0  0  0
   55.1754   26.1367   46.1699 O   0  0  0  0  0  0  0  0  0  0  0  0
   57.5634   26.0099   46.5011 C   0  0  0  0  0  0  0  0  0  0  0  0
   59.9454   33.3585   47.5721 C   0  0  0  0  0  0  0  0  0  0  0  0
   58.5395   33.7326   47.0852 C   0  0  0  0  0  0  0  0  0  0  0  0
   57.3555   31.2584   44.4171 C   0  0  0  0  0  0  0  0  0  0  0  0
   57.7807   31.9184   43.2483 C   0  0  0  0  0  0  0  0  0  0  0  0
   58.4301   33.1531   43.3245 C   0  0  0  0  0  0  0  0  0  0  0  0
   58.6654   33.7478   44.5644 C   0  0  0  0  0  0  0  0  0  0  0  0
   58.2371   33.1182   45.7422 C   0  0  0  0  0  0  0  0  0  0  0  0
   57.5851   31.8749   45.6632 C   0  0  0  0  0  0  0  0  0  0  0  0
   57.4457   28.6820   43.9888 C   0  0  0  0  0  0  0  0  0  0  0  0
   56.6869   29.9330   44.3234 C   0  0  0  0  0  0  0  0  0  0  0  0
   55.4454   29.8429   44.5294 O   0  0  0  0  0  0  0  0  0  0  0  0
 26 27  1  0
 27 28  2  0
 27 20  1  0
 20 21  2  0
 21 22  1  0
 22 23  2  0
 23 24  1  0
 24 19  1  0
 19 18  1  0
 18  1  1  0
  1  2  1  0
  2  3  2  0
  2  5  1  0
  5  6  2  0
  6  7  1  0
  7 10  1  0
 10 11  1  0
 11 12  2  0
 12 13  1  0
 13 14  2  0
 14 15  1  0
 15 16  1  0
 15 17  2  0
  7  8  1  0
  8  9  2  0
 24 25  2  0
 25 20  1  0
  9  5  1  0
 17 11  1  0
  1  4  1  0
M  CHG 1  16  -1
M  END
> <UniqueID>
32

> <SMILES>
CC(=O)c1cccc(CCNC(=O)c2cn(Cc3cccc([O-])c3)nn2)c1

> <Energy>
74.60304421824334

> <Genealogy>
CC(=O)c1cccc(CCNC(=O)c2cn(Cc3cccc([O-])c3)nn2)c1 (protonated)
CC(=O)c1cccc(CCNC(=O)c2cn(Cc3cccc([O-])c3)nn2)c1 (3D coordinates assigned)
CC(=O)c1cccc(CCNC(=O)c2cn(Cc3cccc([O-])c3)nn2)c1 (optimized conformer: 74.60304421824334 kcal/mol)

> <smiles>
CC(=O)c1cccc(CCNC(=O)c2cn(Cc3cccc(O)c3)nn2)c1

> <score_type>
oracle

> <origin>
adg

> <m_score__min__energy>
-14.449999999999999

> <m_primary>
energy

> <minimizedAffinity>
-6.50426

> <minimizedRMSD>
0.50789

> <CNNscore>
0.3509508967

> <CNNaffinity>
6.3036131859

> <CNN_VS>
2.2122588158

> <CNNaffinity_variance>
0.0468282513

$$$$
75:0


 28 30  0  0  0  0  0  0  0  0999 V2000
   61.0675   33.3481   47.5232 C   0  0  0  0  0  0  0  0  0  0  0  0
   60.3137   32.5989   48.5980 C   0  0  0  0  0  0  0  0  0  0  0  0
   59.9961   33.2848   49.7759 C   0  0  0  0  0  0  0  0  0  0  0  0
   59.2991   32.6432   50.7887 C   0  0  0  0  0  0  0  0  0  0  0  0
   58.9017   31.3113   50.6435 C   0  0  0  0  0  0  0  0  0  0  0  0
   59.2478   30.6335   49.4516 C   0  0  0  0  0  0  0  0  0  0  0  0
   58.9405   29.4168   49.3203 O   0  0  0  0  0  0  0  0  0  0  0  0
   59.9361   31.2798   48.4445 N   0  0  0  0  0  0  0  0  0  0  0  0
   58.1549   30.6663   51.7617 C   0  0  0  0  0  0  0  0  0  0  0  0
   58.7363   29.8030   52.4739 O   0  0  0  0  0  0  0  0  0  0  0  0
   56.7267   30.9971   52.0820 C   0  0  0  0  0  0  0  0  0  0  0  0
   55.9313   29.8218   51.9611 O   0  0  0  0  0  0  0  0  0  0  0  0
   54.8494   29.5528   52.8018 C   0  0  0  0  0  0  0  0  0  0  0  0
   54.9590   28.7194   53.7431 O   0  0  0  0  0  0  0  0  0  0  0  0
   53.5755   30.2480   52.5901 C   0  0  0  0  0  0  0  0  0  0  0  0
   52.5297   30.3095   53.4836 C   0  0  0  0  0  0  0  0  0  0  0  0
   51.5318   31.0275   52.9398 N   0  0  0  0  0  0  0  0  0  0  0  0
   52.0159   31.3745   51.7301 C   0  0  0  0  0  0  0  0  0  0  0  0
   51.3598   32.0662   50.9096 O   0  0  0  0  0  0  0  0  0  0  0  0
   53.2587   30.9212   51.4702 N   0  0  0  0  0  0  0  0  0  0  0  0
   60.2912   30.5346   47.2129 C   0  0  0  0  0  0  0  0  0  0  0  0
   59.1045   30.3963   46.2892 C   0  0  0  0  0  0  0  0  0  0  0  0
   58.5926   29.1224   45.9816 C   0  0  0  0  0  0  0  0  0  0  0  0
   57.5084   28.9891   45.1092 C   0  0  0  0  0  0  0  0  0  0  0  0
   56.9337   30.1205   44.5259 C   0  0  0  0  0  0  0  0  0  0  0  0
   55.8557   29.9859   43.6591 O   0  0  0  0  0  0  0  0  0  0  0  0
   57.4451   31.3894   44.8108 C   0  0  0  0  0  0  0  0  0  0  0  0
   58.5303   31.5279   45.6834 C   0  0  0  0  0  0  0  0  0  0  0  0
  1  2  1  0
  2  3  2  0
  3  4  1  0
  4  5  2  0
  5  9  1  0
  9 10  2  0
  9 11  1  0
 11 12  1  0
 12 13  1  0
 13 14  2  0
 13 15  1  0
 15 16  2  0
 16 17  1  0
 17 18  1  0
 18 19  2  0
 18 20  1  0
  5  6  1  0
  6  7  2  0
  6  8  1  0
  8 21  1  0
 21 22  1  0
 22 23  2  0
 23 24  1  0
 24 25  2  0
 25 26  1  0
 25 27  1  0
 27 28  2  0
  8  2  1  0
 28 22  1  0
 20 15  1  0
M  CHG 1  17  -1
M  CHG 1  20  -1
M  CHG 1  26  -1
M  END
> <UniqueID>
71

> <SMILES>
Cc1ccc(C(=O)COC(=O)c2c[n-]c(=O)[n-]2)c(=O)n1Cc1ccc([O-])cc1

> <Energy>
78.52782078476477

> <Genealogy>
Cc1ccc(C(=O)COC(=O)c2c[n-]c(=O)[n-]2)c(=O)n1Cc1ccc([O-])cc1 (protonated)
Cc1ccc(C(=O)COC(=O)c2c[n-]c(=O)[n-]2)c(=O)n1Cc1ccc([O-])cc1 (3D coordinates assigned)
Cc1ccc(C(=O)COC(=O)c2c[n-]c(=O)[n-]2)c(=O)n1Cc1ccc([O-])cc1 (optimized conformer: 78.52782078476477 kcal/mol)

> <smiles>
Cc1ccc(C(=O)COC(=O)c2c[nH]c(=O)[nH]2)c(=O)n1Cc1ccc(O)cc1

> <score_type>
oracle

> <origin>
adg

> <m_score__min__energy>
-14.74

> <m_primary>
energy

> <minimizedAffinity>
-7.45289

> <minimizedRMSD>
1.18120

> <CNNscore>
0.6148384809

> <CNNaffinity>
6.0015215874

> <CNN_VS>
3.6899664402

> <CNNaffinity_variance>
0.0265403297

$$$$
91:0


 31 33  0  0  0  0  0  0  0  0999 V2000
   59.1882   32.2781   49.8714 C   0  0  0  0  0  0  0  0  0  0  0  0
   59.8553   33.4987   50.0197 C   0  0  0  0  0  0  0  0  0  0  0  0
   60.0321   34.3396   48.9193 C   0  0  0  0  0  0  0  0  0  0  0  0
   59.5358   33.9711   47.6670 C   0  0  0  0  0  0  0  0  0  0  0  0
   58.8378   32.7609   47.5076 C   0  0  0  0  0  0  0  0  0  0  0  0
   58.6801   31.9124   48.6175 C   0  0  0  0  0  0  0  0  0  0  0  0
   58.9856   31.2211   51.2693 S   0  0  0  0  0  0  0  0  0  0  0  0
   58.1001   31.8838   52.2897 O   0  0  0  0  0  0  0  0  0  0  0  0
   58.3132   29.9586   50.8106 O   0  0  0  0  0  0  0  0  0  0  0  0
   62.1874   31.4149   47.2708 C   0  0  0  0  0  0  0  0  0  0  0  0
   62.5827   32.0331   48.5791 C   0  0  0  0  0  0  0  0  0  0  0  0
   63.2520   33.1038   48.5589 O   0  0  0  0  0  0  0  0  0  0  0  0
   62.2067   31.4360   49.8399 N   0  0  0  0  0  0  0  0  0  0  0  0
   62.5636   32.0817   51.1094 C   0  0  0  0  0  0  0  0  0  0  0  0
   61.3967   32.0183   52.1172 C   0  0  0  0  0  0  0  0  0  0  0  0
   60.5342   30.8189   51.9824 N   0  0  0  0  0  0  0  0  0  0  0  0
   61.1966   29.6964   51.2905 C   0  0  0  0  0  0  0  0  0  0  0  0
   61.6402   30.0806   49.8733 C   0  0  0  0  0  0  0  0  0  0  0  0
   58.3031   32.3535   46.1871 C   0  0  0  0  0  0  0  0  0  0  0  0
   57.2060   32.8318   45.7946 O   0  0  0  0  0  0  0  0  0  0  0  0
   58.9843   31.4199   45.3357 N   0  0  0  0  0  0  0  0  0  0  0  0
   58.9194   29.9896   45.4275 C   0  0  0  0  0  0  0  0  0  0  0  0
   59.9065   29.3371   46.1800 C   0  0  0  0  0  0  0  0  0  0  0  0
   59.9567   27.9444   46.2290 C   0  0  0  0  0  0  0  0  0  0  0  0
   59.0132   27.1872   45.5355 C   0  0  0  0  0  0  0  0  0  0  0  0
   57.9985   27.8201   44.8144 C   0  0  0  0  0  0  0  0  0  0  0  0
   57.9195   29.2257   44.7690 C   0  0  0  0  0  0  0  0  0  0  0  0
   56.7539   29.8483   44.0961 C   0  0  0  0  0  0  0  0  0  0  0  0
   55.4454   29.6968   44.6416 N   0  0  0  0  0  0  0  0  0  0  0  0
   56.9107   30.5492   43.0610 O   0  0  0  0  0  0  0  0  0  0  0  0
   55.3092   29.1519   45.4501 H   0  0  0  0  0  0  0  0  0  0  0  0
 10 11  1  0
 11 12  2  0
 11 13  1  0
 13 14  1  0
 14 15  1  0
 15 16  1  0
 16  7  1  0
  7  8  2  0
  7  9  2  0
  7  1  1  0
  1  2  2  0
  2  3  1  0
  3  4  2  0
  4  5  1  0
  5 19  1  0
 19 20  2  0
 19 21  1  0
 21 22  1  0
 22 23  2  0
 23 24  1  0
 24 25  2  0
 25 26  1  0
 26 27  2  0
 27 28  1  0
 28 29  1  0
 28 30  2  0
  5  6  2  0
 16 17  1  0
 17 18  1  0
 18 13  1  0
  6  1  1  0
 27 22  1  0
 29 31  1  0
M  CHG 1  21  -1
M  CHG 1  29  -1
M  END
> <UniqueID>
87

> <SMILES>
CC(=O)N1CCN(S(=O)(=O)c2cccc(C(=O)[N-]c3ccccc3C([NH-])=O)c2)CC1

> <Energy>
67.88935520816915

> <Genealogy>
CC(=O)N1CCN(S(=O)(=O)c2cccc(C(=O)[N-]c3ccccc3C([NH-])=O)c2)CC1 (protonated)
CC(=O)N1CCN(S(=O)(=O)c2cccc(C(=O)[N-]c3ccccc3C([NH-])=O)c2)CC1 (3D coordinates assigned)
CC(=O)N1CCN(S(=O)(=O)c2cccc(C(=O)[N-]c3ccccc3C([NH-])=O)c2)CC1 (nonaromatic ring conformer: 67.88935520816915 kcal/mol)

> <smiles>
CC(=O)N1CCN(S(=O)(=O)c2cccc(C(=O)Nc3ccccc3C(N)=O)c2)CC1

> <score_type>
oracle

> <origin>
adg

> <m_score__min__energy>
-15.529999999999999

> <m_primary>
energy

> <minimizedAffinity>
-8.46017

> <minimizedRMSD>
0.71838

> <CNNscore>
0.8319718242

> <CNNaffinity>
6.8922657967

> <CNN_VS>
5.7341709137

> <CNNaffinity_variance>
0.1558469981

$$$$
13:0


 24 25  0  0  0  0  0  0  0  0999 V2000
   60.2112   28.2892   47.2598 N   0  0  0  0  0  0  0  0  0  0  0  0
   60.2248   27.0589   46.4965 C   0  0  0  0  0  0  0  0  0  0  0  0
   61.2976   26.6868   45.9433 O   0  0  0  0  0  0  0  0  0  0  0  0
   59.0243   26.2020   46.3505 C   0  0  0  0  0  0  0  0  0  0  0  0
   57.7400   26.7673   46.3600 C   0  0  0  0  0  0  0  0  0  0  0  0
   56.6364   25.9279   46.1992 C   0  0  0  0  0  0  0  0  0  0  0  0
   55.4714   26.4046   46.2096 O   0  0  0  0  0  0  0  0  0  0  0  0
   56.8193   24.5941   46.0313 N   0  0  0  0  0  0  0  0  0  0  0  0
   58.0671   24.0588   46.0132 C   0  0  0  0  0  0  0  0  0  0  0  0
   58.2156   22.8198   45.8588 O   0  0  0  0  0  0  0  0  0  0  0  0
   59.1539   24.8607   46.1651 N   0  0  0  0  0  0  0  0  0  0  0  0
   58.9090   29.0458   49.2310 C   0  0  0  0  0  0  0  0  0  0  0  0
   60.0639   28.1838   48.7237 C   0  0  0  0  0  0  0  0  0  0  0  0
   60.7936   29.5089   46.6647 C   0  0  0  0  0  0  0  0  0  0  0  0
   60.8624   30.6682   47.6265 C   0  0  0  0  0  0  0  0  0  0  0  0
   61.8684   30.7819   48.3764 O   0  0  0  0  0  0  0  0  0  0  0  0
   59.8738   31.7046   47.6407 N   0  0  0  0  0  0  0  0  0  0  0  0
   59.1841   32.2357   46.5036 C   0  0  0  0  0  0  0  0  0  0  0  0
   59.3476   33.5739   46.1109 C   0  0  0  0  0  0  0  0  0  0  0  0
   58.7189   34.0502   44.9563 C   0  0  0  0  0  0  0  0  0  0  0  0
   57.9418   33.1909   44.1763 C   0  0  0  0  0  0  0  0  0  0  0  0
   57.7970   31.8496   44.5464 C   0  0  0  0  0  0  0  0  0  0  0  0
   57.0332   30.9913   43.7658 O   0  0  0  0  0  0  0  0  0  0  0  0
   58.4253   31.3719   45.7023 C   0  0  0  0  0  0  0  0  0  0  0  0
 12 13  1  0
 13  1  1  0
  1 14  1  0
 14 15  1  0
 15 16  2  0
 15 17  1  0
 17 18  1  0
 18 19  2  0
 19 20  1  0
 20 21  2  0
 21 22  1  0
 22 23  1  0
 22 24  2  0
  1  2  1  0
  2  3  2  0
  2  4  1  0
  4  5  2  0
  5  6  1  0
  6  7  2  0
  6  8  1  0
  8  9  1  0
  9 10  2  0
  9 11  1  0
 24 18  1  0
 11  4  1  0
M  CHG 1   8  -1
M  CHG 1  11  -1
M  CHG 1  17  -1
M  CHG 1  23  -1
M  END
> <UniqueID>
13

> <SMILES>
CCN(CC(=O)[N-]c1cccc([O-])c1)C(=O)c1cc(=O)[n-]c(=O)[n-]1

> <Energy>
44.34566853962886

> <Genealogy>
CCN(CC(=O)[N-]c1cccc([O-])c1)C(=O)c1cc(=O)[n-]c(=O)[n-]1 (protonated)
CCN(CC(=O)[N-]c1cccc([O-])c1)C(=O)c1cc(=O)[n-]c(=O)[n-]1 (3D coordinates assigned)
CCN(CC(=O)[N-]c1cccc([O-])c1)C(=O)c1cc(=O)[n-]c(=O)[n-]1 (optimized conformer: 44.34566853962886 kcal/mol)

> <smiles>
CCN(CC(=O)Nc1cccc(O)c1)C(=O)c1cc(=O)[nH]c(=O)[nH]1

> <score_type>
oracle

> <origin>
adg

> <m_score__min__energy>
-14.779999999999999

> <m_primary>
energy

> <minimizedAffinity>
-5.64995

> <minimizedRMSD>
1.80238

> <CNNscore>
0.1937642843

> <CNNaffinity>
5.8992671967

> <CNN_VS>
1.1430672407

> <CNNaffinity_variance>
0.0306600984

$$$$
16:0


 24 25  0  0  0  0  0  0  0  0999 V2000
   58.0183   31.9721   45.8664 C   0  0  0  0  0  0  0  0  0  0  0  0
   57.0568   31.2391   45.0473 N   0  0  0  0  0  0  0  0  0  0  0  0
   56.7392   29.6801   43.3553 O   0  0  0  0  0  0  0  0  0  0  0  0
   57.3104   29.9645   44.4408 C   0  0  0  0  0  0  0  0  0  0  0  0
   58.2282   28.9816   45.0514 C   0  0  0  0  0  0  0  0  0  0  0  0
   59.6101   29.2259   45.0589 C   0  0  0  0  0  0  0  0  0  0  0  0
   60.4858   28.3067   45.6415 C   0  0  0  0  0  0  0  0  0  0  0  0
   59.9898   27.1355   46.2181 C   0  0  0  0  0  0  0  0  0  0  0  0
   58.6149   26.8865   46.2254 C   0  0  0  0  0  0  0  0  0  0  0  0
   58.1268   25.7204   46.8046 O   0  0  0  0  0  0  0  0  0  0  0  0
   57.7297   27.8093   45.6497 C   0  0  0  0  0  0  0  0  0  0  0  0
   56.3626   27.5513   45.6621 O   0  0  0  0  0  0  0  0  0  0  0  0
   58.3947   33.2893   45.1879 C   0  0  0  0  0  0  0  0  0  0  0  0
   59.4511   34.2994   46.2182 S   0  0  0  0  0  0  0  0  0  0  0  0
   59.6798   35.6056   45.5104 O   0  0  0  0  0  0  0  0  0  0  0  0
   58.8111   34.5938   47.5466 O   0  0  0  0  0  0  0  0  0  0  0  0
   60.9911   33.5252   46.4268 N   0  0  0  0  0  0  0  0  0  0  0  0
   61.7641   33.4263   47.6311 C   0  0  0  0  0  0  0  0  0  0  0  0
   63.1345   33.1521   47.5172 C   0  0  0  0  0  0  0  0  0  0  0  0
   63.9367   33.0514   48.6571 C   0  0  0  0  0  0  0  0  0  0  0  0
   63.3765   33.2301   49.9241 C   0  0  0  0  0  0  0  0  0  0  0  0
   62.0142   33.5105   50.0503 C   0  0  0  0  0  0  0  0  0  0  0  0
   61.4711   33.6846   51.2801 F   0  0  0  0  0  0  0  0  0  0  0  0
   61.2085   33.6137   48.9111 C   0  0  0  0  0  0  0  0  0  0  0  0
  3  4  2  0
  4  2  1  0
  2  1  1  0
  1 13  1  0
 13 14  1  0
 14 15  2  0
 14 16  2  0
 14 17  1  0
 17 18  1  0
 18 19  2  0
 19 20  1  0
 20 21  2  0
 21 22  1  0
 22 23  1  0
 22 24  2  0
  4  5  1  0
  5  6  2  0
  6  7  1  0
  7  8  2  0
  8  9  1  0
  9 10  1  0
  9 11  2  0
 11 12  1  0
 24 18  1  0
 11  5  1  0
M  CHG 1   2  -1
M  CHG 1  10  -1
M  CHG 1  12  -1
M  CHG 1  17  -1
M  END
> <UniqueID>
16

> <SMILES>
O=C([N-]CCS(=O)(=O)[N-]c1cccc(F)c1)c1cccc([O-])c1[O-]

> <Energy>
36.42614628933469

> <Genealogy>
O=C([N-]CCS(=O)(=O)[N-]c1cccc(F)c1)c1cccc([O-])c1[O-] (protonated)
O=C([N-]CCS(=O)(=O)[N-]c1cccc(F)c1)c1cccc([O-])c1[O-] (3D coordinates assigned)
O=C([N-]CCS(=O)(=O)[N-]c1cccc(F)c1)c1cccc([O-])c1[O-] (optimized conformer: 36.42614628933469 kcal/mol)

> <smiles>
O=C(NCCS(=O)(=O)Nc1cccc(F)c1)c1cccc(O)c1O

> <score_type>
oracle

> <origin>
adg

> <m_score__min__energy>
-17.449999999999999

> <m_primary>
energy

> <minimizedAffinity>
-6.66184

> <minimizedRMSD>
1.42023

> <CNNscore>
0.7558016777

> <CNNaffinity>
6.3464007378

> <CNN_VS>
4.7966203690

> <CNNaffinity_variance>
0.1530408263

$$$$
26:0


 29 32  0  0  0  0  0  0  0  0999 V2000
   55.2147   28.7359   54.9192 C   0  0  0  0  0  0  0  0  0  0  0  0
   55.4081   29.6728   53.9771 C   0  0  0  0  0  0  0  0  0  0  0  0
   54.5154   30.0483   52.9597 C   0  0  0  0  0  0  0  0  0  0  0  0
   53.2228   29.7309   52.7523 C   0  0  0  0  0  0  0  0  0  0  0  0
   55.2222   30.8890   52.1180 C   0  0  0  0  0  0  0  0  0  0  0  0
   56.4705   31.0601   52.6766 C   0  0  0  0  0  0  0  0  0  0  0  0
   56.5925   30.3158   53.8009 N   0  0  0  0  0  0  0  0  0  0  0  0
   57.8149   30.1143   54.5875 C   0  0  0  0  0  0  0  0  0  0  0  0
   57.5123   31.9368   52.1045 C   0  0  0  0  0  0  0  0  0  0  0  0
   57.6001   33.1196   52.5320 O   0  0  0  0  0  0  0  0  0  0  0  0
   58.4366   31.4670   51.1022 N   0  0  0  0  0  0  0  0  0  0  0  0
   58.8871   30.0665   51.0864 C   0  0  0  0  0  0  0  0  0  0  0  0
   59.0251   29.5748   49.6422 C   0  0  0  0  0  0  0  0  0  0  0  0
   59.7725   30.5282   48.8066 N   0  0  0  0  0  0  0  0  0  0  0  0
   60.2405   30.1320   47.4981 C   0  0  0  0  0  0  0  0  0  0  0  0
   61.1827   30.7717   46.9532 O   0  0  0  0  0  0  0  0  0  0  0  0
   60.1957   31.8186   49.3715 C   0  0  0  0  0  0  0  0  0  0  0  0
   59.0671   32.4438   50.2021 C   0  0  0  0  0  0  0  0  0  0  0  0
   59.6648   28.9151   46.7993 C   0  0  0  0  0  0  0  0  0  0  0  0
   60.2734   28.6850   45.4187 C   0  0  0  0  0  0  0  0  0  0  0  0
   58.9043   28.8852   44.7799 C   0  0  0  0  0  0  0  0  0  0  0  0
   58.2908   29.1138   46.1540 C   0  0  0  0  0  0  0  0  0  0  0  0
   52.4002   30.1775   51.6176 C   0  0  0  0  0  0  0  0  0  0  0  0
   52.3213   29.5141   50.4518 N   0  0  0  0  0  0  0  0  0  0  0  0
   51.5783   30.3345   49.6765 C   0  0  0  0  0  0  0  0  0  0  0  0
   51.2662   30.0473   48.4911 O   0  0  0  0  0  0  0  0  0  0  0  0
   51.2079   31.4914   50.2657 N   0  0  0  0  0  0  0  0  0  0  0  0
   51.7499   31.3834   51.4892 C   0  0  0  0  0  0  0  0  0  0  0  0
   51.6737   32.3783   52.4570 O   0  0  0  0  0  0  0  0  0  0  0  0
  1  2  2  0
  2  3  1  0
  3  4  2  0
  4 23  1  0
 23 24  1  0
 24 25  1  0
 25 26  2  0
 25 27  1  0
 27 28  1  0
 28 29  1  0
  3  5  1  0
  5  6  2  0
  6  9  1  0
  9 10  2  0
  9 11  1  0
 11 12  1  0
 12 13  1  0
 13 14  1  0
 14 15  1  0
 15 16  2  0
 15 19  1  0
 19 20  1  0
 20 21  1  0
 21 22  1  0
 14 17  1  0
 17 18  1  0
  6  7  1  0
  7  8  1  0
  7  2  1  0
 28 23  2  0
 18 11  1  0
 22 19  1  0
M  CHG 1  24  -1
M  CHG 1  27  -1
M  CHG 1  29  -1
M  END
> <UniqueID>
26

> <SMILES>
C=c1c(=Cc2[n-]c(=O)[n-]c2[O-])cc(C(=O)N2CCN(C(=O)C3CCC3)CC2)n1C

> <Energy>
189.4053700634431

> <Genealogy>
C=c1c(=Cc2[n-]c(=O)[n-]c2[O-])cc(C(=O)N2CCN(C(=O)C3CCC3)CC2)n1C (protonated)
C=c1c(=Cc2[n-]c(=O)[n-]c2[O-])cc(C(=O)N2CCN(C(=O)C3CCC3)CC2)n1C (3D coordinates assigned)
C=c1c(=Cc2[n-]c(=O)[n-]c2[O-])cc(C(=O)N2CCN(C(=O)C3CCC3)CC2)n1C (nonaromatic ring conformer: 189.4053700634431 kcal/mol)

> <smiles>
C=c1c(=Cc2[nH]c(=O)[nH]c2O)cc(C(=O)N2CCN(C(=O)C3CCC3)CC2)n1C

> <score_type>
oracle

> <origin>
adg

> <m_score__min__energy>
-17.59

> <m_primary>
energy

> <minimizedAffinity>
-6.64195

> <minimizedRMSD>
0.88721

> <CNNscore>
0.0416132323

> <CNNaffinity>
5.1451339722

> <CNN_VS>
0.2141056508

> <CNNaffinity_variance>
0.1916763037

$$$$
32:0


 32 35  0  0  0  0  0  0  0  0999 V2000
   58.4488   30.1658   52.7396 C   0  0  0  0  0  0  0  0  0  0  0  0
   59.1916   30.3816   53.7365 O   0  0  0  0  0  0  0  0  0  0  0  0
   54.3540   27.8353   53.7760 C   0  0  0  0  0  0  0  0  0  0  0  0
   55.1815   28.8617   53.5240 C   0  0  0  0  0  0  0  0  0  0  0  0
   54.8219   30.1145   53.0025 C   0  0  0  0  0  0  0  0  0  0  0  0
   53.6193   30.7010   52.8724 C   0  0  0  0  0  0  0  0  0  0  0  0
   55.9977   30.7327   52.6214 C   0  0  0  0  0  0  0  0  0  0  0  0
   57.0205   29.8924   52.9949 C   0  0  0  0  0  0  0  0  0  0  0  0
   56.5379   28.7689   53.5723 N   0  0  0  0  0  0  0  0  0  0  0  0
   57.3592   27.6363   54.0130 C   0  0  0  0  0  0  0  0  0  0  0  0
   52.8139   30.7432   51.6386 C   0  0  0  0  0  0  0  0  0  0  0  0
   52.8925   29.8427   50.6419 N   0  0  0  0  0  0  0  0  0  0  0  0
   51.8660   30.1827   49.8327 C   0  0  0  0  0  0  0  0  0  0  0  0
   51.6176   29.5683   48.7625 O   0  0  0  0  0  0  0  0  0  0  0  0
   51.1275   31.2258   50.2632 N   0  0  0  0  0  0  0  0  0  0  0  0
   51.7370   31.5581   51.4137 C   0  0  0  0  0  0  0  0  0  0  0  0
   51.3024   32.5808   52.2478 O   0  0  0  0  0  0  0  0  0  0  0  0
   59.0141   30.2353   51.4051 N   0  0  0  0  0  0  0  0  0  0  0  0
   60.3181   29.5525   51.2885 C   0  0  0  0  0  0  0  0  0  0  0  0
   60.8162   29.5351   49.8310 C   0  0  0  0  0  0  0  0  0  0  0  0
   60.3022   30.6573   49.0071 N   0  0  0  0  0  0  0  0  0  0  0  0
   60.0809   31.8757   49.8006 C   0  0  0  0  0  0  0  0  0  0  0  0
   59.1093   31.6523   50.9826 C   0  0  0  0  0  0  0  0  0  0  0  0
   59.6654   30.6141   50.7713 H   0  0  0  0  0  0  0  0  0  0  0  0
   59.1422   30.3079   48.1542 C   0  0  0  0  0  0  0  0  0  0  0  0
   59.4196   30.6582   46.7169 C   0  0  0  0  0  0  0  0  0  0  0  0
   60.2404   29.9492   46.0703 O   0  0  0  0  0  0  0  0  0  0  0  0
   58.7221   31.7290   46.0437 N   0  0  0  0  0  0  0  0  0  0  0  0
   58.1278   31.4674   44.7266 C   0  0  0  0  0  0  0  0  0  0  0  0
   58.7526   33.1067   46.5529 C   0  0  0  0  0  0  0  0  0  0  0  0
   58.9480   34.1541   45.4638 C   0  0  0  0  0  0  0  0  0  0  0  0
   60.0895   33.8266   46.4073 C   0  0  0  0  0  0  0  0  0  0  0  0
  3  4  2  0
  4  5  1  0
  5  6  2  0
  6 11  1  0
 11 12  1  0
 12 13  1  0
 13 14  2  0
 13 15  1  0
 15 16  1  0
 16 17  1  0
  5  7  1  0
  7  8  2  0
  8  1  1  0
  1  2  2  0
  1 18  1  0
 18 19  1  0
 19 20  1  0
 20 21  1  0
 21 25  1  0
 25 26  1  0
 26 27  2  0
 26 28  1  0
 28 29  1  0
 28 30  1  0
 30 31  1  0
 31 32  1  0
 21 22  1  0
 22 23  1  0
  8  9  1  0
  9 10  1  0
  9  4  1  0
 16 11  2  0
 23 18  1  0
 32 30  1  0
 18 24  1  0
M  CHG 1  12  -1
M  CHG 1  15  -1
M  CHG 1  17  -1
M  CHG 1  18   1
M  END
> <UniqueID>
32

> <SMILES>
C=c1c(=Cc2[n-]c(=O)[n-]c2[O-])cc(C(=O)[NH+]2CCN(CC(=O)N(C)C3CC3)CC2)n1C

> <Energy>
417.06150797637537

> <Genealogy>
C=c1c(=Cc2[n-]c(=O)[n-]c2[O-])cc(C(=O)[NH+]2CCN(CC(=O)N(C)C3CC3)CC2)n1C (protonated)
C=c1c(=Cc2[n-]c(=O)[n-]c2[O-])cc(C(=O)[NH+]2CCN(CC(=O)N(C)C3CC3)CC2)n1C (3D coordinates assigned)
C=c1c(=Cc2[n-]c(=O)[n-]c2[O-])cc(C(=O)[NH+]2CCN(CC(=O)N(C)C3CC3)CC2)n1C (nonaromatic ring conformer: 417.06150797637537 kcal/mol)

> <smiles>
C=c1c(=Cc2[nH]c(=O)[nH]c2O)cc(C(=O)N2CCN(CC(=O)N(C)C3CC3)CC2)n1C

> <score_type>
oracle

> <origin>
adg

> <m_score__min__energy>
-16.68

> <m_primary>
energy

> <minimizedAffinity>
-6.69035

> <minimizedRMSD>
1.02108

> <CNNscore>
0.0518668294

> <CNNaffinity>
5.1847443581

> <CNN_VS>
0.2689162493

> <CNNaffinity_variance>
0.6009718180

$$$$
46:0


 33 36  0  0  0  0  0  0  0  0999 V2000
   59.6075   30.0249   46.9909 C   0  0  0  0  0  0  0  0  0  0  0  0
   60.9021   30.4955   46.7305 C   0  0  0  0  0  0  0  0  0  0  0  0
   61.4880   31.4476   47.5699 C   0  0  0  0  0  0  0  0  0  0  0  0
   60.7828   31.9506   48.6772 C   0  0  0  0  0  0  0  0  0  0  0  0
   59.4933   31.4596   48.9468 C   0  0  0  0  0  0  0  0  0  0  0  0
   58.9079   30.5089   48.1054 C   0  0  0  0  0  0  0  0  0  0  0  0
   59.8724   27.0759   47.1216 C   0  0  0  0  0  0  0  0  0  0  0  0
   59.0751   27.6977   46.2383 C   0  0  0  0  0  0  0  0  0  0  0  0
   58.3447   27.1033   45.1954 C   0  0  0  0  0  0  0  0  0  0  0  0
   58.0602   25.8115   44.9387 C   0  0  0  0  0  0  0  0  0  0  0  0
   57.9023   28.1412   44.3934 C   0  0  0  0  0  0  0  0  0  0  0  0
   58.2953   29.3148   45.0026 C   0  0  0  0  0  0  0  0  0  0  0  0
   57.9992   30.6869   44.4779 C   0  0  0  0  0  0  0  0  0  0  0  0
   59.0064   29.0485   46.1225 N   0  0  0  0  0  0  0  0  0  0  0  0
   57.3432   24.8983   45.8440 C   0  0  0  0  0  0  0  0  0  0  0  0
   57.8835   23.8091   46.4218 N   0  0  0  0  0  0  0  0  0  0  0  0
   56.9084   23.3821   47.2539 C   0  0  0  0  0  0  0  0  0  0  0  0
   57.0316   22.3571   47.9738 O   0  0  0  0  0  0  0  0  0  0  0  0
   55.7954   24.1458   47.2616 N   0  0  0  0  0  0  0  0  0  0  0  0
   56.0933   25.1088   46.3747 C   0  0  0  0  0  0  0  0  0  0  0  0
   55.2448   26.1611   46.0606 O   0  0  0  0  0  0  0  0  0  0  0  0
   61.4119   32.9558   49.5621 C   0  0  0  0  0  0  0  0  0  0  0  0
   60.8786   34.0932   49.6683 O   0  0  0  0  0  0  0  0  0  0  0  0
   62.6131   32.6654   50.3050 N   0  0  0  0  0  0  0  0  0  0  0  0
   62.8707   31.3201   50.8318 C   0  0  0  0  0  0  0  0  0  0  0  0
   63.5225   31.4234   52.2137 C   0  0  0  0  0  0  0  0  0  0  0  0
   64.8019   32.1816   52.1849 N   0  0  0  0  0  0  0  0  0  0  0  0
   64.8730   33.2249   51.1210 C   0  0  0  0  0  0  0  0  0  0  0  0
   63.4957   33.7634   50.7068 C   0  0  0  0  0  0  0  0  0  0  0  0
   65.3387   32.5832   53.5298 C   0  0  0  0  0  0  0  0  0  0  0  0
   65.8889   31.3527   54.2994 C   0  0  0  0  0  0  0  0  0  0  0  0
   66.5352   33.5498   53.3461 C   0  0  0  0  0  0  0  0  0  0  0  0
   64.2591   33.2628   54.4045 C   0  0  0  0  0  0  0  0  0  0  0  0
  7  8  2  0
  8  9  1  0
  9 10  2  0
 10 15  1  0
 15 16  1  0
 16 17  1  0
 17 18  2  0
 17 19  1  0
 19 20  1  0
 20 21  1  0
  9 11  1  0
 11 12  2  0
 12 13  1  0
 12 14  1  0
 14  1  1  0
  1  2  2  0
  2  3  1  0
  3  4  2  0
  4 22  1  0
 22 23  2  0
 22 24  1  0
 24 25  1  0
 25 26  1  0
 26 27  1  0
 27 30  1  0
 30 31  1  0
 30 32  1  0
 30 33  1  0
 27 28  1  0
 28 29  1  0
  4  5  1  0
  5  6  2  0
 14  8  1  0
  6  1  1  0
 20 15  2  0
 29 24  1  0
M  CHG 1  16  -1
M  CHG 1  19  -1
M  CHG 1  21  -1
M  END
> <UniqueID>
45

> <SMILES>
C=c1c(=Cc2[n-]c(=O)[n-]c2[O-])cc(C)n1-c1ccc(C(=O)N2CCN(C(C)(C)C)CC2)cc1

> <Energy>
155.11243834617198

> <Genealogy>
C=c1c(=Cc2[n-]c(=O)[n-]c2[O-])cc(C)n1-c1ccc(C(=O)N2CCN(C(C)(C)C)CC2)cc1 (protonated)
C=c1c(=Cc2[n-]c(=O)[n-]c2[O-])cc(C)n1-c1ccc(C(=O)N2CCN(C(C)(C)C)CC2)cc1 (3D coordinates assigned)
C=c1c(=Cc2[n-]c(=O)[n-]c2[O-])cc(C)n1-c1ccc(C(=O)N2CCN(C(C)(C)C)CC2)cc1 (nonaromatic ring conformer: 155.11243834617198 kcal/mol)

> <smiles>
C=c1c(=Cc2[nH]c(=O)[nH]c2O)cc(C)n1-c1ccc(C(=O)N2CCN(C(C)(C)C)CC2)cc1

> <score_type>
oracle

> <origin>
adg

> <m_score__min__energy>
-16.66

> <m_primary>
energy

> <minimizedAffinity>
-8.38578

> <minimizedRMSD>
1.28198

> <CNNscore>
0.2000292093

> <CNNaffinity>
6.6480879784

> <CNN_VS>
1.3298118114

> <CNNaffinity_variance>
0.0411859192

$$$$
49:0


 31 34  0  0  0  0  0  0  0  0999 V2000
   60.9774   30.5452   47.1393 C   0  0  0  0  0  0  0  0  0  0  0  0
   60.6235   28.6607   44.8449 C   0  0  0  0  0  0  0  0  0  0  0  0
   59.9552   28.5229   46.0002 C   0  0  0  0  0  0  0  0  0  0  0  0
   59.0871   27.4756   46.3502 C   0  0  0  0  0  0  0  0  0  0  0  0
   58.5345   26.4969   45.6054 C   0  0  0  0  0  0  0  0  0  0  0  0
   58.8315   27.6208   47.7023 C   0  0  0  0  0  0  0  0  0  0  0  0
   59.4760   28.7697   48.1115 C   0  0  0  0  0  0  0  0  0  0  0  0
   59.4449   29.3036   49.5114 C   0  0  0  0  0  0  0  0  0  0  0  0
   60.1534   29.3256   47.0790 N   0  0  0  0  0  0  0  0  0  0  0  0
   57.6902   25.4051   46.1175 C   0  0  0  0  0  0  0  0  0  0  0  0
   58.1168   24.1514   46.3543 N   0  0  0  0  0  0  0  0  0  0  0  0
   56.9818   23.4905   46.6691 C   0  0  0  0  0  0  0  0  0  0  0  0
   56.9705   22.2702   46.9750 O   0  0  0  0  0  0  0  0  0  0  0  0
   55.8582   24.2375   46.6202 N   0  0  0  0  0  0  0  0  0  0  0  0
   56.3243   25.4430   46.2551 C   0  0  0  0  0  0  0  0  0  0  0  0
   55.5164   26.5529   46.0456 O   0  0  0  0  0  0  0  0  0  0  0  0
   60.1581   31.7665   46.7700 C   0  0  0  0  0  0  0  0  0  0  0  0
   58.8257   31.5801   46.3556 C   0  0  0  0  0  0  0  0  0  0  0  0
   58.0439   32.6670   45.9579 C   0  0  0  0  0  0  0  0  0  0  0  0
   58.5761   33.9536   45.9731 C   0  0  0  0  0  0  0  0  0  0  0  0
   59.8863   34.1625   46.4047 C   0  0  0  0  0  0  0  0  0  0  0  0
   60.6814   33.0855   46.8290 C   0  0  0  0  0  0  0  0  0  0  0  0
   62.0483   33.3793   47.3132 C   0  0  0  0  0  0  0  0  0  0  0  0
   62.9025   33.7922   46.4811 O   0  0  0  0  0  0  0  0  0  0  0  0
   62.4186   33.2196   48.7000 N   0  0  0  0  0  0  0  0  0  0  0  0
   61.6027   33.8296   49.7631 C   0  0  0  0  0  0  0  0  0  0  0  0
   61.5742   32.9181   50.9833 C   0  0  0  0  0  0  0  0  0  0  0  0
   62.9319   32.6334   51.4146 N   0  0  0  0  0  0  0  0  0  0  0  0
   63.9843   32.4451   50.4682 C   0  0  0  0  0  0  0  0  0  0  0  0
   65.1190   32.0758   50.8703 O   0  0  0  0  0  0  0  0  0  0  0  0
   63.7658   32.7022   49.0012 C   0  0  0  0  0  0  0  0  0  0  0  0
  2  3  2  0
  3  4  1  0
  4  5  2  0
  5 10  1  0
 10 11  1  0
 11 12  1  0
 12 13  2  0
 12 14  1  0
 14 15  1  0
 15 16  1  0
  4  6  1  0
  6  7  2  0
  7  8  1  0
  7  9  1  0
  9  1  1  0
  1 17  1  0
 17 18  2  0
 18 19  1  0
 19 20  2  0
 20 21  1  0
 21 22  2  0
 22 23  1  0
 23 24  2  0
 23 25  1  0
 25 26  1  0
 26 27  1  0
 27 28  1  0
 28 29  1  0
 29 30  2  0
 29 31  1  0
  9  3  1  0
 22 17  1  0
 31 25  1  0
 15 10  2  0
M  CHG 1  11  -1
M  CHG 1  14  -1
M  CHG 1  16  -1
M  CHG 1  28  -1
M  END
> <UniqueID>
48

> <SMILES>
C=c1c(=Cc2[n-]c(=O)[n-]c2[O-])cc(C)n1Cc1ccccc1C(=O)N1CC[N-]C(=O)C1

> <Energy>
128.05142795146344

> <Genealogy>
C=c1c(=Cc2[n-]c(=O)[n-]c2[O-])cc(C)n1Cc1ccccc1C(=O)N1CC[N-]C(=O)C1 (protonated)
C=c1c(=Cc2[n-]c(=O)[n-]c2[O-])cc(C)n1Cc1ccccc1C(=O)N1CC[N-]C(=O)C1 (3D coordinates assigned)
C=c1c(=Cc2[n-]c(=O)[n-]c2[O-])cc(C)n1Cc1ccccc1C(=O)N1CC[N-]C(=O)C1 (nonaromatic ring conformer: 128.05142795146344 kcal/mol)

> <smiles>
C=c1c(=Cc2[nH]c(=O)[nH]c2O)cc(C)n1Cc1ccccc1C(=O)N1CCNC(=O)C1

> <score_type>
oracle

> <origin>
adg

> <m_score__min__energy>
-17.02

> <m_primary>
energy

> <minimizedAffinity>
-9.36550

> <minimizedRMSD>
0.73991

> <CNNscore>
0.4123235643

> <CNNaffinity>
6.9209837914

> <CNN_VS>
2.8536846638

> <CNNaffinity_variance>
0.0781342983

$$$$
51:0


 34 38  0  0  0  0  0  0  0  0999 V2000
   57.2832   29.0580   53.8337 C   0  0  0  0  0  0  0  0  0  0  0  0
   57.9120   29.3205   55.0585 C   0  0  0  0  0  0  0  0  0  0  0  0
   59.2369   29.7568   55.0859 C   0  0  0  0  0  0  0  0  0  0  0  0
   59.9437   29.9342   53.8925 C   0  0  0  0  0  0  0  0  0  0  0  0
   59.3302   29.6632   52.6579 C   0  0  0  0  0  0  0  0  0  0  0  0
   57.9912   29.2401   52.6371 C   0  0  0  0  0  0  0  0  0  0  0  0
   54.9152   30.6189   52.9511 C   0  0  0  0  0  0  0  0  0  0  0  0
   54.8272   29.3674   53.4264 C   0  0  0  0  0  0  0  0  0  0  0  0
   53.6750   28.5678   53.5117 C   0  0  0  0  0  0  0  0  0  0  0  0
   52.3748   28.8638   53.3238 C   0  0  0  0  0  0  0  0  0  0  0  0
   54.1081   27.3042   53.8813 C   0  0  0  0  0  0  0  0  0  0  0  0
   55.4733   27.3845   54.0636 C   0  0  0  0  0  0  0  0  0  0  0  0
   56.3462   26.2489   54.5030 C   0  0  0  0  0  0  0  0  0  0  0  0
   55.9093   28.6352   53.8002 N   0  0  0  0  0  0  0  0  0  0  0  0
   51.8553   30.0699   52.6605 C   0  0  0  0  0  0  0  0  0  0  0  0
   51.9721   30.3321   51.3459 N   0  0  0  0  0  0  0  0  0  0  0  0
   51.4900   31.5898   51.2340 C   0  0  0  0  0  0  0  0  0  0  0  0
   51.4198   32.1927   50.1319 O   0  0  0  0  0  0  0  0  0  0  0  0
   51.1030   32.1524   52.3980 N   0  0  0  0  0  0  0  0  0  0  0  0
   51.3540   31.1816   53.2925 C   0  0  0  0  0  0  0  0  0  0  0  0
   51.1353   31.3070   54.6610 O   0  0  0  0  0  0  0  0  0  0  0  0
   50.7887   32.1050   55.0089 H   0  0  0  0  0  0  0  0  0  0  0  0
   60.0666   29.8568   51.3879 C   0  0  0  0  0  0  0  0  0  0  0  0
   60.6324   28.8665   50.8503 O   0  0  0  0  0  0  0  0  0  0  0  0
   60.1493   31.1465   50.7480 N   0  0  0  0  0  0  0  0  0  0  0  0
   60.2418   32.3811   51.5333 C   0  0  0  0  0  0  0  0  0  0  0  0
   61.3382   33.2763   50.9481 C   0  0  0  0  0  0  0  0  0  0  0  0
   61.1666   33.5350   49.4914 N   0  0  0  0  0  0  0  0  0  0  0  0
   60.1797   32.6725   48.7977 C   0  0  0  0  0  0  0  0  0  0  0  0
   60.2201   31.2174   49.2846 C   0  0  0  0  0  0  0  0  0  0  0  0
   62.3971   33.7448   48.6803 C   0  0  0  0  0  0  0  0  0  0  0  0
   62.3365   33.2703   47.2426 C   0  0  0  0  0  0  0  0  0  0  0  0
   63.3241   32.2886   47.4564 O   0  0  0  0  0  0  0  0  0  0  0  0
   63.4613   32.6732   48.8073 C   0  0  0  0  0  0  0  0  0  0  0  0
  7  8  2  0
  8  9  1  0
  9 10  2  0
 10 15  1  0
 15 16  1  0
 16 17  1  0
 17 18  2  0
 17 19  1  0
 19 20  1  0
 20 21  1  0
  9 11  1  0
 11 12  2  0
 12 13  1  0
 12 14  1  0
 14  1  1  0
  1  2  2  0
  2  3  1  0
  3  4  2  0
  4  5  1  0
  5 23  1  0
 23 24  2  0
 23 25  1  0
 25 26  1  0
 26 27  1  0
 27 28  1  0
 28 31  1  0
 31 32  1  0
 32 33  1  0
 33 34  1  0
 28 29  1  0
 29 30  1  0
  5  6  2  0
 14  8  1  0
  6  1  1  0
 20 15  2  0
 30 25  1  0
 34 31  1  0
 21 22  1  0
M  CHG 1  16  -1
M  CHG 1  19  -1
M  END
> <UniqueID>
49

> <SMILES>
C=c1c(=Cc2[n-]c(=O)[n-]c2O)cc(C)n1-c1cccc(C(=O)N2CCN(C3COC3)CC2)c1

> <Energy>
219.01207634225906

> <Genealogy>
C=c1c(=Cc2[n-]c(=O)[n-]c2O)cc(C)n1-c1cccc(C(=O)N2CCN(C3COC3)CC2)c1 (protonated)
C=c1c(=Cc2[n-]c(=O)[n-]c2O)cc(C)n1-c1cccc(C(=O)N2CCN(C3COC3)CC2)c1 (3D coordinates assigned)
C=c1c(=Cc2[n-]c(=O)[n-]c2O)cc(C)n1-c1cccc(C(=O)N2CCN(C3COC3)CC2)c1 (nonaromatic ring conformer: 219.01207634225906 kcal/mol)

> <smiles>
C=c1c(=Cc2[nH]c(=O)[nH]c2O)cc(C)n1-c1cccc(C(=O)N2CCN(C3COC3)CC2)c1

> <score_type>
oracle

> <origin>
adg

> <m_score__min__energy>
-15.029999999999999

> <m_primary>
energy

> <minimizedAffinity>
-6.66886

> <minimizedRMSD>
0.94661

> <CNNscore>
0.0435974449

> <CNNaffinity>
4.4119486809

> <CNN_VS>
0.1923496872

> <CNNaffinity_variance>
0.7131900787

$$$$
54:0


 30 33  0  0  0  0  0  0  0  0999 V2000
   56.6800   30.1922   43.3264 C   0  0  0  0  0  0  0  0  0  0  0  0
   57.3632   29.7469   44.3810 C   0  0  0  0  0  0  0  0  0  0  0  0
   57.5154   28.4378   44.6627 N   0  0  0  0  0  0  0  0  0  0  0  0
   58.2209   28.3680   45.8119 C   0  0  0  0  0  0  0  0  0  0  0  0
   58.5659   27.2455   46.4654 C   0  0  0  0  0  0  0  0  0  0  0  0
   58.5223   29.6416   46.2647 C   0  0  0  0  0  0  0  0  0  0  0  0
   57.9891   30.5227   45.3460 C   0  0  0  0  0  0  0  0  0  0  0  0
   57.1777   27.6796   44.1334 H   0  0  0  0  0  0  0  0  0  0  0  0
   58.1037   25.8773   46.1490 C   0  0  0  0  0  0  0  0  0  0  0  0
   58.8902   24.8058   45.9447 N   0  0  0  0  0  0  0  0  0  0  0  0
   58.0129   23.8050   45.7280 C   0  0  0  0  0  0  0  0  0  0  0  0
   58.3750   22.6258   45.4813 O   0  0  0  0  0  0  0  0  0  0  0  0
   56.7135   24.1668   45.7950 N   0  0  0  0  0  0  0  0  0  0  0  0
   56.7914   25.4796   46.0651 C   0  0  0  0  0  0  0  0  0  0  0  0
   55.6821   26.2982   46.2352 O   0  0  0  0  0  0  0  0  0  0  0  0
   57.9941   32.0175   45.4797 C   0  0  0  0  0  0  0  0  0  0  0  0
   58.8852   32.4350   46.6065 C   0  0  0  0  0  0  0  0  0  0  0  0
   60.2296   32.7753   46.5020 C   0  0  0  0  0  0  0  0  0  0  0  0
   60.8126   33.1149   47.7303 C   0  0  0  0  0  0  0  0  0  0  0  0
   59.9316   33.0218   48.8014 C   0  0  0  0  0  0  0  0  0  0  0  0
   58.4252   32.5456   48.2196 S   0  0  0  0  0  0  0  0  0  0  0  0
   60.2419   33.3383   50.2054 C   0  0  0  0  0  0  0  0  0  0  0  0
   59.5054   34.1384   50.8411 O   0  0  0  0  0  0  0  0  0  0  0  0
   61.3515   32.7170   50.8677 N   0  0  0  0  0  0  0  0  0  0  0  0
   61.1704   32.1733   52.2154 C   0  0  0  0  0  0  0  0  0  0  0  0
   62.3923   31.3364   52.6313 C   0  0  0  0  0  0  0  0  0  0  0  0
   62.9525   30.5729   51.4942 N   0  0  0  0  0  0  0  0  0  0  0  0
   62.0342   29.5187   51.0282 C   0  0  0  0  0  0  0  0  0  0  0  0
   63.4186   31.4425   50.3823 C   0  0  0  0  0  0  0  0  0  0  0  0
   62.7011   32.8045   50.3046 C   0  0  0  0  0  0  0  0  0  0  0  0
  1  2  2  0
  2  3  1  0
  3  4  1  0
  4  5  2  0
  5  9  1  0
  9 10  1  0
 10 11  1  0
 11 12  2  0
 11 13  1  0
 13 14  1  0
 14 15  1  0
  4  6  1  0
  6  7  2  0
  7 16  1  0
 16 17  1  0
 17 18  2  0
 18 19  1  0
 19 20  2  0
 20 22  1  0
 22 23  2  0
 22 24  1  0
 24 25  1  0
 25 26  1  0
 26 27  1  0
 27 28  1  0
 27 29  1  0
 29 30  1  0
 20 21  1  0
  7  2  1  0
 21 17  1  0
 14  9  2  0
 30 24  1  0
  3  8  1  0
M  CHG 1  10  -1
M  CHG 1  13  -1
M  CHG 1  15  -1
M  END
> <UniqueID>
52

> <SMILES>
C=c1[nH]c(=Cc2[n-]c(=O)[n-]c2[O-])cc1Cc1ccc(C(=O)N2CCN(C)CC2)s1

> <Energy>
144.39715743929005

> <Genealogy>
C=c1[nH]c(=Cc2[n-]c(=O)[n-]c2[O-])cc1Cc1ccc(C(=O)N2CCN(C)CC2)s1 (protonated)
C=c1[nH]c(=Cc2[n-]c(=O)[n-]c2[O-])cc1Cc1ccc(C(=O)N2CCN(C)CC2)s1 (3D coordinates assigned)
C=c1[nH]c(=Cc2[n-]c(=O)[n-]c2[O-])cc1Cc1ccc(C(=O)N2CCN(C)CC2)s1 (nonaromatic ring conformer: 144.39715743929005 kcal/mol)

> <smiles>
C=c1[nH]c(=Cc2[nH]c(=O)[nH]c2O)cc1Cc1ccc(C(=O)N2CCN(C)CC2)s1

> <score_type>
oracle

> <origin>
adg

> <m_score__min__energy>
-17.620000000000001

> <m_primary>
energy

> <minimizedAffinity>
-7.75748

> <minimizedRMSD>
1.47533

> <CNNscore>
0.2729403377

> <CNNaffinity>
6.7874093056

> <CNN_VS>
1.8525577784

> <CNNaffinity_variance>
0.0871335864

$$$$
74:0


 33 36  0  0  0  0  0  0  0  0999 V2000
   58.4684   28.8351   44.8090 C   0  0  0  0  0  0  0  0  0  0  0  0
   57.2619   28.8598   44.0948 C   0  0  0  0  0  0  0  0  0  0  0  0
   56.4289   29.9780   44.1580 C   0  0  0  0  0  0  0  0  0  0  0  0
   56.7953   31.0850   44.9268 C   0  0  0  0  0  0  0  0  0  0  0  0
   58.0086   31.0889   45.6392 C   0  0  0  0  0  0  0  0  0  0  0  0
   58.8352   29.9522   45.5784 C   0  0  0  0  0  0  0  0  0  0  0  0
   58.4158   32.2525   46.4688 C   0  0  0  0  0  0  0  0  0  0  0  0
   57.5700   33.1662   46.6849 O   0  0  0  0  0  0  0  0  0  0  0  0
   59.7613   32.3765   46.9986 N   0  0  0  0  0  0  0  0  0  0  0  0
   59.7476   32.3891   48.4797 C   0  0  0  0  0  0  0  0  0  0  0  0
   61.1279   32.7619   49.0669 C   0  0  0  0  0  0  0  0  0  0  0  0
   62.1706   32.7365   48.0217 N   0  0  0  0  0  0  0  0  0  0  0  0
   61.8561   33.7306   46.9722 C   0  0  0  0  0  0  0  0  0  0  0  0
   60.3978   33.6001   46.4746 C   0  0  0  0  0  0  0  0  0  0  0  0
   60.0075   32.0164   47.8811 H   0  0  0  0  0  0  0  0  0  0  0  0
   63.5113   32.9928   48.5899 C   0  0  0  0  0  0  0  0  0  0  0  0
   63.7761   32.0742   49.7796 C   0  0  0  0  0  0  0  0  0  0  0  0
   59.3546   27.6178   44.7576 C   0  0  0  0  0  0  0  0  0  0  0  0
   57.9165   25.1117   43.8371 C   0  0  0  0  0  0  0  0  0  0  0  0
   58.0586   25.4507   45.1295 C   0  0  0  0  0  0  0  0  0  0  0  0
   57.6338   24.6985   46.2384 C   0  0  0  0  0  0  0  0  0  0  0  0
   56.8368   23.6150   46.3235 C   0  0  0  0  0  0  0  0  0  0  0  0
   58.1799   25.3098   47.3536 C   0  0  0  0  0  0  0  0  0  0  0  0
   58.8470   26.4303   46.9086 C   0  0  0  0  0  0  0  0  0  0  0  0
   59.5292   27.4165   47.8095 C   0  0  0  0  0  0  0  0  0  0  0  0
   58.7772   26.5252   45.5601 N   0  0  0  0  0  0  0  0  0  0  0  0
   55.3789   23.6043   46.1198 C   0  0  0  0  0  0  0  0  0  0  0  0
   54.6408   22.4967   45.9217 N   0  0  0  0  0  0  0  0  0  0  0  0
   53.4108   22.9861   45.6554 C   0  0  0  0  0  0  0  0  0  0  0  0
   52.4211   22.2436   45.4249 O   0  0  0  0  0  0  0  0  0  0  0  0
   53.3273   24.3346   45.6465 N   0  0  0  0  0  0  0  0  0  0  0  0
   54.5853   24.7080   45.9269 C   0  0  0  0  0  0  0  0  0  0  0  0
   55.0006   26.0320   45.9973 O   0  0  0  0  0  0  0  0  0  0  0  0
 19 20  2  0
 20 21  1  0
 21 22  2  0
 22 27  1  0
 27 28  1  0
 28 29  1  0
 29 30  2  0
 29 31  1  0
 31 32  1  0
 32 33  1  0
 21 23  1  0
 23 24  2  0
 24 25  1  0
 24 26  1  0
 26 18  1  0
 18  1  1  0
  1  2  2  0
  2  3  1  0
  3  4  2  0
  4  5  1  0
  5  7  1  0
  7  8  2  0
  7  9  1  0
  9 10  1  0
 10 11  1  0
 11 12  1  0
 12 16  1  0
 16 17  1  0
 12 13  1  0
 13 14  1  0
  5  6  2  0
 26 20  1  0
  6  1  1  0
 32 27  2  0
 14  9  1  0
  9 15  1  0
M  CHG 1   9   1
M  CHG 1  28  -1
M  CHG 1  31  -1
M  CHG 1  33  -1
M  END
> <UniqueID>
69

> <SMILES>
C=c1/c(=C\c2[n-]c(=O)[n-]c2[O-])cc(C)n1Cc1cccc(C(=O)[NH+]2CCN(CC)CC2)c1

> <Energy>
142.1036676284528

> <Genealogy>
C=c1c(=Cc2[n-]c(=O)[n-]c2[O-])cc(C)n1Cc1cccc(C(=O)[NH+]2CCN(CC)CC2)c1 (protonated)
C=c1/c(=C\c2[n-]c(=O)[n-]c2[O-])cc(C)n1Cc1cccc(C(=O)[NH+]2CCN(CC)CC2)c1 (cis-trans isomerization)
C=c1/c(=C\c2[n-]c(=O)[n-]c2[O-])cc(C)n1Cc1cccc(C(=O)[NH+]2CCN(CC)CC2)c1 (3D coordinates assigned)
C=c1/c(=C\c2[n-]c(=O)[n-]c2[O-])cc(C)n1Cc1cccc(C(=O)[NH+]2CCN(CC)CC2)c1 (nonaromatic ring conformer: 142.1036676284528 kcal/mol)

> <smiles>
C=c1c(=Cc2[nH]c(=O)[nH]c2O)cc(C)n1Cc1cccc(C(=O)N2CCN(CC)CC2)c1

> <score_type>
oracle

> <origin>
adg

> <m_score__min__energy>
-16.399999999999999

> <m_primary>
energy

> <minimizedAffinity>
-7.05644

> <minimizedRMSD>
0.82780

> <CNNscore>
0.0570805036

> <CNNaffinity>
5.8422980309

> <CNN_VS>
0.3334813118

> <CNNaffinity_variance>
0.3624443114

$$$$
79:0


 23 25  0  0  0  0  0  0  0  0999 V2000
   55.7026   29.8224   54.2155 C   0  0  0  0  0  0  0  0  0  0  0  0
   55.4675   29.9987   55.4404 O   0  0  0  0  0  0  0  0  0  0  0  0
   55.0438   28.7162   53.4914 C   0  0  0  0  0  0  0  0  0  0  0  0
   53.7160   28.5615   53.3903 C   0  0  0  0  0  0  0  0  0  0  0  0
   52.7411   29.6651   53.2521 C   0  0  0  0  0  0  0  0  0  0  0  0
   52.0308   30.0987   54.3815 C   0  0  0  0  0  0  0  0  0  0  0  0
   51.1382   31.1715   54.2847 C   0  0  0  0  0  0  0  0  0  0  0  0
   50.9654   31.8345   53.0663 C   0  0  0  0  0  0  0  0  0  0  0  0
   50.0765   32.8992   52.9776 O   0  0  0  0  0  0  0  0  0  0  0  0
   51.6928   31.4285   51.9407 C   0  0  0  0  0  0  0  0  0  0  0  0
   51.5384   32.0944   50.7308 O   0  0  0  0  0  0  0  0  0  0  0  0
   52.5813   30.3529   52.0353 C   0  0  0  0  0  0  0  0  0  0  0  0
   56.5904   30.7247   53.5448 N   0  0  0  0  0  0  0  0  0  0  0  0
   56.6294   30.9239   52.0975 C   0  0  0  0  0  0  0  0  0  0  0  0
   57.7710   31.8334   51.7247 C   0  0  0  0  0  0  0  0  0  0  0  0
   58.1827   32.8573   52.5899 C   0  0  0  0  0  0  0  0  0  0  0  0
   59.2100   33.7193   52.1962 C   0  0  0  0  0  0  0  0  0  0  0  0
   59.7988   33.5665   50.9815 N   0  0  0  0  0  0  0  0  0  0  0  0
   59.4247   32.5800   50.1246 C   0  0  0  0  0  0  0  0  0  0  0  0
   58.4107   31.6873   50.4852 C   0  0  0  0  0  0  0  0  0  0  0  0
   60.0484   32.4738   48.8506 N   0  0  0  0  0  0  0  0  0  0  0  0
   60.8062   33.0402   47.6947 C   0  0  0  0  0  0  0  0  0  0  0  0
   60.4367   31.7143   47.6264 C   0  0  0  0  0  0  0  0  0  0  0  0
  3  1  1  0
  1  2  2  0
  1 13  1  0
 13 14  1  0
 14 15  1  0
 15 16  2  0
 16 17  1  0
 17 18  2  0
 18 19  1  0
 19 21  1  0
 21 22  1  0
 22 23  1  0
 19 20  2  0
  3  4  2  0
  4  5  1  0
  5  6  2  0
  6  7  1  0
  7  8  2  0
  8  9  1  0
  8 10  1  0
 10 11  1  0
 10 12  2  0
 20 15  1  0
 12  5  1  0
 23 21  1  0
M  CHG 1   9  -1
M  CHG 1  11  -1
M  CHG 1  13  -1
M  END
> <UniqueID>
73

> <SMILES>
O=C(/C=C\c1ccc([O-])c([O-])c1)[N-]Cc1ccnc(N2CC2)c1

> <Energy>
275.0071467548061

> <Genealogy>
O=C(C=Cc1ccc([O-])c([O-])c1)[N-]Cc1ccnc(N2CC2)c1 (protonated)
O=C(/C=C\c1ccc([O-])c([O-])c1)[N-]Cc1ccnc(N2CC2)c1 (cis-trans isomerization)
O=C(/C=C\c1ccc([O-])c([O-])c1)[N-]Cc1ccnc(N2CC2)c1 (3D coordinates assigned)
O=C(/C=C\c1ccc([O-])c([O-])c1)[N-]Cc1ccnc(N2CC2)c1 (nonaromatic ring conformer: 275.0071467548061 kcal/mol)

> <smiles>
O=C(C=Cc1ccc(O)c(O)c1)NCc1ccnc(N2CC2)c1

> <score_type>
oracle

> <origin>
adg

> <m_score__min__energy>
-16.649999999999999

> <m_primary>
energy

> <minimizedAffinity>
-5.72989

> <minimizedRMSD>
1.03612

> <CNNscore>
0.2890289128

> <CNNaffinity>
4.6232209206

> <CNN_VS>
1.3362444639

> <CNNaffinity_variance>
0.3597185612

$$$$
13:0


 29 31  0  0  0  0  0  0  0  0999 V2000
   58.0092   26.7807   43.2861 C   0  0  0  0  0  0  0  0  0  0  0  0
   58.3413   27.6619   44.2478 C   0  0  0  0  0  0  0  0  0  0  0  0
   58.4977   28.9702   43.8772 N   0  0  0  0  0  0  0  0  0  0  0  0
   58.6029   29.9771   44.7797 C   0  0  0  0  0  0  0  0  0  0  0  0
   58.5443   29.7082   46.1485 C   0  0  0  0  0  0  0  0  0  0  0  0
   58.4602   28.3777   46.5658 C   0  0  0  0  0  0  0  0  0  0  0  0
   58.4230   27.3180   45.6381 C   0  0  0  0  0  0  0  0  0  0  0  0
   58.4948   26.0590   46.1454 C   0  0  0  0  0  0  0  0  0  0  0  0
   58.5353   29.1889   42.9181 H   0  0  0  0  0  0  0  0  0  0  0  0
   57.5172   24.9652   45.9422 C   0  0  0  0  0  0  0  0  0  0  0  0
   56.1437   25.2165   46.0790 C   0  0  0  0  0  0  0  0  0  0  0  0
   55.6829   26.4987   46.3561 O   0  0  0  0  0  0  0  0  0  0  0  0
   55.2492   24.2049   45.9303 N   0  0  0  0  0  0  0  0  0  0  0  0
   55.6610   22.9377   45.6649 C   0  0  0  0  0  0  0  0  0  0  0  0
   54.8144   22.0172   45.5240 O   0  0  0  0  0  0  0  0  0  0  0  0
   56.9861   22.6617   45.5605 N   0  0  0  0  0  0  0  0  0  0  0  0
   57.9207   23.6378   45.7040 C   0  0  0  0  0  0  0  0  0  0  0  0
   59.1421   23.3362   45.6320 O   0  0  0  0  0  0  0  0  0  0  0  0
   58.6353   30.8063   47.1365 C   0  0  0  0  0  0  0  0  0  0  0  0
   57.9274   31.8395   46.9794 O   0  0  0  0  0  0  0  0  0  0  0  0
   59.5138   30.7157   48.2721 N   0  0  0  0  0  0  0  0  0  0  0  0
   60.9197   30.3538   48.0599 C   0  0  0  0  0  0  0  0  0  0  0  0
   61.7173   30.4576   49.3610 C   0  0  0  0  0  0  0  0  0  0  0  0
   60.9507   29.8037   50.4429 N   0  0  0  0  0  0  0  0  0  0  0  0
   59.7254   30.5953   50.7538 C   0  0  0  0  0  0  0  0  0  0  0  0
   59.1136   31.3331   49.5397 C   0  0  0  0  0  0  0  0  0  0  0  0
   61.7799   29.5625   51.6643 C   0  0  0  0  0  0  0  0  0  0  0  0
   61.8784   28.0559   51.9921 C   0  0  0  0  0  0  0  0  0  0  0  0
   63.2186   30.1005   51.4879 C   0  0  0  0  0  0  0  0  0  0  0  0
  1  2  2  0
  2  3  1  0
  3  4  2  0
  4  5  1  0
  5 19  1  0
 19 20  2  0
 19 21  1  0
 21 22  1  0
 22 23  1  0
 23 24  1  0
 24 27  1  0
 27 28  1  0
 27 29  1  0
 24 25  1  0
 25 26  1  0
  5  6  2  0
  6  7  1  0
  7  8  2  0
  8 10  1  0
 10 11  2  0
 11 12  1  0
 11 13  1  0
 13 14  1  0
 14 15  2  0
 14 16  1  0
 16 17  1  0
 17 18  2  0
  7  2  1  0
 17 10  1  0
 26 21  1  0
  3  9  1  0
M  CHG 1   3   1
M  CHG 1  12  -1
M  CHG 1  13  -1
M  CHG 1  16  -1
M  END
> <UniqueID>
14

> <SMILES>
C=c1[nH+]cc(C(=O)N2CCN(C(C)C)CC2)cc1=Cc1c([O-])[n-]c(=O)[n-]c1=O

> <Energy>
88.02453507211115

> <Genealogy>
C=c1[nH+]cc(C(=O)N2CCN(C(C)C)CC2)cc1=Cc1c([O-])[n-]c(=O)[n-]c1=O (protonated)
C=c1[nH+]cc(C(=O)N2CCN(C(C)C)CC2)cc1=Cc1c([O-])[n-]c(=O)[n-]c1=O (3D coordinates assigned)
C=c1[nH+]cc(C(=O)N2CCN(C(C)C)CC2)cc1=Cc1c([O-])[n-]c(=O)[n-]c1=O (nonaromatic ring conformer: 88.02453507211115 kcal/mol)

> <smiles>
C=c1ncc(C(=O)N2CCN(C(C)C)CC2)cc1=Cc1c(O)[nH]c(=O)[nH]c1=O

> <score_type>
oracle

> <origin>
adg

> <m_score__min__energy>
-14.970000000000001

> <m_primary>
energy

> <minimizedAffinity>
-7.27277

> <minimizedRMSD>
3.01240

> <CNNscore>
0.1296371818

> <CNNaffinity>
5.8344492912

> <CNN_VS>
0.7563615441

> <CNNaffinity_variance>
0.8574824929

$$$$
17:0


 29 32  0  0  0  0  0  0  0  0999 V2000
   59.6591   29.6643   48.7380 C   0  0  0  0  0  0  0  0  0  0  0  0
   59.4363   30.1669   47.5134 C   0  0  0  0  0  0  0  0  0  0  0  0
   59.4397   29.4490   46.3052 C   0  0  0  0  0  0  0  0  0  0  0  0
   59.8558   28.2001   46.0187 C   0  0  0  0  0  0  0  0  0  0  0  0
   58.9397   30.3043   45.3419 C   0  0  0  0  0  0  0  0  0  0  0  0
   58.7180   31.5164   45.9602 C   0  0  0  0  0  0  0  0  0  0  0  0
   58.2522   32.7510   45.2472 C   0  0  0  0  0  0  0  0  0  0  0  0
   59.0211   31.4436   47.2784 N   0  0  0  0  0  0  0  0  0  0  0  0
   59.0083   26.9942   46.0001 C   0  0  0  0  0  0  0  0  0  0  0  0
   59.4606   25.7385   46.1696 N   0  0  0  0  0  0  0  0  0  0  0  0
   58.3670   24.9797   45.9344 C   0  0  0  0  0  0  0  0  0  0  0  0
   58.3829   23.7240   46.0127 O   0  0  0  0  0  0  0  0  0  0  0  0
   57.2590   25.6733   45.5976 N   0  0  0  0  0  0  0  0  0  0  0  0
   57.6870   26.9461   45.6301 C   0  0  0  0  0  0  0  0  0  0  0  0
   56.8886   28.0391   45.3225 O   0  0  0  0  0  0  0  0  0  0  0  0
   58.9449   32.5661   48.2293 C   0  0  0  0  0  0  0  0  0  0  0  0
   60.2854   32.8017   48.8755 C   0  0  0  0  0  0  0  0  0  0  0  0
   60.3945   32.9081   50.2704 C   0  0  0  0  0  0  0  0  0  0  0  0
   61.6356   33.1456   50.8672 C   0  0  0  0  0  0  0  0  0  0  0  0
   62.7919   33.2743   50.0796 C   0  0  0  0  0  0  0  0  0  0  0  0
   62.6799   33.1732   48.6823 C   0  0  0  0  0  0  0  0  0  0  0  0
   61.4386   32.9363   48.0867 C   0  0  0  0  0  0  0  0  0  0  0  0
   64.0697   33.5351   50.6927 N   0  0  0  0  0  0  0  0  0  0  0  0
   64.1817   34.4010   51.8716 C   0  0  0  0  0  0  0  0  0  0  0  0
   64.9859   33.6995   52.9856 C   0  0  0  0  0  0  0  0  0  0  0  0
   65.9564   32.7048   52.4849 N   0  0  0  0  0  0  0  0  0  0  0  0
   66.4445   33.0206   51.1367 C   0  0  0  0  0  0  0  0  0  0  0  0
   65.2936   32.9599   50.1216 C   0  0  0  0  0  0  0  0  0  0  0  0
   65.5049   31.7904   52.4629 H   0  0  0  0  0  0  0  0  0  0  0  0
  1  2  2  0
  2  3  1  0
  3  4  2  0
  4  9  1  0
  9 10  1  0
 10 11  1  0
 11 12  2  0
 11 13  1  0
 13 14  1  0
 14 15  1  0
  3  5  1  0
  5  6  2  0
  6  7  1  0
  6  8  1  0
  8 16  1  0
 16 17  1  0
 17 18  2  0
 18 19  1  0
 19 20  2  0
 20 23  1  0
 23 24  1  0
 24 25  1  0
 25 26  1  0
 26 27  1  0
 27 28  1  0
 20 21  1  0
 21 22  2  0
  8  2  1  0
 22 17  1  0
 14  9  2  0
 28 23  1  0
 26 29  1  0
M  CHG 1  10  -1
M  CHG 1  13  -1
M  CHG 1  15  -1
M  END
> <UniqueID>
17

> <SMILES>
C=c1/c(=C\c2[n-]c(=O)[n-]c2[O-])cc(C)n1Cc1ccc(N2CCNCC2)cc1

> <Energy>
129.7631251256937

> <Genealogy>
C=c1c(=Cc2[n-]c(=O)[n-]c2[O-])cc(C)n1Cc1ccc(N2CCNCC2)cc1 (protonated)
C=c1/c(=C\c2[n-]c(=O)[n-]c2[O-])cc(C)n1Cc1ccc(N2CCNCC2)cc1 (cis-trans isomerization)
C=c1/c(=C\c2[n-]c(=O)[n-]c2[O-])cc(C)n1Cc1ccc(N2CCNCC2)cc1 (3D coordinates assigned)
C=c1/c(=C\c2[n-]c(=O)[n-]c2[O-])cc(C)n1Cc1ccc(N2CCNCC2)cc1 (nonaromatic ring conformer: 129.7631251256937 kcal/mol)

> <smiles>
C=c1c(=Cc2[nH]c(=O)[nH]c2O)cc(C)n1Cc1ccc(N2CCNCC2)cc1

> <score_type>
oracle

> <origin>
adg

> <m_score__min__energy>
-16.699999999999999

> <m_primary>
energy

> <minimizedAffinity>
-7.67802

> <minimizedRMSD>
1.64707

> <CNNscore>
0.4820732474

> <CNNaffinity>
6.7934479713

> <CNN_VS>
3.2749395370

> <CNNaffinity_variance>
0.2155520171

$$$$
20:0


 34 37  0  0  0  0  0  0  0  0999 V2000
   58.1720   28.9611   53.4367 C   0  0  0  0  0  0  0  0  0  0  0  0
   58.9646   28.1704   54.0201 O   0  0  0  0  0  0  0  0  0  0  0  0
   58.7076   30.0589   52.6729 N   0  0  0  0  0  0  0  0  0  0  0  0
   58.0484   30.5168   51.4435 C   0  0  0  0  0  0  0  0  0  0  0  0
   59.0878   30.7629   50.3453 C   0  0  0  0  0  0  0  0  0  0  0  0
   60.2005   31.5981   50.8269 N   0  0  0  0  0  0  0  0  0  0  0  0
   61.0861   32.2417   49.8859 C   0  0  0  0  0  0  0  0  0  0  0  0
   61.7362   33.2638   50.2403 O   0  0  0  0  0  0  0  0  0  0  0  0
   60.3160   31.9092   52.2599 C   0  0  0  0  0  0  0  0  0  0  0  0
   59.9676   30.6795   53.1077 C   0  0  0  0  0  0  0  0  0  0  0  0
   52.6998   27.8273   53.7829 C   0  0  0  0  0  0  0  0  0  0  0  0
   53.9662   28.2624   53.8176 C   0  0  0  0  0  0  0  0  0  0  0  0
   54.8924   27.4040   54.3285 N   0  0  0  0  0  0  0  0  0  0  0  0
   56.2269   27.6232   54.2490 C   0  0  0  0  0  0  0  0  0  0  0  0
   56.7141   28.7406   53.5662 C   0  0  0  0  0  0  0  0  0  0  0  0
   55.7955   29.6723   53.0675 C   0  0  0  0  0  0  0  0  0  0  0  0
   54.4065   29.4984   53.2433 C   0  0  0  0  0  0  0  0  0  0  0  0
   53.6039   30.5304   52.8757 C   0  0  0  0  0  0  0  0  0  0  0  0
   52.6967   30.5623   51.7150 C   0  0  0  0  0  0  0  0  0  0  0  0
   52.8166   29.7414   50.6579 N   0  0  0  0  0  0  0  0  0  0  0  0
   51.8688   30.1868   49.8042 C   0  0  0  0  0  0  0  0  0  0  0  0
   51.6583   29.6512   48.6847 O   0  0  0  0  0  0  0  0  0  0  0  0
   51.1715   31.2569   50.2399 N   0  0  0  0  0  0  0  0  0  0  0  0
   51.7167   31.4917   51.4451 C   0  0  0  0  0  0  0  0  0  0  0  0
   51.3462   32.5531   52.2639 O   0  0  0  0  0  0  0  0  0  0  0  0
   61.1988   31.7624   48.4590 C   0  0  0  0  0  0  0  0  0  0  0  0
   60.1643   32.4109   47.5750 C   0  0  0  0  0  0  0  0  0  0  0  0
   59.3224   31.6246   46.7695 C   0  0  0  0  0  0  0  0  0  0  0  0
   58.3435   32.2281   45.9741 C   0  0  0  0  0  0  0  0  0  0  0  0
   58.1914   33.6218   45.9817 C   0  0  0  0  0  0  0  0  0  0  0  0
   57.2195   34.2327   45.1934 O   0  0  0  0  0  0  0  0  0  0  0  0
   59.0189   34.4066   46.7913 C   0  0  0  0  0  0  0  0  0  0  0  0
   59.9985   33.8056   47.5881 C   0  0  0  0  0  0  0  0  0  0  0  0
   56.6623   33.7119   44.6491 H   0  0  0  0  0  0  0  0  0  0  0  0
 11 12  2  0
 12 13  1  0
 13 14  2  0
 14 15  1  0
 15  1  1  0
  1  2  2  0
  1  3  1  0
  3  4  1  0
  4  5  1  0
  5  6  1  0
  6  7  1  0
  7  8  2  0
  7 26  1  0
 26 27  1  0
 27 28  2  0
 28 29  1  0
 29 30  2  0
 30 31  1  0
 30 32  1  0
 32 33  2  0
  6  9  1  0
  9 10  1  0
 15 16  2  0
 16 17  1  0
 17 18  2  0
 18 19  1  0
 19 20  1  0
 20 21  1  0
 21 22  2  0
 21 23  1  0
 23 24  1  0
 24 25  1  0
 17 12  1  0
 24 19  2  0
 10  3  1  0
 33 27  1  0
 31 34  1  0
M  CHG 1  20  -1
M  CHG 1  23  -1
M  CHG 1  25  -1
M  END
> <UniqueID>
20

> <SMILES>
C=c1ncc(C(=O)N2CCN(C(=O)Cc3ccc(O)cc3)CC2)cc1=Cc1[n-]c(=O)[n-]c1[O-]

> <Energy>
110.99022523653379

> <Genealogy>
C=c1ncc(C(=O)N2CCN(C(=O)Cc3ccc(O)cc3)CC2)cc1=Cc1[n-]c(=O)[n-]c1[O-] (protonated)
C=c1ncc(C(=O)N2CCN(C(=O)Cc3ccc(O)cc3)CC2)cc1=Cc1[n-]c(=O)[n-]c1[O-] (3D coordinates assigned)
C=c1ncc(C(=O)N2CCN(C(=O)Cc3ccc(O)cc3)CC2)cc1=Cc1[n-]c(=O)[n-]c1[O-] (nonaromatic ring conformer: 110.99022523653379 kcal/mol)

> <smiles>
C=c1ncc(C(=O)N2CCN(C(=O)Cc3ccc(O)cc3)CC2)cc1=Cc1[nH]c(=O)[nH]c1O

> <score_type>
oracle

> <origin>
adg

> <m_score__min__energy>
-18.73

> <m_primary>
energy

> <minimizedAffinity>
-7.84945

> <minimizedRMSD>
1.06227

> <CNNscore>
0.0738861561

> <CNNaffinity>
6.0049319267

> <CNN_VS>
0.4436813295

> <CNNaffinity_variance>
0.0012985350

$$$$
26:0


 32 35  0  0  0  0  0  0  0  0999 V2000
   55.2800   29.6548   55.4150 C   0  0  0  0  0  0  0  0  0  0  0  0
   55.6738   29.9122   54.1566 C   0  0  0  0  0  0  0  0  0  0  0  0
   54.8402   30.2825   53.0933 C   0  0  0  0  0  0  0  0  0  0  0  0
   53.5059   30.4697   53.1262 C   0  0  0  0  0  0  0  0  0  0  0  0
   55.6698   30.4891   52.0023 C   0  0  0  0  0  0  0  0  0  0  0  0
   56.9539   30.2150   52.4240 C   0  0  0  0  0  0  0  0  0  0  0  0
   56.9647   29.8612   53.7326 N   0  0  0  0  0  0  0  0  0  0  0  0
   58.1443   30.3513   51.5672 C   0  0  0  0  0  0  0  0  0  0  0  0
   58.4011   29.4358   50.7393 O   0  0  0  0  0  0  0  0  0  0  0  0
   59.0363   31.4756   51.6991 N   0  0  0  0  0  0  0  0  0  0  0  0
   59.8250   31.9358   50.5496 C   0  0  0  0  0  0  0  0  0  0  0  0
   61.2829   32.1420   50.9687 C   0  0  0  0  0  0  0  0  0  0  0  0
   61.3828   32.9631   52.1867 N   0  0  0  0  0  0  0  0  0  0  0  0
   60.1681   33.3161   52.9376 C   0  0  0  0  0  0  0  0  0  0  0  0
   59.2051   32.1250   53.0088 C   0  0  0  0  0  0  0  0  0  0  0  0
   62.6547   33.5484   52.5447 C   0  0  0  0  0  0  0  0  0  0  0  0
   62.9603   33.8273   53.8878 C   0  0  0  0  0  0  0  0  0  0  0  0
   64.1921   34.3887   54.2353 C   0  0  0  0  0  0  0  0  0  0  0  0
   65.1451   34.6773   53.2528 C   0  0  0  0  0  0  0  0  0  0  0  0
   64.8476   34.3961   51.9069 C   0  0  0  0  0  0  0  0  0  0  0  0
   63.6159   33.8357   51.5585 C   0  0  0  0  0  0  0  0  0  0  0  0
   66.3659   35.2403   53.6530 O   0  0  0  0  0  0  0  0  0  0  0  0
   67.0972   36.1960   52.8933 C   0  0  0  0  0  0  0  0  0  0  0  0
   52.6558   30.5493   51.9251 C   0  0  0  0  0  0  0  0  0  0  0  0
   52.7976   29.7335   50.8657 N   0  0  0  0  0  0  0  0  0  0  0  0
   51.8934   30.2063   49.9817 C   0  0  0  0  0  0  0  0  0  0  0  0
   51.7164   29.6841   48.8496 O   0  0  0  0  0  0  0  0  0  0  0  0
   51.2036   31.2888   50.3997 N   0  0  0  0  0  0  0  0  0  0  0  0
   51.7054   31.5023   51.6262 C   0  0  0  0  0  0  0  0  0  0  0  0
   51.3359   32.5723   52.4316 O   0  0  0  0  0  0  0  0  0  0  0  0
   58.1645   29.6619   54.5631 C   0  0  0  0  0  0  0  0  0  0  0  0
   58.6275   28.2111   54.4891 C   0  0  0  0  0  0  0  0  0  0  0  0
  1  2  2  0
  2  3  1  0
  3  4  2  0
  4 24  1  0
 24 25  1  0
 25 26  1  0
 26 27  2  0
 26 28  1  0
 28 29  1  0
 29 30  1  0
  3  5  1  0
  5  6  2  0
  6  8  1  0
  8  9  2  0
  8 10  1  0
 10 11  1  0
 11 12  1  0
 12 13  1  0
 13 16  1  0
 16 17  2  0
 17 18  1  0
 18 19  2  0
 19 22  1  0
 22 23  1  0
 19 20  1  0
 20 21  2  0
 13 14  1  0
 14 15  1  0
  6  7  1  0
  7 31  1  0
 31 32  1  0
  7  2  1  0
 29 24  2  0
 15 10  1  0
 21 16  1  0
M  CHG 1  25  -1
M  CHG 1  28  -1
M  CHG 1  30  -1
M  END
> <UniqueID>
26

> <SMILES>
C=c1c(=Cc2[n-]c(=O)[n-]c2[O-])cc(C(=O)N2CCN(c3ccc(OC)cc3)CC2)n1CC

> <Energy>
130.93224750413663

> <Genealogy>
C=c1c(=Cc2[n-]c(=O)[n-]c2[O-])cc(C(=O)N2CCN(c3ccc(OC)cc3)CC2)n1CC (protonated)
C=c1c(=Cc2[n-]c(=O)[n-]c2[O-])cc(C(=O)N2CCN(c3ccc(OC)cc3)CC2)n1CC (3D coordinates assigned)
C=c1c(=Cc2[n-]c(=O)[n-]c2[O-])cc(C(=O)N2CCN(c3ccc(OC)cc3)CC2)n1CC (nonaromatic ring conformer: 130.93224750413663 kcal/mol)

> <smiles>
C=c1c(=Cc2[nH]c(=O)[nH]c2O)cc(C(=O)N2CCN(c3ccc(OC)cc3)CC2)n1CC

> <score_type>
oracle

> <origin>
adg

> <m_score__min__energy>
-16.140000000000001

> <m_primary>
energy

> <minimizedAffinity>
-5.04725

> <minimizedRMSD>
0.82372

> <CNNscore>
0.1232029647

> <CNNaffinity>
4.6420464516

> <CNN_VS>
0.5719138980

> <CNNaffinity_variance>
1.2092862129

$$$$
44:0


 33 37  0  0  0  0  0  0  0  0999 V2000
   58.4480   24.2715   45.4993 C   0  0  0  0  0  0  0  0  0  0  0  0
   57.5358   24.9561   44.6818 C   0  0  0  0  0  0  0  0  0  0  0  0
   57.4708   26.3511   44.7053 C   0  0  0  0  0  0  0  0  0  0  0  0
   58.3180   27.0925   45.5482 C   0  0  0  0  0  0  0  0  0  0  0  0
   59.2248   26.4039   46.3732 C   0  0  0  0  0  0  0  0  0  0  0  0
   59.2888   25.0089   46.3497 C   0  0  0  0  0  0  0  0  0  0  0  0
   58.2455   28.5346   45.5767 N   0  0  0  0  0  0  0  0  0  0  0  0
   57.5107   29.2409   44.5140 C   0  0  0  0  0  0  0  0  0  0  0  0
   57.1965   30.6860   44.9127 C   0  0  0  0  0  0  0  0  0  0  0  0
   58.4845   31.4314   45.3191 C   0  0  0  0  0  0  0  0  0  0  0  0
   59.3867   30.6083   46.2932 C   0  0  0  0  0  0  0  0  0  0  0  0
   58.7564   29.2815   46.7371 C   0  0  0  0  0  0  0  0  0  0  0  0
   58.1622   32.7972   45.8067 N   0  0  0  0  0  0  0  0  0  0  0  0
   58.5835   33.8667   44.8859 C   0  0  0  0  0  0  0  0  0  0  0  0
   59.4634   34.8317   45.6648 C   0  0  0  0  0  0  0  0  0  0  0  0
   59.1334   34.5710   47.1149 C   0  0  0  0  0  0  0  0  0  0  0  0
   58.6780   33.1235   47.1464 C   0  0  0  0  0  0  0  0  0  0  0  0
   58.5163   22.7664   45.4745 C   0  0  0  0  0  0  0  0  0  0  0  0
   56.4655   22.8703   47.7131 C   0  0  0  0  0  0  0  0  0  0  0  0
   56.2593   22.2443   46.5434 C   0  0  0  0  0  0  0  0  0  0  0  0
   55.0901   21.5697   46.1713 C   0  0  0  0  0  0  0  0  0  0  0  0
   53.9866   21.3709   46.9198 C   0  0  0  0  0  0  0  0  0  0  0  0
   55.3067   21.0873   44.8897 C   0  0  0  0  0  0  0  0  0  0  0  0
   56.5775   21.4838   44.5281 C   0  0  0  0  0  0  0  0  0  0  0  0
   57.2207   21.1573   43.2143 C   0  0  0  0  0  0  0  0  0  0  0  0
   57.1653   22.1804   45.5295 N   0  0  0  0  0  0  0  0  0  0  0  0
   52.6790   21.9942   46.6439 C   0  0  0  0  0  0  0  0  0  0  0  0
   51.5339   21.5914   47.2213 N   0  0  0  0  0  0  0  0  0  0  0  0
   50.6221   22.4731   46.7568 C   0  0  0  0  0  0  0  0  0  0  0  0
   49.4041   22.4149   47.0698 O   0  0  0  0  0  0  0  0  0  0  0  0
   51.1189   23.4250   45.9400 N   0  0  0  0  0  0  0  0  0  0  0  0
   52.4243   23.1171   45.8872 C   0  0  0  0  0  0  0  0  0  0  0  0
   53.3663   23.8761   45.2014 O   0  0  0  0  0  0  0  0  0  0  0  0
 19 20  2  0
 20 21  1  0
 21 22  2  0
 22 27  1  0
 27 28  1  0
 28 29  1  0
 29 30  2  0
 29 31  1  0
 31 32  1  0
 32 33  1  0
 21 23  1  0
 23 24  2  0
 24 25  1  0
 24 26  1  0
 26 18  1  0
 18  1  1  0
  1  2  2  0
  2  3  1  0
  3  4  2  0
  4  7  1  0
  7  8  1  0
  8  9  1  0
  9 10  1  0
 10 13  1  0
 13 14  1  0
 14 15  1  0
 15 16  1  0
 16 17  1  0
 10 11  1  0
 11 12  1  0
  4  5  1  0
  5  6  2  0
 26 20  1  0
  6  1  1  0
 32 27  2  0
 12  7  1  0
 17 13  1  0
M  CHG 1  28  -1
M  CHG 1  31  -1
M  CHG 1  33  -1
M  END
> <UniqueID>
43

> <SMILES>
C=c1c(=Cc2[n-]c(=O)[n-]c2[O-])cc(C)n1Cc1ccc(N2CCC(N3CCCC3)CC2)cc1

> <Energy>
143.0448930751853

> <Genealogy>
C=c1c(=Cc2[n-]c(=O)[n-]c2[O-])cc(C)n1Cc1ccc(N2CCC(N3CCCC3)CC2)cc1 (protonated)
C=c1c(=Cc2[n-]c(=O)[n-]c2[O-])cc(C)n1Cc1ccc(N2CCC(N3CCCC3)CC2)cc1 (3D coordinates assigned)
C=c1c(=Cc2[n-]c(=O)[n-]c2[O-])cc(C)n1Cc1ccc(N2CCC(N3CCCC3)CC2)cc1 (nonaromatic ring conformer: 143.0448930751853 kcal/mol)

> <smiles>
C=c1c(=Cc2[nH]c(=O)[nH]c2O)cc(C)n1Cc1ccc(N2CCC(N3CCCC3)CC2)cc1

> <score_type>
oracle

> <origin>
adg

> <m_score__min__energy>
-16.530000000000001

> <m_primary>
energy

> <minimizedAffinity>
-7.51772

> <minimizedRMSD>
1.31893

> <CNNscore>
0.0515482724

> <CNNaffinity>
5.8271903992

> <CNN_VS>
0.3003816009

> <CNNaffinity_variance>
0.4266462028

$$$$
77:0


 28 30  0  0  0  0  0  0  0  0999 V2000
   60.2613   26.7367   46.4465 C   0  0  0  0  0  0  0  0  0  0  0  0
   59.3625   27.4828   45.7823 C   0  0  0  0  0  0  0  0  0  0  0  0
   58.2500   26.9922   45.0878 C   0  0  0  0  0  0  0  0  0  0  0  0
   57.8984   25.7046   44.9080 C   0  0  0  0  0  0  0  0  0  0  0  0
   57.5913   28.0990   44.5812 C   0  0  0  0  0  0  0  0  0  0  0  0
   58.2943   29.2135   44.9959 C   0  0  0  0  0  0  0  0  0  0  0  0
   59.3840   28.8436   45.7189 N   0  0  0  0  0  0  0  0  0  0  0  0
   57.2354   24.8783   45.9372 C   0  0  0  0  0  0  0  0  0  0  0  0
   55.9510   25.0428   46.4032 C   0  0  0  0  0  0  0  0  0  0  0  0
   55.0876   26.0734   46.0518 O   0  0  0  0  0  0  0  0  0  0  0  0
   55.6270   24.0568   47.2598 N   0  0  0  0  0  0  0  0  0  0  0  0
   56.7423   23.2942   47.2730 C   0  0  0  0  0  0  0  0  0  0  0  0
   56.8418   22.2395   47.9528 O   0  0  0  0  0  0  0  0  0  0  0  0
   57.7308   23.7521   46.4796 N   0  0  0  0  0  0  0  0  0  0  0  0
   58.6177   23.3515   46.3305 H   0  0  0  0  0  0  0  0  0  0  0  0
   57.8833   30.6055   44.6817 C   0  0  0  0  0  0  0  0  0  0  0  0
   57.7090   30.9528   43.4856 O   0  0  0  0  0  0  0  0  0  0  0  0
   57.5810   31.5547   45.7162 N   0  0  0  0  0  0  0  0  0  0  0  0
   58.2402   32.6479   45.9774 C   0  0  0  0  0  0  0  0  0  0  0  0
   58.5104   33.5596   44.9997 N   0  0  0  0  0  0  0  0  0  0  0  0
   59.1931   34.7074   45.2523 C   0  0  0  0  0  0  0  0  0  0  0  0
   59.6326   34.9869   46.5464 C   0  0  0  0  0  0  0  0  0  0  0  0
   59.3582   34.0807   47.5706 C   0  0  0  0  0  0  0  0  0  0  0  0
   58.6548   32.9059   47.2915 C   0  0  0  0  0  0  0  0  0  0  0  0
   58.3886   32.0244   48.2882 F   0  0  0  0  0  0  0  0  0  0  0  0
   60.3687   29.7561   46.3288 C   0  0  0  0  0  0  0  0  0  0  0  0
   60.3493   29.6665   47.8629 C   0  0  0  0  0  0  0  0  0  0  0  0
   61.3082   30.6495   48.5274 C   0  0  0  0  0  0  0  0  0  0  0  0
  1  2  2  0
  2  3  1  0
  3  4  2  0
  4  8  1  0
  8  9  2  0
  9 10  1  0
  9 11  1  0
 11 12  1  0
 12 13  2  0
 12 14  1  0
  3  5  1  0
  5  6  2  0
  6 16  1  0
 16 17  2  0
 16 18  1  0
 18 19  2  0
 19 20  1  0
 20 21  1  0
 21 22  2  0
 22 23  1  0
 23 24  2  0
 24 25  1  0
  6  7  1  0
  7 26  1  0
 26 27  1  0
 27 28  1  0
  7  2  1  0
 14  8  1  0
 24 19  1  0
 14 15  1  0
M  CHG 1  10  -1
M  CHG 1  11  -1
M  CHG 1  20  -1
M  END
> <UniqueID>
74

> <SMILES>
C=c1/c(=C/c2[nH]c(=O)[n-]c2[O-])cc(C(=O)N=c2[n-]cccc2F)n1CCC

> <Energy>
114.47738733234452

> <Genealogy>
C=c1c(=Cc2[nH]c(=O)[n-]c2[O-])cc(C(=O)N=c2[n-]cccc2F)n1CCC (protonated)
C=c1/c(=C/c2[nH]c(=O)[n-]c2[O-])cc(C(=O)N=c2[n-]cccc2F)n1CCC (cis-trans isomerization)
C=c1/c(=C/c2[nH]c(=O)[n-]c2[O-])cc(C(=O)N=c2[n-]cccc2F)n1CCC (3D coordinates assigned)
C=c1/c(=C/c2[nH]c(=O)[n-]c2[O-])cc(C(=O)N=c2[n-]cccc2F)n1CCC (optimized conformer: 114.47738733234452 kcal/mol)

> <smiles>
C=c1c(=Cc2[nH]c(=O)[nH]c2O)cc(C(=O)N=c2[nH]cccc2F)n1CCC

> <score_type>
oracle

> <origin>
adg

> <m_score__min__energy>
-14.640000000000001

> <m_primary>
energy

> <minimizedAffinity>
-8.47279

> <minimizedRMSD>
0.77266

> <CNNscore>
0.2606057525

> <CNNaffinity>
6.7137675285

> <CNN_VS>
1.7496464252

> <CNNaffinity_variance>
0.0265294407

$$$$
80:0


 25 27  0  0  0  0  0  0  0  0999 V2000
   58.0525   26.8423   43.1837 C   0  0  0  0  0  0  0  0  0  0  0  0
   58.3510   27.5930   44.2480 C   0  0  0  0  0  0  0  0  0  0  0  0
   58.2869   28.9391   44.2255 N   0  0  0  0  0  0  0  0  0  0  0  0
   58.7647   29.3235   45.4205 C   0  0  0  0  0  0  0  0  0  0  0  0
   59.1089   28.3038   46.1748 O   0  0  0  0  0  0  0  0  0  0  0  0
   58.8536   27.2055   45.4985 C   0  0  0  0  0  0  0  0  0  0  0  0
   59.0736   25.9891   46.0237 C   0  0  0  0  0  0  0  0  0  0  0  0
   57.9619   29.5134   43.4949 H   0  0  0  0  0  0  0  0  0  0  0  0
   58.0768   24.9058   46.1229 C   0  0  0  0  0  0  0  0  0  0  0  0
   56.7517   25.1927   46.4796 C   0  0  0  0  0  0  0  0  0  0  0  0
   56.3685   26.4916   46.7935 O   0  0  0  0  0  0  0  0  0  0  0  0
   55.8318   24.1946   46.5290 N   0  0  0  0  0  0  0  0  0  0  0  0
   56.1691   22.9152   46.2230 C   0  0  0  0  0  0  0  0  0  0  0  0
   55.0420   21.7374   46.2926 S   0  0  0  0  0  0  0  0  0  0  0  0
   57.4391   22.6166   45.8478 N   0  0  0  0  0  0  0  0  0  0  0  0
   58.3951   23.5796   45.7825 C   0  0  0  0  0  0  0  0  0  0  0  0
   59.5593   23.2709   45.4119 O   0  0  0  0  0  0  0  0  0  0  0  0
   58.8819   30.6613   45.8049 O   0  0  0  0  0  0  0  0  0  0  0  0
   59.1473   31.0521   47.1486 C   0  0  0  0  0  0  0  0  0  0  0  0
   60.4523   31.7980   47.2305 C   0  0  0  0  0  0  0  0  0  0  0  0
   60.5365   33.1391   46.8208 C   0  0  0  0  0  0  0  0  0  0  0  0
   61.7592   33.8149   46.8720 C   0  0  0  0  0  0  0  0  0  0  0  0
   62.9053   33.1559   47.3273 C   0  0  0  0  0  0  0  0  0  0  0  0
   62.8293   31.8199   47.7316 C   0  0  0  0  0  0  0  0  0  0  0  0
   61.6073   31.1413   47.6813 C   0  0  0  0  0  0  0  0  0  0  0  0
  1  2  2  0
  2  3  1  0
  3  4  2  0
  4 18  1  0
 18 19  1  0
 19 20  1  0
 20 21  2  0
 21 22  1  0
 22 23  2  0
 23 24  1  0
 24 25  2  0
  4  5  1  0
  5  6  1  0
  6  7  2  0
  7  9  1  0
  9 10  2  0
 10 11  1  0
 10 12  1  0
 12 13  1  0
 13 14  2  0
 13 15  1  0
 15 16  1  0
 16 17  2  0
  6  2  1  0
 16  9  1  0
 25 20  1  0
  3  8  1  0
M  CHG 1   3   1
M  CHG 1  11  -1
M  CHG 1  12  -1
M  CHG 1  15  -1
M  END
> <UniqueID>
77

> <SMILES>
C=c1[nH+]c(OCc2ccccc2)oc1=Cc1c([O-])[n-]c(=S)[n-]c1=O

> <Energy>
81.06735519251897

> <Genealogy>
C=c1[nH+]c(OCc2ccccc2)oc1=Cc1c([O-])[n-]c(=S)[n-]c1=O (protonated)
C=c1[nH+]c(OCc2ccccc2)oc1=Cc1c([O-])[n-]c(=S)[n-]c1=O (3D coordinates assigned)
C=c1[nH+]c(OCc2ccccc2)oc1=Cc1c([O-])[n-]c(=S)[n-]c1=O (optimized conformer: 81.06735519251897 kcal/mol)

> <smiles>
C=c1nc(OCc2ccccc2)oc1=Cc1c(O)[nH]c(=S)[nH]c1=O

> <score_type>
oracle

> <origin>
adg

> <m_score__min__energy>
-14.25

> <m_primary>
energy

> <minimizedAffinity>
-7.69320

> <minimizedRMSD>
2.55812

> <CNNscore>
0.2281854898

> <CNNaffinity>
6.1891341209

> <CNN_VS>
1.4122705460

> <CNNaffinity_variance>
0.4471653402

$$$$
90:0


 31 33  0  0  0  0  0  0  0  0999 V2000
   60.6978   28.6892   49.3513 C   0  0  0  0  0  0  0  0  0  0  0  0
   60.5098   29.6248   48.3239 C   0  0  0  0  0  0  0  0  0  0  0  0
   60.9507   30.9411   48.4813 C   0  0  0  0  0  0  0  0  0  0  0  0
   61.5915   31.3428   49.6638 C   0  0  0  0  0  0  0  0  0  0  0  0
   61.7837   30.4017   50.6981 C   0  0  0  0  0  0  0  0  0  0  0  0
   62.6431   30.8545   52.3524 Br  0  0  0  0  0  0  0  0  0  0  0  0
   61.3409   29.0842   50.5329 C   0  0  0  0  0  0  0  0  0  0  0  0
   62.1310   33.0154   49.8362 S   0  0  0  0  0  0  0  0  0  0  0  0
   61.6380   33.5600   51.1474 O   0  0  0  0  0  0  0  0  0  0  0  0
   63.6329   33.0738   49.8205 O   0  0  0  0  0  0  0  0  0  0  0  0
   61.5041   33.9460   48.5044 N   0  0  0  0  0  0  0  0  0  0  0  0
   60.0732   34.2097   48.6705 C   0  0  0  0  0  0  0  0  0  0  0  0
   59.3468   34.0909   47.3584 C   0  0  0  0  0  0  0  0  0  0  0  0
   59.8636   34.7083   46.2072 C   0  0  0  0  0  0  0  0  0  0  0  0
   59.1849   34.6091   44.9884 C   0  0  0  0  0  0  0  0  0  0  0  0
   57.9866   33.8914   44.9107 C   0  0  0  0  0  0  0  0  0  0  0  0
   57.4673   33.2733   46.0508 C   0  0  0  0  0  0  0  0  0  0  0  0
   58.1419   33.3717   47.2712 C   0  0  0  0  0  0  0  0  0  0  0  0
   60.2507   27.2623   49.1796 C   0  0  0  0  0  0  0  0  0  0  0  0
   61.3658   26.2611   46.7435 O   0  0  0  0  0  0  0  0  0  0  0  0
   60.1435   26.5723   46.7402 C   0  0  0  0  0  0  0  0  0  0  0  0
   59.5290   27.1091   47.9205 N   0  0  0  0  0  0  0  0  0  0  0  0
   58.5847   27.3846   47.8794 H   0  0  0  0  0  0  0  0  0  0  0  0
   59.3441   26.4093   45.4844 C   0  0  0  0  0  0  0  0  0  0  0  0
   58.3587   27.5274   45.3533 C   0  0  0  0  0  0  0  0  0  0  0  0
   58.7085   29.0678   44.7648 S   0  0  0  0  0  0  0  0  0  0  0  0
   57.1084   29.5692   44.8987 C   0  0  0  0  0  0  0  0  0  0  0  0
   56.6986   30.7188   44.5927 O   0  0  0  0  0  0  0  0  0  0  0  0
   56.2957   28.5997   45.3699 N   0  0  0  0  0  0  0  0  0  0  0  0
   56.9930   27.4600   45.6177 C   0  0  0  0  0  0  0  0  0  0  0  0
   56.3703   26.3144   46.0967 O   0  0  0  0  0  0  0  0  0  0  0  0
 20 21  2  0
 21 24  1  0
 24 25  1  0
 25 26  1  0
 26 27  1  0
 27 28  2  0
 27 29  1  0
 29 30  1  0
 30 31  1  0
 21 22  1  0
 22 19  1  0
 19  1  1  0
  1  2  2  0
  2  3  1  0
  3  4  2  0
  4  8  1  0
  8  9  2  0
  8 10  2  0
  8 11  1  0
 11 12  1  0
 12 13  1  0
 13 14  2  0
 14 15  1  0
 15 16  2  0
 16 17  1  0
 17 18  2  0
  4  5  1  0
  5  6  1  0
  5  7  2  0
 30 25  2  0
  7  1  1  0
 18 13  1  0
 22 23  1  0
M  CHG 1  11  -1
M  CHG 1  29  -1
M  CHG 1  31  -1
M  END
> <UniqueID>
86

> <SMILES>
O=C(Cc1sc(=O)[n-]c1[O-])NCc1ccc(S(=O)(=O)[N-]Cc2ccccc2)c(Br)c1

> <Energy>
74.08371563694287

> <Genealogy>
O=C(Cc1sc(=O)[n-]c1[O-])NCc1ccc(S(=O)(=O)[N-]Cc2ccccc2)c(Br)c1 (protonated)
O=C(Cc1sc(=O)[n-]c1[O-])NCc1ccc(S(=O)(=O)[N-]Cc2ccccc2)c(Br)c1 (3D coordinates assigned)
O=C(Cc1sc(=O)[n-]c1[O-])NCc1ccc(S(=O)(=O)[N-]Cc2ccccc2)c(Br)c1 (optimized conformer: 74.08371563694287 kcal/mol)

> <smiles>
O=C(Cc1sc(=O)[nH]c1O)NCc1ccc(S(=O)(=O)NCc2ccccc2)c(Br)c1

> <score_type>
oracle

> <origin>
adg

> <m_score__min__energy>
-17.780000000000001

> <m_primary>
energy

> <minimizedAffinity>
-6.36176

> <minimizedRMSD>
1.32420

> <CNNscore>
0.5110822916

> <CNNaffinity>
6.9175243378

> <CNN_VS>
3.5354242325

> <CNNaffinity_variance>
0.0984864607

$$$$
2:0


 29 31  0  0  0  0  0  0  0  0999 V2000
   57.4482   29.7354   44.0208 C   0  0  0  0  0  0  0  0  0  0  0  0
   58.2006   29.3260   45.0554 C   0  0  0  0  0  0  0  0  0  0  0  0
   58.6507   28.0174   45.2983 C   0  0  0  0  0  0  0  0  0  0  0  0
   58.2943   26.8416   44.7438 C   0  0  0  0  0  0  0  0  0  0  0  0
   59.6094   28.1148   46.2915 C   0  0  0  0  0  0  0  0  0  0  0  0
   59.6618   29.4411   46.6685 C   0  0  0  0  0  0  0  0  0  0  0  0
   60.5491   29.9789   47.7502 C   0  0  0  0  0  0  0  0  0  0  0  0
   58.8019   30.1769   45.9289 N   0  0  0  0  0  0  0  0  0  0  0  0
   58.5915   31.5956   46.0541 C   0  0  0  0  0  0  0  0  0  0  0  0
   57.4475   32.0403   46.3397 O   0  0  0  0  0  0  0  0  0  0  0  0
   57.6466   25.7235   45.4455 C   0  0  0  0  0  0  0  0  0  0  0  0
   58.2570   24.5538   45.7004 N   0  0  0  0  0  0  0  0  0  0  0  0
   57.3550   23.8884   46.4559 C   0  0  0  0  0  0  0  0  0  0  0  0
   57.5600   22.7237   46.8862 O   0  0  0  0  0  0  0  0  0  0  0  0
   56.2217   24.5735   46.7227 N   0  0  0  0  0  0  0  0  0  0  0  0
   56.4287   25.7394   46.0882 C   0  0  0  0  0  0  0  0  0  0  0  0
   55.5348   26.8026   46.1208 O   0  0  0  0  0  0  0  0  0  0  0  0
   59.6751   32.5022   45.8219 N   0  0  0  0  0  0  0  0  0  0  0  0
   59.8420   33.7603   46.5408 C   0  0  0  0  0  0  0  0  0  0  0  0
   61.0273   33.6746   47.4616 C   0  0  0  0  0  0  0  0  0  0  0  0
   62.2778   33.2840   46.9615 C   0  0  0  0  0  0  0  0  0  0  0  0
   63.3768   33.1739   47.8182 C   0  0  0  0  0  0  0  0  0  0  0  0
   63.2402   33.4331   49.1870 C   0  0  0  0  0  0  0  0  0  0  0  0
   61.9881   33.8363   49.6887 C   0  0  0  0  0  0  0  0  0  0  0  0
   60.8893   33.9493   48.8307 C   0  0  0  0  0  0  0  0  0  0  0  0
   64.3742   33.3163   50.0055 O   0  0  0  0  0  0  0  0  0  0  0  0
   64.8416   32.1246   50.5768 C   0  0  0  0  0  0  0  0  0  0  0  0
   64.0475   31.1933   50.8801 O   0  0  0  0  0  0  0  0  0  0  0  0
   66.3104   31.9112   50.7172 C   0  0  0  0  0  0  0  0  0  0  0  0
  1  2  2  0
  2  3  1  0
  3  4  2  0
  4 11  1  0
 11 12  1  0
 12 13  1  0
 13 14  2  0
 13 15  1  0
 15 16  1  0
 16 17  1  0
  3  5  1  0
  5  6  2  0
  6  7  1  0
  6  8  1  0
  8  9  1  0
  9 10  2  0
  9 18  1  0
 18 19  1  0
 19 20  1  0
 20 21  2  0
 21 22  1  0
 22 23  2  0
 23 26  1  0
 26 27  1  0
 27 28  2  0
 27 29  1  0
 23 24  1  0
 24 25  2  0
  8  2  1  0
 25 20  1  0
 16 11  2  0
M  CHG 1  12  -1
M  CHG 1  15  -1
M  CHG 1  17  -1
M  CHG 1  18  -1
M  END
> <UniqueID>
3

> <SMILES>
C=c1/c(=C\c2[n-]c(=O)[n-]c2[O-])cc(C)n1C(=O)[N-]Cc1ccc(OC(C)=O)cc1

> <Energy>
121.08331240660661

> <Genealogy>
C=c1c(=Cc2[n-]c(=O)[n-]c2[O-])cc(C)n1C(=O)[N-]Cc1ccc(OC(C)=O)cc1 (protonated)
C=c1/c(=C\c2[n-]c(=O)[n-]c2[O-])cc(C)n1C(=O)[N-]Cc1ccc(OC(C)=O)cc1 (cis-trans isomerization)
C=c1/c(=C\c2[n-]c(=O)[n-]c2[O-])cc(C)n1C(=O)[N-]Cc1ccc(OC(C)=O)cc1 (3D coordinates assigned)
C=c1/c(=C\c2[n-]c(=O)[n-]c2[O-])cc(C)n1C(=O)[N-]Cc1ccc(OC(C)=O)cc1 (optimized conformer: 121.08331240660661 kcal/mol)

> <smiles>
C=c1c(=Cc2[nH]c(=O)[nH]c2O)cc(C)n1C(=O)NCc1ccc(OC(C)=O)cc1

> <score_type>
oracle

> <origin>
adg

> <m_score__min__energy>
-17.5

> <m_primary>
energy

> <minimizedAffinity>
-7.93332

> <minimizedRMSD>
1.57026

> <CNNscore>
0.3007525206

> <CNNaffinity>
6.7978806496

> <CNN_VS>
2.0444798470

> <CNNaffinity_variance>
0.3537821472

$$$$
16:0


 23 25  0  0  0  0  0  0  0  0999 V2000
   57.9403   32.4528   45.5646 C   0  0  0  0  0  0  0  0  0  0  0  0
   58.3484   33.5863   44.8417 C   0  0  0  0  0  0  0  0  0  0  0  0
   59.2739   34.4746   45.3930 C   0  0  0  0  0  0  0  0  0  0  0  0
   59.7906   34.2477   46.6704 C   0  0  0  0  0  0  0  0  0  0  0  0
   59.3833   33.1267   47.4131 C   0  0  0  0  0  0  0  0  0  0  0  0
   58.4396   32.2430   46.8564 C   0  0  0  0  0  0  0  0  0  0  0  0
   59.9088   32.8943   48.7785 C   0  0  0  0  0  0  0  0  0  0  0  0
   59.1111   32.5899   49.7080 O   0  0  0  0  0  0  0  0  0  0  0  0
   61.3109   33.0327   49.0693 N   0  0  0  0  0  0  0  0  0  0  0  0
   62.2892   32.2404   48.3202 C   0  0  0  0  0  0  0  0  0  0  0  0
   63.6474   32.9453   48.3493 C   0  0  0  0  0  0  0  0  0  0  0  0
   64.0319   33.2411   49.6792 O   0  0  0  0  0  0  0  0  0  0  0  0
   63.1305   34.1732   50.2451 C   0  0  0  0  0  0  0  0  0  0  0  0
   61.7259   33.5705   50.3665 C   0  0  0  0  0  0  0  0  0  0  0  0
   56.9676   31.5386   45.0389 N   0  0  0  0  0  0  0  0  0  0  0  0
   56.6876   30.1885   43.1752 O   0  0  0  0  0  0  0  0  0  0  0  0
   57.2461   30.3476   44.2925 C   0  0  0  0  0  0  0  0  0  0  0  0
   58.1086   29.2767   44.8289 C   0  0  0  0  0  0  0  0  0  0  0  0
   59.4806   29.3682   44.9964 C   0  0  0  0  0  0  0  0  0  0  0  0
   59.8905   28.1511   45.4902 C   0  0  0  0  0  0  0  0  0  0  0  0
   58.7490   27.3869   45.5881 C   0  0  0  0  0  0  0  0  0  0  0  0
   58.7137   26.0758   46.0446 O   0  0  0  0  0  0  0  0  0  0  0  0
   57.6562   28.0567   45.1846 N   0  0  0  0  0  0  0  0  0  0  0  0
 16 17  2  0
 17 15  1  0
 15  1  1  0
  1  2  2  0
  2  3  1  0
  3  4  2  0
  4  5  1  0
  5  7  1  0
  7  8  2  0
  7  9  1  0
  9 10  1  0
 10 11  1  0
 11 12  1  0
 12 13  1  0
 13 14  1  0
  5  6  2  0
 17 18  1  0
 18 19  2  0
 19 20  1  0
 20 21  2  0
 21 22  1  0
 21 23  1  0
  6  1  1  0
 23 18  1  0
 14  9  1  0
M  CHG 1  15  -1
M  CHG 1  22  -1
M  CHG 1  23  -1
M  END
> <UniqueID>
15

> <SMILES>
O=C([N-]c1cccc(C(=O)N2CCOCC2)c1)c1ccc([O-])[n-]1

> <Energy>
74.00886745275344

> <Genealogy>
O=C([N-]c1cccc(C(=O)N2CCOCC2)c1)c1ccc([O-])[n-]1 (protonated)
O=C([N-]c1cccc(C(=O)N2CCOCC2)c1)c1ccc([O-])[n-]1 (3D coordinates assigned)
O=C([N-]c1cccc(C(=O)N2CCOCC2)c1)c1ccc([O-])[n-]1 (nonaromatic ring conformer: 74.00886745275344 kcal/mol)

> <smiles>
O=C(Nc1cccc(C(=O)N2CCOCC2)c1)c1ccc(O)[nH]1

> <score_type>
oracle

> <origin>
adg

> <m_score__min__energy>
-15.15

> <m_primary>
energy

> <minimizedAffinity>
-8.11603

> <minimizedRMSD>
1.51245

> <CNNscore>
0.8426226974

> <CNNaffinity>
6.5124664307

> <CNN_VS>
5.4875521660

> <CNNaffinity_variance>
0.2098258287

$$$$
17:0


 31 34  0  0  0  0  0  0  0  0999 V2000
   56.1206   31.5470   52.0668 C   0  0  0  0  0  0  0  0  0  0  0  0
   55.8152   30.3484   52.5915 C   0  0  0  0  0  0  0  0  0  0  0  0
   54.5703   29.7054   52.5214 C   0  0  0  0  0  0  0  0  0  0  0  0
   53.4572   30.1625   51.9045 C   0  0  0  0  0  0  0  0  0  0  0  0
   54.7145   28.5158   53.2264 C   0  0  0  0  0  0  0  0  0  0  0  0
   56.0140   28.4804   53.6895 C   0  0  0  0  0  0  0  0  0  0  0  0
   56.5919   27.3656   54.5086 C   0  0  0  0  0  0  0  0  0  0  0  0
   56.6911   29.5817   53.2924 N   0  0  0  0  0  0  0  0  0  0  0  0
   52.3488   30.9035   52.5491 C   0  0  0  0  0  0  0  0  0  0  0  0
   51.9974   30.8385   53.8458 N   0  0  0  0  0  0  0  0  0  0  0  0
   50.9339   31.6648   53.9296 C   0  0  0  0  0  0  0  0  0  0  0  0
   50.3196   31.8723   55.0077 O   0  0  0  0  0  0  0  0  0  0  0  0
   50.5807   32.2516   52.7676 N   0  0  0  0  0  0  0  0  0  0  0  0
   51.4843   31.7573   51.9039 C   0  0  0  0  0  0  0  0  0  0  0  0
   51.5209   32.0802   50.5510 O   0  0  0  0  0  0  0  0  0  0  0  0
   50.8899   32.6737   50.1938 H   0  0  0  0  0  0  0  0  0  0  0  0
   58.0863   29.8989   53.6346 C   0  0  0  0  0  0  0  0  0  0  0  0
   59.0348   29.3167   52.5844 C   0  0  0  0  0  0  0  0  0  0  0  0
   59.3625   30.3479   51.5389 C   0  0  0  0  0  0  0  0  0  0  0  0
   59.9279   31.5770   51.9125 C   0  0  0  0  0  0  0  0  0  0  0  0
   60.2016   32.5452   50.9461 C   0  0  0  0  0  0  0  0  0  0  0  0
   59.9045   32.3016   49.6030 C   0  0  0  0  0  0  0  0  0  0  0  0
   59.3207   31.0835   49.2112 C   0  0  0  0  0  0  0  0  0  0  0  0
   59.0515   30.1109   50.1910 C   0  0  0  0  0  0  0  0  0  0  0  0
   58.9932   30.8374   47.8285 N   0  0  0  0  0  0  0  0  0  0  0  0
   59.2122   29.5020   47.2519 C   0  0  0  0  0  0  0  0  0  0  0  0
   58.2007   29.1756   46.1292 C   0  0  0  0  0  0  0  0  0  0  0  0
   57.5388   30.3725   45.5610 N   0  0  0  0  0  0  0  0  0  0  0  0
   57.0084   30.0827   44.2207 C   0  0  0  0  0  0  0  0  0  0  0  0
   58.4544   31.5220   45.5151 C   0  0  0  0  0  0  0  0  0  0  0  0
   58.7257   31.9825   46.9461 C   0  0  0  0  0  0  0  0  0  0  0  0
  1  2  2  0
  2  3  1  0
  3  4  2  0
  4  9  1  0
  9 10  1  0
 10 11  1  0
 11 12  2  0
 11 13  1  0
 13 14  1  0
 14 15  1  0
  3  5  1  0
  5  6  2  0
  6  7  1  0
  6  8  1  0
  8 17  1  0
 17 18  1  0
 18 19  1  0
 19 20  2  0
 20 21  1  0
 21 22  2  0
 22 23  1  0
 23 25  1  0
 25 26  1  0
 26 27  1  0
 27 28  1  0
 28 29  1  0
 28 30  1  0
 30 31  1  0
 23 24  2  0
  8  2  1  0
 24 19  1  0
 14  9  2  0
 31 25  1  0
 15 16  1  0
M  CHG 1  10  -1
M  CHG 1  13  -1
M  END
> <UniqueID>
16

> <SMILES>
C=c1c(=Cc2[n-]c(=O)[n-]c2O)cc(C)n1CCc1cccc(N2CCN(C)CC2)c1

> <Energy>
125.8709642466388

> <Genealogy>
C=c1c(=Cc2[n-]c(=O)[n-]c2O)cc(C)n1CCc1cccc(N2CCN(C)CC2)c1 (protonated)
C=c1c(=Cc2[n-]c(=O)[n-]c2O)cc(C)n1CCc1cccc(N2CCN(C)CC2)c1 (3D coordinates assigned)
C=c1c(=Cc2[n-]c(=O)[n-]c2O)cc(C)n1CCc1cccc(N2CCN(C)CC2)c1 (nonaromatic ring conformer: 125.8709642466388 kcal/mol)

> <smiles>
C=c1c(=Cc2[nH]c(=O)[nH]c2O)cc(C)n1CCc1cccc(N2CCN(C)CC2)c1

> <score_type>
oracle

> <origin>
adg

> <m_score__min__energy>
-14.039999999999999

> <m_primary>
energy

> <minimizedAffinity>
-7.72697

> <minimizedRMSD>
0.80345

> <CNNscore>
0.1753144860

> <CNNaffinity>
5.2970032692

> <CNN_VS>
0.9286413789

> <CNNaffinity_variance>
0.7553831935

$$$$
30:0


 28 30  0  0  0  0  0  0  0  0999 V2000
   59.0611   32.6072   46.7957 C   0  0  0  0  0  0  0  0  0  0  0  0
   58.3854   31.4386   46.4188 C   0  0  0  0  0  0  0  0  0  0  0  0
   57.9416   31.2621   45.0989 C   0  0  0  0  0  0  0  0  0  0  0  0
   58.1468   32.2932   44.1580 C   0  0  0  0  0  0  0  0  0  0  0  0
   57.5287   32.1887   42.5113 Cl  0  0  0  0  0  0  0  0  0  0  0  0
   58.8149   33.4615   44.5407 C   0  0  0  0  0  0  0  0  0  0  0  0
   59.2716   33.6194   45.8496 C   0  0  0  0  0  0  0  0  0  0  0  0
   59.9051   34.7681   46.1989 F   0  0  0  0  0  0  0  0  0  0  0  0
   59.6107   32.8229   48.4597 S   0  0  0  0  0  0  0  0  0  0  0  0
   59.8319   34.2821   48.7367 O   0  0  0  0  0  0  0  0  0  0  0  0
   58.5320   32.3244   49.3807 O   0  0  0  0  0  0  0  0  0  0  0  0
   64.5741   32.7005   49.6282 C   0  0  0  0  0  0  0  0  0  0  0  0
   63.3901   33.5543   49.4280 N   0  0  0  0  0  0  0  0  0  0  0  0
   62.8868   33.5075   48.0430 C   0  0  0  0  0  0  0  0  0  0  0  0
   62.1297   32.2042   47.7307 C   0  0  0  0  0  0  0  0  0  0  0  0
   61.0768   31.9012   48.7175 N   0  0  0  0  0  0  0  0  0  0  0  0
   61.5607   31.9761   50.1073 C   0  0  0  0  0  0  0  0  0  0  0  0
   62.3227   33.2792   50.4091 C   0  0  0  0  0  0  0  0  0  0  0  0
   57.2469   30.0050   44.7395 C   0  0  0  0  0  0  0  0  0  0  0  0
   55.9894   30.0035   44.6745 O   0  0  0  0  0  0  0  0  0  0  0  0
   57.9533   28.7888   44.4394 N   0  0  0  0  0  0  0  0  0  0  0  0
   58.6812   28.0845   45.2592 C   0  0  0  0  0  0  0  0  0  0  0  0
   60.0151   28.3296   45.4060 N   0  0  0  0  0  0  0  0  0  0  0  0
   60.7916   27.6135   46.2629 C   0  0  0  0  0  0  0  0  0  0  0  0
   60.2254   26.5961   47.0314 C   0  0  0  0  0  0  0  0  0  0  0  0
   58.8613   26.3269   46.9117 C   0  0  0  0  0  0  0  0  0  0  0  0
   58.0797   27.0736   46.0249 C   0  0  0  0  0  0  0  0  0  0  0  0
   56.7203   26.8062   45.9073 O   0  0  0  0  0  0  0  0  0  0  0  0
 12 13  1  0
 13 14  1  0
 14 15  1  0
 15 16  1  0
 16  9  1  0
  9 10  2  0
  9 11  2  0
  9  1  1  0
  1  2  2  0
  2  3  1  0
  3 19  1  0
 19 20  2  0
 19 21  1  0
 21 22  2  0
 22 23  1  0
 23 24  1  0
 24 25  2  0
 25 26  1  0
 26 27  2  0
 27 28  1  0
  3  4  2  0
  4  5  1  0
  4  6  1  0
  6  7  2  0
  7  8  1  0
 16 17  1  0
 17 18  1  0
 18 13  1  0
  7  1  1  0
 27 22  1  0
M  CHG 1  23  -1
M  CHG 1  28  -1
M  END
> <UniqueID>
29

> <SMILES>
CN1CCN(S(=O)(=O)c2cc(C(=O)N=c3[n-]cccc3[O-])c(Cl)cc2F)CC1

> <Energy>
63.52851283253541

> <Genealogy>
CN1CCN(S(=O)(=O)c2cc(C(=O)N=c3[n-]cccc3[O-])c(Cl)cc2F)CC1 (protonated)
CN1CCN(S(=O)(=O)c2cc(C(=O)N=c3[n-]cccc3[O-])c(Cl)cc2F)CC1 (3D coordinates assigned)
CN1CCN(S(=O)(=O)c2cc(C(=O)N=c3[n-]cccc3[O-])c(Cl)cc2F)CC1 (nonaromatic ring conformer: 63.52851283253541 kcal/mol)

> <smiles>
CN1CCN(S(=O)(=O)c2cc(C(=O)N=c3[nH]cccc3O)c(Cl)cc2F)CC1

> <score_type>
oracle

> <origin>
adg

> <m_score__min__energy>
-14.529999999999999

> <m_primary>
energy

> <minimizedAffinity>
-8.47209

> <minimizedRMSD>
1.04503

> <CNNscore>
0.8362421989

> <CNNaffinity>
7.1799526215

> <CNN_VS>
6.0041794777

> <CNNaffinity_variance>
0.0622735880

$$$$
32:0


 34 37  0  0  0  0  0  0  0  0999 V2000
   58.5740   30.7054   45.2915 C   0  0  0  0  0  0  0  0  0  0  0  0
   58.0365   31.4034   44.2028 C   0  0  0  0  0  0  0  0  0  0  0  0
   57.9395   32.7950   44.2422 C   0  0  0  0  0  0  0  0  0  0  0  0
   58.3740   33.4984   45.3686 C   0  0  0  0  0  0  0  0  0  0  0  0
   58.9100   32.8119   46.4748 C   0  0  0  0  0  0  0  0  0  0  0  0
   59.0184   31.4110   46.4185 C   0  0  0  0  0  0  0  0  0  0  0  0
   56.5326   28.7429   44.4012 C   0  0  0  0  0  0  0  0  0  0  0  0
   57.7385   28.3808   44.8693 C   0  0  0  0  0  0  0  0  0  0  0  0
   58.2699   27.0810   44.9387 C   0  0  0  0  0  0  0  0  0  0  0  0
   57.6961   25.8788   44.7415 C   0  0  0  0  0  0  0  0  0  0  0  0
   59.5982   27.2259   45.3058 C   0  0  0  0  0  0  0  0  0  0  0  0
   59.8164   28.5739   45.5010 C   0  0  0  0  0  0  0  0  0  0  0  0
   61.1149   29.1760   45.9462 C   0  0  0  0  0  0  0  0  0  0  0  0
   58.6889   29.2729   45.2475 N   0  0  0  0  0  0  0  0  0  0  0  0
   57.1650   25.0019   45.7972 C   0  0  0  0  0  0  0  0  0  0  0  0
   57.7966   23.9166   46.2789 N   0  0  0  0  0  0  0  0  0  0  0  0
   56.8820   23.3658   47.1074 C   0  0  0  0  0  0  0  0  0  0  0  0
   57.1105   22.3211   47.7698 O   0  0  0  0  0  0  0  0  0  0  0  0
   55.7013   24.0181   47.1603 N   0  0  0  0  0  0  0  0  0  0  0  0
   55.8931   25.0419   46.3145 C   0  0  0  0  0  0  0  0  0  0  0  0
   54.9249   25.9921   46.0164 O   0  0  0  0  0  0  0  0  0  0  0  0
   59.3847   33.5411   47.6776 C   0  0  0  0  0  0  0  0  0  0  0  0
   59.2827   34.8001   47.7004 O   0  0  0  0  0  0  0  0  0  0  0  0
   59.9035   32.8393   48.8361 N   0  0  0  0  0  0  0  0  0  0  0  0
   60.4283   33.8096   49.8422 C   0  0  0  0  0  0  0  0  0  0  0  0
   61.9612   33.8460   49.8966 C   0  0  0  0  0  0  0  0  0  0  0  0
   62.5221   32.4521   50.2625 C   0  0  0  0  0  0  0  0  0  0  0  0
   61.7104   31.3004   49.6107 C   0  0  0  0  0  0  0  0  0  0  0  0
   60.8818   31.7984   48.4196 C   0  0  0  0  0  0  0  0  0  0  0  0
   60.1931   32.1956   49.5224 H   0  0  0  0  0  0  0  0  0  0  0  0
   64.0326   32.3458   49.9692 C   0  0  0  0  0  0  0  0  0  0  0  0
   64.3660   32.8750   48.6464 N   0  0  0  0  0  0  0  0  0  0  0  0
   63.8766   32.3366   47.9315 H   0  0  0  0  0  0  0  0  0  0  0  0
   65.3723   32.8046   48.4957 H   0  0  0  0  0  0  0  0  0  0  0  0
  7  8  2  0
  8  9  1  0
  9 10  2  0
 10 15  1  0
 15 16  1  0
 16 17  1  0
 17 18  2  0
 17 19  1  0
 19 20  1  0
 20 21  1  0
  9 11  1  0
 11 12  2  0
 12 13  1  0
 12 14  1  0
 14  1  1  0
  1  2  2  0
  2  3  1  0
  3  4  2  0
  4  5  1  0
  5 22  1  0
 22 23  2  0
 24 22  1  0
 24 25  1  0
 25 26  1  0
 26 27  1  0
 27 31  1  0
 31 32  1  0
 27 28  1  0
 28 29  1  0
  5  6  2  0
 14  8  1  0
  6  1  1  0
 20 15  2  0
 29 24  1  0
 24 30  1  0
 32 33  1  0
 32 34  1  0
M  CHG 1  16  -1
M  CHG 1  19  -1
M  CHG 1  21  -1
M  CHG 1  24   1
M  END
> <UniqueID>
30

> <SMILES>
C=c1c(=Cc2[n-]c(=O)[n-]c2[O-])cc(C)n1-c1cccc(C(=O)[NH+]2CCC(CN)CC2)c1

> <Energy>
145.62234664101166

> <Genealogy>
C=c1c(=Cc2[n-]c(=O)[n-]c2[O-])cc(C)n1-c1cccc(C(=O)[NH+]2CCC(CN)CC2)c1 (protonated)
C=c1c(=Cc2[n-]c(=O)[n-]c2[O-])cc(C)n1-c1cccc(C(=O)[NH+]2CCC(CN)CC2)c1 (3D coordinates assigned)
C=c1c(=Cc2[n-]c(=O)[n-]c2[O-])cc(C)n1-c1cccc(C(=O)[NH+]2CCC(CN)CC2)c1 (nonaromatic ring conformer: 145.62234664101166 kcal/mol)

> <smiles>
C=c1c(=Cc2[nH]c(=O)[nH]c2O)cc(C)n1-c1cccc(C(=O)N2CCC(CN)CC2)c1

> <score_type>
oracle

> <origin>
adg

> <m_score__min__energy>
-16.23

> <m_primary>
energy

> <minimizedAffinity>
-8.65799

> <minimizedRMSD>
0.68748

> <CNNscore>
0.0980619565

> <CNNaffinity>
6.4056167603

> <CNN_VS>
0.6281473041

> <CNNaffinity_variance>
0.0771107152

$$$$
45:0


 38 42  0  0  0  0  0  0  0  0999 V2000
   59.9399   31.6834   47.1673 C   0  0  0  0  0  0  0  0  0  0  0  0
   60.5605   32.7293   46.8377 O   0  0  0  0  0  0  0  0  0  0  0  0
   59.9503   31.2247   48.5373 N   0  0  0  0  0  0  0  0  0  0  0  0
   59.0945   30.0934   48.9374 C   0  0  0  0  0  0  0  0  0  0  0  0
   59.2653   29.7623   50.4220 C   0  0  0  0  0  0  0  0  0  0  0  0
   60.6969   29.7198   50.7488 N   0  0  0  0  0  0  0  0  0  0  0  0
   61.2821   28.4763   51.1960 C   0  0  0  0  0  0  0  0  0  0  0  0
   60.8384   27.3887   50.7362 O   0  0  0  0  0  0  0  0  0  0  0  0
   62.2997   28.4332   52.2171 N   0  0  0  0  0  0  0  0  0  0  0  0
   63.5678   29.1614   52.0684 C   0  0  0  0  0  0  0  0  0  0  0  0
   64.7008   28.4421   52.8106 C   0  0  0  0  0  0  0  0  0  0  0  0
   64.5699   26.9887   52.5883 N   0  0  0  0  0  0  0  0  0  0  0  0
   63.3608   26.4444   53.2575 C   0  0  0  0  0  0  0  0  0  0  0  0
   62.1848   27.4448   53.2980 C   0  0  0  0  0  0  0  0  0  0  0  0
   61.5358   30.8776   50.4000 C   0  0  0  0  0  0  0  0  0  0  0  0
   60.7716   31.9070   49.5515 C   0  0  0  0  0  0  0  0  0  0  0  0
   56.9087   30.5816   43.5747 C   0  0  0  0  0  0  0  0  0  0  0  0
   57.7849   30.4075   44.5765 C   0  0  0  0  0  0  0  0  0  0  0  0
   58.5354   29.2533   44.8538 C   0  0  0  0  0  0  0  0  0  0  0  0
   58.4243   27.9937   44.3872 C   0  0  0  0  0  0  0  0  0  0  0  0
   59.4731   29.6197   45.8042 C   0  0  0  0  0  0  0  0  0  0  0  0
   59.2214   30.9356   46.1235 C   0  0  0  0  0  0  0  0  0  0  0  0
   58.1896   31.4152   45.3936 N   0  0  0  0  0  0  0  0  0  0  0  0
   57.6849   32.7925   45.4052 C   0  0  0  0  0  0  0  0  0  0  0  0
   58.1780   26.7957   45.2079 C   0  0  0  0  0  0  0  0  0  0  0  0
   58.9815   25.7171   45.2529 N   0  0  0  0  0  0  0  0  0  0  0  0
   58.2833   24.8406   46.0061 C   0  0  0  0  0  0  0  0  0  0  0  0
   58.7216   23.6964   46.2938 O   0  0  0  0  0  0  0  0  0  0  0  0
   57.0758   25.2821   46.4187 N   0  0  0  0  0  0  0  0  0  0  0  0
   57.0202   26.5151   45.8934 C   0  0  0  0  0  0  0  0  0  0  0  0
   55.9282   27.3630   46.0277 O   0  0  0  0  0  0  0  0  0  0  0  0
   65.7769   26.2630   53.0353 C   0  0  0  0  0  0  0  0  0  0  0  0
   66.9634   26.6308   52.1834 C   0  0  0  0  0  0  0  0  0  0  0  0
   66.8826   26.5277   50.7837 C   0  0  0  0  0  0  0  0  0  0  0  0
   67.9808   26.8660   49.9893 C   0  0  0  0  0  0  0  0  0  0  0  0
   69.1651   27.3125   50.5831 C   0  0  0  0  0  0  0  0  0  0  0  0
   69.2502   27.4267   51.9734 C   0  0  0  0  0  0  0  0  0  0  0  0
   68.1543   27.0895   52.7721 C   0  0  0  0  0  0  0  0  0  0  0  0
 17 18  2  0
 18 19  1  0
 19 20  2  0
 20 25  1  0
 25 26  1  0
 26 27  1  0
 27 28  2  0
 27 29  1  0
 29 30  1  0
 30 31  1  0
 19 21  1  0
 21 22  2  0
 22  1  1  0
  1  2  2  0
  1  3  1  0
  3  4  1  0
  4  5  1  0
  5  6  1  0
  6  7  1  0
  7  8  2  0
  7  9  1  0
  9 10  1  0
 10 11  1  0
 11 12  1  0
 12 32  1  0
 32 33  1  0
 33 34  2  0
 34 35  1  0
 35 36  2  0
 36 37  1  0
 37 38  2  0
 12 13  1  0
 13 14  1  0
  6 15  1  0
 15 16  1  0
 22 23  1  0
 23 24  1  0
 23 18  1  0
 30 25  2  0
 16  3  1  0
 14  9  1  0
 38 33  1  0
M  CHG 1  26  -1
M  CHG 1  29  -1
M  CHG 1  31  -1
M  END
> <UniqueID>
42

> <SMILES>
C=c1/c(=C\c2[n-]c(=O)[n-]c2[O-])cc(C(=O)N2CCN(C(=O)N3CCN(Cc4ccccc4)CC3)CC2)n1C

> <Energy>
163.57949964607315

> <Genealogy>
C=c1c(=Cc2[n-]c(=O)[n-]c2[O-])cc(C(=O)N2CCN(C(=O)N3CCN(Cc4ccccc4)CC3)CC2)n1C (protonated)
C=c1/c(=C\c2[n-]c(=O)[n-]c2[O-])cc(C(=O)N2CCN(C(=O)N3CCN(Cc4ccccc4)CC3)CC2)n1C (cis-trans isomerization)
C=c1/c(=C\c2[n-]c(=O)[n-]c2[O-])cc(C(=O)N2CCN(C(=O)N3CCN(Cc4ccccc4)CC3)CC2)n1C (3D coordinates assigned)
C=c1/c(=C\c2[n-]c(=O)[n-]c2[O-])cc(C(=O)N2CCN(C(=O)N3CCN(Cc4ccccc4)CC3)CC2)n1C (nonaromatic ring conformer: 163.57949964607315 kcal/mol)

> <smiles>
C=c1c(=Cc2[nH]c(=O)[nH]c2O)cc(C(=O)N2CCN(C(=O)N3CCN(Cc4ccccc4)CC3)CC2)n1C

> <score_type>
oracle

> <origin>
adg

> <m_score__min__energy>
-16.5

> <m_primary>
energy

> <minimizedAffinity>
-7.82988

> <minimizedRMSD>
0.96882

> <CNNscore>
0.1143165976

> <CNNaffinity>
6.4298782349

> <CNN_VS>
0.7350417972

> <CNNaffinity_variance>
0.1450482160

$$$$
67:0


 30 32  0  0  0  0  0  0  0  0999 V2000
   58.2184   32.1611   43.8830 C   0  0  0  0  0  0  0  0  0  0  0  0
   58.3613   31.0508   44.6115 C   0  0  0  0  0  0  0  0  0  0  0  0
   58.4062   29.8180   44.0784 N   0  0  0  0  0  0  0  0  0  0  0  0
   58.5467   28.9394   45.0926 C   0  0  0  0  0  0  0  0  0  0  0  0
   58.6496   27.6168   44.8556 C   0  0  0  0  0  0  0  0  0  0  0  0
   58.5925   29.6316   46.3175 C   0  0  0  0  0  0  0  0  0  0  0  0
   58.4747   30.9826   45.9904 C   0  0  0  0  0  0  0  0  0  0  0  0
   58.3473   29.5961   43.1210 H   0  0  0  0  0  0  0  0  0  0  0  0
   57.9291   26.5564   45.5821 C   0  0  0  0  0  0  0  0  0  0  0  0
   56.5532   26.6663   45.8240 C   0  0  0  0  0  0  0  0  0  0  0  0
   55.8347   27.7546   45.3436 O   0  0  0  0  0  0  0  0  0  0  0  0
   55.9099   25.7003   46.5307 N   0  0  0  0  0  0  0  0  0  0  0  0
   56.5829   24.6330   47.0311 C   0  0  0  0  0  0  0  0  0  0  0  0
   55.9657   23.7478   47.6776 O   0  0  0  0  0  0  0  0  0  0  0  0
   57.9230   24.5237   46.8404 N   0  0  0  0  0  0  0  0  0  0  0  0
   58.6100   25.4615   46.1389 C   0  0  0  0  0  0  0  0  0  0  0  0
   59.8556   25.3347   45.9917 O   0  0  0  0  0  0  0  0  0  0  0  0
   58.5540   32.1322   46.9163 C   0  0  0  0  0  0  0  0  0  0  0  0
   57.5074   32.7984   47.1508 O   0  0  0  0  0  0  0  0  0  0  0  0
   59.7783   32.4198   47.6322 N   0  0  0  0  0  0  0  0  0  0  0  0
   59.4669   33.0272   48.9517 C   0  0  0  0  0  0  0  0  0  0  0  0
   60.5756   33.9770   49.4621 C   0  0  0  0  0  0  0  0  0  0  0  0
   61.9227   33.5863   49.0011 N   0  0  0  0  0  0  0  0  0  0  0  0
   62.4268   32.4020   49.7174 C   0  0  0  0  0  0  0  0  0  0  0  0
   62.0261   33.4503   47.5267 C   0  0  0  0  0  0  0  0  0  0  0  0
   60.6626   33.2839   46.8286 C   0  0  0  0  0  0  0  0  0  0  0  0
   59.3277   32.0799   46.8256 H   0  0  0  0  0  0  0  0  0  0  0  0
   59.0234   29.1179   47.6727 C   0  0  0  0  0  0  0  0  0  0  0  0
   60.3986   28.4499   47.5835 C   0  0  0  0  0  0  0  0  0  0  0  0
   60.5381   27.3370   48.6182 C   0  0  0  0  0  0  0  0  0  0  0  0
  1  2  2  0
  2  3  1  0
  3  4  1  0
  4  5  2  0
  5  9  1  0
  9 10  2  0
 10 11  1  0
 10 12  1  0
 12 13  1  0
 13 14  2  0
 13 15  1  0
 15 16  1  0
 16 17  2  0
  4  6  1  0
  6 28  1  0
 28 29  1  0
 29 30  1  0
  6  7  2  0
  7 18  1  0
 18 19  2  0
 18 20  1  0
 20 21  1  0
 21 22  1  0
 22 23  1  0
 23 24  1  0
 23 25  1  0
 25 26  1  0
  7  2  1  0
 26 20  1  0
 16  9  1  0
  3  8  1  0
 20 27  1  0
M  CHG 1  11  -1
M  CHG 1  12  -1
M  CHG 1  15  -1
M  CHG 1  20   1
M  END
> <UniqueID>
64

> <SMILES>
C=c1[nH]c(=Cc2c([O-])[n-]c(=O)[n-]c2=O)c(CCC)c1C(=O)[NH+]1CCN(C)CC1

> <Energy>
105.01266351676152

> <Genealogy>
C=c1[nH]c(=Cc2c([O-])[n-]c(=O)[n-]c2=O)c(CCC)c1C(=O)[NH+]1CCN(C)CC1 (protonated)
C=c1[nH]c(=Cc2c([O-])[n-]c(=O)[n-]c2=O)c(CCC)c1C(=O)[NH+]1CCN(C)CC1 (3D coordinates assigned)
C=c1[nH]c(=Cc2c([O-])[n-]c(=O)[n-]c2=O)c(CCC)c1C(=O)[NH+]1CCN(C)CC1 (nonaromatic ring conformer: 105.01266351676152 kcal/mol)

> <smiles>
C=c1[nH]c(=Cc2c(O)[nH]c(=O)[nH]c2=O)c(CCC)c1C(=O)N1CCN(C)CC1

> <score_type>
oracle

> <origin>
adg

> <m_score__min__energy>
-14.380000000000001

> <m_primary>
energy

> <minimizedAffinity>
-6.71747

> <minimizedRMSD>
0.66831

> <CNNscore>
0.0914345384

> <CNNaffinity>
6.1371026039

> <CNN_VS>
0.5611431599

> <CNNaffinity_variance>
0.0534153432

$$$$
79:0


 29 32  0  0  0  0  0  0  0  0999 V2000
   54.3412   27.3482   53.6982 C   0  0  0  0  0  0  0  0  0  0  0  0
   54.8788   28.5489   53.4627 C   0  0  0  0  0  0  0  0  0  0  0  0
   56.2030   28.7738   53.5938 N   0  0  0  0  0  0  0  0  0  0  0  0
   56.3991   30.0986   53.4516 C   0  0  0  0  0  0  0  0  0  0  0  0
   55.1973   30.7412   53.2284 C   0  0  0  0  0  0  0  0  0  0  0  0
   54.2199   29.7590   53.1925 C   0  0  0  0  0  0  0  0  0  0  0  0
   52.9239   30.0232   52.9380 C   0  0  0  0  0  0  0  0  0  0  0  0
   56.8965   28.0956   53.7619 H   0  0  0  0  0  0  0  0  0  0  0  0
   57.7106   30.7610   53.5774 C   0  0  0  0  0  0  0  0  0  0  0  0
   58.0727   31.2033   54.7023 O   0  0  0  0  0  0  0  0  0  0  0  0
   58.5854   30.8913   52.4453 N   0  0  0  0  0  0  0  0  0  0  0  0
   60.0342   30.7803   52.6412 C   0  0  0  0  0  0  0  0  0  0  0  0
   60.6892   30.1728   51.3983 C   0  0  0  0  0  0  0  0  0  0  0  0
   60.2053   30.8432   50.1882 N   0  0  0  0  0  0  0  0  0  0  0  0
   61.0544   30.9037   49.0304 C   0  0  0  0  0  0  0  0  0  0  0  0
   60.8369   30.1227   48.0670 O   0  0  0  0  0  0  0  0  0  0  0  0
   58.7579   30.9526   49.9970 C   0  0  0  0  0  0  0  0  0  0  0  0
   58.1116   31.5740   51.2358 C   0  0  0  0  0  0  0  0  0  0  0  0
   62.1920   31.8942   48.9171 C   0  0  0  0  0  0  0  0  0  0  0  0
   62.9796   31.8798   47.6053 C   0  0  0  0  0  0  0  0  0  0  0  0
   62.5215   33.3041   47.3207 C   0  0  0  0  0  0  0  0  0  0  0  0
   61.7322   33.3192   48.6241 C   0  0  0  0  0  0  0  0  0  0  0  0
   52.3668   30.3916   51.6286 C   0  0  0  0  0  0  0  0  0  0  0  0
   52.3542   29.5659   50.5671 N   0  0  0  0  0  0  0  0  0  0  0  0
   51.6444   30.2522   49.6457 C   0  0  0  0  0  0  0  0  0  0  0  0
   51.4240   29.8063   48.4896 O   0  0  0  0  0  0  0  0  0  0  0  0
   51.1770   31.4485   50.0646 N   0  0  0  0  0  0  0  0  0  0  0  0
   51.6307   31.5147   51.3267 C   0  0  0  0  0  0  0  0  0  0  0  0
   51.3539   32.5659   52.1919 O   0  0  0  0  0  0  0  0  0  0  0  0
  1  2  2  0
  2  3  1  0
  3  4  1  0
  4  9  1  0
  9 10  2  0
  9 11  1  0
 11 12  1  0
 12 13  1  0
 13 14  1  0
 14 15  1  0
 15 16  2  0
 15 19  1  0
 19 20  1  0
 20 21  1  0
 21 22  1  0
 14 17  1  0
 17 18  1  0
  4  5  2  0
  5  6  1  0
  6  7  2  0
  7 23  1  0
 23 24  1  0
 24 25  1  0
 25 26  2  0
 25 27  1  0
 27 28  1  0
 28 29  1  0
  6  2  1  0
 28 23  2  0
 18 11  1  0
 22 19  1  0
  3  8  1  0
M  CHG 1  24  -1
M  CHG 1  27  -1
M  CHG 1  29  -1
M  END
> <UniqueID>
76

> <SMILES>
C=c1[nH]c(C(=O)N2CCN(C(=O)C3CCC3)CC2)cc1=Cc1[n-]c(=O)[n-]c1[O-]

> <Energy>
183.979616480056

> <Genealogy>
C=c1[nH]c(C(=O)N2CCN(C(=O)C3CCC3)CC2)cc1=Cc1[n-]c(=O)[n-]c1[O-] (protonated)
C=c1[nH]c(C(=O)N2CCN(C(=O)C3CCC3)CC2)cc1=Cc1[n-]c(=O)[n-]c1[O-] (3D coordinates assigned)
C=c1[nH]c(C(=O)N2CCN(C(=O)C3CCC3)CC2)cc1=Cc1[n-]c(=O)[n-]c1[O-] (nonaromatic ring conformer: 183.979616480056 kcal/mol)

> <smiles>
C=c1[nH]c(C(=O)N2CCN(C(=O)C3CCC3)CC2)cc1=Cc1[nH]c(=O)[nH]c1O

> <score_type>
oracle

> <origin>
adg

> <m_score__min__energy>
-17.579999999999998

> <m_primary>
energy

> <minimizedAffinity>
-6.17502

> <minimizedRMSD>
1.02356

> <CNNscore>
0.0591466017

> <CNNaffinity>
5.0431609154

> <CNN_VS>
0.2982858419

> <CNNaffinity_variance>
0.1372700185

$$$$
81:0


 27 30  0  0  0  0  0  0  0  0999 V2000
   54.9783   28.0969   54.1640 C   0  0  0  0  0  0  0  0  0  0  0  0
   55.5475   29.0535   53.4265 C   0  0  0  0  0  0  0  0  0  0  0  0
   56.8437   29.0996   53.2109 O   0  0  0  0  0  0  0  0  0  0  0  0
   57.1070   30.1361   52.4530 C   0  0  0  0  0  0  0  0  0  0  0  0
   55.9420   30.8085   52.1396 C   0  0  0  0  0  0  0  0  0  0  0  0
   54.9193   30.1214   52.7777 C   0  0  0  0  0  0  0  0  0  0  0  0
   53.6041   30.4231   52.7968 C   0  0  0  0  0  0  0  0  0  0  0  0
   52.7309   30.5349   51.6062 C   0  0  0  0  0  0  0  0  0  0  0  0
   52.7479   29.7244   50.5329 N   0  0  0  0  0  0  0  0  0  0  0  0
   51.7833   30.2298   49.7371 C   0  0  0  0  0  0  0  0  0  0  0  0
   51.4974   29.7324   48.6155 O   0  0  0  0  0  0  0  0  0  0  0  0
   51.1390   31.3054   50.2374 N   0  0  0  0  0  0  0  0  0  0  0  0
   51.7494   31.4839   51.4205 C   0  0  0  0  0  0  0  0  0  0  0  0
   51.4154   32.4922   52.3152 O   0  0  0  0  0  0  0  0  0  0  0  0
   58.4463   30.5217   51.9593 C   0  0  0  0  0  0  0  0  0  0  0  0
   59.3497   29.6416   52.0067 O   0  0  0  0  0  0  0  0  0  0  0  0
   58.7499   31.8166   51.3664 N   0  0  0  0  0  0  0  0  0  0  0  0
   58.7086   31.8034   49.8918 C   0  0  0  0  0  0  0  0  0  0  0  0
   60.0048   31.2878   49.2756 C   0  0  0  0  0  0  0  0  0  0  0  0
   61.1652   32.0734   49.7256 N   0  0  0  0  0  0  0  0  0  0  0  0
   61.2768   32.1960   51.1992 C   0  0  0  0  0  0  0  0  0  0  0  0
   59.9479   32.4819   51.9363 C   0  0  0  0  0  0  0  0  0  0  0  0
   59.4745   32.4574   51.1829 H   0  0  0  0  0  0  0  0  0  0  0  0
   61.4944   33.2381   48.8559 C   0  0  0  0  0  0  0  0  0  0  0  0
   62.9627   33.6614   48.8185 C   0  0  0  0  0  0  0  0  0  0  0  0
   63.0417   33.2443   47.3540 C   0  0  0  0  0  0  0  0  0  0  0  0
   61.5561   32.8951   47.3653 C   0  0  0  0  0  0  0  0  0  0  0  0
  1  2  2  0
  2  3  1  0
  3  4  1  0
  4 15  1  0
 15 16  2  0
 15 17  1  0
 17 18  1  0
 18 19  1  0
 19 20  1  0
 20 24  1  0
 24 25  1  0
 25 26  1  0
 26 27  1  0
 20 21  1  0
 21 22  1  0
  4  5  2  0
  5  6  1  0
  6  7  2  0
  7  8  1  0
  8  9  1  0
  9 10  1  0
 10 11  2  0
 10 12  1  0
 12 13  1  0
 13 14  1  0
  6  2  1  0
 13  8  2  0
 22 17  1  0
 27 24  1  0
 17 23  1  0
M  CHG 1   9  -1
M  CHG 1  12  -1
M  CHG 1  14  -1
M  CHG 1  17   1
M  END
> <UniqueID>
78

> <SMILES>
C=c1oc(C(=O)[NH+]2CCN(C3CCC3)CC2)cc1=Cc1[n-]c(=O)[n-]c1[O-]

> <Energy>
197.74919461686818

> <Genealogy>
C=c1oc(C(=O)[NH+]2CCN(C3CCC3)CC2)cc1=Cc1[n-]c(=O)[n-]c1[O-] (protonated)
C=c1oc(C(=O)[NH+]2CCN(C3CCC3)CC2)cc1=Cc1[n-]c(=O)[n-]c1[O-] (3D coordinates assigned)
C=c1oc(C(=O)[NH+]2CCN(C3CCC3)CC2)cc1=Cc1[n-]c(=O)[n-]c1[O-] (nonaromatic ring conformer: 197.74919461686818 kcal/mol)

> <smiles>
C=c1oc(C(=O)N2CCN(C3CCC3)CC2)cc1=Cc1[nH]c(=O)[nH]c1O

> <score_type>
oracle

> <origin>
adg

> <m_score__min__energy>
-16.260000000000002

> <m_primary>
energy

> <minimizedAffinity>
-6.07402

> <minimizedRMSD>
1.22020

> <CNNscore>
0.0821930021

> <CNNaffinity>
4.5436115265

> <CNN_VS>
0.3734530807

> <CNNaffinity_variance>
0.3593033552

$$$$
87:0


 29 32  0  0  0  0  0  0  0  0999 V2000
   58.1617   31.5691   51.7285 C   0  0  0  0  0  0  0  0  0  0  0  0
   58.2318   32.8691   52.2574 C   0  0  0  0  0  0  0  0  0  0  0  0
   59.3488   33.6696   52.0122 C   0  0  0  0  0  0  0  0  0  0  0  0
   60.3987   33.1901   51.2270 C   0  0  0  0  0  0  0  0  0  0  0  0
   60.3361   31.9037   50.6651 C   0  0  0  0  0  0  0  0  0  0  0  0
   59.2141   31.0978   50.9247 C   0  0  0  0  0  0  0  0  0  0  0  0
   61.4514   31.3893   49.8349 C   0  0  0  0  0  0  0  0  0  0  0  0
   62.3972   30.7618   50.3879 O   0  0  0  0  0  0  0  0  0  0  0  0
   61.4817   31.5971   48.4116 N   0  0  0  0  0  0  0  0  0  0  0  0
   62.0202   32.8383   47.8512 C   0  0  0  0  0  0  0  0  0  0  0  0
   60.8589   33.7391   47.4291 C   0  0  0  0  0  0  0  0  0  0  0  0
   59.8012   32.9823   46.6570 C   0  0  0  0  0  0  0  0  0  0  0  0
   58.8636   33.7052   45.9029 C   0  0  0  0  0  0  0  0  0  0  0  0
   57.8376   33.0425   45.2243 C   0  0  0  0  0  0  0  0  0  0  0  0
   57.7316   31.6531   45.3008 C   0  0  0  0  0  0  0  0  0  0  0  0
   56.7124   30.9968   44.6196 O   0  0  0  0  0  0  0  0  0  0  0  0
   58.6496   30.9211   46.0576 C   0  0  0  0  0  0  0  0  0  0  0  0
   59.6774   31.5744   46.7542 C   0  0  0  0  0  0  0  0  0  0  0  0
   60.6871   30.7510   47.5158 C   0  0  0  0  0  0  0  0  0  0  0  0
   56.9738   30.7158   51.9739 C   0  0  0  0  0  0  0  0  0  0  0  0
   57.0980   29.4640   51.9384 O   0  0  0  0  0  0  0  0  0  0  0  0
   55.4060   29.8307   54.7589 C   0  0  0  0  0  0  0  0  0  0  0  0
   54.4355   29.9559   53.6773 N   0  0  0  0  0  0  0  0  0  0  0  0
   53.2272   29.3717   53.6108 C   0  0  0  0  0  0  0  0  0  0  0  0
   52.6832   29.6958   52.3904 C   0  0  0  0  0  0  0  0  0  0  0  0
   51.4347   29.2919   51.9359 O   0  0  0  0  0  0  0  0  0  0  0  0
   53.5277   30.4639   51.6732 N   0  0  0  0  0  0  0  0  0  0  0  0
   54.5971   30.5867   52.4935 C   0  0  0  0  0  0  0  0  0  0  0  0
   55.6657   31.2672   52.1952 N   0  0  0  0  0  0  0  0  0  0  0  0
 22 23  1  0
 23 24  1  0
 24 25  2  0
 25 26  1  0
 25 27  1  0
 27 28  1  0
 28 29  2  0
 29 20  1  0
 20 21  2  0
 20  1  1  0
  1  2  2  0
  2  3  1  0
  3  4  2  0
  4  5  1  0
  5  7  1  0
  7  8  2  0
  7  9  1  0
  9 10  1  0
 10 11  1  0
 11 12  1  0
 12 13  2  0
 13 14  1  0
 14 15  2  0
 15 16  1  0
 15 17  1  0
 17 18  2  0
 18 19  1  0
  5  6  2  0
 28 23  1  0
  6  1  1  0
 19  9  1  0
 18 12  1  0
M  CHG 1  16  -1
M  CHG 1  26  -1
M  CHG 1  27  -1
M  END
> <UniqueID>
84

> <SMILES>
Cn1cc([O-])[n-]c1=NC(=O)c1cccc(C(=O)N2CCc3ccc([O-])cc3C2)c1

> <Energy>
95.42922297910333

> <Genealogy>
Cn1cc([O-])[n-]c1=NC(=O)c1cccc(C(=O)N2CCc3ccc([O-])cc3C2)c1 (protonated)
Cn1cc([O-])[n-]c1=NC(=O)c1cccc(C(=O)N2CCc3ccc([O-])cc3C2)c1 (3D coordinates assigned)
Cn1cc([O-])[n-]c1=NC(=O)c1cccc(C(=O)N2CCc3ccc([O-])cc3C2)c1 (nonaromatic ring conformer: 95.42922297910333 kcal/mol)

> <smiles>
Cn1cc(O)[nH]c1=NC(=O)c1cccc(C(=O)N2CCc3ccc(O)cc3C2)c1

> <score_type>
oracle

> <origin>
adg

> <m_score__min__energy>
-16.829999999999998

> <m_primary>
energy

> <minimizedAffinity>
-8.73964

> <minimizedRMSD>
2.25529

> <CNNscore>
0.8503193259

> <CNNaffinity>
6.4414343834

> <CNN_VS>
5.4772763252

> <CNNaffinity_variance>
0.0463168919

$$$$
12:0


 29 31  0  0  0  0  0  0  0  0999 V2000
   59.5176   29.3673   45.9358 N   0  0  0  0  0  0  0  0  0  0  0  0
   58.5606   29.7804   45.0669 C   0  0  0  0  0  0  0  0  0  0  0  0
   57.8432   28.6986   44.5963 C   0  0  0  0  0  0  0  0  0  0  0  0
   58.3914   27.5667   45.1675 C   0  0  0  0  0  0  0  0  0  0  0  0
   57.9771   26.3223   44.8579 C   0  0  0  0  0  0  0  0  0  0  0  0
   59.3970   28.0148   46.0379 C   0  0  0  0  0  0  0  0  0  0  0  0
   60.0507   27.2807   46.9526 C   0  0  0  0  0  0  0  0  0  0  0  0
   58.2741   31.1819   44.6837 C   0  0  0  0  0  0  0  0  0  0  0  0
   57.8677   31.4439   43.5206 O   0  0  0  0  0  0  0  0  0  0  0  0
   58.5208   32.2598   45.6057 N   0  0  0  0  0  0  0  0  0  0  0  0
   57.9824   32.1966   46.9688 C   0  0  0  0  0  0  0  0  0  0  0  0
   58.8417   33.0573   47.8983 C   0  0  0  0  0  0  0  0  0  0  0  0
   58.9747   34.3705   47.3862 O   0  0  0  0  0  0  0  0  0  0  0  0
   59.6878   34.3397   46.1652 C   0  0  0  0  0  0  0  0  0  0  0  0
   58.9029   33.5771   45.0925 C   0  0  0  0  0  0  0  0  0  0  0  0
   57.4130   25.3453   45.8023 C   0  0  0  0  0  0  0  0  0  0  0  0
   58.0149   24.1986   46.1719 N   0  0  0  0  0  0  0  0  0  0  0  0
   57.0752   23.5793   46.9189 C   0  0  0  0  0  0  0  0  0  0  0  0
   57.2710   22.4629   47.4649 O   0  0  0  0  0  0  0  0  0  0  0  0
   55.9052   24.2450   47.0217 N   0  0  0  0  0  0  0  0  0  0  0  0
   56.1327   25.3520   46.2980 C   0  0  0  0  0  0  0  0  0  0  0  0
   55.1857   26.3468   46.0883 O   0  0  0  0  0  0  0  0  0  0  0  0
   60.4694   30.2259   46.6585 C   0  0  0  0  0  0  0  0  0  0  0  0
   60.5795   29.7976   48.1234 C   0  0  0  0  0  0  0  0  0  0  0  0
   59.3262   29.9415   48.7673 O   0  0  0  0  0  0  0  0  0  0  0  0
   59.4620   29.7512   50.1601 C   0  0  0  0  0  0  0  0  0  0  0  0
   57.4717   29.9685   51.4927 O   0  0  0  0  0  0  0  0  0  0  0  0
   58.5057   30.6940   50.8876 C   0  0  0  0  0  0  0  0  0  0  0  0
   56.8730   30.5793   51.9503 H   0  0  0  0  0  0  0  0  0  0  0  0
 27 28  1  0
 28 26  1  0
 26 25  1  0
 25 24  1  0
 24 23  1  0
 23  1  1  0
  1  2  1  0
  2  8  1  0
  8  9  2  0
  8 10  1  0
 10 11  1  0
 11 12  1  0
 12 13  1  0
 13 14  1  0
 14 15  1  0
  2  3  2  0
  3  4  1  0
  4  5  2  0
  5 16  1  0
 16 17  1  0
 17 18  1  0
 18 19  2  0
 18 20  1  0
 20 21  1  0
 21 22  1  0
  4  6  1  0
  6  7  2  0
  6  1  1  0
 15 10  1  0
 21 16  2  0
 27 29  1  0
M  CHG 1  17  -1
M  CHG 1  20  -1
M  CHG 1  22  -1
M  END
> <UniqueID>
10

> <SMILES>
C=c1/c(=C\c2[n-]c(=O)[n-]c2[O-])cc(C(=O)N2CCOCC2)n1CCOCCO

> <Energy>
122.34805741735487

> <Genealogy>
C=c1c(=Cc2[n-]c(=O)[n-]c2[O-])cc(C(=O)N2CCOCC2)n1CCOCCO (protonated)
C=c1/c(=C\c2[n-]c(=O)[n-]c2[O-])cc(C(=O)N2CCOCC2)n1CCOCCO (cis-trans isomerization)
C=c1/c(=C\c2[n-]c(=O)[n-]c2[O-])cc(C(=O)N2CCOCC2)n1CCOCCO (3D coordinates assigned)
C=c1/c(=C\c2[n-]c(=O)[n-]c2[O-])cc(C(=O)N2CCOCC2)n1CCOCCO (nonaromatic ring conformer: 122.34805741735487 kcal/mol)

> <smiles>
C=c1c(=Cc2[nH]c(=O)[nH]c2O)cc(C(=O)N2CCOCC2)n1CCOCCO

> <score_type>
oracle

> <origin>
adg

> <m_score__min__energy>
-14.68

> <m_primary>
energy

> <minimizedAffinity>
-7.27102

> <minimizedRMSD>
0.77395

> <CNNscore>
0.1603591740

> <CNNaffinity>
5.7880001068

> <CNN_VS>
0.9281589389

> <CNNaffinity_variance>
0.1315457076

$$$$
19:0


 35 39  0  0  0  0  0  0  0  0999 V2000
   58.4240   27.9054   44.6110 C   0  0  0  0  0  0  0  0  0  0  0  0
   57.2182   28.6263   44.5569 C   0  0  0  0  0  0  0  0  0  0  0  0
   57.1958   29.9892   44.8660 C   0  0  0  0  0  0  0  0  0  0  0  0
   58.3767   30.6598   45.2108 C   0  0  0  0  0  0  0  0  0  0  0  0
   59.5852   29.9497   45.2337 C   0  0  0  0  0  0  0  0  0  0  0  0
   59.6085   28.5851   44.9344 C   0  0  0  0  0  0  0  0  0  0  0  0
   58.3540   32.0713   45.4843 N   0  0  0  0  0  0  0  0  0  0  0  0
   57.2872   32.6648   46.2942 C   0  0  0  0  0  0  0  0  0  0  0  0
   57.9205   33.3799   47.4853 C   0  0  0  0  0  0  0  0  0  0  0  0
   58.9542   34.3646   47.0735 N   0  0  0  0  0  0  0  0  0  0  0  0
   59.3873   34.3267   45.6556 C   0  0  0  0  0  0  0  0  0  0  0  0
   59.5008   32.8976   45.0953 C   0  0  0  0  0  0  0  0  0  0  0  0
   60.0503   34.5196   48.0533 C   0  0  0  0  0  0  0  0  0  0  0  0
   61.0412   33.3878   48.0249 C   0  0  0  0  0  0  0  0  0  0  0  0
   62.6176   33.4663   47.4369 S   0  0  0  0  0  0  0  0  0  0  0  0
   63.0117   31.8607   47.7447 C   0  0  0  0  0  0  0  0  0  0  0  0
   61.9060   31.2412   48.3136 C   0  0  0  0  0  0  0  0  0  0  0  0
   60.8032   32.0915   48.4700 C   0  0  0  0  0  0  0  0  0  0  0  0
   58.4754   26.4410   44.2435 C   0  0  0  0  0  0  0  0  0  0  0  0
   55.7206   23.1600   46.7873 C   0  0  0  0  0  0  0  0  0  0  0  0
   56.6165   24.0961   46.4158 C   0  0  0  0  0  0  0  0  0  0  0  0
   57.3641   24.8153   47.3319 C   0  0  0  0  0  0  0  0  0  0  0  0
   58.0890   25.7439   46.6182 C   0  0  0  0  0  0  0  0  0  0  0  0
   59.0160   26.7517   47.2297 C   0  0  0  0  0  0  0  0  0  0  0  0
   57.8697   25.6011   45.2904 N   0  0  0  0  0  0  0  0  0  0  0  0
   56.9818   24.5766   45.1476 C   0  0  0  0  0  0  0  0  0  0  0  0
   56.6188   24.0614   43.9608 C   0  0  0  0  0  0  0  0  0  0  0  0
   53.8364   25.2355   45.5099 O   0  0  0  0  0  0  0  0  0  0  0  0
   53.5642   23.8775   45.6333 C   0  0  0  0  0  0  0  0  0  0  0  0
   52.3986   23.3118   45.2738 N   0  0  0  0  0  0  0  0  0  0  0  0
   52.5754   22.0222   45.6292 C   0  0  0  0  0  0  0  0  0  0  0  0
   51.6863   21.1457   45.4606 O   0  0  0  0  0  0  0  0  0  0  0  0
   53.7706   21.7459   46.1933 N   0  0  0  0  0  0  0  0  0  0  0  0
   54.4094   22.9282   46.1630 C   0  0  0  0  0  0  0  0  0  0  0  0
   53.1975   25.8092   45.1350 H   0  0  0  0  0  0  0  0  0  0  0  0
 28 29  1  0
 29 30  1  0
 30 31  1  0
 31 32  2  0
 31 33  1  0
 33 34  1  0
 34 20  1  0
 20 21  2  0
 21 22  1  0
 22 23  2  0
 23 24  1  0
 23 25  1  0
 25 19  1  0
 19  1  1  0
  1  2  2  0
  2  3  1  0
  3  4  2  0
  4  7  1  0
  7  8  1  0
  8  9  1  0
  9 10  1  0
 10 13  1  0
 13 14  1  0
 14 15  1  0
 15 16  1  0
 16 17  2  0
 17 18  1  0
 10 11  1  0
 11 12  1  0
  4  5  1  0
  5  6  2  0
 25 26  1  0
 26 27  2  0
 34 29  2  0
 26 21  1  0
  6  1  1  0
 12  7  1  0
 18 14  2  0
 28 35  1  0
M  CHG 1  30  -1
M  CHG 1  33  -1
M  END
> <UniqueID>
17

> <SMILES>
C=c1/c(=C\c2[n-]c(=O)[n-]c2O)cc(C)n1Cc1ccc(N2CCN(Cc3cccs3)CC2)cc1

> <Energy>
173.65770404912908

> <Genealogy>
C=c1c(=Cc2[n-]c(=O)[n-]c2O)cc(C)n1Cc1ccc(N2CCN(Cc3cccs3)CC2)cc1 (protonated)
C=c1/c(=C\c2[n-]c(=O)[n-]c2O)cc(C)n1Cc1ccc(N2CCN(Cc3cccs3)CC2)cc1 (cis-trans isomerization)
C=c1/c(=C\c2[n-]c(=O)[n-]c2O)cc(C)n1Cc1ccc(N2CCN(Cc3cccs3)CC2)cc1 (3D coordinates assigned)
C=c1/c(=C\c2[n-]c(=O)[n-]c2O)cc(C)n1Cc1ccc(N2CCN(Cc3cccs3)CC2)cc1 (nonaromatic ring conformer: 173.65770404912908 kcal/mol)

> <smiles>
C=c1c(=Cc2[nH]c(=O)[nH]c2O)cc(C)n1Cc1ccc(N2CCN(Cc3cccs3)CC2)cc1

> <score_type>
oracle

> <origin>
adg

> <m_score__min__energy>
-14.06

> <m_primary>
energy

> <minimizedAffinity>
-7.48127

> <minimizedRMSD>
0.74920

> <CNNscore>
0.0740817413

> <CNNaffinity>
6.4880080223

> <CNN_VS>
0.4806429446

> <CNNaffinity_variance>
0.3766871393

$$$$
20:0


 29 32  0  0  0  0  0  0  0  0999 V2000
   57.8425   25.7302   45.0355 N   0  0  0  0  0  0  0  0  0  0  0  0
   58.6762   23.6696   45.6889 O   0  0  0  0  0  0  0  0  0  0  0  0
   57.9180   24.6383   45.9576 C   0  0  0  0  0  0  0  0  0  0  0  0
   57.1057   24.6363   47.2272 C   0  0  0  0  0  0  0  0  0  0  0  0
   56.0511   23.6231   47.1838 N   0  0  0  0  0  0  0  0  0  0  0  0
   54.8682   23.7122   46.5353 C   0  0  0  0  0  0  0  0  0  0  0  0
   54.4869   24.7916   45.7488 O   0  0  0  0  0  0  0  0  0  0  0  0
   54.1009   22.5907   46.7817 C   0  0  0  0  0  0  0  0  0  0  0  0
   54.8337   21.7906   47.6235 C   0  0  0  0  0  0  0  0  0  0  0  0
   56.0221   22.4534   47.8591 C   0  0  0  0  0  0  0  0  0  0  0  0
   57.0442   22.0013   48.6849 O   0  0  0  0  0  0  0  0  0  0  0  0
   54.3509   20.4882   48.1730 C   0  0  0  0  0  0  0  0  0  0  0  0
   52.9901   20.1160   47.6205 C   0  0  0  0  0  0  0  0  0  0  0  0
   52.2674   20.9033   46.7930 C   0  0  0  0  0  0  0  0  0  0  0  0
   52.7221   22.2660   46.3043 C   0  0  0  0  0  0  0  0  0  0  0  0
   58.6266   26.9533   45.1553 C   0  0  0  0  0  0  0  0  0  0  0  0
   57.6979   28.1318   45.4354 C   0  0  0  0  0  0  0  0  0  0  0  0
   58.4836   29.3299   45.8828 C   0  0  0  0  0  0  0  0  0  0  0  0
   59.7803   29.1867   46.3910 C   0  0  0  0  0  0  0  0  0  0  0  0
   60.4714   30.3158   46.8322 C   0  0  0  0  0  0  0  0  0  0  0  0
   59.8729   31.5833   46.7625 C   0  0  0  0  0  0  0  0  0  0  0  0
   58.5615   31.6769   46.2728 C   0  0  0  0  0  0  0  0  0  0  0  0
   57.9056   30.5610   45.8539 N   0  0  0  0  0  0  0  0  0  0  0  0
   60.6089   32.7770   47.2340 C   0  0  0  0  0  0  0  0  0  0  0  0
   60.8324   33.7236   46.4321 O   0  0  0  0  0  0  0  0  0  0  0  0
   61.0368   32.9100   48.5918 N   0  0  0  0  0  0  0  0  0  0  0  0
   61.7171   33.9457   49.3886 C   0  0  0  0  0  0  0  0  0  0  0  0
   61.5372   33.2791   50.7109 C   0  0  0  0  0  0  0  0  0  0  0  0
   60.8593   32.2327   49.8914 C   0  0  0  0  0  0  0  0  0  0  0  0
  2  3  2  0
  3  4  1  0
  4  5  1  0
  5  6  1  0
  6  7  1  0
  6  8  2  0
  8  9  1  0
  9 10  2  0
 10 11  1  0
  9 12  1  0
 12 13  1  0
 13 14  2  0
 14 15  1  0
  3  1  1  0
  1 16  1  0
 16 17  1  0
 17 18  1  0
 18 19  2  0
 19 20  1  0
 20 21  2  0
 21 24  1  0
 24 25  2  0
 24 26  1  0
 26 27  1  0
 27 28  1  0
 28 29  1  0
 21 22  1  0
 22 23  2  0
 10  5  1  0
 23 18  1  0
 15  8  1  0
 29 26  1  0
M  CHG 1   1  -1
M  CHG 1   7  -1
M  CHG 1  11  -1
M  END
> <UniqueID>
18

> <SMILES>
O=C(Cn1c([O-])c2c(c1[O-])CC=CC2)[N-]CCc1ccc(C(=O)N2CCC2)cn1

> <Energy>
126.24704919278915

> <Genealogy>
O=C(Cn1c([O-])c2c(c1[O-])CC=CC2)[N-]CCc1ccc(C(=O)N2CCC2)cn1 (protonated)
O=C(Cn1c([O-])c2c(c1[O-])CC=CC2)[N-]CCc1ccc(C(=O)N2CCC2)cn1 (3D coordinates assigned)
O=C(Cn1c([O-])c2c(c1[O-])CC=CC2)[N-]CCc1ccc(C(=O)N2CCC2)cn1 (nonaromatic ring conformer: 126.24704919278915 kcal/mol)

> <smiles>
O=C(Cn1c(O)c2c(c1O)CC=CC2)NCCc1ccc(C(=O)N2CCC2)cn1

> <score_type>
oracle

> <origin>
adg

> <m_score__min__energy>
-14.73

> <m_primary>
energy

> <minimizedAffinity>
-7.13370

> <minimizedRMSD>
1.79066

> <CNNscore>
0.0954382345

> <CNNaffinity>
6.0558600426

> <CNN_VS>
0.5779606104

> <CNNaffinity_variance>
0.6195736527

$$$$
53:0


 37 40  0  0  0  0  0  0  0  0999 V2000
   60.1415   30.2998   48.2494 C   0  0  0  0  0  0  0  0  0  0  0  0
   60.5222   31.4297   48.9885 C   0  0  0  0  0  0  0  0  0  0  0  0
   60.1599   31.5494   50.2947 N   0  0  0  0  0  0  0  0  0  0  0  0
   59.4145   30.6033   50.9282 C   0  0  0  0  0  0  0  0  0  0  0  0
   59.0211   29.4542   50.2271 C   0  0  0  0  0  0  0  0  0  0  0  0
   59.3833   29.3074   48.8873 C   0  0  0  0  0  0  0  0  0  0  0  0
   59.0772   30.7888   52.3543 C   0  0  0  0  0  0  0  0  0  0  0  0
   59.9998   31.0468   53.1732 O   0  0  0  0  0  0  0  0  0  0  0  0
   57.7254   30.6631   52.8293 N   0  0  0  0  0  0  0  0  0  0  0  0
   57.4827   29.9732   54.1002 C   0  0  0  0  0  0  0  0  0  0  0  0
   55.9847   29.7558   54.3282 C   0  0  0  0  0  0  0  0  0  0  0  0
   55.3382   29.4637   53.0353 N   0  0  0  0  0  0  0  0  0  0  0  0
   55.3213   30.6756   52.1801 C   0  0  0  0  0  0  0  0  0  0  0  0
   56.6502   31.4619   52.2238 C   0  0  0  0  0  0  0  0  0  0  0  0
   53.9744   28.9401   53.2506 C   0  0  0  0  0  0  0  0  0  0  0  0
   52.9934   30.0676   53.4643 C   0  0  0  0  0  0  0  0  0  0  0  0
   52.9038   30.5591   54.6236 O   0  0  0  0  0  0  0  0  0  0  0  0
   52.1627   30.5948   52.4011 N   0  0  0  0  0  0  0  0  0  0  0  0
   51.1843   31.6384   52.7237 C   0  0  0  0  0  0  0  0  0  0  0  0
   52.2903   30.1135   51.0216 C   0  0  0  0  0  0  0  0  0  0  0  0
   60.5458   30.1519   46.8055 C   0  0  0  0  0  0  0  0  0  0  0  0
   57.8675   26.5082   44.7100 C   0  0  0  0  0  0  0  0  0  0  0  0
   58.3775   27.6979   45.0865 C   0  0  0  0  0  0  0  0  0  0  0  0
   57.7834   28.8985   44.7438 C   0  0  0  0  0  0  0  0  0  0  0  0
   58.5032   29.8937   45.3682 C   0  0  0  0  0  0  0  0  0  0  0  0
   58.1948   31.3556   45.2387 C   0  0  0  0  0  0  0  0  0  0  0  0
   59.5474   29.3707   46.0544 N   0  0  0  0  0  0  0  0  0  0  0  0
   59.5029   28.0219   45.8652 C   0  0  0  0  0  0  0  0  0  0  0  0
   60.4627   27.1738   46.2734 C   0  0  0  0  0  0  0  0  0  0  0  0
   55.0986   26.3512   46.1251 O   0  0  0  0  0  0  0  0  0  0  0  0
   56.1111   25.3975   46.2035 C   0  0  0  0  0  0  0  0  0  0  0  0
   55.9758   24.2353   46.8612 N   0  0  0  0  0  0  0  0  0  0  0  0
   57.1476   23.6129   46.6172 C   0  0  0  0  0  0  0  0  0  0  0  0
   57.4092   22.4644   47.0601 O   0  0  0  0  0  0  0  0  0  0  0  0
   58.0100   24.3108   45.8487 N   0  0  0  0  0  0  0  0  0  0  0  0
   57.3579   25.4630   45.6117 C   0  0  0  0  0  0  0  0  0  0  0  0
   54.2849   26.2081   46.5670 H   0  0  0  0  0  0  0  0  0  0  0  0
 30 31  1  0
 31 32  1  0
 32 33  1  0
 33 34  2  0
 33 35  1  0
 35 36  1  0
 36 22  1  0
 22 23  2  0
 23 24  1  0
 24 25  2  0
 25 26  1  0
 25 27  1  0
 27 21  1  0
 21  1  1  0
  1  2  2  0
  2  3  1  0
  3  4  2  0
  4  7  1  0
  7  8  2  0
  7  9  1  0
  9 10  1  0
 10 11  1  0
 11 12  1  0
 12 15  1  0
 15 16  1  0
 16 17  2  0
 16 18  1  0
 18 19  1  0
 18 20  1  0
 12 13  1  0
 13 14  1  0
  4  5  1  0
  5  6  2  0
 27 28  1  0
 28 29  2  0
 36 31  2  0
 28 23  1  0
  6  1  1  0
 14  9  1  0
 30 37  1  0
M  CHG 1  32  -1
M  CHG 1  35  -1
M  END
> <UniqueID>
48

> <SMILES>
C=c1/c(=C\c2[n-]c(=O)[n-]c2O)cc(C)n1Cc1ccc(C(=O)N2CCN(CC(=O)N(C)C)CC2)nc1

> <Energy>
144.51481665519523

> <Genealogy>
C=c1c(=Cc2[n-]c(=O)[n-]c2O)cc(C)n1Cc1ccc(C(=O)N2CCN(CC(=O)N(C)C)CC2)nc1 (protonated)
C=c1/c(=C\c2[n-]c(=O)[n-]c2O)cc(C)n1Cc1ccc(C(=O)N2CCN(CC(=O)N(C)C)CC2)nc1 (cis-trans isomerization)
C=c1/c(=C\c2[n-]c(=O)[n-]c2O)cc(C)n1Cc1ccc(C(=O)N2CCN(CC(=O)N(C)C)CC2)nc1 (3D coordinates assigned)
C=c1/c(=C\c2[n-]c(=O)[n-]c2O)cc(C)n1Cc1ccc(C(=O)N2CCN(CC(=O)N(C)C)CC2)nc1 (nonaromatic ring conformer: 144.51481665519523 kcal/mol)

> <smiles>
C=c1c(=Cc2[nH]c(=O)[nH]c2O)cc(C)n1Cc1ccc(C(=O)N2CCN(CC(=O)N(C)C)CC2)nc1

> <score_type>
oracle

> <origin>
adg

> <m_score__min__energy>
-15.24

> <m_primary>
energy

> <minimizedAffinity>
-8.83007

> <minimizedRMSD>
0.67801

> <CNNscore>
0.3672338426

> <CNNaffinity>
6.7511868477

> <CNN_VS>
2.4792642593

> <CNNaffinity_variance>
0.3989701271

$$$$
55:0


 25 27  0  0  0  0  0  0  0  0999 V2000
   56.5939   29.9558   43.5849 C   0  0  0  0  0  0  0  0  0  0  0  0
   57.4039   29.4011   44.4898 C   0  0  0  0  0  0  0  0  0  0  0  0
   58.0703   30.0501   45.5269 C   0  0  0  0  0  0  0  0  0  0  0  0
   58.7659   29.0687   46.2127 C   0  0  0  0  0  0  0  0  0  0  0  0
   58.4829   27.8670   45.5796 C   0  0  0  0  0  0  0  0  0  0  0  0
   58.9638   26.6551   45.8965 C   0  0  0  0  0  0  0  0  0  0  0  0
   57.6648   28.0798   44.5281 N   0  0  0  0  0  0  0  0  0  0  0  0
   57.3229   27.3979   43.9058 H   0  0  0  0  0  0  0  0  0  0  0  0
   58.1457   25.4297   45.9686 C   0  0  0  0  0  0  0  0  0  0  0  0
   56.7737   25.3264   46.0899 C   0  0  0  0  0  0  0  0  0  0  0  0
   55.8792   26.3829   46.2030 O   0  0  0  0  0  0  0  0  0  0  0  0
   56.3915   24.0350   46.0306 N   0  0  0  0  0  0  0  0  0  0  0  0
   57.5614   23.3848   45.8512 C   0  0  0  0  0  0  0  0  0  0  0  0
   57.6365   22.1331   45.7396 O   0  0  0  0  0  0  0  0  0  0  0  0
   58.6374   24.1933   45.7938 N   0  0  0  0  0  0  0  0  0  0  0  0
   59.5769   23.9344   45.6543 H   0  0  0  0  0  0  0  0  0  0  0  0
   58.1266   31.5007   45.8184 C   0  0  0  0  0  0  0  0  0  0  0  0
   57.2683   32.2666   45.3004 O   0  0  0  0  0  0  0  0  0  0  0  0
   59.1931   32.0842   46.6688 C   0  0  0  0  0  0  0  0  0  0  0  0
   59.0255   33.3639   47.2295 C   0  0  0  0  0  0  0  0  0  0  0  0
   60.0207   33.9197   48.0375 C   0  0  0  0  0  0  0  0  0  0  0  0
   61.1901   33.2015   48.3042 C   0  0  0  0  0  0  0  0  0  0  0  0
   62.5499   33.9627   49.4091 Br  0  0  0  0  0  0  0  0  0  0  0  0
   61.3613   31.9233   47.7654 C   0  0  0  0  0  0  0  0  0  0  0  0
   60.3675   31.3632   46.9575 C   0  0  0  0  0  0  0  0  0  0  0  0
  1  2  2  0
  2  3  1  0
  3 17  1  0
 17 18  2  0
 17 19  1  0
 19 20  2  0
 20 21  1  0
 21 22  2  0
 22 23  1  0
 22 24  1  0
 24 25  2  0
  3  4  2  0
  4  5  1  0
  5  6  2  0
  6  9  1  0
  9 10  2  0
 10 11  1  0
 10 12  1  0
 12 13  1  0
 13 14  2  0
 13 15  1  0
  5  7  1  0
  7  2  1  0
 25 19  1  0
 15  9  1  0
 15 16  1  0
  7  8  1  0
M  CHG 1  11  -1
M  CHG 1  12  -1
M  END
> <UniqueID>
50

> <SMILES>
C=c1[nH]/c(=C/c2[nH]c(=O)[n-]c2[O-])cc1C(=O)c1ccc(Br)cc1

> <Energy>
103.98542813443055

> <Genealogy>
C=c1[nH]c(=Cc2[nH]c(=O)[n-]c2[O-])cc1C(=O)c1ccc(Br)cc1 (protonated)
C=c1[nH]/c(=C/c2[nH]c(=O)[n-]c2[O-])cc1C(=O)c1ccc(Br)cc1 (cis-trans isomerization)
C=c1[nH]/c(=C/c2[nH]c(=O)[n-]c2[O-])cc1C(=O)c1ccc(Br)cc1 (3D coordinates assigned)
C=c1[nH]/c(=C/c2[nH]c(=O)[n-]c2[O-])cc1C(=O)c1ccc(Br)cc1 (optimized conformer: 103.98542813443055 kcal/mol)

> <smiles>
C=c1[nH]c(=Cc2[nH]c(=O)[nH]c2O)cc1C(=O)c1ccc(Br)cc1

> <score_type>
oracle

> <origin>
adg

> <m_score__min__energy>
-14.449999999999999

> <m_primary>
energy

> <minimizedAffinity>
-8.58163

> <minimizedRMSD>
0.91147

> <CNNscore>
0.5380868912

> <CNNaffinity>
6.7771606445

> <CNN_VS>
3.6467013359

> <CNNaffinity_variance>
0.2662862837

$$$$
57:0


 34 37  0  0  0  0  0  0  0  0999 V2000
   58.0178   30.6813   53.6352 C   0  0  0  0  0  0  0  0  0  0  0  0
   58.4145   31.1553   54.7326 O   0  0  0  0  0  0  0  0  0  0  0  0
   58.8318   30.8282   52.4639 N   0  0  0  0  0  0  0  0  0  0  0  0
   59.2236   29.6490   51.6822 C   0  0  0  0  0  0  0  0  0  0  0  0
   59.0912   29.9165   50.1676 C   0  0  0  0  0  0  0  0  0  0  0  0
   58.7491   31.3260   49.8875 N   0  0  0  0  0  0  0  0  0  0  0  0
   59.6671   32.2258   50.6129 C   0  0  0  0  0  0  0  0  0  0  0  0
   59.3660   32.1491   52.1147 C   0  0  0  0  0  0  0  0  0  0  0  0
   54.3356   27.5493   53.9776 C   0  0  0  0  0  0  0  0  0  0  0  0
   55.0202   28.6740   53.7170 C   0  0  0  0  0  0  0  0  0  0  0  0
   54.4689   29.9092   53.3554 C   0  0  0  0  0  0  0  0  0  0  0  0
   53.1646   30.2134   53.2120 C   0  0  0  0  0  0  0  0  0  0  0  0
   55.5332   30.7899   53.2418 C   0  0  0  0  0  0  0  0  0  0  0  0
   56.6776   30.0698   53.5279 C   0  0  0  0  0  0  0  0  0  0  0  0
   56.3722   28.7770   53.7936 N   0  0  0  0  0  0  0  0  0  0  0  0
   57.3229   27.7121   54.1276 C   0  0  0  0  0  0  0  0  0  0  0  0
   52.4978   30.4057   51.9122 C   0  0  0  0  0  0  0  0  0  0  0  0
   52.6882   29.5915   50.8615 N   0  0  0  0  0  0  0  0  0  0  0  0
   51.9403   30.1556   49.8872 C   0  0  0  0  0  0  0  0  0  0  0  0
   51.8423   29.6590   48.7334 O   0  0  0  0  0  0  0  0  0  0  0  0
   51.3047   31.2904   50.2443 N   0  0  0  0  0  0  0  0  0  0  0  0
   51.6762   31.4438   51.5244 C   0  0  0  0  0  0  0  0  0  0  0  0
   51.3137   32.5339   52.3021 O   0  0  0  0  0  0  0  0  0  0  0  0
   58.7453   31.5986   48.4370 C   0  0  0  0  0  0  0  0  0  0  0  0
   60.0909   31.2932   47.8450 C   0  0  0  0  0  0  0  0  0  0  0  0
   60.6513   30.1971   48.1069 O   0  0  0  0  0  0  0  0  0  0  0  0
   60.7142   32.2286   46.9619 N   0  0  0  0  0  0  0  0  0  0  0  0
   61.1628   33.5505   47.3731 C   0  0  0  0  0  0  0  0  0  0  0  0
   62.2104   33.4043   48.4393 C   0  0  0  0  0  0  0  0  0  0  0  0
   62.1255   34.1367   49.6364 C   0  0  0  0  0  0  0  0  0  0  0  0
   63.1254   34.0140   50.6067 C   0  0  0  0  0  0  0  0  0  0  0  0
   64.2166   33.1688   50.3864 C   0  0  0  0  0  0  0  0  0  0  0  0
   64.3127   32.4456   49.1926 C   0  0  0  0  0  0  0  0  0  0  0  0
   63.3131   32.5610   48.2229 C   0  0  0  0  0  0  0  0  0  0  0  0
  9 10  2  0
 10 11  1  0
 11 12  2  0
 12 17  1  0
 17 18  1  0
 18 19  1  0
 19 20  2  0
 19 21  1  0
 21 22  1  0
 22 23  1  0
 11 13  1  0
 13 14  2  0
 14  1  1  0
  1  2  2  0
  1  3  1  0
  3  4  1  0
  4  5  1  0
  5  6  1  0
  6 24  1  0
 24 25  1  0
 25 26  2  0
 25 27  1  0
 27 28  1  0
 28 29  1  0
 29 30  2  0
 30 31  1  0
 31 32  2  0
 32 33  1  0
 33 34  2  0
  6  7  1  0
  7  8  1  0
 14 15  1  0
 15 16  1  0
 15 10  1  0
 22 17  2  0
  8  3  1  0
 34 29  1  0
M  CHG 1  18  -1
M  CHG 1  21  -1
M  CHG 1  23  -1
M  CHG 1  27  -1
M  END
> <UniqueID>
52

> <SMILES>
C=c1/c(=C/c2[n-]c(=O)[n-]c2[O-])cc(C(=O)N2CCN(CC(=O)[N-]Cc3ccccc3)CC2)n1C

> <Energy>
130.89282031612947

> <Genealogy>
C=c1c(=Cc2[n-]c(=O)[n-]c2[O-])cc(C(=O)N2CCN(CC(=O)[N-]Cc3ccccc3)CC2)n1C (protonated)
C=c1/c(=C/c2[n-]c(=O)[n-]c2[O-])cc(C(=O)N2CCN(CC(=O)[N-]Cc3ccccc3)CC2)n1C (cis-trans isomerization)
C=c1/c(=C/c2[n-]c(=O)[n-]c2[O-])cc(C(=O)N2CCN(CC(=O)[N-]Cc3ccccc3)CC2)n1C (3D coordinates assigned)
C=c1/c(=C/c2[n-]c(=O)[n-]c2[O-])cc(C(=O)N2CCN(CC(=O)[N-]Cc3ccccc3)CC2)n1C (nonaromatic ring conformer: 130.89282031612947 kcal/mol)

> <smiles>
C=c1c(=Cc2[nH]c(=O)[nH]c2O)cc(C(=O)N2CCN(CC(=O)NCc3ccccc3)CC2)n1C

> <score_type>
oracle

> <origin>
adg

> <m_score__min__energy>
-20.260000000000002

> <m_primary>
energy

> <minimizedAffinity>
-6.07653

> <minimizedRMSD>
1.36456

> <CNNscore>
0.0272350479

> <CNNaffinity>
4.7896447182

> <CNN_VS>
0.1304462105

> <CNNaffinity_variance>
0.6662440896

$$$$
63:0


 31 33  0  0  0  0  0  0  0  0999 V2000
   58.1049   31.4418   44.9936 C   0  0  0  0  0  0  0  0  0  0  0  0
   56.8045   31.2764   44.4968 C   0  0  0  0  0  0  0  0  0  0  0  0
   56.3592   30.0088   44.1083 C   0  0  0  0  0  0  0  0  0  0  0  0
   57.1952   28.8981   44.2554 C   0  0  0  0  0  0  0  0  0  0  0  0
   58.4867   29.0450   44.7809 C   0  0  0  0  0  0  0  0  0  0  0  0
   58.9589   30.3318   45.0890 C   0  0  0  0  0  0  0  0  0  0  0  0
   62.7220   33.8773   49.9721 C   0  0  0  0  0  0  0  0  0  0  0  0
   61.3991   33.2018   50.1750 C   0  0  0  0  0  0  0  0  0  0  0  0
   61.1905   32.5955   51.2581 O   0  0  0  0  0  0  0  0  0  0  0  0
   60.3678   33.2564   49.1658 N   0  0  0  0  0  0  0  0  0  0  0  0
   60.3800   34.3333   48.1635 C   0  0  0  0  0  0  0  0  0  0  0  0
   59.0741   34.3693   47.3675 C   0  0  0  0  0  0  0  0  0  0  0  0
   58.7571   33.0167   46.8820 N   0  0  0  0  0  0  0  0  0  0  0  0
   58.5610   32.7597   45.4723 C   0  0  0  0  0  0  0  0  0  0  0  0
   58.8303   33.6508   44.6186 O   0  0  0  0  0  0  0  0  0  0  0  0
   58.7887   31.8922   47.8348 C   0  0  0  0  0  0  0  0  0  0  0  0
   59.2212   32.3329   49.2417 C   0  0  0  0  0  0  0  0  0  0  0  0
   59.2702   27.8670   45.0252 N   0  0  0  0  0  0  0  0  0  0  0  0
   59.0367   26.7566   46.3483 S   0  0  0  0  0  0  0  0  0  0  0  0
   58.2278   27.4219   47.4345 O   0  0  0  0  0  0  0  0  0  0  0  0
   60.3869   26.3886   46.9072 O   0  0  0  0  0  0  0  0  0  0  0  0
   58.2505   25.2688   45.8131 C   0  0  0  0  0  0  0  0  0  0  0  0
   59.0065   24.1286   45.5182 C   0  0  0  0  0  0  0  0  0  0  0  0
   58.3703   22.9275   45.1988 C   0  0  0  0  0  0  0  0  0  0  0  0
   56.9731   22.8727   45.1227 C   0  0  0  0  0  0  0  0  0  0  0  0
   56.1991   24.0153   45.3823 C   0  0  0  0  0  0  0  0  0  0  0  0
   56.8485   25.2146   45.7335 C   0  0  0  0  0  0  0  0  0  0  0  0
   54.7171   23.9462   45.3068 C   0  0  0  0  0  0  0  0  0  0  0  0
   53.9312   25.1248   45.5247 N   0  0  0  0  0  0  0  0  0  0  0  0
   54.1419   22.8575   45.0445 O   0  0  0  0  0  0  0  0  0  0  0  0
   54.3732   25.9801   45.7303 H   0  0  0  0  0  0  0  0  0  0  0  0
  7  8  1  0
  8  9  2  0
  8 10  1  0
 10 11  1  0
 11 12  1  0
 12 13  1  0
 13 14  1  0
 14 15  2  0
 14  1  1  0
  1  2  2  0
  2  3  1  0
  3  4  2  0
  4  5  1  0
  5 18  1  0
 18 19  1  0
 19 20  2  0
 19 21  2  0
 19 22  1  0
 22 23  2  0
 23 24  1  0
 24 25  2  0
 25 26  1  0
 26 28  1  0
 28 29  1  0
 28 30  2  0
 26 27  2  0
  5  6  2  0
 13 16  1  0
 16 17  1  0
 17 10  1  0
  6  1  1  0
 27 22  1  0
 29 31  1  0
M  CHG 1  18  -1
M  CHG 1  29  -1
M  END
> <UniqueID>
58

> <SMILES>
CC(=O)N1CCN(C(=O)c2cccc([N-]S(=O)(=O)c3cccc(C([NH-])=O)c3)c2)CC1

> <Energy>
58.98501863400156

> <Genealogy>
CC(=O)N1CCN(C(=O)c2cccc([N-]S(=O)(=O)c3cccc(C([NH-])=O)c3)c2)CC1 (protonated)
CC(=O)N1CCN(C(=O)c2cccc([N-]S(=O)(=O)c3cccc(C([NH-])=O)c3)c2)CC1 (3D coordinates assigned)
CC(=O)N1CCN(C(=O)c2cccc([N-]S(=O)(=O)c3cccc(C([NH-])=O)c3)c2)CC1 (nonaromatic ring conformer: 58.98501863400156 kcal/mol)

> <smiles>
CC(=O)N1CCN(C(=O)c2cccc(NS(=O)(=O)c3cccc(C(N)=O)c3)c2)CC1

> <score_type>
oracle

> <origin>
adg

> <m_score__min__energy>
-14.57

> <m_primary>
energy

> <minimizedAffinity>
-8.66793

> <minimizedRMSD>
0.77845

> <CNNscore>
0.1936244071

> <CNNaffinity>
6.0622143745

> <CNN_VS>
1.1737927198

> <CNNaffinity_variance>
0.0527168922

$$$$
64:0


 32 35  0  0  0  0  0  0  0  0999 V2000
   58.9271   28.6806   44.9122 C   0  0  0  0  0  0  0  0  0  0  0  0
   58.8669   29.9228   45.4089 C   0  0  0  0  0  0  0  0  0  0  0  0
   58.1231   31.2130   44.6286 S   0  0  0  0  0  0  0  0  0  0  0  0
   58.4199   32.3505   45.8311 C   0  0  0  0  0  0  0  0  0  0  0  0
   58.0116   33.6178   45.7713 C   0  0  0  0  0  0  0  0  0  0  0  0
   59.1070   31.7283   46.8818 C   0  0  0  0  0  0  0  0  0  0  0  0
   59.3546   30.3671   46.6392 C   0  0  0  0  0  0  0  0  0  0  0  0
   56.1511   28.1003   45.1865 O   0  0  0  0  0  0  0  0  0  0  0  0
   57.0789   27.2218   45.7397 C   0  0  0  0  0  0  0  0  0  0  0  0
   56.6467   26.1093   46.3905 N   0  0  0  0  0  0  0  0  0  0  0  0
   57.5233   25.2293   46.9380 C   0  0  0  0  0  0  0  0  0  0  0  0
   57.0987   24.2102   47.5400 O   0  0  0  0  0  0  0  0  0  0  0  0
   58.8587   25.4462   46.8301 N   0  0  0  0  0  0  0  0  0  0  0  0
   59.3428   26.5412   46.1885 C   0  0  0  0  0  0  0  0  0  0  0  0
   60.5895   26.6911   46.0793 O   0  0  0  0  0  0  0  0  0  0  0  0
   58.4531   27.4820   45.6392 C   0  0  0  0  0  0  0  0  0  0  0  0
   55.2345   27.9197   45.2577 H   0  0  0  0  0  0  0  0  0  0  0  0
   59.5698   32.4044   48.1119 C   0  0  0  0  0  0  0  0  0  0  0  0
   58.8027   32.4468   49.1121 O   0  0  0  0  0  0  0  0  0  0  0  0
   60.8719   33.0214   48.1826 N   0  0  0  0  0  0  0  0  0  0  0  0
   61.1281   34.1137   49.1294 C   0  0  0  0  0  0  0  0  0  0  0  0
   62.2247   33.7227   50.1350 C   0  0  0  0  0  0  0  0  0  0  0  0
   63.2827   32.7462   49.5483 C   0  0  0  0  0  0  0  0  0  0  0  0
   63.3495   32.8553   48.0150 C   0  0  0  0  0  0  0  0  0  0  0  0
   61.9932   32.4774   47.3984 C   0  0  0  0  0  0  0  0  0  0  0  0
   64.6786   32.9691   50.1696 C   0  0  0  0  0  0  0  0  0  0  0  0
   65.1947   31.7244   50.8466 C   0  0  0  0  0  0  0  0  0  0  0  0
   66.5762   31.4774   50.9319 C   0  0  0  0  0  0  0  0  0  0  0  0
   67.0478   30.3348   51.5852 C   0  0  0  0  0  0  0  0  0  0  0  0
   66.1477   29.4342   52.1618 C   0  0  0  0  0  0  0  0  0  0  0  0
   64.7740   29.6762   52.0854 C   0  0  0  0  0  0  0  0  0  0  0  0
   64.2973   30.8160   51.4336 C   0  0  0  0  0  0  0  0  0  0  0  0
  8  9  1  0
  9 10  1  0
 10 11  1  0
 11 12  2  0
 11 13  1  0
 13 14  1  0
 14 15  2  0
 14 16  1  0
 16  1  1  0
  1  2  2  0
  2  3  1  0
  3  4  1  0
  4  5  2  0
  4  6  1  0
  6 18  1  0
 18 19  2  0
 18 20  1  0
 20 21  1  0
 21 22  1  0
 22 23  1  0
 23 26  1  0
 26 27  1  0
 27 28  2  0
 28 29  1  0
 29 30  2  0
 30 31  1  0
 31 32  2  0
 23 24  1  0
 24 25  1  0
  6  7  2  0
 16  9  2  0
  7  2  1  0
 25 20  1  0
 32 27  1  0
  8 17  1  0
M  CHG 1  10  -1
M  CHG 1  13  -1
M  END
> <UniqueID>
59

> <SMILES>
C=c1s/c(=C/c2c(O)[n-]c(=O)[n-]c2=O)cc1C(=O)N1CCC(Cc2ccccc2)CC1

> <Energy>
96.31157635699022

> <Genealogy>
C=c1sc(=Cc2c(O)[n-]c(=O)[n-]c2=O)cc1C(=O)N1CCC(Cc2ccccc2)CC1 (protonated)
C=c1s/c(=C/c2c(O)[n-]c(=O)[n-]c2=O)cc1C(=O)N1CCC(Cc2ccccc2)CC1 (cis-trans isomerization)
C=c1s/c(=C/c2c(O)[n-]c(=O)[n-]c2=O)cc1C(=O)N1CCC(Cc2ccccc2)CC1 (3D coordinates assigned)
C=c1s/c(=C/c2c(O)[n-]c(=O)[n-]c2=O)cc1C(=O)N1CCC(Cc2ccccc2)CC1 (nonaromatic ring conformer: 96.31157635699022 kcal/mol)

> <smiles>
C=c1sc(=Cc2c(O)[nH]c(=O)[nH]c2=O)cc1C(=O)N1CCC(Cc2ccccc2)CC1

> <score_type>
oracle

> <origin>
adg

> <m_score__min__energy>
-14.6

> <m_primary>
energy

> <minimizedAffinity>
-9.46285

> <minimizedRMSD>
1.14909

> <CNNscore>
0.7903327346

> <CNNaffinity>
7.3522529602

> <CNN_VS>
5.8107261658

> <CNNaffinity_variance>
0.0640861690

$$$$
74:0


 23 24  0  0  0  0  0  0  0  0999 V2000
   59.2850   26.9975   47.3682 C   0  0  0  0  0  0  0  0  0  0  0  0
   58.6996   27.7102   46.3918 C   0  0  0  0  0  0  0  0  0  0  0  0
   58.1853   27.2092   45.1867 C   0  0  0  0  0  0  0  0  0  0  0  0
   57.9060   25.9504   44.8008 C   0  0  0  0  0  0  0  0  0  0  0  0
   57.9499   28.3085   44.3807 C   0  0  0  0  0  0  0  0  0  0  0  0
   58.2321   29.4260   45.1360 C   0  0  0  0  0  0  0  0  0  0  0  0
   58.0920   30.8340   44.6403 C   0  0  0  0  0  0  0  0  0  0  0  0
   58.6834   29.0712   46.3624 N   0  0  0  0  0  0  0  0  0  0  0  0
   57.2832   24.9157   45.6443 C   0  0  0  0  0  0  0  0  0  0  0  0
   57.9062   23.8063   46.0811 N   0  0  0  0  0  0  0  0  0  0  0  0
   57.0020   23.2488   46.9145 C   0  0  0  0  0  0  0  0  0  0  0  0
   57.2143   22.1658   47.5199 O   0  0  0  0  0  0  0  0  0  0  0  0
   55.8554   23.9478   47.0571 N   0  0  0  0  0  0  0  0  0  0  0  0
   56.0584   25.0074   46.2562 C   0  0  0  0  0  0  0  0  0  0  0  0
   55.1423   26.0390   46.0937 O   0  0  0  0  0  0  0  0  0  0  0  0
   59.1546   29.9930   47.4095 C   0  0  0  0  0  0  0  0  0  0  0  0
   60.6045   30.4454   47.1717 C   0  0  0  0  0  0  0  0  0  0  0  0
   61.1870   31.2805   48.3229 C   0  0  0  0  0  0  0  0  0  0  0  0
   61.1532   32.7585   48.0642 C   0  0  0  0  0  0  0  0  0  0  0  0
   61.4232   33.5690   48.9927 O   0  0  0  0  0  0  0  0  0  0  0  0
   60.9263   33.2169   46.7616 O   0  0  0  0  0  0  0  0  0  0  0  0
   59.9729   34.2287   46.4393 C   0  0  0  0  0  0  0  0  0  0  0  0
   58.5675   33.8054   46.8493 C   0  0  0  0  0  0  0  0  0  0  0  0
  1  2  2  0
  2  3  1  0
  3  4  2  0
  4  9  1  0
  9 10  1  0
 10 11  1  0
 11 12  2  0
 11 13  1  0
 13 14  1  0
 14 15  1  0
  3  5  1  0
  5  6  2  0
  6  7  1  0
  6  8  1  0
  8 16  1  0
 16 17  1  0
 17 18  1  0
 18 19  1  0
 19 20  2  0
 19 21  1  0
 21 22  1  0
 22 23  1  0
  8  2  1  0
 14  9  2  0
M  CHG 1  10  -1
M  CHG 1  13  -1
M  CHG 1  15  -1
M  END
> <UniqueID>
68

> <SMILES>
C=c1c(=Cc2[n-]c(=O)[n-]c2[O-])cc(C)n1CCCC(=O)OCC

> <Energy>
98.5051137047759

> <Genealogy>
C=c1c(=Cc2[n-]c(=O)[n-]c2[O-])cc(C)n1CCCC(=O)OCC (protonated)
C=c1c(=Cc2[n-]c(=O)[n-]c2[O-])cc(C)n1CCCC(=O)OCC (3D coordinates assigned)
C=c1c(=Cc2[n-]c(=O)[n-]c2[O-])cc(C)n1CCCC(=O)OCC (optimized conformer: 98.5051137047759 kcal/mol)

> <smiles>
C=c1c(=Cc2[nH]c(=O)[nH]c2O)cc(C)n1CCCC(=O)OCC

> <score_type>
oracle

> <origin>
adg

> <m_score__min__energy>
-14.609999999999999

> <m_primary>
energy

> <minimizedAffinity>
-6.93304

> <minimizedRMSD>
1.41361

> <CNNscore>
0.2255161852

> <CNNaffinity>
5.9872055054

> <CNN_VS>
1.3502117395

> <CNNaffinity_variance>
0.0301447306

$$$$
75:0


 31 34  0  0  0  0  0  0  0  0999 V2000
   60.8354   28.6091   45.0772 C   0  0  0  0  0  0  0  0  0  0  0  0
   59.7671   27.9463   45.5391 C   0  0  0  0  0  0  0  0  0  0  0  0
   59.9495   26.6581   45.8049 O   0  0  0  0  0  0  0  0  0  0  0  0
   58.9675   25.8146   46.0864 C   0  0  0  0  0  0  0  0  0  0  0  0
   59.2540   24.6104   46.3200 O   0  0  0  0  0  0  0  0  0  0  0  0
   57.6299   26.2474   46.0785 C   0  0  0  0  0  0  0  0  0  0  0  0
   57.3853   27.6165   45.8602 C   0  0  0  0  0  0  0  0  0  0  0  0
   56.0757   28.0922   45.9085 O   0  0  0  0  0  0  0  0  0  0  0  0
   58.4617   28.5167   45.6652 C   0  0  0  0  0  0  0  0  0  0  0  0
   58.1889   29.8495   45.6329 C   0  0  0  0  0  0  0  0  0  0  0  0
   58.8178   30.8843   46.4796 C   0  0  0  0  0  0  0  0  0  0  0  0
   59.2373   30.7546   47.8039 C   0  0  0  0  0  0  0  0  0  0  0  0
   59.6376   31.9501   48.2920 N   0  0  0  0  0  0  0  0  0  0  0  0
   59.4531   32.8376   47.2997 C   0  0  0  0  0  0  0  0  0  0  0  0
   59.6985   34.2100   47.3354 C   0  0  0  0  0  0  0  0  0  0  0  0
   59.4067   34.9605   46.1822 C   0  0  0  0  0  0  0  0  0  0  0  0
   58.8794   34.3313   45.0340 C   0  0  0  0  0  0  0  0  0  0  0  0
   58.6371   32.9447   45.0262 C   0  0  0  0  0  0  0  0  0  0  0  0
   58.9410   32.2262   46.1841 C   0  0  0  0  0  0  0  0  0  0  0  0
   59.9924   32.1335   49.1918 H   0  0  0  0  0  0  0  0  0  0  0  0
   56.5136   25.2938   46.3195 C   0  0  0  0  0  0  0  0  0  0  0  0
   56.3544   24.7886   47.4632 O   0  0  0  0  0  0  0  0  0  0  0  0
   55.6235   24.9396   45.2508 N   0  0  0  0  0  0  0  0  0  0  0  0
   55.5165   23.6257   44.6113 C   0  0  0  0  0  0  0  0  0  0  0  0
   56.7248   23.3590   43.6927 C   0  0  0  0  0  0  0  0  0  0  0  0
   56.6969   21.9129   43.1899 C   0  0  0  0  0  0  0  0  0  0  0  0
   56.7431   20.8752   44.3418 C   0  0  0  0  0  0  0  0  0  0  0  0
   55.8518   19.8231   44.0726 O   0  0  0  0  0  0  0  0  0  0  0  0
   56.4116   21.4788   45.7218 C   0  0  0  0  0  0  0  0  0  0  0  0
   55.2654   22.4982   45.6512 C   0  0  0  0  0  0  0  0  0  0  0  0
   54.9460   20.1681   44.0359 H   0  0  0  0  0  0  0  0  0  0  0  0
  1  2  2  0
  2  3  1  0
  3  4  1  0
  4  5  2  0
  4  6  1  0
  6 21  1  0
 21 22  2  0
 21 23  1  0
 24 23  1  0
 24 25  1  0
 25 26  1  0
 26 27  1  0
 27 28  1  0
 27 29  1  0
 29 30  1  0
  6  7  2  0
  7  8  1  0
  7  9  1  0
  9 10  2  0
 10 11  1  0
 11 12  2  0
 12 13  1  0
 13 14  1  0
 14 15  2  0
 15 16  1  0
 16 17  2  0
 17 18  1  0
 18 19  2  0
  9  2  1  0
 19 11  1  0
 30 24  1  0
 19 14  1  0
 28 31  1  0
 13 20  1  0
M  CHG 1   8  -1
M  CHG 1  23  -1
M  END
> <UniqueID>
69

> <SMILES>
C=c1oc(=O)c(C(=O)[N-]C2CCC(O)CC2)c([O-])c1=Cc1c[nH]c2ccccc12

> <Energy>
116.06020995598409

> <Genealogy>
C=c1oc(=O)c(C(=O)[N-]C2CCC(O)CC2)c([O-])c1=Cc1c[nH]c2ccccc12 (protonated)
C=c1oc(=O)c(C(=O)[N-]C2CCC(O)CC2)c([O-])c1=Cc1c[nH]c2ccccc12 (3D coordinates assigned)
C=c1oc(=O)c(C(=O)[N-]C2CCC(O)CC2)c([O-])c1=Cc1c[nH]c2ccccc12 (nonaromatic ring conformer: 116.06020995598409 kcal/mol)

> <smiles>
C=c1oc(=O)c(C(=O)NC2CCC(O)CC2)c(O)c1=Cc1c[nH]c2ccccc12

> <score_type>
oracle

> <origin>
adg

> <m_score__min__energy>
-15.31

> <m_primary>
energy

> <minimizedAffinity>
-8.02484

> <minimizedRMSD>
0.75658

> <CNNscore>
0.6514325738

> <CNNaffinity>
6.9094033241

> <CNN_VS>
4.5010104179

> <CNNaffinity_variance>
0.0295234527

$$$$
78:0


 33 35  0  0  0  0  0  0  0  0999 V2000
   61.2760   33.0310   47.7674 N   0  0  0  0  0  0  0  0  0  0  0  0
   61.0190   34.1100   48.7331 C   0  0  0  0  0  0  0  0  0  0  0  0
   61.8101   33.8517   50.0333 C   0  0  0  0  0  0  0  0  0  0  0  0
   63.0386   33.0454   49.8195 N   0  0  0  0  0  0  0  0  0  0  0  0
   63.6511   33.3169   48.5044 C   0  0  0  0  0  0  0  0  0  0  0  0
   62.6898   33.0090   47.3350 C   0  0  0  0  0  0  0  0  0  0  0  0
   60.3257   33.0161   46.6352 C   0  0  0  0  0  0  0  0  0  0  0  0
   59.7965   30.5423   46.9605 N   0  0  0  0  0  0  0  0  0  0  0  0
   59.3407   31.8770   46.6948 C   0  0  0  0  0  0  0  0  0  0  0  0
   58.1135   32.1104   46.5281 O   0  0  0  0  0  0  0  0  0  0  0  0
   60.6760   30.4300   47.3883 H   0  0  0  0  0  0  0  0  0  0  0  0
   57.4916   27.0884   46.0051 C   0  0  0  0  0  0  0  0  0  0  0  0
   57.5002   28.2086   45.1555 C   0  0  0  0  0  0  0  0  0  0  0  0
   58.2633   29.3352   45.4767 C   0  0  0  0  0  0  0  0  0  0  0  0
   59.0452   29.3596   46.6391 C   0  0  0  0  0  0  0  0  0  0  0  0
   59.0233   28.2494   47.4992 C   0  0  0  0  0  0  0  0  0  0  0  0
   58.2585   27.1227   47.1828 C   0  0  0  0  0  0  0  0  0  0  0  0
   55.3047   25.8261   46.0472 N   0  0  0  0  0  0  0  0  0  0  0  0
   56.6787   25.8961   45.6688 C   0  0  0  0  0  0  0  0  0  0  0  0
   57.1934   24.9306   45.0416 O   0  0  0  0  0  0  0  0  0  0  0  0
   54.7714   25.0304   45.8199 H   0  0  0  0  0  0  0  0  0  0  0  0
   62.8179   31.5989   50.0465 C   0  0  0  0  0  0  0  0  0  0  0  0
   61.4893   31.3832   50.7205 C   0  0  0  0  0  0  0  0  0  0  0  0
   60.5144   30.5854   50.1035 C   0  0  0  0  0  0  0  0  0  0  0  0
   59.2824   30.3677   50.7270 C   0  0  0  0  0  0  0  0  0  0  0  0
   59.0133   30.9415   51.9750 C   0  0  0  0  0  0  0  0  0  0  0  0
   59.9896   31.7292   52.6001 C   0  0  0  0  0  0  0  0  0  0  0  0
   61.2211   31.9520   51.9763 C   0  0  0  0  0  0  0  0  0  0  0  0
   57.4643   30.6444   52.7571 S   0  0  0  0  0  0  0  0  0  0  0  0
   56.2772   31.7220   52.1115 N   0  0  0  0  0  0  0  0  0  0  0  0
   57.5976   30.8711   54.2362 O   0  0  0  0  0  0  0  0  0  0  0  0
   57.0257   29.2252   52.5226 O   0  0  0  0  0  0  0  0  0  0  0  0
   56.5716   32.6859   52.2687 H   0  0  0  0  0  0  0  0  0  0  0  0
 18 19  1  0
 19 20  2  0
 19 12  1  0
 12 13  2  0
 13 14  1  0
 14 15  2  0
 15  8  1  0
  8  9  1  0
  9 10  2  0
  9  7  1  0
  7  1  1  0
  1  2  1  0
  2  3  1  0
  3  4  1  0
  4 22  1  0
 22 23  1  0
 23 24  2  0
 24 25  1  0
 25 26  2  0
 26 29  1  0
 29 30  1  0
 29 31  2  0
 29 32  2  0
 26 27  1  0
 27 28  2  0
  4  5  1  0
  5  6  1  0
 15 16  1  0
 16 17  2  0
 17 12  1  0
  6  1  1  0
 28 23  1  0
 18 21  1  0
  8 11  1  0
 30 33  1  0
M  CHG 1  18  -1
M  CHG 1  30  -1
M  END
> <UniqueID>
72

> <SMILES>
[NH-]C(=O)c1ccc(NC(=O)CN2CCN(Cc3ccc(S([NH-])(=O)=O)cc3)CC2)cc1

> <Energy>
69.96873107245939

> <Genealogy>
[NH-]C(=O)c1ccc(NC(=O)CN2CCN(Cc3ccc(S([NH-])(=O)=O)cc3)CC2)cc1 (protonated)
[NH-]C(=O)c1ccc(NC(=O)CN2CCN(Cc3ccc(S([NH-])(=O)=O)cc3)CC2)cc1 (3D coordinates assigned)
[NH-]C(=O)c1ccc(NC(=O)CN2CCN(Cc3ccc(S([NH-])(=O)=O)cc3)CC2)cc1 (nonaromatic ring conformer: 69.96873107245939 kcal/mol)

> <smiles>
NC(=O)c1ccc(NC(=O)CN2CCN(Cc3ccc(S(N)(=O)=O)cc3)CC2)cc1

> <score_type>
oracle

> <origin>
adg

> <m_score__min__energy>
-14.08

> <m_primary>
energy

> <minimizedAffinity>
-7.43559

> <minimizedRMSD>
0.72389

> <CNNscore>
0.1783833355

> <CNNaffinity>
6.0492911339

> <CNN_VS>
1.0790927410

> <CNNaffinity_variance>
0.7181851268

$$$$
84:0


 30 33  0  0  0  0  0  0  0  0999 V2000
   58.2554   29.6887   46.0864 C   0  0  0  0  0  0  0  0  0  0  0  0
   58.8682   28.8816   46.9697 C   0  0  0  0  0  0  0  0  0  0  0  0
   59.2670   27.5527   46.7479 C   0  0  0  0  0  0  0  0  0  0  0  0
   59.0017   26.7034   45.7362 C   0  0  0  0  0  0  0  0  0  0  0  0
   60.0463   27.1958   47.8332 C   0  0  0  0  0  0  0  0  0  0  0  0
   60.0373   28.2638   48.7035 C   0  0  0  0  0  0  0  0  0  0  0  0
   60.7869   28.2962   50.0022 C   0  0  0  0  0  0  0  0  0  0  0  0
   59.3212   29.2928   48.1875 N   0  0  0  0  0  0  0  0  0  0  0  0
   58.1832   25.4826   45.8308 C   0  0  0  0  0  0  0  0  0  0  0  0
   58.7002   24.2429   45.8708 N   0  0  0  0  0  0  0  0  0  0  0  0
   57.6207   23.4626   46.0947 C   0  0  0  0  0  0  0  0  0  0  0  0
   57.6978   22.2097   46.1878 O   0  0  0  0  0  0  0  0  0  0  0  0
   56.4553   24.1296   46.2297 N   0  0  0  0  0  0  0  0  0  0  0  0
   56.8301   25.4096   46.0758 C   0  0  0  0  0  0  0  0  0  0  0  0
   55.9601   26.4888   46.1889 O   0  0  0  0  0  0  0  0  0  0  0  0
   59.1583   30.6115   48.8248 C   0  0  0  0  0  0  0  0  0  0  0  0
   60.3434   31.4977   48.5327 C   0  0  0  0  0  0  0  0  0  0  0  0
   60.4914   32.0890   47.2713 C   0  0  0  0  0  0  0  0  0  0  0  0
   61.5933   32.8998   46.9970 C   0  0  0  0  0  0  0  0  0  0  0  0
   62.5606   33.1295   47.9786 C   0  0  0  0  0  0  0  0  0  0  0  0
   63.6042   33.9478   47.6949 F   0  0  0  0  0  0  0  0  0  0  0  0
   62.4301   32.5444   49.2522 C   0  0  0  0  0  0  0  0  0  0  0  0
   61.3129   31.7345   49.5224 C   0  0  0  0  0  0  0  0  0  0  0  0
   63.4209   32.7696   50.2744 N   0  0  0  0  0  0  0  0  0  0  0  0
   64.7548   32.1739   50.1375 C   0  0  0  0  0  0  0  0  0  0  0  0
   65.5260   32.2758   51.4559 C   0  0  0  0  0  0  0  0  0  0  0  0
   65.5821   33.6771   51.9183 N   0  0  0  0  0  0  0  0  0  0  0  0
   66.2559   33.7523   53.2240 C   0  0  0  0  0  0  0  0  0  0  0  0
   64.2641   34.3724   51.9467 C   0  0  0  0  0  0  0  0  0  0  0  0
   63.0799   33.4998   51.4982 C   0  0  0  0  0  0  0  0  0  0  0  0
  1  2  2  0
  2  3  1  0
  3  4  2  0
  4  9  1  0
  9 10  1  0
 10 11  1  0
 11 12  2  0
 11 13  1  0
 13 14  1  0
 14 15  1  0
  3  5  1  0
  5  6  2  0
  6  7  1  0
  6  8  1  0
  8 16  1  0
 16 17  1  0
 17 18  2  0
 18 19  1  0
 19 20  2  0
 20 21  1  0
 20 22  1  0
 22 24  1  0
 24 25  1  0
 25 26  1  0
 26 27  1  0
 27 28  1  0
 27 29  1  0
 29 30  1  0
 22 23  2  0
  8  2  1  0
 23 17  1  0
 14  9  2  0
 30 24  1  0
M  CHG 1  10  -1
M  CHG 1  13  -1
M  CHG 1  15  -1
M  END
> <UniqueID>
78

> <SMILES>
C=c1/c(=C\c2[n-]c(=O)[n-]c2[O-])cc(C)n1Cc1ccc(F)c(N2CCN(C)CC2)c1

> <Energy>
135.56760393041282

> <Genealogy>
C=c1c(=Cc2[n-]c(=O)[n-]c2[O-])cc(C)n1Cc1ccc(F)c(N2CCN(C)CC2)c1 (protonated)
C=c1/c(=C\c2[n-]c(=O)[n-]c2[O-])cc(C)n1Cc1ccc(F)c(N2CCN(C)CC2)c1 (cis-trans isomerization)
C=c1/c(=C\c2[n-]c(=O)[n-]c2[O-])cc(C)n1Cc1ccc(F)c(N2CCN(C)CC2)c1 (3D coordinates assigned)
C=c1/c(=C\c2[n-]c(=O)[n-]c2[O-])cc(C)n1Cc1ccc(F)c(N2CCN(C)CC2)c1 (nonaromatic ring conformer: 135.56760393041282 kcal/mol)

> <smiles>
C=c1c(=Cc2[nH]c(=O)[nH]c2O)cc(C)n1Cc1ccc(F)c(N2CCN(C)CC2)c1

> <score_type>
oracle

> <origin>
adg

> <m_score__min__energy>
-17.02

> <m_primary>
energy

> <minimizedAffinity>
-8.16300

> <minimizedRMSD>
1.87545

> <CNNscore>
0.3637849391

> <CNNaffinity>
6.7371773720

> <CNN_VS>
2.4508836269

> <CNNaffinity_variance>
0.0071553276

$$$$
87:0


 33 36  0  0  0  0  0  0  0  0999 V2000
   57.1861   30.4863   54.2642 C   0  0  0  0  0  0  0  0  0  0  0  0
   57.7162   30.3152   55.3954 O   0  0  0  0  0  0  0  0  0  0  0  0
   57.8577   31.2906   53.2788 N   0  0  0  0  0  0  0  0  0  0  0  0
   58.0655   30.7399   51.9277 C   0  0  0  0  0  0  0  0  0  0  0  0
   58.1497   31.8654   50.8928 C   0  0  0  0  0  0  0  0  0  0  0  0
   59.0904   32.8875   51.3648 N   0  0  0  0  0  0  0  0  0  0  0  0
   60.3913   33.0495   50.7648 C   0  0  0  0  0  0  0  0  0  0  0  0
   61.3864   33.3078   51.4964 O   0  0  0  0  0  0  0  0  0  0  0  0
   58.7902   33.4856   52.6696 C   0  0  0  0  0  0  0  0  0  0  0  0
   58.7320   32.3836   53.7290 C   0  0  0  0  0  0  0  0  0  0  0  0
   56.4245   27.4641   54.2952 C   0  0  0  0  0  0  0  0  0  0  0  0
   55.5865   28.4702   54.0330 C   0  0  0  0  0  0  0  0  0  0  0  0
   54.2863   28.2847   53.7301 N   0  0  0  0  0  0  0  0  0  0  0  0
   53.7685   29.4989   53.4529 C   0  0  0  0  0  0  0  0  0  0  0  0
   52.4776   29.6854   53.1345 C   0  0  0  0  0  0  0  0  0  0  0  0
   54.7424   30.4789   53.5906 C   0  0  0  0  0  0  0  0  0  0  0  0
   55.8999   29.8239   53.9739 C   0  0  0  0  0  0  0  0  0  0  0  0
   53.8057   27.4256   53.7142 H   0  0  0  0  0  0  0  0  0  0  0  0
   52.0075   30.1400   51.8143 C   0  0  0  0  0  0  0  0  0  0  0  0
   52.0680   29.3790   50.7067 N   0  0  0  0  0  0  0  0  0  0  0  0
   51.6113   30.2003   49.7366 C   0  0  0  0  0  0  0  0  0  0  0  0
   51.5028   29.8381   48.5360 O   0  0  0  0  0  0  0  0  0  0  0  0
   51.2879   31.4437   50.1529 N   0  0  0  0  0  0  0  0  0  0  0  0
   51.5548   31.3940   51.4682 C   0  0  0  0  0  0  0  0  0  0  0  0
   51.4303   32.4850   52.3187 O   0  0  0  0  0  0  0  0  0  0  0  0
   60.5896   32.8631   49.2820 C   0  0  0  0  0  0  0  0  0  0  0  0
   60.4682   34.1842   48.5098 C   0  0  0  0  0  0  0  0  0  0  0  0
   59.5552   34.0235   47.3237 C   0  0  0  0  0  0  0  0  0  0  0  0
   59.8595   34.6557   46.1030 C   0  0  0  0  0  0  0  0  0  0  0  0
   59.0229   34.4838   44.9936 C   0  0  0  0  0  0  0  0  0  0  0  0
   57.8874   33.6756   45.0915 C   0  0  0  0  0  0  0  0  0  0  0  0
   57.5871   33.0310   46.2966 C   0  0  0  0  0  0  0  0  0  0  0  0
   58.4197   33.1989   47.4081 C   0  0  0  0  0  0  0  0  0  0  0  0
 11 12  2  0
 12 13  1  0
 13 14  1  0
 14 15  2  0
 15 19  1  0
 19 20  1  0
 20 21  1  0
 21 22  2  0
 21 23  1  0
 23 24  1  0
 24 25  1  0
 14 16  1  0
 16 17  2  0
 17  1  1  0
  1  2  2  0
  1  3  1  0
  3  4  1  0
  4  5  1  0
  5  6  1  0
  6  7  1  0
  7  8  2  0
  7 26  1  0
 26 27  1  0
 27 28  1  0
 28 29  2  0
 29 30  1  0
 30 31  2  0
 31 32  1  0
 32 33  2  0
  6  9  1  0
  9 10  1  0
 17 12  1  0
 10  3  1  0
 24 19  2  0
 33 28  1  0
 13 18  1  0
M  CHG 1  20  -1
M  CHG 1  23  -1
M  CHG 1  25  -1
M  END
> <UniqueID>
81

> <SMILES>
C=c1[nH]c(=Cc2[n-]c(=O)[n-]c2[O-])cc1C(=O)N1CCN(C(=O)CCc2ccccc2)CC1

> <Energy>
122.4262220335243

> <Genealogy>
C=c1[nH]c(=Cc2[n-]c(=O)[n-]c2[O-])cc1C(=O)N1CCN(C(=O)CCc2ccccc2)CC1 (protonated)
C=c1[nH]c(=Cc2[n-]c(=O)[n-]c2[O-])cc1C(=O)N1CCN(C(=O)CCc2ccccc2)CC1 (3D coordinates assigned)
C=c1[nH]c(=Cc2[n-]c(=O)[n-]c2[O-])cc1C(=O)N1CCN(C(=O)CCc2ccccc2)CC1 (nonaromatic ring conformer: 122.4262220335243 kcal/mol)

> <smiles>
C=c1[nH]c(=Cc2[nH]c(=O)[nH]c2O)cc1C(=O)N1CCN(C(=O)CCc2ccccc2)CC1

> <score_type>
oracle

> <origin>
adg

> <m_score__min__energy>
-18.370000000000001

> <m_primary>
energy

> <minimizedAffinity>
-7.20314

> <minimizedRMSD>
0.85612

> <CNNscore>
0.1583889425

> <CNNaffinity>
5.8090243340

> <CNN_VS>
0.9200851917

> <CNNaffinity_variance>
0.2392991334

$$$$
8:0


 31 34  0  0  0  0  0  0  0  0999 V2000
   59.5854   29.9303   47.8223 C   0  0  0  0  0  0  0  0  0  0  0  0
   60.8241   29.7256   47.9361 O   0  0  0  0  0  0  0  0  0  0  0  0
   58.9176   30.7628   48.7815 N   0  0  0  0  0  0  0  0  0  0  0  0
   58.0852   31.2172   48.5170 H   0  0  0  0  0  0  0  0  0  0  0  0
   57.1184   29.2023   43.7044 C   0  0  0  0  0  0  0  0  0  0  0  0
   57.7463   28.9514   44.8667 C   0  0  0  0  0  0  0  0  0  0  0  0
   58.1068   27.6875   45.3502 C   0  0  0  0  0  0  0  0  0  0  0  0
   57.8847   26.4953   44.7544 C   0  0  0  0  0  0  0  0  0  0  0  0
   58.7854   27.9127   46.5401 C   0  0  0  0  0  0  0  0  0  0  0  0
   58.8160   29.2799   46.7368 C   0  0  0  0  0  0  0  0  0  0  0  0
   58.1574   29.9143   45.7357 N   0  0  0  0  0  0  0  0  0  0  0  0
   57.9736   31.3643   45.6008 C   0  0  0  0  0  0  0  0  0  0  0  0
   57.4119   25.2681   45.4342 C   0  0  0  0  0  0  0  0  0  0  0  0
   58.1163   24.1340   45.6014 N   0  0  0  0  0  0  0  0  0  0  0  0
   57.2820   23.3430   46.3100 C   0  0  0  0  0  0  0  0  0  0  0  0
   57.5897   22.1753   46.6620 O   0  0  0  0  0  0  0  0  0  0  0  0
   56.0934   23.9057   46.6155 N   0  0  0  0  0  0  0  0  0  0  0  0
   56.1945   25.1229   46.0586 C   0  0  0  0  0  0  0  0  0  0  0  0
   55.1919   26.0839   46.1207 O   0  0  0  0  0  0  0  0  0  0  0  0
   59.4191   30.9573   50.1134 C   0  0  0  0  0  0  0  0  0  0  0  0
   58.9958   30.0939   51.1338 C   0  0  0  0  0  0  0  0  0  0  0  0
   59.4355   30.2799   52.4463 C   0  0  0  0  0  0  0  0  0  0  0  0
   60.3127   31.3240   52.7489 C   0  0  0  0  0  0  0  0  0  0  0  0
   60.7659   32.1721   51.7368 C   0  0  0  0  0  0  0  0  0  0  0  0
   60.3391   31.9901   50.4123 C   0  0  0  0  0  0  0  0  0  0  0  0
   60.8864   32.8162   49.3721 N   0  0  0  0  0  0  0  0  0  0  0  0
   62.3005   32.6649   49.0094 C   0  0  0  0  0  0  0  0  0  0  0  0
   62.6212   33.4858   47.7581 C   0  0  0  0  0  0  0  0  0  0  0  0
   61.5146   33.4647   46.8816 O   0  0  0  0  0  0  0  0  0  0  0  0
   60.4742   34.2766   47.3979 C   0  0  0  0  0  0  0  0  0  0  0  0
   60.1199   33.9623   48.8714 C   0  0  0  0  0  0  0  0  0  0  0  0
  5  6  2  0
  6  7  1  0
  7  8  2  0
  8 13  1  0
 13 14  1  0
 14 15  1  0
 15 16  2  0
 15 17  1  0
 17 18  1  0
 18 19  1  0
  7  9  1  0
  9 10  2  0
 10  1  1  0
  1  2  2  0
  1  3  1  0
  3 20  1  0
 20 21  2  0
 21 22  1  0
 22 23  2  0
 23 24  1  0
 24 25  2  0
 25 26  1  0
 26 27  1  0
 27 28  1  0
 28 29  1  0
 29 30  1  0
 30 31  1  0
 10 11  1  0
 11 12  1  0
 11  6  1  0
 18 13  2  0
 25 20  1  0
 31 26  1  0
  3  4  1  0
M  CHG 1  14  -1
M  CHG 1  17  -1
M  CHG 1  19  -1
M  END
> <UniqueID>
8

> <SMILES>
C=c1/c(=C/c2[n-]c(=O)[n-]c2[O-])cc(C(=O)Nc2ccccc2N2CCOCC2)n1C

> <Energy>
132.11906222392676

> <Genealogy>
C=c1c(=Cc2[n-]c(=O)[n-]c2[O-])cc(C(=O)Nc2ccccc2N2CCOCC2)n1C (protonated)
C=c1/c(=C/c2[n-]c(=O)[n-]c2[O-])cc(C(=O)Nc2ccccc2N2CCOCC2)n1C (cis-trans isomerization)
C=c1/c(=C/c2[n-]c(=O)[n-]c2[O-])cc(C(=O)Nc2ccccc2N2CCOCC2)n1C (3D coordinates assigned)
C=c1/c(=C/c2[n-]c(=O)[n-]c2[O-])cc(C(=O)Nc2ccccc2N2CCOCC2)n1C (nonaromatic ring conformer: 132.11906222392676 kcal/mol)

> <smiles>
C=c1c(=Cc2[nH]c(=O)[nH]c2O)cc(C(=O)Nc2ccccc2N2CCOCC2)n1C

> <score_type>
oracle

> <origin>
adg

> <m_score__min__energy>
-17.75

> <m_primary>
energy

> <minimizedAffinity>
-7.90788

> <minimizedRMSD>
1.33506

> <CNNscore>
0.1267240345

> <CNNaffinity>
6.1493763924

> <CNN_VS>
0.7792738080

> <CNNaffinity_variance>
0.0162686687

$$$$
12:0


 27 29  0  0  0  0  0  0  0  0999 V2000
   55.9031   31.4677   52.7082 C   0  0  0  0  0  0  0  0  0  0  0  0
   55.6312   30.2358   53.1669 C   0  0  0  0  0  0  0  0  0  0  0  0
   54.3643   29.7339   53.4866 C   0  0  0  0  0  0  0  0  0  0  0  0
   53.1760   30.3421   53.3036 C   0  0  0  0  0  0  0  0  0  0  0  0
   54.5672   28.4553   53.9922 C   0  0  0  0  0  0  0  0  0  0  0  0
   55.9294   28.2314   53.9625 C   0  0  0  0  0  0  0  0  0  0  0  0
   56.5956   26.9628   54.4027 C   0  0  0  0  0  0  0  0  0  0  0  0
   56.5759   29.3050   53.4570 N   0  0  0  0  0  0  0  0  0  0  0  0
   57.9958   29.4037   53.2576 C   0  0  0  0  0  0  0  0  0  0  0  0
   58.7678   29.3023   54.2477 O   0  0  0  0  0  0  0  0  0  0  0  0
   58.5234   29.6100   51.9372 N   0  0  0  0  0  0  0  0  0  0  0  0
   57.8865   29.6939   51.1911 H   0  0  0  0  0  0  0  0  0  0  0  0
   52.4961   30.4484   52.0007 C   0  0  0  0  0  0  0  0  0  0  0  0
   52.7257   29.6067   50.9775 N   0  0  0  0  0  0  0  0  0  0  0  0
   51.9736   30.1137   49.9777 C   0  0  0  0  0  0  0  0  0  0  0  0
   51.9126   29.5827   48.8377 O   0  0  0  0  0  0  0  0  0  0  0  0
   51.2988   31.2418   50.2913 N   0  0  0  0  0  0  0  0  0  0  0  0
   51.6497   31.4472   51.5700 C   0  0  0  0  0  0  0  0  0  0  0  0
   51.2422   32.5516   52.3095 O   0  0  0  0  0  0  0  0  0  0  0  0
   59.9274   29.7010   51.6425 C   0  0  0  0  0  0  0  0  0  0  0  0
   60.7942   28.6314   51.9306 C   0  0  0  0  0  0  0  0  0  0  0  0
   62.1515   28.7175   51.6159 C   0  0  0  0  0  0  0  0  0  0  0  0
   62.6562   29.8638   51.0004 C   0  0  0  0  0  0  0  0  0  0  0  0
   61.8037   30.9245   50.6909 C   0  0  0  0  0  0  0  0  0  0  0  0
   60.4310   30.8516   51.0041 C   0  0  0  0  0  0  0  0  0  0  0  0
   59.5470   31.9018   50.7082 O   0  0  0  0  0  0  0  0  0  0  0  0
   59.0804   32.2226   49.4025 C   0  0  0  0  0  0  0  0  0  0  0  0
  1  2  2  0
  2  3  1  0
  3  4  2  0
  4 13  1  0
 13 14  1  0
 14 15  1  0
 15 16  2  0
 15 17  1  0
 17 18  1  0
 18 19  1  0
  3  5  1  0
  5  6  2  0
  6  7  1  0
  6  8  1  0
  8  9  1  0
  9 10  2  0
  9 11  1  0
 11 20  1  0
 20 21  2  0
 21 22  1  0
 22 23  2  0
 23 24  1  0
 24 25  2  0
 25 26  1  0
 26 27  1  0
  8  2  1  0
 25 20  1  0
 18 13  2  0
 11 12  1  0
M  CHG 1  14  -1
M  CHG 1  17  -1
M  CHG 1  19  -1
M  END
> <UniqueID>
12

> <SMILES>
C=c1/c(=C/c2[n-]c(=O)[n-]c2[O-])cc(C)n1C(=O)Nc1ccccc1OC

> <Energy>
116.68851350096139

> <Genealogy>
C=c1c(=Cc2[n-]c(=O)[n-]c2[O-])cc(C)n1C(=O)Nc1ccccc1OC (protonated)
C=c1/c(=C/c2[n-]c(=O)[n-]c2[O-])cc(C)n1C(=O)Nc1ccccc1OC (cis-trans isomerization)
C=c1/c(=C/c2[n-]c(=O)[n-]c2[O-])cc(C)n1C(=O)Nc1ccccc1OC (3D coordinates assigned)
C=c1/c(=C/c2[n-]c(=O)[n-]c2[O-])cc(C)n1C(=O)Nc1ccccc1OC (optimized conformer: 116.68851350096139 kcal/mol)

> <smiles>
C=c1c(=Cc2[nH]c(=O)[nH]c2O)cc(C)n1C(=O)Nc1ccccc1OC

> <score_type>
oracle

> <origin>
adg

> <m_score__min__energy>
-15.06

> <m_primary>
energy

> <minimizedAffinity>
-4.69403

> <minimizedRMSD>
1.29024

> <CNNscore>
0.0844145939

> <CNNaffinity>
4.7976760864

> <CNN_VS>
0.4049938917

> <CNNaffinity_variance>
0.3643395901

$$$$
18:0


 26 29  0  0  0  0  0  0  0  0999 V2000
   51.1312   31.2824   54.6233 C   0  0  0  0  0  0  0  0  0  0  0  0
   52.1175   30.4020   54.8061 C   0  0  0  0  0  0  0  0  0  0  0  0
   52.1934   29.6758   55.8993 O   0  0  0  0  0  0  0  0  0  0  0  0
   53.1730   28.8110   55.7796 C   0  0  0  0  0  0  0  0  0  0  0  0
   53.7713   28.9592   54.5460 C   0  0  0  0  0  0  0  0  0  0  0  0
   53.1419   30.0341   53.9217 C   0  0  0  0  0  0  0  0  0  0  0  0
   53.5396   30.5896   52.7580 C   0  0  0  0  0  0  0  0  0  0  0  0
   54.9030   28.1482   54.0563 C   0  0  0  0  0  0  0  0  0  0  0  0
   54.6981   26.9425   53.7526 O   0  0  0  0  0  0  0  0  0  0  0  0
   56.2193   28.7113   53.8933 N   0  0  0  0  0  0  0  0  0  0  0  0
   56.4055   30.1292   53.5655 C   0  0  0  0  0  0  0  0  0  0  0  0
   57.4869   30.2882   52.4848 C   0  0  0  0  0  0  0  0  0  0  0  0
   58.6988   29.4454   52.7060 N   0  0  0  0  0  0  0  0  0  0  0  0
   58.6837   28.6642   53.9586 C   0  0  0  0  0  0  0  0  0  0  0  0
   57.3922   27.8512   54.0654 C   0  0  0  0  0  0  0  0  0  0  0  0
   60.0152   30.1152   52.5292 C   0  0  0  0  0  0  0  0  0  0  0  0
   61.2200   29.1752   52.4769 C   0  0  0  0  0  0  0  0  0  0  0  0
   61.5275   29.6639   51.0639 C   0  0  0  0  0  0  0  0  0  0  0  0
   60.3234   30.6005   51.1111 C   0  0  0  0  0  0  0  0  0  0  0  0
   52.7384   30.6712   51.5273 C   0  0  0  0  0  0  0  0  0  0  0  0
   52.7265   29.7405   50.5563 N   0  0  0  0  0  0  0  0  0  0  0  0
   51.7474   30.1673   49.7284 C   0  0  0  0  0  0  0  0  0  0  0  0
   51.4408   29.5568   48.6721 O   0  0  0  0  0  0  0  0  0  0  0  0
   51.1171   31.2919   50.1282 N   0  0  0  0  0  0  0  0  0  0  0  0
   51.7469   31.5883   51.2770 C   0  0  0  0  0  0  0  0  0  0  0  0
   51.4175   32.6702   52.0821 O   0  0  0  0  0  0  0  0  0  0  0  0
  1  2  2  0
  2  3  1  0
  3  4  1  0
  4  5  2  0
  5  8  1  0
  8  9  2  0
  8 10  1  0
 10 11  1  0
 11 12  1  0
 12 13  1  0
 13 16  1  0
 16 17  1  0
 17 18  1  0
 18 19  1  0
 13 14  1  0
 14 15  1  0
  5  6  1  0
  6  7  2  0
  7 20  1  0
 20 21  1  0
 21 22  1  0
 22 23  2  0
 22 24  1  0
 24 25  1  0
 25 26  1  0
  6  2  1  0
 25 20  2  0
 15 10  1  0
 19 16  1  0
M  CHG 1  21  -1
M  CHG 1  24  -1
M  CHG 1  26  -1
M  END
> <UniqueID>
18

> <SMILES>
C=c1occ(C(=O)N2CCN(C3CCC3)CC2)c1=Cc1[n-]c(=O)[n-]c1[O-]

> <Energy>
192.24551867991025

> <Genealogy>
C=c1occ(C(=O)N2CCN(C3CCC3)CC2)c1=Cc1[n-]c(=O)[n-]c1[O-] (protonated)
C=c1occ(C(=O)N2CCN(C3CCC3)CC2)c1=Cc1[n-]c(=O)[n-]c1[O-] (3D coordinates assigned)
C=c1occ(C(=O)N2CCN(C3CCC3)CC2)c1=Cc1[n-]c(=O)[n-]c1[O-] (nonaromatic ring conformer: 192.24551867991025 kcal/mol)

> <smiles>
C=c1occ(C(=O)N2CCN(C3CCC3)CC2)c1=Cc1[nH]c(=O)[nH]c1O

> <score_type>
oracle

> <origin>
adg

> <m_score__min__energy>
-16.219999999999999

> <m_primary>
energy

> <minimizedAffinity>
-4.47481

> <minimizedRMSD>
2.16805

> <CNNscore>
0.0552936904

> <CNNaffinity>
3.9953525066

> <CNN_VS>
0.2209177911

> <CNNaffinity_variance>
0.5925899148

$$$$
32:0


 27 29  0  0  0  0  0  0  0  0999 V2000
   54.5935   29.0415   55.4451 C   0  0  0  0  0  0  0  0  0  0  0  0
   54.9808   29.7794   54.3916 C   0  0  0  0  0  0  0  0  0  0  0  0
   54.2219   30.0744   53.2451 C   0  0  0  0  0  0  0  0  0  0  0  0
   52.9229   29.8598   52.9592 C   0  0  0  0  0  0  0  0  0  0  0  0
   55.0830   30.7072   52.3660 C   0  0  0  0  0  0  0  0  0  0  0  0
   56.2959   30.8242   53.0071 C   0  0  0  0  0  0  0  0  0  0  0  0
   56.2423   30.2661   54.2392 N   0  0  0  0  0  0  0  0  0  0  0  0
   52.2474   30.2173   51.7035 C   0  0  0  0  0  0  0  0  0  0  0  0
   52.2883   29.4594   50.5947 N   0  0  0  0  0  0  0  0  0  0  0  0
   51.6620   30.2218   49.6726 C   0  0  0  0  0  0  0  0  0  0  0  0
   51.4830   29.8398   48.4859 O   0  0  0  0  0  0  0  0  0  0  0  0
   51.2523   31.4290   50.1167 N   0  0  0  0  0  0  0  0  0  0  0  0
   51.6451   31.4176   51.4012 C   0  0  0  0  0  0  0  0  0  0  0  0
   51.4807   32.4914   52.2668 O   0  0  0  0  0  0  0  0  0  0  0  0
   57.4732   31.4799   52.4152 C   0  0  0  0  0  0  0  0  0  0  0  0
   57.4413   32.7283   52.2371 O   0  0  0  0  0  0  0  0  0  0  0  0
   58.5946   30.6894   51.9420 N   0  0  0  0  0  0  0  0  0  0  0  0
   58.5485   30.5009   50.4784 C   0  0  0  0  0  0  0  0  0  0  0  0
   58.7337   31.8147   49.7047 C   0  0  0  0  0  0  0  0  0  0  0  0
   59.8607   32.6008   50.2171 N   0  0  0  0  0  0  0  0  0  0  0  0
   60.3770   33.7115   49.4132 C   0  0  0  0  0  0  0  0  0  0  0  0
   60.3375   32.4183   51.5627 C   0  0  0  0  0  0  0  0  0  0  0  0
   61.1832   33.2161   52.0510 O   0  0  0  0  0  0  0  0  0  0  0  0
   59.8967   31.2358   52.3820 C   0  0  0  0  0  0  0  0  0  0  0  0
   59.4555   30.2360   51.7915 H   0  0  0  0  0  0  0  0  0  0  0  0
   57.3104   30.3046   55.2502 C   0  0  0  0  0  0  0  0  0  0  0  0
   58.1989   29.0716   55.1309 C   0  0  0  0  0  0  0  0  0  0  0  0
  1  2  2  0
  2  3  1  0
  3  4  2  0
  4  8  1  0
  8  9  1  0
  9 10  1  0
 10 11  2  0
 10 12  1  0
 12 13  1  0
 13 14  1  0
  3  5  1  0
  5  6  2  0
  6 15  1  0
 15 16  2  0
 17 15  1  0
 17 18  1  0
 18 19  1  0
 19 20  1  0
 20 21  1  0
 20 22  1  0
 22 23  2  0
 22 24  1  0
  6  7  1  0
  7 26  1  0
 26 27  1  0
  7  2  1  0
 13  8  2  0
 24 17  1  0
 17 25  1  0
M  CHG 1   9  -1
M  CHG 1  12  -1
M  CHG 1  14  -1
M  CHG 1  17   1
M  END
> <UniqueID>
31

> <SMILES>
C=c1c(=Cc2[n-]c(=O)[n-]c2[O-])cc(C(=O)[N@H+]2CCN(C)C(=O)C2)n1CC

> <Energy>
124.18826393467873

> <Genealogy>
C=c1c(=Cc2[n-]c(=O)[n-]c2[O-])cc(C(=O)[NH+]2CCN(C)C(=O)C2)n1CC (protonated)
C=c1c(=Cc2[n-]c(=O)[n-]c2[O-])cc(C(=O)[N@H+]2CCN(C)C(=O)C2)n1CC (chirality)
C=c1c(=Cc2[n-]c(=O)[n-]c2[O-])cc(C(=O)[N@H+]2CCN(C)C(=O)C2)n1CC (3D coordinates assigned)
C=c1c(=Cc2[n-]c(=O)[n-]c2[O-])cc(C(=O)[N@H+]2CCN(C)C(=O)C2)n1CC (nonaromatic ring conformer: 124.18826393467873 kcal/mol)

> <smiles>
C=c1c(=Cc2[nH]c(=O)[nH]c2O)cc(C(=O)N2CCN(C)C(=O)C2)n1CC

> <score_type>
oracle

> <origin>
adg

> <m_score__min__energy>
-14.98

> <m_primary>
energy

> <minimizedAffinity>
-4.75234

> <minimizedRMSD>
0.99688

> <CNNscore>
0.0640382469

> <CNNaffinity>
4.2541046143

> <CNN_VS>
0.2724254131

> <CNNaffinity_variance>
0.3495966196

$$$$
44:0


 32 35  0  0  0  0  0  0  0  0999 V2000
   56.7627   24.4722   46.2283 C   0  0  0  0  0  0  0  0  0  0  0  0
   58.0953   24.2628   46.2776 N   0  0  0  0  0  0  0  0  0  0  0  0
   58.6162   25.5098   46.2596 C   0  0  0  0  0  0  0  0  0  0  0  0
   59.8568   25.7311   46.2640 O   0  0  0  0  0  0  0  0  0  0  0  0
   57.6844   26.4873   46.2267 N   0  0  0  0  0  0  0  0  0  0  0  0
   56.5147   25.8303   46.2231 C   0  0  0  0  0  0  0  0  0  0  0  0
   55.2653   26.4415   46.2279 O   0  0  0  0  0  0  0  0  0  0  0  0
   56.5339   22.6436   43.4809 C   0  0  0  0  0  0  0  0  0  0  0  0
   56.1735   21.7682   44.4304 C   0  0  0  0  0  0  0  0  0  0  0  0
   56.1390   20.4572   44.0608 N   0  0  0  0  0  0  0  0  0  0  0  0
   55.9926   19.4478   44.9477 C   0  0  0  0  0  0  0  0  0  0  0  0
   55.9260   19.7228   46.3060 C   0  0  0  0  0  0  0  0  0  0  0  0
   55.9238   21.0471   46.7472 C   0  0  0  0  0  0  0  0  0  0  0  0
   55.7524   21.2974   48.6505 Br  0  0  0  0  0  0  0  0  0  0  0  0
   55.9599   22.1160   45.8090 C   0  0  0  0  0  0  0  0  0  0  0  0
   55.7676   23.3855   46.2573 C   0  0  0  0  0  0  0  0  0  0  0  0
   57.8941   27.9338   46.1281 C   0  0  0  0  0  0  0  0  0  0  0  0
   57.7938   28.4111   44.6731 C   0  0  0  0  0  0  0  0  0  0  0  0
   57.2962   29.8602   44.5693 C   0  0  0  0  0  0  0  0  0  0  0  0
   58.3976   30.8030   44.8584 N   0  0  0  0  0  0  0  0  0  0  0  0
   57.9242   32.2088   44.9678 C   0  0  0  0  0  0  0  0  0  0  0  0
   57.9155   32.7150   46.4171 C   0  0  0  0  0  0  0  0  0  0  0  0
   59.2719   32.6643   47.0098 N   0  0  0  0  0  0  0  0  0  0  0  0
   60.0620   31.4814   46.5765 C   0  0  0  0  0  0  0  0  0  0  0  0
   59.1802   30.3516   46.0304 C   0  0  0  0  0  0  0  0  0  0  0  0
   59.1961   32.7789   48.4801 C   0  0  0  0  0  0  0  0  0  0  0  0
   60.5789   32.8024   49.0780 C   0  0  0  0  0  0  0  0  0  0  0  0
   61.1166   31.6557   49.6867 C   0  0  0  0  0  0  0  0  0  0  0  0
   62.4038   31.6864   50.2322 C   0  0  0  0  0  0  0  0  0  0  0  0
   63.1628   32.8583   50.1726 C   0  0  0  0  0  0  0  0  0  0  0  0
   62.6335   34.0027   49.5691 C   0  0  0  0  0  0  0  0  0  0  0  0
   61.3477   33.9768   49.0232 C   0  0  0  0  0  0  0  0  0  0  0  0
  8  9  2  0
  9 10  1  0
 10 11  2  0
 11 12  1  0
 12 13  2  0
 13 14  1  0
 13 15  1  0
 15 16  2  0
 16  1  1  0
  1  2  1  0
  2  3  1  0
  3  4  2  0
  3  5  1  0
  5 17  1  0
 17 18  1  0
 18 19  1  0
 19 20  1  0
 20 21  1  0
 21 22  1  0
 22 23  1  0
 23 26  1  0
 26 27  1  0
 27 28  2  0
 28 29  1  0
 29 30  2  0
 30 31  1  0
 31 32  2  0
 23 24  1  0
 24 25  1  0
  5  6  1  0
  6  7  1  0
 15  9  1  0
  6  1  2  0
 25 20  1  0
 32 27  1  0
M  CHG 1   2  -1
M  CHG 1   7  -1
M  END
> <UniqueID>
43

> <SMILES>
C=c1nccc(Br)/c1=C/c1[n-]c(=O)n(CCCN2CCN(Cc3ccccc3)CC2)c1[O-]

> <Energy>
125.6049286018442

> <Genealogy>
C=c1nccc(Br)c1=Cc1[n-]c(=O)n(CCCN2CCN(Cc3ccccc3)CC2)c1[O-] (protonated)
C=c1nccc(Br)/c1=C/c1[n-]c(=O)n(CCCN2CCN(Cc3ccccc3)CC2)c1[O-] (cis-trans isomerization)
C=c1nccc(Br)/c1=C/c1[n-]c(=O)n(CCCN2CCN(Cc3ccccc3)CC2)c1[O-] (3D coordinates assigned)
C=c1nccc(Br)/c1=C/c1[n-]c(=O)n(CCCN2CCN(Cc3ccccc3)CC2)c1[O-] (nonaromatic ring conformer: 125.6049286018442 kcal/mol)

> <smiles>
C=c1nccc(Br)c1=Cc1[nH]c(=O)n(CCCN2CCN(Cc3ccccc3)CC2)c1O

> <score_type>
oracle

> <origin>
adg

> <m_score__min__energy>
-15.300000000000001

> <m_primary>
energy

> <minimizedAffinity>
-7.17197

> <minimizedRMSD>
1.35119

> <CNNscore>
0.0498019941

> <CNNaffinity>
5.7244668007

> <CNN_VS>
0.2850898504

> <CNNaffinity_variance>
0.3396016657

$$$$
57:0


 32 35  0  0  0  0  0  0  0  0999 V2000
   59.4874   30.8849   46.6769 C   0  0  0  0  0  0  0  0  0  0  0  0
   60.7660   31.2390   47.1275 C   0  0  0  0  0  0  0  0  0  0  0  0
   61.2000   32.5701   47.0538 C   0  0  0  0  0  0  0  0  0  0  0  0
   60.3279   33.5541   46.5641 C   0  0  0  0  0  0  0  0  0  0  0  0
   59.0449   33.2068   46.1342 C   0  0  0  0  0  0  0  0  0  0  0  0
   58.6248   31.8746   46.1816 C   0  0  0  0  0  0  0  0  0  0  0  0
   57.3822   31.5452   45.7505 F   0  0  0  0  0  0  0  0  0  0  0  0
   58.8361   29.1498   44.3614 C   0  0  0  0  0  0  0  0  0  0  0  0
   58.7783   28.7265   45.6353 C   0  0  0  0  0  0  0  0  0  0  0  0
   58.4486   27.4369   46.0745 C   0  0  0  0  0  0  0  0  0  0  0  0
   58.0903   26.3881   45.3017 C   0  0  0  0  0  0  0  0  0  0  0  0
   58.5700   27.4627   47.4623 C   0  0  0  0  0  0  0  0  0  0  0  0
   58.9499   28.7447   47.8050 C   0  0  0  0  0  0  0  0  0  0  0  0
   59.2306   29.2117   49.2011 C   0  0  0  0  0  0  0  0  0  0  0  0
   59.0780   29.5084   46.7002 N   0  0  0  0  0  0  0  0  0  0  0  0
   57.4933   25.1203   45.7799 C   0  0  0  0  0  0  0  0  0  0  0  0
   58.1338   23.9453   45.9224 N   0  0  0  0  0  0  0  0  0  0  0  0
   57.1681   23.1093   46.3626 C   0  0  0  0  0  0  0  0  0  0  0  0
   57.3867   21.8965   46.6177 O   0  0  0  0  0  0  0  0  0  0  0  0
   55.9518   23.6749   46.5049 N   0  0  0  0  0  0  0  0  0  0  0  0
   56.1737   24.9447   46.1297 C   0  0  0  0  0  0  0  0  0  0  0  0
   55.1898   25.9247   46.1092 O   0  0  0  0  0  0  0  0  0  0  0  0
   62.8538   32.9900   47.5027 S   0  0  0  0  0  0  0  0  0  0  0  0
   63.7457   31.8015   47.2799 O   0  0  0  0  0  0  0  0  0  0  0  0
   63.3379   34.1083   46.6208 O   0  0  0  0  0  0  0  0  0  0  0  0
   62.9538   33.4761   49.1809 N   0  0  0  0  0  0  0  0  0  0  0  0
   63.9524   32.6698   49.9216 C   0  0  0  0  0  0  0  0  0  0  0  0
   63.3012   31.5664   50.7697 C   0  0  0  0  0  0  0  0  0  0  0  0
   62.3621   32.1268   51.7688 N   0  0  0  0  0  0  0  0  0  0  0  0
   61.3724   31.1124   52.1645 C   0  0  0  0  0  0  0  0  0  0  0  0
   61.7001   33.3816   51.3286 C   0  0  0  0  0  0  0  0  0  0  0  0
   61.6116   33.4811   49.7996 C   0  0  0  0  0  0  0  0  0  0  0  0
  8  9  2  0
  9 10  1  0
 10 11  2  0
 11 16  1  0
 16 17  1  0
 17 18  1  0
 18 19  2  0
 18 20  1  0
 20 21  1  0
 21 22  1  0
 10 12  1  0
 12 13  2  0
 13 14  1  0
 13 15  1  0
 15  1  1  0
  1  2  2  0
  2  3  1  0
  3 23  1  0
 23 24  2  0
 23 25  2  0
 23 26  1  0
 26 27  1  0
 27 28  1  0
 28 29  1  0
 29 30  1  0
 29 31  1  0
 31 32  1  0
  3  4  2  0
  4  5  1  0
  5  6  2  0
  6  7  1  0
 15  9  1  0
  6  1  1  0
 21 16  2  0
 32 26  1  0
M  CHG 1  17  -1
M  CHG 1  20  -1
M  CHG 1  22  -1
M  END
> <UniqueID>
56

> <SMILES>
C=c1/c(=C/c2[n-]c(=O)[n-]c2[O-])cc(C)n1-c1cc(S(=O)(=O)N2CCN(C)CC2)ccc1F

> <Energy>
132.87546918259662

> <Genealogy>
C=c1c(=Cc2[n-]c(=O)[n-]c2[O-])cc(C)n1-c1cc(S(=O)(=O)N2CCN(C)CC2)ccc1F (protonated)
C=c1/c(=C/c2[n-]c(=O)[n-]c2[O-])cc(C)n1-c1cc(S(=O)(=O)N2CCN(C)CC2)ccc1F (cis-trans isomerization)
C=c1/c(=C/c2[n-]c(=O)[n-]c2[O-])cc(C)n1-c1cc(S(=O)(=O)N2CCN(C)CC2)ccc1F (3D coordinates assigned)
C=c1/c(=C/c2[n-]c(=O)[n-]c2[O-])cc(C)n1-c1cc(S(=O)(=O)N2CCN(C)CC2)ccc1F (nonaromatic ring conformer: 132.87546918259662 kcal/mol)

> <smiles>
C=c1c(=Cc2[nH]c(=O)[nH]c2O)cc(C)n1-c1cc(S(=O)(=O)N2CCN(C)CC2)ccc1F

> <score_type>
oracle

> <origin>
adg

> <m_score__min__energy>
-16.960000000000001

> <m_primary>
energy

> <minimizedAffinity>
-8.85038

> <minimizedRMSD>
0.94711

> <CNNscore>
0.2787812352

> <CNNaffinity>
7.2933082581

> <CNN_VS>
2.0332374573

> <CNNaffinity_variance>
0.1680489928

$$$$
59:0


 37 41  0  0  0  0  0  0  0  0999 V2000
   58.6378   30.8535   45.2296 C   0  0  0  0  0  0  0  0  0  0  0  0
   58.1017   31.4342   44.0655 C   0  0  0  0  0  0  0  0  0  0  0  0
   57.9873   32.8233   43.9573 C   0  0  0  0  0  0  0  0  0  0  0  0
   58.4155   33.6456   45.0043 C   0  0  0  0  0  0  0  0  0  0  0  0
   58.9772   33.0819   46.1592 C   0  0  0  0  0  0  0  0  0  0  0  0
   59.0619   31.6847   46.2772 C   0  0  0  0  0  0  0  0  0  0  0  0
   56.6773   28.7832   44.3095 C   0  0  0  0  0  0  0  0  0  0  0  0
   57.8587   28.4886   44.8798 C   0  0  0  0  0  0  0  0  0  0  0  0
   58.3518   27.2040   45.1319 C   0  0  0  0  0  0  0  0  0  0  0  0
   57.7744   26.0325   44.7916 C   0  0  0  0  0  0  0  0  0  0  0  0
   59.5351   27.3751   45.8350 C   0  0  0  0  0  0  0  0  0  0  0  0
   59.7482   28.7353   45.9294 C   0  0  0  0  0  0  0  0  0  0  0  0
   60.9467   29.3537   46.5861 C   0  0  0  0  0  0  0  0  0  0  0  0
   58.7302   29.4185   45.3560 N   0  0  0  0  0  0  0  0  0  0  0  0
   57.1429   25.0833   45.7277 C   0  0  0  0  0  0  0  0  0  0  0  0
   57.8376   24.1202   46.3497 N   0  0  0  0  0  0  0  0  0  0  0  0
   56.9512   23.6005   47.2235 C   0  0  0  0  0  0  0  0  0  0  0  0
   57.2424   22.6587   48.0003 O   0  0  0  0  0  0  0  0  0  0  0  0
   55.7429   24.1987   47.2281 N   0  0  0  0  0  0  0  0  0  0  0  0
   55.8825   25.1474   46.2899 C   0  0  0  0  0  0  0  0  0  0  0  0
   54.9029   26.0925   46.0149 O   0  0  0  0  0  0  0  0  0  0  0  0
   59.5092   33.9427   47.2322 C   0  0  0  0  0  0  0  0  0  0  0  0
   59.1302   35.1437   47.3126 O   0  0  0  0  0  0  0  0  0  0  0  0
   60.4490   33.4257   48.1845 N   0  0  0  0  0  0  0  0  0  0  0  0
   60.2882   33.7121   49.6161 C   0  0  0  0  0  0  0  0  0  0  0  0
   60.3225   32.3956   50.4095 C   0  0  0  0  0  0  0  0  0  0  0  0
   61.3077   31.4535   49.8468 N   0  0  0  0  0  0  0  0  0  0  0  0
   62.3105   31.9423   48.8882 C   0  0  0  0  0  0  0  0  0  0  0  0
   61.6077   32.6452   47.7205 C   0  0  0  0  0  0  0  0  0  0  0  0
   61.2826   30.0614   50.2134 C   0  0  0  0  0  0  0  0  0  0  0  0
   60.4764   29.1596   49.5028 C   0  0  0  0  0  0  0  0  0  0  0  0
   60.4151   27.8143   49.8809 C   0  0  0  0  0  0  0  0  0  0  0  0
   61.1602   27.3499   50.9806 C   0  0  0  0  0  0  0  0  0  0  0  0
   61.9593   28.2513   51.6925 C   0  0  0  0  0  0  0  0  0  0  0  0
   62.0239   29.5957   51.3117 C   0  0  0  0  0  0  0  0  0  0  0  0
   61.1334   26.0109   51.4015 O   0  0  0  0  0  0  0  0  0  0  0  0
   62.0996   25.4234   52.2672 C   0  0  0  0  0  0  0  0  0  0  0  0
  7  8  2  0
  8  9  1  0
  9 10  2  0
 10 15  1  0
 15 16  1  0
 16 17  1  0
 17 18  2  0
 17 19  1  0
 19 20  1  0
 20 21  1  0
  9 11  1  0
 11 12  2  0
 12 13  1  0
 12 14  1  0
 14  1  1  0
  1  2  2  0
  2  3  1  0
  3  4  2  0
  4  5  1  0
  5 22  1  0
 22 23  2  0
 22 24  1  0
 24 25  1  0
 25 26  1  0
 26 27  1  0
 27 30  1  0
 30 31  2  0
 31 32  1  0
 32 33  2  0
 33 36  1  0
 36 37  1  0
 33 34  1  0
 34 35  2  0
 27 28  1  0
 28 29  1  0
  5  6  2  0
 14  8  1  0
  6  1  1  0
 20 15  2  0
 29 24  1  0
 35 30  1  0
M  CHG 1  16  -1
M  CHG 1  19  -1
M  CHG 1  21  -1
M  END
> <UniqueID>
58

> <SMILES>
C=c1/c(=C/c2[n-]c(=O)[n-]c2[O-])cc(C)n1-c1cccc(C(=O)N2CCN(c3ccc(OC)cc3)CC2)c1

> <Energy>
147.68658164848063

> <Genealogy>
C=c1c(=Cc2[n-]c(=O)[n-]c2[O-])cc(C)n1-c1cccc(C(=O)N2CCN(c3ccc(OC)cc3)CC2)c1 (protonated)
C=c1/c(=C/c2[n-]c(=O)[n-]c2[O-])cc(C)n1-c1cccc(C(=O)N2CCN(c3ccc(OC)cc3)CC2)c1 (cis-trans isomerization)
C=c1/c(=C/c2[n-]c(=O)[n-]c2[O-])cc(C)n1-c1cccc(C(=O)N2CCN(c3ccc(OC)cc3)CC2)c1 (3D coordinates assigned)
C=c1/c(=C/c2[n-]c(=O)[n-]c2[O-])cc(C)n1-c1cccc(C(=O)N2CCN(c3ccc(OC)cc3)CC2)c1 (nonaromatic ring conformer: 147.68658164848063 kcal/mol)

> <smiles>
C=c1c(=Cc2[nH]c(=O)[nH]c2O)cc(C)n1-c1cccc(C(=O)N2CCN(c3ccc(OC)cc3)CC2)c1

> <score_type>
oracle

> <origin>
adg

> <m_score__min__energy>
-17.57

> <m_primary>
energy

> <minimizedAffinity>
-9.31943

> <minimizedRMSD>
0.61513

> <CNNscore>
0.2757056653

> <CNNaffinity>
7.0799679756

> <CNN_VS>
1.9519872665

> <CNNaffinity_variance>
0.2363554090

$$$$
64:0


 31 33  0  0  0  0  0  0  0  0999 V2000
   59.8674   27.1359   47.0168 C   0  0  0  0  0  0  0  0  0  0  0  0
   59.1454   27.9620   46.2258 C   0  0  0  0  0  0  0  0  0  0  0  0
   59.2203   29.3586   46.4817 C   0  0  0  0  0  0  0  0  0  0  0  0
   58.5543   30.2599   45.6388 C   0  0  0  0  0  0  0  0  0  0  0  0
   57.7930   29.8108   44.5638 C   0  0  0  0  0  0  0  0  0  0  0  0
   57.7035   28.4414   44.3062 C   0  0  0  0  0  0  0  0  0  0  0  0
   58.3562   27.4865   45.1190 C   0  0  0  0  0  0  0  0  0  0  0  0
   58.1732   26.1580   44.8723 C   0  0  0  0  0  0  0  0  0  0  0  0
   57.4695   25.2017   45.7562 C   0  0  0  0  0  0  0  0  0  0  0  0
   58.0124   24.0856   46.2798 N   0  0  0  0  0  0  0  0  0  0  0  0
   57.0428   23.6196   47.0974 C   0  0  0  0  0  0  0  0  0  0  0  0
   57.1731   22.5625   47.7689 O   0  0  0  0  0  0  0  0  0  0  0  0
   55.9293   24.3807   47.1465 N   0  0  0  0  0  0  0  0  0  0  0  0
   56.2216   25.3822   46.3023 C   0  0  0  0  0  0  0  0  0  0  0  0
   55.3652   26.4443   46.0387 O   0  0  0  0  0  0  0  0  0  0  0  0
   57.0984   30.8020   43.6648 C   0  0  0  0  0  0  0  0  0  0  0  0
   57.9110   32.0862   43.5515 C   0  0  0  0  0  0  0  0  0  0  0  0
   59.9782   29.8208   47.5784 O   0  0  0  0  0  0  0  0  0  0  0  0
   59.5170   30.6945   48.6125 C   0  0  0  0  0  0  0  0  0  0  0  0
   59.3182   32.1066   48.0987 C   0  0  0  0  0  0  0  0  0  0  0  0
   58.1791   32.5005   47.8872 O   0  0  0  0  0  0  0  0  0  0  0  0
   60.4353   33.0164   47.8980 N   0  0  0  0  0  0  0  0  0  0  0  0
   60.7707   33.7722   49.1394 C   0  0  0  0  0  0  0  0  0  0  0  0
   62.0538   33.2695   49.8175 C   0  0  0  0  0  0  0  0  0  0  0  0
   63.2629   33.3769   48.8640 C   0  0  0  0  0  0  0  0  0  0  0  0
   64.3127   32.4517   49.2967 N   0  0  0  0  0  0  0  0  0  0  0  0
   62.8700   33.1322   47.3821 C   0  0  0  0  0  0  0  0  0  0  0  0
   61.5832   32.3066   47.2777 C   0  0  0  0  0  0  0  0  0  0  0  0
   60.1118   33.1838   46.9834 H   0  0  0  0  0  0  0  0  0  0  0  0
   63.9621   31.4949   49.2524 H   0  0  0  0  0  0  0  0  0  0  0  0
   64.5846   32.6702   50.2552 H   0  0  0  0  0  0  0  0  0  0  0  0
  1  2  2  0
  2  3  1  0
  3 18  1  0
 18 19  1  0
 19 20  1  0
 20 21  2  0
 22 20  1  0
 22 23  1  0
 23 24  1  0
 24 25  1  0
 25 26  1  0
 25 27  1  0
 27 28  1  0
  3  4  2  0
  4  5  1  0
  5 16  1  0
 16 17  1  0
  5  6  2  0
  6  7  1  0
  7  8  2  0
  8  9  1  0
  9 10  1  0
 10 11  1  0
 11 12  2  0
 11 13  1  0
 13 14  1  0
 14 15  1  0
  7  2  1  0
 14  9  2  0
 28 22  1  0
 22 29  1  0
 26 30  1  0
 26 31  1  0
M  CHG 1  10  -1
M  CHG 1  13  -1
M  CHG 1  15  -1
M  CHG 1  22   1
M  END
> <UniqueID>
63

> <SMILES>
C=c1c(OCC(=O)[NH+]2CCC(N)CC2)cc(CC)cc1=Cc1[n-]c(=O)[n-]c1[O-]

> <Energy>
106.36868920411489

> <Genealogy>
C=c1c(OCC(=O)[NH+]2CCC(N)CC2)cc(CC)cc1=Cc1[n-]c(=O)[n-]c1[O-] (protonated)
C=c1c(OCC(=O)[NH+]2CCC(N)CC2)cc(CC)cc1=Cc1[n-]c(=O)[n-]c1[O-] (3D coordinates assigned)
C=c1c(OCC(=O)[NH+]2CCC(N)CC2)cc(CC)cc1=Cc1[n-]c(=O)[n-]c1[O-] (nonaromatic ring conformer: 106.36868920411489 kcal/mol)

> <smiles>
C=c1c(OCC(=O)N2CCC(N)CC2)cc(CC)cc1=Cc1[nH]c(=O)[nH]c1O

> <score_type>
oracle

> <origin>
adg

> <m_score__min__energy>
-14.92

> <m_primary>
energy

> <minimizedAffinity>
-8.24333

> <minimizedRMSD>
0.90264

> <CNNscore>
0.1502745301

> <CNNaffinity>
6.3952345848

> <CNN_VS>
0.9610408545

> <CNNaffinity_variance>
0.5835651755

$$$$
65:0


 35 38  0  0  0  0  0  0  0  0999 V2000
   58.2093   33.1812   46.7769 C   0  0  0  0  0  0  0  0  0  0  0  0
   58.9166   32.0517   46.7411 C   0  0  0  0  0  0  0  0  0  0  0  0
   58.4892   30.9373   46.1087 N   0  0  0  0  0  0  0  0  0  0  0  0
   59.5025   30.0513   46.1678 C   0  0  0  0  0  0  0  0  0  0  0  0
   59.5210   28.8784   45.5036 C   0  0  0  0  0  0  0  0  0  0  0  0
   60.5655   30.5762   46.9018 C   0  0  0  0  0  0  0  0  0  0  0  0
   61.8974   29.9370   47.1741 C   0  0  0  0  0  0  0  0  0  0  0  0
   60.1968   31.8714   47.2451 C   0  0  0  0  0  0  0  0  0  0  0  0
   57.6102   30.7996   45.6874 H   0  0  0  0  0  0  0  0  0  0  0  0
   58.5869   27.7539   45.7810 C   0  0  0  0  0  0  0  0  0  0  0  0
   57.2209   27.8383   45.4613 C   0  0  0  0  0  0  0  0  0  0  0  0
   56.6832   29.0100   44.9611 O   0  0  0  0  0  0  0  0  0  0  0  0
   56.4221   26.7416   45.5888 N   0  0  0  0  0  0  0  0  0  0  0  0
   56.9220   25.5623   46.0308 C   0  0  0  0  0  0  0  0  0  0  0  0
   56.1706   24.5501   46.0985 O   0  0  0  0  0  0  0  0  0  0  0  0
   58.2376   25.4454   46.3337 N   0  0  0  0  0  0  0  0  0  0  0  0
   59.0752   26.5213   46.2460 C   0  0  0  0  0  0  0  0  0  0  0  0
   60.2858   26.3801   46.5742 O   0  0  0  0  0  0  0  0  0  0  0  0
   61.1514   32.9561   47.5213 C   0  0  0  0  0  0  0  0  0  0  0  0
   61.1319   33.9605   46.7503 O   0  0  0  0  0  0  0  0  0  0  0  0
   62.0340   32.8922   48.6882 N   0  0  0  0  0  0  0  0  0  0  0  0
   61.8434   34.1360   49.4872 C   0  0  0  0  0  0  0  0  0  0  0  0
   63.0476   34.4975   50.3855 C   0  0  0  0  0  0  0  0  0  0  0  0
   63.9097   33.3488   50.6832 N   0  0  0  0  0  0  0  0  0  0  0  0
   64.4097   32.6508   49.4698 C   0  0  0  0  0  0  0  0  0  0  0  0
   63.4506   32.7742   48.2572 C   0  0  0  0  0  0  0  0  0  0  0  0
   62.5317   32.3433   48.0400 H   0  0  0  0  0  0  0  0  0  0  0  0
   63.3628   32.4352   51.7160 C   0  0  0  0  0  0  0  0  0  0  0  0
   63.3315   31.0289   51.1179 C   0  0  0  0  0  0  0  0  0  0  0  0
   61.9609   30.5384   50.8623 N   0  0  0  0  0  0  0  0  0  0  0  0
   61.8045   29.1073   51.2141 C   0  0  0  0  0  0  0  0  0  0  0  0
   60.3661   28.7765   51.6599 C   0  0  0  0  0  0  0  0  0  0  0  0
   59.4325   29.5713   50.9557 O   0  0  0  0  0  0  0  0  0  0  0  0
   59.5690   30.9500   51.2696 C   0  0  0  0  0  0  0  0  0  0  0  0
   61.0113   31.3673   51.6221 C   0  0  0  0  0  0  0  0  0  0  0  0
  1  2  2  0
  2  3  1  0
  3  4  1  0
  4  5  2  0
  5 10  1  0
 10 11  2  0
 11 12  1  0
 11 13  1  0
 13 14  1  0
 14 15  2  0
 14 16  1  0
 16 17  1  0
 17 18  2  0
  4  6  1  0
  6  7  1  0
  6  8  2  0
  8 19  1  0
 19 20  2  0
 19 21  1  0
 21 22  1  0
 22 23  1  0
 23 24  1  0
 24 28  1  0
 28 29  1  0
 29 30  1  0
 30 31  1  0
 31 32  1  0
 32 33  1  0
 33 34  1  0
 34 35  1  0
 24 25  1  0
 25 26  1  0
  8  2  1  0
 26 21  1  0
 17 10  1  0
 35 30  1  0
  3  9  1  0
 21 27  1  0
M  CHG 1  12  -1
M  CHG 1  13  -1
M  CHG 1  16  -1
M  CHG 1  21   1
M  END
> <UniqueID>
64

> <SMILES>
C=c1[nH]c(=Cc2c([O-])[n-]c(=O)[n-]c2=O)c(C)c1C(=O)[NH+]1CCN(CCN2CCOCC2)CC1

> <Energy>
142.30127433249964

> <Genealogy>
C=c1[nH]c(=Cc2c([O-])[n-]c(=O)[n-]c2=O)c(C)c1C(=O)[NH+]1CCN(CCN2CCOCC2)CC1 (protonated)
C=c1[nH]c(=Cc2c([O-])[n-]c(=O)[n-]c2=O)c(C)c1C(=O)[NH+]1CCN(CCN2CCOCC2)CC1 (3D coordinates assigned)
C=c1[nH]c(=Cc2c([O-])[n-]c(=O)[n-]c2=O)c(C)c1C(=O)[NH+]1CCN(CCN2CCOCC2)CC1 (nonaromatic ring conformer: 142.30127433249964 kcal/mol)

> <smiles>
C=c1[nH]c(=Cc2c(O)[nH]c(=O)[nH]c2=O)c(C)c1C(=O)N1CCN(CCN2CCOCC2)CC1

> <score_type>
oracle

> <origin>
adg

> <m_score__min__energy>
-15.41

> <m_primary>
energy

> <minimizedAffinity>
-5.93704

> <minimizedRMSD>
1.16774

> <CNNscore>
0.1292804480

> <CNNaffinity>
6.4001736641

> <CNN_VS>
0.8274173141

> <CNNaffinity_variance>
0.0238761585

$$$$
79:0


 35 38  0  0  0  0  0  0  0  0999 V2000
   57.3052   30.6850   44.2195 C   0  0  0  0  0  0  0  0  0  0  0  0
   57.7538   31.3713   43.0787 C   0  0  0  0  0  0  0  0  0  0  0  0
   58.1174   32.7188   43.1694 C   0  0  0  0  0  0  0  0  0  0  0  0
   58.0544   33.3819   44.3988 C   0  0  0  0  0  0  0  0  0  0  0  0
   57.6326   32.6962   45.5476 C   0  0  0  0  0  0  0  0  0  0  0  0
   57.3009   31.3417   45.4570 C   0  0  0  0  0  0  0  0  0  0  0  0
   56.8590   28.9374   44.1742 S   0  0  0  0  0  0  0  0  0  0  0  0
   57.1591   26.7540   46.5928 C   0  0  0  0  0  0  0  0  0  0  0  0
   58.2996   27.3502   46.1429 C   0  0  0  0  0  0  0  0  0  0  0  0
   58.3115   28.2860   45.0457 C   0  0  0  0  0  0  0  0  0  0  0  0
   59.5008   28.9414   44.6949 C   0  0  0  0  0  0  0  0  0  0  0  0
   60.6878   28.6973   45.3659 C   0  0  0  0  0  0  0  0  0  0  0  0
   60.7181   27.7946   46.4153 C   0  0  0  0  0  0  0  0  0  0  0  0
   59.5591   27.0954   46.8138 C   0  0  0  0  0  0  0  0  0  0  0  0
   59.7285   26.1833   47.7969 C   0  0  0  0  0  0  0  0  0  0  0  0
   58.2741   24.1610   45.4974 O   0  0  0  0  0  0  0  0  0  0  0  0
   56.9194   24.4664   45.5747 C   0  0  0  0  0  0  0  0  0  0  0  0
   55.9338   23.5910   45.3106 N   0  0  0  0  0  0  0  0  0  0  0  0
   54.8239   24.3171   45.5747 C   0  0  0  0  0  0  0  0  0  0  0  0
   53.6633   23.8453   45.4564 O   0  0  0  0  0  0  0  0  0  0  0  0
   55.0558   25.5825   45.9921 N   0  0  0  0  0  0  0  0  0  0  0  0
   56.3966   25.6810   45.9475 C   0  0  0  0  0  0  0  0  0  0  0  0
   58.5469   23.3044   45.2332 H   0  0  0  0  0  0  0  0  0  0  0  0
   57.6320   33.3264   46.8353 N   0  0  0  0  0  0  0  0  0  0  0  0
   58.7318   33.3694   47.7536 C   0  0  0  0  0  0  0  0  0  0  0  0
   59.6069   34.2645   47.5988 O   0  0  0  0  0  0  0  0  0  0  0  0
   58.9632   32.2655   48.7622 C   0  0  0  0  0  0  0  0  0  0  0  0
   60.0311   32.6175   49.8107 C   0  0  0  0  0  0  0  0  0  0  0  0
   61.0384   31.5357   49.9353 N   0  0  0  0  0  0  0  0  0  0  0  0
   62.3389   32.0066   50.4678 C   0  0  0  0  0  0  0  0  0  0  0  0
   63.2794   32.5684   49.3769 C   0  0  0  0  0  0  0  0  0  0  0  0
   62.5474   32.8116   48.1227 N   0  0  0  0  0  0  0  0  0  0  0  0
   63.4306   33.4335   47.1232 C   0  0  0  0  0  0  0  0  0  0  0  0
   61.9946   31.5471   47.5999 C   0  0  0  0  0  0  0  0  0  0  0  0
   61.2199   30.7635   48.6883 C   0  0  0  0  0  0  0  0  0  0  0  0
 16 17  1  0
 17 18  1  0
 18 19  1  0
 19 20  2  0
 19 21  1  0
 21 22  1  0
 22  8  1  0
  8  9  2  0
  9 10  1  0
 10  7  1  0
  7  1  1  0
  1  2  2  0
  2  3  1  0
  3  4  2  0
  4  5  1  0
  5 24  1  0
 24 25  1  0
 25 26  2  0
 25 27  1  0
 27 28  1  0
 28 29  1  0
 29 30  1  0
 30 31  1  0
 31 32  1  0
 32 33  1  0
 32 34  1  0
 34 35  1  0
  5  6  2  0
 10 11  2  0
 11 12  1  0
 12 13  2  0
 13 14  1  0
 14 15  2  0
 22 17  2  0
 14  9  1  0
  6  1  1  0
 35 29  1  0
 16 23  1  0
M  CHG 1  18  -1
M  CHG 1  21  -1
M  CHG 1  24  -1
M  END
> <UniqueID>
77

> <SMILES>
C=c1cccc(Sc2cccc([N-]C(=O)CCN3CCN(C)CC3)c2)/c1=C\c1[n-]c(=O)[n-]c1O

> <Energy>
137.60948083440607

> <Genealogy>
C=c1cccc(Sc2cccc([N-]C(=O)CCN3CCN(C)CC3)c2)c1=Cc1[n-]c(=O)[n-]c1O (protonated)
C=c1cccc(Sc2cccc([N-]C(=O)CCN3CCN(C)CC3)c2)/c1=C\c1[n-]c(=O)[n-]c1O (cis-trans isomerization)
C=c1cccc(Sc2cccc([N-]C(=O)CCN3CCN(C)CC3)c2)/c1=C\c1[n-]c(=O)[n-]c1O (3D coordinates assigned)
C=c1cccc(Sc2cccc([N-]C(=O)CCN3CCN(C)CC3)c2)/c1=C\c1[n-]c(=O)[n-]c1O (nonaromatic ring conformer: 137.60948083440607 kcal/mol)

> <smiles>
C=c1cccc(Sc2cccc(NC(=O)CCN3CCN(C)CC3)c2)c1=Cc1[nH]c(=O)[nH]c1O

> <score_type>
oracle

> <origin>
adg

> <m_score__min__energy>
-16.129999999999999

> <m_primary>
energy

> <minimizedAffinity>
-7.30940

> <minimizedRMSD>
0.64787

> <CNNscore>
0.1877574325

> <CNNaffinity>
6.6505808830

> <CNN_VS>
1.2486959696

> <CNNaffinity_variance>
0.5100052953

$$$$
7:0


 27 29  0  0  0  0  0  0  0  0999 V2000
   58.3619   29.6928   45.9363 C   0  0  0  0  0  0  0  0  0  0  0  0
   58.0653   30.0666   44.6102 C   0  0  0  0  0  0  0  0  0  0  0  0
   57.9828   31.4111   44.2474 C   0  0  0  0  0  0  0  0  0  0  0  0
   57.5704   31.8914   42.4443 Br  0  0  0  0  0  0  0  0  0  0  0  0
   58.1961   32.4052   45.1999 C   0  0  0  0  0  0  0  0  0  0  0  0
   58.4999   32.0595   46.5165 C   0  0  0  0  0  0  0  0  0  0  0  0
   58.5919   30.7056   46.9009 C   0  0  0  0  0  0  0  0  0  0  0  0
   58.4109   28.2472   46.2865 C   0  0  0  0  0  0  0  0  0  0  0  0
   59.3309   27.8237   47.0411 O   0  0  0  0  0  0  0  0  0  0  0  0
   58.7110   24.0028   45.6105 C   0  0  0  0  0  0  0  0  0  0  0  0
   58.6504   25.3619   45.5993 N   0  0  0  0  0  0  0  0  0  0  0  0
   57.4763   26.0348   45.7658 C   0  0  0  0  0  0  0  0  0  0  0  0
   57.4351   27.3371   45.7526 N   0  0  0  0  0  0  0  0  0  0  0  0
   56.2883   25.3105   45.9539 C   0  0  0  0  0  0  0  0  0  0  0  0
   55.0746   25.9675   46.1281 O   0  0  0  0  0  0  0  0  0  0  0  0
   56.3305   23.9130   45.9679 C   0  0  0  0  0  0  0  0  0  0  0  0
   57.5471   23.2536   45.7943 C   0  0  0  0  0  0  0  0  0  0  0  0
   58.9225   30.3443   48.2191 O   0  0  0  0  0  0  0  0  0  0  0  0
   59.4104   31.2293   49.2271 C   0  0  0  0  0  0  0  0  0  0  0  0
   60.6295   31.9177   48.7697 N   0  0  0  0  0  0  0  0  0  0  0  0
   61.6111   31.1845   48.1614 C   0  0  0  0  0  0  0  0  0  0  0  0
   62.7727   31.7993   47.6977 C   0  0  0  0  0  0  0  0  0  0  0  0
   62.9031   33.1754   47.8540 C   0  0  0  0  0  0  0  0  0  0  0  0
   63.9398   33.7648   47.4484 O   0  0  0  0  0  0  0  0  0  0  0  0
   61.9064   33.8839   48.4386 N   0  0  0  0  0  0  0  0  0  0  0  0
   60.7775   33.2774   48.8892 C   0  0  0  0  0  0  0  0  0  0  0  0
   59.8739   33.9840   49.4123 O   0  0  0  0  0  0  0  0  0  0  0  0
 10 11  1  0
 11 12  1  0
 12 13  2  0
 13  8  1  0
  8  9  2  0
  8  1  1  0
  1  2  2  0
  2  3  1  0
  3  4  1  0
  3  5  2  0
  5  6  1  0
  6  7  2  0
  7 18  1  0
 18 19  1  0
 19 20  1  0
 20 21  1  0
 21 22  2  0
 22 23  1  0
 23 24  2  0
 23 25  1  0
 25 26  1  0
 26 27  2  0
 12 14  1  0
 14 15  1  0
 14 16  2  0
 16 17  1  0
 17 10  2  0
  7  1  1  0
 26 20  1  0
M  CHG 1  11  -1
M  CHG 1  15  -1
M  CHG 1  25  -1
M  END
> <UniqueID>
8

> <SMILES>
O=C(/N=c1\[n-]cccc1[O-])c1cc(Br)ccc1OCn1ccc(=O)[n-]c1=O

> <Energy>
49.171874840905055

> <Genealogy>
O=C(N=c1[n-]cccc1[O-])c1cc(Br)ccc1OCn1ccc(=O)[n-]c1=O (protonated)
O=C(/N=c1\[n-]cccc1[O-])c1cc(Br)ccc1OCn1ccc(=O)[n-]c1=O (cis-trans isomerization)
O=C(/N=c1\[n-]cccc1[O-])c1cc(Br)ccc1OCn1ccc(=O)[n-]c1=O (3D coordinates assigned)
O=C(/N=c1\[n-]cccc1[O-])c1cc(Br)ccc1OCn1ccc(=O)[n-]c1=O (optimized conformer: 49.171874840905055 kcal/mol)

> <smiles>
O=C(N=c1[nH]cccc1O)c1cc(Br)ccc1OCn1ccc(=O)[nH]c1=O

> <score_type>
oracle

> <origin>
adg

> <m_score__min__energy>
-14.59

> <m_primary>
energy

> <minimizedAffinity>
-7.54565

> <minimizedRMSD>
1.32500

> <CNNscore>
0.5722637773

> <CNNaffinity>
6.9711737633

> <CNN_VS>
3.9893503189

> <CNNaffinity_variance>
0.2500779629

$$$$
16:0


 31 34  0  0  0  0  0  0  0  0999 V2000
   58.5212   30.8499   52.4915 C   0  0  0  0  0  0  0  0  0  0  0  0
   54.6805   28.2663   54.0360 C   0  0  0  0  0  0  0  0  0  0  0  0
   55.4225   29.0704   53.2496 C   0  0  0  0  0  0  0  0  0  0  0  0
   54.9449   30.0111   52.3206 C   0  0  0  0  0  0  0  0  0  0  0  0
   53.7096   30.2164   51.8255 C   0  0  0  0  0  0  0  0  0  0  0  0
   56.0385   30.7736   51.9468 C   0  0  0  0  0  0  0  0  0  0  0  0
   57.1436   30.2395   52.5820 C   0  0  0  0  0  0  0  0  0  0  0  0
   56.7728   29.1877   53.3619 N   0  0  0  0  0  0  0  0  0  0  0  0
   57.6381   28.3673   54.2263 C   0  0  0  0  0  0  0  0  0  0  0  0
   52.5582   30.7267   52.5825 C   0  0  0  0  0  0  0  0  0  0  0  0
   52.3777   30.5151   53.8981 N   0  0  0  0  0  0  0  0  0  0  0  0
   51.2608   31.2222   54.1770 C   0  0  0  0  0  0  0  0  0  0  0  0
   50.7532   31.2608   55.3272 O   0  0  0  0  0  0  0  0  0  0  0  0
   50.7344   31.8919   53.1251 N   0  0  0  0  0  0  0  0  0  0  0  0
   51.5743   31.5772   52.1265 C   0  0  0  0  0  0  0  0  0  0  0  0
   51.4554   32.0723   50.8330 O   0  0  0  0  0  0  0  0  0  0  0  0
   59.4227   29.9972   51.6346 C   0  0  0  0  0  0  0  0  0  0  0  0
   59.8212   28.9256   52.0732 O   0  0  0  0  0  0  0  0  0  0  0  0
   59.8037   30.4347   50.3041 N   0  0  0  0  0  0  0  0  0  0  0  0
   60.9807   31.3331   50.3716 C   0  0  0  0  0  0  0  0  0  0  0  0
   61.7636   31.4452   49.0373 C   0  0  0  0  0  0  0  0  0  0  0  0
   61.0013   30.9883   47.7658 C   0  0  0  0  0  0  0  0  0  0  0  0
   60.1436   29.7127   47.9700 C   0  0  0  0  0  0  0  0  0  0  0  0
   60.0536   29.2703   49.4367 C   0  0  0  0  0  0  0  0  0  0  0  0
   58.8928   30.5457   49.9474 H   0  0  0  0  0  0  0  0  0  0  0  0
   60.2017   32.0963   47.0881 C   0  0  0  0  0  0  0  0  0  0  0  0
   60.6315   33.4404   47.0650 C   0  0  0  0  0  0  0  0  0  0  0  0
   59.8400   34.4299   46.4693 C   0  0  0  0  0  0  0  0  0  0  0  0
   58.6029   34.0990   45.9144 C   0  0  0  0  0  0  0  0  0  0  0  0
   58.1502   32.7756   45.9531 C   0  0  0  0  0  0  0  0  0  0  0  0
   58.9411   31.7810   46.5394 C   0  0  0  0  0  0  0  0  0  0  0  0
  2  3  2  0
  3  4  1  0
  4  5  2  0
  5 10  1  0
 10 11  1  0
 11 12  1  0
 12 13  2  0
 12 14  1  0
 14 15  1  0
 15 16  1  0
  4  6  1  0
  6  7  2  0
  7  1  1  0
  1 17  1  0
 17 18  2  0
 19 17  1  0
 19 20  1  0
 20 21  1  0
 21 22  1  0
 22 26  1  0
 26 27  2  0
 27 28  1  0
 28 29  2  0
 29 30  1  0
 30 31  2  0
 22 23  1  0
 23 24  1  0
  7  8  1  0
  8  9  1  0
  8  3  1  0
 15 10  2  0
 24 19  1  0
 31 26  1  0
 19 25  1  0
M  CHG 1  11  -1
M  CHG 1  14  -1
M  CHG 1  16  -1
M  CHG 1  19   1
M  END
> <UniqueID>
15

> <SMILES>
C=c1c(=Cc2[n-]c(=O)[n-]c2[O-])cc(CC(=O)[NH+]2CCC(c3ccccc3)CC2)n1C

> <Energy>
138.525786174303

> <Genealogy>
C=c1c(=Cc2[n-]c(=O)[n-]c2[O-])cc(CC(=O)[NH+]2CCC(c3ccccc3)CC2)n1C (protonated)
C=c1c(=Cc2[n-]c(=O)[n-]c2[O-])cc(CC(=O)[NH+]2CCC(c3ccccc3)CC2)n1C (3D coordinates assigned)
C=c1c(=Cc2[n-]c(=O)[n-]c2[O-])cc(CC(=O)[NH+]2CCC(c3ccccc3)CC2)n1C (nonaromatic ring conformer: 138.525786174303 kcal/mol)

> <smiles>
C=c1c(=Cc2[nH]c(=O)[nH]c2O)cc(CC(=O)N2CCC(c3ccccc3)CC2)n1C

> <score_type>
oracle

> <origin>
adg

> <m_score__min__energy>
-18.120000000000001

> <m_primary>
energy

> <minimizedAffinity>
-8.18307

> <minimizedRMSD>
1.03458

> <CNNscore>
0.1924289763

> <CNNaffinity>
5.7875838280

> <CNN_VS>
1.1136988401

> <CNNaffinity_variance>
0.5302152038

$$$$
18:0


 25 27  0  0  0  0  0  0  0  0999 V2000
   59.6627   28.7313   45.7095 C   0  0  0  0  0  0  0  0  0  0  0  0
   61.0592   28.5873   45.7566 C   0  0  0  0  0  0  0  0  0  0  0  0
   61.6463   27.3628   46.0574 C   0  0  0  0  0  0  0  0  0  0  0  0
   60.8514   26.2662   46.3661 C   0  0  0  0  0  0  0  0  0  0  0  0
   59.4545   26.3611   46.2898 C   0  0  0  0  0  0  0  0  0  0  0  0
   58.6765   25.2548   46.6507 C   0  0  0  0  0  0  0  0  0  0  0  0
   57.2914   25.3110   46.5651 C   0  0  0  0  0  0  0  0  0  0  0  0
   56.6674   26.4335   46.0260 C   0  0  0  0  0  0  0  0  0  0  0  0
   55.2866   26.4112   45.8539 O   0  0  0  0  0  0  0  0  0  0  0  0
   57.4252   27.5498   45.6207 C   0  0  0  0  0  0  0  0  0  0  0  0
   58.8346   27.5710   45.8579 C   0  0  0  0  0  0  0  0  0  0  0  0
   59.0521   30.4035   45.7593 S   0  0  0  0  0  0  0  0  0  0  0  0
   57.8209   30.4413   46.6224 O   0  0  0  0  0  0  0  0  0  0  0  0
   58.6369   30.8210   44.3758 O   0  0  0  0  0  0  0  0  0  0  0  0
   59.3876   32.5995   48.9213 N   0  0  0  0  0  0  0  0  0  0  0  0
   59.9879   31.2523   48.8573 C   0  0  0  0  0  0  0  0  0  0  0  0
   60.8889   31.0502   47.6296 C   0  0  0  0  0  0  0  0  0  0  0  0
   60.2672   31.5026   46.3762 N   0  0  0  0  0  0  0  0  0  0  0  0
   59.8029   32.8947   46.4569 C   0  0  0  0  0  0  0  0  0  0  0  0
   58.8721   33.1511   47.6536 C   0  0  0  0  0  0  0  0  0  0  0  0
   61.4891   33.8262   49.5677 C   0  0  0  0  0  0  0  0  0  0  0  0
   60.0132   33.5585   49.8544 C   0  0  0  0  0  0  0  0  0  0  0  0
   56.7551   28.5264   44.7420 C   0  0  0  0  0  0  0  0  0  0  0  0
   57.0285   28.5561   43.5138 O   0  0  0  0  0  0  0  0  0  0  0  0
   55.7569   29.3540   45.2424 O   0  0  0  0  0  0  0  0  0  0  0  0
 21 22  1  0
 22 15  1  0
 15 16  1  0
 16 17  1  0
 17 18  1  0
 18 12  1  0
 12 13  2  0
 12 14  2  0
 12  1  1  0
  1  2  2  0
  2  3  1  0
  3  4  2  0
  4  5  1  0
  5  6  2  0
  6  7  1  0
  7  8  2  0
  8  9  1  0
  8 10  1  0
 10 23  1  0
 23 24  2  0
 23 25  1  0
 10 11  2  0
 18 19  1  0
 19 20  1  0
 20 15  1  0
 11  1  1  0
 11  5  1  0
M  CHG 1   9  -1
M  CHG 1  25  -1
M  END
> <UniqueID>
17

> <SMILES>
CCN1CCN(S(=O)(=O)c2cccc3ccc([O-])c(C(=O)[O-])c23)CC1

> <Energy>
80.33168862546415

> <Genealogy>
CCN1CCN(S(=O)(=O)c2cccc3ccc([O-])c(C(=O)[O-])c23)CC1 (protonated)
CCN1CCN(S(=O)(=O)c2cccc3ccc([O-])c(C(=O)[O-])c23)CC1 (3D coordinates assigned)
CCN1CCN(S(=O)(=O)c2cccc3ccc([O-])c(C(=O)[O-])c23)CC1 (nonaromatic ring conformer: 80.33168862546415 kcal/mol)

> <smiles>
CCN1CCN(S(=O)(=O)c2cccc3ccc(O)c(C(=O)O)c23)CC1

> <score_type>
oracle

> <origin>
adg

> <m_score__min__energy>
-14.199999999999999

> <m_primary>
energy

> <minimizedAffinity>
-3.25100

> <minimizedRMSD>
0.50161

> <CNNscore>
0.4579190314

> <CNNaffinity>
5.6224570274

> <CNN_VS>
2.5746300220

> <CNNaffinity_variance>
0.0493579395

$$$$
21:0


 27 29  0  0  0  0  0  0  0  0999 V2000
   58.0964   30.9357   53.2288 C   0  0  0  0  0  0  0  0  0  0  0  0
   57.9057   31.5230   54.3288 O   0  0  0  0  0  0  0  0  0  0  0  0
   58.4960   31.6932   52.0643 N   0  0  0  0  0  0  0  0  0  0  0  0
   58.9202   33.0976   52.2084 C   0  0  0  0  0  0  0  0  0  0  0  0
   60.1310   33.3838   51.3099 C   0  0  0  0  0  0  0  0  0  0  0  0
   59.9544   32.8169   49.9650 N   0  0  0  0  0  0  0  0  0  0  0  0
   58.7139   32.1147   49.6214 C   0  0  0  0  0  0  0  0  0  0  0  0
   58.3736   31.1019   50.7191 C   0  0  0  0  0  0  0  0  0  0  0  0
   61.0531   32.8378   49.0394 C   0  0  0  0  0  0  0  0  0  0  0  0
   62.1727   32.0195   49.2615 C   0  0  0  0  0  0  0  0  0  0  0  0
   63.2509   32.0413   48.3717 C   0  0  0  0  0  0  0  0  0  0  0  0
   63.2192   32.8800   47.2551 C   0  0  0  0  0  0  0  0  0  0  0  0
   62.1070   33.6942   47.0234 C   0  0  0  0  0  0  0  0  0  0  0  0
   61.0258   33.6764   47.9100 C   0  0  0  0  0  0  0  0  0  0  0  0
   59.9414   34.4492   47.6499 F   0  0  0  0  0  0  0  0  0  0  0  0
   57.9351   29.4440   53.1771 C   0  0  0  0  0  0  0  0  0  0  0  0
   56.9756   29.0268   54.1912 N   0  0  0  0  0  0  0  0  0  0  0  0
   55.1064   27.7665   53.6521 O   0  0  0  0  0  0  0  0  0  0  0  0
   55.5681   28.8990   53.9607 C   0  0  0  0  0  0  0  0  0  0  0  0
   54.6471   30.0857   54.1073 C   0  0  0  0  0  0  0  0  0  0  0  0
   53.4579   30.0044   53.1982 C   0  0  0  0  0  0  0  0  0  0  0  0
   53.5010   30.2406   51.8733 N   0  0  0  0  0  0  0  0  0  0  0  0
   52.2106   30.1122   51.4935 C   0  0  0  0  0  0  0  0  0  0  0  0
   51.8377   30.2563   50.3000 O   0  0  0  0  0  0  0  0  0  0  0  0
   51.3506   29.8208   52.4950 N   0  0  0  0  0  0  0  0  0  0  0  0
   52.1559   29.7624   53.5665 C   0  0  0  0  0  0  0  0  0  0  0  0
   51.7102   29.4989   54.8554 O   0  0  0  0  0  0  0  0  0  0  0  0
 18 19  2  0
 19 20  1  0
 20 21  1  0
 21 22  1  0
 22 23  1  0
 23 24  2  0
 23 25  1  0
 25 26  1  0
 26 27  1  0
 19 17  1  0
 17 16  1  0
 16  1  1  0
  1  2  2  0
  1  3  1  0
  3  4  1  0
  4  5  1  0
  5  6  1  0
  6  9  1  0
  9 10  2  0
 10 11  1  0
 11 12  2  0
 12 13  1  0
 13 14  2  0
 14 15  1  0
  6  7  1  0
  7  8  1  0
 26 21  2  0
  8  3  1  0
 14  9  1  0
M  CHG 1  17  -1
M  CHG 1  22  -1
M  CHG 1  25  -1
M  CHG 1  27  -1
M  END
> <UniqueID>
20

> <SMILES>
O=C(Cc1[n-]c(=O)[n-]c1[O-])[N-]CC(=O)N1CCN(c2ccccc2F)CC1

> <Energy>
76.00390779179479

> <Genealogy>
O=C(Cc1[n-]c(=O)[n-]c1[O-])[N-]CC(=O)N1CCN(c2ccccc2F)CC1 (protonated)
O=C(Cc1[n-]c(=O)[n-]c1[O-])[N-]CC(=O)N1CCN(c2ccccc2F)CC1 (3D coordinates assigned)
O=C(Cc1[n-]c(=O)[n-]c1[O-])[N-]CC(=O)N1CCN(c2ccccc2F)CC1 (nonaromatic ring conformer: 76.00390779179479 kcal/mol)

> <smiles>
O=C(Cc1[nH]c(=O)[nH]c1O)NCC(=O)N1CCN(c2ccccc2F)CC1

> <score_type>
oracle

> <origin>
adg

> <m_score__min__energy>
-19.079999999999998

> <m_primary>
energy

> <minimizedAffinity>
-6.06091

> <minimizedRMSD>
2.20790

> <CNNscore>
0.1522248089

> <CNNaffinity>
5.0430874825

> <CNN_VS>
0.7676830292

> <CNNaffinity_variance>
0.0885359421

$$$$
23:0


 28 30  0  0  0  0  0  0  0  0999 V2000
   54.2672   28.2483   54.5536 C   0  0  0  0  0  0  0  0  0  0  0  0
   55.1533   28.9445   53.8128 C   0  0  0  0  0  0  0  0  0  0  0  0
   56.5036   28.5464   53.8918 C   0  0  0  0  0  0  0  0  0  0  0  0
   57.4860   29.1676   53.1293 C   0  0  0  0  0  0  0  0  0  0  0  0
   57.1550   30.2205   52.2783 C   0  0  0  0  0  0  0  0  0  0  0  0
   55.8209   30.6280   52.1692 C   0  0  0  0  0  0  0  0  0  0  0  0
   54.7913   30.0209   52.9319 C   0  0  0  0  0  0  0  0  0  0  0  0
   53.5199   30.5002   52.8586 C   0  0  0  0  0  0  0  0  0  0  0  0
   52.7234   30.6344   51.6191 C   0  0  0  0  0  0  0  0  0  0  0  0
   51.7113   31.5422   51.4033 C   0  0  0  0  0  0  0  0  0  0  0  0
   51.3354   32.5586   52.2723 O   0  0  0  0  0  0  0  0  0  0  0  0
   51.1192   31.3167   50.2143 N   0  0  0  0  0  0  0  0  0  0  0  0
   51.7894   30.2423   49.7460 C   0  0  0  0  0  0  0  0  0  0  0  0
   51.5239   29.6984   48.6417 O   0  0  0  0  0  0  0  0  0  0  0  0
   52.7568   29.7933   50.5699 N   0  0  0  0  0  0  0  0  0  0  0  0
   53.3541   29.0224   50.4343 H   0  0  0  0  0  0  0  0  0  0  0  0
   58.2128   30.8732   51.4773 C   0  0  0  0  0  0  0  0  0  0  0  0
   58.7857   30.3370   50.3380 C   0  0  0  0  0  0  0  0  0  0  0  0
   59.7044   31.2607   49.8881 C   0  0  0  0  0  0  0  0  0  0  0  0
   59.7257   32.3297   50.7063 N   0  0  0  0  0  0  0  0  0  0  0  0
   58.8271   32.1059   51.6842 C   0  0  0  0  0  0  0  0  0  0  0  0
   60.2935   33.1279   50.6079 H   0  0  0  0  0  0  0  0  0  0  0  0
   58.6390   33.0217   52.8246 C   0  0  0  0  0  0  0  0  0  0  0  0
   58.9627   34.2354   52.7063 O   0  0  0  0  0  0  0  0  0  0  0  0
   58.1345   32.5415   54.0387 O   0  0  0  0  0  0  0  0  0  0  0  0
   58.9329   32.2961   55.1947 C   0  0  0  0  0  0  0  0  0  0  0  0
   60.0947   31.3847   54.7994 C   0  0  0  0  0  0  0  0  0  0  0  0
   58.0932   31.6405   56.2956 C   0  0  0  0  0  0  0  0  0  0  0  0
  1  2  2  0
  2  3  1  0
  3  4  2  0
  4  5  1  0
  5 17  1  0
 17 18  1  0
 18 19  2  0
 19 20  1  0
 20 21  1  0
 21 23  1  0
 23 24  2  0
 23 25  1  0
 25 26  1  0
 26 27  1  0
 26 28  1  0
  5  6  2  0
  6  7  1  0
  7  8  2  0
  8  9  1  0
  9 10  2  0
 10 11  1  0
 10 12  1  0
 12 13  1  0
 13 14  2  0
 13 15  1  0
  7  2  1  0
 15  9  1  0
 21 17  2  0
 20 22  1  0
 15 16  1  0
M  CHG 1  11  -1
M  CHG 1  12  -1
M  END
> <UniqueID>
22

> <SMILES>
C=c1ccc(-c2cc[nH]c2C(=O)OC(C)C)c/c1=C\c1[nH]c(=O)[n-]c1[O-]

> <Energy>
113.54576280709307

> <Genealogy>
C=c1ccc(-c2cc[nH]c2C(=O)OC(C)C)cc1=Cc1[nH]c(=O)[n-]c1[O-] (protonated)
C=c1ccc(-c2cc[nH]c2C(=O)OC(C)C)c/c1=C\c1[nH]c(=O)[n-]c1[O-] (cis-trans isomerization)
C=c1ccc(-c2cc[nH]c2C(=O)OC(C)C)c/c1=C\c1[nH]c(=O)[n-]c1[O-] (3D coordinates assigned)
C=c1ccc(-c2cc[nH]c2C(=O)OC(C)C)c/c1=C\c1[nH]c(=O)[n-]c1[O-] (optimized conformer: 113.54576280709307 kcal/mol)

> <smiles>
C=c1ccc(-c2cc[nH]c2C(=O)OC(C)C)cc1=Cc1[nH]c(=O)[nH]c1O

> <score_type>
oracle

> <origin>
adg

> <m_score__min__energy>
-14.199999999999999

> <m_primary>
energy

> <minimizedAffinity>
-5.60398

> <minimizedRMSD>
0.76467

> <CNNscore>
0.1618913114

> <CNNaffinity>
4.6875395775

> <CNN_VS>
0.7588719130

> <CNNaffinity_variance>
0.3318978250

$$$$
33:0


 31 34  0  0  0  0  0  0  0  0999 V2000
   60.5419   27.5597   48.5957 C   0  0  0  0  0  0  0  0  0  0  0  0
   57.8810   26.0900   43.7968 C   0  0  0  0  0  0  0  0  0  0  0  0
   58.5115   26.3579   44.9577 C   0  0  0  0  0  0  0  0  0  0  0  0
   59.2200   27.5733   45.0342 C   0  0  0  0  0  0  0  0  0  0  0  0
   59.8510   27.9686   46.2098 C   0  0  0  0  0  0  0  0  0  0  0  0
   59.8000   27.1587   47.3445 C   0  0  0  0  0  0  0  0  0  0  0  0
   59.1275   25.9324   47.2867 C   0  0  0  0  0  0  0  0  0  0  0  0
   58.4664   25.4995   46.1100 C   0  0  0  0  0  0  0  0  0  0  0  0
   57.8690   24.2770   46.0831 C   0  0  0  0  0  0  0  0  0  0  0  0
   56.4129   24.0398   46.0461 C   0  0  0  0  0  0  0  0  0  0  0  0
   55.8647   22.8318   45.8257 N   0  0  0  0  0  0  0  0  0  0  0  0
   54.5403   23.0925   45.7693 C   0  0  0  0  0  0  0  0  0  0  0  0
   53.6802   22.1918   45.5874 O   0  0  0  0  0  0  0  0  0  0  0  0
   54.2132   24.3940   45.9126 N   0  0  0  0  0  0  0  0  0  0  0  0
   55.4077   24.9826   46.0728 C   0  0  0  0  0  0  0  0  0  0  0  0
   55.5785   26.3553   46.2053 O   0  0  0  0  0  0  0  0  0  0  0  0
   59.8006   28.6586   49.3716 C   0  0  0  0  0  0  0  0  0  0  0  0
   60.1409   30.0294   48.8561 C   0  0  0  0  0  0  0  0  0  0  0  0
   61.3430   30.5839   49.1696 N   0  0  0  0  0  0  0  0  0  0  0  0
   61.7244   31.7924   48.6795 C   0  0  0  0  0  0  0  0  0  0  0  0
   60.8834   32.4951   47.8155 C   0  0  0  0  0  0  0  0  0  0  0  0
   59.6461   31.9431   47.4521 C   0  0  0  0  0  0  0  0  0  0  0  0
   59.2667   30.7056   47.9919 C   0  0  0  0  0  0  0  0  0  0  0  0
   58.7371   32.6610   46.5287 C   0  0  0  0  0  0  0  0  0  0  0  0
   58.2746   33.7820   46.8765 O   0  0  0  0  0  0  0  0  0  0  0  0
   58.3732   32.1112   45.2480 N   0  0  0  0  0  0  0  0  0  0  0  0
   58.1982   30.6624   45.0689 C   0  0  0  0  0  0  0  0  0  0  0  0
   56.9342   30.3862   44.2497 C   0  0  0  0  0  0  0  0  0  0  0  0
   56.9284   31.1277   42.8954 C   0  0  0  0  0  0  0  0  0  0  0  0
   57.9500   32.2762   42.8101 C   0  0  0  0  0  0  0  0  0  0  0  0
   58.0740   33.0303   44.1391 C   0  0  0  0  0  0  0  0  0  0  0  0
  2  3  2  0
  3  4  1  0
  4  5  2  0
  5  6  1  0
  6  1  1  0
  1 17  1  0
 17 18  1  0
 18 19  2  0
 19 20  1  0
 20 21  2  0
 21 22  1  0
 22 24  1  0
 24 25  2  0
 24 26  1  0
 26 27  1  0
 27 28  1  0
 28 29  1  0
 29 30  1  0
 30 31  1  0
 22 23  2  0
  6  7  2  0
  7  8  1  0
  8  9  2  0
  9 10  1  0
 10 11  1  0
 11 12  1  0
 12 13  2  0
 12 14  1  0
 14 15  1  0
 15 16  1  0
  8  3  1  0
 15 10  2  0
 23 18  1  0
 31 26  1  0
M  CHG 1  11  -1
M  CHG 1  14  -1
M  CHG 1  16  -1
M  END
> <UniqueID>
31

> <SMILES>
C=c1ccc(CCc2cc(C(=O)N3CCCCC3)ccn2)c/c1=C\c1[n-]c(=O)[n-]c1[O-]

> <Energy>
104.95537751111405

> <Genealogy>
C=c1ccc(CCc2cc(C(=O)N3CCCCC3)ccn2)cc1=Cc1[n-]c(=O)[n-]c1[O-] (protonated)
C=c1ccc(CCc2cc(C(=O)N3CCCCC3)ccn2)c/c1=C\c1[n-]c(=O)[n-]c1[O-] (cis-trans isomerization)
C=c1ccc(CCc2cc(C(=O)N3CCCCC3)ccn2)c/c1=C\c1[n-]c(=O)[n-]c1[O-] (3D coordinates assigned)
C=c1ccc(CCc2cc(C(=O)N3CCCCC3)ccn2)c/c1=C\c1[n-]c(=O)[n-]c1[O-] (nonaromatic ring conformer: 104.95537751111405 kcal/mol)

> <smiles>
C=c1ccc(CCc2cc(C(=O)N3CCCCC3)ccn2)cc1=Cc1[nH]c(=O)[nH]c1O

> <score_type>
oracle

> <origin>
adg

> <m_score__min__energy>
-19.16

> <m_primary>
energy

> <minimizedAffinity>
-8.06382

> <minimizedRMSD>
1.27803

> <CNNscore>
0.0798893943

> <CNNaffinity>
6.2517223358

> <CNN_VS>
0.4994463027

> <CNNaffinity_variance>
0.1533918530

$$$$
46:0


 28 30  0  0  0  0  0  0  0  0999 V2000
   61.2377   30.6964   48.5681 C   0  0  0  0  0  0  0  0  0  0  0  0
   60.7010   29.7867   49.4885 C   0  0  0  0  0  0  0  0  0  0  0  0
   59.6750   28.9217   49.1222 O   0  0  0  0  0  0  0  0  0  0  0  0
   61.1947   29.7250   50.7483 N   0  0  0  0  0  0  0  0  0  0  0  0
   62.2047   30.5347   51.1551 C   0  0  0  0  0  0  0  0  0  0  0  0
   62.6289   30.4321   52.3388 O   0  0  0  0  0  0  0  0  0  0  0  0
   62.7397   31.4566   50.2953 N   0  0  0  0  0  0  0  0  0  0  0  0
   62.2527   31.5649   49.0177 C   0  0  0  0  0  0  0  0  0  0  0  0
   62.7180   32.4417   48.2357 O   0  0  0  0  0  0  0  0  0  0  0  0
   63.8288   32.2973   50.7268 C   0  0  0  0  0  0  0  0  0  0  0  0
   63.5698   33.4778   51.4424 C   0  0  0  0  0  0  0  0  0  0  0  0
   64.6267   34.2854   51.8728 C   0  0  0  0  0  0  0  0  0  0  0  0
   65.9471   33.9223   51.5906 C   0  0  0  0  0  0  0  0  0  0  0  0
   66.2114   32.7495   50.8771 C   0  0  0  0  0  0  0  0  0  0  0  0
   65.1574   31.9386   50.4459 C   0  0  0  0  0  0  0  0  0  0  0  0
   60.7497   30.7194   47.1633 C   0  0  0  0  0  0  0  0  0  0  0  0
   59.7377   31.4177   46.8858 O   0  0  0  0  0  0  0  0  0  0  0  0
   61.4192   30.0020   46.0532 C   0  0  0  0  0  0  0  0  0  0  0  0
   61.0278   28.8381   45.5078 C   0  0  0  0  0  0  0  0  0  0  0  0
   59.6916   28.2268   45.6667 C   0  0  0  0  0  0  0  0  0  0  0  0
   59.5916   26.9435   46.2186 C   0  0  0  0  0  0  0  0  0  0  0  0
   58.3397   26.3518   46.3982 C   0  0  0  0  0  0  0  0  0  0  0  0
   57.1817   27.0244   46.0029 C   0  0  0  0  0  0  0  0  0  0  0  0
   55.9408   26.4257   46.1959 O   0  0  0  0  0  0  0  0  0  0  0  0
   57.2645   28.2915   45.4106 C   0  0  0  0  0  0  0  0  0  0  0  0
   58.5297   28.8877   45.2345 C   0  0  0  0  0  0  0  0  0  0  0  0
   56.0765   28.9221   45.0100 O   0  0  0  0  0  0  0  0  0  0  0  0
   56.0118   30.0220   44.1059 C   0  0  0  0  0  0  0  0  0  0  0  0
 18 16  1  0
 16 17  2  0
 16  1  1  0
  1  2  2  0
  2  3  1  0
  2  4  1  0
  4  5  1  0
  5  6  2  0
  5  7  1  0
  7 10  1  0
 10 11  2  0
 11 12  1  0
 12 13  2  0
 13 14  1  0
 14 15  2  0
  7  8  1  0
  8  9  2  0
 18 19  2  0
 19 20  1  0
 20 21  2  0
 21 22  1  0
 22 23  2  0
 23 24  1  0
 23 25  1  0
 25 27  1  0
 27 28  1  0
 25 26  2  0
  8  1  1  0
 26 20  1  0
 15 10  1  0
M  CHG 1   3  -1
M  CHG 1   4  -1
M  CHG 1  24  -1
M  END
> <UniqueID>
44

> <SMILES>
COc1cc(/C=C\C(=O)c2c([O-])[n-]c(=O)n(-c3ccccc3)c2=O)ccc1[O-]

> <Energy>
65.36913918745827

> <Genealogy>
COc1cc(C=CC(=O)c2c([O-])[n-]c(=O)n(-c3ccccc3)c2=O)ccc1[O-] (protonated)
COc1cc(/C=C\C(=O)c2c([O-])[n-]c(=O)n(-c3ccccc3)c2=O)ccc1[O-] (cis-trans isomerization)
COc1cc(/C=C\C(=O)c2c([O-])[n-]c(=O)n(-c3ccccc3)c2=O)ccc1[O-] (3D coordinates assigned)
COc1cc(/C=C\C(=O)c2c([O-])[n-]c(=O)n(-c3ccccc3)c2=O)ccc1[O-] (optimized conformer: 65.36913918745827 kcal/mol)

> <smiles>
COc1cc(C=CC(=O)c2c(O)[nH]c(=O)n(-c3ccccc3)c2=O)ccc1O

> <score_type>
oracle

> <origin>
adg

> <m_score__min__energy>
-14.42

> <m_primary>
energy

> <minimizedAffinity>
-5.66936

> <minimizedRMSD>
0.80227

> <CNNscore>
0.1793507487

> <CNNaffinity>
5.7692985535

> <CNN_VS>
1.0347280502

> <CNNaffinity_variance>
0.0399122015

$$$$
48:0


 31 34  0  0  0  0  0  0  0  0999 V2000
   58.9559   29.9639   47.7472 C   0  0  0  0  0  0  0  0  0  0  0  0
   59.6583   29.0558   48.4338 C   0  0  0  0  0  0  0  0  0  0  0  0
   59.7775   27.6863   48.1264 C   0  0  0  0  0  0  0  0  0  0  0  0
   59.4100   26.9822   47.0357 C   0  0  0  0  0  0  0  0  0  0  0  0
   60.4488   27.1165   49.1873 C   0  0  0  0  0  0  0  0  0  0  0  0
   60.7591   28.1396   50.0704 C   0  0  0  0  0  0  0  0  0  0  0  0
   61.6059   27.9583   51.2952 C   0  0  0  0  0  0  0  0  0  0  0  0
   60.2932   29.3255   49.6145 N   0  0  0  0  0  0  0  0  0  0  0  0
   58.1945   26.1646   46.9102 C   0  0  0  0  0  0  0  0  0  0  0  0
   58.1055   24.8953   47.3268 N   0  0  0  0  0  0  0  0  0  0  0  0
   56.8806   24.5027   46.9071 C   0  0  0  0  0  0  0  0  0  0  0  0
   56.4107   23.3563   47.1374 O   0  0  0  0  0  0  0  0  0  0  0  0
   56.1932   25.4330   46.2266 N   0  0  0  0  0  0  0  0  0  0  0  0
   57.0420   26.4779   46.2246 C   0  0  0  0  0  0  0  0  0  0  0  0
   56.7643   27.6729   45.5799 O   0  0  0  0  0  0  0  0  0  0  0  0
   55.9456   27.7881   45.1389 H   0  0  0  0  0  0  0  0  0  0  0  0
   60.5170   30.6299   50.2665 C   0  0  0  0  0  0  0  0  0  0  0  0
   61.4387   31.4877   49.4336 C   0  0  0  0  0  0  0  0  0  0  0  0
   62.8261   31.4810   49.6694 C   0  0  0  0  0  0  0  0  0  0  0  0
   63.6716   32.3024   48.9202 C   0  0  0  0  0  0  0  0  0  0  0  0
   63.1491   33.1278   47.9209 C   0  0  0  0  0  0  0  0  0  0  0  0
   61.7647   33.1217   47.6505 C   0  0  0  0  0  0  0  0  0  0  0  0
   60.9178   32.2964   48.4087 C   0  0  0  0  0  0  0  0  0  0  0  0
   61.1890   33.8728   46.5712 N   0  0  0  0  0  0  0  0  0  0  0  0
   59.5128   33.9102   46.1212 S   0  0  0  0  0  0  0  0  0  0  0  0
   59.3452   34.8631   44.9652 O   0  0  0  0  0  0  0  0  0  0  0  0
   58.6493   34.3874   47.2585 O   0  0  0  0  0  0  0  0  0  0  0  0
   59.0194   32.2750   45.6095 C   0  0  0  0  0  0  0  0  0  0  0  0
   57.7339   32.3562   44.7724 C   0  0  0  0  0  0  0  0  0  0  0  0
   57.1991   31.0290   44.2563 C   0  0  0  0  0  0  0  0  0  0  0  0
   57.8863   31.9900   43.2998 C   0  0  0  0  0  0  0  0  0  0  0  0
  1  2  2  0
  2  3  1  0
  3  4  2  0
  4  9  1  0
  9 10  1  0
 10 11  1  0
 11 12  2  0
 11 13  1  0
 13 14  1  0
 14 15  1  0
  3  5  1  0
  5  6  2  0
  6  7  1  0
  6  8  1  0
  8 17  1  0
 17 18  1  0
 18 19  2  0
 19 20  1  0
 20 21  2  0
 21 22  1  0
 22 24  1  0
 24 25  1  0
 25 26  2  0
 25 27  2  0
 25 28  1  0
 28 29  1  0
 29 30  1  0
 30 31  1  0
 22 23  2  0
  8  2  1  0
 23 18  1  0
 14  9  2  0
 31 29  1  0
 15 16  1  0
M  CHG 1  10  -1
M  CHG 1  13  -1
M  CHG 1  24  -1
M  END
> <UniqueID>
45

> <SMILES>
C=c1c(=Cc2[n-]c(=O)[n-]c2O)cc(C)n1Cc1cccc([N-]S(=O)(=O)CC2CC2)c1

> <Energy>
386.0770933426878

> <Genealogy>
C=c1c(=Cc2[n-]c(=O)[n-]c2O)cc(C)n1Cc1cccc([N-]S(=O)(=O)CC2CC2)c1 (protonated)
C=c1c(=Cc2[n-]c(=O)[n-]c2O)cc(C)n1Cc1cccc([N-]S(=O)(=O)CC2CC2)c1 (3D coordinates assigned)
C=c1c(=Cc2[n-]c(=O)[n-]c2O)cc(C)n1Cc1cccc([N-]S(=O)(=O)CC2CC2)c1 (nonaromatic ring conformer: 386.0770933426878 kcal/mol)

> <smiles>
C=c1c(=Cc2[nH]c(=O)[nH]c2O)cc(C)n1Cc1cccc(NS(=O)(=O)CC2CC2)c1

> <score_type>
oracle

> <origin>
adg

> <m_score__min__energy>
-14.390000000000001

> <m_primary>
energy

> <minimizedAffinity>
-7.85330

> <minimizedRMSD>
0.88423

> <CNNscore>
0.6327023506

> <CNNaffinity>
7.1380138397

> <CNN_VS>
4.5162382126

> <CNNaffinity_variance>
0.0588666089

$$$$
56:0


 31 34  0  0  0  0  0  0  0  0999 V2000
   59.0904   32.1794   46.1617 C   0  0  0  0  0  0  0  0  0  0  0  0
   58.5257   32.3128   45.0390 O   0  0  0  0  0  0  0  0  0  0  0  0
   59.4486   33.3776   46.9072 N   0  0  0  0  0  0  0  0  0  0  0  0
   58.9383   33.4023   48.3105 C   0  0  0  0  0  0  0  0  0  0  0  0
   60.0396   33.5084   49.3920 C   0  0  0  0  0  0  0  0  0  0  0  0
   61.2428   32.7550   49.0254 N   0  0  0  0  0  0  0  0  0  0  0  0
   61.9947   32.0851   50.0465 C   0  0  0  0  0  0  0  0  0  0  0  0
   61.5115   31.0532   50.5839 O   0  0  0  0  0  0  0  0  0  0  0  0
   61.7549   32.7775   47.6550 C   0  0  0  0  0  0  0  0  0  0  0  0
   60.8903   33.6742   46.7661 C   0  0  0  0  0  0  0  0  0  0  0  0
   59.6599   33.1256   47.8352 H   0  0  0  0  0  0  0  0  0  0  0  0
   63.3277   32.5808   50.4688 C   0  0  0  0  0  0  0  0  0  0  0  0
   64.4969   31.9607   49.9887 C   0  0  0  0  0  0  0  0  0  0  0  0
   65.7555   32.4241   50.3825 C   0  0  0  0  0  0  0  0  0  0  0  0
   65.8639   33.5091   51.2578 C   0  0  0  0  0  0  0  0  0  0  0  0
   64.7093   34.1243   51.7511 C   0  0  0  0  0  0  0  0  0  0  0  0
   63.4474   33.6633   51.3628 C   0  0  0  0  0  0  0  0  0  0  0  0
   59.9401   28.4447   49.0303 C   0  0  0  0  0  0  0  0  0  0  0  0
   59.8022   29.1259   47.8869 C   0  0  0  0  0  0  0  0  0  0  0  0
   59.5406   30.4150   47.8599 O   0  0  0  0  0  0  0  0  0  0  0  0
   59.4231   30.8019   46.6093 C   0  0  0  0  0  0  0  0  0  0  0  0
   59.6330   29.7263   45.7631 C   0  0  0  0  0  0  0  0  0  0  0  0
   59.8837   28.6318   46.5830 C   0  0  0  0  0  0  0  0  0  0  0  0
   60.1412   27.3588   46.2152 C   0  0  0  0  0  0  0  0  0  0  0  0
   59.1392   26.2759   46.0768 C   0  0  0  0  0  0  0  0  0  0  0  0
   59.3704   24.9578   46.2146 N   0  0  0  0  0  0  0  0  0  0  0  0
   58.1630   24.3984   45.9794 C   0  0  0  0  0  0  0  0  0  0  0  0
   57.9742   23.1533   46.0136 O   0  0  0  0  0  0  0  0  0  0  0  0
   57.1761   25.2748   45.6957 N   0  0  0  0  0  0  0  0  0  0  0  0
   57.8107   26.4588   45.7622 C   0  0  0  0  0  0  0  0  0  0  0  0
   57.1876   27.6808   45.5255 O   0  0  0  0  0  0  0  0  0  0  0  0
 18 19  2  0
 19 20  1  0
 20 21  1  0
 21  1  1  0
  1  2  2  0
  1  3  1  0
  3  4  1  0
  4  5  1  0
  5  6  1  0
  6  7  1  0
  7  8  2  0
  7 12  1  0
 12 13  2  0
 13 14  1  0
 14 15  2  0
 15 16  1  0
 16 17  2  0
  6  9  1  0
  9 10  1  0
 21 22  2  0
 22 23  1  0
 23 24  2  0
 24 25  1  0
 25 26  1  0
 26 27  1  0
 27 28  2  0
 27 29  1  0
 29 30  1  0
 30 31  1  0
 23 19  1  0
 30 25  2  0
 10  3  1  0
 17 12  1  0
  3 11  1  0
M  CHG 1   3   1
M  CHG 1  26  -1
M  CHG 1  29  -1
M  CHG 1  31  -1
M  END
> <UniqueID>
53

> <SMILES>
C=c1oc(C(=O)[NH+]2CCN(C(=O)c3ccccc3)CC2)c/c1=C\c1[n-]c(=O)[n-]c1[O-]

> <Energy>
130.3983155614893

> <Genealogy>
C=c1oc(C(=O)[NH+]2CCN(C(=O)c3ccccc3)CC2)cc1=Cc1[n-]c(=O)[n-]c1[O-] (protonated)
C=c1oc(C(=O)[NH+]2CCN(C(=O)c3ccccc3)CC2)c/c1=C\c1[n-]c(=O)[n-]c1[O-] (cis-trans isomerization)
C=c1oc(C(=O)[NH+]2CCN(C(=O)c3ccccc3)CC2)c/c1=C\c1[n-]c(=O)[n-]c1[O-] (3D coordinates assigned)
C=c1oc(C(=O)[NH+]2CCN(C(=O)c3ccccc3)CC2)c/c1=C\c1[n-]c(=O)[n-]c1[O-] (nonaromatic ring conformer: 130.3983155614893 kcal/mol)

> <smiles>
C=c1oc(C(=O)N2CCN(C(=O)c3ccccc3)CC2)cc1=Cc1[nH]c(=O)[nH]c1O

> <score_type>
oracle

> <origin>
adg

> <m_score__min__energy>
-16.949999999999999

> <m_primary>
energy

> <minimizedAffinity>
-8.08187

> <minimizedRMSD>
1.65516

> <CNNscore>
0.1680461317

> <CNNaffinity>
6.4553680420

> <CNN_VS>
1.0847996473

> <CNNaffinity_variance>
0.1823613197

$$$$
64:0


 38 42  0  0  0  0  0  0  0  0999 V2000
   60.2618   31.9124   46.8251 C   0  0  0  0  0  0  0  0  0  0  0  0
   58.9585   31.8790   46.2953 C   0  0  0  0  0  0  0  0  0  0  0  0
   58.3079   33.0585   45.9249 C   0  0  0  0  0  0  0  0  0  0  0  0
   58.9407   34.2882   46.0901 C   0  0  0  0  0  0  0  0  0  0  0  0
   60.2219   34.3463   46.6394 C   0  0  0  0  0  0  0  0  0  0  0  0
   60.8872   33.1695   47.0208 C   0  0  0  0  0  0  0  0  0  0  0  0
   62.2087   33.2943   47.6606 C   0  0  0  0  0  0  0  0  0  0  0  0
   63.2246   33.3623   46.9187 O   0  0  0  0  0  0  0  0  0  0  0  0
   62.3677   33.2786   49.0971 N   0  0  0  0  0  0  0  0  0  0  0  0
   63.7169   33.2266   49.6697 C   0  0  0  0  0  0  0  0  0  0  0  0
   63.6635   32.8778   51.1659 C   0  0  0  0  0  0  0  0  0  0  0  0
   62.6083   31.8812   51.4617 N   0  0  0  0  0  0  0  0  0  0  0  0
   61.2488   32.3757   51.1124 C   0  0  0  0  0  0  0  0  0  0  0  0
   61.2347   33.4589   50.0161 C   0  0  0  0  0  0  0  0  0  0  0  0
   62.8769   30.5501   50.8686 C   0  0  0  0  0  0  0  0  0  0  0  0
   62.3452   29.4407   51.7404 C   0  0  0  0  0  0  0  0  0  0  0  0
   61.5527   28.4186   51.1907 C   0  0  0  0  0  0  0  0  0  0  0  0
   61.0745   27.3871   52.0037 C   0  0  0  0  0  0  0  0  0  0  0  0
   61.3825   27.3664   53.3665 C   0  0  0  0  0  0  0  0  0  0  0  0
   62.1722   28.3797   53.9195 C   0  0  0  0  0  0  0  0  0  0  0  0
   62.6539   29.4136   53.1098 C   0  0  0  0  0  0  0  0  0  0  0  0
   60.9441   30.5982   47.1697 C   0  0  0  0  0  0  0  0  0  0  0  0
   58.5170   26.6612   45.3984 C   0  0  0  0  0  0  0  0  0  0  0  0
   58.9082   27.6666   46.2053 C   0  0  0  0  0  0  0  0  0  0  0  0
   58.5030   27.8712   47.5155 C   0  0  0  0  0  0  0  0  0  0  0  0
   59.1890   28.9757   47.9734 C   0  0  0  0  0  0  0  0  0  0  0  0
   58.9571   29.6042   49.3165 C   0  0  0  0  0  0  0  0  0  0  0  0
   60.0391   29.4412   47.0250 N   0  0  0  0  0  0  0  0  0  0  0  0
   59.8397   28.6698   45.9212 C   0  0  0  0  0  0  0  0  0  0  0  0
   60.4151   28.8891   44.7275 C   0  0  0  0  0  0  0  0  0  0  0  0
   55.5115   26.3352   46.0657 O   0  0  0  0  0  0  0  0  0  0  0  0
   56.4654   25.3254   46.1448 C   0  0  0  0  0  0  0  0  0  0  0  0
   56.1819   24.0524   46.4688 N   0  0  0  0  0  0  0  0  0  0  0  0
   57.3815   23.4436   46.3535 C   0  0  0  0  0  0  0  0  0  0  0  0
   57.5406   22.2143   46.5739 O   0  0  0  0  0  0  0  0  0  0  0  0
   58.3944   24.2523   45.9745 N   0  0  0  0  0  0  0  0  0  0  0  0
   57.8077   25.4567   45.8665 C   0  0  0  0  0  0  0  0  0  0  0  0
   54.6168   26.1519   46.2752 H   0  0  0  0  0  0  0  0  0  0  0  0
 31 32  1  0
 32 33  1  0
 33 34  1  0
 34 35  2  0
 34 36  1  0
 36 37  1  0
 37 23  1  0
 23 24  2  0
 24 25  1  0
 25 26  2  0
 26 27  1  0
 26 28  1  0
 28 22  1  0
 22  1  1  0
  1  2  2  0
  2  3  1  0
  3  4  2  0
  4  5  1  0
  5  6  2  0
  6  7  1  0
  7  8  2  0
  7  9  1  0
  9 10  1  0
 10 11  1  0
 11 12  1  0
 12 15  1  0
 15 16  1  0
 16 17  2  0
 17 18  1  0
 18 19  2  0
 19 20  1  0
 20 21  2  0
 12 13  1  0
 13 14  1  0
 28 29  1  0
 29 30  2  0
 37 32  2  0
 29 24  1  0
  6  1  1  0
 14  9  1  0
 21 16  1  0
 31 38  1  0
M  CHG 1  33  -1
M  CHG 1  36  -1
M  END
> <UniqueID>
61

> <SMILES>
C=c1/c(=C/c2[n-]c(=O)[n-]c2O)cc(C)n1Cc1ccccc1C(=O)N1CCN(Cc2ccccc2)CC1

> <Energy>
148.83140474498236

> <Genealogy>
C=c1c(=Cc2[n-]c(=O)[n-]c2O)cc(C)n1Cc1ccccc1C(=O)N1CCN(Cc2ccccc2)CC1 (protonated)
C=c1/c(=C/c2[n-]c(=O)[n-]c2O)cc(C)n1Cc1ccccc1C(=O)N1CCN(Cc2ccccc2)CC1 (cis-trans isomerization)
C=c1/c(=C/c2[n-]c(=O)[n-]c2O)cc(C)n1Cc1ccccc1C(=O)N1CCN(Cc2ccccc2)CC1 (3D coordinates assigned)
C=c1/c(=C/c2[n-]c(=O)[n-]c2O)cc(C)n1Cc1ccccc1C(=O)N1CCN(Cc2ccccc2)CC1 (nonaromatic ring conformer: 148.83140474498236 kcal/mol)

> <smiles>
C=c1c(=Cc2[nH]c(=O)[nH]c2O)cc(C)n1Cc1ccccc1C(=O)N1CCN(Cc2ccccc2)CC1

> <score_type>
oracle

> <origin>
adg

> <m_score__min__energy>
-14.66

> <m_primary>
energy

> <minimizedAffinity>
-10.01899

> <minimizedRMSD>
0.91079

> <CNNscore>
0.4337791502

> <CNNaffinity>
7.2168745995

> <CNN_VS>
3.1305296421

> <CNNaffinity_variance>
0.0490830243

$$$$
78:0


 39 43  0  0  0  0  0  0  0  0999 V2000
   59.3902   30.1066   48.5787 C   0  0  0  0  0  0  0  0  0  0  0  0
   60.7714   30.1286   48.3071 C   0  0  0  0  0  0  0  0  0  0  0  0
   61.6962   29.8687   49.3233 C   0  0  0  0  0  0  0  0  0  0  0  0
   61.2529   29.5743   50.6180 C   0  0  0  0  0  0  0  0  0  0  0  0
   59.8782   29.5186   50.8845 C   0  0  0  0  0  0  0  0  0  0  0  0
   58.9541   29.7794   49.8704 C   0  0  0  0  0  0  0  0  0  0  0  0
   62.2298   29.3907   51.7030 C   0  0  0  0  0  0  0  0  0  0  0  0
   62.9598   28.3613   51.6863 O   0  0  0  0  0  0  0  0  0  0  0  0
   62.3676   30.3804   52.7562 N   0  0  0  0  0  0  0  0  0  0  0  0
   61.0375   30.8740   53.2149 C   0  0  0  0  0  0  0  0  0  0  0  0
   60.8169   32.3806   52.9948 C   0  0  0  0  0  0  0  0  0  0  0  0
   61.3199   32.7791   51.6766 N   0  0  0  0  0  0  0  0  0  0  0  0
   60.4644   33.4798   50.7465 C   0  0  0  0  0  0  0  0  0  0  0  0
   59.3848   33.9898   51.1503 O   0  0  0  0  0  0  0  0  0  0  0  0
   62.7030   32.4269   51.3281 C   0  0  0  0  0  0  0  0  0  0  0  0
   63.3121   31.4507   52.3558 C   0  0  0  0  0  0  0  0  0  0  0  0
   61.7807   30.3565   53.5463 H   0  0  0  0  0  0  0  0  0  0  0  0
   60.7816   33.5777   49.3088 C   0  0  0  0  0  0  0  0  0  0  0  0
   59.7711   33.7653   48.3498 C   0  0  0  0  0  0  0  0  0  0  0  0
   60.0941   33.8304   46.9889 C   0  0  0  0  0  0  0  0  0  0  0  0
   61.4258   33.7021   46.5786 C   0  0  0  0  0  0  0  0  0  0  0  0
   62.4363   33.4957   47.5254 C   0  0  0  0  0  0  0  0  0  0  0  0
   62.1145   33.4254   48.8861 C   0  0  0  0  0  0  0  0  0  0  0  0
   58.3879   30.4365   47.4993 C   0  0  0  0  0  0  0  0  0  0  0  0
   58.4479   27.4415   47.6704 C   0  0  0  0  0  0  0  0  0  0  0  0
   58.4392   28.1043   46.5035 C   0  0  0  0  0  0  0  0  0  0  0  0
   58.3633   27.5305   45.2277 C   0  0  0  0  0  0  0  0  0  0  0  0
   58.1961   26.2239   44.9300 C   0  0  0  0  0  0  0  0  0  0  0  0
   58.3715   28.5854   44.3294 C   0  0  0  0  0  0  0  0  0  0  0  0
   58.4371   29.7443   45.0794 C   0  0  0  0  0  0  0  0  0  0  0  0
   58.4388   31.1268   44.4947 C   0  0  0  0  0  0  0  0  0  0  0  0
   58.4777   29.4614   46.3992 N   0  0  0  0  0  0  0  0  0  0  0  0
   57.5061   25.2577   45.8057 C   0  0  0  0  0  0  0  0  0  0  0  0
   58.0582   24.1435   46.3208 N   0  0  0  0  0  0  0  0  0  0  0  0
   57.0654   23.6253   47.0807 C   0  0  0  0  0  0  0  0  0  0  0  0
   57.2009   22.5584   47.7402 O   0  0  0  0  0  0  0  0  0  0  0  0
   55.9193   24.3409   47.0856 N   0  0  0  0  0  0  0  0  0  0  0  0
   56.2202   25.3756   46.2826 C   0  0  0  0  0  0  0  0  0  0  0  0
   55.3322   26.4022   45.9823 O   0  0  0  0  0  0  0  0  0  0  0  0
 25 26  2  0
 26 27  1  0
 27 28  2  0
 28 33  1  0
 33 34  1  0
 34 35  1  0
 35 36  2  0
 35 37  1  0
 37 38  1  0
 38 39  1  0
 27 29  1  0
 29 30  2  0
 30 31  1  0
 30 32  1  0
 32 24  1  0
 24  1  1  0
  1  2  2  0
  2  3  1  0
  3  4  2  0
  4  7  1  0
  7  8  2  0
  7  9  1  0
  9 10  1  0
 10 11  1  0
 11 12  1  0
 12 13  1  0
 13 14  2  0
 13 18  1  0
 18 19  2  0
 19 20  1  0
 20 21  2  0
 21 22  1  0
 22 23  2  0
 12 15  1  0
 15 16  1  0
  4  5  1  0
  5  6  2  0
 32 26  1  0
  6  1  1  0
 38 33  2  0
 16  9  1  0
 23 18  1  0
  9 17  1  0
M  CHG 1   9   1
M  CHG 1  34  -1
M  CHG 1  37  -1
M  CHG 1  39  -1
M  END
> <UniqueID>
72

> <SMILES>
C=c1c(=Cc2[n-]c(=O)[n-]c2[O-])cc(C)n1Cc1ccc(C(=O)[NH+]2CCN(C(=O)c3ccccc3)CC2)cc1

> <Energy>
157.7823971092982

> <Genealogy>
C=c1c(=Cc2[n-]c(=O)[n-]c2[O-])cc(C)n1Cc1ccc(C(=O)[NH+]2CCN(C(=O)c3ccccc3)CC2)cc1 (protonated)
C=c1c(=Cc2[n-]c(=O)[n-]c2[O-])cc(C)n1Cc1ccc(C(=O)[NH+]2CCN(C(=O)c3ccccc3)CC2)cc1 (3D coordinates assigned)
C=c1c(=Cc2[n-]c(=O)[n-]c2[O-])cc(C)n1Cc1ccc(C(=O)[NH+]2CCN(C(=O)c3ccccc3)CC2)cc1 (nonaromatic ring conformer: 157.7823971092982 kcal/mol)

> <smiles>
C=c1c(=Cc2[nH]c(=O)[nH]c2O)cc(C)n1Cc1ccc(C(=O)N2CCN(C(=O)c3ccccc3)CC2)cc1

> <score_type>
oracle

> <origin>
adg

> <m_score__min__energy>
-16.41

> <m_primary>
energy

> <minimizedAffinity>
-7.66014

> <minimizedRMSD>
1.01339

> <CNNscore>
0.1854739338

> <CNNaffinity>
6.6621155739

> <CNN_VS>
1.2356487513

> <CNNaffinity_variance>
0.1304315776

$$$$
80:0


 34 37  0  0  0  0  0  0  0  0999 V2000
   59.4238   26.2349   46.4106 C   0  0  0  0  0  0  0  0  0  0  0  0
   60.3175   26.3592   47.2935 O   0  0  0  0  0  0  0  0  0  0  0  0
   58.9825   27.3914   45.6703 N   0  0  0  0  0  0  0  0  0  0  0  0
   59.9149   28.5122   45.4528 C   0  0  0  0  0  0  0  0  0  0  0  0
   59.1797   29.8567   45.3788 C   0  0  0  0  0  0  0  0  0  0  0  0
   58.0598   29.8003   44.4249 N   0  0  0  0  0  0  0  0  0  0  0  0
   57.6036   30.9777   43.7230 C   0  0  0  0  0  0  0  0  0  0  0  0
   56.8736   30.8465   42.7014 O   0  0  0  0  0  0  0  0  0  0  0  0
   57.3655   28.5253   44.1912 C   0  0  0  0  0  0  0  0  0  0  0  0
   57.5519   27.5710   45.3758 C   0  0  0  0  0  0  0  0  0  0  0  0
   55.7409   23.0487   46.9061 C   0  0  0  0  0  0  0  0  0  0  0  0
   57.0000   23.3027   46.4599 C   0  0  0  0  0  0  0  0  0  0  0  0
   57.5932   24.5663   46.6978 C   0  0  0  0  0  0  0  0  0  0  0  0
   58.8453   24.8946   46.1733 C   0  0  0  0  0  0  0  0  0  0  0  0
   59.5378   23.9356   45.4354 C   0  0  0  0  0  0  0  0  0  0  0  0
   58.9855   22.7159   45.2202 N   0  0  0  0  0  0  0  0  0  0  0  0
   57.7575   22.3590   45.6938 C   0  0  0  0  0  0  0  0  0  0  0  0
   57.3513   21.1064   45.4314 C   0  0  0  0  0  0  0  0  0  0  0  0
   54.7737   25.8265   45.9097 O   0  0  0  0  0  0  0  0  0  0  0  0
   54.0954   24.6238   45.7390 C   0  0  0  0  0  0  0  0  0  0  0  0
   52.8990   24.5285   45.1355 N   0  0  0  0  0  0  0  0  0  0  0  0
   52.6213   23.2088   45.2252 C   0  0  0  0  0  0  0  0  0  0  0  0
   51.5655   22.7040   44.7592 O   0  0  0  0  0  0  0  0  0  0  0  0
   53.5646   22.4713   45.8501 N   0  0  0  0  0  0  0  0  0  0  0  0
   54.5093   23.3772   46.1619 C   0  0  0  0  0  0  0  0  0  0  0  0
   54.4042   26.6233   45.5831 H   0  0  0  0  0  0  0  0  0  0  0  0
   57.9549   32.3762   44.1684 C   0  0  0  0  0  0  0  0  0  0  0  0
   57.3447   32.7114   45.5380 C   0  0  0  0  0  0  0  0  0  0  0  0
   58.3793   33.2245   46.5061 C   0  0  0  0  0  0  0  0  0  0  0  0
   58.5116   32.6342   47.7745 C   0  0  0  0  0  0  0  0  0  0  0  0
   59.5192   33.0611   48.6479 C   0  0  0  0  0  0  0  0  0  0  0  0
   60.4038   34.0692   48.2561 C   0  0  0  0  0  0  0  0  0  0  0  0
   60.2805   34.6575   46.9949 C   0  0  0  0  0  0  0  0  0  0  0  0
   59.2720   34.2396   46.1205 C   0  0  0  0  0  0  0  0  0  0  0  0
 19 20  1  0
 20 21  1  0
 21 22  1  0
 22 23  2  0
 22 24  1  0
 24 25  1  0
 25 11  1  0
 11 12  2  0
 12 13  1  0
 13 14  2  0
 14  1  1  0
  1  2  2  0
  1  3  1  0
  3  4  1  0
  4  5  1  0
  5  6  1  0
  6  7  1  0
  7  8  2  0
  7 27  1  0
 27 28  1  0
 28 29  1  0
 29 30  2  0
 30 31  1  0
 31 32  2  0
 32 33  1  0
 33 34  2  0
  6  9  1  0
  9 10  1  0
 14 15  1  0
 15 16  2  0
 16 17  1  0
 17 18  2  0
 25 20  2  0
 17 12  1  0
 10  3  1  0
 34 29  1  0
 19 26  1  0
M  CHG 1  21  -1
M  CHG 1  24  -1
M  END
> <UniqueID>
74

> <SMILES>
C=c1ncc(C(=O)N2CCN(C(=O)CCc3ccccc3)CC2)c/c1=C\c1[n-]c(=O)[n-]c1O

> <Energy>
108.23869126920718

> <Genealogy>
C=c1ncc(C(=O)N2CCN(C(=O)CCc3ccccc3)CC2)cc1=Cc1[n-]c(=O)[n-]c1O (protonated)
C=c1ncc(C(=O)N2CCN(C(=O)CCc3ccccc3)CC2)c/c1=C\c1[n-]c(=O)[n-]c1O (cis-trans isomerization)
C=c1ncc(C(=O)N2CCN(C(=O)CCc3ccccc3)CC2)c/c1=C\c1[n-]c(=O)[n-]c1O (3D coordinates assigned)
C=c1ncc(C(=O)N2CCN(C(=O)CCc3ccccc3)CC2)c/c1=C\c1[n-]c(=O)[n-]c1O (nonaromatic ring conformer: 108.23869126920718 kcal/mol)

> <smiles>
C=c1ncc(C(=O)N2CCN(C(=O)CCc3ccccc3)CC2)cc1=Cc1[nH]c(=O)[nH]c1O

> <score_type>
oracle

> <origin>
adg

> <m_score__min__energy>
-14.609999999999999

> <m_primary>
energy

> <minimizedAffinity>
-8.28655

> <minimizedRMSD>
0.81330

> <CNNscore>
0.2816104293

> <CNNaffinity>
6.8411331177

> <CNN_VS>
1.9265344143

> <CNNaffinity_variance>
0.0451249927

$$$$
86:0


 37 40  0  0  0  0  0  0  0  0999 V2000
   61.4983   32.6311   50.2235 N   0  0  0  0  0  0  0  0  0  0  0  0
   61.7964   31.5176   49.2913 C   0  0  0  0  0  0  0  0  0  0  0  0
   61.8230   30.1672   50.0160 C   0  0  0  0  0  0  0  0  0  0  0  0
   60.4460   29.8423   50.6337 C   0  0  0  0  0  0  0  0  0  0  0  0
   59.6873   31.1223   51.0699 C   0  0  0  0  0  0  0  0  0  0  0  0
   60.6508   32.2718   51.3868 C   0  0  0  0  0  0  0  0  0  0  0  0
   61.1080   33.8906   49.5443 C   0  0  0  0  0  0  0  0  0  0  0  0
   58.7485   33.3859   45.9409 C   0  0  0  0  0  0  0  0  0  0  0  0
   60.0487   33.9156   45.8722 C   0  0  0  0  0  0  0  0  0  0  0  0
   60.8188   34.0517   47.0276 C   0  0  0  0  0  0  0  0  0  0  0  0
   60.3015   33.6786   48.2774 C   0  0  0  0  0  0  0  0  0  0  0  0
   59.0245   33.0960   48.3380 C   0  0  0  0  0  0  0  0  0  0  0  0
   58.2578   32.9513   47.1811 C   0  0  0  0  0  0  0  0  0  0  0  0
   57.9172   33.2527   44.7727 N   0  0  0  0  0  0  0  0  0  0  0  0
   57.4658   34.0581   44.4310 H   0  0  0  0  0  0  0  0  0  0  0  0
   57.5878   32.0520   42.1721 C   0  0  0  0  0  0  0  0  0  0  0  0
   57.6638   31.7539   43.9306 S   0  0  0  0  0  0  0  0  0  0  0  0
   58.8192   30.8324   44.2253 O   0  0  0  0  0  0  0  0  0  0  0  0
   56.3929   31.0969   44.4033 O   0  0  0  0  0  0  0  0  0  0  0  0
   59.6575   29.0764   49.6622 N   0  0  0  0  0  0  0  0  0  0  0  0
   60.0511   27.8741   48.9809 C   0  0  0  0  0  0  0  0  0  0  0  0
   60.9050   27.1239   49.5239 O   0  0  0  0  0  0  0  0  0  0  0  0
   59.5238   27.5088   47.6535 C   0  0  0  0  0  0  0  0  0  0  0  0
   59.0933   28.5117   46.7710 C   0  0  0  0  0  0  0  0  0  0  0  0
   58.5117   28.1723   45.5478 C   0  0  0  0  0  0  0  0  0  0  0  0
   58.3573   26.8306   45.1953 C   0  0  0  0  0  0  0  0  0  0  0  0
   58.8163   25.8171   46.0508 C   0  0  0  0  0  0  0  0  0  0  0  0
   59.4244   26.1657   47.2664 C   0  0  0  0  0  0  0  0  0  0  0  0
   58.5675   24.3685   45.7263 C   0  0  0  0  0  0  0  0  0  0  0  0
   57.1097   24.1684   45.3887 C   0  0  0  0  0  0  0  0  0  0  0  0
   56.7265   23.8036   44.0919 C   0  0  0  0  0  0  0  0  0  0  0  0
   55.4222   23.5571   43.8089 N   0  0  0  0  0  0  0  0  0  0  0  0
   54.4704   23.6552   44.7699 C   0  0  0  0  0  0  0  0  0  0  0  0
   53.2670   23.4250   44.4874 O   0  0  0  0  0  0  0  0  0  0  0  0
   54.8154   23.9977   46.0362 N   0  0  0  0  0  0  0  0  0  0  0  0
   56.1074   24.2521   46.3690 C   0  0  0  0  0  0  0  0  0  0  0  0
   56.3925   24.5547   47.5570 O   0  0  0  0  0  0  0  0  0  0  0  0
 16 17  1  0
 17 18  2  0
 17 19  2  0
 17 14  1  0
 14  8  1  0
  8  9  2  0
  9 10  1  0
 10 11  2  0
 11  7  1  0
  7  1  1  0
  1  2  1  0
  2  3  1  0
  3  4  1  0
  4 20  1  0
 20 21  1  0
 21 22  2  0
 21 23  1  0
 23 24  2  0
 24 25  1  0
 25 26  2  0
 26 27  1  0
 27 29  1  0
 29 30  1  0
 30 31  2  0
 31 32  1  0
 32 33  1  0
 33 34  2  0
 33 35  1  0
 35 36  1  0
 36 37  2  0
 27 28  2  0
  4  5  1  0
  5  6  1  0
 11 12  1  0
 12 13  2  0
 13  8  1  0
  6  1  1  0
 28 23  1  0
 36 30  1  0
 14 15  1  0
M  CHG 1  20  -1
M  CHG 1  32  -1
M  CHG 1  35  -1
M  END
> <UniqueID>
80

> <SMILES>
CS(=O)(=O)Nc1ccc(CN2CCC([N-]C(=O)c3cccc(Cc4c[n-]c(=O)[n-]c4=O)c3)CC2)cc1

> <Energy>
76.66577808561678

> <Genealogy>
CS(=O)(=O)Nc1ccc(CN2CCC([N-]C(=O)c3cccc(Cc4c[n-]c(=O)[n-]c4=O)c3)CC2)cc1 (protonated)
CS(=O)(=O)Nc1ccc(CN2CCC([N-]C(=O)c3cccc(Cc4c[n-]c(=O)[n-]c4=O)c3)CC2)cc1 (3D coordinates assigned)
CS(=O)(=O)Nc1ccc(CN2CCC([N-]C(=O)c3cccc(Cc4c[n-]c(=O)[n-]c4=O)c3)CC2)cc1 (nonaromatic ring conformer: 76.66577808561678 kcal/mol)

> <smiles>
CS(=O)(=O)Nc1ccc(CN2CCC(NC(=O)c3cccc(Cc4c[nH]c(=O)[nH]c4=O)c3)CC2)cc1

> <score_type>
oracle

> <origin>
adg

> <m_score__min__energy>
-16.25

> <m_primary>
energy

> <minimizedAffinity>
-8.05241

> <minimizedRMSD>
0.99486

> <CNNscore>
0.2783143222

> <CNNaffinity>
6.9774394035

> <CNN_VS>
1.9419213533

> <CNNaffinity_variance>
0.1499250531

$$$$
88:0


 26 28  0  0  0  0  0  0  0  0999 V2000
   59.8123   28.8811   49.2142 C   0  0  0  0  0  0  0  0  0  0  0  0
   59.6281   29.7235   48.1828 C   0  0  0  0  0  0  0  0  0  0  0  0
   59.7179   29.4042   46.8190 C   0  0  0  0  0  0  0  0  0  0  0  0
   60.1946   28.3101   46.1930 C   0  0  0  0  0  0  0  0  0  0  0  0
   59.1893   30.4840   46.1351 C   0  0  0  0  0  0  0  0  0  0  0  0
   58.8542   31.4367   47.0765 C   0  0  0  0  0  0  0  0  0  0  0  0
   59.1577   30.9929   48.3220 N   0  0  0  0  0  0  0  0  0  0  0  0
   58.9704   31.7314   49.5772 C   0  0  0  0  0  0  0  0  0  0  0  0
   59.4029   27.1383   45.7892 C   0  0  0  0  0  0  0  0  0  0  0  0
   59.4601   25.9498   46.4171 N   0  0  0  0  0  0  0  0  0  0  0  0
   58.4952   25.2272   45.8074 C   0  0  0  0  0  0  0  0  0  0  0  0
   58.2494   24.0318   46.1137 O   0  0  0  0  0  0  0  0  0  0  0  0
   57.8079   25.8889   44.8520 N   0  0  0  0  0  0  0  0  0  0  0  0
   58.3837   27.1023   44.8633 C   0  0  0  0  0  0  0  0  0  0  0  0
   57.9672   28.1605   44.0658 O   0  0  0  0  0  0  0  0  0  0  0  0
   58.2048   32.7216   46.7353 C   0  0  0  0  0  0  0  0  0  0  0  0
   57.1801   32.7201   45.9985 O   0  0  0  0  0  0  0  0  0  0  0  0
   58.6944   33.9567   47.2681 N   0  0  0  0  0  0  0  0  0  0  0  0
   59.9124   34.6128   46.8044 C   0  0  0  0  0  0  0  0  0  0  0  0
   61.1183   34.0135   47.4770 C   0  0  0  0  0  0  0  0  0  0  0  0
   62.1650   33.4749   46.7102 C   0  0  0  0  0  0  0  0  0  0  0  0
   63.2930   32.9375   47.3366 C   0  0  0  0  0  0  0  0  0  0  0  0
   63.3884   32.9384   48.7311 C   0  0  0  0  0  0  0  0  0  0  0  0
   62.3547   33.4784   49.5013 C   0  0  0  0  0  0  0  0  0  0  0  0
   61.2236   34.0173   48.8810 C   0  0  0  0  0  0  0  0  0  0  0  0
   60.2328   34.5422   49.6449 F   0  0  0  0  0  0  0  0  0  0  0  0
  1  2  2  0
  2  3  1  0
  3  4  2  0
  4  9  1  0
  9 10  1  0
 10 11  1  0
 11 12  2  0
 11 13  1  0
 13 14  1  0
 14 15  1  0
  3  5  1  0
  5  6  2  0
  6 16  1  0
 16 17  2  0
 16 18  1  0
 18 19  1  0
 19 20  1  0
 20 21  2  0
 21 22  1  0
 22 23  2  0
 23 24  1  0
 24 25  2  0
 25 26  1  0
  6  7  1  0
  7  8  1  0
  7  2  1  0
 14  9  2  0
 25 20  1  0
M  CHG 1  10  -1
M  CHG 1  13  -1
M  CHG 1  15  -1
M  CHG 1  18  -1
M  END
> <UniqueID>
82

> <SMILES>
C=c1c(=Cc2[n-]c(=O)[n-]c2[O-])cc(C(=O)[N-]Cc2ccccc2F)n1C

> <Energy>
112.49955824720176

> <Genealogy>
C=c1c(=Cc2[n-]c(=O)[n-]c2[O-])cc(C(=O)[N-]Cc2ccccc2F)n1C (protonated)
C=c1c(=Cc2[n-]c(=O)[n-]c2[O-])cc(C(=O)[N-]Cc2ccccc2F)n1C (3D coordinates assigned)
C=c1c(=Cc2[n-]c(=O)[n-]c2[O-])cc(C(=O)[N-]Cc2ccccc2F)n1C (optimized conformer: 112.49955824720176 kcal/mol)

> <smiles>
C=c1c(=Cc2[nH]c(=O)[nH]c2O)cc(C(=O)NCc2ccccc2F)n1C

> <score_type>
oracle

> <origin>
adg

> <m_score__min__energy>
-17.710000000000001

> <m_primary>
energy

> <minimizedAffinity>
-8.24421

> <minimizedRMSD>
1.47583

> <CNNscore>
0.5786876082

> <CNNaffinity>
6.7010073662

> <CNN_VS>
3.8777899742

> <CNNaffinity_variance>
0.1699038148

$$$$
4:0


 27 29  0  0  0  0  0  0  0  0999 V2000
   55.5313   30.2487   53.6193 C   0  0  0  0  0  0  0  0  0  0  0  0
   56.6390   30.2142   54.4823 C   0  0  0  0  0  0  0  0  0  0  0  0
   57.8419   30.8200   54.1075 C   0  0  0  0  0  0  0  0  0  0  0  0
   57.9442   31.4865   52.8797 C   0  0  0  0  0  0  0  0  0  0  0  0
   56.8316   31.5425   52.0279 C   0  0  0  0  0  0  0  0  0  0  0  0
   55.6287   30.9362   52.4040 C   0  0  0  0  0  0  0  0  0  0  0  0
   59.4771   32.2150   52.4071 S   0  0  0  0  0  0  0  0  0  0  0  0
   60.5210   31.8081   53.4100 O   0  0  0  0  0  0  0  0  0  0  0  0
   59.3550   33.7134   52.4226 O   0  0  0  0  0  0  0  0  0  0  0  0
   59.9333   31.6623   50.8110 N   0  0  0  0  0  0  0  0  0  0  0  0
   59.4571   30.2798   50.6082 C   0  0  0  0  0  0  0  0  0  0  0  0
   60.2975   29.4931   49.5852 C   0  0  0  0  0  0  0  0  0  0  0  0
   60.9004   30.3159   48.4231 C   0  0  0  0  0  0  0  0  0  0  0  0
   59.8920   31.1618   47.6295 C   0  0  0  0  0  0  0  0  0  0  0  0
   58.9285   32.0234   48.4849 C   0  0  0  0  0  0  0  0  0  0  0  0
   59.5222   32.6394   49.7725 C   0  0  0  0  0  0  0  0  0  0  0  0
   54.2757   29.6566   53.9839 N   0  0  0  0  0  0  0  0  0  0  0  0
   53.6980   30.4084   56.1000 O   0  0  0  0  0  0  0  0  0  0  0  0
   53.3267   30.1887   54.9164 C   0  0  0  0  0  0  0  0  0  0  0  0
   51.9216   30.5387   54.5084 C   0  0  0  0  0  0  0  0  0  0  0  0
   51.7967   30.5594   53.0162 C   0  0  0  0  0  0  0  0  0  0  0  0
   52.2456   29.3021   51.9889 S   0  0  0  0  0  0  0  0  0  0  0  0
   51.8628   30.1835   50.6096 C   0  0  0  0  0  0  0  0  0  0  0  0
   51.9849   29.7501   49.4343 O   0  0  0  0  0  0  0  0  0  0  0  0
   51.4102   31.4235   50.8928 N   0  0  0  0  0  0  0  0  0  0  0  0
   51.3793   31.6347   52.2347 C   0  0  0  0  0  0  0  0  0  0  0  0
   50.9621   32.8464   52.7712 O   0  0  0  0  0  0  0  0  0  0  0  0
 18 19  2  0
 19 20  1  0
 20 21  1  0
 21 22  1  0
 22 23  1  0
 23 24  2  0
 23 25  1  0
 25 26  1  0
 26 27  1  0
 19 17  1  0
 17  1  1  0
  1  2  2  0
  2  3  1  0
  3  4  2  0
  4  7  1  0
  7  8  2  0
  7  9  2  0
  7 10  1  0
 10 11  1  0
 11 12  1  0
 12 13  1  0
 13 14  1  0
 14 15  1  0
 15 16  1  0
  4  5  1  0
  5  6  2  0
 26 21  2  0
  6  1  1  0
 16 10  1  0
M  CHG 1  17  -1
M  CHG 1  25  -1
M  CHG 1  27  -1
M  END
> <UniqueID>
4

> <SMILES>
O=C(Cc1sc(=O)[n-]c1[O-])[N-]c1ccc(S(=O)(=O)N2CCCCCC2)cc1

> <Energy>
93.22574178747678

> <Genealogy>
O=C(Cc1sc(=O)[n-]c1[O-])[N-]c1ccc(S(=O)(=O)N2CCCCCC2)cc1 (protonated)
O=C(Cc1sc(=O)[n-]c1[O-])[N-]c1ccc(S(=O)(=O)N2CCCCCC2)cc1 (3D coordinates assigned)
O=C(Cc1sc(=O)[n-]c1[O-])[N-]c1ccc(S(=O)(=O)N2CCCCCC2)cc1 (nonaromatic ring conformer: 93.22574178747678 kcal/mol)

> <smiles>
O=C(Cc1sc(=O)[nH]c1O)Nc1ccc(S(=O)(=O)N2CCCCCC2)cc1

> <score_type>
oracle

> <origin>
adg

> <m_score__min__energy>
-14.210000000000001

> <m_primary>
energy

> <minimizedAffinity>
-5.33609

> <minimizedRMSD>
2.16791

> <CNNscore>
0.1397769898

> <CNNaffinity>
5.2697987556

> <CNN_VS>
0.7365965843

> <CNNaffinity_variance>
0.0852531195

$$$$
10:0


 27 29  0  0  0  0  0  0  0  0999 V2000
   58.6614   27.0750   46.4423 C   0  0  0  0  0  0  0  0  0  0  0  0
   60.0611   27.1071   46.3290 C   0  0  0  0  0  0  0  0  0  0  0  0
   60.7055   28.2725   45.9091 C   0  0  0  0  0  0  0  0  0  0  0  0
   59.9630   29.4204   45.6173 C   0  0  0  0  0  0  0  0  0  0  0  0
   58.5659   29.4173   45.7625 C   0  0  0  0  0  0  0  0  0  0  0  0
   57.9235   28.2356   46.1740 C   0  0  0  0  0  0  0  0  0  0  0  0
   57.7722   30.6295   45.4526 C   0  0  0  0  0  0  0  0  0  0  0  0
   56.6689   30.5140   44.8512 O   0  0  0  0  0  0  0  0  0  0  0  0
   58.2482   31.9389   45.8046 N   0  0  0  0  0  0  0  0  0  0  0  0
   57.9759   33.0677   44.9125 C   0  0  0  0  0  0  0  0  0  0  0  0
   59.0206   34.1650   45.1382 C   0  0  0  0  0  0  0  0  0  0  0  0
   59.1031   34.5075   46.5106 O   0  0  0  0  0  0  0  0  0  0  0  0
   59.5742   33.4002   47.2550 C   0  0  0  0  0  0  0  0  0  0  0  0
   58.5699   32.2449   47.2028 C   0  0  0  0  0  0  0  0  0  0  0  0
   57.9659   25.8982   46.8796 N   0  0  0  0  0  0  0  0  0  0  0  0
   57.8304   24.6727   46.1470 C   0  0  0  0  0  0  0  0  0  0  0  0
   58.8328   24.2254   45.5287 O   0  0  0  0  0  0  0  0  0  0  0  0
   55.4159   20.3188   46.3681 C   0  0  0  0  0  0  0  0  0  0  0  0
   55.3991   21.7844   46.2282 N   0  0  0  0  0  0  0  0  0  0  0  0
   54.2056   22.4542   46.1400 C   0  0  0  0  0  0  0  0  0  0  0  0
   53.1111   21.8289   46.1512 O   0  0  0  0  0  0  0  0  0  0  0  0
   54.1857   23.8065   46.0439 N   0  0  0  0  0  0  0  0  0  0  0  0
   55.3243   24.5370   46.0414 C   0  0  0  0  0  0  0  0  0  0  0  0
   55.2393   25.9229   45.9698 O   0  0  0  0  0  0  0  0  0  0  0  0
   56.5661   23.8948   46.1418 C   0  0  0  0  0  0  0  0  0  0  0  0
   56.5752   22.4928   46.2564 C   0  0  0  0  0  0  0  0  0  0  0  0
   57.6774   21.8850   46.3745 O   0  0  0  0  0  0  0  0  0  0  0  0
 18 19  1  0
 19 20  1  0
 20 21  2  0
 20 22  1  0
 22 23  1  0
 23 24  1  0
 23 25  2  0
 25 16  1  0
 16 17  2  0
 16 15  1  0
 15  1  1  0
  1  2  2  0
  2  3  1  0
  3  4  2  0
  4  5  1  0
  5  7  1  0
  7  8  2  0
  7  9  1  0
  9 10  1  0
 10 11  1  0
 11 12  1  0
 12 13  1  0
 13 14  1  0
  5  6  2  0
 25 26  1  0
 26 27  2  0
 26 19  1  0
  6  1  1  0
 14  9  1  0
M  CHG 1  15  -1
M  CHG 1  22  -1
M  CHG 1  24  -1
M  END
> <UniqueID>
10

> <SMILES>
Cn1c(=O)[n-]c([O-])c(C(=O)[N-]c2cccc(C(=O)N3CCOCC3)c2)c1=O

> <Energy>
63.26683668520617

> <Genealogy>
Cn1c(=O)[n-]c([O-])c(C(=O)[N-]c2cccc(C(=O)N3CCOCC3)c2)c1=O (protonated)
Cn1c(=O)[n-]c([O-])c(C(=O)[N-]c2cccc(C(=O)N3CCOCC3)c2)c1=O (3D coordinates assigned)
Cn1c(=O)[n-]c([O-])c(C(=O)[N-]c2cccc(C(=O)N3CCOCC3)c2)c1=O (nonaromatic ring conformer: 63.26683668520617 kcal/mol)

> <smiles>
Cn1c(=O)[nH]c(O)c(C(=O)Nc2cccc(C(=O)N3CCOCC3)c2)c1=O

> <score_type>
oracle

> <origin>
adg

> <m_score__min__energy>
-15.369999999999999

> <m_primary>
energy

> <minimizedAffinity>
-8.33572

> <minimizedRMSD>
0.85321

> <CNNscore>
0.3609112799

> <CNNaffinity>
5.6034088135

> <CNN_VS>
2.0223333836

> <CNNaffinity_variance>
0.0279938038

$$$$
14:0


 30 33  0  0  0  0  0  0  0  0999 V2000
   59.2479   28.5650   48.1089 C   0  0  0  0  0  0  0  0  0  0  0  0
   58.9970   28.8370   46.8190 C   0  0  0  0  0  0  0  0  0  0  0  0
   59.0158   27.9189   45.7640 C   0  0  0  0  0  0  0  0  0  0  0  0
   59.3378   26.6121   45.8225 C   0  0  0  0  0  0  0  0  0  0  0  0
   58.6880   28.6340   44.6210 C   0  0  0  0  0  0  0  0  0  0  0  0
   58.4810   29.9401   45.0161 C   0  0  0  0  0  0  0  0  0  0  0  0
   58.0869   31.0502   44.0874 C   0  0  0  0  0  0  0  0  0  0  0  0
   58.6667   30.0682   46.3507 N   0  0  0  0  0  0  0  0  0  0  0  0
   58.3478   25.5196   45.8501 C   0  0  0  0  0  0  0  0  0  0  0  0
   58.6726   24.2168   45.8782 N   0  0  0  0  0  0  0  0  0  0  0  0
   57.4946   23.5723   45.9890 C   0  0  0  0  0  0  0  0  0  0  0  0
   57.4014   22.3173   46.0332 O   0  0  0  0  0  0  0  0  0  0  0  0
   56.4233   24.3903   46.0623 N   0  0  0  0  0  0  0  0  0  0  0  0
   56.9770   25.6162   45.9865 C   0  0  0  0  0  0  0  0  0  0  0  0
   56.2467   26.7927   46.0887 O   0  0  0  0  0  0  0  0  0  0  0  0
   59.5725   23.8204   45.8288 H   0  0  0  0  0  0  0  0  0  0  0  0
   58.5586   31.3148   47.1275 C   0  0  0  0  0  0  0  0  0  0  0  0
   59.7584   31.4949   48.0240 C   0  0  0  0  0  0  0  0  0  0  0  0
   61.0527   31.5433   47.4824 C   0  0  0  0  0  0  0  0  0  0  0  0
   62.1614   31.7198   48.3135 C   0  0  0  0  0  0  0  0  0  0  0  0
   61.9963   31.8693   49.7010 C   0  0  0  0  0  0  0  0  0  0  0  0
   60.7002   31.8259   50.2402 C   0  0  0  0  0  0  0  0  0  0  0  0
   59.5916   31.6495   49.4091 C   0  0  0  0  0  0  0  0  0  0  0  0
   63.1409   32.0360   50.5605 N   0  0  0  0  0  0  0  0  0  0  0  0
   63.5961   30.9167   51.4000 C   0  0  0  0  0  0  0  0  0  0  0  0
   65.0383   31.1278   51.8890 C   0  0  0  0  0  0  0  0  0  0  0  0
   65.9019   31.7134   50.7546 C   0  0  0  0  0  0  0  0  0  0  0  0
   67.3678   31.8198   51.1910 C   0  0  0  0  0  0  0  0  0  0  0  0
   65.3625   33.0850   50.2690 C   0  0  0  0  0  0  0  0  0  0  0  0
   63.8768   33.3070   50.5995 C   0  0  0  0  0  0  0  0  0  0  0  0
  1  2  2  0
  2  3  1  0
  3  4  2  0
  4  9  1  0
  9 10  1  0
 10 11  1  0
 11 12  2  0
 11 13  1  0
 13 14  1  0
 14 15  1  0
  3  5  1  0
  5  6  2  0
  6  7  1  0
  6  8  1  0
  8 17  1  0
 17 18  1  0
 18 19  2  0
 19 20  1  0
 20 21  2  0
 21 24  1  0
 24 25  1  0
 25 26  1  0
 26 27  1  0
 27 28  1  0
 27 29  1  0
 29 30  1  0
 21 22  1  0
 22 23  2  0
  8  2  1  0
 23 18  1  0
 14  9  2  0
 30 24  1  0
 10 16  1  0
M  CHG 1  13  -1
M  CHG 1  15  -1
M  END
> <UniqueID>
13

> <SMILES>
C=c1c(=Cc2[nH]c(=O)[n-]c2[O-])cc(C)n1Cc1ccc(N2CCC(C)CC2)cc1

> <Energy>
126.88992085715302

> <Genealogy>
C=c1c(=Cc2[nH]c(=O)[n-]c2[O-])cc(C)n1Cc1ccc(N2CCC(C)CC2)cc1 (protonated)
C=c1c(=Cc2[nH]c(=O)[n-]c2[O-])cc(C)n1Cc1ccc(N2CCC(C)CC2)cc1 (3D coordinates assigned)
C=c1c(=Cc2[nH]c(=O)[n-]c2[O-])cc(C)n1Cc1ccc(N2CCC(C)CC2)cc1 (nonaromatic ring conformer: 126.88992085715302 kcal/mol)

> <smiles>
C=c1c(=Cc2[nH]c(=O)[nH]c2O)cc(C)n1Cc1ccc(N2CCC(C)CC2)cc1

> <score_type>
oracle

> <origin>
adg

> <m_score__min__energy>
-14.289999999999999

> <m_primary>
energy

> <minimizedAffinity>
-7.79751

> <minimizedRMSD>
2.12527

> <CNNscore>
0.1685149819

> <CNNaffinity>
6.5721201897

> <CNN_VS>
1.1075006723

> <CNNaffinity_variance>
0.1635764688

$$$$
16:0


 32 35  0  0  0  0  0  0  0  0999 V2000
   55.2479   28.1381   53.5738 C   0  0  0  0  0  0  0  0  0  0  0  0
   55.7377   29.3724   53.3715 C   0  0  0  0  0  0  0  0  0  0  0  0
   55.1850   30.3639   52.5463 C   0  0  0  0  0  0  0  0  0  0  0  0
   53.9821   30.4480   51.9452 C   0  0  0  0  0  0  0  0  0  0  0  0
   56.1413   31.3561   52.4438 C   0  0  0  0  0  0  0  0  0  0  0  0
   57.2054   30.9836   53.2409 C   0  0  0  0  0  0  0  0  0  0  0  0
   56.9527   29.7843   53.8295 N   0  0  0  0  0  0  0  0  0  0  0  0
   52.7067   30.7444   52.6157 C   0  0  0  0  0  0  0  0  0  0  0  0
   52.4352   30.4704   53.9056 N   0  0  0  0  0  0  0  0  0  0  0  0
   51.2264   31.0416   54.0992 C   0  0  0  0  0  0  0  0  0  0  0  0
   50.6203   30.9883   55.1999 O   0  0  0  0  0  0  0  0  0  0  0  0
   50.7254   31.6841   53.0226 N   0  0  0  0  0  0  0  0  0  0  0  0
   51.6817   31.4997   52.0986 C   0  0  0  0  0  0  0  0  0  0  0  0
   51.6210   32.0136   50.8094 O   0  0  0  0  0  0  0  0  0  0  0  0
   58.4259   31.8092   53.3986 C   0  0  0  0  0  0  0  0  0  0  0  0
   58.5941   32.4523   54.4702 O   0  0  0  0  0  0  0  0  0  0  0  0
   59.3542   31.9594   52.3190 N   0  0  0  0  0  0  0  0  0  0  0  0
   59.3590   31.2328   51.0830 C   0  0  0  0  0  0  0  0  0  0  0  0
   59.7349   29.8798   51.0143 C   0  0  0  0  0  0  0  0  0  0  0  0
   59.7021   29.2005   49.7919 C   0  0  0  0  0  0  0  0  0  0  0  0
   59.2801   29.8557   48.6243 C   0  0  0  0  0  0  0  0  0  0  0  0
   58.8805   31.2004   48.7024 C   0  0  0  0  0  0  0  0  0  0  0  0
   58.9124   31.8784   49.9240 C   0  0  0  0  0  0  0  0  0  0  0  0
   59.2386   29.1459   47.3719 N   0  0  0  0  0  0  0  0  0  0  0  0
   59.5004   29.8575   46.1183 C   0  0  0  0  0  0  0  0  0  0  0  0
   60.2219   28.9336   45.1289 C   0  0  0  0  0  0  0  0  0  0  0  0
   59.5443   27.6294   44.9725 N   0  0  0  0  0  0  0  0  0  0  0  0
   58.3041   27.7246   44.1849 C   0  0  0  0  0  0  0  0  0  0  0  0
   59.3435   26.9497   46.2689 C   0  0  0  0  0  0  0  0  0  0  0  0
   58.6056   27.8259   47.2893 C   0  0  0  0  0  0  0  0  0  0  0  0
   57.8273   29.0603   54.7670 C   0  0  0  0  0  0  0  0  0  0  0  0
   58.7972   28.1546   54.0136 C   0  0  0  0  0  0  0  0  0  0  0  0
  1  2  2  0
  2  3  1  0
  3  4  2  0
  4  8  1  0
  8  9  1  0
  9 10  1  0
 10 11  2  0
 10 12  1  0
 12 13  1  0
 13 14  1  0
  3  5  1  0
  5  6  2  0
  6 15  1  0
 15 16  2  0
 15 17  1  0
 17 18  1  0
 18 19  2  0
 19 20  1  0
 20 21  2  0
 21 24  1  0
 24 25  1  0
 25 26  1  0
 26 27  1  0
 27 28  1  0
 27 29  1  0
 29 30  1  0
 21 22  1  0
 22 23  2  0
  6  7  1  0
  7 31  1  0
 31 32  1  0
  7  2  1  0
 13  8  2  0
 23 18  1  0
 30 24  1  0
M  CHG 1   9  -1
M  CHG 1  12  -1
M  CHG 1  14  -1
M  CHG 1  17  -1
M  END
> <UniqueID>
15

> <SMILES>
C=c1c(=Cc2[n-]c(=O)[n-]c2[O-])cc(C(=O)[N-]c2ccc(N3CCN(C)CC3)cc2)n1CC

> <Energy>
138.03243849248014

> <Genealogy>
C=c1c(=Cc2[n-]c(=O)[n-]c2[O-])cc(C(=O)[N-]c2ccc(N3CCN(C)CC3)cc2)n1CC (protonated)
C=c1c(=Cc2[n-]c(=O)[n-]c2[O-])cc(C(=O)[N-]c2ccc(N3CCN(C)CC3)cc2)n1CC (3D coordinates assigned)
C=c1c(=Cc2[n-]c(=O)[n-]c2[O-])cc(C(=O)[N-]c2ccc(N3CCN(C)CC3)cc2)n1CC (nonaromatic ring conformer: 138.03243849248014 kcal/mol)

> <smiles>
C=c1c(=Cc2[nH]c(=O)[nH]c2O)cc(C(=O)Nc2ccc(N3CCN(C)CC3)cc2)n1CC

> <score_type>
oracle

> <origin>
adg

> <m_score__min__energy>
-18.420000000000002

> <m_primary>
energy

> <minimizedAffinity>
-6.74210

> <minimizedRMSD>
0.98076

> <CNNscore>
0.1501607001

> <CNNaffinity>
5.4938349724

> <CNN_VS>
0.8249580860

> <CNNaffinity_variance>
0.4117466509

$$$$
35:0


 29 32  0  0  0  0  0  0  0  0999 V2000
   54.4457   27.8305   53.6308 C   0  0  0  0  0  0  0  0  0  0  0  0
   55.3134   28.8450   53.4603 C   0  0  0  0  0  0  0  0  0  0  0  0
   54.9255   30.1369   52.9738 C   0  0  0  0  0  0  0  0  0  0  0  0
   53.6592   30.6231   52.9418 C   0  0  0  0  0  0  0  0  0  0  0  0
   55.9446   30.9853   52.4984 C   0  0  0  0  0  0  0  0  0  0  0  0
   57.2918   30.6414   52.6289 C   0  0  0  0  0  0  0  0  0  0  0  0
   57.6183   29.4396   53.2575 C   0  0  0  0  0  0  0  0  0  0  0  0
   56.6429   28.5796   53.6493 N   0  0  0  0  0  0  0  0  0  0  0  0
   56.9012   27.7352   54.0846 H   0  0  0  0  0  0  0  0  0  0  0  0
   58.3483   31.5560   52.1511 C   0  0  0  0  0  0  0  0  0  0  0  0
   58.4895   32.6725   52.7226 O   0  0  0  0  0  0  0  0  0  0  0  0
   59.1874   31.2159   51.0280 N   0  0  0  0  0  0  0  0  0  0  0  0
   60.5288   31.7965   50.8922 C   0  0  0  0  0  0  0  0  0  0  0  0
   60.6512   32.5760   49.5673 C   0  0  0  0  0  0  0  0  0  0  0  0
   59.7385   32.0748   48.5112 N   0  0  0  0  0  0  0  0  0  0  0  0
   59.4511   30.6293   48.6421 C   0  0  0  0  0  0  0  0  0  0  0  0
   58.6555   30.3951   49.9282 C   0  0  0  0  0  0  0  0  0  0  0  0
   60.1586   32.5213   47.1549 C   0  0  0  0  0  0  0  0  0  0  0  0
   60.6813   33.9636   47.1788 C   0  0  0  0  0  0  0  0  0  0  0  0
   59.7377   34.8031   46.3239 C   0  0  0  0  0  0  0  0  0  0  0  0
   58.5670   33.9137   45.9324 C   0  0  0  0  0  0  0  0  0  0  0  0
   59.0419   32.4825   46.1031 C   0  0  0  0  0  0  0  0  0  0  0  0
   52.7414   30.6031   51.7852 C   0  0  0  0  0  0  0  0  0  0  0  0
   52.8824   29.7625   50.7435 N   0  0  0  0  0  0  0  0  0  0  0  0
   51.9107   30.1560   49.8911 C   0  0  0  0  0  0  0  0  0  0  0  0
   51.7106   29.5890   48.7851 O   0  0  0  0  0  0  0  0  0  0  0  0
   51.1793   31.2126   50.3101 N   0  0  0  0  0  0  0  0  0  0  0  0
   51.7258   31.4925   51.5037 C   0  0  0  0  0  0  0  0  0  0  0  0
   51.3263   32.5589   52.3013 O   0  0  0  0  0  0  0  0  0  0  0  0
  1  2  2  0
  2  3  1  0
  3  4  2  0
  4 23  1  0
 23 24  1  0
 24 25  1  0
 25 26  2  0
 25 27  1  0
 27 28  1  0
 28 29  1  0
  3  5  1  0
  5  6  2  0
  6 10  1  0
 10 11  2  0
 10 12  1  0
 12 13  1  0
 13 14  1  0
 14 15  1  0
 15 18  1  0
 18 19  1  0
 19 20  1  0
 20 21  1  0
 21 22  1  0
 15 16  1  0
 16 17  1  0
  6  7  1  0
  7  8  2  0
  8  2  1  0
 28 23  2  0
 17 12  1  0
 22 18  1  0
  8  9  1  0
M  CHG 1   8   1
M  CHG 1  24  -1
M  CHG 1  27  -1
M  CHG 1  29  -1
M  END
> <UniqueID>
33

> <SMILES>
C=c1[nH+]cc(C(=O)N2CCN(C3CCCC3)CC2)c/c1=C/c1[n-]c(=O)[n-]c1[O-]

> <Energy>
120.55097885493511

> <Genealogy>
C=c1[nH+]cc(C(=O)N2CCN(C3CCCC3)CC2)cc1=Cc1[n-]c(=O)[n-]c1[O-] (protonated)
C=c1[nH+]cc(C(=O)N2CCN(C3CCCC3)CC2)c/c1=C/c1[n-]c(=O)[n-]c1[O-] (cis-trans isomerization)
C=c1[nH+]cc(C(=O)N2CCN(C3CCCC3)CC2)c/c1=C/c1[n-]c(=O)[n-]c1[O-] (3D coordinates assigned)
C=c1[nH+]cc(C(=O)N2CCN(C3CCCC3)CC2)c/c1=C/c1[n-]c(=O)[n-]c1[O-] (nonaromatic ring conformer: 120.55097885493511 kcal/mol)

> <smiles>
C=c1ncc(C(=O)N2CCN(C3CCCC3)CC2)cc1=Cc1[nH]c(=O)[nH]c1O

> <score_type>
oracle

> <origin>
adg

> <m_score__min__energy>
-17.260000000000002

> <m_primary>
energy

> <minimizedAffinity>
-7.17083

> <minimizedRMSD>
0.87835

> <CNNscore>
0.1062797010

> <CNNaffinity>
5.6585564613

> <CNN_VS>
0.6013897061

> <CNNaffinity_variance>
0.0668563321

$$$$
37:0


 28 30  0  0  0  0  0  0  0  0999 V2000
   58.1282   27.2822   43.3419 C   0  0  0  0  0  0  0  0  0  0  0  0
   58.2513   27.3936   44.6751 C   0  0  0  0  0  0  0  0  0  0  0  0
   58.3193   26.3423   45.6068 C   0  0  0  0  0  0  0  0  0  0  0  0
   58.1168   25.0166   45.4671 C   0  0  0  0  0  0  0  0  0  0  0  0
   58.6412   26.9218   46.8215 C   0  0  0  0  0  0  0  0  0  0  0  0
   58.7071   28.2825   46.6131 C   0  0  0  0  0  0  0  0  0  0  0  0
   59.0053   29.2898   47.6831 C   0  0  0  0  0  0  0  0  0  0  0  0
   58.4506   28.5779   45.3170 N   0  0  0  0  0  0  0  0  0  0  0  0
   57.0888   24.2248   46.1580 C   0  0  0  0  0  0  0  0  0  0  0  0
   57.3360   23.0404   46.7413 N   0  0  0  0  0  0  0  0  0  0  0  0
   56.1598   22.7282   47.3281 C   0  0  0  0  0  0  0  0  0  0  0  0
   55.9857   21.6627   47.9711 O   0  0  0  0  0  0  0  0  0  0  0  0
   55.1877   23.6544   47.1759 N   0  0  0  0  0  0  0  0  0  0  0  0
   55.7934   24.6050   46.4463 C   0  0  0  0  0  0  0  0  0  0  0  0
   55.1739   25.7981   46.0814 O   0  0  0  0  0  0  0  0  0  0  0  0
   54.2847   25.9591   46.3291 H   0  0  0  0  0  0  0  0  0  0  0  0
   58.4981   29.9258   44.7292 C   0  0  0  0  0  0  0  0  0  0  0  0
   57.1545   30.5778   44.8135 C   0  0  0  0  0  0  0  0  0  0  0  0
   56.1188   29.9182   44.5302 O   0  0  0  0  0  0  0  0  0  0  0  0
   57.0508   31.9403   45.2384 N   0  0  0  0  0  0  0  0  0  0  0  0
   58.0262   32.9688   44.8973 C   0  0  0  0  0  0  0  0  0  0  0  0
   58.8535   33.3231   46.1027 C   0  0  0  0  0  0  0  0  0  0  0  0
   60.0126   34.1061   45.9702 C   0  0  0  0  0  0  0  0  0  0  0  0
   60.7876   34.4099   47.0928 C   0  0  0  0  0  0  0  0  0  0  0  0
   60.4158   33.9319   48.3533 C   0  0  0  0  0  0  0  0  0  0  0  0
   61.1693   34.2264   49.4406 F   0  0  0  0  0  0  0  0  0  0  0  0
   59.2664   33.1476   48.4911 C   0  0  0  0  0  0  0  0  0  0  0  0
   58.4884   32.8405   47.3716 C   0  0  0  0  0  0  0  0  0  0  0  0
  1  2  2  0
  2  3  1  0
  3  4  2  0
  4  9  1  0
  9 10  1  0
 10 11  1  0
 11 12  2  0
 11 13  1  0
 13 14  1  0
 14 15  1  0
  3  5  1  0
  5  6  2  0
  6  7  1  0
  6  8  1  0
  8 17  1  0
 17 18  1  0
 18 19  2  0
 18 20  1  0
 20 21  1  0
 21 22  1  0
 22 23  2  0
 23 24  1  0
 24 25  2  0
 25 26  1  0
 25 27  1  0
 27 28  2  0
  8  2  1  0
 28 22  1  0
 14  9  2  0
 15 16  1  0
M  CHG 1  10  -1
M  CHG 1  13  -1
M  CHG 1  20  -1
M  END
> <UniqueID>
35

> <SMILES>
C=c1c(=Cc2[n-]c(=O)[n-]c2O)cc(C)n1CC(=O)[N-]Cc1ccc(F)cc1

> <Energy>
110.13229515199843

> <Genealogy>
C=c1c(=Cc2[n-]c(=O)[n-]c2O)cc(C)n1CC(=O)[N-]Cc1ccc(F)cc1 (protonated)
C=c1c(=Cc2[n-]c(=O)[n-]c2O)cc(C)n1CC(=O)[N-]Cc1ccc(F)cc1 (3D coordinates assigned)
C=c1c(=Cc2[n-]c(=O)[n-]c2O)cc(C)n1CC(=O)[N-]Cc1ccc(F)cc1 (optimized conformer: 110.13229515199843 kcal/mol)

> <smiles>
C=c1c(=Cc2[nH]c(=O)[nH]c2O)cc(C)n1CC(=O)NCc1ccc(F)cc1

> <score_type>
oracle

> <origin>
adg

> <m_score__min__energy>
-14.09

> <m_primary>
energy

> <minimizedAffinity>
-8.78412

> <minimizedRMSD>
0.68239

> <CNNscore>
0.5677931905

> <CNNaffinity>
6.8335394859

> <CNN_VS>
3.8800370693

> <CNNaffinity_variance>
0.1413439065

$$$$
58:0


 32 36  0  0  0  0  0  0  0  0999 V2000
   60.7156   31.6577   49.3471 C   0  0  0  0  0  0  0  0  0  0  0  0
   62.0511   31.8202   49.7434 C   0  0  0  0  0  0  0  0  0  0  0  0
   62.3714   32.5239   50.9186 C   0  0  0  0  0  0  0  0  0  0  0  0
   61.3272   33.0567   51.6964 C   0  0  0  0  0  0  0  0  0  0  0  0
   59.9966   32.8931   51.3053 C   0  0  0  0  0  0  0  0  0  0  0  0
   59.6875   32.1953   50.1362 C   0  0  0  0  0  0  0  0  0  0  0  0
   58.3906   32.0284   49.7779 F   0  0  0  0  0  0  0  0  0  0  0  0
   60.6508   28.7034   48.9807 C   0  0  0  0  0  0  0  0  0  0  0  0
   60.3856   29.5760   47.9952 C   0  0  0  0  0  0  0  0  0  0  0  0
   60.0271   29.2604   46.6797 C   0  0  0  0  0  0  0  0  0  0  0  0
   59.8610   28.0326   46.1510 C   0  0  0  0  0  0  0  0  0  0  0  0
   59.8083   30.4727   46.0346 C   0  0  0  0  0  0  0  0  0  0  0  0
   60.0587   31.4640   46.9620 C   0  0  0  0  0  0  0  0  0  0  0  0
   59.9046   32.9314   46.7004 C   0  0  0  0  0  0  0  0  0  0  0  0
   60.4053   30.9227   48.1515 N   0  0  0  0  0  0  0  0  0  0  0  0
   58.6702   27.1923   46.3773 C   0  0  0  0  0  0  0  0  0  0  0  0
   58.7088   26.0249   47.0417 N   0  0  0  0  0  0  0  0  0  0  0  0
   57.4444   25.5620   46.9387 C   0  0  0  0  0  0  0  0  0  0  0  0
   57.0741   24.4763   47.4562 O   0  0  0  0  0  0  0  0  0  0  0  0
   56.6096   26.3499   46.2273 N   0  0  0  0  0  0  0  0  0  0  0  0
   57.4028   27.3718   45.8679 C   0  0  0  0  0  0  0  0  0  0  0  0
   56.9857   28.4164   45.0538 O   0  0  0  0  0  0  0  0  0  0  0  0
   63.7467   32.6862   51.3279 N   0  0  0  0  0  0  0  0  0  0  0  0
   64.6099   31.5163   51.5325 C   0  0  0  0  0  0  0  0  0  0  0  0
   66.0530   31.8559   51.1352 C   0  0  0  0  0  0  0  0  0  0  0  0
   66.5817   33.0710   51.8224 N   0  0  0  0  0  0  0  0  0  0  0  0
   65.5524   33.9085   52.4948 C   0  0  0  0  0  0  0  0  0  0  0  0
   64.2528   34.0181   51.6855 C   0  0  0  0  0  0  0  0  0  0  0  0
   67.1043   32.7472   52.6362 H   0  0  0  0  0  0  0  0  0  0  0  0
   67.6091   33.7802   50.9965 C   0  0  0  0  0  0  0  0  0  0  0  0
   69.0752   33.8029   51.4488 C   0  0  0  0  0  0  0  0  0  0  0  0
   68.2202   35.0467   51.5989 C   0  0  0  0  0  0  0  0  0  0  0  0
  8  9  2  0
  9 10  1  0
 10 11  2  0
 11 16  1  0
 16 17  1  0
 17 18  1  0
 18 19  2  0
 18 20  1  0
 20 21  1  0
 21 22  1  0
 10 12  1  0
 12 13  2  0
 13 14  1  0
 13 15  1  0
 15  1  1  0
  1  2  2  0
  2  3  1  0
  3 23  1  0
 23 24  1  0
 24 25  1  0
 25 26  1  0
 26 30  1  0
 30 31  1  0
 31 32  1  0
 26 27  1  0
 27 28  1  0
  3  4  2  0
  4  5  1  0
  5  6  2  0
  6  7  1  0
 15  9  1  0
  6  1  1  0
 21 16  2  0
 28 23  1  0
 32 30  1  0
 26 29  1  0
M  CHG 1  17  -1
M  CHG 1  20  -1
M  CHG 1  22  -1
M  CHG 1  26   1
M  END
> <UniqueID>
55

> <SMILES>
C=c1/c(=C/c2[n-]c(=O)[n-]c2[O-])cc(C)n1-c1cc(N2CC[NH+](C3CC3)CC2)ccc1F

> <Energy>
418.82245731435717

> <Genealogy>
C=c1c(=Cc2[n-]c(=O)[n-]c2[O-])cc(C)n1-c1cc(N2CC[NH+](C3CC3)CC2)ccc1F (protonated)
C=c1/c(=C/c2[n-]c(=O)[n-]c2[O-])cc(C)n1-c1cc(N2CC[NH+](C3CC3)CC2)ccc1F (cis-trans isomerization)
C=c1/c(=C/c2[n-]c(=O)[n-]c2[O-])cc(C)n1-c1cc(N2CC[NH+](C3CC3)CC2)ccc1F (3D coordinates assigned)
C=c1/c(=C/c2[n-]c(=O)[n-]c2[O-])cc(C)n1-c1cc(N2CC[NH+](C3CC3)CC2)ccc1F (nonaromatic ring conformer: 418.82245731435717 kcal/mol)

> <smiles>
C=c1c(=Cc2[nH]c(=O)[nH]c2O)cc(C)n1-c1cc(N2CCN(C3CC3)CC2)ccc1F

> <score_type>
oracle

> <origin>
adg

> <m_score__min__energy>
-15.59

> <m_primary>
energy

> <minimizedAffinity>
-7.56345

> <minimizedRMSD>
2.05985

> <CNNscore>
0.2310789526

> <CNNaffinity>
6.6917953491

> <CNN_VS>
1.5463330746

> <CNNaffinity_variance>
0.2774468362

$$$$
63:0


 28 31  0  0  0  0  0  0  0  0999 V2000
   57.8740   32.5685   43.1630 C   0  0  0  0  0  0  0  0  0  0  0  0
   57.8381   31.4882   43.9471 C   0  0  0  0  0  0  0  0  0  0  0  0
   58.0118   31.4553   45.3261 C   0  0  0  0  0  0  0  0  0  0  0  0
   57.8109   30.1438   45.7153 C   0  0  0  0  0  0  0  0  0  0  0  0
   57.5404   29.4317   44.5591 C   0  0  0  0  0  0  0  0  0  0  0  0
   57.3249   28.1086   44.5220 C   0  0  0  0  0  0  0  0  0  0  0  0
   57.5678   30.2510   43.4837 N   0  0  0  0  0  0  0  0  0  0  0  0
   57.4193   29.9942   42.5449 H   0  0  0  0  0  0  0  0  0  0  0  0
   58.3170   32.5724   46.2411 C   0  0  0  0  0  0  0  0  0  0  0  0
   57.3746   33.3104   46.6360 O   0  0  0  0  0  0  0  0  0  0  0  0
   59.6518   32.8033   46.7209 N   0  0  0  0  0  0  0  0  0  0  0  0
   60.4668   31.6666   47.1791 C   0  0  0  0  0  0  0  0  0  0  0  0
   61.7857   32.1327   47.8056 C   0  0  0  0  0  0  0  0  0  0  0  0
   61.5370   33.2328   48.8608 C   0  0  0  0  0  0  0  0  0  0  0  0
   60.6106   34.3833   48.3445 C   0  0  0  0  0  0  0  0  0  0  0  0
   60.1429   34.1764   46.9003 C   0  0  0  0  0  0  0  0  0  0  0  0
   62.8302   33.7077   49.4140 N   0  0  0  0  0  0  0  0  0  0  0  0
   62.8922   33.8136   50.8836 C   0  0  0  0  0  0  0  0  0  0  0  0
   64.1089   33.0320   51.3545 C   0  0  0  0  0  0  0  0  0  0  0  0
   64.9683   32.8756   50.1216 C   0  0  0  0  0  0  0  0  0  0  0  0
   63.9831   32.9092   48.9710 C   0  0  0  0  0  0  0  0  0  0  0  0
   57.7563   27.1713   45.5742 C   0  0  0  0  0  0  0  0  0  0  0  0
   58.9845   27.1914   46.1206 N   0  0  0  0  0  0  0  0  0  0  0  0
   58.9167   26.2463   47.0820 C   0  0  0  0  0  0  0  0  0  0  0  0
   59.8940   25.9555   47.8180 O   0  0  0  0  0  0  0  0  0  0  0  0
   57.7141   25.6433   47.1993 N   0  0  0  0  0  0  0  0  0  0  0  0
   56.9863   26.2484   46.2471 C   0  0  0  0  0  0  0  0  0  0  0  0
   55.6371   25.9952   46.0336 O   0  0  0  0  0  0  0  0  0  0  0  0
  1  2  2  0
  2  3  1  0
  3  9  1  0
  9 10  2  0
  9 11  1  0
 11 12  1  0
 12 13  1  0
 13 14  1  0
 14 17  1  0
 17 18  1  0
 18 19  1  0
 19 20  1  0
 20 21  1  0
 14 15  1  0
 15 16  1  0
  3  4  2  0
  4  5  1  0
  5  6  2  0
  6 22  1  0
 22 23  1  0
 23 24  1  0
 24 25  2  0
 24 26  1  0
 26 27  1  0
 27 28  1  0
  5  7  1  0
  7  2  1  0
 16 11  1  0
 27 22  2  0
 21 17  1  0
  7  8  1  0
M  CHG 1  23  -1
M  CHG 1  26  -1
M  CHG 1  28  -1
M  END
> <UniqueID>
60

> <SMILES>
C=c1[nH]/c(=C\c2[n-]c(=O)[n-]c2[O-])cc1C(=O)N1CCC(N2CCCC2)CC1

> <Energy>
126.44746711883624

> <Genealogy>
C=c1[nH]c(=Cc2[n-]c(=O)[n-]c2[O-])cc1C(=O)N1CCC(N2CCCC2)CC1 (protonated)
C=c1[nH]/c(=C\c2[n-]c(=O)[n-]c2[O-])cc1C(=O)N1CCC(N2CCCC2)CC1 (cis-trans isomerization)
C=c1[nH]/c(=C\c2[n-]c(=O)[n-]c2[O-])cc1C(=O)N1CCC(N2CCCC2)CC1 (3D coordinates assigned)
C=c1[nH]/c(=C\c2[n-]c(=O)[n-]c2[O-])cc1C(=O)N1CCC(N2CCCC2)CC1 (nonaromatic ring conformer: 126.44746711883624 kcal/mol)

> <smiles>
C=c1[nH]c(=Cc2[nH]c(=O)[nH]c2O)cc1C(=O)N1CCC(N2CCCC2)CC1

> <score_type>
oracle

> <origin>
adg

> <m_score__min__energy>
-17.25

> <m_primary>
energy

> <minimizedAffinity>
-7.86234

> <minimizedRMSD>
0.50745

> <CNNscore>
0.0691551492

> <CNNaffinity>
5.6072535515

> <CNN_VS>
0.3877704442

> <CNNaffinity_variance>
0.1686435938

$$$$
72:0


 29 32  0  0  0  0  0  0  0  0999 V2000
   58.1007   24.5978   47.9017 C   0  0  0  0  0  0  0  0  0  0  0  0
   57.8779   25.5736   47.0205 C   0  0  0  0  0  0  0  0  0  0  0  0
   58.1383   26.8300   47.3045 O   0  0  0  0  0  0  0  0  0  0  0  0
   57.8904   27.5712   46.2491 C   0  0  0  0  0  0  0  0  0  0  0  0
   57.4534   26.7759   45.2064 C   0  0  0  0  0  0  0  0  0  0  0  0
   57.4117   25.4835   45.7006 C   0  0  0  0  0  0  0  0  0  0  0  0
   56.9932   24.4293   44.9740 C   0  0  0  0  0  0  0  0  0  0  0  0
   58.0984   29.0295   46.2186 C   0  0  0  0  0  0  0  0  0  0  0  0
   57.3966   29.7212   45.4322 O   0  0  0  0  0  0  0  0  0  0  0  0
   59.0627   29.6831   47.0649 N   0  0  0  0  0  0  0  0  0  0  0  0
   60.3817   29.0820   47.3143 C   0  0  0  0  0  0  0  0  0  0  0  0
   61.4856   30.1343   47.1440 C   0  0  0  0  0  0  0  0  0  0  0  0
   61.1478   31.4050   47.8087 N   0  0  0  0  0  0  0  0  0  0  0  0
   62.1201   32.4729   47.7989 C   0  0  0  0  0  0  0  0  0  0  0  0
   63.3110   32.2311   47.4588 O   0  0  0  0  0  0  0  0  0  0  0  0
   59.8642   31.5274   48.5170 C   0  0  0  0  0  0  0  0  0  0  0  0
   58.7317   30.9982   47.6323 C   0  0  0  0  0  0  0  0  0  0  0  0
   61.7614   33.8733   48.2086 C   0  0  0  0  0  0  0  0  0  0  0  0
   62.5319   34.3927   49.4149 C   0  0  0  0  0  0  0  0  0  0  0  0
   61.0739   33.9958   49.5622 C   0  0  0  0  0  0  0  0  0  0  0  0
   55.8191   23.5938   45.2823 C   0  0  0  0  0  0  0  0  0  0  0  0
   54.6286   24.1821   45.7319 C   0  0  0  0  0  0  0  0  0  0  0  0
   54.5197   25.5625   45.8444 O   0  0  0  0  0  0  0  0  0  0  0  0
   53.5658   23.4001   46.0550 N   0  0  0  0  0  0  0  0  0  0  0  0
   53.6385   22.0462   45.9642 C   0  0  0  0  0  0  0  0  0  0  0  0
   52.6391   21.3426   46.2646 O   0  0  0  0  0  0  0  0  0  0  0  0
   54.7887   21.4530   45.5550 N   0  0  0  0  0  0  0  0  0  0  0  0
   55.8788   22.1905   45.2220 C   0  0  0  0  0  0  0  0  0  0  0  0
   56.9369   21.6055   44.8643 O   0  0  0  0  0  0  0  0  0  0  0  0
  1  2  2  0
  2  3  1  0
  3  4  1  0
  4  8  1  0
  8  9  2  0
  8 10  1  0
 10 11  1  0
 11 12  1  0
 12 13  1  0
 13 14  1  0
 14 15  2  0
 14 18  1  0
 18 19  1  0
 19 20  1  0
 13 16  1  0
 16 17  1  0
  4  5  2  0
  5  6  1  0
  6  7  2  0
  7 21  1  0
 21 22  2  0
 22 23  1  0
 22 24  1  0
 24 25  1  0
 25 26  2  0
 25 27  1  0
 27 28  1  0
 28 29  2  0
  6  2  1  0
 28 21  1  0
 17 10  1  0
 20 18  1  0
M  CHG 1  23  -1
M  CHG 1  24  -1
M  CHG 1  27  -1
M  END
> <UniqueID>
69

> <SMILES>
C=c1oc(C(=O)N2CCN(C(=O)C3CC3)CC2)c/c1=C/c1c([O-])[n-]c(=O)[n-]c1=O

> <Energy>
356.48737471579176

> <Genealogy>
C=c1oc(C(=O)N2CCN(C(=O)C3CC3)CC2)cc1=Cc1c([O-])[n-]c(=O)[n-]c1=O (protonated)
C=c1oc(C(=O)N2CCN(C(=O)C3CC3)CC2)c/c1=C/c1c([O-])[n-]c(=O)[n-]c1=O (cis-trans isomerization)
C=c1oc(C(=O)N2CCN(C(=O)C3CC3)CC2)c/c1=C/c1c([O-])[n-]c(=O)[n-]c1=O (3D coordinates assigned)
C=c1oc(C(=O)N2CCN(C(=O)C3CC3)CC2)c/c1=C/c1c([O-])[n-]c(=O)[n-]c1=O (nonaromatic ring conformer: 356.48737471579176 kcal/mol)

> <smiles>
C=c1oc(C(=O)N2CCN(C(=O)C3CC3)CC2)cc1=Cc1c(O)[nH]c(=O)[nH]c1=O

> <score_type>
oracle

> <origin>
adg

> <m_score__min__energy>
-15.390000000000001

> <m_primary>
energy

> <minimizedAffinity>
-5.87963

> <minimizedRMSD>
0.74092

> <CNNscore>
0.0451127104

> <CNNaffinity>
5.8173050880

> <CNN_VS>
0.2624343932

> <CNNaffinity_variance>
0.6916663647

$$$$
85:0


 33 36  0  0  0  0  0  0  0  0999 V2000
   58.1637   31.6851   52.2712 C   0  0  0  0  0  0  0  0  0  0  0  0
   58.2733   32.8112   52.8228 O   0  0  0  0  0  0  0  0  0  0  0  0
   59.0663   31.3283   51.2069 N   0  0  0  0  0  0  0  0  0  0  0  0
   60.4465   31.8130   51.2285 C   0  0  0  0  0  0  0  0  0  0  0  0
   61.3851   30.7498   50.6371 C   0  0  0  0  0  0  0  0  0  0  0  0
   60.9145   30.2210   49.3370 N   0  0  0  0  0  0  0  0  0  0  0  0
   59.5244   29.7239   49.4156 C   0  0  0  0  0  0  0  0  0  0  0  0
   58.5581   30.7892   49.9446 C   0  0  0  0  0  0  0  0  0  0  0  0
   56.0818   27.7096   54.0918 C   0  0  0  0  0  0  0  0  0  0  0  0
   56.1952   28.9602   53.6162 C   0  0  0  0  0  0  0  0  0  0  0  0
   55.1774   29.7163   53.0111 C   0  0  0  0  0  0  0  0  0  0  0  0
   53.8445   29.5230   52.9529 C   0  0  0  0  0  0  0  0  0  0  0  0
   55.8005   30.8028   52.4274 C   0  0  0  0  0  0  0  0  0  0  0  0
   57.1419   30.7245   52.7501 C   0  0  0  0  0  0  0  0  0  0  0  0
   57.3806   29.6210   53.4991 N   0  0  0  0  0  0  0  0  0  0  0  0
   58.6892   29.1966   54.0084 C   0  0  0  0  0  0  0  0  0  0  0  0
   52.8556   30.4910   52.4498 C   0  0  0  0  0  0  0  0  0  0  0  0
   52.1510   31.3125   53.2486 N   0  0  0  0  0  0  0  0  0  0  0  0
   51.2820   31.9071   52.4015 C   0  0  0  0  0  0  0  0  0  0  0  0
   50.4456   32.7683   52.7815 O   0  0  0  0  0  0  0  0  0  0  0  0
   51.3678   31.4940   51.1197 N   0  0  0  0  0  0  0  0  0  0  0  0
   52.3575   30.5842   51.1677 C   0  0  0  0  0  0  0  0  0  0  0  0
   52.7801   29.8394   50.0729 O   0  0  0  0  0  0  0  0  0  0  0  0
   52.3819   29.9709   49.2350 H   0  0  0  0  0  0  0  0  0  0  0  0
   61.1251   31.1576   48.2116 C   0  0  0  0  0  0  0  0  0  0  0  0
   60.2020   30.8421   47.0570 C   0  0  0  0  0  0  0  0  0  0  0  0
   60.2691   29.5857   46.4215 C   0  0  0  0  0  0  0  0  0  0  0  0
   59.3976   29.2752   45.3728 C   0  0  0  0  0  0  0  0  0  0  0  0
   58.4366   30.2073   44.9609 C   0  0  0  0  0  0  0  0  0  0  0  0
   57.5692   29.8918   43.9240 O   0  0  0  0  0  0  0  0  0  0  0  0
   58.3477   31.4479   45.5971 C   0  0  0  0  0  0  0  0  0  0  0  0
   59.2234   31.7680   46.6410 C   0  0  0  0  0  0  0  0  0  0  0  0
   59.1138   32.9834   47.2406 F   0  0  0  0  0  0  0  0  0  0  0  0
  9 10  2  0
 10 11  1  0
 11 12  2  0
 12 17  1  0
 17 18  1  0
 18 19  1  0
 19 20  2  0
 19 21  1  0
 21 22  1  0
 22 23  1  0
 11 13  1  0
 13 14  2  0
 14  1  1  0
  1  2  2  0
  1  3  1  0
  3  4  1  0
  4  5  1  0
  5  6  1  0
  6 25  1  0
 25 26  1  0
 26 27  2  0
 27 28  1  0
 28 29  2  0
 29 30  1  0
 29 31  1  0
 31 32  2  0
 32 33  1  0
  6  7  1  0
  7  8  1  0
 14 15  1  0
 15 16  1  0
 15 10  1  0
 22 17  2  0
  8  3  1  0
 32 26  1  0
 23 24  1  0
M  CHG 1  18  -1
M  CHG 1  21  -1
M  CHG 1  30  -1
M  END
> <UniqueID>
81

> <SMILES>
C=c1c(=Cc2[n-]c(=O)[n-]c2O)cc(C(=O)N2CCN(Cc3ccc([O-])cc3F)CC2)n1C

> <Energy>
135.1337535615277

> <Genealogy>
C=c1c(=Cc2[n-]c(=O)[n-]c2O)cc(C(=O)N2CCN(Cc3ccc([O-])cc3F)CC2)n1C (protonated)
C=c1c(=Cc2[n-]c(=O)[n-]c2O)cc(C(=O)N2CCN(Cc3ccc([O-])cc3F)CC2)n1C (3D coordinates assigned)
C=c1c(=Cc2[n-]c(=O)[n-]c2O)cc(C(=O)N2CCN(Cc3ccc([O-])cc3F)CC2)n1C (nonaromatic ring conformer: 135.1337535615277 kcal/mol)

> <smiles>
C=c1c(=Cc2[nH]c(=O)[nH]c2O)cc(C(=O)N2CCN(Cc3ccc(O)cc3F)CC2)n1C

> <score_type>
oracle

> <origin>
adg

> <m_score__min__energy>
-14.18

> <m_primary>
energy

> <minimizedAffinity>
-8.62332

> <minimizedRMSD>
0.80551

> <CNNscore>
0.1061377749

> <CNNaffinity>
5.8016510010

> <CNN_VS>
0.6157743335

> <CNNaffinity_variance>
0.0969223604

$$$$
9:0


 31 33  0  0  0  0  0  0  0  0999 V2000
   57.6468   29.6433   53.3607 C   0  0  0  0  0  0  0  0  0  0  0  0
   58.6239   28.8523   53.2613 O   0  0  0  0  0  0  0  0  0  0  0  0
   52.4973   27.5560   54.5297 C   0  0  0  0  0  0  0  0  0  0  0  0
   53.6837   28.0957   54.1845 C   0  0  0  0  0  0  0  0  0  0  0  0
   54.8329   27.3155   54.4161 C   0  0  0  0  0  0  0  0  0  0  0  0
   56.1077   27.8071   54.1586 C   0  0  0  0  0  0  0  0  0  0  0  0
   56.2859   29.0970   53.6434 C   0  0  0  0  0  0  0  0  0  0  0  0
   55.1493   29.8816   53.3827 C   0  0  0  0  0  0  0  0  0  0  0  0
   53.8354   29.4152   53.6424 C   0  0  0  0  0  0  0  0  0  0  0  0
   52.7670   30.1947   53.3221 C   0  0  0  0  0  0  0  0  0  0  0  0
   52.2962   30.4795   51.9516 C   0  0  0  0  0  0  0  0  0  0  0  0
   52.3891   29.5979   50.9387 N   0  0  0  0  0  0  0  0  0  0  0  0
   51.7510   30.2187   49.9235 C   0  0  0  0  0  0  0  0  0  0  0  0
   51.6359   29.7039   48.7810 O   0  0  0  0  0  0  0  0  0  0  0  0
   51.2305   31.4259   50.2327 N   0  0  0  0  0  0  0  0  0  0  0  0
   51.5727   31.5719   51.5228 C   0  0  0  0  0  0  0  0  0  0  0  0
   51.1973   32.6610   52.2994 O   0  0  0  0  0  0  0  0  0  0  0  0
   57.9069   31.1109   53.1492 C   0  0  0  0  0  0  0  0  0  0  0  0
   57.4183   31.5557   51.7668 C   0  0  0  0  0  0  0  0  0  0  0  0
   58.5412   32.1819   50.9859 C   0  0  0  0  0  0  0  0  0  0  0  0
   58.5572   32.1128   49.5851 C   0  0  0  0  0  0  0  0  0  0  0  0
   59.6176   32.6660   48.8604 C   0  0  0  0  0  0  0  0  0  0  0  0
   60.6876   33.2936   49.5281 C   0  0  0  0  0  0  0  0  0  0  0  0
   60.6704   33.3473   50.9309 C   0  0  0  0  0  0  0  0  0  0  0  0
   59.6110   32.7940   51.6546 C   0  0  0  0  0  0  0  0  0  0  0  0
   61.7990   33.8736   48.8213 N   0  0  0  0  0  0  0  0  0  0  0  0
   61.7779   34.8437   48.6547 H   0  0  0  0  0  0  0  0  0  0  0  0
   63.1750   32.9863   48.2409 S   0  0  0  0  0  0  0  0  0  0  0  0
   64.4237   32.8954   49.5053 C   0  0  0  0  0  0  0  0  0  0  0  0
   62.7401   31.5897   47.8966 O   0  0  0  0  0  0  0  0  0  0  0  0
   63.7239   33.6378   47.0036 O   0  0  0  0  0  0  0  0  0  0  0  0
  3  4  2  0
  4  5  1  0
  5  6  2  0
  6  7  1  0
  7  1  1  0
  1  2  2  0
  1 18  1  0
 18 19  1  0
 19 20  1  0
 20 21  2  0
 21 22  1  0
 22 23  2  0
 23 26  1  0
 26 28  1  0
 28 29  1  0
 28 30  2  0
 28 31  2  0
 23 24  1  0
 24 25  2  0
  7  8  2  0
  8  9  1  0
  9 10  2  0
 10 11  1  0
 11 12  1  0
 12 13  1  0
 13 14  2  0
 13 15  1  0
 15 16  1  0
 16 17  1  0
  9  4  1  0
 16 11  2  0
 25 20  1  0
 26 27  1  0
M  CHG 1  12  -1
M  CHG 1  15  -1
M  CHG 1  17  -1
M  END
> <UniqueID>
10

> <SMILES>
C=c1ccc(C(=O)CCc2ccc(NS(C)(=O)=O)cc2)cc1=Cc1[n-]c(=O)[n-]c1[O-]

> <Energy>
94.0760113753547

> <Genealogy>
C=c1ccc(C(=O)CCc2ccc(NS(C)(=O)=O)cc2)cc1=Cc1[n-]c(=O)[n-]c1[O-] (protonated)
C=c1ccc(C(=O)CCc2ccc(NS(C)(=O)=O)cc2)cc1=Cc1[n-]c(=O)[n-]c1[O-] (3D coordinates assigned)
C=c1ccc(C(=O)CCc2ccc(NS(C)(=O)=O)cc2)cc1=Cc1[n-]c(=O)[n-]c1[O-] (optimized conformer: 94.0760113753547 kcal/mol)

> <smiles>
C=c1ccc(C(=O)CCc2ccc(NS(C)(=O)=O)cc2)cc1=Cc1[nH]c(=O)[nH]c1O

> <score_type>
oracle

> <origin>
adg

> <m_score__min__energy>
-18.91

> <m_primary>
energy

> <minimizedAffinity>
-6.06973

> <minimizedRMSD>
0.88722

> <CNNscore>
0.1371895224

> <CNNaffinity>
5.4260878563

> <CNN_VS>
0.7444024086

> <CNNaffinity_variance>
0.0340022594

$$$$
27:0


 33 36  0  0  0  0  0  0  0  0999 V2000
   59.7550   31.0715   47.0741 C   0  0  0  0  0  0  0  0  0  0  0  0
   60.5886   31.9486   46.7178 O   0  0  0  0  0  0  0  0  0  0  0  0
   59.4655   30.8967   48.4735 N   0  0  0  0  0  0  0  0  0  0  0  0
   59.1359   29.5680   49.0079 C   0  0  0  0  0  0  0  0  0  0  0  0
   59.8196   29.3578   50.3639 C   0  0  0  0  0  0  0  0  0  0  0  0
   59.5623   30.4868   51.2718 N   0  0  0  0  0  0  0  0  0  0  0  0
   59.7044   30.3097   52.6919 C   0  0  0  0  0  0  0  0  0  0  0  0
   58.8312   30.7808   53.4687 O   0  0  0  0  0  0  0  0  0  0  0  0
   58.9886   31.7366   50.7599 C   0  0  0  0  0  0  0  0  0  0  0  0
   59.5528   32.0560   49.3719 C   0  0  0  0  0  0  0  0  0  0  0  0
   56.4700   29.7299   43.7915 C   0  0  0  0  0  0  0  0  0  0  0  0
   57.5818   29.6790   44.5428 C   0  0  0  0  0  0  0  0  0  0  0  0
   58.3272   28.5352   44.8745 C   0  0  0  0  0  0  0  0  0  0  0  0
   58.2564   27.2686   44.4189 C   0  0  0  0  0  0  0  0  0  0  0  0
   59.2289   28.9298   45.8474 C   0  0  0  0  0  0  0  0  0  0  0  0
   59.0479   30.2841   46.0415 C   0  0  0  0  0  0  0  0  0  0  0  0
   58.0671   30.7481   45.2295 N   0  0  0  0  0  0  0  0  0  0  0  0
   57.5828   32.1309   45.1564 C   0  0  0  0  0  0  0  0  0  0  0  0
   57.8566   26.0966   45.2103 C   0  0  0  0  0  0  0  0  0  0  0  0
   58.5475   24.9425   45.2375 N   0  0  0  0  0  0  0  0  0  0  0  0
   57.7774   24.1351   45.9996 C   0  0  0  0  0  0  0  0  0  0  0  0
   58.1027   22.9520   46.2761 O   0  0  0  0  0  0  0  0  0  0  0  0
   56.6269   24.6943   46.4334 N   0  0  0  0  0  0  0  0  0  0  0  0
   56.6857   25.9313   45.9139 C   0  0  0  0  0  0  0  0  0  0  0  0
   55.6797   26.8807   46.0601 O   0  0  0  0  0  0  0  0  0  0  0  0
   60.8928   29.5918   53.2717 C   0  0  0  0  0  0  0  0  0  0  0  0
   62.1566   30.3755   52.9914 C   0  0  0  0  0  0  0  0  0  0  0  0
   62.9369   29.9999   51.8825 C   0  0  0  0  0  0  0  0  0  0  0  0
   64.0873   30.7172   51.5461 C   0  0  0  0  0  0  0  0  0  0  0  0
   64.4741   31.8167   52.3090 C   0  0  0  0  0  0  0  0  0  0  0  0
   63.7089   32.2087   53.4097 C   0  0  0  0  0  0  0  0  0  0  0  0
   62.5417   31.5069   53.7601 C   0  0  0  0  0  0  0  0  0  0  0  0
   61.7374   31.9685   54.9481 C   0  0  0  0  0  0  0  0  0  0  0  0
 11 12  2  0
 12 13  1  0
 13 14  2  0
 14 19  1  0
 19 20  1  0
 20 21  1  0
 21 22  2  0
 21 23  1  0
 23 24  1  0
 24 25  1  0
 13 15  1  0
 15 16  2  0
 16  1  1  0
  1  2  2  0
  1  3  1  0
  3  4  1  0
  4  5  1  0
  5  6  1  0
  6  7  1  0
  7  8  2  0
  7 26  1  0
 26 27  1  0
 27 28  2  0
 28 29  1  0
 29 30  2  0
 30 31  1  0
 31 32  2  0
 32 33  1  0
  6  9  1  0
  9 10  1  0
 16 17  1  0
 17 18  1  0
 17 12  1  0
 24 19  2  0
 10  3  1  0
 32 27  1  0
M  CHG 1  20  -1
M  CHG 1  23  -1
M  CHG 1  25  -1
M  END
> <UniqueID>
28

> <SMILES>
C=c1c(=Cc2[n-]c(=O)[n-]c2[O-])cc(C(=O)N2CCN(C(=O)Cc3ccccc3C)CC2)n1C

> <Energy>
137.48468073778568

> <Genealogy>
C=c1c(=Cc2[n-]c(=O)[n-]c2[O-])cc(C(=O)N2CCN(C(=O)Cc3ccccc3C)CC2)n1C (protonated)
C=c1c(=Cc2[n-]c(=O)[n-]c2[O-])cc(C(=O)N2CCN(C(=O)Cc3ccccc3C)CC2)n1C (3D coordinates assigned)
C=c1c(=Cc2[n-]c(=O)[n-]c2[O-])cc(C(=O)N2CCN(C(=O)Cc3ccccc3C)CC2)n1C (nonaromatic ring conformer: 137.48468073778568 kcal/mol)

> <smiles>
C=c1c(=Cc2[nH]c(=O)[nH]c2O)cc(C(=O)N2CCN(C(=O)Cc3ccccc3C)CC2)n1C

> <score_type>
oracle

> <origin>
adg

> <m_score__min__energy>
-18.420000000000002

> <m_primary>
energy

> <minimizedAffinity>
-7.02336

> <minimizedRMSD>
2.22449

> <CNNscore>
0.0429161303

> <CNNaffinity>
5.7921223640

> <CNN_VS>
0.2485754788

> <CNNaffinity_variance>
0.1278121471

$$$$
38:0


 34 37  0  0  0  0  0  0  0  0999 V2000
   59.1031   30.6506   50.4447 C   0  0  0  0  0  0  0  0  0  0  0  0
   57.9145   30.7678   50.8352 O   0  0  0  0  0  0  0  0  0  0  0  0
   60.0113   31.7716   50.5482 N   0  0  0  0  0  0  0  0  0  0  0  0
   59.5077   33.0840   50.9659 C   0  0  0  0  0  0  0  0  0  0  0  0
   60.2318   34.2204   50.2288 C   0  0  0  0  0  0  0  0  0  0  0  0
   61.6596   33.9426   49.9535 N   0  0  0  0  0  0  0  0  0  0  0  0
   62.2655   32.8290   50.7074 C   0  0  0  0  0  0  0  0  0  0  0  0
   61.4595   31.5277   50.5955 C   0  0  0  0  0  0  0  0  0  0  0  0
   59.5380   26.9412   47.3226 C   0  0  0  0  0  0  0  0  0  0  0  0
   59.7280   27.6719   48.4384 C   0  0  0  0  0  0  0  0  0  0  0  0
   59.1864   28.9320   48.6020 C   0  0  0  0  0  0  0  0  0  0  0  0
   59.5289   29.3615   49.8659 C   0  0  0  0  0  0  0  0  0  0  0  0
   60.2741   28.4215   50.4963 N   0  0  0  0  0  0  0  0  0  0  0  0
   60.9168   28.5548   51.8077 C   0  0  0  0  0  0  0  0  0  0  0  0
   60.4400   27.3968   49.6186 C   0  0  0  0  0  0  0  0  0  0  0  0
   61.2862   26.3765   49.8333 C   0  0  0  0  0  0  0  0  0  0  0  0
   57.1267   27.8890   45.6544 O   0  0  0  0  0  0  0  0  0  0  0  0
   57.2418   26.6433   46.2760 C   0  0  0  0  0  0  0  0  0  0  0  0
   56.2756   25.7128   46.2422 N   0  0  0  0  0  0  0  0  0  0  0  0
   56.8054   24.7113   46.9729 C   0  0  0  0  0  0  0  0  0  0  0  0
   56.1944   23.6342   47.1872 O   0  0  0  0  0  0  0  0  0  0  0  0
   58.0414   24.9560   47.4648 N   0  0  0  0  0  0  0  0  0  0  0  0
   58.3216   26.1823   46.9942 C   0  0  0  0  0  0  0  0  0  0  0  0
   56.3452   28.1086   45.1865 H   0  0  0  0  0  0  0  0  0  0  0  0
   62.0803   34.0887   48.5425 C   0  0  0  0  0  0  0  0  0  0  0  0
   60.9099   34.1297   47.5401 C   0  0  0  0  0  0  0  0  0  0  0  0
   60.5400   32.7510   47.0250 C   0  0  0  0  0  0  0  0  0  0  0  0
   61.3107   31.7821   47.2743 O   0  0  0  0  0  0  0  0  0  0  0  0
   59.2969   32.5040   46.3193 N   0  0  0  0  0  0  0  0  0  0  0  0
   58.1819   33.4616   46.3821 C   0  0  0  0  0  0  0  0  0  0  0  0
   57.2169   33.2516   45.2116 C   0  0  0  0  0  0  0  0  0  0  0  0
   56.8317   31.8987   45.1135 O   0  0  0  0  0  0  0  0  0  0  0  0
   57.9570   31.1157   44.7699 C   0  0  0  0  0  0  0  0  0  0  0  0
   58.9916   31.1247   45.9009 C   0  0  0  0  0  0  0  0  0  0  0  0
 17 18  1  0
 18 19  1  0
 19 20  1  0
 20 21  2  0
 20 22  1  0
 22 23  1  0
 23  9  1  0
  9 10  2  0
 10 11  1  0
 11 12  2  0
 12  1  1  0
  1  2  2  0
  1  3  1  0
  3  4  1  0
  4  5  1  0
  5  6  1  0
  6 25  1  0
 25 26  1  0
 26 27  1  0
 27 28  2  0
 27 29  1  0
 29 30  1  0
 30 31  1  0
 31 32  1  0
 32 33  1  0
 33 34  1  0
  6  7  1  0
  7  8  1  0
 12 13  1  0
 13 14  1  0
 13 15  1  0
 15 16  2  0
 23 18  2  0
 15 10  1  0
  8  3  1  0
 34 29  1  0
 17 24  1  0
M  CHG 1  19  -1
M  CHG 1  22  -1
M  END
> <UniqueID>
38

> <SMILES>
C=c1/c(=C\c2[n-]c(=O)[n-]c2O)cc(C(=O)N2CCN(CCC(=O)N3CCOCC3)CC2)n1C

> <Energy>
150.60209909680623

> <Genealogy>
C=c1c(=Cc2[n-]c(=O)[n-]c2O)cc(C(=O)N2CCN(CCC(=O)N3CCOCC3)CC2)n1C (protonated)
C=c1/c(=C\c2[n-]c(=O)[n-]c2O)cc(C(=O)N2CCN(CCC(=O)N3CCOCC3)CC2)n1C (cis-trans isomerization)
C=c1/c(=C\c2[n-]c(=O)[n-]c2O)cc(C(=O)N2CCN(CCC(=O)N3CCOCC3)CC2)n1C (3D coordinates assigned)
C=c1/c(=C\c2[n-]c(=O)[n-]c2O)cc(C(=O)N2CCN(CCC(=O)N3CCOCC3)CC2)n1C (nonaromatic ring conformer: 150.60209909680623 kcal/mol)

> <smiles>
C=c1c(=Cc2[nH]c(=O)[nH]c2O)cc(C(=O)N2CCN(CCC(=O)N3CCOCC3)CC2)n1C

> <score_type>
oracle

> <origin>
adg

> <m_score__min__energy>
-14.380000000000001

> <m_primary>
energy

> <minimizedAffinity>
-6.32334

> <minimizedRMSD>
1.10975

> <CNNscore>
0.2010489702

> <CNNaffinity>
6.1310496330

> <CNN_VS>
1.2326412201

> <CNNaffinity_variance>
0.1592364162

$$$$
41:0


 35 39  0  0  0  0  0  0  0  0999 V2000
   59.1178   29.7093   50.7644 C   0  0  0  0  0  0  0  0  0  0  0  0
   57.9184   29.7213   51.1523 O   0  0  0  0  0  0  0  0  0  0  0  0
   60.8500   26.3736   46.5484 C   0  0  0  0  0  0  0  0  0  0  0  0
   60.3223   27.0496   47.5859 C   0  0  0  0  0  0  0  0  0  0  0  0
   61.1805   27.3415   48.6632 C   0  0  0  0  0  0  0  0  0  0  0  0
   60.7948   28.2096   49.6815 C   0  0  0  0  0  0  0  0  0  0  0  0
   59.5346   28.8144   49.6607 C   0  0  0  0  0  0  0  0  0  0  0  0
   58.6505   28.5081   48.6098 C   0  0  0  0  0  0  0  0  0  0  0  0
   58.9893   27.5802   47.5989 C   0  0  0  0  0  0  0  0  0  0  0  0
   58.0046   27.2459   46.7259 C   0  0  0  0  0  0  0  0  0  0  0  0
   57.4881   25.8882   46.4807 C   0  0  0  0  0  0  0  0  0  0  0  0
   58.2671   24.7967   46.3897 N   0  0  0  0  0  0  0  0  0  0  0  0
   57.3927   23.8171   46.0701 C   0  0  0  0  0  0  0  0  0  0  0  0
   57.7459   22.6208   45.9028 O   0  0  0  0  0  0  0  0  0  0  0  0
   56.1105   24.2228   45.9258 N   0  0  0  0  0  0  0  0  0  0  0  0
   56.1894   25.5400   46.1813 C   0  0  0  0  0  0  0  0  0  0  0  0
   55.1042   26.4095   46.1271 O   0  0  0  0  0  0  0  0  0  0  0  0
   54.2522   26.0828   45.9141 H   0  0  0  0  0  0  0  0  0  0  0  0
   60.0785   30.5589   51.4023 N   0  0  0  0  0  0  0  0  0  0  0  0
   60.3721   31.9161   50.9558 C   0  0  0  0  0  0  0  0  0  0  0  0
   61.8569   32.2441   50.9165 C   0  0  0  0  0  0  0  0  0  0  0  0
   60.9695   32.8314   52.0116 C   0  0  0  0  0  0  0  0  0  0  0  0
   59.5288   32.5202   49.8731 C   0  0  0  0  0  0  0  0  0  0  0  0
   58.3229   32.8048   50.1016 O   0  0  0  0  0  0  0  0  0  0  0  0
   60.0832   32.7489   48.5706 N   0  0  0  0  0  0  0  0  0  0  0  0
   59.9188   34.0561   47.9336 C   0  0  0  0  0  0  0  0  0  0  0  0
   58.7687   33.9973   46.9268 C   0  0  0  0  0  0  0  0  0  0  0  0
   58.8885   32.8099   46.0536 N   0  0  0  0  0  0  0  0  0  0  0  0
   58.3641   32.8763   44.7061 C   0  0  0  0  0  0  0  0  0  0  0  0
   57.9067   33.9649   44.2618 O   0  0  0  0  0  0  0  0  0  0  0  0
   59.1509   31.5041   46.6939 C   0  0  0  0  0  0  0  0  0  0  0  0
   60.3194   31.6148   47.6774 C   0  0  0  0  0  0  0  0  0  0  0  0
   58.2934   31.6588   43.8245 C   0  0  0  0  0  0  0  0  0  0  0  0
   56.9289   30.9835   43.7577 C   0  0  0  0  0  0  0  0  0  0  0  0
   57.4227   31.8140   42.5835 C   0  0  0  0  0  0  0  0  0  0  0  0
  3  4  2  0
  4  5  1  0
  5  6  2  0
  6  7  1  0
  7  1  1  0
  1  2  2  0
  1 19  1  0
 19 20  1  0
 20 23  1  0
 23 24  2  0
 23 25  1  0
 25 26  1  0
 26 27  1  0
 27 28  1  0
 28 29  1  0
 29 30  2  0
 29 33  1  0
 33 34  1  0
 34 35  1  0
 28 31  1  0
 31 32  1  0
 20 21  1  0
 21 22  1  0
  7  8  2  0
  8  9  1  0
  9 10  2  0
 10 11  1  0
 11 12  1  0
 12 13  1  0
 13 14  2  0
 13 15  1  0
 15 16  1  0
 16 17  1  0
  9  4  1  0
 16 11  2  0
 22 20  1  0
 32 25  1  0
 35 33  1  0
 17 18  1  0
M  CHG 1  12  -1
M  CHG 1  15  -1
M  CHG 1  19  -1
M  END
> <UniqueID>
41

> <SMILES>
C=c1ccc(C(=O)[N-]C2(C(=O)N3CCN(C(=O)C4CC4)CC3)CC2)cc1=Cc1[n-]c(=O)[n-]c1O

> <Energy>
646.2732243797335

> <Genealogy>
C=c1ccc(C(=O)[N-]C2(C(=O)N3CCN(C(=O)C4CC4)CC3)CC2)cc1=Cc1[n-]c(=O)[n-]c1O (protonated)
C=c1ccc(C(=O)[N-]C2(C(=O)N3CCN(C(=O)C4CC4)CC3)CC2)cc1=Cc1[n-]c(=O)[n-]c1O (3D coordinates assigned)
C=c1ccc(C(=O)[N-]C2(C(=O)N3CCN(C(=O)C4CC4)CC3)CC2)cc1=Cc1[n-]c(=O)[n-]c1O (nonaromatic ring conformer: 646.2732243797335 kcal/mol)

> <smiles>
C=c1ccc(C(=O)NC2(C(=O)N3CCN(C(=O)C4CC4)CC3)CC2)cc1=Cc1[nH]c(=O)[nH]c1O

> <score_type>
oracle

> <origin>
adg

> <m_score__min__energy>
-16.359999999999999

> <m_primary>
energy

> <minimizedAffinity>
-6.49356

> <minimizedRMSD>
1.14160

> <CNNscore>
0.2640574574

> <CNNaffinity>
6.4282226562

> <CNN_VS>
1.6974201202

> <CNNaffinity_variance>
0.1851024181

$$$$
49:0


 32 34  0  0  0  0  0  0  0  0999 V2000
   58.2007   32.8858   46.2370 C   0  0  0  0  0  0  0  0  0  0  0  0
   58.6200   32.3420   47.4570 C   0  0  0  0  0  0  0  0  0  0  0  0
   59.5814   32.9982   48.2375 C   0  0  0  0  0  0  0  0  0  0  0  0
   60.1269   34.2058   47.7899 C   0  0  0  0  0  0  0  0  0  0  0  0
   59.7439   34.7357   46.5561 C   0  0  0  0  0  0  0  0  0  0  0  0
   58.8053   34.0711   45.7593 C   0  0  0  0  0  0  0  0  0  0  0  0
   58.5265   34.5895   44.4946 O   0  0  0  0  0  0  0  0  0  0  0  0
   58.9448   35.3777   44.2087 H   0  0  0  0  0  0  0  0  0  0  0  0
   60.0855   32.3286   49.7863 S   0  0  0  0  0  0  0  0  0  0  0  0
   60.2438   33.4370   50.7905 O   0  0  0  0  0  0  0  0  0  0  0  0
   59.0167   31.3906   50.2743 O   0  0  0  0  0  0  0  0  0  0  0  0
   61.5994   31.4737   49.5742 N   0  0  0  0  0  0  0  0  0  0  0  0
   61.9387   31.2922   48.1378 C   0  0  0  0  0  0  0  0  0  0  0  0
   63.2171   32.0280   47.6954 C   0  0  0  0  0  0  0  0  0  0  0  0
   63.2670   33.4349   48.2901 C   0  0  0  0  0  0  0  0  0  0  0  0
   63.1707   33.4170   49.8265 C   0  0  0  0  0  0  0  0  0  0  0  0
   62.6819   32.0655   50.3842 C   0  0  0  0  0  0  0  0  0  0  0  0
   57.1783   32.1991   45.5047 N   0  0  0  0  0  0  0  0  0  0  0  0
   57.3126   30.8770   44.9688 C   0  0  0  0  0  0  0  0  0  0  0  0
   56.2939   30.1694   44.7431 O   0  0  0  0  0  0  0  0  0  0  0  0
   58.6760   30.3030   44.7512 C   0  0  0  0  0  0  0  0  0  0  0  0
   58.1260   26.8757   46.3298 C   0  0  0  0  0  0  0  0  0  0  0  0
   59.1640   26.8428   47.2727 C   0  0  0  0  0  0  0  0  0  0  0  0
   60.0450   27.9212   47.3850 C   0  0  0  0  0  0  0  0  0  0  0  0
   59.8951   29.0376   46.5595 C   0  0  0  0  0  0  0  0  0  0  0  0
   58.8624   29.0831   45.6101 C   0  0  0  0  0  0  0  0  0  0  0  0
   57.9708   28.0015   45.5099 C   0  0  0  0  0  0  0  0  0  0  0  0
   55.3878   26.1358   46.0647 N   0  0  0  0  0  0  0  0  0  0  0  0
   57.0008   25.5295   46.1957 S   0  0  0  0  0  0  0  0  0  0  0  0
   57.1055   24.6480   47.4075 O   0  0  0  0  0  0  0  0  0  0  0  0
   57.3340   24.7135   44.9771 O   0  0  0  0  0  0  0  0  0  0  0  0
   54.7363   25.3549   45.9870 H   0  0  0  0  0  0  0  0  0  0  0  0
 28 29  1  0
 29 30  2  0
 29 31  2  0
 29 22  1  0
 22 23  2  0
 23 24  1  0
 24 25  2  0
 25 26  1  0
 26 21  1  0
 21 19  1  0
 19 20  2  0
 19 18  1  0
 18  1  1  0
  1  2  2  0
  2  3  1  0
  3  9  1  0
  9 10  2  0
  9 11  2  0
  9 12  1  0
 12 13  1  0
 13 14  1  0
 14 15  1  0
 15 16  1  0
 16 17  1  0
  3  4  2  0
  4  5  1  0
  5  6  2  0
  6  7  1  0
 26 27  2  0
 27 22  1  0
  6  1  1  0
 17 12  1  0
 28 32  1  0
  7  8  1  0
M  CHG 1  18  -1
M  CHG 1  28  -1
M  END
> <UniqueID>
48

> <SMILES>
[NH-]S(=O)(=O)c1cccc(CC(=O)[N-]c2cc(S(=O)(=O)N3CCCCC3)ccc2O)c1

> <Energy>
63.68760221265007

> <Genealogy>
[NH-]S(=O)(=O)c1cccc(CC(=O)[N-]c2cc(S(=O)(=O)N3CCCCC3)ccc2O)c1 (protonated)
[NH-]S(=O)(=O)c1cccc(CC(=O)[N-]c2cc(S(=O)(=O)N3CCCCC3)ccc2O)c1 (3D coordinates assigned)
[NH-]S(=O)(=O)c1cccc(CC(=O)[N-]c2cc(S(=O)(=O)N3CCCCC3)ccc2O)c1 (nonaromatic ring conformer: 63.68760221265007 kcal/mol)

> <smiles>
NS(=O)(=O)c1cccc(CC(=O)Nc2cc(S(=O)(=O)N3CCCCC3)ccc2O)c1

> <score_type>
oracle

> <origin>
adg

> <m_score__min__energy>
-14.09

> <m_primary>
energy

> <minimizedAffinity>
-9.32735

> <minimizedRMSD>
0.62256

> <CNNscore>
0.7710941434

> <CNNaffinity>
7.3301606178

> <CNN_VS>
5.6522440910

> <CNNaffinity_variance>
0.1335197687

$$$$
51:0


 31 33  0  0  0  0  0  0  0  0999 V2000
   57.0347   29.1083   54.1162 C   0  0  0  0  0  0  0  0  0  0  0  0
   57.3763   27.9035   54.2681 O   0  0  0  0  0  0  0  0  0  0  0  0
   57.9922   30.0645   53.6150 N   0  0  0  0  0  0  0  0  0  0  0  0
   59.1216   29.5734   52.8081 C   0  0  0  0  0  0  0  0  0  0  0  0
   60.1118   30.6958   52.4849 C   0  0  0  0  0  0  0  0  0  0  0  0
   59.3754   31.8884   52.0568 N   0  0  0  0  0  0  0  0  0  0  0  0
   59.7040   32.5717   50.8395 C   0  0  0  0  0  0  0  0  0  0  0  0
   59.8394   33.8257   50.8472 O   0  0  0  0  0  0  0  0  0  0  0  0
   58.2868   32.4120   52.8919 C   0  0  0  0  0  0  0  0  0  0  0  0
   57.9648   31.4686   54.0605 C   0  0  0  0  0  0  0  0  0  0  0  0
   53.2376   30.7534   56.6270 C   0  0  0  0  0  0  0  0  0  0  0  0
   53.9358   30.1601   55.6463 C   0  0  0  0  0  0  0  0  0  0  0  0
   53.4753   29.8353   54.3610 C   0  0  0  0  0  0  0  0  0  0  0  0
   52.2313   29.8177   53.8444 C   0  0  0  0  0  0  0  0  0  0  0  0
   54.5922   29.4724   53.6312 C   0  0  0  0  0  0  0  0  0  0  0  0
   55.6650   29.5011   54.4970 C   0  0  0  0  0  0  0  0  0  0  0  0
   55.2732   29.9282   55.7211 N   0  0  0  0  0  0  0  0  0  0  0  0
   56.1499   30.2567   56.8532 C   0  0  0  0  0  0  0  0  0  0  0  0
   51.8662   30.2140   52.4745 C   0  0  0  0  0  0  0  0  0  0  0  0
   52.0579   29.4545   51.3793 N   0  0  0  0  0  0  0  0  0  0  0  0
   51.7296   30.2821   50.3642 C   0  0  0  0  0  0  0  0  0  0  0  0
   51.7676   29.9235   49.1576 O   0  0  0  0  0  0  0  0  0  0  0  0
   51.3681   31.5258   50.7422 N   0  0  0  0  0  0  0  0  0  0  0  0
   51.4742   31.4689   52.0806 C   0  0  0  0  0  0  0  0  0  0  0  0
   51.2242   32.5453   52.9225 O   0  0  0  0  0  0  0  0  0  0  0  0
   59.7336   31.8421   49.5272 C   0  0  0  0  0  0  0  0  0  0  0  0
   58.4165   32.0615   48.7756 C   0  0  0  0  0  0  0  0  0  0  0  0
   58.7111   32.8280   47.1899 S   0  0  0  0  0  0  0  0  0  0  0  0
   57.3976   33.1081   46.5116 O   0  0  0  0  0  0  0  0  0  0  0  0
   59.5353   31.9129   46.3244 O   0  0  0  0  0  0  0  0  0  0  0  0
   59.5909   34.3570   47.4290 C   0  0  0  0  0  0  0  0  0  0  0  0
 11 12  2  0
 12 13  1  0
 13 14  2  0
 14 19  1  0
 19 20  1  0
 20 21  1  0
 21 22  2  0
 21 23  1  0
 23 24  1  0
 24 25  1  0
 13 15  1  0
 15 16  2  0
 16  1  1  0
  1  2  2  0
  1  3  1  0
  3  4  1  0
  4  5  1  0
  5  6  1  0
  6  7  1  0
  7  8  2  0
  7 26  1  0
 26 27  1  0
 27 28  1  0
 28 29  2  0
 28 30  2  0
 28 31  1  0
  6  9  1  0
  9 10  1  0
 16 17  1  0
 17 18  1  0
 17 12  1  0
 24 19  2  0
 10  3  1  0
M  CHG 1  20  -1
M  CHG 1  23  -1
M  CHG 1  25  -1
M  END
> <UniqueID>
50

> <SMILES>
C=c1/c(=C\c2[n-]c(=O)[n-]c2[O-])cc(C(=O)N2CCN(C(=O)CCS(C)(=O)=O)CC2)n1C

> <Energy>
120.98053527629224

> <Genealogy>
C=c1c(=Cc2[n-]c(=O)[n-]c2[O-])cc(C(=O)N2CCN(C(=O)CCS(C)(=O)=O)CC2)n1C (protonated)
C=c1/c(=C\c2[n-]c(=O)[n-]c2[O-])cc(C(=O)N2CCN(C(=O)CCS(C)(=O)=O)CC2)n1C (cis-trans isomerization)
C=c1/c(=C\c2[n-]c(=O)[n-]c2[O-])cc(C(=O)N2CCN(C(=O)CCS(C)(=O)=O)CC2)n1C (3D coordinates assigned)
C=c1/c(=C\c2[n-]c(=O)[n-]c2[O-])cc(C(=O)N2CCN(C(=O)CCS(C)(=O)=O)CC2)n1C (nonaromatic ring conformer: 120.98053527629224 kcal/mol)

> <smiles>
C=c1c(=Cc2[nH]c(=O)[nH]c2O)cc(C(=O)N2CCN(C(=O)CCS(C)(=O)=O)CC2)n1C

> <score_type>
oracle

> <origin>
adg

> <m_score__min__energy>
-17.309999999999999

> <m_primary>
energy

> <minimizedAffinity>
-5.77444

> <minimizedRMSD>
1.66181

> <CNNscore>
0.0885193795

> <CNNaffinity>
5.1577534676

> <CNN_VS>
0.4565611482

> <CNNaffinity_variance>
0.2040861398

$$$$
61:0


 31 34  0  0  0  0  0  0  0  0999 V2000
   60.9498   29.4894   49.5503 C   0  0  0  0  0  0  0  0  0  0  0  0
   59.2773   27.1165   48.6775 C   0  0  0  0  0  0  0  0  0  0  0  0
   59.9028   27.9343   47.8142 C   0  0  0  0  0  0  0  0  0  0  0  0
   59.8260   27.8838   46.4115 C   0  0  0  0  0  0  0  0  0  0  0  0
   59.3018   26.9586   45.5826 C   0  0  0  0  0  0  0  0  0  0  0  0
   60.4396   29.0340   45.9490 C   0  0  0  0  0  0  0  0  0  0  0  0
   60.9212   29.7035   47.0530 C   0  0  0  0  0  0  0  0  0  0  0  0
   61.6907   30.9893   46.9924 C   0  0  0  0  0  0  0  0  0  0  0  0
   60.6077   29.0394   48.1897 N   0  0  0  0  0  0  0  0  0  0  0  0
   58.2847   25.9603   45.9417 C   0  0  0  0  0  0  0  0  0  0  0  0
   58.5769   24.7025   46.3173 N   0  0  0  0  0  0  0  0  0  0  0  0
   57.3727   24.1891   46.6527 C   0  0  0  0  0  0  0  0  0  0  0  0
   57.2282   23.0030   47.0482 O   0  0  0  0  0  0  0  0  0  0  0  0
   56.3372   25.0499   46.5400 N   0  0  0  0  0  0  0  0  0  0  0  0
   56.9335   26.1715   46.1037 C   0  0  0  0  0  0  0  0  0  0  0  0
   56.2605   27.3676   45.8810 O   0  0  0  0  0  0  0  0  0  0  0  0
   59.7985   30.2458   50.1870 C   0  0  0  0  0  0  0  0  0  0  0  0
   58.9263   29.5403   51.0375 C   0  0  0  0  0  0  0  0  0  0  0  0
   57.8729   30.1885   51.6836 C   0  0  0  0  0  0  0  0  0  0  0  0
   57.6807   31.5549   51.5074 C   0  0  0  0  0  0  0  0  0  0  0  0
   58.5397   32.2800   50.6828 C   0  0  0  0  0  0  0  0  0  0  0  0
   59.6010   31.6460   50.0102 C   0  0  0  0  0  0  0  0  0  0  0  0
   60.5098   32.4989   49.1467 C   0  0  0  0  0  0  0  0  0  0  0  0
   59.7539   33.5523   48.3715 C   0  0  0  0  0  0  0  0  0  0  0  0
   59.8000   34.7553   48.7575 O   0  0  0  0  0  0  0  0  0  0  0  0
   58.9510   33.2038   47.2220 N   0  0  0  0  0  0  0  0  0  0  0  0
   58.3960   31.8490   47.0760 C   0  0  0  0  0  0  0  0  0  0  0  0
   58.0651   31.5596   45.6088 C   0  0  0  0  0  0  0  0  0  0  0  0
   57.2730   32.5917   45.0561 O   0  0  0  0  0  0  0  0  0  0  0  0
   58.0246   33.7896   45.0175 C   0  0  0  0  0  0  0  0  0  0  0  0
   58.3332   34.2788   46.4347 C   0  0  0  0  0  0  0  0  0  0  0  0
  2  3  2  0
  3  4  1  0
  4  5  2  0
  5 10  1  0
 10 11  1  0
 11 12  1  0
 12 13  2  0
 12 14  1  0
 14 15  1  0
 15 16  1  0
  4  6  1  0
  6  7  2  0
  7  8  1  0
  7  9  1  0
  9  1  1  0
  1 17  1  0
 17 18  2  0
 18 19  1  0
 19 20  2  0
 20 21  1  0
 21 22  2  0
 22 23  1  0
 23 24  1  0
 24 25  2  0
 24 26  1  0
 26 27  1  0
 27 28  1  0
 28 29  1  0
 29 30  1  0
 30 31  1  0
  9  3  1  0
 22 17  1  0
 31 26  1  0
 15 10  2  0
M  CHG 1  11  -1
M  CHG 1  14  -1
M  CHG 1  16  -1
M  END
> <UniqueID>
57

> <SMILES>
C=c1/c(=C\c2[n-]c(=O)[n-]c2[O-])cc(C)n1Cc1ccccc1CC(=O)N1CCOCC1

> <Energy>
131.43279194889004

> <Genealogy>
C=c1c(=Cc2[n-]c(=O)[n-]c2[O-])cc(C)n1Cc1ccccc1CC(=O)N1CCOCC1 (protonated)
C=c1/c(=C\c2[n-]c(=O)[n-]c2[O-])cc(C)n1Cc1ccccc1CC(=O)N1CCOCC1 (cis-trans isomerization)
C=c1/c(=C\c2[n-]c(=O)[n-]c2[O-])cc(C)n1Cc1ccccc1CC(=O)N1CCOCC1 (3D coordinates assigned)
C=c1/c(=C\c2[n-]c(=O)[n-]c2[O-])cc(C)n1Cc1ccccc1CC(=O)N1CCOCC1 (nonaromatic ring conformer: 131.43279194889004 kcal/mol)

> <smiles>
C=c1c(=Cc2[nH]c(=O)[nH]c2O)cc(C)n1Cc1ccccc1CC(=O)N1CCOCC1

> <score_type>
oracle

> <origin>
adg

> <m_score__min__energy>
-16.399999999999999

> <m_primary>
energy

> <minimizedAffinity>
-5.87055

> <minimizedRMSD>
0.98515

> <CNNscore>
0.1613025367

> <CNNaffinity>
6.1818470955

> <CNN_VS>
0.9971476197

> <CNNaffinity_variance>
0.1489664465

$$$$
62:0


 33 36  0  0  0  0  0  0  0  0999 V2000
   58.4331   29.6474   52.9037 C   0  0  0  0  0  0  0  0  0  0  0  0
   59.2471   29.6619   54.0399 C   0  0  0  0  0  0  0  0  0  0  0  0
   60.6350   29.6782   53.9043 C   0  0  0  0  0  0  0  0  0  0  0  0
   61.2149   29.6796   52.6312 C   0  0  0  0  0  0  0  0  0  0  0  0
   60.4109   29.6718   51.4762 C   0  0  0  0  0  0  0  0  0  0  0  0
   59.0101   29.6528   51.6261 C   0  0  0  0  0  0  0  0  0  0  0  0
   56.4920   31.8096   52.3649 C   0  0  0  0  0  0  0  0  0  0  0  0
   56.1186   30.5818   52.7628 C   0  0  0  0  0  0  0  0  0  0  0  0
   54.8268   30.1573   53.1137 C   0  0  0  0  0  0  0  0  0  0  0  0
   53.6249   30.7466   52.9573 C   0  0  0  0  0  0  0  0  0  0  0  0
   54.9792   28.9071   53.6999 C   0  0  0  0  0  0  0  0  0  0  0  0
   56.3175   28.5859   53.6181 C   0  0  0  0  0  0  0  0  0  0  0  0
   56.9380   27.3396   54.1744 C   0  0  0  0  0  0  0  0  0  0  0  0
   57.0051   29.5949   53.0472 N   0  0  0  0  0  0  0  0  0  0  0  0
   52.8189   30.7674   51.7219 C   0  0  0  0  0  0  0  0  0  0  0  0
   52.9101   29.8594   50.7281 N   0  0  0  0  0  0  0  0  0  0  0  0
   51.8799   30.1865   49.9141 C   0  0  0  0  0  0  0  0  0  0  0  0
   51.6417   29.5658   48.8427 O   0  0  0  0  0  0  0  0  0  0  0  0
   51.1264   31.2193   50.3394 N   0  0  0  0  0  0  0  0  0  0  0  0
   51.7258   31.5638   51.4903 C   0  0  0  0  0  0  0  0  0  0  0  0
   51.2715   32.5816   52.3236 O   0  0  0  0  0  0  0  0  0  0  0  0
   61.0509   29.6278   50.1351 C   0  0  0  0  0  0  0  0  0  0  0  0
   61.3795   28.5031   49.6588 O   0  0  0  0  0  0  0  0  0  0  0  0
   61.2744   30.8251   49.3470 N   0  0  0  0  0  0  0  0  0  0  0  0
   60.5758   31.9577   49.9983 C   0  0  0  0  0  0  0  0  0  0  0  0
   60.6370   33.2099   49.1251 C   0  0  0  0  0  0  0  0  0  0  0  0
   59.9111   32.9547   47.8823 N   0  0  0  0  0  0  0  0  0  0  0  0
   59.9941   31.6364   47.3141 C   0  0  0  0  0  0  0  0  0  0  0  0
   59.2878   31.3292   46.3132 O   0  0  0  0  0  0  0  0  0  0  0  0
   60.9143   30.5952   47.9112 C   0  0  0  0  0  0  0  0  0  0  0  0
   61.8568   30.0441   49.2051 H   0  0  0  0  0  0  0  0  0  0  0  0
   59.0242   33.9775   47.3025 C   0  0  0  0  0  0  0  0  0  0  0  0
   59.7715   34.7952   46.2538 C   0  0  0  0  0  0  0  0  0  0  0  0
  7  8  2  0
  8  9  1  0
  9 10  2  0
 10 15  1  0
 15 16  1  0
 16 17  1  0
 17 18  2  0
 17 19  1  0
 19 20  1  0
 20 21  1  0
  9 11  1  0
 11 12  2  0
 12 13  1  0
 12 14  1  0
 14  1  1  0
  1  2  2  0
  2  3  1  0
  3  4  2  0
  4  5  1  0
  5 22  1  0
 22 23  2  0
 24 22  1  0
 24 25  1  0
 25 26  1  0
 26 27  1  0
 27 32  1  0
 32 33  1  0
 27 28  1  0
 28 29  2  0
 28 30  1  0
  5  6  2  0
 14  8  1  0
  6  1  1  0
 20 15  2  0
 30 24  1  0
 24 31  1  0
M  CHG 1  16  -1
M  CHG 1  19  -1
M  CHG 1  21  -1
M  CHG 1  24   1
M  END
> <UniqueID>
58

> <SMILES>
C=c1c(=Cc2[n-]c(=O)[n-]c2[O-])cc(C)n1-c1cccc(C(=O)[N@@H+]2CCN(CC)C(=O)C2)c1

> <Energy>
142.8664530304229

> <Genealogy>
C=c1c(=Cc2[n-]c(=O)[n-]c2[O-])cc(C)n1-c1cccc(C(=O)[NH+]2CCN(CC)C(=O)C2)c1 (protonated)
C=c1c(=Cc2[n-]c(=O)[n-]c2[O-])cc(C)n1-c1cccc(C(=O)[N@@H+]2CCN(CC)C(=O)C2)c1 (chirality)
C=c1c(=Cc2[n-]c(=O)[n-]c2[O-])cc(C)n1-c1cccc(C(=O)[N@@H+]2CCN(CC)C(=O)C2)c1 (3D coordinates assigned)
C=c1c(=Cc2[n-]c(=O)[n-]c2[O-])cc(C)n1-c1cccc(C(=O)[N@@H+]2CCN(CC)C(=O)C2)c1 (nonaromatic ring conformer: 142.8664530304229 kcal/mol)

> <smiles>
C=c1c(=Cc2[nH]c(=O)[nH]c2O)cc(C)n1-c1cccc(C(=O)N2CCN(CC)C(=O)C2)c1

> <score_type>
oracle

> <origin>
adg

> <m_score__min__energy>
-15.84

> <m_primary>
energy

> <minimizedAffinity>
-5.95369

> <minimizedRMSD>
0.81368

> <CNNscore>
0.0626821369

> <CNNaffinity>
5.4615283012

> <CNN_VS>
0.3423402607

> <CNNaffinity_variance>
0.1832999438

$$$$
68:0


 22 23  0  0  0  0  0  0  0  0999 V2000
   56.8021   29.2742   44.1873 C   0  0  0  0  0  0  0  0  0  0  0  0
   57.7411   29.1691   45.1517 C   0  0  0  0  0  0  0  0  0  0  0  0
   58.2135   30.3576   45.7731 C   0  0  0  0  0  0  0  0  0  0  0  0
   58.9454   30.2736   46.9685 C   0  0  0  0  0  0  0  0  0  0  0  0
   59.2144   29.0374   47.5594 C   0  0  0  0  0  0  0  0  0  0  0  0
   58.8049   27.8642   46.9214 C   0  0  0  0  0  0  0  0  0  0  0  0
   58.1600   27.8978   45.6691 C   0  0  0  0  0  0  0  0  0  0  0  0
   58.0089   26.7066   45.0334 C   0  0  0  0  0  0  0  0  0  0  0  0
   57.4336   25.4790   45.6203 C   0  0  0  0  0  0  0  0  0  0  0  0
   58.1180   24.3438   45.8600 N   0  0  0  0  0  0  0  0  0  0  0  0
   57.2137   23.5632   46.4916 C   0  0  0  0  0  0  0  0  0  0  0  0
   57.4792   22.3943   46.8732 O   0  0  0  0  0  0  0  0  0  0  0  0
   56.0076   24.1366   46.6874 N   0  0  0  0  0  0  0  0  0  0  0  0
   56.1682   25.3529   46.1406 C   0  0  0  0  0  0  0  0  0  0  0  0
   55.1790   26.3279   46.1213 O   0  0  0  0  0  0  0  0  0  0  0  0
   59.9231   28.9734   48.8867 C   0  0  0  0  0  0  0  0  0  0  0  0
   60.5279   27.5908   49.1080 C   0  0  0  0  0  0  0  0  0  0  0  0
   57.8959   31.6409   45.2032 N   0  0  0  0  0  0  0  0  0  0  0  0
   58.0551   33.1752   45.9957 S   0  0  0  0  0  0  0  0  0  0  0  0
   59.7805   33.5836   46.1163 C   0  0  0  0  0  0  0  0  0  0  0  0
   57.4707   33.1001   47.3783 O   0  0  0  0  0  0  0  0  0  0  0  0
   57.3535   34.2389   45.1981 O   0  0  0  0  0  0  0  0  0  0  0  0
  1  2  2  0
  2  3  1  0
  3 18  1  0
 18 19  1  0
 19 20  1  0
 19 21  2  0
 19 22  2  0
  3  4  2  0
  4  5  1  0
  5 16  1  0
 16 17  1  0
  5  6  2  0
  6  7  1  0
  7  8  2  0
  8  9  1  0
  9 10  1  0
 10 11  1  0
 11 12  2  0
 11 13  1  0
 13 14  1  0
 14 15  1  0
  7  2  1  0
 14  9  2  0
M  CHG 1  10  -1
M  CHG 1  13  -1
M  CHG 1  15  -1
M  CHG 1  18  -1
M  END
> <UniqueID>
64

> <SMILES>
C=c1c([N-]S(C)(=O)=O)cc(CC)cc1=Cc1[n-]c(=O)[n-]c1[O-]

> <Energy>
82.74663620518942

> <Genealogy>
C=c1c([N-]S(C)(=O)=O)cc(CC)cc1=Cc1[n-]c(=O)[n-]c1[O-] (protonated)
C=c1c([N-]S(C)(=O)=O)cc(CC)cc1=Cc1[n-]c(=O)[n-]c1[O-] (3D coordinates assigned)
C=c1c([N-]S(C)(=O)=O)cc(CC)cc1=Cc1[n-]c(=O)[n-]c1[O-] (optimized conformer: 82.74663620518942 kcal/mol)

> <smiles>
C=c1c(NS(C)(=O)=O)cc(CC)cc1=Cc1[nH]c(=O)[nH]c1O

> <score_type>
oracle

> <origin>
adg

> <m_score__min__energy>
-16.09

> <m_primary>
energy

> <minimizedAffinity>
-7.29776

> <minimizedRMSD>
0.75609

> <CNNscore>
0.3758929372

> <CNNaffinity>
6.0942873955

> <CNN_VS>
2.2907996178

> <CNNaffinity_variance>
0.0876891613

$$$$
72:0


 34 38  0  0  0  0  0  0  0  0999 V2000
   61.7941   31.7436   49.4313 C   0  0  0  0  0  0  0  0  0  0  0  0
   63.0668   31.3974   49.9198 C   0  0  0  0  0  0  0  0  0  0  0  0
   63.9197   32.3735   50.4347 C   0  0  0  0  0  0  0  0  0  0  0  0
   63.5080   33.7041   50.4755 C   0  0  0  0  0  0  0  0  0  0  0  0
   62.2405   34.0649   50.0059 C   0  0  0  0  0  0  0  0  0  0  0  0
   61.3727   33.0988   49.4641 C   0  0  0  0  0  0  0  0  0  0  0  0
   61.5362   30.6375   46.6808 C   0  0  0  0  0  0  0  0  0  0  0  0
   60.8410   30.1699   47.7282 C   0  0  0  0  0  0  0  0  0  0  0  0
   59.9223   29.1129   47.7199 C   0  0  0  0  0  0  0  0  0  0  0  0
   59.6416   28.2889   46.6922 C   0  0  0  0  0  0  0  0  0  0  0  0
   59.4195   29.0247   49.0099 C   0  0  0  0  0  0  0  0  0  0  0  0
   60.0451   30.0145   49.7429 C   0  0  0  0  0  0  0  0  0  0  0  0
   59.8079   30.2751   51.2024 C   0  0  0  0  0  0  0  0  0  0  0  0
   60.9254   30.6909   48.9742 N   0  0  0  0  0  0  0  0  0  0  0  0
   58.5682   27.2773   46.7048 C   0  0  0  0  0  0  0  0  0  0  0  0
   58.6256   26.1489   47.4358 N   0  0  0  0  0  0  0  0  0  0  0  0
   57.4880   25.5006   47.1103 C   0  0  0  0  0  0  0  0  0  0  0  0
   57.1675   24.3926   47.6156 O   0  0  0  0  0  0  0  0  0  0  0  0
   56.7220   26.1342   46.1974 N   0  0  0  0  0  0  0  0  0  0  0  0
   57.4234   27.2499   45.9409 C   0  0  0  0  0  0  0  0  0  0  0  0
   57.0443   28.1994   44.9994 O   0  0  0  0  0  0  0  0  0  0  0  0
   60.0433   33.5389   48.9697 C   0  0  0  0  0  0  0  0  0  0  0  0
   59.2332   34.0447   49.7969 O   0  0  0  0  0  0  0  0  0  0  0  0
   59.6864   33.4739   47.5673 N   0  0  0  0  0  0  0  0  0  0  0  0
   58.4411   32.6986   47.3785 C   0  0  0  0  0  0  0  0  0  0  0  0
   58.2151   32.4743   45.9178 C   0  0  0  0  0  0  0  0  0  0  0  0
   57.6539   31.2810   45.4427 C   0  0  0  0  0  0  0  0  0  0  0  0
   57.5186   31.0650   44.0690 C   0  0  0  0  0  0  0  0  0  0  0  0
   57.9260   32.0458   43.1641 C   0  0  0  0  0  0  0  0  0  0  0  0
   58.4538   33.2562   43.6291 C   0  0  0  0  0  0  0  0  0  0  0  0
   58.6064   33.4788   45.0082 C   0  0  0  0  0  0  0  0  0  0  0  0
   59.1420   34.8114   45.4973 C   0  0  0  0  0  0  0  0  0  0  0  0
   59.5259   34.8305   47.0056 C   0  0  0  0  0  0  0  0  0  0  0  0
   60.2049   32.9620   46.9051 H   0  0  0  0  0  0  0  0  0  0  0  0
  7  8  2  0
  8  9  1  0
  9 10  2  0
 10 15  1  0
 15 16  1  0
 16 17  1  0
 17 18  2  0
 17 19  1  0
 19 20  1  0
 20 21  1  0
  9 11  1  0
 11 12  2  0
 12 13  1  0
 12 14  1  0
 14  1  1  0
  1  2  2  0
  2  3  1  0
  3  4  2  0
  4  5  1  0
  5  6  2  0
  6 22  1  0
 22 23  2  0
 24 22  1  0
 24 25  1  0
 25 26  1  0
 26 27  2  0
 27 28  1  0
 28 29  2  0
 29 30  1  0
 30 31  2  0
 31 32  1  0
 32 33  1  0
 14  8  1  0
  6  1  1  0
 33 24  1  0
 20 15  2  0
 31 26  1  0
 24 34  1  0
M  CHG 1  16  -1
M  CHG 1  19  -1
M  CHG 1  21  -1
M  CHG 1  24   1
M  END
> <UniqueID>
68

> <SMILES>
C=c1/c(=C/c2[n-]c(=O)[n-]c2[O-])cc(C)n1-c1ccccc1C(=O)[N@@H+]1CCc2ccccc2C1

> <Energy>
141.32379555337266

> <Genealogy>
C=c1c(=Cc2[n-]c(=O)[n-]c2[O-])cc(C)n1-c1ccccc1C(=O)[NH+]1CCc2ccccc2C1 (protonated)
C=c1c(=Cc2[n-]c(=O)[n-]c2[O-])cc(C)n1-c1ccccc1C(=O)[N@@H+]1CCc2ccccc2C1 (chirality)
C=c1/c(=C/c2[n-]c(=O)[n-]c2[O-])cc(C)n1-c1ccccc1C(=O)[N@@H+]1CCc2ccccc2C1 (cis-trans isomerization)
C=c1/c(=C/c2[n-]c(=O)[n-]c2[O-])cc(C)n1-c1ccccc1C(=O)[N@@H+]1CCc2ccccc2C1 (3D coordinates assigned)
C=c1/c(=C/c2[n-]c(=O)[n-]c2[O-])cc(C)n1-c1ccccc1C(=O)[N@@H+]1CCc2ccccc2C1 (nonaromatic ring conformer: 141.32379555337266 kcal/mol)

> <smiles>
C=c1c(=Cc2[nH]c(=O)[nH]c2O)cc(C)n1-c1ccccc1C(=O)N1CCc2ccccc2C1

> <score_type>
oracle

> <origin>
adg

> <m_score__min__energy>
-16.02

> <m_primary>
energy

> <minimizedAffinity>
-8.25857

> <minimizedRMSD>
1.16446

> <CNNscore>
0.1555107832

> <CNNaffinity>
6.5593414307

> <CNN_VS>
1.0200483799

> <CNNaffinity_variance>
0.2964147627

$$$$
79:0


 24 26  0  0  0  0  0  0  0  0999 V2000
   58.9402   32.0135   46.9340 N   0  0  0  0  0  0  0  0  0  0  0  0
   58.5691   33.4070   47.0052 C   0  0  0  0  0  0  0  0  0  0  0  0
   57.9163   33.9964   45.9993 C   0  0  0  0  0  0  0  0  0  0  0  0
   57.5672   33.2414   44.7846 C   0  0  0  0  0  0  0  0  0  0  0  0
   57.9906   31.9884   44.6120 C   0  0  0  0  0  0  0  0  0  0  0  0
   58.8352   31.3472   45.6436 C   0  0  0  0  0  0  0  0  0  0  0  0
   59.4685   30.2005   45.3205 C   0  0  0  0  0  0  0  0  0  0  0  0
   58.9252   28.8404   45.4800 C   0  0  0  0  0  0  0  0  0  0  0  0
   59.7851   27.7958   45.8441 C   0  0  0  0  0  0  0  0  0  0  0  0
   59.2766   26.5159   46.0693 C   0  0  0  0  0  0  0  0  0  0  0  0
   60.1129   25.4998   46.3977 F   0  0  0  0  0  0  0  0  0  0  0  0
   57.9011   26.2955   45.9533 C   0  0  0  0  0  0  0  0  0  0  0  0
   57.4233   25.1466   46.1454 O   0  0  0  0  0  0  0  0  0  0  0  0
   57.0735   27.3271   45.6369 N   0  0  0  0  0  0  0  0  0  0  0  0
   57.5430   28.5833   45.4126 C   0  0  0  0  0  0  0  0  0  0  0  0
   56.6448   29.6042   45.1230 O   0  0  0  0  0  0  0  0  0  0  0  0
   59.1405   31.3014   48.2106 C   0  0  0  0  0  0  0  0  0  0  0  0
   61.0032   29.8080   48.3988 O   0  0  0  0  0  0  0  0  0  0  0  0
   60.5951   30.9993   48.4676 C   0  0  0  0  0  0  0  0  0  0  0  0
   61.5118   32.0410   48.8469 N   0  0  0  0  0  0  0  0  0  0  0  0
   62.9497   31.8464   48.8877 C   0  0  0  0  0  0  0  0  0  0  0  0
   63.5379   33.2187   49.1863 C   0  0  0  0  0  0  0  0  0  0  0  0
   62.3867   34.0556   49.7405 C   0  0  0  0  0  0  0  0  0  0  0  0
   61.1090   33.3713   49.2703 C   0  0  0  0  0  0  0  0  0  0  0  0
 18 19  2  0
 19 17  1  0
 17  1  1  0
  1  2  1  0
  2  3  2  0
  3  4  1  0
  4  5  2  0
  5  6  1  0
  6  7  2  0
  7  8  1  0
  8  9  1  0
  9 10  2  0
 10 11  1  0
 10 12  1  0
 12 13  2  0
 12 14  1  0
 14 15  1  0
 15 16  1  0
 19 20  1  0
 20 21  1  0
 21 22  1  0
 22 23  1  0
 23 24  1  0
  6  1  1  0
 15  8  2  0
 24 20  1  0
M  CHG 1  14  -1
M  CHG 1  16  -1
M  END
> <UniqueID>
75

> <SMILES>
O=C(CN1C=CC=CC1=Cc1cc(F)c(=O)[n-]c1[O-])N1CCCC1

> <Energy>
51.579211088018326

> <Genealogy>
O=C(CN1C=CC=CC1=Cc1cc(F)c(=O)[n-]c1[O-])N1CCCC1 (protonated)
O=C(CN1C=CC=CC1=Cc1cc(F)c(=O)[n-]c1[O-])N1CCCC1 (3D coordinates assigned)
O=C(CN1C=CC=CC1=Cc1cc(F)c(=O)[n-]c1[O-])N1CCCC1 (nonaromatic ring conformer: 51.579211088018326 kcal/mol)

> <smiles>
O=C(CN1C=CC=CC1=Cc1cc(F)c(=O)[nH]c1O)N1CCCC1

> <score_type>
oracle

> <origin>
adg

> <m_score__min__energy>
-14.02

> <m_primary>
energy

> <minimizedAffinity>
-7.86768

> <minimizedRMSD>
1.92052

> <CNNscore>
0.5644744635

> <CNNaffinity>
6.6312537193

> <CNN_VS>
3.7431733608

> <CNNaffinity_variance>
0.1193098500

$$$$
85:0


 30 33  0  0  0  0  0  0  0  0999 V2000
   58.6472   31.3876   52.0007 C   0  0  0  0  0  0  0  0  0  0  0  0
   59.5921   31.3906   52.8364 O   0  0  0  0  0  0  0  0  0  0  0  0
   57.4029   30.6809   52.3756 C   0  0  0  0  0  0  0  0  0  0  0  0
   56.1263   31.1880   52.2253 C   0  0  0  0  0  0  0  0  0  0  0  0
   55.2572   30.2788   52.8168 C   0  0  0  0  0  0  0  0  0  0  0  0
   53.9140   30.3790   52.9173 C   0  0  0  0  0  0  0  0  0  0  0  0
   56.0602   29.2480   53.3177 C   0  0  0  0  0  0  0  0  0  0  0  0
   55.6384   28.1508   53.9676 C   0  0  0  0  0  0  0  0  0  0  0  0
   57.3635   29.5081   53.0501 N   0  0  0  0  0  0  0  0  0  0  0  0
   58.5148   28.6784   53.4249 C   0  0  0  0  0  0  0  0  0  0  0  0
   52.9688   30.5041   51.7851 C   0  0  0  0  0  0  0  0  0  0  0  0
   52.9584   29.7477   50.6745 N   0  0  0  0  0  0  0  0  0  0  0  0
   51.8964   30.2151   49.9825 C   0  0  0  0  0  0  0  0  0  0  0  0
   51.5593   29.7500   48.8634 O   0  0  0  0  0  0  0  0  0  0  0  0
   51.2234   31.2155   50.5855 N   0  0  0  0  0  0  0  0  0  0  0  0
   51.9117   31.3838   51.7244 C   0  0  0  0  0  0  0  0  0  0  0  0
   51.5748   32.3167   52.6971 O   0  0  0  0  0  0  0  0  0  0  0  0
   61.6257   31.8366   50.5355 N   0  0  0  0  0  0  0  0  0  0  0  0
   61.0858   33.1108   51.0648 C   0  0  0  0  0  0  0  0  0  0  0  0
   59.5779   33.2878   50.7994 C   0  0  0  0  0  0  0  0  0  0  0  0
   58.8468   32.0096   50.7014 N   0  0  0  0  0  0  0  0  0  0  0  0
   59.4104   31.0863   49.6832 C   0  0  0  0  0  0  0  0  0  0  0  0
   60.8938   31.3439   49.3551 C   0  0  0  0  0  0  0  0  0  0  0  0
   59.7091   31.8793   50.2446 H   0  0  0  0  0  0  0  0  0  0  0  0
   63.1134   31.8718   50.4282 C   0  0  0  0  0  0  0  0  0  0  0  0
   63.7556   33.2565   50.3075 C   0  0  0  0  0  0  0  0  0  0  0  0
   63.7866   32.3083   49.1164 C   0  0  0  0  0  0  0  0  0  0  0  0
   63.0266   29.7378   51.5072 O   0  0  0  0  0  0  0  0  0  0  0  0
   63.8768   30.8170   51.2382 C   0  0  0  0  0  0  0  0  0  0  0  0
   63.5063   29.0683   52.0196 H   0  0  0  0  0  0  0  0  0  0  0  0
 28 29  1  0
 29 25  1  0
 25 18  1  0
 18 19  1  0
 19 20  1  0
 20 21  1  0
 21  1  1  0
  1  2  2  0
  1  3  1  0
  3  4  2  0
  4  5  1  0
  5  6  2  0
  6 11  1  0
 11 12  1  0
 12 13  1  0
 13 14  2  0
 13 15  1  0
 15 16  1  0
 16 17  1  0
  5  7  1  0
  7  8  2  0
  7  9  1  0
  9 10  1  0
 21 22  1  0
 22 23  1  0
 25 26  1  0
 26 27  1  0
 27 25  1  0
 23 18  1  0
  9  3  1  0
 16 11  2  0
 28 30  1  0
 21 24  1  0
M  CHG 1  12  -1
M  CHG 1  15  -1
M  CHG 1  17  -1
M  CHG 1  21   1
M  END
> <UniqueID>
81

> <SMILES>
C=c1/c(=C/c2[n-]c(=O)[n-]c2[O-])cc(C(=O)[NH+]2CCN(C3(CO)CC3)CC2)n1C

> <Energy>
409.3701645469052

> <Genealogy>
C=c1c(=Cc2[n-]c(=O)[n-]c2[O-])cc(C(=O)[NH+]2CCN(C3(CO)CC3)CC2)n1C (protonated)
C=c1/c(=C/c2[n-]c(=O)[n-]c2[O-])cc(C(=O)[NH+]2CCN(C3(CO)CC3)CC2)n1C (cis-trans isomerization)
C=c1/c(=C/c2[n-]c(=O)[n-]c2[O-])cc(C(=O)[NH+]2CCN(C3(CO)CC3)CC2)n1C (3D coordinates assigned)
C=c1/c(=C/c2[n-]c(=O)[n-]c2[O-])cc(C(=O)[NH+]2CCN(C3(CO)CC3)CC2)n1C (nonaromatic ring conformer: 409.3701645469052 kcal/mol)

> <smiles>
C=c1c(=Cc2[nH]c(=O)[nH]c2O)cc(C(=O)N2CCN(C3(CO)CC3)CC2)n1C

> <score_type>
oracle

> <origin>
adg

> <m_score__min__energy>
-15.26

> <m_primary>
energy

> <minimizedAffinity>
-5.35933

> <minimizedRMSD>
1.83570

> <CNNscore>
0.0638843924

> <CNNaffinity>
4.2017292976

> <CNN_VS>
0.2684249282

> <CNNaffinity_variance>
0.7395506501

$$$$
90:0


 31 33  0  0  0  0  0  0  0  0999 V2000
   58.4342   28.4547   46.2884 C   0  0  0  0  0  0  0  0  0  0  0  0
   58.9918   29.2200   47.3311 C   0  0  0  0  0  0  0  0  0  0  0  0
   59.9180   28.6598   48.2104 C   0  0  0  0  0  0  0  0  0  0  0  0
   60.3070   27.3296   48.0636 C   0  0  0  0  0  0  0  0  0  0  0  0
   59.7752   26.5568   47.0311 C   0  0  0  0  0  0  0  0  0  0  0  0
   58.8359   27.0994   46.1339 C   0  0  0  0  0  0  0  0  0  0  0  0
   57.3956   29.1036   45.3975 C   0  0  0  0  0  0  0  0  0  0  0  0
   57.8295   30.4473   44.8950 C   0  0  0  0  0  0  0  0  0  0  0  0
   58.8267   30.5284   44.1309 O   0  0  0  0  0  0  0  0  0  0  0  0
   57.0670   31.6178   45.2128 N   0  0  0  0  0  0  0  0  0  0  0  0
   57.5658   32.9800   45.0456 C   0  0  0  0  0  0  0  0  0  0  0  0
   60.3011   33.9643   48.2022 C   0  0  0  0  0  0  0  0  0  0  0  0
   60.5313   34.4636   46.9189 C   0  0  0  0  0  0  0  0  0  0  0  0
   59.6431   34.1510   45.8897 C   0  0  0  0  0  0  0  0  0  0  0  0
   58.5274   33.3411   46.1459 C   0  0  0  0  0  0  0  0  0  0  0  0
   58.3324   32.8597   47.4497 C   0  0  0  0  0  0  0  0  0  0  0  0
   59.2119   33.1789   48.4361 N   0  0  0  0  0  0  0  0  0  0  0  0
   62.5576   33.8818   49.2206 C   0  0  0  0  0  0  0  0  0  0  0  0
   61.1926   34.2797   49.2313 O   0  0  0  0  0  0  0  0  0  0  0  0
   58.3888   26.2380   44.9704 C   0  0  0  0  0  0  0  0  0  0  0  0
   57.9784   24.8599   45.4285 C   0  0  0  0  0  0  0  0  0  0  0  0
   58.8295   24.0896   45.9489 O   0  0  0  0  0  0  0  0  0  0  0  0
   56.5733   24.4032   45.3161 C   0  0  0  0  0  0  0  0  0  0  0  0
   56.2427   23.2260   44.6083 C   0  0  0  0  0  0  0  0  0  0  0  0
   57.2928   22.3494   43.9866 C   0  0  0  0  0  0  0  0  0  0  0  0
   54.9400   22.8580   44.4878 N   0  0  0  0  0  0  0  0  0  0  0  0
   53.9418   23.5954   45.0380 C   0  0  0  0  0  0  0  0  0  0  0  0
   52.7461   23.2277   44.9096 O   0  0  0  0  0  0  0  0  0  0  0  0
   54.2350   24.7266   45.7238 N   0  0  0  0  0  0  0  0  0  0  0  0
   55.5163   25.1483   45.8729 C   0  0  0  0  0  0  0  0  0  0  0  0
   55.7366   26.2223   46.4913 O   0  0  0  0  0  0  0  0  0  0  0  0
 18 19  1  0
 19 12  1  0
 12 13  2  0
 13 14  1  0
 14 15  2  0
 15 11  1  0
 11 10  1  0
 10  8  1  0
  8  9  2  0
  8  7  1  0
  7  1  1  0
  1  2  2  0
  2  3  1  0
  3  4  2  0
  4  5  1  0
  5  6  2  0
  6 20  1  0
 20 21  1  0
 21 22  2  0
 21 23  1  0
 23 24  2  0
 24 25  1  0
 24 26  1  0
 26 27  1  0
 27 28  2  0
 27 29  1  0
 29 30  1  0
 30 31  2  0
 15 16  1  0
 16 17  2  0
 17 12  1  0
  6  1  1  0
 30 23  1  0
M  CHG 1  10  -1
M  CHG 1  26  -1
M  CHG 1  29  -1
M  END
> <UniqueID>
86

> <SMILES>
COc1ccc(C[N-]C(=O)Cc2ccccc2CC(=O)c2c(C)[n-]c(=O)[n-]c2=O)cn1

> <Energy>
51.40692643127848

> <Genealogy>
COc1ccc(C[N-]C(=O)Cc2ccccc2CC(=O)c2c(C)[n-]c(=O)[n-]c2=O)cn1 (protonated)
COc1ccc(C[N-]C(=O)Cc2ccccc2CC(=O)c2c(C)[n-]c(=O)[n-]c2=O)cn1 (3D coordinates assigned)
COc1ccc(C[N-]C(=O)Cc2ccccc2CC(=O)c2c(C)[n-]c(=O)[n-]c2=O)cn1 (optimized conformer: 51.40692643127848 kcal/mol)

> <smiles>
COc1ccc(CNC(=O)Cc2ccccc2CC(=O)c2c(C)[nH]c(=O)[nH]c2=O)cn1

> <score_type>
oracle

> <origin>
adg

> <m_score__min__energy>
-15.210000000000001

> <m_primary>
energy

> <minimizedAffinity>
-8.48760

> <minimizedRMSD>
0.69329

> <CNNscore>
0.5686054230

> <CNNaffinity>
7.1016826630

> <CNN_VS>
4.0380554199

> <CNNaffinity_variance>
0.0897140205

$$$$
2:0


 29 32  0  0  0  0  0  0  0  0999 V2000
   56.4804   30.2464   52.8796 C   0  0  0  0  0  0  0  0  0  0  0  0
   55.2534   30.5555   52.3345 C   0  0  0  0  0  0  0  0  0  0  0  0
   54.2908   30.1267   53.2269 C   0  0  0  0  0  0  0  0  0  0  0  0
   52.9726   30.1937   52.9559 C   0  0  0  0  0  0  0  0  0  0  0  0
   54.9836   29.6274   54.3417 C   0  0  0  0  0  0  0  0  0  0  0  0
   54.4375   29.2486   55.5108 C   0  0  0  0  0  0  0  0  0  0  0  0
   56.3271   29.6858   54.1087 N   0  0  0  0  0  0  0  0  0  0  0  0
   52.3759   30.5008   51.6477 C   0  0  0  0  0  0  0  0  0  0  0  0
   52.3807   29.6460   50.6100 N   0  0  0  0  0  0  0  0  0  0  0  0
   51.6269   30.2773   49.6831 C   0  0  0  0  0  0  0  0  0  0  0  0
   51.4052   29.7901   48.5438 O   0  0  0  0  0  0  0  0  0  0  0  0
   51.1177   31.4637   50.0777 N   0  0  0  0  0  0  0  0  0  0  0  0
   51.5894   31.5854   51.3283 C   0  0  0  0  0  0  0  0  0  0  0  0
   51.2821   32.6480   52.1687 O   0  0  0  0  0  0  0  0  0  0  0  0
   57.7479   30.4989   52.1652 C   0  0  0  0  0  0  0  0  0  0  0  0
   58.0179   29.9509   51.0655 O   0  0  0  0  0  0  0  0  0  0  0  0
   57.4148   29.2384   54.9997 C   0  0  0  0  0  0  0  0  0  0  0  0
   57.9392   27.8879   54.5811 C   0  0  0  0  0  0  0  0  0  0  0  0
   59.2525   27.7430   54.1177 C   0  0  0  0  0  0  0  0  0  0  0  0
   59.7321   26.4952   53.7120 C   0  0  0  0  0  0  0  0  0  0  0  0
   58.9032   25.3478   53.7422 C   0  0  0  0  0  0  0  0  0  0  0  0
   57.5745   25.5142   54.1988 C   0  0  0  0  0  0  0  0  0  0  0  0
   57.1020   26.7655   54.6028 C   0  0  0  0  0  0  0  0  0  0  0  0
   59.4027   24.0405   53.3209 N   0  0  0  0  0  0  0  0  0  0  0  0
   60.7960   23.9164   52.8449 C   0  0  0  0  0  0  0  0  0  0  0  0
   61.2049   22.4803   52.5080 C   0  0  0  0  0  0  0  0  0  0  0  0
   60.1464   21.7852   51.8955 O   0  0  0  0  0  0  0  0  0  0  0  0
   59.1376   21.5789   52.8561 C   0  0  0  0  0  0  0  0  0  0  0  0
   58.4642   22.9004   53.2367 C   0  0  0  0  0  0  0  0  0  0  0  0
 15 16  2  0
 15  1  1  0
  1  2  2  0
  2  3  1  0
  3  4  2  0
  4  8  1  0
  8  9  1  0
  9 10  1  0
 10 11  2  0
 10 12  1  0
 12 13  1  0
 13 14  1  0
  3  5  1  0
  5  6  2  0
  5  7  1  0
  7 17  1  0
 17 18  1  0
 18 19  2  0
 19 20  1  0
 20 21  2  0
 21 24  1  0
 24 25  1  0
 25 26  1  0
 26 27  1  0
 27 28  1  0
 28 29  1  0
 21 22  1  0
 22 23  2  0
  7  1  1  0
 23 18  1  0
 13  8  2  0
 29 24  1  0
M  CHG 1   9  -1
M  CHG 1  12  -1
M  CHG 1  14  -1
M  END
> <UniqueID>
3

> <SMILES>
C=c1/c(=C\c2[n-]c(=O)[n-]c2[O-])cc(C=O)n1Cc1ccc(N2CCOCC2)cc1

> <Energy>
131.86254021600737

> <Genealogy>
C=c1c(=Cc2[n-]c(=O)[n-]c2[O-])cc(C=O)n1Cc1ccc(N2CCOCC2)cc1 (protonated)
C=c1/c(=C\c2[n-]c(=O)[n-]c2[O-])cc(C=O)n1Cc1ccc(N2CCOCC2)cc1 (cis-trans isomerization)
C=c1/c(=C\c2[n-]c(=O)[n-]c2[O-])cc(C=O)n1Cc1ccc(N2CCOCC2)cc1 (3D coordinates assigned)
C=c1/c(=C\c2[n-]c(=O)[n-]c2[O-])cc(C=O)n1Cc1ccc(N2CCOCC2)cc1 (nonaromatic ring conformer: 131.86254021600737 kcal/mol)

> <smiles>
C=c1c(=Cc2[nH]c(=O)[nH]c2O)cc(C=O)n1Cc1ccc(N2CCOCC2)cc1

> <score_type>
oracle

> <origin>
adg

> <m_score__min__energy>
-16.16

> <m_primary>
energy

> <minimizedAffinity>
-4.68665

> <minimizedRMSD>
0.85378

> <CNNscore>
0.1680624336

> <CNNaffinity>
4.3450860977

> <CNN_VS>
0.7302457690

> <CNNaffinity_variance>
0.7277377248

$$$$
4:0


 33 36  0  0  0  0  0  0  0  0999 V2000
   58.2570   30.4849   51.9223 C   0  0  0  0  0  0  0  0  0  0  0  0
   58.5779   31.6884   51.7478 O   0  0  0  0  0  0  0  0  0  0  0  0
   54.8616   28.2133   54.5268 C   0  0  0  0  0  0  0  0  0  0  0  0
   55.4396   29.1142   53.7160 C   0  0  0  0  0  0  0  0  0  0  0  0
   54.7860   30.1220   52.9983 C   0  0  0  0  0  0  0  0  0  0  0  0
   53.4592   30.3658   52.9513 C   0  0  0  0  0  0  0  0  0  0  0  0
   55.7674   30.7779   52.2690 C   0  0  0  0  0  0  0  0  0  0  0  0
   56.9693   30.1699   52.5789 C   0  0  0  0  0  0  0  0  0  0  0  0
   56.7733   29.1618   53.4642 N   0  0  0  0  0  0  0  0  0  0  0  0
   57.8036   28.2716   54.0158 C   0  0  0  0  0  0  0  0  0  0  0  0
   52.6956   30.5574   51.7028 C   0  0  0  0  0  0  0  0  0  0  0  0
   52.7590   29.7040   50.6650 N   0  0  0  0  0  0  0  0  0  0  0  0
   51.8478   30.1966   49.7956 C   0  0  0  0  0  0  0  0  0  0  0  0
   51.6162   29.6636   48.6808 O   0  0  0  0  0  0  0  0  0  0  0  0
   51.1904   31.2951   50.2241 N   0  0  0  0  0  0  0  0  0  0  0  0
   51.7274   31.5042   51.4380 C   0  0  0  0  0  0  0  0  0  0  0  0
   51.3015   32.5043   52.3034 O   0  0  0  0  0  0  0  0  0  0  0  0
   59.1598   29.4624   51.4816 N   0  0  0  0  0  0  0  0  0  0  0  0
   60.3448   29.6786   50.6589 C   0  0  0  0  0  0  0  0  0  0  0  0
   60.0847   29.1556   49.2721 C   0  0  0  0  0  0  0  0  0  0  0  0
   60.4441   27.8362   48.9259 C   0  0  0  0  0  0  0  0  0  0  0  0
   60.1276   27.3291   47.6603 C   0  0  0  0  0  0  0  0  0  0  0  0
   59.4335   28.1203   46.7409 C   0  0  0  0  0  0  0  0  0  0  0  0
   59.0491   29.4305   47.0815 C   0  0  0  0  0  0  0  0  0  0  0  0
   59.4010   29.9542   48.3393 C   0  0  0  0  0  0  0  0  0  0  0  0
   58.2640   30.2494   46.1380 C   0  0  0  0  0  0  0  0  0  0  0  0
   57.3991   29.6724   45.4126 O   0  0  0  0  0  0  0  0  0  0  0  0
   58.4854   31.6770   46.0079 N   0  0  0  0  0  0  0  0  0  0  0  0
   59.8167   32.2342   46.3129 C   0  0  0  0  0  0  0  0  0  0  0  0
   59.7609   33.7649   46.4353 C   0  0  0  0  0  0  0  0  0  0  0  0
   59.0878   34.3361   45.3286 O   0  0  0  0  0  0  0  0  0  0  0  0
   57.7262   33.9577   45.3736 C   0  0  0  0  0  0  0  0  0  0  0  0
   57.5773   32.4481   45.1399 C   0  0  0  0  0  0  0  0  0  0  0  0
  3  4  2  0
  4  5  1  0
  5  6  2  0
  6 11  1  0
 11 12  1  0
 12 13  1  0
 13 14  2  0
 13 15  1  0
 15 16  1  0
 16 17  1  0
  5  7  1  0
  7  8  2  0
  8  1  1  0
  1  2  2  0
  1 18  1  0
 18 19  1  0
 19 20  1  0
 20 21  2  0
 21 22  1  0
 22 23  2  0
 23 24  1  0
 24 26  1  0
 26 27  2  0
 26 28  1  0
 28 29  1  0
 29 30  1  0
 30 31  1  0
 31 32  1  0
 32 33  1  0
 24 25  2  0
  8  9  1  0
  9 10  1  0
  9  4  1  0
 16 11  2  0
 25 20  1  0
 33 28  1  0
M  CHG 1  12  -1
M  CHG 1  15  -1
M  CHG 1  17  -1
M  CHG 1  18  -1
M  END
> <UniqueID>
5

> <SMILES>
C=c1c(=Cc2[n-]c(=O)[n-]c2[O-])cc(C(=O)[N-]Cc2cccc(C(=O)N3CCOCC3)c2)n1C

> <Energy>
133.65405987556565

> <Genealogy>
C=c1c(=Cc2[n-]c(=O)[n-]c2[O-])cc(C(=O)[N-]Cc2cccc(C(=O)N3CCOCC3)c2)n1C (protonated)
C=c1c(=Cc2[n-]c(=O)[n-]c2[O-])cc(C(=O)[N-]Cc2cccc(C(=O)N3CCOCC3)c2)n1C (3D coordinates assigned)
C=c1c(=Cc2[n-]c(=O)[n-]c2[O-])cc(C(=O)[N-]Cc2cccc(C(=O)N3CCOCC3)c2)n1C (nonaromatic ring conformer: 133.65405987556565 kcal/mol)

> <smiles>
C=c1c(=Cc2[nH]c(=O)[nH]c2O)cc(C(=O)NCc2cccc(C(=O)N3CCOCC3)c2)n1C

> <score_type>
oracle

> <origin>
adg

> <m_score__min__energy>
-20.170000000000002

> <m_primary>
energy

> <minimizedAffinity>
-7.87947

> <minimizedRMSD>
1.02804

> <CNNscore>
0.1077917591

> <CNNaffinity>
5.7399272919

> <CNN_VS>
0.6187168360

> <CNNaffinity_variance>
0.4131282568

$$$$
26:0


 34 38  0  0  0  0  0  0  0  0999 V2000
   60.0662   29.7024   47.9697 C   0  0  0  0  0  0  0  0  0  0  0  0
   60.3850   28.8219   49.0168 C   0  0  0  0  0  0  0  0  0  0  0  0
   59.9541   29.0879   50.3202 C   0  0  0  0  0  0  0  0  0  0  0  0
   59.1935   30.2339   50.5981 C   0  0  0  0  0  0  0  0  0  0  0  0
   58.8801   31.1177   49.5523 C   0  0  0  0  0  0  0  0  0  0  0  0
   59.3188   30.8564   48.2499 C   0  0  0  0  0  0  0  0  0  0  0  0
   58.7744   30.5236   51.9457 N   0  0  0  0  0  0  0  0  0  0  0  0
   59.5591   30.0682   53.0973 C   0  0  0  0  0  0  0  0  0  0  0  0
   58.7084   29.1546   53.9905 C   0  0  0  0  0  0  0  0  0  0  0  0
   57.2098   29.5841   54.1228 C   0  0  0  0  0  0  0  0  0  0  0  0
   57.0273   31.0498   53.6357 C   0  0  0  0  0  0  0  0  0  0  0  0
   57.4979   31.2094   52.1811 C   0  0  0  0  0  0  0  0  0  0  0  0
   56.7428   29.3848   55.5277 N   0  0  0  0  0  0  0  0  0  0  0  0
   55.2763   29.1837   55.6363 C   0  0  0  0  0  0  0  0  0  0  0  0
   54.9028   28.5382   56.9815 C   0  0  0  0  0  0  0  0  0  0  0  0
   55.4696   27.2500   57.1791 O   0  0  0  0  0  0  0  0  0  0  0  0
   56.6555   27.0331   56.4289 C   0  0  0  0  0  0  0  0  0  0  0  0
   57.4962   28.3084   56.2304 C   0  0  0  0  0  0  0  0  0  0  0  0
   60.5522   29.4313   46.5654 C   0  0  0  0  0  0  0  0  0  0  0  0
   60.2695   26.4553   46.4028 C   0  0  0  0  0  0  0  0  0  0  0  0
   59.4202   27.2954   45.7896 C   0  0  0  0  0  0  0  0  0  0  0  0
   58.3546   26.9455   44.9446 C   0  0  0  0  0  0  0  0  0  0  0  0
   57.7772   25.7540   44.6888 C   0  0  0  0  0  0  0  0  0  0  0  0
   57.9051   28.1266   44.3812 C   0  0  0  0  0  0  0  0  0  0  0  0
   58.6496   29.1457   44.9362 C   0  0  0  0  0  0  0  0  0  0  0  0
   58.4008   30.6035   44.6769 C   0  0  0  0  0  0  0  0  0  0  0  0
   59.5644   28.6484   45.8018 N   0  0  0  0  0  0  0  0  0  0  0  0
   57.1805   24.8532   45.6896 C   0  0  0  0  0  0  0  0  0  0  0  0
   57.8069   23.7961   46.2412 N   0  0  0  0  0  0  0  0  0  0  0  0
   56.9367   23.3759   47.1844 C   0  0  0  0  0  0  0  0  0  0  0  0
   57.1604   22.3767   47.9137 O   0  0  0  0  0  0  0  0  0  0  0  0
   55.8135   24.1183   47.2910 N   0  0  0  0  0  0  0  0  0  0  0  0
   55.9944   25.0585   46.3500 C   0  0  0  0  0  0  0  0  0  0  0  0
   55.0959   26.0897   46.1046 O   0  0  0  0  0  0  0  0  0  0  0  0
 20 21  2  0
 21 22  1  0
 22 23  2  0
 23 28  1  0
 28 29  1  0
 29 30  1  0
 30 31  2  0
 30 32  1  0
 32 33  1  0
 33 34  1  0
 22 24  1  0
 24 25  2  0
 25 26  1  0
 25 27  1  0
 27 19  1  0
 19  1  1  0
  1  2  2  0
  2  3  1  0
  3  4  2  0
  4  7  1  0
  7  8  1  0
  8  9  1  0
  9 10  1  0
 10 13  1  0
 13 14  1  0
 14 15  1  0
 15 16  1  0
 16 17  1  0
 17 18  1  0
 10 11  1  0
 11 12  1  0
  4  5  1  0
  5  6  2  0
 27 21  1  0
  6  1  1  0
 33 28  2  0
 12  7  1  0
 18 13  1  0
M  CHG 1  29  -1
M  CHG 1  32  -1
M  CHG 1  34  -1
M  END
> <UniqueID>
26

> <SMILES>
C=c1/c(=C\c2[n-]c(=O)[n-]c2[O-])cc(C)n1Cc1ccc(N2CCC(N3CCOCC3)CC2)cc1

> <Energy>
161.81811050227319

> <Genealogy>
C=c1c(=Cc2[n-]c(=O)[n-]c2[O-])cc(C)n1Cc1ccc(N2CCC(N3CCOCC3)CC2)cc1 (protonated)
C=c1/c(=C\c2[n-]c(=O)[n-]c2[O-])cc(C)n1Cc1ccc(N2CCC(N3CCOCC3)CC2)cc1 (cis-trans isomerization)
C=c1/c(=C\c2[n-]c(=O)[n-]c2[O-])cc(C)n1Cc1ccc(N2CCC(N3CCOCC3)CC2)cc1 (3D coordinates assigned)
C=c1/c(=C\c2[n-]c(=O)[n-]c2[O-])cc(C)n1Cc1ccc(N2CCC(N3CCOCC3)CC2)cc1 (nonaromatic ring conformer: 161.81811050227319 kcal/mol)

> <smiles>
C=c1c(=Cc2[nH]c(=O)[nH]c2O)cc(C)n1Cc1ccc(N2CCC(N3CCOCC3)CC2)cc1

> <score_type>
oracle

> <origin>
adg

> <m_score__min__energy>
-16.699999999999999

> <m_primary>
energy

> <minimizedAffinity>
-7.34154

> <minimizedRMSD>
1.18450

> <CNNscore>
0.1922769994

> <CNNaffinity>
6.1503448486

> <CNN_VS>
1.1825698614

> <CNNaffinity_variance>
0.1566880792

$$$$
30:0


 36 40  0  0  0  0  0  0  0  0999 V2000
   59.7904   29.3109   53.7663 C   0  0  0  0  0  0  0  0  0  0  0  0
   60.2142   27.9741   53.6794 C   0  0  0  0  0  0  0  0  0  0  0  0
   61.1208   27.5853   52.6897 C   0  0  0  0  0  0  0  0  0  0  0  0
   61.6028   28.5212   51.7728 C   0  0  0  0  0  0  0  0  0  0  0  0
   61.2036   29.8626   51.8608 C   0  0  0  0  0  0  0  0  0  0  0  0
   60.3189   30.2572   52.8755 C   0  0  0  0  0  0  0  0  0  0  0  0
   61.6637   30.8460   50.8645 C   0  0  0  0  0  0  0  0  0  0  0  0
   62.2336   31.8957   51.2678 O   0  0  0  0  0  0  0  0  0  0  0  0
   61.4334   30.6438   49.4547 N   0  0  0  0  0  0  0  0  0  0  0  0
   60.2800   29.8583   48.9885 C   0  0  0  0  0  0  0  0  0  0  0  0
   59.6202   30.5445   47.7841 C   0  0  0  0  0  0  0  0  0  0  0  0
   59.7741   32.0138   47.9119 N   0  0  0  0  0  0  0  0  0  0  0  0
   61.2029   32.3839   47.7173 C   0  0  0  0  0  0  0  0  0  0  0  0
   62.1669   31.4253   48.4515 C   0  0  0  0  0  0  0  0  0  0  0  0
   58.8346   32.7466   47.0150 C   0  0  0  0  0  0  0  0  0  0  0  0
   58.3907   31.9015   45.7947 C   0  0  0  0  0  0  0  0  0  0  0  0
   57.5367   32.7225   44.8021 C   0  0  0  0  0  0  0  0  0  0  0  0
   57.6950   34.1274   44.9196 O   0  0  0  0  0  0  0  0  0  0  0  0
   59.0559   34.4494   45.0999 C   0  0  0  0  0  0  0  0  0  0  0  0
   59.5081   34.0513   46.5097 C   0  0  0  0  0  0  0  0  0  0  0  0
   58.7359   29.7167   54.7653 C   0  0  0  0  0  0  0  0  0  0  0  0
   56.9200   31.2888   52.8957 C   0  0  0  0  0  0  0  0  0  0  0  0
   56.6141   30.0786   53.3921 C   0  0  0  0  0  0  0  0  0  0  0  0
   55.4755   29.3305   53.0703 C   0  0  0  0  0  0  0  0  0  0  0  0
   54.4631   29.6861   52.2538 C   0  0  0  0  0  0  0  0  0  0  0  0
   55.5746   28.1437   53.7769 C   0  0  0  0  0  0  0  0  0  0  0  0
   56.7522   28.2064   54.4930 C   0  0  0  0  0  0  0  0  0  0  0  0
   57.2783   27.0905   55.3445 C   0  0  0  0  0  0  0  0  0  0  0  0
   57.3937   29.3765   54.2587 N   0  0  0  0  0  0  0  0  0  0  0  0
   53.1275   30.0969   52.7277 C   0  0  0  0  0  0  0  0  0  0  0  0
   52.8736   30.4600   53.9964 N   0  0  0  0  0  0  0  0  0  0  0  0
   51.5927   30.8872   53.9490 C   0  0  0  0  0  0  0  0  0  0  0  0
   50.9837   31.3124   54.9633 O   0  0  0  0  0  0  0  0  0  0  0  0
   51.0290   30.8504   52.7231 N   0  0  0  0  0  0  0  0  0  0  0  0
   52.0146   30.3584   51.9592 C   0  0  0  0  0  0  0  0  0  0  0  0
   51.9158   30.2039   50.5839 O   0  0  0  0  0  0  0  0  0  0  0  0
 22 23  2  0
 23 24  1  0
 24 25  2  0
 25 30  1  0
 30 31  1  0
 31 32  1  0
 32 33  2  0
 32 34  1  0
 34 35  1  0
 35 36  1  0
 24 26  1  0
 26 27  2  0
 27 28  1  0
 27 29  1  0
 29 21  1  0
 21  1  1  0
  1  2  2  0
  2  3  1  0
  3  4  2  0
  4  5  1  0
  5  7  1  0
  7  8  2  0
  7  9  1  0
  9 10  1  0
 10 11  1  0
 11 12  1  0
 12 15  1  0
 15 16  1  0
 16 17  1  0
 17 18  1  0
 18 19  1  0
 19 20  1  0
 12 13  1  0
 13 14  1  0
  5  6  2  0
 29 23  1  0
  6  1  1  0
 35 30  2  0
 14  9  1  0
 20 15  1  0
M  CHG 1  31  -1
M  CHG 1  34  -1
M  CHG 1  36  -1
M  END
> <UniqueID>
30

> <SMILES>
C=c1/c(=C/c2[n-]c(=O)[n-]c2[O-])cc(C)n1Cc1cccc(C(=O)N2CCN(C3CCOCC3)CC2)c1

> <Energy>
157.85895219174628

> <Genealogy>
C=c1c(=Cc2[n-]c(=O)[n-]c2[O-])cc(C)n1Cc1cccc(C(=O)N2CCN(C3CCOCC3)CC2)c1 (protonated)
C=c1/c(=C/c2[n-]c(=O)[n-]c2[O-])cc(C)n1Cc1cccc(C(=O)N2CCN(C3CCOCC3)CC2)c1 (cis-trans isomerization)
C=c1/c(=C/c2[n-]c(=O)[n-]c2[O-])cc(C)n1Cc1cccc(C(=O)N2CCN(C3CCOCC3)CC2)c1 (3D coordinates assigned)
C=c1/c(=C/c2[n-]c(=O)[n-]c2[O-])cc(C)n1Cc1cccc(C(=O)N2CCN(C3CCOCC3)CC2)c1 (nonaromatic ring conformer: 157.85895219174628 kcal/mol)

> <smiles>
C=c1c(=Cc2[nH]c(=O)[nH]c2O)cc(C)n1Cc1cccc(C(=O)N2CCN(C3CCOCC3)CC2)c1

> <score_type>
oracle

> <origin>
adg

> <m_score__min__energy>
-19.050000000000001

> <m_primary>
energy

> <minimizedAffinity>
-7.82592

> <minimizedRMSD>
1.62119

> <CNNscore>
0.0581321009

> <CNNaffinity>
5.2977013588

> <CNN_VS>
0.3079665005

> <CNNaffinity_variance>
1.0322583914

$$$$
42:0


 30 32  0  0  0  0  0  0  0  0999 V2000
   58.1359   26.6596   46.7918 C   0  0  0  0  0  0  0  0  0  0  0  0
   59.2947   26.5991   47.5659 C   0  0  0  0  0  0  0  0  0  0  0  0
   60.1590   27.6908   47.6193 C   0  0  0  0  0  0  0  0  0  0  0  0
   59.8729   28.8628   46.9138 C   0  0  0  0  0  0  0  0  0  0  0  0
   61.0657   30.1553   47.0028 Cl  0  0  0  0  0  0  0  0  0  0  0  0
   58.6782   28.9616   46.1582 C   0  0  0  0  0  0  0  0  0  0  0  0
   57.8078   27.8506   46.1184 C   0  0  0  0  0  0  0  0  0  0  0  0
   56.6059   27.9280   45.4218 O   0  0  0  0  0  0  0  0  0  0  0  0
   58.9086   24.1203   45.7470 O   0  0  0  0  0  0  0  0  0  0  0  0
   57.6879   24.3314   45.9819 C   0  0  0  0  0  0  0  0  0  0  0  0
   57.2885   25.5048   46.7000 N   0  0  0  0  0  0  0  0  0  0  0  0
   56.4092   25.5196   47.1424 H   0  0  0  0  0  0  0  0  0  0  0  0
   56.6979   23.4085   45.5251 N   0  0  0  0  0  0  0  0  0  0  0  0
   55.0089   23.7858   45.5729 S   0  0  0  0  0  0  0  0  0  0  0  0
   54.3918   23.5030   44.2322 O   0  0  0  0  0  0  0  0  0  0  0  0
   54.8346   25.2399   45.9052 O   0  0  0  0  0  0  0  0  0  0  0  0
   54.2231   22.7897   46.7872 C   0  0  0  0  0  0  0  0  0  0  0  0
   52.9818   22.1882   46.6534 C   0  0  0  0  0  0  0  0  0  0  0  0
   52.6463   21.3818   47.7461 C   0  0  0  0  0  0  0  0  0  0  0  0
   53.6222   21.3471   48.7342 C   0  0  0  0  0  0  0  0  0  0  0  0
   54.9084   22.3170   48.2461 S   0  0  0  0  0  0  0  0  0  0  0  0
   58.2425   30.4381   45.2563 S   0  0  0  0  0  0  0  0  0  0  0  0
   56.7678   30.7058   45.3727 O   0  0  0  0  0  0  0  0  0  0  0  0
   58.5261   30.2164   43.7973 O   0  0  0  0  0  0  0  0  0  0  0  0
   59.1126   31.8589   45.8044 N   0  0  0  0  0  0  0  0  0  0  0  0
   58.9130   33.0234   44.9247 C   0  0  0  0  0  0  0  0  0  0  0  0
   57.6144   33.8055   45.2410 C   0  0  0  0  0  0  0  0  0  0  0  0
   56.9712   33.3619   46.4185 O   0  0  0  0  0  0  0  0  0  0  0  0
   57.9033   33.3001   47.4735 C   0  0  0  0  0  0  0  0  0  0  0  0
   58.9090   32.1601   47.2381 C   0  0  0  0  0  0  0  0  0  0  0  0
  9 10  2  0
 10 13  1  0
 13 14  1  0
 14 15  2  0
 14 16  2  0
 14 17  1  0
 17 18  2  0
 18 19  1  0
 19 20  2  0
 20 21  1  0
 10 11  1  0
 11  1  1  0
  1  2  2  0
  2  3  1  0
  3  4  2  0
  4  5  1  0
  4  6  1  0
  6 22  1  0
 22 23  2  0
 22 24  2  0
 22 25  1  0
 25 26  1  0
 26 27  1  0
 27 28  1  0
 28 29  1  0
 29 30  1  0
  6  7  2  0
  7  8  1  0
 21 17  1  0
  7  1  1  0
 30 25  1  0
 11 12  1  0
M  CHG 1   8  -1
M  CHG 1  13  -1
M  END
> <UniqueID>
41

> <SMILES>
O=C([N-]S(=O)(=O)c1cccs1)Nc1ccc(Cl)c(S(=O)(=O)N2CCOCC2)c1[O-]

> <Energy>
90.3838896805133

> <Genealogy>
O=C([N-]S(=O)(=O)c1cccs1)Nc1ccc(Cl)c(S(=O)(=O)N2CCOCC2)c1[O-] (protonated)
O=C([N-]S(=O)(=O)c1cccs1)Nc1ccc(Cl)c(S(=O)(=O)N2CCOCC2)c1[O-] (3D coordinates assigned)
O=C([N-]S(=O)(=O)c1cccs1)Nc1ccc(Cl)c(S(=O)(=O)N2CCOCC2)c1[O-] (nonaromatic ring conformer: 90.3838896805133 kcal/mol)

> <smiles>
O=C(Nc1ccc(Cl)c(S(=O)(=O)N2CCOCC2)c1O)NS(=O)(=O)c1cccs1

> <score_type>
oracle

> <origin>
adg

> <m_score__min__energy>
-14.720000000000001

> <m_primary>
energy

> <minimizedAffinity>
-6.59667

> <minimizedRMSD>
1.42992

> <CNNscore>
0.3289098740

> <CNNaffinity>
6.0429782867

> <CNN_VS>
1.9875952005

> <CNNaffinity_variance>
0.2645024657

$$$$
62:0


 34 36  0  0  0  0  0  0  0  0999 V2000
   57.8989   30.5576   45.2017 N   0  0  0  0  0  0  0  0  0  0  0  0
   57.2024   29.3031   45.1203 C   0  0  0  0  0  0  0  0  0  0  0  0
   55.9906   29.2773   44.7689 O   0  0  0  0  0  0  0  0  0  0  0  0
   58.8162   30.5690   45.5590 H   0  0  0  0  0  0  0  0  0  0  0  0
   57.8880   28.0342   45.4635 C   0  0  0  0  0  0  0  0  0  0  0  0
   57.1534   26.9147   45.8979 C   0  0  0  0  0  0  0  0  0  0  0  0
   55.7704   27.0171   46.0325 O   0  0  0  0  0  0  0  0  0  0  0  0
   57.7908   25.7397   46.2096 N   0  0  0  0  0  0  0  0  0  0  0  0
   59.1567   25.6575   46.0927 C   0  0  0  0  0  0  0  0  0  0  0  0
   59.7683   24.5924   46.3783 O   0  0  0  0  0  0  0  0  0  0  0  0
   59.8730   26.7276   45.6676 N   0  0  0  0  0  0  0  0  0  0  0  0
   59.2803   27.9007   45.3454 C   0  0  0  0  0  0  0  0  0  0  0  0
   59.9904   28.8506   44.9202 O   0  0  0  0  0  0  0  0  0  0  0  0
   57.0060   24.5606   46.6272 C   0  0  0  0  0  0  0  0  0  0  0  0
   56.8734   23.5848   45.4858 C   0  0  0  0  0  0  0  0  0  0  0  0
   56.2893   23.9849   44.2715 C   0  0  0  0  0  0  0  0  0  0  0  0
   56.1978   23.0872   43.2031 C   0  0  0  0  0  0  0  0  0  0  0  0
   56.6913   21.7866   43.3356 C   0  0  0  0  0  0  0  0  0  0  0  0
   57.2753   21.3808   44.5375 C   0  0  0  0  0  0  0  0  0  0  0  0
   57.3690   22.2753   45.6096 C   0  0  0  0  0  0  0  0  0  0  0  0
   57.2941   31.8162   44.7731 C   0  0  0  0  0  0  0  0  0  0  0  0
   57.2934   34.0527   45.5954 O   0  0  0  0  0  0  0  0  0  0  0  0
   57.9267   32.9667   45.4982 C   0  0  0  0  0  0  0  0  0  0  0  0
   59.2404   32.8298   46.0632 N   0  0  0  0  0  0  0  0  0  0  0  0
   59.9693   33.9161   46.6577 C   0  0  0  0  0  0  0  0  0  0  0  0
   59.5987   35.1085   46.4710 O   0  0  0  0  0  0  0  0  0  0  0  0
   59.6652   31.9419   46.0419 H   0  0  0  0  0  0  0  0  0  0  0  0
   61.1977   33.6572   47.4384 C   0  0  0  0  0  0  0  0  0  0  0  0
   62.4113   33.4707   46.7538 C   0  0  0  0  0  0  0  0  0  0  0  0
   63.5907   33.2063   47.4567 C   0  0  0  0  0  0  0  0  0  0  0  0
   63.5732   33.1348   48.8507 C   0  0  0  0  0  0  0  0  0  0  0  0
   62.3791   33.3373   49.5455 C   0  0  0  0  0  0  0  0  0  0  0  0
   61.1896   33.6022   48.8529 C   0  0  0  0  0  0  0  0  0  0  0  0
   59.7428   33.9426   49.7973 Cl  0  0  0  0  0  0  0  0  0  0  0  0
 22 23  2  0
 23 21  1  0
 21  1  1  0
  1  2  1  0
  2  3  2  0
  2  5  1  0
  5  6  2  0
  6  7  1  0
  6  8  1  0
  8 14  1  0
 14 15  1  0
 15 16  2  0
 16 17  1  0
 17 18  2  0
 18 19  1  0
 19 20  2  0
  8  9  1  0
  9 10  2  0
  9 11  1  0
 11 12  1  0
 12 13  2  0
 23 24  1  0
 24 25  1  0
 25 26  2  0
 25 28  1  0
 28 29  2  0
 29 30  1  0
 30 31  2  0
 31 32  1  0
 32 33  2  0
 33 34  1  0
 12  5  1  0
 33 28  1  0
 20 15  1  0
  1  4  1  0
 24 27  1  0
M  CHG 1   7  -1
M  CHG 1  11  -1
M  END
> <UniqueID>
60

> <SMILES>
O=C(CNC(=O)c1c([O-])n(Cc2ccccc2)c(=O)[n-]c1=O)NC(=O)c1ccccc1Cl

> <Energy>
61.85074075959155

> <Genealogy>
O=C(CNC(=O)c1c([O-])n(Cc2ccccc2)c(=O)[n-]c1=O)NC(=O)c1ccccc1Cl (protonated)
O=C(CNC(=O)c1c([O-])n(Cc2ccccc2)c(=O)[n-]c1=O)NC(=O)c1ccccc1Cl (3D coordinates assigned)
O=C(CNC(=O)c1c([O-])n(Cc2ccccc2)c(=O)[n-]c1=O)NC(=O)c1ccccc1Cl (optimized conformer: 61.85074075959155 kcal/mol)

> <smiles>
O=C(CNC(=O)c1c(O)n(Cc2ccccc2)c(=O)[nH]c1=O)NC(=O)c1ccccc1Cl

> <score_type>
oracle

> <origin>
adg

> <m_score__min__energy>
-14.81

> <m_primary>
energy

> <minimizedAffinity>
-8.60002

> <minimizedRMSD>
0.65921

> <CNNscore>
0.2536537945

> <CNNaffinity>
6.4240632057

> <CNN_VS>
1.6294879913

> <CNNaffinity_variance>
0.0143502690

$$$$
66:0


 31 34  0  0  0  0  0  0  0  0999 V2000
   59.4648   26.6650   45.9369 C   0  0  0  0  0  0  0  0  0  0  0  0
   59.6385   27.6936   46.7901 C   0  0  0  0  0  0  0  0  0  0  0  0
   59.9085   27.5165   48.1329 C   0  0  0  0  0  0  0  0  0  0  0  0
   59.9527   28.7708   48.7061 C   0  0  0  0  0  0  0  0  0  0  0  0
   59.7101   29.7276   47.7726 N   0  0  0  0  0  0  0  0  0  0  0  0
   59.5918   29.0786   46.5813 C   0  0  0  0  0  0  0  0  0  0  0  0
   59.6047   29.7044   45.3926 C   0  0  0  0  0  0  0  0  0  0  0  0
   58.4066   25.6460   46.0290 C   0  0  0  0  0  0  0  0  0  0  0  0
   58.6472   24.3442   46.2606 N   0  0  0  0  0  0  0  0  0  0  0  0
   57.4107   23.8141   46.3839 C   0  0  0  0  0  0  0  0  0  0  0  0
   57.2156   22.5897   46.5957 O   0  0  0  0  0  0  0  0  0  0  0  0
   56.4002   24.7025   46.2762 N   0  0  0  0  0  0  0  0  0  0  0  0
   57.0460   25.8600   46.0668 C   0  0  0  0  0  0  0  0  0  0  0  0
   56.4081   27.0885   45.9413 O   0  0  0  0  0  0  0  0  0  0  0  0
   60.2694   28.9930   50.1308 C   0  0  0  0  0  0  0  0  0  0  0  0
   61.4683   28.8935   50.5114 O   0  0  0  0  0  0  0  0  0  0  0  0
   59.2383   29.3996   51.0451 N   0  0  0  0  0  0  0  0  0  0  0  0
   59.0082   30.6046   51.4807 C   0  0  0  0  0  0  0  0  0  0  0  0
   57.7455   31.0368   51.7546 N   0  0  0  0  0  0  0  0  0  0  0  0
   57.5091   32.2956   52.2043 C   0  0  0  0  0  0  0  0  0  0  0  0
   58.5811   33.1703   52.3897 C   0  0  0  0  0  0  0  0  0  0  0  0
   59.8429   32.7452   52.1170 N   0  0  0  0  0  0  0  0  0  0  0  0
   60.0811   31.4851   51.6666 C   0  0  0  0  0  0  0  0  0  0  0  0
   59.5478   31.1750   48.0096 C   0  0  0  0  0  0  0  0  0  0  0  0
   60.8263   31.9359   47.7245 C   0  0  0  0  0  0  0  0  0  0  0  0
   62.0379   31.4837   48.2833 C   0  0  0  0  0  0  0  0  0  0  0  0
   63.2332   32.1606   48.0322 C   0  0  0  0  0  0  0  0  0  0  0  0
   63.2347   33.3067   47.2358 C   0  0  0  0  0  0  0  0  0  0  0  0
   62.0390   33.7830   46.6973 C   0  0  0  0  0  0  0  0  0  0  0  0
   60.8338   33.1132   46.9413 C   0  0  0  0  0  0  0  0  0  0  0  0
   59.3585   33.8026   46.2755 Cl  0  0  0  0  0  0  0  0  0  0  0  0
  1  8  1  0
  8  9  1  0
  9 10  1  0
 10 11  2  0
 10 12  1  0
 12 13  1  0
 13 14  1  0
  1  2  2  0
  2  3  1  0
  3  4  2  0
  4 15  1  0
 15 16  2  0
 15 17  1  0
 17 18  2  0
 18 19  1  0
 19 20  1  0
 20 21  2  0
 21 22  1  0
 22 23  2  0
  4  5  1  0
  5 24  1  0
 24 25  1  0
 25 26  2  0
 26 27  1  0
 27 28  2  0
 28 29  1  0
 29 30  2  0
 30 31  1  0
  5  6  1  0
  6  7  2  0
 13  8  2  0
  6  2  1  0
 23 18  1  0
 30 25  1  0
M  CHG 1   9  -1
M  CHG 1  12  -1
M  CHG 1  14  -1
M  CHG 1  19  -1
M  END
> <UniqueID>
64

> <SMILES>
C=c1c(=Cc2[n-]c(=O)[n-]c2[O-])cc(C(=O)/N=c2/cncc[n-]2)n1Cc1ccccc1Cl

> <Energy>
129.15399956810225

> <Genealogy>
C=c1c(=Cc2[n-]c(=O)[n-]c2[O-])cc(C(=O)N=c2cncc[n-]2)n1Cc1ccccc1Cl (protonated)
C=c1c(=Cc2[n-]c(=O)[n-]c2[O-])cc(C(=O)/N=c2/cncc[n-]2)n1Cc1ccccc1Cl (cis-trans isomerization)
C=c1c(=Cc2[n-]c(=O)[n-]c2[O-])cc(C(=O)/N=c2/cncc[n-]2)n1Cc1ccccc1Cl (3D coordinates assigned)
C=c1c(=Cc2[n-]c(=O)[n-]c2[O-])cc(C(=O)/N=c2/cncc[n-]2)n1Cc1ccccc1Cl (optimized conformer: 129.15399956810225 kcal/mol)

> <smiles>
C=c1c(=Cc2[nH]c(=O)[nH]c2O)cc(C(=O)N=c2cncc[nH]2)n1Cc1ccccc1Cl

> <score_type>
oracle

> <origin>
adg

> <m_score__min__energy>
-17.289999999999999

> <m_primary>
energy

> <minimizedAffinity>
-8.19165

> <minimizedRMSD>
1.41426

> <CNNscore>
0.6585868597

> <CNNaffinity>
7.2711052895

> <CNN_VS>
4.7886543274

> <CNNaffinity_variance>
0.0499754734

$$$$
79:0


 36 39  0  0  0  0  0  0  0  0999 V2000
   57.7884   32.0362   51.5615 N   0  0  0  0  0  0  0  0  0  0  0  0
   58.4715   31.4354   50.4445 C   0  0  0  0  0  0  0  0  0  0  0  0
   58.5111   30.1807   50.3251 O   0  0  0  0  0  0  0  0  0  0  0  0
   57.7342   33.0186   51.5971 H   0  0  0  0  0  0  0  0  0  0  0  0
   59.1883   32.2813   49.4652 C   0  0  0  0  0  0  0  0  0  0  0  0
   60.3452   32.9874   49.8307 C   0  0  0  0  0  0  0  0  0  0  0  0
   60.9552   33.8149   48.8883 C   0  0  0  0  0  0  0  0  0  0  0  0
   61.9825   34.4761   49.1949 O   0  0  0  0  0  0  0  0  0  0  0  0
   60.4171   33.9079   47.6058 C   0  0  0  0  0  0  0  0  0  0  0  0
   59.2834   33.1489   47.2903 C   0  0  0  0  0  0  0  0  0  0  0  0
   58.7143   32.3890   48.2228 O   0  0  0  0  0  0  0  0  0  0  0  0
   58.6771   33.2010   45.9502 C   0  0  0  0  0  0  0  0  0  0  0  0
   58.9637   34.1672   45.1951 O   0  0  0  0  0  0  0  0  0  0  0  0
   57.7517   32.2081   45.4817 N   0  0  0  0  0  0  0  0  0  0  0  0
   57.9737   31.2830   44.3703 C   0  0  0  0  0  0  0  0  0  0  0  0
   58.4413   29.9460   44.8815 C   0  0  0  0  0  0  0  0  0  0  0  0
   57.7814   28.7603   44.5052 C   0  0  0  0  0  0  0  0  0  0  0  0
   58.2416   27.5222   44.9641 C   0  0  0  0  0  0  0  0  0  0  0  0
   59.3590   27.4573   45.8011 C   0  0  0  0  0  0  0  0  0  0  0  0
   60.0204   28.6296   46.1785 C   0  0  0  0  0  0  0  0  0  0  0  0
   59.5684   29.8697   45.7167 C   0  0  0  0  0  0  0  0  0  0  0  0
   55.3044   30.0321   53.5687 C   0  0  0  0  0  0  0  0  0  0  0  0
   56.0703   29.7775   54.7185 C   0  0  0  0  0  0  0  0  0  0  0  0
   57.3574   30.3056   54.8424 C   0  0  0  0  0  0  0  0  0  0  0  0
   57.9087   31.0600   53.8054 C   0  0  0  0  0  0  0  0  0  0  0  0
   57.1812   31.2868   52.6269 C   0  0  0  0  0  0  0  0  0  0  0  0
   55.8658   30.7943   52.5289 C   0  0  0  0  0  0  0  0  0  0  0  0
   51.2734   32.1021   50.3647 O   0  0  0  0  0  0  0  0  0  0  0  0
   51.5747   31.7524   51.5357 C   0  0  0  0  0  0  0  0  0  0  0  0
   52.8335   30.9710   51.7844 C   0  0  0  0  0  0  0  0  0  0  0  0
   52.8123   30.2605   53.0747 N   0  0  0  0  0  0  0  0  0  0  0  0
   53.9502   29.4489   53.4174 C   0  0  0  0  0  0  0  0  0  0  0  0
   53.7856   28.2148   53.6160 O   0  0  0  0  0  0  0  0  0  0  0  0
   51.6826   30.3716   54.0136 C   0  0  0  0  0  0  0  0  0  0  0  0
   51.1046   31.7819   53.9866 C   0  0  0  0  0  0  0  0  0  0  0  0
   50.7304   32.1226   52.6243 N   0  0  0  0  0  0  0  0  0  0  0  0
 28 29  2  0
 29 30  1  0
 30 31  1  0
 31 32  1  0
 32 33  2  0
 32 22  1  0
 22 23  2  0
 23 24  1  0
 24 25  2  0
 25 26  1  0
 26  1  1  0
  1  2  1  0
  2  3  2  0
  2  5  1  0
  5  6  2  0
  6  7  1  0
  7  8  2  0
  7  9  1  0
  9 10  2  0
 10 12  1  0
 12 13  2  0
 12 14  1  0
 14 15  1  0
 15 16  1  0
 16 17  2  0
 17 18  1  0
 18 19  2  0
 19 20  1  0
 20 21  2  0
 10 11  1  0
 26 27  2  0
 31 34  1  0
 34 35  1  0
 35 36  1  0
 36 29  1  0
 27 22  1  0
 11  5  1  0
 21 16  1  0
  1  4  1  0
M  CHG 1  14  -1
M  CHG 1  36  -1
M  END
> <UniqueID>
77

> <SMILES>
O=C1CN(C(=O)c2cccc(NC(=O)c3cc(=O)cc(C(=O)[N-]Cc4ccccc4)o3)c2)CC[N-]1

> <Energy>
71.23668596741042

> <Genealogy>
O=C1CN(C(=O)c2cccc(NC(=O)c3cc(=O)cc(C(=O)[N-]Cc4ccccc4)o3)c2)CC[N-]1 (protonated)
O=C1CN(C(=O)c2cccc(NC(=O)c3cc(=O)cc(C(=O)[N-]Cc4ccccc4)o3)c2)CC[N-]1 (3D coordinates assigned)
O=C1CN(C(=O)c2cccc(NC(=O)c3cc(=O)cc(C(=O)[N-]Cc4ccccc4)o3)c2)CC[N-]1 (nonaromatic ring conformer: 71.23668596741042 kcal/mol)

> <smiles>
O=C1CN(C(=O)c2cccc(NC(=O)c3cc(=O)cc(C(=O)NCc4ccccc4)o3)c2)CCN1

> <score_type>
oracle

> <origin>
adg

> <m_score__min__energy>
-14.109999999999999

> <m_primary>
energy

> <minimizedAffinity>
-9.32808

> <minimizedRMSD>
1.20982

> <CNNscore>
0.6310366988

> <CNNaffinity>
6.9106345177

> <CNN_VS>
4.3608641624

> <CNNaffinity_variance>
0.1972451210

$$$$
81:0


 36 39  0  0  0  0  0  0  0  0999 V2000
   58.0859   32.9959   45.8020 C   0  0  0  0  0  0  0  0  0  0  0  0
   58.6827   33.9253   44.9374 C   0  0  0  0  0  0  0  0  0  0  0  0
   59.6051   34.8517   45.4285 C   0  0  0  0  0  0  0  0  0  0  0  0
   59.9649   34.8313   46.7788 C   0  0  0  0  0  0  0  0  0  0  0  0
   59.4028   33.8809   47.6455 C   0  0  0  0  0  0  0  0  0  0  0  0
   58.4327   32.9889   47.1582 C   0  0  0  0  0  0  0  0  0  0  0  0
   59.8631   33.7960   49.0463 C   0  0  0  0  0  0  0  0  0  0  0  0
   59.2672   34.4761   49.9281 O   0  0  0  0  0  0  0  0  0  0  0  0
   60.9939   32.9807   49.4159 N   0  0  0  0  0  0  0  0  0  0  0  0
   61.0366   32.3121   50.7228 C   0  0  0  0  0  0  0  0  0  0  0  0
   62.3835   32.5709   51.3944 C   0  0  0  0  0  0  0  0  0  0  0  0
   63.4715   32.2849   50.4540 N   0  0  0  0  0  0  0  0  0  0  0  0
   63.4408   32.9503   49.1464 C   0  0  0  0  0  0  0  0  0  0  0  0
   62.0868   32.7146   48.4709 C   0  0  0  0  0  0  0  0  0  0  0  0
   64.6529   31.5887   50.8948 C   0  0  0  0  0  0  0  0  0  0  0  0
   64.5483   30.3872   51.6158 C   0  0  0  0  0  0  0  0  0  0  0  0
   65.6999   29.7187   52.0448 C   0  0  0  0  0  0  0  0  0  0  0  0
   66.9618   30.2454   51.7609 C   0  0  0  0  0  0  0  0  0  0  0  0
   67.0752   31.4412   51.0478 C   0  0  0  0  0  0  0  0  0  0  0  0
   65.9276   32.1111   50.6144 C   0  0  0  0  0  0  0  0  0  0  0  0
   57.1813   32.0103   45.2885 N   0  0  0  0  0  0  0  0  0  0  0  0
   57.6045   31.0415   44.3224 C   0  0  0  0  0  0  0  0  0  0  0  0
   57.6213   31.3455   43.0999 O   0  0  0  0  0  0  0  0  0  0  0  0
   58.7066   27.1964   45.8440 C   0  0  0  0  0  0  0  0  0  0  0  0
   57.3668   27.4847   45.5443 C   0  0  0  0  0  0  0  0  0  0  0  0
   57.0166   28.7261   45.0139 C   0  0  0  0  0  0  0  0  0  0  0  0
   58.0028   29.6897   44.7537 C   0  0  0  0  0  0  0  0  0  0  0  0
   59.3500   29.3816   44.9920 C   0  0  0  0  0  0  0  0  0  0  0  0
   59.6991   28.1461   45.5477 C   0  0  0  0  0  0  0  0  0  0  0  0
   59.0613   25.9283   46.5711 C   0  0  0  0  0  0  0  0  0  0  0  0
   57.8624   25.2817   47.1151 N   0  0  0  0  0  0  0  0  0  0  0  0
   57.4945   23.8009   46.2727 S   0  0  0  0  0  0  0  0  0  0  0  0
   57.0681   22.7380   47.2470 O   0  0  0  0  0  0  0  0  0  0  0  0
   58.7090   23.3369   45.5191 O   0  0  0  0  0  0  0  0  0  0  0  0
   56.6655   23.8301   43.7927 C   0  0  0  0  0  0  0  0  0  0  0  0
   56.2050   24.1048   45.1501 N   0  0  0  0  0  0  0  0  0  0  0  0
 35 36  1  0
 36 32  1  0
 32 33  2  0
 32 34  2  0
 32 31  1  0
 31 30  1  0
 30 24  1  0
 24 25  2  0
 25 26  1  0
 26 27  2  0
 27 22  1  0
 22 23  2  0
 22 21  1  0
 21  1  1  0
  1  2  2  0
  2  3  1  0
  3  4  2  0
  4  5  1  0
  5  7  1  0
  7  8  2  0
  7  9  1  0
  9 10  1  0
 10 11  1  0
 11 12  1  0
 12 15  1  0
 15 16  2  0
 16 17  1  0
 17 18  2  0
 18 19  1  0
 19 20  2  0
 12 13  1  0
 13 14  1  0
  5  6  2  0
 27 28  1  0
 28 29  2  0
 29 24  1  0
  6  1  1  0
 14  9  1  0
 20 15  1  0
M  CHG 1  21  -1
M  CHG 1  31  -1
M  CHG 1  36  -1
M  END
> <UniqueID>
79

> <SMILES>
C[N-]S(=O)(=O)[N-]Cc1ccc(C(=O)[N-]c2cccc(C(=O)N3CCN(c4ccccc4)CC3)c2)cc1

> <Energy>
76.91695726030282

> <Genealogy>
C[N-]S(=O)(=O)[N-]Cc1ccc(C(=O)[N-]c2cccc(C(=O)N3CCN(c4ccccc4)CC3)c2)cc1 (protonated)
C[N-]S(=O)(=O)[N-]Cc1ccc(C(=O)[N-]c2cccc(C(=O)N3CCN(c4ccccc4)CC3)c2)cc1 (3D coordinates assigned)
C[N-]S(=O)(=O)[N-]Cc1ccc(C(=O)[N-]c2cccc(C(=O)N3CCN(c4ccccc4)CC3)c2)cc1 (nonaromatic ring conformer: 76.91695726030282 kcal/mol)

> <smiles>
CNS(=O)(=O)NCc1ccc(C(=O)Nc2cccc(C(=O)N3CCN(c4ccccc4)CC3)c2)cc1

> <score_type>
oracle

> <origin>
adg

> <m_score__min__energy>
-14.75

> <m_primary>
energy

> <minimizedAffinity>
-8.96742

> <minimizedRMSD>
0.91220

> <CNNscore>
0.6465070844

> <CNNaffinity>
6.9943966866

> <CNN_VS>
4.5219268799

> <CNNaffinity_variance>
0.3053148985

$$$$
8:0


 33 36  0  0  0  0  0  0  0  0999 V2000
   58.8989   28.5797   45.6016 C   0  0  0  0  0  0  0  0  0  0  0  0
   59.4304   29.2004   44.6391 O   0  0  0  0  0  0  0  0  0  0  0  0
   59.4744   23.8085   46.1003 C   0  0  0  0  0  0  0  0  0  0  0  0
   58.9878   24.9656   45.6247 C   0  0  0  0  0  0  0  0  0  0  0  0
   57.7616   25.1568   44.9699 C   0  0  0  0  0  0  0  0  0  0  0  0
   56.8897   24.2707   44.4510 C   0  0  0  0  0  0  0  0  0  0  0  0
   57.5611   26.5249   44.9146 C   0  0  0  0  0  0  0  0  0  0  0  0
   58.6866   27.1202   45.4534 C   0  0  0  0  0  0  0  0  0  0  0  0
   59.5607   26.1725   45.8688 N   0  0  0  0  0  0  0  0  0  0  0  0
   60.8423   26.4173   46.5411 C   0  0  0  0  0  0  0  0  0  0  0  0
   55.7144   23.7213   45.1471 C   0  0  0  0  0  0  0  0  0  0  0  0
   55.3331   22.4308   45.1068 N   0  0  0  0  0  0  0  0  0  0  0  0
   54.1492   22.4340   45.7540 C   0  0  0  0  0  0  0  0  0  0  0  0
   53.4713   21.3886   45.9363 O   0  0  0  0  0  0  0  0  0  0  0  0
   53.7394   23.6497   46.1794 N   0  0  0  0  0  0  0  0  0  0  0  0
   54.7358   24.4534   45.7734 C   0  0  0  0  0  0  0  0  0  0  0  0
   54.7471   25.8285   45.9664 O   0  0  0  0  0  0  0  0  0  0  0  0
   58.5236   29.3204   46.7936 N   0  0  0  0  0  0  0  0  0  0  0  0
   58.9761   28.6784   48.0611 C   0  0  0  0  0  0  0  0  0  0  0  0
   60.0961   29.4656   48.7652 C   0  0  0  0  0  0  0  0  0  0  0  0
   59.7121   30.8742   49.0399 N   0  0  0  0  0  0  0  0  0  0  0  0
   58.7973   31.4524   48.0227 C   0  0  0  0  0  0  0  0  0  0  0  0
   58.9146   30.7404   46.6694 C   0  0  0  0  0  0  0  0  0  0  0  0
   58.4563   30.0918   46.1856 H   0  0  0  0  0  0  0  0  0  0  0  0
   59.1807   31.0368   50.4124 C   0  0  0  0  0  0  0  0  0  0  0  0
   59.1867   32.5093   50.8638 C   0  0  0  0  0  0  0  0  0  0  0  0
   60.5160   32.9530   51.4964 C   0  0  0  0  0  0  0  0  0  0  0  0
   61.6456   32.9635   50.4985 C   0  0  0  0  0  0  0  0  0  0  0  0
   61.6054   33.8289   49.3920 C   0  0  0  0  0  0  0  0  0  0  0  0
   62.6690   33.8610   48.4841 C   0  0  0  0  0  0  0  0  0  0  0  0
   63.7811   33.0368   48.6770 C   0  0  0  0  0  0  0  0  0  0  0  0
   63.8321   32.1777   49.7786 C   0  0  0  0  0  0  0  0  0  0  0  0
   62.7704   32.1405   50.6886 C   0  0  0  0  0  0  0  0  0  0  0  0
  3  4  2  0
  4  5  1  0
  5  6  2  0
  6 11  1  0
 11 12  1  0
 12 13  1  0
 13 14  2  0
 13 15  1  0
 15 16  1  0
 16 17  1  0
  5  7  1  0
  7  8  2  0
  8  1  1  0
  1  2  2  0
  1 18  1  0
 18 19  1  0
 19 20  1  0
 20 21  1  0
 21 25  1  0
 25 26  1  0
 26 27  1  0
 27 28  1  0
 28 29  2  0
 29 30  1  0
 30 31  2  0
 31 32  1  0
 32 33  2  0
 21 22  1  0
 22 23  1  0
  8  9  1  0
  9 10  1  0
  9  4  1  0
 16 11  2  0
 23 18  1  0
 33 28  1  0
 18 24  1  0
M  CHG 1  12  -1
M  CHG 1  15  -1
M  CHG 1  17  -1
M  CHG 1  18   1
M  END
> <UniqueID>
9

> <SMILES>
C=c1/c(=C\c2[n-]c(=O)[n-]c2[O-])cc(C(=O)[NH+]2CCN(CCCc3ccccc3)CC2)n1C

> <Energy>
149.06235466371785

> <Genealogy>
C=c1c(=Cc2[n-]c(=O)[n-]c2[O-])cc(C(=O)[NH+]2CCN(CCCc3ccccc3)CC2)n1C (protonated)
C=c1/c(=C\c2[n-]c(=O)[n-]c2[O-])cc(C(=O)[NH+]2CCN(CCCc3ccccc3)CC2)n1C (cis-trans isomerization)
C=c1/c(=C\c2[n-]c(=O)[n-]c2[O-])cc(C(=O)[NH+]2CCN(CCCc3ccccc3)CC2)n1C (3D coordinates assigned)
C=c1/c(=C\c2[n-]c(=O)[n-]c2[O-])cc(C(=O)[NH+]2CCN(CCCc3ccccc3)CC2)n1C (nonaromatic ring conformer: 149.06235466371785 kcal/mol)

> <smiles>
C=c1c(=Cc2[nH]c(=O)[nH]c2O)cc(C(=O)N2CCN(CCCc3ccccc3)CC2)n1C

> <score_type>
oracle

> <origin>
adg

> <m_score__min__energy>
-16.989999999999998

> <m_primary>
energy

> <minimizedAffinity>
-5.90306

> <minimizedRMSD>
1.10904

> <CNNscore>
0.0426565185

> <CNNaffinity>
5.6517868042

> <CNN_VS>
0.2410855442

> <CNNaffinity_variance>
0.1459590048

$$$$
10:0


 29 31  0  0  0  0  0  0  0  0999 V2000
   55.3017   29.2324   55.0953 C   0  0  0  0  0  0  0  0  0  0  0  0
   55.7718   29.6804   53.9182 C   0  0  0  0  0  0  0  0  0  0  0  0
   55.0343   30.3718   52.9539 C   0  0  0  0  0  0  0  0  0  0  0  0
   53.7140   30.6454   52.9718 C   0  0  0  0  0  0  0  0  0  0  0  0
   55.9221   30.6900   51.9404 C   0  0  0  0  0  0  0  0  0  0  0  0
   57.1628   30.2090   52.3199 C   0  0  0  0  0  0  0  0  0  0  0  0
   57.0643   29.5633   53.5125 N   0  0  0  0  0  0  0  0  0  0  0  0
   58.1512   28.8743   54.2189 C   0  0  0  0  0  0  0  0  0  0  0  0
   52.8673   30.6931   51.7660 C   0  0  0  0  0  0  0  0  0  0  0  0
   52.9558   29.7989   50.7669 N   0  0  0  0  0  0  0  0  0  0  0  0
   51.9608   30.1640   49.9296 C   0  0  0  0  0  0  0  0  0  0  0  0
   51.7289   29.5619   48.8490 O   0  0  0  0  0  0  0  0  0  0  0  0
   51.2294   31.2198   50.3451 N   0  0  0  0  0  0  0  0  0  0  0  0
   51.8055   31.5357   51.5156 C   0  0  0  0  0  0  0  0  0  0  0  0
   51.3410   32.5410   52.3547 O   0  0  0  0  0  0  0  0  0  0  0  0
   58.4258   30.4146   51.5536 C   0  0  0  0  0  0  0  0  0  0  0  0
   59.3644   29.5818   51.6953 O   0  0  0  0  0  0  0  0  0  0  0  0
   58.5862   31.5295   50.6339 N   0  0  0  0  0  0  0  0  0  0  0  0
   59.1687   31.2271   51.3677 H   0  0  0  0  0  0  0  0  0  0  0  0
   59.2673   32.7099   51.2598 C   0  0  0  0  0  0  0  0  0  0  0  0
   58.4091   33.3312   52.3764 C   0  0  0  0  0  0  0  0  0  0  0  0
   60.6875   32.4277   51.7942 C   0  0  0  0  0  0  0  0  0  0  0  0
   59.2458   31.0477   49.3939 C   0  0  0  0  0  0  0  0  0  0  0  0
   59.4954   32.1600   48.3999 C   0  0  0  0  0  0  0  0  0  0  0  0
   58.4188   32.8483   47.8151 C   0  0  0  0  0  0  0  0  0  0  0  0
   58.6547   33.8615   46.8823 C   0  0  0  0  0  0  0  0  0  0  0  0
   59.9637   34.1950   46.5242 C   0  0  0  0  0  0  0  0  0  0  0  0
   61.0401   33.5135   47.1005 C   0  0  0  0  0  0  0  0  0  0  0  0
   60.8081   32.4993   48.0349 C   0  0  0  0  0  0  0  0  0  0  0  0
  1  2  2  0
  2  3  1  0
  3  4  2  0
  4  9  1  0
  9 10  1  0
 10 11  1  0
 11 12  2  0
 11 13  1  0
 13 14  1  0
 14 15  1  0
  3  5  1  0
  5  6  2  0
  6 16  1  0
 16 17  2  0
 16 18  1  0
 18 23  1  0
 23 24  1  0
 24 25  2  0
 25 26  1  0
 26 27  2  0
 27 28  1  0
 28 29  2  0
 18 20  1  0
 20 21  1  0
 20 22  1  0
  6  7  1  0
  7  8  1  0
  7  2  1  0
 14  9  2  0
 29 24  1  0
 18 19  1  0
M  CHG 1  10  -1
M  CHG 1  13  -1
M  CHG 1  15  -1
M  CHG 1  18   1
M  END
> <UniqueID>
10

> <SMILES>
C=c1/c(=C/c2[n-]c(=O)[n-]c2[O-])cc(C(=O)[N@H+](Cc2ccccc2)C(C)C)n1C

> <Energy>
125.65293382534651

> <Genealogy>
C=c1c(=Cc2[n-]c(=O)[n-]c2[O-])cc(C(=O)[NH+](Cc2ccccc2)C(C)C)n1C (protonated)
C=c1c(=Cc2[n-]c(=O)[n-]c2[O-])cc(C(=O)[N@H+](Cc2ccccc2)C(C)C)n1C (chirality)
C=c1/c(=C/c2[n-]c(=O)[n-]c2[O-])cc(C(=O)[N@H+](Cc2ccccc2)C(C)C)n1C (cis-trans isomerization)
C=c1/c(=C/c2[n-]c(=O)[n-]c2[O-])cc(C(=O)[N@H+](Cc2ccccc2)C(C)C)n1C (3D coordinates assigned)
C=c1/c(=C/c2[n-]c(=O)[n-]c2[O-])cc(C(=O)[N@H+](Cc2ccccc2)C(C)C)n1C (optimized conformer: 125.65293382534651 kcal/mol)

> <smiles>
C=c1c(=Cc2[nH]c(=O)[nH]c2O)cc(C(=O)N(Cc2ccccc2)C(C)C)n1C

> <score_type>
oracle

> <origin>
adg

> <m_score__min__energy>
-16.949999999999999

> <m_primary>
energy

> <minimizedAffinity>
-6.13346

> <minimizedRMSD>
1.03052

> <CNNscore>
0.1618855149

> <CNNaffinity>
5.6478238106

> <CNN_VS>
0.9143008590

> <CNNaffinity_variance>
0.0362007953

$$$$
22:0


 31 33  0  0  0  0  0  0  0  0999 V2000
   56.4657   25.2176   45.4394 C   0  0  0  0  0  0  0  0  0  0  0  0
   57.3833   25.7725   46.2342 C   0  0  0  0  0  0  0  0  0  0  0  0
   57.6733   25.2735   47.4118 O   0  0  0  0  0  0  0  0  0  0  0  0
   58.6255   25.9889   47.9581 C   0  0  0  0  0  0  0  0  0  0  0  0
   58.9864   27.0283   47.1143 C   0  0  0  0  0  0  0  0  0  0  0  0
   58.1862   26.8882   45.9697 C   0  0  0  0  0  0  0  0  0  0  0  0
   58.1535   27.6230   44.8345 C   0  0  0  0  0  0  0  0  0  0  0  0
   58.0663   29.0917   44.7561 C   0  0  0  0  0  0  0  0  0  0  0  0
   56.8268   29.7458   44.8494 C   0  0  0  0  0  0  0  0  0  0  0  0
   55.6437   29.0188   44.9121 O   0  0  0  0  0  0  0  0  0  0  0  0
   56.7762   31.1016   44.8794 N   0  0  0  0  0  0  0  0  0  0  0  0
   57.9118   31.8449   44.8600 C   0  0  0  0  0  0  0  0  0  0  0  0
   57.8420   33.1019   44.8793 O   0  0  0  0  0  0  0  0  0  0  0  0
   59.1250   31.2344   44.8248 N   0  0  0  0  0  0  0  0  0  0  0  0
   59.2271   29.8804   44.7918 C   0  0  0  0  0  0  0  0  0  0  0  0
   60.3693   29.3464   44.7775 O   0  0  0  0  0  0  0  0  0  0  0  0
   60.0596   28.0307   47.4566 C   0  0  0  0  0  0  0  0  0  0  0  0
   59.5482   29.2704   48.1696 C   0  0  0  0  0  0  0  0  0  0  0  0
   58.7244   29.0881   49.0542 O   0  0  0  0  0  0  0  0  0  0  0  0
   59.8766   30.6526   47.8086 N   0  0  0  0  0  0  0  0  0  0  0  0
   59.2558   31.6048   48.7523 C   0  0  0  0  0  0  0  0  0  0  0  0
   59.9266   31.5419   50.1244 C   0  0  0  0  0  0  0  0  0  0  0  0
   61.3852   31.6070   50.0046 N   0  0  0  0  0  0  0  0  0  0  0  0
   62.1683   31.8200   51.1941 C   0  0  0  0  0  0  0  0  0  0  0  0
   61.6327   31.6987   52.3307 O   0  0  0  0  0  0  0  0  0  0  0  0
   62.0152   31.7752   48.6872 C   0  0  0  0  0  0  0  0  0  0  0  0
   61.3116   30.9723   47.5658 C   0  0  0  0  0  0  0  0  0  0  0  0
   59.5634   31.1872   48.5737 H   0  0  0  0  0  0  0  0  0  0  0  0
   63.5164   32.1871   51.0883 O   0  0  0  0  0  0  0  0  0  0  0  0
   64.6021   31.3031   51.3568 C   0  0  0  0  0  0  0  0  0  0  0  0
   65.9002   31.8406   50.7730 C   0  0  0  0  0  0  0  0  0  0  0  0
  1  2  2  0
  2  3  1  0
  3  4  1  0
  4  5  2  0
  5 17  1  0
 17 18  1  0
 18 19  2  0
 18 20  1  0
 20 21  1  0
 21 22  1  0
 22 23  1  0
 23 24  1  0
 24 25  2  0
 24 29  1  0
 29 30  1  0
 30 31  1  0
 23 26  1  0
 26 27  1  0
  5  6  1  0
  6  7  2  0
  7  8  1  0
  8  9  2  0
  9 10  1  0
  9 11  1  0
 11 12  1  0
 12 13  2  0
 12 14  1  0
 14 15  1  0
 15 16  2  0
  6  2  1  0
 15  8  1  0
 27 20  1  0
 20 28  1  0
M  CHG 1  10  -1
M  CHG 1  11  -1
M  CHG 1  14  -1
M  CHG 1  20   1
M  END
> <UniqueID>
22

> <SMILES>
C=c1occ(CC(=O)[NH+]2CCN(C(=O)OCC)CC2)/c1=C\c1c([O-])[n-]c(=O)[n-]c1=O

> <Energy>
100.43113861974979

> <Genealogy>
C=c1occ(CC(=O)[NH+]2CCN(C(=O)OCC)CC2)c1=Cc1c([O-])[n-]c(=O)[n-]c1=O (protonated)
C=c1occ(CC(=O)[NH+]2CCN(C(=O)OCC)CC2)/c1=C\c1c([O-])[n-]c(=O)[n-]c1=O (cis-trans isomerization)
C=c1occ(CC(=O)[NH+]2CCN(C(=O)OCC)CC2)/c1=C\c1c([O-])[n-]c(=O)[n-]c1=O (3D coordinates assigned)
C=c1occ(CC(=O)[NH+]2CCN(C(=O)OCC)CC2)/c1=C\c1c([O-])[n-]c(=O)[n-]c1=O (nonaromatic ring conformer: 100.43113861974979 kcal/mol)

> <smiles>
C=c1occ(CC(=O)N2CCN(C(=O)OCC)CC2)c1=Cc1c(O)[nH]c(=O)[nH]c1=O

> <score_type>
oracle

> <origin>
adg

> <m_score__min__energy>
-14.390000000000001

> <m_primary>
energy

> <minimizedAffinity>
-5.71898

> <minimizedRMSD>
0.85810

> <CNNscore>
0.0962847322

> <CNNaffinity>
6.1257286072

> <CNN_VS>
0.5898141265

> <CNNaffinity_variance>
0.0420689471

$$$$
27:0


 36 39  0  0  0  0  0  0  0  0999 V2000
   58.2984   26.8802   44.7874 C   0  0  0  0  0  0  0  0  0  0  0  0
   58.5043   28.1252   45.2943 C   0  0  0  0  0  0  0  0  0  0  0  0
   59.6269   28.2786   46.1387 C   0  0  0  0  0  0  0  0  0  0  0  0
   60.0266   29.5452   46.5632 C   0  0  0  0  0  0  0  0  0  0  0  0
   59.2989   30.6298   46.2113 N   0  0  0  0  0  0  0  0  0  0  0  0
   58.1655   30.5481   45.4719 C   0  0  0  0  0  0  0  0  0  0  0  0
   57.6907   29.2810   45.0293 C   0  0  0  0  0  0  0  0  0  0  0  0
   56.4582   29.1893   44.4857 C   0  0  0  0  0  0  0  0  0  0  0  0
   55.4678   26.5809   45.9784 O   0  0  0  0  0  0  0  0  0  0  0  0
   56.4486   25.5969   45.9928 C   0  0  0  0  0  0  0  0  0  0  0  0
   56.2581   24.3577   46.4735 N   0  0  0  0  0  0  0  0  0  0  0  0
   57.4455   23.7627   46.2339 C   0  0  0  0  0  0  0  0  0  0  0  0
   57.6779   22.5647   46.5435 O   0  0  0  0  0  0  0  0  0  0  0  0
   58.3624   24.5471   45.6305 N   0  0  0  0  0  0  0  0  0  0  0  0
   57.7270   25.7233   45.5000 C   0  0  0  0  0  0  0  0  0  0  0  0
   54.6211   26.4038   46.3386 H   0  0  0  0  0  0  0  0  0  0  0  0
   61.2222   29.7258   47.4579 C   0  0  0  0  0  0  0  0  0  0  0  0
   61.7956   31.1342   47.3068 C   0  0  0  0  0  0  0  0  0  0  0  0
   57.2925   32.1000   45.1861 S   0  0  0  0  0  0  0  0  0  0  0  0
   58.4100   33.0344   46.2373 C   0  0  0  0  0  0  0  0  0  0  0  0
   59.0816   34.1528   45.7276 C   0  0  0  0  0  0  0  0  0  0  0  0
   59.9409   34.8843   46.5510 C   0  0  0  0  0  0  0  0  0  0  0  0
   60.1254   34.5099   47.8861 C   0  0  0  0  0  0  0  0  0  0  0  0
   59.4547   33.3921   48.4118 C   0  0  0  0  0  0  0  0  0  0  0  0
   58.6087   32.6463   47.5700 C   0  0  0  0  0  0  0  0  0  0  0  0
   59.6013   33.0267   49.8435 C   0  0  0  0  0  0  0  0  0  0  0  0
   59.5313   33.9180   50.7319 O   0  0  0  0  0  0  0  0  0  0  0  0
   59.8180   31.6622   50.2361 N   0  0  0  0  0  0  0  0  0  0  0  0
   58.7491   30.6836   50.0608 C   0  0  0  0  0  0  0  0  0  0  0  0
   58.1099   30.3776   51.4186 C   0  0  0  0  0  0  0  0  0  0  0  0
   59.1482   30.0843   52.4220 N   0  0  0  0  0  0  0  0  0  0  0  0
   58.9222   29.1029   53.4564 C   0  0  0  0  0  0  0  0  0  0  0  0
   59.8976   28.6586   54.1202 O   0  0  0  0  0  0  0  0  0  0  0  0
   57.5522   28.5534   53.7391 C   0  0  0  0  0  0  0  0  0  0  0  0
   60.2789   31.0257   52.5507 C   0  0  0  0  0  0  0  0  0  0  0  0
   60.8839   31.3243   51.1779 C   0  0  0  0  0  0  0  0  0  0  0  0
  9 10  1  0
 10 11  1  0
 11 12  1  0
 12 13  2  0
 12 14  1  0
 14 15  1  0
 15  1  1  0
  1  2  2  0
  2  3  1  0
  3  4  2  0
  4 17  1  0
 17 18  1  0
  4  5  1  0
  5  6  2  0
  6 19  1  0
 19 20  1  0
 20 21  2  0
 21 22  1  0
 22 23  2  0
 23 24  1  0
 24 26  1  0
 26 27  2  0
 26 28  1  0
 28 29  1  0
 29 30  1  0
 30 31  1  0
 31 32  1  0
 32 33  2  0
 32 34  1  0
 31 35  1  0
 35 36  1  0
 24 25  2  0
  6  7  1  0
  7  8  2  0
 15 10  2  0
  7  2  1  0
 25 20  1  0
 36 28  1  0
  9 16  1  0
M  CHG 1  11  -1
M  CHG 1  14  -1
M  END
> <UniqueID>
26

> <SMILES>
C=c1c(Sc2cccc(C(=O)N3CCN(C(C)=O)CC3)c2)nc(CC)c/c1=C/c1[n-]c(=O)[n-]c1O

> <Energy>
112.97603147340551

> <Genealogy>
C=c1c(Sc2cccc(C(=O)N3CCN(C(C)=O)CC3)c2)nc(CC)cc1=Cc1[n-]c(=O)[n-]c1O (protonated)
C=c1c(Sc2cccc(C(=O)N3CCN(C(C)=O)CC3)c2)nc(CC)c/c1=C/c1[n-]c(=O)[n-]c1O (cis-trans isomerization)
C=c1c(Sc2cccc(C(=O)N3CCN(C(C)=O)CC3)c2)nc(CC)c/c1=C/c1[n-]c(=O)[n-]c1O (3D coordinates assigned)
C=c1c(Sc2cccc(C(=O)N3CCN(C(C)=O)CC3)c2)nc(CC)c/c1=C/c1[n-]c(=O)[n-]c1O (nonaromatic ring conformer: 112.97603147340551 kcal/mol)

> <smiles>
C=c1c(Sc2cccc(C(=O)N3CCN(C(C)=O)CC3)c2)nc(CC)cc1=Cc1[nH]c(=O)[nH]c1O

> <score_type>
oracle

> <origin>
adg

> <m_score__min__energy>
-14.699999999999999

> <m_primary>
energy

> <minimizedAffinity>
-8.89130

> <minimizedRMSD>
0.61932

> <CNNscore>
0.4996978045

> <CNNaffinity>
7.2850298882

> <CNN_VS>
3.6403133869

> <CNNaffinity_variance>
0.1072524190

$$$$
33:0


 25 27  0  0  0  0  0  0  0  0999 V2000
   58.0036   31.1985   53.1633 C   0  0  0  0  0  0  0  0  0  0  0  0
   56.8991   30.4813   53.3817 C   0  0  0  0  0  0  0  0  0  0  0  0
   55.5119   30.6179   52.4411 S   0  0  0  0  0  0  0  0  0  0  0  0
   54.6347   29.4884   53.3340 C   0  0  0  0  0  0  0  0  0  0  0  0
   53.3678   29.0892   53.1241 C   0  0  0  0  0  0  0  0  0  0  0  0
   55.4681   29.0305   54.3603 C   0  0  0  0  0  0  0  0  0  0  0  0
   55.0884   28.1810   55.2139 O   0  0  0  0  0  0  0  0  0  0  0  0
   56.7258   29.5709   54.3808 N   0  0  0  0  0  0  0  0  0  0  0  0
   52.1687   29.7639   53.6635 C   0  0  0  0  0  0  0  0  0  0  0  0
   52.1653   30.8611   54.4445 N   0  0  0  0  0  0  0  0  0  0  0  0
   50.8527   31.0844   54.6675 C   0  0  0  0  0  0  0  0  0  0  0  0
   50.4390   32.0421   55.3707 O   0  0  0  0  0  0  0  0  0  0  0  0
   50.0186   30.2014   54.0797 N   0  0  0  0  0  0  0  0  0  0  0  0
   50.8667   29.3746   53.4489 C   0  0  0  0  0  0  0  0  0  0  0  0
   50.4599   28.2821   52.6905 O   0  0  0  0  0  0  0  0  0  0  0  0
   57.7313   29.2292   55.4033 C   0  0  0  0  0  0  0  0  0  0  0  0
   57.8416   30.3182   56.4534 C   0  0  0  0  0  0  0  0  0  0  0  0
   58.9531   30.7001   56.7960 O   0  0  0  0  0  0  0  0  0  0  0  0
   56.6679   30.9459   57.0380 N   0  0  0  0  0  0  0  0  0  0  0  0
   57.0117   32.2365   57.6691 C   0  0  0  0  0  0  0  0  0  0  0  0
   55.8364   32.7777   58.5122 C   0  0  0  0  0  0  0  0  0  0  0  0
   54.6311   32.1075   58.1980 O   0  0  0  0  0  0  0  0  0  0  0  0
   54.7259   30.7440   58.5741 C   0  0  0  0  0  0  0  0  0  0  0  0
   55.9877   30.0565   57.9981 C   0  0  0  0  0  0  0  0  0  0  0  0
   56.4076   31.6959   56.4558 H   0  0  0  0  0  0  0  0  0  0  0  0
  1  2  2  0
  2  3  1  0
  3  4  1  0
  4  5  2  0
  5  9  1  0
  9 10  1  0
 10 11  1  0
 11 12  2  0
 11 13  1  0
 13 14  1  0
 14 15  1  0
  4  6  1  0
  6  7  2  0
  6  8  1  0
  8 16  1  0
 16 17  1  0
 17 18  2  0
 17 19  1  0
 19 20  1  0
 20 21  1  0
 21 22  1  0
 22 23  1  0
 23 24  1  0
  8  2  1  0
 24 19  1  0
 14  9  2  0
 19 25  1  0
M  CHG 1  10  -1
M  CHG 1  13  -1
M  CHG 1  15  -1
M  CHG 1  19   1
M  END
> <UniqueID>
31

> <SMILES>
C=c1sc(=Cc2[n-]c(=O)[n-]c2[O-])c(=O)n1CC(=O)[NH+]1CCOCC1

> <Energy>
115.07687345162704

> <Genealogy>
C=c1sc(=Cc2[n-]c(=O)[n-]c2[O-])c(=O)n1CC(=O)[NH+]1CCOCC1 (protonated)
C=c1sc(=Cc2[n-]c(=O)[n-]c2[O-])c(=O)n1CC(=O)[NH+]1CCOCC1 (3D coordinates assigned)
C=c1sc(=Cc2[n-]c(=O)[n-]c2[O-])c(=O)n1CC(=O)[NH+]1CCOCC1 (nonaromatic ring conformer: 115.07687345162704 kcal/mol)

> <smiles>
C=c1sc(=Cc2[nH]c(=O)[nH]c2O)c(=O)n1CC(=O)N1CCOCC1

> <score_type>
oracle

> <origin>
adg

> <m_score__min__energy>
-14.09

> <m_primary>
energy

> <minimizedAffinity>
-3.14803

> <minimizedRMSD>
3.51552

> <CNNscore>
0.2276841551

> <CNNaffinity>
4.3296132088

> <CNN_VS>
0.9857843518

> <CNNaffinity_variance>
0.1971232444

$$$$
41:0


 29 32  0  0  0  0  0  0  0  0999 V2000
   60.6549   30.1067   49.1023 C   0  0  0  0  0  0  0  0  0  0  0  0
   59.8323   29.6372   49.9383 O   0  0  0  0  0  0  0  0  0  0  0  0
   60.9073   31.5309   49.0669 N   0  0  0  0  0  0  0  0  0  0  0  0
   61.5635   32.1491   47.9021 C   0  0  0  0  0  0  0  0  0  0  0  0
   61.4775   33.6825   47.9342 C   0  0  0  0  0  0  0  0  0  0  0  0
   60.0861   34.1874   48.3708 C   0  0  0  0  0  0  0  0  0  0  0  0
   59.5589   33.5063   49.6651 C   0  0  0  0  0  0  0  0  0  0  0  0
   60.4798   32.3927   50.1808 C   0  0  0  0  0  0  0  0  0  0  0  0
   59.1218   34.0920   47.2586 N   0  0  0  0  0  0  0  0  0  0  0  0
   59.1078   34.8560   46.1514 C   0  0  0  0  0  0  0  0  0  0  0  0
   59.9796   35.9106   45.9043 O   0  0  0  0  0  0  0  0  0  0  0  0
   58.1133   34.4285   45.3033 C   0  0  0  0  0  0  0  0  0  0  0  0
   57.4922   33.3692   45.8594 N   0  0  0  0  0  0  0  0  0  0  0  0
   58.1335   33.1929   47.0355 C   0  0  0  0  0  0  0  0  0  0  0  0
   57.8296   32.2694   47.8357 O   0  0  0  0  0  0  0  0  0  0  0  0
   61.2921   29.1617   48.1127 C   0  0  0  0  0  0  0  0  0  0  0  0
   57.7831   31.6623   43.5534 C   0  0  0  0  0  0  0  0  0  0  0  0
   57.5888   30.5077   44.1917 C   0  0  0  0  0  0  0  0  0  0  0  0
   56.4210   29.7571   43.9941 C   0  0  0  0  0  0  0  0  0  0  0  0
   56.2590   28.5854   44.6618 N   0  0  0  0  0  0  0  0  0  0  0  0
   57.2047   28.1198   45.5207 C   0  0  0  0  0  0  0  0  0  0  0  0
   57.0110   26.9107   46.1943 C   0  0  0  0  0  0  0  0  0  0  0  0
   55.8500   26.1711   45.9951 O   0  0  0  0  0  0  0  0  0  0  0  0
   57.9864   26.4411   47.0731 C   0  0  0  0  0  0  0  0  0  0  0  0
   59.1599   27.1687   47.2849 C   0  0  0  0  0  0  0  0  0  0  0  0
   59.3854   28.3976   46.6179 C   0  0  0  0  0  0  0  0  0  0  0  0
   60.5202   29.1129   46.8174 C   0  0  0  0  0  0  0  0  0  0  0  0
   58.3868   28.8678   45.7262 C   0  0  0  0  0  0  0  0  0  0  0  0
   58.5355   30.0422   45.0496 N   0  0  0  0  0  0  0  0  0  0  0  0
 17 18  2  0
 18 19  1  0
 19 20  2  0
 20 21  1  0
 21 22  2  0
 22 23  1  0
 22 24  1  0
 24 25  2  0
 25 26  1  0
 26 27  2  0
 27 16  1  0
 16  1  1  0
  1  2  2  0
  1  3  1  0
  3  4  1  0
  4  5  1  0
  5  6  1  0
  6  9  1  0
  9 10  1  0
 10 11  1  0
 10 12  2  0
 12 13  1  0
 13 14  1  0
 14 15  2  0
  6  7  1  0
  7  8  1  0
 26 28  1  0
 28 29  2  0
 29 18  1  0
 28 21  1  0
  8  3  1  0
 14  9  1  0
M  CHG 1  11  -1
M  CHG 1  13  -1
M  CHG 1  23  -1
M  END
> <UniqueID>
39

> <SMILES>
C=c1cnc2c([O-])ccc(=CCC(=O)N3CCC(n4c([O-])c[n-]c4=O)CC3)c2n1

> <Energy>
95.28977759042525

> <Genealogy>
C=c1cnc2c([O-])ccc(=CCC(=O)N3CCC(n4c([O-])c[n-]c4=O)CC3)c2n1 (protonated)
C=c1cnc2c([O-])ccc(=CCC(=O)N3CCC(n4c([O-])c[n-]c4=O)CC3)c2n1 (3D coordinates assigned)
C=c1cnc2c([O-])ccc(=CCC(=O)N3CCC(n4c([O-])c[n-]c4=O)CC3)c2n1 (nonaromatic ring conformer: 95.28977759042525 kcal/mol)

> <smiles>
C=c1cnc2c(O)ccc(=CCC(=O)N3CCC(n4c(O)c[nH]c4=O)CC3)c2n1

> <score_type>
oracle

> <origin>
adg

> <m_score__min__energy>
-14.119999999999999

> <m_primary>
energy

> <minimizedAffinity>
-6.35818

> <minimizedRMSD>
0.49837

> <CNNscore>
0.3153010905

> <CNNaffinity>
6.5268340111

> <CNN_VS>
2.0579178333

> <CNNaffinity_variance>
0.0828696564

$$$$
44:0


 30 33  0  0  0  0  0  0  0  0999 V2000
   53.4129   27.9872   53.8656 C   0  0  0  0  0  0  0  0  0  0  0  0
   54.6012   28.5919   53.6595 C   0  0  0  0  0  0  0  0  0  0  0  0
   55.7581   27.8073   53.8415 C   0  0  0  0  0  0  0  0  0  0  0  0
   57.0300   28.3522   53.7065 C   0  0  0  0  0  0  0  0  0  0  0  0
   57.1934   29.6961   53.3655 C   0  0  0  0  0  0  0  0  0  0  0  0
   56.0566   30.4955   53.1741 C   0  0  0  0  0  0  0  0  0  0  0  0
   54.7441   29.9775   53.3089 C   0  0  0  0  0  0  0  0  0  0  0  0
   53.6739   30.7783   53.0535 C   0  0  0  0  0  0  0  0  0  0  0  0
   58.5516   30.2726   53.2302 C   0  0  0  0  0  0  0  0  0  0  0  0
   59.2560   30.4667   54.2581 O   0  0  0  0  0  0  0  0  0  0  0  0
   59.0703   30.6426   51.9444 N   0  0  0  0  0  0  0  0  0  0  0  0
   59.2653   29.6041   50.9219 C   0  0  0  0  0  0  0  0  0  0  0  0
   59.7142   30.2074   49.5848 C   0  0  0  0  0  0  0  0  0  0  0  0
   58.9313   31.5036   49.3047 C   0  0  0  0  0  0  0  0  0  0  0  0
   59.2125   32.5728   50.3935 C   0  0  0  0  0  0  0  0  0  0  0  0
   59.6368   31.9817   51.7515 C   0  0  0  0  0  0  0  0  0  0  0  0
   59.2518   32.0569   47.9010 C   0  0  0  0  0  0  0  0  0  0  0  0
   58.6093   33.3767   47.7000 N   0  0  0  0  0  0  0  0  0  0  0  0
   59.5903   34.4650   47.4380 C   0  0  0  0  0  0  0  0  0  0  0  0
   59.6044   34.9668   45.9798 C   0  0  0  0  0  0  0  0  0  0  0  0
   59.3771   33.8132   45.0022 C   0  0  0  0  0  0  0  0  0  0  0  0
   58.0470   33.0896   45.2754 C   0  0  0  0  0  0  0  0  0  0  0  0
   57.5198   33.3255   46.7037 C   0  0  0  0  0  0  0  0  0  0  0  0
   52.8745   30.7777   51.8116 C   0  0  0  0  0  0  0  0  0  0  0  0
   53.0297   29.8654   50.8365 N   0  0  0  0  0  0  0  0  0  0  0  0
   52.0341   30.1561   49.9708 C   0  0  0  0  0  0  0  0  0  0  0  0
   51.8545   29.5139   48.9032 O   0  0  0  0  0  0  0  0  0  0  0  0
   51.2382   31.1802   50.3457 N   0  0  0  0  0  0  0  0  0  0  0  0
   51.7724   31.5541   51.5199 C   0  0  0  0  0  0  0  0  0  0  0  0
   51.2398   32.5545   52.3232 O   0  0  0  0  0  0  0  0  0  0  0  0
  1  2  2  0
  2  3  1  0
  3  4  2  0
  4  5  1  0
  5  9  1  0
  9 10  2  0
  9 11  1  0
 11 12  1  0
 12 13  1  0
 13 14  1  0
 14 17  1  0
 17 18  1  0
 18 19  1  0
 19 20  1  0
 20 21  1  0
 21 22  1  0
 22 23  1  0
 14 15  1  0
 15 16  1  0
  5  6  2  0
  6  7  1  0
  7  8  2  0
  8 24  1  0
 24 25  1  0
 25 26  1  0
 26 27  2  0
 26 28  1  0
 28 29  1  0
 29 30  1  0
  7  2  1  0
 29 24  2  0
 16 11  1  0
 23 18  1  0
M  CHG 1  25  -1
M  CHG 1  28  -1
M  CHG 1  30  -1
M  END
> <UniqueID>
42

> <SMILES>
C=c1ccc(C(=O)N2CCC(CN3CCCCC3)CC2)c/c1=C\c1[n-]c(=O)[n-]c1[O-]

> <Energy>
116.57583805605057

> <Genealogy>
C=c1ccc(C(=O)N2CCC(CN3CCCCC3)CC2)cc1=Cc1[n-]c(=O)[n-]c1[O-] (protonated)
C=c1ccc(C(=O)N2CCC(CN3CCCCC3)CC2)c/c1=C\c1[n-]c(=O)[n-]c1[O-] (cis-trans isomerization)
C=c1ccc(C(=O)N2CCC(CN3CCCCC3)CC2)c/c1=C\c1[n-]c(=O)[n-]c1[O-] (3D coordinates assigned)
C=c1ccc(C(=O)N2CCC(CN3CCCCC3)CC2)c/c1=C\c1[n-]c(=O)[n-]c1[O-] (nonaromatic ring conformer: 116.57583805605057 kcal/mol)

> <smiles>
C=c1ccc(C(=O)N2CCC(CN3CCCCC3)CC2)cc1=Cc1[nH]c(=O)[nH]c1O

> <score_type>
oracle

> <origin>
adg

> <m_score__min__energy>
-18.98

> <m_primary>
energy

> <minimizedAffinity>
-6.86201

> <minimizedRMSD>
0.86086

> <CNNscore>
0.0898368657

> <CNNaffinity>
5.4195952415

> <CNN_VS>
0.4868794382

> <CNNaffinity_variance>
0.2900392115

$$$$
51:0


 31 34  0  0  0  0  0  0  0  0999 V2000
   58.7363   29.2236   51.7743 C   0  0  0  0  0  0  0  0  0  0  0  0
   59.6909   30.0267   51.2828 C   0  0  0  0  0  0  0  0  0  0  0  0
   59.8381   31.2289   51.8900 N   0  0  0  0  0  0  0  0  0  0  0  0
   60.6088   32.2162   51.3801 C   0  0  0  0  0  0  0  0  0  0  0  0
   60.7024   33.3014   52.0161 O   0  0  0  0  0  0  0  0  0  0  0  0
   61.2502   32.0435   50.1843 N   0  0  0  0  0  0  0  0  0  0  0  0
   61.1670   30.8360   49.5363 C   0  0  0  0  0  0  0  0  0  0  0  0
   61.7711   30.6809   48.4364 O   0  0  0  0  0  0  0  0  0  0  0  0
   60.4485   29.7489   50.1047 C   0  0  0  0  0  0  0  0  0  0  0  0
   60.5455   28.5225   49.5167 C   0  0  0  0  0  0  0  0  0  0  0  0
   59.8495   28.0813   48.2889 C   0  0  0  0  0  0  0  0  0  0  0  0
   60.0548   26.7952   47.7610 C   0  0  0  0  0  0  0  0  0  0  0  0
   59.4146   26.4067   46.5810 C   0  0  0  0  0  0  0  0  0  0  0  0
   59.6565   24.7786   45.9647 Cl  0  0  0  0  0  0  0  0  0  0  0  0
   58.5876   27.3097   45.8981 C   0  0  0  0  0  0  0  0  0  0  0  0
   57.9198   26.9016   44.7491 O   0  0  0  0  0  0  0  0  0  0  0  0
   58.4227   28.6184   46.3902 C   0  0  0  0  0  0  0  0  0  0  0  0
   59.0495   28.9940   47.5863 C   0  0  0  0  0  0  0  0  0  0  0  0
   57.5843   29.5975   45.6745 C   0  0  0  0  0  0  0  0  0  0  0  0
   56.5454   29.2027   45.0816 O   0  0  0  0  0  0  0  0  0  0  0  0
   57.8958   30.9955   45.6731 N   0  0  0  0  0  0  0  0  0  0  0  0
   58.5997   31.6669   44.5865 C   0  0  0  0  0  0  0  0  0  0  0  0
   57.9448   32.9634   44.1451 C   0  0  0  0  0  0  0  0  0  0  0  0
   57.7961   31.7068   43.3008 C   0  0  0  0  0  0  0  0  0  0  0  0
   62.0096   33.1596   49.5801 C   0  0  0  0  0  0  0  0  0  0  0  0
   61.2868   33.6925   48.3697 C   0  0  0  0  0  0  0  0  0  0  0  0
   59.9803   34.1939   48.4891 C   0  0  0  0  0  0  0  0  0  0  0  0
   59.2983   34.6600   47.3606 C   0  0  0  0  0  0  0  0  0  0  0  0
   59.9116   34.6260   46.1059 C   0  0  0  0  0  0  0  0  0  0  0  0
   61.2097   34.1232   45.9773 C   0  0  0  0  0  0  0  0  0  0  0  0
   61.8960   33.6572   47.1026 C   0  0  0  0  0  0  0  0  0  0  0  0
  1  2  2  0
  2  3  1  0
  3  4  1  0
  4  5  2  0
  4  6  1  0
  6 25  1  0
 25 26  1  0
 26 27  2  0
 27 28  1  0
 28 29  2  0
 29 30  1  0
 30 31  2  0
  6  7  1  0
  7  8  2  0
  7  9  1  0
  9 10  2  0
 10 11  1  0
 11 12  2  0
 12 13  1  0
 13 14  1  0
 13 15  2  0
 15 16  1  0
 15 17  1  0
 17 19  1  0
 19 20  2  0
 19 21  1  0
 21 22  1  0
 22 23  1  0
 23 24  1  0
 17 18  2  0
  9  2  1  0
 18 11  1  0
 31 26  1  0
 24 22  1  0
M  CHG 1   3  -1
M  CHG 1  16  -1
M  CHG 1  21  -1
M  END
> <UniqueID>
47

> <SMILES>
C=c1[n-]c(=O)n(Cc2ccccc2)c(=O)c1=Cc1cc(Cl)c([O-])c(C(=O)[N-]C2CC2)c1

> <Energy>
347.9084217960006

> <Genealogy>
C=c1[n-]c(=O)n(Cc2ccccc2)c(=O)c1=Cc1cc(Cl)c([O-])c(C(=O)[N-]C2CC2)c1 (protonated)
C=c1[n-]c(=O)n(Cc2ccccc2)c(=O)c1=Cc1cc(Cl)c([O-])c(C(=O)[N-]C2CC2)c1 (3D coordinates assigned)
C=c1[n-]c(=O)n(Cc2ccccc2)c(=O)c1=Cc1cc(Cl)c([O-])c(C(=O)[N-]C2CC2)c1 (nonaromatic ring conformer: 347.9084217960006 kcal/mol)

> <smiles>
C=c1[nH]c(=O)n(Cc2ccccc2)c(=O)c1=Cc1cc(Cl)c(O)c(C(=O)NC2CC2)c1

> <score_type>
oracle

> <origin>
adg

> <m_score__min__energy>
-15.51

> <m_primary>
energy

> <minimizedAffinity>
-7.27965

> <minimizedRMSD>
2.14366

> <CNNscore>
0.3577198386

> <CNNaffinity>
6.7600378990

> <CNN_VS>
2.4181997776

> <CNNaffinity_variance>
0.2163972855

$$$$
54:0


 28 31  0  0  0  0  0  0  0  0999 V2000
   56.6560   25.0176   44.3451 C   0  0  0  0  0  0  0  0  0  0  0  0
   57.6147   25.2849   45.2356 C   0  0  0  0  0  0  0  0  0  0  0  0
   57.8111   24.5320   46.2915 O   0  0  0  0  0  0  0  0  0  0  0  0
   58.8047   25.0218   46.9902 C   0  0  0  0  0  0  0  0  0  0  0  0
   59.3051   26.1554   46.3734 C   0  0  0  0  0  0  0  0  0  0  0  0
   58.5173   26.3531   45.2299 C   0  0  0  0  0  0  0  0  0  0  0  0
   58.5956   27.3107   44.2811 C   0  0  0  0  0  0  0  0  0  0  0  0
   58.0193   28.6598   44.3784 C   0  0  0  0  0  0  0  0  0  0  0  0
   58.6500   29.7901   44.0130 N   0  0  0  0  0  0  0  0  0  0  0  0
   57.8067   30.7628   44.4229 C   0  0  0  0  0  0  0  0  0  0  0  0
   58.0433   31.9862   44.2451 O   0  0  0  0  0  0  0  0  0  0  0  0
   56.6944   30.3215   45.0489 N   0  0  0  0  0  0  0  0  0  0  0  0
   56.8541   28.9891   45.0247 C   0  0  0  0  0  0  0  0  0  0  0  0
   55.9539   28.0909   45.5862 O   0  0  0  0  0  0  0  0  0  0  0  0
   60.5639   26.8484   46.8353 C   0  0  0  0  0  0  0  0  0  0  0  0
   60.3369   27.7579   48.0152 C   0  0  0  0  0  0  0  0  0  0  0  0
   60.4898   27.2865   49.1739 O   0  0  0  0  0  0  0  0  0  0  0  0
   59.9993   29.1510   47.8551 N   0  0  0  0  0  0  0  0  0  0  0  0
   59.1687   29.8300   48.8558 C   0  0  0  0  0  0  0  0  0  0  0  0
   59.8474   31.1279   49.3459 C   0  0  0  0  0  0  0  0  0  0  0  0
   60.8930   31.6341   48.4187 N   0  0  0  0  0  0  0  0  0  0  0  0
   60.4600   31.4228   47.0179 C   0  0  0  0  0  0  0  0  0  0  0  0
   60.4861   29.9249   46.7056 C   0  0  0  0  0  0  0  0  0  0  0  0
   61.2595   33.0638   48.6442 C   0  0  0  0  0  0  0  0  0  0  0  0
   62.4332   33.2779   49.6159 C   0  0  0  0  0  0  0  0  0  0  0  0
   63.6853   33.0558   48.7902 C   0  0  0  0  0  0  0  0  0  0  0  0
   63.3244   33.4912   47.3747 C   0  0  0  0  0  0  0  0  0  0  0  0
   61.8066   33.6738   47.3443 C   0  0  0  0  0  0  0  0  0  0  0  0
  1  2  2  0
  2  3  1  0
  3  4  1  0
  4  5  2  0
  5 15  1  0
 15 16  1  0
 16 17  2  0
 16 18  1  0
 18 19  1  0
 19 20  1  0
 20 21  1  0
 21 24  1  0
 24 25  1  0
 25 26  1  0
 26 27  1  0
 27 28  1  0
 21 22  1  0
 22 23  1  0
  5  6  1  0
  6  7  2  0
  7  8  1  0
  8  9  1  0
  9 10  1  0
 10 11  2  0
 10 12  1  0
 12 13  1  0
 13 14  1  0
  6  2  1  0
 13  8  2  0
 23 18  1  0
 28 24  1  0
M  CHG 1   9  -1
M  CHG 1  12  -1
M  CHG 1  14  -1
M  END
> <UniqueID>
50

> <SMILES>
C=c1occ(CC(=O)N2CCN(C3CCCC3)CC2)/c1=C\c1[n-]c(=O)[n-]c1[O-]

> <Energy>
133.1665148670863

> <Genealogy>
C=c1occ(CC(=O)N2CCN(C3CCCC3)CC2)c1=Cc1[n-]c(=O)[n-]c1[O-] (protonated)
C=c1occ(CC(=O)N2CCN(C3CCCC3)CC2)/c1=C\c1[n-]c(=O)[n-]c1[O-] (cis-trans isomerization)
C=c1occ(CC(=O)N2CCN(C3CCCC3)CC2)/c1=C\c1[n-]c(=O)[n-]c1[O-] (3D coordinates assigned)
C=c1occ(CC(=O)N2CCN(C3CCCC3)CC2)/c1=C\c1[n-]c(=O)[n-]c1[O-] (nonaromatic ring conformer: 133.1665148670863 kcal/mol)

> <smiles>
C=c1occ(CC(=O)N2CCN(C3CCCC3)CC2)c1=Cc1[nH]c(=O)[nH]c1O

> <score_type>
oracle

> <origin>
adg

> <m_score__min__energy>
-18.140000000000001

> <m_primary>
energy

> <minimizedAffinity>
-5.98715

> <minimizedRMSD>
1.65592

> <CNNscore>
0.1240449995

> <CNNaffinity>
6.3394827843

> <CNN_VS>
0.7863811255

> <CNNaffinity_variance>
0.0069473810

$$$$
57:0


 27 29  0  0  0  0  0  0  0  0999 V2000
   53.0092   29.7822   52.3478 C   0  0  0  0  0  0  0  0  0  0  0  0
   54.3420   29.8922   52.5117 C   0  0  0  0  0  0  0  0  0  0  0  0
   55.0685   30.9636   52.0233 C   0  0  0  0  0  0  0  0  0  0  0  0
   56.3958   30.7213   52.3127 C   0  0  0  0  0  0  0  0  0  0  0  0
   56.5213   29.5510   52.9823 N   0  0  0  0  0  0  0  0  0  0  0  0
   57.7718   28.9791   53.4950 C   0  0  0  0  0  0  0  0  0  0  0  0
   55.2686   29.0491   53.1477 C   0  0  0  0  0  0  0  0  0  0  0  0
   54.9972   27.9840   53.9188 C   0  0  0  0  0  0  0  0  0  0  0  0
   51.5717   31.8884   50.5759 O   0  0  0  0  0  0  0  0  0  0  0  0
   51.4041   31.7300   51.9489 C   0  0  0  0  0  0  0  0  0  0  0  0
   50.6231   32.5291   52.6939 N   0  0  0  0  0  0  0  0  0  0  0  0
   50.8047   32.0468   53.9417 C   0  0  0  0  0  0  0  0  0  0  0  0
   50.2356   32.5420   54.9502 O   0  0  0  0  0  0  0  0  0  0  0  0
   51.6517   30.9981   54.0271 N   0  0  0  0  0  0  0  0  0  0  0  0
   52.0100   30.7830   52.7497 C   0  0  0  0  0  0  0  0  0  0  0  0
   51.1112   32.5671   50.1229 H   0  0  0  0  0  0  0  0  0  0  0  0
   57.5051   31.6545   52.0277 C   0  0  0  0  0  0  0  0  0  0  0  0
   57.4298   32.8372   52.4555 O   0  0  0  0  0  0  0  0  0  0  0  0
   58.6774   31.2633   51.2997 N   0  0  0  0  0  0  0  0  0  0  0  0
   58.7496   30.9627   49.8715 C   0  0  0  0  0  0  0  0  0  0  0  0
   59.0294   32.2456   49.0597 C   0  0  0  0  0  0  0  0  0  0  0  0
   58.3892   32.2882   47.7250 N   0  0  0  0  0  0  0  0  0  0  0  0
   58.8148   31.1891   46.8343 C   0  0  0  0  0  0  0  0  0  0  0  0
   58.3073   31.4196   45.3987 C   0  0  0  0  0  0  0  0  0  0  0  0
   57.1895   32.2856   45.4025 O   0  0  0  0  0  0  0  0  0  0  0  0
   57.5868   33.5910   45.7902 C   0  0  0  0  0  0  0  0  0  0  0  0
   58.4675   33.5984   47.0578 C   0  0  0  0  0  0  0  0  0  0  0  0
  9 10  1  0
 10 11  1  0
 11 12  1  0
 12 13  2  0
 12 14  1  0
 14 15  1  0
 15  1  1  0
  1  2  2  0
  2  3  1  0
  3  4  2  0
  4 17  1  0
 17 18  2  0
 17 19  1  0
 19 20  1  0
 20 21  1  0
 21 22  1  0
 22 23  1  0
 23 24  1  0
 24 25  1  0
 25 26  1  0
 26 27  1  0
  4  5  1  0
  5  6  1  0
  5  7  1  0
  7  8  2  0
 15 10  2  0
  7  2  1  0
 27 22  1  0
  9 16  1  0
M  CHG 1  11  -1
M  CHG 1  14  -1
M  CHG 1  19  -1
M  END
> <UniqueID>
53

> <SMILES>
C=c1/c(=C\c2[n-]c(=O)[n-]c2O)cc(C(=O)[N-]CCN2CCOCC2)n1C

> <Energy>
134.50076318856136

> <Genealogy>
C=c1c(=Cc2[n-]c(=O)[n-]c2O)cc(C(=O)[N-]CCN2CCOCC2)n1C (protonated)
C=c1/c(=C\c2[n-]c(=O)[n-]c2O)cc(C(=O)[N-]CCN2CCOCC2)n1C (cis-trans isomerization)
C=c1/c(=C\c2[n-]c(=O)[n-]c2O)cc(C(=O)[N-]CCN2CCOCC2)n1C (3D coordinates assigned)
C=c1/c(=C\c2[n-]c(=O)[n-]c2O)cc(C(=O)[N-]CCN2CCOCC2)n1C (nonaromatic ring conformer: 134.50076318856136 kcal/mol)

> <smiles>
C=c1c(=Cc2[nH]c(=O)[nH]c2O)cc(C(=O)NCCN2CCOCC2)n1C

> <score_type>
oracle

> <origin>
adg

> <m_score__min__energy>
-14.01

> <m_primary>
energy

> <minimizedAffinity>
-6.95006

> <minimizedRMSD>
0.65090

> <CNNscore>
0.2675368488

> <CNNaffinity>
4.5886421204

> <CNN_VS>
1.2276308537

> <CNNaffinity_variance>
0.6484302878

$$$$
59:0


 28 30  0  0  0  0  0  0  0  0999 V2000
   58.0199   32.6806   44.2175 C   0  0  0  0  0  0  0  0  0  0  0  0
   58.3623   31.5764   44.8851 C   0  0  0  0  0  0  0  0  0  0  0  0
   58.4331   30.3614   44.3110 N   0  0  0  0  0  0  0  0  0  0  0  0
   58.8371   29.4873   45.2585 C   0  0  0  0  0  0  0  0  0  0  0  0
   59.0120   28.1807   44.9854 C   0  0  0  0  0  0  0  0  0  0  0  0
   59.0052   30.1586   46.4770 C   0  0  0  0  0  0  0  0  0  0  0  0
   59.2840   29.5680   47.8330 C   0  0  0  0  0  0  0  0  0  0  0  0
   58.7192   31.4970   46.2228 C   0  0  0  0  0  0  0  0  0  0  0  0
   58.2280   30.1483   43.3720 H   0  0  0  0  0  0  0  0  0  0  0  0
   58.7410   32.6010   47.2040 C   0  0  0  0  0  0  0  0  0  0  0  0
   57.6806   33.2432   47.4300 O   0  0  0  0  0  0  0  0  0  0  0  0
   59.9516   32.9478   47.9013 N   0  0  0  0  0  0  0  0  0  0  0  0
   61.2418   32.8639   47.1958 C   0  0  0  0  0  0  0  0  0  0  0  0
   62.3625   33.5613   47.9738 C   0  0  0  0  0  0  0  0  0  0  0  0
   62.3202   33.1659   49.3875 N   0  0  0  0  0  0  0  0  0  0  0  0
   63.5273   32.9366   50.1324 C   0  0  0  0  0  0  0  0  0  0  0  0
   64.6583   33.0680   49.5937 O   0  0  0  0  0  0  0  0  0  0  0  0
   61.0391   33.0961   50.1030 C   0  0  0  0  0  0  0  0  0  0  0  0
   59.8748   33.5700   49.2271 C   0  0  0  0  0  0  0  0  0  0  0  0
   58.4250   27.0715   45.7600 C   0  0  0  0  0  0  0  0  0  0  0  0
   57.0343   26.9205   45.8437 C   0  0  0  0  0  0  0  0  0  0  0  0
   56.1853   27.8400   45.2382 O   0  0  0  0  0  0  0  0  0  0  0  0
   56.5061   25.8744   46.5315 N   0  0  0  0  0  0  0  0  0  0  0  0
   57.3063   24.9555   47.1301 C   0  0  0  0  0  0  0  0  0  0  0  0
   56.7960   23.9962   47.7643 O   0  0  0  0  0  0  0  0  0  0  0  0
   58.6562   25.0657   47.0394 N   0  0  0  0  0  0  0  0  0  0  0  0
   59.2325   26.0930   46.3634 C   0  0  0  0  0  0  0  0  0  0  0  0
   60.4882   26.1567   46.2848 O   0  0  0  0  0  0  0  0  0  0  0  0
  1  2  2  0
  2  3  1  0
  3  4  1  0
  4  5  2  0
  5 20  1  0
 20 21  2  0
 21 22  1  0
 21 23  1  0
 23 24  1  0
 24 25  2  0
 24 26  1  0
 26 27  1  0
 27 28  2  0
  4  6  1  0
  6  7  1  0
  6  8  2  0
  8 10  1  0
 10 11  2  0
 10 12  1  0
 12 13  1  0
 13 14  1  0
 14 15  1  0
 15 16  1  0
 16 17  2  0
 15 18  1  0
 18 19  1  0
  8  2  1  0
 19 12  1  0
 27 20  1  0
  3  9  1  0
M  CHG 1  22  -1
M  CHG 1  23  -1
M  CHG 1  26  -1
M  END
> <UniqueID>
55

> <SMILES>
C=c1[nH]c(=Cc2c([O-])[n-]c(=O)[n-]c2=O)c(C)c1C(=O)N1CCN(C=O)CC1

> <Energy>
87.12420385944377

> <Genealogy>
C=c1[nH]c(=Cc2c([O-])[n-]c(=O)[n-]c2=O)c(C)c1C(=O)N1CCN(C=O)CC1 (protonated)
C=c1[nH]c(=Cc2c([O-])[n-]c(=O)[n-]c2=O)c(C)c1C(=O)N1CCN(C=O)CC1 (3D coordinates assigned)
C=c1[nH]c(=Cc2c([O-])[n-]c(=O)[n-]c2=O)c(C)c1C(=O)N1CCN(C=O)CC1 (nonaromatic ring conformer: 87.12420385944377 kcal/mol)

> <smiles>
C=c1[nH]c(=Cc2c(O)[nH]c(=O)[nH]c2=O)c(C)c1C(=O)N1CCN(C=O)CC1

> <score_type>
oracle

> <origin>
adg

> <m_score__min__energy>
-15.880000000000001

> <m_primary>
energy

> <minimizedAffinity>
-8.08026

> <minimizedRMSD>
0.94703

> <CNNscore>
0.1680457592

> <CNNaffinity>
6.1558513641

> <CNN_VS>
1.0344647169

> <CNNaffinity_variance>
0.0825151131

$$$$
61:0


 28 31  0  0  0  0  0  0  0  0999 V2000
   63.6047   32.7966   47.2731 O   0  0  0  0  0  0  0  0  0  0  0  0
   62.7174   32.6618   48.3380 C   0  0  0  0  0  0  0  0  0  0  0  0
   62.3687   33.7865   49.0905 C   0  0  0  0  0  0  0  0  0  0  0  0
   61.4866   33.6682   50.1671 C   0  0  0  0  0  0  0  0  0  0  0  0
   60.9340   32.4183   50.4975 C   0  0  0  0  0  0  0  0  0  0  0  0
   61.2737   31.2839   49.7305 C   0  0  0  0  0  0  0  0  0  0  0  0
   62.1756   31.4110   48.6627 C   0  0  0  0  0  0  0  0  0  0  0  0
   60.7563   29.9202   50.1164 C   0  0  0  0  0  0  0  0  0  0  0  0
   59.3386   29.9963   50.6975 C   0  0  0  0  0  0  0  0  0  0  0  0
   59.2674   30.9979   51.8333 C   0  0  0  0  0  0  0  0  0  0  0  0
   58.4612   30.8395   52.9042 C   0  0  0  0  0  0  0  0  0  0  0  0
   59.9941   32.2800   51.6347 C   0  0  0  0  0  0  0  0  0  0  0  0
   59.8188   33.2457   52.4281 O   0  0  0  0  0  0  0  0  0  0  0  0
   63.9615   33.6375   47.0641 H   0  0  0  0  0  0  0  0  0  0  0  0
   57.0604   30.3906   52.8544 C   0  0  0  0  0  0  0  0  0  0  0  0
   56.6212   29.3309   53.4926 O   0  0  0  0  0  0  0  0  0  0  0  0
   55.3502   29.1557   53.2094 C   0  0  0  0  0  0  0  0  0  0  0  0
   54.6782   28.0893   53.6455 C   0  0  0  0  0  0  0  0  0  0  0  0
   54.9180   30.1784   52.3533 C   0  0  0  0  0  0  0  0  0  0  0  0
   53.7056   30.4576   51.8387 C   0  0  0  0  0  0  0  0  0  0  0  0
   56.0450   30.9373   52.0924 C   0  0  0  0  0  0  0  0  0  0  0  0
   52.5058   30.8024   52.6168 C   0  0  0  0  0  0  0  0  0  0  0  0
   52.3310   30.5233   53.9212 N   0  0  0  0  0  0  0  0  0  0  0  0
   51.1763   31.1546   54.2244 C   0  0  0  0  0  0  0  0  0  0  0  0
   50.6617   31.1139   55.3720 O   0  0  0  0  0  0  0  0  0  0  0  0
   50.6225   31.8420   53.2037 N   0  0  0  0  0  0  0  0  0  0  0  0
   51.4849   31.6204   52.1982 C   0  0  0  0  0  0  0  0  0  0  0  0
   51.3459   32.1617   50.9265 O   0  0  0  0  0  0  0  0  0  0  0  0
  1  2  1  0
  2  3  2  0
  3  4  1  0
  4  5  2  0
  5  6  1  0
  6  7  2  0
  6  8  1  0
  8  9  1  0
  9 10  1  0
 10 11  2  0
 11 15  1  0
 15 16  1  0
 16 17  1  0
 17 18  2  0
 17 19  1  0
 19 20  2  0
 20 22  1  0
 22 23  1  0
 23 24  1  0
 24 25  2  0
 24 26  1  0
 26 27  1  0
 27 28  1  0
 19 21  1  0
 10 12  1  0
 12 13  2  0
  7  2  1  0
 21 15  2  0
 12  5  1  0
 27 22  2  0
  1 14  1  0
M  CHG 1  23  -1
M  CHG 1  26  -1
M  CHG 1  28  -1
M  END
> <UniqueID>
57

> <SMILES>
C=c1oc(/C=C2\CCc3cc(O)ccc3C2=O)c/c1=C/c1[n-]c(=O)[n-]c1[O-]

> <Energy>
121.36250430802457

> <Genealogy>
C=c1oc(C=C2CCc3cc(O)ccc3C2=O)cc1=Cc1[n-]c(=O)[n-]c1[O-] (protonated)
C=c1oc(/C=C2\CCc3cc(O)ccc3C2=O)c/c1=C/c1[n-]c(=O)[n-]c1[O-] (cis-trans isomerization)
C=c1oc(/C=C2\CCc3cc(O)ccc3C2=O)c/c1=C/c1[n-]c(=O)[n-]c1[O-] (3D coordinates assigned)
C=c1oc(/C=C2\CCc3cc(O)ccc3C2=O)c/c1=C/c1[n-]c(=O)[n-]c1[O-] (nonaromatic ring conformer: 121.36250430802457 kcal/mol)

> <smiles>
C=c1oc(C=C2CCc3cc(O)ccc3C2=O)cc1=Cc1[nH]c(=O)[nH]c1O

> <score_type>
oracle

> <origin>
adg

> <m_score__min__energy>
-17.390000000000001

> <m_primary>
energy

> <minimizedAffinity>
-7.94237

> <minimizedRMSD>
0.89938

> <CNNscore>
0.1767951548

> <CNNaffinity>
5.0381522179

> <CNN_VS>
0.8907209039

> <CNNaffinity_variance>
0.0955633149

$$$$
68:0


 24 26  0  0  0  0  0  0  0  0999 V2000
   56.5758   29.8789   43.6845 C   0  0  0  0  0  0  0  0  0  0  0  0
   57.2253   29.3882   44.7420 C   0  0  0  0  0  0  0  0  0  0  0  0
   57.1462   28.0989   45.1281 N   0  0  0  0  0  0  0  0  0  0  0  0
   57.9936   27.9463   46.1666 C   0  0  0  0  0  0  0  0  0  0  0  0
   58.1501   26.7813   46.8136 C   0  0  0  0  0  0  0  0  0  0  0  0
   58.6125   29.1549   46.4621 C   0  0  0  0  0  0  0  0  0  0  0  0
   58.1106   30.0757   45.5611 C   0  0  0  0  0  0  0  0  0  0  0  0
   56.5780   27.4014   44.7282 H   0  0  0  0  0  0  0  0  0  0  0  0
   58.4884   31.4972   45.5017 C   0  0  0  0  0  0  0  0  0  0  0  0
   58.0038   32.2188   44.5894 O   0  0  0  0  0  0  0  0  0  0  0  0
   59.4149   32.0605   46.4426 N   0  0  0  0  0  0  0  0  0  0  0  0
   60.5568   31.3146   46.9612 C   0  0  0  0  0  0  0  0  0  0  0  0
   61.2528   32.1706   48.0414 C   0  0  0  0  0  0  0  0  0  0  0  0
   60.2273   33.0935   48.7116 C   0  0  0  0  0  0  0  0  0  0  0  0
   59.0079   33.3725   47.4720 S   0  0  0  0  0  0  0  0  0  0  0  0
   59.2052   34.6984   46.7959 O   0  0  0  0  0  0  0  0  0  0  0  0
   57.6158   33.2329   48.0213 O   0  0  0  0  0  0  0  0  0  0  0  0
   57.6826   25.4791   46.3059 C   0  0  0  0  0  0  0  0  0  0  0  0
   58.4928   24.4196   46.1395 N   0  0  0  0  0  0  0  0  0  0  0  0
   57.6512   23.4385   45.7468 C   0  0  0  0  0  0  0  0  0  0  0  0
   58.0451   22.2751   45.4762 O   0  0  0  0  0  0  0  0  0  0  0  0
   56.3512   23.8005   45.6772 N   0  0  0  0  0  0  0  0  0  0  0  0
   56.3861   25.0914   46.0450 C   0  0  0  0  0  0  0  0  0  0  0  0
   55.2491   25.8787   46.1880 O   0  0  0  0  0  0  0  0  0  0  0  0
  1  2  2  0
  2  3  1  0
  3  4  1  0
  4  5  2  0
  5 18  1  0
 18 19  1  0
 19 20  1  0
 20 21  2  0
 20 22  1  0
 22 23  1  0
 23 24  1  0
  4  6  1  0
  6  7  2  0
  7  9  1  0
  9 10  2  0
  9 11  1  0
 11 12  1  0
 12 13  1  0
 13 14  1  0
 14 15  1  0
 15 16  2  0
 15 17  2  0
  7  2  1  0
 15 11  1  0
 23 18  2  0
  3  8  1  0
M  CHG 1  19  -1
M  CHG 1  22  -1
M  CHG 1  24  -1
M  END
> <UniqueID>
63

> <SMILES>
C=c1[nH]c(=Cc2[n-]c(=O)[n-]c2[O-])cc1C(=O)N1CCCS1(=O)=O

> <Energy>
106.47232585360622

> <Genealogy>
C=c1[nH]c(=Cc2[n-]c(=O)[n-]c2[O-])cc1C(=O)N1CCCS1(=O)=O (protonated)
C=c1[nH]c(=Cc2[n-]c(=O)[n-]c2[O-])cc1C(=O)N1CCCS1(=O)=O (3D coordinates assigned)
C=c1[nH]c(=Cc2[n-]c(=O)[n-]c2[O-])cc1C(=O)N1CCCS1(=O)=O (nonaromatic ring conformer: 106.47232585360622 kcal/mol)

> <smiles>
C=c1[nH]c(=Cc2[nH]c(=O)[nH]c2O)cc1C(=O)N1CCCS1(=O)=O

> <score_type>
oracle

> <origin>
adg

> <m_score__min__energy>
-16.359999999999999

> <m_primary>
energy

> <minimizedAffinity>
-8.63990

> <minimizedRMSD>
1.51485

> <CNNscore>
0.2998743355

> <CNNaffinity>
5.9099349976

> <CNN_VS>
1.7722377777

> <CNNaffinity_variance>
0.0952085853

$$$$
75:0


 27 29  0  0  0  0  0  0  0  0999 V2000
   60.9879   29.0029   45.6784 O   0  0  0  0  0  0  0  0  0  0  0  0
   59.9380   29.3007   46.3114 C   0  0  0  0  0  0  0  0  0  0  0  0
   58.7861   28.4397   46.2045 N   0  0  0  0  0  0  0  0  0  0  0  0
   57.6642   28.8792   45.5546 C   0  0  0  0  0  0  0  0  0  0  0  0
   57.6278   30.0292   45.0379 O   0  0  0  0  0  0  0  0  0  0  0  0
   56.5674   28.0862   45.4701 N   0  0  0  0  0  0  0  0  0  0  0  0
   56.5417   26.8465   46.0187 C   0  0  0  0  0  0  0  0  0  0  0  0
   55.3867   26.0774   45.9183 O   0  0  0  0  0  0  0  0  0  0  0  0
   57.6756   26.3518   46.6812 C   0  0  0  0  0  0  0  0  0  0  0  0
   58.8126   27.1807   46.7481 C   0  0  0  0  0  0  0  0  0  0  0  0
   59.8644   26.7545   47.3032 O   0  0  0  0  0  0  0  0  0  0  0  0
   54.6349   26.4170   45.4738 H   0  0  0  0  0  0  0  0  0  0  0  0
   59.9023   30.5324   47.1384 C   0  0  0  0  0  0  0  0  0  0  0  0
   60.2202   31.7803   46.5699 C   0  0  0  0  0  0  0  0  0  0  0  0
   60.1875   32.9417   47.3480 C   0  0  0  0  0  0  0  0  0  0  0  0
   59.8327   32.8721   48.6968 C   0  0  0  0  0  0  0  0  0  0  0  0
   59.5056   31.6416   49.2704 C   0  0  0  0  0  0  0  0  0  0  0  0
   59.5356   30.4775   48.4969 C   0  0  0  0  0  0  0  0  0  0  0  0
   57.6461   24.9967   47.3548 C   0  0  0  0  0  0  0  0  0  0  0  0
   57.2965   23.9156   46.3577 C   0  0  0  0  0  0  0  0  0  0  0  0
   58.2095   23.5941   45.3369 C   0  0  0  0  0  0  0  0  0  0  0  0
   57.9232   22.5763   44.4227 C   0  0  0  0  0  0  0  0  0  0  0  0
   56.7211   21.8707   44.5153 C   0  0  0  0  0  0  0  0  0  0  0  0
   56.4378   20.8589   43.6066 O   0  0  0  0  0  0  0  0  0  0  0  0
   55.8046   22.1824   45.5226 C   0  0  0  0  0  0  0  0  0  0  0  0
   56.0852   23.1993   46.4434 C   0  0  0  0  0  0  0  0  0  0  0  0
   55.1506   23.4902   47.4309 O   0  0  0  0  0  0  0  0  0  0  0  0
  1  2  2  0
  2 13  1  0
 13 14  2  0
 14 15  1  0
 15 16  2  0
 16 17  1  0
 17 18  2  0
  2  3  1  0
  3  4  1  0
  4  5  2  0
  4  6  1  0
  6  7  1  0
  7  8  1  0
  7  9  2  0
  9 19  1  0
 19 20  1  0
 20 21  2  0
 21 22  1  0
 22 23  2  0
 23 24  1  0
 23 25  1  0
 25 26  2  0
 26 27  1  0
  9 10  1  0
 10 11  2  0
 18 13  1  0
 10  3  1  0
 26 20  1  0
  8 12  1  0
M  CHG 1   6  -1
M  CHG 1  24  -1
M  CHG 1  27  -1
M  END
> <UniqueID>
69

> <SMILES>
O=C(c1ccccc1)n1c(=O)[n-]c(O)c(Cc2ccc([O-])cc2[O-])c1=O

> <Energy>
51.93194013703227

> <Genealogy>
O=C(c1ccccc1)n1c(=O)[n-]c(O)c(Cc2ccc([O-])cc2[O-])c1=O (protonated)
O=C(c1ccccc1)n1c(=O)[n-]c(O)c(Cc2ccc([O-])cc2[O-])c1=O (3D coordinates assigned)
O=C(c1ccccc1)n1c(=O)[n-]c(O)c(Cc2ccc([O-])cc2[O-])c1=O (optimized conformer: 51.93194013703227 kcal/mol)

> <smiles>
O=C(c1ccccc1)n1c(=O)[nH]c(O)c(Cc2ccc(O)cc2O)c1=O

> <score_type>
oracle

> <origin>
adg

> <m_score__min__energy>
-14.289999999999999

> <m_primary>
energy

> <minimizedAffinity>
-7.64455

> <minimizedRMSD>
2.06836

> <CNNscore>
0.6283809543

> <CNNaffinity>
6.4496684074

> <CNN_VS>
4.0528488159

> <CNNaffinity_variance>
0.6572121978

$$$$
31:0


 32 35  0  0  0  0  0  0  0  0999 V2000
   61.4642   32.5722   47.7989 C   0  0  0  0  0  0  0  0  0  0  0  0
   61.8607   33.5477   47.1078 O   0  0  0  0  0  0  0  0  0  0  0  0
   61.8861   32.4428   49.1848 N   0  0  0  0  0  0  0  0  0  0  0  0
   61.6859   33.7087   49.9290 C   0  0  0  0  0  0  0  0  0  0  0  0
   60.2130   33.9587   50.2681 C   0  0  0  0  0  0  0  0  0  0  0  0
   59.6805   32.7959   50.9819 N   0  0  0  0  0  0  0  0  0  0  0  0
   58.8798   32.9607   52.1689 C   0  0  0  0  0  0  0  0  0  0  0  0
   58.9248   34.0450   52.8144 O   0  0  0  0  0  0  0  0  0  0  0  0
   58.0777   31.8838   52.6683 N   0  0  0  0  0  0  0  0  0  0  0  0
   56.8075   31.5884   51.9843 C   0  0  0  0  0  0  0  0  0  0  0  0
   56.1497   30.3072   52.5194 C   0  0  0  0  0  0  0  0  0  0  0  0
   56.2459   30.2199   53.9277 O   0  0  0  0  0  0  0  0  0  0  0  0
   57.6041   30.0946   54.2955 C   0  0  0  0  0  0  0  0  0  0  0  0
   58.3477   31.3994   54.0277 C   0  0  0  0  0  0  0  0  0  0  0  0
   59.8263   31.4903   50.3289 C   0  0  0  0  0  0  0  0  0  0  0  0
   61.2874   31.2741   49.8785 C   0  0  0  0  0  0  0  0  0  0  0  0
   62.6956   32.1697   48.6955 H   0  0  0  0  0  0  0  0  0  0  0  0
   58.4448   32.6126   46.8796 C   0  0  0  0  0  0  0  0  0  0  0  0
   59.2877   31.5821   46.7564 C   0  0  0  0  0  0  0  0  0  0  0  0
   60.6243   31.5210   47.1614 C   0  0  0  0  0  0  0  0  0  0  0  0
   61.0540   30.2370   46.8479 C   0  0  0  0  0  0  0  0  0  0  0  0
   59.9831   29.5844   46.2600 C   0  0  0  0  0  0  0  0  0  0  0  0
   59.9492   28.3079   45.8424 C   0  0  0  0  0  0  0  0  0  0  0  0
   58.9134   30.4027   46.2168 N   0  0  0  0  0  0  0  0  0  0  0  0
   58.0237   30.1813   45.8582 H   0  0  0  0  0  0  0  0  0  0  0  0
   58.8323   27.3828   46.1143 C   0  0  0  0  0  0  0  0  0  0  0  0
   58.9460   26.3060   46.9105 N   0  0  0  0  0  0  0  0  0  0  0  0
   57.6999   25.7860   46.9155 C   0  0  0  0  0  0  0  0  0  0  0  0
   57.4051   24.7383   47.5495 O   0  0  0  0  0  0  0  0  0  0  0  0
   56.7929   26.4785   46.1973 N   0  0  0  0  0  0  0  0  0  0  0  0
   57.5228   27.4931   45.7027 C   0  0  0  0  0  0  0  0  0  0  0  0
   56.9899   28.5211   44.9325 O   0  0  0  0  0  0  0  0  0  0  0  0
 18 19  2  0
 19 20  1  0
 20  1  1  0
  1  2  2  0
  1  3  1  0
  3  4  1  0
  4  5  1  0
  5  6  1  0
  6  7  1  0
  7  8  2  0
  7  9  1  0
  9 10  1  0
 10 11  1  0
 11 12  1  0
 12 13  1  0
 13 14  1  0
  6 15  1  0
 15 16  1  0
 20 21  2  0
 21 22  1  0
 22 23  2  0
 23 26  1  0
 26 27  1  0
 27 28  1  0
 28 29  2  0
 28 30  1  0
 30 31  1  0
 31 32  1  0
 22 24  1  0
 24 19  1  0
 16  3  1  0
 31 26  2  0
 14  9  1  0
  3 17  1  0
 24 25  1  0
M  CHG 1   3   1
M  CHG 1  27  -1
M  CHG 1  30  -1
M  CHG 1  32  -1
M  END
> <UniqueID>
31

> <SMILES>
C=c1[nH]/c(=C/c2[n-]c(=O)[n-]c2[O-])cc1C(=O)[NH+]1CCN(C(=O)N2CCOCC2)CC1

> <Energy>
131.33658312319625

> <Genealogy>
C=c1[nH]c(=Cc2[n-]c(=O)[n-]c2[O-])cc1C(=O)[NH+]1CCN(C(=O)N2CCOCC2)CC1 (protonated)
C=c1[nH]/c(=C/c2[n-]c(=O)[n-]c2[O-])cc1C(=O)[NH+]1CCN(C(=O)N2CCOCC2)CC1 (cis-trans isomerization)
C=c1[nH]/c(=C/c2[n-]c(=O)[n-]c2[O-])cc1C(=O)[NH+]1CCN(C(=O)N2CCOCC2)CC1 (3D coordinates assigned)
C=c1[nH]/c(=C/c2[n-]c(=O)[n-]c2[O-])cc1C(=O)[NH+]1CCN(C(=O)N2CCOCC2)CC1 (nonaromatic ring conformer: 131.33658312319625 kcal/mol)

> <smiles>
C=c1[nH]c(=Cc2[nH]c(=O)[nH]c2O)cc1C(=O)N1CCN(C(=O)N2CCOCC2)CC1

> <score_type>
oracle

> <origin>
adg

> <m_score__min__energy>
-16.859999999999999

> <m_primary>
energy

> <minimizedAffinity>
-7.75284

> <minimizedRMSD>
1.31287

> <CNNscore>
0.1143009514

> <CNNaffinity>
6.1517748833

> <CNN_VS>
0.7031537294

> <CNNaffinity_variance>
0.0291541591

$$$$
37:0


 26 28  0  0  0  0  0  0  0  0999 V2000
   54.0765   28.0469   54.5074 C   0  0  0  0  0  0  0  0  0  0  0  0
   54.9532   28.7941   53.8198 C   0  0  0  0  0  0  0  0  0  0  0  0
   54.7215   30.0541   53.2442 C   0  0  0  0  0  0  0  0  0  0  0  0
   53.5784   30.7364   53.0375 C   0  0  0  0  0  0  0  0  0  0  0  0
   55.9599   30.5361   52.8583 C   0  0  0  0  0  0  0  0  0  0  0  0
   56.8782   29.5434   53.1264 C   0  0  0  0  0  0  0  0  0  0  0  0
   56.2727   28.4867   53.7192 N   0  0  0  0  0  0  0  0  0  0  0  0
   56.9371   27.3126   54.2953 C   0  0  0  0  0  0  0  0  0  0  0  0
   58.3156   29.6484   52.8058 C   0  0  0  0  0  0  0  0  0  0  0  0
   58.9945   28.5862   52.7453 O   0  0  0  0  0  0  0  0  0  0  0  0
   58.9601   30.9226   52.5925 N   0  0  0  0  0  0  0  0  0  0  0  0
   60.2506   30.9572   51.8961 C   0  0  0  0  0  0  0  0  0  0  0  0
   60.8161   32.3839   51.8454 C   0  0  0  0  0  0  0  0  0  0  0  0
   59.7831   33.3649   51.4512 N   0  0  0  0  0  0  0  0  0  0  0  0
   58.5876   33.3583   52.3403 C   0  0  0  0  0  0  0  0  0  0  0  0
   58.4926   32.1360   53.2734 C   0  0  0  0  0  0  0  0  0  0  0  0
   59.4278   33.2424   50.0213 C   0  0  0  0  0  0  0  0  0  0  0  0
   60.4566   33.9182   49.1655 C   0  0  0  0  0  0  0  0  0  0  0  0
   60.1522   34.3602   48.0689 O   0  0  0  0  0  0  0  0  0  0  0  0
   52.7220   30.6348   51.8451 C   0  0  0  0  0  0  0  0  0  0  0  0
   52.9208   29.7736   50.8290 N   0  0  0  0  0  0  0  0  0  0  0  0
   51.9899   30.1418   49.9221 C   0  0  0  0  0  0  0  0  0  0  0  0
   51.8470   29.5520   48.8198 O   0  0  0  0  0  0  0  0  0  0  0  0
   51.2317   31.1995   50.2842 N   0  0  0  0  0  0  0  0  0  0  0  0
   51.7188   31.5068   51.4983 C   0  0  0  0  0  0  0  0  0  0  0  0
   51.2606   32.5675   52.2696 O   0  0  0  0  0  0  0  0  0  0  0  0
  1  2  2  0
  2  3  1  0
  3  4  2  0
  4 20  1  0
 20 21  1  0
 21 22  1  0
 22 23  2  0
 22 24  1  0
 24 25  1  0
 25 26  1  0
  3  5  1  0
  5  6  2  0
  6  9  1  0
  9 10  2  0
  9 11  1  0
 11 12  1  0
 12 13  1  0
 13 14  1  0
 14 17  1  0
 17 18  1  0
 18 19  2  0
 14 15  1  0
 15 16  1  0
  6  7  1  0
  7  8  1  0
  7  2  1  0
 25 20  2  0
 16 11  1  0
M  CHG 1  21  -1
M  CHG 1  24  -1
M  CHG 1  26  -1
M  END
> <UniqueID>
36

> <SMILES>
C=c1c(=Cc2[n-]c(=O)[n-]c2[O-])cc(C(=O)N2CCN(CC=O)CC2)n1C

> <Energy>
125.72149508363655

> <Genealogy>
C=c1c(=Cc2[n-]c(=O)[n-]c2[O-])cc(C(=O)N2CCN(CC=O)CC2)n1C (protonated)
C=c1c(=Cc2[n-]c(=O)[n-]c2[O-])cc(C(=O)N2CCN(CC=O)CC2)n1C (3D coordinates assigned)
C=c1c(=Cc2[n-]c(=O)[n-]c2[O-])cc(C(=O)N2CCN(CC=O)CC2)n1C (nonaromatic ring conformer: 125.72149508363655 kcal/mol)

> <smiles>
C=c1c(=Cc2[nH]c(=O)[nH]c2O)cc(C(=O)N2CCN(CC=O)CC2)n1C

> <score_type>
oracle

> <origin>
adg

> <m_score__min__energy>
-15.710000000000001

> <m_primary>
energy

> <minimizedAffinity>
-5.04399

> <minimizedRMSD>
0.93377

> <CNNscore>
0.0855805427

> <CNNaffinity>
4.2838859558

> <CNN_VS>
0.3666172922

> <CNNaffinity_variance>
0.3777645528

$$$$
47:0


 33 36  0  0  0  0  0  0  0  0999 V2000
   58.5473   32.4654   45.1149 C   0  0  0  0  0  0  0  0  0  0  0  0
   58.4248   33.8515   44.9314 C   0  0  0  0  0  0  0  0  0  0  0  0
   58.7531   34.7279   45.9640 C   0  0  0  0  0  0  0  0  0  0  0  0
   59.2182   34.2357   47.1865 C   0  0  0  0  0  0  0  0  0  0  0  0
   59.3655   32.8496   47.3872 C   0  0  0  0  0  0  0  0  0  0  0  0
   59.0195   31.9725   46.3425 C   0  0  0  0  0  0  0  0  0  0  0  0
   59.8550   32.2977   48.6797 C   0  0  0  0  0  0  0  0  0  0  0  0
   59.0388   31.6838   49.4244 O   0  0  0  0  0  0  0  0  0  0  0  0
   61.2266   32.4783   49.1176 N   0  0  0  0  0  0  0  0  0  0  0  0
   62.1581   32.2916   47.9752 C   0  0  0  0  0  0  0  0  0  0  0  0
   63.4546   33.1233   48.1071 C   0  0  0  0  0  0  0  0  0  0  0  0
   63.8704   33.2915   49.5127 N   0  0  0  0  0  0  0  0  0  0  0  0
   62.8206   33.9380   50.3428 C   0  0  0  0  0  0  0  0  0  0  0  0
   61.3995   33.7976   49.7569 C   0  0  0  0  0  0  0  0  0  0  0  0
   61.2095   32.8306   48.1984 H   0  0  0  0  0  0  0  0  0  0  0  0
   64.3917   32.0384   50.1036 C   0  0  0  0  0  0  0  0  0  0  0  0
   65.8373   32.2288   50.5463 C   0  0  0  0  0  0  0  0  0  0  0  0
   58.2211   31.5260   43.9851 C   0  0  0  0  0  0  0  0  0  0  0  0
   55.5131   29.9806   43.9920 C   0  0  0  0  0  0  0  0  0  0  0  0
   56.6455   29.5271   44.5323 C   0  0  0  0  0  0  0  0  0  0  0  0
   57.8798   30.1630   44.5222 C   0  0  0  0  0  0  0  0  0  0  0  0
   58.7498   29.3371   45.2049 C   0  0  0  0  0  0  0  0  0  0  0  0
   58.0159   28.2276   45.5974 C   0  0  0  0  0  0  0  0  0  0  0  0
   58.5386   27.1955   46.2836 C   0  0  0  0  0  0  0  0  0  0  0  0
   56.7350   28.3474   45.1796 N   0  0  0  0  0  0  0  0  0  0  0  0
   56.0081   27.6986   45.3209 H   0  0  0  0  0  0  0  0  0  0  0  0
   58.2216   25.7668   46.0785 C   0  0  0  0  0  0  0  0  0  0  0  0
   59.1008   24.7943   45.7748 N   0  0  0  0  0  0  0  0  0  0  0  0
   58.3284   23.6959   45.6423 C   0  0  0  0  0  0  0  0  0  0  0  0
   58.8010   22.5645   45.3569 O   0  0  0  0  0  0  0  0  0  0  0  0
   57.0086   23.9065   45.8322 N   0  0  0  0  0  0  0  0  0  0  0  0
   56.9586   25.2210   46.1025 C   0  0  0  0  0  0  0  0  0  0  0  0
   55.7818   25.9096   46.3615 O   0  0  0  0  0  0  0  0  0  0  0  0
 19 20  2  0
 20 21  1  0
 21 18  1  0
 18  1  1  0
  1  2  2  0
  2  3  1  0
  3  4  2  0
  4  5  1  0
  5  7  1  0
  7  8  2  0
  7  9  1  0
  9 10  1  0
 10 11  1  0
 11 12  1  0
 12 16  1  0
 16 17  1  0
 12 13  1  0
 13 14  1  0
  5  6  2  0
 21 22  2  0
 22 23  1  0
 23 24  2  0
 24 27  1  0
 27 28  1  0
 28 29  1  0
 29 30  2  0
 29 31  1  0
 31 32  1  0
 32 33  1  0
 23 25  1  0
 25 20  1  0
  6  1  1  0
 32 27  2  0
 14  9  1  0
  9 15  1  0
 25 26  1  0
M  CHG 1   9   1
M  CHG 1  28  -1
M  CHG 1  31  -1
M  CHG 1  33  -1
M  END
> <UniqueID>
46

> <SMILES>
C=c1[nH]/c(=C\c2[n-]c(=O)[n-]c2[O-])cc1Cc1cccc(C(=O)[NH+]2CCN(CC)CC2)c1

> <Energy>
131.13330292941632

> <Genealogy>
C=c1[nH]c(=Cc2[n-]c(=O)[n-]c2[O-])cc1Cc1cccc(C(=O)[NH+]2CCN(CC)CC2)c1 (protonated)
C=c1[nH]/c(=C\c2[n-]c(=O)[n-]c2[O-])cc1Cc1cccc(C(=O)[NH+]2CCN(CC)CC2)c1 (cis-trans isomerization)
C=c1[nH]/c(=C\c2[n-]c(=O)[n-]c2[O-])cc1Cc1cccc(C(=O)[NH+]2CCN(CC)CC2)c1 (3D coordinates assigned)
C=c1[nH]/c(=C\c2[n-]c(=O)[n-]c2[O-])cc1Cc1cccc(C(=O)[NH+]2CCN(CC)CC2)c1 (nonaromatic ring conformer: 131.13330292941632 kcal/mol)

> <smiles>
C=c1[nH]c(=Cc2[nH]c(=O)[nH]c2O)cc1Cc1cccc(C(=O)N2CCN(CC)CC2)c1

> <score_type>
oracle

> <origin>
adg

> <m_score__min__energy>
-17.09

> <m_primary>
energy

> <minimizedAffinity>
-9.23576

> <minimizedRMSD>
1.38016

> <CNNscore>
0.2269413918

> <CNNaffinity>
6.5280642509

> <CNN_VS>
1.4814879894

> <CNNaffinity_variance>
0.3162753284

$$$$
63:0


 34 38  0  0  0  0  0  0  0  0999 V2000
   57.6750   31.1534   52.5568 C   0  0  0  0  0  0  0  0  0  0  0  0
   57.8955   32.5381   52.4873 C   0  0  0  0  0  0  0  0  0  0  0  0
   59.1393   33.0399   52.0938 C   0  0  0  0  0  0  0  0  0  0  0  0
   60.1902   32.1707   51.7610 C   0  0  0  0  0  0  0  0  0  0  0  0
   59.9603   30.7836   51.8044 C   0  0  0  0  0  0  0  0  0  0  0  0
   58.7195   30.2796   52.2043 C   0  0  0  0  0  0  0  0  0  0  0  0
   54.4086   28.9229   55.2021 C   0  0  0  0  0  0  0  0  0  0  0  0
   54.8947   29.6302   54.1809 C   0  0  0  0  0  0  0  0  0  0  0  0
   56.1657   29.9501   54.0860 O   0  0  0  0  0  0  0  0  0  0  0  0
   56.3529   30.6430   52.9834 C   0  0  0  0  0  0  0  0  0  0  0  0
   55.1491   30.7885   52.3122 C   0  0  0  0  0  0  0  0  0  0  0  0
   54.1994   30.1373   53.0851 C   0  0  0  0  0  0  0  0  0  0  0  0
   52.8934   29.9759   52.8008 C   0  0  0  0  0  0  0  0  0  0  0  0
   52.2757   30.3643   51.5199 C   0  0  0  0  0  0  0  0  0  0  0  0
   52.2254   29.5493   50.4498 N   0  0  0  0  0  0  0  0  0  0  0  0
   51.5242   30.2649   49.5442 C   0  0  0  0  0  0  0  0  0  0  0  0
   51.2772   29.8346   48.3862 O   0  0  0  0  0  0  0  0  0  0  0  0
   51.1044   31.4732   49.9761 N   0  0  0  0  0  0  0  0  0  0  0  0
   51.5780   31.5169   51.2323 C   0  0  0  0  0  0  0  0  0  0  0  0
   51.3322   32.5668   52.1086 O   0  0  0  0  0  0  0  0  0  0  0  0
   61.5009   32.7252   51.3384 C   0  0  0  0  0  0  0  0  0  0  0  0
   62.3950   32.8944   52.2159 O   0  0  0  0  0  0  0  0  0  0  0  0
   61.7593   33.1169   49.9649 N   0  0  0  0  0  0  0  0  0  0  0  0
   62.0108   31.9139   49.1255 C   0  0  0  0  0  0  0  0  0  0  0  0
   60.7684   31.4487   48.3508 C   0  0  0  0  0  0  0  0  0  0  0  0
   60.2173   32.5481   47.5454 N   0  0  0  0  0  0  0  0  0  0  0  0
   59.4191   32.2507   46.3781 C   0  0  0  0  0  0  0  0  0  0  0  0
   59.1638   31.0494   46.0856 O   0  0  0  0  0  0  0  0  0  0  0  0
   60.5202   33.9323   47.9395 C   0  0  0  0  0  0  0  0  0  0  0  0
   60.6800   34.0095   49.4621 C   0  0  0  0  0  0  0  0  0  0  0  0
   62.4093   33.7939   50.2623 H   0  0  0  0  0  0  0  0  0  0  0  0
   58.9220   33.3419   45.4659 C   0  0  0  0  0  0  0  0  0  0  0  0
   58.0444   32.8888   44.3036 C   0  0  0  0  0  0  0  0  0  0  0  0
   57.4152   33.5575   45.5120 C   0  0  0  0  0  0  0  0  0  0  0  0
  7  8  2  0
  8  9  1  0
  9 10  1  0
 10  1  1  0
  1  2  2  0
  2  3  1  0
  3  4  2  0
  4 21  1  0
 21 22  2  0
 21 23  1  0
 23 24  1  0
 24 25  1  0
 25 26  1  0
 26 27  1  0
 27 28  2  0
 27 32  1  0
 32 33  1  0
 33 34  1  0
 26 29  1  0
 29 30  1  0
  4  5  1  0
  5  6  2  0
 10 11  2  0
 11 12  1  0
 12 13  2  0
 13 14  1  0
 14 15  1  0
 15 16  1  0
 16 17  2  0
 16 18  1  0
 18 19  1  0
 19 20  1  0
 12  8  1  0
 19 14  2  0
  6  1  1  0
 30 23  1  0
 34 32  1  0
 23 31  1  0
M  CHG 1  15  -1
M  CHG 1  18  -1
M  CHG 1  20  -1
M  CHG 1  23   1
M  END
> <UniqueID>
62

> <SMILES>
C=c1oc(-c2ccc(C(=O)[NH+]3CCN(C(=O)C4CC4)CC3)cc2)c/c1=C\c1[n-]c(=O)[n-]c1[O-]

> <Energy>
400.65853495125225

> <Genealogy>
C=c1oc(-c2ccc(C(=O)[NH+]3CCN(C(=O)C4CC4)CC3)cc2)cc1=Cc1[n-]c(=O)[n-]c1[O-] (protonated)
C=c1oc(-c2ccc(C(=O)[NH+]3CCN(C(=O)C4CC4)CC3)cc2)c/c1=C\c1[n-]c(=O)[n-]c1[O-] (cis-trans isomerization)
C=c1oc(-c2ccc(C(=O)[NH+]3CCN(C(=O)C4CC4)CC3)cc2)c/c1=C\c1[n-]c(=O)[n-]c1[O-] (3D coordinates assigned)
C=c1oc(-c2ccc(C(=O)[NH+]3CCN(C(=O)C4CC4)CC3)cc2)c/c1=C\c1[n-]c(=O)[n-]c1[O-] (nonaromatic ring conformer: 400.65853495125225 kcal/mol)

> <smiles>
C=c1oc(-c2ccc(C(=O)N3CCN(C(=O)C4CC4)CC3)cc2)cc1=Cc1[nH]c(=O)[nH]c1O

> <score_type>
oracle

> <origin>
adg

> <m_score__min__energy>
-17.530000000000001

> <m_primary>
energy

> <minimizedAffinity>
-7.72811

> <minimizedRMSD>
0.73077

> <CNNscore>
0.1212159991

> <CNNaffinity>
5.9684767723

> <CNN_VS>
0.7234748602

> <CNNaffinity_variance>
0.1397564858

$$$$
76:0


 33 36  0  0  0  0  0  0  0  0999 V2000
   58.2738   31.8968   51.6100 C   0  0  0  0  0  0  0  0  0  0  0  0
   59.0232   32.5951   52.3412 O   0  0  0  0  0  0  0  0  0  0  0  0
   54.4011   29.1997   52.9645 C   0  0  0  0  0  0  0  0  0  0  0  0
   55.6627   29.6648   52.8314 C   0  0  0  0  0  0  0  0  0  0  0  0
   56.0710   30.7926   52.1283 C   0  0  0  0  0  0  0  0  0  0  0  0
   57.4454   30.8476   52.2295 C   0  0  0  0  0  0  0  0  0  0  0  0
   57.9094   29.8240   52.9832 N   0  0  0  0  0  0  0  0  0  0  0  0
   59.2979   29.6044   53.4077 C   0  0  0  0  0  0  0  0  0  0  0  0
   56.8291   29.0884   53.3494 C   0  0  0  0  0  0  0  0  0  0  0  0
   56.9053   27.9833   54.1093 C   0  0  0  0  0  0  0  0  0  0  0  0
   52.8798   29.9547   50.3804 O   0  0  0  0  0  0  0  0  0  0  0  0
   52.5001   30.3108   51.6721 C   0  0  0  0  0  0  0  0  0  0  0  0
   51.3879   31.0153   51.9403 N   0  0  0  0  0  0  0  0  0  0  0  0
   51.4202   31.1262   53.2849 C   0  0  0  0  0  0  0  0  0  0  0  0
   50.5315   31.7346   53.9367 O   0  0  0  0  0  0  0  0  0  0  0  0
   52.4785   30.5324   53.8755 N   0  0  0  0  0  0  0  0  0  0  0  0
   53.1729   30.0185   52.8428 C   0  0  0  0  0  0  0  0  0  0  0  0
   52.3484   30.2046   49.6503 H   0  0  0  0  0  0  0  0  0  0  0  0
   58.2370   32.1557   50.2009 N   0  0  0  0  0  0  0  0  0  0  0  0
   59.1531   31.5841   49.2163 C   0  0  0  0  0  0  0  0  0  0  0  0
   59.2973   32.5120   48.0375 C   0  0  0  0  0  0  0  0  0  0  0  0
   58.2141   32.6883   47.1577 C   0  0  0  0  0  0  0  0  0  0  0  0
   58.3150   33.5611   46.0720 C   0  0  0  0  0  0  0  0  0  0  0  0
   59.5005   34.2628   45.8471 C   0  0  0  0  0  0  0  0  0  0  0  0
   60.5881   34.0939   46.7076 C   0  0  0  0  0  0  0  0  0  0  0  0
   60.4946   33.2304   47.8076 C   0  0  0  0  0  0  0  0  0  0  0  0
   61.6327   33.0709   48.6664 N   0  0  0  0  0  0  0  0  0  0  0  0
   61.6682   33.7163   49.9806 C   0  0  0  0  0  0  0  0  0  0  0  0
   63.0867   34.2319   50.2581 C   0  0  0  0  0  0  0  0  0  0  0  0
   64.1377   33.1858   50.1110 N   0  0  0  0  0  0  0  0  0  0  0  0
   64.7011   32.8048   51.4162 C   0  0  0  0  0  0  0  0  0  0  0  0
   63.7182   31.9758   49.3644 C   0  0  0  0  0  0  0  0  0  0  0  0
   62.7978   32.3231   48.1892 C   0  0  0  0  0  0  0  0  0  0  0  0
 11 12  1  0
 12 13  1  0
 13 14  1  0
 14 15  2  0
 14 16  1  0
 16 17  1  0
 17  3  1  0
  3  4  2  0
  4  5  1  0
  5  6  2  0
  6  1  1  0
  1  2  2  0
  1 19  1  0
 19 20  1  0
 20 21  1  0
 21 22  2  0
 22 23  1  0
 23 24  2  0
 24 25  1  0
 25 26  2  0
 26 27  1  0
 27 28  1  0
 28 29  1  0
 29 30  1  0
 30 31  1  0
 30 32  1  0
 32 33  1  0
  6  7  1  0
  7  8  1  0
  7  9  1  0
  9 10  2  0
 17 12  2  0
  9  4  1  0
 26 21  1  0
 33 27  1  0
 11 18  1  0
M  CHG 1  13  -1
M  CHG 1  16  -1
M  CHG 1  19  -1
M  END
> <UniqueID>
75

> <SMILES>
C=c1/c(=C/c2[n-]c(=O)[n-]c2O)cc(C(=O)[N-]Cc2ccccc2N2CCN(C)CC2)n1C

> <Energy>
137.1369110716721

> <Genealogy>
C=c1c(=Cc2[n-]c(=O)[n-]c2O)cc(C(=O)[N-]Cc2ccccc2N2CCN(C)CC2)n1C (protonated)
C=c1/c(=C/c2[n-]c(=O)[n-]c2O)cc(C(=O)[N-]Cc2ccccc2N2CCN(C)CC2)n1C (cis-trans isomerization)
C=c1/c(=C/c2[n-]c(=O)[n-]c2O)cc(C(=O)[N-]Cc2ccccc2N2CCN(C)CC2)n1C (3D coordinates assigned)
C=c1/c(=C/c2[n-]c(=O)[n-]c2O)cc(C(=O)[N-]Cc2ccccc2N2CCN(C)CC2)n1C (nonaromatic ring conformer: 137.1369110716721 kcal/mol)

> <smiles>
C=c1c(=Cc2[nH]c(=O)[nH]c2O)cc(C(=O)NCc2ccccc2N2CCN(C)CC2)n1C

> <score_type>
oracle

> <origin>
adg

> <m_score__min__energy>
-15.140000000000001

> <m_primary>
energy

> <minimizedAffinity>
-7.83562

> <minimizedRMSD>
1.19695

> <CNNscore>
0.2779809535

> <CNNaffinity>
5.6280303001

> <CNN_VS>
1.5644851923

> <CNNaffinity_variance>
0.3906859159

$$$$
85:0


 34 37  0  0  0  0  0  0  0  0999 V2000
   58.8594   30.7549   47.1626 C   0  0  0  0  0  0  0  0  0  0  0  0
   59.3973   27.7870   47.5102 C   0  0  0  0  0  0  0  0  0  0  0  0
   58.7791   28.3099   46.4391 C   0  0  0  0  0  0  0  0  0  0  0  0
   58.3031   27.5912   45.3349 C   0  0  0  0  0  0  0  0  0  0  0  0
   58.3500   26.2595   45.1395 C   0  0  0  0  0  0  0  0  0  0  0  0
   57.7285   28.5191   44.4814 C   0  0  0  0  0  0  0  0  0  0  0  0
   57.8822   29.7528   45.0771 C   0  0  0  0  0  0  0  0  0  0  0  0
   57.3524   31.0355   44.5055 C   0  0  0  0  0  0  0  0  0  0  0  0
   58.5263   29.6358   46.2636 N   0  0  0  0  0  0  0  0  0  0  0  0
   57.5404   25.2946   45.9051 C   0  0  0  0  0  0  0  0  0  0  0  0
   57.9990   24.0896   46.2880 N   0  0  0  0  0  0  0  0  0  0  0  0
   56.9388   23.5328   46.9118 C   0  0  0  0  0  0  0  0  0  0  0  0
   56.9800   22.3867   47.4300 O   0  0  0  0  0  0  0  0  0  0  0  0
   55.8270   24.3004   46.9332 N   0  0  0  0  0  0  0  0  0  0  0  0
   56.2156   25.4078   46.2806 C   0  0  0  0  0  0  0  0  0  0  0  0
   55.3560   26.4681   46.0033 O   0  0  0  0  0  0  0  0  0  0  0  0
   54.4699   26.4445   46.3070 H   0  0  0  0  0  0  0  0  0  0  0  0
   60.2543   31.3294   46.8620 C   0  0  0  0  0  0  0  0  0  0  0  0
   60.6768   32.7773   47.8362 S   0  0  0  0  0  0  0  0  0  0  0  0
   59.4285   33.5631   48.1273 O   0  0  0  0  0  0  0  0  0  0  0  0
   61.5803   33.6402   47.0010 O   0  0  0  0  0  0  0  0  0  0  0  0
   61.5091   32.4394   49.3903 C   0  0  0  0  0  0  0  0  0  0  0  0
   60.9973   31.2157   50.1046 C   0  0  0  0  0  0  0  0  0  0  0  0
   61.3243   30.0877   49.6456 O   0  0  0  0  0  0  0  0  0  0  0  0
   60.1293   31.2779   51.2583 N   0  0  0  0  0  0  0  0  0  0  0  0
   59.3800   32.4962   51.6092 C   0  0  0  0  0  0  0  0  0  0  0  0
   57.9462   32.1721   52.0671 C   0  0  0  0  0  0  0  0  0  0  0  0
   57.8067   30.8520   52.8787 C   0  0  0  0  0  0  0  0  0  0  0  0
   59.1742   30.3430   53.3587 C   0  0  0  0  0  0  0  0  0  0  0  0
   60.1120   30.1198   52.1668 C   0  0  0  0  0  0  0  0  0  0  0  0
   57.2234   29.8641   52.0482 O   0  0  0  0  0  0  0  0  0  0  0  0
   55.9472   29.6368   52.5575 C   0  0  0  0  0  0  0  0  0  0  0  0
   55.9566   30.1766   53.9541 C   0  0  0  0  0  0  0  0  0  0  0  0
   57.0001   31.0966   54.0152 O   0  0  0  0  0  0  0  0  0  0  0  0
  2  3  2  0
  3  4  1  0
  4  5  2  0
  5 10  1  0
 10 11  1  0
 11 12  1  0
 12 13  2  0
 12 14  1  0
 14 15  1  0
 15 16  1  0
  4  6  1  0
  6  7  2  0
  7  8  1  0
  7  9  1  0
  9  1  1  0
  1 18  1  0
 18 19  1  0
 19 20  2  0
 19 21  2  0
 19 22  1  0
 22 23  1  0
 23 24  2  0
 23 25  1  0
 25 26  1  0
 26 27  1  0
 27 28  1  0
 28 29  1  0
 29 30  1  0
 28 31  1  0
 31 32  1  0
 32 33  1  0
 33 34  1  0
  9  3  1  0
 30 25  1  0
 15 10  2  0
 34 28  1  0
 16 17  1  0
M  CHG 1  11  -1
M  CHG 1  14  -1
M  END
> <UniqueID>
81

> <SMILES>
C=c1c(=Cc2[n-]c(=O)[n-]c2O)cc(C)n1CCS(=O)(=O)CC(=O)N1CCC2(CC1)OCCO2

> <Energy>
116.53077257095075

> <Genealogy>
C=c1c(=Cc2[n-]c(=O)[n-]c2O)cc(C)n1CCS(=O)(=O)CC(=O)N1CCC2(CC1)OCCO2 (protonated)
C=c1c(=Cc2[n-]c(=O)[n-]c2O)cc(C)n1CCS(=O)(=O)CC(=O)N1CCC2(CC1)OCCO2 (3D coordinates assigned)
C=c1c(=Cc2[n-]c(=O)[n-]c2O)cc(C)n1CCS(=O)(=O)CC(=O)N1CCC2(CC1)OCCO2 (nonaromatic ring conformer: 116.53077257095075 kcal/mol)

> <smiles>
C=c1c(=Cc2[nH]c(=O)[nH]c2O)cc(C)n1CCS(=O)(=O)CC(=O)N1CCC2(CC1)OCCO2

> <score_type>
oracle

> <origin>
adg

> <m_score__min__energy>
-15.24

> <m_primary>
energy

> <minimizedAffinity>
-8.52626

> <minimizedRMSD>
1.13054

> <CNNscore>
0.3269509077

> <CNNaffinity>
6.6496167183

> <CNN_VS>
2.1740982533

> <CNNaffinity_variance>
0.0112274634

$$$$
5:0


 31 34  0  0  0  0  0  0  0  0999 V2000
   59.9749   30.2372   47.3065 C   0  0  0  0  0  0  0  0  0  0  0  0
   61.1116   30.7471   47.1136 O   0  0  0  0  0  0  0  0  0  0  0  0
   59.0792   30.8505   48.2750 N   0  0  0  0  0  0  0  0  0  0  0  0
   59.4573   30.5143   49.6552 C   0  0  0  0  0  0  0  0  0  0  0  0
   60.8284   31.0815   50.0283 C   0  0  0  0  0  0  0  0  0  0  0  0
   61.0494   32.4498   49.5341 N   0  0  0  0  0  0  0  0  0  0  0  0
   62.2779   33.1471   49.8529 C   0  0  0  0  0  0  0  0  0  0  0  0
   62.3418   34.3963   49.6736 O   0  0  0  0  0  0  0  0  0  0  0  0
   63.4679   32.4542   50.2766 N   0  0  0  0  0  0  0  0  0  0  0  0
   64.7821   32.8730   49.8154 C   0  0  0  0  0  0  0  0  0  0  0  0
   65.7816   32.0667   50.6287 C   0  0  0  0  0  0  0  0  0  0  0  0
   65.0195   31.6142   51.8687 C   0  0  0  0  0  0  0  0  0  0  0  0
   63.5523   31.6123   51.4635 C   0  0  0  0  0  0  0  0  0  0  0  0
   60.1227   33.1375   48.6128 C   0  0  0  0  0  0  0  0  0  0  0  0
   58.9023   32.3117   48.1590 C   0  0  0  0  0  0  0  0  0  0  0  0
   58.7513   30.2937   47.5323 H   0  0  0  0  0  0  0  0  0  0  0  0
   58.1069   27.4690   43.8157 C   0  0  0  0  0  0  0  0  0  0  0  0
   58.8204   27.8089   44.9000 C   0  0  0  0  0  0  0  0  0  0  0  0
   59.3000   26.9461   45.8985 C   0  0  0  0  0  0  0  0  0  0  0  0
   59.3794   25.6025   45.9414 C   0  0  0  0  0  0  0  0  0  0  0  0
   59.7387   27.7545   46.9318 C   0  0  0  0  0  0  0  0  0  0  0  0
   59.6091   29.0575   46.4985 C   0  0  0  0  0  0  0  0  0  0  0  0
   59.0389   29.0966   45.2727 N   0  0  0  0  0  0  0  0  0  0  0  0
   58.6009   30.3000   44.5578 C   0  0  0  0  0  0  0  0  0  0  0  0
   58.2412   24.6833   46.1055 C   0  0  0  0  0  0  0  0  0  0  0  0
   58.2887   23.3577   45.8777 N   0  0  0  0  0  0  0  0  0  0  0  0
   57.0875   22.9201   46.3153 C   0  0  0  0  0  0  0  0  0  0  0  0
   56.7422   21.7123   46.2567 O   0  0  0  0  0  0  0  0  0  0  0  0
   56.2919   23.8789   46.8326 N   0  0  0  0  0  0  0  0  0  0  0  0
   57.0432   24.9855   46.7053 C   0  0  0  0  0  0  0  0  0  0  0  0
   56.6456   26.2443   47.1382 O   0  0  0  0  0  0  0  0  0  0  0  0
 17 18  2  0
 18 19  1  0
 19 20  2  0
 20 25  1  0
 25 26  1  0
 26 27  1  0
 27 28  2  0
 27 29  1  0
 29 30  1  0
 30 31  1  0
 19 21  1  0
 21 22  2  0
 22  1  1  0
  1  2  2  0
  1  3  1  0
  3  4  1  0
  4  5  1  0
  5  6  1  0
  6  7  1  0
  7  8  2  0
  7  9  1  0
  9 10  1  0
 10 11  1  0
 11 12  1  0
 12 13  1  0
  6 14  1  0
 14 15  1  0
 22 23  1  0
 23 24  1  0
 23 18  1  0
 30 25  2  0
 15  3  1  0
 13  9  1  0
  3 16  1  0
M  CHG 1   3   1
M  CHG 1  26  -1
M  CHG 1  29  -1
M  CHG 1  31  -1
M  END
> <UniqueID>
6

> <SMILES>
C=c1/c(=C\c2[n-]c(=O)[n-]c2[O-])cc(C(=O)[NH+]2CCN(C(=O)N3CCCC3)CC2)n1C

> <Energy>
145.66986861858217

> <Genealogy>
C=c1c(=Cc2[n-]c(=O)[n-]c2[O-])cc(C(=O)[NH+]2CCN(C(=O)N3CCCC3)CC2)n1C (protonated)
C=c1/c(=C\c2[n-]c(=O)[n-]c2[O-])cc(C(=O)[NH+]2CCN(C(=O)N3CCCC3)CC2)n1C (cis-trans isomerization)
C=c1/c(=C\c2[n-]c(=O)[n-]c2[O-])cc(C(=O)[NH+]2CCN(C(=O)N3CCCC3)CC2)n1C (3D coordinates assigned)
C=c1/c(=C\c2[n-]c(=O)[n-]c2[O-])cc(C(=O)[NH+]2CCN(C(=O)N3CCCC3)CC2)n1C (nonaromatic ring conformer: 145.66986861858217 kcal/mol)

> <smiles>
C=c1c(=Cc2[nH]c(=O)[nH]c2O)cc(C(=O)N2CCN(C(=O)N3CCCC3)CC2)n1C

> <score_type>
oracle

> <origin>
adg

> <m_score__min__energy>
-17.149999999999999

> <m_primary>
energy

> <minimizedAffinity>
-8.09901

> <minimizedRMSD>
1.99140

> <CNNscore>
0.1332031041

> <CNNaffinity>
6.4536113739

> <CNN_VS>
0.8596410751

> <CNNaffinity_variance>
0.4011434019

$$$$
14:0


 25 27  0  0  0  0  0  0  0  0999 V2000
   55.1546   28.4192   54.3654 C   0  0  0  0  0  0  0  0  0  0  0  0
   55.6566   29.2538   53.4406 C   0  0  0  0  0  0  0  0  0  0  0  0
   54.9894   30.3323   52.8379 C   0  0  0  0  0  0  0  0  0  0  0  0
   53.6916   30.6976   52.8575 C   0  0  0  0  0  0  0  0  0  0  0  0
   55.9431   31.0202   52.1136 C   0  0  0  0  0  0  0  0  0  0  0  0
   57.1252   30.3171   52.2230 C   0  0  0  0  0  0  0  0  0  0  0  0
   56.9612   29.2483   53.0465 N   0  0  0  0  0  0  0  0  0  0  0  0
   52.7585   30.6167   51.7226 C   0  0  0  0  0  0  0  0  0  0  0  0
   52.8815   29.7671   50.6858 N   0  0  0  0  0  0  0  0  0  0  0  0
   51.8978   30.1537   49.8455 C   0  0  0  0  0  0  0  0  0  0  0  0
   51.6775   29.5779   48.7497 O   0  0  0  0  0  0  0  0  0  0  0  0
   51.1758   31.2133   50.2689 N   0  0  0  0  0  0  0  0  0  0  0  0
   51.7438   31.5022   51.4511 C   0  0  0  0  0  0  0  0  0  0  0  0
   51.3470   32.5569   52.2622 O   0  0  0  0  0  0  0  0  0  0  0  0
   58.3564   30.6897   51.4917 C   0  0  0  0  0  0  0  0  0  0  0  0
   59.0894   29.7806   51.0163 O   0  0  0  0  0  0  0  0  0  0  0  0
   58.7544   32.0591   51.3713 N   0  0  0  0  0  0  0  0  0  0  0  0
   59.9514   32.4937   50.6640 C   0  0  0  0  0  0  0  0  0  0  0  0
   59.5906   33.0110   49.3081 C   0  0  0  0  0  0  0  0  0  0  0  0
   58.7338   32.4282   48.5013 O   0  0  0  0  0  0  0  0  0  0  0  0
   58.6647   33.1260   47.3914 C   0  0  0  0  0  0  0  0  0  0  0  0
   59.5140   34.2114   47.4712 C   0  0  0  0  0  0  0  0  0  0  0  0
   60.1152   34.1385   48.7097 C   0  0  0  0  0  0  0  0  0  0  0  0
   58.0107   28.3163   53.4923 C   0  0  0  0  0  0  0  0  0  0  0  0
   58.7981   28.9149   54.6526 C   0  0  0  0  0  0  0  0  0  0  0  0
  1  2  2  0
  2  3  1  0
  3  4  2  0
  4  8  1  0
  8  9  1  0
  9 10  1  0
 10 11  2  0
 10 12  1  0
 12 13  1  0
 13 14  1  0
  3  5  1  0
  5  6  2  0
  6 15  1  0
 15 16  2  0
 15 17  1  0
 17 18  1  0
 18 19  1  0
 19 20  1  0
 20 21  1  0
 21 22  2  0
 22 23  1  0
  6  7  1  0
  7 24  1  0
 24 25  1  0
  7  2  1  0
 13  8  2  0
 23 19  2  0
M  CHG 1   9  -1
M  CHG 1  12  -1
M  CHG 1  14  -1
M  CHG 1  17  -1
M  END
> <UniqueID>
15

> <SMILES>
C=c1/c(=C\c2[n-]c(=O)[n-]c2[O-])cc(C(=O)[N-]Cc2ccco2)n1CC

> <Energy>
133.5143085858816

> <Genealogy>
C=c1c(=Cc2[n-]c(=O)[n-]c2[O-])cc(C(=O)[N-]Cc2ccco2)n1CC (protonated)
C=c1/c(=C\c2[n-]c(=O)[n-]c2[O-])cc(C(=O)[N-]Cc2ccco2)n1CC (cis-trans isomerization)
C=c1/c(=C\c2[n-]c(=O)[n-]c2[O-])cc(C(=O)[N-]Cc2ccco2)n1CC (3D coordinates assigned)
C=c1/c(=C\c2[n-]c(=O)[n-]c2[O-])cc(C(=O)[N-]Cc2ccco2)n1CC (optimized conformer: 133.5143085858816 kcal/mol)

> <smiles>
C=c1c(=Cc2[nH]c(=O)[nH]c2O)cc(C(=O)NCc2ccco2)n1CC

> <score_type>
oracle

> <origin>
adg

> <m_score__min__energy>
-16.850000000000001

> <m_primary>
energy

> <minimizedAffinity>
-5.12185

> <minimizedRMSD>
0.87077

> <CNNscore>
0.1669087261

> <CNNaffinity>
4.7896037102

> <CNN_VS>
0.7994266748

> <CNNaffinity_variance>
0.1354996115

$$$$
21:0


 29 31  0  0  0  0  0  0  0  0999 V2000
   56.4180   30.0986   44.0573 C   0  0  0  0  0  0  0  0  0  0  0  0
   57.2829   29.5105   44.8859 C   0  0  0  0  0  0  0  0  0  0  0  0
   58.1911   30.1532   45.7122 C   0  0  0  0  0  0  0  0  0  0  0  0
   58.8786   29.1593   46.3853 C   0  0  0  0  0  0  0  0  0  0  0  0
   58.3372   27.9564   45.9648 C   0  0  0  0  0  0  0  0  0  0  0  0
   58.7370   26.7604   46.4364 C   0  0  0  0  0  0  0  0  0  0  0  0
   57.3672   28.1742   45.0465 N   0  0  0  0  0  0  0  0  0  0  0  0
   56.8286   27.4909   44.5858 H   0  0  0  0  0  0  0  0  0  0  0  0
   58.0998   25.4526   46.1653 C   0  0  0  0  0  0  0  0  0  0  0  0
   58.7364   24.2890   45.9447 N   0  0  0  0  0  0  0  0  0  0  0  0
   57.7307   23.4083   45.7545 C   0  0  0  0  0  0  0  0  0  0  0  0
   57.9338   22.1888   45.5144 O   0  0  0  0  0  0  0  0  0  0  0  0
   56.4931   23.9367   45.8406 N   0  0  0  0  0  0  0  0  0  0  0  0
   56.7446   25.2291   46.1009 C   0  0  0  0  0  0  0  0  0  0  0  0
   55.7529   26.1871   46.2761 O   0  0  0  0  0  0  0  0  0  0  0  0
   58.4076   31.6124   45.8286 C   0  0  0  0  0  0  0  0  0  0  0  0
   58.7572   32.2361   44.7898 O   0  0  0  0  0  0  0  0  0  0  0  0
   58.1488   32.3553   47.0522 N   0  0  0  0  0  0  0  0  0  0  0  0
   58.5271   33.7911   46.9708 C   0  0  0  0  0  0  0  0  0  0  0  0
   59.8807   34.1108   47.6342 C   0  0  0  0  0  0  0  0  0  0  0  0
   60.7574   32.9400   47.5734 N   0  0  0  0  0  0  0  0  0  0  0  0
   60.2352   31.8360   48.3937 C   0  0  0  0  0  0  0  0  0  0  0  0
   58.7044   31.6700   48.2419 C   0  0  0  0  0  0  0  0  0  0  0  0
   58.4847   32.7261   47.9001 H   0  0  0  0  0  0  0  0  0  0  0  0
   62.3928   33.3453   48.0363 S   0  0  0  0  0  0  0  0  0  0  0  0
   62.3518   34.4945   49.0038 O   0  0  0  0  0  0  0  0  0  0  0  0
   63.1501   33.7855   46.8135 O   0  0  0  0  0  0  0  0  0  0  0  0
   63.2593   31.9529   48.7703 C   0  0  0  0  0  0  0  0  0  0  0  0
   64.2826   32.4035   49.8086 C   0  0  0  0  0  0  0  0  0  0  0  0
  1  2  2  0
  2  3  1  0
  3 16  1  0
 16 17  2  0
 16 18  1  0
 18 19  1  0
 19 20  1  0
 20 21  1  0
 21 25  1  0
 25 26  2  0
 25 27  2  0
 25 28  1  0
 28 29  1  0
 21 22  1  0
 22 23  1  0
  3  4  2  0
  4  5  1  0
  5  6  2  0
  6  9  1  0
  9 10  1  0
 10 11  1  0
 11 12  2  0
 11 13  1  0
 13 14  1  0
 14 15  1  0
  5  7  1  0
  7  2  1  0
 23 18  1  0
 14  9  2  0
 18 24  1  0
  7  8  1  0
M  CHG 1  10  -1
M  CHG 1  13  -1
M  CHG 1  15  -1
M  CHG 1  18   1
M  END
> <UniqueID>
22

> <SMILES>
C=c1[nH]/c(=C\c2[n-]c(=O)[n-]c2[O-])cc1C(=O)[NH+]1CCN(S(=O)(=O)CC)CC1

> <Energy>
117.53420245978734

> <Genealogy>
C=c1[nH]c(=Cc2[n-]c(=O)[n-]c2[O-])cc1C(=O)[NH+]1CCN(S(=O)(=O)CC)CC1 (protonated)
C=c1[nH]/c(=C\c2[n-]c(=O)[n-]c2[O-])cc1C(=O)[NH+]1CCN(S(=O)(=O)CC)CC1 (cis-trans isomerization)
C=c1[nH]/c(=C\c2[n-]c(=O)[n-]c2[O-])cc1C(=O)[NH+]1CCN(S(=O)(=O)CC)CC1 (3D coordinates assigned)
C=c1[nH]/c(=C\c2[n-]c(=O)[n-]c2[O-])cc1C(=O)[NH+]1CCN(S(=O)(=O)CC)CC1 (nonaromatic ring conformer: 117.53420245978734 kcal/mol)

> <smiles>
C=c1[nH]c(=Cc2[nH]c(=O)[nH]c2O)cc1C(=O)N1CCN(S(=O)(=O)CC)CC1

> <score_type>
oracle

> <origin>
adg

> <m_score__min__energy>
-15.789999999999999

> <m_primary>
energy

> <minimizedAffinity>
-8.23555

> <minimizedRMSD>
1.52749

> <CNNscore>
0.2633053064

> <CNNaffinity>
6.3911595345

> <CNN_VS>
1.6828261614

> <CNNaffinity_variance>
0.0945808887

$$$$
30:0


 32 34  0  0  0  0  0  0  0  0999 V2000
   59.9774   29.0661   49.5929 N   0  0  0  0  0  0  0  0  0  0  0  0
   61.0169   28.4979   50.4639 C   0  0  0  0  0  0  0  0  0  0  0  0
   61.8967   29.6124   51.0393 C   0  0  0  0  0  0  0  0  0  0  0  0
   61.0870   30.6886   51.6310 N   0  0  0  0  0  0  0  0  0  0  0  0
   61.6526   31.5445   52.6400 C   0  0  0  0  0  0  0  0  0  0  0  0
   61.0712   31.6620   53.7518 O   0  0  0  0  0  0  0  0  0  0  0  0
   59.6357   30.7195   51.4160 C   0  0  0  0  0  0  0  0  0  0  0  0
   59.3049   30.3183   49.9754 C   0  0  0  0  0  0  0  0  0  0  0  0
   58.6888   26.9572   46.1216 C   0  0  0  0  0  0  0  0  0  0  0  0
   59.6993   26.4258   46.9296 C   0  0  0  0  0  0  0  0  0  0  0  0
   60.1222   27.1155   48.0699 C   0  0  0  0  0  0  0  0  0  0  0  0
   59.5391   28.3483   48.4163 C   0  0  0  0  0  0  0  0  0  0  0  0
   58.5193   28.8706   47.5996 C   0  0  0  0  0  0  0  0  0  0  0  0
   58.0994   28.1790   46.4586 C   0  0  0  0  0  0  0  0  0  0  0  0
   57.9070   25.6750   44.0025 N   0  0  0  0  0  0  0  0  0  0  0  0
   58.2562   26.2462   44.9471 C   0  0  0  0  0  0  0  0  0  0  0  0
   62.8378   32.3147   52.3980 N   0  0  0  0  0  0  0  0  0  0  0  0
   62.8343   33.7122   51.9884 C   0  0  0  0  0  0  0  0  0  0  0  0
   63.0826   33.8278   50.5131 C   0  0  0  0  0  0  0  0  0  0  0  0
   64.2558   33.6934   50.0736 O   0  0  0  0  0  0  0  0  0  0  0  0
   62.0232   34.0975   49.5837 N   0  0  0  0  0  0  0  0  0  0  0  0
   61.4982   33.1975   48.5953 C   0  0  0  0  0  0  0  0  0  0  0  0
   62.1904   32.0104   48.3237 C   0  0  0  0  0  0  0  0  0  0  0  0
   61.7146   31.1215   47.3558 C   0  0  0  0  0  0  0  0  0  0  0  0
   60.5358   31.4053   46.6613 C   0  0  0  0  0  0  0  0  0  0  0  0
   59.8131   32.5691   46.9508 C   0  0  0  0  0  0  0  0  0  0  0  0
   60.2859   33.4542   47.9286 C   0  0  0  0  0  0  0  0  0  0  0  0
   58.3373   32.9419   46.0646 S   0  0  0  0  0  0  0  0  0  0  0  0
   57.8147   31.5402   45.1994 N   0  0  0  0  0  0  0  0  0  0  0  0
   57.2605   33.3674   47.0231 O   0  0  0  0  0  0  0  0  0  0  0  0
   58.5926   34.0639   45.0974 O   0  0  0  0  0  0  0  0  0  0  0  0
   57.6418   30.7797   45.8568 H   0  0  0  0  0  0  0  0  0  0  0  0
 15 16  3  0
 16  9  1  0
  9 10  2  0
 10 11  1  0
 11 12  2  0
 12  1  1  0
  1  2  1  0
  2  3  1  0
  3  4  1  0
  4  5  1  0
  5  6  2  0
  5 17  1  0
 17 18  1  0
 18 19  1  0
 19 20  2  0
 19 21  1  0
 21 22  1  0
 22 23  2  0
 23 24  1  0
 24 25  2  0
 25 26  1  0
 26 28  1  0
 28 29  1  0
 28 30  2  0
 28 31  2  0
 26 27  2  0
  4  7  1  0
  7  8  1  0
 12 13  1  0
 13 14  2  0
 14  9  1  0
  8  1  1  0
 27 22  1  0
 29 32  1  0
M  CHG 1  17  -1
M  CHG 1  21  -1
M  CHG 1  29  -1
M  END
> <UniqueID>
31

> <SMILES>
N#Cc1ccc(N2CCN(C(=O)[N-]CC(=O)[N-]c3cccc(S([NH-])(=O)=O)c3)CC2)cc1

> <Energy>
57.64644052343676

> <Genealogy>
N#Cc1ccc(N2CCN(C(=O)[N-]CC(=O)[N-]c3cccc(S([NH-])(=O)=O)c3)CC2)cc1 (protonated)
N#Cc1ccc(N2CCN(C(=O)[N-]CC(=O)[N-]c3cccc(S([NH-])(=O)=O)c3)CC2)cc1 (3D coordinates assigned)
N#Cc1ccc(N2CCN(C(=O)[N-]CC(=O)[N-]c3cccc(S([NH-])(=O)=O)c3)CC2)cc1 (nonaromatic ring conformer: 57.64644052343676 kcal/mol)

> <smiles>
N#Cc1ccc(N2CCN(C(=O)NCC(=O)Nc3cccc(S(N)(=O)=O)c3)CC2)cc1

> <score_type>
oracle

> <origin>
adg

> <m_score__min__energy>
-14.779999999999999

> <m_primary>
energy

> <minimizedAffinity>
-6.39481

> <minimizedRMSD>
3.10053

> <CNNscore>
0.1281827539

> <CNNaffinity>
6.2578864098

> <CNN_VS>
0.8021531105

> <CNNaffinity_variance>
0.0121422699

$$$$
44:0


 29 32  0  0  0  0  0  0  0  0999 V2000
   58.1710   27.5101   43.5983 C   0  0  0  0  0  0  0  0  0  0  0  0
   58.5607   28.0385   44.7690 C   0  0  0  0  0  0  0  0  0  0  0  0
   58.9318   27.3423   45.9294 C   0  0  0  0  0  0  0  0  0  0  0  0
   59.2011   26.0375   46.1328 C   0  0  0  0  0  0  0  0  0  0  0  0
   59.0076   28.2858   46.9398 C   0  0  0  0  0  0  0  0  0  0  0  0
   58.7373   29.5105   46.3650 C   0  0  0  0  0  0  0  0  0  0  0  0
   58.4998   29.3689   45.0402 N   0  0  0  0  0  0  0  0  0  0  0  0
   58.2197   30.4441   44.0801 C   0  0  0  0  0  0  0  0  0  0  0  0
   58.7227   30.7835   47.1095 C   0  0  0  0  0  0  0  0  0  0  0  0
   58.0257   31.7373   46.6701 O   0  0  0  0  0  0  0  0  0  0  0  0
   59.5230   30.9673   48.2919 N   0  0  0  0  0  0  0  0  0  0  0  0
   59.0129   31.7700   49.4087 C   0  0  0  0  0  0  0  0  0  0  0  0
   60.0895   32.7467   49.8862 C   0  0  0  0  0  0  0  0  0  0  0  0
   61.3710   32.0638   50.1260 N   0  0  0  0  0  0  0  0  0  0  0  0
   61.5579   30.6699   49.6936 C   0  0  0  0  0  0  0  0  0  0  0  0
   60.8897   30.4265   48.3352 C   0  0  0  0  0  0  0  0  0  0  0  0
   62.3970   32.7315   50.8895 C   0  0  0  0  0  0  0  0  0  0  0  0
   62.3346   32.9706   52.1901 C   0  0  0  0  0  0  0  0  0  0  0  0
   63.5546   33.6779   52.6963 C   0  0  0  0  0  0  0  0  0  0  0  0
   64.4556   33.8540   51.4613 C   0  0  0  0  0  0  0  0  0  0  0  0
   63.6623   33.2242   50.3769 C   0  0  0  0  0  0  0  0  0  0  0  0
   64.0658   33.0956   49.1915 O   0  0  0  0  0  0  0  0  0  0  0  0
   58.2477   24.9291   45.9657 C   0  0  0  0  0  0  0  0  0  0  0  0
   58.5922   23.6443   45.7568 N   0  0  0  0  0  0  0  0  0  0  0  0
   57.4110   22.9923   45.8101 C   0  0  0  0  0  0  0  0  0  0  0  0
   57.3150   21.7485   45.6427 O   0  0  0  0  0  0  0  0  0  0  0  0
   56.3416   23.7757   46.0680 N   0  0  0  0  0  0  0  0  0  0  0  0
   56.8922   24.9958   46.1772 C   0  0  0  0  0  0  0  0  0  0  0  0
   56.1702   26.1453   46.4724 O   0  0  0  0  0  0  0  0  0  0  0  0
  1  2  2  0
  2  3  1  0
  3  4  2  0
  4 23  1  0
 23 24  1  0
 24 25  1  0
 25 26  2  0
 25 27  1  0
 27 28  1  0
 28 29  1  0
  3  5  1  0
  5  6  2  0
  6  9  1  0
  9 10  2  0
  9 11  1  0
 11 12  1  0
 12 13  1  0
 13 14  1  0
 14 17  1  0
 17 18  2  0
 18 19  1  0
 19 20  1  0
 20 21  1  0
 21 22  2  0
 14 15  1  0
 15 16  1  0
  6  7  1  0
  7  8  1  0
  7  2  1  0
 28 23  2  0
 16 11  1  0
 21 17  1  0
M  CHG 1  24  -1
M  CHG 1  27  -1
M  CHG 1  29  -1
M  END
> <UniqueID>
45

> <SMILES>
C=c1c(=Cc2[n-]c(=O)[n-]c2[O-])cc(C(=O)N2CCN(C3=CCCC3=O)CC2)n1C

> <Energy>
138.10021361571904

> <Genealogy>
C=c1c(=Cc2[n-]c(=O)[n-]c2[O-])cc(C(=O)N2CCN(C3=CCCC3=O)CC2)n1C (protonated)
C=c1c(=Cc2[n-]c(=O)[n-]c2[O-])cc(C(=O)N2CCN(C3=CCCC3=O)CC2)n1C (3D coordinates assigned)
C=c1c(=Cc2[n-]c(=O)[n-]c2[O-])cc(C(=O)N2CCN(C3=CCCC3=O)CC2)n1C (nonaromatic ring conformer: 138.10021361571904 kcal/mol)

> <smiles>
C=c1c(=Cc2[nH]c(=O)[nH]c2O)cc(C(=O)N2CCN(C3=CCCC3=O)CC2)n1C

> <score_type>
oracle

> <origin>
adg

> <m_score__min__energy>
-17.280000000000001

> <m_primary>
energy

> <minimizedAffinity>
-7.92591

> <minimizedRMSD>
2.06519

> <CNNscore>
0.0753437877

> <CNNaffinity>
6.2710042000

> <CNN_VS>
0.4724812210

> <CNNaffinity_variance>
0.1625489742

$$$$
48:0


 25 27  0  0  0  0  0  0  0  0999 V2000
   58.4252   26.9941   46.2836 C   0  0  0  0  0  0  0  0  0  0  0  0
   59.7944   27.2406   46.0937 C   0  0  0  0  0  0  0  0  0  0  0  0
   60.2143   28.3673   45.3821 C   0  0  0  0  0  0  0  0  0  0  0  0
   59.2742   29.2537   44.8507 C   0  0  0  0  0  0  0  0  0  0  0  0
   57.9050   29.0061   45.0146 C   0  0  0  0  0  0  0  0  0  0  0  0
   57.4833   27.8743   45.7262 C   0  0  0  0  0  0  0  0  0  0  0  0
   56.7060   30.0964   44.3234 S   0  0  0  0  0  0  0  0  0  0  0  0
   55.3195   29.5555   44.5447 O   0  0  0  0  0  0  0  0  0  0  0  0
   56.9431   30.1979   42.8443 O   0  0  0  0  0  0  0  0  0  0  0  0
   56.8369   31.6822   45.0274 N   0  0  0  0  0  0  0  0  0  0  0  0
   58.0042   32.4013   44.5100 C   0  0  0  0  0  0  0  0  0  0  0  0
   58.7791   33.0394   45.6320 C   0  0  0  0  0  0  0  0  0  0  0  0
   59.1928   34.3791   45.5427 C   0  0  0  0  0  0  0  0  0  0  0  0
   59.9107   34.9666   46.5885 C   0  0  0  0  0  0  0  0  0  0  0  0
   60.2420   34.2151   47.7175 C   0  0  0  0  0  0  0  0  0  0  0  0
   59.8550   32.8760   47.8040 C   0  0  0  0  0  0  0  0  0  0  0  0
   59.1223   32.2886   46.7687 C   0  0  0  0  0  0  0  0  0  0  0  0
   57.9760   25.7911   47.0654 C   0  0  0  0  0  0  0  0  0  0  0  0
   58.3556   23.3105   45.1083 C   0  0  0  0  0  0  0  0  0  0  0  0
   57.0689   23.9730   45.4775 C   0  0  0  0  0  0  0  0  0  0  0  0
   55.8652   23.5656   45.0346 N   0  0  0  0  0  0  0  0  0  0  0  0
   55.0096   24.4143   45.6400 C   0  0  0  0  0  0  0  0  0  0  0  0
   53.7624   24.3525   45.4759 O   0  0  0  0  0  0  0  0  0  0  0  0
   55.5926   25.3310   46.4387 N   0  0  0  0  0  0  0  0  0  0  0  0
   56.9031   25.0492   46.3261 C   0  0  0  0  0  0  0  0  0  0  0  0
 19 20  1  0
 20 21  1  0
 21 22  1  0
 22 23  2  0
 22 24  1  0
 24 25  1  0
 25 18  1  0
 18  1  1  0
  1  2  2  0
  2  3  1  0
  3  4  2  0
  4  5  1  0
  5  7  1  0
  7  8  2  0
  7  9  2  0
  7 10  1  0
 10 11  1  0
 11 12  1  0
 12 13  2  0
 13 14  1  0
 14 15  2  0
 15 16  1  0
 16 17  2  0
  5  6  2  0
 25 20  2  0
  6  1  1  0
 17 12  1  0
M  CHG 1  10  -1
M  CHG 1  21  -1
M  CHG 1  24  -1
M  END
> <UniqueID>
49

> <SMILES>
Cc1[n-]c(=O)[n-]c1Cc1cccc(S(=O)(=O)[N-]Cc2ccccc2)c1

> <Energy>
61.574656651688095

> <Genealogy>
Cc1[n-]c(=O)[n-]c1Cc1cccc(S(=O)(=O)[N-]Cc2ccccc2)c1 (protonated)
Cc1[n-]c(=O)[n-]c1Cc1cccc(S(=O)(=O)[N-]Cc2ccccc2)c1 (3D coordinates assigned)
Cc1[n-]c(=O)[n-]c1Cc1cccc(S(=O)(=O)[N-]Cc2ccccc2)c1 (optimized conformer: 61.574656651688095 kcal/mol)

> <smiles>
Cc1[nH]c(=O)[nH]c1Cc1cccc(S(=O)(=O)NCc2ccccc2)c1

> <score_type>
oracle

> <origin>
adg

> <m_score__min__energy>
-14.210000000000001

> <m_primary>
energy

> <minimizedAffinity>
-8.55348

> <minimizedRMSD>
0.58895

> <CNNscore>
0.6521095037

> <CNNaffinity>
6.6580176353

> <CNN_VS>
4.3417563438

> <CNNaffinity_variance>
0.0041819746

$$$$
51:0


 37 41  0  0  0  0  0  0  0  0999 V2000
   60.1422   30.4789   52.5945 C   0  0  0  0  0  0  0  0  0  0  0  0
   61.3025   29.9702   53.2037 C   0  0  0  0  0  0  0  0  0  0  0  0
   62.1126   29.0591   52.5229 C   0  0  0  0  0  0  0  0  0  0  0  0
   61.7630   28.6273   51.2431 C   0  0  0  0  0  0  0  0  0  0  0  0
   60.5903   29.0955   50.6302 C   0  0  0  0  0  0  0  0  0  0  0  0
   59.7862   30.0249   51.3159 C   0  0  0  0  0  0  0  0  0  0  0  0
   60.1843   28.5928   49.3400 N   0  0  0  0  0  0  0  0  0  0  0  0
   59.3243   29.4316   48.4932 C   0  0  0  0  0  0  0  0  0  0  0  0
   58.6842   28.6050   47.3796 C   0  0  0  0  0  0  0  0  0  0  0  0
   59.7365   27.8755   46.6531 N   0  0  0  0  0  0  0  0  0  0  0  0
   60.5458   26.9578   47.4947 C   0  0  0  0  0  0  0  0  0  0  0  0
   60.3679   27.1721   49.0114 C   0  0  0  0  0  0  0  0  0  0  0  0
   59.2726   27.2718   45.3838 C   0  0  0  0  0  0  0  0  0  0  0  0
   58.3341   26.0949   45.5700 C   0  0  0  0  0  0  0  0  0  0  0  0
   58.8414   24.7851   45.6400 C   0  0  0  0  0  0  0  0  0  0  0  0
   57.9734   23.7003   45.8000 C   0  0  0  0  0  0  0  0  0  0  0  0
   56.5966   23.9130   45.9100 C   0  0  0  0  0  0  0  0  0  0  0  0
   56.0850   25.2121   45.8689 C   0  0  0  0  0  0  0  0  0  0  0  0
   54.7189   25.4240   45.9924 O   0  0  0  0  0  0  0  0  0  0  0  0
   56.9503   26.3005   45.7058 C   0  0  0  0  0  0  0  0  0  0  0  0
   59.2572   31.3969   53.2596 N   0  0  0  0  0  0  0  0  0  0  0  0
   57.2727   32.3671   52.4639 O   0  0  0  0  0  0  0  0  0  0  0  0
   58.5091   32.4762   52.6837 C   0  0  0  0  0  0  0  0  0  0  0  0
   59.2121   33.7622   52.3618 C   0  0  0  0  0  0  0  0  0  0  0  0
   60.0576   33.6642   51.1253 C   0  0  0  0  0  0  0  0  0  0  0  0
   61.3999   33.4575   51.2111 N   0  0  0  0  0  0  0  0  0  0  0  0
   62.1592   33.3244   50.0963 C   0  0  0  0  0  0  0  0  0  0  0  0
   63.4020   33.1515   50.2007 O   0  0  0  0  0  0  0  0  0  0  0  0
   61.5631   33.3760   48.8341 C   0  0  0  0  0  0  0  0  0  0  0  0
   60.1703   33.5585   48.7484 C   0  0  0  0  0  0  0  0  0  0  0  0
   59.4616   33.6921   49.9048 N   0  0  0  0  0  0  0  0  0  0  0  0
   59.4722   33.5760   47.4768 N   0  0  0  0  0  0  0  0  0  0  0  0
   59.7969   34.6581   46.5281 C   0  0  0  0  0  0  0  0  0  0  0  0
   59.1487   34.4587   45.1567 C   0  0  0  0  0  0  0  0  0  0  0  0
   57.8184   34.0156   45.2923 O   0  0  0  0  0  0  0  0  0  0  0  0
   57.8332   32.6987   45.7953 C   0  0  0  0  0  0  0  0  0  0  0  0
   58.3337   32.6677   47.2439 C   0  0  0  0  0  0  0  0  0  0  0  0
 22 23  2  0
 23 24  1  0
 24 25  1  0
 25 26  2  0
 26 27  1  0
 27 28  2  0
 27 29  1  0
 29 30  2  0
 30 32  1  0
 32 33  1  0
 33 34  1  0
 34 35  1  0
 35 36  1  0
 36 37  1  0
 30 31  1  0
 23 21  1  0
 21  1  1  0
  1  2  2  0
  2  3  1  0
  3  4  2  0
  4  5  1  0
  5  7  1  0
  7  8  1  0
  8  9  1  0
  9 10  1  0
 10 13  1  0
 13 14  1  0
 14 15  2  0
 15 16  1  0
 16 17  2  0
 17 18  1  0
 18 19  1  0
 18 20  2  0
 10 11  1  0
 11 12  1  0
  5  6  2  0
 31 25  1  0
  6  1  1  0
 37 32  1  0
 12  7  1  0
 20 14  1  0
M  CHG 1  19  -1
M  CHG 1  21  -1
M  CHG 1  31  -1
M  END
> <UniqueID>
52

> <SMILES>
O=C(Cc1nc(=O)cc(N2CCOCC2)[n-]1)[N-]c1cccc(N2CCN(Cc3cccc([O-])c3)CC2)c1

> <Energy>
92.03129987045253

> <Genealogy>
O=C(Cc1nc(=O)cc(N2CCOCC2)[n-]1)[N-]c1cccc(N2CCN(Cc3cccc([O-])c3)CC2)c1 (protonated)
O=C(Cc1nc(=O)cc(N2CCOCC2)[n-]1)[N-]c1cccc(N2CCN(Cc3cccc([O-])c3)CC2)c1 (3D coordinates assigned)
O=C(Cc1nc(=O)cc(N2CCOCC2)[n-]1)[N-]c1cccc(N2CCN(Cc3cccc([O-])c3)CC2)c1 (nonaromatic ring conformer: 92.03129987045253 kcal/mol)

> <smiles>
O=C(Cc1nc(=O)cc(N2CCOCC2)[nH]1)Nc1cccc(N2CCN(Cc3cccc(O)c3)CC2)c1

> <score_type>
oracle

> <origin>
adg

> <m_score__min__energy>
-16.079999999999998

> <m_primary>
energy

> <minimizedAffinity>
-7.56172

> <minimizedRMSD>
0.69336

> <CNNscore>
0.0570771508

> <CNNaffinity>
5.7881598473

> <CNN_VS>
0.3303716779

> <CNNaffinity_variance>
0.7579452395

$$$$
52:0


 31 34  0  0  0  0  0  0  0  0999 V2000
   59.0334   29.7599   45.5254 C   0  0  0  0  0  0  0  0  0  0  0  0
   59.4002   29.3904   46.7555 C   0  0  0  0  0  0  0  0  0  0  0  0
   59.7609   28.1198   47.0373 N   0  0  0  0  0  0  0  0  0  0  0  0
   60.0337   28.1552   48.3517 C   0  0  0  0  0  0  0  0  0  0  0  0
   60.3971   27.1427   49.0089 O   0  0  0  0  0  0  0  0  0  0  0  0
   59.8105   29.4145   48.8683 C   0  0  0  0  0  0  0  0  0  0  0  0
   59.8785   29.7148   50.1818 C   0  0  0  0  0  0  0  0  0  0  0  0
   59.4577   30.2249   47.8339 N   0  0  0  0  0  0  0  0  0  0  0  0
   58.8353   30.4158   50.9441 C   0  0  0  0  0  0  0  0  0  0  0  0
   58.9356   31.7013   51.4359 C   0  0  0  0  0  0  0  0  0  0  0  0
   57.7579   31.9364   52.1138 C   0  0  0  0  0  0  0  0  0  0  0  0
   57.0136   30.7713   52.0019 C   0  0  0  0  0  0  0  0  0  0  0  0
   57.6912   29.8846   51.3102 O   0  0  0  0  0  0  0  0  0  0  0  0
   55.6583   30.5207   52.5399 C   0  0  0  0  0  0  0  0  0  0  0  0
   55.4670   29.9423   53.8065 C   0  0  0  0  0  0  0  0  0  0  0  0
   54.1771   29.7231   54.2962 C   0  0  0  0  0  0  0  0  0  0  0  0
   53.0648   30.0769   53.5305 C   0  0  0  0  0  0  0  0  0  0  0  0
   53.2314   30.6575   52.2632 C   0  0  0  0  0  0  0  0  0  0  0  0
   54.5337   30.8749   51.7744 C   0  0  0  0  0  0  0  0  0  0  0  0
   52.0507   31.0418   51.4583 C   0  0  0  0  0  0  0  0  0  0  0  0
   51.4076   32.0928   51.7232 O   0  0  0  0  0  0  0  0  0  0  0  0
   51.6333   30.2469   50.3966 O   0  0  0  0  0  0  0  0  0  0  0  0
   59.4399   31.7032   47.7805 C   0  0  0  0  0  0  0  0  0  0  0  0
   60.8210   32.2985   47.9925 C   0  0  0  0  0  0  0  0  0  0  0  0
   61.9494   31.6035   47.5085 C   0  0  0  0  0  0  0  0  0  0  0  0
   63.2340   32.1260   47.6698 C   0  0  0  0  0  0  0  0  0  0  0  0
   63.4178   33.3351   48.3362 C   0  0  0  0  0  0  0  0  0  0  0  0
   62.3208   34.0122   48.8666 C   0  0  0  0  0  0  0  0  0  0  0  0
   61.0258   33.4960   48.7287 C   0  0  0  0  0  0  0  0  0  0  0  0
   59.9851   34.1919   49.3474 O   0  0  0  0  0  0  0  0  0  0  0  0
   60.1654   34.9786   49.8235 H   0  0  0  0  0  0  0  0  0  0  0  0
  1  2  2  0
  2  3  1  0
  3  4  1  0
  4  5  2  0
  4  6  1  0
  6  7  2  0
  7  9  1  0
  9 10  2  0
 10 11  1  0
 11 12  2  0
 12 14  1  0
 14 15  2  0
 15 16  1  0
 16 17  2  0
 17 18  1  0
 18 20  1  0
 20 21  2  0
 20 22  1  0
 18 19  2  0
 12 13  1  0
  6  8  1  0
  8 23  1  0
 23 24  1  0
 24 25  2  0
 25 26  1  0
 26 27  2  0
 27 28  1  0
 28 29  2  0
 29 30  1  0
  8  2  1  0
 29 24  1  0
 13  9  1  0
 19 14  1  0
 30 31  1  0
M  CHG 1   3  -1
M  CHG 1  22  -1
M  END
> <UniqueID>
53

> <SMILES>
C=c1[n-]c(=O)c(=Cc2ccc(-c3cccc(C(=O)[O-])c3)o2)n1Cc1ccccc1O

> <Energy>
126.27956519764876

> <Genealogy>
C=c1[n-]c(=O)c(=Cc2ccc(-c3cccc(C(=O)[O-])c3)o2)n1Cc1ccccc1O (protonated)
C=c1[n-]c(=O)c(=Cc2ccc(-c3cccc(C(=O)[O-])c3)o2)n1Cc1ccccc1O (3D coordinates assigned)
C=c1[n-]c(=O)c(=Cc2ccc(-c3cccc(C(=O)[O-])c3)o2)n1Cc1ccccc1O (optimized conformer: 126.27956519764876 kcal/mol)

> <smiles>
C=c1[nH]c(=O)c(=Cc2ccc(-c3cccc(C(=O)O)c3)o2)n1Cc1ccccc1O

> <score_type>
oracle

> <origin>
adg

> <m_score__min__energy>
-14.220000000000001

> <m_primary>
energy

> <minimizedAffinity>
-8.91784

> <minimizedRMSD>
1.66504

> <CNNscore>
0.1412252039

> <CNNaffinity>
5.2095451355

> <CNN_VS>
0.7357190847

> <CNNaffinity_variance>
0.5060761571

$$$$
59:0


 29 32  0  0  0  0  0  0  0  0999 V2000
   57.3245   30.2962   43.2243 C   0  0  0  0  0  0  0  0  0  0  0  0
   58.0155   31.1034   44.0477 C   0  0  0  0  0  0  0  0  0  0  0  0
   57.7452   32.4844   43.9754 C   0  0  0  0  0  0  0  0  0  0  0  0
   58.1994   33.3566   44.9600 C   0  0  0  0  0  0  0  0  0  0  0  0
   58.9169   32.8744   46.0576 C   0  0  0  0  0  0  0  0  0  0  0  0
   59.2594   31.5157   46.1079 C   0  0  0  0  0  0  0  0  0  0  0  0
   58.8899   30.6228   45.0766 C   0  0  0  0  0  0  0  0  0  0  0  0
   59.4211   29.3746   45.1316 C   0  0  0  0  0  0  0  0  0  0  0  0
   59.3696   33.8011   47.1209 C   0  0  0  0  0  0  0  0  0  0  0  0
   58.6378   34.7761   47.4456 O   0  0  0  0  0  0  0  0  0  0  0  0
   60.6222   33.6016   47.7988 N   0  0  0  0  0  0  0  0  0  0  0  0
   60.7142   33.8917   49.2354 C   0  0  0  0  0  0  0  0  0  0  0  0
   61.7429   32.9780   49.9361 C   0  0  0  0  0  0  0  0  0  0  0  0
   62.7281   32.3827   49.0009 N   0  0  0  0  0  0  0  0  0  0  0  0
   63.0719   33.3086   47.9061 C   0  0  0  0  0  0  0  0  0  0  0  0
   61.8499   33.4642   47.0022 C   0  0  0  0  0  0  0  0  0  0  0  0
   63.8896   31.7926   49.7171 C   0  0  0  0  0  0  0  0  0  0  0  0
   63.5363   31.1282   51.0683 C   0  0  0  0  0  0  0  0  0  0  0  0
   64.8053   30.5360   51.7267 C   0  0  0  0  0  0  0  0  0  0  0  0
   66.0169   31.0225   51.1678 O   0  0  0  0  0  0  0  0  0  0  0  0
   65.9693   32.4306   51.0376 C   0  0  0  0  0  0  0  0  0  0  0  0
   65.0062   32.8418   49.9105 C   0  0  0  0  0  0  0  0  0  0  0  0
   58.6830   28.1295   45.4274 C   0  0  0  0  0  0  0  0  0  0  0  0
   59.2540   26.9447   45.7151 N   0  0  0  0  0  0  0  0  0  0  0  0
   58.1999   26.1586   46.0219 C   0  0  0  0  0  0  0  0  0  0  0  0
   58.3279   24.9468   46.3412 O   0  0  0  0  0  0  0  0  0  0  0  0
   56.9989   26.7737   45.9712 N   0  0  0  0  0  0  0  0  0  0  0  0
   57.3258   28.0230   45.6049 C   0  0  0  0  0  0  0  0  0  0  0  0
   56.4012   29.0467   45.4392 O   0  0  0  0  0  0  0  0  0  0  0  0
  1  2  2  0
  2  3  1  0
  3  4  2  0
  4  5  1  0
  5  9  1  0
  9 10  2  0
  9 11  1  0
 11 12  1  0
 12 13  1  0
 13 14  1  0
 14 17  1  0
 17 18  1  0
 18 19  1  0
 19 20  1  0
 20 21  1  0
 21 22  1  0
 14 15  1  0
 15 16  1  0
  5  6  2  0
  6  7  1  0
  7  8  2  0
  8 23  1  0
 23 24  1  0
 24 25  1  0
 25 26  2  0
 25 27  1  0
 27 28  1  0
 28 29  1  0
  7  2  1  0
 28 23  2  0
 16 11  1  0
 22 17  1  0
M  CHG 1  24  -1
M  CHG 1  27  -1
M  CHG 1  29  -1
M  END
> <UniqueID>
60

> <SMILES>
C=c1ccc(C(=O)N2CCN(C3CCOCC3)CC2)cc1=Cc1[n-]c(=O)[n-]c1[O-]

> <Energy>
125.61153046905424

> <Genealogy>
C=c1ccc(C(=O)N2CCN(C3CCOCC3)CC2)cc1=Cc1[n-]c(=O)[n-]c1[O-] (protonated)
C=c1ccc(C(=O)N2CCN(C3CCOCC3)CC2)cc1=Cc1[n-]c(=O)[n-]c1[O-] (3D coordinates assigned)
C=c1ccc(C(=O)N2CCN(C3CCOCC3)CC2)cc1=Cc1[n-]c(=O)[n-]c1[O-] (nonaromatic ring conformer: 125.61153046905424 kcal/mol)

> <smiles>
C=c1ccc(C(=O)N2CCN(C3CCOCC3)CC2)cc1=Cc1[nH]c(=O)[nH]c1O

> <score_type>
oracle

> <origin>
adg

> <m_score__min__energy>
-17.920000000000002

> <m_primary>
energy

> <minimizedAffinity>
-8.14026

> <minimizedRMSD>
1.18129

> <CNNscore>
0.1106717065

> <CNNaffinity>
5.8668131828

> <CNN_VS>
0.6492902040

> <CNNaffinity_variance>
0.3847410977

$$$$
67:0


 33 36  0  0  0  0  0  0  0  0999 V2000
   59.0343   33.1807   45.4688 C   0  0  0  0  0  0  0  0  0  0  0  0
   58.9273   34.0790   44.5894 O   0  0  0  0  0  0  0  0  0  0  0  0
   59.8508   33.4162   46.6283 N   0  0  0  0  0  0  0  0  0  0  0  0
   59.3605   33.0086   47.9562 C   0  0  0  0  0  0  0  0  0  0  0  0
   60.2078   33.6124   49.0802 C   0  0  0  0  0  0  0  0  0  0  0  0
   61.6316   33.4414   48.7730 N   0  0  0  0  0  0  0  0  0  0  0  0
   62.5383   33.0548   49.8061 C   0  0  0  0  0  0  0  0  0  0  0  0
   62.8387   33.8744   50.7159 O   0  0  0  0  0  0  0  0  0  0  0  0
   62.1551   33.7308   47.4314 C   0  0  0  0  0  0  0  0  0  0  0  0
   61.0512   34.2544   46.5060 C   0  0  0  0  0  0  0  0  0  0  0  0
   57.0937   29.3376   43.2805 C   0  0  0  0  0  0  0  0  0  0  0  0
   57.4706   30.1464   44.2832 C   0  0  0  0  0  0  0  0  0  0  0  0
   57.7435   29.7706   45.6061 C   0  0  0  0  0  0  0  0  0  0  0  0
   57.5077   28.6225   46.2701 C   0  0  0  0  0  0  0  0  0  0  0  0
   58.3538   30.8620   46.1986 C   0  0  0  0  0  0  0  0  0  0  0  0
   58.3729   31.8749   45.2588 C   0  0  0  0  0  0  0  0  0  0  0  0
   57.8119   31.4506   44.1022 N   0  0  0  0  0  0  0  0  0  0  0  0
   57.6786   32.2333   42.8675 C   0  0  0  0  0  0  0  0  0  0  0  0
   58.4363   27.4849   46.3781 C   0  0  0  0  0  0  0  0  0  0  0  0
   59.7712   27.5959   46.5246 N   0  0  0  0  0  0  0  0  0  0  0  0
   60.2061   26.3249   46.3920 C   0  0  0  0  0  0  0  0  0  0  0  0
   61.4259   26.0142   46.4685 O   0  0  0  0  0  0  0  0  0  0  0  0
   59.2398   25.4184   46.1379 N   0  0  0  0  0  0  0  0  0  0  0  0
   58.1271   26.1734   46.1142 C   0  0  0  0  0  0  0  0  0  0  0  0
   56.8599   25.6725   45.8497 O   0  0  0  0  0  0  0  0  0  0  0  0
   63.0375   31.6451   49.8726 C   0  0  0  0  0  0  0  0  0  0  0  0
   61.9640   30.7570   50.4465 C   0  0  0  0  0  0  0  0  0  0  0  0
   61.1045   30.0484   49.5917 C   0  0  0  0  0  0  0  0  0  0  0  0
   60.1506   29.1800   50.1343 C   0  0  0  0  0  0  0  0  0  0  0  0
   60.0614   29.0211   51.4836 N   0  0  0  0  0  0  0  0  0  0  0  0
   60.8909   29.6879   52.3344 C   0  0  0  0  0  0  0  0  0  0  0  0
   61.8591   30.5649   51.8340 C   0  0  0  0  0  0  0  0  0  0  0  0
   59.3825   28.4110   51.8527 H   0  0  0  0  0  0  0  0  0  0  0  0
 11 12  2  0
 12 13  1  0
 13 14  2  0
 14 19  1  0
 19 20  1  0
 20 21  1  0
 21 22  2  0
 21 23  1  0
 23 24  1  0
 24 25  1  0
 13 15  1  0
 15 16  2  0
 16  1  1  0
  1  2  2  0
  1  3  1  0
  3  4  1  0
  4  5  1  0
  5  6  1  0
  6  7  1  0
  7  8  2  0
  7 26  1  0
 26 27  1  0
 27 28  2  0
 28 29  1  0
 29 30  2  0
 30 31  1  0
 31 32  2  0
  6  9  1  0
  9 10  1  0
 16 17  1  0
 17 18  1  0
 17 12  1  0
 24 19  2  0
 10  3  1  0
 32 27  1  0
 30 33  1  0
M  CHG 1  20  -1
M  CHG 1  23  -1
M  CHG 1  25  -1
M  CHG 1  30   1
M  END
> <UniqueID>
68

> <SMILES>
C=c1c(=Cc2[n-]c(=O)[n-]c2[O-])cc(C(=O)N2CCN(C(=O)Cc3cc[nH+]cc3)CC2)n1C

> <Energy>
132.81550091487256

> <Genealogy>
C=c1c(=Cc2[n-]c(=O)[n-]c2[O-])cc(C(=O)N2CCN(C(=O)Cc3cc[nH+]cc3)CC2)n1C (protonated)
C=c1c(=Cc2[n-]c(=O)[n-]c2[O-])cc(C(=O)N2CCN(C(=O)Cc3cc[nH+]cc3)CC2)n1C (3D coordinates assigned)
C=c1c(=Cc2[n-]c(=O)[n-]c2[O-])cc(C(=O)N2CCN(C(=O)Cc3cc[nH+]cc3)CC2)n1C (nonaromatic ring conformer: 132.81550091487256 kcal/mol)

> <smiles>
C=c1c(=Cc2[nH]c(=O)[nH]c2O)cc(C(=O)N2CCN(C(=O)Cc3ccncc3)CC2)n1C

> <score_type>
oracle

> <origin>
adg

> <m_score__min__energy>
-16.789999999999999

> <m_primary>
energy

> <minimizedAffinity>
-6.31701

> <minimizedRMSD>
2.12559

> <CNNscore>
0.0495332815

> <CNNaffinity>
6.0283989906

> <CNN_VS>
0.2986063957

> <CNNaffinity_variance>
0.4161020517

$$$$
69:0


 23 24  0  0  0  0  0  0  0  0999 V2000
   60.9572   26.7884   47.7267 O   0  0  0  0  0  0  0  0  0  0  0  0
   59.7233   27.0436   47.6967 C   0  0  0  0  0  0  0  0  0  0  0  0
   59.2030   28.1912   48.3818 N   0  0  0  0  0  0  0  0  0  0  0  0
   58.2345   28.3646   48.3467 H   0  0  0  0  0  0  0  0  0  0  0  0
   58.8099   26.1699   46.8887 C   0  0  0  0  0  0  0  0  0  0  0  0
   58.7933   26.5834   45.4105 C   0  0  0  0  0  0  0  0  0  0  0  0
   58.4693   28.0520   45.2382 C   0  0  0  0  0  0  0  0  0  0  0  0
   57.1403   28.5148   45.2742 C   0  0  0  0  0  0  0  0  0  0  0  0
   56.0874   27.6382   45.5026 O   0  0  0  0  0  0  0  0  0  0  0  0
   56.8750   29.8323   45.0799 N   0  0  0  0  0  0  0  0  0  0  0  0
   57.8712   30.7212   44.8421 C   0  0  0  0  0  0  0  0  0  0  0  0
   57.5990   31.9377   44.6662 O   0  0  0  0  0  0  0  0  0  0  0  0
   59.1596   30.3016   44.7918 N   0  0  0  0  0  0  0  0  0  0  0  0
   59.4813   28.9947   44.9795 C   0  0  0  0  0  0  0  0  0  0  0  0
   60.6884   28.6435   44.9192 O   0  0  0  0  0  0  0  0  0  0  0  0
   60.0543   29.1122   49.1294 C   0  0  0  0  0  0  0  0  0  0  0  0
   60.0095   30.4827   48.5125 C   0  0  0  0  0  0  0  0  0  0  0  0
   61.1175   30.9690   47.7996 C   0  0  0  0  0  0  0  0  0  0  0  0
   61.0753   32.2339   47.2073 C   0  0  0  0  0  0  0  0  0  0  0  0
   59.9241   33.0216   47.3159 C   0  0  0  0  0  0  0  0  0  0  0  0
   59.8667   34.7493   46.5041 Br  0  0  0  0  0  0  0  0  0  0  0  0
   58.8142   32.5417   48.0202 C   0  0  0  0  0  0  0  0  0  0  0  0
   58.8549   31.2763   48.6151 C   0  0  0  0  0  0  0  0  0  0  0  0
  1  2  2  0
  2  5  1  0
  5  6  1  0
  6  7  1  0
  7  8  2  0
  8  9  1  0
  8 10  1  0
 10 11  1  0
 11 12  2  0
 11 13  1  0
 13 14  1  0
 14 15  2  0
  2  3  1  0
  3 16  1  0
 16 17  1  0
 17 18  2  0
 18 19  1  0
 19 20  2  0
 20 21  1  0
 20 22  1  0
 22 23  2  0
 14  7  1  0
 23 17  1  0
  3  4  1  0
M  CHG 1   9  -1
M  CHG 1  10  -1
M  CHG 1  13  -1
M  END
> <UniqueID>
70

> <SMILES>
O=C(CCc1c([O-])[n-]c(=O)[n-]c1=O)NCc1ccc(Br)cc1

> <Energy>
29.157517075916118

> <Genealogy>
O=C(CCc1c([O-])[n-]c(=O)[n-]c1=O)NCc1ccc(Br)cc1 (protonated)
O=C(CCc1c([O-])[n-]c(=O)[n-]c1=O)NCc1ccc(Br)cc1 (3D coordinates assigned)
O=C(CCc1c([O-])[n-]c(=O)[n-]c1=O)NCc1ccc(Br)cc1 (optimized conformer: 29.157517075916118 kcal/mol)

> <smiles>
O=C(CCc1c(O)[nH]c(=O)[nH]c1=O)NCc1ccc(Br)cc1

> <score_type>
oracle

> <origin>
adg

> <m_score__min__energy>
-15.66

> <m_primary>
energy

> <minimizedAffinity>
-5.55992

> <minimizedRMSD>
1.14336

> <CNNscore>
0.6369070411

> <CNNaffinity>
6.7652049065

> <CNN_VS>
4.3088064194

> <CNNaffinity_variance>
0.8529470563

$$$$
2:0


 26 28  0  0  0  0  0  0  0  0999 V2000
   54.4835   27.8801   53.7642 C   0  0  0  0  0  0  0  0  0  0  0  0
   55.2851   28.9189   53.4729 C   0  0  0  0  0  0  0  0  0  0  0  0
   54.8804   30.1585   52.9545 C   0  0  0  0  0  0  0  0  0  0  0  0
   53.6597   30.7154   52.8382 C   0  0  0  0  0  0  0  0  0  0  0  0
   56.0353   30.8005   52.5502 C   0  0  0  0  0  0  0  0  0  0  0  0
   57.0980   29.9856   52.8884 C   0  0  0  0  0  0  0  0  0  0  0  0
   56.6446   28.8476   53.4807 N   0  0  0  0  0  0  0  0  0  0  0  0
   52.8362   30.7335   51.6180 C   0  0  0  0  0  0  0  0  0  0  0  0
   52.9168   29.8271   50.6242 N   0  0  0  0  0  0  0  0  0  0  0  0
   51.8950   30.1689   49.8096 C   0  0  0  0  0  0  0  0  0  0  0  0
   51.6463   29.5526   48.7403 O   0  0  0  0  0  0  0  0  0  0  0  0
   51.1547   31.2144   50.2343 N   0  0  0  0  0  0  0  0  0  0  0  0
   51.7577   31.5497   51.3871 C   0  0  0  0  0  0  0  0  0  0  0  0
   51.3245   32.5784   52.2151 O   0  0  0  0  0  0  0  0  0  0  0  0
   58.5078   30.3359   52.5954 C   0  0  0  0  0  0  0  0  0  0  0  0
   59.1397   31.1423   53.3281 O   0  0  0  0  0  0  0  0  0  0  0  0
   59.1453   29.7629   51.4458 N   0  0  0  0  0  0  0  0  0  0  0  0
   59.2901   30.3718   50.1538 C   0  0  0  0  0  0  0  0  0  0  0  0
   59.1619   29.6330   48.9621 C   0  0  0  0  0  0  0  0  0  0  0  0
   59.2878   30.2705   47.7229 C   0  0  0  0  0  0  0  0  0  0  0  0
   59.5262   31.6458   47.6635 C   0  0  0  0  0  0  0  0  0  0  0  0
   59.6302   32.3901   48.8422 C   0  0  0  0  0  0  0  0  0  0  0  0
   59.9139   34.1188   48.7669 Cl  0  0  0  0  0  0  0  0  0  0  0  0
   59.5046   31.7544   50.0826 C   0  0  0  0  0  0  0  0  0  0  0  0
   57.4599   27.7252   53.9723 C   0  0  0  0  0  0  0  0  0  0  0  0
   57.8965   27.9640   55.4123 C   0  0  0  0  0  0  0  0  0  0  0  0
  1  2  2  0
  2  3  1  0
  3  4  2  0
  4  8  1  0
  8  9  1  0
  9 10  1  0
 10 11  2  0
 10 12  1  0
 12 13  1  0
 13 14  1  0
  3  5  1  0
  5  6  2  0
  6 15  1  0
 15 16  2  0
 15 17  1  0
 17 18  1  0
 18 19  2  0
 19 20  1  0
 20 21  2  0
 21 22  1  0
 22 23  1  0
 22 24  2  0
  6  7  1  0
  7 25  1  0
 25 26  1  0
  7  2  1  0
 13  8  2  0
 24 18  1  0
M  CHG 1   9  -1
M  CHG 1  12  -1
M  CHG 1  14  -1
M  CHG 1  17  -1
M  END
> <UniqueID>
3

> <SMILES>
C=c1c(=Cc2[n-]c(=O)[n-]c2[O-])cc(C(=O)[N-]c2cccc(Cl)c2)n1CC

> <Energy>
113.68576675232666

> <Genealogy>
C=c1c(=Cc2[n-]c(=O)[n-]c2[O-])cc(C(=O)[N-]c2cccc(Cl)c2)n1CC (protonated)
C=c1c(=Cc2[n-]c(=O)[n-]c2[O-])cc(C(=O)[N-]c2cccc(Cl)c2)n1CC (3D coordinates assigned)
C=c1c(=Cc2[n-]c(=O)[n-]c2[O-])cc(C(=O)[N-]c2cccc(Cl)c2)n1CC (optimized conformer: 113.68576675232666 kcal/mol)

> <smiles>
C=c1c(=Cc2[nH]c(=O)[nH]c2O)cc(C(=O)Nc2cccc(Cl)c2)n1CC

> <score_type>
oracle

> <origin>
adg

> <m_score__min__energy>
-17.850000000000001

> <m_primary>
energy

> <minimizedAffinity>
-5.32482

> <minimizedRMSD>
0.89363

> <CNNscore>
0.2483361363

> <CNNaffinity>
5.5305581093

> <CNN_VS>
1.3734374046

> <CNNaffinity_variance>
0.0872642323

$$$$
56:0


 36 39  0  0  0  0  0  0  0  0999 V2000
   58.3731   29.9143   46.5645 C   0  0  0  0  0  0  0  0  0  0  0  0
   57.4418   30.1714   45.5715 C   0  0  0  0  0  0  0  0  0  0  0  0
   56.5207   29.2477   45.0947 O   0  0  0  0  0  0  0  0  0  0  0  0
   57.5249   31.4392   45.1040 N   0  0  0  0  0  0  0  0  0  0  0  0
   58.5476   31.9758   45.7974 C   0  0  0  0  0  0  0  0  0  0  0  0
   59.0454   33.2709   45.6772 C   0  0  0  0  0  0  0  0  0  0  0  0
   60.1436   33.6351   46.4757 C   0  0  0  0  0  0  0  0  0  0  0  0
   60.7304   32.7021   47.3664 C   0  0  0  0  0  0  0  0  0  0  0  0
   60.1989   31.4019   47.4724 C   0  0  0  0  0  0  0  0  0  0  0  0
   59.1014   31.0773   46.6744 C   0  0  0  0  0  0  0  0  0  0  0  0
   56.8563   24.3153   47.2414 C   0  0  0  0  0  0  0  0  0  0  0  0
   57.4541   25.4092   46.7592 C   0  0  0  0  0  0  0  0  0  0  0  0
   57.7255   26.4891   47.5157 N   0  0  0  0  0  0  0  0  0  0  0  0
   58.2844   27.4225   46.7168 C   0  0  0  0  0  0  0  0  0  0  0  0
   58.6550   28.6225   47.2018 C   0  0  0  0  0  0  0  0  0  0  0  0
   58.3959   26.9183   45.4099 C   0  0  0  0  0  0  0  0  0  0  0  0
   57.8753   25.6223   45.4529 C   0  0  0  0  0  0  0  0  0  0  0  0
   57.5480   26.5816   48.4796 H   0  0  0  0  0  0  0  0  0  0  0  0
   59.1492   27.4982   44.2351 C   0  0  0  0  0  0  0  0  0  0  0  0
   60.4160   28.2055   44.6996 C   0  0  0  0  0  0  0  0  0  0  0  0
   57.7686   24.6637   44.2904 C   0  0  0  0  0  0  0  0  0  0  0  0
   56.3220   24.2258   44.0544 C   0  0  0  0  0  0  0  0  0  0  0  0
   56.2146   22.7448   43.8637 C   0  0  0  0  0  0  0  0  0  0  0  0
   56.4056   22.2345   42.7294 O   0  0  0  0  0  0  0  0  0  0  0  0
   55.8579   21.9319   44.9329 O   0  0  0  0  0  0  0  0  0  0  0  0
   62.1113   33.1774   48.3508 S   0  0  0  0  0  0  0  0  0  0  0  0
   63.3531   33.2151   47.5014 O   0  0  0  0  0  0  0  0  0  0  0  0
   61.8655   34.5605   48.8906 O   0  0  0  0  0  0  0  0  0  0  0  0
   62.3138   32.0524   49.6719 N   0  0  0  0  0  0  0  0  0  0  0  0
   61.5134   32.4920   50.8272 C   0  0  0  0  0  0  0  0  0  0  0  0
   61.5613   31.4367   51.9487 C   0  0  0  0  0  0  0  0  0  0  0  0
   62.8976   30.8085   52.1142 N   0  0  0  0  0  0  0  0  0  0  0  0
   62.9240   29.4039   51.6623 C   0  0  0  0  0  0  0  0  0  0  0  0
   63.9907   31.5957   51.5117 C   0  0  0  0  0  0  0  0  0  0  0  0
   63.7515   31.9038   50.0161 C   0  0  0  0  0  0  0  0  0  0  0  0
   61.9773   31.1323   49.3879 H   0  0  0  0  0  0  0  0  0  0  0  0
 11 12  2  0
 12 13  1  0
 13 14  1  0
 14 15  2  0
 15  1  1  0
  1  2  2  0
  2  3  1  0
  2  4  1  0
  4  5  1  0
  5  6  2  0
  6  7  1  0
  7  8  2  0
  8 26  1  0
 26 27  2  0
 26 28  2  0
 26 29  1  0
 29 30  1  0
 30 31  1  0
 31 32  1  0
 32 33  1  0
 32 34  1  0
 34 35  1  0
  8  9  1  0
  9 10  2  0
 14 16  1  0
 16 19  1  0
 19 20  1  0
 16 17  2  0
 17 21  1  0
 21 22  1  0
 22 23  1  0
 23 24  2  0
 23 25  1  0
 17 12  1  0
 10  1  1  0
 10  5  1  0
 35 29  1  0
 13 18  1  0
 29 36  1  0
M  CHG 1   3  -1
M  CHG 1   4  -1
M  CHG 1  25  -1
M  CHG 1  29   1
M  END
> <UniqueID>
54

> <SMILES>
C=c1[nH]c(=Cc2c([O-])[n-]c3ccc(S(=O)(=O)[NH+]4CCN(C)CC4)cc23)c(CC)c1CCC(=O)[O-]

> <Energy>
134.9305812939377

> <Genealogy>
C=c1[nH]c(=Cc2c([O-])[n-]c3ccc(S(=O)(=O)[NH+]4CCN(C)CC4)cc23)c(CC)c1CCC(=O)[O-] (protonated)
C=c1[nH]c(=Cc2c([O-])[n-]c3ccc(S(=O)(=O)[NH+]4CCN(C)CC4)cc23)c(CC)c1CCC(=O)[O-] (3D coordinates assigned)
C=c1[nH]c(=Cc2c([O-])[n-]c3ccc(S(=O)(=O)[NH+]4CCN(C)CC4)cc23)c(CC)c1CCC(=O)[O-] (nonaromatic ring conformer: 134.9305812939377 kcal/mol)

> <smiles>
C=c1[nH]c(=Cc2c(O)[nH]c3ccc(S(=O)(=O)N4CCN(C)CC4)cc23)c(CC)c1CCC(=O)O

> <score_type>
oracle

> <origin>
adg

> <m_score__min__energy>
-14.92

> <m_primary>
energy

> <minimizedAffinity>
-7.81215

> <minimizedRMSD>
1.53109

> <CNNscore>
0.2631307840

> <CNNaffinity>
6.9081840515

> <CNN_VS>
1.8177559376

> <CNNaffinity_variance>
0.0433382541

$$$$
77:0


 31 33  0  0  0  0  0  0  0  0999 V2000
   60.5846   26.4688   46.3048 C   0  0  0  0  0  0  0  0  0  0  0  0
   59.4026   27.0646   46.0729 C   0  0  0  0  0  0  0  0  0  0  0  0
   58.1676   26.4191   45.9120 C   0  0  0  0  0  0  0  0  0  0  0  0
   57.7947   25.1474   46.1557 C   0  0  0  0  0  0  0  0  0  0  0  0
   57.2945   27.3719   45.4254 C   0  0  0  0  0  0  0  0  0  0  0  0
   57.9800   28.5693   45.3713 C   0  0  0  0  0  0  0  0  0  0  0  0
   59.2657   28.3898   45.7830 N   0  0  0  0  0  0  0  0  0  0  0  0
   56.9816   24.3059   45.2626 C   0  0  0  0  0  0  0  0  0  0  0  0
   57.4758   23.3801   44.4201 N   0  0  0  0  0  0  0  0  0  0  0  0
   56.3677   22.7853   43.9267 C   0  0  0  0  0  0  0  0  0  0  0  0
   56.4175   21.8567   43.0799 O   0  0  0  0  0  0  0  0  0  0  0  0
   55.2031   23.2549   44.4224 N   0  0  0  0  0  0  0  0  0  0  0  0
   55.6121   24.2081   45.2769 C   0  0  0  0  0  0  0  0  0  0  0  0
   54.7494   24.9762   46.0490 O   0  0  0  0  0  0  0  0  0  0  0  0
   57.3969   29.8308   44.8476 C   0  0  0  0  0  0  0  0  0  0  0  0
   56.1617   30.0514   44.9541 O   0  0  0  0  0  0  0  0  0  0  0  0
   58.2393   30.8285   44.2504 N   0  0  0  0  0  0  0  0  0  0  0  0
   59.1274   30.5662   43.9160 H   0  0  0  0  0  0  0  0  0  0  0  0
   57.8173   32.2214   44.1245 C   0  0  0  0  0  0  0  0  0  0  0  0
   58.3946   33.0361   45.2504 C   0  0  0  0  0  0  0  0  0  0  0  0
   59.0823   34.2300   44.9730 C   0  0  0  0  0  0  0  0  0  0  0  0
   59.6673   34.9640   46.0093 C   0  0  0  0  0  0  0  0  0  0  0  0
   59.5792   34.5062   47.3279 C   0  0  0  0  0  0  0  0  0  0  0  0
   58.9052   33.3143   47.6104 C   0  0  0  0  0  0  0  0  0  0  0  0
   58.3160   32.5799   46.5770 C   0  0  0  0  0  0  0  0  0  0  0  0
   60.3149   29.4219   45.8245 C   0  0  0  0  0  0  0  0  0  0  0  0
   60.5795   29.8667   47.2353 C   0  0  0  0  0  0  0  0  0  0  0  0
   61.3911   30.8074   47.4501 O   0  0  0  0  0  0  0  0  0  0  0  0
   59.8874   29.2681   48.3348 N   0  0  0  0  0  0  0  0  0  0  0  0
   58.6084   29.8242   48.7725 C   0  0  0  0  0  0  0  0  0  0  0  0
   60.5989   28.3111   49.1808 C   0  0  0  0  0  0  0  0  0  0  0  0
  1  2  2  0
  2  3  1  0
  3  4  2  0
  4  8  1  0
  8  9  1  0
  9 10  1  0
 10 11  2  0
 10 12  1  0
 12 13  1  0
 13 14  1  0
  3  5  1  0
  5  6  2  0
  6 15  1  0
 15 16  2  0
 15 17  1  0
 17 19  1  0
 19 20  1  0
 20 21  2  0
 21 22  1  0
 22 23  2  0
 23 24  1  0
 24 25  2  0
  6  7  1  0
  7 26  1  0
 26 27  1  0
 27 28  2  0
 27 29  1  0
 29 30  1  0
 29 31  1  0
  7  2  1  0
 13  8  2  0
 25 20  1  0
 17 18  1  0
M  CHG 1   9  -1
M  CHG 1  12  -1
M  CHG 1  14  -1
M  END
> <UniqueID>
73

> <SMILES>
C=c1c(=Cc2[n-]c(=O)[n-]c2[O-])cc(C(=O)NCc2ccccc2)n1CC(=O)N(C)C

> <Energy>
122.77754410421838

> <Genealogy>
C=c1c(=Cc2[n-]c(=O)[n-]c2[O-])cc(C(=O)NCc2ccccc2)n1CC(=O)N(C)C (protonated)
C=c1c(=Cc2[n-]c(=O)[n-]c2[O-])cc(C(=O)NCc2ccccc2)n1CC(=O)N(C)C (3D coordinates assigned)
C=c1c(=Cc2[n-]c(=O)[n-]c2[O-])cc(C(=O)NCc2ccccc2)n1CC(=O)N(C)C (optimized conformer: 122.77754410421838 kcal/mol)

> <smiles>
C=c1c(=Cc2[nH]c(=O)[nH]c2O)cc(C(=O)NCc2ccccc2)n1CC(=O)N(C)C

> <score_type>
oracle

> <origin>
adg

> <m_score__min__energy>
-17.199999999999999

> <m_primary>
energy

> <minimizedAffinity>
-9.12704

> <minimizedRMSD>
0.93947

> <CNNscore>
0.2526879013

> <CNNaffinity>
6.5172576904

> <CNN_VS>
1.6468321085

> <CNNaffinity_variance>
0.0663763061

$$$$
81:0


 32 35  0  0  0  0  0  0  0  0999 V2000
   59.7747   28.8085   45.6453 N   0  0  0  0  0  0  0  0  0  0  0  0
   60.0444   28.7327   46.9158 C   0  0  0  0  0  0  0  0  0  0  0  0
   60.1206   27.4748   47.5253 C   0  0  0  0  0  0  0  0  0  0  0  0
   60.4225   27.3869   48.8861 C   0  0  0  0  0  0  0  0  0  0  0  0
   60.6368   28.5485   49.6267 C   0  0  0  0  0  0  0  0  0  0  0  0
   60.5297   29.7947   48.9958 C   0  0  0  0  0  0  0  0  0  0  0  0
   60.2547   29.8530   47.6655 N   0  0  0  0  0  0  0  0  0  0  0  0
   60.7857   31.0385   49.7363 C   0  0  0  0  0  0  0  0  0  0  0  0
   60.6982   30.9898   50.9922 O   0  0  0  0  0  0  0  0  0  0  0  0
   61.1083   32.2891   49.0695 N   0  0  0  0  0  0  0  0  0  0  0  0
   62.4133   32.9414   49.2323 C   0  0  0  0  0  0  0  0  0  0  0  0
   63.1523   32.8884   47.8973 C   0  0  0  0  0  0  0  0  0  0  0  0
   62.3652   33.6445   46.8131 C   0  0  0  0  0  0  0  0  0  0  0  0
   60.8677   33.4258   46.8871 C   0  0  0  0  0  0  0  0  0  0  0  0
   60.0583   33.9304   45.8582 C   0  0  0  0  0  0  0  0  0  0  0  0
   58.6672   33.8561   45.9503 C   0  0  0  0  0  0  0  0  0  0  0  0
   58.0712   33.3045   47.0842 C   0  0  0  0  0  0  0  0  0  0  0  0
   58.8616   32.8009   48.1199 C   0  0  0  0  0  0  0  0  0  0  0  0
   60.2668   32.8231   48.0204 C   0  0  0  0  0  0  0  0  0  0  0  0
   57.7856   29.1653   44.4354 O   0  0  0  0  0  0  0  0  0  0  0  0
   58.5802   28.3545   44.9873 C   0  0  0  0  0  0  0  0  0  0  0  0
   58.3052   26.8909   44.9126 C   0  0  0  0  0  0  0  0  0  0  0  0
   57.1194   26.5863   45.7089 N   0  0  0  0  0  0  0  0  0  0  0  0
   57.2622   24.9974   46.3952 S   0  0  0  0  0  0  0  0  0  0  0  0
   56.1785   24.8036   47.4195 O   0  0  0  0  0  0  0  0  0  0  0  0
   58.6012   24.8613   47.0676 O   0  0  0  0  0  0  0  0  0  0  0  0
   57.0877   23.7772   45.1379 C   0  0  0  0  0  0  0  0  0  0  0  0
   57.9798   22.6982   45.0623 C   0  0  0  0  0  0  0  0  0  0  0  0
   57.8354   21.7351   44.0582 C   0  0  0  0  0  0  0  0  0  0  0  0
   56.7965   21.8459   43.1279 C   0  0  0  0  0  0  0  0  0  0  0  0
   55.9017   22.9168   43.2020 C   0  0  0  0  0  0  0  0  0  0  0  0
   56.0442   23.8803   44.2065 C   0  0  0  0  0  0  0  0  0  0  0  0
 20 21  2  0
 21 22  1  0
 22 23  1  0
 23 24  1  0
 24 25  2  0
 24 26  2  0
 24 27  1  0
 27 28  2  0
 28 29  1  0
 29 30  2  0
 30 31  1  0
 31 32  2  0
 21  1  1  0
  1  2  2  0
  2  3  1  0
  3  4  2  0
  4  5  1  0
  5  6  2  0
  6  8  1  0
  8  9  2  0
  8 10  1  0
 10 11  1  0
 11 12  1  0
 12 13  1  0
 13 14  1  0
 14 15  2  0
 15 16  1  0
 16 17  2  0
 17 18  1  0
 18 19  2  0
  6  7  1  0
 32 27  1  0
  7  2  1  0
 19 10  1  0
 19 14  1  0
M  CHG 1   7  -1
M  CHG 1  23  -1
M  END
> <UniqueID>
77

> <SMILES>
O=C(C[N-]S(=O)(=O)c1ccccc1)N=c1cccc(C(=O)N2CCCc3ccccc32)[n-]1

> <Energy>
70.70758417473053

> <Genealogy>
O=C(C[N-]S(=O)(=O)c1ccccc1)N=c1cccc(C(=O)N2CCCc3ccccc32)[n-]1 (protonated)
O=C(C[N-]S(=O)(=O)c1ccccc1)N=c1cccc(C(=O)N2CCCc3ccccc32)[n-]1 (3D coordinates assigned)
O=C(C[N-]S(=O)(=O)c1ccccc1)N=c1cccc(C(=O)N2CCCc3ccccc32)[n-]1 (nonaromatic ring conformer: 70.70758417473053 kcal/mol)

> <smiles>
O=C(CNS(=O)(=O)c1ccccc1)N=c1cccc(C(=O)N2CCCc3ccccc32)[nH]1

> <score_type>
oracle

> <origin>
adg

> <m_score__min__energy>
-14.15

> <m_primary>
energy

> <minimizedAffinity>
-9.08715

> <minimizedRMSD>
1.44839

> <CNNscore>
0.8855118752

> <CNNaffinity>
7.1012597084

> <CNN_VS>
6.2882499695

> <CNNaffinity_variance>
0.0117667513

$$$$
83:0


 27 29  0  0  0  0  0  0  0  0999 V2000
   58.8125   31.3150   45.9801 C   0  0  0  0  0  0  0  0  0  0  0  0
   58.2144   32.4593   45.4305 C   0  0  0  0  0  0  0  0  0  0  0  0
   58.7893   33.7188   45.6198 C   0  0  0  0  0  0  0  0  0  0  0  0
   59.9603   33.8490   46.3697 C   0  0  0  0  0  0  0  0  0  0  0  0
   60.5619   32.7198   46.9369 C   0  0  0  0  0  0  0  0  0  0  0  0
   59.9830   31.4558   46.7510 C   0  0  0  0  0  0  0  0  0  0  0  0
   59.9819   28.9719   44.7405 O   0  0  0  0  0  0  0  0  0  0  0  0
   58.8947   28.8550   45.3706 C   0  0  0  0  0  0  0  0  0  0  0  0
   58.1884   30.0335   45.7950 N   0  0  0  0  0  0  0  0  0  0  0  0
   57.2223   29.9583   45.9687 H   0  0  0  0  0  0  0  0  0  0  0  0
   58.3378   27.5038   45.6191 C   0  0  0  0  0  0  0  0  0  0  0  0
   56.9526   27.3060   45.7613 C   0  0  0  0  0  0  0  0  0  0  0  0
   56.4575   26.0227   46.0035 C   0  0  0  0  0  0  0  0  0  0  0  0
   55.0911   25.8186   46.1450 O   0  0  0  0  0  0  0  0  0  0  0  0
   57.3104   24.9689   46.1046 N   0  0  0  0  0  0  0  0  0  0  0  0
   58.6545   25.1262   45.9808 C   0  0  0  0  0  0  0  0  0  0  0  0
   59.4127   24.1268   46.0834 O   0  0  0  0  0  0  0  0  0  0  0  0
   59.1933   26.3944   45.7405 C   0  0  0  0  0  0  0  0  0  0  0  0
   62.0169   32.9065   47.9126 S   0  0  0  0  0  0  0  0  0  0  0  0
   62.9883   33.7729   47.1587 O   0  0  0  0  0  0  0  0  0  0  0  0
   62.6524   31.5624   48.1417 O   0  0  0  0  0  0  0  0  0  0  0  0
   61.5931   33.6573   49.4367 N   0  0  0  0  0  0  0  0  0  0  0  0
   60.1310   33.8476   49.5713 C   0  0  0  0  0  0  0  0  0  0  0  0
   59.4646   32.7565   50.4291 C   0  0  0  0  0  0  0  0  0  0  0  0
   60.1428   31.5309   50.2743 O   0  0  0  0  0  0  0  0  0  0  0  0
   61.4279   31.6023   50.8680 C   0  0  0  0  0  0  0  0  0  0  0  0
   62.1691   32.9307   50.5805 C   0  0  0  0  0  0  0  0  0  0  0  0
  7  8  2  0
  8  9  1  0
  9  1  1  0
  1  2  2  0
  2  3  1  0
  3  4  2  0
  4  5  1  0
  5 19  1  0
 19 20  2  0
 19 21  2  0
 19 22  1  0
 22 23  1  0
 23 24  1  0
 24 25  1  0
 25 26  1  0
 26 27  1  0
  5  6  2  0
  8 11  1  0
 11 12  1  0
 12 13  2  0
 13 14  1  0
 13 15  1  0
 15 16  1  0
 16 17  2  0
 16 18  1  0
  6  1  1  0
 18 11  2  0
 27 22  1  0
  9 10  1  0
M  CHG 1  14  -1
M  CHG 1  15  -1
M  END
> <UniqueID>
79

> <SMILES>
O=C(Nc1cccc(S(=O)(=O)N2CCOCC2)c1)c1cc([O-])[n-]c(=O)c1

> <Energy>
59.894924089906496

> <Genealogy>
O=C(Nc1cccc(S(=O)(=O)N2CCOCC2)c1)c1cc([O-])[n-]c(=O)c1 (protonated)
O=C(Nc1cccc(S(=O)(=O)N2CCOCC2)c1)c1cc([O-])[n-]c(=O)c1 (3D coordinates assigned)
O=C(Nc1cccc(S(=O)(=O)N2CCOCC2)c1)c1cc([O-])[n-]c(=O)c1 (nonaromatic ring conformer: 59.894924089906496 kcal/mol)

> <smiles>
O=C(Nc1cccc(S(=O)(=O)N2CCOCC2)c1)c1cc(O)[nH]c(=O)c1

> <score_type>
oracle

> <origin>
adg

> <m_score__min__energy>
-14.25

> <m_primary>
energy

> <minimizedAffinity>
-7.83832

> <minimizedRMSD>
0.98748

> <CNNscore>
0.3507492542

> <CNNaffinity>
6.2092227936

> <CNN_VS>
2.1778802872

> <CNNaffinity_variance>
0.2717170417

$$$$
0:0


 30 33  0  0  0  0  0  0  0  0999 V2000
   56.5871   30.3646   55.7588 C   0  0  0  0  0  0  0  0  0  0  0  0
   55.9909   30.0967   54.5929 C   0  0  0  0  0  0  0  0  0  0  0  0
   56.6081   29.8361   53.3667 C   0  0  0  0  0  0  0  0  0  0  0  0
   55.5738   29.7033   52.4477 C   0  0  0  0  0  0  0  0  0  0  0  0
   54.3926   29.8724   53.1440 C   0  0  0  0  0  0  0  0  0  0  0  0
   53.1703   29.8612   52.5842 C   0  0  0  0  0  0  0  0  0  0  0  0
   54.6509   30.1089   54.4486 N   0  0  0  0  0  0  0  0  0  0  0  0
   53.9866   30.2614   55.1590 H   0  0  0  0  0  0  0  0  0  0  0  0
   52.0361   30.6491   53.0871 C   0  0  0  0  0  0  0  0  0  0  0  0
   51.5772   30.5626   54.3480 N   0  0  0  0  0  0  0  0  0  0  0  0
   50.5873   31.4774   54.3826 C   0  0  0  0  0  0  0  0  0  0  0  0
   49.9043   31.6934   55.4199 O   0  0  0  0  0  0  0  0  0  0  0  0
   50.3956   32.1495   53.2247 N   0  0  0  0  0  0  0  0  0  0  0  0
   51.3295   31.6225   52.4212 C   0  0  0  0  0  0  0  0  0  0  0  0
   51.5675   32.0680   51.1314 O   0  0  0  0  0  0  0  0  0  0  0  0
   58.0722   29.6908   53.0969 C   0  0  0  0  0  0  0  0  0  0  0  0
   58.6821   28.7083   53.6131 O   0  0  0  0  0  0  0  0  0  0  0  0
   58.8059   30.5538   52.1889 N   0  0  0  0  0  0  0  0  0  0  0  0
   57.9589   31.5989   51.5425 C   0  0  0  0  0  0  0  0  0  0  0  0
   58.2544   31.8047   50.0451 C   0  0  0  0  0  0  0  0  0  0  0  0
   59.6967   31.7204   49.7891 N   0  0  0  0  0  0  0  0  0  0  0  0
   60.3508   32.6958   48.9733 C   0  0  0  0  0  0  0  0  0  0  0  0
   61.1736   33.4920   49.5035 O   0  0  0  0  0  0  0  0  0  0  0  0
   60.4923   30.6477   50.3898 C   0  0  0  0  0  0  0  0  0  0  0  0
   59.6062   29.7433   51.2525 C   0  0  0  0  0  0  0  0  0  0  0  0
   59.5130   31.1556   51.8617 H   0  0  0  0  0  0  0  0  0  0  0  0
   60.0355   32.8294   47.5012 C   0  0  0  0  0  0  0  0  0  0  0  0
   58.8838   33.8062   47.2296 C   0  0  0  0  0  0  0  0  0  0  0  0
   59.8138   34.6761   46.3982 C   0  0  0  0  0  0  0  0  0  0  0  0
   60.9765   33.7332   46.6973 C   0  0  0  0  0  0  0  0  0  0  0  0
  1  2  2  0
  2  3  1  0
  3 16  1  0
 16 17  2  0
 16 18  1  0
 18 19  1  0
 19 20  1  0
 20 21  1  0
 21 22  1  0
 22 23  2  0
 22 27  1  0
 27 28  1  0
 28 29  1  0
 29 30  1  0
 21 24  1  0
 24 25  1  0
  3  4  2  0
  4  5  1  0
  5  6  2  0
  6  9  1  0
  9 10  1  0
 10 11  1  0
 11 12  2  0
 11 13  1  0
 13 14  1  0
 14 15  1  0
  5  7  1  0
  7  2  1  0
 25 18  1  0
 14  9  2  0
 30 27  1  0
 18 26  1  0
  7  8  1  0
M  CHG 1  10  -1
M  CHG 1  13  -1
M  CHG 1  15  -1
M  CHG 1  18   1
M  END
> <UniqueID>
1

> <SMILES>
C=c1[nH]/c(=C\c2[n-]c(=O)[n-]c2[O-])cc1C(=O)[NH+]1CCN(C(=O)C2CCC2)CC1

> <Energy>
190.85117983788047

> <Genealogy>
C=c1[nH]c(=Cc2[n-]c(=O)[n-]c2[O-])cc1C(=O)[NH+]1CCN(C(=O)C2CCC2)CC1 (protonated)
C=c1[nH]/c(=C\c2[n-]c(=O)[n-]c2[O-])cc1C(=O)[NH+]1CCN(C(=O)C2CCC2)CC1 (cis-trans isomerization)
C=c1[nH]/c(=C\c2[n-]c(=O)[n-]c2[O-])cc1C(=O)[NH+]1CCN(C(=O)C2CCC2)CC1 (3D coordinates assigned)
C=c1[nH]/c(=C\c2[n-]c(=O)[n-]c2[O-])cc1C(=O)[NH+]1CCN(C(=O)C2CCC2)CC1 (nonaromatic ring conformer: 190.85117983788047 kcal/mol)

> <smiles>
C=c1[nH]c(=Cc2[nH]c(=O)[nH]c2O)cc1C(=O)N1CCN(C(=O)C2CCC2)CC1

> <score_type>
oracle

> <origin>
adg

> <m_score__min__energy>
-16.68

> <m_primary>
energy

> <minimizedAffinity>
-6.80915

> <minimizedRMSD>
0.88408

> <CNNscore>
0.1906863302

> <CNNaffinity>
5.5555362701

> <CNN_VS>
1.0593647957

> <CNNaffinity_variance>
0.0528750010

$$$$
16:0


 31 34  0  0  0  0  0  0  0  0999 V2000
   57.8030   29.5824   53.9094 C   0  0  0  0  0  0  0  0  0  0  0  0
   58.4145   29.8106   54.9887 O   0  0  0  0  0  0  0  0  0  0  0  0
   58.5256   29.6023   52.6632 N   0  0  0  0  0  0  0  0  0  0  0  0
   59.9463   29.2226   52.6602 C   0  0  0  0  0  0  0  0  0  0  0  0
   60.4901   29.0927   51.2352 C   0  0  0  0  0  0  0  0  0  0  0  0
   60.1162   30.2718   50.4468 N   0  0  0  0  0  0  0  0  0  0  0  0
   58.7715   30.8483   50.5492 C   0  0  0  0  0  0  0  0  0  0  0  0
   57.8509   29.9753   51.4100 C   0  0  0  0  0  0  0  0  0  0  0  0
   53.5190   27.4183   54.5237 C   0  0  0  0  0  0  0  0  0  0  0  0
   54.4202   28.3418   54.1506 C   0  0  0  0  0  0  0  0  0  0  0  0
   54.1636   29.6753   53.7938 C   0  0  0  0  0  0  0  0  0  0  0  0
   53.0076   30.3142   53.5283 C   0  0  0  0  0  0  0  0  0  0  0  0
   55.3976   30.2992   53.7264 C   0  0  0  0  0  0  0  0  0  0  0  0
   56.3505   29.3314   53.9557 C   0  0  0  0  0  0  0  0  0  0  0  0
   55.7616   28.1407   54.2217 N   0  0  0  0  0  0  0  0  0  0  0  0
   56.4321   26.9184   54.6846 C   0  0  0  0  0  0  0  0  0  0  0  0
   52.3890   30.4452   52.1996 C   0  0  0  0  0  0  0  0  0  0  0  0
   52.6199   29.6207   51.1621 N   0  0  0  0  0  0  0  0  0  0  0  0
   51.9524   30.2057   50.1436 C   0  0  0  0  0  0  0  0  0  0  0  0
   51.9160   29.7156   48.9855 O   0  0  0  0  0  0  0  0  0  0  0  0
   51.3365   31.3644   50.4632 N   0  0  0  0  0  0  0  0  0  0  0  0
   51.6339   31.5078   51.7641 C   0  0  0  0  0  0  0  0  0  0  0  0
   51.2293   32.5889   52.5369 O   0  0  0  0  0  0  0  0  0  0  0  0
   61.0654   30.8686   49.5489 C   0  0  0  0  0  0  0  0  0  0  0  0
   62.1920   31.5164   50.0775 C   0  0  0  0  0  0  0  0  0  0  0  0
   63.1448   32.0883   49.2300 C   0  0  0  0  0  0  0  0  0  0  0  0
   64.5539   32.8876   49.9045 Cl  0  0  0  0  0  0  0  0  0  0  0  0
   62.9793   32.0145   47.8451 C   0  0  0  0  0  0  0  0  0  0  0  0
   61.8567   31.3788   47.3056 C   0  0  0  0  0  0  0  0  0  0  0  0
   60.8831   30.8163   48.1478 C   0  0  0  0  0  0  0  0  0  0  0  0
   59.6808   30.1469   47.5403 C   0  0  0  0  0  0  0  0  0  0  0  0
  9 10  2  0
 10 11  1  0
 11 12  2  0
 12 17  1  0
 17 18  1  0
 18 19  1  0
 19 20  2  0
 19 21  1  0
 21 22  1  0
 22 23  1  0
 11 13  1  0
 13 14  2  0
 14  1  1  0
  1  2  2  0
  1  3  1  0
  3  4  1  0
  4  5  1  0
  5  6  1  0
  6 24  1  0
 24 25  2  0
 25 26  1  0
 26 27  1  0
 26 28  2  0
 28 29  1  0
 29 30  2  0
 30 31  1  0
  6  7  1  0
  7  8  1  0
 14 15  1  0
 15 16  1  0
 15 10  1  0
 22 17  2  0
  8  3  1  0
 30 24  1  0
M  CHG 1  18  -1
M  CHG 1  21  -1
M  CHG 1  23  -1
M  END
> <UniqueID>
15

> <SMILES>
C=c1c(=Cc2[n-]c(=O)[n-]c2[O-])cc(C(=O)N2CCN(c3cc(Cl)ccc3C)CC2)n1C

> <Energy>
134.321631680866

> <Genealogy>
C=c1c(=Cc2[n-]c(=O)[n-]c2[O-])cc(C(=O)N2CCN(c3cc(Cl)ccc3C)CC2)n1C (protonated)
C=c1c(=Cc2[n-]c(=O)[n-]c2[O-])cc(C(=O)N2CCN(c3cc(Cl)ccc3C)CC2)n1C (3D coordinates assigned)
C=c1c(=Cc2[n-]c(=O)[n-]c2[O-])cc(C(=O)N2CCN(c3cc(Cl)ccc3C)CC2)n1C (nonaromatic ring conformer: 134.321631680866 kcal/mol)

> <smiles>
C=c1c(=Cc2[nH]c(=O)[nH]c2O)cc(C(=O)N2CCN(c3cc(Cl)ccc3C)CC2)n1C

> <score_type>
oracle

> <origin>
adg

> <m_score__min__energy>
-17.949999999999999

> <m_primary>
energy

> <minimizedAffinity>
-6.73567

> <minimizedRMSD>
1.59676

> <CNNscore>
0.0388629548

> <CNNaffinity>
5.0753355026

> <CNN_VS>
0.1972425282

> <CNNaffinity_variance>
0.3696016073

$$$$
22:0


 39 43  0  0  0  0  0  0  0  0999 V2000
   58.7702   31.9205   46.5894 C   0  0  0  0  0  0  0  0  0  0  0  0
   57.6396   32.4092   46.8627 O   0  0  0  0  0  0  0  0  0  0  0  0
   59.9728   32.6972   46.8027 N   0  0  0  0  0  0  0  0  0  0  0  0
   61.2579   32.0308   47.0512 C   0  0  0  0  0  0  0  0  0  0  0  0
   61.5079   31.9480   48.5702 C   0  0  0  0  0  0  0  0  0  0  0  0
   60.4552   32.6681   49.3270 N   0  0  0  0  0  0  0  0  0  0  0  0
   60.3039   34.0531   48.8370 C   0  0  0  0  0  0  0  0  0  0  0  0
   59.8886   34.0585   47.3482 C   0  0  0  0  0  0  0  0  0  0  0  0
   58.4440   28.1358   43.6073 C   0  0  0  0  0  0  0  0  0  0  0  0
   58.5947   28.8249   44.7499 C   0  0  0  0  0  0  0  0  0  0  0  0
   59.1394   28.3527   45.9560 C   0  0  0  0  0  0  0  0  0  0  0  0
   59.4359   27.1051   46.3657 C   0  0  0  0  0  0  0  0  0  0  0  0
   59.3181   29.4644   46.7608 C   0  0  0  0  0  0  0  0  0  0  0  0
   58.8268   30.5465   46.0615 C   0  0  0  0  0  0  0  0  0  0  0  0
   58.3707   30.1605   44.8475 N   0  0  0  0  0  0  0  0  0  0  0  0
   57.7965   31.0383   43.8188 C   0  0  0  0  0  0  0  0  0  0  0  0
   58.5051   25.9641   46.3941 C   0  0  0  0  0  0  0  0  0  0  0  0
   58.8743   24.6699   46.3371 N   0  0  0  0  0  0  0  0  0  0  0  0
   57.7040   24.0166   46.1819 C   0  0  0  0  0  0  0  0  0  0  0  0
   57.6349   22.7616   46.1014 O   0  0  0  0  0  0  0  0  0  0  0  0
   56.6173   24.8137   46.1003 N   0  0  0  0  0  0  0  0  0  0  0  0
   57.1453   26.0428   46.2213 C   0  0  0  0  0  0  0  0  0  0  0  0
   56.3999   27.2148   46.1637 O   0  0  0  0  0  0  0  0  0  0  0  0
   60.7068   32.6169   50.7800 C   0  0  0  0  0  0  0  0  0  0  0  0
   62.1479   32.2567   51.0162 C   0  0  0  0  0  0  0  0  0  0  0  0
   63.1779   33.1606   50.7119 C   0  0  0  0  0  0  0  0  0  0  0  0
   64.5151   32.7760   50.8519 C   0  0  0  0  0  0  0  0  0  0  0  0
   64.8342   31.4904   51.2967 C   0  0  0  0  0  0  0  0  0  0  0  0
   63.8149   30.5792   51.6204 C   0  0  0  0  0  0  0  0  0  0  0  0
   62.4743   30.9666   51.4623 C   0  0  0  0  0  0  0  0  0  0  0  0
   64.1485   29.2084   52.0557 C   0  0  0  0  0  0  0  0  0  0  0  0
   63.2393   28.3306   52.0715 O   0  0  0  0  0  0  0  0  0  0  0  0
   65.4844   28.8550   52.4702 N   0  0  0  0  0  0  0  0  0  0  0  0
   66.6492   29.3783   51.7443 C   0  0  0  0  0  0  0  0  0  0  0  0
   67.9048   28.5506   52.0569 C   0  0  0  0  0  0  0  0  0  0  0  0
   67.6143   27.1002   52.0749 N   0  0  0  0  0  0  0  0  0  0  0  0
   67.3169   26.5845   50.7269 C   0  0  0  0  0  0  0  0  0  0  0  0
   66.5660   26.7138   53.0582 C   0  0  0  0  0  0  0  0  0  0  0  0
   65.6994   27.8894   53.5496 C   0  0  0  0  0  0  0  0  0  0  0  0
  9 10  2  0
 10 11  1  0
 11 12  2  0
 12 17  1  0
 17 18  1  0
 18 19  1  0
 19 20  2  0
 19 21  1  0
 21 22  1  0
 22 23  1  0
 11 13  1  0
 13 14  2  0
 14  1  1  0
  1  2  2  0
  1  3  1  0
  3  4  1  0
  4  5  1  0
  5  6  1  0
  6 24  1  0
 24 25  1  0
 25 26  2  0
 26 27  1  0
 27 28  2  0
 28 29  1  0
 29 31  1  0
 31 32  2  0
 31 33  1  0
 33 34  1  0
 34 35  1  0
 35 36  1  0
 36 37  1  0
 36 38  1  0
 38 39  1  0
 29 30  2  0
  6  7  1  0
  7  8  1  0
 14 15  1  0
 15 16  1  0
 15 10  1  0
 22 17  2  0
  8  3  1  0
 30 25  1  0
 39 33  1  0
M  CHG 1  18  -1
M  CHG 1  21  -1
M  CHG 1  23  -1
M  END
> <UniqueID>
21

> <SMILES>
C=c1/c(=C\c2[n-]c(=O)[n-]c2[O-])cc(C(=O)N2CCN(Cc3cccc(C(=O)N4CCN(C)CC4)c3)CC2)n1C

> <Energy>
170.24600757993298

> <Genealogy>
C=c1c(=Cc2[n-]c(=O)[n-]c2[O-])cc(C(=O)N2CCN(Cc3cccc(C(=O)N4CCN(C)CC4)c3)CC2)n1C (protonated)
C=c1/c(=C\c2[n-]c(=O)[n-]c2[O-])cc(C(=O)N2CCN(Cc3cccc(C(=O)N4CCN(C)CC4)c3)CC2)n1C (cis-trans isomerization)
C=c1/c(=C\c2[n-]c(=O)[n-]c2[O-])cc(C(=O)N2CCN(Cc3cccc(C(=O)N4CCN(C)CC4)c3)CC2)n1C (3D coordinates assigned)
C=c1/c(=C\c2[n-]c(=O)[n-]c2[O-])cc(C(=O)N2CCN(Cc3cccc(C(=O)N4CCN(C)CC4)c3)CC2)n1C (nonaromatic ring conformer: 170.24600757993298 kcal/mol)

> <smiles>
C=c1c(=Cc2[nH]c(=O)[nH]c2O)cc(C(=O)N2CCN(Cc3cccc(C(=O)N4CCN(C)CC4)c3)CC2)n1C

> <score_type>
oracle

> <origin>
adg

> <m_score__min__energy>
-17.84

> <m_primary>
energy

> <minimizedAffinity>
-8.27849

> <minimizedRMSD>
1.06544

> <CNNscore>
0.0842613131

> <CNNaffinity>
6.6488051414

> <CNN_VS>
0.5602370501

> <CNNaffinity_variance>
0.1483879983

$$$$
32:0


 26 28  0  0  0  0  0  0  0  0999 V2000
   61.1530   30.2979   47.7553 C   0  0  0  0  0  0  0  0  0  0  0  0
   60.2371   29.3375   47.5695 C   0  0  0  0  0  0  0  0  0  0  0  0
   59.9000   28.3839   48.5167 C   0  0  0  0  0  0  0  0  0  0  0  0
   60.4628   28.2276   49.8968 C   0  0  0  0  0  0  0  0  0  0  0  0
   59.0311   27.5071   47.9086 C   0  0  0  0  0  0  0  0  0  0  0  0
   58.8471   27.9623   46.6091 C   0  0  0  0  0  0  0  0  0  0  0  0
   58.1492   27.3060   45.6584 C   0  0  0  0  0  0  0  0  0  0  0  0
   59.5586   29.1119   46.4110 N   0  0  0  0  0  0  0  0  0  0  0  0
   57.7640   25.8837   45.7440 C   0  0  0  0  0  0  0  0  0  0  0  0
   56.5099   25.3999   46.0351 C   0  0  0  0  0  0  0  0  0  0  0  0
   55.3649   26.1684   46.2069 O   0  0  0  0  0  0  0  0  0  0  0  0
   56.5320   24.0581   46.1422 N   0  0  0  0  0  0  0  0  0  0  0  0
   57.8321   23.7630   45.9274 C   0  0  0  0  0  0  0  0  0  0  0  0
   58.2801   22.5868   45.9604 O   0  0  0  0  0  0  0  0  0  0  0  0
   58.6086   24.8388   45.6939 N   0  0  0  0  0  0  0  0  0  0  0  0
   59.5782   24.8560   45.5244 H   0  0  0  0  0  0  0  0  0  0  0  0
   59.5965   29.9548   45.1955 C   0  0  0  0  0  0  0  0  0  0  0  0
   58.9550   31.3135   45.4270 C   0  0  0  0  0  0  0  0  0  0  0  0
   59.6987   32.3005   46.1035 C   0  0  0  0  0  0  0  0  0  0  0  0
   59.1259   33.5319   46.4248 C   0  0  0  0  0  0  0  0  0  0  0  0
   57.8072   33.8034   46.0686 C   0  0  0  0  0  0  0  0  0  0  0  0
   57.0636   32.8545   45.3660 C   0  0  0  0  0  0  0  0  0  0  0  0
   57.6302   31.6175   45.0130 C   0  0  0  0  0  0  0  0  0  0  0  0
   56.8262   30.6976   44.1859 C   0  0  0  0  0  0  0  0  0  0  0  0
   55.9848   29.9311   44.7251 O   0  0  0  0  0  0  0  0  0  0  0  0
   56.9338   30.7198   42.8014 O   0  0  0  0  0  0  0  0  0  0  0  0
  1  2  2  0
  2  3  1  0
  3  4  1  0
  3  5  2  0
  5  6  1  0
  6  7  2  0
  7  9  1  0
  9 10  2  0
 10 11  1  0
 10 12  1  0
 12 13  1  0
 13 14  2  0
 13 15  1  0
  6  8  1  0
  8 17  1  0
 17 18  1  0
 18 19  2  0
 19 20  1  0
 20 21  2  0
 21 22  1  0
 22 23  2  0
 23 24  1  0
 24 25  2  0
 24 26  1  0
  8  2  1  0
 23 18  1  0
 15  9  1  0
 15 16  1  0
M  CHG 1  11  -1
M  CHG 1  12  -1
M  CHG 1  26  -1
M  END
> <UniqueID>
31

> <SMILES>
C=c1c(C)c/c(=C\c2[nH]c(=O)[n-]c2[O-])n1Cc1ccccc1C(=O)[O-]

> <Energy>
114.54504807741608

> <Genealogy>
C=c1c(C)cc(=Cc2[nH]c(=O)[n-]c2[O-])n1Cc1ccccc1C(=O)[O-] (protonated)
C=c1c(C)c/c(=C\c2[nH]c(=O)[n-]c2[O-])n1Cc1ccccc1C(=O)[O-] (cis-trans isomerization)
C=c1c(C)c/c(=C\c2[nH]c(=O)[n-]c2[O-])n1Cc1ccccc1C(=O)[O-] (3D coordinates assigned)
C=c1c(C)c/c(=C\c2[nH]c(=O)[n-]c2[O-])n1Cc1ccccc1C(=O)[O-] (optimized conformer: 114.54504807741608 kcal/mol)

> <smiles>
C=c1c(C)cc(=Cc2[nH]c(=O)[nH]c2O)n1Cc1ccccc1C(=O)O

> <score_type>
oracle

> <origin>
adg

> <m_score__min__energy>
-15.65

> <m_primary>
energy

> <minimizedAffinity>
-7.30555

> <minimizedRMSD>
0.72317

> <CNNscore>
0.2490562946

> <CNNaffinity>
5.9130725861

> <CNN_VS>
1.4726879597

> <CNNaffinity_variance>
0.1249310076

$$$$
47:0


 29 32  0  0  0  0  0  0  0  0999 V2000
   56.6888   30.2172   55.4535 C   0  0  0  0  0  0  0  0  0  0  0  0
   56.0282   30.0726   54.3021 C   0  0  0  0  0  0  0  0  0  0  0  0
   54.6881   30.1748   54.2036 N   0  0  0  0  0  0  0  0  0  0  0  0
   54.3837   30.0492   52.8925 C   0  0  0  0  0  0  0  0  0  0  0  0
   53.1465   30.0727   52.3761 C   0  0  0  0  0  0  0  0  0  0  0  0
   55.5345   29.8474   52.1483 C   0  0  0  0  0  0  0  0  0  0  0  0
   56.5837   29.8511   53.0469 C   0  0  0  0  0  0  0  0  0  0  0  0
   54.0535   30.3140   54.9434 H   0  0  0  0  0  0  0  0  0  0  0  0
   58.0050   29.6783   52.6884 C   0  0  0  0  0  0  0  0  0  0  0  0
   58.6862   28.8079   53.2959 O   0  0  0  0  0  0  0  0  0  0  0  0
   58.6304   30.5028   51.6907 N   0  0  0  0  0  0  0  0  0  0  0  0
   58.3856   31.9552   51.7003 C   0  0  0  0  0  0  0  0  0  0  0  0
   59.3197   32.6848   50.7332 C   0  0  0  0  0  0  0  0  0  0  0  0
   59.3499   31.9701   49.4499 N   0  0  0  0  0  0  0  0  0  0  0  0
   59.6163   30.5239   49.4315 C   0  0  0  0  0  0  0  0  0  0  0  0
   59.6927   29.9390   50.8487 C   0  0  0  0  0  0  0  0  0  0  0  0
   59.1788   32.6626   48.1987 C   0  0  0  0  0  0  0  0  0  0  0  0
   58.6923   31.9998   47.0589 C   0  0  0  0  0  0  0  0  0  0  0  0
   58.5615   32.7005   45.8582 C   0  0  0  0  0  0  0  0  0  0  0  0
   58.9239   34.0469   45.7960 C   0  0  0  0  0  0  0  0  0  0  0  0
   59.4209   34.6728   46.9403 C   0  0  0  0  0  0  0  0  0  0  0  0
   59.5412   33.9738   48.1003 N   0  0  0  0  0  0  0  0  0  0  0  0
   52.0906   31.0071   52.8038 C   0  0  0  0  0  0  0  0  0  0  0  0
   51.5715   31.0148   54.0435 N   0  0  0  0  0  0  0  0  0  0  0  0
   50.5954   31.9461   53.9691 C   0  0  0  0  0  0  0  0  0  0  0  0
   49.8764   32.2543   54.9553 O   0  0  0  0  0  0  0  0  0  0  0  0
   50.4443   32.5132   52.7539 N   0  0  0  0  0  0  0  0  0  0  0  0
   51.3887   31.8985   52.0226 C   0  0  0  0  0  0  0  0  0  0  0  0
   51.5704   32.1158   50.6630 O   0  0  0  0  0  0  0  0  0  0  0  0
  1  2  2  0
  2  3  1  0
  3  4  1  0
  4  5  2  0
  5 23  1  0
 23 24  1  0
 24 25  1  0
 25 26  2  0
 25 27  1  0
 27 28  1  0
 28 29  1  0
  4  6  1  0
  6  7  2  0
  7  9  1  0
  9 10  2  0
  9 11  1  0
 11 12  1  0
 12 13  1  0
 13 14  1  0
 14 17  1  0
 17 18  2  0
 18 19  1  0
 19 20  2  0
 20 21  1  0
 21 22  2  0
 14 15  1  0
 15 16  1  0
  7  2  1  0
 16 11  1  0
 28 23  2  0
 22 17  1  0
  3  8  1  0
M  CHG 1  24  -1
M  CHG 1  27  -1
M  CHG 1  29  -1
M  END
> <UniqueID>
44

> <SMILES>
C=c1[nH]c(=Cc2[n-]c(=O)[n-]c2[O-])cc1C(=O)N1CCN(c2ccccn2)CC1

> <Energy>
119.17128656755666

> <Genealogy>
C=c1[nH]c(=Cc2[n-]c(=O)[n-]c2[O-])cc1C(=O)N1CCN(c2ccccn2)CC1 (protonated)
C=c1[nH]c(=Cc2[n-]c(=O)[n-]c2[O-])cc1C(=O)N1CCN(c2ccccn2)CC1 (3D coordinates assigned)
C=c1[nH]c(=Cc2[n-]c(=O)[n-]c2[O-])cc1C(=O)N1CCN(c2ccccn2)CC1 (nonaromatic ring conformer: 119.17128656755666 kcal/mol)

> <smiles>
C=c1[nH]c(=Cc2[nH]c(=O)[nH]c2O)cc1C(=O)N1CCN(c2ccccn2)CC1

> <score_type>
oracle

> <origin>
adg

> <m_score__min__energy>
-17.649999999999999

> <m_primary>
energy

> <minimizedAffinity>
-7.46807

> <minimizedRMSD>
0.91992

> <CNNscore>
0.2345562279

> <CNNaffinity>
5.5528206825

> <CNN_VS>
1.3024486303

> <CNNaffinity_variance>
0.1777394265

$$$$
49:0


 25 27  0  0  0  0  0  0  0  0999 V2000
   54.5662   28.3233   54.7068 C   0  0  0  0  0  0  0  0  0  0  0  0
   55.1422   29.1134   53.7844 C   0  0  0  0  0  0  0  0  0  0  0  0
   54.4784   29.9650   52.8910 C   0  0  0  0  0  0  0  0  0  0  0  0
   53.1437   30.1512   52.7870 C   0  0  0  0  0  0  0  0  0  0  0  0
   55.4748   30.5980   52.1574 C   0  0  0  0  0  0  0  0  0  0  0  0
   56.6827   30.1252   52.6281 C   0  0  0  0  0  0  0  0  0  0  0  0
   56.4846   29.1994   53.5958 N   0  0  0  0  0  0  0  0  0  0  0  0
   57.5166   28.4086   54.2767 C   0  0  0  0  0  0  0  0  0  0  0  0
   52.4096   30.4484   51.5369 C   0  0  0  0  0  0  0  0  0  0  0  0
   52.3639   29.6671   50.4423 N   0  0  0  0  0  0  0  0  0  0  0  0
   51.5427   30.3401   49.6070 C   0  0  0  0  0  0  0  0  0  0  0  0
   51.2522   29.9203   48.4578 O   0  0  0  0  0  0  0  0  0  0  0  0
   51.0545   31.4967   50.1031 N   0  0  0  0  0  0  0  0  0  0  0  0
   51.6089   31.5468   51.3255 C   0  0  0  0  0  0  0  0  0  0  0  0
   51.3876   32.5772   52.2309 O   0  0  0  0  0  0  0  0  0  0  0  0
   57.9911   30.6038   52.1416 C   0  0  0  0  0  0  0  0  0  0  0  0
   58.6264   31.4514   52.8255 O   0  0  0  0  0  0  0  0  0  0  0  0
   58.5700   30.0709   50.9406 N   0  0  0  0  0  0  0  0  0  0  0  0
   58.1047   29.3399   50.4734 H   0  0  0  0  0  0  0  0  0  0  0  0
   59.8228   30.5738   50.3879 C   0  0  0  0  0  0  0  0  0  0  0  0
   59.8780   30.3124   48.9159 C   0  0  0  0  0  0  0  0  0  0  0  0
   60.8493   30.7676   48.0482 C   0  0  0  0  0  0  0  0  0  0  0  0
   60.5019   30.2671   46.8104 C   0  0  0  0  0  0  0  0  0  0  0  0
   59.3445   29.5404   47.0016 C   0  0  0  0  0  0  0  0  0  0  0  0
   58.9978   29.5854   48.2678 O   0  0  0  0  0  0  0  0  0  0  0  0
  1  2  2  0
  2  3  1  0
  3  4  2  0
  4  9  1  0
  9 10  1  0
 10 11  1  0
 11 12  2  0
 11 13  1  0
 13 14  1  0
 14 15  1  0
  3  5  1  0
  5  6  2  0
  6 16  1  0
 16 17  2  0
 16 18  1  0
 18 20  1  0
 20 21  1  0
 21 22  2  0
 22 23  1  0
 23 24  2  0
 24 25  1  0
  6  7  1  0
  7  8  1  0
  7  2  1  0
 14  9  2  0
 25 21  1  0
 18 19  1  0
M  CHG 1  10  -1
M  CHG 1  13  -1
M  CHG 1  15  -1
M  END
> <UniqueID>
46

> <SMILES>
C=c1c(=Cc2[n-]c(=O)[n-]c2[O-])cc(C(=O)NCc2ccco2)n1C

> <Energy>
128.67268772751004

> <Genealogy>
C=c1c(=Cc2[n-]c(=O)[n-]c2[O-])cc(C(=O)NCc2ccco2)n1C (protonated)
C=c1c(=Cc2[n-]c(=O)[n-]c2[O-])cc(C(=O)NCc2ccco2)n1C (3D coordinates assigned)
C=c1c(=Cc2[n-]c(=O)[n-]c2[O-])cc(C(=O)NCc2ccco2)n1C (optimized conformer: 128.67268772751004 kcal/mol)

> <smiles>
C=c1c(=Cc2[nH]c(=O)[nH]c2O)cc(C(=O)NCc2ccco2)n1C

> <score_type>
oracle

> <origin>
adg

> <m_score__min__energy>
-16.73

> <m_primary>
energy

> <minimizedAffinity>
-5.12509

> <minimizedRMSD>
0.79797

> <CNNscore>
0.0647491664

> <CNNaffinity>
4.5073380470

> <CNN_VS>
0.2918463945

> <CNNaffinity_variance>
0.1767591983

$$$$
62:0


 26 27  0  0  0  0  0  0  0  0999 V2000
   60.5033   31.9156   49.2655 C   0  0  0  0  0  0  0  0  0  0  0  0
   60.3054   30.5968   49.4119 C   0  0  0  0  0  0  0  0  0  0  0  0
   60.9421   33.3539   47.2417 C   0  0  0  0  0  0  0  0  0  0  0  0
   60.4520   34.0612   46.1306 C   0  0  0  0  0  0  0  0  0  0  0  0
   59.0787   34.1333   45.8857 C   0  0  0  0  0  0  0  0  0  0  0  0
   58.1814   33.4958   46.7398 C   0  0  0  0  0  0  0  0  0  0  0  0
   58.6521   32.7841   47.8436 C   0  0  0  0  0  0  0  0  0  0  0  0
   60.0311   32.7189   48.1167 C   0  0  0  0  0  0  0  0  0  0  0  0
   63.2129   31.6472   47.5356 N   0  0  0  0  0  0  0  0  0  0  0  0
   62.6884   33.2941   47.5257 S   0  0  0  0  0  0  0  0  0  0  0  0
   63.0077   33.9381   48.8454 O   0  0  0  0  0  0  0  0  0  0  0  0
   63.4190   34.0338   46.4404 O   0  0  0  0  0  0  0  0  0  0  0  0
   64.2191   31.6118   47.6992 H   0  0  0  0  0  0  0  0  0  0  0  0
   60.3873   29.5921   48.3294 C   0  0  0  0  0  0  0  0  0  0  0  0
   60.4058   28.3603   48.5929 O   0  0  0  0  0  0  0  0  0  0  0  0
   60.4991   30.0335   46.9691 N   0  0  0  0  0  0  0  0  0  0  0  0
   60.5611   30.9994   46.7891 H   0  0  0  0  0  0  0  0  0  0  0  0
   60.5246   29.1055   45.8389 C   0  0  0  0  0  0  0  0  0  0  0  0
   59.1141   28.8662   45.2857 C   0  0  0  0  0  0  0  0  0  0  0  0
   58.5804   27.5199   45.7022 C   0  0  0  0  0  0  0  0  0  0  0  0
   59.4636   26.4607   45.9702 C   0  0  0  0  0  0  0  0  0  0  0  0
   58.9691   25.2023   46.3248 C   0  0  0  0  0  0  0  0  0  0  0  0
   57.5897   24.9910   46.4052 C   0  0  0  0  0  0  0  0  0  0  0  0
   56.7030   26.0359   46.1298 C   0  0  0  0  0  0  0  0  0  0  0  0
   55.3326   25.8229   46.2037 O   0  0  0  0  0  0  0  0  0  0  0  0
   57.1953   27.2960   45.7763 C   0  0  0  0  0  0  0  0  0  0  0  0
  9 10  1  0
 10 11  2  0
 10 12  2  0
 10  3  1  0
  3  4  2  0
  4  5  1  0
  5  6  2  0
  6  7  1  0
  7  8  2  0
  8  1  1  0
  1  2  2  0
  2 14  1  0
 14 15  2  0
 14 16  1  0
 16 18  1  0
 18 19  1  0
 19 20  1  0
 20 21  2  0
 21 22  1  0
 22 23  2  0
 23 24  1  0
 24 25  1  0
 24 26  2  0
  8  3  1  0
 26 20  1  0
  9 13  1  0
 16 17  1  0
M  CHG 1   9  -1
M  CHG 1  25  -1
M  END
> <UniqueID>
58

> <SMILES>
[NH-]S(=O)(=O)c1ccccc1C=CC(=O)NCCc1cccc([O-])c1

> <Energy>
43.47508931876113

> <Genealogy>
[NH-]S(=O)(=O)c1ccccc1C=CC(=O)NCCc1cccc([O-])c1 (protonated)
[NH-]S(=O)(=O)c1ccccc1C=CC(=O)NCCc1cccc([O-])c1 (3D coordinates assigned)
[NH-]S(=O)(=O)c1ccccc1C=CC(=O)NCCc1cccc([O-])c1 (optimized conformer: 43.47508931876113 kcal/mol)

> <smiles>
NS(=O)(=O)c1ccccc1C=CC(=O)NCCc1cccc(O)c1

> <score_type>
oracle

> <origin>
adg

> <m_score__min__energy>
-14.9

> <m_primary>
energy

> <minimizedAffinity>
-7.34128

> <minimizedRMSD>
0.57952

> <CNNscore>
0.2401318103

> <CNNaffinity>
5.4774756432

> <CNN_VS>
1.3153162003

> <CNNaffinity_variance>
0.1173928455

$$$$
67:0


 34 37  0  0  0  0  0  0  0  0999 V2000
   55.3273   28.9125   54.7804 C   0  0  0  0  0  0  0  0  0  0  0  0
   55.7653   29.4368   53.6238 C   0  0  0  0  0  0  0  0  0  0  0  0
   55.0901   30.3731   52.8262 C   0  0  0  0  0  0  0  0  0  0  0  0
   53.8113   30.8017   52.8529 C   0  0  0  0  0  0  0  0  0  0  0  0
   56.0141   30.8406   51.9111 C   0  0  0  0  0  0  0  0  0  0  0  0
   57.1870   30.1390   52.1210 C   0  0  0  0  0  0  0  0  0  0  0  0
   57.0291   29.2645   53.1476 N   0  0  0  0  0  0  0  0  0  0  0  0
   52.8405   30.6770   51.7533 C   0  0  0  0  0  0  0  0  0  0  0  0
   52.9523   29.8203   50.7215 N   0  0  0  0  0  0  0  0  0  0  0  0
   51.9239   30.1665   49.9162 C   0  0  0  0  0  0  0  0  0  0  0  0
   51.6844   29.5748   48.8323 O   0  0  0  0  0  0  0  0  0  0  0  0
   51.1842   31.2067   50.3567 N   0  0  0  0  0  0  0  0  0  0  0  0
   51.7867   31.5247   51.5143 C   0  0  0  0  0  0  0  0  0  0  0  0
   51.3840   32.5732   52.3315 O   0  0  0  0  0  0  0  0  0  0  0  0
   58.4425   30.3774   51.3651 C   0  0  0  0  0  0  0  0  0  0  0  0
   58.7947   29.5735   50.4608 O   0  0  0  0  0  0  0  0  0  0  0  0
   59.2799   31.5025   51.6753 N   0  0  0  0  0  0  0  0  0  0  0  0
   58.9455   32.1869   52.2989 H   0  0  0  0  0  0  0  0  0  0  0  0
   60.6118   31.6651   51.0960 C   0  0  0  0  0  0  0  0  0  0  0  0
   60.5113   32.2812   49.7271 C   0  0  0  0  0  0  0  0  0  0  0  0
   60.9083   31.5605   48.5862 C   0  0  0  0  0  0  0  0  0  0  0  0
   60.8460   32.1550   47.3230 C   0  0  0  0  0  0  0  0  0  0  0  0
   60.3926   33.4711   47.1879 C   0  0  0  0  0  0  0  0  0  0  0  0
   60.0021   34.1956   48.3183 C   0  0  0  0  0  0  0  0  0  0  0  0
   60.0619   33.6043   49.5843 C   0  0  0  0  0  0  0  0  0  0  0  0
   58.0604   28.3573   53.6802 C   0  0  0  0  0  0  0  0  0  0  0  0
   59.0471   29.1095   54.5379 C   0  0  0  0  0  0  0  0  0  0  0  0
   58.6494   29.6122   55.6242 O   0  0  0  0  0  0  0  0  0  0  0  0
   60.4359   29.2378   54.1598 N   0  0  0  0  0  0  0  0  0  0  0  0
   61.1853   30.4294   54.5747 C   0  0  0  0  0  0  0  0  0  0  0  0
   62.6830   30.1163   54.6539 C   0  0  0  0  0  0  0  0  0  0  0  0
   63.1336   29.5186   53.4547 O   0  0  0  0  0  0  0  0  0  0  0  0
   62.5219   28.2517   53.2999 C   0  0  0  0  0  0  0  0  0  0  0  0
   61.0095   28.3962   53.1031 C   0  0  0  0  0  0  0  0  0  0  0  0
  1  2  2  0
  2  3  1  0
  3  4  2  0
  4  8  1  0
  8  9  1  0
  9 10  1  0
 10 11  2  0
 10 12  1  0
 12 13  1  0
 13 14  1  0
  3  5  1  0
  5  6  2  0
  6 15  1  0
 15 16  2  0
 15 17  1  0
 17 19  1  0
 19 20  1  0
 20 21  2  0
 21 22  1  0
 22 23  2  0
 23 24  1  0
 24 25  2  0
  6  7  1  0
  7 26  1  0
 26 27  1  0
 27 28  2  0
 27 29  1  0
 29 30  1  0
 30 31  1  0
 31 32  1  0
 32 33  1  0
 33 34  1  0
  7  2  1  0
 34 29  1  0
 13  8  2  0
 25 20  1  0
 17 18  1  0
M  CHG 1   9  -1
M  CHG 1  12  -1
M  CHG 1  14  -1
M  END
> <UniqueID>
63

> <SMILES>
C=c1c(=Cc2[n-]c(=O)[n-]c2[O-])cc(C(=O)NCc2ccccc2)n1CC(=O)N1CCOCC1

> <Energy>
128.90983198004312

> <Genealogy>
C=c1c(=Cc2[n-]c(=O)[n-]c2[O-])cc(C(=O)NCc2ccccc2)n1CC(=O)N1CCOCC1 (protonated)
C=c1c(=Cc2[n-]c(=O)[n-]c2[O-])cc(C(=O)NCc2ccccc2)n1CC(=O)N1CCOCC1 (3D coordinates assigned)
C=c1c(=Cc2[n-]c(=O)[n-]c2[O-])cc(C(=O)NCc2ccccc2)n1CC(=O)N1CCOCC1 (nonaromatic ring conformer: 128.90983198004312 kcal/mol)

> <smiles>
C=c1c(=Cc2[nH]c(=O)[nH]c2O)cc(C(=O)NCc2ccccc2)n1CC(=O)N1CCOCC1

> <score_type>
oracle

> <origin>
adg

> <m_score__min__energy>
-17.34

> <m_primary>
energy

> <minimizedAffinity>
-5.48818

> <minimizedRMSD>
1.22195

> <CNNscore>
0.1399520785

> <CNNaffinity>
5.4570846558

> <CNN_VS>
0.7637303472

> <CNNaffinity_variance>
0.2125710249

$$$$
71:0


 31 34  0  0  0  0  0  0  0  0999 V2000
   54.8127   28.3567   54.6500 C   0  0  0  0  0  0  0  0  0  0  0  0
   55.2330   29.0667   53.5902 C   0  0  0  0  0  0  0  0  0  0  0  0
   54.4797   30.0059   52.8687 C   0  0  0  0  0  0  0  0  0  0  0  0
   53.1564   30.2603   52.8593 C   0  0  0  0  0  0  0  0  0  0  0  0
   55.3773   30.6935   52.0748 C   0  0  0  0  0  0  0  0  0  0  0  0
   56.6104   30.1071   52.2614 C   0  0  0  0  0  0  0  0  0  0  0  0
   56.5287   29.1041   53.1736 N   0  0  0  0  0  0  0  0  0  0  0  0
   57.8405   30.5615   51.5832 C   0  0  0  0  0  0  0  0  0  0  0  0
   58.4821   29.7320   50.8821 O   0  0  0  0  0  0  0  0  0  0  0  0
   58.3427   31.9020   51.7429 N   0  0  0  0  0  0  0  0  0  0  0  0
   59.2791   32.4678   50.7631 C   0  0  0  0  0  0  0  0  0  0  0  0
   60.6991   32.4500   51.3355 C   0  0  0  0  0  0  0  0  0  0  0  0
   60.7014   33.0126   52.7335 C   0  0  0  0  0  0  0  0  0  0  0  0
   61.5977   33.7576   53.0939 O   0  0  0  0  0  0  0  0  0  0  0  0
   59.6410   32.5743   53.7130 C   0  0  0  0  0  0  0  0  0  0  0  0
   58.2641   32.5854   53.0422 C   0  0  0  0  0  0  0  0  0  0  0  0
   52.3352   30.4724   51.6543 C   0  0  0  0  0  0  0  0  0  0  0  0
   52.3583   29.6851   50.5624 N   0  0  0  0  0  0  0  0  0  0  0  0
   51.5645   30.3421   49.6901 C   0  0  0  0  0  0  0  0  0  0  0  0
   51.3232   29.9066   48.5336 O   0  0  0  0  0  0  0  0  0  0  0  0
   51.0605   31.5080   50.1472 N   0  0  0  0  0  0  0  0  0  0  0  0
   51.5716   31.5813   51.3871 C   0  0  0  0  0  0  0  0  0  0  0  0
   51.3485   32.6439   52.2531 O   0  0  0  0  0  0  0  0  0  0  0  0
   57.6703   28.3848   53.7629 C   0  0  0  0  0  0  0  0  0  0  0  0
   58.4547   29.3042   54.7020 C   0  0  0  0  0  0  0  0  0  0  0  0
   59.7690   28.7935   54.9193 O   0  0  0  0  0  0  0  0  0  0  0  0
   60.9183   29.3614   54.3536 C   0  0  0  0  0  0  0  0  0  0  0  0
   61.6884   30.0758   55.0511 O   0  0  0  0  0  0  0  0  0  0  0  0
   61.2508   29.1377   52.9080 C   0  0  0  0  0  0  0  0  0  0  0  0
   61.0147   27.7046   52.4530 C   0  0  0  0  0  0  0  0  0  0  0  0
   62.4373   28.2300   52.6009 C   0  0  0  0  0  0  0  0  0  0  0  0
  1  2  2  0
  2  3  1  0
  3  4  2  0
  4 17  1  0
 17 18  1  0
 18 19  1  0
 19 20  2  0
 19 21  1  0
 21 22  1  0
 22 23  1  0
  3  5  1  0
  5  6  2  0
  6  8  1  0
  8  9  2  0
  8 10  1  0
 10 11  1  0
 11 12  1  0
 12 13  1  0
 13 14  2  0
 13 15  1  0
 15 16  1  0
  6  7  1  0
  7 24  1  0
 24 25  1  0
 25 26  1  0
 26 27  1  0
 27 28  2  0
 27 29  1  0
 29 30  1  0
 30 31  1  0
  7  2  1  0
 31 29  1  0
 22 17  2  0
 16 10  1  0
M  CHG 1  18  -1
M  CHG 1  21  -1
M  CHG 1  23  -1
M  END
> <UniqueID>
67

> <SMILES>
C=c1c(=Cc2[n-]c(=O)[n-]c2[O-])cc(C(=O)N2CCC(=O)CC2)n1CCOC(=O)C1CC1

> <Energy>
387.16780736256345

> <Genealogy>
C=c1c(=Cc2[n-]c(=O)[n-]c2[O-])cc(C(=O)N2CCC(=O)CC2)n1CCOC(=O)C1CC1 (protonated)
C=c1c(=Cc2[n-]c(=O)[n-]c2[O-])cc(C(=O)N2CCC(=O)CC2)n1CCOC(=O)C1CC1 (3D coordinates assigned)
C=c1c(=Cc2[n-]c(=O)[n-]c2[O-])cc(C(=O)N2CCC(=O)CC2)n1CCOC(=O)C1CC1 (nonaromatic ring conformer: 387.16780736256345 kcal/mol)

> <smiles>
C=c1c(=Cc2[nH]c(=O)[nH]c2O)cc(C(=O)N2CCC(=O)CC2)n1CCOC(=O)C1CC1

> <score_type>
oracle

> <origin>
adg

> <m_score__min__energy>
-15.970000000000001

> <m_primary>
energy

> <minimizedAffinity>
-4.30569

> <minimizedRMSD>
0.88668

> <CNNscore>
0.1199953705

> <CNNaffinity>
4.5610852242

> <CNN_VS>
0.5473091006

> <CNNaffinity_variance>
0.7103276849

$$$$
78:0


 30 33  0  0  0  0  0  0  0  0999 V2000
   54.2810   28.2213   54.7308 C   0  0  0  0  0  0  0  0  0  0  0  0
   55.0428   28.8912   53.8506 C   0  0  0  0  0  0  0  0  0  0  0  0
   54.6949   30.0604   53.1564 C   0  0  0  0  0  0  0  0  0  0  0  0
   53.5073   30.6771   52.9962 C   0  0  0  0  0  0  0  0  0  0  0  0
   55.8657   30.5355   52.5895 C   0  0  0  0  0  0  0  0  0  0  0  0
   56.8556   29.6178   52.8799 C   0  0  0  0  0  0  0  0  0  0  0  0
   56.3561   28.6111   53.6372 N   0  0  0  0  0  0  0  0  0  0  0  0
   57.1190   27.5124   54.2412 C   0  0  0  0  0  0  0  0  0  0  0  0
   52.6563   30.6045   51.7947 C   0  0  0  0  0  0  0  0  0  0  0  0
   52.8420   29.7469   50.7740 N   0  0  0  0  0  0  0  0  0  0  0  0
   51.9396   30.1546   49.8552 C   0  0  0  0  0  0  0  0  0  0  0  0
   51.7927   29.5798   48.7450 O   0  0  0  0  0  0  0  0  0  0  0  0
   51.2118   31.2343   50.2166 N   0  0  0  0  0  0  0  0  0  0  0  0
   51.6882   31.5127   51.4405 C   0  0  0  0  0  0  0  0  0  0  0  0
   51.2491   32.5771   52.2193 O   0  0  0  0  0  0  0  0  0  0  0  0
   58.2955   29.7783   52.4607 C   0  0  0  0  0  0  0  0  0  0  0  0
   58.5155   31.0102   51.6172 C   0  0  0  0  0  0  0  0  0  0  0  0
   58.2663   32.1497   52.1043 O   0  0  0  0  0  0  0  0  0  0  0  0
   59.0135   30.9140   50.2664 N   0  0  0  0  0  0  0  0  0  0  0  0
   58.7677   32.0344   49.3404 C   0  0  0  0  0  0  0  0  0  0  0  0
   59.2999   31.7375   47.9322 C   0  0  0  0  0  0  0  0  0  0  0  0
   58.9483   30.3621   47.5516 N   0  0  0  0  0  0  0  0  0  0  0  0
   59.2608   29.2533   48.4680 C   0  0  0  0  0  0  0  0  0  0  0  0
   59.8098   29.7652   49.8056 C   0  0  0  0  0  0  0  0  0  0  0  0
   58.3624   30.0583   46.2689 C   0  0  0  0  0  0  0  0  0  0  0  0
   57.7153   31.0390   45.5779 N   0  0  0  0  0  0  0  0  0  0  0  0
   57.1693   30.8177   44.3514 C   0  0  0  0  0  0  0  0  0  0  0  0
   57.2707   29.5586   43.7570 C   0  0  0  0  0  0  0  0  0  0  0  0
   57.9389   28.5370   44.4352 C   0  0  0  0  0  0  0  0  0  0  0  0
   58.4905   28.7806   45.6957 C   0  0  0  0  0  0  0  0  0  0  0  0
  1  2  2  0
  2  3  1  0
  3  4  2  0
  4  9  1  0
  9 10  1  0
 10 11  1  0
 11 12  2  0
 11 13  1  0
 13 14  1  0
 14 15  1  0
  3  5  1  0
  5  6  2  0
  6 16  1  0
 16 17  1  0
 17 18  2  0
 17 19  1  0
 19 20  1  0
 20 21  1  0
 21 22  1  0
 22 25  1  0
 25 26  2  0
 26 27  1  0
 27 28  2  0
 28 29  1  0
 29 30  2  0
 22 23  1  0
 23 24  1  0
  6  7  1  0
  7  8  1  0
  7  2  1  0
 14  9  2  0
 24 19  1  0
 30 25  1  0
M  CHG 1  10  -1
M  CHG 1  13  -1
M  CHG 1  15  -1
M  END
> <UniqueID>
73

> <SMILES>
C=c1/c(=C\c2[n-]c(=O)[n-]c2[O-])cc(CC(=O)N2CCN(c3ccccn3)CC2)n1C

> <Energy>
129.21606404924503

> <Genealogy>
C=c1c(=Cc2[n-]c(=O)[n-]c2[O-])cc(CC(=O)N2CCN(c3ccccn3)CC2)n1C (protonated)
C=c1/c(=C\c2[n-]c(=O)[n-]c2[O-])cc(CC(=O)N2CCN(c3ccccn3)CC2)n1C (cis-trans isomerization)
C=c1/c(=C\c2[n-]c(=O)[n-]c2[O-])cc(CC(=O)N2CCN(c3ccccn3)CC2)n1C (3D coordinates assigned)
C=c1/c(=C\c2[n-]c(=O)[n-]c2[O-])cc(CC(=O)N2CCN(c3ccccn3)CC2)n1C (nonaromatic ring conformer: 129.21606404924503 kcal/mol)

> <smiles>
C=c1c(=Cc2[nH]c(=O)[nH]c2O)cc(CC(=O)N2CCN(c3ccccn3)CC2)n1C

> <score_type>
oracle

> <origin>
adg

> <m_score__min__energy>
-18.620000000000001

> <m_primary>
energy

> <minimizedAffinity>
-7.01798

> <minimizedRMSD>
0.94043

> <CNNscore>
0.0296033155

> <CNNaffinity>
4.9022960663

> <CNN_VS>
0.1451242119

> <CNNaffinity_variance>
0.5755093694

$$$$
80:0


 32 35  0  0  0  0  0  0  0  0999 V2000
   56.6668   30.0060   44.8893 C   0  0  0  0  0  0  0  0  0  0  0  0
   57.4302   28.9434   45.1560 C   0  0  0  0  0  0  0  0  0  0  0  0
   58.6447   28.9481   45.8264 C   0  0  0  0  0  0  0  0  0  0  0  0
   59.0819   27.6257   45.8588 C   0  0  0  0  0  0  0  0  0  0  0  0
   60.2791   27.1221   46.6183 C   0  0  0  0  0  0  0  0  0  0  0  0
   58.1163   26.8807   45.1698 C   0  0  0  0  0  0  0  0  0  0  0  0
   58.0953   25.5588   44.9180 C   0  0  0  0  0  0  0  0  0  0  0  0
   57.1159   27.6942   44.7668 N   0  0  0  0  0  0  0  0  0  0  0  0
   56.3054   27.4229   44.2782 H   0  0  0  0  0  0  0  0  0  0  0  0
   57.3465   24.5617   45.7073 C   0  0  0  0  0  0  0  0  0  0  0  0
   56.1147   24.8838   46.2957 C   0  0  0  0  0  0  0  0  0  0  0  0
   55.5506   26.1424   46.1184 O   0  0  0  0  0  0  0  0  0  0  0  0
   55.4622   23.9604   47.0488 N   0  0  0  0  0  0  0  0  0  0  0  0
   55.9915   22.7266   47.2586 C   0  0  0  0  0  0  0  0  0  0  0  0
   55.3671   21.8863   47.9554 O   0  0  0  0  0  0  0  0  0  0  0  0
   57.1950   22.4028   46.7197 N   0  0  0  0  0  0  0  0  0  0  0  0
   57.8867   23.2916   45.9594 C   0  0  0  0  0  0  0  0  0  0  0  0
   59.0035   22.9607   45.4811 O   0  0  0  0  0  0  0  0  0  0  0  0
   59.3202   30.1168   46.4303 C   0  0  0  0  0  0  0  0  0  0  0  0
   59.9653   30.8987   45.6794 O   0  0  0  0  0  0  0  0  0  0  0  0
   59.2497   30.3823   47.8445 N   0  0  0  0  0  0  0  0  0  0  0  0
   59.4065   31.7586   48.3259 C   0  0  0  0  0  0  0  0  0  0  0  0
   59.3681   31.7995   49.8569 C   0  0  0  0  0  0  0  0  0  0  0  0
   60.2949   30.8018   50.4448 N   0  0  0  0  0  0  0  0  0  0  0  0
   59.9617   29.4096   50.0060 C   0  0  0  0  0  0  0  0  0  0  0  0
   58.9833   29.3140   48.8176 C   0  0  0  0  0  0  0  0  0  0  0  0
   61.7545   31.0990   50.2853 C   0  0  0  0  0  0  0  0  0  0  0  0
   62.1675   32.5323   50.6992 C   0  0  0  0  0  0  0  0  0  0  0  0
   61.9568   32.7661   52.2140 C   0  0  0  0  0  0  0  0  0  0  0  0
   61.7521   31.5620   52.9343 O   0  0  0  0  0  0  0  0  0  0  0  0
   62.7555   30.6222   52.6056 C   0  0  0  0  0  0  0  0  0  0  0  0
   62.5980   30.1243   51.1531 C   0  0  0  0  0  0  0  0  0  0  0  0
  1  2  2  0
  2  3  1  0
  3 19  1  0
 19 20  2  0
 19 21  1  0
 21 22  1  0
 22 23  1  0
 23 24  1  0
 24 27  1  0
 27 28  1  0
 28 29  1  0
 29 30  1  0
 30 31  1  0
 31 32  1  0
 24 25  1  0
 25 26  1  0
  3  4  2  0
  4  5  1  0
  4  6  1  0
  6  7  2  0
  7 10  1  0
 10 11  2  0
 11 12  1  0
 11 13  1  0
 13 14  1  0
 14 15  2  0
 14 16  1  0
 16 17  1  0
 17 18  2  0
  6  8  1  0
  8  2  1  0
 26 21  1  0
 17 10  1  0
 32 27  1  0
  8  9  1  0
M  CHG 1  12  -1
M  CHG 1  13  -1
M  CHG 1  16  -1
M  END
> <UniqueID>
75

> <SMILES>
C=c1[nH]/c(=C/c2c([O-])[n-]c(=O)[n-]c2=O)c(C)c1C(=O)N1CCN(C2CCOCC2)CC1

> <Energy>
124.07870529737393

> <Genealogy>
C=c1[nH]c(=Cc2c([O-])[n-]c(=O)[n-]c2=O)c(C)c1C(=O)N1CCN(C2CCOCC2)CC1 (protonated)
C=c1[nH]/c(=C/c2c([O-])[n-]c(=O)[n-]c2=O)c(C)c1C(=O)N1CCN(C2CCOCC2)CC1 (cis-trans isomerization)
C=c1[nH]/c(=C/c2c([O-])[n-]c(=O)[n-]c2=O)c(C)c1C(=O)N1CCN(C2CCOCC2)CC1 (3D coordinates assigned)
C=c1[nH]/c(=C/c2c([O-])[n-]c(=O)[n-]c2=O)c(C)c1C(=O)N1CCN(C2CCOCC2)CC1 (nonaromatic ring conformer: 124.07870529737393 kcal/mol)

> <smiles>
C=c1[nH]c(=Cc2c(O)[nH]c(=O)[nH]c2=O)c(C)c1C(=O)N1CCN(C2CCOCC2)CC1

> <score_type>
oracle

> <origin>
adg

> <m_score__min__energy>
-16.219999999999999

> <m_primary>
energy

> <minimizedAffinity>
-7.93451

> <minimizedRMSD>
1.92471

> <CNNscore>
0.0657991022

> <CNNaffinity>
5.7677826881

> <CNN_VS>
0.3795149326

> <CNNaffinity_variance>
0.0635389090

$$$$
7:0


 26 27  0  0  0  0  0  0  0  0999 V2000
   57.1858   29.4840   45.2994 C   0  0  0  0  0  0  0  0  0  0  0  0
   56.3585   28.8199   44.6187 O   0  0  0  0  0  0  0  0  0  0  0  0
   59.4909   28.7269   48.1224 C   0  0  0  0  0  0  0  0  0  0  0  0
   60.0528   27.5514   47.7327 N   0  0  0  0  0  0  0  0  0  0  0  0
   59.6973   26.9558   46.5660 C   0  0  0  0  0  0  0  0  0  0  0  0
   60.2322   25.8648   46.2343 O   0  0  0  0  0  0  0  0  0  0  0  0
   58.7395   27.5519   45.7415 C   0  0  0  0  0  0  0  0  0  0  0  0
   58.3636   26.9370   44.5508 O   0  0  0  0  0  0  0  0  0  0  0  0
   58.1654   28.7679   46.1487 C   0  0  0  0  0  0  0  0  0  0  0  0
   58.5626   29.3217   47.3251 N   0  0  0  0  0  0  0  0  0  0  0  0
   59.2978   30.6284   49.7552 C   0  0  0  0  0  0  0  0  0  0  0  0
   59.8689   29.3337   49.3737 N   0  0  0  0  0  0  0  0  0  0  0  0
   60.8142   28.6465   50.2599 C   0  0  0  0  0  0  0  0  0  0  0  0
   57.1517   30.9156   45.1964 N   0  0  0  0  0  0  0  0  0  0  0  0
   58.0274   31.7476   44.3747 C   0  0  0  0  0  0  0  0  0  0  0  0
   58.7006   32.8015   45.2140 C   0  0  0  0  0  0  0  0  0  0  0  0
   58.4212   34.1571   44.9836 C   0  0  0  0  0  0  0  0  0  0  0  0
   59.0498   35.1438   45.7450 C   0  0  0  0  0  0  0  0  0  0  0  0
   59.9653   34.7868   46.7371 C   0  0  0  0  0  0  0  0  0  0  0  0
   60.2552   33.4407   46.9840 C   0  0  0  0  0  0  0  0  0  0  0  0
   59.6149   32.4464   46.2193 C   0  0  0  0  0  0  0  0  0  0  0  0
   61.2104   33.1227   48.0061 N   0  0  0  0  0  0  0  0  0  0  0  0
   62.9057   32.8683   47.7497 S   0  0  0  0  0  0  0  0  0  0  0  0
   63.7701   33.1769   49.2717 C   0  0  0  0  0  0  0  0  0  0  0  0
   63.1461   31.4483   47.3297 O   0  0  0  0  0  0  0  0  0  0  0  0
   63.4159   33.8131   46.6980 O   0  0  0  0  0  0  0  0  0  0  0  0
 11 12  1  0
 12 13  1  0
 12  3  1  0
  3  4  2  0
  4  5  1  0
  5  6  2  0
  5  7  1  0
  7  8  1  0
  7  9  2  0
  9  1  1  0
  1  2  2  0
  1 14  1  0
 14 15  1  0
 15 16  1  0
 16 17  2  0
 17 18  1  0
 18 19  2  0
 19 20  1  0
 20 22  1  0
 22 23  1  0
 23 24  1  0
 23 25  2  0
 23 26  2  0
 20 21  2  0
  9 10  1  0
 10  3  1  0
 21 16  1  0
M  CHG 1   8  -1
M  CHG 1  10  -1
M  CHG 1  14  -1
M  CHG 1  22  -1
M  END
> <UniqueID>
7

> <SMILES>
CN(C)c1nc(=O)c([O-])c(C(=O)[N-]Cc2cccc([N-]S(C)(=O)=O)c2)[n-]1

> <Energy>
37.54409428455241

> <Genealogy>
CN(C)c1nc(=O)c([O-])c(C(=O)[N-]Cc2cccc([N-]S(C)(=O)=O)c2)[n-]1 (protonated)
CN(C)c1nc(=O)c([O-])c(C(=O)[N-]Cc2cccc([N-]S(C)(=O)=O)c2)[n-]1 (3D coordinates assigned)
CN(C)c1nc(=O)c([O-])c(C(=O)[N-]Cc2cccc([N-]S(C)(=O)=O)c2)[n-]1 (optimized conformer: 37.54409428455241 kcal/mol)

> <smiles>
CN(C)c1nc(=O)c(O)c(C(=O)NCc2cccc(NS(C)(=O)=O)c2)[nH]1

> <score_type>
oracle

> <origin>
adg

> <m_score__min__energy>
-14.800000000000001

> <m_primary>
energy

> <minimizedAffinity>
-6.76249

> <minimizedRMSD>
1.77596

> <CNNscore>
0.7952898145

> <CNNaffinity>
6.3690943718

> <CNN_VS>
5.0652756691

> <CNNaffinity_variance>
0.1683260053

$$$$
17:0


 33 35  0  0  0  0  0  0  0  0999 V2000
   61.2002   31.6576   48.1626 C   0  0  0  0  0  0  0  0  0  0  0  0
   61.5725   32.3433   47.1711 O   0  0  0  0  0  0  0  0  0  0  0  0
   60.0757   26.9805   48.7654 C   0  0  0  0  0  0  0  0  0  0  0  0
   60.3125   28.1600   48.1649 C   0  0  0  0  0  0  0  0  0  0  0  0
   60.2278   28.4207   46.7887 C   0  0  0  0  0  0  0  0  0  0  0  0
   59.9309   27.5403   45.8082 C   0  0  0  0  0  0  0  0  0  0  0  0
   60.5160   29.7709   46.6399 C   0  0  0  0  0  0  0  0  0  0  0  0
   60.7774   30.2673   47.9029 C   0  0  0  0  0  0  0  0  0  0  0  0
   60.7073   29.2782   48.8245 N   0  0  0  0  0  0  0  0  0  0  0  0
   61.0300   29.4156   50.2500 C   0  0  0  0  0  0  0  0  0  0  0  0
   58.7775   26.6112   45.8087 C   0  0  0  0  0  0  0  0  0  0  0  0
   58.8346   25.2812   46.0132 N   0  0  0  0  0  0  0  0  0  0  0  0
   57.5412   24.9095   46.0664 C   0  0  0  0  0  0  0  0  0  0  0  0
   57.1863   23.7176   46.2584 O   0  0  0  0  0  0  0  0  0  0  0  0
   56.6591   25.9181   45.9182 N   0  0  0  0  0  0  0  0  0  0  0  0
   57.4534   26.9847   45.7531 C   0  0  0  0  0  0  0  0  0  0  0  0
   56.9841   28.2799   45.5843 O   0  0  0  0  0  0  0  0  0  0  0  0
   60.8882   32.2979   49.4347 N   0  0  0  0  0  0  0  0  0  0  0  0
   61.1853   33.1609   49.0656 H   0  0  0  0  0  0  0  0  0  0  0  0
   62.0903   32.8987   50.1446 C   0  0  0  0  0  0  0  0  0  0  0  0
   62.4060   34.3184   49.5996 C   0  0  0  0  0  0  0  0  0  0  0  0
   61.7426   33.0999   51.6563 C   0  0  0  0  0  0  0  0  0  0  0  0
   63.4024   32.0288   50.1295 C   0  0  0  0  0  0  0  0  0  0  0  0
   64.7423   32.7444   49.9609 C   0  0  0  0  0  0  0  0  0  0  0  0
   59.6977   33.1953   49.2640 C   0  0  0  0  0  0  0  0  0  0  0  0
   59.3302   33.4287   47.8093 C   0  0  0  0  0  0  0  0  0  0  0  0
   59.8358   34.5452   47.1179 C   0  0  0  0  0  0  0  0  0  0  0  0
   59.5008   34.7570   45.7773 C   0  0  0  0  0  0  0  0  0  0  0  0
   58.6490   33.8678   45.1165 C   0  0  0  0  0  0  0  0  0  0  0  0
   58.1033   32.7658   45.8060 C   0  0  0  0  0  0  0  0  0  0  0  0
   58.4337   32.5661   47.1518 C   0  0  0  0  0  0  0  0  0  0  0  0
   57.2286   31.8515   45.2044 O   0  0  0  0  0  0  0  0  0  0  0  0
   57.4904   31.1597   43.9841 C   0  0  0  0  0  0  0  0  0  0  0  0
  3  4  2  0
  4  5  1  0
  5  6  2  0
  6 11  1  0
 11 12  1  0
 12 13  1  0
 13 14  2  0
 13 15  1  0
 15 16  1  0
 16 17  1  0
  5  7  1  0
  7  8  2  0
  8  1  1  0
  1  2  2  0
  1 18  1  0
 18 25  1  0
 25 26  1  0
 26 27  2  0
 27 28  1  0
 28 29  2  0
 29 30  1  0
 30 32  1  0
 32 33  1  0
 30 31  2  0
 18 20  1  0
 20 21  1  0
 20 22  1  0
 20 23  1  0
 23 24  1  0
  8  9  1  0
  9 10  1  0
  9  4  1  0
 16 11  2  0
 31 26  1  0
 18 19  1  0
M  CHG 1  12  -1
M  CHG 1  15  -1
M  CHG 1  17  -1
M  CHG 1  18   1
M  END
> <UniqueID>
17

> <SMILES>
C=c1/c(=C/c2[n-]c(=O)[n-]c2[O-])cc(C(=O)[N@H+](Cc2cccc(OC)c2)C(C)(C)CC)n1C

> <Energy>
153.7818327211946

> <Genealogy>
C=c1c(=Cc2[n-]c(=O)[n-]c2[O-])cc(C(=O)[NH+](Cc2cccc(OC)c2)C(C)(C)CC)n1C (protonated)
C=c1c(=Cc2[n-]c(=O)[n-]c2[O-])cc(C(=O)[N@H+](Cc2cccc(OC)c2)C(C)(C)CC)n1C (chirality)
C=c1/c(=C/c2[n-]c(=O)[n-]c2[O-])cc(C(=O)[N@H+](Cc2cccc(OC)c2)C(C)(C)CC)n1C (cis-trans isomerization)
C=c1/c(=C/c2[n-]c(=O)[n-]c2[O-])cc(C(=O)[N@H+](Cc2cccc(OC)c2)C(C)(C)CC)n1C (3D coordinates assigned)
C=c1/c(=C/c2[n-]c(=O)[n-]c2[O-])cc(C(=O)[N@H+](Cc2cccc(OC)c2)C(C)(C)CC)n1C (optimized conformer: 153.7818327211946 kcal/mol)

> <smiles>
C=c1c(=Cc2[nH]c(=O)[nH]c2O)cc(C(=O)N(Cc2cccc(OC)c2)C(C)(C)CC)n1C

> <score_type>
oracle

> <origin>
adg

> <m_score__min__energy>
-16.690000000000001

> <m_primary>
energy

> <minimizedAffinity>
-8.21584

> <minimizedRMSD>
1.24428

> <CNNscore>
0.6375206709

> <CNNaffinity>
7.0965099335

> <CNN_VS>
4.5241718292

> <CNNaffinity_variance>
0.1558645517

$$$$
29:0


 27 29  0  0  0  0  0  0  0  0999 V2000
   60.6309   26.5786   47.1493 C   0  0  0  0  0  0  0  0  0  0  0  0
   59.8001   27.2957   46.3707 C   0  0  0  0  0  0  0  0  0  0  0  0
   60.3325   28.4304   45.7324 C   0  0  0  0  0  0  0  0  0  0  0  0
   59.5054   29.3680   45.1203 C   0  0  0  0  0  0  0  0  0  0  0  0
   58.1126   29.2104   45.1385 C   0  0  0  0  0  0  0  0  0  0  0  0
   57.5715   28.0492   45.7172 C   0  0  0  0  0  0  0  0  0  0  0  0
   58.3931   27.0390   46.2662 C   0  0  0  0  0  0  0  0  0  0  0  0
   57.7779   25.8870   46.6369 C   0  0  0  0  0  0  0  0  0  0  0  0
   57.1617   24.8954   45.7338 C   0  0  0  0  0  0  0  0  0  0  0  0
   57.8424   23.9125   45.1239 N   0  0  0  0  0  0  0  0  0  0  0  0
   56.8999   23.1804   44.4969 C   0  0  0  0  0  0  0  0  0  0  0  0
   57.1673   22.1667   43.8018 O   0  0  0  0  0  0  0  0  0  0  0  0
   55.6376   23.6253   44.6896 N   0  0  0  0  0  0  0  0  0  0  0  0
   55.8183   24.6991   45.4823 C   0  0  0  0  0  0  0  0  0  0  0  0
   54.7738   25.4597   45.9914 O   0  0  0  0  0  0  0  0  0  0  0  0
   58.8149   23.7598   45.1325 H   0  0  0  0  0  0  0  0  0  0  0  0
   57.2140   30.2287   44.5304 C   0  0  0  0  0  0  0  0  0  0  0  0
   55.9760   29.9906   44.4513 O   0  0  0  0  0  0  0  0  0  0  0  0
   57.7576   31.5220   43.9662 C   0  0  0  0  0  0  0  0  0  0  0  0
   57.2693   32.7592   44.7325 C   0  0  0  0  0  0  0  0  0  0  0  0
   58.2895   33.1846   45.7550 C   0  0  0  0  0  0  0  0  0  0  0  0
   58.4427   32.4588   46.9484 C   0  0  0  0  0  0  0  0  0  0  0  0
   59.3662   32.8753   47.9117 C   0  0  0  0  0  0  0  0  0  0  0  0
   60.1378   34.0208   47.6958 C   0  0  0  0  0  0  0  0  0  0  0  0
   61.0326   34.4237   48.6302 F   0  0  0  0  0  0  0  0  0  0  0  0
   59.9808   34.7558   46.5149 C   0  0  0  0  0  0  0  0  0  0  0  0
   59.0576   34.3430   45.5499 C   0  0  0  0  0  0  0  0  0  0  0  0
  1  2  2  0
  2  3  1  0
  3  4  2  0
  4  5  1  0
  5 17  1  0
 17 18  2  0
 17 19  1  0
 19 20  1  0
 20 21  1  0
 21 22  2  0
 22 23  1  0
 23 24  2  0
 24 25  1  0
 24 26  1  0
 26 27  2  0
  5  6  2  0
  6  7  1  0
  7  8  2  0
  8  9  1  0
  9 10  1  0
 10 11  1  0
 11 12  2  0
 11 13  1  0
 13 14  1  0
 14 15  1  0
  7  2  1  0
 14  9  2  0
 27 21  1  0
 10 16  1  0
M  CHG 1  13  -1
M  CHG 1  15  -1
M  END
> <UniqueID>
29

> <SMILES>
C=c1ccc(C(=O)CCc2ccc(F)cc2)cc1=Cc1[nH]c(=O)[n-]c1[O-]

> <Energy>
95.73044511523874

> <Genealogy>
C=c1ccc(C(=O)CCc2ccc(F)cc2)cc1=Cc1[nH]c(=O)[n-]c1[O-] (protonated)
C=c1ccc(C(=O)CCc2ccc(F)cc2)cc1=Cc1[nH]c(=O)[n-]c1[O-] (3D coordinates assigned)
C=c1ccc(C(=O)CCc2ccc(F)cc2)cc1=Cc1[nH]c(=O)[n-]c1[O-] (optimized conformer: 95.73044511523874 kcal/mol)

> <smiles>
C=c1ccc(C(=O)CCc2ccc(F)cc2)cc1=Cc1[nH]c(=O)[nH]c1O

> <score_type>
oracle

> <origin>
adg

> <m_score__min__energy>
-15.609999999999999

> <m_primary>
energy

> <minimizedAffinity>
-9.36486

> <minimizedRMSD>
0.98915

> <CNNscore>
0.4682596028

> <CNNaffinity>
6.7353172302

> <CNN_VS>
3.1538770199

> <CNNaffinity_variance>
0.0067941477

$$$$
46:0


 38 41  0  0  0  0  0  0  0  0999 V2000
   58.8706   32.7346   45.0518 N   0  0  0  0  0  0  0  0  0  0  0  0
   59.2819   33.0997   44.2352 H   0  0  0  0  0  0  0  0  0  0  0  0
   58.1070   29.1749   45.9307 C   0  0  0  0  0  0  0  0  0  0  0  0
   57.2254   28.8253   44.8958 C   0  0  0  0  0  0  0  0  0  0  0  0
   56.8496   29.7735   43.9433 C   0  0  0  0  0  0  0  0  0  0  0  0
   57.3678   31.0691   44.0001 C   0  0  0  0  0  0  0  0  0  0  0  0
   58.2845   31.4232   45.0046 C   0  0  0  0  0  0  0  0  0  0  0  0
   58.6388   30.4724   45.9753 C   0  0  0  0  0  0  0  0  0  0  0  0
   58.5226   28.1579   46.9184 C   0  0  0  0  0  0  0  0  0  0  0  0
   59.4479   28.4326   47.7278 O   0  0  0  0  0  0  0  0  0  0  0  0
   57.9300   26.8542   46.9631 N   0  0  0  0  0  0  0  0  0  0  0  0
   58.3527   25.7258   46.1399 C   0  0  0  0  0  0  0  0  0  0  0  0
   56.0785   23.4023   44.1579 C   0  0  0  0  0  0  0  0  0  0  0  0
   54.8527   23.6946   44.7643 C   0  0  0  0  0  0  0  0  0  0  0  0
   54.7957   24.6260   45.8020 C   0  0  0  0  0  0  0  0  0  0  0  0
   55.9296   25.2457   46.2225 N   0  0  0  0  0  0  0  0  0  0  0  0
   57.1440   24.9813   45.6638 C   0  0  0  0  0  0  0  0  0  0  0  0
   57.2367   24.0604   44.6093 C   0  0  0  0  0  0  0  0  0  0  0  0
   56.8795   21.2713   43.1247 C   0  0  0  0  0  0  0  0  0  0  0  0
   56.1015   22.4648   43.1163 O   0  0  0  0  0  0  0  0  0  0  0  0
   58.8801   33.6985   46.4948 S   0  0  0  0  0  0  0  0  0  0  0  0
   57.5184   33.6640   47.1294 O   0  0  0  0  0  0  0  0  0  0  0  0
   59.2104   35.1253   46.1540 O   0  0  0  0  0  0  0  0  0  0  0  0
   60.0541   33.0378   47.6317 C   0  0  0  0  0  0  0  0  0  0  0  0
   61.3464   32.7271   47.1926 C   0  0  0  0  0  0  0  0  0  0  0  0
   62.3044   32.2707   48.0989 C   0  0  0  0  0  0  0  0  0  0  0  0
   61.9835   32.1298   49.4525 C   0  0  0  0  0  0  0  0  0  0  0  0
   60.6900   32.4328   49.9095 C   0  0  0  0  0  0  0  0  0  0  0  0
   59.7274   32.8840   48.9879 C   0  0  0  0  0  0  0  0  0  0  0  0
   60.3672   32.3421   51.3549 C   0  0  0  0  0  0  0  0  0  0  0  0
   61.2463   32.6493   52.2076 O   0  0  0  0  0  0  0  0  0  0  0  0
   59.0606   31.9398   51.8042 N   0  0  0  0  0  0  0  0  0  0  0  0
   58.4111   32.6253   52.9234 C   0  0  0  0  0  0  0  0  0  0  0  0
   58.1155   31.6160   54.0347 C   0  0  0  0  0  0  0  0  0  0  0  0
   57.3456   30.4766   53.4949 N   0  0  0  0  0  0  0  0  0  0  0  0
   57.0119   29.5394   54.5789 C   0  0  0  0  0  0  0  0  0  0  0  0
   58.1177   29.7783   52.4452 C   0  0  0  0  0  0  0  0  0  0  0  0
   58.4158   30.7316   51.2846 C   0  0  0  0  0  0  0  0  0  0  0  0
 19 20  1  0
 20 13  1  0
 13 14  2  0
 14 15  1  0
 15 16  2  0
 16 17  1  0
 17 12  1  0
 12 11  1  0
 11  9  1  0
  9 10  2  0
  9  3  1  0
  3  4  2  0
  4  5  1  0
  5  6  2  0
  6  7  1  0
  7  1  1  0
  1 21  1  0
 21 22  2  0
 21 23  2  0
 21 24  1  0
 24 25  2  0
 25 26  1  0
 26 27  2  0
 27 28  1  0
 28 30  1  0
 30 31  2  0
 30 32  1  0
 32 33  1  0
 33 34  1  0
 34 35  1  0
 35 36  1  0
 35 37  1  0
 37 38  1  0
 28 29  2  0
  7  8  2  0
 17 18  2  0
 18 13  1  0
  8  3  1  0
 29 24  1  0
 38 32  1  0
  1  2  1  0
M  CHG 1  11  -1
M  END
> <UniqueID>
45

> <SMILES>
COc1ccnc(C[N-]C(=O)c2cccc(NS(=O)(=O)c3cccc(C(=O)N4CCN(C)CC4)c3)c2)c1

> <Energy>
78.48593512076532

> <Genealogy>
COc1ccnc(C[N-]C(=O)c2cccc(NS(=O)(=O)c3cccc(C(=O)N4CCN(C)CC4)c3)c2)c1 (protonated)
COc1ccnc(C[N-]C(=O)c2cccc(NS(=O)(=O)c3cccc(C(=O)N4CCN(C)CC4)c3)c2)c1 (3D coordinates assigned)
COc1ccnc(C[N-]C(=O)c2cccc(NS(=O)(=O)c3cccc(C(=O)N4CCN(C)CC4)c3)c2)c1 (nonaromatic ring conformer: 78.48593512076532 kcal/mol)

> <smiles>
COc1ccnc(CNC(=O)c2cccc(NS(=O)(=O)c3cccc(C(=O)N4CCN(C)CC4)c3)c2)c1

> <score_type>
oracle

> <origin>
adg

> <m_score__min__energy>
-14.16

> <m_primary>
energy

> <minimizedAffinity>
-8.31706

> <minimizedRMSD>
1.37504

> <CNNscore>
0.1849049777

> <CNNaffinity>
6.7830719948

> <CNN_VS>
1.2542238235

> <CNNaffinity_variance>
0.0911796689

$$$$
47:0


 30 32  0  0  0  0  0  0  0  0999 V2000
   57.9977   25.9565   45.2701 C   0  0  0  0  0  0  0  0  0  0  0  0
   58.1107   26.0465   44.0176 O   0  0  0  0  0  0  0  0  0  0  0  0
   58.0689   27.1266   46.1000 N   0  0  0  0  0  0  0  0  0  0  0  0
   58.1569   26.9976   47.0721 H   0  0  0  0  0  0  0  0  0  0  0  0
   58.0199   28.4755   45.6013 C   0  0  0  0  0  0  0  0  0  0  0  0
   59.1467   29.2979   45.7346 C   0  0  0  0  0  0  0  0  0  0  0  0
   59.1197   30.6204   45.2857 C   0  0  0  0  0  0  0  0  0  0  0  0
   57.9522   31.1472   44.7023 C   0  0  0  0  0  0  0  0  0  0  0  0
   56.8184   30.3339   44.5928 C   0  0  0  0  0  0  0  0  0  0  0  0
   56.8469   29.0099   45.0408 C   0  0  0  0  0  0  0  0  0  0  0  0
   57.8690   32.4676   44.2302 O   0  0  0  0  0  0  0  0  0  0  0  0
   57.6848   33.6257   45.0461 C   0  0  0  0  0  0  0  0  0  0  0  0
   58.6876   33.6529   46.1700 C   0  0  0  0  0  0  0  0  0  0  0  0
   59.9931   34.1173   45.9377 C   0  0  0  0  0  0  0  0  0  0  0  0
   60.9250   34.1516   46.9797 C   0  0  0  0  0  0  0  0  0  0  0  0
   60.5588   33.7290   48.2614 C   0  0  0  0  0  0  0  0  0  0  0  0
   59.2592   33.2766   48.5029 C   0  0  0  0  0  0  0  0  0  0  0  0
   58.3232   33.2421   47.4642 C   0  0  0  0  0  0  0  0  0  0  0  0
   57.8815   24.6007   45.8982 C   0  0  0  0  0  0  0  0  0  0  0  0
   54.4539   23.6505   45.1183 C   0  0  0  0  0  0  0  0  0  0  0  0
   55.0911   22.5507   44.6592 N   0  0  0  0  0  0  0  0  0  0  0  0
   56.3924   22.7988   44.9324 C   0  0  0  0  0  0  0  0  0  0  0  0
   57.3154   21.9930   44.6388 O   0  0  0  0  0  0  0  0  0  0  0  0
   56.6041   23.9893   45.5353 N   0  0  0  0  0  0  0  0  0  0  0  0
   55.3798   24.5321   45.6345 C   0  0  0  0  0  0  0  0  0  0  0  0
   55.1124   25.7902   46.1611 O   0  0  0  0  0  0  0  0  0  0  0  0
   52.9824   23.8800   44.9898 C   0  0  0  0  0  0  0  0  0  0  0  0
   52.7619   21.8016   46.1503 O   0  0  0  0  0  0  0  0  0  0  0  0
   52.2323   22.9011   45.8342 C   0  0  0  0  0  0  0  0  0  0  0  0
   50.9317   23.1777   46.2329 O   0  0  0  0  0  0  0  0  0  0  0  0
 28 29  2  0
 29 30  1  0
 29 27  1  0
 27 20  1  0
 20 21  1  0
 21 22  1  0
 22 23  2  0
 22 24  1  0
 24 19  1  0
 19  1  1  0
  1  2  2  0
  1  3  1  0
  3  5  1  0
  5  6  2  0
  6  7  1  0
  7  8  2  0
  8 11  1  0
 11 12  1  0
 12 13  1  0
 13 14  2  0
 14 15  1  0
 15 16  2  0
 16 17  1  0
 17 18  2  0
  8  9  1  0
  9 10  2  0
 24 25  1  0
 25 26  1  0
 25 20  2  0
 10  5  1  0
 18 13  1  0
  3  4  1  0
M  CHG 1  21  -1
M  CHG 1  26  -1
M  CHG 1  30  -1
M  END
> <UniqueID>
46

> <SMILES>
O=C([O-])Cc1[n-]c(=O)n(CC(=O)Nc2ccc(OCc3ccccc3)cc2)c1[O-]

> <Energy>
78.58459746381183

> <Genealogy>
O=C([O-])Cc1[n-]c(=O)n(CC(=O)Nc2ccc(OCc3ccccc3)cc2)c1[O-] (protonated)
O=C([O-])Cc1[n-]c(=O)n(CC(=O)Nc2ccc(OCc3ccccc3)cc2)c1[O-] (3D coordinates assigned)
O=C([O-])Cc1[n-]c(=O)n(CC(=O)Nc2ccc(OCc3ccccc3)cc2)c1[O-] (optimized conformer: 78.58459746381183 kcal/mol)

> <smiles>
O=C(O)Cc1[nH]c(=O)n(CC(=O)Nc2ccc(OCc3ccccc3)cc2)c1O

> <score_type>
oracle

> <origin>
adg

> <m_score__min__energy>
-15.41

> <m_primary>
energy

> <minimizedAffinity>
-7.52795

> <minimizedRMSD>
1.39075

> <CNNscore>
0.3115577698

> <CNNaffinity>
6.2970352173

> <CNN_VS>
1.9618902206

> <CNNaffinity_variance>
0.0096977260

$$$$
52:0


 32 35  0  0  0  0  0  0  0  0999 V2000
   58.2264   29.6981   44.5919 C   0  0  0  0  0  0  0  0  0  0  0  0
   58.5789   29.1051   45.7433 C   0  0  0  0  0  0  0  0  0  0  0  0
   58.5106   27.7373   46.0539 C   0  0  0  0  0  0  0  0  0  0  0  0
   58.2678   26.6649   45.2767 C   0  0  0  0  0  0  0  0  0  0  0  0
   58.7593   27.6352   47.4128 C   0  0  0  0  0  0  0  0  0  0  0  0
   59.0294   28.9090   47.8684 C   0  0  0  0  0  0  0  0  0  0  0  0
   59.3746   29.2611   49.2822 C   0  0  0  0  0  0  0  0  0  0  0  0
   58.9224   29.7991   46.8582 N   0  0  0  0  0  0  0  0  0  0  0  0
   59.0767   31.2225   46.9749 C   0  0  0  0  0  0  0  0  0  0  0  0
   58.0585   31.9335   47.1897 O   0  0  0  0  0  0  0  0  0  0  0  0
   60.3810   31.8312   46.8800 N   0  0  0  0  0  0  0  0  0  0  0  0
   60.5151   33.2860   46.8303 C   0  0  0  0  0  0  0  0  0  0  0  0
   60.7817   33.8157   48.2408 C   0  0  0  0  0  0  0  0  0  0  0  0
   61.8482   33.0445   48.9055 N   0  0  0  0  0  0  0  0  0  0  0  0
   62.5966   33.6692   49.9669 C   0  0  0  0  0  0  0  0  0  0  0  0
   62.6985   34.9263   50.0112 O   0  0  0  0  0  0  0  0  0  0  0  0
   61.8437   31.5741   48.8069 C   0  0  0  0  0  0  0  0  0  0  0  0
   61.5580   31.1194   47.3767 C   0  0  0  0  0  0  0  0  0  0  0  0
   57.6482   25.4065   45.7196 C   0  0  0  0  0  0  0  0  0  0  0  0
   58.2767   24.2193   45.6957 N   0  0  0  0  0  0  0  0  0  0  0  0
   57.3077   23.3462   46.0513 C   0  0  0  0  0  0  0  0  0  0  0  0
   57.5164   22.1119   46.1606 O   0  0  0  0  0  0  0  0  0  0  0  0
   56.0968   23.9016   46.2689 N   0  0  0  0  0  0  0  0  0  0  0  0
   56.3240   25.2044   46.0397 C   0  0  0  0  0  0  0  0  0  0  0  0
   55.3380   26.1799   46.0942 O   0  0  0  0  0  0  0  0  0  0  0  0
   63.1657   32.8676   51.0117 N   0  0  0  0  0  0  0  0  0  0  0  0
   64.5055   32.3587   51.0678 C   0  0  0  0  0  0  0  0  0  0  0  0
   65.5974   33.0691   50.5341 C   0  0  0  0  0  0  0  0  0  0  0  0
   66.8861   32.5273   50.5943 C   0  0  0  0  0  0  0  0  0  0  0  0
   67.0938   31.2725   51.1752 C   0  0  0  0  0  0  0  0  0  0  0  0
   66.0092   30.5515   51.6840 C   0  0  0  0  0  0  0  0  0  0  0  0
   64.7198   31.0900   51.6222 C   0  0  0  0  0  0  0  0  0  0  0  0
  1  2  2  0
  2  3  1  0
  3  4  2  0
  4 19  1  0
 19 20  1  0
 20 21  1  0
 21 22  2  0
 21 23  1  0
 23 24  1  0
 24 25  1  0
  3  5  1  0
  5  6  2  0
  6  7  1  0
  6  8  1  0
  8  9  1  0
  9 10  2  0
  9 11  1  0
 11 12  1  0
 12 13  1  0
 13 14  1  0
 14 15  1  0
 15 16  2  0
 15 26  1  0
 26 27  1  0
 27 28  2  0
 28 29  1  0
 29 30  2  0
 30 31  1  0
 31 32  2  0
 14 17  1  0
 17 18  1  0
  8  2  1  0
 18 11  1  0
 24 19  2  0
 32 27  1  0
M  CHG 1  20  -1
M  CHG 1  23  -1
M  CHG 1  25  -1
M  CHG 1  26  -1
M  END
> <UniqueID>
51

> <SMILES>
C=c1c(=Cc2[n-]c(=O)[n-]c2[O-])cc(C)n1C(=O)N1CCN(C(=O)[N-]c2ccccc2)CC1

> <Energy>
134.6655013640949

> <Genealogy>
C=c1c(=Cc2[n-]c(=O)[n-]c2[O-])cc(C)n1C(=O)N1CCN(C(=O)[N-]c2ccccc2)CC1 (protonated)
C=c1c(=Cc2[n-]c(=O)[n-]c2[O-])cc(C)n1C(=O)N1CCN(C(=O)[N-]c2ccccc2)CC1 (3D coordinates assigned)
C=c1c(=Cc2[n-]c(=O)[n-]c2[O-])cc(C)n1C(=O)N1CCN(C(=O)[N-]c2ccccc2)CC1 (nonaromatic ring conformer: 134.6655013640949 kcal/mol)

> <smiles>
C=c1c(=Cc2[nH]c(=O)[nH]c2O)cc(C)n1C(=O)N1CCN(C(=O)Nc2ccccc2)CC1

> <score_type>
oracle

> <origin>
adg

> <m_score__min__energy>
-19.050000000000001

> <m_primary>
energy

> <minimizedAffinity>
-9.79416

> <minimizedRMSD>
0.66388

> <CNNscore>
0.3545417786

> <CNNaffinity>
7.1283555031

> <CNN_VS>
2.5272998810

> <CNNaffinity_variance>
0.1939564347

$$$$
72:0


 34 38  0  0  0  0  0  0  0  0999 V2000
   57.1275   30.2662   43.9735 C   0  0  0  0  0  0  0  0  0  0  0  0
   57.5409   29.4806   44.9716 C   0  0  0  0  0  0  0  0  0  0  0  0
   57.3426   28.1481   45.0052 N   0  0  0  0  0  0  0  0  0  0  0  0
   57.8887   27.7057   46.1627 C   0  0  0  0  0  0  0  0  0  0  0  0
   57.9355   26.4251   46.5570 C   0  0  0  0  0  0  0  0  0  0  0  0
   58.4460   28.7599   46.8699 C   0  0  0  0  0  0  0  0  0  0  0  0
   58.2165   29.8901   46.1091 C   0  0  0  0  0  0  0  0  0  0  0  0
   56.8894   27.6030   44.3221 H   0  0  0  0  0  0  0  0  0  0  0  0
   58.6265   31.2558   46.4644 C   0  0  0  0  0  0  0  0  0  0  0  0
   57.7915   32.1877   46.3330 O   0  0  0  0  0  0  0  0  0  0  0  0
   59.9553   31.5428   46.9468 N   0  0  0  0  0  0  0  0  0  0  0  0
   60.8461   30.4712   47.4173 C   0  0  0  0  0  0  0  0  0  0  0  0
   61.5692   30.9164   48.6943 C   0  0  0  0  0  0  0  0  0  0  0  0
   62.1391   32.2648   48.5519 N   0  0  0  0  0  0  0  0  0  0  0  0
   63.1594   32.7004   49.4657 C   0  0  0  0  0  0  0  0  0  0  0  0
   64.2611   33.1084   49.0058 O   0  0  0  0  0  0  0  0  0  0  0  0
   62.9367   32.7059   50.8910 N   0  0  0  0  0  0  0  0  0  0  0  0
   64.0601   32.5798   51.8259 C   0  0  0  0  0  0  0  0  0  0  0  0
   63.8168   33.4780   53.0432 C   0  0  0  0  0  0  0  0  0  0  0  0
   62.5483   33.2230   53.6153 O   0  0  0  0  0  0  0  0  0  0  0  0
   61.5299   33.5726   52.6963 C   0  0  0  0  0  0  0  0  0  0  0  0
   61.5839   32.6764   51.4569 C   0  0  0  0  0  0  0  0  0  0  0  0
   61.9061   33.0362   47.3268 C   0  0  0  0  0  0  0  0  0  0  0  0
   60.4354   32.9326   46.9125 C   0  0  0  0  0  0  0  0  0  0  0  0
   57.2270   25.3319   45.8673 C   0  0  0  0  0  0  0  0  0  0  0  0
   55.8573   25.1842   45.6748 C   0  0  0  0  0  0  0  0  0  0  0  0
   54.8958   26.1113   46.0599 O   0  0  0  0  0  0  0  0  0  0  0  0
   55.5415   24.0002   45.0981 N   0  0  0  0  0  0  0  0  0  0  0  0
   56.7311   23.3874   44.9451 C   0  0  0  0  0  0  0  0  0  0  0  0
   56.9472   22.1198   44.4077 C   0  0  0  0  0  0  0  0  0  0  0  0
   58.2701   21.6402   44.3519 C   0  0  0  0  0  0  0  0  0  0  0  0
   59.3383   22.4318   44.8325 C   0  0  0  0  0  0  0  0  0  0  0  0
   59.0929   23.7067   45.3729 C   0  0  0  0  0  0  0  0  0  0  0  0
   57.7705   24.1530   45.4128 C   0  0  0  0  0  0  0  0  0  0  0  0
  1  2  2  0
  2  3  1  0
  3  4  1  0
  4  5  2  0
  5 25  1  0
 25 26  2  0
 26 27  1  0
 26 28  1  0
 28 29  1  0
 29 30  2  0
 30 31  1  0
 31 32  2  0
 32 33  1  0
 33 34  2  0
  4  6  1  0
  6  7  2  0
  7  9  1  0
  9 10  2  0
  9 11  1  0
 11 12  1  0
 12 13  1  0
 13 14  1  0
 14 15  1  0
 15 16  2  0
 15 17  1  0
 17 18  1  0
 18 19  1  0
 19 20  1  0
 20 21  1  0
 21 22  1  0
 14 23  1  0
 23 24  1  0
  7  2  1  0
 24 11  1  0
 34 25  1  0
 22 17  1  0
 34 29  1  0
  3  8  1  0
M  CHG 1  27  -1
M  CHG 1  28  -1
M  END
> <UniqueID>
70

> <SMILES>
C=c1[nH]c(=Cc2c([O-])[n-]c3ccccc23)cc1C(=O)N1CCN(C(=O)N2CCOCC2)CC1

> <Energy>
140.30352255887436

> <Genealogy>
C=c1[nH]c(=Cc2c([O-])[n-]c3ccccc23)cc1C(=O)N1CCN(C(=O)N2CCOCC2)CC1 (protonated)
C=c1[nH]c(=Cc2c([O-])[n-]c3ccccc23)cc1C(=O)N1CCN(C(=O)N2CCOCC2)CC1 (3D coordinates assigned)
C=c1[nH]c(=Cc2c([O-])[n-]c3ccccc23)cc1C(=O)N1CCN(C(=O)N2CCOCC2)CC1 (nonaromatic ring conformer: 140.30352255887436 kcal/mol)

> <smiles>
C=c1[nH]c(=Cc2c(O)[nH]c3ccccc23)cc1C(=O)N1CCN(C(=O)N2CCOCC2)CC1

> <score_type>
oracle

> <origin>
adg

> <m_score__min__energy>
-15.130000000000001

> <m_primary>
energy

> <minimizedAffinity>
-9.54692

> <minimizedRMSD>
1.03015

> <CNNscore>
0.1003019735

> <CNNaffinity>
6.0938262939

> <CNN_VS>
0.6112228036

> <CNNaffinity_variance>
0.2672508657

$$$$
14:0


 32 35  0  0  0  0  0  0  0  0999 V2000
   57.8161   24.6991   47.6889 C   0  0  0  0  0  0  0  0  0  0  0  0
   58.1203   25.6109   46.7571 C   0  0  0  0  0  0  0  0  0  0  0  0
   58.7635   26.7554   47.0686 N   0  0  0  0  0  0  0  0  0  0  0  0
   58.8061   27.5062   45.9518 C   0  0  0  0  0  0  0  0  0  0  0  0
   58.2101   26.8364   44.9011 C   0  0  0  0  0  0  0  0  0  0  0  0
   57.7833   25.6143   45.3946 C   0  0  0  0  0  0  0  0  0  0  0  0
   57.1914   24.6809   44.6255 C   0  0  0  0  0  0  0  0  0  0  0  0
   59.1330   26.9965   47.9487 H   0  0  0  0  0  0  0  0  0  0  0  0
   56.0895   23.7956   45.0479 C   0  0  0  0  0  0  0  0  0  0  0  0
   54.9526   24.3078   45.6941 C   0  0  0  0  0  0  0  0  0  0  0  0
   54.8183   25.6739   45.9183 O   0  0  0  0  0  0  0  0  0  0  0  0
   53.9727   23.4642   46.1105 N   0  0  0  0  0  0  0  0  0  0  0  0
   54.0780   22.1239   45.9273 C   0  0  0  0  0  0  0  0  0  0  0  0
   53.1561   21.3621   46.3178 O   0  0  0  0  0  0  0  0  0  0  0  0
   55.1796   21.6034   45.3289 N   0  0  0  0  0  0  0  0  0  0  0  0
   56.1873   22.4039   44.8942 C   0  0  0  0  0  0  0  0  0  0  0  0
   57.1992   21.8870   44.3500 O   0  0  0  0  0  0  0  0  0  0  0  0
   59.4544   28.8293   45.8811 C   0  0  0  0  0  0  0  0  0  0  0  0
   60.3474   29.0269   45.0154 O   0  0  0  0  0  0  0  0  0  0  0  0
   59.0913   29.8904   46.7817 N   0  0  0  0  0  0  0  0  0  0  0  0
   59.0920   29.6419   48.2329 C   0  0  0  0  0  0  0  0  0  0  0  0
   59.0467   30.9547   49.0232 C   0  0  0  0  0  0  0  0  0  0  0  0
   59.9892   31.9181   48.4358 N   0  0  0  0  0  0  0  0  0  0  0  0
   59.9506   32.1850   46.9886 C   0  0  0  0  0  0  0  0  0  0  0  0
   58.9551   31.2624   46.2735 C   0  0  0  0  0  0  0  0  0  0  0  0
   60.9996   32.5459   49.2480 C   0  0  0  0  0  0  0  0  0  0  0  0
   61.1533   32.1866   50.5989 C   0  0  0  0  0  0  0  0  0  0  0  0
   62.1270   32.8056   51.3891 C   0  0  0  0  0  0  0  0  0  0  0  0
   62.9512   33.7914   50.8390 C   0  0  0  0  0  0  0  0  0  0  0  0
   63.8930   34.3919   51.6079 F   0  0  0  0  0  0  0  0  0  0  0  0
   62.8020   34.1599   49.5006 C   0  0  0  0  0  0  0  0  0  0  0  0
   61.8301   33.5425   48.7065 C   0  0  0  0  0  0  0  0  0  0  0  0
  1  2  2  0
  2  3  1  0
  3  4  1  0
  4 18  1  0
 18 19  2  0
 18 20  1  0
 20 21  1  0
 21 22  1  0
 22 23  1  0
 23 26  1  0
 26 27  2  0
 27 28  1  0
 28 29  2  0
 29 30  1  0
 29 31  1  0
 31 32  2  0
 23 24  1  0
 24 25  1  0
  4  5  2  0
  5  6  1  0
  6  7  2  0
  7  9  1  0
  9 10  2  0
 10 11  1  0
 10 12  1  0
 12 13  1  0
 13 14  2  0
 13 15  1  0
 15 16  1  0
 16 17  2  0
  6  2  1  0
 16  9  1  0
 25 20  1  0
 32 26  1  0
  3  8  1  0
M  CHG 1  11  -1
M  CHG 1  12  -1
M  CHG 1  15  -1
M  END
> <UniqueID>
15

> <SMILES>
C=c1[nH]c(C(=O)N2CCN(c3ccc(F)cc3)CC2)cc1=Cc1c([O-])[n-]c(=O)[n-]c1=O

> <Energy>
101.99604245418553

> <Genealogy>
C=c1[nH]c(C(=O)N2CCN(c3ccc(F)cc3)CC2)cc1=Cc1c([O-])[n-]c(=O)[n-]c1=O (protonated)
C=c1[nH]c(C(=O)N2CCN(c3ccc(F)cc3)CC2)cc1=Cc1c([O-])[n-]c(=O)[n-]c1=O (3D coordinates assigned)
C=c1[nH]c(C(=O)N2CCN(c3ccc(F)cc3)CC2)cc1=Cc1c([O-])[n-]c(=O)[n-]c1=O (nonaromatic ring conformer: 101.99604245418553 kcal/mol)

> <smiles>
C=c1[nH]c(C(=O)N2CCN(c3ccc(F)cc3)CC2)cc1=Cc1c(O)[nH]c(=O)[nH]c1=O

> <score_type>
oracle

> <origin>
adg

> <m_score__min__energy>
-15.630000000000001

> <m_primary>
energy

> <minimizedAffinity>
-8.66667

> <minimizedRMSD>
1.37712

> <CNNscore>
0.0364832319

> <CNNaffinity>
5.4431209564

> <CNN_VS>
0.1985826492

> <CNNaffinity_variance>
0.1115699708

$$$$
41:0


 28 30  0  0  0  0  0  0  0  0999 V2000
   59.0482   30.2859   49.0650 N   0  0  0  0  0  0  0  0  0  0  0  0
   59.7053   29.7763   50.1494 C   0  0  0  0  0  0  0  0  0  0  0  0
   60.3021   28.5153   50.0854 C   0  0  0  0  0  0  0  0  0  0  0  0
   60.2523   27.7854   48.8971 C   0  0  0  0  0  0  0  0  0  0  0  0
   60.8159   26.6591   48.8392 O   0  0  0  0  0  0  0  0  0  0  0  0
   59.5946   28.3223   47.7758 C   0  0  0  0  0  0  0  0  0  0  0  0
   58.9723   29.5756   47.8999 C   0  0  0  0  0  0  0  0  0  0  0  0
   59.5510   27.6011   46.4815 C   0  0  0  0  0  0  0  0  0  0  0  0
   60.3203   27.9649   45.5508 O   0  0  0  0  0  0  0  0  0  0  0  0
   58.6286   26.4606   46.2550 C   0  0  0  0  0  0  0  0  0  0  0  0
   59.1423   25.1789   45.9897 C   0  0  0  0  0  0  0  0  0  0  0  0
   58.2781   24.0992   45.7745 C   0  0  0  0  0  0  0  0  0  0  0  0
   56.8948   24.2912   45.8086 C   0  0  0  0  0  0  0  0  0  0  0  0
   56.3714   25.5637   46.0526 C   0  0  0  0  0  0  0  0  0  0  0  0
   54.9959   25.7572   46.0685 O   0  0  0  0  0  0  0  0  0  0  0  0
   57.2318   26.6424   46.2738 C   0  0  0  0  0  0  0  0  0  0  0  0
   58.4585   31.6309   49.1244 C   0  0  0  0  0  0  0  0  0  0  0  0
   61.2925   33.4656   47.3496 C   0  0  0  0  0  0  0  0  0  0  0  0
   60.5756   34.3753   46.5605 C   0  0  0  0  0  0  0  0  0  0  0  0
   59.1779   34.3845   46.5966 C   0  0  0  0  0  0  0  0  0  0  0  0
   58.4905   33.4834   47.4146 C   0  0  0  0  0  0  0  0  0  0  0  0
   59.1985   32.5553   48.1938 C   0  0  0  0  0  0  0  0  0  0  0  0
   60.6022   32.5559   48.1602 C   0  0  0  0  0  0  0  0  0  0  0  0
   63.6127   31.8182   47.2069 N   0  0  0  0  0  0  0  0  0  0  0  0
   63.0534   33.4504   47.3080 S   0  0  0  0  0  0  0  0  0  0  0  0
   63.5439   34.2191   46.1129 O   0  0  0  0  0  0  0  0  0  0  0  0
   63.5985   34.0914   48.5523 O   0  0  0  0  0  0  0  0  0  0  0  0
   64.6324   31.8090   47.1828 H   0  0  0  0  0  0  0  0  0  0  0  0
 24 25  1  0
 25 26  2  0
 25 27  2  0
 25 18  1  0
 18 19  2  0
 19 20  1  0
 20 21  2  0
 21 22  1  0
 22 17  1  0
 17  1  1  0
  1  2  1  0
  2  3  2  0
  3  4  1  0
  4  5  2  0
  4  6  1  0
  6  8  1  0
  8  9  2  0
  8 10  1  0
 10 11  2  0
 11 12  1  0
 12 13  2  0
 13 14  1  0
 14 15  1  0
 14 16  2  0
  6  7  2  0
 22 23  2  0
 23 18  1  0
  7  1  1  0
 16 10  1  0
 24 28  1  0
M  CHG 1  15  -1
M  CHG 1  24  -1
M  END
> <UniqueID>
42

> <SMILES>
[NH-]S(=O)(=O)c1cccc(Cn2ccc(=O)c(C(=O)c3cccc([O-])c3)c2)c1

> <Energy>
48.93337811334622

> <Genealogy>
[NH-]S(=O)(=O)c1cccc(Cn2ccc(=O)c(C(=O)c3cccc([O-])c3)c2)c1 (protonated)
[NH-]S(=O)(=O)c1cccc(Cn2ccc(=O)c(C(=O)c3cccc([O-])c3)c2)c1 (3D coordinates assigned)
[NH-]S(=O)(=O)c1cccc(Cn2ccc(=O)c(C(=O)c3cccc([O-])c3)c2)c1 (optimized conformer: 48.93337811334622 kcal/mol)

> <smiles>
NS(=O)(=O)c1cccc(Cn2ccc(=O)c(C(=O)c3cccc(O)c3)c2)c1

> <score_type>
oracle

> <origin>
adg

> <m_score__min__energy>
-15.17

> <m_primary>
energy

> <minimizedAffinity>
-7.01509

> <minimizedRMSD>
0.38322

> <CNNscore>
0.3352548778

> <CNNaffinity>
5.7748718262

> <CNN_VS>
1.9360539913

> <CNNaffinity_variance>
0.1125360802

$$$$
49:0


 31 34  0  0  0  0  0  0  0  0999 V2000
   56.9597   30.2541   52.5288 C   0  0  0  0  0  0  0  0  0  0  0  0
   57.3139   29.9242   51.3619 O   0  0  0  0  0  0  0  0  0  0  0  0
   52.7382   28.3938   54.3235 C   0  0  0  0  0  0  0  0  0  0  0  0
   53.9943   28.6051   53.9247 C   0  0  0  0  0  0  0  0  0  0  0  0
   54.9716   27.8107   54.3025 O   0  0  0  0  0  0  0  0  0  0  0  0
   56.1160   28.3005   53.8869 C   0  0  0  0  0  0  0  0  0  0  0  0
   55.8945   29.4692   53.1883 C   0  0  0  0  0  0  0  0  0  0  0  0
   54.5150   29.6726   53.1765 C   0  0  0  0  0  0  0  0  0  0  0  0
   53.8914   30.7225   52.6040 C   0  0  0  0  0  0  0  0  0  0  0  0
   52.8606   30.6374   51.5577 C   0  0  0  0  0  0  0  0  0  0  0  0
   52.9122   29.8081   50.4981 N   0  0  0  0  0  0  0  0  0  0  0  0
   51.8498   30.1887   49.7539 C   0  0  0  0  0  0  0  0  0  0  0  0
   51.5474   29.6266   48.6693 O   0  0  0  0  0  0  0  0  0  0  0  0
   51.1466   31.2239   50.2585 N   0  0  0  0  0  0  0  0  0  0  0  0
   51.8088   31.5042   51.3912 C   0  0  0  0  0  0  0  0  0  0  0  0
   51.4632   32.5378   52.2531 O   0  0  0  0  0  0  0  0  0  0  0  0
   57.5320   31.4297   53.1535 N   0  0  0  0  0  0  0  0  0  0  0  0
   57.7711   32.4732   52.1265 C   0  0  0  0  0  0  0  0  0  0  0  0
   58.7732   33.5224   52.6284 C   0  0  0  0  0  0  0  0  0  0  0  0
   60.0957   32.9316   52.9657 N   0  0  0  0  0  0  0  0  0  0  0  0
   60.0446   31.4722   53.2146 C   0  0  0  0  0  0  0  0  0  0  0  0
   58.7483   31.0777   53.9376 C   0  0  0  0  0  0  0  0  0  0  0  0
   57.8816   32.2645   53.5410 H   0  0  0  0  0  0  0  0  0  0  0  0
   61.1215   33.2443   51.9506 C   0  0  0  0  0  0  0  0  0  0  0  0
   60.6888   32.7524   50.5941 C   0  0  0  0  0  0  0  0  0  0  0  0
   60.1590   33.6419   49.6443 C   0  0  0  0  0  0  0  0  0  0  0  0
   59.7677   33.1750   48.3848 C   0  0  0  0  0  0  0  0  0  0  0  0
   59.9038   31.8218   48.0660 C   0  0  0  0  0  0  0  0  0  0  0  0
   60.4307   30.9308   49.0061 C   0  0  0  0  0  0  0  0  0  0  0  0
   60.5632   29.6176   48.6951 F   0  0  0  0  0  0  0  0  0  0  0  0
   60.8227   31.3928   50.2657 C   0  0  0  0  0  0  0  0  0  0  0  0
  3  4  2  0
  4  5  1  0
  5  6  1  0
  6  7  2  0
  7  1  1  0
  1  2  2  0
  1 17  1  0
 17 18  1  0
 18 19  1  0
 19 20  1  0
 20 24  1  0
 24 25  1  0
 25 26  2  0
 26 27  1  0
 27 28  2  0
 28 29  1  0
 29 30  1  0
 29 31  2  0
 20 21  1  0
 21 22  1  0
  7  8  1  0
  8  9  2  0
  9 10  1  0
 10 11  1  0
 11 12  1  0
 12 13  2  0
 12 14  1  0
 14 15  1  0
 15 16  1  0
  8  4  1  0
 15 10  2  0
 22 17  1  0
 31 25  1  0
 17 23  1  0
M  CHG 1  11  -1
M  CHG 1  14  -1
M  CHG 1  16  -1
M  CHG 1  17   1
M  END
> <UniqueID>
49

> <SMILES>
C=c1occ(C(=O)[NH+]2CCN(Cc3cccc(F)c3)CC2)c1=Cc1[n-]c(=O)[n-]c1[O-]

> <Energy>
139.80329279614978

> <Genealogy>
C=c1occ(C(=O)[NH+]2CCN(Cc3cccc(F)c3)CC2)c1=Cc1[n-]c(=O)[n-]c1[O-] (protonated)
C=c1occ(C(=O)[NH+]2CCN(Cc3cccc(F)c3)CC2)c1=Cc1[n-]c(=O)[n-]c1[O-] (3D coordinates assigned)
C=c1occ(C(=O)[NH+]2CCN(Cc3cccc(F)c3)CC2)c1=Cc1[n-]c(=O)[n-]c1[O-] (nonaromatic ring conformer: 139.80329279614978 kcal/mol)

> <smiles>
C=c1occ(C(=O)N2CCN(Cc3cccc(F)c3)CC2)c1=Cc1[nH]c(=O)[nH]c1O

> <score_type>
oracle

> <origin>
adg

> <m_score__min__energy>
-15.65

> <m_primary>
energy

> <minimizedAffinity>
-5.84807

> <minimizedRMSD>
1.23274

> <CNNscore>
0.2078448236

> <CNNaffinity>
5.5040092468

> <CNN_VS>
1.1439797878

> <CNNaffinity_variance>
0.1479634345

$$$$
50:0


 28 30  0  0  0  0  0  0  0  0999 V2000
   59.5286   29.7363   47.2994 C   0  0  0  0  0  0  0  0  0  0  0  0
   58.6848   29.4719   46.2885 C   0  0  0  0  0  0  0  0  0  0  0  0
   58.0703   28.2408   46.0200 C   0  0  0  0  0  0  0  0  0  0  0  0
   58.2124   27.0950   46.7226 C   0  0  0  0  0  0  0  0  0  0  0  0
   57.2662   28.4475   44.9057 C   0  0  0  0  0  0  0  0  0  0  0  0
   57.4189   29.7690   44.5437 C   0  0  0  0  0  0  0  0  0  0  0  0
   56.7178   30.4185   43.3880 C   0  0  0  0  0  0  0  0  0  0  0  0
   58.2928   30.3922   45.3674 N   0  0  0  0  0  0  0  0  0  0  0  0
   57.8664   25.7383   46.2426 C   0  0  0  0  0  0  0  0  0  0  0  0
   58.7376   24.7536   45.9557 N   0  0  0  0  0  0  0  0  0  0  0  0
   57.9420   23.7186   45.6076 C   0  0  0  0  0  0  0  0  0  0  0  0
   58.4003   22.5985   45.2633 O   0  0  0  0  0  0  0  0  0  0  0  0
   56.6195   23.9774   45.6614 N   0  0  0  0  0  0  0  0  0  0  0  0
   56.5900   25.2566   46.0696 C   0  0  0  0  0  0  0  0  0  0  0  0
   55.4160   25.9714   46.2798 O   0  0  0  0  0  0  0  0  0  0  0  0
   58.6656   31.8127   45.3037 C   0  0  0  0  0  0  0  0  0  0  0  0
   57.9033   32.6099   46.3645 C   0  0  0  0  0  0  0  0  0  0  0  0
   58.8575   33.2689   47.3130 C   0  0  0  0  0  0  0  0  0  0  0  0
   58.9666   34.5242   47.3046 O   0  0  0  0  0  0  0  0  0  0  0  0
   59.5680   32.4769   48.2774 N   0  0  0  0  0  0  0  0  0  0  0  0
   59.3194   31.5286   48.3684 H   0  0  0  0  0  0  0  0  0  0  0  0
   60.6200   32.9814   49.1191 C   0  0  0  0  0  0  0  0  0  0  0  0
   60.4960   32.8721   50.5138 C   0  0  0  0  0  0  0  0  0  0  0  0
   61.5149   33.3353   51.3536 C   0  0  0  0  0  0  0  0  0  0  0  0
   62.6706   33.8984   50.8057 C   0  0  0  0  0  0  0  0  0  0  0  0
   63.6588   34.3458   51.6212 F   0  0  0  0  0  0  0  0  0  0  0  0
   62.8137   33.9920   49.4196 C   0  0  0  0  0  0  0  0  0  0  0  0
   61.7969   33.5315   48.5772 C   0  0  0  0  0  0  0  0  0  0  0  0
  1  2  2  0
  2  3  1  0
  3  4  2  0
  4  9  1  0
  9 10  1  0
 10 11  1  0
 11 12  2  0
 11 13  1  0
 13 14  1  0
 14 15  1  0
  3  5  1  0
  5  6  2  0
  6  7  1  0
  6  8  1  0
  8 16  1  0
 16 17  1  0
 17 18  1  0
 18 19  2  0
 18 20  1  0
 20 22  1  0
 22 23  2  0
 23 24  1  0
 24 25  2  0
 25 26  1  0
 25 27  1  0
 27 28  2  0
  8  2  1  0
 28 22  1  0
 14  9  2  0
 20 21  1  0
M  CHG 1  10  -1
M  CHG 1  13  -1
M  CHG 1  15  -1
M  END
> <UniqueID>
50

> <SMILES>
C=c1/c(=C/c2[n-]c(=O)[n-]c2[O-])cc(C)n1CCC(=O)Nc1ccc(F)cc1

> <Energy>
106.33952594981996

> <Genealogy>
C=c1c(=Cc2[n-]c(=O)[n-]c2[O-])cc(C)n1CCC(=O)Nc1ccc(F)cc1 (protonated)
C=c1/c(=C/c2[n-]c(=O)[n-]c2[O-])cc(C)n1CCC(=O)Nc1ccc(F)cc1 (cis-trans isomerization)
C=c1/c(=C/c2[n-]c(=O)[n-]c2[O-])cc(C)n1CCC(=O)Nc1ccc(F)cc1 (3D coordinates assigned)
C=c1/c(=C/c2[n-]c(=O)[n-]c2[O-])cc(C)n1CCC(=O)Nc1ccc(F)cc1 (optimized conformer: 106.33952594981996 kcal/mol)

> <smiles>
C=c1c(=Cc2[nH]c(=O)[nH]c2O)cc(C)n1CCC(=O)Nc1ccc(F)cc1

> <score_type>
oracle

> <origin>
adg

> <m_score__min__energy>
-15.949999999999999

> <m_primary>
energy

> <minimizedAffinity>
-7.88231

> <minimizedRMSD>
1.30258

> <CNNscore>
0.1565959156

> <CNNaffinity>
6.3542332649

> <CNN_VS>
0.9950469732

> <CNNaffinity_variance>
0.1304618269

$$$$
62:0


 28 31  0  0  0  0  0  0  0  0999 V2000
   58.4826   27.9616   45.3190 C   0  0  0  0  0  0  0  0  0  0  0  0
   57.9681   27.4741   44.1043 C   0  0  0  0  0  0  0  0  0  0  0  0
   57.3643   28.3369   43.1897 C   0  0  0  0  0  0  0  0  0  0  0  0
   57.2737   29.6976   43.4689 C   0  0  0  0  0  0  0  0  0  0  0  0
   57.7561   30.1978   44.6775 C   0  0  0  0  0  0  0  0  0  0  0  0
   58.3272   29.3387   45.6389 C   0  0  0  0  0  0  0  0  0  0  0  0
   59.1986   27.0080   46.1926 C   0  0  0  0  0  0  0  0  0  0  0  0
   60.4353   27.1573   46.3898 O   0  0  0  0  0  0  0  0  0  0  0  0
   58.3736   22.7729   45.0851 C   0  0  0  0  0  0  0  0  0  0  0  0
   58.8140   23.8981   45.7074 N   0  0  0  0  0  0  0  0  0  0  0  0
   57.9691   24.8582   46.1772 C   0  0  0  0  0  0  0  0  0  0  0  0
   58.5022   25.8936   46.7677 N   0  0  0  0  0  0  0  0  0  0  0  0
   56.5739   24.6989   45.9634 C   0  0  0  0  0  0  0  0  0  0  0  0
   55.6498   25.6806   46.3001 O   0  0  0  0  0  0  0  0  0  0  0  0
   56.1091   23.5367   45.3422 C   0  0  0  0  0  0  0  0  0  0  0  0
   57.0086   22.5660   44.9025 C   0  0  0  0  0  0  0  0  0  0  0  0
   58.7643   29.9166   46.9749 C   0  0  0  0  0  0  0  0  0  0  0  0
   59.0970   31.3876   46.8849 C   0  0  0  0  0  0  0  0  0  0  0  0
   58.0834   32.2560   46.6217 N   0  0  0  0  0  0  0  0  0  0  0  0
   58.2763   33.5713   46.5432 N   0  0  0  0  0  0  0  0  0  0  0  0
   59.5014   34.1251   46.7242 C   0  0  0  0  0  0  0  0  0  0  0  0
   59.6303   35.3756   46.6396 O   0  0  0  0  0  0  0  0  0  0  0  0
   60.6017   33.2991   47.0026 C   0  0  0  0  0  0  0  0  0  0  0  0
   61.8883   33.8330   47.2010 C   0  0  0  0  0  0  0  0  0  0  0  0
   62.9666   32.9914   47.4773 C   0  0  0  0  0  0  0  0  0  0  0  0
   62.7749   31.6126   47.5585 C   0  0  0  0  0  0  0  0  0  0  0  0
   61.5066   31.0645   47.3634 C   0  0  0  0  0  0  0  0  0  0  0  0
   60.4012   31.8979   47.0854 C   0  0  0  0  0  0  0  0  0  0  0  0
  9 10  1  0
 10 11  1  0
 11 12  2  0
 12  7  1  0
  7  8  2  0
  7  1  1  0
  1  2  2  0
  2  3  1  0
  3  4  2  0
  4  5  1  0
  5  6  2  0
  6 17  1  0
 17 18  1  0
 18 19  2  0
 19 20  1  0
 20 21  1  0
 21 22  2  0
 21 23  1  0
 23 24  2  0
 24 25  1  0
 25 26  2  0
 26 27  1  0
 27 28  2  0
 11 13  1  0
 13 14  1  0
 13 15  2  0
 15 16  1  0
 16  9  2  0
  6  1  1  0
 28 18  1  0
 28 23  1  0
M  CHG 1  10  -1
M  CHG 1  14  -1
M  CHG 1  20  -1
M  END
> <UniqueID>
62

> <SMILES>
O=C(/N=c1/[n-]cccc1[O-])c1ccccc1Cc1n[n-]c(=O)c2ccccc12

> <Energy>
73.24963654504472

> <Genealogy>
O=C(N=c1[n-]cccc1[O-])c1ccccc1Cc1n[n-]c(=O)c2ccccc12 (protonated)
O=C(/N=c1/[n-]cccc1[O-])c1ccccc1Cc1n[n-]c(=O)c2ccccc12 (cis-trans isomerization)
O=C(/N=c1/[n-]cccc1[O-])c1ccccc1Cc1n[n-]c(=O)c2ccccc12 (3D coordinates assigned)
O=C(/N=c1/[n-]cccc1[O-])c1ccccc1Cc1n[n-]c(=O)c2ccccc12 (optimized conformer: 73.24963654504472 kcal/mol)

> <smiles>
O=C(N=c1[nH]cccc1O)c1ccccc1Cc1n[nH]c(=O)c2ccccc12

> <score_type>
oracle

> <origin>
adg

> <m_score__min__energy>
-14.890000000000001

> <m_primary>
energy

> <minimizedAffinity>
-8.67953

> <minimizedRMSD>
0.95804

> <CNNscore>
0.1056315005

> <CNNaffinity>
6.1881389618

> <CNN_VS>
0.6536623836

> <CNNaffinity_variance>
0.0006353169

$$$$
82:0


 27 29  0  0  0  0  0  0  0  0999 V2000
   57.7064   29.2582   43.8724 C   0  0  0  0  0  0  0  0  0  0  0  0
   57.8744   30.4056   44.5810 N   0  0  0  0  0  0  0  0  0  0  0  0
   58.2040   30.4037   45.8996 C   0  0  0  0  0  0  0  0  0  0  0  0
   58.3415   31.5509   46.5080 N   0  0  0  0  0  0  0  0  0  0  0  0
   58.4107   29.1690   46.5469 C   0  0  0  0  0  0  0  0  0  0  0  0
   58.2061   27.9620   45.8558 C   0  0  0  0  0  0  0  0  0  0  0  0
   57.8579   28.0199   44.4976 C   0  0  0  0  0  0  0  0  0  0  0  0
   59.4197   32.4974   46.3908 C   0  0  0  0  0  0  0  0  0  0  0  0
   59.2685   33.4893   45.6292 O   0  0  0  0  0  0  0  0  0  0  0  0
   60.6730   32.3779   47.1751 C   0  0  0  0  0  0  0  0  0  0  0  0
   61.7305   33.2861   46.9849 C   0  0  0  0  0  0  0  0  0  0  0  0
   62.8731   33.2170   47.7874 C   0  0  0  0  0  0  0  0  0  0  0  0
   62.9775   32.2373   48.7777 C   0  0  0  0  0  0  0  0  0  0  0  0
   64.4057   32.1605   49.7924 Cl  0  0  0  0  0  0  0  0  0  0  0  0
   61.9414   31.3166   48.9600 C   0  0  0  0  0  0  0  0  0  0  0  0
   60.7959   31.3818   48.1600 C   0  0  0  0  0  0  0  0  0  0  0  0
   58.2927   26.6488   46.5551 C   0  0  0  0  0  0  0  0  0  0  0  0
   58.9466   26.5529   47.6292 O   0  0  0  0  0  0  0  0  0  0  0  0
   57.7000   25.4196   45.9875 C   0  0  0  0  0  0  0  0  0  0  0  0
   56.3089   25.2772   45.8994 C   0  0  0  0  0  0  0  0  0  0  0  0
   55.4621   26.3014   46.3145 O   0  0  0  0  0  0  0  0  0  0  0  0
   55.7642   24.0920   45.4105 C   0  0  0  0  0  0  0  0  0  0  0  0
   56.6103   23.0508   45.0188 C   0  0  0  0  0  0  0  0  0  0  0  0
   56.1033   21.9725   44.6029 O   0  0  0  0  0  0  0  0  0  0  0  0
   57.9723   23.2005   45.0891 N   0  0  0  0  0  0  0  0  0  0  0  0
   58.8533   22.0898   44.7066 C   0  0  0  0  0  0  0  0  0  0  0  0
   58.5177   24.3657   45.5551 C   0  0  0  0  0  0  0  0  0  0  0  0
  1  2  1  0
  2  3  1  0
  3  4  2  0
  4  8  1  0
  8  9  2  0
  8 10  1  0
 10 11  2  0
 11 12  1  0
 12 13  2  0
 13 14  1  0
 13 15  1  0
 15 16  2  0
  3  5  1  0
  5  6  2  0
  6 17  1  0
 17 18  2  0
 17 19  1  0
 19 20  1  0
 20 21  1  0
 20 22  2  0
 22 23  1  0
 23 24  2  0
 23 25  1  0
 25 26  1  0
 25 27  1  0
  6  7  1  0
  7  1  2  0
 16 10  1  0
 27 19  2  0
M  CHG 1   2  -1
M  CHG 1  21  -1
M  END
> <UniqueID>
81

> <SMILES>
Cn1cc(C(=O)c2cc[n-]/c(=N/C(=O)c3ccc(Cl)cc3)c2)c([O-])cc1=O

> <Energy>
60.72003610347336

> <Genealogy>
Cn1cc(C(=O)c2cc[n-]c(=NC(=O)c3ccc(Cl)cc3)c2)c([O-])cc1=O (protonated)
Cn1cc(C(=O)c2cc[n-]/c(=N/C(=O)c3ccc(Cl)cc3)c2)c([O-])cc1=O (cis-trans isomerization)
Cn1cc(C(=O)c2cc[n-]/c(=N/C(=O)c3ccc(Cl)cc3)c2)c([O-])cc1=O (3D coordinates assigned)
Cn1cc(C(=O)c2cc[n-]/c(=N/C(=O)c3ccc(Cl)cc3)c2)c([O-])cc1=O (optimized conformer: 60.72003610347336 kcal/mol)

> <smiles>
Cn1cc(C(=O)c2cc[nH]c(=NC(=O)c3ccc(Cl)cc3)c2)c(O)cc1=O

> <score_type>
oracle

> <origin>
adg

> <m_score__min__energy>
-14.1

> <m_primary>
energy

> <minimizedAffinity>
-8.18883

> <minimizedRMSD>
1.13682

> <CNNscore>
0.2370830029

> <CNNaffinity>
6.2959709167

> <CNN_VS>
1.4926676750

> <CNNaffinity_variance>
0.0923634768

$$$$
89:0


 30 32  0  0  0  0  0  0  0  0999 V2000
   60.1979   26.7467   46.3553 C   0  0  0  0  0  0  0  0  0  0  0  0
   59.1402   27.3356   45.7740 C   0  0  0  0  0  0  0  0  0  0  0  0
   58.1181   26.7050   45.0456 C   0  0  0  0  0  0  0  0  0  0  0  0
   57.8020   25.4031   44.9029 C   0  0  0  0  0  0  0  0  0  0  0  0
   57.3826   27.7179   44.4547 C   0  0  0  0  0  0  0  0  0  0  0  0
   57.9259   28.9074   44.8839 C   0  0  0  0  0  0  0  0  0  0  0  0
   58.9826   28.6836   45.6998 N   0  0  0  0  0  0  0  0  0  0  0  0
   57.1345   24.5621   45.9112 C   0  0  0  0  0  0  0  0  0  0  0  0
   57.7272   23.5660   46.5964 N   0  0  0  0  0  0  0  0  0  0  0  0
   56.7820   23.2007   47.4912 C   0  0  0  0  0  0  0  0  0  0  0  0
   56.9585   22.2701   48.3195 O   0  0  0  0  0  0  0  0  0  0  0  0
   55.6395   23.9197   47.4373 N   0  0  0  0  0  0  0  0  0  0  0  0
   55.8881   24.7866   46.4414 C   0  0  0  0  0  0  0  0  0  0  0  0
   54.9951   25.7691   46.0306 O   0  0  0  0  0  0  0  0  0  0  0  0
   57.3706   30.2323   44.5650 C   0  0  0  0  0  0  0  0  0  0  0  0
   56.1509   30.4601   44.7764 O   0  0  0  0  0  0  0  0  0  0  0  0
   58.1941   31.2746   44.0224 N   0  0  0  0  0  0  0  0  0  0  0  0
   57.9097   32.7028   44.1571 C   0  0  0  0  0  0  0  0  0  0  0  0
   58.4835   33.2314   45.4475 C   0  0  0  0  0  0  0  0  0  0  0  0
   59.6123   34.0689   45.4166 C   0  0  0  0  0  0  0  0  0  0  0  0
   60.1928   34.5078   46.6113 C   0  0  0  0  0  0  0  0  0  0  0  0
   59.6471   34.1239   47.8424 C   0  0  0  0  0  0  0  0  0  0  0  0
   60.2166   34.5499   48.9993 F   0  0  0  0  0  0  0  0  0  0  0  0
   58.5219   33.2941   47.8799 C   0  0  0  0  0  0  0  0  0  0  0  0
   57.9331   32.8574   46.6872 C   0  0  0  0  0  0  0  0  0  0  0  0
   59.7986   29.7201   46.3474 C   0  0  0  0  0  0  0  0  0  0  0  0
   59.5719   29.7079   47.8614 C   0  0  0  0  0  0  0  0  0  0  0  0
   60.7130   30.4219   48.5968 C   0  0  0  0  0  0  0  0  0  0  0  0
   61.6327   31.1449   47.6062 C   0  0  0  0  0  0  0  0  0  0  0  0
   62.6734   31.9942   48.3332 C   0  0  0  0  0  0  0  0  0  0  0  0
  1  2  2  0
  2  3  1  0
  3  4  2  0
  4  8  1  0
  8  9  1  0
  9 10  1  0
 10 11  2  0
 10 12  1  0
 12 13  1  0
 13 14  1  0
  3  5  1  0
  5  6  2  0
  6 15  1  0
 15 16  2  0
 15 17  1  0
 17 18  1  0
 18 19  1  0
 19 20  2  0
 20 21  1  0
 21 22  2  0
 22 23  1  0
 22 24  1  0
 24 25  2  0
  6  7  1  0
  7 26  1  0
 26 27  1  0
 27 28  1  0
 28 29  1  0
 29 30  1  0
  7  2  1  0
 13  8  2  0
 25 19  1  0
M  CHG 1   9  -1
M  CHG 1  12  -1
M  CHG 1  14  -1
M  CHG 1  17  -1
M  END
> <UniqueID>
88

> <SMILES>
C=c1/c(=C\c2[n-]c(=O)[n-]c2[O-])cc(C(=O)[N-]Cc2ccc(F)cc2)n1CCCCC

> <Energy>
113.32309228668785

> <Genealogy>
C=c1c(=Cc2[n-]c(=O)[n-]c2[O-])cc(C(=O)[N-]Cc2ccc(F)cc2)n1CCCCC (protonated)
C=c1/c(=C\c2[n-]c(=O)[n-]c2[O-])cc(C(=O)[N-]Cc2ccc(F)cc2)n1CCCCC (cis-trans isomerization)
C=c1/c(=C\c2[n-]c(=O)[n-]c2[O-])cc(C(=O)[N-]Cc2ccc(F)cc2)n1CCCCC (3D coordinates assigned)
C=c1/c(=C\c2[n-]c(=O)[n-]c2[O-])cc(C(=O)[N-]Cc2ccc(F)cc2)n1CCCCC (optimized conformer: 113.32309228668785 kcal/mol)

> <smiles>
C=c1c(=Cc2[nH]c(=O)[nH]c2O)cc(C(=O)NCc2ccc(F)cc2)n1CCCCC

> <score_type>
oracle

> <origin>
adg

> <m_score__min__energy>
-17.52

> <m_primary>
energy

> <minimizedAffinity>
-8.35746

> <minimizedRMSD>
0.77832

> <CNNscore>
0.3858147562

> <CNNaffinity>
6.9187922478

> <CNN_VS>
2.6693720818

> <CNNaffinity_variance>
0.3513288498

$$$$
1:0


 29 32  0  0  0  0  0  0  0  0999 V2000
   57.3026   30.7606   43.9283 C   0  0  0  0  0  0  0  0  0  0  0  0
   57.7479   29.8641   44.8142 C   0  0  0  0  0  0  0  0  0  0  0  0
   57.7077   28.5457   44.4848 N   0  0  0  0  0  0  0  0  0  0  0  0
   58.1297   27.5607   45.3236 C   0  0  0  0  0  0  0  0  0  0  0  0
   58.0858   26.2714   44.9457 C   0  0  0  0  0  0  0  0  0  0  0  0
   58.6467   27.9101   46.5810 C   0  0  0  0  0  0  0  0  0  0  0  0
   58.7192   29.2580   46.9612 C   0  0  0  0  0  0  0  0  0  0  0  0
   58.2569   30.2483   46.0730 C   0  0  0  0  0  0  0  0  0  0  0  0
   58.3149   31.4680   46.3977 O   0  0  0  0  0  0  0  0  0  0  0  0
   59.2479   29.6095   48.3003 C   0  0  0  0  0  0  0  0  0  0  0  0
   58.4826   29.5420   49.3014 O   0  0  0  0  0  0  0  0  0  0  0  0
   60.6149   30.0249   48.4790 N   0  0  0  0  0  0  0  0  0  0  0  0
   61.2167   30.9735   47.5282 C   0  0  0  0  0  0  0  0  0  0  0  0
   62.5927   31.4618   48.0016 C   0  0  0  0  0  0  0  0  0  0  0  0
   62.5552   31.8064   49.4318 N   0  0  0  0  0  0  0  0  0  0  0  0
   63.3100   32.9340   49.9218 C   0  0  0  0  0  0  0  0  0  0  0  0
   64.1745   33.4845   49.1859 O   0  0  0  0  0  0  0  0  0  0  0  0
   61.8755   30.9119   50.3841 C   0  0  0  0  0  0  0  0  0  0  0  0
   61.3464   29.6521   49.6942 C   0  0  0  0  0  0  0  0  0  0  0  0
   63.1239   33.4421   51.3261 C   0  0  0  0  0  0  0  0  0  0  0  0
   64.1219   32.9109   52.3448 C   0  0  0  0  0  0  0  0  0  0  0  0
   64.2519   34.3310   51.8268 C   0  0  0  0  0  0  0  0  0  0  0  0
   57.4106   25.2019   45.7061 C   0  0  0  0  0  0  0  0  0  0  0  0
   58.0346   24.0741   46.0919 N   0  0  0  0  0  0  0  0  0  0  0  0
   57.0928   23.4145   46.7983 C   0  0  0  0  0  0  0  0  0  0  0  0
   57.3019   22.2902   47.3229 O   0  0  0  0  0  0  0  0  0  0  0  0
   55.9123   24.0582   46.9051 N   0  0  0  0  0  0  0  0  0  0  0  0
   56.1287   25.1924   46.2183 C   0  0  0  0  0  0  0  0  0  0  0  0
   55.1907   26.2118   46.1139 O   0  0  0  0  0  0  0  0  0  0  0  0
  1  2  2  0
  2  3  1  0
  3  4  1  0
  4  5  2  0
  5 23  1  0
 23 24  1  0
 24 25  1  0
 25 26  2  0
 25 27  1  0
 27 28  1  0
 28 29  1  0
  4  6  1  0
  6  7  2  0
  7 10  1  0
 10 11  2  0
 10 12  1  0
 12 13  1  0
 13 14  1  0
 14 15  1  0
 15 16  1  0
 16 17  2  0
 16 20  1  0
 20 21  1  0
 21 22  1  0
 15 18  1  0
 18 19  1  0
  7  8  1  0
  8  9  2  0
  8  2  1  0
 28 23  2  0
 19 12  1  0
 22 20  1  0
M  CHG 1   3  -1
M  CHG 1  24  -1
M  CHG 1  27  -1
M  CHG 1  29  -1
M  END
> <UniqueID>
2

> <SMILES>
C=c1[n-]c(=Cc2[n-]c(=O)[n-]c2[O-])cc(C(=O)N2CCN(C(=O)C3CC3)CC2)c1=O

> <Energy>
355.26244804088975

> <Genealogy>
C=c1[n-]c(=Cc2[n-]c(=O)[n-]c2[O-])cc(C(=O)N2CCN(C(=O)C3CC3)CC2)c1=O (protonated)
C=c1[n-]c(=Cc2[n-]c(=O)[n-]c2[O-])cc(C(=O)N2CCN(C(=O)C3CC3)CC2)c1=O (3D coordinates assigned)
C=c1[n-]c(=Cc2[n-]c(=O)[n-]c2[O-])cc(C(=O)N2CCN(C(=O)C3CC3)CC2)c1=O (nonaromatic ring conformer: 355.26244804088975 kcal/mol)

> <smiles>
C=c1[nH]c(=Cc2[nH]c(=O)[nH]c2O)cc(C(=O)N2CCN(C(=O)C3CC3)CC2)c1=O

> <score_type>
oracle

> <origin>
adg

> <m_score__min__energy>
-18.390000000000001

> <m_primary>
energy

> <minimizedAffinity>
-8.35193

> <minimizedRMSD>
0.76730

> <CNNscore>
0.1790552884

> <CNNaffinity>
6.3486685753

> <CNN_VS>
1.1367627382

> <CNNaffinity_variance>
0.0361148790

$$$$
8:0


 31 33  0  0  0  0  0  0  0  0999 V2000
   58.8183   26.3082   46.7340 C   0  0  0  0  0  0  0  0  0  0  0  0
   57.6183   27.0305   46.7729 C   0  0  0  0  0  0  0  0  0  0  0  0
   57.6139   28.4082   46.5408 C   0  0  0  0  0  0  0  0  0  0  0  0
   58.8082   29.0774   46.2374 C   0  0  0  0  0  0  0  0  0  0  0  0
   60.0091   28.3545   46.1813 C   0  0  0  0  0  0  0  0  0  0  0  0
   60.0156   26.9759   46.4128 C   0  0  0  0  0  0  0  0  0  0  0  0
   61.1811   26.2951   46.2826 F   0  0  0  0  0  0  0  0  0  0  0  0
   58.8022   30.5343   46.0009 C   0  0  0  0  0  0  0  0  0  0  0  0
   59.5542   31.3526   46.8600 C   0  0  0  0  0  0  0  0  0  0  0  0
   59.6046   32.7322   46.6611 C   0  0  0  0  0  0  0  0  0  0  0  0
   58.9045   33.3104   45.6037 C   0  0  0  0  0  0  0  0  0  0  0  0
   58.1427   32.5133   44.7474 C   0  0  0  0  0  0  0  0  0  0  0  0
   58.0704   31.1233   44.9403 C   0  0  0  0  0  0  0  0  0  0  0  0
   57.0421   30.1696   43.8583 S   0  0  0  0  0  0  0  0  0  0  0  0
   55.5191   29.8646   44.6149 N   0  0  0  0  0  0  0  0  0  0  0  0
   57.7061   28.8579   43.5465 O   0  0  0  0  0  0  0  0  0  0  0  0
   56.8245   30.9060   42.5661 O   0  0  0  0  0  0  0  0  0  0  0  0
   55.6690   29.3649   45.4914 H   0  0  0  0  0  0  0  0  0  0  0  0
   58.7801   24.8972   46.9823 N   0  0  0  0  0  0  0  0  0  0  0  0
   57.6669   24.0244   46.7403 C   0  0  0  0  0  0  0  0  0  0  0  0
   57.0962   23.4896   47.7274 O   0  0  0  0  0  0  0  0  0  0  0  0
   55.9709   23.7413   44.9265 C   0  0  0  0  0  0  0  0  0  0  0  0
   57.2507   23.6508   45.3647 C   0  0  0  0  0  0  0  0  0  0  0  0
   58.2914   23.0849   44.4227 C   0  0  0  0  0  0  0  0  0  0  0  0
   57.7905   21.7960   43.7501 C   0  0  0  0  0  0  0  0  0  0  0  0
   56.3106   21.8583   43.3015 C   0  0  0  0  0  0  0  0  0  0  0  0
   55.6542   23.2273   43.5399 C   0  0  0  0  0  0  0  0  0  0  0  0
   54.8358   25.8214   45.8259 N   0  0  0  0  0  0  0  0  0  0  0  0
   54.8884   24.4010   45.6996 C   0  0  0  0  0  0  0  0  0  0  0  0
   53.9715   23.7054   46.2125 O   0  0  0  0  0  0  0  0  0  0  0  0
   54.1113   26.2432   46.3421 H   0  0  0  0  0  0  0  0  0  0  0  0
 28 29  1  0
 29 30  2  0
 29 22  1  0
 22 23  2  0
 23 20  1  0
 20 21  2  0
 20 19  1  0
 19  1  1  0
  1  2  2  0
  2  3  1  0
  3  4  2  0
  4  8  1  0
  8  9  2  0
  9 10  1  0
 10 11  2  0
 11 12  1  0
 12 13  2  0
 13 14  1  0
 14 15  1  0
 14 16  2  0
 14 17  2  0
  4  5  1  0
  5  6  2  0
  6  7  1  0
 23 24  1  0
 24 25  1  0
 25 26  1  0
 26 27  1  0
 27 22  1  0
  6  1  1  0
 13  8  1  0
 28 31  1  0
 15 18  1  0
M  CHG 1  15  -1
M  CHG 1  19  -1
M  CHG 1  28  -1
M  END
> <UniqueID>
9

> <SMILES>
[NH-]C(=O)C1=C(C(=O)[N-]c2ccc(-c3ccccc3S([NH-])(=O)=O)cc2F)CCCC1

> <Energy>
72.30541971659406

> <Genealogy>
[NH-]C(=O)C1=C(C(=O)[N-]c2ccc(-c3ccccc3S([NH-])(=O)=O)cc2F)CCCC1 (protonated)
[NH-]C(=O)C1=C(C(=O)[N-]c2ccc(-c3ccccc3S([NH-])(=O)=O)cc2F)CCCC1 (3D coordinates assigned)
[NH-]C(=O)C1=C(C(=O)[N-]c2ccc(-c3ccccc3S([NH-])(=O)=O)cc2F)CCCC1 (nonaromatic ring conformer: 72.30541971659406 kcal/mol)

> <smiles>
NC(=O)C1=C(C(=O)Nc2ccc(-c3ccccc3S(N)(=O)=O)cc2F)CCCC1

> <score_type>
oracle

> <origin>
adg

> <m_score__min__energy>
-16.77

> <m_primary>
energy

> <minimizedAffinity>
-8.45079

> <minimizedRMSD>
0.49634

> <CNNscore>
0.8697044849

> <CNNaffinity>
7.1660919189

> <CNN_VS>
6.2323822975

> <CNNaffinity_variance>
0.0621123649

$$$$
19:0


 26 28  0  0  0  0  0  0  0  0999 V2000
   56.9691   30.3951   43.4062 C   0  0  0  0  0  0  0  0  0  0  0  0
   57.6710   30.7167   44.4962 C   0  0  0  0  0  0  0  0  0  0  0  0
   57.5338   31.8849   45.0831 O   0  0  0  0  0  0  0  0  0  0  0  0
   58.3892   31.9699   46.0741 C   0  0  0  0  0  0  0  0  0  0  0  0
   59.1170   30.8014   46.1722 C   0  0  0  0  0  0  0  0  0  0  0  0
   58.6517   29.9722   45.1672 C   0  0  0  0  0  0  0  0  0  0  0  0
   59.1050   28.7197   44.9784 C   0  0  0  0  0  0  0  0  0  0  0  0
   58.5752   27.5109   45.6351 C   0  0  0  0  0  0  0  0  0  0  0  0
   57.1949   27.2608   45.6888 C   0  0  0  0  0  0  0  0  0  0  0  0
   56.2927   28.1292   45.0844 O   0  0  0  0  0  0  0  0  0  0  0  0
   56.7298   26.1616   46.3383 N   0  0  0  0  0  0  0  0  0  0  0  0
   57.5816   25.3022   46.9558 C   0  0  0  0  0  0  0  0  0  0  0  0
   57.1284   24.2882   47.5483 O   0  0  0  0  0  0  0  0  0  0  0  0
   58.9181   25.5377   46.9403 N   0  0  0  0  0  0  0  0  0  0  0  0
   59.4319   26.6221   46.3027 C   0  0  0  0  0  0  0  0  0  0  0  0
   60.6768   26.8144   46.3139 O   0  0  0  0  0  0  0  0  0  0  0  0
   58.4934   33.1411   46.9575 C   0  0  0  0  0  0  0  0  0  0  0  0
   57.6242   33.2960   47.8558 O   0  0  0  0  0  0  0  0  0  0  0  0
   59.5149   34.1356   46.8083 N   0  0  0  0  0  0  0  0  0  0  0  0
   60.9170   33.8781   46.4831 C   0  0  0  0  0  0  0  0  0  0  0  0
   61.6969   33.4551   47.6990 C   0  0  0  0  0  0  0  0  0  0  0  0
   61.3612   33.9666   48.9651 C   0  0  0  0  0  0  0  0  0  0  0  0
   62.0668   33.5562   50.1005 C   0  0  0  0  0  0  0  0  0  0  0  0
   63.0962   32.6203   49.9869 C   0  0  0  0  0  0  0  0  0  0  0  0
   63.4197   32.0849   48.7365 C   0  0  0  0  0  0  0  0  0  0  0  0
   62.7187   32.4934   47.5961 C   0  0  0  0  0  0  0  0  0  0  0  0
  1  2  2  0
  2  3  1  0
  3  4  1  0
  4 17  1  0
 17 18  2  0
 17 19  1  0
 19 20  1  0
 20 21  1  0
 21 22  2  0
 22 23  1  0
 23 24  2  0
 24 25  1  0
 25 26  2  0
  4  5  2  0
  5  6  1  0
  6  7  2  0
  7  8  1  0
  8  9  2  0
  9 10  1  0
  9 11  1  0
 11 12  1  0
 12 13  2  0
 12 14  1  0
 14 15  1  0
 15 16  2  0
  6  2  1  0
 15  8  1  0
 26 21  1  0
M  CHG 1  10  -1
M  CHG 1  11  -1
M  CHG 1  14  -1
M  CHG 1  19  -1
M  END
> <UniqueID>
20

> <SMILES>
C=c1oc(C(=O)[N-]Cc2ccccc2)c/c1=C/c1c([O-])[n-]c(=O)[n-]c1=O

> <Energy>
84.85568480972819

> <Genealogy>
C=c1oc(C(=O)[N-]Cc2ccccc2)cc1=Cc1c([O-])[n-]c(=O)[n-]c1=O (protonated)
C=c1oc(C(=O)[N-]Cc2ccccc2)c/c1=C/c1c([O-])[n-]c(=O)[n-]c1=O (cis-trans isomerization)
C=c1oc(C(=O)[N-]Cc2ccccc2)c/c1=C/c1c([O-])[n-]c(=O)[n-]c1=O (3D coordinates assigned)
C=c1oc(C(=O)[N-]Cc2ccccc2)c/c1=C/c1c([O-])[n-]c(=O)[n-]c1=O (optimized conformer: 84.85568480972819 kcal/mol)

> <smiles>
C=c1oc(C(=O)NCc2ccccc2)cc1=Cc1c(O)[nH]c(=O)[nH]c1=O

> <score_type>
oracle

> <origin>
adg

> <m_score__min__energy>
-16.850000000000001

> <m_primary>
energy

> <minimizedAffinity>
-7.51871

> <minimizedRMSD>
1.13105

> <CNNscore>
0.2951179743

> <CNNaffinity>
6.2122421265

> <CNN_VS>
1.8333443403

> <CNNaffinity_variance>
0.0237940494

$$$$
30:0


 33 36  0  0  0  0  0  0  0  0999 V2000
   57.9148   30.9340   44.0933 C   0  0  0  0  0  0  0  0  0  0  0  0
   58.4360   31.1018   45.3205 C   0  0  0  0  0  0  0  0  0  0  0  0
   59.3378   30.2426   45.9717 C   0  0  0  0  0  0  0  0  0  0  0  0
   59.7517   28.9916   45.6795 C   0  0  0  0  0  0  0  0  0  0  0  0
   59.7556   30.9114   47.1060 C   0  0  0  0  0  0  0  0  0  0  0  0
   59.0571   32.0994   47.1550 C   0  0  0  0  0  0  0  0  0  0  0  0
   58.2540   32.2277   46.0681 N   0  0  0  0  0  0  0  0  0  0  0  0
   58.9806   27.7530   45.8856 C   0  0  0  0  0  0  0  0  0  0  0  0
   59.5191   26.5510   46.1689 N   0  0  0  0  0  0  0  0  0  0  0  0
   58.4550   25.7196   46.1351 C   0  0  0  0  0  0  0  0  0  0  0  0
   58.5522   24.4898   46.3739 O   0  0  0  0  0  0  0  0  0  0  0  0
   57.2859   26.3072   45.8082 N   0  0  0  0  0  0  0  0  0  0  0  0
   57.6417   27.5905   45.6376 C   0  0  0  0  0  0  0  0  0  0  0  0
   56.7528   28.5980   45.2749 O   0  0  0  0  0  0  0  0  0  0  0  0
   55.8506   28.3950   45.1244 H   0  0  0  0  0  0  0  0  0  0  0  0
   59.1711   33.0620   48.2703 C   0  0  0  0  0  0  0  0  0  0  0  0
   59.3007   34.2900   48.0266 O   0  0  0  0  0  0  0  0  0  0  0  0
   59.2082   32.5980   49.6344 N   0  0  0  0  0  0  0  0  0  0  0  0
   60.1084   33.2399   50.5920 C   0  0  0  0  0  0  0  0  0  0  0  0
   60.0399   32.5384   51.9519 C   0  0  0  0  0  0  0  0  0  0  0  0
   60.0938   31.0649   51.8213 N   0  0  0  0  0  0  0  0  0  0  0  0
   59.1006   30.4912   50.8756 C   0  0  0  0  0  0  0  0  0  0  0  0
   58.3031   31.5451   50.1001 C   0  0  0  0  0  0  0  0  0  0  0  0
   61.4680   30.5890   51.5619 C   0  0  0  0  0  0  0  0  0  0  0  0
   61.7368   30.4446   50.0530 C   0  0  0  0  0  0  0  0  0  0  0  0
   62.4475   31.6293   49.5222 N   0  0  0  0  0  0  0  0  0  0  0  0
   62.5752   31.5746   48.0461 C   0  0  0  0  0  0  0  0  0  0  0  0
   63.6479   32.5480   47.5427 C   0  0  0  0  0  0  0  0  0  0  0  0
   63.8608   33.5865   48.4764 O   0  0  0  0  0  0  0  0  0  0  0  0
   64.4518   33.0686   49.6535 C   0  0  0  0  0  0  0  0  0  0  0  0
   63.7734   31.7676   50.1453 C   0  0  0  0  0  0  0  0  0  0  0  0
   57.2541   33.2903   45.8524 C   0  0  0  0  0  0  0  0  0  0  0  0
   57.8447   34.4083   44.9996 C   0  0  0  0  0  0  0  0  0  0  0  0
  1  2  2  0
  2  3  1  0
  3  4  2  0
  4  8  1  0
  8  9  1  0
  9 10  1  0
 10 11  2  0
 10 12  1  0
 12 13  1  0
 13 14  1  0
  3  5  1  0
  5  6  2  0
  6 16  1  0
 16 17  2  0
 16 18  1  0
 18 19  1  0
 19 20  1  0
 20 21  1  0
 21 24  1  0
 24 25  1  0
 25 26  1  0
 26 27  1  0
 27 28  1  0
 28 29  1  0
 29 30  1  0
 30 31  1  0
 21 22  1  0
 22 23  1  0
  6  7  1  0
  7 32  1  0
 32 33  1  0
  7  2  1  0
 13  8  2  0
 23 18  1  0
 31 26  1  0
 14 15  1  0
M  CHG 1   9  -1
M  CHG 1  12  -1
M  END
> <UniqueID>
31

> <SMILES>
C=c1c(=Cc2[n-]c(=O)[n-]c2O)cc(C(=O)N2CCN(CCN3CCOCC3)CC2)n1CC

> <Energy>
152.4987515094007

> <Genealogy>
C=c1c(=Cc2[n-]c(=O)[n-]c2O)cc(C(=O)N2CCN(CCN3CCOCC3)CC2)n1CC (protonated)
C=c1c(=Cc2[n-]c(=O)[n-]c2O)cc(C(=O)N2CCN(CCN3CCOCC3)CC2)n1CC (3D coordinates assigned)
C=c1c(=Cc2[n-]c(=O)[n-]c2O)cc(C(=O)N2CCN(CCN3CCOCC3)CC2)n1CC (nonaromatic ring conformer: 152.4987515094007 kcal/mol)

> <smiles>
C=c1c(=Cc2[nH]c(=O)[nH]c2O)cc(C(=O)N2CCN(CCN3CCOCC3)CC2)n1CC

> <score_type>
oracle

> <origin>
adg

> <m_score__min__energy>
-14.210000000000001

> <m_primary>
energy

> <minimizedAffinity>
-8.19605

> <minimizedRMSD>
0.99578

> <CNNscore>
0.4302389026

> <CNNaffinity>
6.7751021385

> <CNN_VS>
2.9149124622

> <CNNaffinity_variance>
0.0625244677

$$$$
32:0


 32 35  0  0  0  0  0  0  0  0999 V2000
   58.1988   26.8924   43.0497 C   0  0  0  0  0  0  0  0  0  0  0  0
   58.3647   26.5513   44.3376 C   0  0  0  0  0  0  0  0  0  0  0  0
   57.7923   25.4456   44.9848 C   0  0  0  0  0  0  0  0  0  0  0  0
   56.9600   24.5327   44.4391 C   0  0  0  0  0  0  0  0  0  0  0  0
   58.2465   25.4964   46.2989 C   0  0  0  0  0  0  0  0  0  0  0  0
   59.0581   26.6082   46.4002 C   0  0  0  0  0  0  0  0  0  0  0  0
   59.7861   27.0104   47.6504 C   0  0  0  0  0  0  0  0  0  0  0  0
   59.1350   27.2516   45.2120 N   0  0  0  0  0  0  0  0  0  0  0  0
   55.8017   23.9028   45.1133 C   0  0  0  0  0  0  0  0  0  0  0  0
   55.5528   22.5834   45.1954 N   0  0  0  0  0  0  0  0  0  0  0  0
   54.4036   22.5196   45.8990 C   0  0  0  0  0  0  0  0  0  0  0  0
   53.8445   21.4294   46.1873 O   0  0  0  0  0  0  0  0  0  0  0  0
   53.8973   23.7160   46.2699 N   0  0  0  0  0  0  0  0  0  0  0  0
   54.7960   24.5802   45.7642 C   0  0  0  0  0  0  0  0  0  0  0  0
   54.7038   25.9614   45.9001 O   0  0  0  0  0  0  0  0  0  0  0  0
   53.9813   26.3396   46.3615 H   0  0  0  0  0  0  0  0  0  0  0  0
   59.8692   28.5004   44.9471 C   0  0  0  0  0  0  0  0  0  0  0  0
   58.9502   29.6887   45.0584 C   0  0  0  0  0  0  0  0  0  0  0  0
   57.9378   29.9024   44.1093 C   0  0  0  0  0  0  0  0  0  0  0  0
   57.0946   31.0111   44.2185 C   0  0  0  0  0  0  0  0  0  0  0  0
   57.2561   31.9161   45.2696 C   0  0  0  0  0  0  0  0  0  0  0  0
   58.2482   31.7049   46.2368 C   0  0  0  0  0  0  0  0  0  0  0  0
   59.1076   30.6025   46.1131 C   0  0  0  0  0  0  0  0  0  0  0  0
   58.3828   32.6409   47.3156 N   0  0  0  0  0  0  0  0  0  0  0  0
   59.4655   33.5665   47.4881 C   0  0  0  0  0  0  0  0  0  0  0  0
   59.2074   34.7986   47.4846 O   0  0  0  0  0  0  0  0  0  0  0  0
   60.8597   33.1142   47.7219 C   0  0  0  0  0  0  0  0  0  0  0  0
   61.1618   32.2136   48.7631 C   0  0  0  0  0  0  0  0  0  0  0  0
   62.4835   31.8174   48.9950 C   0  0  0  0  0  0  0  0  0  0  0  0
   63.5157   32.3238   48.2010 C   0  0  0  0  0  0  0  0  0  0  0  0
   63.2291   33.2133   47.1622 C   0  0  0  0  0  0  0  0  0  0  0  0
   61.9083   33.6131   46.9259 C   0  0  0  0  0  0  0  0  0  0  0  0
  1  2  2  0
  2  3  1  0
  3  4  2  0
  4  9  1  0
  9 10  1  0
 10 11  1  0
 11 12  2  0
 11 13  1  0
 13 14  1  0
 14 15  1  0
  3  5  1  0
  5  6  2  0
  6  7  1  0
  6  8  1  0
  8 17  1  0
 17 18  1  0
 18 19  2  0
 19 20  1  0
 20 21  2  0
 21 22  1  0
 22 24  1  0
 24 25  1  0
 25 26  2  0
 25 27  1  0
 27 28  2  0
 28 29  1  0
 29 30  2  0
 30 31  1  0
 31 32  2  0
 22 23  2  0
  8  2  1  0
 23 18  1  0
 14  9  2  0
 32 27  1  0
 15 16  1  0
M  CHG 1  10  -1
M  CHG 1  13  -1
M  CHG 1  24  -1
M  END
> <UniqueID>
33

> <SMILES>
C=c1c(=Cc2[n-]c(=O)[n-]c2O)cc(C)n1Cc1cccc([N-]C(=O)c2ccccc2)c1

> <Energy>
115.9388464842096

> <Genealogy>
C=c1c(=Cc2[n-]c(=O)[n-]c2O)cc(C)n1Cc1cccc([N-]C(=O)c2ccccc2)c1 (protonated)
C=c1c(=Cc2[n-]c(=O)[n-]c2O)cc(C)n1Cc1cccc([N-]C(=O)c2ccccc2)c1 (3D coordinates assigned)
C=c1c(=Cc2[n-]c(=O)[n-]c2O)cc(C)n1Cc1cccc([N-]C(=O)c2ccccc2)c1 (optimized conformer: 115.9388464842096 kcal/mol)

> <smiles>
C=c1c(=Cc2[nH]c(=O)[nH]c2O)cc(C)n1Cc1cccc(NC(=O)c2ccccc2)c1

> <score_type>
oracle

> <origin>
adg

> <m_score__min__energy>
-15.470000000000001

> <m_primary>
energy

> <minimizedAffinity>
-9.67328

> <minimizedRMSD>
0.51200

> <CNNscore>
0.2754878700

> <CNNaffinity>
6.8262195587

> <CNN_VS>
1.8805407286

> <CNNaffinity_variance>
0.0127707077

$$$$
37:0


 28 30  0  0  0  0  0  0  0  0999 V2000
   53.9545   27.6707   53.6468 C   0  0  0  0  0  0  0  0  0  0  0  0
   54.8788   28.6114   53.4403 C   0  0  0  0  0  0  0  0  0  0  0  0
   56.1635   28.3512   53.4389 O   0  0  0  0  0  0  0  0  0  0  0  0
   56.8340   29.4594   53.2080 C   0  0  0  0  0  0  0  0  0  0  0  0
   55.9425   30.5136   53.0559 C   0  0  0  0  0  0  0  0  0  0  0  0
   54.6765   29.9670   53.2041 C   0  0  0  0  0  0  0  0  0  0  0  0
   53.4977   30.6049   53.0751 C   0  0  0  0  0  0  0  0  0  0  0  0
   52.7438   30.6795   51.8131 C   0  0  0  0  0  0  0  0  0  0  0  0
   52.8680   29.7848   50.8184 N   0  0  0  0  0  0  0  0  0  0  0  0
   51.9265   30.1713   49.9301 C   0  0  0  0  0  0  0  0  0  0  0  0
   51.7410   29.5777   48.8369 O   0  0  0  0  0  0  0  0  0  0  0  0
   51.1925   31.2391   50.3124 N   0  0  0  0  0  0  0  0  0  0  0  0
   51.7147   31.5416   51.5106 C   0  0  0  0  0  0  0  0  0  0  0  0
   51.2255   32.5488   52.3317 O   0  0  0  0  0  0  0  0  0  0  0  0
   58.3151   29.4630   53.1082 C   0  0  0  0  0  0  0  0  0  0  0  0
   58.9202   28.4561   53.5697 O   0  0  0  0  0  0  0  0  0  0  0  0
   59.1029   30.5464   52.5417 N   0  0  0  0  0  0  0  0  0  0  0  0
   60.5475   30.2245   52.4533 C   0  0  0  0  0  0  0  0  0  0  0  0
   61.2088   30.9099   51.2648 C   0  0  0  0  0  0  0  0  0  0  0  0
   60.5805   30.4198   50.0303 N   0  0  0  0  0  0  0  0  0  0  0  0
   59.1208   30.7025   49.9760 C   0  0  0  0  0  0  0  0  0  0  0  0
   58.4814   31.1267   51.3192 C   0  0  0  0  0  0  0  0  0  0  0  0
   59.9431   30.1827   52.9035 H   0  0  0  0  0  0  0  0  0  0  0  0
   61.2958   30.9205   48.8378 C   0  0  0  0  0  0  0  0  0  0  0  0
   60.7831   32.3181   48.4521 C   0  0  0  0  0  0  0  0  0  0  0  0
   60.5063   32.4685   46.9403 C   0  0  0  0  0  0  0  0  0  0  0  0
   59.2130   31.7569   46.5162 C   0  0  0  0  0  0  0  0  0  0  0  0
   60.4258   33.9554   46.5705 C   0  0  0  0  0  0  0  0  0  0  0  0
  1  2  2  0
  2  3  1  0
  3  4  1  0
  4 15  1  0
 15 16  2  0
 15 17  1  0
 17 18  1  0
 18 19  1  0
 19 20  1  0
 20 24  1  0
 24 25  1  0
 25 26  1  0
 26 27  1  0
 26 28  1  0
 20 21  1  0
 21 22  1  0
  4  5  2  0
  5  6  1  0
  6  7  2  0
  7  8  1  0
  8  9  1  0
  9 10  1  0
 10 11  2  0
 10 12  1  0
 12 13  1  0
 13 14  1  0
  6  2  1  0
 13  8  2  0
 22 17  1  0
 17 23  1  0
M  CHG 1   9  -1
M  CHG 1  12  -1
M  CHG 1  14  -1
M  CHG 1  17   1
M  END
> <UniqueID>
38

> <SMILES>
C=c1oc(C(=O)[NH+]2CCN(CCC(C)C)CC2)c/c1=C\c1[n-]c(=O)[n-]c1[O-]

> <Energy>
128.1296955702392

> <Genealogy>
C=c1oc(C(=O)[NH+]2CCN(CCC(C)C)CC2)cc1=Cc1[n-]c(=O)[n-]c1[O-] (protonated)
C=c1oc(C(=O)[NH+]2CCN(CCC(C)C)CC2)c/c1=C\c1[n-]c(=O)[n-]c1[O-] (cis-trans isomerization)
C=c1oc(C(=O)[NH+]2CCN(CCC(C)C)CC2)c/c1=C\c1[n-]c(=O)[n-]c1[O-] (3D coordinates assigned)
C=c1oc(C(=O)[NH+]2CCN(CCC(C)C)CC2)c/c1=C\c1[n-]c(=O)[n-]c1[O-] (nonaromatic ring conformer: 128.1296955702392 kcal/mol)

> <smiles>
C=c1oc(C(=O)N2CCN(CCC(C)C)CC2)cc1=Cc1[nH]c(=O)[nH]c1O

> <score_type>
oracle

> <origin>
adg

> <m_score__min__energy>
-16.050000000000001

> <m_primary>
energy

> <minimizedAffinity>
-5.52709

> <minimizedRMSD>
1.68500

> <CNNscore>
0.0761304423

> <CNNaffinity>
5.5947661400

> <CNN_VS>
0.4259320199

> <CNNaffinity_variance>
0.0134359673

$$$$
47:0


 29 32  0  0  0  0  0  0  0  0999 V2000
   57.8782   30.9678   52.3415 C   0  0  0  0  0  0  0  0  0  0  0  0
   58.0044   32.1931   52.6542 O   0  0  0  0  0  0  0  0  0  0  0  0
   54.8087   27.6918   53.8101 C   0  0  0  0  0  0  0  0  0  0  0  0
   55.2009   28.8335   53.2327 C   0  0  0  0  0  0  0  0  0  0  0  0
   56.4739   29.0840   53.0170 O   0  0  0  0  0  0  0  0  0  0  0  0
   56.5891   30.3366   52.6279 C   0  0  0  0  0  0  0  0  0  0  0  0
   55.3507   30.9494   52.5677 C   0  0  0  0  0  0  0  0  0  0  0  0
   54.4297   29.9645   52.8821 C   0  0  0  0  0  0  0  0  0  0  0  0
   53.0968   30.1549   52.7741 C   0  0  0  0  0  0  0  0  0  0  0  0
   52.3309   30.3791   51.5267 C   0  0  0  0  0  0  0  0  0  0  0  0
   52.3410   29.5873   50.4310 N   0  0  0  0  0  0  0  0  0  0  0  0
   51.5548   30.2464   49.5434 C   0  0  0  0  0  0  0  0  0  0  0  0
   51.2895   29.7995   48.3847 O   0  0  0  0  0  0  0  0  0  0  0  0
   51.0800   31.4297   49.9865 N   0  0  0  0  0  0  0  0  0  0  0  0
   51.5966   31.5033   51.2337 C   0  0  0  0  0  0  0  0  0  0  0  0
   51.4022   32.5803   52.0956 O   0  0  0  0  0  0  0  0  0  0  0  0
   58.9914   30.2605   51.7293 N   0  0  0  0  0  0  0  0  0  0  0  0
   58.8413   29.9999   50.2688 C   0  0  0  0  0  0  0  0  0  0  0  0
   59.2177   31.1964   49.3747 C   0  0  0  0  0  0  0  0  0  0  0  0
   60.4650   31.8120   49.8304 N   0  0  0  0  0  0  0  0  0  0  0  0
   60.6028   32.1306   51.2467 C   0  0  0  0  0  0  0  0  0  0  0  0
   60.2956   30.8783   52.0798 C   0  0  0  0  0  0  0  0  0  0  0  0
   58.9989   30.5665   52.6650 H   0  0  0  0  0  0  0  0  0  0  0  0
   61.3616   32.4038   48.8650 C   0  0  0  0  0  0  0  0  0  0  0  0
   60.8413   33.0385   47.7199 C   0  0  0  0  0  0  0  0  0  0  0  0
   61.6995   33.5917   46.7627 C   0  0  0  0  0  0  0  0  0  0  0  0
   63.0853   33.5281   46.9457 C   0  0  0  0  0  0  0  0  0  0  0  0
   63.6138   32.9126   48.0877 C   0  0  0  0  0  0  0  0  0  0  0  0
   62.7560   32.3505   49.0466 C   0  0  0  0  0  0  0  0  0  0  0  0
  3  4  2  0
  4  5  1  0
  5  6  1  0
  6  1  1  0
  1  2  2  0
  1 17  1  0
 17 18  1  0
 18 19  1  0
 19 20  1  0
 20 24  1  0
 24 25  2  0
 25 26  1  0
 26 27  2  0
 27 28  1  0
 28 29  2  0
 20 21  1  0
 21 22  1  0
  6  7  2  0
  7  8  1  0
  8  9  2  0
  9 10  1  0
 10 11  1  0
 11 12  1  0
 12 13  2  0
 12 14  1  0
 14 15  1  0
 15 16  1  0
  8  4  1  0
 15 10  2  0
 22 17  1  0
 29 24  1  0
 17 23  1  0
M  CHG 1  11  -1
M  CHG 1  14  -1
M  CHG 1  16  -1
M  CHG 1  17   1
M  END
> <UniqueID>
48

> <SMILES>
C=c1oc(C(=O)[NH+]2CCN(c3ccccc3)CC2)c/c1=C/c1[n-]c(=O)[n-]c1[O-]

> <Energy>
137.58948657139538

> <Genealogy>
C=c1oc(C(=O)[NH+]2CCN(c3ccccc3)CC2)cc1=Cc1[n-]c(=O)[n-]c1[O-] (protonated)
C=c1oc(C(=O)[NH+]2CCN(c3ccccc3)CC2)c/c1=C/c1[n-]c(=O)[n-]c1[O-] (cis-trans isomerization)
C=c1oc(C(=O)[NH+]2CCN(c3ccccc3)CC2)c/c1=C/c1[n-]c(=O)[n-]c1[O-] (3D coordinates assigned)
C=c1oc(C(=O)[NH+]2CCN(c3ccccc3)CC2)c/c1=C/c1[n-]c(=O)[n-]c1[O-] (nonaromatic ring conformer: 137.58948657139538 kcal/mol)

> <smiles>
C=c1oc(C(=O)N2CCN(c3ccccc3)CC2)cc1=Cc1[nH]c(=O)[nH]c1O

> <score_type>
oracle

> <origin>
adg

> <m_score__min__energy>
-16.77

> <m_primary>
energy

> <minimizedAffinity>
-6.53251

> <minimizedRMSD>
0.72926

> <CNNscore>
0.0868033320

> <CNNaffinity>
5.0619697571

> <CNN_VS>
0.4393958449

> <CNNaffinity_variance>
0.1548747867

$$$$
52:0


 25 27  0  0  0  0  0  0  0  0999 V2000
   54.7319   28.1102   54.4662 C   0  0  0  0  0  0  0  0  0  0  0  0
   55.3223   29.1617   53.8725 C   0  0  0  0  0  0  0  0  0  0  0  0
   54.6357   30.1093   53.1002 C   0  0  0  0  0  0  0  0  0  0  0  0
   53.3251   30.4188   53.0376 C   0  0  0  0  0  0  0  0  0  0  0  0
   55.5801   30.7165   52.3121 C   0  0  0  0  0  0  0  0  0  0  0  0
   56.8025   30.2107   52.6868 C   0  0  0  0  0  0  0  0  0  0  0  0
   56.6779   29.3044   53.7040 N   0  0  0  0  0  0  0  0  0  0  0  0
   52.5219   30.4997   51.8053 C   0  0  0  0  0  0  0  0  0  0  0  0
   52.6771   29.6636   50.7635 N   0  0  0  0  0  0  0  0  0  0  0  0
   51.8335   30.1622   49.8330 C   0  0  0  0  0  0  0  0  0  0  0  0
   51.6838   29.6319   48.7015 O   0  0  0  0  0  0  0  0  0  0  0  0
   51.1721   31.2775   50.2067 N   0  0  0  0  0  0  0  0  0  0  0  0
   51.6282   31.4872   51.4519 C   0  0  0  0  0  0  0  0  0  0  0  0
   51.2610   32.5759   52.2341 O   0  0  0  0  0  0  0  0  0  0  0  0
   58.0137   30.4774   51.8933 C   0  0  0  0  0  0  0  0  0  0  0  0
   58.4122   29.6020   51.0796 O   0  0  0  0  0  0  0  0  0  0  0  0
   58.7244   31.7220   52.0114 N   0  0  0  0  0  0  0  0  0  0  0  0
   59.9491   31.9980   51.2833 C   0  0  0  0  0  0  0  0  0  0  0  0
   60.5177   33.2698   51.9011 C   0  0  0  0  0  0  0  0  0  0  0  0
   59.3766   33.8979   52.6960 C   0  0  0  0  0  0  0  0  0  0  0  0
   58.3724   32.7800   52.9453 C   0  0  0  0  0  0  0  0  0  0  0  0
   57.7822   28.6793   54.5159 C   0  0  0  0  0  0  0  0  0  0  0  0
   57.3330   28.4683   55.9926 C   0  0  0  0  0  0  0  0  0  0  0  0
   59.0383   29.5918   54.5944 C   0  0  0  0  0  0  0  0  0  0  0  0
   58.2021   27.3390   53.8851 C   0  0  0  0  0  0  0  0  0  0  0  0
  1  2  2  0
  2  3  1  0
  3  4  2  0
  4  8  1  0
  8  9  1  0
  9 10  1  0
 10 11  2  0
 10 12  1  0
 12 13  1  0
 13 14  1  0
  3  5  1  0
  5  6  2  0
  6 15  1  0
 15 16  2  0
 15 17  1  0
 17 18  1  0
 18 19  1  0
 19 20  1  0
 20 21  1  0
  6  7  1  0
  7 22  1  0
 22 23  1  0
 22 24  1  0
 22 25  1  0
  7  2  1  0
 13  8  2  0
 21 17  1  0
M  CHG 1   9  -1
M  CHG 1  12  -1
M  CHG 1  14  -1
M  END
> <UniqueID>
53

> <SMILES>
C=c1/c(=C\c2[n-]c(=O)[n-]c2[O-])cc(C(=O)N2CCCC2)n1C(C)(C)C

> <Energy>
134.36777564248476

> <Genealogy>
C=c1c(=Cc2[n-]c(=O)[n-]c2[O-])cc(C(=O)N2CCCC2)n1C(C)(C)C (protonated)
C=c1/c(=C\c2[n-]c(=O)[n-]c2[O-])cc(C(=O)N2CCCC2)n1C(C)(C)C (cis-trans isomerization)
C=c1/c(=C\c2[n-]c(=O)[n-]c2[O-])cc(C(=O)N2CCCC2)n1C(C)(C)C (3D coordinates assigned)
C=c1/c(=C\c2[n-]c(=O)[n-]c2[O-])cc(C(=O)N2CCCC2)n1C(C)(C)C (nonaromatic ring conformer: 134.36777564248476 kcal/mol)

> <smiles>
C=c1c(=Cc2[nH]c(=O)[nH]c2O)cc(C(=O)N2CCCC2)n1C(C)(C)C

> <score_type>
oracle

> <origin>
adg

> <m_score__min__energy>
-16.469999999999999

> <m_primary>
energy

> <minimizedAffinity>
-4.81196

> <minimizedRMSD>
0.85315

> <CNNscore>
0.1366115957

> <CNNaffinity>
4.2534618378

> <CNN_VS>
0.5810722113

> <CNNaffinity_variance>
0.8106651306

$$$$
60:0


 30 33  0  0  0  0  0  0  0  0999 V2000
   54.1865   28.6302   55.1212 C   0  0  0  0  0  0  0  0  0  0  0  0
   55.0136   29.2620   54.2741 C   0  0  0  0  0  0  0  0  0  0  0  0
   54.6585   30.1990   53.2908 C   0  0  0  0  0  0  0  0  0  0  0  0
   53.4986   30.8449   53.0611 C   0  0  0  0  0  0  0  0  0  0  0  0
   55.7839   30.3805   52.5057 C   0  0  0  0  0  0  0  0  0  0  0  0
   56.7904   29.6183   53.0607 C   0  0  0  0  0  0  0  0  0  0  0  0
   56.3319   28.9544   54.1491 N   0  0  0  0  0  0  0  0  0  0  0  0
   57.1017   28.0224   54.9802 C   0  0  0  0  0  0  0  0  0  0  0  0
   58.1426   29.4831   52.4801 C   0  0  0  0  0  0  0  0  0  0  0  0
   58.8880   28.5459   52.8744 O   0  0  0  0  0  0  0  0  0  0  0  0
   58.6084   30.3850   51.4576 N   0  0  0  0  0  0  0  0  0  0  0  0
   58.2240   31.8063   51.5175 C   0  0  0  0  0  0  0  0  0  0  0  0
   59.0976   32.6599   50.5968 C   0  0  0  0  0  0  0  0  0  0  0  0
   59.1669   32.0330   49.2723 N   0  0  0  0  0  0  0  0  0  0  0  0
   59.5020   30.6058   49.1618 C   0  0  0  0  0  0  0  0  0  0  0  0
   59.6710   29.9471   50.5382 C   0  0  0  0  0  0  0  0  0  0  0  0
   58.9755   32.8010   48.0698 C   0  0  0  0  0  0  0  0  0  0  0  0
   58.0648   32.3901   47.1448 N   0  0  0  0  0  0  0  0  0  0  0  0
   57.8507   33.0938   46.0056 C   0  0  0  0  0  0  0  0  0  0  0  0
   58.5655   34.2650   45.7682 C   0  0  0  0  0  0  0  0  0  0  0  0
   59.4836   34.6874   46.7281 C   0  0  0  0  0  0  0  0  0  0  0  0
   59.6699   33.9580   47.8601 N   0  0  0  0  0  0  0  0  0  0  0  0
   60.3138   34.2679   48.5374 H   0  0  0  0  0  0  0  0  0  0  0  0
   52.6712   30.7191   51.8512 C   0  0  0  0  0  0  0  0  0  0  0  0
   52.9125   29.8285   50.8746 N   0  0  0  0  0  0  0  0  0  0  0  0
   52.0041   30.1493   49.9270 C   0  0  0  0  0  0  0  0  0  0  0  0
   51.9028   29.5176   48.8435 O   0  0  0  0  0  0  0  0  0  0  0  0
   51.2205   31.2074   50.2280 N   0  0  0  0  0  0  0  0  0  0  0  0
   51.6658   31.5671   51.4424 C   0  0  0  0  0  0  0  0  0  0  0  0
   51.1820   32.6608   52.1484 O   0  0  0  0  0  0  0  0  0  0  0  0
  1  2  2  0
  2  3  1  0
  3  4  2  0
  4 24  1  0
 24 25  1  0
 25 26  1  0
 26 27  2  0
 26 28  1  0
 28 29  1  0
 29 30  1  0
  3  5  1  0
  5  6  2  0
  6  9  1  0
  9 10  2  0
  9 11  1  0
 11 12  1  0
 12 13  1  0
 13 14  1  0
 14 17  1  0
 17 18  2  0
 18 19  1  0
 19 20  2  0
 20 21  1  0
 21 22  2  0
 14 15  1  0
 15 16  1  0
  6  7  1  0
  7  8  1  0
  7  2  1  0
 29 24  2  0
 16 11  1  0
 22 17  1  0
 22 23  1  0
M  CHG 1  22   1
M  CHG 1  25  -1
M  CHG 1  28  -1
M  CHG 1  30  -1
M  END
> <UniqueID>
61

> <SMILES>
C=c1/c(=C\c2[n-]c(=O)[n-]c2[O-])cc(C(=O)N2CCN(c3nccc[nH+]3)CC2)n1C

> <Energy>
130.23733999748856

> <Genealogy>
C=c1c(=Cc2[n-]c(=O)[n-]c2[O-])cc(C(=O)N2CCN(c3nccc[nH+]3)CC2)n1C (protonated)
C=c1/c(=C\c2[n-]c(=O)[n-]c2[O-])cc(C(=O)N2CCN(c3nccc[nH+]3)CC2)n1C (cis-trans isomerization)
C=c1/c(=C\c2[n-]c(=O)[n-]c2[O-])cc(C(=O)N2CCN(c3nccc[nH+]3)CC2)n1C (3D coordinates assigned)
C=c1/c(=C\c2[n-]c(=O)[n-]c2[O-])cc(C(=O)N2CCN(c3nccc[nH+]3)CC2)n1C (nonaromatic ring conformer: 130.23733999748856 kcal/mol)

> <smiles>
C=c1c(=Cc2[nH]c(=O)[nH]c2O)cc(C(=O)N2CCN(c3ncccn3)CC2)n1C

> <score_type>
oracle

> <origin>
adg

> <m_score__min__energy>
-16.359999999999999

> <m_primary>
energy

> <minimizedAffinity>
-6.70461

> <minimizedRMSD>
0.81065

> <CNNscore>
0.0740126371

> <CNNaffinity>
5.1993083954

> <CNN_VS>
0.3848145306

> <CNNaffinity_variance>
0.2923003435

$$$$
67:0


 34 37  0  0  0  0  0  0  0  0999 V2000
   60.1966   29.2383   48.6673 C   0  0  0  0  0  0  0  0  0  0  0  0
   59.8873   29.9589   47.5711 C   0  0  0  0  0  0  0  0  0  0  0  0
   59.7720   29.4384   46.2839 C   0  0  0  0  0  0  0  0  0  0  0  0
   60.0250   28.1711   45.8855 C   0  0  0  0  0  0  0  0  0  0  0  0
   59.3571   30.4857   45.4877 C   0  0  0  0  0  0  0  0  0  0  0  0
   59.2413   31.6202   46.2853 C   0  0  0  0  0  0  0  0  0  0  0  0
   59.5710   31.2887   47.5754 N   0  0  0  0  0  0  0  0  0  0  0  0
   59.0616   27.0509   45.9436 C   0  0  0  0  0  0  0  0  0  0  0  0
   59.3662   25.7655   46.2066 N   0  0  0  0  0  0  0  0  0  0  0  0
   58.1840   25.1275   46.0730 C   0  0  0  0  0  0  0  0  0  0  0  0
   58.0593   23.8874   46.2508 O   0  0  0  0  0  0  0  0  0  0  0  0
   57.1467   25.9212   45.7278 N   0  0  0  0  0  0  0  0  0  0  0  0
   57.7226   27.1324   45.6402 C   0  0  0  0  0  0  0  0  0  0  0  0
   57.0354   28.2886   45.2923 O   0  0  0  0  0  0  0  0  0  0  0  0
   58.6462   32.9503   45.7516 C   0  0  0  0  0  0  0  0  0  0  0  0
   58.1758   32.7809   44.2814 C   0  0  0  0  0  0  0  0  0  0  0  0
   57.4145   33.3277   46.5974 C   0  0  0  0  0  0  0  0  0  0  0  0
   59.6564   34.1220   45.7552 C   0  0  0  0  0  0  0  0  0  0  0  0
   59.5760   32.1609   48.7681 C   0  0  0  0  0  0  0  0  0  0  0  0
   60.9419   32.2570   49.4029 C   0  0  0  0  0  0  0  0  0  0  0  0
   62.1057   32.3366   48.6156 C   0  0  0  0  0  0  0  0  0  0  0  0
   63.3609   32.4530   49.2169 C   0  0  0  0  0  0  0  0  0  0  0  0
   63.4682   32.5416   50.6126 C   0  0  0  0  0  0  0  0  0  0  0  0
   62.3119   32.4734   51.3998 C   0  0  0  0  0  0  0  0  0  0  0  0
   61.0563   32.3444   50.7998 C   0  0  0  0  0  0  0  0  0  0  0  0
   64.7874   32.6539   51.2658 C   0  0  0  0  0  0  0  0  0  0  0  0
   65.6332   33.4376   50.7514 O   0  0  0  0  0  0  0  0  0  0  0  0
   65.1519   31.8813   52.4431 N   0  0  0  0  0  0  0  0  0  0  0  0
   66.5112   32.2056   52.9359 C   0  0  0  0  0  0  0  0  0  0  0  0
   67.6331   31.4723   52.1581 C   0  0  0  0  0  0  0  0  0  0  0  0
   67.1594   30.4351   51.3203 O   0  0  0  0  0  0  0  0  0  0  0  0
   66.2268   29.6410   52.0167 C   0  0  0  0  0  0  0  0  0  0  0  0
   64.9253   30.4236   52.2666 C   0  0  0  0  0  0  0  0  0  0  0  0
   65.6861   32.4811   51.8738 H   0  0  0  0  0  0  0  0  0  0  0  0
  1  2  2  0
  2  3  1  0
  3  4  2  0
  4  8  1  0
  8  9  1  0
  9 10  1  0
 10 11  2  0
 10 12  1  0
 12 13  1  0
 13 14  1  0
  3  5  1  0
  5  6  2  0
  6 15  1  0
 15 16  1  0
 15 17  1  0
 15 18  1  0
  6  7  1  0
  7 19  1  0
 19 20  1  0
 20 21  2  0
 21 22  1  0
 22 23  2  0
 23 26  1  0
 26 27  2  0
 26 28  1  0
 28 29  1  0
 29 30  1  0
 30 31  1  0
 31 32  1  0
 32 33  1  0
 23 24  1  0
 24 25  2  0
  7  2  1  0
 25 20  1  0
 13  8  2  0
 33 28  1  0
 28 34  1  0
M  CHG 1   9  -1
M  CHG 1  12  -1
M  CHG 1  14  -1
M  CHG 1  28   1
M  END
> <UniqueID>
68

> <SMILES>
C=c1/c(=C/c2[n-]c(=O)[n-]c2[O-])cc(C(C)(C)C)n1Cc1ccc(C(=O)[NH+]2CCOCC2)cc1

> <Energy>
155.85110638547525

> <Genealogy>
C=c1c(=Cc2[n-]c(=O)[n-]c2[O-])cc(C(C)(C)C)n1Cc1ccc(C(=O)[NH+]2CCOCC2)cc1 (protonated)
C=c1/c(=C/c2[n-]c(=O)[n-]c2[O-])cc(C(C)(C)C)n1Cc1ccc(C(=O)[NH+]2CCOCC2)cc1 (cis-trans isomerization)
C=c1/c(=C/c2[n-]c(=O)[n-]c2[O-])cc(C(C)(C)C)n1Cc1ccc(C(=O)[NH+]2CCOCC2)cc1 (3D coordinates assigned)
C=c1/c(=C/c2[n-]c(=O)[n-]c2[O-])cc(C(C)(C)C)n1Cc1ccc(C(=O)[NH+]2CCOCC2)cc1 (nonaromatic ring conformer: 155.85110638547525 kcal/mol)

> <smiles>
C=c1c(=Cc2[nH]c(=O)[nH]c2O)cc(C(C)(C)C)n1Cc1ccc(C(=O)N2CCOCC2)cc1

> <score_type>
oracle

> <origin>
adg

> <m_score__min__energy>
-15.56

> <m_primary>
energy

> <minimizedAffinity>
-7.92705

> <minimizedRMSD>
1.48599

> <CNNscore>
0.6766114235

> <CNNaffinity>
7.4581947327

> <CNN_VS>
5.0462999344

> <CNNaffinity_variance>
0.1632550210

$$$$
73:0


 29 32  0  0  0  0  0  0  0  0999 V2000
   56.4576   30.4462   52.2063 C   0  0  0  0  0  0  0  0  0  0  0  0
   57.0683   31.5909   51.7274 C   0  0  0  0  0  0  0  0  0  0  0  0
   58.3851   31.2096   51.5324 C   0  0  0  0  0  0  0  0  0  0  0  0
   58.5243   29.9150   51.8811 N   0  0  0  0  0  0  0  0  0  0  0  0
   57.3589   29.4941   52.2764 O   0  0  0  0  0  0  0  0  0  0  0  0
   52.6676   30.8402   52.3544 C   0  0  0  0  0  0  0  0  0  0  0  0
   52.3571   29.8987   53.3507 C   0  0  0  0  0  0  0  0  0  0  0  0
   53.3687   29.1529   53.9574 C   0  0  0  0  0  0  0  0  0  0  0  0
   54.7001   29.3355   53.5806 C   0  0  0  0  0  0  0  0  0  0  0  0
   55.0363   30.2692   52.5887 C   0  0  0  0  0  0  0  0  0  0  0  0
   54.0122   31.0200   51.9799 C   0  0  0  0  0  0  0  0  0  0  0  0
   51.3700   31.5489   50.3044 N   0  0  0  0  0  0  0  0  0  0  0  0
   51.5904   31.6319   51.7117 C   0  0  0  0  0  0  0  0  0  0  0  0
   50.8564   32.3876   52.4037 O   0  0  0  0  0  0  0  0  0  0  0  0
   50.6527   32.0781   49.8865 H   0  0  0  0  0  0  0  0  0  0  0  0
   59.4981   32.0510   51.0285 C   0  0  0  0  0  0  0  0  0  0  0  0
   60.5944   32.3802   51.8467 C   0  0  0  0  0  0  0  0  0  0  0  0
   61.6318   33.1751   51.3549 C   0  0  0  0  0  0  0  0  0  0  0  0
   61.5933   33.6479   50.0423 C   0  0  0  0  0  0  0  0  0  0  0  0
   60.5144   33.3251   49.2055 C   0  0  0  0  0  0  0  0  0  0  0  0
   59.4671   32.5348   49.7079 C   0  0  0  0  0  0  0  0  0  0  0  0
   60.4747   33.8318   47.7784 C   0  0  0  0  0  0  0  0  0  0  0  0
   59.3186   33.3389   46.9977 N   0  0  0  0  0  0  0  0  0  0  0  0
   59.0145   34.1761   45.8217 C   0  0  0  0  0  0  0  0  0  0  0  0
   57.6093   33.8414   45.3186 C   0  0  0  0  0  0  0  0  0  0  0  0
   57.4601   32.4033   45.1226 N   0  0  0  0  0  0  0  0  0  0  0  0
   58.2296   31.4583   45.8708 C   0  0  0  0  0  0  0  0  0  0  0  0
   57.9430   30.2344   45.8118 O   0  0  0  0  0  0  0  0  0  0  0  0
   59.4432   31.9133   46.6278 C   0  0  0  0  0  0  0  0  0  0  0  0
 12 13  1  0
 13 14  2  0
 13  6  1  0
  6  7  2  0
  7  8  1  0
  8  9  2  0
  9 10  1  0
 10  1  1  0
  1  2  2  0
  2  3  1  0
  3 16  1  0
 16 17  2  0
 17 18  1  0
 18 19  2  0
 19 20  1  0
 20 22  1  0
 22 23  1  0
 23 24  1  0
 24 25  1  0
 25 26  1  0
 26 27  1  0
 27 28  2  0
 27 29  1  0
 20 21  2  0
  3  4  2  0
  4  5  1  0
 10 11  2  0
 11  6  1  0
  5  1  1  0
 21 16  1  0
 29 23  1  0
 12 15  1  0
M  CHG 1  12  -1
M  CHG 1  26  -1
M  END
> <UniqueID>
74

> <SMILES>
[NH-]C(=O)c1cccc(-c2cc(-c3cccc(CN4CC[N-]C(=O)C4)c3)no2)c1

> <Energy>
86.40756033895404

> <Genealogy>
[NH-]C(=O)c1cccc(-c2cc(-c3cccc(CN4CC[N-]C(=O)C4)c3)no2)c1 (protonated)
[NH-]C(=O)c1cccc(-c2cc(-c3cccc(CN4CC[N-]C(=O)C4)c3)no2)c1 (3D coordinates assigned)
[NH-]C(=O)c1cccc(-c2cc(-c3cccc(CN4CC[N-]C(=O)C4)c3)no2)c1 (nonaromatic ring conformer: 86.40756033895404 kcal/mol)

> <smiles>
NC(=O)c1cccc(-c2cc(-c3cccc(CN4CCNC(=O)C4)c3)no2)c1

> <score_type>
oracle

> <origin>
adg

> <m_score__min__energy>
-14.82

> <m_primary>
energy

> <minimizedAffinity>
-8.49691

> <minimizedRMSD>
0.84479

> <CNNscore>
0.7456647158

> <CNNaffinity>
6.4823956490

> <CNN_VS>
4.8336935043

> <CNNaffinity_variance>
0.0788460001

$$$$
78:0


 31 34  0  0  0  0  0  0  0  0999 V2000
   58.6732   30.8460   52.8708 C   0  0  0  0  0  0  0  0  0  0  0  0
   59.3727   30.7404   51.7182 C   0  0  0  0  0  0  0  0  0  0  0  0
   60.5257   29.8214   51.5377 C   0  0  0  0  0  0  0  0  0  0  0  0
   60.7439   28.8815   52.3483 O   0  0  0  0  0  0  0  0  0  0  0  0
   61.3619   29.9464   50.3872 N   0  0  0  0  0  0  0  0  0  0  0  0
   61.0019   30.7978   49.2972 C   0  0  0  0  0  0  0  0  0  0  0  0
   61.7440   30.8389   48.2783 O   0  0  0  0  0  0  0  0  0  0  0  0
   59.7879   31.5692   49.3491 N   0  0  0  0  0  0  0  0  0  0  0  0
   58.9712   31.5497   50.5372 C   0  0  0  0  0  0  0  0  0  0  0  0
   57.9227   32.2537   50.5842 O   0  0  0  0  0  0  0  0  0  0  0  0
   62.2028   29.4361   50.3438 H   0  0  0  0  0  0  0  0  0  0  0  0
   54.4733   27.8523   53.6533 C   0  0  0  0  0  0  0  0  0  0  0  0
   55.2966   28.8782   53.4149 C   0  0  0  0  0  0  0  0  0  0  0  0
   56.9709   28.7257   53.4585 S   0  0  0  0  0  0  0  0  0  0  0  0
   57.3142   30.3234   53.0998 C   0  0  0  0  0  0  0  0  0  0  0  0
   56.1187   31.0034   52.8873 C   0  0  0  0  0  0  0  0  0  0  0  0
   54.9640   30.2073   53.0743 C   0  0  0  0  0  0  0  0  0  0  0  0
   53.6950   30.6649   52.9644 C   0  0  0  0  0  0  0  0  0  0  0  0
   52.8798   30.6741   51.7307 C   0  0  0  0  0  0  0  0  0  0  0  0
   52.9841   29.7974   50.7138 N   0  0  0  0  0  0  0  0  0  0  0  0
   51.9834   30.1586   49.8814 C   0  0  0  0  0  0  0  0  0  0  0  0
   51.7614   29.5689   48.7930 O   0  0  0  0  0  0  0  0  0  0  0  0
   51.2364   31.1976   50.3130 N   0  0  0  0  0  0  0  0  0  0  0  0
   51.8114   31.5032   51.4870 C   0  0  0  0  0  0  0  0  0  0  0  0
   51.3658   32.5210   52.3220 O   0  0  0  0  0  0  0  0  0  0  0  0
   59.3946   32.3693   48.2175 C   0  0  0  0  0  0  0  0  0  0  0  0
   59.7029   33.7397   48.1771 C   0  0  0  0  0  0  0  0  0  0  0  0
   59.3185   34.5143   47.0784 C   0  0  0  0  0  0  0  0  0  0  0  0
   58.6255   33.9290   46.0159 C   0  0  0  0  0  0  0  0  0  0  0  0
   58.3152   32.5657   46.0495 C   0  0  0  0  0  0  0  0  0  0  0  0
   58.6969   31.7875   47.1456 C   0  0  0  0  0  0  0  0  0  0  0  0
 12 13  2  0
 13 14  1  0
 14 15  1  0
 15  1  1  0
  1  2  2  0
  2  3  1  0
  3  4  2  0
  3  5  1  0
  5  6  1  0
  6  7  2  0
  6  8  1  0
  8 26  1  0
 26 27  2  0
 27 28  1  0
 28 29  2  0
 29 30  1  0
 30 31  2  0
  8  9  1  0
  9 10  2  0
 15 16  2  0
 16 17  1  0
 17 18  2  0
 18 19  1  0
 19 20  1  0
 20 21  1  0
 21 22  2  0
 21 23  1  0
 23 24  1  0
 24 25  1  0
 17 13  1  0
 24 19  2  0
  9  2  1  0
 31 26  1  0
  5 11  1  0
M  CHG 1  20  -1
M  CHG 1  23  -1
M  CHG 1  25  -1
M  END
> <UniqueID>
79

> <SMILES>
C=c1sc(C=C2C(=O)NC(=O)N(c3ccccc3)C2=O)cc1=Cc1[n-]c(=O)[n-]c1[O-]

> <Energy>
123.27741276694029

> <Genealogy>
C=c1sc(C=C2C(=O)NC(=O)N(c3ccccc3)C2=O)cc1=Cc1[n-]c(=O)[n-]c1[O-] (protonated)
C=c1sc(C=C2C(=O)NC(=O)N(c3ccccc3)C2=O)cc1=Cc1[n-]c(=O)[n-]c1[O-] (3D coordinates assigned)
C=c1sc(C=C2C(=O)NC(=O)N(c3ccccc3)C2=O)cc1=Cc1[n-]c(=O)[n-]c1[O-] (nonaromatic ring conformer: 123.27741276694029 kcal/mol)

> <smiles>
C=c1sc(C=C2C(=O)NC(=O)N(c3ccccc3)C2=O)cc1=Cc1[nH]c(=O)[nH]c1O

> <score_type>
oracle

> <origin>
adg

> <m_score__min__energy>
-18.149999999999999

> <m_primary>
energy

> <minimizedAffinity>
-7.06385

> <minimizedRMSD>
0.98783

> <CNNscore>
0.1017783135

> <CNNaffinity>
5.5245423317

> <CNN_VS>
0.5622786283

> <CNNaffinity_variance>
0.0533821993

$$$$
86:0


 28 31  0  0  0  0  0  0  0  0999 V2000
   56.5584   29.4507   43.5520 C   0  0  0  0  0  0  0  0  0  0  0  0
   57.3737   29.4142   44.6145 C   0  0  0  0  0  0  0  0  0  0  0  0
   57.4354   30.5440   45.3683 N   0  0  0  0  0  0  0  0  0  0  0  0
   58.3600   30.7353   46.3381 C   0  0  0  0  0  0  0  0  0  0  0  0
   59.3533   29.7824   46.5595 C   0  0  0  0  0  0  0  0  0  0  0  0
   59.2940   28.5652   45.8555 C   0  0  0  0  0  0  0  0  0  0  0  0
   60.1405   27.6653   46.1207 O   0  0  0  0  0  0  0  0  0  0  0  0
   58.2582   28.3242   44.9103 C   0  0  0  0  0  0  0  0  0  0  0  0
   58.1543   27.0786   44.3703 C   0  0  0  0  0  0  0  0  0  0  0  0
   60.4052   30.0507   47.5682 C   0  0  0  0  0  0  0  0  0  0  0  0
   60.6581   29.1690   48.4339 O   0  0  0  0  0  0  0  0  0  0  0  0
   61.1372   31.2927   47.5863 N   0  0  0  0  0  0  0  0  0  0  0  0
   62.5053   31.3115   48.1135 C   0  0  0  0  0  0  0  0  0  0  0  0
   63.1334   32.7044   47.9801 C   0  0  0  0  0  0  0  0  0  0  0  0
   62.2523   33.7776   48.4986 N   0  0  0  0  0  0  0  0  0  0  0  0
   60.8112   33.6589   48.1394 C   0  0  0  0  0  0  0  0  0  0  0  0
   60.5273   32.5439   47.1248 C   0  0  0  0  0  0  0  0  0  0  0  0
   62.5718   34.1484   49.9039 C   0  0  0  0  0  0  0  0  0  0  0  0
   63.8261   33.5032   50.4976 C   0  0  0  0  0  0  0  0  0  0  0  0
   62.9632   32.8212   51.5551 C   0  0  0  0  0  0  0  0  0  0  0  0
   61.7101   33.4586   50.9637 C   0  0  0  0  0  0  0  0  0  0  0  0
   57.6936   25.8619   45.0647 C   0  0  0  0  0  0  0  0  0  0  0  0
   58.4231   24.7365   45.1487 N   0  0  0  0  0  0  0  0  0  0  0  0
   57.6799   23.9383   45.9462 C   0  0  0  0  0  0  0  0  0  0  0  0
   58.0320   22.7696   46.2523 O   0  0  0  0  0  0  0  0  0  0  0  0
   56.5364   24.4954   46.3977 N   0  0  0  0  0  0  0  0  0  0  0  0
   56.5657   25.7183   45.8426 C   0  0  0  0  0  0  0  0  0  0  0  0
   55.5981   26.6895   46.0700 O   0  0  0  0  0  0  0  0  0  0  0  0
  1  2  2  0
  2  3  1  0
  3  4  1  0
  4  5  2  0
  5 10  1  0
 10 11  2  0
 10 12  1  0
 12 13  1  0
 13 14  1  0
 14 15  1  0
 15 18  1  0
 18 19  1  0
 19 20  1  0
 20 21  1  0
 15 16  1  0
 16 17  1  0
  5  6  1  0
  6  7  2  0
  6  8  1  0
  8  9  2  0
  9 22  1  0
 22 23  1  0
 23 24  1  0
 24 25  2  0
 24 26  1  0
 26 27  1  0
 27 28  1  0
  8  2  1  0
 27 22  2  0
 17 12  1  0
 21 18  1  0
M  CHG 1   3  -1
M  CHG 1  23  -1
M  CHG 1  26  -1
M  CHG 1  28  -1
M  END
> <UniqueID>
87

> <SMILES>
C=c1[n-]cc(C(=O)N2CCN(C3CCC3)CC2)c(=O)/c1=C/c1[n-]c(=O)[n-]c1[O-]

> <Energy>
182.09628124329635

> <Genealogy>
C=c1[n-]cc(C(=O)N2CCN(C3CCC3)CC2)c(=O)c1=Cc1[n-]c(=O)[n-]c1[O-] (protonated)
C=c1[n-]cc(C(=O)N2CCN(C3CCC3)CC2)c(=O)/c1=C/c1[n-]c(=O)[n-]c1[O-] (cis-trans isomerization)
C=c1[n-]cc(C(=O)N2CCN(C3CCC3)CC2)c(=O)/c1=C/c1[n-]c(=O)[n-]c1[O-] (3D coordinates assigned)
C=c1[n-]cc(C(=O)N2CCN(C3CCC3)CC2)c(=O)/c1=C/c1[n-]c(=O)[n-]c1[O-] (nonaromatic ring conformer: 182.09628124329635 kcal/mol)

> <smiles>
C=c1[nH]cc(C(=O)N2CCN(C3CCC3)CC2)c(=O)c1=Cc1[nH]c(=O)[nH]c1O

> <score_type>
oracle

> <origin>
adg

> <m_score__min__energy>
-17.77

> <m_primary>
energy

> <minimizedAffinity>
-7.72289

> <minimizedRMSD>
0.78035

> <CNNscore>
0.0666918457

> <CNNaffinity>
5.8287715912

> <CNN_VS>
0.3887315392

> <CNNaffinity_variance>
0.0594519563

$$$$
0:0


 27 29  0  0  0  0  0  0  0  0999 V2000
   53.1520   30.4361   53.2430 C   0  0  0  0  0  0  0  0  0  0  0  0
   54.4746   30.2256   53.3944 C   0  0  0  0  0  0  0  0  0  0  0  0
   55.3936   30.5193   52.4048 C   0  0  0  0  0  0  0  0  0  0  0  0
   56.6451   30.2335   52.9110 C   0  0  0  0  0  0  0  0  0  0  0  0
   56.5413   29.7800   54.1867 N   0  0  0  0  0  0  0  0  0  0  0  0
   57.6542   29.3959   55.0652 C   0  0  0  0  0  0  0  0  0  0  0  0
   55.2115   29.7117   54.4735 C   0  0  0  0  0  0  0  0  0  0  0  0
   54.7175   29.1088   55.5684 C   0  0  0  0  0  0  0  0  0  0  0  0
   51.2098   32.6536   52.2609 O   0  0  0  0  0  0  0  0  0  0  0  0
   51.5970   31.5311   51.5346 C   0  0  0  0  0  0  0  0  0  0  0  0
   51.2091   31.3020   50.2700 N   0  0  0  0  0  0  0  0  0  0  0  0
   51.8538   30.1561   49.9621 C   0  0  0  0  0  0  0  0  0  0  0  0
   51.7545   29.6046   48.8353 O   0  0  0  0  0  0  0  0  0  0  0  0
   52.6240   29.6553   50.9512 N   0  0  0  0  0  0  0  0  0  0  0  0
   52.4356   30.5219   51.9619 C   0  0  0  0  0  0  0  0  0  0  0  0
   50.6328   33.2840   51.8767 H   0  0  0  0  0  0  0  0  0  0  0  0
   57.8909   30.3595   52.1214 C   0  0  0  0  0  0  0  0  0  0  0  0
   58.7913   29.4846   52.2450 O   0  0  0  0  0  0  0  0  0  0  0  0
   58.1038   31.4832   51.2615 N   0  0  0  0  0  0  0  0  0  0  0  0
   59.3997   31.8329   50.6917 C   0  0  0  0  0  0  0  0  0  0  0  0
   59.4384   31.4810   49.2242 C   0  0  0  0  0  0  0  0  0  0  0  0
   59.2339   30.1496   48.8249 C   0  0  0  0  0  0  0  0  0  0  0  0
   59.2864   29.8005   47.4720 C   0  0  0  0  0  0  0  0  0  0  0  0
   59.5461   30.7739   46.5064 C   0  0  0  0  0  0  0  0  0  0  0  0
   59.7568   32.1002   46.8923 C   0  0  0  0  0  0  0  0  0  0  0  0
   59.7064   32.4612   48.2446 C   0  0  0  0  0  0  0  0  0  0  0  0
   59.9893   34.1459   48.6729 Cl  0  0  0  0  0  0  0  0  0  0  0  0
  9 10  1  0
 10 11  1  0
 11 12  1  0
 12 13  2  0
 12 14  1  0
 14 15  1  0
 15  1  1  0
  1  2  2  0
  2  3  1  0
  3  4  2  0
  4 17  1  0
 17 18  2  0
 17 19  1  0
 19 20  1  0
 20 21  1  0
 21 22  2  0
 22 23  1  0
 23 24  2  0
 24 25  1  0
 25 26  2  0
 26 27  1  0
  4  5  1  0
  5  6  1  0
  5  7  1  0
  7  8  2  0
 15 10  2  0
  7  2  1  0
 26 21  1  0
  9 16  1  0
M  CHG 1  11  -1
M  CHG 1  14  -1
M  CHG 1  19  -1
M  END
> <UniqueID>
1

> <SMILES>
C=c1/c(=C\c2[n-]c(=O)[n-]c2O)cc(C(=O)[N-]Cc2ccccc2Cl)n1C

> <Energy>
113.40607128907897

> <Genealogy>
C=c1c(=Cc2[n-]c(=O)[n-]c2O)cc(C(=O)[N-]Cc2ccccc2Cl)n1C (protonated)
C=c1/c(=C\c2[n-]c(=O)[n-]c2O)cc(C(=O)[N-]Cc2ccccc2Cl)n1C (cis-trans isomerization)
C=c1/c(=C\c2[n-]c(=O)[n-]c2O)cc(C(=O)[N-]Cc2ccccc2Cl)n1C (3D coordinates assigned)
C=c1/c(=C\c2[n-]c(=O)[n-]c2O)cc(C(=O)[N-]Cc2ccccc2Cl)n1C (optimized conformer: 113.40607128907897 kcal/mol)

> <smiles>
C=c1c(=Cc2[nH]c(=O)[nH]c2O)cc(C(=O)NCc2ccccc2Cl)n1C

> <score_type>
oracle

> <origin>
adg

> <m_score__min__energy>
-14.24

> <m_primary>
energy

> <minimizedAffinity>
-5.70502

> <minimizedRMSD>
0.94116

> <CNNscore>
0.2541550100

> <CNNaffinity>
5.4813117981

> <CNN_VS>
1.3931028843

> <CNNaffinity_variance>
0.0603328012

$$$$
3:0


 28 30  0  0  0  0  0  0  0  0999 V2000
   60.1899   27.8475   46.0768 C   0  0  0  0  0  0  0  0  0  0  0  0
   60.5326   28.6168   45.1414 O   0  0  0  0  0  0  0  0  0  0  0  0
   59.1743   26.8651   45.8235 N   0  0  0  0  0  0  0  0  0  0  0  0
   58.0161   26.5921   46.6711 C   0  0  0  0  0  0  0  0  0  0  0  0
   56.7327   27.0130   46.0067 C   0  0  0  0  0  0  0  0  0  0  0  0
   55.7720   26.2020   45.9356 O   0  0  0  0  0  0  0  0  0  0  0  0
   56.5486   28.3443   45.5109 N   0  0  0  0  0  0  0  0  0  0  0  0
   57.1641   28.8625   44.2954 C   0  0  0  0  0  0  0  0  0  0  0  0
   58.7950   34.3777   45.1462 C   0  0  0  0  0  0  0  0  0  0  0  0
   58.4019   32.9478   44.9187 C   0  0  0  0  0  0  0  0  0  0  0  0
   58.3875   32.0402   45.9890 C   0  0  0  0  0  0  0  0  0  0  0  0
   57.9871   30.7171   45.7841 C   0  0  0  0  0  0  0  0  0  0  0  0
   57.5709   30.2903   44.5135 C   0  0  0  0  0  0  0  0  0  0  0  0
   57.5843   31.1989   43.4441 C   0  0  0  0  0  0  0  0  0  0  0  0
   57.9868   32.5230   43.6480 C   0  0  0  0  0  0  0  0  0  0  0  0
   60.8540   27.9929   47.4229 C   0  0  0  0  0  0  0  0  0  0  0  0
   60.4128   29.2102   48.1222 N   0  0  0  0  0  0  0  0  0  0  0  0
   59.4843   29.0969   49.0776 N   0  0  0  0  0  0  0  0  0  0  0  0
   59.0258   30.1597   49.7831 C   0  0  0  0  0  0  0  0  0  0  0  0
   58.1395   29.9820   50.6616 O   0  0  0  0  0  0  0  0  0  0  0  0
   59.5424   31.4355   49.5247 C   0  0  0  0  0  0  0  0  0  0  0  0
   59.0884   32.5733   50.2188 C   0  0  0  0  0  0  0  0  0  0  0  0
   59.6308   33.8293   49.9404 C   0  0  0  0  0  0  0  0  0  0  0  0
   60.6298   33.9650   48.9762 C   0  0  0  0  0  0  0  0  0  0  0  0
   61.0932   32.8448   48.2819 C   0  0  0  0  0  0  0  0  0  0  0  0
   60.5501   31.5713   48.5441 C   0  0  0  0  0  0  0  0  0  0  0  0
   60.9868   30.4264   47.8535 C   0  0  0  0  0  0  0  0  0  0  0  0
   61.9009   30.5235   46.9868 O   0  0  0  0  0  0  0  0  0  0  0  0
  9 10  1  0
 10 11  2  0
 11 12  1  0
 12 13  2  0
 13  8  1  0
  8  7  1  0
  7  5  1  0
  5  6  2  0
  5  4  1  0
  4  3  1  0
  3  1  1  0
  1  2  2  0
  1 16  1  0
 16 17  1  0
 17 18  1  0
 18 19  1  0
 19 20  2  0
 19 21  1  0
 21 22  2  0
 22 23  1  0
 23 24  2  0
 24 25  1  0
 25 26  2  0
 26 27  1  0
 27 28  2  0
 13 14  1  0
 14 15  2  0
 15 10  1  0
 27 17  1  0
 26 21  1  0
M  CHG 1   3  -1
M  CHG 1   7  -1
M  CHG 1  18  -1
M  END
> <UniqueID>
4

> <SMILES>
Cc1ccc(C[N-]C(=O)C[N-]C(=O)Cn2[n-]c(=O)c3ccccc3c2=O)cc1

> <Energy>
47.24341364976087

> <Genealogy>
Cc1ccc(C[N-]C(=O)C[N-]C(=O)Cn2[n-]c(=O)c3ccccc3c2=O)cc1 (protonated)
Cc1ccc(C[N-]C(=O)C[N-]C(=O)Cn2[n-]c(=O)c3ccccc3c2=O)cc1 (3D coordinates assigned)
Cc1ccc(C[N-]C(=O)C[N-]C(=O)Cn2[n-]c(=O)c3ccccc3c2=O)cc1 (optimized conformer: 47.24341364976087 kcal/mol)

> <smiles>
Cc1ccc(CNC(=O)CNC(=O)Cn2[nH]c(=O)c3ccccc3c2=O)cc1

> <score_type>
oracle

> <origin>
adg

> <m_score__min__energy>
-14.34

> <m_primary>
energy

> <minimizedAffinity>
-5.18052

> <minimizedRMSD>
0.53537

> <CNNscore>
0.7570245862

> <CNNaffinity>
6.8587021828

> <CNN_VS>
5.1922063828

> <CNNaffinity_variance>
0.1095499024

$$$$
9:0


 33 36  0  0  0  0  0  0  0  0999 V2000
   56.8398   29.6382   54.5988 C   0  0  0  0  0  0  0  0  0  0  0  0
   57.5588   29.0221   55.4304 O   0  0  0  0  0  0  0  0  0  0  0  0
   57.4435   30.2365   53.4342 N   0  0  0  0  0  0  0  0  0  0  0  0
   56.8675   31.4408   52.8235 C   0  0  0  0  0  0  0  0  0  0  0  0
   57.9821   32.4146   52.4409 C   0  0  0  0  0  0  0  0  0  0  0  0
   59.0126   31.7546   51.6310 N   0  0  0  0  0  0  0  0  0  0  0  0
   59.8914   32.5838   50.8510 C   0  0  0  0  0  0  0  0  0  0  0  0
   60.4012   33.6072   51.3816 O   0  0  0  0  0  0  0  0  0  0  0  0
   60.0953   32.3449   49.4480 N   0  0  0  0  0  0  0  0  0  0  0  0
   59.8743   33.4451   48.5081 C   0  0  0  0  0  0  0  0  0  0  0  0
   61.2190   33.8546   47.9125 C   0  0  0  0  0  0  0  0  0  0  0  0
   61.9306   32.7118   47.2891 N   0  0  0  0  0  0  0  0  0  0  0  0
   61.3896   31.3573   47.5581 C   0  0  0  0  0  0  0  0  0  0  0  0
   60.8684   31.1821   48.9994 C   0  0  0  0  0  0  0  0  0  0  0  0
   59.0825   30.2903   51.5612 C   0  0  0  0  0  0  0  0  0  0  0  0
   58.6844   29.6580   52.9008 C   0  0  0  0  0  0  0  0  0  0  0  0
   52.5372   29.5733   56.8250 C   0  0  0  0  0  0  0  0  0  0  0  0
   53.4596   29.7041   55.8598 C   0  0  0  0  0  0  0  0  0  0  0  0
   53.2151   30.0030   54.5149 C   0  0  0  0  0  0  0  0  0  0  0  0
   52.0173   30.1594   53.9188 C   0  0  0  0  0  0  0  0  0  0  0  0
   54.4552   30.0414   53.8943 C   0  0  0  0  0  0  0  0  0  0  0  0
   55.3937   29.7576   54.8652 C   0  0  0  0  0  0  0  0  0  0  0  0
   54.7947   29.5698   56.0649 N   0  0  0  0  0  0  0  0  0  0  0  0
   55.4572   29.3384   57.3521 C   0  0  0  0  0  0  0  0  0  0  0  0
   51.8471   30.4680   52.4873 C   0  0  0  0  0  0  0  0  0  0  0  0
   52.0431   29.5653   51.5075 N   0  0  0  0  0  0  0  0  0  0  0  0
   51.7103   30.2412   50.3864 C   0  0  0  0  0  0  0  0  0  0  0  0
   51.7772   29.7285   49.2398 O   0  0  0  0  0  0  0  0  0  0  0  0
   51.2928   31.5088   50.5933 N   0  0  0  0  0  0  0  0  0  0  0  0
   51.3750   31.6327   51.9284 C   0  0  0  0  0  0  0  0  0  0  0  0
   50.9834   32.7728   52.6183 O   0  0  0  0  0  0  0  0  0  0  0  0
   63.4040   32.8191   47.3484 C   0  0  0  0  0  0  0  0  0  0  0  0
   63.9429   33.1161   48.7524 C   0  0  0  0  0  0  0  0  0  0  0  0
 17 18  2  0
 18 19  1  0
 19 20  2  0
 20 25  1  0
 25 26  1  0
 26 27  1  0
 27 28  2  0
 27 29  1  0
 29 30  1  0
 30 31  1  0
 19 21  1  0
 21 22  2  0
 22  1  1  0
  1  2  2  0
  1  3  1  0
  3  4  1  0
  4  5  1  0
  5  6  1  0
  6  7  1  0
  7  8  2  0
  7  9  1  0
  9 10  1  0
 10 11  1  0
 11 12  1  0
 12 32  1  0
 32 33  1  0
 12 13  1  0
 13 14  1  0
  6 15  1  0
 15 16  1  0
 22 23  1  0
 23 24  1  0
 23 18  1  0
 30 25  2  0
 16  3  1  0
 14  9  1  0
M  CHG 1  26  -1
M  CHG 1  29  -1
M  CHG 1  31  -1
M  END
> <UniqueID>
10

> <SMILES>
C=c1c(=Cc2[n-]c(=O)[n-]c2[O-])cc(C(=O)N2CCN(C(=O)N3CCN(CC)CC3)CC2)n1C

> <Energy>
151.37814477668164

> <Genealogy>
C=c1c(=Cc2[n-]c(=O)[n-]c2[O-])cc(C(=O)N2CCN(C(=O)N3CCN(CC)CC3)CC2)n1C (protonated)
C=c1c(=Cc2[n-]c(=O)[n-]c2[O-])cc(C(=O)N2CCN(C(=O)N3CCN(CC)CC3)CC2)n1C (3D coordinates assigned)
C=c1c(=Cc2[n-]c(=O)[n-]c2[O-])cc(C(=O)N2CCN(C(=O)N3CCN(CC)CC3)CC2)n1C (nonaromatic ring conformer: 151.37814477668164 kcal/mol)

> <smiles>
C=c1c(=Cc2[nH]c(=O)[nH]c2O)cc(C(=O)N2CCN(C(=O)N3CCN(CC)CC3)CC2)n1C

> <score_type>
oracle

> <origin>
adg

> <m_score__min__energy>
-17.870000000000001

> <m_primary>
energy

> <minimizedAffinity>
-7.13247

> <minimizedRMSD>
1.20166

> <CNNscore>
0.0432959497

> <CNNaffinity>
4.6629319191

> <CNN_VS>
0.2018860728

> <CNNaffinity_variance>
0.9038186073

$$$$
33:0


 29 31  0  0  0  0  0  0  0  0999 V2000
   55.2434   28.3516   54.3429 C   0  0  0  0  0  0  0  0  0  0  0  0
   55.7081   29.2239   53.4314 C   0  0  0  0  0  0  0  0  0  0  0  0
   54.9826   30.2518   52.8116 C   0  0  0  0  0  0  0  0  0  0  0  0
   53.6625   30.5247   52.7983 C   0  0  0  0  0  0  0  0  0  0  0  0
   55.9078   31.0240   52.1351 C   0  0  0  0  0  0  0  0  0  0  0  0
   57.1419   30.4312   52.3099 C   0  0  0  0  0  0  0  0  0  0  0  0
   57.0214   29.3164   53.0790 N   0  0  0  0  0  0  0  0  0  0  0  0
   52.8243   30.6574   51.5965 C   0  0  0  0  0  0  0  0  0  0  0  0
   52.8503   29.8024   50.5612 N   0  0  0  0  0  0  0  0  0  0  0  0
   51.8465   30.2063   49.7586 C   0  0  0  0  0  0  0  0  0  0  0  0
   51.5718   29.6414   48.6683 O   0  0  0  0  0  0  0  0  0  0  0  0
   51.1512   31.2620   50.2329 N   0  0  0  0  0  0  0  0  0  0  0  0
   51.7696   31.5269   51.4007 C   0  0  0  0  0  0  0  0  0  0  0  0
   51.3609   32.5206   52.2800 O   0  0  0  0  0  0  0  0  0  0  0  0
   53.4664   29.0477   50.4200 H   0  0  0  0  0  0  0  0  0  0  0  0
   58.3894   30.9773   51.7267 C   0  0  0  0  0  0  0  0  0  0  0  0
   58.5304   32.2295   51.6523 O   0  0  0  0  0  0  0  0  0  0  0  0
   59.4447   30.1030   51.2996 N   0  0  0  0  0  0  0  0  0  0  0  0
   59.6342   29.6580   50.0950 C   0  0  0  0  0  0  0  0  0  0  0  0
   58.9779   30.1280   48.9824 C   0  0  0  0  0  0  0  0  0  0  0  0
   59.5106   29.3631   47.9560 C   0  0  0  0  0  0  0  0  0  0  0  0
   60.3917   28.5291   48.4699 O   0  0  0  0  0  0  0  0  0  0  0  0
   60.4968   28.6791   49.7578 N   0  0  0  0  0  0  0  0  0  0  0  0
   59.1573   29.4055   46.4809 C   0  0  0  0  0  0  0  0  0  0  0  0
   58.0328   28.4045   46.1355 C   0  0  0  0  0  0  0  0  0  0  0  0
   60.4142   29.0558   45.6636 C   0  0  0  0  0  0  0  0  0  0  0  0
   58.6879   30.8282   46.1191 C   0  0  0  0  0  0  0  0  0  0  0  0
   58.0985   28.3905   53.4672 C   0  0  0  0  0  0  0  0  0  0  0  0
   58.8276   28.8963   54.7096 C   0  0  0  0  0  0  0  0  0  0  0  0
  1  2  2  0
  2  3  1  0
  3  4  2  0
  4  8  1  0
  8  9  1  0
  9 10  1  0
 10 11  2  0
 10 12  1  0
 12 13  1  0
 13 14  1  0
  3  5  1  0
  5  6  2  0
  6 16  1  0
 16 17  2  0
 16 18  1  0
 18 19  2  0
 19 20  1  0
 20 21  2  0
 21 24  1  0
 24 25  1  0
 24 26  1  0
 24 27  1  0
 21 22  1  0
 22 23  1  0
  6  7  1  0
  7 28  1  0
 28 29  1  0
  7  2  1  0
 13  8  2  0
 23 19  1  0
  9 15  1  0
M  CHG 1  12  -1
M  CHG 1  14  -1
M  CHG 1  23  -1
M  END
> <UniqueID>
32

> <SMILES>
C=c1c(=Cc2[nH]c(=O)[n-]c2[O-])cc(C(=O)N=c2cc(C(C)(C)C)o[n-]2)n1CC

> <Energy>
150.22627394617317

> <Genealogy>
C=c1c(=Cc2[nH]c(=O)[n-]c2[O-])cc(C(=O)N=c2cc(C(C)(C)C)o[n-]2)n1CC (protonated)
C=c1c(=Cc2[nH]c(=O)[n-]c2[O-])cc(C(=O)N=c2cc(C(C)(C)C)o[n-]2)n1CC (3D coordinates assigned)
C=c1c(=Cc2[nH]c(=O)[n-]c2[O-])cc(C(=O)N=c2cc(C(C)(C)C)o[n-]2)n1CC (optimized conformer: 150.22627394617317 kcal/mol)

> <smiles>
C=c1c(=Cc2[nH]c(=O)[nH]c2O)cc(C(=O)N=c2cc(C(C)(C)C)o[nH]2)n1CC

> <score_type>
oracle

> <origin>
adg

> <m_score__min__energy>
-16.039999999999999

> <m_primary>
energy

> <minimizedAffinity>
-6.36816

> <minimizedRMSD>
0.65624

> <CNNscore>
0.1399847567

> <CNNaffinity>
5.5473790169

> <CNN_VS>
0.7765485048

> <CNNaffinity_variance>
0.2534123063

$$$$
40:0


 25 27  0  0  0  0  0  0  0  0999 V2000
   57.0532   29.3091   43.6730 C   0  0  0  0  0  0  0  0  0  0  0  0
   57.7419   29.0292   44.7846 C   0  0  0  0  0  0  0  0  0  0  0  0
   58.2915   30.2225   45.8351 S   0  0  0  0  0  0  0  0  0  0  0  0
   59.0154   29.1877   46.9378 C   0  0  0  0  0  0  0  0  0  0  0  0
   58.8356   27.8769   46.5016 C   0  0  0  0  0  0  0  0  0  0  0  0
   58.1130   27.7657   45.2912 C   0  0  0  0  0  0  0  0  0  0  0  0
   57.8394   26.5950   44.6702 C   0  0  0  0  0  0  0  0  0  0  0  0
   57.4040   25.3468   45.3356 C   0  0  0  0  0  0  0  0  0  0  0  0
   58.1417   24.2292   45.4671 N   0  0  0  0  0  0  0  0  0  0  0  0
   57.3603   23.4210   46.2162 C   0  0  0  0  0  0  0  0  0  0  0  0
   57.7082   22.2584   46.5483 O   0  0  0  0  0  0  0  0  0  0  0  0
   56.1793   23.9595   46.5861 N   0  0  0  0  0  0  0  0  0  0  0  0
   56.2279   25.1800   46.0285 C   0  0  0  0  0  0  0  0  0  0  0  0
   55.2191   26.1268   46.1539 O   0  0  0  0  0  0  0  0  0  0  0  0
   59.7252   29.6239   48.1545 C   0  0  0  0  0  0  0  0  0  0  0  0
   60.7124   28.9514   48.5592 O   0  0  0  0  0  0  0  0  0  0  0  0
   59.3257   30.8850   48.8789 C   0  0  0  0  0  0  0  0  0  0  0  0
   59.5027   32.1161   48.0203 C   0  0  0  0  0  0  0  0  0  0  0  0
   58.3704   32.8363   47.6038 C   0  0  0  0  0  0  0  0  0  0  0  0
   58.5076   33.9647   46.7895 C   0  0  0  0  0  0  0  0  0  0  0  0
   59.7755   34.3793   46.3762 C   0  0  0  0  0  0  0  0  0  0  0  0
   59.9057   35.4729   45.5850 F   0  0  0  0  0  0  0  0  0  0  0  0
   60.9080   33.6654   46.7721 C   0  0  0  0  0  0  0  0  0  0  0  0
   60.7823   32.5330   47.5868 C   0  0  0  0  0  0  0  0  0  0  0  0
   62.2420   31.6581   48.0368 Cl  0  0  0  0  0  0  0  0  0  0  0  0
  1  2  2  0
  2  3  1  0
  3  4  1  0
  4 15  1  0
 15 16  2  0
 15 17  1  0
 17 18  1  0
 18 19  2  0
 19 20  1  0
 20 21  2  0
 21 22  1  0
 21 23  1  0
 23 24  2  0
 24 25  1  0
  4  5  2  0
  5  6  1  0
  6  7  2  0
  7  8  1  0
  8  9  1  0
  9 10  1  0
 10 11  2  0
 10 12  1  0
 12 13  1  0
 13 14  1  0
  6  2  1  0
 13  8  2  0
 24 18  1  0
M  CHG 1   9  -1
M  CHG 1  12  -1
M  CHG 1  14  -1
M  END
> <UniqueID>
39

> <SMILES>
C=c1sc(C(=O)Cc2ccc(F)cc2Cl)c/c1=C\c1[n-]c(=O)[n-]c1[O-]

> <Energy>
100.21259967567964

> <Genealogy>
C=c1sc(C(=O)Cc2ccc(F)cc2Cl)cc1=Cc1[n-]c(=O)[n-]c1[O-] (protonated)
C=c1sc(C(=O)Cc2ccc(F)cc2Cl)c/c1=C\c1[n-]c(=O)[n-]c1[O-] (cis-trans isomerization)
C=c1sc(C(=O)Cc2ccc(F)cc2Cl)c/c1=C\c1[n-]c(=O)[n-]c1[O-] (3D coordinates assigned)
C=c1sc(C(=O)Cc2ccc(F)cc2Cl)c/c1=C\c1[n-]c(=O)[n-]c1[O-] (optimized conformer: 100.21259967567964 kcal/mol)

> <smiles>
C=c1sc(C(=O)Cc2ccc(F)cc2Cl)cc1=Cc1[nH]c(=O)[nH]c1O

> <score_type>
oracle

> <origin>
adg

> <m_score__min__energy>
-17.079999999999998

> <m_primary>
energy

> <minimizedAffinity>
-7.93048

> <minimizedRMSD>
0.87202

> <CNNscore>
0.5299808383

> <CNNaffinity>
6.7612648010

> <CNN_VS>
3.5833408833

> <CNNaffinity_variance>
0.0072679170

$$$$
71:0


 29 31  0  0  0  0  0  0  0  0999 V2000
   61.0407   33.4161   51.0300 C   0  0  0  0  0  0  0  0  0  0  0  0
   59.7931   33.0000   47.4393 C   0  0  0  0  0  0  0  0  0  0  0  0
   60.9651   33.2898   46.7226 C   0  0  0  0  0  0  0  0  0  0  0  0
   62.1529   33.5711   47.3992 C   0  0  0  0  0  0  0  0  0  0  0  0
   62.1764   33.5884   48.7944 C   0  0  0  0  0  0  0  0  0  0  0  0
   61.0090   33.3260   49.5287 C   0  0  0  0  0  0  0  0  0  0  0  0
   59.8195   33.0233   48.8444 C   0  0  0  0  0  0  0  0  0  0  0  0
   58.5361   32.7125   46.7156 C   0  0  0  0  0  0  0  0  0  0  0  0
   57.4872   33.3282   47.0371 O   0  0  0  0  0  0  0  0  0  0  0  0
   57.4231   28.4086   45.4590 C   0  0  0  0  0  0  0  0  0  0  0  0
   57.3850   29.7317   45.1496 N   0  0  0  0  0  0  0  0  0  0  0  0
   58.2766   30.4394   45.8734 C   0  0  0  0  0  0  0  0  0  0  0  0
   58.4610   31.7142   45.6876 N   0  0  0  0  0  0  0  0  0  0  0  0
   59.1571   29.4471   46.9174 S   0  0  0  0  0  0  0  0  0  0  0  0
   58.3522   28.0531   46.4305 C   0  0  0  0  0  0  0  0  0  0  0  0
   60.0738   32.4962   51.6197 N   0  0  0  0  0  0  0  0  0  0  0  0
   58.8708   32.8069   52.3412 C   0  0  0  0  0  0  0  0  0  0  0  0
   58.6339   34.0177   52.5940 O   0  0  0  0  0  0  0  0  0  0  0  0
   57.8764   31.7898   52.7576 C   0  0  0  0  0  0  0  0  0  0  0  0
   56.8969   31.3254   51.9351 N   0  0  0  0  0  0  0  0  0  0  0  0
   56.0846   30.4456   52.5583 C   0  0  0  0  0  0  0  0  0  0  0  0
   56.5293   30.2145   54.1576 S   0  0  0  0  0  0  0  0  0  0  0  0
   57.8322   31.2739   54.0550 C   0  0  0  0  0  0  0  0  0  0  0  0
   55.0087   29.7894   51.9497 O   0  0  0  0  0  0  0  0  0  0  0  0
   53.6623   30.0090   52.2659 C   0  0  0  0  0  0  0  0  0  0  0  0
   53.0856   29.3372   53.1623 O   0  0  0  0  0  0  0  0  0  0  0  0
   52.9200   30.9926   51.5475 N   0  0  0  0  0  0  0  0  0  0  0  0
   51.7217   30.6929   50.9829 O   0  0  0  0  0  0  0  0  0  0  0  0
   52.0042   29.9135   49.8493 C   0  0  0  0  0  0  0  0  0  0  0  0
 10 11  1  0
 11 12  1  0
 12 13  2  0
 13  8  1  0
  8  9  2  0
  8  2  1  0
  2  3  2  0
  3  4  1  0
  4  5  2  0
  5  6  1  0
  6  1  1  0
  1 16  1  0
 16 17  1  0
 17 18  2  0
 17 19  1  0
 19 20  1  0
 20 21  2  0
 21 24  1  0
 24 25  1  0
 25 26  2  0
 25 27  1  0
 27 28  1  0
 28 29  1  0
 21 22  1  0
 22 23  1  0
  6  7  2  0
 12 14  1  0
 14 15  1  0
 15 10  2  0
  7  2  1  0
 23 19  2  0
M  CHG 1  11  -1
M  CHG 1  16  -1
M  CHG 1  27  -1
M  END
> <UniqueID>
68

> <SMILES>
CO[N-]C(=O)Oc1nc(C(=O)[N-]Cc2cccc(C(=O)/N=c3/[n-]ccs3)c2)cs1

> <Energy>
106.32275038899002

> <Genealogy>
CO[N-]C(=O)Oc1nc(C(=O)[N-]Cc2cccc(C(=O)N=c3[n-]ccs3)c2)cs1 (protonated)
CO[N-]C(=O)Oc1nc(C(=O)[N-]Cc2cccc(C(=O)/N=c3/[n-]ccs3)c2)cs1 (cis-trans isomerization)
CO[N-]C(=O)Oc1nc(C(=O)[N-]Cc2cccc(C(=O)/N=c3/[n-]ccs3)c2)cs1 (3D coordinates assigned)
CO[N-]C(=O)Oc1nc(C(=O)[N-]Cc2cccc(C(=O)/N=c3/[n-]ccs3)c2)cs1 (optimized conformer: 106.32275038899002 kcal/mol)

> <smiles>
CONC(=O)Oc1nc(C(=O)NCc2cccc(C(=O)N=c3[nH]ccs3)c2)cs1

> <score_type>
oracle

> <origin>
adg

> <m_score__min__energy>
-14.1

> <m_primary>
energy

> <minimizedAffinity>
-6.49600

> <minimizedRMSD>
2.40439

> <CNNscore>
0.6139363647

> <CNNaffinity>
6.5144710541

> <CNN_VS>
3.9994707108

> <CNNaffinity_variance>
0.1024508253

$$$$
80:0


 38 42  0  0  0  0  0  0  0  0999 V2000
   57.4564   23.9790   44.8606 C   0  0  0  0  0  0  0  0  0  0  0  0
   58.0444   25.3405   45.1232 C   0  0  0  0  0  0  0  0  0  0  0  0
   57.9651   26.3225   44.1212 C   0  0  0  0  0  0  0  0  0  0  0  0
   58.3380   27.6413   44.3894 C   0  0  0  0  0  0  0  0  0  0  0  0
   58.7821   28.0108   45.6715 C   0  0  0  0  0  0  0  0  0  0  0  0
   58.8789   27.0299   46.6695 C   0  0  0  0  0  0  0  0  0  0  0  0
   58.5067   25.7060   46.4038 C   0  0  0  0  0  0  0  0  0  0  0  0
   59.0755   29.3864   45.9759 N   0  0  0  0  0  0  0  0  0  0  0  0
   60.3079   29.7338   46.6986 C   0  0  0  0  0  0  0  0  0  0  0  0
   60.0819   30.8917   47.6987 C   0  0  0  0  0  0  0  0  0  0  0  0
   58.9754   31.8171   47.3333 N   0  0  0  0  0  0  0  0  0  0  0  0
   58.7135   31.8268   45.8796 C   0  0  0  0  0  0  0  0  0  0  0  0
   58.2095   30.4498   45.4481 C   0  0  0  0  0  0  0  0  0  0  0  0
   59.2556   33.1790   47.8370 C   0  0  0  0  0  0  0  0  0  0  0  0
   60.7318   33.3788   48.0791 C   0  0  0  0  0  0  0  0  0  0  0  0
   61.2028   33.6517   49.3736 C   0  0  0  0  0  0  0  0  0  0  0  0
   62.5675   33.8341   49.6029 C   0  0  0  0  0  0  0  0  0  0  0  0
   63.4724   33.7599   48.5409 C   0  0  0  0  0  0  0  0  0  0  0  0
   63.0125   33.5012   47.2477 C   0  0  0  0  0  0  0  0  0  0  0  0
   61.6464   33.3106   47.0139 C   0  0  0  0  0  0  0  0  0  0  0  0
   56.0054   24.0348   44.6906 N   0  0  0  0  0  0  0  0  0  0  0  0
   55.1122   24.3659   45.7560 C   0  0  0  0  0  0  0  0  0  0  0  0
   54.8049   25.5694   45.9631 O   0  0  0  0  0  0  0  0  0  0  0  0
   52.2268   20.7628   47.1910 C   0  0  0  0  0  0  0  0  0  0  0  0
   53.2062   21.6805   47.2491 C   0  0  0  0  0  0  0  0  0  0  0  0
   54.3573   21.6370   48.0582 C   0  0  0  0  0  0  0  0  0  0  0  0
   54.7005   20.8133   49.0683 C   0  0  0  0  0  0  0  0  0  0  0  0
   55.1841   22.6502   47.6021 C   0  0  0  0  0  0  0  0  0  0  0  0
   54.5152   23.2926   46.5793 C   0  0  0  0  0  0  0  0  0  0  0  0
   53.2954   22.7297   46.3899 N   0  0  0  0  0  0  0  0  0  0  0  0
   52.2963   23.1335   45.3895 C   0  0  0  0  0  0  0  0  0  0  0  0
   55.9582   20.8736   49.8202 C   0  0  0  0  0  0  0  0  0  0  0  0
   56.0943   21.4037   51.0513 N   0  0  0  0  0  0  0  0  0  0  0  0
   57.4175   21.2827   51.2956 C   0  0  0  0  0  0  0  0  0  0  0  0
   57.9420   21.6474   52.3799 O   0  0  0  0  0  0  0  0  0  0  0  0
   58.1321   20.7227   50.2952 N   0  0  0  0  0  0  0  0  0  0  0  0
   57.1953   20.4805   49.3652 C   0  0  0  0  0  0  0  0  0  0  0  0
   57.4651   19.9193   48.1246 O   0  0  0  0  0  0  0  0  0  0  0  0
 24 25  2  0
 25 26  1  0
 26 27  2  0
 27 32  1  0
 32 33  1  0
 33 34  1  0
 34 35  2  0
 34 36  1  0
 36 37  1  0
 37 38  1  0
 26 28  1  0
 28 29  2  0
 29 22  1  0
 22 23  2  0
 22 21  1  0
 21  1  1  0
  1  2  1  0
  2  3  2  0
  3  4  1  0
  4  5  2  0
  5  8  1  0
  8  9  1  0
  9 10  1  0
 10 11  1  0
 11 14  1  0
 14 15  1  0
 15 16  2  0
 16 17  1  0
 17 18  2  0
 18 19  1  0
 19 20  2  0
 11 12  1  0
 12 13  1  0
  5  6  1  0
  6  7  2  0
 29 30  1  0
 30 31  1  0
 30 25  1  0
 37 32  2  0
  7  2  1  0
 13  8  1  0
 20 15  1  0
M  CHG 1  21  -1
M  CHG 1  33  -1
M  CHG 1  36  -1
M  CHG 1  38  -1
M  END
> <UniqueID>
77

> <SMILES>
C=c1c(=Cc2[n-]c(=O)[n-]c2[O-])cc(C(=O)[N-]Cc2ccc(N3CCN(Cc4ccccc4)CC3)cc2)n1C

> <Energy>
155.2268433449276

> <Genealogy>
C=c1c(=Cc2[n-]c(=O)[n-]c2[O-])cc(C(=O)[N-]Cc2ccc(N3CCN(Cc4ccccc4)CC3)cc2)n1C (protonated)
C=c1c(=Cc2[n-]c(=O)[n-]c2[O-])cc(C(=O)[N-]Cc2ccc(N3CCN(Cc4ccccc4)CC3)cc2)n1C (3D coordinates assigned)
C=c1c(=Cc2[n-]c(=O)[n-]c2[O-])cc(C(=O)[N-]Cc2ccc(N3CCN(Cc4ccccc4)CC3)cc2)n1C (nonaromatic ring conformer: 155.2268433449276 kcal/mol)

> <smiles>
C=c1c(=Cc2[nH]c(=O)[nH]c2O)cc(C(=O)NCc2ccc(N3CCN(Cc4ccccc4)CC3)cc2)n1C

> <score_type>
oracle

> <origin>
adg

> <m_score__min__energy>
-19.649999999999999

> <m_primary>
energy

> <minimizedAffinity>
-8.28517

> <minimizedRMSD>
0.79413

> <CNNscore>
0.0524267703

> <CNNaffinity>
5.9829850197

> <CNN_VS>
0.3136685789

> <CNNaffinity_variance>
0.3083982170

$$$$
6:0


 39 43  0  0  0  0  0  0  0  0999 V2000
   58.8698   31.0552   52.2828 C   0  0  0  0  0  0  0  0  0  0  0  0
   58.2209   32.1378   52.2646 O   0  0  0  0  0  0  0  0  0  0  0  0
   59.9596   30.8606   51.3548 N   0  0  0  0  0  0  0  0  0  0  0  0
   60.5658   32.0133   50.6790 C   0  0  0  0  0  0  0  0  0  0  0  0
   60.0339   32.1063   49.2661 C   0  0  0  0  0  0  0  0  0  0  0  0
   59.9504   33.2836   48.6084 C   0  0  0  0  0  0  0  0  0  0  0  0
   59.6158   30.8430   48.5948 C   0  0  0  0  0  0  0  0  0  0  0  0
   59.1846   30.8737   47.4076 O   0  0  0  0  0  0  0  0  0  0  0  0
   59.6952   29.5417   49.3214 C   0  0  0  0  0  0  0  0  0  0  0  0
   59.4350   28.3894   48.6693 C   0  0  0  0  0  0  0  0  0  0  0  0
   60.2160   29.5516   50.7443 C   0  0  0  0  0  0  0  0  0  0  0  0
   59.2271   33.4893   47.3380 C   0  0  0  0  0  0  0  0  0  0  0  0
   59.9162   34.0099   46.2312 C   0  0  0  0  0  0  0  0  0  0  0  0
   59.2425   34.2496   45.0289 C   0  0  0  0  0  0  0  0  0  0  0  0
   57.8724   33.9904   44.9305 C   0  0  0  0  0  0  0  0  0  0  0  0
   57.1726   33.4993   46.0360 C   0  0  0  0  0  0  0  0  0  0  0  0
   57.8435   33.2565   47.2394 C   0  0  0  0  0  0  0  0  0  0  0  0
   59.3211   28.2752   47.2041 C   0  0  0  0  0  0  0  0  0  0  0  0
   58.1302   27.8018   46.6347 C   0  0  0  0  0  0  0  0  0  0  0  0
   58.0226   27.6579   45.2488 C   0  0  0  0  0  0  0  0  0  0  0  0
   59.1102   27.9670   44.4248 C   0  0  0  0  0  0  0  0  0  0  0  0
   60.3079   28.4133   44.9883 C   0  0  0  0  0  0  0  0  0  0  0  0
   60.4195   28.5580   46.3748 C   0  0  0  0  0  0  0  0  0  0  0  0
   58.4573   29.9633   53.2375 C   0  0  0  0  0  0  0  0  0  0  0  0
   53.6136   30.7050   52.9529 C   0  0  0  0  0  0  0  0  0  0  0  0
   54.7845   30.0619   53.1205 C   0  0  0  0  0  0  0  0  0  0  0  0
   56.0120   30.7021   53.0438 C   0  0  0  0  0  0  0  0  0  0  0  0
   56.9761   29.7272   53.2059 C   0  0  0  0  0  0  0  0  0  0  0  0
   56.4031   28.5285   53.4201 N   0  0  0  0  0  0  0  0  0  0  0  0
   55.0679   28.7151   53.3933 C   0  0  0  0  0  0  0  0  0  0  0  0
   54.2127   27.7387   53.7143 C   0  0  0  0  0  0  0  0  0  0  0  0
   56.8712   27.6752   53.5686 H   0  0  0  0  0  0  0  0  0  0  0  0
   52.8291   30.7430   51.7092 C   0  0  0  0  0  0  0  0  0  0  0  0
   52.9545   29.8374   50.7226 N   0  0  0  0  0  0  0  0  0  0  0  0
   51.9700   30.1766   49.8615 C   0  0  0  0  0  0  0  0  0  0  0  0
   51.7719   29.5600   48.7817 O   0  0  0  0  0  0  0  0  0  0  0  0
   51.2080   31.2225   50.2531 N   0  0  0  0  0  0  0  0  0  0  0  0
   51.7553   31.5599   51.4315 C   0  0  0  0  0  0  0  0  0  0  0  0
   51.2722   32.5789   52.2448 O   0  0  0  0  0  0  0  0  0  0  0  0
 25 33  1  0
 33 34  1  0
 34 35  1  0
 35 36  2  0
 35 37  1  0
 37 38  1  0
 38 39  1  0
 25 26  2  0
 26 27  1  0
 27 28  2  0
 28 24  1  0
 24  1  1  0
  1  2  2  0
  1  3  1  0
  3  4  1  0
  4  5  1  0
  5  6  2  0
  6 12  1  0
 12 13  2  0
 13 14  1  0
 14 15  2  0
 15 16  1  0
 16 17  2  0
  5  7  1  0
  7  8  2  0
  7  9  1  0
  9 10  2  0
 10 18  1  0
 18 19  2  0
 19 20  1  0
 20 21  2  0
 21 22  1  0
 22 23  2  0
  9 11  1  0
 28 29  1  0
 29 30  1  0
 30 31  2  0
 38 33  2  0
 30 26  1  0
 11  3  1  0
 17 12  1  0
 23 18  1  0
 29 32  1  0
M  CHG 1  34  -1
M  CHG 1  37  -1
M  CHG 1  39  -1
M  END
> <UniqueID>
7

> <SMILES>
C=c1[nH]c(CC(=O)N2C/C(=C\c3ccccc3)C(=O)/C(=C/c3ccccc3)C2)cc1=Cc1[n-]c(=O)[n-]c1[O-]

> <Energy>
153.38836209108362

> <Genealogy>
C=c1[nH]c(CC(=O)N2CC(=Cc3ccccc3)C(=O)C(=Cc3ccccc3)C2)cc1=Cc1[n-]c(=O)[n-]c1[O-] (protonated)
C=c1[nH]c(CC(=O)N2C/C(=C\c3ccccc3)C(=O)/C(=C/c3ccccc3)C2)cc1=Cc1[n-]c(=O)[n-]c1[O-] (cis-trans isomerization)
C=c1[nH]c(CC(=O)N2C/C(=C\c3ccccc3)C(=O)/C(=C/c3ccccc3)C2)cc1=Cc1[n-]c(=O)[n-]c1[O-] (3D coordinates assigned)
C=c1[nH]c(CC(=O)N2C/C(=C\c3ccccc3)C(=O)/C(=C/c3ccccc3)C2)cc1=Cc1[n-]c(=O)[n-]c1[O-] (nonaromatic ring conformer: 153.38836209108362 kcal/mol)

> <smiles>
C=c1[nH]c(CC(=O)N2CC(=Cc3ccccc3)C(=O)C(=Cc3ccccc3)C2)cc1=Cc1[nH]c(=O)[nH]c1O

> <score_type>
oracle

> <origin>
adg

> <m_score__min__energy>
-20.77

> <m_primary>
energy

> <minimizedAffinity>
-9.43660

> <minimizedRMSD>
0.75019

> <CNNscore>
0.1137943342

> <CNNaffinity>
6.5899982452

> <CNN_VS>
0.7499044538

> <CNNaffinity_variance>
0.6049582958

$$$$
14:0


 29 32  0  0  0  0  0  0  0  0999 V2000
   53.9405   27.7393   53.9191 C   0  0  0  0  0  0  0  0  0  0  0  0
   55.1324   28.2990   53.6288 C   0  0  0  0  0  0  0  0  0  0  0  0
   56.2522   27.6972   54.1347 N   0  0  0  0  0  0  0  0  0  0  0  0
   57.4988   28.2021   53.9580 C   0  0  0  0  0  0  0  0  0  0  0  0
   57.6936   29.3675   53.2216 C   0  0  0  0  0  0  0  0  0  0  0  0
   56.5770   30.0160   52.6871 C   0  0  0  0  0  0  0  0  0  0  0  0
   55.2708   29.5050   52.8630 C   0  0  0  0  0  0  0  0  0  0  0  0
   54.2146   30.1219   52.2668 C   0  0  0  0  0  0  0  0  0  0  0  0
   56.1490   26.8635   54.6482 H   0  0  0  0  0  0  0  0  0  0  0  0
   59.0515   29.9257   53.0250 C   0  0  0  0  0  0  0  0  0  0  0  0
   59.8613   29.9196   53.9925 O   0  0  0  0  0  0  0  0  0  0  0  0
   59.4740   30.4577   51.7544 N   0  0  0  0  0  0  0  0  0  0  0  0
   60.8451   30.2032   51.2999 C   0  0  0  0  0  0  0  0  0  0  0  0
   61.1164   30.8428   49.9337 C   0  0  0  0  0  0  0  0  0  0  0  0
   60.6902   32.3304   49.9366 C   0  0  0  0  0  0  0  0  0  0  0  0
   59.1903   32.4776   50.3463 C   0  0  0  0  0  0  0  0  0  0  0  0
   58.5413   31.1972   50.8974 C   0  0  0  0  0  0  0  0  0  0  0  0
   60.9358   32.9650   48.6119 N   0  0  0  0  0  0  0  0  0  0  0  0
   60.1552   34.1932   48.4099 C   0  0  0  0  0  0  0  0  0  0  0  0
   60.0182   34.3787   46.9140 C   0  0  0  0  0  0  0  0  0  0  0  0
   60.0701   32.9762   46.3464 C   0  0  0  0  0  0  0  0  0  0  0  0
   60.5615   32.0906   47.4862 C   0  0  0  0  0  0  0  0  0  0  0  0
   52.9207   30.4155   52.9155 C   0  0  0  0  0  0  0  0  0  0  0  0
   52.7659   30.5167   54.2474 N   0  0  0  0  0  0  0  0  0  0  0  0
   51.4767   30.8949   54.3847 C   0  0  0  0  0  0  0  0  0  0  0  0
   50.9412   31.0813   55.5080 O   0  0  0  0  0  0  0  0  0  0  0  0
   50.8086   31.0664   53.2237 N   0  0  0  0  0  0  0  0  0  0  0  0
   51.7394   30.7723   52.3026 C   0  0  0  0  0  0  0  0  0  0  0  0
   51.5249   30.8645   50.9328 O   0  0  0  0  0  0  0  0  0  0  0  0
  1  2  2  0
  2  3  1  0
  3  4  2  0
  4  5  1  0
  5 10  1  0
 10 11  2  0
 10 12  1  0
 12 13  1  0
 13 14  1  0
 14 15  1  0
 15 18  1  0
 18 19  1  0
 19 20  1  0
 20 21  1  0
 21 22  1  0
 15 16  1  0
 16 17  1  0
  5  6  2  0
  6  7  1  0
  7  8  2  0
  8 23  1  0
 23 24  1  0
 24 25  1  0
 25 26  2  0
 25 27  1  0
 27 28  1  0
 28 29  1  0
  7  2  1  0
 28 23  2  0
 17 12  1  0
 22 18  1  0
  3  9  1  0
M  CHG 1   3   1
M  CHG 1  24  -1
M  CHG 1  27  -1
M  CHG 1  29  -1
M  END
> <UniqueID>
15

> <SMILES>
C=c1[nH+]cc(C(=O)N2CCC(N3CCCC3)CC2)cc1=Cc1[n-]c(=O)[n-]c1[O-]

> <Energy>
111.67769533967996

> <Genealogy>
C=c1[nH+]cc(C(=O)N2CCC(N3CCCC3)CC2)cc1=Cc1[n-]c(=O)[n-]c1[O-] (protonated)
C=c1[nH+]cc(C(=O)N2CCC(N3CCCC3)CC2)cc1=Cc1[n-]c(=O)[n-]c1[O-] (3D coordinates assigned)
C=c1[nH+]cc(C(=O)N2CCC(N3CCCC3)CC2)cc1=Cc1[n-]c(=O)[n-]c1[O-] (nonaromatic ring conformer: 111.67769533967996 kcal/mol)

> <smiles>
C=c1ncc(C(=O)N2CCC(N3CCCC3)CC2)cc1=Cc1[nH]c(=O)[nH]c1O

> <score_type>
oracle

> <origin>
adg

> <m_score__min__energy>
-17.059999999999999

> <m_primary>
energy

> <minimizedAffinity>
-7.01613

> <minimizedRMSD>
1.63827

> <CNNscore>
0.0948812589

> <CNNaffinity>
5.1373915672

> <CNN_VS>
0.4874421656

> <CNNaffinity_variance>
0.1328412443

$$$$
17:0


 27 29  0  0  0  0  0  0  0  0999 V2000
   55.8486   29.8906   43.8707 C   0  0  0  0  0  0  0  0  0  0  0  0
   56.8593   29.4656   44.6292 C   0  0  0  0  0  0  0  0  0  0  0  0
   57.0231   28.1788   44.9920 N   0  0  0  0  0  0  0  0  0  0  0  0
   58.1282   28.1127   45.7660 C   0  0  0  0  0  0  0  0  0  0  0  0
   58.5454   26.9522   46.3060 C   0  0  0  0  0  0  0  0  0  0  0  0
   58.6950   29.3872   45.8785 C   0  0  0  0  0  0  0  0  0  0  0  0
   57.8821   30.2449   45.1462 C   0  0  0  0  0  0  0  0  0  0  0  0
   58.0928   31.7132   44.9139 C   0  0  0  0  0  0  0  0  0  0  0  0
   56.4434   27.4243   44.7392 H   0  0  0  0  0  0  0  0  0  0  0  0
   57.9465   25.6294   46.0547 C   0  0  0  0  0  0  0  0  0  0  0  0
   58.6464   24.4848   45.8950 N   0  0  0  0  0  0  0  0  0  0  0  0
   57.6925   23.5312   45.8170 C   0  0  0  0  0  0  0  0  0  0  0  0
   57.9592   22.3099   45.6707 O   0  0  0  0  0  0  0  0  0  0  0  0
   56.4366   24.0124   45.9296 N   0  0  0  0  0  0  0  0  0  0  0  0
   55.1926   23.2549   46.0032 C   0  0  0  0  0  0  0  0  0  0  0  0
   56.6029   25.3317   46.1122 C   0  0  0  0  0  0  0  0  0  0  0  0
   55.5695   26.2349   46.3399 O   0  0  0  0  0  0  0  0  0  0  0  0
   60.0158   29.7466   46.4312 C   0  0  0  0  0  0  0  0  0  0  0  0
   61.0456   29.2748   45.8750 O   0  0  0  0  0  0  0  0  0  0  0  0
   60.1524   30.6243   47.5676 N   0  0  0  0  0  0  0  0  0  0  0  0
   61.4852   31.1278   47.9213 C   0  0  0  0  0  0  0  0  0  0  0  0
   61.4255   32.0353   49.1577 C   0  0  0  0  0  0  0  0  0  0  0  0
   60.3024   32.9933   49.0689 N   0  0  0  0  0  0  0  0  0  0  0  0
   58.9756   32.3302   48.9231 C   0  0  0  0  0  0  0  0  0  0  0  0
   59.0457   30.8482   48.5089 C   0  0  0  0  0  0  0  0  0  0  0  0
   60.5379   34.0280   48.0377 C   0  0  0  0  0  0  0  0  0  0  0  0
   59.2533   34.3129   47.2637 C   0  0  0  0  0  0  0  0  0  0  0  0
  1  2  2  0
  2  3  1  0
  3  4  1  0
  4  5  2  0
  5 10  1  0
 10 11  1  0
 11 12  1  0
 12 13  2  0
 12 14  1  0
 14 15  1  0
 14 16  1  0
 16 17  1  0
  4  6  1  0
  6 18  1  0
 18 19  2  0
 18 20  1  0
 20 21  1  0
 21 22  1  0
 22 23  1  0
 23 26  1  0
 26 27  1  0
 23 24  1  0
 24 25  1  0
  6  7  2  0
  7  8  1  0
  7  2  1  0
 16 10  2  0
 25 20  1  0
  3  9  1  0
M  CHG 1  11  -1
M  CHG 1  17  -1
M  END
> <UniqueID>
18

> <SMILES>
C=c1[nH]c(=Cc2[n-]c(=O)n(C)c2[O-])c(C(=O)N2CCN(CC)CC2)c1C

> <Energy>
125.33038936118295

> <Genealogy>
C=c1[nH]c(=Cc2[n-]c(=O)n(C)c2[O-])c(C(=O)N2CCN(CC)CC2)c1C (protonated)
C=c1[nH]c(=Cc2[n-]c(=O)n(C)c2[O-])c(C(=O)N2CCN(CC)CC2)c1C (3D coordinates assigned)
C=c1[nH]c(=Cc2[n-]c(=O)n(C)c2[O-])c(C(=O)N2CCN(CC)CC2)c1C (nonaromatic ring conformer: 125.33038936118295 kcal/mol)

> <smiles>
C=c1[nH]c(=Cc2[nH]c(=O)n(C)c2O)c(C(=O)N2CCN(CC)CC2)c1C

> <score_type>
oracle

> <origin>
adg

> <m_score__min__energy>
-14.31

> <m_primary>
energy

> <minimizedAffinity>
-8.42916

> <minimizedRMSD>
1.53798

> <CNNscore>
0.1342366338

> <CNNaffinity>
5.6182618141

> <CNN_VS>
0.7541765571

> <CNNaffinity_variance>
0.2018902749

$$$$
26:0


 30 32  0  0  0  0  0  0  0  0999 V2000
   54.1373   27.9324   53.6730 C   0  0  0  0  0  0  0  0  0  0  0  0
   55.0466   28.7967   53.1895 C   0  0  0  0  0  0  0  0  0  0  0  0
   54.7952   29.9602   52.4399 C   0  0  0  0  0  0  0  0  0  0  0  0
   53.6637   30.4182   51.8666 C   0  0  0  0  0  0  0  0  0  0  0  0
   56.0040   30.6272   52.3463 C   0  0  0  0  0  0  0  0  0  0  0  0
   56.9490   29.8447   52.9813 C   0  0  0  0  0  0  0  0  0  0  0  0
   56.3729   28.7218   53.4788 N   0  0  0  0  0  0  0  0  0  0  0  0
   57.0295   27.6752   54.2746 C   0  0  0  0  0  0  0  0  0  0  0  0
   52.4561   30.8501   52.5868 C   0  0  0  0  0  0  0  0  0  0  0  0
   52.2386   30.6064   53.8903 N   0  0  0  0  0  0  0  0  0  0  0  0
   51.0870   31.2730   54.1425 C   0  0  0  0  0  0  0  0  0  0  0  0
   50.5377   31.2698   55.2740 O   0  0  0  0  0  0  0  0  0  0  0  0
   50.5782   31.9487   53.0877 N   0  0  0  0  0  0  0  0  0  0  0  0
   51.4650   31.6840   52.1150 C   0  0  0  0  0  0  0  0  0  0  0  0
   51.3789   32.2061   50.8288 O   0  0  0  0  0  0  0  0  0  0  0  0
   58.4204   30.1668   53.0057 C   0  0  0  0  0  0  0  0  0  0  0  0
   58.7271   31.2898   52.0453 C   0  0  0  0  0  0  0  0  0  0  0  0
   58.7229   32.4397   52.4655 O   0  0  0  0  0  0  0  0  0  0  0  0
   59.0572   31.0236   50.6560 N   0  0  0  0  0  0  0  0  0  0  0  0
   58.7904   32.2195   49.8206 C   0  0  0  0  0  0  0  0  0  0  0  0
   59.4513   32.1194   48.4281 C   0  0  0  0  0  0  0  0  0  0  0  0
   59.8097   30.7209   48.1299 N   0  0  0  0  0  0  0  0  0  0  0  0
   60.8017   30.1843   49.0886 C   0  0  0  0  0  0  0  0  0  0  0  0
   60.4675   30.5981   50.5391 C   0  0  0  0  0  0  0  0  0  0  0  0
   59.3913   31.9327   50.4799 H   0  0  0  0  0  0  0  0  0  0  0  0
   60.1700   30.4704   46.7138 C   0  0  0  0  0  0  0  0  0  0  0  0
   59.4430   29.2740   46.0555 C   0  0  0  0  0  0  0  0  0  0  0  0
   58.0586   29.6329   45.6058 C   0  0  0  0  0  0  0  0  0  0  0  0
   57.2424   28.7274   45.2803 O   0  0  0  0  0  0  0  0  0  0  0  0
   57.6603   30.9686   45.5639 O   0  0  0  0  0  0  0  0  0  0  0  0
  1  2  2  0
  2  3  1  0
  3  4  2  0
  4  9  1  0
  9 10  1  0
 10 11  1  0
 11 12  2  0
 11 13  1  0
 13 14  1  0
 14 15  1  0
  3  5  1  0
  5  6  2  0
  6 16  1  0
 16 17  1  0
 17 18  2  0
 17 19  1  0
 19 20  1  0
 20 21  1  0
 21 22  1  0
 22 26  1  0
 26 27  1  0
 27 28  1  0
 28 29  2  0
 28 30  1  0
 22 23  1  0
 23 24  1  0
  6  7  1  0
  7  8  1  0
  7  2  1  0
 14  9  2  0
 24 19  1  0
 19 25  1  0
M  CHG 1  10  -1
M  CHG 1  13  -1
M  CHG 1  15  -1
M  CHG 1  19   1
M  CHG 1  30  -1
M  END
> <UniqueID>
26

> <SMILES>
C=c1c(=Cc2[n-]c(=O)[n-]c2[O-])cc(CC(=O)[NH+]2CCN(CCC(=O)[O-])CC2)n1C

> <Energy>
132.13815910859788

> <Genealogy>
C=c1c(=Cc2[n-]c(=O)[n-]c2[O-])cc(CC(=O)[NH+]2CCN(CCC(=O)[O-])CC2)n1C (protonated)
C=c1c(=Cc2[n-]c(=O)[n-]c2[O-])cc(CC(=O)[NH+]2CCN(CCC(=O)[O-])CC2)n1C (3D coordinates assigned)
C=c1c(=Cc2[n-]c(=O)[n-]c2[O-])cc(CC(=O)[NH+]2CCN(CCC(=O)[O-])CC2)n1C (nonaromatic ring conformer: 132.13815910859788 kcal/mol)

> <smiles>
C=c1c(=Cc2[nH]c(=O)[nH]c2O)cc(CC(=O)N2CCN(CCC(=O)O)CC2)n1C

> <score_type>
oracle

> <origin>
adg

> <m_score__min__energy>
-18.27

> <m_primary>
energy

> <minimizedAffinity>
-6.69226

> <minimizedRMSD>
1.81001

> <CNNscore>
0.0981126428

> <CNNaffinity>
5.0175642967

> <CNN_VS>
0.4922865033

> <CNNaffinity_variance>
0.1843603849

$$$$
47:0


 27 29  0  0  0  0  0  0  0  0999 V2000
   54.4300   28.6512   55.0989 C   0  0  0  0  0  0  0  0  0  0  0  0
   55.0159   29.3602   54.1206 C   0  0  0  0  0  0  0  0  0  0  0  0
   54.3538   30.0988   53.1326 C   0  0  0  0  0  0  0  0  0  0  0  0
   53.0229   30.2301   52.9609 C   0  0  0  0  0  0  0  0  0  0  0  0
   55.3408   30.6165   52.3092 C   0  0  0  0  0  0  0  0  0  0  0  0
   56.5487   30.2082   52.8302 C   0  0  0  0  0  0  0  0  0  0  0  0
   56.3620   29.4489   53.9380 N   0  0  0  0  0  0  0  0  0  0  0  0
   52.3831   30.5112   51.6625 C   0  0  0  0  0  0  0  0  0  0  0  0
   52.3974   29.6465   50.6327 N   0  0  0  0  0  0  0  0  0  0  0  0
   51.6371   30.2585   49.6991 C   0  0  0  0  0  0  0  0  0  0  0  0
   51.4216   29.7568   48.5653 O   0  0  0  0  0  0  0  0  0  0  0  0
   51.1188   31.4461   50.0786 N   0  0  0  0  0  0  0  0  0  0  0  0
   51.5885   31.5859   51.3286 C   0  0  0  0  0  0  0  0  0  0  0  0
   51.2578   32.6501   52.1591 O   0  0  0  0  0  0  0  0  0  0  0  0
   57.8481   30.5161   52.2012 C   0  0  0  0  0  0  0  0  0  0  0  0
   58.4659   29.5847   51.6162 O   0  0  0  0  0  0  0  0  0  0  0  0
   58.3105   31.8838   52.0846 N   0  0  0  0  0  0  0  0  0  0  0  0
   58.4931   32.2442   50.6500 C   0  0  0  0  0  0  0  0  0  0  0  0
   59.9709   32.2961   50.2415 C   0  0  0  0  0  0  0  0  0  0  0  0
   60.6901   33.3020   51.0509 N   0  0  0  0  0  0  0  0  0  0  0  0
   60.2827   33.3615   52.4766 C   0  0  0  0  0  0  0  0  0  0  0  0
   59.5249   32.0990   52.9148 C   0  0  0  0  0  0  0  0  0  0  0  0
   59.1624   31.3913   52.1134 H   0  0  0  0  0  0  0  0  0  0  0  0
   62.1533   33.2962   50.8342 C   0  0  0  0  0  0  0  0  0  0  0  0
   62.6026   34.0256   49.5605 C   0  0  0  0  0  0  0  0  0  0  0  0
   57.4028   28.7100   54.6671 C   0  0  0  0  0  0  0  0  0  0  0  0
   58.0199   29.5886   55.7500 C   0  0  0  0  0  0  0  0  0  0  0  0
  1  2  2  0
  2  3  1  0
  3  4  2  0
  4  8  1  0
  8  9  1  0
  9 10  1  0
 10 11  2  0
 10 12  1  0
 12 13  1  0
 13 14  1  0
  3  5  1  0
  5  6  2  0
  6 15  1  0
 15 16  2  0
 15 17  1  0
 17 18  1  0
 18 19  1  0
 19 20  1  0
 20 24  1  0
 24 25  1  0
 20 21  1  0
 21 22  1  0
  6  7  1  0
  7 26  1  0
 26 27  1  0
  7  2  1  0
 13  8  2  0
 22 17  1  0
 17 23  1  0
M  CHG 1   9  -1
M  CHG 1  12  -1
M  CHG 1  14  -1
M  CHG 1  17   1
M  END
> <UniqueID>
44

> <SMILES>
C=c1c(=Cc2[n-]c(=O)[n-]c2[O-])cc(C(=O)[NH+]2CCN(CC)CC2)n1CC

> <Energy>
133.936545942804

> <Genealogy>
C=c1c(=Cc2[n-]c(=O)[n-]c2[O-])cc(C(=O)[NH+]2CCN(CC)CC2)n1CC (protonated)
C=c1c(=Cc2[n-]c(=O)[n-]c2[O-])cc(C(=O)[NH+]2CCN(CC)CC2)n1CC (3D coordinates assigned)
C=c1c(=Cc2[n-]c(=O)[n-]c2[O-])cc(C(=O)[NH+]2CCN(CC)CC2)n1CC (nonaromatic ring conformer: 133.936545942804 kcal/mol)

> <smiles>
C=c1c(=Cc2[nH]c(=O)[nH]c2O)cc(C(=O)N2CCN(CC)CC2)n1CC

> <score_type>
oracle

> <origin>
adg

> <m_score__min__energy>
-15.550000000000001

> <m_primary>
energy

> <minimizedAffinity>
-4.76459

> <minimizedRMSD>
0.99458

> <CNNscore>
0.0788866878

> <CNNaffinity>
4.3601918221

> <CNN_VS>
0.3439610898

> <CNNaffinity_variance>
0.5529147387

$$$$
73:0


 33 36  0  0  0  0  0  0  0  0999 V2000
   59.2631   30.0464   49.4013 C   0  0  0  0  0  0  0  0  0  0  0  0
   58.4750   29.6002   50.2774 O   0  0  0  0  0  0  0  0  0  0  0  0
   59.0983   26.4131   46.1243 C   0  0  0  0  0  0  0  0  0  0  0  0
   59.4325   27.5646   46.7404 C   0  0  0  0  0  0  0  0  0  0  0  0
   58.9451   28.0127   47.9579 C   0  0  0  0  0  0  0  0  0  0  0  0
   59.5677   29.2172   48.2190 C   0  0  0  0  0  0  0  0  0  0  0  0
   60.4483   29.5180   47.2322 N   0  0  0  0  0  0  0  0  0  0  0  0
   61.3212   30.6965   47.1757 C   0  0  0  0  0  0  0  0  0  0  0  0
   60.3564   28.5224   46.3105 C   0  0  0  0  0  0  0  0  0  0  0  0
   61.0292   28.5004   45.1464 C   0  0  0  0  0  0  0  0  0  0  0  0
   56.0952   27.0537   45.7530 O   0  0  0  0  0  0  0  0  0  0  0  0
   56.6034   25.8826   46.3076 C   0  0  0  0  0  0  0  0  0  0  0  0
   55.8402   24.8463   46.6933 N   0  0  0  0  0  0  0  0  0  0  0  0
   56.7546   23.9376   47.0914 C   0  0  0  0  0  0  0  0  0  0  0  0
   56.4346   22.7996   47.5258 O   0  0  0  0  0  0  0  0  0  0  0  0
   58.0404   24.3362   46.9754 N   0  0  0  0  0  0  0  0  0  0  0  0
   57.9364   25.5890   46.4993 C   0  0  0  0  0  0  0  0  0  0  0  0
   55.1694   27.1656   45.6617 H   0  0  0  0  0  0  0  0  0  0  0  0
   59.8055   31.3652   49.5320 N   0  0  0  0  0  0  0  0  0  0  0  0
   58.9930   32.5762   49.5437 C   0  0  0  0  0  0  0  0  0  0  0  0
   59.0426   33.2365   48.1934 C   0  0  0  0  0  0  0  0  0  0  0  0
   60.0635   34.1526   47.8932 C   0  0  0  0  0  0  0  0  0  0  0  0
   60.1683   34.6955   46.6106 C   0  0  0  0  0  0  0  0  0  0  0  0
   59.2713   34.3119   45.6095 C   0  0  0  0  0  0  0  0  0  0  0  0
   58.2496   33.3919   45.8928 C   0  0  0  0  0  0  0  0  0  0  0  0
   58.1310   32.8684   47.1900 C   0  0  0  0  0  0  0  0  0  0  0  0
   57.3449   32.9060   44.7911 C   0  0  0  0  0  0  0  0  0  0  0  0
   58.0222   31.8841   43.9566 N   0  0  0  0  0  0  0  0  0  0  0  0
   57.1821   31.4553   42.8130 C   0  0  0  0  0  0  0  0  0  0  0  0
   56.3685   30.1798   43.1172 C   0  0  0  0  0  0  0  0  0  0  0  0
   56.1039   30.0762   44.4982 O   0  0  0  0  0  0  0  0  0  0  0  0
   57.3070   29.8311   45.2097 C   0  0  0  0  0  0  0  0  0  0  0  0
   58.4857   30.7140   44.7344 C   0  0  0  0  0  0  0  0  0  0  0  0
 11 12  1  0
 12 13  1  0
 13 14  1  0
 14 15  2  0
 14 16  1  0
 16 17  1  0
 17  3  1  0
  3  4  2  0
  4  5  1  0
  5  6  2  0
  6  1  1  0
  1  2  2  0
  1 19  1  0
 19 20  1  0
 20 21  1  0
 21 22  2  0
 22 23  1  0
 23 24  2  0
 24 25  1  0
 25 27  1  0
 27 28  1  0
 28 29  1  0
 29 30  1  0
 30 31  1  0
 31 32  1  0
 32 33  1  0
 25 26  2  0
  6  7  1  0
  7  8  1  0
  7  9  1  0
  9 10  2  0
 17 12  2  0
  9  4  1  0
 26 21  1  0
 33 28  1  0
 11 18  1  0
M  CHG 1  13  -1
M  CHG 1  16  -1
M  CHG 1  19  -1
M  END
> <UniqueID>
70

> <SMILES>
C=c1/c(=C/c2[n-]c(=O)[n-]c2O)cc(C(=O)[N-]Cc2cccc(CN3CCOCC3)c2)n1C

> <Energy>
134.27430417108536

> <Genealogy>
C=c1c(=Cc2[n-]c(=O)[n-]c2O)cc(C(=O)[N-]Cc2cccc(CN3CCOCC3)c2)n1C (protonated)
C=c1/c(=C/c2[n-]c(=O)[n-]c2O)cc(C(=O)[N-]Cc2cccc(CN3CCOCC3)c2)n1C (cis-trans isomerization)
C=c1/c(=C/c2[n-]c(=O)[n-]c2O)cc(C(=O)[N-]Cc2cccc(CN3CCOCC3)c2)n1C (3D coordinates assigned)
C=c1/c(=C/c2[n-]c(=O)[n-]c2O)cc(C(=O)[N-]Cc2cccc(CN3CCOCC3)c2)n1C (nonaromatic ring conformer: 134.27430417108536 kcal/mol)

> <smiles>
C=c1c(=Cc2[nH]c(=O)[nH]c2O)cc(C(=O)NCc2cccc(CN3CCOCC3)c2)n1C

> <score_type>
oracle

> <origin>
adg

> <m_score__min__energy>
-16.190000000000001

> <m_primary>
energy

> <minimizedAffinity>
-8.29098

> <minimizedRMSD>
0.64709

> <CNNscore>
0.2849144340

> <CNNaffinity>
6.3484439850

> <CNN_VS>
1.8087632656

> <CNNaffinity_variance>
0.4360184669

$$$$
77:0


 31 34  0  0  0  0  0  0  0  0999 V2000
   59.4551   31.1536   47.2169 C   0  0  0  0  0  0  0  0  0  0  0  0
   58.3262   27.7598   43.9227 C   0  0  0  0  0  0  0  0  0  0  0  0
   58.7191   28.2939   45.0901 C   0  0  0  0  0  0  0  0  0  0  0  0
   59.4107   27.6463   46.1260 C   0  0  0  0  0  0  0  0  0  0  0  0
   59.6878   26.3421   46.3273 C   0  0  0  0  0  0  0  0  0  0  0  0
   59.8010   28.6379   47.0083 C   0  0  0  0  0  0  0  0  0  0  0  0
   59.2984   29.8284   46.5247 C   0  0  0  0  0  0  0  0  0  0  0  0
   58.6160   29.6184   45.3745 N   0  0  0  0  0  0  0  0  0  0  0  0
   57.9888   30.6464   44.5361 C   0  0  0  0  0  0  0  0  0  0  0  0
   58.7432   25.2279   46.1574 C   0  0  0  0  0  0  0  0  0  0  0  0
   59.1069   24.0044   45.7367 N   0  0  0  0  0  0  0  0  0  0  0  0
   57.9699   23.2831   45.8572 C   0  0  0  0  0  0  0  0  0  0  0  0
   57.9038   22.0675   45.5377 O   0  0  0  0  0  0  0  0  0  0  0  0
   56.9159   23.9614   46.3575 N   0  0  0  0  0  0  0  0  0  0  0  0
   57.4253   25.1881   46.5575 C   0  0  0  0  0  0  0  0  0  0  0  0
   56.7099   26.2377   47.1188 O   0  0  0  0  0  0  0  0  0  0  0  0
   59.7439   30.9514   48.6818 C   0  0  0  0  0  0  0  0  0  0  0  0
   58.8922   30.3386   49.3838 O   0  0  0  0  0  0  0  0  0  0  0  0
   60.9585   31.4335   49.2927 N   0  0  0  0  0  0  0  0  0  0  0  0
   61.0081   31.6120   50.7492 C   0  0  0  0  0  0  0  0  0  0  0  0
   61.9493   32.7635   51.1161 C   0  0  0  0  0  0  0  0  0  0  0  0
   63.2635   32.6141   50.4723 N   0  0  0  0  0  0  0  0  0  0  0  0
   63.4351   31.6588   49.3678 C   0  0  0  0  0  0  0  0  0  0  0  0
   62.1792   31.6092   48.4900 C   0  0  0  0  0  0  0  0  0  0  0  0
   64.4054   33.3222   51.0078 C   0  0  0  0  0  0  0  0  0  0  0  0
   65.7125   32.9862   50.6040 C   0  0  0  0  0  0  0  0  0  0  0  0
   66.8145   33.6664   51.1308 C   0  0  0  0  0  0  0  0  0  0  0  0
   66.6273   34.6872   52.0655 C   0  0  0  0  0  0  0  0  0  0  0  0
   67.6984   35.3446   52.5748 F   0  0  0  0  0  0  0  0  0  0  0  0
   65.3371   35.0282   52.4753 C   0  0  0  0  0  0  0  0  0  0  0  0
   64.2316   34.3503   51.9530 C   0  0  0  0  0  0  0  0  0  0  0  0
  2  3  2  0
  3  4  1  0
  4  5  2  0
  5 10  1  0
 10 11  1  0
 11 12  1  0
 12 13  2  0
 12 14  1  0
 14 15  1  0
 15 16  1  0
  4  6  1  0
  6  7  2  0
  7  1  1  0
  1 17  1  0
 17 18  2  0
 17 19  1  0
 19 20  1  0
 20 21  1  0
 21 22  1  0
 22 25  1  0
 25 26  2  0
 26 27  1  0
 27 28  2  0
 28 29  1  0
 28 30  1  0
 30 31  2  0
 22 23  1  0
 23 24  1  0
  7  8  1  0
  8  9  1  0
  8  3  1  0
 15 10  2  0
 24 19  1  0
 31 25  1  0
M  CHG 1  11  -1
M  CHG 1  14  -1
M  CHG 1  16  -1
M  END
> <UniqueID>
74

> <SMILES>
C=c1c(=Cc2[n-]c(=O)[n-]c2[O-])cc(CC(=O)N2CCN(c3ccc(F)cc3)CC2)n1C

> <Energy>
128.13776154887222

> <Genealogy>
C=c1c(=Cc2[n-]c(=O)[n-]c2[O-])cc(CC(=O)N2CCN(c3ccc(F)cc3)CC2)n1C (protonated)
C=c1c(=Cc2[n-]c(=O)[n-]c2[O-])cc(CC(=O)N2CCN(c3ccc(F)cc3)CC2)n1C (3D coordinates assigned)
C=c1c(=Cc2[n-]c(=O)[n-]c2[O-])cc(CC(=O)N2CCN(c3ccc(F)cc3)CC2)n1C (nonaromatic ring conformer: 128.13776154887222 kcal/mol)

> <smiles>
C=c1c(=Cc2[nH]c(=O)[nH]c2O)cc(CC(=O)N2CCN(c3ccc(F)cc3)CC2)n1C

> <score_type>
oracle

> <origin>
adg

> <m_score__min__energy>
-17.649999999999999

> <m_primary>
energy

> <minimizedAffinity>
-7.59260

> <minimizedRMSD>
2.43629

> <CNNscore>
0.1121800765

> <CNNaffinity>
5.9873733521

> <CNN_VS>
0.6716639996

> <CNNaffinity_variance>
0.0845472440

$$$$
9:0


 27 29  0  0  0  0  0  0  0  0999 V2000
   62.4295   33.7376   49.0443 C   0  0  0  0  0  0  0  0  0  0  0  0
   61.2634   33.6891   48.3844 C   0  0  0  0  0  0  0  0  0  0  0  0
   61.3090   33.9903   47.0609 N   0  0  0  0  0  0  0  0  0  0  0  0
   60.2673   33.7919   46.2201 C   0  0  0  0  0  0  0  0  0  0  0  0
   59.0876   33.1989   46.6792 C   0  0  0  0  0  0  0  0  0  0  0  0
   58.9778   32.9034   48.0560 C   0  0  0  0  0  0  0  0  0  0  0  0
   57.9152   32.3778   48.4925 O   0  0  0  0  0  0  0  0  0  0  0  0
   60.0356   33.2229   48.9554 C   0  0  0  0  0  0  0  0  0  0  0  0
   59.8091   33.0896   50.2931 C   0  0  0  0  0  0  0  0  0  0  0  0
   59.0296   32.0163   50.9487 C   0  0  0  0  0  0  0  0  0  0  0  0
   57.8639   32.3045   51.6767 C   0  0  0  0  0  0  0  0  0  0  0  0
   57.1278   31.2583   52.2392 C   0  0  0  0  0  0  0  0  0  0  0  0
   57.5276   29.9710   52.0598 N   0  0  0  0  0  0  0  0  0  0  0  0
   58.6369   29.6634   51.3370 C   0  0  0  0  0  0  0  0  0  0  0  0
   59.4000   30.6790   50.7582 C   0  0  0  0  0  0  0  0  0  0  0  0
   57.9825   32.9350   45.7182 C   0  0  0  0  0  0  0  0  0  0  0  0
   57.4666   33.8771   45.0575 O   0  0  0  0  0  0  0  0  0  0  0  0
   57.5034   31.5971   45.5293 N   0  0  0  0  0  0  0  0  0  0  0  0
   58.2433   30.5625   44.8128 C   0  0  0  0  0  0  0  0  0  0  0  0
   59.3305   29.9475   45.7025 C   0  0  0  0  0  0  0  0  0  0  0  0
   59.0945   28.4757   45.9229 C   0  0  0  0  0  0  0  0  0  0  0  0
   60.1691   27.6191   46.2177 C   0  0  0  0  0  0  0  0  0  0  0  0
   59.9431   26.2626   46.4636 C   0  0  0  0  0  0  0  0  0  0  0  0
   58.6429   25.7499   46.4224 C   0  0  0  0  0  0  0  0  0  0  0  0
   57.5661   26.5967   46.1396 C   0  0  0  0  0  0  0  0  0  0  0  0
   56.2744   26.0874   46.1041 O   0  0  0  0  0  0  0  0  0  0  0  0
   57.7894   27.9557   45.8941 C   0  0  0  0  0  0  0  0  0  0  0  0
  1  2  2  0
  2  3  1  0
  3  4  1  0
  4  5  2  0
  5 16  1  0
 16 17  2  0
 16 18  1  0
 18 19  1  0
 19 20  1  0
 20 21  1  0
 21 22  2  0
 22 23  1  0
 23 24  2  0
 24 25  1  0
 25 26  1  0
 25 27  2  0
  5  6  1  0
  6  7  2  0
  6  8  1  0
  8  9  2  0
  9 10  1  0
 10 11  2  0
 11 12  1  0
 12 13  2  0
 13 14  1  0
 14 15  2  0
  8  2  1  0
 15 10  1  0
 27 21  1  0
M  CHG 1   3  -1
M  CHG 1  18  -1
M  CHG 1  26  -1
M  END
> <UniqueID>
10

> <SMILES>
C=c1[n-]cc(C(=O)[N-]CCc2cccc([O-])c2)c(=O)c1=Cc1ccncc1

> <Energy>
68.5600568671642

> <Genealogy>
C=c1[n-]cc(C(=O)[N-]CCc2cccc([O-])c2)c(=O)c1=Cc1ccncc1 (protonated)
C=c1[n-]cc(C(=O)[N-]CCc2cccc([O-])c2)c(=O)c1=Cc1ccncc1 (3D coordinates assigned)
C=c1[n-]cc(C(=O)[N-]CCc2cccc([O-])c2)c(=O)c1=Cc1ccncc1 (optimized conformer: 68.5600568671642 kcal/mol)

> <smiles>
C=c1[nH]cc(C(=O)NCCc2cccc(O)c2)c(=O)c1=Cc1ccncc1

> <score_type>
oracle

> <origin>
adg

> <m_score__min__energy>
-14.44

> <m_primary>
energy

> <minimizedAffinity>
-7.54665

> <minimizedRMSD>
0.87208

> <CNNscore>
0.4478261173

> <CNNaffinity>
6.9317741394

> <CNN_VS>
3.1042294502

> <CNNaffinity_variance>
0.0972869620

$$$$
16:0


 30 32  0  0  0  0  0  0  0  0999 V2000
   57.2635   31.8181   45.4057 N   0  0  0  0  0  0  0  0  0  0  0  0
   58.2542   32.7481   45.8642 C   0  0  0  0  0  0  0  0  0  0  0  0
   58.5545   33.8580   45.0652 C   0  0  0  0  0  0  0  0  0  0  0  0
   59.4542   34.8273   45.5130 C   0  0  0  0  0  0  0  0  0  0  0  0
   60.0482   34.7053   46.7705 C   0  0  0  0  0  0  0  0  0  0  0  0
   59.7462   33.6071   47.5900 C   0  0  0  0  0  0  0  0  0  0  0  0
   58.8544   32.6271   47.1304 C   0  0  0  0  0  0  0  0  0  0  0  0
   60.4518   33.4801   49.2043 S   0  0  0  0  0  0  0  0  0  0  0  0
   59.4654   33.9954   50.2165 O   0  0  0  0  0  0  0  0  0  0  0  0
   61.6804   34.3446   49.2718 O   0  0  0  0  0  0  0  0  0  0  0  0
   60.8579   31.8269   49.6077 N   0  0  0  0  0  0  0  0  0  0  0  0
   60.9094   30.9884   48.3890 C   0  0  0  0  0  0  0  0  0  0  0  0
   60.8363   29.4985   48.7309 C   0  0  0  0  0  0  0  0  0  0  0  0
   59.5009   29.1568   49.4161 C   0  0  0  0  0  0  0  0  0  0  0  0
   58.8970   30.3527   50.1746 C   0  0  0  0  0  0  0  0  0  0  0  0
   59.9946   31.2972   50.6912 C   0  0  0  0  0  0  0  0  0  0  0  0
   57.8342   31.6283   43.1477 O   0  0  0  0  0  0  0  0  0  0  0  0
   57.2734   31.1203   44.1548 C   0  0  0  0  0  0  0  0  0  0  0  0
   56.6501   29.7618   44.0382 C   0  0  0  0  0  0  0  0  0  0  0  0
   56.7338   29.0126   45.2914 N   0  0  0  0  0  0  0  0  0  0  0  0
   57.8749   28.3037   45.7996 C   0  0  0  0  0  0  0  0  0  0  0  0
   58.8881   28.9672   46.1459 O   0  0  0  0  0  0  0  0  0  0  0  0
   57.9163   26.8295   45.9113 C   0  0  0  0  0  0  0  0  0  0  0  0
   59.1331   26.1365   45.8330 C   0  0  0  0  0  0  0  0  0  0  0  0
   59.1540   24.7430   45.9185 C   0  0  0  0  0  0  0  0  0  0  0  0
   57.9501   24.0488   46.0570 C   0  0  0  0  0  0  0  0  0  0  0  0
   57.9493   22.7917   46.1246 O   0  0  0  0  0  0  0  0  0  0  0  0
   56.7752   24.7285   46.1077 N   0  0  0  0  0  0  0  0  0  0  0  0
   56.7277   26.0856   46.0311 C   0  0  0  0  0  0  0  0  0  0  0  0
   55.4938   26.7239   46.0812 O   0  0  0  0  0  0  0  0  0  0  0  0
 17 18  2  0
 18 19  1  0
 19 20  1  0
 20 21  1  0
 21 22  2  0
 21 23  1  0
 23 24  1  0
 24 25  2  0
 25 26  1  0
 26 27  2  0
 26 28  1  0
 28 29  1  0
 29 30  1  0
 18  1  1  0
  1  2  1  0
  2  3  2  0
  3  4  1  0
  4  5  2  0
  5  6  1  0
  6  8  1  0
  8  9  2  0
  8 10  2  0
  8 11  1  0
 11 12  1  0
 12 13  1  0
 13 14  1  0
 14 15  1  0
 15 16  1  0
  6  7  2  0
 29 23  2  0
  7  2  1  0
 16 11  1  0
M  CHG 1   1  -1
M  CHG 1  20  -1
M  CHG 1  28  -1
M  CHG 1  30  -1
M  END
> <UniqueID>
17

> <SMILES>
O=C(C[N-]C(=O)c1ccc(=O)[n-]c1[O-])[N-]c1cccc(S(=O)(=O)N2CCCCC2)c1

> <Energy>
60.644173889709975

> <Genealogy>
O=C(C[N-]C(=O)c1ccc(=O)[n-]c1[O-])[N-]c1cccc(S(=O)(=O)N2CCCCC2)c1 (protonated)
O=C(C[N-]C(=O)c1ccc(=O)[n-]c1[O-])[N-]c1cccc(S(=O)(=O)N2CCCCC2)c1 (3D coordinates assigned)
O=C(C[N-]C(=O)c1ccc(=O)[n-]c1[O-])[N-]c1cccc(S(=O)(=O)N2CCCCC2)c1 (nonaromatic ring conformer: 60.644173889709975 kcal/mol)

> <smiles>
O=C(CNC(=O)c1ccc(=O)[nH]c1O)Nc1cccc(S(=O)(=O)N2CCCCC2)c1

> <score_type>
oracle

> <origin>
adg

> <m_score__min__energy>
-19.16

> <m_primary>
energy

> <minimizedAffinity>
-7.68149

> <minimizedRMSD>
0.86212

> <CNNscore>
0.8477156162

> <CNNaffinity>
7.3895201683

> <CNN_VS>
6.2642116547

> <CNNaffinity_variance>
0.1842129976

$$$$
26:0


 30 32  0  0  0  0  0  0  0  0999 V2000
   59.8064   27.1914   47.4147 C   0  0  0  0  0  0  0  0  0  0  0  0
   59.3409   28.1205   46.5635 C   0  0  0  0  0  0  0  0  0  0  0  0
   58.4971   27.8847   45.4671 C   0  0  0  0  0  0  0  0  0  0  0  0
   58.1426   26.7391   44.8517 C   0  0  0  0  0  0  0  0  0  0  0  0
   58.0389   29.1207   45.0584 C   0  0  0  0  0  0  0  0  0  0  0  0
   58.6719   30.0648   45.8381 C   0  0  0  0  0  0  0  0  0  0  0  0
   59.4780   29.4654   46.7527 N   0  0  0  0  0  0  0  0  0  0  0  0
   57.6835   25.5109   45.5217 C   0  0  0  0  0  0  0  0  0  0  0  0
   58.3741   24.3555   45.5650 N   0  0  0  0  0  0  0  0  0  0  0  0
   57.5091   23.4998   46.1522 C   0  0  0  0  0  0  0  0  0  0  0  0
   57.8005   22.2965   46.3860 O   0  0  0  0  0  0  0  0  0  0  0  0
   56.3072   24.0296   46.4602 N   0  0  0  0  0  0  0  0  0  0  0  0
   56.4299   25.2991   46.0416 C   0  0  0  0  0  0  0  0  0  0  0  0
   55.4153   26.2433   46.1284 O   0  0  0  0  0  0  0  0  0  0  0  0
   58.3985   31.5104   45.7408 C   0  0  0  0  0  0  0  0  0  0  0  0
   57.2208   31.9342   45.5979 O   0  0  0  0  0  0  0  0  0  0  0  0
   59.4883   32.4368   45.7847 N   0  0  0  0  0  0  0  0  0  0  0  0
   59.4828   33.6292   46.6228 C   0  0  0  0  0  0  0  0  0  0  0  0
   60.7384   33.6696   47.4515 C   0  0  0  0  0  0  0  0  0  0  0  0
   61.9810   33.3412   46.8828 C   0  0  0  0  0  0  0  0  0  0  0  0
   63.1302   33.3018   47.6778 C   0  0  0  0  0  0  0  0  0  0  0  0
   63.0482   33.5858   49.0439 C   0  0  0  0  0  0  0  0  0  0  0  0
   64.1624   33.5401   49.8140 F   0  0  0  0  0  0  0  0  0  0  0  0
   61.8163   33.9111   49.6172 C   0  0  0  0  0  0  0  0  0  0  0  0
   60.6632   33.9482   48.8263 C   0  0  0  0  0  0  0  0  0  0  0  0
   60.1919   30.1492   47.8485 C   0  0  0  0  0  0  0  0  0  0  0  0
   59.2248   30.5742   48.9614 C   0  0  0  0  0  0  0  0  0  0  0  0
   59.2699   29.6116   50.0838 N   0  0  0  0  0  0  0  0  0  0  0  0
   58.5864   30.1568   51.2678 C   0  0  0  0  0  0  0  0  0  0  0  0
   60.6598   29.2664   50.4277 C   0  0  0  0  0  0  0  0  0  0  0  0
  1  2  2  0
  2  3  1  0
  3  4  2  0
  4  8  1  0
  8  9  1  0
  9 10  1  0
 10 11  2  0
 10 12  1  0
 12 13  1  0
 13 14  1  0
  3  5  1  0
  5  6  2  0
  6 15  1  0
 15 16  2  0
 15 17  1  0
 17 18  1  0
 18 19  1  0
 19 20  2  0
 20 21  1  0
 21 22  2  0
 22 23  1  0
 22 24  1  0
 24 25  2  0
  6  7  1  0
  7 26  1  0
 26 27  1  0
 27 28  1  0
 28 29  1  0
 28 30  1  0
  7  2  1  0
 13  8  2  0
 25 19  1  0
M  CHG 1   9  -1
M  CHG 1  12  -1
M  CHG 1  14  -1
M  CHG 1  17  -1
M  END
> <UniqueID>
27

> <SMILES>
C=c1c(=Cc2[n-]c(=O)[n-]c2[O-])cc(C(=O)[N-]Cc2ccc(F)cc2)n1CCN(C)C

> <Energy>
118.67763916268257

> <Genealogy>
C=c1c(=Cc2[n-]c(=O)[n-]c2[O-])cc(C(=O)[N-]Cc2ccc(F)cc2)n1CCN(C)C (protonated)
C=c1c(=Cc2[n-]c(=O)[n-]c2[O-])cc(C(=O)[N-]Cc2ccc(F)cc2)n1CCN(C)C (3D coordinates assigned)
C=c1c(=Cc2[n-]c(=O)[n-]c2[O-])cc(C(=O)[N-]Cc2ccc(F)cc2)n1CCN(C)C (optimized conformer: 118.67763916268257 kcal/mol)

> <smiles>
C=c1c(=Cc2[nH]c(=O)[nH]c2O)cc(C(=O)NCc2ccc(F)cc2)n1CCN(C)C

> <score_type>
oracle

> <origin>
adg

> <m_score__min__energy>
-17.109999999999999

> <m_primary>
energy

> <minimizedAffinity>
-8.01742

> <minimizedRMSD>
1.09318

> <CNNscore>
0.2451275885

> <CNNaffinity>
6.9618115425

> <CNN_VS>
1.7065321207

> <CNNaffinity_variance>
0.0603846274

$$$$
27:0


 28 29  0  0  0  0  0  0  0  0999 V2000
   58.9837   32.0825   50.2295 C   0  0  0  0  0  0  0  0  0  0  0  0
   59.6395   33.1021   50.9442 C   0  0  0  0  0  0  0  0  0  0  0  0
   59.1423   33.5225   52.1797 C   0  0  0  0  0  0  0  0  0  0  0  0
   58.0073   32.9185   52.7238 C   0  0  0  0  0  0  0  0  0  0  0  0
   57.3744   31.8683   52.0505 C   0  0  0  0  0  0  0  0  0  0  0  0
   57.8624   31.4628   50.7940 C   0  0  0  0  0  0  0  0  0  0  0  0
   59.4455   31.6220   48.9518 N   0  0  0  0  0  0  0  0  0  0  0  0
   58.9448   31.9901   47.6604 C   0  0  0  0  0  0  0  0  0  0  0  0
   58.0498   32.8702   47.5373 O   0  0  0  0  0  0  0  0  0  0  0  0
   59.4142   31.2411   46.4509 C   0  0  0  0  0  0  0  0  0  0  0  0
   58.3359   30.2881   45.9232 C   0  0  0  0  0  0  0  0  0  0  0  0
   57.6475   30.8407   44.7025 C   0  0  0  0  0  0  0  0  0  0  0  0
   57.9995   31.9658   44.2570 O   0  0  0  0  0  0  0  0  0  0  0  0
   55.5122   29.5285   44.8382 N   0  0  0  0  0  0  0  0  0  0  0  0
   56.5435   30.1171   44.0486 C   0  0  0  0  0  0  0  0  0  0  0  0
   56.5039   30.0099   42.7933 O   0  0  0  0  0  0  0  0  0  0  0  0
   54.7739   29.0447   44.4022 H   0  0  0  0  0  0  0  0  0  0  0  0
   56.2077   31.2736   52.6347 N   0  0  0  0  0  0  0  0  0  0  0  0
   56.0802   29.9060   53.0461 C   0  0  0  0  0  0  0  0  0  0  0  0
   56.9909   29.3471   53.7146 O   0  0  0  0  0  0  0  0  0  0  0  0
   54.8465   29.1386   52.6927 C   0  0  0  0  0  0  0  0  0  0  0  0
   53.6495   30.0521   52.7114 C   0  0  0  0  0  0  0  0  0  0  0  0
   53.1974   30.6543   51.5252 C   0  0  0  0  0  0  0  0  0  0  0  0
   52.0643   31.4750   51.5382 C   0  0  0  0  0  0  0  0  0  0  0  0
   51.3680   31.6889   52.7321 C   0  0  0  0  0  0  0  0  0  0  0  0
   50.2413   32.5024   52.7427 O   0  0  0  0  0  0  0  0  0  0  0  0
   51.8040   31.0799   53.9140 C   0  0  0  0  0  0  0  0  0  0  0  0
   52.9380   30.2609   53.9040 C   0  0  0  0  0  0  0  0  0  0  0  0
 14 15  1  0
 15 16  2  0
 15 12  1  0
 12 13  2  0
 12 11  1  0
 11 10  1  0
 10  8  1  0
  8  9  2  0
  8  7  1  0
  7  1  1  0
  1  2  2  0
  2  3  1  0
  3  4  2  0
  4  5  1  0
  5 18  1  0
 18 19  1  0
 19 20  2  0
 19 21  1  0
 21 22  1  0
 22 23  2  0
 23 24  1  0
 24 25  2  0
 25 26  1  0
 25 27  1  0
 27 28  2  0
  5  6  2  0
  6  1  1  0
 28 22  1  0
 14 17  1  0
M  CHG 1   7  -1
M  CHG 1  14  -1
M  CHG 1  18  -1
M  CHG 1  26  -1
M  END
> <UniqueID>
28

> <SMILES>
[NH-]C(=O)C(=O)CCC(=O)[N-]c1cccc([N-]C(=O)Cc2ccc([O-])cc2)c1

> <Energy>
41.54833072449508

> <Genealogy>
[NH-]C(=O)C(=O)CCC(=O)[N-]c1cccc([N-]C(=O)Cc2ccc([O-])cc2)c1 (protonated)
[NH-]C(=O)C(=O)CCC(=O)[N-]c1cccc([N-]C(=O)Cc2ccc([O-])cc2)c1 (3D coordinates assigned)
[NH-]C(=O)C(=O)CCC(=O)[N-]c1cccc([N-]C(=O)Cc2ccc([O-])cc2)c1 (optimized conformer: 41.54833072449508 kcal/mol)

> <smiles>
NC(=O)C(=O)CCC(=O)Nc1cccc(NC(=O)Cc2ccc(O)cc2)c1

> <score_type>
oracle

> <origin>
adg

> <m_score__min__energy>
-16.460000000000001

> <m_primary>
energy

> <minimizedAffinity>
-7.21617

> <minimizedRMSD>
0.98248

> <CNNscore>
0.5887271762

> <CNNaffinity>
5.8548622131

> <CNN_VS>
3.4469165802

> <CNNaffinity_variance>
0.0646057129

$$$$
52:0


 26 28  0  0  0  0  0  0  0  0999 V2000
   54.3254   29.7612   55.3690 C   0  0  0  0  0  0  0  0  0  0  0  0
   54.9447   30.0655   54.2163 C   0  0  0  0  0  0  0  0  0  0  0  0
   54.3384   30.1336   52.9574 C   0  0  0  0  0  0  0  0  0  0  0  0
   53.0635   29.8250   52.6450 C   0  0  0  0  0  0  0  0  0  0  0  0
   55.3237   30.5393   52.0717 C   0  0  0  0  0  0  0  0  0  0  0  0
   56.4780   30.7178   52.8088 C   0  0  0  0  0  0  0  0  0  0  0  0
   56.2607   30.3998   54.1115 N   0  0  0  0  0  0  0  0  0  0  0  0
   57.2619   30.4174   55.1838 C   0  0  0  0  0  0  0  0  0  0  0  0
   52.3704   30.3024   51.4352 C   0  0  0  0  0  0  0  0  0  0  0  0
   52.2384   29.5631   50.3195 N   0  0  0  0  0  0  0  0  0  0  0  0
   51.4779   30.3371   49.5157 C   0  0  0  0  0  0  0  0  0  0  0  0
   51.1452   29.9870   48.3524 O   0  0  0  0  0  0  0  0  0  0  0  0
   51.0931   31.5110   50.0588 N   0  0  0  0  0  0  0  0  0  0  0  0
   51.6543   31.4693   51.2791 C   0  0  0  0  0  0  0  0  0  0  0  0
   51.4708   32.4543   52.2428 O   0  0  0  0  0  0  0  0  0  0  0  0
   57.7428   31.2246   52.2281 C   0  0  0  0  0  0  0  0  0  0  0  0
   58.0186   32.4511   52.3297 O   0  0  0  0  0  0  0  0  0  0  0  0
   58.6639   30.3395   51.5854 N   0  0  0  0  0  0  0  0  0  0  0  0
   59.9604   30.7595   51.0658 C   0  0  0  0  0  0  0  0  0  0  0  0
   60.0569   30.4462   49.5971 C   0  0  0  0  0  0  0  0  0  0  0  0
   60.9713   31.1323   48.7782 C   0  0  0  0  0  0  0  0  0  0  0  0
   61.0637   30.8235   47.4169 C   0  0  0  0  0  0  0  0  0  0  0  0
   60.2537   29.8246   46.8664 C   0  0  0  0  0  0  0  0  0  0  0  0
   59.3498   29.1303   47.6767 C   0  0  0  0  0  0  0  0  0  0  0  0
   58.3219   27.8854   46.9845 Cl  0  0  0  0  0  0  0  0  0  0  0  0
   59.2520   29.4377   49.0407 C   0  0  0  0  0  0  0  0  0  0  0  0
  1  2  2  0
  2  3  1  0
  3  4  2  0
  4  9  1  0
  9 10  1  0
 10 11  1  0
 11 12  2  0
 11 13  1  0
 13 14  1  0
 14 15  1  0
  3  5  1  0
  5  6  2  0
  6 16  1  0
 16 17  2  0
 16 18  1  0
 18 19  1  0
 19 20  1  0
 20 21  2  0
 21 22  1  0
 22 23  2  0
 23 24  1  0
 24 25  1  0
 24 26  2  0
  6  7  1  0
  7  8  1  0
  7  2  1  0
 14  9  2  0
 26 20  1  0
M  CHG 1  10  -1
M  CHG 1  13  -1
M  CHG 1  15  -1
M  CHG 1  18  -1
M  END
> <UniqueID>
50

> <SMILES>
C=c1c(=Cc2[n-]c(=O)[n-]c2[O-])cc(C(=O)[N-]Cc2cccc(Cl)c2)n1C

> <Energy>
107.3704881838278

> <Genealogy>
C=c1c(=Cc2[n-]c(=O)[n-]c2[O-])cc(C(=O)[N-]Cc2cccc(Cl)c2)n1C (protonated)
C=c1c(=Cc2[n-]c(=O)[n-]c2[O-])cc(C(=O)[N-]Cc2cccc(Cl)c2)n1C (3D coordinates assigned)
C=c1c(=Cc2[n-]c(=O)[n-]c2[O-])cc(C(=O)[N-]Cc2cccc(Cl)c2)n1C (optimized conformer: 107.3704881838278 kcal/mol)

> <smiles>
C=c1c(=Cc2[nH]c(=O)[nH]c2O)cc(C(=O)NCc2cccc(Cl)c2)n1C

> <score_type>
oracle

> <origin>
adg

> <m_score__min__energy>
-18.739999999999998

> <m_primary>
energy

> <minimizedAffinity>
-5.57591

> <minimizedRMSD>
0.89979

> <CNNscore>
0.0889523178

> <CNNaffinity>
5.0347905159

> <CNN_VS>
0.4478562772

> <CNNaffinity_variance>
0.1964218765

$$$$
54:0


 27 29  0  0  0  0  0  0  0  0999 V2000
   55.1503   28.4456   54.6565 C   0  0  0  0  0  0  0  0  0  0  0  0
   55.6518   29.3266   53.7781 C   0  0  0  0  0  0  0  0  0  0  0  0
   54.9207   30.1538   52.9092 C   0  0  0  0  0  0  0  0  0  0  0  0
   53.6102   30.4634   52.8754 C   0  0  0  0  0  0  0  0  0  0  0  0
   55.8334   30.6656   52.0043 C   0  0  0  0  0  0  0  0  0  0  0  0
   57.0751   30.1929   52.3745 C   0  0  0  0  0  0  0  0  0  0  0  0
   56.9748   29.4141   53.4774 N   0  0  0  0  0  0  0  0  0  0  0  0
   58.0865   28.7698   54.1866 C   0  0  0  0  0  0  0  0  0  0  0  0
   52.7939   30.6070   51.6578 C   0  0  0  0  0  0  0  0  0  0  0  0
   52.8179   29.7582   50.6139 N   0  0  0  0  0  0  0  0  0  0  0  0
   51.8241   30.2149   49.8193 C   0  0  0  0  0  0  0  0  0  0  0  0
   51.5403   29.6812   48.7155 O   0  0  0  0  0  0  0  0  0  0  0  0
   51.1536   31.2798   50.3069 N   0  0  0  0  0  0  0  0  0  0  0  0
   51.7711   31.5065   51.4772 C   0  0  0  0  0  0  0  0  0  0  0  0
   51.4055   32.5106   52.3640 O   0  0  0  0  0  0  0  0  0  0  0  0
   58.3132   30.4776   51.6142 C   0  0  0  0  0  0  0  0  0  0  0  0
   58.4949   29.8375   50.5408 O   0  0  0  0  0  0  0  0  0  0  0  0
   59.2874   31.4654   52.0682 N   0  0  0  0  0  0  0  0  0  0  0  0
   59.1143   32.7947   51.4331 C   0  0  0  0  0  0  0  0  0  0  0  0
   59.5059   32.8009   49.9410 C   0  0  0  0  0  0  0  0  0  0  0  0
   60.9291   32.2595   49.7072 C   0  0  0  0  0  0  0  0  0  0  0  0
   61.1130   30.9134   50.4364 C   0  0  0  0  0  0  0  0  0  0  0  0
   60.6861   30.9960   51.9115 C   0  0  0  0  0  0  0  0  0  0  0  0
   58.3098   31.5438   52.1548 H   0  0  0  0  0  0  0  0  0  0  0  0
   62.0077   33.2945   50.0856 C   0  0  0  0  0  0  0  0  0  0  0  0
   63.2569   32.8881   49.5649 O   0  0  0  0  0  0  0  0  0  0  0  0
   63.3980   33.3752   48.2494 C   0  0  0  0  0  0  0  0  0  0  0  0
  1  2  2  0
  2  3  1  0
  3  4  2  0
  4  9  1  0
  9 10  1  0
 10 11  1  0
 11 12  2  0
 11 13  1  0
 13 14  1  0
 14 15  1  0
  3  5  1  0
  5  6  2  0
  6 16  1  0
 16 17  2  0
 18 16  1  0
 18 19  1  0
 19 20  1  0
 20 21  1  0
 21 25  1  0
 25 26  1  0
 26 27  1  0
 21 22  1  0
 22 23  1  0
  6  7  1  0
  7  8  1  0
  7  2  1  0
 14  9  2  0
 23 18  1  0
 18 24  1  0
M  CHG 1  10  -1
M  CHG 1  13  -1
M  CHG 1  15  -1
M  CHG 1  18   1
M  END
> <UniqueID>
52

> <SMILES>
C=c1/c(=C\c2[n-]c(=O)[n-]c2[O-])cc(C(=O)[NH+]2CCC(COC)CC2)n1C

> <Energy>
128.35445452376462

> <Genealogy>
C=c1c(=Cc2[n-]c(=O)[n-]c2[O-])cc(C(=O)[NH+]2CCC(COC)CC2)n1C (protonated)
C=c1/c(=C\c2[n-]c(=O)[n-]c2[O-])cc(C(=O)[NH+]2CCC(COC)CC2)n1C (cis-trans isomerization)
C=c1/c(=C\c2[n-]c(=O)[n-]c2[O-])cc(C(=O)[NH+]2CCC(COC)CC2)n1C (3D coordinates assigned)
C=c1/c(=C\c2[n-]c(=O)[n-]c2[O-])cc(C(=O)[NH+]2CCC(COC)CC2)n1C (nonaromatic ring conformer: 128.35445452376462 kcal/mol)

> <smiles>
C=c1c(=Cc2[nH]c(=O)[nH]c2O)cc(C(=O)N2CCC(COC)CC2)n1C

> <score_type>
oracle

> <origin>
adg

> <m_score__min__energy>
-15.44

> <m_primary>
energy

> <minimizedAffinity>
-5.08228

> <minimizedRMSD>
0.88534

> <CNNscore>
0.1297996044

> <CNNaffinity>
4.9171338081

> <CNN_VS>
0.6382420063

> <CNNaffinity_variance>
0.3512453139

$$$$
57:0


 25 27  0  0  0  0  0  0  0  0999 V2000
   58.0967   32.0569   43.5336 C   0  0  0  0  0  0  0  0  0  0  0  0
   58.0030   31.0777   44.4370 C   0  0  0  0  0  0  0  0  0  0  0  0
   57.1718   30.0240   44.2576 N   0  0  0  0  0  0  0  0  0  0  0  0
   57.3400   29.2591   45.3553 C   0  0  0  0  0  0  0  0  0  0  0  0
   56.6596   28.1200   45.5506 C   0  0  0  0  0  0  0  0  0  0  0  0
   58.2532   29.8816   46.1884 C   0  0  0  0  0  0  0  0  0  0  0  0
   58.5888   29.5073   47.3439 O   0  0  0  0  0  0  0  0  0  0  0  0
   58.6951   31.0135   45.6075 N   0  0  0  0  0  0  0  0  0  0  0  0
   57.2774   26.7932   45.7104 C   0  0  0  0  0  0  0  0  0  0  0  0
   58.6124   26.5894   45.6965 N   0  0  0  0  0  0  0  0  0  0  0  0
   58.7378   25.2706   45.9647 C   0  0  0  0  0  0  0  0  0  0  0  0
   59.8528   24.6869   46.0108 O   0  0  0  0  0  0  0  0  0  0  0  0
   57.5618   24.6469   46.1803 N   0  0  0  0  0  0  0  0  0  0  0  0
   57.3313   23.2278   46.4308 C   0  0  0  0  0  0  0  0  0  0  0  0
   56.6388   25.6083   46.0200 C   0  0  0  0  0  0  0  0  0  0  0  0
   55.2702   25.4250   46.1864 O   0  0  0  0  0  0  0  0  0  0  0  0
   59.6296   31.9809   46.2022 C   0  0  0  0  0  0  0  0  0  0  0  0
   58.9884   32.7156   47.3506 C   0  0  0  0  0  0  0  0  0  0  0  0
   57.7739   33.0427   47.2476 O   0  0  0  0  0  0  0  0  0  0  0  0
   59.7197   33.0484   48.5511 N   0  0  0  0  0  0  0  0  0  0  0  0
   60.9323   33.8828   48.4411 C   0  0  0  0  0  0  0  0  0  0  0  0
   61.8964   33.5755   49.5543 C   0  0  0  0  0  0  0  0  0  0  0  0
   61.4343   33.3002   50.7764 C   0  0  0  0  0  0  0  0  0  0  0  0
   59.9569   33.3173   51.0285 C   0  0  0  0  0  0  0  0  0  0  0  0
   59.2098   32.6327   49.8740 C   0  0  0  0  0  0  0  0  0  0  0  0
  1  2  2  0
  2  3  1  0
  3  4  1  0
  4  5  2  0
  5  9  1  0
  9 10  1  0
 10 11  1  0
 11 12  2  0
 11 13  1  0
 13 14  1  0
 13 15  1  0
 15 16  1  0
  4  6  1  0
  6  7  2  0
  6  8  1  0
  8 17  1  0
 17 18  1  0
 18 19  2  0
 18 20  1  0
 20 21  1  0
 21 22  1  0
 22 23  2  0
 23 24  1  0
 24 25  1  0
  8  2  1  0
 25 20  1  0
 15  9  2  0
M  CHG 1   3  -1
M  CHG 1  10  -1
M  CHG 1  16  -1
M  END
> <UniqueID>
54

> <SMILES>
C=c1[n-]c(=Cc2[n-]c(=O)n(C)c2[O-])c(=O)n1CC(=O)N1CC=CCC1

> <Energy>
114.24458483861255

> <Genealogy>
C=c1[n-]c(=Cc2[n-]c(=O)n(C)c2[O-])c(=O)n1CC(=O)N1CC=CCC1 (protonated)
C=c1[n-]c(=Cc2[n-]c(=O)n(C)c2[O-])c(=O)n1CC(=O)N1CC=CCC1 (3D coordinates assigned)
C=c1[n-]c(=Cc2[n-]c(=O)n(C)c2[O-])c(=O)n1CC(=O)N1CC=CCC1 (nonaromatic ring conformer: 114.24458483861255 kcal/mol)

> <smiles>
C=c1[nH]c(=Cc2[nH]c(=O)n(C)c2O)c(=O)n1CC(=O)N1CC=CCC1

> <score_type>
oracle

> <origin>
adg

> <m_score__min__energy>
-15.109999999999999

> <m_primary>
energy

> <minimizedAffinity>
-6.75182

> <minimizedRMSD>
2.08680

> <CNNscore>
0.2981079817

> <CNNaffinity>
5.8116092682

> <CNN_VS>
1.7324870825

> <CNNaffinity_variance>
0.0113954572

$$$$
63:0


 29 32  0  0  0  0  0  0  0  0999 V2000
   54.2535   27.4970   53.7856 C   0  0  0  0  0  0  0  0  0  0  0  0
   54.9164   28.6176   53.4753 C   0  0  0  0  0  0  0  0  0  0  0  0
   56.2488   28.6354   53.7519 N   0  0  0  0  0  0  0  0  0  0  0  0
   57.0829   29.6059   53.3053 C   0  0  0  0  0  0  0  0  0  0  0  0
   56.5998   30.6132   52.4676 C   0  0  0  0  0  0  0  0  0  0  0  0
   55.2265   30.6586   52.1997 C   0  0  0  0  0  0  0  0  0  0  0  0
   54.3408   29.7135   52.7560 C   0  0  0  0  0  0  0  0  0  0  0  0
   53.0120   29.9382   52.5896 C   0  0  0  0  0  0  0  0  0  0  0  0
   57.5156   31.6446   51.9326 C   0  0  0  0  0  0  0  0  0  0  0  0
   57.4669   32.8122   52.4080 O   0  0  0  0  0  0  0  0  0  0  0  0
   58.4740   31.3365   50.8998 N   0  0  0  0  0  0  0  0  0  0  0  0
   59.1875   30.0487   50.9171 C   0  0  0  0  0  0  0  0  0  0  0  0
   60.5491   30.1491   50.2143 C   0  0  0  0  0  0  0  0  0  0  0  0
   61.2647   31.4617   50.6007 C   0  0  0  0  0  0  0  0  0  0  0  0
   60.4073   32.7067   50.2158 C   0  0  0  0  0  0  0  0  0  0  0  0
   58.9254   32.3824   49.9754 C   0  0  0  0  0  0  0  0  0  0  0  0
   62.7000   31.5053   49.9789 C   0  0  0  0  0  0  0  0  0  0  0  0
   63.7093   32.2457   50.7754 N   0  0  0  0  0  0  0  0  0  0  0  0
   64.7632   32.8756   49.9644 C   0  0  0  0  0  0  0  0  0  0  0  0
   66.1121   32.3474   50.4410 C   0  0  0  0  0  0  0  0  0  0  0  0
   65.7965   31.2145   51.3962 C   0  0  0  0  0  0  0  0  0  0  0  0
   64.3611   31.4537   51.8247 C   0  0  0  0  0  0  0  0  0  0  0  0
   52.3531   30.3640   51.3401 C   0  0  0  0  0  0  0  0  0  0  0  0
   52.2534   29.6131   50.2273 N   0  0  0  0  0  0  0  0  0  0  0  0
   51.4822   30.3642   49.4110 C   0  0  0  0  0  0  0  0  0  0  0  0
   51.1700   29.9992   48.2483 O   0  0  0  0  0  0  0  0  0  0  0  0
   51.0665   31.5332   49.9438 N   0  0  0  0  0  0  0  0  0  0  0  0
   51.6159   31.5102   51.1685 C   0  0  0  0  0  0  0  0  0  0  0  0
   51.4453   32.5148   52.1109 O   0  0  0  0  0  0  0  0  0  0  0  0
  1  2  2  0
  2  3  1  0
  3  4  2  0
  4  5  1  0
  5  9  1  0
  9 10  2  0
  9 11  1  0
 11 12  1  0
 12 13  1  0
 13 14  1  0
 14 17  1  0
 17 18  1  0
 18 19  1  0
 19 20  1  0
 20 21  1  0
 21 22  1  0
 14 15  1  0
 15 16  1  0
  5  6  2  0
  6  7  1  0
  7  8  2  0
  8 23  1  0
 23 24  1  0
 24 25  1  0
 25 26  2  0
 25 27  1  0
 27 28  1  0
 28 29  1  0
  7  2  1  0
 28 23  2  0
 16 11  1  0
 22 18  1  0
M  CHG 1  24  -1
M  CHG 1  27  -1
M  CHG 1  29  -1
M  END
> <UniqueID>
60

> <SMILES>
C=c1ncc(C(=O)N2CCC(CN3CCCC3)CC2)cc1=Cc1[n-]c(=O)[n-]c1[O-]

> <Energy>
119.43618944092118

> <Genealogy>
C=c1ncc(C(=O)N2CCC(CN3CCCC3)CC2)cc1=Cc1[n-]c(=O)[n-]c1[O-] (protonated)
C=c1ncc(C(=O)N2CCC(CN3CCCC3)CC2)cc1=Cc1[n-]c(=O)[n-]c1[O-] (3D coordinates assigned)
C=c1ncc(C(=O)N2CCC(CN3CCCC3)CC2)cc1=Cc1[n-]c(=O)[n-]c1[O-] (nonaromatic ring conformer: 119.43618944092118 kcal/mol)

> <smiles>
C=c1ncc(C(=O)N2CCC(CN3CCCC3)CC2)cc1=Cc1[nH]c(=O)[nH]c1O

> <score_type>
oracle

> <origin>
adg

> <m_score__min__energy>
-17.809999999999999

> <m_primary>
energy

> <minimizedAffinity>
-6.38214

> <minimizedRMSD>
1.09027

> <CNNscore>
0.0722455606

> <CNNaffinity>
4.7284379005

> <CNN_VS>
0.3416086435

> <CNNaffinity_variance>
0.4168623388

$$$$
72:0


 26 28  0  0  0  0  0  0  0  0999 V2000
   56.4069   30.1061   43.8313 C   0  0  0  0  0  0  0  0  0  0  0  0
   57.2733   29.4408   44.6016 C   0  0  0  0  0  0  0  0  0  0  0  0
   58.1641   29.9287   45.5814 C   0  0  0  0  0  0  0  0  0  0  0  0
   58.8321   28.8028   46.0518 C   0  0  0  0  0  0  0  0  0  0  0  0
   58.3410   27.7035   45.3703 C   0  0  0  0  0  0  0  0  0  0  0  0
   58.6991   26.4127   45.5051 C   0  0  0  0  0  0  0  0  0  0  0  0
   57.3967   28.1003   44.4982 N   0  0  0  0  0  0  0  0  0  0  0  0
   56.8859   27.5166   43.8918 H   0  0  0  0  0  0  0  0  0  0  0  0
   57.8319   25.3122   45.9826 C   0  0  0  0  0  0  0  0  0  0  0  0
   58.2064   24.0366   46.1789 N   0  0  0  0  0  0  0  0  0  0  0  0
   57.0686   23.4288   46.5770 C   0  0  0  0  0  0  0  0  0  0  0  0
   57.0190   22.2047   46.8671 O   0  0  0  0  0  0  0  0  0  0  0  0
   55.9900   24.2363   46.6452 N   0  0  0  0  0  0  0  0  0  0  0  0
   56.4889   25.4224   46.2636 C   0  0  0  0  0  0  0  0  0  0  0  0
   55.7305   26.5821   46.1659 O   0  0  0  0  0  0  0  0  0  0  0  0
   58.4996   31.2995   46.1028 C   0  0  0  0  0  0  0  0  0  0  0  0
   57.5491   32.1307   46.1728 O   0  0  0  0  0  0  0  0  0  0  0  0
   59.8140   31.7415   46.5332 N   0  0  0  0  0  0  0  0  0  0  0  0
   60.1952   31.1636   47.8466 C   0  0  0  0  0  0  0  0  0  0  0  0
   61.4279   31.8398   48.4801 C   0  0  0  0  0  0  0  0  0  0  0  0
   62.0904   32.7557   47.5344 N   0  0  0  0  0  0  0  0  0  0  0  0
   61.1284   33.8046   47.1510 C   0  0  0  0  0  0  0  0  0  0  0  0
   59.9680   33.2050   46.3414 C   0  0  0  0  0  0  0  0  0  0  0  0
   60.0703   31.1945   47.3105 H   0  0  0  0  0  0  0  0  0  0  0  0
   63.2991   33.3476   48.1519 C   0  0  0  0  0  0  0  0  0  0  0  0
   63.7919   32.4813   49.3059 C   0  0  0  0  0  0  0  0  0  0  0  0
  1  2  2  0
  2  3  1  0
  3 16  1  0
 16 17  2  0
 16 18  1  0
 18 19  1  0
 19 20  1  0
 20 21  1  0
 21 25  1  0
 25 26  1  0
 21 22  1  0
 22 23  1  0
  3  4  2  0
  4  5  1  0
  5  6  2  0
  6  9  1  0
  9 10  1  0
 10 11  1  0
 11 12  2  0
 11 13  1  0
 13 14  1  0
 14 15  1  0
  5  7  1  0
  7  2  1  0
 23 18  1  0
 14  9  2  0
 18 24  1  0
  7  8  1  0
M  CHG 1  10  -1
M  CHG 1  13  -1
M  CHG 1  15  -1
M  CHG 1  18   1
M  END
> <UniqueID>
69

> <SMILES>
C=c1[nH]/c(=C/c2[n-]c(=O)[n-]c2[O-])cc1C(=O)[NH+]1CCN(CC)CC1

> <Energy>
127.270772626092

> <Genealogy>
C=c1[nH]c(=Cc2[n-]c(=O)[n-]c2[O-])cc1C(=O)[NH+]1CCN(CC)CC1 (protonated)
C=c1[nH]/c(=C/c2[n-]c(=O)[n-]c2[O-])cc1C(=O)[NH+]1CCN(CC)CC1 (cis-trans isomerization)
C=c1[nH]/c(=C/c2[n-]c(=O)[n-]c2[O-])cc1C(=O)[NH+]1CCN(CC)CC1 (3D coordinates assigned)
C=c1[nH]/c(=C/c2[n-]c(=O)[n-]c2[O-])cc1C(=O)[NH+]1CCN(CC)CC1 (nonaromatic ring conformer: 127.270772626092 kcal/mol)

> <smiles>
C=c1[nH]c(=Cc2[nH]c(=O)[nH]c2O)cc1C(=O)N1CCN(CC)CC1

> <score_type>
oracle

> <origin>
adg

> <m_score__min__energy>
-15.52

> <m_primary>
energy

> <minimizedAffinity>
-7.77970

> <minimizedRMSD>
0.80159

> <CNNscore>
0.1333445013

> <CNNaffinity>
6.0445504189

> <CNN_VS>
0.8060075641

> <CNNaffinity_variance>
0.0007712098

$$$$
80:0


 34 37  0  0  0  0  0  0  0  0999 V2000
   57.7962   30.4433   45.2914 C   0  0  0  0  0  0  0  0  0  0  0  0
   56.5983   30.6948   44.9920 O   0  0  0  0  0  0  0  0  0  0  0  0
   60.3298   26.5509   46.6519 C   0  0  0  0  0  0  0  0  0  0  0  0
   59.3045   27.2783   46.1814 C   0  0  0  0  0  0  0  0  0  0  0  0
   58.2779   26.8299   45.3320 C   0  0  0  0  0  0  0  0  0  0  0  0
   57.9147   25.5879   44.9589 C   0  0  0  0  0  0  0  0  0  0  0  0
   57.6200   27.9635   44.8906 C   0  0  0  0  0  0  0  0  0  0  0  0
   58.2107   29.0436   45.5133 C   0  0  0  0  0  0  0  0  0  0  0  0
   59.2105   28.6280   46.3291 N   0  0  0  0  0  0  0  0  0  0  0  0
   60.0446   29.4866   47.1790 C   0  0  0  0  0  0  0  0  0  0  0  0
   57.1907   24.6146   45.7926 C   0  0  0  0  0  0  0  0  0  0  0  0
   57.7303   23.4959   46.3145 N   0  0  0  0  0  0  0  0  0  0  0  0
   56.7501   23.0213   47.1150 C   0  0  0  0  0  0  0  0  0  0  0  0
   56.8700   21.9580   47.7772 O   0  0  0  0  0  0  0  0  0  0  0  0
   55.6359   23.7827   47.1579 N   0  0  0  0  0  0  0  0  0  0  0  0
   55.9384   24.7932   46.3277 C   0  0  0  0  0  0  0  0  0  0  0  0
   55.0914   25.8645   46.0716 O   0  0  0  0  0  0  0  0  0  0  0  0
   58.7562   31.5043   45.3598 N   0  0  0  0  0  0  0  0  0  0  0  0
   58.5036   32.7769   46.0246 C   0  0  0  0  0  0  0  0  0  0  0  0
   59.5452   33.0101   47.0823 C   0  0  0  0  0  0  0  0  0  0  0  0
   60.8191   33.4792   46.7285 C   0  0  0  0  0  0  0  0  0  0  0  0
   61.7571   33.7821   47.7189 C   0  0  0  0  0  0  0  0  0  0  0  0
   61.4357   33.6074   49.0668 C   0  0  0  0  0  0  0  0  0  0  0  0
   60.1763   33.1058   49.4398 C   0  0  0  0  0  0  0  0  0  0  0  0
   59.2257   32.8377   48.4400 C   0  0  0  0  0  0  0  0  0  0  0  0
   59.8350   32.8960   50.8667 C   0  0  0  0  0  0  0  0  0  0  0  0
   59.1922   33.7912   51.4816 O   0  0  0  0  0  0  0  0  0  0  0  0
   60.2001   31.6871   51.5588 N   0  0  0  0  0  0  0  0  0  0  0  0
   60.4272   31.6990   53.0074 C   0  0  0  0  0  0  0  0  0  0  0  0
   59.3503   30.8606   53.7248 C   0  0  0  0  0  0  0  0  0  0  0  0
   58.8968   29.6706   52.9505 N   0  0  0  0  0  0  0  0  0  0  0  0
   57.5295   29.8441   52.4289 C   0  0  0  0  0  0  0  0  0  0  0  0
   59.8446   29.2563   51.8929 C   0  0  0  0  0  0  0  0  0  0  0  0
   60.0999   30.3849   50.8792 C   0  0  0  0  0  0  0  0  0  0  0  0
  3  4  2  0
  4  5  1  0
  5  6  2  0
  6 11  1  0
 11 12  1  0
 12 13  1  0
 13 14  2  0
 13 15  1  0
 15 16  1  0
 16 17  1  0
  5  7  1  0
  7  8  2  0
  8  1  1  0
  1  2  2  0
  1 18  1  0
 18 19  1  0
 19 20  1  0
 20 21  2  0
 21 22  1  0
 22 23  2  0
 23 24  1  0
 24 26  1  0
 26 27  2  0
 26 28  1  0
 28 29  1  0
 29 30  1  0
 30 31  1  0
 31 32  1  0
 31 33  1  0
 33 34  1  0
 24 25  2  0
  8  9  1  0
  9 10  1  0
  9  4  1  0
 16 11  2  0
 25 20  1  0
 34 28  1  0
M  CHG 1  12  -1
M  CHG 1  15  -1
M  CHG 1  17  -1
M  CHG 1  18  -1
M  END
> <UniqueID>
77

> <SMILES>
C=c1c(=Cc2[n-]c(=O)[n-]c2[O-])cc(C(=O)[N-]Cc2cccc(C(=O)N3CCN(C)CC3)c2)n1C

> <Energy>
143.95617736989766

> <Genealogy>
C=c1c(=Cc2[n-]c(=O)[n-]c2[O-])cc(C(=O)[N-]Cc2cccc(C(=O)N3CCN(C)CC3)c2)n1C (protonated)
C=c1c(=Cc2[n-]c(=O)[n-]c2[O-])cc(C(=O)[N-]Cc2cccc(C(=O)N3CCN(C)CC3)c2)n1C (3D coordinates assigned)
C=c1c(=Cc2[n-]c(=O)[n-]c2[O-])cc(C(=O)[N-]Cc2cccc(C(=O)N3CCN(C)CC3)c2)n1C (nonaromatic ring conformer: 143.95617736989766 kcal/mol)

> <smiles>
C=c1c(=Cc2[nH]c(=O)[nH]c2O)cc(C(=O)NCc2cccc(C(=O)N3CCN(C)CC3)c2)n1C

> <score_type>
oracle

> <origin>
adg

> <m_score__min__energy>
-20.030000000000001

> <m_primary>
energy

> <minimizedAffinity>
-8.93127

> <minimizedRMSD>
1.15345

> <CNNscore>
0.1258329749

> <CNNaffinity>
6.7187232971

> <CNN_VS>
0.8454369307

> <CNNaffinity_variance>
0.0046764668

$$$$
90:0


 30 33  0  0  0  0  0  0  0  0999 V2000
   57.4029   29.6141   53.4192 C   0  0  0  0  0  0  0  0  0  0  0  0
   57.9522   28.4887   53.5683 O   0  0  0  0  0  0  0  0  0  0  0  0
   58.1522   30.6911   52.8227 N   0  0  0  0  0  0  0  0  0  0  0  0
   57.5006   31.6841   51.9570 C   0  0  0  0  0  0  0  0  0  0  0  0
   58.3613   31.9602   50.7231 C   0  0  0  0  0  0  0  0  0  0  0  0
   59.7640   32.2308   51.0838 N   0  0  0  0  0  0  0  0  0  0  0  0
   60.6338   32.8579   50.1167 C   0  0  0  0  0  0  0  0  0  0  0  0
   61.7511   33.3271   50.4735 O   0  0  0  0  0  0  0  0  0  0  0  0
   60.2378   32.9578   48.7431 N   0  0  0  0  0  0  0  0  0  0  0  0
   60.3227   31.7706   47.8914 C   0  0  0  0  0  0  0  0  0  0  0  0
   59.3296   31.9158   46.7348 C   0  0  0  0  0  0  0  0  0  0  0  0
   59.5393   33.1395   46.0512 O   0  0  0  0  0  0  0  0  0  0  0  0
   59.2408   34.2282   46.9067 C   0  0  0  0  0  0  0  0  0  0  0  0
   60.2079   34.2681   48.0966 C   0  0  0  0  0  0  0  0  0  0  0  0
   60.2187   32.0249   52.4659 C   0  0  0  0  0  0  0  0  0  0  0  0
   59.6043   30.7490   53.0462 C   0  0  0  0  0  0  0  0  0  0  0  0
   52.9826   30.2152   56.1699 C   0  0  0  0  0  0  0  0  0  0  0  0
   53.8858   30.0509   55.1985 C   0  0  0  0  0  0  0  0  0  0  0  0
   55.5389   30.0287   55.4913 S   0  0  0  0  0  0  0  0  0  0  0  0
   56.0168   29.7935   53.8996 C   0  0  0  0  0  0  0  0  0  0  0  0
   54.8771   29.7036   53.1075 C   0  0  0  0  0  0  0  0  0  0  0  0
   53.6610   29.8449   53.8188 C   0  0  0  0  0  0  0  0  0  0  0  0
   52.4299   29.8012   53.2527 C   0  0  0  0  0  0  0  0  0  0  0  0
   52.0782   30.2260   51.8775 C   0  0  0  0  0  0  0  0  0  0  0  0
   52.0998   29.4487   50.7801 N   0  0  0  0  0  0  0  0  0  0  0  0
   51.6094   30.2486   49.8076 C   0  0  0  0  0  0  0  0  0  0  0  0
   51.4799   29.8680   48.6148 O   0  0  0  0  0  0  0  0  0  0  0  0
   51.2640   31.4866   50.2174 N   0  0  0  0  0  0  0  0  0  0  0  0
   51.5560   31.4504   51.5292 C   0  0  0  0  0  0  0  0  0  0  0  0
   51.3356   32.5142   52.3966 O   0  0  0  0  0  0  0  0  0  0  0  0
 17 18  2  0
 18 19  1  0
 19 20  1  0
 20  1  1  0
  1  2  2  0
  1  3  1  0
  3  4  1  0
  4  5  1  0
  5  6  1  0
  6  7  1  0
  7  8  2  0
  7  9  1  0
  9 10  1  0
 10 11  1  0
 11 12  1  0
 12 13  1  0
 13 14  1  0
  6 15  1  0
 15 16  1  0
 20 21  2  0
 21 22  1  0
 22 23  2  0
 23 24  1  0
 24 25  1  0
 25 26  1  0
 26 27  2  0
 26 28  1  0
 28 29  1  0
 29 30  1  0
 22 18  1  0
 29 24  2  0
 16  3  1  0
 14  9  1  0
M  CHG 1  25  -1
M  CHG 1  28  -1
M  CHG 1  30  -1
M  END
> <UniqueID>
86

> <SMILES>
C=c1sc(C(=O)N2CCN(C(=O)N3CCOCC3)CC2)c/c1=C\c1[n-]c(=O)[n-]c1[O-]

> <Energy>
123.00710149426905

> <Genealogy>
C=c1sc(C(=O)N2CCN(C(=O)N3CCOCC3)CC2)cc1=Cc1[n-]c(=O)[n-]c1[O-] (protonated)
C=c1sc(C(=O)N2CCN(C(=O)N3CCOCC3)CC2)c/c1=C\c1[n-]c(=O)[n-]c1[O-] (cis-trans isomerization)
C=c1sc(C(=O)N2CCN(C(=O)N3CCOCC3)CC2)c/c1=C\c1[n-]c(=O)[n-]c1[O-] (3D coordinates assigned)
C=c1sc(C(=O)N2CCN(C(=O)N3CCOCC3)CC2)c/c1=C\c1[n-]c(=O)[n-]c1[O-] (nonaromatic ring conformer: 123.00710149426905 kcal/mol)

> <smiles>
C=c1sc(C(=O)N2CCN(C(=O)N3CCOCC3)CC2)cc1=Cc1[nH]c(=O)[nH]c1O

> <score_type>
oracle

> <origin>
adg

> <m_score__min__energy>
-17.710000000000001

> <m_primary>
energy

> <minimizedAffinity>
-6.79288

> <minimizedRMSD>
1.02859

> <CNNscore>
0.0471615344

> <CNNaffinity>
4.7336921692

> <CNN_VS>
0.2232481837

> <CNNaffinity_variance>
0.4294395149

$$$$
12:0


 28 30  0  0  0  0  0  0  0  0999 V2000
   57.4153   30.2129   44.7920 C   0  0  0  0  0  0  0  0  0  0  0  0
   57.4453   30.6203   43.4468 C   0  0  0  0  0  0  0  0  0  0  0  0
   57.7762   31.9358   43.1171 C   0  0  0  0  0  0  0  0  0  0  0  0
   58.0710   32.8591   44.1230 C   0  0  0  0  0  0  0  0  0  0  0  0
   58.0301   32.4768   45.4695 C   0  0  0  0  0  0  0  0  0  0  0  0
   57.6882   31.1520   45.7982 C   0  0  0  0  0  0  0  0  0  0  0  0
   59.1747   28.2222   45.9181 O   0  0  0  0  0  0  0  0  0  0  0  0
   58.0036   27.8773   45.5939 C   0  0  0  0  0  0  0  0  0  0  0  0
   57.0563   28.8687   45.1597 N   0  0  0  0  0  0  0  0  0  0  0  0
   56.1068   28.6128   45.1113 H   0  0  0  0  0  0  0  0  0  0  0  0
   57.6025   26.4580   45.7006 C   0  0  0  0  0  0  0  0  0  0  0  0
   58.5470   25.4266   45.5867 C   0  0  0  0  0  0  0  0  0  0  0  0
   58.1096   24.1047   45.6941 C   0  0  0  0  0  0  0  0  0  0  0  0
   58.9317   23.1557   45.5977 O   0  0  0  0  0  0  0  0  0  0  0  0
   56.7933   23.8400   45.9020 N   0  0  0  0  0  0  0  0  0  0  0  0
   55.8893   24.8479   46.0085 C   0  0  0  0  0  0  0  0  0  0  0  0
   54.6747   24.5838   46.1999 O   0  0  0  0  0  0  0  0  0  0  0  0
   56.2949   26.1402   45.9071 N   0  0  0  0  0  0  0  0  0  0  0  0
   58.3447   33.4552   46.4692 N   0  0  0  0  0  0  0  0  0  0  0  0
   59.7453   33.4230   47.4915 S   0  0  0  0  0  0  0  0  0  0  0  0
   60.9766   33.5489   46.6426 O   0  0  0  0  0  0  0  0  0  0  0  0
   59.6842   34.5853   48.4433 O   0  0  0  0  0  0  0  0  0  0  0  0
   59.8129   31.8991   48.3715 C   0  0  0  0  0  0  0  0  0  0  0  0
   60.6833   30.8789   47.9615 C   0  0  0  0  0  0  0  0  0  0  0  0
   60.7406   29.6767   48.6739 C   0  0  0  0  0  0  0  0  0  0  0  0
   59.9303   29.4898   49.7975 C   0  0  0  0  0  0  0  0  0  0  0  0
   59.0577   30.5030   50.2069 C   0  0  0  0  0  0  0  0  0  0  0  0
   58.9985   31.7053   49.4955 C   0  0  0  0  0  0  0  0  0  0  0  0
  7  8  2  0
  8  9  1  0
  9  1  1  0
  1  2  2  0
  2  3  1  0
  3  4  2  0
  4  5  1  0
  5 19  1  0
 19 20  1  0
 20 21  2  0
 20 22  2  0
 20 23  1  0
 23 24  2  0
 24 25  1  0
 25 26  2  0
 26 27  1  0
 27 28  2  0
  5  6  2  0
  8 11  1  0
 11 12  2  0
 12 13  1  0
 13 14  2  0
 13 15  1  0
 15 16  1  0
 16 17  2  0
 16 18  1  0
  6  1  1  0
 18 11  1  0
 28 23  1  0
  9 10  1  0
M  CHG 1  15  -1
M  CHG 1  18  -1
M  CHG 1  19  -1
M  END
> <UniqueID>
13

> <SMILES>
O=C(Nc1cccc([N-]S(=O)(=O)c2ccccc2)c1)c1cc(=O)[n-]c(=O)[n-]1

> <Energy>
48.804096947993585

> <Genealogy>
O=C(Nc1cccc([N-]S(=O)(=O)c2ccccc2)c1)c1cc(=O)[n-]c(=O)[n-]1 (protonated)
O=C(Nc1cccc([N-]S(=O)(=O)c2ccccc2)c1)c1cc(=O)[n-]c(=O)[n-]1 (3D coordinates assigned)
O=C(Nc1cccc([N-]S(=O)(=O)c2ccccc2)c1)c1cc(=O)[n-]c(=O)[n-]1 (optimized conformer: 48.804096947993585 kcal/mol)

> <smiles>
O=C(Nc1cccc(NS(=O)(=O)c2ccccc2)c1)c1cc(=O)[nH]c(=O)[nH]1

> <score_type>
oracle

> <origin>
adg

> <m_score__min__energy>
-14.25

> <m_primary>
energy

> <minimizedAffinity>
-8.04233

> <minimizedRMSD>
1.23660

> <CNNscore>
0.7383077741

> <CNNaffinity>
6.7730126381

> <CNN_VS>
5.0005679131

> <CNNaffinity_variance>
0.0808423162

$$$$
20:0


 26 29  0  0  0  0  0  0  0  0999 V2000
   54.5787   28.0492   53.5979 C   0  0  0  0  0  0  0  0  0  0  0  0
   55.4046   29.0134   53.1873 C   0  0  0  0  0  0  0  0  0  0  0  0
   56.7015   28.8204   53.1033 O   0  0  0  0  0  0  0  0  0  0  0  0
   57.2644   29.8846   52.5803 C   0  0  0  0  0  0  0  0  0  0  0  0
   56.3012   30.8380   52.3059 C   0  0  0  0  0  0  0  0  0  0  0  0
   55.0964   30.3011   52.7252 C   0  0  0  0  0  0  0  0  0  0  0  0
   53.9286   30.9666   52.6609 C   0  0  0  0  0  0  0  0  0  0  0  0
   58.7129   30.0345   52.3382 C   0  0  0  0  0  0  0  0  0  0  0  0
   59.5187   29.4932   53.1431 O   0  0  0  0  0  0  0  0  0  0  0  0
   59.2245   30.7645   51.2050 N   0  0  0  0  0  0  0  0  0  0  0  0
   58.4547   31.8536   50.5887 C   0  0  0  0  0  0  0  0  0  0  0  0
   59.3935   32.8502   49.8946 C   0  0  0  0  0  0  0  0  0  0  0  0
   60.2824   32.2057   48.8923 N   0  0  0  0  0  0  0  0  0  0  0  0
   60.6863   30.8161   49.2378 C   0  0  0  0  0  0  0  0  0  0  0  0
   60.5943   30.5195   50.7383 C   0  0  0  0  0  0  0  0  0  0  0  0
   59.7147   32.2890   47.5296 C   0  0  0  0  0  0  0  0  0  0  0  0
   59.1092   33.6797   47.2714 C   0  0  0  0  0  0  0  0  0  0  0  0
   59.4646   34.3189   45.9369 C   0  0  0  0  0  0  0  0  0  0  0  0
   58.0754   33.7389   46.1581 C   0  0  0  0  0  0  0  0  0  0  0  0
   52.8950   30.7848   51.6331 C   0  0  0  0  0  0  0  0  0  0  0  0
   53.0011   29.9154   50.6149 N   0  0  0  0  0  0  0  0  0  0  0  0
   51.9125   30.1817   49.8615 C   0  0  0  0  0  0  0  0  0  0  0  0
   51.6470   29.5505   48.8066 O   0  0  0  0  0  0  0  0  0  0  0  0
   51.1368   31.1887   50.3200 N   0  0  0  0  0  0  0  0  0  0  0  0
   51.7819   31.5704   51.4341 C   0  0  0  0  0  0  0  0  0  0  0  0
   51.3751   32.6290   52.2365 O   0  0  0  0  0  0  0  0  0  0  0  0
  1  2  2  0
  2  3  1  0
  3  4  1  0
  4  8  1  0
  8  9  2  0
  8 10  1  0
 10 11  1  0
 11 12  1  0
 12 13  1  0
 13 16  1  0
 16 17  1  0
 17 18  1  0
 18 19  1  0
 13 14  1  0
 14 15  1  0
  4  5  2  0
  5  6  1  0
  6  7  2  0
  7 20  1  0
 20 21  1  0
 21 22  1  0
 22 23  2  0
 22 24  1  0
 24 25  1  0
 25 26  1  0
  6  2  1  0
 25 20  2  0
 15 10  1  0
 19 17  1  0
M  CHG 1  21  -1
M  CHG 1  24  -1
M  CHG 1  26  -1
M  END
> <UniqueID>
21

> <SMILES>
C=c1oc(C(=O)N2CCN(CC3CC3)CC2)cc1=Cc1[n-]c(=O)[n-]c1[O-]

> <Energy>
387.49965845725677

> <Genealogy>
C=c1oc(C(=O)N2CCN(CC3CC3)CC2)cc1=Cc1[n-]c(=O)[n-]c1[O-] (protonated)
C=c1oc(C(=O)N2CCN(CC3CC3)CC2)cc1=Cc1[n-]c(=O)[n-]c1[O-] (3D coordinates assigned)
C=c1oc(C(=O)N2CCN(CC3CC3)CC2)cc1=Cc1[n-]c(=O)[n-]c1[O-] (nonaromatic ring conformer: 387.49965845725677 kcal/mol)

> <smiles>
C=c1oc(C(=O)N2CCN(CC3CC3)CC2)cc1=Cc1[nH]c(=O)[nH]c1O

> <score_type>
oracle

> <origin>
adg

> <m_score__min__energy>
-17.050000000000001

> <m_primary>
energy

> <minimizedAffinity>
-6.02156

> <minimizedRMSD>
0.87220

> <CNNscore>
0.1165580899

> <CNNaffinity>
5.2597217560

> <CNN_VS>
0.6130630970

> <CNNaffinity_variance>
0.1443189234

$$$$
37:0


 25 27  0  0  0  0  0  0  0  0999 V2000
   58.6576   29.4462   46.6507 C   0  0  0  0  0  0  0  0  0  0  0  0
   59.5071   29.9293   47.6553 C   0  0  0  0  0  0  0  0  0  0  0  0
   60.2398   29.0434   48.4572 C   0  0  0  0  0  0  0  0  0  0  0  0
   60.0755   27.6609   48.2541 C   0  0  0  0  0  0  0  0  0  0  0  0
   60.7038   26.8261   48.9596 O   0  0  0  0  0  0  0  0  0  0  0  0
   59.2297   27.2106   47.2906 N   0  0  0  0  0  0  0  0  0  0  0  0
   58.5208   28.0564   46.4970 C   0  0  0  0  0  0  0  0  0  0  0  0
   57.6427   27.5268   45.5573 O   0  0  0  0  0  0  0  0  0  0  0  0
   59.7786   35.5054   45.7730 O   0  0  0  0  0  0  0  0  0  0  0  0
   59.1140   34.4812   45.7422 C   0  0  0  0  0  0  0  0  0  0  0  0
   58.9687   33.7225   44.4529 C   0  0  0  0  0  0  0  0  0  0  0  0
   57.9467   32.5878   44.5894 C   0  0  0  0  0  0  0  0  0  0  0  0
   58.2017   31.8014   45.8062 N   0  0  0  0  0  0  0  0  0  0  0  0
   57.8988   30.3939   45.8082 C   0  0  0  0  0  0  0  0  0  0  0  0
   56.9573   29.9573   45.0923 O   0  0  0  0  0  0  0  0  0  0  0  0
   58.5199   32.4681   47.0836 C   0  0  0  0  0  0  0  0  0  0  0  0
   58.4202   33.9974   46.9839 C   0  0  0  0  0  0  0  0  0  0  0  0
   61.1319   29.5824   49.5498 C   0  0  0  0  0  0  0  0  0  0  0  0
   61.3105   31.0677   49.3928 C   0  0  0  0  0  0  0  0  0  0  0  0
   60.7466   31.9519   50.3279 C   0  0  0  0  0  0  0  0  0  0  0  0
   60.9410   33.3302   50.2015 C   0  0  0  0  0  0  0  0  0  0  0  0
   61.7062   33.8365   49.1480 C   0  0  0  0  0  0  0  0  0  0  0  0
   62.2799   32.9634   48.2162 C   0  0  0  0  0  0  0  0  0  0  0  0
   63.2455   33.5993   46.8984 Cl  0  0  0  0  0  0  0  0  0  0  0  0
   62.0862   31.5833   48.3404 C   0  0  0  0  0  0  0  0  0  0  0  0
  9 10  2  0
 10 11  1  0
 11 12  1  0
 12 13  1  0
 13 14  1  0
 14 15  2  0
 14  1  1  0
  1  2  1  0
  2  3  2  0
  3 18  1  0
 18 19  1  0
 19 20  2  0
 20 21  1  0
 21 22  2  0
 22 23  1  0
 23 24  1  0
 23 25  2  0
  3  4  1  0
  4  5  2  0
  4  6  1  0
  6  7  1  0
  7  8  1  0
 13 16  1  0
 16 17  1  0
 17 10  1  0
  7  1  2  0
 25 19  1  0
M  CHG 1   6  -1
M  CHG 1   8  -1
M  END
> <UniqueID>
37

> <SMILES>
O=C1CCN(C(=O)c2cc(Cc3cccc(Cl)c3)c(=O)[n-]c2[O-])CC1

> <Energy>
46.76321666952932

> <Genealogy>
O=C1CCN(C(=O)c2cc(Cc3cccc(Cl)c3)c(=O)[n-]c2[O-])CC1 (protonated)
O=C1CCN(C(=O)c2cc(Cc3cccc(Cl)c3)c(=O)[n-]c2[O-])CC1 (3D coordinates assigned)
O=C1CCN(C(=O)c2cc(Cc3cccc(Cl)c3)c(=O)[n-]c2[O-])CC1 (nonaromatic ring conformer: 46.76321666952932 kcal/mol)

> <smiles>
O=C1CCN(C(=O)c2cc(Cc3cccc(Cl)c3)c(=O)[nH]c2O)CC1

> <score_type>
oracle

> <origin>
adg

> <m_score__min__energy>
-15.57

> <m_primary>
energy

> <minimizedAffinity>
-8.06806

> <minimizedRMSD>
2.03117

> <CNNscore>
0.7505148053

> <CNNaffinity>
6.7233238220

> <CNN_VS>
5.0459542274

> <CNNaffinity_variance>
0.2395399064

$$$$
49:0


 30 32  0  0  0  0  0  0  0  0999 V2000
   58.0927   30.6252   45.1570 C   0  0  0  0  0  0  0  0  0  0  0  0
   57.9722   31.5217   44.0938 C   0  0  0  0  0  0  0  0  0  0  0  0
   58.0419   33.0826   44.7183 S   0  0  0  0  0  0  0  0  0  0  0  0
   58.2336   32.5519   46.2984 C   0  0  0  0  0  0  0  0  0  0  0  0
   58.3257   33.3567   47.3153 N   0  0  0  0  0  0  0  0  0  0  0  0
   58.2340   31.2041   46.3798 N   0  0  0  0  0  0  0  0  0  0  0  0
   57.8413   26.1771   42.9806 C   0  0  0  0  0  0  0  0  0  0  0  0
   57.9468   27.2182   44.0507 C   0  0  0  0  0  0  0  0  0  0  0  0
   57.9669   28.5409   43.8066 N   0  0  0  0  0  0  0  0  0  0  0  0
   58.0600   29.1600   45.0003 C   0  0  0  0  0  0  0  0  0  0  0  0
   58.1047   28.2250   46.0226 C   0  0  0  0  0  0  0  0  0  0  0  0
   58.0425   26.9861   45.4126 C   0  0  0  0  0  0  0  0  0  0  0  0
   57.9222   28.9744   42.9238 H   0  0  0  0  0  0  0  0  0  0  0  0
   57.9957   25.6640   46.1171 C   0  0  0  0  0  0  0  0  0  0  0  0
   56.6016   25.3665   46.5624 C   0  0  0  0  0  0  0  0  0  0  0  0
   55.5066   26.1037   46.0235 N   0  0  0  0  0  0  0  0  0  0  0  0
   56.3927   24.4876   47.4428 O   0  0  0  0  0  0  0  0  0  0  0  0
   55.6662   26.7903   45.3363 H   0  0  0  0  0  0  0  0  0  0  0  0
   59.4531   34.1593   47.7054 C   0  0  0  0  0  0  0  0  0  0  0  0
   59.8734   35.0335   46.9020 O   0  0  0  0  0  0  0  0  0  0  0  0
   60.1754   33.9812   49.0102 C   0  0  0  0  0  0  0  0  0  0  0  0
   61.5601   34.4232   48.8649 N   0  0  0  0  0  0  0  0  0  0  0  0
   62.5591   33.0803   48.3974 S   0  0  0  0  0  0  0  0  0  0  0  0
   62.7866   33.1228   46.9129 O   0  0  0  0  0  0  0  0  0  0  0  0
   63.8874   33.1621   49.0965 O   0  0  0  0  0  0  0  0  0  0  0  0
   61.7632   31.5739   48.8120 C   0  0  0  0  0  0  0  0  0  0  0  0
   61.1077   30.7279   47.9305 C   0  0  0  0  0  0  0  0  0  0  0  0
   60.5916   29.5861   48.5530 C   0  0  0  0  0  0  0  0  0  0  0  0
   60.8414   29.5353   49.9195 C   0  0  0  0  0  0  0  0  0  0  0  0
   61.7083   30.9099   50.3539 S   0  0  0  0  0  0  0  0  0  0  0  0
  7  8  1  0
  8  9  1  0
  9 10  1  0
 10  1  1  0
  1  2  2  0
  2  3  1  0
  3  4  1  0
  4  5  2  0
  5 19  1  0
 19 20  2  0
 19 21  1  0
 21 22  1  0
 22 23  1  0
 23 24  2  0
 23 25  2  0
 23 26  1  0
 26 27  2  0
 27 28  1  0
 28 29  2  0
 29 30  1  0
  4  6  1  0
 10 11  2  0
 11 12  1  0
 12 14  1  0
 14 15  1  0
 15 16  1  0
 15 17  2  0
 12  8  2  0
  6  1  1  0
 30 26  1  0
  9 13  1  0
 16 18  1  0
M  CHG 1   6  -1
M  CHG 1  16  -1
M  CHG 1  22  -1
M  END
> <UniqueID>
47

> <SMILES>
Cc1[nH]c(-c2csc(=NC(=O)C[N-]S(=O)(=O)c3cccs3)[n-]2)cc1CC([NH-])=O

> <Energy>
120.56052625737058

> <Genealogy>
Cc1[nH]c(-c2csc(=NC(=O)C[N-]S(=O)(=O)c3cccs3)[n-]2)cc1CC([NH-])=O (protonated)
Cc1[nH]c(-c2csc(=NC(=O)C[N-]S(=O)(=O)c3cccs3)[n-]2)cc1CC([NH-])=O (3D coordinates assigned)
Cc1[nH]c(-c2csc(=NC(=O)C[N-]S(=O)(=O)c3cccs3)[n-]2)cc1CC([NH-])=O (optimized conformer: 120.56052625737058 kcal/mol)

> <smiles>
Cc1[nH]c(-c2csc(=NC(=O)CNS(=O)(=O)c3cccs3)[nH]2)cc1CC(N)=O

> <score_type>
oracle

> <origin>
adg

> <m_score__min__energy>
-14.279999999999999

> <m_primary>
energy

> <minimizedAffinity>
-7.78360

> <minimizedRMSD>
0.70027

> <CNNscore>
0.6986377835

> <CNNaffinity>
7.2491955757

> <CNN_VS>
5.0645618439

> <CNNaffinity_variance>
0.0647031292

$$$$
51:0


 31 34  0  0  0  0  0  0  0  0999 V2000
   58.4116   31.5306   46.1013 C   0  0  0  0  0  0  0  0  0  0  0  0
   58.0892   32.1009   44.8571 C   0  0  0  0  0  0  0  0  0  0  0  0
   58.2361   33.4750   44.6477 C   0  0  0  0  0  0  0  0  0  0  0  0
   58.6917   34.2935   45.6803 C   0  0  0  0  0  0  0  0  0  0  0  0
   58.9960   33.7437   46.9282 C   0  0  0  0  0  0  0  0  0  0  0  0
   58.8472   32.3653   47.1515 C   0  0  0  0  0  0  0  0  0  0  0  0
   59.1894   31.8032   48.4759 C   0  0  0  0  0  0  0  0  0  0  0  0
   58.3827   31.9697   49.4314 O   0  0  0  0  0  0  0  0  0  0  0  0
   60.4309   31.0993   48.6942 N   0  0  0  0  0  0  0  0  0  0  0  0
   60.6265   30.2689   49.8882 C   0  0  0  0  0  0  0  0  0  0  0  0
   61.7887   30.8222   50.7316 C   0  0  0  0  0  0  0  0  0  0  0  0
   62.9315   31.3266   49.9170 N   0  0  0  0  0  0  0  0  0  0  0  0
   62.8946   30.9133   48.4984 C   0  0  0  0  0  0  0  0  0  0  0  0
   61.5875   31.3448   47.8203 C   0  0  0  0  0  0  0  0  0  0  0  0
   63.3151   32.7568   50.0815 C   0  0  0  0  0  0  0  0  0  0  0  0
   62.1635   33.6618   50.5154 C   0  0  0  0  0  0  0  0  0  0  0  0
   62.3370   34.4835   49.2412 C   0  0  0  0  0  0  0  0  0  0  0  0
   63.4782   33.5754   48.7968 C   0  0  0  0  0  0  0  0  0  0  0  0
   58.2237   30.1263   46.3419 N   0  0  0  0  0  0  0  0  0  0  0  0
   60.1058   29.3555   45.2314 O   0  0  0  0  0  0  0  0  0  0  0  0
   59.0474   29.0629   45.8463 C   0  0  0  0  0  0  0  0  0  0  0  0
   58.6624   27.6370   45.9933 C   0  0  0  0  0  0  0  0  0  0  0  0
   57.3458   27.2075   45.7488 C   0  0  0  0  0  0  0  0  0  0  0  0
   56.3692   28.1078   45.3299 O   0  0  0  0  0  0  0  0  0  0  0  0
   57.0211   25.8961   45.9008 N   0  0  0  0  0  0  0  0  0  0  0  0
   57.9508   24.9811   46.2748 C   0  0  0  0  0  0  0  0  0  0  0  0
   57.6245   23.7740   46.4106 O   0  0  0  0  0  0  0  0  0  0  0  0
   59.2317   25.3667   46.4990 N   0  0  0  0  0  0  0  0  0  0  0  0
   59.6098   26.6634   46.3646 C   0  0  0  0  0  0  0  0  0  0  0  0
   60.8067   26.9827   46.5929 O   0  0  0  0  0  0  0  0  0  0  0  0
   56.5826   29.0138   45.2220 H   0  0  0  0  0  0  0  0  0  0  0  0
 20 21  2  0
 21 19  1  0
 19  1  1  0
  1  2  2  0
  2  3  1  0
  3  4  2  0
  4  5  1  0
  5  6  2  0
  6  7  1  0
  7  8  2  0
  7  9  1  0
  9 10  1  0
 10 11  1  0
 11 12  1  0
 12 15  1  0
 15 16  1  0
 16 17  1  0
 17 18  1  0
 12 13  1  0
 13 14  1  0
 21 22  1  0
 22 23  2  0
 23 24  1  0
 23 25  1  0
 25 26  1  0
 26 27  2  0
 26 28  1  0
 28 29  1  0
 29 30  2  0
  6  1  1  0
 14  9  1  0
 29 22  1  0
 18 15  1  0
 24 31  1  0
M  CHG 1  19  -1
M  CHG 1  25  -1
M  CHG 1  28  -1
M  END
> <UniqueID>
49

> <SMILES>
O=C([N-]c1ccccc1C(=O)N1CCN(C2CCC2)CC1)c1c(O)[n-]c(=O)[n-]c1=O

> <Energy>
142.01385496811636

> <Genealogy>
O=C([N-]c1ccccc1C(=O)N1CCN(C2CCC2)CC1)c1c(O)[n-]c(=O)[n-]c1=O (protonated)
O=C([N-]c1ccccc1C(=O)N1CCN(C2CCC2)CC1)c1c(O)[n-]c(=O)[n-]c1=O (3D coordinates assigned)
O=C([N-]c1ccccc1C(=O)N1CCN(C2CCC2)CC1)c1c(O)[n-]c(=O)[n-]c1=O (nonaromatic ring conformer: 142.01385496811636 kcal/mol)

> <smiles>
O=C(Nc1ccccc1C(=O)N1CCN(C2CCC2)CC1)c1c(O)[nH]c(=O)[nH]c1=O

> <score_type>
oracle

> <origin>
adg

> <m_score__min__energy>
-14.880000000000001

> <m_primary>
energy

> <minimizedAffinity>
-7.50471

> <minimizedRMSD>
1.78622

> <CNNscore>
0.4682621658

> <CNNaffinity>
6.5483822823

> <CNN_VS>
3.0663597584

> <CNNaffinity_variance>
0.0573641211

$$$$
52:0


 31 34  0  0  0  0  0  0  0  0999 V2000
   57.5923   29.8133   52.5562 C   0  0  0  0  0  0  0  0  0  0  0  0
   58.5132   29.2416   53.2006 O   0  0  0  0  0  0  0  0  0  0  0  0
   53.9779   29.5270   55.7772 C   0  0  0  0  0  0  0  0  0  0  0  0
   54.6288   29.7223   54.6189 C   0  0  0  0  0  0  0  0  0  0  0  0
   54.0467   30.0209   53.3824 C   0  0  0  0  0  0  0  0  0  0  0  0
   52.7345   30.1400   53.1043 C   0  0  0  0  0  0  0  0  0  0  0  0
   55.0908   30.1103   52.4717 C   0  0  0  0  0  0  0  0  0  0  0  0
   56.2512   29.8691   53.1789 C   0  0  0  0  0  0  0  0  0  0  0  0
   55.9767   29.6511   54.4864 N   0  0  0  0  0  0  0  0  0  0  0  0
   56.9477   29.3632   55.5468 C   0  0  0  0  0  0  0  0  0  0  0  0
   52.2022   30.4839   51.7729 C   0  0  0  0  0  0  0  0  0  0  0  0
   52.2269   29.6377   50.7295 N   0  0  0  0  0  0  0  0  0  0  0  0
   51.5732   30.3143   49.7596 C   0  0  0  0  0  0  0  0  0  0  0  0
   51.4009   29.8466   48.6030 O   0  0  0  0  0  0  0  0  0  0  0  0
   51.1131   31.5287   50.1266 N   0  0  0  0  0  0  0  0  0  0  0  0
   51.5080   31.6176   51.4076 C   0  0  0  0  0  0  0  0  0  0  0  0
   51.1995   32.6905   52.2330 O   0  0  0  0  0  0  0  0  0  0  0  0
   57.9072   30.4551   51.2897 N   0  0  0  0  0  0  0  0  0  0  0  0
   58.0315   31.9310   51.4690 C   0  0  0  0  0  0  0  0  0  0  0  0
   59.1349   32.5850   50.6141 C   0  0  0  0  0  0  0  0  0  0  0  0
   59.2291   31.9361   49.3077 N   0  0  0  0  0  0  0  0  0  0  0  0
   59.2735   30.4733   49.2219 C   0  0  0  0  0  0  0  0  0  0  0  0
   59.0720   29.8438   50.6054 C   0  0  0  0  0  0  0  0  0  0  0  0
   57.2018   30.9883   50.8571 H   0  0  0  0  0  0  0  0  0  0  0  0
   59.5867   32.7100   48.1546 C   0  0  0  0  0  0  0  0  0  0  0  0
   58.5736   33.2948   47.3786 C   0  0  0  0  0  0  0  0  0  0  0  0
   58.8993   34.0738   46.2677 C   0  0  0  0  0  0  0  0  0  0  0  0
   60.2371   34.2750   45.9209 C   0  0  0  0  0  0  0  0  0  0  0  0
   61.2540   33.6930   46.6824 C   0  0  0  0  0  0  0  0  0  0  0  0
   60.9398   32.8927   47.7933 C   0  0  0  0  0  0  0  0  0  0  0  0
   62.0538   32.2921   48.6079 C   0  0  0  0  0  0  0  0  0  0  0  0
  3  4  2  0
  4  5  1  0
  5  6  2  0
  6 11  1  0
 11 12  1  0
 12 13  1  0
 13 14  2  0
 13 15  1  0
 15 16  1  0
 16 17  1  0
  5  7  1  0
  7  8  2  0
  8  1  1  0
  1  2  2  0
  1 18  1  0
 18 19  1  0
 19 20  1  0
 20 21  1  0
 21 25  1  0
 25 26  2  0
 26 27  1  0
 27 28  2  0
 28 29  1  0
 29 30  2  0
 30 31  1  0
 21 22  1  0
 22 23  1  0
  8  9  1  0
  9 10  1  0
  9  4  1  0
 16 11  2  0
 23 18  1  0
 30 25  1  0
 18 24  1  0
M  CHG 1  12  -1
M  CHG 1  15  -1
M  CHG 1  17  -1
M  CHG 1  18   1
M  END
> <UniqueID>
50

> <SMILES>
C=c1c(=Cc2[n-]c(=O)[n-]c2[O-])cc(C(=O)[NH+]2CCN(c3ccccc3C)CC2)n1C

> <Energy>
144.08182695204613

> <Genealogy>
C=c1c(=Cc2[n-]c(=O)[n-]c2[O-])cc(C(=O)[NH+]2CCN(c3ccccc3C)CC2)n1C (protonated)
C=c1c(=Cc2[n-]c(=O)[n-]c2[O-])cc(C(=O)[NH+]2CCN(c3ccccc3C)CC2)n1C (3D coordinates assigned)
C=c1c(=Cc2[n-]c(=O)[n-]c2[O-])cc(C(=O)[NH+]2CCN(c3ccccc3C)CC2)n1C (nonaromatic ring conformer: 144.08182695204613 kcal/mol)

> <smiles>
C=c1c(=Cc2[nH]c(=O)[nH]c2O)cc(C(=O)N2CCN(c3ccccc3C)CC2)n1C

> <score_type>
oracle

> <origin>
adg

> <m_score__min__energy>
-17

> <m_primary>
energy

> <minimizedAffinity>
-7.24178

> <minimizedRMSD>
0.49565

> <CNNscore>
0.0809298903

> <CNNaffinity>
5.6293206215

> <CNN_VS>
0.4555802941

> <CNNaffinity_variance>
0.0552245788

$$$$
53:0


 27 29  0  0  0  0  0  0  0  0999 V2000
   54.7435   28.1527   54.3788 C   0  0  0  0  0  0  0  0  0  0  0  0
   55.1912   29.2078   53.6840 C   0  0  0  0  0  0  0  0  0  0  0  0
   54.4329   30.0702   52.8740 C   0  0  0  0  0  0  0  0  0  0  0  0
   53.1024   30.1825   52.6962 C   0  0  0  0  0  0  0  0  0  0  0  0
   55.3397   30.9024   52.2421 C   0  0  0  0  0  0  0  0  0  0  0  0
   56.5908   30.5788   52.7247 C   0  0  0  0  0  0  0  0  0  0  0  0
   56.5048   29.5445   53.5944 N   0  0  0  0  0  0  0  0  0  0  0  0
   57.6243   28.8793   54.2132 C   0  0  0  0  0  0  0  0  0  0  0  0
   57.9624   27.7377   53.7970 O   0  0  0  0  0  0  0  0  0  0  0  0
   58.2600   29.4497   55.3857 N   0  0  0  0  0  0  0  0  0  0  0  0
   57.6636   30.7673   55.7354 C   0  0  0  0  0  0  0  0  0  0  0  0
   58.6648   31.6549   56.4847 C   0  0  0  0  0  0  0  0  0  0  0  0
   59.8369   31.9707   55.6356 N   0  0  0  0  0  0  0  0  0  0  0  0
   60.9760   32.3842   56.4678 C   0  0  0  0  0  0  0  0  0  0  0  0
   60.2123   30.8743   54.7061 C   0  0  0  0  0  0  0  0  0  0  0  0
   59.7342   29.4988   55.2018 C   0  0  0  0  0  0  0  0  0  0  0  0
   57.7837   30.0701   54.7878 H   0  0  0  0  0  0  0  0  0  0  0  0
   52.4252   30.4701   51.4214 C   0  0  0  0  0  0  0  0  0  0  0  0
   52.3686   29.6231   50.3775 N   0  0  0  0  0  0  0  0  0  0  0  0
   51.5362   30.2471   49.5155 C   0  0  0  0  0  0  0  0  0  0  0  0
   51.2392   29.7669   48.3912 O   0  0  0  0  0  0  0  0  0  0  0  0
   51.0380   31.4217   49.9594 N   0  0  0  0  0  0  0  0  0  0  0  0
   51.6001   31.5393   51.1730 C   0  0  0  0  0  0  0  0  0  0  0  0
   51.3583   32.5982   52.0385 O   0  0  0  0  0  0  0  0  0  0  0  0
   57.8579   31.2965   52.3298 C   0  0  0  0  0  0  0  0  0  0  0  0
   57.7269   32.8178   52.4905 C   0  0  0  0  0  0  0  0  0  0  0  0
   59.0610   33.5390   52.3173 C   0  0  0  0  0  0  0  0  0  0  0  0
  1  2  2  0
  2  3  1  0
  3  4  2  0
  4 18  1  0
 18 19  1  0
 19 20  1  0
 20 21  2  0
 20 22  1  0
 22 23  1  0
 23 24  1  0
  3  5  1  0
  5  6  2  0
  6 25  1  0
 25 26  1  0
 26 27  1  0
  6  7  1  0
  7  8  1  0
  8  9  2  0
  8 10  1  0
 10 11  1  0
 11 12  1  0
 12 13  1  0
 13 14  1  0
 13 15  1  0
 15 16  1  0
  7  2  1  0
 16 10  1  0
 23 18  2  0
 10 17  1  0
M  CHG 1  10   1
M  CHG 1  19  -1
M  CHG 1  22  -1
M  CHG 1  24  -1
M  END
> <UniqueID>
51

> <SMILES>
C=c1/c(=C\c2[n-]c(=O)[n-]c2[O-])cc(CCC)n1C(=O)[NH+]1CCN(C)CC1

> <Energy>
134.11403516916334

> <Genealogy>
C=c1c(=Cc2[n-]c(=O)[n-]c2[O-])cc(CCC)n1C(=O)[NH+]1CCN(C)CC1 (protonated)
C=c1/c(=C\c2[n-]c(=O)[n-]c2[O-])cc(CCC)n1C(=O)[NH+]1CCN(C)CC1 (cis-trans isomerization)
C=c1/c(=C\c2[n-]c(=O)[n-]c2[O-])cc(CCC)n1C(=O)[NH+]1CCN(C)CC1 (3D coordinates assigned)
C=c1/c(=C\c2[n-]c(=O)[n-]c2[O-])cc(CCC)n1C(=O)[NH+]1CCN(C)CC1 (nonaromatic ring conformer: 134.11403516916334 kcal/mol)

> <smiles>
C=c1c(=Cc2[nH]c(=O)[nH]c2O)cc(CCC)n1C(=O)N1CCN(C)CC1

> <score_type>
oracle

> <origin>
adg

> <m_score__min__energy>
-14.52

> <m_primary>
energy

> <minimizedAffinity>
-4.29604

> <minimizedRMSD>
0.81613

> <CNNscore>
0.1362410784

> <CNNaffinity>
4.1195335388

> <CNN_VS>
0.5612496734

> <CNNaffinity_variance>
0.8527567387

$$$$
65:0


 30 33  0  0  0  0  0  0  0  0999 V2000
   54.7313   27.6351   53.9205 C   0  0  0  0  0  0  0  0  0  0  0  0
   55.2138   28.7970   53.4517 C   0  0  0  0  0  0  0  0  0  0  0  0
   54.4759   29.8512   52.8888 C   0  0  0  0  0  0  0  0  0  0  0  0
   53.1489   30.0749   52.8372 C   0  0  0  0  0  0  0  0  0  0  0  0
   55.4019   30.7171   52.3367 C   0  0  0  0  0  0  0  0  0  0  0  0
   56.6521   30.2053   52.6153 C   0  0  0  0  0  0  0  0  0  0  0  0
   56.5419   29.0569   53.3241 N   0  0  0  0  0  0  0  0  0  0  0  0
   57.6457   28.2467   53.8518 C   0  0  0  0  0  0  0  0  0  0  0  0
   52.3704   30.3546   51.6208 C   0  0  0  0  0  0  0  0  0  0  0  0
   52.4015   29.5791   50.5253 N   0  0  0  0  0  0  0  0  0  0  0  0
   51.6576   30.2678   49.6336 C   0  0  0  0  0  0  0  0  0  0  0  0
   51.4337   29.8483   48.4680 O   0  0  0  0  0  0  0  0  0  0  0  0
   51.1802   31.4491   50.0832 N   0  0  0  0  0  0  0  0  0  0  0  0
   51.6533   31.4955   51.3387 C   0  0  0  0  0  0  0  0  0  0  0  0
   51.4589   32.5707   52.1966 O   0  0  0  0  0  0  0  0  0  0  0  0
   57.9089   30.8318   52.1500 C   0  0  0  0  0  0  0  0  0  0  0  0
   58.5665   31.5336   52.9672 O   0  0  0  0  0  0  0  0  0  0  0  0
   58.2911   30.7949   50.7528 N   0  0  0  0  0  0  0  0  0  0  0  0
   59.4335   29.8662   50.5311 C   0  0  0  0  0  0  0  0  0  0  0  0
   60.1971   30.1563   49.2222 C   0  0  0  0  0  0  0  0  0  0  0  0
   59.3600   30.9240   48.2975 N   0  0  0  0  0  0  0  0  0  0  0  0
   59.1557   30.4917   46.9452 C   0  0  0  0  0  0  0  0  0  0  0  0
   59.2222   31.3258   46.0032 O   0  0  0  0  0  0  0  0  0  0  0  0
   58.8066   29.1365   46.6589 N   0  0  0  0  0  0  0  0  0  0  0  0
   58.3838   27.9295   47.3946 C   0  0  0  0  0  0  0  0  0  0  0  0
   58.0583   27.1135   46.1883 C   0  0  0  0  0  0  0  0  0  0  0  0
   58.4918   28.3425   45.4572 C   0  0  0  0  0  0  0  0  0  0  0  0
   58.7640   32.1802   48.7590 C   0  0  0  0  0  0  0  0  0  0  0  0
   58.6015   32.1645   50.2893 C   0  0  0  0  0  0  0  0  0  0  0  0
   59.1248   31.2696   50.9741 H   0  0  0  0  0  0  0  0  0  0  0  0
  1  2  2  0
  2  3  1  0
  3  4  2  0
  4  9  1  0
  9 10  1  0
 10 11  1  0
 11 12  2  0
 11 13  1  0
 13 14  1  0
 14 15  1  0
  3  5  1  0
  5  6  2  0
  6 16  1  0
 16 17  2  0
 16 18  1  0
 18 19  1  0
 19 20  1  0
 20 21  1  0
 21 22  1  0
 22 23  2  0
 22 24  1  0
 24 25  1  0
 25 26  1  0
 26 27  1  0
 21 28  1  0
 28 29  1  0
  6  7  1  0
  7  8  1  0
  7  2  1  0
 14  9  2  0
 29 18  1  0
 27 24  1  0
 18 30  1  0
M  CHG 1  10  -1
M  CHG 1  13  -1
M  CHG 1  15  -1
M  CHG 1  18   1
M  END
> <UniqueID>
62

> <SMILES>
C=c1/c(=C\c2[n-]c(=O)[n-]c2[O-])cc(C(=O)[NH+]2CCN(C(=O)N3CCC3)CC2)n1C

> <Energy>
181.2874333486873

> <Genealogy>
C=c1c(=Cc2[n-]c(=O)[n-]c2[O-])cc(C(=O)[NH+]2CCN(C(=O)N3CCC3)CC2)n1C (protonated)
C=c1/c(=C\c2[n-]c(=O)[n-]c2[O-])cc(C(=O)[NH+]2CCN(C(=O)N3CCC3)CC2)n1C (cis-trans isomerization)
C=c1/c(=C\c2[n-]c(=O)[n-]c2[O-])cc(C(=O)[NH+]2CCN(C(=O)N3CCC3)CC2)n1C (3D coordinates assigned)
C=c1/c(=C\c2[n-]c(=O)[n-]c2[O-])cc(C(=O)[NH+]2CCN(C(=O)N3CCC3)CC2)n1C (nonaromatic ring conformer: 181.2874333486873 kcal/mol)

> <smiles>
C=c1c(=Cc2[nH]c(=O)[nH]c2O)cc(C(=O)N2CCN(C(=O)N3CCC3)CC2)n1C

> <score_type>
oracle

> <origin>
adg

> <m_score__min__energy>
-16.140000000000001

> <m_primary>
energy

> <minimizedAffinity>
-6.48546

> <minimizedRMSD>
0.98126

> <CNNscore>
0.0441343300

> <CNNaffinity>
5.1479887962

> <CNN_VS>
0.2272030413

> <CNNaffinity_variance>
0.1104840860

$$$$
73:0


 32 35  0  0  0  0  0  0  0  0999 V2000
   59.5430   26.2364   47.7294 C   0  0  0  0  0  0  0  0  0  0  0  0
   59.0770   27.0184   46.7534 C   0  0  0  0  0  0  0  0  0  0  0  0
   59.1347   28.3286   46.8371 O   0  0  0  0  0  0  0  0  0  0  0  0
   58.5723   28.8615   45.7753 C   0  0  0  0  0  0  0  0  0  0  0  0
   58.1152   27.8543   44.9415 C   0  0  0  0  0  0  0  0  0  0  0  0
   58.4497   26.6593   45.5521 C   0  0  0  0  0  0  0  0  0  0  0  0
   58.1875   25.4553   45.0108 C   0  0  0  0  0  0  0  0  0  0  0  0
   56.9174   24.7193   45.1460 C   0  0  0  0  0  0  0  0  0  0  0  0
   55.7757   25.3127   45.7212 C   0  0  0  0  0  0  0  0  0  0  0  0
   55.7789   26.6345   46.1697 O   0  0  0  0  0  0  0  0  0  0  0  0
   54.6348   24.5862   45.8463 N   0  0  0  0  0  0  0  0  0  0  0  0
   54.5747   23.2921   45.4447 C   0  0  0  0  0  0  0  0  0  0  0  0
   53.5038   22.6426   45.5708 O   0  0  0  0  0  0  0  0  0  0  0  0
   55.6692   22.6935   44.9092 N   0  0  0  0  0  0  0  0  0  0  0  0
   56.8350   23.3731   44.7575 C   0  0  0  0  0  0  0  0  0  0  0  0
   57.8325   22.7845   44.2615 O   0  0  0  0  0  0  0  0  0  0  0  0
   56.5553   27.1535   46.0929 H   0  0  0  0  0  0  0  0  0  0  0  0
   58.4613   30.3253   45.5460 C   0  0  0  0  0  0  0  0  0  0  0  0
   59.0579   31.2363   46.4382 C   0  0  0  0  0  0  0  0  0  0  0  0
   58.9681   32.6222   46.2262 C   0  0  0  0  0  0  0  0  0  0  0  0
   58.2408   33.0996   45.1268 C   0  0  0  0  0  0  0  0  0  0  0  0
   57.6379   32.2073   44.2396 C   0  0  0  0  0  0  0  0  0  0  0  0
   57.7472   30.8288   44.4384 C   0  0  0  0  0  0  0  0  0  0  0  0
   57.1444   29.9718   43.5232 O   0  0  0  0  0  0  0  0  0  0  0  0
   59.5958   33.5736   47.1699 C   0  0  0  0  0  0  0  0  0  0  0  0
   59.0455   34.6921   47.3659 O   0  0  0  0  0  0  0  0  0  0  0  0
   60.8222   33.2606   47.8605 N   0  0  0  0  0  0  0  0  0  0  0  0
   61.0127   33.6629   49.2574 C   0  0  0  0  0  0  0  0  0  0  0  0
   62.4570   34.1323   49.4627 C   0  0  0  0  0  0  0  0  0  0  0  0
   63.3748   33.1610   48.9938 O   0  0  0  0  0  0  0  0  0  0  0  0
   63.2412   33.0115   47.5932 C   0  0  0  0  0  0  0  0  0  0  0  0
   61.8663   32.4421   47.2365 C   0  0  0  0  0  0  0  0  0  0  0  0
  1  2  2  0
  2  3  1  0
  3  4  1  0
  4 18  1  0
 18 19  2  0
 19 20  1  0
 20 25  1  0
 25 26  2  0
 25 27  1  0
 27 28  1  0
 28 29  1  0
 29 30  1  0
 30 31  1  0
 31 32  1  0
 20 21  2  0
 21 22  1  0
 22 23  2  0
 23 24  1  0
  4  5  2  0
  5  6  1  0
  6  7  2  0
  7  8  1  0
  8  9  2  0
  9 10  1  0
  9 11  1  0
 11 12  1  0
 12 13  2  0
 12 14  1  0
 14 15  1  0
 15 16  2  0
  6  2  1  0
 15  8  1  0
 23 18  1  0
 32 27  1  0
 10 17  1  0
M  CHG 1  11  -1
M  CHG 1  14  -1
M  CHG 1  24  -1
M  END
> <UniqueID>
69

> <SMILES>
C=c1oc(-c2cc(C(=O)N3CCOCC3)ccc2[O-])cc1=Cc1c(O)[n-]c(=O)[n-]c1=O

> <Energy>
101.83967539214412

> <Genealogy>
C=c1oc(-c2cc(C(=O)N3CCOCC3)ccc2[O-])cc1=Cc1c(O)[n-]c(=O)[n-]c1=O (protonated)
C=c1oc(-c2cc(C(=O)N3CCOCC3)ccc2[O-])cc1=Cc1c(O)[n-]c(=O)[n-]c1=O (3D coordinates assigned)
C=c1oc(-c2cc(C(=O)N3CCOCC3)ccc2[O-])cc1=Cc1c(O)[n-]c(=O)[n-]c1=O (nonaromatic ring conformer: 101.83967539214412 kcal/mol)

> <smiles>
C=c1oc(-c2cc(C(=O)N3CCOCC3)ccc2O)cc1=Cc1c(O)[nH]c(=O)[nH]c1=O

> <score_type>
oracle

> <origin>
adg

> <m_score__min__energy>
-15.25

> <m_primary>
energy

> <minimizedAffinity>
-10.74323

> <minimizedRMSD>
0.78312

> <CNNscore>
0.5632280111

> <CNNaffinity>
6.7878909111

> <CNN_VS>
3.8231303692

> <CNNaffinity_variance>
0.0905079767

$$$$
75:0


 28 31  0  0  0  0  0  0  0  0999 V2000
   54.5185   27.7355   53.7616 C   0  0  0  0  0  0  0  0  0  0  0  0
   55.2195   28.8626   53.5639 C   0  0  0  0  0  0  0  0  0  0  0  0
   54.7136   30.1208   53.1929 C   0  0  0  0  0  0  0  0  0  0  0  0
   53.4487   30.5760   53.0917 C   0  0  0  0  0  0  0  0  0  0  0  0
   55.8145   30.9201   52.9428 C   0  0  0  0  0  0  0  0  0  0  0  0
   56.9354   30.1650   53.2214 C   0  0  0  0  0  0  0  0  0  0  0  0
   56.5771   28.9124   53.5938 N   0  0  0  0  0  0  0  0  0  0  0  0
   57.4852   27.7973   53.8963 C   0  0  0  0  0  0  0  0  0  0  0  0
   58.3162   30.6923   53.1862 C   0  0  0  0  0  0  0  0  0  0  0  0
   59.0092   30.6633   54.2390 O   0  0  0  0  0  0  0  0  0  0  0  0
   58.8639   31.2863   51.9912 N   0  0  0  0  0  0  0  0  0  0  0  0
   59.9574   32.2626   52.1126 C   0  0  0  0  0  0  0  0  0  0  0  0
   60.1139   33.0747   50.8231 C   0  0  0  0  0  0  0  0  0  0  0  0
   60.3365   32.1631   49.5950 C   0  0  0  0  0  0  0  0  0  0  0  0
   59.5655   30.8204   49.6770 C   0  0  0  0  0  0  0  0  0  0  0  0
   58.3918   30.8756   50.6595 C   0  0  0  0  0  0  0  0  0  0  0  0
   59.9898   32.9086   48.3349 C   0  0  0  0  0  0  0  0  0  0  0  0
   59.9976   34.2557   48.2317 N   0  0  0  0  0  0  0  0  0  0  0  0
   59.6688   34.6704   46.9800 C   0  0  0  0  0  0  0  0  0  0  0  0
   59.4013   33.6522   46.0727 C   0  0  0  0  0  0  0  0  0  0  0  0
   59.5854   32.1848   46.8709 S   0  0  0  0  0  0  0  0  0  0  0  0
   52.6241   30.5620   51.8763 C   0  0  0  0  0  0  0  0  0  0  0  0
   52.8265   29.7166   50.8502 N   0  0  0  0  0  0  0  0  0  0  0  0
   51.9444   30.1385   49.9182 C   0  0  0  0  0  0  0  0  0  0  0  0
   51.8198   29.5776   48.7992 O   0  0  0  0  0  0  0  0  0  0  0  0
   51.2149   31.2180   50.2754 N   0  0  0  0  0  0  0  0  0  0  0  0
   51.6685   31.4822   51.5107 C   0  0  0  0  0  0  0  0  0  0  0  0
   51.2366   32.5584   52.2775 O   0  0  0  0  0  0  0  0  0  0  0  0
  1  2  2  0
  2  3  1  0
  3  4  2  0
  4 22  1  0
 22 23  1  0
 23 24  1  0
 24 25  2  0
 24 26  1  0
 26 27  1  0
 27 28  1  0
  3  5  1  0
  5  6  2  0
  6  9  1  0
  9 10  2  0
  9 11  1  0
 11 12  1  0
 12 13  1  0
 13 14  1  0
 14 17  1  0
 17 18  2  0
 18 19  1  0
 19 20  2  0
 20 21  1  0
 14 15  1  0
 15 16  1  0
  6  7  1  0
  7  8  1  0
  7  2  1  0
 27 22  2  0
 16 11  1  0
 21 17  1  0
M  CHG 1  23  -1
M  CHG 1  26  -1
M  CHG 1  28  -1
M  END
> <UniqueID>
71

> <SMILES>
C=c1/c(=C\c2[n-]c(=O)[n-]c2[O-])cc(C(=O)N2CCC(c3nccs3)CC2)n1C

> <Energy>
155.36033797339638

> <Genealogy>
C=c1c(=Cc2[n-]c(=O)[n-]c2[O-])cc(C(=O)N2CCC(c3nccs3)CC2)n1C (protonated)
C=c1/c(=C\c2[n-]c(=O)[n-]c2[O-])cc(C(=O)N2CCC(c3nccs3)CC2)n1C (cis-trans isomerization)
C=c1/c(=C\c2[n-]c(=O)[n-]c2[O-])cc(C(=O)N2CCC(c3nccs3)CC2)n1C (3D coordinates assigned)
C=c1/c(=C\c2[n-]c(=O)[n-]c2[O-])cc(C(=O)N2CCC(c3nccs3)CC2)n1C (nonaromatic ring conformer: 155.36033797339638 kcal/mol)

> <smiles>
C=c1c(=Cc2[nH]c(=O)[nH]c2O)cc(C(=O)N2CCC(c3nccs3)CC2)n1C

> <score_type>
oracle

> <origin>
adg

> <m_score__min__energy>
-17.649999999999999

> <m_primary>
energy

> <minimizedAffinity>
-6.28816

> <minimizedRMSD>
1.08509

> <CNNscore>
0.0954949707

> <CNNaffinity>
5.5707836151

> <CNN_VS>
0.5319818258

> <CNNaffinity_variance>
0.2428258657

$$$$
82:0


 30 33  0  0  0  0  0  0  0  0999 V2000
   53.9670   27.7774   54.1591 C   0  0  0  0  0  0  0  0  0  0  0  0
   54.9341   28.6448   53.7978 C   0  0  0  0  0  0  0  0  0  0  0  0
   56.2342   28.2342   53.9386 N   0  0  0  0  0  0  0  0  0  0  0  0
   57.2882   28.9924   53.5487 C   0  0  0  0  0  0  0  0  0  0  0  0
   57.0858   30.2508   52.9822 C   0  0  0  0  0  0  0  0  0  0  0  0
   55.7768   30.7231   52.8516 C   0  0  0  0  0  0  0  0  0  0  0  0
   54.6657   29.9401   53.2442 C   0  0  0  0  0  0  0  0  0  0  0  0
   53.4082   30.4491   53.1424 C   0  0  0  0  0  0  0  0  0  0  0  0
   56.4098   27.3523   54.3394 H   0  0  0  0  0  0  0  0  0  0  0  0
   58.2378   31.0929   52.5745 C   0  0  0  0  0  0  0  0  0  0  0  0
   58.4891   32.1508   53.2153 O   0  0  0  0  0  0  0  0  0  0  0  0
   59.0796   30.7232   51.4667 N   0  0  0  0  0  0  0  0  0  0  0  0
   58.4948   30.3178   50.1800 C   0  0  0  0  0  0  0  0  0  0  0  0
   58.8440   31.3594   49.1130 C   0  0  0  0  0  0  0  0  0  0  0  0
   60.2843   31.6348   49.1472 N   0  0  0  0  0  0  0  0  0  0  0  0
   61.1310   31.0941   48.1191 C   0  0  0  0  0  0  0  0  0  0  0  0
   61.0414   29.8699   47.8303 O   0  0  0  0  0  0  0  0  0  0  0  0
   60.8542   32.0552   50.4325 C   0  0  0  0  0  0  0  0  0  0  0  0
   60.5189   31.0106   51.4988 C   0  0  0  0  0  0  0  0  0  0  0  0
   62.1093   31.9455   47.3411 C   0  0  0  0  0  0  0  0  0  0  0  0
   61.8521   33.4526   47.3257 C   0  0  0  0  0  0  0  0  0  0  0  0
   63.1756   33.6810   48.0449 C   0  0  0  0  0  0  0  0  0  0  0  0
   63.4312   32.1793   48.0689 C   0  0  0  0  0  0  0  0  0  0  0  0
   52.6107   30.5144   51.9016 C   0  0  0  0  0  0  0  0  0  0  0  0
   52.8001   29.6897   50.8564 N   0  0  0  0  0  0  0  0  0  0  0  0
   51.9491   30.1655   49.9224 C   0  0  0  0  0  0  0  0  0  0  0  0
   51.8249   29.6381   48.7869 O   0  0  0  0  0  0  0  0  0  0  0  0
   51.2487   31.2580   50.2973 N   0  0  0  0  0  0  0  0  0  0  0  0
   51.6887   31.4737   51.5464 C   0  0  0  0  0  0  0  0  0  0  0  0
   51.2808   32.5479   52.3311 O   0  0  0  0  0  0  0  0  0  0  0  0
  1  2  2  0
  2  3  1  0
  3  4  2  0
  4  5  1  0
  5 10  1  0
 10 11  2  0
 10 12  1  0
 12 13  1  0
 13 14  1  0
 14 15  1  0
 15 16  1  0
 16 17  2  0
 16 20  1  0
 20 21  1  0
 21 22  1  0
 22 23  1  0
 15 18  1  0
 18 19  1  0
  5  6  2  0
  6  7  1  0
  7  8  2  0
  8 24  1  0
 24 25  1  0
 25 26  1  0
 26 27  2  0
 26 28  1  0
 28 29  1  0
 29 30  1  0
  7  2  1  0
 29 24  2  0
 19 12  1  0
 23 20  1  0
  3  9  1  0
M  CHG 1   3   1
M  CHG 1  25  -1
M  CHG 1  28  -1
M  CHG 1  30  -1
M  END
> <UniqueID>
76

> <SMILES>
C=c1[nH+]cc(C(=O)N2CCN(C(=O)C3CCC3)CC2)cc1=Cc1[n-]c(=O)[n-]c1[O-]

> <Energy>
168.26612490308352

> <Genealogy>
C=c1[nH+]cc(C(=O)N2CCN(C(=O)C3CCC3)CC2)cc1=Cc1[n-]c(=O)[n-]c1[O-] (protonated)
C=c1[nH+]cc(C(=O)N2CCN(C(=O)C3CCC3)CC2)cc1=Cc1[n-]c(=O)[n-]c1[O-] (3D coordinates assigned)
C=c1[nH+]cc(C(=O)N2CCN(C(=O)C3CCC3)CC2)cc1=Cc1[n-]c(=O)[n-]c1[O-] (nonaromatic ring conformer: 168.26612490308352 kcal/mol)

> <smiles>
C=c1ncc(C(=O)N2CCN(C(=O)C3CCC3)CC2)cc1=Cc1[nH]c(=O)[nH]c1O

> <score_type>
oracle

> <origin>
adg

> <m_score__min__energy>
-17.079999999999998

> <m_primary>
energy

> <minimizedAffinity>
-6.53868

> <minimizedRMSD>
0.96559

> <CNNscore>
0.0431939848

> <CNNaffinity>
5.0237069130

> <CNN_VS>
0.2169939131

> <CNNaffinity_variance>
0.2308462113

$$$$
7:0


 22 24  0  0  0  0  0  0  0  0999 V2000
   57.9238   27.4593   46.7821 C   0  0  0  0  0  0  0  0  0  0  0  0
   57.7124   26.1384   46.1910 N   0  0  0  0  0  0  0  0  0  0  0  0
   58.6559   25.2075   45.9323 C   0  0  0  0  0  0  0  0  0  0  0  0
   60.0184   25.3999   46.1306 O   0  0  0  0  0  0  0  0  0  0  0  0
   58.0711   24.0471   45.4656 C   0  0  0  0  0  0  0  0  0  0  0  0
   56.7161   24.2685   45.4553 C   0  0  0  0  0  0  0  0  0  0  0  0
   56.5242   25.5555   45.9157 C   0  0  0  0  0  0  0  0  0  0  0  0
   55.2902   26.1704   46.0952 O   0  0  0  0  0  0  0  0  0  0  0  0
   55.7036   23.2412   45.0690 C   0  0  0  0  0  0  0  0  0  0  0  0
   56.3589   21.9643   44.5798 C   0  0  0  0  0  0  0  0  0  0  0  0
   57.6923   21.7463   44.5898 C   0  0  0  0  0  0  0  0  0  0  0  0
   58.7118   22.7501   45.0919 C   0  0  0  0  0  0  0  0  0  0  0  0
   58.6867   28.3554   45.8004 C   0  0  0  0  0  0  0  0  0  0  0  0
   56.5843   29.3043   45.1388 O   0  0  0  0  0  0  0  0  0  0  0  0
   57.8307   29.4623   45.2368 C   0  0  0  0  0  0  0  0  0  0  0  0
   58.4079   30.6764   44.7358 N   0  0  0  0  0  0  0  0  0  0  0  0
   57.7406   31.9743   44.6804 C   0  0  0  0  0  0  0  0  0  0  0  0
   58.4275   32.9615   45.5707 C   0  0  0  0  0  0  0  0  0  0  0  0
   59.0133   34.1538   45.1669 C   0  0  0  0  0  0  0  0  0  0  0  0
   59.5754   34.8777   46.2249 C   0  0  0  0  0  0  0  0  0  0  0  0
   59.4371   34.2551   47.4597 C   0  0  0  0  0  0  0  0  0  0  0  0
   58.6142   32.8070   47.2341 S   0  0  0  0  0  0  0  0  0  0  0  0
 14 15  2  0
 15 13  1  0
 13  1  1  0
  1  2  1  0
  2  3  1  0
  3  4  1  0
  3  5  2  0
  5  6  1  0
  6  7  2  0
  7  8  1  0
  6  9  1  0
  9 10  1  0
 10 11  2  0
 11 12  1  0
 15 16  1  0
 16 17  1  0
 17 18  1  0
 18 19  2  0
 19 20  1  0
 20 21  2  0
 21 22  1  0
  7  2  1  0
 22 18  1  0
 12  5  1  0
M  CHG 1   4  -1
M  CHG 1   8  -1
M  CHG 1  16  -1
M  END
> <UniqueID>
8

> <SMILES>
O=C(CCn1c([O-])c2c(c1[O-])CC=CC2)[N-]Cc1cccs1

> <Energy>
91.18040925875115

> <Genealogy>
O=C(CCn1c([O-])c2c(c1[O-])CC=CC2)[N-]Cc1cccs1 (protonated)
O=C(CCn1c([O-])c2c(c1[O-])CC=CC2)[N-]Cc1cccs1 (3D coordinates assigned)
O=C(CCn1c([O-])c2c(c1[O-])CC=CC2)[N-]Cc1cccs1 (nonaromatic ring conformer: 91.18040925875115 kcal/mol)

> <smiles>
O=C(CCn1c(O)c2c(c1O)CC=CC2)NCc1cccs1

> <score_type>
oracle

> <origin>
adg

> <m_score__min__energy>
-14.460000000000001

> <m_primary>
energy

> <minimizedAffinity>
-7.02639

> <minimizedRMSD>
0.99255

> <CNNscore>
0.5471656919

> <CNNaffinity>
6.2308139801

> <CNN_VS>
3.4092876911

> <CNNaffinity_variance>
0.2563814819

$$$$
8:0


 30 32  0  0  0  0  0  0  0  0999 V2000
   58.7228   29.8355   51.2158 N   0  0  0  0  0  0  0  0  0  0  0  0
   60.3334   28.0513   49.1396 C   0  0  0  0  0  0  0  0  0  0  0  0
   59.8088   29.4456   48.9562 C   0  0  0  0  0  0  0  0  0  0  0  0
   59.1549   30.2135   49.9051 C   0  0  0  0  0  0  0  0  0  0  0  0
   58.9257   31.4228   49.2956 C   0  0  0  0  0  0  0  0  0  0  0  0
   58.3150   32.4004   49.8075 O   0  0  0  0  0  0  0  0  0  0  0  0
   59.3992   31.3880   48.0337 N   0  0  0  0  0  0  0  0  0  0  0  0
   59.9526   30.1914   47.8309 N   0  0  0  0  0  0  0  0  0  0  0  0
   60.5976   29.7520   46.5903 C   0  0  0  0  0  0  0  0  0  0  0  0
   59.2561   32.4361   47.0562 C   0  0  0  0  0  0  0  0  0  0  0  0
   58.2768   32.3478   46.0546 C   0  0  0  0  0  0  0  0  0  0  0  0
   58.1078   33.3910   45.1386 C   0  0  0  0  0  0  0  0  0  0  0  0
   58.9139   34.5291   45.2177 C   0  0  0  0  0  0  0  0  0  0  0  0
   59.8887   34.6269   46.2127 C   0  0  0  0  0  0  0  0  0  0  0  0
   60.0582   33.5868   47.1317 C   0  0  0  0  0  0  0  0  0  0  0  0
   58.2725   30.7400   52.2351 C   0  0  0  0  0  0  0  0  0  0  0  0
   59.1335   31.3876   52.8871 O   0  0  0  0  0  0  0  0  0  0  0  0
   56.8138   30.9562   52.5505 C   0  0  0  0  0  0  0  0  0  0  0  0
   55.9876   29.8514   52.0757 N   0  0  0  0  0  0  0  0  0  0  0  0
   54.8327   29.3563   52.7648 C   0  0  0  0  0  0  0  0  0  0  0  0
   54.8949   28.2545   53.3753 O   0  0  0  0  0  0  0  0  0  0  0  0
   53.5837   30.1576   52.7757 C   0  0  0  0  0  0  0  0  0  0  0  0
   53.1691   30.8114   51.6006 C   0  0  0  0  0  0  0  0  0  0  0  0
   52.0045   31.5824   51.5865 C   0  0  0  0  0  0  0  0  0  0  0  0
   51.2487   31.7311   52.7503 C   0  0  0  0  0  0  0  0  0  0  0  0
   50.1001   32.5131   52.7376 O   0  0  0  0  0  0  0  0  0  0  0  0
   51.6482   31.0944   53.9270 C   0  0  0  0  0  0  0  0  0  0  0  0
   52.8105   30.3079   53.9493 C   0  0  0  0  0  0  0  0  0  0  0  0
   53.1994   29.6959   55.1423 O   0  0  0  0  0  0  0  0  0  0  0  0
   52.6794   29.8022   55.9145 H   0  0  0  0  0  0  0  0  0  0  0  0
  2  3  1  0
  3  4  2  0
  4  1  1  0
  1 16  1  0
 16 17  2  0
 16 18  1  0
 18 19  1  0
 19 20  1  0
 20 21  2  0
 20 22  1  0
 22 23  2  0
 23 24  1  0
 24 25  2  0
 25 26  1  0
 25 27  1  0
 27 28  2  0
 28 29  1  0
  4  5  1  0
  5  6  2  0
  5  7  1  0
  7 10  1  0
 10 11  2  0
 11 12  1  0
 12 13  2  0
 13 14  1  0
 14 15  2  0
  7  8  1  0
  8  9  1  0
  8  3  1  0
 28 22  1  0
 15 10  1  0
 29 30  1  0
M  CHG 1   1  -1
M  CHG 1  19  -1
M  CHG 1  26  -1
M  END
> <UniqueID>
9

> <SMILES>
Cc1c([N-]C(=O)C[N-]C(=O)c2ccc([O-])cc2O)c(=O)n(-c2ccccc2)n1C

> <Energy>
91.38310727469036

> <Genealogy>
Cc1c([N-]C(=O)C[N-]C(=O)c2ccc([O-])cc2O)c(=O)n(-c2ccccc2)n1C (protonated)
Cc1c([N-]C(=O)C[N-]C(=O)c2ccc([O-])cc2O)c(=O)n(-c2ccccc2)n1C (3D coordinates assigned)
Cc1c([N-]C(=O)C[N-]C(=O)c2ccc([O-])cc2O)c(=O)n(-c2ccccc2)n1C (optimized conformer: 91.38310727469036 kcal/mol)

> <smiles>
Cc1c(NC(=O)CNC(=O)c2ccc(O)cc2O)c(=O)n(-c2ccccc2)n1C

> <score_type>
oracle

> <origin>
adg

> <m_score__min__energy>
-14.550000000000001

> <m_primary>
energy

> <minimizedAffinity>
-7.40774

> <minimizedRMSD>
0.68872

> <CNNscore>
0.4710479975

> <CNNaffinity>
5.7683348656

> <CNN_VS>
2.7171626091

> <CNNaffinity_variance>
0.3153280318

$$$$
16:0


 33 36  0  0  0  0  0  0  0  0999 V2000
   58.2574   34.3189   46.9390 O   0  0  0  0  0  0  0  0  0  0  0  0
   59.0269   33.5326   46.3271 C   0  0  0  0  0  0  0  0  0  0  0  0
   60.4125   33.4951   46.6961 N   0  0  0  0  0  0  0  0  0  0  0  0
   60.8715   33.3762   47.9080 C   0  0  0  0  0  0  0  0  0  0  0  0
   62.1947   33.3900   48.1776 N   0  0  0  0  0  0  0  0  0  0  0  0
   62.4395   33.2909   49.5106 C   0  0  0  0  0  0  0  0  0  0  0  0
   61.3013   33.1975   50.3064 C   0  0  0  0  0  0  0  0  0  0  0  0
   59.9428   33.2682   49.3154 S   0  0  0  0  0  0  0  0  0  0  0  0
   61.2756   33.1395   51.7998 C   0  0  0  0  0  0  0  0  0  0  0  0
   60.0352   32.4465   52.2667 C   0  0  0  0  0  0  0  0  0  0  0  0
   59.8695   30.7811   52.4584 S   0  0  0  0  0  0  0  0  0  0  0  0
   58.3097   30.9236   53.0661 C   0  0  0  0  0  0  0  0  0  0  0  0
   57.5955   29.9523   53.4211 O   0  0  0  0  0  0  0  0  0  0  0  0
   57.8987   32.2059   53.1488 N   0  0  0  0  0  0  0  0  0  0  0  0
   58.8654   33.0577   52.7105 C   0  0  0  0  0  0  0  0  0  0  0  0
   58.6880   34.4371   52.7142 O   0  0  0  0  0  0  0  0  0  0  0  0
   57.8832   34.8051   53.0222 H   0  0  0  0  0  0  0  0  0  0  0  0
   58.4837   32.7126   45.2233 C   0  0  0  0  0  0  0  0  0  0  0  0
   58.3564   33.2292   43.9247 C   0  0  0  0  0  0  0  0  0  0  0  0
   57.8364   32.4191   42.9134 C   0  0  0  0  0  0  0  0  0  0  0  0
   57.4501   31.1091   43.1991 C   0  0  0  0  0  0  0  0  0  0  0  0
   57.5929   30.6198   44.5054 C   0  0  0  0  0  0  0  0  0  0  0  0
   58.0840   31.4363   45.4776 N   0  0  0  0  0  0  0  0  0  0  0  0
   57.1846   29.2498   44.8592 C   0  0  0  0  0  0  0  0  0  0  0  0
   55.9769   29.0278   45.1346 O   0  0  0  0  0  0  0  0  0  0  0  0
   58.1247   28.1722   44.9540 N   0  0  0  0  0  0  0  0  0  0  0  0
   59.5698   28.3312   45.0678 C   0  0  0  0  0  0  0  0  0  0  0  0
   59.9539   28.3451   46.5168 C   0  0  0  0  0  0  0  0  0  0  0  0
   60.0614   27.1418   47.2364 C   0  0  0  0  0  0  0  0  0  0  0  0
   60.3830   27.1616   48.5973 C   0  0  0  0  0  0  0  0  0  0  0  0
   60.5879   28.3799   49.2508 C   0  0  0  0  0  0  0  0  0  0  0  0
   60.4670   29.5806   48.5465 C   0  0  0  0  0  0  0  0  0  0  0  0
   60.1465   29.5653   47.1859 C   0  0  0  0  0  0  0  0  0  0  0  0
  1  2  2  0
  2  3  1  0
  3  4  2  0
  4  5  1  0
  5  6  1  0
  6  7  2  0
  7  9  1  0
  9 10  1  0
 10 11  1  0
 11 12  1  0
 12 13  2  0
 12 14  1  0
 14 15  1  0
 15 16  1  0
  7  8  1  0
  2 18  1  0
 18 19  2  0
 19 20  1  0
 20 21  2  0
 21 22  1  0
 22 24  1  0
 24 25  2  0
 24 26  1  0
 26 27  1  0
 27 28  1  0
 28 29  2  0
 29 30  1  0
 30 31  2  0
 31 32  1  0
 32 33  2  0
 22 23  2  0
  8  4  1  0
 23 18  1  0
 15 10  2  0
 33 28  1  0
 16 17  1  0
M  CHG 1   5  -1
M  CHG 1  14  -1
M  CHG 1  26  -1
M  END
> <UniqueID>
15

> <SMILES>
O=C(N=c1[n-]cc(Cc2sc(=O)[n-]c2O)s1)c1cccc(C(=O)[N-]Cc2ccccc2)n1

> <Energy>
119.70601859860284

> <Genealogy>
O=C(N=c1[n-]cc(Cc2sc(=O)[n-]c2O)s1)c1cccc(C(=O)[N-]Cc2ccccc2)n1 (protonated)
O=C(N=c1[n-]cc(Cc2sc(=O)[n-]c2O)s1)c1cccc(C(=O)[N-]Cc2ccccc2)n1 (3D coordinates assigned)
O=C(N=c1[n-]cc(Cc2sc(=O)[n-]c2O)s1)c1cccc(C(=O)[N-]Cc2ccccc2)n1 (optimized conformer: 119.70601859860284 kcal/mol)

> <smiles>
O=C(N=c1[nH]cc(Cc2sc(=O)[nH]c2O)s1)c1cccc(C(=O)NCc2ccccc2)n1

> <score_type>
oracle

> <origin>
adg

> <m_score__min__energy>
-14.720000000000001

> <m_primary>
energy

> <minimizedAffinity>
-7.54103

> <minimizedRMSD>
1.90177

> <CNNscore>
0.0735488683

> <CNNaffinity>
6.7051272392

> <CNN_VS>
0.4931545258

> <CNNaffinity_variance>
0.1399476677

$$$$
25:0


 24 26  0  0  0  0  0  0  0  0999 V2000
   60.4190   27.2798   48.3327 C   0  0  0  0  0  0  0  0  0  0  0  0
   59.7812   27.2418   47.1568 C   0  0  0  0  0  0  0  0  0  0  0  0
   59.6627   28.2405   46.1681 C   0  0  0  0  0  0  0  0  0  0  0  0
   60.1254   29.5065   46.0905 C   0  0  0  0  0  0  0  0  0  0  0  0
   58.9040   27.6737   45.1534 C   0  0  0  0  0  0  0  0  0  0  0  0
   58.6024   26.3871   45.5454 C   0  0  0  0  0  0  0  0  0  0  0  0
   59.1230   26.1327   46.7570 N   0  0  0  0  0  0  0  0  0  0  0  0
   59.0399   25.2913   47.2615 H   0  0  0  0  0  0  0  0  0  0  0  0
   59.5024   30.7403   46.6790 C   0  0  0  0  0  0  0  0  0  0  0  0
   58.4636   31.3520   45.7295 C   0  0  0  0  0  0  0  0  0  0  0  0
   57.8277   32.5280   46.3635 N   0  0  0  0  0  0  0  0  0  0  0  0
   58.5174   32.9626   47.6090 C   0  0  0  0  0  0  0  0  0  0  0  0
   59.3468   34.2543   47.4528 C   0  0  0  0  0  0  0  0  0  0  0  0
   59.9887   34.3367   46.0679 C   0  0  0  0  0  0  0  0  0  0  0  0
   58.9331   34.2767   44.9497 C   0  0  0  0  0  0  0  0  0  0  0  0
   57.6089   33.6345   45.4095 C   0  0  0  0  0  0  0  0  0  0  0  0
   57.7348   25.4310   44.7911 C   0  0  0  0  0  0  0  0  0  0  0  0
   57.0602   24.4942   45.7427 C   0  0  0  0  0  0  0  0  0  0  0  0
   57.6444   23.4010   46.2674 N   0  0  0  0  0  0  0  0  0  0  0  0
   56.7024   22.9196   47.1070 C   0  0  0  0  0  0  0  0  0  0  0  0
   56.8734   21.8787   47.7929 O   0  0  0  0  0  0  0  0  0  0  0  0
   55.5634   23.6451   47.1598 N   0  0  0  0  0  0  0  0  0  0  0  0
   55.8099   24.6409   46.2941 C   0  0  0  0  0  0  0  0  0  0  0  0
   54.9164   25.6677   46.0191 O   0  0  0  0  0  0  0  0  0  0  0  0
  1  2  2  0
  2  3  1  0
  3  4  2  0
  4  9  1  0
  9 10  1  0
 10 11  1  0
 11 12  1  0
 12 13  1  0
 13 14  1  0
 14 15  1  0
 15 16  1  0
  3  5  1  0
  5  6  2  0
  6 17  1  0
 17 18  1  0
 18 19  1  0
 19 20  1  0
 20 21  2  0
 20 22  1  0
 22 23  1  0
 23 24  1  0
  6  7  1  0
  7  2  1  0
 16 11  1  0
 23 18  2  0
  7  8  1  0
M  CHG 1  19  -1
M  CHG 1  22  -1
M  CHG 1  24  -1
M  END
> <UniqueID>
24

> <SMILES>
C=c1[nH]c(Cc2[n-]c(=O)[n-]c2[O-])c/c1=C/CCN1CCCCC1

> <Energy>
111.04200443146958

> <Genealogy>
C=c1[nH]c(Cc2[n-]c(=O)[n-]c2[O-])cc1=CCCN1CCCCC1 (protonated)
C=c1[nH]c(Cc2[n-]c(=O)[n-]c2[O-])c/c1=C/CCN1CCCCC1 (cis-trans isomerization)
C=c1[nH]c(Cc2[n-]c(=O)[n-]c2[O-])c/c1=C/CCN1CCCCC1 (3D coordinates assigned)
C=c1[nH]c(Cc2[n-]c(=O)[n-]c2[O-])c/c1=C/CCN1CCCCC1 (nonaromatic ring conformer: 111.04200443146958 kcal/mol)

> <smiles>
C=c1[nH]c(Cc2[nH]c(=O)[nH]c2O)cc1=CCCN1CCCCC1

> <score_type>
oracle

> <origin>
adg

> <m_score__min__energy>
-16.329999999999998

> <m_primary>
energy

> <minimizedAffinity>
-8.45427

> <minimizedRMSD>
1.66062

> <CNNscore>
0.1466832757

> <CNNaffinity>
5.7461509705

> <CNN_VS>
0.8428642750

> <CNNaffinity_variance>
0.1598575562

$$$$
29:0


 35 39  0  0  0  0  0  0  0  0999 V2000
   59.4931   32.3901   47.0564 C   0  0  0  0  0  0  0  0  0  0  0  0
   60.8897   32.3567   47.1720 C   0  0  0  0  0  0  0  0  0  0  0  0
   61.5494   33.1921   48.0892 C   0  0  0  0  0  0  0  0  0  0  0  0
   60.7916   34.0411   48.9124 C   0  0  0  0  0  0  0  0  0  0  0  0
   59.3992   34.0745   48.7997 C   0  0  0  0  0  0  0  0  0  0  0  0
   58.7489   33.2569   47.8716 C   0  0  0  0  0  0  0  0  0  0  0  0
   57.3979   33.3099   47.7634 F   0  0  0  0  0  0  0  0  0  0  0  0
   57.5225   28.5336   44.6895 C   0  0  0  0  0  0  0  0  0  0  0  0
   57.9683   29.7570   45.0319 C   0  0  0  0  0  0  0  0  0  0  0  0
   57.7784   30.8757   44.2361 C   0  0  0  0  0  0  0  0  0  0  0  0
   58.2898   31.9521   44.9301 C   0  0  0  0  0  0  0  0  0  0  0  0
   58.2851   33.3665   44.4318 C   0  0  0  0  0  0  0  0  0  0  0  0
   58.8288   31.5450   46.0998 N   0  0  0  0  0  0  0  0  0  0  0  0
   58.6684   30.1976   46.1673 C   0  0  0  0  0  0  0  0  0  0  0  0
   59.2460   29.4367   47.1111 C   0  0  0  0  0  0  0  0  0  0  0  0
   55.5550   26.5857   46.0388 O   0  0  0  0  0  0  0  0  0  0  0  0
   56.9312   26.4014   45.9556 C   0  0  0  0  0  0  0  0  0  0  0  0
   57.5693   25.3053   46.3987 N   0  0  0  0  0  0  0  0  0  0  0  0
   58.8533   25.5541   46.0615 C   0  0  0  0  0  0  0  0  0  0  0  0
   59.7852   24.7449   46.3033 O   0  0  0  0  0  0  0  0  0  0  0  0
   59.0566   26.7311   45.4309 N   0  0  0  0  0  0  0  0  0  0  0  0
   57.8301   27.2800   45.3942 C   0  0  0  0  0  0  0  0  0  0  0  0
   55.0180   25.9310   46.4400 H   0  0  0  0  0  0  0  0  0  0  0  0
   63.0217   33.1394   48.2138 C   0  0  0  0  0  0  0  0  0  0  0  0
   63.7259   33.1577   47.1671 O   0  0  0  0  0  0  0  0  0  0  0  0
   63.6653   33.0774   49.5001 N   0  0  0  0  0  0  0  0  0  0  0  0
   63.1639   33.9037   50.6081 C   0  0  0  0  0  0  0  0  0  0  0  0
   64.2599   34.1317   51.6513 C   0  0  0  0  0  0  0  0  0  0  0  0
   64.8125   32.8417   52.1118 N   0  0  0  0  0  0  0  0  0  0  0  0
   65.1757   31.8808   51.0356 C   0  0  0  0  0  0  0  0  0  0  0  0
   64.9818   32.4399   49.6181 C   0  0  0  0  0  0  0  0  0  0  0  0
   65.8731   33.0130   53.1271 C   0  0  0  0  0  0  0  0  0  0  0  0
   66.9275   34.0618   52.7174 C   0  0  0  0  0  0  0  0  0  0  0  0
   68.2394   33.4638   52.2314 C   0  0  0  0  0  0  0  0  0  0  0  0
   68.1721   34.1401   53.5902 C   0  0  0  0  0  0  0  0  0  0  0  0
 16 17  1  0
 17 18  1  0
 18 19  1  0
 19 20  2  0
 19 21  1  0
 21 22  1  0
 22  8  1  0
  8  9  2  0
  9 10  1  0
 10 11  2  0
 11 12  1  0
 11 13  1  0
 13  1  1  0
  1  2  2  0
  2  3  1  0
  3 24  1  0
 24 25  2  0
 24 26  1  0
 26 27  1  0
 27 28  1  0
 28 29  1  0
 29 32  1  0
 32 33  1  0
 33 34  1  0
 34 35  1  0
 29 30  1  0
 30 31  1  0
  3  4  2  0
  4  5  1  0
  5  6  2  0
  6  7  1  0
 13 14  1  0
 14 15  2  0
 22 17  2  0
 14  9  1  0
  6  1  1  0
 31 26  1  0
 35 33  1  0
 16 23  1  0
M  CHG 1  18  -1
M  CHG 1  21  -1
M  END
> <UniqueID>
27

> <SMILES>
C=c1/c(=C\c2[n-]c(=O)[n-]c2O)cc(C)n1-c1cc(C(=O)N2CCN(CC3CC3)CC2)ccc1F

> <Energy>
414.4383693941927

> <Genealogy>
C=c1c(=Cc2[n-]c(=O)[n-]c2O)cc(C)n1-c1cc(C(=O)N2CCN(CC3CC3)CC2)ccc1F (protonated)
C=c1/c(=C\c2[n-]c(=O)[n-]c2O)cc(C)n1-c1cc(C(=O)N2CCN(CC3CC3)CC2)ccc1F (cis-trans isomerization)
C=c1/c(=C\c2[n-]c(=O)[n-]c2O)cc(C)n1-c1cc(C(=O)N2CCN(CC3CC3)CC2)ccc1F (3D coordinates assigned)
C=c1/c(=C\c2[n-]c(=O)[n-]c2O)cc(C)n1-c1cc(C(=O)N2CCN(CC3CC3)CC2)ccc1F (nonaromatic ring conformer: 414.4383693941927 kcal/mol)

> <smiles>
C=c1c(=Cc2[nH]c(=O)[nH]c2O)cc(C)n1-c1cc(C(=O)N2CCN(CC3CC3)CC2)ccc1F

> <score_type>
oracle

> <origin>
adg

> <m_score__min__energy>
-14.390000000000001

> <m_primary>
energy

> <minimizedAffinity>
-8.73640

> <minimizedRMSD>
1.48610

> <CNNscore>
0.4094417691

> <CNNaffinity>
7.1554598808

> <CNN_VS>
2.9297442436

> <CNNaffinity_variance>
0.0395230055

$$$$
40:0


 25 27  0  0  0  0  0  0  0  0999 V2000
   56.8815   28.6250   55.6424 C   0  0  0  0  0  0  0  0  0  0  0  0
   55.9701   29.1509   54.8217 C   0  0  0  0  0  0  0  0  0  0  0  0
   54.3200   29.1091   55.1293 S   0  0  0  0  0  0  0  0  0  0  0  0
   53.8988   29.9372   53.7265 C   0  0  0  0  0  0  0  0  0  0  0  0
   52.6237   30.2122   53.4005 C   0  0  0  0  0  0  0  0  0  0  0  0
   55.0867   30.2056   53.0260 C   0  0  0  0  0  0  0  0  0  0  0  0
   55.1109   30.7597   51.8960 O   0  0  0  0  0  0  0  0  0  0  0  0
   56.2314   29.7802   53.6433 N   0  0  0  0  0  0  0  0  0  0  0  0
   52.0955   30.3879   52.0350 C   0  0  0  0  0  0  0  0  0  0  0  0
   52.2314   29.5095   51.0255 N   0  0  0  0  0  0  0  0  0  0  0  0
   51.7002   30.1592   49.9677 C   0  0  0  0  0  0  0  0  0  0  0  0
   51.6331   29.6461   48.8204 O   0  0  0  0  0  0  0  0  0  0  0  0
   51.2550   31.4058   50.2333 N   0  0  0  0  0  0  0  0  0  0  0  0
   51.5240   31.5378   51.5429 C   0  0  0  0  0  0  0  0  0  0  0  0
   51.2562   32.6889   52.2734 O   0  0  0  0  0  0  0  0  0  0  0  0
   57.8326   30.0211   52.9869 S   0  0  0  0  0  0  0  0  0  0  0  0
   57.8372   29.8317   51.4956 O   0  0  0  0  0  0  0  0  0  0  0  0
   58.7669   29.0119   53.5961 O   0  0  0  0  0  0  0  0  0  0  0  0
   58.3722   31.6611   53.3402 C   0  0  0  0  0  0  0  0  0  0  0  0
   58.2704   32.6676   52.3675 C   0  0  0  0  0  0  0  0  0  0  0  0
   58.7080   33.9653   52.6483 C   0  0  0  0  0  0  0  0  0  0  0  0
   59.2467   34.2666   53.9025 C   0  0  0  0  0  0  0  0  0  0  0  0
   59.3468   33.2701   54.8769 C   0  0  0  0  0  0  0  0  0  0  0  0
   58.9107   31.9695   54.6001 C   0  0  0  0  0  0  0  0  0  0  0  0
   59.0118   31.0169   55.5613 F   0  0  0  0  0  0  0  0  0  0  0  0
  1  2  2  0
  2  3  1  0
  3  4  1  0
  4  5  2  0
  5  9  1  0
  9 10  1  0
 10 11  1  0
 11 12  2  0
 11 13  1  0
 13 14  1  0
 14 15  1  0
  4  6  1  0
  6  7  2  0
  6  8  1  0
  8 16  1  0
 16 17  2  0
 16 18  2  0
 16 19  1  0
 19 20  2  0
 20 21  1  0
 21 22  2  0
 22 23  1  0
 23 24  2  0
 24 25  1  0
  8  2  1  0
 24 19  1  0
 14  9  2  0
M  CHG 1  10  -1
M  CHG 1  13  -1
M  CHG 1  15  -1
M  END
> <UniqueID>
38

> <SMILES>
C=c1sc(=Cc2[n-]c(=O)[n-]c2[O-])c(=O)n1S(=O)(=O)c1ccccc1F

> <Energy>
105.79575391349576

> <Genealogy>
C=c1sc(=Cc2[n-]c(=O)[n-]c2[O-])c(=O)n1S(=O)(=O)c1ccccc1F (protonated)
C=c1sc(=Cc2[n-]c(=O)[n-]c2[O-])c(=O)n1S(=O)(=O)c1ccccc1F (3D coordinates assigned)
C=c1sc(=Cc2[n-]c(=O)[n-]c2[O-])c(=O)n1S(=O)(=O)c1ccccc1F (optimized conformer: 105.79575391349576 kcal/mol)

> <smiles>
C=c1sc(=Cc2[nH]c(=O)[nH]c2O)c(=O)n1S(=O)(=O)c1ccccc1F

> <score_type>
oracle

> <origin>
adg

> <m_score__min__energy>
-16.18

> <m_primary>
energy

> <minimizedAffinity>
-5.29038

> <minimizedRMSD>
0.80904

> <CNNscore>
0.1798242480

> <CNNaffinity>
4.5306162834

> <CNN_VS>
0.8147146702

> <CNNaffinity_variance>
0.1770385057

$$$$
45:0


 30 32  0  0  0  0  0  0  0  0999 V2000
   56.5111   29.1124   52.6942 O   0  0  0  0  0  0  0  0  0  0  0  0
   56.4706   30.1508   53.4038 C   0  0  0  0  0  0  0  0  0  0  0  0
   55.9444   30.0419   54.8133 C   0  0  0  0  0  0  0  0  0  0  0  0
   54.7174   29.2505   54.8805 N   0  0  0  0  0  0  0  0  0  0  0  0
   53.3780   29.7610   54.8344 C   0  0  0  0  0  0  0  0  0  0  0  0
   52.6886   29.7501   55.8888 O   0  0  0  0  0  0  0  0  0  0  0  0
   52.7992   30.3402   53.6087 C   0  0  0  0  0  0  0  0  0  0  0  0
   53.2800   29.9720   52.3432 C   0  0  0  0  0  0  0  0  0  0  0  0
   52.7202   30.5243   51.1884 C   0  0  0  0  0  0  0  0  0  0  0  0
   51.6697   31.4407   51.2856 C   0  0  0  0  0  0  0  0  0  0  0  0
   51.1230   31.9818   50.1275 O   0  0  0  0  0  0  0  0  0  0  0  0
   51.1712   31.8058   52.5477 C   0  0  0  0  0  0  0  0  0  0  0  0
   50.1221   32.7160   52.6746 O   0  0  0  0  0  0  0  0  0  0  0  0
   51.7336   31.2490   53.7023 C   0  0  0  0  0  0  0  0  0  0  0  0
   49.7366   33.0961   51.9099 H   0  0  0  0  0  0  0  0  0  0  0  0
   56.8838   31.3967   52.8221 N   0  0  0  0  0  0  0  0  0  0  0  0
   58.1795   31.7055   52.2932 C   0  0  0  0  0  0  0  0  0  0  0  0
   58.9712   30.6684   51.7879 C   0  0  0  0  0  0  0  0  0  0  0  0
   60.2389   30.9380   51.2643 C   0  0  0  0  0  0  0  0  0  0  0  0
   60.7381   32.2476   51.2660 C   0  0  0  0  0  0  0  0  0  0  0  0
   59.9559   33.2838   51.7929 C   0  0  0  0  0  0  0  0  0  0  0  0
   58.6883   33.0137   52.3157 C   0  0  0  0  0  0  0  0  0  0  0  0
   62.3353   32.5915   50.5891 S   0  0  0  0  0  0  0  0  0  0  0  0
   63.3244   31.6056   51.1481 O   0  0  0  0  0  0  0  0  0  0  0  0
   62.7601   33.9680   51.0163 O   0  0  0  0  0  0  0  0  0  0  0  0
   62.3701   32.5022   48.8443 N   0  0  0  0  0  0  0  0  0  0  0  0
   63.5007   33.2348   48.2788 C   0  0  0  0  0  0  0  0  0  0  0  0
   63.1012   33.6084   46.8604 C   0  0  0  0  0  0  0  0  0  0  0  0
   61.5810   33.5204   46.8354 C   0  0  0  0  0  0  0  0  0  0  0  0
   61.1796   33.0928   48.2391 C   0  0  0  0  0  0  0  0  0  0  0  0
  1  2  2  0
  2  3  1  0
  3  4  1  0
  4  5  1  0
  5  6  2  0
  5  7  1  0
  7  8  2  0
  8  9  1  0
  9 10  2  0
 10 11  1  0
 10 12  1  0
 12 13  1  0
 12 14  2  0
  2 16  1  0
 16 17  1  0
 17 18  2  0
 18 19  1  0
 19 20  2  0
 20 23  1  0
 23 24  2  0
 23 25  2  0
 23 26  1  0
 26 27  1  0
 27 28  1  0
 28 29  1  0
 29 30  1  0
 20 21  1  0
 21 22  2  0
 14  7  1  0
 22 17  1  0
 30 26  1  0
 13 15  1  0
M  CHG 1   4  -1
M  CHG 1  11  -1
M  CHG 1  16  -1
M  END
> <UniqueID>
42

> <SMILES>
O=C(C[N-]C(=O)c1ccc([O-])c(O)c1)[N-]c1ccc(S(=O)(=O)N2CCCC2)cc1

> <Energy>
57.27347734946177

> <Genealogy>
O=C(C[N-]C(=O)c1ccc([O-])c(O)c1)[N-]c1ccc(S(=O)(=O)N2CCCC2)cc1 (protonated)
O=C(C[N-]C(=O)c1ccc([O-])c(O)c1)[N-]c1ccc(S(=O)(=O)N2CCCC2)cc1 (3D coordinates assigned)
O=C(C[N-]C(=O)c1ccc([O-])c(O)c1)[N-]c1ccc(S(=O)(=O)N2CCCC2)cc1 (nonaromatic ring conformer: 57.27347734946177 kcal/mol)

> <smiles>
O=C(CNC(=O)c1ccc(O)c(O)c1)Nc1ccc(S(=O)(=O)N2CCCC2)cc1

> <score_type>
oracle

> <origin>
adg

> <m_score__min__energy>
-14.85

> <m_primary>
energy

> <minimizedAffinity>
-6.30286

> <minimizedRMSD>
1.07413

> <CNNscore>
0.4273933172

> <CNNaffinity>
5.4756627083

> <CNN_VS>
2.3402616978

> <CNNaffinity_variance>
0.0384135880

$$$$
47:0


 28 30  0  0  0  0  0  0  0  0999 V2000
   59.7162   32.7617   47.6922 C   0  0  0  0  0  0  0  0  0  0  0  0
   59.1419   32.7964   46.4854 C   0  0  0  0  0  0  0  0  0  0  0  0
   59.1335   34.1963   46.0526 C   0  0  0  0  0  0  0  0  0  0  0  0
   58.6469   34.6157   44.9698 O   0  0  0  0  0  0  0  0  0  0  0  0
   59.7147   35.0579   47.0233 N   0  0  0  0  0  0  0  0  0  0  0  0
   60.0698   34.1365   48.0467 C   0  0  0  0  0  0  0  0  0  0  0  0
   60.6394   34.4827   49.1149 O   0  0  0  0  0  0  0  0  0  0  0  0
   60.5638   29.3013   50.0807 C   0  0  0  0  0  0  0  0  0  0  0  0
   61.3370   29.5896   48.9510 C   0  0  0  0  0  0  0  0  0  0  0  0
   61.0484   30.7157   48.1734 C   0  0  0  0  0  0  0  0  0  0  0  0
   59.9906   31.5695   48.5234 C   0  0  0  0  0  0  0  0  0  0  0  0
   59.1992   31.2617   49.6486 C   0  0  0  0  0  0  0  0  0  0  0  0
   58.1096   32.0552   49.9914 O   0  0  0  0  0  0  0  0  0  0  0  0
   59.4947   30.1373   50.4260 C   0  0  0  0  0  0  0  0  0  0  0  0
   61.1160   27.1747   51.5544 C   0  0  0  0  0  0  0  0  0  0  0  0
   60.8642   28.1435   50.8826 C   0  0  0  0  0  0  0  0  0  0  0  0
   58.5514   31.6617   45.7398 C   0  0  0  0  0  0  0  0  0  0  0  0
   57.9333   31.8638   44.4935 C   0  0  0  0  0  0  0  0  0  0  0  0
   57.3782   30.7885   43.7977 C   0  0  0  0  0  0  0  0  0  0  0  0
   57.4383   29.4981   44.3322 C   0  0  0  0  0  0  0  0  0  0  0  0
   56.8772   28.4400   43.6233 O   0  0  0  0  0  0  0  0  0  0  0  0
   58.0624   29.2777   45.5710 C   0  0  0  0  0  0  0  0  0  0  0  0
   58.6188   30.3622   46.2660 C   0  0  0  0  0  0  0  0  0  0  0  0
   58.1444   27.6499   46.2480 S   0  0  0  0  0  0  0  0  0  0  0  0
   56.6392   26.8423   45.9928 N   0  0  0  0  0  0  0  0  0  0  0  0
   59.2404   26.8609   45.5896 O   0  0  0  0  0  0  0  0  0  0  0  0
   58.4261   27.7378   47.7227 O   0  0  0  0  0  0  0  0  0  0  0  0
   56.4502   26.7838   44.9921 H   0  0  0  0  0  0  0  0  0  0  0  0
 15 16  3  0
 16  8  1  0
  8  9  2  0
  9 10  1  0
 10 11  2  0
 11  1  1  0
  1  2  2  0
  2 17  1  0
 17 18  2  0
 18 19  1  0
 19 20  2  0
 20 21  1  0
 20 22  1  0
 22 24  1  0
 24 25  1  0
 24 26  2  0
 24 27  2  0
 22 23  2  0
  2  3  1  0
  3  4  2  0
  3  5  1  0
  5  6  1  0
  6  7  2  0
 11 12  1  0
 12 13  1  0
 12 14  2  0
 14  8  1  0
  6  1  1  0
 23 17  1  0
 25 28  1  0
M  CHG 1   5  -1
M  CHG 1  13  -1
M  CHG 1  21  -1
M  CHG 1  25  -1
M  END
> <UniqueID>
44

> <SMILES>
C#Cc1ccc(C2=C(c3ccc([O-])c(S([NH-])(=O)=O)c3)C(=O)[N-]C2=O)c([O-])c1

> <Energy>
71.4733487871752

> <Genealogy>
C#Cc1ccc(C2=C(c3ccc([O-])c(S([NH-])(=O)=O)c3)C(=O)[N-]C2=O)c([O-])c1 (protonated)
C#Cc1ccc(C2=C(c3ccc([O-])c(S([NH-])(=O)=O)c3)C(=O)[N-]C2=O)c([O-])c1 (3D coordinates assigned)
C#Cc1ccc(C2=C(c3ccc([O-])c(S([NH-])(=O)=O)c3)C(=O)[N-]C2=O)c([O-])c1 (nonaromatic ring conformer: 71.4733487871752 kcal/mol)

> <smiles>
C#Cc1ccc(C2=C(c3ccc(O)c(S(N)(=O)=O)c3)C(=O)NC2=O)c(O)c1

> <score_type>
oracle

> <origin>
adg

> <m_score__min__energy>
-14.789999999999999

> <m_primary>
energy

> <minimizedAffinity>
-7.80412

> <minimizedRMSD>
0.90343

> <CNNscore>
0.5143089890

> <CNNaffinity>
6.6278228760

> <CNN_VS>
3.4087488651

> <CNNaffinity_variance>
0.1903783679

$$$$
57:0


 25 27  0  0  0  0  0  0  0  0999 V2000
   57.0503   29.8870   44.0153 C   0  0  0  0  0  0  0  0  0  0  0  0
   57.9151   29.4624   44.9515 C   0  0  0  0  0  0  0  0  0  0  0  0
   58.3542   28.1467   45.1310 C   0  0  0  0  0  0  0  0  0  0  0  0
   57.9506   27.0516   44.4571 C   0  0  0  0  0  0  0  0  0  0  0  0
   59.2675   28.1803   46.1739 C   0  0  0  0  0  0  0  0  0  0  0  0
   59.3700   29.4981   46.5686 C   0  0  0  0  0  0  0  0  0  0  0  0
   58.5254   30.2766   45.8519 N   0  0  0  0  0  0  0  0  0  0  0  0
   58.3045   31.7142   46.0366 C   0  0  0  0  0  0  0  0  0  0  0  0
   57.6224   25.7630   45.0950 C   0  0  0  0  0  0  0  0  0  0  0  0
   58.4495   24.7029   45.0769 N   0  0  0  0  0  0  0  0  0  0  0  0
   57.8101   23.7926   45.8431 C   0  0  0  0  0  0  0  0  0  0  0  0
   58.2741   22.6436   46.0611 O   0  0  0  0  0  0  0  0  0  0  0  0
   56.6419   24.2160   46.3706 N   0  0  0  0  0  0  0  0  0  0  0  0
   56.5427   25.4694   45.8990 C   0  0  0  0  0  0  0  0  0  0  0  0
   55.5165   26.3399   46.2450 O   0  0  0  0  0  0  0  0  0  0  0  0
   60.3267   29.9668   47.5954 C   0  0  0  0  0  0  0  0  0  0  0  0
   61.3443   30.5985   47.1971 O   0  0  0  0  0  0  0  0  0  0  0  0
   60.1215   29.6991   49.0153 N   0  0  0  0  0  0  0  0  0  0  0  0
   58.9311   30.4004   49.5592 C   0  0  0  0  0  0  0  0  0  0  0  0
   59.1090   31.9241   49.5884 C   0  0  0  0  0  0  0  0  0  0  0  0
   60.3939   32.2714   50.2761 C   0  0  0  0  0  0  0  0  0  0  0  0
   60.4533   33.2383   51.0195 O   0  0  0  0  0  0  0  0  0  0  0  0
   61.6335   31.4949   49.9462 C   0  0  0  0  0  0  0  0  0  0  0  0
   61.3177   29.9899   49.8468 C   0  0  0  0  0  0  0  0  0  0  0  0
   60.9826   29.2245   49.0640 H   0  0  0  0  0  0  0  0  0  0  0  0
  1  2  2  0
  2  3  1  0
  3  4  2  0
  4  9  1  0
  9 10  1  0
 10 11  1  0
 11 12  2  0
 11 13  1  0
 13 14  1  0
 14 15  1  0
  3  5  1  0
  5  6  2  0
  6 16  1  0
 16 17  2  0
 16 18  1  0
 18 19  1  0
 19 20  1  0
 20 21  1  0
 21 22  2  0
 21 23  1  0
 23 24  1  0
  6  7  1  0
  7  8  1  0
  7  2  1  0
 14  9  2  0
 24 18  1  0
 18 25  1  0
M  CHG 1  10  -1
M  CHG 1  13  -1
M  CHG 1  15  -1
M  CHG 1  18   1
M  END
> <UniqueID>
53

> <SMILES>
C=c1/c(=C/c2[n-]c(=O)[n-]c2[O-])cc(C(=O)[NH+]2CCC(=O)CC2)n1C

> <Energy>
118.03894901822814

> <Genealogy>
C=c1c(=Cc2[n-]c(=O)[n-]c2[O-])cc(C(=O)[NH+]2CCC(=O)CC2)n1C (protonated)
C=c1/c(=C/c2[n-]c(=O)[n-]c2[O-])cc(C(=O)[NH+]2CCC(=O)CC2)n1C (cis-trans isomerization)
C=c1/c(=C/c2[n-]c(=O)[n-]c2[O-])cc(C(=O)[NH+]2CCC(=O)CC2)n1C (3D coordinates assigned)
C=c1/c(=C/c2[n-]c(=O)[n-]c2[O-])cc(C(=O)[NH+]2CCC(=O)CC2)n1C (nonaromatic ring conformer: 118.03894901822814 kcal/mol)

> <smiles>
C=c1c(=Cc2[nH]c(=O)[nH]c2O)cc(C(=O)N2CCC(=O)CC2)n1C

> <score_type>
oracle

> <origin>
adg

> <m_score__min__energy>
-15.300000000000001

> <m_primary>
energy

> <minimizedAffinity>
-6.65655

> <minimizedRMSD>
2.44585

> <CNNscore>
0.0960091576

> <CNNaffinity>
5.6173458099

> <CNN_VS>
0.5393166542

> <CNNaffinity_variance>
0.3352903426

$$$$
63:0


 33 36  0  0  0  0  0  0  0  0999 V2000
   59.3391   31.3880   46.5838 C   0  0  0  0  0  0  0  0  0  0  0  0
   59.0526   31.6521   45.2298 C   0  0  0  0  0  0  0  0  0  0  0  0
   58.1323   32.6389   44.8717 C   0  0  0  0  0  0  0  0  0  0  0  0
   57.4932   33.3894   45.8552 C   0  0  0  0  0  0  0  0  0  0  0  0
   57.7737   33.1568   47.2022 C   0  0  0  0  0  0  0  0  0  0  0  0
   58.6931   32.1667   47.5809 C   0  0  0  0  0  0  0  0  0  0  0  0
   58.9326   31.9800   49.0244 C   0  0  0  0  0  0  0  0  0  0  0  0
   58.5237   30.9207   49.5701 O   0  0  0  0  0  0  0  0  0  0  0  0
   59.5079   33.0319   49.8261 N   0  0  0  0  0  0  0  0  0  0  0  0
   59.4032   32.9797   51.2878 C   0  0  0  0  0  0  0  0  0  0  0  0
   60.2295   34.1403   49.1846 C   0  0  0  0  0  0  0  0  0  0  0  0
   61.6359   33.7305   48.8352 C   0  0  0  0  0  0  0  0  0  0  0  0
   62.0141   33.5796   47.4904 C   0  0  0  0  0  0  0  0  0  0  0  0
   63.3185   33.1983   47.1634 C   0  0  0  0  0  0  0  0  0  0  0  0
   64.2528   32.9620   48.1744 C   0  0  0  0  0  0  0  0  0  0  0  0
   63.8839   33.1023   49.5147 C   0  0  0  0  0  0  0  0  0  0  0  0
   62.5804   33.4820   49.8459 C   0  0  0  0  0  0  0  0  0  0  0  0
   60.3996   30.3505   46.9003 C   0  0  0  0  0  0  0  0  0  0  0  0
   59.2577   28.7275   44.6241 C   0  0  0  0  0  0  0  0  0  0  0  0
   59.3567   28.2646   45.8808 C   0  0  0  0  0  0  0  0  0  0  0  0
   58.9918   26.9864   46.3168 C   0  0  0  0  0  0  0  0  0  0  0  0
   58.4713   25.9869   45.5779 C   0  0  0  0  0  0  0  0  0  0  0  0
   59.3474   26.9153   47.6558 C   0  0  0  0  0  0  0  0  0  0  0  0
   59.8933   28.1388   47.9862 C   0  0  0  0  0  0  0  0  0  0  0  0
   60.5127   28.4533   49.3131 C   0  0  0  0  0  0  0  0  0  0  0  0
   59.8692   28.9766   46.9212 N   0  0  0  0  0  0  0  0  0  0  0  0
   57.5852   24.9408   46.1202 C   0  0  0  0  0  0  0  0  0  0  0  0
   57.9861   23.6777   46.3491 N   0  0  0  0  0  0  0  0  0  0  0  0
   56.8566   23.0589   46.7547 C   0  0  0  0  0  0  0  0  0  0  0  0
   56.8303   21.8428   47.0781 O   0  0  0  0  0  0  0  0  0  0  0  0
   55.7569   23.8401   46.7719 N   0  0  0  0  0  0  0  0  0  0  0  0
   56.2304   25.0256   46.3567 C   0  0  0  0  0  0  0  0  0  0  0  0
   55.4326   26.1448   46.1511 O   0  0  0  0  0  0  0  0  0  0  0  0
 19 20  2  0
 20 21  1  0
 21 22  2  0
 22 27  1  0
 27 28  1  0
 28 29  1  0
 29 30  2  0
 29 31  1  0
 31 32  1  0
 32 33  1  0
 21 23  1  0
 23 24  2  0
 24 25  1  0
 24 26  1  0
 26 18  1  0
 18  1  1  0
  1  2  2  0
  2  3  1  0
  3  4  2  0
  4  5  1  0
  5  6  2  0
  6  7  1  0
  7  8  2  0
  7  9  1  0
  9 10  1  0
  9 11  1  0
 11 12  1  0
 12 13  2  0
 13 14  1  0
 14 15  2  0
 15 16  1  0
 16 17  2  0
 26 20  1  0
  6  1  1  0
 17 12  1  0
 32 27  2  0
M  CHG 1  28  -1
M  CHG 1  31  -1
M  CHG 1  33  -1
M  END
> <UniqueID>
59

> <SMILES>
C=c1/c(=C/c2[n-]c(=O)[n-]c2[O-])cc(C)n1Cc1ccccc1C(=O)N(C)Cc1ccccc1

> <Energy>
127.09901445252198

> <Genealogy>
C=c1c(=Cc2[n-]c(=O)[n-]c2[O-])cc(C)n1Cc1ccccc1C(=O)N(C)Cc1ccccc1 (protonated)
C=c1/c(=C/c2[n-]c(=O)[n-]c2[O-])cc(C)n1Cc1ccccc1C(=O)N(C)Cc1ccccc1 (cis-trans isomerization)
C=c1/c(=C/c2[n-]c(=O)[n-]c2[O-])cc(C)n1Cc1ccccc1C(=O)N(C)Cc1ccccc1 (3D coordinates assigned)
C=c1/c(=C/c2[n-]c(=O)[n-]c2[O-])cc(C)n1Cc1ccccc1C(=O)N(C)Cc1ccccc1 (optimized conformer: 127.09901445252198 kcal/mol)

> <smiles>
C=c1c(=Cc2[nH]c(=O)[nH]c2O)cc(C)n1Cc1ccccc1C(=O)N(C)Cc1ccccc1

> <score_type>
oracle

> <origin>
adg

> <m_score__min__energy>
-18.010000000000002

> <m_primary>
energy

> <minimizedAffinity>
-8.83439

> <minimizedRMSD>
0.81525

> <CNNscore>
0.3411437869

> <CNNaffinity>
7.0131721497

> <CNN_VS>
2.3925001621

> <CNNaffinity_variance>
0.0490495674

$$$$
68:0


 29 31  0  0  0  0  0  0  0  0999 V2000
   54.9036   28.4011   54.6657 C   0  0  0  0  0  0  0  0  0  0  0  0
   55.2350   29.4591   53.9052 C   0  0  0  0  0  0  0  0  0  0  0  0
   54.4249   30.0705   52.9351 C   0  0  0  0  0  0  0  0  0  0  0  0
   53.1071   29.9540   52.6782 C   0  0  0  0  0  0  0  0  0  0  0  0
   55.2561   30.8984   52.2054 C   0  0  0  0  0  0  0  0  0  0  0  0
   56.4999   30.8433   52.7966 C   0  0  0  0  0  0  0  0  0  0  0  0
   56.4937   29.9752   53.8383 N   0  0  0  0  0  0  0  0  0  0  0  0
   52.4404   30.3456   51.4252 C   0  0  0  0  0  0  0  0  0  0  0  0
   52.3399   29.5657   50.3323 N   0  0  0  0  0  0  0  0  0  0  0  0
   51.5411   30.2829   49.5118 C   0  0  0  0  0  0  0  0  0  0  0  0
   51.2199   29.8846   48.3617 O   0  0  0  0  0  0  0  0  0  0  0  0
   51.1056   31.4544   50.0244 N   0  0  0  0  0  0  0  0  0  0  0  0
   51.6731   31.4691   51.2405 C   0  0  0  0  0  0  0  0  0  0  0  0
   51.4897   32.4889   52.1668 O   0  0  0  0  0  0  0  0  0  0  0  0
   57.6803   31.5542   52.2571 C   0  0  0  0  0  0  0  0  0  0  0  0
   57.6723   32.8147   52.3263 O   0  0  0  0  0  0  0  0  0  0  0  0
   58.7945   30.8670   51.6124 N   0  0  0  0  0  0  0  0  0  0  0  0
   60.1224   31.4405   51.9375 C   0  0  0  0  0  0  0  0  0  0  0  0
   60.3228   32.8383   51.3305 C   0  0  0  0  0  0  0  0  0  0  0  0
   59.9976   32.8424   49.8965 N   0  0  0  0  0  0  0  0  0  0  0  0
   60.6588   33.7928   49.0282 C   0  0  0  0  0  0  0  0  0  0  0  0
   60.1245   34.1278   47.6662 C   0  0  0  0  0  0  0  0  0  0  0  0
   61.7261   34.3507   49.4019 O   0  0  0  0  0  0  0  0  0  0  0  0
   58.7609   32.1700   49.4738 C   0  0  0  0  0  0  0  0  0  0  0  0
   58.6368   30.7931   50.1408 C   0  0  0  0  0  0  0  0  0  0  0  0
   58.5871   31.6587   51.0652 H   0  0  0  0  0  0  0  0  0  0  0  0
   57.6768   29.5196   54.5867 C   0  0  0  0  0  0  0  0  0  0  0  0
   58.2719   28.2692   53.9361 C   0  0  0  0  0  0  0  0  0  0  0  0
   59.7969   28.2898   53.9915 C   0  0  0  0  0  0  0  0  0  0  0  0
  1  2  2  0
  2  3  1  0
  3  4  2  0
  4  8  1  0
  8  9  1  0
  9 10  1  0
 10 11  2  0
 10 12  1  0
 12 13  1  0
 13 14  1  0
  3  5  1  0
  5  6  2  0
  6 15  1  0
 15 16  2  0
 15 17  1  0
 17 18  1  0
 18 19  1  0
 19 20  1  0
 20 21  1  0
 21 22  1  0
 21 23  2  0
 20 24  1  0
 24 25  1  0
  6  7  1  0
  7 27  1  0
 27 28  1  0
 28 29  1  0
  7  2  1  0
 13  8  2  0
 25 17  1  0
 17 26  1  0
M  CHG 1   9  -1
M  CHG 1  12  -1
M  CHG 1  14  -1
M  CHG 1  17   1
M  END
> <UniqueID>
64

> <SMILES>
C=c1c(=Cc2[n-]c(=O)[n-]c2[O-])cc(C(=O)[NH+]2CCN(C(C)=O)CC2)n1CCC

> <Energy>
128.81472799022222

> <Genealogy>
C=c1c(=Cc2[n-]c(=O)[n-]c2[O-])cc(C(=O)[NH+]2CCN(C(C)=O)CC2)n1CCC (protonated)
C=c1c(=Cc2[n-]c(=O)[n-]c2[O-])cc(C(=O)[NH+]2CCN(C(C)=O)CC2)n1CCC (3D coordinates assigned)
C=c1c(=Cc2[n-]c(=O)[n-]c2[O-])cc(C(=O)[NH+]2CCN(C(C)=O)CC2)n1CCC (nonaromatic ring conformer: 128.81472799022222 kcal/mol)

> <smiles>
C=c1c(=Cc2[nH]c(=O)[nH]c2O)cc(C(=O)N2CCN(C(C)=O)CC2)n1CCC

> <score_type>
oracle

> <origin>
adg

> <m_score__min__energy>
-15.24

> <m_primary>
energy

> <minimizedAffinity>
-5.54242

> <minimizedRMSD>
0.77685

> <CNNscore>
0.0989815369

> <CNNaffinity>
4.9101443291

> <CNN_VS>
0.4860136211

> <CNNaffinity_variance>
0.1947898865

$$$$
74:0


 30 33  0  0  0  0  0  0  0  0999 V2000
   59.4865   27.0324   47.1865 C   0  0  0  0  0  0  0  0  0  0  0  0
   58.9575   27.8700   46.2795 C   0  0  0  0  0  0  0  0  0  0  0  0
   58.1855   27.5281   45.1582 C   0  0  0  0  0  0  0  0  0  0  0  0
   57.9373   26.3326   44.5876 C   0  0  0  0  0  0  0  0  0  0  0  0
   57.6779   28.7153   44.6601 C   0  0  0  0  0  0  0  0  0  0  0  0
   58.1990   29.7329   45.4342 C   0  0  0  0  0  0  0  0  0  0  0  0
   58.9784   29.2214   46.4150 N   0  0  0  0  0  0  0  0  0  0  0  0
   57.4283   25.1400   45.2804 C   0  0  0  0  0  0  0  0  0  0  0  0
   58.1382   24.0092   45.4330 N   0  0  0  0  0  0  0  0  0  0  0  0
   57.3483   23.2479   46.2213 C   0  0  0  0  0  0  0  0  0  0  0  0
   57.6678   22.0852   46.5793 O   0  0  0  0  0  0  0  0  0  0  0  0
   56.1953   23.8353   46.6045 N   0  0  0  0  0  0  0  0  0  0  0  0
   56.2664   25.0381   46.0130 C   0  0  0  0  0  0  0  0  0  0  0  0
   55.3057   26.0312   46.1632 O   0  0  0  0  0  0  0  0  0  0  0  0
   59.7062   29.9739   47.4016 C   0  0  0  0  0  0  0  0  0  0  0  0
   60.9698   30.4996   47.1062 C   0  0  0  0  0  0  0  0  0  0  0  0
   61.6681   31.2340   48.0681 C   0  0  0  0  0  0  0  0  0  0  0  0
   61.0988   31.4630   49.3249 C   0  0  0  0  0  0  0  0  0  0  0  0
   59.8203   30.9640   49.6266 C   0  0  0  0  0  0  0  0  0  0  0  0
   59.1406   30.1987   48.6646 C   0  0  0  0  0  0  0  0  0  0  0  0
   59.2135   31.2227   50.9510 C   0  0  0  0  0  0  0  0  0  0  0  0
   58.2699   32.0551   51.0369 O   0  0  0  0  0  0  0  0  0  0  0  0
   59.6662   30.5402   52.1372 N   0  0  0  0  0  0  0  0  0  0  0  0
   59.7497   31.2482   53.4172 C   0  0  0  0  0  0  0  0  0  0  0  0
   59.2959   30.3216   54.5484 C   0  0  0  0  0  0  0  0  0  0  0  0
   59.9981   29.0926   54.5044 O   0  0  0  0  0  0  0  0  0  0  0  0
   59.6708   28.3943   53.3179 C   0  0  0  0  0  0  0  0  0  0  0  0
   60.1611   29.1600   52.0856 C   0  0  0  0  0  0  0  0  0  0  0  0
   57.9599   31.1967   45.1779 C   0  0  0  0  0  0  0  0  0  0  0  0
   57.7777   31.4698   43.6888 C   0  0  0  0  0  0  0  0  0  0  0  0
  1  2  2  0
  2  3  1  0
  3  4  2  0
  4  8  1  0
  8  9  1  0
  9 10  1  0
 10 11  2  0
 10 12  1  0
 12 13  1  0
 13 14  1  0
  3  5  1  0
  5  6  2  0
  6 29  1  0
 29 30  1  0
  6  7  1  0
  7 15  1  0
 15 16  2  0
 16 17  1  0
 17 18  2  0
 18 19  1  0
 19 21  1  0
 21 22  2  0
 21 23  1  0
 23 24  1  0
 24 25  1  0
 25 26  1  0
 26 27  1  0
 27 28  1  0
 19 20  2  0
  7  2  1  0
 20 15  1  0
 13  8  2  0
 28 23  1  0
M  CHG 1   9  -1
M  CHG 1  12  -1
M  CHG 1  14  -1
M  END
> <UniqueID>
70

> <SMILES>
C=c1c(=Cc2[n-]c(=O)[n-]c2[O-])cc(CC)n1-c1cccc(C(=O)N2CCOCC2)c1

> <Energy>
133.14690933354524

> <Genealogy>
C=c1c(=Cc2[n-]c(=O)[n-]c2[O-])cc(CC)n1-c1cccc(C(=O)N2CCOCC2)c1 (protonated)
C=c1c(=Cc2[n-]c(=O)[n-]c2[O-])cc(CC)n1-c1cccc(C(=O)N2CCOCC2)c1 (3D coordinates assigned)
C=c1c(=Cc2[n-]c(=O)[n-]c2[O-])cc(CC)n1-c1cccc(C(=O)N2CCOCC2)c1 (nonaromatic ring conformer: 133.14690933354524 kcal/mol)

> <smiles>
C=c1c(=Cc2[nH]c(=O)[nH]c2O)cc(CC)n1-c1cccc(C(=O)N2CCOCC2)c1

> <score_type>
oracle

> <origin>
adg

> <m_score__min__energy>
-17.059999999999999

> <m_primary>
energy

> <minimizedAffinity>
-8.19495

> <minimizedRMSD>
2.13703

> <CNNscore>
0.2469287515

> <CNNaffinity>
6.4944877625

> <CNN_VS>
1.6036757231

> <CNNaffinity_variance>
0.0549037009

$$$$
79:0


 33 36  0  0  0  0  0  0  0  0999 V2000
   59.7477   31.0397   50.5483 C   0  0  0  0  0  0  0  0  0  0  0  0
   60.7084   31.9030   51.1002 C   0  0  0  0  0  0  0  0  0  0  0  0
   61.5014   32.7003   50.2738 C   0  0  0  0  0  0  0  0  0  0  0  0
   61.3469   32.6643   48.8796 C   0  0  0  0  0  0  0  0  0  0  0  0
   60.4197   31.7583   48.3147 C   0  0  0  0  0  0  0  0  0  0  0  0
   59.6040   30.9890   49.1514 C   0  0  0  0  0  0  0  0  0  0  0  0
   58.5571   30.5964   52.7546 N   0  0  0  0  0  0  0  0  0  0  0  0
   58.8855   30.1975   51.4124 C   0  0  0  0  0  0  0  0  0  0  0  0
   58.4494   29.1003   50.9667 O   0  0  0  0  0  0  0  0  0  0  0  0
   58.9372   31.4330   53.1080 H   0  0  0  0  0  0  0  0  0  0  0  0
   57.6793   29.8034   53.6117 C   0  0  0  0  0  0  0  0  0  0  0  0
   53.5918   30.1309   52.2621 C   0  0  0  0  0  0  0  0  0  0  0  0
   54.5307   31.1079   51.9038 C   0  0  0  0  0  0  0  0  0  0  0  0
   55.8521   31.0094   52.3473 C   0  0  0  0  0  0  0  0  0  0  0  0
   56.2514   29.9335   53.1555 C   0  0  0  0  0  0  0  0  0  0  0  0
   55.3097   28.9551   53.5110 C   0  0  0  0  0  0  0  0  0  0  0  0
   53.9871   29.0553   53.0682 C   0  0  0  0  0  0  0  0  0  0  0  0
   51.3590   31.8570   51.8830 N   0  0  0  0  0  0  0  0  0  0  0  0
   51.9230   30.2339   51.7100 S   0  0  0  0  0  0  0  0  0  0  0  0
   51.8226   29.8311   50.2657 O   0  0  0  0  0  0  0  0  0  0  0  0
   51.0687   29.3135   52.5346 O   0  0  0  0  0  0  0  0  0  0  0  0
   50.3923   31.9169   51.5633 H   0  0  0  0  0  0  0  0  0  0  0  0
   62.1941   33.5766   48.0266 C   0  0  0  0  0  0  0  0  0  0  0  0
   63.6850   33.5826   48.3475 C   0  0  0  0  0  0  0  0  0  0  0  0
   63.1838   32.8652   47.1105 C   0  0  0  0  0  0  0  0  0  0  0  0
   60.2467   31.6334   46.8968 N   0  0  0  0  0  0  0  0  0  0  0  0
   59.7990   30.4411   46.2411 C   0  0  0  0  0  0  0  0  0  0  0  0
   60.5239   29.4109   46.2300 O   0  0  0  0  0  0  0  0  0  0  0  0
   58.4764   30.4128   45.6046 C   0  0  0  0  0  0  0  0  0  0  0  0
   57.7927   31.4710   45.0459 C   0  0  0  0  0  0  0  0  0  0  0  0
   56.6113   31.0263   44.5777 N   0  0  0  0  0  0  0  0  0  0  0  0
   56.5210   29.7258   44.8225 N   0  0  0  0  0  0  0  0  0  0  0  0
   57.6445   29.3268   45.4482 C   0  0  0  0  0  0  0  0  0  0  0  0
 18 19  1  0
 19 20  2  0
 19 21  2  0
 19 12  1  0
 12 13  2  0
 13 14  1  0
 14 15  2  0
 15 11  1  0
 11  7  1  0
  7  8  1  0
  8  9  2  0
  8  1  1  0
  1  2  2  0
  2  3  1  0
  3  4  2  0
  4 23  1  0
 23 24  1  0
 24 25  1  0
  4  5  1  0
  5 26  1  0
 26 27  1  0
 27 28  2  0
 27 29  1  0
 29 30  1  0
 30 31  2  0
 31 32  1  0
 32 33  1  0
  5  6  2  0
 15 16  1  0
 16 17  2  0
 17 12  1  0
  6  1  1  0
 25 23  1  0
 33 29  2  0
 18 22  1  0
  7 10  1  0
M  CHG 1  18  -1
M  CHG 1  26  -1
M  CHG 1  32  -1
M  END
> <UniqueID>
74

> <SMILES>
[NH-]S(=O)(=O)c1ccc(CNC(=O)c2ccc(C3CC3)c([N-]C(=O)c3cn[n-]c3)c2)cc1

> <Energy>
351.16348809240003

> <Genealogy>
[NH-]S(=O)(=O)c1ccc(CNC(=O)c2ccc(C3CC3)c([N-]C(=O)c3cn[n-]c3)c2)cc1 (protonated)
[NH-]S(=O)(=O)c1ccc(CNC(=O)c2ccc(C3CC3)c([N-]C(=O)c3cn[n-]c3)c2)cc1 (3D coordinates assigned)
[NH-]S(=O)(=O)c1ccc(CNC(=O)c2ccc(C3CC3)c([N-]C(=O)c3cn[n-]c3)c2)cc1 (nonaromatic ring conformer: 351.16348809240003 kcal/mol)

> <smiles>
NS(=O)(=O)c1ccc(CNC(=O)c2ccc(C3CC3)c(NC(=O)c3cn[nH]c3)c2)cc1

> <score_type>
oracle

> <origin>
adg

> <m_score__min__energy>
-14.210000000000001

> <m_primary>
energy

> <minimizedAffinity>
-7.37122

> <minimizedRMSD>
0.69754

> <CNNscore>
0.3219512403

> <CNNaffinity>
6.8709731102

> <CNN_VS>
2.2121183872

> <CNNaffinity_variance>
0.3962904513

$$$$
81:0


 33 36  0  0  0  0  0  0  0  0999 V2000
   58.2333   31.1861   45.4995 C   0  0  0  0  0  0  0  0  0  0  0  0
   57.8712   31.7612   44.2726 C   0  0  0  0  0  0  0  0  0  0  0  0
   58.0223   33.1340   44.0618 C   0  0  0  0  0  0  0  0  0  0  0  0
   58.5178   33.9492   45.0812 C   0  0  0  0  0  0  0  0  0  0  0  0
   58.8465   33.3986   46.3297 C   0  0  0  0  0  0  0  0  0  0  0  0
   58.7050   32.0158   46.5335 C   0  0  0  0  0  0  0  0  0  0  0  0
   59.0906   28.7975   45.4467 C   0  0  0  0  0  0  0  0  0  0  0  0
   60.1916   29.1600   44.9484 O   0  0  0  0  0  0  0  0  0  0  0  0
   58.0590   29.7732   45.6936 N   0  0  0  0  0  0  0  0  0  0  0  0
   57.1847   29.4531   46.0136 H   0  0  0  0  0  0  0  0  0  0  0  0
   57.4330   25.4141   45.9862 C   0  0  0  0  0  0  0  0  0  0  0  0
   58.5409   24.6333   46.3407 C   0  0  0  0  0  0  0  0  0  0  0  0
   59.8114   25.2070   46.4012 C   0  0  0  0  0  0  0  0  0  0  0  0
   59.9849   26.5619   46.1096 C   0  0  0  0  0  0  0  0  0  0  0  0
   58.8844   27.3645   45.7594 C   0  0  0  0  0  0  0  0  0  0  0  0
   57.6073   26.7737   45.6874 C   0  0  0  0  0  0  0  0  0  0  0  0
   54.6343   25.9303   45.8332 N   0  0  0  0  0  0  0  0  0  0  0  0
   55.8341   24.6863   45.8760 S   0  0  0  0  0  0  0  0  0  0  0  0
   55.7341   23.8534   44.6298 O   0  0  0  0  0  0  0  0  0  0  0  0
   55.5960   23.8006   47.0674 O   0  0  0  0  0  0  0  0  0  0  0  0
   53.7083   25.5076   45.7694 H   0  0  0  0  0  0  0  0  0  0  0  0
   59.3995   34.2762   47.4259 C   0  0  0  0  0  0  0  0  0  0  0  0
   59.9332   33.4808   48.5971 C   0  0  0  0  0  0  0  0  0  0  0  0
   59.1371   33.2600   49.6801 N   0  0  0  0  0  0  0  0  0  0  0  0
   59.5504   32.5569   50.7347 N   0  0  0  0  0  0  0  0  0  0  0  0
   60.7943   32.0198   50.7872 C   0  0  0  0  0  0  0  0  0  0  0  0
   61.1346   31.3441   51.7937 O   0  0  0  0  0  0  0  0  0  0  0  0
   61.6798   32.2249   49.7195 C   0  0  0  0  0  0  0  0  0  0  0  0
   61.2507   32.9709   48.6106 C   0  0  0  0  0  0  0  0  0  0  0  0
   62.2216   33.1437   47.4639 C   0  0  0  0  0  0  0  0  0  0  0  0
   63.6188   33.4978   47.9936 C   0  0  0  0  0  0  0  0  0  0  0  0
   64.1071   32.5947   49.1542 C   0  0  0  0  0  0  0  0  0  0  0  0
   63.0557   31.6036   49.6859 C   0  0  0  0  0  0  0  0  0  0  0  0
 17 18  1  0
 18 19  2  0
 18 20  2  0
 18 11  1  0
 11 12  2  0
 12 13  1  0
 13 14  2  0
 14 15  1  0
 15  7  1  0
  7  8  2  0
  7  9  1  0
  9  1  1  0
  1  2  2  0
  2  3  1  0
  3  4  2  0
  4  5  1  0
  5 22  1  0
 22 23  1  0
 23 24  2  0
 24 25  1  0
 25 26  1  0
 26 27  2  0
 26 28  1  0
 28 29  2  0
 29 30  1  0
 30 31  1  0
 31 32  1  0
 32 33  1  0
  5  6  2  0
 15 16  2  0
 16 11  1  0
  6  1  1  0
 29 23  1  0
 33 28  1  0
 17 21  1  0
  9 10  1  0
M  CHG 1  17  -1
M  CHG 1  25  -1
M  END
> <UniqueID>
76

> <SMILES>
[NH-]S(=O)(=O)c1cccc(C(=O)Nc2cccc(Cc3n[n-]c(=O)c4c3CCCC4)c2)c1

> <Energy>
70.07253376499655

> <Genealogy>
[NH-]S(=O)(=O)c1cccc(C(=O)Nc2cccc(Cc3n[n-]c(=O)c4c3CCCC4)c2)c1 (protonated)
[NH-]S(=O)(=O)c1cccc(C(=O)Nc2cccc(Cc3n[n-]c(=O)c4c3CCCC4)c2)c1 (3D coordinates assigned)
[NH-]S(=O)(=O)c1cccc(C(=O)Nc2cccc(Cc3n[n-]c(=O)c4c3CCCC4)c2)c1 (nonaromatic ring conformer: 70.07253376499655 kcal/mol)

> <smiles>
NS(=O)(=O)c1cccc(C(=O)Nc2cccc(Cc3n[nH]c(=O)c4c3CCCC4)c2)c1

> <score_type>
oracle

> <origin>
adg

> <m_score__min__energy>
-14.99

> <m_primary>
energy

> <minimizedAffinity>
-9.53563

> <minimizedRMSD>
0.94678

> <CNNscore>
0.5735812187

> <CNNaffinity>
7.0550103188

> <CNN_VS>
4.0466213226

> <CNNaffinity_variance>
0.1934371740

$$$$
83:0


 33 36  0  0  0  0  0  0  0  0999 V2000
   59.0626   34.0806   46.1643 C   0  0  0  0  0  0  0  0  0  0  0  0
   59.7943   35.1072   46.1369 O   0  0  0  0  0  0  0  0  0  0  0  0
   59.2440   33.0916   47.1878 N   0  0  0  0  0  0  0  0  0  0  0  0
   58.5335   32.4220   47.3143 H   0  0  0  0  0  0  0  0  0  0  0  0
   60.3992   33.0184   48.0393 C   0  0  0  0  0  0  0  0  0  0  0  0
   60.4703   33.7414   49.2430 C   0  0  0  0  0  0  0  0  0  0  0  0
   61.6233   33.6843   50.0343 C   0  0  0  0  0  0  0  0  0  0  0  0
   62.7181   32.9143   49.6299 C   0  0  0  0  0  0  0  0  0  0  0  0
   62.6534   32.1978   48.4283 C   0  0  0  0  0  0  0  0  0  0  0  0
   61.5051   32.2600   47.6342 C   0  0  0  0  0  0  0  0  0  0  0  0
   64.1600   32.8453   50.6415 S   0  0  0  0  0  0  0  0  0  0  0  0
   64.1468   34.0326   51.5602 O   0  0  0  0  0  0  0  0  0  0  0  0
   65.3890   32.9294   49.7817 O   0  0  0  0  0  0  0  0  0  0  0  0
   64.1848   31.3802   51.6035 N   0  0  0  0  0  0  0  0  0  0  0  0
   64.2845   31.6673   53.0450 C   0  0  0  0  0  0  0  0  0  0  0  0
   62.9593   32.2199   53.6241 C   0  0  0  0  0  0  0  0  0  0  0  0
   61.8258   31.9342   52.8237 O   0  0  0  0  0  0  0  0  0  0  0  0
   61.8991   30.6180   52.3219 C   0  0  0  0  0  0  0  0  0  0  0  0
   63.0352   30.5027   51.2889 C   0  0  0  0  0  0  0  0  0  0  0  0
   57.9187   33.9463   45.2002 C   0  0  0  0  0  0  0  0  0  0  0  0
   57.7874   32.1632   43.3877 C   0  0  0  0  0  0  0  0  0  0  0  0
   57.5200   30.5039   43.2956 S   0  0  0  0  0  0  0  0  0  0  0  0
   57.3763   30.3352   44.9583 C   0  0  0  0  0  0  0  0  0  0  0  0
   57.1157   29.2066   45.5482 N   0  0  0  0  0  0  0  0  0  0  0  0
   57.5077   31.5155   45.6041 N   0  0  0  0  0  0  0  0  0  0  0  0
   57.7511   32.5322   44.7323 C   0  0  0  0  0  0  0  0  0  0  0  0
   58.0736   28.1749   45.8307 C   0  0  0  0  0  0  0  0  0  0  0  0
   59.4246   28.5273   45.9428 C   0  0  0  0  0  0  0  0  0  0  0  0
   60.3866   27.5552   46.2323 C   0  0  0  0  0  0  0  0  0  0  0  0
   60.0031   26.2288   46.4304 C   0  0  0  0  0  0  0  0  0  0  0  0
   58.6561   25.8727   46.3570 C   0  0  0  0  0  0  0  0  0  0  0  0
   57.6869   26.8401   46.0752 C   0  0  0  0  0  0  0  0  0  0  0  0
   56.3472   26.4743   46.0719 O   0  0  0  0  0  0  0  0  0  0  0  0
 21 22  1  0
 22 23  1  0
 23 24  2  0
 24 27  1  0
 27 28  2  0
 28 29  1  0
 29 30  2  0
 30 31  1  0
 31 32  2  0
 32 33  1  0
 23 25  1  0
 25 26  1  0
 26 20  1  0
 20  1  1  0
  1  2  2  0
  1  3  1  0
  3  5  1  0
  5  6  2  0
  6  7  1  0
  7  8  2  0
  8 11  1  0
 11 12  2  0
 11 13  2  0
 11 14  1  0
 14 15  1  0
 15 16  1  0
 16 17  1  0
 17 18  1  0
 18 19  1  0
  8  9  1  0
  9 10  2  0
 26 21  2  0
 10  5  1  0
 32 27  1  0
 19 14  1  0
  3  4  1  0
M  CHG 1  25  -1
M  CHG 1  33  -1
M  END
> <UniqueID>
77

> <SMILES>
O=C(Cc1cs/c(=N/c2ccccc2[O-])[n-]1)Nc1ccc(S(=O)(=O)N2CCOCC2)cc1

> <Energy>
105.48334441247619

> <Genealogy>
O=C(Cc1csc(=Nc2ccccc2[O-])[n-]1)Nc1ccc(S(=O)(=O)N2CCOCC2)cc1 (protonated)
O=C(Cc1cs/c(=N/c2ccccc2[O-])[n-]1)Nc1ccc(S(=O)(=O)N2CCOCC2)cc1 (cis-trans isomerization)
O=C(Cc1cs/c(=N/c2ccccc2[O-])[n-]1)Nc1ccc(S(=O)(=O)N2CCOCC2)cc1 (3D coordinates assigned)
O=C(Cc1cs/c(=N/c2ccccc2[O-])[n-]1)Nc1ccc(S(=O)(=O)N2CCOCC2)cc1 (nonaromatic ring conformer: 105.48334441247619 kcal/mol)

> <smiles>
O=C(Cc1csc(=Nc2ccccc2O)[nH]1)Nc1ccc(S(=O)(=O)N2CCOCC2)cc1

> <score_type>
oracle

> <origin>
adg

> <m_score__min__energy>
-14.800000000000001

> <m_primary>
energy

> <minimizedAffinity>
-8.08813

> <minimizedRMSD>
2.67554

> <CNNscore>
0.3299585283

> <CNNaffinity>
6.6354479790

> <CNN_VS>
2.1894226074

> <CNNaffinity_variance>
0.0935967043

$$$$
12:0


 27 28  0  0  0  0  0  0  0  0999 V2000
   58.0064   31.9244   44.9211 C   0  0  0  0  0  0  0  0  0  0  0  0
   58.4840   31.4437   46.1512 C   0  0  0  0  0  0  0  0  0  0  0  0
   59.1282   32.3073   47.0417 C   0  0  0  0  0  0  0  0  0  0  0  0
   59.2923   33.6615   46.7295 C   0  0  0  0  0  0  0  0  0  0  0  0
   58.7858   34.1479   45.5083 C   0  0  0  0  0  0  0  0  0  0  0  0
   58.1415   33.2833   44.6177 C   0  0  0  0  0  0  0  0  0  0  0  0
   57.3122   31.0743   43.9979 N   0  0  0  0  0  0  0  0  0  0  0  0
   57.9142   28.6669   43.7490 N   0  0  0  0  0  0  0  0  0  0  0  0
   57.0131   29.6894   44.2016 C   0  0  0  0  0  0  0  0  0  0  0  0
   55.9188   29.3746   44.7374 O   0  0  0  0  0  0  0  0  0  0  0  0
   58.5990   28.8996   43.0810 H   0  0  0  0  0  0  0  0  0  0  0  0
   57.8515   27.2943   44.2436 C   0  0  0  0  0  0  0  0  0  0  0  0
   58.4897   27.2124   45.5928 C   0  0  0  0  0  0  0  0  0  0  0  0
   59.6846   27.5820   45.7482 O   0  0  0  0  0  0  0  0  0  0  0  0
   57.7304   26.7345   46.7065 N   0  0  0  0  0  0  0  0  0  0  0  0
   57.4276   25.3260   46.9100 C   0  0  0  0  0  0  0  0  0  0  0  0
   55.2101   25.7859   46.1605 O   0  0  0  0  0  0  0  0  0  0  0  0
   56.1751   24.9780   46.1820 C   0  0  0  0  0  0  0  0  0  0  0  0
   56.0481   23.7372   45.5700 O   0  0  0  0  0  0  0  0  0  0  0  0
   59.9553   34.4813   47.6567 O   0  0  0  0  0  0  0  0  0  0  0  0
   60.2233   34.1405   49.0171 C   0  0  0  0  0  0  0  0  0  0  0  0
   61.6596   33.7279   49.1950 C   0  0  0  0  0  0  0  0  0  0  0  0
   62.4597   33.4250   48.0794 C   0  0  0  0  0  0  0  0  0  0  0  0
   63.7960   33.0528   48.2520 C   0  0  0  0  0  0  0  0  0  0  0  0
   64.3471   32.9902   49.5347 C   0  0  0  0  0  0  0  0  0  0  0  0
   63.5611   33.3037   50.6487 C   0  0  0  0  0  0  0  0  0  0  0  0
   62.2240   33.6747   50.4811 C   0  0  0  0  0  0  0  0  0  0  0  0
 17 18  2  0
 18 19  1  0
 18 16  1  0
 16 15  1  0
 15 13  1  0
 13 14  2  0
 13 12  1  0
 12  8  1  0
  8  9  1  0
  9 10  2  0
  9  7  1  0
  7  1  1  0
  1  2  2  0
  2  3  1  0
  3  4  2  0
  4 20  1  0
 20 21  1  0
 21 22  1  0
 22 23  2  0
 23 24  1  0
 24 25  2  0
 25 26  1  0
 26 27  2  0
  4  5  1  0
  5  6  2  0
  6  1  1  0
 27 22  1  0
  8 11  1  0
M  CHG 1   7  -1
M  CHG 1  15  -1
M  CHG 1  19  -1
M  END
> <UniqueID>
13

> <SMILES>
O=C([O-])C[N-]C(=O)CNC(=O)[N-]c1ccc(OCc2ccccc2)cc1

> <Energy>
38.998248003351655

> <Genealogy>
O=C([O-])C[N-]C(=O)CNC(=O)[N-]c1ccc(OCc2ccccc2)cc1 (protonated)
O=C([O-])C[N-]C(=O)CNC(=O)[N-]c1ccc(OCc2ccccc2)cc1 (3D coordinates assigned)
O=C([O-])C[N-]C(=O)CNC(=O)[N-]c1ccc(OCc2ccccc2)cc1 (optimized conformer: 38.998248003351655 kcal/mol)

> <smiles>
O=C(O)CNC(=O)CNC(=O)Nc1ccc(OCc2ccccc2)cc1

> <score_type>
oracle

> <origin>
adg

> <m_score__min__energy>
-14.44

> <m_primary>
energy

> <minimizedAffinity>
-7.44355

> <minimizedRMSD>
0.71454

> <CNNscore>
0.8472603559

> <CNNaffinity>
6.7611618042

> <CNN_VS>
5.7284641266

> <CNNaffinity_variance>
0.2633171976

$$$$
27:0


 31 34  0  0  0  0  0  0  0  0999 V2000
   58.7128   30.5424   44.3760 C   0  0  0  0  0  0  0  0  0  0  0  0
   60.3104   26.5982   46.7474 C   0  0  0  0  0  0  0  0  0  0  0  0
   59.5019   27.3740   46.0047 C   0  0  0  0  0  0  0  0  0  0  0  0
   58.5658   26.9321   45.0580 C   0  0  0  0  0  0  0  0  0  0  0  0
   58.0575   25.7085   44.8189 C   0  0  0  0  0  0  0  0  0  0  0  0
   58.1954   28.0496   44.3335 C   0  0  0  0  0  0  0  0  0  0  0  0
   58.8332   29.1341   44.9037 C   0  0  0  0  0  0  0  0  0  0  0  0
   59.6124   28.7288   45.9388 N   0  0  0  0  0  0  0  0  0  0  0  0
   60.5176   29.5766   46.7264 C   0  0  0  0  0  0  0  0  0  0  0  0
   57.3080   24.8900   45.7884 C   0  0  0  0  0  0  0  0  0  0  0  0
   57.7928   23.7960   46.4050 N   0  0  0  0  0  0  0  0  0  0  0  0
   56.8167   23.4772   47.2832 C   0  0  0  0  0  0  0  0  0  0  0  0
   56.8944   22.4833   48.0516 O   0  0  0  0  0  0  0  0  0  0  0  0
   55.7560   24.3128   47.2809 N   0  0  0  0  0  0  0  0  0  0  0  0
   56.0913   25.2082   46.3372 C   0  0  0  0  0  0  0  0  0  0  0  0
   55.3036   26.2983   45.9917 O   0  0  0  0  0  0  0  0  0  0  0  0
   58.0210   31.4295   45.3760 C   0  0  0  0  0  0  0  0  0  0  0  0
   56.7760   31.2992   45.5353 O   0  0  0  0  0  0  0  0  0  0  0  0
   58.7511   32.3903   46.1701 N   0  0  0  0  0  0  0  0  0  0  0  0
   58.1387   32.9597   47.3820 C   0  0  0  0  0  0  0  0  0  0  0  0
   59.1656   33.0183   48.5199 C   0  0  0  0  0  0  0  0  0  0  0  0
   60.4733   33.5005   48.0480 N   0  0  0  0  0  0  0  0  0  0  0  0
   60.6205   33.9504   46.6590 C   0  0  0  0  0  0  0  0  0  0  0  0
   60.0691   32.8766   45.7206 C   0  0  0  0  0  0  0  0  0  0  0  0
   61.6170   33.4016   48.9169 C   0  0  0  0  0  0  0  0  0  0  0  0
   61.4787   33.5811   50.3024 C   0  0  0  0  0  0  0  0  0  0  0  0
   62.6071   33.5035   51.1230 C   0  0  0  0  0  0  0  0  0  0  0  0
   63.8310   33.2530   50.5847 N   0  0  0  0  0  0  0  0  0  0  0  0
   63.9930   33.0788   49.2443 C   0  0  0  0  0  0  0  0  0  0  0  0
   62.8929   33.1547   48.3876 C   0  0  0  0  0  0  0  0  0  0  0  0
   64.6157   33.1964   51.1766 H   0  0  0  0  0  0  0  0  0  0  0  0
  2  3  2  0
  3  4  1  0
  4  5  2  0
  5 10  1  0
 10 11  1  0
 11 12  1  0
 12 13  2  0
 12 14  1  0
 14 15  1  0
 15 16  1  0
  4  6  1  0
  6  7  2  0
  7  1  1  0
  1 17  1  0
 17 18  2  0
 17 19  1  0
 19 20  1  0
 20 21  1  0
 21 22  1  0
 22 25  1  0
 25 26  2  0
 26 27  1  0
 27 28  2  0
 28 29  1  0
 29 30  2  0
 22 23  1  0
 23 24  1  0
  7  8  1  0
  8  9  1  0
  8  3  1  0
 15 10  2  0
 24 19  1  0
 30 25  1  0
 28 31  1  0
M  CHG 1  11  -1
M  CHG 1  14  -1
M  CHG 1  16  -1
M  CHG 1  28   1
M  END
> <UniqueID>
28

> <SMILES>
C=c1c(=Cc2[n-]c(=O)[n-]c2[O-])cc(CC(=O)N2CCN(c3cc[nH+]cc3)CC2)n1C

> <Energy>
128.096151527623

> <Genealogy>
C=c1c(=Cc2[n-]c(=O)[n-]c2[O-])cc(CC(=O)N2CCN(c3cc[nH+]cc3)CC2)n1C (protonated)
C=c1c(=Cc2[n-]c(=O)[n-]c2[O-])cc(CC(=O)N2CCN(c3cc[nH+]cc3)CC2)n1C (3D coordinates assigned)
C=c1c(=Cc2[n-]c(=O)[n-]c2[O-])cc(CC(=O)N2CCN(c3cc[nH+]cc3)CC2)n1C (nonaromatic ring conformer: 128.096151527623 kcal/mol)

> <smiles>
C=c1c(=Cc2[nH]c(=O)[nH]c2O)cc(CC(=O)N2CCN(c3ccncc3)CC2)n1C

> <score_type>
oracle

> <origin>
adg

> <m_score__min__energy>
-17.440000000000001

> <m_primary>
energy

> <minimizedAffinity>
-7.74012

> <minimizedRMSD>
1.04151

> <CNNscore>
0.0691750422

> <CNNaffinity>
6.5765471458

> <CNN_VS>
0.4549329281

> <CNNaffinity_variance>
0.1741990000

$$$$
45:0


 27 29  0  0  0  0  0  0  0  0999 V2000
   54.9163   29.6565   55.6060 C   0  0  0  0  0  0  0  0  0  0  0  0
   55.3956   30.0375   54.4085 C   0  0  0  0  0  0  0  0  0  0  0  0
   54.6174   30.3752   53.2954 C   0  0  0  0  0  0  0  0  0  0  0  0
   53.2720   30.3805   53.2056 C   0  0  0  0  0  0  0  0  0  0  0  0
   55.5050   30.6321   52.2674 C   0  0  0  0  0  0  0  0  0  0  0  0
   56.7737   30.4501   52.7766 C   0  0  0  0  0  0  0  0  0  0  0  0
   56.7228   30.1270   54.0989 N   0  0  0  0  0  0  0  0  0  0  0  0
   52.5259   30.4613   51.9338 C   0  0  0  0  0  0  0  0  0  0  0  0
   51.6839   31.4820   51.5546 C   0  0  0  0  0  0  0  0  0  0  0  0
   51.3198   32.5667   52.3427 O   0  0  0  0  0  0  0  0  0  0  0  0
   51.2494   31.2955   50.2937 N   0  0  0  0  0  0  0  0  0  0  0  0
   51.8704   30.1518   49.9317 C   0  0  0  0  0  0  0  0  0  0  0  0
   51.7376   29.6349   48.7914 O   0  0  0  0  0  0  0  0  0  0  0  0
   52.6568   29.6241   50.8906 N   0  0  0  0  0  0  0  0  0  0  0  0
   53.2047   28.8077   50.8386 H   0  0  0  0  0  0  0  0  0  0  0  0
   57.8501   29.9639   55.0515 C   0  0  0  0  0  0  0  0  0  0  0  0
   57.8421   31.0720   56.1068 C   0  0  0  0  0  0  0  0  0  0  0  0
   57.9137   28.5636   55.6815 C   0  0  0  0  0  0  0  0  0  0  0  0
   57.9735   30.5182   51.9278 C   0  0  0  0  0  0  0  0  0  0  0  0
   58.5495   29.4461   51.6014 O   0  0  0  0  0  0  0  0  0  0  0  0
   58.5738   31.7928   51.6497 N   0  0  0  0  0  0  0  0  0  0  0  0
   58.9777   32.2826   50.5092 C   0  0  0  0  0  0  0  0  0  0  0  0
   59.8022   33.4153   50.5326 C   0  0  0  0  0  0  0  0  0  0  0  0
   60.2467   33.9796   49.3355 C   0  0  0  0  0  0  0  0  0  0  0  0
   59.8703   33.4404   48.1453 N   0  0  0  0  0  0  0  0  0  0  0  0
   59.0575   32.3535   48.0835 C   0  0  0  0  0  0  0  0  0  0  0  0
   58.5895   31.7564   49.2582 C   0  0  0  0  0  0  0  0  0  0  0  0
  1  2  2  0
  2  3  1  0
  3  4  2  0
  4  8  1  0
  8  9  2  0
  9 10  1  0
  9 11  1  0
 11 12  1  0
 12 13  2  0
 12 14  1  0
  3  5  1  0
  5  6  2  0
  6 19  1  0
 19 20  2  0
 19 21  1  0
 21 22  2  0
 22 23  1  0
 23 24  2  0
 24 25  1  0
 25 26  1  0
 26 27  2  0
  6  7  1  0
  7 16  1  0
 16 17  1  0
 16 18  1  0
  7  2  1  0
 14  8  1  0
 27 22  1  0
 14 15  1  0
M  CHG 1  10  -1
M  CHG 1  11  -1
M  CHG 1  25  -1
M  END
> <UniqueID>
45

> <SMILES>
C=c1/c(=C/c2[nH]c(=O)[n-]c2[O-])cc(C(=O)N=c2cc[n-]cc2)n1C(C)C

> <Energy>
123.92817076723072

> <Genealogy>
C=c1c(=Cc2[nH]c(=O)[n-]c2[O-])cc(C(=O)N=c2cc[n-]cc2)n1C(C)C (protonated)
C=c1/c(=C/c2[nH]c(=O)[n-]c2[O-])cc(C(=O)N=c2cc[n-]cc2)n1C(C)C (cis-trans isomerization)
C=c1/c(=C/c2[nH]c(=O)[n-]c2[O-])cc(C(=O)N=c2cc[n-]cc2)n1C(C)C (3D coordinates assigned)
C=c1/c(=C/c2[nH]c(=O)[n-]c2[O-])cc(C(=O)N=c2cc[n-]cc2)n1C(C)C (optimized conformer: 123.92817076723072 kcal/mol)

> <smiles>
C=c1c(=Cc2[nH]c(=O)[nH]c2O)cc(C(=O)N=c2cc[nH]cc2)n1C(C)C

> <score_type>
oracle

> <origin>
adg

> <m_score__min__energy>
-14.449999999999999

> <m_primary>
energy

> <minimizedAffinity>
-5.40355

> <minimizedRMSD>
0.89092

> <CNNscore>
0.2108969986

> <CNNaffinity>
5.2024598122

> <CNN_VS>
1.0971831083

> <CNNaffinity_variance>
0.1867112368

$$$$
48:0


 26 28  0  0  0  0  0  0  0  0999 V2000
   58.5981   30.0033   44.8721 C   0  0  0  0  0  0  0  0  0  0  0  0
   59.1420   29.8941   46.0945 C   0  0  0  0  0  0  0  0  0  0  0  0
   59.6752   28.7347   46.6830 C   0  0  0  0  0  0  0  0  0  0  0  0
   59.9760   27.5325   46.1573 C   0  0  0  0  0  0  0  0  0  0  0  0
   59.8804   29.0393   48.0174 C   0  0  0  0  0  0  0  0  0  0  0  0
   59.5257   30.3607   48.1859 C   0  0  0  0  0  0  0  0  0  0  0  0
   59.1049   30.8925   47.0149 N   0  0  0  0  0  0  0  0  0  0  0  0
   58.6453   32.2684   46.7999 C   0  0  0  0  0  0  0  0  0  0  0  0
   59.0296   26.4224   45.9594 C   0  0  0  0  0  0  0  0  0  0  0  0
   59.3380   25.1183   46.0892 N   0  0  0  0  0  0  0  0  0  0  0  0
   58.1446   24.5023   45.9581 C   0  0  0  0  0  0  0  0  0  0  0  0
   58.0194   23.2502   46.0065 O   0  0  0  0  0  0  0  0  0  0  0  0
   57.0929   25.3309   45.7813 N   0  0  0  0  0  0  0  0  0  0  0  0
   57.6709   26.5427   45.8007 C   0  0  0  0  0  0  0  0  0  0  0  0
   56.9685   27.7363   45.6802 O   0  0  0  0  0  0  0  0  0  0  0  0
   59.5681   31.0635   49.4833 C   0  0  0  0  0  0  0  0  0  0  0  0
   58.4750   31.3250   50.0563 O   0  0  0  0  0  0  0  0  0  0  0  0
   60.8115   31.4974   50.0887 N   0  0  0  0  0  0  0  0  0  0  0  0
   61.8983   31.1692   49.2861 O   0  0  0  0  0  0  0  0  0  0  0  0
   62.3125   31.9835   48.2293 C   0  0  0  0  0  0  0  0  0  0  0  0
   63.1943   31.5671   47.4304 O   0  0  0  0  0  0  0  0  0  0  0  0
   61.7428   33.2924   48.0787 N   0  0  0  0  0  0  0  0  0  0  0  0
   62.0221   34.0834   46.8813 C   0  0  0  0  0  0  0  0  0  0  0  0
   60.7609   33.7710   49.0570 C   0  0  0  0  0  0  0  0  0  0  0  0
   60.8087   32.9486   50.3582 C   0  0  0  0  0  0  0  0  0  0  0  0
   61.5357   31.3174   49.4465 H   0  0  0  0  0  0  0  0  0  0  0  0
  1  2  2  0
  2  3  1  0
  3  4  2  0
  4  9  1  0
  9 10  1  0
 10 11  1  0
 11 12  2  0
 11 13  1  0
 13 14  1  0
 14 15  1  0
  3  5  1  0
  5  6  2  0
  6 16  1  0
 16 17  2  0
 18 16  1  0
 18 19  1  0
 19 20  1  0
 20 21  2  0
 20 22  1  0
 22 23  1  0
 22 24  1  0
 24 25  1  0
  6  7  1  0
  7  8  1  0
  7  2  1  0
 14  9  2  0
 25 18  1  0
 18 26  1  0
M  CHG 1  10  -1
M  CHG 1  13  -1
M  CHG 1  15  -1
M  CHG 1  18   1
M  END
> <UniqueID>
48

> <SMILES>
C=c1/c(=C\c2[n-]c(=O)[n-]c2[O-])cc(C(=O)[N@@H+]2CCN(C)C(=O)O2)n1C

> <Energy>
117.9508448014919

> <Genealogy>
C=c1c(=Cc2[n-]c(=O)[n-]c2[O-])cc(C(=O)[NH+]2CCN(C)C(=O)O2)n1C (protonated)
C=c1c(=Cc2[n-]c(=O)[n-]c2[O-])cc(C(=O)[N@@H+]2CCN(C)C(=O)O2)n1C (chirality)
C=c1/c(=C\c2[n-]c(=O)[n-]c2[O-])cc(C(=O)[N@@H+]2CCN(C)C(=O)O2)n1C (cis-trans isomerization)
C=c1/c(=C\c2[n-]c(=O)[n-]c2[O-])cc(C(=O)[N@@H+]2CCN(C)C(=O)O2)n1C (3D coordinates assigned)
C=c1/c(=C\c2[n-]c(=O)[n-]c2[O-])cc(C(=O)[N@@H+]2CCN(C)C(=O)O2)n1C (nonaromatic ring conformer: 117.9508448014919 kcal/mol)

> <smiles>
C=c1c(=Cc2[nH]c(=O)[nH]c2O)cc(C(=O)N2CCN(C)C(=O)O2)n1C

> <score_type>
oracle

> <origin>
adg

> <m_score__min__energy>
-15.75

> <m_primary>
energy

> <minimizedAffinity>
-7.01076

> <minimizedRMSD>
1.74093

> <CNNscore>
0.0877218097

> <CNNaffinity>
5.5729694366

> <CNN_VS>
0.4888709784

> <CNNaffinity_variance>
0.7486749291

$$$$
58:0


 28 31  0  0  0  0  0  0  0  0999 V2000
   56.5590   29.9370   43.5461 C   0  0  0  0  0  0  0  0  0  0  0  0
   57.3644   29.3496   44.4315 C   0  0  0  0  0  0  0  0  0  0  0  0
   57.6182   28.0264   44.4382 N   0  0  0  0  0  0  0  0  0  0  0  0
   58.4878   27.8036   45.4505 C   0  0  0  0  0  0  0  0  0  0  0  0
   58.9699   26.6045   45.8114 C   0  0  0  0  0  0  0  0  0  0  0  0
   58.7809   28.9889   46.1042 C   0  0  0  0  0  0  0  0  0  0  0  0
   58.0630   29.9745   45.4550 C   0  0  0  0  0  0  0  0  0  0  0  0
   57.2438   27.3527   43.8257 H   0  0  0  0  0  0  0  0  0  0  0  0
   58.1443   25.3926   45.9533 C   0  0  0  0  0  0  0  0  0  0  0  0
   58.6348   24.1482   45.8183 N   0  0  0  0  0  0  0  0  0  0  0  0
   57.5407   23.3658   45.9347 C   0  0  0  0  0  0  0  0  0  0  0  0
   57.5956   22.1093   45.8751 O   0  0  0  0  0  0  0  0  0  0  0  0
   56.3809   24.0348   46.1091 N   0  0  0  0  0  0  0  0  0  0  0  0
   56.7785   25.3165   46.1050 C   0  0  0  0  0  0  0  0  0  0  0  0
   55.9024   26.3918   46.1926 O   0  0  0  0  0  0  0  0  0  0  0  0
   58.0756   31.4079   45.8158 C   0  0  0  0  0  0  0  0  0  0  0  0
   57.2034   32.1498   45.2886 O   0  0  0  0  0  0  0  0  0  0  0  0
   59.0987   32.0029   46.6614 N   0  0  0  0  0  0  0  0  0  0  0  0
   59.4408   33.3566   46.1612 C   0  0  0  0  0  0  0  0  0  0  0  0
   60.2628   34.1730   47.1815 C   0  0  0  0  0  0  0  0  0  0  0  0
   60.9225   33.2751   48.1457 N   0  0  0  0  0  0  0  0  0  0  0  0
   59.9079   32.5617   48.9543 C   0  0  0  0  0  0  0  0  0  0  0  0
   58.7314   32.0484   48.0929 C   0  0  0  0  0  0  0  0  0  0  0  0
   58.9974   32.6931   47.3561 H   0  0  0  0  0  0  0  0  0  0  0  0
   61.8514   34.0361   49.0039 C   0  0  0  0  0  0  0  0  0  0  0  0
   63.3092   33.7026   48.6516 C   0  0  0  0  0  0  0  0  0  0  0  0
   63.8774   32.5087   49.4056 C   0  0  0  0  0  0  0  0  0  0  0  0
   63.5414   32.3845   47.9271 C   0  0  0  0  0  0  0  0  0  0  0  0
  1  2  2  0
  2  3  1  0
  3  4  1  0
  4  5  2  0
  5  9  1  0
  9 10  1  0
 10 11  1  0
 11 12  2  0
 11 13  1  0
 13 14  1  0
 14 15  1  0
  4  6  1  0
  6  7  2  0
  7 16  1  0
 16 17  2  0
 16 18  1  0
 18 19  1  0
 19 20  1  0
 20 21  1  0
 21 25  1  0
 25 26  1  0
 26 27  1  0
 27 28  1  0
 21 22  1  0
 22 23  1  0
  7  2  1  0
 23 18  1  0
 14  9  2  0
 28 26  1  0
  3  8  1  0
 18 24  1  0
M  CHG 1  10  -1
M  CHG 1  13  -1
M  CHG 1  15  -1
M  CHG 1  18   1
M  END
> <UniqueID>
58

> <SMILES>
C=c1[nH]c(=Cc2[n-]c(=O)[n-]c2[O-])cc1C(=O)[NH+]1CCN(CC2CC2)CC1

> <Energy>
393.8098263455442

> <Genealogy>
C=c1[nH]c(=Cc2[n-]c(=O)[n-]c2[O-])cc1C(=O)[NH+]1CCN(CC2CC2)CC1 (protonated)
C=c1[nH]c(=Cc2[n-]c(=O)[n-]c2[O-])cc1C(=O)[NH+]1CCN(CC2CC2)CC1 (3D coordinates assigned)
C=c1[nH]c(=Cc2[n-]c(=O)[n-]c2[O-])cc1C(=O)[NH+]1CCN(CC2CC2)CC1 (nonaromatic ring conformer: 393.8098263455442 kcal/mol)

> <smiles>
C=c1[nH]c(=Cc2[nH]c(=O)[nH]c2O)cc1C(=O)N1CCN(CC2CC2)CC1

> <score_type>
oracle

> <origin>
adg

> <m_score__min__energy>
-16.420000000000002

> <m_primary>
energy

> <minimizedAffinity>
-8.25953

> <minimizedRMSD>
1.06127

> <CNNscore>
0.1376459301

> <CNNaffinity>
6.1470513344

> <CNN_VS>
0.8461166024

> <CNNaffinity_variance>
0.1967934370

$$$$
63:0


 25 27  0  0  0  0  0  0  0  0999 V2000
   60.3790   26.7579   46.5847 C   0  0  0  0  0  0  0  0  0  0  0  0
   59.4142   27.4322   45.9382 C   0  0  0  0  0  0  0  0  0  0  0  0
   58.3797   26.8908   45.1587 C   0  0  0  0  0  0  0  0  0  0  0  0
   57.9746   25.6172   44.9840 C   0  0  0  0  0  0  0  0  0  0  0  0
   57.7534   27.9630   44.5482 C   0  0  0  0  0  0  0  0  0  0  0  0
   58.3578   29.1063   45.0263 C   0  0  0  0  0  0  0  0  0  0  0  0
   59.3805   28.7891   45.8560 N   0  0  0  0  0  0  0  0  0  0  0  0
   60.3372   29.7233   46.4621 C   0  0  0  0  0  0  0  0  0  0  0  0
   57.2699   24.7972   45.9805 C   0  0  0  0  0  0  0  0  0  0  0  0
   57.7586   23.6475   46.4763 N   0  0  0  0  0  0  0  0  0  0  0  0
   56.7432   23.1793   47.2355 C   0  0  0  0  0  0  0  0  0  0  0  0
   56.8271   22.1084   47.8910 O   0  0  0  0  0  0  0  0  0  0  0  0
   55.6297   23.9427   47.2285 N   0  0  0  0  0  0  0  0  0  0  0  0
   55.9729   24.9545   46.4159 C   0  0  0  0  0  0  0  0  0  0  0  0
   55.1114   25.9858   46.0607 O   0  0  0  0  0  0  0  0  0  0  0  0
   57.9109   30.4734   44.6831 C   0  0  0  0  0  0  0  0  0  0  0  0
   57.8390   30.8001   43.4686 O   0  0  0  0  0  0  0  0  0  0  0  0
   57.5629   31.4470   45.6807 N   0  0  0  0  0  0  0  0  0  0  0  0
   58.2138   32.5390   45.9660 C   0  0  0  0  0  0  0  0  0  0  0  0
   58.3754   33.5287   45.0417 N   0  0  0  0  0  0  0  0  0  0  0  0
   59.0616   34.6689   45.3191 C   0  0  0  0  0  0  0  0  0  0  0  0
   59.6321   34.8525   46.5785 C   0  0  0  0  0  0  0  0  0  0  0  0
   59.4818   33.8581   47.5549 C   0  0  0  0  0  0  0  0  0  0  0  0
   60.1230   34.0158   48.9017 C   0  0  0  0  0  0  0  0  0  0  0  0
   58.7821   32.6851   47.2368 C   0  0  0  0  0  0  0  0  0  0  0  0
  1  2  2  0
  2  3  1  0
  3  4  2  0
  4  9  1  0
  9 10  1  0
 10 11  1  0
 11 12  2  0
 11 13  1  0
 13 14  1  0
 14 15  1  0
  3  5  1  0
  5  6  2  0
  6 16  1  0
 16 17  2  0
 16 18  1  0
 18 19  2  0
 19 20  1  0
 20 21  1  0
 21 22  2  0
 22 23  1  0
 23 24  1  0
 23 25  2  0
  6  7  1  0
  7  8  1  0
  7  2  1  0
 14  9  2  0
 25 19  1  0
M  CHG 1  10  -1
M  CHG 1  13  -1
M  CHG 1  15  -1
M  CHG 1  20  -1
M  END
> <UniqueID>
62

> <SMILES>
C=c1/c(=C\c2[n-]c(=O)[n-]c2[O-])cc(C(=O)N=c2cc(C)cc[n-]2)n1C

> <Energy>
118.77101779454664

> <Genealogy>
C=c1c(=Cc2[n-]c(=O)[n-]c2[O-])cc(C(=O)N=c2cc(C)cc[n-]2)n1C (protonated)
C=c1/c(=C\c2[n-]c(=O)[n-]c2[O-])cc(C(=O)N=c2cc(C)cc[n-]2)n1C (cis-trans isomerization)
C=c1/c(=C\c2[n-]c(=O)[n-]c2[O-])cc(C(=O)N=c2cc(C)cc[n-]2)n1C (3D coordinates assigned)
C=c1/c(=C\c2[n-]c(=O)[n-]c2[O-])cc(C(=O)N=c2cc(C)cc[n-]2)n1C (optimized conformer: 118.77101779454664 kcal/mol)

> <smiles>
C=c1c(=Cc2[nH]c(=O)[nH]c2O)cc(C(=O)N=c2cc(C)cc[nH]2)n1C

> <score_type>
oracle

> <origin>
adg

> <m_score__min__energy>
-17.699999999999999

> <m_primary>
energy

> <minimizedAffinity>
-9.15779

> <minimizedRMSD>
0.91765

> <CNNscore>
0.4718665183

> <CNNaffinity>
6.8264012337

> <CNN_VS>
3.2211501598

> <CNNaffinity_variance>
0.0598528199

$$$$
70:0


 25 27  0  0  0  0  0  0  0  0999 V2000
   58.1292   21.8752   45.1418 C   0  0  0  0  0  0  0  0  0  0  0  0
   58.4407   23.1682   45.2536 C   0  0  0  0  0  0  0  0  0  0  0  0
   59.5027   23.5765   45.9071 O   0  0  0  0  0  0  0  0  0  0  0  0
   59.5704   24.8845   45.8430 C   0  0  0  0  0  0  0  0  0  0  0  0
   58.5108   25.3773   45.1041 C   0  0  0  0  0  0  0  0  0  0  0  0
   57.7375   24.2658   44.7473 C   0  0  0  0  0  0  0  0  0  0  0  0
   56.5439   24.2228   44.1182 C   0  0  0  0  0  0  0  0  0  0  0  0
   55.2528   23.9508   44.7760 C   0  0  0  0  0  0  0  0  0  0  0  0
   54.4414   22.9157   44.4929 N   0  0  0  0  0  0  0  0  0  0  0  0
   53.3642   23.1403   45.2748 C   0  0  0  0  0  0  0  0  0  0  0  0
   52.3737   22.3644   45.3022 O   0  0  0  0  0  0  0  0  0  0  0  0
   53.4295   24.2625   46.0226 N   0  0  0  0  0  0  0  0  0  0  0  0
   54.6265   24.7679   45.6857 C   0  0  0  0  0  0  0  0  0  0  0  0
   55.1377   25.9528   46.2004 O   0  0  0  0  0  0  0  0  0  0  0  0
   58.4792   26.7613   44.5851 C   0  0  0  0  0  0  0  0  0  0  0  0
   57.6793   27.0446   43.6544 O   0  0  0  0  0  0  0  0  0  0  0  0
   59.2648   27.8716   45.2277 C   0  0  0  0  0  0  0  0  0  0  0  0
   58.4017   28.5315   46.6969 S   0  0  0  0  0  0  0  0  0  0  0  0
   58.5656   30.2546   46.2142 C   0  0  0  0  0  0  0  0  0  0  0  0
   57.8799   30.7314   45.0918 C   0  0  0  0  0  0  0  0  0  0  0  0
   57.9532   32.0854   44.7485 C   0  0  0  0  0  0  0  0  0  0  0  0
   58.7129   32.9718   45.5277 C   0  0  0  0  0  0  0  0  0  0  0  0
   58.7967   34.4214   45.1539 C   0  0  0  0  0  0  0  0  0  0  0  0
   59.4395   32.4782   46.6219 C   0  0  0  0  0  0  0  0  0  0  0  0
   59.3684   31.1238   46.9610 C   0  0  0  0  0  0  0  0  0  0  0  0
  1  2  2  0
  2  3  1  0
  3  4  1  0
  4  5  2  0
  5 15  1  0
 15 16  2  0
 15 17  1  0
 17 18  1  0
 18 19  1  0
 19 20  2  0
 20 21  1  0
 21 22  2  0
 22 23  1  0
 22 24  1  0
 24 25  2  0
  5  6  1  0
  6  7  2  0
  7  8  1  0
  8  9  1  0
  9 10  1  0
 10 11  2  0
 10 12  1  0
 12 13  1  0
 13 14  1  0
  6  2  1  0
 13  8  2  0
 25 19  1  0
M  CHG 1   9  -1
M  CHG 1  12  -1
M  CHG 1  14  -1
M  END
> <UniqueID>
69

> <SMILES>
C=c1occ(C(=O)CSc2ccc(C)cc2)c1=Cc1[n-]c(=O)[n-]c1[O-]

> <Energy>
102.99069977478825

> <Genealogy>
C=c1occ(C(=O)CSc2ccc(C)cc2)c1=Cc1[n-]c(=O)[n-]c1[O-] (protonated)
C=c1occ(C(=O)CSc2ccc(C)cc2)c1=Cc1[n-]c(=O)[n-]c1[O-] (3D coordinates assigned)
C=c1occ(C(=O)CSc2ccc(C)cc2)c1=Cc1[n-]c(=O)[n-]c1[O-] (optimized conformer: 102.99069977478825 kcal/mol)

> <smiles>
C=c1occ(C(=O)CSc2ccc(C)cc2)c1=Cc1[nH]c(=O)[nH]c1O

> <score_type>
oracle

> <origin>
adg

> <m_score__min__energy>
-16.850000000000001

> <m_primary>
energy

> <minimizedAffinity>
-5.60402

> <minimizedRMSD>
1.82437

> <CNNscore>
0.1406299323

> <CNNaffinity>
5.8418622017

> <CNN_VS>
0.8215407133

> <CNNaffinity_variance>
0.0012992403

$$$$
87:0


 34 38  0  0  0  0  0  0  0  0999 V2000
   57.2563   29.5382   55.2021 C   0  0  0  0  0  0  0  0  0  0  0  0
   57.0509   30.5622   54.3647 C   0  0  0  0  0  0  0  0  0  0  0  0
   57.7490   30.7167   53.0651 C   0  0  0  0  0  0  0  0  0  0  0  0
   57.5639   31.9035   52.3375 C   0  0  0  0  0  0  0  0  0  0  0  0
   58.2110   32.0967   51.1147 C   0  0  0  0  0  0  0  0  0  0  0  0
   59.0667   31.1117   50.5999 C   0  0  0  0  0  0  0  0  0  0  0  0
   59.2640   29.9290   51.3273 C   0  0  0  0  0  0  0  0  0  0  0  0
   58.6178   29.7327   52.5507 C   0  0  0  0  0  0  0  0  0  0  0  0
   59.7275   31.3102   49.3386 N   0  0  0  0  0  0  0  0  0  0  0  0
   61.1842   31.4579   49.2648 C   0  0  0  0  0  0  0  0  0  0  0  0
   61.5095   32.6650   48.3776 C   0  0  0  0  0  0  0  0  0  0  0  0
   60.9231   32.5753   47.0056 N   0  0  0  0  0  0  0  0  0  0  0  0
   59.8544   31.5385   46.8829 C   0  0  0  0  0  0  0  0  0  0  0  0
   58.9359   31.4739   48.1133 C   0  0  0  0  0  0  0  0  0  0  0  0
   61.6055   32.2076   46.3427 H   0  0  0  0  0  0  0  0  0  0  0  0
   60.5974   33.9588   46.5418 C   0  0  0  0  0  0  0  0  0  0  0  0
   59.3008   34.6491   46.9664 C   0  0  0  0  0  0  0  0  0  0  0  0
   59.4214   34.0418   45.5740 C   0  0  0  0  0  0  0  0  0  0  0  0
   56.7214   28.1665   54.9085 C   0  0  0  0  0  0  0  0  0  0  0  0
   52.2266   26.8856   53.7231 C   0  0  0  0  0  0  0  0  0  0  0  0
   53.2266   27.6553   54.1682 C   0  0  0  0  0  0  0  0  0  0  0  0
   53.1482   28.9831   54.6040 C   0  0  0  0  0  0  0  0  0  0  0  0
   52.0379   29.7481   54.6676 C   0  0  0  0  0  0  0  0  0  0  0  0
   54.4485   29.3405   54.9565 C   0  0  0  0  0  0  0  0  0  0  0  0
   55.2353   28.2289   54.7295 C   0  0  0  0  0  0  0  0  0  0  0  0
   54.4979   27.2139   54.2438 N   0  0  0  0  0  0  0  0  0  0  0  0
   54.8243   26.3200   53.9918 H   0  0  0  0  0  0  0  0  0  0  0  0
   51.6246   30.7592   53.6693 C   0  0  0  0  0  0  0  0  0  0  0  0
   52.0278   30.8194   52.3879 N   0  0  0  0  0  0  0  0  0  0  0  0
   51.3631   31.8871   51.8947 C   0  0  0  0  0  0  0  0  0  0  0  0
   51.4836   32.2686   50.7018 O   0  0  0  0  0  0  0  0  0  0  0  0
   50.5592   32.5102   52.7818 N   0  0  0  0  0  0  0  0  0  0  0  0
   50.7342   31.7828   53.8965 C   0  0  0  0  0  0  0  0  0  0  0  0
   50.0915   32.0511   55.0982 O   0  0  0  0  0  0  0  0  0  0  0  0
 20 21  2  0
 21 22  1  0
 22 23  2  0
 23 28  1  0
 28 29  1  0
 29 30  1  0
 30 31  2  0
 30 32  1  0
 32 33  1  0
 33 34  1  0
 22 24  1  0
 24 25  2  0
 25 19  1  0
 19  1  1  0
  1  2  2  0
  2  3  1  0
  3  4  2  0
  4  5  1  0
  5  6  2  0
  6  9  1  0
  9 10  1  0
 10 11  1  0
 11 12  1  0
 12 16  1  0
 16 17  1  0
 17 18  1  0
 12 13  1  0
 13 14  1  0
  6  7  1  0
  7  8  2  0
 25 26  1  0
 26 21  1  0
 33 28  2  0
  8  3  1  0
 14  9  1  0
 18 16  1  0
 12 15  1  0
 26 27  1  0
M  CHG 1  12   1
M  CHG 1  29  -1
M  CHG 1  32  -1
M  CHG 1  34  -1
M  END
> <UniqueID>
86

> <SMILES>
C=c1[nH]c(C/C=C/c2ccc(N3CC[NH+](C4CC4)CC3)cc2)c/c1=C\c1[n-]c(=O)[n-]c1[O-]

> <Energy>
411.72898011700914

> <Genealogy>
C=c1[nH]c(CC=Cc2ccc(N3CC[NH+](C4CC4)CC3)cc2)cc1=Cc1[n-]c(=O)[n-]c1[O-] (protonated)
C=c1[nH]c(C/C=C/c2ccc(N3CC[NH+](C4CC4)CC3)cc2)c/c1=C\c1[n-]c(=O)[n-]c1[O-] (cis-trans isomerization)
C=c1[nH]c(C/C=C/c2ccc(N3CC[NH+](C4CC4)CC3)cc2)c/c1=C\c1[n-]c(=O)[n-]c1[O-] (3D coordinates assigned)
C=c1[nH]c(C/C=C/c2ccc(N3CC[NH+](C4CC4)CC3)cc2)c/c1=C\c1[n-]c(=O)[n-]c1[O-] (nonaromatic ring conformer: 411.72898011700914 kcal/mol)

> <smiles>
C=c1[nH]c(CC=Cc2ccc(N3CCN(C4CC4)CC3)cc2)cc1=Cc1[nH]c(=O)[nH]c1O

> <score_type>
oracle

> <origin>
adg

> <m_score__min__energy>
-15.92

> <m_primary>
energy

> <minimizedAffinity>
-7.16937

> <minimizedRMSD>
2.30192

> <CNNscore>
0.0889069214

> <CNNaffinity>
5.2612462044

> <CNN_VS>
0.4677611887

> <CNNaffinity_variance>
0.4726888835

$$$$
10:0


 23 25  0  0  0  0  0  0  0  0999 V2000
   54.1138   29.7603   55.8617 C   0  0  0  0  0  0  0  0  0  0  0  0
   54.7199   30.0175   54.6913 C   0  0  0  0  0  0  0  0  0  0  0  0
   54.1150   30.1117   53.4272 C   0  0  0  0  0  0  0  0  0  0  0  0
   52.8176   30.1800   53.0697 C   0  0  0  0  0  0  0  0  0  0  0  0
   55.1481   30.1491   52.5065 C   0  0  0  0  0  0  0  0  0  0  0  0
   56.3247   30.1298   53.2232 C   0  0  0  0  0  0  0  0  0  0  0  0
   56.0685   30.0781   54.5518 N   0  0  0  0  0  0  0  0  0  0  0  0
   57.0567   30.0987   55.6364 C   0  0  0  0  0  0  0  0  0  0  0  0
   57.6637   30.1752   52.6056 C   0  0  0  0  0  0  0  0  0  0  0  0
   58.3762   29.1359   52.6328 O   0  0  0  0  0  0  0  0  0  0  0  0
   58.1876   31.3861   52.0260 N   0  0  0  0  0  0  0  0  0  0  0  0
   57.7117   32.7072   52.4518 C   0  0  0  0  0  0  0  0  0  0  0  0
   58.8852   33.6906   52.4757 C   0  0  0  0  0  0  0  0  0  0  0  0
   59.5671   33.6875   51.2351 O   0  0  0  0  0  0  0  0  0  0  0  0
   60.1705   32.4244   51.0235 C   0  0  0  0  0  0  0  0  0  0  0  0
   59.1078   31.3293   50.8855 C   0  0  0  0  0  0  0  0  0  0  0  0
   52.3154   30.4690   51.7158 C   0  0  0  0  0  0  0  0  0  0  0  0
   52.3466   29.6033   50.6851 N   0  0  0  0  0  0  0  0  0  0  0  0
   51.6578   30.2460   49.7165 C   0  0  0  0  0  0  0  0  0  0  0  0
   51.4796   29.7554   48.5729 O   0  0  0  0  0  0  0  0  0  0  0  0
   51.1665   31.4514   50.0763 N   0  0  0  0  0  0  0  0  0  0  0  0
   51.5784   31.5676   51.3493 C   0  0  0  0  0  0  0  0  0  0  0  0
   51.2840   32.6567   52.1606 O   0  0  0  0  0  0  0  0  0  0  0  0
  1  2  2  0
  2  3  1  0
  3  4  2  0
  4 17  1  0
 17 18  1  0
 18 19  1  0
 19 20  2  0
 19 21  1  0
 21 22  1  0
 22 23  1  0
  3  5  1  0
  5  6  2  0
  6  9  1  0
  9 10  2  0
  9 11  1  0
 11 12  1  0
 12 13  1  0
 13 14  1  0
 14 15  1  0
 15 16  1  0
  6  7  1  0
  7  8  1  0
  7  2  1  0
 22 17  2  0
 16 11  1  0
M  CHG 1  18  -1
M  CHG 1  21  -1
M  CHG 1  23  -1
M  END
> <UniqueID>
11

> <SMILES>
C=c1/c(=C\c2[n-]c(=O)[n-]c2[O-])cc(C(=O)N2CCOCC2)n1C

> <Energy>
115.82229204998531

> <Genealogy>
C=c1c(=Cc2[n-]c(=O)[n-]c2[O-])cc(C(=O)N2CCOCC2)n1C (protonated)
C=c1/c(=C\c2[n-]c(=O)[n-]c2[O-])cc(C(=O)N2CCOCC2)n1C (cis-trans isomerization)
C=c1/c(=C\c2[n-]c(=O)[n-]c2[O-])cc(C(=O)N2CCOCC2)n1C (3D coordinates assigned)
C=c1/c(=C\c2[n-]c(=O)[n-]c2[O-])cc(C(=O)N2CCOCC2)n1C (nonaromatic ring conformer: 115.82229204998531 kcal/mol)

> <smiles>
C=c1c(=Cc2[nH]c(=O)[nH]c2O)cc(C(=O)N2CCOCC2)n1C

> <score_type>
oracle

> <origin>
adg

> <m_score__min__energy>
-16.77

> <m_primary>
energy

> <minimizedAffinity>
-4.91298

> <minimizedRMSD>
0.96431

> <CNNscore>
0.1084654406

> <CNNaffinity>
4.1300997734

> <CNN_VS>
0.4479731023

> <CNNaffinity_variance>
0.3378635347

$$$$
13:0


 24 25  0  0  0  0  0  0  0  0999 V2000
   58.9640   31.4792   47.5605 C   0  0  0  0  0  0  0  0  0  0  0  0
   58.9697   30.4428   46.6495 C   0  0  0  0  0  0  0  0  0  0  0  0
   59.6238   29.3810   47.2506 C   0  0  0  0  0  0  0  0  0  0  0  0
   59.8813   28.1842   46.6878 C   0  0  0  0  0  0  0  0  0  0  0  0
   60.0095   29.8259   48.5205 C   0  0  0  0  0  0  0  0  0  0  0  0
   60.7066   29.1134   49.4211 C   0  0  0  0  0  0  0  0  0  0  0  0
   59.5819   31.1050   48.7105 N   0  0  0  0  0  0  0  0  0  0  0  0
   58.8456   27.1924   46.3489 C   0  0  0  0  0  0  0  0  0  0  0  0
   58.2036   26.4534   47.2711 N   0  0  0  0  0  0  0  0  0  0  0  0
   57.2989   25.7610   46.5453 C   0  0  0  0  0  0  0  0  0  0  0  0
   56.5033   24.9343   47.0618 O   0  0  0  0  0  0  0  0  0  0  0  0
   57.3087   26.0314   45.2218 N   0  0  0  0  0  0  0  0  0  0  0  0
   58.2830   26.9482   45.1151 C   0  0  0  0  0  0  0  0  0  0  0  0
   58.6154   27.5817   43.9230 O   0  0  0  0  0  0  0  0  0  0  0  0
   58.4051   32.8475   47.2541 C   0  0  0  0  0  0  0  0  0  0  0  0
   60.4843   33.9424   46.4755 C   0  0  0  0  0  0  0  0  0  0  0  0
   59.2233   33.5682   46.2094 C   0  0  0  0  0  0  0  0  0  0  0  0
   58.6523   33.8258   44.8410 C   0  0  0  0  0  0  0  0  0  0  0  0
   59.7251   31.9326   49.9241 C   0  0  0  0  0  0  0  0  0  0  0  0
   60.9959   32.7969   49.8813 C   0  0  0  0  0  0  0  0  0  0  0  0
   62.1346   32.2411   50.7618 C   0  0  0  0  0  0  0  0  0  0  0  0
   63.4695   32.8034   50.4557 N   0  0  0  0  0  0  0  0  0  0  0  0
   63.6516   33.1148   49.0293 C   0  0  0  0  0  0  0  0  0  0  0  0
   63.8162   33.9562   51.3016 C   0  0  0  0  0  0  0  0  0  0  0  0
 16 17  2  0
 17 18  1  0
 17 15  1  0
 15  1  1  0
  1  2  2  0
  2  3  1  0
  3  4  2  0
  4  8  1  0
  8  9  1  0
  9 10  1  0
 10 11  2  0
 10 12  1  0
 12 13  1  0
 13 14  1  0
  3  5  1  0
  5  6  2  0
  5  7  1  0
  7 19  1  0
 19 20  1  0
 20 21  1  0
 21 22  1  0
 22 23  1  0
 22 24  1  0
  7  1  1  0
 13  8  2  0
M  CHG 1   9  -1
M  CHG 1  12  -1
M  CHG 1  14  -1
M  END
> <UniqueID>
14

> <SMILES>
C=C(C)Cc1cc(=Cc2[n-]c(=O)[n-]c2[O-])c(=C)n1CCCN(C)C

> <Energy>
106.69811362792032

> <Genealogy>
C=C(C)Cc1cc(=Cc2[n-]c(=O)[n-]c2[O-])c(=C)n1CCCN(C)C (protonated)
C=C(C)Cc1cc(=Cc2[n-]c(=O)[n-]c2[O-])c(=C)n1CCCN(C)C (3D coordinates assigned)
C=C(C)Cc1cc(=Cc2[n-]c(=O)[n-]c2[O-])c(=C)n1CCCN(C)C (optimized conformer: 106.69811362792032 kcal/mol)

> <smiles>
C=C(C)Cc1cc(=Cc2[nH]c(=O)[nH]c2O)c(=C)n1CCCN(C)C

> <score_type>
oracle

> <origin>
adg

> <m_score__min__energy>
-14.75

> <m_primary>
energy

> <minimizedAffinity>
-6.32660

> <minimizedRMSD>
2.09327

> <CNNscore>
0.3971251547

> <CNNaffinity>
6.4851727486

> <CNN_VS>
2.5754251480

> <CNNaffinity_variance>
0.0134906927

$$$$
15:0


 38 42  0  0  0  0  0  0  0  0999 V2000
   59.1405   29.5914   45.1483 C   0  0  0  0  0  0  0  0  0  0  0  0
   57.8290   29.8091   44.6977 C   0  0  0  0  0  0  0  0  0  0  0  0
   57.1544   30.9824   45.0418 C   0  0  0  0  0  0  0  0  0  0  0  0
   57.7807   31.9491   45.8340 C   0  0  0  0  0  0  0  0  0  0  0  0
   59.0976   31.7523   46.2847 C   0  0  0  0  0  0  0  0  0  0  0  0
   59.7660   30.5658   45.9441 C   0  0  0  0  0  0  0  0  0  0  0  0
   59.7702   32.7563   47.1406 C   0  0  0  0  0  0  0  0  0  0  0  0
   59.0970   33.7319   47.5759 O   0  0  0  0  0  0  0  0  0  0  0  0
   61.1646   32.6534   47.4887 N   0  0  0  0  0  0  0  0  0  0  0  0
   61.9155   33.8863   47.7709 C   0  0  0  0  0  0  0  0  0  0  0  0
   63.3864   33.5933   48.0853 C   0  0  0  0  0  0  0  0  0  0  0  0
   63.5391   32.5342   49.2011 C   0  0  0  0  0  0  0  0  0  0  0  0
   62.5369   31.3452   49.0523 C   0  0  0  0  0  0  0  0  0  0  0  0
   61.8057   31.3471   47.7055 C   0  0  0  0  0  0  0  0  0  0  0  0
   63.4555   33.2094   50.5650 C   0  0  0  0  0  0  0  0  0  0  0  0
   62.3186   33.4415   51.0649 O   0  0  0  0  0  0  0  0  0  0  0  0
   64.6341   33.7043   51.2491 N   0  0  0  0  0  0  0  0  0  0  0  0
   64.4429   34.7693   52.2519 C   0  0  0  0  0  0  0  0  0  0  0  0
   65.7564   35.2893   52.8613 C   0  0  0  0  0  0  0  0  0  0  0  0
   66.8287   35.1861   51.9513 O   0  0  0  0  0  0  0  0  0  0  0  0
   67.0807   33.8237   51.7099 C   0  0  0  0  0  0  0  0  0  0  0  0
   65.9726   33.2374   50.8413 C   0  0  0  0  0  0  0  0  0  0  0  0
   59.8805   28.3371   44.7636 C   0  0  0  0  0  0  0  0  0  0  0  0
   57.9345   26.6953   43.1231 C   0  0  0  0  0  0  0  0  0  0  0  0
   58.3280   26.3536   44.3618 C   0  0  0  0  0  0  0  0  0  0  0  0
   57.8580   25.2618   45.1104 C   0  0  0  0  0  0  0  0  0  0  0  0
   57.1452   24.1782   44.7431 C   0  0  0  0  0  0  0  0  0  0  0  0
   58.3034   25.4600   46.4027 C   0  0  0  0  0  0  0  0  0  0  0  0
   59.0928   26.5908   46.3864 C   0  0  0  0  0  0  0  0  0  0  0  0
   59.7362   27.1859   47.6043 C   0  0  0  0  0  0  0  0  0  0  0  0
   59.1232   27.1322   45.1457 N   0  0  0  0  0  0  0  0  0  0  0  0
   55.7773   23.8577   45.1873 C   0  0  0  0  0  0  0  0  0  0  0  0
   55.2326   22.6284   45.1750 N   0  0  0  0  0  0  0  0  0  0  0  0
   54.0326   22.8136   45.7682 C   0  0  0  0  0  0  0  0  0  0  0  0
   53.2030   21.8817   45.9244 O   0  0  0  0  0  0  0  0  0  0  0  0
   53.7926   24.0742   46.1858 N   0  0  0  0  0  0  0  0  0  0  0  0
   54.9156   24.7179   45.8228 C   0  0  0  0  0  0  0  0  0  0  0  0
   55.1511   26.0633   46.0757 O   0  0  0  0  0  0  0  0  0  0  0  0
 24 25  2  0
 25 26  1  0
 26 27  2  0
 27 32  1  0
 32 33  1  0
 33 34  1  0
 34 35  2  0
 34 36  1  0
 36 37  1  0
 37 38  1  0
 26 28  1  0
 28 29  2  0
 29 30  1  0
 29 31  1  0
 31 23  1  0
 23  1  1  0
  1  2  2  0
  2  3  1  0
  3  4  2  0
  4  5  1  0
  5  7  1  0
  7  8  2  0
  7  9  1  0
  9 10  1  0
 10 11  1  0
 11 12  1  0
 12 15  1  0
 15 16  2  0
 15 17  1  0
 17 18  1  0
 18 19  1  0
 19 20  1  0
 20 21  1  0
 21 22  1  0
 12 13  1  0
 13 14  1  0
  5  6  2  0
 31 25  1  0
  6  1  1  0
 37 32  2  0
 14  9  1  0
 22 17  1  0
M  CHG 1  33  -1
M  CHG 1  36  -1
M  CHG 1  38  -1
M  END
> <UniqueID>
16

> <SMILES>
C=c1c(=Cc2[n-]c(=O)[n-]c2[O-])cc(C)n1Cc1cccc(C(=O)N2CCC(C(=O)N3CCOCC3)CC2)c1

> <Energy>
153.37229530869604

> <Genealogy>
C=c1c(=Cc2[n-]c(=O)[n-]c2[O-])cc(C)n1Cc1cccc(C(=O)N2CCC(C(=O)N3CCOCC3)CC2)c1 (protonated)
C=c1c(=Cc2[n-]c(=O)[n-]c2[O-])cc(C)n1Cc1cccc(C(=O)N2CCC(C(=O)N3CCOCC3)CC2)c1 (3D coordinates assigned)
C=c1c(=Cc2[n-]c(=O)[n-]c2[O-])cc(C)n1Cc1cccc(C(=O)N2CCC(C(=O)N3CCOCC3)CC2)c1 (nonaromatic ring conformer: 153.37229530869604 kcal/mol)

> <smiles>
C=c1c(=Cc2[nH]c(=O)[nH]c2O)cc(C)n1Cc1cccc(C(=O)N2CCC(C(=O)N3CCOCC3)CC2)c1

> <score_type>
oracle

> <origin>
adg

> <m_score__min__energy>
-19.210000000000001

> <m_primary>
energy

> <minimizedAffinity>
-9.28236

> <minimizedRMSD>
0.74713

> <CNNscore>
0.0758438483

> <CNNaffinity>
6.6469664574

> <CNN_VS>
0.5041314960

> <CNNaffinity_variance>
0.2352886796

$$$$
17:0


 38 42  0  0  0  0  0  0  0  0999 V2000
   59.0832   34.5489   46.5545 C   0  0  0  0  0  0  0  0  0  0  0  0
   59.1728   33.2386   46.3377 C   0  0  0  0  0  0  0  0  0  0  0  0
   58.6813   32.4874   44.9170 S   0  0  0  0  0  0  0  0  0  0  0  0
   58.9706   30.9118   45.4293 C   0  0  0  0  0  0  0  0  0  0  0  0
   58.6937   29.8278   44.6915 C   0  0  0  0  0  0  0  0  0  0  0  0
   59.5060   30.9546   46.7184 C   0  0  0  0  0  0  0  0  0  0  0  0
   59.6123   32.2549   47.2355 C   0  0  0  0  0  0  0  0  0  0  0  0
   57.9706   28.6280   45.1873 C   0  0  0  0  0  0  0  0  0  0  0  0
   56.5775   28.6136   45.3286 C   0  0  0  0  0  0  0  0  0  0  0  0
   55.8048   29.7184   44.9865 O   0  0  0  0  0  0  0  0  0  0  0  0
   55.9599   27.4938   45.7724 N   0  0  0  0  0  0  0  0  0  0  0  0
   56.6487   26.3572   46.0377 C   0  0  0  0  0  0  0  0  0  0  0  0
   56.0150   25.3475   46.4532 O   0  0  0  0  0  0  0  0  0  0  0  0
   58.0065   26.3044   45.8412 N   0  0  0  0  0  0  0  0  0  0  0  0
   58.6712   27.4308   45.4212 C   0  0  0  0  0  0  0  0  0  0  0  0
   59.9208   27.4019   45.2470 O   0  0  0  0  0  0  0  0  0  0  0  0
   58.7273   25.0228   45.9952 C   0  0  0  0  0  0  0  0  0  0  0  0
   58.0834   23.9563   45.1407 C   0  0  0  0  0  0  0  0  0  0  0  0
   57.2467   24.3115   44.0668 C   0  0  0  0  0  0  0  0  0  0  0  0
   56.6081   23.3209   43.3080 C   0  0  0  0  0  0  0  0  0  0  0  0
   56.7905   21.9715   43.6228 C   0  0  0  0  0  0  0  0  0  0  0  0
   57.6143   21.6096   44.6930 C   0  0  0  0  0  0  0  0  0  0  0  0
   58.2596   22.5965   45.4487 C   0  0  0  0  0  0  0  0  0  0  0  0
   60.0074   32.4899   48.6417 C   0  0  0  0  0  0  0  0  0  0  0  0
   59.0855   32.4966   49.5035 O   0  0  0  0  0  0  0  0  0  0  0  0
   61.3890   32.5925   49.0860 N   0  0  0  0  0  0  0  0  0  0  0  0
   61.4543   33.3092   50.3815 C   0  0  0  0  0  0  0  0  0  0  0  0
   62.8703   33.8181   50.7075 C   0  0  0  0  0  0  0  0  0  0  0  0
   63.8858   32.9718   50.0446 N   0  0  0  0  0  0  0  0  0  0  0  0
   63.7635   33.1230   48.5695 C   0  0  0  0  0  0  0  0  0  0  0  0
   62.2947   33.2088   48.0960 C   0  0  0  0  0  0  0  0  0  0  0  0
   61.7911   32.7517   49.9704 H   0  0  0  0  0  0  0  0  0  0  0  0
   65.2590   33.2824   50.5492 C   0  0  0  0  0  0  0  0  0  0  0  0
   65.1757   33.9744   51.9406 C   0  0  0  0  0  0  0  0  0  0  0  0
   66.4663   33.8227   52.7636 C   0  0  0  0  0  0  0  0  0  0  0  0
   67.5720   33.6385   51.9083 O   0  0  0  0  0  0  0  0  0  0  0  0
   67.5205   32.3454   51.3320 C   0  0  0  0  0  0  0  0  0  0  0  0
   66.1495   32.0191   50.6852 C   0  0  0  0  0  0  0  0  0  0  0  0
  1  2  2  0
  2  3  1  0
  3  4  1  0
  4  5  2  0
  5  8  1  0
  8  9  2  0
  9 10  1  0
  9 11  1  0
 11 12  1  0
 12 13  2  0
 12 14  1  0
 14 17  1  0
 17 18  1  0
 18 19  2  0
 19 20  1  0
 20 21  2  0
 21 22  1  0
 22 23  2  0
 14 15  1  0
 15 16  2  0
  4  6  1  0
  6  7  2  0
  7 24  1  0
 24 25  2  0
 24 26  1  0
 26 27  1  0
 27 28  1  0
 28 29  1  0
 29 33  1  0
 33 34  1  0
 34 35  1  0
 35 36  1  0
 36 37  1  0
 37 38  1  0
 29 30  1  0
 30 31  1  0
  7  2  1  0
 31 26  1  0
 15  8  1  0
 38 33  1  0
 23 18  1  0
 26 32  1  0
M  CHG 1  10  -1
M  CHG 1  11  -1
M  CHG 1  26   1
M  END
> <UniqueID>
18

> <SMILES>
C=c1sc(=Cc2c([O-])[n-]c(=O)n(Cc3ccccc3)c2=O)cc1C(=O)[NH+]1CCN(C2CCOCC2)CC1

> <Energy>
142.37455574867766

> <Genealogy>
C=c1sc(=Cc2c([O-])[n-]c(=O)n(Cc3ccccc3)c2=O)cc1C(=O)[NH+]1CCN(C2CCOCC2)CC1 (protonated)
C=c1sc(=Cc2c([O-])[n-]c(=O)n(Cc3ccccc3)c2=O)cc1C(=O)[NH+]1CCN(C2CCOCC2)CC1 (3D coordinates assigned)
C=c1sc(=Cc2c([O-])[n-]c(=O)n(Cc3ccccc3)c2=O)cc1C(=O)[NH+]1CCN(C2CCOCC2)CC1 (nonaromatic ring conformer: 142.37455574867766 kcal/mol)

> <smiles>
C=c1sc(=Cc2c(O)[nH]c(=O)n(Cc3ccccc3)c2=O)cc1C(=O)N1CCN(C2CCOCC2)CC1

> <score_type>
oracle

> <origin>
adg

> <m_score__min__energy>
-14.76

> <m_primary>
energy

> <minimizedAffinity>
-7.79021

> <minimizedRMSD>
1.43787

> <CNNscore>
0.2494892776

> <CNNaffinity>
7.1528820992

> <CNN_VS>
1.7845673561

> <CNNaffinity_variance>
0.0018263726

$$$$
19:0


 28 30  0  0  0  0  0  0  0  0999 V2000
   54.0720   27.6002   53.6849 C   0  0  0  0  0  0  0  0  0  0  0  0
   54.7939   28.7177   53.5283 C   0  0  0  0  0  0  0  0  0  0  0  0
   55.9982   28.7609   54.1600 N   0  0  0  0  0  0  0  0  0  0  0  0
   56.8979   29.7129   53.9196 N   0  0  0  0  0  0  0  0  0  0  0  0
   56.6761   30.6874   53.0036 C   0  0  0  0  0  0  0  0  0  0  0  0
   55.4549   30.7117   52.3240 C   0  0  0  0  0  0  0  0  0  0  0  0
   54.4478   29.7789   52.6361 C   0  0  0  0  0  0  0  0  0  0  0  0
   53.2252   29.9818   52.0797 C   0  0  0  0  0  0  0  0  0  0  0  0
   57.7359   31.6801   52.7343 C   0  0  0  0  0  0  0  0  0  0  0  0
   57.4129   32.8459   52.3805 O   0  0  0  0  0  0  0  0  0  0  0  0
   59.1263   31.3498   52.8752 N   0  0  0  0  0  0  0  0  0  0  0  0
   59.9775   32.2084   53.7097 C   0  0  0  0  0  0  0  0  0  0  0  0
   61.4614   31.8591   53.5548 C   0  0  0  0  0  0  0  0  0  0  0  0
   61.6531   30.4010   53.5837 N   0  0  0  0  0  0  0  0  0  0  0  0
   62.7694   29.8160   54.2796 C   0  0  0  0  0  0  0  0  0  0  0  0
   63.5988   30.5525   54.8836 O   0  0  0  0  0  0  0  0  0  0  0  0
   60.7756   29.5245   52.7952 C   0  0  0  0  0  0  0  0  0  0  0  0
   59.7220   30.3199   52.0173 C   0  0  0  0  0  0  0  0  0  0  0  0
   62.9425   28.4269   54.2712 O   0  0  0  0  0  0  0  0  0  0  0  0
   64.1419   27.7854   53.8427 C   0  0  0  0  0  0  0  0  0  0  0  0
   64.5160   28.2311   52.4332 C   0  0  0  0  0  0  0  0  0  0  0  0
   52.1317   30.7905   52.6515 C   0  0  0  0  0  0  0  0  0  0  0  0
   51.7627   30.7830   53.9456 N   0  0  0  0  0  0  0  0  0  0  0  0
   50.8156   31.7432   54.0041 C   0  0  0  0  0  0  0  0  0  0  0  0
   50.2069   32.0285   55.0677 O   0  0  0  0  0  0  0  0  0  0  0  0
   50.5771   32.3768   52.8368 N   0  0  0  0  0  0  0  0  0  0  0  0
   51.4280   31.7693   51.9956 C   0  0  0  0  0  0  0  0  0  0  0  0
   51.5619   32.1060   50.6542 O   0  0  0  0  0  0  0  0  0  0  0  0
  1  2  2  0
  2  3  1  0
  3  4  2  0
  4  5  1  0
  5  9  1  0
  9 10  2  0
  9 11  1  0
 11 12  1  0
 12 13  1  0
 13 14  1  0
 14 15  1  0
 15 16  2  0
 15 19  1  0
 19 20  1  0
 20 21  1  0
 14 17  1  0
 17 18  1  0
  5  6  2  0
  6  7  1  0
  7  8  2  0
  8 22  1  0
 22 23  1  0
 23 24  1  0
 24 25  2  0
 24 26  1  0
 26 27  1  0
 27 28  1  0
  7  2  1  0
 27 22  2  0
 18 11  1  0
M  CHG 1  23  -1
M  CHG 1  26  -1
M  CHG 1  28  -1
M  END
> <UniqueID>
20

> <SMILES>
C=c1nnc(C(=O)N2CCN(C(=O)OCC)CC2)cc1=Cc1[n-]c(=O)[n-]c1[O-]

> <Energy>
94.94741319178797

> <Genealogy>
C=c1nnc(C(=O)N2CCN(C(=O)OCC)CC2)cc1=Cc1[n-]c(=O)[n-]c1[O-] (protonated)
C=c1nnc(C(=O)N2CCN(C(=O)OCC)CC2)cc1=Cc1[n-]c(=O)[n-]c1[O-] (3D coordinates assigned)
C=c1nnc(C(=O)N2CCN(C(=O)OCC)CC2)cc1=Cc1[n-]c(=O)[n-]c1[O-] (nonaromatic ring conformer: 94.94741319178797 kcal/mol)

> <smiles>
C=c1nnc(C(=O)N2CCN(C(=O)OCC)CC2)cc1=Cc1[nH]c(=O)[nH]c1O

> <score_type>
oracle

> <origin>
adg

> <m_score__min__energy>
-16.449999999999999

> <m_primary>
energy

> <minimizedAffinity>
-5.36678

> <minimizedRMSD>
1.05735

> <CNNscore>
0.2388141006

> <CNNaffinity>
4.7146716118

> <CNN_VS>
1.1259300709

> <CNNaffinity_variance>
0.1282210052

$$$$
37:0


 26 27  0  0  0  0  0  0  0  0999 V2000
   57.6126   33.5136   45.1432 N   0  0  0  0  0  0  0  0  0  0  0  0
   58.0091   33.6060   46.5166 C   0  0  0  0  0  0  0  0  0  0  0  0
   57.3623   32.9933   47.4090 O   0  0  0  0  0  0  0  0  0  0  0  0
   59.1612   34.4323   46.8913 C   0  0  0  0  0  0  0  0  0  0  0  0
   59.7003   35.1810   46.0340 O   0  0  0  0  0  0  0  0  0  0  0  0
   59.6531   34.3951   48.2347 N   0  0  0  0  0  0  0  0  0  0  0  0
   60.7995   33.5945   48.6518 C   0  0  0  0  0  0  0  0  0  0  0  0
   60.3516   32.2064   49.0276 C   0  0  0  0  0  0  0  0  0  0  0  0
   59.4002   32.0395   50.0480 C   0  0  0  0  0  0  0  0  0  0  0  0
   58.9922   30.7582   50.4318 C   0  0  0  0  0  0  0  0  0  0  0  0
   59.5354   29.6346   49.8048 C   0  0  0  0  0  0  0  0  0  0  0  0
   60.4865   29.7890   48.7925 C   0  0  0  0  0  0  0  0  0  0  0  0
   60.8977   31.0684   48.4027 C   0  0  0  0  0  0  0  0  0  0  0  0
   61.8244   31.1920   47.4205 F   0  0  0  0  0  0  0  0  0  0  0  0
   58.2972   32.6782   44.1623 C   0  0  0  0  0  0  0  0  0  0  0  0
   57.0594   31.1253   42.8312 O   0  0  0  0  0  0  0  0  0  0  0  0
   57.5397   31.4036   43.9631 C   0  0  0  0  0  0  0  0  0  0  0  0
   57.3375   30.5239   45.0708 N   0  0  0  0  0  0  0  0  0  0  0  0
   57.0003   29.1163   44.9223 C   0  0  0  0  0  0  0  0  0  0  0  0
   58.1355   28.2803   45.4451 C   0  0  0  0  0  0  0  0  0  0  0  0
   59.4562   28.7527   45.3618 C   0  0  0  0  0  0  0  0  0  0  0  0
   60.5119   27.9923   45.8733 C   0  0  0  0  0  0  0  0  0  0  0  0
   60.2571   26.7590   46.4794 C   0  0  0  0  0  0  0  0  0  0  0  0
   58.9467   26.2852   46.5770 C   0  0  0  0  0  0  0  0  0  0  0  0
   57.8848   27.0404   46.0667 C   0  0  0  0  0  0  0  0  0  0  0  0
   56.5862   26.5578   46.1859 O   0  0  0  0  0  0  0  0  0  0  0  0
 16 17  2  0
 17 15  1  0
 15  1  1  0
  1  2  1  0
  2  3  2  0
  2  4  1  0
  4  5  2  0
  4  6  1  0
  6  7  1  0
  7  8  1  0
  8  9  2  0
  9 10  1  0
 10 11  2  0
 11 12  1  0
 12 13  2  0
 13 14  1  0
 17 18  1  0
 18 19  1  0
 19 20  1  0
 20 21  2  0
 21 22  1  0
 22 23  2  0
 23 24  1  0
 24 25  2  0
 25 26  1  0
 13  8  1  0
 25 20  1  0
M  CHG 1   1  -1
M  CHG 1   6  -1
M  CHG 1  18  -1
M  CHG 1  26  -1
M  END
> <UniqueID>
35

> <SMILES>
O=C(C[N-]C(=O)C(=O)[N-]Cc1ccccc1F)[N-]Cc1ccccc1[O-]

> <Energy>
30.498377561530138

> <Genealogy>
O=C(C[N-]C(=O)C(=O)[N-]Cc1ccccc1F)[N-]Cc1ccccc1[O-] (protonated)
O=C(C[N-]C(=O)C(=O)[N-]Cc1ccccc1F)[N-]Cc1ccccc1[O-] (3D coordinates assigned)
O=C(C[N-]C(=O)C(=O)[N-]Cc1ccccc1F)[N-]Cc1ccccc1[O-] (optimized conformer: 30.498377561530138 kcal/mol)

> <smiles>
O=C(CNC(=O)C(=O)NCc1ccccc1F)NCc1ccccc1O

> <score_type>
oracle

> <origin>
adg

> <m_score__min__energy>
-15.25

> <m_primary>
energy

> <minimizedAffinity>
-6.86003

> <minimizedRMSD>
1.14854

> <CNNscore>
0.7303817868

> <CNNaffinity>
6.4973807335

> <CNN_VS>
4.7455687523

> <CNNaffinity_variance>
0.0178230088

$$$$
53:0


 31 34  0  0  0  0  0  0  0  0999 V2000
   58.5859   34.0286   45.1380 C   0  0  0  0  0  0  0  0  0  0  0  0
   58.4633   32.7457   45.4868 C   0  0  0  0  0  0  0  0  0  0  0  0
   58.1251   31.7870   44.5954 N   0  0  0  0  0  0  0  0  0  0  0  0
   58.1303   30.6357   45.3013 C   0  0  0  0  0  0  0  0  0  0  0  0
   57.8486   29.4516   44.7314 C   0  0  0  0  0  0  0  0  0  0  0  0
   58.4917   30.9273   46.6091 C   0  0  0  0  0  0  0  0  0  0  0  0
   58.6295   30.1084   47.5555 O   0  0  0  0  0  0  0  0  0  0  0  0
   58.6967   32.2526   46.7286 N   0  0  0  0  0  0  0  0  0  0  0  0
   59.0432   32.9719   47.9255 C   0  0  0  0  0  0  0  0  0  0  0  0
   58.5923   32.5895   49.0403 O   0  0  0  0  0  0  0  0  0  0  0  0
   58.2654   28.1254   45.2239 C   0  0  0  0  0  0  0  0  0  0  0  0
   59.5412   27.7282   45.4257 N   0  0  0  0  0  0  0  0  0  0  0  0
   59.4168   26.4984   45.9709 C   0  0  0  0  0  0  0  0  0  0  0  0
   60.4081   25.7862   46.2820 O   0  0  0  0  0  0  0  0  0  0  0  0
   58.1362   26.1124   46.1485 N   0  0  0  0  0  0  0  0  0  0  0  0
   57.4128   27.1410   45.6785 C   0  0  0  0  0  0  0  0  0  0  0  0
   56.0229   27.1877   45.6603 O   0  0  0  0  0  0  0  0  0  0  0  0
   57.6434   24.8324   46.6558 C   0  0  0  0  0  0  0  0  0  0  0  0
   57.3885   23.8893   45.5132 C   0  0  0  0  0  0  0  0  0  0  0  0
   58.2678   22.8219   45.2656 C   0  0  0  0  0  0  0  0  0  0  0  0
   58.0115   21.9253   44.2227 C   0  0  0  0  0  0  0  0  0  0  0  0
   56.8743   22.0839   43.4274 C   0  0  0  0  0  0  0  0  0  0  0  0
   55.9879   23.1353   43.6755 C   0  0  0  0  0  0  0  0  0  0  0  0
   56.2393   24.0335   44.7170 C   0  0  0  0  0  0  0  0  0  0  0  0
   59.9388   34.1765   47.8731 C   0  0  0  0  0  0  0  0  0  0  0  0
   61.3490   33.7919   48.2306 C   0  0  0  0  0  0  0  0  0  0  0  0
   61.8128   33.9334   49.5492 C   0  0  0  0  0  0  0  0  0  0  0  0
   63.1350   33.6067   49.8689 C   0  0  0  0  0  0  0  0  0  0  0  0
   64.0036   33.1485   48.8748 C   0  0  0  0  0  0  0  0  0  0  0  0
   63.5532   33.0182   47.5577 C   0  0  0  0  0  0  0  0  0  0  0  0
   62.2324   33.3422   47.2335 C   0  0  0  0  0  0  0  0  0  0  0  0
  1  2  2  0
  2  3  1  0
  3  4  1  0
  4  5  2  0
  5 11  1  0
 11 12  1  0
 12 13  1  0
 13 14  2  0
 13 15  1  0
 15 18  1  0
 18 19  1  0
 19 20  2  0
 20 21  1  0
 21 22  2  0
 22 23  1  0
 23 24  2  0
 15 16  1  0
 16 17  1  0
  4  6  1  0
  6  7  2  0
  6  8  1  0
  8  9  1  0
  9 10  2  0
  9 25  1  0
 25 26  1  0
 26 27  2  0
 27 28  1  0
 28 29  2  0
 29 30  1  0
 30 31  2  0
  8  2  1  0
 31 26  1  0
 16 11  2  0
 24 19  1  0
M  CHG 1   3  -1
M  CHG 1  12  -1
M  CHG 1  17  -1
M  END
> <UniqueID>
50

> <SMILES>
C=c1[n-]c(=Cc2[n-]c(=O)n(Cc3ccccc3)c2[O-])c(=O)n1C(=O)Cc1ccccc1

> <Energy>
125.66358498853745

> <Genealogy>
C=c1[n-]c(=Cc2[n-]c(=O)n(Cc3ccccc3)c2[O-])c(=O)n1C(=O)Cc1ccccc1 (protonated)
C=c1[n-]c(=Cc2[n-]c(=O)n(Cc3ccccc3)c2[O-])c(=O)n1C(=O)Cc1ccccc1 (3D coordinates assigned)
C=c1[n-]c(=Cc2[n-]c(=O)n(Cc3ccccc3)c2[O-])c(=O)n1C(=O)Cc1ccccc1 (optimized conformer: 125.66358498853745 kcal/mol)

> <smiles>
C=c1[nH]c(=Cc2[nH]c(=O)n(Cc3ccccc3)c2O)c(=O)n1C(=O)Cc1ccccc1

> <score_type>
oracle

> <origin>
adg

> <m_score__min__energy>
-15.49

> <m_primary>
energy

> <minimizedAffinity>
-9.33823

> <minimizedRMSD>
0.97177

> <CNNscore>
0.7544001341

> <CNNaffinity>
6.8219966888

> <CNN_VS>
5.1465153694

> <CNNaffinity_variance>
0.0250357091

$$$$
66:0


 29 32  0  0  0  0  0  0  0  0999 V2000
   59.5646   31.7341   48.4464 C   0  0  0  0  0  0  0  0  0  0  0  0
   58.8678   31.2017   49.3518 O   0  0  0  0  0  0  0  0  0  0  0  0
   60.9816   31.8998   48.6421 N   0  0  0  0  0  0  0  0  0  0  0  0
   61.7576   30.8537   49.3170 C   0  0  0  0  0  0  0  0  0  0  0  0
   62.6562   31.4789   50.3870 C   0  0  0  0  0  0  0  0  0  0  0  0
   63.4369   32.6046   49.8452 N   0  0  0  0  0  0  0  0  0  0  0  0
   63.1425   33.1240   48.4999 C   0  0  0  0  0  0  0  0  0  0  0  0
   61.6308   33.1601   48.2489 C   0  0  0  0  0  0  0  0  0  0  0  0
   57.8747   32.4921   43.8651 C   0  0  0  0  0  0  0  0  0  0  0  0
   58.1021   32.5145   45.1806 C   0  0  0  0  0  0  0  0  0  0  0  0
   57.6221   33.4726   45.9419 O   0  0  0  0  0  0  0  0  0  0  0  0
   58.0676   33.3197   47.1660 C   0  0  0  0  0  0  0  0  0  0  0  0
   58.8944   32.2184   47.2229 C   0  0  0  0  0  0  0  0  0  0  0  0
   58.8856   31.6447   45.9528 C   0  0  0  0  0  0  0  0  0  0  0  0
   59.4733   30.4730   45.6300 C   0  0  0  0  0  0  0  0  0  0  0  0
   58.9300   29.1387   45.9127 C   0  0  0  0  0  0  0  0  0  0  0  0
   59.5300   28.0978   47.0913 S   0  0  0  0  0  0  0  0  0  0  0  0
   58.2797   26.9952   46.8678 C   0  0  0  0  0  0  0  0  0  0  0  0
   58.1705   25.9109   47.4977 O   0  0  0  0  0  0  0  0  0  0  0  0
   57.3853   27.4007   45.9438 N   0  0  0  0  0  0  0  0  0  0  0  0
   57.7383   28.6051   45.4225 C   0  0  0  0  0  0  0  0  0  0  0  0
   56.9455   29.2532   44.4843 O   0  0  0  0  0  0  0  0  0  0  0  0
   64.5833   33.0900   50.5775 C   0  0  0  0  0  0  0  0  0  0  0  0
   65.8803   32.6517   50.2492 C   0  0  0  0  0  0  0  0  0  0  0  0
   66.9892   33.1269   50.9562 C   0  0  0  0  0  0  0  0  0  0  0  0
   66.8190   34.0446   51.9945 C   0  0  0  0  0  0  0  0  0  0  0  0
   67.9245   34.5134   52.6954 O   0  0  0  0  0  0  0  0  0  0  0  0
   65.5376   34.4900   52.3284 C   0  0  0  0  0  0  0  0  0  0  0  0
   64.4255   34.0190   51.6252 C   0  0  0  0  0  0  0  0  0  0  0  0
  9 10  2  0
 10 11  1  0
 11 12  1  0
 12 13  2  0
 13  1  1  0
  1  2  2  0
  1  3  1  0
  3  4  1  0
  4  5  1  0
  5  6  1  0
  6 23  1  0
 23 24  2  0
 24 25  1  0
 25 26  2  0
 26 27  1  0
 26 28  1  0
 28 29  2  0
  6  7  1  0
  7  8  1  0
 13 14  1  0
 14 15  2  0
 15 16  1  0
 16 17  1  0
 17 18  1  0
 18 19  2  0
 18 20  1  0
 20 21  1  0
 21 22  1  0
 14 10  1  0
 21 16  2  0
  8  3  1  0
 29 23  1  0
M  CHG 1  20  -1
M  CHG 1  22  -1
M  CHG 1  27  -1
M  END
> <UniqueID>
63

> <SMILES>
C=c1occ(C(=O)N2CCN(c3ccc([O-])cc3)CC2)/c1=C/c1sc(=O)[n-]c1[O-]

> <Energy>
129.07730090346203

> <Genealogy>
C=c1occ(C(=O)N2CCN(c3ccc([O-])cc3)CC2)c1=Cc1sc(=O)[n-]c1[O-] (protonated)
C=c1occ(C(=O)N2CCN(c3ccc([O-])cc3)CC2)/c1=C/c1sc(=O)[n-]c1[O-] (cis-trans isomerization)
C=c1occ(C(=O)N2CCN(c3ccc([O-])cc3)CC2)/c1=C/c1sc(=O)[n-]c1[O-] (3D coordinates assigned)
C=c1occ(C(=O)N2CCN(c3ccc([O-])cc3)CC2)/c1=C/c1sc(=O)[n-]c1[O-] (nonaromatic ring conformer: 129.07730090346203 kcal/mol)

> <smiles>
C=c1occ(C(=O)N2CCN(c3ccc(O)cc3)CC2)c1=Cc1sc(=O)[nH]c1O

> <score_type>
oracle

> <origin>
adg

> <m_score__min__energy>
-15.5

> <m_primary>
energy

> <minimizedAffinity>
-8.08259

> <minimizedRMSD>
1.83301

> <CNNscore>
0.7564480901

> <CNNaffinity>
6.8515648842

> <CNN_VS>
5.1828532219

> <CNNaffinity_variance>
0.0211274978

$$$$
71:0


 30 33  0  0  0  0  0  0  0  0999 V2000
   59.7654   29.3931   47.6930 C   0  0  0  0  0  0  0  0  0  0  0  0
   59.4287   30.2224   46.6887 C   0  0  0  0  0  0  0  0  0  0  0  0
   59.0247   29.8460   45.3970 C   0  0  0  0  0  0  0  0  0  0  0  0
   59.0382   28.6512   44.7748 C   0  0  0  0  0  0  0  0  0  0  0  0
   58.5678   30.9974   44.7834 C   0  0  0  0  0  0  0  0  0  0  0  0
   58.7716   32.0324   45.6681 C   0  0  0  0  0  0  0  0  0  0  0  0
   58.3832   33.4562   45.4018 C   0  0  0  0  0  0  0  0  0  0  0  0
   59.2981   31.5712   46.8288 N   0  0  0  0  0  0  0  0  0  0  0  0
   58.3891   27.4225   45.2567 C   0  0  0  0  0  0  0  0  0  0  0  0
   59.0742   26.3389   45.6913 N   0  0  0  0  0  0  0  0  0  0  0  0
   58.1084   25.5141   46.1551 C   0  0  0  0  0  0  0  0  0  0  0  0
   58.3478   24.3802   46.6482 O   0  0  0  0  0  0  0  0  0  0  0  0
   56.8736   26.0332   46.0533 N   0  0  0  0  0  0  0  0  0  0  0  0
   55.6953   25.4709   46.4841 O   0  0  0  0  0  0  0  0  0  0  0  0
   57.0426   27.2425   45.5107 C   0  0  0  0  0  0  0  0  0  0  0  0
   56.0207   28.1588   45.2893 O   0  0  0  0  0  0  0  0  0  0  0  0
   59.5777   32.3987   48.0167 C   0  0  0  0  0  0  0  0  0  0  0  0
   61.0601   32.6142   48.1822 C   0  0  0  0  0  0  0  0  0  0  0  0
   61.8030   33.2509   47.1751 C   0  0  0  0  0  0  0  0  0  0  0  0
   63.1757   33.4552   47.3331 C   0  0  0  0  0  0  0  0  0  0  0  0
   63.8190   33.0319   48.4975 C   0  0  0  0  0  0  0  0  0  0  0  0
   63.0902   32.4071   49.5200 C   0  0  0  0  0  0  0  0  0  0  0  0
   61.7154   32.1827   49.3486 C   0  0  0  0  0  0  0  0  0  0  0  0
   63.7640   31.9464   50.7521 C   0  0  0  0  0  0  0  0  0  0  0  0
   63.7689   30.7139   51.0176 O   0  0  0  0  0  0  0  0  0  0  0  0
   64.3892   32.8704   51.6613 N   0  0  0  0  0  0  0  0  0  0  0  0
   64.0243   34.2740   51.7715 C   0  0  0  0  0  0  0  0  0  0  0  0
   64.5802   34.7376   53.1116 C   0  0  0  0  0  0  0  0  0  0  0  0
   65.6261   33.6986   53.5055 C   0  0  0  0  0  0  0  0  0  0  0  0
   65.2560   32.4349   52.7422 C   0  0  0  0  0  0  0  0  0  0  0  0
  1  2  2  0
  2  3  1  0
  3  4  2  0
  4  9  1  0
  9 10  1  0
 10 11  1  0
 11 12  2  0
 11 13  1  0
 13 14  1  0
 13 15  1  0
 15 16  1  0
  3  5  1  0
  5  6  2  0
  6  7  1  0
  6  8  1  0
  8 17  1  0
 17 18  1  0
 18 19  2  0
 19 20  1  0
 20 21  2  0
 21 22  1  0
 22 24  1  0
 24 25  2  0
 24 26  1  0
 26 27  1  0
 27 28  1  0
 28 29  1  0
 29 30  1  0
 22 23  2  0
  8  2  1  0
 23 18  1  0
 15  9  2  0
 30 26  1  0
M  CHG 1  10  -1
M  CHG 1  14  -1
M  CHG 1  16  -1
M  END
> <UniqueID>
68

> <SMILES>
C=c1/c(=C\c2[n-]c(=O)n([O-])c2[O-])cc(C)n1Cc1cccc(C(=O)N2CCCC2)c1

> <Energy>
131.43943894712

> <Genealogy>
C=c1c(=Cc2[n-]c(=O)n([O-])c2[O-])cc(C)n1Cc1cccc(C(=O)N2CCCC2)c1 (protonated)
C=c1/c(=C\c2[n-]c(=O)n([O-])c2[O-])cc(C)n1Cc1cccc(C(=O)N2CCCC2)c1 (cis-trans isomerization)
C=c1/c(=C\c2[n-]c(=O)n([O-])c2[O-])cc(C)n1Cc1cccc(C(=O)N2CCCC2)c1 (3D coordinates assigned)
C=c1/c(=C\c2[n-]c(=O)n([O-])c2[O-])cc(C)n1Cc1cccc(C(=O)N2CCCC2)c1 (nonaromatic ring conformer: 131.43943894712 kcal/mol)

> <smiles>
C=c1c(=Cc2[nH]c(=O)n(O)c2O)cc(C)n1Cc1cccc(C(=O)N2CCCC2)c1

> <score_type>
oracle

> <origin>
adg

> <m_score__min__energy>
-19.010000000000002

> <m_primary>
energy

> <minimizedAffinity>
-7.67207

> <minimizedRMSD>
1.50699

> <CNNscore>
0.5163557529

> <CNNaffinity>
6.9676570892

> <CNN_VS>
3.5977897644

> <CNNaffinity_variance>
0.2698970735

$$$$
72:0


 33 36  0  0  0  0  0  0  0  0999 V2000
   57.6565   31.2243   52.4082 C   0  0  0  0  0  0  0  0  0  0  0  0
   58.1545   32.2103   53.0165 O   0  0  0  0  0  0  0  0  0  0  0  0
   58.3856   30.6382   51.2674 C   0  0  0  0  0  0  0  0  0  0  0  0
   58.0779   29.4824   50.8704 O   0  0  0  0  0  0  0  0  0  0  0  0
   59.4738   31.3403   50.6344 N   0  0  0  0  0  0  0  0  0  0  0  0
   59.4108   32.7903   50.4050 C   0  0  0  0  0  0  0  0  0  0  0  0
   60.7422   33.4361   50.8016 C   0  0  0  0  0  0  0  0  0  0  0  0
   61.8878   32.6584   50.3042 N   0  0  0  0  0  0  0  0  0  0  0  0
   63.2159   33.1828   50.4856 C   0  0  0  0  0  0  0  0  0  0  0  0
   63.4086   34.4263   50.3823 O   0  0  0  0  0  0  0  0  0  0  0  0
   61.6606   31.4781   49.4565 C   0  0  0  0  0  0  0  0  0  0  0  0
   60.5990   30.5670   50.0863 C   0  0  0  0  0  0  0  0  0  0  0  0
   64.3572   32.3022   50.8241 C   0  0  0  0  0  0  0  0  0  0  0  0
   65.6598   32.6429   50.4171 C   0  0  0  0  0  0  0  0  0  0  0  0
   66.7407   31.8211   50.7501 C   0  0  0  0  0  0  0  0  0  0  0  0
   66.5350   30.6621   51.5027 C   0  0  0  0  0  0  0  0  0  0  0  0
   65.2474   30.3244   51.9242 C   0  0  0  0  0  0  0  0  0  0  0  0
   64.1620   31.1412   51.5917 C   0  0  0  0  0  0  0  0  0  0  0  0
   54.4342   28.8386   55.1468 C   0  0  0  0  0  0  0  0  0  0  0  0
   54.9577   29.5521   54.1368 C   0  0  0  0  0  0  0  0  0  0  0  0
   54.2467   30.1122   53.0688 C   0  0  0  0  0  0  0  0  0  0  0  0
   52.9324   29.9825   52.8051 C   0  0  0  0  0  0  0  0  0  0  0  0
   55.1789   30.7838   52.2933 C   0  0  0  0  0  0  0  0  0  0  0  0
   56.4019   30.6319   52.9157 C   0  0  0  0  0  0  0  0  0  0  0  0
   56.2766   29.8554   54.0200 N   0  0  0  0  0  0  0  0  0  0  0  0
   57.3614   29.3883   54.8929 C   0  0  0  0  0  0  0  0  0  0  0  0
   52.3072   30.3728   51.5292 C   0  0  0  0  0  0  0  0  0  0  0  0
   52.2517   29.5646   50.4561 N   0  0  0  0  0  0  0  0  0  0  0  0
   51.5457   30.2810   49.5577 C   0  0  0  0  0  0  0  0  0  0  0  0
   51.2900   29.8563   48.3996 O   0  0  0  0  0  0  0  0  0  0  0  0
   51.1253   31.4857   49.9980 N   0  0  0  0  0  0  0  0  0  0  0  0
   51.6050   31.5260   51.2516 C   0  0  0  0  0  0  0  0  0  0  0  0
   51.3663   32.5732   52.1337 O   0  0  0  0  0  0  0  0  0  0  0  0
 19 20  2  0
 20 21  1  0
 21 22  2  0
 22 27  1  0
 27 28  1  0
 28 29  1  0
 29 30  2  0
 29 31  1  0
 31 32  1  0
 32 33  1  0
 21 23  1  0
 23 24  2  0
 24  1  1  0
  1  2  2  0
  1  3  1  0
  3  4  2  0
  3  5  1  0
  5  6  1  0
  6  7  1  0
  7  8  1  0
  8  9  1  0
  9 10  2  0
  9 13  1  0
 13 14  2  0
 14 15  1  0
 15 16  2  0
 16 17  1  0
 17 18  2  0
  8 11  1  0
 11 12  1  0
 24 25  1  0
 25 26  1  0
 25 20  1  0
 32 27  2  0
 12  5  1  0
 18 13  1  0
M  CHG 1  28  -1
M  CHG 1  31  -1
M  CHG 1  33  -1
M  END
> <UniqueID>
69

> <SMILES>
C=c1/c(=C/c2[n-]c(=O)[n-]c2[O-])cc(C(=O)C(=O)N2CCN(C(=O)c3ccccc3)CC2)n1C

> <Energy>
134.69160674878407

> <Genealogy>
C=c1c(=Cc2[n-]c(=O)[n-]c2[O-])cc(C(=O)C(=O)N2CCN(C(=O)c3ccccc3)CC2)n1C (protonated)
C=c1/c(=C/c2[n-]c(=O)[n-]c2[O-])cc(C(=O)C(=O)N2CCN(C(=O)c3ccccc3)CC2)n1C (cis-trans isomerization)
C=c1/c(=C/c2[n-]c(=O)[n-]c2[O-])cc(C(=O)C(=O)N2CCN(C(=O)c3ccccc3)CC2)n1C (3D coordinates assigned)
C=c1/c(=C/c2[n-]c(=O)[n-]c2[O-])cc(C(=O)C(=O)N2CCN(C(=O)c3ccccc3)CC2)n1C (nonaromatic ring conformer: 134.69160674878407 kcal/mol)

> <smiles>
C=c1c(=Cc2[nH]c(=O)[nH]c2O)cc(C(=O)C(=O)N2CCN(C(=O)c3ccccc3)CC2)n1C

> <score_type>
oracle

> <origin>
adg

> <m_score__min__energy>
-18.82

> <m_primary>
energy

> <minimizedAffinity>
-6.64840

> <minimizedRMSD>
0.95934

> <CNNscore>
0.1244638115

> <CNNaffinity>
4.6685967445

> <CNN_VS>
0.5810713172

> <CNNaffinity_variance>
0.7903220057

$$$$
74:0


 25 28  0  0  0  0  0  0  0  0999 V2000
   58.4144   28.6758   46.1204 C   0  0  0  0  0  0  0  0  0  0  0  0
   57.3903   29.2542   45.3836 C   0  0  0  0  0  0  0  0  0  0  0  0
   56.3651   28.5476   44.7698 O   0  0  0  0  0  0  0  0  0  0  0  0
   57.4924   30.6027   45.3291 N   0  0  0  0  0  0  0  0  0  0  0  0
   58.6100   30.8745   46.0307 C   0  0  0  0  0  0  0  0  0  0  0  0
   59.1655   32.1346   46.2386 C   0  0  0  0  0  0  0  0  0  0  0  0
   60.3819   32.2220   46.9501 C   0  0  0  0  0  0  0  0  0  0  0  0
   61.0006   31.0411   47.4315 C   0  0  0  0  0  0  0  0  0  0  0  0
   60.4202   29.7825   47.2034 C   0  0  0  0  0  0  0  0  0  0  0  0
   59.2063   29.7365   46.5162 C   0  0  0  0  0  0  0  0  0  0  0  0
   56.5898   23.8205   43.9150 C   0  0  0  0  0  0  0  0  0  0  0  0
   56.8137   24.7521   44.8381 C   0  0  0  0  0  0  0  0  0  0  0  0
   57.9229   25.5113   44.8854 N   0  0  0  0  0  0  0  0  0  0  0  0
   57.7272   26.3010   45.9690 C   0  0  0  0  0  0  0  0  0  0  0  0
   58.6125   27.2316   46.3430 C   0  0  0  0  0  0  0  0  0  0  0  0
   56.5475   26.0865   46.6011 N   0  0  0  0  0  0  0  0  0  0  0  0
   55.9884   25.1041   45.8769 C   0  0  0  0  0  0  0  0  0  0  0  0
   54.8636   24.5991   46.1360 O   0  0  0  0  0  0  0  0  0  0  0  0
   60.9947   33.5656   47.2359 C   0  0  0  0  0  0  0  0  0  0  0  0
   61.9479   33.4643   48.3953 C   0  0  0  0  0  0  0  0  0  0  0  0
   61.5022   33.7200   49.7026 C   0  0  0  0  0  0  0  0  0  0  0  0
   62.3978   33.6616   50.7757 C   0  0  0  0  0  0  0  0  0  0  0  0
   63.7427   33.3548   50.5487 C   0  0  0  0  0  0  0  0  0  0  0  0
   64.1960   33.1102   49.2501 C   0  0  0  0  0  0  0  0  0  0  0  0
   63.3026   33.1687   48.1751 C   0  0  0  0  0  0  0  0  0  0  0  0
 11 12  2  0
 12 13  1  0
 13 14  1  0
 14 15  2  0
 15  1  1  0
  1  2  2  0
  2  3  1  0
  2  4  1  0
  4  5  1  0
  5  6  2  0
  6  7  1  0
  7 19  1  0
 19 20  1  0
 20 21  2  0
 21 22  1  0
 22 23  2  0
 23 24  1  0
 24 25  2  0
  7  8  2  0
  8  9  1  0
  9 10  2  0
 14 16  1  0
 16 17  1  0
 17 18  2  0
 17 12  1  0
 10  1  1  0
 10  5  1  0
 25 20  1  0
M  CHG 1   3  -1
M  CHG 1   4  -1
M  CHG 1  13  -1
M  CHG 1  16  -1
M  END
> <UniqueID>
71

> <SMILES>
C=c1[n-]/c(=C/c2c([O-])[n-]c3cc(Cc4ccccc4)ccc23)[n-]c1=O

> <Energy>
108.13436162619867

> <Genealogy>
C=c1[n-]c(=Cc2c([O-])[n-]c3cc(Cc4ccccc4)ccc23)[n-]c1=O (protonated)
C=c1[n-]/c(=C/c2c([O-])[n-]c3cc(Cc4ccccc4)ccc23)[n-]c1=O (cis-trans isomerization)
C=c1[n-]/c(=C/c2c([O-])[n-]c3cc(Cc4ccccc4)ccc23)[n-]c1=O (3D coordinates assigned)
C=c1[n-]/c(=C/c2c([O-])[n-]c3cc(Cc4ccccc4)ccc23)[n-]c1=O (optimized conformer: 108.13436162619867 kcal/mol)

> <smiles>
C=c1[nH]c(=Cc2c(O)[nH]c3cc(Cc4ccccc4)ccc23)[nH]c1=O

> <score_type>
oracle

> <origin>
adg

> <m_score__min__energy>
-17

> <m_primary>
energy

> <minimizedAffinity>
-8.89116

> <minimizedRMSD>
1.26971

> <CNNscore>
0.3976999223

> <CNNaffinity>
6.8463015556

> <CNN_VS>
2.7227735519

> <CNNaffinity_variance>
0.4485485554

$$$$
80:0


 37 41  0  0  0  0  0  0  0  0999 V2000
   58.6126   33.5297   46.2829 C   0  0  0  0  0  0  0  0  0  0  0  0
   59.5934   34.5253   46.1741 C   0  0  0  0  0  0  0  0  0  0  0  0
   60.5947   34.6352   47.1402 C   0  0  0  0  0  0  0  0  0  0  0  0
   60.6137   33.7651   48.2336 C   0  0  0  0  0  0  0  0  0  0  0  0
   59.6280   32.7721   48.3729 C   0  0  0  0  0  0  0  0  0  0  0  0
   58.6291   32.6636   47.3873 C   0  0  0  0  0  0  0  0  0  0  0  0
   59.6435   31.8504   49.5358 C   0  0  0  0  0  0  0  0  0  0  0  0
   60.8268   31.3835   50.0266 N   0  0  0  0  0  0  0  0  0  0  0  0
   60.8748   30.5477   51.0968 C   0  0  0  0  0  0  0  0  0  0  0  0
   61.9908   30.1402   51.5158 O   0  0  0  0  0  0  0  0  0  0  0  0
   59.6832   30.1545   51.7190 C   0  0  0  0  0  0  0  0  0  0  0  0
   59.6353   29.3077   52.8325 C   0  0  0  0  0  0  0  0  0  0  0  0
   58.4346   28.9840   53.3795 N   0  0  0  0  0  0  0  0  0  0  0  0
   57.2651   29.4601   52.8672 C   0  0  0  0  0  0  0  0  0  0  0  0
   57.2964   30.2813   51.7796 N   0  0  0  0  0  0  0  0  0  0  0  0
   58.4717   30.6390   51.2019 C   0  0  0  0  0  0  0  0  0  0  0  0
   58.4772   31.4709   50.1290 N   0  0  0  0  0  0  0  0  0  0  0  0
   56.0049   29.1013   53.4713 N   0  0  0  0  0  0  0  0  0  0  0  0
   54.7516   29.5990   52.8915 C   0  0  0  0  0  0  0  0  0  0  0  0
   53.5799   28.7030   53.3016 C   0  0  0  0  0  0  0  0  0  0  0  0
   53.5569   28.5203   54.7035 O   0  0  0  0  0  0  0  0  0  0  0  0
   54.6987   27.7892   55.1007 C   0  0  0  0  0  0  0  0  0  0  0  0
   55.9790   28.5927   54.8494 C   0  0  0  0  0  0  0  0  0  0  0  0
   57.5206   33.4279   45.2560 C   0  0  0  0  0  0  0  0  0  0  0  0
   57.4477   31.2413   43.9595 C   0  0  0  0  0  0  0  0  0  0  0  0
   57.9439   31.7894   42.9405 O   0  0  0  0  0  0  0  0  0  0  0  0
   57.1044   32.0352   45.1069 N   0  0  0  0  0  0  0  0  0  0  0  0
   56.5668   31.6240   45.8218 H   0  0  0  0  0  0  0  0  0  0  0  0
   57.1460   29.8000   43.9108 C   0  0  0  0  0  0  0  0  0  0  0  0
   56.9752   29.0159   44.9859 C   0  0  0  0  0  0  0  0  0  0  0  0
   58.0170   28.1414   45.5685 C   0  0  0  0  0  0  0  0  0  0  0  0
   59.3705   28.5268   45.5560 C   0  0  0  0  0  0  0  0  0  0  0  0
   60.3530   27.6675   46.0574 C   0  0  0  0  0  0  0  0  0  0  0  0
   59.9956   26.4208   46.5779 C   0  0  0  0  0  0  0  0  0  0  0  0
   58.6562   26.0230   46.5801 C   0  0  0  0  0  0  0  0  0  0  0  0
   57.6688   26.8726   46.0668 C   0  0  0  0  0  0  0  0  0  0  0  0
   56.3424   26.4548   46.0671 O   0  0  0  0  0  0  0  0  0  0  0  0
 29 25  1  0
 25 26  2  0
 25 27  1  0
 27 24  1  0
 24  1  1  0
  1  2  2  0
  2  3  1  0
  3  4  2  0
  4  5  1  0
  5  7  1  0
  7  8  2  0
  8  9  1  0
  9 10  2  0
  9 11  1  0
 11 12  2  0
 12 13  1  0
 13 14  2  0
 14 18  1  0
 18 19  1  0
 19 20  1  0
 20 21  1  0
 21 22  1  0
 22 23  1  0
 14 15  1  0
 15 16  2  0
 16 17  1  0
  5  6  2  0
 29 30  2  0
 30 31  1  0
 31 32  2  0
 32 33  1  0
 33 34  2  0
 34 35  1  0
 35 36  2  0
 36 37  1  0
  6  1  1  0
 36 31  1  0
 17  7  1  0
 16 11  1  0
 23 18  1  0
 27 28  1  0
M  CHG 1  17  -1
M  CHG 1  37  -1
M  END
> <UniqueID>
76

> <SMILES>
O=C(/C=C\c1ccccc1[O-])NCc1cccc(-c2nc(=O)c3cnc(N4CCOCC4)nc3[n-]2)c1

> <Energy>
76.15981930053559

> <Genealogy>
O=C(C=Cc1ccccc1[O-])NCc1cccc(-c2nc(=O)c3cnc(N4CCOCC4)nc3[n-]2)c1 (protonated)
O=C(/C=C\c1ccccc1[O-])NCc1cccc(-c2nc(=O)c3cnc(N4CCOCC4)nc3[n-]2)c1 (cis-trans isomerization)
O=C(/C=C\c1ccccc1[O-])NCc1cccc(-c2nc(=O)c3cnc(N4CCOCC4)nc3[n-]2)c1 (3D coordinates assigned)
O=C(/C=C\c1ccccc1[O-])NCc1cccc(-c2nc(=O)c3cnc(N4CCOCC4)nc3[n-]2)c1 (nonaromatic ring conformer: 76.15981930053559 kcal/mol)

> <smiles>
O=C(C=Cc1ccccc1O)NCc1cccc(-c2nc(=O)c3cnc(N4CCOCC4)nc3[nH]2)c1

> <score_type>
oracle

> <origin>
adg

> <m_score__min__energy>
-14.609999999999999

> <m_primary>
energy

> <minimizedAffinity>
-8.47214

> <minimizedRMSD>
0.82355

> <CNNscore>
0.2900526226

> <CNNaffinity>
6.7255992889

> <CNN_VS>
1.9507777691

> <CNNaffinity_variance>
0.1198668554

$$$$
87:0


 31 34  0  0  0  0  0  0  0  0999 V2000
   56.6969   30.1986   43.6707 C   0  0  0  0  0  0  0  0  0  0  0  0
   57.5079   29.5867   44.5377 C   0  0  0  0  0  0  0  0  0  0  0  0
   57.7067   28.2553   44.5544 N   0  0  0  0  0  0  0  0  0  0  0  0
   58.5391   27.9888   45.5845 C   0  0  0  0  0  0  0  0  0  0  0  0
   58.9685   26.7447   45.8633 C   0  0  0  0  0  0  0  0  0  0  0  0
   58.8749   29.1713   46.2370 C   0  0  0  0  0  0  0  0  0  0  0  0
   58.2283   30.1867   45.5601 C   0  0  0  0  0  0  0  0  0  0  0  0
   57.3182   27.5986   43.9322 H   0  0  0  0  0  0  0  0  0  0  0  0
   58.1158   25.5342   45.9299 C   0  0  0  0  0  0  0  0  0  0  0  0
   58.5675   24.2678   45.9130 N   0  0  0  0  0  0  0  0  0  0  0  0
   57.4440   23.5263   46.0127 C   0  0  0  0  0  0  0  0  0  0  0  0
   57.4618   22.2672   46.0295 O   0  0  0  0  0  0  0  0  0  0  0  0
   56.3019   24.2395   46.1051 N   0  0  0  0  0  0  0  0  0  0  0  0
   56.7401   25.5084   46.0540 C   0  0  0  0  0  0  0  0  0  0  0  0
   55.8838   26.6075   46.1029 O   0  0  0  0  0  0  0  0  0  0  0  0
   54.9598   26.4780   46.1892 H   0  0  0  0  0  0  0  0  0  0  0  0
   58.3190   31.6187   45.8933 C   0  0  0  0  0  0  0  0  0  0  0  0
   57.2617   32.3088   45.8950 O   0  0  0  0  0  0  0  0  0  0  0  0
   59.5713   32.2223   46.2713 N   0  0  0  0  0  0  0  0  0  0  0  0
   60.5396   31.4382   47.0561 C   0  0  0  0  0  0  0  0  0  0  0  0
   61.6655   32.3174   47.6294 C   0  0  0  0  0  0  0  0  0  0  0  0
   61.1475   33.6280   48.2764 C   0  0  0  0  0  0  0  0  0  0  0  0
   59.9979   34.3025   47.4803 C   0  0  0  0  0  0  0  0  0  0  0  0
   59.7819   33.6657   46.1063 C   0  0  0  0  0  0  0  0  0  0  0  0
   60.7363   33.4202   49.7200 C   0  0  0  0  0  0  0  0  0  0  0  0
   59.5133   33.2956   50.0023 O   0  0  0  0  0  0  0  0  0  0  0  0
   61.7029   33.4451   50.7889 N   0  0  0  0  0  0  0  0  0  0  0  0
   61.3246   33.3070   52.1852 C   0  0  0  0  0  0  0  0  0  0  0  0
   62.6308   33.2912   52.9701 C   0  0  0  0  0  0  0  0  0  0  0  0
   63.6989   33.8224   52.0166 C   0  0  0  0  0  0  0  0  0  0  0  0
   63.1286   33.6636   50.6125 C   0  0  0  0  0  0  0  0  0  0  0  0
  1  2  2  0
  2  3  1  0
  3  4  1  0
  4  5  2  0
  5  9  1  0
  9 10  1  0
 10 11  1  0
 11 12  2  0
 11 13  1  0
 13 14  1  0
 14 15  1  0
  4  6  1  0
  6  7  2  0
  7 17  1  0
 17 18  2  0
 17 19  1  0
 19 20  1  0
 20 21  1  0
 21 22  1  0
 22 25  1  0
 25 26  2  0
 25 27  1  0
 27 28  1  0
 28 29  1  0
 29 30  1  0
 30 31  1  0
 22 23  1  0
 23 24  1  0
  7  2  1  0
 24 19  1  0
 14  9  2  0
 31 27  1  0
  3  8  1  0
 15 16  1  0
M  CHG 1  10  -1
M  CHG 1  13  -1
M  END
> <UniqueID>
82

> <SMILES>
C=c1[nH]c(=Cc2[n-]c(=O)[n-]c2O)cc1C(=O)N1CCC(C(=O)N2CCCC2)CC1

> <Energy>
120.52007840177977

> <Genealogy>
C=c1[nH]c(=Cc2[n-]c(=O)[n-]c2O)cc1C(=O)N1CCC(C(=O)N2CCCC2)CC1 (protonated)
C=c1[nH]c(=Cc2[n-]c(=O)[n-]c2O)cc1C(=O)N1CCC(C(=O)N2CCCC2)CC1 (3D coordinates assigned)
C=c1[nH]c(=Cc2[n-]c(=O)[n-]c2O)cc1C(=O)N1CCC(C(=O)N2CCCC2)CC1 (nonaromatic ring conformer: 120.52007840177977 kcal/mol)

> <smiles>
C=c1[nH]c(=Cc2[nH]c(=O)[nH]c2O)cc1C(=O)N1CCC(C(=O)N2CCCC2)CC1

> <score_type>
oracle

> <origin>
adg

> <m_score__min__energy>
-14.32

> <m_primary>
energy

> <minimizedAffinity>
-10.29403

> <minimizedRMSD>
1.12408

> <CNNscore>
0.4774202108

> <CNNaffinity>
6.8415017128

> <CNN_VS>
3.2662711143

> <CNNaffinity_variance>
0.0282728169

$$$$
5:0


 25 27  0  0  0  0  0  0  0  0999 V2000
   60.5463   28.4735   49.4035 C   0  0  0  0  0  0  0  0  0  0  0  0
   60.0040   28.4692   48.1839 C   0  0  0  0  0  0  0  0  0  0  0  0
   60.0281   29.5090   47.2654 C   0  0  0  0  0  0  0  0  0  0  0  0
   59.3382   29.0599   46.1441 C   0  0  0  0  0  0  0  0  0  0  0  0
   59.3105   29.7695   44.8181 C   0  0  0  0  0  0  0  0  0  0  0  0
   58.8849   27.7704   46.4527 C   0  0  0  0  0  0  0  0  0  0  0  0
   58.1560   26.9210   45.7031 C   0  0  0  0  0  0  0  0  0  0  0  0
   59.3211   27.4224   47.6840 N   0  0  0  0  0  0  0  0  0  0  0  0
   59.1672   26.5601   48.1335 H   0  0  0  0  0  0  0  0  0  0  0  0
   60.7210   30.8068   47.4096 C   0  0  0  0  0  0  0  0  0  0  0  0
   61.9659   30.8099   47.6062 O   0  0  0  0  0  0  0  0  0  0  0  0
   60.0069   32.0563   47.3111 N   0  0  0  0  0  0  0  0  0  0  0  0
   60.7607   33.2757   46.9942 C   0  0  0  0  0  0  0  0  0  0  0  0
   59.8490   34.5117   46.9902 C   0  0  0  0  0  0  0  0  0  0  0  0
   58.5591   34.2398   46.3245 N   0  0  0  0  0  0  0  0  0  0  0  0
   58.7193   34.0497   44.8727 C   0  0  0  0  0  0  0  0  0  0  0  0
   57.7918   33.1328   46.9501 C   0  0  0  0  0  0  0  0  0  0  0  0
   58.6373   32.1816   47.8242 C   0  0  0  0  0  0  0  0  0  0  0  0
   57.5448   25.6652   46.1663 C   0  0  0  0  0  0  0  0  0  0  0  0
   58.2097   24.5114   46.3617 N   0  0  0  0  0  0  0  0  0  0  0  0
   57.2272   23.6290   46.6448 C   0  0  0  0  0  0  0  0  0  0  0  0
   57.4576   22.4204   46.9067 O   0  0  0  0  0  0  0  0  0  0  0  0
   55.9778   24.1401   46.6128 N   0  0  0  0  0  0  0  0  0  0  0  0
   56.1977   25.4274   46.2942 C   0  0  0  0  0  0  0  0  0  0  0  0
   55.1868   26.3635   46.1190 O   0  0  0  0  0  0  0  0  0  0  0  0
  1  2  2  0
  2  3  1  0
  3 10  1  0
 10 11  2  0
 10 12  1  0
 12 13  1  0
 13 14  1  0
 14 15  1  0
 15 16  1  0
 15 17  1  0
 17 18  1  0
  3  4  2  0
  4  5  1  0
  4  6  1  0
  6  7  2  0
  7 19  1  0
 19 20  1  0
 20 21  1  0
 21 22  2  0
 21 23  1  0
 23 24  1  0
 24 25  1  0
  6  8  1  0
  8  2  1  0
 18 12  1  0
 24 19  2  0
  8  9  1  0
M  CHG 1  20  -1
M  CHG 1  23  -1
M  CHG 1  25  -1
M  END
> <UniqueID>
6

> <SMILES>
C=c1[nH]/c(=C/c2[n-]c(=O)[n-]c2[O-])c(C)c1C(=O)N1CCN(C)CC1

> <Energy>
119.75333468108172

> <Genealogy>
C=c1[nH]c(=Cc2[n-]c(=O)[n-]c2[O-])c(C)c1C(=O)N1CCN(C)CC1 (protonated)
C=c1[nH]/c(=C/c2[n-]c(=O)[n-]c2[O-])c(C)c1C(=O)N1CCN(C)CC1 (cis-trans isomerization)
C=c1[nH]/c(=C/c2[n-]c(=O)[n-]c2[O-])c(C)c1C(=O)N1CCN(C)CC1 (3D coordinates assigned)
C=c1[nH]/c(=C/c2[n-]c(=O)[n-]c2[O-])c(C)c1C(=O)N1CCN(C)CC1 (nonaromatic ring conformer: 119.75333468108172 kcal/mol)

> <smiles>
C=c1[nH]c(=Cc2[nH]c(=O)[nH]c2O)c(C)c1C(=O)N1CCN(C)CC1

> <score_type>
oracle

> <origin>
adg

> <m_score__min__energy>
-15.75

> <m_primary>
energy

> <minimizedAffinity>
-7.63716

> <minimizedRMSD>
0.58718

> <CNNscore>
0.1136485413

> <CNNaffinity>
5.2254676819

> <CNN_VS>
0.5938667655

> <CNNaffinity_variance>
0.3612918556

$$$$
7:0


 24 26  0  0  0  0  0  0  0  0999 V2000
   61.0179   29.8743   49.7271 C   0  0  0  0  0  0  0  0  0  0  0  0
   60.3512   29.2769   48.7343 C   0  0  0  0  0  0  0  0  0  0  0  0
   59.8272   30.0409   47.7819 O   0  0  0  0  0  0  0  0  0  0  0  0
   59.1531   29.5579   46.7457 C   0  0  0  0  0  0  0  0  0  0  0  0
   58.9733   28.1744   46.6173 C   0  0  0  0  0  0  0  0  0  0  0  0
   59.4654   27.3034   47.6043 C   0  0  0  0  0  0  0  0  0  0  0  0
   59.2375   25.9768   47.4523 C   0  0  0  0  0  0  0  0  0  0  0  0
   60.2049   27.8719   48.6749 C   0  0  0  0  0  0  0  0  0  0  0  0
   60.7688   27.1481   49.5406 O   0  0  0  0  0  0  0  0  0  0  0  0
   58.4217   25.3420   46.3970 C   0  0  0  0  0  0  0  0  0  0  0  0
   58.7889   24.2514   45.6995 N   0  0  0  0  0  0  0  0  0  0  0  0
   57.6893   23.9577   44.9728 C   0  0  0  0  0  0  0  0  0  0  0  0
   57.6469   22.9918   44.1677 O   0  0  0  0  0  0  0  0  0  0  0  0
   56.6362   24.7756   45.1832 N   0  0  0  0  0  0  0  0  0  0  0  0
   57.1104   25.6388   46.0974 C   0  0  0  0  0  0  0  0  0  0  0  0
   56.3509   26.6722   46.6414 O   0  0  0  0  0  0  0  0  0  0  0  0
   55.4619   26.7927   46.3711 H   0  0  0  0  0  0  0  0  0  0  0  0
   58.6308   30.5022   45.7322 C   0  0  0  0  0  0  0  0  0  0  0  0
   58.8421   31.8799   45.9156 C   0  0  0  0  0  0  0  0  0  0  0  0
   58.3668   32.8029   44.9802 C   0  0  0  0  0  0  0  0  0  0  0  0
   57.6634   32.3613   43.8571 C   0  0  0  0  0  0  0  0  0  0  0  0
   57.4250   30.9984   43.6745 C   0  0  0  0  0  0  0  0  0  0  0  0
   57.8934   30.0677   44.6086 C   0  0  0  0  0  0  0  0  0  0  0  0
   57.5946   28.7210   44.4234 O   0  0  0  0  0  0  0  0  0  0  0  0
  1  2  2  0
  2  3  1  0
  3  4  1  0
  4 18  1  0
 18 19  2  0
 19 20  1  0
 20 21  2  0
 21 22  1  0
 22 23  2  0
 23 24  1  0
  4  5  2  0
  5  6  1  0
  6  7  2  0
  7 10  1  0
 10 11  1  0
 11 12  1  0
 12 13  2  0
 12 14  1  0
 14 15  1  0
 15 16  1  0
  6  8  1  0
  8  9  2  0
  8  2  1  0
 23 18  1  0
 15 10  2  0
 16 17  1  0
M  CHG 1  11  -1
M  CHG 1  14  -1
M  CHG 1  24  -1
M  END
> <UniqueID>
8

> <SMILES>
C=c1oc(-c2ccccc2[O-])cc(=Cc2[n-]c(=O)[n-]c2O)c1=O

> <Energy>
83.9975451231361

> <Genealogy>
C=c1oc(-c2ccccc2[O-])cc(=Cc2[n-]c(=O)[n-]c2O)c1=O (protonated)
C=c1oc(-c2ccccc2[O-])cc(=Cc2[n-]c(=O)[n-]c2O)c1=O (3D coordinates assigned)
C=c1oc(-c2ccccc2[O-])cc(=Cc2[n-]c(=O)[n-]c2O)c1=O (optimized conformer: 83.9975451231361 kcal/mol)

> <smiles>
C=c1oc(-c2ccccc2O)cc(=Cc2[nH]c(=O)[nH]c2O)c1=O

> <score_type>
oracle

> <origin>
adg

> <m_score__min__energy>
-14.92

> <m_primary>
energy

> <minimizedAffinity>
-7.26413

> <minimizedRMSD>
1.81314

> <CNNscore>
0.4695878625

> <CNNaffinity>
5.9554686546

> <CNN_VS>
2.7966158390

> <CNNaffinity_variance>
0.0615654178

$$$$
11:0


 25 27  0  0  0  0  0  0  0  0999 V2000
   59.3773   29.3674   47.9151 C   0  0  0  0  0  0  0  0  0  0  0  0
   59.0335   29.4856   46.6222 C   0  0  0  0  0  0  0  0  0  0  0  0
   58.9718   28.4510   45.6781 C   0  0  0  0  0  0  0  0  0  0  0  0
   59.2676   27.1484   45.8840 C   0  0  0  0  0  0  0  0  0  0  0  0
   58.5164   29.0334   44.4998 C   0  0  0  0  0  0  0  0  0  0  0  0
   58.3365   30.3773   44.7627 C   0  0  0  0  0  0  0  0  0  0  0  0
   57.8288   31.3817   43.7747 C   0  0  0  0  0  0  0  0  0  0  0  0
   58.6541   30.6528   46.0456 N   0  0  0  0  0  0  0  0  0  0  0  0
   58.5652   31.9495   46.6638 C   0  0  0  0  0  0  0  0  0  0  0  0
   57.5058   32.6201   46.5307 O   0  0  0  0  0  0  0  0  0  0  0  0
   58.2877   26.0704   46.1439 C   0  0  0  0  0  0  0  0  0  0  0  0
   58.5793   24.7981   46.4713 N   0  0  0  0  0  0  0  0  0  0  0  0
   57.3674   24.2299   46.6428 C   0  0  0  0  0  0  0  0  0  0  0  0
   57.2241   23.0194   46.9574 O   0  0  0  0  0  0  0  0  0  0  0  0
   56.3210   25.0609   46.4557 N   0  0  0  0  0  0  0  0  0  0  0  0
   56.9215   26.2201   46.1450 C   0  0  0  0  0  0  0  0  0  0  0  0
   56.2318   27.3947   45.8695 O   0  0  0  0  0  0  0  0  0  0  0  0
   59.7050   32.5161   47.4266 C   0  0  0  0  0  0  0  0  0  0  0  0
   59.5092   33.0326   48.7186 C   0  0  0  0  0  0  0  0  0  0  0  0
   60.5801   33.5693   49.4388 C   0  0  0  0  0  0  0  0  0  0  0  0
   61.8656   33.6053   48.8762 C   0  0  0  0  0  0  0  0  0  0  0  0
   62.0627   33.0982   47.5843 C   0  0  0  0  0  0  0  0  0  0  0  0
   60.9919   32.5605   46.8630 C   0  0  0  0  0  0  0  0  0  0  0  0
   63.0084   34.1670   49.6196 C   0  0  0  0  0  0  0  0  0  0  0  0
   62.8961   34.5007   50.8299 O   0  0  0  0  0  0  0  0  0  0  0  0
  1  2  2  0
  2  3  1  0
  3  4  2  0
  4 11  1  0
 11 12  1  0
 12 13  1  0
 13 14  2  0
 13 15  1  0
 15 16  1  0
 16 17  1  0
  3  5  1  0
  5  6  2  0
  6  7  1  0
  6  8  1  0
  8  9  1  0
  9 10  2  0
  9 18  1  0
 18 19  2  0
 19 20  1  0
 20 21  2  0
 21 24  1  0
 24 25  2  0
 21 22  1  0
 22 23  2  0
  8  2  1  0
 23 18  1  0
 16 11  2  0
M  CHG 1  12  -1
M  CHG 1  15  -1
M  CHG 1  17  -1
M  END
> <UniqueID>
10

> <SMILES>
C=c1c(=Cc2[n-]c(=O)[n-]c2[O-])cc(C)n1C(=O)c1ccc(C=O)cc1

> <Energy>
108.25195784770357

> <Genealogy>
C=c1c(=Cc2[n-]c(=O)[n-]c2[O-])cc(C)n1C(=O)c1ccc(C=O)cc1 (protonated)
C=c1c(=Cc2[n-]c(=O)[n-]c2[O-])cc(C)n1C(=O)c1ccc(C=O)cc1 (3D coordinates assigned)
C=c1c(=Cc2[n-]c(=O)[n-]c2[O-])cc(C)n1C(=O)c1ccc(C=O)cc1 (optimized conformer: 108.25195784770357 kcal/mol)

> <smiles>
C=c1c(=Cc2[nH]c(=O)[nH]c2O)cc(C)n1C(=O)c1ccc(C=O)cc1

> <score_type>
oracle

> <origin>
adg

> <m_score__min__energy>
-15.83

> <m_primary>
energy

> <minimizedAffinity>
-7.64951

> <minimizedRMSD>
1.11566

> <CNNscore>
0.3451972604

> <CNNaffinity>
6.6678709984

> <CNN_VS>
2.3017308712

> <CNNaffinity_variance>
0.1976709366

$$$$
12:0


 26 28  0  0  0  0  0  0  0  0999 V2000
   60.2897   25.7835   46.2704 C   0  0  0  0  0  0  0  0  0  0  0  0
   59.2243   26.5425   45.9994 C   0  0  0  0  0  0  0  0  0  0  0  0
   59.2614   27.7234   45.2793 C   0  0  0  0  0  0  0  0  0  0  0  0
   57.9573   28.1818   45.2231 C   0  0  0  0  0  0  0  0  0  0  0  0
   57.1338   27.3439   45.8875 N   0  0  0  0  0  0  0  0  0  0  0  0
   57.8926   26.3288   46.3583 C   0  0  0  0  0  0  0  0  0  0  0  0
   57.4147   25.3036   47.0905 C   0  0  0  0  0  0  0  0  0  0  0  0
   56.1626   27.4518   46.0069 H   0  0  0  0  0  0  0  0  0  0  0  0
   56.3200   24.4184   46.6347 C   0  0  0  0  0  0  0  0  0  0  0  0
   55.1199   24.9700   46.1623 C   0  0  0  0  0  0  0  0  0  0  0  0
   54.9568   26.3492   46.0858 O   0  0  0  0  0  0  0  0  0  0  0  0
   54.1078   24.1573   45.7654 N   0  0  0  0  0  0  0  0  0  0  0  0
   54.2281   22.8067   45.8283 C   0  0  0  0  0  0  0  0  0  0  0  0
   53.2785   22.0726   45.4489 O   0  0  0  0  0  0  0  0  0  0  0  0
   55.3681   22.2471   46.3067 N   0  0  0  0  0  0  0  0  0  0  0  0
   56.4090   23.0161   46.7181 C   0  0  0  0  0  0  0  0  0  0  0  0
   57.4371   22.4611   47.1891 O   0  0  0  0  0  0  0  0  0  0  0  0
   57.5276   29.4417   44.5832 C   0  0  0  0  0  0  0  0  0  0  0  0
   56.7141   29.3882   43.6189 O   0  0  0  0  0  0  0  0  0  0  0  0
   58.0249   30.7623   45.0325 C   0  0  0  0  0  0  0  0  0  0  0  0
   58.7194   30.8986   46.2496 C   0  0  0  0  0  0  0  0  0  0  0  0
   59.1747   32.1522   46.6663 C   0  0  0  0  0  0  0  0  0  0  0  0
   58.9307   33.2838   45.8834 C   0  0  0  0  0  0  0  0  0  0  0  0
   59.5541   34.9968   46.4567 Br  0  0  0  0  0  0  0  0  0  0  0  0
   58.2244   33.1617   44.6827 C   0  0  0  0  0  0  0  0  0  0  0  0
   57.7693   31.9090   44.2620 C   0  0  0  0  0  0  0  0  0  0  0  0
  1  2  2  0
  2  3  1  0
  3  4  2  0
  4 18  1  0
 18 19  2  0
 18 20  1  0
 20 21  2  0
 21 22  1  0
 22 23  2  0
 23 24  1  0
 23 25  1  0
 25 26  2  0
  4  5  1  0
  5  6  1  0
  6  7  2  0
  7  9  1  0
  9 10  2  0
 10 11  1  0
 10 12  1  0
 12 13  1  0
 13 14  2  0
 13 15  1  0
 15 16  1  0
 16 17  2  0
  6  2  1  0
 16  9  1  0
 26 20  1  0
  5  8  1  0
M  CHG 1  11  -1
M  CHG 1  12  -1
M  CHG 1  15  -1
M  END
> <UniqueID>
11

> <SMILES>
C=c1cc(C(=O)c2ccc(Br)cc2)[nH]c1=Cc1c([O-])[n-]c(=O)[n-]c1=O

> <Energy>
77.56316548434607

> <Genealogy>
C=c1cc(C(=O)c2ccc(Br)cc2)[nH]c1=Cc1c([O-])[n-]c(=O)[n-]c1=O (protonated)
C=c1cc(C(=O)c2ccc(Br)cc2)[nH]c1=Cc1c([O-])[n-]c(=O)[n-]c1=O (3D coordinates assigned)
C=c1cc(C(=O)c2ccc(Br)cc2)[nH]c1=Cc1c([O-])[n-]c(=O)[n-]c1=O (optimized conformer: 77.56316548434607 kcal/mol)

> <smiles>
C=c1cc(C(=O)c2ccc(Br)cc2)[nH]c1=Cc1c(O)[nH]c(=O)[nH]c1=O

> <score_type>
oracle

> <origin>
adg

> <m_score__min__energy>
-16.280000000000001

> <m_primary>
energy

> <minimizedAffinity>
-8.03096

> <minimizedRMSD>
0.39815

> <CNNscore>
0.4059830606

> <CNNaffinity>
6.4966163635

> <CNN_VS>
2.6375162601

> <CNNaffinity_variance>
0.0672271326

$$$$
28:0


 32 35  0  0  0  0  0  0  0  0999 V2000
   54.7693   28.6159   54.6554 N   0  0  0  0  0  0  0  0  0  0  0  0
   55.8999   29.1282   54.2688 C   0  0  0  0  0  0  0  0  0  0  0  0
   56.2380   30.4253   54.3991 N   0  0  0  0  0  0  0  0  0  0  0  0
   57.4482   30.5669   53.8821 N   0  0  0  0  0  0  0  0  0  0  0  0
   57.8846   29.3674   53.4221 C   0  0  0  0  0  0  0  0  0  0  0  0
   56.9016   28.4211   53.6377 C   0  0  0  0  0  0  0  0  0  0  0  0
   58.0929   31.8460   53.7675 C   0  0  0  0  0  0  0  0  0  0  0  0
   58.8399   32.3502   54.8422 C   0  0  0  0  0  0  0  0  0  0  0  0
   59.4447   33.6073   54.7501 C   0  0  0  0  0  0  0  0  0  0  0  0
   59.2868   34.3786   53.5943 C   0  0  0  0  0  0  0  0  0  0  0  0
   58.5221   33.8933   52.5313 C   0  0  0  0  0  0  0  0  0  0  0  0
   57.9275   32.6308   52.6136 C   0  0  0  0  0  0  0  0  0  0  0  0
   59.2243   29.0773   52.8802 C   0  0  0  0  0  0  0  0  0  0  0  0
   60.0960   28.5725   53.6389 O   0  0  0  0  0  0  0  0  0  0  0  0
   59.5549   29.4238   51.5281 N   0  0  0  0  0  0  0  0  0  0  0  0
   58.9217   29.9744   51.0132 H   0  0  0  0  0  0  0  0  0  0  0  0
   60.7935   28.9924   50.8841 C   0  0  0  0  0  0  0  0  0  0  0  0
   60.5475   28.7566   49.4283 C   0  0  0  0  0  0  0  0  0  0  0  0
   60.2840   29.7257   48.4789 C   0  0  0  0  0  0  0  0  0  0  0  0
   60.0115   29.0425   47.3072 C   0  0  0  0  0  0  0  0  0  0  0  0
   59.6365   29.6812   46.0056 C   0  0  0  0  0  0  0  0  0  0  0  0
   60.1041   27.7108   47.5130 N   0  0  0  0  0  0  0  0  0  0  0  0
   59.7907   26.6524   46.5569 C   0  0  0  0  0  0  0  0  0  0  0  0
   60.4104   27.5281   48.8122 C   0  0  0  0  0  0  0  0  0  0  0  0
   53.6049   28.4591   53.8314 C   0  0  0  0  0  0  0  0  0  0  0  0
   53.2425   27.2973   53.5139 O   0  0  0  0  0  0  0  0  0  0  0  0
   51.7958   30.2547   54.1125 C   0  0  0  0  0  0  0  0  0  0  0  0
   51.2350   31.2357   53.3780 N   0  0  0  0  0  0  0  0  0  0  0  0
   51.8742   31.1969   52.1935 C   0  0  0  0  0  0  0  0  0  0  0  0
   51.5845   32.0584   51.1437 O   0  0  0  0  0  0  0  0  0  0  0  0
   52.8331   30.2082   52.1526 C   0  0  0  0  0  0  0  0  0  0  0  0
   52.7888   29.6114   53.3936 C   0  0  0  0  0  0  0  0  0  0  0  0
 27 28  1  0
 28 29  1  0
 29 30  1  0
 29 31  2  0
 31 32  1  0
 32 25  1  0
 25 26  2  0
 25  1  1  0
  1  2  2  0
  2  3  1  0
  3  4  1  0
  4  7  1  0
  7  8  2  0
  8  9  1  0
  9 10  2  0
 10 11  1  0
 11 12  2  0
  4  5  1  0
  5 13  1  0
 13 14  2  0
 13 15  1  0
 15 17  1  0
 17 18  1  0
 18 19  1  0
 19 20  2  0
 20 21  1  0
 20 22  1  0
 22 23  1  0
 22 24  1  0
  5  6  2  0
 32 27  2  0
  6  2  1  0
 12  7  1  0
 24 18  2  0
 15 16  1  0
M  CHG 1   3  -1
M  CHG 1  28  -1
M  CHG 1  30  -1
M  END
> <UniqueID>
27

> <SMILES>
Cc1cc(CNC(=O)c2c/c(=N/C(=O)c3c[n-]c([O-])c3)[n-]n2-c2ccccc2)cn1C

> <Energy>
141.5357905766895

> <Genealogy>
Cc1cc(CNC(=O)c2cc(=NC(=O)c3c[n-]c([O-])c3)[n-]n2-c2ccccc2)cn1C (protonated)
Cc1cc(CNC(=O)c2c/c(=N/C(=O)c3c[n-]c([O-])c3)[n-]n2-c2ccccc2)cn1C (cis-trans isomerization)
Cc1cc(CNC(=O)c2c/c(=N/C(=O)c3c[n-]c([O-])c3)[n-]n2-c2ccccc2)cn1C (3D coordinates assigned)
Cc1cc(CNC(=O)c2c/c(=N/C(=O)c3c[n-]c([O-])c3)[n-]n2-c2ccccc2)cn1C (optimized conformer: 141.5357905766895 kcal/mol)

> <smiles>
Cc1cc(CNC(=O)c2cc(=NC(=O)c3c[nH]c(O)c3)[nH]n2-c2ccccc2)cn1C

> <score_type>
oracle

> <origin>
adg

> <m_score__min__energy>
-17.09

> <m_primary>
energy

> <minimizedAffinity>
-6.48965

> <minimizedRMSD>
2.24321

> <CNNscore>
0.1532967836

> <CNNaffinity>
5.2835025787

> <CNN_VS>
0.8099439740

> <CNNaffinity_variance>
0.3362605274

$$$$
32:0


 38 41  0  0  0  0  0  0  0  0999 V2000
   58.7763   30.0747   51.9481 N   0  0  0  0  0  0  0  0  0  0  0  0
   59.4512   31.2943   52.3363 C   0  0  0  0  0  0  0  0  0  0  0  0
   59.4445   31.6620   53.5432 O   0  0  0  0  0  0  0  0  0  0  0  0
   53.8287   29.1091   54.4139 C   0  0  0  0  0  0  0  0  0  0  0  0
   54.9707   29.3712   53.7469 C   0  0  0  0  0  0  0  0  0  0  0  0
   56.0769   28.5426   54.0262 C   0  0  0  0  0  0  0  0  0  0  0  0
   57.3162   28.7700   53.4395 C   0  0  0  0  0  0  0  0  0  0  0  0
   57.4833   29.8115   52.5297 C   0  0  0  0  0  0  0  0  0  0  0  0
   56.4014   30.6453   52.2282 C   0  0  0  0  0  0  0  0  0  0  0  0
   55.1283   30.4620   52.8225 C   0  0  0  0  0  0  0  0  0  0  0  0
   54.0946   31.2759   52.4749 C   0  0  0  0  0  0  0  0  0  0  0  0
   52.9902   30.9254   51.5525 C   0  0  0  0  0  0  0  0  0  0  0  0
   53.0555   30.0053   50.5721 N   0  0  0  0  0  0  0  0  0  0  0  0
   51.8693   30.1292   49.9424 C   0  0  0  0  0  0  0  0  0  0  0  0
   51.5439   29.4121   48.9609 O   0  0  0  0  0  0  0  0  0  0  0  0
   51.0604   31.0864   50.4437 N   0  0  0  0  0  0  0  0  0  0  0  0
   51.7896   31.5889   51.4532 C   0  0  0  0  0  0  0  0  0  0  0  0
   51.3677   32.6348   52.2641 O   0  0  0  0  0  0  0  0  0  0  0  0
   59.1785   29.4063   50.6905 C   0  0  0  0  0  0  0  0  0  0  0  0
   59.1380   30.3497   49.4616 C   0  0  0  0  0  0  0  0  0  0  0  0
   59.9717   29.8199   48.2754 C   0  0  0  0  0  0  0  0  0  0  0  0
   60.2200   28.3756   48.3950 N   0  0  0  0  0  0  0  0  0  0  0  0
   60.0333   27.4955   47.2721 C   0  0  0  0  0  0  0  0  0  0  0  0
   60.9163   26.6376   47.0000 O   0  0  0  0  0  0  0  0  0  0  0  0
   60.8474   27.8516   49.6171 C   0  0  0  0  0  0  0  0  0  0  0  0
   60.5675   28.7608   50.8269 C   0  0  0  0  0  0  0  0  0  0  0  0
   58.7885   27.5651   46.4280 C   0  0  0  0  0  0  0  0  0  0  0  0
   59.0918   28.1655   45.0495 C   0  0  0  0  0  0  0  0  0  0  0  0
   57.8041   28.6034   44.3471 C   0  0  0  0  0  0  0  0  0  0  0  0
   57.4099   29.9784   44.7864 C   0  0  0  0  0  0  0  0  0  0  0  0
   58.2861   30.7862   45.1969 O   0  0  0  0  0  0  0  0  0  0  0  0
   56.0706   30.3509   44.7910 O   0  0  0  0  0  0  0  0  0  0  0  0
   60.1891   32.1164   51.3522 C   0  0  0  0  0  0  0  0  0  0  0  0
   59.5174   33.0607   50.5574 C   0  0  0  0  0  0  0  0  0  0  0  0
   60.2232   33.8229   49.6231 C   0  0  0  0  0  0  0  0  0  0  0  0
   61.6033   33.6565   49.4782 C   0  0  0  0  0  0  0  0  0  0  0  0
   62.2814   32.7325   50.2760 C   0  0  0  0  0  0  0  0  0  0  0  0
   61.5809   31.9684   51.2146 C   0  0  0  0  0  0  0  0  0  0  0  0
  4  5  2  0
  5  6  1  0
  6  7  2  0
  7  8  1  0
  8  1  1  0
  1  2  1  0
  2  3  2  0
  2 33  1  0
 33 34  2  0
 34 35  1  0
 35 36  2  0
 36 37  1  0
 37 38  2  0
  1 19  1  0
 19 20  1  0
 20 21  1  0
 21 22  1  0
 22 23  1  0
 23 24  2  0
 23 27  1  0
 27 28  1  0
 28 29  1  0
 29 30  1  0
 30 31  2  0
 30 32  1  0
 22 25  1  0
 25 26  1  0
  8  9  2  0
  9 10  1  0
 10 11  2  0
 11 12  1  0
 12 13  1  0
 13 14  1  0
 14 15  2  0
 14 16  1  0
 16 17  1  0
 17 18  1  0
 10  5  1  0
 17 12  2  0
 38 33  1  0
 26 19  1  0
M  CHG 1  13  -1
M  CHG 1  16  -1
M  CHG 1  18  -1
M  CHG 1  32  -1
M  END
> <UniqueID>
30

> <SMILES>
C=c1ccc(N(C(=O)c2ccccc2)C2CCN(C(=O)CCCC(=O)[O-])CC2)c/c1=C\c1[n-]c(=O)[n-]c1[O-]

> <Energy>
123.91410634057125

> <Genealogy>
C=c1ccc(N(C(=O)c2ccccc2)C2CCN(C(=O)CCCC(=O)[O-])CC2)cc1=Cc1[n-]c(=O)[n-]c1[O-] (protonated)
C=c1ccc(N(C(=O)c2ccccc2)C2CCN(C(=O)CCCC(=O)[O-])CC2)c/c1=C\c1[n-]c(=O)[n-]c1[O-] (cis-trans isomerization)
C=c1ccc(N(C(=O)c2ccccc2)C2CCN(C(=O)CCCC(=O)[O-])CC2)c/c1=C\c1[n-]c(=O)[n-]c1[O-] (3D coordinates assigned)
C=c1ccc(N(C(=O)c2ccccc2)C2CCN(C(=O)CCCC(=O)[O-])CC2)c/c1=C\c1[n-]c(=O)[n-]c1[O-] (nonaromatic ring conformer: 123.91410634057125 kcal/mol)

> <smiles>
C=c1ccc(N(C(=O)c2ccccc2)C2CCN(C(=O)CCCC(=O)O)CC2)cc1=Cc1[nH]c(=O)[nH]c1O

> <score_type>
oracle

> <origin>
adg

> <m_score__min__energy>
-21.77

> <m_primary>
energy

> <minimizedAffinity>
-6.69490

> <minimizedRMSD>
0.85883

> <CNNscore>
0.0554941893

> <CNNaffinity>
5.8344879150

> <CNN_VS>
0.3237801790

> <CNNaffinity_variance>
0.4065745771

$$$$
33:0


 29 32  0  0  0  0  0  0  0  0999 V2000
   57.7871   29.0815   43.8424 C   0  0  0  0  0  0  0  0  0  0  0  0
   58.1056   28.6923   45.0784 C   0  0  0  0  0  0  0  0  0  0  0  0
   58.5216   29.5313   45.9999 O   0  0  0  0  0  0  0  0  0  0  0  0
   58.7589   28.8703   47.1095 C   0  0  0  0  0  0  0  0  0  0  0  0
   58.4851   27.5266   46.9184 C   0  0  0  0  0  0  0  0  0  0  0  0
   58.0684   27.4034   45.6024 C   0  0  0  0  0  0  0  0  0  0  0  0
   57.6779   26.2746   44.9814 C   0  0  0  0  0  0  0  0  0  0  0  0
   57.2120   25.0668   45.7003 C   0  0  0  0  0  0  0  0  0  0  0  0
   55.9049   24.9710   46.2122 C   0  0  0  0  0  0  0  0  0  0  0  0
   55.0007   26.0157   46.0577 O   0  0  0  0  0  0  0  0  0  0  0  0
   55.5199   23.8561   46.8855 N   0  0  0  0  0  0  0  0  0  0  0  0
   56.3842   22.8298   47.0948 C   0  0  0  0  0  0  0  0  0  0  0  0
   56.0039   21.8064   47.7187 O   0  0  0  0  0  0  0  0  0  0  0  0
   57.6598   22.9105   46.6373 N   0  0  0  0  0  0  0  0  0  0  0  0
   58.0930   24.0025   45.9551 C   0  0  0  0  0  0  0  0  0  0  0  0
   59.2853   24.0441   45.5497 O   0  0  0  0  0  0  0  0  0  0  0  0
   59.2417   29.4638   48.3814 C   0  0  0  0  0  0  0  0  0  0  0  0
   59.6416   28.6675   49.2764 O   0  0  0  0  0  0  0  0  0  0  0  0
   59.2837   30.8934   48.6348 N   0  0  0  0  0  0  0  0  0  0  0  0
   58.8989   31.8482   47.5714 C   0  0  0  0  0  0  0  0  0  0  0  0
   59.0084   33.3410   47.9427 C   0  0  0  0  0  0  0  0  0  0  0  0
   59.9902   33.6144   48.9998 N   0  0  0  0  0  0  0  0  0  0  0  0
   59.7098   32.8085   50.1954 C   0  0  0  0  0  0  0  0  0  0  0  0
   59.8563   31.3168   49.9278 C   0  0  0  0  0  0  0  0  0  0  0  0
   61.3917   33.8296   48.5320 C   0  0  0  0  0  0  0  0  0  0  0  0
   61.7299   33.3179   47.1306 C   0  0  0  0  0  0  0  0  0  0  0  0
   63.2514   33.1631   47.1116 C   0  0  0  0  0  0  0  0  0  0  0  0
   63.7309   33.2836   48.5598 C   0  0  0  0  0  0  0  0  0  0  0  0
   62.4804   33.2361   49.4231 C   0  0  0  0  0  0  0  0  0  0  0  0
  1  2  2  0
  2  3  1  0
  3  4  1  0
  4 17  1  0
 17 18  2  0
 17 19  1  0
 19 20  1  0
 20 21  1  0
 21 22  1  0
 22 25  1  0
 25 26  1  0
 26 27  1  0
 27 28  1  0
 28 29  1  0
 22 23  1  0
 23 24  1  0
  4  5  2  0
  5  6  1  0
  6  7  2  0
  7  8  1  0
  8  9  2  0
  9 10  1  0
  9 11  1  0
 11 12  1  0
 12 13  2  0
 12 14  1  0
 14 15  1  0
 15 16  2  0
  6  2  1  0
 15  8  1  0
 24 19  1  0
 29 25  1  0
M  CHG 1  10  -1
M  CHG 1  11  -1
M  CHG 1  14  -1
M  END
> <UniqueID>
31

> <SMILES>
C=c1oc(C(=O)N2CCN(C3CCCC3)CC2)cc1=Cc1c([O-])[n-]c(=O)[n-]c1=O

> <Energy>
110.47266177336053

> <Genealogy>
C=c1oc(C(=O)N2CCN(C3CCCC3)CC2)cc1=Cc1c([O-])[n-]c(=O)[n-]c1=O (protonated)
C=c1oc(C(=O)N2CCN(C3CCCC3)CC2)cc1=Cc1c([O-])[n-]c(=O)[n-]c1=O (3D coordinates assigned)
C=c1oc(C(=O)N2CCN(C3CCCC3)CC2)cc1=Cc1c([O-])[n-]c(=O)[n-]c1=O (nonaromatic ring conformer: 110.47266177336053 kcal/mol)

> <smiles>
C=c1oc(C(=O)N2CCN(C3CCCC3)CC2)cc1=Cc1c(O)[nH]c(=O)[nH]c1=O

> <score_type>
oracle

> <origin>
adg

> <m_score__min__energy>
-16.120000000000001

> <m_primary>
energy

> <minimizedAffinity>
-8.80274

> <minimizedRMSD>
1.03933

> <CNNscore>
0.1091963723

> <CNNaffinity>
5.8038997650

> <CNN_VS>
0.6337648034

> <CNNaffinity_variance>
0.0749894604

$$$$
44:0


 25 27  0  0  0  0  0  0  0  0999 V2000
   60.3917   28.8311   44.7445 C   0  0  0  0  0  0  0  0  0  0  0  0
   59.8933   28.5101   45.9502 C   0  0  0  0  0  0  0  0  0  0  0  0
   59.0181   27.4500   46.2430 C   0  0  0  0  0  0  0  0  0  0  0  0
   58.6378   26.3875   45.5079 C   0  0  0  0  0  0  0  0  0  0  0  0
   58.5693   27.6677   47.5337 C   0  0  0  0  0  0  0  0  0  0  0  0
   59.2195   28.7888   48.0031 C   0  0  0  0  0  0  0  0  0  0  0  0
   59.0383   29.3659   49.3737 C   0  0  0  0  0  0  0  0  0  0  0  0
   60.0434   29.2895   47.0527 N   0  0  0  0  0  0  0  0  0  0  0  0
   57.7647   25.2950   45.9668 C   0  0  0  0  0  0  0  0  0  0  0  0
   58.1929   24.0743   46.3379 N   0  0  0  0  0  0  0  0  0  0  0  0
   57.0733   23.4805   46.8050 C   0  0  0  0  0  0  0  0  0  0  0  0
   57.0637   22.2986   47.2383 O   0  0  0  0  0  0  0  0  0  0  0  0
   55.9682   24.2557   46.7801 N   0  0  0  0  0  0  0  0  0  0  0  0
   56.4272   25.4053   46.2599 C   0  0  0  0  0  0  0  0  0  0  0  0
   55.6419   26.5323   46.0638 O   0  0  0  0  0  0  0  0  0  0  0  0
   60.8476   30.5178   47.1752 C   0  0  0  0  0  0  0  0  0  0  0  0
   60.0132   31.7458   46.9052 C   0  0  0  0  0  0  0  0  0  0  0  0
   60.5599   32.8803   46.9392 O   0  0  0  0  0  0  0  0  0  0  0  0
   58.6041   31.6788   46.6186 N   0  0  0  0  0  0  0  0  0  0  0  0
   58.0186   31.3649   45.4987 C   0  0  0  0  0  0  0  0  0  0  0  0
   57.1844   30.2901   45.4067 N   0  0  0  0  0  0  0  0  0  0  0  0
   56.5812   29.9440   44.2377 C   0  0  0  0  0  0  0  0  0  0  0  0
   56.8160   30.6920   43.0828 C   0  0  0  0  0  0  0  0  0  0  0  0
   57.6717   31.7913   43.1453 C   0  0  0  0  0  0  0  0  0  0  0  0
   58.2816   32.1310   44.3562 C   0  0  0  0  0  0  0  0  0  0  0  0
  1  2  2  0
  2  3  1  0
  3  4  2  0
  4  9  1  0
  9 10  1  0
 10 11  1  0
 11 12  2  0
 11 13  1  0
 13 14  1  0
 14 15  1  0
  3  5  1  0
  5  6  2  0
  6  7  1  0
  6  8  1  0
  8 16  1  0
 16 17  1  0
 17 18  2  0
 17 19  1  0
 19 20  2  0
 20 21  1  0
 21 22  1  0
 22 23  2  0
 23 24  1  0
 24 25  2  0
  8  2  1  0
 25 20  1  0
 14  9  2  0
M  CHG 1  10  -1
M  CHG 1  13  -1
M  CHG 1  15  -1
M  CHG 1  21  -1
M  END
> <UniqueID>
41

> <SMILES>
C=c1/c(=C\c2[n-]c(=O)[n-]c2[O-])cc(C)n1CC(=O)N=c1cccc[n-]1

> <Energy>
113.5566331487952

> <Genealogy>
C=c1c(=Cc2[n-]c(=O)[n-]c2[O-])cc(C)n1CC(=O)N=c1cccc[n-]1 (protonated)
C=c1/c(=C\c2[n-]c(=O)[n-]c2[O-])cc(C)n1CC(=O)N=c1cccc[n-]1 (cis-trans isomerization)
C=c1/c(=C\c2[n-]c(=O)[n-]c2[O-])cc(C)n1CC(=O)N=c1cccc[n-]1 (3D coordinates assigned)
C=c1/c(=C\c2[n-]c(=O)[n-]c2[O-])cc(C)n1CC(=O)N=c1cccc[n-]1 (optimized conformer: 113.5566331487952 kcal/mol)

> <smiles>
C=c1c(=Cc2[nH]c(=O)[nH]c2O)cc(C)n1CC(=O)N=c1cccc[nH]1

> <score_type>
oracle

> <origin>
adg

> <m_score__min__energy>
-16.75

> <m_primary>
energy

> <minimizedAffinity>
-7.72975

> <minimizedRMSD>
0.79939

> <CNNscore>
0.1677115858

> <CNNaffinity>
6.1522917747

> <CNN_VS>
1.0318106413

> <CNNaffinity_variance>
0.0177969728

$$$$
46:0


 33 36  0  0  0  0  0  0  0  0999 V2000
   60.2834   28.0070   46.7795 C   0  0  0  0  0  0  0  0  0  0  0  0
   60.3270   28.2013   48.2707 C   0  0  0  0  0  0  0  0  0  0  0  0
   60.4499   27.1952   49.0269 O   0  0  0  0  0  0  0  0  0  0  0  0
   60.2418   29.5168   48.8466 N   0  0  0  0  0  0  0  0  0  0  0  0
   59.6103   29.7170   50.1521 C   0  0  0  0  0  0  0  0  0  0  0  0
   60.6837   30.0306   51.1943 C   0  0  0  0  0  0  0  0  0  0  0  0
   61.5681   31.0973   50.7004 N   0  0  0  0  0  0  0  0  0  0  0  0
   62.1532   30.9519   49.3606 C   0  0  0  0  0  0  0  0  0  0  0  0
   61.0651   30.6183   48.3354 C   0  0  0  0  0  0  0  0  0  0  0  0
   62.1269   32.0556   51.6238 C   0  0  0  0  0  0  0  0  0  0  0  0
   61.4638   32.3644   52.8239 C   0  0  0  0  0  0  0  0  0  0  0  0
   62.0101   33.2981   53.7120 C   0  0  0  0  0  0  0  0  0  0  0  0
   63.2199   33.9287   53.4092 C   0  0  0  0  0  0  0  0  0  0  0  0
   63.8889   33.6309   52.2145 C   0  0  0  0  0  0  0  0  0  0  0  0
   65.0944   34.2562   51.9012 O   0  0  0  0  0  0  0  0  0  0  0  0
   63.3421   32.6977   51.3257 C   0  0  0  0  0  0  0  0  0  0  0  0
   65.4652   34.8816   52.4922 H   0  0  0  0  0  0  0  0  0  0  0  0
   58.1097   28.2637   45.4138 C   0  0  0  0  0  0  0  0  0  0  0  0
   56.9292   27.6258   45.3164 N   0  0  0  0  0  0  0  0  0  0  0  0
   57.0458   26.6186   46.2073 C   0  0  0  0  0  0  0  0  0  0  0  0
   56.1243   25.7876   46.4160 O   0  0  0  0  0  0  0  0  0  0  0  0
   58.2269   26.5732   46.8556 N   0  0  0  0  0  0  0  0  0  0  0  0
   58.9057   27.6132   46.3374 C   0  0  0  0  0  0  0  0  0  0  0  0
   58.4835   29.4445   44.5708 C   0  0  0  0  0  0  0  0  0  0  0  0
   56.2271   30.1345   44.9234 O   0  0  0  0  0  0  0  0  0  0  0  0
   57.4085   30.4781   44.6480 C   0  0  0  0  0  0  0  0  0  0  0  0
   57.7328   31.8506   44.4046 N   0  0  0  0  0  0  0  0  0  0  0  0
   58.2961   32.7671   45.3530 C   0  0  0  0  0  0  0  0  0  0  0  0
   58.8634   33.9594   44.8821 C   0  0  0  0  0  0  0  0  0  0  0  0
   59.4581   34.8597   45.7736 C   0  0  0  0  0  0  0  0  0  0  0  0
   59.5043   34.5661   47.1378 C   0  0  0  0  0  0  0  0  0  0  0  0
   58.9613   33.3687   47.6156 C   0  0  0  0  0  0  0  0  0  0  0  0
   58.3639   32.4688   46.7255 C   0  0  0  0  0  0  0  0  0  0  0  0
 25 26  2  0
 26 24  1  0
 24 18  1  0
 18 19  1  0
 19 20  1  0
 20 21  2  0
 20 22  1  0
 22 23  1  0
 23  1  1  0
  1  2  1  0
  2  3  2  0
  2  4  1  0
  4  5  1  0
  5  6  1  0
  6  7  1  0
  7 10  1  0
 10 11  2  0
 11 12  1  0
 12 13  2  0
 13 14  1  0
 14 15  1  0
 14 16  2  0
  7  8  1  0
  8  9  1  0
 26 27  1  0
 27 28  1  0
 28 29  2  0
 29 30  1  0
 30 31  2  0
 31 32  1  0
 32 33  2  0
 23 18  2  0
  9  4  1  0
 33 28  1  0
 16 10  1  0
 15 17  1  0
M  CHG 1  19  -1
M  CHG 1  22  -1
M  CHG 1  27  -1
M  END
> <UniqueID>
43

> <SMILES>
O=C(Cc1[n-]c(=O)[n-]c1CC(=O)N1CCN(c2cccc(O)c2)CC1)[N-]c1ccccc1

> <Energy>
90.3259807786111

> <Genealogy>
O=C(Cc1[n-]c(=O)[n-]c1CC(=O)N1CCN(c2cccc(O)c2)CC1)[N-]c1ccccc1 (protonated)
O=C(Cc1[n-]c(=O)[n-]c1CC(=O)N1CCN(c2cccc(O)c2)CC1)[N-]c1ccccc1 (3D coordinates assigned)
O=C(Cc1[n-]c(=O)[n-]c1CC(=O)N1CCN(c2cccc(O)c2)CC1)[N-]c1ccccc1 (nonaromatic ring conformer: 90.3259807786111 kcal/mol)

> <smiles>
O=C(Cc1[nH]c(=O)[nH]c1CC(=O)N1CCN(c2cccc(O)c2)CC1)Nc1ccccc1

> <score_type>
oracle

> <origin>
adg

> <m_score__min__energy>
-14.5

> <m_primary>
energy

> <minimizedAffinity>
-7.52548

> <minimizedRMSD>
2.06261

> <CNNscore>
0.5343384147

> <CNNaffinity>
6.7966036797

> <CNN_VS>
3.6316864491

> <CNNaffinity_variance>
0.0751003176

$$$$
56:0


 32 35  0  0  0  0  0  0  0  0999 V2000
   58.3408   31.4390   45.6603 C   0  0  0  0  0  0  0  0  0  0  0  0
   57.9028   32.4843   44.8338 C   0  0  0  0  0  0  0  0  0  0  0  0
   58.4547   33.7623   44.9648 C   0  0  0  0  0  0  0  0  0  0  0  0
   59.4585   34.0021   45.9079 C   0  0  0  0  0  0  0  0  0  0  0  0
   59.9199   32.9615   46.7212 C   0  0  0  0  0  0  0  0  0  0  0  0
   59.3617   31.6797   46.5936 C   0  0  0  0  0  0  0  0  0  0  0  0
   61.2469   33.2579   47.8409 S   0  0  0  0  0  0  0  0  0  0  0  0
   60.9412   34.4251   48.7371 O   0  0  0  0  0  0  0  0  0  0  0  0
   62.4959   33.5613   47.0596 O   0  0  0  0  0  0  0  0  0  0  0  0
   61.4911   31.8450   48.8152 N   0  0  0  0  0  0  0  0  0  0  0  0
   62.6037   31.6205   49.6608 C   0  0  0  0  0  0  0  0  0  0  0  0
   63.8037   32.3383   49.6879 C   0  0  0  0  0  0  0  0  0  0  0  0
   64.7819   31.9629   50.6237 C   0  0  0  0  0  0  0  0  0  0  0  0
   64.5409   30.8966   51.5129 C   0  0  0  0  0  0  0  0  0  0  0  0
   63.3235   30.1974   51.4638 C   0  0  0  0  0  0  0  0  0  0  0  0
   62.3675   30.5876   50.5253 C   0  0  0  0  0  0  0  0  0  0  0  0
   61.0125   30.0136   50.2962 C   0  0  0  0  0  0  0  0  0  0  0  0
   60.4264   30.9108   49.1786 C   0  0  0  0  0  0  0  0  0  0  0  0
   57.7683   30.0899   45.5037 C   0  0  0  0  0  0  0  0  0  0  0  0
   56.6744   29.9553   44.8919 O   0  0  0  0  0  0  0  0  0  0  0  0
   58.4048   28.9218   46.0464 N   0  0  0  0  0  0  0  0  0  0  0  0
   58.5775   27.6407   45.3637 C   0  0  0  0  0  0  0  0  0  0  0  0
   59.1870   26.6150   46.2694 C   0  0  0  0  0  0  0  0  0  0  0  0
   60.4080   26.7018   46.5874 O   0  0  0  0  0  0  0  0  0  0  0  0
   57.7763   22.6001   44.7873 C   0  0  0  0  0  0  0  0  0  0  0  0
   58.3819   23.5739   45.5192 N   0  0  0  0  0  0  0  0  0  0  0  0
   57.7059   24.6486   46.0207 C   0  0  0  0  0  0  0  0  0  0  0  0
   58.3859   25.5152   46.7263 N   0  0  0  0  0  0  0  0  0  0  0  0
   56.3203   24.7820   45.7214 C   0  0  0  0  0  0  0  0  0  0  0  0
   55.5787   25.9017   46.0894 O   0  0  0  0  0  0  0  0  0  0  0  0
   55.6821   23.7776   44.9854 C   0  0  0  0  0  0  0  0  0  0  0  0
   56.4081   22.6793   44.5188 C   0  0  0  0  0  0  0  0  0  0  0  0
 25 26  1  0
 26 27  1  0
 27 28  2  0
 28 23  1  0
 23 24  2  0
 23 22  1  0
 22 21  1  0
 21 19  1  0
 19 20  2  0
 19  1  1  0
  1  2  2  0
  2  3  1  0
  3  4  2  0
  4  5  1  0
  5  7  1  0
  7  8  2  0
  7  9  2  0
  7 10  1  0
 10 11  1  0
 11 12  2  0
 12 13  1  0
 13 14  2  0
 14 15  1  0
 15 16  2  0
 16 17  1  0
 17 18  1  0
  5  6  2  0
 27 29  1  0
 29 30  1  0
 29 31  2  0
 31 32  1  0
 32 25  2  0
  6  1  1  0
 18 10  1  0
 16 11  1  0
M  CHG 1  21  -1
M  CHG 1  26  -1
M  CHG 1  30  -1
M  END
> <UniqueID>
52

> <SMILES>
O=C(C[N-]C(=O)c1cccc(S(=O)(=O)N2CCc3ccccc32)c1)/N=c1/[n-]cccc1[O-]

> <Energy>
84.07402364404282

> <Genealogy>
O=C(C[N-]C(=O)c1cccc(S(=O)(=O)N2CCc3ccccc32)c1)N=c1[n-]cccc1[O-] (protonated)
O=C(C[N-]C(=O)c1cccc(S(=O)(=O)N2CCc3ccccc32)c1)/N=c1/[n-]cccc1[O-] (cis-trans isomerization)
O=C(C[N-]C(=O)c1cccc(S(=O)(=O)N2CCc3ccccc32)c1)/N=c1/[n-]cccc1[O-] (3D coordinates assigned)
O=C(C[N-]C(=O)c1cccc(S(=O)(=O)N2CCc3ccccc32)c1)/N=c1/[n-]cccc1[O-] (nonaromatic ring conformer: 84.07402364404282 kcal/mol)

> <smiles>
O=C(CNC(=O)c1cccc(S(=O)(=O)N2CCc3ccccc32)c1)N=c1[nH]cccc1O

> <score_type>
oracle

> <origin>
adg

> <m_score__min__energy>
-17.620000000000001

> <m_primary>
energy

> <minimizedAffinity>
-9.52101

> <minimizedRMSD>
2.61965

> <CNNscore>
0.5236461759

> <CNNaffinity>
6.7781643867

> <CNN_VS>
3.5493597984

> <CNNaffinity_variance>
0.0471731536

$$$$
61:0


 32 34  0  0  0  0  0  0  0  0999 V2000
   58.6464   30.0992   52.6909 N   0  0  0  0  0  0  0  0  0  0  0  0
   59.0655   31.4525   52.4458 C   0  0  0  0  0  0  0  0  0  0  0  0
   58.6553   32.3826   53.1923 O   0  0  0  0  0  0  0  0  0  0  0  0
   59.9063   31.7680   51.3202 N   0  0  0  0  0  0  0  0  0  0  0  0
   60.9483   30.8452   50.8541 C   0  0  0  0  0  0  0  0  0  0  0  0
   60.7352   30.5483   49.3668 C   0  0  0  0  0  0  0  0  0  0  0  0
   60.3967   31.7682   48.6114 N   0  0  0  0  0  0  0  0  0  0  0  0
   60.0204   31.6315   47.2205 C   0  0  0  0  0  0  0  0  0  0  0  0
   60.2908   30.5608   46.6089 O   0  0  0  0  0  0  0  0  0  0  0  0
   60.4812   33.0720   49.2891 C   0  0  0  0  0  0  0  0  0  0  0  0
   59.6846   33.0288   50.6000 C   0  0  0  0  0  0  0  0  0  0  0  0
   59.0178   29.3776   52.1335 H   0  0  0  0  0  0  0  0  0  0  0  0
   57.6873   29.7589   53.7401 C   0  0  0  0  0  0  0  0  0  0  0  0
   53.6528   30.0675   52.2407 C   0  0  0  0  0  0  0  0  0  0  0  0
   54.0031   29.0199   53.1027 C   0  0  0  0  0  0  0  0  0  0  0  0
   55.3123   28.9114   53.5843 C   0  0  0  0  0  0  0  0  0  0  0  0
   56.2865   29.8437   53.1995 C   0  0  0  0  0  0  0  0  0  0  0  0
   55.9341   30.8930   52.3353 C   0  0  0  0  0  0  0  0  0  0  0  0
   54.6250   31.0005   51.8558 C   0  0  0  0  0  0  0  0  0  0  0  0
   51.4488   31.8248   51.8152 N   0  0  0  0  0  0  0  0  0  0  0  0
   51.9994   30.1957   51.6497 S   0  0  0  0  0  0  0  0  0  0  0  0
   51.9505   29.7884   50.2044 O   0  0  0  0  0  0  0  0  0  0  0  0
   51.0950   29.2886   52.4382 O   0  0  0  0  0  0  0  0  0  0  0  0
   50.4909   31.8964   51.4722 H   0  0  0  0  0  0  0  0  0  0  0  0
   59.2862   32.7097   46.4669 C   0  0  0  0  0  0  0  0  0  0  0  0
   58.4426   32.1365   45.3563 C   0  0  0  0  0  0  0  0  0  0  0  0
   58.4963   32.6926   44.0663 C   0  0  0  0  0  0  0  0  0  0  0  0
   57.7486   32.1365   43.0264 C   0  0  0  0  0  0  0  0  0  0  0  0
   56.9474   31.0166   43.2619 C   0  0  0  0  0  0  0  0  0  0  0  0
   56.8959   30.4482   44.5364 C   0  0  0  0  0  0  0  0  0  0  0  0
   56.1061   29.3292   44.7674 O   0  0  0  0  0  0  0  0  0  0  0  0
   57.6447   31.0018   45.5799 C   0  0  0  0  0  0  0  0  0  0  0  0
 20 21  1  0
 21 22  2  0
 21 23  2  0
 21 14  1  0
 14 15  2  0
 15 16  1  0
 16 17  2  0
 17 13  1  0
 13  1  1  0
  1  2  1  0
  2  3  2  0
  2  4  1  0
  4  5  1  0
  5  6  1  0
  6  7  1  0
  7  8  1  0
  8  9  2  0
  8 25  1  0
 25 26  1  0
 26 27  2  0
 27 28  1  0
 28 29  2  0
 29 30  1  0
 30 31  1  0
 30 32  2  0
  7 10  1  0
 10 11  1  0
 17 18  1  0
 18 19  2  0
 19 14  1  0
 11  4  1  0
 32 26  1  0
 20 24  1  0
  1 12  1  0
M  CHG 1  20  -1
M  CHG 1  31  -1
M  END
> <UniqueID>
57

> <SMILES>
[NH-]S(=O)(=O)c1ccc(CNC(=O)N2CCN(C(=O)Cc3cccc([O-])c3)CC2)cc1

> <Energy>
54.188411978701545

> <Genealogy>
[NH-]S(=O)(=O)c1ccc(CNC(=O)N2CCN(C(=O)Cc3cccc([O-])c3)CC2)cc1 (protonated)
[NH-]S(=O)(=O)c1ccc(CNC(=O)N2CCN(C(=O)Cc3cccc([O-])c3)CC2)cc1 (3D coordinates assigned)
[NH-]S(=O)(=O)c1ccc(CNC(=O)N2CCN(C(=O)Cc3cccc([O-])c3)CC2)cc1 (nonaromatic ring conformer: 54.188411978701545 kcal/mol)

> <smiles>
NS(=O)(=O)c1ccc(CNC(=O)N2CCN(C(=O)Cc3cccc(O)c3)CC2)cc1

> <score_type>
oracle

> <origin>
adg

> <m_score__min__energy>
-15

> <m_primary>
energy

> <minimizedAffinity>
-7.35525

> <minimizedRMSD>
0.89640

> <CNNscore>
0.2359675318

> <CNNaffinity>
5.8829021454

> <CNN_VS>
1.3881739378

> <CNNaffinity_variance>
0.1899862438

$$$$
75:0


 28 30  0  0  0  0  0  0  0  0999 V2000
   57.5834   24.2501   46.3471 C   0  0  0  0  0  0  0  0  0  0  0  0
   57.4434   25.5250   45.9298 C   0  0  0  0  0  0  0  0  0  0  0  0
   58.5630   26.1774   45.5130 N   0  0  0  0  0  0  0  0  0  0  0  0
   58.5427   27.4583   45.0654 C   0  0  0  0  0  0  0  0  0  0  0  0
   59.6211   27.9949   44.6911 O   0  0  0  0  0  0  0  0  0  0  0  0
   57.3208   28.1567   45.0233 C   0  0  0  0  0  0  0  0  0  0  0  0
   57.2521   29.4340   44.5967 C   0  0  0  0  0  0  0  0  0  0  0  0
   56.2028   27.5191   45.4663 N   0  0  0  0  0  0  0  0  0  0  0  0
   56.2200   26.2393   45.9198 C   0  0  0  0  0  0  0  0  0  0  0  0
   55.1478   25.7353   46.3475 O   0  0  0  0  0  0  0  0  0  0  0  0
   57.2545   23.0420   45.5620 C   0  0  0  0  0  0  0  0  0  0  0  0
   57.4661   23.0314   44.1726 C   0  0  0  0  0  0  0  0  0  0  0  0
   57.2041   21.8791   43.4267 C   0  0  0  0  0  0  0  0  0  0  0  0
   56.7455   20.7237   44.0634 C   0  0  0  0  0  0  0  0  0  0  0  0
   56.5552   20.7158   45.4477 C   0  0  0  0  0  0  0  0  0  0  0  0
   56.8155   21.8670   46.2037 C   0  0  0  0  0  0  0  0  0  0  0  0
   56.5636   21.8126   47.9443 Cl  0  0  0  0  0  0  0  0  0  0  0  0
   57.9596   30.5688   45.2346 C   0  0  0  0  0  0  0  0  0  0  0  0
   57.9742   31.8521   44.6600 C   0  0  0  0  0  0  0  0  0  0  0  0
   58.6747   32.8936   45.2747 C   0  0  0  0  0  0  0  0  0  0  0  0
   59.3881   32.6665   46.4600 C   0  0  0  0  0  0  0  0  0  0  0  0
   59.3932   31.3799   47.0250 C   0  0  0  0  0  0  0  0  0  0  0  0
   60.0909   31.1258   48.2016 O   0  0  0  0  0  0  0  0  0  0  0  0
   58.6917   30.3384   46.4082 C   0  0  0  0  0  0  0  0  0  0  0  0
   60.2602   33.9911   47.2333 S   0  0  0  0  0  0  0  0  0  0  0  0
   59.9629   35.2795   46.5183 O   0  0  0  0  0  0  0  0  0  0  0  0
   59.8298   34.1273   48.6679 O   0  0  0  0  0  0  0  0  0  0  0  0
   62.0068   33.6635   47.1810 C   0  0  0  0  0  0  0  0  0  0  0  0
  1 11  1  0
 11 12  2  0
 12 13  1  0
 13 14  2  0
 14 15  1  0
 15 16  2  0
 16 17  1  0
  1  2  2  0
  2  3  1  0
  3  4  1  0
  4  5  2  0
  4  6  1  0
  6  7  2  0
  7 18  1  0
 18 19  2  0
 19 20  1  0
 20 21  2  0
 21 25  1  0
 25 26  2  0
 25 27  2  0
 25 28  1  0
 21 22  1  0
 22 23  1  0
 22 24  2  0
  6  8  1  0
  8  9  1  0
  9 10  2  0
 16 11  1  0
  9  2  1  0
 24 18  1  0
M  CHG 1   3  -1
M  CHG 1   8  -1
M  CHG 1  23  -1
M  END
> <UniqueID>
69

> <SMILES>
CS(=O)(=O)c1ccc(/C=c2\[n-]c(=O)c(=Cc3ccccc3Cl)[n-]c2=O)cc1[O-]

> <Energy>
63.364030118833654

> <Genealogy>
CS(=O)(=O)c1ccc(C=c2[n-]c(=O)c(=Cc3ccccc3Cl)[n-]c2=O)cc1[O-] (protonated)
CS(=O)(=O)c1ccc(/C=c2\[n-]c(=O)c(=Cc3ccccc3Cl)[n-]c2=O)cc1[O-] (cis-trans isomerization)
CS(=O)(=O)c1ccc(/C=c2\[n-]c(=O)c(=Cc3ccccc3Cl)[n-]c2=O)cc1[O-] (3D coordinates assigned)
CS(=O)(=O)c1ccc(/C=c2\[n-]c(=O)c(=Cc3ccccc3Cl)[n-]c2=O)cc1[O-] (optimized conformer: 63.364030118833654 kcal/mol)

> <smiles>
CS(=O)(=O)c1ccc(C=c2[nH]c(=O)c(=Cc3ccccc3Cl)[nH]c2=O)cc1O

> <score_type>
oracle

> <origin>
adg

> <m_score__min__energy>
-14.27

> <m_primary>
energy

> <minimizedAffinity>
-7.57360

> <minimizedRMSD>
0.75695

> <CNNscore>
0.1859497577

> <CNNaffinity>
6.3829460144

> <CNN_VS>
1.1869072914

> <CNNaffinity_variance>
0.0264287982

$$$$
83:0


 31 34  0  0  0  0  0  0  0  0999 V2000
   59.4842   26.6962   47.2449 C   0  0  0  0  0  0  0  0  0  0  0  0
   59.7217   27.7202   48.0918 C   0  0  0  0  0  0  0  0  0  0  0  0
   59.2360   29.0171   47.9919 C   0  0  0  0  0  0  0  0  0  0  0  0
   59.7068   29.7068   49.0905 C   0  0  0  0  0  0  0  0  0  0  0  0
   60.4608   28.8988   49.8724 N   0  0  0  0  0  0  0  0  0  0  0  0
   61.0503   29.2300   51.1744 C   0  0  0  0  0  0  0  0  0  0  0  0
   60.4727   27.6794   49.2740 C   0  0  0  0  0  0  0  0  0  0  0  0
   61.1158   26.6119   49.7737 C   0  0  0  0  0  0  0  0  0  0  0  0
   57.2416   27.8988   45.4899 O   0  0  0  0  0  0  0  0  0  0  0  0
   57.1581   26.6976   46.1920 C   0  0  0  0  0  0  0  0  0  0  0  0
   56.0586   25.9265   46.1959 N   0  0  0  0  0  0  0  0  0  0  0  0
   56.4213   24.8945   46.9859 C   0  0  0  0  0  0  0  0  0  0  0  0
   55.6458   23.9375   47.2496 O   0  0  0  0  0  0  0  0  0  0  0  0
   57.6742   24.9723   47.4797 N   0  0  0  0  0  0  0  0  0  0  0  0
   58.1491   26.1199   46.9611 C   0  0  0  0  0  0  0  0  0  0  0  0
   56.5069   28.2043   44.9951 H   0  0  0  0  0  0  0  0  0  0  0  0
   59.4095   31.1280   49.3606 C   0  0  0  0  0  0  0  0  0  0  0  0
   58.5254   31.4125   50.2110 O   0  0  0  0  0  0  0  0  0  0  0  0
   60.1194   32.1845   48.6787 N   0  0  0  0  0  0  0  0  0  0  0  0
   60.0615   33.5683   49.1695 C   0  0  0  0  0  0  0  0  0  0  0  0
   59.3345   34.4771   48.1574 C   0  0  0  0  0  0  0  0  0  0  0  0
   59.4204   33.9661   46.6985 C   0  0  0  0  0  0  0  0  0  0  0  0
   60.7315   33.1809   46.4824 C   0  0  0  0  0  0  0  0  0  0  0  0
   60.7740   31.9324   47.3818 C   0  0  0  0  0  0  0  0  0  0  0  0
   58.2584   33.1106   46.4243 N   0  0  0  0  0  0  0  0  0  0  0  0
   57.9667   32.4799   45.3209 C   0  0  0  0  0  0  0  0  0  0  0  0
   57.4102   31.2398   45.4129 N   0  0  0  0  0  0  0  0  0  0  0  0
   57.0748   30.5091   44.3166 C   0  0  0  0  0  0  0  0  0  0  0  0
   57.2978   31.0241   43.0404 C   0  0  0  0  0  0  0  0  0  0  0  0
   57.8641   32.2929   42.9052 C   0  0  0  0  0  0  0  0  0  0  0  0
   58.2020   33.0303   44.0433 C   0  0  0  0  0  0  0  0  0  0  0  0
  9 10  1  0
 10 11  1  0
 11 12  1  0
 12 13  2  0
 12 14  1  0
 14 15  1  0
 15  1  1  0
  1  2  2  0
  2  3  1  0
  3  4  2  0
  4 17  1  0
 17 18  2  0
 17 19  1  0
 19 20  1  0
 20 21  1  0
 21 22  1  0
 22 25  1  0
 25 26  2  0
 26 27  1  0
 27 28  1  0
 28 29  2  0
 29 30  1  0
 30 31  2  0
 22 23  1  0
 23 24  1  0
  4  5  1  0
  5  6  1  0
  5  7  1  0
  7  8  2  0
 15 10  2  0
  7  2  1  0
 24 19  1  0
 31 26  1  0
  9 16  1  0
M  CHG 1  11  -1
M  CHG 1  14  -1
M  CHG 1  27  -1
M  END
> <UniqueID>
76

> <SMILES>
C=c1/c(=C/c2[n-]c(=O)[n-]c2O)cc(C(=O)N2CCC(N=c3cccc[n-]3)CC2)n1C

> <Energy>
128.37036407423236

> <Genealogy>
C=c1c(=Cc2[n-]c(=O)[n-]c2O)cc(C(=O)N2CCC(N=c3cccc[n-]3)CC2)n1C (protonated)
C=c1/c(=C/c2[n-]c(=O)[n-]c2O)cc(C(=O)N2CCC(N=c3cccc[n-]3)CC2)n1C (cis-trans isomerization)
C=c1/c(=C/c2[n-]c(=O)[n-]c2O)cc(C(=O)N2CCC(N=c3cccc[n-]3)CC2)n1C (3D coordinates assigned)
C=c1/c(=C/c2[n-]c(=O)[n-]c2O)cc(C(=O)N2CCC(N=c3cccc[n-]3)CC2)n1C (nonaromatic ring conformer: 128.37036407423236 kcal/mol)

> <smiles>
C=c1c(=Cc2[nH]c(=O)[nH]c2O)cc(C(=O)N2CCC(N=c3cccc[nH]3)CC2)n1C

> <score_type>
oracle

> <origin>
adg

> <m_score__min__energy>
-15.07

> <m_primary>
energy

> <minimizedAffinity>
-8.38396

> <minimizedRMSD>
1.01399

> <CNNscore>
0.3428457677

> <CNNaffinity>
6.3892211914

> <CNN_VS>
2.1905174255

> <CNNaffinity_variance>
0.1238815263

$$$$
85:0


 24 26  0  0  0  0  0  0  0  0999 V2000
   60.1805   28.9131   44.9346 O   0  0  0  0  0  0  0  0  0  0  0  0
   59.6969   28.6477   46.0684 C   0  0  0  0  0  0  0  0  0  0  0  0
   60.1537   29.3711   47.2271 N   0  0  0  0  0  0  0  0  0  0  0  0
   61.5481   29.8205   47.3221 C   0  0  0  0  0  0  0  0  0  0  0  0
   61.6177   31.3385   47.5786 C   0  0  0  0  0  0  0  0  0  0  0  0
   60.4547   31.8545   48.3417 N   0  0  0  0  0  0  0  0  0  0  0  0
   59.7934   30.8392   49.1817 C   0  0  0  0  0  0  0  0  0  0  0  0
   59.1989   29.7564   48.2761 C   0  0  0  0  0  0  0  0  0  0  0  0
   58.6436   27.6172   46.1727 C   0  0  0  0  0  0  0  0  0  0  0  0
   58.9152   26.4007   46.8164 C   0  0  0  0  0  0  0  0  0  0  0  0
   57.9239   25.4233   46.9147 C   0  0  0  0  0  0  0  0  0  0  0  0
   56.6582   25.6759   46.3806 C   0  0  0  0  0  0  0  0  0  0  0  0
   55.7540   24.8046   46.4568 O   0  0  0  0  0  0  0  0  0  0  0  0
   56.4003   26.8678   45.7809 N   0  0  0  0  0  0  0  0  0  0  0  0
   57.3466   27.8391   45.6719 C   0  0  0  0  0  0  0  0  0  0  0  0
   57.0084   29.0519   45.0835 O   0  0  0  0  0  0  0  0  0  0  0  0
   60.7411   33.1205   49.0511 C   0  0  0  0  0  0  0  0  0  0  0  0
   59.7657   34.2663   48.7051 C   0  0  0  0  0  0  0  0  0  0  0  0
   59.1958   34.0712   47.3262 C   0  0  0  0  0  0  0  0  0  0  0  0
   59.8172   34.6590   46.2122 C   0  0  0  0  0  0  0  0  0  0  0  0
   59.2672   34.5028   44.9355 C   0  0  0  0  0  0  0  0  0  0  0  0
   58.0884   33.7696   44.7653 C   0  0  0  0  0  0  0  0  0  0  0  0
   57.4565   33.1943   45.8705 C   0  0  0  0  0  0  0  0  0  0  0  0
   58.0036   33.3464   47.1484 C   0  0  0  0  0  0  0  0  0  0  0  0
  1  2  2  0
  2  9  1  0
  9 10  1  0
 10 11  2  0
 11 12  1  0
 12 13  2  0
 12 14  1  0
 14 15  1  0
 15 16  1  0
  2  3  1  0
  3  4  1  0
  4  5  1  0
  5  6  1  0
  6 17  1  0
 17 18  1  0
 18 19  1  0
 19 20  2  0
 20 21  1  0
 21 22  2  0
 22 23  1  0
 23 24  2  0
  6  7  1  0
  7  8  1  0
 15  9  2  0
  8  3  1  0
 24 19  1  0
M  CHG 1  14  -1
M  CHG 1  16  -1
M  END
> <UniqueID>
78

> <SMILES>
O=C(c1ccc(=O)[n-]c1[O-])N1CCN(CCc2ccccc2)CC1

> <Energy>
59.065716011921964

> <Genealogy>
O=C(c1ccc(=O)[n-]c1[O-])N1CCN(CCc2ccccc2)CC1 (protonated)
O=C(c1ccc(=O)[n-]c1[O-])N1CCN(CCc2ccccc2)CC1 (3D coordinates assigned)
O=C(c1ccc(=O)[n-]c1[O-])N1CCN(CCc2ccccc2)CC1 (nonaromatic ring conformer: 59.065716011921964 kcal/mol)

> <smiles>
O=C(c1ccc(=O)[nH]c1O)N1CCN(CCc2ccccc2)CC1

> <score_type>
oracle

> <origin>
adg

> <m_score__min__energy>
-14.619999999999999

> <m_primary>
energy

> <minimizedAffinity>
-6.84244

> <minimizedRMSD>
0.99629

> <CNNscore>
0.4928414226

> <CNNaffinity>
6.3861718178

> <CNN_VS>
3.1473701000

> <CNNaffinity_variance>
0.2913353145

$$$$
6:0


 31 34  0  0  0  0  0  0  0  0999 V2000
   56.7703   29.9980   54.9917 C   0  0  0  0  0  0  0  0  0  0  0  0
   52.4503   28.1696   56.2704 C   0  0  0  0  0  0  0  0  0  0  0  0
   53.3704   28.8282   55.5497 C   0  0  0  0  0  0  0  0  0  0  0  0
   53.1358   29.7569   54.5226 C   0  0  0  0  0  0  0  0  0  0  0  0
   52.0036   30.0922   53.8717 C   0  0  0  0  0  0  0  0  0  0  0  0
   54.3616   30.3299   54.2347 C   0  0  0  0  0  0  0  0  0  0  0  0
   55.2959   29.7102   55.0382 C   0  0  0  0  0  0  0  0  0  0  0  0
   54.7008   28.7784   55.8188 N   0  0  0  0  0  0  0  0  0  0  0  0
   55.3530   27.9562   56.8453 C   0  0  0  0  0  0  0  0  0  0  0  0
   51.9040   30.4220   52.4430 C   0  0  0  0  0  0  0  0  0  0  0  0
   52.1088   29.5328   51.4576 N   0  0  0  0  0  0  0  0  0  0  0  0
   51.7952   30.2231   50.3410 C   0  0  0  0  0  0  0  0  0  0  0  0
   51.8794   29.7254   49.1880 O   0  0  0  0  0  0  0  0  0  0  0  0
   51.3730   31.4887   50.5548 N   0  0  0  0  0  0  0  0  0  0  0  0
   51.4328   31.5934   51.8928 C   0  0  0  0  0  0  0  0  0  0  0  0
   51.0417   32.7249   52.5957 O   0  0  0  0  0  0  0  0  0  0  0  0
   57.3930   29.3257   53.8009 C   0  0  0  0  0  0  0  0  0  0  0  0
   57.4466   28.0676   53.7627 O   0  0  0  0  0  0  0  0  0  0  0  0
   57.9719   30.0984   52.7355 N   0  0  0  0  0  0  0  0  0  0  0  0
   59.2079   29.6373   52.0911 C   0  0  0  0  0  0  0  0  0  0  0  0
   60.1131   30.8327   51.7838 C   0  0  0  0  0  0  0  0  0  0  0  0
   59.3339   31.8865   51.1282 N   0  0  0  0  0  0  0  0  0  0  0  0
   58.1098   32.3527   51.7870 C   0  0  0  0  0  0  0  0  0  0  0  0
   57.2012   31.1581   52.0740 C   0  0  0  0  0  0  0  0  0  0  0  0
   59.6593   32.3177   49.7960 C   0  0  0  0  0  0  0  0  0  0  0  0
   60.1298   33.6233   49.5822 C   0  0  0  0  0  0  0  0  0  0  0  0
   60.4410   34.0586   48.2913 C   0  0  0  0  0  0  0  0  0  0  0  0
   60.2870   33.1953   47.2050 C   0  0  0  0  0  0  0  0  0  0  0  0
   59.8274   31.8915   47.4081 C   0  0  0  0  0  0  0  0  0  0  0  0
   59.5124   31.4466   48.6983 C   0  0  0  0  0  0  0  0  0  0  0  0
   58.9848   29.7828   48.9166 Cl  0  0  0  0  0  0  0  0  0  0  0  0
  2  3  2  0
  3  4  1  0
  4  5  2  0
  5 10  1  0
 10 11  1  0
 11 12  1  0
 12 13  2  0
 12 14  1  0
 14 15  1  0
 15 16  1  0
  4  6  1  0
  6  7  2  0
  7  1  1  0
  1 17  1  0
 17 18  2  0
 17 19  1  0
 19 20  1  0
 20 21  1  0
 21 22  1  0
 22 25  1  0
 25 26  2  0
 26 27  1  0
 27 28  2  0
 28 29  1  0
 29 30  2  0
 30 31  1  0
 22 23  1  0
 23 24  1  0
  7  8  1  0
  8  9  1  0
  8  3  1  0
 15 10  2  0
 24 19  1  0
 30 25  1  0
M  CHG 1  11  -1
M  CHG 1  14  -1
M  CHG 1  16  -1
M  END
> <UniqueID>
7

> <SMILES>
C=c1/c(=C\c2[n-]c(=O)[n-]c2[O-])cc(CC(=O)N2CCN(c3ccccc3Cl)CC2)n1C

> <Energy>
130.30626717798768

> <Genealogy>
C=c1c(=Cc2[n-]c(=O)[n-]c2[O-])cc(CC(=O)N2CCN(c3ccccc3Cl)CC2)n1C (protonated)
C=c1/c(=C\c2[n-]c(=O)[n-]c2[O-])cc(CC(=O)N2CCN(c3ccccc3Cl)CC2)n1C (cis-trans isomerization)
C=c1/c(=C\c2[n-]c(=O)[n-]c2[O-])cc(CC(=O)N2CCN(c3ccccc3Cl)CC2)n1C (3D coordinates assigned)
C=c1/c(=C\c2[n-]c(=O)[n-]c2[O-])cc(CC(=O)N2CCN(c3ccccc3Cl)CC2)n1C (nonaromatic ring conformer: 130.30626717798768 kcal/mol)

> <smiles>
C=c1c(=Cc2[nH]c(=O)[nH]c2O)cc(CC(=O)N2CCN(c3ccccc3Cl)CC2)n1C

> <score_type>
oracle

> <origin>
adg

> <m_score__min__energy>
-19.030000000000001

> <m_primary>
energy

> <minimizedAffinity>
-6.43460

> <minimizedRMSD>
2.32232

> <CNNscore>
0.0747577846

> <CNNaffinity>
5.5032386780

> <CNN_VS>
0.4114099443

> <CNNaffinity_variance>
0.0977162719

$$$$
11:0


 30 33  0  0  0  0  0  0  0  0999 V2000
   60.3760   27.0682   46.5791 C   0  0  0  0  0  0  0  0  0  0  0  0
   59.5061   28.0243   46.2074 C   0  0  0  0  0  0  0  0  0  0  0  0
   58.4284   27.8549   45.3212 C   0  0  0  0  0  0  0  0  0  0  0  0
   57.8533   26.7396   44.8319 C   0  0  0  0  0  0  0  0  0  0  0  0
   57.9856   29.1228   45.0049 C   0  0  0  0  0  0  0  0  0  0  0  0
   58.7378   30.0075   45.7461 C   0  0  0  0  0  0  0  0  0  0  0  0
   58.5646   31.4949   45.6845 C   0  0  0  0  0  0  0  0  0  0  0  0
   59.6368   29.3467   46.5193 N   0  0  0  0  0  0  0  0  0  0  0  0
   57.3784   25.5989   45.6305 C   0  0  0  0  0  0  0  0  0  0  0  0
   58.0800   24.4655   45.7995 N   0  0  0  0  0  0  0  0  0  0  0  0
   57.2304   23.6694   46.4841 C   0  0  0  0  0  0  0  0  0  0  0  0
   57.5383   22.5055   46.8494 O   0  0  0  0  0  0  0  0  0  0  0  0
   56.0203   24.2149   46.7371 N   0  0  0  0  0  0  0  0  0  0  0  0
   56.1238   25.4311   46.1769 C   0  0  0  0  0  0  0  0  0  0  0  0
   55.0885   26.3601   46.1407 O   0  0  0  0  0  0  0  0  0  0  0  0
   54.2651   26.1599   46.5404 H   0  0  0  0  0  0  0  0  0  0  0  0
   60.6310   29.9745   47.4156 C   0  0  0  0  0  0  0  0  0  0  0  0
   59.9824   30.6630   48.6027 C   0  0  0  0  0  0  0  0  0  0  0  0
   59.1455   29.9020   49.4393 C   0  0  0  0  0  0  0  0  0  0  0  0
   58.5281   30.4741   50.5517 C   0  0  0  0  0  0  0  0  0  0  0  0
   57.7383   29.7102   51.3544 N   0  0  0  0  0  0  0  0  0  0  0  0
   57.1175   30.2252   52.4474 C   0  0  0  0  0  0  0  0  0  0  0  0
   57.2748   31.5719   52.7750 C   0  0  0  0  0  0  0  0  0  0  0  0
   58.0777   32.3878   51.9717 C   0  0  0  0  0  0  0  0  0  0  0  0
   58.2155   33.6054   52.2706 O   0  0  0  0  0  0  0  0  0  0  0  0
   58.7177   31.8414   50.8420 C   0  0  0  0  0  0  0  0  0  0  0  0
   59.5259   32.6171   49.9962 C   0  0  0  0  0  0  0  0  0  0  0  0
   60.1635   32.0460   48.8798 C   0  0  0  0  0  0  0  0  0  0  0  0
   60.9470   32.9701   47.9713 C   0  0  0  0  0  0  0  0  0  0  0  0
   60.1392   34.2176   47.6316 C   0  0  0  0  0  0  0  0  0  0  0  0
  1  2  2  0
  2  3  1  0
  3  4  2  0
  4  9  1  0
  9 10  1  0
 10 11  1  0
 11 12  2  0
 11 13  1  0
 13 14  1  0
 14 15  1  0
  3  5  1  0
  5  6  2  0
  6  7  1  0
  6  8  1  0
  8 17  1  0
 17 18  1  0
 18 19  2  0
 19 20  1  0
 20 21  1  0
 21 22  1  0
 22 23  2  0
 23 24  1  0
 24 25  2  0
 24 26  1  0
 26 27  1  0
 27 28  2  0
 28 29  1  0
 29 30  1  0
  8  2  1  0
 28 18  1  0
 14  9  2  0
 26 20  2  0
 15 16  1  0
M  CHG 1  10  -1
M  CHG 1  13  -1
M  CHG 1  21  -1
M  END
> <UniqueID>
12

> <SMILES>
C=c1c(=Cc2[n-]c(=O)[n-]c2O)cc(C)n1Cc1cc2[n-]ccc(=O)c2cc1CC

> <Energy>
125.48782317897142

> <Genealogy>
C=c1c(=Cc2[n-]c(=O)[n-]c2O)cc(C)n1Cc1cc2[n-]ccc(=O)c2cc1CC (protonated)
C=c1c(=Cc2[n-]c(=O)[n-]c2O)cc(C)n1Cc1cc2[n-]ccc(=O)c2cc1CC (3D coordinates assigned)
C=c1c(=Cc2[n-]c(=O)[n-]c2O)cc(C)n1Cc1cc2[n-]ccc(=O)c2cc1CC (optimized conformer: 125.48782317897142 kcal/mol)

> <smiles>
C=c1c(=Cc2[nH]c(=O)[nH]c2O)cc(C)n1Cc1cc2[nH]ccc(=O)c2cc1CC

> <score_type>
oracle

> <origin>
adg

> <m_score__min__energy>
-14.449999999999999

> <m_primary>
energy

> <minimizedAffinity>
-9.15312

> <minimizedRMSD>
0.48541

> <CNNscore>
0.4515824914

> <CNNaffinity>
6.9668731689

> <CNN_VS>
3.1461179256

> <CNNaffinity_variance>
0.0778742135

$$$$
16:0


 25 27  0  0  0  0  0  0  0  0999 V2000
   60.1190   26.5082   46.5750 C   0  0  0  0  0  0  0  0  0  0  0  0
   59.2852   27.2819   45.8578 C   0  0  0  0  0  0  0  0  0  0  0  0
   58.2279   26.8300   45.0563 C   0  0  0  0  0  0  0  0  0  0  0  0
   57.8624   25.5466   44.8405 C   0  0  0  0  0  0  0  0  0  0  0  0
   57.6081   27.9707   44.5629 C   0  0  0  0  0  0  0  0  0  0  0  0
   58.2948   29.0560   45.0689 C   0  0  0  0  0  0  0  0  0  0  0  0
   59.3390   28.6410   45.8295 N   0  0  0  0  0  0  0  0  0  0  0  0
   60.3253   29.5030   46.4922 C   0  0  0  0  0  0  0  0  0  0  0  0
   57.2112   24.6576   45.8273 C   0  0  0  0  0  0  0  0  0  0  0  0
   57.7541   23.5585   46.3806 N   0  0  0  0  0  0  0  0  0  0  0  0
   56.8031   23.1316   47.2392 C   0  0  0  0  0  0  0  0  0  0  0  0
   56.9446   22.1039   47.9515 O   0  0  0  0  0  0  0  0  0  0  0  0
   55.6920   23.8955   47.2768 N   0  0  0  0  0  0  0  0  0  0  0  0
   55.9678   24.8588   46.3826 C   0  0  0  0  0  0  0  0  0  0  0  0
   55.1013   25.9010   46.0803 O   0  0  0  0  0  0  0  0  0  0  0  0
   57.8827   30.4594   44.8418 C   0  0  0  0  0  0  0  0  0  0  0  0
   57.5574   30.8235   43.6803 O   0  0  0  0  0  0  0  0  0  0  0  0
   57.7488   31.3626   45.9461 N   0  0  0  0  0  0  0  0  0  0  0  0
   58.3830   32.6442   46.0951 C   0  0  0  0  0  0  0  0  0  0  0  0
   58.5213   33.5253   45.0068 C   0  0  0  0  0  0  0  0  0  0  0  0
   59.1589   34.7579   45.1718 C   0  0  0  0  0  0  0  0  0  0  0  0
   59.6741   35.1189   46.4162 C   0  0  0  0  0  0  0  0  0  0  0  0
   59.5659   34.2431   47.4980 C   0  0  0  0  0  0  0  0  0  0  0  0
   58.9315   32.9989   47.3451 C   0  0  0  0  0  0  0  0  0  0  0  0
   58.8272   32.0606   48.5169 C   0  0  0  0  0  0  0  0  0  0  0  0
  1  2  2  0
  2  3  1  0
  3  4  2  0
  4  9  1  0
  9 10  1  0
 10 11  1  0
 11 12  2  0
 11 13  1  0
 13 14  1  0
 14 15  1  0
  3  5  1  0
  5  6  2  0
  6 16  1  0
 16 17  2  0
 16 18  1  0
 18 19  1  0
 19 20  2  0
 20 21  1  0
 21 22  2  0
 22 23  1  0
 23 24  2  0
 24 25  1  0
  6  7  1  0
  7  8  1  0
  7  2  1  0
 14  9  2  0
 24 19  1  0
M  CHG 1  10  -1
M  CHG 1  13  -1
M  CHG 1  15  -1
M  CHG 1  18  -1
M  END
> <UniqueID>
17

> <SMILES>
C=c1c(=Cc2[n-]c(=O)[n-]c2[O-])cc(C(=O)[N-]c2ccccc2C)n1C

> <Energy>
110.30268366910379

> <Genealogy>
C=c1c(=Cc2[n-]c(=O)[n-]c2[O-])cc(C(=O)[N-]c2ccccc2C)n1C (protonated)
C=c1c(=Cc2[n-]c(=O)[n-]c2[O-])cc(C(=O)[N-]c2ccccc2C)n1C (3D coordinates assigned)
C=c1c(=Cc2[n-]c(=O)[n-]c2[O-])cc(C(=O)[N-]c2ccccc2C)n1C (optimized conformer: 110.30268366910379 kcal/mol)

> <smiles>
C=c1c(=Cc2[nH]c(=O)[nH]c2O)cc(C(=O)Nc2ccccc2C)n1C

> <score_type>
oracle

> <origin>
adg

> <m_score__min__energy>
-17.609999999999999

> <m_primary>
energy

> <minimizedAffinity>
-8.90316

> <minimizedRMSD>
0.89385

> <CNNscore>
0.4959140420

> <CNNaffinity>
6.7507057190

> <CNN_VS>
3.3477697372

> <CNNaffinity_variance>
0.0457389764

$$$$
18:0


 31 34  0  0  0  0  0  0  0  0999 V2000
   56.0960   27.1972   54.4977 C   0  0  0  0  0  0  0  0  0  0  0  0
   55.9369   28.3208   53.7930 C   0  0  0  0  0  0  0  0  0  0  0  0
   54.7129   28.5907   53.2623 N   0  0  0  0  0  0  0  0  0  0  0  0
   54.4497   29.7137   52.5404 C   0  0  0  0  0  0  0  0  0  0  0  0
   53.2277   29.9286   52.0244 C   0  0  0  0  0  0  0  0  0  0  0  0
   55.4860   30.6323   52.3061 C   0  0  0  0  0  0  0  0  0  0  0  0
   56.7636   30.3988   52.8359 C   0  0  0  0  0  0  0  0  0  0  0  0
   56.9931   29.2307   53.5888 C   0  0  0  0  0  0  0  0  0  0  0  0
   58.1355   29.0138   54.0855 O   0  0  0  0  0  0  0  0  0  0  0  0
   52.2265   30.8538   52.5961 C   0  0  0  0  0  0  0  0  0  0  0  0
   51.8382   30.7989   53.8824 N   0  0  0  0  0  0  0  0  0  0  0  0
   50.8876   31.7537   53.9682 C   0  0  0  0  0  0  0  0  0  0  0  0
   50.2815   32.0141   55.0392 O   0  0  0  0  0  0  0  0  0  0  0  0
   50.6277   32.3997   52.8120 N   0  0  0  0  0  0  0  0  0  0  0  0
   51.4734   31.8140   51.9482 C   0  0  0  0  0  0  0  0  0  0  0  0
   51.5094   32.1159   50.5929 O   0  0  0  0  0  0  0  0  0  0  0  0
   57.8605   31.3645   52.5823 C   0  0  0  0  0  0  0  0  0  0  0  0
   57.7101   32.5576   52.9644 O   0  0  0  0  0  0  0  0  0  0  0  0
   59.0550   30.9681   51.8557 N   0  0  0  0  0  0  0  0  0  0  0  0
   58.7970   30.8269   50.4068 C   0  0  0  0  0  0  0  0  0  0  0  0
   58.6782   32.1718   49.6809 C   0  0  0  0  0  0  0  0  0  0  0  0
   59.8196   33.0313   50.0129 N   0  0  0  0  0  0  0  0  0  0  0  0
   60.4045   33.9146   49.0304 C   0  0  0  0  0  0  0  0  0  0  0  0
   61.5763   34.3473   49.2095 O   0  0  0  0  0  0  0  0  0  0  0  0
   60.1552   33.2004   51.4312 C   0  0  0  0  0  0  0  0  0  0  0  0
   60.2174   31.8399   52.1437 C   0  0  0  0  0  0  0  0  0  0  0  0
   58.8955   30.0822   52.2544 H   0  0  0  0  0  0  0  0  0  0  0  0
   59.6718   34.2783   47.7546 C   0  0  0  0  0  0  0  0  0  0  0  0
   60.4561   33.9482   46.4835 C   0  0  0  0  0  0  0  0  0  0  0  0
   59.3567   32.9900   46.0473 C   0  0  0  0  0  0  0  0  0  0  0  0
   58.5823   33.2913   47.3227 C   0  0  0  0  0  0  0  0  0  0  0  0
  1  2  2  0
  2  3  1  0
  3  4  1  0
  4  5  2  0
  5 10  1  0
 10 11  1  0
 11 12  1  0
 12 13  2  0
 12 14  1  0
 14 15  1  0
 15 16  1  0
  4  6  1  0
  6  7  2  0
  7 17  1  0
 17 18  2  0
 17 19  1  0
 19 20  1  0
 20 21  1  0
 21 22  1  0
 22 23  1  0
 23 24  2  0
 23 28  1  0
 28 29  1  0
 29 30  1  0
 30 31  1  0
 22 25  1  0
 25 26  1  0
  7  8  1  0
  8  9  2  0
  8  2  1  0
 15 10  2  0
 26 19  1  0
 31 28  1  0
 19 27  1  0
M  CHG 1   3  -1
M  CHG 1  11  -1
M  CHG 1  14  -1
M  CHG 1  16  -1
M  CHG 1  19   1
M  END
> <UniqueID>
19

> <SMILES>
C=c1[n-]c(=Cc2[n-]c(=O)[n-]c2[O-])cc(C(=O)[NH+]2CCN(C(=O)C3CCC3)CC2)c1=O

> <Energy>
161.8914780473021

> <Genealogy>
C=c1[n-]c(=Cc2[n-]c(=O)[n-]c2[O-])cc(C(=O)[NH+]2CCN(C(=O)C3CCC3)CC2)c1=O (protonated)
C=c1[n-]c(=Cc2[n-]c(=O)[n-]c2[O-])cc(C(=O)[NH+]2CCN(C(=O)C3CCC3)CC2)c1=O (3D coordinates assigned)
C=c1[n-]c(=Cc2[n-]c(=O)[n-]c2[O-])cc(C(=O)[NH+]2CCN(C(=O)C3CCC3)CC2)c1=O (nonaromatic ring conformer: 161.8914780473021 kcal/mol)

> <smiles>
C=c1[nH]c(=Cc2[nH]c(=O)[nH]c2O)cc(C(=O)N2CCN(C(=O)C3CCC3)CC2)c1=O

> <score_type>
oracle

> <origin>
adg

> <m_score__min__energy>
-17.75

> <m_primary>
energy

> <minimizedAffinity>
-8.05901

> <minimizedRMSD>
1.33815

> <CNNscore>
0.2957053185

> <CNNaffinity>
5.8281631470

> <CNN_VS>
1.7234188318

> <CNNaffinity_variance>
0.1681116670

$$$$
34:0


 33 36  0  0  0  0  0  0  0  0999 V2000
   59.5800   29.3267   45.6088 C   0  0  0  0  0  0  0  0  0  0  0  0
   59.3085   30.6090   45.9226 C   0  0  0  0  0  0  0  0  0  0  0  0
   59.9124   31.4423   46.8825 C   0  0  0  0  0  0  0  0  0  0  0  0
   59.2289   32.6588   46.8182 C   0  0  0  0  0  0  0  0  0  0  0  0
   59.4066   33.8310   47.7442 C   0  0  0  0  0  0  0  0  0  0  0  0
   58.2456   32.5077   45.8491 C   0  0  0  0  0  0  0  0  0  0  0  0
   57.3247   33.4082   45.4951 C   0  0  0  0  0  0  0  0  0  0  0  0
   58.3099   31.2770   45.3089 N   0  0  0  0  0  0  0  0  0  0  0  0
   57.7314   30.9265   44.5936 H   0  0  0  0  0  0  0  0  0  0  0  0
   56.8173   28.8456   44.8407 O   0  0  0  0  0  0  0  0  0  0  0  0
   57.4914   27.9344   45.6546 C   0  0  0  0  0  0  0  0  0  0  0  0
   56.8362   26.8163   46.0617 N   0  0  0  0  0  0  0  0  0  0  0  0
   57.4456   25.8859   46.8390 C   0  0  0  0  0  0  0  0  0  0  0  0
   56.8128   24.8627   47.2056 O   0  0  0  0  0  0  0  0  0  0  0  0
   58.7383   26.0529   47.2150 N   0  0  0  0  0  0  0  0  0  0  0  0
   59.4409   27.1515   46.8372 C   0  0  0  0  0  0  0  0  0  0  0  0
   60.6430   27.2703   47.1939 O   0  0  0  0  0  0  0  0  0  0  0  0
   58.8210   28.1491   46.0642 C   0  0  0  0  0  0  0  0  0  0  0  0
   55.9323   28.6780   44.5827 H   0  0  0  0  0  0  0  0  0  0  0  0
   60.9029   31.0772   47.9634 C   0  0  0  0  0  0  0  0  0  0  0  0
   62.3378   31.3181   47.4830 C   0  0  0  0  0  0  0  0  0  0  0  0
   62.8767   32.6406   47.9608 C   0  0  0  0  0  0  0  0  0  0  0  0
   62.8835   33.6282   47.1769 O   0  0  0  0  0  0  0  0  0  0  0  0
   63.4057   32.7890   49.2923 N   0  0  0  0  0  0  0  0  0  0  0  0
   64.8049   32.4340   49.5577 C   0  0  0  0  0  0  0  0  0  0  0  0
   65.3624   33.1788   50.7474 C   0  0  0  0  0  0  0  0  0  0  0  0
   66.7270   33.0455   51.0535 C   0  0  0  0  0  0  0  0  0  0  0  0
   67.2735   33.7045   52.1576 C   0  0  0  0  0  0  0  0  0  0  0  0
   66.4633   34.5001   52.9683 C   0  0  0  0  0  0  0  0  0  0  0  0
   65.1040   34.6381   52.6818 C   0  0  0  0  0  0  0  0  0  0  0  0
   64.5373   33.9682   51.5851 C   0  0  0  0  0  0  0  0  0  0  0  0
   63.0778   34.1752   51.2692 C   0  0  0  0  0  0  0  0  0  0  0  0
   62.5233   33.0217   50.4389 C   0  0  0  0  0  0  0  0  0  0  0  0
 10 11  1  0
 11 12  1  0
 12 13  1  0
 13 14  2  0
 13 15  1  0
 15 16  1  0
 16 17  2  0
 16 18  1  0
 18  1  1  0
  1  2  2  0
  2  3  1  0
  3 20  1  0
 20 21  1  0
 21 22  1  0
 22 23  2  0
 22 24  1  0
 24 25  1  0
 25 26  1  0
 26 27  2  0
 27 28  1  0
 28 29  2  0
 29 30  1  0
 30 31  2  0
 31 32  1  0
 32 33  1  0
  3  4  2  0
  4  5  1  0
  4  6  1  0
  6  7  2  0
  6  8  1  0
 18 11  2  0
  8  2  1  0
 33 24  1  0
 31 26  1  0
 10 19  1  0
  8  9  1  0
M  CHG 1  12  -1
M  CHG 1  15  -1
M  END
> <UniqueID>
35

> <SMILES>
C=c1[nH]/c(=C/c2c(O)[n-]c(=O)[n-]c2=O)c(CCC(=O)N2CCc3ccccc3C2)c1C

> <Energy>
97.31470852662308

> <Genealogy>
C=c1[nH]c(=Cc2c(O)[n-]c(=O)[n-]c2=O)c(CCC(=O)N2CCc3ccccc3C2)c1C (protonated)
C=c1[nH]/c(=C/c2c(O)[n-]c(=O)[n-]c2=O)c(CCC(=O)N2CCc3ccccc3C2)c1C (cis-trans isomerization)
C=c1[nH]/c(=C/c2c(O)[n-]c(=O)[n-]c2=O)c(CCC(=O)N2CCc3ccccc3C2)c1C (3D coordinates assigned)
C=c1[nH]/c(=C/c2c(O)[n-]c(=O)[n-]c2=O)c(CCC(=O)N2CCc3ccccc3C2)c1C (nonaromatic ring conformer: 97.31470852662308 kcal/mol)

> <smiles>
C=c1[nH]c(=Cc2c(O)[nH]c(=O)[nH]c2=O)c(CCC(=O)N2CCc3ccccc3C2)c1C

> <score_type>
oracle

> <origin>
adg

> <m_score__min__energy>
-14.119999999999999

> <m_primary>
energy

> <minimizedAffinity>
-8.58782

> <minimizedRMSD>
0.95085

> <CNNscore>
0.7127990127

> <CNNaffinity>
7.2083554268

> <CNN_VS>
5.1381087303

> <CNNaffinity_variance>
0.2108406276

$$$$
36:0


 34 37  0  0  0  0  0  0  0  0999 V2000
   58.5080   30.7574   45.1087 C   0  0  0  0  0  0  0  0  0  0  0  0
   58.2144   31.2391   43.9822 O   0  0  0  0  0  0  0  0  0  0  0  0
   58.6693   31.6377   46.2371 N   0  0  0  0  0  0  0  0  0  0  0  0
   58.2194   31.2405   47.5786 C   0  0  0  0  0  0  0  0  0  0  0  0
   59.2424   31.7117   48.6130 C   0  0  0  0  0  0  0  0  0  0  0  0
   59.4474   33.2478   48.5722 C   0  0  0  0  0  0  0  0  0  0  0  0
   58.9800   33.8963   47.2412 C   0  0  0  0  0  0  0  0  0  0  0  0
   59.2016   32.9920   46.0197 C   0  0  0  0  0  0  0  0  0  0  0  0
   60.3022   26.4764   46.5149 C   0  0  0  0  0  0  0  0  0  0  0  0
   59.4874   27.3781   45.9426 C   0  0  0  0  0  0  0  0  0  0  0  0
   58.4289   27.1118   45.0604 C   0  0  0  0  0  0  0  0  0  0  0  0
   57.8295   25.9556   44.7169 C   0  0  0  0  0  0  0  0  0  0  0  0
   58.0090   28.3403   44.5807 C   0  0  0  0  0  0  0  0  0  0  0  0
   58.7583   29.3032   45.2250 C   0  0  0  0  0  0  0  0  0  0  0  0
   59.6646   28.7226   46.0469 N   0  0  0  0  0  0  0  0  0  0  0  0
   60.6811   29.4143   46.8508 C   0  0  0  0  0  0  0  0  0  0  0  0
   57.2221   24.9941   45.6524 C   0  0  0  0  0  0  0  0  0  0  0  0
   57.8466   23.9099   46.1499 N   0  0  0  0  0  0  0  0  0  0  0  0
   56.9693   23.4325   47.0587 C   0  0  0  0  0  0  0  0  0  0  0  0
   57.1908   22.3946   47.7348 O   0  0  0  0  0  0  0  0  0  0  0  0
   55.8394   24.1608   47.1911 N   0  0  0  0  0  0  0  0  0  0  0  0
   56.0239   25.1522   46.3041 C   0  0  0  0  0  0  0  0  0  0  0  0
   55.1164   26.1841   46.0987 O   0  0  0  0  0  0  0  0  0  0  0  0
   60.8930   33.5825   48.8940 C   0  0  0  0  0  0  0  0  0  0  0  0
   61.4406   34.5501   48.2972 O   0  0  0  0  0  0  0  0  0  0  0  0
   61.6901   32.7619   49.7822 N   0  0  0  0  0  0  0  0  0  0  0  0
   61.5754   32.9538   51.2091 C   0  0  0  0  0  0  0  0  0  0  0  0
   62.7213   33.0202   52.0223 C   0  0  0  0  0  0  0  0  0  0  0  0
   62.5977   33.2199   53.4012 C   0  0  0  0  0  0  0  0  0  0  0  0
   61.3346   33.3552   53.9800 C   0  0  0  0  0  0  0  0  0  0  0  0
   60.1900   33.2903   53.1813 C   0  0  0  0  0  0  0  0  0  0  0  0
   60.3073   33.0909   51.8034 C   0  0  0  0  0  0  0  0  0  0  0  0
   62.5902   31.7186   49.2645 C   0  0  0  0  0  0  0  0  0  0  0  0
   63.0341   32.0374   47.8368 C   0  0  0  0  0  0  0  0  0  0  0  0
  9 10  2  0
 10 11  1  0
 11 12  2  0
 12 17  1  0
 17 18  1  0
 18 19  1  0
 19 20  2  0
 19 21  1  0
 21 22  1  0
 22 23  1  0
 11 13  1  0
 13 14  2  0
 14  1  1  0
  1  2  2  0
  1  3  1  0
  3  4  1  0
  4  5  1  0
  5  6  1  0
  6 24  1  0
 24 25  2  0
 24 26  1  0
 26 27  1  0
 27 28  2  0
 28 29  1  0
 29 30  2  0
 30 31  1  0
 31 32  2  0
 26 33  1  0
 33 34  1  0
  6  7  1  0
  7  8  1  0
 14 15  1  0
 15 16  1  0
 15 10  1  0
 22 17  2  0
  8  3  1  0
 32 27  1  0
M  CHG 1  18  -1
M  CHG 1  21  -1
M  CHG 1  23  -1
M  END
> <UniqueID>
37

> <SMILES>
C=c1/c(=C\c2[n-]c(=O)[n-]c2[O-])cc(C(=O)N2CCC(C(=O)N(CC)c3ccccc3)CC2)n1C

> <Energy>
145.54298998126887

> <Genealogy>
C=c1c(=Cc2[n-]c(=O)[n-]c2[O-])cc(C(=O)N2CCC(C(=O)N(CC)c3ccccc3)CC2)n1C (protonated)
C=c1/c(=C\c2[n-]c(=O)[n-]c2[O-])cc(C(=O)N2CCC(C(=O)N(CC)c3ccccc3)CC2)n1C (cis-trans isomerization)
C=c1/c(=C\c2[n-]c(=O)[n-]c2[O-])cc(C(=O)N2CCC(C(=O)N(CC)c3ccccc3)CC2)n1C (3D coordinates assigned)
C=c1/c(=C\c2[n-]c(=O)[n-]c2[O-])cc(C(=O)N2CCC(C(=O)N(CC)c3ccccc3)CC2)n1C (nonaromatic ring conformer: 145.54298998126887 kcal/mol)

> <smiles>
C=c1c(=Cc2[nH]c(=O)[nH]c2O)cc(C(=O)N2CCC(C(=O)N(CC)c3ccccc3)CC2)n1C

> <score_type>
oracle

> <origin>
adg

> <m_score__min__energy>
-19.190000000000001

> <m_primary>
energy

> <minimizedAffinity>
-8.28271

> <minimizedRMSD>
1.94666

> <CNNscore>
0.2158196718

> <CNNaffinity>
7.1747651100

> <CNN_VS>
1.5484554768

> <CNNaffinity_variance>
0.0505696647

$$$$
62:0


 41 45  0  0  0  0  0  0  0  0999 V2000
   58.5205   32.5044   46.1672 C   0  0  0  0  0  0  0  0  0  0  0  0
   59.2686   31.3566   46.2856 C   0  0  0  0  0  0  0  0  0  0  0  0
   58.6619   30.3898   45.5722 N   0  0  0  0  0  0  0  0  0  0  0  0
   57.5620   30.9781   45.0312 C   0  0  0  0  0  0  0  0  0  0  0  0
   57.4455   32.2764   45.3901 N   0  0  0  0  0  0  0  0  0  0  0  0
   56.5675   30.3376   44.1429 C   0  0  0  0  0  0  0  0  0  0  0  0
   55.4628   29.6030   44.6603 N   0  0  0  0  0  0  0  0  0  0  0  0
   56.7000   30.4440   42.8946 O   0  0  0  0  0  0  0  0  0  0  0  0
   55.3454   29.5108   45.6335 H   0  0  0  0  0  0  0  0  0  0  0  0
   58.8036   33.8151   46.8406 C   0  0  0  0  0  0  0  0  0  0  0  0
   58.9320   33.4876   51.7052 C   0  0  0  0  0  0  0  0  0  0  0  0
   59.6951   33.5012   50.4556 N   0  0  0  0  0  0  0  0  0  0  0  0
   59.0285   33.6267   49.3068 N   0  0  0  0  0  0  0  0  0  0  0  0
   59.6427   33.6635   48.0924 C   0  0  0  0  0  0  0  0  0  0  0  0
   61.0486   33.5569   48.0386 C   0  0  0  0  0  0  0  0  0  0  0  0
   61.7595   33.5688   46.8187 C   0  0  0  0  0  0  0  0  0  0  0  0
   63.1519   33.4659   46.8093 C   0  0  0  0  0  0  0  0  0  0  0  0
   63.8566   33.3539   48.0059 C   0  0  0  0  0  0  0  0  0  0  0  0
   63.1722   33.3362   49.2240 C   0  0  0  0  0  0  0  0  0  0  0  0
   61.7661   33.4339   49.2528 C   0  0  0  0  0  0  0  0  0  0  0  0
   61.0582   33.4136   50.4679 C   0  0  0  0  0  0  0  0  0  0  0  0
   61.6783   33.3141   51.5645 O   0  0  0  0  0  0  0  0  0  0  0  0
   59.1986   29.0388   45.3818 C   0  0  0  0  0  0  0  0  0  0  0  0
   58.5485   28.0661   46.3687 C   0  0  0  0  0  0  0  0  0  0  0  0
   58.7611   28.5062   47.7458 N   0  0  0  0  0  0  0  0  0  0  0  0
   59.8880   28.0735   48.5281 C   0  0  0  0  0  0  0  0  0  0  0  0
   60.6302   27.1500   48.0945 O   0  0  0  0  0  0  0  0  0  0  0  0
   58.1092   29.1214   48.1531 H   0  0  0  0  0  0  0  0  0  0  0  0
   60.1919   28.6904   49.8424 C   0  0  0  0  0  0  0  0  0  0  0  0
   59.2990   29.5899   50.4494 C   0  0  0  0  0  0  0  0  0  0  0  0
   59.6174   30.1881   51.6712 C   0  0  0  0  0  0  0  0  0  0  0  0
   60.8273   29.8950   52.3025 C   0  0  0  0  0  0  0  0  0  0  0  0
   61.7272   28.9896   51.7218 C   0  0  0  0  0  0  0  0  0  0  0  0
   61.4135   28.4063   50.4824 C   0  0  0  0  0  0  0  0  0  0  0  0
   63.0247   28.7015   52.3661 C   0  0  0  0  0  0  0  0  0  0  0  0
   63.0728   27.8248   53.2716 O   0  0  0  0  0  0  0  0  0  0  0  0
   64.2287   29.3932   51.9861 N   0  0  0  0  0  0  0  0  0  0  0  0
   65.5540   28.8831   52.2910 C   0  0  0  0  0  0  0  0  0  0  0  0
   66.5156   30.0410   52.0563 C   0  0  0  0  0  0  0  0  0  0  0  0
   65.7275   31.0998   51.2868 C   0  0  0  0  0  0  0  0  0  0  0  0
   64.2555   30.7614   51.4885 C   0  0  0  0  0  0  0  0  0  0  0  0
 11 12  1  0
 12 13  1  0
 13 14  2  0
 14 10  1  0
 10  1  1  0
  1  2  2  0
  2  3  1  0
  3 23  1  0
 23 24  1  0
 24 25  1  0
 25 26  1  0
 26 27  2  0
 26 29  1  0
 29 30  2  0
 30 31  1  0
 31 32  2  0
 32 33  1  0
 33 35  1  0
 35 36  2  0
 35 37  1  0
 37 38  1  0
 38 39  1  0
 39 40  1  0
 40 41  1  0
 33 34  2  0
  3  4  1  0
  4  6  1  0
  6  7  1  0
  6  8  2  0
  4  5  2  0
 14 15  1  0
 15 16  2  0
 16 17  1  0
 17 18  2  0
 18 19  1  0
 19 20  2  0
 20 21  1  0
 21 22  2  0
 21 12  1  0
  5  1  1  0
 20 15  1  0
 34 29  1  0
 41 37  1  0
 25 28  1  0
  7  9  1  0
M  CHG 1   7  -1
M  END
> <UniqueID>
62

> <SMILES>
Cn1nc(Cc2cn(CCNC(=O)c3cccc(C(=O)N4CCCC4)c3)c(C([NH-])=O)n2)c2ccccc2c1=O

> <Energy>
111.94264304716235

> <Genealogy>
Cn1nc(Cc2cn(CCNC(=O)c3cccc(C(=O)N4CCCC4)c3)c(C([NH-])=O)n2)c2ccccc2c1=O (protonated)
Cn1nc(Cc2cn(CCNC(=O)c3cccc(C(=O)N4CCCC4)c3)c(C([NH-])=O)n2)c2ccccc2c1=O (3D coordinates assigned)
Cn1nc(Cc2cn(CCNC(=O)c3cccc(C(=O)N4CCCC4)c3)c(C([NH-])=O)n2)c2ccccc2c1=O (nonaromatic ring conformer: 111.94264304716235 kcal/mol)

> <smiles>
Cn1nc(Cc2cn(CCNC(=O)c3cccc(C(=O)N4CCCC4)c3)c(C(N)=O)n2)c2ccccc2c1=O

> <score_type>
oracle

> <origin>
adg

> <m_score__min__energy>
-14.33

> <m_primary>
energy

> <minimizedAffinity>
-9.37552

> <minimizedRMSD>
0.74260

> <CNNscore>
0.7868340015

> <CNNaffinity>
7.1536469460

> <CNN_VS>
5.6287326813

> <CNNaffinity_variance>
0.6362490058

$$$$
68:0


 30 33  0  0  0  0  0  0  0  0999 V2000
   56.7888   24.5238   47.1338 C   0  0  0  0  0  0  0  0  0  0  0  0
   57.8628   25.3492   46.8711 C   0  0  0  0  0  0  0  0  0  0  0  0
   57.3091   26.3966   46.1616 C   0  0  0  0  0  0  0  0  0  0  0  0
   55.9821   26.2068   46.0330 N   0  0  0  0  0  0  0  0  0  0  0  0
   55.6643   25.0664   46.6243 N   0  0  0  0  0  0  0  0  0  0  0  0
   58.0174   27.5832   45.6541 C   0  0  0  0  0  0  0  0  0  0  0  0
   58.4362   27.5844   44.4653 O   0  0  0  0  0  0  0  0  0  0  0  0
   58.2216   28.7435   46.4812 N   0  0  0  0  0  0  0  0  0  0  0  0
   58.1425   30.0878   45.9025 C   0  0  0  0  0  0  0  0  0  0  0  0
   59.5402   30.7054   45.8577 C   0  0  0  0  0  0  0  0  0  0  0  0
   60.1829   30.5704   47.1711 N   0  0  0  0  0  0  0  0  0  0  0  0
   60.2296   29.2400   47.7950 C   0  0  0  0  0  0  0  0  0  0  0  0
   58.8306   28.6206   47.8110 C   0  0  0  0  0  0  0  0  0  0  0  0
   60.9410   31.6642   47.7194 C   0  0  0  0  0  0  0  0  0  0  0  0
   62.3439   31.6436   47.6526 C   0  0  0  0  0  0  0  0  0  0  0  0
   63.0917   32.7029   48.1736 C   0  0  0  0  0  0  0  0  0  0  0  0
   62.4466   33.7907   48.7677 C   0  0  0  0  0  0  0  0  0  0  0  0
   61.0510   33.8196   48.8411 C   0  0  0  0  0  0  0  0  0  0  0  0
   60.2972   32.7620   48.3218 C   0  0  0  0  0  0  0  0  0  0  0  0
   58.9452   32.7981   48.4301 F   0  0  0  0  0  0  0  0  0  0  0  0
   56.5175   23.2697   49.1163 O   0  0  0  0  0  0  0  0  0  0  0  0
   56.8356   23.2635   47.8980 C   0  0  0  0  0  0  0  0  0  0  0  0
   57.1710   22.0161   47.2772 N   0  0  0  0  0  0  0  0  0  0  0  0
   57.1346   21.7365   45.8711 C   0  0  0  0  0  0  0  0  0  0  0  0
   58.1977   22.1749   45.0702 C   0  0  0  0  0  0  0  0  0  0  0  0
   58.1924   21.9300   43.6933 C   0  0  0  0  0  0  0  0  0  0  0  0
   57.1180   21.2618   43.1047 C   0  0  0  0  0  0  0  0  0  0  0  0
   56.0369   20.8492   43.8889 C   0  0  0  0  0  0  0  0  0  0  0  0
   56.0328   21.0958   45.2671 C   0  0  0  0  0  0  0  0  0  0  0  0
   54.9235   20.7238   46.0179 O   0  0  0  0  0  0  0  0  0  0  0  0
 21 22  2  0
 22 23  1  0
 23 24  1  0
 24 25  2  0
 25 26  1  0
 26 27  2  0
 27 28  1  0
 28 29  2  0
 29 30  1  0
 22  1  1  0
  1  2  1  0
  2  3  2  0
  3  6  1  0
  6  7  2  0
  6  8  1  0
  8  9  1  0
  9 10  1  0
 10 11  1  0
 11 14  1  0
 14 15  2  0
 15 16  1  0
 16 17  2  0
 17 18  1  0
 18 19  2  0
 19 20  1  0
 11 12  1  0
 12 13  1  0
  3  4  1  0
  4  5  1  0
 29 24  1  0
  5  1  2  0
 13  8  1  0
 19 14  1  0
M  CHG 1   4  -1
M  CHG 1  23  -1
M  CHG 1  30  -1
M  END
> <UniqueID>
68

> <SMILES>
O=C([N-]c1ccccc1[O-])c1cc(C(=O)N2CCN(c3ccccc3F)CC2)[n-]n1

> <Energy>
93.64350992119095

> <Genealogy>
O=C([N-]c1ccccc1[O-])c1cc(C(=O)N2CCN(c3ccccc3F)CC2)[n-]n1 (protonated)
O=C([N-]c1ccccc1[O-])c1cc(C(=O)N2CCN(c3ccccc3F)CC2)[n-]n1 (3D coordinates assigned)
O=C([N-]c1ccccc1[O-])c1cc(C(=O)N2CCN(c3ccccc3F)CC2)[n-]n1 (nonaromatic ring conformer: 93.64350992119095 kcal/mol)

> <smiles>
O=C(Nc1ccccc1O)c1cc(C(=O)N2CCN(c3ccccc3F)CC2)[nH]n1

> <score_type>
oracle

> <origin>
adg

> <m_score__min__energy>
-15.640000000000001

> <m_primary>
energy

> <minimizedAffinity>
-7.17538

> <minimizedRMSD>
2.04755

> <CNNscore>
0.1126828790

> <CNNaffinity>
5.9919791222

> <CNN_VS>
0.6751934290

> <CNNaffinity_variance>
0.0781285688

$$$$
82:0


 48 53  0  0  0  0  0  0  0  0999 V2000
   57.5824   25.1084   45.7337 C   0  0  0  0  0  0  0  0  0  0  0  0
   58.0554   23.9907   45.1381 N   0  0  0  0  0  0  0  0  0  0  0  0
   56.9557   23.2201   44.9754 C   0  0  0  0  0  0  0  0  0  0  0  0
   56.9993   22.0719   44.4661 O   0  0  0  0  0  0  0  0  0  0  0  0
   55.8130   23.8001   45.4211 N   0  0  0  0  0  0  0  0  0  0  0  0
   56.2034   24.9983   45.8718 C   0  0  0  0  0  0  0  0  0  0  0  0
   55.3330   25.9846   46.3341 O   0  0  0  0  0  0  0  0  0  0  0  0
   55.9629   29.9731   44.5670 C   0  0  0  0  0  0  0  0  0  0  0  0
   57.0244   29.2438   44.9120 C   0  0  0  0  0  0  0  0  0  0  0  0
   56.9628   27.9208   45.1388 N   0  0  0  0  0  0  0  0  0  0  0  0
   58.2005   27.5348   45.5111 C   0  0  0  0  0  0  0  0  0  0  0  0
   58.4291   26.2938   45.9738 C   0  0  0  0  0  0  0  0  0  0  0  0
   59.0982   28.6157   45.4284 C   0  0  0  0  0  0  0  0  0  0  0  0
   60.5571   28.5220   45.0640 C   0  0  0  0  0  0  0  0  0  0  0  0
   58.3167   29.7127   45.1043 C   0  0  0  0  0  0  0  0  0  0  0  0
   56.1690   27.3452   45.0504 H   0  0  0  0  0  0  0  0  0  0  0  0
   58.7161   31.1129   45.3174 C   0  0  0  0  0  0  0  0  0  0  0  0
   58.5280   31.9467   44.3849 O   0  0  0  0  0  0  0  0  0  0  0  0
   59.4201   31.5070   46.5218 N   0  0  0  0  0  0  0  0  0  0  0  0
   59.8134   32.9008   46.7507 C   0  0  0  0  0  0  0  0  0  0  0  0
   61.3282   32.9731   46.9601 C   0  0  0  0  0  0  0  0  0  0  0  0
   61.8593   31.9338   48.0010 C   0  0  0  0  0  0  0  0  0  0  0  0
   60.7534   31.0415   48.5798 C   0  0  0  0  0  0  0  0  0  0  0  0
   59.8865   30.4689   47.4624 C   0  0  0  0  0  0  0  0  0  0  0  0
   62.6226   32.5999   49.1276 C   0  0  0  0  0  0  0  0  0  0  0  0
   64.0219   32.4687   49.2155 C   0  0  0  0  0  0  0  0  0  0  0  0
   64.7162   33.0584   50.2768 C   0  0  0  0  0  0  0  0  0  0  0  0
   64.0205   33.7555   51.2673 C   0  0  0  0  0  0  0  0  0  0  0  0
   62.6303   33.8795   51.1952 C   0  0  0  0  0  0  0  0  0  0  0  0
   61.9337   33.3114   50.1292 C   0  0  0  0  0  0  0  0  0  0  0  0
   54.4544   23.2476   45.4329 C   0  0  0  0  0  0  0  0  0  0  0  0
   54.2553   22.1337   46.4379 C   0  0  0  0  0  0  0  0  0  0  0  0
   53.6676   20.9366   46.0078 C   0  0  0  0  0  0  0  0  0  0  0  0
   53.5400   19.8589   46.8911 C   0  0  0  0  0  0  0  0  0  0  0  0
   53.9659   19.9753   48.2151 C   0  0  0  0  0  0  0  0  0  0  0  0
   54.5651   21.1612   48.6492 C   0  0  0  0  0  0  0  0  0  0  0  0
   54.6642   22.2457   47.7741 C   0  0  0  0  0  0  0  0  0  0  0  0
   54.9894   21.3218   50.0433 C   0  0  0  0  0  0  0  0  0  0  0  0
   54.2121   21.8799   50.8647 O   0  0  0  0  0  0  0  0  0  0  0  0
   56.3333   21.0001   50.4336 N   0  0  0  0  0  0  0  0  0  0  0  0
   56.7785   19.6002   50.4323 C   0  0  0  0  0  0  0  0  0  0  0  0
   57.7989   19.3944   51.5558 C   0  0  0  0  0  0  0  0  0  0  0  0
   58.8225   20.4456   51.4878 N   0  0  0  0  0  0  0  0  0  0  0  0
   60.2216   20.1405   51.6005 C   0  0  0  0  0  0  0  0  0  0  0  0
   60.7211   19.1117   52.5589 C   0  0  0  0  0  0  0  0  0  0  0  0
   61.0464   20.7343   50.8658 O   0  0  0  0  0  0  0  0  0  0  0  0
   58.3813   21.8444   51.4824 C   0  0  0  0  0  0  0  0  0  0  0  0
   57.3470   22.0532   50.3809 C   0  0  0  0  0  0  0  0  0  0  0  0
  8  9  2  0
  9 10  1  0
 10 11  1  0
 11 12  2  0
 12  1  1  0
  1  2  1  0
  2  3  1  0
  3  4  2  0
  3  5  1  0
  5 31  1  0
 31 32  1  0
 32 33  2  0
 33 34  1  0
 34 35  2  0
 35 36  1  0
 36 38  1  0
 38 39  2  0
 38 40  1  0
 40 41  1  0
 41 42  1  0
 42 43  1  0
 43 44  1  0
 44 45  1  0
 44 46  2  0
 43 47  1  0
 47 48  1  0
 36 37  2  0
  5  6  1  0
  6  7  1  0
 11 13  1  0
 13 14  1  0
 13 15  2  0
 15 17  1  0
 17 18  2  0
 17 19  1  0
 19 20  1  0
 20 21  1  0
 21 22  1  0
 22 25  1  0
 25 26  2  0
 26 27  1  0
 27 28  2  0
 28 29  1  0
 29 30  2  0
 22 23  1  0
 23 24  1  0
 15  9  1  0
 24 19  1  0
  6  1  2  0
 30 25  1  0
 37 32  1  0
 48 40  1  0
 10 16  1  0
M  CHG 1   2  -1
M  CHG 1   7  -1
M  END
> <UniqueID>
82

> <SMILES>
C=c1[nH]c(=Cc2[n-]c(=O)n(Cc3cccc(C(=O)N4CCN(C(C)=O)CC4)c3)c2[O-])c(C)c1C(=O)N1CCC(c2ccccc2)CC1

> <Energy>
187.4666940681931

> <Genealogy>
C=c1[nH]c(=Cc2[n-]c(=O)n(Cc3cccc(C(=O)N4CCN(C(C)=O)CC4)c3)c2[O-])c(C)c1C(=O)N1CCC(c2ccccc2)CC1 (protonated)
C=c1[nH]c(=Cc2[n-]c(=O)n(Cc3cccc(C(=O)N4CCN(C(C)=O)CC4)c3)c2[O-])c(C)c1C(=O)N1CCC(c2ccccc2)CC1 (3D coordinates assigned)
C=c1[nH]c(=Cc2[n-]c(=O)n(Cc3cccc(C(=O)N4CCN(C(C)=O)CC4)c3)c2[O-])c(C)c1C(=O)N1CCC(c2ccccc2)CC1 (nonaromatic ring conformer: 187.4666940681931 kcal/mol)

> <smiles>
C=c1[nH]c(=Cc2[nH]c(=O)n(Cc3cccc(C(=O)N4CCN(C(C)=O)CC4)c3)c2O)c(C)c1C(=O)N1CCC(c2ccccc2)CC1

> <score_type>
oracle

> <origin>
adg

> <m_score__min__energy>
-14.84

> <m_primary>
energy

> <minimizedAffinity>
-9.55380

> <minimizedRMSD>
0.70874

> <CNNscore>
0.0738858134

> <CNNaffinity>
6.9873995781

> <CNN_VS>
0.5162696838

> <CNNaffinity_variance>
0.2567187846

$$$$
84:0


 32 35  0  0  0  0  0  0  0  0999 V2000
   58.4537   27.2367   43.6284 C   0  0  0  0  0  0  0  0  0  0  0  0
   58.7460   26.8815   44.8892 C   0  0  0  0  0  0  0  0  0  0  0  0
   58.4292   25.6610   45.4951 C   0  0  0  0  0  0  0  0  0  0  0  0
   57.8310   24.5940   44.9277 C   0  0  0  0  0  0  0  0  0  0  0  0
   58.8837   25.7421   46.8026 C   0  0  0  0  0  0  0  0  0  0  0  0
   59.4442   26.9955   46.9491 C   0  0  0  0  0  0  0  0  0  0  0  0
   60.0690   27.5005   48.2125 C   0  0  0  0  0  0  0  0  0  0  0  0
   59.3805   27.6844   45.7852 N   0  0  0  0  0  0  0  0  0  0  0  0
   56.4327   24.1983   45.2079 C   0  0  0  0  0  0  0  0  0  0  0  0
   55.5035   25.1040   45.7484 C   0  0  0  0  0  0  0  0  0  0  0  0
   55.8717   26.4123   46.0424 O   0  0  0  0  0  0  0  0  0  0  0  0
   54.2226   24.7093   45.9699 N   0  0  0  0  0  0  0  0  0  0  0  0
   53.8122   23.4539   45.6609 C   0  0  0  0  0  0  0  0  0  0  0  0
   52.6219   23.1095   45.8777 O   0  0  0  0  0  0  0  0  0  0  0  0
   54.6834   22.5701   45.1104 N   0  0  0  0  0  0  0  0  0  0  0  0
   55.9756   22.9144   44.8703 C   0  0  0  0  0  0  0  0  0  0  0  0
   56.7543   22.0690   44.3537 O   0  0  0  0  0  0  0  0  0  0  0  0
   59.8610   29.0601   45.5820 C   0  0  0  0  0  0  0  0  0  0  0  0
   58.7693   30.0573   45.8943 C   0  0  0  0  0  0  0  0  0  0  0  0
   57.5739   29.6583   45.8690 O   0  0  0  0  0  0  0  0  0  0  0  0
   59.0521   31.4565   46.1491 N   0  0  0  0  0  0  0  0  0  0  0  0
   60.4280   31.9118   46.4133 C   0  0  0  0  0  0  0  0  0  0  0  0
   60.4755   33.3849   46.8423 C   0  0  0  0  0  0  0  0  0  0  0  0
   59.3650   33.7225   47.8569 C   0  0  0  0  0  0  0  0  0  0  0  0
   57.9487   33.3344   47.3400 C   0  0  0  0  0  0  0  0  0  0  0  0
   57.9727   32.4555   46.0788 C   0  0  0  0  0  0  0  0  0  0  0  0
   59.6848   33.1398   49.2292 C   0  0  0  0  0  0  0  0  0  0  0  0
   60.8132   33.6052   49.9310 C   0  0  0  0  0  0  0  0  0  0  0  0
   61.1570   33.0536   51.1700 C   0  0  0  0  0  0  0  0  0  0  0  0
   60.3886   32.0247   51.7162 C   0  0  0  0  0  0  0  0  0  0  0  0
   59.2756   31.5416   51.0257 C   0  0  0  0  0  0  0  0  0  0  0  0
   58.9264   32.0913   49.7878 C   0  0  0  0  0  0  0  0  0  0  0  0
  1  2  2  0
  2  3  1  0
  3  4  2  0
  4  9  1  0
  9 10  2  0
 10 11  1  0
 10 12  1  0
 12 13  1  0
 13 14  2  0
 13 15  1  0
 15 16  1  0
 16 17  2  0
  3  5  1  0
  5  6  2  0
  6  7  1  0
  6  8  1  0
  8 18  1  0
 18 19  1  0
 19 20  2  0
 19 21  1  0
 21 22  1  0
 22 23  1  0
 23 24  1  0
 24 27  1  0
 27 28  2  0
 28 29  1  0
 29 30  2  0
 30 31  1  0
 31 32  2  0
 24 25  1  0
 25 26  1  0
  8  2  1  0
 26 21  1  0
 16  9  1  0
 32 27  1  0
M  CHG 1  11  -1
M  CHG 1  12  -1
M  CHG 1  15  -1
M  END
> <UniqueID>
84

> <SMILES>
C=c1/c(=C/c2c([O-])[n-]c(=O)[n-]c2=O)cc(C)n1CC(=O)N1CCC(c2ccccc2)CC1

> <Energy>
101.62493486976841

> <Genealogy>
C=c1c(=Cc2c([O-])[n-]c(=O)[n-]c2=O)cc(C)n1CC(=O)N1CCC(c2ccccc2)CC1 (protonated)
C=c1/c(=C/c2c([O-])[n-]c(=O)[n-]c2=O)cc(C)n1CC(=O)N1CCC(c2ccccc2)CC1 (cis-trans isomerization)
C=c1/c(=C/c2c([O-])[n-]c(=O)[n-]c2=O)cc(C)n1CC(=O)N1CCC(c2ccccc2)CC1 (3D coordinates assigned)
C=c1/c(=C/c2c([O-])[n-]c(=O)[n-]c2=O)cc(C)n1CC(=O)N1CCC(c2ccccc2)CC1 (nonaromatic ring conformer: 101.62493486976841 kcal/mol)

> <smiles>
C=c1c(=Cc2c(O)[nH]c(=O)[nH]c2=O)cc(C)n1CC(=O)N1CCC(c2ccccc2)CC1

> <score_type>
oracle

> <origin>
adg

> <m_score__min__energy>
-17.289999999999999

> <m_primary>
energy

> <minimizedAffinity>
-8.40368

> <minimizedRMSD>
0.93113

> <CNNscore>
0.2865148783

> <CNNaffinity>
7.0943999290

> <CNN_VS>
2.0326511860

> <CNNaffinity_variance>
0.3830898106

$$$$
8:0


 31 34  0  0  0  0  0  0  0  0999 V2000
   58.6191   30.0308   53.0359 C   0  0  0  0  0  0  0  0  0  0  0  0
   59.3283   29.2664   53.7469 O   0  0  0  0  0  0  0  0  0  0  0  0
   59.2594   31.0521   52.2266 N   0  0  0  0  0  0  0  0  0  0  0  0
   58.4973   31.8285   51.2323 C   0  0  0  0  0  0  0  0  0  0  0  0
   59.3937   32.7544   50.3946 C   0  0  0  0  0  0  0  0  0  0  0  0
   60.6283   32.0631   49.9914 N   0  0  0  0  0  0  0  0  0  0  0  0
   61.2095   32.2598   48.6855 C   0  0  0  0  0  0  0  0  0  0  0  0
   61.9733   31.3734   48.2105 O   0  0  0  0  0  0  0  0  0  0  0  0
   61.3533   31.2297   50.9614 C   0  0  0  0  0  0  0  0  0  0  0  0
   60.7056   31.2906   52.3451 C   0  0  0  0  0  0  0  0  0  0  0  0
   54.3971   27.8578   53.4479 C   0  0  0  0  0  0  0  0  0  0  0  0
   55.2463   28.8750   53.2907 C   0  0  0  0  0  0  0  0  0  0  0  0
   56.5464   28.7046   53.3735 O   0  0  0  0  0  0  0  0  0  0  0  0
   57.1519   29.8285   53.0642 C   0  0  0  0  0  0  0  0  0  0  0  0
   56.2104   30.7950   52.7608 C   0  0  0  0  0  0  0  0  0  0  0  0
   54.9724   30.2053   52.9447 C   0  0  0  0  0  0  0  0  0  0  0  0
   53.8101   30.8717   52.8082 C   0  0  0  0  0  0  0  0  0  0  0  0
   52.9285   30.8252   51.6306 C   0  0  0  0  0  0  0  0  0  0  0  0
   53.0050   29.9029   50.6520 N   0  0  0  0  0  0  0  0  0  0  0  0
   51.9259   30.1743   49.8854 C   0  0  0  0  0  0  0  0  0  0  0  0
   51.6556   29.5243   48.8419 O   0  0  0  0  0  0  0  0  0  0  0  0
   51.1537   31.1874   50.3317 N   0  0  0  0  0  0  0  0  0  0  0  0
   51.7954   31.5763   51.4460 C   0  0  0  0  0  0  0  0  0  0  0  0
   51.3492   32.5939   52.2791 O   0  0  0  0  0  0  0  0  0  0  0  0
   60.8953   33.4791   47.8561 C   0  0  0  0  0  0  0  0  0  0  0  0
   59.9010   33.1604   46.7698 C   0  0  0  0  0  0  0  0  0  0  0  0
   59.3091   31.8869   46.7051 C   0  0  0  0  0  0  0  0  0  0  0  0
   58.3596   31.6000   45.7203 C   0  0  0  0  0  0  0  0  0  0  0  0
   57.9871   32.5836   44.7996 C   0  0  0  0  0  0  0  0  0  0  0  0
   58.5624   33.8570   44.8643 C   0  0  0  0  0  0  0  0  0  0  0  0
   59.5139   34.1471   45.8471 C   0  0  0  0  0  0  0  0  0  0  0  0
 11 12  2  0
 12 13  1  0
 13 14  1  0
 14  1  1  0
  1  2  2  0
  1  3  1  0
  3  4  1  0
  4  5  1  0
  5  6  1  0
  6  7  1  0
  7  8  2  0
  7 25  1  0
 25 26  1  0
 26 27  2  0
 27 28  1  0
 28 29  2  0
 29 30  1  0
 30 31  2  0
  6  9  1  0
  9 10  1  0
 14 15  2  0
 15 16  1  0
 16 17  2  0
 17 18  1  0
 18 19  1  0
 19 20  1  0
 20 21  2  0
 20 22  1  0
 22 23  1  0
 23 24  1  0
 16 12  1  0
 23 18  2  0
 10  3  1  0
 31 26  1  0
M  CHG 1  19  -1
M  CHG 1  22  -1
M  CHG 1  24  -1
M  END
> <UniqueID>
8

> <SMILES>
C=c1oc(C(=O)N2CCN(C(=O)Cc3ccccc3)CC2)cc1=Cc1[n-]c(=O)[n-]c1[O-]

> <Energy>
123.70406950862684

> <Genealogy>
C=c1oc(C(=O)N2CCN(C(=O)Cc3ccccc3)CC2)cc1=Cc1[n-]c(=O)[n-]c1[O-] (protonated)
C=c1oc(C(=O)N2CCN(C(=O)Cc3ccccc3)CC2)cc1=Cc1[n-]c(=O)[n-]c1[O-] (3D coordinates assigned)
C=c1oc(C(=O)N2CCN(C(=O)Cc3ccccc3)CC2)cc1=Cc1[n-]c(=O)[n-]c1[O-] (nonaromatic ring conformer: 123.70406950862684 kcal/mol)

> <smiles>
C=c1oc(C(=O)N2CCN(C(=O)Cc3ccccc3)CC2)cc1=Cc1[nH]c(=O)[nH]c1O

> <score_type>
oracle

> <origin>
adg

> <m_score__min__energy>
-18.280000000000001

> <m_primary>
energy

> <minimizedAffinity>
-7.85915

> <minimizedRMSD>
0.85331

> <CNNscore>
0.1330940723

> <CNNaffinity>
5.4478554726

> <CNN_VS>
0.7250772715

> <CNNaffinity_variance>
0.2480844259

$$$$
29:0


 34 37  0  0  0  0  0  0  0  0999 V2000
   57.4747   30.8767   44.6330 S   0  0  0  0  0  0  0  0  0  0  0  0
   56.0698   30.5318   44.2126 O   0  0  0  0  0  0  0  0  0  0  0  0
   58.2160   31.4135   43.4364 O   0  0  0  0  0  0  0  0  0  0  0  0
   58.2683   29.4128   45.2121 C   0  0  0  0  0  0  0  0  0  0  0  0
   59.5664   29.4695   45.7331 C   0  0  0  0  0  0  0  0  0  0  0  0
   60.1789   28.3363   46.1634 N   0  0  0  0  0  0  0  0  0  0  0  0
   59.5737   27.1191   46.0968 C   0  0  0  0  0  0  0  0  0  0  0  0
   60.1962   26.0994   46.4960 O   0  0  0  0  0  0  0  0  0  0  0  0
   58.2724   27.0098   45.5689 C   0  0  0  0  0  0  0  0  0  0  0  0
   57.6236   28.1755   45.1354 C   0  0  0  0  0  0  0  0  0  0  0  0
   57.5875   25.6984   45.4716 C   0  0  0  0  0  0  0  0  0  0  0  0
   58.2775   24.5947   45.0558 N   0  0  0  0  0  0  0  0  0  0  0  0
   57.6770   23.3715   44.9674 C   0  0  0  0  0  0  0  0  0  0  0  0
   58.4676   22.1669   44.5313 C   0  0  0  0  0  0  0  0  0  0  0  0
   56.3208   23.2500   45.3158 C   0  0  0  0  0  0  0  0  0  0  0  0
   55.7335   22.1369   45.2558 O   0  0  0  0  0  0  0  0  0  0  0  0
   55.6331   24.3480   45.7229 N   0  0  0  0  0  0  0  0  0  0  0  0
   56.2274   25.5650   45.8077 C   0  0  0  0  0  0  0  0  0  0  0  0
   55.4757   26.6632   46.2118 O   0  0  0  0  0  0  0  0  0  0  0  0
   59.2279   24.6832   44.8148 H   0  0  0  0  0  0  0  0  0  0  0  0
   59.7921   33.1683   47.1947 N   0  0  0  0  0  0  0  0  0  0  0  0
   58.7326   32.5664   48.0056 C   0  0  0  0  0  0  0  0  0  0  0  0
   58.0073   31.5168   47.1621 C   0  0  0  0  0  0  0  0  0  0  0  0
   57.4419   32.0756   45.9090 N   0  0  0  0  0  0  0  0  0  0  0  0
   58.0445   33.3544   45.4579 C   0  0  0  0  0  0  0  0  0  0  0  0
   59.5414   33.4640   45.7821 C   0  0  0  0  0  0  0  0  0  0  0  0
   63.0671   34.0017   50.9329 C   0  0  0  0  0  0  0  0  0  0  0  0
   62.7342   33.6612   49.5026 C   0  0  0  0  0  0  0  0  0  0  0  0
   63.7835   33.4866   48.5840 C   0  0  0  0  0  0  0  0  0  0  0  0
   63.5160   33.1904   47.2505 C   0  0  0  0  0  0  0  0  0  0  0  0
   62.1988   33.0814   46.8082 C   0  0  0  0  0  0  0  0  0  0  0  0
   61.1326   33.2493   47.7005 C   0  0  0  0  0  0  0  0  0  0  0  0
   61.3896   33.5065   49.0685 C   0  0  0  0  0  0  0  0  0  0  0  0
   60.2450   33.6600   50.0451 C   0  0  0  0  0  0  0  0  0  0  0  0
 27 28  1  0
 28 29  2  0
 29 30  1  0
 30 31  2  0
 31 32  1  0
 32 21  1  0
 21 22  1  0
 22 23  1  0
 23 24  1  0
 24  1  1  0
  1  2  2  0
  1  3  2  0
  1  4  1  0
  4  5  2  0
  5  6  1  0
  6  7  1  0
  7  8  2  0
  7  9  1  0
  9 11  1  0
 11 12  1  0
 12 13  2  0
 13 14  1  0
 13 15  1  0
 15 16  2  0
 15 17  1  0
 17 18  1  0
 18 19  1  0
  9 10  2  0
 24 25  1  0
 25 26  1  0
 32 33  2  0
 33 34  1  0
 33 28  1  0
 26 21  1  0
 10  4  1  0
 18 11  2  0
 12 20  1  0
M  CHG 1   6  -1
M  CHG 1  12   1
M  CHG 1  17  -1
M  CHG 1  19  -1
M  END
> <UniqueID>
28

> <SMILES>
Cc1cccc(N2CCN(S(=O)(=O)c3c[n-]c(=O)c(-c4[nH+]c(C)c(=O)[n-]c4[O-])c3)CC2)c1C

> <Energy>
81.69570888241957

> <Genealogy>
Cc1cccc(N2CCN(S(=O)(=O)c3c[n-]c(=O)c(-c4[nH+]c(C)c(=O)[n-]c4[O-])c3)CC2)c1C (protonated)
Cc1cccc(N2CCN(S(=O)(=O)c3c[n-]c(=O)c(-c4[nH+]c(C)c(=O)[n-]c4[O-])c3)CC2)c1C (3D coordinates assigned)
Cc1cccc(N2CCN(S(=O)(=O)c3c[n-]c(=O)c(-c4[nH+]c(C)c(=O)[n-]c4[O-])c3)CC2)c1C (nonaromatic ring conformer: 81.69570888241957 kcal/mol)

> <smiles>
Cc1cccc(N2CCN(S(=O)(=O)c3c[nH]c(=O)c(-c4nc(C)c(=O)[nH]c4O)c3)CC2)c1C

> <score_type>
oracle

> <origin>
adg

> <m_score__min__energy>
-14.5

> <m_primary>
energy

> <minimizedAffinity>
-8.76941

> <minimizedRMSD>
1.37770

> <CNNscore>
0.4543248117

> <CNNaffinity>
7.1924157143

> <CNN_VS>
3.2676928043

> <CNNaffinity_variance>
0.0568358935

$$$$
30:0


 31 34  0  0  0  0  0  0  0  0999 V2000
   58.8971   30.7458   51.2780 C   0  0  0  0  0  0  0  0  0  0  0  0
   58.5280   31.4536   50.3003 O   0  0  0  0  0  0  0  0  0  0  0  0
   60.3007   30.5320   51.5136 N   0  0  0  0  0  0  0  0  0  0  0  0
   60.8891   30.9367   52.7995 C   0  0  0  0  0  0  0  0  0  0  0  0
   61.6904   32.2283   52.5948 C   0  0  0  0  0  0  0  0  0  0  0  0
   62.4123   32.2053   51.3138 N   0  0  0  0  0  0  0  0  0  0  0  0
   62.7858   33.4582   50.7087 C   0  0  0  0  0  0  0  0  0  0  0  0
   63.3155   34.3516   51.4274 O   0  0  0  0  0  0  0  0  0  0  0  0
   62.5766   30.9306   50.5992 C   0  0  0  0  0  0  0  0  0  0  0  0
   61.1997   30.2827   50.3722 C   0  0  0  0  0  0  0  0  0  0  0  0
   56.8338   27.8340   54.4336 C   0  0  0  0  0  0  0  0  0  0  0  0
   56.9545   28.8605   53.5859 C   0  0  0  0  0  0  0  0  0  0  0  0
   58.0647   29.1109   52.9280 O   0  0  0  0  0  0  0  0  0  0  0  0
   57.8810   30.1752   52.1754 C   0  0  0  0  0  0  0  0  0  0  0  0
   56.5937   30.6602   52.3401 C   0  0  0  0  0  0  0  0  0  0  0  0
   55.9863   29.8145   53.2578 C   0  0  0  0  0  0  0  0  0  0  0  0
   54.7110   29.8709   53.6877 C   0  0  0  0  0  0  0  0  0  0  0  0
   53.5656   30.1730   52.8092 C   0  0  0  0  0  0  0  0  0  0  0  0
   53.5543   29.9025   51.4914 N   0  0  0  0  0  0  0  0  0  0  0  0
   52.3025   30.2473   51.1114 C   0  0  0  0  0  0  0  0  0  0  0  0
   51.9028   30.1466   49.9228 O   0  0  0  0  0  0  0  0  0  0  0  0
   51.5104   30.6986   52.1106 N   0  0  0  0  0  0  0  0  0  0  0  0
   52.3206   30.6353   53.1796 C   0  0  0  0  0  0  0  0  0  0  0  0
   51.9173   30.9515   54.4726 O   0  0  0  0  0  0  0  0  0  0  0  0
   62.4050   33.7799   49.2789 C   0  0  0  0  0  0  0  0  0  0  0  0
   60.9152   33.4672   48.9938 C   0  0  0  0  0  0  0  0  0  0  0  0
   60.6517   33.1761   47.4961 C   0  0  0  0  0  0  0  0  0  0  0  0
   61.6088   33.8816   46.6261 N   0  0  0  0  0  0  0  0  0  0  0  0
   62.9979   33.4187   46.8303 C   0  0  0  0  0  0  0  0  0  0  0  0
   63.3111   33.0222   48.2951 C   0  0  0  0  0  0  0  0  0  0  0  0
   61.5625   34.8802   46.8290 H   0  0  0  0  0  0  0  0  0  0  0  0
 11 12  2  0
 12 13  1  0
 13 14  1  0
 14  1  1  0
  1  2  2  0
  1  3  1  0
  3  4  1  0
  4  5  1  0
  5  6  1  0
  6  7  1  0
  7  8  2  0
  7 25  1  0
 25 26  1  0
 26 27  1  0
 27 28  1  0
 28 29  1  0
 29 30  1  0
  6  9  1  0
  9 10  1  0
 14 15  2  0
 15 16  1  0
 16 17  2  0
 17 18  1  0
 18 19  1  0
 19 20  1  0
 20 21  2  0
 20 22  1  0
 22 23  1  0
 23 24  1  0
 16 12  1  0
 23 18  2  0
 10  3  1  0
 30 25  1  0
 28 31  1  0
M  CHG 1  19  -1
M  CHG 1  22  -1
M  CHG 1  24  -1
M  END
> <UniqueID>
29

> <SMILES>
C=c1oc(C(=O)N2CCN(C(=O)C3CCNCC3)CC2)c/c1=C\c1[n-]c(=O)[n-]c1[O-]

> <Energy>
130.79389785824551

> <Genealogy>
C=c1oc(C(=O)N2CCN(C(=O)C3CCNCC3)CC2)cc1=Cc1[n-]c(=O)[n-]c1[O-] (protonated)
C=c1oc(C(=O)N2CCN(C(=O)C3CCNCC3)CC2)c/c1=C\c1[n-]c(=O)[n-]c1[O-] (cis-trans isomerization)
C=c1oc(C(=O)N2CCN(C(=O)C3CCNCC3)CC2)c/c1=C\c1[n-]c(=O)[n-]c1[O-] (3D coordinates assigned)
C=c1oc(C(=O)N2CCN(C(=O)C3CCNCC3)CC2)c/c1=C\c1[n-]c(=O)[n-]c1[O-] (nonaromatic ring conformer: 130.79389785824551 kcal/mol)

> <smiles>
C=c1oc(C(=O)N2CCN(C(=O)C3CCNCC3)CC2)cc1=Cc1[nH]c(=O)[nH]c1O

> <score_type>
oracle

> <origin>
adg

> <m_score__min__energy>
-17.48

> <m_primary>
energy

> <minimizedAffinity>
-7.56881

> <minimizedRMSD>
2.26367

> <CNNscore>
0.0835989490

> <CNNaffinity>
4.5925374031

> <CNN_VS>
0.3839313090

> <CNNaffinity_variance>
0.5333377719

$$$$
32:0


 28 30  0  0  0  0  0  0  0  0999 V2000
   58.2707   27.3657   45.9162 C   0  0  0  0  0  0  0  0  0  0  0  0
   56.8823   27.2076   45.9107 C   0  0  0  0  0  0  0  0  0  0  0  0
   56.2901   26.0951   46.5011 O   0  0  0  0  0  0  0  0  0  0  0  0
   56.1004   28.1517   45.3393 N   0  0  0  0  0  0  0  0  0  0  0  0
   56.6279   29.2636   44.7687 C   0  0  0  0  0  0  0  0  0  0  0  0
   55.8484   30.1055   44.2471 O   0  0  0  0  0  0  0  0  0  0  0  0
   57.9868   29.4666   44.7686 N   0  0  0  0  0  0  0  0  0  0  0  0
   58.8099   28.5253   45.3401 C   0  0  0  0  0  0  0  0  0  0  0  0
   60.0629   28.6923   45.3448 O   0  0  0  0  0  0  0  0  0  0  0  0
   59.5047   25.3534   45.8362 O   0  0  0  0  0  0  0  0  0  0  0  0
   59.1442   26.3419   46.5249 C   0  0  0  0  0  0  0  0  0  0  0  0
   59.5686   26.4347   47.8899 N   0  0  0  0  0  0  0  0  0  0  0  0
   60.7566   27.1581   48.3252 C   0  0  0  0  0  0  0  0  0  0  0  0
   60.3598   28.2184   49.3097 C   0  0  0  0  0  0  0  0  0  0  0  0
   59.3862   29.1716   48.9705 C   0  0  0  0  0  0  0  0  0  0  0  0
   58.9928   30.1394   49.9017 C   0  0  0  0  0  0  0  0  0  0  0  0
   59.5612   30.1539   51.1788 C   0  0  0  0  0  0  0  0  0  0  0  0
   59.1778   31.0919   52.0804 F   0  0  0  0  0  0  0  0  0  0  0  0
   60.5204   29.1993   51.5282 C   0  0  0  0  0  0  0  0  0  0  0  0
   60.9165   28.2307   50.5996 C   0  0  0  0  0  0  0  0  0  0  0  0
   58.5642   30.6578   44.1147 C   0  0  0  0  0  0  0  0  0  0  0  0
   58.7185   31.7814   45.1082 C   0  0  0  0  0  0  0  0  0  0  0  0
   58.2566   33.0713   44.7971 C   0  0  0  0  0  0  0  0  0  0  0  0
   58.4314   34.1212   45.7041 C   0  0  0  0  0  0  0  0  0  0  0  0
   59.0722   33.8930   46.9250 C   0  0  0  0  0  0  0  0  0  0  0  0
   59.2460   34.9378   47.8251 O   0  0  0  0  0  0  0  0  0  0  0  0
   59.5380   32.6139   47.2410 C   0  0  0  0  0  0  0  0  0  0  0  0
   59.3646   31.5609   46.3363 C   0  0  0  0  0  0  0  0  0  0  0  0
 10 11  2  0
 11 12  1  0
 12 13  1  0
 13 14  1  0
 14 15  2  0
 15 16  1  0
 16 17  2  0
 17 18  1  0
 17 19  1  0
 19 20  2  0
 11  1  1  0
  1  2  2  0
  2  3  1  0
  2  4  1  0
  4  5  1  0
  5  6  2  0
  5  7  1  0
  7 21  1  0
 21 22  1  0
 22 23  2  0
 23 24  1  0
 24 25  2  0
 25 26  1  0
 25 27  1  0
 27 28  2  0
  7  8  1  0
  8  9  2  0
 20 14  1  0
  8  1  1  0
 28 22  1  0
M  CHG 1   3  -1
M  CHG 1   4  -1
M  CHG 1  12  -1
M  CHG 1  26  -1
M  END
> <UniqueID>
31

> <SMILES>
O=C([N-]Cc1ccc(F)cc1)c1c([O-])[n-]c(=O)n(Cc2ccc([O-])cc2)c1=O

> <Energy>
52.284187885537094

> <Genealogy>
O=C([N-]Cc1ccc(F)cc1)c1c([O-])[n-]c(=O)n(Cc2ccc([O-])cc2)c1=O (protonated)
O=C([N-]Cc1ccc(F)cc1)c1c([O-])[n-]c(=O)n(Cc2ccc([O-])cc2)c1=O (3D coordinates assigned)
O=C([N-]Cc1ccc(F)cc1)c1c([O-])[n-]c(=O)n(Cc2ccc([O-])cc2)c1=O (optimized conformer: 52.284187885537094 kcal/mol)

> <smiles>
O=C(NCc1ccc(F)cc1)c1c(O)[nH]c(=O)n(Cc2ccc(O)cc2)c1=O

> <score_type>
oracle

> <origin>
adg

> <m_score__min__energy>
-14.59

> <m_primary>
energy

> <minimizedAffinity>
-5.63651

> <minimizedRMSD>
0.95692

> <CNNscore>
0.2279868573

> <CNNaffinity>
6.1612281799

> <CNN_VS>
1.4046790600

> <CNNaffinity_variance>
0.0312794335

$$$$
54:0


 32 35  0  0  0  0  0  0  0  0999 V2000
   57.9704   29.4268   45.7189 C   0  0  0  0  0  0  0  0  0  0  0  0
   58.3879   28.6565   46.7994 C   0  0  0  0  0  0  0  0  0  0  0  0
   58.5863   27.2846   46.6573 C   0  0  0  0  0  0  0  0  0  0  0  0
   58.3650   26.6364   45.4219 C   0  0  0  0  0  0  0  0  0  0  0  0
   58.4048   25.2781   45.4340 C   0  0  0  0  0  0  0  0  0  0  0  0
   58.0886   27.4531   44.2732 C   0  0  0  0  0  0  0  0  0  0  0  0
   58.1626   27.0078   43.0047 C   0  0  0  0  0  0  0  0  0  0  0  0
   57.8413   28.8294   44.4583 C   0  0  0  0  0  0  0  0  0  0  0  0
   57.2782   24.3655   45.7394 C   0  0  0  0  0  0  0  0  0  0  0  0
   56.0036   24.8529   46.0790 C   0  0  0  0  0  0  0  0  0  0  0  0
   55.7505   26.2200   46.1201 O   0  0  0  0  0  0  0  0  0  0  0  0
   55.0058   23.9856   46.3850 N   0  0  0  0  0  0  0  0  0  0  0  0
   55.2182   22.6445   46.3903 C   0  0  0  0  0  0  0  0  0  0  0  0
   54.2762   21.8602   46.6729 O   0  0  0  0  0  0  0  0  0  0  0  0
   56.4479   22.1509   46.0969 N   0  0  0  0  0  0  0  0  0  0  0  0
   57.4799   22.9764   45.7823 C   0  0  0  0  0  0  0  0  0  0  0  0
   58.6092   22.4829   45.5207 O   0  0  0  0  0  0  0  0  0  0  0  0
   57.7525   30.8000   45.9140 O   0  0  0  0  0  0  0  0  0  0  0  0
   60.2418   33.3704   48.1432 C   0  0  0  0  0  0  0  0  0  0  0  0
   59.9167   32.0949   48.6178 C   0  0  0  0  0  0  0  0  0  0  0  0
   59.0837   31.2558   47.8711 C   0  0  0  0  0  0  0  0  0  0  0  0
   58.5979   31.6643   46.6246 C   0  0  0  0  0  0  0  0  0  0  0  0
   58.9369   32.9408   46.1383 C   0  0  0  0  0  0  0  0  0  0  0  0
   59.7709   33.7790   46.8848 C   0  0  0  0  0  0  0  0  0  0  0  0
   64.6817   32.7503   50.4263 C   0  0  0  0  0  0  0  0  0  0  0  0
   64.5291   32.6876   49.1356 N   0  0  0  0  0  0  0  0  0  0  0  0
   63.4393   33.3415   48.4650 C   0  0  0  0  0  0  0  0  0  0  0  0
   63.5541   33.5710   47.1559 C   0  0  0  0  0  0  0  0  0  0  0  0
   62.3478   33.9107   49.3117 C   0  0  0  0  0  0  0  0  0  0  0  0
   61.1401   34.1916   48.9022 N   0  0  0  0  0  0  0  0  0  0  0  0
   62.6569   34.0891   50.7406 C   0  0  0  0  0  0  0  0  0  0  0  0
   63.7505   33.5302   51.2682 C   0  0  0  0  0  0  0  0  0  0  0  0
 25 26  2  0
 26 27  1  0
 27 28  2  0
 27 29  1  0
 29 30  2  0
 30 19  1  0
 19 20  2  0
 20 21  1  0
 21 22  2  0
 22 18  1  0
 18  1  1  0
  1  2  1  0
  2  3  2  0
  3  4  1  0
  4  5  2  0
  5  9  1  0
  9 10  2  0
 10 11  1  0
 10 12  1  0
 12 13  1  0
 13 14  2  0
 13 15  1  0
 15 16  1  0
 16 17  2  0
  4  6  1  0
  6  7  2  0
  6  8  1  0
 22 23  1  0
 23 24  2  0
 29 31  1  0
 31 32  2  0
 32 25  1  0
 24 19  1  0
  8  1  2  0
 16  9  1  0
M  CHG 1  11  -1
M  CHG 1  12  -1
M  CHG 1  15  -1
M  END
> <UniqueID>
52

> <SMILES>
C=C1N=CC=CC1=Nc1ccc(Oc2cc/c(=C/c3c([O-])[n-]c(=O)[n-]c3=O)c(=C)c2)cc1

> <Energy>
95.72818014955017

> <Genealogy>
C=C1N=CC=CC1=Nc1ccc(Oc2ccc(=Cc3c([O-])[n-]c(=O)[n-]c3=O)c(=C)c2)cc1 (protonated)
C=C1N=CC=CC1=Nc1ccc(Oc2cc/c(=C/c3c([O-])[n-]c(=O)[n-]c3=O)c(=C)c2)cc1 (cis-trans isomerization)
C=C1N=CC=CC1=Nc1ccc(Oc2cc/c(=C/c3c([O-])[n-]c(=O)[n-]c3=O)c(=C)c2)cc1 (3D coordinates assigned)
C=C1N=CC=CC1=Nc1ccc(Oc2cc/c(=C/c3c([O-])[n-]c(=O)[n-]c3=O)c(=C)c2)cc1 (nonaromatic ring conformer: 95.72818014955017 kcal/mol)

> <smiles>
C=C1N=CC=CC1=Nc1ccc(Oc2ccc(=Cc3c(O)[nH]c(=O)[nH]c3=O)c(=C)c2)cc1

> <score_type>
oracle

> <origin>
adg

> <m_score__min__energy>
-17.68

> <m_primary>
energy

> <minimizedAffinity>
-9.92637

> <minimizedRMSD>
1.17459

> <CNNscore>
0.3082273304

> <CNNaffinity>
7.0759739876

> <CNN_VS>
2.1810085773

> <CNNaffinity_variance>
0.0673617125

$$$$
56:0


 28 30  0  0  0  0  0  0  0  0999 V2000
   60.1142   25.8367   46.5776 C   0  0  0  0  0  0  0  0  0  0  0  0
   59.3427   26.7771   46.0101 C   0  0  0  0  0  0  0  0  0  0  0  0
   58.2937   26.5670   45.1006 C   0  0  0  0  0  0  0  0  0  0  0  0
   57.6577   25.4398   44.7268 C   0  0  0  0  0  0  0  0  0  0  0  0
   57.9536   27.8148   44.6063 C   0  0  0  0  0  0  0  0  0  0  0  0
   58.7334   28.7366   45.2719 C   0  0  0  0  0  0  0  0  0  0  0  0
   58.6796   30.2165   45.0349 C   0  0  0  0  0  0  0  0  0  0  0  0
   59.5809   28.1126   46.1263 N   0  0  0  0  0  0  0  0  0  0  0  0
   57.0136   24.4792   45.6388 C   0  0  0  0  0  0  0  0  0  0  0  0
   57.6128   23.3865   46.1473 N   0  0  0  0  0  0  0  0  0  0  0  0
   56.6979   22.9087   47.0184 C   0  0  0  0  0  0  0  0  0  0  0  0
   56.8870   21.8642   47.6949 O   0  0  0  0  0  0  0  0  0  0  0  0
   55.5691   23.6437   47.1182 N   0  0  0  0  0  0  0  0  0  0  0  0
   55.7942   24.6416   46.2479 C   0  0  0  0  0  0  0  0  0  0  0  0
   54.9025   25.6835   46.0193 O   0  0  0  0  0  0  0  0  0  0  0  0
   60.5631   28.7723   47.0038 C   0  0  0  0  0  0  0  0  0  0  0  0
   60.0710   28.8098   48.4560 C   0  0  0  0  0  0  0  0  0  0  0  0
   59.5880   30.1773   48.8345 C   0  0  0  0  0  0  0  0  0  0  0  0
   58.5494   30.2953   49.5401 O   0  0  0  0  0  0  0  0  0  0  0  0
   60.2764   31.3413   48.3569 N   0  0  0  0  0  0  0  0  0  0  0  0
   61.0842   31.2217   47.8071 H   0  0  0  0  0  0  0  0  0  0  0  0
   59.8239   32.6984   48.6558 C   0  0  0  0  0  0  0  0  0  0  0  0
   59.2634   33.3477   47.4207 C   0  0  0  0  0  0  0  0  0  0  0  0
   60.0369   34.2364   46.6577 C   0  0  0  0  0  0  0  0  0  0  0  0
   59.5194   34.8044   45.5365 N   0  0  0  0  0  0  0  0  0  0  0  0
   58.2519   34.5385   45.1188 C   0  0  0  0  0  0  0  0  0  0  0  0
   57.4459   33.6615   45.8478 C   0  0  0  0  0  0  0  0  0  0  0  0
   57.9545   33.0652   47.0040 C   0  0  0  0  0  0  0  0  0  0  0  0
  1  2  2  0
  2  3  1  0
  3  4  2  0
  4  9  1  0
  9 10  1  0
 10 11  1  0
 11 12  2  0
 11 13  1  0
 13 14  1  0
 14 15  1  0
  3  5  1  0
  5  6  2  0
  6  7  1  0
  6  8  1  0
  8 16  1  0
 16 17  1  0
 17 18  1  0
 18 19  2  0
 18 20  1  0
 20 22  1  0
 22 23  1  0
 23 24  2  0
 24 25  1  0
 25 26  2  0
 26 27  1  0
 27 28  2  0
  8  2  1  0
 28 23  1  0
 14  9  2  0
 20 21  1  0
M  CHG 1  10  -1
M  CHG 1  13  -1
M  CHG 1  15  -1
M  END
> <UniqueID>
54

> <SMILES>
C=c1/c(=C\c2[n-]c(=O)[n-]c2[O-])cc(C)n1CCC(=O)NCc1cccnc1

> <Energy>
109.36061316506022

> <Genealogy>
C=c1c(=Cc2[n-]c(=O)[n-]c2[O-])cc(C)n1CCC(=O)NCc1cccnc1 (protonated)
C=c1/c(=C\c2[n-]c(=O)[n-]c2[O-])cc(C)n1CCC(=O)NCc1cccnc1 (cis-trans isomerization)
C=c1/c(=C\c2[n-]c(=O)[n-]c2[O-])cc(C)n1CCC(=O)NCc1cccnc1 (3D coordinates assigned)
C=c1/c(=C\c2[n-]c(=O)[n-]c2[O-])cc(C)n1CCC(=O)NCc1cccnc1 (optimized conformer: 109.36061316506022 kcal/mol)

> <smiles>
C=c1c(=Cc2[nH]c(=O)[nH]c2O)cc(C)n1CCC(=O)NCc1cccnc1

> <score_type>
oracle

> <origin>
adg

> <m_score__min__energy>
-15.83

> <m_primary>
energy

> <minimizedAffinity>
-7.14415

> <minimizedRMSD>
0.84954

> <CNNscore>
0.1003617123

> <CNNaffinity>
6.2585864067

> <CNN_VS>
0.6281224489

> <CNNaffinity_variance>
0.0281001125

$$$$
71:0


 31 33  0  0  0  0  0  0  0  0999 V2000
   60.8304   32.2677   47.6843 C   0  0  0  0  0  0  0  0  0  0  0  0
   59.7977   32.1905   46.8017 N   0  0  0  0  0  0  0  0  0  0  0  0
   58.9048   33.1968   46.6065 C   0  0  0  0  0  0  0  0  0  0  0  0
   57.9326   32.9955   45.7626 N   0  0  0  0  0  0  0  0  0  0  0  0
   59.0363   34.3758   47.3660 C   0  0  0  0  0  0  0  0  0  0  0  0
   60.0805   34.4857   48.2846 C   0  0  0  0  0  0  0  0  0  0  0  0
   60.9785   33.4342   48.4702 C   0  0  0  0  0  0  0  0  0  0  0  0
   61.9729   33.5733   49.4392 O   0  0  0  0  0  0  0  0  0  0  0  0
   62.0342   34.3647   49.9373 H   0  0  0  0  0  0  0  0  0  0  0  0
   57.9592   32.3441   44.4814 C   0  0  0  0  0  0  0  0  0  0  0  0
   58.2129   32.9860   43.4278 O   0  0  0  0  0  0  0  0  0  0  0  0
   57.7647   30.8903   44.4094 C   0  0  0  0  0  0  0  0  0  0  0  0
   58.7499   29.9247   44.5769 C   0  0  0  0  0  0  0  0  0  0  0  0
   58.2626   28.6155   44.4696 C   0  0  0  0  0  0  0  0  0  0  0  0
   56.8989   28.5458   44.2196 C   0  0  0  0  0  0  0  0  0  0  0  0
   56.2980   30.1151   44.1324 S   0  0  0  0  0  0  0  0  0  0  0  0
   61.6796   31.0426   47.8831 C   0  0  0  0  0  0  0  0  0  0  0  0
   61.1651   30.2913   49.0665 C   0  0  0  0  0  0  0  0  0  0  0  0
   61.1784   30.8252   50.2073 O   0  0  0  0  0  0  0  0  0  0  0  0
   60.5488   29.0167   48.8709 N   0  0  0  0  0  0  0  0  0  0  0  0
   59.2188   28.8669   48.2956 C   0  0  0  0  0  0  0  0  0  0  0  0
   57.8035   25.7778   46.5505 C   0  0  0  0  0  0  0  0  0  0  0  0
   58.9814   25.2074   46.0349 C   0  0  0  0  0  0  0  0  0  0  0  0
   60.2202   25.8035   46.2760 C   0  0  0  0  0  0  0  0  0  0  0  0
   60.3019   26.9768   47.0279 C   0  0  0  0  0  0  0  0  0  0  0  0
   59.1416   27.5533   47.5667 C   0  0  0  0  0  0  0  0  0  0  0  0
   57.8953   26.9529   47.3200 C   0  0  0  0  0  0  0  0  0  0  0  0
   55.3274   25.9834   46.0992 N   0  0  0  0  0  0  0  0  0  0  0  0
   56.4843   25.1649   46.2701 C   0  0  0  0  0  0  0  0  0  0  0  0
   56.3666   23.9117   46.1891 O   0  0  0  0  0  0  0  0  0  0  0  0
   54.4541   25.5686   45.9130 H   0  0  0  0  0  0  0  0  0  0  0  0
 28 29  1  0
 29 30  2  0
 29 22  1  0
 22 23  2  0
 23 24  1  0
 24 25  2  0
 25 26  1  0
 26 21  1  0
 21 20  1  0
 20 18  1  0
 18 19  2  0
 18 17  1  0
 17  1  1  0
  1  2  1  0
  2  3  1  0
  3  4  2  0
  4 10  1  0
 10 11  2  0
 10 12  1  0
 12 13  2  0
 13 14  1  0
 14 15  2  0
 15 16  1  0
  3  5  1  0
  5  6  2  0
  6  7  1  0
  7  8  1  0
 26 27  2  0
 27 22  1  0
  7  1  2  0
 16 12  1  0
 28 31  1  0
  8  9  1  0
M  CHG 1   2  -1
M  CHG 1  20  -1
M  CHG 1  28  -1
M  END
> <UniqueID>
68

> <SMILES>
[NH-]C(=O)c1cccc(C[N-]C(=O)Cc2[n-]c(=NC(=O)c3cccs3)ccc2O)c1

> <Energy>
73.01730967084313

> <Genealogy>
[NH-]C(=O)c1cccc(C[N-]C(=O)Cc2[n-]c(=NC(=O)c3cccs3)ccc2O)c1 (protonated)
[NH-]C(=O)c1cccc(C[N-]C(=O)Cc2[n-]c(=NC(=O)c3cccs3)ccc2O)c1 (3D coordinates assigned)
[NH-]C(=O)c1cccc(C[N-]C(=O)Cc2[n-]c(=NC(=O)c3cccs3)ccc2O)c1 (optimized conformer: 73.01730967084313 kcal/mol)

> <smiles>
NC(=O)c1cccc(CNC(=O)Cc2[nH]c(=NC(=O)c3cccs3)ccc2O)c1

> <score_type>
oracle

> <origin>
adg

> <m_score__min__energy>
-14.470000000000001

> <m_primary>
energy

> <minimizedAffinity>
-7.10430

> <minimizedRMSD>
0.55035

> <CNNscore>
0.3156720698

> <CNNaffinity>
6.3684711456

> <CNN_VS>
2.0103485584

> <CNNaffinity_variance>
0.0422101431

$$$$
79:0


 27 29  0  0  0  0  0  0  0  0999 V2000
   57.7699   29.8096   44.2150 C   0  0  0  0  0  0  0  0  0  0  0  0
   58.1315   29.3365   45.4186 C   0  0  0  0  0  0  0  0  0  0  0  0
   58.3497   27.9942   45.7669 C   0  0  0  0  0  0  0  0  0  0  0  0
   58.0865   26.8509   45.1031 C   0  0  0  0  0  0  0  0  0  0  0  0
   58.8960   28.0068   47.0370 C   0  0  0  0  0  0  0  0  0  0  0  0
   58.9333   29.3243   47.4476 C   0  0  0  0  0  0  0  0  0  0  0  0
   58.4748   30.1361   46.4638 N   0  0  0  0  0  0  0  0  0  0  0  0
   58.4401   31.6036   46.4869 C   0  0  0  0  0  0  0  0  0  0  0  0
   59.3366   29.7570   48.8038 C   0  0  0  0  0  0  0  0  0  0  0  0
   58.5047   29.6618   49.7470 O   0  0  0  0  0  0  0  0  0  0  0  0
   60.6725   30.2265   49.0782 N   0  0  0  0  0  0  0  0  0  0  0  0
   61.4789   30.8661   48.0312 C   0  0  0  0  0  0  0  0  0  0  0  0
   62.2758   32.0372   48.6118 C   0  0  0  0  0  0  0  0  0  0  0  0
   63.0397   31.6310   49.8013 N   0  0  0  0  0  0  0  0  0  0  0  0
   64.1532   32.4502   50.2144 C   0  0  0  0  0  0  0  0  0  0  0  0
   64.1638   33.6774   49.9223 O   0  0  0  0  0  0  0  0  0  0  0  0
   62.7123   30.3784   50.4984 C   0  0  0  0  0  0  0  0  0  0  0  0
   61.2074   30.0894   50.4404 C   0  0  0  0  0  0  0  0  0  0  0  0
   65.3576   31.8703   50.9104 C   0  0  0  0  0  0  0  0  0  0  0  0
   66.6190   32.6394   50.5369 C   0  0  0  0  0  0  0  0  0  0  0  0
   57.6178   25.5945   45.7104 C   0  0  0  0  0  0  0  0  0  0  0  0
   58.3340   24.4563   45.7653 N   0  0  0  0  0  0  0  0  0  0  0  0
   57.4558   23.5600   46.2627 C   0  0  0  0  0  0  0  0  0  0  0  0
   57.7629   22.3580   46.4781 O   0  0  0  0  0  0  0  0  0  0  0  0
   56.2188   24.0477   46.5000 N   0  0  0  0  0  0  0  0  0  0  0  0
   56.3364   25.3332   46.1304 C   0  0  0  0  0  0  0  0  0  0  0  0
   55.2916   26.2476   46.1697 O   0  0  0  0  0  0  0  0  0  0  0  0
  1  2  2  0
  2  3  1  0
  3  4  2  0
  4 21  1  0
 21 22  1  0
 22 23  1  0
 23 24  2  0
 23 25  1  0
 25 26  1  0
 26 27  1  0
  3  5  1  0
  5  6  2  0
  6  9  1  0
  9 10  2  0
  9 11  1  0
 11 12  1  0
 12 13  1  0
 13 14  1  0
 14 15  1  0
 15 16  2  0
 15 19  1  0
 19 20  1  0
 14 17  1  0
 17 18  1  0
  6  7  1  0
  7  8  1  0
  7  2  1  0
 26 21  2  0
 18 11  1  0
M  CHG 1  22  -1
M  CHG 1  25  -1
M  CHG 1  27  -1
M  END
> <UniqueID>
76

> <SMILES>
C=c1c(=Cc2[n-]c(=O)[n-]c2[O-])cc(C(=O)N2CCN(C(=O)CC)CC2)n1C

> <Energy>
120.23707043340555

> <Genealogy>
C=c1c(=Cc2[n-]c(=O)[n-]c2[O-])cc(C(=O)N2CCN(C(=O)CC)CC2)n1C (protonated)
C=c1c(=Cc2[n-]c(=O)[n-]c2[O-])cc(C(=O)N2CCN(C(=O)CC)CC2)n1C (3D coordinates assigned)
C=c1c(=Cc2[n-]c(=O)[n-]c2[O-])cc(C(=O)N2CCN(C(=O)CC)CC2)n1C (nonaromatic ring conformer: 120.23707043340555 kcal/mol)

> <smiles>
C=c1c(=Cc2[nH]c(=O)[nH]c2O)cc(C(=O)N2CCN(C(=O)CC)CC2)n1C

> <score_type>
oracle

> <origin>
adg

> <m_score__min__energy>
-16.66

> <m_primary>
energy

> <minimizedAffinity>
-7.71927

> <minimizedRMSD>
0.81144

> <CNNscore>
0.0894469619

> <CNNaffinity>
5.7505779266

> <CNN_VS>
0.5143717527

> <CNNaffinity_variance>
0.0119474819

$$$$
86:0


 27 30  0  0  0  0  0  0  0  0999 V2000
   55.2980   27.4983   54.1963 C   0  0  0  0  0  0  0  0  0  0  0  0
   56.2629   28.3451   53.8217 C   0  0  0  0  0  0  0  0  0  0  0  0
   57.5022   27.9404   53.6508 O   0  0  0  0  0  0  0  0  0  0  0  0
   58.2341   28.9385   53.2151 C   0  0  0  0  0  0  0  0  0  0  0  0
   57.4513   30.0614   53.0961 C   0  0  0  0  0  0  0  0  0  0  0  0
   56.1683   29.7070   53.5039 C   0  0  0  0  0  0  0  0  0  0  0  0
   55.1110   30.5464   53.5112 C   0  0  0  0  0  0  0  0  0  0  0  0
   57.9400   31.4030   52.7268 C   0  0  0  0  0  0  0  0  0  0  0  0
   57.5188   32.4072   53.3621 O   0  0  0  0  0  0  0  0  0  0  0  0
   58.8685   31.5777   51.6416 N   0  0  0  0  0  0  0  0  0  0  0  0
   58.8468   30.6844   50.4750 C   0  0  0  0  0  0  0  0  0  0  0  0
   58.8759   31.5167   49.1945 C   0  0  0  0  0  0  0  0  0  0  0  0
   59.9698   32.4950   49.2644 N   0  0  0  0  0  0  0  0  0  0  0  0
   60.8469   32.6781   48.1345 C   0  0  0  0  0  0  0  0  0  0  0  0
   60.4494   32.3745   46.9763 O   0  0  0  0  0  0  0  0  0  0  0  0
   60.0212   33.3850   50.4354 C   0  0  0  0  0  0  0  0  0  0  0  0
   59.9500   32.5673   51.7283 C   0  0  0  0  0  0  0  0  0  0  0  0
   62.2249   33.2549   48.3049 C   0  0  0  0  0  0  0  0  0  0  0  0
   63.1395   33.1234   47.0949 C   0  0  0  0  0  0  0  0  0  0  0  0
   63.3333   32.2109   48.2931 C   0  0  0  0  0  0  0  0  0  0  0  0
   53.8760   30.3715   52.7383 C   0  0  0  0  0  0  0  0  0  0  0  0
   53.8133   30.3406   51.3957 N   0  0  0  0  0  0  0  0  0  0  0  0
   52.5184   30.0318   51.1579 C   0  0  0  0  0  0  0  0  0  0  0  0
   52.0550   29.9149   49.9937 O   0  0  0  0  0  0  0  0  0  0  0  0
   51.7658   29.8455   52.2643 N   0  0  0  0  0  0  0  0  0  0  0  0
   52.6456   30.0570   53.2533 C   0  0  0  0  0  0  0  0  0  0  0  0
   52.3304   29.9859   54.6073 O   0  0  0  0  0  0  0  0  0  0  0  0
  1  2  2  0
  2  3  1  0
  3  4  1  0
  4  5  2  0
  5  8  1  0
  8  9  2  0
  8 10  1  0
 10 11  1  0
 11 12  1  0
 12 13  1  0
 13 14  1  0
 14 15  2  0
 14 18  1  0
 18 19  1  0
 19 20  1  0
 13 16  1  0
 16 17  1  0
  5  6  1  0
  6  7  2  0
  7 21  1  0
 21 22  1  0
 22 23  1  0
 23 24  2  0
 23 25  1  0
 25 26  1  0
 26 27  1  0
  6  2  1  0
 26 21  2  0
 17 10  1  0
 20 18  1  0
M  CHG 1  22  -1
M  CHG 1  25  -1
M  CHG 1  27  -1
M  END
> <UniqueID>
82

> <SMILES>
C=c1occ(C(=O)N2CCN(C(=O)C3CC3)CC2)c1=Cc1[n-]c(=O)[n-]c1[O-]

> <Energy>
384.8981971255023

> <Genealogy>
C=c1occ(C(=O)N2CCN(C(=O)C3CC3)CC2)c1=Cc1[n-]c(=O)[n-]c1[O-] (protonated)
C=c1occ(C(=O)N2CCN(C(=O)C3CC3)CC2)c1=Cc1[n-]c(=O)[n-]c1[O-] (3D coordinates assigned)
C=c1occ(C(=O)N2CCN(C(=O)C3CC3)CC2)c1=Cc1[n-]c(=O)[n-]c1[O-] (nonaromatic ring conformer: 384.8981971255023 kcal/mol)

> <smiles>
C=c1occ(C(=O)N2CCN(C(=O)C3CC3)CC2)c1=Cc1[nH]c(=O)[nH]c1O

> <score_type>
oracle

> <origin>
adg

> <m_score__min__energy>
-15.91

> <m_primary>
energy

> <minimizedAffinity>
-6.39155

> <minimizedRMSD>
2.06884

> <CNNscore>
0.0932300165

> <CNNaffinity>
5.0214347839

> <CNN_VS>
0.4681484401

> <CNNaffinity_variance>
0.0512179472

$$$$
1:0


 27 29  0  0  0  0  0  0  0  0999 V2000
   60.3543   28.3333   48.7744 C   0  0  0  0  0  0  0  0  0  0  0  0
   59.8331   29.1534   47.8374 C   0  0  0  0  0  0  0  0  0  0  0  0
   59.4754   30.4518   48.2532 C   0  0  0  0  0  0  0  0  0  0  0  0
   58.9789   31.4012   47.3517 C   0  0  0  0  0  0  0  0  0  0  0  0
   58.8423   31.0627   45.9994 C   0  0  0  0  0  0  0  0  0  0  0  0
   59.1902   29.7777   45.5649 C   0  0  0  0  0  0  0  0  0  0  0  0
   59.6791   28.7915   46.4573 C   0  0  0  0  0  0  0  0  0  0  0  0
   59.9380   27.5332   46.0031 C   0  0  0  0  0  0  0  0  0  0  0  0
   58.9603   26.4262   45.9105 C   0  0  0  0  0  0  0  0  0  0  0  0
   59.2378   25.1245   46.1129 N   0  0  0  0  0  0  0  0  0  0  0  0
   58.0259   24.5308   46.0402 C   0  0  0  0  0  0  0  0  0  0  0  0
   57.8724   23.2884   46.1686 O   0  0  0  0  0  0  0  0  0  0  0  0
   56.9925   25.3741   45.8303 N   0  0  0  0  0  0  0  0  0  0  0  0
   57.6004   26.5693   45.7626 C   0  0  0  0  0  0  0  0  0  0  0  0
   56.9247   27.7684   45.5757 O   0  0  0  0  0  0  0  0  0  0  0  0
   58.3453   32.0799   44.9995 C   0  0  0  0  0  0  0  0  0  0  0  0
   57.7293   31.3904   43.7866 C   0  0  0  0  0  0  0  0  0  0  0  0
   58.6586   32.7054   47.7638 O   0  0  0  0  0  0  0  0  0  0  0  0
   59.5252   33.8071   47.7247 C   0  0  0  0  0  0  0  0  0  0  0  0
   59.1219   34.9200   47.2871 O   0  0  0  0  0  0  0  0  0  0  0  0
   60.9338   33.6416   48.1431 C   0  0  0  0  0  0  0  0  0  0  0  0
   61.3068   33.7960   49.4908 C   0  0  0  0  0  0  0  0  0  0  0  0
   62.6419   33.6399   49.8771 C   0  0  0  0  0  0  0  0  0  0  0  0
   63.6158   33.3286   48.9256 C   0  0  0  0  0  0  0  0  0  0  0  0
   64.9100   33.1800   49.3036 F   0  0  0  0  0  0  0  0  0  0  0  0
   63.2572   33.1739   47.5840 C   0  0  0  0  0  0  0  0  0  0  0  0
   61.9235   33.3284   47.1936 C   0  0  0  0  0  0  0  0  0  0  0  0
  1  2  2  0
  2  3  1  0
  3  4  2  0
  4 18  1  0
 18 19  1  0
 19 20  2  0
 19 21  1  0
 21 22  2  0
 22 23  1  0
 23 24  2  0
 24 25  1  0
 24 26  1  0
 26 27  2  0
  4  5  1  0
  5 16  1  0
 16 17  1  0
  5  6  2  0
  6  7  1  0
  7  8  2  0
  8  9  1  0
  9 10  1  0
 10 11  1  0
 11 12  2  0
 11 13  1  0
 13 14  1  0
 14 15  1  0
  7  2  1  0
 14  9  2  0
 27 21  1  0
M  CHG 1  10  -1
M  CHG 1  13  -1
M  CHG 1  15  -1
M  END
> <UniqueID>
2

> <SMILES>
C=c1cc(OC(=O)c2ccc(F)cc2)c(CC)c/c1=C\c1[n-]c(=O)[n-]c1[O-]

> <Energy>
90.83798689078696

> <Genealogy>
C=c1cc(OC(=O)c2ccc(F)cc2)c(CC)cc1=Cc1[n-]c(=O)[n-]c1[O-] (protonated)
C=c1cc(OC(=O)c2ccc(F)cc2)c(CC)c/c1=C\c1[n-]c(=O)[n-]c1[O-] (cis-trans isomerization)
C=c1cc(OC(=O)c2ccc(F)cc2)c(CC)c/c1=C\c1[n-]c(=O)[n-]c1[O-] (3D coordinates assigned)
C=c1cc(OC(=O)c2ccc(F)cc2)c(CC)c/c1=C\c1[n-]c(=O)[n-]c1[O-] (optimized conformer: 90.83798689078696 kcal/mol)

> <smiles>
C=c1cc(OC(=O)c2ccc(F)cc2)c(CC)cc1=Cc1[nH]c(=O)[nH]c1O

> <score_type>
oracle

> <origin>
adg

> <m_score__min__energy>
-16.140000000000001

> <m_primary>
energy

> <minimizedAffinity>
-9.08201

> <minimizedRMSD>
1.87648

> <CNNscore>
0.5531168580

> <CNNaffinity>
6.7784075737

> <CNN_VS>
3.7492516041

> <CNNaffinity_variance>
0.1575037092

$$$$
3:0


 28 29  0  0  0  0  0  0  0  0999 V2000
   59.1696   34.9476   47.6062 O   0  0  0  0  0  0  0  0  0  0  0  0
   59.4175   33.9531   46.8733 C   0  0  0  0  0  0  0  0  0  0  0  0
   60.8386   33.6003   46.5394 C   0  0  0  0  0  0  0  0  0  0  0  0
   61.6609   33.5564   47.7479 N   0  0  0  0  0  0  0  0  0  0  0  0
   61.7045   31.9380   48.3820 S   0  0  0  0  0  0  0  0  0  0  0  0
   63.0172   31.7284   49.0834 O   0  0  0  0  0  0  0  0  0  0  0  0
   61.6089   30.9481   47.2542 O   0  0  0  0  0  0  0  0  0  0  0  0
   60.3839   31.6652   49.5175 C   0  0  0  0  0  0  0  0  0  0  0  0
   59.7596   30.4116   49.5931 C   0  0  0  0  0  0  0  0  0  0  0  0
   58.7106   30.2018   50.4943 C   0  0  0  0  0  0  0  0  0  0  0  0
   58.2828   31.2405   51.3253 C   0  0  0  0  0  0  0  0  0  0  0  0
   56.8605   30.9486   52.5651 Br  0  0  0  0  0  0  0  0  0  0  0  0
   58.9000   32.4938   51.2516 C   0  0  0  0  0  0  0  0  0  0  0  0
   59.9451   32.7069   50.3488 C   0  0  0  0  0  0  0  0  0  0  0  0
   58.3184   33.2062   46.3337 N   0  0  0  0  0  0  0  0  0  0  0  0
   57.9109   33.2083   44.9314 C   0  0  0  0  0  0  0  0  0  0  0  0
   57.8412   31.8026   44.4227 C   0  0  0  0  0  0  0  0  0  0  0  0
   57.7960   31.6013   43.1795 O   0  0  0  0  0  0  0  0  0  0  0  0
   57.8031   30.6949   45.3356 N   0  0  0  0  0  0  0  0  0  0  0  0
   58.1304   30.8229   46.2552 H   0  0  0  0  0  0  0  0  0  0  0  0
   57.2931   29.3835   44.9410 C   0  0  0  0  0  0  0  0  0  0  0  0
   58.1893   28.3048   45.4944 C   0  0  0  0  0  0  0  0  0  0  0  0
   59.5689   28.5483   45.5985 C   0  0  0  0  0  0  0  0  0  0  0  0
   60.4136   27.6002   46.1810 C   0  0  0  0  0  0  0  0  0  0  0  0
   59.8883   26.4025   46.6711 C   0  0  0  0  0  0  0  0  0  0  0  0
   58.5177   26.1482   46.5732 C   0  0  0  0  0  0  0  0  0  0  0  0
   57.6664   27.0910   45.9874 C   0  0  0  0  0  0  0  0  0  0  0  0
   56.3057   26.8135   45.9019 O   0  0  0  0  0  0  0  0  0  0  0  0
  1  2  2  0
  2  3  1  0
  3  4  1  0
  4  5  1  0
  5  6  2  0
  5  7  2  0
  5  8  1  0
  8  9  2  0
  9 10  1  0
 10 11  2  0
 11 12  1  0
 11 13  1  0
 13 14  2  0
  2 15  1  0
 15 16  1  0
 16 17  1  0
 17 18  2  0
 17 19  1  0
 19 21  1  0
 21 22  1  0
 22 23  2  0
 23 24  1  0
 24 25  2  0
 25 26  1  0
 26 27  2  0
 27 28  1  0
 14  8  1  0
 27 22  1  0
 19 20  1  0
M  CHG 1   4  -1
M  CHG 1  15  -1
M  CHG 1  28  -1
M  END
> <UniqueID>
4

> <SMILES>
O=C(C[N-]S(=O)(=O)c1ccc(Br)cc1)[N-]CC(=O)NCc1ccccc1[O-]

> <Energy>
31.55702157275864

> <Genealogy>
O=C(C[N-]S(=O)(=O)c1ccc(Br)cc1)[N-]CC(=O)NCc1ccccc1[O-] (protonated)
O=C(C[N-]S(=O)(=O)c1ccc(Br)cc1)[N-]CC(=O)NCc1ccccc1[O-] (3D coordinates assigned)
O=C(C[N-]S(=O)(=O)c1ccc(Br)cc1)[N-]CC(=O)NCc1ccccc1[O-] (optimized conformer: 31.55702157275864 kcal/mol)

> <smiles>
O=C(CNC(=O)CNS(=O)(=O)c1ccc(Br)cc1)NCc1ccccc1O

> <score_type>
oracle

> <origin>
adg

> <m_score__min__energy>
-14.970000000000001

> <m_primary>
energy

> <minimizedAffinity>
-6.79282

> <minimizedRMSD>
1.33935

> <CNNscore>
0.6728593111

> <CNNaffinity>
6.5185852051

> <CNN_VS>
4.3860907555

> <CNNaffinity_variance>
0.0356823541

$$$$
4:0


 25 27  0  0  0  0  0  0  0  0999 V2000
   58.9401   31.1061   46.0809 C   0  0  0  0  0  0  0  0  0  0  0  0
   58.1622   31.6305   45.0388 C   0  0  0  0  0  0  0  0  0  0  0  0
   58.0925   33.0084   44.8285 C   0  0  0  0  0  0  0  0  0  0  0  0
   58.8131   33.8766   45.6488 C   0  0  0  0  0  0  0  0  0  0  0  0
   59.6253   33.3689   46.6652 C   0  0  0  0  0  0  0  0  0  0  0  0
   59.7219   31.9822   46.8757 C   0  0  0  0  0  0  0  0  0  0  0  0
   60.6705   31.4934   47.9010 C   0  0  0  0  0  0  0  0  0  0  0  0
   61.8009   31.0763   47.5243 O   0  0  0  0  0  0  0  0  0  0  0  0
   60.3294   31.4583   49.3033 N   0  0  0  0  0  0  0  0  0  0  0  0
   61.3868   31.2428   50.2968 C   0  0  0  0  0  0  0  0  0  0  0  0
   60.9652   31.8422   51.6420 C   0  0  0  0  0  0  0  0  0  0  0  0
   59.6955   31.3552   52.0340 O   0  0  0  0  0  0  0  0  0  0  0  0
   58.7123   31.7909   51.1166 C   0  0  0  0  0  0  0  0  0  0  0  0
   58.9529   31.1784   49.7326 C   0  0  0  0  0  0  0  0  0  0  0  0
   58.9124   29.6863   46.2917 N   0  0  0  0  0  0  0  0  0  0  0  0
   56.8168   29.2492   45.4145 O   0  0  0  0  0  0  0  0  0  0  0  0
   57.9030   28.7728   45.8370 C   0  0  0  0  0  0  0  0  0  0  0  0
   58.0775   27.2984   45.8976 C   0  0  0  0  0  0  0  0  0  0  0  0
   59.3618   26.7290   45.9030 C   0  0  0  0  0  0  0  0  0  0  0  0
   59.5184   25.3437   45.9574 C   0  0  0  0  0  0  0  0  0  0  0  0
   58.3877   24.5290   46.0234 C   0  0  0  0  0  0  0  0  0  0  0  0
   58.5104   23.2776   46.0729 O   0  0  0  0  0  0  0  0  0  0  0  0
   57.1500   25.0889   46.0444 N   0  0  0  0  0  0  0  0  0  0  0  0
   56.9662   26.4364   45.9905 C   0  0  0  0  0  0  0  0  0  0  0  0
   55.6713   26.9387   46.0235 O   0  0  0  0  0  0  0  0  0  0  0  0
 16 17  2  0
 17 15  1  0
 15  1  1  0
  1  2  2  0
  2  3  1  0
  3  4  2  0
  4  5  1  0
  5  6  2  0
  6  7  1  0
  7  8  2  0
  7  9  1  0
  9 10  1  0
 10 11  1  0
 11 12  1  0
 12 13  1  0
 13 14  1  0
 17 18  1  0
 18 19  1  0
 19 20  2  0
 20 21  1  0
 21 22  2  0
 21 23  1  0
 23 24  1  0
 24 25  1  0
  6  1  1  0
 14  9  1  0
 24 18  2  0
M  CHG 1  15  -1
M  CHG 1  23  -1
M  CHG 1  25  -1
M  END
> <UniqueID>
5

> <SMILES>
O=C([N-]c1ccccc1C(=O)N1CCOCC1)c1ccc(=O)[n-]c1[O-]

> <Energy>
57.22256841823001

> <Genealogy>
O=C([N-]c1ccccc1C(=O)N1CCOCC1)c1ccc(=O)[n-]c1[O-] (protonated)
O=C([N-]c1ccccc1C(=O)N1CCOCC1)c1ccc(=O)[n-]c1[O-] (3D coordinates assigned)
O=C([N-]c1ccccc1C(=O)N1CCOCC1)c1ccc(=O)[n-]c1[O-] (nonaromatic ring conformer: 57.22256841823001 kcal/mol)

> <smiles>
O=C(Nc1ccccc1C(=O)N1CCOCC1)c1ccc(=O)[nH]c1O

> <score_type>
oracle

> <origin>
adg

> <m_score__min__energy>
-15.06

> <m_primary>
energy

> <minimizedAffinity>
-6.90437

> <minimizedRMSD>
1.84647

> <CNNscore>
0.5760145187

> <CNNaffinity>
6.4123916626

> <CNN_VS>
3.6936306953

> <CNNaffinity_variance>
0.4709136486

$$$$
6:0


 35 38  0  0  0  0  0  0  0  0999 V2000
   61.1020   32.2594   47.0277 N   0  0  0  0  0  0  0  0  0  0  0  0
   62.0488   31.4344   47.8092 C   0  0  0  0  0  0  0  0  0  0  0  0
   61.9344   31.6436   49.3281 C   0  0  0  0  0  0  0  0  0  0  0  0
   61.8307   33.0630   49.6808 N   0  0  0  0  0  0  0  0  0  0  0  0
   62.0079   33.4036   51.0615 C   0  0  0  0  0  0  0  0  0  0  0  0
   62.8874   34.2439   51.3927 O   0  0  0  0  0  0  0  0  0  0  0  0
   61.1996   32.7799   52.0650 N   0  0  0  0  0  0  0  0  0  0  0  0
   61.8242   31.9817   53.1257 C   0  0  0  0  0  0  0  0  0  0  0  0
   61.1315   30.6107   53.2202 C   0  0  0  0  0  0  0  0  0  0  0  0
   59.6673   30.7151   53.0821 N   0  0  0  0  0  0  0  0  0  0  0  0
   58.8884   29.5037   52.9377 C   0  0  0  0  0  0  0  0  0  0  0  0
   57.4193   29.5339   52.6312 C   0  0  0  0  0  0  0  0  0  0  0  0
   59.4451   28.3818   53.0784 O   0  0  0  0  0  0  0  0  0  0  0  0
   59.0581   32.0551   53.0619 C   0  0  0  0  0  0  0  0  0  0  0  0
   59.7369   32.8971   51.9813 C   0  0  0  0  0  0  0  0  0  0  0  0
   61.0601   33.9888   48.8471 C   0  0  0  0  0  0  0  0  0  0  0  0
   61.2456   33.6916   47.3559 C   0  0  0  0  0  0  0  0  0  0  0  0
   60.5289   31.6816   46.4737 H   0  0  0  0  0  0  0  0  0  0  0  0
   59.7252   31.8060   47.1488 C   0  0  0  0  0  0  0  0  0  0  0  0
   58.9120   32.4202   47.8915 O   0  0  0  0  0  0  0  0  0  0  0  0
   57.2212   29.1929   43.9117 C   0  0  0  0  0  0  0  0  0  0  0  0
   58.1719   29.5200   44.8009 C   0  0  0  0  0  0  0  0  0  0  0  0
   59.0028   28.6358   45.5034 C   0  0  0  0  0  0  0  0  0  0  0  0
   59.2679   27.3271   45.3150 C   0  0  0  0  0  0  0  0  0  0  0  0
   59.6134   29.3841   46.4931 C   0  0  0  0  0  0  0  0  0  0  0  0
   59.1948   30.6892   46.3329 C   0  0  0  0  0  0  0  0  0  0  0  0
   58.3428   30.7817   45.2786 N   0  0  0  0  0  0  0  0  0  0  0  0
   57.7382   31.9978   44.7241 C   0  0  0  0  0  0  0  0  0  0  0  0
   58.3683   26.2061   45.6442 C   0  0  0  0  0  0  0  0  0  0  0  0
   58.7552   24.9274   45.8065 N   0  0  0  0  0  0  0  0  0  0  0  0
   57.6356   24.3147   46.2484 C   0  0  0  0  0  0  0  0  0  0  0  0
   57.5895   23.0822   46.4992 O   0  0  0  0  0  0  0  0  0  0  0  0
   56.5711   25.1286   46.4082 N   0  0  0  0  0  0  0  0  0  0  0  0
   57.0561   26.3242   46.0347 C   0  0  0  0  0  0  0  0  0  0  0  0
   56.3135   27.5004   46.0492 O   0  0  0  0  0  0  0  0  0  0  0  0
 21 22  2  0
 22 23  1  0
 23 24  2  0
 24 29  1  0
 29 30  1  0
 30 31  1  0
 31 32  2  0
 31 33  1  0
 33 34  1  0
 34 35  1  0
 23 25  1  0
 25 26  2  0
 26 19  1  0
 19 20  2  0
 19  1  1  0
  1  2  1  0
  2  3  1  0
  3  4  1  0
  4  5  1  0
  5  6  2  0
  5  7  1  0
  7  8  1  0
  8  9  1  0
  9 10  1  0
 10 11  1  0
 11 12  1  0
 11 13  2  0
 10 14  1  0
 14 15  1  0
  4 16  1  0
 16 17  1  0
 26 27  1  0
 27 28  1  0
 27 22  1  0
 34 29  2  0
 17  1  1  0
 15  7  1  0
  1 18  1  0
M  CHG 1   1   1
M  CHG 1  30  -1
M  CHG 1  33  -1
M  CHG 1  35  -1
M  END
> <UniqueID>
7

> <SMILES>
C=c1c(=Cc2[n-]c(=O)[n-]c2[O-])cc(C(=O)[NH+]2CCN(C(=O)N3CCN(C(C)=O)CC3)CC2)n1C

> <Energy>
152.1099968685166

> <Genealogy>
C=c1c(=Cc2[n-]c(=O)[n-]c2[O-])cc(C(=O)[NH+]2CCN(C(=O)N3CCN(C(C)=O)CC3)CC2)n1C (protonated)
C=c1c(=Cc2[n-]c(=O)[n-]c2[O-])cc(C(=O)[NH+]2CCN(C(=O)N3CCN(C(C)=O)CC3)CC2)n1C (3D coordinates assigned)
C=c1c(=Cc2[n-]c(=O)[n-]c2[O-])cc(C(=O)[NH+]2CCN(C(=O)N3CCN(C(C)=O)CC3)CC2)n1C (nonaromatic ring conformer: 152.1099968685166 kcal/mol)

> <smiles>
C=c1c(=Cc2[nH]c(=O)[nH]c2O)cc(C(=O)N2CCN(C(=O)N3CCN(C(C)=O)CC3)CC2)n1C

> <score_type>
oracle

> <origin>
adg

> <m_score__min__energy>
-17.73

> <m_primary>
energy

> <minimizedAffinity>
-8.04956

> <minimizedRMSD>
1.53174

> <CNNscore>
0.0896802247

> <CNNaffinity>
6.3834614754

> <CNN_VS>
0.5724702477

> <CNNaffinity_variance>
0.0754293427

$$$$
12:0


 33 35  0  0  0  0  0  0  0  0999 V2000
   57.4170   30.2987   45.1579 C   0  0  0  0  0  0  0  0  0  0  0  0
   56.4194   29.5958   44.8392 O   0  0  0  0  0  0  0  0  0  0  0  0
   59.0775   28.5648   45.0743 N   0  0  0  0  0  0  0  0  0  0  0  0
   58.6411   29.6449   45.6460 C   0  0  0  0  0  0  0  0  0  0  0  0
   58.2808   27.3892   44.8720 C   0  0  0  0  0  0  0  0  0  0  0  0
   58.0362   26.9650   43.7091 O   0  0  0  0  0  0  0  0  0  0  0  0
   57.6855   26.6931   46.0540 C   0  0  0  0  0  0  0  0  0  0  0  0
   56.2322   21.3164   44.7540 O   0  0  0  0  0  0  0  0  0  0  0  0
   56.6130   22.6244   45.0585 C   0  0  0  0  0  0  0  0  0  0  0  0
   55.6163   23.5548   45.3794 C   0  0  0  0  0  0  0  0  0  0  0  0
   55.9497   24.8752   45.6949 C   0  0  0  0  0  0  0  0  0  0  0  0
   54.9379   25.7710   46.0286 O   0  0  0  0  0  0  0  0  0  0  0  0
   57.2980   25.2861   45.6784 C   0  0  0  0  0  0  0  0  0  0  0  0
   58.2973   24.3488   45.3665 C   0  0  0  0  0  0  0  0  0  0  0  0
   57.9621   23.0259   45.0537 C   0  0  0  0  0  0  0  0  0  0  0  0
   59.2572   21.8960   44.6725 Cl  0  0  0  0  0  0  0  0  0  0  0  0
   55.3262   21.0776   44.7651 H   0  0  0  0  0  0  0  0  0  0  0  0
   57.3054   31.7267   45.0938 N   0  0  0  0  0  0  0  0  0  0  0  0
   58.2144   32.6733   45.6729 C   0  0  0  0  0  0  0  0  0  0  0  0
   58.5346   33.8792   45.0265 C   0  0  0  0  0  0  0  0  0  0  0  0
   59.3974   34.7962   45.6349 C   0  0  0  0  0  0  0  0  0  0  0  0
   59.9295   34.5270   46.8960 C   0  0  0  0  0  0  0  0  0  0  0  0
   59.5947   33.3420   47.5635 C   0  0  0  0  0  0  0  0  0  0  0  0
   58.7356   32.4194   46.9470 C   0  0  0  0  0  0  0  0  0  0  0  0
   60.2565   33.0084   49.1660 S   0  0  0  0  0  0  0  0  0  0  0  0
   59.1550   32.4758   50.0401 O   0  0  0  0  0  0  0  0  0  0  0  0
   60.7430   34.2939   49.7746 O   0  0  0  0  0  0  0  0  0  0  0  0
   61.5670   31.8460   49.1302 N   0  0  0  0  0  0  0  0  0  0  0  0
   62.6731   32.2101   50.0357 C   0  0  0  0  0  0  0  0  0  0  0  0
   63.6406   33.2514   49.4240 C   0  0  0  0  0  0  0  0  0  0  0  0
   63.4208   33.4783   48.0444 O   0  0  0  0  0  0  0  0  0  0  0  0
   63.3176   32.2459   47.3686 C   0  0  0  0  0  0  0  0  0  0  0  0
   62.0130   31.5279   47.7572 C   0  0  0  0  0  0  0  0  0  0  0  0
  8  9  1  0
  9 10  2  0
 10 11  1  0
 11 12  1  0
 11 13  2  0
 13  7  1  0
  7  5  1  0
  5  6  2  0
  5  3  1  0
  3  4  2  0
  4  1  1  0
  1  2  2  0
  1 18  1  0
 18 19  1  0
 19 20  2  0
 20 21  1  0
 21 22  2  0
 22 23  1  0
 23 25  1  0
 25 26  2  0
 25 27  2  0
 25 28  1  0
 28 29  1  0
 29 30  1  0
 30 31  1  0
 31 32  1  0
 32 33  1  0
 23 24  2  0
 13 14  1  0
 14 15  2  0
 15 16  1  0
 15  9  1  0
 24 19  1  0
 33 28  1  0
  8 17  1  0
M  CHG 1  12  -1
M  CHG 1  18  -1
M  END
> <UniqueID>
13

> <SMILES>
O=C(Cc1cc(Cl)c(O)cc1[O-])/N=C/C(=O)[N-]c1cccc(S(=O)(=O)N2CCOCC2)c1

> <Energy>
64.87348492037368

> <Genealogy>
O=C(Cc1cc(Cl)c(O)cc1[O-])N=CC(=O)[N-]c1cccc(S(=O)(=O)N2CCOCC2)c1 (protonated)
O=C(Cc1cc(Cl)c(O)cc1[O-])/N=C/C(=O)[N-]c1cccc(S(=O)(=O)N2CCOCC2)c1 (cis-trans isomerization)
O=C(Cc1cc(Cl)c(O)cc1[O-])/N=C/C(=O)[N-]c1cccc(S(=O)(=O)N2CCOCC2)c1 (3D coordinates assigned)
O=C(Cc1cc(Cl)c(O)cc1[O-])/N=C/C(=O)[N-]c1cccc(S(=O)(=O)N2CCOCC2)c1 (nonaromatic ring conformer: 64.87348492037368 kcal/mol)

> <smiles>
O=C(Cc1cc(Cl)c(O)cc1O)N=CC(=O)Nc1cccc(S(=O)(=O)N2CCOCC2)c1

> <score_type>
oracle

> <origin>
adg

> <m_score__min__energy>
-14.960000000000001

> <m_primary>
energy

> <minimizedAffinity>
-8.99621

> <minimizedRMSD>
0.71095

> <CNNscore>
0.5645620227

> <CNNaffinity>
7.0069160461

> <CNN_VS>
3.9558386803

> <CNNaffinity_variance>
0.0035798044

$$$$
34:0


 26 29  0  0  0  0  0  0  0  0999 V2000
   57.1091   28.0230   55.5533 C   0  0  0  0  0  0  0  0  0  0  0  0
   56.0234   28.6603   55.0863 C   0  0  0  0  0  0  0  0  0  0  0  0
   54.8020   28.4972   55.7583 C   0  0  0  0  0  0  0  0  0  0  0  0
   53.6359   29.0968   55.2807 C   0  0  0  0  0  0  0  0  0  0  0  0
   53.6515   29.8892   54.1190 C   0  0  0  0  0  0  0  0  0  0  0  0
   52.4941   30.4437   53.6973 C   0  0  0  0  0  0  0  0  0  0  0  0
   54.8752   30.0438   53.4338 C   0  0  0  0  0  0  0  0  0  0  0  0
   56.0597   29.4610   53.9154 C   0  0  0  0  0  0  0  0  0  0  0  0
   57.3100   29.7148   53.1631 C   0  0  0  0  0  0  0  0  0  0  0  0
   57.4100   29.2711   51.9857 O   0  0  0  0  0  0  0  0  0  0  0  0
   58.3937   30.4743   53.7349 N   0  0  0  0  0  0  0  0  0  0  0  0
   59.7460   30.3340   53.1828 C   0  0  0  0  0  0  0  0  0  0  0  0
   60.7786   30.9392   54.1411 C   0  0  0  0  0  0  0  0  0  0  0  0
   60.4804   32.3598   54.4641 N   0  0  0  0  0  0  0  0  0  0  0  0
   59.0371   32.6453   54.6762 C   0  0  0  0  0  0  0  0  0  0  0  0
   58.1768   31.3887   54.8651 C   0  0  0  0  0  0  0  0  0  0  0  0
   61.0776   33.4252   53.6127 C   0  0  0  0  0  0  0  0  0  0  0  0
   62.4656   33.0847   53.0892 C   0  0  0  0  0  0  0  0  0  0  0  0
   61.2980   33.2062   52.1167 C   0  0  0  0  0  0  0  0  0  0  0  0
   52.0370   30.5606   52.2950 C   0  0  0  0  0  0  0  0  0  0  0  0
   52.2646   29.6598   51.3220 N   0  0  0  0  0  0  0  0  0  0  0  0
   51.7607   30.2551   50.2191 C   0  0  0  0  0  0  0  0  0  0  0  0
   51.7764   29.7070   49.0858 O   0  0  0  0  0  0  0  0  0  0  0  0
   51.2468   31.4855   50.4239 N   0  0  0  0  0  0  0  0  0  0  0  0
   51.4406   31.6679   51.7407 C   0  0  0  0  0  0  0  0  0  0  0  0
   51.0817   32.8251   52.4199 O   0  0  0  0  0  0  0  0  0  0  0  0
  1  2  2  0
  2  3  1  0
  3  4  2  0
  4  5  1  0
  5  6  2  0
  6 20  1  0
 20 21  1  0
 21 22  1  0
 22 23  2  0
 22 24  1  0
 24 25  1  0
 25 26  1  0
  5  7  1  0
  7  8  2  0
  8  9  1  0
  9 10  2  0
  9 11  1  0
 11 12  1  0
 12 13  1  0
 13 14  1  0
 14 17  1  0
 17 18  1  0
 18 19  1  0
 14 15  1  0
 15 16  1  0
  8  2  1  0
 16 11  1  0
 25 20  2  0
 19 17  1  0
M  CHG 1  21  -1
M  CHG 1  24  -1
M  CHG 1  26  -1
M  END
> <UniqueID>
35

> <SMILES>
C=c1cc/c(=C/c2[n-]c(=O)[n-]c2[O-])cc1C(=O)N1CCN(C2CC2)CC1

> <Energy>
375.6329035954291

> <Genealogy>
C=c1ccc(=Cc2[n-]c(=O)[n-]c2[O-])cc1C(=O)N1CCN(C2CC2)CC1 (protonated)
C=c1cc/c(=C/c2[n-]c(=O)[n-]c2[O-])cc1C(=O)N1CCN(C2CC2)CC1 (cis-trans isomerization)
C=c1cc/c(=C/c2[n-]c(=O)[n-]c2[O-])cc1C(=O)N1CCN(C2CC2)CC1 (3D coordinates assigned)
C=c1cc/c(=C/c2[n-]c(=O)[n-]c2[O-])cc1C(=O)N1CCN(C2CC2)CC1 (nonaromatic ring conformer: 375.6329035954291 kcal/mol)

> <smiles>
C=c1ccc(=Cc2[nH]c(=O)[nH]c2O)cc1C(=O)N1CCN(C2CC2)CC1

> <score_type>
oracle

> <origin>
adg

> <m_score__min__energy>
-17.030000000000001

> <m_primary>
energy

> <minimizedAffinity>
-4.58103

> <minimizedRMSD>
1.27272

> <CNNscore>
0.1111470684

> <CNNaffinity>
4.2540497780

> <CNN_VS>
0.4728251696

> <CNNaffinity_variance>
0.3372213542

$$$$
40:0


 32 35  0  0  0  0  0  0  0  0999 V2000
   57.5808   28.6878   54.9602 C   0  0  0  0  0  0  0  0  0  0  0  0
   58.0009   27.6750   55.5883 O   0  0  0  0  0  0  0  0  0  0  0  0
   58.3356   29.2003   53.8401 N   0  0  0  0  0  0  0  0  0  0  0  0
   59.5609   28.5042   53.4187 C   0  0  0  0  0  0  0  0  0  0  0  0
   59.8383   28.7220   51.9263 C   0  0  0  0  0  0  0  0  0  0  0  0
   59.7247   30.1369   51.5433 N   0  0  0  0  0  0  0  0  0  0  0  0
   60.2735   30.5680   50.2818 C   0  0  0  0  0  0  0  0  0  0  0  0
   61.0150   29.7960   49.6163 O   0  0  0  0  0  0  0  0  0  0  0  0
   59.9727   31.8647   49.7518 N   0  0  0  0  0  0  0  0  0  0  0  0
   58.6846   32.1119   49.1038 C   0  0  0  0  0  0  0  0  0  0  0  0
   58.8921   32.8357   47.7589 C   0  0  0  0  0  0  0  0  0  0  0  0
   59.9932   33.8388   47.7694 N   0  0  0  0  0  0  0  0  0  0  0  0
   61.0969   33.4528   46.8700 C   0  0  0  0  0  0  0  0  0  0  0  0
   60.4831   34.1890   49.1240 C   0  0  0  0  0  0  0  0  0  0  0  0
   60.9477   32.9466   49.8987 C   0  0  0  0  0  0  0  0  0  0  0  0
   59.2126   31.1158   52.5133 C   0  0  0  0  0  0  0  0  0  0  0  0
   58.0266   30.5328   53.2886 C   0  0  0  0  0  0  0  0  0  0  0  0
   54.3799   31.3330   57.4470 C   0  0  0  0  0  0  0  0  0  0  0  0
   54.8535   30.4384   56.5611 C   0  0  0  0  0  0  0  0  0  0  0  0
   54.1720   29.8979   55.4559 C   0  0  0  0  0  0  0  0  0  0  0  0
   52.8749   29.9539   55.0983 C   0  0  0  0  0  0  0  0  0  0  0  0
   55.1211   29.2163   54.7110 C   0  0  0  0  0  0  0  0  0  0  0  0
   56.3133   29.3086   55.3991 C   0  0  0  0  0  0  0  0  0  0  0  0
   56.1526   30.0381   56.5303 N   0  0  0  0  0  0  0  0  0  0  0  0
   57.2089   30.4534   57.4604 C   0  0  0  0  0  0  0  0  0  0  0  0
   52.3668   30.2160   53.7407 C   0  0  0  0  0  0  0  0  0  0  0  0
   52.8202   29.6153   52.6230 N   0  0  0  0  0  0  0  0  0  0  0  0
   52.1464   30.2509   51.6367 C   0  0  0  0  0  0  0  0  0  0  0  0
   52.2852   29.9542   50.4220 O   0  0  0  0  0  0  0  0  0  0  0  0
   51.3199   31.2326   52.0550 N   0  0  0  0  0  0  0  0  0  0  0  0
   51.4845   31.2050   53.3880 C   0  0  0  0  0  0  0  0  0  0  0  0
   50.8443   32.0733   54.2626 O   0  0  0  0  0  0  0  0  0  0  0  0
 18 19  2  0
 19 20  1  0
 20 21  2  0
 21 26  1  0
 26 27  1  0
 27 28  1  0
 28 29  2  0
 28 30  1  0
 30 31  1  0
 31 32  1  0
 20 22  1  0
 22 23  2  0
 23  1  1  0
  1  2  2  0
  1  3  1  0
  3  4  1  0
  4  5  1  0
  5  6  1  0
  6  7  1  0
  7  8  2  0
  7  9  1  0
  9 10  1  0
 10 11  1  0
 11 12  1  0
 12 13  1  0
 12 14  1  0
 14 15  1  0
  6 16  1  0
 16 17  1  0
 23 24  1  0
 24 25  1  0
 24 19  1  0
 31 26  2  0
 17  3  1  0
 15  9  1  0
M  CHG 1  27  -1
M  CHG 1  30  -1
M  CHG 1  32  -1
M  END
> <UniqueID>
41

> <SMILES>
C=c1c(=Cc2[n-]c(=O)[n-]c2[O-])cc(C(=O)N2CCN(C(=O)N3CCN(C)CC3)CC2)n1C

> <Energy>
148.22123542936308

> <Genealogy>
C=c1c(=Cc2[n-]c(=O)[n-]c2[O-])cc(C(=O)N2CCN(C(=O)N3CCN(C)CC3)CC2)n1C (protonated)
C=c1c(=Cc2[n-]c(=O)[n-]c2[O-])cc(C(=O)N2CCN(C(=O)N3CCN(C)CC3)CC2)n1C (3D coordinates assigned)
C=c1c(=Cc2[n-]c(=O)[n-]c2[O-])cc(C(=O)N2CCN(C(=O)N3CCN(C)CC3)CC2)n1C (nonaromatic ring conformer: 148.22123542936308 kcal/mol)

> <smiles>
C=c1c(=Cc2[nH]c(=O)[nH]c2O)cc(C(=O)N2CCN(C(=O)N3CCN(C)CC3)CC2)n1C

> <score_type>
oracle

> <origin>
adg

> <m_score__min__energy>
-17.440000000000001

> <m_primary>
energy

> <minimizedAffinity>
-6.16327

> <minimizedRMSD>
2.39682

> <CNNscore>
0.0479883477

> <CNNaffinity>
4.4966101646

> <CNN_VS>
0.2157848924

> <CNNaffinity_variance>
0.5861685872

$$$$
42:0


 25 27  0  0  0  0  0  0  0  0999 V2000
   55.1717   27.6910   54.1116 C   0  0  0  0  0  0  0  0  0  0  0  0
   55.4580   28.8701   53.5350 C   0  0  0  0  0  0  0  0  0  0  0  0
   54.5377   29.8411   53.1051 C   0  0  0  0  0  0  0  0  0  0  0  0
   53.1957   29.8002   52.9798 C   0  0  0  0  0  0  0  0  0  0  0  0
   55.2838   30.9509   52.7537 C   0  0  0  0  0  0  0  0  0  0  0  0
   56.6104   30.6119   52.9131 C   0  0  0  0  0  0  0  0  0  0  0  0
   56.7240   29.3519   53.3973 N   0  0  0  0  0  0  0  0  0  0  0  0
   57.7332   31.5103   52.5779 C   0  0  0  0  0  0  0  0  0  0  0  0
   58.0898   32.3796   53.4166 O   0  0  0  0  0  0  0  0  0  0  0  0
   58.3941   31.4382   51.2975 N   0  0  0  0  0  0  0  0  0  0  0  0
   59.0326   32.6491   50.7645 C   0  0  0  0  0  0  0  0  0  0  0  0
   59.7395   32.3621   49.4434 C   0  0  0  0  0  0  0  0  0  0  0  0
   60.5068   31.1160   49.5879 N   0  0  0  0  0  0  0  0  0  0  0  0
   61.4458   30.9508   48.4672 C   0  0  0  0  0  0  0  0  0  0  0  0
   59.6131   29.9394   49.6947 C   0  0  0  0  0  0  0  0  0  0  0  0
   58.3058   30.2221   50.4712 C   0  0  0  0  0  0  0  0  0  0  0  0
   52.4342   30.1441   51.7696 C   0  0  0  0  0  0  0  0  0  0  0  0
   52.4294   29.4191   50.6353 N   0  0  0  0  0  0  0  0  0  0  0  0
   51.7321   30.1923   49.7736 C   0  0  0  0  0  0  0  0  0  0  0  0
   51.4969   29.8432   48.5875 O   0  0  0  0  0  0  0  0  0  0  0  0
   51.3199   31.3735   50.2799 N   0  0  0  0  0  0  0  0  0  0  0  0
   51.7864   31.3331   51.5384 C   0  0  0  0  0  0  0  0  0  0  0  0
   51.6265   32.3640   52.4576 O   0  0  0  0  0  0  0  0  0  0  0  0
   57.9832   28.6146   53.5991 C   0  0  0  0  0  0  0  0  0  0  0  0
   58.5361   28.8856   54.9934 C   0  0  0  0  0  0  0  0  0  0  0  0
  1  2  2  0
  2  3  1  0
  3  4  2  0
  4 17  1  0
 17 18  1  0
 18 19  1  0
 19 20  2  0
 19 21  1  0
 21 22  1  0
 22 23  1  0
  3  5  1  0
  5  6  2  0
  6  8  1  0
  8  9  2  0
  8 10  1  0
 10 11  1  0
 11 12  1  0
 12 13  1  0
 13 14  1  0
 13 15  1  0
 15 16  1  0
  6  7  1  0
  7 24  1  0
 24 25  1  0
  7  2  1  0
 22 17  2  0
 16 10  1  0
M  CHG 1  18  -1
M  CHG 1  21  -1
M  CHG 1  23  -1
M  END
> <UniqueID>
43

> <SMILES>
C=c1c(=Cc2[n-]c(=O)[n-]c2[O-])cc(C(=O)N2CCN(C)CC2)n1CC

> <Energy>
123.0902347470234

> <Genealogy>
C=c1c(=Cc2[n-]c(=O)[n-]c2[O-])cc(C(=O)N2CCN(C)CC2)n1CC (protonated)
C=c1c(=Cc2[n-]c(=O)[n-]c2[O-])cc(C(=O)N2CCN(C)CC2)n1CC (3D coordinates assigned)
C=c1c(=Cc2[n-]c(=O)[n-]c2[O-])cc(C(=O)N2CCN(C)CC2)n1CC (nonaromatic ring conformer: 123.0902347470234 kcal/mol)

> <smiles>
C=c1c(=Cc2[nH]c(=O)[nH]c2O)cc(C(=O)N2CCN(C)CC2)n1CC

> <score_type>
oracle

> <origin>
adg

> <m_score__min__energy>
-15.83

> <m_primary>
energy

> <minimizedAffinity>
-4.07587

> <minimizedRMSD>
1.06996

> <CNNscore>
0.0467387028

> <CNNaffinity>
3.7905800343

> <CNN_VS>
0.1771667898

> <CNNaffinity_variance>
0.9750046730

$$$$
68:0


 26 28  0  0  0  0  0  0  0  0999 V2000
   58.0516   32.9498   44.5414 C   0  0  0  0  0  0  0  0  0  0  0  0
   58.3385   31.7447   45.0622 C   0  0  0  0  0  0  0  0  0  0  0  0
   58.3392   30.6587   44.2303 N   0  0  0  0  0  0  0  0  0  0  0  0
   58.6319   29.4070   44.6665 C   0  0  0  0  0  0  0  0  0  0  0  0
   58.9639   29.1729   46.0078 C   0  0  0  0  0  0  0  0  0  0  0  0
   59.2616   27.9175   46.4064 C   0  0  0  0  0  0  0  0  0  0  0  0
   58.9354   30.2643   46.8920 C   0  0  0  0  0  0  0  0  0  0  0  0
   58.6330   31.5605   46.4420 C   0  0  0  0  0  0  0  0  0  0  0  0
   58.1191   30.7899   43.2798 H   0  0  0  0  0  0  0  0  0  0  0  0
   58.2908   26.8125   46.5187 C   0  0  0  0  0  0  0  0  0  0  0  0
   58.5267   25.6872   47.2155 N   0  0  0  0  0  0  0  0  0  0  0  0
   57.3595   25.0135   47.1283 C   0  0  0  0  0  0  0  0  0  0  0  0
   57.1878   23.8840   47.6558 O   0  0  0  0  0  0  0  0  0  0  0  0
   56.3868   25.6515   46.4431 N   0  0  0  0  0  0  0  0  0  0  0  0
   56.9876   26.7938   46.0741 C   0  0  0  0  0  0  0  0  0  0  0  0
   56.3434   27.8134   45.3845 O   0  0  0  0  0  0  0  0  0  0  0  0
   58.6615   32.6911   47.4535 C   0  0  0  0  0  0  0  0  0  0  0  0
   59.3978   32.2860   48.7070 C   0  0  0  0  0  0  0  0  0  0  0  0
   58.7292   31.9539   49.7234 O   0  0  0  0  0  0  0  0  0  0  0  0
   60.8378   32.2082   48.7556 N   0  0  0  0  0  0  0  0  0  0  0  0
   61.4786   31.0683   49.4306 C   0  0  0  0  0  0  0  0  0  0  0  0
   62.6252   31.5467   50.3247 C   0  0  0  0  0  0  0  0  0  0  0  0
   63.5020   32.4989   49.5644 C   0  0  0  0  0  0  0  0  0  0  0  0
   64.7177   32.4034   49.6214 O   0  0  0  0  0  0  0  0  0  0  0  0
   62.8617   33.6264   48.8064 C   0  0  0  0  0  0  0  0  0  0  0  0
   61.6917   33.1069   47.9631 C   0  0  0  0  0  0  0  0  0  0  0  0
  1  2  2  0
  2  3  1  0
  3  4  2  0
  4  5  1  0
  5  6  2  0
  6 10  1  0
 10 11  1  0
 11 12  1  0
 12 13  2  0
 12 14  1  0
 14 15  1  0
 15 16  1  0
  5  7  1  0
  7  8  2  0
  8 17  1  0
 17 18  1  0
 18 19  2  0
 18 20  1  0
 20 21  1  0
 21 22  1  0
 22 23  1  0
 23 24  2  0
 23 25  1  0
 25 26  1  0
  8  2  1  0
 26 20  1  0
 15 10  2  0
  3  9  1  0
M  CHG 1   3   1
M  CHG 1  11  -1
M  CHG 1  14  -1
M  CHG 1  16  -1
M  END
> <UniqueID>
67

> <SMILES>
C=c1[nH+]cc(=Cc2[n-]c(=O)[n-]c2[O-])cc1CC(=O)N1CCC(=O)CC1

> <Energy>
84.71070012684083

> <Genealogy>
C=c1[nH+]cc(=Cc2[n-]c(=O)[n-]c2[O-])cc1CC(=O)N1CCC(=O)CC1 (protonated)
C=c1[nH+]cc(=Cc2[n-]c(=O)[n-]c2[O-])cc1CC(=O)N1CCC(=O)CC1 (3D coordinates assigned)
C=c1[nH+]cc(=Cc2[n-]c(=O)[n-]c2[O-])cc1CC(=O)N1CCC(=O)CC1 (nonaromatic ring conformer: 84.71070012684083 kcal/mol)

> <smiles>
C=c1ncc(=Cc2[nH]c(=O)[nH]c2O)cc1CC(=O)N1CCC(=O)CC1

> <score_type>
oracle

> <origin>
adg

> <m_score__min__energy>
-16.039999999999999

> <m_primary>
energy

> <minimizedAffinity>
-7.29721

> <minimizedRMSD>
1.21186

> <CNNscore>
0.3839570880

> <CNNaffinity>
6.5364909172

> <CNN_VS>
2.5097320080

> <CNNaffinity_variance>
0.1849742681

$$$$
5:0


 33 36  0  0  0  0  0  0  0  0999 V2000
   59.7836   31.2992   48.3543 C   0  0  0  0  0  0  0  0  0  0  0  0
   59.1156   30.5442   49.3316 C   0  0  0  0  0  0  0  0  0  0  0  0
   59.8243   30.0013   50.4059 C   0  0  0  0  0  0  0  0  0  0  0  0
   61.2085   30.1915   50.5059 C   0  0  0  0  0  0  0  0  0  0  0  0
   61.8647   30.9993   49.5658 C   0  0  0  0  0  0  0  0  0  0  0  0
   61.1557   31.5502   48.4948 C   0  0  0  0  0  0  0  0  0  0  0  0
   57.8001   31.6417   43.7625 C   0  0  0  0  0  0  0  0  0  0  0  0
   58.0767   31.8812   45.0489 C   0  0  0  0  0  0  0  0  0  0  0  0
   57.6381   33.3249   45.7877 S   0  0  0  0  0  0  0  0  0  0  0  0
   58.4288   33.0687   47.2358 C   0  0  0  0  0  0  0  0  0  0  0  0
   59.0483   31.8247   47.1852 C   0  0  0  0  0  0  0  0  0  0  0  0
   58.8505   31.1222   45.9623 C   0  0  0  0  0  0  0  0  0  0  0  0
   59.3905   29.8961   45.7551 C   0  0  0  0  0  0  0  0  0  0  0  0
   58.8017   28.6042   46.1588 C   0  0  0  0  0  0  0  0  0  0  0  0
   57.6099   28.1565   45.5715 C   0  0  0  0  0  0  0  0  0  0  0  0
   56.9362   28.9470   44.6480 O   0  0  0  0  0  0  0  0  0  0  0  0
   57.0988   26.9445   45.9108 N   0  0  0  0  0  0  0  0  0  0  0  0
   57.7350   26.1393   46.8007 C   0  0  0  0  0  0  0  0  0  0  0  0
   57.2409   25.0238   47.1027 O   0  0  0  0  0  0  0  0  0  0  0  0
   58.9074   26.5362   47.3589 N   0  0  0  0  0  0  0  0  0  0  0  0
   59.4597   27.7387   47.0527 C   0  0  0  0  0  0  0  0  0  0  0  0
   60.5618   28.0617   47.5695 O   0  0  0  0  0  0  0  0  0  0  0  0
   62.1192   29.4389   51.8156 S   0  0  0  0  0  0  0  0  0  0  0  0
   63.5880   29.5749   51.5225 O   0  0  0  0  0  0  0  0  0  0  0  0
   61.7960   27.9701   51.8270 O   0  0  0  0  0  0  0  0  0  0  0  0
   61.7732   30.0992   53.4063 N   0  0  0  0  0  0  0  0  0  0  0  0
   60.8256   29.2696   54.1855 C   0  0  0  0  0  0  0  0  0  0  0  0
   59.3491   29.6141   53.9301 C   0  0  0  0  0  0  0  0  0  0  0  0
   59.1177   31.0562   54.0983 N   0  0  0  0  0  0  0  0  0  0  0  0
   57.6930   31.3629   53.8897 C   0  0  0  0  0  0  0  0  0  0  0  0
   59.9358   31.7978   53.1280 C   0  0  0  0  0  0  0  0  0  0  0  0
   61.4236   31.5382   53.3846 C   0  0  0  0  0  0  0  0  0  0  0  0
   62.6545   30.0530   53.9178 H   0  0  0  0  0  0  0  0  0  0  0  0
  7  8  2  0
  8  9  1  0
  9 10  1  0
 10 11  2  0
 11  1  1  0
  1  2  2  0
  2  3  1  0
  3  4  2  0
  4 23  1  0
 23 24  2  0
 23 25  2  0
 23 26  1  0
 26 27  1  0
 27 28  1  0
 28 29  1  0
 29 30  1  0
 29 31  1  0
 31 32  1  0
  4  5  1  0
  5  6  2  0
 11 12  1  0
 12 13  2  0
 13 14  1  0
 14 15  2  0
 15 16  1  0
 15 17  1  0
 17 18  1  0
 18 19  2  0
 18 20  1  0
 20 21  1  0
 21 22  2  0
 12  8  1  0
 21 14  1  0
  6  1  1  0
 32 26  1  0
 26 33  1  0
M  CHG 1  16  -1
M  CHG 1  17  -1
M  CHG 1  20  -1
M  CHG 1  26   1
M  END
> <UniqueID>
6

> <SMILES>
C=c1scc(-c2ccc(S(=O)(=O)[NH+]3CCN(C)CC3)cc2)c1=Cc1c([O-])[n-]c(=O)[n-]c1=O

> <Energy>
109.20704744392646

> <Genealogy>
C=c1scc(-c2ccc(S(=O)(=O)[NH+]3CCN(C)CC3)cc2)c1=Cc1c([O-])[n-]c(=O)[n-]c1=O (protonated)
C=c1scc(-c2ccc(S(=O)(=O)[NH+]3CCN(C)CC3)cc2)c1=Cc1c([O-])[n-]c(=O)[n-]c1=O (3D coordinates assigned)
C=c1scc(-c2ccc(S(=O)(=O)[NH+]3CCN(C)CC3)cc2)c1=Cc1c([O-])[n-]c(=O)[n-]c1=O (nonaromatic ring conformer: 109.20704744392646 kcal/mol)

> <smiles>
C=c1scc(-c2ccc(S(=O)(=O)N3CCN(C)CC3)cc2)c1=Cc1c(O)[nH]c(=O)[nH]c1=O

> <score_type>
oracle

> <origin>
adg

> <m_score__min__energy>
-15.359999999999999

> <m_primary>
energy

> <minimizedAffinity>
-7.68925

> <minimizedRMSD>
1.54241

> <CNNscore>
0.4716342986

> <CNNaffinity>
7.0039505959

> <CNN_VS>
3.3033032417

> <CNNaffinity_variance>
0.0508926623

$$$$
9:0


 32 35  0  0  0  0  0  0  0  0999 V2000
   58.6838   31.3050   47.6865 C   0  0  0  0  0  0  0  0  0  0  0  0
   59.7616   32.2468   47.2009 C   0  0  0  0  0  0  0  0  0  0  0  0
   59.7649   32.5794   45.9835 O   0  0  0  0  0  0  0  0  0  0  0  0
   60.8264   32.7039   48.0696 N   0  0  0  0  0  0  0  0  0  0  0  0
   61.9540   33.4693   47.5137 C   0  0  0  0  0  0  0  0  0  0  0  0
   63.2785   32.9909   48.1193 C   0  0  0  0  0  0  0  0  0  0  0  0
   63.1818   32.8151   49.5751 N   0  0  0  0  0  0  0  0  0  0  0  0
   64.3748   32.5283   50.3261 C   0  0  0  0  0  0  0  0  0  0  0  0
   65.4493   33.1167   50.0258 O   0  0  0  0  0  0  0  0  0  0  0  0
   61.9268   33.1339   50.2659 C   0  0  0  0  0  0  0  0  0  0  0  0
   60.7432   32.4982   49.5274 C   0  0  0  0  0  0  0  0  0  0  0  0
   64.3739   31.5425   51.4306 C   0  0  0  0  0  0  0  0  0  0  0  0
   63.6716   30.3297   51.2980 C   0  0  0  0  0  0  0  0  0  0  0  0
   63.6591   29.4025   52.3445 C   0  0  0  0  0  0  0  0  0  0  0  0
   64.3366   29.6788   53.5337 C   0  0  0  0  0  0  0  0  0  0  0  0
   65.0246   30.8861   53.6813 C   0  0  0  0  0  0  0  0  0  0  0  0
   65.0402   31.8168   52.6382 C   0  0  0  0  0  0  0  0  0  0  0  0
   60.3157   26.7268   47.8027 C   0  0  0  0  0  0  0  0  0  0  0  0
   59.7463   27.8415   47.3171 C   0  0  0  0  0  0  0  0  0  0  0  0
   58.8614   27.9340   46.2303 C   0  0  0  0  0  0  0  0  0  0  0  0
   58.5076   27.0277   45.2967 C   0  0  0  0  0  0  0  0  0  0  0  0
   58.3520   29.2191   46.2544 C   0  0  0  0  0  0  0  0  0  0  0  0
   58.9776   29.8813   47.2926 C   0  0  0  0  0  0  0  0  0  0  0  0
   59.8389   29.0524   47.9276 N   0  0  0  0  0  0  0  0  0  0  0  0
   60.6086   29.3640   49.1383 C   0  0  0  0  0  0  0  0  0  0  0  0
   57.8715   25.7287   45.5603 C   0  0  0  0  0  0  0  0  0  0  0  0
   58.5428   24.5643   45.5866 N   0  0  0  0  0  0  0  0  0  0  0  0
   57.6084   23.6731   45.9814 C   0  0  0  0  0  0  0  0  0  0  0  0
   57.8546   22.4454   46.1116 O   0  0  0  0  0  0  0  0  0  0  0  0
   56.3925   24.2020   46.2364 N   0  0  0  0  0  0  0  0  0  0  0  0
   56.5792   25.5064   45.9791 C   0  0  0  0  0  0  0  0  0  0  0  0
   55.5982   26.4751   46.1503 O   0  0  0  0  0  0  0  0  0  0  0  0
 18 19  2  0
 19 20  1  0
 20 21  2  0
 21 26  1  0
 26 27  1  0
 27 28  1  0
 28 29  2  0
 28 30  1  0
 30 31  1  0
 31 32  1  0
 20 22  1  0
 22 23  2  0
 23  1  1  0
  1  2  1  0
  2  3  2  0
  2  4  1  0
  4  5  1  0
  5  6  1  0
  6  7  1  0
  7  8  1  0
  8  9  2  0
  8 12  1  0
 12 13  2  0
 13 14  1  0
 14 15  2  0
 15 16  1  0
 16 17  2  0
  7 10  1  0
 10 11  1  0
 23 24  1  0
 24 25  1  0
 24 19  1  0
 31 26  2  0
 11  4  1  0
 17 12  1  0
M  CHG 1  27  -1
M  CHG 1  30  -1
M  CHG 1  32  -1
M  END
> <UniqueID>
10

> <SMILES>
C=c1c(=Cc2[n-]c(=O)[n-]c2[O-])cc(CC(=O)N2CCN(C(=O)c3ccccc3)CC2)n1C

> <Energy>
132.6023027661125

> <Genealogy>
C=c1c(=Cc2[n-]c(=O)[n-]c2[O-])cc(CC(=O)N2CCN(C(=O)c3ccccc3)CC2)n1C (protonated)
C=c1c(=Cc2[n-]c(=O)[n-]c2[O-])cc(CC(=O)N2CCN(C(=O)c3ccccc3)CC2)n1C (3D coordinates assigned)
C=c1c(=Cc2[n-]c(=O)[n-]c2[O-])cc(CC(=O)N2CCN(C(=O)c3ccccc3)CC2)n1C (nonaromatic ring conformer: 132.6023027661125 kcal/mol)

> <smiles>
C=c1c(=Cc2[nH]c(=O)[nH]c2O)cc(CC(=O)N2CCN(C(=O)c3ccccc3)CC2)n1C

> <score_type>
oracle

> <origin>
adg

> <m_score__min__energy>
-18.48

> <m_primary>
energy

> <minimizedAffinity>
-7.70425

> <minimizedRMSD>
0.85110

> <CNNscore>
0.1164503098

> <CNNaffinity>
6.2161731720

> <CNN_VS>
0.7238752842

> <CNNaffinity_variance>
0.0213562921

$$$$
17:0


 34 38  0  0  0  0  0  0  0  0999 V2000
   58.3699   31.2632   46.1191 C   0  0  0  0  0  0  0  0  0  0  0  0
   57.8005   32.3499   45.4438 C   0  0  0  0  0  0  0  0  0  0  0  0
   58.0110   33.6511   45.9106 C   0  0  0  0  0  0  0  0  0  0  0  0
   58.7998   33.8742   47.0453 C   0  0  0  0  0  0  0  0  0  0  0  0
   59.3935   32.7934   47.7182 C   0  0  0  0  0  0  0  0  0  0  0  0
   59.1614   31.4920   47.2487 C   0  0  0  0  0  0  0  0  0  0  0  0
   60.2337   33.0088   48.9196 C   0  0  0  0  0  0  0  0  0  0  0  0
   61.1913   33.8274   48.8812 O   0  0  0  0  0  0  0  0  0  0  0  0
   59.9602   32.3056   50.1406 N   0  0  0  0  0  0  0  0  0  0  0  0
   59.4314   32.9969   51.3076 C   0  0  0  0  0  0  0  0  0  0  0  0
   58.0907   32.3740   51.6994 C   0  0  0  0  0  0  0  0  0  0  0  0
   58.1435   30.8984   51.6976 N   0  0  0  0  0  0  0  0  0  0  0  0
   57.1244   30.1706   52.4109 C   0  0  0  0  0  0  0  0  0  0  0  0
   57.3655   29.0077   52.8343 O   0  0  0  0  0  0  0  0  0  0  0  0
   58.8878   30.1619   50.6586 C   0  0  0  0  0  0  0  0  0  0  0  0
   60.1853   30.8684   50.2521 C   0  0  0  0  0  0  0  0  0  0  0  0
   55.7676   30.7729   52.6567 C   0  0  0  0  0  0  0  0  0  0  0  0
   54.6066   29.8494   52.3113 C   0  0  0  0  0  0  0  0  0  0  0  0
   54.9605   30.1066   53.7641 C   0  0  0  0  0  0  0  0  0  0  0  0
   59.2980   28.7364   47.3934 C   0  0  0  0  0  0  0  0  0  0  0  0
   58.6678   28.7803   46.2077 C   0  0  0  0  0  0  0  0  0  0  0  0
   58.4351   27.7012   45.3519 C   0  0  0  0  0  0  0  0  0  0  0  0
   58.7804   26.4138   45.5508 C   0  0  0  0  0  0  0  0  0  0  0  0
   57.7542   28.2116   44.2556 C   0  0  0  0  0  0  0  0  0  0  0  0
   57.6159   29.5697   44.4728 C   0  0  0  0  0  0  0  0  0  0  0  0
   57.0070   30.5314   43.4982 C   0  0  0  0  0  0  0  0  0  0  0  0
   58.1671   29.9166   45.6563 N   0  0  0  0  0  0  0  0  0  0  0  0
   57.8703   25.3912   46.0934 C   0  0  0  0  0  0  0  0  0  0  0  0
   58.2334   24.1141   46.2999 N   0  0  0  0  0  0  0  0  0  0  0  0
   57.0852   23.5199   46.6905 C   0  0  0  0  0  0  0  0  0  0  0  0
   57.0229   22.2981   46.9912 O   0  0  0  0  0  0  0  0  0  0  0  0
   56.0078   24.3329   46.7209 N   0  0  0  0  0  0  0  0  0  0  0  0
   56.5175   25.5112   46.3276 C   0  0  0  0  0  0  0  0  0  0  0  0
   55.7502   26.6549   46.1395 O   0  0  0  0  0  0  0  0  0  0  0  0
 20 21  2  0
 21 22  1  0
 22 23  2  0
 23 28  1  0
 28 29  1  0
 29 30  1  0
 30 31  2  0
 30 32  1  0
 32 33  1  0
 33 34  1  0
 22 24  1  0
 24 25  2  0
 25 26  1  0
 25 27  1  0
 27  1  1  0
  1  2  2  0
  2  3  1  0
  3  4  2  0
  4  5  1  0
  5  7  1  0
  7  8  2  0
  7  9  1  0
  9 10  1  0
 10 11  1  0
 11 12  1  0
 12 13  1  0
 13 14  2  0
 13 17  1  0
 17 18  1  0
 18 19  1  0
 12 15  1  0
 15 16  1  0
  5  6  2  0
 27 21  1  0
  6  1  1  0
 33 28  2  0
 16  9  1  0
 19 17  1  0
M  CHG 1  29  -1
M  CHG 1  32  -1
M  CHG 1  34  -1
M  END
> <UniqueID>
18

> <SMILES>
C=c1/c(=C/c2[n-]c(=O)[n-]c2[O-])cc(C)n1-c1cccc(C(=O)N2CCN(C(=O)C3CC3)CC2)c1

> <Energy>
400.66553059469015

> <Genealogy>
C=c1c(=Cc2[n-]c(=O)[n-]c2[O-])cc(C)n1-c1cccc(C(=O)N2CCN(C(=O)C3CC3)CC2)c1 (protonated)
C=c1/c(=C/c2[n-]c(=O)[n-]c2[O-])cc(C)n1-c1cccc(C(=O)N2CCN(C(=O)C3CC3)CC2)c1 (cis-trans isomerization)
C=c1/c(=C/c2[n-]c(=O)[n-]c2[O-])cc(C)n1-c1cccc(C(=O)N2CCN(C(=O)C3CC3)CC2)c1 (3D coordinates assigned)
C=c1/c(=C/c2[n-]c(=O)[n-]c2[O-])cc(C)n1-c1cccc(C(=O)N2CCN(C(=O)C3CC3)CC2)c1 (nonaromatic ring conformer: 400.66553059469015 kcal/mol)

> <smiles>
C=c1c(=Cc2[nH]c(=O)[nH]c2O)cc(C)n1-c1cccc(C(=O)N2CCN(C(=O)C3CC3)CC2)c1

> <score_type>
oracle

> <origin>
adg

> <m_score__min__energy>
-17.690000000000001

> <m_primary>
energy

> <minimizedAffinity>
-9.63041

> <minimizedRMSD>
0.70911

> <CNNscore>
0.5430392027

> <CNNaffinity>
7.2905564308

> <CNN_VS>
3.9590580463

> <CNNaffinity_variance>
0.0105252070

$$$$
27:0


 29 32  0  0  0  0  0  0  0  0999 V2000
   54.9077   28.4110   54.6434 C   0  0  0  0  0  0  0  0  0  0  0  0
   55.4880   29.1185   53.6570 C   0  0  0  0  0  0  0  0  0  0  0  0
   56.8467   28.8586   53.3901 C   0  0  0  0  0  0  0  0  0  0  0  0
   57.5975   29.7167   52.5879 C   0  0  0  0  0  0  0  0  0  0  0  0
   57.0130   30.8667   52.0434 C   0  0  0  0  0  0  0  0  0  0  0  0
   55.6524   31.1032   52.2475 C   0  0  0  0  0  0  0  0  0  0  0  0
   54.8444   30.2043   52.9782 C   0  0  0  0  0  0  0  0  0  0  0  0
   53.5057   30.4308   52.9568 C   0  0  0  0  0  0  0  0  0  0  0  0
   52.6536   30.4815   51.7534 C   0  0  0  0  0  0  0  0  0  0  0  0
   52.7694   29.6613   50.6908 N   0  0  0  0  0  0  0  0  0  0  0  0
   51.8742   30.1606   49.8118 C   0  0  0  0  0  0  0  0  0  0  0  0
   51.6752   29.6477   48.6808 O   0  0  0  0  0  0  0  0  0  0  0  0
   51.2130   31.2592   50.2375 N   0  0  0  0  0  0  0  0  0  0  0  0
   51.7284   31.4542   51.4621 C   0  0  0  0  0  0  0  0  0  0  0  0
   51.3619   32.5035   52.2960 O   0  0  0  0  0  0  0  0  0  0  0  0
   57.7403   31.7953   51.2804 O   0  0  0  0  0  0  0  0  0  0  0  0
   59.1494   31.7489   51.0452 C   0  0  0  0  0  0  0  0  0  0  0  0
   59.4434   31.2754   49.6459 C   0  0  0  0  0  0  0  0  0  0  0  0
   60.2491   30.1460   49.4326 C   0  0  0  0  0  0  0  0  0  0  0  0
   60.5140   29.7069   48.1329 C   0  0  0  0  0  0  0  0  0  0  0  0
   59.9770   30.3894   47.0382 C   0  0  0  0  0  0  0  0  0  0  0  0
   59.1740   31.5247   47.2345 C   0  0  0  0  0  0  0  0  0  0  0  0
   58.8921   31.9477   48.5428 C   0  0  0  0  0  0  0  0  0  0  0  0
   58.5893   32.2496   46.0856 C   0  0  0  0  0  0  0  0  0  0  0  0
   59.1226   33.3245   45.7042 O   0  0  0  0  0  0  0  0  0  0  0  0
   57.4507   31.7549   45.3685 N   0  0  0  0  0  0  0  0  0  0  0  0
   57.5201   30.7596   44.3068 C   0  0  0  0  0  0  0  0  0  0  0  0
   57.3015   29.3354   44.7831 C   0  0  0  0  0  0  0  0  0  0  0  0
   56.1847   30.0784   44.0685 C   0  0  0  0  0  0  0  0  0  0  0  0
  1  2  2  0
  2  3  1  0
  3  4  2  0
  4  5  1  0
  5 16  1  0
 16 17  1  0
 17 18  1  0
 18 19  2  0
 19 20  1  0
 20 21  2  0
 21 22  1  0
 22 24  1  0
 24 25  2  0
 24 26  1  0
 26 27  1  0
 27 28  1  0
 28 29  1  0
 22 23  2  0
  5  6  2  0
  6  7  1  0
  7  8  2  0
  8  9  1  0
  9 10  1  0
 10 11  1  0
 11 12  2  0
 11 13  1  0
 13 14  1  0
 14 15  1  0
  7  2  1  0
 14  9  2  0
 23 18  1  0
 29 27  1  0
M  CHG 1  10  -1
M  CHG 1  13  -1
M  CHG 1  15  -1
M  CHG 1  26  -1
M  END
> <UniqueID>
26

> <SMILES>
C=c1ccc(OCc2cccc(C(=O)[N-]C3CC3)c2)c/c1=C/c1[n-]c(=O)[n-]c1[O-]

> <Energy>
366.4387590054927

> <Genealogy>
C=c1ccc(OCc2cccc(C(=O)[N-]C3CC3)c2)cc1=Cc1[n-]c(=O)[n-]c1[O-] (protonated)
C=c1ccc(OCc2cccc(C(=O)[N-]C3CC3)c2)c/c1=C/c1[n-]c(=O)[n-]c1[O-] (cis-trans isomerization)
C=c1ccc(OCc2cccc(C(=O)[N-]C3CC3)c2)c/c1=C/c1[n-]c(=O)[n-]c1[O-] (3D coordinates assigned)
C=c1ccc(OCc2cccc(C(=O)[N-]C3CC3)c2)c/c1=C/c1[n-]c(=O)[n-]c1[O-] (nonaromatic ring conformer: 366.4387590054927 kcal/mol)

> <smiles>
C=c1ccc(OCc2cccc(C(=O)NC3CC3)c2)cc1=Cc1[nH]c(=O)[nH]c1O

> <score_type>
oracle

> <origin>
adg

> <m_score__min__energy>
-18.949999999999999

> <m_primary>
energy

> <minimizedAffinity>
-6.92526

> <minimizedRMSD>
0.89055

> <CNNscore>
0.1394279301

> <CNNaffinity>
5.8534379005

> <CNN_VS>
0.8161327243

> <CNNaffinity_variance>
0.1434613913

$$$$
33:0


 31 35  0  0  0  0  0  0  0  0999 V2000
   58.0211   29.9227   51.7708 C   0  0  0  0  0  0  0  0  0  0  0  0
   58.4510   28.8072   51.3698 O   0  0  0  0  0  0  0  0  0  0  0  0
   58.7177   31.1241   51.3923 N   0  0  0  0  0  0  0  0  0  0  0  0
   58.2908   31.8256   50.1745 C   0  0  0  0  0  0  0  0  0  0  0  0
   59.5074   32.2723   49.3678 C   0  0  0  0  0  0  0  0  0  0  0  0
   60.5091   32.8515   50.2554 N   0  0  0  0  0  0  0  0  0  0  0  0
   60.6135   32.6374   51.5808 C   0  0  0  0  0  0  0  0  0  0  0  0
   61.7366   33.2019   52.0860 N   0  0  0  0  0  0  0  0  0  0  0  0
   62.3567   33.7737   51.0600 N   0  0  0  0  0  0  0  0  0  0  0  0
   61.6216   33.5453   49.9528 C   0  0  0  0  0  0  0  0  0  0  0  0
   59.6165   31.8083   52.3549 C   0  0  0  0  0  0  0  0  0  0  0  0
   58.7918   32.7233   53.2733 C   0  0  0  0  0  0  0  0  0  0  0  0
   60.3884   30.7812   53.2101 C   0  0  0  0  0  0  0  0  0  0  0  0
   63.2029   34.2752   51.1006 H   0  0  0  0  0  0  0  0  0  0  0  0
   54.7769   29.8981   55.8707 C   0  0  0  0  0  0  0  0  0  0  0  0
   55.3161   29.9978   54.6520 C   0  0  0  0  0  0  0  0  0  0  0  0
   56.9425   29.6978   54.3373 S   0  0  0  0  0  0  0  0  0  0  0  0
   56.8638   29.9676   52.6829 C   0  0  0  0  0  0  0  0  0  0  0  0
   55.5592   30.2948   52.3424 C   0  0  0  0  0  0  0  0  0  0  0  0
   54.6718   30.3014   53.4398 C   0  0  0  0  0  0  0  0  0  0  0  0
   53.3664   30.6300   53.3310 C   0  0  0  0  0  0  0  0  0  0  0  0
   52.6035   30.6006   52.0676 C   0  0  0  0  0  0  0  0  0  0  0  0
   52.8531   29.7306   51.0653 N   0  0  0  0  0  0  0  0  0  0  0  0
   52.0265   30.1413   50.0767 C   0  0  0  0  0  0  0  0  0  0  0  0
   51.9669   29.5629   48.9529 O   0  0  0  0  0  0  0  0  0  0  0  0
   51.2875   31.2348   50.3730 N   0  0  0  0  0  0  0  0  0  0  0  0
   51.6702   31.5175   51.6332 C   0  0  0  0  0  0  0  0  0  0  0  0
   51.2125   32.6204   52.3451 O   0  0  0  0  0  0  0  0  0  0  0  0
   61.9794   34.0582   48.5881 C   0  0  0  0  0  0  0  0  0  0  0  0
   62.0185   32.9839   47.5096 C   0  0  0  0  0  0  0  0  0  0  0  0
   63.3166   33.5738   48.0371 C   0  0  0  0  0  0  0  0  0  0  0  0
 15 16  2  0
 16 17  1  0
 17 18  1  0
 18  1  1  0
  1  2  2  0
  1  3  1  0
  3  4  1  0
  4  5  1  0
  5  6  1  0
  6  7  1  0
  7  8  2  0
  8  9  1  0
  9 10  2  0
 10 29  1  0
 29 30  1  0
 30 31  1  0
  7 11  1  0
 11 12  1  0
 11 13  1  0
 18 19  2  0
 19 20  1  0
 20 21  2  0
 21 22  1  0
 22 23  1  0
 23 24  1  0
 24 25  2  0
 24 26  1  0
 26 27  1  0
 27 28  1  0
 20 16  1  0
 27 22  2  0
 11  3  1  0
 10  6  1  0
 31 29  1  0
  9 14  1  0
M  CHG 1   9   1
M  CHG 1  23  -1
M  CHG 1  26  -1
M  CHG 1  28  -1
M  END
> <UniqueID>
32

> <SMILES>
C=c1sc(C(=O)N2CCn3c(n[nH+]c3C3CC3)C2(C)C)c/c1=C\c1[n-]c(=O)[n-]c1[O-]

> <Energy>
424.2802059057234

> <Genealogy>
C=c1sc(C(=O)N2CCn3c(n[nH+]c3C3CC3)C2(C)C)cc1=Cc1[n-]c(=O)[n-]c1[O-] (protonated)
C=c1sc(C(=O)N2CCn3c(n[nH+]c3C3CC3)C2(C)C)c/c1=C\c1[n-]c(=O)[n-]c1[O-] (cis-trans isomerization)
C=c1sc(C(=O)N2CCn3c(n[nH+]c3C3CC3)C2(C)C)c/c1=C\c1[n-]c(=O)[n-]c1[O-] (3D coordinates assigned)
C=c1sc(C(=O)N2CCn3c(n[nH+]c3C3CC3)C2(C)C)c/c1=C\c1[n-]c(=O)[n-]c1[O-] (nonaromatic ring conformer: 424.2802059057234 kcal/mol)

> <smiles>
C=c1sc(C(=O)N2CCn3c(C4CC4)nnc3C2(C)C)cc1=Cc1[nH]c(=O)[nH]c1O

> <score_type>
oracle

> <origin>
adg

> <m_score__min__energy>
-16.039999999999999

> <m_primary>
energy

> <minimizedAffinity>
-5.78664

> <minimizedRMSD>
0.81209

> <CNNscore>
0.0414088368

> <CNNaffinity>
4.9347109795

> <CNN_VS>
0.2043406367

> <CNNaffinity_variance>
0.4761401713

$$$$
34:0


 28 30  0  0  0  0  0  0  0  0999 V2000
   58.3591   31.2714   44.9769 C   0  0  0  0  0  0  0  0  0  0  0  0
   57.9150   32.4495   44.3591 C   0  0  0  0  0  0  0  0  0  0  0  0
   58.0375   33.6759   45.0140 C   0  0  0  0  0  0  0  0  0  0  0  0
   58.5860   33.7363   46.2970 C   0  0  0  0  0  0  0  0  0  0  0  0
   59.0040   32.5612   46.9442 C   0  0  0  0  0  0  0  0  0  0  0  0
   58.9005   31.3330   46.2712 C   0  0  0  0  0  0  0  0  0  0  0  0
   59.5780   32.6295   48.3075 C   0  0  0  0  0  0  0  0  0  0  0  0
   58.8469   32.3334   49.2932 O   0  0  0  0  0  0  0  0  0  0  0  0
   60.9424   33.0317   48.5391 N   0  0  0  0  0  0  0  0  0  0  0  0
   61.2648   33.8078   49.7401 C   0  0  0  0  0  0  0  0  0  0  0  0
   62.7738   34.0538   49.8388 C   0  0  0  0  0  0  0  0  0  0  0  0
   63.5097   32.8001   49.6341 N   0  0  0  0  0  0  0  0  0  0  0  0
   63.2626   32.1793   48.3137 C   0  0  0  0  0  0  0  0  0  0  0  0
   62.0084   32.6990   47.5838 C   0  0  0  0  0  0  0  0  0  0  0  0
   63.2297   32.1393   50.3589 H   0  0  0  0  0  0  0  0  0  0  0  0
   58.2054   29.9432   44.2804 C   0  0  0  0  0  0  0  0  0  0  0  0
   55.9923   29.3157   44.9631 O   0  0  0  0  0  0  0  0  0  0  0  0
   57.2238   29.0450   44.9915 C   0  0  0  0  0  0  0  0  0  0  0  0
   57.6570   27.9204   45.7683 N   0  0  0  0  0  0  0  0  0  0  0  0
   58.1982   26.6763   45.2290 C   0  0  0  0  0  0  0  0  0  0  0  0
   57.1364   25.6164   45.1779 C   0  0  0  0  0  0  0  0  0  0  0  0
   57.1534   24.6265   44.1843 C   0  0  0  0  0  0  0  0  0  0  0  0
   56.1510   23.6501   44.1716 C   0  0  0  0  0  0  0  0  0  0  0  0
   56.1598   22.7514   43.2881 O   0  0  0  0  0  0  0  0  0  0  0  0
   55.1445   23.6781   45.1423 C   0  0  0  0  0  0  0  0  0  0  0  0
   54.1389   22.7170   45.1490 O   0  0  0  0  0  0  0  0  0  0  0  0
   55.1561   24.6835   46.1111 C   0  0  0  0  0  0  0  0  0  0  0  0
   56.1412   25.6219   46.1067 N   0  0  0  0  0  0  0  0  0  0  0  0
 17 18  2  0
 18 16  1  0
 16  1  1  0
  1  2  2  0
  2  3  1  0
  3  4  2  0
  4  5  1  0
  5  7  1  0
  7  8  2  0
  7  9  1  0
  9 10  1  0
 10 11  1  0
 11 12  1  0
 12 13  1  0
 13 14  1  0
  5  6  2  0
 18 19  1  0
 19 20  1  0
 20 21  1  0
 21 22  2  0
 22 23  1  0
 23 24  2  0
 23 25  1  0
 25 26  1  0
 25 27  2  0
 27 28  1  0
  6  1  1  0
 28 21  1  0
 14  9  1  0
 12 15  1  0
M  CHG 1  19  -1
M  CHG 1  26  -1
M  CHG 1  28  -1
M  END
> <UniqueID>
33

> <SMILES>
O=C(Cc1cccc(C(=O)N2CCNCC2)c1)[N-]Cc1cc(=O)c([O-])c[n-]1

> <Energy>
54.68177321300454

> <Genealogy>
O=C(Cc1cccc(C(=O)N2CCNCC2)c1)[N-]Cc1cc(=O)c([O-])c[n-]1 (protonated)
O=C(Cc1cccc(C(=O)N2CCNCC2)c1)[N-]Cc1cc(=O)c([O-])c[n-]1 (3D coordinates assigned)
O=C(Cc1cccc(C(=O)N2CCNCC2)c1)[N-]Cc1cc(=O)c([O-])c[n-]1 (nonaromatic ring conformer: 54.68177321300454 kcal/mol)

> <smiles>
O=C(Cc1cccc(C(=O)N2CCNCC2)c1)NCc1cc(=O)c(O)c[nH]1

> <score_type>
oracle

> <origin>
adg

> <m_score__min__energy>
-15.279999999999999

> <m_primary>
energy

> <minimizedAffinity>
-8.18361

> <minimizedRMSD>
1.10633

> <CNNscore>
0.3448348641

> <CNNaffinity>
6.2292551994

> <CNN_VS>
2.1480643749

> <CNNaffinity_variance>
0.0663195625

$$$$
43:0


 29 32  0  0  0  0  0  0  0  0999 V2000
   58.8406   29.7963   52.1910 C   0  0  0  0  0  0  0  0  0  0  0  0
   59.5598   28.8177   52.5290 O   0  0  0  0  0  0  0  0  0  0  0  0
   59.4277   30.9054   51.4948 N   0  0  0  0  0  0  0  0  0  0  0  0
   60.3533   30.6311   50.3881 C   0  0  0  0  0  0  0  0  0  0  0  0
   60.3877   31.7834   49.3599 C   0  0  0  0  0  0  0  0  0  0  0  0
   59.6812   32.9900   49.8379 N   0  0  0  0  0  0  0  0  0  0  0  0
   60.0251   33.2938   51.2339 C   0  0  0  0  0  0  0  0  0  0  0  0
   59.4065   32.2271   52.1368 C   0  0  0  0  0  0  0  0  0  0  0  0
   54.6823   28.1659   53.7769 C   0  0  0  0  0  0  0  0  0  0  0  0
   55.5357   29.0501   53.2567 C   0  0  0  0  0  0  0  0  0  0  0  0
   56.8190   28.7884   53.1509 O   0  0  0  0  0  0  0  0  0  0  0  0
   57.4039   29.7713   52.5071 C   0  0  0  0  0  0  0  0  0  0  0  0
   56.4737   30.7313   52.1598 C   0  0  0  0  0  0  0  0  0  0  0  0
   55.2658   30.2969   52.6769 C   0  0  0  0  0  0  0  0  0  0  0  0
   54.1274   31.0110   52.5897 C   0  0  0  0  0  0  0  0  0  0  0  0
   53.1237   30.8902   51.5211 C   0  0  0  0  0  0  0  0  0  0  0  0
   53.1485   29.9572   50.5511 N   0  0  0  0  0  0  0  0  0  0  0  0
   51.9733   30.1438   49.9110 C   0  0  0  0  0  0  0  0  0  0  0  0
   51.6282   29.4568   48.9159 O   0  0  0  0  0  0  0  0  0  0  0  0
   51.1921   31.1141   50.4326 N   0  0  0  0  0  0  0  0  0  0  0  0
   51.9296   31.5647   51.4587 C   0  0  0  0  0  0  0  0  0  0  0  0
   51.5189   32.5705   52.3240 O   0  0  0  0  0  0  0  0  0  0  0  0
   59.8263   34.1477   48.9274 C   0  0  0  0  0  0  0  0  0  0  0  0
   59.2640   33.9177   47.5407 C   0  0  0  0  0  0  0  0  0  0  0  0
   58.2243   32.9926   47.3396 C   0  0  0  0  0  0  0  0  0  0  0  0
   57.7089   32.7753   46.0580 C   0  0  0  0  0  0  0  0  0  0  0  0
   58.2196   33.4831   44.9681 C   0  0  0  0  0  0  0  0  0  0  0  0
   59.2423   34.4151   45.1589 C   0  0  0  0  0  0  0  0  0  0  0  0
   59.7593   34.6375   46.4384 C   0  0  0  0  0  0  0  0  0  0  0  0
  9 10  2  0
 10 11  1  0
 11 12  1  0
 12  1  1  0
  1  2  2  0
  1  3  1  0
  3  4  1  0
  4  5  1  0
  5  6  1  0
  6 23  1  0
 23 24  1  0
 24 25  2  0
 25 26  1  0
 26 27  2  0
 27 28  1  0
 28 29  2  0
  6  7  1  0
  7  8  1  0
 12 13  2  0
 13 14  1  0
 14 15  2  0
 15 16  1  0
 16 17  1  0
 17 18  1  0
 18 19  2  0
 18 20  1  0
 20 21  1  0
 21 22  1  0
 14 10  1  0
 21 16  2  0
  8  3  1  0
 29 24  1  0
M  CHG 1  17  -1
M  CHG 1  20  -1
M  CHG 1  22  -1
M  END
> <UniqueID>
41

> <SMILES>
C=c1oc(C(=O)N2CCN(Cc3ccccc3)CC2)c/c1=C/c1[n-]c(=O)[n-]c1[O-]

> <Energy>
130.21525324700542

> <Genealogy>
C=c1oc(C(=O)N2CCN(Cc3ccccc3)CC2)cc1=Cc1[n-]c(=O)[n-]c1[O-] (protonated)
C=c1oc(C(=O)N2CCN(Cc3ccccc3)CC2)c/c1=C/c1[n-]c(=O)[n-]c1[O-] (cis-trans isomerization)
C=c1oc(C(=O)N2CCN(Cc3ccccc3)CC2)c/c1=C/c1[n-]c(=O)[n-]c1[O-] (3D coordinates assigned)
C=c1oc(C(=O)N2CCN(Cc3ccccc3)CC2)c/c1=C/c1[n-]c(=O)[n-]c1[O-] (nonaromatic ring conformer: 130.21525324700542 kcal/mol)

> <smiles>
C=c1oc(C(=O)N2CCN(Cc3ccccc3)CC2)cc1=Cc1[nH]c(=O)[nH]c1O

> <score_type>
oracle

> <origin>
adg

> <m_score__min__energy>
-18.52

> <m_primary>
energy

> <minimizedAffinity>
-7.08173

> <minimizedRMSD>
0.87855

> <CNNscore>
0.1656014621

> <CNNaffinity>
5.1841340065

> <CNN_VS>
0.8585001826

> <CNNaffinity_variance>
0.3569442332

$$$$
49:0


 31 33  0  0  0  0  0  0  0  0999 V2000
   59.5021   32.4808   48.0817 C   0  0  0  0  0  0  0  0  0  0  0  0
   60.3666   33.4873   48.5485 C   0  0  0  0  0  0  0  0  0  0  0  0
   60.8899   33.4252   49.8424 C   0  0  0  0  0  0  0  0  0  0  0  0
   60.5498   32.3684   50.6886 C   0  0  0  0  0  0  0  0  0  0  0  0
   59.6680   31.3663   50.2492 C   0  0  0  0  0  0  0  0  0  0  0  0
   59.1656   31.4191   48.9420 C   0  0  0  0  0  0  0  0  0  0  0  0
   57.8448   31.4497   44.8201 C   0  0  0  0  0  0  0  0  0  0  0  0
   57.9098   32.6454   44.0934 C   0  0  0  0  0  0  0  0  0  0  0  0
   58.4970   33.7791   44.6594 C   0  0  0  0  0  0  0  0  0  0  0  0
   59.0176   33.7272   45.9560 C   0  0  0  0  0  0  0  0  0  0  0  0
   58.9534   32.5367   46.7026 C   0  0  0  0  0  0  0  0  0  0  0  0
   58.3589   31.3999   46.1233 C   0  0  0  0  0  0  0  0  0  0  0  0
   55.6222   29.6733   44.9591 N   0  0  0  0  0  0  0  0  0  0  0  0
   57.0874   30.0240   44.1151 S   0  0  0  0  0  0  0  0  0  0  0  0
   58.0214   28.8508   44.2182 O   0  0  0  0  0  0  0  0  0  0  0  0
   56.7820   30.2711   42.6654 O   0  0  0  0  0  0  0  0  0  0  0  0
   55.1838   28.8477   44.5507 H   0  0  0  0  0  0  0  0  0  0  0  0
   59.3136   30.2479   51.0762 N   0  0  0  0  0  0  0  0  0  0  0  0
   58.5029   30.2821   52.2586 C   0  0  0  0  0  0  0  0  0  0  0  0
   58.9145   29.7482   53.3238 O   0  0  0  0  0  0  0  0  0  0  0  0
   57.2120   30.9989   52.2211 C   0  0  0  0  0  0  0  0  0  0  0  0
   57.2062   32.2383   52.4424 O   0  0  0  0  0  0  0  0  0  0  0  0
   55.9593   30.3557   51.9416 N   0  0  0  0  0  0  0  0  0  0  0  0
   55.1556   29.5846   52.8823 C   0  0  0  0  0  0  0  0  0  0  0  0
   53.7613   30.1405   52.9111 C   0  0  0  0  0  0  0  0  0  0  0  0
   53.0345   30.1694   54.1127 C   0  0  0  0  0  0  0  0  0  0  0  0
   51.7487   30.7178   54.1463 C   0  0  0  0  0  0  0  0  0  0  0  0
   51.1837   31.2507   52.9841 C   0  0  0  0  0  0  0  0  0  0  0  0
   51.9061   31.2401   51.7868 C   0  0  0  0  0  0  0  0  0  0  0  0
   51.3470   31.7769   50.6338 O   0  0  0  0  0  0  0  0  0  0  0  0
   53.1932   30.6915   51.7503 C   0  0  0  0  0  0  0  0  0  0  0  0
 13 14  1  0
 14 15  2  0
 14 16  2  0
 14  7  1  0
  7  8  2  0
  8  9  1  0
  9 10  2  0
 10 11  1  0
 11  1  1  0
  1  2  2  0
  2  3  1  0
  3  4  2  0
  4  5  1  0
  5 18  1  0
 18 19  1  0
 19 20  2  0
 19 21  1  0
 21 22  2  0
 21 23  1  0
 23 24  1  0
 24 25  1  0
 25 26  2  0
 26 27  1  0
 27 28  2  0
 28 29  1  0
 29 30  1  0
 29 31  2  0
  5  6  2  0
 11 12  2  0
 12  7  1  0
  6  1  1  0
 31 25  1  0
 13 17  1  0
M  CHG 1  13  -1
M  CHG 1  18  -1
M  CHG 1  23  -1
M  CHG 1  30  -1
M  END
> <UniqueID>
47

> <SMILES>
[NH-]S(=O)(=O)c1cccc(-c2cccc([N-]C(=O)C(=O)[N-]Cc3cccc([O-])c3)c2)c1

> <Energy>
54.9512450091059

> <Genealogy>
[NH-]S(=O)(=O)c1cccc(-c2cccc([N-]C(=O)C(=O)[N-]Cc3cccc([O-])c3)c2)c1 (protonated)
[NH-]S(=O)(=O)c1cccc(-c2cccc([N-]C(=O)C(=O)[N-]Cc3cccc([O-])c3)c2)c1 (3D coordinates assigned)
[NH-]S(=O)(=O)c1cccc(-c2cccc([N-]C(=O)C(=O)[N-]Cc3cccc([O-])c3)c2)c1 (optimized conformer: 54.9512450091059 kcal/mol)

> <smiles>
NS(=O)(=O)c1cccc(-c2cccc(NC(=O)C(=O)NCc3cccc(O)c3)c2)c1

> <score_type>
oracle

> <origin>
adg

> <m_score__min__energy>
-19.350000000000001

> <m_primary>
energy

> <minimizedAffinity>
-8.64714

> <minimizedRMSD>
0.85098

> <CNNscore>
0.8251963258

> <CNNaffinity>
6.8082823753

> <CNN_VS>
5.6181697845

> <CNNaffinity_variance>
0.1133965850

$$$$
87:0


 23 25  0  0  0  0  0  0  0  0999 V2000
   56.3566   30.0054   43.0555 C   0  0  0  0  0  0  0  0  0  0  0  0
   57.0271   29.7502   44.1826 C   0  0  0  0  0  0  0  0  0  0  0  0
   57.1276   28.5116   44.7049 N   0  0  0  0  0  0  0  0  0  0  0  0
   57.8947   28.6139   45.8102 C   0  0  0  0  0  0  0  0  0  0  0  0
   58.2047   27.6024   46.6379 C   0  0  0  0  0  0  0  0  0  0  0  0
   58.2812   29.9250   46.0084 C   0  0  0  0  0  0  0  0  0  0  0  0
   57.7336   30.6604   44.9694 C   0  0  0  0  0  0  0  0  0  0  0  0
   56.7194   27.6897   44.3482 H   0  0  0  0  0  0  0  0  0  0  0  0
   57.9859   26.1832   46.3182 C   0  0  0  0  0  0  0  0  0  0  0  0
   58.9866   25.3183   46.0741 N   0  0  0  0  0  0  0  0  0  0  0  0
   58.3409   24.1732   45.7641 C   0  0  0  0  0  0  0  0  0  0  0  0
   58.9494   23.1074   45.4835 O   0  0  0  0  0  0  0  0  0  0  0  0
   56.9937   24.2619   45.7707 N   0  0  0  0  0  0  0  0  0  0  0  0
   56.7845   25.5423   46.1145 C   0  0  0  0  0  0  0  0  0  0  0  0
   55.5229   26.1201   46.1975 O   0  0  0  0  0  0  0  0  0  0  0  0
   57.8792   32.1239   44.7816 C   0  0  0  0  0  0  0  0  0  0  0  0
   58.2537   32.5827   43.6714 O   0  0  0  0  0  0  0  0  0  0  0  0
   57.6017   33.0853   45.9033 C   0  0  0  0  0  0  0  0  0  0  0  0
   58.7969   33.1818   46.8044 C   0  0  0  0  0  0  0  0  0  0  0  0
   58.7800   32.7674   48.1428 C   0  0  0  0  0  0  0  0  0  0  0  0
   59.9774   32.9912   48.8078 C   0  0  0  0  0  0  0  0  0  0  0  0
   61.0459   33.7169   47.7326 S   0  0  0  0  0  0  0  0  0  0  0  0
   60.0074   33.7499   46.4137 C   0  0  0  0  0  0  0  0  0  0  0  0
  1  2  2  0
  2  3  1  0
  3  4  1  0
  4  5  2  0
  5  9  1  0
  9 10  1  0
 10 11  1  0
 11 12  2  0
 11 13  1  0
 13 14  1  0
 14 15  1  0
  4  6  1  0
  6  7  2  0
  7 16  1  0
 16 17  2  0
 16 18  1  0
 18 19  1  0
 19 20  1  0
 20 21  2  0
 21 22  1  0
 22 23  1  0
  7  2  1  0
 23 19  2  0
 14  9  2  0
  3  8  1  0
M  CHG 1  10  -1
M  CHG 1  13  -1
M  CHG 1  15  -1
M  END
> <UniqueID>
81

> <SMILES>
C=c1[nH]c(=Cc2[n-]c(=O)[n-]c2[O-])cc1C(=O)Cc1ccsc1

> <Energy>
121.4240995146972

> <Genealogy>
C=c1[nH]c(=Cc2[n-]c(=O)[n-]c2[O-])cc1C(=O)Cc1ccsc1 (protonated)
C=c1[nH]c(=Cc2[n-]c(=O)[n-]c2[O-])cc1C(=O)Cc1ccsc1 (3D coordinates assigned)
C=c1[nH]c(=Cc2[n-]c(=O)[n-]c2[O-])cc1C(=O)Cc1ccsc1 (optimized conformer: 121.4240995146972 kcal/mol)

> <smiles>
C=c1[nH]c(=Cc2[nH]c(=O)[nH]c2O)cc1C(=O)Cc1ccsc1

> <score_type>
oracle

> <origin>
adg

> <m_score__min__energy>
-16.170000000000002

> <m_primary>
energy

> <minimizedAffinity>
-7.70980

> <minimizedRMSD>
0.96696

> <CNNscore>
0.6493471265

> <CNNaffinity>
6.6537127495

> <CNN_VS>
4.3205690384

> <CNNaffinity_variance>
0.2650881708

$$$$
5:0


 32 35  0  0  0  0  0  0  0  0999 V2000
   61.0012   29.8085   47.2619 O   0  0  0  0  0  0  0  0  0  0  0  0
   60.2131   29.3175   48.1129 C   0  0  0  0  0  0  0  0  0  0  0  0
   59.2592   30.2417   48.8278 C   0  0  0  0  0  0  0  0  0  0  0  0
   58.8084   31.3502   47.9818 N   0  0  0  0  0  0  0  0  0  0  0  0
   59.3913   32.4561   47.6021 C   0  0  0  0  0  0  0  0  0  0  0  0
   60.5551   32.7810   48.2274 N   0  0  0  0  0  0  0  0  0  0  0  0
   61.1987   33.9544   48.0116 C   0  0  0  0  0  0  0  0  0  0  0  0
   60.6533   34.8769   47.1264 C   0  0  0  0  0  0  0  0  0  0  0  0
   59.5118   34.5632   46.4652 N   0  0  0  0  0  0  0  0  0  0  0  0
   58.8642   33.3817   46.6530 C   0  0  0  0  0  0  0  0  0  0  0  0
   57.7222   33.1208   45.7717 C   0  0  0  0  0  0  0  0  0  0  0  0
   57.1438   34.0845   45.2004 O   0  0  0  0  0  0  0  0  0  0  0  0
   57.3457   31.7725   45.4792 N   0  0  0  0  0  0  0  0  0  0  0  0
   57.8478   31.0284   44.3252 C   0  0  0  0  0  0  0  0  0  0  0  0
   58.7035   29.8512   44.7762 C   0  0  0  0  0  0  0  0  0  0  0  0
   57.7418   28.6872   44.9814 C   0  0  0  0  0  0  0  0  0  0  0  0
   56.4551   29.0384   44.2379 C   0  0  0  0  0  0  0  0  0  0  0  0
   56.6843   30.3932   43.5793 C   0  0  0  0  0  0  0  0  0  0  0  0
   60.2432   27.9012   48.3407 N   0  0  0  0  0  0  0  0  0  0  0  0
   59.5923   26.8992   47.5503 C   0  0  0  0  0  0  0  0  0  0  0  0
   60.2910   26.3078   46.4908 C   0  0  0  0  0  0  0  0  0  0  0  0
   59.6716   25.3478   45.6865 C   0  0  0  0  0  0  0  0  0  0  0  0
   58.3535   24.9456   45.9504 C   0  0  0  0  0  0  0  0  0  0  0  0
   57.6660   25.5123   47.0347 C   0  0  0  0  0  0  0  0  0  0  0  0
   58.2845   26.4781   47.8347 C   0  0  0  0  0  0  0  0  0  0  0  0
   57.7075   23.9823   45.1012 N   0  0  0  0  0  0  0  0  0  0  0  0
   56.3734   24.2874   44.5711 C   0  0  0  0  0  0  0  0  0  0  0  0
   55.9469   23.2549   43.5218 C   0  0  0  0  0  0  0  0  0  0  0  0
   56.1389   21.9463   44.0209 O   0  0  0  0  0  0  0  0  0  0  0  0
   57.5206   21.6553   44.0909 C   0  0  0  0  0  0  0  0  0  0  0  0
   58.2511   22.6585   44.9382 C   0  0  0  0  0  0  0  0  0  0  0  0
   59.3721   22.3570   45.4326 O   0  0  0  0  0  0  0  0  0  0  0  0
  1  2  2  0
  2  3  1  0
  3  4  1  0
  4  5  2  0
  5  6  1  0
  6  7  1  0
  7  8  2  0
  8  9  1  0
  9 10  2  0
 10 11  1  0
 11 12  2  0
 11 13  1  0
 13 14  1  0
 14 15  1  0
 15 16  1  0
 16 17  1  0
 17 18  1  0
  2 19  1  0
 19 20  1  0
 20 21  2  0
 21 22  1  0
 22 23  2  0
 23 26  1  0
 26 27  1  0
 27 28  1  0
 28 29  1  0
 29 30  1  0
 30 31  1  0
 31 32  2  0
 23 24  1  0
 24 25  2  0
 10  5  1  0
 18 14  1  0
 25 20  1  0
 31 26  1  0
M  CHG 1   6  -1
M  CHG 1  13  -1
M  CHG 1  19  -1
M  END
> <UniqueID>
5

> <SMILES>
O=C(CN=c1[n-]ccnc1C(=O)[N-]C1CCCC1)[N-]c1ccc(N2CCOCC2=O)cc1

> <Energy>
85.59673814347666

> <Genealogy>
O=C(CN=c1[n-]ccnc1C(=O)[N-]C1CCCC1)[N-]c1ccc(N2CCOCC2=O)cc1 (protonated)
O=C(CN=c1[n-]ccnc1C(=O)[N-]C1CCCC1)[N-]c1ccc(N2CCOCC2=O)cc1 (3D coordinates assigned)
O=C(CN=c1[n-]ccnc1C(=O)[N-]C1CCCC1)[N-]c1ccc(N2CCOCC2=O)cc1 (nonaromatic ring conformer: 85.59673814347666 kcal/mol)

> <smiles>
O=C(CN=c1[nH]ccnc1C(=O)NC1CCCC1)Nc1ccc(N2CCOCC2=O)cc1

> <score_type>
oracle

> <origin>
adg

> <m_score__min__energy>
-14.19

> <m_primary>
energy

> <minimizedAffinity>
-6.67537

> <minimizedRMSD>
0.65396

> <CNNscore>
0.0848062783

> <CNNaffinity>
6.0642466545

> <CNN_VS>
0.5142861605

> <CNNaffinity_variance>
0.1872402430

$$$$
12:0


 35 39  0  0  0  0  0  0  0  0999 V2000
   58.9180   29.7173   52.9018 C   0  0  0  0  0  0  0  0  0  0  0  0
   58.6643   29.4972   51.5401 C   0  0  0  0  0  0  0  0  0  0  0  0
   59.2746   30.2913   50.5657 C   0  0  0  0  0  0  0  0  0  0  0  0
   60.1725   31.3076   50.9360 C   0  0  0  0  0  0  0  0  0  0  0  0
   60.4525   31.5050   52.2977 C   0  0  0  0  0  0  0  0  0  0  0  0
   59.8327   30.7172   53.2704 C   0  0  0  0  0  0  0  0  0  0  0  0
   60.7642   32.1665   49.9402 N   0  0  0  0  0  0  0  0  0  0  0  0
   60.3172   33.5586   49.8106 C   0  0  0  0  0  0  0  0  0  0  0  0
   60.5227   34.0597   48.3697 C   0  0  0  0  0  0  0  0  0  0  0  0
   60.2701   32.9891   47.3801 N   0  0  0  0  0  0  0  0  0  0  0  0
   61.2011   31.8386   47.5349 C   0  0  0  0  0  0  0  0  0  0  0  0
   61.7396   31.6622   48.9695 C   0  0  0  0  0  0  0  0  0  0  0  0
   58.8501   32.5726   47.3683 C   0  0  0  0  0  0  0  0  0  0  0  0
   58.4537   32.1031   45.9946 C   0  0  0  0  0  0  0  0  0  0  0  0
   58.2167   30.7394   45.7584 C   0  0  0  0  0  0  0  0  0  0  0  0
   57.8345   30.2993   44.4869 C   0  0  0  0  0  0  0  0  0  0  0  0
   57.6827   31.2175   43.4452 C   0  0  0  0  0  0  0  0  0  0  0  0
   57.9132   32.5778   43.6724 C   0  0  0  0  0  0  0  0  0  0  0  0
   58.2996   33.0214   44.9401 C   0  0  0  0  0  0  0  0  0  0  0  0
   58.1913   28.9144   53.9535 C   0  0  0  0  0  0  0  0  0  0  0  0
   56.6404   31.3596   53.1186 C   0  0  0  0  0  0  0  0  0  0  0  0
   56.0493   30.2015   53.4523 C   0  0  0  0  0  0  0  0  0  0  0  0
   54.6777   29.9095   53.3535 C   0  0  0  0  0  0  0  0  0  0  0  0
   53.6148   30.6954   53.0858 C   0  0  0  0  0  0  0  0  0  0  0  0
   54.5510   28.5598   53.6163 C   0  0  0  0  0  0  0  0  0  0  0  0
   55.8069   28.0904   53.9341 C   0  0  0  0  0  0  0  0  0  0  0  0
   56.0828   26.6529   54.2600 C   0  0  0  0  0  0  0  0  0  0  0  0
   56.7303   29.0793   53.8267 N   0  0  0  0  0  0  0  0  0  0  0  0
   52.7565   30.6092   51.8936 C   0  0  0  0  0  0  0  0  0  0  0  0
   52.9549   29.7642   50.8640 N   0  0  0  0  0  0  0  0  0  0  0  0
   52.0119   30.1391   49.9705 C   0  0  0  0  0  0  0  0  0  0  0  0
   51.8635   29.5634   48.8621 O   0  0  0  0  0  0  0  0  0  0  0  0
   51.2482   31.1845   50.3553 N   0  0  0  0  0  0  0  0  0  0  0  0
   51.7435   31.4784   51.5697 C   0  0  0  0  0  0  0  0  0  0  0  0
   51.2849   32.5230   52.3609 O   0  0  0  0  0  0  0  0  0  0  0  0
 21 22  2  0
 22 23  1  0
 23 24  2  0
 24 29  1  0
 29 30  1  0
 30 31  1  0
 31 32  2  0
 31 33  1  0
 33 34  1  0
 34 35  1  0
 23 25  1  0
 25 26  2  0
 26 27  1  0
 26 28  1  0
 28 20  1  0
 20  1  1  0
  1  2  2  0
  2  3  1  0
  3  4  2  0
  4  7  1  0
  7  8  1  0
  8  9  1  0
  9 10  1  0
 10 13  1  0
 13 14  1  0
 14 15  2  0
 15 16  1  0
 16 17  2  0
 17 18  1  0
 18 19  2  0
 10 11  1  0
 11 12  1  0
  4  5  1  0
  5  6  2  0
 28 22  1  0
  6  1  1  0
 34 29  2  0
 12  7  1  0
 19 14  1  0
M  CHG 1  30  -1
M  CHG 1  33  -1
M  CHG 1  35  -1
M  END
> <UniqueID>
11

> <SMILES>
C=c1/c(=C\c2[n-]c(=O)[n-]c2[O-])cc(C)n1Cc1ccc(N2CCN(Cc3ccccc3)CC2)cc1

> <Energy>
148.97842732640686

> <Genealogy>
C=c1c(=Cc2[n-]c(=O)[n-]c2[O-])cc(C)n1Cc1ccc(N2CCN(Cc3ccccc3)CC2)cc1 (protonated)
C=c1/c(=C\c2[n-]c(=O)[n-]c2[O-])cc(C)n1Cc1ccc(N2CCN(Cc3ccccc3)CC2)cc1 (cis-trans isomerization)
C=c1/c(=C\c2[n-]c(=O)[n-]c2[O-])cc(C)n1Cc1ccc(N2CCN(Cc3ccccc3)CC2)cc1 (3D coordinates assigned)
C=c1/c(=C\c2[n-]c(=O)[n-]c2[O-])cc(C)n1Cc1ccc(N2CCN(Cc3ccccc3)CC2)cc1 (nonaromatic ring conformer: 148.97842732640686 kcal/mol)

> <smiles>
C=c1c(=Cc2[nH]c(=O)[nH]c2O)cc(C)n1Cc1ccc(N2CCN(Cc3ccccc3)CC2)cc1

> <score_type>
oracle

> <origin>
adg

> <m_score__min__energy>
-19.34

> <m_primary>
energy

> <minimizedAffinity>
-7.44663

> <minimizedRMSD>
1.17819

> <CNNscore>
0.0487304963

> <CNNaffinity>
5.3600749969

> <CNN_VS>
0.2611991167

> <CNNaffinity_variance>
1.1777309179

$$$$
14:0


 36 39  0  0  0  0  0  0  0  0999 V2000
   56.7425   26.8563   46.0467 C   0  0  0  0  0  0  0  0  0  0  0  0
   55.7194   26.1713   46.3094 O   0  0  0  0  0  0  0  0  0  0  0  0
   57.9667   26.6985   46.8619 C   0  0  0  0  0  0  0  0  0  0  0  0
   59.0248   25.9661   46.4964 C   0  0  0  0  0  0  0  0  0  0  0  0
   58.9524   24.6230   45.8805 C   0  0  0  0  0  0  0  0  0  0  0  0
   60.1195   23.9060   45.5610 C   0  0  0  0  0  0  0  0  0  0  0  0
   60.0295   22.6261   45.0094 C   0  0  0  0  0  0  0  0  0  0  0  0
   58.7789   22.0463   44.7807 C   0  0  0  0  0  0  0  0  0  0  0  0
   57.6095   22.7431   45.1178 C   0  0  0  0  0  0  0  0  0  0  0  0
   57.7002   24.0215   45.6842 C   0  0  0  0  0  0  0  0  0  0  0  0
   56.0339   22.0008   44.8693 S   0  0  0  0  0  0  0  0  0  0  0  0
   55.0063   23.0843   44.6881 O   0  0  0  0  0  0  0  0  0  0  0  0
   56.0702   21.1772   43.6118 O   0  0  0  0  0  0  0  0  0  0  0  0
   55.6774   21.0024   46.2691 N   0  0  0  0  0  0  0  0  0  0  0  0
   54.2313   20.9235   46.5472 C   0  0  0  0  0  0  0  0  0  0  0  0
   53.7154   22.1649   47.3079 C   0  0  0  0  0  0  0  0  0  0  0  0
   54.7037   23.1727   47.3976 O   0  0  0  0  0  0  0  0  0  0  0  0
   55.8124   22.6832   48.1228 C   0  0  0  0  0  0  0  0  0  0  0  0
   56.4265   21.4280   47.4640 C   0  0  0  0  0  0  0  0  0  0  0  0
   56.6789   27.8099   44.9797 N   0  0  0  0  0  0  0  0  0  0  0  0
   57.3852   29.0513   45.0034 C   0  0  0  0  0  0  0  0  0  0  0  0
   58.3949   29.2647   45.9494 C   0  0  0  0  0  0  0  0  0  0  0  0
   59.0970   30.4773   45.9683 C   0  0  0  0  0  0  0  0  0  0  0  0
   58.7925   31.4709   45.0273 C   0  0  0  0  0  0  0  0  0  0  0  0
   57.7853   31.2583   44.0828 C   0  0  0  0  0  0  0  0  0  0  0  0
   57.0824   30.0509   44.0662 C   0  0  0  0  0  0  0  0  0  0  0  0
   56.0912   29.8432   43.1130 O   0  0  0  0  0  0  0  0  0  0  0  0
   60.3632   30.7600   47.1575 S   0  0  0  0  0  0  0  0  0  0  0  0
   60.0062   30.0752   48.4478 O   0  0  0  0  0  0  0  0  0  0  0  0
   61.6460   30.1787   46.6291 O   0  0  0  0  0  0  0  0  0  0  0  0
   60.5455   32.4829   47.4151 N   0  0  0  0  0  0  0  0  0  0  0  0
   59.7422   33.2761   46.4575 C   0  0  0  0  0  0  0  0  0  0  0  0
   58.4242   33.7850   47.0647 C   0  0  0  0  0  0  0  0  0  0  0  0
   57.9407   32.8697   48.0219 O   0  0  0  0  0  0  0  0  0  0  0  0
   58.7774   32.8760   49.1605 C   0  0  0  0  0  0  0  0  0  0  0  0
   60.2873   32.8526   48.8191 C   0  0  0  0  0  0  0  0  0  0  0  0
  3  1  1  0
  1  2  2  0
  1 20  1  0
 20 21  1  0
 21 22  2  0
 22 23  1  0
 23 28  1  0
 28 29  2  0
 28 30  2  0
 28 31  1  0
 31 32  1  0
 32 33  1  0
 33 34  1  0
 34 35  1  0
 35 36  1  0
 23 24  2  0
 24 25  1  0
 25 26  2  0
 26 27  1  0
  3  4  2  0
  4  5  1  0
  5  6  2  0
  6  7  1  0
  7  8  2  0
  8  9  1  0
  9 11  1  0
 11 12  2  0
 11 13  2  0
 11 14  1  0
 14 15  1  0
 15 16  1  0
 16 17  1  0
 17 18  1  0
 18 19  1  0
  9 10  2  0
 26 21  1  0
 10  5  1  0
 36 31  1  0
 19 14  1  0
M  CHG 1  20  -1
M  CHG 1  27  -1
M  END
> <UniqueID>
13

> <SMILES>
O=C(/C=C\c1cccc(S(=O)(=O)N2CCOCC2)c1)[N-]c1cc(S(=O)(=O)N2CCOCC2)ccc1[O-]

> <Energy>
103.08178647804121

> <Genealogy>
O=C(C=Cc1cccc(S(=O)(=O)N2CCOCC2)c1)[N-]c1cc(S(=O)(=O)N2CCOCC2)ccc1[O-] (protonated)
O=C(/C=C\c1cccc(S(=O)(=O)N2CCOCC2)c1)[N-]c1cc(S(=O)(=O)N2CCOCC2)ccc1[O-] (cis-trans isomerization)
O=C(/C=C\c1cccc(S(=O)(=O)N2CCOCC2)c1)[N-]c1cc(S(=O)(=O)N2CCOCC2)ccc1[O-] (3D coordinates assigned)
O=C(/C=C\c1cccc(S(=O)(=O)N2CCOCC2)c1)[N-]c1cc(S(=O)(=O)N2CCOCC2)ccc1[O-] (nonaromatic ring conformer: 103.08178647804121 kcal/mol)

> <smiles>
O=C(C=Cc1cccc(S(=O)(=O)N2CCOCC2)c1)Nc1cc(S(=O)(=O)N2CCOCC2)ccc1O

> <score_type>
oracle

> <origin>
adg

> <m_score__min__energy>
-16.129999999999999

> <m_primary>
energy

> <minimizedAffinity>
-5.90140

> <minimizedRMSD>
1.98903

> <CNNscore>
0.2267129868

> <CNNaffinity>
6.3429064751

> <CNN_VS>
1.4380192757

> <CNNaffinity_variance>
0.0098727820

$$$$
24:0


 27 29  0  0  0  0  0  0  0  0999 V2000
   56.4040   28.7895   44.7642 O   0  0  0  0  0  0  0  0  0  0  0  0
   57.3213   29.6848   45.3101 C   0  0  0  0  0  0  0  0  0  0  0  0
   57.1943   31.0259   45.1649 N   0  0  0  0  0  0  0  0  0  0  0  0
   58.2948   31.5296   45.7547 C   0  0  0  0  0  0  0  0  0  0  0  0
   58.6364   32.8761   45.8609 C   0  0  0  0  0  0  0  0  0  0  0  0
   59.8399   33.2030   46.5095 C   0  0  0  0  0  0  0  0  0  0  0  0
   60.6727   32.1895   47.0385 C   0  0  0  0  0  0  0  0  0  0  0  0
   60.3008   30.8347   46.9133 C   0  0  0  0  0  0  0  0  0  0  0  0
   59.1030   30.5431   46.2610 C   0  0  0  0  0  0  0  0  0  0  0  0
   58.4826   29.3434   46.0044 C   0  0  0  0  0  0  0  0  0  0  0  0
   55.6484   29.1101   44.3122 H   0  0  0  0  0  0  0  0  0  0  0  0
   58.9908   28.0047   46.3588 C   0  0  0  0  0  0  0  0  0  0  0  0
   58.2732   26.8861   46.2115 C   0  0  0  0  0  0  0  0  0  0  0  0
   56.9960   26.7839   46.6488 N   0  0  0  0  0  0  0  0  0  0  0  0
   56.6475   25.5391   46.2841 C   0  0  0  0  0  0  0  0  0  0  0  0
   55.5156   25.0360   46.5110 O   0  0  0  0  0  0  0  0  0  0  0  0
   57.6938   24.9231   45.6423 C   0  0  0  0  0  0  0  0  0  0  0  0
   57.7139   23.6897   45.1414 C   0  0  0  0  0  0  0  0  0  0  0  0
   58.7326   25.7732   45.5855 N   0  0  0  0  0  0  0  0  0  0  0  0
   62.1833   32.6341   47.8294 S   0  0  0  0  0  0  0  0  0  0  0  0
   63.2119   31.6049   47.4494 O   0  0  0  0  0  0  0  0  0  0  0  0
   62.6421   33.9837   47.3508 O   0  0  0  0  0  0  0  0  0  0  0  0
   61.9785   32.6788   49.5605 N   0  0  0  0  0  0  0  0  0  0  0  0
   60.6786   32.8349   50.1654 C   0  0  0  0  0  0  0  0  0  0  0  0
   60.0260   33.8998   49.9791 O   0  0  0  0  0  0  0  0  0  0  0  0
   60.0612   31.7606   51.0078 C   0  0  0  0  0  0  0  0  0  0  0  0
   63.1453   32.5083   50.4279 C   0  0  0  0  0  0  0  0  0  0  0  0
  1  2  1  0
  2  3  1  0
  3  4  1  0
  4  5  2  0
  5  6  1  0
  6  7  2  0
  7 20  1  0
 20 21  2  0
 20 22  2  0
 20 23  1  0
 23 24  1  0
 24 25  2  0
 24 26  1  0
 23 27  1  0
  7  8  1  0
  8  9  2  0
  9 10  1  0
 10 12  1  0
 12 13  2  0
 13 14  1  0
 14 15  1  0
 15 16  2  0
 15 17  1  0
 17 18  2  0
 17 19  1  0
 10  2  2  0
 19 13  1  0
  9  4  1  0
  1 11  1  0
M  CHG 1   3  -1
M  CHG 1  14  -1
M  CHG 1  19  -1
M  END
> <UniqueID>
22

> <SMILES>
C=c1[n-]/c(=C\c2c(O)[n-]c3ccc(S(=O)(=O)N(C)C(C)=O)cc23)[n-]c1=O

> <Energy>
108.71290016611927

> <Genealogy>
C=c1[n-]c(=Cc2c(O)[n-]c3ccc(S(=O)(=O)N(C)C(C)=O)cc23)[n-]c1=O (protonated)
C=c1[n-]/c(=C\c2c(O)[n-]c3ccc(S(=O)(=O)N(C)C(C)=O)cc23)[n-]c1=O (cis-trans isomerization)
C=c1[n-]/c(=C\c2c(O)[n-]c3ccc(S(=O)(=O)N(C)C(C)=O)cc23)[n-]c1=O (3D coordinates assigned)
C=c1[n-]/c(=C\c2c(O)[n-]c3ccc(S(=O)(=O)N(C)C(C)=O)cc23)[n-]c1=O (optimized conformer: 108.71290016611927 kcal/mol)

> <smiles>
C=c1[nH]c(=Cc2c(O)[nH]c3ccc(S(=O)(=O)N(C)C(C)=O)cc23)[nH]c1=O

> <score_type>
oracle

> <origin>
adg

> <m_score__min__energy>
-14.01

> <m_primary>
energy

> <minimizedAffinity>
-8.67035

> <minimizedRMSD>
1.32766

> <CNNscore>
0.7073954940

> <CNNaffinity>
6.5564932823

> <CNN_VS>
4.6380338669

> <CNNaffinity_variance>
0.3608106077

$$$$
32:0


 32 35  0  0  0  0  0  0  0  0999 V2000
   60.4439   26.2990   46.5670 C   0  0  0  0  0  0  0  0  0  0  0  0
   59.3833   26.9134   46.0189 C   0  0  0  0  0  0  0  0  0  0  0  0
   58.0777   26.4082   45.8983 C   0  0  0  0  0  0  0  0  0  0  0  0
   57.5746   25.1787   46.1292 C   0  0  0  0  0  0  0  0  0  0  0  0
   57.2981   27.4605   45.4496 C   0  0  0  0  0  0  0  0  0  0  0  0
   58.1375   28.5405   45.2780 C   0  0  0  0  0  0  0  0  0  0  0  0
   59.4106   28.2032   45.5928 N   0  0  0  0  0  0  0  0  0  0  0  0
   60.5974   29.0604   45.4855 C   0  0  0  0  0  0  0  0  0  0  0  0
   56.7217   24.4122   45.2116 C   0  0  0  0  0  0  0  0  0  0  0  0
   57.1861   23.4344   44.4130 N   0  0  0  0  0  0  0  0  0  0  0  0
   56.0682   22.9478   43.8322 C   0  0  0  0  0  0  0  0  0  0  0  0
   56.0939   22.0120   42.9898 O   0  0  0  0  0  0  0  0  0  0  0  0
   54.9199   23.5366   44.2288 N   0  0  0  0  0  0  0  0  0  0  0  0
   55.3448   24.4514   45.1150 C   0  0  0  0  0  0  0  0  0  0  0  0
   54.4856   25.2805   45.8330 O   0  0  0  0  0  0  0  0  0  0  0  0
   53.5604   25.2298   45.6936 H   0  0  0  0  0  0  0  0  0  0  0  0
   57.6847   29.8645   44.8040 C   0  0  0  0  0  0  0  0  0  0  0  0
   56.8984   29.9164   43.8215 O   0  0  0  0  0  0  0  0  0  0  0  0
   58.0988   31.0828   45.4530 N   0  0  0  0  0  0  0  0  0  0  0  0
   58.1188   32.3247   44.6671 C   0  0  0  0  0  0  0  0  0  0  0  0
   58.6380   33.4992   45.4972 C   0  0  0  0  0  0  0  0  0  0  0  0
   59.7674   33.0316   46.3156 N   0  0  0  0  0  0  0  0  0  0  0  0
   59.3479   32.0863   47.3733 C   0  0  0  0  0  0  0  0  0  0  0  0
   58.2071   31.1481   46.9193 C   0  0  0  0  0  0  0  0  0  0  0  0
   60.6305   34.1226   46.8222 C   0  0  0  0  0  0  0  0  0  0  0  0
   62.1381   33.7879   46.8355 C   0  0  0  0  0  0  0  0  0  0  0  0
   62.5783   33.4222   48.2234 C   0  0  0  0  0  0  0  0  0  0  0  0
   63.3305   32.2619   48.4557 C   0  0  0  0  0  0  0  0  0  0  0  0
   63.6952   31.9305   49.7624 C   0  0  0  0  0  0  0  0  0  0  0  0
   63.3025   32.7500   50.8215 C   0  0  0  0  0  0  0  0  0  0  0  0
   62.5439   33.8929   50.5550 C   0  0  0  0  0  0  0  0  0  0  0  0
   62.1991   34.1988   49.2756 N   0  0  0  0  0  0  0  0  0  0  0  0
  1  2  2  0
  2  3  1  0
  3  4  2  0
  4  9  1  0
  9 10  1  0
 10 11  1  0
 11 12  2  0
 11 13  1  0
 13 14  1  0
 14 15  1  0
  3  5  1  0
  5  6  2  0
  6 17  1  0
 17 18  2  0
 17 19  1  0
 19 20  1  0
 20 21  1  0
 21 22  1  0
 22 25  1  0
 25 26  1  0
 26 27  1  0
 27 28  2  0
 28 29  1  0
 29 30  2  0
 30 31  1  0
 31 32  2  0
 22 23  1  0
 23 24  1  0
  6  7  1  0
  7  8  1  0
  7  2  1  0
 14  9  2  0
 24 19  1  0
 32 27  1  0
 15 16  1  0
M  CHG 1  10  -1
M  CHG 1  13  -1
M  END
> <UniqueID>
30

> <SMILES>
C=c1c(=Cc2[n-]c(=O)[n-]c2O)cc(C(=O)N2CCN(CCc3ccccn3)CC2)n1C

> <Energy>
139.59647769407277

> <Genealogy>
C=c1c(=Cc2[n-]c(=O)[n-]c2O)cc(C(=O)N2CCN(CCc3ccccn3)CC2)n1C (protonated)
C=c1c(=Cc2[n-]c(=O)[n-]c2O)cc(C(=O)N2CCN(CCc3ccccn3)CC2)n1C (3D coordinates assigned)
C=c1c(=Cc2[n-]c(=O)[n-]c2O)cc(C(=O)N2CCN(CCc3ccccn3)CC2)n1C (nonaromatic ring conformer: 139.59647769407277 kcal/mol)

> <smiles>
C=c1c(=Cc2[nH]c(=O)[nH]c2O)cc(C(=O)N2CCN(CCc3ccccn3)CC2)n1C

> <score_type>
oracle

> <origin>
adg

> <m_score__min__energy>
-14.44

> <m_primary>
energy

> <minimizedAffinity>
-9.14359

> <minimizedRMSD>
0.62822

> <CNNscore>
0.2192043662

> <CNNaffinity>
6.6568584442

> <CNN_VS>
1.4592124224

> <CNNaffinity_variance>
0.1316215992

$$$$
44:0


 32 35  0  0  0  0  0  0  0  0999 V2000
   56.9087   29.2667   43.4585 C   0  0  0  0  0  0  0  0  0  0  0  0
   57.4228   29.0333   44.6788 C   0  0  0  0  0  0  0  0  0  0  0  0
   57.8922   27.8010   45.1477 C   0  0  0  0  0  0  0  0  0  0  0  0
   57.9328   26.6309   44.4798 C   0  0  0  0  0  0  0  0  0  0  0  0
   58.3831   28.0336   46.4219 C   0  0  0  0  0  0  0  0  0  0  0  0
   58.1990   29.3777   46.6864 C   0  0  0  0  0  0  0  0  0  0  0  0
   57.5825   29.9828   45.6403 N   0  0  0  0  0  0  0  0  0  0  0  0
   57.6109   25.3234   45.0822 C   0  0  0  0  0  0  0  0  0  0  0  0
   58.4055   24.2375   45.0770 N   0  0  0  0  0  0  0  0  0  0  0  0
   57.7445   23.3306   45.8236 C   0  0  0  0  0  0  0  0  0  0  0  0
   58.1876   22.1738   46.0482 O   0  0  0  0  0  0  0  0  0  0  0  0
   56.5728   23.7760   46.3239 N   0  0  0  0  0  0  0  0  0  0  0  0
   56.5095   25.0372   45.8572 C   0  0  0  0  0  0  0  0  0  0  0  0
   55.4665   25.9119   46.1357 O   0  0  0  0  0  0  0  0  0  0  0  0
   59.2752   24.1296   44.6283 H   0  0  0  0  0  0  0  0  0  0  0  0
   58.6535   30.0526   47.9575 C   0  0  0  0  0  0  0  0  0  0  0  0
   59.9523   30.7726   47.7412 C   0  0  0  0  0  0  0  0  0  0  0  0
   60.4525   31.8054   48.4092 C   0  0  0  0  0  0  0  0  0  0  0  0
   59.8786   32.5540   49.4427 C   0  0  0  0  0  0  0  0  0  0  0  0
   60.6286   33.6039   49.9995 C   0  0  0  0  0  0  0  0  0  0  0  0
   61.9251   33.8868   49.5231 C   0  0  0  0  0  0  0  0  0  0  0  0
   62.4869   33.1215   48.4873 C   0  0  0  0  0  0  0  0  0  0  0  0
   61.7331   32.0820   47.9453 C   0  0  0  0  0  0  0  0  0  0  0  0
   62.1355   31.2837   47.0064 N   0  0  0  0  0  0  0  0  0  0  0  0
   61.0285   30.4062   46.8325 C   0  0  0  0  0  0  0  0  0  0  0  0
   61.0093   29.4529   46.0100 O   0  0  0  0  0  0  0  0  0  0  0  0
   57.2163   31.4058   45.5592 C   0  0  0  0  0  0  0  0  0  0  0  0
   58.2006   32.1503   44.7149 C   0  0  0  0  0  0  0  0  0  0  0  0
   58.2360   31.9479   43.4707 O   0  0  0  0  0  0  0  0  0  0  0  0
   59.0921   33.0441   45.3213 O   0  0  0  0  0  0  0  0  0  0  0  0
   58.6826   34.0644   46.2297 C   0  0  0  0  0  0  0  0  0  0  0  0
   59.8468   34.9934   46.5523 C   0  0  0  0  0  0  0  0  0  0  0  0
  1  2  2  0
  2  3  1  0
  3  4  2  0
  4  8  1  0
  8  9  1  0
  9 10  1  0
 10 11  2  0
 10 12  1  0
 12 13  1  0
 13 14  1  0
  3  5  1  0
  5  6  2  0
  6 16  1  0
 16 17  1  0
 17 18  2  0
 18 19  1  0
 19 20  2  0
 20 21  1  0
 21 22  2  0
 22 23  1  0
 23 24  2  0
 24 25  1  0
 25 26  2  0
  6  7  1  0
  7 27  1  0
 27 28  1  0
 28 29  2  0
 28 30  1  0
 30 31  1  0
 31 32  1  0
  7  2  1  0
 13  8  2  0
 25 17  1  0
 23 18  1  0
  9 15  1  0
M  CHG 1  12  -1
M  CHG 1  14  -1
M  END
> <UniqueID>
40

> <SMILES>
C=c1c(=Cc2[nH]c(=O)[n-]c2[O-])cc(CC2=c3ccccc3=NC2=O)n1CC(=O)OCC

> <Energy>
144.0136257380924

> <Genealogy>
C=c1c(=Cc2[nH]c(=O)[n-]c2[O-])cc(CC2=c3ccccc3=NC2=O)n1CC(=O)OCC (protonated)
C=c1c(=Cc2[nH]c(=O)[n-]c2[O-])cc(CC2=c3ccccc3=NC2=O)n1CC(=O)OCC (3D coordinates assigned)
C=c1c(=Cc2[nH]c(=O)[n-]c2[O-])cc(CC2=c3ccccc3=NC2=O)n1CC(=O)OCC (nonaromatic ring conformer: 144.0136257380924 kcal/mol)

> <smiles>
C=c1c(=Cc2[nH]c(=O)[nH]c2O)cc(CC2=c3ccccc3=NC2=O)n1CC(=O)OCC

> <score_type>
oracle

> <origin>
adg

> <m_score__min__energy>
-14.65

> <m_primary>
energy

> <minimizedAffinity>
-6.18807

> <minimizedRMSD>
1.01974

> <CNNscore>
0.1441655606

> <CNNaffinity>
6.3894915581

> <CNN_VS>
0.9211446047

> <CNNaffinity_variance>
0.0607356429

$$$$
57:0


 28 30  0  0  0  0  0  0  0  0999 V2000
   57.3162   31.1567   52.3284 C   0  0  0  0  0  0  0  0  0  0  0  0
   57.8520   29.9243   52.6992 C   0  0  0  0  0  0  0  0  0  0  0  0
   57.0237   28.9114   53.1718 C   0  0  0  0  0  0  0  0  0  0  0  0
   55.6311   29.0963   53.2807 C   0  0  0  0  0  0  0  0  0  0  0  0
   54.9187   28.0834   53.8140 C   0  0  0  0  0  0  0  0  0  0  0  0
   55.0571   30.3445   52.8603 C   0  0  0  0  0  0  0  0  0  0  0  0
   53.7137   30.5627   52.8578 C   0  0  0  0  0  0  0  0  0  0  0  0
   55.9317   31.3482   52.3754 C   0  0  0  0  0  0  0  0  0  0  0  0
   60.2369   31.0568   48.9199 N   0  0  0  0  0  0  0  0  0  0  0  0
   60.9228   32.2888   49.1316 C   0  0  0  0  0  0  0  0  0  0  0  0
   61.7735   32.7312   48.3155 O   0  0  0  0  0  0  0  0  0  0  0  0
   60.4629   33.1963   50.6108 S   0  0  0  0  0  0  0  0  0  0  0  0
   59.1179   32.0224   50.8304 C   0  0  0  0  0  0  0  0  0  0  0  0
   58.1778   32.2183   51.7670 C   0  0  0  0  0  0  0  0  0  0  0  0
   59.2104   30.8994   49.8887 C   0  0  0  0  0  0  0  0  0  0  0  0
   58.4924   29.8648   49.9445 O   0  0  0  0  0  0  0  0  0  0  0  0
   60.3912   30.2143   47.7364 C   0  0  0  0  0  0  0  0  0  0  0  0
   58.3009   29.3593   46.5966 N   0  0  0  0  0  0  0  0  0  0  0  0
   59.2334   30.4156   46.8103 C   0  0  0  0  0  0  0  0  0  0  0  0
   59.0580   31.5316   46.2526 O   0  0  0  0  0  0  0  0  0  0  0  0
   57.5388   29.4911   45.9874 H   0  0  0  0  0  0  0  0  0  0  0  0
   52.8639   30.6455   51.6527 C   0  0  0  0  0  0  0  0  0  0  0  0
   52.9255   29.7628   50.6408 N   0  0  0  0  0  0  0  0  0  0  0  0
   51.9219   30.1495   49.8242 C   0  0  0  0  0  0  0  0  0  0  0  0
   51.6645   29.5622   48.7410 O   0  0  0  0  0  0  0  0  0  0  0  0
   51.2084   31.2066   50.2649 N   0  0  0  0  0  0  0  0  0  0  0  0
   51.8068   31.5020   51.4301 C   0  0  0  0  0  0  0  0  0  0  0  0
   51.3740   32.5055   52.2869 O   0  0  0  0  0  0  0  0  0  0  0  0
 18 19  1  0
 19 20  2  0
 19 17  1  0
 17  9  1  0
  9 10  1  0
 10 11  2  0
 10 12  1  0
 12 13  1  0
 13 14  2  0
 14  1  1  0
  1  2  1  0
  2  3  2  0
  3  4  1  0
  4  5  2  0
  4  6  1  0
  6  7  2  0
  7 22  1  0
 22 23  1  0
 23 24  1  0
 24 25  2  0
 24 26  1  0
 26 27  1  0
 27 28  1  0
  6  8  1  0
 13 15  1  0
 15 16  2  0
 15  9  1  0
  8  1  2  0
 27 22  2  0
 18 21  1  0
M  CHG 1  18  -1
M  CHG 1  23  -1
M  CHG 1  26  -1
M  CHG 1  28  -1
M  END
> <UniqueID>
52

> <SMILES>
C=c1ccc(C=C2SC(=O)N(CC([NH-])=O)C2=O)c/c1=C\c1[n-]c(=O)[n-]c1[O-]

> <Energy>
109.78555286108475

> <Genealogy>
C=c1ccc(C=C2SC(=O)N(CC([NH-])=O)C2=O)cc1=Cc1[n-]c(=O)[n-]c1[O-] (protonated)
C=c1ccc(C=C2SC(=O)N(CC([NH-])=O)C2=O)c/c1=C\c1[n-]c(=O)[n-]c1[O-] (cis-trans isomerization)
C=c1ccc(C=C2SC(=O)N(CC([NH-])=O)C2=O)c/c1=C\c1[n-]c(=O)[n-]c1[O-] (3D coordinates assigned)
C=c1ccc(C=C2SC(=O)N(CC([NH-])=O)C2=O)c/c1=C\c1[n-]c(=O)[n-]c1[O-] (nonaromatic ring conformer: 109.78555286108475 kcal/mol)

> <smiles>
C=c1ccc(C=C2SC(=O)N(CC(N)=O)C2=O)cc1=Cc1[nH]c(=O)[nH]c1O

> <score_type>
oracle

> <origin>
adg

> <m_score__min__energy>
-17.550000000000001

> <m_primary>
energy

> <minimizedAffinity>
-6.41404

> <minimizedRMSD>
0.99907

> <CNNscore>
0.1465537548

> <CNNaffinity>
5.5666079521

> <CNN_VS>
0.8158072829

> <CNNaffinity_variance>
0.0442924239

$$$$
71:0


 26 28  0  0  0  0  0  0  0  0999 V2000
   53.4782   29.1758   53.3497 C   0  0  0  0  0  0  0  0  0  0  0  0
   54.8147   29.2287   53.2871 C   0  0  0  0  0  0  0  0  0  0  0  0
   55.6494   28.3393   53.8672 N   0  0  0  0  0  0  0  0  0  0  0  0
   56.8895   28.8009   53.5771 C   0  0  0  0  0  0  0  0  0  0  0  0
   57.9927   28.1468   53.9437 C   0  0  0  0  0  0  0  0  0  0  0  0
   56.8707   29.9475   52.8484 N   0  0  0  0  0  0  0  0  0  0  0  0
   55.5633   30.2075   52.6709 C   0  0  0  0  0  0  0  0  0  0  0  0
   55.1122   31.2106   52.0519 O   0  0  0  0  0  0  0  0  0  0  0  0
   52.9828   29.7583   50.2948 O   0  0  0  0  0  0  0  0  0  0  0  0
   52.3819   30.4013   51.3742 C   0  0  0  0  0  0  0  0  0  0  0  0
   52.6014   30.1819   52.7267 C   0  0  0  0  0  0  0  0  0  0  0  0
   51.9042   31.0932   53.4465 N   0  0  0  0  0  0  0  0  0  0  0  0
   51.2573   31.8177   52.5080 C   0  0  0  0  0  0  0  0  0  0  0  0
   50.4947   32.7809   52.7840 O   0  0  0  0  0  0  0  0  0  0  0  0
   51.5174   31.4148   51.2546 N   0  0  0  0  0  0  0  0  0  0  0  0
   51.0683   31.9871   50.0868 O   0  0  0  0  0  0  0  0  0  0  0  0
   53.5814   29.0530   50.4437 H   0  0  0  0  0  0  0  0  0  0  0  0
   57.9752   30.7451   52.3818 C   0  0  0  0  0  0  0  0  0  0  0  0
   58.5779   30.4711   51.1466 C   0  0  0  0  0  0  0  0  0  0  0  0
   59.6600   31.2352   50.7032 C   0  0  0  0  0  0  0  0  0  0  0  0
   60.1689   32.2864   51.4906 C   0  0  0  0  0  0  0  0  0  0  0  0
   59.5653   32.5461   52.7374 C   0  0  0  0  0  0  0  0  0  0  0  0
   58.4836   31.7808   53.1780 C   0  0  0  0  0  0  0  0  0  0  0  0
   61.3214   33.0912   51.0054 C   0  0  0  0  0  0  0  0  0  0  0  0
   62.2952   33.3172   51.7764 O   0  0  0  0  0  0  0  0  0  0  0  0
   61.3685   33.6509   49.6159 C   0  0  0  0  0  0  0  0  0  0  0  0
  9 10  1  0
 10 11  2  0
 11  1  1  0
  1  2  2  0
  2  3  1  0
  3  4  1  0
  4  5  2  0
  4  6  1  0
  6 18  1  0
 18 19  2  0
 19 20  1  0
 20 21  2  0
 21 24  1  0
 24 25  2  0
 24 26  1  0
 21 22  1  0
 22 23  2  0
  6  7  1  0
  7  8  2  0
 11 12  1  0
 12 13  1  0
 13 14  2  0
 13 15  1  0
 15 16  1  0
 15 10  1  0
  7  2  1  0
 23 18  1  0
  9 17  1  0
M  CHG 1   3  -1
M  CHG 1  12  -1
M  CHG 1  16  -1
M  END
> <UniqueID>
65

> <SMILES>
C=c1[n-]/c(=C\c2[n-]c(=O)n([O-])c2O)c(=O)n1-c1ccc(C(C)=O)cc1

> <Energy>
116.59493625906578

> <Genealogy>
C=c1[n-]c(=Cc2[n-]c(=O)n([O-])c2O)c(=O)n1-c1ccc(C(C)=O)cc1 (protonated)
C=c1[n-]/c(=C\c2[n-]c(=O)n([O-])c2O)c(=O)n1-c1ccc(C(C)=O)cc1 (cis-trans isomerization)
C=c1[n-]/c(=C\c2[n-]c(=O)n([O-])c2O)c(=O)n1-c1ccc(C(C)=O)cc1 (3D coordinates assigned)
C=c1[n-]/c(=C\c2[n-]c(=O)n([O-])c2O)c(=O)n1-c1ccc(C(C)=O)cc1 (optimized conformer: 116.59493625906578 kcal/mol)

> <smiles>
C=c1[nH]c(=Cc2[nH]c(=O)n(O)c2O)c(=O)n1-c1ccc(C(C)=O)cc1

> <score_type>
oracle

> <origin>
adg

> <m_score__min__energy>
-15.279999999999999

> <m_primary>
energy

> <minimizedAffinity>
-6.14890

> <minimizedRMSD>
0.84235

> <CNNscore>
0.1965094954

> <CNNaffinity>
4.9643464088

> <CNN_VS>
0.9755412340

> <CNNaffinity_variance>
0.0902910605

$$$$
79:0


 36 39  0  0  0  0  0  0  0  0999 V2000
   60.1889   30.2472   47.0512 C   0  0  0  0  0  0  0  0  0  0  0  0
   59.7329   29.0545   46.6376 C   0  0  0  0  0  0  0  0  0  0  0  0
   59.2608   28.8194   45.3858 N   0  0  0  0  0  0  0  0  0  0  0  0
   58.8978   27.5250   45.3931 C   0  0  0  0  0  0  0  0  0  0  0  0
   58.3876   26.9302   44.4053 O   0  0  0  0  0  0  0  0  0  0  0  0
   59.1321   26.9747   46.6366 C   0  0  0  0  0  0  0  0  0  0  0  0
   58.8084   25.7080   46.9650 C   0  0  0  0  0  0  0  0  0  0  0  0
   59.7003   27.9357   47.4237 N   0  0  0  0  0  0  0  0  0  0  0  0
   57.6485   24.9637   46.4533 C   0  0  0  0  0  0  0  0  0  0  0  0
   57.6449   23.6460   46.1753 N   0  0  0  0  0  0  0  0  0  0  0  0
   56.3558   23.4040   45.8490 C   0  0  0  0  0  0  0  0  0  0  0  0
   55.9481   22.2633   45.5063 O   0  0  0  0  0  0  0  0  0  0  0  0
   55.5379   24.4782   45.9268 N   0  0  0  0  0  0  0  0  0  0  0  0
   56.3699   25.4538   46.3236 C   0  0  0  0  0  0  0  0  0  0  0  0
   55.9699   26.7639   46.5616 O   0  0  0  0  0  0  0  0  0  0  0  0
   59.0527   29.7636   44.2813 C   0  0  0  0  0  0  0  0  0  0  0  0
   57.8271   30.5874   44.5507 C   0  0  0  0  0  0  0  0  0  0  0  0
   56.9050   30.0878   45.2495 O   0  0  0  0  0  0  0  0  0  0  0  0
   57.7262   31.9565   44.1200 N   0  0  0  0  0  0  0  0  0  0  0  0
   57.9215   32.2944   42.7061 C   0  0  0  0  0  0  0  0  0  0  0  0
   57.3041   32.9809   45.0825 C   0  0  0  0  0  0  0  0  0  0  0  0
   58.4165   33.2574   46.0580 C   0  0  0  0  0  0  0  0  0  0  0  0
   59.6379   33.7877   45.6110 C   0  0  0  0  0  0  0  0  0  0  0  0
   60.6537   34.0877   46.5262 C   0  0  0  0  0  0  0  0  0  0  0  0
   60.4524   33.8738   47.8911 C   0  0  0  0  0  0  0  0  0  0  0  0
   59.2346   33.3605   48.3450 C   0  0  0  0  0  0  0  0  0  0  0  0
   58.2169   33.0579   47.4333 C   0  0  0  0  0  0  0  0  0  0  0  0
   60.5039   27.7507   48.6522 C   0  0  0  0  0  0  0  0  0  0  0  0
   60.2614   28.8857   49.6165 C   0  0  0  0  0  0  0  0  0  0  0  0
   61.3479   29.6061   50.1364 C   0  0  0  0  0  0  0  0  0  0  0  0
   61.1331   30.6675   51.0208 C   0  0  0  0  0  0  0  0  0  0  0  0
   59.8332   31.0133   51.3984 C   0  0  0  0  0  0  0  0  0  0  0  0
   58.7434   30.2940   50.8995 C   0  0  0  0  0  0  0  0  0  0  0  0
   57.4530   30.6444   51.2893 O   0  0  0  0  0  0  0  0  0  0  0  0
   58.9577   29.2287   50.0101 C   0  0  0  0  0  0  0  0  0  0  0  0
   57.3202   31.3568   51.8833 H   0  0  0  0  0  0  0  0  0  0  0  0
  1  2  2  0
  2  3  1  0
  3 16  1  0
 16 17  1  0
 17 18  2  0
 17 19  1  0
 19 20  1  0
 19 21  1  0
 21 22  1  0
 22 23  2  0
 23 24  1  0
 24 25  2  0
 25 26  1  0
 26 27  2  0
  3  4  1  0
  4  5  2  0
  4  6  1  0
  6  7  2  0
  7  9  1  0
  9 10  1  0
 10 11  1  0
 11 12  2  0
 11 13  1  0
 13 14  1  0
 14 15  1  0
  6  8  1  0
  8 28  1  0
 28 29  1  0
 29 30  2  0
 30 31  1  0
 31 32  2  0
 32 33  1  0
 33 34  1  0
 33 35  2  0
  8  2  1  0
 35 29  1  0
 27 22  1  0
 14  9  2  0
 34 36  1  0
M  CHG 1  10  -1
M  CHG 1  13  -1
M  CHG 1  15  -1
M  END
> <UniqueID>
72

> <SMILES>
C=c1n(CC(=O)N(C)Cc2ccccc2)c(=O)c(=Cc2[n-]c(=O)[n-]c2[O-])n1Cc1cccc(O)c1

> <Energy>
133.34767321574907

> <Genealogy>
C=c1n(CC(=O)N(C)Cc2ccccc2)c(=O)c(=Cc2[n-]c(=O)[n-]c2[O-])n1Cc1cccc(O)c1 (protonated)
C=c1n(CC(=O)N(C)Cc2ccccc2)c(=O)c(=Cc2[n-]c(=O)[n-]c2[O-])n1Cc1cccc(O)c1 (3D coordinates assigned)
C=c1n(CC(=O)N(C)Cc2ccccc2)c(=O)c(=Cc2[n-]c(=O)[n-]c2[O-])n1Cc1cccc(O)c1 (optimized conformer: 133.34767321574907 kcal/mol)

> <smiles>
C=c1n(CC(=O)N(C)Cc2ccccc2)c(=O)c(=Cc2[nH]c(=O)[nH]c2O)n1Cc1cccc(O)c1

> <score_type>
oracle

> <origin>
adg

> <m_score__min__energy>
-16.23

> <m_primary>
energy

> <minimizedAffinity>
-7.38252

> <minimizedRMSD>
0.90739

> <CNNscore>
0.1264066398

> <CNNaffinity>
6.3633785248

> <CNN_VS>
0.8043733239

> <CNNaffinity_variance>
0.3014317453

$$$$
89:0


 27 29  0  0  0  0  0  0  0  0999 V2000
   54.5833   27.5681   53.7607 C   0  0  0  0  0  0  0  0  0  0  0  0
   55.0518   28.7959   53.4884 C   0  0  0  0  0  0  0  0  0  0  0  0
   54.3364   29.8625   52.9217 C   0  0  0  0  0  0  0  0  0  0  0  0
   53.0153   30.0340   52.7197 C   0  0  0  0  0  0  0  0  0  0  0  0
   55.2771   30.8122   52.5663 C   0  0  0  0  0  0  0  0  0  0  0  0
   56.5036   30.3425   52.9893 C   0  0  0  0  0  0  0  0  0  0  0  0
   56.3683   29.1256   53.5678 N   0  0  0  0  0  0  0  0  0  0  0  0
   57.4584   28.2599   54.0354 C   0  0  0  0  0  0  0  0  0  0  0  0
   52.3838   30.3916   51.4393 C   0  0  0  0  0  0  0  0  0  0  0  0
   52.3106   29.5828   50.3663 N   0  0  0  0  0  0  0  0  0  0  0  0
   51.5361   30.2772   49.5038 C   0  0  0  0  0  0  0  0  0  0  0  0
   51.2450   29.8479   48.3575 O   0  0  0  0  0  0  0  0  0  0  0  0
   51.0907   31.4629   49.9712 N   0  0  0  0  0  0  0  0  0  0  0  0
   51.6251   31.5119   51.2025 C   0  0  0  0  0  0  0  0  0  0  0  0
   51.4181   32.5571   52.0932 O   0  0  0  0  0  0  0  0  0  0  0  0
   57.8052   31.0544   52.7374 C   0  0  0  0  0  0  0  0  0  0  0  0
   58.2102   30.9047   51.3031 C   0  0  0  0  0  0  0  0  0  0  0  0
   58.1040   29.7798   50.7441 O   0  0  0  0  0  0  0  0  0  0  0  0
   58.6478   32.0541   50.5607 N   0  0  0  0  0  0  0  0  0  0  0  0
   58.5815   32.9358   50.9937 H   0  0  0  0  0  0  0  0  0  0  0  0
   59.1767   31.9974   49.2248 C   0  0  0  0  0  0  0  0  0  0  0  0
   60.3734   31.3144   48.9354 C   0  0  0  0  0  0  0  0  0  0  0  0
   60.8763   31.2956   47.6324 C   0  0  0  0  0  0  0  0  0  0  0  0
   60.2022   31.9667   46.6094 C   0  0  0  0  0  0  0  0  0  0  0  0
   59.0253   32.6657   46.8898 C   0  0  0  0  0  0  0  0  0  0  0  0
   58.1094   33.5956   45.4946 Br  0  0  0  0  0  0  0  0  0  0  0  0
   58.5186   32.6884   48.1945 C   0  0  0  0  0  0  0  0  0  0  0  0
  1  2  2  0
  2  3  1  0
  3  4  2  0
  4  9  1  0
  9 10  1  0
 10 11  1  0
 11 12  2  0
 11 13  1  0
 13 14  1  0
 14 15  1  0
  3  5  1  0
  5  6  2  0
  6 16  1  0
 16 17  1  0
 17 18  2  0
 17 19  1  0
 19 21  1  0
 21 22  2  0
 22 23  1  0
 23 24  2  0
 24 25  1  0
 25 26  1  0
 25 27  2  0
  6  7  1  0
  7  8  1  0
  7  2  1  0
 14  9  2  0
 27 21  1  0
 19 20  1  0
M  CHG 1  10  -1
M  CHG 1  13  -1
M  CHG 1  15  -1
M  END
> <UniqueID>
81

> <SMILES>
C=c1/c(=C\c2[n-]c(=O)[n-]c2[O-])cc(CC(=O)Nc2cccc(Br)c2)n1C

> <Energy>
112.24147939720703

> <Genealogy>
C=c1c(=Cc2[n-]c(=O)[n-]c2[O-])cc(CC(=O)Nc2cccc(Br)c2)n1C (protonated)
C=c1/c(=C\c2[n-]c(=O)[n-]c2[O-])cc(CC(=O)Nc2cccc(Br)c2)n1C (cis-trans isomerization)
C=c1/c(=C\c2[n-]c(=O)[n-]c2[O-])cc(CC(=O)Nc2cccc(Br)c2)n1C (3D coordinates assigned)
C=c1/c(=C\c2[n-]c(=O)[n-]c2[O-])cc(CC(=O)Nc2cccc(Br)c2)n1C (optimized conformer: 112.24147939720703 kcal/mol)

> <smiles>
C=c1c(=Cc2[nH]c(=O)[nH]c2O)cc(CC(=O)Nc2cccc(Br)c2)n1C

> <score_type>
oracle

> <origin>
adg

> <m_score__min__energy>
-18.09

> <m_primary>
energy

> <minimizedAffinity>
-6.11254

> <minimizedRMSD>
0.85908

> <CNNscore>
0.2920024991

> <CNNaffinity>
6.0365071297

> <CNN_VS>
1.7626751661

> <CNNaffinity_variance>
0.0856322423

$$$$
2:0


 31 33  0  0  0  0  0  0  0  0999 V2000
   58.7167   26.7069   47.6470 C   0  0  0  0  0  0  0  0  0  0  0  0
   58.4904   27.4658   46.5627 C   0  0  0  0  0  0  0  0  0  0  0  0
   58.1301   27.0159   45.2835 C   0  0  0  0  0  0  0  0  0  0  0  0
   57.7499   25.7992   44.8425 C   0  0  0  0  0  0  0  0  0  0  0  0
   58.1860   28.1205   44.4540 C   0  0  0  0  0  0  0  0  0  0  0  0
   58.5143   29.2018   45.2429 C   0  0  0  0  0  0  0  0  0  0  0  0
   58.6963   28.8130   46.5302 N   0  0  0  0  0  0  0  0  0  0  0  0
   57.0739   24.7678   45.6460 C   0  0  0  0  0  0  0  0  0  0  0  0
   57.6770   23.6666   46.1328 N   0  0  0  0  0  0  0  0  0  0  0  0
   56.7242   23.1054   46.9076 C   0  0  0  0  0  0  0  0  0  0  0  0
   56.9066   22.0293   47.5332 O   0  0  0  0  0  0  0  0  0  0  0  0
   55.5643   23.7935   46.9663 N   0  0  0  0  0  0  0  0  0  0  0  0
   55.8061   24.8510   46.1744 C   0  0  0  0  0  0  0  0  0  0  0  0
   54.8789   25.8647   45.9446 O   0  0  0  0  0  0  0  0  0  0  0  0
   54.0365   25.8306   46.3535 H   0  0  0  0  0  0  0  0  0  0  0  0
   58.5223   30.6212   44.7433 C   0  0  0  0  0  0  0  0  0  0  0  0
   57.3348   30.8748   43.8204 C   0  0  0  0  0  0  0  0  0  0  0  0
   59.0968   29.6753   47.6563 C   0  0  0  0  0  0  0  0  0  0  0  0
   60.6215   29.8871   47.6971 C   0  0  0  0  0  0  0  0  0  0  0  0
   61.1362   30.3788   49.0550 C   0  0  0  0  0  0  0  0  0  0  0  0
   62.1609   31.4119   48.8806 N   0  0  0  0  0  0  0  0  0  0  0  0
   61.5161   33.0044   49.1593 S   0  0  0  0  0  0  0  0  0  0  0  0
   62.6328   34.0062   49.0803 O   0  0  0  0  0  0  0  0  0  0  0  0
   60.9138   33.0728   50.5358 O   0  0  0  0  0  0  0  0  0  0  0  0
   60.3021   33.3995   47.9466 C   0  0  0  0  0  0  0  0  0  0  0  0
   58.9485   33.1172   48.1756 C   0  0  0  0  0  0  0  0  0  0  0  0
   57.9952   33.4021   47.1935 C   0  0  0  0  0  0  0  0  0  0  0  0
   58.3837   33.9807   45.9756 C   0  0  0  0  0  0  0  0  0  0  0  0
   57.3675   34.2456   44.9050 C   0  0  0  0  0  0  0  0  0  0  0  0
   59.7437   34.2415   45.7395 C   0  0  0  0  0  0  0  0  0  0  0  0
   60.6953   33.9571   46.7233 C   0  0  0  0  0  0  0  0  0  0  0  0
  1  2  2  0
  2  3  1  0
  3  4  2  0
  4  8  1  0
  8  9  1  0
  9 10  1  0
 10 11  2  0
 10 12  1  0
 12 13  1  0
 13 14  1  0
  3  5  1  0
  5  6  2  0
  6 16  1  0
 16 17  1  0
  6  7  1  0
  7 18  1  0
 18 19  1  0
 19 20  1  0
 20 21  1  0
 21 22  1  0
 22 23  2  0
 22 24  2  0
 22 25  1  0
 25 26  2  0
 26 27  1  0
 27 28  2  0
 28 29  1  0
 28 30  1  0
 30 31  2  0
  7  2  1  0
 31 25  1  0
 13  8  2  0
 14 15  1  0
M  CHG 1   9  -1
M  CHG 1  12  -1
M  CHG 1  21  -1
M  END
> <UniqueID>
3

> <SMILES>
C=c1c(=Cc2[n-]c(=O)[n-]c2O)cc(CC)n1CCC[N-]S(=O)(=O)c1ccc(C)cc1

> <Energy>
115.17731096861931

> <Genealogy>
C=c1c(=Cc2[n-]c(=O)[n-]c2O)cc(CC)n1CCC[N-]S(=O)(=O)c1ccc(C)cc1 (protonated)
C=c1c(=Cc2[n-]c(=O)[n-]c2O)cc(CC)n1CCC[N-]S(=O)(=O)c1ccc(C)cc1 (3D coordinates assigned)
C=c1c(=Cc2[n-]c(=O)[n-]c2O)cc(CC)n1CCC[N-]S(=O)(=O)c1ccc(C)cc1 (optimized conformer: 115.17731096861931 kcal/mol)

> <smiles>
C=c1c(=Cc2[nH]c(=O)[nH]c2O)cc(CC)n1CCCNS(=O)(=O)c1ccc(C)cc1

> <score_type>
oracle

> <origin>
adg

> <m_score__min__energy>
-14.68

> <m_primary>
energy

> <minimizedAffinity>
-8.55710

> <minimizedRMSD>
0.84761

> <CNNscore>
0.3422466516

> <CNNaffinity>
6.8083634377

> <CNN_VS>
2.3301396370

> <CNNaffinity_variance>
0.0887660757

$$$$
5:0


 29 32  0  0  0  0  0  0  0  0999 V2000
   57.6572   30.8161   44.8564 C   0  0  0  0  0  0  0  0  0  0  0  0
   57.9097   29.6275   45.4138 C   0  0  0  0  0  0  0  0  0  0  0  0
   57.7309   28.4960   44.6764 N   0  0  0  0  0  0  0  0  0  0  0  0
   58.1285   27.3815   45.3269 C   0  0  0  0  0  0  0  0  0  0  0  0
   58.7529   27.7488   46.8369 S   0  0  0  0  0  0  0  0  0  0  0  0
   58.4560   29.4019   46.7029 C   0  0  0  0  0  0  0  0  0  0  0  0
   58.7171   30.2490   47.7160 C   0  0  0  0  0  0  0  0  0  0  0  0
   59.9845   30.9687   47.9357 C   0  0  0  0  0  0  0  0  0  0  0  0
   60.4252   31.8936   46.9815 C   0  0  0  0  0  0  0  0  0  0  0  0
   61.5816   32.5292   47.1354 O   0  0  0  0  0  0  0  0  0  0  0  0
   62.3812   32.3216   48.1762 C   0  0  0  0  0  0  0  0  0  0  0  0
   63.5827   33.0278   48.2764 C   0  0  0  0  0  0  0  0  0  0  0  0
   64.4367   32.8158   49.3619 C   0  0  0  0  0  0  0  0  0  0  0  0
   64.0905   31.9019   50.3676 C   0  0  0  0  0  0  0  0  0  0  0  0
   65.0291   31.6477   51.5115 C   0  0  0  0  0  0  0  0  0  0  0  0
   62.8928   31.1759   50.2645 C   0  0  0  0  0  0  0  0  0  0  0  0
   62.0283   31.3871   49.1750 C   0  0  0  0  0  0  0  0  0  0  0  0
   60.8133   30.6916   49.0371 C   0  0  0  0  0  0  0  0  0  0  0  0
   60.4698   29.8252   49.8874 O   0  0  0  0  0  0  0  0  0  0  0  0
   58.1164   26.0192   44.7117 C   0  0  0  0  0  0  0  0  0  0  0  0
   57.4792   25.0289   45.6561 C   0  0  0  0  0  0  0  0  0  0  0  0
   56.2109   25.2751   46.2120 C   0  0  0  0  0  0  0  0  0  0  0  0
   55.5283   26.4528   45.9311 O   0  0  0  0  0  0  0  0  0  0  0  0
   55.6388   24.3569   47.0342 N   0  0  0  0  0  0  0  0  0  0  0  0
   56.2672   23.1905   47.3263 C   0  0  0  0  0  0  0  0  0  0  0  0
   55.5547   22.1069   48.3153 S   0  0  0  0  0  0  0  0  0  0  0  0
   57.4840   22.9202   46.7886 N   0  0  0  0  0  0  0  0  0  0  0  0
   58.0991   23.8033   45.9609 C   0  0  0  0  0  0  0  0  0  0  0  0
   59.2235   23.5106   45.4752 O   0  0  0  0  0  0  0  0  0  0  0  0
  1  2  2  0
  2  3  1  0
  3  4  2  0
  4 20  1  0
 20 21  1  0
 21 22  2  0
 22 23  1  0
 22 24  1  0
 24 25  1  0
 25 26  2  0
 25 27  1  0
 27 28  1  0
 28 29  2  0
  4  5  1  0
  5  6  1  0
  6  7  2  0
  7  8  1  0
  8  9  2  0
  9 10  1  0
 10 11  1  0
 11 12  2  0
 12 13  1  0
 13 14  2  0
 14 15  1  0
 14 16  1  0
 16 17  2  0
 17 18  1  0
 18 19  2  0
  6  2  1  0
 18  8  1  0
 28 21  1  0
 17 11  1  0
M  CHG 1  23  -1
M  CHG 1  24  -1
M  CHG 1  27  -1
M  END
> <UniqueID>
6

> <SMILES>
C=c1nc(Cc2c([O-])[n-]c(=S)[n-]c2=O)s/c1=C/c1coc2ccc(C)cc2c1=O

> <Energy>
94.51024153196914

> <Genealogy>
C=c1nc(Cc2c([O-])[n-]c(=S)[n-]c2=O)sc1=Cc1coc2ccc(C)cc2c1=O (protonated)
C=c1nc(Cc2c([O-])[n-]c(=S)[n-]c2=O)s/c1=C/c1coc2ccc(C)cc2c1=O (cis-trans isomerization)
C=c1nc(Cc2c([O-])[n-]c(=S)[n-]c2=O)s/c1=C/c1coc2ccc(C)cc2c1=O (3D coordinates assigned)
C=c1nc(Cc2c([O-])[n-]c(=S)[n-]c2=O)s/c1=C/c1coc2ccc(C)cc2c1=O (optimized conformer: 94.51024153196914 kcal/mol)

> <smiles>
C=c1nc(Cc2c(O)[nH]c(=S)[nH]c2=O)sc1=Cc1coc2ccc(C)cc2c1=O

> <score_type>
oracle

> <origin>
adg

> <m_score__min__energy>
-15.85

> <m_primary>
energy

> <minimizedAffinity>
-8.50479

> <minimizedRMSD>
1.06856

> <CNNscore>
0.3401412070

> <CNNaffinity>
7.0971088409

> <CNN_VS>
2.4140191078

> <CNNaffinity_variance>
0.3223797381

$$$$
18:0


 34 38  0  0  0  0  0  0  0  0999 V2000
   58.6563   31.0485   46.2574 C   0  0  0  0  0  0  0  0  0  0  0  0
   58.8404   31.1424   47.6437 C   0  0  0  0  0  0  0  0  0  0  0  0
   59.1882   32.3678   48.2335 C   0  0  0  0  0  0  0  0  0  0  0  0
   59.3729   33.4962   47.4226 C   0  0  0  0  0  0  0  0  0  0  0  0
   59.2027   33.4038   46.0381 C   0  0  0  0  0  0  0  0  0  0  0  0
   58.8376   32.1877   45.4556 C   0  0  0  0  0  0  0  0  0  0  0  0
   58.6281   32.1255   44.1169 F   0  0  0  0  0  0  0  0  0  0  0  0
   59.6877   28.3486   46.8836 C   0  0  0  0  0  0  0  0  0  0  0  0
   58.7579   28.5702   45.9400 C   0  0  0  0  0  0  0  0  0  0  0  0
   58.0525   27.6072   45.2006 C   0  0  0  0  0  0  0  0  0  0  0  0
   58.2292   26.2750   45.0949 C   0  0  0  0  0  0  0  0  0  0  0  0
   57.0574   28.2897   44.5213 C   0  0  0  0  0  0  0  0  0  0  0  0
   57.2259   29.6285   44.8055 C   0  0  0  0  0  0  0  0  0  0  0  0
   56.3630   30.7272   44.2664 C   0  0  0  0  0  0  0  0  0  0  0  0
   58.2524   29.7998   45.6685 N   0  0  0  0  0  0  0  0  0  0  0  0
   57.4953   25.2576   45.8629 C   0  0  0  0  0  0  0  0  0  0  0  0
   58.0629   24.1507   46.3694 N   0  0  0  0  0  0  0  0  0  0  0  0
   57.0615   23.5860   47.0811 C   0  0  0  0  0  0  0  0  0  0  0  0
   57.2011   22.5011   47.7036 O   0  0  0  0  0  0  0  0  0  0  0  0
   55.9027   24.2812   47.0813 N   0  0  0  0  0  0  0  0  0  0  0  0
   56.1996   25.3441   46.3165 C   0  0  0  0  0  0  0  0  0  0  0  0
   55.3128   26.3840   46.0606 O   0  0  0  0  0  0  0  0  0  0  0  0
   59.3393   32.4792   49.6565 N   0  0  0  0  0  0  0  0  0  0  0  0
   58.3773   31.8475   50.5584 C   0  0  0  0  0  0  0  0  0  0  0  0
   59.1055   31.3071   51.7974 C   0  0  0  0  0  0  0  0  0  0  0  0
   60.0124   32.2987   52.4235 N   0  0  0  0  0  0  0  0  0  0  0  0
   60.9450   32.9199   51.4553 C   0  0  0  0  0  0  0  0  0  0  0  0
   60.2412   33.4857   50.2149 C   0  0  0  0  0  0  0  0  0  0  0  0
   60.6724   31.6794   52.0360 H   0  0  0  0  0  0  0  0  0  0  0  0
   59.2910   33.2910   53.2022 C   0  0  0  0  0  0  0  0  0  0  0  0
   58.5542   34.0991   52.6566 O   0  0  0  0  0  0  0  0  0  0  0  0
   59.4997   33.4009   54.6901 C   0  0  0  0  0  0  0  0  0  0  0  0
   59.4525   34.8136   55.2551 C   0  0  0  0  0  0  0  0  0  0  0  0
   60.7875   34.1075   55.0946 C   0  0  0  0  0  0  0  0  0  0  0  0
  8  9  2  0
  9 10  1  0
 10 11  2  0
 11 16  1  0
 16 17  1  0
 17 18  1  0
 18 19  2  0
 18 20  1  0
 20 21  1  0
 21 22  1  0
 10 12  1  0
 12 13  2  0
 13 14  1  0
 13 15  1  0
 15  1  1  0
  1  2  2  0
  2  3  1  0
  3 23  1  0
 23 24  1  0
 24 25  1  0
 25 26  1  0
 26 30  1  0
 30 31  2  0
 30 32  1  0
 32 33  1  0
 33 34  1  0
 26 27  1  0
 27 28  1  0
  3  4  2  0
  4  5  1  0
  5  6  2  0
  6  7  1  0
 15  9  1  0
  6  1  1  0
 21 16  2  0
 28 23  1  0
 34 32  1  0
 26 29  1  0
M  CHG 1  17  -1
M  CHG 1  20  -1
M  CHG 1  22  -1
M  CHG 1  26   1
M  END
> <UniqueID>
19

> <SMILES>
C=c1c(=Cc2[n-]c(=O)[n-]c2[O-])cc(C)n1-c1cc(N2CC[NH+](C(=O)C3CC3)CC2)ccc1F

> <Energy>
408.2103921459396

> <Genealogy>
C=c1c(=Cc2[n-]c(=O)[n-]c2[O-])cc(C)n1-c1cc(N2CC[NH+](C(=O)C3CC3)CC2)ccc1F (protonated)
C=c1c(=Cc2[n-]c(=O)[n-]c2[O-])cc(C)n1-c1cc(N2CC[NH+](C(=O)C3CC3)CC2)ccc1F (3D coordinates assigned)
C=c1c(=Cc2[n-]c(=O)[n-]c2[O-])cc(C)n1-c1cc(N2CC[NH+](C(=O)C3CC3)CC2)ccc1F (nonaromatic ring conformer: 408.2103921459396 kcal/mol)

> <smiles>
C=c1c(=Cc2[nH]c(=O)[nH]c2O)cc(C)n1-c1cc(N2CCN(C(=O)C3CC3)CC2)ccc1F

> <score_type>
oracle

> <origin>
adg

> <m_score__min__energy>
-15.789999999999999

> <m_primary>
energy

> <minimizedAffinity>
-8.01597

> <minimizedRMSD>
0.51188

> <CNNscore>
0.3212626576

> <CNNaffinity>
6.9348282814

> <CNN_VS>
2.2279014587

> <CNNaffinity_variance>
0.2941808999

$$$$
22:0


 25 27  0  0  0  0  0  0  0  0999 V2000
   56.5767   30.0915   43.2446 C   0  0  0  0  0  0  0  0  0  0  0  0
   57.2236   29.7929   44.3751 C   0  0  0  0  0  0  0  0  0  0  0  0
   57.8693   30.6809   45.1763 N   0  0  0  0  0  0  0  0  0  0  0  0
   58.4081   29.9217   46.1551 C   0  0  0  0  0  0  0  0  0  0  0  0
   59.0803   30.3905   47.1117 O   0  0  0  0  0  0  0  0  0  0  0  0
   58.0793   28.5878   45.9507 C   0  0  0  0  0  0  0  0  0  0  0  0
   58.3837   27.5000   46.6812 C   0  0  0  0  0  0  0  0  0  0  0  0
   57.3240   28.5262   44.8340 N   0  0  0  0  0  0  0  0  0  0  0  0
   56.9259   27.7196   44.4339 H   0  0  0  0  0  0  0  0  0  0  0  0
   58.0520   26.1029   46.3416 C   0  0  0  0  0  0  0  0  0  0  0  0
   58.9420   25.1310   46.0682 N   0  0  0  0  0  0  0  0  0  0  0  0
   58.1668   24.0834   45.7146 C   0  0  0  0  0  0  0  0  0  0  0  0
   58.6447   22.9637   45.3934 O   0  0  0  0  0  0  0  0  0  0  0  0
   56.8404   24.3324   45.7241 N   0  0  0  0  0  0  0  0  0  0  0  0
   56.7874   25.6158   46.1116 C   0  0  0  0  0  0  0  0  0  0  0  0
   55.6038   26.3322   46.2488 O   0  0  0  0  0  0  0  0  0  0  0  0
   58.0020   32.1409   45.0426 C   0  0  0  0  0  0  0  0  0  0  0  0
   57.8301   32.8611   46.3917 C   0  0  0  0  0  0  0  0  0  0  0  0
   58.6768   34.1379   46.5323 C   0  0  0  0  0  0  0  0  0  0  0  0
   59.9605   33.9167   47.2929 C   0  0  0  0  0  0  0  0  0  0  0  0
   61.1334   33.5287   46.6189 C   0  0  0  0  0  0  0  0  0  0  0  0
   62.3181   33.3143   47.3298 C   0  0  0  0  0  0  0  0  0  0  0  0
   62.3410   33.4711   48.7176 C   0  0  0  0  0  0  0  0  0  0  0  0
   61.1761   33.8337   49.3981 C   0  0  0  0  0  0  0  0  0  0  0  0
   59.9889   34.0466   48.6923 C   0  0  0  0  0  0  0  0  0  0  0  0
  1  2  2  0
  2  3  1  0
  3 17  1  0
 17 18  1  0
 18 19  1  0
 19 20  1  0
 20 21  2  0
 21 22  1  0
 22 23  2  0
 23 24  1  0
 24 25  2  0
  3  4  1  0
  4  5  2  0
  4  6  1  0
  6  7  2  0
  7 10  1  0
 10 11  1  0
 11 12  1  0
 12 13  2  0
 12 14  1  0
 14 15  1  0
 15 16  1  0
  6  8  1  0
  8  2  1  0
 25 20  1  0
 15 10  2  0
  8  9  1  0
M  CHG 1  11  -1
M  CHG 1  14  -1
M  CHG 1  16  -1
M  END
> <UniqueID>
23

> <SMILES>
C=c1[nH]/c(=C/c2[n-]c(=O)[n-]c2[O-])c(=O)n1CCCc1ccccc1

> <Energy>
107.56897958779757

> <Genealogy>
C=c1[nH]c(=Cc2[n-]c(=O)[n-]c2[O-])c(=O)n1CCCc1ccccc1 (protonated)
C=c1[nH]/c(=C/c2[n-]c(=O)[n-]c2[O-])c(=O)n1CCCc1ccccc1 (cis-trans isomerization)
C=c1[nH]/c(=C/c2[n-]c(=O)[n-]c2[O-])c(=O)n1CCCc1ccccc1 (3D coordinates assigned)
C=c1[nH]/c(=C/c2[n-]c(=O)[n-]c2[O-])c(=O)n1CCCc1ccccc1 (optimized conformer: 107.56897958779757 kcal/mol)

> <smiles>
C=c1[nH]c(=Cc2[nH]c(=O)[nH]c2O)c(=O)n1CCCc1ccccc1

> <score_type>
oracle

> <origin>
adg

> <m_score__min__energy>
-15.699999999999999

> <m_primary>
energy

> <minimizedAffinity>
-8.53723

> <minimizedRMSD>
1.29729

> <CNNscore>
0.7054154277

> <CNNaffinity>
6.6534695625

> <CNN_VS>
4.6934599876

> <CNNaffinity_variance>
0.0181701295

$$$$
34:0


 28 30  0  0  0  0  0  0  0  0999 V2000
   58.6855   28.3697   45.4683 N   0  0  0  0  0  0  0  0  0  0  0  0
   58.6210   28.0343   46.7796 C   0  0  0  0  0  0  0  0  0  0  0  0
   58.2442   26.7145   46.9199 C   0  0  0  0  0  0  0  0  0  0  0  0
   58.1280   26.1889   45.6467 C   0  0  0  0  0  0  0  0  0  0  0  0
   57.8541   24.8891   45.4198 C   0  0  0  0  0  0  0  0  0  0  0  0
   58.3703   27.2504   44.7599 C   0  0  0  0  0  0  0  0  0  0  0  0
   58.1980   27.2420   43.4277 C   0  0  0  0  0  0  0  0  0  0  0  0
   56.9242   24.0598   46.2010 C   0  0  0  0  0  0  0  0  0  0  0  0
   57.2726   22.9556   46.8883 N   0  0  0  0  0  0  0  0  0  0  0  0
   56.1353   22.6215   47.5365 C   0  0  0  0  0  0  0  0  0  0  0  0
   56.0525   21.6123   48.2846 O   0  0  0  0  0  0  0  0  0  0  0  0
   55.0960   23.4589   47.3293 N   0  0  0  0  0  0  0  0  0  0  0  0
   55.6174   24.3704   46.4925 C   0  0  0  0  0  0  0  0  0  0  0  0
   54.9129   25.4664   46.0056 O   0  0  0  0  0  0  0  0  0  0  0  0
   59.0508   29.6883   44.9317 C   0  0  0  0  0  0  0  0  0  0  0  0
   57.7592   31.5876   43.9819 C   0  0  0  0  0  0  0  0  0  0  0  0
   57.8249   30.5500   44.8214 C   0  0  0  0  0  0  0  0  0  0  0  0
   58.8355   28.9709   47.9354 C   0  0  0  0  0  0  0  0  0  0  0  0
   60.2177   28.7894   48.5071 C   0  0  0  0  0  0  0  0  0  0  0  0
   60.6108   27.6600   48.7706 O   0  0  0  0  0  0  0  0  0  0  0  0
   61.0800   29.9349   48.7242 N   0  0  0  0  0  0  0  0  0  0  0  0
   60.6163   30.6936   49.9081 C   0  0  0  0  0  0  0  0  0  0  0  0
   61.5636   31.8600   50.2250 C   0  0  0  0  0  0  0  0  0  0  0  0
   61.8182   32.6695   48.9857 C   0  0  0  0  0  0  0  0  0  0  0  0
   61.9006   33.8859   49.0521 O   0  0  0  0  0  0  0  0  0  0  0  0
   62.0802   31.9624   47.6874 C   0  0  0  0  0  0  0  0  0  0  0  0
   61.1028   30.7918   47.5187 C   0  0  0  0  0  0  0  0  0  0  0  0
   61.2856   29.6540   47.8033 H   0  0  0  0  0  0  0  0  0  0  0  0
 16 17  2  0
 17 15  1  0
 15  1  1  0
  1  2  1  0
  2 18  1  0
 18 19  1  0
 19 20  2  0
 19 21  1  0
 21 22  1  0
 22 23  1  0
 23 24  1  0
 24 25  2  0
 24 26  1  0
 26 27  1  0
  2  3  2  0
  3  4  1  0
  4  5  2  0
  5  8  1  0
  8  9  1  0
  9 10  1  0
 10 11  2  0
 10 12  1  0
 12 13  1  0
 13 14  1  0
  4  6  1  0
  6  7  2  0
  6  1  1  0
 27 21  1  0
 13  8  2  0
 21 28  1  0
M  CHG 1   9  -1
M  CHG 1  12  -1
M  CHG 1  14  -1
M  CHG 1  21   1
M  END
> <UniqueID>
35

> <SMILES>
C=CCn1c(CC(=O)[NH+]2CCC(=O)CC2)cc(=Cc2[n-]c(=O)[n-]c2[O-])c1=C

> <Energy>
111.79317428277388

> <Genealogy>
C=CCn1c(CC(=O)[NH+]2CCC(=O)CC2)cc(=Cc2[n-]c(=O)[n-]c2[O-])c1=C (protonated)
C=CCn1c(CC(=O)[NH+]2CCC(=O)CC2)cc(=Cc2[n-]c(=O)[n-]c2[O-])c1=C (3D coordinates assigned)
C=CCn1c(CC(=O)[NH+]2CCC(=O)CC2)cc(=Cc2[n-]c(=O)[n-]c2[O-])c1=C (nonaromatic ring conformer: 111.79317428277388 kcal/mol)

> <smiles>
C=CCn1c(CC(=O)N2CCC(=O)CC2)cc(=Cc2[nH]c(=O)[nH]c2O)c1=C

> <score_type>
oracle

> <origin>
adg

> <m_score__min__energy>
-15.49

> <m_primary>
energy

> <minimizedAffinity>
-7.38040

> <minimizedRMSD>
2.25462

> <CNNscore>
0.1159264296

> <CNNaffinity>
5.8927931786

> <CNN_VS>
0.6831305027

> <CNNaffinity_variance>
0.0475179106

$$$$
50:0


 32 35  0  0  0  0  0  0  0  0999 V2000
   59.6064   31.3628   46.7499 C   0  0  0  0  0  0  0  0  0  0  0  0
   60.8814   31.6487   47.2605 C   0  0  0  0  0  0  0  0  0  0  0  0
   61.1622   32.9106   47.8127 C   0  0  0  0  0  0  0  0  0  0  0  0
   60.1544   33.8910   47.8229 C   0  0  0  0  0  0  0  0  0  0  0  0
   58.8856   33.6072   47.3112 C   0  0  0  0  0  0  0  0  0  0  0  0
   58.6094   32.3483   46.7760 C   0  0  0  0  0  0  0  0  0  0  0  0
   57.3707   32.0814   46.2918 F   0  0  0  0  0  0  0  0  0  0  0  0
   62.5130   33.2099   48.3434 C   0  0  0  0  0  0  0  0  0  0  0  0
   63.3898   33.6891   47.5719 O   0  0  0  0  0  0  0  0  0  0  0  0
   62.8385   32.9893   49.7253 N   0  0  0  0  0  0  0  0  0  0  0  0
   63.4385   34.0771   50.5168 C   0  0  0  0  0  0  0  0  0  0  0  0
   64.3685   33.4987   51.5367 C   0  0  0  0  0  0  0  0  0  0  0  0
   65.4209   34.1139   51.8585 O   0  0  0  0  0  0  0  0  0  0  0  0
   64.0267   32.2497   52.1496 N   0  0  0  0  0  0  0  0  0  0  0  0
   64.9742   31.5650   53.0295 C   0  0  0  0  0  0  0  0  0  0  0  0
   62.7044   31.6875   51.8593 C   0  0  0  0  0  0  0  0  0  0  0  0
   62.4324   31.7157   50.3475 C   0  0  0  0  0  0  0  0  0  0  0  0
   60.2273   28.7082   47.9111 C   0  0  0  0  0  0  0  0  0  0  0  0
   59.5881   28.8582   46.7409 C   0  0  0  0  0  0  0  0  0  0  0  0
   59.1985   27.8478   45.8461 C   0  0  0  0  0  0  0  0  0  0  0  0
   59.1798   26.5069   45.9781 C   0  0  0  0  0  0  0  0  0  0  0  0
   58.7697   28.4927   44.6976 C   0  0  0  0  0  0  0  0  0  0  0  0
   58.8516   29.8475   44.9423 C   0  0  0  0  0  0  0  0  0  0  0  0
   58.4570   30.9198   43.9747 C   0  0  0  0  0  0  0  0  0  0  0  0
   59.3315   30.0688   46.1852 N   0  0  0  0  0  0  0  0  0  0  0  0
   58.0061   25.6967   46.3401 C   0  0  0  0  0  0  0  0  0  0  0  0
   58.0561   24.5358   47.0214 N   0  0  0  0  0  0  0  0  0  0  0  0
   56.7551   24.2464   47.2392 C   0  0  0  0  0  0  0  0  0  0  0  0
   56.3848   23.2069   47.8447 O   0  0  0  0  0  0  0  0  0  0  0  0
   55.8840   25.1632   46.7666 N   0  0  0  0  0  0  0  0  0  0  0  0
   56.6939   26.0796   46.2148 C   0  0  0  0  0  0  0  0  0  0  0  0
   56.2426   27.2477   45.6122 O   0  0  0  0  0  0  0  0  0  0  0  0
 18 19  2  0
 19 20  1  0
 20 21  2  0
 21 26  1  0
 26 27  1  0
 27 28  1  0
 28 29  2  0
 28 30  1  0
 30 31  1  0
 31 32  1  0
 20 22  1  0
 22 23  2  0
 23 24  1  0
 23 25  1  0
 25  1  1  0
  1  2  2  0
  2  3  1  0
  3  8  1  0
  8  9  2  0
  8 10  1  0
 10 11  1  0
 11 12  1  0
 12 13  2  0
 12 14  1  0
 14 15  1  0
 14 16  1  0
 16 17  1  0
  3  4  2  0
  4  5  1  0
  5  6  2  0
  6  7  1  0
 25 19  1  0
  6  1  1  0
 31 26  2  0
 17 10  1  0
M  CHG 1  27  -1
M  CHG 1  30  -1
M  CHG 1  32  -1
M  END
> <UniqueID>
50

> <SMILES>
C=c1/c(=C\c2[n-]c(=O)[n-]c2[O-])cc(C)n1-c1cc(C(=O)N2CCN(C)C(=O)C2)ccc1F

> <Energy>
133.3607339794669

> <Genealogy>
C=c1c(=Cc2[n-]c(=O)[n-]c2[O-])cc(C)n1-c1cc(C(=O)N2CCN(C)C(=O)C2)ccc1F (protonated)
C=c1/c(=C\c2[n-]c(=O)[n-]c2[O-])cc(C)n1-c1cc(C(=O)N2CCN(C)C(=O)C2)ccc1F (cis-trans isomerization)
C=c1/c(=C\c2[n-]c(=O)[n-]c2[O-])cc(C)n1-c1cc(C(=O)N2CCN(C)C(=O)C2)ccc1F (3D coordinates assigned)
C=c1/c(=C\c2[n-]c(=O)[n-]c2[O-])cc(C)n1-c1cc(C(=O)N2CCN(C)C(=O)C2)ccc1F (nonaromatic ring conformer: 133.3607339794669 kcal/mol)

> <smiles>
C=c1c(=Cc2[nH]c(=O)[nH]c2O)cc(C)n1-c1cc(C(=O)N2CCN(C)C(=O)C2)ccc1F

> <score_type>
oracle

> <origin>
adg

> <m_score__min__energy>
-17.09

> <m_primary>
energy

> <minimizedAffinity>
-8.00152

> <minimizedRMSD>
1.28998

> <CNNscore>
0.3291898966

> <CNNaffinity>
7.3407073021

> <CNN_VS>
2.4164867401

> <CNNaffinity_variance>
0.2688657343

$$$$
53:0


 27 29  0  0  0  0  0  0  0  0999 V2000
   54.9322   27.9327   53.7448 C   0  0  0  0  0  0  0  0  0  0  0  0
   55.5654   29.0267   53.3085 C   0  0  0  0  0  0  0  0  0  0  0  0
   56.9071   29.0651   53.1722 N   0  0  0  0  0  0  0  0  0  0  0  0
   57.2107   30.2144   52.5390 C   0  0  0  0  0  0  0  0  0  0  0  0
   56.0621   30.9349   52.2730 C   0  0  0  0  0  0  0  0  0  0  0  0
   55.0054   30.2062   52.7953 C   0  0  0  0  0  0  0  0  0  0  0  0
   53.7313   30.6447   52.7725 C   0  0  0  0  0  0  0  0  0  0  0  0
   57.5451   28.3807   53.4784 H   0  0  0  0  0  0  0  0  0  0  0  0
   52.8675   30.7053   51.5817 C   0  0  0  0  0  0  0  0  0  0  0  0
   52.9029   29.8247   50.5638 N   0  0  0  0  0  0  0  0  0  0  0  0
   51.8539   30.1942   49.7973 C   0  0  0  0  0  0  0  0  0  0  0  0
   51.5606   29.6071   48.7226 O   0  0  0  0  0  0  0  0  0  0  0  0
   51.1380   31.2328   50.2778 N   0  0  0  0  0  0  0  0  0  0  0  0
   51.7847   31.5329   51.4147 C   0  0  0  0  0  0  0  0  0  0  0  0
   51.3916   32.5409   52.2867 O   0  0  0  0  0  0  0  0  0  0  0  0
   58.5788   30.6290   52.1694 C   0  0  0  0  0  0  0  0  0  0  0  0
   59.0020   31.7587   52.5412 O   0  0  0  0  0  0  0  0  0  0  0  0
   59.4533   29.7219   51.3410 C   0  0  0  0  0  0  0  0  0  0  0  0
   59.4792   30.1064   49.8528 C   0  0  0  0  0  0  0  0  0  0  0  0
   59.7775   28.8972   48.9510 C   0  0  0  0  0  0  0  0  0  0  0  0
   60.2340   29.3014   47.6009 N   0  0  0  0  0  0  0  0  0  0  0  0
   59.9016   28.2749   46.5799 C   0  0  0  0  0  0  0  0  0  0  0  0
   59.8423   28.8731   45.1665 C   0  0  0  0  0  0  0  0  0  0  0  0
   58.8192   29.9410   45.0495 N   0  0  0  0  0  0  0  0  0  0  0  0
   57.5865   29.4370   44.4219 C   0  0  0  0  0  0  0  0  0  0  0  0
   58.5078   30.6053   46.3357 C   0  0  0  0  0  0  0  0  0  0  0  0
   59.7418   30.6574   47.2461 C   0  0  0  0  0  0  0  0  0  0  0  0
  1  2  2  0
  2  3  1  0
  3  4  1  0
  4 16  1  0
 16 17  2  0
 16 18  1  0
 18 19  1  0
 19 20  1  0
 20 21  1  0
 21 22  1  0
 22 23  1  0
 23 24  1  0
 24 25  1  0
 24 26  1  0
 26 27  1  0
  4  5  2  0
  5  6  1  0
  6  7  2  0
  7  9  1  0
  9 10  1  0
 10 11  1  0
 11 12  2  0
 11 13  1  0
 13 14  1  0
 14 15  1  0
  6  2  1  0
 14  9  2  0
 27 21  1  0
  3  8  1  0
M  CHG 1  10  -1
M  CHG 1  13  -1
M  CHG 1  15  -1
M  END
> <UniqueID>
53

> <SMILES>
C=c1[nH]c(C(=O)CCCN2CCN(C)CC2)cc1=Cc1[n-]c(=O)[n-]c1[O-]

> <Energy>
124.96771344042958

> <Genealogy>
C=c1[nH]c(C(=O)CCCN2CCN(C)CC2)cc1=Cc1[n-]c(=O)[n-]c1[O-] (protonated)
C=c1[nH]c(C(=O)CCCN2CCN(C)CC2)cc1=Cc1[n-]c(=O)[n-]c1[O-] (3D coordinates assigned)
C=c1[nH]c(C(=O)CCCN2CCN(C)CC2)cc1=Cc1[n-]c(=O)[n-]c1[O-] (nonaromatic ring conformer: 124.96771344042958 kcal/mol)

> <smiles>
C=c1[nH]c(C(=O)CCCN2CCN(C)CC2)cc1=Cc1[nH]c(=O)[nH]c1O

> <score_type>
oracle

> <origin>
adg

> <m_score__min__energy>
-17.149999999999999

> <m_primary>
energy

> <minimizedAffinity>
-5.57489

> <minimizedRMSD>
0.97740

> <CNNscore>
0.0556793027

> <CNNaffinity>
4.5324568748

> <CNN_VS>
0.2523640394

> <CNNaffinity_variance>
0.7478582859

$$$$
73:0


 27 29  0  0  0  0  0  0  0  0999 V2000
   57.3103   28.8094   45.3100 C   0  0  0  0  0  0  0  0  0  0  0  0
   58.2965   29.0478   46.2765 C   0  0  0  0  0  0  0  0  0  0  0  0
   59.0883   30.2034   46.2163 C   0  0  0  0  0  0  0  0  0  0  0  0
   58.8719   31.1385   45.1985 C   0  0  0  0  0  0  0  0  0  0  0  0
   57.8692   30.9242   44.2493 C   0  0  0  0  0  0  0  0  0  0  0  0
   57.0777   29.7716   44.3074 C   0  0  0  0  0  0  0  0  0  0  0  0
   56.0443   29.6169   43.3897 O   0  0  0  0  0  0  0  0  0  0  0  0
   60.3254   30.5055   47.4351 S   0  0  0  0  0  0  0  0  0  0  0  0
   61.6757   30.2569   46.8235 O   0  0  0  0  0  0  0  0  0  0  0  0
   60.1424   29.5637   48.5938 O   0  0  0  0  0  0  0  0  0  0  0  0
   60.2273   32.1603   47.9888 N   0  0  0  0  0  0  0  0  0  0  0  0
   61.0100   33.0386   47.0912 C   0  0  0  0  0  0  0  0  0  0  0  0
   60.6012   34.5067   47.2469 C   0  0  0  0  0  0  0  0  0  0  0  0
   59.1266   34.7156   46.8598 C   0  0  0  0  0  0  0  0  0  0  0  0
   58.2822   33.4409   47.0299 C   0  0  0  0  0  0  0  0  0  0  0  0
   58.8133   32.5719   48.1790 C   0  0  0  0  0  0  0  0  0  0  0  0
   56.5178   27.6179   45.4194 N   0  0  0  0  0  0  0  0  0  0  0  0
   56.9875   26.3508   45.8935 C   0  0  0  0  0  0  0  0  0  0  0  0
   56.5028   25.8387   46.9384 O   0  0  0  0  0  0  0  0  0  0  0  0
   58.0098   25.5993   45.1015 C   0  0  0  0  0  0  0  0  0  0  0  0
   57.9052   24.2011   45.3561 O   0  0  0  0  0  0  0  0  0  0  0  0
   57.4827   21.1701   45.8843 C   0  0  0  0  0  0  0  0  0  0  0  0
   56.9128   22.0127   44.7925 C   0  0  0  0  0  0  0  0  0  0  0  0
   56.1351   21.5610   43.7944 N   0  0  0  0  0  0  0  0  0  0  0  0
   55.9056   22.5961   43.0326 O   0  0  0  0  0  0  0  0  0  0  0  0
   56.4797   23.6939   43.4460 N   0  0  0  0  0  0  0  0  0  0  0  0
   57.1341   23.3431   44.5662 C   0  0  0  0  0  0  0  0  0  0  0  0
 22 23  1  0
 23 24  2  0
 24 25  1  0
 25 26  1  0
 26 27  2  0
 27 21  1  0
 21 20  1  0
 20 18  1  0
 18 19  2  0
 18 17  1  0
 17  1  1  0
  1  2  2  0
  2  3  1  0
  3  8  1  0
  8  9  2  0
  8 10  2  0
  8 11  1  0
 11 12  1  0
 12 13  1  0
 13 14  1  0
 14 15  1  0
 15 16  1  0
  3  4  2  0
  4  5  1  0
  5  6  2  0
  6  7  1  0
 27 23  1  0
  6  1  1  0
 16 11  1  0
M  CHG 1   7  -1
M  CHG 1  17  -1
M  END
> <UniqueID>
71

> <SMILES>
Cc1nonc1OCC(=O)[N-]c1cc(S(=O)(=O)N2CCCCC2)ccc1[O-]

> <Energy>
87.54773469199328

> <Genealogy>
Cc1nonc1OCC(=O)[N-]c1cc(S(=O)(=O)N2CCCCC2)ccc1[O-] (protonated)
Cc1nonc1OCC(=O)[N-]c1cc(S(=O)(=O)N2CCCCC2)ccc1[O-] (3D coordinates assigned)
Cc1nonc1OCC(=O)[N-]c1cc(S(=O)(=O)N2CCCCC2)ccc1[O-] (nonaromatic ring conformer: 87.54773469199328 kcal/mol)

> <smiles>
Cc1nonc1OCC(=O)Nc1cc(S(=O)(=O)N2CCCCC2)ccc1O

> <score_type>
oracle

> <origin>
adg

> <m_score__min__energy>
-14.65

> <m_primary>
energy

> <minimizedAffinity>
-6.46480

> <minimizedRMSD>
1.83481

> <CNNscore>
0.4177861512

> <CNNaffinity>
6.5451140404

> <CNN_VS>
2.7344579697

> <CNNaffinity_variance>
0.4057096541

$$$$
85:0


 37 40  0  0  0  0  0  0  0  0999 V2000
   58.2912   24.5794   47.9330 C   0  0  0  0  0  0  0  0  0  0  0  0
   58.5555   25.4457   46.9385 C   0  0  0  0  0  0  0  0  0  0  0  0
   58.2372   25.2546   45.5847 C   0  0  0  0  0  0  0  0  0  0  0  0
   57.4257   24.3653   44.9759 C   0  0  0  0  0  0  0  0  0  0  0  0
   58.9356   26.2152   44.8862 C   0  0  0  0  0  0  0  0  0  0  0  0
   59.5952   26.9931   45.8142 C   0  0  0  0  0  0  0  0  0  0  0  0
   59.3314   26.5635   47.0765 N   0  0  0  0  0  0  0  0  0  0  0  0
   55.9682   24.2553   45.1560 C   0  0  0  0  0  0  0  0  0  0  0  0
   55.2424   23.1493   44.9056 N   0  0  0  0  0  0  0  0  0  0  0  0
   54.0089   23.4783   45.3464 C   0  0  0  0  0  0  0  0  0  0  0  0
   53.0288   22.6931   45.2685 O   0  0  0  0  0  0  0  0  0  0  0  0
   53.9105   24.7115   45.8872 N   0  0  0  0  0  0  0  0  0  0  0  0
   55.1636   25.1827   45.7699 C   0  0  0  0  0  0  0  0  0  0  0  0
   55.5640   26.4340   46.2225 O   0  0  0  0  0  0  0  0  0  0  0  0
   60.4988   28.1364   45.4243 C   0  0  0  0  0  0  0  0  0  0  0  0
   59.8651   29.4837   45.6887 C   0  0  0  0  0  0  0  0  0  0  0  0
   60.5191   30.3643   46.2334 O   0  0  0  0  0  0  0  0  0  0  0  0
   58.4562   29.6999   45.4115 N   0  0  0  0  0  0  0  0  0  0  0  0
   58.0726   31.1033   45.7265 C   0  0  0  0  0  0  0  0  0  0  0  0
   58.0823   31.9956   44.4760 C   0  0  0  0  0  0  0  0  0  0  0  0
   57.1099   31.5185   43.4639 N   0  0  0  0  0  0  0  0  0  0  0  0
   57.4882   31.9967   42.1249 C   0  0  0  0  0  0  0  0  0  0  0  0
   56.9101   30.0484   43.4768 C   0  0  0  0  0  0  0  0  0  0  0  0
   58.1396   29.3015   44.0154 C   0  0  0  0  0  0  0  0  0  0  0  0
   57.7798   30.3765   45.6437 H   0  0  0  0  0  0  0  0  0  0  0  0
   59.9670   27.0736   48.3086 C   0  0  0  0  0  0  0  0  0  0  0  0
   59.4092   28.4010   48.7555 C   0  0  0  0  0  0  0  0  0  0  0  0
   58.4162   28.8633   48.1320 O   0  0  0  0  0  0  0  0  0  0  0  0
   60.0512   29.2171   49.7610 N   0  0  0  0  0  0  0  0  0  0  0  0
   59.5059   29.1907   51.1236 C   0  0  0  0  0  0  0  0  0  0  0  0
   61.1985   30.0883   49.4587 C   0  0  0  0  0  0  0  0  0  0  0  0
   60.7540   31.4957   49.1334 C   0  0  0  0  0  0  0  0  0  0  0  0
   59.3884   31.8374   49.1101 C   0  0  0  0  0  0  0  0  0  0  0  0
   58.9890   33.1315   48.7625 C   0  0  0  0  0  0  0  0  0  0  0  0
   59.9436   34.0897   48.4151 C   0  0  0  0  0  0  0  0  0  0  0  0
   61.2974   33.7498   48.3950 C   0  0  0  0  0  0  0  0  0  0  0  0
   61.6985   32.4545   48.7343 C   0  0  0  0  0  0  0  0  0  0  0  0
  1  2  2  0
  2  3  1  0
  3  4  2  0
  4  8  1  0
  8  9  1  0
  9 10  1  0
 10 11  2  0
 10 12  1  0
 12 13  1  0
 13 14  1  0
  3  5  1  0
  5  6  2  0
  6 15  1  0
 15 16  1  0
 16 17  2  0
 16 18  1  0
 18 19  1  0
 19 20  1  0
 20 21  1  0
 21 22  1  0
 21 23  1  0
 23 24  1  0
  6  7  1  0
  7 26  1  0
 26 27  1  0
 27 28  2  0
 27 29  1  0
 29 30  1  0
 29 31  1  0
 31 32  1  0
 32 33  2  0
 33 34  1  0
 34 35  2  0
 35 36  1  0
 36 37  2  0
  7  2  1  0
 37 32  1  0
 13  8  2  0
 24 18  1  0
 18 25  1  0
M  CHG 1   9  -1
M  CHG 1  12  -1
M  CHG 1  14  -1
M  CHG 1  18   1
M  END
> <UniqueID>
82

> <SMILES>
C=c1/c(=C\c2[n-]c(=O)[n-]c2[O-])cc(CC(=O)[NH+]2CCN(C)CC2)n1CC(=O)N(C)Cc1ccccc1

> <Energy>
145.539012725983

> <Genealogy>
C=c1c(=Cc2[n-]c(=O)[n-]c2[O-])cc(CC(=O)[NH+]2CCN(C)CC2)n1CC(=O)N(C)Cc1ccccc1 (protonated)
C=c1/c(=C\c2[n-]c(=O)[n-]c2[O-])cc(CC(=O)[NH+]2CCN(C)CC2)n1CC(=O)N(C)Cc1ccccc1 (cis-trans isomerization)
C=c1/c(=C\c2[n-]c(=O)[n-]c2[O-])cc(CC(=O)[NH+]2CCN(C)CC2)n1CC(=O)N(C)Cc1ccccc1 (3D coordinates assigned)
C=c1/c(=C\c2[n-]c(=O)[n-]c2[O-])cc(CC(=O)[NH+]2CCN(C)CC2)n1CC(=O)N(C)Cc1ccccc1 (nonaromatic ring conformer: 145.539012725983 kcal/mol)

> <smiles>
C=c1c(=Cc2[nH]c(=O)[nH]c2O)cc(CC(=O)N2CCN(C)CC2)n1CC(=O)N(C)Cc1ccccc1

> <score_type>
oracle

> <origin>
adg

> <m_score__min__energy>
-15.92

> <m_primary>
energy

> <minimizedAffinity>
-4.55936

> <minimizedRMSD>
0.67612

> <CNNscore>
0.1161928773

> <CNNaffinity>
6.9091324806

> <CNN_VS>
0.8027919531

> <CNNaffinity_variance>
0.0438209288

$$$$
1:0


 32 35  0  0  0  0  0  0  0  0999 V2000
   57.8826   26.6789   43.1934 C   0  0  0  0  0  0  0  0  0  0  0  0
   58.0636   27.6798   44.0610 C   0  0  0  0  0  0  0  0  0  0  0  0
   57.7342   28.9518   43.7516 N   0  0  0  0  0  0  0  0  0  0  0  0
   58.2167   29.7412   44.7263 C   0  0  0  0  0  0  0  0  0  0  0  0
   58.0706   31.2312   44.7293 C   0  0  0  0  0  0  0  0  0  0  0  0
   58.8472   28.9764   45.6959 C   0  0  0  0  0  0  0  0  0  0  0  0
   58.7197   27.6426   45.3031 C   0  0  0  0  0  0  0  0  0  0  0  0
   59.1202   26.5854   46.0436 C   0  0  0  0  0  0  0  0  0  0  0  0
   57.2325   29.2471   42.9576 H   0  0  0  0  0  0  0  0  0  0  0  0
   58.5152   25.2440   46.0180 C   0  0  0  0  0  0  0  0  0  0  0  0
   59.1571   24.1199   45.6517 N   0  0  0  0  0  0  0  0  0  0  0  0
   58.1764   23.1906   45.6448 C   0  0  0  0  0  0  0  0  0  0  0  0
   58.3896   21.9833   45.3618 O   0  0  0  0  0  0  0  0  0  0  0  0
   56.9494   23.6594   45.9547 N   0  0  0  0  0  0  0  0  0  0  0  0
   57.1799   24.9633   46.1720 C   0  0  0  0  0  0  0  0  0  0  0  0
   56.1888   25.8802   46.5001 O   0  0  0  0  0  0  0  0  0  0  0  0
   59.4880   29.4935   46.9249 C   0  0  0  0  0  0  0  0  0  0  0  0
   59.0095   29.1133   48.1864 C   0  0  0  0  0  0  0  0  0  0  0  0
   59.6248   29.5900   49.3489 C   0  0  0  0  0  0  0  0  0  0  0  0
   60.7383   30.4442   49.2650 C   0  0  0  0  0  0  0  0  0  0  0  0
   61.2084   30.8298   47.9978 C   0  0  0  0  0  0  0  0  0  0  0  0
   60.5916   30.3534   46.8381 C   0  0  0  0  0  0  0  0  0  0  0  0
   61.3832   30.9535   50.4961 C   0  0  0  0  0  0  0  0  0  0  0  0
   62.6401   30.9196   50.5950 O   0  0  0  0  0  0  0  0  0  0  0  0
   60.6032   31.4651   51.5927 N   0  0  0  0  0  0  0  0  0  0  0  0
   59.5552   32.4675   51.3555 C   0  0  0  0  0  0  0  0  0  0  0  0
   58.2955   32.1641   52.1881 C   0  0  0  0  0  0  0  0  0  0  0  0
   58.5894   31.4542   53.5290 C   0  0  0  0  0  0  0  0  0  0  0  0
   58.3887   30.0921   53.3822 F   0  0  0  0  0  0  0  0  0  0  0  0
   57.7127   31.9186   54.4957 F   0  0  0  0  0  0  0  0  0  0  0  0
   60.0282   31.7014   54.0004 C   0  0  0  0  0  0  0  0  0  0  0  0
   61.0318   31.1683   52.9662 C   0  0  0  0  0  0  0  0  0  0  0  0
  1  2  2  0
  2  3  1  0
  3  4  1  0
  4  5  1  0
  4  6  2  0
  6 17  1  0
 17 18  2  0
 18 19  1  0
 19 20  2  0
 20 23  1  0
 23 24  2  0
 23 25  1  0
 25 26  1  0
 26 27  1  0
 27 28  1  0
 28 29  1  0
 28 30  1  0
 28 31  1  0
 31 32  1  0
 20 21  1  0
 21 22  2  0
  6  7  1  0
  7  8  2  0
  8 10  1  0
 10 11  1  0
 11 12  1  0
 12 13  2  0
 12 14  1  0
 14 15  1  0
 15 16  1  0
  7  2  1  0
 15 10  2  0
 22 17  1  0
 32 25  1  0
  3  9  1  0
M  CHG 1  11  -1
M  CHG 1  14  -1
M  CHG 1  16  -1
M  END
> <UniqueID>
2

> <SMILES>
C=c1[nH]c(C)c(-c2ccc(C(=O)N3CCC(F)(F)CC3)cc2)c1=Cc1[n-]c(=O)[n-]c1[O-]

> <Energy>
132.40973051103836

> <Genealogy>
C=c1[nH]c(C)c(-c2ccc(C(=O)N3CCC(F)(F)CC3)cc2)c1=Cc1[n-]c(=O)[n-]c1[O-] (protonated)
C=c1[nH]c(C)c(-c2ccc(C(=O)N3CCC(F)(F)CC3)cc2)c1=Cc1[n-]c(=O)[n-]c1[O-] (3D coordinates assigned)
C=c1[nH]c(C)c(-c2ccc(C(=O)N3CCC(F)(F)CC3)cc2)c1=Cc1[n-]c(=O)[n-]c1[O-] (nonaromatic ring conformer: 132.40973051103836 kcal/mol)

> <smiles>
C=c1[nH]c(C)c(-c2ccc(C(=O)N3CCC(F)(F)CC3)cc2)c1=Cc1[nH]c(=O)[nH]c1O

> <score_type>
oracle

> <origin>
adg

> <m_score__min__energy>
-17.600000000000001

> <m_primary>
energy

> <minimizedAffinity>
-8.85273

> <minimizedRMSD>
1.95133

> <CNNscore>
0.1626690179

> <CNNaffinity>
6.3246369362

> <CNN_VS>
1.0288224220

> <CNNaffinity_variance>
0.0482350551

$$$$
23:0


 30 33  0  0  0  0  0  0  0  0999 V2000
   55.5547   29.9744   43.9468 C   0  0  0  0  0  0  0  0  0  0  0  0
   56.6126   29.4815   44.5939 C   0  0  0  0  0  0  0  0  0  0  0  0
   57.8429   30.1052   44.7504 C   0  0  0  0  0  0  0  0  0  0  0  0
   58.2501   31.4339   44.1848 C   0  0  0  0  0  0  0  0  0  0  0  0
   58.6184   29.2420   45.5151 C   0  0  0  0  0  0  0  0  0  0  0  0
   57.8340   28.1175   45.7583 C   0  0  0  0  0  0  0  0  0  0  0  0
   58.2037   27.0567   46.5000 C   0  0  0  0  0  0  0  0  0  0  0  0
   56.6126   28.2792   45.2040 N   0  0  0  0  0  0  0  0  0  0  0  0
   55.8644   27.6403   45.2388 H   0  0  0  0  0  0  0  0  0  0  0  0
   60.0187   29.4564   45.9338 C   0  0  0  0  0  0  0  0  0  0  0  0
   60.9369   28.8949   45.2767 O   0  0  0  0  0  0  0  0  0  0  0  0
   60.3557   30.2971   47.0581 N   0  0  0  0  0  0  0  0  0  0  0  0
   59.4599   30.4015   48.2175 C   0  0  0  0  0  0  0  0  0  0  0  0
   59.4643   31.8339   48.7612 C   0  0  0  0  0  0  0  0  0  0  0  0
   60.8315   32.3484   48.9305 N   0  0  0  0  0  0  0  0  0  0  0  0
   61.0147   33.5938   49.6358 C   0  0  0  0  0  0  0  0  0  0  0  0
   60.0675   34.4284   49.6686 O   0  0  0  0  0  0  0  0  0  0  0  0
   61.9802   31.5527   48.4745 C   0  0  0  0  0  0  0  0  0  0  0  0
   61.6920   30.9069   47.1136 C   0  0  0  0  0  0  0  0  0  0  0  0
   62.3324   33.9328   50.3003 C   0  0  0  0  0  0  0  0  0  0  0  0
   63.5320   33.0980   49.8412 C   0  0  0  0  0  0  0  0  0  0  0  0
   63.6516   32.5075   51.2403 C   0  0  0  0  0  0  0  0  0  0  0  0
   62.4605   33.3381   51.7002 C   0  0  0  0  0  0  0  0  0  0  0  0
   57.7973   25.6705   46.2151 C   0  0  0  0  0  0  0  0  0  0  0  0
   58.6696   24.6925   45.9149 N   0  0  0  0  0  0  0  0  0  0  0  0
   57.8746   23.6335   45.6448 C   0  0  0  0  0  0  0  0  0  0  0  0
   58.3324   22.5055   45.3281 O   0  0  0  0  0  0  0  0  0  0  0  0
   56.5509   23.8836   45.7290 N   0  0  0  0  0  0  0  0  0  0  0  0
   56.5172   25.1796   46.0780 C   0  0  0  0  0  0  0  0  0  0  0  0
   55.3408   25.9057   46.2215 O   0  0  0  0  0  0  0  0  0  0  0  0
  1  2  2  0
  2  3  1  0
  3  4  1  0
  3  5  2  0
  5 10  1  0
 10 11  2  0
 10 12  1  0
 12 13  1  0
 13 14  1  0
 14 15  1  0
 15 16  1  0
 16 17  2  0
 16 20  1  0
 20 21  1  0
 21 22  1  0
 22 23  1  0
 15 18  1  0
 18 19  1  0
  5  6  1  0
  6  7  2  0
  7 24  1  0
 24 25  1  0
 25 26  1  0
 26 27  2  0
 26 28  1  0
 28 29  1  0
 29 30  1  0
  6  8  1  0
  8  2  1  0
 19 12  1  0
 29 24  2  0
 23 20  1  0
  8  9  1  0
M  CHG 1  25  -1
M  CHG 1  28  -1
M  CHG 1  30  -1
M  END
> <UniqueID>
24

> <SMILES>
C=c1[nH]/c(=C\c2[n-]c(=O)[n-]c2[O-])c(C(=O)N2CCN(C(=O)C3CCC3)CC2)c1C

> <Energy>
181.37472747665603

> <Genealogy>
C=c1[nH]c(=Cc2[n-]c(=O)[n-]c2[O-])c(C(=O)N2CCN(C(=O)C3CCC3)CC2)c1C (protonated)
C=c1[nH]/c(=C\c2[n-]c(=O)[n-]c2[O-])c(C(=O)N2CCN(C(=O)C3CCC3)CC2)c1C (cis-trans isomerization)
C=c1[nH]/c(=C\c2[n-]c(=O)[n-]c2[O-])c(C(=O)N2CCN(C(=O)C3CCC3)CC2)c1C (3D coordinates assigned)
C=c1[nH]/c(=C\c2[n-]c(=O)[n-]c2[O-])c(C(=O)N2CCN(C(=O)C3CCC3)CC2)c1C (nonaromatic ring conformer: 181.37472747665603 kcal/mol)

> <smiles>
C=c1[nH]c(=Cc2[nH]c(=O)[nH]c2O)c(C(=O)N2CCN(C(=O)C3CCC3)CC2)c1C

> <score_type>
oracle

> <origin>
adg

> <m_score__min__energy>
-16.359999999999999

> <m_primary>
energy

> <minimizedAffinity>
-8.84309

> <minimizedRMSD>
1.13680

> <CNNscore>
0.0655872375

> <CNNaffinity>
5.6865782738

> <CNN_VS>
0.3729669452

> <CNNaffinity_variance>
0.1881121546

$$$$
25:0


 25 27  0  0  0  0  0  0  0  0999 V2000
   57.6130   30.2453   45.5057 N   0  0  0  0  0  0  0  0  0  0  0  0
   58.1407   31.4110   45.7457 C   0  0  0  0  0  0  0  0  0  0  0  0
   59.2447   31.5382   46.5300 N   0  0  0  0  0  0  0  0  0  0  0  0
   59.7742   32.7619   46.7920 C   0  0  0  0  0  0  0  0  0  0  0  0
   59.1792   33.8673   46.2690 N   0  0  0  0  0  0  0  0  0  0  0  0
   58.0720   33.7487   45.4955 C   0  0  0  0  0  0  0  0  0  0  0  0
   57.5245   34.7763   45.0167 O   0  0  0  0  0  0  0  0  0  0  0  0
   57.5525   32.5217   45.2373 N   0  0  0  0  0  0  0  0  0  0  0  0
   57.9138   26.5602   46.0410 C   0  0  0  0  0  0  0  0  0  0  0  0
   59.2992   26.4098   46.1927 C   0  0  0  0  0  0  0  0  0  0  0  0
   60.1382   27.5226   46.1005 C   0  0  0  0  0  0  0  0  0  0  0  0
   59.6009   28.7914   45.8746 C   0  0  0  0  0  0  0  0  0  0  0  0
   58.2077   28.9603   45.7619 C   0  0  0  0  0  0  0  0  0  0  0  0
   57.3749   27.8363   45.8225 C   0  0  0  0  0  0  0  0  0  0  0  0
   55.2057   25.6750   46.0523 N   0  0  0  0  0  0  0  0  0  0  0  0
   56.8526   25.1606   46.1526 S   0  0  0  0  0  0  0  0  0  0  0  0
   57.0739   24.4532   47.4595 O   0  0  0  0  0  0  0  0  0  0  0  0
   57.1498   24.2050   45.0312 O   0  0  0  0  0  0  0  0  0  0  0  0
   54.5914   24.8633   46.1170 H   0  0  0  0  0  0  0  0  0  0  0  0
   60.9854   32.8870   47.6387 C   0  0  0  0  0  0  0  0  0  0  0  0
   62.0694   32.0024   47.4773 C   0  0  0  0  0  0  0  0  0  0  0  0
   63.2102   32.1239   48.2786 C   0  0  0  0  0  0  0  0  0  0  0  0
   63.2823   33.1265   49.2472 C   0  0  0  0  0  0  0  0  0  0  0  0
   62.2144   34.0107   49.4176 C   0  0  0  0  0  0  0  0  0  0  0  0
   61.0728   33.8945   48.6207 C   0  0  0  0  0  0  0  0  0  0  0  0
 15 16  1  0
 16 17  2  0
 16 18  2  0
 16  9  1  0
  9 10  2  0
 10 11  1  0
 11 12  2  0
 12 13  1  0
 13  1  1  0
  1  2  2  0
  2  3  1  0
  3  4  1  0
  4 20  1  0
 20 21  2  0
 21 22  1  0
 22 23  2  0
 23 24  1  0
 24 25  2  0
  4  5  2  0
  5  6  1  0
  6  7  2  0
  6  8  1  0
 13 14  2  0
 14  9  1  0
  8  2  1  0
 25 20  1  0
 15 19  1  0
M  CHG 1   3  -1
M  CHG 1   8  -1
M  CHG 1  15  -1
M  END
> <UniqueID>
26

> <SMILES>
[NH-]S(=O)(=O)c1cccc(N=c2[n-]c(-c3ccccc3)nc(=O)[n-]2)c1

> <Energy>
44.68591373586515

> <Genealogy>
[NH-]S(=O)(=O)c1cccc(N=c2[n-]c(-c3ccccc3)nc(=O)[n-]2)c1 (protonated)
[NH-]S(=O)(=O)c1cccc(N=c2[n-]c(-c3ccccc3)nc(=O)[n-]2)c1 (3D coordinates assigned)
[NH-]S(=O)(=O)c1cccc(N=c2[n-]c(-c3ccccc3)nc(=O)[n-]2)c1 (optimized conformer: 44.68591373586515 kcal/mol)

> <smiles>
NS(=O)(=O)c1cccc(N=c2[nH]c(-c3ccccc3)nc(=O)[nH]2)c1

> <score_type>
oracle

> <origin>
adg

> <m_score__min__energy>
-14.01

> <m_primary>
energy

> <minimizedAffinity>
-9.40886

> <minimizedRMSD>
0.99884

> <CNNscore>
0.7891092896

> <CNNaffinity>
6.9602680206

> <CNN_VS>
5.4924120903

> <CNNaffinity_variance>
0.4001003206

$$$$
29:0


 28 30  0  0  0  0  0  0  0  0999 V2000
   54.3006   29.4028   55.5799 C   0  0  0  0  0  0  0  0  0  0  0  0
   54.8514   29.6567   54.3819 C   0  0  0  0  0  0  0  0  0  0  0  0
   54.1880   30.0914   53.2230 C   0  0  0  0  0  0  0  0  0  0  0  0
   52.8750   30.1790   52.9337 C   0  0  0  0  0  0  0  0  0  0  0  0
   55.1777   30.4499   52.3243 C   0  0  0  0  0  0  0  0  0  0  0  0
   56.3878   30.1848   52.9283 C   0  0  0  0  0  0  0  0  0  0  0  0
   56.1943   29.6686   54.1656 N   0  0  0  0  0  0  0  0  0  0  0  0
   57.2351   29.2124   55.0923 C   0  0  0  0  0  0  0  0  0  0  0  0
   52.3055   30.5044   51.6168 C   0  0  0  0  0  0  0  0  0  0  0  0
   52.3016   29.6530   50.5787 N   0  0  0  0  0  0  0  0  0  0  0  0
   51.5798   30.3061   49.6422 C   0  0  0  0  0  0  0  0  0  0  0  0
   51.3613   29.8270   48.4979 O   0  0  0  0  0  0  0  0  0  0  0  0
   51.0985   31.5059   50.0303 N   0  0  0  0  0  0  0  0  0  0  0  0
   51.5531   31.6106   51.2891 C   0  0  0  0  0  0  0  0  0  0  0  0
   51.2647   32.6796   52.1278 O   0  0  0  0  0  0  0  0  0  0  0  0
   57.6950   30.4715   52.2966 C   0  0  0  0  0  0  0  0  0  0  0  0
   57.9839   29.8753   51.2220 O   0  0  0  0  0  0  0  0  0  0  0  0
   58.5562   31.5257   52.7960 N   0  0  0  0  0  0  0  0  0  0  0  0
   59.9789   31.2787   52.4356 C   0  0  0  0  0  0  0  0  0  0  0  0
   60.7773   32.5768   52.1895 C   0  0  0  0  0  0  0  0  0  0  0  0
   60.3338   33.6799   53.0642 N   0  0  0  0  0  0  0  0  0  0  0  0
   58.8879   33.9843   52.9074 C   0  0  0  0  0  0  0  0  0  0  0  0
   58.0741   32.8253   52.2928 C   0  0  0  0  0  0  0  0  0  0  0  0
   58.7977   32.3506   53.2761 H   0  0  0  0  0  0  0  0  0  0  0  0
   60.7319   33.4690   54.4724 C   0  0  0  0  0  0  0  0  0  0  0  0
   59.5563   33.6774   55.3745 C   0  0  0  0  0  0  0  0  0  0  0  0
   59.2984   34.8233   55.8282 O   0  0  0  0  0  0  0  0  0  0  0  0
   58.7530   32.6009   55.7268 O   0  0  0  0  0  0  0  0  0  0  0  0
  1  2  2  0
  2  3  1  0
  3  4  2  0
  4  9  1  0
  9 10  1  0
 10 11  1  0
 11 12  2  0
 11 13  1  0
 13 14  1  0
 14 15  1  0
  3  5  1  0
  5  6  2  0
  6 16  1  0
 16 17  2  0
 16 18  1  0
 18 19  1  0
 19 20  1  0
 20 21  1  0
 21 25  1  0
 25 26  1  0
 26 27  2  0
 26 28  1  0
 21 22  1  0
 22 23  1  0
  6  7  1  0
  7  8  1  0
  7  2  1  0
 14  9  2  0
 23 18  1  0
 18 24  1  0
M  CHG 1  10  -1
M  CHG 1  13  -1
M  CHG 1  15  -1
M  CHG 1  18   1
M  CHG 1  28  -1
M  END
> <UniqueID>
30

> <SMILES>
C=c1c(=Cc2[n-]c(=O)[n-]c2[O-])cc(C(=O)[NH+]2CCN(CC(=O)[O-])CC2)n1C

> <Energy>
135.21531136354972

> <Genealogy>
C=c1c(=Cc2[n-]c(=O)[n-]c2[O-])cc(C(=O)[NH+]2CCN(CC(=O)[O-])CC2)n1C (protonated)
C=c1c(=Cc2[n-]c(=O)[n-]c2[O-])cc(C(=O)[NH+]2CCN(CC(=O)[O-])CC2)n1C (3D coordinates assigned)
C=c1c(=Cc2[n-]c(=O)[n-]c2[O-])cc(C(=O)[NH+]2CCN(CC(=O)[O-])CC2)n1C (nonaromatic ring conformer: 135.21531136354972 kcal/mol)

> <smiles>
C=c1c(=Cc2[nH]c(=O)[nH]c2O)cc(C(=O)N2CCN(CC(=O)O)CC2)n1C

> <score_type>
oracle

> <origin>
adg

> <m_score__min__energy>
-15.289999999999999

> <m_primary>
energy

> <minimizedAffinity>
-4.78595

> <minimizedRMSD>
0.85277

> <CNNscore>
0.1388113201

> <CNNaffinity>
4.1001296043

> <CNN_VS>
0.5691444278

> <CNNaffinity_variance>
0.8198082447

$$$$
62:0


 25 26  0  0  0  0  0  0  0  0999 V2000
   57.8105   33.8231   46.0638 O   0  0  0  0  0  0  0  0  0  0  0  0
   57.9133   32.5687   46.0189 C   0  0  0  0  0  0  0  0  0  0  0  0
   58.6602   31.8652   47.1097 C   0  0  0  0  0  0  0  0  0  0  0  0
   58.5912   32.6683   48.3213 N   0  0  0  0  0  0  0  0  0  0  0  0
   59.7375   33.0164   49.1020 C   0  0  0  0  0  0  0  0  0  0  0  0
   59.5873   33.3650   50.3032 O   0  0  0  0  0  0  0  0  0  0  0  0
   61.0922   32.9718   48.4894 C   0  0  0  0  0  0  0  0  0  0  0  0
   62.0676   32.1061   49.0255 C   0  0  0  0  0  0  0  0  0  0  0  0
   63.3413   32.0277   48.4572 C   0  0  0  0  0  0  0  0  0  0  0  0
   63.6634   32.8124   47.3516 C   0  0  0  0  0  0  0  0  0  0  0  0
   62.7136   33.6788   46.8088 C   0  0  0  0  0  0  0  0  0  0  0  0
   61.4284   33.7641   47.3652 C   0  0  0  0  0  0  0  0  0  0  0  0
   60.4932   34.6288   46.7960 O   0  0  0  0  0  0  0  0  0  0  0  0
   60.7274   35.1482   46.0521 H   0  0  0  0  0  0  0  0  0  0  0  0
   57.2473   31.8601   44.9651 N   0  0  0  0  0  0  0  0  0  0  0  0
   57.7436   30.6705   44.2747 C   0  0  0  0  0  0  0  0  0  0  0  0
   57.2319   29.3992   44.9037 C   0  0  0  0  0  0  0  0  0  0  0  0
   55.9827   29.2316   44.9437 O   0  0  0  0  0  0  0  0  0  0  0  0
   58.1380   28.3678   45.4917 C   0  0  0  0  0  0  0  0  0  0  0  0
   59.5243   28.6079   45.5987 C   0  0  0  0  0  0  0  0  0  0  0  0
   60.3779   27.6375   46.1279 C   0  0  0  0  0  0  0  0  0  0  0  0
   59.8680   26.4170   46.5671 C   0  0  0  0  0  0  0  0  0  0  0  0
   58.4984   26.1647   46.4850 C   0  0  0  0  0  0  0  0  0  0  0  0
   57.6326   27.1289   45.9563 C   0  0  0  0  0  0  0  0  0  0  0  0
   56.2737   26.8341   45.8939 O   0  0  0  0  0  0  0  0  0  0  0  0
  1  2  2  0
  2  3  1  0
  3  4  1  0
  4  5  1  0
  5  6  2  0
  5  7  1  0
  7  8  2  0
  8  9  1  0
  9 10  2  0
 10 11  1  0
 11 12  2  0
 12 13  1  0
  2 15  1  0
 15 16  1  0
 16 17  1  0
 17 18  2  0
 17 19  1  0
 19 20  2  0
 20 21  1  0
 21 22  2  0
 22 23  1  0
 23 24  2  0
 24 25  1  0
 12  7  1  0
 24 19  1  0
 13 14  1  0
M  CHG 1   4  -1
M  CHG 1  15  -1
M  CHG 1  25  -1
M  END
> <UniqueID>
61

> <SMILES>
O=C(C[N-]C(=O)c1ccccc1O)[N-]CC(=O)c1ccccc1[O-]

> <Energy>
34.8637453734988

> <Genealogy>
O=C(C[N-]C(=O)c1ccccc1O)[N-]CC(=O)c1ccccc1[O-] (protonated)
O=C(C[N-]C(=O)c1ccccc1O)[N-]CC(=O)c1ccccc1[O-] (3D coordinates assigned)
O=C(C[N-]C(=O)c1ccccc1O)[N-]CC(=O)c1ccccc1[O-] (optimized conformer: 34.8637453734988 kcal/mol)

> <smiles>
O=C(CNC(=O)c1ccccc1O)NCC(=O)c1ccccc1O

> <score_type>
oracle

> <origin>
adg

> <m_score__min__energy>
-14.029999999999999

> <m_primary>
energy

> <minimizedAffinity>
-6.75406

> <minimizedRMSD>
0.87180

> <CNNscore>
0.1532433182

> <CNNaffinity>
5.6094722748

> <CNN_VS>
0.8596141338

> <CNNaffinity_variance>
0.0597375035

$$$$
76:0


 30 32  0  0  0  0  0  0  0  0999 V2000
   57.1537   28.0815   44.7609 N   0  0  0  0  0  0  0  0  0  0  0  0
   57.7410   29.2640   45.3226 C   0  0  0  0  0  0  0  0  0  0  0  0
   57.6894   30.4999   44.6548 C   0  0  0  0  0  0  0  0  0  0  0  0
   58.3350   31.6165   45.1895 C   0  0  0  0  0  0  0  0  0  0  0  0
   59.0269   31.5202   46.4046 C   0  0  0  0  0  0  0  0  0  0  0  0
   59.0137   30.3044   47.1089 C   0  0  0  0  0  0  0  0  0  0  0  0
   58.3725   29.1847   46.5686 C   0  0  0  0  0  0  0  0  0  0  0  0
   59.7590   32.6848   46.9471 C   0  0  0  0  0  0  0  0  0  0  0  0
   59.1650   33.7940   47.0387 O   0  0  0  0  0  0  0  0  0  0  0  0
   61.1298   32.5740   47.3810 N   0  0  0  0  0  0  0  0  0  0  0  0
   61.6499   31.3248   47.9489 C   0  0  0  0  0  0  0  0  0  0  0  0
   62.5451   31.6502   49.1477 C   0  0  0  0  0  0  0  0  0  0  0  0
   63.6822   32.5306   48.7840 N   0  0  0  0  0  0  0  0  0  0  0  0
   64.1094   33.3307   49.9432 C   0  0  0  0  0  0  0  0  0  0  0  0
   63.4548   33.3863   47.5927 C   0  0  0  0  0  0  0  0  0  0  0  0
   61.9797   33.7705   47.3999 C   0  0  0  0  0  0  0  0  0  0  0  0
   57.8724   26.9843   44.1750 C   0  0  0  0  0  0  0  0  0  0  0  0
   58.2283   27.0687   42.9708 O   0  0  0  0  0  0  0  0  0  0  0  0
   58.1628   25.7400   44.9335 C   0  0  0  0  0  0  0  0  0  0  0  0
   57.5566   24.5977   44.5483 C   0  0  0  0  0  0  0  0  0  0  0  0
   56.2588   24.1265   45.0586 C   0  0  0  0  0  0  0  0  0  0  0  0
   55.8704   22.8396   45.0096 N   0  0  0  0  0  0  0  0  0  0  0  0
   54.6779   22.8490   45.6447 C   0  0  0  0  0  0  0  0  0  0  0  0
   53.9816   21.8123   45.7920 O   0  0  0  0  0  0  0  0  0  0  0  0
   54.2954   24.0573   46.1145 N   0  0  0  0  0  0  0  0  0  0  0  0
   55.3152   24.8530   45.7444 C   0  0  0  0  0  0  0  0  0  0  0  0
   55.3934   26.2095   46.0524 O   0  0  0  0  0  0  0  0  0  0  0  0
   54.6987   26.6231   46.5261 H   0  0  0  0  0  0  0  0  0  0  0  0
   58.6299   25.8983   47.3626 C   0  0  0  0  0  0  0  0  0  0  0  0
   59.0723   25.7855   46.1123 C   0  0  0  0  0  0  0  0  0  0  0  0
 29 30  2  0
 30 19  1  0
 19 20  2  0
 20 21  1  0
 21 22  1  0
 22 23  1  0
 23 24  2  0
 23 25  1  0
 25 26  1  0
 26 27  1  0
 19 17  1  0
 17 18  2  0
 17  1  1  0
  1  2  1  0
  2  3  2  0
  3  4  1  0
  4  5  2  0
  5  8  1  0
  8  9  2  0
  8 10  1  0
 10 11  1  0
 11 12  1  0
 12 13  1  0
 13 14  1  0
 13 15  1  0
 15 16  1  0
  5  6  1  0
  6  7  2  0
 26 21  2  0
  7  2  1  0
 16 10  1  0
 27 28  1  0
M  CHG 1   1  -1
M  CHG 1  22  -1
M  CHG 1  25  -1
M  END
> <UniqueID>
74

> <SMILES>
C=CC(=Cc1[n-]c(=O)[n-]c1O)C(=O)[N-]c1ccc(C(=O)N2CCN(C)CC2)cc1

> <Energy>
104.42891811113229

> <Genealogy>
C=CC(=Cc1[n-]c(=O)[n-]c1O)C(=O)[N-]c1ccc(C(=O)N2CCN(C)CC2)cc1 (protonated)
C=CC(=Cc1[n-]c(=O)[n-]c1O)C(=O)[N-]c1ccc(C(=O)N2CCN(C)CC2)cc1 (3D coordinates assigned)
C=CC(=Cc1[n-]c(=O)[n-]c1O)C(=O)[N-]c1ccc(C(=O)N2CCN(C)CC2)cc1 (nonaromatic ring conformer: 104.42891811113229 kcal/mol)

> <smiles>
C=CC(=Cc1[nH]c(=O)[nH]c1O)C(=O)Nc1ccc(C(=O)N2CCN(C)CC2)cc1

> <score_type>
oracle

> <origin>
adg

> <m_score__min__energy>
-15.449999999999999

> <m_primary>
energy

> <minimizedAffinity>
-8.14594

> <minimizedRMSD>
0.83660

> <CNNscore>
0.2159364820

> <CNNaffinity>
6.5526790619

> <CNN_VS>
1.4149624109

> <CNNaffinity_variance>
0.0536863394

$$$$
84:0


 33 36  0  0  0  0  0  0  0  0999 V2000
   57.5900   31.4800   52.3520 C   0  0  0  0  0  0  0  0  0  0  0  0
   57.1767   32.6730   52.2930 O   0  0  0  0  0  0  0  0  0  0  0  0
   58.9977   31.2050   52.1253 N   0  0  0  0  0  0  0  0  0  0  0  0
   59.9376   32.2788   51.8078 C   0  0  0  0  0  0  0  0  0  0  0  0
   60.2877   32.2438   50.3181 C   0  0  0  0  0  0  0  0  0  0  0  0
   60.2905   30.8907   49.7153 N   0  0  0  0  0  0  0  0  0  0  0  0
   60.6739   30.7988   48.3204 C   0  0  0  0  0  0  0  0  0  0  0  0
   61.3303   31.7424   47.7936 O   0  0  0  0  0  0  0  0  0  0  0  0
   59.8154   29.6737   50.4134 C   0  0  0  0  0  0  0  0  0  0  0  0
   59.5537   29.8747   51.9103 C   0  0  0  0  0  0  0  0  0  0  0  0
   54.0279   27.5846   54.3187 C   0  0  0  0  0  0  0  0  0  0  0  0
   54.7946   28.4667   53.6536 C   0  0  0  0  0  0  0  0  0  0  0  0
   56.1786   28.2138   53.6002 C   0  0  0  0  0  0  0  0  0  0  0  0
   57.0685   29.1825   53.1439 C   0  0  0  0  0  0  0  0  0  0  0  0
   56.6081   30.4384   52.7371 C   0  0  0  0  0  0  0  0  0  0  0  0
   55.2320   30.7017   52.7809 C   0  0  0  0  0  0  0  0  0  0  0  0
   54.2968   29.7005   53.1184 C   0  0  0  0  0  0  0  0  0  0  0  0
   52.9876   29.9820   52.8883 C   0  0  0  0  0  0  0  0  0  0  0  0
   52.3996   30.3828   51.5981 C   0  0  0  0  0  0  0  0  0  0  0  0
   52.3681   29.5835   50.5160 N   0  0  0  0  0  0  0  0  0  0  0  0
   51.6512   30.2961   49.6206 C   0  0  0  0  0  0  0  0  0  0  0  0
   51.4055   29.8769   48.4617 O   0  0  0  0  0  0  0  0  0  0  0  0
   51.2027   31.4877   50.0702 N   0  0  0  0  0  0  0  0  0  0  0  0
   51.6716   31.5229   51.3277 C   0  0  0  0  0  0  0  0  0  0  0  0
   51.4065   32.5535   52.2182 O   0  0  0  0  0  0  0  0  0  0  0  0
   60.2180   29.6761   47.4215 C   0  0  0  0  0  0  0  0  0  0  0  0
   58.7235   29.7947   47.0864 C   0  0  0  0  0  0  0  0  0  0  0  0
   58.4602   30.8085   45.9995 C   0  0  0  0  0  0  0  0  0  0  0  0
   58.1811   30.3904   44.6872 C   0  0  0  0  0  0  0  0  0  0  0  0
   57.9291   31.3344   43.6872 C   0  0  0  0  0  0  0  0  0  0  0  0
   57.9288   32.6991   43.9933 C   0  0  0  0  0  0  0  0  0  0  0  0
   58.1891   33.1215   45.3001 C   0  0  0  0  0  0  0  0  0  0  0  0
   58.4599   32.1820   46.2988 C   0  0  0  0  0  0  0  0  0  0  0  0
 11 12  2  0
 12 13  1  0
 13 14  2  0
 14 15  1  0
 15  1  1  0
  1  2  2  0
  1  3  1  0
  3  4  1  0
  4  5  1  0
  5  6  1  0
  6  7  1  0
  7  8  2  0
  7 26  1  0
 26 27  1  0
 27 28  1  0
 28 29  2  0
 29 30  1  0
 30 31  2  0
 31 32  1  0
 32 33  2  0
  6  9  1  0
  9 10  1  0
 15 16  2  0
 16 17  1  0
 17 18  2  0
 18 19  1  0
 19 20  1  0
 20 21  1  0
 21 22  2  0
 21 23  1  0
 23 24  1  0
 24 25  1  0
 17 12  1  0
 24 19  2  0
 10  3  1  0
 33 28  1  0
M  CHG 1  20  -1
M  CHG 1  23  -1
M  CHG 1  25  -1
M  END
> <UniqueID>
81

> <SMILES>
C=c1ccc(C(=O)N2CCN(C(=O)CCc3ccccc3)CC2)c/c1=C/c1[n-]c(=O)[n-]c1[O-]

> <Energy>
115.54973525383592

> <Genealogy>
C=c1ccc(C(=O)N2CCN(C(=O)CCc3ccccc3)CC2)cc1=Cc1[n-]c(=O)[n-]c1[O-] (protonated)
C=c1ccc(C(=O)N2CCN(C(=O)CCc3ccccc3)CC2)c/c1=C/c1[n-]c(=O)[n-]c1[O-] (cis-trans isomerization)
C=c1ccc(C(=O)N2CCN(C(=O)CCc3ccccc3)CC2)c/c1=C/c1[n-]c(=O)[n-]c1[O-] (3D coordinates assigned)
C=c1ccc(C(=O)N2CCN(C(=O)CCc3ccccc3)CC2)c/c1=C/c1[n-]c(=O)[n-]c1[O-] (nonaromatic ring conformer: 115.54973525383592 kcal/mol)

> <smiles>
C=c1ccc(C(=O)N2CCN(C(=O)CCc3ccccc3)CC2)cc1=Cc1[nH]c(=O)[nH]c1O

> <score_type>
oracle

> <origin>
adg

> <m_score__min__energy>
-20.030000000000001

> <m_primary>
energy

> <minimizedAffinity>
-7.79429

> <minimizedRMSD>
0.96844

> <CNNscore>
0.0551454313

> <CNNaffinity>
5.5063872337

> <CNN_VS>
0.3036521077

> <CNNaffinity_variance>
0.3429464102

$$$$
87:0


 33 36  0  0  0  0  0  0  0  0999 V2000
   55.5768   30.0011   43.5975 C   0  0  0  0  0  0  0  0  0  0  0  0
   56.5528   29.6084   44.4183 C   0  0  0  0  0  0  0  0  0  0  0  0
   56.4876   28.4884   45.1648 N   0  0  0  0  0  0  0  0  0  0  0  0
   57.6467   28.4057   45.8571 C   0  0  0  0  0  0  0  0  0  0  0  0
   57.9595   27.4041   46.6991 C   0  0  0  0  0  0  0  0  0  0  0  0
   58.4541   29.5024   45.5605 C   0  0  0  0  0  0  0  0  0  0  0  0
   57.7550   30.2672   44.6361 C   0  0  0  0  0  0  0  0  0  0  0  0
   58.1993   31.5577   44.0072 C   0  0  0  0  0  0  0  0  0  0  0  0
   55.7381   27.8510   45.1996 H   0  0  0  0  0  0  0  0  0  0  0  0
   57.8887   25.9770   46.3235 C   0  0  0  0  0  0  0  0  0  0  0  0
   56.6565   25.3324   46.1218 C   0  0  0  0  0  0  0  0  0  0  0  0
   55.4590   26.0225   46.2735 O   0  0  0  0  0  0  0  0  0  0  0  0
   56.6281   24.0244   45.7587 N   0  0  0  0  0  0  0  0  0  0  0  0
   57.7766   23.3242   45.5715 C   0  0  0  0  0  0  0  0  0  0  0  0
   57.7256   22.1120   45.2403 O   0  0  0  0  0  0  0  0  0  0  0  0
   58.9779   23.9320   45.7380 N   0  0  0  0  0  0  0  0  0  0  0  0
   59.0597   25.2385   46.1011 C   0  0  0  0  0  0  0  0  0  0  0  0
   60.1916   25.7711   46.2455 O   0  0  0  0  0  0  0  0  0  0  0  0
   59.7980   29.7930   46.0996 C   0  0  0  0  0  0  0  0  0  0  0  0
   60.7938   29.1787   45.6284 O   0  0  0  0  0  0  0  0  0  0  0  0
   59.9859   30.7674   47.1420 N   0  0  0  0  0  0  0  0  0  0  0  0
   59.1978   32.0118   47.1115 C   0  0  0  0  0  0  0  0  0  0  0  0
   59.5621   32.9418   48.2741 C   0  0  0  0  0  0  0  0  0  0  0  0
   59.6453   32.1325   49.5809 C   0  0  0  0  0  0  0  0  0  0  0  0
   60.7232   31.0185   49.5032 C   0  0  0  0  0  0  0  0  0  0  0  0
   61.1207   30.6378   48.0654 C   0  0  0  0  0  0  0  0  0  0  0  0
   59.7895   33.0287   50.8347 C   0  0  0  0  0  0  0  0  0  0  0  0
   61.2153   33.2345   51.2961 C   0  0  0  0  0  0  0  0  0  0  0  0
   61.6121   32.8231   52.5821 C   0  0  0  0  0  0  0  0  0  0  0  0
   62.9306   33.0075   53.0099 C   0  0  0  0  0  0  0  0  0  0  0  0
   63.8666   33.5971   52.1553 C   0  0  0  0  0  0  0  0  0  0  0  0
   63.4865   33.9955   50.8716 C   0  0  0  0  0  0  0  0  0  0  0  0
   62.1690   33.8124   50.4399 C   0  0  0  0  0  0  0  0  0  0  0  0
  1  2  2  0
  2  3  1  0
  3  4  1  0
  4  5  2  0
  5 10  1  0
 10 11  2  0
 11 12  1  0
 11 13  1  0
 13 14  1  0
 14 15  2  0
 14 16  1  0
 16 17  1  0
 17 18  2  0
  4  6  1  0
  6 19  1  0
 19 20  2  0
 19 21  1  0
 21 22  1  0
 22 23  1  0
 23 24  1  0
 24 27  1  0
 27 28  1  0
 28 29  2  0
 29 30  1  0
 30 31  2  0
 31 32  1  0
 32 33  2  0
 24 25  1  0
 25 26  1  0
  6  7  2  0
  7  8  1  0
  7  2  1  0
 17 10  1  0
 26 21  1  0
 33 28  1  0
  3  9  1  0
M  CHG 1  12  -1
M  CHG 1  13  -1
M  CHG 1  16  -1
M  END
> <UniqueID>
84

> <SMILES>
C=c1[nH]c(=Cc2c([O-])[n-]c(=O)[n-]c2=O)c(C(=O)N2CCC(Cc3ccccc3)CC2)c1C

> <Energy>
100.77463368296722

> <Genealogy>
C=c1[nH]c(=Cc2c([O-])[n-]c(=O)[n-]c2=O)c(C(=O)N2CCC(Cc3ccccc3)CC2)c1C (protonated)
C=c1[nH]c(=Cc2c([O-])[n-]c(=O)[n-]c2=O)c(C(=O)N2CCC(Cc3ccccc3)CC2)c1C (3D coordinates assigned)
C=c1[nH]c(=Cc2c([O-])[n-]c(=O)[n-]c2=O)c(C(=O)N2CCC(Cc3ccccc3)CC2)c1C (nonaromatic ring conformer: 100.77463368296722 kcal/mol)

> <smiles>
C=c1[nH]c(=Cc2c(O)[nH]c(=O)[nH]c2=O)c(C(=O)N2CCC(Cc3ccccc3)CC2)c1C

> <score_type>
oracle

> <origin>
adg

> <m_score__min__energy>
-16.559999999999999

> <m_primary>
energy

> <minimizedAffinity>
-8.73291

> <minimizedRMSD>
1.26074

> <CNNscore>
0.1379676610

> <CNNaffinity>
6.3839168549

> <CNN_VS>
0.8807740808

> <CNNaffinity_variance>
0.0622672737

$$$$
88:0


 34 37  0  0  0  0  0  0  0  0999 V2000
   58.0032   29.7300   52.8837 C   0  0  0  0  0  0  0  0  0  0  0  0
   58.5774   30.7183   53.6939 C   0  0  0  0  0  0  0  0  0  0  0  0
   59.8632   31.1858   53.4193 C   0  0  0  0  0  0  0  0  0  0  0  0
   60.5806   30.6723   52.3344 C   0  0  0  0  0  0  0  0  0  0  0  0
   60.0115   29.6897   51.5041 C   0  0  0  0  0  0  0  0  0  0  0  0
   58.7195   29.2148   51.7940 C   0  0  0  0  0  0  0  0  0  0  0  0
   55.4153   31.0582   52.3659 C   0  0  0  0  0  0  0  0  0  0  0  0
   55.5070   29.8358   52.9120 C   0  0  0  0  0  0  0  0  0  0  0  0
   54.4593   29.0291   53.3931 C   0  0  0  0  0  0  0  0  0  0  0  0
   53.1224   29.1695   53.3084 C   0  0  0  0  0  0  0  0  0  0  0  0
   55.0613   27.9485   54.0197 C   0  0  0  0  0  0  0  0  0  0  0  0
   56.4239   28.0950   53.8543 C   0  0  0  0  0  0  0  0  0  0  0  0
   57.4628   27.1630   54.3972 C   0  0  0  0  0  0  0  0  0  0  0  0
   56.6913   29.2320   53.1812 N   0  0  0  0  0  0  0  0  0  0  0  0
   52.4157   30.2931   52.6774 C   0  0  0  0  0  0  0  0  0  0  0  0
   51.6986   31.1966   53.3675 N   0  0  0  0  0  0  0  0  0  0  0  0
   51.1536   31.9672   52.4008 C   0  0  0  0  0  0  0  0  0  0  0  0
   50.4127   32.9504   52.6566 O   0  0  0  0  0  0  0  0  0  0  0  0
   51.4565   31.5924   51.1407 N   0  0  0  0  0  0  0  0  0  0  0  0
   52.2434   30.5218   51.3274 C   0  0  0  0  0  0  0  0  0  0  0  0
   52.7664   29.7646   50.2830 O   0  0  0  0  0  0  0  0  0  0  0  0
   52.5893   30.0057   49.3951 H   0  0  0  0  0  0  0  0  0  0  0  0
   60.7772   29.1399   50.3638 C   0  0  0  0  0  0  0  0  0  0  0  0
   62.0365   29.1856   50.3817 O   0  0  0  0  0  0  0  0  0  0  0  0
   60.1111   28.5579   49.2324 N   0  0  0  0  0  0  0  0  0  0  0  0
   60.5593   27.2706   48.6956 C   0  0  0  0  0  0  0  0  0  0  0  0
   60.6225   27.3588   47.1689 C   0  0  0  0  0  0  0  0  0  0  0  0
   59.3100   27.7006   46.5658 N   0  0  0  0  0  0  0  0  0  0  0  0
   58.3971   28.4688   47.4564 C   0  0  0  0  0  0  0  0  0  0  0  0
   59.1399   29.3530   48.4686 C   0  0  0  0  0  0  0  0  0  0  0  0
   59.4820   28.3499   45.2489 C   0  0  0  0  0  0  0  0  0  0  0  0
   58.2816   28.0486   44.3433 C   0  0  0  0  0  0  0  0  0  0  0  0
   57.4234   29.1718   44.2738 O   0  0  0  0  0  0  0  0  0  0  0  0
   58.1550   30.3649   44.4569 C   0  0  0  0  0  0  0  0  0  0  0  0
  7  8  2  0
  8  9  1  0
  9 10  2  0
 10 15  1  0
 15 16  1  0
 16 17  1  0
 17 18  2  0
 17 19  1  0
 19 20  1  0
 20 21  1  0
  9 11  1  0
 11 12  2  0
 12 13  1  0
 12 14  1  0
 14  1  1  0
  1  2  2  0
  2  3  1  0
  3  4  2  0
  4  5  1  0
  5 23  1  0
 23 24  2  0
 23 25  1  0
 25 26  1  0
 26 27  1  0
 27 28  1  0
 28 31  1  0
 31 32  1  0
 32 33  1  0
 33 34  1  0
 28 29  1  0
 29 30  1  0
  5  6  2  0
 14  8  1  0
  6  1  1  0
 20 15  2  0
 30 25  1  0
 21 22  1  0
M  CHG 1  16  -1
M  CHG 1  19  -1
M  END
> <UniqueID>
85

> <SMILES>
C=c1c(=Cc2[n-]c(=O)[n-]c2O)cc(C)n1-c1cccc(C(=O)N2CCN(CCOC)CC2)c1

> <Energy>
152.31900231629092

> <Genealogy>
C=c1c(=Cc2[n-]c(=O)[n-]c2O)cc(C)n1-c1cccc(C(=O)N2CCN(CCOC)CC2)c1 (protonated)
C=c1c(=Cc2[n-]c(=O)[n-]c2O)cc(C)n1-c1cccc(C(=O)N2CCN(CCOC)CC2)c1 (3D coordinates assigned)
C=c1c(=Cc2[n-]c(=O)[n-]c2O)cc(C)n1-c1cccc(C(=O)N2CCN(CCOC)CC2)c1 (nonaromatic ring conformer: 152.31900231629092 kcal/mol)

> <smiles>
C=c1c(=Cc2[nH]c(=O)[nH]c2O)cc(C)n1-c1cccc(C(=O)N2CCN(CCOC)CC2)c1

> <score_type>
oracle

> <origin>
adg

> <m_score__min__energy>
-14.24

> <m_primary>
energy

> <minimizedAffinity>
-6.46319

> <minimizedRMSD>
0.92065

> <CNNscore>
0.0735023618

> <CNNaffinity>
4.7108511925

> <CNN_VS>
0.3462586999

> <CNNaffinity_variance>
0.9985769391

$$$$
4:0


 32 35  0  0  0  0  0  0  0  0999 V2000
   60.7878   28.7266   50.7191 O   0  0  0  0  0  0  0  0  0  0  0  0
   60.1644   29.3938   49.8496 C   0  0  0  0  0  0  0  0  0  0  0  0
   59.3921   28.6822   48.7848 C   0  0  0  0  0  0  0  0  0  0  0  0
   60.4671   27.5343   47.8580 S   0  0  0  0  0  0  0  0  0  0  0  0
   59.1116   26.6449   47.0980 C   0  0  0  0  0  0  0  0  0  0  0  0
   57.8208   26.9720   47.2735 N   0  0  0  0  0  0  0  0  0  0  0  0
   57.1164   26.0909   46.5874 N   0  0  0  0  0  0  0  0  0  0  0  0
   57.9977   25.2503   46.0119 C   0  0  0  0  0  0  0  0  0  0  0  0
   59.2754   25.5671   46.3082 N   0  0  0  0  0  0  0  0  0  0  0  0
   57.6073   24.1060   45.1615 C   0  0  0  0  0  0  0  0  0  0  0  0
   56.5283   24.2179   44.2657 C   0  0  0  0  0  0  0  0  0  0  0  0
   56.1636   23.1350   43.4584 C   0  0  0  0  0  0  0  0  0  0  0  0
   56.8700   21.9319   43.5385 C   0  0  0  0  0  0  0  0  0  0  0  0
   56.5071   20.8576   42.7361 O   0  0  0  0  0  0  0  0  0  0  0  0
   57.9440   21.8114   44.4253 C   0  0  0  0  0  0  0  0  0  0  0  0
   58.3117   22.8903   45.2341 C   0  0  0  0  0  0  0  0  0  0  0  0
   60.1573   30.8264   49.8867 N   0  0  0  0  0  0  0  0  0  0  0  0
   60.3365   31.7143   48.7745 C   0  0  0  0  0  0  0  0  0  0  0  0
   61.4542   32.5577   48.7650 C   0  0  0  0  0  0  0  0  0  0  0  0
   61.6643   33.4447   47.7061 C   0  0  0  0  0  0  0  0  0  0  0  0
   60.7484   33.5070   46.6547 C   0  0  0  0  0  0  0  0  0  0  0  0
   59.6045   32.6974   46.6677 C   0  0  0  0  0  0  0  0  0  0  0  0
   59.3999   31.8028   47.7283 C   0  0  0  0  0  0  0  0  0  0  0  0
   58.4311   32.8049   45.3514 S   0  0  0  0  0  0  0  0  0  0  0  0
   57.0477   32.8107   45.9402 O   0  0  0  0  0  0  0  0  0  0  0  0
   58.6248   34.1069   44.6249 O   0  0  0  0  0  0  0  0  0  0  0  0
   58.5661   31.4835   44.2111 N   0  0  0  0  0  0  0  0  0  0  0  0
   57.4286   31.4166   43.2682 C   0  0  0  0  0  0  0  0  0  0  0  0
   56.4215   30.3109   43.6227 C   0  0  0  0  0  0  0  0  0  0  0  0
   56.3866   30.1092   45.0163 O   0  0  0  0  0  0  0  0  0  0  0  0
   57.5952   29.5134   45.4449 C   0  0  0  0  0  0  0  0  0  0  0  0
   58.8580   30.1969   44.8697 C   0  0  0  0  0  0  0  0  0  0  0  0
  1  2  2  0
  2  3  1  0
  3  4  1  0
  4  5  1  0
  5  6  2  0
  6  7  1  0
  7  8  1  0
  8 10  1  0
 10 11  2  0
 11 12  1  0
 12 13  2  0
 13 14  1  0
 13 15  1  0
 15 16  2  0
  8  9  2  0
  2 17  1  0
 17 18  1  0
 18 19  2  0
 19 20  1  0
 20 21  2  0
 21 22  1  0
 22 24  1  0
 24 25  2  0
 24 26  2  0
 24 27  1  0
 27 28  1  0
 28 29  1  0
 29 30  1  0
 30 31  1  0
 31 32  1  0
 22 23  2  0
  9  5  1  0
 23 18  1  0
 16 10  1  0
 32 27  1  0
M  CHG 1   7  -1
M  CHG 1  14  -1
M  CHG 1  17  -1
M  END
> <UniqueID>
5

> <SMILES>
O=C(CSc1n[n-]c(-c2ccc([O-])cc2)n1)[N-]c1cccc(S(=O)(=O)N2CCOCC2)c1

> <Energy>
93.15752376913919

> <Genealogy>
O=C(CSc1n[n-]c(-c2ccc([O-])cc2)n1)[N-]c1cccc(S(=O)(=O)N2CCOCC2)c1 (protonated)
O=C(CSc1n[n-]c(-c2ccc([O-])cc2)n1)[N-]c1cccc(S(=O)(=O)N2CCOCC2)c1 (3D coordinates assigned)
O=C(CSc1n[n-]c(-c2ccc([O-])cc2)n1)[N-]c1cccc(S(=O)(=O)N2CCOCC2)c1 (nonaromatic ring conformer: 93.15752376913919 kcal/mol)

> <smiles>
O=C(CSc1n[nH]c(-c2ccc(O)cc2)n1)Nc1cccc(S(=O)(=O)N2CCOCC2)c1

> <score_type>
oracle

> <origin>
adg

> <m_score__min__energy>
-15.34

> <m_primary>
energy

> <minimizedAffinity>
-7.93375

> <minimizedRMSD>
1.23282

> <CNNscore>
0.4454498589

> <CNNaffinity>
6.8383774757

> <CNN_VS>
3.0461542606

> <CNNaffinity_variance>
0.0126686767

$$$$
5:0


 28 30  0  0  0  0  0  0  0  0999 V2000
   59.1723   29.1795   48.0887 C   0  0  0  0  0  0  0  0  0  0  0  0
   58.8503   29.5590   46.8427 C   0  0  0  0  0  0  0  0  0  0  0  0
   58.9924   28.8024   45.6662 C   0  0  0  0  0  0  0  0  0  0  0  0
   59.2967   27.5028   45.4804 C   0  0  0  0  0  0  0  0  0  0  0  0
   58.7412   29.6672   44.6158 C   0  0  0  0  0  0  0  0  0  0  0  0
   58.4065   30.8841   45.1718 C   0  0  0  0  0  0  0  0  0  0  0  0
   58.0294   32.1010   44.3800 C   0  0  0  0  0  0  0  0  0  0  0  0
   58.4505   30.8191   46.5230 N   0  0  0  0  0  0  0  0  0  0  0  0
   58.4514   26.3611   45.8572 C   0  0  0  0  0  0  0  0  0  0  0  0
   59.0171   24.7904   46.0796 S   0  0  0  0  0  0  0  0  0  0  0  0
   57.4674   24.1714   46.2788 C   0  0  0  0  0  0  0  0  0  0  0  0
   57.2114   22.9602   46.5107 O   0  0  0  0  0  0  0  0  0  0  0  0
   56.5097   25.1131   46.1518 N   0  0  0  0  0  0  0  0  0  0  0  0
   57.0559   26.3317   45.8999 C   0  0  0  0  0  0  0  0  0  0  0  0
   56.2651   27.4530   45.6784 O   0  0  0  0  0  0  0  0  0  0  0  0
   58.2192   31.9422   47.4437 C   0  0  0  0  0  0  0  0  0  0  0  0
   59.5054   32.3551   48.0952 C   0  0  0  0  0  0  0  0  0  0  0  0
   59.5067   33.3236   48.9033 O   0  0  0  0  0  0  0  0  0  0  0  0
   60.7246   31.6581   47.7980 N   0  0  0  0  0  0  0  0  0  0  0  0
   60.6953   30.8856   47.1884 H   0  0  0  0  0  0  0  0  0  0  0  0
   61.9853   32.0513   48.3610 C   0  0  0  0  0  0  0  0  0  0  0  0
   62.7527   32.9968   47.6723 C   0  0  0  0  0  0  0  0  0  0  0  0
   63.9675   33.4357   48.1917 C   0  0  0  0  0  0  0  0  0  0  0  0
   64.4292   32.9367   49.4084 C   0  0  0  0  0  0  0  0  0  0  0  0
   63.6870   31.9771   50.1154 C   0  0  0  0  0  0  0  0  0  0  0  0
   64.2344   31.4539   51.4192 C   0  0  0  0  0  0  0  0  0  0  0  0
   62.4702   31.4901   49.5699 C   0  0  0  0  0  0  0  0  0  0  0  0
   61.6992   30.3982   50.2748 C   0  0  0  0  0  0  0  0  0  0  0  0
  1  2  2  0
  2  3  1  0
  3  4  2  0
  4  9  1  0
  9 10  1  0
 10 11  1  0
 11 12  2  0
 11 13  1  0
 13 14  1  0
 14 15  1  0
  3  5  1  0
  5  6  2  0
  6  7  1  0
  6  8  1  0
  8 16  1  0
 16 17  1  0
 17 18  2  0
 17 19  1  0
 19 21  1  0
 21 22  2  0
 22 23  1  0
 23 24  2  0
 24 25  1  0
 25 26  1  0
 25 27  2  0
 27 28  1  0
  8  2  1  0
 27 21  1  0
 14  9  2  0
 19 20  1  0
M  CHG 1  13  -1
M  CHG 1  15  -1
M  END
> <UniqueID>
6

> <SMILES>
C=c1c(=Cc2sc(=O)[n-]c2[O-])cc(C)n1CC(=O)Nc1cccc(C)c1C

> <Energy>
124.41048503839612

> <Genealogy>
C=c1c(=Cc2sc(=O)[n-]c2[O-])cc(C)n1CC(=O)Nc1cccc(C)c1C (protonated)
C=c1c(=Cc2sc(=O)[n-]c2[O-])cc(C)n1CC(=O)Nc1cccc(C)c1C (3D coordinates assigned)
C=c1c(=Cc2sc(=O)[n-]c2[O-])cc(C)n1CC(=O)Nc1cccc(C)c1C (optimized conformer: 124.41048503839612 kcal/mol)

> <smiles>
C=c1c(=Cc2sc(=O)[nH]c2O)cc(C)n1CC(=O)Nc1cccc(C)c1C

> <score_type>
oracle

> <origin>
adg

> <m_score__min__energy>
-14.539999999999999

> <m_primary>
energy

> <minimizedAffinity>
-6.70122

> <minimizedRMSD>
1.24616

> <CNNscore>
0.2943474054

> <CNNaffinity>
6.9870629311

> <CNN_VS>
2.0566239357

> <CNNaffinity_variance>
0.1941001862

$$$$
9:0


 33 36  0  0  0  0  0  0  0  0999 V2000
   58.0588   27.1903   43.1448 C   0  0  0  0  0  0  0  0  0  0  0  0
   58.0596   27.9149   44.2750 C   0  0  0  0  0  0  0  0  0  0  0  0
   58.5610   27.5191   45.5261 C   0  0  0  0  0  0  0  0  0  0  0  0
   58.9623   26.3153   45.9799 C   0  0  0  0  0  0  0  0  0  0  0  0
   58.5881   28.6583   46.3088 C   0  0  0  0  0  0  0  0  0  0  0  0
   58.0502   29.6801   45.5524 C   0  0  0  0  0  0  0  0  0  0  0  0
   57.7071   29.2262   44.3247 N   0  0  0  0  0  0  0  0  0  0  0  0
   57.1303   30.0245   43.2365 C   0  0  0  0  0  0  0  0  0  0  0  0
   57.9548   31.0829   46.0117 C   0  0  0  0  0  0  0  0  0  0  0  0
   57.1438   31.8633   45.4425 O   0  0  0  0  0  0  0  0  0  0  0  0
   58.8194   31.5905   47.0455 N   0  0  0  0  0  0  0  0  0  0  0  0
   59.2870   32.9817   46.9678 C   0  0  0  0  0  0  0  0  0  0  0  0
   60.1086   33.3853   48.1996 C   0  0  0  0  0  0  0  0  0  0  0  0
   61.0550   32.3194   48.5690 N   0  0  0  0  0  0  0  0  0  0  0  0
   62.3829   32.6238   49.0536 C   0  0  0  0  0  0  0  0  0  0  0  0
   62.7955   34.0202   49.4088 C   0  0  0  0  0  0  0  0  0  0  0  0
   63.2311   31.6980   49.1741 O   0  0  0  0  0  0  0  0  0  0  0  0
   60.6135   30.9155   48.5732 C   0  0  0  0  0  0  0  0  0  0  0  0
   59.1275   30.7872   48.2342 C   0  0  0  0  0  0  0  0  0  0  0  0
   58.2302   25.0498   45.8151 C   0  0  0  0  0  0  0  0  0  0  0  0
   58.8390   23.8558   45.6501 N   0  0  0  0  0  0  0  0  0  0  0  0
   57.8205   22.9686   45.6849 C   0  0  0  0  0  0  0  0  0  0  0  0
   57.9921   21.7264   45.5658 O   0  0  0  0  0  0  0  0  0  0  0  0
   56.6099   23.5374   45.8802 N   0  0  0  0  0  0  0  0  0  0  0  0
   56.8764   24.8487   45.9911 C   0  0  0  0  0  0  0  0  0  0  0  0
   55.9292   25.8234   46.2838 O   0  0  0  0  0  0  0  0  0  0  0  0
   55.3236   22.8710   46.0744 C   0  0  0  0  0  0  0  0  0  0  0  0
   55.4025   21.9328   47.2470 C   0  0  0  0  0  0  0  0  0  0  0  0
   55.0969   20.5727   47.0951 C   0  0  0  0  0  0  0  0  0  0  0  0
   55.1348   19.7199   48.1998 C   0  0  0  0  0  0  0  0  0  0  0  0
   55.4712   20.2390   49.4520 C   0  0  0  0  0  0  0  0  0  0  0  0
   55.7513   21.5623   49.5878 N   0  0  0  0  0  0  0  0  0  0  0  0
   55.7213   22.4123   48.5253 C   0  0  0  0  0  0  0  0  0  0  0  0
  1  2  2  0
  2  3  1  0
  3  4  2  0
  4 20  1  0
 20 21  1  0
 21 22  1  0
 22 23  2  0
 22 24  1  0
 24 27  1  0
 27 28  1  0
 28 29  2  0
 29 30  1  0
 30 31  2  0
 31 32  1  0
 32 33  2  0
 24 25  1  0
 25 26  1  0
  3  5  1  0
  5  6  2  0
  6  9  1  0
  9 10  2  0
  9 11  1  0
 11 12  1  0
 12 13  1  0
 13 14  1  0
 14 15  1  0
 15 16  1  0
 15 17  2  0
 14 18  1  0
 18 19  1  0
  6  7  1  0
  7  8  1  0
  7  2  1  0
 25 20  2  0
 19 11  1  0
 33 28  1  0
M  CHG 1  21  -1
M  CHG 1  26  -1
M  END
> <UniqueID>
10

> <SMILES>
C=c1c(=Cc2[n-]c(=O)n(Cc3cccnc3)c2[O-])cc(C(=O)N2CCN(C(C)=O)CC2)n1C

> <Energy>
136.91020849175936

> <Genealogy>
C=c1c(=Cc2[n-]c(=O)n(Cc3cccnc3)c2[O-])cc(C(=O)N2CCN(C(C)=O)CC2)n1C (protonated)
C=c1c(=Cc2[n-]c(=O)n(Cc3cccnc3)c2[O-])cc(C(=O)N2CCN(C(C)=O)CC2)n1C (3D coordinates assigned)
C=c1c(=Cc2[n-]c(=O)n(Cc3cccnc3)c2[O-])cc(C(=O)N2CCN(C(C)=O)CC2)n1C (nonaromatic ring conformer: 136.91020849175936 kcal/mol)

> <smiles>
C=c1c(=Cc2[nH]c(=O)n(Cc3cccnc3)c2O)cc(C(=O)N2CCN(C(C)=O)CC2)n1C

> <score_type>
oracle

> <origin>
adg

> <m_score__min__energy>
-14.390000000000001

> <m_primary>
energy

> <minimizedAffinity>
-8.18466

> <minimizedRMSD>
1.61553

> <CNNscore>
0.0896711126

> <CNNaffinity>
6.3856501579

> <CNN_VS>
0.5726083517

> <CNNaffinity_variance>
0.0252831075

$$$$
18:0


 33 37  0  0  0  0  0  0  0  0999 V2000
   59.6168   30.9095   47.1038 C   0  0  0  0  0  0  0  0  0  0  0  0
   60.0671   32.0181   46.7018 O   0  0  0  0  0  0  0  0  0  0  0  0
   59.9356   30.4527   48.4391 N   0  0  0  0  0  0  0  0  0  0  0  0
   59.9736   29.0174   48.7488 C   0  0  0  0  0  0  0  0  0  0  0  0
   60.7392   28.7573   50.0474 C   0  0  0  0  0  0  0  0  0  0  0  0
   60.1654   29.5580   51.1453 N   0  0  0  0  0  0  0  0  0  0  0  0
   60.0731   31.0165   50.8471 C   0  0  0  0  0  0  0  0  0  0  0  0
   60.4854   31.4022   49.4153 C   0  0  0  0  0  0  0  0  0  0  0  0
   56.0928   29.8262   44.1001 C   0  0  0  0  0  0  0  0  0  0  0  0
   57.1639   29.6096   44.8659 C   0  0  0  0  0  0  0  0  0  0  0  0
   57.6600   30.5523   45.6346 O   0  0  0  0  0  0  0  0  0  0  0  0
   58.7704   30.1212   46.1856 C   0  0  0  0  0  0  0  0  0  0  0  0
   59.0301   28.8303   45.7639 C   0  0  0  0  0  0  0  0  0  0  0  0
   57.9758   28.4709   44.9428 C   0  0  0  0  0  0  0  0  0  0  0  0
   57.8501   27.2481   44.3960 C   0  0  0  0  0  0  0  0  0  0  0  0
   57.7330   25.9839   45.1396 C   0  0  0  0  0  0  0  0  0  0  0  0
   58.5803   24.9436   45.0240 N   0  0  0  0  0  0  0  0  0  0  0  0
   57.9922   23.9804   45.7674 C   0  0  0  0  0  0  0  0  0  0  0  0
   58.5021   22.8389   45.9226 O   0  0  0  0  0  0  0  0  0  0  0  0
   56.8122   24.3308   46.3209 N   0  0  0  0  0  0  0  0  0  0  0  0
   56.6567   25.5972   45.9001 C   0  0  0  0  0  0  0  0  0  0  0  0
   55.5483   26.3804   46.2008 O   0  0  0  0  0  0  0  0  0  0  0  0
   60.8890   29.2932   52.4074 C   0  0  0  0  0  0  0  0  0  0  0  0
   62.3685   29.4276   52.2006 C   0  0  0  0  0  0  0  0  0  0  0  0
   63.2949   28.4011   52.3719 C   0  0  0  0  0  0  0  0  0  0  0  0
   64.5173   28.9804   52.1081 C   0  0  0  0  0  0  0  0  0  0  0  0
   65.8008   28.4366   52.1181 C   0  0  0  0  0  0  0  0  0  0  0  0
   66.8767   29.2886   51.8027 C   0  0  0  0  0  0  0  0  0  0  0  0
   66.6456   30.6470   51.4907 C   0  0  0  0  0  0  0  0  0  0  0  0
   65.3368   31.1665   51.4913 C   0  0  0  0  0  0  0  0  0  0  0  0
   64.2918   30.2996   51.8060 C   0  0  0  0  0  0  0  0  0  0  0  0
   62.9802   30.5866   51.8615 N   0  0  0  0  0  0  0  0  0  0  0  0
   62.5535   31.4573   51.6912 H   0  0  0  0  0  0  0  0  0  0  0  0
  9 10  2  0
 10 11  1  0
 11 12  1  0
 12  1  1  0
  1  2  2  0
  1  3  1  0
  3  4  1  0
  4  5  1  0
  5  6  1  0
  6 23  1  0
 23 24  1  0
 24 25  2  0
 25 26  1  0
 26 27  2  0
 27 28  1  0
 28 29  2  0
 29 30  1  0
 30 31  2  0
 31 32  1  0
  6  7  1  0
  7  8  1  0
 12 13  2  0
 13 14  1  0
 14 15  2  0
 15 16  1  0
 16 17  1  0
 17 18  1  0
 18 19  2  0
 18 20  1  0
 20 21  1  0
 21 22  1  0
 14 10  1  0
 21 16  2  0
  8  3  1  0
 32 24  1  0
 31 26  1  0
 32 33  1  0
M  CHG 1  17  -1
M  CHG 1  20  -1
M  CHG 1  22  -1
M  END
> <UniqueID>
19

> <SMILES>
C=c1oc(C(=O)N2CCN(Cc3cc4ccccc4[nH]3)CC2)cc1=Cc1[n-]c(=O)[n-]c1[O-]

> <Energy>
164.3274923694636

> <Genealogy>
C=c1oc(C(=O)N2CCN(Cc3cc4ccccc4[nH]3)CC2)cc1=Cc1[n-]c(=O)[n-]c1[O-] (protonated)
C=c1oc(C(=O)N2CCN(Cc3cc4ccccc4[nH]3)CC2)cc1=Cc1[n-]c(=O)[n-]c1[O-] (3D coordinates assigned)
C=c1oc(C(=O)N2CCN(Cc3cc4ccccc4[nH]3)CC2)cc1=Cc1[n-]c(=O)[n-]c1[O-] (nonaromatic ring conformer: 164.3274923694636 kcal/mol)

> <smiles>
C=c1oc(C(=O)N2CCN(Cc3cc4ccccc4[nH]3)CC2)cc1=Cc1[nH]c(=O)[nH]c1O

> <score_type>
oracle

> <origin>
adg

> <m_score__min__energy>
-18.32

> <m_primary>
energy

> <minimizedAffinity>
-7.86292

> <minimizedRMSD>
1.54592

> <CNNscore>
0.0665399134

> <CNNaffinity>
5.4942107201

> <CNN_VS>
0.3655843139

> <CNNaffinity_variance>
0.1986681819

$$$$
28:0


 32 35  0  0  0  0  0  0  0  0999 V2000
   59.2786   33.4432   45.6222 C   0  0  0  0  0  0  0  0  0  0  0  0
   59.8306   33.2736   46.8315 C   0  0  0  0  0  0  0  0  0  0  0  0
   59.8572   34.3631   47.6410 N   0  0  0  0  0  0  0  0  0  0  0  0
   60.1991   34.3042   48.9483 C   0  0  0  0  0  0  0  0  0  0  0  0
   60.4861   33.0777   49.5448 C   0  0  0  0  0  0  0  0  0  0  0  0
   60.4912   31.9131   48.7480 C   0  0  0  0  0  0  0  0  0  0  0  0
   60.7397   30.6615   49.3257 O   0  0  0  0  0  0  0  0  0  0  0  0
   60.2584   32.0052   47.3475 C   0  0  0  0  0  0  0  0  0  0  0  0
   60.4722   30.8945   46.5885 C   0  0  0  0  0  0  0  0  0  0  0  0
   60.8938   30.5932   50.2474 H   0  0  0  0  0  0  0  0  0  0  0  0
   60.8456   33.0562   50.9798 C   0  0  0  0  0  0  0  0  0  0  0  0
   59.9336   33.2003   51.8402 O   0  0  0  0  0  0  0  0  0  0  0  0
   62.1962   32.7929   51.4123 N   0  0  0  0  0  0  0  0  0  0  0  0
   62.4155   32.1685   52.7265 C   0  0  0  0  0  0  0  0  0  0  0  0
   63.9055   31.9553   53.0061 C   0  0  0  0  0  0  0  0  0  0  0  0
   64.5645   31.4242   51.8046 N   0  0  0  0  0  0  0  0  0  0  0  0
   64.3847   32.1087   50.5147 C   0  0  0  0  0  0  0  0  0  0  0  0
   63.3521   33.2381   50.6168 C   0  0  0  0  0  0  0  0  0  0  0  0
   65.3230   30.2004   51.8613 C   0  0  0  0  0  0  0  0  0  0  0  0
   64.6994   28.9919   52.2211 C   0  0  0  0  0  0  0  0  0  0  0  0
   65.4337   27.8023   52.2613 C   0  0  0  0  0  0  0  0  0  0  0  0
   66.7935   27.8081   51.9388 C   0  0  0  0  0  0  0  0  0  0  0  0
   67.4205   29.0021   51.5741 C   0  0  0  0  0  0  0  0  0  0  0  0
   66.6889   30.1940   51.5310 C   0  0  0  0  0  0  0  0  0  0  0  0
   59.5538   29.7438   46.4430 C   0  0  0  0  0  0  0  0  0  0  0  0
   59.9355   28.4911   46.9451 C   0  0  0  0  0  0  0  0  0  0  0  0
   59.1020   27.3799   46.7787 C   0  0  0  0  0  0  0  0  0  0  0  0
   57.8922   27.5074   46.0894 C   0  0  0  0  0  0  0  0  0  0  0  0
   57.0676   26.4009   45.9301 O   0  0  0  0  0  0  0  0  0  0  0  0
   57.5175   28.7479   45.5567 C   0  0  0  0  0  0  0  0  0  0  0  0
   56.3225   28.8757   44.8595 O   0  0  0  0  0  0  0  0  0  0  0  0
   58.3502   29.8590   45.7220 C   0  0  0  0  0  0  0  0  0  0  0  0
  1  2  2  0
  2  3  1  0
  3  4  2  0
  4  5  1  0
  5 11  1  0
 11 12  2  0
 11 13  1  0
 13 14  1  0
 14 15  1  0
 15 16  1  0
 16 19  1  0
 19 20  2  0
 20 21  1  0
 21 22  2  0
 22 23  1  0
 23 24  2  0
 16 17  1  0
 17 18  1  0
  5  6  2  0
  6  7  1  0
  6  8  1  0
  8  9  2  0
  9 25  1  0
 25 26  2  0
 26 27  1  0
 27 28  2  0
 28 29  1  0
 28 30  1  0
 30 31  1  0
 30 32  2  0
  8  2  1  0
 32 25  1  0
 18 13  1  0
 24 19  1  0
  7 10  1  0
M  CHG 1  29  -1
M  CHG 1  31  -1
M  END
> <UniqueID>
29

> <SMILES>
C=c1ncc(C(=O)N2CCN(c3ccccc3)CC2)c(O)c1=Cc1ccc([O-])c([O-])c1

> <Energy>
91.32904808593848

> <Genealogy>
C=c1ncc(C(=O)N2CCN(c3ccccc3)CC2)c(O)c1=Cc1ccc([O-])c([O-])c1 (protonated)
C=c1ncc(C(=O)N2CCN(c3ccccc3)CC2)c(O)c1=Cc1ccc([O-])c([O-])c1 (3D coordinates assigned)
C=c1ncc(C(=O)N2CCN(c3ccccc3)CC2)c(O)c1=Cc1ccc([O-])c([O-])c1 (nonaromatic ring conformer: 91.32904808593848 kcal/mol)

> <smiles>
C=c1ncc(C(=O)N2CCN(c3ccccc3)CC2)c(O)c1=Cc1ccc(O)c(O)c1

> <score_type>
oracle

> <origin>
adg

> <m_score__min__energy>
-16.309999999999999

> <m_primary>
energy

> <minimizedAffinity>
-8.33801

> <minimizedRMSD>
2.01618

> <CNNscore>
0.2032960653

> <CNNaffinity>
6.3196721077

> <CNN_VS>
1.2847645283

> <CNNaffinity_variance>
0.0134448558

$$$$
38:0


 28 31  0  0  0  0  0  0  0  0999 V2000
   54.8287   28.1370   54.1761 C   0  0  0  0  0  0  0  0  0  0  0  0
   55.4318   29.1654   53.5586 C   0  0  0  0  0  0  0  0  0  0  0  0
   54.7981   30.2390   52.9262 C   0  0  0  0  0  0  0  0  0  0  0  0
   53.4747   30.4873   52.8700 C   0  0  0  0  0  0  0  0  0  0  0  0
   55.8113   31.0439   52.4222 C   0  0  0  0  0  0  0  0  0  0  0  0
   57.0066   30.4315   52.7432 C   0  0  0  0  0  0  0  0  0  0  0  0
   56.7778   29.2926   53.4388 N   0  0  0  0  0  0  0  0  0  0  0  0
   57.7757   28.4276   54.0069 C   0  0  0  0  0  0  0  0  0  0  0  0
   58.4807   27.7065   53.2531 O   0  0  0  0  0  0  0  0  0  0  0  0
   57.9985   28.3796   55.4847 C   0  0  0  0  0  0  0  0  0  0  0  0
   52.7051   30.6049   51.6144 C   0  0  0  0  0  0  0  0  0  0  0  0
   51.7058   31.5164   51.3630 C   0  0  0  0  0  0  0  0  0  0  0  0
   51.3084   32.5407   52.2140 O   0  0  0  0  0  0  0  0  0  0  0  0
   51.1448   31.2847   50.1608 N   0  0  0  0  0  0  0  0  0  0  0  0
   51.8221   30.2036   49.7187 C   0  0  0  0  0  0  0  0  0  0  0  0
   51.5815   29.6512   48.6137 O   0  0  0  0  0  0  0  0  0  0  0  0
   52.7656   29.7588   50.5723 N   0  0  0  0  0  0  0  0  0  0  0  0
   53.3652   28.9864   50.4579 H   0  0  0  0  0  0  0  0  0  0  0  0
   58.3516   31.0655   52.5322 C   0  0  0  0  0  0  0  0  0  0  0  0
   58.6777   31.0923   51.0737 C   0  0  0  0  0  0  0  0  0  0  0  0
   58.5504   32.1665   50.3150 O   0  0  0  0  0  0  0  0  0  0  0  0
   58.9498   31.8418   49.1107 C   0  0  0  0  0  0  0  0  0  0  0  0
   58.9958   32.6551   47.9800 C   0  0  0  0  0  0  0  0  0  0  0  0
   59.4720   32.0874   46.7834 C   0  0  0  0  0  0  0  0  0  0  0  0
   59.8856   30.7373   46.7448 C   0  0  0  0  0  0  0  0  0  0  0  0
   59.8285   29.9410   47.9061 C   0  0  0  0  0  0  0  0  0  0  0  0
   59.3517   30.5323   49.0723 C   0  0  0  0  0  0  0  0  0  0  0  0
   59.1847   30.0225   50.3380 C   0  0  0  0  0  0  0  0  0  0  0  0
  1  2  2  0
  2  3  1  0
  3  4  2  0
  4 11  1  0
 11 12  2  0
 12 13  1  0
 12 14  1  0
 14 15  1  0
 15 16  2  0
 15 17  1  0
  3  5  1  0
  5  6  2  0
  6 19  1  0
 19 20  1  0
 20 21  1  0
 21 22  1  0
 22 23  2  0
 23 24  1  0
 24 25  2  0
 25 26  1  0
 26 27  2  0
 27 28  1  0
  6  7  1  0
  7  8  1  0
  8  9  2  0
  8 10  1  0
  7  2  1  0
 17 11  1  0
 28 20  2  0
 27 22  1  0
 17 18  1  0
M  CHG 1  13  -1
M  CHG 1  14  -1
M  END
> <UniqueID>
38

> <SMILES>
C=c1/c(=C/c2[nH]c(=O)[n-]c2[O-])cc(Cc2cc3ccccc3o2)n1C(C)=O

> <Energy>
147.32388071290882

> <Genealogy>
C=c1c(=Cc2[nH]c(=O)[n-]c2[O-])cc(Cc2cc3ccccc3o2)n1C(C)=O (protonated)
C=c1/c(=C/c2[nH]c(=O)[n-]c2[O-])cc(Cc2cc3ccccc3o2)n1C(C)=O (cis-trans isomerization)
C=c1/c(=C/c2[nH]c(=O)[n-]c2[O-])cc(Cc2cc3ccccc3o2)n1C(C)=O (3D coordinates assigned)
C=c1/c(=C/c2[nH]c(=O)[n-]c2[O-])cc(Cc2cc3ccccc3o2)n1C(C)=O (optimized conformer: 147.32388071290882 kcal/mol)

> <smiles>
C=c1c(=Cc2[nH]c(=O)[nH]c2O)cc(Cc2cc3ccccc3o2)n1C(C)=O

> <score_type>
oracle

> <origin>
adg

> <m_score__min__energy>
-14.81

> <m_primary>
energy

> <minimizedAffinity>
-6.52095

> <minimizedRMSD>
0.71494

> <CNNscore>
0.1845299751

> <CNNaffinity>
5.3020401001

> <CNN_VS>
0.9783853292

> <CNNaffinity_variance>
0.3153089285

$$$$
42:0


 35 38  0  0  0  0  0  0  0  0999 V2000
   59.7028   28.6039   44.8426 C   0  0  0  0  0  0  0  0  0  0  0  0
   57.1859   24.3017   44.9240 C   0  0  0  0  0  0  0  0  0  0  0  0
   57.8322   25.4384   45.2534 C   0  0  0  0  0  0  0  0  0  0  0  0
   58.1176   25.7774   46.5633 C   0  0  0  0  0  0  0  0  0  0  0  0
   58.8392   26.9518   46.5313 C   0  0  0  0  0  0  0  0  0  0  0  0
   58.9941   27.3775   45.2544 N   0  0  0  0  0  0  0  0  0  0  0  0
   58.3443   26.4795   44.4597 C   0  0  0  0  0  0  0  0  0  0  0  0
   58.1244   26.6623   43.1464 C   0  0  0  0  0  0  0  0  0  0  0  0
   54.8904   26.1406   45.9296 O   0  0  0  0  0  0  0  0  0  0  0  0
   54.8206   24.7564   45.7838 C   0  0  0  0  0  0  0  0  0  0  0  0
   53.7121   24.0422   46.0327 N   0  0  0  0  0  0  0  0  0  0  0  0
   54.0905   22.7846   45.7274 C   0  0  0  0  0  0  0  0  0  0  0  0
   53.3106   21.7983   45.8203 O   0  0  0  0  0  0  0  0  0  0  0  0
   55.3650   22.6634   45.2986 N   0  0  0  0  0  0  0  0  0  0  0  0
   55.8347   23.9199   45.3616 C   0  0  0  0  0  0  0  0  0  0  0  0
   54.1407   26.6190   46.2247 H   0  0  0  0  0  0  0  0  0  0  0  0
   59.2903   27.6827   47.7679 C   0  0  0  0  0  0  0  0  0  0  0  0
   60.5230   27.0157   48.3718 C   0  0  0  0  0  0  0  0  0  0  0  0
   58.8364   29.8251   45.0299 C   0  0  0  0  0  0  0  0  0  0  0  0
   57.6441   29.9730   44.3054 C   0  0  0  0  0  0  0  0  0  0  0  0
   56.8417   31.1012   44.4916 C   0  0  0  0  0  0  0  0  0  0  0  0
   57.2367   32.1062   45.3746 C   0  0  0  0  0  0  0  0  0  0  0  0
   58.4469   31.9973   46.0757 C   0  0  0  0  0  0  0  0  0  0  0  0
   59.2346   30.8443   45.9112 C   0  0  0  0  0  0  0  0  0  0  0  0
   58.8791   33.0685   46.9989 C   0  0  0  0  0  0  0  0  0  0  0  0
   58.3054   34.1900   46.9467 O   0  0  0  0  0  0  0  0  0  0  0  0
   59.9187   32.8479   47.9693 N   0  0  0  0  0  0  0  0  0  0  0  0
   60.7508   33.9755   48.3999 C   0  0  0  0  0  0  0  0  0  0  0  0
   62.1524   33.4879   48.7816 C   0  0  0  0  0  0  0  0  0  0  0  0
   62.1016   32.3134   49.6702 N   0  0  0  0  0  0  0  0  0  0  0  0
   63.3309   31.8505   50.2735 C   0  0  0  0  0  0  0  0  0  0  0  0
   64.4378   32.2452   49.8184 O   0  0  0  0  0  0  0  0  0  0  0  0
   63.3334   30.8995   51.4316 C   0  0  0  0  0  0  0  0  0  0  0  0
   60.8064   31.6876   49.9808 C   0  0  0  0  0  0  0  0  0  0  0  0
   59.9549   31.5786   48.7127 C   0  0  0  0  0  0  0  0  0  0  0  0
  9 10  1  0
 10 11  1  0
 11 12  1  0
 12 13  2  0
 12 14  1  0
 14 15  1  0
 15  2  1  0
  2  3  2  0
  3  4  1  0
  4  5  2  0
  5 17  1  0
 17 18  1  0
  5  6  1  0
  6  1  1  0
  1 19  1  0
 19 20  2  0
 20 21  1  0
 21 22  2  0
 22 23  1  0
 23 25  1  0
 25 26  2  0
 25 27  1  0
 27 28  1  0
 28 29  1  0
 29 30  1  0
 30 31  1  0
 31 32  2  0
 31 33  1  0
 30 34  1  0
 34 35  1  0
 23 24  2  0
  6  7  1  0
  7  8  2  0
 15 10  2  0
  7  3  1  0
 24 19  1  0
 35 27  1  0
  9 16  1  0
M  CHG 1  11  -1
M  CHG 1  14  -1
M  END
> <UniqueID>
42

> <SMILES>
C=c1/c(=C\c2[n-]c(=O)[n-]c2O)cc(CC)n1Cc1cccc(C(=O)N2CCN(C(C)=O)CC2)c1

> <Energy>
134.01549456820248

> <Genealogy>
C=c1c(=Cc2[n-]c(=O)[n-]c2O)cc(CC)n1Cc1cccc(C(=O)N2CCN(C(C)=O)CC2)c1 (protonated)
C=c1/c(=C\c2[n-]c(=O)[n-]c2O)cc(CC)n1Cc1cccc(C(=O)N2CCN(C(C)=O)CC2)c1 (cis-trans isomerization)
C=c1/c(=C\c2[n-]c(=O)[n-]c2O)cc(CC)n1Cc1cccc(C(=O)N2CCN(C(C)=O)CC2)c1 (3D coordinates assigned)
C=c1/c(=C\c2[n-]c(=O)[n-]c2O)cc(CC)n1Cc1cccc(C(=O)N2CCN(C(C)=O)CC2)c1 (nonaromatic ring conformer: 134.01549456820248 kcal/mol)

> <smiles>
C=c1c(=Cc2[nH]c(=O)[nH]c2O)cc(CC)n1Cc1cccc(C(=O)N2CCN(C(C)=O)CC2)c1

> <score_type>
oracle

> <origin>
adg

> <m_score__min__energy>
-14.67

> <m_primary>
energy

> <minimizedAffinity>
-9.46431

> <minimizedRMSD>
0.71909

> <CNNscore>
0.1527688205

> <CNNaffinity>
6.6758637428

> <CNN_VS>
1.0198638439

> <CNNaffinity_variance>
0.0666832253

$$$$
49:0


 25 27  0  0  0  0  0  0  0  0999 V2000
   56.7202   29.9117   43.2307 C   0  0  0  0  0  0  0  0  0  0  0  0
   57.3431   29.9423   44.4110 C   0  0  0  0  0  0  0  0  0  0  0  0
   57.5253   31.0867   45.1042 N   0  0  0  0  0  0  0  0  0  0  0  0
   58.1595   30.7897   46.2268 N   0  0  0  0  0  0  0  0  0  0  0  0
   58.5660   31.7808   47.1847 C   0  0  0  0  0  0  0  0  0  0  0  0
   57.8275   32.7822   47.3815 O   0  0  0  0  0  0  0  0  0  0  0  0
   58.4141   29.4645   46.2519 C   0  0  0  0  0  0  0  0  0  0  0  0
   59.1141   28.8997   47.1353 O   0  0  0  0  0  0  0  0  0  0  0  0
   57.8854   28.8646   45.1184 C   0  0  0  0  0  0  0  0  0  0  0  0
   57.9248   27.5715   44.7387 C   0  0  0  0  0  0  0  0  0  0  0  0
   59.8260   31.6552   47.9513 C   0  0  0  0  0  0  0  0  0  0  0  0
   61.0092   32.2058   47.4286 C   0  0  0  0  0  0  0  0  0  0  0  0
   62.2121   32.0962   48.1342 C   0  0  0  0  0  0  0  0  0  0  0  0
   63.8164   32.8335   47.4059 Br  0  0  0  0  0  0  0  0  0  0  0  0
   62.2409   31.4470   49.3724 C   0  0  0  0  0  0  0  0  0  0  0  0
   61.0659   30.9149   49.9104 C   0  0  0  0  0  0  0  0  0  0  0  0
   59.8586   31.0243   49.2126 C   0  0  0  0  0  0  0  0  0  0  0  0
   58.6964   30.5228   49.7885 O   0  0  0  0  0  0  0  0  0  0  0  0
   57.5843   26.4299   45.6075 C   0  0  0  0  0  0  0  0  0  0  0  0
   58.6798   25.3879   46.3609 S   0  0  0  0  0  0  0  0  0  0  0  0
   57.4745   24.6249   47.2484 C   0  0  0  0  0  0  0  0  0  0  0  0
   57.6748   23.6740   48.0482 O   0  0  0  0  0  0  0  0  0  0  0  0
   56.2519   25.1516   47.0247 N   0  0  0  0  0  0  0  0  0  0  0  0
   56.3178   26.1667   46.1227 C   0  0  0  0  0  0  0  0  0  0  0  0
   55.1878   26.8865   45.7540 O   0  0  0  0  0  0  0  0  0  0  0  0
  1  2  2  0
  2  3  1  0
  3  4  1  0
  4  5  1  0
  5  6  2  0
  5 11  1  0
 11 12  2  0
 12 13  1  0
 13 14  1  0
 13 15  2  0
 15 16  1  0
 16 17  2  0
 17 18  1  0
  4  7  1  0
  7  8  2  0
  7  9  1  0
  9 10  2  0
 10 19  1  0
 19 20  1  0
 20 21  1  0
 21 22  2  0
 21 23  1  0
 23 24  1  0
 24 25  1  0
  9  2  1  0
 24 19  2  0
 17 11  1  0
M  CHG 1   3  -1
M  CHG 1  18  -1
M  CHG 1  23  -1
M  CHG 1  25  -1
M  END
> <UniqueID>
48

> <SMILES>
C=c1[n-]n(C(=O)c2cc(Br)ccc2[O-])c(=O)/c1=C\c1sc(=O)[n-]c1[O-]

> <Energy>
113.50354603035845

> <Genealogy>
C=c1[n-]n(C(=O)c2cc(Br)ccc2[O-])c(=O)c1=Cc1sc(=O)[n-]c1[O-] (protonated)
C=c1[n-]n(C(=O)c2cc(Br)ccc2[O-])c(=O)/c1=C\c1sc(=O)[n-]c1[O-] (cis-trans isomerization)
C=c1[n-]n(C(=O)c2cc(Br)ccc2[O-])c(=O)/c1=C\c1sc(=O)[n-]c1[O-] (3D coordinates assigned)
C=c1[n-]n(C(=O)c2cc(Br)ccc2[O-])c(=O)/c1=C\c1sc(=O)[n-]c1[O-] (optimized conformer: 113.50354603035845 kcal/mol)

> <smiles>
C=c1[nH]n(C(=O)c2cc(Br)ccc2O)c(=O)c1=Cc1sc(=O)[nH]c1O

> <score_type>
oracle

> <origin>
adg

> <m_score__min__energy>
-16.77

> <m_primary>
energy

> <minimizedAffinity>
-5.94327

> <minimizedRMSD>
0.43904

> <CNNscore>
0.5596228242

> <CNNaffinity>
6.8643221855

> <CNN_VS>
3.8414313793

> <CNNaffinity_variance>
0.4225562513

$$$$
53:0


 30 32  0  0  0  0  0  0  0  0999 V2000
   60.5732   31.4268   52.1070 S   0  0  0  0  0  0  0  0  0  0  0  0
   60.4479   32.9247   52.1299 O   0  0  0  0  0  0  0  0  0  0  0  0
   61.9820   31.0606   52.4878 O   0  0  0  0  0  0  0  0  0  0  0  0
   59.6915   29.8246   47.9144 C   0  0  0  0  0  0  0  0  0  0  0  0
   59.1186   31.0320   48.3459 C   0  0  0  0  0  0  0  0  0  0  0  0
   59.4003   31.5316   49.6208 C   0  0  0  0  0  0  0  0  0  0  0  0
   60.2502   30.8249   50.4827 C   0  0  0  0  0  0  0  0  0  0  0  0
   60.8066   29.6103   50.0635 C   0  0  0  0  0  0  0  0  0  0  0  0
   60.5282   29.1118   48.7874 C   0  0  0  0  0  0  0  0  0  0  0  0
   59.3552   29.2636   46.5642 C   0  0  0  0  0  0  0  0  0  0  0  0
   59.0611   30.3597   45.6512 N   0  0  0  0  0  0  0  0  0  0  0  0
   57.8023   30.6714   45.0356 C   0  0  0  0  0  0  0  0  0  0  0  0
   57.1811   29.7443   44.4542 O   0  0  0  0  0  0  0  0  0  0  0  0
   57.2153   31.9809   45.0404 N   0  0  0  0  0  0  0  0  0  0  0  0
   58.7001   33.9054   44.9626 C   0  0  0  0  0  0  0  0  0  0  0  0
   57.6654   33.1508   45.7819 C   0  0  0  0  0  0  0  0  0  0  0  0
   59.4524   30.7115   53.2392 N   0  0  0  0  0  0  0  0  0  0  0  0
   58.9965   29.3984   52.7368 C   0  0  0  0  0  0  0  0  0  0  0  0
   57.6711   28.9909   53.3885 C   0  0  0  0  0  0  0  0  0  0  0  0
   56.5805   29.9328   53.0279 N   0  0  0  0  0  0  0  0  0  0  0  0
   57.0562   31.3194   52.7840 C   0  0  0  0  0  0  0  0  0  0  0  0
   58.3453   31.6436   53.5589 C   0  0  0  0  0  0  0  0  0  0  0  0
   55.4871   29.8967   54.0213 C   0  0  0  0  0  0  0  0  0  0  0  0
   54.1572   30.1698   53.3662 C   0  0  0  0  0  0  0  0  0  0  0  0
   54.0680   30.3485   51.9757 C   0  0  0  0  0  0  0  0  0  0  0  0
   52.8348   30.6286   51.3786 C   0  0  0  0  0  0  0  0  0  0  0  0
   51.6849   30.7371   52.1661 C   0  0  0  0  0  0  0  0  0  0  0  0
   51.7651   30.5681   53.5513 C   0  0  0  0  0  0  0  0  0  0  0  0
   50.6225   30.6825   54.3329 O   0  0  0  0  0  0  0  0  0  0  0  0
   52.9975   30.2862   54.1511 C   0  0  0  0  0  0  0  0  0  0  0  0
 15 16  1  0
 16 14  1  0
 14 12  1  0
 12 13  2  0
 12 11  1  0
 11 10  1  0
 10  4  1  0
  4  5  2  0
  5  6  1  0
  6  7  2  0
  7  1  1  0
  1  2  2  0
  1  3  2  0
  1 17  1  0
 17 18  1  0
 18 19  1  0
 19 20  1  0
 20 23  1  0
 23 24  1  0
 24 25  2  0
 25 26  1  0
 26 27  2  0
 27 28  1  0
 28 29  1  0
 28 30  2  0
 20 21  1  0
 21 22  1  0
  7  8  1  0
  8  9  2  0
  9  4  1  0
 22 17  1  0
 30 24  1  0
M  CHG 1  11  -1
M  CHG 1  14  -1
M  CHG 1  29  -1
M  END
> <UniqueID>
52

> <SMILES>
CC[N-]C(=O)[N-]Cc1ccc(S(=O)(=O)N2CCN(Cc3cccc([O-])c3)CC2)cc1

> <Energy>
64.39462835668358

> <Genealogy>
CC[N-]C(=O)[N-]Cc1ccc(S(=O)(=O)N2CCN(Cc3cccc([O-])c3)CC2)cc1 (protonated)
CC[N-]C(=O)[N-]Cc1ccc(S(=O)(=O)N2CCN(Cc3cccc([O-])c3)CC2)cc1 (3D coordinates assigned)
CC[N-]C(=O)[N-]Cc1ccc(S(=O)(=O)N2CCN(Cc3cccc([O-])c3)CC2)cc1 (nonaromatic ring conformer: 64.39462835668358 kcal/mol)

> <smiles>
CCNC(=O)NCc1ccc(S(=O)(=O)N2CCN(Cc3cccc(O)c3)CC2)cc1

> <score_type>
oracle

> <origin>
adg

> <m_score__min__energy>
-15.67

> <m_primary>
energy

> <minimizedAffinity>
-6.30579

> <minimizedRMSD>
2.41838

> <CNNscore>
0.1230118498

> <CNNaffinity>
5.3922557831

> <CNN_VS>
0.6633113623

> <CNNaffinity_variance>
0.2160147429

$$$$
60:0


 31 34  0  0  0  0  0  0  0  0999 V2000
   58.5247   30.6019   53.3398 C   0  0  0  0  0  0  0  0  0  0  0  0
   54.5328   27.8371   53.6574 C   0  0  0  0  0  0  0  0  0  0  0  0
   55.3058   28.9011   53.3883 C   0  0  0  0  0  0  0  0  0  0  0  0
   54.9939   29.9791   52.5439 C   0  0  0  0  0  0  0  0  0  0  0  0
   53.8350   30.3394   51.9591 C   0  0  0  0  0  0  0  0  0  0  0  0
   56.1652   30.7001   52.3919 C   0  0  0  0  0  0  0  0  0  0  0  0
   57.1223   30.0867   53.1728 C   0  0  0  0  0  0  0  0  0  0  0  0
   56.5960   29.0092   53.8038 N   0  0  0  0  0  0  0  0  0  0  0  0
   57.3121   28.0690   54.6724 C   0  0  0  0  0  0  0  0  0  0  0  0
   52.6389   30.8366   52.6559 C   0  0  0  0  0  0  0  0  0  0  0  0
   52.3130   30.4865   53.9125 N   0  0  0  0  0  0  0  0  0  0  0  0
   51.1035   31.0591   54.0916 C   0  0  0  0  0  0  0  0  0  0  0  0
   50.4649   30.9691   55.1727 O   0  0  0  0  0  0  0  0  0  0  0  0
   50.6264   31.7257   53.0190 N   0  0  0  0  0  0  0  0  0  0  0  0
   51.6032   31.5617   52.1136 C   0  0  0  0  0  0  0  0  0  0  0  0
   51.5361   32.0410   50.8102 O   0  0  0  0  0  0  0  0  0  0  0  0
   59.4239   30.0329   52.2698 C   0  0  0  0  0  0  0  0  0  0  0  0
   59.5556   28.8180   52.1964 O   0  0  0  0  0  0  0  0  0  0  0  0
   60.1246   30.8965   51.3363 N   0  0  0  0  0  0  0  0  0  0  0  0
   59.4403   32.2173   51.2329 C   0  0  0  0  0  0  0  0  0  0  0  0
   58.6628   32.4007   49.9218 C   0  0  0  0  0  0  0  0  0  0  0  0
   59.5510   32.1645   48.7743 N   0  0  0  0  0  0  0  0  0  0  0  0
   60.6227   31.1674   48.9035 C   0  0  0  0  0  0  0  0  0  0  0  0
   60.3071   30.1918   50.0428 C   0  0  0  0  0  0  0  0  0  0  0  0
   60.3982   30.0210   50.9786 H   0  0  0  0  0  0  0  0  0  0  0  0
   59.3395   32.8513   47.5220 C   0  0  0  0  0  0  0  0  0  0  0  0
   59.8493   34.1488   47.3196 C   0  0  0  0  0  0  0  0  0  0  0  0
   59.6388   34.8125   46.1068 C   0  0  0  0  0  0  0  0  0  0  0  0
   58.9185   34.1918   45.0834 C   0  0  0  0  0  0  0  0  0  0  0  0
   58.4054   32.9075   45.2731 C   0  0  0  0  0  0  0  0  0  0  0  0
   58.6125   32.2393   46.4835 C   0  0  0  0  0  0  0  0  0  0  0  0
  2  3  2  0
  3  4  1  0
  4  5  2  0
  5 10  1  0
 10 11  1  0
 11 12  1  0
 12 13  2  0
 12 14  1  0
 14 15  1  0
 15 16  1  0
  4  6  1  0
  6  7  2  0
  7  1  1  0
  1 17  1  0
 17 18  2  0
 17 19  1  0
 19 20  1  0
 20 21  1  0
 21 22  1  0
 22 26  1  0
 26 27  2  0
 27 28  1  0
 28 29  2  0
 29 30  1  0
 30 31  2  0
 22 23  1  0
 23 24  1  0
  7  8  1  0
  8  9  1  0
  8  3  1  0
 15 10  2  0
 24 19  1  0
 31 26  1  0
 19 25  1  0
M  CHG 1  11  -1
M  CHG 1  14  -1
M  CHG 1  16  -1
M  CHG 1  19   1
M  END
> <UniqueID>
58

> <SMILES>
C=c1/c(=C\c2[n-]c(=O)[n-]c2[O-])cc(CC(=O)[NH+]2CCN(c3ccccc3)CC2)n1C

> <Energy>
134.56492743010102

> <Genealogy>
C=c1c(=Cc2[n-]c(=O)[n-]c2[O-])cc(CC(=O)[NH+]2CCN(c3ccccc3)CC2)n1C (protonated)
C=c1/c(=C\c2[n-]c(=O)[n-]c2[O-])cc(CC(=O)[NH+]2CCN(c3ccccc3)CC2)n1C (cis-trans isomerization)
C=c1/c(=C\c2[n-]c(=O)[n-]c2[O-])cc(CC(=O)[NH+]2CCN(c3ccccc3)CC2)n1C (3D coordinates assigned)
C=c1/c(=C\c2[n-]c(=O)[n-]c2[O-])cc(CC(=O)[NH+]2CCN(c3ccccc3)CC2)n1C (nonaromatic ring conformer: 134.56492743010102 kcal/mol)

> <smiles>
C=c1c(=Cc2[nH]c(=O)[nH]c2O)cc(CC(=O)N2CCN(c3ccccc3)CC2)n1C

> <score_type>
oracle

> <origin>
adg

> <m_score__min__energy>
-16.710000000000001

> <m_primary>
energy

> <minimizedAffinity>
-7.69959

> <minimizedRMSD>
1.02335

> <CNNscore>
0.2170655727

> <CNNaffinity>
5.6210961342

> <CNN_VS>
1.2201464176

> <CNNaffinity_variance>
0.6000462174

$$$$
62:0


 33 36  0  0  0  0  0  0  0  0999 V2000
   58.4473   30.3733   53.2958 C   0  0  0  0  0  0  0  0  0  0  0  0
   59.1187   30.1162   54.3322 O   0  0  0  0  0  0  0  0  0  0  0  0
   54.3532   27.8647   53.9310 C   0  0  0  0  0  0  0  0  0  0  0  0
   55.1616   28.8565   53.5230 C   0  0  0  0  0  0  0  0  0  0  0  0
   54.7833   30.1718   53.2118 C   0  0  0  0  0  0  0  0  0  0  0  0
   53.5678   30.7256   53.0342 C   0  0  0  0  0  0  0  0  0  0  0  0
   55.9570   30.8933   53.0992 C   0  0  0  0  0  0  0  0  0  0  0  0
   57.0041   30.0061   53.2773 C   0  0  0  0  0  0  0  0  0  0  0  0
   56.5174   28.7609   53.5051 N   0  0  0  0  0  0  0  0  0  0  0  0
   57.3150   27.5505   53.7435 C   0  0  0  0  0  0  0  0  0  0  0  0
   52.8049   30.7372   51.7775 C   0  0  0  0  0  0  0  0  0  0  0  0
   52.9501   29.8119   50.8127 N   0  0  0  0  0  0  0  0  0  0  0  0
   51.9831   30.1320   49.9257 C   0  0  0  0  0  0  0  0  0  0  0  0
   51.8052   29.4926   48.8560 O   0  0  0  0  0  0  0  0  0  0  0  0
   51.2122   31.1834   50.2794 N   0  0  0  0  0  0  0  0  0  0  0  0
   51.7362   31.5456   51.4614 C   0  0  0  0  0  0  0  0  0  0  0  0
   51.2300   32.5745   52.2469 O   0  0  0  0  0  0  0  0  0  0  0  0
   59.0971   31.0638   52.1969 N   0  0  0  0  0  0  0  0  0  0  0  0
   59.1589   30.2044   50.9801 C   0  0  0  0  0  0  0  0  0  0  0  0
   60.4627   30.3584   50.1747 C   0  0  0  0  0  0  0  0  0  0  0  0
   60.9217   31.7502   50.1973 N   0  0  0  0  0  0  0  0  0  0  0  0
   60.9840   32.4824   51.4652 C   0  0  0  0  0  0  0  0  0  0  0  0
   60.3970   31.6406   52.6041 C   0  0  0  0  0  0  0  0  0  0  0  0
   59.0598   30.3668   52.8912 H   0  0  0  0  0  0  0  0  0  0  0  0
   61.4924   32.3393   49.0183 C   0  0  0  0  0  0  0  0  0  0  0  0
   62.8755   32.2433   48.7893 C   0  0  0  0  0  0  0  0  0  0  0  0
   63.6784   31.6165   49.6867 F   0  0  0  0  0  0  0  0  0  0  0  0
   63.4413   32.8171   47.6485 C   0  0  0  0  0  0  0  0  0  0  0  0
   62.6342   33.4880   46.7294 C   0  0  0  0  0  0  0  0  0  0  0  0
   61.2584   33.5896   46.9460 C   0  0  0  0  0  0  0  0  0  0  0  0
   60.6732   33.0127   48.0911 C   0  0  0  0  0  0  0  0  0  0  0  0
   59.2916   33.0799   48.3346 O   0  0  0  0  0  0  0  0  0  0  0  0
   58.2931   33.0825   47.3188 C   0  0  0  0  0  0  0  0  0  0  0  0
  3  4  2  0
  4  5  1  0
  5  6  2  0
  6 11  1  0
 11 12  1  0
 12 13  1  0
 13 14  2  0
 13 15  1  0
 15 16  1  0
 16 17  1  0
  5  7  1  0
  7  8  2  0
  8  1  1  0
  1  2  2  0
  1 18  1  0
 18 19  1  0
 19 20  1  0
 20 21  1  0
 21 25  1  0
 25 26  2  0
 26 27  1  0
 26 28  1  0
 28 29  2  0
 29 30  1  0
 30 31  2  0
 31 32  1  0
 32 33  1  0
 21 22  1  0
 22 23  1  0
  8  9  1  0
  9 10  1  0
  9  4  1  0
 16 11  2  0
 23 18  1  0
 31 25  1  0
 18 24  1  0
M  CHG 1  12  -1
M  CHG 1  15  -1
M  CHG 1  17  -1
M  CHG 1  18   1
M  END
> <UniqueID>
60

> <SMILES>
C=c1c(=Cc2[n-]c(=O)[n-]c2[O-])cc(C(=O)[NH+]2CCN(c3c(F)cccc3OC)CC2)n1C

> <Energy>
145.08797395889857

> <Genealogy>
C=c1c(=Cc2[n-]c(=O)[n-]c2[O-])cc(C(=O)[NH+]2CCN(c3c(F)cccc3OC)CC2)n1C (protonated)
C=c1c(=Cc2[n-]c(=O)[n-]c2[O-])cc(C(=O)[NH+]2CCN(c3c(F)cccc3OC)CC2)n1C (3D coordinates assigned)
C=c1c(=Cc2[n-]c(=O)[n-]c2[O-])cc(C(=O)[NH+]2CCN(c3c(F)cccc3OC)CC2)n1C (nonaromatic ring conformer: 145.08797395889857 kcal/mol)

> <smiles>
C=c1c(=Cc2[nH]c(=O)[nH]c2O)cc(C(=O)N2CCN(c3c(F)cccc3OC)CC2)n1C

> <score_type>
oracle

> <origin>
adg

> <m_score__min__energy>
-16.68

> <m_primary>
energy

> <minimizedAffinity>
-6.59806

> <minimizedRMSD>
0.95557

> <CNNscore>
0.0584910661

> <CNNaffinity>
5.0970110893

> <CNN_VS>
0.2981296182

> <CNNaffinity_variance>
0.4796009958

$$$$
66:0


 27 29  0  0  0  0  0  0  0  0999 V2000
   58.6907   31.3105   44.1578 C   0  0  0  0  0  0  0  0  0  0  0  0
   58.9339   31.0003   45.4500 C   0  0  0  0  0  0  0  0  0  0  0  0
   58.8797   32.0221   46.4451 C   0  0  0  0  0  0  0  0  0  0  0  0
   59.4922   31.8138   47.7121 C   0  0  0  0  0  0  0  0  0  0  0  0
   59.4435   32.8885   48.7826 C   0  0  0  0  0  0  0  0  0  0  0  0
   60.2185   30.6213   47.9422 C   0  0  0  0  0  0  0  0  0  0  0  0
   60.1639   29.5887   46.9977 C   0  0  0  0  0  0  0  0  0  0  0  0
   59.4279   29.7094   45.8103 C   0  0  0  0  0  0  0  0  0  0  0  0
   59.2351   28.5736   45.0903 C   0  0  0  0  0  0  0  0  0  0  0  0
   58.5214   27.3667   45.5579 C   0  0  0  0  0  0  0  0  0  0  0  0
   59.1064   26.1949   45.8729 N   0  0  0  0  0  0  0  0  0  0  0  0
   58.0583   25.3891   46.1503 C   0  0  0  0  0  0  0  0  0  0  0  0
   58.2011   24.1906   46.5041 O   0  0  0  0  0  0  0  0  0  0  0  0
   56.8451   25.9660   46.0119 N   0  0  0  0  0  0  0  0  0  0  0  0
   57.1579   27.2147   45.6273 C   0  0  0  0  0  0  0  0  0  0  0  0
   56.2120   28.1945   45.3451 O   0  0  0  0  0  0  0  0  0  0  0  0
   58.2099   33.3158   46.1517 C   0  0  0  0  0  0  0  0  0  0  0  0
   56.8097   33.4626   46.3882 N   0  0  0  0  0  0  0  0  0  0  0  0
   58.8712   34.2828   45.6831 O   0  0  0  0  0  0  0  0  0  0  0  0
   56.2907   32.7101   46.7538 H   0  0  0  0  0  0  0  0  0  0  0  0
   61.0275   30.3872   49.2075 C   0  0  0  0  0  0  0  0  0  0  0  0
   62.2082   31.3240   49.3166 C   0  0  0  0  0  0  0  0  0  0  0  0
   62.7547   31.9145   48.1622 C   0  0  0  0  0  0  0  0  0  0  0  0
   63.8611   32.7645   48.2569 C   0  0  0  0  0  0  0  0  0  0  0  0
   64.4446   33.0188   49.5014 C   0  0  0  0  0  0  0  0  0  0  0  0
   63.9239   32.4204   50.6507 C   0  0  0  0  0  0  0  0  0  0  0  0
   62.8164   31.5716   50.5602 C   0  0  0  0  0  0  0  0  0  0  0  0
  1  2  2  0
  2  3  1  0
  3 17  1  0
 17 18  1  0
 17 19  2  0
  3  4  2  0
  4  5  1  0
  4  6  1  0
  6 21  1  0
 21 22  1  0
 22 23  2  0
 23 24  1  0
 24 25  2  0
 25 26  1  0
 26 27  2  0
  6  7  2  0
  7  8  1  0
  8  9  2  0
  9 10  1  0
 10 11  1  0
 11 12  1  0
 12 13  2  0
 12 14  1  0
 14 15  1  0
 15 16  1  0
  8  2  1  0
 15 10  2  0
 27 22  1  0
 18 20  1  0
M  CHG 1  11  -1
M  CHG 1  14  -1
M  CHG 1  16  -1
M  CHG 1  18  -1
M  END
> <UniqueID>
64

> <SMILES>
C=c1c(C([NH-])=O)c(C)c(Cc2ccccc2)cc1=Cc1[n-]c(=O)[n-]c1[O-]

> <Energy>
106.56082619728762

> <Genealogy>
C=c1c(C([NH-])=O)c(C)c(Cc2ccccc2)cc1=Cc1[n-]c(=O)[n-]c1[O-] (protonated)
C=c1c(C([NH-])=O)c(C)c(Cc2ccccc2)cc1=Cc1[n-]c(=O)[n-]c1[O-] (3D coordinates assigned)
C=c1c(C([NH-])=O)c(C)c(Cc2ccccc2)cc1=Cc1[n-]c(=O)[n-]c1[O-] (optimized conformer: 106.56082619728762 kcal/mol)

> <smiles>
C=c1c(C(N)=O)c(C)c(Cc2ccccc2)cc1=Cc1[nH]c(=O)[nH]c1O

> <score_type>
oracle

> <origin>
adg

> <m_score__min__energy>
-16.789999999999999

> <m_primary>
energy

> <minimizedAffinity>
-7.29890

> <minimizedRMSD>
1.28353

> <CNNscore>
0.1044279188

> <CNNaffinity>
5.9791526794

> <CNN_VS>
0.6243904829

> <CNNaffinity_variance>
0.0459146835

$$$$
73:0


 34 37  0  0  0  0  0  0  0  0999 V2000
   60.0584   26.7091   48.2820 C   0  0  0  0  0  0  0  0  0  0  0  0
   59.7309   27.8134   47.5845 C   0  0  0  0  0  0  0  0  0  0  0  0
   60.6634   28.7977   47.5533 N   0  0  0  0  0  0  0  0  0  0  0  0
   60.4593   29.9818   46.9363 C   0  0  0  0  0  0  0  0  0  0  0  0
   61.3776   30.8482   46.9712 O   0  0  0  0  0  0  0  0  0  0  0  0
   59.2771   30.2305   46.2871 N   0  0  0  0  0  0  0  0  0  0  0  0
   58.2875   29.2765   46.2761 C   0  0  0  0  0  0  0  0  0  0  0  0
   57.2255   29.5100   45.6274 O   0  0  0  0  0  0  0  0  0  0  0  0
   58.4668   28.0251   46.9411 C   0  0  0  0  0  0  0  0  0  0  0  0
   57.4956   27.0634   46.9319 C   0  0  0  0  0  0  0  0  0  0  0  0
   57.5330   25.7944   46.1748 C   0  0  0  0  0  0  0  0  0  0  0  0
   58.7769   25.1772   45.9305 C   0  0  0  0  0  0  0  0  0  0  0  0
   58.8344   23.9367   45.2874 C   0  0  0  0  0  0  0  0  0  0  0  0
   57.6509   23.2990   44.8926 C   0  0  0  0  0  0  0  0  0  0  0  0
   57.7081   22.0654   44.2582 O   0  0  0  0  0  0  0  0  0  0  0  0
   56.4101   23.9017   45.1390 C   0  0  0  0  0  0  0  0  0  0  0  0
   56.3442   25.1416   45.7864 C   0  0  0  0  0  0  0  0  0  0  0  0
   55.0984   25.7056   46.0535 O   0  0  0  0  0  0  0  0  0  0  0  0
   59.0492   31.5302   45.6177 C   0  0  0  0  0  0  0  0  0  0  0  0
   58.2029   32.4234   46.4857 C   0  0  0  0  0  0  0  0  0  0  0  0
   57.2043   33.0042   45.9861 O   0  0  0  0  0  0  0  0  0  0  0  0
   58.5385   32.6814   47.8541 N   0  0  0  0  0  0  0  0  0  0  0  0
   59.8024   33.1623   48.3401 C   0  0  0  0  0  0  0  0  0  0  0  0
   60.6789   33.8767   47.5018 C   0  0  0  0  0  0  0  0  0  0  0  0
   61.9173   34.3079   47.9800 C   0  0  0  0  0  0  0  0  0  0  0  0
   62.2983   34.0197   49.2915 C   0  0  0  0  0  0  0  0  0  0  0  0
   61.4443   33.2972   50.1289 C   0  0  0  0  0  0  0  0  0  0  0  0
   60.2022   32.8562   49.6566 C   0  0  0  0  0  0  0  0  0  0  0  0
   59.3316   32.1385   50.5396 N   0  0  0  0  0  0  0  0  0  0  0  0
   59.3353   30.6715   50.4681 C   0  0  0  0  0  0  0  0  0  0  0  0
   58.1936   30.0482   51.2790 C   0  0  0  0  0  0  0  0  0  0  0  0
   58.0018   30.7232   52.5053 O   0  0  0  0  0  0  0  0  0  0  0  0
   57.5133   32.0214   52.2354 C   0  0  0  0  0  0  0  0  0  0  0  0
   58.6093   32.8841   51.5802 C   0  0  0  0  0  0  0  0  0  0  0  0
  1  2  2  0
  2  3  1  0
  3  4  1  0
  4  5  2  0
  4  6  1  0
  6 19  1  0
 19 20  1  0
 20 21  2  0
 20 22  1  0
 22 23  1  0
 23 24  2  0
 24 25  1  0
 25 26  2  0
 26 27  1  0
 27 28  2  0
 28 29  1  0
 29 30  1  0
 30 31  1  0
 31 32  1  0
 32 33  1  0
 33 34  1  0
  6  7  1  0
  7  8  2  0
  7  9  1  0
  9 10  2  0
 10 11  1  0
 11 12  2  0
 12 13  1  0
 13 14  2  0
 14 15  1  0
 14 16  1  0
 16 17  2  0
 17 18  1  0
  9  2  1  0
 17 11  1  0
 28 23  1  0
 34 29  1  0
M  CHG 1   3  -1
M  CHG 1  15  -1
M  CHG 1  18  -1
M  CHG 1  22  -1
M  END
> <UniqueID>
71

> <SMILES>
C=c1[n-]c(=O)n(CC(=O)[N-]c2ccccc2N2CCOCC2)c(=O)c1=Cc1ccc([O-])cc1[O-]

> <Energy>
94.10288779440167

> <Genealogy>
C=c1[n-]c(=O)n(CC(=O)[N-]c2ccccc2N2CCOCC2)c(=O)c1=Cc1ccc([O-])cc1[O-] (protonated)
C=c1[n-]c(=O)n(CC(=O)[N-]c2ccccc2N2CCOCC2)c(=O)c1=Cc1ccc([O-])cc1[O-] (3D coordinates assigned)
C=c1[n-]c(=O)n(CC(=O)[N-]c2ccccc2N2CCOCC2)c(=O)c1=Cc1ccc([O-])cc1[O-] (nonaromatic ring conformer: 94.10288779440167 kcal/mol)

> <smiles>
C=c1[nH]c(=O)n(CC(=O)Nc2ccccc2N2CCOCC2)c(=O)c1=Cc1ccc(O)cc1O

> <score_type>
oracle

> <origin>
adg

> <m_score__min__energy>
-16.760000000000002

> <m_primary>
energy

> <minimizedAffinity>
-7.90958

> <minimizedRMSD>
1.41348

> <CNNscore>
0.1700240523

> <CNNaffinity>
6.3063178062

> <CNN_VS>
1.0722256899

> <CNNaffinity_variance>
0.0644630343

$$$$
79:0


 34 37  0  0  0  0  0  0  0  0999 V2000
   58.2919   29.9792   51.8725 C   0  0  0  0  0  0  0  0  0  0  0  0
   54.8349   28.9868   55.1702 C   0  0  0  0  0  0  0  0  0  0  0  0
   55.4323   29.4634   54.0679 C   0  0  0  0  0  0  0  0  0  0  0  0
   54.8411   30.2846   53.1011 C   0  0  0  0  0  0  0  0  0  0  0  0
   53.5541   30.6768   53.0373 C   0  0  0  0  0  0  0  0  0  0  0  0
   55.8308   30.5705   52.1749 C   0  0  0  0  0  0  0  0  0  0  0  0
   56.9768   29.9341   52.6069 C   0  0  0  0  0  0  0  0  0  0  0  0
   56.7352   29.2395   53.7425 N   0  0  0  0  0  0  0  0  0  0  0  0
   52.7637   30.7092   51.7916 C   0  0  0  0  0  0  0  0  0  0  0  0
   52.8822   29.7942   50.8127 N   0  0  0  0  0  0  0  0  0  0  0  0
   51.9330   30.1574   49.9237 C   0  0  0  0  0  0  0  0  0  0  0  0
   51.7428   29.5416   48.8421 O   0  0  0  0  0  0  0  0  0  0  0  0
   51.1956   31.2292   50.2869 N   0  0  0  0  0  0  0  0  0  0  0  0
   51.7231   31.5585   51.4794 C   0  0  0  0  0  0  0  0  0  0  0  0
   51.2302   32.5788   52.2814 O   0  0  0  0  0  0  0  0  0  0  0  0
   57.7178   28.4409   54.4899 C   0  0  0  0  0  0  0  0  0  0  0  0
   57.5270   26.9575   54.2031 C   0  0  0  0  0  0  0  0  0  0  0  0
   58.8212   31.3938   51.7113 C   0  0  0  0  0  0  0  0  0  0  0  0
   58.0517   32.2751   51.3463 O   0  0  0  0  0  0  0  0  0  0  0  0
   60.1867   31.7584   52.0679 N   0  0  0  0  0  0  0  0  0  0  0  0
   60.5170   33.1790   51.7672 C   0  0  0  0  0  0  0  0  0  0  0  0
   61.3936   33.3558   50.5151 C   0  0  0  0  0  0  0  0  0  0  0  0
   61.0799   32.3012   49.5413 N   0  0  0  0  0  0  0  0  0  0  0  0
   61.5310   30.9926   50.0489 C   0  0  0  0  0  0  0  0  0  0  0  0
   61.1795   30.7890   51.5441 C   0  0  0  0  0  0  0  0  0  0  0  0
   59.6937   30.9231   52.2366 H   0  0  0  0  0  0  0  0  0  0  0  0
   61.6612   32.5873   48.2164 C   0  0  0  0  0  0  0  0  0  0  0  0
   60.5616   32.7839   47.2045 C   0  0  0  0  0  0  0  0  0  0  0  0
   60.2493   34.0685   46.7287 C   0  0  0  0  0  0  0  0  0  0  0  0
   59.2001   34.2498   45.8246 C   0  0  0  0  0  0  0  0  0  0  0  0
   58.4580   33.1510   45.3825 C   0  0  0  0  0  0  0  0  0  0  0  0
   58.7533   31.8618   45.8513 C   0  0  0  0  0  0  0  0  0  0  0  0
   57.9720   30.6862   45.3410 C   0  0  0  0  0  0  0  0  0  0  0  0
   59.8109   31.6824   46.7579 C   0  0  0  0  0  0  0  0  0  0  0  0
  2  3  2  0
  3  4  1  0
  4  5  2  0
  5  9  1  0
  9 10  1  0
 10 11  1  0
 11 12  2  0
 11 13  1  0
 13 14  1  0
 14 15  1  0
  4  6  1  0
  6  7  2  0
  7  1  1  0
  1 18  1  0
 18 19  2  0
 18 20  1  0
 20 21  1  0
 21 22  1  0
 22 23  1  0
 23 27  1  0
 27 28  1  0
 28 29  2  0
 29 30  1  0
 30 31  2  0
 31 32  1  0
 32 33  1  0
 32 34  2  0
 23 24  1  0
 24 25  1  0
  7  8  1  0
  8 16  1  0
 16 17  1  0
  8  3  1  0
 14  9  2  0
 25 20  1  0
 34 28  1  0
 20 26  1  0
M  CHG 1  10  -1
M  CHG 1  13  -1
M  CHG 1  15  -1
M  CHG 1  20   1
M  END
> <UniqueID>
77

> <SMILES>
C=c1/c(=C/c2[n-]c(=O)[n-]c2[O-])cc(CC(=O)[NH+]2CCN(Cc3cccc(C)c3)CC2)n1CC

> <Energy>
137.63582904596308

> <Genealogy>
C=c1c(=Cc2[n-]c(=O)[n-]c2[O-])cc(CC(=O)[NH+]2CCN(Cc3cccc(C)c3)CC2)n1CC (protonated)
C=c1/c(=C/c2[n-]c(=O)[n-]c2[O-])cc(CC(=O)[NH+]2CCN(Cc3cccc(C)c3)CC2)n1CC (cis-trans isomerization)
C=c1/c(=C/c2[n-]c(=O)[n-]c2[O-])cc(CC(=O)[NH+]2CCN(Cc3cccc(C)c3)CC2)n1CC (3D coordinates assigned)
C=c1/c(=C/c2[n-]c(=O)[n-]c2[O-])cc(CC(=O)[NH+]2CCN(Cc3cccc(C)c3)CC2)n1CC (nonaromatic ring conformer: 137.63582904596308 kcal/mol)

> <smiles>
C=c1c(=Cc2[nH]c(=O)[nH]c2O)cc(CC(=O)N2CCN(Cc3cccc(C)c3)CC2)n1CC

> <score_type>
oracle

> <origin>
adg

> <m_score__min__energy>
-17.140000000000001

> <m_primary>
energy

> <minimizedAffinity>
-7.27953

> <minimizedRMSD>
1.23795

> <CNNscore>
0.0804202855

> <CNNaffinity>
5.7408523560

> <CNN_VS>
0.4616809785

> <CNNaffinity_variance>
0.3028323352

$$$$
83:0


 28 30  0  0  0  0  0  0  0  0999 V2000
   58.4976   27.1708   43.4876 C   0  0  0  0  0  0  0  0  0  0  0  0
   58.6850   26.6808   44.7233 C   0  0  0  0  0  0  0  0  0  0  0  0
   58.1535   25.4906   45.2398 C   0  0  0  0  0  0  0  0  0  0  0  0
   57.3214   24.6362   44.6053 C   0  0  0  0  0  0  0  0  0  0  0  0
   58.6664   25.3677   46.5273 C   0  0  0  0  0  0  0  0  0  0  0  0
   59.4698   26.4701   46.7431 C   0  0  0  0  0  0  0  0  0  0  0  0
   60.2310   26.7393   48.0040 C   0  0  0  0  0  0  0  0  0  0  0  0
   59.4673   27.2744   45.6593 N   0  0  0  0  0  0  0  0  0  0  0  0
   60.2156   28.4936   45.5197 C   0  0  0  0  0  0  0  0  0  0  0  0
   61.1749   28.5377   44.7014 O   0  0  0  0  0  0  0  0  0  0  0  0
   59.8899   29.6577   46.3055 N   0  0  0  0  0  0  0  0  0  0  0  0
   60.9843   30.4769   46.8346 C   0  0  0  0  0  0  0  0  0  0  0  0
   55.9924   24.2040   45.0915 C   0  0  0  0  0  0  0  0  0  0  0  0
   55.4593   22.9755   44.9553 N   0  0  0  0  0  0  0  0  0  0  0  0
   54.2705   23.0736   45.5873 C   0  0  0  0  0  0  0  0  0  0  0  0
   53.4657   22.1093   45.6717 O   0  0  0  0  0  0  0  0  0  0  0  0
   54.0134   24.2844   46.1248 N   0  0  0  0  0  0  0  0  0  0  0  0
   55.1137   24.9854   45.8054 C   0  0  0  0  0  0  0  0  0  0  0  0
   55.3109   26.3143   46.1615 O   0  0  0  0  0  0  0  0  0  0  0  0
   58.4868   30.0199   46.5724 C   0  0  0  0  0  0  0  0  0  0  0  0
   58.1867   31.4395   46.1207 C   0  0  0  0  0  0  0  0  0  0  0  0
   57.7529   31.7370   44.7988 C   0  0  0  0  0  0  0  0  0  0  0  0
   57.6198   30.6746   43.7404 C   0  0  0  0  0  0  0  0  0  0  0  0
   57.4497   33.0676   44.4562 C   0  0  0  0  0  0  0  0  0  0  0  0
   57.6180   34.0964   45.3803 C   0  0  0  0  0  0  0  0  0  0  0  0
   58.1030   33.8188   46.6544 C   0  0  0  0  0  0  0  0  0  0  0  0
   58.3926   32.5039   47.0250 C   0  0  0  0  0  0  0  0  0  0  0  0
   58.8886   32.2747   48.2674 F   0  0  0  0  0  0  0  0  0  0  0  0
  1  2  2  0
  2  3  1  0
  3  4  2  0
  4 13  1  0
 13 14  1  0
 14 15  1  0
 15 16  2  0
 15 17  1  0
 17 18  1  0
 18 19  1  0
  3  5  1  0
  5  6  2  0
  6  7  1  0
  6  8  1  0
  8  9  1  0
  9 10  2  0
  9 11  1  0
 11 12  1  0
 11 20  1  0
 20 21  1  0
 21 22  2  0
 22 23  1  0
 22 24  1  0
 24 25  2  0
 25 26  1  0
 26 27  2  0
 27 28  1  0
  8  2  1  0
 27 21  1  0
 18 13  2  0
M  CHG 1  14  -1
M  CHG 1  17  -1
M  CHG 1  19  -1
M  END
> <UniqueID>
81

> <SMILES>
C=c1c(=Cc2[n-]c(=O)[n-]c2[O-])cc(C)n1C(=O)N(C)Cc1c(C)cccc1F

> <Energy>
113.09391766113603

> <Genealogy>
C=c1c(=Cc2[n-]c(=O)[n-]c2[O-])cc(C)n1C(=O)N(C)Cc1c(C)cccc1F (protonated)
C=c1c(=Cc2[n-]c(=O)[n-]c2[O-])cc(C)n1C(=O)N(C)Cc1c(C)cccc1F (3D coordinates assigned)
C=c1c(=Cc2[n-]c(=O)[n-]c2[O-])cc(C)n1C(=O)N(C)Cc1c(C)cccc1F (optimized conformer: 113.09391766113603 kcal/mol)

> <smiles>
C=c1c(=Cc2[nH]c(=O)[nH]c2O)cc(C)n1C(=O)N(C)Cc1c(C)cccc1F

> <score_type>
oracle

> <origin>
adg

> <m_score__min__energy>
-15.550000000000001

> <m_primary>
energy

> <minimizedAffinity>
-7.96979

> <minimizedRMSD>
0.36515

> <CNNscore>
0.1537493914

> <CNNaffinity>
6.3963890076

> <CNN_VS>
0.9834409356

> <CNNaffinity_variance>
0.0646603331

$$$$
5:0


 24 26  0  0  0  0  0  0  0  0999 V2000
   61.3011   29.9314   50.3306 C   0  0  0  0  0  0  0  0  0  0  0  0
   60.6028   29.6130   49.2422 C   0  0  0  0  0  0  0  0  0  0  0  0
   59.8692   30.5697   48.4178 C   0  0  0  0  0  0  0  0  0  0  0  0
   59.3194   29.9447   47.3783 C   0  0  0  0  0  0  0  0  0  0  0  0
   59.6390   28.5016   47.4169 C   0  0  0  0  0  0  0  0  0  0  0  0
   59.2448   27.6076   46.4919 C   0  0  0  0  0  0  0  0  0  0  0  0
   60.4133   28.2821   48.6563 C   0  0  0  0  0  0  0  0  0  0  0  0
   60.6209   27.1251   49.2960 C   0  0  0  0  0  0  0  0  0  0  0  0
   58.5786   30.6561   46.3165 C   0  0  0  0  0  0  0  0  0  0  0  0
   57.9417   29.9833   45.4612 O   0  0  0  0  0  0  0  0  0  0  0  0
   58.5635   32.0936   46.2446 N   0  0  0  0  0  0  0  0  0  0  0  0
   58.4672   32.7396   44.9302 C   0  0  0  0  0  0  0  0  0  0  0  0
   58.6285   34.2559   45.0539 C   0  0  0  0  0  0  0  0  0  0  0  0
   59.6678   34.5490   46.0432 N   0  0  0  0  0  0  0  0  0  0  0  0
   59.2272   34.1977   47.4053 C   0  0  0  0  0  0  0  0  0  0  0  0
   58.3867   32.9021   47.4607 C   0  0  0  0  0  0  0  0  0  0  0  0
   59.8852   35.5450   46.0112 H   0  0  0  0  0  0  0  0  0  0  0  0
   58.1449   26.6445   46.6662 C   0  0  0  0  0  0  0  0  0  0  0  0
   58.2466   25.4718   47.3198 N   0  0  0  0  0  0  0  0  0  0  0  0
   57.0515   24.8846   47.0943 C   0  0  0  0  0  0  0  0  0  0  0  0
   56.7509   23.7560   47.5642 O   0  0  0  0  0  0  0  0  0  0  0  0
   56.2080   25.5964   46.3162 N   0  0  0  0  0  0  0  0  0  0  0  0
   56.9227   26.7003   46.0427 C   0  0  0  0  0  0  0  0  0  0  0  0
   56.4693   27.7348   45.2345 O   0  0  0  0  0  0  0  0  0  0  0  0
  1  2  2  0
  2  3  1  0
  3  4  2  0
  4  9  1  0
  9 10  2  0
  9 11  1  0
 11 12  1  0
 12 13  1  0
 13 14  1  0
 14 15  1  0
 15 16  1  0
  4  5  1  0
  5  6  2  0
  6 18  1  0
 18 19  1  0
 19 20  1  0
 20 21  2  0
 20 22  1  0
 22 23  1  0
 23 24  1  0
  5  7  1  0
  7  8  2  0
  7  2  1  0
 16 11  1  0
 23 18  2  0
 14 17  1  0
M  CHG 1  19  -1
M  CHG 1  22  -1
M  CHG 1  24  -1
M  END
> <UniqueID>
6

> <SMILES>
C=C1C=C(C(=O)N2CCNCC2)C(=Cc2[n-]c(=O)[n-]c2[O-])C1=C

> <Energy>
105.6296744731802

> <Genealogy>
C=C1C=C(C(=O)N2CCNCC2)C(=Cc2[n-]c(=O)[n-]c2[O-])C1=C (protonated)
C=C1C=C(C(=O)N2CCNCC2)C(=Cc2[n-]c(=O)[n-]c2[O-])C1=C (3D coordinates assigned)
C=C1C=C(C(=O)N2CCNCC2)C(=Cc2[n-]c(=O)[n-]c2[O-])C1=C (nonaromatic ring conformer: 105.6296744731802 kcal/mol)

> <smiles>
C=C1C=C(C(=O)N2CCNCC2)C(=Cc2[nH]c(=O)[nH]c2O)C1=C

> <score_type>
oracle

> <origin>
adg

> <m_score__min__energy>
-15.99

> <m_primary>
energy

> <minimizedAffinity>
-7.21251

> <minimizedRMSD>
0.98737

> <CNNscore>
0.1508450210

> <CNNaffinity>
5.6058387756

> <CNN_VS>
0.8456128836

> <CNNaffinity_variance>
0.3725453615

$$$$
9:0


 26 28  0  0  0  0  0  0  0  0999 V2000
   61.0867   33.0371   47.5402 O   0  0  0  0  0  0  0  0  0  0  0  0
   61.1433   31.7777   47.6275 C   0  0  0  0  0  0  0  0  0  0  0  0
   60.2593   30.9663   46.8223 N   0  0  0  0  0  0  0  0  0  0  0  0
   60.6117   29.5693   46.5186 C   0  0  0  0  0  0  0  0  0  0  0  0
   59.7332   28.9888   45.4074 C   0  0  0  0  0  0  0  0  0  0  0  0
   58.3184   29.2789   45.6797 N   0  0  0  0  0  0  0  0  0  0  0  0
   57.2991   28.3158   45.3499 C   0  0  0  0  0  0  0  0  0  0  0  0
   56.2234   28.7064   44.8192 O   0  0  0  0  0  0  0  0  0  0  0  0
   57.9177   30.6288   46.1010 C   0  0  0  0  0  0  0  0  0  0  0  0
   59.1090   31.5927   46.1525 C   0  0  0  0  0  0  0  0  0  0  0  0
   57.4780   26.8724   45.6184 C   0  0  0  0  0  0  0  0  0  0  0  0
   58.7452   26.2878   45.4470 C   0  0  0  0  0  0  0  0  0  0  0  0
   58.9376   24.9269   45.7004 C   0  0  0  0  0  0  0  0  0  0  0  0
   57.8646   24.1330   46.1174 C   0  0  0  0  0  0  0  0  0  0  0  0
   58.0596   22.7819   46.3720 O   0  0  0  0  0  0  0  0  0  0  0  0
   56.5977   24.7005   46.2721 C   0  0  0  0  0  0  0  0  0  0  0  0
   56.3963   26.0611   46.0143 C   0  0  0  0  0  0  0  0  0  0  0  0
   55.1148   26.5905   46.1324 O   0  0  0  0  0  0  0  0  0  0  0  0
   62.1896   31.1509   48.5172 C   0  0  0  0  0  0  0  0  0  0  0  0
   62.2611   31.8354   49.8587 C   0  0  0  0  0  0  0  0  0  0  0  0
   61.2353   31.6627   50.8019 C   0  0  0  0  0  0  0  0  0  0  0  0
   61.3203   32.2749   52.0567 C   0  0  0  0  0  0  0  0  0  0  0  0
   62.4345   33.0551   52.3813 C   0  0  0  0  0  0  0  0  0  0  0  0
   62.5182   33.6623   53.6283 O   0  0  0  0  0  0  0  0  0  0  0  0
   63.4657   33.2215   51.4523 C   0  0  0  0  0  0  0  0  0  0  0  0
   63.3836   32.6103   50.1963 C   0  0  0  0  0  0  0  0  0  0  0  0
  1  2  2  0
  2 19  1  0
 19 20  1  0
 20 21  2  0
 21 22  1  0
 22 23  2  0
 23 24  1  0
 23 25  1  0
 25 26  2  0
  2  3  1  0
  3  4  1  0
  4  5  1  0
  5  6  1  0
  6  7  1  0
  7  8  2  0
  7 11  1  0
 11 12  2  0
 12 13  1  0
 13 14  2  0
 14 15  1  0
 14 16  1  0
 16 17  2  0
 17 18  1  0
  6  9  1  0
  9 10  1  0
 26 20  1  0
 10  3  1  0
 17 11  1  0
M  CHG 1  15  -1
M  CHG 1  18  -1
M  CHG 1  24  -1
M  END
> <UniqueID>
10

> <SMILES>
O=C(Cc1ccc([O-])cc1)N1CCN(C(=O)c2ccc([O-])cc2[O-])CC1

> <Energy>
51.84035515772399

> <Genealogy>
O=C(Cc1ccc([O-])cc1)N1CCN(C(=O)c2ccc([O-])cc2[O-])CC1 (protonated)
O=C(Cc1ccc([O-])cc1)N1CCN(C(=O)c2ccc([O-])cc2[O-])CC1 (3D coordinates assigned)
O=C(Cc1ccc([O-])cc1)N1CCN(C(=O)c2ccc([O-])cc2[O-])CC1 (nonaromatic ring conformer: 51.84035515772399 kcal/mol)

> <smiles>
O=C(Cc1ccc(O)cc1)N1CCN(C(=O)c2ccc(O)cc2O)CC1

> <score_type>
oracle

> <origin>
adg

> <m_score__min__energy>
-14.1

> <m_primary>
energy

> <minimizedAffinity>
-5.64669

> <minimizedRMSD>
1.18527

> <CNNscore>
0.1302132010

> <CNNaffinity>
5.9401168823

> <CNN_VS>
0.7734816074

> <CNNaffinity_variance>
0.2953880727

$$$$
17:0


 34 37  0  0  0  0  0  0  0  0999 V2000
   58.2807   30.3850   54.1466 C   0  0  0  0  0  0  0  0  0  0  0  0
   58.2307   29.9354   55.3243 O   0  0  0  0  0  0  0  0  0  0  0  0
   57.8212   31.6266   51.4064 C   0  0  0  0  0  0  0  0  0  0  0  0
   56.8435   31.1540   52.1812 C   0  0  0  0  0  0  0  0  0  0  0  0
   57.0004   30.5863   53.4345 C   0  0  0  0  0  0  0  0  0  0  0  0
   55.7316   30.2244   53.8640 C   0  0  0  0  0  0  0  0  0  0  0  0
   55.3990   29.5507   55.1647 C   0  0  0  0  0  0  0  0  0  0  0  0
   54.8562   30.5644   52.8331 C   0  0  0  0  0  0  0  0  0  0  0  0
   53.5323   30.3129   52.8229 C   0  0  0  0  0  0  0  0  0  0  0  0
   55.5457   31.1378   51.8170 N   0  0  0  0  0  0  0  0  0  0  0  0
   55.1700   31.4779   50.9730 H   0  0  0  0  0  0  0  0  0  0  0  0
   52.6579   30.4413   51.6407 C   0  0  0  0  0  0  0  0  0  0  0  0
   52.6973   29.6560   50.5483 N   0  0  0  0  0  0  0  0  0  0  0  0
   51.7643   30.1981   49.7379 C   0  0  0  0  0  0  0  0  0  0  0  0
   51.5057   29.7322   48.5952 O   0  0  0  0  0  0  0  0  0  0  0  0
   51.1423   31.2890   50.2393 N   0  0  0  0  0  0  0  0  0  0  0  0
   51.7274   31.4326   51.4383 C   0  0  0  0  0  0  0  0  0  0  0  0
   51.4129   32.4507   52.3330 O   0  0  0  0  0  0  0  0  0  0  0  0
   59.5663   30.7477   53.5794 N   0  0  0  0  0  0  0  0  0  0  0  0
   60.5663   29.6582   53.6640 C   0  0  0  0  0  0  0  0  0  0  0  0
   61.8996   30.0944   53.0459 C   0  0  0  0  0  0  0  0  0  0  0  0
   62.3971   31.2968   53.7367 N   0  0  0  0  0  0  0  0  0  0  0  0
   61.4159   32.3936   53.6018 C   0  0  0  0  0  0  0  0  0  0  0  0
   60.0778   31.9745   54.2213 C   0  0  0  0  0  0  0  0  0  0  0  0
   59.0948   29.9400   53.8870 H   0  0  0  0  0  0  0  0  0  0  0  0
   63.7173   31.6877   53.2023 C   0  0  0  0  0  0  0  0  0  0  0  0
   63.8458   31.2672   51.7636 C   0  0  0  0  0  0  0  0  0  0  0  0
   64.3812   30.1568   51.5023 O   0  0  0  0  0  0  0  0  0  0  0  0
   63.3635   32.1031   50.6904 N   0  0  0  0  0  0  0  0  0  0  0  0
   63.0849   31.5044   49.3797 C   0  0  0  0  0  0  0  0  0  0  0  0
   62.0044   32.3172   48.6598 C   0  0  0  0  0  0  0  0  0  0  0  0
   62.3506   33.6870   48.6110 O   0  0  0  0  0  0  0  0  0  0  0  0
   62.3787   34.2154   49.9258 C   0  0  0  0  0  0  0  0  0  0  0  0
   63.4915   33.5633   50.7528 C   0  0  0  0  0  0  0  0  0  0  0  0
  3  4  2  0
  4  5  1  0
  5  1  1  0
  1  2  2  0
  1 19  1  0
 19 20  1  0
 20 21  1  0
 21 22  1  0
 22 26  1  0
 26 27  1  0
 27 28  2  0
 27 29  1  0
 29 30  1  0
 30 31  1  0
 31 32  1  0
 32 33  1  0
 33 34  1  0
 22 23  1  0
 23 24  1  0
  5  6  2  0
  6  7  1  0
  6  8  1  0
  8  9  2  0
  9 12  1  0
 12 13  1  0
 13 14  1  0
 14 15  2  0
 14 16  1  0
 16 17  1  0
 17 18  1  0
  8 10  1  0
 10  4  1  0
 24 19  1  0
 17 12  2  0
 34 29  1  0
 19 25  1  0
 10 11  1  0
M  CHG 1  13  -1
M  CHG 1  16  -1
M  CHG 1  18  -1
M  CHG 1  19   1
M  END
> <UniqueID>
18

> <SMILES>
C=c1[nH]/c(=C\c2[n-]c(=O)[n-]c2[O-])c(C)c1C(=O)[NH+]1CCN(CC(=O)N2CCOCC2)CC1

> <Energy>
132.00350132592405

> <Genealogy>
C=c1[nH]c(=Cc2[n-]c(=O)[n-]c2[O-])c(C)c1C(=O)[NH+]1CCN(CC(=O)N2CCOCC2)CC1 (protonated)
C=c1[nH]/c(=C\c2[n-]c(=O)[n-]c2[O-])c(C)c1C(=O)[NH+]1CCN(CC(=O)N2CCOCC2)CC1 (cis-trans isomerization)
C=c1[nH]/c(=C\c2[n-]c(=O)[n-]c2[O-])c(C)c1C(=O)[NH+]1CCN(CC(=O)N2CCOCC2)CC1 (3D coordinates assigned)
C=c1[nH]/c(=C\c2[n-]c(=O)[n-]c2[O-])c(C)c1C(=O)[NH+]1CCN(CC(=O)N2CCOCC2)CC1 (nonaromatic ring conformer: 132.00350132592405 kcal/mol)

> <smiles>
C=c1[nH]c(=Cc2[nH]c(=O)[nH]c2O)c(C)c1C(=O)N1CCN(CC(=O)N2CCOCC2)CC1

> <score_type>
oracle

> <origin>
adg

> <m_score__min__energy>
-15.67

> <m_primary>
energy

> <minimizedAffinity>
-5.07061

> <minimizedRMSD>
1.60362

> <CNNscore>
0.0482402556

> <CNNaffinity>
4.1123728752

> <CNN_VS>
0.1983819157

> <CNNaffinity_variance>
1.0835776329

$$$$
22:0


 38 42  0  0  0  0  0  0  0  0999 V2000
   59.1279   33.2055   47.1949 C   0  0  0  0  0  0  0  0  0  0  0  0
   57.8839   33.3152   46.6769 N   0  0  0  0  0  0  0  0  0  0  0  0
   57.7939   32.2667   45.8301 C   0  0  0  0  0  0  0  0  0  0  0  0
   56.7535   32.0129   45.1663 O   0  0  0  0  0  0  0  0  0  0  0  0
   58.9181   31.5239   45.7650 N   0  0  0  0  0  0  0  0  0  0  0  0
   59.7582   32.1210   46.6263 C   0  0  0  0  0  0  0  0  0  0  0  0
   61.0549   31.6930   46.8910 O   0  0  0  0  0  0  0  0  0  0  0  0
   61.1190   32.9911   52.4129 C   0  0  0  0  0  0  0  0  0  0  0  0
   61.1994   33.3505   51.1297 C   0  0  0  0  0  0  0  0  0  0  0  0
   60.0997   33.5850   50.3779 N   0  0  0  0  0  0  0  0  0  0  0  0
   60.5726   33.8583   49.1434 C   0  0  0  0  0  0  0  0  0  0  0  0
   59.7576   34.1668   48.1207 C   0  0  0  0  0  0  0  0  0  0  0  0
   61.9589   33.7983   49.1833 C   0  0  0  0  0  0  0  0  0  0  0  0
   62.7537   34.0700   48.2447 O   0  0  0  0  0  0  0  0  0  0  0  0
   62.3542   33.4753   50.4284 N   0  0  0  0  0  0  0  0  0  0  0  0
   63.7123   33.3575   50.8894 C   0  0  0  0  0  0  0  0  0  0  0  0
   64.2727   34.3450   51.7169 C   0  0  0  0  0  0  0  0  0  0  0  0
   65.5986   34.2362   52.1441 C   0  0  0  0  0  0  0  0  0  0  0  0
   66.3775   33.1476   51.7420 C   0  0  0  0  0  0  0  0  0  0  0  0
   65.8315   32.1676   50.9085 C   0  0  0  0  0  0  0  0  0  0  0  0
   64.5046   32.2729   50.4791 C   0  0  0  0  0  0  0  0  0  0  0  0
   59.1354   30.2868   45.0169 C   0  0  0  0  0  0  0  0  0  0  0  0
   59.0622   29.1063   45.9458 C   0  0  0  0  0  0  0  0  0  0  0  0
   58.1945   28.0417   45.6701 C   0  0  0  0  0  0  0  0  0  0  0  0
   58.0949   26.9689   46.5573 C   0  0  0  0  0  0  0  0  0  0  0  0
   58.8464   26.9575   47.7359 C   0  0  0  0  0  0  0  0  0  0  0  0
   59.7081   28.0276   48.0448 C   0  0  0  0  0  0  0  0  0  0  0  0
   59.8109   29.0971   47.1341 C   0  0  0  0  0  0  0  0  0  0  0  0
   60.5137   28.0523   49.2997 C   0  0  0  0  0  0  0  0  0  0  0  0
   60.7566   26.9563   49.8792 O   0  0  0  0  0  0  0  0  0  0  0  0
   61.0047   29.2951   49.8723 N   0  0  0  0  0  0  0  0  0  0  0  0
   61.7140   29.0840   51.1656 C   0  0  0  0  0  0  0  0  0  0  0  0
   60.8272   29.3309   52.4018 C   0  0  0  0  0  0  0  0  0  0  0  0
   59.4277   29.0081   52.0912 N   0  0  0  0  0  0  0  0  0  0  0  0
   58.6057   29.0357   53.3107 C   0  0  0  0  0  0  0  0  0  0  0  0
   58.8838   29.9373   51.0790 C   0  0  0  0  0  0  0  0  0  0  0  0
   59.9194   30.2931   49.9855 C   0  0  0  0  0  0  0  0  0  0  0  0
   60.3624   29.9122   50.2918 H   0  0  0  0  0  0  0  0  0  0  0  0
  8  9  2  0
  9 10  1  0
 10 11  1  0
 11 12  2  0
 12  1  1  0
  1  2  1  0
  2  3  1  0
  3  4  2  0
  3  5  1  0
  5 22  1  0
 22 23  1  0
 23 24  2  0
 24 25  1  0
 25 26  2  0
 26 27  1  0
 27 29  1  0
 29 30  2  0
 29 31  1  0
 31 32  1  0
 32 33  1  0
 33 34  1  0
 34 35  1  0
 34 36  1  0
 36 37  1  0
 27 28  2  0
  5  6  1  0
  6  7  1  0
 11 13  1  0
 13 14  2  0
 13 15  1  0
 15 16  1  0
 16 17  2  0
 17 18  1  0
 18 19  2  0
 19 20  1  0
 20 21  2  0
 15  9  1  0
 21 16  1  0
  6  1  2  0
 28 23  1  0
 37 31  1  0
 31 38  1  0
M  CHG 1   2  -1
M  CHG 1   7  -1
M  CHG 1  10  -1
M  CHG 1  31   1
M  END
> <UniqueID>
23

> <SMILES>
C=c1[n-]/c(=C/c2[n-]c(=O)n(Cc3cccc(C(=O)[NH+]4CCN(C)CC4)c3)c2[O-])c(=O)n1-c1ccccc1

> <Energy>
159.41077600904515

> <Genealogy>
C=c1[n-]c(=Cc2[n-]c(=O)n(Cc3cccc(C(=O)[NH+]4CCN(C)CC4)c3)c2[O-])c(=O)n1-c1ccccc1 (protonated)
C=c1[n-]/c(=C/c2[n-]c(=O)n(Cc3cccc(C(=O)[NH+]4CCN(C)CC4)c3)c2[O-])c(=O)n1-c1ccccc1 (cis-trans isomerization)
C=c1[n-]/c(=C/c2[n-]c(=O)n(Cc3cccc(C(=O)[NH+]4CCN(C)CC4)c3)c2[O-])c(=O)n1-c1ccccc1 (3D coordinates assigned)
C=c1[n-]/c(=C/c2[n-]c(=O)n(Cc3cccc(C(=O)[NH+]4CCN(C)CC4)c3)c2[O-])c(=O)n1-c1ccccc1 (nonaromatic ring conformer: 159.41077600904515 kcal/mol)

> <smiles>
C=c1[nH]c(=Cc2[nH]c(=O)n(Cc3cccc(C(=O)N4CCN(C)CC4)c3)c2O)c(=O)n1-c1ccccc1

> <score_type>
oracle

> <origin>
adg

> <m_score__min__energy>
-14.48

> <m_primary>
energy

> <minimizedAffinity>
-8.10134

> <minimizedRMSD>
2.35728

> <CNNscore>
0.2709917724

> <CNNaffinity>
6.4014267921

> <CNN_VS>
1.7347339392

> <CNNaffinity_variance>
0.1789730340

$$$$
44:0


 35 38  0  0  0  0  0  0  0  0999 V2000
   58.3118   31.0246   53.0927 C   0  0  0  0  0  0  0  0  0  0  0  0
   57.9143   31.6928   54.0872 O   0  0  0  0  0  0  0  0  0  0  0  0
   59.4180   31.5155   52.3077 N   0  0  0  0  0  0  0  0  0  0  0  0
   59.6431   32.9284   52.1082 C   0  0  0  0  0  0  0  0  0  0  0  0
   58.8619   33.7894   52.5969 O   0  0  0  0  0  0  0  0  0  0  0  0
   60.8057   33.3768   51.2786 C   0  0  0  0  0  0  0  0  0  0  0  0
   60.9951   32.4469   50.1616 N   0  0  0  0  0  0  0  0  0  0  0  0
   60.9049   31.0330   50.4224 C   0  0  0  0  0  0  0  0  0  0  0  0
   61.2801   30.1943   49.5601 O   0  0  0  0  0  0  0  0  0  0  0  0
   60.3767   30.5514   51.7438 C   0  0  0  0  0  0  0  0  0  0  0  0
   57.6354   29.7217   52.7596 C   0  0  0  0  0  0  0  0  0  0  0  0
   53.8903   28.9727   55.7972 C   0  0  0  0  0  0  0  0  0  0  0  0
   54.5871   29.3565   54.7156 C   0  0  0  0  0  0  0  0  0  0  0  0
   54.0555   29.9416   53.5610 C   0  0  0  0  0  0  0  0  0  0  0  0
   52.7753   30.2989   53.3404 C   0  0  0  0  0  0  0  0  0  0  0  0
   55.1230   30.1388   52.6981 C   0  0  0  0  0  0  0  0  0  0  0  0
   56.2469   29.6573   53.3395 C   0  0  0  0  0  0  0  0  0  0  0  0
   55.9307   29.2047   54.5770 N   0  0  0  0  0  0  0  0  0  0  0  0
   52.1906   30.4904   51.9993 C   0  0  0  0  0  0  0  0  0  0  0  0
   52.3516   29.6144   50.9922 N   0  0  0  0  0  0  0  0  0  0  0  0
   51.7378   30.2157   49.9515 C   0  0  0  0  0  0  0  0  0  0  0  0
   51.6647   29.6882   48.8106 O   0  0  0  0  0  0  0  0  0  0  0  0
   51.2177   31.4305   50.2237 N   0  0  0  0  0  0  0  0  0  0  0  0
   51.5227   31.5963   51.5212 C   0  0  0  0  0  0  0  0  0  0  0  0
   51.2385   32.7551   52.2349 O   0  0  0  0  0  0  0  0  0  0  0  0
   56.8676   28.6147   55.5479 C   0  0  0  0  0  0  0  0  0  0  0  0
   57.0549   27.1278   55.2698 C   0  0  0  0  0  0  0  0  0  0  0  0
   61.0984   32.9568   48.7873 C   0  0  0  0  0  0  0  0  0  0  0  0
   60.1756   34.1664   48.5736 C   0  0  0  0  0  0  0  0  0  0  0  0
   59.3738   34.0428   47.3026 C   0  0  0  0  0  0  0  0  0  0  0  0
   58.2122   33.2506   47.2685 C   0  0  0  0  0  0  0  0  0  0  0  0
   57.5091   33.0827   46.0725 C   0  0  0  0  0  0  0  0  0  0  0  0
   57.9551   33.7072   44.9041 C   0  0  0  0  0  0  0  0  0  0  0  0
   59.1052   34.5017   44.9300 C   0  0  0  0  0  0  0  0  0  0  0  0
   59.8145   34.6681   46.1238 C   0  0  0  0  0  0  0  0  0  0  0  0
 12 13  2  0
 13 14  1  0
 14 15  2  0
 15 19  1  0
 19 20  1  0
 20 21  1  0
 21 22  2  0
 21 23  1  0
 23 24  1  0
 24 25  1  0
 14 16  1  0
 16 17  2  0
 17 11  1  0
 11  1  1  0
  1  2  2  0
  1  3  1  0
  3  4  1  0
  4  5  2  0
  4  6  1  0
  6  7  1  0
  7 28  1  0
 28 29  1  0
 29 30  1  0
 30 31  2  0
 31 32  1  0
 32 33  2  0
 33 34  1  0
 34 35  2  0
  7  8  1  0
  8  9  2  0
  8 10  1  0
 17 18  1  0
 18 26  1  0
 26 27  1  0
 18 13  1  0
 24 19  2  0
 10  3  1  0
 35 30  1  0
M  CHG 1  20  -1
M  CHG 1  23  -1
M  CHG 1  25  -1
M  END
> <UniqueID>
42

> <SMILES>
C=c1/c(=C/c2[n-]c(=O)[n-]c2[O-])cc(CC(=O)N2CC(=O)N(CCc3ccccc3)CC2=O)n1CC

> <Energy>
123.51103908212968

> <Genealogy>
C=c1c(=Cc2[n-]c(=O)[n-]c2[O-])cc(CC(=O)N2CC(=O)N(CCc3ccccc3)CC2=O)n1CC (protonated)
C=c1/c(=C/c2[n-]c(=O)[n-]c2[O-])cc(CC(=O)N2CC(=O)N(CCc3ccccc3)CC2=O)n1CC (cis-trans isomerization)
C=c1/c(=C/c2[n-]c(=O)[n-]c2[O-])cc(CC(=O)N2CC(=O)N(CCc3ccccc3)CC2=O)n1CC (3D coordinates assigned)
C=c1/c(=C/c2[n-]c(=O)[n-]c2[O-])cc(CC(=O)N2CC(=O)N(CCc3ccccc3)CC2=O)n1CC (nonaromatic ring conformer: 123.51103908212968 kcal/mol)

> <smiles>
C=c1c(=Cc2[nH]c(=O)[nH]c2O)cc(CC(=O)N2CC(=O)N(CCc3ccccc3)CC2=O)n1CC

> <score_type>
oracle

> <origin>
adg

> <m_score__min__energy>
-18.969999999999999

> <m_primary>
energy

> <minimizedAffinity>
-7.48023

> <minimizedRMSD>
1.08280

> <CNNscore>
0.1312442869

> <CNNaffinity>
5.6428165436

> <CNN_VS>
0.7405874133

> <CNNaffinity_variance>
0.5279046893

$$$$
55:0


 31 34  0  0  0  0  0  0  0  0999 V2000
   59.9764   32.2393   48.2688 C   0  0  0  0  0  0  0  0  0  0  0  0
   59.2559   32.2209   49.4702 C   0  0  0  0  0  0  0  0  0  0  0  0
   59.5957   33.0854   50.5236 C   0  0  0  0  0  0  0  0  0  0  0  0
   60.6884   33.9521   50.3681 C   0  0  0  0  0  0  0  0  0  0  0  0
   61.4061   33.9799   49.1711 C   0  0  0  0  0  0  0  0  0  0  0  0
   61.0493   33.1390   48.1058 C   0  0  0  0  0  0  0  0  0  0  0  0
   61.8420   33.1702   46.8283 C   0  0  0  0  0  0  0  0  0  0  0  0
   58.8401   33.0454   51.7956 C   0  0  0  0  0  0  0  0  0  0  0  0
   58.7547   34.0896   52.4988 O   0  0  0  0  0  0  0  0  0  0  0  0
   58.1926   31.8406   52.2395 N   0  0  0  0  0  0  0  0  0  0  0  0
   58.9805   30.6078   52.3594 C   0  0  0  0  0  0  0  0  0  0  0  0
   58.1224   29.4642   52.9117 C   0  0  0  0  0  0  0  0  0  0  0  0
   56.8007   29.4716   52.2784 N   0  0  0  0  0  0  0  0  0  0  0  0
   56.0239   30.6821   52.6159 C   0  0  0  0  0  0  0  0  0  0  0  0
   56.8865   31.9305   52.9013 C   0  0  0  0  0  0  0  0  0  0  0  0
   56.2822   28.6511   52.5920 H   0  0  0  0  0  0  0  0  0  0  0  0
   60.8898   29.4473   47.8729 C   0  0  0  0  0  0  0  0  0  0  0  0
   60.0337   30.0612   47.0417 C   0  0  0  0  0  0  0  0  0  0  0  0
   59.4446   29.5193   45.8910 C   0  0  0  0  0  0  0  0  0  0  0  0
   59.6262   28.2734   45.4026 C   0  0  0  0  0  0  0  0  0  0  0  0
   58.6292   30.5211   45.3699 C   0  0  0  0  0  0  0  0  0  0  0  0
   58.7515   31.6108   46.2098 C   0  0  0  0  0  0  0  0  0  0  0  0
   58.0695   32.9290   46.0117 C   0  0  0  0  0  0  0  0  0  0  0  0
   59.6065   31.3353   47.2148 N   0  0  0  0  0  0  0  0  0  0  0  0
   58.7335   27.1150   45.6286 C   0  0  0  0  0  0  0  0  0  0  0  0
   59.1194   25.8706   45.9675 N   0  0  0  0  0  0  0  0  0  0  0  0
   57.9549   25.1970   46.0832 C   0  0  0  0  0  0  0  0  0  0  0  0
   57.9048   23.9787   46.3905 O   0  0  0  0  0  0  0  0  0  0  0  0
   56.8498   25.9348   45.8478 N   0  0  0  0  0  0  0  0  0  0  0  0
   57.3593   27.1438   45.5650 C   0  0  0  0  0  0  0  0  0  0  0  0
   56.5836   28.2539   45.2507 O   0  0  0  0  0  0  0  0  0  0  0  0
 17 18  2  0
 18 19  1  0
 19 20  2  0
 20 25  1  0
 25 26  1  0
 26 27  1  0
 27 28  2  0
 27 29  1  0
 29 30  1  0
 30 31  1  0
 19 21  1  0
 21 22  2  0
 22 23  1  0
 22 24  1  0
 24  1  1  0
  1  2  2  0
  2  3  1  0
  3  8  1  0
  8  9  2  0
  8 10  1  0
 10 11  1  0
 11 12  1  0
 12 13  1  0
 13 14  1  0
 14 15  1  0
  3  4  2  0
  4  5  1  0
  5  6  2  0
  6  7  1  0
 24 18  1  0
  6  1  1  0
 30 25  2  0
 15 10  1  0
 13 16  1  0
M  CHG 1  26  -1
M  CHG 1  29  -1
M  CHG 1  31  -1
M  END
> <UniqueID>
50

> <SMILES>
C=c1/c(=C/c2[n-]c(=O)[n-]c2[O-])cc(C)n1-c1cc(C(=O)N2CCNCC2)ccc1C

> <Energy>
131.73676961646723

> <Genealogy>
C=c1c(=Cc2[n-]c(=O)[n-]c2[O-])cc(C)n1-c1cc(C(=O)N2CCNCC2)ccc1C (protonated)
C=c1/c(=C/c2[n-]c(=O)[n-]c2[O-])cc(C)n1-c1cc(C(=O)N2CCNCC2)ccc1C (cis-trans isomerization)
C=c1/c(=C/c2[n-]c(=O)[n-]c2[O-])cc(C)n1-c1cc(C(=O)N2CCNCC2)ccc1C (3D coordinates assigned)
C=c1/c(=C/c2[n-]c(=O)[n-]c2[O-])cc(C)n1-c1cc(C(=O)N2CCNCC2)ccc1C (nonaromatic ring conformer: 131.73676961646723 kcal/mol)

> <smiles>
C=c1c(=Cc2[nH]c(=O)[nH]c2O)cc(C)n1-c1cc(C(=O)N2CCNCC2)ccc1C

> <score_type>
oracle

> <origin>
adg

> <m_score__min__energy>
-16.600000000000001

> <m_primary>
energy

> <minimizedAffinity>
-7.64612

> <minimizedRMSD>
1.01865

> <CNNscore>
0.4080692828

> <CNNaffinity>
6.9413719177

> <CNN_VS>
2.8325607777

> <CNNaffinity_variance>
0.1216748580

$$$$
65:0


 33 36  0  0  0  0  0  0  0  0999 V2000
   61.6616   31.8545   53.1011 N   0  0  0  0  0  0  0  0  0  0  0  0
   61.8616   30.6803   52.2083 C   0  0  0  0  0  0  0  0  0  0  0  0
   60.7514   29.6140   52.3060 C   0  0  0  0  0  0  0  0  0  0  0  0
   59.4630   30.2256   52.6506 N   0  0  0  0  0  0  0  0  0  0  0  0
   58.2780   29.8996   51.8996 C   0  0  0  0  0  0  0  0  0  0  0  0
   58.3483   29.7677   50.6483 O   0  0  0  0  0  0  0  0  0  0  0  0
   59.3941   31.1895   53.7575 C   0  0  0  0  0  0  0  0  0  0  0  0
   60.7968   31.5452   54.2551 C   0  0  0  0  0  0  0  0  0  0  0  0
   56.9631   29.7763   52.5578 C   0  0  0  0  0  0  0  0  0  0  0  0
   55.8452   30.4939   52.1805 C   0  0  0  0  0  0  0  0  0  0  0  0
   54.8166   30.1091   53.0270 C   0  0  0  0  0  0  0  0  0  0  0  0
   53.5579   30.5955   53.0301 C   0  0  0  0  0  0  0  0  0  0  0  0
   55.3598   29.1551   53.8946 C   0  0  0  0  0  0  0  0  0  0  0  0
   54.7104   28.5175   54.8798 C   0  0  0  0  0  0  0  0  0  0  0  0
   56.6648   28.9434   53.5867 N   0  0  0  0  0  0  0  0  0  0  0  0
   57.5344   27.9135   54.1647 C   0  0  0  0  0  0  0  0  0  0  0  0
   52.6733   30.6067   51.8504 C   0  0  0  0  0  0  0  0  0  0  0  0
   52.8231   29.7681   50.8078 N   0  0  0  0  0  0  0  0  0  0  0  0
   51.8925   30.1916   49.9269 C   0  0  0  0  0  0  0  0  0  0  0  0
   51.7138   29.6377   48.8103 O   0  0  0  0  0  0  0  0  0  0  0  0
   51.1761   31.2626   50.3323 N   0  0  0  0  0  0  0  0  0  0  0  0
   51.6903   31.5219   51.5451 C   0  0  0  0  0  0  0  0  0  0  0  0
   51.3015   32.6033   52.3301 O   0  0  0  0  0  0  0  0  0  0  0  0
   62.9508   32.4149   53.5624 C   0  0  0  0  0  0  0  0  0  0  0  0
   63.2653   33.7390   52.8509 C   0  0  0  0  0  0  0  0  0  0  0  0
   63.8811   33.0333   47.2157 O   0  0  0  0  0  0  0  0  0  0  0  0
   63.7322   33.1912   48.5930 C   0  0  0  0  0  0  0  0  0  0  0  0
   64.7182   32.7254   49.4756 C   0  0  0  0  0  0  0  0  0  0  0  0
   64.5616   32.8943   50.8556 C   0  0  0  0  0  0  0  0  0  0  0  0
   63.4140   33.5194   51.3685 C   0  0  0  0  0  0  0  0  0  0  0  0
   62.4327   33.9939   50.4784 C   0  0  0  0  0  0  0  0  0  0  0  0
   62.5901   33.8241   49.0973 C   0  0  0  0  0  0  0  0  0  0  0  0
   64.6434   32.6104   46.8723 H   0  0  0  0  0  0  0  0  0  0  0  0
 26 27  1  0
 27 28  2  0
 28 29  1  0
 29 30  2  0
 30 25  1  0
 25 24  1  0
 24  1  1  0
  1  2  1  0
  2  3  1  0
  3  4  1  0
  4  5  1  0
  5  6  2  0
  5  9  1  0
  9 10  2  0
 10 11  1  0
 11 12  2  0
 12 17  1  0
 17 18  1  0
 18 19  1  0
 19 20  2  0
 19 21  1  0
 21 22  1  0
 22 23  1  0
 11 13  1  0
 13 14  2  0
 13 15  1  0
 15 16  1  0
  4  7  1  0
  7  8  1  0
 30 31  1  0
 31 32  2  0
 32 27  1  0
  8  1  1  0
 15  9  1  0
 22 17  2  0
 26 33  1  0
M  CHG 1  18  -1
M  CHG 1  21  -1
M  CHG 1  23  -1
M  END
> <UniqueID>
59

> <SMILES>
C=c1/c(=C/c2[n-]c(=O)[n-]c2[O-])cc(C(=O)N2CCN(CCc3ccc(O)cc3)CC2)n1C

> <Energy>
134.53028243695752

> <Genealogy>
C=c1c(=Cc2[n-]c(=O)[n-]c2[O-])cc(C(=O)N2CCN(CCc3ccc(O)cc3)CC2)n1C (protonated)
C=c1/c(=C/c2[n-]c(=O)[n-]c2[O-])cc(C(=O)N2CCN(CCc3ccc(O)cc3)CC2)n1C (cis-trans isomerization)
C=c1/c(=C/c2[n-]c(=O)[n-]c2[O-])cc(C(=O)N2CCN(CCc3ccc(O)cc3)CC2)n1C (3D coordinates assigned)
C=c1/c(=C/c2[n-]c(=O)[n-]c2[O-])cc(C(=O)N2CCN(CCc3ccc(O)cc3)CC2)n1C (nonaromatic ring conformer: 134.53028243695752 kcal/mol)

> <smiles>
C=c1c(=Cc2[nH]c(=O)[nH]c2O)cc(C(=O)N2CCN(CCc3ccc(O)cc3)CC2)n1C

> <score_type>
oracle

> <origin>
adg

> <m_score__min__energy>
-18.02

> <m_primary>
energy

> <minimizedAffinity>
-6.30385

> <minimizedRMSD>
0.77965

> <CNNscore>
0.1437102705

> <CNNaffinity>
4.6811752319

> <CNN_VS>
0.6727329493

> <CNNaffinity_variance>
0.7049881816

$$$$
66:0


 25 27  0  0  0  0  0  0  0  0999 V2000
   58.7627   28.1143   47.5788 C   0  0  0  0  0  0  0  0  0  0  0  0
   58.6256   28.8360   46.4553 C   0  0  0  0  0  0  0  0  0  0  0  0
   58.2826   28.3420   45.1881 C   0  0  0  0  0  0  0  0  0  0  0  0
   58.2571   27.0842   44.7070 C   0  0  0  0  0  0  0  0  0  0  0  0
   57.9479   29.4430   44.4234 C   0  0  0  0  0  0  0  0  0  0  0  0
   58.1758   30.5587   45.2009 C   0  0  0  0  0  0  0  0  0  0  0  0
   58.6122   30.1981   46.4347 N   0  0  0  0  0  0  0  0  0  0  0  0
   57.7956   25.8958   45.4442 C   0  0  0  0  0  0  0  0  0  0  0  0
   58.4679   24.7331   45.5263 N   0  0  0  0  0  0  0  0  0  0  0  0
   57.6063   23.9197   46.1747 C   0  0  0  0  0  0  0  0  0  0  0  0
   57.8848   22.7251   46.4579 O   0  0  0  0  0  0  0  0  0  0  0  0
   56.4193   24.4836   46.4844 N   0  0  0  0  0  0  0  0  0  0  0  0
   56.5518   25.7296   46.0017 C   0  0  0  0  0  0  0  0  0  0  0  0
   55.5534   26.6935   46.0666 O   0  0  0  0  0  0  0  0  0  0  0  0
   57.8665   31.9622   44.7498 C   0  0  0  0  0  0  0  0  0  0  0  0
   57.8647   32.0531   43.2270 C   0  0  0  0  0  0  0  0  0  0  0  0
   58.9063   31.1067   47.5582 C   0  0  0  0  0  0  0  0  0  0  0  0
   60.2981   31.6986   47.4540 C   0  0  0  0  0  0  0  0  0  0  0  0
   60.5259   33.0667   47.1699 C   0  0  0  0  0  0  0  0  0  0  0  0
   61.7997   33.5417   47.1056 N   0  0  0  0  0  0  0  0  0  0  0  0
   62.8793   32.7469   47.3153 C   0  0  0  0  0  0  0  0  0  0  0  0
   62.7045   31.3975   47.6191 C   0  0  0  0  0  0  0  0  0  0  0  0
   61.4132   30.8779   47.6957 C   0  0  0  0  0  0  0  0  0  0  0  0
   59.4454   33.9930   46.9524 C   0  0  0  0  0  0  0  0  0  0  0  0
   58.5763   34.7341   46.7660 N   0  0  0  0  0  0  0  0  0  0  0  0
  1  2  2  0
  2  3  1  0
  3  4  2  0
  4  8  1  0
  8  9  1  0
  9 10  1  0
 10 11  2  0
 10 12  1  0
 12 13  1  0
 13 14  1  0
  3  5  1  0
  5  6  2  0
  6 15  1  0
 15 16  1  0
  6  7  1  0
  7 17  1  0
 17 18  1  0
 18 19  2  0
 19 24  1  0
 24 25  3  0
 19 20  1  0
 20 21  2  0
 21 22  1  0
 22 23  2  0
  7  2  1  0
 23 18  1  0
 13  8  2  0
M  CHG 1   9  -1
M  CHG 1  12  -1
M  CHG 1  14  -1
M  END
> <UniqueID>
60

> <SMILES>
C=c1/c(=C\c2[n-]c(=O)[n-]c2[O-])cc(CC)n1Cc1cccnc1C#N

> <Energy>
108.45556027989872

> <Genealogy>
C=c1c(=Cc2[n-]c(=O)[n-]c2[O-])cc(CC)n1Cc1cccnc1C#N (protonated)
C=c1/c(=C\c2[n-]c(=O)[n-]c2[O-])cc(CC)n1Cc1cccnc1C#N (cis-trans isomerization)
C=c1/c(=C\c2[n-]c(=O)[n-]c2[O-])cc(CC)n1Cc1cccnc1C#N (3D coordinates assigned)
C=c1/c(=C\c2[n-]c(=O)[n-]c2[O-])cc(CC)n1Cc1cccnc1C#N (optimized conformer: 108.45556027989872 kcal/mol)

> <smiles>
C=c1c(=Cc2[nH]c(=O)[nH]c2O)cc(CC)n1Cc1cccnc1C#N

> <score_type>
oracle

> <origin>
adg

> <m_score__min__energy>
-15.41

> <m_primary>
energy

> <minimizedAffinity>
-7.36162

> <minimizedRMSD>
0.69349

> <CNNscore>
0.2488539517

> <CNNaffinity>
6.5878109932

> <CNN_VS>
1.6394027472

> <CNNaffinity_variance>
0.0269064847

$$$$
77:0


 42 46  0  0  0  0  0  0  0  0999 V2000
   58.0301   31.3688   45.1566 C   0  0  0  0  0  0  0  0  0  0  0  0
   57.5081   32.6535   44.9162 C   0  0  0  0  0  0  0  0  0  0  0  0
   57.5553   33.6314   45.9160 C   0  0  0  0  0  0  0  0  0  0  0  0
   58.1308   33.3404   47.1555 C   0  0  0  0  0  0  0  0  0  0  0  0
   58.6493   32.0603   47.4098 C   0  0  0  0  0  0  0  0  0  0  0  0
   58.5549   31.0725   46.4214 C   0  0  0  0  0  0  0  0  0  0  0  0
   59.3606   31.7751   48.6690 C   0  0  0  0  0  0  0  0  0  0  0  0
   58.8073   32.0599   49.7669 O   0  0  0  0  0  0  0  0  0  0  0  0
   60.6927   31.2241   48.6513 N   0  0  0  0  0  0  0  0  0  0  0  0
   61.5937   31.5113   47.5168 C   0  0  0  0  0  0  0  0  0  0  0  0
   63.0646   31.4397   47.9393 C   0  0  0  0  0  0  0  0  0  0  0  0
   63.2082   31.9651   49.3025 N   0  0  0  0  0  0  0  0  0  0  0  0
   63.9044   33.2056   49.5334 C   0  0  0  0  0  0  0  0  0  0  0  0
   63.8657   34.1324   48.6747 O   0  0  0  0  0  0  0  0  0  0  0  0
   64.5924   33.4216   50.7694 N   0  0  0  0  0  0  0  0  0  0  0  0
   65.9331   32.8562   50.9519 C   0  0  0  0  0  0  0  0  0  0  0  0
   66.3841   32.9869   52.4143 C   0  0  0  0  0  0  0  0  0  0  0  0
   66.2239   34.3621   52.9481 N   0  0  0  0  0  0  0  0  0  0  0  0
   67.4186   35.1832   52.6850 C   0  0  0  0  0  0  0  0  0  0  0  0
   64.9882   35.0735   52.5192 C   0  0  0  0  0  0  0  0  0  0  0  0
   63.9530   34.1562   51.8580 C   0  0  0  0  0  0  0  0  0  0  0  0
   62.4171   31.3736   50.3895 C   0  0  0  0  0  0  0  0  0  0  0  0
   61.2401   30.5522   49.8363 C   0  0  0  0  0  0  0  0  0  0  0  0
   58.0490   30.3269   44.0677 C   0  0  0  0  0  0  0  0  0  0  0  0
   55.9471   26.5009   46.2464 C   0  0  0  0  0  0  0  0  0  0  0  0
   57.0459   26.9597   45.6163 C   0  0  0  0  0  0  0  0  0  0  0  0
   56.9857   28.2284   44.9970 C   0  0  0  0  0  0  0  0  0  0  0  0
   55.7470   28.8247   44.7656 O   0  0  0  0  0  0  0  0  0  0  0  0
   58.1629   28.9232   44.6515 C   0  0  0  0  0  0  0  0  0  0  0  0
   59.4176   28.3429   44.9587 C   0  0  0  0  0  0  0  0  0  0  0  0
   59.4661   27.0378   45.4618 C   0  0  0  0  0  0  0  0  0  0  0  0
   58.3007   26.2839   45.6890 C   0  0  0  0  0  0  0  0  0  0  0  0
   58.4591   24.9573   45.9291 C   0  0  0  0  0  0  0  0  0  0  0  0
   57.6182   23.8689   45.3766 C   0  0  0  0  0  0  0  0  0  0  0  0
   57.3797   23.6514   44.0704 N   0  0  0  0  0  0  0  0  0  0  0  0
   56.6376   22.5199   44.0695 C   0  0  0  0  0  0  0  0  0  0  0  0
   56.1843   22.0110   43.0132 O   0  0  0  0  0  0  0  0  0  0  0  0
   56.4133   21.9881   45.2899 N   0  0  0  0  0  0  0  0  0  0  0  0
   57.0497   22.8483   46.1052 C   0  0  0  0  0  0  0  0  0  0  0  0
   57.1294   22.6848   47.4816 O   0  0  0  0  0  0  0  0  0  0  0  0
   60.7293   29.0817   44.7958 C   0  0  0  0  0  0  0  0  0  0  0  0
   61.8753   28.3086   45.4465 C   0  0  0  0  0  0  0  0  0  0  0  0
 25 26  2  0
 26 27  1  0
 27 28  1  0
 27 29  2  0
 29 24  1  0
 24  1  1  0
  1  2  2  0
  2  3  1  0
  3  4  2  0
  4  5  1  0
  5  7  1  0
  7  8  2  0
  7  9  1  0
  9 10  1  0
 10 11  1  0
 11 12  1  0
 12 13  1  0
 13 14  2  0
 13 15  1  0
 15 16  1  0
 16 17  1  0
 17 18  1  0
 18 19  1  0
 18 20  1  0
 20 21  1  0
 12 22  1  0
 22 23  1  0
  5  6  2  0
 29 30  1  0
 30 41  1  0
 41 42  1  0
 30 31  2  0
 31 32  1  0
 32 33  2  0
 33 34  1  0
 34 35  1  0
 35 36  1  0
 36 37  2  0
 36 38  1  0
 38 39  1  0
 39 40  1  0
 32 26  1  0
 39 34  2  0
  6  1  1  0
 23  9  1  0
 21 15  1  0
M  CHG 1  28  -1
M  CHG 1  35  -1
M  CHG 1  38  -1
M  CHG 1  40  -1
M  END
> <UniqueID>
71

> <SMILES>
C=c1c([O-])c(Cc2cccc(C(=O)N3CCN(C(=O)N4CCN(C)CC4)CC3)c2)c(CC)cc1=Cc1[n-]c(=O)[n-]c1[O-]

> <Energy>
151.82881200855655

> <Genealogy>
C=c1c([O-])c(Cc2cccc(C(=O)N3CCN(C(=O)N4CCN(C)CC4)CC3)c2)c(CC)cc1=Cc1[n-]c(=O)[n-]c1[O-] (protonated)
C=c1c([O-])c(Cc2cccc(C(=O)N3CCN(C(=O)N4CCN(C)CC4)CC3)c2)c(CC)cc1=Cc1[n-]c(=O)[n-]c1[O-] (3D coordinates assigned)
C=c1c([O-])c(Cc2cccc(C(=O)N3CCN(C(=O)N4CCN(C)CC4)CC3)c2)c(CC)cc1=Cc1[n-]c(=O)[n-]c1[O-] (nonaromatic ring conformer: 151.82881200855655 kcal/mol)

> <smiles>
C=c1c(O)c(Cc2cccc(C(=O)N3CCN(C(=O)N4CCN(C)CC4)CC3)c2)c(CC)cc1=Cc1[nH]c(=O)[nH]c1O

> <score_type>
oracle

> <origin>
adg

> <m_score__min__energy>
-19.43

> <m_primary>
energy

> <minimizedAffinity>
-7.07201

> <minimizedRMSD>
0.58635

> <CNNscore>
0.1595749557

> <CNNaffinity>
6.7106432915

> <CNN_VS>
1.0708506107

> <CNNaffinity_variance>
0.4003917277

$$$$
85:0


 32 35  0  0  0  0  0  0  0  0999 V2000
   58.2742   30.4429   44.8354 C   0  0  0  0  0  0  0  0  0  0  0  0
   58.7325   30.9897   43.7972 O   0  0  0  0  0  0  0  0  0  0  0  0
   57.5536   31.2562   45.8045 N   0  0  0  0  0  0  0  0  0  0  0  0
   57.4830   32.6800   45.3559 C   0  0  0  0  0  0  0  0  0  0  0  0
   57.9625   33.6871   46.4086 C   0  0  0  0  0  0  0  0  0  0  0  0
   59.2288   33.2216   46.9752 N   0  0  0  0  0  0  0  0  0  0  0  0
   60.4545   33.9514   46.7525 C   0  0  0  0  0  0  0  0  0  0  0  0
   60.5057   34.8447   45.8656 O   0  0  0  0  0  0  0  0  0  0  0  0
   59.2630   31.8799   47.5690 C   0  0  0  0  0  0  0  0  0  0  0  0
   57.9957   31.0725   47.2139 C   0  0  0  0  0  0  0  0  0  0  0  0
   57.1521   31.9533   45.2369 H   0  0  0  0  0  0  0  0  0  0  0  0
   61.6829   33.6328   47.4966 C   0  0  0  0  0  0  0  0  0  0  0  0
   62.9062   33.3379   46.9371 C   0  0  0  0  0  0  0  0  0  0  0  0
   63.7560   33.1031   47.9994 C   0  0  0  0  0  0  0  0  0  0  0  0
   63.1098   33.2588   49.1339 O   0  0  0  0  0  0  0  0  0  0  0  0
   61.8664   33.5839   48.8702 C   0  0  0  0  0  0  0  0  0  0  0  0
   60.8592   33.8956   49.9314 C   0  0  0  0  0  0  0  0  0  0  0  0
   60.3352   26.3406   46.3652 C   0  0  0  0  0  0  0  0  0  0  0  0
   59.4889   27.1667   45.7290 C   0  0  0  0  0  0  0  0  0  0  0  0
   58.3283   26.7952   45.0333 C   0  0  0  0  0  0  0  0  0  0  0  0
   57.8619   25.5410   44.8506 C   0  0  0  0  0  0  0  0  0  0  0  0
   57.7556   27.9823   44.5906 C   0  0  0  0  0  0  0  0  0  0  0  0
   58.5617   29.0074   45.0384 C   0  0  0  0  0  0  0  0  0  0  0  0
   59.6380   28.5153   45.6936 N   0  0  0  0  0  0  0  0  0  0  0  0
   60.7263   29.2995   46.2862 C   0  0  0  0  0  0  0  0  0  0  0  0
   57.2061   24.6980   45.8783 C   0  0  0  0  0  0  0  0  0  0  0  0
   57.7284   23.6025   46.4596 N   0  0  0  0  0  0  0  0  0  0  0  0
   56.7651   23.2097   47.3203 C   0  0  0  0  0  0  0  0  0  0  0  0
   56.8892   22.2001   48.0627 O   0  0  0  0  0  0  0  0  0  0  0  0
   55.6610   23.9846   47.3268 N   0  0  0  0  0  0  0  0  0  0  0  0
   55.9568   24.9214   46.4113 C   0  0  0  0  0  0  0  0  0  0  0  0
   55.1012   25.9595   46.0675 O   0  0  0  0  0  0  0  0  0  0  0  0
 18 19  2  0
 19 20  1  0
 20 21  2  0
 21 26  1  0
 26 27  1  0
 27 28  1  0
 28 29  2  0
 28 30  1  0
 30 31  1  0
 31 32  1  0
 20 22  1  0
 22 23  2  0
 23  1  1  0
  1  2  2  0
  1  3  1  0
  3  4  1  0
  4  5  1  0
  5  6  1  0
  6  7  1  0
  7  8  2  0
  7 12  1  0
 12 13  1  0
 13 14  2  0
 14 15  1  0
 15 16  1  0
 16 17  1  0
  6  9  1  0
  9 10  1  0
 23 24  1  0
 24 25  1  0
 24 19  1  0
 31 26  2  0
 10  3  1  0
 16 12  2  0
  3 11  1  0
M  CHG 1   3   1
M  CHG 1  27  -1
M  CHG 1  30  -1
M  CHG 1  32  -1
M  END
> <UniqueID>
78

> <SMILES>
C=c1c(=Cc2[n-]c(=O)[n-]c2[O-])cc(C(=O)[NH+]2CCN(C(=O)c3ccoc3C)CC2)n1C

> <Energy>
166.68802528203923

> <Genealogy>
C=c1c(=Cc2[n-]c(=O)[n-]c2[O-])cc(C(=O)[NH+]2CCN(C(=O)c3ccoc3C)CC2)n1C (protonated)
C=c1c(=Cc2[n-]c(=O)[n-]c2[O-])cc(C(=O)[NH+]2CCN(C(=O)c3ccoc3C)CC2)n1C (3D coordinates assigned)
C=c1c(=Cc2[n-]c(=O)[n-]c2[O-])cc(C(=O)[NH+]2CCN(C(=O)c3ccoc3C)CC2)n1C (nonaromatic ring conformer: 166.68802528203923 kcal/mol)

> <smiles>
C=c1c(=Cc2[nH]c(=O)[nH]c2O)cc(C(=O)N2CCN(C(=O)c3ccoc3C)CC2)n1C

> <score_type>
oracle

> <origin>
adg

> <m_score__min__energy>
-16.489999999999998

> <m_primary>
energy

> <minimizedAffinity>
-7.42798

> <minimizedRMSD>
0.65157

> <CNNscore>
0.2602789402

> <CNNaffinity>
6.8611030579

> <CNN_VS>
1.7858005762

> <CNNaffinity_variance>
0.0076045766

$$$$
15:0


 35 38  0  0  0  0  0  0  0  0999 V2000
   57.0304   30.2416   44.1163 C   0  0  0  0  0  0  0  0  0  0  0  0
   55.9171   30.0793   44.6854 O   0  0  0  0  0  0  0  0  0  0  0  0
   57.6703   29.0855   43.3945 C   0  0  0  0  0  0  0  0  0  0  0  0
   60.3817   26.5201   47.0859 C   0  0  0  0  0  0  0  0  0  0  0  0
   59.5246   26.8711   46.1234 C   0  0  0  0  0  0  0  0  0  0  0  0
   59.5387   28.3862   45.3890 S   0  0  0  0  0  0  0  0  0  0  0  0
   58.2602   28.0913   44.3438 C   0  0  0  0  0  0  0  0  0  0  0  0
   57.8058   26.7933   44.5364 C   0  0  0  0  0  0  0  0  0  0  0  0
   58.5032   26.0898   45.5445 C   0  0  0  0  0  0  0  0  0  0  0  0
   58.1830   24.8379   45.9368 C   0  0  0  0  0  0  0  0  0  0  0  0
   56.8336   24.2549   45.8131 C   0  0  0  0  0  0  0  0  0  0  0  0
   56.5851   22.9467   45.6150 N   0  0  0  0  0  0  0  0  0  0  0  0
   55.2381   22.8731   45.6734 C   0  0  0  0  0  0  0  0  0  0  0  0
   54.6125   21.7866   45.5372 O   0  0  0  0  0  0  0  0  0  0  0  0
   54.6142   24.0467   45.9107 N   0  0  0  0  0  0  0  0  0  0  0  0
   55.6385   24.9116   46.0087 C   0  0  0  0  0  0  0  0  0  0  0  0
   55.4731   26.2723   46.2529 O   0  0  0  0  0  0  0  0  0  0  0  0
   54.6136   26.6256   46.3733 H   0  0  0  0  0  0  0  0  0  0  0  0
   57.7415   31.4670   44.3258 N   0  0  0  0  0  0  0  0  0  0  0  0
   58.2616   31.8923   45.5879 C   0  0  0  0  0  0  0  0  0  0  0  0
   58.6469   30.9332   46.5322 C   0  0  0  0  0  0  0  0  0  0  0  0
   59.1613   31.3330   47.7688 C   0  0  0  0  0  0  0  0  0  0  0  0
   59.2677   32.6954   48.0832 C   0  0  0  0  0  0  0  0  0  0  0  0
   58.8321   33.6531   47.1562 C   0  0  0  0  0  0  0  0  0  0  0  0
   58.3461   33.2561   45.9071 C   0  0  0  0  0  0  0  0  0  0  0  0
   59.8648   33.1844   49.6666 S   0  0  0  0  0  0  0  0  0  0  0  0
   59.0997   32.4566   50.7362 O   0  0  0  0  0  0  0  0  0  0  0  0
   59.6363   34.6621   49.8140 O   0  0  0  0  0  0  0  0  0  0  0  0
   61.5716   32.8474   49.8362 N   0  0  0  0  0  0  0  0  0  0  0  0
   62.2855   33.1185   48.5733 C   0  0  0  0  0  0  0  0  0  0  0  0
   63.6728   32.4373   48.5281 C   0  0  0  0  0  0  0  0  0  0  0  0
   64.1747   32.0772   49.8682 N   0  0  0  0  0  0  0  0  0  0  0  0
   64.5704   33.2620   50.6497 C   0  0  0  0  0  0  0  0  0  0  0  0
   63.2341   31.2053   50.6121 C   0  0  0  0  0  0  0  0  0  0  0  0
   61.7617   31.4494   50.2422 C   0  0  0  0  0  0  0  0  0  0  0  0
  4  5  2  0
  5  6  1  0
  6  7  1  0
  7  3  1  0
  3  1  1  0
  1  2  2  0
  1 19  1  0
 19 20  1  0
 20 21  2  0
 21 22  1  0
 22 23  2  0
 23 26  1  0
 26 27  2  0
 26 28  2  0
 26 29  1  0
 29 30  1  0
 30 31  1  0
 31 32  1  0
 32 33  1  0
 32 34  1  0
 34 35  1  0
 23 24  1  0
 24 25  2  0
  7  8  2  0
  8  9  1  0
  9 10  2  0
 10 11  1  0
 11 12  1  0
 12 13  1  0
 13 14  2  0
 13 15  1  0
 15 16  1  0
 16 17  1  0
  9  5  1  0
 16 11  2  0
 25 20  1  0
 35 29  1  0
 17 18  1  0
M  CHG 1  12  -1
M  CHG 1  15  -1
M  CHG 1  19  -1
M  END
> <UniqueID>
15

> <SMILES>
C=c1sc(CC(=O)[N-]c2ccc(S(=O)(=O)N3CCN(C)CC3)cc2)cc1=Cc1[n-]c(=O)[n-]c1O

> <Energy>
136.04581284251873

> <Genealogy>
C=c1sc(CC(=O)[N-]c2ccc(S(=O)(=O)N3CCN(C)CC3)cc2)cc1=Cc1[n-]c(=O)[n-]c1O (protonated)
C=c1sc(CC(=O)[N-]c2ccc(S(=O)(=O)N3CCN(C)CC3)cc2)cc1=Cc1[n-]c(=O)[n-]c1O (3D coordinates assigned)
C=c1sc(CC(=O)[N-]c2ccc(S(=O)(=O)N3CCN(C)CC3)cc2)cc1=Cc1[n-]c(=O)[n-]c1O (nonaromatic ring conformer: 136.04581284251873 kcal/mol)

> <smiles>
C=c1sc(CC(=O)Nc2ccc(S(=O)(=O)N3CCN(C)CC3)cc2)cc1=Cc1[nH]c(=O)[nH]c1O

> <score_type>
oracle

> <origin>
adg

> <m_score__min__energy>
-16.359999999999999

> <m_primary>
energy

> <minimizedAffinity>
-8.68074

> <minimizedRMSD>
0.80060

> <CNNscore>
0.2848998606

> <CNNaffinity>
7.1285958290

> <CNN_VS>
2.0309360027

> <CNNaffinity_variance>
0.0321088955

$$$$
18:0


 37 41  0  0  0  0  0  0  0  0999 V2000
   59.5431   29.1153   46.6185 C   0  0  0  0  0  0  0  0  0  0  0  0
   58.5139   30.0605   46.5190 C   0  0  0  0  0  0  0  0  0  0  0  0
   58.7988   31.4249   46.6223 C   0  0  0  0  0  0  0  0  0  0  0  0
   60.1186   31.8630   46.8120 C   0  0  0  0  0  0  0  0  0  0  0  0
   61.1395   30.9120   46.9659 C   0  0  0  0  0  0  0  0  0  0  0  0
   60.8556   29.5486   46.8523 C   0  0  0  0  0  0  0  0  0  0  0  0
   58.1388   27.7836   44.3572 C   0  0  0  0  0  0  0  0  0  0  0  0
   58.5317   27.1317   45.4631 C   0  0  0  0  0  0  0  0  0  0  0  0
   58.4336   25.7524   45.7065 C   0  0  0  0  0  0  0  0  0  0  0  0
   57.7311   24.7925   45.0744 C   0  0  0  0  0  0  0  0  0  0  0  0
   59.2141   25.5002   46.8221 C   0  0  0  0  0  0  0  0  0  0  0  0
   59.6811   26.7190   47.2679 C   0  0  0  0  0  0  0  0  0  0  0  0
   60.5394   26.9053   48.4823 C   0  0  0  0  0  0  0  0  0  0  0  0
   59.2685   27.7119   46.4467 N   0  0  0  0  0  0  0  0  0  0  0  0
   56.3584   24.3731   45.4101 C   0  0  0  0  0  0  0  0  0  0  0  0
   55.8506   23.1476   45.1800 N   0  0  0  0  0  0  0  0  0  0  0  0
   54.5476   23.2821   45.5068 C   0  0  0  0  0  0  0  0  0  0  0  0
   53.7293   22.3289   45.4396 O   0  0  0  0  0  0  0  0  0  0  0  0
   54.1885   24.5222   45.9024 N   0  0  0  0  0  0  0  0  0  0  0  0
   55.3426   25.2016   45.8185 C   0  0  0  0  0  0  0  0  0  0  0  0
   55.4648   26.5549   46.1012 O   0  0  0  0  0  0  0  0  0  0  0  0
   60.3911   33.3159   46.8948 C   0  0  0  0  0  0  0  0  0  0  0  0
   59.8514   34.0653   46.0335 O   0  0  0  0  0  0  0  0  0  0  0  0
   61.2683   33.9090   47.8918 N   0  0  0  0  0  0  0  0  0  0  0  0
   62.7198   33.6790   47.6347 C   0  0  0  0  0  0  0  0  0  0  0  0
   63.3416   32.5937   48.5379 C   0  0  0  0  0  0  0  0  0  0  0  0
   63.1315   32.8528   50.0649 C   0  0  0  0  0  0  0  0  0  0  0  0
   61.9313   33.8141   50.2846 C   0  0  0  0  0  0  0  0  0  0  0  0
   60.8251   33.5503   49.2594 C   0  0  0  0  0  0  0  0  0  0  0  0
   60.8851   33.0972   47.4875 H   0  0  0  0  0  0  0  0  0  0  0  0
   64.3970   33.3228   50.7185 N   0  0  0  0  0  0  0  0  0  0  0  0
   65.2403   32.1609   51.1332 C   0  0  0  0  0  0  0  0  0  0  0  0
   66.1889   32.4667   52.3115 C   0  0  0  0  0  0  0  0  0  0  0  0
   66.6256   33.8721   52.3155 N   0  0  0  0  0  0  0  0  0  0  0  0
   67.5122   34.1690   51.1781 C   0  0  0  0  0  0  0  0  0  0  0  0
   65.4806   34.8080   52.3905 C   0  0  0  0  0  0  0  0  0  0  0  0
   64.1555   34.2063   51.8828 C   0  0  0  0  0  0  0  0  0  0  0  0
  7  8  2  0
  8  9  1  0
  9 10  2  0
 10 15  1  0
 15 16  1  0
 16 17  1  0
 17 18  2  0
 17 19  1  0
 19 20  1  0
 20 21  1  0
  9 11  1  0
 11 12  2  0
 12 13  1  0
 12 14  1  0
 14  1  1  0
  1  2  2  0
  2  3  1  0
  3  4  2  0
  4 22  1  0
 22 23  2  0
 24 22  1  0
 24 25  1  0
 25 26  1  0
 26 27  1  0
 27 31  1  0
 31 32  1  0
 32 33  1  0
 33 34  1  0
 34 35  1  0
 34 36  1  0
 36 37  1  0
 27 28  1  0
 28 29  1  0
  4  5  1  0
  5  6  2  0
 14  8  1  0
  6  1  1  0
 20 15  2  0
 29 24  1  0
 37 31  1  0
 24 30  1  0
M  CHG 1  16  -1
M  CHG 1  19  -1
M  CHG 1  21  -1
M  CHG 1  24   1
M  END
> <UniqueID>
18

> <SMILES>
C=c1/c(=C\c2[n-]c(=O)[n-]c2[O-])cc(C)n1-c1ccc(C(=O)[NH+]2CCC(N3CCN(C)CC3)CC2)cc1

> <Energy>
184.08094685221837

> <Genealogy>
C=c1c(=Cc2[n-]c(=O)[n-]c2[O-])cc(C)n1-c1ccc(C(=O)[NH+]2CCC(N3CCN(C)CC3)CC2)cc1 (protonated)
C=c1/c(=C\c2[n-]c(=O)[n-]c2[O-])cc(C)n1-c1ccc(C(=O)[NH+]2CCC(N3CCN(C)CC3)CC2)cc1 (cis-trans isomerization)
C=c1/c(=C\c2[n-]c(=O)[n-]c2[O-])cc(C)n1-c1ccc(C(=O)[NH+]2CCC(N3CCN(C)CC3)CC2)cc1 (3D coordinates assigned)
C=c1/c(=C\c2[n-]c(=O)[n-]c2[O-])cc(C)n1-c1ccc(C(=O)[NH+]2CCC(N3CCN(C)CC3)CC2)cc1 (nonaromatic ring conformer: 184.08094685221837 kcal/mol)

> <smiles>
C=c1c(=Cc2[nH]c(=O)[nH]c2O)cc(C)n1-c1ccc(C(=O)N2CCC(N3CCN(C)CC3)CC2)cc1

> <score_type>
oracle

> <origin>
adg

> <m_score__min__energy>
-15.779999999999999

> <m_primary>
energy

> <minimizedAffinity>
-8.71286

> <minimizedRMSD>
0.71319

> <CNNscore>
0.0572328158

> <CNNaffinity>
6.1889476776

> <CNN_VS>
0.3542109132

> <CNNaffinity_variance>
0.2648445368

$$$$
31:0


 29 31  0  0  0  0  0  0  0  0999 V2000
   58.7385   28.3471   46.3317 C   0  0  0  0  0  0  0  0  0  0  0  0
   58.0203   27.1719   46.5870 C   0  0  0  0  0  0  0  0  0  0  0  0
   56.7708   26.9868   45.9943 C   0  0  0  0  0  0  0  0  0  0  0  0
   56.0446   25.8301   46.2463 O   0  0  0  0  0  0  0  0  0  0  0  0
   56.2653   27.9356   45.1641 N   0  0  0  0  0  0  0  0  0  0  0  0
   56.9307   29.0932   44.9035 C   0  0  0  0  0  0  0  0  0  0  0  0
   56.4290   29.9226   44.0996 O   0  0  0  0  0  0  0  0  0  0  0  0
   58.1775   29.3429   45.5127 C   0  0  0  0  0  0  0  0  0  0  0  0
   60.0727   28.5237   46.9343 C   0  0  0  0  0  0  0  0  0  0  0  0
   61.0177   28.9382   46.2133 O   0  0  0  0  0  0  0  0  0  0  0  0
   60.3280   28.2102   48.3106 N   0  0  0  0  0  0  0  0  0  0  0  0
   60.4714   29.2012   49.3730 C   0  0  0  0  0  0  0  0  0  0  0  0
   59.1108   29.8289   49.6977 C   0  0  0  0  0  0  0  0  0  0  0  0
   60.4796   31.0235   51.2990 C   0  0  0  0  0  0  0  0  0  0  0  0
   59.2842   31.0955   50.4406 N   0  0  0  0  0  0  0  0  0  0  0  0
   58.1009   31.3861   51.2725 C   0  0  0  0  0  0  0  0  0  0  0  0
   58.8716   30.5907   45.3445 N   0  0  0  0  0  0  0  0  0  0  0  0
   58.5495   31.8141   46.0217 C   0  0  0  0  0  0  0  0  0  0  0  0
   57.4234   32.3591   45.8447 O   0  0  0  0  0  0  0  0  0  0  0  0
   59.5056   32.4095   46.9844 C   0  0  0  0  0  0  0  0  0  0  0  0
   59.1408   33.5262   47.7596 C   0  0  0  0  0  0  0  0  0  0  0  0
   60.0531   34.1016   48.6514 C   0  0  0  0  0  0  0  0  0  0  0  0
   61.3498   33.5835   48.7697 C   0  0  0  0  0  0  0  0  0  0  0  0
   62.2800   34.1687   49.6449 C   0  0  0  0  0  0  0  0  0  0  0  0
   63.5769   33.6503   49.7391 C   0  0  0  0  0  0  0  0  0  0  0  0
   63.9517   32.5477   48.9679 C   0  0  0  0  0  0  0  0  0  0  0  0
   63.0317   31.9499   48.1005 C   0  0  0  0  0  0  0  0  0  0  0  0
   61.7275   32.4618   47.9931 C   0  0  0  0  0  0  0  0  0  0  0  0
   60.8014   31.8782   47.1166 C   0  0  0  0  0  0  0  0  0  0  0  0
 14 15  1  0
 15 16  1  0
 15 13  1  0
 13 12  1  0
 12 11  1  0
 11  9  1  0
  9 10  2  0
  9  1  1  0
  1  2  1  0
  2  3  2  0
  3  4  1  0
  3  5  1  0
  5  6  1  0
  6  7  2  0
  6  8  1  0
  8 17  1  0
 17 18  1  0
 18 19  2  0
 18 20  1  0
 20 21  2  0
 21 22  1  0
 22 23  2  0
 23 24  1  0
 24 25  2  0
 25 26  1  0
 26 27  2  0
 27 28  1  0
 28 29  2  0
  8  1  2  0
 29 20  1  0
 28 23  1  0
M  CHG 1   4  -1
M  CHG 1   5  -1
M  CHG 1  11  -1
M  CHG 1  17  -1
M  END
> <UniqueID>
30

> <SMILES>
CN(C)CC[N-]C(=O)c1cc([O-])[n-]c(=O)c1[N-]C(=O)c1ccc2ccccc2c1

> <Energy>
63.62889704713933

> <Genealogy>
CN(C)CC[N-]C(=O)c1cc([O-])[n-]c(=O)c1[N-]C(=O)c1ccc2ccccc2c1 (protonated)
CN(C)CC[N-]C(=O)c1cc([O-])[n-]c(=O)c1[N-]C(=O)c1ccc2ccccc2c1 (3D coordinates assigned)
CN(C)CC[N-]C(=O)c1cc([O-])[n-]c(=O)c1[N-]C(=O)c1ccc2ccccc2c1 (optimized conformer: 63.62889704713933 kcal/mol)

> <smiles>
CN(C)CCNC(=O)c1cc(O)[nH]c(=O)c1NC(=O)c1ccc2ccccc2c1

> <score_type>
oracle

> <origin>
adg

> <m_score__min__energy>
-15.34

> <m_primary>
energy

> <minimizedAffinity>
-6.60124

> <minimizedRMSD>
1.09334

> <CNNscore>
0.5068646669

> <CNNaffinity>
6.3525452614

> <CNN_VS>
3.2198808193

> <CNNaffinity_variance>
0.0936324000

$$$$
32:0


 26 28  0  0  0  0  0  0  0  0999 V2000
   57.9419   29.6636   45.3025 C   0  0  0  0  0  0  0  0  0  0  0  0
   56.9962   30.4282   44.6041 C   0  0  0  0  0  0  0  0  0  0  0  0
   56.1428   29.8407   43.6777 O   0  0  0  0  0  0  0  0  0  0  0  0
   56.9229   31.7647   44.8113 N   0  0  0  0  0  0  0  0  0  0  0  0
   57.7528   32.3977   45.6752 C   0  0  0  0  0  0  0  0  0  0  0  0
   57.6290   33.6425   45.8421 O   0  0  0  0  0  0  0  0  0  0  0  0
   58.7074   31.6915   46.3600 N   0  0  0  0  0  0  0  0  0  0  0  0
   58.8150   30.3360   46.1786 C   0  0  0  0  0  0  0  0  0  0  0  0
   59.6965   29.6806   46.8047 O   0  0  0  0  0  0  0  0  0  0  0  0
   59.5890   32.3709   47.2762 C   0  0  0  0  0  0  0  0  0  0  0  0
   60.8105   32.9002   46.8258 C   0  0  0  0  0  0  0  0  0  0  0  0
   61.6644   33.5585   47.7150 C   0  0  0  0  0  0  0  0  0  0  0  0
   61.3066   33.6932   49.0595 C   0  0  0  0  0  0  0  0  0  0  0  0
   62.1353   34.3327   49.9211 F   0  0  0  0  0  0  0  0  0  0  0  0
   60.0922   33.1705   49.5148 C   0  0  0  0  0  0  0  0  0  0  0  0
   59.2354   32.5108   48.6284 C   0  0  0  0  0  0  0  0  0  0  0  0
   58.5831   27.7437   44.0657 O   0  0  0  0  0  0  0  0  0  0  0  0
   58.0356   28.1951   45.1061 C   0  0  0  0  0  0  0  0  0  0  0  0
   57.4798   27.2691   46.0490 N   0  0  0  0  0  0  0  0  0  0  0  0
   57.4007   25.8453   45.8862 C   0  0  0  0  0  0  0  0  0  0  0  0
   58.5931   25.1144   45.7949 C   0  0  0  0  0  0  0  0  0  0  0  0
   58.5615   23.7269   45.6301 C   0  0  0  0  0  0  0  0  0  0  0  0
   57.3385   23.0561   45.5722 C   0  0  0  0  0  0  0  0  0  0  0  0
   56.1439   23.7715   45.6963 C   0  0  0  0  0  0  0  0  0  0  0  0
   56.1687   25.1608   45.8682 C   0  0  0  0  0  0  0  0  0  0  0  0
   54.9692   25.8382   46.0546 O   0  0  0  0  0  0  0  0  0  0  0  0
 17 18  2  0
 18 19  1  0
 19 20  1  0
 20 21  2  0
 21 22  1  0
 22 23  2  0
 23 24  1  0
 24 25  2  0
 25 26  1  0
 18  1  1  0
  1  2  2  0
  2  3  1  0
  2  4  1  0
  4  5  1  0
  5  6  2  0
  5  7  1  0
  7 10  1  0
 10 11  2  0
 11 12  1  0
 12 13  2  0
 13 14  1  0
 13 15  1  0
 15 16  2  0
  7  8  1  0
  8  9  2  0
 25 20  1  0
  8  1  1  0
 16 10  1  0
M  CHG 1   3  -1
M  CHG 1   4  -1
M  CHG 1  19  -1
M  CHG 1  26  -1
M  END
> <UniqueID>
31

> <SMILES>
O=C([N-]c1ccccc1[O-])c1c([O-])[n-]c(=O)n(-c2ccc(F)cc2)c1=O

> <Energy>
59.94402113203756

> <Genealogy>
O=C([N-]c1ccccc1[O-])c1c([O-])[n-]c(=O)n(-c2ccc(F)cc2)c1=O (protonated)
O=C([N-]c1ccccc1[O-])c1c([O-])[n-]c(=O)n(-c2ccc(F)cc2)c1=O (3D coordinates assigned)
O=C([N-]c1ccccc1[O-])c1c([O-])[n-]c(=O)n(-c2ccc(F)cc2)c1=O (optimized conformer: 59.94402113203756 kcal/mol)

> <smiles>
O=C(Nc1ccccc1O)c1c(O)[nH]c(=O)n(-c2ccc(F)cc2)c1=O

> <score_type>
oracle

> <origin>
adg

> <m_score__min__energy>
-16.010000000000002

> <m_primary>
energy

> <minimizedAffinity>
-8.77470

> <minimizedRMSD>
2.21319

> <CNNscore>
0.6590015292

> <CNNaffinity>
6.5135650635

> <CNN_VS>
4.2924494743

> <CNNaffinity_variance>
0.2409387827

$$$$
43:0


 32 35  0  0  0  0  0  0  0  0999 V2000
   60.7441   30.5633   48.0655 C   0  0  0  0  0  0  0  0  0  0  0  0
   59.9125   30.8284   47.0441 C   0  0  0  0  0  0  0  0  0  0  0  0
   59.4416   29.9112   46.1006 C   0  0  0  0  0  0  0  0  0  0  0  0
   59.7842   28.6093   45.9868 C   0  0  0  0  0  0  0  0  0  0  0  0
   58.5564   30.6128   45.2900 C   0  0  0  0  0  0  0  0  0  0  0  0
   58.5112   31.9057   45.7735 C   0  0  0  0  0  0  0  0  0  0  0  0
   57.6796   32.9976   45.1764 C   0  0  0  0  0  0  0  0  0  0  0  0
   59.3520   32.0453   46.8211 N   0  0  0  0  0  0  0  0  0  0  0  0
   59.5514   33.2375   47.5989 C   0  0  0  0  0  0  0  0  0  0  0  0
   58.8014   34.2284   47.4152 O   0  0  0  0  0  0  0  0  0  0  0  0
   60.5472   33.2783   48.6310 N   0  0  0  0  0  0  0  0  0  0  0  0
   60.1966   32.7211   49.9331 C   0  0  0  0  0  0  0  0  0  0  0  0
   61.0700   33.3399   51.0245 C   0  0  0  0  0  0  0  0  0  0  0  0
   62.4934   33.2724   50.6560 N   0  0  0  0  0  0  0  0  0  0  0  0
   63.4902   32.9990   51.6715 C   0  0  0  0  0  0  0  0  0  0  0  0
   63.1459   32.5131   52.7864 O   0  0  0  0  0  0  0  0  0  0  0  0
   62.8681   33.7803   49.3272 C   0  0  0  0  0  0  0  0  0  0  0  0
   61.9550   33.2170   48.2350 C   0  0  0  0  0  0  0  0  0  0  0  0
   58.8372   27.4764   46.0570 C   0  0  0  0  0  0  0  0  0  0  0  0
   58.5510   26.7618   47.1657 N   0  0  0  0  0  0  0  0  0  0  0  0
   57.7413   25.7829   46.7074 C   0  0  0  0  0  0  0  0  0  0  0  0
   57.2589   24.8962   47.4629 O   0  0  0  0  0  0  0  0  0  0  0  0
   57.5135   25.8139   45.3744 N   0  0  0  0  0  0  0  0  0  0  0  0
   58.2222   26.8830   44.9766 C   0  0  0  0  0  0  0  0  0  0  0  0
   58.3107   27.3042   43.6512 O   0  0  0  0  0  0  0  0  0  0  0  0
   64.9233   33.3006   51.4604 C   0  0  0  0  0  0  0  0  0  0  0  0
   65.7162   32.4223   50.7058 C   0  0  0  0  0  0  0  0  0  0  0  0
   67.0738   32.7004   50.5377 C   0  0  0  0  0  0  0  0  0  0  0  0
   67.6286   33.8341   51.1376 C   0  0  0  0  0  0  0  0  0  0  0  0
   66.8146   34.6792   51.8968 C   0  0  0  0  0  0  0  0  0  0  0  0
   65.4909   34.3991   52.0463 N   0  0  0  0  0  0  0  0  0  0  0  0
   64.9298   35.0000   52.5879 H   0  0  0  0  0  0  0  0  0  0  0  0
  1  2  2  0
  2  3  1  0
  3  4  2  0
  4 19  1  0
 19 20  1  0
 20 21  1  0
 21 22  2  0
 21 23  1  0
 23 24  1  0
 24 25  1  0
  3  5  1  0
  5  6  2  0
  6  7  1  0
  6  8  1  0
  8  9  1  0
  9 10  2  0
  9 11  1  0
 11 12  1  0
 12 13  1  0
 13 14  1  0
 14 15  1  0
 15 16  2  0
 15 26  1  0
 26 27  2  0
 27 28  1  0
 28 29  2  0
 29 30  1  0
 30 31  2  0
 14 17  1  0
 17 18  1  0
  8  2  1  0
 18 11  1  0
 24 19  2  0
 31 26  1  0
 31 32  1  0
M  CHG 1  20  -1
M  CHG 1  23  -1
M  CHG 1  25  -1
M  CHG 1  31   1
M  END
> <UniqueID>
40

> <SMILES>
C=c1/c(=C/c2[n-]c(=O)[n-]c2[O-])cc(C)n1C(=O)N1CCN(C(=O)c2cccc[nH+]2)CC1

> <Energy>
135.88589090054083

> <Genealogy>
C=c1c(=Cc2[n-]c(=O)[n-]c2[O-])cc(C)n1C(=O)N1CCN(C(=O)c2cccc[nH+]2)CC1 (protonated)
C=c1/c(=C/c2[n-]c(=O)[n-]c2[O-])cc(C)n1C(=O)N1CCN(C(=O)c2cccc[nH+]2)CC1 (cis-trans isomerization)
C=c1/c(=C/c2[n-]c(=O)[n-]c2[O-])cc(C)n1C(=O)N1CCN(C(=O)c2cccc[nH+]2)CC1 (3D coordinates assigned)
C=c1/c(=C/c2[n-]c(=O)[n-]c2[O-])cc(C)n1C(=O)N1CCN(C(=O)c2cccc[nH+]2)CC1 (nonaromatic ring conformer: 135.88589090054083 kcal/mol)

> <smiles>
C=c1c(=Cc2[nH]c(=O)[nH]c2O)cc(C)n1C(=O)N1CCN(C(=O)c2ccccn2)CC1

> <score_type>
oracle

> <origin>
adg

> <m_score__min__energy>
-15.16

> <m_primary>
energy

> <minimizedAffinity>
-10.06517

> <minimizedRMSD>
2.01620

> <CNNscore>
0.3873061240

> <CNNaffinity>
6.6427402496

> <CNN_VS>
2.5727739334

> <CNNaffinity_variance>
0.0788094699

$$$$
52:0


 36 39  0  0  0  0  0  0  0  0999 V2000
   59.4555   21.7381   44.2777 C   0  0  0  0  0  0  0  0  0  0  0  0
   58.4706   22.4172   44.8750 C   0  0  0  0  0  0  0  0  0  0  0  0
   58.7816   23.5734   45.5184 N   0  0  0  0  0  0  0  0  0  0  0  0
   57.8648   24.2972   46.2179 C   0  0  0  0  0  0  0  0  0  0  0  0
   58.2301   25.4436   46.8207 C   0  0  0  0  0  0  0  0  0  0  0  0
   56.5424   23.8161   46.2808 C   0  0  0  0  0  0  0  0  0  0  0  0
   55.6500   24.4272   46.9278 O   0  0  0  0  0  0  0  0  0  0  0  0
   56.2183   22.6709   45.6278 N   0  0  0  0  0  0  0  0  0  0  0  0
   57.1282   21.9654   44.9044 C   0  0  0  0  0  0  0  0  0  0  0  0
   58.2513   26.7456   46.1246 C   0  0  0  0  0  0  0  0  0  0  0  0
   59.4572   27.2779   45.8163 N   0  0  0  0  0  0  0  0  0  0  0  0
   59.5765   28.4853   45.2094 C   0  0  0  0  0  0  0  0  0  0  0  0
   60.7296   28.9258   44.9579 O   0  0  0  0  0  0  0  0  0  0  0  0
   58.4583   29.2116   44.8826 N   0  0  0  0  0  0  0  0  0  0  0  0
   57.2151   28.6966   45.1551 C   0  0  0  0  0  0  0  0  0  0  0  0
   56.1762   29.3433   44.8438 O   0  0  0  0  0  0  0  0  0  0  0  0
   57.0803   27.4401   45.7703 C   0  0  0  0  0  0  0  0  0  0  0  0
   55.7766   26.8716   45.9815 N   0  0  0  0  0  0  0  0  0  0  0  0
   54.9717   27.3772   45.7252 H   0  0  0  0  0  0  0  0  0  0  0  0
   55.6889   25.9767   46.3824 H   0  0  0  0  0  0  0  0  0  0  0  0
   58.5992   30.5507   44.2774 C   0  0  0  0  0  0  0  0  0  0  0  0
   58.5733   31.6151   45.3441 C   0  0  0  0  0  0  0  0  0  0  0  0
   58.1046   32.9062   45.0478 C   0  0  0  0  0  0  0  0  0  0  0  0
   58.0465   33.8828   46.0470 C   0  0  0  0  0  0  0  0  0  0  0  0
   58.4560   33.5778   47.3490 C   0  0  0  0  0  0  0  0  0  0  0  0
   58.9224   32.2964   47.6524 C   0  0  0  0  0  0  0  0  0  0  0  0
   58.9789   31.3164   46.6567 C   0  0  0  0  0  0  0  0  0  0  0  0
   56.6536   20.7564   44.1967 C   0  0  0  0  0  0  0  0  0  0  0  0
   55.8345   19.8400   44.7352 C   0  0  0  0  0  0  0  0  0  0  0  0
   55.7466   19.5418   46.1810 C   0  0  0  0  0  0  0  0  0  0  0  0
   56.8632   18.9834   46.8248 C   0  0  0  0  0  0  0  0  0  0  0  0
   56.8138   18.6766   48.1871 C   0  0  0  0  0  0  0  0  0  0  0  0
   55.6569   18.9420   48.9223 C   0  0  0  0  0  0  0  0  0  0  0  0
   54.5527   19.5308   48.3020 C   0  0  0  0  0  0  0  0  0  0  0  0
   54.5967   19.8460   46.9390 C   0  0  0  0  0  0  0  0  0  0  0  0
   53.5058   20.4832   46.3561 O   0  0  0  0  0  0  0  0  0  0  0  0
  1  2  2  0
  2  3  1  0
  3  4  1  0
  4  5  2  0
  5 10  1  0
 10 11  1  0
 11 12  1  0
 12 13  2  0
 12 14  1  0
 14 21  1  0
 21 22  1  0
 22 23  2  0
 23 24  1  0
 24 25  2  0
 25 26  1  0
 26 27  2  0
 14 15  1  0
 15 16  2  0
 15 17  1  0
 17 18  1  0
  4  6  1  0
  6  7  2  0
  6  8  1  0
  8  9  2  0
  9 28  1  0
 28 29  2  0
 29 30  1  0
 30 31  2  0
 31 32  1  0
 32 33  2  0
 33 34  1  0
 34 35  2  0
 35 36  1  0
  9  2  1  0
 35 30  1  0
 17 10  2  0
 27 22  1  0
 18 19  1  0
 18 20  1  0
M  CHG 1   3  -1
M  CHG 1  11  -1
M  CHG 1  36  -1
M  END
> <UniqueID>
49

> <SMILES>
C=c1[n-]c(=Cc2[n-]c(=O)n(Cc3ccccc3)c(=O)c2N)c(=O)nc1C=Cc1ccccc1[O-]

> <Energy>
86.51839401886384

> <Genealogy>
C=c1[n-]c(=Cc2[n-]c(=O)n(Cc3ccccc3)c(=O)c2N)c(=O)nc1C=Cc1ccccc1[O-] (protonated)
C=c1[n-]c(=Cc2[n-]c(=O)n(Cc3ccccc3)c(=O)c2N)c(=O)nc1C=Cc1ccccc1[O-] (3D coordinates assigned)
C=c1[n-]c(=Cc2[n-]c(=O)n(Cc3ccccc3)c(=O)c2N)c(=O)nc1C=Cc1ccccc1[O-] (optimized conformer: 86.51839401886384 kcal/mol)

> <smiles>
C=c1[nH]c(=Cc2[nH]c(=O)n(Cc3ccccc3)c(=O)c2N)c(=O)nc1C=Cc1ccccc1O

> <score_type>
oracle

> <origin>
adg

> <m_score__min__energy>
-15.109999999999999

> <m_primary>
energy

> <minimizedAffinity>
-6.97158

> <minimizedRMSD>
1.57111

> <CNNscore>
0.0419425629

> <CNNaffinity>
5.6197190285

> <CNN_VS>
0.2357054204

> <CNNaffinity_variance>
0.3789930344

$$$$
54:0


 37 41  0  0  0  0  0  0  0  0999 V2000
   59.2931   31.5351   46.4398 C   0  0  0  0  0  0  0  0  0  0  0  0
   60.6119   31.8141   46.8176 C   0  0  0  0  0  0  0  0  0  0  0  0
   61.0307   33.1389   47.0222 C   0  0  0  0  0  0  0  0  0  0  0  0
   60.1190   34.1864   46.8031 C   0  0  0  0  0  0  0  0  0  0  0  0
   58.8030   33.9079   46.4203 C   0  0  0  0  0  0  0  0  0  0  0  0
   58.3856   32.5845   46.2459 C   0  0  0  0  0  0  0  0  0  0  0  0
   57.1063   32.3247   45.8783 F   0  0  0  0  0  0  0  0  0  0  0  0
   59.1643   29.4225   48.5075 C   0  0  0  0  0  0  0  0  0  0  0  0
   58.8385   29.2023   47.2243 C   0  0  0  0  0  0  0  0  0  0  0  0
   58.2865   28.0358   46.6732 C   0  0  0  0  0  0  0  0  0  0  0  0
   58.1285   26.8012   47.1889 C   0  0  0  0  0  0  0  0  0  0  0  0
   57.9080   28.3598   45.3782 C   0  0  0  0  0  0  0  0  0  0  0  0
   58.2937   29.6665   45.1651 C   0  0  0  0  0  0  0  0  0  0  0  0
   58.0824   30.4302   43.8936 C   0  0  0  0  0  0  0  0  0  0  0  0
   58.8719   30.1717   46.2749 N   0  0  0  0  0  0  0  0  0  0  0  0
   57.7238   25.6025   46.4370 C   0  0  0  0  0  0  0  0  0  0  0  0
   58.5817   24.7024   45.9053 N   0  0  0  0  0  0  0  0  0  0  0  0
   57.7838   23.8870   45.1810 C   0  0  0  0  0  0  0  0  0  0  0  0
   58.2264   22.9129   44.5165 O   0  0  0  0  0  0  0  0  0  0  0  0
   56.4797   24.2309   45.2200 N   0  0  0  0  0  0  0  0  0  0  0  0
   55.3813   23.6528   44.4552 C   0  0  0  0  0  0  0  0  0  0  0  0
   56.4506   25.3342   45.9839 C   0  0  0  0  0  0  0  0  0  0  0  0
   55.3125   26.0893   46.2398 O   0  0  0  0  0  0  0  0  0  0  0  0
   62.4179   33.4244   47.4499 C   0  0  0  0  0  0  0  0  0  0  0  0
   63.2891   33.7136   46.5850 O   0  0  0  0  0  0  0  0  0  0  0  0
   62.7900   33.3672   48.8378 N   0  0  0  0  0  0  0  0  0  0  0  0
   64.0367   32.7645   49.2686 C   0  0  0  0  0  0  0  0  0  0  0  0
   63.7232   31.6423   50.2489 C   0  0  0  0  0  0  0  0  0  0  0  0
   62.6393   31.9553   51.2119 N   0  0  0  0  0  0  0  0  0  0  0  0
   61.7265   33.1190   51.0509 C   0  0  0  0  0  0  0  0  0  0  0  0
   62.0283   34.0545   49.8688 C   0  0  0  0  0  0  0  0  0  0  0  0
   62.3660   31.0006   52.2868 C   0  0  0  0  0  0  0  0  0  0  0  0
   61.2035   30.1889   52.2740 C   0  0  0  0  0  0  0  0  0  0  0  0
   60.9501   29.2776   53.3028 C   0  0  0  0  0  0  0  0  0  0  0  0
   61.8425   29.1491   54.3644 C   0  0  0  0  0  0  0  0  0  0  0  0
   62.9954   29.9305   54.4011 C   0  0  0  0  0  0  0  0  0  0  0  0
   63.2585   30.8454   53.3773 C   0  0  0  0  0  0  0  0  0  0  0  0
  8  9  2  0
  9 10  1  0
 10 11  2  0
 11 16  1  0
 16 17  1  0
 17 18  1  0
 18 19  2  0
 18 20  1  0
 20 21  1  0
 20 22  1  0
 22 23  1  0
 10 12  1  0
 12 13  2  0
 13 14  1  0
 13 15  1  0
 15  1  1  0
  1  2  2  0
  2  3  1  0
  3 24  1  0
 24 25  2  0
 24 26  1  0
 26 27  1  0
 27 28  1  0
 28 29  1  0
 29 32  1  0
 32 33  2  0
 33 34  1  0
 34 35  2  0
 35 36  1  0
 36 37  2  0
 29 30  1  0
 30 31  1  0
  3  4  2  0
  4  5  1  0
  5  6  2  0
  6  7  1  0
 15  9  1  0
  6  1  1  0
 22 16  2  0
 31 26  1  0
 37 32  1  0
M  CHG 1  17  -1
M  CHG 1  23  -1
M  END
> <UniqueID>
51

> <SMILES>
C=c1c(=Cc2[n-]c(=O)n(C)c2[O-])cc(C)n1-c1cc(C(=O)N2CCN(c3ccccc3)CC2)ccc1F

> <Energy>
158.52559198166617

> <Genealogy>
C=c1c(=Cc2[n-]c(=O)n(C)c2[O-])cc(C)n1-c1cc(C(=O)N2CCN(c3ccccc3)CC2)ccc1F (protonated)
C=c1c(=Cc2[n-]c(=O)n(C)c2[O-])cc(C)n1-c1cc(C(=O)N2CCN(c3ccccc3)CC2)ccc1F (3D coordinates assigned)
C=c1c(=Cc2[n-]c(=O)n(C)c2[O-])cc(C)n1-c1cc(C(=O)N2CCN(c3ccccc3)CC2)ccc1F (nonaromatic ring conformer: 158.52559198166617 kcal/mol)

> <smiles>
C=c1c(=Cc2[nH]c(=O)n(C)c2O)cc(C)n1-c1cc(C(=O)N2CCN(c3ccccc3)CC2)ccc1F

> <score_type>
oracle

> <origin>
adg

> <m_score__min__energy>
-14.85

> <m_primary>
energy

> <minimizedAffinity>
-9.90639

> <minimizedRMSD>
0.97043

> <CNNscore>
0.1490700841

> <CNNaffinity>
6.7304553986

> <CNN_VS>
1.0033096075

> <CNNaffinity_variance>
0.1819512695

$$$$
73:0


 31 34  0  0  0  0  0  0  0  0999 V2000
   59.2226   27.6266   45.6206 C   0  0  0  0  0  0  0  0  0  0  0  0
   59.2628   28.6030   46.5475 C   0  0  0  0  0  0  0  0  0  0  0  0
   58.7140   29.8717   46.4238 C   0  0  0  0  0  0  0  0  0  0  0  0
   58.9633   30.5290   47.6098 C   0  0  0  0  0  0  0  0  0  0  0  0
   59.6243   29.7202   48.4750 N   0  0  0  0  0  0  0  0  0  0  0  0
   59.8063   28.5354   47.8331 C   0  0  0  0  0  0  0  0  0  0  0  0
   60.4151   27.4698   48.3804 C   0  0  0  0  0  0  0  0  0  0  0  0
   56.1449   27.1346   45.7638 O   0  0  0  0  0  0  0  0  0  0  0  0
   57.1344   26.1592   45.8704 C   0  0  0  0  0  0  0  0  0  0  0  0
   56.8663   24.8508   46.0055 N   0  0  0  0  0  0  0  0  0  0  0  0
   58.0934   24.2894   45.9966 C   0  0  0  0  0  0  0  0  0  0  0  0
   58.2705   23.0478   46.0953 O   0  0  0  0  0  0  0  0  0  0  0  0
   59.1152   25.1630   45.8647 N   0  0  0  0  0  0  0  0  0  0  0  0
   58.4998   26.3574   45.8064 C   0  0  0  0  0  0  0  0  0  0  0  0
   55.2413   26.8935   45.8212 H   0  0  0  0  0  0  0  0  0  0  0  0
   58.5364   31.9154   47.8792 C   0  0  0  0  0  0  0  0  0  0  0  0
   57.8713   32.1430   48.9260 O   0  0  0  0  0  0  0  0  0  0  0  0
   58.8160   33.0242   46.9324 C   0  0  0  0  0  0  0  0  0  0  0  0
   59.4333   34.2040   47.3895 C   0  0  0  0  0  0  0  0  0  0  0  0
   59.6991   35.2521   46.5046 C   0  0  0  0  0  0  0  0  0  0  0  0
   59.3479   35.1402   45.1578 C   0  0  0  0  0  0  0  0  0  0  0  0
   58.7276   33.9787   44.6936 C   0  0  0  0  0  0  0  0  0  0  0  0
   58.4578   32.9261   45.5735 C   0  0  0  0  0  0  0  0  0  0  0  0
   59.9321   30.0079   49.8848 C   0  0  0  0  0  0  0  0  0  0  0  0
   60.5641   31.3680   50.0227 C   0  0  0  0  0  0  0  0  0  0  0  0
   60.1463   32.1430   50.9262 O   0  0  0  0  0  0  0  0  0  0  0  0
   61.5778   31.8289   49.1104 N   0  0  0  0  0  0  0  0  0  0  0  0
   62.1325   31.0373   48.0233 C   0  0  0  0  0  0  0  0  0  0  0  0
   63.2138   31.9042   47.3917 C   0  0  0  0  0  0  0  0  0  0  0  0
   62.9738   33.3211   47.9056 C   0  0  0  0  0  0  0  0  0  0  0  0
   62.1232   33.1738   49.1595 C   0  0  0  0  0  0  0  0  0  0  0  0
  8  9  1  0
  9 10  1  0
 10 11  1  0
 11 12  2  0
 11 13  1  0
 13 14  1  0
 14  1  1  0
  1  2  2  0
  2  3  1  0
  3  4  2  0
  4 16  1  0
 16 17  2  0
 16 18  1  0
 18 19  2  0
 19 20  1  0
 20 21  2  0
 21 22  1  0
 22 23  2  0
  4  5  1  0
  5 24  1  0
 24 25  1  0
 25 26  2  0
 25 27  1  0
 27 28  1  0
 28 29  1  0
 29 30  1  0
 30 31  1  0
  5  6  1  0
  6  7  2  0
 14  9  2  0
  6  2  1  0
 23 18  1  0
 31 27  1  0
  8 15  1  0
M  CHG 1  10  -1
M  CHG 1  13  -1
M  END
> <UniqueID>
70

> <SMILES>
C=c1/c(=C/c2[n-]c(=O)[n-]c2O)cc(C(=O)c2ccccc2)n1CC(=O)N1CCCC1

> <Energy>
123.81951551581427

> <Genealogy>
C=c1c(=Cc2[n-]c(=O)[n-]c2O)cc(C(=O)c2ccccc2)n1CC(=O)N1CCCC1 (protonated)
C=c1/c(=C/c2[n-]c(=O)[n-]c2O)cc(C(=O)c2ccccc2)n1CC(=O)N1CCCC1 (cis-trans isomerization)
C=c1/c(=C/c2[n-]c(=O)[n-]c2O)cc(C(=O)c2ccccc2)n1CC(=O)N1CCCC1 (3D coordinates assigned)
C=c1/c(=C/c2[n-]c(=O)[n-]c2O)cc(C(=O)c2ccccc2)n1CC(=O)N1CCCC1 (nonaromatic ring conformer: 123.81951551581427 kcal/mol)

> <smiles>
C=c1c(=Cc2[nH]c(=O)[nH]c2O)cc(C(=O)c2ccccc2)n1CC(=O)N1CCCC1

> <score_type>
oracle

> <origin>
adg

> <m_score__min__energy>
-14.18

> <m_primary>
energy

> <minimizedAffinity>
-8.23887

> <minimizedRMSD>
0.73515

> <CNNscore>
0.5526375175

> <CNNaffinity>
7.0952320099

> <CNN_VS>
3.9210913181

> <CNNaffinity_variance>
0.0364150293

$$$$
74:0


 27 29  0  0  0  0  0  0  0  0999 V2000
   60.5290   30.1963   46.9611 C   0  0  0  0  0  0  0  0  0  0  0  0
   59.4559   29.7644   46.2966 C   0  0  0  0  0  0  0  0  0  0  0  0
   59.2223   28.4468   46.0920 N   0  0  0  0  0  0  0  0  0  0  0  0
   58.0251   28.4094   45.4695 C   0  0  0  0  0  0  0  0  0  0  0  0
   57.4130   27.2911   45.0525 C   0  0  0  0  0  0  0  0  0  0  0  0
   57.5675   29.6981   45.3041 C   0  0  0  0  0  0  0  0  0  0  0  0
   56.4883   30.0385   44.7500 O   0  0  0  0  0  0  0  0  0  0  0  0
   58.4651   30.5590   45.8156 N   0  0  0  0  0  0  0  0  0  0  0  0
   58.3510   31.9926   45.8132 C   0  0  0  0  0  0  0  0  0  0  0  0
   58.5346   32.6216   44.7350 O   0  0  0  0  0  0  0  0  0  0  0  0
   57.3236   26.0590   45.8699 C   0  0  0  0  0  0  0  0  0  0  0  0
   56.0748   25.6173   46.3331 C   0  0  0  0  0  0  0  0  0  0  0  0
   54.9139   26.3114   46.0084 O   0  0  0  0  0  0  0  0  0  0  0  0
   55.9872   24.4967   47.0934 N   0  0  0  0  0  0  0  0  0  0  0  0
   57.0962   23.7919   47.4326 C   0  0  0  0  0  0  0  0  0  0  0  0
   56.9897   22.7517   48.1336 O   0  0  0  0  0  0  0  0  0  0  0  0
   58.3193   24.2101   47.0218 N   0  0  0  0  0  0  0  0  0  0  0  0
   58.4619   25.3257   46.2605 C   0  0  0  0  0  0  0  0  0  0  0  0
   59.6192   25.7041   45.9374 O   0  0  0  0  0  0  0  0  0  0  0  0
   58.2162   32.7582   47.1041 C   0  0  0  0  0  0  0  0  0  0  0  0
   59.0310   34.0611   47.1222 C   0  0  0  0  0  0  0  0  0  0  0  0
   60.4203   33.8512   47.6658 C   0  0  0  0  0  0  0  0  0  0  0  0
   60.6638   33.9644   49.0457 C   0  0  0  0  0  0  0  0  0  0  0  0
   61.9595   33.8098   49.5467 C   0  0  0  0  0  0  0  0  0  0  0  0
   63.0212   33.5478   48.6761 C   0  0  0  0  0  0  0  0  0  0  0  0
   62.7878   33.4382   47.3018 C   0  0  0  0  0  0  0  0  0  0  0  0
   61.4928   33.5895   46.7970 C   0  0  0  0  0  0  0  0  0  0  0  0
  1  2  2  0
  2  3  1  0
  3  4  1  0
  4  5  2  0
  5 11  1  0
 11 12  2  0
 12 13  1  0
 12 14  1  0
 14 15  1  0
 15 16  2  0
 15 17  1  0
 17 18  1  0
 18 19  2  0
  4  6  1  0
  6  7  2  0
  6  8  1  0
  8  9  1  0
  9 10  2  0
  9 20  1  0
 20 21  1  0
 21 22  1  0
 22 23  2  0
 23 24  1  0
 24 25  2  0
 25 26  1  0
 26 27  2  0
  8  2  1  0
 27 22  1  0
 18 11  1  0
M  CHG 1   3  -1
M  CHG 1  13  -1
M  CHG 1  14  -1
M  CHG 1  17  -1
M  END
> <UniqueID>
71

> <SMILES>
C=c1[n-]c(=Cc2c([O-])[n-]c(=O)[n-]c2=O)c(=O)n1C(=O)CCc1ccccc1

> <Energy>
86.1191338120621

> <Genealogy>
C=c1[n-]c(=Cc2c([O-])[n-]c(=O)[n-]c2=O)c(=O)n1C(=O)CCc1ccccc1 (protonated)
C=c1[n-]c(=Cc2c([O-])[n-]c(=O)[n-]c2=O)c(=O)n1C(=O)CCc1ccccc1 (3D coordinates assigned)
C=c1[n-]c(=Cc2c([O-])[n-]c(=O)[n-]c2=O)c(=O)n1C(=O)CCc1ccccc1 (optimized conformer: 86.1191338120621 kcal/mol)

> <smiles>
C=c1[nH]c(=Cc2c(O)[nH]c(=O)[nH]c2=O)c(=O)n1C(=O)CCc1ccccc1

> <score_type>
oracle

> <origin>
adg

> <m_score__min__energy>
-17.629999999999999

> <m_primary>
energy

> <minimizedAffinity>
-8.30927

> <minimizedRMSD>
0.46833

> <CNNscore>
0.4504516125

> <CNNaffinity>
6.7131175995

> <CNN_VS>
3.0239346027

> <CNNaffinity_variance>
0.3514217436

$$$$
75:0


 36 39  0  0  0  0  0  0  0  0999 V2000
   58.8119   30.8919   51.0851 C   0  0  0  0  0  0  0  0  0  0  0  0
   58.6456   29.9487   50.2640 O   0  0  0  0  0  0  0  0  0  0  0  0
   59.3469   32.1485   50.6463 N   0  0  0  0  0  0  0  0  0  0  0  0
   59.6512   32.7856   51.3324 H   0  0  0  0  0  0  0  0  0  0  0  0
   59.4663   32.5352   49.2665 C   0  0  0  0  0  0  0  0  0  0  0  0
   60.2543   33.6336   48.8792 C   0  0  0  0  0  0  0  0  0  0  0  0
   60.3918   33.9611   47.5252 C   0  0  0  0  0  0  0  0  0  0  0  0
   59.7558   33.1902   46.5478 C   0  0  0  0  0  0  0  0  0  0  0  0
   58.9763   32.0890   46.9232 C   0  0  0  0  0  0  0  0  0  0  0  0
   58.8391   31.7601   48.2796 C   0  0  0  0  0  0  0  0  0  0  0  0
   58.3043   31.2737   45.9004 C   0  0  0  0  0  0  0  0  0  0  0  0
   57.4495   31.8318   45.1592 O   0  0  0  0  0  0  0  0  0  0  0  0
   58.6002   29.8674   45.7422 N   0  0  0  0  0  0  0  0  0  0  0  0
   59.8023   29.3186   46.3996 C   0  0  0  0  0  0  0  0  0  0  0  0
   59.7019   27.8338   46.5875 C   0  0  0  0  0  0  0  0  0  0  0  0
   60.3004   27.2836   47.5536 O   0  0  0  0  0  0  0  0  0  0  0  0
   58.9567   27.0477   45.6454 N   0  0  0  0  0  0  0  0  0  0  0  0
   58.7586   25.6127   45.8632 C   0  0  0  0  0  0  0  0  0  0  0  0
   58.4130   27.7234   44.4669 C   0  0  0  0  0  0  0  0  0  0  0  0
   57.7333   29.0314   44.8826 C   0  0  0  0  0  0  0  0  0  0  0  0
   58.5578   30.6779   52.5524 C   0  0  0  0  0  0  0  0  0  0  0  0
   54.6866   27.9852   53.7739 C   0  0  0  0  0  0  0  0  0  0  0  0
   55.4100   29.0662   53.4383 C   0  0  0  0  0  0  0  0  0  0  0  0
   54.9247   30.2994   52.9724 C   0  0  0  0  0  0  0  0  0  0  0  0
   53.6711   30.7917   52.9117 C   0  0  0  0  0  0  0  0  0  0  0  0
   56.0300   31.0156   52.5528 C   0  0  0  0  0  0  0  0  0  0  0  0
   57.1425   30.2483   52.8378 C   0  0  0  0  0  0  0  0  0  0  0  0
   56.7679   29.0633   53.3781 N   0  0  0  0  0  0  0  0  0  0  0  0
   57.6501   27.9433   53.7338 C   0  0  0  0  0  0  0  0  0  0  0  0
   52.7589   30.6789   51.7621 C   0  0  0  0  0  0  0  0  0  0  0  0
   52.9364   29.8100   50.7526 N   0  0  0  0  0  0  0  0  0  0  0  0
   51.9588   30.1395   49.8796 C   0  0  0  0  0  0  0  0  0  0  0  0
   51.7864   29.5300   48.7900 O   0  0  0  0  0  0  0  0  0  0  0  0
   51.1877   31.1819   50.2582 N   0  0  0  0  0  0  0  0  0  0  0  0
   51.7183   31.5239   51.4443 C   0  0  0  0  0  0  0  0  0  0  0  0
   51.2790   32.6024   52.2053 O   0  0  0  0  0  0  0  0  0  0  0  0
 22 23  2  0
 23 24  1  0
 24 25  2  0
 25 30  1  0
 30 31  1  0
 31 32  1  0
 32 33  2  0
 32 34  1  0
 34 35  1  0
 35 36  1  0
 24 26  1  0
 26 27  2  0
 27 21  1  0
 21  1  1  0
  1  2  2  0
  1  3  1  0
  3  5  1  0
  5  6  2  0
  6  7  1  0
  7  8  2  0
  8  9  1  0
  9 11  1  0
 11 12  2  0
 11 13  1  0
 13 14  1  0
 14 15  1  0
 15 16  2  0
 15 17  1  0
 17 18  1  0
 17 19  1  0
 19 20  1  0
  9 10  2  0
 27 28  1  0
 28 29  1  0
 28 23  1  0
 35 30  2  0
 10  5  1  0
 20 13  1  0
  3  4  1  0
M  CHG 1  31  -1
M  CHG 1  34  -1
M  CHG 1  36  -1
M  END
> <UniqueID>
72

> <SMILES>
C=c1/c(=C\c2[n-]c(=O)[n-]c2[O-])cc(CC(=O)Nc2cccc(C(=O)N3CCN(C)C(=O)C3)c2)n1C

> <Energy>
140.1723769399196

> <Genealogy>
C=c1c(=Cc2[n-]c(=O)[n-]c2[O-])cc(CC(=O)Nc2cccc(C(=O)N3CCN(C)C(=O)C3)c2)n1C (protonated)
C=c1/c(=C\c2[n-]c(=O)[n-]c2[O-])cc(CC(=O)Nc2cccc(C(=O)N3CCN(C)C(=O)C3)c2)n1C (cis-trans isomerization)
C=c1/c(=C\c2[n-]c(=O)[n-]c2[O-])cc(CC(=O)Nc2cccc(C(=O)N3CCN(C)C(=O)C3)c2)n1C (3D coordinates assigned)
C=c1/c(=C\c2[n-]c(=O)[n-]c2[O-])cc(CC(=O)Nc2cccc(C(=O)N3CCN(C)C(=O)C3)c2)n1C (nonaromatic ring conformer: 140.1723769399196 kcal/mol)

> <smiles>
C=c1c(=Cc2[nH]c(=O)[nH]c2O)cc(CC(=O)Nc2cccc(C(=O)N3CCN(C)C(=O)C3)c2)n1C

> <score_type>
oracle

> <origin>
adg

> <m_score__min__energy>
-18.93

> <m_primary>
energy

> <minimizedAffinity>
-8.60521

> <minimizedRMSD>
1.25425

> <CNNscore>
0.2738775015

> <CNNaffinity>
6.9109497070

> <CNN_VS>
1.8927536011

> <CNNaffinity_variance>
0.2508486211

$$$$
86:0


 27 29  0  0  0  0  0  0  0  0999 V2000
   59.9165   28.4453   48.9582 C   0  0  0  0  0  0  0  0  0  0  0  0
   59.2260   28.3054   47.8254 C   0  0  0  0  0  0  0  0  0  0  0  0
   58.8771   27.0908   47.3397 N   0  0  0  0  0  0  0  0  0  0  0  0
   58.2269   27.3632   46.1875 C   0  0  0  0  0  0  0  0  0  0  0  0
   57.6847   26.4415   45.3772 C   0  0  0  0  0  0  0  0  0  0  0  0
   58.1881   28.7277   46.0083 C   0  0  0  0  0  0  0  0  0  0  0  0
   57.6678   29.3363   45.0346 O   0  0  0  0  0  0  0  0  0  0  0  0
   58.8071   29.3305   47.0394 N   0  0  0  0  0  0  0  0  0  0  0  0
   57.2259   25.1142   45.8469 C   0  0  0  0  0  0  0  0  0  0  0  0
   55.8702   24.9130   46.1537 C   0  0  0  0  0  0  0  0  0  0  0  0
   54.9580   25.9558   46.0478 O   0  0  0  0  0  0  0  0  0  0  0  0
   55.4402   23.6940   46.5693 N   0  0  0  0  0  0  0  0  0  0  0  0
   56.2986   22.6498   46.6836 C   0  0  0  0  0  0  0  0  0  0  0  0
   55.8779   21.5303   47.0758 O   0  0  0  0  0  0  0  0  0  0  0  0
   57.6093   22.8077   46.3669 N   0  0  0  0  0  0  0  0  0  0  0  0
   58.0897   24.0046   45.9444 C   0  0  0  0  0  0  0  0  0  0  0  0
   59.3027   24.0995   45.6184 O   0  0  0  0  0  0  0  0  0  0  0  0
   59.0417   30.7697   47.1983 C   0  0  0  0  0  0  0  0  0  0  0  0
   60.4987   31.1075   46.8585 C   0  0  0  0  0  0  0  0  0  0  0  0
   60.9526   32.5169   47.3131 C   0  0  0  0  0  0  0  0  0  0  0  0
   61.7959   32.5958   48.5385 N   0  0  0  0  0  0  0  0  0  0  0  0
   61.7656   33.9078   49.2186 C   0  0  0  0  0  0  0  0  0  0  0  0
   62.5367   33.8422   50.5592 C   0  0  0  0  0  0  0  0  0  0  0  0
   63.4006   32.7211   50.6517 O   0  0  0  0  0  0  0  0  0  0  0  0
   64.1257   32.5645   49.4497 C   0  0  0  0  0  0  0  0  0  0  0  0
   63.1847   32.1305   48.3088 C   0  0  0  0  0  0  0  0  0  0  0  0
   61.3569   31.9427   49.1873 H   0  0  0  0  0  0  0  0  0  0  0  0
  1  2  2  0
  2  3  1  0
  3  4  1  0
  4  5  2  0
  5  9  1  0
  9 10  2  0
 10 11  1  0
 10 12  1  0
 12 13  1  0
 13 14  2  0
 13 15  1  0
 15 16  1  0
 16 17  2  0
  4  6  1  0
  6  7  2  0
  6  8  1  0
  8 18  1  0
 18 19  1  0
 19 20  1  0
 20 21  1  0
 21 22  1  0
 22 23  1  0
 23 24  1  0
 24 25  1  0
 25 26  1  0
  8  2  1  0
 26 21  1  0
 16  9  1  0
 21 27  1  0
M  CHG 1   3  -1
M  CHG 1  11  -1
M  CHG 1  12  -1
M  CHG 1  15  -1
M  CHG 1  21   1
M  END
> <UniqueID>
83

> <SMILES>
C=c1[n-]c(=Cc2c([O-])[n-]c(=O)[n-]c2=O)c(=O)n1CCC[NH+]1CCOCC1

> <Energy>
99.98591853016518

> <Genealogy>
C=c1[n-]c(=Cc2c([O-])[n-]c(=O)[n-]c2=O)c(=O)n1CCC[NH+]1CCOCC1 (protonated)
C=c1[n-]c(=Cc2c([O-])[n-]c(=O)[n-]c2=O)c(=O)n1CCC[NH+]1CCOCC1 (3D coordinates assigned)
C=c1[n-]c(=Cc2c([O-])[n-]c(=O)[n-]c2=O)c(=O)n1CCC[NH+]1CCOCC1 (nonaromatic ring conformer: 99.98591853016518 kcal/mol)

> <smiles>
C=c1[nH]c(=Cc2c(O)[nH]c(=O)[nH]c2=O)c(=O)n1CCCN1CCOCC1

> <score_type>
oracle

> <origin>
adg

> <m_score__min__energy>
-14.800000000000001

> <m_primary>
energy

> <minimizedAffinity>
-7.11667

> <minimizedRMSD>
1.94264

> <CNNscore>
0.0457052626

> <CNNaffinity>
4.8580632210

> <CNN_VS>
0.2220390588

> <CNNaffinity_variance>
0.1712720245

$$$$
9:0


 30 33  0  0  0  0  0  0  0  0999 V2000
   57.5135   30.9318   43.5689 C   0  0  0  0  0  0  0  0  0  0  0  0
   57.9576   30.1263   44.5352 C   0  0  0  0  0  0  0  0  0  0  0  0
   57.8618   28.4480   44.4591 S   0  0  0  0  0  0  0  0  0  0  0  0
   58.6433   28.2086   45.9356 C   0  0  0  0  0  0  0  0  0  0  0  0
   58.9560   27.0299   46.4979 C   0  0  0  0  0  0  0  0  0  0  0  0
   58.9708   29.4663   46.4465 C   0  0  0  0  0  0  0  0  0  0  0  0
   59.5681   29.6190   47.5489 O   0  0  0  0  0  0  0  0  0  0  0  0
   58.5843   30.5288   45.6779 N   0  0  0  0  0  0  0  0  0  0  0  0
   58.2751   25.7618   46.1863 C   0  0  0  0  0  0  0  0  0  0  0  0
   58.9300   24.6009   46.0058 N   0  0  0  0  0  0  0  0  0  0  0  0
   57.9361   23.7047   45.8208 C   0  0  0  0  0  0  0  0  0  0  0  0
   58.1557   22.4858   45.6029 O   0  0  0  0  0  0  0  0  0  0  0  0
   56.6893   24.2176   45.8933 N   0  0  0  0  0  0  0  0  0  0  0  0
   56.9195   25.5185   46.1364 C   0  0  0  0  0  0  0  0  0  0  0  0
   55.9101   26.4477   46.3561 O   0  0  0  0  0  0  0  0  0  0  0  0
   58.8133   31.8998   46.0586 C   0  0  0  0  0  0  0  0  0  0  0  0
   58.5492   32.9389   45.1555 C   0  0  0  0  0  0  0  0  0  0  0  0
   58.7672   34.2669   45.5281 C   0  0  0  0  0  0  0  0  0  0  0  0
   59.2371   34.5668   46.8086 C   0  0  0  0  0  0  0  0  0  0  0  0
   59.4813   33.5409   47.7377 C   0  0  0  0  0  0  0  0  0  0  0  0
   59.2764   32.2047   47.3482 C   0  0  0  0  0  0  0  0  0  0  0  0
   59.9839   33.8523   49.0962 C   0  0  0  0  0  0  0  0  0  0  0  0
   59.3671   34.6927   49.8049 O   0  0  0  0  0  0  0  0  0  0  0  0
   61.1491   33.1983   49.6341 N   0  0  0  0  0  0  0  0  0  0  0  0
   62.3870   33.1082   48.8531 C   0  0  0  0  0  0  0  0  0  0  0  0
   63.0497   31.7292   49.0348 C   0  0  0  0  0  0  0  0  0  0  0  0
   62.8192   31.1133   50.3694 N   0  0  0  0  0  0  0  0  0  0  0  0
   61.8398   30.0118   50.3035 C   0  0  0  0  0  0  0  0  0  0  0  0
   62.4690   32.0977   51.4144 C   0  0  0  0  0  0  0  0  0  0  0  0
   61.1896   32.8733   51.0625 C   0  0  0  0  0  0  0  0  0  0  0  0
  1  2  2  0
  2  3  1  0
  3  4  1  0
  4  5  2  0
  5  9  1  0
  9 10  1  0
 10 11  1  0
 11 12  2  0
 11 13  1  0
 13 14  1  0
 14 15  1  0
  4  6  1  0
  6  7  2  0
  6  8  1  0
  8 16  1  0
 16 17  2  0
 17 18  1  0
 18 19  2  0
 19 20  1  0
 20 22  1  0
 22 23  2  0
 22 24  1  0
 24 25  1  0
 25 26  1  0
 26 27  1  0
 27 28  1  0
 27 29  1  0
 29 30  1  0
 20 21  2  0
  8  2  1  0
 21 16  1  0
 14  9  2  0
 30 24  1  0
M  CHG 1  10  -1
M  CHG 1  13  -1
M  CHG 1  15  -1
M  END
> <UniqueID>
10

> <SMILES>
C=c1s/c(=C\c2[n-]c(=O)[n-]c2[O-])c(=O)n1-c1cccc(C(=O)N2CCN(C)CC2)c1

> <Energy>
137.49348002701893

> <Genealogy>
C=c1sc(=Cc2[n-]c(=O)[n-]c2[O-])c(=O)n1-c1cccc(C(=O)N2CCN(C)CC2)c1 (protonated)
C=c1s/c(=C\c2[n-]c(=O)[n-]c2[O-])c(=O)n1-c1cccc(C(=O)N2CCN(C)CC2)c1 (cis-trans isomerization)
C=c1s/c(=C\c2[n-]c(=O)[n-]c2[O-])c(=O)n1-c1cccc(C(=O)N2CCN(C)CC2)c1 (3D coordinates assigned)
C=c1s/c(=C\c2[n-]c(=O)[n-]c2[O-])c(=O)n1-c1cccc(C(=O)N2CCN(C)CC2)c1 (nonaromatic ring conformer: 137.49348002701893 kcal/mol)

> <smiles>
C=c1sc(=Cc2[nH]c(=O)[nH]c2O)c(=O)n1-c1cccc(C(=O)N2CCN(C)CC2)c1

> <score_type>
oracle

> <origin>
adg

> <m_score__min__energy>
-17.300000000000001

> <m_primary>
energy

> <minimizedAffinity>
-8.74512

> <minimizedRMSD>
1.32920

> <CNNscore>
0.2350216806

> <CNNaffinity>
6.5379505157

> <CNN_VS>
1.5365600586

> <CNNaffinity_variance>
0.0614165850

$$$$
11:0


 34 38  0  0  0  0  0  0  0  0999 V2000
   58.8785   29.5460   47.2805 C   0  0  0  0  0  0  0  0  0  0  0  0
   58.5118   30.3064   46.2359 C   0  0  0  0  0  0  0  0  0  0  0  0
   57.7083   29.9237   45.1500 C   0  0  0  0  0  0  0  0  0  0  0  0
   57.2694   28.7123   44.7575 C   0  0  0  0  0  0  0  0  0  0  0  0
   57.4011   31.0889   44.4664 C   0  0  0  0  0  0  0  0  0  0  0  0
   58.0741   32.1138   45.0982 C   0  0  0  0  0  0  0  0  0  0  0  0
   58.0281   33.5495   44.6706 C   0  0  0  0  0  0  0  0  0  0  0  0
   58.7463   31.6426   46.1725 N   0  0  0  0  0  0  0  0  0  0  0  0
   57.7154   27.4209   45.2999 C   0  0  0  0  0  0  0  0  0  0  0  0
   59.0074   27.0479   45.3901 N   0  0  0  0  0  0  0  0  0  0  0  0
   58.9847   25.8683   46.0430 C   0  0  0  0  0  0  0  0  0  0  0  0
   60.0216   25.1953   46.2899 O   0  0  0  0  0  0  0  0  0  0  0  0
   57.7423   25.4927   46.4085 N   0  0  0  0  0  0  0  0  0  0  0  0
   57.3371   24.2588   47.0734 C   0  0  0  0  0  0  0  0  0  0  0  0
   56.9433   26.4718   45.9466 C   0  0  0  0  0  0  0  0  0  0  0  0
   55.5652   26.5144   46.1275 O   0  0  0  0  0  0  0  0  0  0  0  0
   59.7959   27.5313   45.0528 H   0  0  0  0  0  0  0  0  0  0  0  0
   59.5278   32.4337   47.0850 C   0  0  0  0  0  0  0  0  0  0  0  0
   58.9054   33.3740   47.9169 C   0  0  0  0  0  0  0  0  0  0  0  0
   59.6662   34.1398   48.8017 C   0  0  0  0  0  0  0  0  0  0  0  0
   61.0529   33.9795   48.8557 C   0  0  0  0  0  0  0  0  0  0  0  0
   61.6943   33.0553   48.0156 C   0  0  0  0  0  0  0  0  0  0  0  0
   60.9205   32.2714   47.1421 C   0  0  0  0  0  0  0  0  0  0  0  0
   63.1630   32.8925   48.0747 C   0  0  0  0  0  0  0  0  0  0  0  0
   63.8603   33.2277   47.0790 O   0  0  0  0  0  0  0  0  0  0  0  0
   63.8021   32.3229   49.2311 N   0  0  0  0  0  0  0  0  0  0  0  0
   64.9441   32.9454   49.9138 C   0  0  0  0  0  0  0  0  0  0  0  0
   65.0150   32.3009   51.3195 C   0  0  0  0  0  0  0  0  0  0  0  0
   63.8725   31.3507   51.3206 C   0  0  0  0  0  0  0  0  0  0  0  0
   63.4692   30.4953   52.3484 C   0  0  0  0  0  0  0  0  0  0  0  0
   62.3634   29.6592   52.1286 C   0  0  0  0  0  0  0  0  0  0  0  0
   61.6922   29.6852   50.8929 C   0  0  0  0  0  0  0  0  0  0  0  0
   62.1177   30.5531   49.8728 C   0  0  0  0  0  0  0  0  0  0  0  0
   63.2098   31.3905   50.1230 C   0  0  0  0  0  0  0  0  0  0  0  0
  1  2  2  0
  2  3  1  0
  3  4  2  0
  4  9  1  0
  9 10  1  0
 10 11  1  0
 11 12  2  0
 11 13  1  0
 13 14  1  0
 13 15  1  0
 15 16  1  0
  3  5  1  0
  5  6  2  0
  6  7  1  0
  6  8  1  0
  8 18  1  0
 18 19  2  0
 19 20  1  0
 20 21  2  0
 21 22  1  0
 22 24  1  0
 24 25  2  0
 24 26  1  0
 26 27  1  0
 27 28  1  0
 28 29  1  0
 29 30  2  0
 30 31  1  0
 31 32  2  0
 32 33  1  0
 33 34  2  0
 22 23  2  0
  8  2  1  0
 23 18  1  0
 15  9  2  0
 34 26  1  0
 34 29  1  0
 10 17  1  0
M  CHG 1  16  -1
M  END
> <UniqueID>
12

> <SMILES>
C=c1c(=Cc2[nH]c(=O)n(C)c2[O-])cc(C)n1-c1cccc(C(=O)N2CCc3ccccc32)c1

> <Energy>
160.63539775201272

> <Genealogy>
C=c1c(=Cc2[nH]c(=O)n(C)c2[O-])cc(C)n1-c1cccc(C(=O)N2CCc3ccccc32)c1 (protonated)
C=c1c(=Cc2[nH]c(=O)n(C)c2[O-])cc(C)n1-c1cccc(C(=O)N2CCc3ccccc32)c1 (3D coordinates assigned)
C=c1c(=Cc2[nH]c(=O)n(C)c2[O-])cc(C)n1-c1cccc(C(=O)N2CCc3ccccc32)c1 (nonaromatic ring conformer: 160.63539775201272 kcal/mol)

> <smiles>
C=c1c(=Cc2[nH]c(=O)n(C)c2O)cc(C)n1-c1cccc(C(=O)N2CCc3ccccc32)c1

> <score_type>
oracle

> <origin>
adg

> <m_score__min__energy>
-14.18

> <m_primary>
energy

> <minimizedAffinity>
-9.73386

> <minimizedRMSD>
0.59705

> <CNNscore>
0.4478622675

> <CNNaffinity>
7.0567564964

> <CNN_VS>
3.1604549885

> <CNNaffinity_variance>
0.0596876144

$$$$
15:0


 30 33  0  0  0  0  0  0  0  0999 V2000
   57.8656   24.9396   46.4013 C   0  0  0  0  0  0  0  0  0  0  0  0
   58.2355   26.1273   45.8840 C   0  0  0  0  0  0  0  0  0  0  0  0
   57.4732   26.8111   44.9584 C   0  0  0  0  0  0  0  0  0  0  0  0
   58.1125   28.0096   44.7180 C   0  0  0  0  0  0  0  0  0  0  0  0
   59.2345   28.1108   45.4750 N   0  0  0  0  0  0  0  0  0  0  0  0
   59.3700   26.9188   46.1208 C   0  0  0  0  0  0  0  0  0  0  0  0
   60.5000   26.5182   46.7249 C   0  0  0  0  0  0  0  0  0  0  0  0
   55.0586   26.2581   46.1215 O   0  0  0  0  0  0  0  0  0  0  0  0
   55.3294   24.8934   46.0583 C   0  0  0  0  0  0  0  0  0  0  0  0
   54.3894   23.9679   45.8122 N   0  0  0  0  0  0  0  0  0  0  0  0
   55.0976   22.8188   45.7852 C   0  0  0  0  0  0  0  0  0  0  0  0
   54.5658   21.6993   45.5717 O   0  0  0  0  0  0  0  0  0  0  0  0
   56.4237   22.9649   45.9983 N   0  0  0  0  0  0  0  0  0  0  0  0
   56.5638   24.2866   46.1971 C   0  0  0  0  0  0  0  0  0  0  0  0
   54.1806   26.5671   46.0134 H   0  0  0  0  0  0  0  0  0  0  0  0
   57.6333   29.0178   43.7015 C   0  0  0  0  0  0  0  0  0  0  0  0
   56.5625   29.9568   44.2639 C   0  0  0  0  0  0  0  0  0  0  0  0
   55.5262   29.2344   44.8749 O   0  0  0  0  0  0  0  0  0  0  0  0
   55.1042   28.6572   44.2194 H   0  0  0  0  0  0  0  0  0  0  0  0
   60.1448   29.2740   45.4990 C   0  0  0  0  0  0  0  0  0  0  0  0
   59.7998   30.2868   46.5837 C   0  0  0  0  0  0  0  0  0  0  0  0
   60.1102   29.9479   47.9146 C   0  0  0  0  0  0  0  0  0  0  0  0
   59.7985   30.8046   48.9678 C   0  0  0  0  0  0  0  0  0  0  0  0
   59.1801   32.0270   48.7194 C   0  0  0  0  0  0  0  0  0  0  0  0
   58.8835   32.4143   47.4071 C   0  0  0  0  0  0  0  0  0  0  0  0
   58.2734   33.6550   47.1691 C   0  0  0  0  0  0  0  0  0  0  0  0
   57.9890   34.0627   45.8660 C   0  0  0  0  0  0  0  0  0  0  0  0
   58.3202   33.2404   44.7905 C   0  0  0  0  0  0  0  0  0  0  0  0
   58.9264   32.0030   45.0101 C   0  0  0  0  0  0  0  0  0  0  0  0
   59.2072   31.5557   46.3179 C   0  0  0  0  0  0  0  0  0  0  0  0
  8  9  1  0
  9 10  1  0
 10 11  1  0
 11 12  2  0
 11 13  1  0
 13 14  1  0
 14  1  1  0
  1  2  2  0
  2  3  1  0
  3  4  2  0
  4 16  1  0
 16 17  1  0
 17 18  1  0
  4  5  1  0
  5 20  1  0
 20 21  1  0
 21 22  2  0
 22 23  1  0
 23 24  2  0
 24 25  1  0
 25 26  2  0
 26 27  1  0
 27 28  2  0
 28 29  1  0
 29 30  2  0
  5  6  1  0
  6  7  2  0
 14  9  2  0
  6  2  1  0
 30 21  1  0
 30 25  1  0
  8 15  1  0
 18 19  1  0
M  CHG 1  10  -1
M  CHG 1  13  -1
M  END
> <UniqueID>
16

> <SMILES>
C=c1/c(=C\c2[n-]c(=O)[n-]c2O)cc(CCO)n1Cc1cccc2ccccc12

> <Energy>
125.45895051474643

> <Genealogy>
C=c1c(=Cc2[n-]c(=O)[n-]c2O)cc(CCO)n1Cc1cccc2ccccc12 (protonated)
C=c1/c(=C\c2[n-]c(=O)[n-]c2O)cc(CCO)n1Cc1cccc2ccccc12 (cis-trans isomerization)
C=c1/c(=C\c2[n-]c(=O)[n-]c2O)cc(CCO)n1Cc1cccc2ccccc12 (3D coordinates assigned)
C=c1/c(=C\c2[n-]c(=O)[n-]c2O)cc(CCO)n1Cc1cccc2ccccc12 (optimized conformer: 125.45895051474643 kcal/mol)

> <smiles>
C=c1c(=Cc2[nH]c(=O)[nH]c2O)cc(CCO)n1Cc1cccc2ccccc12

> <score_type>
oracle

> <origin>
adg

> <m_score__min__energy>
-14.32

> <m_primary>
energy

> <minimizedAffinity>
-9.35675

> <minimizedRMSD>
0.57202

> <CNNscore>
0.5772640109

> <CNNaffinity>
6.8916993141

> <CNN_VS>
3.9783298969

> <CNNaffinity_variance>
0.0340809375

$$$$
23:0


 31 33  0  0  0  0  0  0  0  0999 V2000
   55.4222   30.9254   51.7860 C   0  0  0  0  0  0  0  0  0  0  0  0
   55.4811   30.4239   53.0292 C   0  0  0  0  0  0  0  0  0  0  0  0
   54.3881   30.1554   53.8604 C   0  0  0  0  0  0  0  0  0  0  0  0
   53.0935   30.4495   53.6282 C   0  0  0  0  0  0  0  0  0  0  0  0
   54.9045   29.5607   55.0029 C   0  0  0  0  0  0  0  0  0  0  0  0
   56.2718   29.4870   54.8282 C   0  0  0  0  0  0  0  0  0  0  0  0
   57.2243   28.9165   55.8343 C   0  0  0  0  0  0  0  0  0  0  0  0
   56.6276   30.0229   53.6386 N   0  0  0  0  0  0  0  0  0  0  0  0
   57.9803   30.1463   53.1556 C   0  0  0  0  0  0  0  0  0  0  0  0
   58.5340   29.1441   52.6238 O   0  0  0  0  0  0  0  0  0  0  0  0
   52.5059   30.5788   52.2834 C   0  0  0  0  0  0  0  0  0  0  0  0
   52.6598   29.6550   51.3182 N   0  0  0  0  0  0  0  0  0  0  0  0
   51.8999   30.1267   50.3065 C   0  0  0  0  0  0  0  0  0  0  0  0
   51.7974   29.5337   49.2020 O   0  0  0  0  0  0  0  0  0  0  0  0
   51.2521   31.2799   50.5760 N   0  0  0  0  0  0  0  0  0  0  0  0
   51.6350   31.5476   51.8347 C   0  0  0  0  0  0  0  0  0  0  0  0
   51.1591   32.6262   52.5684 O   0  0  0  0  0  0  0  0  0  0  0  0
   58.7491   31.3484   53.4151 N   0  0  0  0  0  0  0  0  0  0  0  0
   58.1009   32.5364   52.7993 C   0  0  0  0  0  0  0  0  0  0  0  0
   59.1075   33.6787   52.5952 C   0  0  0  0  0  0  0  0  0  0  0  0
   60.2359   33.2907   51.7059 N   0  0  0  0  0  0  0  0  0  0  0  0
   60.4514   31.8267   51.6356 C   0  0  0  0  0  0  0  0  0  0  0  0
   60.1617   31.1602   52.9884 C   0  0  0  0  0  0  0  0  0  0  0  0
   59.6664   31.2327   53.0767 H   0  0  0  0  0  0  0  0  0  0  0  0
   60.1074   33.8670   50.3495 C   0  0  0  0  0  0  0  0  0  0  0  0
   60.7458   32.9310   49.3113 C   0  0  0  0  0  0  0  0  0  0  0  0
   59.8768   32.7386   48.0543 C   0  0  0  0  0  0  0  0  0  0  0  0
   60.2212   33.6927   46.9037 C   0  0  0  0  0  0  0  0  0  0  0  0
   59.5705   33.3137   45.7422 F   0  0  0  0  0  0  0  0  0  0  0  0
   59.8166   34.9726   47.2399 F   0  0  0  0  0  0  0  0  0  0  0  0
   61.5854   33.7132   46.6786 F   0  0  0  0  0  0  0  0  0  0  0  0
  1  2  2  0
  2  3  1  0
  3  4  2  0
  4 11  1  0
 11 12  1  0
 12 13  1  0
 13 14  2  0
 13 15  1  0
 15 16  1  0
 16 17  1  0
  3  5  1  0
  5  6  2  0
  6  7  1  0
  6  8  1  0
  8  9  1  0
  9 10  2  0
  9 18  1  0
 18 19  1  0
 19 20  1  0
 20 21  1  0
 21 25  1  0
 25 26  1  0
 26 27  1  0
 27 28  1  0
 28 29  1  0
 28 30  1  0
 28 31  1  0
 21 22  1  0
 22 23  1  0
  8  2  1  0
 23 18  1  0
 16 11  2  0
 18 24  1  0
M  CHG 1  12  -1
M  CHG 1  15  -1
M  CHG 1  17  -1
M  CHG 1  18   1
M  END
> <UniqueID>
24

> <SMILES>
C=c1/c(=C/c2[n-]c(=O)[n-]c2[O-])cc(C)n1C(=O)[NH+]1CCN(CCCC(F)(F)F)CC1

> <Energy>
134.2438355431049

> <Genealogy>
C=c1c(=Cc2[n-]c(=O)[n-]c2[O-])cc(C)n1C(=O)[NH+]1CCN(CCCC(F)(F)F)CC1 (protonated)
C=c1/c(=C/c2[n-]c(=O)[n-]c2[O-])cc(C)n1C(=O)[NH+]1CCN(CCCC(F)(F)F)CC1 (cis-trans isomerization)
C=c1/c(=C/c2[n-]c(=O)[n-]c2[O-])cc(C)n1C(=O)[NH+]1CCN(CCCC(F)(F)F)CC1 (3D coordinates assigned)
C=c1/c(=C/c2[n-]c(=O)[n-]c2[O-])cc(C)n1C(=O)[NH+]1CCN(CCCC(F)(F)F)CC1 (nonaromatic ring conformer: 134.2438355431049 kcal/mol)

> <smiles>
C=c1c(=Cc2[nH]c(=O)[nH]c2O)cc(C)n1C(=O)N1CCN(CCCC(F)(F)F)CC1

> <score_type>
oracle

> <origin>
adg

> <m_score__min__energy>
-14.57

> <m_primary>
energy

> <minimizedAffinity>
-5.62633

> <minimizedRMSD>
1.01179

> <CNNscore>
0.1647793651

> <CNNaffinity>
5.7359061241

> <CNN_VS>
0.9451589584

> <CNNaffinity_variance>
0.0313809477

$$$$
35:0


 33 36  0  0  0  0  0  0  0  0999 V2000
   58.2623   33.9056   45.0757 C   0  0  0  0  0  0  0  0  0  0  0  0
   58.2847   32.6180   45.4236 C   0  0  0  0  0  0  0  0  0  0  0  0
   57.4716   31.7023   44.8481 N   0  0  0  0  0  0  0  0  0  0  0  0
   57.8078   30.5354   45.4381 C   0  0  0  0  0  0  0  0  0  0  0  0
   57.2206   29.3544   45.1977 C   0  0  0  0  0  0  0  0  0  0  0  0
   58.8058   30.7724   46.3572 C   0  0  0  0  0  0  0  0  0  0  0  0
   59.3585   29.9104   47.0931 O   0  0  0  0  0  0  0  0  0  0  0  0
   59.1087   32.0835   46.3620 N   0  0  0  0  0  0  0  0  0  0  0  0
   57.7941   28.0538   45.5909 C   0  0  0  0  0  0  0  0  0  0  0  0
   59.1233   27.8120   45.5906 N   0  0  0  0  0  0  0  0  0  0  0  0
   59.2190   26.5222   45.9784 C   0  0  0  0  0  0  0  0  0  0  0  0
   60.3233   25.9307   46.1168 O   0  0  0  0  0  0  0  0  0  0  0  0
   58.0263   25.9330   46.1964 N   0  0  0  0  0  0  0  0  0  0  0  0
   57.1258   26.8969   45.9506 C   0  0  0  0  0  0  0  0  0  0  0  0
   55.7489   26.7139   46.0082 O   0  0  0  0  0  0  0  0  0  0  0  0
   57.7664   24.5745   46.6723 C   0  0  0  0  0  0  0  0  0  0  0  0
   57.4759   23.6698   45.5078 C   0  0  0  0  0  0  0  0  0  0  0  0
   58.2948   22.5557   45.2561 C   0  0  0  0  0  0  0  0  0  0  0  0
   58.0039   21.6922   44.1937 C   0  0  0  0  0  0  0  0  0  0  0  0
   56.8895   21.9294   43.3851 C   0  0  0  0  0  0  0  0  0  0  0  0
   56.0596   23.0256   43.6392 C   0  0  0  0  0  0  0  0  0  0  0  0
   54.9733   23.2478   42.8578 F   0  0  0  0  0  0  0  0  0  0  0  0
   56.3480   23.8919   44.6983 C   0  0  0  0  0  0  0  0  0  0  0  0
   60.0952   32.7569   47.2163 C   0  0  0  0  0  0  0  0  0  0  0  0
   60.0011   32.2739   48.6461 C   0  0  0  0  0  0  0  0  0  0  0  0
   58.8041   32.4594   49.3613 C   0  0  0  0  0  0  0  0  0  0  0  0
   58.6951   32.0304   50.6861 C   0  0  0  0  0  0  0  0  0  0  0  0
   59.7794   31.4200   51.3142 C   0  0  0  0  0  0  0  0  0  0  0  0
   60.9792   31.2385   50.6226 C   0  0  0  0  0  0  0  0  0  0  0  0
   61.1039   31.6648   49.2851 C   0  0  0  0  0  0  0  0  0  0  0  0
   62.2985   31.4973   48.5667 O   0  0  0  0  0  0  0  0  0  0  0  0
   63.4699   32.2912   48.7428 C   0  0  0  0  0  0  0  0  0  0  0  0
   63.5452   33.3354   47.6402 C   0  0  0  0  0  0  0  0  0  0  0  0
  1  2  2  0
  2  3  1  0
  3  4  1  0
  4  5  2  0
  5  9  1  0
  9 10  1  0
 10 11  1  0
 11 12  2  0
 11 13  1  0
 13 16  1  0
 16 17  1  0
 17 18  2  0
 18 19  1  0
 19 20  2  0
 20 21  1  0
 21 22  1  0
 21 23  2  0
 13 14  1  0
 14 15  1  0
  4  6  1  0
  6  7  2  0
  6  8  1  0
  8 24  1  0
 24 25  1  0
 25 26  2  0
 26 27  1  0
 27 28  2  0
 28 29  1  0
 29 30  2  0
 30 31  1  0
 31 32  1  0
 32 33  1  0
  8  2  1  0
 30 25  1  0
 14  9  2  0
 23 17  1  0
M  CHG 1   3  -1
M  CHG 1  10  -1
M  CHG 1  15  -1
M  END
> <UniqueID>
36

> <SMILES>
C=c1[n-]/c(=C\c2[n-]c(=O)n(Cc3cccc(F)c3)c2[O-])c(=O)n1Cc1ccccc1OCC

> <Energy>
120.34369945241173

> <Genealogy>
C=c1[n-]c(=Cc2[n-]c(=O)n(Cc3cccc(F)c3)c2[O-])c(=O)n1Cc1ccccc1OCC (protonated)
C=c1[n-]/c(=C\c2[n-]c(=O)n(Cc3cccc(F)c3)c2[O-])c(=O)n1Cc1ccccc1OCC (cis-trans isomerization)
C=c1[n-]/c(=C\c2[n-]c(=O)n(Cc3cccc(F)c3)c2[O-])c(=O)n1Cc1ccccc1OCC (3D coordinates assigned)
C=c1[n-]/c(=C\c2[n-]c(=O)n(Cc3cccc(F)c3)c2[O-])c(=O)n1Cc1ccccc1OCC (optimized conformer: 120.34369945241173 kcal/mol)

> <smiles>
C=c1[nH]c(=Cc2[nH]c(=O)n(Cc3cccc(F)c3)c2O)c(=O)n1Cc1ccccc1OCC

> <score_type>
oracle

> <origin>
adg

> <m_score__min__energy>
-14.41

> <m_primary>
energy

> <minimizedAffinity>
-8.46108

> <minimizedRMSD>
0.84336

> <CNNscore>
0.5824359655

> <CNNaffinity>
6.8619666100

> <CNN_VS>
3.9966561794

> <CNNaffinity_variance>
0.0578094535

$$$$
38:0


 30 33  0  0  0  0  0  0  0  0999 V2000
   55.1622   27.9592   53.2276 C   0  0  0  0  0  0  0  0  0  0  0  0
   55.5058   29.2447   53.0495 C   0  0  0  0  0  0  0  0  0  0  0  0
   54.6550   30.3470   52.8654 C   0  0  0  0  0  0  0  0  0  0  0  0
   53.3264   30.3969   52.6577 C   0  0  0  0  0  0  0  0  0  0  0  0
   55.3893   31.4790   52.9072 N   0  0  0  0  0  0  0  0  0  0  0  0
   56.6555   31.0544   53.0682 C   0  0  0  0  0  0  0  0  0  0  0  0
   57.6319   31.8464   53.1374 O   0  0  0  0  0  0  0  0  0  0  0  0
   56.7743   29.7128   53.1470 N   0  0  0  0  0  0  0  0  0  0  0  0
   52.6597   30.5020   51.3523 C   0  0  0  0  0  0  0  0  0  0  0  0
   52.6643   29.5151   50.4297 N   0  0  0  0  0  0  0  0  0  0  0  0
   51.8493   29.9822   49.4566 C   0  0  0  0  0  0  0  0  0  0  0  0
   51.6248   29.3482   48.3917 O   0  0  0  0  0  0  0  0  0  0  0  0
   51.3034   31.1849   49.7375 N   0  0  0  0  0  0  0  0  0  0  0  0
   50.4425   31.9995   48.8859 C   0  0  0  0  0  0  0  0  0  0  0  0
   51.8157   31.5129   50.9325 C   0  0  0  0  0  0  0  0  0  0  0  0
   51.5178   32.6795   51.6269 O   0  0  0  0  0  0  0  0  0  0  0  0
   58.0178   28.9760   53.4167 C   0  0  0  0  0  0  0  0  0  0  0  0
   59.1354   29.4805   52.5418 C   0  0  0  0  0  0  0  0  0  0  0  0
   60.3450   29.9204   53.1044 C   0  0  0  0  0  0  0  0  0  0  0  0
   61.3681   30.4100   52.2870 C   0  0  0  0  0  0  0  0  0  0  0  0
   61.2011   30.4676   50.8937 C   0  0  0  0  0  0  0  0  0  0  0  0
   59.9860   30.0398   50.3328 C   0  0  0  0  0  0  0  0  0  0  0  0
   58.9638   29.5482   51.1500 C   0  0  0  0  0  0  0  0  0  0  0  0
   62.2516   30.9826   50.0508 N   0  0  0  0  0  0  0  0  0  0  0  0
   63.5830   31.2770   50.5900 C   0  0  0  0  0  0  0  0  0  0  0  0
   63.9893   32.7266   50.2628 C   0  0  0  0  0  0  0  0  0  0  0  0
   63.4010   33.2500   49.0036 N   0  0  0  0  0  0  0  0  0  0  0  0
   62.2675   34.1544   49.2617 C   0  0  0  0  0  0  0  0  0  0  0  0
   63.0478   32.1841   48.0410 C   0  0  0  0  0  0  0  0  0  0  0  0
   62.0073   31.2108   48.6217 C   0  0  0  0  0  0  0  0  0  0  0  0
  1  2  2  0
  2  3  1  0
  3  4  2  0
  4  9  1  0
  9 10  1  0
 10 11  1  0
 11 12  2  0
 11 13  1  0
 13 14  1  0
 13 15  1  0
 15 16  1  0
  3  5  1  0
  5  6  1  0
  6  7  2  0
  6  8  1  0
  8 17  1  0
 17 18  1  0
 18 19  2  0
 19 20  1  0
 20 21  2  0
 21 24  1  0
 24 25  1  0
 25 26  1  0
 26 27  1  0
 27 28  1  0
 27 29  1  0
 29 30  1  0
 21 22  1  0
 22 23  2  0
  8  2  1  0
 23 18  1  0
 15  9  2  0
 30 24  1  0
M  CHG 1   5  -1
M  CHG 1  10  -1
M  CHG 1  16  -1
M  END
> <UniqueID>
39

> <SMILES>
C=c1c(=Cc2[n-]c(=O)n(C)c2[O-])[n-]c(=O)n1Cc1ccc(N2CCN(C)CC2)cc1

> <Energy>
143.31990299323817

> <Genealogy>
C=c1c(=Cc2[n-]c(=O)n(C)c2[O-])[n-]c(=O)n1Cc1ccc(N2CCN(C)CC2)cc1 (protonated)
C=c1c(=Cc2[n-]c(=O)n(C)c2[O-])[n-]c(=O)n1Cc1ccc(N2CCN(C)CC2)cc1 (3D coordinates assigned)
C=c1c(=Cc2[n-]c(=O)n(C)c2[O-])[n-]c(=O)n1Cc1ccc(N2CCN(C)CC2)cc1 (nonaromatic ring conformer: 143.31990299323817 kcal/mol)

> <smiles>
C=c1c(=Cc2[nH]c(=O)n(C)c2O)[nH]c(=O)n1Cc1ccc(N2CCN(C)CC2)cc1

> <score_type>
oracle

> <origin>
adg

> <m_score__min__energy>
-15.880000000000001

> <m_primary>
energy

> <minimizedAffinity>
-2.71360

> <minimizedRMSD>
0.55253

> <CNNscore>
0.0459885597

> <CNNaffinity>
4.8119664192

> <CNN_VS>
0.2212954015

> <CNNaffinity_variance>
0.3003928959

$$$$
39:0


 32 34  0  0  0  0  0  0  0  0999 V2000
   59.2339   31.3469   51.8113 C   0  0  0  0  0  0  0  0  0  0  0  0
   59.6654   30.6389   50.7646 C   0  0  0  0  0  0  0  0  0  0  0  0
   59.3780   28.9926   50.5822 S   0  0  0  0  0  0  0  0  0  0  0  0
   60.1609   28.8901   49.0911 C   0  0  0  0  0  0  0  0  0  0  0  0
   60.3397   27.7847   48.3480 C   0  0  0  0  0  0  0  0  0  0  0  0
   60.6409   30.1651   48.7813 C   0  0  0  0  0  0  0  0  0  0  0  0
   61.2768   30.4112   47.7180 O   0  0  0  0  0  0  0  0  0  0  0  0
   60.3717   31.1349   49.7084 N   0  0  0  0  0  0  0  0  0  0  0  0
   59.7117   27.5596   47.0302 C   0  0  0  0  0  0  0  0  0  0  0  0
   59.9444   28.4767   45.9958 C   0  0  0  0  0  0  0  0  0  0  0  0
   59.3524   28.2951   44.7440 C   0  0  0  0  0  0  0  0  0  0  0  0
   58.5040   27.2072   44.5161 C   0  0  0  0  0  0  0  0  0  0  0  0
   57.9595   27.0244   43.2482 O   0  0  0  0  0  0  0  0  0  0  0  0
   58.2217   26.3023   45.5571 C   0  0  0  0  0  0  0  0  0  0  0  0
   58.8270   26.4875   46.8114 C   0  0  0  0  0  0  0  0  0  0  0  0
   57.3122   25.1526   45.3501 C   0  0  0  0  0  0  0  0  0  0  0  0
   57.8119   23.9684   44.7804 C   0  0  0  0  0  0  0  0  0  0  0  0
   56.9737   22.8617   44.5772 C   0  0  0  0  0  0  0  0  0  0  0  0
   55.6234   22.9437   44.9525 C   0  0  0  0  0  0  0  0  0  0  0  0
   55.1222   24.1119   45.5304 C   0  0  0  0  0  0  0  0  0  0  0  0
   55.9597   25.2126   45.7386 C   0  0  0  0  0  0  0  0  0  0  0  0
   55.4453   26.3505   46.3504 O   0  0  0  0  0  0  0  0  0  0  0  0
   57.5228   21.6352   43.9715 C   0  0  0  0  0  0  0  0  0  0  0  0
   57.0715   21.1880   42.8825 O   0  0  0  0  0  0  0  0  0  0  0  0
   60.7688   32.5436   49.5477 C   0  0  0  0  0  0  0  0  0  0  0  0
   59.9472   33.2055   48.4740 C   0  0  0  0  0  0  0  0  0  0  0  0
   58.6894   33.1895   48.5754 O   0  0  0  0  0  0  0  0  0  0  0  0
   60.5605   33.8362   47.3284 N   0  0  0  0  0  0  0  0  0  0  0  0
   59.8356   34.8944   46.6102 C   0  0  0  0  0  0  0  0  0  0  0  0
   59.2290   34.3527   45.3189 C   0  0  0  0  0  0  0  0  0  0  0  0
   61.8682   33.3916   46.8198 C   0  0  0  0  0  0  0  0  0  0  0  0
   62.9944   33.8630   47.7349 C   0  0  0  0  0  0  0  0  0  0  0  0
  1  2  2  0
  2  3  1  0
  3  4  1  0
  4  5  2  0
  5  9  1  0
  9 10  2  0
 10 11  1  0
 11 12  2  0
 12 13  1  0
 12 14  1  0
 14 16  1  0
 16 17  2  0
 17 18  1  0
 18 23  1  0
 23 24  2  0
 18 19  2  0
 19 20  1  0
 20 21  2  0
 21 22  1  0
 14 15  2  0
  4  6  1  0
  6  7  2  0
  6  8  1  0
  8 25  1  0
 25 26  1  0
 26 27  2  0
 26 28  1  0
 28 29  1  0
 29 30  1  0
 28 31  1  0
 31 32  1  0
  8  2  1  0
 15  9  1  0
 21 16  1  0
M  CHG 1  13  -1
M  CHG 1  22  -1
M  END
> <UniqueID>
40

> <SMILES>
C=c1sc(=Cc2ccc([O-])c(-c3cc(C=O)ccc3[O-])c2)c(=O)n1CC(=O)N(CC)CC

> <Energy>
95.18028056109056

> <Genealogy>
C=c1sc(=Cc2ccc([O-])c(-c3cc(C=O)ccc3[O-])c2)c(=O)n1CC(=O)N(CC)CC (protonated)
C=c1sc(=Cc2ccc([O-])c(-c3cc(C=O)ccc3[O-])c2)c(=O)n1CC(=O)N(CC)CC (3D coordinates assigned)
C=c1sc(=Cc2ccc([O-])c(-c3cc(C=O)ccc3[O-])c2)c(=O)n1CC(=O)N(CC)CC (optimized conformer: 95.18028056109056 kcal/mol)

> <smiles>
C=c1sc(=Cc2ccc(O)c(-c3cc(C=O)ccc3O)c2)c(=O)n1CC(=O)N(CC)CC

> <score_type>
oracle

> <origin>
adg

> <m_score__min__energy>
-14.69

> <m_primary>
energy

> <minimizedAffinity>
-7.87054

> <minimizedRMSD>
0.77087

> <CNNscore>
0.1662261486

> <CNNaffinity>
6.2312397957

> <CNN_VS>
1.0357949734

> <CNNaffinity_variance>
0.2163632661

$$$$
40:0


 23 25  0  0  0  0  0  0  0  0999 V2000
   59.2683   29.0911   48.3684 C   0  0  0  0  0  0  0  0  0  0  0  0
   58.8241   28.5934   47.2125 C   0  0  0  0  0  0  0  0  0  0  0  0
   58.6820   27.2628   47.0094 N   0  0  0  0  0  0  0  0  0  0  0  0
   58.2679   27.1536   45.7295 C   0  0  0  0  0  0  0  0  0  0  0  0
   58.0287   25.9680   45.1447 C   0  0  0  0  0  0  0  0  0  0  0  0
   58.1825   28.4215   45.1826 C   0  0  0  0  0  0  0  0  0  0  0  0
   57.8549   28.7113   43.9997 O   0  0  0  0  0  0  0  0  0  0  0  0
   58.5205   29.3319   46.1143 N   0  0  0  0  0  0  0  0  0  0  0  0
   57.3000   24.8564   45.7902 C   0  0  0  0  0  0  0  0  0  0  0  0
   55.9704   25.0304   46.2001 C   0  0  0  0  0  0  0  0  0  0  0  0
   55.3350   26.2577   46.0430 O   0  0  0  0  0  0  0  0  0  0  0  0
   55.2929   23.9959   46.7637 N   0  0  0  0  0  0  0  0  0  0  0  0
   55.8778   22.7822   46.9272 C   0  0  0  0  0  0  0  0  0  0  0  0
   55.2333   21.8402   47.4559 O   0  0  0  0  0  0  0  0  0  0  0  0
   57.1557   22.5814   46.5146 N   0  0  0  0  0  0  0  0  0  0  0  0
   57.8745   23.5831   45.9455 C   0  0  0  0  0  0  0  0  0  0  0  0
   59.0489   23.3537   45.5492 O   0  0  0  0  0  0  0  0  0  0  0  0
   58.5372   30.7618   45.9502 C   0  0  0  0  0  0  0  0  0  0  0  0
   57.6401   31.3864   45.0693 C   0  0  0  0  0  0  0  0  0  0  0  0
   57.6717   32.7744   44.8982 C   0  0  0  0  0  0  0  0  0  0  0  0
   58.6025   33.5448   45.5999 C   0  0  0  0  0  0  0  0  0  0  0  0
   59.5071   32.9280   46.4700 C   0  0  0  0  0  0  0  0  0  0  0  0
   59.4780   31.5404   46.6430 C   0  0  0  0  0  0  0  0  0  0  0  0
  1  2  2  0
  2  3  1  0
  3  4  1  0
  4  5  2  0
  5  9  1  0
  9 10  2  0
 10 11  1  0
 10 12  1  0
 12 13  1  0
 13 14  2  0
 13 15  1  0
 15 16  1  0
 16 17  2  0
  4  6  1  0
  6  7  2  0
  6  8  1  0
  8 18  1  0
 18 19  2  0
 19 20  1  0
 20 21  2  0
 21 22  1  0
 22 23  2  0
  8  2  1  0
 23 18  1  0
 16  9  1  0
M  CHG 1   3  -1
M  CHG 1  11  -1
M  CHG 1  12  -1
M  CHG 1  15  -1
M  END
> <UniqueID>
41

> <SMILES>
C=c1[n-]c(=Cc2c([O-])[n-]c(=O)[n-]c2=O)c(=O)n1-c1ccccc1

> <Energy>
84.02443191643283

> <Genealogy>
C=c1[n-]c(=Cc2c([O-])[n-]c(=O)[n-]c2=O)c(=O)n1-c1ccccc1 (protonated)
C=c1[n-]c(=Cc2c([O-])[n-]c(=O)[n-]c2=O)c(=O)n1-c1ccccc1 (3D coordinates assigned)
C=c1[n-]c(=Cc2c([O-])[n-]c(=O)[n-]c2=O)c(=O)n1-c1ccccc1 (optimized conformer: 84.02443191643283 kcal/mol)

> <smiles>
C=c1[nH]c(=Cc2c(O)[nH]c(=O)[nH]c2=O)c(=O)n1-c1ccccc1

> <score_type>
oracle

> <origin>
adg

> <m_score__min__energy>
-16.59

> <m_primary>
energy

> <minimizedAffinity>
-8.41216

> <minimizedRMSD>
1.75159

> <CNNscore>
0.2895182073

> <CNNaffinity>
6.0276713371

> <CNN_VS>
1.7451206446

> <CNNaffinity_variance>
0.1644868851

$$$$
45:0


 40 44  0  0  0  0  0  0  0  0999 V2000
   60.1849   32.4420   47.4447 C   0  0  0  0  0  0  0  0  0  0  0  0
   60.5950   31.4096   48.3097 C   0  0  0  0  0  0  0  0  0  0  0  0
   60.5723   31.5567   49.7067 C   0  0  0  0  0  0  0  0  0  0  0  0
   60.0974   32.7642   50.2422 C   0  0  0  0  0  0  0  0  0  0  0  0
   59.7164   33.8108   49.4061 C   0  0  0  0  0  0  0  0  0  0  0  0
   59.7826   33.6814   48.0098 C   0  0  0  0  0  0  0  0  0  0  0  0
   59.4981   34.8988   47.1699 C   0  0  0  0  0  0  0  0  0  0  0  0
   61.1280   30.4509   50.5503 C   0  0  0  0  0  0  0  0  0  0  0  0
   60.3161   29.6290   51.0532 O   0  0  0  0  0  0  0  0  0  0  0  0
   62.5418   30.2617   50.8124 N   0  0  0  0  0  0  0  0  0  0  0  0
   62.7729   29.2311   51.8509 C   0  0  0  0  0  0  0  0  0  0  0  0
   64.2768   28.9438   52.0026 C   0  0  0  0  0  0  0  0  0  0  0  0
   65.0583   30.1892   51.9328 N   0  0  0  0  0  0  0  0  0  0  0  0
   66.4237   30.1684   51.4750 C   0  0  0  0  0  0  0  0  0  0  0  0
   66.8284   31.0713   50.6910 O   0  0  0  0  0  0  0  0  0  0  0  0
   64.3517   31.4619   52.0925 C   0  0  0  0  0  0  0  0  0  0  0  0
   63.2335   31.5620   51.0453 C   0  0  0  0  0  0  0  0  0  0  0  0
   63.0996   29.5450   50.4321 H   0  0  0  0  0  0  0  0  0  0  0  0
   67.3643   29.0985   51.8757 C   0  0  0  0  0  0  0  0  0  0  0  0
   67.6332   28.0331   50.9958 C   0  0  0  0  0  0  0  0  0  0  0  0
   68.5500   27.0371   51.3459 C   0  0  0  0  0  0  0  0  0  0  0  0
   69.2120   27.0978   52.5751 C   0  0  0  0  0  0  0  0  0  0  0  0
   68.9662   28.1611   53.4485 C   0  0  0  0  0  0  0  0  0  0  0  0
   68.0472   29.1593   53.1020 C   0  0  0  0  0  0  0  0  0  0  0  0
   60.2363   32.1920   45.9456 C   0  0  0  0  0  0  0  0  0  0  0  0
   60.1446   29.2291   45.2719 C   0  0  0  0  0  0  0  0  0  0  0  0
   59.0556   30.0118   45.3517 C   0  0  0  0  0  0  0  0  0  0  0  0
   57.7419   29.6028   45.0955 C   0  0  0  0  0  0  0  0  0  0  0  0
   57.2036   28.3708   45.0256 C   0  0  0  0  0  0  0  0  0  0  0  0
   56.9950   30.7555   44.9704 C   0  0  0  0  0  0  0  0  0  0  0  0
   57.8388   31.8107   45.2384 C   0  0  0  0  0  0  0  0  0  0  0  0
   57.3756   33.2317   45.2984 C   0  0  0  0  0  0  0  0  0  0  0  0
   59.0946   31.3667   45.5018 N   0  0  0  0  0  0  0  0  0  0  0  0
   57.6196   27.2192   45.8459 C   0  0  0  0  0  0  0  0  0  0  0  0
   58.7966   27.1329   46.4935 N   0  0  0  0  0  0  0  0  0  0  0  0
   58.6351   26.0679   47.3075 C   0  0  0  0  0  0  0  0  0  0  0  0
   59.5351   25.6735   48.0957 O   0  0  0  0  0  0  0  0  0  0  0  0
   57.4177   25.4939   47.2487 N   0  0  0  0  0  0  0  0  0  0  0  0
   56.7854   26.2421   46.3284 C   0  0  0  0  0  0  0  0  0  0  0  0
   55.4625   26.0484   45.9507 O   0  0  0  0  0  0  0  0  0  0  0  0
 26 27  2  0
 27 28  1  0
 28 29  2  0
 29 34  1  0
 34 35  1  0
 35 36  1  0
 36 37  2  0
 36 38  1  0
 38 39  1  0
 39 40  1  0
 28 30  1  0
 30 31  2  0
 31 32  1  0
 31 33  1  0
 33 25  1  0
 25  1  1  0
  1  2  2  0
  2  3  1  0
  3  8  1  0
  8  9  2  0
  8 10  1  0
 10 11  1  0
 11 12  1  0
 12 13  1  0
 13 14  1  0
 14 15  2  0
 14 19  1  0
 19 20  2  0
 20 21  1  0
 21 22  2  0
 22 23  1  0
 23 24  2  0
 13 16  1  0
 16 17  1  0
  3  4  2  0
  4  5  1  0
  5  6  2  0
  6  7  1  0
 33 27  1  0
  6  1  1  0
 39 34  2  0
 17 10  1  0
 24 19  1  0
 10 18  1  0
M  CHG 1  10   1
M  CHG 1  35  -1
M  CHG 1  38  -1
M  CHG 1  40  -1
M  END
> <UniqueID>
46

> <SMILES>
C=c1/c(=C\c2[n-]c(=O)[n-]c2[O-])cc(C)n1Cc1cc(C(=O)[NH+]2CCN(C(=O)c3ccccc3)CC2)ccc1C

> <Energy>
166.61391161344193

> <Genealogy>
C=c1c(=Cc2[n-]c(=O)[n-]c2[O-])cc(C)n1Cc1cc(C(=O)[NH+]2CCN(C(=O)c3ccccc3)CC2)ccc1C (protonated)
C=c1/c(=C\c2[n-]c(=O)[n-]c2[O-])cc(C)n1Cc1cc(C(=O)[NH+]2CCN(C(=O)c3ccccc3)CC2)ccc1C (cis-trans isomerization)
C=c1/c(=C\c2[n-]c(=O)[n-]c2[O-])cc(C)n1Cc1cc(C(=O)[NH+]2CCN(C(=O)c3ccccc3)CC2)ccc1C (3D coordinates assigned)
C=c1/c(=C\c2[n-]c(=O)[n-]c2[O-])cc(C)n1Cc1cc(C(=O)[NH+]2CCN(C(=O)c3ccccc3)CC2)ccc1C (nonaromatic ring conformer: 166.61391161344193 kcal/mol)

> <smiles>
C=c1c(=Cc2[nH]c(=O)[nH]c2O)cc(C)n1Cc1cc(C(=O)N2CCN(C(=O)c3ccccc3)CC2)ccc1C

> <score_type>
oracle

> <origin>
adg

> <m_score__min__energy>
-18.09

> <m_primary>
energy

> <minimizedAffinity>
-6.80813

> <minimizedRMSD>
1.07255

> <CNNscore>
0.1692012101

> <CNNaffinity>
6.7984547615

> <CNN_VS>
1.1503068209

> <CNNaffinity_variance>
0.1257616878

$$$$
56:0


 30 33  0  0  0  0  0  0  0  0999 V2000
   57.2844   30.7653   52.7719 N   0  0  0  0  0  0  0  0  0  0  0  0
   57.8131   32.0528   53.2386 C   0  0  0  0  0  0  0  0  0  0  0  0
   58.4881   32.7672   52.0693 C   0  0  0  0  0  0  0  0  0  0  0  0
   59.6529   31.9294   51.4820 C   0  0  0  0  0  0  0  0  0  0  0  0
   59.5626   30.4067   51.8129 C   0  0  0  0  0  0  0  0  0  0  0  0
   58.1218   29.8807   51.9489 C   0  0  0  0  0  0  0  0  0  0  0  0
   53.5714   30.4415   52.2526 C   0  0  0  0  0  0  0  0  0  0  0  0
   53.2061   29.7938   53.4485 C   0  0  0  0  0  0  0  0  0  0  0  0
   54.1720   29.4725   54.4044 C   0  0  0  0  0  0  0  0  0  0  0  0
   55.5145   29.7810   54.1803 C   0  0  0  0  0  0  0  0  0  0  0  0
   55.9041   30.4207   52.9907 C   0  0  0  0  0  0  0  0  0  0  0  0
   54.9289   30.7475   52.0340 C   0  0  0  0  0  0  0  0  0  0  0  0
   52.0740   32.1242   51.1087 N   0  0  0  0  0  0  0  0  0  0  0  0
   52.5481   30.7850   51.2369 C   0  0  0  0  0  0  0  0  0  0  0  0
   52.0805   29.8942   50.4774 O   0  0  0  0  0  0  0  0  0  0  0  0
   51.3940   32.3429   50.4311 H   0  0  0  0  0  0  0  0  0  0  0  0
   59.8350   32.2375   50.0375 N   0  0  0  0  0  0  0  0  0  0  0  0
   58.5603   32.3448   49.3076 C   0  0  0  0  0  0  0  0  0  0  0  0
   58.7963   32.4492   47.7838 C   0  0  0  0  0  0  0  0  0  0  0  0
   60.2271   32.5422   47.4165 N   0  0  0  0  0  0  0  0  0  0  0  0
   60.9284   33.5641   48.2237 C   0  0  0  0  0  0  0  0  0  0  0  0
   60.7007   33.4001   49.7454 C   0  0  0  0  0  0  0  0  0  0  0  0
   60.9150   31.2303   47.4123 C   0  0  0  0  0  0  0  0  0  0  0  0
   59.9602   30.1420   46.9986 C   0  0  0  0  0  0  0  0  0  0  0  0
   59.6572   29.0854   47.8758 C   0  0  0  0  0  0  0  0  0  0  0  0
   58.7714   28.0763   47.4841 C   0  0  0  0  0  0  0  0  0  0  0  0
   58.1814   28.1150   46.2159 C   0  0  0  0  0  0  0  0  0  0  0  0
   57.2944   27.1174   45.8301 O   0  0  0  0  0  0  0  0  0  0  0  0
   58.4868   29.1583   45.3335 C   0  0  0  0  0  0  0  0  0  0  0  0
   59.3789   30.1637   45.7192 C   0  0  0  0  0  0  0  0  0  0  0  0
 13 14  1  0
 14 15  2  0
 14  7  1  0
  7  8  2  0
  8  9  1  0
  9 10  2  0
 10 11  1  0
 11  1  1  0
  1  2  1  0
  2  3  1  0
  3  4  1  0
  4 17  1  0
 17 18  1  0
 18 19  1  0
 19 20  1  0
 20 23  1  0
 23 24  1  0
 24 25  2  0
 25 26  1  0
 26 27  2  0
 27 28  1  0
 27 29  1  0
 29 30  2  0
 20 21  1  0
 21 22  1  0
  4  5  1  0
  5  6  1  0
 11 12  2  0
 12  7  1  0
  6  1  1  0
 22 17  1  0
 30 24  1  0
 13 16  1  0
M  CHG 1  13  -1
M  CHG 1  28  -1
M  END
> <UniqueID>
55

> <SMILES>
[NH-]C(=O)c1cccc(N2CCC(N3CCN(Cc4ccc([O-])cc4)CC3)CC2)c1

> <Energy>
84.70087919009318

> <Genealogy>
[NH-]C(=O)c1cccc(N2CCC(N3CCN(Cc4ccc([O-])cc4)CC3)CC2)c1 (protonated)
[NH-]C(=O)c1cccc(N2CCC(N3CCN(Cc4ccc([O-])cc4)CC3)CC2)c1 (3D coordinates assigned)
[NH-]C(=O)c1cccc(N2CCC(N3CCN(Cc4ccc([O-])cc4)CC3)CC2)c1 (nonaromatic ring conformer: 84.70087919009318 kcal/mol)

> <smiles>
NC(=O)c1cccc(N2CCC(N3CCN(Cc4ccc(O)cc4)CC3)CC2)c1

> <score_type>
oracle

> <origin>
adg

> <m_score__min__energy>
-16.23

> <m_primary>
energy

> <minimizedAffinity>
-7.72087

> <minimizedRMSD>
1.11614

> <CNNscore>
0.1030975580

> <CNNaffinity>
4.9295611382

> <CNN_VS>
0.5082257390

> <CNNaffinity_variance>
0.8015491366

$$$$
59:0


 27 29  0  0  0  0  0  0  0  0999 V2000
   56.4647   29.2708   44.3332 C   0  0  0  0  0  0  0  0  0  0  0  0
   57.4325   28.9725   45.2014 C   0  0  0  0  0  0  0  0  0  0  0  0
   57.8973   29.8646   46.0476 O   0  0  0  0  0  0  0  0  0  0  0  0
   58.7492   29.2840   46.8618 C   0  0  0  0  0  0  0  0  0  0  0  0
   58.8603   27.9412   46.5463 C   0  0  0  0  0  0  0  0  0  0  0  0
   58.0464   27.7365   45.4465 C   0  0  0  0  0  0  0  0  0  0  0  0
   57.9469   26.5523   44.8124 C   0  0  0  0  0  0  0  0  0  0  0  0
   57.4319   25.3059   45.4006 C   0  0  0  0  0  0  0  0  0  0  0  0
   58.1531   24.1815   45.5669 N   0  0  0  0  0  0  0  0  0  0  0  0
   57.3236   23.3798   46.2675 C   0  0  0  0  0  0  0  0  0  0  0  0
   57.6392   22.2107   46.6109 O   0  0  0  0  0  0  0  0  0  0  0  0
   56.1324   23.9337   46.5830 N   0  0  0  0  0  0  0  0  0  0  0  0
   56.2252   25.1569   46.0395 C   0  0  0  0  0  0  0  0  0  0  0  0
   55.2307   26.1215   46.1313 O   0  0  0  0  0  0  0  0  0  0  0  0
   59.4469   29.9978   47.9430 C   0  0  0  0  0  0  0  0  0  0  0  0
   59.0806   29.8024   49.1337 O   0  0  0  0  0  0  0  0  0  0  0  0
   60.5215   30.9085   47.6640 N   0  0  0  0  0  0  0  0  0  0  0  0
   60.7161   31.1391   46.7269 H   0  0  0  0  0  0  0  0  0  0  0  0
   61.3370   31.5059   48.7196 C   0  0  0  0  0  0  0  0  0  0  0  0
   60.6434   32.7307   49.3304 C   0  0  0  0  0  0  0  0  0  0  0  0
   60.7894   33.9722   48.4426 C   0  0  0  0  0  0  0  0  0  0  0  0
   59.7761   33.9458   47.3291 C   0  0  0  0  0  0  0  0  0  0  0  0
   60.1298   34.3771   46.0391 C   0  0  0  0  0  0  0  0  0  0  0  0
   59.1970   34.3207   44.9978 C   0  0  0  0  0  0  0  0  0  0  0  0
   57.9123   33.8260   45.2357 C   0  0  0  0  0  0  0  0  0  0  0  0
   57.5586   33.3824   46.5121 C   0  0  0  0  0  0  0  0  0  0  0  0
   58.4871   33.4370   47.5556 C   0  0  0  0  0  0  0  0  0  0  0  0
  1  2  2  0
  2  3  1  0
  3  4  1  0
  4 15  1  0
 15 16  2  0
 15 17  1  0
 17 19  1  0
 19 20  1  0
 20 21  1  0
 21 22  1  0
 22 23  2  0
 23 24  1  0
 24 25  2  0
 25 26  1  0
 26 27  2  0
  4  5  2  0
  5  6  1  0
  6  7  2  0
  7  8  1  0
  8  9  1  0
  9 10  1  0
 10 11  2  0
 10 12  1  0
 12 13  1  0
 13 14  1  0
  6  2  1  0
 13  8  2  0
 27 22  1  0
 17 18  1  0
M  CHG 1   9  -1
M  CHG 1  12  -1
M  CHG 1  14  -1
M  END
> <UniqueID>
58

> <SMILES>
C=c1oc(C(=O)NCCCc2ccccc2)c/c1=C/c1[n-]c(=O)[n-]c1[O-]

> <Energy>
104.34159535806647

> <Genealogy>
C=c1oc(C(=O)NCCCc2ccccc2)cc1=Cc1[n-]c(=O)[n-]c1[O-] (protonated)
C=c1oc(C(=O)NCCCc2ccccc2)c/c1=C/c1[n-]c(=O)[n-]c1[O-] (cis-trans isomerization)
C=c1oc(C(=O)NCCCc2ccccc2)c/c1=C/c1[n-]c(=O)[n-]c1[O-] (3D coordinates assigned)
C=c1oc(C(=O)NCCCc2ccccc2)c/c1=C/c1[n-]c(=O)[n-]c1[O-] (optimized conformer: 104.34159535806647 kcal/mol)

> <smiles>
C=c1oc(C(=O)NCCCc2ccccc2)cc1=Cc1[nH]c(=O)[nH]c1O

> <score_type>
oracle

> <origin>
adg

> <m_score__min__energy>
-18.260000000000002

> <m_primary>
energy

> <minimizedAffinity>
-8.10154

> <minimizedRMSD>
0.91401

> <CNNscore>
0.4691191912

> <CNNaffinity>
6.6038436890

> <CNN_VS>
3.0979897976

> <CNNaffinity_variance>
0.0203632489

$$$$
83:0


 34 38  0  0  0  0  0  0  0  0999 V2000
   60.0813   32.6595   48.4463 C   0  0  0  0  0  0  0  0  0  0  0  0
   61.2665   32.6839   47.6941 C   0  0  0  0  0  0  0  0  0  0  0  0
   62.4967   32.9092   48.3191 C   0  0  0  0  0  0  0  0  0  0  0  0
   62.5631   33.1054   49.7066 C   0  0  0  0  0  0  0  0  0  0  0  0
   61.3782   33.0863   50.4577 C   0  0  0  0  0  0  0  0  0  0  0  0
   60.1479   32.8676   49.8330 C   0  0  0  0  0  0  0  0  0  0  0  0
   63.8276   33.3617   50.3491 N   0  0  0  0  0  0  0  0  0  0  0  0
   63.8700   34.0813   51.6289 C   0  0  0  0  0  0  0  0  0  0  0  0
   65.1823   33.7938   52.3662 C   0  0  0  0  0  0  0  0  0  0  0  0
   65.5411   32.3749   52.1651 N   0  0  0  0  0  0  0  0  0  0  0  0
   65.9130   32.0925   50.7570 C   0  0  0  0  0  0  0  0  0  0  0  0
   65.0892   32.9138   49.7458 C   0  0  0  0  0  0  0  0  0  0  0  0
   66.5358   31.8307   53.1252 C   0  0  0  0  0  0  0  0  0  0  0  0
   67.9713   32.1865   52.6856 C   0  0  0  0  0  0  0  0  0  0  0  0
   69.0059   31.2621   53.3546 C   0  0  0  0  0  0  0  0  0  0  0  0
   68.5263   30.7911   54.5983 O   0  0  0  0  0  0  0  0  0  0  0  0
   67.4792   29.8498   54.4037 C   0  0  0  0  0  0  0  0  0  0  0  0
   66.4146   30.3103   53.3791 C   0  0  0  0  0  0  0  0  0  0  0  0
   58.7531   32.4367   47.7734 C   0  0  0  0  0  0  0  0  0  0  0  0
   59.3446   29.5210   48.3367 C   0  0  0  0  0  0  0  0  0  0  0  0
   59.1630   30.0110   47.0998 C   0  0  0  0  0  0  0  0  0  0  0  0
   59.1274   29.2667   45.9093 C   0  0  0  0  0  0  0  0  0  0  0  0
   59.4905   27.9959   45.6479 C   0  0  0  0  0  0  0  0  0  0  0  0
   58.6518   30.1217   44.9317 C   0  0  0  0  0  0  0  0  0  0  0  0
   58.5029   31.3596   45.5208 C   0  0  0  0  0  0  0  0  0  0  0  0
   57.9944   32.5752   44.8046 C   0  0  0  0  0  0  0  0  0  0  0  0
   58.8181   31.3025   46.8377 N   0  0  0  0  0  0  0  0  0  0  0  0
   58.6567   26.8019   45.8702 C   0  0  0  0  0  0  0  0  0  0  0  0
   59.1331   25.5555   46.0456 N   0  0  0  0  0  0  0  0  0  0  0  0
   58.0185   24.7932   46.0555 C   0  0  0  0  0  0  0  0  0  0  0  0
   58.0514   23.5469   46.2179 O   0  0  0  0  0  0  0  0  0  0  0  0
   56.8675   25.4717   45.8671 N   0  0  0  0  0  0  0  0  0  0  0  0
   57.2920   26.7385   45.7371 C   0  0  0  0  0  0  0  0  0  0  0  0
   56.4482   27.8171   45.4960 O   0  0  0  0  0  0  0  0  0  0  0  0
 20 21  2  0
 21 22  1  0
 22 23  2  0
 23 28  1  0
 28 29  1  0
 29 30  1  0
 30 31  2  0
 30 32  1  0
 32 33  1  0
 33 34  1  0
 22 24  1  0
 24 25  2  0
 25 26  1  0
 25 27  1  0
 27 19  1  0
 19  1  1  0
  1  2  2  0
  2  3  1  0
  3  4  2  0
  4  7  1  0
  7  8  1  0
  8  9  1  0
  9 10  1  0
 10 13  1  0
 13 14  1  0
 14 15  1  0
 15 16  1  0
 16 17  1  0
 17 18  1  0
 10 11  1  0
 11 12  1  0
  4  5  1  0
  5  6  2  0
 27 21  1  0
  6  1  1  0
 33 28  2  0
 12  7  1  0
 18 13  1  0
M  CHG 1  29  -1
M  CHG 1  32  -1
M  CHG 1  34  -1
M  END
> <UniqueID>
81

> <SMILES>
C=c1/c(=C\c2[n-]c(=O)[n-]c2[O-])cc(C)n1Cc1ccc(N2CCN(C3CCOCC3)CC2)cc1

> <Energy>
157.55964171078813

> <Genealogy>
C=c1c(=Cc2[n-]c(=O)[n-]c2[O-])cc(C)n1Cc1ccc(N2CCN(C3CCOCC3)CC2)cc1 (protonated)
C=c1/c(=C\c2[n-]c(=O)[n-]c2[O-])cc(C)n1Cc1ccc(N2CCN(C3CCOCC3)CC2)cc1 (cis-trans isomerization)
C=c1/c(=C\c2[n-]c(=O)[n-]c2[O-])cc(C)n1Cc1ccc(N2CCN(C3CCOCC3)CC2)cc1 (3D coordinates assigned)
C=c1/c(=C\c2[n-]c(=O)[n-]c2[O-])cc(C)n1Cc1ccc(N2CCN(C3CCOCC3)CC2)cc1 (nonaromatic ring conformer: 157.55964171078813 kcal/mol)

> <smiles>
C=c1c(=Cc2[nH]c(=O)[nH]c2O)cc(C)n1Cc1ccc(N2CCN(C3CCOCC3)CC2)cc1

> <score_type>
oracle

> <origin>
adg

> <m_score__min__energy>
-17.120000000000001

> <m_primary>
energy

> <minimizedAffinity>
-7.71842

> <minimizedRMSD>
2.39604

> <CNNscore>
0.3213938177

> <CNNaffinity>
7.0213637352

> <CNN_VS>
2.2566227913

> <CNNaffinity_variance>
0.1966124177

$$$$
5:0


 30 33  0  0  0  0  0  0  0  0999 V2000
   59.9709   27.2743   46.6448 C   0  0  0  0  0  0  0  0  0  0  0  0
   58.9382   27.9354   46.0977 C   0  0  0  0  0  0  0  0  0  0  0  0
   58.1183   27.4896   45.0486 C   0  0  0  0  0  0  0  0  0  0  0  0
   57.9877   26.2750   44.4816 C   0  0  0  0  0  0  0  0  0  0  0  0
   57.3697   28.5835   44.6519 C   0  0  0  0  0  0  0  0  0  0  0  0
   57.6998   29.6253   45.4947 C   0  0  0  0  0  0  0  0  0  0  0  0
   58.6338   29.2295   46.3918 N   0  0  0  0  0  0  0  0  0  0  0  0
   57.5173   25.0577   45.1627 C   0  0  0  0  0  0  0  0  0  0  0  0
   58.2218   23.9153   45.2702 N   0  0  0  0  0  0  0  0  0  0  0  0
   57.4515   23.1490   46.0702 C   0  0  0  0  0  0  0  0  0  0  0  0
   57.7709   21.9758   46.3970 O   0  0  0  0  0  0  0  0  0  0  0  0
   56.3162   23.7392   46.5015 N   0  0  0  0  0  0  0  0  0  0  0  0
   56.3831   24.9525   45.9283 C   0  0  0  0  0  0  0  0  0  0  0  0
   55.4273   25.9455   46.1094 O   0  0  0  0  0  0  0  0  0  0  0  0
   57.0588   30.9839   45.4438 C   0  0  0  0  0  0  0  0  0  0  0  0
   57.9359   31.9635   44.7218 C   0  0  0  0  0  0  0  0  0  0  0  0
   58.2131   31.7865   43.5045 O   0  0  0  0  0  0  0  0  0  0  0  0
   58.4894   33.0809   45.4127 N   0  0  0  0  0  0  0  0  0  0  0  0
   58.5403   33.6009   46.7919 C   0  0  0  0  0  0  0  0  0  0  0  0
   59.3599   34.8085   46.4759 C   0  0  0  0  0  0  0  0  0  0  0  0
   59.2981   34.2674   45.0846 C   0  0  0  0  0  0  0  0  0  0  0  0
   59.2612   30.0809   47.4144 C   0  0  0  0  0  0  0  0  0  0  0  0
   60.6254   30.5903   46.9331 C   0  0  0  0  0  0  0  0  0  0  0  0
   61.3762   31.2126   48.0433 N   0  0  0  0  0  0  0  0  0  0  0  0
   62.1104   32.4013   47.5800 C   0  0  0  0  0  0  0  0  0  0  0  0
   63.0739   32.8896   48.6798 C   0  0  0  0  0  0  0  0  0  0  0  0
   62.6029   32.5877   50.0524 N   0  0  0  0  0  0  0  0  0  0  0  0
   63.2004   31.3513   50.5892 C   0  0  0  0  0  0  0  0  0  0  0  0
   61.1306   32.5764   50.1457 C   0  0  0  0  0  0  0  0  0  0  0  0
   60.4840   31.5649   49.1734 C   0  0  0  0  0  0  0  0  0  0  0  0
  1  2  2  0
  2  3  1  0
  3  4  2  0
  4  8  1  0
  8  9  1  0
  9 10  1  0
 10 11  2  0
 10 12  1  0
 12 13  1  0
 13 14  1  0
  3  5  1  0
  5  6  2  0
  6 15  1  0
 15 16  1  0
 16 17  2  0
 16 18  1  0
 18 19  1  0
 19 20  1  0
 20 21  1  0
  6  7  1  0
  7 22  1  0
 22 23  1  0
 23 24  1  0
 24 25  1  0
 25 26  1  0
 26 27  1  0
 27 28  1  0
 27 29  1  0
 29 30  1  0
  7  2  1  0
 30 24  1  0
 13  8  2  0
 21 18  1  0
M  CHG 1   9  -1
M  CHG 1  12  -1
M  CHG 1  14  -1
M  END
> <UniqueID>
6

> <SMILES>
C=c1/c(=C\c2[n-]c(=O)[n-]c2[O-])cc(CC(=O)N2CCC2)n1CCN1CCN(C)CC1

> <Energy>
176.15555437144343

> <Genealogy>
C=c1c(=Cc2[n-]c(=O)[n-]c2[O-])cc(CC(=O)N2CCC2)n1CCN1CCN(C)CC1 (protonated)
C=c1/c(=C\c2[n-]c(=O)[n-]c2[O-])cc(CC(=O)N2CCC2)n1CCN1CCN(C)CC1 (cis-trans isomerization)
C=c1/c(=C\c2[n-]c(=O)[n-]c2[O-])cc(CC(=O)N2CCC2)n1CCN1CCN(C)CC1 (3D coordinates assigned)
C=c1/c(=C\c2[n-]c(=O)[n-]c2[O-])cc(CC(=O)N2CCC2)n1CCN1CCN(C)CC1 (nonaromatic ring conformer: 176.15555437144343 kcal/mol)

> <smiles>
C=c1c(=Cc2[nH]c(=O)[nH]c2O)cc(CC(=O)N2CCC2)n1CCN1CCN(C)CC1

> <score_type>
oracle

> <origin>
adg

> <m_score__min__energy>
-16.280000000000001

> <m_primary>
energy

> <minimizedAffinity>
-7.79720

> <minimizedRMSD>
1.09843

> <CNNscore>
0.1689843386

> <CNNaffinity>
6.4904503822

> <CNN_VS>
1.0967844725

> <CNNaffinity_variance>
0.1914556623

$$$$
21:0


 29 31  0  0  0  0  0  0  0  0999 V2000
   59.7143   29.1262   48.7219 C   0  0  0  0  0  0  0  0  0  0  0  0
   59.5064   30.1540   47.8819 C   0  0  0  0  0  0  0  0  0  0  0  0
   59.5196   30.1109   46.4763 C   0  0  0  0  0  0  0  0  0  0  0  0
   59.5781   29.0737   45.6178 C   0  0  0  0  0  0  0  0  0  0  0  0
   59.4448   31.4249   46.0500 C   0  0  0  0  0  0  0  0  0  0  0  0
   59.3386   32.2095   47.1773 C   0  0  0  0  0  0  0  0  0  0  0  0
   59.2454   33.7056   47.1590 C   0  0  0  0  0  0  0  0  0  0  0  0
   59.3613   31.4442   48.2939 N   0  0  0  0  0  0  0  0  0  0  0  0
   58.8721   27.7865   45.7728 C   0  0  0  0  0  0  0  0  0  0  0  0
   57.4887   27.7088   45.5608 C   0  0  0  0  0  0  0  0  0  0  0  0
   56.7715   28.8280   45.1513 O   0  0  0  0  0  0  0  0  0  0  0  0
   56.8377   26.5309   45.7458 N   0  0  0  0  0  0  0  0  0  0  0  0
   57.5032   25.4196   46.1517 C   0  0  0  0  0  0  0  0  0  0  0  0
   56.8816   24.3375   46.3132 O   0  0  0  0  0  0  0  0  0  0  0  0
   58.8388   25.4744   46.3900 N   0  0  0  0  0  0  0  0  0  0  0  0
   59.5350   26.6298   46.2207 C   0  0  0  0  0  0  0  0  0  0  0  0
   60.7697   26.6501   46.4720 O   0  0  0  0  0  0  0  0  0  0  0  0
   59.3543   31.9493   49.6742 C   0  0  0  0  0  0  0  0  0  0  0  0
   60.7406   32.3404   50.0878 C   0  0  0  0  0  0  0  0  0  0  0  0
   60.8974   33.2365   50.9621 O   0  0  0  0  0  0  0  0  0  0  0  0
   61.8799   31.6949   49.4998 N   0  0  0  0  0  0  0  0  0  0  0  0
   61.7494   31.1820   48.6696 H   0  0  0  0  0  0  0  0  0  0  0  0
   63.2001   31.7592   50.0604 C   0  0  0  0  0  0  0  0  0  0  0  0
   63.5420   30.8929   51.1102 C   0  0  0  0  0  0  0  0  0  0  0  0
   64.8150   30.9459   51.6842 C   0  0  0  0  0  0  0  0  0  0  0  0
   65.7512   31.8766   51.2277 C   0  0  0  0  0  0  0  0  0  0  0  0
   65.4125   32.7616   50.2015 C   0  0  0  0  0  0  0  0  0  0  0  0
   64.1395   32.7128   49.6211 C   0  0  0  0  0  0  0  0  0  0  0  0
   63.8145   33.6252   48.6711 F   0  0  0  0  0  0  0  0  0  0  0  0
  1  2  2  0
  2  3  1  0
  3  4  2  0
  4  9  1  0
  9 10  2  0
 10 11  1  0
 10 12  1  0
 12 13  1  0
 13 14  2  0
 13 15  1  0
 15 16  1  0
 16 17  2  0
  3  5  1  0
  5  6  2  0
  6  7  1  0
  6  8  1  0
  8 18  1  0
 18 19  1  0
 19 20  2  0
 19 21  1  0
 21 23  1  0
 23 24  2  0
 24 25  1  0
 25 26  2  0
 26 27  1  0
 27 28  2  0
 28 29  1  0
  8  2  1  0
 28 23  1  0
 16  9  1  0
 21 22  1  0
M  CHG 1  11  -1
M  CHG 1  12  -1
M  CHG 1  15  -1
M  END
> <UniqueID>
22

> <SMILES>
C=c1c(=Cc2c([O-])[n-]c(=O)[n-]c2=O)cc(C)n1CC(=O)Nc1ccccc1F

> <Energy>
90.32845916783201

> <Genealogy>
C=c1c(=Cc2c([O-])[n-]c(=O)[n-]c2=O)cc(C)n1CC(=O)Nc1ccccc1F (protonated)
C=c1c(=Cc2c([O-])[n-]c(=O)[n-]c2=O)cc(C)n1CC(=O)Nc1ccccc1F (3D coordinates assigned)
C=c1c(=Cc2c([O-])[n-]c(=O)[n-]c2=O)cc(C)n1CC(=O)Nc1ccccc1F (optimized conformer: 90.32845916783201 kcal/mol)

> <smiles>
C=c1c(=Cc2c(O)[nH]c(=O)[nH]c2=O)cc(C)n1CC(=O)Nc1ccccc1F

> <score_type>
oracle

> <origin>
adg

> <m_score__min__energy>
-15.5

> <m_primary>
energy

> <minimizedAffinity>
-7.71138

> <minimizedRMSD>
2.33868

> <CNNscore>
0.4018903375

> <CNNaffinity>
7.1445145607

> <CNN_VS>
2.8713114262

> <CNNaffinity_variance>
0.6306343079

$$$$
29:0


 29 32  0  0  0  0  0  0  0  0999 V2000
   58.7593   28.9718   45.4373 C   0  0  0  0  0  0  0  0  0  0  0  0
   57.8394   28.8821   44.3841 C   0  0  0  0  0  0  0  0  0  0  0  0
   57.1267   30.0117   43.9732 C   0  0  0  0  0  0  0  0  0  0  0  0
   57.3385   31.2409   44.6026 C   0  0  0  0  0  0  0  0  0  0  0  0
   58.2784   31.3564   45.6394 C   0  0  0  0  0  0  0  0  0  0  0  0
   58.9893   30.2149   46.0478 C   0  0  0  0  0  0  0  0  0  0  0  0
   58.4920   32.6210   46.2995 N   0  0  0  0  0  0  0  0  0  0  0  0
   58.0004   32.8512   47.6635 C   0  0  0  0  0  0  0  0  0  0  0  0
   59.1779   33.1763   48.5851 C   0  0  0  0  0  0  0  0  0  0  0  0
   60.1082   34.2776   48.0029 C   0  0  0  0  0  0  0  0  0  0  0  0
   59.6936   34.7853   46.6017 C   0  0  0  0  0  0  0  0  0  0  0  0
   59.2937   33.6591   45.6350 C   0  0  0  0  0  0  0  0  0  0  0  0
   61.5190   33.8609   48.0167 N   0  0  0  0  0  0  0  0  0  0  0  0
   62.2421   33.3908   46.8427 C   0  0  0  0  0  0  0  0  0  0  0  0
   63.6642   33.0387   47.3372 C   0  0  0  0  0  0  0  0  0  0  0  0
   63.6966   33.3426   48.7627 N   0  0  0  0  0  0  0  0  0  0  0  0
   62.4191   33.8232   49.1100 C   0  0  0  0  0  0  0  0  0  0  0  0
   62.1330   34.2134   50.2719 O   0  0  0  0  0  0  0  0  0  0  0  0
   60.6684   27.5852   45.4207 O   0  0  0  0  0  0  0  0  0  0  0  0
   59.5060   27.7731   45.8657 C   0  0  0  0  0  0  0  0  0  0  0  0
   58.9372   26.7932   46.7441 N   0  0  0  0  0  0  0  0  0  0  0  0
   57.5186   26.4561   46.8078 C   0  0  0  0  0  0  0  0  0  0  0  0
   57.2796   25.1753   46.0564 C   0  0  0  0  0  0  0  0  0  0  0  0
   58.3581   24.3276   45.7539 C   0  0  0  0  0  0  0  0  0  0  0  0
   58.1405   23.1207   45.0804 C   0  0  0  0  0  0  0  0  0  0  0  0
   56.8465   22.7477   44.7125 C   0  0  0  0  0  0  0  0  0  0  0  0
   55.7654   23.5762   45.0220 C   0  0  0  0  0  0  0  0  0  0  0  0
   55.9738   24.7844   45.6963 C   0  0  0  0  0  0  0  0  0  0  0  0
   54.8827   25.5880   46.0069 O   0  0  0  0  0  0  0  0  0  0  0  0
 19 20  2  0
 20 21  1  0
 21 22  1  0
 22 23  1  0
 23 24  2  0
 24 25  1  0
 25 26  2  0
 26 27  1  0
 27 28  2  0
 28 29  1  0
 20  1  1  0
  1  2  2  0
  2  3  1  0
  3  4  2  0
  4  5  1  0
  5  7  1  0
  7  8  1  0
  8  9  1  0
  9 10  1  0
 10 13  1  0
 13 14  1  0
 14 15  1  0
 15 16  1  0
 16 17  1  0
 17 18  2  0
 10 11  1  0
 11 12  1  0
  5  6  2  0
 28 23  1  0
  6  1  1  0
 12  7  1  0
 17 13  1  0
M  CHG 1  16  -1
M  CHG 1  21  -1
M  CHG 1  29  -1
M  END
> <UniqueID>
30

> <SMILES>
O=C([N-]Cc1ccccc1[O-])c1cccc(N2CCC(N3CC[N-]C3=O)CC2)c1

> <Energy>
78.21062140735856

> <Genealogy>
O=C([N-]Cc1ccccc1[O-])c1cccc(N2CCC(N3CC[N-]C3=O)CC2)c1 (protonated)
O=C([N-]Cc1ccccc1[O-])c1cccc(N2CCC(N3CC[N-]C3=O)CC2)c1 (3D coordinates assigned)
O=C([N-]Cc1ccccc1[O-])c1cccc(N2CCC(N3CC[N-]C3=O)CC2)c1 (nonaromatic ring conformer: 78.21062140735856 kcal/mol)

> <smiles>
O=C(NCc1ccccc1O)c1cccc(N2CCC(N3CCNC3=O)CC2)c1

> <score_type>
oracle

> <origin>
adg

> <m_score__min__energy>
-16.829999999999998

> <m_primary>
energy

> <minimizedAffinity>
-8.17600

> <minimizedRMSD>
0.79129

> <CNNscore>
0.2186410129

> <CNNaffinity>
5.9414291382

> <CNN_VS>
1.2990400791

> <CNNaffinity_variance>
0.4913515151

$$$$
31:0


 35 38  0  0  0  0  0  0  0  0999 V2000
   59.3337   31.4090   46.8426 C   0  0  0  0  0  0  0  0  0  0  0  0
   60.3338   30.4335   46.9584 C   0  0  0  0  0  0  0  0  0  0  0  0
   61.6320   30.7875   47.3393 C   0  0  0  0  0  0  0  0  0  0  0  0
   61.9537   32.1282   47.6201 C   0  0  0  0  0  0  0  0  0  0  0  0
   60.9476   33.1032   47.4903 C   0  0  0  0  0  0  0  0  0  0  0  0
   59.6534   32.7482   47.1064 C   0  0  0  0  0  0  0  0  0  0  0  0
   63.3289   32.5420   48.0098 C   0  0  0  0  0  0  0  0  0  0  0  0
   64.0068   33.2350   47.1979 O   0  0  0  0  0  0  0  0  0  0  0  0
   63.9272   32.1496   49.2744 N   0  0  0  0  0  0  0  0  0  0  0  0
   62.8732   31.9057   50.3065 C   0  0  0  0  0  0  0  0  0  0  0  0
   62.8854   32.9066   51.4305 C   0  0  0  0  0  0  0  0  0  0  0  0
   61.7962   33.2994   51.9284 O   0  0  0  0  0  0  0  0  0  0  0  0
   64.1499   33.3607   51.9502 N   0  0  0  0  0  0  0  0  0  0  0  0
   64.2677   33.9279   53.2773 C   0  0  0  0  0  0  0  0  0  0  0  0
   64.6534   35.1199   53.4270 O   0  0  0  0  0  0  0  0  0  0  0  0
   63.9441   33.1280   54.5055 C   0  0  0  0  0  0  0  0  0  0  0  0
   65.3335   33.0779   51.1305 C   0  0  0  0  0  0  0  0  0  0  0  0
   64.9600   33.1515   49.6450 C   0  0  0  0  0  0  0  0  0  0  0  0
   64.5847   32.7697   48.8841 H   0  0  0  0  0  0  0  0  0  0  0  0
   57.9374   31.0287   46.4190 C   0  0  0  0  0  0  0  0  0  0  0  0
   58.1384   28.1487   47.3359 C   0  0  0  0  0  0  0  0  0  0  0  0
   58.1023   28.5106   46.0422 C   0  0  0  0  0  0  0  0  0  0  0  0
   58.0505   27.6426   44.9398 C   0  0  0  0  0  0  0  0  0  0  0  0
   58.2575   26.3149   44.8475 C   0  0  0  0  0  0  0  0  0  0  0  0
   57.7580   28.4290   43.8396 C   0  0  0  0  0  0  0  0  0  0  0  0
   57.7328   29.7355   44.2787 C   0  0  0  0  0  0  0  0  0  0  0  0
   57.4440   30.9140   43.3965 C   0  0  0  0  0  0  0  0  0  0  0  0
   57.9465   29.7946   45.6155 N   0  0  0  0  0  0  0  0  0  0  0  0
   57.6408   25.2903   45.7086 C   0  0  0  0  0  0  0  0  0  0  0  0
   58.1983   24.1009   46.0078 N   0  0  0  0  0  0  0  0  0  0  0  0
   57.2201   23.4591   46.6812 C   0  0  0  0  0  0  0  0  0  0  0  0
   57.3684   22.2992   47.1475 O   0  0  0  0  0  0  0  0  0  0  0  0
   56.0687   24.1505   46.8041 N   0  0  0  0  0  0  0  0  0  0  0  0
   56.3484   25.3014   46.1709 C   0  0  0  0  0  0  0  0  0  0  0  0
   55.4361   26.3377   46.0127 O   0  0  0  0  0  0  0  0  0  0  0  0
 21 22  2  0
 22 23  1  0
 23 24  2  0
 24 29  1  0
 29 30  1  0
 30 31  1  0
 31 32  2  0
 31 33  1  0
 33 34  1  0
 34 35  1  0
 23 25  1  0
 25 26  2  0
 26 27  1  0
 26 28  1  0
 28 20  1  0
 20  1  1  0
  1  2  2  0
  2  3  1  0
  3  4  2  0
  4  7  1  0
  7  8  2  0
  9  7  1  0
  9 10  1  0
 10 11  1  0
 11 12  2  0
 11 13  1  0
 13 14  1  0
 14 15  2  0
 14 16  1  0
 13 17  1  0
 17 18  1  0
  4  5  1  0
  5  6  2  0
 28 22  1  0
  6  1  1  0
 34 29  2  0
 18  9  1  0
  9 19  1  0
M  CHG 1   9   1
M  CHG 1  30  -1
M  CHG 1  33  -1
M  CHG 1  35  -1
M  END
> <UniqueID>
32

> <SMILES>
C=c1/c(=C\c2[n-]c(=O)[n-]c2[O-])cc(C)n1Cc1ccc(C(=O)[N@H+]2CCN(C(C)=O)C(=O)C2)cc1

> <Energy>
144.14462076134302

> <Genealogy>
C=c1c(=Cc2[n-]c(=O)[n-]c2[O-])cc(C)n1Cc1ccc(C(=O)[NH+]2CCN(C(C)=O)C(=O)C2)cc1 (protonated)
C=c1c(=Cc2[n-]c(=O)[n-]c2[O-])cc(C)n1Cc1ccc(C(=O)[N@H+]2CCN(C(C)=O)C(=O)C2)cc1 (chirality)
C=c1/c(=C\c2[n-]c(=O)[n-]c2[O-])cc(C)n1Cc1ccc(C(=O)[N@H+]2CCN(C(C)=O)C(=O)C2)cc1 (cis-trans isomerization)
C=c1/c(=C\c2[n-]c(=O)[n-]c2[O-])cc(C)n1Cc1ccc(C(=O)[N@H+]2CCN(C(C)=O)C(=O)C2)cc1 (3D coordinates assigned)
C=c1/c(=C\c2[n-]c(=O)[n-]c2[O-])cc(C)n1Cc1ccc(C(=O)[N@H+]2CCN(C(C)=O)C(=O)C2)cc1 (nonaromatic ring conformer: 144.14462076134302 kcal/mol)

> <smiles>
C=c1c(=Cc2[nH]c(=O)[nH]c2O)cc(C)n1Cc1ccc(C(=O)N2CCN(C(C)=O)C(=O)C2)cc1

> <score_type>
oracle

> <origin>
adg

> <m_score__min__energy>
-16.73

> <m_primary>
energy

> <minimizedAffinity>
-7.48910

> <minimizedRMSD>
0.86111

> <CNNscore>
0.1327922642

> <CNNaffinity>
6.5580997467

> <CNN_VS>
0.8708649278

> <CNNaffinity_variance>
0.1816854626

$$$$
38:0


 40 44  0  0  0  0  0  0  0  0999 V2000
   58.9905   28.3773   53.9443 C   0  0  0  0  0  0  0  0  0  0  0  0
   59.3969   27.0767   54.2844 C   0  0  0  0  0  0  0  0  0  0  0  0
   60.3619   26.4193   53.5199 C   0  0  0  0  0  0  0  0  0  0  0  0
   60.9286   27.0470   52.4093 C   0  0  0  0  0  0  0  0  0  0  0  0
   60.5341   28.3487   52.0495 C   0  0  0  0  0  0  0  0  0  0  0  0
   59.5423   28.9954   52.8091 C   0  0  0  0  0  0  0  0  0  0  0  0
   61.1691   29.0379   50.9043 C   0  0  0  0  0  0  0  0  0  0  0  0
   62.2297   29.6948   51.0800 O   0  0  0  0  0  0  0  0  0  0  0  0
   60.6148   28.9340   49.5825 N   0  0  0  0  0  0  0  0  0  0  0  0
   60.5889   30.1153   48.7121 C   0  0  0  0  0  0  0  0  0  0  0  0
   59.3559   30.0701   47.8063 C   0  0  0  0  0  0  0  0  0  0  0  0
   59.2556   28.7471   47.1785 N   0  0  0  0  0  0  0  0  0  0  0  0
   59.3670   28.5935   45.7544 C   0  0  0  0  0  0  0  0  0  0  0  0
   60.1872   27.7562   45.2878 O   0  0  0  0  0  0  0  0  0  0  0  0
   59.2546   27.5737   48.0556 C   0  0  0  0  0  0  0  0  0  0  0  0
   60.4858   27.6079   48.9591 C   0  0  0  0  0  0  0  0  0  0  0  0
   58.5179   29.3826   44.8261 C   0  0  0  0  0  0  0  0  0  0  0  0
   58.6334   30.7786   44.7537 C   0  0  0  0  0  0  0  0  0  0  0  0
   57.8052   31.5066   43.8981 C   0  0  0  0  0  0  0  0  0  0  0  0
   56.8556   30.8344   43.1291 C   0  0  0  0  0  0  0  0  0  0  0  0
   56.7452   29.4824   43.2109 N   0  0  0  0  0  0  0  0  0  0  0  0
   57.5469   28.7506   44.0312 C   0  0  0  0  0  0  0  0  0  0  0  0
   56.0691   29.0214   42.6635 H   0  0  0  0  0  0  0  0  0  0  0  0
   57.9653   29.0981   54.7864 C   0  0  0  0  0  0  0  0  0  0  0  0
   55.2985   27.9528   53.8947 C   0  0  0  0  0  0  0  0  0  0  0  0
   55.7402   29.1735   53.5446 C   0  0  0  0  0  0  0  0  0  0  0  0
   55.0750   30.0683   52.6990 C   0  0  0  0  0  0  0  0  0  0  0  0
   53.8540   29.9207   52.1472 C   0  0  0  0  0  0  0  0  0  0  0  0
   55.8963   31.1768   52.5800 C   0  0  0  0  0  0  0  0  0  0  0  0
   57.0223   30.9203   53.3339 C   0  0  0  0  0  0  0  0  0  0  0  0
   56.9282   29.7101   53.9378 N   0  0  0  0  0  0  0  0  0  0  0  0
   52.6028   30.3562   52.7916 C   0  0  0  0  0  0  0  0  0  0  0  0
   52.1236   29.8043   53.9210 N   0  0  0  0  0  0  0  0  0  0  0  0
   50.9371   30.4271   54.0933 C   0  0  0  0  0  0  0  0  0  0  0  0
   50.1754   30.1780   55.0623 O   0  0  0  0  0  0  0  0  0  0  0  0
   50.6217   31.3237   53.1342 N   0  0  0  0  0  0  0  0  0  0  0  0
   51.6802   31.2605   52.3120 C   0  0  0  0  0  0  0  0  0  0  0  0
   51.7782   31.9766   51.1257 O   0  0  0  0  0  0  0  0  0  0  0  0
   58.1425   31.9100   53.5299 C   0  0  0  0  0  0  0  0  0  0  0  0
   58.1146   32.9770   52.4397 C   0  0  0  0  0  0  0  0  0  0  0  0
 25 26  2  0
 26 27  1  0
 27 28  2  0
 28 32  1  0
 32 33  1  0
 33 34  1  0
 34 35  2  0
 34 36  1  0
 36 37  1  0
 37 38  1  0
 27 29  1  0
 29 30  2  0
 30 39  1  0
 39 40  1  0
 30 31  1  0
 31 24  1  0
 24  1  1  0
  1  2  2  0
  2  3  1  0
  3  4  2  0
  4  5  1  0
  5  7  1  0
  7  8  2  0
  7  9  1  0
  9 10  1  0
 10 11  1  0
 11 12  1  0
 12 13  1  0
 13 14  2  0
 13 17  1  0
 17 18  2  0
 18 19  1  0
 19 20  2  0
 20 21  1  0
 21 22  2  0
 12 15  1  0
 15 16  1  0
  5  6  2  0
 31 26  1  0
  6  1  1  0
 37 32  2  0
 16  9  1  0
 22 17  1  0
 21 23  1  0
M  CHG 1  21   1
M  CHG 1  33  -1
M  CHG 1  36  -1
M  CHG 1  38  -1
M  END
> <UniqueID>
39

> <SMILES>
C=c1/c(=C/c2[n-]c(=O)[n-]c2[O-])cc(CC)n1Cc1cccc(C(=O)N2CCN(C(=O)c3ccc[nH+]c3)CC2)c1

> <Energy>
142.97535727199173

> <Genealogy>
C=c1c(=Cc2[n-]c(=O)[n-]c2[O-])cc(CC)n1Cc1cccc(C(=O)N2CCN(C(=O)c3ccc[nH+]c3)CC2)c1 (protonated)
C=c1/c(=C/c2[n-]c(=O)[n-]c2[O-])cc(CC)n1Cc1cccc(C(=O)N2CCN(C(=O)c3ccc[nH+]c3)CC2)c1 (cis-trans isomerization)
C=c1/c(=C/c2[n-]c(=O)[n-]c2[O-])cc(CC)n1Cc1cccc(C(=O)N2CCN(C(=O)c3ccc[nH+]c3)CC2)c1 (3D coordinates assigned)
C=c1/c(=C/c2[n-]c(=O)[n-]c2[O-])cc(CC)n1Cc1cccc(C(=O)N2CCN(C(=O)c3ccc[nH+]c3)CC2)c1 (nonaromatic ring conformer: 142.97535727199173 kcal/mol)

> <smiles>
C=c1c(=Cc2[nH]c(=O)[nH]c2O)cc(CC)n1Cc1cccc(C(=O)N2CCN(C(=O)c3cccnc3)CC2)c1

> <score_type>
oracle

> <origin>
adg

> <m_score__min__energy>
-16.989999999999998

> <m_primary>
energy

> <minimizedAffinity>
-8.16654

> <minimizedRMSD>
0.98080

> <CNNscore>
0.0592208020

> <CNNaffinity>
5.6597886086

> <CNN_VS>
0.3351772130

> <CNNaffinity_variance>
0.9660972953

$$$$
41:0


 33 36  0  0  0  0  0  0  0  0999 V2000
   60.9765   30.1639   48.5778 C   0  0  0  0  0  0  0  0  0  0  0  0
   61.3530   30.9205   47.6417 O   0  0  0  0  0  0  0  0  0  0  0  0
   60.9799   27.3217   49.7545 C   0  0  0  0  0  0  0  0  0  0  0  0
   60.1592   27.7344   48.7845 C   0  0  0  0  0  0  0  0  0  0  0  0
   59.2777   26.9202   48.1723 N   0  0  0  0  0  0  0  0  0  0  0  0
   58.7256   27.6273   47.1591 C   0  0  0  0  0  0  0  0  0  0  0  0
   57.8051   27.1623   46.2912 C   0  0  0  0  0  0  0  0  0  0  0  0
   59.2736   28.9074   47.1246 C   0  0  0  0  0  0  0  0  0  0  0  0
   59.0884   29.9234   46.0337 C   0  0  0  0  0  0  0  0  0  0  0  0
   60.1324   29.0022   48.2135 C   0  0  0  0  0  0  0  0  0  0  0  0
   59.0740   25.9882   48.4156 H   0  0  0  0  0  0  0  0  0  0  0  0
   57.5751   25.7415   45.9525 C   0  0  0  0  0  0  0  0  0  0  0  0
   58.5287   24.8152   45.7412 N   0  0  0  0  0  0  0  0  0  0  0  0
   57.8291   23.6780   45.5470 C   0  0  0  0  0  0  0  0  0  0  0  0
   58.3822   22.5722   45.3097 O   0  0  0  0  0  0  0  0  0  0  0  0
   56.4883   23.8158   45.6341 N   0  0  0  0  0  0  0  0  0  0  0  0
   56.3473   25.1254   45.8970 C   0  0  0  0  0  0  0  0  0  0  0  0
   55.1172   25.7452   46.0852 O   0  0  0  0  0  0  0  0  0  0  0  0
   61.3279   30.5093   49.9521 N   0  0  0  0  0  0  0  0  0  0  0  0
   62.5558   31.3332   50.0106 C   0  0  0  0  0  0  0  0  0  0  0  0
   62.2986   32.8384   49.7865 C   0  0  0  0  0  0  0  0  0  0  0  0
   61.0798   33.3636   50.4517 N   0  0  0  0  0  0  0  0  0  0  0  0
   60.5018   32.4135   51.4208 C   0  0  0  0  0  0  0  0  0  0  0  0
   60.2090   31.0412   50.7849 C   0  0  0  0  0  0  0  0  0  0  0  0
   61.6523   31.2712   49.4197 H   0  0  0  0  0  0  0  0  0  0  0  0
   60.0789   33.9149   49.5070 C   0  0  0  0  0  0  0  0  0  0  0  0
   60.7038   34.1631   48.1308 C   0  0  0  0  0  0  0  0  0  0  0  0
   59.6751   33.9343   47.0546 C   0  0  0  0  0  0  0  0  0  0  0  0
   58.4475   33.3262   47.3649 C   0  0  0  0  0  0  0  0  0  0  0  0
   57.4667   33.1744   46.3790 C   0  0  0  0  0  0  0  0  0  0  0  0
   57.7027   33.6354   45.0801 C   0  0  0  0  0  0  0  0  0  0  0  0
   58.9151   34.2570   44.7674 C   0  0  0  0  0  0  0  0  0  0  0  0
   59.8968   34.4133   45.7511 C   0  0  0  0  0  0  0  0  0  0  0  0
  3  4  2  0
  4  5  1  0
  5  6  1  0
  6  7  2  0
  7 12  1  0
 12 13  1  0
 13 14  1  0
 14 15  2  0
 14 16  1  0
 16 17  1  0
 17 18  1  0
  6  8  1  0
  8  9  1  0
  8 10  2  0
 10  1  1  0
  1  2  2  0
  1 19  1  0
 19 20  1  0
 20 21  1  0
 21 22  1  0
 22 26  1  0
 26 27  1  0
 27 28  1  0
 28 29  2  0
 29 30  1  0
 30 31  2  0
 31 32  1  0
 32 33  2  0
 22 23  1  0
 23 24  1  0
 10  4  1  0
 24 19  1  0
 17 12  2  0
 33 28  1  0
  5 11  1  0
 19 25  1  0
M  CHG 1  13  -1
M  CHG 1  16  -1
M  CHG 1  18  -1
M  CHG 1  19   1
M  END
> <UniqueID>
42

> <SMILES>
C=c1[nH]c(=Cc2[n-]c(=O)[n-]c2[O-])c(C)c1C(=O)[NH+]1CCN(CCc2ccccc2)CC1

> <Energy>
142.38599974949

> <Genealogy>
C=c1[nH]c(=Cc2[n-]c(=O)[n-]c2[O-])c(C)c1C(=O)[NH+]1CCN(CCc2ccccc2)CC1 (protonated)
C=c1[nH]c(=Cc2[n-]c(=O)[n-]c2[O-])c(C)c1C(=O)[NH+]1CCN(CCc2ccccc2)CC1 (3D coordinates assigned)
C=c1[nH]c(=Cc2[n-]c(=O)[n-]c2[O-])c(C)c1C(=O)[NH+]1CCN(CCc2ccccc2)CC1 (nonaromatic ring conformer: 142.38599974949 kcal/mol)

> <smiles>
C=c1[nH]c(=Cc2[nH]c(=O)[nH]c2O)c(C)c1C(=O)N1CCN(CCc2ccccc2)CC1

> <score_type>
oracle

> <origin>
adg

> <m_score__min__energy>
-15.949999999999999

> <m_primary>
energy

> <minimizedAffinity>
-8.43717

> <minimizedRMSD>
1.22334

> <CNNscore>
0.2294188142

> <CNNaffinity>
6.4072628021

> <CNN_VS>
1.4699466228

> <CNNaffinity_variance>
0.1547715515

$$$$
46:0


 27 29  0  0  0  0  0  0  0  0999 V2000
   58.2419   26.7205   43.6068 C   0  0  0  0  0  0  0  0  0  0  0  0
   58.5612   26.8341   44.9057 C   0  0  0  0  0  0  0  0  0  0  0  0
   58.5625   25.8084   45.8658 C   0  0  0  0  0  0  0  0  0  0  0  0
   58.0529   24.5620   45.8258 C   0  0  0  0  0  0  0  0  0  0  0  0
   59.2134   26.3165   46.9755 C   0  0  0  0  0  0  0  0  0  0  0  0
   59.5187   27.6320   46.6923 C   0  0  0  0  0  0  0  0  0  0  0  0
   60.2100   28.5650   47.6391 C   0  0  0  0  0  0  0  0  0  0  0  0
   59.0992   27.9588   45.4481 N   0  0  0  0  0  0  0  0  0  0  0  0
   56.6213   24.2199   45.8834 C   0  0  0  0  0  0  0  0  0  0  0  0
   56.1053   22.9975   45.6687 N   0  0  0  0  0  0  0  0  0  0  0  0
   54.7715   23.1841   45.6812 C   0  0  0  0  0  0  0  0  0  0  0  0
   53.9448   22.2482   45.5180 O   0  0  0  0  0  0  0  0  0  0  0  0
   54.3942   24.4670   45.8727 N   0  0  0  0  0  0  0  0  0  0  0  0
   55.5743   25.1098   45.9811 C   0  0  0  0  0  0  0  0  0  0  0  0
   55.6911   26.4827   46.1601 O   0  0  0  0  0  0  0  0  0  0  0  0
   56.5936   22.1535   45.5326 H   0  0  0  0  0  0  0  0  0  0  0  0
   59.3014   29.2620   44.7954 C   0  0  0  0  0  0  0  0  0  0  0  0
   58.1709   30.2139   45.0944 C   0  0  0  0  0  0  0  0  0  0  0  0
   57.1020   29.7635   45.5902 O   0  0  0  0  0  0  0  0  0  0  0  0
   58.2902   31.6276   44.8146 N   0  0  0  0  0  0  0  0  0  0  0  0
   57.8302   32.1782   43.5352 C   0  0  0  0  0  0  0  0  0  0  0  0
   58.7402   32.5290   45.8423 C   0  0  0  0  0  0  0  0  0  0  0  0
   58.8780   32.0834   47.1676 C   0  0  0  0  0  0  0  0  0  0  0  0
   59.3107   32.9623   48.1659 C   0  0  0  0  0  0  0  0  0  0  0  0
   59.6082   34.2917   47.8492 C   0  0  0  0  0  0  0  0  0  0  0  0
   59.4798   34.7424   46.5325 C   0  0  0  0  0  0  0  0  0  0  0  0
   59.0504   33.8645   45.5314 C   0  0  0  0  0  0  0  0  0  0  0  0
  1  2  2  0
  2  3  1  0
  3  4  2  0
  4  9  1  0
  9 10  1  0
 10 11  1  0
 11 12  2  0
 11 13  1  0
 13 14  1  0
 14 15  1  0
  3  5  1  0
  5  6  2  0
  6  7  1  0
  6  8  1  0
  8 17  1  0
 17 18  1  0
 18 19  2  0
 18 20  1  0
 20 21  1  0
 20 22  1  0
 22 23  2  0
 23 24  1  0
 24 25  2  0
 25 26  1  0
 26 27  2  0
  8  2  1  0
 27 22  1  0
 14  9  2  0
 10 16  1  0
M  CHG 1  13  -1
M  CHG 1  15  -1
M  END
> <UniqueID>
47

> <SMILES>
C=c1c(=Cc2[nH]c(=O)[n-]c2[O-])cc(C)n1CC(=O)N(C)c1ccccc1

> <Energy>
121.1682937801194

> <Genealogy>
C=c1c(=Cc2[nH]c(=O)[n-]c2[O-])cc(C)n1CC(=O)N(C)c1ccccc1 (protonated)
C=c1c(=Cc2[nH]c(=O)[n-]c2[O-])cc(C)n1CC(=O)N(C)c1ccccc1 (3D coordinates assigned)
C=c1c(=Cc2[nH]c(=O)[n-]c2[O-])cc(C)n1CC(=O)N(C)c1ccccc1 (optimized conformer: 121.1682937801194 kcal/mol)

> <smiles>
C=c1c(=Cc2[nH]c(=O)[nH]c2O)cc(C)n1CC(=O)N(C)c1ccccc1

> <score_type>
oracle

> <origin>
adg

> <m_score__min__energy>
-14.859999999999999

> <m_primary>
energy

> <minimizedAffinity>
-8.36292

> <minimizedRMSD>
0.76172

> <CNNscore>
0.3634284437

> <CNNaffinity>
6.6091094017

> <CNN_VS>
2.4019384384

> <CNNaffinity_variance>
0.0078727072

$$$$
52:0


 35 38  0  0  0  0  0  0  0  0999 V2000
   59.8511   31.7002   48.9213 C   0  0  0  0  0  0  0  0  0  0  0  0
   60.8242   32.5019   48.8608 O   0  0  0  0  0  0  0  0  0  0  0  0
   59.5117   31.0701   50.1803 N   0  0  0  0  0  0  0  0  0  0  0  0
   58.6499   29.8795   50.2133 C   0  0  0  0  0  0  0  0  0  0  0  0
   58.2666   29.5139   51.6543 C   0  0  0  0  0  0  0  0  0  0  0  0
   58.0050   30.7186   52.4717 N   0  0  0  0  0  0  0  0  0  0  0  0
   59.2148   31.5677   52.6075 C   0  0  0  0  0  0  0  0  0  0  0  0
   60.1950   31.4769   51.4166 C   0  0  0  0  0  0  0  0  0  0  0  0
   59.0492   31.4573   47.6699 C   0  0  0  0  0  0  0  0  0  0  0  0
   60.3845   26.8073   47.0575 C   0  0  0  0  0  0  0  0  0  0  0  0
   59.5939   27.8931   47.1011 C   0  0  0  0  0  0  0  0  0  0  0  0
   58.3754   28.0595   46.4305 C   0  0  0  0  0  0  0  0  0  0  0  0
   57.5685   27.1587   45.8373 C   0  0  0  0  0  0  0  0  0  0  0  0
   58.0675   29.4034   46.5116 C   0  0  0  0  0  0  0  0  0  0  0  0
   59.0285   29.9892   47.3134 C   0  0  0  0  0  0  0  0  0  0  0  0
   59.9528   29.0685   47.6863 N   0  0  0  0  0  0  0  0  0  0  0  0
   61.1654   29.3303   48.4737 C   0  0  0  0  0  0  0  0  0  0  0  0
   57.1332   25.8887   46.4419 C   0  0  0  0  0  0  0  0  0  0  0  0
   57.8945   25.1225   47.2434 N   0  0  0  0  0  0  0  0  0  0  0  0
   57.0427   24.1590   47.6549 C   0  0  0  0  0  0  0  0  0  0  0  0
   57.3935   23.2251   48.4238 O   0  0  0  0  0  0  0  0  0  0  0  0
   55.7810   24.2794   47.1863 N   0  0  0  0  0  0  0  0  0  0  0  0
   55.8540   25.3879   46.4316 C   0  0  0  0  0  0  0  0  0  0  0  0
   54.7727   25.9345   45.7543 O   0  0  0  0  0  0  0  0  0  0  0  0
   56.8318   31.5033   52.0187 C   0  0  0  0  0  0  0  0  0  0  0  0
   55.5383   30.7822   52.3058 C   0  0  0  0  0  0  0  0  0  0  0  0
   55.5480   29.5473   52.9721 C   0  0  0  0  0  0  0  0  0  0  0  0
   54.3500   28.8807   53.2296 C   0  0  0  0  0  0  0  0  0  0  0  0
   53.1325   29.4426   52.8351 C   0  0  0  0  0  0  0  0  0  0  0  0
   53.1004   30.6841   52.1740 C   0  0  0  0  0  0  0  0  0  0  0  0
   54.3145   31.3452   51.9084 C   0  0  0  0  0  0  0  0  0  0  0  0
   51.8085   31.2852   51.7647 C   0  0  0  0  0  0  0  0  0  0  0  0
   51.4925   31.4549   50.3844 N   0  0  0  0  0  0  0  0  0  0  0  0
   50.9750   31.6562   52.6347 O   0  0  0  0  0  0  0  0  0  0  0  0
   52.1337   31.1699   49.6939 H   0  0  0  0  0  0  0  0  0  0  0  0
 10 11  2  0
 11 12  1  0
 12 13  2  0
 13 18  1  0
 18 19  1  0
 19 20  1  0
 20 21  2  0
 20 22  1  0
 22 23  1  0
 23 24  1  0
 12 14  1  0
 14 15  2  0
 15  9  1  0
  9  1  1  0
  1  2  2  0
  1  3  1  0
  3  4  1  0
  4  5  1  0
  5  6  1  0
  6 25  1  0
 25 26  1  0
 26 27  2  0
 27 28  1  0
 28 29  2  0
 29 30  1  0
 30 32  1  0
 32 33  1  0
 32 34  2  0
 30 31  2  0
  6  7  1  0
  7  8  1  0
 15 16  1  0
 16 17  1  0
 16 11  1  0
 23 18  2  0
  8  3  1  0
 31 26  1  0
 33 35  1  0
M  CHG 1  19  -1
M  CHG 1  22  -1
M  CHG 1  24  -1
M  CHG 1  33  -1
M  END
> <UniqueID>
53

> <SMILES>
C=c1c(=Cc2[n-]c(=O)[n-]c2[O-])cc(CC(=O)N2CCN(Cc3cccc(C([NH-])=O)c3)CC2)n1C

> <Energy>
135.09192734849108

> <Genealogy>
C=c1c(=Cc2[n-]c(=O)[n-]c2[O-])cc(CC(=O)N2CCN(Cc3cccc(C([NH-])=O)c3)CC2)n1C (protonated)
C=c1c(=Cc2[n-]c(=O)[n-]c2[O-])cc(CC(=O)N2CCN(Cc3cccc(C([NH-])=O)c3)CC2)n1C (3D coordinates assigned)
C=c1c(=Cc2[n-]c(=O)[n-]c2[O-])cc(CC(=O)N2CCN(Cc3cccc(C([NH-])=O)c3)CC2)n1C (nonaromatic ring conformer: 135.09192734849108 kcal/mol)

> <smiles>
C=c1c(=Cc2[nH]c(=O)[nH]c2O)cc(CC(=O)N2CCN(Cc3cccc(C(N)=O)c3)CC2)n1C

> <score_type>
oracle

> <origin>
adg

> <m_score__min__energy>
-22.890000000000001

> <m_primary>
energy

> <minimizedAffinity>
-6.61505

> <minimizedRMSD>
0.71464

> <CNNscore>
0.0843678340

> <CNNaffinity>
5.6181850433

> <CNN_VS>
0.4739941061

> <CNNaffinity_variance>
0.4532477856

$$$$
56:0


 27 29  0  0  0  0  0  0  0  0999 V2000
   60.2653   26.7421   47.6454 C   0  0  0  0  0  0  0  0  0  0  0  0
   59.5178   27.4692   46.8014 C   0  0  0  0  0  0  0  0  0  0  0  0
   59.5134   28.8143   47.0030 N   0  0  0  0  0  0  0  0  0  0  0  0
   58.8396   29.6922   46.2180 C   0  0  0  0  0  0  0  0  0  0  0  0
   58.1421   29.2200   45.0938 C   0  0  0  0  0  0  0  0  0  0  0  0
   58.0982   27.8384   44.8683 C   0  0  0  0  0  0  0  0  0  0  0  0
   58.7734   26.9225   45.7089 C   0  0  0  0  0  0  0  0  0  0  0  0
   58.6631   25.5824   45.4991 C   0  0  0  0  0  0  0  0  0  0  0  0
   57.5878   24.7082   46.0145 C   0  0  0  0  0  0  0  0  0  0  0  0
   57.7417   23.4240   46.3903 N   0  0  0  0  0  0  0  0  0  0  0  0
   56.5310   23.0972   46.8933 C   0  0  0  0  0  0  0  0  0  0  0  0
   56.2719   21.9508   47.3444 O   0  0  0  0  0  0  0  0  0  0  0  0
   55.6243   24.0965   46.8842 N   0  0  0  0  0  0  0  0  0  0  0  0
   56.3136   25.1116   46.3372 C   0  0  0  0  0  0  0  0  0  0  0  0
   55.7886   26.3820   46.1393 O   0  0  0  0  0  0  0  0  0  0  0  0
   57.4643   30.1428   44.1052 C   0  0  0  0  0  0  0  0  0  0  0  0
   55.9546   29.9338   44.0867 C   0  0  0  0  0  0  0  0  0  0  0  0
   58.8917   31.4370   46.6599 S   0  0  0  0  0  0  0  0  0  0  0  0
   59.4344   31.1764   48.3886 C   0  0  0  0  0  0  0  0  0  0  0  0
   60.8718   31.5681   48.5862 C   0  0  0  0  0  0  0  0  0  0  0  0
   61.5905   32.1689   47.5413 C   0  0  0  0  0  0  0  0  0  0  0  0
   62.9273   32.5375   47.7247 C   0  0  0  0  0  0  0  0  0  0  0  0
   63.5547   32.3169   48.9596 C   0  0  0  0  0  0  0  0  0  0  0  0
   64.8837   32.6855   49.1563 O   0  0  0  0  0  0  0  0  0  0  0  0
   62.8405   31.7227   50.0047 C   0  0  0  0  0  0  0  0  0  0  0  0
   61.5064   31.3488   49.8217 C   0  0  0  0  0  0  0  0  0  0  0  0
   65.3674   33.0841   48.4597 H   0  0  0  0  0  0  0  0  0  0  0  0
  1  2  2  0
  2  3  1  0
  3  4  2  0
  4 18  1  0
 18 19  1  0
 19 20  1  0
 20 21  2  0
 21 22  1  0
 22 23  2  0
 23 24  1  0
 23 25  1  0
 25 26  2  0
  4  5  1  0
  5 16  1  0
 16 17  1  0
  5  6  2  0
  6  7  1  0
  7  8  2  0
  8  9  1  0
  9 10  1  0
 10 11  1  0
 11 12  2  0
 11 13  1  0
 13 14  1  0
 14 15  1  0
  7  2  1  0
 14  9  2  0
 26 20  1  0
 24 27  1  0
M  CHG 1  10  -1
M  CHG 1  13  -1
M  CHG 1  15  -1
M  END
> <UniqueID>
56

> <SMILES>
C=c1nc(SCc2ccc(O)cc2)c(CC)cc1=Cc1[n-]c(=O)[n-]c1[O-]

> <Energy>
81.76104227126199

> <Genealogy>
C=c1nc(SCc2ccc(O)cc2)c(CC)cc1=Cc1[n-]c(=O)[n-]c1[O-] (protonated)
C=c1nc(SCc2ccc(O)cc2)c(CC)cc1=Cc1[n-]c(=O)[n-]c1[O-] (3D coordinates assigned)
C=c1nc(SCc2ccc(O)cc2)c(CC)cc1=Cc1[n-]c(=O)[n-]c1[O-] (optimized conformer: 81.76104227126199 kcal/mol)

> <smiles>
C=c1nc(SCc2ccc(O)cc2)c(CC)cc1=Cc1[nH]c(=O)[nH]c1O

> <score_type>
oracle

> <origin>
adg

> <m_score__min__energy>
-16.239999999999998

> <m_primary>
energy

> <minimizedAffinity>
-8.15422

> <minimizedRMSD>
2.49356

> <CNNscore>
0.1591136158

> <CNNaffinity>
6.1592545509

> <CNN_VS>
0.9800212383

> <CNNaffinity_variance>
0.1183599457

$$$$
62:0


 37 40  0  0  0  0  0  0  0  0999 V2000
   61.5176   29.3654   50.3534 C   0  0  0  0  0  0  0  0  0  0  0  0
   62.3083   29.3160   51.5080 C   0  0  0  0  0  0  0  0  0  0  0  0
   63.1041   30.4049   51.8662 C   0  0  0  0  0  0  0  0  0  0  0  0
   63.1105   31.5595   51.0801 C   0  0  0  0  0  0  0  0  0  0  0  0
   62.3170   31.6348   49.9241 C   0  0  0  0  0  0  0  0  0  0  0  0
   61.5015   30.5412   49.5815 C   0  0  0  0  0  0  0  0  0  0  0  0
   62.3008   32.8629   49.0963 C   0  0  0  0  0  0  0  0  0  0  0  0
   63.3327   33.5866   49.0484 O   0  0  0  0  0  0  0  0  0  0  0  0
   61.1432   33.2373   48.3267 N   0  0  0  0  0  0  0  0  0  0  0  0
   61.3270   33.7382   46.9557 C   0  0  0  0  0  0  0  0  0  0  0  0
   60.0733   34.4514   46.4255 C   0  0  0  0  0  0  0  0  0  0  0  0
   58.7516   33.6731   46.6707 C   0  0  0  0  0  0  0  0  0  0  0  0
   58.7670   32.7932   47.9464 C   0  0  0  0  0  0  0  0  0  0  0  0
   59.8139   33.2718   48.9520 C   0  0  0  0  0  0  0  0  0  0  0  0
   58.3358   32.8813   45.4410 C   0  0  0  0  0  0  0  0  0  0  0  0
   58.4100   33.4425   44.1521 C   0  0  0  0  0  0  0  0  0  0  0  0
   58.0059   32.7095   43.0339 C   0  0  0  0  0  0  0  0  0  0  0  0
   57.5173   31.4112   43.1847 C   0  0  0  0  0  0  0  0  0  0  0  0
   57.4170   30.8395   44.4604 C   0  0  0  0  0  0  0  0  0  0  0  0
   57.8374   31.5723   45.5831 C   0  0  0  0  0  0  0  0  0  0  0  0
   56.9170   29.4251   44.6232 C   0  0  0  0  0  0  0  0  0  0  0  0
   55.4575   29.3882   44.6742 N   0  0  0  0  0  0  0  0  0  0  0  0
   55.1313   29.9337   45.4720 H   0  0  0  0  0  0  0  0  0  0  0  0
   55.1450   28.4223   44.7722 H   0  0  0  0  0  0  0  0  0  0  0  0
   60.7137   28.2223   50.0230 N   0  0  0  0  0  0  0  0  0  0  0  0
   60.0034   28.0022   48.7970 C   0  0  0  0  0  0  0  0  0  0  0  0
   59.1531   28.8359   48.3816 O   0  0  0  0  0  0  0  0  0  0  0  0
   60.3494   26.8228   47.9427 C   0  0  0  0  0  0  0  0  0  0  0  0
   59.8108   27.0146   46.5247 C   0  0  0  0  0  0  0  0  0  0  0  0
   56.7321   23.2058   45.4405 C   0  0  0  0  0  0  0  0  0  0  0  0
   57.2190   24.5042   45.8981 N   0  0  0  0  0  0  0  0  0  0  0  0
   56.4886   25.6099   46.1446 C   0  0  0  0  0  0  0  0  0  0  0  0
   55.1009   25.6648   46.1018 O   0  0  0  0  0  0  0  0  0  0  0  0
   57.3274   26.6709   46.4246 C   0  0  0  0  0  0  0  0  0  0  0  0
   58.5975   26.2253   46.3279 N   0  0  0  0  0  0  0  0  0  0  0  0
   58.4987   24.9161   46.0077 C   0  0  0  0  0  0  0  0  0  0  0  0
   59.4930   24.1656   45.8142 O   0  0  0  0  0  0  0  0  0  0  0  0
 30 31  1  0
 31 32  1  0
 32 33  1  0
 32 34  2  0
 34 35  1  0
 35 29  1  0
 29 28  1  0
 28 26  1  0
 26 27  2  0
 26 25  1  0
 25  1  1  0
  1  2  2  0
  2  3  1  0
  3  4  2  0
  4  5  1  0
  5  7  1  0
  7  8  2  0
  7  9  1  0
  9 10  1  0
 10 11  1  0
 11 12  1  0
 12 15  1  0
 15 16  2  0
 16 17  1  0
 17 18  2  0
 18 19  1  0
 19 21  1  0
 21 22  1  0
 19 20  2  0
 12 13  1  0
 13 14  1  0
  5  6  2  0
 35 36  1  0
 36 37  2  0
 36 31  1  0
  6  1  1  0
 14  9  1  0
 20 15  1  0
 22 23  1  0
 22 24  1  0
M  CHG 1  25  -1
M  CHG 1  33  -1
M  END
> <UniqueID>
62

> <SMILES>
Cn1c([O-])cn(CCC(=O)[N-]c2cccc(C(=O)N3CCC(c4cccc(CN)c4)CC3)c2)c1=O

> <Energy>
107.91152426602514

> <Genealogy>
Cn1c([O-])cn(CCC(=O)[N-]c2cccc(C(=O)N3CCC(c4cccc(CN)c4)CC3)c2)c1=O (protonated)
Cn1c([O-])cn(CCC(=O)[N-]c2cccc(C(=O)N3CCC(c4cccc(CN)c4)CC3)c2)c1=O (3D coordinates assigned)
Cn1c([O-])cn(CCC(=O)[N-]c2cccc(C(=O)N3CCC(c4cccc(CN)c4)CC3)c2)c1=O (nonaromatic ring conformer: 107.91152426602514 kcal/mol)

> <smiles>
Cn1c(O)cn(CCC(=O)Nc2cccc(C(=O)N3CCC(c4cccc(CN)c4)CC3)c2)c1=O

> <score_type>
oracle

> <origin>
adg

> <m_score__min__energy>
-15.75

> <m_primary>
energy

> <minimizedAffinity>
-9.07544

> <minimizedRMSD>
1.09477

> <CNNscore>
0.4082475603

> <CNNaffinity>
7.1954903603

> <CNN_VS>
2.9375414848

> <CNNaffinity_variance>
0.0778412521

$$$$
72:0


 31 34  0  0  0  0  0  0  0  0999 V2000
   57.8422   25.8984   44.9475 C   0  0  0  0  0  0  0  0  0  0  0  0
   58.2364   27.1709   45.1480 C   0  0  0  0  0  0  0  0  0  0  0  0
   57.5764   28.2477   44.5890 C   0  0  0  0  0  0  0  0  0  0  0  0
   58.2374   29.3891   44.9957 C   0  0  0  0  0  0  0  0  0  0  0  0
   59.2892   29.0662   45.7867 N   0  0  0  0  0  0  0  0  0  0  0  0
   60.3175   29.9810   46.2982 C   0  0  0  0  0  0  0  0  0  0  0  0
   59.3181   27.7077   45.8670 C   0  0  0  0  0  0  0  0  0  0  0  0
   60.3196   27.0309   46.4521 C   0  0  0  0  0  0  0  0  0  0  0  0
   54.9092   26.0888   45.9434 O   0  0  0  0  0  0  0  0  0  0  0  0
   55.8379   25.1240   46.3265 C   0  0  0  0  0  0  0  0  0  0  0  0
   55.5459   24.1051   47.1504 N   0  0  0  0  0  0  0  0  0  0  0  0
   56.7059   23.4159   47.1972 C   0  0  0  0  0  0  0  0  0  0  0  0
   56.8428   22.3640   47.8746 O   0  0  0  0  0  0  0  0  0  0  0  0
   57.7049   23.9366   46.4536 N   0  0  0  0  0  0  0  0  0  0  0  0
   57.1541   25.0414   45.9234 C   0  0  0  0  0  0  0  0  0  0  0  0
   54.0341   26.0551   46.2766 H   0  0  0  0  0  0  0  0  0  0  0  0
   57.8814   30.7494   44.5347 C   0  0  0  0  0  0  0  0  0  0  0  0
   58.1923   31.1103   43.3683 O   0  0  0  0  0  0  0  0  0  0  0  0
   57.3108   31.7166   45.4311 N   0  0  0  0  0  0  0  0  0  0  0  0
   57.9664   32.6089   46.1135 C   0  0  0  0  0  0  0  0  0  0  0  0
   58.2423   33.8346   45.6202 N   0  0  0  0  0  0  0  0  0  0  0  0
   58.9850   34.5746   46.4886 C   0  0  0  0  0  0  0  0  0  0  0  0
   59.2823   33.9391   47.6903 C   0  0  0  0  0  0  0  0  0  0  0  0
   58.5962   32.4065   47.6676 S   0  0  0  0  0  0  0  0  0  0  0  0
   60.2179   34.4350   48.7476 C   0  0  0  0  0  0  0  0  0  0  0  0
   61.4267   33.5402   48.8072 C   0  0  0  0  0  0  0  0  0  0  0  0
   62.1674   33.2698   47.6423 C   0  0  0  0  0  0  0  0  0  0  0  0
   63.3385   32.5100   47.7111 C   0  0  0  0  0  0  0  0  0  0  0  0
   63.7825   32.0168   48.9413 C   0  0  0  0  0  0  0  0  0  0  0  0
   63.0567   32.2863   50.1046 C   0  0  0  0  0  0  0  0  0  0  0  0
   61.8867   33.0511   50.0413 C   0  0  0  0  0  0  0  0  0  0  0  0
  9 10  1  0
 10 11  1  0
 11 12  1  0
 12 13  2  0
 12 14  1  0
 14 15  1  0
 15  1  1  0
  1  2  2  0
  2  3  1  0
  3  4  2  0
  4 17  1  0
 17 18  2  0
 17 19  1  0
 19 20  2  0
 20 21  1  0
 21 22  1  0
 22 23  2  0
 23 25  1  0
 25 26  1  0
 26 27  2  0
 27 28  1  0
 28 29  2  0
 29 30  1  0
 30 31  2  0
 23 24  1  0
  4  5  1  0
  5  6  1  0
  5  7  1  0
  7  8  2  0
 15 10  2  0
  7  2  1  0
 24 20  1  0
 31 26  1  0
  9 16  1  0
M  CHG 1  11  -1
M  CHG 1  14  -1
M  CHG 1  21  -1
M  END
> <UniqueID>
72

> <SMILES>
C=c1/c(=C\c2[n-]c(=O)[n-]c2O)cc(C(=O)N=c2[n-]cc(Cc3ccccc3)s2)n1C

> <Energy>
156.52059781691707

> <Genealogy>
C=c1c(=Cc2[n-]c(=O)[n-]c2O)cc(C(=O)N=c2[n-]cc(Cc3ccccc3)s2)n1C (protonated)
C=c1/c(=C\c2[n-]c(=O)[n-]c2O)cc(C(=O)N=c2[n-]cc(Cc3ccccc3)s2)n1C (cis-trans isomerization)
C=c1/c(=C\c2[n-]c(=O)[n-]c2O)cc(C(=O)N=c2[n-]cc(Cc3ccccc3)s2)n1C (3D coordinates assigned)
C=c1/c(=C\c2[n-]c(=O)[n-]c2O)cc(C(=O)N=c2[n-]cc(Cc3ccccc3)s2)n1C (optimized conformer: 156.52059781691707 kcal/mol)

> <smiles>
C=c1c(=Cc2[nH]c(=O)[nH]c2O)cc(C(=O)N=c2[nH]cc(Cc3ccccc3)s2)n1C

> <score_type>
oracle

> <origin>
adg

> <m_score__min__energy>
-15.57

> <m_primary>
energy

> <minimizedAffinity>
-9.63555

> <minimizedRMSD>
0.68004

> <CNNscore>
0.5884527564

> <CNNaffinity>
7.4076237679

> <CNN_VS>
4.3590364456

> <CNNaffinity_variance>
0.0142139988

$$$$
82:0


 31 34  0  0  0  0  0  0  0  0999 V2000
   58.8155   29.7464   46.8375 C   0  0  0  0  0  0  0  0  0  0  0  0
   57.9327   30.3888   45.9467 C   0  0  0  0  0  0  0  0  0  0  0  0
   57.7988   31.7362   45.9939 N   0  0  0  0  0  0  0  0  0  0  0  0
   58.5061   32.4994   46.8603 C   0  0  0  0  0  0  0  0  0  0  0  0
   58.3469   33.7507   46.8369 O   0  0  0  0  0  0  0  0  0  0  0  0
   59.3832   31.9199   47.7386 N   0  0  0  0  0  0  0  0  0  0  0  0
   59.5523   30.5565   47.7315 C   0  0  0  0  0  0  0  0  0  0  0  0
   60.3619   30.0208   48.5404 O   0  0  0  0  0  0  0  0  0  0  0  0
   57.1491   29.6568   44.9358 C   0  0  0  0  0  0  0  0  0  0  0  0
   55.9596   29.9976   44.7078 O   0  0  0  0  0  0  0  0  0  0  0  0
   57.7421   28.6106   44.1630 N   0  0  0  0  0  0  0  0  0  0  0  0
   57.2994   27.6523   43.1368 C   0  0  0  0  0  0  0  0  0  0  0  0
   58.6525   27.0874   42.8522 C   0  0  0  0  0  0  0  0  0  0  0  0
   59.0847   28.0673   43.8921 C   0  0  0  0  0  0  0  0  0  0  0  0
   58.9052   28.2618   46.8765 C   0  0  0  0  0  0  0  0  0  0  0  0
   57.8412   27.5259   46.9931 N   0  0  0  0  0  0  0  0  0  0  0  0
   57.6839   26.2102   46.4407 C   0  0  0  0  0  0  0  0  0  0  0  0
   58.8215   25.4008   46.3234 C   0  0  0  0  0  0  0  0  0  0  0  0
   58.7252   24.1119   45.7924 C   0  0  0  0  0  0  0  0  0  0  0  0
   57.4845   23.6127   45.3880 C   0  0  0  0  0  0  0  0  0  0  0  0
   56.3364   24.3971   45.5292 C   0  0  0  0  0  0  0  0  0  0  0  0
   56.4249   25.6869   46.0655 C   0  0  0  0  0  0  0  0  0  0  0  0
   55.2564   26.4174   46.2520 O   0  0  0  0  0  0  0  0  0  0  0  0
   60.1755   32.7620   48.6570 C   0  0  0  0  0  0  0  0  0  0  0  0
   61.5045   33.1526   48.0034 C   0  0  0  0  0  0  0  0  0  0  0  0
   62.6098   33.1868   49.0250 C   0  0  0  0  0  0  0  0  0  0  0  0
   62.5387   34.0693   50.1156 C   0  0  0  0  0  0  0  0  0  0  0  0
   63.5507   34.0747   51.0817 C   0  0  0  0  0  0  0  0  0  0  0  0
   64.6317   33.1981   50.9702 C   0  0  0  0  0  0  0  0  0  0  0  0
   64.7009   32.3075   49.8948 C   0  0  0  0  0  0  0  0  0  0  0  0
   63.6926   32.2970   48.9265 C   0  0  0  0  0  0  0  0  0  0  0  0
 15 16  2  0
 16 17  1  0
 17 18  2  0
 18 19  1  0
 19 20  2  0
 20 21  1  0
 21 22  2  0
 22 23  1  0
 15  1  1  0
  1  2  2  0
  2  9  1  0
  9 10  2  0
  9 11  1  0
 11 12  1  0
 12 13  1  0
 13 14  1  0
  2  3  1  0
  3  4  1  0
  4  5  2  0
  4  6  1  0
  6 24  1  0
 24 25  1  0
 25 26  1  0
 26 27  2  0
 27 28  1  0
 28 29  2  0
 29 30  1  0
 30 31  2  0
  6  7  1  0
  7  8  2  0
 22 17  1  0
  7  1  1  0
 14 11  1  0
 31 26  1  0
M  CHG 1   3  -1
M  CHG 1  23  -1
M  END
> <UniqueID>
82

> <SMILES>
O=C(c1[n-]c(=O)n(CCc2ccccc2)c(=O)c1/C=N/c1ccccc1[O-])N1CCC1

> <Energy>
112.71236491177902

> <Genealogy>
O=C(c1[n-]c(=O)n(CCc2ccccc2)c(=O)c1C=Nc1ccccc1[O-])N1CCC1 (protonated)
O=C(c1[n-]c(=O)n(CCc2ccccc2)c(=O)c1/C=N/c1ccccc1[O-])N1CCC1 (cis-trans isomerization)
O=C(c1[n-]c(=O)n(CCc2ccccc2)c(=O)c1/C=N/c1ccccc1[O-])N1CCC1 (3D coordinates assigned)
O=C(c1[n-]c(=O)n(CCc2ccccc2)c(=O)c1/C=N/c1ccccc1[O-])N1CCC1 (nonaromatic ring conformer: 112.71236491177902 kcal/mol)

> <smiles>
O=C(c1[nH]c(=O)n(CCc2ccccc2)c(=O)c1C=Nc1ccccc1O)N1CCC1

> <score_type>
oracle

> <origin>
adg

> <m_score__min__energy>
-14.109999999999999

> <m_primary>
energy

> <minimizedAffinity>
-6.13133

> <minimizedRMSD>
1.36440

> <CNNscore>
0.4827620089

> <CNNaffinity>
6.7684307098

> <CNN_VS>
3.2675411701

> <CNNaffinity_variance>
0.1608135104

$$$$
84:0


 29 32  0  0  0  0  0  0  0  0999 V2000
   55.5344   28.0884   53.3551 C   0  0  0  0  0  0  0  0  0  0  0  0
   55.6295   29.3996   53.0847 C   0  0  0  0  0  0  0  0  0  0  0  0
   54.5913   30.2526   52.6736 C   0  0  0  0  0  0  0  0  0  0  0  0
   53.2579   30.0676   52.6326 C   0  0  0  0  0  0  0  0  0  0  0  0
   55.1951   31.4339   52.2766 C   0  0  0  0  0  0  0  0  0  0  0  0
   56.5452   31.2916   52.5116 C   0  0  0  0  0  0  0  0  0  0  0  0
   57.5734   32.3439   52.2155 C   0  0  0  0  0  0  0  0  0  0  0  0
   56.8125   30.0684   53.0244 N   0  0  0  0  0  0  0  0  0  0  0  0
   52.3894   30.3354   51.4757 C   0  0  0  0  0  0  0  0  0  0  0  0
   52.3678   29.5716   50.3710 N   0  0  0  0  0  0  0  0  0  0  0  0
   51.5451   30.2483   49.5402 C   0  0  0  0  0  0  0  0  0  0  0  0
   51.2545   29.8333   48.3894 O   0  0  0  0  0  0  0  0  0  0  0  0
   51.0677   31.4101   50.0360 N   0  0  0  0  0  0  0  0  0  0  0  0
   51.6231   31.4582   51.2569 C   0  0  0  0  0  0  0  0  0  0  0  0
   51.4552   32.5187   52.1403 O   0  0  0  0  0  0  0  0  0  0  0  0
   58.1532   29.5319   53.3021 C   0  0  0  0  0  0  0  0  0  0  0  0
   59.0125   29.6466   52.0851 C   0  0  0  0  0  0  0  0  0  0  0  0
   60.3380   29.8798   52.1048 N   0  0  0  0  0  0  0  0  0  0  0  0
   60.7225   29.9245   50.8384 N   0  0  0  0  0  0  0  0  0  0  0  0
   59.6164   29.7175   50.0947 C   0  0  0  0  0  0  0  0  0  0  0  0
   58.5643   29.5484   50.8590 O   0  0  0  0  0  0  0  0  0  0  0  0
   59.5939   29.6872   48.6146 C   0  0  0  0  0  0  0  0  0  0  0  0
   59.9314   28.5008   47.9384 C   0  0  0  0  0  0  0  0  0  0  0  0
   59.9295   28.4511   46.5439 C   0  0  0  0  0  0  0  0  0  0  0  0
   59.5920   29.5831   45.8060 C   0  0  0  0  0  0  0  0  0  0  0  0
   59.2513   30.7692   46.4576 C   0  0  0  0  0  0  0  0  0  0  0  0
   59.2472   30.8369   47.8654 C   0  0  0  0  0  0  0  0  0  0  0  0
   58.9079   32.0211   48.5422 O   0  0  0  0  0  0  0  0  0  0  0  0
   59.7351   33.1771   48.6263 C   0  0  0  0  0  0  0  0  0  0  0  0
  1  2  2  0
  2  3  1  0
  3  4  2  0
  4  9  1  0
  9 10  1  0
 10 11  1  0
 11 12  2  0
 11 13  1  0
 13 14  1  0
 14 15  1  0
  3  5  1  0
  5  6  2  0
  6  7  1  0
  6  8  1  0
  8 16  1  0
 16 17  1  0
 17 18  2  0
 18 19  1  0
 19 20  2  0
 20 22  1  0
 22 23  2  0
 23 24  1  0
 24 25  2  0
 25 26  1  0
 26 27  2  0
 27 28  1  0
 28 29  1  0
 20 21  1  0
  8  2  1  0
 21 17  1  0
 14  9  2  0
 27 22  1  0
M  CHG 1  10  -1
M  CHG 1  13  -1
M  CHG 1  15  -1
M  END
> <UniqueID>
84

> <SMILES>
C=c1/c(=C\c2[n-]c(=O)[n-]c2[O-])cc(C)n1Cc1nnc(-c2ccccc2OC)o1

> <Energy>
151.3373866893504

> <Genealogy>
C=c1c(=Cc2[n-]c(=O)[n-]c2[O-])cc(C)n1Cc1nnc(-c2ccccc2OC)o1 (protonated)
C=c1/c(=C\c2[n-]c(=O)[n-]c2[O-])cc(C)n1Cc1nnc(-c2ccccc2OC)o1 (cis-trans isomerization)
C=c1/c(=C\c2[n-]c(=O)[n-]c2[O-])cc(C)n1Cc1nnc(-c2ccccc2OC)o1 (3D coordinates assigned)
C=c1/c(=C\c2[n-]c(=O)[n-]c2[O-])cc(C)n1Cc1nnc(-c2ccccc2OC)o1 (optimized conformer: 151.3373866893504 kcal/mol)

> <smiles>
C=c1c(=Cc2[nH]c(=O)[nH]c2O)cc(C)n1Cc1nnc(-c2ccccc2OC)o1

> <score_type>
oracle

> <origin>
adg

> <m_score__min__energy>
-16.760000000000002

> <m_primary>
energy

> <minimizedAffinity>
-5.62198

> <minimizedRMSD>
0.90074

> <CNNscore>
0.0611842200

> <CNNaffinity>
4.9548149109

> <CNN_VS>
0.3031564951

> <CNNaffinity_variance>
0.3318165541

$$$$
8:0


 23 24  0  0  0  0  0  0  0  0999 V2000
   56.7357   30.3210   43.4395 C   0  0  0  0  0  0  0  0  0  0  0  0
   57.4390   29.8916   44.4889 C   0  0  0  0  0  0  0  0  0  0  0  0
   57.3456   28.6151   44.9338 N   0  0  0  0  0  0  0  0  0  0  0  0
   58.2035   28.5525   45.9722 C   0  0  0  0  0  0  0  0  0  0  0  0
   58.4334   27.4593   46.7153 C   0  0  0  0  0  0  0  0  0  0  0  0
   58.7980   29.7840   46.1322 C   0  0  0  0  0  0  0  0  0  0  0  0
   59.6712   30.0766   46.9940 O   0  0  0  0  0  0  0  0  0  0  0  0
   58.3138   30.6420   45.2157 N   0  0  0  0  0  0  0  0  0  0  0  0
   58.0517   26.0951   46.3010 C   0  0  0  0  0  0  0  0  0  0  0  0
   58.9100   25.0956   46.0231 N   0  0  0  0  0  0  0  0  0  0  0  0
   58.0979   24.0665   45.6983 C   0  0  0  0  0  0  0  0  0  0  0  0
   58.5358   22.9340   45.3703 O   0  0  0  0  0  0  0  0  0  0  0  0
   56.7774   24.3469   45.7522 N   0  0  0  0  0  0  0  0  0  0  0  0
   56.7679   25.6338   46.1349 C   0  0  0  0  0  0  0  0  0  0  0  0
   55.6062   26.3724   46.3289 O   0  0  0  0  0  0  0  0  0  0  0  0
   58.7355   32.0382   45.0299 C   0  0  0  0  0  0  0  0  0  0  0  0
   58.3243   32.8784   46.2100 C   0  0  0  0  0  0  0  0  0  0  0  0
   57.0960   32.9850   46.4660 O   0  0  0  0  0  0  0  0  0  0  0  0
   59.3015   33.5818   47.0167 N   0  0  0  0  0  0  0  0  0  0  0  0
   59.7211   34.9316   46.6225 C   0  0  0  0  0  0  0  0  0  0  0  0
   59.8762   32.9773   48.2377 C   0  0  0  0  0  0  0  0  0  0  0  0
   58.7781   32.4769   49.1831 C   0  0  0  0  0  0  0  0  0  0  0  0
   60.8338   33.9472   48.9427 C   0  0  0  0  0  0  0  0  0  0  0  0
  1  2  2  0
  2  3  1  0
  3  4  1  0
  4  5  2  0
  5  9  1  0
  9 10  1  0
 10 11  1  0
 11 12  2  0
 11 13  1  0
 13 14  1  0
 14 15  1  0
  4  6  1  0
  6  7  2  0
  6  8  1  0
  8 16  1  0
 16 17  1  0
 17 18  2  0
 17 19  1  0
 19 20  1  0
 19 21  1  0
 21 22  1  0
 21 23  1  0
  8  2  1  0
 14  9  2  0
M  CHG 1   3  -1
M  CHG 1  10  -1
M  CHG 1  13  -1
M  CHG 1  15  -1
M  END
> <UniqueID>
9

> <SMILES>
C=c1[n-]c(=Cc2[n-]c(=O)[n-]c2[O-])c(=O)n1CC(=O)N(C)C(C)C

> <Energy>
96.93480060010656

> <Genealogy>
C=c1[n-]c(=Cc2[n-]c(=O)[n-]c2[O-])c(=O)n1CC(=O)N(C)C(C)C (protonated)
C=c1[n-]c(=Cc2[n-]c(=O)[n-]c2[O-])c(=O)n1CC(=O)N(C)C(C)C (3D coordinates assigned)
C=c1[n-]c(=Cc2[n-]c(=O)[n-]c2[O-])c(=O)n1CC(=O)N(C)C(C)C (optimized conformer: 96.93480060010656 kcal/mol)

> <smiles>
C=c1[nH]c(=Cc2[nH]c(=O)[nH]c2O)c(=O)n1CC(=O)N(C)C(C)C

> <score_type>
oracle

> <origin>
adg

> <m_score__min__energy>
-16

> <m_primary>
energy

> <minimizedAffinity>
-7.17779

> <minimizedRMSD>
1.24347

> <CNNscore>
0.3974828124

> <CNNaffinity>
5.8159775734

> <CNN_VS>
2.3117511272

> <CNNaffinity_variance>
0.0506525487

$$$$
14:0


 31 34  0  0  0  0  0  0  0  0999 V2000
   59.6843   32.5498   48.4138 C   0  0  0  0  0  0  0  0  0  0  0  0
   58.7339   33.1440   48.9930 O   0  0  0  0  0  0  0  0  0  0  0  0
   61.0317   32.7004   48.9085 N   0  0  0  0  0  0  0  0  0  0  0  0
   61.2344   33.0242   50.3288 C   0  0  0  0  0  0  0  0  0  0  0  0
   62.6777   33.4520   50.6226 C   0  0  0  0  0  0  0  0  0  0  0  0
   63.6361   32.5355   49.9880 N   0  0  0  0  0  0  0  0  0  0  0  0
   63.3852   32.0376   48.6259 C   0  0  0  0  0  0  0  0  0  0  0  0
   62.1748   32.7254   47.9852 C   0  0  0  0  0  0  0  0  0  0  0  0
   57.7833   31.0415   44.2158 C   0  0  0  0  0  0  0  0  0  0  0  0
   58.5197   31.0581   45.3391 C   0  0  0  0  0  0  0  0  0  0  0  0
   59.3704   30.0418   45.7864 C   0  0  0  0  0  0  0  0  0  0  0  0
   59.5852   28.8428   45.2113 C   0  0  0  0  0  0  0  0  0  0  0  0
   59.9141   30.4911   46.9811 C   0  0  0  0  0  0  0  0  0  0  0  0
   59.3771   31.7398   47.2188 C   0  0  0  0  0  0  0  0  0  0  0  0
   58.5459   32.0976   46.2109 N   0  0  0  0  0  0  0  0  0  0  0  0
   57.8594   33.3845   46.0515 C   0  0  0  0  0  0  0  0  0  0  0  0
   58.7806   27.6401   45.4883 C   0  0  0  0  0  0  0  0  0  0  0  0
   59.3103   26.4779   45.9077 N   0  0  0  0  0  0  0  0  0  0  0  0
   58.2295   25.6960   46.1157 C   0  0  0  0  0  0  0  0  0  0  0  0
   58.3212   24.5030   46.5084 O   0  0  0  0  0  0  0  0  0  0  0  0
   57.0422   26.2943   45.8821 N   0  0  0  0  0  0  0  0  0  0  0  0
   57.4058   27.5282   45.4968 C   0  0  0  0  0  0  0  0  0  0  0  0
   56.4995   28.5411   45.2086 O   0  0  0  0  0  0  0  0  0  0  0  0
   64.9018   32.2500   50.6238 C   0  0  0  0  0  0  0  0  0  0  0  0
   65.0121   31.2144   51.5709 C   0  0  0  0  0  0  0  0  0  0  0  0
   66.2376   30.9459   52.1870 C   0  0  0  0  0  0  0  0  0  0  0  0
   67.3658   31.7059   51.8684 C   0  0  0  0  0  0  0  0  0  0  0  0
   68.5517   31.4424   52.4691 F   0  0  0  0  0  0  0  0  0  0  0  0
   67.2682   32.7394   50.9325 C   0  0  0  0  0  0  0  0  0  0  0  0
   68.3618   33.4771   50.6201 F   0  0  0  0  0  0  0  0  0  0  0  0
   66.0432   33.0118   50.3133 C   0  0  0  0  0  0  0  0  0  0  0  0
  9 10  2  0
 10 11  1  0
 11 12  2  0
 12 17  1  0
 17 18  1  0
 18 19  1  0
 19 20  2  0
 19 21  1  0
 21 22  1  0
 22 23  1  0
 11 13  1  0
 13 14  2  0
 14  1  1  0
  1  2  2  0
  1  3  1  0
  3  4  1  0
  4  5  1  0
  5  6  1  0
  6 24  1  0
 24 25  2  0
 25 26  1  0
 26 27  2  0
 27 28  1  0
 27 29  1  0
 29 30  1  0
 29 31  2  0
  6  7  1  0
  7  8  1  0
 14 15  1  0
 15 16  1  0
 15 10  1  0
 22 17  2  0
  8  3  1  0
 31 24  1  0
M  CHG 1  18  -1
M  CHG 1  21  -1
M  CHG 1  23  -1
M  END
> <UniqueID>
15

> <SMILES>
C=c1/c(=C/c2[n-]c(=O)[n-]c2[O-])cc(C(=O)N2CCN(c3ccc(F)c(F)c3)CC2)n1C

> <Energy>
126.95194048540114

> <Genealogy>
C=c1c(=Cc2[n-]c(=O)[n-]c2[O-])cc(C(=O)N2CCN(c3ccc(F)c(F)c3)CC2)n1C (protonated)
C=c1/c(=C/c2[n-]c(=O)[n-]c2[O-])cc(C(=O)N2CCN(c3ccc(F)c(F)c3)CC2)n1C (cis-trans isomerization)
C=c1/c(=C/c2[n-]c(=O)[n-]c2[O-])cc(C(=O)N2CCN(c3ccc(F)c(F)c3)CC2)n1C (3D coordinates assigned)
C=c1/c(=C/c2[n-]c(=O)[n-]c2[O-])cc(C(=O)N2CCN(c3ccc(F)c(F)c3)CC2)n1C (nonaromatic ring conformer: 126.95194048540114 kcal/mol)

> <smiles>
C=c1c(=Cc2[nH]c(=O)[nH]c2O)cc(C(=O)N2CCN(c3ccc(F)c(F)c3)CC2)n1C

> <score_type>
oracle

> <origin>
adg

> <m_score__min__energy>
-17.190000000000001

> <m_primary>
energy

> <minimizedAffinity>
-8.56054

> <minimizedRMSD>
1.23399

> <CNNscore>
0.3889908791

> <CNNaffinity>
6.6431813240

> <CNN_VS>
2.5841369629

> <CNNaffinity_variance>
0.0637501925

$$$$
15:0


 33 36  0  0  0  0  0  0  0  0999 V2000
   58.3594   29.4432   54.6767 C   0  0  0  0  0  0  0  0  0  0  0  0
   59.5501   30.1662   54.5266 C   0  0  0  0  0  0  0  0  0  0  0  0
   60.6973   29.5548   54.0206 C   0  0  0  0  0  0  0  0  0  0  0  0
   60.6608   28.2001   53.6512 C   0  0  0  0  0  0  0  0  0  0  0  0
   59.4903   27.5210   53.7900 N   0  0  0  0  0  0  0  0  0  0  0  0
   58.3509   28.0839   54.2790 C   0  0  0  0  0  0  0  0  0  0  0  0
   57.1156   27.2299   54.3383 C   0  0  0  0  0  0  0  0  0  0  0  0
   61.8193   27.5324   53.0890 N   0  0  0  0  0  0  0  0  0  0  0  0
   62.1337   26.1338   53.4302 C   0  0  0  0  0  0  0  0  0  0  0  0
   63.3407   25.6060   52.6335 C   0  0  0  0  0  0  0  0  0  0  0  0
   64.5043   26.5214   52.6504 N   0  0  0  0  0  0  0  0  0  0  0  0
   64.1697   27.9666   52.6080 C   0  0  0  0  0  0  0  0  0  0  0  0
   62.7262   28.2377   52.1756 C   0  0  0  0  0  0  0  0  0  0  0  0
   65.5820   26.1786   53.9835 S   0  0  0  0  0  0  0  0  0  0  0  0
   67.2763   26.2017   53.4423 C   0  0  0  0  0  0  0  0  0  0  0  0
   65.2646   24.8338   54.5730 O   0  0  0  0  0  0  0  0  0  0  0  0
   65.4170   27.2308   55.0456 O   0  0  0  0  0  0  0  0  0  0  0  0
   57.1277   30.1506   55.2087 C   0  0  0  0  0  0  0  0  0  0  0  0
   54.2406   29.1998   55.2556 C   0  0  0  0  0  0  0  0  0  0  0  0
   54.7996   29.8325   54.2070 C   0  0  0  0  0  0  0  0  0  0  0  0
   54.1597   30.1395   52.9962 C   0  0  0  0  0  0  0  0  0  0  0  0
   52.8786   29.8659   52.6611 C   0  0  0  0  0  0  0  0  0  0  0  0
   55.1170   30.7563   52.2006 C   0  0  0  0  0  0  0  0  0  0  0  0
   56.2752   30.8160   52.9467 C   0  0  0  0  0  0  0  0  0  0  0  0
   57.5716   31.3740   52.4429 C   0  0  0  0  0  0  0  0  0  0  0  0
   56.0914   30.2606   54.1678 N   0  0  0  0  0  0  0  0  0  0  0  0
   52.2128   30.2637   51.3986 C   0  0  0  0  0  0  0  0  0  0  0  0
   52.1543   29.5298   50.2687 N   0  0  0  0  0  0  0  0  0  0  0  0
   51.4874   30.3290   49.4081 C   0  0  0  0  0  0  0  0  0  0  0  0
   51.2257   29.9831   48.2265 O   0  0  0  0  0  0  0  0  0  0  0  0
   51.1221   31.5295   49.9165 N   0  0  0  0  0  0  0  0  0  0  0  0
   51.5901   31.4710   51.1745 C   0  0  0  0  0  0  0  0  0  0  0  0
   51.4319   32.4925   52.1047 O   0  0  0  0  0  0  0  0  0  0  0  0
 19 20  2  0
 20 21  1  0
 21 22  2  0
 22 27  1  0
 27 28  1  0
 28 29  1  0
 29 30  2  0
 29 31  1  0
 31 32  1  0
 32 33  1  0
 21 23  1  0
 23 24  2  0
 24 25  1  0
 24 26  1  0
 26 18  1  0
 18  1  1  0
  1  2  2  0
  2  3  1  0
  3  4  2  0
  4  8  1  0
  8  9  1  0
  9 10  1  0
 10 11  1  0
 11 14  1  0
 14 15  1  0
 14 16  2  0
 14 17  2  0
 11 12  1  0
 12 13  1  0
  4  5  1  0
  5  6  2  0
  6  7  1  0
 26 20  1  0
  6  1  1  0
 32 27  2  0
 13  8  1  0
M  CHG 1  28  -1
M  CHG 1  31  -1
M  CHG 1  33  -1
M  END
> <UniqueID>
16

> <SMILES>
C=c1c(=Cc2[n-]c(=O)[n-]c2[O-])cc(C)n1Cc1ccc(N2CCN(S(C)(=O)=O)CC2)nc1C

> <Energy>
128.72485982820447

> <Genealogy>
C=c1c(=Cc2[n-]c(=O)[n-]c2[O-])cc(C)n1Cc1ccc(N2CCN(S(C)(=O)=O)CC2)nc1C (protonated)
C=c1c(=Cc2[n-]c(=O)[n-]c2[O-])cc(C)n1Cc1ccc(N2CCN(S(C)(=O)=O)CC2)nc1C (3D coordinates assigned)
C=c1c(=Cc2[n-]c(=O)[n-]c2[O-])cc(C)n1Cc1ccc(N2CCN(S(C)(=O)=O)CC2)nc1C (nonaromatic ring conformer: 128.72485982820447 kcal/mol)

> <smiles>
C=c1c(=Cc2[nH]c(=O)[nH]c2O)cc(C)n1Cc1ccc(N2CCN(S(C)(=O)=O)CC2)nc1C

> <score_type>
oracle

> <origin>
adg

> <m_score__min__energy>
-18.039999999999999

> <m_primary>
energy

> <minimizedAffinity>
-4.50230

> <minimizedRMSD>
0.84192

> <CNNscore>
0.1232416332

> <CNNaffinity>
4.8913750648

> <CNN_VS>
0.6028210521

> <CNNaffinity_variance>
0.4496510923

$$$$
22:0


 24 26  0  0  0  0  0  0  0  0999 V2000
   57.4875   31.4207   51.7003 C   0  0  0  0  0  0  0  0  0  0  0  0
   56.6471   30.5504   52.2665 C   0  0  0  0  0  0  0  0  0  0  0  0
   55.3070   30.6365   52.0960 N   0  0  0  0  0  0  0  0  0  0  0  0
   54.8083   29.5954   52.7949 C   0  0  0  0  0  0  0  0  0  0  0  0
   53.5047   29.3060   52.9212 C   0  0  0  0  0  0  0  0  0  0  0  0
   55.8516   28.9120   53.3792 C   0  0  0  0  0  0  0  0  0  0  0  0
   55.7554   27.8815   54.0977 O   0  0  0  0  0  0  0  0  0  0  0  0
   57.0142   29.5073   53.0573 N   0  0  0  0  0  0  0  0  0  0  0  0
   52.4587   30.3052   53.2088 C   0  0  0  0  0  0  0  0  0  0  0  0
   52.0831   30.6251   54.4597 N   0  0  0  0  0  0  0  0  0  0  0  0
   51.0829   31.5161   54.2745 C   0  0  0  0  0  0  0  0  0  0  0  0
   50.4746   32.0610   55.2313 O   0  0  0  0  0  0  0  0  0  0  0  0
   50.7849   31.7687   52.9836 N   0  0  0  0  0  0  0  0  0  0  0  0
   51.6535   30.9899   52.3191 C   0  0  0  0  0  0  0  0  0  0  0  0
   51.6704   30.8750   50.9345 O   0  0  0  0  0  0  0  0  0  0  0  0
   58.3542   29.0291   53.4169 C   0  0  0  0  0  0  0  0  0  0  0  0
   58.8263   29.7204   54.6672 C   0  0  0  0  0  0  0  0  0  0  0  0
   60.0029   29.6248   54.9911 O   0  0  0  0  0  0  0  0  0  0  0  0
   57.9139   30.5351   55.4461 N   0  0  0  0  0  0  0  0  0  0  0  0
   58.5253   31.7994   55.8690 C   0  0  0  0  0  0  0  0  0  0  0  0
   57.8010   32.2315   57.1348 C   0  0  0  0  0  0  0  0  0  0  0  0
   57.1152   30.9788   57.6615 C   0  0  0  0  0  0  0  0  0  0  0  0
   57.4754   29.8726   56.6794 C   0  0  0  0  0  0  0  0  0  0  0  0
   58.3799   30.2211   54.6377 H   0  0  0  0  0  0  0  0  0  0  0  0
  1  2  2  0
  2  3  1  0
  3  4  1  0
  4  5  2  0
  5  9  1  0
  9 10  1  0
 10 11  1  0
 11 12  2  0
 11 13  1  0
 13 14  1  0
 14 15  1  0
  4  6  1  0
  6  7  2  0
  6  8  1  0
  8 16  1  0
 16 17  1  0
 17 18  2  0
 17 19  1  0
 19 20  1  0
 20 21  1  0
 21 22  1  0
 22 23  1  0
  8  2  1  0
 23 19  1  0
 14  9  2  0
 19 24  1  0
M  CHG 1   3  -1
M  CHG 1  10  -1
M  CHG 1  13  -1
M  CHG 1  15  -1
M  CHG 1  19   1
M  END
> <UniqueID>
23

> <SMILES>
C=c1[n-]/c(=C\c2[n-]c(=O)[n-]c2[O-])c(=O)n1CC(=O)[NH+]1CCCC1

> <Energy>
106.41785874349223

> <Genealogy>
C=c1[n-]c(=Cc2[n-]c(=O)[n-]c2[O-])c(=O)n1CC(=O)[NH+]1CCCC1 (protonated)
C=c1[n-]/c(=C\c2[n-]c(=O)[n-]c2[O-])c(=O)n1CC(=O)[NH+]1CCCC1 (cis-trans isomerization)
C=c1[n-]/c(=C\c2[n-]c(=O)[n-]c2[O-])c(=O)n1CC(=O)[NH+]1CCCC1 (3D coordinates assigned)
C=c1[n-]/c(=C\c2[n-]c(=O)[n-]c2[O-])c(=O)n1CC(=O)[NH+]1CCCC1 (nonaromatic ring conformer: 106.41785874349223 kcal/mol)

> <smiles>
C=c1[nH]c(=Cc2[nH]c(=O)[nH]c2O)c(=O)n1CC(=O)N1CCCC1

> <score_type>
oracle

> <origin>
adg

> <m_score__min__energy>
-15.640000000000001

> <m_primary>
energy

> <minimizedAffinity>
-4.33864

> <minimizedRMSD>
2.69240

> <CNNscore>
0.2284095585

> <CNNaffinity>
4.2803578377

> <CNN_VS>
0.9776746631

> <CNNaffinity_variance>
0.1744345874

$$$$
28:0


 30 33  0  0  0  0  0  0  0  0999 V2000
   56.5759   29.9573   43.1744 C   0  0  0  0  0  0  0  0  0  0  0  0
   57.2378   30.0470   44.3321 C   0  0  0  0  0  0  0  0  0  0  0  0
   57.4371   31.1939   44.9389 O   0  0  0  0  0  0  0  0  0  0  0  0
   58.1073   30.9846   46.0457 C   0  0  0  0  0  0  0  0  0  0  0  0
   58.3704   29.6369   46.1844 C   0  0  0  0  0  0  0  0  0  0  0  0
   57.8201   29.0100   45.0651 C   0  0  0  0  0  0  0  0  0  0  0  0
   57.8518   27.7041   44.7238 C   0  0  0  0  0  0  0  0  0  0  0  0
   57.7285   26.5805   45.6780 C   0  0  0  0  0  0  0  0  0  0  0  0
   56.4779   26.1590   46.1586 C   0  0  0  0  0  0  0  0  0  0  0  0
   55.3052   26.7625   45.7160 O   0  0  0  0  0  0  0  0  0  0  0  0
   56.4052   25.1639   47.0791 N   0  0  0  0  0  0  0  0  0  0  0  0
   57.5277   24.5750   47.5647 C   0  0  0  0  0  0  0  0  0  0  0  0
   57.4346   23.6500   48.4116 O   0  0  0  0  0  0  0  0  0  0  0  0
   58.7492   24.9862   47.1410 N   0  0  0  0  0  0  0  0  0  0  0  0
   58.8760   25.9784   46.2208 C   0  0  0  0  0  0  0  0  0  0  0  0
   60.0255   26.3408   45.8572 O   0  0  0  0  0  0  0  0  0  0  0  0
   58.9166   29.0396   47.4171 C   0  0  0  0  0  0  0  0  0  0  0  0
   58.1076   28.5523   48.2546 O   0  0  0  0  0  0  0  0  0  0  0  0
   60.3500   28.8653   47.5787 N   0  0  0  0  0  0  0  0  0  0  0  0
   60.7563   29.1791   48.9637 C   0  0  0  0  0  0  0  0  0  0  0  0
   60.6414   30.6876   49.2883 C   0  0  0  0  0  0  0  0  0  0  0  0
   60.6842   31.5417   48.0758 N   0  0  0  0  0  0  0  0  0  0  0  0
   61.6591   30.9765   47.1193 C   0  0  0  0  0  0  0  0  0  0  0  0
   61.1416   29.6308   46.5782 C   0  0  0  0  0  0  0  0  0  0  0  0
   59.4679   28.9746   48.0020 H   0  0  0  0  0  0  0  0  0  0  0  0
   60.9818   32.9765   48.3555 C   0  0  0  0  0  0  0  0  0  0  0  0
   61.4992   33.6571   47.0796 C   0  0  0  0  0  0  0  0  0  0  0  0
   60.2675   34.1754   46.3392 C   0  0  0  0  0  0  0  0  0  0  0  0
   59.1209   34.1767   47.3444 C   0  0  0  0  0  0  0  0  0  0  0  0
   59.7462   33.8313   48.6845 C   0  0  0  0  0  0  0  0  0  0  0  0
  1  2  2  0
  2  3  1  0
  3  4  1  0
  4  5  2  0
  5 17  1  0
 17 18  2  0
 17 19  1  0
 19 20  1  0
 20 21  1  0
 21 22  1  0
 22 26  1  0
 26 27  1  0
 27 28  1  0
 28 29  1  0
 29 30  1  0
 22 23  1  0
 23 24  1  0
  5  6  1  0
  6  7  2  0
  7  8  1  0
  8  9  2  0
  9 10  1  0
  9 11  1  0
 11 12  1  0
 12 13  2  0
 12 14  1  0
 14 15  1  0
 15 16  2  0
  6  2  1  0
 15  8  1  0
 24 19  1  0
 30 26  1  0
 19 25  1  0
M  CHG 1  10  -1
M  CHG 1  11  -1
M  CHG 1  14  -1
M  CHG 1  19   1
M  END
> <UniqueID>
29

> <SMILES>
C=c1occ(C(=O)[NH+]2CCN(C3CCCC3)CC2)c1=Cc1c([O-])[n-]c(=O)[n-]c1=O

> <Energy>
117.77628956947825

> <Genealogy>
C=c1occ(C(=O)[NH+]2CCN(C3CCCC3)CC2)c1=Cc1c([O-])[n-]c(=O)[n-]c1=O (protonated)
C=c1occ(C(=O)[NH+]2CCN(C3CCCC3)CC2)c1=Cc1c([O-])[n-]c(=O)[n-]c1=O (3D coordinates assigned)
C=c1occ(C(=O)[NH+]2CCN(C3CCCC3)CC2)c1=Cc1c([O-])[n-]c(=O)[n-]c1=O (nonaromatic ring conformer: 117.77628956947825 kcal/mol)

> <smiles>
C=c1occ(C(=O)N2CCN(C3CCCC3)CC2)c1=Cc1c(O)[nH]c(=O)[nH]c1=O

> <score_type>
oracle

> <origin>
adg

> <m_score__min__energy>
-15.52

> <m_primary>
energy

> <minimizedAffinity>
-5.13915

> <minimizedRMSD>
0.36141

> <CNNscore>
0.3017604947

> <CNNaffinity>
6.4034857750

> <CNN_VS>
1.9323190451

> <CNNaffinity_variance>
0.0058560483

$$$$
33:0


 29 32  0  0  0  0  0  0  0  0999 V2000
   60.2194   27.0082   46.4650 C   0  0  0  0  0  0  0  0  0  0  0  0
   59.4219   27.8482   45.7883 C   0  0  0  0  0  0  0  0  0  0  0  0
   58.3033   27.5060   45.0101 C   0  0  0  0  0  0  0  0  0  0  0  0
   57.8553   26.3108   44.5790 C   0  0  0  0  0  0  0  0  0  0  0  0
   57.6751   28.6976   44.6933 C   0  0  0  0  0  0  0  0  0  0  0  0
   58.4458   29.7113   45.2190 C   0  0  0  0  0  0  0  0  0  0  0  0
   58.1588   31.1728   45.0360 C   0  0  0  0  0  0  0  0  0  0  0  0
   59.5127   29.2023   45.8788 N   0  0  0  0  0  0  0  0  0  0  0  0
   57.4430   25.1883   45.4355 C   0  0  0  0  0  0  0  0  0  0  0  0
   58.1131   24.0260   45.5530 N   0  0  0  0  0  0  0  0  0  0  0  0
   57.2945   23.2697   46.3159 C   0  0  0  0  0  0  0  0  0  0  0  0
   57.5864   22.0959   46.6638 O   0  0  0  0  0  0  0  0  0  0  0  0
   56.1348   23.8657   46.6647 N   0  0  0  0  0  0  0  0  0  0  0  0
   56.2391   25.0730   46.0872 C   0  0  0  0  0  0  0  0  0  0  0  0
   55.2529   26.0489   46.1490 O   0  0  0  0  0  0  0  0  0  0  0  0
   60.5250   29.9784   46.6145 C   0  0  0  0  0  0  0  0  0  0  0  0
   60.0653   30.2840   48.0195 C   0  0  0  0  0  0  0  0  0  0  0  0
   59.3886   31.4837   48.2963 C   0  0  0  0  0  0  0  0  0  0  0  0
   58.9467   31.7652   49.5901 C   0  0  0  0  0  0  0  0  0  0  0  0
   59.1618   30.8468   50.6295 C   0  0  0  0  0  0  0  0  0  0  0  0
   59.8268   29.6423   50.3529 C   0  0  0  0  0  0  0  0  0  0  0  0
   60.2697   29.3608   49.0581 C   0  0  0  0  0  0  0  0  0  0  0  0
   58.7145   31.1450   51.9640 N   0  0  0  0  0  0  0  0  0  0  0  0
   57.5182   30.5436   52.4945 C   0  0  0  0  0  0  0  0  0  0  0  0
   56.7749   29.8352   51.7630 O   0  0  0  0  0  0  0  0  0  0  0  0
   57.1000   30.8439   53.9054 C   0  0  0  0  0  0  0  0  0  0  0  0
   58.2004   31.2270   54.7066 O   0  0  0  0  0  0  0  0  0  0  0  0
   58.8550   32.3383   54.1257 C   0  0  0  0  0  0  0  0  0  0  0  0
   59.5966   31.9087   52.8559 C   0  0  0  0  0  0  0  0  0  0  0  0
  1  2  2  0
  2  3  1  0
  3  4  2  0
  4  9  1  0
  9 10  1  0
 10 11  1  0
 11 12  2  0
 11 13  1  0
 13 14  1  0
 14 15  1  0
  3  5  1  0
  5  6  2  0
  6  7  1  0
  6  8  1  0
  8 16  1  0
 16 17  1  0
 17 18  2  0
 18 19  1  0
 19 20  2  0
 20 23  1  0
 23 24  1  0
 24 25  2  0
 24 26  1  0
 26 27  1  0
 27 28  1  0
 28 29  1  0
 20 21  1  0
 21 22  2  0
  8  2  1  0
 22 17  1  0
 14  9  2  0
 29 23  1  0
M  CHG 1  10  -1
M  CHG 1  13  -1
M  CHG 1  15  -1
M  END
> <UniqueID>
34

> <SMILES>
C=c1/c(=C\c2[n-]c(=O)[n-]c2[O-])cc(C)n1Cc1ccc(N2CCOCC2=O)cc1

> <Energy>
128.0042129475211

> <Genealogy>
C=c1c(=Cc2[n-]c(=O)[n-]c2[O-])cc(C)n1Cc1ccc(N2CCOCC2=O)cc1 (protonated)
C=c1/c(=C\c2[n-]c(=O)[n-]c2[O-])cc(C)n1Cc1ccc(N2CCOCC2=O)cc1 (cis-trans isomerization)
C=c1/c(=C\c2[n-]c(=O)[n-]c2[O-])cc(C)n1Cc1ccc(N2CCOCC2=O)cc1 (3D coordinates assigned)
C=c1/c(=C\c2[n-]c(=O)[n-]c2[O-])cc(C)n1Cc1ccc(N2CCOCC2=O)cc1 (nonaromatic ring conformer: 128.0042129475211 kcal/mol)

> <smiles>
C=c1c(=Cc2[nH]c(=O)[nH]c2O)cc(C)n1Cc1ccc(N2CCOCC2=O)cc1

> <score_type>
oracle

> <origin>
adg

> <m_score__min__energy>
-16.670000000000002

> <m_primary>
energy

> <minimizedAffinity>
-8.05923

> <minimizedRMSD>
0.99979

> <CNNscore>
0.3932306170

> <CNNaffinity>
6.4701247215

> <CNN_VS>
2.5442512035

> <CNNaffinity_variance>
0.0189321917

$$$$
40:0


 33 36  0  0  0  0  0  0  0  0999 V2000
   57.2323   29.6531   45.0347 C   0  0  0  0  0  0  0  0  0  0  0  0
   56.1397   29.0245   45.0551 O   0  0  0  0  0  0  0  0  0  0  0  0
   60.7467   26.5140   46.5183 C   0  0  0  0  0  0  0  0  0  0  0  0
   60.0575   27.5387   46.0119 C   0  0  0  0  0  0  0  0  0  0  0  0
   60.6316   28.4845   45.3045 O   0  0  0  0  0  0  0  0  0  0  0  0
   59.7237   29.3582   44.9388 C   0  0  0  0  0  0  0  0  0  0  0  0
   58.4850   28.9797   45.4169 C   0  0  0  0  0  0  0  0  0  0  0  0
   58.6910   27.8006   46.1434 C   0  0  0  0  0  0  0  0  0  0  0  0
   57.8089   27.0697   46.8597 C   0  0  0  0  0  0  0  0  0  0  0  0
   57.3308   25.7263   46.4979 C   0  0  0  0  0  0  0  0  0  0  0  0
   58.0882   24.6201   46.6110 N   0  0  0  0  0  0  0  0  0  0  0  0
   57.2467   23.6261   46.2529 C   0  0  0  0  0  0  0  0  0  0  0  0
   57.5995   22.4184   46.2179 O   0  0  0  0  0  0  0  0  0  0  0  0
   55.9936   24.0263   45.9462 N   0  0  0  0  0  0  0  0  0  0  0  0
   56.0541   25.3567   46.1218 C   0  0  0  0  0  0  0  0  0  0  0  0
   54.9523   26.1962   45.9724 O   0  0  0  0  0  0  0  0  0  0  0  0
   54.1251   25.8417   45.7114 H   0  0  0  0  0  0  0  0  0  0  0  0
   57.2758   31.0275   44.6323 N   0  0  0  0  0  0  0  0  0  0  0  0
   57.9683   32.1007   45.2868 C   0  0  0  0  0  0  0  0  0  0  0  0
   58.2723   33.2475   44.5458 C   0  0  0  0  0  0  0  0  0  0  0  0
   58.9156   34.3294   45.1492 C   0  0  0  0  0  0  0  0  0  0  0  0
   59.2425   34.2814   46.5043 C   0  0  0  0  0  0  0  0  0  0  0  0
   58.9296   33.1544   47.2706 C   0  0  0  0  0  0  0  0  0  0  0  0
   58.2884   32.0606   46.6573 C   0  0  0  0  0  0  0  0  0  0  0  0
   59.2632   33.1694   48.6331 O   0  0  0  0  0  0  0  0  0  0  0  0
   59.1354   32.0534   49.5119 C   0  0  0  0  0  0  0  0  0  0  0  0
   60.4588   31.2675   49.5573 C   0  0  0  0  0  0  0  0  0  0  0  0
   61.6432   32.0186   49.0841 N   0  0  0  0  0  0  0  0  0  0  0  0
   62.7437   32.0941   50.0592 C   0  0  0  0  0  0  0  0  0  0  0  0
   63.8206   33.0806   49.5528 C   0  0  0  0  0  0  0  0  0  0  0  0
   63.6723   33.4034   48.1795 O   0  0  0  0  0  0  0  0  0  0  0  0
   63.4780   32.2243   47.4217 C   0  0  0  0  0  0  0  0  0  0  0  0
   62.1178   31.5842   47.7538 C   0  0  0  0  0  0  0  0  0  0  0  0
  3  4  2  0
  4  5  1  0
  5  6  1  0
  6  7  2  0
  7  1  1  0
  1  2  2  0
  1 18  1  0
 18 19  1  0
 19 20  2  0
 20 21  1  0
 21 22  2  0
 22 23  1  0
 23 25  1  0
 25 26  1  0
 26 27  1  0
 27 28  1  0
 28 29  1  0
 29 30  1  0
 30 31  1  0
 31 32  1  0
 32 33  1  0
 23 24  2  0
  7  8  1  0
  8  9  2  0
  9 10  1  0
 10 11  1  0
 11 12  1  0
 12 13  2  0
 12 14  1  0
 14 15  1  0
 15 16  1  0
  8  4  1  0
 15 10  2  0
 24 19  1  0
 33 28  1  0
 16 17  1  0
M  CHG 1  11  -1
M  CHG 1  14  -1
M  CHG 1  18  -1
M  END
> <UniqueID>
40

> <SMILES>
C=c1occ(C(=O)[N-]c2cccc(OCCN3CCOCC3)c2)c1=Cc1[n-]c(=O)[n-]c1O

> <Energy>
141.5722629566129

> <Genealogy>
C=c1occ(C(=O)[N-]c2cccc(OCCN3CCOCC3)c2)c1=Cc1[n-]c(=O)[n-]c1O (protonated)
C=c1occ(C(=O)[N-]c2cccc(OCCN3CCOCC3)c2)c1=Cc1[n-]c(=O)[n-]c1O (3D coordinates assigned)
C=c1occ(C(=O)[N-]c2cccc(OCCN3CCOCC3)c2)c1=Cc1[n-]c(=O)[n-]c1O (nonaromatic ring conformer: 141.5722629566129 kcal/mol)

> <smiles>
C=c1occ(C(=O)Nc2cccc(OCCN3CCOCC3)c2)c1=Cc1[nH]c(=O)[nH]c1O

> <score_type>
oracle

> <origin>
adg

> <m_score__min__energy>
-15.529999999999999

> <m_primary>
energy

> <minimizedAffinity>
-8.99648

> <minimizedRMSD>
0.84440

> <CNNscore>
0.6262571812

> <CNNaffinity>
7.1485557556

> <CNN_VS>
4.4768342972

> <CNNaffinity_variance>
0.0814602599

$$$$
51:0


 36 40  0  0  0  0  0  0  0  0999 V2000
   57.5211   27.9265   44.1162 C   0  0  0  0  0  0  0  0  0  0  0  0
   57.8809   28.7957   45.0751 C   0  0  0  0  0  0  0  0  0  0  0  0
   58.2664   28.4897   46.3897 C   0  0  0  0  0  0  0  0  0  0  0  0
   58.1893   27.3408   47.0891 C   0  0  0  0  0  0  0  0  0  0  0  0
   58.7907   29.6552   46.9191 C   0  0  0  0  0  0  0  0  0  0  0  0
   58.6467   30.6355   45.9598 C   0  0  0  0  0  0  0  0  0  0  0  0
   58.0817   30.1201   44.8406 N   0  0  0  0  0  0  0  0  0  0  0  0
   57.8841   30.8176   43.5643 C   0  0  0  0  0  0  0  0  0  0  0  0
   58.0053   25.9992   46.5130 C   0  0  0  0  0  0  0  0  0  0  0  0
   59.0133   25.1617   46.1794 N   0  0  0  0  0  0  0  0  0  0  0  0
   58.3805   24.1177   45.5972 C   0  0  0  0  0  0  0  0  0  0  0  0
   58.9890   23.1004   45.1731 O   0  0  0  0  0  0  0  0  0  0  0  0
   57.0414   24.2736   45.5170 N   0  0  0  0  0  0  0  0  0  0  0  0
   56.8091   25.4626   46.0944 C   0  0  0  0  0  0  0  0  0  0  0  0
   55.5523   26.0385   46.2426 O   0  0  0  0  0  0  0  0  0  0  0  0
   56.0548   23.3168   45.0157 C   0  0  0  0  0  0  0  0  0  0  0  0
   55.3500   22.6668   46.1619 C   0  0  0  0  0  0  0  0  0  0  0  0
   55.9450   21.8854   47.1455 C   0  0  0  0  0  0  0  0  0  0  0  0
   55.0216   21.3400   48.0469 C   0  0  0  0  0  0  0  0  0  0  0  0
   53.7035   21.6783   47.7681 C   0  0  0  0  0  0  0  0  0  0  0  0
   53.6844   22.6522   46.3960 S   0  0  0  0  0  0  0  0  0  0  0  0
   59.1351   32.0521   46.1228 C   0  0  0  0  0  0  0  0  0  0  0  0
   59.0814   32.5259   47.5564 C   0  0  0  0  0  0  0  0  0  0  0  0
   57.9848   32.9381   48.0286 O   0  0  0  0  0  0  0  0  0  0  0  0
   60.2596   32.5368   48.3966 N   0  0  0  0  0  0  0  0  0  0  0  0
   60.1850   33.2298   49.6950 C   0  0  0  0  0  0  0  0  0  0  0  0
   61.5219   33.1861   50.4466 C   0  0  0  0  0  0  0  0  0  0  0  0
   62.6769   33.5533   49.4943 C   0  0  0  0  0  0  0  0  0  0  0  0
   62.7388   32.6123   48.2526 C   0  0  0  0  0  0  0  0  0  0  0  0
   61.4698   31.7657   48.0598 C   0  0  0  0  0  0  0  0  0  0  0  0
   63.9696   33.6708   50.2222 N   0  0  0  0  0  0  0  0  0  0  0  0
   64.8036   32.4581   50.0861 C   0  0  0  0  0  0  0  0  0  0  0  0
   66.2581   32.7605   50.4879 C   0  0  0  0  0  0  0  0  0  0  0  0
   66.3561   33.8184   51.6017 C   0  0  0  0  0  0  0  0  0  0  0  0
   65.1003   33.8243   52.4750 C   0  0  0  0  0  0  0  0  0  0  0  0
   63.8461   34.1309   51.6309 C   0  0  0  0  0  0  0  0  0  0  0  0
  1  2  2  0
  2  3  1  0
  3  4  2  0
  4  9  1  0
  9 10  1  0
 10 11  1  0
 11 12  2  0
 11 13  1  0
 13 16  1  0
 16 17  1  0
 17 18  2  0
 18 19  1  0
 19 20  2  0
 20 21  1  0
 13 14  1  0
 14 15  1  0
  3  5  1  0
  5  6  2  0
  6 22  1  0
 22 23  1  0
 23 24  2  0
 23 25  1  0
 25 26  1  0
 26 27  1  0
 27 28  1  0
 28 31  1  0
 31 32  1  0
 32 33  1  0
 33 34  1  0
 34 35  1  0
 35 36  1  0
 28 29  1  0
 29 30  1  0
  6  7  1  0
  7  8  1  0
  7  2  1  0
 14  9  2  0
 30 25  1  0
 21 17  1  0
 36 31  1  0
M  CHG 1  10  -1
M  CHG 1  15  -1
M  END
> <UniqueID>
50

> <SMILES>
C=c1c(=Cc2[n-]c(=O)n(Cc3cccs3)c2[O-])cc(CC(=O)N2CCC(N3CCCCC3)CC2)n1C

> <Energy>
181.20883476051125

> <Genealogy>
C=c1c(=Cc2[n-]c(=O)n(Cc3cccs3)c2[O-])cc(CC(=O)N2CCC(N3CCCCC3)CC2)n1C (protonated)
C=c1c(=Cc2[n-]c(=O)n(Cc3cccs3)c2[O-])cc(CC(=O)N2CCC(N3CCCCC3)CC2)n1C (3D coordinates assigned)
C=c1c(=Cc2[n-]c(=O)n(Cc3cccs3)c2[O-])cc(CC(=O)N2CCC(N3CCCCC3)CC2)n1C (nonaromatic ring conformer: 181.20883476051125 kcal/mol)

> <smiles>
C=c1c(=Cc2[nH]c(=O)n(Cc3cccs3)c2O)cc(CC(=O)N2CCC(N3CCCCC3)CC2)n1C

> <score_type>
oracle

> <origin>
adg

> <m_score__min__energy>
-16.07

> <m_primary>
energy

> <minimizedAffinity>
-8.36197

> <minimizedRMSD>
0.75460

> <CNNscore>
0.0944579318

> <CNNaffinity>
6.7067685127

> <CNN_VS>
0.6335074902

> <CNNaffinity_variance>
0.0701915696

$$$$
54:0


 32 34  0  0  0  0  0  0  0  0999 V2000
   58.2852   30.7585   51.4920 C   0  0  0  0  0  0  0  0  0  0  0  0
   59.0414   30.8971   52.6662 C   0  0  0  0  0  0  0  0  0  0  0  0
   58.4209   30.7237   53.9036 C   0  0  0  0  0  0  0  0  0  0  0  0
   57.0622   30.4115   53.9671 C   0  0  0  0  0  0  0  0  0  0  0  0
   56.3285   30.2695   52.7771 C   0  0  0  0  0  0  0  0  0  0  0  0
   56.9618   30.4533   51.5856 N   0  0  0  0  0  0  0  0  0  0  0  0
   54.8776   29.9446   52.7855 C   0  0  0  0  0  0  0  0  0  0  0  0
   54.3999   28.7478   53.3417 C   0  0  0  0  0  0  0  0  0  0  0  0
   53.0352   28.4575   53.3311 C   0  0  0  0  0  0  0  0  0  0  0  0
   52.1233   29.3495   52.7612 C   0  0  0  0  0  0  0  0  0  0  0  0
   50.7744   29.0145   52.7755 O   0  0  0  0  0  0  0  0  0  0  0  0
   52.5774   30.5572   52.1833 C   0  0  0  0  0  0  0  0  0  0  0  0
   53.9590   30.8363   52.2014 C   0  0  0  0  0  0  0  0  0  0  0  0
   51.6440   31.5363   51.5601 C   0  0  0  0  0  0  0  0  0  0  0  0
   51.3394   31.4866   50.1686 N   0  0  0  0  0  0  0  0  0  0  0  0
   51.1040   32.4312   52.2665 O   0  0  0  0  0  0  0  0  0  0  0  0
   51.7499   30.7963   49.5992 H   0  0  0  0  0  0  0  0  0  0  0  0
   59.6584   29.8908   49.5520 N   0  0  0  0  0  0  0  0  0  0  0  0
   58.9008   30.9480   50.1610 C   0  0  0  0  0  0  0  0  0  0  0  0
   58.7567   32.0454   49.5533 O   0  0  0  0  0  0  0  0  0  0  0  0
   59.8217   29.0671   50.0658 H   0  0  0  0  0  0  0  0  0  0  0  0
   60.1955   29.9940   48.1970 C   0  0  0  0  0  0  0  0  0  0  0  0
   57.8919   27.5939   46.3116 C   0  0  0  0  0  0  0  0  0  0  0  0
   57.4002   28.4453   45.3056 C   0  0  0  0  0  0  0  0  0  0  0  0
   57.8068   29.7790   45.2463 C   0  0  0  0  0  0  0  0  0  0  0  0
   58.7067   30.2820   46.1878 C   0  0  0  0  0  0  0  0  0  0  0  0
   59.2048   29.4510   47.2034 C   0  0  0  0  0  0  0  0  0  0  0  0
   58.7979   28.1078   47.2573 C   0  0  0  0  0  0  0  0  0  0  0  0
   57.4624   26.1777   46.3667 C   0  0  0  0  0  0  0  0  0  0  0  0
   58.3233   25.2579   46.4354 O   0  0  0  0  0  0  0  0  0  0  0  0
   55.6075   24.6226   45.8459 C   0  0  0  0  0  0  0  0  0  0  0  0
   56.0997   25.8623   46.3431 O   0  0  0  0  0  0  0  0  0  0  0  0
 31 32  1  0
 32 29  1  0
 29 30  2  0
 29 23  1  0
 23 24  2  0
 24 25  1  0
 25 26  2  0
 26 27  1  0
 27 22  1  0
 22 18  1  0
 18 19  1  0
 19 20  2  0
 19  1  1  0
  1  2  2  0
  2  3  1  0
  3  4  2  0
  4  5  1  0
  5  7  1  0
  7  8  2  0
  8  9  1  0
  9 10  2  0
 10 11  1  0
 10 12  1  0
 12 14  1  0
 14 15  1  0
 14 16  2  0
 12 13  2  0
  5  6  2  0
 27 28  2  0
 28 23  1  0
  6  1  1  0
 13  7  1  0
 18 21  1  0
 15 17  1  0
M  CHG 1  11  -1
M  CHG 1  15  -1
M  END
> <UniqueID>
53

> <SMILES>
COC(=O)c1cccc(CNC(=O)c2cccc(-c3ccc([O-])c(C([NH-])=O)c3)n2)c1

> <Energy>
52.32472489640564

> <Genealogy>
COC(=O)c1cccc(CNC(=O)c2cccc(-c3ccc([O-])c(C([NH-])=O)c3)n2)c1 (protonated)
COC(=O)c1cccc(CNC(=O)c2cccc(-c3ccc([O-])c(C([NH-])=O)c3)n2)c1 (3D coordinates assigned)
COC(=O)c1cccc(CNC(=O)c2cccc(-c3ccc([O-])c(C([NH-])=O)c3)n2)c1 (optimized conformer: 52.32472489640564 kcal/mol)

> <smiles>
COC(=O)c1cccc(CNC(=O)c2cccc(-c3ccc(O)c(C(N)=O)c3)n2)c1

> <score_type>
oracle

> <origin>
adg

> <m_score__min__energy>
-15.82

> <m_primary>
energy

> <minimizedAffinity>
-8.28274

> <minimizedRMSD>
0.77501

> <CNNscore>
0.3191856146

> <CNNaffinity>
5.8610019684

> <CNN_VS>
1.8707475662

> <CNNaffinity_variance>
0.1833036989

$$$$
61:0


 33 36  0  0  0  0  0  0  0  0999 V2000
   58.0991   31.8426   51.7550 C   0  0  0  0  0  0  0  0  0  0  0  0
   58.3492   32.9213   52.3585 O   0  0  0  0  0  0  0  0  0  0  0  0
   55.5065   28.3256   53.9257 C   0  0  0  0  0  0  0  0  0  0  0  0
   55.8196   29.4105   53.1952 C   0  0  0  0  0  0  0  0  0  0  0  0
   54.9006   30.3127   52.6504 C   0  0  0  0  0  0  0  0  0  0  0  0
   53.5561   30.2189   52.6579 C   0  0  0  0  0  0  0  0  0  0  0  0
   55.6488   31.3063   52.0362 C   0  0  0  0  0  0  0  0  0  0  0  0
   56.9823   30.9898   52.2268 C   0  0  0  0  0  0  0  0  0  0  0  0
   57.0894   29.8172   52.9090 N   0  0  0  0  0  0  0  0  0  0  0  0
   58.3454   29.1308   53.2373 C   0  0  0  0  0  0  0  0  0  0  0  0
   52.6999   30.4778   51.4873 C   0  0  0  0  0  0  0  0  0  0  0  0
   52.6624   29.6760   50.4103 N   0  0  0  0  0  0  0  0  0  0  0  0
   51.7098   30.2371   49.6324 C   0  0  0  0  0  0  0  0  0  0  0  0
   51.3894   29.7693   48.5101 O   0  0  0  0  0  0  0  0  0  0  0  0
   51.1197   31.3311   50.1584 N   0  0  0  0  0  0  0  0  0  0  0  0
   51.7478   31.4644   51.3392 C   0  0  0  0  0  0  0  0  0  0  0  0
   51.4170   32.4377   52.2778 O   0  0  0  0  0  0  0  0  0  0  0  0
   58.8730   31.4662   50.6096 N   0  0  0  0  0  0  0  0  0  0  0  0
   59.3363   32.3279   49.5612 C   0  0  0  0  0  0  0  0  0  0  0  0
   60.4338   33.1895   49.7342 C   0  0  0  0  0  0  0  0  0  0  0  0
   60.8874   33.9670   48.6657 C   0  0  0  0  0  0  0  0  0  0  0  0
   60.2615   33.8866   47.4201 C   0  0  0  0  0  0  0  0  0  0  0  0
   59.1657   33.0301   47.2366 C   0  0  0  0  0  0  0  0  0  0  0  0
   58.7197   32.2441   48.3070 C   0  0  0  0  0  0  0  0  0  0  0  0
   58.3664   32.9262   45.6658 S   0  0  0  0  0  0  0  0  0  0  0  0
   58.7301   34.1437   44.8620 O   0  0  0  0  0  0  0  0  0  0  0  0
   56.8764   32.9452   45.8707 O   0  0  0  0  0  0  0  0  0  0  0  0
   58.8316   31.5009   44.7540 N   0  0  0  0  0  0  0  0  0  0  0  0
   57.9861   31.2750   43.5670 C   0  0  0  0  0  0  0  0  0  0  0  0
   56.6516   30.5696   43.9042 C   0  0  0  0  0  0  0  0  0  0  0  0
   56.5876   30.0996   45.2372 O   0  0  0  0  0  0  0  0  0  0  0  0
   57.7522   29.3684   45.5399 C   0  0  0  0  0  0  0  0  0  0  0  0
   58.9758   30.2996   45.6072 C   0  0  0  0  0  0  0  0  0  0  0  0
  3  4  2  0
  4  5  1  0
  5  6  2  0
  6 11  1  0
 11 12  1  0
 12 13  1  0
 13 14  2  0
 13 15  1  0
 15 16  1  0
 16 17  1  0
  5  7  1  0
  7  8  2  0
  8  1  1  0
  1  2  2  0
  1 18  1  0
 18 19  1  0
 19 20  2  0
 20 21  1  0
 21 22  2  0
 22 23  1  0
 23 25  1  0
 25 26  2  0
 25 27  2  0
 25 28  1  0
 28 29  1  0
 29 30  1  0
 30 31  1  0
 31 32  1  0
 32 33  1  0
 23 24  2  0
  8  9  1  0
  9 10  1  0
  9  4  1  0
 16 11  2  0
 24 19  1  0
 33 28  1  0
M  CHG 1  12  -1
M  CHG 1  15  -1
M  CHG 1  17  -1
M  CHG 1  18  -1
M  END
> <UniqueID>
60

> <SMILES>
C=c1c(=Cc2[n-]c(=O)[n-]c2[O-])cc(C(=O)[N-]c2cccc(S(=O)(=O)N3CCOCC3)c2)n1C

> <Energy>
138.6094338604578

> <Genealogy>
C=c1c(=Cc2[n-]c(=O)[n-]c2[O-])cc(C(=O)[N-]c2cccc(S(=O)(=O)N3CCOCC3)c2)n1C (protonated)
C=c1c(=Cc2[n-]c(=O)[n-]c2[O-])cc(C(=O)[N-]c2cccc(S(=O)(=O)N3CCOCC3)c2)n1C (3D coordinates assigned)
C=c1c(=Cc2[n-]c(=O)[n-]c2[O-])cc(C(=O)[N-]c2cccc(S(=O)(=O)N3CCOCC3)c2)n1C (nonaromatic ring conformer: 138.6094338604578 kcal/mol)

> <smiles>
C=c1c(=Cc2[nH]c(=O)[nH]c2O)cc(C(=O)Nc2cccc(S(=O)(=O)N3CCOCC3)c2)n1C

> <score_type>
oracle

> <origin>
adg

> <m_score__min__energy>
-21.149999999999999

> <m_primary>
energy

> <minimizedAffinity>
-7.51447

> <minimizedRMSD>
0.95494

> <CNNscore>
0.3197607100

> <CNNaffinity>
6.4881415367

> <CNN_VS>
2.0746526718

> <CNNaffinity_variance>
0.1507999748

$$$$
70:0


 34 37  0  0  0  0  0  0  0  0999 V2000
   59.1854   30.6924   46.5927 C   0  0  0  0  0  0  0  0  0  0  0  0
   58.1670   31.5780   46.2267 C   0  0  0  0  0  0  0  0  0  0  0  0
   58.3814   32.9567   46.2767 C   0  0  0  0  0  0  0  0  0  0  0  0
   59.6258   33.4731   46.6880 C   0  0  0  0  0  0  0  0  0  0  0  0
   60.6648   32.5788   47.0280 C   0  0  0  0  0  0  0  0  0  0  0  0
   60.4294   31.1945   46.9910 C   0  0  0  0  0  0  0  0  0  0  0  0
   62.0000   33.0763   47.4344 C   0  0  0  0  0  0  0  0  0  0  0  0
   62.7774   33.5374   46.5548 O   0  0  0  0  0  0  0  0  0  0  0  0
   62.4173   33.0523   48.8126 N   0  0  0  0  0  0  0  0  0  0  0  0
   61.5247   33.5883   49.8482 C   0  0  0  0  0  0  0  0  0  0  0  0
   61.7336   32.8452   51.1695 C   0  0  0  0  0  0  0  0  0  0  0  0
   63.1682   32.7649   51.4867 N   0  0  0  0  0  0  0  0  0  0  0  0
   63.6465   32.9005   52.8457 C   0  0  0  0  0  0  0  0  0  0  0  0
   62.8755   33.6635   53.8799 C   0  0  0  0  0  0  0  0  0  0  0  0
   64.7340   32.3615   53.1860 O   0  0  0  0  0  0  0  0  0  0  0  0
   64.0509   32.2123   50.4495 C   0  0  0  0  0  0  0  0  0  0  0  0
   63.8469   32.9556   49.1288 C   0  0  0  0  0  0  0  0  0  0  0  0
   58.0574   29.1326   44.3309 C   0  0  0  0  0  0  0  0  0  0  0  0
   58.4750   28.5636   45.4722 C   0  0  0  0  0  0  0  0  0  0  0  0
   58.3811   27.2082   45.8328 C   0  0  0  0  0  0  0  0  0  0  0  0
   58.0303   26.1228   45.1175 C   0  0  0  0  0  0  0  0  0  0  0  0
   58.7655   27.1343   47.1625 C   0  0  0  0  0  0  0  0  0  0  0  0
   59.1271   28.4072   47.5472 C   0  0  0  0  0  0  0  0  0  0  0  0
   59.6476   28.7740   48.9045 C   0  0  0  0  0  0  0  0  0  0  0  0
   58.9660   29.2730   46.5223 N   0  0  0  0  0  0  0  0  0  0  0  0
   57.4000   24.9050   45.6547 C   0  0  0  0  0  0  0  0  0  0  0  0
   58.0523   23.7580   45.9187 N   0  0  0  0  0  0  0  0  0  0  0  0
   57.1143   23.0003   46.5275 C   0  0  0  0  0  0  0  0  0  0  0  0
   57.3410   21.8253   46.9190 O   0  0  0  0  0  0  0  0  0  0  0  0
   55.9177   23.6028   46.6931 N   0  0  0  0  0  0  0  0  0  0  0  0
   56.1219   24.8134   46.1482 C   0  0  0  0  0  0  0  0  0  0  0  0
   55.1603   25.8167   46.1089 O   0  0  0  0  0  0  0  0  0  0  0  0
   59.8538   34.8555   46.7866 O   0  0  0  0  0  0  0  0  0  0  0  0
   59.6345   35.7898   45.7358 C   0  0  0  0  0  0  0  0  0  0  0  0
 18 19  2  0
 19 20  1  0
 20 21  2  0
 21 26  1  0
 26 27  1  0
 27 28  1  0
 28 29  2  0
 28 30  1  0
 30 31  1  0
 31 32  1  0
 20 22  1  0
 22 23  2  0
 23 24  1  0
 23 25  1  0
 25  1  1  0
  1  2  2  0
  2  3  1  0
  3  4  2  0
  4 33  1  0
 33 34  1  0
  4  5  1  0
  5  7  1  0
  7  8  2  0
  7  9  1  0
  9 10  1  0
 10 11  1  0
 11 12  1  0
 12 13  1  0
 13 14  1  0
 13 15  2  0
 12 16  1  0
 16 17  1  0
  5  6  2  0
 25 19  1  0
  6  1  1  0
 31 26  2  0
 17  9  1  0
M  CHG 1  27  -1
M  CHG 1  30  -1
M  CHG 1  32  -1
M  END
> <UniqueID>
69

> <SMILES>
C=c1c(=Cc2[n-]c(=O)[n-]c2[O-])cc(C)n1-c1ccc(OC)c(C(=O)N2CCN(C(C)=O)CC2)c1

> <Energy>
139.6319792810822

> <Genealogy>
C=c1c(=Cc2[n-]c(=O)[n-]c2[O-])cc(C)n1-c1ccc(OC)c(C(=O)N2CCN(C(C)=O)CC2)c1 (protonated)
C=c1c(=Cc2[n-]c(=O)[n-]c2[O-])cc(C)n1-c1ccc(OC)c(C(=O)N2CCN(C(C)=O)CC2)c1 (3D coordinates assigned)
C=c1c(=Cc2[n-]c(=O)[n-]c2[O-])cc(C)n1-c1ccc(OC)c(C(=O)N2CCN(C(C)=O)CC2)c1 (nonaromatic ring conformer: 139.6319792810822 kcal/mol)

> <smiles>
C=c1c(=Cc2[nH]c(=O)[nH]c2O)cc(C)n1-c1ccc(OC)c(C(=O)N2CCN(C(C)=O)CC2)c1

> <score_type>
oracle

> <origin>
adg

> <m_score__min__energy>
-17.140000000000001

> <m_primary>
energy

> <minimizedAffinity>
-9.15283

> <minimizedRMSD>
0.92651

> <CNNscore>
0.2386122644

> <CNNaffinity>
7.0240478516

> <CNN_VS>
1.6760239601

> <CNNaffinity_variance>
0.0100718783

$$$$
80:0


 32 35  0  0  0  0  0  0  0  0999 V2000
   52.9688   29.9309   52.2213 C   0  0  0  0  0  0  0  0  0  0  0  0
   54.2910   29.9243   52.4951 C   0  0  0  0  0  0  0  0  0  0  0  0
   55.2434   30.8457   52.0687 C   0  0  0  0  0  0  0  0  0  0  0  0
   56.4557   30.4140   52.5711 C   0  0  0  0  0  0  0  0  0  0  0  0
   56.2996   29.2891   53.2908 N   0  0  0  0  0  0  0  0  0  0  0  0
   54.9897   28.9743   53.2461 C   0  0  0  0  0  0  0  0  0  0  0  0
   54.4884   27.8973   53.8636 C   0  0  0  0  0  0  0  0  0  0  0  0
   57.0068   28.7906   53.7607 H   0  0  0  0  0  0  0  0  0  0  0  0
   51.4649   32.1177   50.6385 O   0  0  0  0  0  0  0  0  0  0  0  0
   51.3192   31.8641   52.0001 C   0  0  0  0  0  0  0  0  0  0  0  0
   50.4678   32.5453   52.7852 N   0  0  0  0  0  0  0  0  0  0  0  0
   50.6560   31.9766   53.9950 C   0  0  0  0  0  0  0  0  0  0  0  0
   50.0261   32.3431   55.0215 O   0  0  0  0  0  0  0  0  0  0  0  0
   51.5678   30.9834   54.0156 N   0  0  0  0  0  0  0  0  0  0  0  0
   51.9984   30.9189   52.7423 C   0  0  0  0  0  0  0  0  0  0  0  0
   50.9519   32.7863   50.2290 H   0  0  0  0  0  0  0  0  0  0  0  0
   57.7653   31.1290   52.4103 C   0  0  0  0  0  0  0  0  0  0  0  0
   58.6213   30.4934   51.3476 C   0  0  0  0  0  0  0  0  0  0  0  0
   58.4540   29.2736   51.0633 O   0  0  0  0  0  0  0  0  0  0  0  0
   59.5974   31.2661   50.6176 N   0  0  0  0  0  0  0  0  0  0  0  0
   59.3750   32.6638   50.2764 C   0  0  0  0  0  0  0  0  0  0  0  0
   58.8008   32.7587   48.8608 C   0  0  0  0  0  0  0  0  0  0  0  0
   59.3133   31.7418   47.9048 N   0  0  0  0  0  0  0  0  0  0  0  0
   60.1138   30.5674   48.3375 C   0  0  0  0  0  0  0  0  0  0  0  0
   60.5988   30.6158   49.7874 C   0  0  0  0  0  0  0  0  0  0  0  0
   58.8754   31.8130   46.5096 C   0  0  0  0  0  0  0  0  0  0  0  0
   58.5390   30.6439   45.7816 C   0  0  0  0  0  0  0  0  0  0  0  0
   58.1221   30.7164   44.4492 C   0  0  0  0  0  0  0  0  0  0  0  0
   58.0255   31.9497   43.8090 C   0  0  0  0  0  0  0  0  0  0  0  0
   57.5009   32.0352   42.1368 Cl  0  0  0  0  0  0  0  0  0  0  0  0
   58.3403   33.1169   44.5033 C   0  0  0  0  0  0  0  0  0  0  0  0
   58.7580   33.0553   45.8356 C   0  0  0  0  0  0  0  0  0  0  0  0
  9 10  1  0
 10 11  1  0
 11 12  1  0
 12 13  2  0
 12 14  1  0
 14 15  1  0
 15  1  1  0
  1  2  2  0
  2  3  1  0
  3  4  2  0
  4 17  1  0
 17 18  1  0
 18 19  2  0
 18 20  1  0
 20 21  1  0
 21 22  1  0
 22 23  1  0
 23 26  1  0
 26 27  2  0
 27 28  1  0
 28 29  2  0
 29 30  1  0
 29 31  1  0
 31 32  2  0
 23 24  1  0
 24 25  1  0
  4  5  1  0
  5  6  1  0
  6  7  2  0
 15 10  2  0
  6  2  1  0
 25 20  1  0
 32 26  1  0
  9 16  1  0
  5  8  1  0
M  CHG 1  11  -1
M  CHG 1  14  -1
M  END
> <UniqueID>
79

> <SMILES>
C=c1[nH]c(CC(=O)N2CCN(c3ccc(Cl)cc3)CC2)c/c1=C\c1[n-]c(=O)[n-]c1O

> <Energy>
123.2043957595078

> <Genealogy>
C=c1[nH]c(CC(=O)N2CCN(c3ccc(Cl)cc3)CC2)cc1=Cc1[n-]c(=O)[n-]c1O (protonated)
C=c1[nH]c(CC(=O)N2CCN(c3ccc(Cl)cc3)CC2)c/c1=C\c1[n-]c(=O)[n-]c1O (cis-trans isomerization)
C=c1[nH]c(CC(=O)N2CCN(c3ccc(Cl)cc3)CC2)c/c1=C\c1[n-]c(=O)[n-]c1O (3D coordinates assigned)
C=c1[nH]c(CC(=O)N2CCN(c3ccc(Cl)cc3)CC2)c/c1=C\c1[n-]c(=O)[n-]c1O (nonaromatic ring conformer: 123.2043957595078 kcal/mol)

> <smiles>
C=c1[nH]c(CC(=O)N2CCN(c3ccc(Cl)cc3)CC2)cc1=Cc1[nH]c(=O)[nH]c1O

> <score_type>
oracle

> <origin>
adg

> <m_score__min__energy>
-14.779999999999999

> <m_primary>
energy

> <minimizedAffinity>
-8.51682

> <minimizedRMSD>
0.54258

> <CNNscore>
0.2380290478

> <CNNaffinity>
5.6402449608

> <CNN_VS>
1.3425421715

> <CNNaffinity_variance>
0.7006600499

$$$$
83:0


 29 31  0  0  0  0  0  0  0  0999 V2000
   60.8620   32.4841   48.1189 C   0  0  0  0  0  0  0  0  0  0  0  0
   62.0653   32.8353   47.9650 O   0  0  0  0  0  0  0  0  0  0  0  0
   60.5069   31.0890   47.9952 N   0  0  0  0  0  0  0  0  0  0  0  0
   61.4411   30.1377   47.3828 C   0  0  0  0  0  0  0  0  0  0  0  0
   60.6655   29.2061   46.4450 C   0  0  0  0  0  0  0  0  0  0  0  0
   59.5314   28.5051   47.1094 N   0  0  0  0  0  0  0  0  0  0  0  0
   59.1576   29.0569   48.4336 C   0  0  0  0  0  0  0  0  0  0  0  0
   59.2103   30.5913   48.4731 C   0  0  0  0  0  0  0  0  0  0  0  0
   59.8465   33.5092   48.4616 C   0  0  0  0  0  0  0  0  0  0  0  0
   59.1060   34.1824   47.5676 C   0  0  0  0  0  0  0  0  0  0  0  0
   58.6899   33.6713   46.2436 C   0  0  0  0  0  0  0  0  0  0  0  0
   59.2065   34.2155   45.0535 C   0  0  0  0  0  0  0  0  0  0  0  0
   58.8303   33.6878   43.8162 C   0  0  0  0  0  0  0  0  0  0  0  0
   57.9532   32.6001   43.7542 C   0  0  0  0  0  0  0  0  0  0  0  0
   57.5806   32.0802   42.5194 O   0  0  0  0  0  0  0  0  0  0  0  0
   57.4567   32.0342   44.9354 C   0  0  0  0  0  0  0  0  0  0  0  0
   56.5936   30.9479   44.8805 O   0  0  0  0  0  0  0  0  0  0  0  0
   57.8329   32.5625   46.1749 C   0  0  0  0  0  0  0  0  0  0  0  0
   58.3570   28.3880   46.2182 C   0  0  0  0  0  0  0  0  0  0  0  0
   57.9184   26.9503   46.0990 C   0  0  0  0  0  0  0  0  0  0  0  0
   56.5534   26.6313   46.1229 C   0  0  0  0  0  0  0  0  0  0  0  0
   56.1385   25.2998   46.0379 C   0  0  0  0  0  0  0  0  0  0  0  0
   54.7816   24.9986   46.0593 O   0  0  0  0  0  0  0  0  0  0  0  0
   57.0862   24.2753   45.9318 C   0  0  0  0  0  0  0  0  0  0  0  0
   56.6650   22.9524   45.8486 O   0  0  0  0  0  0  0  0  0  0  0  0
   58.4547   24.5752   45.9135 C   0  0  0  0  0  0  0  0  0  0  0  0
   58.8677   25.9192   45.9981 C   0  0  0  0  0  0  0  0  0  0  0  0
   59.3709   23.5154   45.8123 O   0  0  0  0  0  0  0  0  0  0  0  0
   59.3085   22.4862   44.8301 C   0  0  0  0  0  0  0  0  0  0  0  0
  9  1  1  0
  1  2  2  0
  1  3  1  0
  3  4  1  0
  4  5  1  0
  5  6  1  0
  6 19  1  0
 19 20  1  0
 20 21  2  0
 21 22  1  0
 22 23  1  0
 22 24  2  0
 24 25  1  0
 24 26  1  0
 26 28  1  0
 28 29  1  0
 26 27  2  0
  6  7  1  0
  7  8  1  0
  9 10  2  0
 10 11  1  0
 11 12  2  0
 12 13  1  0
 13 14  2  0
 14 15  1  0
 14 16  1  0
 16 17  1  0
 16 18  2  0
  8  3  1  0
 18 11  1  0
 27 20  1  0
M  CHG 1  15  -1
M  CHG 1  17  -1
M  CHG 1  23  -1
M  CHG 1  25  -1
M  END
> <UniqueID>
82

> <SMILES>
COc1cc(CN2CCN(C(=O)/C=C\c3ccc([O-])c([O-])c3)CC2)cc([O-])c1[O-]

> <Energy>
67.18519581446647

> <Genealogy>
COc1cc(CN2CCN(C(=O)C=Cc3ccc([O-])c([O-])c3)CC2)cc([O-])c1[O-] (protonated)
COc1cc(CN2CCN(C(=O)/C=C\c3ccc([O-])c([O-])c3)CC2)cc([O-])c1[O-] (cis-trans isomerization)
COc1cc(CN2CCN(C(=O)/C=C\c3ccc([O-])c([O-])c3)CC2)cc([O-])c1[O-] (3D coordinates assigned)
COc1cc(CN2CCN(C(=O)/C=C\c3ccc([O-])c([O-])c3)CC2)cc([O-])c1[O-] (nonaromatic ring conformer: 67.18519581446647 kcal/mol)

> <smiles>
COc1cc(CN2CCN(C(=O)C=Cc3ccc(O)c(O)c3)CC2)cc(O)c1O

> <score_type>
oracle

> <origin>
adg

> <m_score__min__energy>
-18.100000000000001

> <m_primary>
energy

> <minimizedAffinity>
-6.57195

> <minimizedRMSD>
0.88297

> <CNNscore>
0.1673324108

> <CNNaffinity>
6.0830445290

> <CNN_VS>
1.0178904533

> <CNNaffinity_variance>
0.2211715430

$$$$
85:0


 25 27  0  0  0  0  0  0  0  0999 V2000
   57.3845   31.2647   43.8143 C   0  0  0  0  0  0  0  0  0  0  0  0
   58.0482   31.3978   44.9719 C   0  0  0  0  0  0  0  0  0  0  0  0
   57.8076   32.5321   45.6763 N   0  0  0  0  0  0  0  0  0  0  0  0
   58.5379   32.8893   46.7552 C   0  0  0  0  0  0  0  0  0  0  0  0
   58.2363   33.9465   47.3747 O   0  0  0  0  0  0  0  0  0  0  0  0
   59.5945   32.1231   47.1533 N   0  0  0  0  0  0  0  0  0  0  0  0
   59.8736   30.9464   46.5075 C   0  0  0  0  0  0  0  0  0  0  0  0
   60.8572   30.2494   46.8894 O   0  0  0  0  0  0  0  0  0  0  0  0
   59.0557   30.4944   45.4361 C   0  0  0  0  0  0  0  0  0  0  0  0
   59.2614   29.2392   44.9447 C   0  0  0  0  0  0  0  0  0  0  0  0
   58.8823   27.9664   45.5938 C   0  0  0  0  0  0  0  0  0  0  0  0
   59.8731   27.2111   46.2380 C   0  0  0  0  0  0  0  0  0  0  0  0
   59.5434   26.0158   46.8827 C   0  0  0  0  0  0  0  0  0  0  0  0
   58.2175   25.5761   46.9073 C   0  0  0  0  0  0  0  0  0  0  0  0
   57.2154   26.3368   46.2979 C   0  0  0  0  0  0  0  0  0  0  0  0
   55.8964   25.9005   46.3412 O   0  0  0  0  0  0  0  0  0  0  0  0
   57.5399   27.5371   45.6517 C   0  0  0  0  0  0  0  0  0  0  0  0
   56.5266   28.3037   45.0830 O   0  0  0  0  0  0  0  0  0  0  0  0
   60.4056   32.5457   48.2716 C   0  0  0  0  0  0  0  0  0  0  0  0
   61.5259   33.3673   48.0628 C   0  0  0  0  0  0  0  0  0  0  0  0
   62.3111   33.7744   49.1454 C   0  0  0  0  0  0  0  0  0  0  0  0
   61.9846   33.3640   50.4428 C   0  0  0  0  0  0  0  0  0  0  0  0
   62.9710   33.8753   51.8005 Cl  0  0  0  0  0  0  0  0  0  0  0  0
   60.8704   32.5458   50.6561 C   0  0  0  0  0  0  0  0  0  0  0  0
   60.0835   32.1364   49.5753 C   0  0  0  0  0  0  0  0  0  0  0  0
  1  2  2  0
  2  3  1  0
  3  4  1  0
  4  5  2  0
  4  6  1  0
  6 19  1  0
 19 20  2  0
 20 21  1  0
 21 22  2  0
 22 23  1  0
 22 24  1  0
 24 25  2  0
  6  7  1  0
  7  8  2  0
  7  9  1  0
  9 10  2  0
 10 11  1  0
 11 12  2  0
 12 13  1  0
 13 14  2  0
 14 15  1  0
 15 16  1  0
 15 17  2  0
 17 18  1  0
  9  2  1  0
 17 11  1  0
 25 19  1  0
M  CHG 1   3  -1
M  CHG 1  16  -1
M  CHG 1  18  -1
M  END
> <UniqueID>
83

> <SMILES>
C=c1[n-]c(=O)n(-c2ccc(Cl)cc2)c(=O)/c1=C/c1cccc([O-])c1[O-]

> <Energy>
72.84745540415331

> <Genealogy>
C=c1[n-]c(=O)n(-c2ccc(Cl)cc2)c(=O)c1=Cc1cccc([O-])c1[O-] (protonated)
C=c1[n-]c(=O)n(-c2ccc(Cl)cc2)c(=O)/c1=C/c1cccc([O-])c1[O-] (cis-trans isomerization)
C=c1[n-]c(=O)n(-c2ccc(Cl)cc2)c(=O)/c1=C/c1cccc([O-])c1[O-] (3D coordinates assigned)
C=c1[n-]c(=O)n(-c2ccc(Cl)cc2)c(=O)/c1=C/c1cccc([O-])c1[O-] (optimized conformer: 72.84745540415331 kcal/mol)

> <smiles>
C=c1[nH]c(=O)n(-c2ccc(Cl)cc2)c(=O)c1=Cc1cccc(O)c1O

> <score_type>
oracle

> <origin>
adg

> <m_score__min__energy>
-16.93

> <m_primary>
energy

> <minimizedAffinity>
-8.44554

> <minimizedRMSD>
1.55813

> <CNNscore>
0.3847229481

> <CNNaffinity>
6.3395099640

> <CNN_VS>
2.4389550686

> <CNNaffinity_variance>
0.0907161608

$$$$
89:0


 25 27  0  0  0  0  0  0  0  0999 V2000
   58.6352   29.7875   45.2324 C   0  0  0  0  0  0  0  0  0  0  0  0
   57.4805   30.4641   44.8329 C   0  0  0  0  0  0  0  0  0  0  0  0
   56.5334   29.8392   44.0289 O   0  0  0  0  0  0  0  0  0  0  0  0
   57.2716   31.7390   45.2382 N   0  0  0  0  0  0  0  0  0  0  0  0
   58.1692   32.3938   46.0163 C   0  0  0  0  0  0  0  0  0  0  0  0
   57.9212   33.5814   46.3621 O   0  0  0  0  0  0  0  0  0  0  0  0
   59.3275   31.7733   46.4145 N   0  0  0  0  0  0  0  0  0  0  0  0
   59.5747   30.4811   46.0155 C   0  0  0  0  0  0  0  0  0  0  0  0
   60.6543   29.9101   46.3359 O   0  0  0  0  0  0  0  0  0  0  0  0
   57.0543   24.1685   45.2541 C   0  0  0  0  0  0  0  0  0  0  0  0
   57.5320   25.3704   45.5548 C   0  0  0  0  0  0  0  0  0  0  0  0
   57.5984   25.8385   46.8215 N   0  0  0  0  0  0  0  0  0  0  0  0
   58.1303   27.0614   46.6652 C   0  0  0  0  0  0  0  0  0  0  0  0
   58.3282   27.8547   47.6237 O   0  0  0  0  0  0  0  0  0  0  0  0
   58.3781   27.3101   45.3272 C   0  0  0  0  0  0  0  0  0  0  0  0
   58.8866   28.4111   44.7541 C   0  0  0  0  0  0  0  0  0  0  0  0
   57.9894   26.2335   44.6182 N   0  0  0  0  0  0  0  0  0  0  0  0
   60.3221   32.5154   47.2163 C   0  0  0  0  0  0  0  0  0  0  0  0
   60.3594   32.0112   48.6661 C   0  0  0  0  0  0  0  0  0  0  0  0
   61.7523   32.0602   49.2378 C   0  0  0  0  0  0  0  0  0  0  0  0
   62.1301   31.1734   50.2598 C   0  0  0  0  0  0  0  0  0  0  0  0
   63.4377   31.1832   50.7530 C   0  0  0  0  0  0  0  0  0  0  0  0
   64.3791   32.0691   50.2240 C   0  0  0  0  0  0  0  0  0  0  0  0
   64.0152   32.9492   49.2012 C   0  0  0  0  0  0  0  0  0  0  0  0
   62.7063   32.9445   48.7071 C   0  0  0  0  0  0  0  0  0  0  0  0
 10 11  2  0
 11 12  1  0
 12 13  1  0
 13 14  2  0
 13 15  1  0
 15 16  2  0
 16  1  1  0
  1  2  2  0
  2  3  1  0
  2  4  1  0
  4  5  1  0
  5  6  2  0
  5  7  1  0
  7 18  1  0
 18 19  1  0
 19 20  1  0
 20 21  2  0
 21 22  1  0
 22 23  2  0
 23 24  1  0
 24 25  2  0
  7  8  1  0
  8  9  2  0
 15 17  1  0
 17 11  1  0
  8  1  1  0
 25 20  1  0
M  CHG 1   3  -1
M  CHG 1   4  -1
M  CHG 1  12  -1
M  CHG 1  17  -1
M  END
> <UniqueID>
87

> <SMILES>
C=c1[n-]c(=O)c(=Cc2c([O-])[n-]c(=O)n(CCc3ccccc3)c2=O)[n-]1

> <Energy>
78.49866918908725

> <Genealogy>
C=c1[n-]c(=O)c(=Cc2c([O-])[n-]c(=O)n(CCc3ccccc3)c2=O)[n-]1 (protonated)
C=c1[n-]c(=O)c(=Cc2c([O-])[n-]c(=O)n(CCc3ccccc3)c2=O)[n-]1 (3D coordinates assigned)
C=c1[n-]c(=O)c(=Cc2c([O-])[n-]c(=O)n(CCc3ccccc3)c2=O)[n-]1 (optimized conformer: 78.49866918908725 kcal/mol)

> <smiles>
C=c1[nH]c(=O)c(=Cc2c(O)[nH]c(=O)n(CCc3ccccc3)c2=O)[nH]1

> <score_type>
oracle

> <origin>
adg

> <m_score__min__energy>
-15.02

> <m_primary>
energy

> <minimizedAffinity>
-8.14859

> <minimizedRMSD>
2.39679

> <CNNscore>
0.3962966800

> <CNNaffinity>
6.4141292572

> <CNN_VS>
2.5418980122

> <CNNaffinity_variance>
0.3370292485

$$$$
92:0


 31 34  0  0  0  0  0  0  0  0999 V2000
   56.6619   27.3625   54.0773 C   0  0  0  0  0  0  0  0  0  0  0  0
   56.7283   28.6847   54.3142 C   0  0  0  0  0  0  0  0  0  0  0  0
   55.6506   29.5831   54.2792 C   0  0  0  0  0  0  0  0  0  0  0  0
   54.3207   29.3753   54.2397 C   0  0  0  0  0  0  0  0  0  0  0  0
   56.2020   30.8479   54.3107 C   0  0  0  0  0  0  0  0  0  0  0  0
   57.5661   30.6932   54.4557 C   0  0  0  0  0  0  0  0  0  0  0  0
   57.8934   29.3766   54.4602 N   0  0  0  0  0  0  0  0  0  0  0  0
   53.3977   29.8806   53.2080 C   0  0  0  0  0  0  0  0  0  0  0  0
   53.5102   29.6363   51.8893 N   0  0  0  0  0  0  0  0  0  0  0  0
   52.3683   30.1486   51.3787 C   0  0  0  0  0  0  0  0  0  0  0  0
   52.1041   30.1224   50.1479 O   0  0  0  0  0  0  0  0  0  0  0  0
   51.5243   30.6712   52.2936 N   0  0  0  0  0  0  0  0  0  0  0  0
   52.1847   30.4798   53.4463 C   0  0  0  0  0  0  0  0  0  0  0  0
   51.6866   30.8420   54.6911 O   0  0  0  0  0  0  0  0  0  0  0  0
   58.5403   31.8456   54.5057 C   0  0  0  0  0  0  0  0  0  0  0  0
   58.4737   32.6965   53.2357 C   0  0  0  0  0  0  0  0  0  0  0  0
   59.2646   28.8380   54.5118 C   0  0  0  0  0  0  0  0  0  0  0  0
   60.1204   29.4315   53.4203 C   0  0  0  0  0  0  0  0  0  0  0  0
   61.3391   30.0568   53.7322 C   0  0  0  0  0  0  0  0  0  0  0  0
   62.1227   30.6216   52.7235 C   0  0  0  0  0  0  0  0  0  0  0  0
   61.7101   30.5611   51.3816 C   0  0  0  0  0  0  0  0  0  0  0  0
   60.4993   29.9222   51.0686 C   0  0  0  0  0  0  0  0  0  0  0  0
   59.7146   29.3581   52.0776 C   0  0  0  0  0  0  0  0  0  0  0  0
   62.5041   31.1682   50.3421 N   0  0  0  0  0  0  0  0  0  0  0  0
   61.9345   31.4317   49.0178 C   0  0  0  0  0  0  0  0  0  0  0  0
   62.1697   32.8940   48.6527 C   0  0  0  0  0  0  0  0  0  0  0  0
   63.5752   33.2544   48.8312 N   0  0  0  0  0  0  0  0  0  0  0  0
   64.3919   32.6374   49.8353 C   0  0  0  0  0  0  0  0  0  0  0  0
   65.5231   33.1251   50.1037 O   0  0  0  0  0  0  0  0  0  0  0  0
   63.9414   31.3848   50.5334 C   0  0  0  0  0  0  0  0  0  0  0  0
   63.9718   33.9394   48.2458 H   0  0  0  0  0  0  0  0  0  0  0  0
  1  2  2  0
  2  3  1  0
  3  4  2  0
  4  8  1  0
  8  9  1  0
  9 10  1  0
 10 11  2  0
 10 12  1  0
 12 13  1  0
 13 14  1  0
  3  5  1  0
  5  6  2  0
  6 15  1  0
 15 16  1  0
  6  7  1  0
  7 17  1  0
 17 18  1  0
 18 19  2  0
 19 20  1  0
 20 21  2  0
 21 24  1  0
 24 25  1  0
 25 26  1  0
 26 27  1  0
 27 28  1  0
 28 29  2  0
 28 30  1  0
 21 22  1  0
 22 23  2  0
  7  2  1  0
 23 18  1  0
 13  8  2  0
 30 24  1  0
 27 31  1  0
M  CHG 1   9  -1
M  CHG 1  12  -1
M  CHG 1  14  -1
M  END
> <UniqueID>
90

> <SMILES>
C=c1c(=Cc2[n-]c(=O)[n-]c2[O-])cc(CC)n1Cc1ccc(N2CCNC(=O)C2)cc1

> <Energy>
125.4442163486197

> <Genealogy>
C=c1c(=Cc2[n-]c(=O)[n-]c2[O-])cc(CC)n1Cc1ccc(N2CCNC(=O)C2)cc1 (protonated)
C=c1c(=Cc2[n-]c(=O)[n-]c2[O-])cc(CC)n1Cc1ccc(N2CCNC(=O)C2)cc1 (3D coordinates assigned)
C=c1c(=Cc2[n-]c(=O)[n-]c2[O-])cc(CC)n1Cc1ccc(N2CCNC(=O)C2)cc1 (nonaromatic ring conformer: 125.4442163486197 kcal/mol)

> <smiles>
C=c1c(=Cc2[nH]c(=O)[nH]c2O)cc(CC)n1Cc1ccc(N2CCNC(=O)C2)cc1

> <score_type>
oracle

> <origin>
adg

> <m_score__min__energy>
-16.84

> <m_primary>
energy

> <minimizedAffinity>
-5.19291

> <minimizedRMSD>
2.29170

> <CNNscore>
0.0810789540

> <CNNaffinity>
5.1399188042

> <CNN_VS>
0.4167392552

> <CNNaffinity_variance>
0.0379579104

$$$$
10:0


 32 35  0  0  0  0  0  0  0  0999 V2000
   56.2897   31.4916   52.7122 C   0  0  0  0  0  0  0  0  0  0  0  0
   55.9263   30.2913   53.1951 C   0  0  0  0  0  0  0  0  0  0  0  0
   54.6188   29.8488   53.4269 C   0  0  0  0  0  0  0  0  0  0  0  0
   53.4773   30.5374   53.2130 C   0  0  0  0  0  0  0  0  0  0  0  0
   54.7315   28.5393   53.8755 C   0  0  0  0  0  0  0  0  0  0  0  0
   56.0773   28.2377   53.8946 C   0  0  0  0  0  0  0  0  0  0  0  0
   56.6499   26.9534   54.4130 C   0  0  0  0  0  0  0  0  0  0  0  0
   56.8037   29.3053   53.5011 N   0  0  0  0  0  0  0  0  0  0  0  0
   58.2373   29.3533   53.3995 C   0  0  0  0  0  0  0  0  0  0  0  0
   58.9259   29.4470   54.4512 O   0  0  0  0  0  0  0  0  0  0  0  0
   58.8890   29.3257   52.1155 N   0  0  0  0  0  0  0  0  0  0  0  0
   58.2170   29.9061   50.9461 C   0  0  0  0  0  0  0  0  0  0  0  0
   59.0780   29.7940   49.6826 C   0  0  0  0  0  0  0  0  0  0  0  0
   60.4740   30.1557   49.9674 N   0  0  0  0  0  0  0  0  0  0  0  0
   61.2843   30.6957   48.9042 C   0  0  0  0  0  0  0  0  0  0  0  0
   61.0501   30.3536   47.7132 O   0  0  0  0  0  0  0  0  0  0  0  0
   61.1337   29.6446   51.1817 C   0  0  0  0  0  0  0  0  0  0  0  0
   60.2134   28.7130   51.9713 C   0  0  0  0  0  0  0  0  0  0  0  0
   52.7486   30.5911   51.9294 C   0  0  0  0  0  0  0  0  0  0  0  0
   52.9082   29.7390   50.9016 N   0  0  0  0  0  0  0  0  0  0  0  0
   52.0004   30.1637   49.9951 C   0  0  0  0  0  0  0  0  0  0  0  0
   51.8434   29.6040   48.8797 O   0  0  0  0  0  0  0  0  0  0  0  0
   51.2623   31.2244   50.3864 N   0  0  0  0  0  0  0  0  0  0  0  0
   51.7442   31.4783   51.6138 C   0  0  0  0  0  0  0  0  0  0  0  0
   51.2819   32.5059   52.4266 O   0  0  0  0  0  0  0  0  0  0  0  0
   62.4127   31.6107   49.1824 C   0  0  0  0  0  0  0  0  0  0  0  0
   62.7393   31.9862   50.4945 C   0  0  0  0  0  0  0  0  0  0  0  0
   63.8432   32.8070   50.7357 C   0  0  0  0  0  0  0  0  0  0  0  0
   64.5985   33.2677   49.6578 C   0  0  0  0  0  0  0  0  0  0  0  0
   64.2507   32.9323   48.3860 N   0  0  0  0  0  0  0  0  0  0  0  0
   63.1819   32.1286   48.1283 C   0  0  0  0  0  0  0  0  0  0  0  0
   64.7840   33.2786   47.6345 H   0  0  0  0  0  0  0  0  0  0  0  0
  1  2  2  0
  2  3  1  0
  3  4  2  0
  4 19  1  0
 19 20  1  0
 20 21  1  0
 21 22  2  0
 21 23  1  0
 23 24  1  0
 24 25  1  0
  3  5  1  0
  5  6  2  0
  6  7  1  0
  6  8  1  0
  8  9  1  0
  9 10  2  0
  9 11  1  0
 11 12  1  0
 12 13  1  0
 13 14  1  0
 14 15  1  0
 15 16  2  0
 15 26  1  0
 26 27  2  0
 27 28  1  0
 28 29  2  0
 29 30  1  0
 30 31  2  0
 14 17  1  0
 17 18  1  0
  8  2  1  0
 18 11  1  0
 24 19  2  0
 31 26  1  0
 30 32  1  0
M  CHG 1  20  -1
M  CHG 1  23  -1
M  CHG 1  25  -1
M  CHG 1  30   1
M  END
> <UniqueID>
11

> <SMILES>
C=c1/c(=C/c2[n-]c(=O)[n-]c2[O-])cc(C)n1C(=O)N1CCN(C(=O)c2ccc[nH+]c2)CC1

> <Energy>
127.9685654998699

> <Genealogy>
C=c1c(=Cc2[n-]c(=O)[n-]c2[O-])cc(C)n1C(=O)N1CCN(C(=O)c2ccc[nH+]c2)CC1 (protonated)
C=c1/c(=C/c2[n-]c(=O)[n-]c2[O-])cc(C)n1C(=O)N1CCN(C(=O)c2ccc[nH+]c2)CC1 (cis-trans isomerization)
C=c1/c(=C/c2[n-]c(=O)[n-]c2[O-])cc(C)n1C(=O)N1CCN(C(=O)c2ccc[nH+]c2)CC1 (3D coordinates assigned)
C=c1/c(=C/c2[n-]c(=O)[n-]c2[O-])cc(C)n1C(=O)N1CCN(C(=O)c2ccc[nH+]c2)CC1 (nonaromatic ring conformer: 127.9685654998699 kcal/mol)

> <smiles>
C=c1c(=Cc2[nH]c(=O)[nH]c2O)cc(C)n1C(=O)N1CCN(C(=O)c2cccnc2)CC1

> <score_type>
oracle

> <origin>
adg

> <m_score__min__energy>
-15.65

> <m_primary>
energy

> <minimizedAffinity>
-6.59061

> <minimizedRMSD>
0.78290

> <CNNscore>
0.0392217375

> <CNNaffinity>
4.5635728836

> <CNN_VS>
0.1789912581

> <CNNaffinity_variance>
0.6582726836

$$$$
11:0


 28 30  0  0  0  0  0  0  0  0999 V2000
   58.1249   31.4642   45.0735 N   0  0  0  0  0  0  0  0  0  0  0  0
   58.6423   32.0318   46.2650 C   0  0  0  0  0  0  0  0  0  0  0  0
   58.8229   31.3967   47.3380 O   0  0  0  0  0  0  0  0  0  0  0  0
   58.9665   33.4321   46.0312 C   0  0  0  0  0  0  0  0  0  0  0  0
   58.7094   33.7590   44.8050 N   0  0  0  0  0  0  0  0  0  0  0  0
   58.2181   32.5715   44.1770 C   0  0  0  0  0  0  0  0  0  0  0  0
   57.8238   32.5068   42.5898 S   0  0  0  0  0  0  0  0  0  0  0  0
   58.1266   30.0436   44.7280 C   0  0  0  0  0  0  0  0  0  0  0  0
   55.7642   30.2665   44.4787 O   0  0  0  0  0  0  0  0  0  0  0  0
   56.7316   29.5064   44.7573 C   0  0  0  0  0  0  0  0  0  0  0  0
   56.5123   28.1336   45.1020 N   0  0  0  0  0  0  0  0  0  0  0  0
   57.4624   27.2493   45.7149 C   0  0  0  0  0  0  0  0  0  0  0  0
   58.8406   27.5312   45.7213 C   0  0  0  0  0  0  0  0  0  0  0  0
   59.7417   26.6332   46.3027 C   0  0  0  0  0  0  0  0  0  0  0  0
   59.2783   25.4418   46.8660 C   0  0  0  0  0  0  0  0  0  0  0  0
   57.9141   25.1413   46.8389 C   0  0  0  0  0  0  0  0  0  0  0  0
   57.0085   26.0368   46.2599 C   0  0  0  0  0  0  0  0  0  0  0  0
   55.6533   25.7223   46.2345 O   0  0  0  0  0  0  0  0  0  0  0  0
   59.4583   34.4085   47.0540 C   0  0  0  0  0  0  0  0  0  0  0  0
   60.7931   33.9645   47.5955 C   0  0  0  0  0  0  0  0  0  0  0  0
   61.8623   33.7425   46.7097 C   0  0  0  0  0  0  0  0  0  0  0  0
   63.1155   33.3647   47.1969 C   0  0  0  0  0  0  0  0  0  0  0  0
   63.3195   33.2138   48.5732 C   0  0  0  0  0  0  0  0  0  0  0  0
   64.5664   32.8369   49.0690 O   0  0  0  0  0  0  0  0  0  0  0  0
   62.2647   33.4433   49.4615 C   0  0  0  0  0  0  0  0  0  0  0  0
   61.0064   33.8241   48.9803 C   0  0  0  0  0  0  0  0  0  0  0  0
   59.9771   34.0568   49.8862 O   0  0  0  0  0  0  0  0  0  0  0  0
   65.2777   32.6815   48.4791 H   0  0  0  0  0  0  0  0  0  0  0  0
  9 10  2  0
 10  8  1  0
  8  1  1  0
  1  2  1  0
  2  3  2  0
  2  4  1  0
  4 19  1  0
 19 20  1  0
 20 21  2  0
 21 22  1  0
 22 23  2  0
 23 24  1  0
 23 25  1  0
 25 26  2  0
 26 27  1  0
  4  5  2  0
  5  6  1  0
  6  7  2  0
 10 11  1  0
 11 12  1  0
 12 13  2  0
 13 14  1  0
 14 15  2  0
 15 16  1  0
 16 17  2  0
 17 18  1  0
  6  1  1  0
 17 12  1  0
 26 20  1  0
 24 28  1  0
M  CHG 1  11  -1
M  CHG 1  18  -1
M  CHG 1  27  -1
M  END
> <UniqueID>
12

> <SMILES>
O=C(CN1C(=O)C(Cc2ccc(O)cc2[O-])=NC1=S)[N-]c1ccccc1[O-]

> <Energy>
70.0177492513338

> <Genealogy>
O=C(CN1C(=O)C(Cc2ccc(O)cc2[O-])=NC1=S)[N-]c1ccccc1[O-] (protonated)
O=C(CN1C(=O)C(Cc2ccc(O)cc2[O-])=NC1=S)[N-]c1ccccc1[O-] (3D coordinates assigned)
O=C(CN1C(=O)C(Cc2ccc(O)cc2[O-])=NC1=S)[N-]c1ccccc1[O-] (nonaromatic ring conformer: 70.0177492513338 kcal/mol)

> <smiles>
O=C(CN1C(=O)C(Cc2ccc(O)cc2O)=NC1=S)Nc1ccccc1O

> <score_type>
oracle

> <origin>
adg

> <m_score__min__energy>
-16.190000000000001

> <m_primary>
energy

> <minimizedAffinity>
-7.74867

> <minimizedRMSD>
0.83602

> <CNNscore>
0.7096411586

> <CNNaffinity>
6.6394424438

> <CNN_VS>
4.7116217613

> <CNNaffinity_variance>
0.0150116058

$$$$
13:0


 33 36  0  0  0  0  0  0  0  0999 V2000
   57.9982   28.3765   53.4847 C   0  0  0  0  0  0  0  0  0  0  0  0
   58.8737   29.5723   53.2462 C   0  0  0  0  0  0  0  0  0  0  0  0
   59.0733   30.3876   54.1881 O   0  0  0  0  0  0  0  0  0  0  0  0
   59.4365   29.8316   51.9481 N   0  0  0  0  0  0  0  0  0  0  0  0
   59.5194   31.2088   51.4536 C   0  0  0  0  0  0  0  0  0  0  0  0
   59.2443   31.2385   49.9488 C   0  0  0  0  0  0  0  0  0  0  0  0
   60.0397   30.2093   49.2652 N   0  0  0  0  0  0  0  0  0  0  0  0
   60.4854   30.4393   47.9175 C   0  0  0  0  0  0  0  0  0  0  0  0
   60.1720   29.6167   47.0147 O   0  0  0  0  0  0  0  0  0  0  0  0
   59.9625   28.8349   49.7721 C   0  0  0  0  0  0  0  0  0  0  0  0
   60.2500   28.8154   51.2724 C   0  0  0  0  0  0  0  0  0  0  0  0
   61.3182   31.6162   47.5755 C   0  0  0  0  0  0  0  0  0  0  0  0
   62.7035   31.6117   47.8261 C   0  0  0  0  0  0  0  0  0  0  0  0
   63.4862   32.7209   47.4916 C   0  0  0  0  0  0  0  0  0  0  0  0
   62.8993   33.8394   46.8980 C   0  0  0  0  0  0  0  0  0  0  0  0
   61.5267   33.8513   46.6337 C   0  0  0  0  0  0  0  0  0  0  0  0
   60.7400   32.7448   46.9660 C   0  0  0  0  0  0  0  0  0  0  0  0
   57.2863   28.4897   54.8361 C   0  0  0  0  0  0  0  0  0  0  0  0
   55.8344   30.9523   53.9297 C   0  0  0  0  0  0  0  0  0  0  0  0
   55.2051   29.7935   54.1858 C   0  0  0  0  0  0  0  0  0  0  0  0
   53.8188   29.5736   54.1930 C   0  0  0  0  0  0  0  0  0  0  0  0
   52.7983   30.3374   53.7539 C   0  0  0  0  0  0  0  0  0  0  0  0
   53.6277   28.3233   54.7551 C   0  0  0  0  0  0  0  0  0  0  0  0
   54.8789   27.8023   55.0051 C   0  0  0  0  0  0  0  0  0  0  0  0
   55.1294   26.4417   55.5851 C   0  0  0  0  0  0  0  0  0  0  0  0
   55.8412   28.6802   54.6407 N   0  0  0  0  0  0  0  0  0  0  0  0
   52.4160   30.5325   52.3449 C   0  0  0  0  0  0  0  0  0  0  0  0
   52.6522   29.6492   51.3563 N   0  0  0  0  0  0  0  0  0  0  0  0
   52.0081   30.1867   50.2992 C   0  0  0  0  0  0  0  0  0  0  0  0
   52.0080   29.6493   49.1604 O   0  0  0  0  0  0  0  0  0  0  0  0
   51.3554   31.3393   50.5583 N   0  0  0  0  0  0  0  0  0  0  0  0
   51.6128   31.5346   51.8616 C   0  0  0  0  0  0  0  0  0  0  0  0
   51.1174   32.6042   52.5959 O   0  0  0  0  0  0  0  0  0  0  0  0
 19 20  2  0
 20 21  1  0
 21 22  2  0
 22 27  1  0
 27 28  1  0
 28 29  1  0
 29 30  2  0
 29 31  1  0
 31 32  1  0
 32 33  1  0
 21 23  1  0
 23 24  2  0
 24 25  1  0
 24 26  1  0
 26 18  1  0
 18  1  1  0
  1  2  1  0
  2  3  2  0
  2  4  1  0
  4  5  1  0
  5  6  1  0
  6  7  1  0
  7  8  1  0
  8  9  2  0
  8 12  1  0
 12 13  2  0
 13 14  1  0
 14 15  2  0
 15 16  1  0
 16 17  2  0
  7 10  1  0
 10 11  1  0
 26 20  1  0
 11  4  1  0
 32 27  2  0
 17 12  1  0
M  CHG 1  28  -1
M  CHG 1  31  -1
M  CHG 1  33  -1
M  END
> <UniqueID>
14

> <SMILES>
C=c1c(=Cc2[n-]c(=O)[n-]c2[O-])cc(C)n1CCC(=O)N1CCN(C(=O)c2ccccc2)CC1

> <Energy>
131.25017951209335

> <Genealogy>
C=c1c(=Cc2[n-]c(=O)[n-]c2[O-])cc(C)n1CCC(=O)N1CCN(C(=O)c2ccccc2)CC1 (protonated)
C=c1c(=Cc2[n-]c(=O)[n-]c2[O-])cc(C)n1CCC(=O)N1CCN(C(=O)c2ccccc2)CC1 (3D coordinates assigned)
C=c1c(=Cc2[n-]c(=O)[n-]c2[O-])cc(C)n1CCC(=O)N1CCN(C(=O)c2ccccc2)CC1 (nonaromatic ring conformer: 131.25017951209335 kcal/mol)

> <smiles>
C=c1c(=Cc2[nH]c(=O)[nH]c2O)cc(C)n1CCC(=O)N1CCN(C(=O)c2ccccc2)CC1

> <score_type>
oracle

> <origin>
adg

> <m_score__min__energy>
-17.73

> <m_primary>
energy

> <minimizedAffinity>
-6.20308

> <minimizedRMSD>
0.90310

> <CNNscore>
0.0190845542

> <CNNaffinity>
5.0887513161

> <CNN_VS>
0.0971165523

> <CNNaffinity_variance>
0.2128977180

$$$$
21:0


 24 26  0  0  0  0  0  0  0  0999 V2000
   57.2837   25.5015   46.5021 C   0  0  0  0  0  0  0  0  0  0  0  0
   57.4603   26.7720   46.0896 C   0  0  0  0  0  0  0  0  0  0  0  0
   56.3923   27.5220   45.7051 N   0  0  0  0  0  0  0  0  0  0  0  0
   56.5095   28.8109   45.2964 C   0  0  0  0  0  0  0  0  0  0  0  0
   55.4658   29.4262   44.9553 O   0  0  0  0  0  0  0  0  0  0  0  0
   57.7909   29.4204   45.2693 C   0  0  0  0  0  0  0  0  0  0  0  0
   58.0353   30.6968   44.8812 C   0  0  0  0  0  0  0  0  0  0  0  0
   58.5376   31.9172   45.9419 S   0  0  0  0  0  0  0  0  0  0  0  0
   58.6317   33.1459   44.8045 C   0  0  0  0  0  0  0  0  0  0  0  0
   58.9911   34.3995   45.0559 C   0  0  0  0  0  0  0  0  0  0  0  0
   58.2730   32.6348   43.5659 C   0  0  0  0  0  0  0  0  0  0  0  0
   57.9408   31.2724   43.6017 C   0  0  0  0  0  0  0  0  0  0  0  0
   58.8525   28.6619   45.6647 N   0  0  0  0  0  0  0  0  0  0  0  0
   58.7323   27.3719   46.0725 C   0  0  0  0  0  0  0  0  0  0  0  0
   59.7640   26.7390   46.4247 O   0  0  0  0  0  0  0  0  0  0  0  0
   57.0919   21.1117   42.8962 O   0  0  0  0  0  0  0  0  0  0  0  0
   57.1340   22.1868   43.7817 C   0  0  0  0  0  0  0  0  0  0  0  0
   57.0876   23.5039   43.3083 C   0  0  0  0  0  0  0  0  0  0  0  0
   57.1349   24.5738   44.2058 C   0  0  0  0  0  0  0  0  0  0  0  0
   57.2481   24.3417   45.5846 C   0  0  0  0  0  0  0  0  0  0  0  0
   57.2594   23.0134   46.0605 C   0  0  0  0  0  0  0  0  0  0  0  0
   57.2883   22.7435   47.4241 O   0  0  0  0  0  0  0  0  0  0  0  0
   57.2177   21.9459   45.1569 C   0  0  0  0  0  0  0  0  0  0  0  0
   57.0358   21.2664   41.9738 H   0  0  0  0  0  0  0  0  0  0  0  0
 16 17  1  0
 17 18  2  0
 18 19  1  0
 19 20  2  0
 20  1  1  0
  1  2  2  0
  2  3  1  0
  3  4  1  0
  4  5  2  0
  4  6  1  0
  6  7  2  0
  7  8  1  0
  8  9  1  0
  9 10  2  0
  9 11  1  0
 11 12  2  0
  6 13  1  0
 13 14  1  0
 14 15  2  0
 20 21  1  0
 21 22  1  0
 21 23  2  0
 23 17  1  0
 14  2  1  0
 12  7  1  0
 16 24  1  0
M  CHG 1   3  -1
M  CHG 1  13  -1
M  CHG 1  22  -1
M  END
> <UniqueID>
22

> <SMILES>
C=c1ccc(=c2[n-]c(=O)/c(=C/c3ccc(O)cc3[O-])[n-]c2=O)s1

> <Energy>
79.59923066844095

> <Genealogy>
C=c1ccc(=c2[n-]c(=O)c(=Cc3ccc(O)cc3[O-])[n-]c2=O)s1 (protonated)
C=c1ccc(=c2[n-]c(=O)/c(=C/c3ccc(O)cc3[O-])[n-]c2=O)s1 (cis-trans isomerization)
C=c1ccc(=c2[n-]c(=O)/c(=C/c3ccc(O)cc3[O-])[n-]c2=O)s1 (3D coordinates assigned)
C=c1ccc(=c2[n-]c(=O)/c(=C/c3ccc(O)cc3[O-])[n-]c2=O)s1 (optimized conformer: 79.59923066844095 kcal/mol)

> <smiles>
C=c1ccc(=c2[nH]c(=O)c(=Cc3ccc(O)cc3O)[nH]c2=O)s1

> <score_type>
oracle

> <origin>
adg

> <m_score__min__energy>
-14.56

> <m_primary>
energy

> <minimizedAffinity>
-6.97250

> <minimizedRMSD>
0.43656

> <CNNscore>
0.0911671966

> <CNNaffinity>
5.3465480804

> <CNN_VS>
0.4874297976

> <CNNaffinity_variance>
0.1672680974

$$$$
38:0


 29 32  0  0  0  0  0  0  0  0999 V2000
   58.2173   31.6077   45.3019 C   0  0  0  0  0  0  0  0  0  0  0  0
   58.3588   30.2835   45.2269 C   0  0  0  0  0  0  0  0  0  0  0  0
   57.3333   29.3042   44.3248 S   0  0  0  0  0  0  0  0  0  0  0  0
   58.1331   27.8794   44.7130 C   0  0  0  0  0  0  0  0  0  0  0  0
   57.7513   26.6726   44.2641 C   0  0  0  0  0  0  0  0  0  0  0  0
   59.1904   28.2079   45.5756 C   0  0  0  0  0  0  0  0  0  0  0  0
   59.9479   27.3432   46.0933 O   0  0  0  0  0  0  0  0  0  0  0  0
   59.3207   29.5423   45.8538 N   0  0  0  0  0  0  0  0  0  0  0  0
   57.5952   25.4697   45.1072 C   0  0  0  0  0  0  0  0  0  0  0  0
   58.4507   24.3672   44.9367 C   0  0  0  0  0  0  0  0  0  0  0  0
   58.2580   23.2029   45.6855 C   0  0  0  0  0  0  0  0  0  0  0  0
   57.2033   23.1226   46.5990 C   0  0  0  0  0  0  0  0  0  0  0  0
   57.0112   21.9622   47.3402 O   0  0  0  0  0  0  0  0  0  0  0  0
   56.3369   24.2071   46.7613 C   0  0  0  0  0  0  0  0  0  0  0  0
   56.5224   25.3764   46.0121 C   0  0  0  0  0  0  0  0  0  0  0  0
   55.6412   26.4405   46.1765 O   0  0  0  0  0  0  0  0  0  0  0  0
   60.3987   30.0832   46.7002 C   0  0  0  0  0  0  0  0  0  0  0  0
   59.9063   30.3075   48.1071 C   0  0  0  0  0  0  0  0  0  0  0  0
   59.8932   29.2569   49.0392 C   0  0  0  0  0  0  0  0  0  0  0  0
   59.4214   29.4696   50.3379 C   0  0  0  0  0  0  0  0  0  0  0  0
   58.9676   30.7392   50.7323 C   0  0  0  0  0  0  0  0  0  0  0  0
   58.9721   31.7862   49.7948 C   0  0  0  0  0  0  0  0  0  0  0  0
   59.4370   31.5714   48.4949 C   0  0  0  0  0  0  0  0  0  0  0  0
   58.4781   30.9538   52.0698 N   0  0  0  0  0  0  0  0  0  0  0  0
   59.1357   31.7754   53.0741 C   0  0  0  0  0  0  0  0  0  0  0  0
   58.3921   31.5001   54.3930 C   0  0  0  0  0  0  0  0  0  0  0  0
   57.0668   30.8174   54.0228 C   0  0  0  0  0  0  0  0  0  0  0  0
   57.2587   30.4635   52.6031 C   0  0  0  0  0  0  0  0  0  0  0  0
   56.4018   29.8421   51.9207 O   0  0  0  0  0  0  0  0  0  0  0  0
  1  2  2  0
  2  3  1  0
  3  4  1  0
  4  5  2  0
  5  9  1  0
  9 10  2  0
 10 11  1  0
 11 12  2  0
 12 13  1  0
 12 14  1  0
 14 15  2  0
 15 16  1  0
  4  6  1  0
  6  7  2  0
  6  8  1  0
  8 17  1  0
 17 18  1  0
 18 19  2  0
 19 20  1  0
 20 21  2  0
 21 24  1  0
 24 25  1  0
 25 26  1  0
 26 27  1  0
 27 28  1  0
 28 29  2  0
 21 22  1  0
 22 23  2  0
  8  2  1  0
 23 18  1  0
 15  9  1  0
 28 24  1  0
M  CHG 1  13  -1
M  CHG 1  16  -1
M  END
> <UniqueID>
36

> <SMILES>
C=c1sc(=Cc2ccc([O-])cc2[O-])c(=O)n1Cc1ccc(N2CCCC2=O)cc1

> <Energy>
101.83077382258939

> <Genealogy>
C=c1sc(=Cc2ccc([O-])cc2[O-])c(=O)n1Cc1ccc(N2CCCC2=O)cc1 (protonated)
C=c1sc(=Cc2ccc([O-])cc2[O-])c(=O)n1Cc1ccc(N2CCCC2=O)cc1 (3D coordinates assigned)
C=c1sc(=Cc2ccc([O-])cc2[O-])c(=O)n1Cc1ccc(N2CCCC2=O)cc1 (nonaromatic ring conformer: 101.83077382258939 kcal/mol)

> <smiles>
C=c1sc(=Cc2ccc(O)cc2O)c(=O)n1Cc1ccc(N2CCCC2=O)cc1

> <score_type>
oracle

> <origin>
adg

> <m_score__min__energy>
-14.08

> <m_primary>
energy

> <minimizedAffinity>
-7.34853

> <minimizedRMSD>
0.93012

> <CNNscore>
0.2431213111

> <CNNaffinity>
6.3351340294

> <CNN_VS>
1.5402060747

> <CNNaffinity_variance>
0.0094023421

$$$$
56:0


 30 32  0  0  0  0  0  0  0  0999 V2000
   56.5606   29.6035   44.2146 C   0  0  0  0  0  0  0  0  0  0  0  0
   57.7133   29.1561   44.7372 C   0  0  0  0  0  0  0  0  0  0  0  0
   58.2120   27.8439   44.7052 C   0  0  0  0  0  0  0  0  0  0  0  0
   57.6313   26.6852   44.3383 C   0  0  0  0  0  0  0  0  0  0  0  0
   59.5172   27.9145   45.1675 C   0  0  0  0  0  0  0  0  0  0  0  0
   59.7409   29.2260   45.5348 C   0  0  0  0  0  0  0  0  0  0  0  0
   61.0586   29.7645   46.0076 C   0  0  0  0  0  0  0  0  0  0  0  0
   58.6505   29.9766   45.2752 N   0  0  0  0  0  0  0  0  0  0  0  0
   58.5675   31.4004   45.4383 C   0  0  0  0  0  0  0  0  0  0  0  0
   58.1930   32.1132   44.4667 O   0  0  0  0  0  0  0  0  0  0  0  0
   58.9016   32.0084   46.6996 N   0  0  0  0  0  0  0  0  0  0  0  0
   58.8381   31.1972   47.9244 C   0  0  0  0  0  0  0  0  0  0  0  0
   58.9220   32.0640   49.1859 C   0  0  0  0  0  0  0  0  0  0  0  0
   60.0242   33.0279   49.0702 N   0  0  0  0  0  0  0  0  0  0  0  0
   60.8253   33.3569   50.2215 C   0  0  0  0  0  0  0  0  0  0  0  0
   61.8067   34.1378   50.0980 O   0  0  0  0  0  0  0  0  0  0  0  0
   60.2490   33.7466   47.8063 C   0  0  0  0  0  0  0  0  0  0  0  0
   59.1498   33.4532   46.7804 C   0  0  0  0  0  0  0  0  0  0  0  0
   57.4221   25.5179   45.2101 C   0  0  0  0  0  0  0  0  0  0  0  0
   58.1881   24.4108   45.2053 N   0  0  0  0  0  0  0  0  0  0  0  0
   57.5380   23.5799   46.0479 C   0  0  0  0  0  0  0  0  0  0  0  0
   57.9605   22.4267   46.3230 O   0  0  0  0  0  0  0  0  0  0  0  0
   56.3935   24.0770   46.5663 N   0  0  0  0  0  0  0  0  0  0  0  0
   56.3294   25.2999   46.0123 C   0  0  0  0  0  0  0  0  0  0  0  0
   55.2901   26.1946   46.2334 O   0  0  0  0  0  0  0  0  0  0  0  0
   60.5019   32.8092   51.4747 O   0  0  0  0  0  0  0  0  0  0  0  0
   61.1755   31.7256   52.1316 C   0  0  0  0  0  0  0  0  0  0  0  0
   62.1702   32.3457   53.1237 C   0  0  0  0  0  0  0  0  0  0  0  0
   61.9558   30.8752   51.1103 C   0  0  0  0  0  0  0  0  0  0  0  0
   60.1727   30.8544   52.9120 C   0  0  0  0  0  0  0  0  0  0  0  0
  1  2  2  0
  2  3  1  0
  3  4  2  0
  4 19  1  0
 19 20  1  0
 20 21  1  0
 21 22  2  0
 21 23  1  0
 23 24  1  0
 24 25  1  0
  3  5  1  0
  5  6  2  0
  6  7  1  0
  6  8  1  0
  8  9  1  0
  9 10  2  0
  9 11  1  0
 11 12  1  0
 12 13  1  0
 13 14  1  0
 14 15  1  0
 15 16  2  0
 15 26  1  0
 26 27  1  0
 27 28  1  0
 27 29  1  0
 27 30  1  0
 14 17  1  0
 17 18  1  0
  8  2  1  0
 18 11  1  0
 24 19  2  0
M  CHG 1  20  -1
M  CHG 1  23  -1
M  CHG 1  25  -1
M  END
> <UniqueID>
53

> <SMILES>
C=c1c(=Cc2[n-]c(=O)[n-]c2[O-])cc(C)n1C(=O)N1CCN(C(=O)OC(C)(C)C)CC1

> <Energy>
123.23071606514351

> <Genealogy>
C=c1c(=Cc2[n-]c(=O)[n-]c2[O-])cc(C)n1C(=O)N1CCN(C(=O)OC(C)(C)C)CC1 (protonated)
C=c1c(=Cc2[n-]c(=O)[n-]c2[O-])cc(C)n1C(=O)N1CCN(C(=O)OC(C)(C)C)CC1 (3D coordinates assigned)
C=c1c(=Cc2[n-]c(=O)[n-]c2[O-])cc(C)n1C(=O)N1CCN(C(=O)OC(C)(C)C)CC1 (nonaromatic ring conformer: 123.23071606514351 kcal/mol)

> <smiles>
C=c1c(=Cc2[nH]c(=O)[nH]c2O)cc(C)n1C(=O)N1CCN(C(=O)OC(C)(C)C)CC1

> <score_type>
oracle

> <origin>
adg

> <m_score__min__energy>
-16.629999999999999

> <m_primary>
energy

> <minimizedAffinity>
-7.66748

> <minimizedRMSD>
1.28008

> <CNNscore>
0.2154883444

> <CNNaffinity>
6.7301101685

> <CNN_VS>
1.4502602816

> <CNNaffinity_variance>
0.1676790267

$$$$
65:0


 23 25  0  0  0  0  0  0  0  0999 V2000
   59.0472   28.1725   53.5745 C   0  0  0  0  0  0  0  0  0  0  0  0
   58.2664   27.3480   54.3958 C   0  0  0  0  0  0  0  0  0  0  0  0
   56.8950   27.5912   54.5205 C   0  0  0  0  0  0  0  0  0  0  0  0
   56.1989   26.8425   55.2585 O   0  0  0  0  0  0  0  0  0  0  0  0
   56.3115   28.6715   53.8317 C   0  0  0  0  0  0  0  0  0  0  0  0
   54.9375   28.9602   53.9225 C   0  0  0  0  0  0  0  0  0  0  0  0
   54.3923   30.0495   53.2239 C   0  0  0  0  0  0  0  0  0  0  0  0
   55.2324   30.8644   52.4468 C   0  0  0  0  0  0  0  0  0  0  0  0
   56.5977   30.5847   52.3512 C   0  0  0  0  0  0  0  0  0  0  0  0
   57.1411   29.4932   53.0351 C   0  0  0  0  0  0  0  0  0  0  0  0
   58.4698   29.2259   52.9359 N   0  0  0  0  0  0  0  0  0  0  0  0
   60.4992   27.9605   53.4361 C   0  0  0  0  0  0  0  0  0  0  0  0
   61.2561   28.3319   54.3706 O   0  0  0  0  0  0  0  0  0  0  0  0
   61.0972   28.0237   50.9436 C   0  0  0  0  0  0  0  0  0  0  0  0
   61.0885   27.3948   52.2577 N   0  0  0  0  0  0  0  0  0  0  0  0
   52.9317   30.3804   53.3544 C   0  0  0  0  0  0  0  0  0  0  0  0
   52.3015   30.4745   51.9986 C   0  0  0  0  0  0  0  0  0  0  0  0
   52.4671   29.3297   50.7722 S   0  0  0  0  0  0  0  0  0  0  0  0
   51.5800   30.2516   49.6824 C   0  0  0  0  0  0  0  0  0  0  0  0
   51.3295   29.9028   48.4999 O   0  0  0  0  0  0  0  0  0  0  0  0
   51.1632   31.4212   50.2072 N   0  0  0  0  0  0  0  0  0  0  0  0
   51.5715   31.5483   51.4977 C   0  0  0  0  0  0  0  0  0  0  0  0
   51.2748   32.6797   52.2477 O   0  0  0  0  0  0  0  0  0  0  0  0
 14 15  1  0
 15 12  1  0
 12 13  2  0
 12  1  1  0
  1  2  2  0
  2  3  1  0
  3  4  2  0
  3  5  1  0
  5  6  2  0
  6  7  1  0
  7 16  1  0
 16 17  1  0
 17 18  1  0
 18 19  1  0
 19 20  2  0
 19 21  1  0
 21 22  1  0
 22 23  1  0
  7  8  2  0
  8  9  1  0
  9 10  2  0
 10 11  1  0
 11  1  1  0
 10  5  1  0
 22 17  2  0
M  CHG 1  11  -1
M  CHG 1  15  -1
M  CHG 1  21  -1
M  CHG 1  23  -1
M  END
> <UniqueID>
62

> <SMILES>
C[N-]C(=O)c1cc(=O)c2cc(Cc3sc(=O)[n-]c3[O-])ccc2[n-]1

> <Energy>
71.30726253557735

> <Genealogy>
C[N-]C(=O)c1cc(=O)c2cc(Cc3sc(=O)[n-]c3[O-])ccc2[n-]1 (protonated)
C[N-]C(=O)c1cc(=O)c2cc(Cc3sc(=O)[n-]c3[O-])ccc2[n-]1 (3D coordinates assigned)
C[N-]C(=O)c1cc(=O)c2cc(Cc3sc(=O)[n-]c3[O-])ccc2[n-]1 (optimized conformer: 71.30726253557735 kcal/mol)

> <smiles>
CNC(=O)c1cc(=O)c2cc(Cc3sc(=O)[nH]c3O)ccc2[nH]1

> <score_type>
oracle

> <origin>
adg

> <m_score__min__energy>
-15.23

> <m_primary>
energy

> <minimizedAffinity>
-3.00801

> <minimizedRMSD>
0.82315

> <CNNscore>
0.1690482795

> <CNNaffinity>
4.1392197609

> <CNN_VS>
0.6997279525

> <CNNaffinity_variance>
0.5281925797

$$$$
69:0


 31 33  0  0  0  0  0  0  0  0999 V2000
   61.0968   33.2314   48.9323 N   0  0  0  0  0  0  0  0  0  0  0  0
   61.6072   32.6297   47.6734 C   0  0  0  0  0  0  0  0  0  0  0  0
   61.6772   31.0856   47.6813 C   0  0  0  0  0  0  0  0  0  0  0  0
   60.6982   30.5081   48.6064 N   0  0  0  0  0  0  0  0  0  0  0  0
   59.8845   29.3902   48.2179 C   0  0  0  0  0  0  0  0  0  0  0  0
   58.6350   29.4560   48.3589 O   0  0  0  0  0  0  0  0  0  0  0  0
   60.5918   31.0230   49.9732 C   0  0  0  0  0  0  0  0  0  0  0  0
   61.3283   32.3615   50.1081 C   0  0  0  0  0  0  0  0  0  0  0  0
   59.6936   33.6798   48.7954 C   0  0  0  0  0  0  0  0  0  0  0  0
   58.3973   32.9155   45.4376 C   0  0  0  0  0  0  0  0  0  0  0  0
   58.7834   34.1866   45.0072 C   0  0  0  0  0  0  0  0  0  0  0  0
   59.4827   34.9924   46.3080 S   0  0  0  0  0  0  0  0  0  0  0  0
   59.2638   33.7012   47.3607 C   0  0  0  0  0  0  0  0  0  0  0  0
   58.6693   32.6566   46.7462 N   0  0  0  0  0  0  0  0  0  0  0  0
   57.7455   31.9317   44.5413 C   0  0  0  0  0  0  0  0  0  0  0  0
   57.9460   32.0169   43.2997 O   0  0  0  0  0  0  0  0  0  0  0  0
   56.1432   29.9385   44.1958 C   0  0  0  0  0  0  0  0  0  0  0  0
   56.8933   30.8780   45.0154 N   0  0  0  0  0  0  0  0  0  0  0  0
   60.4607   28.1805   47.7120 N   0  0  0  0  0  0  0  0  0  0  0  0
   60.3467   27.7257   46.3330 C   0  0  0  0  0  0  0  0  0  0  0  0
   59.1519   26.8247   46.2047 C   0  0  0  0  0  0  0  0  0  0  0  0
   58.4166   26.7920   45.0093 C   0  0  0  0  0  0  0  0  0  0  0  0
   57.2839   25.9796   44.9016 C   0  0  0  0  0  0  0  0  0  0  0  0
   56.8642   25.2050   45.9906 C   0  0  0  0  0  0  0  0  0  0  0  0
   57.5923   25.2425   47.1879 C   0  0  0  0  0  0  0  0  0  0  0  0
   58.7248   26.0546   47.2975 C   0  0  0  0  0  0  0  0  0  0  0  0
   55.4458   24.1721   45.8477 S   0  0  0  0  0  0  0  0  0  0  0  0
   54.0619   25.1397   45.4851 N   0  0  0  0  0  0  0  0  0  0  0  0
   55.6533   23.1678   44.7498 O   0  0  0  0  0  0  0  0  0  0  0  0
   55.2209   23.4351   47.1381 O   0  0  0  0  0  0  0  0  0  0  0  0
   54.2163   25.6390   44.6092 H   0  0  0  0  0  0  0  0  0  0  0  0
 17 18  1  0
 18 15  1  0
 15 16  2  0
 15 10  1  0
 10 11  2  0
 11 12  1  0
 12 13  1  0
 13  9  1  0
  9  1  1  0
  1  2  1  0
  2  3  1  0
  3  4  1  0
  4  5  1  0
  5  6  2  0
  5 19  1  0
 19 20  1  0
 20 21  1  0
 21 22  2  0
 22 23  1  0
 23 24  2  0
 24 27  1  0
 27 28  1  0
 27 29  2  0
 27 30  2  0
 24 25  1  0
 25 26  2  0
  4  7  1  0
  7  8  1  0
 13 14  2  0
 14 10  1  0
  8  1  1  0
 26 21  1  0
 28 31  1  0
M  CHG 1  18  -1
M  CHG 1  19  -1
M  CHG 1  28  -1
M  END
> <UniqueID>
66

> <SMILES>
C[N-]C(=O)c1csc(CN2CCN(C(=O)[N-]Cc3ccc(S([NH-])(=O)=O)cc3)CC2)n1

> <Energy>
89.94432808957848

> <Genealogy>
C[N-]C(=O)c1csc(CN2CCN(C(=O)[N-]Cc3ccc(S([NH-])(=O)=O)cc3)CC2)n1 (protonated)
C[N-]C(=O)c1csc(CN2CCN(C(=O)[N-]Cc3ccc(S([NH-])(=O)=O)cc3)CC2)n1 (3D coordinates assigned)
C[N-]C(=O)c1csc(CN2CCN(C(=O)[N-]Cc3ccc(S([NH-])(=O)=O)cc3)CC2)n1 (nonaromatic ring conformer: 89.94432808957848 kcal/mol)

> <smiles>
CNC(=O)c1csc(CN2CCN(C(=O)NCc3ccc(S(N)(=O)=O)cc3)CC2)n1

> <score_type>
oracle

> <origin>
adg

> <m_score__min__energy>
-15.029999999999999

> <m_primary>
energy

> <minimizedAffinity>
-7.73114

> <minimizedRMSD>
1.18001

> <CNNscore>
0.9056725502

> <CNNaffinity>
7.4613342285

> <CNN_VS>
6.7575254440

> <CNNaffinity_variance>
0.0177329984

$$$$
71:0


 28 30  0  0  0  0  0  0  0  0999 V2000
   54.7098   28.2055   54.6891 C   0  0  0  0  0  0  0  0  0  0  0  0
   55.3621   29.0224   53.8408 C   0  0  0  0  0  0  0  0  0  0  0  0
   54.7717   30.0107   53.0465 C   0  0  0  0  0  0  0  0  0  0  0  0
   53.4757   30.3884   53.0346 C   0  0  0  0  0  0  0  0  0  0  0  0
   55.7939   30.5654   52.2951 C   0  0  0  0  0  0  0  0  0  0  0  0
   56.9520   29.8942   52.6282 C   0  0  0  0  0  0  0  0  0  0  0  0
   56.7015   28.9724   53.5964 N   0  0  0  0  0  0  0  0  0  0  0  0
   57.6558   27.9780   54.1244 C   0  0  0  0  0  0  0  0  0  0  0  0
   52.6624   30.5137   51.8119 C   0  0  0  0  0  0  0  0  0  0  0  0
   52.7962   29.6979   50.7484 N   0  0  0  0  0  0  0  0  0  0  0  0
   51.8996   30.1837   49.8619 C   0  0  0  0  0  0  0  0  0  0  0  0
   51.7116   29.6625   48.7293 O   0  0  0  0  0  0  0  0  0  0  0  0
   51.2149   31.2640   50.2851 N   0  0  0  0  0  0  0  0  0  0  0  0
   51.7186   31.4709   51.5152 C   0  0  0  0  0  0  0  0  0  0  0  0
   51.3560   32.5425   52.3221 O   0  0  0  0  0  0  0  0  0  0  0  0
   58.2616   30.1563   51.9790 C   0  0  0  0  0  0  0  0  0  0  0  0
   59.2071   30.6665   52.6377 O   0  0  0  0  0  0  0  0  0  0  0  0
   58.4523   29.9288   50.5757 N   0  0  0  0  0  0  0  0  0  0  0  0
   59.1328   30.8105   49.6729 C   0  0  0  0  0  0  0  0  0  0  0  0
   60.0177   30.2651   48.7350 C   0  0  0  0  0  0  0  0  0  0  0  0
   60.7059   31.0970   47.8466 C   0  0  0  0  0  0  0  0  0  0  0  0
   60.5007   32.4899   47.8709 C   0  0  0  0  0  0  0  0  0  0  0  0
   59.5905   33.0316   48.7984 C   0  0  0  0  0  0  0  0  0  0  0  0
   58.9129   32.1956   49.6927 C   0  0  0  0  0  0  0  0  0  0  0  0
   61.2491   33.3676   46.9442 C   0  0  0  0  0  0  0  0  0  0  0  0
   60.6275   34.1577   46.1793 O   0  0  0  0  0  0  0  0  0  0  0  0
   62.6479   33.3261   46.9205 O   0  0  0  0  0  0  0  0  0  0  0  0
   63.4454   33.4969   48.0880 C   0  0  0  0  0  0  0  0  0  0  0  0
  1  2  2  0
  2  3  1  0
  3  4  2  0
  4  9  1  0
  9 10  1  0
 10 11  1  0
 11 12  2  0
 11 13  1  0
 13 14  1  0
 14 15  1  0
  3  5  1  0
  5  6  2  0
  6 16  1  0
 16 17  2  0
 16 18  1  0
 18 19  1  0
 19 20  2  0
 20 21  1  0
 21 22  2  0
 22 25  1  0
 25 26  2  0
 25 27  1  0
 27 28  1  0
 22 23  1  0
 23 24  2  0
  6  7  1  0
  7  8  1  0
  7  2  1  0
 14  9  2  0
 24 19  1  0
M  CHG 1  10  -1
M  CHG 1  13  -1
M  CHG 1  15  -1
M  CHG 1  18  -1
M  END
> <UniqueID>
68

> <SMILES>
C=c1/c(=C/c2[n-]c(=O)[n-]c2[O-])cc(C(=O)[N-]c2ccc(C(=O)OC)cc2)n1C

> <Energy>
115.81140738766165

> <Genealogy>
C=c1c(=Cc2[n-]c(=O)[n-]c2[O-])cc(C(=O)[N-]c2ccc(C(=O)OC)cc2)n1C (protonated)
C=c1/c(=C/c2[n-]c(=O)[n-]c2[O-])cc(C(=O)[N-]c2ccc(C(=O)OC)cc2)n1C (cis-trans isomerization)
C=c1/c(=C/c2[n-]c(=O)[n-]c2[O-])cc(C(=O)[N-]c2ccc(C(=O)OC)cc2)n1C (3D coordinates assigned)
C=c1/c(=C/c2[n-]c(=O)[n-]c2[O-])cc(C(=O)[N-]c2ccc(C(=O)OC)cc2)n1C (optimized conformer: 115.81140738766165 kcal/mol)

> <smiles>
C=c1c(=Cc2[nH]c(=O)[nH]c2O)cc(C(=O)Nc2ccc(C(=O)OC)cc2)n1C

> <score_type>
oracle

> <origin>
adg

> <m_score__min__energy>
-17.850000000000001

> <m_primary>
energy

> <minimizedAffinity>
-6.21578

> <minimizedRMSD>
1.09725

> <CNNscore>
0.1405085623

> <CNNaffinity>
5.4523224831

> <CNN_VS>
0.7660980225

> <CNNaffinity_variance>
0.0010048263

$$$$
72:0


 33 37  0  0  0  0  0  0  0  0999 V2000
   58.1300   29.1598   52.9794 C   0  0  0  0  0  0  0  0  0  0  0  0
   58.9521   28.2259   53.6145 C   0  0  0  0  0  0  0  0  0  0  0  0
   60.3064   28.1486   53.2878 C   0  0  0  0  0  0  0  0  0  0  0  0
   60.8508   29.0011   52.3278 C   0  0  0  0  0  0  0  0  0  0  0  0
   60.0441   29.9578   51.6858 C   0  0  0  0  0  0  0  0  0  0  0  0
   58.6779   30.0274   52.0239 C   0  0  0  0  0  0  0  0  0  0  0  0
   60.5990   30.8642   50.6495 C   0  0  0  0  0  0  0  0  0  0  0  0
   61.8271   30.8032   50.3571 O   0  0  0  0  0  0  0  0  0  0  0  0
   59.7769   31.8494   49.9962 N   0  0  0  0  0  0  0  0  0  0  0  0
   58.8701   31.4586   48.9102 C   0  0  0  0  0  0  0  0  0  0  0  0
   58.8967   32.4997   47.7775 C   0  0  0  0  0  0  0  0  0  0  0  0
   60.2680   33.0158   47.6379 N   0  0  0  0  0  0  0  0  0  0  0  0
   60.6618   33.8344   48.8185 C   0  0  0  0  0  0  0  0  0  0  0  0
   60.1167   33.2689   50.1461 C   0  0  0  0  0  0  0  0  0  0  0  0
   60.3746   33.8308   46.4183 C   0  0  0  0  0  0  0  0  0  0  0  0
   59.4586   35.0445   46.4190 C   0  0  0  0  0  0  0  0  0  0  0  0
   59.1057   33.8274   45.5810 C   0  0  0  0  0  0  0  0  0  0  0  0
   56.2287   31.3719   52.3751 C   0  0  0  0  0  0  0  0  0  0  0  0
   55.8620   30.2242   52.9717 C   0  0  0  0  0  0  0  0  0  0  0  0
   54.5724   29.8886   53.4008 C   0  0  0  0  0  0  0  0  0  0  0  0
   53.4400   30.5976   53.2253 C   0  0  0  0  0  0  0  0  0  0  0  0
   54.6733   28.6347   53.9913 C   0  0  0  0  0  0  0  0  0  0  0  0
   56.0012   28.2584   53.9075 C   0  0  0  0  0  0  0  0  0  0  0  0
   56.7249   29.2241   53.2915 N   0  0  0  0  0  0  0  0  0  0  0  0
   52.6655   30.6073   51.9708 C   0  0  0  0  0  0  0  0  0  0  0  0
   52.8959   29.7538   50.9522 N   0  0  0  0  0  0  0  0  0  0  0  0
   52.0123   30.1481   50.0115 C   0  0  0  0  0  0  0  0  0  0  0  0
   51.9093   29.5720   48.8956 O   0  0  0  0  0  0  0  0  0  0  0  0
   51.2535   31.2141   50.3566 N   0  0  0  0  0  0  0  0  0  0  0  0
   51.6865   31.5017   51.5942 C   0  0  0  0  0  0  0  0  0  0  0  0
   51.2235   32.5826   52.3428 O   0  0  0  0  0  0  0  0  0  0  0  0
   56.5359   26.9366   54.3943 C   0  0  0  0  0  0  0  0  0  0  0  0
   55.4030   25.9345   54.5808 C   0  0  0  0  0  0  0  0  0  0  0  0
 18 19  2  0
 19 20  1  0
 20 21  2  0
 21 25  1  0
 25 26  1  0
 26 27  1  0
 27 28  2  0
 27 29  1  0
 29 30  1  0
 30 31  1  0
 20 22  1  0
 22 23  2  0
 23 32  1  0
 32 33  1  0
 23 24  1  0
 24  1  1  0
  1  2  2  0
  2  3  1  0
  3  4  2  0
  4  5  1  0
  5  7  1  0
  7  8  2  0
  7  9  1  0
  9 10  1  0
 10 11  1  0
 11 12  1  0
 12 15  1  0
 15 16  1  0
 16 17  1  0
 12 13  1  0
 13 14  1  0
  5  6  2  0
 24 19  1  0
  6  1  1  0
 30 25  2  0
 14  9  1  0
 17 15  1  0
M  CHG 1  26  -1
M  CHG 1  29  -1
M  CHG 1  31  -1
M  END
> <UniqueID>
69

> <SMILES>
C=c1c(=Cc2[n-]c(=O)[n-]c2[O-])cc(CC)n1-c1cccc(C(=O)N2CCN(C3CC3)CC2)c1

> <Energy>
408.0636502373623

> <Genealogy>
C=c1c(=Cc2[n-]c(=O)[n-]c2[O-])cc(CC)n1-c1cccc(C(=O)N2CCN(C3CC3)CC2)c1 (protonated)
C=c1c(=Cc2[n-]c(=O)[n-]c2[O-])cc(CC)n1-c1cccc(C(=O)N2CCN(C3CC3)CC2)c1 (3D coordinates assigned)
C=c1c(=Cc2[n-]c(=O)[n-]c2[O-])cc(CC)n1-c1cccc(C(=O)N2CCN(C3CC3)CC2)c1 (nonaromatic ring conformer: 408.0636502373623 kcal/mol)

> <smiles>
C=c1c(=Cc2[nH]c(=O)[nH]c2O)cc(CC)n1-c1cccc(C(=O)N2CCN(C3CC3)CC2)c1

> <score_type>
oracle

> <origin>
adg

> <m_score__min__energy>
-17.859999999999999

> <m_primary>
energy

> <minimizedAffinity>
-7.10511

> <minimizedRMSD>
0.84252

> <CNNscore>
0.0564364120

> <CNNaffinity>
5.2542147636

> <CNN_VS>
0.2965290248

> <CNNaffinity_variance>
0.6379918456

$$$$
0:0


 30 32  0  0  0  0  0  0  0  0999 V2000
   59.8032   29.3980   47.1817 C   0  0  0  0  0  0  0  0  0  0  0  0
   58.8490   29.1782   46.2595 C   0  0  0  0  0  0  0  0  0  0  0  0
   58.2057   27.9543   46.0213 C   0  0  0  0  0  0  0  0  0  0  0  0
   58.4094   26.7893   46.6747 C   0  0  0  0  0  0  0  0  0  0  0  0
   57.3116   28.1857   44.9824 C   0  0  0  0  0  0  0  0  0  0  0  0
   57.4487   29.5117   44.6282 C   0  0  0  0  0  0  0  0  0  0  0  0
   56.6649   30.1804   43.5378 C   0  0  0  0  0  0  0  0  0  0  0  0
   58.3756   30.1221   45.4018 N   0  0  0  0  0  0  0  0  0  0  0  0
   57.9042   25.4637   46.2533 C   0  0  0  0  0  0  0  0  0  0  0  0
   58.6519   24.3750   46.0016 N   0  0  0  0  0  0  0  0  0  0  0  0
   57.7398   23.4207   45.7194 C   0  0  0  0  0  0  0  0  0  0  0  0
   58.0620   22.2408   45.4219 O   0  0  0  0  0  0  0  0  0  0  0  0
   56.4547   23.8290   45.7846 N   0  0  0  0  0  0  0  0  0  0  0  0
   56.5772   25.1208   46.1295 C   0  0  0  0  0  0  0  0  0  0  0  0
   55.4956   25.9702   46.3319 O   0  0  0  0  0  0  0  0  0  0  0  0
   58.8221   31.5162   45.2363 C   0  0  0  0  0  0  0  0  0  0  0  0
   58.5280   32.3159   46.4799 C   0  0  0  0  0  0  0  0  0  0  0  0
   57.4213   32.8217   46.6117 O   0  0  0  0  0  0  0  0  0  0  0  0
   59.5424   32.5061   47.4986 N   0  0  0  0  0  0  0  0  0  0  0  0
   59.0888   33.4732   48.5282 C   0  0  0  0  0  0  0  0  0  0  0  0
   60.2567   34.0319   49.3705 C   0  0  0  0  0  0  0  0  0  0  0  0
   61.4405   33.1712   49.2557 N   0  0  0  0  0  0  0  0  0  0  0  0
   61.9370   32.4510   50.4019 C   0  0  0  0  0  0  0  0  0  0  0  0
   61.1389   32.1250   51.3230 O   0  0  0  0  0  0  0  0  0  0  0  0
   63.3200   32.0684   50.5030 N   0  0  0  0  0  0  0  0  0  0  0  0
   63.6704   30.8165   51.1753 C   0  0  0  0  0  0  0  0  0  0  0  0
   64.3811   32.8977   49.9253 C   0  0  0  0  0  0  0  0  0  0  0  0
   61.9509   32.8706   47.9108 C   0  0  0  0  0  0  0  0  0  0  0  0
   60.8139   32.9298   46.8763 C   0  0  0  0  0  0  0  0  0  0  0  0
   59.2753   33.0703   46.7373 H   0  0  0  0  0  0  0  0  0  0  0  0
  1  2  2  0
  2  3  1  0
  3  4  2  0
  4  9  1  0
  9 10  1  0
 10 11  1  0
 11 12  2  0
 11 13  1  0
 13 14  1  0
 14 15  1  0
  3  5  1  0
  5  6  2  0
  6  7  1  0
  6  8  1  0
  8 16  1  0
 16 17  1  0
 17 18  2  0
 17 19  1  0
 19 20  1  0
 20 21  1  0
 21 22  1  0
 22 23  1  0
 23 24  2  0
 23 25  1  0
 25 26  1  0
 25 27  1  0
 22 28  1  0
 28 29  1  0
  8  2  1  0
 29 19  1  0
 14  9  2  0
 19 30  1  0
M  CHG 1  10  -1
M  CHG 1  13  -1
M  CHG 1  15  -1
M  CHG 1  19   1
M  END
> <UniqueID>
1

> <SMILES>
C=c1c(=Cc2[n-]c(=O)[n-]c2[O-])cc(C)n1CC(=O)[NH+]1CCN(C(=O)N(C)C)CC1

> <Energy>
122.08721741488846

> <Genealogy>
C=c1c(=Cc2[n-]c(=O)[n-]c2[O-])cc(C)n1CC(=O)[NH+]1CCN(C(=O)N(C)C)CC1 (protonated)
C=c1c(=Cc2[n-]c(=O)[n-]c2[O-])cc(C)n1CC(=O)[NH+]1CCN(C(=O)N(C)C)CC1 (3D coordinates assigned)
C=c1c(=Cc2[n-]c(=O)[n-]c2[O-])cc(C)n1CC(=O)[NH+]1CCN(C(=O)N(C)C)CC1 (nonaromatic ring conformer: 122.08721741488846 kcal/mol)

> <smiles>
C=c1c(=Cc2[nH]c(=O)[nH]c2O)cc(C)n1CC(=O)N1CCN(C(=O)N(C)C)CC1

> <score_type>
oracle

> <origin>
adg

> <m_score__min__energy>
-15.08

> <m_primary>
energy

> <minimizedAffinity>
-8.11952

> <minimizedRMSD>
1.46962

> <CNNscore>
0.1271363199

> <CNNaffinity>
6.2488274574

> <CNN_VS>
0.7944529057

> <CNNaffinity_variance>
0.0291551873

$$$$
4:0


 26 28  0  0  0  0  0  0  0  0999 V2000
   56.9900   30.2413   52.4381 C   0  0  0  0  0  0  0  0  0  0  0  0
   55.8306   30.9886   52.3760 C   0  0  0  0  0  0  0  0  0  0  0  0
   54.8211   30.1934   52.8923 C   0  0  0  0  0  0  0  0  0  0  0  0
   53.5267   30.5625   52.9007 C   0  0  0  0  0  0  0  0  0  0  0  0
   55.4408   29.0079   53.3178 C   0  0  0  0  0  0  0  0  0  0  0  0
   54.9118   28.0041   54.0230 C   0  0  0  0  0  0  0  0  0  0  0  0
   56.7524   29.0484   53.0129 N   0  0  0  0  0  0  0  0  0  0  0  0
   57.4133   28.3380   53.1795 H   0  0  0  0  0  0  0  0  0  0  0  0
   52.6370   30.5671   51.7276 C   0  0  0  0  0  0  0  0  0  0  0  0
   51.6847   31.5137   51.4329 C   0  0  0  0  0  0  0  0  0  0  0  0
   51.3048   32.5652   52.2581 O   0  0  0  0  0  0  0  0  0  0  0  0
   51.1595   31.2939   50.2125 N   0  0  0  0  0  0  0  0  0  0  0  0
   51.8444   30.2109   49.7840 C   0  0  0  0  0  0  0  0  0  0  0  0
   51.6574   29.6866   48.6550 O   0  0  0  0  0  0  0  0  0  0  0  0
   52.7555   29.7529   50.6646 N   0  0  0  0  0  0  0  0  0  0  0  0
   53.3705   28.9921   50.5543 H   0  0  0  0  0  0  0  0  0  0  0  0
   58.3205   30.6410   51.8646 C   0  0  0  0  0  0  0  0  0  0  0  0
   59.0882   30.9127   49.4698 C   0  0  0  0  0  0  0  0  0  0  0  0
   58.1958   31.1411   50.4461 C   0  0  0  0  0  0  0  0  0  0  0  0
   59.6041   31.9559   48.5625 C   0  0  0  0  0  0  0  0  0  0  0  0
   58.7001   32.7527   47.8456 C   0  0  0  0  0  0  0  0  0  0  0  0
   59.1704   33.7106   46.9428 C   0  0  0  0  0  0  0  0  0  0  0  0
   60.5443   33.8894   46.7638 C   0  0  0  0  0  0  0  0  0  0  0  0
   61.4521   33.1184   47.4964 C   0  0  0  0  0  0  0  0  0  0  0  0
   63.3305   33.3653   47.2530 Br  0  0  0  0  0  0  0  0  0  0  0  0
   60.9853   32.1588   48.4006 C   0  0  0  0  0  0  0  0  0  0  0  0
 18 19  2  0
 19 17  1  0
 17  1  1  0
  1  2  2  0
  2  3  1  0
  3  4  2  0
  4  9  1  0
  9 10  2  0
 10 11  1  0
 10 12  1  0
 12 13  1  0
 13 14  2  0
 13 15  1  0
  3  5  1  0
  5  6  2  0
  5  7  1  0
 18 20  1  0
 20 21  2  0
 21 22  1  0
 22 23  2  0
 23 24  1  0
 24 25  1  0
 24 26  2  0
  7  1  1  0
 26 20  1  0
 15  9  1  0
 15 16  1  0
  7  8  1  0
M  CHG 1  11  -1
M  CHG 1  12  -1
M  END
> <UniqueID>
5

> <SMILES>
C=c1[nH]c(CC=Cc2cccc(Br)c2)c/c1=C/c1[nH]c(=O)[n-]c1[O-]

> <Energy>
109.70867264249813

> <Genealogy>
C=c1[nH]c(CC=Cc2cccc(Br)c2)cc1=Cc1[nH]c(=O)[n-]c1[O-] (protonated)
C=c1[nH]c(CC=Cc2cccc(Br)c2)c/c1=C/c1[nH]c(=O)[n-]c1[O-] (cis-trans isomerization)
C=c1[nH]c(CC=Cc2cccc(Br)c2)c/c1=C/c1[nH]c(=O)[n-]c1[O-] (3D coordinates assigned)
C=c1[nH]c(CC=Cc2cccc(Br)c2)c/c1=C/c1[nH]c(=O)[n-]c1[O-] (optimized conformer: 109.70867264249813 kcal/mol)

> <smiles>
C=c1[nH]c(CC=Cc2cccc(Br)c2)cc1=Cc1[nH]c(=O)[nH]c1O

> <score_type>
oracle

> <origin>
adg

> <m_score__min__energy>
-15.32

> <m_primary>
energy

> <minimizedAffinity>
-6.72199

> <minimizedRMSD>
0.74919

> <CNNscore>
0.3157374561

> <CNNaffinity>
6.2718663216

> <CNN_VS>
1.9802631140

> <CNNaffinity_variance>
0.0502608269

$$$$
9:0


 34 37  0  0  0  0  0  0  0  0999 V2000
   58.5898   29.9894   45.6288 C   0  0  0  0  0  0  0  0  0  0  0  0
   59.4586   29.8235   46.7155 C   0  0  0  0  0  0  0  0  0  0  0  0
   59.9220   30.9359   47.4225 C   0  0  0  0  0  0  0  0  0  0  0  0
   59.5311   32.2332   47.0462 C   0  0  0  0  0  0  0  0  0  0  0  0
   58.6470   32.3907   45.9661 C   0  0  0  0  0  0  0  0  0  0  0  0
   58.1809   31.2776   45.2615 C   0  0  0  0  0  0  0  0  0  0  0  0
   60.0039   33.4164   47.8055 C   0  0  0  0  0  0  0  0  0  0  0  0
   59.1957   34.3493   48.0594 O   0  0  0  0  0  0  0  0  0  0  0  0
   61.3606   33.5134   48.2745 N   0  0  0  0  0  0  0  0  0  0  0  0
   62.4864   33.3031   47.3511 C   0  0  0  0  0  0  0  0  0  0  0  0
   63.5960   32.4960   48.0387 C   0  0  0  0  0  0  0  0  0  0  0  0
   63.7859   32.9143   49.4375 N   0  0  0  0  0  0  0  0  0  0  0  0
   63.1045   34.1169   49.9304 C   0  0  0  0  0  0  0  0  0  0  0  0
   61.6051   34.0150   49.6344 C   0  0  0  0  0  0  0  0  0  0  0  0
   64.5710   32.0949   50.3264 C   0  0  0  0  0  0  0  0  0  0  0  0
   63.9620   31.0864   51.0951 C   0  0  0  0  0  0  0  0  0  0  0  0
   64.7263   30.2892   51.9499 C   0  0  0  0  0  0  0  0  0  0  0  0
   66.1075   30.4855   52.0447 C   0  0  0  0  0  0  0  0  0  0  0  0
   66.8656   29.6926   52.8964 O   0  0  0  0  0  0  0  0  0  0  0  0
   66.7251   31.4767   51.2776 C   0  0  0  0  0  0  0  0  0  0  0  0
   65.9621   32.2768   50.4201 C   0  0  0  0  0  0  0  0  0  0  0  0
   57.9808   28.5863   44.7583 S   0  0  0  0  0  0  0  0  0  0  0  0
   57.0903   29.0379   43.6357 O   0  0  0  0  0  0  0  0  0  0  0  0
   59.1185   27.7985   44.1710 O   0  0  0  0  0  0  0  0  0  0  0  0
   57.0671   27.5846   45.8370 N   0  0  0  0  0  0  0  0  0  0  0  0
   58.3540   26.3865   47.3584 O   0  0  0  0  0  0  0  0  0  0  0  0
   57.5725   26.3564   46.3690 C   0  0  0  0  0  0  0  0  0  0  0  0
   57.1986   25.0511   45.7621 C   0  0  0  0  0  0  0  0  0  0  0  0
   58.2148   24.1652   45.3503 C   0  0  0  0  0  0  0  0  0  0  0  0
   57.8971   22.9298   44.7755 C   0  0  0  0  0  0  0  0  0  0  0  0
   56.5639   22.5621   44.6015 C   0  0  0  0  0  0  0  0  0  0  0  0
   55.5436   23.4217   45.0081 C   0  0  0  0  0  0  0  0  0  0  0  0
   55.8485   24.6603   45.5880 C   0  0  0  0  0  0  0  0  0  0  0  0
   54.7996   25.4786   45.9887 O   0  0  0  0  0  0  0  0  0  0  0  0
 26 27  2  0
 27 25  1  0
 25 22  1  0
 22 23  2  0
 22 24  2  0
 22  1  1  0
  1  2  2  0
  2  3  1  0
  3  4  2  0
  4  7  1  0
  7  8  2  0
  7  9  1  0
  9 10  1  0
 10 11  1  0
 11 12  1  0
 12 15  1  0
 15 16  2  0
 16 17  1  0
 17 18  2  0
 18 19  1  0
 18 20  1  0
 20 21  2  0
 12 13  1  0
 13 14  1  0
  4  5  1  0
  5  6  2  0
 27 28  1  0
 28 29  2  0
 29 30  1  0
 30 31  2  0
 31 32  1  0
 32 33  2  0
 33 34  1  0
  6  1  1  0
 33 28  1  0
 14  9  1  0
 21 15  1  0
M  CHG 1  19  -1
M  CHG 1  25  -1
M  CHG 1  34  -1
M  END
> <UniqueID>
10

> <SMILES>
O=C([N-]S(=O)(=O)c1ccc(C(=O)N2CCN(c3ccc([O-])cc3)CC2)cc1)c1ccccc1[O-]

> <Energy>
72.44724705612877

> <Genealogy>
O=C([N-]S(=O)(=O)c1ccc(C(=O)N2CCN(c3ccc([O-])cc3)CC2)cc1)c1ccccc1[O-] (protonated)
O=C([N-]S(=O)(=O)c1ccc(C(=O)N2CCN(c3ccc([O-])cc3)CC2)cc1)c1ccccc1[O-] (3D coordinates assigned)
O=C([N-]S(=O)(=O)c1ccc(C(=O)N2CCN(c3ccc([O-])cc3)CC2)cc1)c1ccccc1[O-] (nonaromatic ring conformer: 72.44724705612877 kcal/mol)

> <smiles>
O=C(NS(=O)(=O)c1ccc(C(=O)N2CCN(c3ccc(O)cc3)CC2)cc1)c1ccccc1O

> <score_type>
oracle

> <origin>
adg

> <m_score__min__energy>
-16.41

> <m_primary>
energy

> <minimizedAffinity>
-9.01119

> <minimizedRMSD>
1.44044

> <CNNscore>
0.3639618158

> <CNNaffinity>
6.7161498070

> <CNN_VS>
2.4444220066

> <CNNaffinity_variance>
0.1011010334

$$$$
10:0


 33 36  0  0  0  0  0  0  0  0999 V2000
   59.7816   30.5176   46.6463 C   0  0  0  0  0  0  0  0  0  0  0  0
   60.4295   30.5947   47.8920 C   0  0  0  0  0  0  0  0  0  0  0  0
   60.1600   31.6560   48.7676 C   0  0  0  0  0  0  0  0  0  0  0  0
   59.2260   32.6329   48.4081 C   0  0  0  0  0  0  0  0  0  0  0  0
   58.5606   32.5497   47.1831 C   0  0  0  0  0  0  0  0  0  0  0  0
   58.8232   31.4910   46.3052 C   0  0  0  0  0  0  0  0  0  0  0  0
   58.1294   31.4346   45.0522 N   0  0  0  0  0  0  0  0  0  0  0  0
   56.9936   30.5243   44.9084 C   0  0  0  0  0  0  0  0  0  0  0  0
   56.8094   30.1627   43.4316 C   0  0  0  0  0  0  0  0  0  0  0  0
   56.7540   31.3283   42.6294 O   0  0  0  0  0  0  0  0  0  0  0  0
   57.9971   32.0047   42.6777 C   0  0  0  0  0  0  0  0  0  0  0  0
   58.2769   32.5254   44.0900 C   0  0  0  0  0  0  0  0  0  0  0  0
   60.9583   31.7545   50.3362 S   0  0  0  0  0  0  0  0  0  0  0  0
   61.2801   33.1938   50.6226 O   0  0  0  0  0  0  0  0  0  0  0  0
   62.2415   30.9688   50.3159 O   0  0  0  0  0  0  0  0  0  0  0  0
   59.8953   31.1239   51.5704 N   0  0  0  0  0  0  0  0  0  0  0  0
   59.3326   32.2141   52.4003 C   0  0  0  0  0  0  0  0  0  0  0  0
   57.8512   32.4841   52.0797 C   0  0  0  0  0  0  0  0  0  0  0  0
   57.0257   31.3421   52.2547 O   0  0  0  0  0  0  0  0  0  0  0  0
   57.6574   30.1172   51.8986 C   0  0  0  0  0  0  0  0  0  0  0  0
   58.8585   30.2767   50.9534 C   0  0  0  0  0  0  0  0  0  0  0  0
   60.0372   29.4383   45.7331 N   0  0  0  0  0  0  0  0  0  0  0  0
   59.1639   27.6944   44.4429 O   0  0  0  0  0  0  0  0  0  0  0  0
   59.2411   28.2587   45.5677 C   0  0  0  0  0  0  0  0  0  0  0  0
   58.4618   27.7838   46.6734 N   0  0  0  0  0  0  0  0  0  0  0  0
   58.4064   28.3504   47.4766 H   0  0  0  0  0  0  0  0  0  0  0  0
   57.7554   26.5296   46.6816 C   0  0  0  0  0  0  0  0  0  0  0  0
   58.2658   25.4133   47.3722 C   0  0  0  0  0  0  0  0  0  0  0  0
   57.5539   24.2097   47.3905 C   0  0  0  0  0  0  0  0  0  0  0  0
   56.3246   24.1109   46.7375 C   0  0  0  0  0  0  0  0  0  0  0  0
   55.8003   25.2183   46.0671 C   0  0  0  0  0  0  0  0  0  0  0  0
   56.5054   26.4266   46.0427 C   0  0  0  0  0  0  0  0  0  0  0  0
   55.9653   27.5175   45.3712 O   0  0  0  0  0  0  0  0  0  0  0  0
 23 24  2  0
 24 22  1  0
 22  1  1  0
  1  2  2  0
  2  3  1  0
  3 13  1  0
 13 14  2  0
 13 15  2  0
 13 16  1  0
 16 17  1  0
 17 18  1  0
 18 19  1  0
 19 20  1  0
 20 21  1  0
  3  4  2  0
  4  5  1  0
  5  6  2  0
  6  7  1  0
  7  8  1  0
  8  9  1  0
  9 10  1  0
 10 11  1  0
 11 12  1  0
 24 25  1  0
 25 27  1  0
 27 28  2  0
 28 29  1  0
 29 30  2  0
 30 31  1  0
 31 32  2  0
 32 33  1  0
  6  1  1  0
 12  7  1  0
 32 27  1  0
 21 16  1  0
 25 26  1  0
M  CHG 1  22  -1
M  CHG 1  33  -1
M  END
> <UniqueID>
11

> <SMILES>
O=C([N-]c1cc(S(=O)(=O)N2CCOCC2)ccc1N1CCOCC1)Nc1ccccc1[O-]

> <Energy>
84.29149646140189

> <Genealogy>
O=C([N-]c1cc(S(=O)(=O)N2CCOCC2)ccc1N1CCOCC1)Nc1ccccc1[O-] (protonated)
O=C([N-]c1cc(S(=O)(=O)N2CCOCC2)ccc1N1CCOCC1)Nc1ccccc1[O-] (3D coordinates assigned)
O=C([N-]c1cc(S(=O)(=O)N2CCOCC2)ccc1N1CCOCC1)Nc1ccccc1[O-] (nonaromatic ring conformer: 84.29149646140189 kcal/mol)

> <smiles>
O=C(Nc1ccccc1O)Nc1cc(S(=O)(=O)N2CCOCC2)ccc1N1CCOCC1

> <score_type>
oracle

> <origin>
adg

> <m_score__min__energy>
-14.16

> <m_primary>
energy

> <minimizedAffinity>
-5.69199

> <minimizedRMSD>
1.14508

> <CNNscore>
0.2305915058

> <CNNaffinity>
6.4368596077

> <CNN_VS>
1.4842851162

> <CNNaffinity_variance>
0.0416531861

$$$$
32:0


 33 36  0  0  0  0  0  0  0  0999 V2000
   58.2705   30.1080   45.5248 N   0  0  0  0  0  0  0  0  0  0  0  0
   57.6126   28.9502   45.2758 C   0  0  0  0  0  0  0  0  0  0  0  0
   56.7630   28.7662   44.1915 O   0  0  0  0  0  0  0  0  0  0  0  0
   57.8854   27.9888   46.2439 C   0  0  0  0  0  0  0  0  0  0  0  0
   58.7481   28.6153   47.1362 C   0  0  0  0  0  0  0  0  0  0  0  0
   59.3600   28.1572   48.3053 C   0  0  0  0  0  0  0  0  0  0  0  0
   60.1976   29.0364   49.0191 C   0  0  0  0  0  0  0  0  0  0  0  0
   60.3820   30.3703   48.5618 C   0  0  0  0  0  0  0  0  0  0  0  0
   59.7646   30.7986   47.3701 C   0  0  0  0  0  0  0  0  0  0  0  0
   58.9525   29.8975   46.6737 C   0  0  0  0  0  0  0  0  0  0  0  0
   61.3178   31.3066   49.2876 C   0  0  0  0  0  0  0  0  0  0  0  0
   61.4691   30.9612   50.7161 N   0  0  0  0  0  0  0  0  0  0  0  0
   61.8668   29.5427   50.8599 C   0  0  0  0  0  0  0  0  0  0  0  0
   60.8087   28.5687   50.3152 C   0  0  0  0  0  0  0  0  0  0  0  0
   57.3518   26.6105   46.2754 C   0  0  0  0  0  0  0  0  0  0  0  0
   55.9600   26.3589   46.0993 N   0  0  0  0  0  0  0  0  0  0  0  0
   58.1317   25.6408   46.4604 O   0  0  0  0  0  0  0  0  0  0  0  0
   55.3388   27.1087   45.9536 H   0  0  0  0  0  0  0  0  0  0  0  0
   58.2056   31.3272   44.7089 C   0  0  0  0  0  0  0  0  0  0  0  0
   59.1304   32.4250   45.2515 C   0  0  0  0  0  0  0  0  0  0  0  0
   59.3674   34.8666   46.8703 C   0  0  0  0  0  0  0  0  0  0  0  0
   58.2414   33.7554   46.0525 S   0  0  0  0  0  0  0  0  0  0  0  0
   57.3199   33.1599   47.0815 O   0  0  0  0  0  0  0  0  0  0  0  0
   57.4217   34.5150   45.0484 O   0  0  0  0  0  0  0  0  0  0  0  0
   60.2709   31.3399   51.5019 C   0  0  0  0  0  0  0  0  0  0  0  0
   59.9820   30.3235   52.6161 C   0  0  0  0  0  0  0  0  0  0  0  0
   58.5043   30.0452   52.7099 C   0  0  0  0  0  0  0  0  0  0  0  0
   58.0334   28.9622   53.4678 C   0  0  0  0  0  0  0  0  0  0  0  0
   56.6603   28.7294   53.5862 C   0  0  0  0  0  0  0  0  0  0  0  0
   55.7476   29.5820   52.9577 C   0  0  0  0  0  0  0  0  0  0  0  0
   54.3822   29.3505   53.0815 O   0  0  0  0  0  0  0  0  0  0  0  0
   56.2088   30.6692   52.2097 C   0  0  0  0  0  0  0  0  0  0  0  0
   57.5822   30.9061   52.0907 C   0  0  0  0  0  0  0  0  0  0  0  0
 21 22  1  0
 22 23  2  0
 22 24  2  0
 22 20  1  0
 20 19  1  0
 19  1  1  0
  1  2  1  0
  2  3  1  0
  2  4  2  0
  4 15  1  0
 15 16  1  0
 15 17  2  0
  4  5  1  0
  5  6  2  0
  6  7  1  0
  7  8  2  0
  8  9  1  0
  9 10  2  0
  8 11  1  0
 11 12  1  0
 12 25  1  0
 25 26  1  0
 26 27  1  0
 27 28  2  0
 28 29  1  0
 29 30  2  0
 30 31  1  0
 30 32  1  0
 32 33  2  0
 12 13  1  0
 13 14  1  0
 10  1  1  0
 33 27  1  0
 10  5  1  0
 14  7  1  0
 16 18  1  0
M  CHG 1   3  -1
M  CHG 1  16  -1
M  CHG 1  31  -1
M  END
> <UniqueID>
32

> <SMILES>
CS(=O)(=O)CCn1c([O-])c(C([NH-])=O)c2cc3c(cc21)CN(CCc1ccc([O-])cc1)CC3

> <Energy>
90.64947169345679

> <Genealogy>
CS(=O)(=O)CCn1c([O-])c(C([NH-])=O)c2cc3c(cc21)CN(CCc1ccc([O-])cc1)CC3 (protonated)
CS(=O)(=O)CCn1c([O-])c(C([NH-])=O)c2cc3c(cc21)CN(CCc1ccc([O-])cc1)CC3 (3D coordinates assigned)
CS(=O)(=O)CCn1c([O-])c(C([NH-])=O)c2cc3c(cc21)CN(CCc1ccc([O-])cc1)CC3 (nonaromatic ring conformer: 90.64947169345679 kcal/mol)

> <smiles>
CS(=O)(=O)CCn1c(O)c(C(N)=O)c2cc3c(cc21)CN(CCc1ccc(O)cc1)CC3

> <score_type>
oracle

> <origin>
adg

> <m_score__min__energy>
-14.52

> <m_primary>
energy

> <minimizedAffinity>
-7.57298

> <minimizedRMSD>
1.90221

> <CNNscore>
0.3245847225

> <CNNaffinity>
6.3623461723

> <CNN_VS>
2.0651204586

> <CNNaffinity_variance>
0.6099241972

$$$$
42:0


 33 36  0  0  0  0  0  0  0  0999 V2000
   57.9253   31.1675   54.0521 C   0  0  0  0  0  0  0  0  0  0  0  0
   58.1538   31.6415   55.1990 O   0  0  0  0  0  0  0  0  0  0  0  0
   58.7519   31.5597   52.9395 N   0  0  0  0  0  0  0  0  0  0  0  0
   60.1267   32.0105   53.2052 C   0  0  0  0  0  0  0  0  0  0  0  0
   60.8957   32.2307   51.9026 C   0  0  0  0  0  0  0  0  0  0  0  0
   60.5085   31.1811   50.9456 N   0  0  0  0  0  0  0  0  0  0  0  0
   59.1272   31.4074   50.4708 C   0  0  0  0  0  0  0  0  0  0  0  0
   58.1573   31.7924   51.6117 C   0  0  0  0  0  0  0  0  0  0  0  0
   53.6958   29.1698   52.5539 C   0  0  0  0  0  0  0  0  0  0  0  0
   54.8763   29.3603   53.1821 C   0  0  0  0  0  0  0  0  0  0  0  0
   55.6728   30.5000   53.1421 C   0  0  0  0  0  0  0  0  0  0  0  0
   56.8005   30.2245   53.8865 C   0  0  0  0  0  0  0  0  0  0  0  0
   56.7297   28.9802   54.4151 N   0  0  0  0  0  0  0  0  0  0  0  0
   57.6932   28.3608   55.3307 C   0  0  0  0  0  0  0  0  0  0  0  0
   55.5670   28.4349   53.9753 C   0  0  0  0  0  0  0  0  0  0  0  0
   55.1671   27.1877   54.2743 C   0  0  0  0  0  0  0  0  0  0  0  0
   52.6550   29.7780   49.7565 O   0  0  0  0  0  0  0  0  0  0  0  0
   52.2779   30.4731   50.9015 C   0  0  0  0  0  0  0  0  0  0  0  0
   51.3924   31.4842   50.9066 N   0  0  0  0  0  0  0  0  0  0  0  0
   51.3470   31.8293   52.2110 C   0  0  0  0  0  0  0  0  0  0  0  0
   50.6118   32.7565   52.6423 O   0  0  0  0  0  0  0  0  0  0  0  0
   52.1445   31.0967   53.0182 N   0  0  0  0  0  0  0  0  0  0  0  0
   52.7448   30.2374   52.1739 C   0  0  0  0  0  0  0  0  0  0  0  0
   52.2849   30.0064   48.9266 H   0  0  0  0  0  0  0  0  0  0  0  0
   61.4498   31.0969   49.8081 C   0  0  0  0  0  0  0  0  0  0  0  0
   62.3001   32.3790   49.6896 C   0  0  0  0  0  0  0  0  0  0  0  0
   61.9672   33.1608   48.4756 N   0  0  0  0  0  0  0  0  0  0  0  0
   61.7843   32.2716   47.2989 C   0  0  0  0  0  0  0  0  0  0  0  0
   60.3027   31.9571   47.0428 C   0  0  0  0  0  0  0  0  0  0  0  0
   59.5341   33.1858   46.7345 N   0  0  0  0  0  0  0  0  0  0  0  0
   58.1090   32.9922   47.0454 C   0  0  0  0  0  0  0  0  0  0  0  0
   60.0709   34.4004   47.3970 C   0  0  0  0  0  0  0  0  0  0  0  0
   60.8117   34.0685   48.7009 C   0  0  0  0  0  0  0  0  0  0  0  0
 17 18  1  0
 18 19  1  0
 19 20  1  0
 20 21  2  0
 20 22  1  0
 22 23  1  0
 23  9  1  0
  9 10  2  0
 10 11  1  0
 11 12  2  0
 12  1  1  0
  1  2  2  0
  1  3  1  0
  3  4  1  0
  4  5  1  0
  5  6  1  0
  6 25  1  0
 25 26  1  0
 26 27  1  0
 27 28  1  0
 28 29  1  0
 29 30  1  0
 30 31  1  0
 30 32  1  0
 32 33  1  0
  6  7  1  0
  7  8  1  0
 12 13  1  0
 13 14  1  0
 13 15  1  0
 15 16  2  0
 23 18  2  0
 15 10  1  0
  8  3  1  0
 33 27  1  0
 17 24  1  0
M  CHG 1  19  -1
M  CHG 1  22  -1
M  END
> <UniqueID>
40

> <SMILES>
C=c1/c(=C/c2[n-]c(=O)[n-]c2O)cc(C(=O)N2CCN(CCN3CCN(C)CC3)CC2)n1C

> <Energy>
147.50994050705566

> <Genealogy>
C=c1c(=Cc2[n-]c(=O)[n-]c2O)cc(C(=O)N2CCN(CCN3CCN(C)CC3)CC2)n1C (protonated)
C=c1/c(=C/c2[n-]c(=O)[n-]c2O)cc(C(=O)N2CCN(CCN3CCN(C)CC3)CC2)n1C (cis-trans isomerization)
C=c1/c(=C/c2[n-]c(=O)[n-]c2O)cc(C(=O)N2CCN(CCN3CCN(C)CC3)CC2)n1C (3D coordinates assigned)
C=c1/c(=C/c2[n-]c(=O)[n-]c2O)cc(C(=O)N2CCN(CCN3CCN(C)CC3)CC2)n1C (nonaromatic ring conformer: 147.50994050705566 kcal/mol)

> <smiles>
C=c1c(=Cc2[nH]c(=O)[nH]c2O)cc(C(=O)N2CCN(CCN3CCN(C)CC3)CC2)n1C

> <score_type>
oracle

> <origin>
adg

> <m_score__min__energy>
-14.369999999999999

> <m_primary>
energy

> <minimizedAffinity>
-7.36679

> <minimizedRMSD>
0.97712

> <CNNscore>
0.0556714907

> <CNNaffinity>
4.3179507256

> <CNN_VS>
0.2403867543

> <CNNaffinity_variance>
1.4363805056

$$$$
50:0


 28 30  0  0  0  0  0  0  0  0999 V2000
   59.1779   29.9295   50.8421 C   0  0  0  0  0  0  0  0  0  0  0  0
   59.6188   29.9041   49.5825 C   0  0  0  0  0  0  0  0  0  0  0  0
   58.9753   29.2184   48.6077 N   0  0  0  0  0  0  0  0  0  0  0  0
   59.6966   29.4638   47.4926 C   0  0  0  0  0  0  0  0  0  0  0  0
   59.4427   28.9420   46.2850 C   0  0  0  0  0  0  0  0  0  0  0  0
   60.7544   30.2842   47.8149 C   0  0  0  0  0  0  0  0  0  0  0  0
   61.6248   30.7244   47.0135 O   0  0  0  0  0  0  0  0  0  0  0  0
   60.7277   30.5532   49.1336 N   0  0  0  0  0  0  0  0  0  0  0  0
   58.8949   27.5792   46.0919 C   0  0  0  0  0  0  0  0  0  0  0  0
   57.6042   27.3584   45.5760 C   0  0  0  0  0  0  0  0  0  0  0  0
   56.7856   28.4235   45.2208 O   0  0  0  0  0  0  0  0  0  0  0  0
   57.1533   26.0895   45.3928 N   0  0  0  0  0  0  0  0  0  0  0  0
   57.9359   25.0195   45.6835 C   0  0  0  0  0  0  0  0  0  0  0  0
   57.4957   23.8545   45.5064 O   0  0  0  0  0  0  0  0  0  0  0  0
   59.1932   25.2062   46.1605 N   0  0  0  0  0  0  0  0  0  0  0  0
   59.6911   26.4532   46.3646 C   0  0  0  0  0  0  0  0  0  0  0  0
   60.8648   26.5867   46.8077 O   0  0  0  0  0  0  0  0  0  0  0  0
   61.6940   31.3650   49.8844 C   0  0  0  0  0  0  0  0  0  0  0  0
   61.4565   32.8420   49.6847 C   0  0  0  0  0  0  0  0  0  0  0  0
   62.4573   33.6098   49.6848 O   0  0  0  0  0  0  0  0  0  0  0  0
   60.1358   33.3940   49.4865 N   0  0  0  0  0  0  0  0  0  0  0  0
   59.3524   33.8146   50.6497 C   0  0  0  0  0  0  0  0  0  0  0  0
   59.6063   33.6256   48.1701 C   0  0  0  0  0  0  0  0  0  0  0  0
   60.2719   34.4864   47.2839 C   0  0  0  0  0  0  0  0  0  0  0  0
   59.7671   34.6995   45.9981 C   0  0  0  0  0  0  0  0  0  0  0  0
   58.5860   34.0673   45.5970 C   0  0  0  0  0  0  0  0  0  0  0  0
   57.9104   33.2232   46.4801 C   0  0  0  0  0  0  0  0  0  0  0  0
   58.4186   32.9996   47.7628 C   0  0  0  0  0  0  0  0  0  0  0  0
  1  2  2  0
  2  3  1  0
  3  4  1  0
  4  5  2  0
  5  9  1  0
  9 10  2  0
 10 11  1  0
 10 12  1  0
 12 13  1  0
 13 14  2  0
 13 15  1  0
 15 16  1  0
 16 17  2  0
  4  6  1  0
  6  7  2  0
  6  8  1  0
  8 18  1  0
 18 19  1  0
 19 20  2  0
 19 21  1  0
 21 23  1  0
 23 24  2  0
 24 25  1  0
 25 26  2  0
 26 27  1  0
 27 28  2  0
 21 22  1  0
  8  2  1  0
 28 23  1  0
 16  9  1  0
M  CHG 1   3  -1
M  CHG 1  11  -1
M  CHG 1  12  -1
M  CHG 1  15  -1
M  END
> <UniqueID>
47

> <SMILES>
C=c1[n-]/c(=C\c2c([O-])[n-]c(=O)[n-]c2=O)c(=O)n1CC(=O)N(C)c1ccccc1

> <Energy>
87.47666923216619

> <Genealogy>
C=c1[n-]c(=Cc2c([O-])[n-]c(=O)[n-]c2=O)c(=O)n1CC(=O)N(C)c1ccccc1 (protonated)
C=c1[n-]/c(=C\c2c([O-])[n-]c(=O)[n-]c2=O)c(=O)n1CC(=O)N(C)c1ccccc1 (cis-trans isomerization)
C=c1[n-]/c(=C\c2c([O-])[n-]c(=O)[n-]c2=O)c(=O)n1CC(=O)N(C)c1ccccc1 (3D coordinates assigned)
C=c1[n-]/c(=C\c2c([O-])[n-]c(=O)[n-]c2=O)c(=O)n1CC(=O)N(C)c1ccccc1 (optimized conformer: 87.47666923216619 kcal/mol)

> <smiles>
C=c1[nH]c(=Cc2c(O)[nH]c(=O)[nH]c2=O)c(=O)n1CC(=O)N(C)c1ccccc1

> <score_type>
oracle

> <origin>
adg

> <m_score__min__energy>
-17.390000000000001

> <m_primary>
energy

> <minimizedAffinity>
-7.57796

> <minimizedRMSD>
1.70390

> <CNNscore>
0.5868393779

> <CNNaffinity>
6.8827033043

> <CNN_VS>
4.0390415192

> <CNNaffinity_variance>
0.2137021273

$$$$
79:0


 35 38  0  0  0  0  0  0  0  0999 V2000
   57.3685   31.1091   43.7729 C   0  0  0  0  0  0  0  0  0  0  0  0
   57.9563   31.9112   42.7827 C   0  0  0  0  0  0  0  0  0  0  0  0
   58.5306   33.1364   43.1207 C   0  0  0  0  0  0  0  0  0  0  0  0
   58.5396   33.5710   44.4485 C   0  0  0  0  0  0  0  0  0  0  0  0
   59.1411   34.7853   44.7581 O   0  0  0  0  0  0  0  0  0  0  0  0
   57.9564   32.7774   45.4573 C   0  0  0  0  0  0  0  0  0  0  0  0
   57.3482   31.5598   45.1031 C   0  0  0  0  0  0  0  0  0  0  0  0
   57.9445   33.2441   46.8639 C   0  0  0  0  0  0  0  0  0  0  0  0
   56.8369   33.5682   47.3737 O   0  0  0  0  0  0  0  0  0  0  0  0
   59.1433   33.3257   47.6705 N   0  0  0  0  0  0  0  0  0  0  0  0
   59.0022   33.4456   49.1319 C   0  0  0  0  0  0  0  0  0  0  0  0
   60.3447   33.7194   49.8263 C   0  0  0  0  0  0  0  0  0  0  0  0
   61.3818   32.8300   49.2887 N   0  0  0  0  0  0  0  0  0  0  0  0
   62.4011   32.3227   50.1623 C   0  0  0  0  0  0  0  0  0  0  0  0
   62.9049   33.0737   51.0446 O   0  0  0  0  0  0  0  0  0  0  0  0
   61.4742   32.5823   47.8440 C   0  0  0  0  0  0  0  0  0  0  0  0
   60.4832   33.4611   47.0744 C   0  0  0  0  0  0  0  0  0  0  0  0
   62.8689   30.9033   50.0283 C   0  0  0  0  0  0  0  0  0  0  0  0
   63.1806   30.1701   51.3238 C   0  0  0  0  0  0  0  0  0  0  0  0
   61.8777   29.8990   50.5970 C   0  0  0  0  0  0  0  0  0  0  0  0
   56.8037   29.7578   43.4202 C   0  0  0  0  0  0  0  0  0  0  0  0
   57.4904   28.6525   44.1786 C   0  0  0  0  0  0  0  0  0  0  0  0
   58.2479   27.8552   43.5650 O   0  0  0  0  0  0  0  0  0  0  0  0
   57.3079   28.4848   45.5906 N   0  0  0  0  0  0  0  0  0  0  0  0
   57.9799   26.4006   46.7383 C   0  0  0  0  0  0  0  0  0  0  0  0
   58.8995   25.7120   47.5531 C   0  0  0  0  0  0  0  0  0  0  0  0
   60.0168   26.3638   48.0755 C   0  0  0  0  0  0  0  0  0  0  0  0
   60.2502   27.7049   47.7759 C   0  0  0  0  0  0  0  0  0  0  0  0
   59.3607   28.4083   46.9578 C   0  0  0  0  0  0  0  0  0  0  0  0
   59.7749   30.0583   46.5103 Cl  0  0  0  0  0  0  0  0  0  0  0  0
   58.2053   27.7711   46.4532 C   0  0  0  0  0  0  0  0  0  0  0  0
   55.5126   26.2747   46.1638 N   0  0  0  0  0  0  0  0  0  0  0  0
   56.8004   25.6636   46.2182 C   0  0  0  0  0  0  0  0  0  0  0  0
   56.9282   24.4708   45.8325 O   0  0  0  0  0  0  0  0  0  0  0  0
   54.7425   25.7699   45.8156 H   0  0  0  0  0  0  0  0  0  0  0  0
 32 33  1  0
 33 34  2  0
 33 25  1  0
 25 26  2  0
 26 27  1  0
 27 28  2  0
 28 29  1  0
 29 30  1  0
 29 31  2  0
 31 24  1  0
 24 22  1  0
 22 23  2  0
 22 21  1  0
 21  1  1  0
  1  2  2  0
  2  3  1  0
  3  4  2  0
  4  5  1  0
  4  6  1  0
  6  8  1  0
  8  9  2  0
  8 10  1  0
 10 11  1  0
 11 12  1  0
 12 13  1  0
 13 14  1  0
 14 15  2  0
 14 18  1  0
 18 19  1  0
 19 20  1  0
 13 16  1  0
 16 17  1  0
  6  7  2  0
 31 25  1  0
  7  1  1  0
 17 10  1  0
 20 18  1  0
 32 35  1  0
M  CHG 1   5  -1
M  CHG 1  24  -1
M  CHG 1  32  -1
M  END
> <UniqueID>
74

> <SMILES>
[NH-]C(=O)c1cccc(Cl)c1[N-]C(=O)Cc1ccc([O-])c(C(=O)N2CCN(C(=O)C3CC3)CC2)c1

> <Energy>
338.04424748777893

> <Genealogy>
[NH-]C(=O)c1cccc(Cl)c1[N-]C(=O)Cc1ccc([O-])c(C(=O)N2CCN(C(=O)C3CC3)CC2)c1 (protonated)
[NH-]C(=O)c1cccc(Cl)c1[N-]C(=O)Cc1ccc([O-])c(C(=O)N2CCN(C(=O)C3CC3)CC2)c1 (3D coordinates assigned)
[NH-]C(=O)c1cccc(Cl)c1[N-]C(=O)Cc1ccc([O-])c(C(=O)N2CCN(C(=O)C3CC3)CC2)c1 (nonaromatic ring conformer: 338.04424748777893 kcal/mol)

> <smiles>
NC(=O)c1cccc(Cl)c1NC(=O)Cc1ccc(O)c(C(=O)N2CCN(C(=O)C3CC3)CC2)c1

> <score_type>
oracle

> <origin>
adg

> <m_score__min__energy>
-15.9

> <m_primary>
energy

> <minimizedAffinity>
-6.05239

> <minimizedRMSD>
0.85415

> <CNNscore>
0.2541404068

> <CNNaffinity>
6.9128665924

> <CNN_VS>
1.7568386793

> <CNNaffinity_variance>
0.1623296887

$$$$
87:0


 34 37  0  0  0  0  0  0  0  0999 V2000
   59.3005   29.8476   46.3876 C   0  0  0  0  0  0  0  0  0  0  0  0
   58.4066   30.9023   46.6207 C   0  0  0  0  0  0  0  0  0  0  0  0
   58.8705   32.1177   47.1315 C   0  0  0  0  0  0  0  0  0  0  0  0
   60.2365   32.2999   47.4055 C   0  0  0  0  0  0  0  0  0  0  0  0
   61.1252   31.2328   47.1922 C   0  0  0  0  0  0  0  0  0  0  0  0
   60.6590   30.0182   46.6832 C   0  0  0  0  0  0  0  0  0  0  0  0
   59.6895   27.1274   47.5458 C   0  0  0  0  0  0  0  0  0  0  0  0
   58.9773   27.3619   46.4322 C   0  0  0  0  0  0  0  0  0  0  0  0
   58.3304   26.4046   45.6451 C   0  0  0  0  0  0  0  0  0  0  0  0
   58.2241   25.0831   45.8893 C   0  0  0  0  0  0  0  0  0  0  0  0
   57.7634   27.0935   44.5810 C   0  0  0  0  0  0  0  0  0  0  0  0
   58.0795   28.4258   44.7587 C   0  0  0  0  0  0  0  0  0  0  0  0
   57.6518   29.5311   43.8400 C   0  0  0  0  0  0  0  0  0  0  0  0
   58.8204   28.5906   45.8762 N   0  0  0  0  0  0  0  0  0  0  0  0
   57.2413   24.2000   45.2368 C   0  0  0  0  0  0  0  0  0  0  0  0
   57.5690   23.3033   44.2913 N   0  0  0  0  0  0  0  0  0  0  0  0
   56.3765   22.7855   43.9229 C   0  0  0  0  0  0  0  0  0  0  0  0
   56.2687   21.8852   43.0504 O   0  0  0  0  0  0  0  0  0  0  0  0
   55.3085   23.3135   44.5587 N   0  0  0  0  0  0  0  0  0  0  0  0
   55.8708   24.2166   45.3777 C   0  0  0  0  0  0  0  0  0  0  0  0
   55.1408   25.0683   46.1982 O   0  0  0  0  0  0  0  0  0  0  0  0
   60.6924   33.6059   47.9412 C   0  0  0  0  0  0  0  0  0  0  0  0
   60.4017   34.6424   47.2824 O   0  0  0  0  0  0  0  0  0  0  0  0
   61.4770   33.7478   49.1570 N   0  0  0  0  0  0  0  0  0  0  0  0
   62.9498   33.6247   48.9535 C   0  0  0  0  0  0  0  0  0  0  0  0
   63.5406   32.3595   49.5977 C   0  0  0  0  0  0  0  0  0  0  0  0
   63.2497   32.2895   51.0513 N   0  0  0  0  0  0  0  0  0  0  0  0
   61.9132   32.8288   51.4176 C   0  0  0  0  0  0  0  0  0  0  0  0
   60.9452   32.8754   50.2255 C   0  0  0  0  0  0  0  0  0  0  0  0
   61.3538   34.1066   48.2485 H   0  0  0  0  0  0  0  0  0  0  0  0
   63.4376   30.9190   51.5795 C   0  0  0  0  0  0  0  0  0  0  0  0
   62.1027   30.2029   51.8139 C   0  0  0  0  0  0  0  0  0  0  0  0
   61.7706   29.4373   50.6746 O   0  0  0  0  0  0  0  0  0  0  0  0
   60.9920   28.3300   51.0665 C   0  0  0  0  0  0  0  0  0  0  0  0
  7  8  2  0
  8  9  1  0
  9 10  2  0
 10 15  1  0
 15 16  1  0
 16 17  1  0
 17 18  2  0
 17 19  1  0
 19 20  1  0
 20 21  1  0
  9 11  1  0
 11 12  2  0
 12 13  1  0
 12 14  1  0
 14  1  1  0
  1  2  2  0
  2  3  1  0
  3  4  2  0
  4 22  1  0
 22 23  2  0
 22 24  1  0
 24 25  1  0
 25 26  1  0
 26 27  1  0
 27 31  1  0
 31 32  1  0
 32 33  1  0
 33 34  1  0
 27 28  1  0
 28 29  1  0
  4  5  1  0
  5  6  2  0
 14  8  1  0
  6  1  1  0
 20 15  2  0
 29 24  1  0
 24 30  1  0
M  CHG 1  16  -1
M  CHG 1  19  -1
M  CHG 1  21  -1
M  CHG 1  24   1
M  END
> <UniqueID>
82

> <SMILES>
C=c1/c(=C/c2[n-]c(=O)[n-]c2[O-])cc(C)n1-c1ccc(C(=O)[NH+]2CCN(CCOC)CC2)cc1

> <Energy>
156.29743516304222

> <Genealogy>
C=c1c(=Cc2[n-]c(=O)[n-]c2[O-])cc(C)n1-c1ccc(C(=O)[NH+]2CCN(CCOC)CC2)cc1 (protonated)
C=c1/c(=C/c2[n-]c(=O)[n-]c2[O-])cc(C)n1-c1ccc(C(=O)[NH+]2CCN(CCOC)CC2)cc1 (cis-trans isomerization)
C=c1/c(=C/c2[n-]c(=O)[n-]c2[O-])cc(C)n1-c1ccc(C(=O)[NH+]2CCN(CCOC)CC2)cc1 (3D coordinates assigned)
C=c1/c(=C/c2[n-]c(=O)[n-]c2[O-])cc(C)n1-c1ccc(C(=O)[NH+]2CCN(CCOC)CC2)cc1 (nonaromatic ring conformer: 156.29743516304222 kcal/mol)

> <smiles>
C=c1c(=Cc2[nH]c(=O)[nH]c2O)cc(C)n1-c1ccc(C(=O)N2CCN(CCOC)CC2)cc1

> <score_type>
oracle

> <origin>
adg

> <m_score__min__energy>
-14.85

> <m_primary>
energy

> <minimizedAffinity>
-8.07579

> <minimizedRMSD>
1.05581

> <CNNscore>
0.0912474543

> <CNNaffinity>
6.4389820099

> <CNN_VS>
0.5875407457

> <CNNaffinity_variance>
0.0312737077

$$$$
90:0


 37 41  0  0  0  0  0  0  0  0999 V2000
   60.1991   28.6803   47.9997 C   0  0  0  0  0  0  0  0  0  0  0  0
   60.3989   27.9181   49.1593 C   0  0  0  0  0  0  0  0  0  0  0  0
   60.9415   28.5072   50.3035 C   0  0  0  0  0  0  0  0  0  0  0  0
   61.2996   29.8566   50.2955 C   0  0  0  0  0  0  0  0  0  0  0  0
   61.1429   30.6233   49.1311 C   0  0  0  0  0  0  0  0  0  0  0  0
   60.5813   30.0319   47.9896 C   0  0  0  0  0  0  0  0  0  0  0  0
   61.1431   28.8036   45.1228 C   0  0  0  0  0  0  0  0  0  0  0  0
   60.0803   28.1131   45.5411 C   0  0  0  0  0  0  0  0  0  0  0  0
   59.3011   27.4072   44.6880 N   0  0  0  0  0  0  0  0  0  0  0  0
   58.3206   26.9009   45.4661 C   0  0  0  0  0  0  0  0  0  0  0  0
   57.3021   26.1464   45.0266 C   0  0  0  0  0  0  0  0  0  0  0  0
   58.5198   27.3220   46.7629 C   0  0  0  0  0  0  0  0  0  0  0  0
   57.7955   27.0386   47.7562 O   0  0  0  0  0  0  0  0  0  0  0  0
   59.6315   28.0756   46.8237 N   0  0  0  0  0  0  0  0  0  0  0  0
   57.0892   24.7351   45.3999 C   0  0  0  0  0  0  0  0  0  0  0  0
   58.0751   23.8122   45.3436 N   0  0  0  0  0  0  0  0  0  0  0  0
   57.4664   22.6600   45.6971 C   0  0  0  0  0  0  0  0  0  0  0  0
   58.0709   21.5553   45.7436 O   0  0  0  0  0  0  0  0  0  0  0  0
   56.1557   22.8041   45.9732 N   0  0  0  0  0  0  0  0  0  0  0  0
   55.1840   21.7550   46.2603 C   0  0  0  0  0  0  0  0  0  0  0  0
   55.9069   24.1043   45.7536 C   0  0  0  0  0  0  0  0  0  0  0  0
   54.6414   24.6746   45.8059 O   0  0  0  0  0  0  0  0  0  0  0  0
   61.5068   32.0594   49.0951 C   0  0  0  0  0  0  0  0  0  0  0  0
   62.7329   32.3394   49.2009 O   0  0  0  0  0  0  0  0  0  0  0  0
   60.5383   33.1537   49.0767 N   0  0  0  0  0  0  0  0  0  0  0  0
   60.7694   34.0495   47.9260 C   0  0  0  0  0  0  0  0  0  0  0  0
   60.3953   33.3670   46.6087 C   0  0  0  0  0  0  0  0  0  0  0  0
   59.0743   32.7359   46.6959 N   0  0  0  0  0  0  0  0  0  0  0  0
   58.2655   32.8859   47.9143 C   0  0  0  0  0  0  0  0  0  0  0  0
   59.1031   32.7650   49.2121 C   0  0  0  0  0  0  0  0  0  0  0  0
   60.3317   33.9524   48.5395 H   0  0  0  0  0  0  0  0  0  0  0  0
   58.4752   32.2011   45.4936 C   0  0  0  0  0  0  0  0  0  0  0  0
   57.9589   30.8911   45.4703 C   0  0  0  0  0  0  0  0  0  0  0  0
   57.3735   30.3805   44.3078 C   0  0  0  0  0  0  0  0  0  0  0  0
   57.2972   31.1681   43.1565 C   0  0  0  0  0  0  0  0  0  0  0  0
   57.8036   32.4694   43.1675 C   0  0  0  0  0  0  0  0  0  0  0  0
   58.3860   32.9849   44.3283 C   0  0  0  0  0  0  0  0  0  0  0  0
  7  8  2  0
  8  9  1  0
  9 10  1  0
 10 11  2  0
 11 15  1  0
 15 16  1  0
 16 17  1  0
 17 18  2  0
 17 19  1  0
 19 20  1  0
 19 21  1  0
 21 22  1  0
 10 12  1  0
 12 13  2  0
 12 14  1  0
 14  1  1  0
  1  2  2  0
  2  3  1  0
  3  4  2  0
  4  5  1  0
  5 23  1  0
 23 24  2  0
 23 25  1  0
 25 26  1  0
 26 27  1  0
 27 28  1  0
 28 32  1  0
 32 33  2  0
 33 34  1  0
 34 35  2  0
 35 36  1  0
 36 37  2  0
 28 29  1  0
 29 30  1  0
  5  6  2  0
 14  8  1  0
  6  1  1  0
 21 15  2  0
 30 25  1  0
 37 32  1  0
 25 31  1  0
M  CHG 1   9  -1
M  CHG 1  16  -1
M  CHG 1  22  -1
M  CHG 1  25   1
M  END
> <UniqueID>
85

> <SMILES>
C=c1[n-]/c(=C\c2[n-]c(=O)n(C)c2[O-])c(=O)n1-c1cccc(C(=O)[NH+]2CCN(c3ccccc3)CC2)c1

> <Energy>
164.97790324428485

> <Genealogy>
C=c1[n-]c(=Cc2[n-]c(=O)n(C)c2[O-])c(=O)n1-c1cccc(C(=O)[NH+]2CCN(c3ccccc3)CC2)c1 (protonated)
C=c1[n-]/c(=C\c2[n-]c(=O)n(C)c2[O-])c(=O)n1-c1cccc(C(=O)[NH+]2CCN(c3ccccc3)CC2)c1 (cis-trans isomerization)
C=c1[n-]/c(=C\c2[n-]c(=O)n(C)c2[O-])c(=O)n1-c1cccc(C(=O)[NH+]2CCN(c3ccccc3)CC2)c1 (3D coordinates assigned)
C=c1[n-]/c(=C\c2[n-]c(=O)n(C)c2[O-])c(=O)n1-c1cccc(C(=O)[NH+]2CCN(c3ccccc3)CC2)c1 (nonaromatic ring conformer: 164.97790324428485 kcal/mol)

> <smiles>
C=c1[nH]c(=Cc2[nH]c(=O)n(C)c2O)c(=O)n1-c1cccc(C(=O)N2CCN(c3ccccc3)CC2)c1

> <score_type>
oracle

> <origin>
adg

> <m_score__min__energy>
-15.82

> <m_primary>
energy

> <minimizedAffinity>
-8.47738

> <minimizedRMSD>
1.60783

> <CNNscore>
0.1494755149

> <CNNaffinity>
6.7620949745

> <CNN_VS>
1.0107675791

> <CNNaffinity_variance>
0.1758239865

$$$$
7:0


 34 37  0  0  0  0  0  0  0  0999 V2000
   57.1374   31.4541   52.1378 C   0  0  0  0  0  0  0  0  0  0  0  0
   57.0771   32.6855   52.4014 O   0  0  0  0  0  0  0  0  0  0  0  0
   58.2703   30.9440   51.4061 N   0  0  0  0  0  0  0  0  0  0  0  0
   58.8281   29.6166   51.7020 C   0  0  0  0  0  0  0  0  0  0  0  0
   60.3578   29.6874   51.7884 C   0  0  0  0  0  0  0  0  0  0  0  0
   60.9383   30.4862   50.6966 N   0  0  0  0  0  0  0  0  0  0  0  0
   62.3762   30.6110   50.6182 C   0  0  0  0  0  0  0  0  0  0  0  0
   63.1012   29.7609   51.2082 O   0  0  0  0  0  0  0  0  0  0  0  0
   60.0475   31.0733   49.6823 C   0  0  0  0  0  0  0  0  0  0  0  0
   58.8835   31.7896   50.3724 C   0  0  0  0  0  0  0  0  0  0  0  0
   53.0725   27.8502   53.6231 C   0  0  0  0  0  0  0  0  0  0  0  0
   53.9456   28.8507   53.4042 C   0  0  0  0  0  0  0  0  0  0  0  0
   55.2633   28.6681   53.8681 C   0  0  0  0  0  0  0  0  0  0  0  0
   56.2881   29.5230   53.4710 C   0  0  0  0  0  0  0  0  0  0  0  0
   56.0335   30.5701   52.5815 C   0  0  0  0  0  0  0  0  0  0  0  0
   54.7143   30.8123   52.1714 C   0  0  0  0  0  0  0  0  0  0  0  0
   53.6397   30.0164   52.6256 C   0  0  0  0  0  0  0  0  0  0  0  0
   52.3901   30.4358   52.3014 C   0  0  0  0  0  0  0  0  0  0  0  0
   51.9059   30.7817   50.9523 C   0  0  0  0  0  0  0  0  0  0  0  0
   51.6108   32.0367   50.5705 N   0  0  0  0  0  0  0  0  0  0  0  0
   51.1087   31.8771   49.3265 C   0  0  0  0  0  0  0  0  0  0  0  0
   50.7223   32.8447   48.6226 O   0  0  0  0  0  0  0  0  0  0  0  0
   51.0391   30.5974   48.9029 N   0  0  0  0  0  0  0  0  0  0  0  0
   51.5333   29.9127   49.9487 C   0  0  0  0  0  0  0  0  0  0  0  0
   51.6176   28.5255   49.9965 O   0  0  0  0  0  0  0  0  0  0  0  0
   51.3393   28.0137   49.2626 H   0  0  0  0  0  0  0  0  0  0  0  0
   63.0282   31.7263   49.8390 C   0  0  0  0  0  0  0  0  0  0  0  0
   64.1038   32.4316   50.6365 C   0  0  0  0  0  0  0  0  0  0  0  0
   65.4319   32.3898   50.1750 C   0  0  0  0  0  0  0  0  0  0  0  0
   66.4473   33.0504   50.8734 C   0  0  0  0  0  0  0  0  0  0  0  0
   66.1450   33.7671   52.0334 C   0  0  0  0  0  0  0  0  0  0  0  0
   64.8274   33.8301   52.4920 C   0  0  0  0  0  0  0  0  0  0  0  0
   63.8021   33.1738   51.8009 C   0  0  0  0  0  0  0  0  0  0  0  0
   62.0129   33.3395   52.4769 Br  0  0  0  0  0  0  0  0  0  0  0  0
 11 12  2  0
 12 13  1  0
 13 14  2  0
 14 15  1  0
 15  1  1  0
  1  2  2  0
  1  3  1  0
  3  4  1  0
  4  5  1  0
  5  6  1  0
  6  7  1  0
  7  8  2  0
  7 27  1  0
 27 28  1  0
 28 29  2  0
 29 30  1  0
 30 31  2  0
 31 32  1  0
 32 33  2  0
 33 34  1  0
  6  9  1  0
  9 10  1  0
 15 16  2  0
 16 17  1  0
 17 18  2  0
 18 19  1  0
 19 20  1  0
 20 21  1  0
 21 22  2  0
 21 23  1  0
 23 24  1  0
 24 25  1  0
 17 12  1  0
 24 19  2  0
 10  3  1  0
 33 28  1  0
 25 26  1  0
M  CHG 1  20  -1
M  CHG 1  23  -1
M  END
> <UniqueID>
7

> <SMILES>
C=c1ccc(C(=O)N2CCN(C(=O)Cc3ccccc3Br)CC2)cc1=Cc1[n-]c(=O)[n-]c1O

> <Energy>
114.69698480875054

> <Genealogy>
C=c1ccc(C(=O)N2CCN(C(=O)Cc3ccccc3Br)CC2)cc1=Cc1[n-]c(=O)[n-]c1O (protonated)
C=c1ccc(C(=O)N2CCN(C(=O)Cc3ccccc3Br)CC2)cc1=Cc1[n-]c(=O)[n-]c1O (3D coordinates assigned)
C=c1ccc(C(=O)N2CCN(C(=O)Cc3ccccc3Br)CC2)cc1=Cc1[n-]c(=O)[n-]c1O (nonaromatic ring conformer: 114.69698480875054 kcal/mol)

> <smiles>
C=c1ccc(C(=O)N2CCN(C(=O)Cc3ccccc3Br)CC2)cc1=Cc1[nH]c(=O)[nH]c1O

> <score_type>
oracle

> <origin>
adg

> <m_score__min__energy>
-14.220000000000001

> <m_primary>
energy

> <minimizedAffinity>
-4.95760

> <minimizedRMSD>
0.70453

> <CNNscore>
0.0533291921

> <CNNaffinity>
4.5850739479

> <CNN_VS>
0.2445182949

> <CNNaffinity_variance>
0.7735314369

$$$$
14:0


 32 35  0  0  0  0  0  0  0  0999 V2000
   59.3068   32.2124   48.0393 C   0  0  0  0  0  0  0  0  0  0  0  0
   58.4788   32.2464   48.9901 O   0  0  0  0  0  0  0  0  0  0  0  0
   60.3781   33.2036   47.9463 N   0  0  0  0  0  0  0  0  0  0  0  0
   60.5892   33.9525   49.2139 C   0  0  0  0  0  0  0  0  0  0  0  0
   61.2254   33.0782   50.3066 C   0  0  0  0  0  0  0  0  0  0  0  0
   62.4416   32.4538   49.7816 N   0  0  0  0  0  0  0  0  0  0  0  0
   63.7312   32.8488   50.2915 C   0  0  0  0  0  0  0  0  0  0  0  0
   63.9286   34.0605   50.5855 O   0  0  0  0  0  0  0  0  0  0  0  0
   62.2985   31.7035   48.5317 C   0  0  0  0  0  0  0  0  0  0  0  0
   61.6588   32.6150   47.4737 C   0  0  0  0  0  0  0  0  0  0  0  0
   60.3485   32.3613   47.4374 H   0  0  0  0  0  0  0  0  0  0  0  0
   64.8746   31.8742   50.4914 C   0  0  0  0  0  0  0  0  0  0  0  0
   66.2845   32.5346   50.4707 C   0  0  0  0  0  0  0  0  0  0  0  0
   67.2011   32.0371   51.5971 C   0  0  0  0  0  0  0  0  0  0  0  0
   67.1668   30.5085   51.6925 C   0  0  0  0  0  0  0  0  0  0  0  0
   65.7424   29.9484   51.9166 C   0  0  0  0  0  0  0  0  0  0  0  0
   64.6272   30.9915   51.7344 C   0  0  0  0  0  0  0  0  0  0  0  0
   58.0119   29.8389   44.0073 C   0  0  0  0  0  0  0  0  0  0  0  0
   58.6026   30.0980   45.1849 C   0  0  0  0  0  0  0  0  0  0  0  0
   59.2909   29.1878   46.0060 C   0  0  0  0  0  0  0  0  0  0  0  0
   59.6630   27.9093   45.8006 C   0  0  0  0  0  0  0  0  0  0  0  0
   59.5746   29.8639   47.1788 C   0  0  0  0  0  0  0  0  0  0  0  0
   59.1261   31.1561   47.0178 C   0  0  0  0  0  0  0  0  0  0  0  0
   58.5110   31.2981   45.8190 N   0  0  0  0  0  0  0  0  0  0  0  0
   57.7854   32.4863   45.3517 C   0  0  0  0  0  0  0  0  0  0  0  0
   58.7683   26.7426   45.8148 C   0  0  0  0  0  0  0  0  0  0  0  0
   59.1788   25.4697   45.9796 N   0  0  0  0  0  0  0  0  0  0  0  0
   58.0191   24.7785   46.0383 C   0  0  0  0  0  0  0  0  0  0  0  0
   57.9842   23.5284   46.1743 O   0  0  0  0  0  0  0  0  0  0  0  0
   56.8998   25.5349   45.9506 N   0  0  0  0  0  0  0  0  0  0  0  0
   57.3946   26.7757   45.8234 C   0  0  0  0  0  0  0  0  0  0  0  0
   56.6060   27.9164   45.7151 O   0  0  0  0  0  0  0  0  0  0  0  0
 18 19  2  0
 19 20  1  0
 20 21  2  0
 21 26  1  0
 26 27  1  0
 27 28  1  0
 28 29  2  0
 28 30  1  0
 30 31  1  0
 31 32  1  0
 20 22  1  0
 22 23  2  0
 23  1  1  0
  1  2  2  0
  1  3  1  0
  3  4  1  0
  4  5  1  0
  5  6  1  0
  6  7  1  0
  7  8  2  0
  7 12  1  0
 12 13  1  0
 13 14  1  0
 14 15  1  0
 15 16  1  0
 16 17  1  0
  6  9  1  0
  9 10  1  0
 23 24  1  0
 24 25  1  0
 24 19  1  0
 31 26  2  0
 10  3  1  0
 17 12  1  0
  3 11  1  0
M  CHG 1   3   1
M  CHG 1  27  -1
M  CHG 1  30  -1
M  CHG 1  32  -1
M  END
> <UniqueID>
12

> <SMILES>
C=c1/c(=C\c2[n-]c(=O)[n-]c2[O-])cc(C(=O)[NH+]2CCN(C(=O)C3CCCCC3)CC2)n1C

> <Energy>
150.26987884858158

> <Genealogy>
C=c1c(=Cc2[n-]c(=O)[n-]c2[O-])cc(C(=O)[NH+]2CCN(C(=O)C3CCCCC3)CC2)n1C (protonated)
C=c1/c(=C\c2[n-]c(=O)[n-]c2[O-])cc(C(=O)[NH+]2CCN(C(=O)C3CCCCC3)CC2)n1C (cis-trans isomerization)
C=c1/c(=C\c2[n-]c(=O)[n-]c2[O-])cc(C(=O)[NH+]2CCN(C(=O)C3CCCCC3)CC2)n1C (3D coordinates assigned)
C=c1/c(=C\c2[n-]c(=O)[n-]c2[O-])cc(C(=O)[NH+]2CCN(C(=O)C3CCCCC3)CC2)n1C (nonaromatic ring conformer: 150.26987884858158 kcal/mol)

> <smiles>
C=c1c(=Cc2[nH]c(=O)[nH]c2O)cc(C(=O)N2CCN(C(=O)C3CCCCC3)CC2)n1C

> <score_type>
oracle

> <origin>
adg

> <m_score__min__energy>
-17.550000000000001

> <m_primary>
energy

> <minimizedAffinity>
-8.11733

> <minimizedRMSD>
1.38036

> <CNNscore>
0.2205289751

> <CNNaffinity>
6.8266539574

> <CNN_VS>
1.5054750443

> <CNNaffinity_variance>
0.0561610647

$$$$
18:0


 26 28  0  0  0  0  0  0  0  0999 V2000
   56.9281   29.6600   43.9902 C   0  0  0  0  0  0  0  0  0  0  0  0
   57.9268   29.2953   44.8118 C   0  0  0  0  0  0  0  0  0  0  0  0
   58.4539   28.0059   44.9434 C   0  0  0  0  0  0  0  0  0  0  0  0
   58.0131   26.8773   44.3531 C   0  0  0  0  0  0  0  0  0  0  0  0
   59.5000   28.1032   45.8508 C   0  0  0  0  0  0  0  0  0  0  0  0
   59.5717   29.4273   46.2319 C   0  0  0  0  0  0  0  0  0  0  0  0
   60.5420   29.9635   47.2426 C   0  0  0  0  0  0  0  0  0  0  0  0
   58.6203   30.1562   45.6024 N   0  0  0  0  0  0  0  0  0  0  0  0
   58.3826   31.5626   45.7947 C   0  0  0  0  0  0  0  0  0  0  0  0
   58.1030   32.2973   44.8076 O   0  0  0  0  0  0  0  0  0  0  0  0
   57.5981   25.6692   45.0879 C   0  0  0  0  0  0  0  0  0  0  0  0
   58.3387   24.5479   45.1400 N   0  0  0  0  0  0  0  0  0  0  0  0
   57.6385   23.7469   45.9718 C   0  0  0  0  0  0  0  0  0  0  0  0
   58.0116   22.5824   46.2649 O   0  0  0  0  0  0  0  0  0  0  0  0
   56.5138   24.2986   46.4753 N   0  0  0  0  0  0  0  0  0  0  0  0
   56.5077   25.5195   45.9162 C   0  0  0  0  0  0  0  0  0  0  0  0
   55.5522   26.4881   46.1983 O   0  0  0  0  0  0  0  0  0  0  0  0
   58.4403   32.1237   47.1099 N   0  0  0  0  0  0  0  0  0  0  0  0
   58.8457   33.4971   47.3849 C   0  0  0  0  0  0  0  0  0  0  0  0
   60.2922   33.5373   47.7972 C   0  0  0  0  0  0  0  0  0  0  0  0
   61.3084   33.4226   46.8350 C   0  0  0  0  0  0  0  0  0  0  0  0
   62.6517   33.4913   47.2155 C   0  0  0  0  0  0  0  0  0  0  0  0
   62.9909   33.6795   48.5567 C   0  0  0  0  0  0  0  0  0  0  0  0
   61.9871   33.8022   49.5204 C   0  0  0  0  0  0  0  0  0  0  0  0
   60.6417   33.7336   49.1477 C   0  0  0  0  0  0  0  0  0  0  0  0
   59.6797   33.8639   50.0967 F   0  0  0  0  0  0  0  0  0  0  0  0
  1  2  2  0
  2  3  1  0
  3  4  2  0
  4 11  1  0
 11 12  1  0
 12 13  1  0
 13 14  2  0
 13 15  1  0
 15 16  1  0
 16 17  1  0
  3  5  1  0
  5  6  2  0
  6  7  1  0
  6  8  1  0
  8  9  1  0
  9 10  2  0
  9 18  1  0
 18 19  1  0
 19 20  1  0
 20 21  2  0
 21 22  1  0
 22 23  2  0
 23 24  1  0
 24 25  2  0
 25 26  1  0
  8  2  1  0
 25 20  1  0
 16 11  2  0
M  CHG 1  12  -1
M  CHG 1  15  -1
M  CHG 1  17  -1
M  CHG 1  18  -1
M  END
> <UniqueID>
16

> <SMILES>
C=c1/c(=C/c2[n-]c(=O)[n-]c2[O-])cc(C)n1C(=O)[N-]Cc1ccccc1F

> <Energy>
108.2780993637469

> <Genealogy>
C=c1c(=Cc2[n-]c(=O)[n-]c2[O-])cc(C)n1C(=O)[N-]Cc1ccccc1F (protonated)
C=c1/c(=C/c2[n-]c(=O)[n-]c2[O-])cc(C)n1C(=O)[N-]Cc1ccccc1F (cis-trans isomerization)
C=c1/c(=C/c2[n-]c(=O)[n-]c2[O-])cc(C)n1C(=O)[N-]Cc1ccccc1F (3D coordinates assigned)
C=c1/c(=C/c2[n-]c(=O)[n-]c2[O-])cc(C)n1C(=O)[N-]Cc1ccccc1F (optimized conformer: 108.2780993637469 kcal/mol)

> <smiles>
C=c1c(=Cc2[nH]c(=O)[nH]c2O)cc(C)n1C(=O)NCc1ccccc1F

> <score_type>
oracle

> <origin>
adg

> <m_score__min__energy>
-16.859999999999999

> <m_primary>
energy

> <minimizedAffinity>
-8.60455

> <minimizedRMSD>
0.81518

> <CNNscore>
0.6950862408

> <CNNaffinity>
7.1200847626

> <CNN_VS>
4.9490728378

> <CNNaffinity_variance>
0.4147222936

$$$$
25:0


 25 27  0  0  0  0  0  0  0  0999 V2000
   60.9878   29.3702   46.3662 C   0  0  0  0  0  0  0  0  0  0  0  0
   59.8417   28.9432   45.8268 C   0  0  0  0  0  0  0  0  0  0  0  0
   58.7375   29.7103   45.6436 N   0  0  0  0  0  0  0  0  0  0  0  0
   57.8168   28.8687   45.1314 C   0  0  0  0  0  0  0  0  0  0  0  0
   56.6637   29.2272   44.7682 O   0  0  0  0  0  0  0  0  0  0  0  0
   58.3667   27.6014   45.0078 C   0  0  0  0  0  0  0  0  0  0  0  0
   57.8071   26.4797   44.5259 C   0  0  0  0  0  0  0  0  0  0  0  0
   59.6453   27.6645   45.4351 N   0  0  0  0  0  0  0  0  0  0  0  0
   60.3004   26.9300   45.4570 H   0  0  0  0  0  0  0  0  0  0  0  0
   57.2953   25.3772   45.3564 C   0  0  0  0  0  0  0  0  0  0  0  0
   57.9913   24.2549   45.6105 N   0  0  0  0  0  0  0  0  0  0  0  0
   57.2006   23.5873   46.4797 C   0  0  0  0  0  0  0  0  0  0  0  0
   57.5089   22.4609   46.9477 O   0  0  0  0  0  0  0  0  0  0  0  0
   56.0603   24.2281   46.8163 N   0  0  0  0  0  0  0  0  0  0  0  0
   56.1415   25.3648   46.1084 C   0  0  0  0  0  0  0  0  0  0  0  0
   55.2027   26.3869   46.1803 O   0  0  0  0  0  0  0  0  0  0  0  0
   58.5583   31.1116   45.9104 C   0  0  0  0  0  0  0  0  0  0  0  0
   58.5788   31.5723   47.2356 C   0  0  0  0  0  0  0  0  0  0  0  0
   58.4130   32.9302   47.5141 C   0  0  0  0  0  0  0  0  0  0  0  0
   58.2178   33.8370   46.4710 C   0  0  0  0  0  0  0  0  0  0  0  0
   58.1783   33.3890   45.1485 C   0  0  0  0  0  0  0  0  0  0  0  0
   58.3420   32.0196   44.8539 C   0  0  0  0  0  0  0  0  0  0  0  0
   58.2749   31.5181   43.5423 O   0  0  0  0  0  0  0  0  0  0  0  0
   57.2420   31.7945   42.5969 C   0  0  0  0  0  0  0  0  0  0  0  0
   57.8148   32.4711   41.3554 C   0  0  0  0  0  0  0  0  0  0  0  0
  1  2  2  0
  2  3  1  0
  3 17  1  0
 17 18  2  0
 18 19  1  0
 19 20  2  0
 20 21  1  0
 21 22  2  0
 22 23  1  0
 23 24  1  0
 24 25  1  0
  3  4  1  0
  4  5  2  0
  4  6  1  0
  6  7  2  0
  7 10  1  0
 10 11  1  0
 11 12  1  0
 12 13  2  0
 12 14  1  0
 14 15  1  0
 15 16  1  0
  6  8  1  0
  8  2  1  0
 22 17  1  0
 15 10  2  0
  8  9  1  0
M  CHG 1  11  -1
M  CHG 1  14  -1
M  CHG 1  16  -1
M  END
> <UniqueID>
23

> <SMILES>
C=c1[nH]/c(=C/c2[n-]c(=O)[n-]c2[O-])c(=O)n1-c1ccccc1OCC

> <Energy>
114.97086834464318

> <Genealogy>
C=c1[nH]c(=Cc2[n-]c(=O)[n-]c2[O-])c(=O)n1-c1ccccc1OCC (protonated)
C=c1[nH]/c(=C/c2[n-]c(=O)[n-]c2[O-])c(=O)n1-c1ccccc1OCC (cis-trans isomerization)
C=c1[nH]/c(=C/c2[n-]c(=O)[n-]c2[O-])c(=O)n1-c1ccccc1OCC (3D coordinates assigned)
C=c1[nH]/c(=C/c2[n-]c(=O)[n-]c2[O-])c(=O)n1-c1ccccc1OCC (optimized conformer: 114.97086834464318 kcal/mol)

> <smiles>
C=c1[nH]c(=Cc2[nH]c(=O)[nH]c2O)c(=O)n1-c1ccccc1OCC

> <score_type>
oracle

> <origin>
adg

> <m_score__min__energy>
-15.25

> <m_primary>
energy

> <minimizedAffinity>
-6.35969

> <minimizedRMSD>
0.69112

> <CNNscore>
0.2112552524

> <CNNaffinity>
5.8750839233

> <CNN_VS>
1.2411423922

> <CNNaffinity_variance>
0.0692548379

$$$$
26:0


 34 36  0  0  0  0  0  0  0  0999 V2000
   59.0492   27.6224   45.3285 C   0  0  0  0  0  0  0  0  0  0  0  0
   59.3602   26.7256   46.3644 C   0  0  0  0  0  0  0  0  0  0  0  0
   58.9209   25.4000   46.3109 C   0  0  0  0  0  0  0  0  0  0  0  0
   58.1435   24.9507   45.2286 C   0  0  0  0  0  0  0  0  0  0  0  0
   57.8074   25.8576   44.2055 C   0  0  0  0  0  0  0  0  0  0  0  0
   58.2532   27.1823   44.2549 C   0  0  0  0  0  0  0  0  0  0  0  0
   60.1191   34.0783   49.3416 C   0  0  0  0  0  0  0  0  0  0  0  0
   59.7412   33.0308   48.3816 N   0  0  0  0  0  0  0  0  0  0  0  0
   58.8112   33.5798   47.3824 C   0  0  0  0  0  0  0  0  0  0  0  0
   58.4253   32.5354   46.3081 C   0  0  0  0  0  0  0  0  0  0  0  0
   59.2194   31.2869   46.3676 N   0  0  0  0  0  0  0  0  0  0  0  0
   58.6609   30.0759   45.8046 C   0  0  0  0  0  0  0  0  0  0  0  0
   57.4186   29.9863   45.6206 O   0  0  0  0  0  0  0  0  0  0  0  0
   59.5115   28.9810   45.4062 N   0  0  0  0  0  0  0  0  0  0  0  0
   60.5718   31.2413   46.9427 C   0  0  0  0  0  0  0  0  0  0  0  0
   60.9325   32.5215   47.6954 C   0  0  0  0  0  0  0  0  0  0  0  0
   60.4497   29.1728   45.1776 H   0  0  0  0  0  0  0  0  0  0  0  0
   57.6884   23.5405   45.1630 C   0  0  0  0  0  0  0  0  0  0  0  0
   57.6453   22.8668   43.9315 C   0  0  0  0  0  0  0  0  0  0  0  0
   57.1971   21.5465   43.8644 C   0  0  0  0  0  0  0  0  0  0  0  0
   56.7931   20.8802   45.0229 C   0  0  0  0  0  0  0  0  0  0  0  0
   56.8331   21.5311   46.2703 C   0  0  0  0  0  0  0  0  0  0  0  0
   57.2830   22.8658   46.3291 C   0  0  0  0  0  0  0  0  0  0  0  0
   56.4111   20.8218   47.5006 C   0  0  0  0  0  0  0  0  0  0  0  0
   57.1309   20.8639   48.5339 O   0  0  0  0  0  0  0  0  0  0  0  0
   55.1741   20.0905   47.5225 N   0  0  0  0  0  0  0  0  0  0  0  0
   53.8781   20.6995   47.8032 C   0  0  0  0  0  0  0  0  0  0  0  0
   53.4246   21.5648   46.6286 C   0  0  0  0  0  0  0  0  0  0  0  0
   53.6877   22.9708   46.9323 N   0  0  0  0  0  0  0  0  0  0  0  0
   53.6119   23.9165   45.4715 S   0  0  0  0  0  0  0  0  0  0  0  0
   54.3957   25.4390   45.7038 N   0  0  0  0  0  0  0  0  0  0  0  0
   52.1777   24.1419   45.0718 O   0  0  0  0  0  0  0  0  0  0  0  0
   54.3138   23.1691   44.3721 O   0  0  0  0  0  0  0  0  0  0  0  0
   53.9255   25.9533   46.4487 H   0  0  0  0  0  0  0  0  0  0  0  0
  7  8  1  0
  8  9  1  0
  9 10  1  0
 10 11  1  0
 11 12  1  0
 12 13  2  0
 12 14  1  0
 14  1  1  0
  1  2  2  0
  2  3  1  0
  3  4  2  0
  4 18  1  0
 18 19  2  0
 19 20  1  0
 20 21  2  0
 21 22  1  0
 22 24  1  0
 24 25  2  0
 24 26  1  0
 26 27  1  0
 27 28  1  0
 28 29  1  0
 29 30  1  0
 30 31  1  0
 30 32  2  0
 30 33  2  0
 22 23  2  0
  4  5  1  0
  5  6  2  0
 11 15  1  0
 15 16  1  0
 16  8  1  0
  6  1  1  0
 23 18  1  0
 14 17  1  0
 31 34  1  0
M  CHG 1  26  -1
M  CHG 1  29  -1
M  CHG 1  31  -1
M  END
> <UniqueID>
24

> <SMILES>
CN1CCN(C(=O)Nc2ccc(-c3cccc(C(=O)[N-]CC[N-]S([NH-])(=O)=O)c3)cc2)CC1

> <Energy>
65.58922073704946

> <Genealogy>
CN1CCN(C(=O)Nc2ccc(-c3cccc(C(=O)[N-]CC[N-]S([NH-])(=O)=O)c3)cc2)CC1 (protonated)
CN1CCN(C(=O)Nc2ccc(-c3cccc(C(=O)[N-]CC[N-]S([NH-])(=O)=O)c3)cc2)CC1 (3D coordinates assigned)
CN1CCN(C(=O)Nc2ccc(-c3cccc(C(=O)[N-]CC[N-]S([NH-])(=O)=O)c3)cc2)CC1 (nonaromatic ring conformer: 65.58922073704946 kcal/mol)

> <smiles>
CN1CCN(C(=O)Nc2ccc(-c3cccc(C(=O)NCCNS(N)(=O)=O)c3)cc2)CC1

> <score_type>
oracle

> <origin>
adg

> <m_score__min__energy>
-15.41

> <m_primary>
energy

> <minimizedAffinity>
-7.87209

> <minimizedRMSD>
0.69254

> <CNNscore>
0.1100112647

> <CNNaffinity>
6.3607754707

> <CNN_VS>
0.6997569799

> <CNNaffinity_variance>
0.0778561234

$$$$
35:0


 27 29  0  0  0  0  0  0  0  0999 V2000
   57.6435   25.9900   45.9002 C   0  0  0  0  0  0  0  0  0  0  0  0
   58.8623   26.6561   45.7335 C   0  0  0  0  0  0  0  0  0  0  0  0
   58.8979   28.0533   45.6267 C   0  0  0  0  0  0  0  0  0  0  0  0
   57.6791   28.7603   45.6458 C   0  0  0  0  0  0  0  0  0  0  0  0
   57.6612   30.0175   45.5592 O   0  0  0  0  0  0  0  0  0  0  0  0
   56.5022   28.0871   45.7593 N   0  0  0  0  0  0  0  0  0  0  0  0
   56.4540   26.7341   45.8865 C   0  0  0  0  0  0  0  0  0  0  0  0
   55.2203   26.1032   46.0121 O   0  0  0  0  0  0  0  0  0  0  0  0
   57.6263   24.5353   46.1268 C   0  0  0  0  0  0  0  0  0  0  0  0
   57.7261   24.0985   47.3039 O   0  0  0  0  0  0  0  0  0  0  0  0
   55.8230   19.5153   45.7851 C   0  0  0  0  0  0  0  0  0  0  0  0
   56.4664   20.7249   45.0709 C   0  0  0  0  0  0  0  0  0  0  0  0
   56.7223   20.3468   43.5925 C   0  0  0  0  0  0  0  0  0  0  0  0
   57.8016   21.0626   45.7765 C   0  0  0  0  0  0  0  0  0  0  0  0
   58.4159   22.3332   45.2448 C   0  0  0  0  0  0  0  0  0  0  0  0
   59.6296   22.3932   45.0989 O   0  0  0  0  0  0  0  0  0  0  0  0
   57.5745   23.5596   44.9739 C   0  0  0  0  0  0  0  0  0  0  0  0
   56.1362   23.2123   44.6609 C   0  0  0  0  0  0  0  0  0  0  0  0
   55.4398   24.0416   44.0902 O   0  0  0  0  0  0  0  0  0  0  0  0
   55.5041   21.9364   45.1616 C   0  0  0  0  0  0  0  0  0  0  0  0
   60.2308   28.7600   45.5971 C   0  0  0  0  0  0  0  0  0  0  0  0
   60.5052   29.4153   46.9272 C   0  0  0  0  0  0  0  0  0  0  0  0
   60.9934   30.7322   46.9783 C   0  0  0  0  0  0  0  0  0  0  0  0
   61.2807   31.3295   48.2121 C   0  0  0  0  0  0  0  0  0  0  0  0
   61.0680   30.6243   49.4010 C   0  0  0  0  0  0  0  0  0  0  0  0
   60.5854   29.3139   49.3583 C   0  0  0  0  0  0  0  0  0  0  0  0
   60.3145   28.7059   48.1260 C   0  0  0  0  0  0  0  0  0  0  0  0
 11 12  1  0
 12 13  1  0
 12 14  1  0
 14 15  1  0
 15 16  2  0
 15 17  1  0
 17  9  1  0
  9 10  2  0
  9  1  1  0
  1  2  1  0
  2  3  2  0
  3 21  1  0
 21 22  1  0
 22 23  2  0
 23 24  1  0
 24 25  2  0
 25 26  1  0
 26 27  2  0
  3  4  1  0
  4  5  2  0
  4  6  1  0
  6  7  1  0
  7  8  1  0
 17 18  1  0
 18 19  2  0
 18 20  1  0
 20 12  1  0
  7  1  2  0
 27 22  1  0
M  CHG 1   6  -1
M  CHG 1   8  -1
M  END
> <UniqueID>
33

> <SMILES>
CC1(C)CC(=O)C(C(=O)c2cc(Cc3ccccc3)c(=O)[n-]c2[O-])C(=O)C1

> <Energy>
49.50023195187031

> <Genealogy>
CC1(C)CC(=O)C(C(=O)c2cc(Cc3ccccc3)c(=O)[n-]c2[O-])C(=O)C1 (protonated)
CC1(C)CC(=O)C(C(=O)c2cc(Cc3ccccc3)c(=O)[n-]c2[O-])C(=O)C1 (3D coordinates assigned)
CC1(C)CC(=O)C(C(=O)c2cc(Cc3ccccc3)c(=O)[n-]c2[O-])C(=O)C1 (nonaromatic ring conformer: 49.50023195187031 kcal/mol)

> <smiles>
CC1(C)CC(=O)C(C(=O)c2cc(Cc3ccccc3)c(=O)[nH]c2O)C(=O)C1

> <score_type>
oracle

> <origin>
adg

> <m_score__min__energy>
-14.58

> <m_primary>
energy

> <minimizedAffinity>
-6.21329

> <minimizedRMSD>
2.93087

> <CNNscore>
0.4030499458

> <CNNaffinity>
6.0845127106

> <CNN_VS>
2.4523625374

> <CNNaffinity_variance>
0.2372829169

$$$$
45:0


 26 28  0  0  0  0  0  0  0  0999 V2000
   59.0233   30.8292   46.5629 N   0  0  0  0  0  0  0  0  0  0  0  0
   58.5316   31.6387   45.5715 C   0  0  0  0  0  0  0  0  0  0  0  0
   58.8463   32.8584   45.5200 O   0  0  0  0  0  0  0  0  0  0  0  0
   57.6868   31.1375   44.6356 N   0  0  0  0  0  0  0  0  0  0  0  0
   57.3157   29.8352   44.6431 C   0  0  0  0  0  0  0  0  0  0  0  0
   56.4616   29.3637   43.6522 O   0  0  0  0  0  0  0  0  0  0  0  0
   57.8072   28.9755   45.6307 C   0  0  0  0  0  0  0  0  0  0  0  0
   58.6600   29.5078   46.6107 C   0  0  0  0  0  0  0  0  0  0  0  0
   59.0906   28.7614   47.5350 O   0  0  0  0  0  0  0  0  0  0  0  0
   62.6912   32.9639   50.4650 C   0  0  0  0  0  0  0  0  0  0  0  0
   61.7140   32.4115   49.4612 C   0  0  0  0  0  0  0  0  0  0  0  0
   62.1985   31.7470   48.3222 C   0  0  0  0  0  0  0  0  0  0  0  0
   61.3173   31.2275   47.3729 C   0  0  0  0  0  0  0  0  0  0  0  0
   59.9340   31.3634   47.5446 C   0  0  0  0  0  0  0  0  0  0  0  0
   59.4405   32.0279   48.6763 C   0  0  0  0  0  0  0  0  0  0  0  0
   60.3174   32.5583   49.6378 C   0  0  0  0  0  0  0  0  0  0  0  0
   59.7516   33.2657   50.8408 C   0  0  0  0  0  0  0  0  0  0  0  0
   57.4530   27.5420   45.6110 C   0  0  0  0  0  0  0  0  0  0  0  0
   56.2933   27.1932   45.9545 O   0  0  0  0  0  0  0  0  0  0  0  0
   58.3777   26.5398   45.1645 N   0  0  0  0  0  0  0  0  0  0  0  0
   58.6922   25.2957   45.8652 C   0  0  0  0  0  0  0  0  0  0  0  0
   58.0810   24.1197   45.1688 C   0  0  0  0  0  0  0  0  0  0  0  0
   58.5247   22.8056   45.2498 C   0  0  0  0  0  0  0  0  0  0  0  0
   57.7765   21.9243   44.4606 C   0  0  0  0  0  0  0  0  0  0  0  0
   56.7434   22.5381   43.7639 C   0  0  0  0  0  0  0  0  0  0  0  0
   56.7626   24.1810   44.1267 S   0  0  0  0  0  0  0  0  0  0  0  0
 10 11  1  0
 11 12  2  0
 12 13  1  0
 13 14  2  0
 14  1  1  0
  1  2  1  0
  2  3  2  0
  2  4  1  0
  4  5  1  0
  5  6  1  0
  5  7  2  0
  7 18  1  0
 18 19  2  0
 18 20  1  0
 20 21  1  0
 21 22  1  0
 22 23  2  0
 23 24  1  0
 24 25  2  0
 25 26  1  0
  7  8  1  0
  8  9  2  0
 14 15  1  0
 15 16  2  0
 16 17  1  0
 16 11  1  0
  8  1  1  0
 26 22  1  0
M  CHG 1   4  -1
M  CHG 1   6  -1
M  CHG 1  20  -1
M  END
> <UniqueID>
43

> <SMILES>
Cc1ccc(-n2c(=O)[n-]c([O-])c(C(=O)[N-]Cc3cccs3)c2=O)cc1C

> <Energy>
82.31780992540511

> <Genealogy>
Cc1ccc(-n2c(=O)[n-]c([O-])c(C(=O)[N-]Cc3cccs3)c2=O)cc1C (protonated)
Cc1ccc(-n2c(=O)[n-]c([O-])c(C(=O)[N-]Cc3cccs3)c2=O)cc1C (3D coordinates assigned)
Cc1ccc(-n2c(=O)[n-]c([O-])c(C(=O)[N-]Cc3cccs3)c2=O)cc1C (optimized conformer: 82.31780992540511 kcal/mol)

> <smiles>
Cc1ccc(-n2c(=O)[nH]c(O)c(C(=O)NCc3cccs3)c2=O)cc1C

> <score_type>
oracle

> <origin>
adg

> <m_score__min__energy>
-14.25

> <m_primary>
energy

> <minimizedAffinity>
-7.10199

> <minimizedRMSD>
1.40907

> <CNNscore>
0.5329611897

> <CNNaffinity>
6.7945361137

> <CNN_VS>
3.6212241650

> <CNNaffinity_variance>
0.5303997397

$$$$
59:0


 33 36  0  0  0  0  0  0  0  0999 V2000
   59.4623   30.7085   46.8135 C   0  0  0  0  0  0  0  0  0  0  0  0
   58.5593   31.7562   46.5861 C   0  0  0  0  0  0  0  0  0  0  0  0
   58.9747   33.0832   46.7232 C   0  0  0  0  0  0  0  0  0  0  0  0
   60.2922   33.3724   47.0874 C   0  0  0  0  0  0  0  0  0  0  0  0
   61.2050   32.3331   47.3221 C   0  0  0  0  0  0  0  0  0  0  0  0
   60.7855   31.0026   47.1744 C   0  0  0  0  0  0  0  0  0  0  0  0
   58.1578   29.4772   44.4529 C   0  0  0  0  0  0  0  0  0  0  0  0
   58.5203   28.7728   45.5343 C   0  0  0  0  0  0  0  0  0  0  0  0
   58.2639   27.4146   45.7838 C   0  0  0  0  0  0  0  0  0  0  0  0
   57.8256   26.4342   44.9693 C   0  0  0  0  0  0  0  0  0  0  0  0
   58.5760   27.1986   47.1156 C   0  0  0  0  0  0  0  0  0  0  0  0
   59.0764   28.3861   47.6072 C   0  0  0  0  0  0  0  0  0  0  0  0
   59.5803   28.5844   49.0041 C   0  0  0  0  0  0  0  0  0  0  0  0
   59.0460   29.3414   46.6507 N   0  0  0  0  0  0  0  0  0  0  0  0
   57.3544   25.1083   45.4025 C   0  0  0  0  0  0  0  0  0  0  0  0
   58.1274   24.0114   45.4953 N   0  0  0  0  0  0  0  0  0  0  0  0
   57.3086   23.0990   46.0630 C   0  0  0  0  0  0  0  0  0  0  0  0
   57.6715   21.9186   46.3016 O   0  0  0  0  0  0  0  0  0  0  0  0
   56.0741   23.5564   46.3627 N   0  0  0  0  0  0  0  0  0  0  0  0
   56.1261   24.8327   45.9514 C   0  0  0  0  0  0  0  0  0  0  0  0
   55.0736   25.7300   46.0811 O   0  0  0  0  0  0  0  0  0  0  0  0
   62.8934   32.6957   47.6966 S   0  0  0  0  0  0  0  0  0  0  0  0
   63.7580   31.7251   46.9413 O   0  0  0  0  0  0  0  0  0  0  0  0
   63.2185   34.0761   47.1975 O   0  0  0  0  0  0  0  0  0  0  0  0
   63.2853   32.5912   49.4031 N   0  0  0  0  0  0  0  0  0  0  0  0
   62.8066   31.3319   50.0244 C   0  0  0  0  0  0  0  0  0  0  0  0
   61.5723   31.5169   50.9223 C   0  0  0  0  0  0  0  0  0  0  0  0
   60.6946   32.5664   50.3819 N   0  0  0  0  0  0  0  0  0  0  0  0
   61.3714   33.8846   50.4304 C   0  0  0  0  0  0  0  0  0  0  0  0
   62.8883   33.8015   50.1495 C   0  0  0  0  0  0  0  0  0  0  0  0
   64.3028   32.5529   49.4637 H   0  0  0  0  0  0  0  0  0  0  0  0
   59.4216   32.5911   51.1350 C   0  0  0  0  0  0  0  0  0  0  0  0
   58.3471   31.7371   50.4631 C   0  0  0  0  0  0  0  0  0  0  0  0
  7  8  2  0
  8  9  1  0
  9 10  2  0
 10 15  1  0
 15 16  1  0
 16 17  1  0
 17 18  2  0
 17 19  1  0
 19 20  1  0
 20 21  1  0
  9 11  1  0
 11 12  2  0
 12 13  1  0
 12 14  1  0
 14  1  1  0
  1  2  2  0
  2  3  1  0
  3  4  2  0
  4  5  1  0
  5 22  1  0
 22 23  2  0
 22 24  2  0
 22 25  1  0
 25 26  1  0
 26 27  1  0
 27 28  1  0
 28 32  1  0
 32 33  1  0
 28 29  1  0
 29 30  1  0
  5  6  2  0
 14  8  1  0
  6  1  1  0
 20 15  2  0
 30 25  1  0
 25 31  1  0
M  CHG 1  16  -1
M  CHG 1  19  -1
M  CHG 1  21  -1
M  CHG 1  25   1
M  END
> <UniqueID>
56

> <SMILES>
C=c1c(=Cc2[n-]c(=O)[n-]c2[O-])cc(C)n1-c1cccc(S(=O)(=O)[NH+]2CCN(CC)CC2)c1

> <Energy>
140.3673890051856

> <Genealogy>
C=c1c(=Cc2[n-]c(=O)[n-]c2[O-])cc(C)n1-c1cccc(S(=O)(=O)[NH+]2CCN(CC)CC2)c1 (protonated)
C=c1c(=Cc2[n-]c(=O)[n-]c2[O-])cc(C)n1-c1cccc(S(=O)(=O)[NH+]2CCN(CC)CC2)c1 (3D coordinates assigned)
C=c1c(=Cc2[n-]c(=O)[n-]c2[O-])cc(C)n1-c1cccc(S(=O)(=O)[NH+]2CCN(CC)CC2)c1 (nonaromatic ring conformer: 140.3673890051856 kcal/mol)

> <smiles>
C=c1c(=Cc2[nH]c(=O)[nH]c2O)cc(C)n1-c1cccc(S(=O)(=O)N2CCN(CC)CC2)c1

> <score_type>
oracle

> <origin>
adg

> <m_score__min__energy>
-15.66

> <m_primary>
energy

> <minimizedAffinity>
-8.25220

> <minimizedRMSD>
0.96484

> <CNNscore>
0.2289282829

> <CNNaffinity>
6.9823994637

> <CNN_VS>
1.5984686613

> <CNNaffinity_variance>
0.0163065400

$$$$
67:0


 25 27  0  0  0  0  0  0  0  0999 V2000
   55.8575   30.0953   43.8080 C   0  0  0  0  0  0  0  0  0  0  0  0
   56.8342   29.5615   44.5455 C   0  0  0  0  0  0  0  0  0  0  0  0
   58.0424   30.1389   44.7724 N   0  0  0  0  0  0  0  0  0  0  0  0
   58.6959   29.2570   45.5567 C   0  0  0  0  0  0  0  0  0  0  0  0
   59.8642   29.4282   45.9978 O   0  0  0  0  0  0  0  0  0  0  0  0
   57.8906   28.1634   45.7968 C   0  0  0  0  0  0  0  0  0  0  0  0
   58.2188   27.0794   46.5150 C   0  0  0  0  0  0  0  0  0  0  0  0
   56.7186   28.3557   45.1517 N   0  0  0  0  0  0  0  0  0  0  0  0
   55.9445   27.7478   45.1275 H   0  0  0  0  0  0  0  0  0  0  0  0
   57.8119   25.7045   46.1518 C   0  0  0  0  0  0  0  0  0  0  0  0
   56.4582   25.3273   46.0903 C   0  0  0  0  0  0  0  0  0  0  0  0
   55.4511   26.2432   46.3704 O   0  0  0  0  0  0  0  0  0  0  0  0
   56.1242   24.0487   45.7761 N   0  0  0  0  0  0  0  0  0  0  0  0
   57.0788   23.1140   45.5338 C   0  0  0  0  0  0  0  0  0  0  0  0
   56.7459   21.9381   45.2402 O   0  0  0  0  0  0  0  0  0  0  0  0
   58.3926   23.4465   45.6160 N   0  0  0  0  0  0  0  0  0  0  0  0
   58.7785   24.7117   45.9250 C   0  0  0  0  0  0  0  0  0  0  0  0
   60.0078   24.9822   45.9960 O   0  0  0  0  0  0  0  0  0  0  0  0
   58.5286   31.4542   44.3396 C   0  0  0  0  0  0  0  0  0  0  0  0
   58.7583   32.3464   45.5316 C   0  0  0  0  0  0  0  0  0  0  0  0
   59.1519   33.6827   45.3440 C   0  0  0  0  0  0  0  0  0  0  0  0
   59.3786   34.5118   46.4489 C   0  0  0  0  0  0  0  0  0  0  0  0
   59.2137   34.0147   47.7434 C   0  0  0  0  0  0  0  0  0  0  0  0
   58.8196   32.6883   47.9373 C   0  0  0  0  0  0  0  0  0  0  0  0
   58.5918   31.8560   46.8370 C   0  0  0  0  0  0  0  0  0  0  0  0
  1  2  2  0
  2  3  1  0
  3 19  1  0
 19 20  1  0
 20 21  2  0
 21 22  1  0
 22 23  2  0
 23 24  1  0
 24 25  2  0
  3  4  1  0
  4  5  2  0
  4  6  1  0
  6  7  2  0
  7 10  1  0
 10 11  2  0
 11 12  1  0
 11 13  1  0
 13 14  1  0
 14 15  2  0
 14 16  1  0
 16 17  1  0
 17 18  2  0
  6  8  1  0
  8  2  1  0
 25 20  1  0
 17 10  1  0
  8  9  1  0
M  CHG 1  12  -1
M  CHG 1  13  -1
M  CHG 1  16  -1
M  END
> <UniqueID>
64

> <SMILES>
C=c1[nH]/c(=C\c2c([O-])[n-]c(=O)[n-]c2=O)c(=O)n1Cc1ccccc1

> <Energy>
80.33911062512006

> <Genealogy>
C=c1[nH]c(=Cc2c([O-])[n-]c(=O)[n-]c2=O)c(=O)n1Cc1ccccc1 (protonated)
C=c1[nH]/c(=C\c2c([O-])[n-]c(=O)[n-]c2=O)c(=O)n1Cc1ccccc1 (cis-trans isomerization)
C=c1[nH]/c(=C\c2c([O-])[n-]c(=O)[n-]c2=O)c(=O)n1Cc1ccccc1 (3D coordinates assigned)
C=c1[nH]/c(=C\c2c([O-])[n-]c(=O)[n-]c2=O)c(=O)n1Cc1ccccc1 (optimized conformer: 80.33911062512006 kcal/mol)

> <smiles>
C=c1[nH]c(=Cc2c(O)[nH]c(=O)[nH]c2=O)c(=O)n1Cc1ccccc1

> <score_type>
oracle

> <origin>
adg

> <m_score__min__energy>
-15.81

> <m_primary>
energy

> <minimizedAffinity>
-7.81248

> <minimizedRMSD>
0.98905

> <CNNscore>
0.1712656617

> <CNNaffinity>
5.7450070381

> <CNN_VS>
0.9839224219

> <CNNaffinity_variance>
0.0519718044

$$$$
69:0


 35 38  0  0  0  0  0  0  0  0999 V2000
   58.9874   25.8666   45.4985 C   0  0  0  0  0  0  0  0  0  0  0  0
   58.3221   26.7187   44.6066 C   0  0  0  0  0  0  0  0  0  0  0  0
   58.4747   28.1041   44.7097 C   0  0  0  0  0  0  0  0  0  0  0  0
   59.2792   28.6593   45.7103 C   0  0  0  0  0  0  0  0  0  0  0  0
   59.9101   27.8031   46.6328 C   0  0  0  0  0  0  0  0  0  0  0  0
   59.7608   26.4193   46.5290 C   0  0  0  0  0  0  0  0  0  0  0  0
   57.5492   21.2342   44.5652 C   0  0  0  0  0  0  0  0  0  0  0  0
   58.2375   22.3382   44.8611 C   0  0  0  0  0  0  0  0  0  0  0  0
   59.4240   22.2765   45.4257 O   0  0  0  0  0  0  0  0  0  0  0  0
   59.8246   23.4877   45.7353 C   0  0  0  0  0  0  0  0  0  0  0  0
   58.8656   24.4005   45.3537 C   0  0  0  0  0  0  0  0  0  0  0  0
   57.8399   23.6770   44.7470 C   0  0  0  0  0  0  0  0  0  0  0  0
   56.7143   24.2174   44.2329 C   0  0  0  0  0  0  0  0  0  0  0  0
   55.3566   24.0726   44.7829 C   0  0  0  0  0  0  0  0  0  0  0  0
   54.4065   23.2609   44.2802 N   0  0  0  0  0  0  0  0  0  0  0  0
   53.2986   23.6180   44.9620 C   0  0  0  0  0  0  0  0  0  0  0  0
   52.1829   23.0629   44.7787 O   0  0  0  0  0  0  0  0  0  0  0  0
   53.4732   24.6265   45.8387 N   0  0  0  0  0  0  0  0  0  0  0  0
   54.7770   24.9115   45.7015 C   0  0  0  0  0  0  0  0  0  0  0  0
   55.4226   25.9324   46.3883 O   0  0  0  0  0  0  0  0  0  0  0  0
   59.4313   30.0550   45.7425 O   0  0  0  0  0  0  0  0  0  0  0  0
   58.6969   30.9425   46.5866 C   0  0  0  0  0  0  0  0  0  0  0  0
   58.2608   32.1893   45.8059 C   0  0  0  0  0  0  0  0  0  0  0  0
   58.9008   33.5054   46.3093 C   0  0  0  0  0  0  0  0  0  0  0  0
   60.0178   33.3724   47.2764 N   0  0  0  0  0  0  0  0  0  0  0  0
   59.8391   34.1210   48.5256 C   0  0  0  0  0  0  0  0  0  0  0  0
   60.8571   33.6641   49.5848 C   0  0  0  0  0  0  0  0  0  0  0  0
   62.1358   33.1586   49.0357 N   0  0  0  0  0  0  0  0  0  0  0  0
   63.1482   32.6588   49.9509 C   0  0  0  0  0  0  0  0  0  0  0  0
   64.2262   32.1866   49.4956 O   0  0  0  0  0  0  0  0  0  0  0  0
   62.3954   32.9986   47.5904 C   0  0  0  0  0  0  0  0  0  0  0  0
   61.3392   33.6595   46.7147 C   0  0  0  0  0  0  0  0  0  0  0  0
   62.9403   32.6341   51.4391 C   0  0  0  0  0  0  0  0  0  0  0  0
   64.0826   32.1005   52.0580 O   0  0  0  0  0  0  0  0  0  0  0  0
   64.2339   31.1985   51.7348 H   0  0  0  0  0  0  0  0  0  0  0  0
  7  8  2  0
  8  9  1  0
  9 10  1  0
 10 11  2  0
 11  1  1  0
  1  2  2  0
  2  3  1  0
  3  4  2  0
  4 21  1  0
 21 22  1  0
 22 23  1  0
 23 24  1  0
 24 25  1  0
 25 26  1  0
 26 27  1  0
 27 28  1  0
 28 29  1  0
 29 30  2  0
 29 33  1  0
 33 34  1  0
 28 31  1  0
 31 32  1  0
  4  5  1  0
  5  6  2  0
 11 12  1  0
 12 13  2  0
 13 14  1  0
 14 15  1  0
 15 16  1  0
 16 17  2  0
 16 18  1  0
 18 19  1  0
 19 20  1  0
 12  8  1  0
 19 14  2  0
  6  1  1  0
 32 25  1  0
 34 35  1  0
M  CHG 1  15  -1
M  CHG 1  18  -1
M  CHG 1  20  -1
M  END
> <UniqueID>
66

> <SMILES>
C=c1occ(-c2ccc(OCCCN3CCN(C(=O)CO)CC3)cc2)c1=Cc1[n-]c(=O)[n-]c1[O-]

> <Energy>
143.40554165212663

> <Genealogy>
C=c1occ(-c2ccc(OCCCN3CCN(C(=O)CO)CC3)cc2)c1=Cc1[n-]c(=O)[n-]c1[O-] (protonated)
C=c1occ(-c2ccc(OCCCN3CCN(C(=O)CO)CC3)cc2)c1=Cc1[n-]c(=O)[n-]c1[O-] (3D coordinates assigned)
C=c1occ(-c2ccc(OCCCN3CCN(C(=O)CO)CC3)cc2)c1=Cc1[n-]c(=O)[n-]c1[O-] (nonaromatic ring conformer: 143.40554165212663 kcal/mol)

> <smiles>
C=c1occ(-c2ccc(OCCCN3CCN(C(=O)CO)CC3)cc2)c1=Cc1[nH]c(=O)[nH]c1O

> <score_type>
oracle

> <origin>
adg

> <m_score__min__energy>
-18.890000000000001

> <m_primary>
energy

> <minimizedAffinity>
-6.59622

> <minimizedRMSD>
1.27312

> <CNNscore>
0.0839681551

> <CNNaffinity>
5.8585133553

> <CNN_VS>
0.4919285476

> <CNNaffinity_variance>
0.2524394095

$$$$
73:0


 32 35  0  0  0  0  0  0  0  0999 V2000
   58.1535   26.2408   46.2620 N   0  0  0  0  0  0  0  0  0  0  0  0
   57.4800   27.2810   45.7455 C   0  0  0  0  0  0  0  0  0  0  0  0
   56.0959   27.4126   45.7560 O   0  0  0  0  0  0  0  0  0  0  0  0
   58.3782   28.1833   45.2210 C   0  0  0  0  0  0  0  0  0  0  0  0
   59.6360   27.7401   45.4396 N   0  0  0  0  0  0  0  0  0  0  0  0
   59.4525   26.5517   46.0566 C   0  0  0  0  0  0  0  0  0  0  0  0
   60.4082   25.8115   46.4110 O   0  0  0  0  0  0  0  0  0  0  0  0
   58.0416   29.5081   44.6785 C   0  0  0  0  0  0  0  0  0  0  0  0
   58.3370   30.6902   45.2544 C   0  0  0  0  0  0  0  0  0  0  0  0
   58.1955   31.8999   44.5941 C   0  0  0  0  0  0  0  0  0  0  0  0
   58.5031   32.8907   45.5016 C   0  0  0  0  0  0  0  0  0  0  0  0
   58.4506   34.3613   45.2154 C   0  0  0  0  0  0  0  0  0  0  0  0
   58.8610   32.3496   46.6841 N   0  0  0  0  0  0  0  0  0  0  0  0
   59.2870   33.0925   47.8394 C   0  0  0  0  0  0  0  0  0  0  0  0
   58.4306   33.4381   48.6964 O   0  0  0  0  0  0  0  0  0  0  0  0
   60.6711   33.4497   48.0224 N   0  0  0  0  0  0  0  0  0  0  0  0
   61.1388   33.8182   49.3637 C   0  0  0  0  0  0  0  0  0  0  0  0
   62.6483   34.0467   49.3643 C   0  0  0  0  0  0  0  0  0  0  0  0
   63.2635   33.0707   48.5532 O   0  0  0  0  0  0  0  0  0  0  0  0
   63.0280   33.3628   47.1871 C   0  0  0  0  0  0  0  0  0  0  0  0
   61.5452   33.6613   46.8579 C   0  0  0  0  0  0  0  0  0  0  0  0
   58.7919   31.0003   46.5481 C   0  0  0  0  0  0  0  0  0  0  0  0
   59.2091   30.1428   47.4928 C   0  0  0  0  0  0  0  0  0  0  0  0
   57.6061   25.0280   46.8682 C   0  0  0  0  0  0  0  0  0  0  0  0
   54.9783   24.8946   45.6781 O   0  0  0  0  0  0  0  0  0  0  0  0
   55.9587   24.0089   45.2288 C   0  0  0  0  0  0  0  0  0  0  0  0
   55.6596   23.0954   44.2076 C   0  0  0  0  0  0  0  0  0  0  0  0
   56.6358   22.2096   43.7464 C   0  0  0  0  0  0  0  0  0  0  0  0
   57.9166   22.2318   44.3001 C   0  0  0  0  0  0  0  0  0  0  0  0
   58.2242   23.1390   45.3181 C   0  0  0  0  0  0  0  0  0  0  0  0
   57.2478   24.0295   45.7985 C   0  0  0  0  0  0  0  0  0  0  0  0
   54.1223   24.8784   45.2974 H   0  0  0  0  0  0  0  0  0  0  0  0
 25 26  1  0
 26 27  2  0
 27 28  1  0
 28 29  2  0
 29 30  1  0
 30 31  2  0
 31 24  1  0
 24  1  1  0
  1  2  1  0
  2  3  1  0
  2  4  2  0
  4  8  1  0
  8  9  2  0
  9 10  1  0
 10 11  2  0
 11 12  1  0
 11 13  1  0
 13 14  1  0
 14 15  2  0
 14 16  1  0
 16 17  1  0
 17 18  1  0
 18 19  1  0
 19 20  1  0
 20 21  1  0
 13 22  1  0
 22 23  2  0
  4  5  1  0
  5  6  1  0
  6  7  2  0
 31 26  1  0
  6  1  1  0
 22  9  1  0
 21 16  1  0
 25 32  1  0
M  CHG 1   3  -1
M  CHG 1   5  -1
M  END
> <UniqueID>
70

> <SMILES>
C=c1/c(=C\c2[n-]c(=O)n(Cc3ccccc3O)c2[O-])cc(C)n1C(=O)N1CCOCC1

> <Energy>
138.16227983223584

> <Genealogy>
C=c1c(=Cc2[n-]c(=O)n(Cc3ccccc3O)c2[O-])cc(C)n1C(=O)N1CCOCC1 (protonated)
C=c1/c(=C\c2[n-]c(=O)n(Cc3ccccc3O)c2[O-])cc(C)n1C(=O)N1CCOCC1 (cis-trans isomerization)
C=c1/c(=C\c2[n-]c(=O)n(Cc3ccccc3O)c2[O-])cc(C)n1C(=O)N1CCOCC1 (3D coordinates assigned)
C=c1/c(=C\c2[n-]c(=O)n(Cc3ccccc3O)c2[O-])cc(C)n1C(=O)N1CCOCC1 (nonaromatic ring conformer: 138.16227983223584 kcal/mol)

> <smiles>
C=c1c(=Cc2[nH]c(=O)n(Cc3ccccc3O)c2O)cc(C)n1C(=O)N1CCOCC1

> <score_type>
oracle

> <origin>
adg

> <m_score__min__energy>
-14.18

> <m_primary>
energy

> <minimizedAffinity>
-9.44075

> <minimizedRMSD>
0.90636

> <CNNscore>
0.6372922659

> <CNNaffinity>
6.9745287895

> <CNN_VS>
4.4448132515

> <CNNaffinity_variance>
0.0235054325

$$$$
77:0


 30 33  0  0  0  0  0  0  0  0999 V2000
   57.7997   24.5855   47.9413 C   0  0  0  0  0  0  0  0  0  0  0  0
   58.2521   25.5637   47.1558 C   0  0  0  0  0  0  0  0  0  0  0  0
   58.9723   26.5533   47.6355 O   0  0  0  0  0  0  0  0  0  0  0  0
   59.3451   27.3354   46.6478 C   0  0  0  0  0  0  0  0  0  0  0  0
   58.8526   26.8484   45.4512 C   0  0  0  0  0  0  0  0  0  0  0  0
   58.1219   25.7170   45.7688 C   0  0  0  0  0  0  0  0  0  0  0  0
   57.4563   24.9887   44.8516 C   0  0  0  0  0  0  0  0  0  0  0  0
   56.2141   24.2327   45.0988 C   0  0  0  0  0  0  0  0  0  0  0  0
   55.1062   24.8616   45.6825 C   0  0  0  0  0  0  0  0  0  0  0  0
   55.1415   26.2169   45.9902 O   0  0  0  0  0  0  0  0  0  0  0  0
   53.9822   24.1460   45.9464 N   0  0  0  0  0  0  0  0  0  0  0  0
   53.9138   22.8199   45.6667 C   0  0  0  0  0  0  0  0  0  0  0  0
   52.8601   22.1789   45.9155 O   0  0  0  0  0  0  0  0  0  0  0  0
   54.9825   22.1822   45.1240 N   0  0  0  0  0  0  0  0  0  0  0  0
   56.1305   22.8527   44.8426 C   0  0  0  0  0  0  0  0  0  0  0  0
   57.1089   22.2271   44.3564 O   0  0  0  0  0  0  0  0  0  0  0  0
   60.1734   28.5388   46.8434 C   0  0  0  0  0  0  0  0  0  0  0  0
   60.8333   28.9835   45.8668 O   0  0  0  0  0  0  0  0  0  0  0  0
   60.2395   29.2011   48.1154 N   0  0  0  0  0  0  0  0  0  0  0  0
   59.7760   28.7997   48.8856 H   0  0  0  0  0  0  0  0  0  0  0  0
   60.9719   30.4512   48.3047 C   0  0  0  0  0  0  0  0  0  0  0  0
   60.3346   31.5547   47.5084 C   0  0  0  0  0  0  0  0  0  0  0  0
   61.0726   32.7188   47.1703 C   0  0  0  0  0  0  0  0  0  0  0  0
   60.4828   33.7412   46.4047 C   0  0  0  0  0  0  0  0  0  0  0  0
   59.1655   33.5663   45.9925 C   0  0  0  0  0  0  0  0  0  0  0  0
   58.4560   32.4535   46.3077 C   0  0  0  0  0  0  0  0  0  0  0  0
   58.9996   31.4195   47.0626 C   0  0  0  0  0  0  0  0  0  0  0  0
   57.1871   32.5484   45.7681 O   0  0  0  0  0  0  0  0  0  0  0  0
   57.0952   33.7987   45.0709 C   0  0  0  0  0  0  0  0  0  0  0  0
   58.3784   34.4162   45.2387 O   0  0  0  0  0  0  0  0  0  0  0  0
  1  2  2  0
  2  3  1  0
  3  4  1  0
  4 17  1  0
 17 18  2  0
 17 19  1  0
 19 21  1  0
 21 22  1  0
 22 23  2  0
 23 24  1  0
 24 25  2  0
 25 26  1  0
 26 27  2  0
 26 28  1  0
 28 29  1  0
 29 30  1  0
  4  5  2  0
  5  6  1  0
  6  7  2  0
  7  8  1  0
  8  9  2  0
  9 10  1  0
  9 11  1  0
 11 12  1  0
 12 13  2  0
 12 14  1  0
 14 15  1  0
 15 16  2  0
  6  2  1  0
 15  8  1  0
 27 22  1  0
 30 25  1  0
 19 20  1  0
M  CHG 1  10  -1
M  CHG 1  11  -1
M  CHG 1  14  -1
M  END
> <UniqueID>
74

> <SMILES>
C=c1oc(C(=O)NCc2ccc3c(c2)OCO3)cc1=Cc1c([O-])[n-]c(=O)[n-]c1=O

> <Energy>
111.83294674386248

> <Genealogy>
C=c1oc(C(=O)NCc2ccc3c(c2)OCO3)cc1=Cc1c([O-])[n-]c(=O)[n-]c1=O (protonated)
C=c1oc(C(=O)NCc2ccc3c(c2)OCO3)cc1=Cc1c([O-])[n-]c(=O)[n-]c1=O (3D coordinates assigned)
C=c1oc(C(=O)NCc2ccc3c(c2)OCO3)cc1=Cc1c([O-])[n-]c(=O)[n-]c1=O (nonaromatic ring conformer: 111.83294674386248 kcal/mol)

> <smiles>
C=c1oc(C(=O)NCc2ccc3c(c2)OCO3)cc1=Cc1c(O)[nH]c(=O)[nH]c1=O

> <score_type>
oracle

> <origin>
adg

> <m_score__min__energy>
-15.460000000000001

> <m_primary>
energy

> <minimizedAffinity>
-7.61979

> <minimizedRMSD>
0.65384

> <CNNscore>
0.0785804614

> <CNNaffinity>
5.5501151085

> <CNN_VS>
0.4361306131

> <CNNaffinity_variance>
0.0332579650

$$$$
78:0


 37 41  0  0  0  0  0  0  0  0999 V2000
   58.3733   31.2666   45.6310 C   0  0  0  0  0  0  0  0  0  0  0  0
   58.1646   32.0794   44.5061 C   0  0  0  0  0  0  0  0  0  0  0  0
   58.5879   33.4098   44.5142 C   0  0  0  0  0  0  0  0  0  0  0  0
   59.2197   33.9416   45.6428 C   0  0  0  0  0  0  0  0  0  0  0  0
   59.4203   33.1468   46.7829 C   0  0  0  0  0  0  0  0  0  0  0  0
   59.0197   31.8034   46.7567 C   0  0  0  0  0  0  0  0  0  0  0  0
   59.6648   28.8984   46.9591 C   0  0  0  0  0  0  0  0  0  0  0  0
   58.6241   28.8100   46.1192 C   0  0  0  0  0  0  0  0  0  0  0  0
   57.8890   27.6653   45.7856 C   0  0  0  0  0  0  0  0  0  0  0  0
   58.1894   26.3649   45.9558 C   0  0  0  0  0  0  0  0  0  0  0  0
   56.7430   28.0401   45.1736 N   0  0  0  0  0  0  0  0  0  0  0  0
   56.8310   29.3818   45.0895 C   0  0  0  0  0  0  0  0  0  0  0  0
   55.9422   30.0900   44.5435 O   0  0  0  0  0  0  0  0  0  0  0  0
   57.9634   29.8857   45.6263 N   0  0  0  0  0  0  0  0  0  0  0  0
   57.4128   25.2275   45.4259 C   0  0  0  0  0  0  0  0  0  0  0  0
   57.9179   24.2492   44.6431 N   0  0  0  0  0  0  0  0  0  0  0  0
   56.8323   23.5193   44.3004 C   0  0  0  0  0  0  0  0  0  0  0  0
   56.9044   22.4864   43.5823 O   0  0  0  0  0  0  0  0  0  0  0  0
   55.6749   24.0072   44.7889 N   0  0  0  0  0  0  0  0  0  0  0  0
   54.3317   23.4510   44.6467 C   0  0  0  0  0  0  0  0  0  0  0  0
   56.0443   25.0886   45.4985 C   0  0  0  0  0  0  0  0  0  0  0  0
   55.1761   25.9286   46.1931 O   0  0  0  0  0  0  0  0  0  0  0  0
   54.2548   25.7578   46.1880 H   0  0  0  0  0  0  0  0  0  0  0  0
   60.0765   33.7146   47.9812 C   0  0  0  0  0  0  0  0  0  0  0  0
   59.5356   34.6916   48.5679 O   0  0  0  0  0  0  0  0  0  0  0  0
   61.3220   33.1885   48.4824 N   0  0  0  0  0  0  0  0  0  0  0  0
   61.6572   31.7632   48.3341 C   0  0  0  0  0  0  0  0  0  0  0  0
   62.3746   31.2544   49.5853 C   0  0  0  0  0  0  0  0  0  0  0  0
   63.5293   32.1029   49.9206 N   0  0  0  0  0  0  0  0  0  0  0  0
   63.6320   33.4590   49.3586 C   0  0  0  0  0  0  0  0  0  0  0  0
   62.2444   34.0899   49.1858 C   0  0  0  0  0  0  0  0  0  0  0  0
   64.6163   31.5533   50.6982 C   0  0  0  0  0  0  0  0  0  0  0  0
   65.9239   32.0579   50.5648 C   0  0  0  0  0  0  0  0  0  0  0  0
   66.9771   31.5099   51.3033 C   0  0  0  0  0  0  0  0  0  0  0  0
   66.7415   30.4449   52.1767 C   0  0  0  0  0  0  0  0  0  0  0  0
   65.4495   29.9376   52.3216 C   0  0  0  0  0  0  0  0  0  0  0  0
   64.3916   30.4850   51.5879 C   0  0  0  0  0  0  0  0  0  0  0  0
  7  8  2  0
  8  9  1  0
  9 10  2  0
 10 15  1  0
 15 16  1  0
 16 17  1  0
 17 18  2  0
 17 19  1  0
 19 20  1  0
 19 21  1  0
 21 22  1  0
  9 11  1  0
 11 12  1  0
 12 13  2  0
 12 14  1  0
 14  1  1  0
  1  2  2  0
  2  3  1  0
  3  4  2  0
  4  5  1  0
  5 24  1  0
 24 25  2  0
 24 26  1  0
 26 27  1  0
 27 28  1  0
 28 29  1  0
 29 32  1  0
 32 33  2  0
 33 34  1  0
 34 35  2  0
 35 36  1  0
 36 37  2  0
 29 30  1  0
 30 31  1  0
  5  6  2  0
 14  8  1  0
  6  1  1  0
 21 15  2  0
 31 26  1  0
 37 32  1  0
 22 23  1  0
M  CHG 1  11  -1
M  CHG 1  16  -1
M  END
> <UniqueID>
75

> <SMILES>
C=c1c(=Cc2[n-]c(=O)n(C)c2O)[n-]c(=O)n1-c1cccc(C(=O)N2CCN(c3ccccc3)CC2)c1

> <Energy>
154.01734645207304

> <Genealogy>
C=c1c(=Cc2[n-]c(=O)n(C)c2O)[n-]c(=O)n1-c1cccc(C(=O)N2CCN(c3ccccc3)CC2)c1 (protonated)
C=c1c(=Cc2[n-]c(=O)n(C)c2O)[n-]c(=O)n1-c1cccc(C(=O)N2CCN(c3ccccc3)CC2)c1 (3D coordinates assigned)
C=c1c(=Cc2[n-]c(=O)n(C)c2O)[n-]c(=O)n1-c1cccc(C(=O)N2CCN(c3ccccc3)CC2)c1 (nonaromatic ring conformer: 154.01734645207304 kcal/mol)

> <smiles>
C=c1c(=Cc2[nH]c(=O)n(C)c2O)[nH]c(=O)n1-c1cccc(C(=O)N2CCN(c3ccccc3)CC2)c1

> <score_type>
oracle

> <origin>
adg

> <m_score__min__energy>
-15.18

> <m_primary>
energy

> <minimizedAffinity>
-10.89959

> <minimizedRMSD>
0.77583

> <CNNscore>
0.5617364049

> <CNNaffinity>
7.0431876183

> <CNN_VS>
3.9564149380

> <CNNaffinity_variance>
0.0976588130

$$$$
80:0


 36 39  0  0  0  0  0  0  0  0999 V2000
   58.5103   31.1609   44.9448 C   0  0  0  0  0  0  0  0  0  0  0  0
   58.2574   32.4809   44.5482 C   0  0  0  0  0  0  0  0  0  0  0  0
   58.6853   33.5503   45.3376 C   0  0  0  0  0  0  0  0  0  0  0  0
   59.3626   33.3146   46.5420 C   0  0  0  0  0  0  0  0  0  0  0  0
   59.6103   31.9940   46.9412 C   0  0  0  0  0  0  0  0  0  0  0  0
   59.1886   30.9251   46.1491 C   0  0  0  0  0  0  0  0  0  0  0  0
   57.9931   30.0066   44.1292 C   0  0  0  0  0  0  0  0  0  0  0  0
   55.6282   30.1766   44.4384 O   0  0  0  0  0  0  0  0  0  0  0  0
   56.6864   29.5347   44.6862 C   0  0  0  0  0  0  0  0  0  0  0  0
   56.6394   28.3404   45.4714 N   0  0  0  0  0  0  0  0  0  0  0  0
   57.8291   27.5846   45.8294 C   0  0  0  0  0  0  0  0  0  0  0  0
   57.5058   26.1161   45.8743 C   0  0  0  0  0  0  0  0  0  0  0  0
   58.5141   25.1681   45.6401 C   0  0  0  0  0  0  0  0  0  0  0  0
   58.2163   23.8022   45.6469 C   0  0  0  0  0  0  0  0  0  0  0  0
   56.9031   23.3698   45.8755 C   0  0  0  0  0  0  0  0  0  0  0  0
   56.5929   22.0137   45.8801 O   0  0  0  0  0  0  0  0  0  0  0  0
   55.8922   24.3141   46.1068 C   0  0  0  0  0  0  0  0  0  0  0  0
   54.5866   23.8971   46.3200 O   0  0  0  0  0  0  0  0  0  0  0  0
   56.1937   25.6793   46.1117 C   0  0  0  0  0  0  0  0  0  0  0  0
   57.2647   21.3790   45.7261 H   0  0  0  0  0  0  0  0  0  0  0  0
   59.7642   34.4687   47.4205 C   0  0  0  0  0  0  0  0  0  0  0  0
   60.5594   33.9800   48.6065 C   0  0  0  0  0  0  0  0  0  0  0  0
   59.9410   33.8106   49.8503 C   0  0  0  0  0  0  0  0  0  0  0  0
   60.6485   33.3619   50.9297 N   0  0  0  0  0  0  0  0  0  0  0  0
   61.9823   33.0826   50.7987 C   0  0  0  0  0  0  0  0  0  0  0  0
   62.6625   32.7016   51.7880 O   0  0  0  0  0  0  0  0  0  0  0  0
   62.5904   33.2195   49.5954 N   0  0  0  0  0  0  0  0  0  0  0  0
   61.9164   33.6502   48.5009 C   0  0  0  0  0  0  0  0  0  0  0  0
   62.5195   33.7508   47.4021 O   0  0  0  0  0  0  0  0  0  0  0  0
   59.9786   33.2727   52.2357 C   0  0  0  0  0  0  0  0  0  0  0  0
   58.9840   32.1439   52.2319 C   0  0  0  0  0  0  0  0  0  0  0  0
   57.6130   32.4134   52.3698 C   0  0  0  0  0  0  0  0  0  0  0  0
   56.6885   31.3635   52.4069 C   0  0  0  0  0  0  0  0  0  0  0  0
   57.1288   30.0397   52.3194 C   0  0  0  0  0  0  0  0  0  0  0  0
   58.4919   29.7649   52.1918 C   0  0  0  0  0  0  0  0  0  0  0  0
   59.4189   30.8136   52.1435 C   0  0  0  0  0  0  0  0  0  0  0  0
  8  9  2  0
  9  7  1  0
  7  1  1  0
  1  2  2  0
  2  3  1  0
  3  4  2  0
  4 21  1  0
 21 22  1  0
 22 23  2  0
 23 24  1  0
 24 30  1  0
 30 31  1  0
 31 32  2  0
 32 33  1  0
 33 34  2  0
 34 35  1  0
 35 36  2  0
 24 25  1  0
 25 26  2  0
 25 27  1  0
 27 28  1  0
 28 29  2  0
  4  5  1  0
  5  6  2  0
  9 10  1  0
 10 11  1  0
 11 12  1  0
 12 13  2  0
 13 14  1  0
 14 15  2  0
 15 16  1  0
 15 17  1  0
 17 18  1  0
 17 19  2  0
  6  1  1  0
 19 12  1  0
 28 22  1  0
 36 31  1  0
 16 20  1  0
M  CHG 1  10  -1
M  CHG 1  18  -1
M  CHG 1  27  -1
M  END
> <UniqueID>
77

> <SMILES>
O=C(Cc1ccc(Cc2cn(Cc3ccccc3)c(=O)[n-]c2=O)cc1)[N-]Cc1ccc(O)c([O-])c1

> <Energy>
57.7924926407813

> <Genealogy>
O=C(Cc1ccc(Cc2cn(Cc3ccccc3)c(=O)[n-]c2=O)cc1)[N-]Cc1ccc(O)c([O-])c1 (protonated)
O=C(Cc1ccc(Cc2cn(Cc3ccccc3)c(=O)[n-]c2=O)cc1)[N-]Cc1ccc(O)c([O-])c1 (3D coordinates assigned)
O=C(Cc1ccc(Cc2cn(Cc3ccccc3)c(=O)[n-]c2=O)cc1)[N-]Cc1ccc(O)c([O-])c1 (optimized conformer: 57.7924926407813 kcal/mol)

> <smiles>
O=C(Cc1ccc(Cc2cn(Cc3ccccc3)c(=O)[nH]c2=O)cc1)NCc1ccc(O)c(O)c1

> <score_type>
oracle

> <origin>
adg

> <m_score__min__energy>
-16.739999999999998

> <m_primary>
energy

> <minimizedAffinity>
-8.41100

> <minimizedRMSD>
1.43200

> <CNNscore>
0.6866240501

> <CNNaffinity>
7.0397810936

> <CNN_VS>
4.8336830139

> <CNNaffinity_variance>
0.0835800469

$$$$
86:0


 25 27  0  0  0  0  0  0  0  0999 V2000
   54.4146   27.8123   53.5942 C   0  0  0  0  0  0  0  0  0  0  0  0
   55.0486   28.9705   53.3436 C   0  0  0  0  0  0  0  0  0  0  0  0
   54.6240   29.9966   52.4834 C   0  0  0  0  0  0  0  0  0  0  0  0
   53.4390   30.2177   51.8836 C   0  0  0  0  0  0  0  0  0  0  0  0
   55.7037   30.8498   52.3403 C   0  0  0  0  0  0  0  0  0  0  0  0
   56.7122   30.3641   53.1467 C   0  0  0  0  0  0  0  0  0  0  0  0
   56.3048   29.2426   53.7864 N   0  0  0  0  0  0  0  0  0  0  0  0
   57.1134   28.4180   54.6936 C   0  0  0  0  0  0  0  0  0  0  0  0
   52.2625   30.8497   52.5019 C   0  0  0  0  0  0  0  0  0  0  0  0
   51.9356   30.7502   53.8053 N   0  0  0  0  0  0  0  0  0  0  0  0
   50.9086   31.6194   53.9350 C   0  0  0  0  0  0  0  0  0  0  0  0
   50.3110   31.8035   55.0260 O   0  0  0  0  0  0  0  0  0  0  0  0
   50.5863   32.2879   52.8072 N   0  0  0  0  0  0  0  0  0  0  0  0
   51.4627   31.7993   51.9154 C   0  0  0  0  0  0  0  0  0  0  0  0
   51.5320   32.2155   50.5883 O   0  0  0  0  0  0  0  0  0  0  0  0
   58.0520   31.0342   53.3205 C   0  0  0  0  0  0  0  0  0  0  0  0
   58.3393   32.0344   52.2242 C   0  0  0  0  0  0  0  0  0  0  0  0
   58.0027   33.2410   52.3794 O   0  0  0  0  0  0  0  0  0  0  0  0
   59.0287   31.6344   51.0173 N   0  0  0  0  0  0  0  0  0  0  0  0
   59.1715   32.5767   49.8963 C   0  0  0  0  0  0  0  0  0  0  0  0
   59.0250   31.8408   48.5533 C   0  0  0  0  0  0  0  0  0  0  0  0
   59.7660   30.5479   48.4810 N   0  0  0  0  0  0  0  0  0  0  0  0
   60.6016   30.4769   47.2720 C   0  0  0  0  0  0  0  0  0  0  0  0
   60.5769   30.2457   49.6778 C   0  0  0  0  0  0  0  0  0  0  0  0
   59.7167   30.3386   50.9420 C   0  0  0  0  0  0  0  0  0  0  0  0
  1  2  2  0
  2  3  1  0
  3  4  2  0
  4  9  1  0
  9 10  1  0
 10 11  1  0
 11 12  2  0
 11 13  1  0
 13 14  1  0
 14 15  1  0
  3  5  1  0
  5  6  2  0
  6 16  1  0
 16 17  1  0
 17 18  2  0
 17 19  1  0
 19 20  1  0
 20 21  1  0
 21 22  1  0
 22 23  1  0
 22 24  1  0
 24 25  1  0
  6  7  1  0
  7  8  1  0
  7  2  1  0
 14  9  2  0
 25 19  1  0
M  CHG 1  10  -1
M  CHG 1  13  -1
M  CHG 1  15  -1
M  END
> <UniqueID>
83

> <SMILES>
C=c1c(=Cc2[n-]c(=O)[n-]c2[O-])cc(CC(=O)N2CCN(C)CC2)n1C

> <Energy>
120.85708345163665

> <Genealogy>
C=c1c(=Cc2[n-]c(=O)[n-]c2[O-])cc(CC(=O)N2CCN(C)CC2)n1C (protonated)
C=c1c(=Cc2[n-]c(=O)[n-]c2[O-])cc(CC(=O)N2CCN(C)CC2)n1C (3D coordinates assigned)
C=c1c(=Cc2[n-]c(=O)[n-]c2[O-])cc(CC(=O)N2CCN(C)CC2)n1C (nonaromatic ring conformer: 120.85708345163665 kcal/mol)

> <smiles>
C=c1c(=Cc2[nH]c(=O)[nH]c2O)cc(CC(=O)N2CCN(C)CC2)n1C

> <score_type>
oracle

> <origin>
adg

> <m_score__min__energy>
-16.870000000000001

> <m_primary>
energy

> <minimizedAffinity>
-6.29892

> <minimizedRMSD>
0.78775

> <CNNscore>
0.1286690682

> <CNNaffinity>
4.5210323334

> <CNN_VS>
0.5817170143

> <CNNaffinity_variance>
0.2885832787

$$$$
9:0


 30 32  0  0  0  0  0  0  0  0999 V2000
   60.1856   29.5736   48.3641 C   0  0  0  0  0  0  0  0  0  0  0  0
   59.6768   29.9048   47.1622 C   0  0  0  0  0  0  0  0  0  0  0  0
   59.5734   29.0406   46.0677 C   0  0  0  0  0  0  0  0  0  0  0  0
   59.9413   27.7445   46.0035 C   0  0  0  0  0  0  0  0  0  0  0  0
   58.9529   29.7589   45.0615 C   0  0  0  0  0  0  0  0  0  0  0  0
   58.7219   31.0255   45.5562 C   0  0  0  0  0  0  0  0  0  0  0  0
   59.1803   31.1336   46.8327 N   0  0  0  0  0  0  0  0  0  0  0  0
   58.9883   26.6185   46.0033 C   0  0  0  0  0  0  0  0  0  0  0  0
   59.3679   25.3313   46.0770 N   0  0  0  0  0  0  0  0  0  0  0  0
   58.2051   24.6541   45.9577 C   0  0  0  0  0  0  0  0  0  0  0  0
   58.1460   23.3976   45.9934 O   0  0  0  0  0  0  0  0  0  0  0  0
   57.1124   25.4287   45.7892 N   0  0  0  0  0  0  0  0  0  0  0  0
   57.6255   26.6696   45.8079 C   0  0  0  0  0  0  0  0  0  0  0  0
   56.8688   27.8171   45.6006 O   0  0  0  0  0  0  0  0  0  0  0  0
   57.9299   32.0606   44.8013 C   0  0  0  0  0  0  0  0  0  0  0  0
   57.8105   31.6920   43.3274 C   0  0  0  0  0  0  0  0  0  0  0  0
   59.0836   32.3338   47.6925 C   0  0  0  0  0  0  0  0  0  0  0  0
   60.4431   32.8551   48.1269 C   0  0  0  0  0  0  0  0  0  0  0  0
   61.4672   32.8989   47.1607 C   0  0  0  0  0  0  0  0  0  0  0  0
   62.7452   33.3414   47.4922 C   0  0  0  0  0  0  0  0  0  0  0  0
   63.0226   33.7593   48.7891 C   0  0  0  0  0  0  0  0  0  0  0  0
   62.0186   33.7571   49.7558 C   0  0  0  0  0  0  0  0  0  0  0  0
   60.7063   33.3398   49.4439 C   0  0  0  0  0  0  0  0  0  0  0  0
   59.6016   33.3524   50.4937 C   0  0  0  0  0  0  0  0  0  0  0  0
   59.2130   31.9944   51.1095 C   0  0  0  0  0  0  0  0  0  0  0  0
   57.7801   31.9272   51.4003 N   0  0  0  0  0  0  0  0  0  0  0  0
   57.1622   30.7700   51.9824 C   0  0  0  0  0  0  0  0  0  0  0  0
   57.8380   29.7328   52.2200 O   0  0  0  0  0  0  0  0  0  0  0  0
   55.6992   30.7810   52.2819 C   0  0  0  0  0  0  0  0  0  0  0  0
   57.2177   32.7069   51.1882 H   0  0  0  0  0  0  0  0  0  0  0  0
  1  2  2  0
  2  3  1  0
  3  4  2  0
  4  8  1  0
  8  9  1  0
  9 10  1  0
 10 11  2  0
 10 12  1  0
 12 13  1  0
 13 14  1  0
  3  5  1  0
  5  6  2  0
  6 15  1  0
 15 16  1  0
  6  7  1  0
  7 17  1  0
 17 18  1  0
 18 19  2  0
 19 20  1  0
 20 21  2  0
 21 22  1  0
 22 23  2  0
 23 24  1  0
 24 25  1  0
 25 26  1  0
 26 27  1  0
 27 28  2  0
 27 29  1  0
  7  2  1  0
 23 18  1  0
 13  8  2  0
 26 30  1  0
M  CHG 1   9  -1
M  CHG 1  12  -1
M  CHG 1  14  -1
M  END
> <UniqueID>
10

> <SMILES>
C=c1/c(=C/c2[n-]c(=O)[n-]c2[O-])cc(CC)n1Cc1ccccc1CCNC(C)=O

> <Energy>
117.88489752626363

> <Genealogy>
C=c1c(=Cc2[n-]c(=O)[n-]c2[O-])cc(CC)n1Cc1ccccc1CCNC(C)=O (protonated)
C=c1/c(=C/c2[n-]c(=O)[n-]c2[O-])cc(CC)n1Cc1ccccc1CCNC(C)=O (cis-trans isomerization)
C=c1/c(=C/c2[n-]c(=O)[n-]c2[O-])cc(CC)n1Cc1ccccc1CCNC(C)=O (3D coordinates assigned)
C=c1/c(=C/c2[n-]c(=O)[n-]c2[O-])cc(CC)n1Cc1ccccc1CCNC(C)=O (optimized conformer: 117.88489752626363 kcal/mol)

> <smiles>
C=c1c(=Cc2[nH]c(=O)[nH]c2O)cc(CC)n1Cc1ccccc1CCNC(C)=O

> <score_type>
oracle

> <origin>
adg

> <m_score__min__energy>
-16.390000000000001

> <m_primary>
energy

> <minimizedAffinity>
-8.07519

> <minimizedRMSD>
1.28090

> <CNNscore>
0.4539466500

> <CNNaffinity>
7.1086597443

> <CNN_VS>
3.2269523144

> <CNNaffinity_variance>
0.0574861057

$$$$
12:0


 31 34  0  0  0  0  0  0  0  0999 V2000
   56.2503   27.8692   54.5671 C   0  0  0  0  0  0  0  0  0  0  0  0
   55.5392   28.6319   53.7336 C   0  0  0  0  0  0  0  0  0  0  0  0
   54.1912   28.5355   53.6536 N   0  0  0  0  0  0  0  0  0  0  0  0
   53.8323   29.4782   52.7595 C   0  0  0  0  0  0  0  0  0  0  0  0
   52.5567   29.6676   52.3873 C   0  0  0  0  0  0  0  0  0  0  0  0
   54.9753   30.1133   52.3026 C   0  0  0  0  0  0  0  0  0  0  0  0
   55.0328   30.9820   51.3900 O   0  0  0  0  0  0  0  0  0  0  0  0
   56.0534   29.5887   52.9183 N   0  0  0  0  0  0  0  0  0  0  0  0
   57.4392   29.8888   52.6525 C   0  0  0  0  0  0  0  0  0  0  0  0
   58.2818   29.8022   53.5903 O   0  0  0  0  0  0  0  0  0  0  0  0
   51.5291   30.2964   53.2298 C   0  0  0  0  0  0  0  0  0  0  0  0
   51.1350   29.8060   54.4177 N   0  0  0  0  0  0  0  0  0  0  0  0
   50.2817   30.7468   54.8752 C   0  0  0  0  0  0  0  0  0  0  0  0
   49.6817   30.6390   55.9758 O   0  0  0  0  0  0  0  0  0  0  0  0
   50.1334   31.8188   54.0681 N   0  0  0  0  0  0  0  0  0  0  0  0
   50.9395   31.5232   53.0361 C   0  0  0  0  0  0  0  0  0  0  0  0
   51.1655   32.3757   51.9635 O   0  0  0  0  0  0  0  0  0  0  0  0
   57.8812   30.2623   51.3243 N   0  0  0  0  0  0  0  0  0  0  0  0
   59.0255   29.4137   50.8973 C   0  0  0  0  0  0  0  0  0  0  0  0
   60.1069   30.1711   50.0913 C   0  0  0  0  0  0  0  0  0  0  0  0
   59.5584   31.2457   49.2393 N   0  0  0  0  0  0  0  0  0  0  0  0
   58.5525   32.1301   49.8673 C   0  0  0  0  0  0  0  0  0  0  0  0
   58.1995   31.7006   51.2959 C   0  0  0  0  0  0  0  0  0  0  0  0
   58.8470   30.4126   51.4419 H   0  0  0  0  0  0  0  0  0  0  0  0
   59.2931   30.8803   47.8310 C   0  0  0  0  0  0  0  0  0  0  0  0
   59.2302   32.0690   46.8950 C   0  0  0  0  0  0  0  0  0  0  0  0
   60.1434   33.1290   47.0367 C   0  0  0  0  0  0  0  0  0  0  0  0
   60.0794   34.2355   46.1847 C   0  0  0  0  0  0  0  0  0  0  0  0
   59.0907   34.3051   45.2004 C   0  0  0  0  0  0  0  0  0  0  0  0
   58.1638   33.2677   45.0672 C   0  0  0  0  0  0  0  0  0  0  0  0
   58.2304   32.1545   45.9111 C   0  0  0  0  0  0  0  0  0  0  0  0
  1  2  2  0
  2  3  1  0
  3  4  1  0
  4  5  2  0
  5 11  1  0
 11 12  1  0
 12 13  1  0
 13 14  2  0
 13 15  1  0
 15 16  1  0
 16 17  1  0
  4  6  1  0
  6  7  2  0
  6  8  1  0
  8  9  1  0
  9 10  2  0
  9 18  1  0
 18 19  1  0
 19 20  1  0
 20 21  1  0
 21 25  1  0
 25 26  1  0
 26 27  2  0
 27 28  1  0
 28 29  2  0
 29 30  1  0
 30 31  2  0
 21 22  1  0
 22 23  1  0
  8  2  1  0
 23 18  1  0
 16 11  2  0
 31 26  1  0
 18 24  1  0
M  CHG 1   3  -1
M  CHG 1  12  -1
M  CHG 1  15  -1
M  CHG 1  17  -1
M  CHG 1  18   1
M  END
> <UniqueID>
13

> <SMILES>
C=c1[n-]c(=Cc2[n-]c(=O)[n-]c2[O-])c(=O)n1C(=O)[NH+]1CCN(Cc2ccccc2)CC1

> <Energy>
142.53872847496893

> <Genealogy>
C=c1[n-]c(=Cc2[n-]c(=O)[n-]c2[O-])c(=O)n1C(=O)[NH+]1CCN(Cc2ccccc2)CC1 (protonated)
C=c1[n-]c(=Cc2[n-]c(=O)[n-]c2[O-])c(=O)n1C(=O)[NH+]1CCN(Cc2ccccc2)CC1 (3D coordinates assigned)
C=c1[n-]c(=Cc2[n-]c(=O)[n-]c2[O-])c(=O)n1C(=O)[NH+]1CCN(Cc2ccccc2)CC1 (nonaromatic ring conformer: 142.53872847496893 kcal/mol)

> <smiles>
C=c1[nH]c(=Cc2[nH]c(=O)[nH]c2O)c(=O)n1C(=O)N1CCN(Cc2ccccc2)CC1

> <score_type>
oracle

> <origin>
adg

> <m_score__min__energy>
-17.52

> <m_primary>
energy

> <minimizedAffinity>
-7.35508

> <minimizedRMSD>
1.78018

> <CNNscore>
0.1355057955

> <CNNaffinity>
5.1214656830

> <CNN_VS>
0.6939882636

> <CNNaffinity_variance>
0.1868050545

$$$$
23:0


 32 35  0  0  0  0  0  0  0  0999 V2000
   60.8670   26.9091   49.3716 C   0  0  0  0  0  0  0  0  0  0  0  0
   60.5649   28.2051   49.1509 C   0  0  0  0  0  0  0  0  0  0  0  0
   60.9063   29.1217   50.1635 C   0  0  0  0  0  0  0  0  0  0  0  0
   60.5810   30.4785   50.0725 C   0  0  0  0  0  0  0  0  0  0  0  0
   59.9091   30.9544   48.9308 C   0  0  0  0  0  0  0  0  0  0  0  0
   59.5820   30.0581   47.9021 C   0  0  0  0  0  0  0  0  0  0  0  0
   59.8937   28.6799   47.9742 C   0  0  0  0  0  0  0  0  0  0  0  0
   59.6067   27.8622   46.9234 C   0  0  0  0  0  0  0  0  0  0  0  0
   61.0246   31.3860   51.1563 C   0  0  0  0  0  0  0  0  0  0  0  0
   60.3048   31.4950   52.1873 O   0  0  0  0  0  0  0  0  0  0  0  0
   62.2465   32.1446   51.0506 N   0  0  0  0  0  0  0  0  0  0  0  0
   63.2916   31.7700   50.0911 C   0  0  0  0  0  0  0  0  0  0  0  0
   64.6685   32.1519   50.6409 C   0  0  0  0  0  0  0  0  0  0  0  0
   64.6908   33.5094   51.0387 O   0  0  0  0  0  0  0  0  0  0  0  0
   63.8140   33.6994   52.1321 C   0  0  0  0  0  0  0  0  0  0  0  0
   62.3605   33.4487   51.7149 C   0  0  0  0  0  0  0  0  0  0  0  0
   58.2950   27.2338   46.6471 C   0  0  0  0  0  0  0  0  0  0  0  0
   57.8942   26.0357   47.1118 N   0  0  0  0  0  0  0  0  0  0  0  0
   56.7019   25.8468   46.5048 C   0  0  0  0  0  0  0  0  0  0  0  0
   55.9966   24.8225   46.7000 O   0  0  0  0  0  0  0  0  0  0  0  0
   56.3312   26.8356   45.6639 N   0  0  0  0  0  0  0  0  0  0  0  0
   57.3553   27.6983   45.7576 C   0  0  0  0  0  0  0  0  0  0  0  0
   57.4324   28.8869   45.0420 O   0  0  0  0  0  0  0  0  0  0  0  0
   59.4973   32.3777   48.8002 C   0  0  0  0  0  0  0  0  0  0  0  0
   59.3617   33.0780   49.8400 O   0  0  0  0  0  0  0  0  0  0  0  0
   59.2464   32.9886   47.4705 C   0  0  0  0  0  0  0  0  0  0  0  0
   57.9244   33.0819   46.9961 C   0  0  0  0  0  0  0  0  0  0  0  0
   57.6555   33.6426   45.7456 C   0  0  0  0  0  0  0  0  0  0  0  0
   58.6999   34.1159   44.9521 C   0  0  0  0  0  0  0  0  0  0  0  0
   60.0169   34.0339   45.4082 C   0  0  0  0  0  0  0  0  0  0  0  0
   60.3004   33.4744   46.6611 C   0  0  0  0  0  0  0  0  0  0  0  0
   61.9783   33.4620   47.1962 Cl  0  0  0  0  0  0  0  0  0  0  0  0
  1  2  2  0
  2  3  1  0
  3  4  2  0
  4  9  1  0
  9 10  2  0
  9 11  1  0
 11 12  1  0
 12 13  1  0
 13 14  1  0
 14 15  1  0
 15 16  1  0
  4  5  1  0
  5 24  1  0
 24 25  2  0
 24 26  1  0
 26 27  2  0
 27 28  1  0
 28 29  2  0
 29 30  1  0
 30 31  2  0
 31 32  1  0
  5  6  2  0
  6  7  1  0
  7  8  2  0
  8 17  1  0
 17 18  1  0
 18 19  1  0
 19 20  2  0
 19 21  1  0
 21 22  1  0
 22 23  1  0
  7  2  1  0
 22 17  2  0
 16 11  1  0
 31 26  1  0
M  CHG 1  18  -1
M  CHG 1  21  -1
M  CHG 1  23  -1
M  END
> <UniqueID>
24

> <SMILES>
C=c1cc(C(=O)N2CCOCC2)c(C(=O)c2ccccc2Cl)c/c1=C\c1[n-]c(=O)[n-]c1[O-]

> <Energy>
115.66633859923716

> <Genealogy>
C=c1cc(C(=O)N2CCOCC2)c(C(=O)c2ccccc2Cl)cc1=Cc1[n-]c(=O)[n-]c1[O-] (protonated)
C=c1cc(C(=O)N2CCOCC2)c(C(=O)c2ccccc2Cl)c/c1=C\c1[n-]c(=O)[n-]c1[O-] (cis-trans isomerization)
C=c1cc(C(=O)N2CCOCC2)c(C(=O)c2ccccc2Cl)c/c1=C\c1[n-]c(=O)[n-]c1[O-] (3D coordinates assigned)
C=c1cc(C(=O)N2CCOCC2)c(C(=O)c2ccccc2Cl)c/c1=C\c1[n-]c(=O)[n-]c1[O-] (nonaromatic ring conformer: 115.66633859923716 kcal/mol)

> <smiles>
C=c1cc(C(=O)N2CCOCC2)c(C(=O)c2ccccc2Cl)cc1=Cc1[nH]c(=O)[nH]c1O

> <score_type>
oracle

> <origin>
adg

> <m_score__min__energy>
-17.09

> <m_primary>
energy

> <minimizedAffinity>
-8.37890

> <minimizedRMSD>
1.88410

> <CNNscore>
0.5943070054

> <CNNaffinity>
6.9134058952

> <CNN_VS>
4.1086854935

> <CNNaffinity_variance>
0.0373349935

$$$$
24:0


 34 37  0  0  0  0  0  0  0  0999 V2000
   59.7021   26.4659   46.2542 C   0  0  0  0  0  0  0  0  0  0  0  0
   60.8576   26.0526   46.5411 O   0  0  0  0  0  0  0  0  0  0  0  0
   59.4201   27.8718   46.3078 N   0  0  0  0  0  0  0  0  0  0  0  0
   60.3311   28.8233   45.6624 C   0  0  0  0  0  0  0  0  0  0  0  0
   60.7750   29.8798   46.6761 C   0  0  0  0  0  0  0  0  0  0  0  0
   59.6222   30.4687   47.3795 N   0  0  0  0  0  0  0  0  0  0  0  0
   59.7485   31.7730   47.9802 C   0  0  0  0  0  0  0  0  0  0  0  0
   58.7786   32.5772   47.9262 O   0  0  0  0  0  0  0  0  0  0  0  0
   60.9698   32.1864   48.6213 N   0  0  0  0  0  0  0  0  0  0  0  0
   61.7596   31.2386   49.4154 C   0  0  0  0  0  0  0  0  0  0  0  0
   62.2127   31.8913   50.7265 C   0  0  0  0  0  0  0  0  0  0  0  0
   62.7988   33.2246   50.5017 N   0  0  0  0  0  0  0  0  0  0  0  0
   63.5062   33.8938   51.5697 C   0  0  0  0  0  0  0  0  0  0  0  0
   63.4602   33.3830   52.9799 C   0  0  0  0  0  0  0  0  0  0  0  0
   64.1993   34.9201   51.3245 O   0  0  0  0  0  0  0  0  0  0  0  0
   62.7595   33.8214   49.1570 C   0  0  0  0  0  0  0  0  0  0  0  0
   61.3892   33.5891   48.5115 C   0  0  0  0  0  0  0  0  0  0  0  0
   58.2801   29.8925   47.2042 C   0  0  0  0  0  0  0  0  0  0  0  0
   58.3420   28.3604   47.1816 C   0  0  0  0  0  0  0  0  0  0  0  0
   56.6974   23.9392   43.5038 C   0  0  0  0  0  0  0  0  0  0  0  0
   57.2445   24.4118   44.6295 C   0  0  0  0  0  0  0  0  0  0  0  0
   58.1748   25.3888   44.6109 N   0  0  0  0  0  0  0  0  0  0  0  0
   58.6664   25.4935   45.8607 C   0  0  0  0  0  0  0  0  0  0  0  0
   58.0343   24.5985   46.7021 C   0  0  0  0  0  0  0  0  0  0  0  0
   57.0965   23.9242   45.9361 C   0  0  0  0  0  0  0  0  0  0  0  0
   56.2445   23.0192   46.4510 C   0  0  0  0  0  0  0  0  0  0  0  0
   58.4439   25.9249   43.8302 H   0  0  0  0  0  0  0  0  0  0  0  0
   54.7959   22.9617   46.1942 C   0  0  0  0  0  0  0  0  0  0  0  0
   54.0841   21.8262   46.0638 N   0  0  0  0  0  0  0  0  0  0  0  0
   52.8620   22.2655   45.6938 C   0  0  0  0  0  0  0  0  0  0  0  0
   51.8945   21.4859   45.4870 O   0  0  0  0  0  0  0  0  0  0  0  0
   52.7589   23.6045   45.5515 N   0  0  0  0  0  0  0  0  0  0  0  0
   53.9964   24.0270   45.8572 C   0  0  0  0  0  0  0  0  0  0  0  0
   54.3897   25.3582   45.8220 O   0  0  0  0  0  0  0  0  0  0  0  0
 20 21  2  0
 21 22  1  0
 22 23  1  0
 23  1  1  0
  1  2  2  0
  1  3  1  0
  3  4  1  0
  4  5  1  0
  5  6  1  0
  6  7  1  0
  7  8  2  0
  7  9  1  0
  9 10  1  0
 10 11  1  0
 11 12  1  0
 12 13  1  0
 13 14  1  0
 13 15  2  0
 12 16  1  0
 16 17  1  0
  6 18  1  0
 18 19  1  0
 23 24  2  0
 24 25  1  0
 25 26  2  0
 26 28  1  0
 28 29  1  0
 29 30  1  0
 30 31  2  0
 30 32  1  0
 32 33  1  0
 33 34  1  0
 25 21  1  0
 33 28  2  0
 19  3  1  0
 17  9  1  0
 22 27  1  0
M  CHG 1  29  -1
M  CHG 1  32  -1
M  CHG 1  34  -1
M  END
> <UniqueID>
25

> <SMILES>
C=c1[nH]c(C(=O)N2CCN(C(=O)N3CCN(C(C)=O)CC3)CC2)cc1=Cc1[n-]c(=O)[n-]c1[O-]

> <Energy>
132.25762651810248

> <Genealogy>
C=c1[nH]c(C(=O)N2CCN(C(=O)N3CCN(C(C)=O)CC3)CC2)cc1=Cc1[n-]c(=O)[n-]c1[O-] (protonated)
C=c1[nH]c(C(=O)N2CCN(C(=O)N3CCN(C(C)=O)CC3)CC2)cc1=Cc1[n-]c(=O)[n-]c1[O-] (3D coordinates assigned)
C=c1[nH]c(C(=O)N2CCN(C(=O)N3CCN(C(C)=O)CC3)CC2)cc1=Cc1[n-]c(=O)[n-]c1[O-] (nonaromatic ring conformer: 132.25762651810248 kcal/mol)

> <smiles>
C=c1[nH]c(C(=O)N2CCN(C(=O)N3CCN(C(C)=O)CC3)CC2)cc1=Cc1[nH]c(=O)[nH]c1O

> <score_type>
oracle

> <origin>
adg

> <m_score__min__energy>
-17.809999999999999

> <m_primary>
energy

> <minimizedAffinity>
-7.06310

> <minimizedRMSD>
0.80352

> <CNNscore>
0.0484915338

> <CNNaffinity>
5.5721836090

> <CNN_VS>
0.2702037394

> <CNNaffinity_variance>
0.3032988608

$$$$
32:0


 31 34  0  0  0  0  0  0  0  0999 V2000
   57.3588   29.1341   53.6307 C   0  0  0  0  0  0  0  0  0  0  0  0
   58.0099   28.0982   53.9368 O   0  0  0  0  0  0  0  0  0  0  0  0
   58.0254   30.2160   52.9544 N   0  0  0  0  0  0  0  0  0  0  0  0
   58.9610   29.9420   51.8590 C   0  0  0  0  0  0  0  0  0  0  0  0
   60.3259   30.5786   52.1575 C   0  0  0  0  0  0  0  0  0  0  0  0
   60.2030   32.0727   52.5431 C   0  0  0  0  0  0  0  0  0  0  0  0
   59.2041   32.2267   53.7123 C   0  0  0  0  0  0  0  0  0  0  0  0
   57.8441   31.6073   53.3811 C   0  0  0  0  0  0  0  0  0  0  0  0
   59.8330   32.9654   51.3668 C   0  0  0  0  0  0  0  0  0  0  0  0
   58.9757   33.8797   51.5164 O   0  0  0  0  0  0  0  0  0  0  0  0
   60.4471   32.7930   50.0755 N   0  0  0  0  0  0  0  0  0  0  0  0
   60.7109   33.9855   49.2597 C   0  0  0  0  0  0  0  0  0  0  0  0
   61.5474   33.6356   48.0268 C   0  0  0  0  0  0  0  0  0  0  0  0
   62.5488   32.6241   48.4041 N   0  0  0  0  0  0  0  0  0  0  0  0
   63.5568   32.4755   47.3436 C   0  0  0  0  0  0  0  0  0  0  0  0
   61.9063   31.3212   48.6914 C   0  0  0  0  0  0  0  0  0  0  0  0
   60.5762   31.4625   49.4637 C   0  0  0  0  0  0  0  0  0  0  0  0
   53.2662   28.0860   55.7818 C   0  0  0  0  0  0  0  0  0  0  0  0
   54.0868   28.7438   54.9607 C   0  0  0  0  0  0  0  0  0  0  0  0
   55.3746   28.4831   54.9186 O   0  0  0  0  0  0  0  0  0  0  0  0
   55.9270   29.1966   53.9655 C   0  0  0  0  0  0  0  0  0  0  0  0
   54.9663   29.9635   53.3344 C   0  0  0  0  0  0  0  0  0  0  0  0
   53.7771   29.7110   53.9950 C   0  0  0  0  0  0  0  0  0  0  0  0
   52.6177   30.3239   53.6884 C   0  0  0  0  0  0  0  0  0  0  0  0
   52.0727   30.4977   52.3346 C   0  0  0  0  0  0  0  0  0  0  0  0
   52.2836   29.6283   51.3312 N   0  0  0  0  0  0  0  0  0  0  0  0
   51.7283   30.2447   50.2632 C   0  0  0  0  0  0  0  0  0  0  0  0
   51.7114   29.7275   49.1172 O   0  0  0  0  0  0  0  0  0  0  0  0
   51.2068   31.4631   50.5208 N   0  0  0  0  0  0  0  0  0  0  0  0
   51.4467   31.6148   51.8318 C   0  0  0  0  0  0  0  0  0  0  0  0
   51.1220   32.7603   52.5490 O   0  0  0  0  0  0  0  0  0  0  0  0
 18 19  2  0
 19 20  1  0
 20 21  1  0
 21  1  1  0
  1  2  2  0
  1  3  1  0
  3  4  1  0
  4  5  1  0
  5  6  1  0
  6  9  1  0
  9 10  2  0
  9 11  1  0
 11 12  1  0
 12 13  1  0
 13 14  1  0
 14 15  1  0
 14 16  1  0
 16 17  1  0
  6  7  1  0
  7  8  1  0
 21 22  2  0
 22 23  1  0
 23 24  2  0
 24 25  1  0
 25 26  1  0
 26 27  1  0
 27 28  2  0
 27 29  1  0
 29 30  1  0
 30 31  1  0
 23 19  1  0
 30 25  2  0
  8  3  1  0
 17 11  1  0
M  CHG 1  26  -1
M  CHG 1  29  -1
M  CHG 1  31  -1
M  END
> <UniqueID>
33

> <SMILES>
C=c1oc(C(=O)N2CCC(C(=O)N3CCN(C)CC3)CC2)c/c1=C/c1[n-]c(=O)[n-]c1[O-]

> <Energy>
133.83299021204914

> <Genealogy>
C=c1oc(C(=O)N2CCC(C(=O)N3CCN(C)CC3)CC2)cc1=Cc1[n-]c(=O)[n-]c1[O-] (protonated)
C=c1oc(C(=O)N2CCC(C(=O)N3CCN(C)CC3)CC2)c/c1=C/c1[n-]c(=O)[n-]c1[O-] (cis-trans isomerization)
C=c1oc(C(=O)N2CCC(C(=O)N3CCN(C)CC3)CC2)c/c1=C/c1[n-]c(=O)[n-]c1[O-] (3D coordinates assigned)
C=c1oc(C(=O)N2CCC(C(=O)N3CCN(C)CC3)CC2)c/c1=C/c1[n-]c(=O)[n-]c1[O-] (nonaromatic ring conformer: 133.83299021204914 kcal/mol)

> <smiles>
C=c1oc(C(=O)N2CCC(C(=O)N3CCN(C)CC3)CC2)cc1=Cc1[nH]c(=O)[nH]c1O

> <score_type>
oracle

> <origin>
adg

> <m_score__min__energy>
-18.27

> <m_primary>
energy

> <minimizedAffinity>
-6.12442

> <minimizedRMSD>
0.92320

> <CNNscore>
0.0301481932

> <CNNaffinity>
4.5974230766

> <CNN_VS>
0.1386040002

> <CNNaffinity_variance>
0.4360814095

$$$$
50:0


 32 35  0  0  0  0  0  0  0  0999 V2000
   58.3437   28.7065   45.4619 C   0  0  0  0  0  0  0  0  0  0  0  0
   58.7723   30.0453   45.4077 C   0  0  0  0  0  0  0  0  0  0  0  0
   57.8831   31.0735   45.0568 C   0  0  0  0  0  0  0  0  0  0  0  0
   56.5690   30.7315   44.7208 C   0  0  0  0  0  0  0  0  0  0  0  0
   56.1631   29.4380   44.7720 N   0  0  0  0  0  0  0  0  0  0  0  0
   56.9980   28.4287   45.1342 C   0  0  0  0  0  0  0  0  0  0  0  0
   56.5507   27.2520   45.1683 O   0  0  0  0  0  0  0  0  0  0  0  0
   58.3287   32.4861   45.0196 C   0  0  0  0  0  0  0  0  0  0  0  0
   58.1608   33.1566   43.9630 O   0  0  0  0  0  0  0  0  0  0  0  0
   58.9473   33.1110   46.1592 N   0  0  0  0  0  0  0  0  0  0  0  0
   58.3647   32.9758   47.5011 C   0  0  0  0  0  0  0  0  0  0  0  0
   59.4741   32.7607   48.5461 C   0  0  0  0  0  0  0  0  0  0  0  0
   60.7440   33.4756   48.2251 N   0  0  0  0  0  0  0  0  0  0  0  0
   60.5650   34.6009   47.2858 C   0  0  0  0  0  0  0  0  0  0  0  0
   60.0333   34.0762   45.9501 C   0  0  0  0  0  0  0  0  0  0  0  0
   61.5809   33.8902   49.3867 C   0  0  0  0  0  0  0  0  0  0  0  0
   61.3896   33.0675   50.6652 C   0  0  0  0  0  0  0  0  0  0  0  0
   62.8526   32.6423   50.5995 C   0  0  0  0  0  0  0  0  0  0  0  0
   63.0493   33.4607   49.3257 C   0  0  0  0  0  0  0  0  0  0  0  0
   60.5290   27.7482   45.5840 O   0  0  0  0  0  0  0  0  0  0  0  0
   59.3022   27.6370   45.8524 C   0  0  0  0  0  0  0  0  0  0  0  0
   58.8410   26.4813   46.5615 N   0  0  0  0  0  0  0  0  0  0  0  0
   59.0594   25.1233   46.0817 C   0  0  0  0  0  0  0  0  0  0  0  0
   57.7352   24.4431   45.8789 C   0  0  0  0  0  0  0  0  0  0  0  0
   56.9223   24.1339   46.9810 C   0  0  0  0  0  0  0  0  0  0  0  0
   55.6968   23.4887   46.7920 C   0  0  0  0  0  0  0  0  0  0  0  0
   55.2808   23.1325   45.5045 C   0  0  0  0  0  0  0  0  0  0  0  0
   54.0624   22.4835   45.3278 O   0  0  0  0  0  0  0  0  0  0  0  0
   56.0910   23.4291   44.3978 C   0  0  0  0  0  0  0  0  0  0  0  0
   55.6701   23.0735   43.1166 O   0  0  0  0  0  0  0  0  0  0  0  0
   57.3181   24.0795   44.5873 C   0  0  0  0  0  0  0  0  0  0  0  0
   54.8486   22.6389   42.9971 H   0  0  0  0  0  0  0  0  0  0  0  0
 20 21  2  0
 21 22  1  0
 22 23  1  0
 23 24  1  0
 24 25  2  0
 25 26  1  0
 26 27  2  0
 27 28  1  0
 27 29  1  0
 29 30  1  0
 29 31  2  0
 21  1  1  0
  1  2  2  0
  2  3  1  0
  3  8  1  0
  8  9  2  0
  8 10  1  0
 10 11  1  0
 11 12  1  0
 12 13  1  0
 13 16  1  0
 16 17  1  0
 17 18  1  0
 18 19  1  0
 13 14  1  0
 14 15  1  0
  3  4  2  0
  4  5  1  0
  5  6  1  0
  6  7  2  0
 31 24  1  0
  6  1  1  0
 15 10  1  0
 19 16  1  0
 30 32  1  0
M  CHG 1   5  -1
M  CHG 1  22  -1
M  CHG 1  28  -1
M  END
> <UniqueID>
51

> <SMILES>
O=C([N-]Cc1ccc([O-])c(O)c1)c1cc(C(=O)N2CCN(C3CCC3)CC2)c[n-]c1=O

> <Energy>
130.40656423477816

> <Genealogy>
O=C([N-]Cc1ccc([O-])c(O)c1)c1cc(C(=O)N2CCN(C3CCC3)CC2)c[n-]c1=O (protonated)
O=C([N-]Cc1ccc([O-])c(O)c1)c1cc(C(=O)N2CCN(C3CCC3)CC2)c[n-]c1=O (3D coordinates assigned)
O=C([N-]Cc1ccc([O-])c(O)c1)c1cc(C(=O)N2CCN(C3CCC3)CC2)c[n-]c1=O (nonaromatic ring conformer: 130.40656423477816 kcal/mol)

> <smiles>
O=C(NCc1ccc(O)c(O)c1)c1cc(C(=O)N2CCN(C3CCC3)CC2)c[nH]c1=O

> <score_type>
oracle

> <origin>
adg

> <m_score__min__energy>
-15.92

> <m_primary>
energy

> <minimizedAffinity>
-7.76128

> <minimizedRMSD>
1.01341

> <CNNscore>
0.0894042999

> <CNNaffinity>
5.7863259315

> <CNN_VS>
0.5173224211

> <CNNaffinity_variance>
0.1582610756

$$$$
58:0


 29 32  0  0  0  0  0  0  0  0999 V2000
   59.9294   29.9453   48.2137 C   0  0  0  0  0  0  0  0  0  0  0  0
   59.5198   30.7078   47.1886 C   0  0  0  0  0  0  0  0  0  0  0  0
   59.2183   30.2860   45.8823 C   0  0  0  0  0  0  0  0  0  0  0  0
   59.4559   29.1201   45.2482 C   0  0  0  0  0  0  0  0  0  0  0  0
   58.5856   31.3545   45.2670 C   0  0  0  0  0  0  0  0  0  0  0  0
   58.5884   32.3967   46.1704 C   0  0  0  0  0  0  0  0  0  0  0  0
   58.0318   33.7603   45.8959 C   0  0  0  0  0  0  0  0  0  0  0  0
   59.1572   32.0082   47.3327 N   0  0  0  0  0  0  0  0  0  0  0  0
   59.3218   32.8222   48.5036 C   0  0  0  0  0  0  0  0  0  0  0  0
   58.6911   32.5345   49.5557 O   0  0  0  0  0  0  0  0  0  0  0  0
   58.8696   27.8126   45.5866 C   0  0  0  0  0  0  0  0  0  0  0  0
   59.5721   26.6916   45.8428 N   0  0  0  0  0  0  0  0  0  0  0  0
   58.6163   25.7451   45.9585 C   0  0  0  0  0  0  0  0  0  0  0  0
   58.8808   24.5436   46.2234 O   0  0  0  0  0  0  0  0  0  0  0  0
   57.3547   26.1859   45.7621 N   0  0  0  0  0  0  0  0  0  0  0  0
   57.5358   27.4927   45.5133 C   0  0  0  0  0  0  0  0  0  0  0  0
   56.5028   28.3761   45.2181 O   0  0  0  0  0  0  0  0  0  0  0  0
   60.2225   34.0214   48.4818 C   0  0  0  0  0  0  0  0  0  0  0  0
   61.5854   33.6552   49.0056 C   0  0  0  0  0  0  0  0  0  0  0  0
   61.8772   33.7924   50.3691 C   0  0  0  0  0  0  0  0  0  0  0  0
   63.1210   33.3984   50.8691 C   0  0  0  0  0  0  0  0  0  0  0  0
   64.0958   32.8509   50.0166 C   0  0  0  0  0  0  0  0  0  0  0  0
   63.7940   32.7115   48.6478 C   0  0  0  0  0  0  0  0  0  0  0  0
   62.5486   33.1052   48.1502 C   0  0  0  0  0  0  0  0  0  0  0  0
   65.3758   32.4289   50.5347 N   0  0  0  0  0  0  0  0  0  0  0  0
   66.5425   33.1072   50.4887 C   0  0  0  0  0  0  0  0  0  0  0  0
   67.5604   32.4304   51.0593 N   0  0  0  0  0  0  0  0  0  0  0  0
   67.0026   31.2780   51.4802 C   0  0  0  0  0  0  0  0  0  0  0  0
   65.6636   31.2700   51.1592 C   0  0  0  0  0  0  0  0  0  0  0  0
  1  2  2  0
  2  3  1  0
  3  4  2  0
  4 11  1  0
 11 12  1  0
 12 13  1  0
 13 14  2  0
 13 15  1  0
 15 16  1  0
 16 17  1  0
  3  5  1  0
  5  6  2  0
  6  7  1  0
  6  8  1  0
  8  9  1  0
  9 10  2  0
  9 18  1  0
 18 19  1  0
 19 20  2  0
 20 21  1  0
 21 22  2  0
 22 25  1  0
 25 26  1  0
 26 27  2  0
 27 28  1  0
 28 29  2  0
 22 23  1  0
 23 24  2  0
  8  2  1  0
 24 19  1  0
 16 11  2  0
 29 25  1  0
M  CHG 1  12  -1
M  CHG 1  15  -1
M  CHG 1  17  -1
M  END
> <UniqueID>
59

> <SMILES>
C=c1/c(=C\c2[n-]c(=O)[n-]c2[O-])cc(C)n1C(=O)Cc1ccc(-n2ccnc2)cc1

> <Energy>
154.21910924423608

> <Genealogy>
C=c1c(=Cc2[n-]c(=O)[n-]c2[O-])cc(C)n1C(=O)Cc1ccc(-n2ccnc2)cc1 (protonated)
C=c1/c(=C\c2[n-]c(=O)[n-]c2[O-])cc(C)n1C(=O)Cc1ccc(-n2ccnc2)cc1 (cis-trans isomerization)
C=c1/c(=C\c2[n-]c(=O)[n-]c2[O-])cc(C)n1C(=O)Cc1ccc(-n2ccnc2)cc1 (3D coordinates assigned)
C=c1/c(=C\c2[n-]c(=O)[n-]c2[O-])cc(C)n1C(=O)Cc1ccc(-n2ccnc2)cc1 (optimized conformer: 154.21910924423608 kcal/mol)

> <smiles>
C=c1c(=Cc2[nH]c(=O)[nH]c2O)cc(C)n1C(=O)Cc1ccc(-n2ccnc2)cc1

> <score_type>
oracle

> <origin>
adg

> <m_score__min__energy>
-16.5

> <m_primary>
energy

> <minimizedAffinity>
-8.30002

> <minimizedRMSD>
1.32674

> <CNNscore>
0.7642940879

> <CNNaffinity>
7.1231350899

> <CNN_VS>
5.4441699982

> <CNNaffinity_variance>
0.0736274645

$$$$
68:0


 31 34  0  0  0  0  0  0  0  0999 V2000
   58.7095   31.1773   45.7601 C   0  0  0  0  0  0  0  0  0  0  0  0
   59.8994   31.3013   46.5081 C   0  0  0  0  0  0  0  0  0  0  0  0
   60.8333   30.2594   46.5495 O   0  0  0  0  0  0  0  0  0  0  0  0
   60.1441   32.4510   47.2123 N   0  0  0  0  0  0  0  0  0  0  0  0
   59.2508   33.4891   47.1698 C   0  0  0  0  0  0  0  0  0  0  0  0
   59.4712   34.5567   47.8043 O   0  0  0  0  0  0  0  0  0  0  0  0
   58.1188   33.3868   46.4299 N   0  0  0  0  0  0  0  0  0  0  0  0
   57.8330   32.2661   45.7241 C   0  0  0  0  0  0  0  0  0  0  0  0
   56.7687   32.2166   45.0494 O   0  0  0  0  0  0  0  0  0  0  0  0
   60.6752   29.4692   46.0714 H   0  0  0  0  0  0  0  0  0  0  0  0
   58.0809   27.2228   43.5240 C   0  0  0  0  0  0  0  0  0  0  0  0
   58.0990   27.4829   44.8407 C   0  0  0  0  0  0  0  0  0  0  0  0
   58.3047   28.7125   45.4886 C   0  0  0  0  0  0  0  0  0  0  0  0
   58.3989   29.9591   44.9867 C   0  0  0  0  0  0  0  0  0  0  0  0
   58.3845   28.4982   46.8205 N   0  0  0  0  0  0  0  0  0  0  0  0
   58.2039   27.1718   46.9615 C   0  0  0  0  0  0  0  0  0  0  0  0
   58.1889   26.6018   48.0847 O   0  0  0  0  0  0  0  0  0  0  0  0
   58.0211   26.5256   45.7941 N   0  0  0  0  0  0  0  0  0  0  0  0
   57.7788   25.1161   45.6293 C   0  0  0  0  0  0  0  0  0  0  0  0
   58.8499   24.2470   45.3701 C   0  0  0  0  0  0  0  0  0  0  0  0
   58.6222   22.8790   45.1952 C   0  0  0  0  0  0  0  0  0  0  0  0
   57.3239   22.3691   45.2760 C   0  0  0  0  0  0  0  0  0  0  0  0
   56.2503   23.2271   45.5336 C   0  0  0  0  0  0  0  0  0  0  0  0
   56.4730   24.5967   45.7117 C   0  0  0  0  0  0  0  0  0  0  0  0
   55.3978   25.4356   45.9854 O   0  0  0  0  0  0  0  0  0  0  0  0
   61.3476   32.5663   47.9973 C   0  0  0  0  0  0  0  0  0  0  0  0
   62.4960   33.1604   47.4491 C   0  0  0  0  0  0  0  0  0  0  0  0
   63.6619   33.2731   48.2124 C   0  0  0  0  0  0  0  0  0  0  0  0
   63.6891   32.7941   49.5264 C   0  0  0  0  0  0  0  0  0  0  0  0
   62.5498   32.2007   50.0776 C   0  0  0  0  0  0  0  0  0  0  0  0
   61.3811   32.0862   49.3159 C   0  0  0  0  0  0  0  0  0  0  0  0
 11 12  2  0
 12 13  1  0
 13 14  2  0
 14  1  1  0
  1  2  2  0
  2  3  1  0
  2  4  1  0
  4 26  1  0
 26 27  2  0
 27 28  1  0
 28 29  2  0
 29 30  1  0
 30 31  2  0
  4  5  1  0
  5  6  2  0
  5  7  1  0
  7  8  1  0
  8  9  2  0
 13 15  1  0
 15 16  1  0
 16 17  2  0
 16 18  1  0
 18 19  1  0
 19 20  2  0
 20 21  1  0
 21 22  2  0
 22 23  1  0
 23 24  2  0
 24 25  1  0
 18 12  1  0
 24 19  1  0
  8  1  1  0
 31 26  1  0
  3 10  1  0
M  CHG 1   7  -1
M  CHG 1  15  -1
M  CHG 1  25  -1
M  END
> <UniqueID>
69

> <SMILES>
C=c1c(=Cc2c(O)n(-c3ccccc3)c(=O)[n-]c2=O)[n-]c(=O)n1-c1ccccc1[O-]

> <Energy>
112.25861161133956

> <Genealogy>
C=c1c(=Cc2c(O)n(-c3ccccc3)c(=O)[n-]c2=O)[n-]c(=O)n1-c1ccccc1[O-] (protonated)
C=c1c(=Cc2c(O)n(-c3ccccc3)c(=O)[n-]c2=O)[n-]c(=O)n1-c1ccccc1[O-] (3D coordinates assigned)
C=c1c(=Cc2c(O)n(-c3ccccc3)c(=O)[n-]c2=O)[n-]c(=O)n1-c1ccccc1[O-] (optimized conformer: 112.25861161133956 kcal/mol)

> <smiles>
C=c1c(=Cc2c(O)n(-c3ccccc3)c(=O)[nH]c2=O)[nH]c(=O)n1-c1ccccc1O

> <score_type>
oracle

> <origin>
adg

> <m_score__min__energy>
-14.199999999999999

> <m_primary>
energy

> <minimizedAffinity>
-9.07106

> <minimizedRMSD>
1.14884

> <CNNscore>
0.1844563037

> <CNNaffinity>
6.5140585899

> <CNN_VS>
1.2015591860

> <CNNaffinity_variance>
0.0470486879

$$$$
72:0


 31 34  0  0  0  0  0  0  0  0999 V2000
   59.3724   27.7789   44.6963 C   0  0  0  0  0  0  0  0  0  0  0  0
   58.0210   25.1185   44.1683 C   0  0  0  0  0  0  0  0  0  0  0  0
   58.1771   25.6367   45.3971 C   0  0  0  0  0  0  0  0  0  0  0  0
   57.8010   25.0328   46.6087 C   0  0  0  0  0  0  0  0  0  0  0  0
   57.0336   23.9542   46.8609 C   0  0  0  0  0  0  0  0  0  0  0  0
   58.3534   25.8053   47.6144 C   0  0  0  0  0  0  0  0  0  0  0  0
   58.9765   26.8715   47.0058 C   0  0  0  0  0  0  0  0  0  0  0  0
   59.6090   28.0093   47.7543 C   0  0  0  0  0  0  0  0  0  0  0  0
   58.8691   26.7815   45.6576 N   0  0  0  0  0  0  0  0  0  0  0  0
   55.6190   23.8014   46.4874 C   0  0  0  0  0  0  0  0  0  0  0  0
   54.9860   22.6223   46.3457 N   0  0  0  0  0  0  0  0  0  0  0  0
   53.7726   22.9752   45.8677 C   0  0  0  0  0  0  0  0  0  0  0  0
   52.8734   22.1324   45.6141 O   0  0  0  0  0  0  0  0  0  0  0  0
   53.6059   24.3002   45.6683 N   0  0  0  0  0  0  0  0  0  0  0  0
   54.7888   24.8051   46.0530 C   0  0  0  0  0  0  0  0  0  0  0  0
   55.1050   26.1573   46.0017 O   0  0  0  0  0  0  0  0  0  0  0  0
   58.4897   28.9993   44.6965 C   0  0  0  0  0  0  0  0  0  0  0  0
   57.1788   28.9231   44.2053 C   0  0  0  0  0  0  0  0  0  0  0  0
   56.3538   30.0491   44.2268 C   0  0  0  0  0  0  0  0  0  0  0  0
   56.8250   31.2565   44.7472 C   0  0  0  0  0  0  0  0  0  0  0  0
   58.1319   31.3513   45.2600 C   0  0  0  0  0  0  0  0  0  0  0  0
   58.9625   30.2156   45.2157 C   0  0  0  0  0  0  0  0  0  0  0  0
   58.6099   32.6431   45.8191 C   0  0  0  0  0  0  0  0  0  0  0  0
   58.2426   33.7169   45.2649 O   0  0  0  0  0  0  0  0  0  0  0  0
   59.5010   32.6940   46.9627 N   0  0  0  0  0  0  0  0  0  0  0  0
   58.8757   32.0725   48.1467 C   0  0  0  0  0  0  0  0  0  0  0  0
   59.8349   32.1310   49.3603 C   0  0  0  0  0  0  0  0  0  0  0  0
   60.9570   32.9633   49.1279 O   0  0  0  0  0  0  0  0  0  0  0  0
   60.5323   34.2223   48.6471 C   0  0  0  0  0  0  0  0  0  0  0  0
   59.8834   34.0920   47.2534 C   0  0  0  0  0  0  0  0  0  0  0  0
   60.3621   33.0722   47.2538 H   0  0  0  0  0  0  0  0  0  0  0  0
  2  3  2  0
  3  4  1  0
  4  5  2  0
  5 10  1  0
 10 11  1  0
 11 12  1  0
 12 13  2  0
 12 14  1  0
 14 15  1  0
 15 16  1  0
  4  6  1  0
  6  7  2  0
  7  8  1  0
  7  9  1  0
  9  1  1  0
  1 17  1  0
 17 18  2  0
 18 19  1  0
 19 20  2  0
 20 21  1  0
 21 23  1  0
 23 24  2  0
 23 25  1  0
 25 26  1  0
 26 27  1  0
 27 28  1  0
 28 29  1  0
 29 30  1  0
 21 22  2  0
  9  3  1  0
 22 17  1  0
 15 10  2  0
 30 25  1  0
 25 31  1  0
M  CHG 1  11  -1
M  CHG 1  14  -1
M  CHG 1  16  -1
M  CHG 1  25   1
M  END
> <UniqueID>
73

> <SMILES>
C=c1c(=Cc2[n-]c(=O)[n-]c2[O-])cc(C)n1Cc1cccc(C(=O)[NH+]2CCOCC2)c1

> <Energy>
137.01264155867366

> <Genealogy>
C=c1c(=Cc2[n-]c(=O)[n-]c2[O-])cc(C)n1Cc1cccc(C(=O)[NH+]2CCOCC2)c1 (protonated)
C=c1c(=Cc2[n-]c(=O)[n-]c2[O-])cc(C)n1Cc1cccc(C(=O)[NH+]2CCOCC2)c1 (3D coordinates assigned)
C=c1c(=Cc2[n-]c(=O)[n-]c2[O-])cc(C)n1Cc1cccc(C(=O)[NH+]2CCOCC2)c1 (nonaromatic ring conformer: 137.01264155867366 kcal/mol)

> <smiles>
C=c1c(=Cc2[nH]c(=O)[nH]c2O)cc(C)n1Cc1cccc(C(=O)N2CCOCC2)c1

> <score_type>
oracle

> <origin>
adg

> <m_score__min__energy>
-15.33

> <m_primary>
energy

> <minimizedAffinity>
-7.24590

> <minimizedRMSD>
0.72541

> <CNNscore>
0.0720553100

> <CNNaffinity>
6.1225647926

> <CNN_VS>
0.4411633015

> <CNNaffinity_variance>
0.0059293914

$$$$
10:0


 27 29  0  0  0  0  0  0  0  0999 V2000
   55.1010   28.6212   54.8762 C   0  0  0  0  0  0  0  0  0  0  0  0
   55.5839   29.2200   53.7765 C   0  0  0  0  0  0  0  0  0  0  0  0
   54.9144   30.1392   52.9532 C   0  0  0  0  0  0  0  0  0  0  0  0
   53.6194   30.5074   52.9077 C   0  0  0  0  0  0  0  0  0  0  0  0
   55.8720   30.6696   52.1075 C   0  0  0  0  0  0  0  0  0  0  0  0
   57.0589   30.0206   52.3834 C   0  0  0  0  0  0  0  0  0  0  0  0
   56.8834   29.1264   53.3863 N   0  0  0  0  0  0  0  0  0  0  0  0
   57.9309   28.3210   54.0281 C   0  0  0  0  0  0  0  0  0  0  0  0
   52.8046   30.6336   51.6897 C   0  0  0  0  0  0  0  0  0  0  0  0
   52.8558   29.7625   50.6669 N   0  0  0  0  0  0  0  0  0  0  0  0
   51.8726   30.1875   49.8448 C   0  0  0  0  0  0  0  0  0  0  0  0
   51.6156   29.6236   48.7487 O   0  0  0  0  0  0  0  0  0  0  0  0
   51.1801   31.2566   50.2926 N   0  0  0  0  0  0  0  0  0  0  0  0
   51.7711   31.5170   51.4683 C   0  0  0  0  0  0  0  0  0  0  0  0
   51.3571   32.5225   52.3334 O   0  0  0  0  0  0  0  0  0  0  0  0
   58.3669   30.3455   51.7178 C   0  0  0  0  0  0  0  0  0  0  0  0
   58.4313   31.8116   51.3980 C   0  0  0  0  0  0  0  0  0  0  0  0
   57.9996   32.6424   52.2433 O   0  0  0  0  0  0  0  0  0  0  0  0
   59.0601   32.2830   50.1933 N   0  0  0  0  0  0  0  0  0  0  0  0
   58.7668   31.6160   48.9219 C   0  0  0  0  0  0  0  0  0  0  0  0
   58.7506   32.6179   47.8069 C   0  0  0  0  0  0  0  0  0  0  0  0
   58.0128   32.4201   46.8035 O   0  0  0  0  0  0  0  0  0  0  0  0
   59.5924   33.7841   47.8777 N   0  0  0  0  0  0  0  0  0  0  0  0
   59.5387   34.7843   46.8111 C   0  0  0  0  0  0  0  0  0  0  0  0
   60.5845   33.9059   48.9517 C   0  0  0  0  0  0  0  0  0  0  0  0
   60.0772   33.3022   50.2295 C   0  0  0  0  0  0  0  0  0  0  0  0
   60.5989   33.6495   51.3237 O   0  0  0  0  0  0  0  0  0  0  0  0
  1  2  2  0
  2  3  1  0
  3  4  2  0
  4  9  1  0
  9 10  1  0
 10 11  1  0
 11 12  2  0
 11 13  1  0
 13 14  1  0
 14 15  1  0
  3  5  1  0
  5  6  2  0
  6 16  1  0
 16 17  1  0
 17 18  2  0
 17 19  1  0
 19 20  1  0
 20 21  1  0
 21 22  2  0
 21 23  1  0
 23 24  1  0
 23 25  1  0
 25 26  1  0
 26 27  2  0
  6  7  1  0
  7  8  1  0
  7  2  1  0
 14  9  2  0
 26 19  1  0
M  CHG 1  10  -1
M  CHG 1  13  -1
M  CHG 1  15  -1
M  END
> <UniqueID>
11

> <SMILES>
C=c1c(=Cc2[n-]c(=O)[n-]c2[O-])cc(CC(=O)N2CC(=O)N(C)CC2=O)n1C

> <Energy>
114.60793565556784

> <Genealogy>
C=c1c(=Cc2[n-]c(=O)[n-]c2[O-])cc(CC(=O)N2CC(=O)N(C)CC2=O)n1C (protonated)
C=c1c(=Cc2[n-]c(=O)[n-]c2[O-])cc(CC(=O)N2CC(=O)N(C)CC2=O)n1C (3D coordinates assigned)
C=c1c(=Cc2[n-]c(=O)[n-]c2[O-])cc(CC(=O)N2CC(=O)N(C)CC2=O)n1C (nonaromatic ring conformer: 114.60793565556784 kcal/mol)

> <smiles>
C=c1c(=Cc2[nH]c(=O)[nH]c2O)cc(CC(=O)N2CC(=O)N(C)CC2=O)n1C

> <score_type>
oracle

> <origin>
adg

> <m_score__min__energy>
-16.84

> <m_primary>
energy

> <minimizedAffinity>
-6.80113

> <minimizedRMSD>
0.78476

> <CNNscore>
0.1066736579

> <CNNaffinity>
4.7749361992

> <CNN_VS>
0.5093598962

> <CNNaffinity_variance>
0.2379480451

$$$$
14:0


 30 33  0  0  0  0  0  0  0  0999 V2000
   57.9319   29.4619   45.7963 C   0  0  0  0  0  0  0  0  0  0  0  0
   56.8690   29.4618   44.9046 C   0  0  0  0  0  0  0  0  0  0  0  0
   56.0960   28.3484   44.5992 O   0  0  0  0  0  0  0  0  0  0  0  0
   56.6583   30.6782   44.3503 N   0  0  0  0  0  0  0  0  0  0  0  0
   57.5969   31.4614   44.9162 C   0  0  0  0  0  0  0  0  0  0  0  0
   57.7732   32.8257   44.6973 C   0  0  0  0  0  0  0  0  0  0  0  0
   58.7694   33.4912   45.4314 C   0  0  0  0  0  0  0  0  0  0  0  0
   59.5490   32.7919   46.3853 C   0  0  0  0  0  0  0  0  0  0  0  0
   59.3581   31.4081   46.5719 C   0  0  0  0  0  0  0  0  0  0  0  0
   58.3805   30.7686   45.8064 C   0  0  0  0  0  0  0  0  0  0  0  0
   59.6566   29.7516   50.8482 C   0  0  0  0  0  0  0  0  0  0  0  0
   59.6443   29.0953   49.6927 C   0  0  0  0  0  0  0  0  0  0  0  0
   60.5755   28.1725   49.3616 N   0  0  0  0  0  0  0  0  0  0  0  0
   60.1823   27.7751   48.1403 C   0  0  0  0  0  0  0  0  0  0  0  0
   60.7925   26.9092   47.4597 O   0  0  0  0  0  0  0  0  0  0  0  0
   59.0408   28.4442   47.7636 C   0  0  0  0  0  0  0  0  0  0  0  0
   58.3913   28.3127   46.5990 C   0  0  0  0  0  0  0  0  0  0  0  0
   58.6983   29.2956   48.7466 N   0  0  0  0  0  0  0  0  0  0  0  0
   60.7679   33.6524   47.3284 S   0  0  0  0  0  0  0  0  0  0  0  0
   60.2941   33.7182   48.7535 O   0  0  0  0  0  0  0  0  0  0  0  0
   60.8682   35.0637   46.8161 O   0  0  0  0  0  0  0  0  0  0  0  0
   62.3474   32.8893   47.3092 N   0  0  0  0  0  0  0  0  0  0  0  0
   62.3686   31.5011   47.8003 C   0  0  0  0  0  0  0  0  0  0  0  0
   62.4226   31.4186   49.3258 C   0  0  0  0  0  0  0  0  0  0  0  0
   63.5147   32.2491   49.8445 N   0  0  0  0  0  0  0  0  0  0  0  0
   64.2216   31.8303   51.0341 C   0  0  0  0  0  0  0  0  0  0  0  0
   64.9780   32.8026   51.8917 C   0  0  0  0  0  0  0  0  0  0  0  0
   64.2324   30.6123   51.3639 O   0  0  0  0  0  0  0  0  0  0  0  0
   63.5847   33.6394   49.3778 C   0  0  0  0  0  0  0  0  0  0  0  0
   63.4330   33.7284   47.8479 C   0  0  0  0  0  0  0  0  0  0  0  0
 11 12  2  0
 12 13  1  0
 13 14  1  0
 14 15  2  0
 14 16  1  0
 16 17  2  0
 17  1  1  0
  1  2  2  0
  2  3  1  0
  2  4  1  0
  4  5  1  0
  5  6  2  0
  6  7  1  0
  7  8  2  0
  8 19  1  0
 19 20  2  0
 19 21  2  0
 19 22  1  0
 22 23  1  0
 23 24  1  0
 24 25  1  0
 25 26  1  0
 26 27  1  0
 26 28  2  0
 25 29  1  0
 29 30  1  0
  8  9  1  0
  9 10  2  0
 16 18  1  0
 18 12  1  0
 10  1  1  0
 10  5  1  0
 30 22  1  0
M  CHG 1   3  -1
M  CHG 1   4  -1
M  CHG 1  13  -1
M  CHG 1  18  -1
M  END
> <UniqueID>
15

> <SMILES>
C=c1[n-]c(=O)c(=Cc2c([O-])[n-]c3ccc(S(=O)(=O)N4CCN(C(C)=O)CC4)cc23)[n-]1

> <Energy>
120.77061499507101

> <Genealogy>
C=c1[n-]c(=O)c(=Cc2c([O-])[n-]c3ccc(S(=O)(=O)N4CCN(C(C)=O)CC4)cc23)[n-]1 (protonated)
C=c1[n-]c(=O)c(=Cc2c([O-])[n-]c3ccc(S(=O)(=O)N4CCN(C(C)=O)CC4)cc23)[n-]1 (3D coordinates assigned)
C=c1[n-]c(=O)c(=Cc2c([O-])[n-]c3ccc(S(=O)(=O)N4CCN(C(C)=O)CC4)cc23)[n-]1 (nonaromatic ring conformer: 120.77061499507101 kcal/mol)

> <smiles>
C=c1[nH]c(=O)c(=Cc2c(O)[nH]c3ccc(S(=O)(=O)N4CCN(C(C)=O)CC4)cc23)[nH]1

> <score_type>
oracle

> <origin>
adg

> <m_score__min__energy>
-17.039999999999999

> <m_primary>
energy

> <minimizedAffinity>
-7.38938

> <minimizedRMSD>
0.69422

> <CNNscore>
0.2667148411

> <CNNaffinity>
6.2839770317

> <CNN_VS>
1.6760299206

> <CNNaffinity_variance>
0.1654787511

$$$$
16:0


 33 36  0  0  0  0  0  0  0  0999 V2000
   57.2426   30.0546   43.6372 C   0  0  0  0  0  0  0  0  0  0  0  0
   57.5992   29.4186   44.7550 C   0  0  0  0  0  0  0  0  0  0  0  0
   57.3888   28.0924   44.9271 N   0  0  0  0  0  0  0  0  0  0  0  0
   57.9298   27.8195   46.1347 C   0  0  0  0  0  0  0  0  0  0  0  0
   57.9268   26.6141   46.7184 C   0  0  0  0  0  0  0  0  0  0  0  0
   58.4484   28.9809   46.6646 C   0  0  0  0  0  0  0  0  0  0  0  0
   59.0087   29.0997   47.7888 O   0  0  0  0  0  0  0  0  0  0  0  0
   58.2425   29.9947   45.8044 N   0  0  0  0  0  0  0  0  0  0  0  0
   57.3558   25.4083   46.0741 C   0  0  0  0  0  0  0  0  0  0  0  0
   55.9683   25.3020   45.8426 C   0  0  0  0  0  0  0  0  0  0  0  0
   55.0850   26.3354   46.1610 O   0  0  0  0  0  0  0  0  0  0  0  0
   55.4668   24.1724   45.2794 N   0  0  0  0  0  0  0  0  0  0  0  0
   56.2703   23.1356   44.9363 C   0  0  0  0  0  0  0  0  0  0  0  0
   55.7762   22.1044   44.4114 O   0  0  0  0  0  0  0  0  0  0  0  0
   57.6054   23.2061   45.1631 N   0  0  0  0  0  0  0  0  0  0  0  0
   58.1643   24.3079   45.7267 C   0  0  0  0  0  0  0  0  0  0  0  0
   59.4037   24.3188   45.9535 O   0  0  0  0  0  0  0  0  0  0  0  0
   55.4077   27.1242   46.5503 H   0  0  0  0  0  0  0  0  0  0  0  0
   58.6107   31.3722   45.9989 C   0  0  0  0  0  0  0  0  0  0  0  0
   57.7323   32.4006   45.6279 C   0  0  0  0  0  0  0  0  0  0  0  0
   58.0831   33.7350   45.8387 C   0  0  0  0  0  0  0  0  0  0  0  0
   59.3095   34.0552   46.4244 C   0  0  0  0  0  0  0  0  0  0  0  0
   60.2039   33.0377   46.8025 C   0  0  0  0  0  0  0  0  0  0  0  0
   59.8372   31.6959   46.5988 C   0  0  0  0  0  0  0  0  0  0  0  0
   61.4993   33.3703   47.4393 C   0  0  0  0  0  0  0  0  0  0  0  0
   62.4513   33.7881   46.7246 O   0  0  0  0  0  0  0  0  0  0  0  0
   61.7024   33.1975   48.8529 N   0  0  0  0  0  0  0  0  0  0  0  0
   60.7546   33.7725   49.8155 C   0  0  0  0  0  0  0  0  0  0  0  0
   60.5564   32.8382   51.0300 C   0  0  0  0  0  0  0  0  0  0  0  0
   61.6357   31.8334   51.1696 N   0  0  0  0  0  0  0  0  0  0  0  0
   61.6479   31.2794   52.5319 C   0  0  0  0  0  0  0  0  0  0  0  0
   62.9497   32.4086   50.8338 C   0  0  0  0  0  0  0  0  0  0  0  0
   62.9965   32.6963   49.3306 C   0  0  0  0  0  0  0  0  0  0  0  0
  1  2  2  0
  2  3  1  0
  3  4  1  0
  4  5  2  0
  5  9  1  0
  9 10  2  0
 10 11  1  0
 10 12  1  0
 12 13  1  0
 13 14  2  0
 13 15  1  0
 15 16  1  0
 16 17  2  0
  4  6  1  0
  6  7  2  0
  6  8  1  0
  8 19  1  0
 19 20  2  0
 20 21  1  0
 21 22  2  0
 22 23  1  0
 23 25  1  0
 25 26  2  0
 25 27  1  0
 27 28  1  0
 28 29  1  0
 29 30  1  0
 30 31  1  0
 30 32  1  0
 32 33  1  0
 23 24  2  0
  8  2  1  0
 24 19  1  0
 16  9  1  0
 33 27  1  0
 11 18  1  0
M  CHG 1   3  -1
M  CHG 1  12  -1
M  CHG 1  15  -1
M  END
> <UniqueID>
17

> <SMILES>
C=c1[n-]c(=Cc2c(O)[n-]c(=O)[n-]c2=O)c(=O)n1-c1cccc(C(=O)N2CCN(C)CC2)c1

> <Energy>
112.08181109233662

> <Genealogy>
C=c1[n-]c(=Cc2c(O)[n-]c(=O)[n-]c2=O)c(=O)n1-c1cccc(C(=O)N2CCN(C)CC2)c1 (protonated)
C=c1[n-]c(=Cc2c(O)[n-]c(=O)[n-]c2=O)c(=O)n1-c1cccc(C(=O)N2CCN(C)CC2)c1 (3D coordinates assigned)
C=c1[n-]c(=Cc2c(O)[n-]c(=O)[n-]c2=O)c(=O)n1-c1cccc(C(=O)N2CCN(C)CC2)c1 (nonaromatic ring conformer: 112.08181109233662 kcal/mol)

> <smiles>
C=c1[nH]c(=Cc2c(O)[nH]c(=O)[nH]c2=O)c(=O)n1-c1cccc(C(=O)N2CCN(C)CC2)c1

> <score_type>
oracle

> <origin>
adg

> <m_score__min__energy>
-15.07

> <m_primary>
energy

> <minimizedAffinity>
-10.66419

> <minimizedRMSD>
0.78366

> <CNNscore>
0.7188068628

> <CNNaffinity>
6.9819831848

> <CNN_VS>
5.0186972618

> <CNNaffinity_variance>
0.0194916781

$$$$
37:0


 22 23  0  0  0  0  0  0  0  0999 V2000
   59.1965   33.1486   46.1610 C   0  0  0  0  0  0  0  0  0  0  0  0
   58.5914   33.4047   44.9239 C   0  0  0  0  0  0  0  0  0  0  0  0
   57.9307   32.3807   44.2389 C   0  0  0  0  0  0  0  0  0  0  0  0
   57.8485   31.0953   44.7886 C   0  0  0  0  0  0  0  0  0  0  0  0
   58.4725   30.8362   46.0236 C   0  0  0  0  0  0  0  0  0  0  0  0
   59.1339   31.8615   46.7077 C   0  0  0  0  0  0  0  0  0  0  0  0
   59.6943   35.9572   46.2550 N   0  0  0  0  0  0  0  0  0  0  0  0
   60.0206   34.4437   47.0231 S   0  0  0  0  0  0  0  0  0  0  0  0
   59.5333   34.4841   48.4448 O   0  0  0  0  0  0  0  0  0  0  0  0
   61.5051   34.2047   47.0098 O   0  0  0  0  0  0  0  0  0  0  0  0
   60.1737   36.7040   46.7578 H   0  0  0  0  0  0  0  0  0  0  0  0
   57.1773   30.0703   44.0426 N   0  0  0  0  0  0  0  0  0  0  0  0
   57.0378   28.6939   44.4164 C   0  0  0  0  0  0  0  0  0  0  0  0
   56.0283   28.2979   45.0579 O   0  0  0  0  0  0  0  0  0  0  0  0
   58.0448   27.6992   43.9378 C   0  0  0  0  0  0  0  0  0  0  0  0
   58.7934   27.1629   45.0736 N   0  0  0  0  0  0  0  0  0  0  0  0
   58.5070   26.0730   45.8032 C   0  0  0  0  0  0  0  0  0  0  0  0
   57.3785   25.2800   45.6336 O   0  0  0  0  0  0  0  0  0  0  0  0
   59.5064   25.8665   46.7259 C   0  0  0  0  0  0  0  0  0  0  0  0
   60.4468   26.8244   46.5758 N   0  0  0  0  0  0  0  0  0  0  0  0
   59.9786   27.5838   45.5607 C   0  0  0  0  0  0  0  0  0  0  0  0
   60.6000   28.5832   45.1116 O   0  0  0  0  0  0  0  0  0  0  0  0
  7  8  1  0
  8  9  2  0
  8 10  2  0
  8  1  1  0
  1  2  2  0
  2  3  1  0
  3  4  2  0
  4 12  1  0
 12 13  1  0
 13 14  2  0
 13 15  1  0
 15 16  1  0
 16 17  1  0
 17 18  1  0
 17 19  2  0
 19 20  1  0
 20 21  1  0
 21 22  2  0
  4  5  1  0
  5  6  2  0
  6  1  1  0
 21 16  1  0
  7 11  1  0
M  CHG 1   7  -1
M  CHG 1  12  -1
M  CHG 1  18  -1
M  CHG 1  20  -1
M  END
> <UniqueID>
37

> <SMILES>
[NH-]S(=O)(=O)c1ccc([N-]C(=O)Cn2c([O-])c[n-]c2=O)cc1

> <Energy>
62.87834397141781

> <Genealogy>
[NH-]S(=O)(=O)c1ccc([N-]C(=O)Cn2c([O-])c[n-]c2=O)cc1 (protonated)
[NH-]S(=O)(=O)c1ccc([N-]C(=O)Cn2c([O-])c[n-]c2=O)cc1 (3D coordinates assigned)
[NH-]S(=O)(=O)c1ccc([N-]C(=O)Cn2c([O-])c[n-]c2=O)cc1 (optimized conformer: 62.87834397141781 kcal/mol)

> <smiles>
NS(=O)(=O)c1ccc(NC(=O)Cn2c(O)c[nH]c2=O)cc1

> <score_type>
oracle

> <origin>
adg

> <m_score__min__energy>
-14.77

> <m_primary>
energy

> <minimizedAffinity>
-4.83508

> <minimizedRMSD>
1.32285

> <CNNscore>
0.3073842824

> <CNNaffinity>
5.4884376526

> <CNN_VS>
1.6870595217

> <CNNaffinity_variance>
0.0082454281

$$$$
38:0


 28 30  0  0  0  0  0  0  0  0999 V2000
   56.5893   24.0467   44.1767 C   0  0  0  0  0  0  0  0  0  0  0  0
   57.6183   24.7555   44.6877 C   0  0  0  0  0  0  0  0  0  0  0  0
   57.6586   26.1567   44.5245 C   0  0  0  0  0  0  0  0  0  0  0  0
   58.6788   26.7784   45.2370 C   0  0  0  0  0  0  0  0  0  0  0  0
   59.5884   25.6081   46.0231 S   0  0  0  0  0  0  0  0  0  0  0  0
   58.7083   24.2826   45.4624 C   0  0  0  0  0  0  0  0  0  0  0  0
   59.1532   23.0279   45.6021 C   0  0  0  0  0  0  0  0  0  0  0  0
   54.8027   25.8949   45.8084 O   0  0  0  0  0  0  0  0  0  0  0  0
   54.5824   24.5291   45.6499 C   0  0  0  0  0  0  0  0  0  0  0  0
   53.6021   23.8510   46.2708 N   0  0  0  0  0  0  0  0  0  0  0  0
   53.8293   22.5803   45.8800 C   0  0  0  0  0  0  0  0  0  0  0  0
   53.1287   21.6128   46.2787 O   0  0  0  0  0  0  0  0  0  0  0  0
   54.8858   22.4222   45.0526 N   0  0  0  0  0  0  0  0  0  0  0  0
   55.3439   23.6792   44.8843 C   0  0  0  0  0  0  0  0  0  0  0  0
   54.2317   26.4016   46.3517 H   0  0  0  0  0  0  0  0  0  0  0  0
   58.9175   28.2548   45.3124 C   0  0  0  0  0  0  0  0  0  0  0  0
   57.8069   28.9446   46.1053 C   0  0  0  0  0  0  0  0  0  0  0  0
   56.7794   29.4257   45.1890 N   0  0  0  0  0  0  0  0  0  0  0  0
   57.0817   30.1696   44.0063 C   0  0  0  0  0  0  0  0  0  0  0  0
   56.4464   29.9507   42.9391 O   0  0  0  0  0  0  0  0  0  0  0  0
   58.0922   31.1389   44.0510 O   0  0  0  0  0  0  0  0  0  0  0  0
   57.8304   32.5430   44.0746 C   0  0  0  0  0  0  0  0  0  0  0  0
   58.4526   33.1717   45.2919 C   0  0  0  0  0  0  0  0  0  0  0  0
   58.3872   32.5130   46.5305 C   0  0  0  0  0  0  0  0  0  0  0  0
   58.9786   33.0820   47.6632 C   0  0  0  0  0  0  0  0  0  0  0  0
   59.6367   34.3117   47.5672 C   0  0  0  0  0  0  0  0  0  0  0  0
   59.7048   34.9744   46.3398 C   0  0  0  0  0  0  0  0  0  0  0  0
   59.1151   34.4081   45.2031 C   0  0  0  0  0  0  0  0  0  0  0  0
  8  9  1  0
  9 10  1  0
 10 11  1  0
 11 12  2  0
 11 13  1  0
 13 14  1  0
 14  1  1  0
  1  2  2  0
  2  3  1  0
  3  4  2  0
  4 16  1  0
 16 17  1  0
 17 18  1  0
 18 19  1  0
 19 20  2  0
 19 21  1  0
 21 22  1  0
 22 23  1  0
 23 24  2  0
 24 25  1  0
 25 26  2  0
 26 27  1  0
 27 28  2  0
  4  5  1  0
  5  6  1  0
  6  7  2  0
 14  9  2  0
  6  2  1  0
 28 23  1  0
  8 15  1  0
M  CHG 1  10  -1
M  CHG 1  13  -1
M  CHG 1  18  -1
M  END
> <UniqueID>
38

> <SMILES>
C=c1sc(CC[N-]C(=O)OCc2ccccc2)c/c1=C/c1[n-]c(=O)[n-]c1O

> <Energy>
106.24041626645078

> <Genealogy>
C=c1sc(CC[N-]C(=O)OCc2ccccc2)cc1=Cc1[n-]c(=O)[n-]c1O (protonated)
C=c1sc(CC[N-]C(=O)OCc2ccccc2)c/c1=C/c1[n-]c(=O)[n-]c1O (cis-trans isomerization)
C=c1sc(CC[N-]C(=O)OCc2ccccc2)c/c1=C/c1[n-]c(=O)[n-]c1O (3D coordinates assigned)
C=c1sc(CC[N-]C(=O)OCc2ccccc2)c/c1=C/c1[n-]c(=O)[n-]c1O (optimized conformer: 106.24041626645078 kcal/mol)

> <smiles>
C=c1sc(CCNC(=O)OCc2ccccc2)cc1=Cc1[nH]c(=O)[nH]c1O

> <score_type>
oracle

> <origin>
adg

> <m_score__min__energy>
-14.539999999999999

> <m_primary>
energy

> <minimizedAffinity>
-7.32803

> <minimizedRMSD>
1.02675

> <CNNscore>
0.5428560376

> <CNNaffinity>
6.6107764244

> <CNN_VS>
3.5886998177

> <CNNaffinity_variance>
0.0226502661

$$$$
47:0


 27 30  0  0  0  0  0  0  0  0999 V2000
   54.9788   27.9436   53.9039 C   0  0  0  0  0  0  0  0  0  0  0  0
   55.3683   29.0621   53.2690 C   0  0  0  0  0  0  0  0  0  0  0  0
   54.5329   30.0797   52.7808 C   0  0  0  0  0  0  0  0  0  0  0  0
   53.1958   30.1301   52.6225 C   0  0  0  0  0  0  0  0  0  0  0  0
   55.3625   31.1335   52.4474 C   0  0  0  0  0  0  0  0  0  0  0  0
   56.6571   30.7148   52.6725 C   0  0  0  0  0  0  0  0  0  0  0  0
   56.6708   29.4447   53.1472 N   0  0  0  0  0  0  0  0  0  0  0  0
   57.8460   31.5574   52.4258 C   0  0  0  0  0  0  0  0  0  0  0  0
   57.8490   32.7504   52.8316 O   0  0  0  0  0  0  0  0  0  0  0  0
   59.0100   31.0218   51.7685 N   0  0  0  0  0  0  0  0  0  0  0  0
   58.8533   29.9940   50.7276 C   0  0  0  0  0  0  0  0  0  0  0  0
   60.1575   29.7918   49.9472 C   0  0  0  0  0  0  0  0  0  0  0  0
   61.3073   29.6246   50.8576 N   0  0  0  0  0  0  0  0  0  0  0  0
   61.4264   30.5965   51.9704 C   0  0  0  0  0  0  0  0  0  0  0  0
   60.3191   31.6577   51.9627 C   0  0  0  0  0  0  0  0  0  0  0  0
   61.7976   28.2590   51.1703 C   0  0  0  0  0  0  0  0  0  0  0  0
   61.0312   27.5431   52.2813 C   0  0  0  0  0  0  0  0  0  0  0  0
   60.9094   27.0532   50.8514 C   0  0  0  0  0  0  0  0  0  0  0  0
   52.4890   30.4144   51.3655 C   0  0  0  0  0  0  0  0  0  0  0  0
   52.4435   29.5589   50.3277 N   0  0  0  0  0  0  0  0  0  0  0  0
   51.6004   30.1627   49.4617 C   0  0  0  0  0  0  0  0  0  0  0  0
   51.3103   29.6664   48.3426 O   0  0  0  0  0  0  0  0  0  0  0  0
   51.0847   31.3326   49.8942 N   0  0  0  0  0  0  0  0  0  0  0  0
   51.6443   31.4713   51.1060 C   0  0  0  0  0  0  0  0  0  0  0  0
   51.3673   32.5252   51.9688 O   0  0  0  0  0  0  0  0  0  0  0  0
   57.8578   28.7180   53.6272 C   0  0  0  0  0  0  0  0  0  0  0  0
   58.2235   29.1660   55.0376 C   0  0  0  0  0  0  0  0  0  0  0  0
  1  2  2  0
  2  3  1  0
  3  4  2  0
  4 19  1  0
 19 20  1  0
 20 21  1  0
 21 22  2  0
 21 23  1  0
 23 24  1  0
 24 25  1  0
  3  5  1  0
  5  6  2  0
  6  8  1  0
  8  9  2  0
  8 10  1  0
 10 11  1  0
 11 12  1  0
 12 13  1  0
 13 16  1  0
 16 17  1  0
 17 18  1  0
 13 14  1  0
 14 15  1  0
  6  7  1  0
  7 26  1  0
 26 27  1  0
  7  2  1  0
 24 19  2  0
 15 10  1  0
 18 16  1  0
M  CHG 1  20  -1
M  CHG 1  23  -1
M  CHG 1  25  -1
M  END
> <UniqueID>
47

> <SMILES>
C=c1c(=Cc2[n-]c(=O)[n-]c2[O-])cc(C(=O)N2CCN(C3CC3)CC2)n1CC

> <Energy>
405.9463920242799

> <Genealogy>
C=c1c(=Cc2[n-]c(=O)[n-]c2[O-])cc(C(=O)N2CCN(C3CC3)CC2)n1CC (protonated)
C=c1c(=Cc2[n-]c(=O)[n-]c2[O-])cc(C(=O)N2CCN(C3CC3)CC2)n1CC (3D coordinates assigned)
C=c1c(=Cc2[n-]c(=O)[n-]c2[O-])cc(C(=O)N2CCN(C3CC3)CC2)n1CC (nonaromatic ring conformer: 405.9463920242799 kcal/mol)

> <smiles>
C=c1c(=Cc2[nH]c(=O)[nH]c2O)cc(C(=O)N2CCN(C3CC3)CC2)n1CC

> <score_type>
oracle

> <origin>
adg

> <m_score__min__energy>
-16.289999999999999

> <m_primary>
energy

> <minimizedAffinity>
-4.38396

> <minimizedRMSD>
0.83738

> <CNNscore>
0.0521166027

> <CNNaffinity>
4.3481998444

> <CNN_VS>
0.2266134024

> <CNNaffinity_variance>
0.6723630428

$$$$
48:0


 34 37  0  0  0  0  0  0  0  0999 V2000
   59.7361   32.4279   47.3209 C   0  0  0  0  0  0  0  0  0  0  0  0
   60.8374   33.1257   46.8052 C   0  0  0  0  0  0  0  0  0  0  0  0
   61.6715   33.8513   47.6599 C   0  0  0  0  0  0  0  0  0  0  0  0
   61.4186   33.8753   49.0348 C   0  0  0  0  0  0  0  0  0  0  0  0
   60.3342   33.1577   49.5611 C   0  0  0  0  0  0  0  0  0  0  0  0
   59.4797   32.4575   48.6972 C   0  0  0  0  0  0  0  0  0  0  0  0
   59.3916   29.4871   47.1508 C   0  0  0  0  0  0  0  0  0  0  0  0
   58.6893   30.3477   46.3973 C   0  0  0  0  0  0  0  0  0  0  0  0
   57.7718   30.0396   45.3793 C   0  0  0  0  0  0  0  0  0  0  0  0
   57.2309   28.8662   45.0000 C   0  0  0  0  0  0  0  0  0  0  0  0
   57.4512   31.2420   44.7692 C   0  0  0  0  0  0  0  0  0  0  0  0
   58.1215   32.2318   45.4566 C   0  0  0  0  0  0  0  0  0  0  0  0
   58.0509   33.6950   45.1405 C   0  0  0  0  0  0  0  0  0  0  0  0
   58.8665   31.6928   46.4444 N   0  0  0  0  0  0  0  0  0  0  0  0
   57.7099   27.5329   45.3933 C   0  0  0  0  0  0  0  0  0  0  0  0
   59.0119   27.1708   45.4461 N   0  0  0  0  0  0  0  0  0  0  0  0
   58.9771   25.9359   45.9950 C   0  0  0  0  0  0  0  0  0  0  0  0
   60.0160   25.2575   46.2156 O   0  0  0  0  0  0  0  0  0  0  0  0
   57.7333   25.5128   46.2985 N   0  0  0  0  0  0  0  0  0  0  0  0
   57.3492   24.2855   46.9902 C   0  0  0  0  0  0  0  0  0  0  0  0
   56.9395   26.5359   45.9494 C   0  0  0  0  0  0  0  0  0  0  0  0
   55.5631   26.5727   46.1451 O   0  0  0  0  0  0  0  0  0  0  0  0
   60.0522   33.1642   51.0087 C   0  0  0  0  0  0  0  0  0  0  0  0
   59.1637   33.9600   51.4209 O   0  0  0  0  0  0  0  0  0  0  0  0
   60.7679   32.3337   51.9720 N   0  0  0  0  0  0  0  0  0  0  0  0
   60.7980   30.8850   51.6815 C   0  0  0  0  0  0  0  0  0  0  0  0
   59.4177   30.2095   51.7672 C   0  0  0  0  0  0  0  0  0  0  0  0
   58.5082   30.7958   52.7678 N   0  0  0  0  0  0  0  0  0  0  0  0
   57.2201   30.1602   52.9508 C   0  0  0  0  0  0  0  0  0  0  0  0
   56.1727   30.7396   53.8572 C   0  0  0  0  0  0  0  0  0  0  0  0
   56.9568   29.0841   52.3458 O   0  0  0  0  0  0  0  0  0  0  0  0
   58.7853   32.0688   53.4585 C   0  0  0  0  0  0  0  0  0  0  0  0
   60.2446   32.5213   53.3370 C   0  0  0  0  0  0  0  0  0  0  0  0
   60.8511   31.4185   52.3252 H   0  0  0  0  0  0  0  0  0  0  0  0
  7  8  2  0
  8  9  1  0
  9 10  2  0
 10 15  1  0
 15 16  1  0
 16 17  1  0
 17 18  2  0
 17 19  1  0
 19 20  1  0
 19 21  1  0
 21 22  1  0
  9 11  1  0
 11 12  2  0
 12 13  1  0
 12 14  1  0
 14  1  1  0
  1  2  2  0
  2  3  1  0
  3  4  2  0
  4  5  1  0
  5 23  1  0
 23 24  2  0
 23 25  1  0
 25 26  1  0
 26 27  1  0
 27 28  1  0
 28 29  1  0
 29 30  1  0
 29 31  2  0
 28 32  1  0
 32 33  1  0
  5  6  2  0
 14  8  1  0
  6  1  1  0
 21 15  2  0
 33 25  1  0
 25 34  1  0
M  CHG 1  16  -1
M  CHG 1  22  -1
M  CHG 1  25   1
M  END
> <UniqueID>
48

> <SMILES>
C=c1c(=Cc2[n-]c(=O)n(C)c2[O-])cc(C)n1-c1cccc(C(=O)[NH+]2CCN(C(C)=O)CC2)c1

> <Energy>
153.07261955633388

> <Genealogy>
C=c1c(=Cc2[n-]c(=O)n(C)c2[O-])cc(C)n1-c1cccc(C(=O)[NH+]2CCN(C(C)=O)CC2)c1 (protonated)
C=c1c(=Cc2[n-]c(=O)n(C)c2[O-])cc(C)n1-c1cccc(C(=O)[NH+]2CCN(C(C)=O)CC2)c1 (3D coordinates assigned)
C=c1c(=Cc2[n-]c(=O)n(C)c2[O-])cc(C)n1-c1cccc(C(=O)[NH+]2CCN(C(C)=O)CC2)c1 (nonaromatic ring conformer: 153.07261955633388 kcal/mol)

> <smiles>
C=c1c(=Cc2[nH]c(=O)n(C)c2O)cc(C)n1-c1cccc(C(=O)N2CCN(C(C)=O)CC2)c1

> <score_type>
oracle

> <origin>
adg

> <m_score__min__energy>
-14.039999999999999

> <m_primary>
energy

> <minimizedAffinity>
-8.09535

> <minimizedRMSD>
0.70150

> <CNNscore>
0.6317059994

> <CNNaffinity>
7.2208361626

> <CNN_VS>
4.5614457130

> <CNNaffinity_variance>
0.0435513966

$$$$
57:0


 32 35  0  0  0  0  0  0  0  0999 V2000
   57.1533   30.5347   53.2351 C   0  0  0  0  0  0  0  0  0  0  0  0
   57.0408   31.7568   52.5537 C   0  0  0  0  0  0  0  0  0  0  0  0
   57.7481   31.9715   51.3695 C   0  0  0  0  0  0  0  0  0  0  0  0
   58.5693   30.9708   50.8365 C   0  0  0  0  0  0  0  0  0  0  0  0
   58.6687   29.7379   51.5097 C   0  0  0  0  0  0  0  0  0  0  0  0
   57.9691   29.5255   52.6997 C   0  0  0  0  0  0  0  0  0  0  0  0
   56.3655   30.2861   54.4926 C   0  0  0  0  0  0  0  0  0  0  0  0
   52.0164   27.9648   53.9089 C   0  0  0  0  0  0  0  0  0  0  0  0
   53.2993   28.2741   54.1172 C   0  0  0  0  0  0  0  0  0  0  0  0
   54.1412   27.4274   54.6618 O   0  0  0  0  0  0  0  0  0  0  0  0
   55.3204   27.9932   54.7510 C   0  0  0  0  0  0  0  0  0  0  0  0
   55.2759   29.2754   54.2324 C   0  0  0  0  0  0  0  0  0  0  0  0
   53.9537   29.4699   53.8064 C   0  0  0  0  0  0  0  0  0  0  0  0
   53.3849   30.5578   53.2416 C   0  0  0  0  0  0  0  0  0  0  0  0
   52.5955   30.5534   52.0014 C   0  0  0  0  0  0  0  0  0  0  0  0
   52.8361   29.7300   50.9678 N   0  0  0  0  0  0  0  0  0  0  0  0
   51.9886   30.1722   50.0123 C   0  0  0  0  0  0  0  0  0  0  0  0
   51.9025   29.6322   48.8801 O   0  0  0  0  0  0  0  0  0  0  0  0
   51.2482   31.2455   50.3621 N   0  0  0  0  0  0  0  0  0  0  0  0
   51.6582   31.4870   51.6174 C   0  0  0  0  0  0  0  0  0  0  0  0
   51.2009   32.5467   52.3876 O   0  0  0  0  0  0  0  0  0  0  0  0
   59.2481   31.2438   49.6369 O   0  0  0  0  0  0  0  0  0  0  0  0
   60.2854   30.4457   49.0655 C   0  0  0  0  0  0  0  0  0  0  0  0
   61.6768   30.8950   49.5547 C   0  0  0  0  0  0  0  0  0  0  0  0
   61.7768   32.3704   49.7212 N   0  0  0  0  0  0  0  0  0  0  0  0
   62.1595   32.7340   51.1032 C   0  0  0  0  0  0  0  0  0  0  0  0
   63.5999   32.2922   51.4531 C   0  0  0  0  0  0  0  0  0  0  0  0
   64.4358   32.1131   50.2475 N   0  0  0  0  0  0  0  0  0  0  0  0
   65.8617   32.1248   50.6040 C   0  0  0  0  0  0  0  0  0  0  0  0
   64.1424   33.1511   49.2490 C   0  0  0  0  0  0  0  0  0  0  0  0
   62.6976   32.9952   48.7303 C   0  0  0  0  0  0  0  0  0  0  0  0
   60.8457   32.7457   49.5403 H   0  0  0  0  0  0  0  0  0  0  0  0
  8  9  2  0
  9 10  1  0
 10 11  1  0
 11 12  2  0
 12  7  1  0
  7  1  1  0
  1  2  2  0
  2  3  1  0
  3  4  2  0
  4 22  1  0
 22 23  1  0
 23 24  1  0
 24 25  1  0
 25 26  1  0
 26 27  1  0
 27 28  1  0
 28 29  1  0
 28 30  1  0
 30 31  1  0
  4  5  1  0
  5  6  2  0
 12 13  1  0
 13 14  2  0
 14 15  1  0
 15 16  1  0
 16 17  1  0
 17 18  2  0
 17 19  1  0
 19 20  1  0
 20 21  1  0
 13  9  1  0
 20 15  2  0
  6  1  1  0
 31 25  1  0
 25 32  1  0
M  CHG 1  16  -1
M  CHG 1  19  -1
M  CHG 1  21  -1
M  CHG 1  25   1
M  END
> <UniqueID>
57

> <SMILES>
C=c1occ(Cc2ccc(OCC[NH+]3CCN(C)CC3)cc2)/c1=C\c1[n-]c(=O)[n-]c1[O-]

> <Energy>
139.75724462740553

> <Genealogy>
C=c1occ(Cc2ccc(OCC[NH+]3CCN(C)CC3)cc2)c1=Cc1[n-]c(=O)[n-]c1[O-] (protonated)
C=c1occ(Cc2ccc(OCC[NH+]3CCN(C)CC3)cc2)/c1=C\c1[n-]c(=O)[n-]c1[O-] (cis-trans isomerization)
C=c1occ(Cc2ccc(OCC[NH+]3CCN(C)CC3)cc2)/c1=C\c1[n-]c(=O)[n-]c1[O-] (3D coordinates assigned)
C=c1occ(Cc2ccc(OCC[NH+]3CCN(C)CC3)cc2)/c1=C\c1[n-]c(=O)[n-]c1[O-] (nonaromatic ring conformer: 139.75724462740553 kcal/mol)

> <smiles>
C=c1occ(Cc2ccc(OCCN3CCN(C)CC3)cc2)c1=Cc1[nH]c(=O)[nH]c1O

> <score_type>
oracle

> <origin>
adg

> <m_score__min__energy>
-15.66

> <m_primary>
energy

> <minimizedAffinity>
-5.44078

> <minimizedRMSD>
1.04214

> <CNNscore>
0.0659871995

> <CNNaffinity>
4.6218447685

> <CNN_VS>
0.3049826026

> <CNNaffinity_variance>
0.6897940040

$$$$
66:0


 26 28  0  0  0  0  0  0  0  0999 V2000
   55.8973   30.0339   44.0668 C   0  0  0  0  0  0  0  0  0  0  0  0
   56.9901   29.6846   44.7469 C   0  0  0  0  0  0  0  0  0  0  0  0
   57.1073   28.4794   45.3520 N   0  0  0  0  0  0  0  0  0  0  0  0
   58.3289   28.4986   45.9250 C   0  0  0  0  0  0  0  0  0  0  0  0
   58.8222   27.4537   46.6073 C   0  0  0  0  0  0  0  0  0  0  0  0
   58.9325   29.7118   45.6335 C   0  0  0  0  0  0  0  0  0  0  0  0
   60.1036   30.0612   45.9398 O   0  0  0  0  0  0  0  0  0  0  0  0
   58.0878   30.4658   44.9070 N   0  0  0  0  0  0  0  0  0  0  0  0
   58.4742   26.0471   46.3517 C   0  0  0  0  0  0  0  0  0  0  0  0
   59.3718   25.1192   45.9584 N   0  0  0  0  0  0  0  0  0  0  0  0
   58.6214   24.0130   45.7539 C   0  0  0  0  0  0  0  0  0  0  0  0
   59.1125   22.9138   45.3860 O   0  0  0  0  0  0  0  0  0  0  0  0
   57.3031   24.2042   45.9703 N   0  0  0  0  0  0  0  0  0  0  0  0
   57.2089   25.4935   46.3340 C   0  0  0  0  0  0  0  0  0  0  0  0
   56.0157   26.1529   46.6039 O   0  0  0  0  0  0  0  0  0  0  0  0
   56.2206   23.2251   45.8525 C   0  0  0  0  0  0  0  0  0  0  0  0
   55.1528   23.6943   44.8431 C   0  0  0  0  0  0  0  0  0  0  0  0
   55.4238   23.1375   43.4393 C   0  0  0  0  0  0  0  0  0  0  0  0
   53.7572   23.2749   45.3176 C   0  0  0  0  0  0  0  0  0  0  0  0
   58.3666   31.7902   44.3373 C   0  0  0  0  0  0  0  0  0  0  0  0
   58.7219   32.7673   45.4265 C   0  0  0  0  0  0  0  0  0  0  0  0
   59.3236   33.9948   45.1043 C   0  0  0  0  0  0  0  0  0  0  0  0
   59.6425   34.9110   46.1105 C   0  0  0  0  0  0  0  0  0  0  0  0
   59.3640   34.6090   47.4459 C   0  0  0  0  0  0  0  0  0  0  0  0
   58.7691   33.3896   47.7773 C   0  0  0  0  0  0  0  0  0  0  0  0
   58.4479   32.4698   46.7730 C   0  0  0  0  0  0  0  0  0  0  0  0
  1  2  2  0
  2  3  1  0
  3  4  1  0
  4  5  2  0
  5  9  1  0
  9 10  1  0
 10 11  1  0
 11 12  2  0
 11 13  1  0
 13 16  1  0
 16 17  1  0
 17 18  1  0
 17 19  1  0
 13 14  1  0
 14 15  1  0
  4  6  1  0
  6  7  2  0
  6  8  1  0
  8 20  1  0
 20 21  1  0
 21 22  2  0
 22 23  1  0
 23 24  2  0
 24 25  1  0
 25 26  2  0
  8  2  1  0
 26 21  1  0
 14  9  2  0
M  CHG 1   3  -1
M  CHG 1  10  -1
M  CHG 1  15  -1
M  END
> <UniqueID>
66

> <SMILES>
C=c1[n-]/c(=C/c2[n-]c(=O)n(CC(C)C)c2[O-])c(=O)n1Cc1ccccc1

> <Energy>
111.56071326090988

> <Genealogy>
C=c1[n-]c(=Cc2[n-]c(=O)n(CC(C)C)c2[O-])c(=O)n1Cc1ccccc1 (protonated)
C=c1[n-]/c(=C/c2[n-]c(=O)n(CC(C)C)c2[O-])c(=O)n1Cc1ccccc1 (cis-trans isomerization)
C=c1[n-]/c(=C/c2[n-]c(=O)n(CC(C)C)c2[O-])c(=O)n1Cc1ccccc1 (3D coordinates assigned)
C=c1[n-]/c(=C/c2[n-]c(=O)n(CC(C)C)c2[O-])c(=O)n1Cc1ccccc1 (optimized conformer: 111.56071326090988 kcal/mol)

> <smiles>
C=c1[nH]c(=Cc2[nH]c(=O)n(CC(C)C)c2O)c(=O)n1Cc1ccccc1

> <score_type>
oracle

> <origin>
adg

> <m_score__min__energy>
-15.279999999999999

> <m_primary>
energy

> <minimizedAffinity>
-7.45152

> <minimizedRMSD>
1.10671

> <CNNscore>
0.4095341861

> <CNNaffinity>
6.1092066765

> <CNN_VS>
2.5019290447

> <CNNaffinity_variance>
0.1200013980

$$$$
71:0


 25 27  0  0  0  0  0  0  0  0999 V2000
   60.3232   29.3455   48.1294 C   0  0  0  0  0  0  0  0  0  0  0  0
   59.3436   29.1286   47.2462 C   0  0  0  0  0  0  0  0  0  0  0  0
   58.9207   27.8881   46.9127 N   0  0  0  0  0  0  0  0  0  0  0  0
   57.9818   28.0711   45.9586 C   0  0  0  0  0  0  0  0  0  0  0  0
   57.3154   27.0978   45.3178 C   0  0  0  0  0  0  0  0  0  0  0  0
   57.8588   29.4263   45.7322 C   0  0  0  0  0  0  0  0  0  0  0  0
   57.0722   29.9731   44.9123 O   0  0  0  0  0  0  0  0  0  0  0  0
   58.7016   30.0986   46.5425 N   0  0  0  0  0  0  0  0  0  0  0  0
   59.2316   27.0320   47.2865 H   0  0  0  0  0  0  0  0  0  0  0  0
   57.1818   25.7206   45.8395 C   0  0  0  0  0  0  0  0  0  0  0  0
   55.9163   25.2167   46.1779 C   0  0  0  0  0  0  0  0  0  0  0  0
   54.7754   25.9893   45.9965 O   0  0  0  0  0  0  0  0  0  0  0  0
   55.7976   23.9597   46.6796 N   0  0  0  0  0  0  0  0  0  0  0  0
   56.8879   23.1765   46.8758 C   0  0  0  0  0  0  0  0  0  0  0  0
   56.7525   22.0144   47.3364 O   0  0  0  0  0  0  0  0  0  0  0  0
   58.1258   23.6490   46.5822 N   0  0  0  0  0  0  0  0  0  0  0  0
   58.3002   24.8997   46.0801 C   0  0  0  0  0  0  0  0  0  0  0  0
   59.4673   25.3175   45.8546 O   0  0  0  0  0  0  0  0  0  0  0  0
   58.8520   31.5273   46.6260 C   0  0  0  0  0  0  0  0  0  0  0  0
   59.1130   32.1402   47.8619 C   0  0  0  0  0  0  0  0  0  0  0  0
   59.2756   33.5263   47.9425 C   0  0  0  0  0  0  0  0  0  0  0  0
   59.1859   34.3104   46.7887 C   0  0  0  0  0  0  0  0  0  0  0  0
   59.3456   35.6544   46.8663 F   0  0  0  0  0  0  0  0  0  0  0  0
   58.9369   33.7067   45.5517 C   0  0  0  0  0  0  0  0  0  0  0  0
   58.7736   32.3198   45.4689 C   0  0  0  0  0  0  0  0  0  0  0  0
  1  2  2  0
  2  3  1  0
  3  4  1  0
  4  5  2  0
  5 10  1  0
 10 11  2  0
 11 12  1  0
 11 13  1  0
 13 14  1  0
 14 15  2  0
 14 16  1  0
 16 17  1  0
 17 18  2  0
  4  6  1  0
  6  7  2  0
  6  8  1  0
  8 19  1  0
 19 20  2  0
 20 21  1  0
 21 22  2  0
 22 23  1  0
 22 24  1  0
 24 25  2  0
  8  2  1  0
 25 19  1  0
 17 10  1  0
  3  9  1  0
M  CHG 1  12  -1
M  CHG 1  13  -1
M  CHG 1  16  -1
M  END
> <UniqueID>
71

> <SMILES>
C=c1[nH]c(=Cc2c([O-])[n-]c(=O)[n-]c2=O)c(=O)n1-c1ccc(F)cc1

> <Energy>
85.0580459808835

> <Genealogy>
C=c1[nH]c(=Cc2c([O-])[n-]c(=O)[n-]c2=O)c(=O)n1-c1ccc(F)cc1 (protonated)
C=c1[nH]c(=Cc2c([O-])[n-]c(=O)[n-]c2=O)c(=O)n1-c1ccc(F)cc1 (3D coordinates assigned)
C=c1[nH]c(=Cc2c([O-])[n-]c(=O)[n-]c2=O)c(=O)n1-c1ccc(F)cc1 (optimized conformer: 85.0580459808835 kcal/mol)

> <smiles>
C=c1[nH]c(=Cc2c(O)[nH]c(=O)[nH]c2=O)c(=O)n1-c1ccc(F)cc1

> <score_type>
oracle

> <origin>
adg

> <m_score__min__energy>
-15.25

> <m_primary>
energy

> <minimizedAffinity>
-7.88088

> <minimizedRMSD>
0.94872

> <CNNscore>
0.3305983841

> <CNNaffinity>
6.3073649406

> <CNN_VS>
2.0852046013

> <CNNaffinity_variance>
0.3285876811

$$$$
72:0


 35 38  0  0  0  0  0  0  0  0999 V2000
   58.6985   30.2953   53.8659 C   0  0  0  0  0  0  0  0  0  0  0  0
   57.9707   31.0070   54.6130 O   0  0  0  0  0  0  0  0  0  0  0  0
   60.0962   30.6318   53.6983 N   0  0  0  0  0  0  0  0  0  0  0  0
   60.6420   31.8515   54.3170 C   0  0  0  0  0  0  0  0  0  0  0  0
   61.5682   32.5837   53.3346 C   0  0  0  0  0  0  0  0  0  0  0  0
   62.4586   31.6488   52.6296 N   0  0  0  0  0  0  0  0  0  0  0  0
   62.4484   30.2284   52.9906 C   0  0  0  0  0  0  0  0  0  0  0  0
   61.0074   29.7112   52.9925 C   0  0  0  0  0  0  0  0  0  0  0  0
   63.2594   32.1184   51.5287 C   0  0  0  0  0  0  0  0  0  0  0  0
   62.7333   32.1431   50.2275 C   0  0  0  0  0  0  0  0  0  0  0  0
   63.5176   32.6097   49.1618 C   0  0  0  0  0  0  0  0  0  0  0  0
   64.8401   32.9986   49.4170 C   0  0  0  0  0  0  0  0  0  0  0  0
   65.3351   32.9553   50.7209 C   0  0  0  0  0  0  0  0  0  0  0  0
   64.5459   32.5246   51.7407 N   0  0  0  0  0  0  0  0  0  0  0  0
   64.9109   32.5052   52.6548 H   0  0  0  0  0  0  0  0  0  0  0  0
   62.9773   32.6002   47.7552 C   0  0  0  0  0  0  0  0  0  0  0  0
   63.4873   33.6586   47.0233 F   0  0  0  0  0  0  0  0  0  0  0  0
   61.5964   32.7069   47.7633 F   0  0  0  0  0  0  0  0  0  0  0  0
   63.3318   31.4149   47.1381 F   0  0  0  0  0  0  0  0  0  0  0  0
   58.0553   29.1627   53.0974 C   0  0  0  0  0  0  0  0  0  0  0  0
   53.5712   27.8671   54.5000 C   0  0  0  0  0  0  0  0  0  0  0  0
   54.5641   28.5710   53.9354 C   0  0  0  0  0  0  0  0  0  0  0  0
   54.4375   29.7949   53.2708 C   0  0  0  0  0  0  0  0  0  0  0  0
   53.3147   30.5213   53.1043 C   0  0  0  0  0  0  0  0  0  0  0  0
   55.7160   30.1547   52.8697 C   0  0  0  0  0  0  0  0  0  0  0  0
   56.5606   29.1430   53.2838 C   0  0  0  0  0  0  0  0  0  0  0  0
   55.8627   28.1798   53.9316 N   0  0  0  0  0  0  0  0  0  0  0  0
   56.4085   26.9687   54.5552 C   0  0  0  0  0  0  0  0  0  0  0  0
   52.5420   30.5688   51.8495 C   0  0  0  0  0  0  0  0  0  0  0  0
   52.7450   29.7226   50.8266 N   0  0  0  0  0  0  0  0  0  0  0  0
   51.8998   30.1710   49.8727 C   0  0  0  0  0  0  0  0  0  0  0  0
   51.7885   29.6173   48.7487 O   0  0  0  0  0  0  0  0  0  0  0  0
   51.1882   31.2661   50.2159 N   0  0  0  0  0  0  0  0  0  0  0  0
   51.6149   31.5152   51.4657 C   0  0  0  0  0  0  0  0  0  0  0  0
   51.2006   32.6084   52.2141 O   0  0  0  0  0  0  0  0  0  0  0  0
 21 22  2  0
 22 23  1  0
 23 24  2  0
 24 29  1  0
 29 30  1  0
 30 31  1  0
 31 32  2  0
 31 33  1  0
 33 34  1  0
 34 35  1  0
 23 25  1  0
 25 26  2  0
 26 20  1  0
 20  1  1  0
  1  2  2  0
  1  3  1  0
  3  4  1  0
  4  5  1  0
  5  6  1  0
  6  9  1  0
  9 10  2  0
 10 11  1  0
 11 16  1  0
 16 17  1  0
 16 18  1  0
 16 19  1  0
 11 12  2  0
 12 13  1  0
 13 14  2  0
  6  7  1  0
  7  8  1  0
 26 27  1  0
 27 28  1  0
 27 22  1  0
 34 29  2  0
  8  3  1  0
 14  9  1  0
 14 15  1  0
M  CHG 1  14   1
M  CHG 1  30  -1
M  CHG 1  33  -1
M  CHG 1  35  -1
M  END
> <UniqueID>
72

> <SMILES>
C=c1/c(=C/c2[n-]c(=O)[n-]c2[O-])cc(CC(=O)N2CCN(c3cc(C(F)(F)F)cc[nH+]3)CC2)n1C

> <Energy>
128.49363751884573

> <Genealogy>
C=c1c(=Cc2[n-]c(=O)[n-]c2[O-])cc(CC(=O)N2CCN(c3cc(C(F)(F)F)cc[nH+]3)CC2)n1C (protonated)
C=c1/c(=C/c2[n-]c(=O)[n-]c2[O-])cc(CC(=O)N2CCN(c3cc(C(F)(F)F)cc[nH+]3)CC2)n1C (cis-trans isomerization)
C=c1/c(=C/c2[n-]c(=O)[n-]c2[O-])cc(CC(=O)N2CCN(c3cc(C(F)(F)F)cc[nH+]3)CC2)n1C (3D coordinates assigned)
C=c1/c(=C/c2[n-]c(=O)[n-]c2[O-])cc(CC(=O)N2CCN(c3cc(C(F)(F)F)cc[nH+]3)CC2)n1C (nonaromatic ring conformer: 128.49363751884573 kcal/mol)

> <smiles>
C=c1c(=Cc2[nH]c(=O)[nH]c2O)cc(CC(=O)N2CCN(c3cc(C(F)(F)F)ccn3)CC2)n1C

> <score_type>
oracle

> <origin>
adg

> <m_score__min__energy>
-16.93

> <m_primary>
energy

> <minimizedAffinity>
-6.44929

> <minimizedRMSD>
0.87063

> <CNNscore>
0.1045405865

> <CNNaffinity>
4.7683510780

> <CNN_VS>
0.4984862208

> <CNNaffinity_variance>
0.9898292422

$$$$
5:0


 26 28  0  0  0  0  0  0  0  0999 V2000
   60.6757   29.6103   46.8126 C   0  0  0  0  0  0  0  0  0  0  0  0
   59.5172   29.2694   46.2429 C   0  0  0  0  0  0  0  0  0  0  0  0
   59.1782   27.9864   45.9805 N   0  0  0  0  0  0  0  0  0  0  0  0
   57.9695   28.0414   45.3824 C   0  0  0  0  0  0  0  0  0  0  0  0
   57.3086   26.9520   44.9545 C   0  0  0  0  0  0  0  0  0  0  0  0
   57.6037   29.3742   45.2853 C   0  0  0  0  0  0  0  0  0  0  0  0
   56.5485   29.8291   44.7674 O   0  0  0  0  0  0  0  0  0  0  0  0
   58.5692   30.1456   45.8264 N   0  0  0  0  0  0  0  0  0  0  0  0
   59.7044   27.1795   46.1837 H   0  0  0  0  0  0  0  0  0  0  0  0
   57.1583   25.7124   45.7462 C   0  0  0  0  0  0  0  0  0  0  0  0
   55.9110   25.3156   46.2535 C   0  0  0  0  0  0  0  0  0  0  0  0
   54.7700   26.0719   46.0071 O   0  0  0  0  0  0  0  0  0  0  0  0
   55.8118   24.1875   47.0036 N   0  0  0  0  0  0  0  0  0  0  0  0
   56.9075   23.4397   47.2915 C   0  0  0  0  0  0  0  0  0  0  0  0
   56.7923   22.3963   47.9853 O   0  0  0  0  0  0  0  0  0  0  0  0
   58.1294   23.8179   46.8345 N   0  0  0  0  0  0  0  0  0  0  0  0
   58.2805   24.9365   46.0790 C   0  0  0  0  0  0  0  0  0  0  0  0
   59.4297   25.2627   45.6769 O   0  0  0  0  0  0  0  0  0  0  0  0
   58.5593   31.5788   45.9428 C   0  0  0  0  0  0  0  0  0  0  0  0
   58.4858   32.3706   44.7863 C   0  0  0  0  0  0  0  0  0  0  0  0
   58.4949   33.7638   44.8825 C   0  0  0  0  0  0  0  0  0  0  0  0
   58.5822   34.3763   46.1321 C   0  0  0  0  0  0  0  0  0  0  0  0
   58.6571   33.6007   47.2911 C   0  0  0  0  0  0  0  0  0  0  0  0
   58.6452   32.1928   47.2083 C   0  0  0  0  0  0  0  0  0  0  0  0
   58.7017   31.3799   48.3521 O   0  0  0  0  0  0  0  0  0  0  0  0
   59.1101   31.8251   49.6403 C   0  0  0  0  0  0  0  0  0  0  0  0
  1  2  2  0
  2  3  1  0
  3  4  1  0
  4  5  2  0
  5 10  1  0
 10 11  2  0
 11 12  1  0
 11 13  1  0
 13 14  1  0
 14 15  2  0
 14 16  1  0
 16 17  1  0
 17 18  2  0
  4  6  1  0
  6  7  2  0
  6  8  1  0
  8 19  1  0
 19 20  2  0
 20 21  1  0
 21 22  2  0
 22 23  1  0
 23 24  2  0
 24 25  1  0
 25 26  1  0
  8  2  1  0
 24 19  1  0
 17 10  1  0
  3  9  1  0
M  CHG 1  12  -1
M  CHG 1  13  -1
M  CHG 1  16  -1
M  END
> <UniqueID>
6

> <SMILES>
C=c1[nH]c(=Cc2c([O-])[n-]c(=O)[n-]c2=O)c(=O)n1-c1ccccc1OC

> <Energy>
89.96103257576064

> <Genealogy>
C=c1[nH]c(=Cc2c([O-])[n-]c(=O)[n-]c2=O)c(=O)n1-c1ccccc1OC (protonated)
C=c1[nH]c(=Cc2c([O-])[n-]c(=O)[n-]c2=O)c(=O)n1-c1ccccc1OC (3D coordinates assigned)
C=c1[nH]c(=Cc2c([O-])[n-]c(=O)[n-]c2=O)c(=O)n1-c1ccccc1OC (optimized conformer: 89.96103257576064 kcal/mol)

> <smiles>
C=c1[nH]c(=Cc2c(O)[nH]c(=O)[nH]c2=O)c(=O)n1-c1ccccc1OC

> <score_type>
oracle

> <origin>
adg

> <m_score__min__energy>
-15.359999999999999

> <m_primary>
energy

> <minimizedAffinity>
-7.08736

> <minimizedRMSD>
0.66277

> <CNNscore>
0.1882048398

> <CNNaffinity>
5.9101958275

> <CNN_VS>
1.1123274565

> <CNNaffinity_variance>
0.0020739068

$$$$
7:0


 32 35  0  0  0  0  0  0  0  0999 V2000
   57.0758   30.4719   44.2654 C   0  0  0  0  0  0  0  0  0  0  0  0
   56.8497   30.5564   43.0278 O   0  0  0  0  0  0  0  0  0  0  0  0
   58.6321   27.2978   47.4343 C   0  0  0  0  0  0  0  0  0  0  0  0
   58.1575   27.7589   46.2758 C   0  0  0  0  0  0  0  0  0  0  0  0
   57.9085   29.0318   46.0696 O   0  0  0  0  0  0  0  0  0  0  0  0
   57.4557   29.1793   44.8456 C   0  0  0  0  0  0  0  0  0  0  0  0
   57.3980   27.9566   44.2041 C   0  0  0  0  0  0  0  0  0  0  0  0
   57.8467   27.0255   45.1287 C   0  0  0  0  0  0  0  0  0  0  0  0
   57.9965   25.7009   44.9388 C   0  0  0  0  0  0  0  0  0  0  0  0
   57.2800   24.6719   45.7142 C   0  0  0  0  0  0  0  0  0  0  0  0
   57.8557   23.5319   46.1350 N   0  0  0  0  0  0  0  0  0  0  0  0
   56.8851   22.9397   46.8609 C   0  0  0  0  0  0  0  0  0  0  0  0
   57.0417   21.8212   47.4190 O   0  0  0  0  0  0  0  0  0  0  0  0
   55.7351   23.6414   46.9521 N   0  0  0  0  0  0  0  0  0  0  0  0
   56.0049   24.7421   46.2325 C   0  0  0  0  0  0  0  0  0  0  0  0
   55.1203   25.8046   46.0934 O   0  0  0  0  0  0  0  0  0  0  0  0
   56.9664   31.6275   45.1017 N   0  0  0  0  0  0  0  0  0  0  0  0
   57.7014   32.8660   44.8702 C   0  0  0  0  0  0  0  0  0  0  0  0
   58.9162   32.9235   45.7569 C   0  0  0  0  0  0  0  0  0  0  0  0
   59.3483   31.7827   46.4522 C   0  0  0  0  0  0  0  0  0  0  0  0
   60.4625   31.8500   47.2929 C   0  0  0  0  0  0  0  0  0  0  0  0
   61.1528   33.0592   47.4551 C   0  0  0  0  0  0  0  0  0  0  0  0
   60.7237   34.1989   46.7631 C   0  0  0  0  0  0  0  0  0  0  0  0
   59.6091   34.1331   45.9205 C   0  0  0  0  0  0  0  0  0  0  0  0
   62.5607   33.1235   48.5111 S   0  0  0  0  0  0  0  0  0  0  0  0
   62.9673   31.7303   48.9129 O   0  0  0  0  0  0  0  0  0  0  0  0
   63.6952   33.7532   47.7518 O   0  0  0  0  0  0  0  0  0  0  0  0
   62.1934   34.0829   49.9289 N   0  0  0  0  0  0  0  0  0  0  0  0
   60.9254   33.6525   50.5282 C   0  0  0  0  0  0  0  0  0  0  0  0
   61.2343   32.6259   51.6069 C   0  0  0  0  0  0  0  0  0  0  0  0
   62.7187   32.7648   51.8885 C   0  0  0  0  0  0  0  0  0  0  0  0
   63.2071   33.8722   50.9662 C   0  0  0  0  0  0  0  0  0  0  0  0
  3  4  2  0
  4  5  1  0
  5  6  1  0
  6  1  1  0
  1  2  2  0
  1 17  1  0
 17 18  1  0
 18 19  1  0
 19 20  2  0
 20 21  1  0
 21 22  2  0
 22 25  1  0
 25 26  2  0
 25 27  2  0
 25 28  1  0
 28 29  1  0
 29 30  1  0
 30 31  1  0
 31 32  1  0
 22 23  1  0
 23 24  2  0
  6  7  2  0
  7  8  1  0
  8  9  2  0
  9 10  1  0
 10 11  1  0
 11 12  1  0
 12 13  2  0
 12 14  1  0
 14 15  1  0
 15 16  1  0
  8  4  1  0
 15 10  2  0
 24 19  1  0
 32 28  1  0
M  CHG 1  11  -1
M  CHG 1  14  -1
M  CHG 1  16  -1
M  CHG 1  17  -1
M  END
> <UniqueID>
8

> <SMILES>
C=c1oc(C(=O)[N-]Cc2ccc(S(=O)(=O)N3CCCC3)cc2)c/c1=C\c1[n-]c(=O)[n-]c1[O-]

> <Energy>
114.17800292144526

> <Genealogy>
C=c1oc(C(=O)[N-]Cc2ccc(S(=O)(=O)N3CCCC3)cc2)cc1=Cc1[n-]c(=O)[n-]c1[O-] (protonated)
C=c1oc(C(=O)[N-]Cc2ccc(S(=O)(=O)N3CCCC3)cc2)c/c1=C\c1[n-]c(=O)[n-]c1[O-] (cis-trans isomerization)
C=c1oc(C(=O)[N-]Cc2ccc(S(=O)(=O)N3CCCC3)cc2)c/c1=C\c1[n-]c(=O)[n-]c1[O-] (3D coordinates assigned)
C=c1oc(C(=O)[N-]Cc2ccc(S(=O)(=O)N3CCCC3)cc2)c/c1=C\c1[n-]c(=O)[n-]c1[O-] (nonaromatic ring conformer: 114.17800292144526 kcal/mol)

> <smiles>
C=c1oc(C(=O)NCc2ccc(S(=O)(=O)N3CCCC3)cc2)cc1=Cc1[nH]c(=O)[nH]c1O

> <score_type>
oracle

> <origin>
adg

> <m_score__min__energy>
-20.170000000000002

> <m_primary>
energy

> <minimizedAffinity>
-8.96956

> <minimizedRMSD>
1.30152

> <CNNscore>
0.2452996820

> <CNNaffinity>
6.7530732155

> <CNN_VS>
1.6565266848

> <CNNaffinity_variance>
0.0371957123

$$$$
14:0


 35 38  0  0  0  0  0  0  0  0999 V2000
   57.2606   30.6069   44.8804 C   0  0  0  0  0  0  0  0  0  0  0  0
   56.2794   29.8230   44.8057 O   0  0  0  0  0  0  0  0  0  0  0  0
   58.6544   30.0904   44.6717 C   0  0  0  0  0  0  0  0  0  0  0  0
   57.8141   27.3070   43.9725 C   0  0  0  0  0  0  0  0  0  0  0  0
   58.4761   27.5940   45.1037 C   0  0  0  0  0  0  0  0  0  0  0  0
   59.0001   26.6784   46.0319 C   0  0  0  0  0  0  0  0  0  0  0  0
   58.8554   25.3442   46.1414 C   0  0  0  0  0  0  0  0  0  0  0  0
   59.7773   27.4147   46.9071 C   0  0  0  0  0  0  0  0  0  0  0  0
   59.6688   28.7355   46.5275 C   0  0  0  0  0  0  0  0  0  0  0  0
   60.3765   29.8710   47.2037 C   0  0  0  0  0  0  0  0  0  0  0  0
   58.8684   28.8537   45.4415 N   0  0  0  0  0  0  0  0  0  0  0  0
   57.7641   24.5489   45.5664 C   0  0  0  0  0  0  0  0  0  0  0  0
   57.9409   23.3249   44.4175 S   0  0  0  0  0  0  0  0  0  0  0  0
   56.2804   23.1706   44.2086 C   0  0  0  0  0  0  0  0  0  0  0  0
   55.7380   22.3444   43.4310 O   0  0  0  0  0  0  0  0  0  0  0  0
   55.5779   24.0437   44.9605 N   0  0  0  0  0  0  0  0  0  0  0  0
   56.4071   24.8241   45.7042 C   0  0  0  0  0  0  0  0  0  0  0  0
   55.9223   25.8229   46.5425 O   0  0  0  0  0  0  0  0  0  0  0  0
   54.9999   25.9749   46.6054 H   0  0  0  0  0  0  0  0  0  0  0  0
   57.0522   31.9762   45.2314 N   0  0  0  0  0  0  0  0  0  0  0  0
   58.0820   32.8184   45.7643 C   0  0  0  0  0  0  0  0  0  0  0  0
   58.7192   33.7935   44.9774 C   0  0  0  0  0  0  0  0  0  0  0  0
   59.7667   34.5485   45.5077 C   0  0  0  0  0  0  0  0  0  0  0  0
   60.1868   34.3403   46.8228 C   0  0  0  0  0  0  0  0  0  0  0  0
   59.5497   33.3796   47.6204 C   0  0  0  0  0  0  0  0  0  0  0  0
   58.4936   32.6254   47.0885 C   0  0  0  0  0  0  0  0  0  0  0  0
   60.1194   33.0613   49.2557 S   0  0  0  0  0  0  0  0  0  0  0  0
   60.0299   34.3289   50.0594 O   0  0  0  0  0  0  0  0  0  0  0  0
   61.5574   32.6206   49.2143 O   0  0  0  0  0  0  0  0  0  0  0  0
   59.1261   31.8277   49.9907 N   0  0  0  0  0  0  0  0  0  0  0  0
   59.9741   30.7334   50.5002 C   0  0  0  0  0  0  0  0  0  0  0  0
   59.1812   29.8169   51.4545 C   0  0  0  0  0  0  0  0  0  0  0  0
   57.7912   30.0146   51.2970 O   0  0  0  0  0  0  0  0  0  0  0  0
   57.4412   31.3215   51.7213 C   0  0  0  0  0  0  0  0  0  0  0  0
   58.3301   32.4092   51.0793 C   0  0  0  0  0  0  0  0  0  0  0  0
  4  5  2  0
  5  6  1  0
  6  7  2  0
  7 12  1  0
 12 13  1  0
 13 14  1  0
 14 15  2  0
 14 16  1  0
 16 17  1  0
 17 18  1  0
  6  8  1  0
  8  9  2  0
  9 10  1  0
  9 11  1  0
 11  3  1  0
  3  1  1  0
  1  2  2  0
  1 20  1  0
 20 21  1  0
 21 22  2  0
 22 23  1  0
 23 24  2  0
 24 25  1  0
 25 27  1  0
 27 28  2  0
 27 29  2  0
 27 30  1  0
 30 31  1  0
 31 32  1  0
 32 33  1  0
 33 34  1  0
 34 35  1  0
 25 26  2  0
 11  5  1  0
 26 21  1  0
 17 12  2  0
 35 30  1  0
 18 19  1  0
M  CHG 1  16  -1
M  CHG 1  20  -1
M  END
> <UniqueID>
13

> <SMILES>
C=c1c(=Cc2sc(=O)[n-]c2O)cc(C)n1CC(=O)[N-]c1cccc(S(=O)(=O)N2CCOCC2)c1

> <Energy>
138.42412925006766

> <Genealogy>
C=c1c(=Cc2sc(=O)[n-]c2O)cc(C)n1CC(=O)[N-]c1cccc(S(=O)(=O)N2CCOCC2)c1 (protonated)
C=c1c(=Cc2sc(=O)[n-]c2O)cc(C)n1CC(=O)[N-]c1cccc(S(=O)(=O)N2CCOCC2)c1 (3D coordinates assigned)
C=c1c(=Cc2sc(=O)[n-]c2O)cc(C)n1CC(=O)[N-]c1cccc(S(=O)(=O)N2CCOCC2)c1 (nonaromatic ring conformer: 138.42412925006766 kcal/mol)

> <smiles>
C=c1c(=Cc2sc(=O)[nH]c2O)cc(C)n1CC(=O)Nc1cccc(S(=O)(=O)N2CCOCC2)c1

> <score_type>
oracle

> <origin>
adg

> <m_score__min__energy>
-15.23

> <m_primary>
energy

> <minimizedAffinity>
-9.41851

> <minimizedRMSD>
0.82316

> <CNNscore>
0.8579316735

> <CNNaffinity>
7.7263145447

> <CNN_VS>
6.6286501884

> <CNNaffinity_variance>
0.0113304853

$$$$
15:0


 32 35  0  0  0  0  0  0  0  0999 V2000
   58.4031   29.0337   53.2176 C   0  0  0  0  0  0  0  0  0  0  0  0
   59.1965   28.2980   53.8676 O   0  0  0  0  0  0  0  0  0  0  0  0
   58.9361   29.9924   52.2872 N   0  0  0  0  0  0  0  0  0  0  0  0
   58.5810   31.4089   52.4233 C   0  0  0  0  0  0  0  0  0  0  0  0
   58.5313   32.0792   51.0483 C   0  0  0  0  0  0  0  0  0  0  0  0
   59.7316   31.7421   50.2695 N   0  0  0  0  0  0  0  0  0  0  0  0
   60.3493   32.7085   49.3936 C   0  0  0  0  0  0  0  0  0  0  0  0
   61.5689   32.5813   49.0946 O   0  0  0  0  0  0  0  0  0  0  0  0
   60.0989   30.3246   50.1528 C   0  0  0  0  0  0  0  0  0  0  0  0
   60.1517   29.6699   51.5339 C   0  0  0  0  0  0  0  0  0  0  0  0
   52.9005   28.1716   53.7893 C   0  0  0  0  0  0  0  0  0  0  0  0
   54.1844   28.5545   53.7722 C   0  0  0  0  0  0  0  0  0  0  0  0
   55.0854   27.6926   54.3186 N   0  0  0  0  0  0  0  0  0  0  0  0
   56.4245   27.8426   54.1850 C   0  0  0  0  0  0  0  0  0  0  0  0
   56.9416   28.8846   53.4114 C   0  0  0  0  0  0  0  0  0  0  0  0
   56.0492   29.8176   52.8691 C   0  0  0  0  0  0  0  0  0  0  0  0
   54.6607   29.7244   53.1015 C   0  0  0  0  0  0  0  0  0  0  0  0
   53.8933   30.7670   52.6898 C   0  0  0  0  0  0  0  0  0  0  0  0
   52.9649   30.7614   51.5415 C   0  0  0  0  0  0  0  0  0  0  0  0
   52.9984   29.8766   50.5274 N   0  0  0  0  0  0  0  0  0  0  0  0
   51.9049   30.1946   49.8005 C   0  0  0  0  0  0  0  0  0  0  0  0
   51.5959   29.5880   48.7422 O   0  0  0  0  0  0  0  0  0  0  0  0
   51.1652   31.2069   50.3023 N   0  0  0  0  0  0  0  0  0  0  0  0
   51.8447   31.5450   51.4096 C   0  0  0  0  0  0  0  0  0  0  0  0
   51.4441   32.5458   52.2862 O   0  0  0  0  0  0  0  0  0  0  0  0
   59.5850   33.9003   48.8745 C   0  0  0  0  0  0  0  0  0  0  0  0
   59.1950   33.7197   47.4309 C   0  0  0  0  0  0  0  0  0  0  0  0
   58.4132   32.6197   47.0372 C   0  0  0  0  0  0  0  0  0  0  0  0
   58.0318   32.4707   45.6991 C   0  0  0  0  0  0  0  0  0  0  0  0
   58.4198   33.4199   44.7502 C   0  0  0  0  0  0  0  0  0  0  0  0
   59.1869   34.5215   45.1366 C   0  0  0  0  0  0  0  0  0  0  0  0
   59.5705   34.6766   46.4727 C   0  0  0  0  0  0  0  0  0  0  0  0
 11 12  2  0
 12 13  1  0
 13 14  2  0
 14 15  1  0
 15  1  1  0
  1  2  2  0
  1  3  1  0
  3  4  1  0
  4  5  1  0
  5  6  1  0
  6  7  1  0
  7  8  2  0
  7 26  1  0
 26 27  1  0
 27 28  2  0
 28 29  1  0
 29 30  2  0
 30 31  1  0
 31 32  2  0
  6  9  1  0
  9 10  1  0
 15 16  2  0
 16 17  1  0
 17 18  2  0
 18 19  1  0
 19 20  1  0
 20 21  1  0
 21 22  2  0
 21 23  1  0
 23 24  1  0
 24 25  1  0
 17 12  1  0
 24 19  2  0
 10  3  1  0
 32 27  1  0
M  CHG 1  20  -1
M  CHG 1  23  -1
M  CHG 1  25  -1
M  END
> <UniqueID>
14

> <SMILES>
C=c1ncc(C(=O)N2CCN(C(=O)Cc3ccccc3)CC2)cc1=Cc1[n-]c(=O)[n-]c1[O-]

> <Energy>
109.35276775889743

> <Genealogy>
C=c1ncc(C(=O)N2CCN(C(=O)Cc3ccccc3)CC2)cc1=Cc1[n-]c(=O)[n-]c1[O-] (protonated)
C=c1ncc(C(=O)N2CCN(C(=O)Cc3ccccc3)CC2)cc1=Cc1[n-]c(=O)[n-]c1[O-] (3D coordinates assigned)
C=c1ncc(C(=O)N2CCN(C(=O)Cc3ccccc3)CC2)cc1=Cc1[n-]c(=O)[n-]c1[O-] (nonaromatic ring conformer: 109.35276775889743 kcal/mol)

> <smiles>
C=c1ncc(C(=O)N2CCN(C(=O)Cc3ccccc3)CC2)cc1=Cc1[nH]c(=O)[nH]c1O

> <score_type>
oracle

> <origin>
adg

> <m_score__min__energy>
-18.68

> <m_primary>
energy

> <minimizedAffinity>
-7.57932

> <minimizedRMSD>
0.90691

> <CNNscore>
0.1279527098

> <CNNaffinity>
5.5305056572

> <CNN_VS>
0.7076432109

> <CNNaffinity_variance>
0.3177835345

$$$$
49:0


 32 35  0  0  0  0  0  0  0  0999 V2000
   59.0394   29.8688   48.7573 C   0  0  0  0  0  0  0  0  0  0  0  0
   57.7259   29.1355   44.1249 C   0  0  0  0  0  0  0  0  0  0  0  0
   58.2003   28.8696   45.3533 C   0  0  0  0  0  0  0  0  0  0  0  0
   58.3656   27.6049   45.9419 C   0  0  0  0  0  0  0  0  0  0  0  0
   58.2751   26.3649   45.4200 C   0  0  0  0  0  0  0  0  0  0  0  0
   58.6663   27.8349   47.2730 C   0  0  0  0  0  0  0  0  0  0  0  0
   58.7456   29.2040   47.4396 C   0  0  0  0  0  0  0  0  0  0  0  0
   58.4628   29.8359   46.2731 N   0  0  0  0  0  0  0  0  0  0  0  0
   58.3430   31.2852   46.0638 C   0  0  0  0  0  0  0  0  0  0  0  0
   57.5435   25.2354   46.0140 C   0  0  0  0  0  0  0  0  0  0  0  0
   58.0857   24.0210   46.2185 N   0  0  0  0  0  0  0  0  0  0  0  0
   57.0375   23.2769   46.6394 C   0  0  0  0  0  0  0  0  0  0  0  0
   57.1507   22.0596   46.9476 O   0  0  0  0  0  0  0  0  0  0  0  0
   55.8581   23.9339   46.6883 N   0  0  0  0  0  0  0  0  0  0  0  0
   56.1917   25.1676   46.2746 C   0  0  0  0  0  0  0  0  0  0  0  0
   55.2731   26.1989   46.1031 O   0  0  0  0  0  0  0  0  0  0  0  0
   60.4633   30.3449   48.8258 C   0  0  0  0  0  0  0  0  0  0  0  0
   61.2339   30.1508   47.8441 O   0  0  0  0  0  0  0  0  0  0  0  0
   60.9402   31.0109   50.0069 N   0  0  0  0  0  0  0  0  0  0  0  0
   60.2733   31.3412   50.6514 H   0  0  0  0  0  0  0  0  0  0  0  0
   62.3319   31.2253   50.3069 C   0  0  0  0  0  0  0  0  0  0  0  0
   63.0145   30.4262   51.2430 C   0  0  0  0  0  0  0  0  0  0  0  0
   64.3551   30.6810   51.5458 C   0  0  0  0  0  0  0  0  0  0  0  0
   65.0329   31.7491   50.9351 C   0  0  0  0  0  0  0  0  0  0  0  0
   64.3482   32.5541   50.0103 C   0  0  0  0  0  0  0  0  0  0  0  0
   63.0076   32.2973   49.7063 C   0  0  0  0  0  0  0  0  0  0  0  0
   66.4151   32.0074   51.2515 N   0  0  0  0  0  0  0  0  0  0  0  0
   67.0659   31.2527   52.3311 C   0  0  0  0  0  0  0  0  0  0  0  0
   68.4316   31.8585   52.6570 C   0  0  0  0  0  0  0  0  0  0  0  0
   68.3408   33.2672   52.6029 O   0  0  0  0  0  0  0  0  0  0  0  0
   68.2540   33.6971   51.2543 C   0  0  0  0  0  0  0  0  0  0  0  0
   67.2076   32.9222   50.4167 C   0  0  0  0  0  0  0  0  0  0  0  0
  2  3  2  0
  3  4  1  0
  4  5  2  0
  5 10  1  0
 10 11  1  0
 11 12  1  0
 12 13  2  0
 12 14  1  0
 14 15  1  0
 15 16  1  0
  4  6  1  0
  6  7  2  0
  7  1  1  0
  1 17  1  0
 17 18  2  0
 17 19  1  0
 19 21  1  0
 21 22  2  0
 22 23  1  0
 23 24  2  0
 24 27  1  0
 27 28  1  0
 28 29  1  0
 29 30  1  0
 30 31  1  0
 31 32  1  0
 24 25  1  0
 25 26  2  0
  7  8  1  0
  8  9  1  0
  8  3  1  0
 15 10  2  0
 26 21  1  0
 32 27  1  0
 19 20  1  0
M  CHG 1  11  -1
M  CHG 1  14  -1
M  CHG 1  16  -1
M  END
> <UniqueID>
44

> <SMILES>
C=c1/c(=C\c2[n-]c(=O)[n-]c2[O-])cc(CC(=O)Nc2ccc(N3CCOCC3)cc2)n1C

> <Energy>
139.86784763159542

> <Genealogy>
C=c1c(=Cc2[n-]c(=O)[n-]c2[O-])cc(CC(=O)Nc2ccc(N3CCOCC3)cc2)n1C (protonated)
C=c1/c(=C\c2[n-]c(=O)[n-]c2[O-])cc(CC(=O)Nc2ccc(N3CCOCC3)cc2)n1C (cis-trans isomerization)
C=c1/c(=C\c2[n-]c(=O)[n-]c2[O-])cc(CC(=O)Nc2ccc(N3CCOCC3)cc2)n1C (3D coordinates assigned)
C=c1/c(=C\c2[n-]c(=O)[n-]c2[O-])cc(CC(=O)Nc2ccc(N3CCOCC3)cc2)n1C (nonaromatic ring conformer: 139.86784763159542 kcal/mol)

> <smiles>
C=c1c(=Cc2[nH]c(=O)[nH]c2O)cc(CC(=O)Nc2ccc(N3CCOCC3)cc2)n1C

> <score_type>
oracle

> <origin>
adg

> <m_score__min__energy>
-17.41

> <m_primary>
energy

> <minimizedAffinity>
-7.54592

> <minimizedRMSD>
1.48583

> <CNNscore>
0.1519374847

> <CNNaffinity>
5.7929058075

> <CNN_VS>
0.8801595569

> <CNNaffinity_variance>
0.1688062549

$$$$
54:0


 24 26  0  0  0  0  0  0  0  0999 V2000
   57.1222   27.6813   54.0033 C   0  0  0  0  0  0  0  0  0  0  0  0
   56.4926   28.7891   53.6057 C   0  0  0  0  0  0  0  0  0  0  0  0
   55.1493   28.9230   53.6863 N   0  0  0  0  0  0  0  0  0  0  0  0
   54.8897   30.1456   53.1729 C   0  0  0  0  0  0  0  0  0  0  0  0
   53.6368   30.6219   53.0707 C   0  0  0  0  0  0  0  0  0  0  0  0
   56.0903   30.7149   52.7742 C   0  0  0  0  0  0  0  0  0  0  0  0
   56.2468   31.8130   52.1773 O   0  0  0  0  0  0  0  0  0  0  0  0
   57.1002   29.8744   53.0641 N   0  0  0  0  0  0  0  0  0  0  0  0
   52.7805   30.5674   51.8699 C   0  0  0  0  0  0  0  0  0  0  0  0
   52.9445   29.7304   50.8299 N   0  0  0  0  0  0  0  0  0  0  0  0
   52.0001   30.1332   49.9508 C   0  0  0  0  0  0  0  0  0  0  0  0
   51.8297   29.5722   48.8364 O   0  0  0  0  0  0  0  0  0  0  0  0
   51.2609   31.1868   50.3557 N   0  0  0  0  0  0  0  0  0  0  0  0
   51.7766   31.4555   51.5671 C   0  0  0  0  0  0  0  0  0  0  0  0
   51.3382   32.4951   52.3775 O   0  0  0  0  0  0  0  0  0  0  0  0
   58.5213   30.0739   52.7517 C   0  0  0  0  0  0  0  0  0  0  0  0
   58.7363   30.3016   51.2744 C   0  0  0  0  0  0  0  0  0  0  0  0
   58.2944   29.4506   50.4537 O   0  0  0  0  0  0  0  0  0  0  0  0
   59.4499   31.4619   50.7872 N   0  0  0  0  0  0  0  0  0  0  0  0
   59.9144   32.5042   51.7154 C   0  0  0  0  0  0  0  0  0  0  0  0
   61.0623   33.3094   51.0962 C   0  0  0  0  0  0  0  0  0  0  0  0
   60.7209   33.7614   49.8015 O   0  0  0  0  0  0  0  0  0  0  0  0
   60.5791   32.6507   48.9410 C   0  0  0  0  0  0  0  0  0  0  0  0
   59.3831   31.7907   49.3546 C   0  0  0  0  0  0  0  0  0  0  0  0
  1  2  2  0
  2  3  1  0
  3  4  1  0
  4  5  2  0
  5  9  1  0
  9 10  1  0
 10 11  1  0
 11 12  2  0
 11 13  1  0
 13 14  1  0
 14 15  1  0
  4  6  1  0
  6  7  2  0
  6  8  1  0
  8 16  1  0
 16 17  1  0
 17 18  2  0
 17 19  1  0
 19 20  1  0
 20 21  1  0
 21 22  1  0
 22 23  1  0
 23 24  1  0
  8  2  1  0
 24 19  1  0
 14  9  2  0
M  CHG 1   3  -1
M  CHG 1  10  -1
M  CHG 1  13  -1
M  CHG 1  15  -1
M  END
> <UniqueID>
49

> <SMILES>
C=c1[n-]c(=Cc2[n-]c(=O)[n-]c2[O-])c(=O)n1CC(=O)N1CCOCC1

> <Energy>
108.07003781343631

> <Genealogy>
C=c1[n-]c(=Cc2[n-]c(=O)[n-]c2[O-])c(=O)n1CC(=O)N1CCOCC1 (protonated)
C=c1[n-]c(=Cc2[n-]c(=O)[n-]c2[O-])c(=O)n1CC(=O)N1CCOCC1 (3D coordinates assigned)
C=c1[n-]c(=Cc2[n-]c(=O)[n-]c2[O-])c(=O)n1CC(=O)N1CCOCC1 (nonaromatic ring conformer: 108.07003781343631 kcal/mol)

> <smiles>
C=c1[nH]c(=Cc2[nH]c(=O)[nH]c2O)c(=O)n1CC(=O)N1CCOCC1

> <score_type>
oracle

> <origin>
adg

> <m_score__min__energy>
-16.879999999999999

> <m_primary>
energy

> <minimizedAffinity>
-4.57373

> <minimizedRMSD>
1.62880

> <CNNscore>
0.1412834227

> <CNNaffinity>
4.1135277748

> <CNN_VS>
0.5811733007

> <CNNaffinity_variance>
0.3262976110

$$$$
55:0


 26 28  0  0  0  0  0  0  0  0999 V2000
   54.7998   27.8196   54.0483 C   0  0  0  0  0  0  0  0  0  0  0  0
   55.3322   28.8694   53.4204 C   0  0  0  0  0  0  0  0  0  0  0  0
   56.6300   28.9783   53.2403 O   0  0  0  0  0  0  0  0  0  0  0  0
   56.8930   30.1431   52.6949 C   0  0  0  0  0  0  0  0  0  0  0  0
   55.7180   30.8457   52.4970 C   0  0  0  0  0  0  0  0  0  0  0  0
   54.6975   30.0182   52.9293 C   0  0  0  0  0  0  0  0  0  0  0  0
   53.3935   30.3450   52.8414 C   0  0  0  0  0  0  0  0  0  0  0  0
   52.6475   30.5612   51.5949 C   0  0  0  0  0  0  0  0  0  0  0  0
   52.6814   29.7153   50.5507 N   0  0  0  0  0  0  0  0  0  0  0  0
   51.7609   30.2281   49.7042 C   0  0  0  0  0  0  0  0  0  0  0  0
   51.5108   29.7117   48.5842 O   0  0  0  0  0  0  0  0  0  0  0  0
   51.1228   31.3273   50.1574 N   0  0  0  0  0  0  0  0  0  0  0  0
   51.6846   31.5172   51.3619 C   0  0  0  0  0  0  0  0  0  0  0  0
   51.3061   32.5256   52.2411 O   0  0  0  0  0  0  0  0  0  0  0  0
   58.2595   30.5864   52.3526 C   0  0  0  0  0  0  0  0  0  0  0  0
   59.1583   30.4805   53.2336 O   0  0  0  0  0  0  0  0  0  0  0  0
   58.5884   31.0600   51.0231 N   0  0  0  0  0  0  0  0  0  0  0  0
   59.6254   32.1104   51.0744 C   0  0  0  0  0  0  0  0  0  0  0  0
   59.9308   32.6481   49.6717 C   0  0  0  0  0  0  0  0  0  0  0  0
   60.2295   31.5449   48.7465 N   0  0  0  0  0  0  0  0  0  0  0  0
   61.1106   31.7427   47.6145 C   0  0  0  0  0  0  0  0  0  0  0  0
   61.7753   33.0605   47.3484 C   0  0  0  0  0  0  0  0  0  0  0  0
   61.3509   30.7856   46.8279 O   0  0  0  0  0  0  0  0  0  0  0  0
   59.3321   30.3785   48.7609 C   0  0  0  0  0  0  0  0  0  0  0  0
   59.0482   29.9284   50.1977 C   0  0  0  0  0  0  0  0  0  0  0  0
   58.4840   30.4518   50.2560 H   0  0  0  0  0  0  0  0  0  0  0  0
  1  2  2  0
  2  3  1  0
  3  4  1  0
  4 15  1  0
 15 16  2  0
 15 17  1  0
 17 18  1  0
 18 19  1  0
 19 20  1  0
 20 21  1  0
 21 22  1  0
 21 23  2  0
 20 24  1  0
 24 25  1  0
  4  5  2  0
  5  6  1  0
  6  7  2  0
  7  8  1  0
  8  9  1  0
  9 10  1  0
 10 11  2  0
 10 12  1  0
 12 13  1  0
 13 14  1  0
  6  2  1  0
 13  8  2  0
 25 17  1  0
 17 26  1  0
M  CHG 1   9  -1
M  CHG 1  12  -1
M  CHG 1  14  -1
M  CHG 1  17   1
M  END
> <UniqueID>
50

> <SMILES>
C=c1oc(C(=O)[NH+]2CCN(C(C)=O)CC2)cc1=Cc1[n-]c(=O)[n-]c1[O-]

> <Energy>
112.09730860222923

> <Genealogy>
C=c1oc(C(=O)[NH+]2CCN(C(C)=O)CC2)cc1=Cc1[n-]c(=O)[n-]c1[O-] (protonated)
C=c1oc(C(=O)[NH+]2CCN(C(C)=O)CC2)cc1=Cc1[n-]c(=O)[n-]c1[O-] (3D coordinates assigned)
C=c1oc(C(=O)[NH+]2CCN(C(C)=O)CC2)cc1=Cc1[n-]c(=O)[n-]c1[O-] (nonaromatic ring conformer: 112.09730860222923 kcal/mol)

> <smiles>
C=c1oc(C(=O)N2CCN(C(C)=O)CC2)cc1=Cc1[nH]c(=O)[nH]c1O

> <score_type>
oracle

> <origin>
adg

> <m_score__min__energy>
-15.529999999999999

> <m_primary>
energy

> <minimizedAffinity>
-5.87685

> <minimizedRMSD>
1.05591

> <CNNscore>
0.0573803484

> <CNNaffinity>
4.6337151527

> <CNN_VS>
0.2658841908

> <CNNaffinity_variance>
0.0857134461

$$$$
64:0


 24 26  0  0  0  0  0  0  0  0999 V2000
   59.0405   30.6476   51.9200 N   0  0  0  0  0  0  0  0  0  0  0  0
   59.7660   31.5297   52.6347 C   0  0  0  0  0  0  0  0  0  0  0  0
   59.6597   31.7097   54.0080 O   0  0  0  0  0  0  0  0  0  0  0  0
   60.6132   32.2224   51.7963 C   0  0  0  0  0  0  0  0  0  0  0  0
   60.4151   31.7708   50.5385 N   0  0  0  0  0  0  0  0  0  0  0  0
   59.4492   30.8281   50.6464 C   0  0  0  0  0  0  0  0  0  0  0  0
   58.9595   30.2054   49.6655 O   0  0  0  0  0  0  0  0  0  0  0  0
   61.0855   32.2299   49.3464 C   0  0  0  0  0  0  0  0  0  0  0  0
   62.3028   31.6472   48.9496 C   0  0  0  0  0  0  0  0  0  0  0  0
   62.9530   32.0863   47.7923 C   0  0  0  0  0  0  0  0  0  0  0  0
   62.3928   33.1039   47.0172 C   0  0  0  0  0  0  0  0  0  0  0  0
   61.1803   33.6823   47.3964 C   0  0  0  0  0  0  0  0  0  0  0  0
   60.5262   33.2484   48.5533 C   0  0  0  0  0  0  0  0  0  0  0  0
   57.9789   29.7658   52.4102 C   0  0  0  0  0  0  0  0  0  0  0  0
   56.5396   31.6745   52.4686 O   0  0  0  0  0  0  0  0  0  0  0  0
   56.6303   30.4292   52.2941 C   0  0  0  0  0  0  0  0  0  0  0  0
   55.4252   29.6647   52.1718 N   0  0  0  0  0  0  0  0  0  0  0  0
   54.0986   30.1265   52.4548 C   0  0  0  0  0  0  0  0  0  0  0  0
   53.5633   29.9216   53.7329 C   0  0  0  0  0  0  0  0  0  0  0  0
   52.2841   30.3931   54.0449 C   0  0  0  0  0  0  0  0  0  0  0  0
   51.5416   31.0896   53.0893 C   0  0  0  0  0  0  0  0  0  0  0  0
   52.0815   31.3277   51.8215 C   0  0  0  0  0  0  0  0  0  0  0  0
   51.3531   32.0378   50.8771 O   0  0  0  0  0  0  0  0  0  0  0  0
   53.3608   30.8557   51.5066 C   0  0  0  0  0  0  0  0  0  0  0  0
 15 16  2  0
 16 14  1  0
 14  1  1  0
  1  2  1  0
  2  3  1  0
  2  4  2  0
  4  5  1  0
  5  8  1  0
  8  9  2  0
  9 10  1  0
 10 11  2  0
 11 12  1  0
 12 13  2  0
  5  6  1  0
  6  7  2  0
 16 17  1  0
 17 18  1  0
 18 19  2  0
 19 20  1  0
 20 21  2  0
 21 22  1  0
 22 23  1  0
 22 24  2  0
  6  1  1  0
 24 18  1  0
 13  8  1  0
M  CHG 1   3  -1
M  CHG 1  17  -1
M  CHG 1  23  -1
M  END
> <UniqueID>
57

> <SMILES>
O=C(Cn1c([O-])cn(-c2ccccc2)c1=O)[N-]c1cccc([O-])c1

> <Energy>
82.68133698809325

> <Genealogy>
O=C(Cn1c([O-])cn(-c2ccccc2)c1=O)[N-]c1cccc([O-])c1 (protonated)
O=C(Cn1c([O-])cn(-c2ccccc2)c1=O)[N-]c1cccc([O-])c1 (3D coordinates assigned)
O=C(Cn1c([O-])cn(-c2ccccc2)c1=O)[N-]c1cccc([O-])c1 (optimized conformer: 82.68133698809325 kcal/mol)

> <smiles>
O=C(Cn1c(O)cn(-c2ccccc2)c1=O)Nc1cccc(O)c1

> <score_type>
oracle

> <origin>
adg

> <m_score__min__energy>
-14.029999999999999

> <m_primary>
energy

> <minimizedAffinity>
-6.52209

> <minimizedRMSD>
0.91104

> <CNNscore>
0.2869930863

> <CNNaffinity>
4.8731341362

> <CNN_VS>
1.3985557556

> <CNNaffinity_variance>
0.0378857739

$$$$
74:0


 27 29  0  0  0  0  0  0  0  0999 V2000
   59.3349   33.5296   47.4744 C   0  0  0  0  0  0  0  0  0  0  0  0
   59.6658   34.6801   46.7383 C   0  0  0  0  0  0  0  0  0  0  0  0
   59.2840   34.7704   45.3992 C   0  0  0  0  0  0  0  0  0  0  0  0
   58.5874   33.7205   44.8012 C   0  0  0  0  0  0  0  0  0  0  0  0
   58.2851   32.5798   45.5559 C   0  0  0  0  0  0  0  0  0  0  0  0
   58.6709   32.5119   46.8589 N   0  0  0  0  0  0  0  0  0  0  0  0
   60.7716   30.0364   51.1400 N   0  0  0  0  0  0  0  0  0  0  0  0
   61.0943   30.0295   49.6899 C   0  0  0  0  0  0  0  0  0  0  0  0
   60.1305   30.8723   48.8357 C   0  0  0  0  0  0  0  0  0  0  0  0
   59.7386   32.0974   49.5477 N   0  0  0  0  0  0  0  0  0  0  0  0
   59.7350   33.3772   48.8874 C   0  0  0  0  0  0  0  0  0  0  0  0
   60.0859   34.4057   49.5273 O   0  0  0  0  0  0  0  0  0  0  0  0
   59.3483   32.0225   50.9620 C   0  0  0  0  0  0  0  0  0  0  0  0
   59.4448   30.5859   51.4759 C   0  0  0  0  0  0  0  0  0  0  0  0
   61.0619   27.5408   50.8773 C   0  0  0  0  0  0  0  0  0  0  0  0
   61.0718   28.7559   51.8159 C   0  0  0  0  0  0  0  0  0  0  0  0
   57.5604   31.4234   44.9328 C   0  0  0  0  0  0  0  0  0  0  0  0
   57.9036   30.1796   45.6164 N   0  0  0  0  0  0  0  0  0  0  0  0
   57.8000   28.8982   44.9739 C   0  0  0  0  0  0  0  0  0  0  0  0
   57.4372   28.8296   43.7701 O   0  0  0  0  0  0  0  0  0  0  0  0
   58.2165   30.2201   46.5490 H   0  0  0  0  0  0  0  0  0  0  0  0
   58.1165   27.6501   45.6923 C   0  0  0  0  0  0  0  0  0  0  0  0
   59.3831   27.1497   45.9555 C   0  0  0  0  0  0  0  0  0  0  0  0
   59.1987   25.9737   46.6469 C   0  0  0  0  0  0  0  0  0  0  0  0
   57.8363   25.8244   46.7689 C   0  0  0  0  0  0  0  0  0  0  0  0
   57.2135   24.7595   47.4050 O   0  0  0  0  0  0  0  0  0  0  0  0
   57.1629   26.8367   46.1927 N   0  0  0  0  0  0  0  0  0  0  0  0
 15 16  1  0
 16  7  1  0
  7  8  1  0
  8  9  1  0
  9 10  1  0
 10 11  1  0
 11 12  2  0
 11  1  1  0
  1  2  2  0
  2  3  1  0
  3  4  2  0
  4  5  1  0
  5 17  1  0
 17 18  1  0
 18 19  1  0
 19 20  2  0
 19 22  1  0
 22 23  2  0
 23 24  1  0
 24 25  2  0
 25 26  1  0
 25 27  1  0
  5  6  2  0
 10 13  1  0
 13 14  1  0
 14  7  1  0
  6  1  1  0
 27 22  1  0
 18 21  1  0
M  CHG 1  26  -1
M  CHG 1  27  -1
M  END
> <UniqueID>
67

> <SMILES>
CCN1CCN(C(=O)c2cccc(CNC(=O)c3ccc([O-])[n-]3)n2)CC1

> <Energy>
81.3266839884157

> <Genealogy>
CCN1CCN(C(=O)c2cccc(CNC(=O)c3ccc([O-])[n-]3)n2)CC1 (protonated)
CCN1CCN(C(=O)c2cccc(CNC(=O)c3ccc([O-])[n-]3)n2)CC1 (3D coordinates assigned)
CCN1CCN(C(=O)c2cccc(CNC(=O)c3ccc([O-])[n-]3)n2)CC1 (nonaromatic ring conformer: 81.3266839884157 kcal/mol)

> <smiles>
CCN1CCN(C(=O)c2cccc(CNC(=O)c3ccc(O)[nH]3)n2)CC1

> <score_type>
oracle

> <origin>
adg

> <m_score__min__energy>
-14.51

> <m_primary>
energy

> <minimizedAffinity>
-7.45996

> <minimizedRMSD>
1.61448

> <CNNscore>
0.7182675600

> <CNNaffinity>
6.7764067650

> <CNN_VS>
4.8672733307

> <CNNaffinity_variance>
0.1662411541

$$$$
1:0


 32 35  0  0  0  0  0  0  0  0999 V2000
   59.1709   28.7160   47.0311 C   0  0  0  0  0  0  0  0  0  0  0  0
   59.5143   29.8161   46.2324 C   0  0  0  0  0  0  0  0  0  0  0  0
   59.6982   31.0759   46.8086 C   0  0  0  0  0  0  0  0  0  0  0  0
   59.5344   31.2487   48.1907 C   0  0  0  0  0  0  0  0  0  0  0  0
   59.1958   30.1510   48.9904 C   0  0  0  0  0  0  0  0  0  0  0  0
   59.0120   28.8912   48.4142 C   0  0  0  0  0  0  0  0  0  0  0  0
   56.9145   27.7797   45.3499 C   0  0  0  0  0  0  0  0  0  0  0  0
   57.9176   26.9754   45.7386 C   0  0  0  0  0  0  0  0  0  0  0  0
   58.1320   25.6445   45.3474 C   0  0  0  0  0  0  0  0  0  0  0  0
   57.3306   24.7693   44.7085 C   0  0  0  0  0  0  0  0  0  0  0  0
   59.4115   25.3175   45.7686 C   0  0  0  0  0  0  0  0  0  0  0  0
   59.8946   26.4101   46.4604 C   0  0  0  0  0  0  0  0  0  0  0  0
   61.2447   26.4737   47.1076 C   0  0  0  0  0  0  0  0  0  0  0  0
   58.9910   27.4152   46.4431 N   0  0  0  0  0  0  0  0  0  0  0  0
   56.2514   23.9843   45.3307 C   0  0  0  0  0  0  0  0  0  0  0  0
   56.1778   22.6400   45.3231 N   0  0  0  0  0  0  0  0  0  0  0  0
   54.9700   22.3924   45.8758 C   0  0  0  0  0  0  0  0  0  0  0  0
   54.5362   21.2256   46.0600 O   0  0  0  0  0  0  0  0  0  0  0  0
   54.2602   23.4924   46.2072 N   0  0  0  0  0  0  0  0  0  0  0  0
   55.0805   24.4899   45.8411 C   0  0  0  0  0  0  0  0  0  0  0  0
   54.7653   25.8369   45.9669 O   0  0  0  0  0  0  0  0  0  0  0  0
   59.7932   32.8255   48.9345 S   0  0  0  0  0  0  0  0  0  0  0  0
   59.4140   33.9159   47.9690 O   0  0  0  0  0  0  0  0  0  0  0  0
   58.9170   32.9373   50.1506 O   0  0  0  0  0  0  0  0  0  0  0  0
   61.4697   32.9878   49.3940 N   0  0  0  0  0  0  0  0  0  0  0  0
   62.3197   32.9895   48.1933 C   0  0  0  0  0  0  0  0  0  0  0  0
   63.7859   33.2817   48.5727 C   0  0  0  0  0  0  0  0  0  0  0  0
   64.2079   32.6471   49.8458 N   0  0  0  0  0  0  0  0  0  0  0  0
   64.3853   33.6225   50.9349 C   0  0  0  0  0  0  0  0  0  0  0  0
   63.3446   31.5205   50.2492 C   0  0  0  0  0  0  0  0  0  0  0  0
   61.8527   31.9151   50.3428 C   0  0  0  0  0  0  0  0  0  0  0  0
   61.6052   33.8778   49.8736 H   0  0  0  0  0  0  0  0  0  0  0  0
  7  8  2  0
  8  9  1  0
  9 10  2  0
 10 15  1  0
 15 16  1  0
 16 17  1  0
 17 18  2  0
 17 19  1  0
 19 20  1  0
 20 21  1  0
  9 11  1  0
 11 12  2  0
 12 13  1  0
 12 14  1  0
 14  1  1  0
  1  2  2  0
  2  3  1  0
  3  4  2  0
  4 22  1  0
 22 23  2  0
 22 24  2  0
 22 25  1  0
 25 26  1  0
 26 27  1  0
 27 28  1  0
 28 29  1  0
 28 30  1  0
 30 31  1  0
  4  5  1  0
  5  6  2  0
 14  8  1  0
  6  1  1  0
 20 15  2  0
 31 25  1  0
 25 32  1  0
M  CHG 1  16  -1
M  CHG 1  19  -1
M  CHG 1  21  -1
M  CHG 1  25   1
M  END
> <UniqueID>
2

> <SMILES>
C=c1c(=Cc2[n-]c(=O)[n-]c2[O-])cc(C)n1-c1ccc(S(=O)(=O)[NH+]2CCN(C)CC2)cc1

> <Energy>
141.01012295141123

> <Genealogy>
C=c1c(=Cc2[n-]c(=O)[n-]c2[O-])cc(C)n1-c1ccc(S(=O)(=O)[NH+]2CCN(C)CC2)cc1 (protonated)
C=c1c(=Cc2[n-]c(=O)[n-]c2[O-])cc(C)n1-c1ccc(S(=O)(=O)[NH+]2CCN(C)CC2)cc1 (3D coordinates assigned)
C=c1c(=Cc2[n-]c(=O)[n-]c2[O-])cc(C)n1-c1ccc(S(=O)(=O)[NH+]2CCN(C)CC2)cc1 (nonaromatic ring conformer: 141.01012295141123 kcal/mol)

> <smiles>
C=c1c(=Cc2[nH]c(=O)[nH]c2O)cc(C)n1-c1ccc(S(=O)(=O)N2CCN(C)CC2)cc1

> <score_type>
oracle

> <origin>
adg

> <m_score__min__energy>
-14.94

> <m_primary>
energy

> <minimizedAffinity>
-6.87740

> <minimizedRMSD>
0.82918

> <CNNscore>
0.0713612810

> <CNNaffinity>
6.0647273064

> <CNN_VS>
0.4327867031

> <CNNaffinity_variance>
0.1355421990

$$$$
3:0


 29 32  0  0  0  0  0  0  0  0999 V2000
   56.2809   28.9140   44.6813 O   0  0  0  0  0  0  0  0  0  0  0  0
   57.2186   29.8017   45.2039 C   0  0  0  0  0  0  0  0  0  0  0  0
   57.0910   31.1451   45.0938 N   0  0  0  0  0  0  0  0  0  0  0  0
   58.1824   31.6337   45.7134 C   0  0  0  0  0  0  0  0  0  0  0  0
   58.5240   32.9777   45.8470 C   0  0  0  0  0  0  0  0  0  0  0  0
   59.7325   33.2923   46.4934 C   0  0  0  0  0  0  0  0  0  0  0  0
   60.5819   32.2650   46.9677 C   0  0  0  0  0  0  0  0  0  0  0  0
   60.2114   30.9150   46.8129 C   0  0  0  0  0  0  0  0  0  0  0  0
   58.9876   30.6344   46.2024 C   0  0  0  0  0  0  0  0  0  0  0  0
   58.3696   29.4396   45.8982 C   0  0  0  0  0  0  0  0  0  0  0  0
   55.5302   29.2403   44.2252 H   0  0  0  0  0  0  0  0  0  0  0  0
   58.8319   28.0660   46.1764 C   0  0  0  0  0  0  0  0  0  0  0  0
   58.0776   26.9823   45.9645 C   0  0  0  0  0  0  0  0  0  0  0  0
   56.9383   26.7466   46.6559 N   0  0  0  0  0  0  0  0  0  0  0  0
   56.5160   25.5727   46.1576 C   0  0  0  0  0  0  0  0  0  0  0  0
   55.4666   24.9896   46.5371 O   0  0  0  0  0  0  0  0  0  0  0  0
   57.3923   25.1212   45.2020 C   0  0  0  0  0  0  0  0  0  0  0  0
   57.3017   23.9954   44.4972 C   0  0  0  0  0  0  0  0  0  0  0  0
   58.3927   26.0083   45.0742 N   0  0  0  0  0  0  0  0  0  0  0  0
   62.0871   32.6780   47.7864 S   0  0  0  0  0  0  0  0  0  0  0  0
   63.1161   31.6121   47.5245 O   0  0  0  0  0  0  0  0  0  0  0  0
   62.5971   33.9811   47.2369 O   0  0  0  0  0  0  0  0  0  0  0  0
   61.8097   32.8338   49.5043 N   0  0  0  0  0  0  0  0  0  0  0  0
   60.5440   33.5552   49.7503 C   0  0  0  0  0  0  0  0  0  0  0  0
   60.0157   33.2646   51.1592 C   0  0  0  0  0  0  0  0  0  0  0  0
   59.6652   31.8333   51.3122 N   0  0  0  0  0  0  0  0  0  0  0  0
   59.6905   31.4469   52.7308 C   0  0  0  0  0  0  0  0  0  0  0  0
   60.4991   30.9243   50.4871 C   0  0  0  0  0  0  0  0  0  0  0  0
   61.8871   31.5158   50.1785 C   0  0  0  0  0  0  0  0  0  0  0  0
  1  2  1  0
  2  3  1  0
  3  4  1  0
  4  5  2  0
  5  6  1  0
  6  7  2  0
  7 20  1  0
 20 21  2  0
 20 22  2  0
 20 23  1  0
 23 24  1  0
 24 25  1  0
 25 26  1  0
 26 27  1  0
 26 28  1  0
 28 29  1  0
  7  8  1  0
  8  9  2  0
  9 10  1  0
 10 12  1  0
 12 13  2  0
 13 14  1  0
 14 15  1  0
 15 16  2  0
 15 17  1  0
 17 18  2  0
 17 19  1  0
 10  2  2  0
 19 13  1  0
  9  4  1  0
 29 23  1  0
  1 11  1  0
M  CHG 1   3  -1
M  CHG 1  14  -1
M  CHG 1  19  -1
M  END
> <UniqueID>
4

> <SMILES>
C=c1[n-]/c(=C\c2c(O)[n-]c3ccc(S(=O)(=O)N4CCN(C)CC4)cc23)[n-]c1=O

> <Energy>
123.88539242784991

> <Genealogy>
C=c1[n-]c(=Cc2c(O)[n-]c3ccc(S(=O)(=O)N4CCN(C)CC4)cc23)[n-]c1=O (protonated)
C=c1[n-]/c(=C\c2c(O)[n-]c3ccc(S(=O)(=O)N4CCN(C)CC4)cc23)[n-]c1=O (cis-trans isomerization)
C=c1[n-]/c(=C\c2c(O)[n-]c3ccc(S(=O)(=O)N4CCN(C)CC4)cc23)[n-]c1=O (3D coordinates assigned)
C=c1[n-]/c(=C\c2c(O)[n-]c3ccc(S(=O)(=O)N4CCN(C)CC4)cc23)[n-]c1=O (nonaromatic ring conformer: 123.88539242784991 kcal/mol)

> <smiles>
C=c1[nH]c(=Cc2c(O)[nH]c3ccc(S(=O)(=O)N4CCN(C)CC4)cc23)[nH]c1=O

> <score_type>
oracle

> <origin>
adg

> <m_score__min__energy>
-14.619999999999999

> <m_primary>
energy

> <minimizedAffinity>
-9.14046

> <minimizedRMSD>
1.14828

> <CNNscore>
0.5533108115

> <CNNaffinity>
6.6721405983

> <CNN_VS>
3.6917674541

> <CNNaffinity_variance>
0.2399851829

$$$$
17:0


 25 27  0  0  0  0  0  0  0  0999 V2000
   60.6549   29.5837   46.6240 C   0  0  0  0  0  0  0  0  0  0  0  0
   59.5179   29.1860   46.0463 C   0  0  0  0  0  0  0  0  0  0  0  0
   58.4961   30.0090   45.6959 N   0  0  0  0  0  0  0  0  0  0  0  0
   57.5484   29.1841   45.2053 C   0  0  0  0  0  0  0  0  0  0  0  0
   56.4344   29.5666   44.7565 O   0  0  0  0  0  0  0  0  0  0  0  0
   58.0013   27.8809   45.2524 C   0  0  0  0  0  0  0  0  0  0  0  0
   57.3176   26.7910   44.8689 C   0  0  0  0  0  0  0  0  0  0  0  0
   59.2421   27.8864   45.7862 N   0  0  0  0  0  0  0  0  0  0  0  0
   59.8234   27.1092   45.9514 H   0  0  0  0  0  0  0  0  0  0  0  0
   57.1271   25.6042   45.7309 C   0  0  0  0  0  0  0  0  0  0  0  0
   55.8659   25.2648   46.2512 C   0  0  0  0  0  0  0  0  0  0  0  0
   54.7465   26.0389   45.9687 O   0  0  0  0  0  0  0  0  0  0  0  0
   55.7363   24.1803   47.0590 N   0  0  0  0  0  0  0  0  0  0  0  0
   56.8101   23.4207   47.3923 C   0  0  0  0  0  0  0  0  0  0  0  0
   56.6644   22.4190   48.1385 O   0  0  0  0  0  0  0  0  0  0  0  0
   58.0433   23.7456   46.9262 N   0  0  0  0  0  0  0  0  0  0  0  0
   58.2268   24.8193   46.1146 C   0  0  0  0  0  0  0  0  0  0  0  0
   59.3865   25.0922   45.7045 O   0  0  0  0  0  0  0  0  0  0  0  0
   58.4226   31.4429   45.7852 C   0  0  0  0  0  0  0  0  0  0  0  0
   58.5393   32.0785   47.0313 C   0  0  0  0  0  0  0  0  0  0  0  0
   58.4844   33.4729   47.1206 C   0  0  0  0  0  0  0  0  0  0  0  0
   58.3174   34.2419   45.9649 C   0  0  0  0  0  0  0  0  0  0  0  0
   58.2030   33.6175   44.7205 C   0  0  0  0  0  0  0  0  0  0  0  0
   58.2585   32.2218   44.6263 C   0  0  0  0  0  0  0  0  0  0  0  0
   58.1283   31.6304   43.4118 F   0  0  0  0  0  0  0  0  0  0  0  0
  1  2  2  0
  2  3  1  0
  3 19  1  0
 19 20  2  0
 20 21  1  0
 21 22  2  0
 22 23  1  0
 23 24  2  0
 24 25  1  0
  3  4  1  0
  4  5  2  0
  4  6  1  0
  6  7  2  0
  7 10  1  0
 10 11  2  0
 11 12  1  0
 11 13  1  0
 13 14  1  0
 14 15  2  0
 14 16  1  0
 16 17  1  0
 17 18  2  0
  6  8  1  0
  8  2  1  0
 24 19  1  0
 17 10  1  0
  8  9  1  0
M  CHG 1  12  -1
M  CHG 1  13  -1
M  CHG 1  16  -1
M  END
> <UniqueID>
16

> <SMILES>
C=c1[nH]/c(=C\c2c([O-])[n-]c(=O)[n-]c2=O)c(=O)n1-c1ccccc1F

> <Energy>
85.50039099588645

> <Genealogy>
C=c1[nH]c(=Cc2c([O-])[n-]c(=O)[n-]c2=O)c(=O)n1-c1ccccc1F (protonated)
C=c1[nH]/c(=C\c2c([O-])[n-]c(=O)[n-]c2=O)c(=O)n1-c1ccccc1F (cis-trans isomerization)
C=c1[nH]/c(=C\c2c([O-])[n-]c(=O)[n-]c2=O)c(=O)n1-c1ccccc1F (3D coordinates assigned)
C=c1[nH]/c(=C\c2c([O-])[n-]c(=O)[n-]c2=O)c(=O)n1-c1ccccc1F (optimized conformer: 85.50039099588645 kcal/mol)

> <smiles>
C=c1[nH]c(=Cc2c(O)[nH]c(=O)[nH]c2=O)c(=O)n1-c1ccccc1F

> <score_type>
oracle

> <origin>
adg

> <m_score__min__energy>
-15.35

> <m_primary>
energy

> <minimizedAffinity>
-7.51364

> <minimizedRMSD>
0.73141

> <CNNscore>
0.2347838879

> <CNNaffinity>
6.0247931480

> <CNN_VS>
1.4145243168

> <CNNaffinity_variance>
0.0066221463

$$$$
19:0


 34 37  0  0  0  0  0  0  0  0999 V2000
   57.7490   29.5568   44.8483 C   0  0  0  0  0  0  0  0  0  0  0  0
   56.4728   29.2364   44.3966 C   0  0  0  0  0  0  0  0  0  0  0  0
   55.7340   29.9996   43.5003 O   0  0  0  0  0  0  0  0  0  0  0  0
   56.0311   28.0556   44.8953 N   0  0  0  0  0  0  0  0  0  0  0  0
   57.0572   27.6197   45.6516 C   0  0  0  0  0  0  0  0  0  0  0  0
   57.1083   26.4344   46.3817 C   0  0  0  0  0  0  0  0  0  0  0  0
   58.2807   26.1507   47.1065 C   0  0  0  0  0  0  0  0  0  0  0  0
   59.3801   27.0463   47.0815 C   0  0  0  0  0  0  0  0  0  0  0  0
   59.2905   28.2460   46.3418 C   0  0  0  0  0  0  0  0  0  0  0  0
   58.1175   28.4914   45.6323 C   0  0  0  0  0  0  0  0  0  0  0  0
   57.9541   35.2128   45.2565 C   0  0  0  0  0  0  0  0  0  0  0  0
   58.3797   33.9589   45.4319 C   0  0  0  0  0  0  0  0  0  0  0  0
   58.0913   32.9762   44.5443 N   0  0  0  0  0  0  0  0  0  0  0  0
   58.6643   31.8682   45.0542 C   0  0  0  0  0  0  0  0  0  0  0  0
   58.6116   30.6794   44.4361 C   0  0  0  0  0  0  0  0  0  0  0  0
   59.3076   32.2092   46.2308 C   0  0  0  0  0  0  0  0  0  0  0  0
   60.0043   31.4457   46.9534 O   0  0  0  0  0  0  0  0  0  0  0  0
   59.1266   33.5206   46.4805 N   0  0  0  0  0  0  0  0  0  0  0  0
   59.6443   34.2598   47.6445 C   0  0  0  0  0  0  0  0  0  0  0  0
   61.1750   34.3751   47.5801 C   0  0  0  0  0  0  0  0  0  0  0  0
   61.8653   33.7779   48.8300 C   0  0  0  0  0  0  0  0  0  0  0  0
   63.2239   33.2443   48.5798 N   0  0  0  0  0  0  0  0  0  0  0  0
   63.9775   33.0167   49.8236 C   0  0  0  0  0  0  0  0  0  0  0  0
   63.2228   32.0441   47.7272 C   0  0  0  0  0  0  0  0  0  0  0  0
   60.5789   26.7728   47.8990 C   0  0  0  0  0  0  0  0  0  0  0  0
   61.5495   26.1679   47.3731 O   0  0  0  0  0  0  0  0  0  0  0  0
   60.6448   27.1139   49.2908 N   0  0  0  0  0  0  0  0  0  0  0  0
   60.4740   28.4583   49.8358 C   0  0  0  0  0  0  0  0  0  0  0  0
   61.4711   28.6966   50.9328 C   0  0  0  0  0  0  0  0  0  0  0  0
   62.1243   29.9353   51.0382 C   0  0  0  0  0  0  0  0  0  0  0  0
   63.0165   30.1544   52.0920 C   0  0  0  0  0  0  0  0  0  0  0  0
   63.2432   29.1427   53.0313 C   0  0  0  0  0  0  0  0  0  0  0  0
   62.5679   27.9240   52.9001 C   0  0  0  0  0  0  0  0  0  0  0  0
   61.7024   27.7301   51.8666 N   0  0  0  0  0  0  0  0  0  0  0  0
 11 12  2  0
 12 13  1  0
 13 14  1  0
 14 15  2  0
 15  1  1  0
  1  2  2  0
  2  3  1  0
  2  4  1  0
  4  5  1  0
  5  6  2  0
  6  7  1  0
  7  8  2  0
  8 25  1  0
 25 26  2  0
 25 27  1  0
 27 28  1  0
 28 29  1  0
 29 30  2  0
 30 31  1  0
 31 32  2  0
 32 33  1  0
 33 34  2  0
  8  9  1  0
  9 10  2  0
 14 16  1  0
 16 17  2  0
 16 18  1  0
 18 19  1  0
 19 20  1  0
 20 21  1  0
 21 22  1  0
 22 23  1  0
 22 24  1  0
 18 12  1  0
 10  1  1  0
 10  5  1  0
 34 29  1  0
M  CHG 1   3  -1
M  CHG 1   4  -1
M  CHG 1  13  -1
M  CHG 1  27  -1
M  END
> <UniqueID>
18

> <SMILES>
C=c1[n-]c(=Cc2c([O-])[n-]c3ccc(C(=O)[N-]Cc4ccccn4)cc23)c(=O)n1CCCN(C)C

> <Energy>
140.10352196211

> <Genealogy>
C=c1[n-]c(=Cc2c([O-])[n-]c3ccc(C(=O)[N-]Cc4ccccn4)cc23)c(=O)n1CCCN(C)C (protonated)
C=c1[n-]c(=Cc2c([O-])[n-]c3ccc(C(=O)[N-]Cc4ccccn4)cc23)c(=O)n1CCCN(C)C (3D coordinates assigned)
C=c1[n-]c(=Cc2c([O-])[n-]c3ccc(C(=O)[N-]Cc4ccccn4)cc23)c(=O)n1CCCN(C)C (optimized conformer: 140.10352196211 kcal/mol)

> <smiles>
C=c1[nH]c(=Cc2c(O)[nH]c3ccc(C(=O)NCc4ccccn4)cc23)c(=O)n1CCCN(C)C

> <score_type>
oracle

> <origin>
adg

> <m_score__min__energy>
-16.02

> <m_primary>
energy

> <minimizedAffinity>
-3.65144

> <minimizedRMSD>
1.92452

> <CNNscore>
0.0310127959

> <CNNaffinity>
5.4086589813

> <CNN_VS>
0.1677376330

> <CNNaffinity_variance>
0.8093813062

$$$$
22:0


 37 40  0  0  0  0  0  0  0  0999 V2000
   57.4873   32.2634   43.0776 C   0  0  0  0  0  0  0  0  0  0  0  0
   58.0433   31.9107   44.2539 C   0  0  0  0  0  0  0  0  0  0  0  0
   58.3454   32.9408   45.1527 C   0  0  0  0  0  0  0  0  0  0  0  0
   59.1604   32.7165   46.2637 C   0  0  0  0  0  0  0  0  0  0  0  0
   59.7038   31.4333   46.4433 C   0  0  0  0  0  0  0  0  0  0  0  0
   60.5144   31.2270   47.3907 O   0  0  0  0  0  0  0  0  0  0  0  0
   59.3603   30.3988   45.6051 N   0  0  0  0  0  0  0  0  0  0  0  0
   58.4488   30.5757   44.5746 C   0  0  0  0  0  0  0  0  0  0  0  0
   57.9372   29.4780   43.9353 C   0  0  0  0  0  0  0  0  0  0  0  0
   57.6687   28.1543   44.5475 C   0  0  0  0  0  0  0  0  0  0  0  0
   57.1306   28.0316   45.8411 C   0  0  0  0  0  0  0  0  0  0  0  0
   56.8234   29.1594   46.5951 O   0  0  0  0  0  0  0  0  0  0  0  0
   56.9218   26.8013   46.3748 N   0  0  0  0  0  0  0  0  0  0  0  0
   57.2422   25.6754   45.6889 C   0  0  0  0  0  0  0  0  0  0  0  0
   57.0334   24.5460   46.2008 O   0  0  0  0  0  0  0  0  0  0  0  0
   57.7951   25.7661   44.4522 N   0  0  0  0  0  0  0  0  0  0  0  0
   58.0233   26.9724   43.8726 C   0  0  0  0  0  0  0  0  0  0  0  0
   58.5445   27.0201   42.7257 O   0  0  0  0  0  0  0  0  0  0  0  0
   59.9522   29.1091   45.8740 C   0  0  0  0  0  0  0  0  0  0  0  0
   60.7892   28.5063   44.9243 C   0  0  0  0  0  0  0  0  0  0  0  0
   61.3603   27.2569   45.1837 C   0  0  0  0  0  0  0  0  0  0  0  0
   61.0995   26.6059   46.3943 C   0  0  0  0  0  0  0  0  0  0  0  0
   61.6553   25.3935   46.6445 F   0  0  0  0  0  0  0  0  0  0  0  0
   60.2672   27.2034   47.3445 C   0  0  0  0  0  0  0  0  0  0  0  0
   59.6928   28.4516   47.0876 C   0  0  0  0  0  0  0  0  0  0  0  0
   59.4681   33.8450   47.1871 C   0  0  0  0  0  0  0  0  0  0  0  0
   58.5701   34.6840   47.4758 O   0  0  0  0  0  0  0  0  0  0  0  0
   60.7453   33.9774   47.7468 O   0  0  0  0  0  0  0  0  0  0  0  0
   60.9929   34.0151   49.1515 C   0  0  0  0  0  0  0  0  0  0  0  0
   62.5004   34.1421   49.4480 C   0  0  0  0  0  0  0  0  0  0  0  0
   63.3473   33.2295   48.5233 C   0  0  0  0  0  0  0  0  0  0  0  0
   63.7435   31.9275   49.2325 C   0  0  0  0  0  0  0  0  0  0  0  0
   64.5816   32.1858   50.4333 N   0  0  0  0  0  0  0  0  0  0  0  0
   64.5336   31.0235   51.3376 C   0  0  0  0  0  0  0  0  0  0  0  0
   64.2341   33.4406   51.1595 C   0  0  0  0  0  0  0  0  0  0  0  0
   62.7739   33.8600   50.9429 C   0  0  0  0  0  0  0  0  0  0  0  0
   65.5342   32.3246   50.0962 H   0  0  0  0  0  0  0  0  0  0  0  0
  1  2  2  0
  2  3  1  0
  3  4  2  0
  4 26  1  0
 26 27  2  0
 26 28  1  0
 28 29  1  0
 30 29  1  0
 30 31  1  0
 31 32  1  0
 32 33  1  0
 33 34  1  0
 33 35  1  0
 35 36  1  0
  4  5  1  0
  5  6  2  0
  5  7  1  0
  7 19  1  0
 19 20  2  0
 20 21  1  0
 21 22  2  0
 22 23  1  0
 22 24  1  0
 24 25  2  0
  7  8  1  0
  8  9  2  0
  9 10  1  0
 10 11  2  0
 11 12  1  0
 11 13  1  0
 13 14  1  0
 14 15  2  0
 14 16  1  0
 16 17  1  0
 17 18  2  0
  8  2  1  0
 17 10  1  0
 36 30  1  0
 25 19  1  0
 33 37  1  0
M  CHG 1  12  -1
M  CHG 1  13  -1
M  CHG 1  16  -1
M  CHG 1  33   1
M  END
> <UniqueID>
21

> <SMILES>
C=c1cc(C(=O)OCC2CC[NH+](C)CC2)c(=O)n(-c2ccc(F)cc2)/c1=C/c1c([O-])[n-]c(=O)[n-]c1=O

> <Energy>
109.93935546027629

> <Genealogy>
C=c1cc(C(=O)OCC2CC[NH+](C)CC2)c(=O)n(-c2ccc(F)cc2)c1=Cc1c([O-])[n-]c(=O)[n-]c1=O (protonated)
C=c1cc(C(=O)OCC2CC[NH+](C)CC2)c(=O)n(-c2ccc(F)cc2)/c1=C/c1c([O-])[n-]c(=O)[n-]c1=O (cis-trans isomerization)
C=c1cc(C(=O)OCC2CC[NH+](C)CC2)c(=O)n(-c2ccc(F)cc2)/c1=C/c1c([O-])[n-]c(=O)[n-]c1=O (3D coordinates assigned)
C=c1cc(C(=O)OCC2CC[NH+](C)CC2)c(=O)n(-c2ccc(F)cc2)/c1=C/c1c([O-])[n-]c(=O)[n-]c1=O (nonaromatic ring conformer: 109.93935546027629 kcal/mol)

> <smiles>
C=c1cc(C(=O)OCC2CCN(C)CC2)c(=O)n(-c2ccc(F)cc2)c1=Cc1c(O)[nH]c(=O)[nH]c1=O

> <score_type>
oracle

> <origin>
adg

> <m_score__min__energy>
-15.01

> <m_primary>
energy

> <minimizedAffinity>
-3.26539

> <minimizedRMSD>
1.62565

> <CNNscore>
0.2198145092

> <CNNaffinity>
6.6780562401

> <CNN_VS>
1.4679336548

> <CNNaffinity_variance>
0.0609218962

$$$$
25:0


 33 36  0  0  0  0  0  0  0  0999 V2000
   61.4102   30.8360   48.8694 C   0  0  0  0  0  0  0  0  0  0  0  0
   60.6184   31.6058   48.1070 C   0  0  0  0  0  0  0  0  0  0  0  0
   60.0419   32.7541   48.5415 N   0  0  0  0  0  0  0  0  0  0  0  0
   59.3506   33.2212   47.4857 C   0  0  0  0  0  0  0  0  0  0  0  0
   58.7465   34.3264   47.4865 O   0  0  0  0  0  0  0  0  0  0  0  0
   59.4734   32.3447   46.4148 C   0  0  0  0  0  0  0  0  0  0  0  0
   58.9208   32.4609   45.1858 C   0  0  0  0  0  0  0  0  0  0  0  0
   60.3007   31.3343   46.8072 N   0  0  0  0  0  0  0  0  0  0  0  0
   57.8547   31.6000   44.6406 C   0  0  0  0  0  0  0  0  0  0  0  0
   57.1038   30.7441   45.3579 N   0  0  0  0  0  0  0  0  0  0  0  0
   56.3750   30.1011   44.4197 C   0  0  0  0  0  0  0  0  0  0  0  0
   55.5311   29.2140   44.7072 O   0  0  0  0  0  0  0  0  0  0  0  0
   56.6323   30.4763   43.1485 N   0  0  0  0  0  0  0  0  0  0  0  0
   57.5797   31.4167   43.3066 C   0  0  0  0  0  0  0  0  0  0  0  0
   58.1874   32.0908   42.2525 O   0  0  0  0  0  0  0  0  0  0  0  0
   57.9373   31.9019   41.3694 H   0  0  0  0  0  0  0  0  0  0  0  0
   60.2063   33.4280   49.8353 C   0  0  0  0  0  0  0  0  0  0  0  0
   59.2168   32.8959   50.8236 C   0  0  0  0  0  0  0  0  0  0  0  0
   58.3793   31.8049   50.6351 C   0  0  0  0  0  0  0  0  0  0  0  0
   57.5819   31.5239   51.7524 C   0  0  0  0  0  0  0  0  0  0  0  0
   57.7922   32.3878   52.8186 C   0  0  0  0  0  0  0  0  0  0  0  0
   58.9706   33.5014   52.3732 S   0  0  0  0  0  0  0  0  0  0  0  0
   60.7029   30.1405   46.0395 C   0  0  0  0  0  0  0  0  0  0  0  0
   60.0521   28.9029   46.6059 C   0  0  0  0  0  0  0  0  0  0  0  0
   60.4445   28.4012   47.8557 C   0  0  0  0  0  0  0  0  0  0  0  0
   59.8338   27.2621   48.3810 C   0  0  0  0  0  0  0  0  0  0  0  0
   58.8270   26.6103   47.6649 C   0  0  0  0  0  0  0  0  0  0  0  0
   58.4222   27.0919   46.4072 C   0  0  0  0  0  0  0  0  0  0  0  0
   59.0456   28.2393   45.8844 C   0  0  0  0  0  0  0  0  0  0  0  0
   57.3540   26.4010   45.6458 C   0  0  0  0  0  0  0  0  0  0  0  0
   55.9851   26.5501   46.0185 N   0  0  0  0  0  0  0  0  0  0  0  0
   57.6462   25.6714   44.6596 O   0  0  0  0  0  0  0  0  0  0  0  0
   55.7429   27.1167   46.7864 H   0  0  0  0  0  0  0  0  0  0  0  0
  1  2  2  0
  2  3  1  0
  3 17  1  0
 17 18  1  0
 18 19  2  0
 19 20  1  0
 20 21  2  0
 21 22  1  0
  3  4  1  0
  4  5  2  0
  4  6  1  0
  6  7  2  0
  7  9  1  0
  9 10  1  0
 10 11  1  0
 11 12  2  0
 11 13  1  0
 13 14  1  0
 14 15  1  0
  6  8  1  0
  8 23  1  0
 23 24  1  0
 24 25  2  0
 25 26  1  0
 26 27  2  0
 27 28  1  0
 28 30  1  0
 30 31  1  0
 30 32  2  0
 28 29  2  0
  8  2  1  0
 29 24  1  0
 22 18  1  0
 14  9  2  0
 15 16  1  0
 31 33  1  0
M  CHG 1  10  -1
M  CHG 1  13  -1
M  CHG 1  31  -1
M  END
> <UniqueID>
24

> <SMILES>
C=c1n(Cc2cccs2)c(=O)c(=Cc2[n-]c(=O)[n-]c2O)n1Cc1cccc(C([NH-])=O)c1

> <Energy>
147.80052533277455

> <Genealogy>
C=c1n(Cc2cccs2)c(=O)c(=Cc2[n-]c(=O)[n-]c2O)n1Cc1cccc(C([NH-])=O)c1 (protonated)
C=c1n(Cc2cccs2)c(=O)c(=Cc2[n-]c(=O)[n-]c2O)n1Cc1cccc(C([NH-])=O)c1 (3D coordinates assigned)
C=c1n(Cc2cccs2)c(=O)c(=Cc2[n-]c(=O)[n-]c2O)n1Cc1cccc(C([NH-])=O)c1 (optimized conformer: 147.80052533277455 kcal/mol)

> <smiles>
C=c1n(Cc2cccs2)c(=O)c(=Cc2[nH]c(=O)[nH]c2O)n1Cc1cccc(C(N)=O)c1

> <score_type>
oracle

> <origin>
adg

> <m_score__min__energy>
-14.52

> <m_primary>
energy

> <minimizedAffinity>
-8.14886

> <minimizedRMSD>
0.44480

> <CNNscore>
0.3744829595

> <CNNaffinity>
6.8031134605

> <CNN_VS>
2.5476500988

> <CNNaffinity_variance>
0.0734156594

$$$$
31:0


 25 27  0  0  0  0  0  0  0  0999 V2000
   58.0352   33.2082   45.5438 C   0  0  0  0  0  0  0  0  0  0  0  0
   58.5629   32.0098   45.8006 C   0  0  0  0  0  0  0  0  0  0  0  0
   58.4562   30.9761   44.9332 N   0  0  0  0  0  0  0  0  0  0  0  0
   59.0947   29.9556   45.5469 C   0  0  0  0  0  0  0  0  0  0  0  0
   59.2114   28.7164   45.0497 C   0  0  0  0  0  0  0  0  0  0  0  0
   59.5617   30.3905   46.7667 C   0  0  0  0  0  0  0  0  0  0  0  0
   60.1897   29.6960   47.6123 O   0  0  0  0  0  0  0  0  0  0  0  0
   59.2377   31.6856   46.9346 N   0  0  0  0  0  0  0  0  0  0  0  0
   58.6105   27.5237   45.6905 C   0  0  0  0  0  0  0  0  0  0  0  0
   57.2196   27.3069   45.7082 C   0  0  0  0  0  0  0  0  0  0  0  0
   56.3483   28.2033   45.1007 O   0  0  0  0  0  0  0  0  0  0  0  0
   56.7157   26.1928   46.2975 N   0  0  0  0  0  0  0  0  0  0  0  0
   57.5316   25.2654   46.8599 C   0  0  0  0  0  0  0  0  0  0  0  0
   57.0398   24.2427   47.4030 O   0  0  0  0  0  0  0  0  0  0  0  0
   58.8762   25.4374   46.8298 N   0  0  0  0  0  0  0  0  0  0  0  0
   59.4327   26.5334   46.2554 C   0  0  0  0  0  0  0  0  0  0  0  0
   60.6859   26.6569   46.2442 O   0  0  0  0  0  0  0  0  0  0  0  0
   59.5760   32.5364   48.0824 C   0  0  0  0  0  0  0  0  0  0  0  0
   61.0709   32.6696   48.2312 C   0  0  0  0  0  0  0  0  0  0  0  0
   61.7222   32.1242   49.3517 C   0  0  0  0  0  0  0  0  0  0  0  0
   63.1068   32.2522   49.4975 C   0  0  0  0  0  0  0  0  0  0  0  0
   63.8535   32.9194   48.5247 C   0  0  0  0  0  0  0  0  0  0  0  0
   63.2199   33.4556   47.4030 C   0  0  0  0  0  0  0  0  0  0  0  0
   61.8345   33.3307   47.2494 C   0  0  0  0  0  0  0  0  0  0  0  0
   61.2439   33.8479   46.1441 F   0  0  0  0  0  0  0  0  0  0  0  0
  1  2  2  0
  2  3  1  0
  3  4  1  0
  4  5  2  0
  5  9  1  0
  9 10  2  0
 10 11  1  0
 10 12  1  0
 12 13  1  0
 13 14  2  0
 13 15  1  0
 15 16  1  0
 16 17  2  0
  4  6  1  0
  6  7  2  0
  6  8  1  0
  8 18  1  0
 18 19  1  0
 19 20  2  0
 20 21  1  0
 21 22  2  0
 22 23  1  0
 23 24  2  0
 24 25  1  0
  8  2  1  0
 24 19  1  0
 16  9  1  0
M  CHG 1   3  -1
M  CHG 1  11  -1
M  CHG 1  12  -1
M  CHG 1  15  -1
M  END
> <UniqueID>
30

> <SMILES>
C=c1[n-]/c(=C\c2c([O-])[n-]c(=O)[n-]c2=O)c(=O)n1Cc1ccccc1F

> <Energy>
78.11096432104351

> <Genealogy>
C=c1[n-]c(=Cc2c([O-])[n-]c(=O)[n-]c2=O)c(=O)n1Cc1ccccc1F (protonated)
C=c1[n-]/c(=C\c2c([O-])[n-]c(=O)[n-]c2=O)c(=O)n1Cc1ccccc1F (cis-trans isomerization)
C=c1[n-]/c(=C\c2c([O-])[n-]c(=O)[n-]c2=O)c(=O)n1Cc1ccccc1F (3D coordinates assigned)
C=c1[n-]/c(=C\c2c([O-])[n-]c(=O)[n-]c2=O)c(=O)n1Cc1ccccc1F (optimized conformer: 78.11096432104351 kcal/mol)

> <smiles>
C=c1[nH]c(=Cc2c(O)[nH]c(=O)[nH]c2=O)c(=O)n1Cc1ccccc1F

> <score_type>
oracle

> <origin>
adg

> <m_score__min__energy>
-16.219999999999999

> <m_primary>
energy

> <minimizedAffinity>
-7.81674

> <minimizedRMSD>
1.17767

> <CNNscore>
0.7330165505

> <CNNaffinity>
6.7538990974

> <CNN_VS>
4.9507198334

> <CNNaffinity_variance>
0.2977256477

$$$$
34:0


 35 39  0  0  0  0  0  0  0  0999 V2000
   57.3647   30.4397   53.5288 C   0  0  0  0  0  0  0  0  0  0  0  0
   58.1569   31.3151   54.2877 C   0  0  0  0  0  0  0  0  0  0  0  0
   59.4779   31.5746   53.9098 C   0  0  0  0  0  0  0  0  0  0  0  0
   60.0095   30.9802   52.7635 C   0  0  0  0  0  0  0  0  0  0  0  0
   59.2187   30.1268   51.9761 C   0  0  0  0  0  0  0  0  0  0  0  0
   57.9035   29.8404   52.3780 C   0  0  0  0  0  0  0  0  0  0  0  0
   59.7843   29.5404   50.7415 C   0  0  0  0  0  0  0  0  0  0  0  0
   60.6033   28.5847   50.8515 O   0  0  0  0  0  0  0  0  0  0  0  0
   59.4662   30.0579   49.4294 N   0  0  0  0  0  0  0  0  0  0  0  0
   59.0530   31.4617   49.2741 C   0  0  0  0  0  0  0  0  0  0  0  0
   59.3336   31.9835   47.8654 C   0  0  0  0  0  0  0  0  0  0  0  0
   58.7953   31.0537   46.8696 N   0  0  0  0  0  0  0  0  0  0  0  0
   58.1014   31.5610   45.7169 C   0  0  0  0  0  0  0  0  0  0  0  0
   57.2811   32.5082   45.8462 O   0  0  0  0  0  0  0  0  0  0  0  0
   58.9681   29.6099   47.0401 C   0  0  0  0  0  0  0  0  0  0  0  0
   59.8502   29.2755   48.2480 C   0  0  0  0  0  0  0  0  0  0  0  0
   58.3060   30.9504   44.3622 C   0  0  0  0  0  0  0  0  0  0  0  0
   57.6631   31.7226   43.2132 C   0  0  0  0  0  0  0  0  0  0  0  0
   57.0199   30.4433   43.7148 C   0  0  0  0  0  0  0  0  0  0  0  0
   56.1873   29.5639   56.1855 C   0  0  0  0  0  0  0  0  0  0  0  0
   55.4754   29.7861   55.0784 C   0  0  0  0  0  0  0  0  0  0  0  0
   54.1276   29.6502   55.0495 N   0  0  0  0  0  0  0  0  0  0  0  0
   53.7790   30.0052   53.7927 C   0  0  0  0  0  0  0  0  0  0  0  0
   52.5283   30.0364   53.3157 C   0  0  0  0  0  0  0  0  0  0  0  0
   54.9167   30.3570   53.0962 C   0  0  0  0  0  0  0  0  0  0  0  0
   54.9683   30.7232   51.8926 O   0  0  0  0  0  0  0  0  0  0  0  0
   55.9905   30.2125   53.8939 N   0  0  0  0  0  0  0  0  0  0  0  0
   52.1603   30.3386   51.9170 C   0  0  0  0  0  0  0  0  0  0  0  0
   52.2414   29.4136   50.9361 N   0  0  0  0  0  0  0  0  0  0  0  0
   51.7615   30.0474   49.8458 C   0  0  0  0  0  0  0  0  0  0  0  0
   51.6920   29.5003   48.7139 O   0  0  0  0  0  0  0  0  0  0  0  0
   51.3559   31.3083   50.0897 N   0  0  0  0  0  0  0  0  0  0  0  0
   50.8403   32.2753   49.1311 C   0  0  0  0  0  0  0  0  0  0  0  0
   51.6034   31.4955   51.3957 C   0  0  0  0  0  0  0  0  0  0  0  0
   51.2816   32.6569   52.0908 O   0  0  0  0  0  0  0  0  0  0  0  0
 20 21  2  0
 21 22  1  0
 22 23  1  0
 23 24  2  0
 24 28  1  0
 28 29  1  0
 29 30  1  0
 30 31  2  0
 30 32  1  0
 32 33  1  0
 32 34  1  0
 34 35  1  0
 23 25  1  0
 25 26  2  0
 25 27  1  0
 27  1  1  0
  1  2  2  0
  2  3  1  0
  3  4  2  0
  4  5  1  0
  5  7  1  0
  7  8  2  0
  7  9  1  0
  9 10  1  0
 10 11  1  0
 11 12  1  0
 12 13  1  0
 13 14  2  0
 13 17  1  0
 17 18  1  0
 18 19  1  0
 12 15  1  0
 15 16  1  0
  5  6  2  0
 27 21  1  0
  6  1  1  0
 34 28  2  0
 16  9  1  0
 19 17  1  0
M  CHG 1  22  -1
M  CHG 1  29  -1
M  CHG 1  35  -1
M  END
> <UniqueID>
33

> <SMILES>
C=c1[n-]/c(=C\c2[n-]c(=O)n(C)c2[O-])c(=O)n1-c1cccc(C(=O)N2CCN(C(=O)C3CC3)CC2)c1

> <Energy>
407.95091203930866

> <Genealogy>
C=c1[n-]c(=Cc2[n-]c(=O)n(C)c2[O-])c(=O)n1-c1cccc(C(=O)N2CCN(C(=O)C3CC3)CC2)c1 (protonated)
C=c1[n-]/c(=C\c2[n-]c(=O)n(C)c2[O-])c(=O)n1-c1cccc(C(=O)N2CCN(C(=O)C3CC3)CC2)c1 (cis-trans isomerization)
C=c1[n-]/c(=C\c2[n-]c(=O)n(C)c2[O-])c(=O)n1-c1cccc(C(=O)N2CCN(C(=O)C3CC3)CC2)c1 (3D coordinates assigned)
C=c1[n-]/c(=C\c2[n-]c(=O)n(C)c2[O-])c(=O)n1-c1cccc(C(=O)N2CCN(C(=O)C3CC3)CC2)c1 (nonaromatic ring conformer: 407.95091203930866 kcal/mol)

> <smiles>
C=c1[nH]c(=Cc2[nH]c(=O)n(C)c2O)c(=O)n1-c1cccc(C(=O)N2CCN(C(=O)C3CC3)CC2)c1

> <score_type>
oracle

> <origin>
adg

> <m_score__min__energy>
-17.16

> <m_primary>
energy

> <minimizedAffinity>
-6.33372

> <minimizedRMSD>
0.90467

> <CNNscore>
0.0257277451

> <CNNaffinity>
5.1148433685

> <CNN_VS>
0.1315933913

> <CNNaffinity_variance>
0.5948498845

$$$$
37:0


 30 33  0  0  0  0  0  0  0  0999 V2000
   54.7139   28.3274   54.6701 C   0  0  0  0  0  0  0  0  0  0  0  0
   55.3544   29.0749   53.7570 C   0  0  0  0  0  0  0  0  0  0  0  0
   54.7880   30.0729   52.9589 C   0  0  0  0  0  0  0  0  0  0  0  0
   53.5116   30.5038   52.9723 C   0  0  0  0  0  0  0  0  0  0  0  0
   55.8204   30.5864   52.1881 C   0  0  0  0  0  0  0  0  0  0  0  0
   56.9594   29.8812   52.5253 C   0  0  0  0  0  0  0  0  0  0  0  0
   56.6773   28.9601   53.4793 N   0  0  0  0  0  0  0  0  0  0  0  0
   57.6254   28.0473   54.1277 C   0  0  0  0  0  0  0  0  0  0  0  0
   52.6454   30.5595   51.7792 C   0  0  0  0  0  0  0  0  0  0  0  0
   52.7828   29.7302   50.7301 N   0  0  0  0  0  0  0  0  0  0  0  0
   51.8675   30.1846   49.8484 C   0  0  0  0  0  0  0  0  0  0  0  0
   51.6789   29.6448   48.7270 O   0  0  0  0  0  0  0  0  0  0  0  0
   51.1732   31.2690   50.2587 N   0  0  0  0  0  0  0  0  0  0  0  0
   51.6847   31.5006   51.4782 C   0  0  0  0  0  0  0  0  0  0  0  0
   51.3147   32.5781   52.2733 O   0  0  0  0  0  0  0  0  0  0  0  0
   58.3271   30.1743   51.9665 C   0  0  0  0  0  0  0  0  0  0  0  0
   58.5244   31.6425   51.6791 C   0  0  0  0  0  0  0  0  0  0  0  0
   58.0149   32.4971   52.4568 O   0  0  0  0  0  0  0  0  0  0  0  0
   59.2585   32.0908   50.5184 N   0  0  0  0  0  0  0  0  0  0  0  0
   59.4216   31.2524   49.3232 C   0  0  0  0  0  0  0  0  0  0  0  0
   60.8860   31.2607   48.8464 C   0  0  0  0  0  0  0  0  0  0  0  0
   61.6078   32.5171   49.1695 N   0  0  0  0  0  0  0  0  0  0  0  0
   60.7350   33.6972   49.3377 C   0  0  0  0  0  0  0  0  0  0  0  0
   59.6914   33.4935   50.4443 C   0  0  0  0  0  0  0  0  0  0  0  0
   62.7488   32.4194   50.1206 C   0  0  0  0  0  0  0  0  0  0  0  0
   64.0216   33.0407   49.4891 C   0  0  0  0  0  0  0  0  0  0  0  0
   65.3345   32.4788   50.0699 C   0  0  0  0  0  0  0  0  0  0  0  0
   65.1815   32.0901   51.5437 C   0  0  0  0  0  0  0  0  0  0  0  0
   64.1141   30.9952   51.7418 C   0  0  0  0  0  0  0  0  0  0  0  0
   63.0269   30.9890   50.6457 C   0  0  0  0  0  0  0  0  0  0  0  0
  1  2  2  0
  2  3  1  0
  3  4  2  0
  4  9  1  0
  9 10  1  0
 10 11  1  0
 11 12  2  0
 11 13  1  0
 13 14  1  0
 14 15  1  0
  3  5  1  0
  5  6  2  0
  6 16  1  0
 16 17  1  0
 17 18  2  0
 17 19  1  0
 19 20  1  0
 20 21  1  0
 21 22  1  0
 22 25  1  0
 25 26  1  0
 26 27  1  0
 27 28  1  0
 28 29  1  0
 29 30  1  0
 22 23  1  0
 23 24  1  0
  6  7  1  0
  7  8  1  0
  7  2  1  0
 14  9  2  0
 24 19  1  0
 30 25  1  0
M  CHG 1  10  -1
M  CHG 1  13  -1
M  CHG 1  15  -1
M  END
> <UniqueID>
36

> <SMILES>
C=c1/c(=C/c2[n-]c(=O)[n-]c2[O-])cc(CC(=O)N2CCN(C3CCCCC3)CC2)n1C

> <Energy>
141.12554237291823

> <Genealogy>
C=c1c(=Cc2[n-]c(=O)[n-]c2[O-])cc(CC(=O)N2CCN(C3CCCCC3)CC2)n1C (protonated)
C=c1/c(=C/c2[n-]c(=O)[n-]c2[O-])cc(CC(=O)N2CCN(C3CCCCC3)CC2)n1C (cis-trans isomerization)
C=c1/c(=C/c2[n-]c(=O)[n-]c2[O-])cc(CC(=O)N2CCN(C3CCCCC3)CC2)n1C (3D coordinates assigned)
C=c1/c(=C/c2[n-]c(=O)[n-]c2[O-])cc(CC(=O)N2CCN(C3CCCCC3)CC2)n1C (nonaromatic ring conformer: 141.12554237291823 kcal/mol)

> <smiles>
C=c1c(=Cc2[nH]c(=O)[nH]c2O)cc(CC(=O)N2CCN(C3CCCCC3)CC2)n1C

> <score_type>
oracle

> <origin>
adg

> <m_score__min__energy>
-19.530000000000001

> <m_primary>
energy

> <minimizedAffinity>
-6.60768

> <minimizedRMSD>
0.92035

> <CNNscore>
0.0494162738

> <CNNaffinity>
4.2602534294

> <CNN_VS>
0.2105258554

> <CNNaffinity_variance>
1.1230102777

$$$$
38:0


 30 33  0  0  0  0  0  0  0  0999 V2000
   57.5793   29.4278   43.7896 C   0  0  0  0  0  0  0  0  0  0  0  0
   58.3077   29.7160   44.8803 C   0  0  0  0  0  0  0  0  0  0  0  0
   59.0225   28.8098   45.6806 C   0  0  0  0  0  0  0  0  0  0  0  0
   59.3409   27.5147   45.4867 C   0  0  0  0  0  0  0  0  0  0  0  0
   59.4186   29.5157   46.8030 C   0  0  0  0  0  0  0  0  0  0  0  0
   59.0180   30.8223   46.6177 C   0  0  0  0  0  0  0  0  0  0  0  0
   58.3327   30.9457   45.4561 N   0  0  0  0  0  0  0  0  0  0  0  0
   57.6151   32.1383   44.9871 C   0  0  0  0  0  0  0  0  0  0  0  0
   59.3276   31.9138   47.5625 C   0  0  0  0  0  0  0  0  0  0  0  0
   58.3905   32.6656   47.9461 O   0  0  0  0  0  0  0  0  0  0  0  0
   60.6558   32.1026   48.0900 N   0  0  0  0  0  0  0  0  0  0  0  0
   61.5731   30.9688   48.2827 C   0  0  0  0  0  0  0  0  0  0  0  0
   62.1023   30.9672   49.7199 C   0  0  0  0  0  0  0  0  0  0  0  0
   62.5878   32.3094   50.0650 N   0  0  0  0  0  0  0  0  0  0  0  0
   63.9983   32.5631   50.1976 C   0  0  0  0  0  0  0  0  0  0  0  0
   64.5212   33.5093   49.5481 O   0  0  0  0  0  0  0  0  0  0  0  0
   61.6488   33.4227   49.9010 C   0  0  0  0  0  0  0  0  0  0  0  0
   61.1310   33.4419   48.4622 C   0  0  0  0  0  0  0  0  0  0  0  0
   64.8430   31.7458   51.0918 C   0  0  0  0  0  0  0  0  0  0  0  0
   64.3690   31.1179   52.2573 C   0  0  0  0  0  0  0  0  0  0  0  0
   65.3453   30.4198   52.9510 C   0  0  0  0  0  0  0  0  0  0  0  0
   66.7985   30.5945   52.1256 S   0  0  0  0  0  0  0  0  0  0  0  0
   66.2061   31.5529   50.8798 C   0  0  0  0  0  0  0  0  0  0  0  0
   58.4452   26.3679   45.7079 C   0  0  0  0  0  0  0  0  0  0  0  0
   58.8543   25.0979   45.8878 N   0  0  0  0  0  0  0  0  0  0  0  0
   57.7137   24.4430   46.1949 C   0  0  0  0  0  0  0  0  0  0  0  0
   57.6834   23.2059   46.4218 O   0  0  0  0  0  0  0  0  0  0  0  0
   56.6113   25.2202   46.2490 N   0  0  0  0  0  0  0  0  0  0  0  0
   57.0957   26.4372   45.9540 C   0  0  0  0  0  0  0  0  0  0  0  0
   56.3217   27.5891   45.9163 O   0  0  0  0  0  0  0  0  0  0  0  0
  1  2  2  0
  2  3  1  0
  3  4  2  0
  4 24  1  0
 24 25  1  0
 25 26  1  0
 26 27  2  0
 26 28  1  0
 28 29  1  0
 29 30  1  0
  3  5  1  0
  5  6  2  0
  6  9  1  0
  9 10  2  0
  9 11  1  0
 11 12  1  0
 12 13  1  0
 13 14  1  0
 14 15  1  0
 15 16  2  0
 15 19  1  0
 19 20  1  0
 20 21  2  0
 21 22  1  0
 22 23  1  0
 14 17  1  0
 17 18  1  0
  6  7  1  0
  7  8  1  0
  7  2  1  0
 29 24  2  0
 18 11  1  0
 23 19  2  0
M  CHG 1  25  -1
M  CHG 1  28  -1
M  CHG 1  30  -1
M  END
> <UniqueID>
37

> <SMILES>
C=c1c(=Cc2[n-]c(=O)[n-]c2[O-])cc(C(=O)N2CCN(C(=O)c3ccsc3)CC2)n1C

> <Energy>
155.0522683285801

> <Genealogy>
C=c1c(=Cc2[n-]c(=O)[n-]c2[O-])cc(C(=O)N2CCN(C(=O)c3ccsc3)CC2)n1C (protonated)
C=c1c(=Cc2[n-]c(=O)[n-]c2[O-])cc(C(=O)N2CCN(C(=O)c3ccsc3)CC2)n1C (3D coordinates assigned)
C=c1c(=Cc2[n-]c(=O)[n-]c2[O-])cc(C(=O)N2CCN(C(=O)c3ccsc3)CC2)n1C (nonaromatic ring conformer: 155.0522683285801 kcal/mol)

> <smiles>
C=c1c(=Cc2[nH]c(=O)[nH]c2O)cc(C(=O)N2CCN(C(=O)c3ccsc3)CC2)n1C

> <score_type>
oracle

> <origin>
adg

> <m_score__min__energy>
-17.579999999999998

> <m_primary>
energy

> <minimizedAffinity>
-7.39346

> <minimizedRMSD>
1.08836

> <CNNscore>
0.0984506533

> <CNNaffinity>
6.1866335869

> <CNN_VS>
0.6090781093

> <CNNaffinity_variance>
0.0251463000

$$$$
46:0


 27 29  0  0  0  0  0  0  0  0999 V2000
   54.6622   29.9140   55.4143 C   0  0  0  0  0  0  0  0  0  0  0  0
   55.1997   30.0973   54.1972 C   0  0  0  0  0  0  0  0  0  0  0  0
   54.4957   30.2088   52.9918 C   0  0  0  0  0  0  0  0  0  0  0  0
   53.1580   30.1428   52.8219 C   0  0  0  0  0  0  0  0  0  0  0  0
   55.4515   30.4430   52.0114 C   0  0  0  0  0  0  0  0  0  0  0  0
   56.6818   30.4619   52.6410 C   0  0  0  0  0  0  0  0  0  0  0  0
   56.5335   30.2246   53.9675 N   0  0  0  0  0  0  0  0  0  0  0  0
   57.6110   30.1406   54.9615 C   0  0  0  0  0  0  0  0  0  0  0  0
   52.4345   30.4369   51.5657 C   0  0  0  0  0  0  0  0  0  0  0  0
   52.3871   29.6462   50.4778 N   0  0  0  0  0  0  0  0  0  0  0  0
   51.5727   30.3140   49.6342 C   0  0  0  0  0  0  0  0  0  0  0  0
   51.2847   29.8849   48.4869 O   0  0  0  0  0  0  0  0  0  0  0  0
   51.0858   31.4761   50.1204 N   0  0  0  0  0  0  0  0  0  0  0  0
   51.6358   31.5347   51.3426 C   0  0  0  0  0  0  0  0  0  0  0  0
   51.4118   32.5716   52.2408 O   0  0  0  0  0  0  0  0  0  0  0  0
   57.9618   30.7774   51.9600 C   0  0  0  0  0  0  0  0  0  0  0  0
   58.8548   29.8877   51.8862 O   0  0  0  0  0  0  0  0  0  0  0  0
   58.2247   32.1060   51.4472 N   0  0  0  0  0  0  0  0  0  0  0  0
   58.0720   33.0849   52.5376 C   0  0  0  0  0  0  0  0  0  0  0  0
   57.6466   32.0043   52.2376 H   0  0  0  0  0  0  0  0  0  0  0  0
   59.5769   32.1601   50.8455 C   0  0  0  0  0  0  0  0  0  0  0  0
   59.5356   32.6155   49.4060 C   0  0  0  0  0  0  0  0  0  0  0  0
   60.0292   33.8825   49.0514 C   0  0  0  0  0  0  0  0  0  0  0  0
   60.0113   34.2975   47.7159 C   0  0  0  0  0  0  0  0  0  0  0  0
   59.5052   33.4515   46.7257 C   0  0  0  0  0  0  0  0  0  0  0  0
   59.0181   32.1882   47.0684 C   0  0  0  0  0  0  0  0  0  0  0  0
   59.0336   31.7680   48.4023 C   0  0  0  0  0  0  0  0  0  0  0  0
  1  2  2  0
  2  3  1  0
  3  4  2  0
  4  9  1  0
  9 10  1  0
 10 11  1  0
 11 12  2  0
 11 13  1  0
 13 14  1  0
 14 15  1  0
  3  5  1  0
  5  6  2  0
  6 16  1  0
 16 17  2  0
 16 18  1  0
 18 19  1  0
 18 21  1  0
 21 22  1  0
 22 23  2  0
 23 24  1  0
 24 25  2  0
 25 26  1  0
 26 27  2  0
  6  7  1  0
  7  8  1  0
  7  2  1  0
 14  9  2  0
 27 22  1  0
 18 20  1  0
M  CHG 1  10  -1
M  CHG 1  13  -1
M  CHG 1  15  -1
M  CHG 1  18   1
M  END
> <UniqueID>
45

> <SMILES>
C=c1/c(=C/c2[n-]c(=O)[n-]c2[O-])cc(C(=O)[N@@H+](C)Cc2ccccc2)n1C

> <Energy>
114.00940223416055

> <Genealogy>
C=c1c(=Cc2[n-]c(=O)[n-]c2[O-])cc(C(=O)[NH+](C)Cc2ccccc2)n1C (protonated)
C=c1c(=Cc2[n-]c(=O)[n-]c2[O-])cc(C(=O)[N@@H+](C)Cc2ccccc2)n1C (chirality)
C=c1/c(=C/c2[n-]c(=O)[n-]c2[O-])cc(C(=O)[N@@H+](C)Cc2ccccc2)n1C (cis-trans isomerization)
C=c1/c(=C/c2[n-]c(=O)[n-]c2[O-])cc(C(=O)[N@@H+](C)Cc2ccccc2)n1C (3D coordinates assigned)
C=c1/c(=C/c2[n-]c(=O)[n-]c2[O-])cc(C(=O)[N@@H+](C)Cc2ccccc2)n1C (optimized conformer: 114.00940223416055 kcal/mol)

> <smiles>
C=c1c(=Cc2[nH]c(=O)[nH]c2O)cc(C(=O)N(C)Cc2ccccc2)n1C

> <score_type>
oracle

> <origin>
adg

> <m_score__min__energy>
-16.48

> <m_primary>
energy

> <minimizedAffinity>
-5.54079

> <minimizedRMSD>
0.88078

> <CNNscore>
0.3033516109

> <CNNaffinity>
5.4450263977

> <CNN_VS>
1.6517574787

> <CNNaffinity_variance>
0.0538365059

$$$$
58:0


 35 38  0  0  0  0  0  0  0  0999 V2000
   60.6567   30.0428   48.5076 C   0  0  0  0  0  0  0  0  0  0  0  0
   60.4584   30.0919   49.7547 O   0  0  0  0  0  0  0  0  0  0  0  0
   60.0836   28.9573   47.7393 N   0  0  0  0  0  0  0  0  0  0  0  0
   60.4362   28.7540   46.3239 C   0  0  0  0  0  0  0  0  0  0  0  0
   60.4688   27.2611   45.9779 C   0  0  0  0  0  0  0  0  0  0  0  0
   59.2711   26.5939   46.4966 N   0  0  0  0  0  0  0  0  0  0  0  0
   58.9651   26.7712   47.9190 C   0  0  0  0  0  0  0  0  0  0  0  0
   58.8915   28.2612   48.2476 C   0  0  0  0  0  0  0  0  0  0  0  0
   58.5914   25.5864   45.7242 C   0  0  0  0  0  0  0  0  0  0  0  0
   57.8080   25.9415   44.6142 C   0  0  0  0  0  0  0  0  0  0  0  0
   57.1405   24.9606   43.8743 C   0  0  0  0  0  0  0  0  0  0  0  0
   57.2496   23.6024   44.2260 C   0  0  0  0  0  0  0  0  0  0  0  0
   58.0263   23.2534   45.3459 C   0  0  0  0  0  0  0  0  0  0  0  0
   58.6913   24.2348   46.0840 C   0  0  0  0  0  0  0  0  0  0  0  0
   56.5444   22.5470   43.4564 C   0  0  0  0  0  0  0  0  0  0  0  0
   57.0995   21.2403   43.2935 N   0  0  0  0  0  0  0  0  0  0  0  0
   55.4197   22.7985   42.9443 O   0  0  0  0  0  0  0  0  0  0  0  0
   57.9764   21.0256   43.6862 H   0  0  0  0  0  0  0  0  0  0  0  0
   56.6051   20.5548   42.7887 H   0  0  0  0  0  0  0  0  0  0  0  0
   61.5179   31.1006   47.8574 C   0  0  0  0  0  0  0  0  0  0  0  0
   59.5887   35.3581   46.4949 C   0  0  0  0  0  0  0  0  0  0  0  0
   59.8683   34.0444   46.4787 C   0  0  0  0  0  0  0  0  0  0  0  0
   59.1580   33.0358   45.8055 C   0  0  0  0  0  0  0  0  0  0  0  0
   58.1725   33.1066   44.8903 C   0  0  0  0  0  0  0  0  0  0  0  0
   59.6712   31.8346   46.2613 C   0  0  0  0  0  0  0  0  0  0  0  0
   60.7042   32.1364   47.1235 C   0  0  0  0  0  0  0  0  0  0  0  0
   60.8319   33.4800   47.2533 N   0  0  0  0  0  0  0  0  0  0  0  0
   61.7513   34.1913   48.1490 C   0  0  0  0  0  0  0  0  0  0  0  0
   57.4412   31.9637   44.3225 C   0  0  0  0  0  0  0  0  0  0  0  0
   56.8353   31.0238   45.0696 N   0  0  0  0  0  0  0  0  0  0  0  0
   56.4227   30.1162   44.1592 C   0  0  0  0  0  0  0  0  0  0  0  0
   55.7908   29.0759   44.4772 O   0  0  0  0  0  0  0  0  0  0  0  0
   56.7552   30.4040   42.8813 N   0  0  0  0  0  0  0  0  0  0  0  0
   57.4132   31.5669   43.0033 C   0  0  0  0  0  0  0  0  0  0  0  0
   57.9973   32.2380   41.9372 O   0  0  0  0  0  0  0  0  0  0  0  0
 21 22  2  0
 22 23  1  0
 23 24  2  0
 24 29  1  0
 29 30  1  0
 30 31  1  0
 31 32  2  0
 31 33  1  0
 33 34  1  0
 34 35  1  0
 23 25  1  0
 25 26  2  0
 26 20  1  0
 20  1  1  0
  1  2  2  0
  1  3  1  0
  3  4  1  0
  4  5  1  0
  5  6  1  0
  6  9  1  0
  9 10  2  0
 10 11  1  0
 11 12  2  0
 12 15  1  0
 15 16  1  0
 15 17  2  0
 12 13  1  0
 13 14  2  0
  6  7  1  0
  7  8  1  0
 26 27  1  0
 27 28  1  0
 27 22  1  0
 34 29  2  0
  8  3  1  0
 14  9  1  0
 16 18  1  0
 16 19  1  0
M  CHG 1  30  -1
M  CHG 1  33  -1
M  CHG 1  35  -1
M  END
> <UniqueID>
56

> <SMILES>
C=c1c(=Cc2[n-]c(=O)[n-]c2[O-])cc(CC(=O)N2CCN(c3ccc(C(N)=O)cc3)CC2)n1C

> <Energy>
135.51882569848698

> <Genealogy>
C=c1c(=Cc2[n-]c(=O)[n-]c2[O-])cc(CC(=O)N2CCN(c3ccc(C(N)=O)cc3)CC2)n1C (protonated)
C=c1c(=Cc2[n-]c(=O)[n-]c2[O-])cc(CC(=O)N2CCN(c3ccc(C(N)=O)cc3)CC2)n1C (3D coordinates assigned)
C=c1c(=Cc2[n-]c(=O)[n-]c2[O-])cc(CC(=O)N2CCN(c3ccc(C(N)=O)cc3)CC2)n1C (nonaromatic ring conformer: 135.51882569848698 kcal/mol)

> <smiles>
C=c1c(=Cc2[nH]c(=O)[nH]c2O)cc(CC(=O)N2CCN(c3ccc(C(N)=O)cc3)CC2)n1C

> <score_type>
oracle

> <origin>
adg

> <m_score__min__energy>
-17.170000000000002

> <m_primary>
energy

> <minimizedAffinity>
-8.27769

> <minimizedRMSD>
0.57472

> <CNNscore>
0.2277655303

> <CNNaffinity>
6.8599305153

> <CNN_VS>
1.5624556541

> <CNNaffinity_variance>
0.3423531950

$$$$
65:0


 31 34  0  0  0  0  0  0  0  0999 V2000
   58.8572   28.2960   46.0223 C   0  0  0  0  0  0  0  0  0  0  0  0
   58.9888   29.6138   45.5759 C   0  0  0  0  0  0  0  0  0  0  0  0
   57.9385   30.2381   44.8881 C   0  0  0  0  0  0  0  0  0  0  0  0
   56.7631   29.5059   44.6446 C   0  0  0  0  0  0  0  0  0  0  0  0
   55.7233   30.0529   43.9027 O   0  0  0  0  0  0  0  0  0  0  0  0
   56.6408   28.2381   45.1213 N   0  0  0  0  0  0  0  0  0  0  0  0
   57.6396   27.6268   45.8122 C   0  0  0  0  0  0  0  0  0  0  0  0
   57.4543   26.4726   46.2752 O   0  0  0  0  0  0  0  0  0  0  0  0
   58.0963   31.6275   44.4079 C   0  0  0  0  0  0  0  0  0  0  0  0
   57.9638   31.8631   43.1760 O   0  0  0  0  0  0  0  0  0  0  0  0
   58.4260   32.7037   45.3065 N   0  0  0  0  0  0  0  0  0  0  0  0
   57.8557   34.0391   45.1058 C   0  0  0  0  0  0  0  0  0  0  0  0
   58.8958   35.1042   45.4677 C   0  0  0  0  0  0  0  0  0  0  0  0
   59.4288   34.8725   46.7581 O   0  0  0  0  0  0  0  0  0  0  0  0
   60.1499   33.6546   46.7655 C   0  0  0  0  0  0  0  0  0  0  0  0
   59.2124   32.4678   46.5218 C   0  0  0  0  0  0  0  0  0  0  0  0
   59.9346   27.6920   46.7476 N   0  0  0  0  0  0  0  0  0  0  0  0
   60.1581   27.8060   48.1592 C   0  0  0  0  0  0  0  0  0  0  0  0
   60.6715   26.8307   48.7688 O   0  0  0  0  0  0  0  0  0  0  0  0
   59.6547   28.9883   48.9482 C   0  0  0  0  0  0  0  0  0  0  0  0
   64.9693   33.1287   50.0933 C   0  0  0  0  0  0  0  0  0  0  0  0
   63.8109   32.1778   49.9480 C   0  0  0  0  0  0  0  0  0  0  0  0
   63.4071   31.4094   51.0647 C   0  0  0  0  0  0  0  0  0  0  0  0
   62.3360   30.5368   50.9124 C   0  0  0  0  0  0  0  0  0  0  0  0
   61.8172   29.7442   51.8216 O   0  0  0  0  0  0  0  0  0  0  0  0
   60.8186   29.0874   51.2605 C   0  0  0  0  0  0  0  0  0  0  0  0
   60.6823   29.4719   49.9303 C   0  0  0  0  0  0  0  0  0  0  0  0
   61.6738   30.4084   49.7244 C   0  0  0  0  0  0  0  0  0  0  0  0
   62.0345   31.1418   48.5974 C   0  0  0  0  0  0  0  0  0  0  0  0
   63.1170   32.0428   48.7045 C   0  0  0  0  0  0  0  0  0  0  0  0
   63.5260   32.8436   47.4963 C   0  0  0  0  0  0  0  0  0  0  0  0
 21 22  1  0
 22 23  2  0
 23 24  1  0
 24 25  1  0
 25 26  1  0
 26 27  2  0
 27 20  1  0
 20 18  1  0
 18 19  2  0
 18 17  1  0
 17  1  1  0
  1  2  2  0
  2  3  1  0
  3  9  1  0
  9 10  2  0
  9 11  1  0
 11 12  1  0
 12 13  1  0
 13 14  1  0
 14 15  1  0
 15 16  1  0
  3  4  2  0
  4  5  1  0
  4  6  1  0
  6  7  1  0
  7  8  2  0
 27 28  1  0
 28 29  1  0
 29 30  2  0
 30 31  1  0
 30 22  1  0
 28 24  2  0
  7  1  1  0
 16 11  1  0
M  CHG 1   5  -1
M  CHG 1   6  -1
M  CHG 1  17  -1
M  END
> <UniqueID>
63

> <SMILES>
Cc1cc2occ(CC(=O)[N-]c3cc(C(=O)N4CCOCC4)c([O-])[n-]c3=O)c2cc1C

> <Energy>
103.22167041016853

> <Genealogy>
Cc1cc2occ(CC(=O)[N-]c3cc(C(=O)N4CCOCC4)c([O-])[n-]c3=O)c2cc1C (protonated)
Cc1cc2occ(CC(=O)[N-]c3cc(C(=O)N4CCOCC4)c([O-])[n-]c3=O)c2cc1C (3D coordinates assigned)
Cc1cc2occ(CC(=O)[N-]c3cc(C(=O)N4CCOCC4)c([O-])[n-]c3=O)c2cc1C (nonaromatic ring conformer: 103.22167041016853 kcal/mol)

> <smiles>
Cc1cc2occ(CC(=O)Nc3cc(C(=O)N4CCOCC4)c(O)[nH]c3=O)c2cc1C

> <score_type>
oracle

> <origin>
adg

> <m_score__min__energy>
-15.609999999999999

> <m_primary>
energy

> <minimizedAffinity>
-8.50950

> <minimizedRMSD>
0.93180

> <CNNscore>
0.2259887755

> <CNNaffinity>
6.3890099525

> <CNN_VS>
1.4438445568

> <CNNaffinity_variance>
0.0505229048

$$$$
69:0


 37 40  0  0  0  0  0  0  0  0999 V2000
   59.5015   27.9848   46.7769 C   0  0  0  0  0  0  0  0  0  0  0  0
   60.6787   28.5550   46.2816 C   0  0  0  0  0  0  0  0  0  0  0  0
   61.2564   29.6488   46.9302 C   0  0  0  0  0  0  0  0  0  0  0  0
   60.6600   30.1791   48.0767 C   0  0  0  0  0  0  0  0  0  0  0  0
   59.4789   29.6149   48.5902 C   0  0  0  0  0  0  0  0  0  0  0  0
   58.9022   28.5192   47.9255 C   0  0  0  0  0  0  0  0  0  0  0  0
   58.8527   26.5334   46.0132 S   0  0  0  0  0  0  0  0  0  0  0  0
   58.6993   26.7316   44.5285 O   0  0  0  0  0  0  0  0  0  0  0  0
   59.8071   25.3984   46.2573 O   0  0  0  0  0  0  0  0  0  0  0  0
   57.3104   26.1420   46.7085 N   0  0  0  0  0  0  0  0  0  0  0  0
   56.2931   25.3879   46.0407 C   0  0  0  0  0  0  0  0  0  0  0  0
   55.0937   25.7533   46.1495 O   0  0  0  0  0  0  0  0  0  0  0  0
   59.4178   21.6859   44.7859 C   0  0  0  0  0  0  0  0  0  0  0  0
   58.1153   22.4065   44.6047 C   0  0  0  0  0  0  0  0  0  0  0  0
   57.1732   21.9424   43.6697 C   0  0  0  0  0  0  0  0  0  0  0  0
   55.9650   22.6192   43.4989 C   0  0  0  0  0  0  0  0  0  0  0  0
   55.6810   23.7545   44.2631 C   0  0  0  0  0  0  0  0  0  0  0  0
   56.6128   24.2262   45.1967 C   0  0  0  0  0  0  0  0  0  0  0  0
   57.8427   23.5683   45.3431 C   0  0  0  0  0  0  0  0  0  0  0  0
   58.8611   30.1515   49.8221 C   0  0  0  0  0  0  0  0  0  0  0  0
   58.6260   29.3812   50.7928 O   0  0  0  0  0  0  0  0  0  0  0  0
   58.5687   31.5552   49.9278 N   0  0  0  0  0  0  0  0  0  0  0  0
   58.9449   32.5924   49.0126 C   0  0  0  0  0  0  0  0  0  0  0  0
   59.9745   33.4668   49.3817 C   0  0  0  0  0  0  0  0  0  0  0  0
   60.4104   34.4600   48.5002 C   0  0  0  0  0  0  0  0  0  0  0  0
   59.8382   34.5732   47.2307 C   0  0  0  0  0  0  0  0  0  0  0  0
   58.8200   33.6933   46.8363 C   0  0  0  0  0  0  0  0  0  0  0  0
   58.3719   32.7096   47.7305 C   0  0  0  0  0  0  0  0  0  0  0  0
   58.1460   33.7764   45.2020 S   0  0  0  0  0  0  0  0  0  0  0  0
   59.2363   34.1659   44.2362 O   0  0  0  0  0  0  0  0  0  0  0  0
   57.0920   34.8490   45.1636 O   0  0  0  0  0  0  0  0  0  0  0  0
   57.4745   32.2415   44.6859 N   0  0  0  0  0  0  0  0  0  0  0  0
   57.6040   32.0698   43.2299 C   0  0  0  0  0  0  0  0  0  0  0  0
   56.9280   30.7507   42.7933 C   0  0  0  0  0  0  0  0  0  0  0  0
   56.7393   29.8389   43.8655 O   0  0  0  0  0  0  0  0  0  0  0  0
   57.9044   29.7847   44.6680 C   0  0  0  0  0  0  0  0  0  0  0  0
   58.0937   31.1168   45.4198 C   0  0  0  0  0  0  0  0  0  0  0  0
 13 14  1  0
 14 15  2  0
 15 16  1  0
 16 17  2  0
 17 18  1  0
 18 11  1  0
 11 12  2  0
 11 10  1  0
 10  7  1  0
  7  8  2  0
  7  9  2  0
  7  1  1  0
  1  2  2  0
  2  3  1  0
  3  4  2  0
  4  5  1  0
  5 20  1  0
 20 21  2  0
 20 22  1  0
 22 23  1  0
 23 24  2  0
 24 25  1  0
 25 26  2  0
 26 27  1  0
 27 29  1  0
 29 30  2  0
 29 31  2  0
 29 32  1  0
 32 33  1  0
 33 34  1  0
 34 35  1  0
 35 36  1  0
 36 37  1  0
 27 28  2  0
  5  6  2  0
 18 19  2  0
 19 14  1  0
  6  1  1  0
 28 23  1  0
 37 32  1  0
M  CHG 1  10  -1
M  CHG 1  22  -1
M  END
> <UniqueID>
67

> <SMILES>
Cc1cccc(C(=O)[N-]S(=O)(=O)c2cccc(C(=O)[N-]c3cccc(S(=O)(=O)N4CCOCC4)c3)c2)c1

> <Energy>
79.92180727038475

> <Genealogy>
Cc1cccc(C(=O)[N-]S(=O)(=O)c2cccc(C(=O)[N-]c3cccc(S(=O)(=O)N4CCOCC4)c3)c2)c1 (protonated)
Cc1cccc(C(=O)[N-]S(=O)(=O)c2cccc(C(=O)[N-]c3cccc(S(=O)(=O)N4CCOCC4)c3)c2)c1 (3D coordinates assigned)
Cc1cccc(C(=O)[N-]S(=O)(=O)c2cccc(C(=O)[N-]c3cccc(S(=O)(=O)N4CCOCC4)c3)c2)c1 (nonaromatic ring conformer: 79.92180727038475 kcal/mol)

> <smiles>
Cc1cccc(C(=O)NS(=O)(=O)c2cccc(C(=O)Nc3cccc(S(=O)(=O)N4CCOCC4)c3)c2)c1

> <score_type>
oracle

> <origin>
adg

> <m_score__min__energy>
-14.77

> <m_primary>
energy

> <minimizedAffinity>
-6.73187

> <minimizedRMSD>
0.63874

> <CNNscore>
0.4983817041

> <CNNaffinity>
6.7495918274

> <CNN_VS>
3.3638730049

> <CNNaffinity_variance>
0.0845865533

$$$$
73:0


 34 36  0  0  0  0  0  0  0  0999 V2000
   58.9240   31.6069   50.9609 N   0  0  0  0  0  0  0  0  0  0  0  0
   58.8301   30.5555   49.9381 C   0  0  0  0  0  0  0  0  0  0  0  0
   58.9357   31.1307   48.5081 C   0  0  0  0  0  0  0  0  0  0  0  0
   59.2056   32.5836   48.4708 N   0  0  0  0  0  0  0  0  0  0  0  0
   58.8264   33.3679   47.3147 C   0  0  0  0  0  0  0  0  0  0  0  0
   59.0603   34.6104   47.3005 O   0  0  0  0  0  0  0  0  0  0  0  0
   59.9974   33.2450   49.5189 C   0  0  0  0  0  0  0  0  0  0  0  0
   60.1561   32.3810   50.7653 C   0  0  0  0  0  0  0  0  0  0  0  0
   58.1984   32.7452   46.1241 C   0  0  0  0  0  0  0  0  0  0  0  0
   58.8169   31.8929   45.2907 C   0  0  0  0  0  0  0  0  0  0  0  0
   58.7242   30.4137   45.3509 C   0  0  0  0  0  0  0  0  0  0  0  0
   59.8650   29.6036   45.4934 C   0  0  0  0  0  0  0  0  0  0  0  0
   59.7462   28.2123   45.5258 C   0  0  0  0  0  0  0  0  0  0  0  0
   58.4894   27.5987   45.3845 C   0  0  0  0  0  0  0  0  0  0  0  0
   57.3561   28.4102   45.2015 C   0  0  0  0  0  0  0  0  0  0  0  0
   57.4748   29.8018   45.1743 C   0  0  0  0  0  0  0  0  0  0  0  0
   58.3665   26.1220   45.4023 C   0  0  0  0  0  0  0  0  0  0  0  0
   57.3964   25.4672   44.5844 N   0  0  0  0  0  0  0  0  0  0  0  0
   59.1306   25.4276   46.1227 O   0  0  0  0  0  0  0  0  0  0  0  0
   56.7926   25.9981   44.0163 H   0  0  0  0  0  0  0  0  0  0  0  0
   58.7858   31.0742   52.3350 C   0  0  0  0  0  0  0  0  0  0  0  0
   56.2345   31.1546   52.4323 N   0  0  0  0  0  0  0  0  0  0  0  0
   57.4550   30.4157   52.6004 C   0  0  0  0  0  0  0  0  0  0  0  0
   57.4278   29.2155   52.9663 O   0  0  0  0  0  0  0  0  0  0  0  0
   56.2955   32.1017   52.1707 H   0  0  0  0  0  0  0  0  0  0  0  0
   52.3894   29.4309   53.0340 C   0  0  0  0  0  0  0  0  0  0  0  0
   53.3803   29.3554   54.0293 C   0  0  0  0  0  0  0  0  0  0  0  0
   54.6425   29.9120   53.8221 C   0  0  0  0  0  0  0  0  0  0  0  0
   54.9304   30.5855   52.6257 C   0  0  0  0  0  0  0  0  0  0  0  0
   53.9466   30.6646   51.6244 C   0  0  0  0  0  0  0  0  0  0  0  0
   52.6798   30.1080   51.8270 C   0  0  0  0  0  0  0  0  0  0  0  0
   51.7147   30.2617   50.8366 O   0  0  0  0  0  0  0  0  0  0  0  0
   50.1197   29.4691   54.0347 C   0  0  0  0  0  0  0  0  0  0  0  0
   51.0611   28.8426   53.3282 C   0  0  0  0  0  0  0  0  0  0  0  0
 33 34  2  0
 34 26  1  0
 26 27  2  0
 27 28  1  0
 28 29  2  0
 29 22  1  0
 22 23  1  0
 23 24  2  0
 23 21  1  0
 21  1  1  0
  1  2  1  0
  2  3  1  0
  3  4  1  0
  4  5  1  0
  5  6  2  0
  5  9  1  0
  9 10  2  0
 10 11  1  0
 11 12  2  0
 12 13  1  0
 13 14  2  0
 14 17  1  0
 17 18  1  0
 17 19  2  0
 14 15  1  0
 15 16  2  0
  4  7  1  0
  7  8  1  0
 29 30  1  0
 30 31  2  0
 31 32  1  0
 31 26  1  0
  8  1  1  0
 16 11  1  0
 22 25  1  0
 18 20  1  0
M  CHG 1  18  -1
M  CHG 1  32  -1
M  END
> <UniqueID>
71

> <SMILES>
C=Cc1ccc(NC(=O)CN2CCN(C(=O)C=Cc3ccc(C([NH-])=O)cc3)CC2)cc1[O-]

> <Energy>
81.63502945506363

> <Genealogy>
C=Cc1ccc(NC(=O)CN2CCN(C(=O)C=Cc3ccc(C([NH-])=O)cc3)CC2)cc1[O-] (protonated)
C=Cc1ccc(NC(=O)CN2CCN(C(=O)C=Cc3ccc(C([NH-])=O)cc3)CC2)cc1[O-] (3D coordinates assigned)
C=Cc1ccc(NC(=O)CN2CCN(C(=O)C=Cc3ccc(C([NH-])=O)cc3)CC2)cc1[O-] (nonaromatic ring conformer: 81.63502945506363 kcal/mol)

> <smiles>
C=Cc1ccc(NC(=O)CN2CCN(C(=O)C=Cc3ccc(C(N)=O)cc3)CC2)cc1O

> <score_type>
oracle

> <origin>
adg

> <m_score__min__energy>
-16.289999999999999

> <m_primary>
energy

> <minimizedAffinity>
-7.98269

> <minimizedRMSD>
1.23203

> <CNNscore>
0.1029265597

> <CNNaffinity>
5.9568576813

> <CNN_VS>
0.6131188869

> <CNNaffinity_variance>
0.2939053774

$$$$
77:0


 33 36  0  0  0  0  0  0  0  0999 V2000
   59.9040   27.8364   48.2281 C   0  0  0  0  0  0  0  0  0  0  0  0
   59.5980   28.3812   47.0501 C   0  0  0  0  0  0  0  0  0  0  0  0
   60.0542   27.5562   45.5329 S   0  0  0  0  0  0  0  0  0  0  0  0
   58.3288   27.2080   45.1496 C   0  0  0  0  0  0  0  0  0  0  0  0
   57.9094   25.9805   44.7935 C   0  0  0  0  0  0  0  0  0  0  0  0
   57.3877   28.3538   45.1584 C   0  0  0  0  0  0  0  0  0  0  0  0
   56.3289   28.3108   44.4755 O   0  0  0  0  0  0  0  0  0  0  0  0
   57.6625   29.5221   45.9509 N   0  0  0  0  0  0  0  0  0  0  0  0
   58.7259   29.5722   46.9221 C   0  0  0  0  0  0  0  0  0  0  0  0
   58.8734   30.6842   47.6727 C   0  0  0  0  0  0  0  0  0  0  0  0
   57.1008   30.3207   45.8247 H   0  0  0  0  0  0  0  0  0  0  0  0
   57.3346   24.9970   45.7265 C   0  0  0  0  0  0  0  0  0  0  0  0
   57.9565   23.8554   46.0699 N   0  0  0  0  0  0  0  0  0  0  0  0
   57.0535   23.2294   46.8545 C   0  0  0  0  0  0  0  0  0  0  0  0
   57.2796   22.1132   47.3898 O   0  0  0  0  0  0  0  0  0  0  0  0
   55.8866   23.8888   47.0131 N   0  0  0  0  0  0  0  0  0  0  0  0
   56.0753   24.9996   46.2825 C   0  0  0  0  0  0  0  0  0  0  0  0
   55.0971   25.9664   46.0901 O   0  0  0  0  0  0  0  0  0  0  0  0
   59.6385   31.8866   47.2759 C   0  0  0  0  0  0  0  0  0  0  0  0
   59.0452   32.9175   46.5288 C   0  0  0  0  0  0  0  0  0  0  0  0
   59.7806   34.0570   46.1956 C   0  0  0  0  0  0  0  0  0  0  0  0
   61.1073   34.1838   46.6134 C   0  0  0  0  0  0  0  0  0  0  0  0
   61.7125   33.1701   47.3741 C   0  0  0  0  0  0  0  0  0  0  0  0
   60.9613   32.0330   47.7203 C   0  0  0  0  0  0  0  0  0  0  0  0
   63.1117   33.3089   47.8394 C   0  0  0  0  0  0  0  0  0  0  0  0
   64.0330   33.4529   46.9904 O   0  0  0  0  0  0  0  0  0  0  0  0
   63.4461   33.2621   49.2393 N   0  0  0  0  0  0  0  0  0  0  0  0
   64.7049   32.6367   49.6534 C   0  0  0  0  0  0  0  0  0  0  0  0
   64.8251   32.6018   51.1863 C   0  0  0  0  0  0  0  0  0  0  0  0
   63.5330   32.2863   51.8311 N   0  0  0  0  0  0  0  0  0  0  0  0
   63.1124   30.8989   51.5680 C   0  0  0  0  0  0  0  0  0  0  0  0
   62.4595   33.2627   51.5102 C   0  0  0  0  0  0  0  0  0  0  0  0
   62.6986   34.0641   50.2145 C   0  0  0  0  0  0  0  0  0  0  0  0
  1  2  2  0
  2  3  1  0
  3  4  1  0
  4  5  2  0
  5 12  1  0
 12 13  1  0
 13 14  1  0
 14 15  2  0
 14 16  1  0
 16 17  1  0
 17 18  1  0
  4  6  1  0
  6  7  2  0
  6  8  1  0
  8  9  1  0
  9 10  2  0
 10 19  1  0
 19 20  2  0
 20 21  1  0
 21 22  2  0
 22 23  1  0
 23 25  1  0
 25 26  2  0
 25 27  1  0
 27 28  1  0
 28 29  1  0
 29 30  1  0
 30 31  1  0
 30 32  1  0
 32 33  1  0
 23 24  2  0
  9  2  1  0
 24 19  1  0
 17 12  2  0
 33 27  1  0
  8 11  1  0
M  CHG 1  13  -1
M  CHG 1  16  -1
M  CHG 1  18  -1
M  END
> <UniqueID>
75

> <SMILES>
C=C1SC(=Cc2[n-]c(=O)[n-]c2[O-])C(=O)NC1=Cc1cccc(C(=O)N2CCN(C)CC2)c1

> <Energy>
116.27374446457904

> <Genealogy>
C=C1SC(=Cc2[n-]c(=O)[n-]c2[O-])C(=O)NC1=Cc1cccc(C(=O)N2CCN(C)CC2)c1 (protonated)
C=C1SC(=Cc2[n-]c(=O)[n-]c2[O-])C(=O)NC1=Cc1cccc(C(=O)N2CCN(C)CC2)c1 (3D coordinates assigned)
C=C1SC(=Cc2[n-]c(=O)[n-]c2[O-])C(=O)NC1=Cc1cccc(C(=O)N2CCN(C)CC2)c1 (nonaromatic ring conformer: 116.27374446457904 kcal/mol)

> <smiles>
C=C1SC(=Cc2[nH]c(=O)[nH]c2O)C(=O)NC1=Cc1cccc(C(=O)N2CCN(C)CC2)c1

> <score_type>
oracle

> <origin>
adg

> <m_score__min__energy>
-17.600000000000001

> <m_primary>
energy

> <minimizedAffinity>
-8.78593

> <minimizedRMSD>
0.83248

> <CNNscore>
0.1784950793

> <CNNaffinity>
6.5504412651

> <CNN_VS>
1.1692215204

> <CNNaffinity_variance>
0.0084924251

$$$$
81:0


 32 35  0  0  0  0  0  0  0  0999 V2000
   58.3166   29.9577   53.6240 C   0  0  0  0  0  0  0  0  0  0  0  0
   56.3691   31.5990   51.9889 C   0  0  0  0  0  0  0  0  0  0  0  0
   56.0237   30.4679   52.6244 C   0  0  0  0  0  0  0  0  0  0  0  0
   54.7802   29.8178   52.5504 C   0  0  0  0  0  0  0  0  0  0  0  0
   53.5972   30.2214   52.0451 C   0  0  0  0  0  0  0  0  0  0  0  0
   54.9504   28.5836   53.1484 C   0  0  0  0  0  0  0  0  0  0  0  0
   56.2400   28.5479   53.6338 C   0  0  0  0  0  0  0  0  0  0  0  0
   56.8386   27.3638   54.3328 C   0  0  0  0  0  0  0  0  0  0  0  0
   56.8997   29.6894   53.3223 N   0  0  0  0  0  0  0  0  0  0  0  0
   52.4892   30.8104   52.8173 C   0  0  0  0  0  0  0  0  0  0  0  0
   52.1964   30.5046   54.0947 N   0  0  0  0  0  0  0  0  0  0  0  0
   51.0457   31.1753   54.3188 C   0  0  0  0  0  0  0  0  0  0  0  0
   50.4542   31.1533   55.4290 O   0  0  0  0  0  0  0  0  0  0  0  0
   50.5735   31.8617   53.2568 N   0  0  0  0  0  0  0  0  0  0  0  0
   51.4917   31.6075   52.3115 C   0  0  0  0  0  0  0  0  0  0  0  0
   51.4200   32.0922   51.0110 O   0  0  0  0  0  0  0  0  0  0  0  0
   59.2010   29.5108   52.4869 C   0  0  0  0  0  0  0  0  0  0  0  0
   60.2816   28.6471   52.7254 C   0  0  0  0  0  0  0  0  0  0  0  0
   61.1179   28.2581   51.6774 C   0  0  0  0  0  0  0  0  0  0  0  0
   60.8785   28.7201   50.3815 C   0  0  0  0  0  0  0  0  0  0  0  0
   59.7902   29.5613   50.1160 C   0  0  0  0  0  0  0  0  0  0  0  0
   58.9622   29.9675   51.1790 C   0  0  0  0  0  0  0  0  0  0  0  0
   59.5802   30.0419   48.7763 N   0  0  0  0  0  0  0  0  0  0  0  0
   58.9837   29.2577   47.7286 C   0  0  0  0  0  0  0  0  0  0  0  0
   58.8926   28.0051   47.8519 O   0  0  0  0  0  0  0  0  0  0  0  0
   59.8613   30.9613   48.5643 H   0  0  0  0  0  0  0  0  0  0  0  0
   58.5128   29.9080   46.4879 C   0  0  0  0  0  0  0  0  0  0  0  0
   58.6941   31.2487   46.3154 N   0  0  0  0  0  0  0  0  0  0  0  0
   58.2740   31.8975   45.1982 C   0  0  0  0  0  0  0  0  0  0  0  0
   57.6338   31.1921   44.1792 C   0  0  0  0  0  0  0  0  0  0  0  0
   57.4307   29.8193   44.3240 C   0  0  0  0  0  0  0  0  0  0  0  0
   57.8685   29.1692   45.4809 C   0  0  0  0  0  0  0  0  0  0  0  0
  2  3  2  0
  3  4  1  0
  4  5  2  0
  5 10  1  0
 10 11  1  0
 11 12  1  0
 12 13  2  0
 12 14  1  0
 14 15  1  0
 15 16  1  0
  4  6  1  0
  6  7  2  0
  7  8  1  0
  7  9  1  0
  9  1  1  0
  1 17  1  0
 17 18  2  0
 18 19  1  0
 19 20  2  0
 20 21  1  0
 21 23  1  0
 23 24  1  0
 24 25  2  0
 24 27  1  0
 27 28  2  0
 28 29  1  0
 29 30  2  0
 30 31  1  0
 31 32  2  0
 21 22  2  0
  9  3  1  0
 22 17  1  0
 15 10  2  0
 32 27  1  0
 23 26  1  0
M  CHG 1  11  -1
M  CHG 1  14  -1
M  CHG 1  16  -1
M  END
> <UniqueID>
79

> <SMILES>
C=c1/c(=C\c2[n-]c(=O)[n-]c2[O-])cc(C)n1Cc1cccc(NC(=O)c2ccccn2)c1

> <Energy>
126.19838562490726

> <Genealogy>
C=c1c(=Cc2[n-]c(=O)[n-]c2[O-])cc(C)n1Cc1cccc(NC(=O)c2ccccn2)c1 (protonated)
C=c1/c(=C\c2[n-]c(=O)[n-]c2[O-])cc(C)n1Cc1cccc(NC(=O)c2ccccn2)c1 (cis-trans isomerization)
C=c1/c(=C\c2[n-]c(=O)[n-]c2[O-])cc(C)n1Cc1cccc(NC(=O)c2ccccn2)c1 (3D coordinates assigned)
C=c1/c(=C\c2[n-]c(=O)[n-]c2[O-])cc(C)n1Cc1cccc(NC(=O)c2ccccn2)c1 (optimized conformer: 126.19838562490726 kcal/mol)

> <smiles>
C=c1c(=Cc2[nH]c(=O)[nH]c2O)cc(C)n1Cc1cccc(NC(=O)c2ccccn2)c1

> <score_type>
oracle

> <origin>
adg

> <m_score__min__energy>
-17.170000000000002

> <m_primary>
energy

> <minimizedAffinity>
-7.61152

> <minimizedRMSD>
1.09189

> <CNNscore>
0.1245756075

> <CNNaffinity>
5.4385485649

> <CNN_VS>
0.6775105000

> <CNNaffinity_variance>
0.3797140419

$$$$
13:0


 32 35  0  0  0  0  0  0  0  0999 V2000
   58.0912   27.0789   45.2743 C   0  0  0  0  0  0  0  0  0  0  0  0
   58.6635   27.5273   46.4024 C   0  0  0  0  0  0  0  0  0  0  0  0
   59.7115   26.5987   47.3415 S   0  0  0  0  0  0  0  0  0  0  0  0
   59.9621   27.8029   48.4870 C   0  0  0  0  0  0  0  0  0  0  0  0
   60.7523   27.6603   49.5546 C   0  0  0  0  0  0  0  0  0  0  0  0
   59.2715   28.9302   48.1680 N   0  0  0  0  0  0  0  0  0  0  0  0
   58.5601   28.7891   47.0092 C   0  0  0  0  0  0  0  0  0  0  0  0
   57.8951   29.7434   46.5190 O   0  0  0  0  0  0  0  0  0  0  0  0
   57.3288   25.8247   45.1648 C   0  0  0  0  0  0  0  0  0  0  0  0
   57.9588   24.3787   44.5759 S   0  0  0  0  0  0  0  0  0  0  0  0
   56.5684   23.5109   44.9539 C   0  0  0  0  0  0  0  0  0  0  0  0
   56.4268   22.2417   44.7048 N   0  0  0  0  0  0  0  0  0  0  0  0
   55.6312   24.2824   45.5524 N   0  0  0  0  0  0  0  0  0  0  0  0
   56.0603   25.5656   45.6847 C   0  0  0  0  0  0  0  0  0  0  0  0
   55.2882   26.5274   46.3243 O   0  0  0  0  0  0  0  0  0  0  0  0
   57.1117   21.4977   43.6847 C   0  0  0  0  0  0  0  0  0  0  0  0
   56.4811   20.7658   42.8734 O   0  0  0  0  0  0  0  0  0  0  0  0
   58.6027   21.5378   43.6291 C   0  0  0  0  0  0  0  0  0  0  0  0
   59.2669   30.1368   48.9473 C   0  0  0  0  0  0  0  0  0  0  0  0
   58.9824   30.0816   50.3154 C   0  0  0  0  0  0  0  0  0  0  0  0
   58.9786   31.2522   51.0738 C   0  0  0  0  0  0  0  0  0  0  0  0
   59.2696   32.4803   50.4728 C   0  0  0  0  0  0  0  0  0  0  0  0
   59.5717   32.5602   49.0949 C   0  0  0  0  0  0  0  0  0  0  0  0
   59.5516   31.3676   48.3405 C   0  0  0  0  0  0  0  0  0  0  0  0
   59.8936   33.8547   48.4025 C   0  0  0  0  0  0  0  0  0  0  0  0
   60.9193   34.4856   48.7817 O   0  0  0  0  0  0  0  0  0  0  0  0
   59.1140   34.4175   47.3107 N   0  0  0  0  0  0  0  0  0  0  0  0
   57.9508   33.6022   46.9044 C   0  0  0  0  0  0  0  0  0  0  0  0
   57.9572   33.5013   45.3812 C   0  0  0  0  0  0  0  0  0  0  0  0
   59.0450   34.4449   44.9027 C   0  0  0  0  0  0  0  0  0  0  0  0
   59.9261   34.6945   46.1164 C   0  0  0  0  0  0  0  0  0  0  0  0
   59.6792   33.8416   47.8748 H   0  0  0  0  0  0  0  0  0  0  0  0
  1  9  1  0
  9 10  1  0
 10 11  1  0
 11 12  2  0
 12 16  1  0
 16 17  2  0
 16 18  1  0
 11 13  1  0
 13 14  1  0
 14 15  1  0
  1  2  2  0
  2  3  1  0
  3  4  1  0
  4  5  2  0
  4  6  1  0
  6 19  1  0
 19 20  2  0
 20 21  1  0
 21 22  2  0
 22 23  1  0
 23 25  1  0
 25 26  2  0
 25 27  1  0
 27 28  1  0
 28 29  1  0
 29 30  1  0
 30 31  1  0
 23 24  2  0
  6  7  1  0
  7  8  2  0
 14  9  2  0
  7  2  1  0
 24 19  1  0
 31 27  1  0
 27 32  1  0
M  CHG 1  13  -1
M  CHG 1  15  -1
M  CHG 1  27   1
M  END
> <UniqueID>
13

> <SMILES>
C=c1sc(=Cc2s/c(=N/C(C)=O)[n-]c2[O-])c(=O)n1-c1cccc(C(=O)[NH+]2CCCC2)c1

> <Energy>
142.29517980836226

> <Genealogy>
C=c1sc(=Cc2sc(=NC(C)=O)[n-]c2[O-])c(=O)n1-c1cccc(C(=O)[NH+]2CCCC2)c1 (protonated)
C=c1sc(=Cc2s/c(=N/C(C)=O)[n-]c2[O-])c(=O)n1-c1cccc(C(=O)[NH+]2CCCC2)c1 (cis-trans isomerization)
C=c1sc(=Cc2s/c(=N/C(C)=O)[n-]c2[O-])c(=O)n1-c1cccc(C(=O)[NH+]2CCCC2)c1 (3D coordinates assigned)
C=c1sc(=Cc2s/c(=N/C(C)=O)[n-]c2[O-])c(=O)n1-c1cccc(C(=O)[NH+]2CCCC2)c1 (nonaromatic ring conformer: 142.29517980836226 kcal/mol)

> <smiles>
C=c1sc(=Cc2sc(=NC(C)=O)[nH]c2O)c(=O)n1-c1cccc(C(=O)N2CCCC2)c1

> <score_type>
oracle

> <origin>
adg

> <m_score__min__energy>
-14.68

> <m_primary>
energy

> <minimizedAffinity>
-6.80009

> <minimizedRMSD>
0.42063

> <CNNscore>
0.2337083220

> <CNNaffinity>
6.8116359711

> <CNN_VS>
1.5919359922

> <CNNaffinity_variance>
0.0464867689

$$$$
22:0


 32 35  0  0  0  0  0  0  0  0999 V2000
   57.3728   28.7810   45.2802 C   0  0  0  0  0  0  0  0  0  0  0  0
   56.2106   29.2550   45.1655 O   0  0  0  0  0  0  0  0  0  0  0  0
   58.3642   29.4998   46.0332 N   0  0  0  0  0  0  0  0  0  0  0  0
   58.4583   30.9619   45.9245 C   0  0  0  0  0  0  0  0  0  0  0  0
   58.9703   31.5604   47.2394 C   0  0  0  0  0  0  0  0  0  0  0  0
   60.2699   30.9841   47.6558 N   0  0  0  0  0  0  0  0  0  0  0  0
   60.4728   29.5612   47.2879 C   0  0  0  0  0  0  0  0  0  0  0  0
   59.1590   28.8070   47.0540 C   0  0  0  0  0  0  0  0  0  0  0  0
   58.1555   23.9992   44.2880 C   0  0  0  0  0  0  0  0  0  0  0  0
   57.9358   25.3139   44.2302 C   0  0  0  0  0  0  0  0  0  0  0  0
   58.0534   25.9770   43.1009 O   0  0  0  0  0  0  0  0  0  0  0  0
   57.9036   27.2598   43.3323 C   0  0  0  0  0  0  0  0  0  0  0  0
   57.6645   27.4650   44.6749 C   0  0  0  0  0  0  0  0  0  0  0  0
   57.6546   26.2091   45.2763 C   0  0  0  0  0  0  0  0  0  0  0  0
   57.4487   25.9798   46.5907 C   0  0  0  0  0  0  0  0  0  0  0  0
   56.6440   24.8808   47.1462 C   0  0  0  0  0  0  0  0  0  0  0  0
   57.1156   23.9292   47.9723 N   0  0  0  0  0  0  0  0  0  0  0  0
   56.0701   23.0839   48.1039 C   0  0  0  0  0  0  0  0  0  0  0  0
   56.1110   22.0632   48.8368 O   0  0  0  0  0  0  0  0  0  0  0  0
   54.9744   23.4237   47.3904 N   0  0  0  0  0  0  0  0  0  0  0  0
   55.3639   24.5520   46.7761 C   0  0  0  0  0  0  0  0  0  0  0  0
   54.5697   25.2600   45.8861 O   0  0  0  0  0  0  0  0  0  0  0  0
   60.5230   31.2412   49.3696 S   0  0  0  0  0  0  0  0  0  0  0  0
   60.1925   29.9810   50.1195 O   0  0  0  0  0  0  0  0  0  0  0  0
   59.5999   32.3262   49.8542 O   0  0  0  0  0  0  0  0  0  0  0  0
   62.1941   31.7019   49.7097 C   0  0  0  0  0  0  0  0  0  0  0  0
   62.8337   32.6711   48.9219 C   0  0  0  0  0  0  0  0  0  0  0  0
   64.1706   33.0029   49.1632 C   0  0  0  0  0  0  0  0  0  0  0  0
   64.8855   32.3661   50.1925 C   0  0  0  0  0  0  0  0  0  0  0  0
   66.3156   32.7311   50.4708 C   0  0  0  0  0  0  0  0  0  0  0  0
   64.2360   31.4203   51.0004 C   0  0  0  0  0  0  0  0  0  0  0  0
   62.8981   31.0885   50.7582 C   0  0  0  0  0  0  0  0  0  0  0  0
  9 10  2  0
 10 11  1  0
 11 12  1  0
 12 13  2  0
 13  1  1  0
  1  2  2  0
  1  3  1  0
  3  4  1  0
  4  5  1  0
  5  6  1  0
  6 23  1  0
 23 24  2  0
 23 25  2  0
 23 26  1  0
 26 27  2  0
 27 28  1  0
 28 29  2  0
 29 30  1  0
 29 31  1  0
 31 32  2  0
  6  7  1  0
  7  8  1  0
 13 14  1  0
 14 15  2  0
 15 16  1  0
 16 17  1  0
 17 18  1  0
 18 19  2  0
 18 20  1  0
 20 21  1  0
 21 22  1  0
 14 10  1  0
 21 16  2  0
  8  3  1  0
 32 26  1  0
M  CHG 1  17  -1
M  CHG 1  20  -1
M  CHG 1  22  -1
M  END
> <UniqueID>
21

> <SMILES>
C=c1occ(C(=O)N2CCN(S(=O)(=O)c3ccc(C)cc3)CC2)c1=Cc1[n-]c(=O)[n-]c1[O-]

> <Energy>
132.16551666235924

> <Genealogy>
C=c1occ(C(=O)N2CCN(S(=O)(=O)c3ccc(C)cc3)CC2)c1=Cc1[n-]c(=O)[n-]c1[O-] (protonated)
C=c1occ(C(=O)N2CCN(S(=O)(=O)c3ccc(C)cc3)CC2)c1=Cc1[n-]c(=O)[n-]c1[O-] (3D coordinates assigned)
C=c1occ(C(=O)N2CCN(S(=O)(=O)c3ccc(C)cc3)CC2)c1=Cc1[n-]c(=O)[n-]c1[O-] (nonaromatic ring conformer: 132.16551666235924 kcal/mol)

> <smiles>
C=c1occ(C(=O)N2CCN(S(=O)(=O)c3ccc(C)cc3)CC2)c1=Cc1[nH]c(=O)[nH]c1O

> <score_type>
oracle

> <origin>
adg

> <m_score__min__energy>
-16.649999999999999

> <m_primary>
energy

> <minimizedAffinity>
-6.47377

> <minimizedRMSD>
2.14998

> <CNNscore>
0.0860581696

> <CNNaffinity>
6.0716500282

> <CNN_VS>
0.5225150585

> <CNNaffinity_variance>
0.1577278525

$$$$
24:0


 28 30  0  0  0  0  0  0  0  0999 V2000
   59.6215   29.8333   48.0187 C   0  0  0  0  0  0  0  0  0  0  0  0
   59.1363   30.4165   46.9157 C   0  0  0  0  0  0  0  0  0  0  0  0
   58.8979   29.8149   45.6772 C   0  0  0  0  0  0  0  0  0  0  0  0
   59.1454   28.5383   45.3282 C   0  0  0  0  0  0  0  0  0  0  0  0
   58.3750   30.8095   44.8553 C   0  0  0  0  0  0  0  0  0  0  0  0
   58.3030   31.9575   45.6209 C   0  0  0  0  0  0  0  0  0  0  0  0
   57.7328   33.2599   45.1504 C   0  0  0  0  0  0  0  0  0  0  0  0
   58.7961   31.7194   46.8555 N   0  0  0  0  0  0  0  0  0  0  0  0
   58.3005   27.3980   45.7478 C   0  0  0  0  0  0  0  0  0  0  0  0
   56.9005   27.4305   45.6220 C   0  0  0  0  0  0  0  0  0  0  0  0
   56.2585   28.5454   45.0956 O   0  0  0  0  0  0  0  0  0  0  0  0
   56.1589   26.3732   46.0395 N   0  0  0  0  0  0  0  0  0  0  0  0
   56.7429   25.2822   46.5969 C   0  0  0  0  0  0  0  0  0  0  0  0
   56.0344   24.3131   46.9720 O   0  0  0  0  0  0  0  0  0  0  0  0
   58.0899   25.2392   46.7580 N   0  0  0  0  0  0  0  0  0  0  0  0
   58.8771   26.2712   46.3544 C   0  0  0  0  0  0  0  0  0  0  0  0
   60.1235   26.1969   46.5226 O   0  0  0  0  0  0  0  0  0  0  0  0
   58.8327   32.6001   47.9233 O   0  0  0  0  0  0  0  0  0  0  0  0
   59.7168   33.6842   47.9755 C   0  0  0  0  0  0  0  0  0  0  0  0
   59.3516   34.8206   47.5664 O   0  0  0  0  0  0  0  0  0  0  0  0
   61.0606   33.4959   48.4667 N   0  0  0  0  0  0  0  0  0  0  0  0
   61.9570   33.1473   47.3521 C   0  0  0  0  0  0  0  0  0  0  0  0
   63.4189   33.0783   47.8375 C   0  0  0  0  0  0  0  0  0  0  0  0
   63.5678   32.4742   49.1858 N   0  0  0  0  0  0  0  0  0  0  0  0
   63.9448   33.4644   50.2104 C   0  0  0  0  0  0  0  0  0  0  0  0
   62.4010   31.6728   49.5988 C   0  0  0  0  0  0  0  0  0  0  0  0
   61.0767   32.4684   49.5376 C   0  0  0  0  0  0  0  0  0  0  0  0
   61.1828   32.6086   48.0580 H   0  0  0  0  0  0  0  0  0  0  0  0
  1  2  2  0
  2  3  1  0
  3  4  2  0
  4  9  1  0
  9 10  2  0
 10 11  1  0
 10 12  1  0
 12 13  1  0
 13 14  2  0
 13 15  1  0
 15 16  1  0
 16 17  2  0
  3  5  1  0
  5  6  2  0
  6  7  1  0
  6  8  1  0
  8 18  1  0
 18 19  1  0
 19 20  2  0
 19 21  1  0
 21 22  1  0
 22 23  1  0
 23 24  1  0
 24 25  1  0
 24 26  1  0
 26 27  1  0
  8  2  1  0
 27 21  1  0
 16  9  1  0
 21 28  1  0
M  CHG 1  11  -1
M  CHG 1  12  -1
M  CHG 1  15  -1
M  CHG 1  21   1
M  END
> <UniqueID>
23

> <SMILES>
C=c1c(=Cc2c([O-])[n-]c(=O)[n-]c2=O)cc(C)n1OC(=O)[NH+]1CCN(C)CC1

> <Energy>
103.23238955018662

> <Genealogy>
C=c1c(=Cc2c([O-])[n-]c(=O)[n-]c2=O)cc(C)n1OC(=O)[NH+]1CCN(C)CC1 (protonated)
C=c1c(=Cc2c([O-])[n-]c(=O)[n-]c2=O)cc(C)n1OC(=O)[NH+]1CCN(C)CC1 (3D coordinates assigned)
C=c1c(=Cc2c([O-])[n-]c(=O)[n-]c2=O)cc(C)n1OC(=O)[NH+]1CCN(C)CC1 (nonaromatic ring conformer: 103.23238955018662 kcal/mol)

> <smiles>
C=c1c(=Cc2c(O)[nH]c(=O)[nH]c2=O)cc(C)n1OC(=O)N1CCN(C)CC1

> <score_type>
oracle

> <origin>
adg

> <m_score__min__energy>
-14.65

> <m_primary>
energy

> <minimizedAffinity>
-7.71465

> <minimizedRMSD>
0.99008

> <CNNscore>
0.3832829893

> <CNNaffinity>
6.6392426491

> <CNN_VS>
2.5447087288

> <CNNaffinity_variance>
0.0991924033

$$$$
30:0


 33 36  0  0  0  0  0  0  0  0999 V2000
   57.0378   30.1874   52.5653 C   0  0  0  0  0  0  0  0  0  0  0  0
   57.3903   29.9564   51.3757 O   0  0  0  0  0  0  0  0  0  0  0  0
   52.6202   28.2058   53.6567 C   0  0  0  0  0  0  0  0  0  0  0  0
   53.9270   28.4812   53.5668 C   0  0  0  0  0  0  0  0  0  0  0  0
   54.8635   27.6784   54.1034 N   0  0  0  0  0  0  0  0  0  0  0  0
   56.0591   28.2337   53.8520 C   0  0  0  0  0  0  0  0  0  0  0  0
   57.3437   27.6565   54.3750 C   0  0  0  0  0  0  0  0  0  0  0  0
   55.9090   29.3893   53.0938 C   0  0  0  0  0  0  0  0  0  0  0  0
   54.5241   29.6026   52.9759 C   0  0  0  0  0  0  0  0  0  0  0  0
   53.8556   30.6542   52.4504 C   0  0  0  0  0  0  0  0  0  0  0  0
   54.7017   26.8383   54.5906 H   0  0  0  0  0  0  0  0  0  0  0  0
   52.7728   30.5869   51.4578 C   0  0  0  0  0  0  0  0  0  0  0  0
   52.7331   29.5860   50.0995 S   0  0  0  0  0  0  0  0  0  0  0  0
   51.3984   30.3686   49.4493 C   0  0  0  0  0  0  0  0  0  0  0  0
   50.8378   30.0402   48.3722 O   0  0  0  0  0  0  0  0  0  0  0  0
   50.9923   31.4122   50.2031 N   0  0  0  0  0  0  0  0  0  0  0  0
   51.7749   31.5497   51.3077 C   0  0  0  0  0  0  0  0  0  0  0  0
   51.5842   32.5896   52.2108 O   0  0  0  0  0  0  0  0  0  0  0  0
   57.6365   31.3162   53.2693 N   0  0  0  0  0  0  0  0  0  0  0  0
   57.5407   32.6197   52.5929 C   0  0  0  0  0  0  0  0  0  0  0  0
   58.5739   32.8640   51.4813 C   0  0  0  0  0  0  0  0  0  0  0  0
   59.8589   32.0049   51.5213 C   0  0  0  0  0  0  0  0  0  0  0  0
   60.1248   31.1555   52.7869 C   0  0  0  0  0  0  0  0  0  0  0  0
   58.9846   31.0687   53.8131 C   0  0  0  0  0  0  0  0  0  0  0  0
   57.0070   30.6554   52.9001 H   0  0  0  0  0  0  0  0  0  0  0  0
   61.0847   32.8097   51.1177 C   0  0  0  0  0  0  0  0  0  0  0  0
   61.7901   33.2966   52.0429 O   0  0  0  0  0  0  0  0  0  0  0  0
   61.4774   33.0300   49.7387 N   0  0  0  0  0  0  0  0  0  0  0  0
   62.6241   33.9057   49.4502 C   0  0  0  0  0  0  0  0  0  0  0  0
   63.3097   33.4739   48.1493 C   0  0  0  0  0  0  0  0  0  0  0  0
   62.3761   33.3572   47.0928 O   0  0  0  0  0  0  0  0  0  0  0  0
   61.4545   32.3275   47.3872 C   0  0  0  0  0  0  0  0  0  0  0  0
   60.6046   32.7018   48.6032 C   0  0  0  0  0  0  0  0  0  0  0  0
  3  4  2  0
  4  5  1  0
  5  6  1  0
  6  7  1  0
  6  8  2  0
  8  1  1  0
  1  2  2  0
 19  1  1  0
 19 20  1  0
 20 21  1  0
 21 22  1  0
 22 26  1  0
 26 27  2  0
 26 28  1  0
 28 29  1  0
 29 30  1  0
 30 31  1  0
 31 32  1  0
 32 33  1  0
 22 23  1  0
 23 24  1  0
  8  9  1  0
  9 10  2  0
 10 12  1  0
 12 13  1  0
 13 14  1  0
 14 15  2  0
 14 16  1  0
 16 17  1  0
 17 18  1  0
  9  4  1  0
 17 12  2  0
 24 19  1  0
 33 28  1  0
  5 11  1  0
 19 25  1  0
M  CHG 1  16  -1
M  CHG 1  18  -1
M  CHG 1  19   1
M  END
> <UniqueID>
29

> <SMILES>
C=c1[nH]c(C)c(C(=O)[NH+]2CCC(C(=O)N3CCOCC3)CC2)c1=Cc1sc(=O)[n-]c1[O-]

> <Energy>
159.51906550627962

> <Genealogy>
C=c1[nH]c(C)c(C(=O)[NH+]2CCC(C(=O)N3CCOCC3)CC2)c1=Cc1sc(=O)[n-]c1[O-] (protonated)
C=c1[nH]c(C)c(C(=O)[NH+]2CCC(C(=O)N3CCOCC3)CC2)c1=Cc1sc(=O)[n-]c1[O-] (3D coordinates assigned)
C=c1[nH]c(C)c(C(=O)[NH+]2CCC(C(=O)N3CCOCC3)CC2)c1=Cc1sc(=O)[n-]c1[O-] (nonaromatic ring conformer: 159.51906550627962 kcal/mol)

> <smiles>
C=c1[nH]c(C)c(C(=O)N2CCC(C(=O)N3CCOCC3)CC2)c1=Cc1sc(=O)[nH]c1O

> <score_type>
oracle

> <origin>
adg

> <m_score__min__energy>
-15.109999999999999

> <m_primary>
energy

> <minimizedAffinity>
-4.55225

> <minimizedRMSD>
1.40240

> <CNNscore>
0.1387654543

> <CNNaffinity>
4.9112362862

> <CNN_VS>
0.6815099120

> <CNNaffinity_variance>
0.7542766929

$$$$
31:0


 32 35  0  0  0  0  0  0  0  0999 V2000
   59.6202   29.1353   47.1938 C   0  0  0  0  0  0  0  0  0  0  0  0
   58.7267   28.9753   46.2049 C   0  0  0  0  0  0  0  0  0  0  0  0
   58.1413   27.7711   45.7833 C   0  0  0  0  0  0  0  0  0  0  0  0
   58.4630   26.4908   46.0546 C   0  0  0  0  0  0  0  0  0  0  0  0
   57.0979   28.1203   44.9427 C   0  0  0  0  0  0  0  0  0  0  0  0
   57.1325   29.4924   44.8112 C   0  0  0  0  0  0  0  0  0  0  0  0
   56.2051   30.2866   43.9429 C   0  0  0  0  0  0  0  0  0  0  0  0
   58.1177   30.0142   45.5770 N   0  0  0  0  0  0  0  0  0  0  0  0
   57.5884   25.5145   46.7243 C   0  0  0  0  0  0  0  0  0  0  0  0
   58.0230   24.4499   47.4238 N   0  0  0  0  0  0  0  0  0  0  0  0
   56.8847   23.7893   47.7256 C   0  0  0  0  0  0  0  0  0  0  0  0
   56.8740   22.7280   48.4012 O   0  0  0  0  0  0  0  0  0  0  0  0
   55.7568   24.3524   47.2387 N   0  0  0  0  0  0  0  0  0  0  0  0
   56.2252   25.4359   46.5957 C   0  0  0  0  0  0  0  0  0  0  0  0
   55.4224   26.3330   45.9007 O   0  0  0  0  0  0  0  0  0  0  0  0
   54.4954   26.2014   45.8646 H   0  0  0  0  0  0  0  0  0  0  0  0
   58.4544   31.4108   45.6820 C   0  0  0  0  0  0  0  0  0  0  0  0
   58.3036   32.2633   44.5837 C   0  0  0  0  0  0  0  0  0  0  0  0
   58.6488   33.6123   44.6876 C   0  0  0  0  0  0  0  0  0  0  0  0
   59.1586   34.1314   45.8909 C   0  0  0  0  0  0  0  0  0  0  0  0
   59.5409   35.5876   45.9503 C   0  0  0  0  0  0  0  0  0  0  0  0
   59.2959   33.2757   47.0138 C   0  0  0  0  0  0  0  0  0  0  0  0
   58.9425   31.9220   46.8908 C   0  0  0  0  0  0  0  0  0  0  0  0
   59.7810   33.7614   48.3300 C   0  0  0  0  0  0  0  0  0  0  0  0
   59.0663   34.5527   49.0011 O   0  0  0  0  0  0  0  0  0  0  0  0
   61.0216   33.2854   48.8879 N   0  0  0  0  0  0  0  0  0  0  0  0
   61.1539   33.1586   50.3421 C   0  0  0  0  0  0  0  0  0  0  0  0
   62.4712   32.4569   50.7141 C   0  0  0  0  0  0  0  0  0  0  0  0
   62.7710   31.3326   49.8018 N   0  0  0  0  0  0  0  0  0  0  0  0
   61.8354   30.2094   49.9870 C   0  0  0  0  0  0  0  0  0  0  0  0
   62.8788   31.7366   48.3752 C   0  0  0  0  0  0  0  0  0  0  0  0
   62.2078   33.0854   48.0495 C   0  0  0  0  0  0  0  0  0  0  0  0
  1  2  2  0
  2  3  1  0
  3  4  2  0
  4  9  1  0
  9 10  1  0
 10 11  1  0
 11 12  2  0
 11 13  1  0
 13 14  1  0
 14 15  1  0
  3  5  1  0
  5  6  2  0
  6  7  1  0
  6  8  1  0
  8 17  1  0
 17 18  2  0
 18 19  1  0
 19 20  2  0
 20 21  1  0
 20 22  1  0
 22 24  1  0
 24 25  2  0
 24 26  1  0
 26 27  1  0
 27 28  1  0
 28 29  1  0
 29 30  1  0
 29 31  1  0
 31 32  1  0
 22 23  2  0
  8  2  1  0
 23 17  1  0
 14  9  2  0
 32 26  1  0
 15 16  1  0
M  CHG 1  10  -1
M  CHG 1  13  -1
M  END
> <UniqueID>
30

> <SMILES>
C=c1c(=Cc2[n-]c(=O)[n-]c2O)cc(C)n1-c1ccc(C)c(C(=O)N2CCN(C)CC2)c1

> <Energy>
144.72865771956842

> <Genealogy>
C=c1c(=Cc2[n-]c(=O)[n-]c2O)cc(C)n1-c1ccc(C)c(C(=O)N2CCN(C)CC2)c1 (protonated)
C=c1c(=Cc2[n-]c(=O)[n-]c2O)cc(C)n1-c1ccc(C)c(C(=O)N2CCN(C)CC2)c1 (3D coordinates assigned)
C=c1c(=Cc2[n-]c(=O)[n-]c2O)cc(C)n1-c1ccc(C)c(C(=O)N2CCN(C)CC2)c1 (nonaromatic ring conformer: 144.72865771956842 kcal/mol)

> <smiles>
C=c1c(=Cc2[nH]c(=O)[nH]c2O)cc(C)n1-c1ccc(C)c(C(=O)N2CCN(C)CC2)c1

> <score_type>
oracle

> <origin>
adg

> <m_score__min__energy>
-14.720000000000001

> <m_primary>
energy

> <minimizedAffinity>
-9.32352

> <minimizedRMSD>
0.40970

> <CNNscore>
0.5613920689

> <CNNaffinity>
7.0807151794

> <CNN_VS>
3.9750573635

> <CNNaffinity_variance>
0.0819426626

$$$$
47:0


 33 36  0  0  0  0  0  0  0  0999 V2000
   57.1617   28.5621   54.7806 C   0  0  0  0  0  0  0  0  0  0  0  0
   57.1614   29.3109   53.6660 C   0  0  0  0  0  0  0  0  0  0  0  0
   56.0770   30.0365   53.1617 C   0  0  0  0  0  0  0  0  0  0  0  0
   54.8301   30.1015   53.6663 C   0  0  0  0  0  0  0  0  0  0  0  0
   56.5148   30.6185   51.9804 C   0  0  0  0  0  0  0  0  0  0  0  0
   57.8321   30.2465   51.8222 C   0  0  0  0  0  0  0  0  0  0  0  0
   58.2323   29.4521   52.8412 N   0  0  0  0  0  0  0  0  0  0  0  0
   53.6167   30.2653   52.8474 C   0  0  0  0  0  0  0  0  0  0  0  0
   53.5719   29.9893   51.5316 N   0  0  0  0  0  0  0  0  0  0  0  0
   52.2768   30.1963   51.2107 C   0  0  0  0  0  0  0  0  0  0  0  0
   51.8361   30.0507   50.0407 O   0  0  0  0  0  0  0  0  0  0  0  0
   51.4885   30.5626   52.2439 N   0  0  0  0  0  0  0  0  0  0  0  0
   52.3483   30.5897   53.2752 C   0  0  0  0  0  0  0  0  0  0  0  0
   51.9670   30.8585   54.5843 O   0  0  0  0  0  0  0  0  0  0  0  0
   58.6341   30.5601   50.6295 C   0  0  0  0  0  0  0  0  0  0  0  0
   58.8168   29.6722   49.7590 O   0  0  0  0  0  0  0  0  0  0  0  0
   59.2032   31.8607   50.4311 N   0  0  0  0  0  0  0  0  0  0  0  0
   60.3166   32.1568   49.5328 C   0  0  0  0  0  0  0  0  0  0  0  0
   59.8239   32.8024   48.2625 C   0  0  0  0  0  0  0  0  0  0  0  0
   59.9921   34.1827   48.0608 C   0  0  0  0  0  0  0  0  0  0  0  0
   59.5768   34.7751   46.8652 C   0  0  0  0  0  0  0  0  0  0  0  0
   58.9849   33.9975   45.8656 C   0  0  0  0  0  0  0  0  0  0  0  0
   58.5896   34.5723   44.7029 F   0  0  0  0  0  0  0  0  0  0  0  0
   58.8008   32.6267   46.0656 C   0  0  0  0  0  0  0  0  0  0  0  0
   59.2115   32.0303   47.2604 C   0  0  0  0  0  0  0  0  0  0  0  0
   59.5603   28.8316   52.9864 C   0  0  0  0  0  0  0  0  0  0  0  0
   60.4145   29.5948   54.0031 C   0  0  0  0  0  0  0  0  0  0  0  0
   61.5975   30.1861   53.3429 N   0  0  0  0  0  0  0  0  0  0  0  0
   61.4322   31.6370   53.1374 C   0  0  0  0  0  0  0  0  0  0  0  0
   62.6956   32.2313   52.4810 C   0  0  0  0  0  0  0  0  0  0  0  0
   63.6174   31.2284   52.0888 O   0  0  0  0  0  0  0  0  0  0  0  0
   62.9673   30.2800   51.2670 C   0  0  0  0  0  0  0  0  0  0  0  0
   61.8744   29.5251   52.0506 C   0  0  0  0  0  0  0  0  0  0  0  0
  1  2  2  0
  2  3  1  0
  3  4  2  0
  4  8  1  0
  8  9  1  0
  9 10  1  0
 10 11  2  0
 10 12  1  0
 12 13  1  0
 13 14  1  0
  3  5  1  0
  5  6  2  0
  6 15  1  0
 15 16  2  0
 15 17  1  0
 17 18  1  0
 18 19  1  0
 19 20  2  0
 20 21  1  0
 21 22  2  0
 22 23  1  0
 22 24  1  0
 24 25  2  0
  6  7  1  0
  7 26  1  0
 26 27  1  0
 27 28  1  0
 28 29  1  0
 29 30  1  0
 30 31  1  0
 31 32  1  0
 32 33  1  0
  7  2  1  0
 33 28  1  0
 13  8  2  0
 25 19  1  0
M  CHG 1   9  -1
M  CHG 1  12  -1
M  CHG 1  14  -1
M  CHG 1  17  -1
M  END
> <UniqueID>
45

> <SMILES>
C=c1/c(=C/c2[n-]c(=O)[n-]c2[O-])cc(C(=O)[N-]Cc2ccc(F)cc2)n1CCN1CCOCC1

> <Energy>
131.44604848792508

> <Genealogy>
C=c1c(=Cc2[n-]c(=O)[n-]c2[O-])cc(C(=O)[N-]Cc2ccc(F)cc2)n1CCN1CCOCC1 (protonated)
C=c1/c(=C/c2[n-]c(=O)[n-]c2[O-])cc(C(=O)[N-]Cc2ccc(F)cc2)n1CCN1CCOCC1 (cis-trans isomerization)
C=c1/c(=C/c2[n-]c(=O)[n-]c2[O-])cc(C(=O)[N-]Cc2ccc(F)cc2)n1CCN1CCOCC1 (3D coordinates assigned)
C=c1/c(=C/c2[n-]c(=O)[n-]c2[O-])cc(C(=O)[N-]Cc2ccc(F)cc2)n1CCN1CCOCC1 (nonaromatic ring conformer: 131.44604848792508 kcal/mol)

> <smiles>
C=c1c(=Cc2[nH]c(=O)[nH]c2O)cc(C(=O)NCc2ccc(F)cc2)n1CCN1CCOCC1

> <score_type>
oracle

> <origin>
adg

> <m_score__min__energy>
-17.73

> <m_primary>
energy

> <minimizedAffinity>
-6.96975

> <minimizedRMSD>
2.67798

> <CNNscore>
0.2134488076

> <CNNaffinity>
5.8892803192

> <CNN_VS>
1.2570598125

> <CNNaffinity_variance>
0.1134649515

$$$$
54:0


 30 33  0  0  0  0  0  0  0  0999 V2000
   59.2284   31.4402   47.0401 C   0  0  0  0  0  0  0  0  0  0  0  0
   58.3660   31.7881   47.8951 O   0  0  0  0  0  0  0  0  0  0  0  0
   59.0130   30.2379   46.2818 N   0  0  0  0  0  0  0  0  0  0  0  0
   58.3916   30.1542   45.0857 C   0  0  0  0  0  0  0  0  0  0  0  0
   57.8443   31.3180   44.3149 C   0  0  0  0  0  0  0  0  0  0  0  0
   58.3428   28.8426   44.6580 C   0  0  0  0  0  0  0  0  0  0  0  0
   58.9459   28.0737   45.6495 C   0  0  0  0  0  0  0  0  0  0  0  0
   59.1096   26.7312   45.6611 C   0  0  0  0  0  0  0  0  0  0  0  0
   59.3505   28.9757   46.6441 C   0  0  0  0  0  0  0  0  0  0  0  0
   59.9986   28.6755   47.7821 C   0  0  0  0  0  0  0  0  0  0  0  0
   61.2697   31.8115   49.1529 C   0  0  0  0  0  0  0  0  0  0  0  0
   60.7402   32.9627   49.5833 C   0  0  0  0  0  0  0  0  0  0  0  0
   60.5441   34.0972   48.6021 C   0  0  0  0  0  0  0  0  0  0  0  0
   60.2527   33.6472   47.1402 C   0  0  0  0  0  0  0  0  0  0  0  0
   60.4533   32.1963   46.8762 N   0  0  0  0  0  0  0  0  0  0  0  0
   61.5407   31.6213   47.6923 C   0  0  0  0  0  0  0  0  0  0  0  0
   59.7264   31.8600   47.4487 H   0  0  0  0  0  0  0  0  0  0  0  0
   60.4086   33.1572   51.0191 C   0  0  0  0  0  0  0  0  0  0  0  0
   59.1185   33.5637   51.4120 C   0  0  0  0  0  0  0  0  0  0  0  0
   58.8213   33.7660   52.7634 C   0  0  0  0  0  0  0  0  0  0  0  0
   59.8050   33.5718   53.7345 C   0  0  0  0  0  0  0  0  0  0  0  0
   61.0905   33.1768   53.3579 C   0  0  0  0  0  0  0  0  0  0  0  0
   61.3941   32.9724   52.0070 C   0  0  0  0  0  0  0  0  0  0  0  0
   58.1151   25.7376   46.1258 C   0  0  0  0  0  0  0  0  0  0  0  0
   58.3774   24.4878   46.5482 N   0  0  0  0  0  0  0  0  0  0  0  0
   57.1597   23.9944   46.8594 C   0  0  0  0  0  0  0  0  0  0  0  0
   56.9926   22.8255   47.2956 O   0  0  0  0  0  0  0  0  0  0  0  0
   56.1355   24.8511   46.6641 N   0  0  0  0  0  0  0  0  0  0  0  0
   56.7571   25.9483   46.2011 C   0  0  0  0  0  0  0  0  0  0  0  0
   56.0948   27.1194   45.8526 O   0  0  0  0  0  0  0  0  0  0  0  0
 11 12  2  0
 12 18  1  0
 18 19  2  0
 19 20  1  0
 20 21  2  0
 21 22  1  0
 22 23  2  0
 12 13  1  0
 13 14  1  0
 14 15  1  0
 15  1  1  0
  1  2  2  0
  1  3  1  0
  3  4  1  0
  4  5  1  0
  4  6  2  0
  6  7  1  0
  7  8  2  0
  8 24  1  0
 24 25  1  0
 25 26  1  0
 26 27  2  0
 26 28  1  0
 28 29  1  0
 29 30  1  0
  7  9  1  0
  9 10  2  0
 15 16  1  0
 16 11  1  0
 23 18  1  0
  9  3  1  0
 29 24  2  0
 15 17  1  0
M  CHG 1  15   1
M  CHG 1  25  -1
M  CHG 1  28  -1
M  CHG 1  30  -1
M  END
> <UniqueID>
52

> <SMILES>
C=c1/c(=C/c2[n-]c(=O)[n-]c2[O-])cc(C)n1C(=O)[N@@H+]1CC=C(c2ccccc2)CC1

> <Energy>
134.20425441812134

> <Genealogy>
C=c1c(=Cc2[n-]c(=O)[n-]c2[O-])cc(C)n1C(=O)[NH+]1CC=C(c2ccccc2)CC1 (protonated)
C=c1c(=Cc2[n-]c(=O)[n-]c2[O-])cc(C)n1C(=O)[N@@H+]1CC=C(c2ccccc2)CC1 (chirality)
C=c1/c(=C/c2[n-]c(=O)[n-]c2[O-])cc(C)n1C(=O)[N@@H+]1CC=C(c2ccccc2)CC1 (cis-trans isomerization)
C=c1/c(=C/c2[n-]c(=O)[n-]c2[O-])cc(C)n1C(=O)[N@@H+]1CC=C(c2ccccc2)CC1 (3D coordinates assigned)
C=c1/c(=C/c2[n-]c(=O)[n-]c2[O-])cc(C)n1C(=O)[N@@H+]1CC=C(c2ccccc2)CC1 (nonaromatic ring conformer: 134.20425441812134 kcal/mol)

> <smiles>
C=c1c(=Cc2[nH]c(=O)[nH]c2O)cc(C)n1C(=O)N1CC=C(c2ccccc2)CC1

> <score_type>
oracle

> <origin>
adg

> <m_score__min__energy>
-16.370000000000001

> <m_primary>
energy

> <minimizedAffinity>
-8.54285

> <minimizedRMSD>
1.48279

> <CNNscore>
0.1844294518

> <CNNaffinity>
6.7465519905

> <CNN_VS>
1.2442629337

> <CNNaffinity_variance>
0.0215786975

$$$$
55:0


 38 42  0  0  0  0  0  0  0  0999 V2000
   62.1875   33.9553   49.2728 C   0  0  0  0  0  0  0  0  0  0  0  0
   61.5975   32.7588   49.2725 C   0  0  0  0  0  0  0  0  0  0  0  0
   60.5192   32.3722   50.0517 C   0  0  0  0  0  0  0  0  0  0  0  0
   60.2480   31.0439   49.7368 C   0  0  0  0  0  0  0  0  0  0  0  0
   61.1774   30.6903   48.7431 C   0  0  0  0  0  0  0  0  0  0  0  0
   61.2957   29.5401   48.0523 C   0  0  0  0  0  0  0  0  0  0  0  0
   61.9902   31.7390   48.4881 N   0  0  0  0  0  0  0  0  0  0  0  0
   62.7352   31.7540   47.8446 H   0  0  0  0  0  0  0  0  0  0  0  0
   60.2791   28.4866   47.9637 C   0  0  0  0  0  0  0  0  0  0  0  0
   60.3300   27.2169   48.5228 C   0  0  0  0  0  0  0  0  0  0  0  0
   61.3168   26.7787   49.3977 O   0  0  0  0  0  0  0  0  0  0  0  0
   59.3055   26.4321   48.1112 N   0  0  0  0  0  0  0  0  0  0  0  0
   58.6193   27.2171   47.2572 C   0  0  0  0  0  0  0  0  0  0  0  0
   57.4797   26.8638   46.5375 C   0  0  0  0  0  0  0  0  0  0  0  0
   56.9278   27.8179   45.6631 C   0  0  0  0  0  0  0  0  0  0  0  0
   57.5232   29.0942   45.5197 C   0  0  0  0  0  0  0  0  0  0  0  0
   58.6732   29.4220   46.2647 C   0  0  0  0  0  0  0  0  0  0  0  0
   59.1903   28.4578   47.1277 C   0  0  0  0  0  0  0  0  0  0  0  0
   56.8126   30.2748   44.4202 S   0  0  0  0  0  0  0  0  0  0  0  0
   57.4470   30.1562   43.0624 O   0  0  0  0  0  0  0  0  0  0  0  0
   55.3427   29.9953   44.2843 O   0  0  0  0  0  0  0  0  0  0  0  0
   57.0292   31.8913   45.0203 N   0  0  0  0  0  0  0  0  0  0  0  0
   58.4432   32.2863   44.9916 C   0  0  0  0  0  0  0  0  0  0  0  0
   58.5623   33.7082   44.4588 C   0  0  0  0  0  0  0  0  0  0  0  0
   58.4297   34.6290   45.6668 C   0  0  0  0  0  0  0  0  0  0  0  0
   58.6379   33.7643   46.9082 C   0  0  0  0  0  0  0  0  0  0  0  0
   58.9882   32.3691   46.4101 C   0  0  0  0  0  0  0  0  0  0  0  0
   59.7358   33.2361   50.9582 C   0  0  0  0  0  0  0  0  0  0  0  0
   58.8676   34.0047   50.4629 O   0  0  0  0  0  0  0  0  0  0  0  0
   59.9343   33.2018   52.3858 N   0  0  0  0  0  0  0  0  0  0  0  0
   61.2385   32.8674   52.9716 C   0  0  0  0  0  0  0  0  0  0  0  0
   61.0527   31.9219   54.1697 C   0  0  0  0  0  0  0  0  0  0  0  0
   59.9071   32.2735   55.0526 N   0  0  0  0  0  0  0  0  0  0  0  0
   58.9113   31.1895   55.1153 C   0  0  0  0  0  0  0  0  0  0  0  0
   59.2789   33.5763   54.7471 C   0  0  0  0  0  0  0  0  0  0  0  0
   58.8686   33.6885   53.2703 C   0  0  0  0  0  0  0  0  0  0  0  0
   59.0298   30.2949   50.2176 C   0  0  0  0  0  0  0  0  0  0  0  0
   59.2888   29.6532   51.5776 C   0  0  0  0  0  0  0  0  0  0  0  0
  1  2  2  0
  2  3  1  0
  3 28  1  0
 28 29  2  0
 28 30  1  0
 30 31  1  0
 31 32  1  0
 32 33  1  0
 33 34  1  0
 33 35  1  0
 35 36  1  0
  3  4  2  0
  4 37  1  0
 37 38  1  0
  4  5  1  0
  5  6  2  0
  6  9  1  0
  9 10  2  0
 10 11  1  0
 10 12  1  0
 12 13  1  0
 13 14  2  0
 14 15  1  0
 15 16  2  0
 16 19  1  0
 19 20  2  0
 19 21  2  0
 19 22  1  0
 22 23  1  0
 23 24  1  0
 24 25  1  0
 25 26  1  0
 26 27  1  0
 16 17  1  0
 17 18  2  0
  5  7  1  0
  7  2  1  0
 36 30  1  0
 18  9  1  0
 18 13  1  0
 27 23  1  0
  7  8  1  0
M  CHG 1  11  -1
M  CHG 1  12  -1
M  CHG 1  22  -1
M  END
> <UniqueID>
53

> <SMILES>
C=c1[nH]/c(=C/c2c([O-])[n-]c3ccc(S(=O)(=O)[N-]C4CCCC4)cc23)c(CC)c1C(=O)N1CCN(C)CC1

> <Energy>
149.76965328793992

> <Genealogy>
C=c1[nH]c(=Cc2c([O-])[n-]c3ccc(S(=O)(=O)[N-]C4CCCC4)cc23)c(CC)c1C(=O)N1CCN(C)CC1 (protonated)
C=c1[nH]/c(=C/c2c([O-])[n-]c3ccc(S(=O)(=O)[N-]C4CCCC4)cc23)c(CC)c1C(=O)N1CCN(C)CC1 (cis-trans isomerization)
C=c1[nH]/c(=C/c2c([O-])[n-]c3ccc(S(=O)(=O)[N-]C4CCCC4)cc23)c(CC)c1C(=O)N1CCN(C)CC1 (3D coordinates assigned)
C=c1[nH]/c(=C/c2c([O-])[n-]c3ccc(S(=O)(=O)[N-]C4CCCC4)cc23)c(CC)c1C(=O)N1CCN(C)CC1 (nonaromatic ring conformer: 149.76965328793992 kcal/mol)

> <smiles>
C=c1[nH]c(=Cc2c(O)[nH]c3ccc(S(=O)(=O)NC4CCCC4)cc23)c(CC)c1C(=O)N1CCN(C)CC1

> <score_type>
oracle

> <origin>
adg

> <m_score__min__energy>
-14.98

> <m_primary>
energy

> <minimizedAffinity>
-6.00472

> <minimizedRMSD>
1.04886

> <CNNscore>
0.3601428866

> <CNNaffinity>
7.3467330933

> <CNN_VS>
2.6458735466

> <CNNaffinity_variance>
0.1424561888

$$$$
57:0


 27 30  0  0  0  0  0  0  0  0999 V2000
   59.0054   27.1253   45.7824 N   0  0  0  0  0  0  0  0  0  0  0  0
   60.2936   27.7400   46.1810 C   0  0  0  0  0  0  0  0  0  0  0  0
   60.1416   29.2394   46.4837 C   0  0  0  0  0  0  0  0  0  0  0  0
   59.1777   29.8603   45.5652 N   0  0  0  0  0  0  0  0  0  0  0  0
   58.4338   31.0385   45.9452 C   0  0  0  0  0  0  0  0  0  0  0  0
   57.2776   31.2202   45.4752 O   0  0  0  0  0  0  0  0  0  0  0  0
   58.9044   29.1830   44.2928 C   0  0  0  0  0  0  0  0  0  0  0  0
   58.4599   27.7263   44.5359 C   0  0  0  0  0  0  0  0  0  0  0  0
   58.9861   32.0472   46.8749 C   0  0  0  0  0  0  0  0  0  0  0  0
   59.6313   33.2100   46.4882 C   0  0  0  0  0  0  0  0  0  0  0  0
   60.0107   33.8480   47.6471 C   0  0  0  0  0  0  0  0  0  0  0  0
   59.5825   33.0366   48.6732 C   0  0  0  0  0  0  0  0  0  0  0  0
   59.7670   33.3112   50.0243 O   0  0  0  0  0  0  0  0  0  0  0  0
   58.9593   31.9330   48.2176 N   0  0  0  0  0  0  0  0  0  0  0  0
   60.2081   34.0950   50.2871 H   0  0  0  0  0  0  0  0  0  0  0  0
   57.9996   27.1096   46.8688 C   0  0  0  0  0  0  0  0  0  0  0  0
   55.9598   24.1318   46.4614 C   0  0  0  0  0  0  0  0  0  0  0  0
   57.1709   24.6845   46.8238 C   0  0  0  0  0  0  0  0  0  0  0  0
   56.9758   26.0374   46.6506 C   0  0  0  0  0  0  0  0  0  0  0  0
   55.7259   26.2683   46.2048 N   0  0  0  0  0  0  0  0  0  0  0  0
   55.1039   25.1044   46.0925 N   0  0  0  0  0  0  0  0  0  0  0  0
   55.3281   22.1232   47.5393 O   0  0  0  0  0  0  0  0  0  0  0  0
   55.6260   22.7027   46.4590 C   0  0  0  0  0  0  0  0  0  0  0  0
   55.6408   21.9740   45.2302 N   0  0  0  0  0  0  0  0  0  0  0  0
   56.4346   22.3982   44.0842 C   0  0  0  0  0  0  0  0  0  0  0  0
   57.8947   21.9940   44.1745 C   0  0  0  0  0  0  0  0  0  0  0  0
   56.9452   21.2339   43.2566 C   0  0  0  0  0  0  0  0  0  0  0  0
 22 23  2  0
 23 24  1  0
 24 25  1  0
 25 26  1  0
 26 27  1  0
 23 17  1  0
 17 18  1  0
 18 19  2  0
 19 16  1  0
 16  1  1  0
  1  2  1  0
  2  3  1  0
  3  4  1  0
  4  5  1  0
  5  6  2  0
  5  9  1  0
  9 10  2  0
 10 11  1  0
 11 12  2  0
 12 13  1  0
 12 14  1  0
  4  7  1  0
  7  8  1  0
 19 20  1  0
 20 21  1  0
 27 25  1  0
 21 17  2  0
  8  1  1  0
 14  9  1  0
 13 15  1  0
M  CHG 1  14  -1
M  CHG 1  20  -1
M  CHG 1  24  -1
M  END
> <UniqueID>
55

> <SMILES>
O=C([N-]C1CC1)c1cc(CN2CCN(C(=O)c3ccc(O)[n-]3)CC2)[n-]n1

> <Energy>
372.8473496528537

> <Genealogy>
O=C([N-]C1CC1)c1cc(CN2CCN(C(=O)c3ccc(O)[n-]3)CC2)[n-]n1 (protonated)
O=C([N-]C1CC1)c1cc(CN2CCN(C(=O)c3ccc(O)[n-]3)CC2)[n-]n1 (3D coordinates assigned)
O=C([N-]C1CC1)c1cc(CN2CCN(C(=O)c3ccc(O)[n-]3)CC2)[n-]n1 (nonaromatic ring conformer: 372.8473496528537 kcal/mol)

> <smiles>
O=C(NC1CC1)c1cc(CN2CCN(C(=O)c3ccc(O)[nH]3)CC2)[nH]n1

> <score_type>
oracle

> <origin>
adg

> <m_score__min__energy>
-14.140000000000001

> <m_primary>
energy

> <minimizedAffinity>
-7.02784

> <minimizedRMSD>
1.49583

> <CNNscore>
0.1611639261

> <CNNaffinity>
6.2520003319

> <CNN_VS>
1.0075969696

> <CNNaffinity_variance>
0.3619695902

$$$$
64:0


 29 31  0  0  0  0  0  0  0  0999 V2000
   60.4302   28.2054   45.5238 C   0  0  0  0  0  0  0  0  0  0  0  0
   59.0916   28.1486   45.4567 C   0  0  0  0  0  0  0  0  0  0  0  0
   58.2732   27.0697   45.7931 C   0  0  0  0  0  0  0  0  0  0  0  0
   58.6664   25.8506   46.2021 C   0  0  0  0  0  0  0  0  0  0  0  0
   56.9811   27.4171   45.6081 N   0  0  0  0  0  0  0  0  0  0  0  0
   57.0406   28.6926   45.1757 C   0  0  0  0  0  0  0  0  0  0  0  0
   56.0124   29.3706   44.9136 O   0  0  0  0  0  0  0  0  0  0  0  0
   58.2982   29.1691   45.0581 N   0  0  0  0  0  0  0  0  0  0  0  0
   57.9966   24.5936   45.8131 C   0  0  0  0  0  0  0  0  0  0  0  0
   58.4862   23.7707   44.8597 N   0  0  0  0  0  0  0  0  0  0  0  0
   57.6389   22.7198   44.8679 C   0  0  0  0  0  0  0  0  0  0  0  0
   57.7814   21.7219   44.1130 O   0  0  0  0  0  0  0  0  0  0  0  0
   56.6453   22.8314   45.7726 N   0  0  0  0  0  0  0  0  0  0  0  0
   55.6473   21.8298   46.1304 C   0  0  0  0  0  0  0  0  0  0  0  0
   56.8897   23.9971   46.3933 C   0  0  0  0  0  0  0  0  0  0  0  0
   56.1702   24.4642   47.4876 O   0  0  0  0  0  0  0  0  0  0  0  0
   58.6797   30.5348   44.6824 C   0  0  0  0  0  0  0  0  0  0  0  0
   58.6554   31.4217   45.8895 C   0  0  0  0  0  0  0  0  0  0  0  0
   57.6622   32.1743   46.0815 O   0  0  0  0  0  0  0  0  0  0  0  0
   59.7502   31.4113   46.8195 N   0  0  0  0  0  0  0  0  0  0  0  0
   60.5974   30.9959   46.5385 H   0  0  0  0  0  0  0  0  0  0  0  0
   59.6727   31.9767   48.1405 C   0  0  0  0  0  0  0  0  0  0  0  0
   59.2668   31.1785   49.2243 C   0  0  0  0  0  0  0  0  0  0  0  0
   59.2224   31.7047   50.5165 C   0  0  0  0  0  0  0  0  0  0  0  0
   59.6079   33.0298   50.7546 C   0  0  0  0  0  0  0  0  0  0  0  0
   59.5255   33.6010   52.1396 C   0  0  0  0  0  0  0  0  0  0  0  0
   60.0104   33.8338   49.6808 C   0  0  0  0  0  0  0  0  0  0  0  0
   60.0492   33.3188   48.3737 C   0  0  0  0  0  0  0  0  0  0  0  0
   60.4997   34.2043   47.2427 C   0  0  0  0  0  0  0  0  0  0  0  0
  1  2  2  0
  2  3  1  0
  3  4  2  0
  4  9  1  0
  9 10  1  0
 10 11  1  0
 11 12  2  0
 11 13  1  0
 13 14  1  0
 13 15  1  0
 15 16  1  0
  3  5  1  0
  5  6  1  0
  6  7  2  0
  6  8  1  0
  8 17  1  0
 17 18  1  0
 18 19  2  0
 18 20  1  0
 20 22  1  0
 22 23  2  0
 23 24  1  0
 24 25  2  0
 25 26  1  0
 25 27  1  0
 27 28  2  0
 28 29  1  0
  8  2  1  0
 28 22  1  0
 15  9  2  0
 20 21  1  0
M  CHG 1   5  -1
M  CHG 1  10  -1
M  CHG 1  16  -1
M  END
> <UniqueID>
62

> <SMILES>
C=c1/c(=C/c2[n-]c(=O)n(C)c2[O-])[n-]c(=O)n1CC(=O)Nc1ccc(C)cc1C

> <Energy>
119.46165571871043

> <Genealogy>
C=c1c(=Cc2[n-]c(=O)n(C)c2[O-])[n-]c(=O)n1CC(=O)Nc1ccc(C)cc1C (protonated)
C=c1/c(=C/c2[n-]c(=O)n(C)c2[O-])[n-]c(=O)n1CC(=O)Nc1ccc(C)cc1C (cis-trans isomerization)
C=c1/c(=C/c2[n-]c(=O)n(C)c2[O-])[n-]c(=O)n1CC(=O)Nc1ccc(C)cc1C (3D coordinates assigned)
C=c1/c(=C/c2[n-]c(=O)n(C)c2[O-])[n-]c(=O)n1CC(=O)Nc1ccc(C)cc1C (optimized conformer: 119.46165571871043 kcal/mol)

> <smiles>
C=c1c(=Cc2[nH]c(=O)n(C)c2O)[nH]c(=O)n1CC(=O)Nc1ccc(C)cc1C

> <score_type>
oracle

> <origin>
adg

> <m_score__min__energy>
-15.56

> <m_primary>
energy

> <minimizedAffinity>
-7.95813

> <minimizedRMSD>
1.47578

> <CNNscore>
0.4351487160

> <CNNaffinity>
6.8536162376

> <CNN_VS>
2.9823422432

> <CNNaffinity_variance>
0.4075542688

$$$$
77:0


 29 31  0  0  0  0  0  0  0  0999 V2000
   58.1692   27.4385   43.7461 C   0  0  0  0  0  0  0  0  0  0  0  0
   58.6335   27.1581   44.9755 C   0  0  0  0  0  0  0  0  0  0  0  0
   58.4728   25.9566   45.6854 C   0  0  0  0  0  0  0  0  0  0  0  0
   57.9921   24.7568   45.3032 C   0  0  0  0  0  0  0  0  0  0  0  0
   58.9410   26.1983   46.9664 C   0  0  0  0  0  0  0  0  0  0  0  0
   59.4109   27.4940   46.9841 C   0  0  0  0  0  0  0  0  0  0  0  0
   60.0386   28.1516   48.1754 C   0  0  0  0  0  0  0  0  0  0  0  0
   59.2481   28.0741   45.7726 N   0  0  0  0  0  0  0  0  0  0  0  0
   56.6624   24.2195   45.6237 C   0  0  0  0  0  0  0  0  0  0  0  0
   56.3475   22.9163   45.5246 N   0  0  0  0  0  0  0  0  0  0  0  0
   55.0284   22.8918   45.8107 C   0  0  0  0  0  0  0  0  0  0  0  0
   54.3604   21.8244   45.8344 O   0  0  0  0  0  0  0  0  0  0  0  0
   54.4782   24.0992   46.0583 N   0  0  0  0  0  0  0  0  0  0  0  0
   55.5204   24.9343   45.9221 C   0  0  0  0  0  0  0  0  0  0  0  0
   55.4123   26.3172   46.0446 O   0  0  0  0  0  0  0  0  0  0  0  0
   54.5853   26.7060   46.2515 H   0  0  0  0  0  0  0  0  0  0  0  0
   59.5807   29.4687   45.4427 C   0  0  0  0  0  0  0  0  0  0  0  0
   58.4383   30.4030   45.8572 C   0  0  0  0  0  0  0  0  0  0  0  0
   58.8629   31.3302   46.9083 N   0  0  0  0  0  0  0  0  0  0  0  0
   58.5618   32.9923   46.4825 S   0  0  0  0  0  0  0  0  0  0  0  0
   58.9205   33.2672   45.0475 O   0  0  0  0  0  0  0  0  0  0  0  0
   57.1017   33.2857   46.6841 O   0  0  0  0  0  0  0  0  0  0  0  0
   59.5180   34.0501   47.5574 C   0  0  0  0  0  0  0  0  0  0  0  0
   60.8470   33.4197   47.8669 C   0  0  0  0  0  0  0  0  0  0  0  0
   61.0222   32.6843   49.0519 C   0  0  0  0  0  0  0  0  0  0  0  0
   62.2484   32.0710   49.3240 C   0  0  0  0  0  0  0  0  0  0  0  0
   63.3042   32.1786   48.4136 C   0  0  0  0  0  0  0  0  0  0  0  0
   63.1339   32.8988   47.2275 C   0  0  0  0  0  0  0  0  0  0  0  0
   61.9079   33.5144   46.9524 C   0  0  0  0  0  0  0  0  0  0  0  0
  1  2  2  0
  2  3  1  0
  3  4  2  0
  4  9  1  0
  9 10  1  0
 10 11  1  0
 11 12  2  0
 11 13  1  0
 13 14  1  0
 14 15  1  0
  3  5  1  0
  5  6  2  0
  6  7  1  0
  6  8  1  0
  8 17  1  0
 17 18  1  0
 18 19  1  0
 19 20  1  0
 20 21  2  0
 20 22  2  0
 20 23  1  0
 23 24  1  0
 24 25  2  0
 25 26  1  0
 26 27  2  0
 27 28  1  0
 28 29  2  0
  8  2  1  0
 29 24  1  0
 14  9  2  0
 15 16  1  0
M  CHG 1  10  -1
M  CHG 1  13  -1
M  CHG 1  19  -1
M  END
> <UniqueID>
75

> <SMILES>
C=c1c(=Cc2[n-]c(=O)[n-]c2O)cc(C)n1CC[N-]S(=O)(=O)Cc1ccccc1

> <Energy>
110.23865431360109

> <Genealogy>
C=c1c(=Cc2[n-]c(=O)[n-]c2O)cc(C)n1CC[N-]S(=O)(=O)Cc1ccccc1 (protonated)
C=c1c(=Cc2[n-]c(=O)[n-]c2O)cc(C)n1CC[N-]S(=O)(=O)Cc1ccccc1 (3D coordinates assigned)
C=c1c(=Cc2[n-]c(=O)[n-]c2O)cc(C)n1CC[N-]S(=O)(=O)Cc1ccccc1 (optimized conformer: 110.23865431360109 kcal/mol)

> <smiles>
C=c1c(=Cc2[nH]c(=O)[nH]c2O)cc(C)n1CCNS(=O)(=O)Cc1ccccc1

> <score_type>
oracle

> <origin>
adg

> <m_score__min__energy>
-14.27

> <m_primary>
energy

> <minimizedAffinity>
-8.92808

> <minimizedRMSD>
2.19197

> <CNNscore>
0.5188390017

> <CNNaffinity>
6.6688423157

> <CNN_VS>
3.4600555897

> <CNNaffinity_variance>
0.0909768119

$$$$
91:0


 30 33  0  0  0  0  0  0  0  0999 V2000
   59.4479   22.6843   44.8699 C   0  0  0  0  0  0  0  0  0  0  0  0
   58.9979   23.8494   45.3516 C   0  0  0  0  0  0  0  0  0  0  0  0
   59.7783   24.6853   46.0647 N   0  0  0  0  0  0  0  0  0  0  0  0
   59.0220   25.7520   46.3945 C   0  0  0  0  0  0  0  0  0  0  0  0
   57.7409   25.5980   45.8928 C   0  0  0  0  0  0  0  0  0  0  0  0
   57.7135   24.3839   45.2165 C   0  0  0  0  0  0  0  0  0  0  0  0
   56.6687   23.8201   44.5719 C   0  0  0  0  0  0  0  0  0  0  0  0
   60.7235   24.5437   46.3007 H   0  0  0  0  0  0  0  0  0  0  0  0
   55.4028   23.3745   45.1971 C   0  0  0  0  0  0  0  0  0  0  0  0
   54.9788   22.1022   45.3132 N   0  0  0  0  0  0  0  0  0  0  0  0
   53.8005   22.2178   45.9602 C   0  0  0  0  0  0  0  0  0  0  0  0
   53.0890   21.2229   46.2551 O   0  0  0  0  0  0  0  0  0  0  0  0
   53.4457   23.4825   46.2692 N   0  0  0  0  0  0  0  0  0  0  0  0
   54.4712   24.2000   45.7826 C   0  0  0  0  0  0  0  0  0  0  0  0
   54.5528   25.5843   45.8704 O   0  0  0  0  0  0  0  0  0  0  0  0
   59.4665   26.9235   47.1997 C   0  0  0  0  0  0  0  0  0  0  0  0
   60.0237   26.6998   48.3103 O   0  0  0  0  0  0  0  0  0  0  0  0
   59.2779   28.2996   46.7808 N   0  0  0  0  0  0  0  0  0  0  0  0
   59.6306   28.4841   45.3588 C   0  0  0  0  0  0  0  0  0  0  0  0
   59.2996   29.9193   44.8940 C   0  0  0  0  0  0  0  0  0  0  0  0
   59.5882   30.9754   45.9099 N   0  0  0  0  0  0  0  0  0  0  0  0
   60.5230   30.4790   46.9474 C   0  0  0  0  0  0  0  0  0  0  0  0
   59.9544   29.2578   47.6928 C   0  0  0  0  0  0  0  0  0  0  0  0
   58.6741   28.4155   47.5497 H   0  0  0  0  0  0  0  0  0  0  0  0
   58.3404   31.6321   46.4129 C   0  0  0  0  0  0  0  0  0  0  0  0
   58.5760   32.7250   47.4848 C   0  0  0  0  0  0  0  0  0  0  0  0
   59.3488   33.9317   46.9035 C   0  0  0  0  0  0  0  0  0  0  0  0
   59.4116   33.9167   45.4881 O   0  0  0  0  0  0  0  0  0  0  0  0
   58.1171   33.7356   44.9484 C   0  0  0  0  0  0  0  0  0  0  0  0
   57.5858   32.3148   45.2381 C   0  0  0  0  0  0  0  0  0  0  0  0
  1  2  2  0
  2  3  1  0
  3  4  1  0
  4 16  1  0
 16 17  2  0
 16 18  1  0
 18 19  1  0
 19 20  1  0
 20 21  1  0
 21 25  1  0
 25 26  1  0
 26 27  1  0
 27 28  1  0
 28 29  1  0
 29 30  1  0
 21 22  1  0
 22 23  1  0
  4  5  2  0
  5  6  1  0
  6  7  2  0
  7  9  1  0
  9 10  1  0
 10 11  1  0
 11 12  2  0
 11 13  1  0
 13 14  1  0
 14 15  1  0
  6  2  1  0
 14  9  2  0
 23 18  1  0
 30 25  1  0
  3  8  1  0
 18 24  1  0
M  CHG 1  10  -1
M  CHG 1  13  -1
M  CHG 1  15  -1
M  CHG 1  18   1
M  END
> <UniqueID>
89

> <SMILES>
C=c1[nH]c(C(=O)[NH+]2CCN(C3CCOCC3)CC2)cc1=Cc1[n-]c(=O)[n-]c1[O-]

> <Energy>
145.33086002882052

> <Genealogy>
C=c1[nH]c(C(=O)[NH+]2CCN(C3CCOCC3)CC2)cc1=Cc1[n-]c(=O)[n-]c1[O-] (protonated)
C=c1[nH]c(C(=O)[NH+]2CCN(C3CCOCC3)CC2)cc1=Cc1[n-]c(=O)[n-]c1[O-] (3D coordinates assigned)
C=c1[nH]c(C(=O)[NH+]2CCN(C3CCOCC3)CC2)cc1=Cc1[n-]c(=O)[n-]c1[O-] (nonaromatic ring conformer: 145.33086002882052 kcal/mol)

> <smiles>
C=c1[nH]c(C(=O)N2CCN(C3CCOCC3)CC2)cc1=Cc1[nH]c(=O)[nH]c1O

> <score_type>
oracle

> <origin>
adg

> <m_score__min__energy>
-16.73

> <m_primary>
energy

> <minimizedAffinity>
-6.72282

> <minimizedRMSD>
1.28445

> <CNNscore>
0.0548837073

> <CNNaffinity>
5.7674717903

> <CNN_VS>
0.3165402412

> <CNNaffinity_variance>
0.0913920775

$$$$
9:0


 30 33  0  0  0  0  0  0  0  0999 V2000
   56.1966   29.5442   44.3817 C   0  0  0  0  0  0  0  0  0  0  0  0
   57.1843   30.3614   44.7701 C   0  0  0  0  0  0  0  0  0  0  0  0
   56.9224   31.6972   44.7307 N   0  0  0  0  0  0  0  0  0  0  0  0
   57.7393   32.6260   45.2865 C   0  0  0  0  0  0  0  0  0  0  0  0
   58.8748   32.2275   45.9944 C   0  0  0  0  0  0  0  0  0  0  0  0
   59.2048   30.8667   46.0167 C   0  0  0  0  0  0  0  0  0  0  0  0
   58.4165   29.9115   45.3418 C   0  0  0  0  0  0  0  0  0  0  0  0
   58.9070   28.6477   45.2672 C   0  0  0  0  0  0  0  0  0  0  0  0
   59.7409   33.2348   46.6485 C   0  0  0  0  0  0  0  0  0  0  0  0
   59.3111   34.4117   46.7922 O   0  0  0  0  0  0  0  0  0  0  0  0
   61.0613   32.9034   47.1220 N   0  0  0  0  0  0  0  0  0  0  0  0
   62.0922   33.9524   47.1459 C   0  0  0  0  0  0  0  0  0  0  0  0
   63.4952   33.3550   47.3302 C   0  0  0  0  0  0  0  0  0  0  0  0
   63.5986   32.3932   48.5524 C   0  0  0  0  0  0  0  0  0  0  0  0
   62.2502   31.7343   48.9289 C   0  0  0  0  0  0  0  0  0  0  0  0
   61.3370   31.5835   47.7111 C   0  0  0  0  0  0  0  0  0  0  0  0
   64.2328   32.9954   49.7558 N   0  0  0  0  0  0  0  0  0  0  0  0
   65.2185   32.1414   50.4499 C   0  0  0  0  0  0  0  0  0  0  0  0
   65.9474   32.9676   51.5310 C   0  0  0  0  0  0  0  0  0  0  0  0
   65.2827   34.1821   51.8400 O   0  0  0  0  0  0  0  0  0  0  0  0
   63.9032   33.9436   52.0338 C   0  0  0  0  0  0  0  0  0  0  0  0
   63.2374   33.5329   50.7071 C   0  0  0  0  0  0  0  0  0  0  0  0
   58.2573   27.4319   45.7966 C   0  0  0  0  0  0  0  0  0  0  0  0
   56.9377   27.1701   45.7262 N   0  0  0  0  0  0  0  0  0  0  0  0
   56.8430   25.9172   46.2219 C   0  0  0  0  0  0  0  0  0  0  0  0
   55.7447   25.3143   46.3334 O   0  0  0  0  0  0  0  0  0  0  0  0
   58.0186   25.3584   46.5794 N   0  0  0  0  0  0  0  0  0  0  0  0
   58.9044   26.3263   46.2913 C   0  0  0  0  0  0  0  0  0  0  0  0
   60.2777   26.2039   46.4723 O   0  0  0  0  0  0  0  0  0  0  0  0
   60.6358   25.4097   46.8173 H   0  0  0  0  0  0  0  0  0  0  0  0
  1  2  2  0
  2  3  1  0
  3  4  2  0
  4  5  1  0
  5  9  1  0
  9 10  2  0
  9 11  1  0
 11 12  1  0
 12 13  1  0
 13 14  1  0
 14 17  1  0
 17 18  1  0
 18 19  1  0
 19 20  1  0
 20 21  1  0
 21 22  1  0
 14 15  1  0
 15 16  1  0
  5  6  2  0
  6  7  1  0
  7  8  2  0
  8 23  1  0
 23 24  1  0
 24 25  1  0
 25 26  2  0
 25 27  1  0
 27 28  1  0
 28 29  1  0
  7  2  1  0
 28 23  2  0
 16 11  1  0
 22 17  1  0
 29 30  1  0
M  CHG 1  24  -1
M  CHG 1  27  -1
M  END
> <UniqueID>
9

> <SMILES>
C=c1ncc(C(=O)N2CCC(N3CCOCC3)CC2)cc1=Cc1[n-]c(=O)[n-]c1O

> <Energy>
123.48424932164096

> <Genealogy>
C=c1ncc(C(=O)N2CCC(N3CCOCC3)CC2)cc1=Cc1[n-]c(=O)[n-]c1O (protonated)
C=c1ncc(C(=O)N2CCC(N3CCOCC3)CC2)cc1=Cc1[n-]c(=O)[n-]c1O (3D coordinates assigned)
C=c1ncc(C(=O)N2CCC(N3CCOCC3)CC2)cc1=Cc1[n-]c(=O)[n-]c1O (nonaromatic ring conformer: 123.48424932164096 kcal/mol)

> <smiles>
C=c1ncc(C(=O)N2CCC(N3CCOCC3)CC2)cc1=Cc1[nH]c(=O)[nH]c1O

> <score_type>
oracle

> <origin>
adg

> <m_score__min__energy>
-14.199999999999999

> <m_primary>
energy

> <minimizedAffinity>
-9.19610

> <minimizedRMSD>
0.90390

> <CNNscore>
0.1384268254

> <CNNaffinity>
6.2810206413

> <CNN_VS>
0.8694617748

> <CNNaffinity_variance>
0.0015084877

$$$$
19:0


 32 35  0  0  0  0  0  0  0  0999 V2000
   57.8351   31.4524   52.3950 C   0  0  0  0  0  0  0  0  0  0  0  0
   58.1237   32.3409   53.2413 O   0  0  0  0  0  0  0  0  0  0  0  0
   58.6196   31.3349   51.1943 N   0  0  0  0  0  0  0  0  0  0  0  0
   59.1725   32.5418   50.5676 C   0  0  0  0  0  0  0  0  0  0  0  0
   60.2278   32.1844   49.5091 C   0  0  0  0  0  0  0  0  0  0  0  0
   59.7565   31.1678   48.5332 N   0  0  0  0  0  0  0  0  0  0  0  0
   58.8654   30.1203   49.1004 C   0  0  0  0  0  0  0  0  0  0  0  0
   58.9539   30.0257   50.6241 C   0  0  0  0  0  0  0  0  0  0  0  0
   54.9875   27.9051   54.0365 C   0  0  0  0  0  0  0  0  0  0  0  0
   55.3662   28.9803   53.3277 C   0  0  0  0  0  0  0  0  0  0  0  0
   54.5269   29.9559   52.7648 C   0  0  0  0  0  0  0  0  0  0  0  0
   53.1899   29.9883   52.6031 C   0  0  0  0  0  0  0  0  0  0  0  0
   55.3532   30.9889   52.3621 C   0  0  0  0  0  0  0  0  0  0  0  0
   56.6502   30.5951   52.6223 C   0  0  0  0  0  0  0  0  0  0  0  0
   56.6631   29.3631   53.1866 N   0  0  0  0  0  0  0  0  0  0  0  0
   57.8531   28.6253   53.6268 C   0  0  0  0  0  0  0  0  0  0  0  0
   52.4829   30.3616   51.3680 C   0  0  0  0  0  0  0  0  0  0  0  0
   52.3932   29.5614   50.2930 N   0  0  0  0  0  0  0  0  0  0  0  0
   51.5668   30.2385   49.4664 C   0  0  0  0  0  0  0  0  0  0  0  0
   51.2459   29.8098   48.3285 O   0  0  0  0  0  0  0  0  0  0  0  0
   51.1030   31.4058   49.9617 N   0  0  0  0  0  0  0  0  0  0  0  0
   51.6786   31.4620   51.1731 C   0  0  0  0  0  0  0  0  0  0  0  0
   51.4527   32.4830   52.0870 O   0  0  0  0  0  0  0  0  0  0  0  0
   59.1648   31.7788   47.3254 C   0  0  0  0  0  0  0  0  0  0  0  0
   58.8528   30.7214   46.2867 C   0  0  0  0  0  0  0  0  0  0  0  0
   57.6047   30.7489   45.6395 C   0  0  0  0  0  0  0  0  0  0  0  0
   57.2766   29.7947   44.6688 C   0  0  0  0  0  0  0  0  0  0  0  0
   55.9584   29.8633   43.9550 C   0  0  0  0  0  0  0  0  0  0  0  0
   58.2172   28.8214   44.3157 C   0  0  0  0  0  0  0  0  0  0  0  0
   59.4592   28.7781   44.9481 C   0  0  0  0  0  0  0  0  0  0  0  0
   59.7907   29.7146   45.9423 C   0  0  0  0  0  0  0  0  0  0  0  0
   61.1479   29.6416   46.5937 C   0  0  0  0  0  0  0  0  0  0  0  0
  9 10  2  0
 10 11  1  0
 11 12  2  0
 12 17  1  0
 17 18  1  0
 18 19  1  0
 19 20  2  0
 19 21  1  0
 21 22  1  0
 22 23  1  0
 11 13  1  0
 13 14  2  0
 14  1  1  0
  1  2  2  0
  1  3  1  0
  3  4  1  0
  4  5  1  0
  5  6  1  0
  6 24  1  0
 24 25  1  0
 25 26  2  0
 26 27  1  0
 27 28  1  0
 27 29  2  0
 29 30  1  0
 30 31  2  0
 31 32  1  0
  6  7  1  0
  7  8  1  0
 14 15  1  0
 15 16  1  0
 15 10  1  0
 22 17  2  0
  8  3  1  0
 31 25  1  0
M  CHG 1  18  -1
M  CHG 1  21  -1
M  CHG 1  23  -1
M  END
> <UniqueID>
19

> <SMILES>
C=c1c(=Cc2[n-]c(=O)[n-]c2[O-])cc(C(=O)N2CCN(Cc3cc(C)ccc3C)CC2)n1C

> <Energy>
144.2126468575226

> <Genealogy>
C=c1c(=Cc2[n-]c(=O)[n-]c2[O-])cc(C(=O)N2CCN(Cc3cc(C)ccc3C)CC2)n1C (protonated)
C=c1c(=Cc2[n-]c(=O)[n-]c2[O-])cc(C(=O)N2CCN(Cc3cc(C)ccc3C)CC2)n1C (3D coordinates assigned)
C=c1c(=Cc2[n-]c(=O)[n-]c2[O-])cc(C(=O)N2CCN(Cc3cc(C)ccc3C)CC2)n1C (nonaromatic ring conformer: 144.2126468575226 kcal/mol)

> <smiles>
C=c1c(=Cc2[nH]c(=O)[nH]c2O)cc(C(=O)N2CCN(Cc3cc(C)ccc3C)CC2)n1C

> <score_type>
oracle

> <origin>
adg

> <m_score__min__energy>
-18.920000000000002

> <m_primary>
energy

> <minimizedAffinity>
-6.86230

> <minimizedRMSD>
0.72051

> <CNNscore>
0.0500658080

> <CNNaffinity>
5.3865303993

> <CNN_VS>
0.2696810067

> <CNNaffinity_variance>
1.0460377932

$$$$
33:0


 30 33  0  0  0  0  0  0  0  0999 V2000
   57.8792   31.7155   43.1404 C   0  0  0  0  0  0  0  0  0  0  0  0
   57.9340   31.5758   44.4752 C   0  0  0  0  0  0  0  0  0  0  0  0
   57.7755   30.3869   45.2087 C   0  0  0  0  0  0  0  0  0  0  0  0
   57.3429   29.1670   44.8349 C   0  0  0  0  0  0  0  0  0  0  0  0
   58.1514   30.6810   46.5068 C   0  0  0  0  0  0  0  0  0  0  0  0
   58.4676   32.0228   46.5406 C   0  0  0  0  0  0  0  0  0  0  0  0
   58.3060   32.5762   45.3159 N   0  0  0  0  0  0  0  0  0  0  0  0
   58.6021   33.9664   44.9473 C   0  0  0  0  0  0  0  0  0  0  0  0
   57.8481   27.8884   45.3529 C   0  0  0  0  0  0  0  0  0  0  0  0
   59.1603   27.5907   45.4613 N   0  0  0  0  0  0  0  0  0  0  0  0
   59.1636   26.3679   46.0376 C   0  0  0  0  0  0  0  0  0  0  0  0
   60.2234   25.7292   46.2752 O   0  0  0  0  0  0  0  0  0  0  0  0
   57.9315   25.9019   46.3302 N   0  0  0  0  0  0  0  0  0  0  0  0
   57.1015   26.8656   45.9034 C   0  0  0  0  0  0  0  0  0  0  0  0
   55.7164   26.8229   46.0146 O   0  0  0  0  0  0  0  0  0  0  0  0
   57.5661   24.5884   46.8568 C   0  0  0  0  0  0  0  0  0  0  0  0
   57.3529   23.6307   45.7248 C   0  0  0  0  0  0  0  0  0  0  0  0
   56.7489   24.0566   44.5315 C   0  0  0  0  0  0  0  0  0  0  0  0
   56.5106   23.1275   43.5164 C   0  0  0  0  0  0  0  0  0  0  0  0
   56.8647   21.7900   43.7010 C   0  0  0  0  0  0  0  0  0  0  0  0
   57.4513   21.3979   44.9058 C   0  0  0  0  0  0  0  0  0  0  0  0
   57.6756   22.3173   45.8849 N   0  0  0  0  0  0  0  0  0  0  0  0
   58.8939   32.7607   47.7815 C   0  0  0  0  0  0  0  0  0  0  0  0
   60.0892   32.0978   48.4152 C   0  0  0  0  0  0  0  0  0  0  0  0
   59.9038   31.1232   49.1954 O   0  0  0  0  0  0  0  0  0  0  0  0
   61.4327   32.5164   48.1156 N   0  0  0  0  0  0  0  0  0  0  0  0
   62.5946   31.9558   48.7841 C   0  0  0  0  0  0  0  0  0  0  0  0
   63.7885   32.7468   48.2640 C   0  0  0  0  0  0  0  0  0  0  0  0
   63.3056   33.4416   46.9938 C   0  0  0  0  0  0  0  0  0  0  0  0
   61.7878   33.4910   47.0990 C   0  0  0  0  0  0  0  0  0  0  0  0
  1  2  2  0
  2  3  1  0
  3  4  2  0
  4  9  1  0
  9 10  1  0
 10 11  1  0
 11 12  2  0
 11 13  1  0
 13 16  1  0
 16 17  1  0
 17 18  2  0
 18 19  1  0
 19 20  2  0
 20 21  1  0
 21 22  2  0
 13 14  1  0
 14 15  1  0
  3  5  1  0
  5  6  2  0
  6 23  1  0
 23 24  1  0
 24 25  2  0
 24 26  1  0
 26 27  1  0
 27 28  1  0
 28 29  1  0
 29 30  1  0
  6  7  1  0
  7  8  1  0
  7  2  1  0
 14  9  2  0
 30 26  1  0
 22 17  1  0
M  CHG 1  10  -1
M  CHG 1  15  -1
M  END
> <UniqueID>
32

> <SMILES>
C=c1c(=Cc2[n-]c(=O)n(Cc3ccccn3)c2[O-])cc(CC(=O)N2CCCC2)n1C

> <Energy>
124.89731160790981

> <Genealogy>
C=c1c(=Cc2[n-]c(=O)n(Cc3ccccn3)c2[O-])cc(CC(=O)N2CCCC2)n1C (protonated)
C=c1c(=Cc2[n-]c(=O)n(Cc3ccccn3)c2[O-])cc(CC(=O)N2CCCC2)n1C (3D coordinates assigned)
C=c1c(=Cc2[n-]c(=O)n(Cc3ccccn3)c2[O-])cc(CC(=O)N2CCCC2)n1C (nonaromatic ring conformer: 124.89731160790981 kcal/mol)

> <smiles>
C=c1c(=Cc2[nH]c(=O)n(Cc3ccccn3)c2O)cc(CC(=O)N2CCCC2)n1C

> <score_type>
oracle

> <origin>
adg

> <m_score__min__energy>
-14.390000000000001

> <m_primary>
energy

> <minimizedAffinity>
-8.55051

> <minimizedRMSD>
0.88745

> <CNNscore>
0.5339171290

> <CNNaffinity>
7.0300960541

> <CNN_VS>
3.7534887791

> <CNNaffinity_variance>
0.0454642810

$$$$
43:0


 32 35  0  0  0  0  0  0  0  0999 V2000
   53.9235   29.5126   55.6378 C   0  0  0  0  0  0  0  0  0  0  0  0
   54.6078   29.7915   54.5239 C   0  0  0  0  0  0  0  0  0  0  0  0
   54.0878   30.1756   53.2861 C   0  0  0  0  0  0  0  0  0  0  0  0
   52.7898   30.2989   52.9493 C   0  0  0  0  0  0  0  0  0  0  0  0
   55.1834   30.3488   52.4471 C   0  0  0  0  0  0  0  0  0  0  0  0
   56.3084   30.0776   53.2069 C   0  0  0  0  0  0  0  0  0  0  0  0
   55.9524   29.7404   54.4634 N   0  0  0  0  0  0  0  0  0  0  0  0
   56.5616   29.5016   55.1990 H   0  0  0  0  0  0  0  0  0  0  0  0
   52.3114   30.4898   51.5687 C   0  0  0  0  0  0  0  0  0  0  0  0
   52.3338   29.5129   50.6364 N   0  0  0  0  0  0  0  0  0  0  0  0
   51.7270   30.0726   49.5659 C   0  0  0  0  0  0  0  0  0  0  0  0
   51.5436   29.4529   48.4848 O   0  0  0  0  0  0  0  0  0  0  0  0
   51.3221   31.3409   49.7756 N   0  0  0  0  0  0  0  0  0  0  0  0
   50.5291   32.1842   48.8865 C   0  0  0  0  0  0  0  0  0  0  0  0
   51.6581   31.5929   51.0502 C   0  0  0  0  0  0  0  0  0  0  0  0
   51.3283   32.7574   51.7347 O   0  0  0  0  0  0  0  0  0  0  0  0
   57.7126   30.1148   52.7391 C   0  0  0  0  0  0  0  0  0  0  0  0
   58.0111   29.4710   51.6956 O   0  0  0  0  0  0  0  0  0  0  0  0
   58.7160   30.9097   53.4289 N   0  0  0  0  0  0  0  0  0  0  0  0
   58.4267   32.3484   53.3627 C   0  0  0  0  0  0  0  0  0  0  0  0
   58.4534   32.8766   51.9297 C   0  0  0  0  0  0  0  0  0  0  0  0
   59.5858   32.3697   51.1271 N   0  0  0  0  0  0  0  0  0  0  0  0
   60.4171   31.2284   51.5702 C   0  0  0  0  0  0  0  0  0  0  0  0
   60.0918   30.6560   52.9679 C   0  0  0  0  0  0  0  0  0  0  0  0
   59.5585   30.4096   53.3321 H   0  0  0  0  0  0  0  0  0  0  0  0
   59.8104   32.9325   49.7974 C   0  0  0  0  0  0  0  0  0  0  0  0
   61.0454   33.5322   49.4519 C   0  0  0  0  0  0  0  0  0  0  0  0
   61.2564   34.0679   48.1787 C   0  0  0  0  0  0  0  0  0  0  0  0
   60.2474   34.0169   47.2185 C   0  0  0  0  0  0  0  0  0  0  0  0
   59.0225   33.4271   47.5283 C   0  0  0  0  0  0  0  0  0  0  0  0
   57.7556   33.3568   46.3157 Cl  0  0  0  0  0  0  0  0  0  0  0  0
   58.8035   32.8884   48.8012 C   0  0  0  0  0  0  0  0  0  0  0  0
  1  2  2  0
  2  3  1  0
  3  4  2  0
  4  9  1  0
  9 10  1  0
 10 11  1  0
 11 12  2  0
 11 13  1  0
 13 14  1  0
 13 15  1  0
 15 16  1  0
  3  5  1  0
  5  6  2  0
  6 17  1  0
 17 18  2  0
 17 19  1  0
 19 20  1  0
 20 21  1  0
 21 22  1  0
 22 26  1  0
 26 27  2  0
 27 28  1  0
 28 29  2  0
 29 30  1  0
 30 31  1  0
 30 32  2  0
 22 23  1  0
 23 24  1  0
  6  7  1  0
  7  2  1  0
 15  9  2  0
 24 19  1  0
 32 26  1  0
 19 25  1  0
  7  8  1  0
M  CHG 1  10  -1
M  CHG 1  16  -1
M  CHG 1  19   1
M  END
> <UniqueID>
42

> <SMILES>
C=c1[nH]c(C(=O)[NH+]2CCN(c3cccc(Cl)c3)CC2)c/c1=C\c1[n-]c(=O)n(C)c1[O-]

> <Energy>
133.14970396394926

> <Genealogy>
C=c1[nH]c(C(=O)[NH+]2CCN(c3cccc(Cl)c3)CC2)cc1=Cc1[n-]c(=O)n(C)c1[O-] (protonated)
C=c1[nH]c(C(=O)[NH+]2CCN(c3cccc(Cl)c3)CC2)c/c1=C\c1[n-]c(=O)n(C)c1[O-] (cis-trans isomerization)
C=c1[nH]c(C(=O)[NH+]2CCN(c3cccc(Cl)c3)CC2)c/c1=C\c1[n-]c(=O)n(C)c1[O-] (3D coordinates assigned)
C=c1[nH]c(C(=O)[NH+]2CCN(c3cccc(Cl)c3)CC2)c/c1=C\c1[n-]c(=O)n(C)c1[O-] (nonaromatic ring conformer: 133.14970396394926 kcal/mol)

> <smiles>
C=c1[nH]c(C(=O)N2CCN(c3cccc(Cl)c3)CC2)cc1=Cc1[nH]c(=O)n(C)c1O

> <score_type>
oracle

> <origin>
adg

> <m_score__min__energy>
-14.880000000000001

> <m_primary>
energy

> <minimizedAffinity>
-4.97044

> <minimizedRMSD>
0.53128

> <CNNscore>
0.5521485806

> <CNNaffinity>
6.4468383789

> <CNN_VS>
3.5596127510

> <CNNaffinity_variance>
0.0366558246

$$$$
45:0


 34 37  0  0  0  0  0  0  0  0999 V2000
   56.6533   29.9361   43.6963 C   0  0  0  0  0  0  0  0  0  0  0  0
   57.2185   29.3772   44.7723 C   0  0  0  0  0  0  0  0  0  0  0  0
   57.0576   28.0651   45.0644 N   0  0  0  0  0  0  0  0  0  0  0  0
   57.7090   27.8977   46.2355 C   0  0  0  0  0  0  0  0  0  0  0  0
   57.7717   26.7440   46.9144 C   0  0  0  0  0  0  0  0  0  0  0  0
   58.2403   29.1056   46.6293 C   0  0  0  0  0  0  0  0  0  0  0  0
   58.9152   29.3149   47.6745 O   0  0  0  0  0  0  0  0  0  0  0  0
   57.9488   30.0424   45.7092 N   0  0  0  0  0  0  0  0  0  0  0  0
   57.7443   25.4190   46.2520 C   0  0  0  0  0  0  0  0  0  0  0  0
   56.5339   24.7849   45.9074 C   0  0  0  0  0  0  0  0  0  0  0  0
   55.3088   25.3950   46.1611 O   0  0  0  0  0  0  0  0  0  0  0  0
   56.5563   23.5751   45.2928 N   0  0  0  0  0  0  0  0  0  0  0  0
   57.7287   22.9635   44.9859 C   0  0  0  0  0  0  0  0  0  0  0  0
   57.7222   21.8374   44.4213 O   0  0  0  0  0  0  0  0  0  0  0  0
   58.9096   23.5655   45.2824 N   0  0  0  0  0  0  0  0  0  0  0  0
   58.9442   24.7765   45.8994 C   0  0  0  0  0  0  0  0  0  0  0  0
   60.0596   25.3035   46.1605 O   0  0  0  0  0  0  0  0  0  0  0  0
   58.3490   31.4266   45.7313 C   0  0  0  0  0  0  0  0  0  0  0  0
   58.1709   32.2354   44.5980 C   0  0  0  0  0  0  0  0  0  0  0  0
   58.5711   33.5741   44.6183 C   0  0  0  0  0  0  0  0  0  0  0  0
   59.1653   34.1121   45.7621 C   0  0  0  0  0  0  0  0  0  0  0  0
   59.3594   33.3138   46.9027 C   0  0  0  0  0  0  0  0  0  0  0  0
   58.9108   31.9830   46.8919 C   0  0  0  0  0  0  0  0  0  0  0  0
   60.0903   33.8608   48.0712 C   0  0  0  0  0  0  0  0  0  0  0  0
   59.6578   34.9101   48.6243 O   0  0  0  0  0  0  0  0  0  0  0  0
   61.3702   33.3048   48.4700 N   0  0  0  0  0  0  0  0  0  0  0  0
   61.1533   32.0902   49.2720 C   0  0  0  0  0  0  0  0  0  0  0  0
   62.4809   31.5851   49.8752 C   0  0  0  0  0  0  0  0  0  0  0  0
   63.6746   31.9951   49.0972 N   0  0  0  0  0  0  0  0  0  0  0  0
   63.4037   32.0624   47.6477 C   0  0  0  0  0  0  0  0  0  0  0  0
   62.2356   33.0202   47.3004 C   0  0  0  0  0  0  0  0  0  0  0  0
   61.1520   32.3498   48.5681 H   0  0  0  0  0  0  0  0  0  0  0  0
   64.3566   33.2110   49.6053 C   0  0  0  0  0  0  0  0  0  0  0  0
   64.5992   33.0668   51.1005 C   0  0  0  0  0  0  0  0  0  0  0  0
  1  2  2  0
  2  3  1  0
  3  4  1  0
  4  5  2  0
  5  9  1  0
  9 10  2  0
 10 11  1  0
 10 12  1  0
 12 13  1  0
 13 14  2  0
 13 15  1  0
 15 16  1  0
 16 17  2  0
  4  6  1  0
  6  7  2  0
  6  8  1  0
  8 18  1  0
 18 19  2  0
 19 20  1  0
 20 21  2  0
 21 22  1  0
 22 24  1  0
 24 25  2  0
 24 26  1  0
 26 27  1  0
 27 28  1  0
 28 29  1  0
 29 33  1  0
 33 34  1  0
 29 30  1  0
 30 31  1  0
 22 23  2  0
  8  2  1  0
 23 18  1  0
 16  9  1  0
 31 26  1  0
 26 32  1  0
M  CHG 1   3  -1
M  CHG 1  11  -1
M  CHG 1  12  -1
M  CHG 1  15  -1
M  CHG 1  26   1
M  END
> <UniqueID>
44

> <SMILES>
C=c1[n-]c(=Cc2c([O-])[n-]c(=O)[n-]c2=O)c(=O)n1-c1cccc(C(=O)[NH+]2CCN(CC)CC2)c1

> <Energy>
123.1486608213115

> <Genealogy>
C=c1[n-]c(=Cc2c([O-])[n-]c(=O)[n-]c2=O)c(=O)n1-c1cccc(C(=O)[NH+]2CCN(CC)CC2)c1 (protonated)
C=c1[n-]c(=Cc2c([O-])[n-]c(=O)[n-]c2=O)c(=O)n1-c1cccc(C(=O)[NH+]2CCN(CC)CC2)c1 (3D coordinates assigned)
C=c1[n-]c(=Cc2c([O-])[n-]c(=O)[n-]c2=O)c(=O)n1-c1cccc(C(=O)[NH+]2CCN(CC)CC2)c1 (nonaromatic ring conformer: 123.1486608213115 kcal/mol)

> <smiles>
C=c1[nH]c(=Cc2c(O)[nH]c(=O)[nH]c2=O)c(=O)n1-c1cccc(C(=O)N2CCN(CC)CC2)c1

> <score_type>
oracle

> <origin>
adg

> <m_score__min__energy>
-16.899999999999999

> <m_primary>
energy

> <minimizedAffinity>
-9.12433

> <minimizedRMSD>
1.07321

> <CNNscore>
0.4623040557

> <CNNaffinity>
7.0220780373

> <CNN_VS>
3.2463352680

> <CNNaffinity_variance>
0.0116560766

$$$$
57:0


 28 30  0  0  0  0  0  0  0  0999 V2000
   60.1604   28.4341   45.3891 C   0  0  0  0  0  0  0  0  0  0  0  0
   58.8327   28.3953   45.1966 C   0  0  0  0  0  0  0  0  0  0  0  0
   57.9611   27.3145   45.3903 C   0  0  0  0  0  0  0  0  0  0  0  0
   58.2271   26.0130   45.6066 C   0  0  0  0  0  0  0  0  0  0  0  0
   56.6878   27.7546   45.2946 N   0  0  0  0  0  0  0  0  0  0  0  0
   56.8060   29.0613   44.9935 C   0  0  0  0  0  0  0  0  0  0  0  0
   55.8088   29.8085   44.8042 O   0  0  0  0  0  0  0  0  0  0  0  0
   58.0822   29.4877   44.9157 N   0  0  0  0  0  0  0  0  0  0  0  0
   57.3500   24.8874   45.2448 C   0  0  0  0  0  0  0  0  0  0  0  0
   57.1734   24.4270   43.9858 N   0  0  0  0  0  0  0  0  0  0  0  0
   56.2041   23.4942   44.1195 C   0  0  0  0  0  0  0  0  0  0  0  0
   55.7806   22.8077   43.1538 O   0  0  0  0  0  0  0  0  0  0  0  0
   55.7389   23.3756   45.3801 N   0  0  0  0  0  0  0  0  0  0  0  0
   54.7546   22.4236   45.8855 C   0  0  0  0  0  0  0  0  0  0  0  0
   56.4640   24.2565   46.0878 C   0  0  0  0  0  0  0  0  0  0  0  0
   56.3277   24.4774   47.4541 O   0  0  0  0  0  0  0  0  0  0  0  0
   58.5329   30.8459   44.5903 C   0  0  0  0  0  0  0  0  0  0  0  0
   58.1603   31.7827   45.6948 C   0  0  0  0  0  0  0  0  0  0  0  0
   57.2633   32.6491   45.5088 O   0  0  0  0  0  0  0  0  0  0  0  0
   58.8496   31.7080   46.9466 N   0  0  0  0  0  0  0  0  0  0  0  0
   60.2148   32.0938   47.1563 C   0  0  0  0  0  0  0  0  0  0  0  0
   61.1629   31.0903   47.3958 C   0  0  0  0  0  0  0  0  0  0  0  0
   62.5009   31.4188   47.6171 C   0  0  0  0  0  0  0  0  0  0  0  0
   62.9019   32.7548   47.6178 C   0  0  0  0  0  0  0  0  0  0  0  0
   61.9624   33.7679   47.4151 C   0  0  0  0  0  0  0  0  0  0  0  0
   60.6052   33.4519   47.1986 C   0  0  0  0  0  0  0  0  0  0  0  0
   59.6292   34.4516   47.0557 O   0  0  0  0  0  0  0  0  0  0  0  0
   59.4824   35.2838   45.9112 C   0  0  0  0  0  0  0  0  0  0  0  0
  1  2  2  0
  2  3  1  0
  3  4  2  0
  4  9  1  0
  9 10  1  0
 10 11  1  0
 11 12  2  0
 11 13  1  0
 13 14  1  0
 13 15  1  0
 15 16  1  0
  3  5  1  0
  5  6  1  0
  6  7  2  0
  6  8  1  0
  8 17  1  0
 17 18  1  0
 18 19  2  0
 18 20  1  0
 20 21  1  0
 21 22  2  0
 22 23  1  0
 23 24  2  0
 24 25  1  0
 25 26  2  0
 26 27  1  0
 27 28  1  0
  8  2  1  0
 26 21  1  0
 15  9  2  0
M  CHG 1   5  -1
M  CHG 1  10  -1
M  CHG 1  16  -1
M  CHG 1  20  -1
M  END
> <UniqueID>
55

> <SMILES>
C=c1c(=Cc2[n-]c(=O)n(C)c2[O-])[n-]c(=O)n1CC(=O)[N-]c1ccccc1OC

> <Energy>
122.20911471958064

> <Genealogy>
C=c1c(=Cc2[n-]c(=O)n(C)c2[O-])[n-]c(=O)n1CC(=O)[N-]c1ccccc1OC (protonated)
C=c1c(=Cc2[n-]c(=O)n(C)c2[O-])[n-]c(=O)n1CC(=O)[N-]c1ccccc1OC (3D coordinates assigned)
C=c1c(=Cc2[n-]c(=O)n(C)c2[O-])[n-]c(=O)n1CC(=O)[N-]c1ccccc1OC (optimized conformer: 122.20911471958064 kcal/mol)

> <smiles>
C=c1c(=Cc2[nH]c(=O)n(C)c2O)[nH]c(=O)n1CC(=O)Nc1ccccc1OC

> <score_type>
oracle

> <origin>
adg

> <m_score__min__energy>
-16.359999999999999

> <m_primary>
energy

> <minimizedAffinity>
-8.32850

> <minimizedRMSD>
1.06972

> <CNNscore>
0.2866505086

> <CNNaffinity>
6.0454583168

> <CNN_VS>
1.7329337597

> <CNNaffinity_variance>
0.0132990433

$$$$
72:0


 25 27  0  0  0  0  0  0  0  0999 V2000
   60.2699   26.6801   46.8373 C   0  0  0  0  0  0  0  0  0  0  0  0
   59.4694   27.4266   46.0582 C   0  0  0  0  0  0  0  0  0  0  0  0
   58.5550   26.9516   45.1045 C   0  0  0  0  0  0  0  0  0  0  0  0
   58.0851   25.7099   44.8729 C   0  0  0  0  0  0  0  0  0  0  0  0
   58.1775   28.0479   44.3522 C   0  0  0  0  0  0  0  0  0  0  0  0
   58.7957   29.1518   44.9048 C   0  0  0  0  0  0  0  0  0  0  0  0
   59.5635   28.7807   45.9595 N   0  0  0  0  0  0  0  0  0  0  0  0
   60.4565   29.6617   46.7259 C   0  0  0  0  0  0  0  0  0  0  0  0
   57.3772   24.8688   45.8517 C   0  0  0  0  0  0  0  0  0  0  0  0
   57.8420   23.6876   46.2923 N   0  0  0  0  0  0  0  0  0  0  0  0
   56.8374   23.2286   47.0710 C   0  0  0  0  0  0  0  0  0  0  0  0
   56.9044   22.1351   47.6882 O   0  0  0  0  0  0  0  0  0  0  0  0
   55.7526   24.0312   47.1283 N   0  0  0  0  0  0  0  0  0  0  0  0
   56.1051   25.0599   46.3412 C   0  0  0  0  0  0  0  0  0  0  0  0
   55.2727   26.1354   46.0578 O   0  0  0  0  0  0  0  0  0  0  0  0
   58.7176   30.5364   44.3101 C   0  0  0  0  0  0  0  0  0  0  0  0
   57.8265   31.4315   45.1309 C   0  0  0  0  0  0  0  0  0  0  0  0
   56.5900   31.1700   45.1618 O   0  0  0  0  0  0  0  0  0  0  0  0
   58.3455   32.5570   45.8836 N   0  0  0  0  0  0  0  0  0  0  0  0
   57.9452   32.7197   47.2942 C   0  0  0  0  0  0  0  0  0  0  0  0
   59.0730   33.3563   48.1014 C   0  0  0  0  0  0  0  0  0  0  0  0
   59.4332   34.6288   47.5014 N   0  0  0  0  0  0  0  0  0  0  0  0
   59.4670   34.7709   46.0831 C   0  0  0  0  0  0  0  0  0  0  0  0
   59.8020   35.8734   45.5764 O   0  0  0  0  0  0  0  0  0  0  0  0
   59.1120   33.6140   45.1885 C   0  0  0  0  0  0  0  0  0  0  0  0
  1  2  2  0
  2  3  1  0
  3  4  2  0
  4  9  1  0
  9 10  1  0
 10 11  1  0
 11 12  2  0
 11 13  1  0
 13 14  1  0
 14 15  1  0
  3  5  1  0
  5  6  2  0
  6 16  1  0
 16 17  1  0
 17 18  2  0
 17 19  1  0
 19 20  1  0
 20 21  1  0
 21 22  1  0
 22 23  1  0
 23 24  2  0
 23 25  1  0
  6  7  1  0
  7  8  1  0
  7  2  1  0
 14  9  2  0
 25 19  1  0
M  CHG 1  10  -1
M  CHG 1  13  -1
M  CHG 1  15  -1
M  CHG 1  22  -1
M  END
> <UniqueID>
70

> <SMILES>
C=c1c(=Cc2[n-]c(=O)[n-]c2[O-])cc(CC(=O)N2CC[N-]C(=O)C2)n1C

> <Energy>
111.29904526637517

> <Genealogy>
C=c1c(=Cc2[n-]c(=O)[n-]c2[O-])cc(CC(=O)N2CC[N-]C(=O)C2)n1C (protonated)
C=c1c(=Cc2[n-]c(=O)[n-]c2[O-])cc(CC(=O)N2CC[N-]C(=O)C2)n1C (3D coordinates assigned)
C=c1c(=Cc2[n-]c(=O)[n-]c2[O-])cc(CC(=O)N2CC[N-]C(=O)C2)n1C (nonaromatic ring conformer: 111.29904526637517 kcal/mol)

> <smiles>
C=c1c(=Cc2[nH]c(=O)[nH]c2O)cc(CC(=O)N2CCNC(=O)C2)n1C

> <score_type>
oracle

> <origin>
adg

> <m_score__min__energy>
-16.989999999999998

> <m_primary>
energy

> <minimizedAffinity>
-7.59039

> <minimizedRMSD>
0.72893

> <CNNscore>
0.1400039941

> <CNNaffinity>
5.9160060883

> <CNN_VS>
0.8282644749

> <CNNaffinity_variance>
0.1371778995

$$$$
76:0


 30 33  0  0  0  0  0  0  0  0999 V2000
   53.2817   27.6145   53.8790 C   0  0  0  0  0  0  0  0  0  0  0  0
   54.3748   28.3888   53.7852 C   0  0  0  0  0  0  0  0  0  0  0  0
   54.4312   29.7100   53.3107 C   0  0  0  0  0  0  0  0  0  0  0  0
   53.4528   30.5915   53.0271 C   0  0  0  0  0  0  0  0  0  0  0  0
   55.7736   30.0060   53.1547 C   0  0  0  0  0  0  0  0  0  0  0  0
   56.4834   28.9058   53.5916 C   0  0  0  0  0  0  0  0  0  0  0  0
   55.6371   27.9312   54.0014 N   0  0  0  0  0  0  0  0  0  0  0  0
   56.0192   26.6090   54.5101 C   0  0  0  0  0  0  0  0  0  0  0  0
   57.9577   28.8001   53.5299 C   0  0  0  0  0  0  0  0  0  0  0  0
   58.5204   27.7401   53.9168 O   0  0  0  0  0  0  0  0  0  0  0  0
   58.7542   29.8593   52.9683 N   0  0  0  0  0  0  0  0  0  0  0  0
   59.9848   29.5163   52.2388 C   0  0  0  0  0  0  0  0  0  0  0  0
   60.5861   30.7398   51.5334 C   0  0  0  0  0  0  0  0  0  0  0  0
   59.4634   31.5957   50.9264 C   0  0  0  0  0  0  0  0  0  0  0  0
   58.5109   32.1463   52.0187 C   0  0  0  0  0  0  0  0  0  0  0  0
   58.4664   31.2665   53.2839 C   0  0  0  0  0  0  0  0  0  0  0  0
   60.0221   32.6746   50.0988 N   0  0  0  0  0  0  0  0  0  0  0  0
   61.3212   33.3240   50.2939 C   0  0  0  0  0  0  0  0  0  0  0  0
   61.6352   34.0658   48.9706 C   0  0  0  0  0  0  0  0  0  0  0  0
   60.5235   33.7726   48.0793 N   0  0  0  0  0  0  0  0  0  0  0  0
   59.6160   32.9493   48.7712 C   0  0  0  0  0  0  0  0  0  0  0  0
   58.5652   32.4906   48.2507 O   0  0  0  0  0  0  0  0  0  0  0  0
   60.4236   34.0939   47.1541 H   0  0  0  0  0  0  0  0  0  0  0  0
   52.6148   30.5870   51.8198 C   0  0  0  0  0  0  0  0  0  0  0  0
   52.8010   29.7444   50.7895 N   0  0  0  0  0  0  0  0  0  0  0  0
   51.9088   30.1720   49.8702 C   0  0  0  0  0  0  0  0  0  0  0  0
   51.7681   29.6140   48.7511 O   0  0  0  0  0  0  0  0  0  0  0  0
   51.1876   31.2532   50.2391 N   0  0  0  0  0  0  0  0  0  0  0  0
   51.6568   31.5123   51.4694 C   0  0  0  0  0  0  0  0  0  0  0  0
   51.2381   32.5884   52.2433 O   0  0  0  0  0  0  0  0  0  0  0  0
  1  2  2  0
  2  3  1  0
  3  4  2  0
  4 24  1  0
 24 25  1  0
 25 26  1  0
 26 27  2  0
 26 28  1  0
 28 29  1  0
 29 30  1  0
  3  5  1  0
  5  6  2  0
  6  9  1  0
  9 10  2  0
  9 11  1  0
 11 12  1  0
 12 13  1  0
 13 14  1  0
 14 17  1  0
 17 18  1  0
 18 19  1  0
 19 20  1  0
 20 21  1  0
 21 22  2  0
 14 15  1  0
 15 16  1  0
  6  7  1  0
  7  8  1  0
  7  2  1  0
 29 24  2  0
 16 11  1  0
 21 17  1  0
 20 23  1  0
M  CHG 1  25  -1
M  CHG 1  28  -1
M  CHG 1  30  -1
M  END
> <UniqueID>
74

> <SMILES>
C=c1c(=Cc2[n-]c(=O)[n-]c2[O-])cc(C(=O)N2CCC(N3CCNC3=O)CC2)n1C

> <Energy>
141.96258632549316

> <Genealogy>
C=c1c(=Cc2[n-]c(=O)[n-]c2[O-])cc(C(=O)N2CCC(N3CCNC3=O)CC2)n1C (protonated)
C=c1c(=Cc2[n-]c(=O)[n-]c2[O-])cc(C(=O)N2CCC(N3CCNC3=O)CC2)n1C (3D coordinates assigned)
C=c1c(=Cc2[n-]c(=O)[n-]c2[O-])cc(C(=O)N2CCC(N3CCNC3=O)CC2)n1C (nonaromatic ring conformer: 141.96258632549316 kcal/mol)

> <smiles>
C=c1c(=Cc2[nH]c(=O)[nH]c2O)cc(C(=O)N2CCC(N3CCNC3=O)CC2)n1C

> <score_type>
oracle

> <origin>
adg

> <m_score__min__energy>
-17.120000000000001

> <m_primary>
energy

> <minimizedAffinity>
-6.03639

> <minimizedRMSD>
1.36838

> <CNNscore>
0.0596294701

> <CNNaffinity>
4.6199326515

> <CNN_VS>
0.2754841447

> <CNNaffinity_variance>
0.3577967584

$$$$
85:0


 28 31  0  0  0  0  0  0  0  0999 V2000
   54.6890   29.4848   55.6564 C   0  0  0  0  0  0  0  0  0  0  0  0
   55.1320   29.8818   54.4522 C   0  0  0  0  0  0  0  0  0  0  0  0
   54.3494   30.1443   53.3174 C   0  0  0  0  0  0  0  0  0  0  0  0
   53.0197   30.3143   53.1819 C   0  0  0  0  0  0  0  0  0  0  0  0
   55.2286   30.2366   52.2560 C   0  0  0  0  0  0  0  0  0  0  0  0
   56.5011   30.1057   52.7729 C   0  0  0  0  0  0  0  0  0  0  0  0
   56.4487   29.9292   54.1155 N   0  0  0  0  0  0  0  0  0  0  0  0
   57.5946   29.7142   55.0044 C   0  0  0  0  0  0  0  0  0  0  0  0
   52.2946   30.4652   51.9099 C   0  0  0  0  0  0  0  0  0  0  0  0
   52.4163   29.6063   50.8827 N   0  0  0  0  0  0  0  0  0  0  0  0
   51.7092   30.1932   49.8959 C   0  0  0  0  0  0  0  0  0  0  0  0
   51.5735   29.6743   48.7570 O   0  0  0  0  0  0  0  0  0  0  0  0
   51.1658   31.3866   50.2188 N   0  0  0  0  0  0  0  0  0  0  0  0
   51.5596   31.5538   51.4912 C   0  0  0  0  0  0  0  0  0  0  0  0
   51.2874   32.6928   52.2392 O   0  0  0  0  0  0  0  0  0  0  0  0
   57.7544   30.2352   51.9497 C   0  0  0  0  0  0  0  0  0  0  0  0
   58.3054   31.6324   52.0796 C   0  0  0  0  0  0  0  0  0  0  0  0
   57.5189   32.5541   52.2449 O   0  0  0  0  0  0  0  0  0  0  0  0
   59.7392   31.8817   52.0368 N   0  0  0  0  0  0  0  0  0  0  0  0
   60.4588   30.9086   51.1853 C   0  0  0  0  0  0  0  0  0  0  0  0
   60.3292   31.2036   49.6799 C   0  0  0  0  0  0  0  0  0  0  0  0
   60.6979   32.6033   49.3908 N   0  0  0  0  0  0  0  0  0  0  0  0
   59.8817   33.5491   50.1685 C   0  0  0  0  0  0  0  0  0  0  0  0
   60.0432   33.2819   51.6718 C   0  0  0  0  0  0  0  0  0  0  0  0
   60.4131   32.1459   51.3695 H   0  0  0  0  0  0  0  0  0  0  0  0
   60.7640   33.0099   47.9609 C   0  0  0  0  0  0  0  0  0  0  0  0
   59.9097   34.2154   47.5785 C   0  0  0  0  0  0  0  0  0  0  0  0
   59.5393   32.8329   47.0584 C   0  0  0  0  0  0  0  0  0  0  0  0
  1  2  2  0
  2  3  1  0
  3  4  2  0
  4  9  1  0
  9 10  1  0
 10 11  1  0
 11 12  2  0
 11 13  1  0
 13 14  1  0
 14 15  1  0
  3  5  1  0
  5  6  2  0
  6 16  1  0
 16 17  1  0
 17 18  2  0
 17 19  1  0
 19 20  1  0
 20 21  1  0
 21 22  1  0
 22 26  1  0
 26 27  1  0
 27 28  1  0
 22 23  1  0
 23 24  1  0
  6  7  1  0
  7  8  1  0
  7  2  1  0
 14  9  2  0
 24 19  1  0
 28 26  1  0
 19 25  1  0
M  CHG 1  10  -1
M  CHG 1  13  -1
M  CHG 1  15  -1
M  CHG 1  19   1
M  END
> <UniqueID>
83

> <SMILES>
C=c1/c(=C\c2[n-]c(=O)[n-]c2[O-])cc(CC(=O)[NH+]2CCN(C3CC3)CC2)n1C

> <Energy>
399.571230997733

> <Genealogy>
C=c1c(=Cc2[n-]c(=O)[n-]c2[O-])cc(CC(=O)[NH+]2CCN(C3CC3)CC2)n1C (protonated)
C=c1/c(=C\c2[n-]c(=O)[n-]c2[O-])cc(CC(=O)[NH+]2CCN(C3CC3)CC2)n1C (cis-trans isomerization)
C=c1/c(=C\c2[n-]c(=O)[n-]c2[O-])cc(CC(=O)[NH+]2CCN(C3CC3)CC2)n1C (3D coordinates assigned)
C=c1/c(=C\c2[n-]c(=O)[n-]c2[O-])cc(CC(=O)[NH+]2CCN(C3CC3)CC2)n1C (nonaromatic ring conformer: 399.571230997733 kcal/mol)

> <smiles>
C=c1c(=Cc2[nH]c(=O)[nH]c2O)cc(CC(=O)N2CCN(C3CC3)CC2)n1C

> <score_type>
oracle

> <origin>
adg

> <m_score__min__energy>
-16.170000000000002

> <m_primary>
energy

> <minimizedAffinity>
-5.55303

> <minimizedRMSD>
0.97474

> <CNNscore>
0.0857914239

> <CNNaffinity>
5.1382365227

> <CNN_VS>
0.4408166409

> <CNNaffinity_variance>
0.1658714861

$$$$
1:0


 31 34  0  0  0  0  0  0  0  0999 V2000
   61.1059   30.4489   47.0969 C   0  0  0  0  0  0  0  0  0  0  0  0
   60.8221   28.3382   44.9523 C   0  0  0  0  0  0  0  0  0  0  0  0
   60.0085   28.4165   46.0175 C   0  0  0  0  0  0  0  0  0  0  0  0
   59.0062   27.4983   46.3581 C   0  0  0  0  0  0  0  0  0  0  0  0
   58.3991   26.5492   45.6208 C   0  0  0  0  0  0  0  0  0  0  0  0
   58.6696   27.7617   47.6706 C   0  0  0  0  0  0  0  0  0  0  0  0
   59.3913   28.8744   48.0515 C   0  0  0  0  0  0  0  0  0  0  0  0
   59.3552   29.4636   49.4304 C   0  0  0  0  0  0  0  0  0  0  0  0
   60.1689   29.3121   47.0304 N   0  0  0  0  0  0  0  0  0  0  0  0
   57.6273   25.4219   46.1689 C   0  0  0  0  0  0  0  0  0  0  0  0
   58.1362   24.2050   46.4426 N   0  0  0  0  0  0  0  0  0  0  0  0
   57.0484   23.4814   46.7838 C   0  0  0  0  0  0  0  0  0  0  0  0
   57.1203   22.2720   47.1251 O   0  0  0  0  0  0  0  0  0  0  0  0
   55.8790   24.1515   46.7202 N   0  0  0  0  0  0  0  0  0  0  0  0
   56.2634   25.3742   46.3162 C   0  0  0  0  0  0  0  0  0  0  0  0
   55.3832   26.4218   46.0811 O   0  0  0  0  0  0  0  0  0  0  0  0
   60.4048   31.7976   47.2022 C   0  0  0  0  0  0  0  0  0  0  0  0
   61.0820   32.8318   47.8797 C   0  0  0  0  0  0  0  0  0  0  0  0
   60.4793   34.0718   48.0855 C   0  0  0  0  0  0  0  0  0  0  0  0
   59.1790   34.2972   47.6459 C   0  0  0  0  0  0  0  0  0  0  0  0
   58.4778   33.2851   46.9951 C   0  0  0  0  0  0  0  0  0  0  0  0
   59.0710   32.0300   46.7515 C   0  0  0  0  0  0  0  0  0  0  0  0
   58.2399   30.9795   46.0348 C   0  0  0  0  0  0  0  0  0  0  0  0
   58.4751   30.9718   44.5665 N   0  0  0  0  0  0  0  0  0  0  0  0
   58.0564   32.2539   43.9389 C   0  0  0  0  0  0  0  0  0  0  0  0
   57.8180   32.0882   42.4309 C   0  0  0  0  0  0  0  0  0  0  0  0
   56.7365   31.1261   42.1437 N   0  0  0  0  0  0  0  0  0  0  0  0
   56.5287   30.1311   43.2108 C   0  0  0  0  0  0  0  0  0  0  0  0
   57.8445   29.7828   43.9205 C   0  0  0  0  0  0  0  0  0  0  0  0
   59.4799   30.8897   44.4118 H   0  0  0  0  0  0  0  0  0  0  0  0
   56.9666   30.6309   41.2822 H   0  0  0  0  0  0  0  0  0  0  0  0
  2  3  2  0
  3  4  1  0
  4  5  2  0
  5 10  1  0
 10 11  1  0
 11 12  1  0
 12 13  2  0
 12 14  1  0
 14 15  1  0
 15 16  1  0
  4  6  1  0
  6  7  2  0
  7  8  1  0
  7  9  1  0
  9  1  1  0
  1 17  1  0
 17 18  2  0
 18 19  1  0
 19 20  2  0
 20 21  1  0
 21 22  2  0
 22 23  1  0
 23 24  1  0
 24 25  1  0
 25 26  1  0
 26 27  1  0
 27 28  1  0
 28 29  1  0
  9  3  1  0
 22 17  1  0
 29 24  1  0
 15 10  2  0
 24 30  1  0
 27 31  1  0
M  CHG 1  11  -1
M  CHG 1  14  -1
M  CHG 1  16  -1
M  CHG 1  24   1
M  END
> <UniqueID>
2

> <SMILES>
C=c1c(=Cc2[n-]c(=O)[n-]c2[O-])cc(C)n1Cc1ccccc1C[NH+]1CCNCC1

> <Energy>
138.08474357731785

> <Genealogy>
C=c1c(=Cc2[n-]c(=O)[n-]c2[O-])cc(C)n1Cc1ccccc1C[NH+]1CCNCC1 (protonated)
C=c1c(=Cc2[n-]c(=O)[n-]c2[O-])cc(C)n1Cc1ccccc1C[NH+]1CCNCC1 (3D coordinates assigned)
C=c1c(=Cc2[n-]c(=O)[n-]c2[O-])cc(C)n1Cc1ccccc1C[NH+]1CCNCC1 (nonaromatic ring conformer: 138.08474357731785 kcal/mol)

> <smiles>
C=c1c(=Cc2[nH]c(=O)[nH]c2O)cc(C)n1Cc1ccccc1CN1CCNCC1

> <score_type>
oracle

> <origin>
adg

> <m_score__min__energy>
-15.050000000000001

> <m_primary>
energy

> <minimizedAffinity>
-7.23993

> <minimizedRMSD>
0.60015

> <CNNscore>
0.1510096639

> <CNNaffinity>
6.6586132050

> <CNN_VS>
1.0055149794

> <CNNaffinity_variance>
0.1529919654

$$$$
5:0


 27 29  0  0  0  0  0  0  0  0999 V2000
   60.9761   29.0407   45.2944 C   0  0  0  0  0  0  0  0  0  0  0  0
   59.7707   28.4820   45.4221 C   0  0  0  0  0  0  0  0  0  0  0  0
   59.5977   27.2823   46.0247 N   0  0  0  0  0  0  0  0  0  0  0  0
   58.2629   27.0861   46.0088 C   0  0  0  0  0  0  0  0  0  0  0  0
   57.6366   26.0458   46.5739 C   0  0  0  0  0  0  0  0  0  0  0  0
   57.6610   28.1679   45.4060 C   0  0  0  0  0  0  0  0  0  0  0  0
   56.4197   28.3484   45.2717 O   0  0  0  0  0  0  0  0  0  0  0  0
   58.6032   29.0465   45.0155 N   0  0  0  0  0  0  0  0  0  0  0  0
   57.1995   24.8547   45.8135 C   0  0  0  0  0  0  0  0  0  0  0  0
   58.1678   23.9248   45.4076 C   0  0  0  0  0  0  0  0  0  0  0  0
   57.7998   22.7871   44.6837 C   0  0  0  0  0  0  0  0  0  0  0  0
   56.4547   22.5574   44.3727 C   0  0  0  0  0  0  0  0  0  0  0  0
   56.0750   21.4290   43.6511 O   0  0  0  0  0  0  0  0  0  0  0  0
   55.4795   23.4669   44.7974 C   0  0  0  0  0  0  0  0  0  0  0  0
   55.8419   24.6054   45.5258 C   0  0  0  0  0  0  0  0  0  0  0  0
   54.8443   25.4602   45.9826 O   0  0  0  0  0  0  0  0  0  0  0  0
   56.7233   20.8164   43.3639 H   0  0  0  0  0  0  0  0  0  0  0  0
   58.3578   30.4071   44.5259 C   0  0  0  0  0  0  0  0  0  0  0  0
   58.2206   31.3263   45.6956 C   0  0  0  0  0  0  0  0  0  0  0  0
   58.3599   30.8802   46.8674 O   0  0  0  0  0  0  0  0  0  0  0  0
   58.0617   32.7290   45.4698 N   0  0  0  0  0  0  0  0  0  0  0  0
   59.1889   33.6484   45.4271 C   0  0  0  0  0  0  0  0  0  0  0  0
   59.8892   33.6347   46.7494 C   0  0  0  0  0  0  0  0  0  0  0  0
   59.3547   34.0810   47.9519 C   0  0  0  0  0  0  0  0  0  0  0  0
   60.2861   34.1020   48.9969 C   0  0  0  0  0  0  0  0  0  0  0  0
   61.5587   33.6912   48.6175 C   0  0  0  0  0  0  0  0  0  0  0  0
   61.5224   33.3082   46.9804 S   0  0  0  0  0  0  0  0  0  0  0  0
  1  2  2  0
  2  3  1  0
  3  4  1  0
  4  5  2  0
  5  9  1  0
  9 10  2  0
 10 11  1  0
 11 12  2  0
 12 13  1  0
 12 14  1  0
 14 15  2  0
 15 16  1  0
  4  6  1  0
  6  7  2  0
  6  8  1  0
  8 18  1  0
 18 19  1  0
 19 20  2  0
 19 21  1  0
 21 22  1  0
 22 23  1  0
 23 24  2  0
 24 25  1  0
 25 26  2  0
 26 27  1  0
  8  2  1  0
 27 23  1  0
 15  9  1  0
 13 17  1  0
M  CHG 1   3  -1
M  CHG 1  16  -1
M  CHG 1  21  -1
M  END
> <UniqueID>
6

> <SMILES>
C=c1[n-]c(=Cc2ccc(O)cc2[O-])c(=O)n1CC(=O)[N-]Cc1cccs1

> <Energy>
100.06771402382478

> <Genealogy>
C=c1[n-]c(=Cc2ccc(O)cc2[O-])c(=O)n1CC(=O)[N-]Cc1cccs1 (protonated)
C=c1[n-]c(=Cc2ccc(O)cc2[O-])c(=O)n1CC(=O)[N-]Cc1cccs1 (3D coordinates assigned)
C=c1[n-]c(=Cc2ccc(O)cc2[O-])c(=O)n1CC(=O)[N-]Cc1cccs1 (optimized conformer: 100.06771402382478 kcal/mol)

> <smiles>
C=c1[nH]c(=Cc2ccc(O)cc2O)c(=O)n1CC(=O)NCc1cccs1

> <score_type>
oracle

> <origin>
adg

> <m_score__min__energy>
-14.58

> <m_primary>
energy

> <minimizedAffinity>
-7.30877

> <minimizedRMSD>
0.89989

> <CNNscore>
0.3074454367

> <CNNaffinity>
6.2922000885

> <CNN_VS>
1.9345082045

> <CNNaffinity_variance>
0.0077994219

$$$$
21:0


 36 39  0  0  0  0  0  0  0  0999 V2000
   57.6553   25.4510   45.8896 C   0  0  0  0  0  0  0  0  0  0  0  0
   57.9975   24.8574   48.1615 O   0  0  0  0  0  0  0  0  0  0  0  0
   58.3683   25.5970   47.2049 C   0  0  0  0  0  0  0  0  0  0  0  0
   59.4631   26.4980   47.4427 N   0  0  0  0  0  0  0  0  0  0  0  0
   59.9246   27.2459   48.5871 C   0  0  0  0  0  0  0  0  0  0  0  0
   60.8703   26.7659   49.5178 C   0  0  0  0  0  0  0  0  0  0  0  0
   61.2330   27.5457   50.6194 C   0  0  0  0  0  0  0  0  0  0  0  0
   60.6581   28.8004   50.8180 C   0  0  0  0  0  0  0  0  0  0  0  0
   59.7074   29.2948   49.9100 C   0  0  0  0  0  0  0  0  0  0  0  0
   59.3459   28.5052   48.8048 C   0  0  0  0  0  0  0  0  0  0  0  0
   59.0624   30.6057   50.1551 C   0  0  0  0  0  0  0  0  0  0  0  0
   58.4506   31.1712   49.2083 O   0  0  0  0  0  0  0  0  0  0  0  0
   59.1143   31.2490   51.4420 N   0  0  0  0  0  0  0  0  0  0  0  0
   59.0331   30.4803   52.6896 C   0  0  0  0  0  0  0  0  0  0  0  0
   58.0796   31.1831   53.6615 C   0  0  0  0  0  0  0  0  0  0  0  0
   58.4411   32.5421   53.8309 O   0  0  0  0  0  0  0  0  0  0  0  0
   58.2817   33.2377   52.6073 C   0  0  0  0  0  0  0  0  0  0  0  0
   59.2535   32.7060   51.5485 C   0  0  0  0  0  0  0  0  0  0  0  0
   56.4568   26.3666   45.8042 C   0  0  0  0  0  0  0  0  0  0  0  0
   55.3276   25.9499   46.1959 O   0  0  0  0  0  0  0  0  0  0  0  0
   56.5688   27.7306   45.3763 N   0  0  0  0  0  0  0  0  0  0  0  0
   57.7602   28.5243   45.2856 C   0  0  0  0  0  0  0  0  0  0  0  0
   58.9779   27.9903   44.8352 C   0  0  0  0  0  0  0  0  0  0  0  0
   60.1106   28.8038   44.7370 C   0  0  0  0  0  0  0  0  0  0  0  0
   60.0322   30.1584   45.0594 C   0  0  0  0  0  0  0  0  0  0  0  0
   58.8134   30.7138   45.4725 C   0  0  0  0  0  0  0  0  0  0  0  0
   57.6809   29.8935   45.5774 C   0  0  0  0  0  0  0  0  0  0  0  0
   58.7092   32.4392   45.8470 S   0  0  0  0  0  0  0  0  0  0  0  0
   58.6181   33.2208   44.5645 O   0  0  0  0  0  0  0  0  0  0  0  0
   57.4557   32.6942   46.6357 O   0  0  0  0  0  0  0  0  0  0  0  0
   60.0890   32.9879   46.7700 N   0  0  0  0  0  0  0  0  0  0  0  0
   59.6518   33.8069   47.9110 C   0  0  0  0  0  0  0  0  0  0  0  0
   60.8695   34.2749   48.7334 C   0  0  0  0  0  0  0  0  0  0  0  0
   62.0799   33.7046   48.2663 O   0  0  0  0  0  0  0  0  0  0  0  0
   61.9696   32.2968   48.2378 C   0  0  0  0  0  0  0  0  0  0  0  0
   60.8912   31.8432   47.2346 C   0  0  0  0  0  0  0  0  0  0  0  0
  2  3  2  0
  3  1  1  0
  1 19  1  0
 19 20  2  0
 19 21  1  0
 21 22  1  0
 22 23  2  0
 23 24  1  0
 24 25  2  0
 25 26  1  0
 26 28  1  0
 28 29  2  0
 28 30  2  0
 28 31  1  0
 31 32  1  0
 32 33  1  0
 33 34  1  0
 34 35  1  0
 35 36  1  0
 26 27  2  0
  3  4  1  0
  4  5  1  0
  5  6  2  0
  6  7  1  0
  7  8  2  0
  8  9  1  0
  9 11  1  0
 11 12  2  0
 11 13  1  0
 13 14  1  0
 14 15  1  0
 15 16  1  0
 16 17  1  0
 17 18  1  0
  9 10  2  0
 27 22  1  0
 10  5  1  0
 36 31  1  0
 18 13  1  0
M  CHG 1   4  -1
M  CHG 1  21  -1
M  END
> <UniqueID>
21

> <SMILES>
O=C(CC(=O)[N-]c1cccc(S(=O)(=O)N2CCOCC2)c1)[N-]c1cccc(C(=O)N2CCOCC2)c1

> <Energy>
91.35894961487462

> <Genealogy>
O=C(CC(=O)[N-]c1cccc(S(=O)(=O)N2CCOCC2)c1)[N-]c1cccc(C(=O)N2CCOCC2)c1 (protonated)
O=C(CC(=O)[N-]c1cccc(S(=O)(=O)N2CCOCC2)c1)[N-]c1cccc(C(=O)N2CCOCC2)c1 (3D coordinates assigned)
O=C(CC(=O)[N-]c1cccc(S(=O)(=O)N2CCOCC2)c1)[N-]c1cccc(C(=O)N2CCOCC2)c1 (nonaromatic ring conformer: 91.35894961487462 kcal/mol)

> <smiles>
O=C(CC(=O)Nc1cccc(S(=O)(=O)N2CCOCC2)c1)Nc1cccc(C(=O)N2CCOCC2)c1

> <score_type>
oracle

> <origin>
adg

> <m_score__min__energy>
-14.529999999999999

> <m_primary>
energy

> <minimizedAffinity>
-5.02509

> <minimizedRMSD>
0.95379

> <CNNscore>
0.7322541475

> <CNNaffinity>
6.8740649223

> <CNN_VS>
5.0335626602

> <CNNaffinity_variance>
0.0358739831

$$$$
30:0


 37 41  0  0  0  0  0  0  0  0999 V2000
   60.1029   28.5721   47.3164 C   0  0  0  0  0  0  0  0  0  0  0  0
   60.3791   29.8170   47.6485 O   0  0  0  0  0  0  0  0  0  0  0  0
   60.6747   29.8552   48.9263 C   0  0  0  0  0  0  0  0  0  0  0  0
   61.0794   30.9664   49.6971 C   0  0  0  0  0  0  0  0  0  0  0  0
   61.4106   30.7074   51.0502 C   0  0  0  0  0  0  0  0  0  0  0  0
   61.3084   29.4093   51.5914 C   0  0  0  0  0  0  0  0  0  0  0  0
   60.8798   28.3362   50.7980 C   0  0  0  0  0  0  0  0  0  0  0  0
   60.5682   28.5948   49.4649 C   0  0  0  0  0  0  0  0  0  0  0  0
   60.1707   27.7510   48.4439 C   0  0  0  0  0  0  0  0  0  0  0  0
   60.0042   26.2636   48.5037 C   0  0  0  0  0  0  0  0  0  0  0  0
   61.1203   32.3201   49.1726 N   0  0  0  0  0  0  0  0  0  0  0  0
   60.0964   33.2992   49.5725 C   0  0  0  0  0  0  0  0  0  0  0  0
   59.7520   34.2441   48.3987 C   0  0  0  0  0  0  0  0  0  0  0  0
   59.7545   33.5270   47.0974 N   0  0  0  0  0  0  0  0  0  0  0  0
   61.0730   32.8814   46.7985 C   0  0  0  0  0  0  0  0  0  0  0  0
   61.9643   32.7125   48.0417 C   0  0  0  0  0  0  0  0  0  0  0  0
   59.6221   34.2133   46.3545 H   0  0  0  0  0  0  0  0  0  0  0  0
   58.6187   32.5697   47.0456 C   0  0  0  0  0  0  0  0  0  0  0  0
   58.2612   32.1504   45.6413 C   0  0  0  0  0  0  0  0  0  0  0  0
   58.3491   32.8777   44.4578 C   0  0  0  0  0  0  0  0  0  0  0  0
   58.8868   34.2715   44.3072 C   0  0  0  0  0  0  0  0  0  0  0  0
   57.8642   32.1196   43.4416 N   0  0  0  0  0  0  0  0  0  0  0  0
   57.7683   32.5177   42.0355 C   0  0  0  0  0  0  0  0  0  0  0  0
   57.4056   30.9775   43.9416 N   0  0  0  0  0  0  0  0  0  0  0  0
   56.7787   29.9035   43.1710 C   0  0  0  0  0  0  0  0  0  0  0  0
   57.6410   30.9747   45.2686 C   0  0  0  0  0  0  0  0  0  0  0  0
   57.3201   30.0360   46.0464 O   0  0  0  0  0  0  0  0  0  0  0  0
   59.8603   28.1595   45.9217 C   0  0  0  0  0  0  0  0  0  0  0  0
   60.6933   28.4261   45.0151 O   0  0  0  0  0  0  0  0  0  0  0  0
   58.9778   24.0339   45.6142 C   0  0  0  0  0  0  0  0  0  0  0  0
   59.2335   25.3667   45.5359 N   0  0  0  0  0  0  0  0  0  0  0  0
   58.2634   26.3098   45.6921 C   0  0  0  0  0  0  0  0  0  0  0  0
   58.6077   27.5614   45.5721 N   0  0  0  0  0  0  0  0  0  0  0  0
   56.9421   25.8875   45.9828 C   0  0  0  0  0  0  0  0  0  0  0  0
   55.9154   26.7919   46.2267 O   0  0  0  0  0  0  0  0  0  0  0  0
   56.6674   24.5192   46.0609 C   0  0  0  0  0  0  0  0  0  0  0  0
   57.6829   23.5870   45.8704 C   0  0  0  0  0  0  0  0  0  0  0  0
 30 31  1  0
 31 32  1  0
 32 33  2  0
 33 28  1  0
 28 29  2  0
 28  1  1  0
  1  2  1  0
  2  3  1  0
  3  4  2  0
  4 11  1  0
 11 12  1  0
 12 13  1  0
 13 14  1  0
 14 18  1  0
 18 19  1  0
 19 20  2  0
 20 21  1  0
 20 22  1  0
 22 23  1  0
 22 24  1  0
 24 25  1  0
 24 26  1  0
 26 27  2  0
 14 15  1  0
 15 16  1  0
  4  5  1  0
  5  6  2  0
  6  7  1  0
  7  8  2  0
  8  9  1  0
  9 10  1  0
 32 34  1  0
 34 35  1  0
 34 36  2  0
 36 37  1  0
 37 30  2  0
  9  1  2  0
  8  3  1  0
 16 11  1  0
 26 19  1  0
 14 17  1  0
M  CHG 1  14   1
M  CHG 1  31  -1
M  CHG 1  35  -1
M  END
> <UniqueID>
30

> <SMILES>
Cc1c(C(=O)/N=c2/[n-]cccc2[O-])oc2c(N3CC[NH+](Cc4c(C)n(C)n(C)c4=O)CC3)cccc12

> <Energy>
160.77411649761243

> <Genealogy>
Cc1c(C(=O)N=c2[n-]cccc2[O-])oc2c(N3CC[NH+](Cc4c(C)n(C)n(C)c4=O)CC3)cccc12 (protonated)
Cc1c(C(=O)/N=c2/[n-]cccc2[O-])oc2c(N3CC[NH+](Cc4c(C)n(C)n(C)c4=O)CC3)cccc12 (cis-trans isomerization)
Cc1c(C(=O)/N=c2/[n-]cccc2[O-])oc2c(N3CC[NH+](Cc4c(C)n(C)n(C)c4=O)CC3)cccc12 (3D coordinates assigned)
Cc1c(C(=O)/N=c2/[n-]cccc2[O-])oc2c(N3CC[NH+](Cc4c(C)n(C)n(C)c4=O)CC3)cccc12 (nonaromatic ring conformer: 160.77411649761243 kcal/mol)

> <smiles>
Cc1c(C(=O)N=c2[nH]cccc2O)oc2c(N3CCN(Cc4c(C)n(C)n(C)c4=O)CC3)cccc12

> <score_type>
oracle

> <origin>
adg

> <m_score__min__energy>
-14.4

> <m_primary>
energy

> <minimizedAffinity>
-6.79852

> <minimizedRMSD>
0.66711

> <CNNscore>
0.1345766932

> <CNNaffinity>
6.8276658058

> <CNN_VS>
0.9188446999

> <CNNaffinity_variance>
0.3595969975

$$$$
35:0


 30 32  0  0  0  0  0  0  0  0999 V2000
   60.2404   31.8725   49.7317 N   0  0  0  0  0  0  0  0  0  0  0  0
   60.2759   31.2523   48.4017 C   0  0  0  0  0  0  0  0  0  0  0  0
   60.9045   32.2045   47.3700 C   0  0  0  0  0  0  0  0  0  0  0  0
   60.6532   33.6217   47.7041 N   0  0  0  0  0  0  0  0  0  0  0  0
   61.3103   33.9920   48.9821 C   0  0  0  0  0  0  0  0  0  0  0  0
   61.2427   32.8901   50.0643 C   0  0  0  0  0  0  0  0  0  0  0  0
   59.9121   30.1507   51.4842 C   0  0  0  0  0  0  0  0  0  0  0  0
   59.1077   29.5904   52.4949 C   0  0  0  0  0  0  0  0  0  0  0  0
   57.8552   30.1361   52.7865 C   0  0  0  0  0  0  0  0  0  0  0  0
   57.3912   31.2442   52.0774 C   0  0  0  0  0  0  0  0  0  0  0  0
   56.1750   31.7705   52.3617 F   0  0  0  0  0  0  0  0  0  0  0  0
   58.1818   31.8140   51.0770 C   0  0  0  0  0  0  0  0  0  0  0  0
   59.4449   31.2806   50.7768 C   0  0  0  0  0  0  0  0  0  0  0  0
   61.6080   28.3060   51.5252 C   0  0  0  0  0  0  0  0  0  0  0  0
   61.1574   29.6012   51.1432 O   0  0  0  0  0  0  0  0  0  0  0  0
   59.2106   33.9562   47.6931 C   0  0  0  0  0  0  0  0  0  0  0  0
   58.3930   32.8078   47.0896 C   0  0  0  0  0  0  0  0  0  0  0  0
   57.6269   33.2688   45.8337 C   0  0  0  0  0  0  0  0  0  0  0  0
   58.2577   32.7625   44.6172 N   0  0  0  0  0  0  0  0  0  0  0  0
   57.9367   31.5181   43.9787 C   0  0  0  0  0  0  0  0  0  0  0  0
   57.3902   31.5399   42.8447 O   0  0  0  0  0  0  0  0  0  0  0  0
   58.1981   30.2154   44.6250 C   0  0  0  0  0  0  0  0  0  0  0  0
   59.5129   29.8351   44.9378 C   0  0  0  0  0  0  0  0  0  0  0  0
   59.7628   28.6028   45.5456 C   0  0  0  0  0  0  0  0  0  0  0  0
   58.7077   27.7412   45.8487 C   0  0  0  0  0  0  0  0  0  0  0  0
   57.3938   28.0975   45.5266 C   0  0  0  0  0  0  0  0  0  0  0  0
   56.3584   27.2151   45.8315 O   0  0  0  0  0  0  0  0  0  0  0  0
   57.1369   29.3341   44.9075 C   0  0  0  0  0  0  0  0  0  0  0  0
   55.8294   29.6917   44.5901 O   0  0  0  0  0  0  0  0  0  0  0  0
   56.5476   26.3954   46.2440 H   0  0  0  0  0  0  0  0  0  0  0  0
 14 15  1  0
 15  7  1  0
  7  8  2  0
  8  9  1  0
  9 10  2  0
 10 11  1  0
 10 12  1  0
 12 13  2  0
 13  1  1  0
  1  2  1  0
  2  3  1  0
  3  4  1  0
  4 16  1  0
 16 17  1  0
 17 18  1  0
 18 19  1  0
 19 20  1  0
 20 21  2  0
 20 22  1  0
 22 23  2  0
 23 24  1  0
 24 25  2  0
 25 26  1  0
 26 27  1  0
 26 28  2  0
 28 29  1  0
  4  5  1  0
  5  6  1  0
 13  7  1  0
  6  1  1  0
 28 22  1  0
 27 30  1  0
M  CHG 1  19  -1
M  CHG 1  29  -1
M  END
> <UniqueID>
35

> <SMILES>
COc1ccc(F)cc1N1CCN(CCC[N-]C(=O)c2cccc(O)c2[O-])CC1

> <Energy>
64.21723796060887

> <Genealogy>
COc1ccc(F)cc1N1CCN(CCC[N-]C(=O)c2cccc(O)c2[O-])CC1 (protonated)
COc1ccc(F)cc1N1CCN(CCC[N-]C(=O)c2cccc(O)c2[O-])CC1 (3D coordinates assigned)
COc1ccc(F)cc1N1CCN(CCC[N-]C(=O)c2cccc(O)c2[O-])CC1 (nonaromatic ring conformer: 64.21723796060887 kcal/mol)

> <smiles>
COc1ccc(F)cc1N1CCN(CCCNC(=O)c2cccc(O)c2O)CC1

> <score_type>
oracle

> <origin>
adg

> <m_score__min__energy>
-14.18

> <m_primary>
energy

> <minimizedAffinity>
-7.38590

> <minimizedRMSD>
1.26450

> <CNNscore>
0.2731601894

> <CNNaffinity>
5.9509425163

> <CNN_VS>
1.6255606413

> <CNNaffinity_variance>
0.1202321053

$$$$
45:0


 29 31  0  0  0  0  0  0  0  0999 V2000
   60.4374   28.1384   45.4859 C   0  0  0  0  0  0  0  0  0  0  0  0
   59.1066   28.0292   45.3603 C   0  0  0  0  0  0  0  0  0  0  0  0
   58.2903   26.9448   45.7203 C   0  0  0  0  0  0  0  0  0  0  0  0
   58.6178   25.6984   46.1070 C   0  0  0  0  0  0  0  0  0  0  0  0
   56.9957   27.3215   45.6243 N   0  0  0  0  0  0  0  0  0  0  0  0
   57.0450   28.5876   45.1732 C   0  0  0  0  0  0  0  0  0  0  0  0
   56.0109   29.2771   44.9689 O   0  0  0  0  0  0  0  0  0  0  0  0
   58.2984   29.0475   44.9784 N   0  0  0  0  0  0  0  0  0  0  0  0
   57.9026   24.4667   45.7392 C   0  0  0  0  0  0  0  0  0  0  0  0
   58.3248   23.6206   44.7743 N   0  0  0  0  0  0  0  0  0  0  0  0
   57.4701   22.5786   44.8671 C   0  0  0  0  0  0  0  0  0  0  0  0
   57.5468   21.5644   44.1240 O   0  0  0  0  0  0  0  0  0  0  0  0
   56.5466   22.7177   45.8414 N   0  0  0  0  0  0  0  0  0  0  0  0
   55.5640   21.7361   46.2873 C   0  0  0  0  0  0  0  0  0  0  0  0
   56.8454   23.8927   46.4153 C   0  0  0  0  0  0  0  0  0  0  0  0
   56.2058   24.4088   47.5389 O   0  0  0  0  0  0  0  0  0  0  0  0
   58.6612   30.4203   44.6042 C   0  0  0  0  0  0  0  0  0  0  0  0
   58.7062   31.2915   45.8232 C   0  0  0  0  0  0  0  0  0  0  0  0
   57.6973   31.9894   46.1199 O   0  0  0  0  0  0  0  0  0  0  0  0
   59.8658   31.3039   46.6658 N   0  0  0  0  0  0  0  0  0  0  0  0
   60.6704   30.8135   46.3805 H   0  0  0  0  0  0  0  0  0  0  0  0
   59.8857   32.0111   47.9128 C   0  0  0  0  0  0  0  0  0  0  0  0
   59.6162   31.3173   49.1144 C   0  0  0  0  0  0  0  0  0  0  0  0
   59.2912   29.8490   49.0945 C   0  0  0  0  0  0  0  0  0  0  0  0
   59.6213   32.0152   50.3324 C   0  0  0  0  0  0  0  0  0  0  0  0
   59.8929   33.3841   50.3611 C   0  0  0  0  0  0  0  0  0  0  0  0
   60.1692   34.0703   49.1787 C   0  0  0  0  0  0  0  0  0  0  0  0
   60.1871   33.3915   47.9500 C   0  0  0  0  0  0  0  0  0  0  0  0
   60.4956   34.1558   46.6909 C   0  0  0  0  0  0  0  0  0  0  0  0
  1  2  2  0
  2  3  1  0
  3  4  2  0
  4  9  1  0
  9 10  1  0
 10 11  1  0
 11 12  2  0
 11 13  1  0
 13 14  1  0
 13 15  1  0
 15 16  1  0
  3  5  1  0
  5  6  1  0
  6  7  2  0
  6  8  1  0
  8 17  1  0
 17 18  1  0
 18 19  2  0
 18 20  1  0
 20 22  1  0
 22 23  2  0
 23 24  1  0
 23 25  1  0
 25 26  2  0
 26 27  1  0
 27 28  2  0
 28 29  1  0
  8  2  1  0
 28 22  1  0
 15  9  2  0
 20 21  1  0
M  CHG 1   5  -1
M  CHG 1  10  -1
M  CHG 1  16  -1
M  END
> <UniqueID>
44

> <SMILES>
C=c1c(=Cc2[n-]c(=O)n(C)c2[O-])[n-]c(=O)n1CC(=O)Nc1c(C)cccc1C

> <Energy>
127.77725514184122

> <Genealogy>
C=c1c(=Cc2[n-]c(=O)n(C)c2[O-])[n-]c(=O)n1CC(=O)Nc1c(C)cccc1C (protonated)
C=c1c(=Cc2[n-]c(=O)n(C)c2[O-])[n-]c(=O)n1CC(=O)Nc1c(C)cccc1C (3D coordinates assigned)
C=c1c(=Cc2[n-]c(=O)n(C)c2[O-])[n-]c(=O)n1CC(=O)Nc1c(C)cccc1C (optimized conformer: 127.77725514184122 kcal/mol)

> <smiles>
C=c1c(=Cc2[nH]c(=O)n(C)c2O)[nH]c(=O)n1CC(=O)Nc1c(C)cccc1C

> <score_type>
oracle

> <origin>
adg

> <m_score__min__energy>
-15.82

> <m_primary>
energy

> <minimizedAffinity>
-8.08667

> <minimizedRMSD>
1.45098

> <CNNscore>
0.4603605866

> <CNNaffinity>
6.8622307777

> <CNN_VS>
3.1591005325

> <CNNaffinity_variance>
0.4017721415

$$$$
50:0


 24 26  0  0  0  0  0  0  0  0999 V2000
   58.4073   26.2612   47.3090 O   0  0  0  0  0  0  0  0  0  0  0  0
   58.1232   26.6993   46.1612 C   0  0  0  0  0  0  0  0  0  0  0  0
   58.1417   28.1212   45.9147 N   0  0  0  0  0  0  0  0  0  0  0  0
   57.3871   28.7087   44.8021 C   0  0  0  0  0  0  0  0  0  0  0  0
   57.1482   30.2036   45.0380 C   0  0  0  0  0  0  0  0  0  0  0  0
   58.4243   30.9285   45.2434 N   0  0  0  0  0  0  0  0  0  0  0  0
   59.3778   30.2390   46.1573 C   0  0  0  0  0  0  0  0  0  0  0  0
   58.7845   29.0205   46.8812 C   0  0  0  0  0  0  0  0  0  0  0  0
   57.8092   25.7026   45.0764 C   0  0  0  0  0  0  0  0  0  0  0  0
   57.2312   24.4569   45.6718 C   0  0  0  0  0  0  0  0  0  0  0  0
   57.9263   23.3255   45.8793 N   0  0  0  0  0  0  0  0  0  0  0  0
   57.0058   22.4871   46.4018 C   0  0  0  0  0  0  0  0  0  0  0  0
   57.2765   21.3038   46.7353 O   0  0  0  0  0  0  0  0  0  0  0  0
   55.7705   23.0179   46.5448 N   0  0  0  0  0  0  0  0  0  0  0  0
   55.9324   24.2660   46.0777 C   0  0  0  0  0  0  0  0  0  0  0  0
   54.9138   25.2112   46.0291 O   0  0  0  0  0  0  0  0  0  0  0  0
   58.1787   32.3243   45.6735 C   0  0  0  0  0  0  0  0  0  0  0  0
   59.2020   32.7669   46.6883 C   0  0  0  0  0  0  0  0  0  0  0  0
   58.9518   32.6249   48.0640 C   0  0  0  0  0  0  0  0  0  0  0  0
   59.8879   33.0751   49.0001 C   0  0  0  0  0  0  0  0  0  0  0  0
   61.0816   33.6664   48.5712 C   0  0  0  0  0  0  0  0  0  0  0  0
   62.2552   34.2306   49.7466 Cl  0  0  0  0  0  0  0  0  0  0  0  0
   61.3360   33.8124   47.2025 C   0  0  0  0  0  0  0  0  0  0  0  0
   60.3998   33.3679   46.2642 C   0  0  0  0  0  0  0  0  0  0  0  0
  1  2  2  0
  2  9  1  0
  9 10  1  0
 10 11  1  0
 11 12  1  0
 12 13  2  0
 12 14  1  0
 14 15  1  0
 15 16  1  0
  2  3  1  0
  3  4  1  0
  4  5  1  0
  5  6  1  0
  6 17  1  0
 17 18  1  0
 18 19  2  0
 19 20  1  0
 20 21  2  0
 21 22  1  0
 21 23  1  0
 23 24  2  0
  6  7  1  0
  7  8  1  0
 15 10  2  0
  8  3  1  0
 24 18  1  0
M  CHG 1  11  -1
M  CHG 1  14  -1
M  CHG 1  16  -1
M  END
> <UniqueID>
49

> <SMILES>
O=C(Cc1[n-]c(=O)[n-]c1[O-])N1CCN(Cc2ccc(Cl)cc2)CC1

> <Energy>
77.38018364039756

> <Genealogy>
O=C(Cc1[n-]c(=O)[n-]c1[O-])N1CCN(Cc2ccc(Cl)cc2)CC1 (protonated)
O=C(Cc1[n-]c(=O)[n-]c1[O-])N1CCN(Cc2ccc(Cl)cc2)CC1 (3D coordinates assigned)
O=C(Cc1[n-]c(=O)[n-]c1[O-])N1CCN(Cc2ccc(Cl)cc2)CC1 (nonaromatic ring conformer: 77.38018364039756 kcal/mol)

> <smiles>
O=C(Cc1[nH]c(=O)[nH]c1O)N1CCN(Cc2ccc(Cl)cc2)CC1

> <score_type>
oracle

> <origin>
adg

> <m_score__min__energy>
-16.120000000000001

> <m_primary>
energy

> <minimizedAffinity>
-7.54321

> <minimizedRMSD>
1.48047

> <CNNscore>
0.3471266925

> <CNNaffinity>
6.1426620483

> <CNN_VS>
2.1322820187

> <CNNaffinity_variance>
0.2787184715

$$$$
54:0


 33 36  0  0  0  0  0  0  0  0999 V2000
   57.8854   29.2134   53.5322 C   0  0  0  0  0  0  0  0  0  0  0  0
   58.5572   28.1614   53.7214 O   0  0  0  0  0  0  0  0  0  0  0  0
   58.5535   30.4611   53.2434 N   0  0  0  0  0  0  0  0  0  0  0  0
   57.8277   31.5108   52.5029 C   0  0  0  0  0  0  0  0  0  0  0  0
   58.4576   32.8872   52.7318 C   0  0  0  0  0  0  0  0  0  0  0  0
   59.9037   32.8012   52.5280 N   0  0  0  0  0  0  0  0  0  0  0  0
   60.5072   33.2884   51.3074 C   0  0  0  0  0  0  0  0  0  0  0  0
   59.7711   33.6588   50.3491 O   0  0  0  0  0  0  0  0  0  0  0  0
   60.5937   31.8682   53.4221 C   0  0  0  0  0  0  0  0  0  0  0  0
   60.0286   30.4623   53.2108 C   0  0  0  0  0  0  0  0  0  0  0  0
   53.4464   27.5553   54.4529 C   0  0  0  0  0  0  0  0  0  0  0  0
   54.4104   28.3468   53.9571 C   0  0  0  0  0  0  0  0  0  0  0  0
   54.2672   29.6543   53.4598 C   0  0  0  0  0  0  0  0  0  0  0  0
   53.1650   30.3803   53.1874 C   0  0  0  0  0  0  0  0  0  0  0  0
   55.5515   30.1394   53.2652 C   0  0  0  0  0  0  0  0  0  0  0  0
   56.4165   29.1145   53.5894 C   0  0  0  0  0  0  0  0  0  0  0  0
   55.7298   28.0224   53.9957 N   0  0  0  0  0  0  0  0  0  0  0  0
   56.3110   26.7520   54.4475 C   0  0  0  0  0  0  0  0  0  0  0  0
   52.5710   30.5624   51.8533 C   0  0  0  0  0  0  0  0  0  0  0  0
   52.7183   29.6854   50.8442 N   0  0  0  0  0  0  0  0  0  0  0  0
   51.9072   30.1800   49.8820 C   0  0  0  0  0  0  0  0  0  0  0  0
   51.7827   29.6326   48.7550 O   0  0  0  0  0  0  0  0  0  0  0  0
   51.2290   31.2989   50.2264 N   0  0  0  0  0  0  0  0  0  0  0  0
   51.6496   31.5196   51.4833 C   0  0  0  0  0  0  0  0  0  0  0  0
   51.1783   32.5539   52.2858 O   0  0  0  0  0  0  0  0  0  0  0  0
   62.0040   33.3255   51.1301 C   0  0  0  0  0  0  0  0  0  0  0  0
   62.5135   32.0200   50.6507 N   0  0  0  0  0  0  0  0  0  0  0  0
   63.9332   32.0835   50.2457 C   0  0  0  0  0  0  0  0  0  0  0  0
   64.1436   32.9156   48.9612 C   0  0  0  0  0  0  0  0  0  0  0  0
   62.8957   33.0665   48.1838 N   0  0  0  0  0  0  0  0  0  0  0  0
   63.1953   33.5211   46.8169 C   0  0  0  0  0  0  0  0  0  0  0  0
   62.1401   31.8041   48.1585 C   0  0  0  0  0  0  0  0  0  0  0  0
   61.6679   31.4343   49.5825 C   0  0  0  0  0  0  0  0  0  0  0  0
 11 12  2  0
 12 13  1  0
 13 14  2  0
 14 19  1  0
 19 20  1  0
 20 21  1  0
 21 22  2  0
 21 23  1  0
 23 24  1  0
 24 25  1  0
 13 15  1  0
 15 16  2  0
 16  1  1  0
  1  2  2  0
  1  3  1  0
  3  4  1  0
  4  5  1  0
  5  6  1  0
  6  7  1  0
  7  8  2  0
  7 26  1  0
 26 27  1  0
 27 28  1  0
 28 29  1  0
 29 30  1  0
 30 31  1  0
 30 32  1  0
 32 33  1  0
  6  9  1  0
  9 10  1  0
 16 17  1  0
 17 18  1  0
 17 12  1  0
 24 19  2  0
 10  3  1  0
 33 27  1  0
M  CHG 1  20  -1
M  CHG 1  23  -1
M  CHG 1  25  -1
M  END
> <UniqueID>
53

> <SMILES>
C=c1c(=Cc2[n-]c(=O)[n-]c2[O-])cc(C(=O)N2CCN(C(=O)CN3CCN(C)CC3)CC2)n1C

> <Energy>
152.65347846959273

> <Genealogy>
C=c1c(=Cc2[n-]c(=O)[n-]c2[O-])cc(C(=O)N2CCN(C(=O)CN3CCN(C)CC3)CC2)n1C (protonated)
C=c1c(=Cc2[n-]c(=O)[n-]c2[O-])cc(C(=O)N2CCN(C(=O)CN3CCN(C)CC3)CC2)n1C (3D coordinates assigned)
C=c1c(=Cc2[n-]c(=O)[n-]c2[O-])cc(C(=O)N2CCN(C(=O)CN3CCN(C)CC3)CC2)n1C (nonaromatic ring conformer: 152.65347846959273 kcal/mol)

> <smiles>
C=c1c(=Cc2[nH]c(=O)[nH]c2O)cc(C(=O)N2CCN(C(=O)CN3CCN(C)CC3)CC2)n1C

> <score_type>
oracle

> <origin>
adg

> <m_score__min__energy>
-18.030000000000001

> <m_primary>
energy

> <minimizedAffinity>
-6.51675

> <minimizedRMSD>
0.93761

> <CNNscore>
0.0950342938

> <CNNaffinity>
4.5459594727

> <CNN_VS>
0.4320220351

> <CNNaffinity_variance>
1.2240080833

$$$$
55:0


 30 32  0  0  0  0  0  0  0  0999 V2000
   53.4736   30.3182   55.7275 C   0  0  0  0  0  0  0  0  0  0  0  0
   54.2234   29.9833   54.6646 C   0  0  0  0  0  0  0  0  0  0  0  0
   53.7557   29.7171   53.3714 C   0  0  0  0  0  0  0  0  0  0  0  0
   52.4685   29.7069   52.9602 C   0  0  0  0  0  0  0  0  0  0  0  0
   54.8850   29.4544   52.6042 C   0  0  0  0  0  0  0  0  0  0  0  0
   55.9771   29.5807   53.4383 C   0  0  0  0  0  0  0  0  0  0  0  0
   55.5772   29.8753   54.6989 N   0  0  0  0  0  0  0  0  0  0  0  0
   56.4389   30.0043   55.8779 C   0  0  0  0  0  0  0  0  0  0  0  0
   51.9788   30.1585   51.6375 C   0  0  0  0  0  0  0  0  0  0  0  0
   51.9330   29.4187   50.5150 N   0  0  0  0  0  0  0  0  0  0  0  0
   51.4613   30.2783   49.5869 C   0  0  0  0  0  0  0  0  0  0  0  0
   51.2708   29.9450   48.3890 O   0  0  0  0  0  0  0  0  0  0  0  0
   51.2112   31.5230   50.0453 N   0  0  0  0  0  0  0  0  0  0  0  0
   51.5478   31.4295   51.3423 C   0  0  0  0  0  0  0  0  0  0  0  0
   51.4610   32.4893   52.2379 O   0  0  0  0  0  0  0  0  0  0  0  0
   57.3723   29.4301   52.9766 C   0  0  0  0  0  0  0  0  0  0  0  0
   58.1317   28.6463   53.6121 O   0  0  0  0  0  0  0  0  0  0  0  0
   57.8171   30.0123   51.7244 N   0  0  0  0  0  0  0  0  0  0  0  0
   59.2272   29.6183   51.4520 C   0  0  0  0  0  0  0  0  0  0  0  0
   60.2216   30.7274   51.8218 C   0  0  0  0  0  0  0  0  0  0  0  0
   59.9543   31.9534   51.0375 N   0  0  0  0  0  0  0  0  0  0  0  0
   58.5261   32.1894   50.7187 C   0  0  0  0  0  0  0  0  0  0  0  0
   57.5946   31.4834   51.7151 C   0  0  0  0  0  0  0  0  0  0  0  0
   58.6211   30.3626   52.1717 H   0  0  0  0  0  0  0  0  0  0  0  0
   60.6821   33.1423   51.5323 C   0  0  0  0  0  0  0  0  0  0  0  0
   61.1394   33.0341   53.0002 C   0  0  0  0  0  0  0  0  0  0  0  0
   59.9130   33.7198   54.1042 S   0  0  0  0  0  0  0  0  0  0  0  0
   59.0594   32.4210   54.9747 C   0  0  0  0  0  0  0  0  0  0  0  0
   60.5976   34.6078   55.1040 O   0  0  0  0  0  0  0  0  0  0  0  0
   58.9220   34.5334   53.3222 O   0  0  0  0  0  0  0  0  0  0  0  0
  1  2  2  0
  2  3  1  0
  3  4  2  0
  4  9  1  0
  9 10  1  0
 10 11  1  0
 11 12  2  0
 11 13  1  0
 13 14  1  0
 14 15  1  0
  3  5  1  0
  5  6  2  0
  6 16  1  0
 16 17  2  0
 16 18  1  0
 18 19  1  0
 19 20  1  0
 20 21  1  0
 21 25  1  0
 25 26  1  0
 26 27  1  0
 27 28  1  0
 27 29  2  0
 27 30  2  0
 21 22  1  0
 22 23  1  0
  6  7  1  0
  7  8  1  0
  7  2  1  0
 14  9  2  0
 23 18  1  0
 18 24  1  0
M  CHG 1  10  -1
M  CHG 1  13  -1
M  CHG 1  15  -1
M  CHG 1  18   1
M  END
> <UniqueID>
54

> <SMILES>
C=c1c(=Cc2[n-]c(=O)[n-]c2[O-])cc(C(=O)[NH+]2CCN(CCS(C)(=O)=O)CC2)n1C

> <Energy>
129.29101037538038

> <Genealogy>
C=c1c(=Cc2[n-]c(=O)[n-]c2[O-])cc(C(=O)[NH+]2CCN(CCS(C)(=O)=O)CC2)n1C (protonated)
C=c1c(=Cc2[n-]c(=O)[n-]c2[O-])cc(C(=O)[NH+]2CCN(CCS(C)(=O)=O)CC2)n1C (3D coordinates assigned)
C=c1c(=Cc2[n-]c(=O)[n-]c2[O-])cc(C(=O)[NH+]2CCN(CCS(C)(=O)=O)CC2)n1C (nonaromatic ring conformer: 129.29101037538038 kcal/mol)

> <smiles>
C=c1c(=Cc2[nH]c(=O)[nH]c2O)cc(C(=O)N2CCN(CCS(C)(=O)=O)CC2)n1C

> <score_type>
oracle

> <origin>
adg

> <m_score__min__energy>
-15.94

> <m_primary>
energy

> <minimizedAffinity>
-4.56188

> <minimizedRMSD>
0.91767

> <CNNscore>
0.0480564944

> <CNNaffinity>
4.0810546875

> <CNN_VS>
0.1961211860

> <CNNaffinity_variance>
0.6417593956

$$$$
56:0


 27 29  0  0  0  0  0  0  0  0999 V2000
   59.6214   27.8425   46.9342 C   0  0  0  0  0  0  0  0  0  0  0  0
   59.5217   29.1791   47.0862 C   0  0  0  0  0  0  0  0  0  0  0  0
   59.6261   29.7930   48.3162 C   0  0  0  0  0  0  0  0  0  0  0  0
   59.3740   31.1315   48.1191 C   0  0  0  0  0  0  0  0  0  0  0  0
   59.1565   31.4002   46.8048 N   0  0  0  0  0  0  0  0  0  0  0  0
   59.2829   30.2022   46.1522 C   0  0  0  0  0  0  0  0  0  0  0  0
   59.3190   30.0622   44.8182 C   0  0  0  0  0  0  0  0  0  0  0  0
   58.4966   26.8943   46.9091 C   0  0  0  0  0  0  0  0  0  0  0  0
   57.3943   26.9614   46.0883 C   0  0  0  0  0  0  0  0  0  0  0  0
   57.0907   28.0069   45.2234 O   0  0  0  0  0  0  0  0  0  0  0  0
   56.6327   25.8595   46.2256 N   0  0  0  0  0  0  0  0  0  0  0  0
   57.3239   25.1304   47.1281 C   0  0  0  0  0  0  0  0  0  0  0  0
   56.9444   23.9967   47.5248 O   0  0  0  0  0  0  0  0  0  0  0  0
   58.4614   25.7147   47.5536 N   0  0  0  0  0  0  0  0  0  0  0  0
   59.1193   25.3578   48.1931 H   0  0  0  0  0  0  0  0  0  0  0  0
   58.9727   32.7626   46.2465 C   0  0  0  0  0  0  0  0  0  0  0  0
   57.7585   33.4765   46.8540 C   0  0  0  0  0  0  0  0  0  0  0  0
   60.2602   33.5935   46.3173 C   0  0  0  0  0  0  0  0  0  0  0  0
   59.3226   32.1103   49.2265 C   0  0  0  0  0  0  0  0  0  0  0  0
   58.3442   32.0878   50.0185 O   0  0  0  0  0  0  0  0  0  0  0  0
   60.4074   33.0125   49.4951 N   0  0  0  0  0  0  0  0  0  0  0  0
   61.6637   32.7010   49.6353 C   0  0  0  0  0  0  0  0  0  0  0  0
   62.6274   33.2746   48.8583 N   0  0  0  0  0  0  0  0  0  0  0  0
   63.9450   32.9728   49.0029 C   0  0  0  0  0  0  0  0  0  0  0  0
   64.3484   32.0571   49.9769 C   0  0  0  0  0  0  0  0  0  0  0  0
   63.3851   31.4630   50.7938 C   0  0  0  0  0  0  0  0  0  0  0  0
   62.0359   31.7862   50.6274 C   0  0  0  0  0  0  0  0  0  0  0  0
  1  8  1  0
  8  9  2  0
  9 10  1  0
  9 11  1  0
 11 12  1  0
 12 13  2  0
 12 14  1  0
  1  2  2  0
  2  3  1  0
  3  4  2  0
  4 19  1  0
 19 20  2  0
 19 21  1  0
 21 22  2  0
 22 23  1  0
 23 24  1  0
 24 25  2  0
 25 26  1  0
 26 27  2  0
  4  5  1  0
  5 16  1  0
 16 17  1  0
 16 18  1  0
  5  6  1  0
  6  7  2  0
 14  8  1  0
  6  2  1  0
 27 22  1  0
 14 15  1  0
M  CHG 1  10  -1
M  CHG 1  11  -1
M  CHG 1  23  -1
M  END
> <UniqueID>
55

> <SMILES>
C=c1c(=Cc2[nH]c(=O)[n-]c2[O-])cc(C(=O)/N=c2/cccc[n-]2)n1C(C)C

> <Energy>
125.53332560858833

> <Genealogy>
C=c1c(=Cc2[nH]c(=O)[n-]c2[O-])cc(C(=O)N=c2cccc[n-]2)n1C(C)C (protonated)
C=c1c(=Cc2[nH]c(=O)[n-]c2[O-])cc(C(=O)/N=c2/cccc[n-]2)n1C(C)C (cis-trans isomerization)
C=c1c(=Cc2[nH]c(=O)[n-]c2[O-])cc(C(=O)/N=c2/cccc[n-]2)n1C(C)C (3D coordinates assigned)
C=c1c(=Cc2[nH]c(=O)[n-]c2[O-])cc(C(=O)/N=c2/cccc[n-]2)n1C(C)C (optimized conformer: 125.53332560858833 kcal/mol)

> <smiles>
C=c1c(=Cc2[nH]c(=O)[nH]c2O)cc(C(=O)N=c2cccc[nH]2)n1C(C)C

> <score_type>
oracle

> <origin>
adg

> <m_score__min__energy>
-15.199999999999999

> <m_primary>
energy

> <minimizedAffinity>
-6.88972

> <minimizedRMSD>
1.93141

> <CNNscore>
0.3864407241

> <CNNaffinity>
6.6846032143

> <CNN_VS>
2.5832028389

> <CNNaffinity_variance>
0.1865998507

$$$$
63:0


 34 37  0  0  0  0  0  0  0  0999 V2000
   59.1770   28.2142   46.3897 N   0  0  0  0  0  0  0  0  0  0  0  0
   60.6092   28.5342   46.3548 C   0  0  0  0  0  0  0  0  0  0  0  0
   61.0078   29.3388   47.6079 C   0  0  0  0  0  0  0  0  0  0  0  0
   59.8195   29.7166   48.3941 N   0  0  0  0  0  0  0  0  0  0  0  0
   59.0899   28.5150   48.8423 C   0  0  0  0  0  0  0  0  0  0  0  0
   58.6654   27.6420   47.6411 C   0  0  0  0  0  0  0  0  0  0  0  0
   57.1834   32.3223   44.8609 C   0  0  0  0  0  0  0  0  0  0  0  0
   57.3900   31.0130   44.6738 C   0  0  0  0  0  0  0  0  0  0  0  0
   56.9838   30.3935   43.4869 C   0  0  0  0  0  0  0  0  0  0  0  0
   57.1956   29.0286   43.2951 C   0  0  0  0  0  0  0  0  0  0  0  0
   57.8038   28.2359   44.2886 C   0  0  0  0  0  0  0  0  0  0  0  0
   57.8976   26.9045   44.0539 C   0  0  0  0  0  0  0  0  0  0  0  0
   58.2844   28.8777   45.4686 C   0  0  0  0  0  0  0  0  0  0  0  0
   58.0378   30.2501   45.6554 C   0  0  0  0  0  0  0  0  0  0  0  0
   57.6075   25.8368   45.0248 C   0  0  0  0  0  0  0  0  0  0  0  0
   58.2973   24.6845   45.0905 N   0  0  0  0  0  0  0  0  0  0  0  0
   57.6273   23.9745   46.0264 C   0  0  0  0  0  0  0  0  0  0  0  0
   57.9847   22.8232   46.3867 O   0  0  0  0  0  0  0  0  0  0  0  0
   56.5391   24.5914   46.5352 N   0  0  0  0  0  0  0  0  0  0  0  0
   56.5321   25.7630   45.8792 C   0  0  0  0  0  0  0  0  0  0  0  0
   55.5439   26.7275   46.0338 O   0  0  0  0  0  0  0  0  0  0  0  0
   60.2795   30.6874   49.7699 S   0  0  0  0  0  0  0  0  0  0  0  0
   59.1526   31.6182   50.1198 O   0  0  0  0  0  0  0  0  0  0  0  0
   60.5075   29.8038   50.9650 O   0  0  0  0  0  0  0  0  0  0  0  0
   61.7179   31.6807   49.3562 C   0  0  0  0  0  0  0  0  0  0  0  0
   62.8777   31.5990   50.1833 C   0  0  0  0  0  0  0  0  0  0  0  0
   62.8612   30.8228   51.4870 C   0  0  0  0  0  0  0  0  0  0  0  0
   64.0842   32.2070   49.7597 C   0  0  0  0  0  0  0  0  0  0  0  0
   65.3642   32.0824   50.5523 C   0  0  0  0  0  0  0  0  0  0  0  0
   64.1083   32.9558   48.5827 C   0  0  0  0  0  0  0  0  0  0  0  0
   62.9631   33.1187   47.7991 C   0  0  0  0  0  0  0  0  0  0  0  0
   63.0783   33.9438   46.5397 C   0  0  0  0  0  0  0  0  0  0  0  0
   61.7400   32.5260   48.2054 C   0  0  0  0  0  0  0  0  0  0  0  0
   60.4878   32.7791   47.3918 C   0  0  0  0  0  0  0  0  0  0  0  0
  7  8  2  0
  8  9  1  0
  9 10  2  0
 10 11  1  0
 11 12  2  0
 12 15  1  0
 15 16  1  0
 16 17  1  0
 17 18  2  0
 17 19  1  0
 19 20  1  0
 20 21  1  0
 11 13  1  0
 13  1  1  0
  1  2  1  0
  2  3  1  0
  3  4  1  0
  4 22  1  0
 22 23  2  0
 22 24  2  0
 22 25  1  0
 25 26  2  0
 26 27  1  0
 26 28  1  0
 28 29  1  0
 28 30  2  0
 30 31  1  0
 31 32  1  0
 31 33  2  0
 33 34  1  0
  4  5  1  0
  5  6  1  0
 13 14  2  0
 14  8  1  0
 20 15  2  0
  6  1  1  0
 33 25  1  0
M  CHG 1  16  -1
M  CHG 1  19  -1
M  CHG 1  21  -1
M  END
> <UniqueID>
62

> <SMILES>
C=c1ccc(=Cc2[n-]c(=O)[n-]c2[O-])c(N2CCN(S(=O)(=O)c3c(C)c(C)cc(C)c3C)CC2)c1

> <Energy>
127.68492802998647

> <Genealogy>
C=c1ccc(=Cc2[n-]c(=O)[n-]c2[O-])c(N2CCN(S(=O)(=O)c3c(C)c(C)cc(C)c3C)CC2)c1 (protonated)
C=c1ccc(=Cc2[n-]c(=O)[n-]c2[O-])c(N2CCN(S(=O)(=O)c3c(C)c(C)cc(C)c3C)CC2)c1 (3D coordinates assigned)
C=c1ccc(=Cc2[n-]c(=O)[n-]c2[O-])c(N2CCN(S(=O)(=O)c3c(C)c(C)cc(C)c3C)CC2)c1 (nonaromatic ring conformer: 127.68492802998647 kcal/mol)

> <smiles>
C=c1ccc(=Cc2[nH]c(=O)[nH]c2O)c(N2CCN(S(=O)(=O)c3c(C)c(C)cc(C)c3C)CC2)c1

> <score_type>
oracle

> <origin>
adg

> <m_score__min__energy>
-18.300000000000001

> <m_primary>
energy

> <minimizedAffinity>
-6.72913

> <minimizedRMSD>
0.66029

> <CNNscore>
0.1676443070

> <CNNaffinity>
6.8276524544

> <CNN_VS>
1.1446170807

> <CNNaffinity_variance>
0.0461831726

$$$$
81:0


 33 35  0  0  0  0  0  0  0  0999 V2000
   59.1894   32.1168   51.6159 C   0  0  0  0  0  0  0  0  0  0  0  0
   59.8383   30.9279   51.9782 C   0  0  0  0  0  0  0  0  0  0  0  0
   59.1016   29.8331   52.4310 C   0  0  0  0  0  0  0  0  0  0  0  0
   57.7134   29.9210   52.5505 C   0  0  0  0  0  0  0  0  0  0  0  0
   57.0464   31.1153   52.2423 C   0  0  0  0  0  0  0  0  0  0  0  0
   57.7924   32.2120   51.7677 C   0  0  0  0  0  0  0  0  0  0  0  0
   55.6110   31.1651   52.3546 N   0  0  0  0  0  0  0  0  0  0  0  0
   54.7757   30.0468   52.7033 C   0  0  0  0  0  0  0  0  0  0  0  0
   55.2266   28.8702   52.6651 O   0  0  0  0  0  0  0  0  0  0  0  0
   55.1693   32.0275   52.1800 H   0  0  0  0  0  0  0  0  0  0  0  0
   53.3364   30.2687   53.0612 C   0  0  0  0  0  0  0  0  0  0  0  0
   52.5511   30.6474   51.8436 C   0  0  0  0  0  0  0  0  0  0  0  0
   52.5578   29.8052   50.3831 S   0  0  0  0  0  0  0  0  0  0  0  0
   51.4090   30.8239   49.6963 C   0  0  0  0  0  0  0  0  0  0  0  0
   50.9657   30.7064   48.5248 O   0  0  0  0  0  0  0  0  0  0  0  0
   50.9999   31.7928   50.5429 N   0  0  0  0  0  0  0  0  0  0  0  0
   51.6319   31.6903   51.7416 C   0  0  0  0  0  0  0  0  0  0  0  0
   51.3665   32.5703   52.7855 O   0  0  0  0  0  0  0  0  0  0  0  0
   61.0550   33.1842   50.3173 C   0  0  0  0  0  0  0  0  0  0  0  0
   60.0032   33.2624   51.1466 C   0  0  0  0  0  0  0  0  0  0  0  0
   57.7897   32.4233   44.6598 C   0  0  0  0  0  0  0  0  0  0  0  0
   58.2782   32.7205   43.5353 O   0  0  0  0  0  0  0  0  0  0  0  0
   58.3349   33.0113   45.8571 N   0  0  0  0  0  0  0  0  0  0  0  0
   57.7867   32.6585   47.1759 C   0  0  0  0  0  0  0  0  0  0  0  0
   58.9155   32.5350   48.2062 C   0  0  0  0  0  0  0  0  0  0  0  0
   59.8654   33.6549   48.1139 N   0  0  0  0  0  0  0  0  0  0  0  0
   61.0626   33.6420   48.9139 C   0  0  0  0  0  0  0  0  0  0  0  0
   62.1624   33.9753   48.3950 O   0  0  0  0  0  0  0  0  0  0  0  0
   59.6709   34.6958   47.0976 C   0  0  0  0  0  0  0  0  0  0  0  0
   59.3711   34.0501   45.7420 C   0  0  0  0  0  0  0  0  0  0  0  0
   56.7130   31.5307   44.7445 O   0  0  0  0  0  0  0  0  0  0  0  0
   57.4946   29.2651   45.1252 C   0  0  0  0  0  0  0  0  0  0  0  0
   56.7388   30.2123   44.2014 C   0  0  0  0  0  0  0  0  0  0  0  0
 32 33  1  0
 33 31  1  0
 31 21  1  0
 21 22  2  0
 21 23  1  0
 23 24  1  0
 24 25  1  0
 25 26  1  0
 26 27  1  0
 27 28  2  0
 27 19  1  0
 19 20  2  0
 20  1  1  0
  1  2  2  0
  2  3  1  0
  3  4  2  0
  4  5  1  0
  5  7  1  0
  7  8  1  0
  8  9  2  0
  8 11  1  0
 11 12  1  0
 12 13  1  0
 13 14  1  0
 14 15  2  0
 14 16  1  0
 16 17  1  0
 17 18  1  0
  5  6  2  0
 26 29  1  0
 29 30  1  0
 30 23  1  0
  6  1  1  0
 17 12  2  0
  7 10  1  0
M  CHG 1  16  -1
M  CHG 1  18  -1
M  END
> <UniqueID>
79

> <SMILES>
CCOC(=O)N1CCN(C(=O)C=Cc2cccc(NC(=O)Cc3sc(=O)[n-]c3[O-])c2)CC1

> <Energy>
91.70002055035226

> <Genealogy>
CCOC(=O)N1CCN(C(=O)C=Cc2cccc(NC(=O)Cc3sc(=O)[n-]c3[O-])c2)CC1 (protonated)
CCOC(=O)N1CCN(C(=O)C=Cc2cccc(NC(=O)Cc3sc(=O)[n-]c3[O-])c2)CC1 (3D coordinates assigned)
CCOC(=O)N1CCN(C(=O)C=Cc2cccc(NC(=O)Cc3sc(=O)[n-]c3[O-])c2)CC1 (nonaromatic ring conformer: 91.70002055035226 kcal/mol)

> <smiles>
CCOC(=O)N1CCN(C(=O)C=Cc2cccc(NC(=O)Cc3sc(=O)[nH]c3O)c2)CC1

> <score_type>
oracle

> <origin>
adg

> <m_score__min__energy>
-17.41

> <m_primary>
energy

> <minimizedAffinity>
-6.16837

> <minimizedRMSD>
0.63908

> <CNNscore>
0.3249543607

> <CNNaffinity>
6.3740425110

> <CNN_VS>
2.0712728500

> <CNNaffinity_variance>
0.5237274170

$$$$
84:0


 32 35  0  0  0  0  0  0  0  0999 V2000
   57.7241   31.4597   52.1507 C   0  0  0  0  0  0  0  0  0  0  0  0
   54.9430   27.8834   53.9634 C   0  0  0  0  0  0  0  0  0  0  0  0
   55.2960   29.0213   53.3405 C   0  0  0  0  0  0  0  0  0  0  0  0
   54.4382   29.8862   52.6520 C   0  0  0  0  0  0  0  0  0  0  0  0
   53.0981   29.8028   52.5492 C   0  0  0  0  0  0  0  0  0  0  0  0
   55.2384   30.8993   52.1425 C   0  0  0  0  0  0  0  0  0  0  0  0
   56.5335   30.6199   52.5320 C   0  0  0  0  0  0  0  0  0  0  0  0
   56.5709   29.4866   53.2746 N   0  0  0  0  0  0  0  0  0  0  0  0
   57.7628   28.8512   53.8506 C   0  0  0  0  0  0  0  0  0  0  0  0
   52.3382   30.2638   51.3741 C   0  0  0  0  0  0  0  0  0  0  0  0
   52.2688   29.5713   50.2225 N   0  0  0  0  0  0  0  0  0  0  0  0
   51.5093   30.3588   49.4283 C   0  0  0  0  0  0  0  0  0  0  0  0
   51.1987   30.0369   48.2520 O   0  0  0  0  0  0  0  0  0  0  0  0
   51.1111   31.5196   49.9954 N   0  0  0  0  0  0  0  0  0  0  0  0
   51.6529   31.4503   51.2222 C   0  0  0  0  0  0  0  0  0  0  0  0
   51.5529   32.4664   52.1658 O   0  0  0  0  0  0  0  0  0  0  0  0
   58.6307   30.7218   51.1966 C   0  0  0  0  0  0  0  0  0  0  0  0
   58.1492   29.8578   50.4743 O   0  0  0  0  0  0  0  0  0  0  0  0
   60.0404   31.0666   51.0952 N   0  0  0  0  0  0  0  0  0  0  0  0
   60.7305   30.3129   50.0307 C   0  0  0  0  0  0  0  0  0  0  0  0
   60.4581   30.8573   48.6556 C   0  0  0  0  0  0  0  0  0  0  0  0
   60.6895   30.1102   47.6665 O   0  0  0  0  0  0  0  0  0  0  0  0
   60.0118   32.2208   48.4639 N   0  0  0  0  0  0  0  0  0  0  0  0
   59.6832   33.0667   49.6207 C   0  0  0  0  0  0  0  0  0  0  0  0
   60.2452   32.5201   50.9433 C   0  0  0  0  0  0  0  0  0  0  0  0
   59.7002   31.4989   50.2788 H   0  0  0  0  0  0  0  0  0  0  0  0
   59.7221   32.7722   47.1216 C   0  0  0  0  0  0  0  0  0  0  0  0
   59.7723   34.3109   47.1022 C   0  0  0  0  0  0  0  0  0  0  0  0
   59.4581   34.8461   45.6828 C   0  0  0  0  0  0  0  0  0  0  0  0
   58.8523   33.8832   44.8298 O   0  0  0  0  0  0  0  0  0  0  0  0
   57.8104   33.2060   45.5061 C   0  0  0  0  0  0  0  0  0  0  0  0
   58.3870   32.2419   46.5551 C   0  0  0  0  0  0  0  0  0  0  0  0
  2  3  2  0
  3  4  1  0
  4  5  2  0
  5 10  1  0
 10 11  1  0
 11 12  1  0
 12 13  2  0
 12 14  1  0
 14 15  1  0
 15 16  1  0
  4  6  1  0
  6  7  2  0
  7  1  1  0
  1 17  1  0
 17 18  2  0
 19 17  1  0
 19 20  1  0
 20 21  1  0
 21 22  2  0
 21 23  1  0
 23 27  1  0
 27 28  1  0
 28 29  1  0
 29 30  1  0
 30 31  1  0
 31 32  1  0
 23 24  1  0
 24 25  1  0
  7  8  1  0
  8  9  1  0
  8  3  1  0
 15 10  2  0
 25 19  1  0
 32 27  1  0
 19 26  1  0
M  CHG 1  11  -1
M  CHG 1  14  -1
M  CHG 1  16  -1
M  CHG 1  19   1
M  END
> <UniqueID>
82

> <SMILES>
C=c1/c(=C/c2[n-]c(=O)[n-]c2[O-])cc(CC(=O)[N@@H+]2CCN(C3CCOCC3)C(=O)C2)n1C

> <Energy>
134.79009796726845

> <Genealogy>
C=c1c(=Cc2[n-]c(=O)[n-]c2[O-])cc(CC(=O)[NH+]2CCN(C3CCOCC3)C(=O)C2)n1C (protonated)
C=c1c(=Cc2[n-]c(=O)[n-]c2[O-])cc(CC(=O)[N@@H+]2CCN(C3CCOCC3)C(=O)C2)n1C (chirality)
C=c1/c(=C/c2[n-]c(=O)[n-]c2[O-])cc(CC(=O)[N@@H+]2CCN(C3CCOCC3)C(=O)C2)n1C (cis-trans isomerization)
C=c1/c(=C/c2[n-]c(=O)[n-]c2[O-])cc(CC(=O)[N@@H+]2CCN(C3CCOCC3)C(=O)C2)n1C (3D coordinates assigned)
C=c1/c(=C/c2[n-]c(=O)[n-]c2[O-])cc(CC(=O)[N@@H+]2CCN(C3CCOCC3)C(=O)C2)n1C (nonaromatic ring conformer: 134.79009796726845 kcal/mol)

> <smiles>
C=c1c(=Cc2[nH]c(=O)[nH]c2O)cc(CC(=O)N2CCN(C3CCOCC3)C(=O)C2)n1C

> <score_type>
oracle

> <origin>
adg

> <m_score__min__energy>
-17.34

> <m_primary>
energy

> <minimizedAffinity>
-6.88330

> <minimizedRMSD>
0.74329

> <CNNscore>
0.1673441231

> <CNNaffinity>
5.2858414650

> <CNN_VS>
0.8845545053

> <CNNaffinity_variance>
0.9949960709

$$$$
87:0


 28 31  0  0  0  0  0  0  0  0999 V2000
   57.7263   27.4877   45.4529 C   0  0  0  0  0  0  0  0  0  0  0  0
   58.9987   27.0373   45.4571 N   0  0  0  0  0  0  0  0  0  0  0  0
   58.9064   25.8392   46.0787 C   0  0  0  0  0  0  0  0  0  0  0  0
   59.8959   25.0773   46.2405 O   0  0  0  0  0  0  0  0  0  0  0  0
   57.6541   25.5284   46.4825 N   0  0  0  0  0  0  0  0  0  0  0  0
   56.9134   26.5776   46.0909 C   0  0  0  0  0  0  0  0  0  0  0  0
   55.5424   26.6928   46.2886 O   0  0  0  0  0  0  0  0  0  0  0  0
   57.6154   33.3671   45.0413 C   0  0  0  0  0  0  0  0  0  0  0  0
   57.8891   32.0803   45.2778 C   0  0  0  0  0  0  0  0  0  0  0  0
   57.1751   31.0876   44.6984 N   0  0  0  0  0  0  0  0  0  0  0  0
   57.7376   29.9491   45.1469 C   0  0  0  0  0  0  0  0  0  0  0  0
   57.2996   28.7304   44.7905 C   0  0  0  0  0  0  0  0  0  0  0  0
   58.7693   30.2793   46.0089 C   0  0  0  0  0  0  0  0  0  0  0  0
   59.4855   29.4724   46.6599 O   0  0  0  0  0  0  0  0  0  0  0  0
   58.8776   31.6210   46.0945 N   0  0  0  0  0  0  0  0  0  0  0  0
   59.8724   32.3762   46.8868 C   0  0  0  0  0  0  0  0  0  0  0  0
   60.2268   33.7207   46.2299 C   0  0  0  0  0  0  0  0  0  0  0  0
   59.7876   34.8069   47.2009 C   0  0  0  0  0  0  0  0  0  0  0  0
   59.7240   34.1413   48.5630 C   0  0  0  0  0  0  0  0  0  0  0  0
   59.3444   32.6957   48.2909 C   0  0  0  0  0  0  0  0  0  0  0  0
   57.1626   24.2494   46.9915 C   0  0  0  0  0  0  0  0  0  0  0  0
   56.9360   23.3041   45.8427 C   0  0  0  0  0  0  0  0  0  0  0  0
   56.5854   23.7966   44.5745 C   0  0  0  0  0  0  0  0  0  0  0  0
   56.4672   22.9247   43.4879 C   0  0  0  0  0  0  0  0  0  0  0  0
   56.7038   21.5581   43.6570 C   0  0  0  0  0  0  0  0  0  0  0  0
   56.5972   20.7160   42.5995 F   0  0  0  0  0  0  0  0  0  0  0  0
   57.0581   21.0602   44.9140 C   0  0  0  0  0  0  0  0  0  0  0  0
   57.1792   21.9297   46.0031 C   0  0  0  0  0  0  0  0  0  0  0  0
  8  9  2  0
  9 10  1  0
 10 11  1  0
 11 12  2  0
 12  1  1  0
  1  2  1  0
  2  3  1  0
  3  4  2  0
  3  5  1  0
  5 21  1  0
 21 22  1  0
 22 23  2  0
 23 24  1  0
 24 25  2  0
 25 26  1  0
 25 27  1  0
 27 28  2  0
  5  6  1  0
  6  7  1  0
 11 13  1  0
 13 14  2  0
 13 15  1  0
 15 16  1  0
 16 17  1  0
 17 18  1  0
 18 19  1  0
 19 20  1  0
 15  9  1  0
 20 16  1  0
  6  1  2  0
 28 22  1  0
M  CHG 1   2  -1
M  CHG 1   7  -1
M  CHG 1  10  -1
M  END
> <UniqueID>
85

> <SMILES>
C=c1[n-]/c(=C/c2[n-]c(=O)n(Cc3ccc(F)cc3)c2[O-])c(=O)n1C1CCCC1

> <Energy>
121.48875677399204

> <Genealogy>
C=c1[n-]c(=Cc2[n-]c(=O)n(Cc3ccc(F)cc3)c2[O-])c(=O)n1C1CCCC1 (protonated)
C=c1[n-]/c(=C/c2[n-]c(=O)n(Cc3ccc(F)cc3)c2[O-])c(=O)n1C1CCCC1 (cis-trans isomerization)
C=c1[n-]/c(=C/c2[n-]c(=O)n(Cc3ccc(F)cc3)c2[O-])c(=O)n1C1CCCC1 (3D coordinates assigned)
C=c1[n-]/c(=C/c2[n-]c(=O)n(Cc3ccc(F)cc3)c2[O-])c(=O)n1C1CCCC1 (nonaromatic ring conformer: 121.48875677399204 kcal/mol)

> <smiles>
C=c1[nH]c(=Cc2[nH]c(=O)n(Cc3ccc(F)cc3)c2O)c(=O)n1C1CCCC1

> <score_type>
oracle

> <origin>
adg

> <m_score__min__energy>
-15.4

> <m_primary>
energy

> <minimizedAffinity>
-8.35774

> <minimizedRMSD>
0.67806

> <CNNscore>
0.3868009150

> <CNNaffinity>
6.5653166771

> <CNN_VS>
2.5394704342

> <CNNaffinity_variance>
0.1064691767

$$$$
0:0


 24 26  0  0  0  0  0  0  0  0999 V2000
   58.4874   30.3318   51.5533 N   0  0  0  0  0  0  0  0  0  0  0  0
   57.4522   30.0103   52.2749 C   0  0  0  0  0  0  0  0  0  0  0  0
   57.4535   28.9187   53.0707 N   0  0  0  0  0  0  0  0  0  0  0  0
   56.2762   28.7722   53.7363 C   0  0  0  0  0  0  0  0  0  0  0  0
   55.3354   29.7630   53.4795 C   0  0  0  0  0  0  0  0  0  0  0  0
   55.9834   30.8426   52.3637 S   0  0  0  0  0  0  0  0  0  0  0  0
   58.2792   32.6351   51.4078 O   0  0  0  0  0  0  0  0  0  0  0  0
   58.7713   31.5862   50.9156 C   0  0  0  0  0  0  0  0  0  0  0  0
   59.6520   31.6669   49.7853 N   0  0  0  0  0  0  0  0  0  0  0  0
   59.4296   32.4019   48.5743 C   0  0  0  0  0  0  0  0  0  0  0  0
   59.8518   33.7378   48.5130 C   0  0  0  0  0  0  0  0  0  0  0  0
   59.6739   34.4847   47.3448 C   0  0  0  0  0  0  0  0  0  0  0  0
   59.0868   33.8966   46.2214 C   0  0  0  0  0  0  0  0  0  0  0  0
   58.6860   32.5583   46.2631 C   0  0  0  0  0  0  0  0  0  0  0  0
   58.8603   31.8094   47.4310 C   0  0  0  0  0  0  0  0  0  0  0  0
   53.9391   29.8074   54.0139 C   0  0  0  0  0  0  0  0  0  0  0  0
   53.0035   30.3220   52.9614 C   0  0  0  0  0  0  0  0  0  0  0  0
   52.9851   29.7549   51.6815 C   0  0  0  0  0  0  0  0  0  0  0  0
   52.1224   30.2952   50.7261 C   0  0  0  0  0  0  0  0  0  0  0  0
   52.0755   29.8074   49.5664 O   0  0  0  0  0  0  0  0  0  0  0  0
   51.3326   31.3529   51.0476 N   0  0  0  0  0  0  0  0  0  0  0  0
   51.3694   31.8990   52.2911 C   0  0  0  0  0  0  0  0  0  0  0  0
   50.6341   32.8811   52.5691 O   0  0  0  0  0  0  0  0  0  0  0  0
   52.2032   31.3877   53.2344 N   0  0  0  0  0  0  0  0  0  0  0  0
  7  8  2  0
  8  1  1  0
  1  2  2  0
  2  3  1  0
  3  4  1  0
  4  5  2  0
  5 16  1  0
 16 17  1  0
 17 18  2  0
 18 19  1  0
 19 20  2  0
 19 21  1  0
 21 22  1  0
 22 23  2  0
 22 24  1  0
  5  6  1  0
  8  9  1  0
  9 10  1  0
 10 11  2  0
 11 12  1  0
 12 13  2  0
 13 14  1  0
 14 15  2  0
  6  2  1  0
 15 10  1  0
 24 17  1  0
M  CHG 1   3  -1
M  CHG 1   9  -1
M  CHG 1  21  -1
M  CHG 1  24  -1
M  END
> <UniqueID>
1

> <SMILES>
O=C(N=c1[n-]cc(Cc2cc(=O)[n-]c(=O)[n-]2)s1)[N-]c1ccccc1

> <Energy>
71.96953288041837

> <Genealogy>
O=C(N=c1[n-]cc(Cc2cc(=O)[n-]c(=O)[n-]2)s1)[N-]c1ccccc1 (protonated)
O=C(N=c1[n-]cc(Cc2cc(=O)[n-]c(=O)[n-]2)s1)[N-]c1ccccc1 (3D coordinates assigned)
O=C(N=c1[n-]cc(Cc2cc(=O)[n-]c(=O)[n-]2)s1)[N-]c1ccccc1 (optimized conformer: 71.96953288041837 kcal/mol)

> <smiles>
O=C(N=c1[nH]cc(Cc2cc(=O)[nH]c(=O)[nH]2)s1)Nc1ccccc1

> <score_type>
oracle

> <origin>
adg

> <m_score__min__energy>
-14.49

> <m_primary>
energy

> <minimizedAffinity>
-5.97434

> <minimizedRMSD>
0.90981

> <CNNscore>
0.3887180090

> <CNNaffinity>
5.5412211418

> <CNN_VS>
2.1539723873

> <CNNaffinity_variance>
0.1824792773

$$$$
8:0


 32 35  0  0  0  0  0  0  0  0999 V2000
   54.4316   27.8372   53.5286 C   0  0  0  0  0  0  0  0  0  0  0  0
   55.1648   28.8914   53.1352 C   0  0  0  0  0  0  0  0  0  0  0  0
   54.7186   30.0111   52.4119 C   0  0  0  0  0  0  0  0  0  0  0  0
   53.5546   30.2560   51.7783 C   0  0  0  0  0  0  0  0  0  0  0  0
   55.7618   30.9230   52.4321 C   0  0  0  0  0  0  0  0  0  0  0  0
   56.8059   30.3251   53.1076 C   0  0  0  0  0  0  0  0  0  0  0  0
   56.4584   29.0781   53.5070 N   0  0  0  0  0  0  0  0  0  0  0  0
   57.2877   28.1560   54.2931 C   0  0  0  0  0  0  0  0  0  0  0  0
   52.3812   30.9280   52.3587 C   0  0  0  0  0  0  0  0  0  0  0  0
   52.0935   30.9040   53.6724 N   0  0  0  0  0  0  0  0  0  0  0  0
   51.0219   31.7188   53.7721 C   0  0  0  0  0  0  0  0  0  0  0  0
   50.4408   31.9425   54.8662 O   0  0  0  0  0  0  0  0  0  0  0  0
   50.6269   32.2829   52.6125 N   0  0  0  0  0  0  0  0  0  0  0  0
   51.5067   31.7898   51.7260 C   0  0  0  0  0  0  0  0  0  0  0  0
   51.5179   32.1479   50.3806 O   0  0  0  0  0  0  0  0  0  0  0  0
   50.8757   32.7444   50.0492 H   0  0  0  0  0  0  0  0  0  0  0  0
   58.1496   30.9670   53.3200 C   0  0  0  0  0  0  0  0  0  0  0  0
   58.4508   31.9404   52.2109 C   0  0  0  0  0  0  0  0  0  0  0  0
   58.3575   33.1742   52.4580 O   0  0  0  0  0  0  0  0  0  0  0  0
   58.8690   31.5064   50.8973 N   0  0  0  0  0  0  0  0  0  0  0  0
   58.8835   32.4759   49.7878 C   0  0  0  0  0  0  0  0  0  0  0  0
   58.5298   31.7930   48.4592 C   0  0  0  0  0  0  0  0  0  0  0  0
   59.2358   30.5144   48.2970 N   0  0  0  0  0  0  0  0  0  0  0  0
   60.1453   30.0431   49.3473 C   0  0  0  0  0  0  0  0  0  0  0  0
   59.4615   30.1697   50.7098 C   0  0  0  0  0  0  0  0  0  0  0  0
   58.9713   29.6996   47.1404 C   0  0  0  0  0  0  0  0  0  0  0  0
   59.0388   28.2986   47.2271 C   0  0  0  0  0  0  0  0  0  0  0  0
   58.7968   27.5106   46.0973 C   0  0  0  0  0  0  0  0  0  0  0  0
   58.4993   28.1123   44.8691 C   0  0  0  0  0  0  0  0  0  0  0  0
   58.2028   27.1205   43.4507 Cl  0  0  0  0  0  0  0  0  0  0  0  0
   58.4347   29.5052   44.7731 C   0  0  0  0  0  0  0  0  0  0  0  0
   58.6710   30.2967   45.9039 C   0  0  0  0  0  0  0  0  0  0  0  0
  1  2  2  0
  2  3  1  0
  3  4  2  0
  4  9  1  0
  9 10  1  0
 10 11  1  0
 11 12  2  0
 11 13  1  0
 13 14  1  0
 14 15  1  0
  3  5  1  0
  5  6  2  0
  6 17  1  0
 17 18  1  0
 18 19  2  0
 18 20  1  0
 20 21  1  0
 21 22  1  0
 22 23  1  0
 23 26  1  0
 26 27  2  0
 27 28  1  0
 28 29  2  0
 29 30  1  0
 29 31  1  0
 31 32  2  0
 23 24  1  0
 24 25  1  0
  6  7  1  0
  7  8  1  0
  7  2  1  0
 14  9  2  0
 25 20  1  0
 32 26  1  0
 15 16  1  0
M  CHG 1  10  -1
M  CHG 1  13  -1
M  END
> <UniqueID>
9

> <SMILES>
C=c1c(=Cc2[n-]c(=O)[n-]c2O)cc(CC(=O)N2CCN(c3ccc(Cl)cc3)CC2)n1C

> <Energy>
129.58595660788177

> <Genealogy>
C=c1c(=Cc2[n-]c(=O)[n-]c2O)cc(CC(=O)N2CCN(c3ccc(Cl)cc3)CC2)n1C (protonated)
C=c1c(=Cc2[n-]c(=O)[n-]c2O)cc(CC(=O)N2CCN(c3ccc(Cl)cc3)CC2)n1C (3D coordinates assigned)
C=c1c(=Cc2[n-]c(=O)[n-]c2O)cc(CC(=O)N2CCN(c3ccc(Cl)cc3)CC2)n1C (nonaromatic ring conformer: 129.58595660788177 kcal/mol)

> <smiles>
C=c1c(=Cc2[nH]c(=O)[nH]c2O)cc(CC(=O)N2CCN(c3ccc(Cl)cc3)CC2)n1C

> <score_type>
oracle

> <origin>
adg

> <m_score__min__energy>
-14.19

> <m_primary>
energy

> <minimizedAffinity>
-8.24938

> <minimizedRMSD>
0.60502

> <CNNscore>
0.1395787001

> <CNNaffinity>
5.1908516884

> <CNN_VS>
0.7245323062

> <CNNaffinity_variance>
0.7701557279

$$$$
9:0


 32 35  0  0  0  0  0  0  0  0999 V2000
   55.0629   30.2923   52.1910 C   0  0  0  0  0  0  0  0  0  0  0  0
   54.8821   29.9874   53.4869 C   0  0  0  0  0  0  0  0  0  0  0  0
   53.6859   30.0742   54.2204 C   0  0  0  0  0  0  0  0  0  0  0  0
   52.4191   30.2997   53.8231 C   0  0  0  0  0  0  0  0  0  0  0  0
   54.0326   29.8849   55.5483 C   0  0  0  0  0  0  0  0  0  0  0  0
   55.3860   29.6241   55.5776 C   0  0  0  0  0  0  0  0  0  0  0  0
   56.1707   29.3198   56.8178 C   0  0  0  0  0  0  0  0  0  0  0  0
   55.9039   29.6937   54.3302 N   0  0  0  0  0  0  0  0  0  0  0  0
   57.2916   29.5204   53.9967 C   0  0  0  0  0  0  0  0  0  0  0  0
   57.7540   28.3587   53.8420 O   0  0  0  0  0  0  0  0  0  0  0  0
   58.1404   30.6626   53.7987 N   0  0  0  0  0  0  0  0  0  0  0  0
   57.6189   31.8330   53.0749 C   0  0  0  0  0  0  0  0  0  0  0  0
   58.6292   32.9814   53.0801 C   0  0  0  0  0  0  0  0  0  0  0  0
   59.9545   32.4702   52.7082 N   0  0  0  0  0  0  0  0  0  0  0  0
   60.6355   33.0020   51.5586 C   0  0  0  0  0  0  0  0  0  0  0  0
   59.9752   33.3049   50.5269 O   0  0  0  0  0  0  0  0  0  0  0  0
   60.4930   31.2747   53.3789 C   0  0  0  0  0  0  0  0  0  0  0  0
   59.4925   30.6823   54.3777 C   0  0  0  0  0  0  0  0  0  0  0  0
   51.9717   30.4838   52.4338 C   0  0  0  0  0  0  0  0  0  0  0  0
   52.1965   29.5869   51.4562 N   0  0  0  0  0  0  0  0  0  0  0  0
   51.7468   30.2179   50.3487 C   0  0  0  0  0  0  0  0  0  0  0  0
   51.7782   29.6860   49.2069 O   0  0  0  0  0  0  0  0  0  0  0  0
   51.2810   31.4709   50.5545 N   0  0  0  0  0  0  0  0  0  0  0  0
   51.4432   31.6285   51.8788 C   0  0  0  0  0  0  0  0  0  0  0  0
   51.1443   32.8017   52.5578 O   0  0  0  0  0  0  0  0  0  0  0  0
   62.1008   33.1989   51.5617 C   0  0  0  0  0  0  0  0  0  0  0  0
   62.7667   33.5456   52.7511 C   0  0  0  0  0  0  0  0  0  0  0  0
   64.1564   33.6987   52.7618 C   0  0  0  0  0  0  0  0  0  0  0  0
   64.8921   33.4940   51.5901 C   0  0  0  0  0  0  0  0  0  0  0  0
   64.2403   33.1373   50.4058 C   0  0  0  0  0  0  0  0  0  0  0  0
   64.9582   32.9246   49.2736 F   0  0  0  0  0  0  0  0  0  0  0  0
   62.8488   32.9916   50.3882 C   0  0  0  0  0  0  0  0  0  0  0  0
  1  2  2  0
  2  3  1  0
  3  4  2  0
  4 19  1  0
 19 20  1  0
 20 21  1  0
 21 22  2  0
 21 23  1  0
 23 24  1  0
 24 25  1  0
  3  5  1  0
  5  6  2  0
  6  7  1  0
  6  8  1  0
  8  9  1  0
  9 10  2  0
  9 11  1  0
 11 12  1  0
 12 13  1  0
 13 14  1  0
 14 15  1  0
 15 16  2  0
 15 26  1  0
 26 27  2  0
 27 28  1  0
 28 29  2  0
 29 30  1  0
 30 31  1  0
 30 32  2  0
 14 17  1  0
 17 18  1  0
  8  2  1  0
 18 11  1  0
 24 19  2  0
 32 26  1  0
M  CHG 1  20  -1
M  CHG 1  23  -1
M  CHG 1  25  -1
M  END
> <UniqueID>
10

> <SMILES>
C=c1c(=Cc2[n-]c(=O)[n-]c2[O-])cc(C)n1C(=O)N1CCN(C(=O)c2cccc(F)c2)CC1

> <Energy>
136.60470321905325

> <Genealogy>
C=c1c(=Cc2[n-]c(=O)[n-]c2[O-])cc(C)n1C(=O)N1CCN(C(=O)c2cccc(F)c2)CC1 (protonated)
C=c1c(=Cc2[n-]c(=O)[n-]c2[O-])cc(C)n1C(=O)N1CCN(C(=O)c2cccc(F)c2)CC1 (3D coordinates assigned)
C=c1c(=Cc2[n-]c(=O)[n-]c2[O-])cc(C)n1C(=O)N1CCN(C(=O)c2cccc(F)c2)CC1 (nonaromatic ring conformer: 136.60470321905325 kcal/mol)

> <smiles>
C=c1c(=Cc2[nH]c(=O)[nH]c2O)cc(C)n1C(=O)N1CCN(C(=O)c2cccc(F)c2)CC1

> <score_type>
oracle

> <origin>
adg

> <m_score__min__energy>
-16.989999999999998

> <m_primary>
energy

> <minimizedAffinity>
-6.61841

> <minimizedRMSD>
1.24269

> <CNNscore>
0.1314756274

> <CNNaffinity>
5.1213746071

> <CNN_VS>
0.6733359694

> <CNNaffinity_variance>
0.1717401743

$$$$
31:0


 30 33  0  0  0  0  0  0  0  0999 V2000
   60.4865   26.1621   46.3888 O   0  0  0  0  0  0  0  0  0  0  0  0
   59.8274   27.0140   47.0434 C   0  0  0  0  0  0  0  0  0  0  0  0
   58.8084   27.8361   46.3400 C   0  0  0  0  0  0  0  0  0  0  0  0
   57.6114   27.2615   45.8922 C   0  0  0  0  0  0  0  0  0  0  0  0
   57.3579   25.9078   46.0780 O   0  0  0  0  0  0  0  0  0  0  0  0
   56.6776   28.0327   45.2866 N   0  0  0  0  0  0  0  0  0  0  0  0
   56.8652   29.3628   45.0990 C   0  0  0  0  0  0  0  0  0  0  0  0
   55.9619   30.0354   44.5319 O   0  0  0  0  0  0  0  0  0  0  0  0
   58.0282   29.9592   45.5089 N   0  0  0  0  0  0  0  0  0  0  0  0
   59.0071   29.2106   46.1085 C   0  0  0  0  0  0  0  0  0  0  0  0
   60.0938   29.7546   46.4582 O   0  0  0  0  0  0  0  0  0  0  0  0
   58.2136   31.3782   45.3311 C   0  0  0  0  0  0  0  0  0  0  0  0
   58.1094   31.9480   44.0522 C   0  0  0  0  0  0  0  0  0  0  0  0
   58.2693   33.3278   43.8805 C   0  0  0  0  0  0  0  0  0  0  0  0
   58.5343   34.1432   44.9849 C   0  0  0  0  0  0  0  0  0  0  0  0
   58.6402   33.5818   46.2611 C   0  0  0  0  0  0  0  0  0  0  0  0
   58.4788   32.2046   46.4357 C   0  0  0  0  0  0  0  0  0  0  0  0
   60.1262   27.1936   48.4369 N   0  0  0  0  0  0  0  0  0  0  0  0
   60.0147   28.3085   49.0982 C   0  0  0  0  0  0  0  0  0  0  0  0
   58.8414   28.9330   49.3455 N   0  0  0  0  0  0  0  0  0  0  0  0
   59.0263   30.0869   50.0374 C   0  0  0  0  0  0  0  0  0  0  0  0
   60.3509   30.3693   50.3529 C   0  0  0  0  0  0  0  0  0  0  0  0
   61.3279   29.1447   49.7312 S   0  0  0  0  0  0  0  0  0  0  0  0
   60.8463   31.6307   50.9835 C   0  0  0  0  0  0  0  0  0  0  0  0
   61.8196   32.3124   50.0622 C   0  0  0  0  0  0  0  0  0  0  0  0
   61.3811   32.8628   48.8463 C   0  0  0  0  0  0  0  0  0  0  0  0
   62.2763   33.5447   48.0164 C   0  0  0  0  0  0  0  0  0  0  0  0
   63.6119   33.6919   48.4010 C   0  0  0  0  0  0  0  0  0  0  0  0
   64.0540   33.1607   49.6151 C   0  0  0  0  0  0  0  0  0  0  0  0
   63.1624   32.4756   50.4464 C   0  0  0  0  0  0  0  0  0  0  0  0
  1  2  2  0
  2 18  1  0
 18 19  2  0
 19 20  1  0
 20 21  1  0
 21 22  2  0
 22 24  1  0
 24 25  1  0
 25 26  2  0
 26 27  1  0
 27 28  2  0
 28 29  1  0
 29 30  2  0
 22 23  1  0
  2  3  1  0
  3  4  2  0
  4  5  1  0
  4  6  1  0
  6  7  1  0
  7  8  2  0
  7  9  1  0
  9 12  1  0
 12 13  2  0
 13 14  1  0
 14 15  2  0
 15 16  1  0
 16 17  2  0
  9 10  1  0
 10 11  2  0
 23 19  1  0
 10  3  1  0
 30 25  1  0
 17 12  1  0
M  CHG 1   5  -1
M  CHG 1   6  -1
M  CHG 1  20  -1
M  END
> <UniqueID>
30

> <SMILES>
O=C(N=c1[n-]cc(Cc2ccccc2)s1)c1c([O-])[n-]c(=O)n(-c2ccccc2)c1=O

> <Energy>
96.23721531741342

> <Genealogy>
O=C(N=c1[n-]cc(Cc2ccccc2)s1)c1c([O-])[n-]c(=O)n(-c2ccccc2)c1=O (protonated)
O=C(N=c1[n-]cc(Cc2ccccc2)s1)c1c([O-])[n-]c(=O)n(-c2ccccc2)c1=O (3D coordinates assigned)
O=C(N=c1[n-]cc(Cc2ccccc2)s1)c1c([O-])[n-]c(=O)n(-c2ccccc2)c1=O (optimized conformer: 96.23721531741342 kcal/mol)

> <smiles>
O=C(N=c1[nH]cc(Cc2ccccc2)s1)c1c(O)[nH]c(=O)n(-c2ccccc2)c1=O

> <score_type>
oracle

> <origin>
adg

> <m_score__min__energy>
-14.949999999999999

> <m_primary>
energy

> <minimizedAffinity>
-7.18009

> <minimizedRMSD>
1.05352

> <CNNscore>
0.5949554443

> <CNNaffinity>
6.8910775185

> <CNN_VS>
4.0998840332

> <CNNaffinity_variance>
0.0441569388

$$$$
41:0


 24 26  0  0  0  0  0  0  0  0999 V2000
   60.9465   29.1868   45.4404 C   0  0  0  0  0  0  0  0  0  0  0  0
   59.7087   28.7219   45.2678 C   0  0  0  0  0  0  0  0  0  0  0  0
   59.4589   27.4570   44.8551 N   0  0  0  0  0  0  0  0  0  0  0  0
   58.1130   27.3822   44.7583 C   0  0  0  0  0  0  0  0  0  0  0  0
   57.4905   26.2515   44.3828 C   0  0  0  0  0  0  0  0  0  0  0  0
   57.5795   28.6080   45.1304 C   0  0  0  0  0  0  0  0  0  0  0  0
   56.3590   28.9097   45.2206 O   0  0  0  0  0  0  0  0  0  0  0  0
   58.5783   29.4447   45.4583 N   0  0  0  0  0  0  0  0  0  0  0  0
   57.0977   25.1374   45.2698 C   0  0  0  0  0  0  0  0  0  0  0  0
   57.8443   24.0504   45.5363 N   0  0  0  0  0  0  0  0  0  0  0  0
   57.1193   23.3920   46.4657 C   0  0  0  0  0  0  0  0  0  0  0  0
   57.4901   22.2980   46.9649 O   0  0  0  0  0  0  0  0  0  0  0  0
   55.9698   24.0011   46.8250 N   0  0  0  0  0  0  0  0  0  0  0  0
   55.9796   25.1097   46.0667 C   0  0  0  0  0  0  0  0  0  0  0  0
   54.9838   26.0791   46.1046 O   0  0  0  0  0  0  0  0  0  0  0  0
   58.4492   30.8177   45.8628 C   0  0  0  0  0  0  0  0  0  0  0  0
   58.7674   31.1640   47.1846 C   0  0  0  0  0  0  0  0  0  0  0  0
   58.5749   32.4678   47.6425 C   0  0  0  0  0  0  0  0  0  0  0  0
   58.0587   33.4398   46.7850 C   0  0  0  0  0  0  0  0  0  0  0  0
   57.7495   33.1142   45.4632 C   0  0  0  0  0  0  0  0  0  0  0  0
   57.9585   31.8118   44.9771 C   0  0  0  0  0  0  0  0  0  0  0  0
   57.6755   31.5366   43.5495 C   0  0  0  0  0  0  0  0  0  0  0  0
   56.7184   30.4656   43.1220 C   0  0  0  0  0  0  0  0  0  0  0  0
   58.2744   32.2019   42.6604 O   0  0  0  0  0  0  0  0  0  0  0  0
  1  2  2  0
  2  3  1  0
  3  4  1  0
  4  5  2  0
  5  9  1  0
  9 10  1  0
 10 11  1  0
 11 12  2  0
 11 13  1  0
 13 14  1  0
 14 15  1  0
  4  6  1  0
  6  7  2  0
  6  8  1  0
  8 16  1  0
 16 17  2  0
 17 18  1  0
 18 19  2  0
 19 20  1  0
 20 21  2  0
 21 22  1  0
 22 23  1  0
 22 24  2  0
  8  2  1  0
 21 16  1  0
 14  9  2  0
M  CHG 1   3  -1
M  CHG 1  10  -1
M  CHG 1  13  -1
M  CHG 1  15  -1
M  END
> <UniqueID>
39

> <SMILES>
C=c1[n-]c(=Cc2[n-]c(=O)[n-]c2[O-])c(=O)n1-c1ccccc1C(C)=O

> <Energy>
114.49677662369562

> <Genealogy>
C=c1[n-]c(=Cc2[n-]c(=O)[n-]c2[O-])c(=O)n1-c1ccccc1C(C)=O (protonated)
C=c1[n-]c(=Cc2[n-]c(=O)[n-]c2[O-])c(=O)n1-c1ccccc1C(C)=O (3D coordinates assigned)
C=c1[n-]c(=Cc2[n-]c(=O)[n-]c2[O-])c(=O)n1-c1ccccc1C(C)=O (optimized conformer: 114.49677662369562 kcal/mol)

> <smiles>
C=c1[nH]c(=Cc2[nH]c(=O)[nH]c2O)c(=O)n1-c1ccccc1C(C)=O

> <score_type>
oracle

> <origin>
adg

> <m_score__min__energy>
-16.710000000000001

> <m_primary>
energy

> <minimizedAffinity>
-6.95123

> <minimizedRMSD>
0.83881

> <CNNscore>
0.2720064521

> <CNNaffinity>
5.7674217224

> <CNN_VS>
1.5687758923

> <CNNaffinity_variance>
0.1054448709

$$$$
50:0


 39 43  0  0  0  0  0  0  0  0999 V2000
   57.7525   28.8502   53.5845 C   0  0  0  0  0  0  0  0  0  0  0  0
   58.3390   27.7521   53.7841 O   0  0  0  0  0  0  0  0  0  0  0  0
   58.5168   30.0735   53.5241 N   0  0  0  0  0  0  0  0  0  0  0  0
   59.9585   29.9928   53.2483 C   0  0  0  0  0  0  0  0  0  0  0  0
   60.5892   31.3853   53.2028 C   0  0  0  0  0  0  0  0  0  0  0  0
   59.7002   32.2750   52.4404 N   0  0  0  0  0  0  0  0  0  0  0  0
   58.4109   32.5331   53.1184 C   0  0  0  0  0  0  0  0  0  0  0  0
   57.9389   31.3474   53.9866 C   0  0  0  0  0  0  0  0  0  0  0  0
   53.0868   27.6446   54.0302 C   0  0  0  0  0  0  0  0  0  0  0  0
   54.1921   28.2513   53.5726 C   0  0  0  0  0  0  0  0  0  0  0  0
   54.2527   29.3857   52.7452 C   0  0  0  0  0  0  0  0  0  0  0  0
   53.2991   30.0132   52.0304 C   0  0  0  0  0  0  0  0  0  0  0  0
   55.5789   29.7850   52.7292 C   0  0  0  0  0  0  0  0  0  0  0  0
   56.2851   28.8501   53.4592 C   0  0  0  0  0  0  0  0  0  0  0  0
   55.4478   27.9185   53.9767 N   0  0  0  0  0  0  0  0  0  0  0  0
   55.8092   26.8310   54.8939 C   0  0  0  0  0  0  0  0  0  0  0  0
   52.2908   30.9425   52.5685 C   0  0  0  0  0  0  0  0  0  0  0  0
   51.8659   30.9498   53.8481 N   0  0  0  0  0  0  0  0  0  0  0  0
   50.8376   31.8238   53.8327 C   0  0  0  0  0  0  0  0  0  0  0  0
   50.1811   32.1161   54.8670 O   0  0  0  0  0  0  0  0  0  0  0  0
   50.5594   32.3500   52.6211 N   0  0  0  0  0  0  0  0  0  0  0  0
   51.4776   31.7737   51.8277 C   0  0  0  0  0  0  0  0  0  0  0  0
   51.5579   32.0031   50.4557 O   0  0  0  0  0  0  0  0  0  0  0  0
   50.9553   32.5898   50.0427 H   0  0  0  0  0  0  0  0  0  0  0  0
   60.3637   33.4934   51.9229 C   0  0  0  0  0  0  0  0  0  0  0  0
   61.6472   33.2156   51.1027 C   0  0  0  0  0  0  0  0  0  0  0  0
   61.3862   32.9802   49.6661 N   0  0  0  0  0  0  0  0  0  0  0  0
   60.1394   33.5483   49.1178 C   0  0  0  0  0  0  0  0  0  0  0  0
   59.0409   32.4909   48.9134 C   0  0  0  0  0  0  0  0  0  0  0  0
   59.5243   31.2911   48.1997 N   0  0  0  0  0  0  0  0  0  0  0  0
   60.6624   30.6891   48.9152 C   0  0  0  0  0  0  0  0  0  0  0  0
   61.8205   31.6805   49.1139 C   0  0  0  0  0  0  0  0  0  0  0  0
   59.8179   31.5261   46.7677 C   0  0  0  0  0  0  0  0  0  0  0  0
   58.7823   30.8674   45.8943 C   0  0  0  0  0  0  0  0  0  0  0  0
   58.1162   31.6015   44.8991 C   0  0  0  0  0  0  0  0  0  0  0  0
   57.1532   30.9833   44.0958 C   0  0  0  0  0  0  0  0  0  0  0  0
   56.8499   29.6304   44.2783 C   0  0  0  0  0  0  0  0  0  0  0  0
   57.5056   28.8950   45.2675 C   0  0  0  0  0  0  0  0  0  0  0  0
   58.4643   29.5107   46.0772 C   0  0  0  0  0  0  0  0  0  0  0  0
  9 10  2  0
 10 11  1  0
 11 12  2  0
 12 17  1  0
 17 18  1  0
 18 19  1  0
 19 20  2  0
 19 21  1  0
 21 22  1  0
 22 23  1  0
 11 13  1  0
 13 14  2  0
 14  1  1  0
  1  2  2  0
  1  3  1  0
  3  4  1  0
  4  5  1  0
  5  6  1  0
  6 25  1  0
 25 26  1  0
 26 27  1  0
 27 28  1  0
 28 29  1  0
 29 30  1  0
 30 33  1  0
 33 34  1  0
 34 35  2  0
 35 36  1  0
 36 37  2  0
 37 38  1  0
 38 39  2  0
 30 31  1  0
 31 32  1  0
  6  7  1  0
  7  8  1  0
 14 15  1  0
 15 16  1  0
 15 10  1  0
 22 17  2  0
  8  3  1  0
 32 27  1  0
 39 34  1  0
 23 24  1  0
M  CHG 1  18  -1
M  CHG 1  21  -1
M  END
> <UniqueID>
47

> <SMILES>
C=c1c(=Cc2[n-]c(=O)[n-]c2O)cc(C(=O)N2CCN(CCN3CCN(Cc4ccccc4)CC3)CC2)n1C

> <Energy>
173.08189597611025

> <Genealogy>
C=c1c(=Cc2[n-]c(=O)[n-]c2O)cc(C(=O)N2CCN(CCN3CCN(Cc4ccccc4)CC3)CC2)n1C (protonated)
C=c1c(=Cc2[n-]c(=O)[n-]c2O)cc(C(=O)N2CCN(CCN3CCN(Cc4ccccc4)CC3)CC2)n1C (3D coordinates assigned)
C=c1c(=Cc2[n-]c(=O)[n-]c2O)cc(C(=O)N2CCN(CCN3CCN(Cc4ccccc4)CC3)CC2)n1C (nonaromatic ring conformer: 173.08189597611025 kcal/mol)

> <smiles>
C=c1c(=Cc2[nH]c(=O)[nH]c2O)cc(C(=O)N2CCN(CCN3CCN(Cc4ccccc4)CC3)CC2)n1C

> <score_type>
oracle

> <origin>
adg

> <m_score__min__energy>
-15.91

> <m_primary>
energy

> <minimizedAffinity>
-8.37941

> <minimizedRMSD>
1.60395

> <CNNscore>
0.0741299689

> <CNNaffinity>
5.1994953156

> <CNN_VS>
0.3854384124

> <CNNaffinity_variance>
1.4179090261

$$$$
57:0


 29 31  0  0  0  0  0  0  0  0999 V2000
   58.1100   30.5000   44.8190 N   0  0  0  0  0  0  0  0  0  0  0  0
   58.6558   31.1617   45.9680 C   0  0  0  0  0  0  0  0  0  0  0  0
   58.2575   32.4735   46.2496 C   0  0  0  0  0  0  0  0  0  0  0  0
   58.7487   33.1356   47.3788 C   0  0  0  0  0  0  0  0  0  0  0  0
   59.6354   32.4834   48.2471 C   0  0  0  0  0  0  0  0  0  0  0  0
   60.0065   31.1587   47.9896 C   0  0  0  0  0  0  0  0  0  0  0  0
   59.5163   30.4968   46.8595 C   0  0  0  0  0  0  0  0  0  0  0  0
   60.2366   33.3028   49.6856 S   0  0  0  0  0  0  0  0  0  0  0  0
   59.9742   32.4559   50.9004 O   0  0  0  0  0  0  0  0  0  0  0  0
   59.5109   34.6096   49.8469 O   0  0  0  0  0  0  0  0  0  0  0  0
   61.9462   33.6045   49.5046 N   0  0  0  0  0  0  0  0  0  0  0  0
   62.3360   33.6262   48.0951 C   0  0  0  0  0  0  0  0  0  0  0  0
   63.8001   33.2210   48.0450 C   0  0  0  0  0  0  0  0  0  0  0  0
   64.0619   32.4978   49.3576 C   0  0  0  0  0  0  0  0  0  0  0  0
   62.7416   32.5396   50.1118 C   0  0  0  0  0  0  0  0  0  0  0  0
   56.0159   29.5052   44.7670 O   0  0  0  0  0  0  0  0  0  0  0  0
   57.2641   29.3439   44.8254 C   0  0  0  0  0  0  0  0  0  0  0  0
   57.8273   27.9450   44.8446 C   0  0  0  0  0  0  0  0  0  0  0  0
   57.8973   27.3824   46.2656 C   0  0  0  0  0  0  0  0  0  0  0  0
   57.5780   25.9590   46.2532 N   0  0  0  0  0  0  0  0  0  0  0  0
   56.3207   25.3754   45.8869 C   0  0  0  0  0  0  0  0  0  0  0  0
   55.2652   25.9799   46.2126 O   0  0  0  0  0  0  0  0  0  0  0  0
   56.2032   24.0767   45.1892 C   0  0  0  0  0  0  0  0  0  0  0  0
   55.8753   22.8407   45.7239 C   0  0  0  0  0  0  0  0  0  0  0  0
   55.9327   21.8806   44.7784 N   0  0  0  0  0  0  0  0  0  0  0  0
   56.3054   22.5142   43.6521 C   0  0  0  0  0  0  0  0  0  0  0  0
   56.4802   21.8607   42.4366 O   0  0  0  0  0  0  0  0  0  0  0  0
   56.4940   23.8635   43.8579 C   0  0  0  0  0  0  0  0  0  0  0  0
   56.3322   20.9375   42.3754 H   0  0  0  0  0  0  0  0  0  0  0  0
 16 17  2  0
 17 18  1  0
 18 19  1  0
 19 20  1  0
 20 21  1  0
 21 22  2  0
 21 23  1  0
 23 24  2  0
 24 25  1  0
 25 26  1  0
 26 27  1  0
 26 28  2  0
 17  1  1  0
  1  2  1  0
  2  3  2  0
  3  4  1  0
  4  5  2  0
  5  8  1  0
  8  9  2  0
  8 10  2  0
  8 11  1  0
 11 12  1  0
 12 13  1  0
 13 14  1  0
 14 15  1  0
  5  6  1  0
  6  7  2  0
 28 23  1  0
  7  2  1  0
 15 11  1  0
 27 29  1  0
M  CHG 1   1  -1
M  CHG 1  20  -1
M  CHG 1  25  -1
M  END
> <UniqueID>
54

> <SMILES>
O=C(CC[N-]C(=O)c1c[n-]c(O)c1)[N-]c1ccc(S(=O)(=O)N2CCCC2)cc1

> <Energy>
77.81052245728235

> <Genealogy>
O=C(CC[N-]C(=O)c1c[n-]c(O)c1)[N-]c1ccc(S(=O)(=O)N2CCCC2)cc1 (protonated)
O=C(CC[N-]C(=O)c1c[n-]c(O)c1)[N-]c1ccc(S(=O)(=O)N2CCCC2)cc1 (3D coordinates assigned)
O=C(CC[N-]C(=O)c1c[n-]c(O)c1)[N-]c1ccc(S(=O)(=O)N2CCCC2)cc1 (nonaromatic ring conformer: 77.81052245728235 kcal/mol)

> <smiles>
O=C(CCNC(=O)c1c[nH]c(O)c1)Nc1ccc(S(=O)(=O)N2CCCC2)cc1

> <score_type>
oracle

> <origin>
adg

> <m_score__min__energy>
-14.56

> <m_primary>
energy

> <minimizedAffinity>
-7.37041

> <minimizedRMSD>
0.94984

> <CNNscore>
0.3614932001

> <CNNaffinity>
6.9771065712

> <CNN_VS>
2.5221765041

> <CNNaffinity_variance>
0.6394360065

$$$$
61:0


 30 33  0  0  0  0  0  0  0  0999 V2000
   57.4153   23.8500   48.1051 C   0  0  0  0  0  0  0  0  0  0  0  0
   57.8418   24.8973   47.3952 C   0  0  0  0  0  0  0  0  0  0  0  0
   58.4518   25.9134   47.9644 O   0  0  0  0  0  0  0  0  0  0  0  0
   58.8147   26.7687   47.0386 C   0  0  0  0  0  0  0  0  0  0  0  0
   58.4477   26.3036   45.7917 C   0  0  0  0  0  0  0  0  0  0  0  0
   57.7887   25.1046   46.0086 C   0  0  0  0  0  0  0  0  0  0  0  0
   57.2532   24.3683   45.0183 C   0  0  0  0  0  0  0  0  0  0  0  0
   59.5295   28.0227   47.3308 C   0  0  0  0  0  0  0  0  0  0  0  0
   60.1547   28.1236   48.4244 O   0  0  0  0  0  0  0  0  0  0  0  0
   59.5067   29.1350   46.4148 N   0  0  0  0  0  0  0  0  0  0  0  0
   60.6778   30.0143   46.2983 C   0  0  0  0  0  0  0  0  0  0  0  0
   60.3158   31.4219   46.7912 C   0  0  0  0  0  0  0  0  0  0  0  0
   58.9899   31.8473   46.3036 N   0  0  0  0  0  0  0  0  0  0  0  0
   58.3566   33.0335   46.8445 C   0  0  0  0  0  0  0  0  0  0  0  0
   57.1330   33.2462   46.6196 O   0  0  0  0  0  0  0  0  0  0  0  0
   58.2971   31.0058   45.3117 C   0  0  0  0  0  0  0  0  0  0  0  0
   58.2277   29.5596   45.8200 C   0  0  0  0  0  0  0  0  0  0  0  0
   59.1235   33.9833   47.7464 C   0  0  0  0  0  0  0  0  0  0  0  0
   59.8373   33.3411   48.9400 C   0  0  0  0  0  0  0  0  0  0  0  0
   61.1827   33.7375   48.3447 C   0  0  0  0  0  0  0  0  0  0  0  0
   60.4751   34.3843   47.1572 C   0  0  0  0  0  0  0  0  0  0  0  0
   55.8147   24.0913   44.8406 C   0  0  0  0  0  0  0  0  0  0  0  0
   54.8432   24.8346   45.5334 C   0  0  0  0  0  0  0  0  0  0  0  0
   55.2159   25.8210   46.4413 O   0  0  0  0  0  0  0  0  0  0  0  0
   53.5236   24.5959   45.3122 N   0  0  0  0  0  0  0  0  0  0  0  0
   53.1212   23.6546   44.4180 C   0  0  0  0  0  0  0  0  0  0  0  0
   51.8936   23.4489   44.2306 O   0  0  0  0  0  0  0  0  0  0  0  0
   54.0428   22.9410   43.7176 N   0  0  0  0  0  0  0  0  0  0  0  0
   55.3736   23.1427   43.9034 C   0  0  0  0  0  0  0  0  0  0  0  0
   56.2013   22.4689   43.2316 O   0  0  0  0  0  0  0  0  0  0  0  0
  1  2  2  0
  2  3  1  0
  3  4  1  0
  4  8  1  0
  8  9  2  0
  8 10  1  0
 10 11  1  0
 11 12  1  0
 12 13  1  0
 13 14  1  0
 14 15  2  0
 14 18  1  0
 18 19  1  0
 19 20  1  0
 20 21  1  0
 13 16  1  0
 16 17  1  0
  4  5  2  0
  5  6  1  0
  6  7  2  0
  7 22  1  0
 22 23  2  0
 23 24  1  0
 23 25  1  0
 25 26  1  0
 26 27  2  0
 26 28  1  0
 28 29  1  0
 29 30  2  0
  6  2  1  0
 29 22  1  0
 17 10  1  0
 21 18  1  0
M  CHG 1  24  -1
M  CHG 1  25  -1
M  CHG 1  28  -1
M  END
> <UniqueID>
58

> <SMILES>
C=c1oc(C(=O)N2CCN(C(=O)C3CCC3)CC2)c/c1=C/c1c([O-])[n-]c(=O)[n-]c1=O

> <Energy>
158.8378332072237

> <Genealogy>
C=c1oc(C(=O)N2CCN(C(=O)C3CCC3)CC2)cc1=Cc1c([O-])[n-]c(=O)[n-]c1=O (protonated)
C=c1oc(C(=O)N2CCN(C(=O)C3CCC3)CC2)c/c1=C/c1c([O-])[n-]c(=O)[n-]c1=O (cis-trans isomerization)
C=c1oc(C(=O)N2CCN(C(=O)C3CCC3)CC2)c/c1=C/c1c([O-])[n-]c(=O)[n-]c1=O (3D coordinates assigned)
C=c1oc(C(=O)N2CCN(C(=O)C3CCC3)CC2)c/c1=C/c1c([O-])[n-]c(=O)[n-]c1=O (nonaromatic ring conformer: 158.8378332072237 kcal/mol)

> <smiles>
C=c1oc(C(=O)N2CCN(C(=O)C3CCC3)CC2)cc1=Cc1c(O)[nH]c(=O)[nH]c1=O

> <score_type>
oracle

> <origin>
adg

> <m_score__min__energy>
-15.65

> <m_primary>
energy

> <minimizedAffinity>
-5.89715

> <minimizedRMSD>
0.68459

> <CNNscore>
0.0645283312

> <CNNaffinity>
6.2682518959

> <CNN_VS>
0.4044798315

> <CNNaffinity_variance>
0.5286151767

$$$$
62:0


 28 29  0  0  0  0  0  0  0  0999 V2000
   59.0924   28.8311   45.2970 C   0  0  0  0  0  0  0  0  0  0  0  0
   60.2933   29.1997   45.1788 O   0  0  0  0  0  0  0  0  0  0  0  0
   58.0411   29.7976   45.3997 N   0  0  0  0  0  0  0  0  0  0  0  0
   57.6219   30.6513   44.2940 C   0  0  0  0  0  0  0  0  0  0  0  0
   58.1769   32.9208   43.8086 O   0  0  0  0  0  0  0  0  0  0  0  0
   57.7697   32.0923   44.6674 C   0  0  0  0  0  0  0  0  0  0  0  0
   57.4524   32.5180   45.9952 N   0  0  0  0  0  0  0  0  0  0  0  0
   58.2006   33.5393   46.7186 C   0  0  0  0  0  0  0  0  0  0  0  0
   59.5932   33.0564   47.0202 C   0  0  0  0  0  0  0  0  0  0  0  0
   59.7864   31.8080   47.6335 C   0  0  0  0  0  0  0  0  0  0  0  0
   61.0778   31.3523   47.9149 C   0  0  0  0  0  0  0  0  0  0  0  0
   62.1864   32.1342   47.5720 C   0  0  0  0  0  0  0  0  0  0  0  0
   63.4386   31.6829   47.8330 F   0  0  0  0  0  0  0  0  0  0  0  0
   62.0025   33.3722   46.9513 C   0  0  0  0  0  0  0  0  0  0  0  0
   60.7115   33.8345   46.6746 C   0  0  0  0  0  0  0  0  0  0  0  0
   58.7625   27.3727   45.3501 C   0  0  0  0  0  0  0  0  0  0  0  0
   57.3346   27.1541   45.1100 N   0  0  0  0  0  0  0  0  0  0  0  0
   56.7506   25.7952   46.0267 S   0  0  0  0  0  0  0  0  0  0  0  0
   57.3889   25.8063   47.3863 O   0  0  0  0  0  0  0  0  0  0  0  0
   55.2607   25.9025   46.1947 O   0  0  0  0  0  0  0  0  0  0  0  0
   57.1686   24.2900   45.2126 C   0  0  0  0  0  0  0  0  0  0  0  0
   56.2629   23.7166   44.3103 C   0  0  0  0  0  0  0  0  0  0  0  0
   56.5686   22.5087   43.6766 C   0  0  0  0  0  0  0  0  0  0  0  0
   57.7842   21.8685   43.9400 C   0  0  0  0  0  0  0  0  0  0  0  0
   58.6943   22.4339   44.8441 C   0  0  0  0  0  0  0  0  0  0  0  0
   59.9079   21.8050   45.1181 O   0  0  0  0  0  0  0  0  0  0  0  0
   58.3824   23.6411   45.4819 C   0  0  0  0  0  0  0  0  0  0  0  0
   60.1229   20.9971   44.6949 H   0  0  0  0  0  0  0  0  0  0  0  0
  5  6  2  0
  6  4  1  0
  4  3  1  0
  3  1  1  0
  1  2  2  0
  1 16  1  0
 16 17  1  0
 17 18  1  0
 18 19  2  0
 18 20  2  0
 18 21  1  0
 21 22  2  0
 22 23  1  0
 23 24  2  0
 24 25  1  0
 25 26  1  0
 25 27  2  0
  6  7  1  0
  7  8  1  0
  8  9  1  0
  9 10  2  0
 10 11  1  0
 11 12  2  0
 12 13  1  0
 12 14  1  0
 14 15  2  0
 27 21  1  0
 15  9  1  0
 26 28  1  0
M  CHG 1   3  -1
M  CHG 1   7  -1
M  CHG 1  17  -1
M  END
> <UniqueID>
59

> <SMILES>
O=C(C[N-]C(=O)C[N-]S(=O)(=O)c1cccc(O)c1)[N-]Cc1ccc(F)cc1

> <Energy>
30.998779286954743

> <Genealogy>
O=C(C[N-]C(=O)C[N-]S(=O)(=O)c1cccc(O)c1)[N-]Cc1ccc(F)cc1 (protonated)
O=C(C[N-]C(=O)C[N-]S(=O)(=O)c1cccc(O)c1)[N-]Cc1ccc(F)cc1 (3D coordinates assigned)
O=C(C[N-]C(=O)C[N-]S(=O)(=O)c1cccc(O)c1)[N-]Cc1ccc(F)cc1 (optimized conformer: 30.998779286954743 kcal/mol)

> <smiles>
O=C(CNC(=O)CNS(=O)(=O)c1cccc(O)c1)NCc1ccc(F)cc1

> <score_type>
oracle

> <origin>
adg

> <m_score__min__energy>
-14.06

> <m_primary>
energy

> <minimizedAffinity>
-7.94281

> <minimizedRMSD>
2.08286

> <CNNscore>
0.8253042102

> <CNNaffinity>
6.7672848701

> <CNN_VS>
5.5850687027

> <CNNaffinity_variance>
0.0589293949

$$$$
70:0


 26 28  0  0  0  0  0  0  0  0999 V2000
   54.1121   27.9068   54.4955 C   0  0  0  0  0  0  0  0  0  0  0  0
   54.9389   28.7120   53.8199 C   0  0  0  0  0  0  0  0  0  0  0  0
   54.6087   29.8875   53.1430 C   0  0  0  0  0  0  0  0  0  0  0  0
   53.3978   30.4710   53.0650 C   0  0  0  0  0  0  0  0  0  0  0  0
   55.7996   30.3730   52.6175 C   0  0  0  0  0  0  0  0  0  0  0  0
   56.7857   29.4696   52.9740 C   0  0  0  0  0  0  0  0  0  0  0  0
   56.2603   28.4693   53.7092 N   0  0  0  0  0  0  0  0  0  0  0  0
   56.7492   27.7057   54.0928 H   0  0  0  0  0  0  0  0  0  0  0  0
   52.5943   30.5408   51.8310 C   0  0  0  0  0  0  0  0  0  0  0  0
   52.7680   29.7066   50.7912 N   0  0  0  0  0  0  0  0  0  0  0  0
   51.9001   30.1733   49.8670 C   0  0  0  0  0  0  0  0  0  0  0  0
   51.7606   29.6359   48.7372 O   0  0  0  0  0  0  0  0  0  0  0  0
   51.2035   31.2656   50.2436 N   0  0  0  0  0  0  0  0  0  0  0  0
   51.6621   31.4951   51.4838 C   0  0  0  0  0  0  0  0  0  0  0  0
   51.2714   32.5788   52.2590 O   0  0  0  0  0  0  0  0  0  0  0  0
   58.2224   29.6185   52.6633 C   0  0  0  0  0  0  0  0  0  0  0  0
   59.0557   28.9063   53.2883 O   0  0  0  0  0  0  0  0  0  0  0  0
   58.7132   30.5683   51.6395 C   0  0  0  0  0  0  0  0  0  0  0  0
   59.0012   31.8936   51.9946 C   0  0  0  0  0  0  0  0  0  0  0  0
   59.4480   32.8061   51.0348 C   0  0  0  0  0  0  0  0  0  0  0  0
   59.6077   32.4183   49.6881 C   0  0  0  0  0  0  0  0  0  0  0  0
   59.2971   31.0891   49.3374 C   0  0  0  0  0  0  0  0  0  0  0  0
   58.8503   30.1787   50.2980 C   0  0  0  0  0  0  0  0  0  0  0  0
   60.0740   33.3647   48.6910 N   0  0  0  0  0  0  0  0  0  0  0  0
   59.2189   33.7343   47.5558 C   0  0  0  0  0  0  0  0  0  0  0  0
   61.4079   33.9681   48.7978 C   0  0  0  0  0  0  0  0  0  0  0  0
  1  2  2  0
  2  3  1  0
  3  4  2  0
  4  9  1  0
  9 10  1  0
 10 11  1  0
 11 12  2  0
 11 13  1  0
 13 14  1  0
 14 15  1  0
  3  5  1  0
  5  6  2  0
  6 16  1  0
 16 17  2  0
 16 18  1  0
 18 19  2  0
 19 20  1  0
 20 21  2  0
 21 24  1  0
 24 25  1  0
 24 26  1  0
 21 22  1  0
 22 23  2  0
  6  7  1  0
  7  2  1  0
 14  9  2  0
 23 18  1  0
  7  8  1  0
M  CHG 1  10  -1
M  CHG 1  13  -1
M  CHG 1  15  -1
M  END
> <UniqueID>
67

> <SMILES>
C=c1[nH]c(C(=O)c2ccc(N(C)C)cc2)c/c1=C\c1[n-]c(=O)[n-]c1[O-]

> <Energy>
111.08997171392872

> <Genealogy>
C=c1[nH]c(C(=O)c2ccc(N(C)C)cc2)cc1=Cc1[n-]c(=O)[n-]c1[O-] (protonated)
C=c1[nH]c(C(=O)c2ccc(N(C)C)cc2)c/c1=C\c1[n-]c(=O)[n-]c1[O-] (cis-trans isomerization)
C=c1[nH]c(C(=O)c2ccc(N(C)C)cc2)c/c1=C\c1[n-]c(=O)[n-]c1[O-] (3D coordinates assigned)
C=c1[nH]c(C(=O)c2ccc(N(C)C)cc2)c/c1=C\c1[n-]c(=O)[n-]c1[O-] (optimized conformer: 111.08997171392872 kcal/mol)

> <smiles>
C=c1[nH]c(C(=O)c2ccc(N(C)C)cc2)cc1=Cc1[nH]c(=O)[nH]c1O

> <score_type>
oracle

> <origin>
adg

> <m_score__min__energy>
-16.59

> <m_primary>
energy

> <minimizedAffinity>
-5.53836

> <minimizedRMSD>
0.86756

> <CNNscore>
0.1100791469

> <CNNaffinity>
4.6036715508

> <CNN_VS>
0.5067682266

> <CNNaffinity_variance>
0.2158465385

$$$$
74:0


 33 36  0  0  0  0  0  0  0  0999 V2000
   60.8925   34.1150   47.6000 N   0  0  0  0  0  0  0  0  0  0  0  0
   61.3106   32.7947   47.0553 C   0  0  0  0  0  0  0  0  0  0  0  0
   62.1105   31.9578   48.0580 C   0  0  0  0  0  0  0  0  0  0  0  0
   61.3132   31.7846   49.2737 N   0  0  0  0  0  0  0  0  0  0  0  0
   60.4557   32.8713   49.7449 C   0  0  0  0  0  0  0  0  0  0  0  0
   60.8623   34.1950   49.0842 C   0  0  0  0  0  0  0  0  0  0  0  0
   61.3141   30.5272   49.9636 C   0  0  0  0  0  0  0  0  0  0  0  0
   60.8950   29.4125   49.3428 C   0  0  0  0  0  0  0  0  0  0  0  0
   60.3504   29.4768   47.6666 Cl  0  0  0  0  0  0  0  0  0  0  0  0
   60.8911   28.1128   50.0428 C   0  0  0  0  0  0  0  0  0  0  0  0
   60.4882   27.0884   49.4291 O   0  0  0  0  0  0  0  0  0  0  0  0
   61.3560   28.0174   51.4539 C   0  0  0  0  0  0  0  0  0  0  0  0
   61.3680   26.7886   52.1510 C   0  0  0  0  0  0  0  0  0  0  0  0
   60.9424   25.6108   51.5442 O   0  0  0  0  0  0  0  0  0  0  0  0
   61.8105   26.7341   53.4737 C   0  0  0  0  0  0  0  0  0  0  0  0
   62.2457   27.8898   54.1178 C   0  0  0  0  0  0  0  0  0  0  0  0
   62.2423   29.1143   53.4494 C   0  0  0  0  0  0  0  0  0  0  0  0
   62.6847   30.2449   54.1282 O   0  0  0  0  0  0  0  0  0  0  0  0
   61.7977   29.1922   52.1099 C   0  0  0  0  0  0  0  0  0  0  0  0
   61.7797   30.4806   51.3657 C   0  0  0  0  0  0  0  0  0  0  0  0
   62.1562   31.5495   51.9192 O   0  0  0  0  0  0  0  0  0  0  0  0
   59.6138   34.5684   47.0086 C   0  0  0  0  0  0  0  0  0  0  0  0
   57.7075   31.3312   44.8773 C   0  0  0  0  0  0  0  0  0  0  0  0
   58.0239   32.5255   44.2148 C   0  0  0  0  0  0  0  0  0  0  0  0
   58.6326   33.5747   44.9095 C   0  0  0  0  0  0  0  0  0  0  0  0
   58.9322   33.4424   46.2736 C   0  0  0  0  0  0  0  0  0  0  0  0
   58.6261   32.2402   46.9323 C   0  0  0  0  0  0  0  0  0  0  0  0
   58.0171   31.1913   46.2366 C   0  0  0  0  0  0  0  0  0  0  0  0
   55.4565   29.5908   44.7485 N   0  0  0  0  0  0  0  0  0  0  0  0
   56.9582   30.0021   44.0005 S   0  0  0  0  0  0  0  0  0  0  0  0
   57.8679   28.8057   44.0143 O   0  0  0  0  0  0  0  0  0  0  0  0
   56.7157   30.4064   42.5728 O   0  0  0  0  0  0  0  0  0  0  0  0
   55.0229   28.8205   44.2396 H   0  0  0  0  0  0  0  0  0  0  0  0
 29 30  1  0
 30 31  2  0
 30 32  2  0
 30 23  1  0
 23 24  2  0
 24 25  1  0
 25 26  2  0
 26 22  1  0
 22  1  1  0
  1  2  1  0
  2  3  1  0
  3  4  1  0
  4  7  1  0
  7  8  2  0
  8  9  1  0
  8 10  1  0
 10 11  2  0
 10 12  1  0
 12 13  2  0
 13 14  1  0
 13 15  1  0
 15 16  2  0
 16 17  1  0
 17 18  1  0
 17 19  2  0
 19 20  1  0
 20 21  2  0
  4  5  1  0
  5  6  1  0
 26 27  1  0
 27 28  2  0
 28 23  1  0
  6  1  1  0
 20  7  1  0
 19 12  1  0
 29 33  1  0
M  CHG 1  14  -1
M  CHG 1  18  -1
M  CHG 1  29  -1
M  END
> <UniqueID>
70

> <SMILES>
[NH-]S(=O)(=O)c1ccc(CN2CCN(C3=C(Cl)C(=O)c4c([O-])ccc([O-])c4C3=O)CC2)cc1

> <Energy>
71.05742171678796

> <Genealogy>
[NH-]S(=O)(=O)c1ccc(CN2CCN(C3=C(Cl)C(=O)c4c([O-])ccc([O-])c4C3=O)CC2)cc1 (protonated)
[NH-]S(=O)(=O)c1ccc(CN2CCN(C3=C(Cl)C(=O)c4c([O-])ccc([O-])c4C3=O)CC2)cc1 (3D coordinates assigned)
[NH-]S(=O)(=O)c1ccc(CN2CCN(C3=C(Cl)C(=O)c4c([O-])ccc([O-])c4C3=O)CC2)cc1 (nonaromatic ring conformer: 71.05742171678796 kcal/mol)

> <smiles>
NS(=O)(=O)c1ccc(CN2CCN(C3=C(Cl)C(=O)c4c(O)ccc(O)c4C3=O)CC2)cc1

> <score_type>
oracle

> <origin>
adg

> <m_score__min__energy>
-14.68

> <m_primary>
energy

> <minimizedAffinity>
-8.19217

> <minimizedRMSD>
1.26338

> <CNNscore>
0.3603464663

> <CNNaffinity>
6.0076479912

> <CNN_VS>
2.1648347378

> <CNNaffinity_variance>
0.3005110621

$$$$
75:0


 31 34  0  0  0  0  0  0  0  0999 V2000
   59.0530   31.9240   46.7968 C   0  0  0  0  0  0  0  0  0  0  0  0
   57.8931   32.3469   46.2213 N   0  0  0  0  0  0  0  0  0  0  0  0
   57.7781   33.5693   45.6412 C   0  0  0  0  0  0  0  0  0  0  0  0
   58.8734   34.4312   45.6058 C   0  0  0  0  0  0  0  0  0  0  0  0
   60.0775   34.0302   46.1858 C   0  0  0  0  0  0  0  0  0  0  0  0
   60.1817   32.7767   46.8071 C   0  0  0  0  0  0  0  0  0  0  0  0
   61.4582   32.3858   47.4466 C   0  0  0  0  0  0  0  0  0  0  0  0
   61.9740   31.2695   47.1589 O   0  0  0  0  0  0  0  0  0  0  0  0
   62.1268   33.2576   48.3745 N   0  0  0  0  0  0  0  0  0  0  0  0
   63.5868   33.3767   48.3613 C   0  0  0  0  0  0  0  0  0  0  0  0
   64.1617   32.5616   49.5196 C   0  0  0  0  0  0  0  0  0  0  0  0
   63.4708   32.8691   50.7729 N   0  0  0  0  0  0  0  0  0  0  0  0
   62.1015   33.2975   50.8038 C   0  0  0  0  0  0  0  0  0  0  0  0
   61.4821   33.3373   51.9008 O   0  0  0  0  0  0  0  0  0  0  0  0
   61.4247   33.7764   49.5523 C   0  0  0  0  0  0  0  0  0  0  0  0
   63.9611   32.7792   51.6218 H   0  0  0  0  0  0  0  0  0  0  0  0
   59.4624   29.3961   45.3089 C   0  0  0  0  0  0  0  0  0  0  0  0
   59.2648   29.4354   46.6357 C   0  0  0  0  0  0  0  0  0  0  0  0
   59.2945   28.3549   47.5309 C   0  0  0  0  0  0  0  0  0  0  0  0
   59.3094   27.0278   47.3110 C   0  0  0  0  0  0  0  0  0  0  0  0
   59.2649   28.9047   48.8020 C   0  0  0  0  0  0  0  0  0  0  0  0
   59.1531   30.2703   48.6459 C   0  0  0  0  0  0  0  0  0  0  0  0
   59.0429   31.2477   49.7767 C   0  0  0  0  0  0  0  0  0  0  0  0
   59.1180   30.5910   47.3332 N   0  0  0  0  0  0  0  0  0  0  0  0
   58.1204   26.1832   47.1041 C   0  0  0  0  0  0  0  0  0  0  0  0
   57.9613   24.9477   47.6133 N   0  0  0  0  0  0  0  0  0  0  0  0
   56.8109   24.5235   47.0467 C   0  0  0  0  0  0  0  0  0  0  0  0
   56.3103   23.3948   47.2918 O   0  0  0  0  0  0  0  0  0  0  0  0
   56.2467   25.3985   46.1867 N   0  0  0  0  0  0  0  0  0  0  0  0
   57.0972   26.4361   46.2232 C   0  0  0  0  0  0  0  0  0  0  0  0
   56.9440   27.5901   45.4653 O   0  0  0  0  0  0  0  0  0  0  0  0
 17 18  2  0
 18 19  1  0
 19 20  2  0
 20 25  1  0
 25 26  1  0
 26 27  1  0
 27 28  2  0
 27 29  1  0
 29 30  1  0
 30 31  1  0
 19 21  1  0
 21 22  2  0
 22 23  1  0
 22 24  1  0
 24  1  1  0
  1  2  2  0
  2  3  1  0
  3  4  2  0
  4  5  1  0
  5  6  2  0
  6  7  1  0
  7  8  2  0
  7  9  1  0
  9 10  1  0
 10 11  1  0
 11 12  1  0
 12 13  1  0
 13 14  2  0
 13 15  1  0
 24 18  1  0
  6  1  1  0
 15  9  1  0
 30 25  2  0
 12 16  1  0
M  CHG 1  26  -1
M  CHG 1  29  -1
M  CHG 1  31  -1
M  END
> <UniqueID>
71

> <SMILES>
C=c1c(=Cc2[n-]c(=O)[n-]c2[O-])cc(C)n1-c1ncccc1C(=O)N1CCNC(=O)C1

> <Energy>
128.84124092264403

> <Genealogy>
C=c1c(=Cc2[n-]c(=O)[n-]c2[O-])cc(C)n1-c1ncccc1C(=O)N1CCNC(=O)C1 (protonated)
C=c1c(=Cc2[n-]c(=O)[n-]c2[O-])cc(C)n1-c1ncccc1C(=O)N1CCNC(=O)C1 (3D coordinates assigned)
C=c1c(=Cc2[n-]c(=O)[n-]c2[O-])cc(C)n1-c1ncccc1C(=O)N1CCNC(=O)C1 (nonaromatic ring conformer: 128.84124092264403 kcal/mol)

> <smiles>
C=c1c(=Cc2[nH]c(=O)[nH]c2O)cc(C)n1-c1ncccc1C(=O)N1CCNC(=O)C1

> <score_type>
oracle

> <origin>
adg

> <m_score__min__energy>
-16.32

> <m_primary>
energy

> <minimizedAffinity>
-9.43076

> <minimizedRMSD>
1.18835

> <CNNscore>
0.5712207556

> <CNNaffinity>
6.7760009766

> <CNN_VS>
3.8705923557

> <CNNaffinity_variance>
0.0177540742

$$$$
77:0


 30 33  0  0  0  0  0  0  0  0999 V2000
   57.7772   27.0025   43.1793 C   0  0  0  0  0  0  0  0  0  0  0  0
   58.3381   26.6278   44.3428 C   0  0  0  0  0  0  0  0  0  0  0  0
   58.1563   25.3949   44.9847 C   0  0  0  0  0  0  0  0  0  0  0  0
   57.4364   24.3445   44.5331 C   0  0  0  0  0  0  0  0  0  0  0  0
   58.8705   25.4740   46.1720 C   0  0  0  0  0  0  0  0  0  0  0  0
   59.4585   26.7219   46.2094 C   0  0  0  0  0  0  0  0  0  0  0  0
   59.1498   27.4260   45.0897 N   0  0  0  0  0  0  0  0  0  0  0  0
   56.2375   23.7711   45.1867 C   0  0  0  0  0  0  0  0  0  0  0  0
   55.9114   22.4673   45.2395 N   0  0  0  0  0  0  0  0  0  0  0  0
   54.7721   22.4545   45.9656 C   0  0  0  0  0  0  0  0  0  0  0  0
   54.1483   21.3945   46.2302 O   0  0  0  0  0  0  0  0  0  0  0  0
   54.3545   23.6670   46.3838 N   0  0  0  0  0  0  0  0  0  0  0  0
   55.2926   24.4878   45.8846 C   0  0  0  0  0  0  0  0  0  0  0  0
   55.2874   25.8666   46.0648 O   0  0  0  0  0  0  0  0  0  0  0  0
   59.5730   28.8010   44.7758 C   0  0  0  0  0  0  0  0  0  0  0  0
   58.4047   29.7705   44.9130 C   0  0  0  0  0  0  0  0  0  0  0  0
   60.2297   27.2345   47.4010 C   0  0  0  0  0  0  0  0  0  0  0  0
   59.4651   28.2916   48.1618 C   0  0  0  0  0  0  0  0  0  0  0  0
   58.3664   27.9887   48.7065 O   0  0  0  0  0  0  0  0  0  0  0  0
   59.9510   29.6484   48.2609 N   0  0  0  0  0  0  0  0  0  0  0  0
   61.0597   30.1346   47.4226 C   0  0  0  0  0  0  0  0  0  0  0  0
   60.8132   31.5864   46.9900 C   0  0  0  0  0  0  0  0  0  0  0  0
   60.3638   32.4319   48.1074 N   0  0  0  0  0  0  0  0  0  0  0  0
   60.1285   33.8438   47.9009 C   0  0  0  0  0  0  0  0  0  0  0  0
   59.6828   34.5569   48.8396 O   0  0  0  0  0  0  0  0  0  0  0  0
   60.1721   31.8299   49.4354 C   0  0  0  0  0  0  0  0  0  0  0  0
   59.3913   30.5184   49.3069 C   0  0  0  0  0  0  0  0  0  0  0  0
   60.3538   34.4800   46.5526 C   0  0  0  0  0  0  0  0  0  0  0  0
   59.3347   35.5488   46.1869 C   0  0  0  0  0  0  0  0  0  0  0  0
   59.2879   34.1963   45.5021 C   0  0  0  0  0  0  0  0  0  0  0  0
  1  2  2  0
  2  3  1  0
  3  4  2  0
  4  8  1  0
  8  9  1  0
  9 10  1  0
 10 11  2  0
 10 12  1  0
 12 13  1  0
 13 14  1  0
  3  5  1  0
  5  6  2  0
  6 17  1  0
 17 18  1  0
 18 19  2  0
 18 20  1  0
 20 21  1  0
 21 22  1  0
 22 23  1  0
 23 24  1  0
 24 25  2  0
 24 28  1  0
 28 29  1  0
 29 30  1  0
 23 26  1  0
 26 27  1  0
  6  7  1  0
  7 15  1  0
 15 16  1  0
  7  2  1  0
 13  8  2  0
 27 20  1  0
 30 28  1  0
M  CHG 1   9  -1
M  CHG 1  12  -1
M  CHG 1  14  -1
M  END
> <UniqueID>
73

> <SMILES>
C=c1/c(=C/c2[n-]c(=O)[n-]c2[O-])cc(CC(=O)N2CCN(C(=O)C3CC3)CC2)n1CC

> <Energy>
380.64986224513973

> <Genealogy>
C=c1c(=Cc2[n-]c(=O)[n-]c2[O-])cc(CC(=O)N2CCN(C(=O)C3CC3)CC2)n1CC (protonated)
C=c1/c(=C/c2[n-]c(=O)[n-]c2[O-])cc(CC(=O)N2CCN(C(=O)C3CC3)CC2)n1CC (cis-trans isomerization)
C=c1/c(=C/c2[n-]c(=O)[n-]c2[O-])cc(CC(=O)N2CCN(C(=O)C3CC3)CC2)n1CC (3D coordinates assigned)
C=c1/c(=C/c2[n-]c(=O)[n-]c2[O-])cc(CC(=O)N2CCN(C(=O)C3CC3)CC2)n1CC (nonaromatic ring conformer: 380.64986224513973 kcal/mol)

> <smiles>
C=c1c(=Cc2[nH]c(=O)[nH]c2O)cc(CC(=O)N2CCN(C(=O)C3CC3)CC2)n1CC

> <score_type>
oracle

> <origin>
adg

> <m_score__min__energy>
-18.289999999999999

> <m_primary>
energy

> <minimizedAffinity>
-7.07663

> <minimizedRMSD>
0.66638

> <CNNscore>
0.0985829607

> <CNNaffinity>
6.3109531403

> <CNN_VS>
0.6221524477

> <CNNaffinity_variance>
0.3067081571

$$$$
82:0


 31 34  0  0  0  0  0  0  0  0999 V2000
   57.0408   25.1756   46.7712 N   0  0  0  0  0  0  0  0  0  0  0  0
   57.3974   26.4033   46.5364 C   0  0  0  0  0  0  0  0  0  0  0  0
   56.5735   27.2685   45.8867 N   0  0  0  0  0  0  0  0  0  0  0  0
   56.9738   28.5394   45.6289 C   0  0  0  0  0  0  0  0  0  0  0  0
   56.1678   29.3487   45.0129 N   0  0  0  0  0  0  0  0  0  0  0  0
   58.2134   28.9446   46.0160 N   0  0  0  0  0  0  0  0  0  0  0  0
   59.0477   28.0859   46.6539 C   0  0  0  0  0  0  0  0  0  0  0  0
   60.2302   28.4899   47.0097 N   0  0  0  0  0  0  0  0  0  0  0  0
   58.6357   26.8147   46.9063 N   0  0  0  0  0  0  0  0  0  0  0  0
   56.2525   23.2493   45.4576 C   0  0  0  0  0  0  0  0  0  0  0  0
   56.5188   22.1427   44.6369 C   0  0  0  0  0  0  0  0  0  0  0  0
   57.8333   21.8147   44.2980 C   0  0  0  0  0  0  0  0  0  0  0  0
   58.8907   22.5952   44.7647 C   0  0  0  0  0  0  0  0  0  0  0  0
   58.6401   23.6980   45.5832 C   0  0  0  0  0  0  0  0  0  0  0  0
   57.3212   24.0219   45.9598 C   0  0  0  0  0  0  0  0  0  0  0  0
   54.3420   25.3582   45.7019 N   0  0  0  0  0  0  0  0  0  0  0  0
   54.5830   23.6561   45.8716 S   0  0  0  0  0  0  0  0  0  0  0  0
   53.6266   22.9347   44.9654 O   0  0  0  0  0  0  0  0  0  0  0  0
   54.3086   23.2488   47.2922 O   0  0  0  0  0  0  0  0  0  0  0  0
   53.3782   25.5906   45.9413 H   0  0  0  0  0  0  0  0  0  0  0  0
   56.5994   30.6000   44.3964 C   0  0  0  0  0  0  0  0  0  0  0  0
   56.8801   30.4574   42.9129 C   0  0  0  0  0  0  0  0  0  0  0  0
   58.0331   30.5721   43.8989 C   0  0  0  0  0  0  0  0  0  0  0  0
   60.8372   29.7570   46.6025 C   0  0  0  0  0  0  0  0  0  0  0  0
   60.8051   30.7668   47.7543 C   0  0  0  0  0  0  0  0  0  0  0  0
   60.1404   32.0444   47.3187 C   0  0  0  0  0  0  0  0  0  0  0  0
   60.9160   33.1651   46.9784 C   0  0  0  0  0  0  0  0  0  0  0  0
   60.2994   34.3424   46.5428 C   0  0  0  0  0  0  0  0  0  0  0  0
   58.9082   34.4054   46.4349 C   0  0  0  0  0  0  0  0  0  0  0  0
   58.1297   33.2903   46.7581 C   0  0  0  0  0  0  0  0  0  0  0  0
   58.7427   32.1107   47.1952 C   0  0  0  0  0  0  0  0  0  0  0  0
 16 17  1  0
 17 18  2  0
 17 19  2  0
 17 10  1  0
 10 11  2  0
 11 12  1  0
 12 13  2  0
 13 14  1  0
 14 15  2  0
 15  1  1  0
  1  2  2  0
  2  3  1  0
  3  4  1  0
  4  5  2  0
  5 21  1  0
 21 22  1  0
 22 23  1  0
  4  6  1  0
  6  7  1  0
  7  8  2  0
  8 24  1  0
 24 25  1  0
 25 26  1  0
 26 27  2  0
 27 28  1  0
 28 29  2  0
 29 30  1  0
 30 31  2  0
  7  9  1  0
 15 10  1  0
  9  2  1  0
 23 21  1  0
 31 26  1  0
 16 20  1  0
M  CHG 1   3  -1
M  CHG 1   6  -1
M  CHG 1   9  -1
M  CHG 1  16  -1
M  END
> <UniqueID>
78

> <SMILES>
[NH-]S(=O)(=O)c1ccccc1/N=c1\[n-]c(=NC2CC2)[n-]/c(=N/CCc2ccccc2)[n-]1

> <Energy>
320.663010796125

> <Genealogy>
[NH-]S(=O)(=O)c1ccccc1N=c1[n-]c(=NCCc2ccccc2)[n-]c(=NC2CC2)[n-]1 (protonated)
[NH-]S(=O)(=O)c1ccccc1/N=c1\[n-]c(=NC2CC2)[n-]/c(=N/CCc2ccccc2)[n-]1 (cis-trans isomerization)
[NH-]S(=O)(=O)c1ccccc1/N=c1\[n-]c(=NC2CC2)[n-]/c(=N/CCc2ccccc2)[n-]1 (3D coordinates assigned)
[NH-]S(=O)(=O)c1ccccc1/N=c1\[n-]c(=NC2CC2)[n-]/c(=N/CCc2ccccc2)[n-]1 (nonaromatic ring conformer: 320.663010796125 kcal/mol)

> <smiles>
NS(=O)(=O)c1ccccc1N=c1[nH]c(=NCCc2ccccc2)[nH]c(=NC2CC2)[nH]1

> <score_type>
oracle

> <origin>
adg

> <m_score__min__energy>
-16.25

> <m_primary>
energy

> <minimizedAffinity>
-8.03789

> <minimizedRMSD>
0.96707

> <CNNscore>
0.5840700269

> <CNNaffinity>
6.9990725517

> <CNN_VS>
4.0879483223

> <CNNaffinity_variance>
0.0367835909

$$$$
19:0


 27 30  0  0  0  0  0  0  0  0999 V2000
   59.0826   30.9346   46.3658 C   0  0  0  0  0  0  0  0  0  0  0  0
   58.0849   31.5404   45.6035 C   0  0  0  0  0  0  0  0  0  0  0  0
   57.8346   32.8467   45.5240 C   0  0  0  0  0  0  0  0  0  0  0  0
   57.3945   30.6257   44.9448 O   0  0  0  0  0  0  0  0  0  0  0  0
   57.9007   29.4527   45.2488 C   0  0  0  0  0  0  0  0  0  0  0  0
   57.4905   28.2068   44.7820 C   0  0  0  0  0  0  0  0  0  0  0  0
   58.1801   27.0523   45.2417 C   0  0  0  0  0  0  0  0  0  0  0  0
   57.8525   25.8078   44.8333 C   0  0  0  0  0  0  0  0  0  0  0  0
   59.2765   27.2153   46.1348 C   0  0  0  0  0  0  0  0  0  0  0  0
   59.6633   28.4896   46.5856 C   0  0  0  0  0  0  0  0  0  0  0  0
   58.9473   29.5869   46.1218 C   0  0  0  0  0  0  0  0  0  0  0  0
   57.1925   24.7857   45.6663 C   0  0  0  0  0  0  0  0  0  0  0  0
   57.8167   23.6871   46.1215 N   0  0  0  0  0  0  0  0  0  0  0  0
   56.8877   23.1009   46.9085 C   0  0  0  0  0  0  0  0  0  0  0  0
   57.0991   22.0174   47.5135 O   0  0  0  0  0  0  0  0  0  0  0  0
   55.7214   23.7716   47.0027 N   0  0  0  0  0  0  0  0  0  0  0  0
   55.9333   24.8418   46.2228 C   0  0  0  0  0  0  0  0  0  0  0  0
   55.0102   25.8682   46.0575 O   0  0  0  0  0  0  0  0  0  0  0  0
   60.8721   32.0951   47.9304 C   0  0  0  0  0  0  0  0  0  0  0  0
   60.0545   31.5673   47.2208 C   0  0  0  0  0  0  0  0  0  0  0  0
   61.5220   33.3416   49.8975 C   0  0  0  0  0  0  0  0  0  0  0  0
   61.8475   32.7371   48.7752 C   0  0  0  0  0  0  0  0  0  0  0  0
   63.2517   32.7325   48.4863 N   0  0  0  0  0  0  0  0  0  0  0  0
   63.5306   33.4858   47.2525 C   0  0  0  0  0  0  0  0  0  0  0  0
   63.8675   33.3695   49.6722 C   0  0  0  0  0  0  0  0  0  0  0  0
   62.7268   33.8677   50.5666 C   0  0  0  0  0  0  0  0  0  0  0  0
   64.1994   32.4696   48.4413 H   0  0  0  0  0  0  0  0  0  0  0  0
 21 22  2  0
 22 19  1  0
 19 20  3  0
 20  1  1  0
  1  2  1  0
  2  3  2  0
  2  4  1  0
  4  5  1  0
  5  6  2  0
  6  7  1  0
  7  8  2  0
  8 12  1  0
 12 13  1  0
 13 14  1  0
 14 15  2  0
 14 16  1  0
 16 17  1  0
 17 18  1  0
  7  9  1  0
  9 10  2  0
 10 11  1  0
 22 23  1  0
 23 24  1  0
 23 25  1  0
 25 26  1  0
 26 21  1  0
 11  1  2  0
 11  5  1  0
 17 12  2  0
 23 27  1  0
M  CHG 1  13  -1
M  CHG 1  16  -1
M  CHG 1  18  -1
M  CHG 1  23   1
M  END
> <UniqueID>
17

> <SMILES>
C=c1oc2c/c(=C\c3[n-]c(=O)[n-]c3[O-])ccc2c1C#CC1=CCC[N@@H+]1C

> <Energy>
119.95807010386467

> <Genealogy>
C=c1oc2cc(=Cc3[n-]c(=O)[n-]c3[O-])ccc2c1C#CC1=CCC[NH+]1C (protonated)
C=c1oc2cc(=Cc3[n-]c(=O)[n-]c3[O-])ccc2c1C#CC1=CCC[N@@H+]1C (chirality)
C=c1oc2c/c(=C\c3[n-]c(=O)[n-]c3[O-])ccc2c1C#CC1=CCC[N@@H+]1C (cis-trans isomerization)
C=c1oc2c/c(=C\c3[n-]c(=O)[n-]c3[O-])ccc2c1C#CC1=CCC[N@@H+]1C (3D coordinates assigned)
C=c1oc2c/c(=C\c3[n-]c(=O)[n-]c3[O-])ccc2c1C#CC1=CCC[N@@H+]1C (nonaromatic ring conformer: 119.95807010386467 kcal/mol)

> <smiles>
C=c1oc2cc(=Cc3[nH]c(=O)[nH]c3O)ccc2c1C#CC1=CCCN1C

> <score_type>
oracle

> <origin>
adg

> <m_score__min__energy>
-14.58

> <m_primary>
energy

> <minimizedAffinity>
-9.02792

> <minimizedRMSD>
0.74868

> <CNNscore>
0.2649943233

> <CNNaffinity>
6.8679575920

> <CNN_VS>
1.8199697733

> <CNNaffinity_variance>
0.2192809135

$$$$
25:0


 32 35  0  0  0  0  0  0  0  0999 V2000
   59.2526   29.2934   48.3545 C   0  0  0  0  0  0  0  0  0  0  0  0
   58.7754   29.1923   47.1050 C   0  0  0  0  0  0  0  0  0  0  0  0
   58.2620   28.0383   46.5021 C   0  0  0  0  0  0  0  0  0  0  0  0
   58.0844   26.8311   47.0711 C   0  0  0  0  0  0  0  0  0  0  0  0
   57.9145   28.3980   45.2050 C   0  0  0  0  0  0  0  0  0  0  0  0
   58.2255   29.7364   45.0690 C   0  0  0  0  0  0  0  0  0  0  0  0
   58.0077   30.5410   43.8240 C   0  0  0  0  0  0  0  0  0  0  0  0
   58.7587   30.2155   46.2146 N   0  0  0  0  0  0  0  0  0  0  0  0
   57.6340   25.6317   46.3404 C   0  0  0  0  0  0  0  0  0  0  0  0
   58.4845   24.7189   45.8243 N   0  0  0  0  0  0  0  0  0  0  0  0
   57.6755   23.8597   45.1666 C   0  0  0  0  0  0  0  0  0  0  0  0
   58.1106   22.8609   44.5334 O   0  0  0  0  0  0  0  0  0  0  0  0
   56.3681   24.1847   45.2367 N   0  0  0  0  0  0  0  0  0  0  0  0
   55.2517   23.5527   44.5394 C   0  0  0  0  0  0  0  0  0  0  0  0
   56.3456   25.3220   45.9483 C   0  0  0  0  0  0  0  0  0  0  0  0
   55.2038   26.0840   46.1760 O   0  0  0  0  0  0  0  0  0  0  0  0
   59.1844   31.5697   46.4412 C   0  0  0  0  0  0  0  0  0  0  0  0
   60.4982   31.8307   46.8561 C   0  0  0  0  0  0  0  0  0  0  0  0
   60.9294   33.1502   47.0783 C   0  0  0  0  0  0  0  0  0  0  0  0
   60.0165   34.2050   46.9031 C   0  0  0  0  0  0  0  0  0  0  0  0
   58.7076   33.9462   46.4897 C   0  0  0  0  0  0  0  0  0  0  0  0
   58.2901   32.6346   46.2559 C   0  0  0  0  0  0  0  0  0  0  0  0
   57.0221   32.3996   45.8356 F   0  0  0  0  0  0  0  0  0  0  0  0
   62.3157   33.4160   47.5270 C   0  0  0  0  0  0  0  0  0  0  0  0
   63.1842   33.7514   46.6776 O   0  0  0  0  0  0  0  0  0  0  0  0
   62.6978   33.2768   48.9082 N   0  0  0  0  0  0  0  0  0  0  0  0
   61.8971   33.8900   49.9722 C   0  0  0  0  0  0  0  0  0  0  0  0
   61.7942   32.9512   51.1909 C   0  0  0  0  0  0  0  0  0  0  0  0
   62.9831   32.0827   51.3921 N   0  0  0  0  0  0  0  0  0  0  0  0
   62.7149   30.6848   51.0075 C   0  0  0  0  0  0  0  0  0  0  0  0
   64.2068   32.6035   50.7495 C   0  0  0  0  0  0  0  0  0  0  0  0
   64.0321   32.7651   49.2311 C   0  0  0  0  0  0  0  0  0  0  0  0
  1  2  2  0
  2  3  1  0
  3  4  2  0
  4  9  1  0
  9 10  1  0
 10 11  1  0
 11 12  2  0
 11 13  1  0
 13 14  1  0
 13 15  1  0
 15 16  1  0
  3  5  1  0
  5  6  2  0
  6  7  1  0
  6  8  1  0
  8 17  1  0
 17 18  2  0
 18 19  1  0
 19 24  1  0
 24 25  2  0
 24 26  1  0
 26 27  1  0
 27 28  1  0
 28 29  1  0
 29 30  1  0
 29 31  1  0
 31 32  1  0
 19 20  2  0
 20 21  1  0
 21 22  2  0
 22 23  1  0
  8  2  1  0
 22 17  1  0
 15  9  2  0
 32 26  1  0
M  CHG 1  10  -1
M  CHG 1  16  -1
M  END
> <UniqueID>
23

> <SMILES>
C=c1/c(=C/c2[n-]c(=O)n(C)c2[O-])cc(C)n1-c1cc(C(=O)N2CCN(C)CC2)ccc1F

> <Energy>
143.7577335445685

> <Genealogy>
C=c1c(=Cc2[n-]c(=O)n(C)c2[O-])cc(C)n1-c1cc(C(=O)N2CCN(C)CC2)ccc1F (protonated)
C=c1/c(=C/c2[n-]c(=O)n(C)c2[O-])cc(C)n1-c1cc(C(=O)N2CCN(C)CC2)ccc1F (cis-trans isomerization)
C=c1/c(=C/c2[n-]c(=O)n(C)c2[O-])cc(C)n1-c1cc(C(=O)N2CCN(C)CC2)ccc1F (3D coordinates assigned)
C=c1/c(=C/c2[n-]c(=O)n(C)c2[O-])cc(C)n1-c1cc(C(=O)N2CCN(C)CC2)ccc1F (nonaromatic ring conformer: 143.7577335445685 kcal/mol)

> <smiles>
C=c1c(=Cc2[nH]c(=O)n(C)c2O)cc(C)n1-c1cc(C(=O)N2CCN(C)CC2)ccc1F

> <score_type>
oracle

> <origin>
adg

> <m_score__min__energy>
-14.81

> <m_primary>
energy

> <minimizedAffinity>
-10.38019

> <minimizedRMSD>
0.70160

> <CNNscore>
0.3110265136

> <CNNaffinity>
6.9049205780

> <CNN_VS>
2.1476132870

> <CNNaffinity_variance>
0.0112246899

$$$$
26:0


 30 33  0  0  0  0  0  0  0  0999 V2000
   57.3521   30.7510   43.7433 C   0  0  0  0  0  0  0  0  0  0  0  0
   57.9680   31.1543   44.8597 C   0  0  0  0  0  0  0  0  0  0  0  0
   57.7544   32.3792   45.3826 N   0  0  0  0  0  0  0  0  0  0  0  0
   58.6530   32.5614   46.3653 C   0  0  0  0  0  0  0  0  0  0  0  0
   58.7646   33.8396   47.1383 C   0  0  0  0  0  0  0  0  0  0  0  0
   59.4441   31.4310   46.5066 C   0  0  0  0  0  0  0  0  0  0  0  0
   58.9939   30.5029   45.5661 C   0  0  0  0  0  0  0  0  0  0  0  0
   59.4729   29.2461   45.4448 C   0  0  0  0  0  0  0  0  0  0  0  0
   57.0660   33.0223   45.0966 H   0  0  0  0  0  0  0  0  0  0  0  0
   60.5610   31.2600   47.4605 C   0  0  0  0  0  0  0  0  0  0  0  0
   61.7274   31.1162   47.0000 O   0  0  0  0  0  0  0  0  0  0  0  0
   60.3518   31.2859   48.8883 N   0  0  0  0  0  0  0  0  0  0  0  0
   61.4802   31.6395   49.7646 C   0  0  0  0  0  0  0  0  0  0  0  0
   61.1742   31.3625   51.2423 C   0  0  0  0  0  0  0  0  0  0  0  0
   59.8389   31.8590   51.6066 N   0  0  0  0  0  0  0  0  0  0  0  0
   58.7115   31.6844   50.6756 C   0  0  0  0  0  0  0  0  0  0  0  0
   59.0946   30.8073   49.4807 C   0  0  0  0  0  0  0  0  0  0  0  0
   59.5899   32.3689   52.9364 C   0  0  0  0  0  0  0  0  0  0  0  0
   59.2490   31.4986   53.9895 C   0  0  0  0  0  0  0  0  0  0  0  0
   59.0005   31.9972   55.2721 C   0  0  0  0  0  0  0  0  0  0  0  0
   59.0871   33.3681   55.5193 C   0  0  0  0  0  0  0  0  0  0  0  0
   59.4206   34.2447   54.4844 C   0  0  0  0  0  0  0  0  0  0  0  0
   59.6700   33.7508   53.1991 C   0  0  0  0  0  0  0  0  0  0  0  0
   58.7329   28.0172   45.7744 C   0  0  0  0  0  0  0  0  0  0  0  0
   58.5745   27.3480   47.3152 S   0  0  0  0  0  0  0  0  0  0  0  0
   57.8352   25.9595   46.7244 C   0  0  0  0  0  0  0  0  0  0  0  0
   57.4261   25.0125   47.4450 O   0  0  0  0  0  0  0  0  0  0  0  0
   57.7285   25.9567   45.3791 N   0  0  0  0  0  0  0  0  0  0  0  0
   58.2477   27.0964   44.8505 C   0  0  0  0  0  0  0  0  0  0  0  0
   58.2846   27.3120   43.4784 O   0  0  0  0  0  0  0  0  0  0  0  0
  1  2  2  0
  2  3  1  0
  3  4  1  0
  4  5  1  0
  4  6  2  0
  6 10  1  0
 10 11  2  0
 10 12  1  0
 12 13  1  0
 13 14  1  0
 14 15  1  0
 15 18  1  0
 18 19  2  0
 19 20  1  0
 20 21  2  0
 21 22  1  0
 22 23  2  0
 15 16  1  0
 16 17  1  0
  6  7  1  0
  7  8  2  0
  8 24  1  0
 24 25  1  0
 25 26  1  0
 26 27  2  0
 26 28  1  0
 28 29  1  0
 29 30  1  0
  7  2  1  0
 29 24  2  0
 17 12  1  0
 23 18  1  0
  3  9  1  0
M  CHG 1  28  -1
M  CHG 1  30  -1
M  END
> <UniqueID>
24

> <SMILES>
C=c1[nH]c(C)c(C(=O)N2CCN(c3ccccc3)CC2)c1=Cc1sc(=O)[n-]c1[O-]

> <Energy>
131.7107040931512

> <Genealogy>
C=c1[nH]c(C)c(C(=O)N2CCN(c3ccccc3)CC2)c1=Cc1sc(=O)[n-]c1[O-] (protonated)
C=c1[nH]c(C)c(C(=O)N2CCN(c3ccccc3)CC2)c1=Cc1sc(=O)[n-]c1[O-] (3D coordinates assigned)
C=c1[nH]c(C)c(C(=O)N2CCN(c3ccccc3)CC2)c1=Cc1sc(=O)[n-]c1[O-] (nonaromatic ring conformer: 131.7107040931512 kcal/mol)

> <smiles>
C=c1[nH]c(C)c(C(=O)N2CCN(c3ccccc3)CC2)c1=Cc1sc(=O)[nH]c1O

> <score_type>
oracle

> <origin>
adg

> <m_score__min__energy>
-14.380000000000001

> <m_primary>
energy

> <minimizedAffinity>
-8.20826

> <minimizedRMSD>
1.82611

> <CNNscore>
0.2638642192

> <CNNaffinity>
6.6013565063

> <CNN_VS>
1.7418618202

> <CNNaffinity_variance>
0.0424152911

$$$$
32:0


 24 27  0  0  0  0  0  0  0  0999 V2000
   57.9424   30.1175   45.7621 C   0  0  0  0  0  0  0  0  0  0  0  0
   56.9864   30.7145   44.9518 C   0  0  0  0  0  0  0  0  0  0  0  0
   55.8921   30.0542   44.4067 O   0  0  0  0  0  0  0  0  0  0  0  0
   57.2375   32.0250   44.7351 N   0  0  0  0  0  0  0  0  0  0  0  0
   58.3639   32.2620   45.4367 C   0  0  0  0  0  0  0  0  0  0  0  0
   59.0167   33.4847   45.5594 C   0  0  0  0  0  0  0  0  0  0  0  0
   60.1583   33.5484   46.3769 C   0  0  0  0  0  0  0  0  0  0  0  0
   60.6205   32.4005   47.0741 C   0  0  0  0  0  0  0  0  0  0  0  0
   59.9220   31.1789   46.9331 C   0  0  0  0  0  0  0  0  0  0  0  0
   58.8170   31.1384   46.0818 C   0  0  0  0  0  0  0  0  0  0  0  0
   60.5517   27.9388   49.9928 C   0  0  0  0  0  0  0  0  0  0  0  0
   60.0693   27.8524   48.7577 C   0  0  0  0  0  0  0  0  0  0  0  0
   60.5624   26.9965   47.8340 N   0  0  0  0  0  0  0  0  0  0  0  0
   59.7932   27.2379   46.7601 C   0  0  0  0  0  0  0  0  0  0  0  0
   59.9263   26.6413   45.6586 O   0  0  0  0  0  0  0  0  0  0  0  0
   58.8611   28.2085   47.0463 C   0  0  0  0  0  0  0  0  0  0  0  0
   57.9493   28.7101   46.2027 C   0  0  0  0  0  0  0  0  0  0  0  0
   59.0388   28.6132   48.3178 N   0  0  0  0  0  0  0  0  0  0  0  0
   61.8210   32.4781   47.9445 C   0  0  0  0  0  0  0  0  0  0  0  0
   62.8439   33.4038   47.6758 C   0  0  0  0  0  0  0  0  0  0  0  0
   63.9637   33.4597   48.5092 C   0  0  0  0  0  0  0  0  0  0  0  0
   64.0643   32.6192   49.5737 N   0  0  0  0  0  0  0  0  0  0  0  0
   63.0946   31.7128   49.8590 C   0  0  0  0  0  0  0  0  0  0  0  0
   61.9570   31.6248   49.0527 C   0  0  0  0  0  0  0  0  0  0  0  0
 11 12  2  0
 12 13  1  0
 13 14  1  0
 14 15  2  0
 14 16  1  0
 16 17  2  0
 17  1  1  0
  1  2  2  0
  2  3  1  0
  2  4  1  0
  4  5  1  0
  5  6  2  0
  6  7  1  0
  7  8  2  0
  8 19  1  0
 19 20  2  0
 20 21  1  0
 21 22  2  0
 22 23  1  0
 23 24  2  0
  8  9  1  0
  9 10  2  0
 16 18  1  0
 18 12  1  0
 10  1  1  0
 10  5  1  0
 24 19  1  0
M  CHG 1   3  -1
M  CHG 1   4  -1
M  CHG 1  13  -1
M  CHG 1  18  -1
M  END
> <UniqueID>
28

> <SMILES>
C=c1[n-]c(=O)c(=Cc2c([O-])[n-]c3ccc(-c4ccncc4)cc23)[n-]1

> <Energy>
110.98464737810299

> <Genealogy>
C=c1[n-]c(=O)c(=Cc2c([O-])[n-]c3ccc(-c4ccncc4)cc23)[n-]1 (protonated)
C=c1[n-]c(=O)c(=Cc2c([O-])[n-]c3ccc(-c4ccncc4)cc23)[n-]1 (3D coordinates assigned)
C=c1[n-]c(=O)c(=Cc2c([O-])[n-]c3ccc(-c4ccncc4)cc23)[n-]1 (optimized conformer: 110.98464737810299 kcal/mol)

> <smiles>
C=c1[nH]c(=O)c(=Cc2c(O)[nH]c3ccc(-c4ccncc4)cc23)[nH]1

> <score_type>
oracle

> <origin>
adg

> <m_score__min__energy>
-16.140000000000001

> <m_primary>
energy

> <minimizedAffinity>
-8.22916

> <minimizedRMSD>
1.04622

> <CNNscore>
0.5189563036

> <CNNaffinity>
6.6669697762

> <CNN_VS>
3.4598660469

> <CNNaffinity_variance>
0.3036023080

$$$$
46:0


 33 36  0  0  0  0  0  0  0  0999 V2000
   60.6460   30.9281   47.9319 C   0  0  0  0  0  0  0  0  0  0  0  0
   59.6852   30.6312   47.0527 C   0  0  0  0  0  0  0  0  0  0  0  0
   59.2999   29.3611   46.7911 N   0  0  0  0  0  0  0  0  0  0  0  0
   58.2589   29.4677   45.9342 C   0  0  0  0  0  0  0  0  0  0  0  0
   57.5360   28.4578   45.4149 C   0  0  0  0  0  0  0  0  0  0  0  0
   58.0422   30.8118   45.6976 C   0  0  0  0  0  0  0  0  0  0  0  0
   57.1529   31.2985   44.9470 O   0  0  0  0  0  0  0  0  0  0  0  0
   58.9392   31.5452   46.3823 N   0  0  0  0  0  0  0  0  0  0  0  0
   59.0468   32.9785   46.3686 C   0  0  0  0  0  0  0  0  0  0  0  0
   58.0037   33.6733   46.4988 O   0  0  0  0  0  0  0  0  0  0  0  0
   59.6944   28.5332   47.1492 H   0  0  0  0  0  0  0  0  0  0  0  0
   57.6776   27.0285   45.7634 C   0  0  0  0  0  0  0  0  0  0  0  0
   58.8145   26.3032   45.6809 N   0  0  0  0  0  0  0  0  0  0  0  0
   58.4346   25.0587   46.0438 C   0  0  0  0  0  0  0  0  0  0  0  0
   59.2307   24.0848   46.0822 O   0  0  0  0  0  0  0  0  0  0  0  0
   57.1233   24.9625   46.3504 N   0  0  0  0  0  0  0  0  0  0  0  0
   56.6462   26.2024   46.1570 C   0  0  0  0  0  0  0  0  0  0  0  0
   55.3160   26.5718   46.3226 O   0  0  0  0  0  0  0  0  0  0  0  0
   56.3673   23.7595   46.6985 C   0  0  0  0  0  0  0  0  0  0  0  0
   56.4235   22.7699   45.5680 C   0  0  0  0  0  0  0  0  0  0  0  0
   56.4158   23.2154   44.2356 C   0  0  0  0  0  0  0  0  0  0  0  0
   56.5084   22.2960   43.1860 C   0  0  0  0  0  0  0  0  0  0  0  0
   56.6187   20.9303   43.4587 C   0  0  0  0  0  0  0  0  0  0  0  0
   56.7098   20.0394   42.4394 F   0  0  0  0  0  0  0  0  0  0  0  0
   56.6397   20.4801   44.7821 C   0  0  0  0  0  0  0  0  0  0  0  0
   56.5477   21.3973   45.8347 C   0  0  0  0  0  0  0  0  0  0  0  0
   60.3531   33.6458   46.0258 C   0  0  0  0  0  0  0  0  0  0  0  0
   61.2894   33.6902   47.2079 C   0  0  0  0  0  0  0  0  0  0  0  0
   62.6567   33.4135   47.0349 C   0  0  0  0  0  0  0  0  0  0  0  0
   63.5303   33.4604   48.1254 C   0  0  0  0  0  0  0  0  0  0  0  0
   63.0469   33.7803   49.3968 C   0  0  0  0  0  0  0  0  0  0  0  0
   61.6883   34.0493   49.5805 C   0  0  0  0  0  0  0  0  0  0  0  0
   60.8115   34.0035   48.4917 C   0  0  0  0  0  0  0  0  0  0  0  0
  1  2  2  0
  2  3  1  0
  3  4  1  0
  4  5  2  0
  5 12  1  0
 12 13  1  0
 13 14  1  0
 14 15  2  0
 14 16  1  0
 16 19  1  0
 19 20  1  0
 20 21  2  0
 21 22  1  0
 22 23  2  0
 23 24  1  0
 23 25  1  0
 25 26  2  0
 16 17  1  0
 17 18  1  0
  4  6  1  0
  6  7  2  0
  6  8  1  0
  8  9  1  0
  9 10  2  0
  9 27  1  0
 27 28  1  0
 28 29  2  0
 29 30  1  0
 30 31  2  0
 31 32  1  0
 32 33  2  0
  8  2  1  0
 33 28  1  0
 17 12  2  0
 26 20  1  0
  3 11  1  0
M  CHG 1  13  -1
M  CHG 1  18  -1
M  END
> <UniqueID>
42

> <SMILES>
C=c1[nH]c(=Cc2[n-]c(=O)n(Cc3ccc(F)cc3)c2[O-])c(=O)n1C(=O)Cc1ccccc1

> <Energy>
127.66234426917495

> <Genealogy>
C=c1[nH]c(=Cc2[n-]c(=O)n(Cc3ccc(F)cc3)c2[O-])c(=O)n1C(=O)Cc1ccccc1 (protonated)
C=c1[nH]c(=Cc2[n-]c(=O)n(Cc3ccc(F)cc3)c2[O-])c(=O)n1C(=O)Cc1ccccc1 (3D coordinates assigned)
C=c1[nH]c(=Cc2[n-]c(=O)n(Cc3ccc(F)cc3)c2[O-])c(=O)n1C(=O)Cc1ccccc1 (optimized conformer: 127.66234426917495 kcal/mol)

> <smiles>
C=c1[nH]c(=Cc2[nH]c(=O)n(Cc3ccc(F)cc3)c2O)c(=O)n1C(=O)Cc1ccccc1

> <score_type>
oracle

> <origin>
adg

> <m_score__min__energy>
-14.52

> <m_primary>
energy

> <minimizedAffinity>
-8.34065

> <minimizedRMSD>
0.52170

> <CNNscore>
0.1195418090

> <CNNaffinity>
6.3795261383

> <CNN_VS>
0.7626200914

> <CNNaffinity_variance>
0.0501966625

$$$$
52:0


 30 33  0  0  0  0  0  0  0  0999 V2000
   52.6501   27.6379   55.0788 C   0  0  0  0  0  0  0  0  0  0  0  0
   53.7172   28.3311   54.6716 C   0  0  0  0  0  0  0  0  0  0  0  0
   54.9733   27.8754   54.8563 N   0  0  0  0  0  0  0  0  0  0  0  0
   55.8106   28.8730   54.5181 C   0  0  0  0  0  0  0  0  0  0  0  0
   55.1006   29.9858   54.1145 C   0  0  0  0  0  0  0  0  0  0  0  0
   53.7591   29.6394   54.1637 C   0  0  0  0  0  0  0  0  0  0  0  0
   52.7737   30.4688   53.7693 C   0  0  0  0  0  0  0  0  0  0  0  0
   55.2294   26.9809   55.1781 H   0  0  0  0  0  0  0  0  0  0  0  0
   52.2210   30.5555   52.4077 C   0  0  0  0  0  0  0  0  0  0  0  0
   52.5030   29.6961   51.4098 N   0  0  0  0  0  0  0  0  0  0  0  0
   51.8950   30.2528   50.3400 C   0  0  0  0  0  0  0  0  0  0  0  0
   51.9187   29.7254   49.1977 O   0  0  0  0  0  0  0  0  0  0  0  0
   51.2715   31.4240   50.5874 N   0  0  0  0  0  0  0  0  0  0  0  0
   51.5015   31.6066   51.8986 C   0  0  0  0  0  0  0  0  0  0  0  0
   51.0653   32.7160   52.6120 O   0  0  0  0  0  0  0  0  0  0  0  0
   57.3008   28.8018   54.6672 C   0  0  0  0  0  0  0  0  0  0  0  0
   57.9387   30.1494   54.4430 C   0  0  0  0  0  0  0  0  0  0  0  0
   58.3135   30.8251   55.4411 O   0  0  0  0  0  0  0  0  0  0  0  0
   58.1701   30.6618   53.1149 N   0  0  0  0  0  0  0  0  0  0  0  0
   58.2260   29.7614   51.9536 C   0  0  0  0  0  0  0  0  0  0  0  0
   59.2164   30.2846   50.9076 C   0  0  0  0  0  0  0  0  0  0  0  0
   58.9676   31.6976   50.5818 N   0  0  0  0  0  0  0  0  0  0  0  0
   58.1285   32.5183   51.4658 C   0  0  0  0  0  0  0  0  0  0  0  0
   58.3164   32.1125   52.9304 C   0  0  0  0  0  0  0  0  0  0  0  0
   59.4719   32.2451   49.3431 C   0  0  0  0  0  0  0  0  0  0  0  0
   59.4393   31.4825   48.1583 C   0  0  0  0  0  0  0  0  0  0  0  0
   59.9237   32.0140   46.9591 C   0  0  0  0  0  0  0  0  0  0  0  0
   60.4457   33.3085   46.9266 C   0  0  0  0  0  0  0  0  0  0  0  0
   60.4816   34.0760   48.0928 C   0  0  0  0  0  0  0  0  0  0  0  0
   59.9986   33.5497   49.2946 C   0  0  0  0  0  0  0  0  0  0  0  0
  1  2  2  0
  2  3  1  0
  3  4  1  0
  4 16  1  0
 16 17  1  0
 17 18  2  0
 17 19  1  0
 19 20  1  0
 20 21  1  0
 21 22  1  0
 22 25  1  0
 25 26  2  0
 26 27  1  0
 27 28  2  0
 28 29  1  0
 29 30  2  0
 22 23  1  0
 23 24  1  0
  4  5  2  0
  5  6  1  0
  6  7  2  0
  7  9  1  0
  9 10  1  0
 10 11  1  0
 11 12  2  0
 11 13  1  0
 13 14  1  0
 14 15  1  0
  6  2  1  0
 14  9  2  0
 24 19  1  0
 30 25  1  0
  3  8  1  0
M  CHG 1  10  -1
M  CHG 1  13  -1
M  CHG 1  15  -1
M  END
> <UniqueID>
48

> <SMILES>
C=c1[nH]c(CC(=O)N2CCN(c3ccccc3)CC2)cc1=Cc1[n-]c(=O)[n-]c1[O-]

> <Energy>
122.3085436587811

> <Genealogy>
C=c1[nH]c(CC(=O)N2CCN(c3ccccc3)CC2)cc1=Cc1[n-]c(=O)[n-]c1[O-] (protonated)
C=c1[nH]c(CC(=O)N2CCN(c3ccccc3)CC2)cc1=Cc1[n-]c(=O)[n-]c1[O-] (3D coordinates assigned)
C=c1[nH]c(CC(=O)N2CCN(c3ccccc3)CC2)cc1=Cc1[n-]c(=O)[n-]c1[O-] (nonaromatic ring conformer: 122.3085436587811 kcal/mol)

> <smiles>
C=c1[nH]c(CC(=O)N2CCN(c3ccccc3)CC2)cc1=Cc1[nH]c(=O)[nH]c1O

> <score_type>
oracle

> <origin>
adg

> <m_score__min__energy>
-17.370000000000001

> <m_primary>
energy

> <minimizedAffinity>
-6.05186

> <minimizedRMSD>
1.05422

> <CNNscore>
0.0964302123

> <CNNaffinity>
5.2966771126

> <CNN_VS>
0.5107597113

> <CNNaffinity_variance>
0.0642895401

$$$$
62:0


 28 30  0  0  0  0  0  0  0  0999 V2000
   58.9860   34.0346   46.5625 N   0  0  0  0  0  0  0  0  0  0  0  0
   60.2392   33.6437   47.1381 C   0  0  0  0  0  0  0  0  0  0  0  0
   61.2958   33.7342   46.4536 O   0  0  0  0  0  0  0  0  0  0  0  0
   60.2954   33.1344   48.5278 C   0  0  0  0  0  0  0  0  0  0  0  0
   59.9496   33.9682   49.6071 C   0  0  0  0  0  0  0  0  0  0  0  0
   60.0149   33.4911   50.9175 C   0  0  0  0  0  0  0  0  0  0  0  0
   60.4139   32.1777   51.1688 C   0  0  0  0  0  0  0  0  0  0  0  0
   60.7444   31.3202   50.1062 C   0  0  0  0  0  0  0  0  0  0  0  0
   60.6976   31.8113   48.7902 C   0  0  0  0  0  0  0  0  0  0  0  0
   61.1617   29.9296   50.3875 C   0  0  0  0  0  0  0  0  0  0  0  0
   61.8743   29.6893   51.3985 O   0  0  0  0  0  0  0  0  0  0  0  0
   60.7370   28.8398   49.5653 N   0  0  0  0  0  0  0  0  0  0  0  0
   59.7855   28.5723   48.4679 C   0  0  0  0  0  0  0  0  0  0  0  0
   59.9501   27.0897   48.4715 C   0  0  0  0  0  0  0  0  0  0  0  0
   60.9142   27.3759   49.5733 C   0  0  0  0  0  0  0  0  0  0  0  0
   57.8322   33.1477   46.4603 C   0  0  0  0  0  0  0  0  0  0  0  0
   57.8470   32.4060   45.1207 C   0  0  0  0  0  0  0  0  0  0  0  0
   57.8560   27.5968   45.4460 C   0  0  0  0  0  0  0  0  0  0  0  0
   59.2141   27.5473   45.1005 C   0  0  0  0  0  0  0  0  0  0  0  0
   59.8730   28.7403   44.8110 C   0  0  0  0  0  0  0  0  0  0  0  0
   59.1993   29.9187   44.8674 N   0  0  0  0  0  0  0  0  0  0  0  0
   57.8803   29.9569   45.2056 C   0  0  0  0  0  0  0  0  0  0  0  0
   57.2346   31.0834   45.2578 N   0  0  0  0  0  0  0  0  0  0  0  0
   57.2252   28.8011   45.4885 N   0  0  0  0  0  0  0  0  0  0  0  0
   55.7001   26.4436   46.0195 N   0  0  0  0  0  0  0  0  0  0  0  0
   57.1018   26.3701   45.7626 C   0  0  0  0  0  0  0  0  0  0  0  0
   57.6822   25.2521   45.8070 O   0  0  0  0  0  0  0  0  0  0  0  0
   55.1949   25.6255   46.2311 H   0  0  0  0  0  0  0  0  0  0  0  0
 25 26  1  0
 26 27  2  0
 26 18  1  0
 18 19  1  0
 19 20  2  0
 20 21  1  0
 21 22  1  0
 22 23  2  0
 23 17  1  0
 17 16  1  0
 16  1  1  0
  1  2  1  0
  2  3  2  0
  2  4  1  0
  4  5  2  0
  5  6  1  0
  6  7  2  0
  7  8  1  0
  8 10  1  0
 10 11  2  0
 10 12  1  0
 12 13  1  0
 13 14  1  0
 14 15  1  0
  8  9  2  0
 22 24  1  0
 24 18  2  0
  9  4  1  0
 15 12  1  0
 25 28  1  0
M  CHG 1   1  -1
M  CHG 1  21  -1
M  CHG 1  25  -1
M  END
> <UniqueID>
56

> <SMILES>
[NH-]C(=O)c1cc[n-]c(=NCC[N-]C(=O)c2cccc(C(=O)N3CCC3)c2)n1

> <Energy>
88.42016803909323

> <Genealogy>
[NH-]C(=O)c1cc[n-]c(=NCC[N-]C(=O)c2cccc(C(=O)N3CCC3)c2)n1 (protonated)
[NH-]C(=O)c1cc[n-]c(=NCC[N-]C(=O)c2cccc(C(=O)N3CCC3)c2)n1 (3D coordinates assigned)
[NH-]C(=O)c1cc[n-]c(=NCC[N-]C(=O)c2cccc(C(=O)N3CCC3)c2)n1 (nonaromatic ring conformer: 88.42016803909323 kcal/mol)

> <smiles>
NC(=O)c1cc[nH]c(=NCCNC(=O)c2cccc(C(=O)N3CCC3)c2)n1

> <score_type>
oracle

> <origin>
adg

> <m_score__min__energy>
-14.69

> <m_primary>
energy

> <minimizedAffinity>
-6.87143

> <minimizedRMSD>
2.00106

> <CNNscore>
0.2522117496

> <CNNaffinity>
6.3601574898

> <CNN_VS>
1.6041064262

> <CNNaffinity_variance>
0.0127033293

$$$$
63:0


 28 31  0  0  0  0  0  0  0  0999 V2000
   57.9371   25.0894   43.8819 C   0  0  0  0  0  0  0  0  0  0  0  0
   58.0420   25.4426   45.1730 C   0  0  0  0  0  0  0  0  0  0  0  0
   57.6285   24.6828   46.2805 C   0  0  0  0  0  0  0  0  0  0  0  0
   56.8379   23.5950   46.3624 C   0  0  0  0  0  0  0  0  0  0  0  0
   58.1784   25.2913   47.3949 C   0  0  0  0  0  0  0  0  0  0  0  0
   58.8277   26.4238   46.9522 C   0  0  0  0  0  0  0  0  0  0  0  0
   59.5473   27.3926   47.8433 C   0  0  0  0  0  0  0  0  0  0  0  0
   58.7332   26.5323   45.6070 N   0  0  0  0  0  0  0  0  0  0  0  0
   55.3787   23.5790   46.1497 C   0  0  0  0  0  0  0  0  0  0  0  0
   54.6440   22.4670   45.9558 N   0  0  0  0  0  0  0  0  0  0  0  0
   53.4163   22.9516   45.6694 C   0  0  0  0  0  0  0  0  0  0  0  0
   52.4293   22.2050   45.4385 O   0  0  0  0  0  0  0  0  0  0  0  0
   53.3315   24.2989   45.6395 N   0  0  0  0  0  0  0  0  0  0  0  0
   54.5860   24.6782   45.9327 C   0  0  0  0  0  0  0  0  0  0  0  0
   54.9976   26.0040   45.9950 O   0  0  0  0  0  0  0  0  0  0  0  0
   59.2955   27.6327   44.8056 C   0  0  0  0  0  0  0  0  0  0  0  0
   58.3251   28.7840   44.6918 C   0  0  0  0  0  0  0  0  0  0  0  0
   57.2565   28.7110   43.7841 C   0  0  0  0  0  0  0  0  0  0  0  0
   56.3876   29.7938   43.6319 C   0  0  0  0  0  0  0  0  0  0  0  0
   56.5689   30.9540   44.3869 C   0  0  0  0  0  0  0  0  0  0  0  0
   57.6230   31.0360   45.3146 C   0  0  0  0  0  0  0  0  0  0  0  0
   58.5091   29.9592   45.4409 C   0  0  0  0  0  0  0  0  0  0  0  0
   57.8613   32.2167   46.0960 N   0  0  0  0  0  0  0  0  0  0  0  0
   58.1306   33.5343   45.5957 C   0  0  0  0  0  0  0  0  0  0  0  0
   57.2214   34.2190   45.0587 O   0  0  0  0  0  0  0  0  0  0  0  0
   59.4791   34.1508   45.8062 C   0  0  0  0  0  0  0  0  0  0  0  0
   60.3995   33.3154   46.6850 C   0  0  0  0  0  0  0  0  0  0  0  0
   59.7865   34.5951   47.2305 C   0  0  0  0  0  0  0  0  0  0  0  0
  1  2  2  0
  2  3  1  0
  3  4  2  0
  4  9  1  0
  9 10  1  0
 10 11  1  0
 11 12  2  0
 11 13  1  0
 13 14  1  0
 14 15  1  0
  3  5  1  0
  5  6  2  0
  6  7  1  0
  6  8  1  0
  8 16  1  0
 16 17  1  0
 17 18  2  0
 18 19  1  0
 19 20  2  0
 20 21  1  0
 21 23  1  0
 23 24  1  0
 24 25  2  0
 24 26  1  0
 26 27  1  0
 27 28  1  0
 21 22  2  0
  8  2  1  0
 22 17  1  0
 14  9  2  0
 28 26  1  0
M  CHG 1  10  -1
M  CHG 1  13  -1
M  CHG 1  15  -1
M  CHG 1  23  -1
M  END
> <UniqueID>
57

> <SMILES>
C=c1c(=Cc2[n-]c(=O)[n-]c2[O-])cc(C)n1Cc1cccc([N-]C(=O)C2CC2)c1

> <Energy>
383.89808957001856

> <Genealogy>
C=c1c(=Cc2[n-]c(=O)[n-]c2[O-])cc(C)n1Cc1cccc([N-]C(=O)C2CC2)c1 (protonated)
C=c1c(=Cc2[n-]c(=O)[n-]c2[O-])cc(C)n1Cc1cccc([N-]C(=O)C2CC2)c1 (3D coordinates assigned)
C=c1c(=Cc2[n-]c(=O)[n-]c2[O-])cc(C)n1Cc1cccc([N-]C(=O)C2CC2)c1 (nonaromatic ring conformer: 383.89808957001856 kcal/mol)

> <smiles>
C=c1c(=Cc2[nH]c(=O)[nH]c2O)cc(C)n1Cc1cccc(NC(=O)C2CC2)c1

> <score_type>
oracle

> <origin>
adg

> <m_score__min__energy>
-17.059999999999999

> <m_primary>
energy

> <minimizedAffinity>
-6.73681

> <minimizedRMSD>
0.73202

> <CNNscore>
0.1157573238

> <CNNaffinity>
5.8491597176

> <CNN_VS>
0.6770830750

> <CNNaffinity_variance>
0.4039943218

$$$$
74:0


 30 32  0  0  0  0  0  0  0  0999 V2000
   58.1517   27.9055   45.7113 C   0  0  0  0  0  0  0  0  0  0  0  0
   57.6327   28.4447   44.6414 N   0  0  0  0  0  0  0  0  0  0  0  0
   57.9524   26.4516   45.9527 C   0  0  0  0  0  0  0  0  0  0  0  0
   56.6644   25.9033   46.1119 C   0  0  0  0  0  0  0  0  0  0  0  0
   55.5304   26.7024   46.0190 O   0  0  0  0  0  0  0  0  0  0  0  0
   56.5139   24.5735   46.3390 N   0  0  0  0  0  0  0  0  0  0  0  0
   57.5859   23.7472   46.4143 C   0  0  0  0  0  0  0  0  0  0  0  0
   57.4172   22.5189   46.6248 O   0  0  0  0  0  0  0  0  0  0  0  0
   58.8378   24.2432   46.2620 N   0  0  0  0  0  0  0  0  0  0  0  0
   59.0479   25.5667   46.0356 C   0  0  0  0  0  0  0  0  0  0  0  0
   60.2309   25.9850   45.9210 O   0  0  0  0  0  0  0  0  0  0  0  0
   60.6460   30.2302   48.3300 C   0  0  0  0  0  0  0  0  0  0  0  0
   59.6026   29.4449   48.8541 C   0  0  0  0  0  0  0  0  0  0  0  0
   58.7994   28.6763   48.0053 C   0  0  0  0  0  0  0  0  0  0  0  0
   59.0208   28.6854   46.6225 C   0  0  0  0  0  0  0  0  0  0  0  0
   60.0716   29.4480   46.0965 C   0  0  0  0  0  0  0  0  0  0  0  0
   60.8734   30.2194   46.9419 C   0  0  0  0  0  0  0  0  0  0  0  0
   61.1158   31.2713   50.5822 N   0  0  0  0  0  0  0  0  0  0  0  0
   61.4902   31.0570   49.2223 C   0  0  0  0  0  0  0  0  0  0  0  0
   62.5517   31.5807   48.7891 O   0  0  0  0  0  0  0  0  0  0  0  0
   61.6834   31.8226   51.1680 H   0  0  0  0  0  0  0  0  0  0  0  0
   56.6213   29.5046   44.5935 C   0  0  0  0  0  0  0  0  0  0  0  0
   57.2599   30.8672   44.6899 C   0  0  0  0  0  0  0  0  0  0  0  0
   57.6927   31.5260   43.5286 C   0  0  0  0  0  0  0  0  0  0  0  0
   58.3252   32.7704   43.6174 C   0  0  0  0  0  0  0  0  0  0  0  0
   58.5290   33.3751   44.8725 C   0  0  0  0  0  0  0  0  0  0  0  0
   58.0846   32.7209   46.0259 C   0  0  0  0  0  0  0  0  0  0  0  0
   57.4499   31.4795   45.9380 C   0  0  0  0  0  0  0  0  0  0  0  0
   59.1649   34.6180   45.0146 O   0  0  0  0  0  0  0  0  0  0  0  0
   59.6436   35.1391   46.2502 C   0  0  0  0  0  0  0  0  0  0  0  0
 18 19  1  0
 19 20  2  0
 19 12  1  0
 12 13  2  0
 13 14  1  0
 14 15  2  0
 15  1  1  0
  1  2  2  0
  2 22  1  0
 22 23  1  0
 23 24  2  0
 24 25  1  0
 25 26  2  0
 26 29  1  0
 29 30  1  0
 26 27  1  0
 27 28  2  0
  1  3  1  0
  3  4  2  0
  4  5  1  0
  4  6  1  0
  6  7  1  0
  7  8  2  0
  7  9  1  0
  9 10  1  0
 10 11  2  0
 15 16  1  0
 16 17  2  0
 17 12  1  0
 28 23  1  0
 10  3  1  0
 18 21  1  0
M  CHG 1   5  -1
M  CHG 1   6  -1
M  CHG 1   9  -1
M  CHG 1  18  -1
M  END
> <UniqueID>
68

> <SMILES>
COc1ccc(C/N=C(\c2ccc(C([NH-])=O)cc2)c2c([O-])[n-]c(=O)[n-]c2=O)cc1

> <Energy>
56.33877515216803

> <Genealogy>
COc1ccc(CN=C(c2ccc(C([NH-])=O)cc2)c2c([O-])[n-]c(=O)[n-]c2=O)cc1 (protonated)
COc1ccc(C/N=C(\c2ccc(C([NH-])=O)cc2)c2c([O-])[n-]c(=O)[n-]c2=O)cc1 (cis-trans isomerization)
COc1ccc(C/N=C(\c2ccc(C([NH-])=O)cc2)c2c([O-])[n-]c(=O)[n-]c2=O)cc1 (3D coordinates assigned)
COc1ccc(C/N=C(\c2ccc(C([NH-])=O)cc2)c2c([O-])[n-]c(=O)[n-]c2=O)cc1 (optimized conformer: 56.33877515216803 kcal/mol)

> <smiles>
COc1ccc(CN=C(c2ccc(C(N)=O)cc2)c2c(O)[nH]c(=O)[nH]c2=O)cc1

> <score_type>
oracle

> <origin>
adg

> <m_score__min__energy>
-15.73

> <m_primary>
energy

> <minimizedAffinity>
-6.66033

> <minimizedRMSD>
0.77168

> <CNNscore>
0.2052244842

> <CNNaffinity>
6.2744164467

> <CNN_VS>
1.2876639366

> <CNNaffinity_variance>
0.0014546365

$$$$
79:0


 28 30  0  0  0  0  0  0  0  0999 V2000
   57.7536   34.6221   45.4379 O   0  0  0  0  0  0  0  0  0  0  0  0
   58.1624   33.3208   45.7248 C   0  0  0  0  0  0  0  0  0  0  0  0
   58.0130   32.2576   44.8567 C   0  0  0  0  0  0  0  0  0  0  0  0
   58.5426   31.1589   45.5083 C   0  0  0  0  0  0  0  0  0  0  0  0
   59.0035   31.6124   46.7277 C   0  0  0  0  0  0  0  0  0  0  0  0
   59.6592   30.8301   47.6732 O   0  0  0  0  0  0  0  0  0  0  0  0
   58.7635   32.9305   46.8738 N   0  0  0  0  0  0  0  0  0  0  0  0
   57.3432   34.8142   44.6178 H   0  0  0  0  0  0  0  0  0  0  0  0
   58.7583   29.7991   44.9223 C   0  0  0  0  0  0  0  0  0  0  0  0
   57.4343   29.1799   44.6054 C   0  0  0  0  0  0  0  0  0  0  0  0
   56.8120   29.5224   43.5645 O   0  0  0  0  0  0  0  0  0  0  0  0
   56.8870   28.1872   45.4803 N   0  0  0  0  0  0  0  0  0  0  0  0
   57.3598   26.9965   45.7360 C   0  0  0  0  0  0  0  0  0  0  0  0
   58.7119   26.8385   45.7347 N   0  0  0  0  0  0  0  0  0  0  0  0
   59.3111   25.6519   46.0107 C   0  0  0  0  0  0  0  0  0  0  0  0
   58.5397   24.5339   46.3167 C   0  0  0  0  0  0  0  0  0  0  0  0
   57.1512   24.6512   46.3386 C   0  0  0  0  0  0  0  0  0  0  0  0
   56.5450   25.8763   46.0578 C   0  0  0  0  0  0  0  0  0  0  0  0
   55.1599   25.9597   46.1367 O   0  0  0  0  0  0  0  0  0  0  0  0
   59.2447   33.7792   47.9664 C   0  0  0  0  0  0  0  0  0  0  0  0
   60.7510   33.7452   48.0237 C   0  0  0  0  0  0  0  0  0  0  0  0
   61.5072   33.5913   46.8506 C   0  0  0  0  0  0  0  0  0  0  0  0
   62.8997   33.5032   46.9170 C   0  0  0  0  0  0  0  0  0  0  0  0
   63.5503   33.5586   48.1521 C   0  0  0  0  0  0  0  0  0  0  0  0
   62.8066   33.7029   49.3379 C   0  0  0  0  0  0  0  0  0  0  0  0
   61.4118   33.7980   49.2627 C   0  0  0  0  0  0  0  0  0  0  0  0
   63.4080   33.7467   50.6052 O   0  0  0  0  0  0  0  0  0  0  0  0
   64.7016   33.2292   50.8989 C   0  0  0  0  0  0  0  0  0  0  0  0
  1  2  1  0
  2  3  2  0
  3  4  1  0
  4  9  1  0
  9 10  1  0
 10 11  2  0
 10 12  1  0
 12 13  2  0
 13 14  1  0
 14 15  1  0
 15 16  2  0
 16 17  1  0
 17 18  2  0
 18 19  1  0
  4  5  2  0
  5  6  1  0
  5  7  1  0
  7 20  1  0
 20 21  1  0
 21 22  2  0
 22 23  1  0
 23 24  2  0
 24 25  1  0
 25 27  1  0
 27 28  1  0
 25 26  2  0
  7  2  1  0
 26 21  1  0
 18 13  1  0
  1  8  1  0
M  CHG 1   6  -1
M  CHG 1  14  -1
M  CHG 1  19  -1
M  END
> <UniqueID>
72

> <SMILES>
COc1cccc(Cn2c(O)cc(CC(=O)/N=c3/[n-]cccc3[O-])c2[O-])c1

> <Energy>
78.89273245972275

> <Genealogy>
COc1cccc(Cn2c(O)cc(CC(=O)N=c3[n-]cccc3[O-])c2[O-])c1 (protonated)
COc1cccc(Cn2c(O)cc(CC(=O)/N=c3/[n-]cccc3[O-])c2[O-])c1 (cis-trans isomerization)
COc1cccc(Cn2c(O)cc(CC(=O)/N=c3/[n-]cccc3[O-])c2[O-])c1 (3D coordinates assigned)
COc1cccc(Cn2c(O)cc(CC(=O)/N=c3/[n-]cccc3[O-])c2[O-])c1 (optimized conformer: 78.89273245972275 kcal/mol)

> <smiles>
COc1cccc(Cn2c(O)cc(CC(=O)N=c3[nH]cccc3O)c2O)c1

> <score_type>
oracle

> <origin>
adg

> <m_score__min__energy>
-14.24

> <m_primary>
energy

> <minimizedAffinity>
-7.84810

> <minimizedRMSD>
0.87006

> <CNNscore>
0.4078529477

> <CNNaffinity>
6.3182463646

> <CNN_VS>
2.5769155025

> <CNNaffinity_variance>
0.0870744586

$$$$
88:0


 29 32  0  0  0  0  0  0  0  0999 V2000
   57.7618   30.3952   45.0910 C   0  0  0  0  0  0  0  0  0  0  0  0
   58.0935   29.1420   45.4131 C   0  0  0  0  0  0  0  0  0  0  0  0
   57.6250   28.0737   44.7239 N   0  0  0  0  0  0  0  0  0  0  0  0
   58.2217   27.0112   45.3030 C   0  0  0  0  0  0  0  0  0  0  0  0
   58.0192   25.7309   44.9559 C   0  0  0  0  0  0  0  0  0  0  0  0
   59.0255   27.4544   46.3309 C   0  0  0  0  0  0  0  0  0  0  0  0
   59.7123   26.7330   47.1039 O   0  0  0  0  0  0  0  0  0  0  0  0
   58.9512   28.7968   46.4086 N   0  0  0  0  0  0  0  0  0  0  0  0
   57.3045   24.7476   45.7939 C   0  0  0  0  0  0  0  0  0  0  0  0
   57.8334   23.5587   46.1298 N   0  0  0  0  0  0  0  0  0  0  0  0
   56.8501   22.9621   46.8384 C   0  0  0  0  0  0  0  0  0  0  0  0
   56.9769   21.8153   47.3404 O   0  0  0  0  0  0  0  0  0  0  0  0
   55.7193   23.6879   46.9570 N   0  0  0  0  0  0  0  0  0  0  0  0
   56.0151   24.8111   46.2846 C   0  0  0  0  0  0  0  0  0  0  0  0
   55.1057   25.8422   46.0850 O   0  0  0  0  0  0  0  0  0  0  0  0
   59.6180   29.6379   47.3649 C   0  0  0  0  0  0  0  0  0  0  0  0
   60.7397   30.3933   46.9888 C   0  0  0  0  0  0  0  0  0  0  0  0
   61.3745   31.2247   47.9147 C   0  0  0  0  0  0  0  0  0  0  0  0
   60.8978   31.3169   49.2337 C   0  0  0  0  0  0  0  0  0  0  0  0
   59.7616   30.5763   49.6018 C   0  0  0  0  0  0  0  0  0  0  0  0
   59.1263   29.7463   48.6743 C   0  0  0  0  0  0  0  0  0  0  0  0
   61.5437   32.1857   50.1847 N   0  0  0  0  0  0  0  0  0  0  0  0
   62.2541   31.6213   51.3375 C   0  0  0  0  0  0  0  0  0  0  0  0
   63.2647   32.6359   51.9029 C   0  0  0  0  0  0  0  0  0  0  0  0
   63.9107   33.4292   50.8330 N   0  0  0  0  0  0  0  0  0  0  0  0
   64.7595   32.5823   49.9700 C   0  0  0  0  0  0  0  0  0  0  0  0
   62.9369   34.2205   50.0288 C   0  0  0  0  0  0  0  0  0  0  0  0
   61.5071   33.6420   50.0305 C   0  0  0  0  0  0  0  0  0  0  0  0
   64.5133   34.1054   51.3021 H   0  0  0  0  0  0  0  0  0  0  0  0
  1  2  2  0
  2  3  1  0
  3  4  1  0
  4  5  2  0
  5  9  1  0
  9 10  1  0
 10 11  1  0
 11 12  2  0
 11 13  1  0
 13 14  1  0
 14 15  1  0
  4  6  1  0
  6  7  2  0
  6  8  1  0
  8 16  1  0
 16 17  2  0
 17 18  1  0
 18 19  2  0
 19 22  1  0
 22 23  1  0
 23 24  1  0
 24 25  1  0
 25 26  1  0
 25 27  1  0
 27 28  1  0
 19 20  1  0
 20 21  2  0
  8  2  1  0
 21 16  1  0
 14  9  2  0
 28 22  1  0
 25 29  1  0
M  CHG 1   3  -1
M  CHG 1  10  -1
M  CHG 1  13  -1
M  CHG 1  15  -1
M  CHG 1  25   1
M  END
> <UniqueID>
81

> <SMILES>
C=c1[n-]/c(=C\c2[n-]c(=O)[n-]c2[O-])c(=O)n1-c1ccc(N2CC[NH+](C)CC2)cc1

> <Energy>
134.7526510687414

> <Genealogy>
C=c1[n-]c(=Cc2[n-]c(=O)[n-]c2[O-])c(=O)n1-c1ccc(N2CC[NH+](C)CC2)cc1 (protonated)
C=c1[n-]/c(=C\c2[n-]c(=O)[n-]c2[O-])c(=O)n1-c1ccc(N2CC[NH+](C)CC2)cc1 (cis-trans isomerization)
C=c1[n-]/c(=C\c2[n-]c(=O)[n-]c2[O-])c(=O)n1-c1ccc(N2CC[NH+](C)CC2)cc1 (3D coordinates assigned)
C=c1[n-]/c(=C\c2[n-]c(=O)[n-]c2[O-])c(=O)n1-c1ccc(N2CC[NH+](C)CC2)cc1 (nonaromatic ring conformer: 134.7526510687414 kcal/mol)

> <smiles>
C=c1[nH]c(=Cc2[nH]c(=O)[nH]c2O)c(=O)n1-c1ccc(N2CCN(C)CC2)cc1

> <score_type>
oracle

> <origin>
adg

> <m_score__min__energy>
-15.85

> <m_primary>
energy

> <minimizedAffinity>
-8.32812

> <minimizedRMSD>
1.69856

> <CNNscore>
0.1965736747

> <CNNaffinity>
6.2858982086

> <CNN_VS>
1.2356420755

> <CNNaffinity_variance>
0.0657729134

$$$$
